data_crystal

_cell_length_a 38.64800
_cell_length_b 38.64800
_cell_length_c 59.84400
_cell_angle_alpha 90.00000
_cell_angle_beta  90.00000
_cell_angle_gamma 120.00000

_symmetry_space_group_name_	'P 1'
_symmetry_space_group_name_H-M	'P 1'

loop_
_symmetry_equiv_pos_as_xyz
  x,y,z

loop_
_atom_site_label
_atom_site_type_symbol
_atom_site_fract_x
_atom_site_fract_y
_atom_site_fract_z
_atom_site_charge
C 	C 	0.30716 0.20870 0.36996 0.35700
C 	C 	0.29562 0.23883 0.37339 -0.01200
C 	C 	0.31793 0.27102 0.38776 -0.11700
H 	H 	0.33750 0.27080 0.39670 0.08000
C 	C 	0.31167 0.30247 0.38891 0.10000
H 	H 	0.32680 0.32370 0.39850 -0.00200
C 	C 	0.28356 0.30270 0.37616 -0.25100
H 	H 	0.27950 0.32440 0.37680 0.10400
C 	C 	0.25988 0.27072 0.36166 0.25600
C 	C 	0.26616 0.23886 0.36032 -0.19400
H 	H 	0.25080 0.21760 0.35080 0.10400
C 	C 	0.20654 0.24459 0.33486 0.24800
H 	H 	0.18980 0.21970 0.34270 -0.05400
H 	H 	0.22200 0.24000 0.32370 -0.05800
C 	C 	0.18106 0.25958 0.32389 -0.42100
C 	C 	0.15188 0.26169 0.33631 0.47800
C 	C 	0.13284 0.28025 0.32709 -0.40300
C 	C 	0.13947 0.29290 0.30493 0.50500
C 	C 	0.16791 0.28930 0.29271 -0.40600
C 	C 	0.19098 0.27401 0.30286 0.47400
C 	C 	0.22445 0.27436 0.28958 -1.00000
H 	H 	0.24660 0.28060 0.29930 0.33100
H 	H 	0.23280 0.29410 0.27800 0.33500
H 	H 	0.21520 0.24850 0.28300 0.30900
C 	C 	0.13993 0.24361 0.35970 -0.99000
H 	H 	0.13640 0.21720 0.35970 0.32500
H 	H 	0.11540 0.24230 0.36400 0.33100
H 	H 	0.16050 0.26000 0.37010 0.31200
C 	C 	0.11684 0.31098 0.29479 -1.05400
H 	H 	0.09270 0.30270 0.30310 0.35300
H 	H 	0.11030 0.30230 0.27960 0.34100
H 	H 	0.13300 0.33960 0.29520 0.33700
C 	C 	0.10433 0.28741 0.34065 0.22400
H 	H 	0.11070 0.28860 0.35640 -0.03600
H 	H 	0.10650 0.31260 0.33640 -0.03700
C 	C 	0.03501 0.25876 0.34714 0.22400
C 	C 	0.04203 0.29112 0.36044 -0.21900
H 	H 	0.06800 0.31170 0.36290 0.10900
C 	C 	0.01017 0.29274 0.37011 0.06100
H 	H 	0.01490 0.31440 0.37900 -0.00400
C 	C 	0.97128 0.26200 0.36647 -0.10000
H 	H 	0.95000 0.26310 0.37290 0.05900
C 	C 	0.96426 0.22963 0.35317 -0.03400
C 	C 	0.99612 0.22801 0.34350 -0.15900
H 	H 	0.99140 0.20640 0.33460 0.10700
C 	C 	0.92310 0.19716 0.34934 0.37600
C 	C 	0.17627 0.30412 0.26873 0.27000
H 	H 	0.18730 0.29020 0.26060 -0.05700
H 	H 	0.15150 0.29860 0.26150 -0.06600
C 	C 	0.20964 0.36455 0.24860 0.24900
C 	C 	0.23607 0.40542 0.24946 -0.23500
H 	H 	0.24790 0.41730 0.26300 0.11000
C 	C 	0.24489 0.42843 0.23054 0.08000
H 	H 	0.26200 0.45590 0.23130 -0.00600
C 	C 	0.22798 0.41034 0.21006 -0.10800
H 	H 	0.23470 0.42560 0.19710 0.07100
C 	C 	0.20133 0.36989 0.20922 -0.00100
C 	C 	0.19331 0.34728 0.22864 -0.20100
H 	H 	0.17640 0.31980 0.22790 0.10900
C 	C 	0.18305 0.34978 0.18755 0.35700
C 	C 	0.17085 0.12994 0.34342 0.41100
C 	C 	0.14841 0.13367 0.36261 -0.03800
C 	C 	0.10783 0.12062 0.36100 -0.08400
H 	H 	0.09390 0.10800 0.34800 0.05800
C 	C 	0.08804 0.12635 0.37875 0.04500
H 	H 	0.06090 0.11760 0.37770 0.00700
C 	C 	0.10883 0.14514 0.39812 -0.20600
H 	H 	0.09560 0.14900 0.41000 0.10500
C 	C 	0.14941 0.15819 0.39973 0.22000
C 	C 	0.16920 0.15246 0.38197 -0.16500
H 	H 	0.19630 0.16120 0.38300 0.09800
C 	C 	0.20834 0.19668 0.41937 0.23500
H 	H 	0.21820 0.21150 0.40550 -0.04300
H 	H 	0.21840 0.17830 0.42060 -0.04500
C 	C 	0.22275 0.22549 0.43921 -0.39700
C 	C 	0.22240 0.26084 0.43792 0.54000
C 	C 	0.24136 0.28945 0.45523 -0.41200
C 	C 	0.26073 0.28217 0.47205 0.47700
C 	C 	0.25912 0.24531 0.47404 -0.38900
C 	C 	0.23809 0.21552 0.45841 0.45200
C 	C 	0.23321 0.17443 0.46059 -0.94000
H 	H 	0.20840 0.15510 0.45390 0.30500
H 	H 	0.23320 0.16820 0.47610 0.29900
H 	H 	0.25490 0.17390 0.45310 0.28100
C 	C 	0.20505 0.27063 0.41906 -1.13200
H 	H 	0.22600 0.28870 0.40920 0.36200
H 	H 	0.19040 0.28300 0.42440 0.36900
H 	H 	0.18730 0.24660 0.41110 0.37000
C 	C 	0.28494 0.31570 0.48889 -0.99600
H 	H 	0.30230 0.33990 0.48100 0.34300
H 	H 	0.30060 0.30830 0.49810 0.34000
H 	H 	0.26700 0.31980 0.49810 0.33500
C 	C 	0.24209 0.32833 0.45386 0.24500
H 	H 	0.22130 0.32630 0.44400 -0.05400
H 	H 	0.23840 0.33680 0.46850 -0.04500
C 	C 	0.29389 0.39519 0.44724 0.23500
C 	C 	0.33438 0.42118 0.44366 -0.21000
H 	H 	0.35140 0.41110 0.44090 0.10400
C 	C 	0.34952 0.46223 0.44424 0.07000
H 	H 	0.37660 0.47960 0.44180 -0.00200
C 	C 	0.32416 0.47729 0.44839 -0.09500
H 	H 	0.33430 0.50480 0.44880 0.06800
C 	C 	0.28366 0.45131 0.45196 -0.01800
C 	C 	0.26852 0.41026 0.45138 -0.17700
H 	H 	0.24140 0.39290 0.45380 0.09900
C 	C 	0.25761 0.46730 0.45607 0.32100
C 	C 	0.28493 0.24152 0.49129 0.25300
H 	H 	0.28450 0.21650 0.48910 -0.04800
H 	H 	0.31220 0.26300 0.48930 -0.04800
C 	C 	0.30198 0.25719 0.52925 0.22100
C 	C 	0.29184 0.26797 0.54931 -0.20100
H 	H 	0.26670 0.26520 0.55110 0.10200
C 	C 	0.31930 0.28287 0.56671 0.06000
H 	H 	0.31250 0.29010 0.58010 0.00100
C 	C 	0.35691 0.28697 0.56406 -0.09900
H 	H 	0.37530 0.29690 0.57570 0.05700
C 	C 	0.36705 0.27619 0.54400 -0.01400
C 	C 	0.33959 0.26129 0.52660 -0.16900
H 	H 	0.34640 0.25410 0.51320 0.09200
C 	C 	0.40685 0.27991 0.54130 0.30900
Mn	Mn	0.34302 0.16450 0.36098 1.26300
Mn	Mn	0.25527 0.13998 0.32848 1.28800
Mn	Mn	0.18567 0.13994 0.29248 1.22200
O 	O 	0.33681 0.21141 0.38050 -0.44000
O 	O 	0.29018 0.18155 0.35647 -0.52500
O 	O 	0.23277 0.27502 0.35037 -0.31100
O 	O 	0.20306 0.34488 0.26826 -0.31200
O 	O 	0.15873 0.31303 0.18854 -0.45600
O 	O 	0.19296 0.37026 0.17037 -0.47100
O 	O 	0.06431 0.25511 0.33659 -0.28600
O 	O 	0.91666 0.16536 0.34100 -0.44400
O 	O 	0.89625 0.20384 0.35650 -0.50500
O 	O 	0.20188 0.13110 0.34750 -0.46300
O 	O 	0.15533 0.12555 0.32491 -0.49600
O 	O 	0.16623 0.17539 0.41935 -0.29700
O 	O 	0.28201 0.35645 0.44490 -0.29100
O 	O 	0.22228 0.44321 0.46240 -0.53000
O 	O 	0.26738 0.50275 0.45256 -0.38500
O 	O 	0.27271 0.24279 0.51330 -0.29200
O 	O 	0.41716 0.27428 0.52263 -0.48600
O 	O 	0.42934 0.28863 0.55833 -0.44700
O 	O 	0.39680 0.16990 0.37130 -0.25200
O 	O 	0.39990 0.16460 0.36840 -0.23900
H 	H 	0.42100 0.19120 0.37090 -0.50100
H 	H 	0.39720 0.14860 0.38120 0.54200
H 	H 	0.39510 0.13790 0.36750 -0.19100
H 	H 	0.41890 0.18060 0.35720 0.40100
H 	H 	0.41600 0.19720 0.37410 0.59400
H 	H 	0.39170 0.15500 0.38490 -0.43800
H 	H 	0.39360 0.14380 0.37210 0.12700
H 	H 	0.41800 0.18600 0.36130 -0.17200
C 	C 	0.97383 0.54203 0.70329 0.35800
C 	C 	0.96229 0.57216 0.70672 -0.01100
C 	C 	0.98460 0.60435 0.72109 -0.11600
H 	H 	0.00417 0.60413 0.73003 0.08100
C 	C 	0.97834 0.63580 0.72224 0.10100
H 	H 	0.99347 0.65703 0.73183 -0.00100
C 	C 	0.95023 0.63603 0.70949 -0.25000
H 	H 	0.94617 0.65773 0.71013 0.10500
C 	C 	0.92655 0.60405 0.69499 0.25700
C 	C 	0.93283 0.57219 0.69365 -0.19300
H 	H 	0.91747 0.55093 0.68413 0.10500
C 	C 	0.87321 0.57792 0.66819 0.24900
H 	H 	0.85647 0.55303 0.67603 -0.05300
H 	H 	0.88867 0.57333 0.65703 -0.05700
C 	C 	0.84773 0.59291 0.65722 -0.42000
C 	C 	0.81855 0.59502 0.66964 0.47900
C 	C 	0.79951 0.61358 0.66042 -0.40200
C 	C 	0.80614 0.62623 0.63826 0.50600
C 	C 	0.83458 0.62263 0.62604 -0.40500
C 	C 	0.85765 0.60734 0.63619 0.47500
C 	C 	0.89112 0.60769 0.62291 -0.99900
H 	H 	0.91327 0.61393 0.63263 0.33200
H 	H 	0.89947 0.62743 0.61133 0.33600
H 	H 	0.88187 0.58183 0.61633 0.31000
C 	C 	0.80660 0.57694 0.69303 -0.98900
H 	H 	0.80307 0.55053 0.69303 0.32600
H 	H 	0.78207 0.57563 0.69733 0.33200
H 	H 	0.82717 0.59333 0.70343 0.31300
C 	C 	0.78351 0.64431 0.62812 -1.05300
H 	H 	0.75937 0.63603 0.63643 0.35400
H 	H 	0.77697 0.63563 0.61293 0.34200
H 	H 	0.79967 0.67293 0.62853 0.33800
C 	C 	0.77100 0.62074 0.67398 0.22500
H 	H 	0.77737 0.62193 0.68973 -0.03500
H 	H 	0.77317 0.64593 0.66973 -0.03600
C 	C 	0.70168 0.59209 0.68047 0.22500
C 	C 	0.70870 0.62445 0.69377 -0.21800
H 	H 	0.73467 0.64503 0.69623 0.11000
C 	C 	0.67684 0.62607 0.70344 0.06200
H 	H 	0.68157 0.64773 0.71233 -0.00300
C 	C 	0.63795 0.59533 0.69980 -0.09900
H 	H 	0.61667 0.59643 0.70623 0.06000
C 	C 	0.63093 0.56296 0.68650 -0.03300
C 	C 	0.66279 0.56134 0.67683 -0.15800
H 	H 	0.65807 0.53973 0.66793 0.10800
C 	C 	0.58977 0.53049 0.68267 0.37700
C 	C 	0.84294 0.63745 0.60206 0.27100
H 	H 	0.85397 0.62353 0.59393 -0.05600
H 	H 	0.81817 0.63193 0.59483 -0.06500
C 	C 	0.87631 0.69788 0.58193 0.25000
C 	C 	0.90274 0.73875 0.58279 -0.23400
H 	H 	0.91457 0.75063 0.59633 0.11100
C 	C 	0.91156 0.76176 0.56387 0.08100
H 	H 	0.92867 0.78923 0.56463 -0.00500
C 	C 	0.89465 0.74367 0.54339 -0.10700
H 	H 	0.90137 0.75893 0.53043 0.07200
C 	C 	0.86800 0.70322 0.54255 -0.00000
C 	C 	0.85998 0.68061 0.56197 -0.20000
H 	H 	0.84307 0.65313 0.56123 0.11000
C 	C 	0.84972 0.68311 0.52088 0.35800
C 	C 	0.83752 0.46327 0.67675 0.41200
C 	C 	0.81508 0.46700 0.69594 -0.03700
C 	C 	0.77450 0.45395 0.69433 -0.08300
H 	H 	0.76057 0.44133 0.68133 0.05900
C 	C 	0.75471 0.45968 0.71208 0.04600
H 	H 	0.72757 0.45093 0.71103 0.00800
C 	C 	0.77550 0.47847 0.73145 -0.20500
H 	H 	0.76227 0.48233 0.74333 0.10600
C 	C 	0.81608 0.49152 0.73306 0.22100
C 	C 	0.83587 0.48579 0.71530 -0.16400
H 	H 	0.86297 0.49453 0.71633 0.09900
C 	C 	0.87501 0.53001 0.75270 0.23600
H 	H 	0.88487 0.54483 0.73883 -0.04300
H 	H 	0.88507 0.51163 0.75393 -0.04500
C 	C 	0.88942 0.55882 0.77254 -0.39700
C 	C 	0.88907 0.59417 0.77125 0.54000
C 	C 	0.90803 0.62278 0.78856 -0.41200
C 	C 	0.92740 0.61550 0.80538 0.47700
C 	C 	0.92579 0.57864 0.80737 -0.38900
C 	C 	0.90476 0.54885 0.79174 0.45200
C 	C 	0.89988 0.50776 0.79392 -0.94000
H 	H 	0.87507 0.48843 0.78723 0.30500
H 	H 	0.89987 0.50153 0.80943 0.29900
H 	H 	0.92157 0.50723 0.78643 0.28100
C 	C 	0.87172 0.60396 0.75239 -1.13200
H 	H 	0.89267 0.62203 0.74253 0.36200
H 	H 	0.85707 0.61633 0.75773 0.36900
H 	H 	0.85397 0.57993 0.74443 0.37000
C 	C 	0.95161 0.64903 0.82222 -0.99600
H 	H 	0.96897 0.67323 0.81433 0.34300
H 	H 	0.96727 0.64163 0.83143 0.34000
H 	H 	0.93367 0.65313 0.83143 0.33500
C 	C 	0.90876 0.66166 0.78719 0.24500
H 	H 	0.88797 0.65963 0.77733 -0.05400
H 	H 	0.90507 0.67013 0.80183 -0.04500
C 	C 	0.96056 0.72852 0.78057 0.23500
C 	C 	0.00105 0.75451 0.77699 -0.21000
H 	H 	0.01807 0.74443 0.77423 0.10400
C 	C 	0.01619 0.79556 0.77757 0.07000
H 	H 	0.04327 0.81293 0.77513 -0.00200
C 	C 	0.99083 0.81062 0.78172 -0.09500
H 	H 	0.00097 0.83813 0.78213 0.06800
C 	C 	0.95033 0.78464 0.78529 -0.01800
C 	C 	0.93519 0.74359 0.78471 -0.17700
H 	H 	0.90807 0.72623 0.78713 0.09900
C 	C 	0.92428 0.80063 0.78940 0.32100
C 	C 	0.95160 0.57485 0.82462 0.25300
H 	H 	0.95117 0.54983 0.82243 -0.04800
H 	H 	0.97887 0.59633 0.82263 -0.04800
C 	C 	0.96865 0.59052 0.86258 0.22100
C 	C 	0.95851 0.60130 0.88264 -0.20100
H 	H 	0.93337 0.59853 0.88443 0.10200
C 	C 	0.98597 0.61620 0.90004 0.06000
H 	H 	0.97917 0.62343 0.91343 0.00100
C 	C 	0.02358 0.62030 0.89739 -0.09900
H 	H 	0.04197 0.63023 0.90903 0.05700
C 	C 	0.03372 0.60952 0.87733 -0.01400
C 	C 	0.00626 0.59462 0.85993 -0.16900
H 	H 	0.01307 0.58743 0.84653 0.09200
C 	C 	0.07352 0.61324 0.87463 0.30900
Mn	Mn	0.00968 0.49784 0.69431 1.26300
Mn	Mn	0.92194 0.47331 0.66182 1.28800
Mn	Mn	0.85234 0.47328 0.62582 1.22200
O 	O 	0.00348 0.54474 0.71383 -0.44000
O 	O 	0.95685 0.51488 0.68980 -0.52500
O 	O 	0.89944 0.60835 0.68370 -0.31100
O 	O 	0.86973 0.67821 0.60159 -0.31200
O 	O 	0.82540 0.64636 0.52187 -0.45600
O 	O 	0.85963 0.70359 0.50370 -0.47100
O 	O 	0.73098 0.58844 0.66992 -0.28600
O 	O 	0.58333 0.49869 0.67433 -0.44400
O 	O 	0.56292 0.53717 0.68983 -0.50500
O 	O 	0.86855 0.46443 0.68083 -0.46300
O 	O 	0.82200 0.45888 0.65824 -0.49600
O 	O 	0.83290 0.50872 0.75268 -0.29700
O 	O 	0.94868 0.68978 0.77823 -0.29100
O 	O 	0.88895 0.77654 0.79573 -0.53000
O 	O 	0.93405 0.83608 0.78589 -0.38500
O 	O 	0.93938 0.57612 0.84663 -0.29200
O 	O 	0.08383 0.60761 0.85596 -0.48600
O 	O 	0.09601 0.62196 0.89166 -0.44700
O 	O 	0.06347 0.50323 0.70463 -0.25200
O 	O 	0.06657 0.49793 0.70173 -0.23900
H 	H 	0.08767 0.52453 0.70423 -0.50100
H 	H 	0.06387 0.48193 0.71453 0.54200
H 	H 	0.06177 0.47123 0.70083 -0.19100
H 	H 	0.08557 0.51393 0.69053 0.40100
H 	H 	0.08267 0.53053 0.70743 0.59400
H 	H 	0.05837 0.48833 0.71823 -0.43800
H 	H 	0.06027 0.47713 0.70543 0.12700
H 	H 	0.08467 0.51933 0.69463 -0.17200
C 	C 	0.64049 0.87537 0.03663 0.35800
C 	C 	0.62895 0.90550 0.04006 -0.01100
C 	C 	0.65126 0.93769 0.05443 -0.11600
H 	H 	0.67083 0.93747 0.06337 0.08100
C 	C 	0.64500 0.96914 0.05558 0.10100
H 	H 	0.66013 0.99037 0.06517 -0.00100
C 	C 	0.61689 0.96937 0.04283 -0.25000
H 	H 	0.61283 0.99107 0.04347 0.10500
C 	C 	0.59321 0.93739 0.02833 0.25700
C 	C 	0.59949 0.90553 0.02699 -0.19300
H 	H 	0.58413 0.88427 0.01747 0.10500
C 	C 	0.53987 0.91126 0.00153 0.24900
H 	H 	0.52313 0.88637 0.00937 -0.05300
H 	H 	0.55533 0.90667 0.99037 -0.05700
C 	C 	0.51439 0.92625 0.99056 -0.42000
C 	C 	0.48521 0.92836 0.00298 0.47900
C 	C 	0.46617 0.94692 0.99376 -0.40200
C 	C 	0.47280 0.95957 0.97160 0.50600
C 	C 	0.50124 0.95597 0.95938 -0.40500
C 	C 	0.52431 0.94068 0.96953 0.47500
C 	C 	0.55778 0.94103 0.95625 -0.99900
H 	H 	0.57993 0.94727 0.96597 0.33200
H 	H 	0.56613 0.96077 0.94467 0.33600
H 	H 	0.54853 0.91517 0.94967 0.31000
C 	C 	0.47326 0.91028 0.02637 -0.98900
H 	H 	0.46973 0.88387 0.02637 0.32600
H 	H 	0.44873 0.90897 0.03067 0.33200
H 	H 	0.49383 0.92667 0.03677 0.31300
C 	C 	0.45017 0.97765 0.96146 -1.05300
H 	H 	0.42603 0.96937 0.96977 0.35400
H 	H 	0.44363 0.96897 0.94627 0.34200
H 	H 	0.46633 0.00627 0.96187 0.33800
C 	C 	0.43766 0.95408 0.00732 0.22500
H 	H 	0.44403 0.95527 0.02307 -0.03500
H 	H 	0.43983 0.97927 0.00307 -0.03600
C 	C 	0.36834 0.92543 0.01381 0.22500
C 	C 	0.37536 0.95779 0.02711 -0.21800
H 	H 	0.40133 0.97837 0.02957 0.11000
C 	C 	0.34350 0.95941 0.03678 0.06200
H 	H 	0.34823 0.98107 0.04567 -0.00300
C 	C 	0.30461 0.92867 0.03314 -0.09900
H 	H 	0.28333 0.92977 0.03957 0.06000
C 	C 	0.29759 0.89630 0.01984 -0.03300
C 	C 	0.32945 0.89468 0.01017 -0.15800
H 	H 	0.32473 0.87307 0.00127 0.10800
C 	C 	0.25643 0.86383 0.01601 0.37700
C 	C 	0.50960 0.97079 0.93540 0.27100
H 	H 	0.52063 0.95687 0.92727 -0.05600
H 	H 	0.48483 0.96527 0.92817 -0.06500
C 	C 	0.54297 0.03122 0.91527 0.25000
C 	C 	0.56940 0.07209 0.91613 -0.23400
H 	H 	0.58123 0.08397 0.92967 0.11100
C 	C 	0.57822 0.09510 0.89721 0.08100
H 	H 	0.59533 0.12257 0.89797 -0.00500
C 	C 	0.56131 0.07701 0.87673 -0.10700
H 	H 	0.56803 0.09227 0.86377 0.07200
C 	C 	0.53466 0.03656 0.87589 -0.00000
C 	C 	0.52664 0.01395 0.89531 -0.20100
H 	H 	0.50973 0.98647 0.89457 0.11000
C 	C 	0.51638 0.01645 0.85422 0.35800
C 	C 	0.50418 0.79661 0.01009 0.41200
C 	C 	0.48174 0.80034 0.02928 -0.03700
C 	C 	0.44116 0.78729 0.02767 -0.08300
H 	H 	0.42723 0.77467 0.01467 0.05900
C 	C 	0.42137 0.79302 0.04542 0.04600
H 	H 	0.39423 0.78427 0.04437 0.00800
C 	C 	0.44216 0.81181 0.06479 -0.20500
H 	H 	0.42893 0.81567 0.07667 0.10600
C 	C 	0.48274 0.82486 0.06640 0.22100
C 	C 	0.50253 0.81913 0.04864 -0.16400
H 	H 	0.52963 0.82787 0.04967 0.09900
C 	C 	0.54167 0.86335 0.08604 0.23600
H 	H 	0.55153 0.87817 0.07217 -0.04300
H 	H 	0.55173 0.84497 0.08727 -0.04500
C 	C 	0.55608 0.89216 0.10588 -0.39700
C 	C 	0.55573 0.92751 0.10459 0.54000
C 	C 	0.57469 0.95612 0.12190 -0.41200
C 	C 	0.59406 0.94884 0.13872 0.47700
C 	C 	0.59245 0.91198 0.14071 -0.38900
C 	C 	0.57142 0.88219 0.12508 0.45200
C 	C 	0.56654 0.84110 0.12726 -0.94000
H 	H 	0.54173 0.82177 0.12057 0.30500
H 	H 	0.56653 0.83487 0.14277 0.29900
H 	H 	0.58823 0.84057 0.11977 0.28100
C 	C 	0.53838 0.93730 0.08573 -1.13200
H 	H 	0.55933 0.95537 0.07587 0.36200
H 	H 	0.52373 0.94967 0.09107 0.36900
H 	H 	0.52063 0.91327 0.07777 0.37000
C 	C 	0.61827 0.98237 0.15556 -0.99600
H 	H 	0.63563 0.00657 0.14767 0.34300
H 	H 	0.63393 0.97497 0.16477 0.34000
H 	H 	0.60033 0.98647 0.16477 0.33500
C 	C 	0.57542 0.99500 0.12053 0.24500
H 	H 	0.55463 0.99297 0.11067 -0.05400
H 	H 	0.57173 0.00347 0.13517 -0.04500
C 	C 	0.62722 0.06186 0.11391 0.23500
C 	C 	0.66771 0.08785 0.11033 -0.21000
H 	H 	0.68473 0.07777 0.10757 0.10400
C 	C 	0.68285 0.12890 0.11091 0.07000
H 	H 	0.70993 0.14627 0.10847 -0.00200
C 	C 	0.65749 0.14396 0.11506 -0.09500
H 	H 	0.66763 0.17147 0.11547 0.06800
C 	C 	0.61699 0.11798 0.11863 -0.01800
C 	C 	0.60185 0.07693 0.11805 -0.17700
H 	H 	0.57473 0.05957 0.12047 0.09900
C 	C 	0.59094 0.13397 0.12274 0.32100
C 	C 	0.61826 0.90819 0.15796 0.25300
H 	H 	0.61783 0.88317 0.15577 -0.04800
H 	H 	0.64553 0.92967 0.15597 -0.04800
C 	C 	0.63531 0.92386 0.19592 0.22100
C 	C 	0.62517 0.93464 0.21598 -0.20100
H 	H 	0.60003 0.93187 0.21777 0.10200
C 	C 	0.65263 0.94954 0.23338 0.06000
H 	H 	0.64583 0.95677 0.24677 0.00100
C 	C 	0.69024 0.95364 0.23073 -0.09900
H 	H 	0.70863 0.96357 0.24237 0.05700
C 	C 	0.70038 0.94286 0.21067 -0.01400
C 	C 	0.67292 0.92796 0.19327 -0.16900
H 	H 	0.67973 0.92077 0.17987 0.09200
C 	C 	0.74018 0.94658 0.20797 0.30900
Mn	Mn	0.67635 0.83117 0.02765 1.26300
Mn	Mn	0.58861 0.80665 0.99515 1.28800
Mn	Mn	0.51900 0.80661 0.95915 1.22200
O 	O 	0.67014 0.87808 0.04717 -0.44000
O 	O 	0.62351 0.84822 0.02314 -0.52500
O 	O 	0.56610 0.94169 0.01704 -0.31100
O 	O 	0.53639 0.01155 0.93493 -0.31200
O 	O 	0.49206 0.97970 0.85521 -0.45600
O 	O 	0.52629 0.03693 0.83704 -0.47100
O 	O 	0.39764 0.92178 0.00326 -0.28600
O 	O 	0.24999 0.83203 0.00767 -0.44400
O 	O 	0.22958 0.87051 0.02317 -0.50500
O 	O 	0.53521 0.79777 0.01417 -0.46300
O 	O 	0.48866 0.79222 0.99158 -0.49600
O 	O 	0.49956 0.84206 0.08602 -0.29700
O 	O 	0.61534 0.02312 0.11157 -0.29100
O 	O 	0.55561 0.10988 0.12907 -0.53000
O 	O 	0.60071 0.16942 0.11923 -0.38500
O 	O 	0.60604 0.90946 0.17997 -0.29200
O 	O 	0.75049 0.94095 0.18930 -0.48600
O 	O 	0.76267 0.95530 0.22500 -0.44700
O 	O 	0.73013 0.83657 0.03797 -0.25200
O 	O 	0.73323 0.83127 0.03507 -0.23900
H 	H 	0.75433 0.85787 0.03757 -0.50100
H 	H 	0.73053 0.81527 0.04787 0.54200
H 	H 	0.72843 0.80457 0.03417 -0.19100
H 	H 	0.75223 0.84727 0.02387 0.40100
H 	H 	0.74933 0.86387 0.04077 0.59400
H 	H 	0.72503 0.82167 0.05157 -0.43800
H 	H 	0.72693 0.81047 0.03877 0.12700
H 	H 	0.75133 0.85267 0.02797 -0.17200
C 	C 	0.79130 0.09846 0.36996 0.35800
C 	C 	0.76117 0.05679 0.37339 -0.01100
C 	C 	0.72898 0.04691 0.38776 -0.11600
H 	H 	0.72920 0.06670 0.39670 0.08100
C 	C 	0.69753 0.00920 0.38891 0.10100
H 	H 	0.67630 0.00310 0.39850 -0.00100
C 	C 	0.69730 0.98086 0.37616 -0.25000
H 	H 	0.67560 0.95510 0.37680 0.10500
C 	C 	0.72928 0.98916 0.36166 0.25700
C 	C 	0.76114 0.02730 0.36032 -0.19300
H 	H 	0.78240 0.03320 0.35080 0.10500
C 	C 	0.75541 0.96195 0.33486 0.24900
H 	H 	0.78030 0.97010 0.34270 -0.05300
H 	H 	0.76000 0.98200 0.32370 -0.05700
C 	C 	0.74042 0.92148 0.32389 -0.42000
C 	C 	0.73831 0.89019 0.33631 0.47900
C 	C 	0.71975 0.85259 0.32709 -0.40200
C 	C 	0.70710 0.84657 0.30493 0.50600
C 	C 	0.71070 0.87861 0.29271 -0.40500
C 	C 	0.72599 0.91697 0.30286 0.47500
C 	C 	0.72564 0.95009 0.28958 -0.99900
H 	H 	0.71940 0.96600 0.29930 0.33200
H 	H 	0.70590 0.93870 0.27800 0.33600
H 	H 	0.75150 0.96670 0.28300 0.31000
C 	C 	0.75639 0.89632 0.35970 -0.98900
H 	H 	0.78280 0.91920 0.35970 0.32600
H 	H 	0.75770 0.87310 0.36400 0.33200
H 	H 	0.74000 0.90050 0.37010 0.31300
C 	C 	0.68902 0.80586 0.29479 -1.05300
H 	H 	0.69730 0.79000 0.30310 0.35400
H 	H 	0.69770 0.80800 0.27960 0.34200
H 	H 	0.66040 0.79340 0.29520 0.33800
C 	C 	0.71259 0.81692 0.34065 0.22500
H 	H 	0.71140 0.82210 0.35640 -0.03500
H 	H 	0.68740 0.79390 0.33640 -0.03600
C 	C 	0.74124 0.77625 0.34714 0.22500
C 	C 	0.70888 0.75091 0.36044 -0.21800
H 	H 	0.68830 0.75630 0.36290 0.11000
C 	C 	0.70726 0.71743 0.37011 0.06200
H 	H 	0.68560 0.70050 0.37900 -0.00300
C 	C 	0.73800 0.70928 0.36647 -0.09900
H 	H 	0.73690 0.68690 0.37290 0.06000
C 	C 	0.77037 0.73463 0.35317 -0.03300
C 	C 	0.77199 0.76811 0.34350 -0.15800
H 	H 	0.79360 0.78500 0.33460 0.10800
C 	C 	0.80284 0.72594 0.34934 0.37700
C 	C 	0.69588 0.87215 0.26873 0.27100
H 	H 	0.70980 0.89710 0.26060 -0.05600
H 	H 	0.70140 0.85290 0.26150 -0.06500
C 	C 	0.63545 0.84509 0.24860 0.25000
C 	C 	0.59458 0.83065 0.24946 -0.23400
H 	H 	0.58270 0.83060 0.26300 0.11100
C 	C 	0.57157 0.81646 0.23054 0.08100
H 	H 	0.54410 0.80610 0.23130 -0.00500
C 	C 	0.58966 0.81764 0.21006 -0.10700
H 	H 	0.57440 0.80910 0.19710 0.07200
C 	C 	0.63011 0.83144 0.20922 -0.00000
C 	C 	0.65272 0.84603 0.22864 -0.20000
H 	H 	0.68020 0.85660 0.22790 0.11000
C 	C 	0.65022 0.83327 0.18755 0.35800
C 	C 	0.87006 0.04091 0.34342 0.41200
C 	C 	0.86633 0.01474 0.36261 -0.03700
C 	C 	0.87938 0.98721 0.36100 -0.08300
H 	H 	0.89200 0.98590 0.34800 0.05900
C 	C 	0.87365 0.96169 0.37875 0.04600
H 	H 	0.88240 0.94330 0.37770 0.00800
C 	C 	0.85486 0.96369 0.39812 -0.20500
H 	H 	0.85100 0.94660 0.41000 0.10600
C 	C 	0.84181 0.99122 0.39973 0.22100
C 	C 	0.84754 0.01674 0.38197 -0.16400
H 	H 	0.83880 0.03510 0.38300 0.09900
C 	C 	0.80332 0.01166 0.41937 0.23600
H 	H 	0.78850 0.00670 0.40550 -0.04300
H 	H 	0.82170 0.04010 0.42060 -0.04500
C 	C 	0.77451 0.99726 0.43921 -0.39700
C 	C 	0.73916 0.96156 0.43792 0.54000
C 	C 	0.71055 0.95191 0.45523 -0.41200
C 	C 	0.71783 0.97856 0.47205 0.47700
C 	C 	0.75469 0.01381 0.47404 -0.38900
C 	C 	0.78448 0.02257 0.45841 0.45200
C 	C 	0.82557 0.05878 0.46059 -0.94000
H 	H 	0.84490 0.05330 0.45390 0.30500
H 	H 	0.83180 0.06500 0.47610 0.29900
H 	H 	0.82610 0.08100 0.45310 0.28100
C 	C 	0.72937 0.93442 0.41906 -1.13200
H 	H 	0.71130 0.93730 0.40920 0.36200
H 	H 	0.71700 0.90740 0.42440 0.36900
H 	H 	0.75340 0.94070 0.41110 0.37000
C 	C 	0.68430 0.96924 0.48889 -0.99600
H 	H 	0.66010 0.96240 0.48100 0.34300
H 	H 	0.69170 0.99230 0.49810 0.34000
H 	H 	0.68020 0.94720 0.49810 0.33500
C 	C 	0.67167 0.91376 0.45386 0.24500
H 	H 	0.67370 0.89500 0.44400 -0.05400
H 	H 	0.66320 0.90160 0.46850 -0.04500
C 	C 	0.60481 0.89870 0.44724 0.23500
C 	C 	0.57882 0.91320 0.44366 -0.21000
H 	H 	0.58890 0.94030 0.44090 0.10400
C 	C 	0.53777 0.88729 0.44424 0.07000
H 	H 	0.52040 0.89700 0.44180 -0.00200
C 	C 	0.52271 0.84687 0.44839 -0.09500
H 	H 	0.49520 0.82950 0.44880 0.06800
C 	C 	0.54869 0.83235 0.45196 -0.01800
C 	C 	0.58974 0.85826 0.45138 -0.17700
H 	H 	0.60710 0.84850 0.45380 0.09900
C 	C 	0.53270 0.79031 0.45607 0.32100
C 	C 	0.75848 0.04341 0.49129 0.25300
H 	H 	0.78350 0.06800 0.48910 -0.04800
H 	H 	0.73700 0.04920 0.48930 -0.04800
C 	C 	0.74281 0.04479 0.52925 0.22100
C 	C 	0.73203 0.02387 0.54931 -0.20100
H 	H 	0.73480 0.00150 0.55110 0.10200
C 	C 	0.71713 0.03643 0.56671 0.06000
H 	H 	0.70990 0.02240 0.58010 0.00100
C 	C 	0.71303 0.06994 0.56406 -0.09900
H 	H 	0.70310 0.07840 0.57570 0.05700
C 	C 	0.72381 0.09086 0.54400 -0.01400
C 	C 	0.73871 0.07830 0.52660 -0.16900
H 	H 	0.74590 0.09230 0.51320 0.09200
C 	C 	0.72009 0.12694 0.54130 0.30900
Mn	Mn	0.83550 0.17851 0.36098 1.26300
Mn	Mn	0.86002 0.11529 0.32848 1.28800
Mn	Mn	0.86006 0.04573 0.29248 1.22200
O 	O 	0.78859 0.12540 0.38050 -0.44000
O 	O 	0.81845 0.10863 0.35647 -0.52500
O 	O 	0.72498 0.95775 0.35037 -0.31100
O 	O 	0.65512 0.85818 0.26826 -0.31200
O 	O 	0.68697 0.84570 0.18854 -0.45600
O 	O 	0.62974 0.82270 0.17037 -0.47100
O 	O 	0.74489 0.80920 0.33659 -0.28600
O 	O 	0.83464 0.75130 0.34100 -0.44400
O 	O 	0.79616 0.69241 0.35650 -0.50500
O 	O 	0.86890 0.07078 0.34750 -0.46300
O 	O 	0.87445 0.02978 0.32491 -0.49600
O 	O 	0.82461 0.99084 0.41935 -0.29700
O 	O 	0.64355 0.92556 0.44490 -0.29100
O 	O 	0.55679 0.77907 0.46240 -0.53000
O 	O 	0.49725 0.76463 0.45256 -0.38500
O 	O 	0.75721 0.02992 0.51330 -0.29200
O 	O 	0.72572 0.14288 0.52263 -0.48600
O 	O 	0.71137 0.14071 0.55833 -0.44700
O 	O 	0.83010 0.22690 0.37130 -0.25200
O 	O 	0.83540 0.23530 0.36840 -0.23900
H 	H 	0.80880 0.22980 0.37090 -0.50100
H 	H 	0.85140 0.24860 0.38120 0.54200
H 	H 	0.86210 0.25720 0.36750 -0.19100
H 	H 	0.81940 0.23830 0.35720 0.40100
H 	H 	0.80280 0.21880 0.37410 0.59400
H 	H 	0.84500 0.23670 0.38490 -0.43800
H 	H 	0.85620 0.24980 0.37210 0.12700
H 	H 	0.81400 0.23200 0.36130 -0.17200
C 	C 	0.45797 0.43179 0.70329 0.35800
C 	C 	0.42784 0.39012 0.70672 -0.01100
C 	C 	0.39565 0.38024 0.72109 -0.11600
H 	H 	0.39587 0.40003 0.73003 0.08100
C 	C 	0.36420 0.34253 0.72224 0.10100
H 	H 	0.34297 0.33643 0.73183 -0.00100
C 	C 	0.36397 0.31419 0.70949 -0.25000
H 	H 	0.34227 0.28843 0.71013 0.10500
C 	C 	0.39595 0.32249 0.69499 0.25700
C 	C 	0.42781 0.36063 0.69365 -0.19300
H 	H 	0.44907 0.36653 0.68413 0.10500
C 	C 	0.42208 0.29528 0.66819 0.24900
H 	H 	0.44697 0.30343 0.67603 -0.05300
H 	H 	0.42667 0.31533 0.65703 -0.05700
C 	C 	0.40709 0.25481 0.65722 -0.42000
C 	C 	0.40498 0.22352 0.66964 0.47900
C 	C 	0.38642 0.18592 0.66042 -0.40200
C 	C 	0.37377 0.17990 0.63826 0.50600
C 	C 	0.37737 0.21194 0.62604 -0.40500
C 	C 	0.39266 0.25030 0.63619 0.47500
C 	C 	0.39231 0.28342 0.62291 -0.99900
H 	H 	0.38607 0.29933 0.63263 0.33200
H 	H 	0.37257 0.27203 0.61133 0.33600
H 	H 	0.41817 0.30003 0.61633 0.31000
C 	C 	0.42306 0.22965 0.69303 -0.98900
H 	H 	0.44947 0.25253 0.69303 0.32600
H 	H 	0.42437 0.20643 0.69733 0.33200
H 	H 	0.40667 0.23383 0.70343 0.31300
C 	C 	0.35569 0.13919 0.62812 -1.05300
H 	H 	0.36397 0.12333 0.63643 0.35400
H 	H 	0.36437 0.14133 0.61293 0.34200
H 	H 	0.32707 0.12673 0.62853 0.33800
C 	C 	0.37926 0.15025 0.67398 0.22500
H 	H 	0.37807 0.15543 0.68973 -0.03500
H 	H 	0.35407 0.12723 0.66973 -0.03600
C 	C 	0.40791 0.10958 0.68047 0.22500
C 	C 	0.37555 0.08424 0.69377 -0.21800
H 	H 	0.35497 0.08963 0.69623 0.11000
C 	C 	0.37393 0.05076 0.70344 0.06200
H 	H 	0.35227 0.03383 0.71233 -0.00300
C 	C 	0.40467 0.04261 0.69980 -0.09900
H 	H 	0.40357 0.02023 0.70623 0.06000
C 	C 	0.43704 0.06796 0.68650 -0.03300
C 	C 	0.43866 0.10144 0.67683 -0.15800
H 	H 	0.46027 0.11833 0.66793 0.10800
C 	C 	0.46951 0.05927 0.68267 0.37700
C 	C 	0.36255 0.20548 0.60206 0.27100
H 	H 	0.37647 0.23043 0.59393 -0.05600
H 	H 	0.36807 0.18623 0.59483 -0.06500
C 	C 	0.30212 0.17842 0.58193 0.25000
C 	C 	0.26125 0.16398 0.58279 -0.23400
H 	H 	0.24937 0.16393 0.59633 0.11100
C 	C 	0.23824 0.14979 0.56387 0.08100
H 	H 	0.21077 0.13943 0.56463 -0.00500
C 	C 	0.25633 0.15097 0.54339 -0.10700
H 	H 	0.24107 0.14243 0.53043 0.07200
C 	C 	0.29678 0.16477 0.54255 -0.00000
C 	C 	0.31939 0.17936 0.56197 -0.20000
H 	H 	0.34687 0.18993 0.56123 0.11000
C 	C 	0.31689 0.16660 0.52088 0.35800
C 	C 	0.53673 0.37424 0.67675 0.41200
C 	C 	0.53300 0.34807 0.69594 -0.03700
C 	C 	0.54605 0.32054 0.69433 -0.08300
H 	H 	0.55867 0.31923 0.68133 0.05900
C 	C 	0.54032 0.29502 0.71208 0.04600
H 	H 	0.54907 0.27663 0.71103 0.00800
C 	C 	0.52153 0.29702 0.73145 -0.20500
H 	H 	0.51767 0.27993 0.74333 0.10600
C 	C 	0.50848 0.32455 0.73306 0.22100
C 	C 	0.51421 0.35007 0.71530 -0.16400
H 	H 	0.50547 0.36843 0.71633 0.09900
C 	C 	0.46999 0.34499 0.75270 0.23600
H 	H 	0.45517 0.34003 0.73883 -0.04300
H 	H 	0.48837 0.37343 0.75393 -0.04500
C 	C 	0.44118 0.33059 0.77254 -0.39700
C 	C 	0.40583 0.29489 0.77125 0.54000
C 	C 	0.37722 0.28524 0.78856 -0.41200
C 	C 	0.38450 0.31189 0.80538 0.47700
C 	C 	0.42136 0.34714 0.80737 -0.38900
C 	C 	0.45115 0.35590 0.79174 0.45200
C 	C 	0.49224 0.39211 0.79392 -0.94000
H 	H 	0.51157 0.38663 0.78723 0.30500
H 	H 	0.49847 0.39833 0.80943 0.29900
H 	H 	0.49277 0.41433 0.78643 0.28100
C 	C 	0.39604 0.26775 0.75239 -1.13200
H 	H 	0.37797 0.27063 0.74253 0.36200
H 	H 	0.38367 0.24073 0.75773 0.36900
H 	H 	0.42007 0.27403 0.74443 0.37000
C 	C 	0.35097 0.30257 0.82222 -0.99600
H 	H 	0.32677 0.29573 0.81433 0.34300
H 	H 	0.35837 0.32563 0.83143 0.34000
H 	H 	0.34687 0.28053 0.83143 0.33500
C 	C 	0.33834 0.24709 0.78719 0.24500
H 	H 	0.34037 0.22833 0.77733 -0.05400
H 	H 	0.32987 0.23493 0.80183 -0.04500
C 	C 	0.27148 0.23203 0.78057 0.23500
C 	C 	0.24549 0.24653 0.77699 -0.21000
H 	H 	0.25557 0.27363 0.77423 0.10400
C 	C 	0.20444 0.22062 0.77757 0.07000
H 	H 	0.18707 0.23033 0.77513 -0.00200
C 	C 	0.18938 0.18020 0.78172 -0.09500
H 	H 	0.16187 0.16283 0.78213 0.06800
C 	C 	0.21536 0.16568 0.78529 -0.01800
C 	C 	0.25641 0.19159 0.78471 -0.17700
H 	H 	0.27377 0.18183 0.78713 0.09900
C 	C 	0.19937 0.12364 0.78940 0.32100
C 	C 	0.42515 0.37674 0.82462 0.25300
H 	H 	0.45017 0.40133 0.82243 -0.04800
H 	H 	0.40367 0.38253 0.82263 -0.04800
C 	C 	0.40948 0.37812 0.86258 0.22100
C 	C 	0.39870 0.35720 0.88264 -0.20100
H 	H 	0.40147 0.33483 0.88443 0.10200
C 	C 	0.38380 0.36976 0.90004 0.06000
H 	H 	0.37657 0.35573 0.91343 0.00100
C 	C 	0.37970 0.40327 0.89739 -0.09900
H 	H 	0.36977 0.41173 0.90903 0.05700
C 	C 	0.39048 0.42419 0.87733 -0.01400
C 	C 	0.40538 0.41163 0.85993 -0.16900
H 	H 	0.41257 0.42563 0.84653 0.09200
C 	C 	0.38676 0.46027 0.87463 0.30900
Mn	Mn	0.50216 0.51185 0.69431 1.26300
Mn	Mn	0.52669 0.44863 0.66182 1.28800
Mn	Mn	0.52672 0.37906 0.62582 1.22200
O 	O 	0.45526 0.45873 0.71383 -0.44000
O 	O 	0.48512 0.44196 0.68980 -0.52500
O 	O 	0.39165 0.29108 0.68370 -0.31100
O 	O 	0.32179 0.19151 0.60159 -0.31200
O 	O 	0.35364 0.17903 0.52187 -0.45600
O 	O 	0.29641 0.15603 0.50370 -0.47100
O 	O 	0.41156 0.14253 0.66992 -0.28600
O 	O 	0.50131 0.08463 0.67433 -0.44400
O 	O 	0.46283 0.02574 0.68983 -0.50500
O 	O 	0.53557 0.40411 0.68083 -0.46300
O 	O 	0.54112 0.36311 0.65824 -0.49600
O 	O 	0.49128 0.32417 0.75268 -0.29700
O 	O 	0.31022 0.25889 0.77823 -0.29100
O 	O 	0.22346 0.11240 0.79573 -0.53000
O 	O 	0.16392 0.09796 0.78589 -0.38500
O 	O 	0.42388 0.36325 0.84663 -0.29200
O 	O 	0.39239 0.47621 0.85596 -0.48600
O 	O 	0.37804 0.47404 0.89166 -0.44700
O 	O 	0.49677 0.56023 0.70463 -0.25200
O 	O 	0.50207 0.56863 0.70173 -0.23900
H 	H 	0.47547 0.56313 0.70423 -0.50100
H 	H 	0.51807 0.58193 0.71453 0.54200
H 	H 	0.52877 0.59053 0.70083 -0.19100
H 	H 	0.48607 0.57163 0.69053 0.40100
H 	H 	0.46947 0.55213 0.70743 0.59500
H 	H 	0.51167 0.57003 0.71823 -0.43800
H 	H 	0.52287 0.58313 0.70543 0.12700
H 	H 	0.48067 0.56533 0.69463 -0.17200
C 	C 	0.12463 0.76513 0.03663 0.35800
C 	C 	0.09450 0.72346 0.04006 -0.01100
C 	C 	0.06231 0.71358 0.05443 -0.11600
H 	H 	0.06253 0.73337 0.06337 0.08100
C 	C 	0.03086 0.67587 0.05558 0.10100
H 	H 	0.00963 0.66977 0.06517 -0.00100
C 	C 	0.03063 0.64753 0.04283 -0.25000
H 	H 	0.00893 0.62177 0.04347 0.10500
C 	C 	0.06261 0.65583 0.02833 0.25700
C 	C 	0.09447 0.69397 0.02699 -0.19300
H 	H 	0.11573 0.69987 0.01747 0.10500
C 	C 	0.08874 0.62862 0.00153 0.24900
H 	H 	0.11363 0.63677 0.00937 -0.05300
H 	H 	0.09333 0.64867 0.99037 -0.05700
C 	C 	0.07375 0.58815 0.99056 -0.42000
C 	C 	0.07164 0.55686 0.00298 0.47900
C 	C 	0.05308 0.51926 0.99376 -0.40200
C 	C 	0.04043 0.51324 0.97160 0.50600
C 	C 	0.04403 0.54528 0.95938 -0.40500
C 	C 	0.05932 0.58364 0.96953 0.47500
C 	C 	0.05897 0.61676 0.95625 -0.99900
H 	H 	0.05273 0.63267 0.96597 0.33200
H 	H 	0.03923 0.60537 0.94467 0.33600
H 	H 	0.08483 0.63337 0.94967 0.31000
C 	C 	0.08972 0.56299 0.02637 -0.98900
H 	H 	0.11613 0.58587 0.02637 0.32600
H 	H 	0.09103 0.53977 0.03067 0.33200
H 	H 	0.07333 0.56717 0.03677 0.31300
C 	C 	0.02235 0.47253 0.96146 -1.05300
H 	H 	0.03063 0.45667 0.96977 0.35400
H 	H 	0.03103 0.47467 0.94627 0.34200
H 	H 	0.99373 0.46007 0.96187 0.33800
C 	C 	0.04592 0.48359 0.00732 0.22500
H 	H 	0.04473 0.48877 0.02307 -0.03500
H 	H 	0.02073 0.46057 0.00307 -0.03600
C 	C 	0.07457 0.44292 0.01381 0.22500
C 	C 	0.04221 0.41758 0.02711 -0.21800
H 	H 	0.02163 0.42297 0.02957 0.11000
C 	C 	0.04059 0.38410 0.03678 0.06200
H 	H 	0.01893 0.36717 0.04567 -0.00300
C 	C 	0.07133 0.37595 0.03314 -0.09900
H 	H 	0.07023 0.35357 0.03957 0.06000
C 	C 	0.10370 0.40130 0.01984 -0.03300
C 	C 	0.10532 0.43478 0.01017 -0.15800
H 	H 	0.12693 0.45167 0.00127 0.10800
C 	C 	0.13617 0.39261 0.01601 0.37700
C 	C 	0.02921 0.53882 0.93540 0.27100
H 	H 	0.04313 0.56377 0.92727 -0.05600
H 	H 	0.03473 0.51957 0.92817 -0.06500
C 	C 	0.96878 0.51176 0.91527 0.25000
C 	C 	0.92791 0.49732 0.91613 -0.23400
H 	H 	0.91603 0.49727 0.92967 0.11100
C 	C 	0.90490 0.48313 0.89721 0.08100
H 	H 	0.87743 0.47277 0.89797 -0.00500
C 	C 	0.92299 0.48431 0.87673 -0.10700
H 	H 	0.90773 0.47577 0.86377 0.07200
C 	C 	0.96344 0.49811 0.87589 -0.00000
C 	C 	0.98605 0.51270 0.89531 -0.20100
H 	H 	0.01353 0.52327 0.89457 0.11000
C 	C 	0.98355 0.49994 0.85422 0.35800
C 	C 	0.20339 0.70758 0.01009 0.41200
C 	C 	0.19966 0.68141 0.02928 -0.03700
C 	C 	0.21271 0.65388 0.02767 -0.08300
H 	H 	0.22533 0.65257 0.01467 0.05900
C 	C 	0.20698 0.62836 0.04542 0.04600
H 	H 	0.21573 0.60997 0.04437 0.00800
C 	C 	0.18819 0.63036 0.06479 -0.20500
H 	H 	0.18433 0.61327 0.07667 0.10600
C 	C 	0.17514 0.65789 0.06640 0.22100
C 	C 	0.18087 0.68341 0.04864 -0.16400
H 	H 	0.17213 0.70177 0.04967 0.09900
C 	C 	0.13665 0.67833 0.08604 0.23600
H 	H 	0.12183 0.67337 0.07217 -0.04300
H 	H 	0.15503 0.70677 0.08727 -0.04500
C 	C 	0.10784 0.66393 0.10588 -0.39700
C 	C 	0.07249 0.62823 0.10459 0.54000
C 	C 	0.04388 0.61858 0.12190 -0.41200
C 	C 	0.05116 0.64523 0.13872 0.47700
C 	C 	0.08802 0.68048 0.14071 -0.38900
C 	C 	0.11781 0.68924 0.12508 0.45200
C 	C 	0.15890 0.72545 0.12726 -0.94000
H 	H 	0.17823 0.71997 0.12057 0.30500
H 	H 	0.16513 0.73167 0.14277 0.29900
H 	H 	0.15943 0.74767 0.11977 0.28100
C 	C 	0.06270 0.60109 0.08573 -1.13200
H 	H 	0.04463 0.60397 0.07587 0.36200
H 	H 	0.05033 0.57407 0.09107 0.36900
H 	H 	0.08673 0.60737 0.07777 0.37000
C 	C 	0.01763 0.63591 0.15556 -0.99600
H 	H 	0.99343 0.62907 0.14767 0.34300
H 	H 	0.02503 0.65897 0.16477 0.34000
H 	H 	0.01353 0.61387 0.16477 0.33500
C 	C 	0.00500 0.58043 0.12053 0.24500
H 	H 	0.00703 0.56167 0.11067 -0.05400
H 	H 	0.99653 0.56827 0.13517 -0.04500
C 	C 	0.93814 0.56537 0.11391 0.23500
C 	C 	0.91215 0.57987 0.11033 -0.21000
H 	H 	0.92223 0.60697 0.10757 0.10400
C 	C 	0.87110 0.55396 0.11091 0.07000
H 	H 	0.85373 0.56367 0.10847 -0.00200
C 	C 	0.85604 0.51354 0.11506 -0.09500
H 	H 	0.82853 0.49617 0.11547 0.06800
C 	C 	0.88202 0.49902 0.11863 -0.01800
C 	C 	0.92307 0.52493 0.11805 -0.17700
H 	H 	0.94043 0.51517 0.12047 0.09900
C 	C 	0.86603 0.45698 0.12274 0.32100
C 	C 	0.09181 0.71008 0.15796 0.25300
H 	H 	0.11683 0.73467 0.15577 -0.04800
H 	H 	0.07033 0.71587 0.15597 -0.04800
C 	C 	0.07614 0.71146 0.19592 0.22100
C 	C 	0.06536 0.69054 0.21598 -0.20100
H 	H 	0.06813 0.66817 0.21777 0.10200
C 	C 	0.05046 0.70310 0.23338 0.06000
H 	H 	0.04323 0.68907 0.24677 0.00100
C 	C 	0.04636 0.73661 0.23073 -0.09900
H 	H 	0.03643 0.74507 0.24237 0.05700
C 	C 	0.05714 0.75753 0.21067 -0.01400
C 	C 	0.07204 0.74497 0.19327 -0.16900
H 	H 	0.07923 0.75897 0.17987 0.09200
C 	C 	0.05342 0.79361 0.20797 0.30900
Mn	Mn	0.16883 0.84518 0.02765 1.26300
Mn	Mn	0.19335 0.78196 0.99515 1.28800
Mn	Mn	0.19339 0.71239 0.95915 1.22200
O 	O 	0.12192 0.79207 0.04717 -0.44000
O 	O 	0.15178 0.77530 0.02314 -0.52500
O 	O 	0.05831 0.62442 0.01704 -0.31100
O 	O 	0.98845 0.52485 0.93493 -0.31200
O 	O 	0.02030 0.51237 0.85521 -0.45600
O 	O 	0.96307 0.48937 0.83704 -0.47100
O 	O 	0.07822 0.47587 0.00326 -0.28600
O 	O 	0.16797 0.41797 0.00767 -0.44400
O 	O 	0.12949 0.35908 0.02317 -0.50500
O 	O 	0.20223 0.73745 0.01417 -0.46300
O 	O 	0.20778 0.69645 0.99158 -0.49600
O 	O 	0.15794 0.65751 0.08602 -0.29700
O 	O 	0.97688 0.59223 0.11157 -0.29100
O 	O 	0.89012 0.44574 0.12907 -0.53000
O 	O 	0.83058 0.43130 0.11923 -0.38500
O 	O 	0.09054 0.69659 0.17997 -0.29200
O 	O 	0.05905 0.80955 0.18930 -0.48600
O 	O 	0.04470 0.80738 0.22500 -0.44700
O 	O 	0.16343 0.89357 0.03797 -0.25200
O 	O 	0.16873 0.90197 0.03507 -0.23900
H 	H 	0.14213 0.89647 0.03757 -0.50100
H 	H 	0.18473 0.91527 0.04787 0.54200
H 	H 	0.19543 0.92387 0.03417 -0.19100
H 	H 	0.15273 0.90497 0.02387 0.40100
H 	H 	0.13613 0.88547 0.04077 0.59400
H 	H 	0.17833 0.90337 0.05157 -0.43800
H 	H 	0.18953 0.91647 0.03877 0.12700
H 	H 	0.14733 0.89867 0.02797 -0.17200
C 	C 	0.90154 0.69284 0.36996 0.35800
C 	C 	0.94321 0.70438 0.37339 -0.01100
C 	C 	0.95309 0.68207 0.38776 -0.11600
H 	H 	0.93330 0.66250 0.39670 0.08100
C 	C 	0.99080 0.68833 0.38891 0.10100
H 	H 	0.99690 0.67320 0.39850 -0.00100
C 	C 	0.01914 0.71644 0.37616 -0.25000
H 	H 	0.04490 0.72050 0.37680 0.10500
C 	C 	0.01084 0.74012 0.36166 0.25700
C 	C 	0.97270 0.73384 0.36032 -0.19300
H 	H 	0.96680 0.74920 0.35080 0.10500
C 	C 	0.03805 0.79346 0.33486 0.24900
H 	H 	0.02990 0.81020 0.34270 -0.05300
H 	H 	0.01800 0.77800 0.32370 -0.05700
C 	C 	0.07852 0.81894 0.32389 -0.42000
C 	C 	0.10981 0.84812 0.33631 0.47900
C 	C 	0.14741 0.86716 0.32709 -0.40200
C 	C 	0.15343 0.86053 0.30493 0.50600
C 	C 	0.12139 0.83209 0.29271 -0.40500
C 	C 	0.08303 0.80902 0.30286 0.47500
C 	C 	0.04991 0.77555 0.28958 -0.99900
H 	H 	0.03400 0.75340 0.29930 0.33200
H 	H 	0.06130 0.76720 0.27800 0.33600
H 	H 	0.03330 0.78480 0.28300 0.31000
C 	C 	0.10368 0.86007 0.35970 -0.98900
H 	H 	0.08080 0.86360 0.35970 0.32600
H 	H 	0.12690 0.88460 0.36400 0.33200
H 	H 	0.09950 0.83950 0.37010 0.31300
C 	C 	0.19414 0.88316 0.29479 -1.05300
H 	H 	0.21000 0.90730 0.30310 0.35400
H 	H 	0.19200 0.88970 0.27960 0.34200
H 	H 	0.20660 0.86700 0.29520 0.33800
C 	C 	0.18308 0.89567 0.34065 0.22500
H 	H 	0.17790 0.88930 0.35640 -0.03500
H 	H 	0.20610 0.89350 0.33640 -0.03600
C 	C 	0.22375 0.96499 0.34714 0.22500
C 	C 	0.24909 0.95797 0.36044 -0.21800
H 	H 	0.24370 0.93200 0.36290 0.11000
C 	C 	0.28257 0.98983 0.37011 0.06200
H 	H 	0.29950 0.98510 0.37900 -0.00300
C 	C 	0.29072 0.02872 0.36647 -0.09900
H 	H 	0.31310 0.05000 0.37290 0.06000
C 	C 	0.26537 0.03574 0.35317 -0.03300
C 	C 	0.23189 0.00388 0.34350 -0.15800
H 	H 	0.21500 0.00860 0.33460 0.10800
C 	C 	0.27406 0.07690 0.34934 0.37700
C 	C 	0.12785 0.82373 0.26873 0.27100
H 	H 	0.10290 0.81270 0.26060 -0.05600
H 	H 	0.14710 0.84850 0.26150 -0.06500
C 	C 	0.15491 0.79036 0.24860 0.25000
C 	C 	0.16935 0.76393 0.24946 -0.23400
H 	H 	0.16940 0.75210 0.26300 0.11100
C 	C 	0.18354 0.75511 0.23054 0.08100
H 	H 	0.19390 0.73800 0.23130 -0.00500
C 	C 	0.18236 0.77202 0.21006 -0.10700
H 	H 	0.19090 0.76530 0.19710 0.07200
C 	C 	0.16856 0.79867 0.20922 -0.00000
C 	C 	0.15397 0.80669 0.22864 -0.20000
H 	H 	0.14340 0.82360 0.22790 0.11000
C 	C 	0.16673 0.81695 0.18755 0.35800
C 	C 	0.95909 0.82915 0.34342 0.41200
C 	C 	0.98526 0.85159 0.36261 -0.03700
C 	C 	0.01279 0.89217 0.36100 -0.08300
H 	H 	0.01410 0.90610 0.34800 0.05900
C 	C 	0.03831 0.91196 0.37875 0.04600
H 	H 	0.05670 0.93910 0.37770 0.00800
C 	C 	0.03631 0.89117 0.39812 -0.20500
H 	H 	0.05340 0.90440 0.41000 0.10600
C 	C 	0.00878 0.85059 0.39973 0.22100
C 	C 	0.98326 0.83080 0.38197 -0.16400
H 	H 	0.96490 0.80370 0.38300 0.09900
C 	C 	0.98834 0.79166 0.41937 0.23600
H 	H 	0.99330 0.78180 0.40550 -0.04300
H 	H 	0.95990 0.78160 0.42060 -0.04500
C 	C 	0.00274 0.77725 0.43921 -0.39700
C 	C 	0.03844 0.77760 0.43792 0.54000
C 	C 	0.04809 0.75864 0.45523 -0.41200
C 	C 	0.02144 0.73927 0.47205 0.47700
C 	C 	0.98619 0.74088 0.47404 -0.38900
C 	C 	0.97743 0.76191 0.45841 0.45200
C 	C 	0.94122 0.76679 0.46059 -0.94000
H 	H 	0.94670 0.79160 0.45390 0.30500
H 	H 	0.93500 0.76680 0.47610 0.29900
H 	H 	0.91900 0.74510 0.45310 0.28100
C 	C 	0.06558 0.79495 0.41906 -1.13200
H 	H 	0.06270 0.77400 0.40920 0.36200
H 	H 	0.09260 0.80960 0.42440 0.36900
H 	H 	0.05930 0.81270 0.41110 0.37000
C 	C 	0.03076 0.71506 0.48889 -0.99600
H 	H 	0.03760 0.69770 0.48100 0.34300
H 	H 	0.00770 0.69940 0.49810 0.34000
H 	H 	0.05280 0.73300 0.49810 0.33500
C 	C 	0.08624 0.75791 0.45386 0.24500
H 	H 	0.10500 0.77870 0.44400 -0.05400
H 	H 	0.09840 0.76160 0.46850 -0.04500
C 	C 	0.10130 0.70611 0.44724 0.23500
C 	C 	0.08680 0.66562 0.44366 -0.21000
H 	H 	0.05970 0.64860 0.44090 0.10400
C 	C 	0.11271 0.65048 0.44424 0.07000
H 	H 	0.10300 0.62340 0.44180 -0.00200
C 	C 	0.15313 0.67584 0.44839 -0.09500
H 	H 	0.17050 0.66570 0.44880 0.06800
C 	C 	0.16765 0.71634 0.45196 -0.01800
C 	C 	0.14174 0.73148 0.45138 -0.17700
H 	H 	0.15150 0.75860 0.45380 0.09900
C 	C 	0.20969 0.74239 0.45607 0.32100
C 	C 	0.95659 0.71507 0.49129 0.25300
H 	H 	0.93200 0.71550 0.48910 -0.04800
H 	H 	0.95080 0.68780 0.48930 -0.04800
C 	C 	0.95521 0.69802 0.52925 0.22100
C 	C 	0.97613 0.70816 0.54931 -0.20100
H 	H 	0.99850 0.73330 0.55110 0.10200
C 	C 	0.96357 0.68070 0.56671 0.06000
H 	H 	0.97760 0.68750 0.58010 0.00100
C 	C 	0.93006 0.64309 0.56406 -0.09900
H 	H 	0.92160 0.62470 0.57570 0.05700
C 	C 	0.90914 0.63295 0.54400 -0.01400
C 	C 	0.92170 0.66041 0.52660 -0.16900
H 	H 	0.90770 0.65360 0.51320 0.09200
C 	C 	0.87306 0.59315 0.54130 0.30900
Mn	Mn	0.82149 0.65698 0.36098 1.26300
Mn	Mn	0.88471 0.74473 0.32848 1.28800
Mn	Mn	0.95427 0.81433 0.29248 1.22200
O 	O 	0.87460 0.66319 0.38050 -0.44000
O 	O 	0.89137 0.70982 0.35647 -0.52500
O 	O 	0.04225 0.76723 0.35037 -0.31100
O 	O 	0.14182 0.79694 0.26826 -0.31200
O 	O 	0.15430 0.84127 0.18854 -0.45600
O 	O 	0.17730 0.80704 0.17037 -0.47100
O 	O 	0.19080 0.93569 0.33659 -0.28600
O 	O 	0.24870 0.08334 0.34100 -0.44400
O 	O 	0.30759 0.10375 0.35650 -0.50500
O 	O 	0.92922 0.79812 0.34750 -0.46300
O 	O 	0.97022 0.84467 0.32491 -0.49600
O 	O 	0.00916 0.83377 0.41935 -0.29700
O 	O 	0.07444 0.71799 0.44490 -0.29100
O 	O 	0.22093 0.77772 0.46240 -0.53000
O 	O 	0.23537 0.73262 0.45256 -0.38500
O 	O 	0.97008 0.72729 0.51330 -0.29200
O 	O 	0.85712 0.58284 0.52263 -0.48600
O 	O 	0.85929 0.57066 0.55833 -0.44700
O 	O 	0.77310 0.60320 0.37130 -0.25200
O 	O 	0.76470 0.60010 0.36840 -0.23900
H 	H 	0.77020 0.57900 0.37090 -0.50100
H 	H 	0.75140 0.60280 0.38120 0.54200
H 	H 	0.74280 0.60490 0.36750 -0.19100
H 	H 	0.76170 0.58110 0.35720 0.40100
H 	H 	0.78120 0.58400 0.37410 0.59400
H 	H 	0.76330 0.60830 0.38490 -0.43800
H 	H 	0.75020 0.60640 0.37210 0.12700
H 	H 	0.76800 0.58200 0.36130 -0.17200
C 	C 	0.56821 0.02617 0.70329 0.35800
C 	C 	0.60988 0.03771 0.70672 -0.01100
C 	C 	0.61976 0.01540 0.72109 -0.11600
H 	H 	0.59997 0.99583 0.73003 0.08100
C 	C 	0.65747 0.02166 0.72224 0.10100
H 	H 	0.66357 0.00653 0.73183 -0.00100
C 	C 	0.68581 0.04977 0.70949 -0.25000
H 	H 	0.71157 0.05383 0.71013 0.10500
C 	C 	0.67751 0.07345 0.69499 0.25700
C 	C 	0.63937 0.06717 0.69365 -0.19300
H 	H 	0.63347 0.08253 0.68413 0.10500
C 	C 	0.70472 0.12679 0.66819 0.24900
H 	H 	0.69657 0.14353 0.67603 -0.05300
H 	H 	0.68467 0.11133 0.65703 -0.05700
C 	C 	0.74519 0.15227 0.65722 -0.42000
C 	C 	0.77648 0.18145 0.66964 0.47900
C 	C 	0.81408 0.20049 0.66042 -0.40200
C 	C 	0.82010 0.19386 0.63826 0.50600
C 	C 	0.78806 0.16542 0.62604 -0.40500
C 	C 	0.74970 0.14235 0.63619 0.47500
C 	C 	0.71658 0.10888 0.62291 -0.99900
H 	H 	0.70067 0.08673 0.63263 0.33200
H 	H 	0.72797 0.10053 0.61133 0.33600
H 	H 	0.69997 0.11813 0.61633 0.31000
C 	C 	0.77035 0.19340 0.69303 -0.98900
H 	H 	0.74747 0.19693 0.69303 0.32600
H 	H 	0.79357 0.21793 0.69733 0.33200
H 	H 	0.76617 0.17283 0.70343 0.31300
C 	C 	0.86081 0.21649 0.62812 -1.05300
H 	H 	0.87667 0.24063 0.63643 0.35400
H 	H 	0.85867 0.22303 0.61293 0.34200
H 	H 	0.87327 0.20033 0.62853 0.33800
C 	C 	0.84975 0.22900 0.67398 0.22500
H 	H 	0.84457 0.22263 0.68973 -0.03500
H 	H 	0.87277 0.22683 0.66973 -0.03600
C 	C 	0.89042 0.29832 0.68047 0.22500
C 	C 	0.91576 0.29130 0.69377 -0.21800
H 	H 	0.91037 0.26533 0.69623 0.11000
C 	C 	0.94924 0.32316 0.70344 0.06200
H 	H 	0.96617 0.31843 0.71233 -0.00300
C 	C 	0.95739 0.36205 0.69980 -0.09900
H 	H 	0.97977 0.38333 0.70623 0.06000
C 	C 	0.93204 0.36907 0.68650 -0.03300
C 	C 	0.89856 0.33721 0.67683 -0.15800
H 	H 	0.88167 0.34193 0.66793 0.10800
C 	C 	0.94073 0.41023 0.68267 0.37700
C 	C 	0.79452 0.15706 0.60206 0.27100
H 	H 	0.76957 0.14603 0.59393 -0.05600
H 	H 	0.81377 0.18183 0.59483 -0.06500
C 	C 	0.82158 0.12369 0.58193 0.25000
C 	C 	0.83602 0.09726 0.58279 -0.23400
H 	H 	0.83607 0.08543 0.59633 0.11100
C 	C 	0.85021 0.08844 0.56387 0.08100
H 	H 	0.86057 0.07133 0.56463 -0.00500
C 	C 	0.84903 0.10535 0.54339 -0.10700
H 	H 	0.85757 0.09863 0.53043 0.07200
C 	C 	0.83523 0.13200 0.54255 -0.00000
C 	C 	0.82064 0.14002 0.56197 -0.20000
H 	H 	0.81007 0.15693 0.56123 0.11000
C 	C 	0.83340 0.15028 0.52088 0.35800
C 	C 	0.62576 0.16248 0.67675 0.41200
C 	C 	0.65193 0.18492 0.69594 -0.03700
C 	C 	0.67946 0.22550 0.69433 -0.08300
H 	H 	0.68077 0.23943 0.68133 0.05900
C 	C 	0.70498 0.24529 0.71208 0.04600
H 	H 	0.72337 0.27243 0.71103 0.00800
C 	C 	0.70298 0.22450 0.73145 -0.20500
H 	H 	0.72007 0.23773 0.74333 0.10600
C 	C 	0.67545 0.18392 0.73306 0.22100
C 	C 	0.64993 0.16413 0.71530 -0.16400
H 	H 	0.63157 0.13703 0.71633 0.09900
C 	C 	0.65501 0.12499 0.75270 0.23600
H 	H 	0.65997 0.11513 0.73883 -0.04300
H 	H 	0.62657 0.11493 0.75393 -0.04500
C 	C 	0.66941 0.11058 0.77254 -0.39700
C 	C 	0.70511 0.11093 0.77125 0.54000
C 	C 	0.71476 0.09197 0.78856 -0.41200
C 	C 	0.68811 0.07260 0.80538 0.47700
C 	C 	0.65286 0.07421 0.80737 -0.38900
C 	C 	0.64410 0.09524 0.79174 0.45200
C 	C 	0.60789 0.10012 0.79392 -0.94000
H 	H 	0.61337 0.12493 0.78723 0.30500
H 	H 	0.60167 0.10013 0.80943 0.29900
H 	H 	0.58567 0.07843 0.78643 0.28100
C 	C 	0.73225 0.12828 0.75239 -1.13200
H 	H 	0.72937 0.10733 0.74253 0.36200
H 	H 	0.75927 0.14293 0.75773 0.36900
H 	H 	0.72597 0.14603 0.74443 0.37000
C 	C 	0.69743 0.04839 0.82222 -0.99600
H 	H 	0.70427 0.03103 0.81433 0.34300
H 	H 	0.67437 0.03273 0.83143 0.34000
H 	H 	0.71947 0.06633 0.83143 0.33500
C 	C 	0.75291 0.09124 0.78719 0.24500
H 	H 	0.77167 0.11203 0.77733 -0.05400
H 	H 	0.76507 0.09493 0.80183 -0.04500
C 	C 	0.76797 0.03944 0.78057 0.23500
C 	C 	0.75347 0.99895 0.77699 -0.21000
H 	H 	0.72637 0.98193 0.77423 0.10400
C 	C 	0.77938 0.98381 0.77757 0.07000
H 	H 	0.76967 0.95673 0.77513 -0.00200
C 	C 	0.81980 0.00917 0.78172 -0.09500
H 	H 	0.83717 0.99903 0.78213 0.06800
C 	C 	0.83432 0.04967 0.78529 -0.01800
C 	C 	0.80841 0.06481 0.78471 -0.17700
H 	H 	0.81817 0.09193 0.78713 0.09900
C 	C 	0.87636 0.07572 0.78940 0.32100
C 	C 	0.62326 0.04840 0.82462 0.25300
H 	H 	0.59867 0.04883 0.82243 -0.04800
H 	H 	0.61747 0.02113 0.82263 -0.04800
C 	C 	0.62188 0.03135 0.86258 0.22100
C 	C 	0.64280 0.04149 0.88264 -0.20100
H 	H 	0.66517 0.06663 0.88443 0.10200
C 	C 	0.63024 0.01403 0.90004 0.06000
H 	H 	0.64427 0.02083 0.91343 0.00100
C 	C 	0.59673 0.97642 0.89739 -0.09900
H 	H 	0.58827 0.95803 0.90903 0.05700
C 	C 	0.57581 0.96628 0.87733 -0.01400
C 	C 	0.58837 0.99374 0.85993 -0.16900
H 	H 	0.57437 0.98693 0.84653 0.09200
C 	C 	0.53973 0.92648 0.87463 0.30900
Mn	Mn	0.48815 0.99032 0.69431 1.26300
Mn	Mn	0.55137 0.07806 0.66182 1.28800
Mn	Mn	0.62094 0.14766 0.62582 1.22200
O 	O 	0.54127 0.99652 0.71383 -0.44000
O 	O 	0.55804 0.04315 0.68980 -0.52500
O 	O 	0.70892 0.10056 0.68370 -0.31100
O 	O 	0.80849 0.13027 0.60159 -0.31200
O 	O 	0.82097 0.17460 0.52187 -0.45600
O 	O 	0.84397 0.14037 0.50370 -0.47100
O 	O 	0.85747 0.26902 0.66992 -0.28600
O 	O 	0.91537 0.41667 0.67433 -0.44400
O 	O 	0.97426 0.43708 0.68983 -0.50500
O 	O 	0.59589 0.13145 0.68083 -0.46300
O 	O 	0.63689 0.17800 0.65824 -0.49600
O 	O 	0.67583 0.16710 0.75268 -0.29700
O 	O 	0.74111 0.05132 0.77823 -0.29100
O 	O 	0.88760 0.11105 0.79573 -0.53000
O 	O 	0.90204 0.06595 0.78589 -0.38500
O 	O 	0.63675 0.06062 0.84663 -0.29200
O 	O 	0.52379 0.91617 0.85596 -0.48600
O 	O 	0.52596 0.90399 0.89166 -0.44700
O 	O 	0.43977 0.93653 0.70463 -0.25200
O 	O 	0.43137 0.93343 0.70173 -0.23900
H 	H 	0.43687 0.91233 0.70423 -0.50100
H 	H 	0.41807 0.93613 0.71453 0.54200
H 	H 	0.40947 0.93823 0.70083 -0.19100
H 	H 	0.42837 0.91443 0.69053 0.40100
H 	H 	0.44787 0.91733 0.70743 0.59400
H 	H 	0.42997 0.94163 0.71823 -0.43800
H 	H 	0.41687 0.93973 0.70543 0.12700
H 	H 	0.43467 0.91533 0.69463 -0.17200
C 	C 	0.23487 0.35951 0.03663 0.35800
C 	C 	0.27654 0.37105 0.04006 -0.01100
C 	C 	0.28642 0.34874 0.05443 -0.11600
H 	H 	0.26663 0.32917 0.06337 0.08100
C 	C 	0.32413 0.35500 0.05558 0.10100
H 	H 	0.33023 0.33987 0.06517 -0.00100
C 	C 	0.35247 0.38311 0.04283 -0.25000
H 	H 	0.37823 0.38717 0.04347 0.10500
C 	C 	0.34417 0.40679 0.02833 0.25700
C 	C 	0.30603 0.40051 0.02699 -0.19300
H 	H 	0.30013 0.41587 0.01747 0.10500
C 	C 	0.37138 0.46013 0.00153 0.24900
H 	H 	0.36323 0.47687 0.00937 -0.05300
H 	H 	0.35133 0.44467 0.99037 -0.05700
C 	C 	0.41185 0.48561 0.99056 -0.42000
C 	C 	0.44314 0.51479 0.00298 0.47900
C 	C 	0.48074 0.53383 0.99376 -0.40200
C 	C 	0.48676 0.52720 0.97160 0.50600
C 	C 	0.45472 0.49876 0.95938 -0.40500
C 	C 	0.41636 0.47569 0.96953 0.47500
C 	C 	0.38324 0.44222 0.95625 -0.99900
H 	H 	0.36733 0.42007 0.96597 0.33200
H 	H 	0.39463 0.43387 0.94467 0.33600
H 	H 	0.36663 0.45147 0.94967 0.31000
C 	C 	0.43701 0.52674 0.02637 -0.98900
H 	H 	0.41413 0.53027 0.02637 0.32600
H 	H 	0.46023 0.55127 0.03067 0.33200
H 	H 	0.43283 0.50617 0.03677 0.31300
C 	C 	0.52747 0.54983 0.96146 -1.05300
H 	H 	0.54333 0.57397 0.96977 0.35400
H 	H 	0.52533 0.55637 0.94627 0.34200
H 	H 	0.53993 0.53367 0.96187 0.33800
C 	C 	0.51641 0.56234 0.00732 0.22500
H 	H 	0.51123 0.55597 0.02307 -0.03500
H 	H 	0.53943 0.56017 0.00307 -0.03600
C 	C 	0.55708 0.63166 0.01381 0.22500
C 	C 	0.58242 0.62464 0.02711 -0.21800
H 	H 	0.57703 0.59867 0.02957 0.11000
C 	C 	0.61590 0.65650 0.03678 0.06200
H 	H 	0.63283 0.65177 0.04567 -0.00300
C 	C 	0.62405 0.69539 0.03314 -0.09900
H 	H 	0.64643 0.71667 0.03957 0.06000
C 	C 	0.59870 0.70241 0.01984 -0.03300
C 	C 	0.56522 0.67055 0.01017 -0.15800
H 	H 	0.54833 0.67527 0.00127 0.10800
C 	C 	0.60739 0.74357 0.01601 0.37700
C 	C 	0.46118 0.49040 0.93540 0.27100
H 	H 	0.43623 0.47937 0.92727 -0.05600
H 	H 	0.48043 0.51517 0.92817 -0.06500
C 	C 	0.48824 0.45703 0.91527 0.25000
C 	C 	0.50268 0.43060 0.91613 -0.23400
H 	H 	0.50273 0.41877 0.92967 0.11100
C 	C 	0.51687 0.42178 0.89721 0.08100
H 	H 	0.52723 0.40467 0.89797 -0.00500
C 	C 	0.51569 0.43869 0.87673 -0.10700
H 	H 	0.52423 0.43197 0.86377 0.07200
C 	C 	0.50189 0.46534 0.87589 -0.00000
C 	C 	0.48730 0.47336 0.89531 -0.20000
H 	H 	0.47673 0.49027 0.89457 0.11000
C 	C 	0.50006 0.48362 0.85422 0.35800
C 	C 	0.29242 0.49582 0.01009 0.41200
C 	C 	0.31859 0.51826 0.02928 -0.03700
C 	C 	0.34612 0.55884 0.02767 -0.08300
H 	H 	0.34743 0.57277 0.01467 0.05900
C 	C 	0.37164 0.57863 0.04542 0.04600
H 	H 	0.39003 0.60577 0.04437 0.00800
C 	C 	0.36964 0.55784 0.06479 -0.20500
H 	H 	0.38673 0.57107 0.07667 0.10600
C 	C 	0.34211 0.51726 0.06640 0.22100
C 	C 	0.31659 0.49747 0.04864 -0.16400
H 	H 	0.29823 0.47037 0.04967 0.09900
C 	C 	0.32167 0.45833 0.08604 0.23600
H 	H 	0.32663 0.44847 0.07217 -0.04300
H 	H 	0.29323 0.44827 0.08727 -0.04500
C 	C 	0.33607 0.44392 0.10588 -0.39700
C 	C 	0.37177 0.44427 0.10459 0.54000
C 	C 	0.38142 0.42531 0.12190 -0.41200
C 	C 	0.35477 0.40594 0.13872 0.47700
C 	C 	0.31952 0.40755 0.14071 -0.38900
C 	C 	0.31076 0.42858 0.12508 0.45200
C 	C 	0.27455 0.43346 0.12726 -0.94000
H 	H 	0.28003 0.45827 0.12057 0.30500
H 	H 	0.26833 0.43347 0.14277 0.29900
H 	H 	0.25233 0.41177 0.11977 0.28100
C 	C 	0.39891 0.46162 0.08573 -1.13200
H 	H 	0.39603 0.44067 0.07587 0.36200
H 	H 	0.42593 0.47627 0.09107 0.36900
H 	H 	0.39263 0.47937 0.07777 0.37000
C 	C 	0.36409 0.38173 0.15556 -0.99600
H 	H 	0.37093 0.36437 0.14767 0.34300
H 	H 	0.34103 0.36607 0.16477 0.34000
H 	H 	0.38613 0.39967 0.16477 0.33500
C 	C 	0.41957 0.42458 0.12053 0.24500
H 	H 	0.43833 0.44537 0.11067 -0.05400
H 	H 	0.43173 0.42827 0.13517 -0.04500
C 	C 	0.43463 0.37278 0.11391 0.23500
C 	C 	0.42013 0.33229 0.11033 -0.21000
H 	H 	0.39303 0.31527 0.10757 0.10400
C 	C 	0.44604 0.31715 0.11091 0.07000
H 	H 	0.43633 0.29007 0.10847 -0.00200
C 	C 	0.48646 0.34251 0.11506 -0.09500
H 	H 	0.50383 0.33237 0.11547 0.06800
C 	C 	0.50098 0.38301 0.11863 -0.01700
C 	C 	0.47507 0.39815 0.11805 -0.17700
H 	H 	0.48483 0.42527 0.12047 0.09900
C 	C 	0.54302 0.40906 0.12274 0.32100
C 	C 	0.28992 0.38174 0.15796 0.25300
H 	H 	0.26533 0.38217 0.15577 -0.04800
H 	H 	0.28413 0.35447 0.15597 -0.04800
C 	C 	0.28854 0.36469 0.19592 0.22100
C 	C 	0.30946 0.37483 0.21598 -0.20100
H 	H 	0.33183 0.39997 0.21777 0.10200
C 	C 	0.29690 0.34737 0.23338 0.06000
H 	H 	0.31093 0.35417 0.24677 0.00100
C 	C 	0.26339 0.30976 0.23073 -0.09900
H 	H 	0.25493 0.29137 0.24237 0.05700
C 	C 	0.24247 0.29962 0.21067 -0.01400
C 	C 	0.25503 0.32708 0.19327 -0.16900
H 	H 	0.24103 0.32027 0.17987 0.09200
C 	C 	0.20639 0.25982 0.20797 0.30900
Mn	Mn	0.15482 0.32365 0.02765 1.26300
Mn	Mn	0.21804 0.41139 0.99515 1.28800
Mn	Mn	0.28761 0.48100 0.95915 1.22200
O 	O 	0.20793 0.32986 0.04717 -0.44000
O 	O 	0.22470 0.37649 0.02314 -0.52500
O 	O 	0.37558 0.43390 0.01704 -0.31100
O 	O 	0.47515 0.46361 0.93493 -0.31200
O 	O 	0.48763 0.50794 0.85521 -0.45600
O 	O 	0.51063 0.47371 0.83704 -0.47100
O 	O 	0.52413 0.60236 0.00326 -0.28600
O 	O 	0.58203 0.75001 0.00767 -0.44400
O 	O 	0.64092 0.77042 0.02317 -0.50500
O 	O 	0.26255 0.46479 0.01417 -0.46300
O 	O 	0.30355 0.51134 0.99158 -0.49600
O 	O 	0.34249 0.50044 0.08602 -0.29700
O 	O 	0.40777 0.38466 0.11157 -0.29100
O 	O 	0.55426 0.44439 0.12907 -0.53000
O 	O 	0.56870 0.39929 0.11923 -0.38500
O 	O 	0.30341 0.39396 0.17997 -0.29200
O 	O 	0.19045 0.24951 0.18930 -0.48600
O 	O 	0.19262 0.23733 0.22500 -0.44700
O 	O 	0.10643 0.26987 0.03797 -0.25200
O 	O 	0.09803 0.26677 0.03507 -0.23900
H 	H 	0.10353 0.24567 0.03757 -0.50100
H 	H 	0.08473 0.26947 0.04787 0.54200
H 	H 	0.07613 0.27157 0.03417 -0.19100
H 	H 	0.09503 0.24777 0.02387 0.40100
H 	H 	0.11453 0.25067 0.04077 0.59400
H 	H 	0.09663 0.27497 0.05157 -0.43800
H 	H 	0.08353 0.27307 0.03877 0.12700
H 	H 	0.10133 0.24867 0.02797 -0.17200
C 	C 	0.20870 0.30716 0.13004 0.35800
C 	C 	0.23883 0.29562 0.12661 -0.01100
C 	C 	0.27102 0.31793 0.11224 -0.11600
H 	H 	0.27080 0.33750 0.10330 0.08100
C 	C 	0.30247 0.31167 0.11109 0.10100
H 	H 	0.32370 0.32680 0.10150 -0.00100
C 	C 	0.30270 0.28356 0.12384 -0.25000
H 	H 	0.32440 0.27950 0.12320 0.10500
C 	C 	0.27072 0.25988 0.13834 0.25700
C 	C 	0.23886 0.26616 0.13968 -0.19300
H 	H 	0.21760 0.25080 0.14920 0.10500
C 	C 	0.24459 0.20654 0.16514 0.24900
H 	H 	0.21970 0.18980 0.15730 -0.05300
H 	H 	0.24000 0.22200 0.17630 -0.05700
C 	C 	0.25958 0.18106 0.17611 -0.42000
C 	C 	0.26169 0.15188 0.16369 0.47900
C 	C 	0.28025 0.13284 0.17291 -0.40200
C 	C 	0.29290 0.13947 0.19507 0.50600
C 	C 	0.28930 0.16791 0.20729 -0.40500
C 	C 	0.27401 0.19098 0.19714 0.47500
C 	C 	0.27436 0.22445 0.21042 -0.99900
H 	H 	0.28060 0.24660 0.20070 0.33200
H 	H 	0.29410 0.23280 0.22200 0.33600
H 	H 	0.24850 0.21520 0.21700 0.31000
C 	C 	0.24361 0.13993 0.14030 -0.98900
H 	H 	0.21720 0.13640 0.14030 0.32600
H 	H 	0.24230 0.11540 0.13600 0.33200
H 	H 	0.26000 0.16050 0.12990 0.31300
C 	C 	0.31098 0.11684 0.20521 -1.05300
H 	H 	0.30270 0.09270 0.19690 0.35400
H 	H 	0.30230 0.11030 0.22040 0.34200
H 	H 	0.33960 0.13300 0.20480 0.33800
C 	C 	0.28741 0.10433 0.15935 0.22500
H 	H 	0.28860 0.11070 0.14360 -0.03500
H 	H 	0.31260 0.10650 0.16360 -0.03600
C 	C 	0.25876 0.03501 0.15286 0.22500
C 	C 	0.29112 0.04203 0.13956 -0.21800
H 	H 	0.31170 0.06800 0.13710 0.11000
C 	C 	0.29274 0.01017 0.12989 0.06200
H 	H 	0.31440 0.01490 0.12100 -0.00300
C 	C 	0.26200 0.97128 0.13353 -0.09900
H 	H 	0.26310 0.95000 0.12710 0.06000
C 	C 	0.22963 0.96426 0.14683 -0.03300
C 	C 	0.22801 0.99612 0.15650 -0.15800
H 	H 	0.20640 0.99140 0.16540 0.10800
C 	C 	0.19716 0.92310 0.15066 0.37700
C 	C 	0.30412 0.17627 0.23127 0.27100
H 	H 	0.29020 0.18730 0.23940 -0.05600
H 	H 	0.29860 0.15150 0.23850 -0.06500
C 	C 	0.36455 0.20964 0.25140 0.25000
C 	C 	0.40542 0.23607 0.25054 -0.23400
H 	H 	0.41730 0.24790 0.23700 0.11100
C 	C 	0.42843 0.24489 0.26946 0.08100
H 	H 	0.45590 0.26200 0.26870 -0.00500
C 	C 	0.41034 0.22798 0.28994 -0.10700
H 	H 	0.42560 0.23470 0.30290 0.07200
C 	C 	0.36989 0.20133 0.29078 -0.00000
C 	C 	0.34728 0.19331 0.27136 -0.20000
H 	H 	0.31980 0.17640 0.27210 0.11000
C 	C 	0.34978 0.18305 0.31245 0.35800
C 	C 	0.12994 0.17085 0.15658 0.41200
C 	C 	0.13367 0.14841 0.13739 -0.03700
C 	C 	0.12062 0.10783 0.13900 -0.08300
H 	H 	0.10800 0.09390 0.15200 0.05900
C 	C 	0.12635 0.08804 0.12125 0.04600
H 	H 	0.11760 0.06090 0.12230 0.00800
C 	C 	0.14514 0.10883 0.10188 -0.20500
H 	H 	0.14900 0.09560 0.09000 0.10600
C 	C 	0.15819 0.14941 0.10027 0.22100
C 	C 	0.15246 0.16920 0.11803 -0.16400
H 	H 	0.16120 0.19630 0.11700 0.09900
C 	C 	0.19668 0.20834 0.08063 0.23600
H 	H 	0.21150 0.21820 0.09450 -0.04300
H 	H 	0.17830 0.21840 0.07940 -0.04500
C 	C 	0.22549 0.22275 0.06079 -0.39700
C 	C 	0.26084 0.22240 0.06208 0.54000
C 	C 	0.28945 0.24136 0.04477 -0.41200
C 	C 	0.28217 0.26073 0.02795 0.47700
C 	C 	0.24531 0.25912 0.02596 -0.38900
C 	C 	0.21552 0.23809 0.04159 0.45200
C 	C 	0.17443 0.23321 0.03941 -0.94000
H 	H 	0.15510 0.20840 0.04610 0.30500
H 	H 	0.16820 0.23320 0.02390 0.29900
H 	H 	0.17390 0.25490 0.04690 0.28100
C 	C 	0.27063 0.20505 0.08094 -1.13200
H 	H 	0.28870 0.22600 0.09080 0.36200
H 	H 	0.28300 0.19040 0.07560 0.36900
H 	H 	0.24660 0.18730 0.08890 0.37000
C 	C 	0.31570 0.28494 0.01111 -0.99600
H 	H 	0.33990 0.30230 0.01900 0.34300
H 	H 	0.30830 0.30060 0.00190 0.34000
H 	H 	0.31980 0.26700 0.00190 0.33500
C 	C 	0.32833 0.24209 0.04614 0.24500
H 	H 	0.32630 0.22130 0.05600 -0.05400
H 	H 	0.33680 0.23840 0.03150 -0.04500
C 	C 	0.39519 0.29389 0.05276 0.23500
C 	C 	0.42118 0.33438 0.05634 -0.21000
H 	H 	0.41110 0.35140 0.05910 0.10400
C 	C 	0.46223 0.34952 0.05576 0.07000
H 	H 	0.47960 0.37660 0.05820 -0.00200
C 	C 	0.47729 0.32416 0.05161 -0.09500
H 	H 	0.50480 0.33430 0.05120 0.06800
C 	C 	0.45131 0.28366 0.04804 -0.01800
C 	C 	0.41026 0.26852 0.04862 -0.17700
H 	H 	0.39290 0.24140 0.04620 0.09900
C 	C 	0.46730 0.25761 0.04393 0.32100
C 	C 	0.24152 0.28493 0.00871 0.25300
H 	H 	0.21650 0.28450 0.01090 -0.04800
H 	H 	0.26300 0.31220 0.01070 -0.04800
C 	C 	0.25719 0.30198 0.97075 0.22100
C 	C 	0.26797 0.29184 0.95069 -0.20100
H 	H 	0.26520 0.26670 0.94890 0.10200
C 	C 	0.28287 0.31930 0.93329 0.06000
H 	H 	0.29010 0.31250 0.91990 0.00100
C 	C 	0.28697 0.35691 0.93594 -0.09900
H 	H 	0.29690 0.37530 0.92430 0.05700
C 	C 	0.27619 0.36705 0.95600 -0.01400
C 	C 	0.26129 0.33959 0.97340 -0.16900
H 	H 	0.25410 0.34640 0.98680 0.09200
C 	C 	0.27991 0.40685 0.95870 0.30900
Mn	Mn	0.16450 0.34302 0.13902 1.26300
Mn	Mn	0.13998 0.25527 0.17152 1.28800
Mn	Mn	0.13994 0.18567 0.20752 1.22200
O 	O 	0.21141 0.33681 0.11950 -0.44000
O 	O 	0.18155 0.29018 0.14353 -0.52500
O 	O 	0.27502 0.23277 0.14963 -0.31100
O 	O 	0.34488 0.20306 0.23174 -0.31200
O 	O 	0.31303 0.15873 0.31146 -0.45600
O 	O 	0.37026 0.19296 0.32963 -0.47100
O 	O 	0.25511 0.06431 0.16341 -0.28600
O 	O 	0.16536 0.91666 0.15900 -0.44400
O 	O 	0.20384 0.89625 0.14350 -0.50500
O 	O 	0.13110 0.20188 0.15250 -0.46300
O 	O 	0.12555 0.15533 0.17509 -0.49600
O 	O 	0.17539 0.16623 0.08065 -0.29700
O 	O 	0.35645 0.28201 0.05510 -0.29100
O 	O 	0.44321 0.22228 0.03760 -0.53000
O 	O 	0.50275 0.26738 0.04744 -0.38500
O 	O 	0.24279 0.27271 0.98670 -0.29200
O 	O 	0.27428 0.41716 0.97737 -0.48600
O 	O 	0.28863 0.42934 0.94167 -0.44700
O 	O 	0.16990 0.39680 0.12870 -0.25200
O 	O 	0.16460 0.39990 0.13160 -0.23900
H 	H 	0.19120 0.42100 0.12910 -0.50100
H 	H 	0.14860 0.39720 0.11880 0.54200
H 	H 	0.13790 0.39510 0.13250 -0.19100
H 	H 	0.18060 0.41890 0.14280 0.40100
H 	H 	0.19720 0.41600 0.12590 0.59400
H 	H 	0.15500 0.39170 0.11510 -0.43800
H 	H 	0.14380 0.39360 0.12790 0.12700
H 	H 	0.18600 0.41800 0.13870 -0.17200
C 	C 	0.87537 0.64049 0.46337 0.35800
C 	C 	0.90550 0.62895 0.45994 -0.01100
C 	C 	0.93769 0.65126 0.44557 -0.11600
H 	H 	0.93747 0.67083 0.43663 0.08100
C 	C 	0.96914 0.64500 0.44442 0.10100
H 	H 	0.99037 0.66013 0.43483 -0.00100
C 	C 	0.96937 0.61689 0.45717 -0.25000
H 	H 	0.99107 0.61283 0.45653 0.10500
C 	C 	0.93739 0.59321 0.47167 0.25700
C 	C 	0.90553 0.59949 0.47301 -0.19300
H 	H 	0.88427 0.58413 0.48253 0.10500
C 	C 	0.91126 0.53987 0.49847 0.24900
H 	H 	0.88637 0.52313 0.49063 -0.05300
H 	H 	0.90667 0.55533 0.50963 -0.05700
C 	C 	0.92625 0.51439 0.50944 -0.42000
C 	C 	0.92836 0.48521 0.49702 0.47900
C 	C 	0.94692 0.46617 0.50624 -0.40200
C 	C 	0.95957 0.47280 0.52840 0.50600
C 	C 	0.95597 0.50124 0.54062 -0.40500
C 	C 	0.94068 0.52431 0.53047 0.47500
C 	C 	0.94103 0.55778 0.54375 -0.99900
H 	H 	0.94727 0.57993 0.53403 0.33200
H 	H 	0.96077 0.56613 0.55533 0.33600
H 	H 	0.91517 0.54853 0.55033 0.31000
C 	C 	0.91028 0.47326 0.47363 -0.98900
H 	H 	0.88387 0.46973 0.47363 0.32600
H 	H 	0.90897 0.44873 0.46933 0.33200
H 	H 	0.92667 0.49383 0.46323 0.31300
C 	C 	0.97765 0.45017 0.53854 -1.05300
H 	H 	0.96937 0.42603 0.53023 0.35400
H 	H 	0.96897 0.44363 0.55373 0.34200
H 	H 	0.00627 0.46633 0.53813 0.33800
C 	C 	0.95408 0.43766 0.49268 0.22500
H 	H 	0.95527 0.44403 0.47693 -0.03500
H 	H 	0.97927 0.43983 0.49693 -0.03600
C 	C 	0.92543 0.36834 0.48619 0.22500
C 	C 	0.95779 0.37536 0.47289 -0.21800
H 	H 	0.97837 0.40133 0.47043 0.11000
C 	C 	0.95941 0.34350 0.46322 0.06200
H 	H 	0.98107 0.34823 0.45433 -0.00300
C 	C 	0.92867 0.30461 0.46686 -0.09900
H 	H 	0.92977 0.28333 0.46043 0.06000
C 	C 	0.89630 0.29759 0.48016 -0.03300
C 	C 	0.89468 0.32945 0.48983 -0.15800
H 	H 	0.87307 0.32473 0.49873 0.10800
C 	C 	0.86383 0.25643 0.48399 0.37700
C 	C 	0.97079 0.50960 0.56460 0.27100
H 	H 	0.95687 0.52063 0.57273 -0.05600
H 	H 	0.96527 0.48483 0.57183 -0.06500
C 	C 	0.03122 0.54297 0.58473 0.25000
C 	C 	0.07209 0.56940 0.58387 -0.23400
H 	H 	0.08397 0.58123 0.57033 0.11100
C 	C 	0.09510 0.57822 0.60279 0.08100
H 	H 	0.12257 0.59533 0.60203 -0.00500
C 	C 	0.07701 0.56131 0.62327 -0.10700
H 	H 	0.09227 0.56803 0.63623 0.07200
C 	C 	0.03656 0.53466 0.62411 -0.00000
C 	C 	0.01395 0.52664 0.60469 -0.20100
H 	H 	0.98647 0.50973 0.60543 0.11000
C 	C 	0.01645 0.51638 0.64578 0.35800
C 	C 	0.79661 0.50418 0.48991 0.41200
C 	C 	0.80034 0.48174 0.47072 -0.03700
C 	C 	0.78729 0.44116 0.47233 -0.08300
H 	H 	0.77467 0.42723 0.48533 0.05900
C 	C 	0.79302 0.42137 0.45458 0.04600
H 	H 	0.78427 0.39423 0.45563 0.00800
C 	C 	0.81181 0.44216 0.43521 -0.20500
H 	H 	0.81567 0.42893 0.42333 0.10600
C 	C 	0.82486 0.48274 0.43360 0.22100
C 	C 	0.81913 0.50253 0.45136 -0.16400
H 	H 	0.82787 0.52963 0.45033 0.09900
C 	C 	0.86335 0.54167 0.41396 0.23600
H 	H 	0.87817 0.55153 0.42783 -0.04300
H 	H 	0.84497 0.55173 0.41273 -0.04500
C 	C 	0.89216 0.55608 0.39412 -0.39700
C 	C 	0.92751 0.55573 0.39541 0.54000
C 	C 	0.95612 0.57469 0.37810 -0.41200
C 	C 	0.94884 0.59406 0.36128 0.47700
C 	C 	0.91198 0.59245 0.35929 -0.38900
C 	C 	0.88219 0.57142 0.37492 0.45200
C 	C 	0.84110 0.56654 0.37274 -0.94000
H 	H 	0.82177 0.54173 0.37943 0.30500
H 	H 	0.83487 0.56653 0.35723 0.29900
H 	H 	0.84057 0.58823 0.38023 0.28100
C 	C 	0.93730 0.53838 0.41427 -1.13200
H 	H 	0.95537 0.55933 0.42413 0.36200
H 	H 	0.94967 0.52373 0.40893 0.36900
H 	H 	0.91327 0.52063 0.42223 0.37000
C 	C 	0.98237 0.61827 0.34444 -0.99600
H 	H 	0.00657 0.63563 0.35233 0.34300
H 	H 	0.97497 0.63393 0.33523 0.34000
H 	H 	0.98647 0.60033 0.33523 0.33500
C 	C 	0.99500 0.57542 0.37947 0.24500
H 	H 	0.99297 0.55463 0.38933 -0.05400
H 	H 	0.00347 0.57173 0.36483 -0.04500
C 	C 	0.06186 0.62722 0.38609 0.23500
C 	C 	0.08785 0.66771 0.38967 -0.21000
H 	H 	0.07777 0.68473 0.39243 0.10400
C 	C 	0.12890 0.68285 0.38909 0.07000
H 	H 	0.14627 0.70993 0.39153 -0.00200
C 	C 	0.14396 0.65749 0.38494 -0.09500
H 	H 	0.17147 0.66763 0.38453 0.06800
C 	C 	0.11798 0.61699 0.38137 -0.01800
C 	C 	0.07693 0.60185 0.38195 -0.17700
H 	H 	0.05957 0.57473 0.37953 0.09900
C 	C 	0.13397 0.59094 0.37726 0.32100
C 	C 	0.90819 0.61826 0.34204 0.25300
H 	H 	0.88317 0.61783 0.34423 -0.04800
H 	H 	0.92967 0.64553 0.34403 -0.04800
C 	C 	0.92386 0.63531 0.30408 0.22100
C 	C 	0.93464 0.62517 0.28402 -0.20100
H 	H 	0.93187 0.60003 0.28223 0.10200
C 	C 	0.94954 0.65263 0.26662 0.06000
H 	H 	0.95677 0.64583 0.25323 0.00100
C 	C 	0.95364 0.69024 0.26927 -0.09900
H 	H 	0.96357 0.70863 0.25763 0.05700
C 	C 	0.94286 0.70038 0.28933 -0.01400
C 	C 	0.92796 0.67292 0.30673 -0.16900
H 	H 	0.92077 0.67973 0.32013 0.09200
C 	C 	0.94658 0.74018 0.29203 0.30900
Mn	Mn	0.83117 0.67635 0.47235 1.26300
Mn	Mn	0.80665 0.58861 0.50485 1.28800
Mn	Mn	0.80661 0.51900 0.54085 1.22200
O 	O 	0.87808 0.67014 0.45283 -0.44000
O 	O 	0.84822 0.62351 0.47686 -0.52500
O 	O 	0.94169 0.56610 0.48296 -0.31100
O 	O 	0.01155 0.53639 0.56507 -0.31200
O 	O 	0.97970 0.49206 0.64479 -0.45600
O 	O 	0.03693 0.52629 0.66296 -0.47100
O 	O 	0.92178 0.39764 0.49674 -0.28600
O 	O 	0.83203 0.24999 0.49233 -0.44400
O 	O 	0.87051 0.22958 0.47683 -0.50500
O 	O 	0.79777 0.53521 0.48583 -0.46300
O 	O 	0.79222 0.48866 0.50842 -0.49600
O 	O 	0.84206 0.49956 0.41398 -0.29700
O 	O 	0.02312 0.61534 0.38843 -0.29100
O 	O 	0.10988 0.55561 0.37093 -0.53000
O 	O 	0.16942 0.60071 0.38077 -0.38500
O 	O 	0.90946 0.60604 0.32003 -0.29200
O 	O 	0.94095 0.75049 0.31070 -0.48600
O 	O 	0.95530 0.76267 0.27500 -0.44700
O 	O 	0.83657 0.73013 0.46203 -0.25200
O 	O 	0.83127 0.73323 0.46493 -0.23900
H 	H 	0.85787 0.75433 0.46243 -0.50100
H 	H 	0.81527 0.73053 0.45213 0.54200
H 	H 	0.80457 0.72843 0.46583 -0.19100
H 	H 	0.84727 0.75223 0.47613 0.40100
H 	H 	0.86387 0.74933 0.45923 0.59400
H 	H 	0.82167 0.72503 0.44843 -0.43800
H 	H 	0.81047 0.72693 0.46123 0.12700
H 	H 	0.85267 0.75133 0.47203 -0.17200
C 	C 	0.54203 0.97383 0.79671 0.35800
C 	C 	0.57216 0.96229 0.79328 -0.01100
C 	C 	0.60435 0.98460 0.77891 -0.11600
H 	H 	0.60413 0.00417 0.76997 0.08100
C 	C 	0.63580 0.97834 0.77776 0.10100
H 	H 	0.65703 0.99347 0.76817 -0.00100
C 	C 	0.63603 0.95023 0.79051 -0.25000
H 	H 	0.65773 0.94617 0.78987 0.10500
C 	C 	0.60405 0.92655 0.80501 0.25700
C 	C 	0.57219 0.93283 0.80635 -0.19300
H 	H 	0.55093 0.91747 0.81587 0.10500
C 	C 	0.57792 0.87321 0.83181 0.24900
H 	H 	0.55303 0.85647 0.82397 -0.05300
H 	H 	0.57333 0.88867 0.84297 -0.05700
C 	C 	0.59291 0.84773 0.84278 -0.42000
C 	C 	0.59502 0.81855 0.83036 0.47900
C 	C 	0.61358 0.79951 0.83958 -0.40200
C 	C 	0.62623 0.80614 0.86174 0.50600
C 	C 	0.62263 0.83458 0.87396 -0.40500
C 	C 	0.60734 0.85765 0.86381 0.47500
C 	C 	0.60769 0.89112 0.87709 -0.99900
H 	H 	0.61393 0.91327 0.86737 0.33200
H 	H 	0.62743 0.89947 0.88867 0.33600
H 	H 	0.58183 0.88187 0.88367 0.31000
C 	C 	0.57694 0.80660 0.80697 -0.98900
H 	H 	0.55053 0.80307 0.80697 0.32600
H 	H 	0.57563 0.78207 0.80267 0.33200
H 	H 	0.59333 0.82717 0.79657 0.31300
C 	C 	0.64431 0.78351 0.87188 -1.05300
H 	H 	0.63603 0.75937 0.86357 0.35400
H 	H 	0.63563 0.77697 0.88707 0.34200
H 	H 	0.67293 0.79967 0.87147 0.33800
C 	C 	0.62074 0.77100 0.82602 0.22500
H 	H 	0.62193 0.77737 0.81027 -0.03500
H 	H 	0.64593 0.77317 0.83027 -0.03600
C 	C 	0.59209 0.70168 0.81953 0.22500
C 	C 	0.62445 0.70870 0.80623 -0.21800
H 	H 	0.64503 0.73467 0.80377 0.11000
C 	C 	0.62607 0.67684 0.79656 0.06200
H 	H 	0.64773 0.68157 0.78767 -0.00300
C 	C 	0.59533 0.63795 0.80020 -0.09900
H 	H 	0.59643 0.61667 0.79377 0.06000
C 	C 	0.56296 0.63093 0.81350 -0.03300
C 	C 	0.56134 0.66279 0.82317 -0.15800
H 	H 	0.53973 0.65807 0.83207 0.10800
C 	C 	0.53049 0.58977 0.81733 0.37700
C 	C 	0.63745 0.84294 0.89794 0.27100
H 	H 	0.62353 0.85397 0.90607 -0.05600
H 	H 	0.63193 0.81817 0.90517 -0.06500
C 	C 	0.69788 0.87631 0.91807 0.25000
C 	C 	0.73875 0.90274 0.91721 -0.23400
H 	H 	0.75063 0.91457 0.90367 0.11100
C 	C 	0.76176 0.91156 0.93613 0.08100
H 	H 	0.78923 0.92867 0.93537 -0.00500
C 	C 	0.74367 0.89465 0.95661 -0.10700
H 	H 	0.75893 0.90137 0.96957 0.07200
C 	C 	0.70322 0.86800 0.95745 -0.00000
C 	C 	0.68061 0.85998 0.93803 -0.20000
H 	H 	0.65313 0.84307 0.93877 0.11000
C 	C 	0.68311 0.84972 0.97912 0.35800
C 	C 	0.46327 0.83752 0.82325 0.41200
C 	C 	0.46700 0.81508 0.80406 -0.03700
C 	C 	0.45395 0.77450 0.80567 -0.08300
H 	H 	0.44133 0.76057 0.81867 0.05900
C 	C 	0.45968 0.75471 0.78792 0.04600
H 	H 	0.45093 0.72757 0.78897 0.00800
C 	C 	0.47847 0.77550 0.76855 -0.20500
H 	H 	0.48233 0.76227 0.75667 0.10600
C 	C 	0.49152 0.81608 0.76694 0.22100
C 	C 	0.48579 0.83587 0.78470 -0.16400
H 	H 	0.49453 0.86297 0.78367 0.09900
C 	C 	0.53001 0.87501 0.74730 0.23600
H 	H 	0.54483 0.88487 0.76117 -0.04300
H 	H 	0.51163 0.88507 0.74607 -0.04500
C 	C 	0.55882 0.88942 0.72746 -0.39700
C 	C 	0.59417 0.88907 0.72875 0.54000
C 	C 	0.62278 0.90803 0.71144 -0.41200
C 	C 	0.61550 0.92740 0.69462 0.47700
C 	C 	0.57864 0.92579 0.69263 -0.38900
C 	C 	0.54885 0.90476 0.70826 0.45200
C 	C 	0.50776 0.89988 0.70608 -0.94000
H 	H 	0.48843 0.87507 0.71277 0.30500
H 	H 	0.50153 0.89987 0.69057 0.29900
H 	H 	0.50723 0.92157 0.71357 0.28100
C 	C 	0.60396 0.87172 0.74761 -1.13200
H 	H 	0.62203 0.89267 0.75747 0.36200
H 	H 	0.61633 0.85707 0.74227 0.36900
H 	H 	0.57993 0.85397 0.75557 0.37000
C 	C 	0.64903 0.95161 0.67778 -0.99600
H 	H 	0.67323 0.96897 0.68567 0.34300
H 	H 	0.64163 0.96727 0.66857 0.34000
H 	H 	0.65313 0.93367 0.66857 0.33500
C 	C 	0.66166 0.90876 0.71281 0.24500
H 	H 	0.65963 0.88797 0.72267 -0.05400
H 	H 	0.67013 0.90507 0.69817 -0.04500
C 	C 	0.72852 0.96056 0.71943 0.23500
C 	C 	0.75451 0.00105 0.72301 -0.21000
H 	H 	0.74443 0.01807 0.72577 0.10400
C 	C 	0.79556 0.01619 0.72243 0.07000
H 	H 	0.81293 0.04327 0.72487 -0.00200
C 	C 	0.81062 0.99083 0.71828 -0.09500
H 	H 	0.83813 0.00097 0.71787 0.06800
C 	C 	0.78464 0.95033 0.71471 -0.01800
C 	C 	0.74359 0.93519 0.71529 -0.17700
H 	H 	0.72623 0.90807 0.71287 0.09900
C 	C 	0.80063 0.92428 0.71060 0.32100
C 	C 	0.57485 0.95160 0.67538 0.25300
H 	H 	0.54983 0.95117 0.67757 -0.04800
H 	H 	0.59633 0.97887 0.67737 -0.04800
C 	C 	0.59052 0.96865 0.63742 0.22100
C 	C 	0.60130 0.95851 0.61736 -0.20100
H 	H 	0.59853 0.93337 0.61557 0.10200
C 	C 	0.61620 0.98597 0.59996 0.06000
H 	H 	0.62343 0.97917 0.58657 0.00100
C 	C 	0.62030 0.02358 0.60261 -0.09900
H 	H 	0.63023 0.04197 0.59097 0.05700
C 	C 	0.60952 0.03372 0.62267 -0.01400
C 	C 	0.59462 0.00626 0.64007 -0.16900
H 	H 	0.58743 0.01307 0.65347 0.09200
C 	C 	0.61324 0.07352 0.62537 0.30900
Mn	Mn	0.49784 0.00968 0.80569 1.26300
Mn	Mn	0.47331 0.92194 0.83818 1.28800
Mn	Mn	0.47328 0.85234 0.87418 1.22200
O 	O 	0.54474 0.00348 0.78617 -0.44000
O 	O 	0.51488 0.95685 0.81020 -0.52500
O 	O 	0.60835 0.89944 0.81630 -0.31100
O 	O 	0.67821 0.86973 0.89841 -0.31200
O 	O 	0.64636 0.82540 0.97813 -0.45600
O 	O 	0.70359 0.85963 0.99630 -0.47100
O 	O 	0.58844 0.73098 0.83008 -0.28600
O 	O 	0.49869 0.58333 0.82567 -0.44400
O 	O 	0.53717 0.56292 0.81017 -0.50500
O 	O 	0.46443 0.86855 0.81917 -0.46300
O 	O 	0.45888 0.82200 0.84176 -0.49600
O 	O 	0.50872 0.83290 0.74732 -0.29700
O 	O 	0.68978 0.94868 0.72177 -0.29100
O 	O 	0.77654 0.88895 0.70427 -0.53000
O 	O 	0.83608 0.93405 0.71411 -0.38500
O 	O 	0.57612 0.93938 0.65337 -0.29200
O 	O 	0.60761 0.08383 0.64404 -0.48600
O 	O 	0.62196 0.09601 0.60834 -0.44700
O 	O 	0.50323 0.06347 0.79537 -0.25200
O 	O 	0.49793 0.06657 0.79827 -0.23900
H 	H 	0.52453 0.08767 0.79577 -0.50100
H 	H 	0.48193 0.06387 0.78547 0.54200
H 	H 	0.47123 0.06177 0.79917 -0.19100
H 	H 	0.51393 0.08557 0.80947 0.40100
H 	H 	0.53053 0.08267 0.79257 0.59400
H 	H 	0.48833 0.05837 0.78177 -0.43800
H 	H 	0.47713 0.06027 0.79457 0.12700
H 	H 	0.51933 0.08467 0.80537 -0.17200
C 	C 	0.09846 0.79130 0.13004 0.35800
C 	C 	0.05679 0.76117 0.12661 -0.01100
C 	C 	0.04691 0.72898 0.11224 -0.11600
H 	H 	0.06670 0.72920 0.10330 0.08100
C 	C 	0.00920 0.69753 0.11109 0.10100
H 	H 	0.00310 0.67630 0.10150 -0.00100
C 	C 	0.98086 0.69730 0.12384 -0.25000
H 	H 	0.95510 0.67560 0.12320 0.10500
C 	C 	0.98916 0.72928 0.13834 0.25700
C 	C 	0.02730 0.76114 0.13968 -0.19300
H 	H 	0.03320 0.78240 0.14920 0.10500
C 	C 	0.96195 0.75541 0.16514 0.24900
H 	H 	0.97010 0.78030 0.15730 -0.05300
H 	H 	0.98200 0.76000 0.17630 -0.05700
C 	C 	0.92148 0.74042 0.17611 -0.42000
C 	C 	0.89019 0.73831 0.16369 0.47900
C 	C 	0.85259 0.71975 0.17291 -0.40200
C 	C 	0.84657 0.70710 0.19507 0.50600
C 	C 	0.87861 0.71070 0.20729 -0.40500
C 	C 	0.91697 0.72599 0.19714 0.47500
C 	C 	0.95009 0.72564 0.21042 -0.99900
H 	H 	0.96600 0.71940 0.20070 0.33200
H 	H 	0.93870 0.70590 0.22200 0.33600
H 	H 	0.96670 0.75150 0.21700 0.31000
C 	C 	0.89632 0.75639 0.14030 -0.98900
H 	H 	0.91920 0.78280 0.14030 0.32600
H 	H 	0.87310 0.75770 0.13600 0.33200
H 	H 	0.90050 0.74000 0.12990 0.31300
C 	C 	0.80586 0.68902 0.20521 -1.05300
H 	H 	0.79000 0.69730 0.19690 0.35400
H 	H 	0.80800 0.69770 0.22040 0.34200
H 	H 	0.79340 0.66040 0.20480 0.33800
C 	C 	0.81692 0.71259 0.15935 0.22500
H 	H 	0.82210 0.71140 0.14360 -0.03500
H 	H 	0.79390 0.68740 0.16360 -0.03600
C 	C 	0.77625 0.74124 0.15286 0.22500
C 	C 	0.75091 0.70888 0.13956 -0.21800
H 	H 	0.75630 0.68830 0.13710 0.11000
C 	C 	0.71743 0.70726 0.12989 0.06200
H 	H 	0.70050 0.68560 0.12100 -0.00300
C 	C 	0.70928 0.73800 0.13353 -0.09900
H 	H 	0.68690 0.73690 0.12710 0.06000
C 	C 	0.73463 0.77037 0.14683 -0.03300
C 	C 	0.76811 0.77199 0.15650 -0.15800
H 	H 	0.78500 0.79360 0.16540 0.10800
C 	C 	0.72594 0.80284 0.15066 0.37700
C 	C 	0.87215 0.69588 0.23127 0.27100
H 	H 	0.89710 0.70980 0.23940 -0.05600
H 	H 	0.85290 0.70140 0.23850 -0.06500
C 	C 	0.84509 0.63545 0.25140 0.25000
C 	C 	0.83065 0.59458 0.25054 -0.23400
H 	H 	0.83060 0.58270 0.23700 0.11100
C 	C 	0.81646 0.57157 0.26946 0.08100
H 	H 	0.80610 0.54410 0.26870 -0.00500
C 	C 	0.81764 0.58966 0.28994 -0.10700
H 	H 	0.80910 0.57440 0.30290 0.07200
C 	C 	0.83144 0.63011 0.29078 -0.00000
C 	C 	0.84603 0.65272 0.27136 -0.20000
H 	H 	0.85660 0.68020 0.27210 0.11000
C 	C 	0.83327 0.65022 0.31245 0.35800
C 	C 	0.04091 0.87006 0.15658 0.41200
C 	C 	0.01474 0.86633 0.13739 -0.03700
C 	C 	0.98721 0.87938 0.13900 -0.08300
H 	H 	0.98590 0.89200 0.15200 0.05900
C 	C 	0.96169 0.87365 0.12125 0.04600
H 	H 	0.94330 0.88240 0.12230 0.00800
C 	C 	0.96369 0.85486 0.10188 -0.20500
H 	H 	0.94660 0.85100 0.09000 0.10600
C 	C 	0.99122 0.84181 0.10027 0.22100
C 	C 	0.01674 0.84754 0.11803 -0.16400
H 	H 	0.03510 0.83880 0.11700 0.09900
C 	C 	0.01166 0.80332 0.08063 0.23600
H 	H 	0.00670 0.78850 0.09450 -0.04300
H 	H 	0.04010 0.82170 0.07940 -0.04500
C 	C 	0.99726 0.77451 0.06079 -0.39700
C 	C 	0.96156 0.73916 0.06208 0.54000
C 	C 	0.95191 0.71055 0.04477 -0.41200
C 	C 	0.97856 0.71783 0.02795 0.47700
C 	C 	0.01381 0.75469 0.02596 -0.38900
C 	C 	0.02257 0.78448 0.04159 0.45200
C 	C 	0.05878 0.82557 0.03941 -0.94000
H 	H 	0.05330 0.84490 0.04610 0.30500
H 	H 	0.06500 0.83180 0.02390 0.29900
H 	H 	0.08100 0.82610 0.04690 0.28100
C 	C 	0.93442 0.72937 0.08094 -1.13200
H 	H 	0.93730 0.71130 0.09080 0.36200
H 	H 	0.90740 0.71700 0.07560 0.36900
H 	H 	0.94070 0.75340 0.08890 0.37000
C 	C 	0.96924 0.68430 0.01111 -0.99600
H 	H 	0.96240 0.66010 0.01900 0.34300
H 	H 	0.99230 0.69170 0.00190 0.34000
H 	H 	0.94720 0.68020 0.00190 0.33500
C 	C 	0.91376 0.67167 0.04614 0.24500
H 	H 	0.89500 0.67370 0.05600 -0.05400
H 	H 	0.90160 0.66320 0.03150 -0.04500
C 	C 	0.89870 0.60481 0.05276 0.23500
C 	C 	0.91320 0.57882 0.05634 -0.21000
H 	H 	0.94030 0.58890 0.05910 0.10400
C 	C 	0.88729 0.53777 0.05576 0.07000
H 	H 	0.89700 0.52040 0.05820 -0.00200
C 	C 	0.84687 0.52271 0.05161 -0.09500
H 	H 	0.82950 0.49520 0.05120 0.06800
C 	C 	0.83235 0.54869 0.04804 -0.01800
C 	C 	0.85826 0.58974 0.04862 -0.17700
H 	H 	0.84850 0.60710 0.04620 0.09900
C 	C 	0.79031 0.53270 0.04393 0.32100
C 	C 	0.04341 0.75848 0.00871 0.25300
H 	H 	0.06800 0.78350 0.01090 -0.04800
H 	H 	0.04920 0.73700 0.01070 -0.04800
C 	C 	0.04479 0.74281 0.97075 0.22100
C 	C 	0.02387 0.73203 0.95069 -0.20100
H 	H 	0.00150 0.73480 0.94890 0.10200
C 	C 	0.03643 0.71713 0.93329 0.06000
H 	H 	0.02240 0.70990 0.91990 0.00100
C 	C 	0.06994 0.71303 0.93594 -0.09900
H 	H 	0.07840 0.70310 0.92430 0.05700
C 	C 	0.09086 0.72381 0.95600 -0.01400
C 	C 	0.07830 0.73871 0.97340 -0.16900
H 	H 	0.09230 0.74590 0.98680 0.09200
C 	C 	0.12694 0.72009 0.95870 0.30900
Mn	Mn	0.17851 0.83550 0.13902 1.26300
Mn	Mn	0.11529 0.86002 0.17152 1.28800
Mn	Mn	0.04573 0.86006 0.20752 1.22200
O 	O 	0.12540 0.78859 0.11950 -0.44000
O 	O 	0.10863 0.81845 0.14353 -0.52500
O 	O 	0.95775 0.72498 0.14963 -0.31100
O 	O 	0.85818 0.65512 0.23174 -0.31200
O 	O 	0.84570 0.68697 0.31146 -0.45600
O 	O 	0.82270 0.62974 0.32963 -0.47100
O 	O 	0.80920 0.74489 0.16341 -0.28600
O 	O 	0.75130 0.83464 0.15900 -0.44400
O 	O 	0.69241 0.79616 0.14350 -0.50500
O 	O 	0.07078 0.86890 0.15250 -0.46300
O 	O 	0.02978 0.87445 0.17509 -0.49600
O 	O 	0.99084 0.82461 0.08065 -0.29700
O 	O 	0.92556 0.64355 0.05510 -0.29100
O 	O 	0.77907 0.55679 0.03760 -0.53000
O 	O 	0.76463 0.49725 0.04744 -0.38500
O 	O 	0.02992 0.75721 0.98670 -0.29200
O 	O 	0.14288 0.72572 0.97737 -0.48600
O 	O 	0.14071 0.71137 0.94167 -0.44700
O 	O 	0.22690 0.83010 0.12870 -0.25200
O 	O 	0.23530 0.83540 0.13160 -0.23900
H 	H 	0.22980 0.80880 0.12910 -0.50100
H 	H 	0.24860 0.85140 0.11880 0.54200
H 	H 	0.25720 0.86210 0.13250 -0.19100
H 	H 	0.23830 0.81940 0.14280 0.40100
H 	H 	0.21880 0.80280 0.12590 0.59400
H 	H 	0.23670 0.84500 0.11510 -0.43800
H 	H 	0.24980 0.85620 0.12790 0.12700
H 	H 	0.23200 0.81400 0.13870 -0.17200
C 	C 	0.76513 0.12463 0.46337 0.35800
C 	C 	0.72346 0.09450 0.45994 -0.01100
C 	C 	0.71358 0.06231 0.44557 -0.11600
H 	H 	0.73337 0.06253 0.43663 0.08100
C 	C 	0.67587 0.03086 0.44442 0.10100
H 	H 	0.66977 0.00963 0.43483 -0.00100
C 	C 	0.64753 0.03063 0.45717 -0.25000
H 	H 	0.62177 0.00893 0.45653 0.10500
C 	C 	0.65583 0.06261 0.47167 0.25700
C 	C 	0.69397 0.09447 0.47301 -0.19300
H 	H 	0.69987 0.11573 0.48253 0.10500
C 	C 	0.62862 0.08874 0.49847 0.24900
H 	H 	0.63677 0.11363 0.49063 -0.05300
H 	H 	0.64867 0.09333 0.50963 -0.05700
C 	C 	0.58815 0.07375 0.50944 -0.42000
C 	C 	0.55686 0.07164 0.49702 0.47900
C 	C 	0.51926 0.05308 0.50624 -0.40200
C 	C 	0.51324 0.04043 0.52840 0.50600
C 	C 	0.54528 0.04403 0.54062 -0.40500
C 	C 	0.58364 0.05932 0.53047 0.47500
C 	C 	0.61676 0.05897 0.54375 -0.99900
H 	H 	0.63267 0.05273 0.53403 0.33200
H 	H 	0.60537 0.03923 0.55533 0.33600
H 	H 	0.63337 0.08483 0.55033 0.31000
C 	C 	0.56299 0.08972 0.47363 -0.98900
H 	H 	0.58587 0.11613 0.47363 0.32600
H 	H 	0.53977 0.09103 0.46933 0.33200
H 	H 	0.56717 0.07333 0.46323 0.31300
C 	C 	0.47253 0.02235 0.53854 -1.05300
H 	H 	0.45667 0.03063 0.53023 0.35400
H 	H 	0.47467 0.03103 0.55373 0.34200
H 	H 	0.46007 0.99373 0.53813 0.33800
C 	C 	0.48359 0.04592 0.49268 0.22500
H 	H 	0.48877 0.04473 0.47693 -0.03500
H 	H 	0.46057 0.02073 0.49693 -0.03600
C 	C 	0.44292 0.07457 0.48619 0.22500
C 	C 	0.41758 0.04221 0.47289 -0.21800
H 	H 	0.42297 0.02163 0.47043 0.11000
C 	C 	0.38410 0.04059 0.46322 0.06200
H 	H 	0.36717 0.01893 0.45433 -0.00300
C 	C 	0.37595 0.07133 0.46686 -0.09900
H 	H 	0.35357 0.07023 0.46043 0.06000
C 	C 	0.40130 0.10370 0.48016 -0.03300
C 	C 	0.43478 0.10532 0.48983 -0.15800
H 	H 	0.45167 0.12693 0.49873 0.10800
C 	C 	0.39261 0.13617 0.48399 0.37700
C 	C 	0.53882 0.02921 0.56460 0.27100
H 	H 	0.56377 0.04313 0.57273 -0.05600
H 	H 	0.51957 0.03473 0.57183 -0.06500
C 	C 	0.51176 0.96878 0.58473 0.25000
C 	C 	0.49732 0.92791 0.58387 -0.23400
H 	H 	0.49727 0.91603 0.57033 0.11100
C 	C 	0.48313 0.90490 0.60279 0.08100
H 	H 	0.47277 0.87743 0.60203 -0.00500
C 	C 	0.48431 0.92299 0.62327 -0.10700
H 	H 	0.47577 0.90773 0.63623 0.07200
C 	C 	0.49811 0.96344 0.62411 -0.00000
C 	C 	0.51270 0.98605 0.60469 -0.20100
H 	H 	0.52327 0.01353 0.60543 0.11000
C 	C 	0.49994 0.98355 0.64578 0.35800
C 	C 	0.70758 0.20339 0.48991 0.41200
C 	C 	0.68141 0.19966 0.47072 -0.03700
C 	C 	0.65388 0.21271 0.47233 -0.08300
H 	H 	0.65257 0.22533 0.48533 0.05900
C 	C 	0.62836 0.20698 0.45458 0.04600
H 	H 	0.60997 0.21573 0.45563 0.00800
C 	C 	0.63036 0.18819 0.43521 -0.20500
H 	H 	0.61327 0.18433 0.42333 0.10600
C 	C 	0.65789 0.17514 0.43360 0.22100
C 	C 	0.68341 0.18087 0.45136 -0.16400
H 	H 	0.70177 0.17213 0.45033 0.09900
C 	C 	0.67833 0.13665 0.41396 0.23600
H 	H 	0.67337 0.12183 0.42783 -0.04300
H 	H 	0.70677 0.15503 0.41273 -0.04500
C 	C 	0.66393 0.10784 0.39412 -0.39700
C 	C 	0.62823 0.07249 0.39541 0.54000
C 	C 	0.61858 0.04388 0.37810 -0.41200
C 	C 	0.64523 0.05116 0.36128 0.47700
C 	C 	0.68048 0.08802 0.35929 -0.38900
C 	C 	0.68924 0.11781 0.37492 0.45200
C 	C 	0.72545 0.15890 0.37274 -0.94000
H 	H 	0.71997 0.17823 0.37943 0.30500
H 	H 	0.73167 0.16513 0.35723 0.29900
H 	H 	0.74767 0.15943 0.38023 0.28100
C 	C 	0.60109 0.06270 0.41427 -1.13200
H 	H 	0.60397 0.04463 0.42413 0.36200
H 	H 	0.57407 0.05033 0.40893 0.36900
H 	H 	0.60737 0.08673 0.42223 0.37000
C 	C 	0.63591 0.01763 0.34444 -0.99600
H 	H 	0.62907 0.99343 0.35233 0.34300
H 	H 	0.65897 0.02503 0.33523 0.34000
H 	H 	0.61387 0.01353 0.33523 0.33500
C 	C 	0.58043 0.00500 0.37947 0.24500
H 	H 	0.56167 0.00703 0.38933 -0.05400
H 	H 	0.56827 0.99653 0.36483 -0.04500
C 	C 	0.56537 0.93814 0.38609 0.23500
C 	C 	0.57987 0.91215 0.38967 -0.21000
H 	H 	0.60697 0.92223 0.39243 0.10400
C 	C 	0.55396 0.87110 0.38909 0.07000
H 	H 	0.56367 0.85373 0.39153 -0.00200
C 	C 	0.51354 0.85604 0.38494 -0.09500
H 	H 	0.49617 0.82853 0.38453 0.06800
C 	C 	0.49902 0.88202 0.38137 -0.01800
C 	C 	0.52493 0.92307 0.38195 -0.17700
H 	H 	0.51517 0.94043 0.37953 0.09900
C 	C 	0.45698 0.86603 0.37726 0.32100
C 	C 	0.71008 0.09181 0.34204 0.25300
H 	H 	0.73467 0.11683 0.34423 -0.04800
H 	H 	0.71587 0.07033 0.34403 -0.04800
C 	C 	0.71146 0.07614 0.30408 0.22100
C 	C 	0.69054 0.06536 0.28402 -0.20100
H 	H 	0.66817 0.06813 0.28223 0.10200
C 	C 	0.70310 0.05046 0.26662 0.06000
H 	H 	0.68907 0.04323 0.25323 0.00100
C 	C 	0.73661 0.04636 0.26927 -0.09900
H 	H 	0.74507 0.03643 0.25763 0.05700
C 	C 	0.75753 0.05714 0.28933 -0.01400
C 	C 	0.74497 0.07204 0.30673 -0.16900
H 	H 	0.75897 0.07923 0.32013 0.09200
C 	C 	0.79361 0.05342 0.29203 0.30900
Mn	Mn	0.84518 0.16883 0.47235 1.26300
Mn	Mn	0.78196 0.19335 0.50485 1.28800
Mn	Mn	0.71239 0.19339 0.54085 1.22200
O 	O 	0.79207 0.12192 0.45283 -0.44000
O 	O 	0.77530 0.15178 0.47686 -0.52500
O 	O 	0.62442 0.05831 0.48296 -0.31100
O 	O 	0.52485 0.98845 0.56507 -0.31200
O 	O 	0.51237 0.02030 0.64479 -0.45600
O 	O 	0.48937 0.96307 0.66296 -0.47100
O 	O 	0.47587 0.07822 0.49674 -0.28600
O 	O 	0.41797 0.16797 0.49233 -0.44400
O 	O 	0.35908 0.12949 0.47683 -0.50500
O 	O 	0.73745 0.20223 0.48583 -0.46300
O 	O 	0.69645 0.20778 0.50842 -0.49600
O 	O 	0.65751 0.15794 0.41398 -0.29700
O 	O 	0.59223 0.97688 0.38843 -0.29100
O 	O 	0.44574 0.89012 0.37093 -0.53000
O 	O 	0.43130 0.83058 0.38077 -0.38500
O 	O 	0.69659 0.09054 0.32003 -0.29200
O 	O 	0.80955 0.05905 0.31070 -0.48600
O 	O 	0.80738 0.04470 0.27500 -0.44700
O 	O 	0.89357 0.16343 0.46203 -0.25200
O 	O 	0.90197 0.16873 0.46493 -0.23900
H 	H 	0.89647 0.14213 0.46243 -0.50100
H 	H 	0.91527 0.18473 0.45213 0.54200
H 	H 	0.92387 0.19543 0.46583 -0.19100
H 	H 	0.90497 0.15273 0.47613 0.40100
H 	H 	0.88547 0.13613 0.45923 0.59400
H 	H 	0.90337 0.17833 0.44843 -0.43800
H 	H 	0.91647 0.18953 0.46123 0.12700
H 	H 	0.89867 0.14733 0.47203 -0.17200
C 	C 	0.43179 0.45797 0.79671 0.35800
C 	C 	0.39012 0.42784 0.79328 -0.01100
C 	C 	0.38024 0.39565 0.77891 -0.11600
H 	H 	0.40003 0.39587 0.76997 0.08100
C 	C 	0.34253 0.36420 0.77776 0.10100
H 	H 	0.33643 0.34297 0.76817 -0.00100
C 	C 	0.31419 0.36397 0.79051 -0.25000
H 	H 	0.28843 0.34227 0.78987 0.10500
C 	C 	0.32249 0.39595 0.80501 0.25700
C 	C 	0.36063 0.42781 0.80635 -0.19300
H 	H 	0.36653 0.44907 0.81587 0.10500
C 	C 	0.29528 0.42208 0.83181 0.24900
H 	H 	0.30343 0.44697 0.82397 -0.05300
H 	H 	0.31533 0.42667 0.84297 -0.05700
C 	C 	0.25481 0.40709 0.84278 -0.42000
C 	C 	0.22352 0.40498 0.83036 0.47900
C 	C 	0.18592 0.38642 0.83958 -0.40200
C 	C 	0.17990 0.37377 0.86174 0.50600
C 	C 	0.21194 0.37737 0.87396 -0.40500
C 	C 	0.25030 0.39266 0.86381 0.47500
C 	C 	0.28342 0.39231 0.87709 -0.99900
H 	H 	0.29933 0.38607 0.86737 0.33200
H 	H 	0.27203 0.37257 0.88867 0.33600
H 	H 	0.30003 0.41817 0.88367 0.31000
C 	C 	0.22965 0.42306 0.80697 -0.98900
H 	H 	0.25253 0.44947 0.80697 0.32600
H 	H 	0.20643 0.42437 0.80267 0.33200
H 	H 	0.23383 0.40667 0.79657 0.31300
C 	C 	0.13919 0.35569 0.87188 -1.05300
H 	H 	0.12333 0.36397 0.86357 0.35400
H 	H 	0.14133 0.36437 0.88707 0.34200
H 	H 	0.12673 0.32707 0.87147 0.33800
C 	C 	0.15025 0.37926 0.82602 0.22500
H 	H 	0.15543 0.37807 0.81027 -0.03500
H 	H 	0.12723 0.35407 0.83027 -0.03600
C 	C 	0.10958 0.40791 0.81953 0.22500
C 	C 	0.08424 0.37555 0.80623 -0.21800
H 	H 	0.08963 0.35497 0.80377 0.11000
C 	C 	0.05076 0.37393 0.79656 0.06200
H 	H 	0.03383 0.35227 0.78767 -0.00300
C 	C 	0.04261 0.40467 0.80020 -0.09900
H 	H 	0.02023 0.40357 0.79377 0.06000
C 	C 	0.06796 0.43704 0.81350 -0.03300
C 	C 	0.10144 0.43866 0.82317 -0.15800
H 	H 	0.11833 0.46027 0.83207 0.10800
C 	C 	0.05927 0.46951 0.81733 0.37700
C 	C 	0.20548 0.36255 0.89794 0.27100
H 	H 	0.23043 0.37647 0.90607 -0.05600
H 	H 	0.18623 0.36807 0.90517 -0.06500
C 	C 	0.17842 0.30212 0.91807 0.25000
C 	C 	0.16398 0.26125 0.91721 -0.23400
H 	H 	0.16393 0.24937 0.90367 0.11100
C 	C 	0.14979 0.23824 0.93613 0.08100
H 	H 	0.13943 0.21077 0.93537 -0.00500
C 	C 	0.15097 0.25633 0.95661 -0.10700
H 	H 	0.14243 0.24107 0.96957 0.07200
C 	C 	0.16477 0.29678 0.95745 -0.00000
C 	C 	0.17936 0.31939 0.93803 -0.20000
H 	H 	0.18993 0.34687 0.93877 0.11000
C 	C 	0.16660 0.31689 0.97912 0.35800
C 	C 	0.37424 0.53673 0.82325 0.41200
C 	C 	0.34807 0.53300 0.80406 -0.03700
C 	C 	0.32054 0.54605 0.80567 -0.08300
H 	H 	0.31923 0.55867 0.81867 0.05900
C 	C 	0.29502 0.54032 0.78792 0.04600
H 	H 	0.27663 0.54907 0.78897 0.00800
C 	C 	0.29702 0.52153 0.76855 -0.20500
H 	H 	0.27993 0.51767 0.75667 0.10600
C 	C 	0.32455 0.50848 0.76694 0.22100
C 	C 	0.35007 0.51421 0.78470 -0.16400
H 	H 	0.36843 0.50547 0.78367 0.09900
C 	C 	0.34499 0.46999 0.74730 0.23600
H 	H 	0.34003 0.45517 0.76117 -0.04300
H 	H 	0.37343 0.48837 0.74607 -0.04500
C 	C 	0.33059 0.44118 0.72746 -0.39700
C 	C 	0.29489 0.40583 0.72875 0.54000
C 	C 	0.28524 0.37722 0.71144 -0.41200
C 	C 	0.31189 0.38450 0.69462 0.47700
C 	C 	0.34714 0.42136 0.69263 -0.38900
C 	C 	0.35590 0.45115 0.70826 0.45200
C 	C 	0.39211 0.49224 0.70608 -0.94000
H 	H 	0.38663 0.51157 0.71277 0.30500
H 	H 	0.39833 0.49847 0.69057 0.29900
H 	H 	0.41433 0.49277 0.71357 0.28100
C 	C 	0.26775 0.39604 0.74761 -1.13200
H 	H 	0.27063 0.37797 0.75747 0.36200
H 	H 	0.24073 0.38367 0.74227 0.36900
H 	H 	0.27403 0.42007 0.75557 0.37000
C 	C 	0.30257 0.35097 0.67778 -0.99600
H 	H 	0.29573 0.32677 0.68567 0.34300
H 	H 	0.32563 0.35837 0.66857 0.34000
H 	H 	0.28053 0.34687 0.66857 0.33500
C 	C 	0.24709 0.33834 0.71281 0.24500
H 	H 	0.22833 0.34037 0.72267 -0.05400
H 	H 	0.23493 0.32987 0.69817 -0.04500
C 	C 	0.23203 0.27148 0.71943 0.23500
C 	C 	0.24653 0.24549 0.72301 -0.21000
H 	H 	0.27363 0.25557 0.72577 0.10400
C 	C 	0.22062 0.20444 0.72243 0.07000
H 	H 	0.23033 0.18707 0.72487 -0.00200
C 	C 	0.18020 0.18938 0.71828 -0.09500
H 	H 	0.16283 0.16187 0.71787 0.06800
C 	C 	0.16568 0.21536 0.71471 -0.01800
C 	C 	0.19159 0.25641 0.71529 -0.17700
H 	H 	0.18183 0.27377 0.71287 0.09900
C 	C 	0.12364 0.19937 0.71060 0.32100
C 	C 	0.37674 0.42515 0.67538 0.25300
H 	H 	0.40133 0.45017 0.67757 -0.04800
H 	H 	0.38253 0.40367 0.67737 -0.04800
C 	C 	0.37812 0.40948 0.63742 0.22100
C 	C 	0.35720 0.39870 0.61736 -0.20100
H 	H 	0.33483 0.40147 0.61557 0.10200
C 	C 	0.36976 0.38380 0.59996 0.06000
H 	H 	0.35573 0.37657 0.58657 0.00100
C 	C 	0.40327 0.37970 0.60261 -0.09900
H 	H 	0.41173 0.36977 0.59097 0.05700
C 	C 	0.42419 0.39048 0.62267 -0.01400
C 	C 	0.41163 0.40538 0.64007 -0.16900
H 	H 	0.42563 0.41257 0.65347 0.09200
C 	C 	0.46027 0.38676 0.62537 0.30900
Mn	Mn	0.51185 0.50216 0.80569 1.26300
Mn	Mn	0.44863 0.52669 0.83818 1.28800
Mn	Mn	0.37906 0.52672 0.87418 1.22200
O 	O 	0.45873 0.45526 0.78617 -0.44000
O 	O 	0.44196 0.48512 0.81020 -0.52500
O 	O 	0.29108 0.39165 0.81630 -0.31100
O 	O 	0.19151 0.32179 0.89841 -0.31200
O 	O 	0.17903 0.35364 0.97813 -0.45600
O 	O 	0.15603 0.29641 0.99630 -0.47100
O 	O 	0.14253 0.41156 0.83008 -0.28600
O 	O 	0.08463 0.50131 0.82567 -0.44400
O 	O 	0.02574 0.46283 0.81017 -0.50500
O 	O 	0.40411 0.53557 0.81917 -0.46300
O 	O 	0.36311 0.54112 0.84176 -0.49600
O 	O 	0.32417 0.49128 0.74732 -0.29700
O 	O 	0.25889 0.31022 0.72177 -0.29100
O 	O 	0.11240 0.22346 0.70427 -0.53000
O 	O 	0.09796 0.16392 0.71411 -0.38500
O 	O 	0.36325 0.42388 0.65337 -0.29200
O 	O 	0.47621 0.39239 0.64404 -0.48600
O 	O 	0.47404 0.37804 0.60834 -0.44700
O 	O 	0.56023 0.49677 0.79537 -0.25200
O 	O 	0.56863 0.50207 0.79827 -0.23900
H 	H 	0.56313 0.47547 0.79577 -0.50100
H 	H 	0.58193 0.51807 0.78547 0.54200
H 	H 	0.59053 0.52877 0.79917 -0.19100
H 	H 	0.57163 0.48607 0.80947 0.40100
H 	H 	0.55213 0.46947 0.79257 0.59500
H 	H 	0.57003 0.51167 0.78177 -0.43800
H 	H 	0.58313 0.52287 0.79457 0.12700
H 	H 	0.56533 0.48067 0.80537 -0.17200
C 	C 	0.69284 0.90154 0.13004 0.35800
C 	C 	0.70438 0.94321 0.12661 -0.01100
C 	C 	0.68207 0.95309 0.11224 -0.11600
H 	H 	0.66250 0.93330 0.10330 0.08100
C 	C 	0.68833 0.99080 0.11109 0.10100
H 	H 	0.67320 0.99690 0.10150 -0.00100
C 	C 	0.71644 0.01914 0.12384 -0.25000
H 	H 	0.72050 0.04490 0.12320 0.10500
C 	C 	0.74012 0.01084 0.13834 0.25700
C 	C 	0.73384 0.97270 0.13968 -0.19300
H 	H 	0.74920 0.96680 0.14920 0.10500
C 	C 	0.79346 0.03805 0.16514 0.24900
H 	H 	0.81020 0.02990 0.15730 -0.05300
H 	H 	0.77800 0.01800 0.17630 -0.05700
C 	C 	0.81894 0.07852 0.17611 -0.42000
C 	C 	0.84812 0.10981 0.16369 0.47900
C 	C 	0.86716 0.14741 0.17291 -0.40200
C 	C 	0.86053 0.15343 0.19507 0.50600
C 	C 	0.83209 0.12139 0.20729 -0.40500
C 	C 	0.80902 0.08303 0.19714 0.47500
C 	C 	0.77555 0.04991 0.21042 -0.99900
H 	H 	0.75340 0.03400 0.20070 0.33200
H 	H 	0.76720 0.06130 0.22200 0.33600
H 	H 	0.78480 0.03330 0.21700 0.31000
C 	C 	0.86007 0.10368 0.14030 -0.98900
H 	H 	0.86360 0.08080 0.14030 0.32600
H 	H 	0.88460 0.12690 0.13600 0.33200
H 	H 	0.83950 0.09950 0.12990 0.31300
C 	C 	0.88316 0.19414 0.20521 -1.05300
H 	H 	0.90730 0.21000 0.19690 0.35400
H 	H 	0.88970 0.19200 0.22040 0.34200
H 	H 	0.86700 0.20660 0.20480 0.33800
C 	C 	0.89567 0.18308 0.15935 0.22500
H 	H 	0.88930 0.17790 0.14360 -0.03500
H 	H 	0.89350 0.20610 0.16360 -0.03600
C 	C 	0.96499 0.22375 0.15286 0.22500
C 	C 	0.95797 0.24909 0.13956 -0.21800
H 	H 	0.93200 0.24370 0.13710 0.11000
C 	C 	0.98983 0.28257 0.12989 0.06200
H 	H 	0.98510 0.29950 0.12100 -0.00300
C 	C 	0.02872 0.29072 0.13353 -0.09900
H 	H 	0.05000 0.31310 0.12710 0.06000
C 	C 	0.03574 0.26537 0.14683 -0.03300
C 	C 	0.00388 0.23189 0.15650 -0.15800
H 	H 	0.00860 0.21500 0.16540 0.10800
C 	C 	0.07690 0.27406 0.15066 0.37700
C 	C 	0.82373 0.12785 0.23127 0.27100
H 	H 	0.81270 0.10290 0.23940 -0.05600
H 	H 	0.84850 0.14710 0.23850 -0.06500
C 	C 	0.79036 0.15491 0.25140 0.25000
C 	C 	0.76393 0.16935 0.25054 -0.23400
H 	H 	0.75210 0.16940 0.23700 0.11100
C 	C 	0.75511 0.18354 0.26946 0.08100
H 	H 	0.73800 0.19390 0.26870 -0.00500
C 	C 	0.77202 0.18236 0.28994 -0.10700
H 	H 	0.76530 0.19090 0.30290 0.07200
C 	C 	0.79867 0.16856 0.29078 -0.00000
C 	C 	0.80669 0.15397 0.27136 -0.20000
H 	H 	0.82360 0.14340 0.27210 0.11000
C 	C 	0.81695 0.16673 0.31245 0.35800
C 	C 	0.82915 0.95909 0.15658 0.41200
C 	C 	0.85159 0.98526 0.13739 -0.03700
C 	C 	0.89217 0.01279 0.13900 -0.08300
H 	H 	0.90610 0.01410 0.15200 0.05900
C 	C 	0.91196 0.03831 0.12125 0.04600
H 	H 	0.93910 0.05670 0.12230 0.00800
C 	C 	0.89117 0.03631 0.10188 -0.20500
H 	H 	0.90440 0.05340 0.09000 0.10600
C 	C 	0.85059 0.00878 0.10027 0.22100
C 	C 	0.83080 0.98326 0.11803 -0.16400
H 	H 	0.80370 0.96490 0.11700 0.09900
C 	C 	0.79166 0.98834 0.08063 0.23600
H 	H 	0.78180 0.99330 0.09450 -0.04300
H 	H 	0.78160 0.95990 0.07940 -0.04500
C 	C 	0.77725 0.00274 0.06079 -0.39700
C 	C 	0.77760 0.03844 0.06208 0.54000
C 	C 	0.75864 0.04809 0.04477 -0.41200
C 	C 	0.73927 0.02144 0.02795 0.47700
C 	C 	0.74088 0.98619 0.02596 -0.38900
C 	C 	0.76191 0.97743 0.04159 0.45200
C 	C 	0.76679 0.94122 0.03941 -0.94000
H 	H 	0.79160 0.94670 0.04610 0.30500
H 	H 	0.76680 0.93500 0.02390 0.29900
H 	H 	0.74510 0.91900 0.04690 0.28100
C 	C 	0.79495 0.06558 0.08094 -1.13200
H 	H 	0.77400 0.06270 0.09080 0.36200
H 	H 	0.80960 0.09260 0.07560 0.36900
H 	H 	0.81270 0.05930 0.08890 0.37000
C 	C 	0.71506 0.03076 0.01111 -0.99600
H 	H 	0.69770 0.03760 0.01900 0.34300
H 	H 	0.69940 0.00770 0.00190 0.34000
H 	H 	0.73300 0.05280 0.00190 0.33500
C 	C 	0.75791 0.08624 0.04614 0.24500
H 	H 	0.77870 0.10500 0.05600 -0.05400
H 	H 	0.76160 0.09840 0.03150 -0.04500
C 	C 	0.70611 0.10130 0.05276 0.23500
C 	C 	0.66562 0.08680 0.05634 -0.21000
H 	H 	0.64860 0.05970 0.05910 0.10400
C 	C 	0.65048 0.11271 0.05576 0.07000
H 	H 	0.62340 0.10300 0.05820 -0.00200
C 	C 	0.67584 0.15313 0.05161 -0.09500
H 	H 	0.66570 0.17050 0.05120 0.06800
C 	C 	0.71634 0.16765 0.04804 -0.01800
C 	C 	0.73148 0.14174 0.04862 -0.17700
H 	H 	0.75860 0.15150 0.04620 0.09900
C 	C 	0.74239 0.20969 0.04393 0.32100
C 	C 	0.71507 0.95659 0.00871 0.25300
H 	H 	0.71550 0.93200 0.01090 -0.04800
H 	H 	0.68780 0.95080 0.01070 -0.04800
C 	C 	0.69802 0.95521 0.97075 0.22100
C 	C 	0.70816 0.97613 0.95069 -0.20100
H 	H 	0.73330 0.99850 0.94890 0.10200
C 	C 	0.68070 0.96357 0.93329 0.06000
H 	H 	0.68750 0.97760 0.91990 0.00100
C 	C 	0.64309 0.93006 0.93594 -0.09900
H 	H 	0.62470 0.92160 0.92430 0.05700
C 	C 	0.63295 0.90914 0.95600 -0.01400
C 	C 	0.66041 0.92170 0.97340 -0.16900
H 	H 	0.65360 0.90770 0.98680 0.09200
C 	C 	0.59315 0.87306 0.95870 0.30900
Mn	Mn	0.65698 0.82149 0.13902 1.26300
Mn	Mn	0.74473 0.88471 0.17152 1.28800
Mn	Mn	0.81433 0.95427 0.20752 1.22200
O 	O 	0.66319 0.87460 0.11950 -0.44000
O 	O 	0.70982 0.89137 0.14353 -0.52500
O 	O 	0.76723 0.04225 0.14963 -0.31100
O 	O 	0.79694 0.14182 0.23174 -0.31200
O 	O 	0.84127 0.15430 0.31146 -0.45600
O 	O 	0.80704 0.17730 0.32963 -0.47100
O 	O 	0.93569 0.19080 0.16341 -0.28600
O 	O 	0.08334 0.24870 0.15900 -0.44400
O 	O 	0.10375 0.30759 0.14350 -0.50500
O 	O 	0.79812 0.92922 0.15250 -0.46300
O 	O 	0.84467 0.97022 0.17509 -0.49600
O 	O 	0.83377 0.00916 0.08065 -0.29700
O 	O 	0.71799 0.07444 0.05510 -0.29100
O 	O 	0.77772 0.22093 0.03760 -0.53000
O 	O 	0.73262 0.23537 0.04744 -0.38500
O 	O 	0.72729 0.97008 0.98670 -0.29200
O 	O 	0.58284 0.85712 0.97737 -0.48600
O 	O 	0.57066 0.85929 0.94167 -0.44700
O 	O 	0.60320 0.77310 0.12870 -0.25200
O 	O 	0.60010 0.76470 0.13160 -0.23900
H 	H 	0.57900 0.77020 0.12910 -0.50100
H 	H 	0.60280 0.75140 0.11880 0.54200
H 	H 	0.60490 0.74280 0.13250 -0.19100
H 	H 	0.58110 0.76170 0.14280 0.40100
H 	H 	0.58400 0.78120 0.12590 0.59400
H 	H 	0.60830 0.76330 0.11510 -0.43800
H 	H 	0.60640 0.75020 0.12790 0.12700
H 	H 	0.58200 0.76800 0.13870 -0.17200
C 	C 	0.35951 0.23487 0.46337 0.35800
C 	C 	0.37105 0.27654 0.45994 -0.01100
C 	C 	0.34874 0.28642 0.44557 -0.11600
H 	H 	0.32917 0.26663 0.43663 0.08100
C 	C 	0.35500 0.32413 0.44442 0.10100
H 	H 	0.33987 0.33023 0.43483 -0.00100
C 	C 	0.38311 0.35247 0.45717 -0.25000
H 	H 	0.38717 0.37823 0.45653 0.10500
C 	C 	0.40679 0.34417 0.47167 0.25700
C 	C 	0.40051 0.30603 0.47301 -0.19300
H 	H 	0.41587 0.30013 0.48253 0.10500
C 	C 	0.46013 0.37138 0.49847 0.24900
H 	H 	0.47687 0.36323 0.49063 -0.05300
H 	H 	0.44467 0.35133 0.50963 -0.05700
C 	C 	0.48561 0.41185 0.50944 -0.42000
C 	C 	0.51479 0.44314 0.49702 0.47900
C 	C 	0.53383 0.48074 0.50624 -0.40200
C 	C 	0.52720 0.48676 0.52840 0.50600
C 	C 	0.49876 0.45472 0.54062 -0.40500
C 	C 	0.47569 0.41636 0.53047 0.47500
C 	C 	0.44222 0.38324 0.54375 -0.99900
H 	H 	0.42007 0.36733 0.53403 0.33200
H 	H 	0.43387 0.39463 0.55533 0.33600
H 	H 	0.45147 0.36663 0.55033 0.31000
C 	C 	0.52674 0.43701 0.47363 -0.98900
H 	H 	0.53027 0.41413 0.47363 0.32600
H 	H 	0.55127 0.46023 0.46933 0.33200
H 	H 	0.50617 0.43283 0.46323 0.31300
C 	C 	0.54983 0.52747 0.53854 -1.05300
H 	H 	0.57397 0.54333 0.53023 0.35400
H 	H 	0.55637 0.52533 0.55373 0.34200
H 	H 	0.53367 0.53993 0.53813 0.33800
C 	C 	0.56234 0.51641 0.49268 0.22500
H 	H 	0.55597 0.51123 0.47693 -0.03500
H 	H 	0.56017 0.53943 0.49693 -0.03600
C 	C 	0.63166 0.55708 0.48619 0.22500
C 	C 	0.62464 0.58242 0.47289 -0.21800
H 	H 	0.59867 0.57703 0.47043 0.11000
C 	C 	0.65650 0.61590 0.46322 0.06200
H 	H 	0.65177 0.63283 0.45433 -0.00300
C 	C 	0.69539 0.62405 0.46686 -0.09900
H 	H 	0.71667 0.64643 0.46043 0.06000
C 	C 	0.70241 0.59870 0.48016 -0.03300
C 	C 	0.67055 0.56522 0.48983 -0.15800
H 	H 	0.67527 0.54833 0.49873 0.10800
C 	C 	0.74357 0.60739 0.48399 0.37700
C 	C 	0.49040 0.46118 0.56460 0.27100
H 	H 	0.47937 0.43623 0.57273 -0.05600
H 	H 	0.51517 0.48043 0.57183 -0.06500
C 	C 	0.45703 0.48824 0.58473 0.25000
C 	C 	0.43060 0.50268 0.58387 -0.23400
H 	H 	0.41877 0.50273 0.57033 0.11100
C 	C 	0.42178 0.51687 0.60279 0.08100
H 	H 	0.40467 0.52723 0.60203 -0.00500
C 	C 	0.43869 0.51569 0.62327 -0.10700
H 	H 	0.43197 0.52423 0.63623 0.07200
C 	C 	0.46534 0.50189 0.62411 -0.00000
C 	C 	0.47336 0.48730 0.60469 -0.20000
H 	H 	0.49027 0.47673 0.60543 0.11000
C 	C 	0.48362 0.50006 0.64578 0.35800
C 	C 	0.49582 0.29242 0.48991 0.41200
C 	C 	0.51826 0.31859 0.47072 -0.03700
C 	C 	0.55884 0.34612 0.47233 -0.08300
H 	H 	0.57277 0.34743 0.48533 0.05900
C 	C 	0.57863 0.37164 0.45458 0.04600
H 	H 	0.60577 0.39003 0.45563 0.00800
C 	C 	0.55784 0.36964 0.43521 -0.20500
H 	H 	0.57107 0.38673 0.42333 0.10600
C 	C 	0.51726 0.34211 0.43360 0.22100
C 	C 	0.49747 0.31659 0.45136 -0.16400
H 	H 	0.47037 0.29823 0.45033 0.09900
C 	C 	0.45833 0.32167 0.41396 0.23600
H 	H 	0.44847 0.32663 0.42783 -0.04300
H 	H 	0.44827 0.29323 0.41273 -0.04500
C 	C 	0.44392 0.33607 0.39412 -0.39700
C 	C 	0.44427 0.37177 0.39541 0.54000
C 	C 	0.42531 0.38142 0.37810 -0.41200
C 	C 	0.40594 0.35477 0.36128 0.47700
C 	C 	0.40755 0.31952 0.35929 -0.38900
C 	C 	0.42858 0.31076 0.37492 0.45200
C 	C 	0.43346 0.27455 0.37274 -0.94000
H 	H 	0.45827 0.28003 0.37943 0.30500
H 	H 	0.43347 0.26833 0.35723 0.29900
H 	H 	0.41177 0.25233 0.38023 0.28100
C 	C 	0.46162 0.39891 0.41427 -1.13200
H 	H 	0.44067 0.39603 0.42413 0.36200
H 	H 	0.47627 0.42593 0.40893 0.36900
H 	H 	0.47937 0.39263 0.42223 0.37000
C 	C 	0.38173 0.36409 0.34444 -0.99600
H 	H 	0.36437 0.37093 0.35233 0.34300
H 	H 	0.36607 0.34103 0.33523 0.34000
H 	H 	0.39967 0.38613 0.33523 0.33500
C 	C 	0.42458 0.41957 0.37947 0.24500
H 	H 	0.44537 0.43833 0.38933 -0.05400
H 	H 	0.42827 0.43173 0.36483 -0.04500
C 	C 	0.37278 0.43463 0.38609 0.23500
C 	C 	0.33229 0.42013 0.38967 -0.21000
H 	H 	0.31527 0.39303 0.39243 0.10400
C 	C 	0.31715 0.44604 0.38909 0.07000
H 	H 	0.29007 0.43633 0.39153 -0.00200
C 	C 	0.34251 0.48646 0.38494 -0.09500
H 	H 	0.33237 0.50383 0.38453 0.06800
C 	C 	0.38301 0.50098 0.38137 -0.01700
C 	C 	0.39815 0.47507 0.38195 -0.17700
H 	H 	0.42527 0.48483 0.37953 0.09900
C 	C 	0.40906 0.54302 0.37726 0.32100
C 	C 	0.38174 0.28992 0.34204 0.25300
H 	H 	0.38217 0.26533 0.34423 -0.04800
H 	H 	0.35447 0.28413 0.34403 -0.04800
C 	C 	0.36469 0.28854 0.30408 0.22100
C 	C 	0.37483 0.30946 0.28402 -0.20100
H 	H 	0.39997 0.33183 0.28223 0.10200
C 	C 	0.34737 0.29690 0.26662 0.06000
H 	H 	0.35417 0.31093 0.25323 0.00100
C 	C 	0.30976 0.26339 0.26927 -0.09900
H 	H 	0.29137 0.25493 0.25763 0.05700
C 	C 	0.29962 0.24247 0.28933 -0.01400
C 	C 	0.32708 0.25503 0.30673 -0.16900
H 	H 	0.32027 0.24103 0.32013 0.09200
C 	C 	0.25982 0.20639 0.29203 0.30900
Mn	Mn	0.32365 0.15482 0.47235 1.26300
Mn	Mn	0.41139 0.21804 0.50485 1.28800
Mn	Mn	0.48100 0.28761 0.54085 1.22200
O 	O 	0.32986 0.20793 0.45283 -0.44000
O 	O 	0.37649 0.22470 0.47686 -0.52500
O 	O 	0.43390 0.37558 0.48296 -0.31100
O 	O 	0.46361 0.47515 0.56507 -0.31200
O 	O 	0.50794 0.48763 0.64479 -0.45600
O 	O 	0.47371 0.51063 0.66296 -0.47100
O 	O 	0.60236 0.52413 0.49674 -0.28600
O 	O 	0.75001 0.58203 0.49233 -0.44400
O 	O 	0.77042 0.64092 0.47683 -0.50500
O 	O 	0.46479 0.26255 0.48583 -0.46300
O 	O 	0.51134 0.30355 0.50842 -0.49600
O 	O 	0.50044 0.34249 0.41398 -0.29700
O 	O 	0.38466 0.40777 0.38843 -0.29100
O 	O 	0.44439 0.55426 0.37093 -0.53000
O 	O 	0.39929 0.56870 0.38077 -0.38500
O 	O 	0.39396 0.30341 0.32003 -0.29200
O 	O 	0.24951 0.19045 0.31070 -0.48600
O 	O 	0.23733 0.19262 0.27500 -0.44700
O 	O 	0.26987 0.10643 0.46203 -0.25200
O 	O 	0.26677 0.09803 0.46493 -0.23900
H 	H 	0.24567 0.10353 0.46243 -0.50100
H 	H 	0.26947 0.08473 0.45213 0.54200
H 	H 	0.27157 0.07613 0.46583 -0.19100
H 	H 	0.24777 0.09503 0.47613 0.40100
H 	H 	0.25067 0.11453 0.45923 0.59400
H 	H 	0.27497 0.09663 0.44843 -0.43800
H 	H 	0.27307 0.08353 0.46123 0.12700
H 	H 	0.24867 0.10133 0.47203 -0.17200
C 	C 	0.02617 0.56821 0.79671 0.35800
C 	C 	0.03771 0.60988 0.79328 -0.01100
C 	C 	0.01540 0.61976 0.77891 -0.11600
H 	H 	0.99583 0.59997 0.76997 0.08100
C 	C 	0.02166 0.65747 0.77776 0.10100
H 	H 	0.00653 0.66357 0.76817 -0.00100
C 	C 	0.04977 0.68581 0.79051 -0.25000
H 	H 	0.05383 0.71157 0.78987 0.10500
C 	C 	0.07345 0.67751 0.80501 0.25700
C 	C 	0.06717 0.63937 0.80635 -0.19300
H 	H 	0.08253 0.63347 0.81587 0.10500
C 	C 	0.12679 0.70472 0.83181 0.24900
H 	H 	0.14353 0.69657 0.82397 -0.05300
H 	H 	0.11133 0.68467 0.84297 -0.05700
C 	C 	0.15227 0.74519 0.84278 -0.42000
C 	C 	0.18145 0.77648 0.83036 0.47900
C 	C 	0.20049 0.81408 0.83958 -0.40200
C 	C 	0.19386 0.82010 0.86174 0.50600
C 	C 	0.16542 0.78806 0.87396 -0.40500
C 	C 	0.14235 0.74970 0.86381 0.47500
C 	C 	0.10888 0.71658 0.87709 -0.99900
H 	H 	0.08673 0.70067 0.86737 0.33200
H 	H 	0.10053 0.72797 0.88867 0.33600
H 	H 	0.11813 0.69997 0.88367 0.31000
C 	C 	0.19340 0.77035 0.80697 -0.98900
H 	H 	0.19693 0.74747 0.80697 0.32600
H 	H 	0.21793 0.79357 0.80267 0.33200
H 	H 	0.17283 0.76617 0.79657 0.31300
C 	C 	0.21649 0.86081 0.87188 -1.05300
H 	H 	0.24063 0.87667 0.86357 0.35400
H 	H 	0.22303 0.85867 0.88707 0.34200
H 	H 	0.20033 0.87327 0.87147 0.33800
C 	C 	0.22900 0.84975 0.82602 0.22500
H 	H 	0.22263 0.84457 0.81027 -0.03500
H 	H 	0.22683 0.87277 0.83027 -0.03600
C 	C 	0.29832 0.89042 0.81953 0.22500
C 	C 	0.29130 0.91576 0.80623 -0.21800
H 	H 	0.26533 0.91037 0.80377 0.11000
C 	C 	0.32316 0.94924 0.79656 0.06200
H 	H 	0.31843 0.96617 0.78767 -0.00300
C 	C 	0.36205 0.95739 0.80020 -0.09900
H 	H 	0.38333 0.97977 0.79377 0.06000
C 	C 	0.36907 0.93204 0.81350 -0.03300
C 	C 	0.33721 0.89856 0.82317 -0.15800
H 	H 	0.34193 0.88167 0.83207 0.10800
C 	C 	0.41023 0.94073 0.81733 0.37700
C 	C 	0.15706 0.79452 0.89794 0.27100
H 	H 	0.14603 0.76957 0.90607 -0.05600
H 	H 	0.18183 0.81377 0.90517 -0.06500
C 	C 	0.12369 0.82158 0.91807 0.25000
C 	C 	0.09726 0.83602 0.91721 -0.23400
H 	H 	0.08543 0.83607 0.90367 0.11100
C 	C 	0.08844 0.85021 0.93613 0.08100
H 	H 	0.07133 0.86057 0.93537 -0.00500
C 	C 	0.10535 0.84903 0.95661 -0.10700
H 	H 	0.09863 0.85757 0.96957 0.07200
C 	C 	0.13200 0.83523 0.95745 -0.00000
C 	C 	0.14002 0.82064 0.93803 -0.20000
H 	H 	0.15693 0.81007 0.93877 0.11000
C 	C 	0.15028 0.83340 0.97912 0.35800
C 	C 	0.16248 0.62576 0.82325 0.41200
C 	C 	0.18492 0.65193 0.80406 -0.03700
C 	C 	0.22550 0.67946 0.80567 -0.08300
H 	H 	0.23943 0.68077 0.81867 0.05900
C 	C 	0.24529 0.70498 0.78792 0.04600
H 	H 	0.27243 0.72337 0.78897 0.00800
C 	C 	0.22450 0.70298 0.76855 -0.20500
H 	H 	0.23773 0.72007 0.75667 0.10600
C 	C 	0.18392 0.67545 0.76694 0.22100
C 	C 	0.16413 0.64993 0.78470 -0.16400
H 	H 	0.13703 0.63157 0.78367 0.09900
C 	C 	0.12499 0.65501 0.74730 0.23600
H 	H 	0.11513 0.65997 0.76117 -0.04300
H 	H 	0.11493 0.62657 0.74607 -0.04500
C 	C 	0.11058 0.66941 0.72746 -0.39700
C 	C 	0.11093 0.70511 0.72875 0.54000
C 	C 	0.09197 0.71476 0.71144 -0.41200
C 	C 	0.07260 0.68811 0.69462 0.47700
C 	C 	0.07421 0.65286 0.69263 -0.38900
C 	C 	0.09524 0.64410 0.70826 0.45200
C 	C 	0.10012 0.60789 0.70608 -0.94000
H 	H 	0.12493 0.61337 0.71277 0.30500
H 	H 	0.10013 0.60167 0.69057 0.29900
H 	H 	0.07843 0.58567 0.71357 0.28100
C 	C 	0.12828 0.73225 0.74761 -1.13200
H 	H 	0.10733 0.72937 0.75747 0.36200
H 	H 	0.14293 0.75927 0.74227 0.36900
H 	H 	0.14603 0.72597 0.75557 0.37000
C 	C 	0.04839 0.69743 0.67778 -0.99600
H 	H 	0.03103 0.70427 0.68567 0.34300
H 	H 	0.03273 0.67437 0.66857 0.34000
H 	H 	0.06633 0.71947 0.66857 0.33500
C 	C 	0.09124 0.75291 0.71281 0.24500
H 	H 	0.11203 0.77167 0.72267 -0.05400
H 	H 	0.09493 0.76507 0.69817 -0.04500
C 	C 	0.03944 0.76797 0.71943 0.23500
C 	C 	0.99895 0.75347 0.72301 -0.21000
H 	H 	0.98193 0.72637 0.72577 0.10400
C 	C 	0.98381 0.77938 0.72243 0.07000
H 	H 	0.95673 0.76967 0.72487 -0.00200
C 	C 	0.00917 0.81980 0.71828 -0.09500
H 	H 	0.99903 0.83717 0.71787 0.06800
C 	C 	0.04967 0.83432 0.71471 -0.01800
C 	C 	0.06481 0.80841 0.71529 -0.17700
H 	H 	0.09193 0.81817 0.71287 0.09900
C 	C 	0.07572 0.87636 0.71060 0.32100
C 	C 	0.04840 0.62326 0.67538 0.25300
H 	H 	0.04883 0.59867 0.67757 -0.04800
H 	H 	0.02113 0.61747 0.67737 -0.04800
C 	C 	0.03135 0.62188 0.63742 0.22100
C 	C 	0.04149 0.64280 0.61736 -0.20100
H 	H 	0.06663 0.66517 0.61557 0.10200
C 	C 	0.01403 0.63024 0.59996 0.06000
H 	H 	0.02083 0.64427 0.58657 0.00100
C 	C 	0.97642 0.59673 0.60261 -0.09900
H 	H 	0.95803 0.58827 0.59097 0.05700
C 	C 	0.96628 0.57581 0.62267 -0.01400
C 	C 	0.99374 0.58837 0.64007 -0.16900
H 	H 	0.98693 0.57437 0.65347 0.09200
C 	C 	0.92648 0.53973 0.62537 0.30900
Mn	Mn	0.99032 0.48815 0.80569 1.26300
Mn	Mn	0.07806 0.55137 0.83818 1.28800
Mn	Mn	0.14766 0.62094 0.87418 1.22200
O 	O 	0.99652 0.54127 0.78617 -0.44000
O 	O 	0.04315 0.55804 0.81020 -0.52500
O 	O 	0.10056 0.70892 0.81630 -0.31100
O 	O 	0.13027 0.80849 0.89841 -0.31200
O 	O 	0.17460 0.82097 0.97813 -0.45600
O 	O 	0.14037 0.84397 0.99630 -0.47100
O 	O 	0.26902 0.85747 0.83008 -0.28600
O 	O 	0.41667 0.91537 0.82567 -0.44400
O 	O 	0.43708 0.97426 0.81017 -0.50500
O 	O 	0.13145 0.59589 0.81917 -0.46300
O 	O 	0.17800 0.63689 0.84176 -0.49600
O 	O 	0.16710 0.67583 0.74732 -0.29700
O 	O 	0.05132 0.74111 0.72177 -0.29100
O 	O 	0.11105 0.88760 0.70427 -0.53000
O 	O 	0.06595 0.90204 0.71411 -0.38500
O 	O 	0.06062 0.63675 0.65337 -0.29200
O 	O 	0.91617 0.52379 0.64404 -0.48600
O 	O 	0.90399 0.52596 0.60834 -0.44700
O 	O 	0.93653 0.43977 0.79537 -0.25200
O 	O 	0.93343 0.43137 0.79827 -0.23900
H 	H 	0.91233 0.43687 0.79577 -0.50100
H 	H 	0.93613 0.41807 0.78547 0.54200
H 	H 	0.93823 0.40947 0.79917 -0.19100
H 	H 	0.91443 0.42837 0.80947 0.40100
H 	H 	0.91733 0.44787 0.79257 0.59400
H 	H 	0.94163 0.42997 0.78177 -0.43800
H 	H 	0.93973 0.41687 0.79457 0.12700
H 	H 	0.91533 0.43467 0.80537 -0.17200
C 	C 	0.69284 0.79130 0.63004 0.35800
C 	C 	0.70438 0.76117 0.62661 -0.01100
C 	C 	0.68207 0.72898 0.61224 -0.11600
H 	H 	0.66250 0.72920 0.60330 0.08100
C 	C 	0.68833 0.69753 0.61109 0.10100
H 	H 	0.67320 0.67630 0.60150 -0.00100
C 	C 	0.71644 0.69730 0.62384 -0.25000
H 	H 	0.72050 0.67560 0.62320 0.10500
C 	C 	0.74012 0.72928 0.63834 0.25700
C 	C 	0.73384 0.76114 0.63968 -0.19300
H 	H 	0.74920 0.78240 0.64920 0.10500
C 	C 	0.79346 0.75541 0.66514 0.24900
H 	H 	0.81020 0.78030 0.65730 -0.05300
H 	H 	0.77800 0.76000 0.67630 -0.05700
C 	C 	0.81894 0.74042 0.67611 -0.42000
C 	C 	0.84812 0.73831 0.66369 0.47900
C 	C 	0.86716 0.71975 0.67291 -0.40200
C 	C 	0.86053 0.70710 0.69507 0.50600
C 	C 	0.83209 0.71070 0.70729 -0.40500
C 	C 	0.80902 0.72599 0.69714 0.47500
C 	C 	0.77555 0.72564 0.71042 -0.99900
H 	H 	0.75340 0.71940 0.70070 0.33200
H 	H 	0.76720 0.70590 0.72200 0.33600
H 	H 	0.78480 0.75150 0.71700 0.31000
C 	C 	0.86007 0.75639 0.64030 -0.98900
H 	H 	0.86360 0.78280 0.64030 0.32600
H 	H 	0.88460 0.75770 0.63600 0.33200
H 	H 	0.83950 0.74000 0.62990 0.31300
C 	C 	0.88316 0.68902 0.70521 -1.05300
H 	H 	0.90730 0.69730 0.69690 0.35400
H 	H 	0.88970 0.69770 0.72040 0.34200
H 	H 	0.86700 0.66040 0.70480 0.33800
C 	C 	0.89567 0.71259 0.65935 0.22500
H 	H 	0.88930 0.71140 0.64360 -0.03500
H 	H 	0.89350 0.68740 0.66360 -0.03600
C 	C 	0.96499 0.74124 0.65286 0.22500
C 	C 	0.95797 0.70888 0.63956 -0.21800
H 	H 	0.93200 0.68830 0.63710 0.11000
C 	C 	0.98983 0.70726 0.62989 0.06200
H 	H 	0.98510 0.68560 0.62100 -0.00300
C 	C 	0.02872 0.73800 0.63353 -0.09900
H 	H 	0.05000 0.73690 0.62710 0.06000
C 	C 	0.03574 0.77037 0.64683 -0.03300
C 	C 	0.00388 0.77199 0.65650 -0.15800
H 	H 	0.00860 0.79360 0.66540 0.10800
C 	C 	0.07690 0.80284 0.65066 0.37700
C 	C 	0.82373 0.69588 0.73127 0.27100
H 	H 	0.81270 0.70980 0.73940 -0.05600
H 	H 	0.84850 0.70140 0.73850 -0.06500
C 	C 	0.79036 0.63545 0.75140 0.25000
C 	C 	0.76393 0.59458 0.75054 -0.23400
H 	H 	0.75210 0.58270 0.73700 0.11100
C 	C 	0.75511 0.57157 0.76946 0.08100
H 	H 	0.73800 0.54410 0.76870 -0.00500
C 	C 	0.77202 0.58966 0.78994 -0.10700
H 	H 	0.76530 0.57440 0.80290 0.07200
C 	C 	0.79867 0.63011 0.79078 -0.00000
C 	C 	0.80669 0.65272 0.77136 -0.20000
H 	H 	0.82360 0.68020 0.77210 0.11000
C 	C 	0.81695 0.65022 0.81245 0.35800
C 	C 	0.82915 0.87006 0.65658 0.41200
C 	C 	0.85159 0.86633 0.63739 -0.03700
C 	C 	0.89217 0.87938 0.63900 -0.08300
H 	H 	0.90610 0.89200 0.65200 0.05900
C 	C 	0.91196 0.87365 0.62125 0.04600
H 	H 	0.93910 0.88240 0.62230 0.00800
C 	C 	0.89117 0.85486 0.60188 -0.20500
H 	H 	0.90440 0.85100 0.59000 0.10600
C 	C 	0.85059 0.84181 0.60027 0.22100
C 	C 	0.83080 0.84754 0.61803 -0.16400
H 	H 	0.80370 0.83880 0.61700 0.09900
C 	C 	0.79166 0.80332 0.58063 0.23600
H 	H 	0.78180 0.78850 0.59450 -0.04300
H 	H 	0.78160 0.82170 0.57940 -0.04500
C 	C 	0.77725 0.77451 0.56079 -0.39700
C 	C 	0.77760 0.73916 0.56208 0.54000
C 	C 	0.75864 0.71055 0.54477 -0.41200
C 	C 	0.73927 0.71783 0.52795 0.47700
C 	C 	0.74088 0.75469 0.52596 -0.38900
C 	C 	0.76191 0.78448 0.54159 0.45200
C 	C 	0.76679 0.82557 0.53941 -0.94000
H 	H 	0.79160 0.84490 0.54610 0.30500
H 	H 	0.76680 0.83180 0.52390 0.29900
H 	H 	0.74510 0.82610 0.54690 0.28100
C 	C 	0.79495 0.72937 0.58094 -1.13200
H 	H 	0.77400 0.71130 0.59080 0.36200
H 	H 	0.80960 0.71700 0.57560 0.36900
H 	H 	0.81270 0.75340 0.58890 0.37000
C 	C 	0.71506 0.68430 0.51111 -0.99600
H 	H 	0.69770 0.66010 0.51900 0.34300
H 	H 	0.69940 0.69170 0.50190 0.34000
H 	H 	0.73300 0.68020 0.50190 0.33500
C 	C 	0.75791 0.67167 0.54614 0.24500
H 	H 	0.77870 0.67370 0.55600 -0.05400
H 	H 	0.76160 0.66320 0.53150 -0.04500
C 	C 	0.70611 0.60481 0.55276 0.23500
C 	C 	0.66562 0.57882 0.55634 -0.21000
H 	H 	0.64860 0.58890 0.55910 0.10400
C 	C 	0.65048 0.53777 0.55576 0.07000
H 	H 	0.62340 0.52040 0.55820 -0.00200
C 	C 	0.67584 0.52271 0.55161 -0.09500
H 	H 	0.66570 0.49520 0.55120 0.06800
C 	C 	0.71634 0.54869 0.54804 -0.01800
C 	C 	0.73148 0.58974 0.54862 -0.17700
H 	H 	0.75860 0.60710 0.54620 0.09900
C 	C 	0.74239 0.53270 0.54393 0.32100
C 	C 	0.71507 0.75848 0.50871 0.25300
H 	H 	0.71550 0.78350 0.51090 -0.04800
H 	H 	0.68780 0.73700 0.51070 -0.04800
C 	C 	0.69802 0.74281 0.47075 0.22100
C 	C 	0.70816 0.73203 0.45069 -0.20100
H 	H 	0.73330 0.73480 0.44890 0.10200
C 	C 	0.68070 0.71713 0.43329 0.06000
H 	H 	0.68750 0.70990 0.41990 0.00100
C 	C 	0.64309 0.71303 0.43594 -0.09900
H 	H 	0.62470 0.70310 0.42430 0.05700
C 	C 	0.63295 0.72381 0.45600 -0.01400
C 	C 	0.66041 0.73871 0.47340 -0.16900
H 	H 	0.65360 0.74590 0.48680 0.09200
C 	C 	0.59315 0.72009 0.45870 0.30900
Mn	Mn	0.65698 0.83550 0.63902 1.26300
Mn	Mn	0.74473 0.86002 0.67152 1.28800
Mn	Mn	0.81433 0.86006 0.70752 1.22200
O 	O 	0.66319 0.78859 0.61950 -0.44000
O 	O 	0.70982 0.81845 0.64353 -0.52500
O 	O 	0.76723 0.72498 0.64963 -0.31100
O 	O 	0.79694 0.65512 0.73174 -0.31200
O 	O 	0.84127 0.68697 0.81146 -0.45600
O 	O 	0.80704 0.62974 0.82963 -0.47100
O 	O 	0.93569 0.74489 0.66341 -0.28600
O 	O 	0.08334 0.83464 0.65900 -0.44400
O 	O 	0.10375 0.79616 0.64350 -0.50500
O 	O 	0.79812 0.86890 0.65250 -0.46300
O 	O 	0.84467 0.87445 0.67509 -0.49600
O 	O 	0.83377 0.82461 0.58065 -0.29700
O 	O 	0.71799 0.64355 0.55510 -0.29100
O 	O 	0.77772 0.55679 0.53760 -0.53000
O 	O 	0.73262 0.49725 0.54744 -0.38500
O 	O 	0.72729 0.75721 0.48670 -0.29200
O 	O 	0.58284 0.72572 0.47737 -0.48600
O 	O 	0.57066 0.71137 0.44167 -0.44700
O 	O 	0.60320 0.83010 0.62870 -0.25200
O 	O 	0.60010 0.83540 0.63160 -0.23900
H 	H 	0.57900 0.80880 0.62910 -0.50100
H 	H 	0.60280 0.85140 0.61880 0.54200
H 	H 	0.60490 0.86210 0.63250 -0.19100
H 	H 	0.58110 0.81940 0.64280 0.40100
H 	H 	0.58400 0.80280 0.62590 0.59400
H 	H 	0.60830 0.84500 0.61510 -0.43800
H 	H 	0.60640 0.85620 0.62790 0.12700
H 	H 	0.58200 0.81400 0.63870 -0.17200
C 	C 	0.35951 0.12463 0.96337 0.35800
C 	C 	0.37105 0.09450 0.95994 -0.01100
C 	C 	0.34874 0.06231 0.94557 -0.11600
H 	H 	0.32917 0.06253 0.93663 0.08100
C 	C 	0.35500 0.03086 0.94442 0.10100
H 	H 	0.33987 0.00963 0.93483 -0.00100
C 	C 	0.38311 0.03063 0.95717 -0.25000
H 	H 	0.38717 0.00893 0.95653 0.10500
C 	C 	0.40679 0.06261 0.97167 0.25700
C 	C 	0.40051 0.09447 0.97301 -0.19300
H 	H 	0.41587 0.11573 0.98253 0.10500
C 	C 	0.46013 0.08874 0.99847 0.24900
H 	H 	0.47687 0.11363 0.99063 -0.05300
H 	H 	0.44467 0.09333 0.00963 -0.05700
C 	C 	0.48561 0.07375 0.00944 -0.42000
C 	C 	0.51479 0.07164 0.99702 0.47900
C 	C 	0.53383 0.05308 0.00624 -0.40200
C 	C 	0.52720 0.04043 0.02840 0.50600
C 	C 	0.49876 0.04403 0.04062 -0.40500
C 	C 	0.47569 0.05932 0.03047 0.47500
C 	C 	0.44222 0.05897 0.04375 -0.99900
H 	H 	0.42007 0.05273 0.03403 0.33200
H 	H 	0.43387 0.03923 0.05533 0.33600
H 	H 	0.45147 0.08483 0.05033 0.31000
C 	C 	0.52674 0.08972 0.97363 -0.98900
H 	H 	0.53027 0.11613 0.97363 0.32600
H 	H 	0.55127 0.09103 0.96933 0.33200
H 	H 	0.50617 0.07333 0.96323 0.31300
C 	C 	0.54983 0.02235 0.03854 -1.05300
H 	H 	0.57397 0.03063 0.03023 0.35400
H 	H 	0.55637 0.03103 0.05373 0.34200
H 	H 	0.53367 0.99373 0.03813 0.33800
C 	C 	0.56234 0.04592 0.99268 0.22500
H 	H 	0.55597 0.04473 0.97693 -0.03500
H 	H 	0.56017 0.02073 0.99693 -0.03600
C 	C 	0.63166 0.07457 0.98619 0.22500
C 	C 	0.62464 0.04221 0.97289 -0.21800
H 	H 	0.59867 0.02163 0.97043 0.11000
C 	C 	0.65650 0.04059 0.96322 0.06200
H 	H 	0.65177 0.01893 0.95433 -0.00300
C 	C 	0.69539 0.07133 0.96686 -0.09900
H 	H 	0.71667 0.07023 0.96043 0.06000
C 	C 	0.70241 0.10370 0.98016 -0.03300
C 	C 	0.67055 0.10532 0.98983 -0.15800
H 	H 	0.67527 0.12693 0.99873 0.10800
C 	C 	0.74357 0.13617 0.98399 0.37700
C 	C 	0.49040 0.02921 0.06460 0.27100
H 	H 	0.47937 0.04313 0.07273 -0.05600
H 	H 	0.51517 0.03473 0.07183 -0.06500
C 	C 	0.45703 0.96878 0.08473 0.25000
C 	C 	0.43060 0.92791 0.08387 -0.23400
H 	H 	0.41877 0.91603 0.07033 0.11100
C 	C 	0.42178 0.90490 0.10279 0.08100
H 	H 	0.40467 0.87743 0.10203 -0.00500
C 	C 	0.43869 0.92299 0.12327 -0.10700
H 	H 	0.43197 0.90773 0.13623 0.07200
C 	C 	0.46534 0.96344 0.12411 -0.00000
C 	C 	0.47336 0.98605 0.10469 -0.20100
H 	H 	0.49027 0.01353 0.10543 0.11000
C 	C 	0.48362 0.98355 0.14578 0.35800
C 	C 	0.49582 0.20339 0.98991 0.41200
C 	C 	0.51826 0.19966 0.97072 -0.03700
C 	C 	0.55884 0.21271 0.97233 -0.08300
H 	H 	0.57277 0.22533 0.98533 0.05900
C 	C 	0.57863 0.20698 0.95458 0.04600
H 	H 	0.60577 0.21573 0.95563 0.00800
C 	C 	0.55784 0.18819 0.93521 -0.20500
H 	H 	0.57107 0.18433 0.92333 0.10600
C 	C 	0.51726 0.17514 0.93360 0.22100
C 	C 	0.49747 0.18087 0.95136 -0.16400
H 	H 	0.47037 0.17213 0.95033 0.09900
C 	C 	0.45833 0.13665 0.91396 0.23600
H 	H 	0.44847 0.12183 0.92783 -0.04300
H 	H 	0.44827 0.15503 0.91273 -0.04500
C 	C 	0.44392 0.10784 0.89412 -0.39700
C 	C 	0.44427 0.07249 0.89541 0.54000
C 	C 	0.42531 0.04388 0.87810 -0.41200
C 	C 	0.40594 0.05116 0.86128 0.47700
C 	C 	0.40755 0.08802 0.85929 -0.38900
C 	C 	0.42858 0.11781 0.87492 0.45200
C 	C 	0.43346 0.15890 0.87274 -0.94000
H 	H 	0.45827 0.17823 0.87943 0.30500
H 	H 	0.43347 0.16513 0.85723 0.29900
H 	H 	0.41177 0.15943 0.88023 0.28100
C 	C 	0.46162 0.06270 0.91427 -1.13200
H 	H 	0.44067 0.04463 0.92413 0.36200
H 	H 	0.47627 0.05033 0.90893 0.36900
H 	H 	0.47937 0.08673 0.92223 0.37000
C 	C 	0.38173 0.01763 0.84444 -0.99600
H 	H 	0.36437 0.99343 0.85233 0.34300
H 	H 	0.36607 0.02503 0.83523 0.34000
H 	H 	0.39967 0.01353 0.83523 0.33500
C 	C 	0.42458 0.00500 0.87947 0.24500
H 	H 	0.44537 0.00703 0.88933 -0.05400
H 	H 	0.42827 0.99653 0.86483 -0.04500
C 	C 	0.37278 0.93814 0.88609 0.23500
C 	C 	0.33229 0.91215 0.88967 -0.21000
H 	H 	0.31527 0.92223 0.89243 0.10400
C 	C 	0.31715 0.87110 0.88909 0.07000
H 	H 	0.29007 0.85373 0.89153 -0.00200
C 	C 	0.34251 0.85604 0.88494 -0.09500
H 	H 	0.33237 0.82853 0.88453 0.06800
C 	C 	0.38301 0.88202 0.88137 -0.01800
C 	C 	0.39815 0.92307 0.88195 -0.17700
H 	H 	0.42527 0.94043 0.87953 0.09900
C 	C 	0.40906 0.86603 0.87726 0.32100
C 	C 	0.38174 0.09181 0.84204 0.25300
H 	H 	0.38217 0.11683 0.84423 -0.04800
H 	H 	0.35447 0.07033 0.84403 -0.04800
C 	C 	0.36469 0.07614 0.80408 0.22100
C 	C 	0.37483 0.06536 0.78402 -0.20100
H 	H 	0.39997 0.06813 0.78223 0.10200
C 	C 	0.34737 0.05046 0.76662 0.06000
H 	H 	0.35417 0.04323 0.75323 0.00100
C 	C 	0.30976 0.04636 0.76927 -0.09900
H 	H 	0.29137 0.03643 0.75763 0.05700
C 	C 	0.29962 0.05714 0.78933 -0.01400
C 	C 	0.32708 0.07204 0.80673 -0.16900
H 	H 	0.32027 0.07923 0.82013 0.09200
C 	C 	0.25982 0.05342 0.79203 0.30900
Mn	Mn	0.32365 0.16883 0.97235 1.26300
Mn	Mn	0.41139 0.19335 0.00485 1.28800
Mn	Mn	0.48100 0.19339 0.04085 1.22200
O 	O 	0.32986 0.12192 0.95283 -0.44000
O 	O 	0.37649 0.15178 0.97686 -0.52500
O 	O 	0.43390 0.05831 0.98296 -0.31100
O 	O 	0.46361 0.98845 0.06507 -0.31200
O 	O 	0.50794 0.02030 0.14479 -0.45600
O 	O 	0.47371 0.96307 0.16296 -0.47100
O 	O 	0.60236 0.07822 0.99674 -0.28600
O 	O 	0.75001 0.16797 0.99233 -0.44400
O 	O 	0.77042 0.12949 0.97683 -0.50500
O 	O 	0.46479 0.20223 0.98583 -0.46300
O 	O 	0.51134 0.20778 0.00842 -0.49600
O 	O 	0.50044 0.15794 0.91398 -0.29700
O 	O 	0.38466 0.97688 0.88843 -0.29100
O 	O 	0.44439 0.89012 0.87093 -0.53000
O 	O 	0.39929 0.83058 0.88077 -0.38500
O 	O 	0.39396 0.09054 0.82003 -0.29200
O 	O 	0.24951 0.05905 0.81070 -0.48600
O 	O 	0.23733 0.04470 0.77500 -0.44700
O 	O 	0.26987 0.16343 0.96203 -0.25200
O 	O 	0.26677 0.16873 0.96493 -0.23900
H 	H 	0.24567 0.14213 0.96243 -0.50100
H 	H 	0.26947 0.18473 0.95213 0.54200
H 	H 	0.27157 0.19543 0.96583 -0.19100
H 	H 	0.24777 0.15273 0.97613 0.40100
H 	H 	0.25067 0.13613 0.95923 0.59400
H 	H 	0.27497 0.17833 0.94843 -0.43800
H 	H 	0.27307 0.18953 0.96123 0.12700
H 	H 	0.24867 0.14733 0.97203 -0.17200
C 	C 	0.02617 0.45797 0.29671 0.35800
C 	C 	0.03771 0.42784 0.29328 -0.01100
C 	C 	0.01540 0.39565 0.27891 -0.11600
H 	H 	0.99583 0.39587 0.26997 0.08100
C 	C 	0.02166 0.36420 0.27776 0.10100
H 	H 	0.00653 0.34297 0.26817 -0.00100
C 	C 	0.04977 0.36397 0.29051 -0.25000
H 	H 	0.05383 0.34227 0.28987 0.10500
C 	C 	0.07345 0.39595 0.30501 0.25700
C 	C 	0.06717 0.42781 0.30635 -0.19300
H 	H 	0.08253 0.44907 0.31587 0.10500
C 	C 	0.12679 0.42208 0.33181 0.24900
H 	H 	0.14353 0.44697 0.32397 -0.05300
H 	H 	0.11133 0.42667 0.34297 -0.05700
C 	C 	0.15227 0.40709 0.34278 -0.42000
C 	C 	0.18145 0.40498 0.33036 0.47900
C 	C 	0.20049 0.38642 0.33958 -0.40200
C 	C 	0.19386 0.37377 0.36174 0.50600
C 	C 	0.16542 0.37737 0.37396 -0.40500
C 	C 	0.14235 0.39266 0.36381 0.47500
C 	C 	0.10888 0.39231 0.37709 -0.99900
H 	H 	0.08673 0.38607 0.36737 0.33200
H 	H 	0.10053 0.37257 0.38867 0.33600
H 	H 	0.11813 0.41817 0.38367 0.31000
C 	C 	0.19340 0.42306 0.30697 -0.98900
H 	H 	0.19693 0.44947 0.30697 0.32600
H 	H 	0.21793 0.42437 0.30267 0.33200
H 	H 	0.17283 0.40667 0.29657 0.31300
C 	C 	0.21649 0.35569 0.37188 -1.05300
H 	H 	0.24063 0.36397 0.36357 0.35400
H 	H 	0.22303 0.36437 0.38707 0.34200
H 	H 	0.20033 0.32707 0.37147 0.33800
C 	C 	0.22900 0.37926 0.32602 0.22500
H 	H 	0.22263 0.37807 0.31027 -0.03500
H 	H 	0.22683 0.35407 0.33027 -0.03600
C 	C 	0.29832 0.40791 0.31953 0.22500
C 	C 	0.29130 0.37555 0.30623 -0.21800
H 	H 	0.26533 0.35497 0.30377 0.11000
C 	C 	0.32316 0.37393 0.29656 0.06200
H 	H 	0.31843 0.35227 0.28767 -0.00300
C 	C 	0.36205 0.40467 0.30020 -0.09900
H 	H 	0.38333 0.40357 0.29377 0.06000
C 	C 	0.36907 0.43704 0.31350 -0.03300
C 	C 	0.33721 0.43866 0.32317 -0.15800
H 	H 	0.34193 0.46027 0.33207 0.10800
C 	C 	0.41023 0.46951 0.31733 0.37700
C 	C 	0.15706 0.36255 0.39794 0.27100
H 	H 	0.14603 0.37647 0.40607 -0.05600
H 	H 	0.18183 0.36807 0.40517 -0.06500
C 	C 	0.12369 0.30212 0.41807 0.25000
C 	C 	0.09726 0.26125 0.41721 -0.23400
H 	H 	0.08543 0.24937 0.40367 0.11100
C 	C 	0.08844 0.23824 0.43613 0.08100
H 	H 	0.07133 0.21077 0.43537 -0.00500
C 	C 	0.10535 0.25633 0.45661 -0.10700
H 	H 	0.09863 0.24107 0.46957 0.07200
C 	C 	0.13200 0.29678 0.45745 -0.00000
C 	C 	0.14002 0.31939 0.43803 -0.20000
H 	H 	0.15693 0.34687 0.43877 0.11000
C 	C 	0.15028 0.31689 0.47912 0.35800
C 	C 	0.16248 0.53673 0.32325 0.41200
C 	C 	0.18492 0.53300 0.30406 -0.03700
C 	C 	0.22550 0.54605 0.30567 -0.08300
H 	H 	0.23943 0.55867 0.31867 0.05900
C 	C 	0.24529 0.54032 0.28792 0.04600
H 	H 	0.27243 0.54907 0.28897 0.00800
C 	C 	0.22450 0.52153 0.26855 -0.20500
H 	H 	0.23773 0.51767 0.25667 0.10600
C 	C 	0.18392 0.50848 0.26694 0.22100
C 	C 	0.16413 0.51421 0.28470 -0.16400
H 	H 	0.13703 0.50547 0.28367 0.09900
C 	C 	0.12499 0.46999 0.24730 0.23600
H 	H 	0.11513 0.45517 0.26117 -0.04300
H 	H 	0.11493 0.48837 0.24607 -0.04500
C 	C 	0.11058 0.44118 0.22746 -0.39700
C 	C 	0.11093 0.40583 0.22875 0.54000
C 	C 	0.09197 0.37722 0.21144 -0.41200
C 	C 	0.07260 0.38450 0.19462 0.47700
C 	C 	0.07421 0.42136 0.19263 -0.38900
C 	C 	0.09524 0.45115 0.20826 0.45200
C 	C 	0.10012 0.49224 0.20608 -0.94000
H 	H 	0.12493 0.51157 0.21277 0.30500
H 	H 	0.10013 0.49847 0.19057 0.29900
H 	H 	0.07843 0.49277 0.21357 0.28100
C 	C 	0.12828 0.39604 0.24761 -1.13200
H 	H 	0.10733 0.37797 0.25747 0.36200
H 	H 	0.14293 0.38367 0.24227 0.36900
H 	H 	0.14603 0.42007 0.25557 0.37000
C 	C 	0.04839 0.35097 0.17778 -0.99600
H 	H 	0.03103 0.32677 0.18567 0.34300
H 	H 	0.03273 0.35837 0.16857 0.34000
H 	H 	0.06633 0.34687 0.16857 0.33500
C 	C 	0.09124 0.33834 0.21281 0.24500
H 	H 	0.11203 0.34037 0.22267 -0.05400
H 	H 	0.09493 0.32987 0.19817 -0.04500
C 	C 	0.03944 0.27148 0.21943 0.23500
C 	C 	0.99895 0.24549 0.22301 -0.21000
H 	H 	0.98193 0.25557 0.22577 0.10400
C 	C 	0.98381 0.20444 0.22243 0.07000
H 	H 	0.95673 0.18707 0.22487 -0.00200
C 	C 	0.00917 0.18938 0.21828 -0.09500
H 	H 	0.99903 0.16187 0.21787 0.06800
C 	C 	0.04967 0.21536 0.21471 -0.01800
C 	C 	0.06481 0.25641 0.21529 -0.17700
H 	H 	0.09193 0.27377 0.21287 0.09900
C 	C 	0.07572 0.19937 0.21060 0.32100
C 	C 	0.04840 0.42515 0.17538 0.25300
H 	H 	0.04883 0.45017 0.17757 -0.04800
H 	H 	0.02113 0.40367 0.17737 -0.04800
C 	C 	0.03135 0.40948 0.13742 0.22100
C 	C 	0.04149 0.39870 0.11736 -0.20100
H 	H 	0.06663 0.40147 0.11557 0.10200
C 	C 	0.01403 0.38380 0.09996 0.06000
H 	H 	0.02083 0.37657 0.08657 0.00100
C 	C 	0.97642 0.37970 0.10261 -0.09900
H 	H 	0.95803 0.36977 0.09097 0.05700
C 	C 	0.96628 0.39048 0.12267 -0.01400
C 	C 	0.99374 0.40538 0.14007 -0.16900
H 	H 	0.98693 0.41257 0.15347 0.09200
C 	C 	0.92648 0.38676 0.12537 0.30900
Mn	Mn	0.99032 0.50216 0.30569 1.26300
Mn	Mn	0.07806 0.52669 0.33818 1.28800
Mn	Mn	0.14766 0.52672 0.37418 1.22200
O 	O 	0.99652 0.45526 0.28617 -0.44000
O 	O 	0.04315 0.48512 0.31020 -0.52500
O 	O 	0.10056 0.39165 0.31630 -0.31100
O 	O 	0.13027 0.32179 0.39841 -0.31200
O 	O 	0.17460 0.35364 0.47813 -0.45600
O 	O 	0.14037 0.29641 0.49630 -0.47100
O 	O 	0.26902 0.41156 0.33008 -0.28600
O 	O 	0.41667 0.50131 0.32567 -0.44400
O 	O 	0.43708 0.46283 0.31017 -0.50500
O 	O 	0.13145 0.53557 0.31917 -0.46300
O 	O 	0.17800 0.54112 0.34176 -0.49600
O 	O 	0.16710 0.49128 0.24732 -0.29700
O 	O 	0.05132 0.31022 0.22177 -0.29100
O 	O 	0.11105 0.22346 0.20427 -0.53000
O 	O 	0.06595 0.16392 0.21411 -0.38500
O 	O 	0.06062 0.42388 0.15337 -0.29200
O 	O 	0.91617 0.39239 0.14404 -0.48600
O 	O 	0.90399 0.37804 0.10834 -0.44700
O 	O 	0.93653 0.49677 0.29537 -0.25200
O 	O 	0.93343 0.50207 0.29827 -0.23900
H 	H 	0.91233 0.47547 0.29577 -0.50100
H 	H 	0.93613 0.51807 0.28547 0.54200
H 	H 	0.93823 0.52877 0.29917 -0.19100
H 	H 	0.91443 0.48607 0.30947 0.40100
H 	H 	0.91733 0.46947 0.29257 0.59400
H 	H 	0.94163 0.51167 0.28177 -0.43800
H 	H 	0.93973 0.52287 0.29457 0.12700
H 	H 	0.91533 0.48067 0.30537 -0.17200
C 	C 	0.20870 0.90154 0.63004 0.35800
C 	C 	0.23883 0.94321 0.62661 -0.01100
C 	C 	0.27102 0.95309 0.61224 -0.11600
H 	H 	0.27080 0.93330 0.60330 0.08100
C 	C 	0.30247 0.99080 0.61109 0.10100
H 	H 	0.32370 0.99690 0.60150 -0.00100
C 	C 	0.30270 0.01914 0.62384 -0.25000
H 	H 	0.32440 0.04490 0.62320 0.10500
C 	C 	0.27072 0.01084 0.63834 0.25700
C 	C 	0.23886 0.97270 0.63968 -0.19300
H 	H 	0.21760 0.96680 0.64920 0.10500
C 	C 	0.24459 0.03805 0.66514 0.24900
H 	H 	0.21970 0.02990 0.65730 -0.05300
H 	H 	0.24000 0.01800 0.67630 -0.05700
C 	C 	0.25958 0.07852 0.67611 -0.42000
C 	C 	0.26169 0.10981 0.66369 0.47900
C 	C 	0.28025 0.14741 0.67291 -0.40200
C 	C 	0.29290 0.15343 0.69507 0.50600
C 	C 	0.28930 0.12139 0.70729 -0.40500
C 	C 	0.27401 0.08303 0.69714 0.47500
C 	C 	0.27436 0.04991 0.71042 -0.99900
H 	H 	0.28060 0.03400 0.70070 0.33200
H 	H 	0.29410 0.06130 0.72200 0.33600
H 	H 	0.24850 0.03330 0.71700 0.31000
C 	C 	0.24361 0.10368 0.64030 -0.98900
H 	H 	0.21720 0.08080 0.64030 0.32600
H 	H 	0.24230 0.12690 0.63600 0.33200
H 	H 	0.26000 0.09950 0.62990 0.31300
C 	C 	0.31098 0.19414 0.70521 -1.05300
H 	H 	0.30270 0.21000 0.69690 0.35400
H 	H 	0.30230 0.19200 0.72040 0.34200
H 	H 	0.33960 0.20660 0.70480 0.33800
C 	C 	0.28741 0.18308 0.65935 0.22500
H 	H 	0.28860 0.17790 0.64360 -0.03500
H 	H 	0.31260 0.20610 0.66360 -0.03600
C 	C 	0.25876 0.22375 0.65286 0.22500
C 	C 	0.29112 0.24909 0.63956 -0.21800
H 	H 	0.31170 0.24370 0.63710 0.11000
C 	C 	0.29274 0.28257 0.62989 0.06200
H 	H 	0.31440 0.29950 0.62100 -0.00300
C 	C 	0.26200 0.29072 0.63353 -0.09900
H 	H 	0.26310 0.31310 0.62710 0.06000
C 	C 	0.22963 0.26537 0.64683 -0.03300
C 	C 	0.22801 0.23189 0.65650 -0.15800
H 	H 	0.20640 0.21500 0.66540 0.10800
C 	C 	0.19716 0.27406 0.65066 0.37700
C 	C 	0.30412 0.12785 0.73127 0.27100
H 	H 	0.29020 0.10290 0.73940 -0.05600
H 	H 	0.29860 0.14710 0.73850 -0.06500
C 	C 	0.36455 0.15491 0.75140 0.25000
C 	C 	0.40542 0.16935 0.75054 -0.23400
H 	H 	0.41730 0.16940 0.73700 0.11100
C 	C 	0.42843 0.18354 0.76946 0.08100
H 	H 	0.45590 0.19390 0.76870 -0.00500
C 	C 	0.41034 0.18236 0.78994 -0.10700
H 	H 	0.42560 0.19090 0.80290 0.07200
C 	C 	0.36989 0.16856 0.79078 -0.00000
C 	C 	0.34728 0.15397 0.77136 -0.20000
H 	H 	0.31980 0.14340 0.77210 0.11000
C 	C 	0.34978 0.16673 0.81245 0.35800
C 	C 	0.12994 0.95909 0.65658 0.41200
C 	C 	0.13367 0.98526 0.63739 -0.03700
C 	C 	0.12062 0.01279 0.63900 -0.08300
H 	H 	0.10800 0.01410 0.65200 0.05900
C 	C 	0.12635 0.03831 0.62125 0.04600
H 	H 	0.11760 0.05670 0.62230 0.00800
C 	C 	0.14514 0.03631 0.60188 -0.20500
H 	H 	0.14900 0.05340 0.59000 0.10600
C 	C 	0.15819 0.00878 0.60027 0.22100
C 	C 	0.15246 0.98326 0.61803 -0.16400
H 	H 	0.16120 0.96490 0.61700 0.09900
C 	C 	0.19668 0.98834 0.58063 0.23600
H 	H 	0.21150 0.99330 0.59450 -0.04300
H 	H 	0.17830 0.95990 0.57940 -0.04500
C 	C 	0.22549 0.00274 0.56079 -0.39700
C 	C 	0.26084 0.03844 0.56208 0.54000
C 	C 	0.28945 0.04809 0.54477 -0.41200
C 	C 	0.28217 0.02144 0.52795 0.47700
C 	C 	0.24531 0.98619 0.52596 -0.38900
C 	C 	0.21552 0.97743 0.54159 0.45200
C 	C 	0.17443 0.94122 0.53941 -0.94000
H 	H 	0.15510 0.94670 0.54610 0.30500
H 	H 	0.16820 0.93500 0.52390 0.29900
H 	H 	0.17390 0.91900 0.54690 0.28100
C 	C 	0.27063 0.06558 0.58094 -1.13200
H 	H 	0.28870 0.06270 0.59080 0.36200
H 	H 	0.28300 0.09260 0.57560 0.36900
H 	H 	0.24660 0.05930 0.58890 0.37000
C 	C 	0.31570 0.03076 0.51111 -0.99600
H 	H 	0.33990 0.03760 0.51900 0.34300
H 	H 	0.30830 0.00770 0.50190 0.34000
H 	H 	0.31980 0.05280 0.50190 0.33500
C 	C 	0.32833 0.08624 0.54614 0.24500
H 	H 	0.32630 0.10500 0.55600 -0.05400
H 	H 	0.33680 0.09840 0.53150 -0.04500
C 	C 	0.39519 0.10130 0.55276 0.23500
C 	C 	0.42118 0.08680 0.55634 -0.21000
H 	H 	0.41110 0.05970 0.55910 0.10400
C 	C 	0.46223 0.11271 0.55576 0.07000
H 	H 	0.47960 0.10300 0.55820 -0.00200
C 	C 	0.47729 0.15313 0.55161 -0.09500
H 	H 	0.50480 0.17050 0.55120 0.06800
C 	C 	0.45131 0.16765 0.54804 -0.01800
C 	C 	0.41026 0.14174 0.54862 -0.17700
H 	H 	0.39290 0.15150 0.54620 0.09900
C 	C 	0.46730 0.20969 0.54393 0.32100
C 	C 	0.24152 0.95659 0.50871 0.25300
H 	H 	0.21650 0.93200 0.51090 -0.04800
H 	H 	0.26300 0.95080 0.51070 -0.04800
C 	C 	0.25719 0.95521 0.47075 0.22100
C 	C 	0.26797 0.97613 0.45069 -0.20100
H 	H 	0.26520 0.99850 0.44890 0.10200
C 	C 	0.28287 0.96357 0.43329 0.06000
H 	H 	0.29010 0.97760 0.41990 0.00100
C 	C 	0.28697 0.93006 0.43594 -0.09900
H 	H 	0.29690 0.92160 0.42430 0.05700
C 	C 	0.27619 0.90914 0.45600 -0.01400
C 	C 	0.26129 0.92170 0.47340 -0.16900
H 	H 	0.25410 0.90770 0.48680 0.09200
C 	C 	0.27991 0.87306 0.45870 0.30900
Mn	Mn	0.16450 0.82149 0.63902 1.26300
Mn	Mn	0.13998 0.88471 0.67152 1.28800
Mn	Mn	0.13994 0.95427 0.70752 1.22200
O 	O 	0.21141 0.87460 0.61950 -0.44000
O 	O 	0.18155 0.89137 0.64353 -0.52500
O 	O 	0.27502 0.04225 0.64963 -0.31100
O 	O 	0.34488 0.14182 0.73174 -0.31200
O 	O 	0.31303 0.15430 0.81146 -0.45600
O 	O 	0.37026 0.17730 0.82963 -0.47100
O 	O 	0.25511 0.19080 0.66341 -0.28600
O 	O 	0.16536 0.24870 0.65900 -0.44400
O 	O 	0.20384 0.30759 0.64350 -0.50500
O 	O 	0.13110 0.92922 0.65250 -0.46300
O 	O 	0.12555 0.97022 0.67509 -0.49600
O 	O 	0.17539 0.00916 0.58065 -0.29700
O 	O 	0.35645 0.07444 0.55510 -0.29100
O 	O 	0.44321 0.22093 0.53760 -0.53000
O 	O 	0.50275 0.23537 0.54744 -0.38500
O 	O 	0.24279 0.97008 0.48670 -0.29200
O 	O 	0.27428 0.85712 0.47737 -0.48600
O 	O 	0.28863 0.85929 0.44167 -0.44700
O 	O 	0.16990 0.77310 0.62870 -0.25200
O 	O 	0.16460 0.76470 0.63160 -0.23900
H 	H 	0.19120 0.77020 0.62910 -0.50100
H 	H 	0.14860 0.75140 0.61880 0.54200
H 	H 	0.13790 0.74280 0.63250 -0.19100
H 	H 	0.18060 0.76170 0.64280 0.40100
H 	H 	0.19720 0.78120 0.62590 0.59400
H 	H 	0.15500 0.76330 0.61510 -0.43800
H 	H 	0.14380 0.75020 0.62790 0.12700
H 	H 	0.18600 0.76800 0.63870 -0.17200
C 	C 	0.87537 0.23487 0.96337 0.35800
C 	C 	0.90550 0.27654 0.95994 -0.01100
C 	C 	0.93769 0.28642 0.94557 -0.11600
H 	H 	0.93747 0.26663 0.93663 0.08100
C 	C 	0.96914 0.32413 0.94442 0.10100
H 	H 	0.99037 0.33023 0.93483 -0.00100
C 	C 	0.96937 0.35247 0.95717 -0.25000
H 	H 	0.99107 0.37823 0.95653 0.10500
C 	C 	0.93739 0.34417 0.97167 0.25700
C 	C 	0.90553 0.30603 0.97301 -0.19300
H 	H 	0.88427 0.30013 0.98253 0.10500
C 	C 	0.91126 0.37138 0.99847 0.24900
H 	H 	0.88637 0.36323 0.99063 -0.05300
H 	H 	0.90667 0.35133 0.00963 -0.05700
C 	C 	0.92625 0.41185 0.00944 -0.42000
C 	C 	0.92836 0.44314 0.99702 0.47900
C 	C 	0.94692 0.48074 0.00624 -0.40200
C 	C 	0.95957 0.48676 0.02840 0.50600
C 	C 	0.95597 0.45472 0.04062 -0.40500
C 	C 	0.94068 0.41636 0.03047 0.47500
C 	C 	0.94103 0.38324 0.04375 -0.99900
H 	H 	0.94727 0.36733 0.03403 0.33200
H 	H 	0.96077 0.39463 0.05533 0.33600
H 	H 	0.91517 0.36663 0.05033 0.31000
C 	C 	0.91028 0.43701 0.97363 -0.98900
H 	H 	0.88387 0.41413 0.97363 0.32600
H 	H 	0.90897 0.46023 0.96933 0.33200
H 	H 	0.92667 0.43283 0.96323 0.31300
C 	C 	0.97765 0.52747 0.03854 -1.05300
H 	H 	0.96937 0.54333 0.03023 0.35400
H 	H 	0.96897 0.52533 0.05373 0.34200
H 	H 	0.00627 0.53993 0.03813 0.33800
C 	C 	0.95408 0.51641 0.99268 0.22500
H 	H 	0.95527 0.51123 0.97693 -0.03500
H 	H 	0.97927 0.53943 0.99693 -0.03600
C 	C 	0.92543 0.55708 0.98619 0.22500
C 	C 	0.95779 0.58242 0.97289 -0.21800
H 	H 	0.97837 0.57703 0.97043 0.11000
C 	C 	0.95941 0.61590 0.96322 0.06200
H 	H 	0.98107 0.63283 0.95433 -0.00300
C 	C 	0.92867 0.62405 0.96686 -0.09900
H 	H 	0.92977 0.64643 0.96043 0.06000
C 	C 	0.89630 0.59870 0.98016 -0.03300
C 	C 	0.89468 0.56522 0.98983 -0.15800
H 	H 	0.87307 0.54833 0.99873 0.10800
C 	C 	0.86383 0.60739 0.98399 0.37700
C 	C 	0.97079 0.46118 0.06460 0.27100
H 	H 	0.95687 0.43623 0.07273 -0.05600
H 	H 	0.96527 0.48043 0.07183 -0.06500
C 	C 	0.03122 0.48824 0.08473 0.25000
C 	C 	0.07209 0.50268 0.08387 -0.23400
H 	H 	0.08397 0.50273 0.07033 0.11100
C 	C 	0.09510 0.51687 0.10279 0.08100
H 	H 	0.12257 0.52723 0.10203 -0.00500
C 	C 	0.07701 0.51569 0.12327 -0.10700
H 	H 	0.09227 0.52423 0.13623 0.07200
C 	C 	0.03656 0.50189 0.12411 -0.00000
C 	C 	0.01395 0.48730 0.10469 -0.20100
H 	H 	0.98647 0.47673 0.10543 0.11000
C 	C 	0.01645 0.50006 0.14578 0.35800
C 	C 	0.79661 0.29242 0.98991 0.41200
C 	C 	0.80034 0.31859 0.97072 -0.03700
C 	C 	0.78729 0.34612 0.97233 -0.08300
H 	H 	0.77467 0.34743 0.98533 0.05900
C 	C 	0.79302 0.37164 0.95458 0.04600
H 	H 	0.78427 0.39003 0.95563 0.00800
C 	C 	0.81181 0.36964 0.93521 -0.20500
H 	H 	0.81567 0.38673 0.92333 0.10600
C 	C 	0.82486 0.34211 0.93360 0.22100
C 	C 	0.81913 0.31659 0.95136 -0.16400
H 	H 	0.82787 0.29823 0.95033 0.09900
C 	C 	0.86335 0.32167 0.91396 0.23600
H 	H 	0.87817 0.32663 0.92783 -0.04300
H 	H 	0.84497 0.29323 0.91273 -0.04500
C 	C 	0.89216 0.33607 0.89412 -0.39700
C 	C 	0.92751 0.37177 0.89541 0.54000
C 	C 	0.95612 0.38142 0.87810 -0.41200
C 	C 	0.94884 0.35477 0.86128 0.47700
C 	C 	0.91198 0.31952 0.85929 -0.38900
C 	C 	0.88219 0.31076 0.87492 0.45200
C 	C 	0.84110 0.27455 0.87274 -0.94000
H 	H 	0.82177 0.28003 0.87943 0.30500
H 	H 	0.83487 0.26833 0.85723 0.29900
H 	H 	0.84057 0.25233 0.88023 0.28100
C 	C 	0.93730 0.39891 0.91427 -1.13200
H 	H 	0.95537 0.39603 0.92413 0.36200
H 	H 	0.94967 0.42593 0.90893 0.36900
H 	H 	0.91327 0.39263 0.92223 0.37000
C 	C 	0.98237 0.36409 0.84444 -0.99600
H 	H 	0.00657 0.37093 0.85233 0.34300
H 	H 	0.97497 0.34103 0.83523 0.34000
H 	H 	0.98647 0.38613 0.83523 0.33500
C 	C 	0.99500 0.41957 0.87947 0.24500
H 	H 	0.99297 0.43833 0.88933 -0.05400
H 	H 	0.00347 0.43173 0.86483 -0.04500
C 	C 	0.06186 0.43463 0.88609 0.23500
C 	C 	0.08785 0.42013 0.88967 -0.21000
H 	H 	0.07777 0.39303 0.89243 0.10400
C 	C 	0.12890 0.44604 0.88909 0.07000
H 	H 	0.14627 0.43633 0.89153 -0.00200
C 	C 	0.14396 0.48646 0.88494 -0.09500
H 	H 	0.17147 0.50383 0.88453 0.06800
C 	C 	0.11798 0.50098 0.88137 -0.01800
C 	C 	0.07693 0.47507 0.88195 -0.17700
H 	H 	0.05957 0.48483 0.87953 0.09900
C 	C 	0.13397 0.54302 0.87726 0.32100
C 	C 	0.90819 0.28992 0.84204 0.25300
H 	H 	0.88317 0.26533 0.84423 -0.04800
H 	H 	0.92967 0.28413 0.84403 -0.04800
C 	C 	0.92386 0.28854 0.80408 0.22100
C 	C 	0.93464 0.30946 0.78402 -0.20100
H 	H 	0.93187 0.33183 0.78223 0.10200
C 	C 	0.94954 0.29690 0.76662 0.06000
H 	H 	0.95677 0.31093 0.75323 0.00100
C 	C 	0.95364 0.26339 0.76927 -0.09900
H 	H 	0.96357 0.25493 0.75763 0.05700
C 	C 	0.94286 0.24247 0.78933 -0.01400
C 	C 	0.92796 0.25503 0.80673 -0.16900
H 	H 	0.92077 0.24103 0.82013 0.09200
C 	C 	0.94658 0.20639 0.79203 0.30900
Mn	Mn	0.83117 0.15482 0.97235 1.26300
Mn	Mn	0.80665 0.21804 0.00485 1.28800
Mn	Mn	0.80661 0.28761 0.04085 1.22200
O 	O 	0.87808 0.20793 0.95283 -0.44000
O 	O 	0.84822 0.22470 0.97686 -0.52500
O 	O 	0.94169 0.37558 0.98296 -0.31100
O 	O 	0.01155 0.47515 0.06507 -0.31200
O 	O 	0.97970 0.48763 0.14479 -0.45600
O 	O 	0.03693 0.51063 0.16296 -0.47100
O 	O 	0.92178 0.52413 0.99674 -0.28600
O 	O 	0.83203 0.58203 0.99233 -0.44400
O 	O 	0.87051 0.64092 0.97683 -0.50500
O 	O 	0.79777 0.26255 0.98583 -0.46300
O 	O 	0.79222 0.30355 0.00842 -0.49600
O 	O 	0.84206 0.34249 0.91398 -0.29700
O 	O 	0.02312 0.40777 0.88843 -0.29100
O 	O 	0.10988 0.55426 0.87093 -0.53000
O 	O 	0.16942 0.56870 0.88077 -0.38500
O 	O 	0.90946 0.30341 0.82003 -0.29200
O 	O 	0.94095 0.19045 0.81070 -0.48600
O 	O 	0.95530 0.19262 0.77500 -0.44700
O 	O 	0.83657 0.10643 0.96203 -0.25200
O 	O 	0.83127 0.09803 0.96493 -0.23900
H 	H 	0.85787 0.10353 0.96243 -0.50100
H 	H 	0.81527 0.08473 0.95213 0.54200
H 	H 	0.80457 0.07613 0.96583 -0.19100
H 	H 	0.84727 0.09503 0.97613 0.40100
H 	H 	0.86387 0.11453 0.95923 0.59400
H 	H 	0.82167 0.09663 0.94843 -0.43800
H 	H 	0.81047 0.08353 0.96123 0.12700
H 	H 	0.85267 0.10133 0.97203 -0.17200
C 	C 	0.54203 0.56821 0.29671 0.35800
C 	C 	0.57216 0.60988 0.29328 -0.01100
C 	C 	0.60435 0.61976 0.27891 -0.11600
H 	H 	0.60413 0.59997 0.26997 0.08100
C 	C 	0.63580 0.65747 0.27776 0.10100
H 	H 	0.65703 0.66357 0.26817 -0.00100
C 	C 	0.63603 0.68581 0.29051 -0.25000
H 	H 	0.65773 0.71157 0.28987 0.10500
C 	C 	0.60405 0.67751 0.30501 0.25700
C 	C 	0.57219 0.63937 0.30635 -0.19300
H 	H 	0.55093 0.63347 0.31587 0.10500
C 	C 	0.57792 0.70472 0.33181 0.24900
H 	H 	0.55303 0.69657 0.32397 -0.05300
H 	H 	0.57333 0.68467 0.34297 -0.05700
C 	C 	0.59291 0.74519 0.34278 -0.42000
C 	C 	0.59502 0.77648 0.33036 0.47900
C 	C 	0.61358 0.81408 0.33958 -0.40200
C 	C 	0.62623 0.82010 0.36174 0.50600
C 	C 	0.62263 0.78806 0.37396 -0.40500
C 	C 	0.60734 0.74970 0.36381 0.47500
C 	C 	0.60769 0.71658 0.37709 -0.99900
H 	H 	0.61393 0.70067 0.36737 0.33200
H 	H 	0.62743 0.72797 0.38867 0.33600
H 	H 	0.58183 0.69997 0.38367 0.31000
C 	C 	0.57694 0.77035 0.30697 -0.98900
H 	H 	0.55053 0.74747 0.30697 0.32600
H 	H 	0.57563 0.79357 0.30267 0.33200
H 	H 	0.59333 0.76617 0.29657 0.31300
C 	C 	0.64431 0.86081 0.37188 -1.05300
H 	H 	0.63603 0.87667 0.36357 0.35400
H 	H 	0.63563 0.85867 0.38707 0.34200
H 	H 	0.67293 0.87327 0.37147 0.33800
C 	C 	0.62074 0.84975 0.32602 0.22500
H 	H 	0.62193 0.84457 0.31027 -0.03500
H 	H 	0.64593 0.87277 0.33027 -0.03600
C 	C 	0.59209 0.89042 0.31953 0.22500
C 	C 	0.62445 0.91576 0.30623 -0.21800
H 	H 	0.64503 0.91037 0.30377 0.11000
C 	C 	0.62607 0.94924 0.29656 0.06200
H 	H 	0.64773 0.96617 0.28767 -0.00300
C 	C 	0.59533 0.95739 0.30020 -0.09900
H 	H 	0.59643 0.97977 0.29377 0.06000
C 	C 	0.56296 0.93204 0.31350 -0.03300
C 	C 	0.56134 0.89856 0.32317 -0.15800
H 	H 	0.53973 0.88167 0.33207 0.10800
C 	C 	0.53049 0.94073 0.31733 0.37700
C 	C 	0.63745 0.79452 0.39794 0.27100
H 	H 	0.62353 0.76957 0.40607 -0.05600
H 	H 	0.63193 0.81377 0.40517 -0.06500
C 	C 	0.69788 0.82158 0.41807 0.25000
C 	C 	0.73875 0.83602 0.41721 -0.23400
H 	H 	0.75063 0.83607 0.40367 0.11100
C 	C 	0.76176 0.85021 0.43613 0.08100
H 	H 	0.78923 0.86057 0.43537 -0.00500
C 	C 	0.74367 0.84903 0.45661 -0.10700
H 	H 	0.75893 0.85757 0.46957 0.07200
C 	C 	0.70322 0.83523 0.45745 -0.00000
C 	C 	0.68061 0.82064 0.43803 -0.20000
H 	H 	0.65313 0.81007 0.43877 0.11000
C 	C 	0.68311 0.83340 0.47912 0.35800
C 	C 	0.46327 0.62576 0.32325 0.41200
C 	C 	0.46700 0.65193 0.30406 -0.03700
C 	C 	0.45395 0.67946 0.30567 -0.08300
H 	H 	0.44133 0.68077 0.31867 0.05900
C 	C 	0.45968 0.70498 0.28792 0.04600
H 	H 	0.45093 0.72337 0.28897 0.00800
C 	C 	0.47847 0.70298 0.26855 -0.20500
H 	H 	0.48233 0.72007 0.25667 0.10600
C 	C 	0.49152 0.67545 0.26694 0.22100
C 	C 	0.48579 0.64993 0.28470 -0.16400
H 	H 	0.49453 0.63157 0.28367 0.09900
C 	C 	0.53001 0.65501 0.24730 0.23600
H 	H 	0.54483 0.65997 0.26117 -0.04300
H 	H 	0.51163 0.62657 0.24607 -0.04500
C 	C 	0.55882 0.66941 0.22746 -0.39700
C 	C 	0.59417 0.70511 0.22875 0.54000
C 	C 	0.62278 0.71476 0.21144 -0.41200
C 	C 	0.61550 0.68811 0.19462 0.47700
C 	C 	0.57864 0.65286 0.19263 -0.38900
C 	C 	0.54885 0.64410 0.20826 0.45200
C 	C 	0.50776 0.60789 0.20608 -0.94000
H 	H 	0.48843 0.61337 0.21277 0.30500
H 	H 	0.50153 0.60167 0.19057 0.29900
H 	H 	0.50723 0.58567 0.21357 0.28100
C 	C 	0.60396 0.73225 0.24761 -1.13200
H 	H 	0.62203 0.72937 0.25747 0.36200
H 	H 	0.61633 0.75927 0.24227 0.36900
H 	H 	0.57993 0.72597 0.25557 0.37000
C 	C 	0.64903 0.69743 0.17778 -0.99600
H 	H 	0.67323 0.70427 0.18567 0.34300
H 	H 	0.64163 0.67437 0.16857 0.34000
H 	H 	0.65313 0.71947 0.16857 0.33500
C 	C 	0.66166 0.75291 0.21281 0.24500
H 	H 	0.65963 0.77167 0.22267 -0.05400
H 	H 	0.67013 0.76507 0.19817 -0.04500
C 	C 	0.72852 0.76797 0.21943 0.23500
C 	C 	0.75451 0.75347 0.22301 -0.21000
H 	H 	0.74443 0.72637 0.22577 0.10400
C 	C 	0.79556 0.77938 0.22243 0.07000
H 	H 	0.81293 0.76967 0.22487 -0.00200
C 	C 	0.81062 0.81980 0.21828 -0.09500
H 	H 	0.83813 0.83717 0.21787 0.06800
C 	C 	0.78464 0.83432 0.21471 -0.01800
C 	C 	0.74359 0.80841 0.21529 -0.17700
H 	H 	0.72623 0.81817 0.21287 0.09900
C 	C 	0.80063 0.87636 0.21060 0.32100
C 	C 	0.57485 0.62326 0.17538 0.25300
H 	H 	0.54983 0.59867 0.17757 -0.04800
H 	H 	0.59633 0.61747 0.17737 -0.04800
C 	C 	0.59052 0.62188 0.13742 0.22100
C 	C 	0.60130 0.64280 0.11736 -0.20100
H 	H 	0.59853 0.66517 0.11557 0.10200
C 	C 	0.61620 0.63024 0.09996 0.06000
H 	H 	0.62343 0.64427 0.08657 0.00100
C 	C 	0.62030 0.59673 0.10261 -0.09900
H 	H 	0.63023 0.58827 0.09097 0.05700
C 	C 	0.60952 0.57581 0.12267 -0.01400
C 	C 	0.59462 0.58837 0.14007 -0.16900
H 	H 	0.58743 0.57437 0.15347 0.09200
C 	C 	0.61324 0.53973 0.12537 0.30900
Mn	Mn	0.49784 0.48815 0.30569 1.26300
Mn	Mn	0.47331 0.55137 0.33818 1.28800
Mn	Mn	0.47328 0.62094 0.37418 1.22200
O 	O 	0.54474 0.54127 0.28617 -0.44000
O 	O 	0.51488 0.55804 0.31020 -0.52500
O 	O 	0.60835 0.70892 0.31630 -0.31100
O 	O 	0.67821 0.80849 0.39841 -0.31200
O 	O 	0.64636 0.82097 0.47813 -0.45600
O 	O 	0.70359 0.84397 0.49630 -0.47100
O 	O 	0.58844 0.85747 0.33008 -0.28600
O 	O 	0.49869 0.91537 0.32567 -0.44400
O 	O 	0.53717 0.97426 0.31017 -0.50500
O 	O 	0.46443 0.59589 0.31917 -0.46300
O 	O 	0.45888 0.63689 0.34176 -0.49600
O 	O 	0.50872 0.67583 0.24732 -0.29700
O 	O 	0.68978 0.74111 0.22177 -0.29100
O 	O 	0.77654 0.88760 0.20427 -0.53000
O 	O 	0.83608 0.90204 0.21411 -0.38500
O 	O 	0.57612 0.63675 0.15337 -0.29200
O 	O 	0.60761 0.52379 0.14404 -0.48600
O 	O 	0.62196 0.52596 0.10834 -0.44700
O 	O 	0.50323 0.43977 0.29537 -0.25200
O 	O 	0.49793 0.43137 0.29827 -0.23900
H 	H 	0.52453 0.43687 0.29577 -0.50100
H 	H 	0.48193 0.41807 0.28547 0.54200
H 	H 	0.47123 0.40947 0.29917 -0.19100
H 	H 	0.51393 0.42837 0.30947 0.40100
H 	H 	0.53053 0.44787 0.29257 0.59500
H 	H 	0.48833 0.42997 0.28177 -0.43800
H 	H 	0.47713 0.41687 0.29457 0.12700
H 	H 	0.51933 0.43467 0.30537 -0.17200
C 	C 	0.09846 0.30716 0.63004 0.35800
C 	C 	0.05679 0.29562 0.62661 -0.01100
C 	C 	0.04691 0.31793 0.61224 -0.11600
H 	H 	0.06670 0.33750 0.60330 0.08100
C 	C 	0.00920 0.31167 0.61109 0.10100
H 	H 	0.00310 0.32680 0.60150 -0.00100
C 	C 	0.98086 0.28356 0.62384 -0.25000
H 	H 	0.95510 0.27950 0.62320 0.10500
C 	C 	0.98916 0.25988 0.63834 0.25700
C 	C 	0.02730 0.26616 0.63968 -0.19300
H 	H 	0.03320 0.25080 0.64920 0.10500
C 	C 	0.96195 0.20654 0.66514 0.24900
H 	H 	0.97010 0.18980 0.65730 -0.05300
H 	H 	0.98200 0.22200 0.67630 -0.05700
C 	C 	0.92148 0.18106 0.67611 -0.42000
C 	C 	0.89019 0.15188 0.66369 0.47900
C 	C 	0.85259 0.13284 0.67291 -0.40200
C 	C 	0.84657 0.13947 0.69507 0.50600
C 	C 	0.87861 0.16791 0.70729 -0.40500
C 	C 	0.91697 0.19098 0.69714 0.47500
C 	C 	0.95009 0.22445 0.71042 -0.99900
H 	H 	0.96600 0.24660 0.70070 0.33200
H 	H 	0.93870 0.23280 0.72200 0.33600
H 	H 	0.96670 0.21520 0.71700 0.31000
C 	C 	0.89632 0.13993 0.64030 -0.98900
H 	H 	0.91920 0.13640 0.64030 0.32600
H 	H 	0.87310 0.11540 0.63600 0.33200
H 	H 	0.90050 0.16050 0.62990 0.31300
C 	C 	0.80586 0.11684 0.70521 -1.05300
H 	H 	0.79000 0.09270 0.69690 0.35400
H 	H 	0.80800 0.11030 0.72040 0.34200
H 	H 	0.79340 0.13300 0.70480 0.33800
C 	C 	0.81692 0.10433 0.65935 0.22500
H 	H 	0.82210 0.11070 0.64360 -0.03500
H 	H 	0.79390 0.10650 0.66360 -0.03600
C 	C 	0.77625 0.03501 0.65286 0.22500
C 	C 	0.75091 0.04203 0.63956 -0.21800
H 	H 	0.75630 0.06800 0.63710 0.11000
C 	C 	0.71743 0.01017 0.62989 0.06200
H 	H 	0.70050 0.01490 0.62100 -0.00300
C 	C 	0.70928 0.97128 0.63353 -0.09900
H 	H 	0.68690 0.95000 0.62710 0.06000
C 	C 	0.73463 0.96426 0.64683 -0.03300
C 	C 	0.76811 0.99612 0.65650 -0.15800
H 	H 	0.78500 0.99140 0.66540 0.10800
C 	C 	0.72594 0.92310 0.65066 0.37700
C 	C 	0.87215 0.17627 0.73127 0.27100
H 	H 	0.89710 0.18730 0.73940 -0.05600
H 	H 	0.85290 0.15150 0.73850 -0.06500
C 	C 	0.84509 0.20964 0.75140 0.25000
C 	C 	0.83065 0.23607 0.75054 -0.23400
H 	H 	0.83060 0.24790 0.73700 0.11100
C 	C 	0.81646 0.24489 0.76946 0.08100
H 	H 	0.80610 0.26200 0.76870 -0.00500
C 	C 	0.81764 0.22798 0.78994 -0.10700
H 	H 	0.80910 0.23470 0.80290 0.07200
C 	C 	0.83144 0.20133 0.79078 -0.00000
C 	C 	0.84603 0.19331 0.77136 -0.20000
H 	H 	0.85660 0.17640 0.77210 0.11000
C 	C 	0.83327 0.18305 0.81245 0.35800
C 	C 	0.04091 0.17085 0.65658 0.41200
C 	C 	0.01474 0.14841 0.63739 -0.03700
C 	C 	0.98721 0.10783 0.63900 -0.08300
H 	H 	0.98590 0.09390 0.65200 0.05900
C 	C 	0.96169 0.08804 0.62125 0.04600
H 	H 	0.94330 0.06090 0.62230 0.00800
C 	C 	0.96369 0.10883 0.60188 -0.20500
H 	H 	0.94660 0.09560 0.59000 0.10600
C 	C 	0.99122 0.14941 0.60027 0.22100
C 	C 	0.01674 0.16920 0.61803 -0.16400
H 	H 	0.03510 0.19630 0.61700 0.09900
C 	C 	0.01166 0.20834 0.58063 0.23600
H 	H 	0.00670 0.21820 0.59450 -0.04300
H 	H 	0.04010 0.21840 0.57940 -0.04500
C 	C 	0.99726 0.22275 0.56079 -0.39700
C 	C 	0.96156 0.22240 0.56208 0.54000
C 	C 	0.95191 0.24136 0.54477 -0.41200
C 	C 	0.97856 0.26073 0.52795 0.47700
C 	C 	0.01381 0.25912 0.52596 -0.38900
C 	C 	0.02257 0.23809 0.54159 0.45200
C 	C 	0.05878 0.23321 0.53941 -0.94000
H 	H 	0.05330 0.20840 0.54610 0.30500
H 	H 	0.06500 0.23320 0.52390 0.29900
H 	H 	0.08100 0.25490 0.54690 0.28100
C 	C 	0.93442 0.20505 0.58094 -1.13200
H 	H 	0.93730 0.22600 0.59080 0.36200
H 	H 	0.90740 0.19040 0.57560 0.36900
H 	H 	0.94070 0.18730 0.58890 0.37000
C 	C 	0.96924 0.28494 0.51111 -0.99600
H 	H 	0.96240 0.30230 0.51900 0.34300
H 	H 	0.99230 0.30060 0.50190 0.34000
H 	H 	0.94720 0.26700 0.50190 0.33500
C 	C 	0.91376 0.24209 0.54614 0.24500
H 	H 	0.89500 0.22130 0.55600 -0.05400
H 	H 	0.90160 0.23840 0.53150 -0.04500
C 	C 	0.89870 0.29389 0.55276 0.23500
C 	C 	0.91320 0.33438 0.55634 -0.21000
H 	H 	0.94030 0.35140 0.55910 0.10400
C 	C 	0.88729 0.34952 0.55576 0.07000
H 	H 	0.89700 0.37660 0.55820 -0.00200
C 	C 	0.84687 0.32416 0.55161 -0.09500
H 	H 	0.82950 0.33430 0.55120 0.06800
C 	C 	0.83235 0.28366 0.54804 -0.01800
C 	C 	0.85826 0.26852 0.54862 -0.17700
H 	H 	0.84850 0.24140 0.54620 0.09900
C 	C 	0.79031 0.25761 0.54393 0.32100
C 	C 	0.04341 0.28493 0.50871 0.25300
H 	H 	0.06800 0.28450 0.51090 -0.04800
H 	H 	0.04920 0.31220 0.51070 -0.04800
C 	C 	0.04479 0.30198 0.47075 0.22100
C 	C 	0.02387 0.29184 0.45069 -0.20100
H 	H 	0.00150 0.26670 0.44890 0.10200
C 	C 	0.03643 0.31930 0.43329 0.06000
H 	H 	0.02240 0.31250 0.41990 0.00100
C 	C 	0.06994 0.35691 0.43594 -0.09900
H 	H 	0.07840 0.37530 0.42430 0.05700
C 	C 	0.09086 0.36705 0.45600 -0.01400
C 	C 	0.07830 0.33959 0.47340 -0.16900
H 	H 	0.09230 0.34640 0.48680 0.09200
C 	C 	0.12694 0.40685 0.45870 0.30900
Mn	Mn	0.17851 0.34302 0.63902 1.26300
Mn	Mn	0.11529 0.25527 0.67152 1.28800
Mn	Mn	0.04573 0.18567 0.70752 1.22200
O 	O 	0.12540 0.33681 0.61950 -0.44000
O 	O 	0.10863 0.29018 0.64353 -0.52500
O 	O 	0.95775 0.23277 0.64963 -0.31100
O 	O 	0.85818 0.20306 0.73174 -0.31200
O 	O 	0.84570 0.15873 0.81146 -0.45600
O 	O 	0.82270 0.19296 0.82963 -0.47100
O 	O 	0.80920 0.06431 0.66341 -0.28600
O 	O 	0.75130 0.91666 0.65900 -0.44400
O 	O 	0.69241 0.89625 0.64350 -0.50500
O 	O 	0.07078 0.20188 0.65250 -0.46300
O 	O 	0.02978 0.15533 0.67509 -0.49600
O 	O 	0.99084 0.16623 0.58065 -0.29700
O 	O 	0.92556 0.28201 0.55510 -0.29100
O 	O 	0.77907 0.22228 0.53760 -0.53000
O 	O 	0.76463 0.26738 0.54744 -0.38500
O 	O 	0.02992 0.27271 0.48670 -0.29200
O 	O 	0.14288 0.41716 0.47737 -0.48600
O 	O 	0.14071 0.42934 0.44167 -0.44700
O 	O 	0.22690 0.39680 0.62870 -0.25200
O 	O 	0.23530 0.39990 0.63160 -0.23900
H 	H 	0.22980 0.42100 0.62910 -0.50100
H 	H 	0.24860 0.39720 0.61880 0.54200
H 	H 	0.25720 0.39510 0.63250 -0.19100
H 	H 	0.23830 0.41890 0.64280 0.40100
H 	H 	0.21880 0.41600 0.62590 0.59400
H 	H 	0.23670 0.39170 0.61510 -0.43800
H 	H 	0.24980 0.39360 0.62790 0.12700
H 	H 	0.23200 0.41800 0.63870 -0.17200
C 	C 	0.76513 0.64049 0.96337 0.35800
C 	C 	0.72346 0.62895 0.95994 -0.01100
C 	C 	0.71358 0.65126 0.94557 -0.11600
H 	H 	0.73337 0.67083 0.93663 0.08100
C 	C 	0.67587 0.64500 0.94442 0.10100
H 	H 	0.66977 0.66013 0.93483 -0.00100
C 	C 	0.64753 0.61689 0.95717 -0.25000
H 	H 	0.62177 0.61283 0.95653 0.10500
C 	C 	0.65583 0.59321 0.97167 0.25700
C 	C 	0.69397 0.59949 0.97301 -0.19300
H 	H 	0.69987 0.58413 0.98253 0.10500
C 	C 	0.62862 0.53987 0.99847 0.24900
H 	H 	0.63677 0.52313 0.99063 -0.05300
H 	H 	0.64867 0.55533 0.00963 -0.05700
C 	C 	0.58815 0.51439 0.00944 -0.42000
C 	C 	0.55686 0.48521 0.99702 0.47900
C 	C 	0.51926 0.46617 0.00624 -0.40200
C 	C 	0.51324 0.47280 0.02840 0.50600
C 	C 	0.54528 0.50124 0.04062 -0.40500
C 	C 	0.58364 0.52431 0.03047 0.47500
C 	C 	0.61676 0.55778 0.04375 -0.99900
H 	H 	0.63267 0.57993 0.03403 0.33200
H 	H 	0.60537 0.56613 0.05533 0.33600
H 	H 	0.63337 0.54853 0.05033 0.31000
C 	C 	0.56299 0.47326 0.97363 -0.98900
H 	H 	0.58587 0.46973 0.97363 0.32600
H 	H 	0.53977 0.44873 0.96933 0.33200
H 	H 	0.56717 0.49383 0.96323 0.31300
C 	C 	0.47253 0.45017 0.03854 -1.05300
H 	H 	0.45667 0.42603 0.03023 0.35400
H 	H 	0.47467 0.44363 0.05373 0.34200
H 	H 	0.46007 0.46633 0.03813 0.33800
C 	C 	0.48359 0.43766 0.99268 0.22500
H 	H 	0.48877 0.44403 0.97693 -0.03500
H 	H 	0.46057 0.43983 0.99693 -0.03600
C 	C 	0.44292 0.36834 0.98619 0.22500
C 	C 	0.41758 0.37536 0.97289 -0.21800
H 	H 	0.42297 0.40133 0.97043 0.11000
C 	C 	0.38410 0.34350 0.96322 0.06200
H 	H 	0.36717 0.34823 0.95433 -0.00300
C 	C 	0.37595 0.30461 0.96686 -0.09900
H 	H 	0.35357 0.28333 0.96043 0.06000
C 	C 	0.40130 0.29759 0.98016 -0.03300
C 	C 	0.43478 0.32945 0.98983 -0.15800
H 	H 	0.45167 0.32473 0.99873 0.10800
C 	C 	0.39261 0.25643 0.98399 0.37700
C 	C 	0.53882 0.50960 0.06460 0.27100
H 	H 	0.56377 0.52063 0.07273 -0.05600
H 	H 	0.51957 0.48483 0.07183 -0.06500
C 	C 	0.51176 0.54297 0.08473 0.25000
C 	C 	0.49732 0.56940 0.08387 -0.23400
H 	H 	0.49727 0.58123 0.07033 0.11100
C 	C 	0.48313 0.57822 0.10279 0.08100
H 	H 	0.47277 0.59533 0.10203 -0.00500
C 	C 	0.48431 0.56131 0.12327 -0.10700
H 	H 	0.47577 0.56803 0.13623 0.07200
C 	C 	0.49811 0.53466 0.12411 -0.00000
C 	C 	0.51270 0.52664 0.10469 -0.20000
H 	H 	0.52327 0.50973 0.10543 0.11000
C 	C 	0.49994 0.51638 0.14578 0.35800
C 	C 	0.70758 0.50418 0.98991 0.41200
C 	C 	0.68141 0.48174 0.97072 -0.03700
C 	C 	0.65388 0.44116 0.97233 -0.08300
H 	H 	0.65257 0.42723 0.98533 0.05900
C 	C 	0.62836 0.42137 0.95458 0.04600
H 	H 	0.60997 0.39423 0.95563 0.00800
C 	C 	0.63036 0.44216 0.93521 -0.20500
H 	H 	0.61327 0.42893 0.92333 0.10600
C 	C 	0.65789 0.48274 0.93360 0.22100
C 	C 	0.68341 0.50253 0.95136 -0.16400
H 	H 	0.70177 0.52963 0.95033 0.09900
C 	C 	0.67833 0.54167 0.91396 0.23600
H 	H 	0.67337 0.55153 0.92783 -0.04300
H 	H 	0.70677 0.55173 0.91273 -0.04500
C 	C 	0.66393 0.55608 0.89412 -0.39700
C 	C 	0.62823 0.55573 0.89541 0.54000
C 	C 	0.61858 0.57469 0.87810 -0.41200
C 	C 	0.64523 0.59406 0.86128 0.47700
C 	C 	0.68048 0.59245 0.85929 -0.38900
C 	C 	0.68924 0.57142 0.87492 0.45200
C 	C 	0.72545 0.56654 0.87274 -0.94000
H 	H 	0.71997 0.54173 0.87943 0.30500
H 	H 	0.73167 0.56653 0.85723 0.29900
H 	H 	0.74767 0.58823 0.88023 0.28100
C 	C 	0.60109 0.53838 0.91427 -1.13200
H 	H 	0.60397 0.55933 0.92413 0.36200
H 	H 	0.57407 0.52373 0.90893 0.36900
H 	H 	0.60737 0.52063 0.92223 0.37000
C 	C 	0.63591 0.61827 0.84444 -0.99600
H 	H 	0.62907 0.63563 0.85233 0.34300
H 	H 	0.65897 0.63393 0.83523 0.34000
H 	H 	0.61387 0.60033 0.83523 0.33500
C 	C 	0.58043 0.57542 0.87947 0.24500
H 	H 	0.56167 0.55463 0.88933 -0.05400
H 	H 	0.56827 0.57173 0.86483 -0.04500
C 	C 	0.56537 0.62722 0.88609 0.23500
C 	C 	0.57987 0.66771 0.88967 -0.21000
H 	H 	0.60697 0.68473 0.89243 0.10400
C 	C 	0.55396 0.68285 0.88909 0.07000
H 	H 	0.56367 0.70993 0.89153 -0.00200
C 	C 	0.51354 0.65749 0.88494 -0.09500
H 	H 	0.49617 0.66763 0.88453 0.06800
C 	C 	0.49902 0.61699 0.88137 -0.01700
C 	C 	0.52493 0.60185 0.88195 -0.17700
H 	H 	0.51517 0.57473 0.87953 0.09900
C 	C 	0.45698 0.59094 0.87726 0.32100
C 	C 	0.71008 0.61826 0.84204 0.25300
H 	H 	0.73467 0.61783 0.84423 -0.04800
H 	H 	0.71587 0.64553 0.84403 -0.04800
C 	C 	0.71146 0.63531 0.80408 0.22100
C 	C 	0.69054 0.62517 0.78402 -0.20100
H 	H 	0.66817 0.60003 0.78223 0.10200
C 	C 	0.70310 0.65263 0.76662 0.06000
H 	H 	0.68907 0.64583 0.75323 0.00100
C 	C 	0.73661 0.69024 0.76927 -0.09900
H 	H 	0.74507 0.70863 0.75763 0.05700
C 	C 	0.75753 0.70038 0.78933 -0.01400
C 	C 	0.74497 0.67292 0.80673 -0.16900
H 	H 	0.75897 0.67973 0.82013 0.09200
C 	C 	0.79361 0.74018 0.79203 0.30900
Mn	Mn	0.84518 0.67635 0.97235 1.26300
Mn	Mn	0.78196 0.58861 0.00485 1.28800
Mn	Mn	0.71239 0.51900 0.04085 1.22200
O 	O 	0.79207 0.67014 0.95283 -0.44000
O 	O 	0.77530 0.62351 0.97686 -0.52500
O 	O 	0.62442 0.56610 0.98296 -0.31100
O 	O 	0.52485 0.53639 0.06507 -0.31200
O 	O 	0.51237 0.49206 0.14479 -0.45600
O 	O 	0.48937 0.52629 0.16296 -0.47100
O 	O 	0.47587 0.39764 0.99674 -0.28600
O 	O 	0.41797 0.24999 0.99233 -0.44400
O 	O 	0.35908 0.22958 0.97683 -0.50500
O 	O 	0.73745 0.53521 0.98583 -0.46300
O 	O 	0.69645 0.48866 0.00842 -0.49600
O 	O 	0.65751 0.49956 0.91398 -0.29700
O 	O 	0.59223 0.61534 0.88843 -0.29100
O 	O 	0.44574 0.55561 0.87093 -0.53000
O 	O 	0.43130 0.60071 0.88077 -0.38500
O 	O 	0.69659 0.60604 0.82003 -0.29200
O 	O 	0.80955 0.75049 0.81070 -0.48600
O 	O 	0.80738 0.76267 0.77500 -0.44700
O 	O 	0.89357 0.73013 0.96203 -0.25200
O 	O 	0.90197 0.73323 0.96493 -0.23900
H 	H 	0.89647 0.75433 0.96243 -0.50100
H 	H 	0.91527 0.73053 0.95213 0.54200
H 	H 	0.92387 0.72843 0.96583 -0.19100
H 	H 	0.90497 0.75223 0.97613 0.40100
H 	H 	0.88547 0.74933 0.95923 0.59400
H 	H 	0.90337 0.72503 0.94843 -0.43800
H 	H 	0.91647 0.72693 0.96123 0.12700
H 	H 	0.89867 0.75133 0.97203 -0.17200
C 	C 	0.43179 0.97383 0.29671 0.35800
C 	C 	0.39012 0.96229 0.29328 -0.01100
C 	C 	0.38024 0.98460 0.27891 -0.11600
H 	H 	0.40003 0.00417 0.26997 0.08100
C 	C 	0.34253 0.97834 0.27776 0.10100
H 	H 	0.33643 0.99347 0.26817 -0.00100
C 	C 	0.31419 0.95023 0.29051 -0.25000
H 	H 	0.28843 0.94617 0.28987 0.10500
C 	C 	0.32249 0.92655 0.30501 0.25700
C 	C 	0.36063 0.93283 0.30635 -0.19300
H 	H 	0.36653 0.91747 0.31587 0.10500
C 	C 	0.29528 0.87321 0.33181 0.24900
H 	H 	0.30343 0.85647 0.32397 -0.05300
H 	H 	0.31533 0.88867 0.34297 -0.05700
C 	C 	0.25481 0.84773 0.34278 -0.42000
C 	C 	0.22352 0.81855 0.33036 0.47900
C 	C 	0.18592 0.79951 0.33958 -0.40200
C 	C 	0.17990 0.80614 0.36174 0.50600
C 	C 	0.21194 0.83458 0.37396 -0.40500
C 	C 	0.25030 0.85765 0.36381 0.47500
C 	C 	0.28342 0.89112 0.37709 -0.99900
H 	H 	0.29933 0.91327 0.36737 0.33200
H 	H 	0.27203 0.89947 0.38867 0.33600
H 	H 	0.30003 0.88187 0.38367 0.31000
C 	C 	0.22965 0.80660 0.30697 -0.98900
H 	H 	0.25253 0.80307 0.30697 0.32600
H 	H 	0.20643 0.78207 0.30267 0.33200
H 	H 	0.23383 0.82717 0.29657 0.31300
C 	C 	0.13919 0.78351 0.37188 -1.05300
H 	H 	0.12333 0.75937 0.36357 0.35400
H 	H 	0.14133 0.77697 0.38707 0.34200
H 	H 	0.12673 0.79967 0.37147 0.33800
C 	C 	0.15025 0.77100 0.32602 0.22500
H 	H 	0.15543 0.77737 0.31027 -0.03500
H 	H 	0.12723 0.77317 0.33027 -0.03600
C 	C 	0.10958 0.70168 0.31953 0.22500
C 	C 	0.08424 0.70870 0.30623 -0.21800
H 	H 	0.08963 0.73467 0.30377 0.11000
C 	C 	0.05076 0.67684 0.29656 0.06200
H 	H 	0.03383 0.68157 0.28767 -0.00300
C 	C 	0.04261 0.63795 0.30020 -0.09900
H 	H 	0.02023 0.61667 0.29377 0.06000
C 	C 	0.06796 0.63093 0.31350 -0.03300
C 	C 	0.10144 0.66279 0.32317 -0.15800
H 	H 	0.11833 0.65807 0.33207 0.10800
C 	C 	0.05927 0.58977 0.31733 0.37700
C 	C 	0.20548 0.84294 0.39794 0.27100
H 	H 	0.23043 0.85397 0.40607 -0.05600
H 	H 	0.18623 0.81817 0.40517 -0.06500
C 	C 	0.17842 0.87631 0.41807 0.25000
C 	C 	0.16398 0.90274 0.41721 -0.23400
H 	H 	0.16393 0.91457 0.40367 0.11100
C 	C 	0.14979 0.91156 0.43613 0.08100
H 	H 	0.13943 0.92867 0.43537 -0.00500
C 	C 	0.15097 0.89465 0.45661 -0.10700
H 	H 	0.14243 0.90137 0.46957 0.07200
C 	C 	0.16477 0.86800 0.45745 -0.00000
C 	C 	0.17936 0.85998 0.43803 -0.20000
H 	H 	0.18993 0.84307 0.43877 0.11000
C 	C 	0.16660 0.84972 0.47912 0.35800
C 	C 	0.37424 0.83752 0.32325 0.41200
C 	C 	0.34807 0.81508 0.30406 -0.03700
C 	C 	0.32054 0.77450 0.30567 -0.08300
H 	H 	0.31923 0.76057 0.31867 0.05900
C 	C 	0.29502 0.75471 0.28792 0.04600
H 	H 	0.27663 0.72757 0.28897 0.00800
C 	C 	0.29702 0.77550 0.26855 -0.20500
H 	H 	0.27993 0.76227 0.25667 0.10600
C 	C 	0.32455 0.81608 0.26694 0.22100
C 	C 	0.35007 0.83587 0.28470 -0.16400
H 	H 	0.36843 0.86297 0.28367 0.09900
C 	C 	0.34499 0.87501 0.24730 0.23600
H 	H 	0.34003 0.88487 0.26117 -0.04300
H 	H 	0.37343 0.88507 0.24607 -0.04500
C 	C 	0.33059 0.88942 0.22746 -0.39700
C 	C 	0.29489 0.88907 0.22875 0.54000
C 	C 	0.28524 0.90803 0.21144 -0.41200
C 	C 	0.31189 0.92740 0.19462 0.47700
C 	C 	0.34714 0.92579 0.19263 -0.38900
C 	C 	0.35590 0.90476 0.20826 0.45200
C 	C 	0.39211 0.89988 0.20608 -0.94000
H 	H 	0.38663 0.87507 0.21277 0.30500
H 	H 	0.39833 0.89987 0.19057 0.29900
H 	H 	0.41433 0.92157 0.21357 0.28100
C 	C 	0.26775 0.87172 0.24761 -1.13200
H 	H 	0.27063 0.89267 0.25747 0.36200
H 	H 	0.24073 0.85707 0.24227 0.36900
H 	H 	0.27403 0.85397 0.25557 0.37000
C 	C 	0.30257 0.95161 0.17778 -0.99600
H 	H 	0.29573 0.96897 0.18567 0.34300
H 	H 	0.32563 0.96727 0.16857 0.34000
H 	H 	0.28053 0.93367 0.16857 0.33500
C 	C 	0.24709 0.90876 0.21281 0.24500
H 	H 	0.22833 0.88797 0.22267 -0.05400
H 	H 	0.23493 0.90507 0.19817 -0.04500
C 	C 	0.23203 0.96056 0.21943 0.23500
C 	C 	0.24653 0.00105 0.22301 -0.21000
H 	H 	0.27363 0.01807 0.22577 0.10400
C 	C 	0.22062 0.01619 0.22243 0.07000
H 	H 	0.23033 0.04327 0.22487 -0.00200
C 	C 	0.18020 0.99083 0.21828 -0.09500
H 	H 	0.16283 0.00097 0.21787 0.06800
C 	C 	0.16568 0.95033 0.21471 -0.01800
C 	C 	0.19159 0.93519 0.21529 -0.17700
H 	H 	0.18183 0.90807 0.21287 0.09900
C 	C 	0.12364 0.92428 0.21060 0.32100
C 	C 	0.37674 0.95160 0.17538 0.25300
H 	H 	0.40133 0.95117 0.17757 -0.04800
H 	H 	0.38253 0.97887 0.17737 -0.04800
C 	C 	0.37812 0.96865 0.13742 0.22100
C 	C 	0.35720 0.95851 0.11736 -0.20100
H 	H 	0.33483 0.93337 0.11557 0.10200
C 	C 	0.36976 0.98597 0.09996 0.06000
H 	H 	0.35573 0.97917 0.08657 0.00100
C 	C 	0.40327 0.02358 0.10261 -0.09900
H 	H 	0.41173 0.04197 0.09097 0.05700
C 	C 	0.42419 0.03372 0.12267 -0.01400
C 	C 	0.41163 0.00626 0.14007 -0.16900
H 	H 	0.42563 0.01307 0.15347 0.09200
C 	C 	0.46027 0.07352 0.12537 0.30900
Mn	Mn	0.51185 0.00968 0.30569 1.26300
Mn	Mn	0.44863 0.92194 0.33818 1.28800
Mn	Mn	0.37906 0.85234 0.37418 1.22200
O 	O 	0.45873 0.00348 0.28617 -0.44000
O 	O 	0.44196 0.95685 0.31020 -0.52500
O 	O 	0.29108 0.89944 0.31630 -0.31100
O 	O 	0.19151 0.86973 0.39841 -0.31200
O 	O 	0.17903 0.82540 0.47813 -0.45600
O 	O 	0.15603 0.85963 0.49630 -0.47100
O 	O 	0.14253 0.73098 0.33008 -0.28600
O 	O 	0.08463 0.58333 0.32567 -0.44400
O 	O 	0.02574 0.56292 0.31017 -0.50500
O 	O 	0.40411 0.86855 0.31917 -0.46300
O 	O 	0.36311 0.82200 0.34176 -0.49600
O 	O 	0.32417 0.83290 0.24732 -0.29700
O 	O 	0.25889 0.94868 0.22177 -0.29100
O 	O 	0.11240 0.88895 0.20427 -0.53000
O 	O 	0.09796 0.93405 0.21411 -0.38500
O 	O 	0.36325 0.93938 0.15337 -0.29200
O 	O 	0.47621 0.08383 0.14404 -0.48600
O 	O 	0.47404 0.09601 0.10834 -0.44700
O 	O 	0.56023 0.06347 0.29537 -0.25200
O 	O 	0.56863 0.06657 0.29827 -0.23900
H 	H 	0.56313 0.08767 0.29577 -0.50100
H 	H 	0.58193 0.06387 0.28547 0.54200
H 	H 	0.59053 0.06177 0.29917 -0.19100
H 	H 	0.57163 0.08557 0.30947 0.40100
H 	H 	0.55213 0.08267 0.29257 0.59400
H 	H 	0.57003 0.05837 0.28177 -0.43800
H 	H 	0.58313 0.06027 0.29457 0.12700
H 	H 	0.56533 0.08467 0.30537 -0.17200
C 	C 	0.79130 0.69284 0.86996 0.35800
C 	C 	0.76117 0.70438 0.87339 -0.01100
C 	C 	0.72898 0.68207 0.88776 -0.11600
H 	H 	0.72920 0.66250 0.89670 0.08100
C 	C 	0.69753 0.68833 0.88891 0.10100
H 	H 	0.67630 0.67320 0.89850 -0.00100
C 	C 	0.69730 0.71644 0.87616 -0.25000
H 	H 	0.67560 0.72050 0.87680 0.10500
C 	C 	0.72928 0.74012 0.86166 0.25700
C 	C 	0.76114 0.73384 0.86032 -0.19300
H 	H 	0.78240 0.74920 0.85080 0.10500
C 	C 	0.75541 0.79346 0.83486 0.24900
H 	H 	0.78030 0.81020 0.84270 -0.05300
H 	H 	0.76000 0.77800 0.82370 -0.05700
C 	C 	0.74042 0.81894 0.82389 -0.42000
C 	C 	0.73831 0.84812 0.83631 0.47900
C 	C 	0.71975 0.86716 0.82709 -0.40200
C 	C 	0.70710 0.86053 0.80493 0.50600
C 	C 	0.71070 0.83209 0.79271 -0.40500
C 	C 	0.72599 0.80902 0.80286 0.47500
C 	C 	0.72564 0.77555 0.78958 -0.99900
H 	H 	0.71940 0.75340 0.79930 0.33200
H 	H 	0.70590 0.76720 0.77800 0.33600
H 	H 	0.75150 0.78480 0.78300 0.31000
C 	C 	0.75639 0.86007 0.85970 -0.98900
H 	H 	0.78280 0.86360 0.85970 0.32600
H 	H 	0.75770 0.88460 0.86400 0.33200
H 	H 	0.74000 0.83950 0.87010 0.31300
C 	C 	0.68902 0.88316 0.79479 -1.05300
H 	H 	0.69730 0.90730 0.80310 0.35400
H 	H 	0.69770 0.88970 0.77960 0.34200
H 	H 	0.66040 0.86700 0.79520 0.33800
C 	C 	0.71259 0.89567 0.84065 0.22500
H 	H 	0.71140 0.88930 0.85640 -0.03500
H 	H 	0.68740 0.89350 0.83640 -0.03600
C 	C 	0.74124 0.96499 0.84714 0.22500
C 	C 	0.70888 0.95797 0.86044 -0.21800
H 	H 	0.68830 0.93200 0.86290 0.11000
C 	C 	0.70726 0.98983 0.87011 0.06200
H 	H 	0.68560 0.98510 0.87900 -0.00300
C 	C 	0.73800 0.02872 0.86647 -0.09900
H 	H 	0.73690 0.05000 0.87290 0.06000
C 	C 	0.77037 0.03574 0.85317 -0.03300
C 	C 	0.77199 0.00388 0.84350 -0.15800
H 	H 	0.79360 0.00860 0.83460 0.10800
C 	C 	0.80284 0.07690 0.84934 0.37700
C 	C 	0.69588 0.82373 0.76873 0.27100
H 	H 	0.70980 0.81270 0.76060 -0.05600
H 	H 	0.70140 0.84850 0.76150 -0.06500
C 	C 	0.63545 0.79036 0.74860 0.25000
C 	C 	0.59458 0.76393 0.74946 -0.23400
H 	H 	0.58270 0.75210 0.76300 0.11100
C 	C 	0.57157 0.75511 0.73054 0.08100
H 	H 	0.54410 0.73800 0.73130 -0.00500
C 	C 	0.58966 0.77202 0.71006 -0.10700
H 	H 	0.57440 0.76530 0.69710 0.07200
C 	C 	0.63011 0.79867 0.70922 -0.00000
C 	C 	0.65272 0.80669 0.72864 -0.20000
H 	H 	0.68020 0.82360 0.72790 0.11000
C 	C 	0.65022 0.81695 0.68755 0.35800
C 	C 	0.87006 0.82915 0.84342 0.41200
C 	C 	0.86633 0.85159 0.86261 -0.03700
C 	C 	0.87938 0.89217 0.86100 -0.08300
H 	H 	0.89200 0.90610 0.84800 0.05900
C 	C 	0.87365 0.91196 0.87875 0.04600
H 	H 	0.88240 0.93910 0.87770 0.00800
C 	C 	0.85486 0.89117 0.89812 -0.20500
H 	H 	0.85100 0.90440 0.91000 0.10600
C 	C 	0.84181 0.85059 0.89973 0.22100
C 	C 	0.84754 0.83080 0.88197 -0.16400
H 	H 	0.83880 0.80370 0.88300 0.09900
C 	C 	0.80332 0.79166 0.91937 0.23600
H 	H 	0.78850 0.78180 0.90550 -0.04300
H 	H 	0.82170 0.78160 0.92060 -0.04500
C 	C 	0.77451 0.77725 0.93921 -0.39700
C 	C 	0.73916 0.77760 0.93792 0.54000
C 	C 	0.71055 0.75864 0.95523 -0.41200
C 	C 	0.71783 0.73927 0.97205 0.47700
C 	C 	0.75469 0.74088 0.97404 -0.38900
C 	C 	0.78448 0.76191 0.95841 0.45200
C 	C 	0.82557 0.76679 0.96059 -0.94000
H 	H 	0.84490 0.79160 0.95390 0.30500
H 	H 	0.83180 0.76680 0.97610 0.29900
H 	H 	0.82610 0.74510 0.95310 0.28100
C 	C 	0.72937 0.79495 0.91906 -1.13200
H 	H 	0.71130 0.77400 0.90920 0.36200
H 	H 	0.71700 0.80960 0.92440 0.36900
H 	H 	0.75340 0.81270 0.91110 0.37000
C 	C 	0.68430 0.71506 0.98889 -0.99600
H 	H 	0.66010 0.69770 0.98100 0.34300
H 	H 	0.69170 0.69940 0.99810 0.34000
H 	H 	0.68020 0.73300 0.99810 0.33500
C 	C 	0.67167 0.75791 0.95386 0.24500
H 	H 	0.67370 0.77870 0.94400 -0.05400
H 	H 	0.66320 0.76160 0.96850 -0.04500
C 	C 	0.60481 0.70611 0.94724 0.23500
C 	C 	0.57882 0.66562 0.94366 -0.21000
H 	H 	0.58890 0.64860 0.94090 0.10400
C 	C 	0.53777 0.65048 0.94424 0.07000
H 	H 	0.52040 0.62340 0.94180 -0.00200
C 	C 	0.52271 0.67584 0.94839 -0.09500
H 	H 	0.49520 0.66570 0.94880 0.06800
C 	C 	0.54869 0.71634 0.95196 -0.01800
C 	C 	0.58974 0.73148 0.95138 -0.17700
H 	H 	0.60710 0.75860 0.95380 0.09900
C 	C 	0.53270 0.74239 0.95607 0.32100
C 	C 	0.75848 0.71507 0.99129 0.25300
H 	H 	0.78350 0.71550 0.98910 -0.04800
H 	H 	0.73700 0.68780 0.98930 -0.04800
C 	C 	0.74281 0.69802 0.02925 0.22100
C 	C 	0.73203 0.70816 0.04931 -0.20100
H 	H 	0.73480 0.73330 0.05110 0.10200
C 	C 	0.71713 0.68070 0.06671 0.06000
H 	H 	0.70990 0.68750 0.08010 0.00100
C 	C 	0.71303 0.64309 0.06406 -0.09900
H 	H 	0.70310 0.62470 0.07570 0.05700
C 	C 	0.72381 0.63295 0.04400 -0.01400
C 	C 	0.73871 0.66041 0.02660 -0.16900
H 	H 	0.74590 0.65360 0.01320 0.09200
C 	C 	0.72009 0.59315 0.04130 0.30900
Mn	Mn	0.83550 0.65698 0.86098 1.26300
Mn	Mn	0.86002 0.74473 0.82848 1.28800
Mn	Mn	0.86006 0.81433 0.79248 1.22200
O 	O 	0.78859 0.66319 0.88050 -0.44000
O 	O 	0.81845 0.70982 0.85647 -0.52500
O 	O 	0.72498 0.76723 0.85037 -0.31100
O 	O 	0.65512 0.79694 0.76826 -0.31200
O 	O 	0.68697 0.84127 0.68854 -0.45600
O 	O 	0.62974 0.80704 0.67037 -0.47100
O 	O 	0.74489 0.93569 0.83659 -0.28600
O 	O 	0.83464 0.08334 0.84100 -0.44400
O 	O 	0.79616 0.10375 0.85650 -0.50500
O 	O 	0.86890 0.79812 0.84750 -0.46300
O 	O 	0.87445 0.84467 0.82491 -0.49600
O 	O 	0.82461 0.83377 0.91935 -0.29700
O 	O 	0.64355 0.71799 0.94490 -0.29100
O 	O 	0.55679 0.77772 0.96240 -0.53000
O 	O 	0.49725 0.73262 0.95256 -0.38500
O 	O 	0.75721 0.72729 0.01330 -0.29200
O 	O 	0.72572 0.58284 0.02263 -0.48600
O 	O 	0.71137 0.57066 0.05833 -0.44700
O 	O 	0.83010 0.60320 0.87130 -0.25200
O 	O 	0.83540 0.60010 0.86840 -0.23900
H 	H 	0.80880 0.57900 0.87090 -0.50100
H 	H 	0.85140 0.60280 0.88120 0.54200
H 	H 	0.86210 0.60490 0.86750 -0.19100
H 	H 	0.81940 0.58110 0.85720 0.40100
H 	H 	0.80280 0.58400 0.87410 0.59400
H 	H 	0.84500 0.60830 0.88490 -0.43800
H 	H 	0.85620 0.60640 0.87210 0.12700
H 	H 	0.81400 0.58200 0.86130 -0.17200
C 	C 	0.45797 0.02617 0.20329 0.35800
C 	C 	0.42784 0.03771 0.20672 -0.01100
C 	C 	0.39565 0.01540 0.22109 -0.11600
H 	H 	0.39587 0.99583 0.23003 0.08100
C 	C 	0.36420 0.02166 0.22224 0.10100
H 	H 	0.34297 0.00653 0.23183 -0.00100
C 	C 	0.36397 0.04977 0.20949 -0.25000
H 	H 	0.34227 0.05383 0.21013 0.10500
C 	C 	0.39595 0.07345 0.19499 0.25700
C 	C 	0.42781 0.06717 0.19365 -0.19300
H 	H 	0.44907 0.08253 0.18413 0.10500
C 	C 	0.42208 0.12679 0.16819 0.24900
H 	H 	0.44697 0.14353 0.17603 -0.05300
H 	H 	0.42667 0.11133 0.15703 -0.05700
C 	C 	0.40709 0.15227 0.15722 -0.42000
C 	C 	0.40498 0.18145 0.16964 0.47900
C 	C 	0.38642 0.20049 0.16042 -0.40200
C 	C 	0.37377 0.19386 0.13826 0.50600
C 	C 	0.37737 0.16542 0.12604 -0.40500
C 	C 	0.39266 0.14235 0.13619 0.47500
C 	C 	0.39231 0.10888 0.12291 -0.99900
H 	H 	0.38607 0.08673 0.13263 0.33200
H 	H 	0.37257 0.10053 0.11133 0.33600
H 	H 	0.41817 0.11813 0.11633 0.31000
C 	C 	0.42306 0.19340 0.19303 -0.98900
H 	H 	0.44947 0.19693 0.19303 0.32600
H 	H 	0.42437 0.21793 0.19733 0.33200
H 	H 	0.40667 0.17283 0.20343 0.31300
C 	C 	0.35569 0.21649 0.12812 -1.05300
H 	H 	0.36397 0.24063 0.13643 0.35400
H 	H 	0.36437 0.22303 0.11293 0.34200
H 	H 	0.32707 0.20033 0.12853 0.33800
C 	C 	0.37926 0.22900 0.17398 0.22500
H 	H 	0.37807 0.22263 0.18973 -0.03500
H 	H 	0.35407 0.22683 0.16973 -0.03600
C 	C 	0.40791 0.29832 0.18047 0.22500
C 	C 	0.37555 0.29130 0.19377 -0.21800
H 	H 	0.35497 0.26533 0.19623 0.11000
C 	C 	0.37393 0.32316 0.20344 0.06200
H 	H 	0.35227 0.31843 0.21233 -0.00300
C 	C 	0.40467 0.36205 0.19980 -0.09900
H 	H 	0.40357 0.38333 0.20623 0.06000
C 	C 	0.43704 0.36907 0.18650 -0.03300
C 	C 	0.43866 0.33721 0.17683 -0.15800
H 	H 	0.46027 0.34193 0.16793 0.10800
C 	C 	0.46951 0.41023 0.18267 0.37700
C 	C 	0.36255 0.15706 0.10206 0.27100
H 	H 	0.37647 0.14603 0.09393 -0.05600
H 	H 	0.36807 0.18183 0.09483 -0.06500
C 	C 	0.30212 0.12369 0.08193 0.25000
C 	C 	0.26125 0.09726 0.08279 -0.23400
H 	H 	0.24937 0.08543 0.09633 0.11100
C 	C 	0.23824 0.08844 0.06387 0.08100
H 	H 	0.21077 0.07133 0.06463 -0.00500
C 	C 	0.25633 0.10535 0.04339 -0.10700
H 	H 	0.24107 0.09863 0.03043 0.07200
C 	C 	0.29678 0.13200 0.04255 -0.00000
C 	C 	0.31939 0.14002 0.06197 -0.20000
H 	H 	0.34687 0.15693 0.06123 0.11000
C 	C 	0.31689 0.15028 0.02088 0.35800
C 	C 	0.53673 0.16248 0.17675 0.41200
C 	C 	0.53300 0.18492 0.19594 -0.03700
C 	C 	0.54605 0.22550 0.19433 -0.08300
H 	H 	0.55867 0.23943 0.18133 0.05900
C 	C 	0.54032 0.24529 0.21208 0.04600
H 	H 	0.54907 0.27243 0.21103 0.00800
C 	C 	0.52153 0.22450 0.23145 -0.20500
H 	H 	0.51767 0.23773 0.24333 0.10600
C 	C 	0.50848 0.18392 0.23306 0.22100
C 	C 	0.51421 0.16413 0.21530 -0.16400
H 	H 	0.50547 0.13703 0.21633 0.09900
C 	C 	0.46999 0.12499 0.25270 0.23600
H 	H 	0.45517 0.11513 0.23883 -0.04300
H 	H 	0.48837 0.11493 0.25393 -0.04500
C 	C 	0.44118 0.11058 0.27254 -0.39700
C 	C 	0.40583 0.11093 0.27125 0.54000
C 	C 	0.37722 0.09197 0.28856 -0.41200
C 	C 	0.38450 0.07260 0.30538 0.47700
C 	C 	0.42136 0.07421 0.30737 -0.38900
C 	C 	0.45115 0.09524 0.29174 0.45200
C 	C 	0.49224 0.10012 0.29392 -0.94000
H 	H 	0.51157 0.12493 0.28723 0.30500
H 	H 	0.49847 0.10013 0.30943 0.29900
H 	H 	0.49277 0.07843 0.28643 0.28100
C 	C 	0.39604 0.12828 0.25239 -1.13200
H 	H 	0.37797 0.10733 0.24253 0.36200
H 	H 	0.38367 0.14293 0.25773 0.36900
H 	H 	0.42007 0.14603 0.24443 0.37000
C 	C 	0.35097 0.04839 0.32222 -0.99600
H 	H 	0.32677 0.03103 0.31433 0.34300
H 	H 	0.35837 0.03273 0.33143 0.34000
H 	H 	0.34687 0.06633 0.33143 0.33500
C 	C 	0.33834 0.09124 0.28719 0.24500
H 	H 	0.34037 0.11203 0.27733 -0.05400
H 	H 	0.32987 0.09493 0.30183 -0.04500
C 	C 	0.27148 0.03944 0.28057 0.23500
C 	C 	0.24549 0.99895 0.27699 -0.21000
H 	H 	0.25557 0.98193 0.27423 0.10400
C 	C 	0.20444 0.98381 0.27757 0.07000
H 	H 	0.18707 0.95673 0.27513 -0.00200
C 	C 	0.18938 0.00917 0.28172 -0.09500
H 	H 	0.16187 0.99903 0.28213 0.06800
C 	C 	0.21536 0.04967 0.28529 -0.01800
C 	C 	0.25641 0.06481 0.28471 -0.17700
H 	H 	0.27377 0.09193 0.28713 0.09900
C 	C 	0.19937 0.07572 0.28940 0.32100
C 	C 	0.42515 0.04840 0.32462 0.25300
H 	H 	0.45017 0.04883 0.32243 -0.04800
H 	H 	0.40367 0.02113 0.32263 -0.04800
C 	C 	0.40948 0.03135 0.36258 0.22100
C 	C 	0.39870 0.04149 0.38264 -0.20100
H 	H 	0.40147 0.06663 0.38443 0.10200
C 	C 	0.38380 0.01403 0.40004 0.06000
H 	H 	0.37657 0.02083 0.41343 0.00100
C 	C 	0.37970 0.97642 0.39739 -0.09900
H 	H 	0.36977 0.95803 0.40903 0.05700
C 	C 	0.39048 0.96628 0.37733 -0.01400
C 	C 	0.40538 0.99374 0.35993 -0.16900
H 	H 	0.41257 0.98693 0.34653 0.09200
C 	C 	0.38676 0.92648 0.37463 0.30900
Mn	Mn	0.50216 0.99032 0.19431 1.26300
Mn	Mn	0.52669 0.07806 0.16182 1.28800
Mn	Mn	0.52672 0.14766 0.12582 1.22200
O 	O 	0.45526 0.99652 0.21383 -0.44000
O 	O 	0.48512 0.04315 0.18980 -0.52500
O 	O 	0.39165 0.10056 0.18370 -0.31100
O 	O 	0.32179 0.13027 0.10159 -0.31200
O 	O 	0.35364 0.17460 0.02187 -0.45600
O 	O 	0.29641 0.14037 0.00370 -0.47100
O 	O 	0.41156 0.26902 0.16992 -0.28600
O 	O 	0.50131 0.41667 0.17433 -0.44400
O 	O 	0.46283 0.43708 0.18983 -0.50500
O 	O 	0.53557 0.13145 0.18083 -0.46300
O 	O 	0.54112 0.17800 0.15824 -0.49600
O 	O 	0.49128 0.16710 0.25268 -0.29700
O 	O 	0.31022 0.05132 0.27823 -0.29100
O 	O 	0.22346 0.11105 0.29573 -0.53000
O 	O 	0.16392 0.06595 0.28589 -0.38500
O 	O 	0.42388 0.06062 0.34663 -0.29200
O 	O 	0.39239 0.91617 0.35596 -0.48600
O 	O 	0.37804 0.90399 0.39166 -0.44700
O 	O 	0.49677 0.93653 0.20463 -0.25200
O 	O 	0.50207 0.93343 0.20173 -0.23900
H 	H 	0.47547 0.91233 0.20423 -0.50100
H 	H 	0.51807 0.93613 0.21453 0.54200
H 	H 	0.52877 0.93823 0.20083 -0.19100
H 	H 	0.48607 0.91443 0.19053 0.40100
H 	H 	0.46947 0.91733 0.20743 0.59400
H 	H 	0.51167 0.94163 0.21823 -0.43800
H 	H 	0.52287 0.93973 0.20543 0.12700
H 	H 	0.48067 0.91533 0.19463 -0.17200
C 	C 	0.12463 0.35951 0.53663 0.35800
C 	C 	0.09450 0.37105 0.54006 -0.01100
C 	C 	0.06231 0.34874 0.55443 -0.11600
H 	H 	0.06253 0.32917 0.56337 0.08100
C 	C 	0.03086 0.35500 0.55558 0.10100
H 	H 	0.00963 0.33987 0.56517 -0.00100
C 	C 	0.03063 0.38311 0.54283 -0.25000
H 	H 	0.00893 0.38717 0.54347 0.10500
C 	C 	0.06261 0.40679 0.52833 0.25700
C 	C 	0.09447 0.40051 0.52699 -0.19300
H 	H 	0.11573 0.41587 0.51747 0.10500
C 	C 	0.08874 0.46013 0.50153 0.24900
H 	H 	0.11363 0.47687 0.50937 -0.05300
H 	H 	0.09333 0.44467 0.49037 -0.05700
C 	C 	0.07375 0.48561 0.49056 -0.42000
C 	C 	0.07164 0.51479 0.50298 0.47900
C 	C 	0.05308 0.53383 0.49376 -0.40200
C 	C 	0.04043 0.52720 0.47160 0.50600
C 	C 	0.04403 0.49876 0.45938 -0.40500
C 	C 	0.05932 0.47569 0.46953 0.47500
C 	C 	0.05897 0.44222 0.45625 -0.99900
H 	H 	0.05273 0.42007 0.46597 0.33200
H 	H 	0.03923 0.43387 0.44467 0.33600
H 	H 	0.08483 0.45147 0.44967 0.31000
C 	C 	0.08972 0.52674 0.52637 -0.98900
H 	H 	0.11613 0.53027 0.52637 0.32600
H 	H 	0.09103 0.55127 0.53067 0.33200
H 	H 	0.07333 0.50617 0.53677 0.31300
C 	C 	0.02235 0.54983 0.46146 -1.05300
H 	H 	0.03063 0.57397 0.46977 0.35400
H 	H 	0.03103 0.55637 0.44627 0.34200
H 	H 	0.99373 0.53367 0.46187 0.33800
C 	C 	0.04592 0.56234 0.50732 0.22500
H 	H 	0.04473 0.55597 0.52307 -0.03500
H 	H 	0.02073 0.56017 0.50307 -0.03600
C 	C 	0.07457 0.63166 0.51381 0.22500
C 	C 	0.04221 0.62464 0.52711 -0.21800
H 	H 	0.02163 0.59867 0.52957 0.11000
C 	C 	0.04059 0.65650 0.53678 0.06200
H 	H 	0.01893 0.65177 0.54567 -0.00300
C 	C 	0.07133 0.69539 0.53314 -0.09900
H 	H 	0.07023 0.71667 0.53957 0.06000
C 	C 	0.10370 0.70241 0.51984 -0.03300
C 	C 	0.10532 0.67055 0.51017 -0.15800
H 	H 	0.12693 0.67527 0.50127 0.10800
C 	C 	0.13617 0.74357 0.51601 0.37700
C 	C 	0.02921 0.49040 0.43540 0.27100
H 	H 	0.04313 0.47937 0.42727 -0.05600
H 	H 	0.03473 0.51517 0.42817 -0.06500
C 	C 	0.96878 0.45703 0.41527 0.25000
C 	C 	0.92791 0.43060 0.41613 -0.23400
H 	H 	0.91603 0.41877 0.42967 0.11100
C 	C 	0.90490 0.42178 0.39721 0.08100
H 	H 	0.87743 0.40467 0.39797 -0.00500
C 	C 	0.92299 0.43869 0.37673 -0.10700
H 	H 	0.90773 0.43197 0.36377 0.07200
C 	C 	0.96344 0.46534 0.37589 -0.00000
C 	C 	0.98605 0.47336 0.39531 -0.20100
H 	H 	0.01353 0.49027 0.39457 0.11000
C 	C 	0.98355 0.48362 0.35422 0.35800
C 	C 	0.20339 0.49582 0.51009 0.41200
C 	C 	0.19966 0.51826 0.52928 -0.03700
C 	C 	0.21271 0.55884 0.52767 -0.08300
H 	H 	0.22533 0.57277 0.51467 0.05900
C 	C 	0.20698 0.57863 0.54542 0.04600
H 	H 	0.21573 0.60577 0.54437 0.00800
C 	C 	0.18819 0.55784 0.56479 -0.20500
H 	H 	0.18433 0.57107 0.57667 0.10600
C 	C 	0.17514 0.51726 0.56640 0.22100
C 	C 	0.18087 0.49747 0.54864 -0.16400
H 	H 	0.17213 0.47037 0.54967 0.09900
C 	C 	0.13665 0.45833 0.58604 0.23600
H 	H 	0.12183 0.44847 0.57217 -0.04300
H 	H 	0.15503 0.44827 0.58727 -0.04500
C 	C 	0.10784 0.44392 0.60588 -0.39700
C 	C 	0.07249 0.44427 0.60459 0.54000
C 	C 	0.04388 0.42531 0.62190 -0.41200
C 	C 	0.05116 0.40594 0.63872 0.47700
C 	C 	0.08802 0.40755 0.64071 -0.38900
C 	C 	0.11781 0.42858 0.62508 0.45200
C 	C 	0.15890 0.43346 0.62726 -0.94000
H 	H 	0.17823 0.45827 0.62057 0.30500
H 	H 	0.16513 0.43347 0.64277 0.29900
H 	H 	0.15943 0.41177 0.61977 0.28100
C 	C 	0.06270 0.46162 0.58573 -1.13200
H 	H 	0.04463 0.44067 0.57587 0.36200
H 	H 	0.05033 0.47627 0.59107 0.36900
H 	H 	0.08673 0.47937 0.57777 0.37000
C 	C 	0.01763 0.38173 0.65556 -0.99600
H 	H 	0.99343 0.36437 0.64767 0.34300
H 	H 	0.02503 0.36607 0.66477 0.34000
H 	H 	0.01353 0.39967 0.66477 0.33500
C 	C 	0.00500 0.42458 0.62053 0.24500
H 	H 	0.00703 0.44537 0.61067 -0.05400
H 	H 	0.99653 0.42827 0.63517 -0.04500
C 	C 	0.93814 0.37278 0.61391 0.23500
C 	C 	0.91215 0.33229 0.61033 -0.21000
H 	H 	0.92223 0.31527 0.60757 0.10400
C 	C 	0.87110 0.31715 0.61091 0.07000
H 	H 	0.85373 0.29007 0.60847 -0.00200
C 	C 	0.85604 0.34251 0.61506 -0.09500
H 	H 	0.82853 0.33237 0.61547 0.06800
C 	C 	0.88202 0.38301 0.61863 -0.01800
C 	C 	0.92307 0.39815 0.61805 -0.17700
H 	H 	0.94043 0.42527 0.62047 0.09900
C 	C 	0.86603 0.40906 0.62274 0.32100
C 	C 	0.09181 0.38174 0.65796 0.25300
H 	H 	0.11683 0.38217 0.65577 -0.04800
H 	H 	0.07033 0.35447 0.65597 -0.04800
C 	C 	0.07614 0.36469 0.69592 0.22100
C 	C 	0.06536 0.37483 0.71598 -0.20100
H 	H 	0.06813 0.39997 0.71777 0.10200
C 	C 	0.05046 0.34737 0.73338 0.06000
H 	H 	0.04323 0.35417 0.74677 0.00100
C 	C 	0.04636 0.30976 0.73073 -0.09900
H 	H 	0.03643 0.29137 0.74237 0.05700
C 	C 	0.05714 0.29962 0.71067 -0.01400
C 	C 	0.07204 0.32708 0.69327 -0.16900
H 	H 	0.07923 0.32027 0.67987 0.09200
C 	C 	0.05342 0.25982 0.70797 0.30900
Mn	Mn	0.16883 0.32365 0.52765 1.26300
Mn	Mn	0.19335 0.41139 0.49515 1.28800
Mn	Mn	0.19339 0.48100 0.45915 1.22200
O 	O 	0.12192 0.32986 0.54717 -0.44000
O 	O 	0.15178 0.37649 0.52314 -0.52500
O 	O 	0.05831 0.43390 0.51704 -0.31100
O 	O 	0.98845 0.46361 0.43493 -0.31200
O 	O 	0.02030 0.50794 0.35521 -0.45600
O 	O 	0.96307 0.47371 0.33704 -0.47100
O 	O 	0.07822 0.60236 0.50326 -0.28600
O 	O 	0.16797 0.75001 0.50767 -0.44400
O 	O 	0.12949 0.77042 0.52317 -0.50500
O 	O 	0.20223 0.46479 0.51417 -0.46300
O 	O 	0.20778 0.51134 0.49158 -0.49600
O 	O 	0.15794 0.50044 0.58602 -0.29700
O 	O 	0.97688 0.38466 0.61157 -0.29100
O 	O 	0.89012 0.44439 0.62907 -0.53000
O 	O 	0.83058 0.39929 0.61923 -0.38500
O 	O 	0.09054 0.39396 0.67997 -0.29200
O 	O 	0.05905 0.24951 0.68930 -0.48600
O 	O 	0.04470 0.23733 0.72500 -0.44700
O 	O 	0.16343 0.26987 0.53797 -0.25200
O 	O 	0.16873 0.26677 0.53507 -0.23900
H 	H 	0.14213 0.24567 0.53757 -0.50100
H 	H 	0.18473 0.26947 0.54787 0.54200
H 	H 	0.19543 0.27157 0.53417 -0.19100
H 	H 	0.15273 0.24777 0.52387 0.40100
H 	H 	0.13613 0.25067 0.54077 0.59400
H 	H 	0.17833 0.27497 0.55157 -0.43800
H 	H 	0.18953 0.27307 0.53877 0.12700
H 	H 	0.14733 0.24867 0.52797 -0.17200
C 	C 	0.90154 0.20870 0.86996 0.35800
C 	C 	0.94321 0.23883 0.87339 -0.01100
C 	C 	0.95309 0.27102 0.88776 -0.11600
H 	H 	0.93330 0.27080 0.89670 0.08100
C 	C 	0.99080 0.30247 0.88891 0.10100
H 	H 	0.99690 0.32370 0.89850 -0.00100
C 	C 	0.01914 0.30270 0.87616 -0.25000
H 	H 	0.04490 0.32440 0.87680 0.10500
C 	C 	0.01084 0.27072 0.86166 0.25700
C 	C 	0.97270 0.23886 0.86032 -0.19300
H 	H 	0.96680 0.21760 0.85080 0.10500
C 	C 	0.03805 0.24459 0.83486 0.24900
H 	H 	0.02990 0.21970 0.84270 -0.05300
H 	H 	0.01800 0.24000 0.82370 -0.05700
C 	C 	0.07852 0.25958 0.82389 -0.42000
C 	C 	0.10981 0.26169 0.83631 0.47900
C 	C 	0.14741 0.28025 0.82709 -0.40200
C 	C 	0.15343 0.29290 0.80493 0.50600
C 	C 	0.12139 0.28930 0.79271 -0.40500
C 	C 	0.08303 0.27401 0.80286 0.47500
C 	C 	0.04991 0.27436 0.78958 -0.99900
H 	H 	0.03400 0.28060 0.79930 0.33200
H 	H 	0.06130 0.29410 0.77800 0.33600
H 	H 	0.03330 0.24850 0.78300 0.31000
C 	C 	0.10368 0.24361 0.85970 -0.98900
H 	H 	0.08080 0.21720 0.85970 0.32600
H 	H 	0.12690 0.24230 0.86400 0.33200
H 	H 	0.09950 0.26000 0.87010 0.31300
C 	C 	0.19414 0.31098 0.79479 -1.05300
H 	H 	0.21000 0.30270 0.80310 0.35400
H 	H 	0.19200 0.30230 0.77960 0.34200
H 	H 	0.20660 0.33960 0.79520 0.33800
C 	C 	0.18308 0.28741 0.84065 0.22500
H 	H 	0.17790 0.28860 0.85640 -0.03500
H 	H 	0.20610 0.31260 0.83640 -0.03600
C 	C 	0.22375 0.25876 0.84714 0.22500
C 	C 	0.24909 0.29112 0.86044 -0.21800
H 	H 	0.24370 0.31170 0.86290 0.11000
C 	C 	0.28257 0.29274 0.87011 0.06200
H 	H 	0.29950 0.31440 0.87900 -0.00300
C 	C 	0.29072 0.26200 0.86647 -0.09900
H 	H 	0.31310 0.26310 0.87290 0.06000
C 	C 	0.26537 0.22963 0.85317 -0.03300
C 	C 	0.23189 0.22801 0.84350 -0.15800
H 	H 	0.21500 0.20640 0.83460 0.10800
C 	C 	0.27406 0.19716 0.84934 0.37700
C 	C 	0.12785 0.30412 0.76873 0.27100
H 	H 	0.10290 0.29020 0.76060 -0.05600
H 	H 	0.14710 0.29860 0.76150 -0.06500
C 	C 	0.15491 0.36455 0.74860 0.25000
C 	C 	0.16935 0.40542 0.74946 -0.23400
H 	H 	0.16940 0.41730 0.76300 0.11100
C 	C 	0.18354 0.42843 0.73054 0.08100
H 	H 	0.19390 0.45590 0.73130 -0.00500
C 	C 	0.18236 0.41034 0.71006 -0.10700
H 	H 	0.19090 0.42560 0.69710 0.07200
C 	C 	0.16856 0.36989 0.70922 -0.00000
C 	C 	0.15397 0.34728 0.72864 -0.20000
H 	H 	0.14340 0.31980 0.72790 0.11000
C 	C 	0.16673 0.34978 0.68755 0.35800
C 	C 	0.95909 0.12994 0.84342 0.41200
C 	C 	0.98526 0.13367 0.86261 -0.03700
C 	C 	0.01279 0.12062 0.86100 -0.08300
H 	H 	0.01410 0.10800 0.84800 0.05900
C 	C 	0.03831 0.12635 0.87875 0.04600
H 	H 	0.05670 0.11760 0.87770 0.00800
C 	C 	0.03631 0.14514 0.89812 -0.20500
H 	H 	0.05340 0.14900 0.91000 0.10600
C 	C 	0.00878 0.15819 0.89973 0.22100
C 	C 	0.98326 0.15246 0.88197 -0.16400
H 	H 	0.96490 0.16120 0.88300 0.09900
C 	C 	0.98834 0.19668 0.91937 0.23600
H 	H 	0.99330 0.21150 0.90550 -0.04300
H 	H 	0.95990 0.17830 0.92060 -0.04500
C 	C 	0.00274 0.22549 0.93921 -0.39700
C 	C 	0.03844 0.26084 0.93792 0.54000
C 	C 	0.04809 0.28945 0.95523 -0.41200
C 	C 	0.02144 0.28217 0.97205 0.47700
C 	C 	0.98619 0.24531 0.97404 -0.38900
C 	C 	0.97743 0.21552 0.95841 0.45200
C 	C 	0.94122 0.17443 0.96059 -0.94000
H 	H 	0.94670 0.15510 0.95390 0.30500
H 	H 	0.93500 0.16820 0.97610 0.29900
H 	H 	0.91900 0.17390 0.95310 0.28100
C 	C 	0.06558 0.27063 0.91906 -1.13200
H 	H 	0.06270 0.28870 0.90920 0.36200
H 	H 	0.09260 0.28300 0.92440 0.36900
H 	H 	0.05930 0.24660 0.91110 0.37000
C 	C 	0.03076 0.31570 0.98889 -0.99600
H 	H 	0.03760 0.33990 0.98100 0.34300
H 	H 	0.00770 0.30830 0.99810 0.34000
H 	H 	0.05280 0.31980 0.99810 0.33500
C 	C 	0.08624 0.32833 0.95386 0.24500
H 	H 	0.10500 0.32630 0.94400 -0.05400
H 	H 	0.09840 0.33680 0.96850 -0.04500
C 	C 	0.10130 0.39519 0.94724 0.23500
C 	C 	0.08680 0.42118 0.94366 -0.21000
H 	H 	0.05970 0.41110 0.94090 0.10400
C 	C 	0.11271 0.46223 0.94424 0.07000
H 	H 	0.10300 0.47960 0.94180 -0.00200
C 	C 	0.15313 0.47729 0.94839 -0.09500
H 	H 	0.17050 0.50480 0.94880 0.06800
C 	C 	0.16765 0.45131 0.95196 -0.01800
C 	C 	0.14174 0.41026 0.95138 -0.17700
H 	H 	0.15150 0.39290 0.95380 0.09900
C 	C 	0.20969 0.46730 0.95607 0.32100
C 	C 	0.95659 0.24152 0.99129 0.25300
H 	H 	0.93200 0.21650 0.98910 -0.04800
H 	H 	0.95080 0.26300 0.98930 -0.04800
C 	C 	0.95521 0.25719 0.02925 0.22100
C 	C 	0.97613 0.26797 0.04931 -0.20100
H 	H 	0.99850 0.26520 0.05110 0.10200
C 	C 	0.96357 0.28287 0.06671 0.06000
H 	H 	0.97760 0.29010 0.08010 0.00100
C 	C 	0.93006 0.28697 0.06406 -0.09900
H 	H 	0.92160 0.29690 0.07570 0.05700
C 	C 	0.90914 0.27619 0.04400 -0.01400
C 	C 	0.92170 0.26129 0.02660 -0.16900
H 	H 	0.90770 0.25410 0.01320 0.09200
C 	C 	0.87306 0.27991 0.04130 0.30900
Mn	Mn	0.82149 0.16450 0.86098 1.26300
Mn	Mn	0.88471 0.13998 0.82848 1.28800
Mn	Mn	0.95427 0.13994 0.79248 1.22200
O 	O 	0.87460 0.21141 0.88050 -0.44000
O 	O 	0.89137 0.18155 0.85647 -0.52500
O 	O 	0.04225 0.27502 0.85037 -0.31100
O 	O 	0.14182 0.34488 0.76826 -0.31200
O 	O 	0.15430 0.31303 0.68854 -0.45600
O 	O 	0.17730 0.37026 0.67037 -0.47100
O 	O 	0.19080 0.25511 0.83659 -0.28600
O 	O 	0.24870 0.16536 0.84100 -0.44400
O 	O 	0.30759 0.20384 0.85650 -0.50500
O 	O 	0.92922 0.13110 0.84750 -0.46300
O 	O 	0.97022 0.12555 0.82491 -0.49600
O 	O 	0.00916 0.17539 0.91935 -0.29700
O 	O 	0.07444 0.35645 0.94490 -0.29100
O 	O 	0.22093 0.44321 0.96240 -0.53000
O 	O 	0.23537 0.50275 0.95256 -0.38500
O 	O 	0.97008 0.24279 0.01330 -0.29200
O 	O 	0.85712 0.27428 0.02263 -0.48600
O 	O 	0.85929 0.28863 0.05833 -0.44700
O 	O 	0.77310 0.16990 0.87130 -0.25200
O 	O 	0.76470 0.16460 0.86840 -0.23900
H 	H 	0.77020 0.19120 0.87090 -0.50100
H 	H 	0.75140 0.14860 0.88120 0.54200
H 	H 	0.74280 0.13790 0.86750 -0.19100
H 	H 	0.76170 0.18060 0.85720 0.40100
H 	H 	0.78120 0.19720 0.87410 0.59400
H 	H 	0.76330 0.15500 0.88490 -0.43800
H 	H 	0.75020 0.14380 0.87210 0.12700
H 	H 	0.76800 0.18600 0.86130 -0.17200
C 	C 	0.56821 0.54203 0.20329 0.35800
C 	C 	0.60988 0.57216 0.20672 -0.01100
C 	C 	0.61976 0.60435 0.22109 -0.11600
H 	H 	0.59997 0.60413 0.23003 0.08100
C 	C 	0.65747 0.63580 0.22224 0.10100
H 	H 	0.66357 0.65703 0.23183 -0.00100
C 	C 	0.68581 0.63603 0.20949 -0.25000
H 	H 	0.71157 0.65773 0.21013 0.10500
C 	C 	0.67751 0.60405 0.19499 0.25700
C 	C 	0.63937 0.57219 0.19365 -0.19300
H 	H 	0.63347 0.55093 0.18413 0.10500
C 	C 	0.70472 0.57792 0.16819 0.24900
H 	H 	0.69657 0.55303 0.17603 -0.05300
H 	H 	0.68467 0.57333 0.15703 -0.05700
C 	C 	0.74519 0.59291 0.15722 -0.42000
C 	C 	0.77648 0.59502 0.16964 0.47900
C 	C 	0.81408 0.61358 0.16042 -0.40200
C 	C 	0.82010 0.62623 0.13826 0.50600
C 	C 	0.78806 0.62263 0.12604 -0.40500
C 	C 	0.74970 0.60734 0.13619 0.47500
C 	C 	0.71658 0.60769 0.12291 -0.99900
H 	H 	0.70067 0.61393 0.13263 0.33200
H 	H 	0.72797 0.62743 0.11133 0.33600
H 	H 	0.69997 0.58183 0.11633 0.31000
C 	C 	0.77035 0.57694 0.19303 -0.98900
H 	H 	0.74747 0.55053 0.19303 0.32600
H 	H 	0.79357 0.57563 0.19733 0.33200
H 	H 	0.76617 0.59333 0.20343 0.31300
C 	C 	0.86081 0.64431 0.12812 -1.05300
H 	H 	0.87667 0.63603 0.13643 0.35400
H 	H 	0.85867 0.63563 0.11293 0.34200
H 	H 	0.87327 0.67293 0.12853 0.33800
C 	C 	0.84975 0.62074 0.17398 0.22500
H 	H 	0.84457 0.62193 0.18973 -0.03500
H 	H 	0.87277 0.64593 0.16973 -0.03600
C 	C 	0.89042 0.59209 0.18047 0.22500
C 	C 	0.91576 0.62445 0.19377 -0.21800
H 	H 	0.91037 0.64503 0.19623 0.11000
C 	C 	0.94924 0.62607 0.20344 0.06200
H 	H 	0.96617 0.64773 0.21233 -0.00300
C 	C 	0.95739 0.59533 0.19980 -0.09900
H 	H 	0.97977 0.59643 0.20623 0.06000
C 	C 	0.93204 0.56296 0.18650 -0.03300
C 	C 	0.89856 0.56134 0.17683 -0.15800
H 	H 	0.88167 0.53973 0.16793 0.10800
C 	C 	0.94073 0.53049 0.18267 0.37700
C 	C 	0.79452 0.63745 0.10206 0.27100
H 	H 	0.76957 0.62353 0.09393 -0.05600
H 	H 	0.81377 0.63193 0.09483 -0.06500
C 	C 	0.82158 0.69788 0.08193 0.25000
C 	C 	0.83602 0.73875 0.08279 -0.23400
H 	H 	0.83607 0.75063 0.09633 0.11100
C 	C 	0.85021 0.76176 0.06387 0.08100
H 	H 	0.86057 0.78923 0.06463 -0.00500
C 	C 	0.84903 0.74367 0.04339 -0.10700
H 	H 	0.85757 0.75893 0.03043 0.07200
C 	C 	0.83523 0.70322 0.04255 -0.00000
C 	C 	0.82064 0.68061 0.06197 -0.20000
H 	H 	0.81007 0.65313 0.06123 0.11000
C 	C 	0.83340 0.68311 0.02088 0.35800
C 	C 	0.62576 0.46327 0.17675 0.41200
C 	C 	0.65193 0.46700 0.19594 -0.03700
C 	C 	0.67946 0.45395 0.19433 -0.08300
H 	H 	0.68077 0.44133 0.18133 0.05900
C 	C 	0.70498 0.45968 0.21208 0.04600
H 	H 	0.72337 0.45093 0.21103 0.00800
C 	C 	0.70298 0.47847 0.23145 -0.20500
H 	H 	0.72007 0.48233 0.24333 0.10600
C 	C 	0.67545 0.49152 0.23306 0.22100
C 	C 	0.64993 0.48579 0.21530 -0.16400
H 	H 	0.63157 0.49453 0.21633 0.09900
C 	C 	0.65501 0.53001 0.25270 0.23600
H 	H 	0.65997 0.54483 0.23883 -0.04300
H 	H 	0.62657 0.51163 0.25393 -0.04500
C 	C 	0.66941 0.55882 0.27254 -0.39700
C 	C 	0.70511 0.59417 0.27125 0.54000
C 	C 	0.71476 0.62278 0.28856 -0.41200
C 	C 	0.68811 0.61550 0.30538 0.47700
C 	C 	0.65286 0.57864 0.30737 -0.38900
C 	C 	0.64410 0.54885 0.29174 0.45200
C 	C 	0.60789 0.50776 0.29392 -0.94000
H 	H 	0.61337 0.48843 0.28723 0.30500
H 	H 	0.60167 0.50153 0.30943 0.29900
H 	H 	0.58567 0.50723 0.28643 0.28100
C 	C 	0.73225 0.60396 0.25239 -1.13200
H 	H 	0.72937 0.62203 0.24253 0.36200
H 	H 	0.75927 0.61633 0.25773 0.36900
H 	H 	0.72597 0.57993 0.24443 0.37000
C 	C 	0.69743 0.64903 0.32222 -0.99600
H 	H 	0.70427 0.67323 0.31433 0.34300
H 	H 	0.67437 0.64163 0.33143 0.34000
H 	H 	0.71947 0.65313 0.33143 0.33500
C 	C 	0.75291 0.66166 0.28719 0.24500
H 	H 	0.77167 0.65963 0.27733 -0.05400
H 	H 	0.76507 0.67013 0.30183 -0.04500
C 	C 	0.76797 0.72852 0.28057 0.23500
C 	C 	0.75347 0.75451 0.27699 -0.21000
H 	H 	0.72637 0.74443 0.27423 0.10400
C 	C 	0.77938 0.79556 0.27757 0.07000
H 	H 	0.76967 0.81293 0.27513 -0.00200
C 	C 	0.81980 0.81062 0.28172 -0.09500
H 	H 	0.83717 0.83813 0.28213 0.06800
C 	C 	0.83432 0.78464 0.28529 -0.01800
C 	C 	0.80841 0.74359 0.28471 -0.17700
H 	H 	0.81817 0.72623 0.28713 0.09900
C 	C 	0.87636 0.80063 0.28940 0.32100
C 	C 	0.62326 0.57485 0.32462 0.25300
H 	H 	0.59867 0.54983 0.32243 -0.04800
H 	H 	0.61747 0.59633 0.32263 -0.04800
C 	C 	0.62188 0.59052 0.36258 0.22100
C 	C 	0.64280 0.60130 0.38264 -0.20100
H 	H 	0.66517 0.59853 0.38443 0.10200
C 	C 	0.63024 0.61620 0.40004 0.06000
H 	H 	0.64427 0.62343 0.41343 0.00100
C 	C 	0.59673 0.62030 0.39739 -0.09900
H 	H 	0.58827 0.63023 0.40903 0.05700
C 	C 	0.57581 0.60952 0.37733 -0.01400
C 	C 	0.58837 0.59462 0.35993 -0.16900
H 	H 	0.57437 0.58743 0.34653 0.09200
C 	C 	0.53973 0.61324 0.37463 0.30900
Mn	Mn	0.48815 0.49784 0.19431 1.26300
Mn	Mn	0.55137 0.47331 0.16182 1.28800
Mn	Mn	0.62094 0.47328 0.12582 1.22200
O 	O 	0.54127 0.54474 0.21383 -0.44000
O 	O 	0.55804 0.51488 0.18980 -0.52500
O 	O 	0.70892 0.60835 0.18370 -0.31100
O 	O 	0.80849 0.67821 0.10159 -0.31200
O 	O 	0.82097 0.64636 0.02187 -0.45600
O 	O 	0.84397 0.70359 0.00370 -0.47100
O 	O 	0.85747 0.58844 0.16992 -0.28600
O 	O 	0.91537 0.49869 0.17433 -0.44400
O 	O 	0.97426 0.53717 0.18983 -0.50500
O 	O 	0.59589 0.46443 0.18083 -0.46300
O 	O 	0.63689 0.45888 0.15824 -0.49600
O 	O 	0.67583 0.50872 0.25268 -0.29700
O 	O 	0.74111 0.68978 0.27823 -0.29100
O 	O 	0.88760 0.77654 0.29573 -0.53000
O 	O 	0.90204 0.83608 0.28589 -0.38500
O 	O 	0.63675 0.57612 0.34663 -0.29200
O 	O 	0.52379 0.60761 0.35596 -0.48600
O 	O 	0.52596 0.62196 0.39166 -0.44700
O 	O 	0.43977 0.50323 0.20463 -0.25200
O 	O 	0.43137 0.49793 0.20173 -0.23900
H 	H 	0.43687 0.52453 0.20423 -0.50100
H 	H 	0.41807 0.48193 0.21453 0.54200
H 	H 	0.40947 0.47123 0.20083 -0.19100
H 	H 	0.42837 0.51393 0.19053 0.40100
H 	H 	0.44787 0.53053 0.20743 0.59500
H 	H 	0.42997 0.48833 0.21823 -0.43800
H 	H 	0.41687 0.47713 0.20543 0.12700
H 	H 	0.43467 0.51933 0.19463 -0.17200
C 	C 	0.23487 0.87537 0.53663 0.35800
C 	C 	0.27654 0.90550 0.54006 -0.01100
C 	C 	0.28642 0.93769 0.55443 -0.11600
H 	H 	0.26663 0.93747 0.56337 0.08100
C 	C 	0.32413 0.96914 0.55558 0.10100
H 	H 	0.33023 0.99037 0.56517 -0.00100
C 	C 	0.35247 0.96937 0.54283 -0.25000
H 	H 	0.37823 0.99107 0.54347 0.10500
C 	C 	0.34417 0.93739 0.52833 0.25700
C 	C 	0.30603 0.90553 0.52699 -0.19300
H 	H 	0.30013 0.88427 0.51747 0.10500
C 	C 	0.37138 0.91126 0.50153 0.24900
H 	H 	0.36323 0.88637 0.50937 -0.05300
H 	H 	0.35133 0.90667 0.49037 -0.05700
C 	C 	0.41185 0.92625 0.49056 -0.42000
C 	C 	0.44314 0.92836 0.50298 0.47900
C 	C 	0.48074 0.94692 0.49376 -0.40200
C 	C 	0.48676 0.95957 0.47160 0.50600
C 	C 	0.45472 0.95597 0.45938 -0.40500
C 	C 	0.41636 0.94068 0.46953 0.47500
C 	C 	0.38324 0.94103 0.45625 -0.99900
H 	H 	0.36733 0.94727 0.46597 0.33200
H 	H 	0.39463 0.96077 0.44467 0.33600
H 	H 	0.36663 0.91517 0.44967 0.31000
C 	C 	0.43701 0.91028 0.52637 -0.98900
H 	H 	0.41413 0.88387 0.52637 0.32600
H 	H 	0.46023 0.90897 0.53067 0.33200
H 	H 	0.43283 0.92667 0.53677 0.31300
C 	C 	0.52747 0.97765 0.46146 -1.05300
H 	H 	0.54333 0.96937 0.46977 0.35400
H 	H 	0.52533 0.96897 0.44627 0.34200
H 	H 	0.53993 0.00627 0.46187 0.33800
C 	C 	0.51641 0.95408 0.50732 0.22500
H 	H 	0.51123 0.95527 0.52307 -0.03500
H 	H 	0.53943 0.97927 0.50307 -0.03600
C 	C 	0.55708 0.92543 0.51381 0.22500
C 	C 	0.58242 0.95779 0.52711 -0.21800
H 	H 	0.57703 0.97837 0.52957 0.11000
C 	C 	0.61590 0.95941 0.53678 0.06200
H 	H 	0.63283 0.98107 0.54567 -0.00300
C 	C 	0.62405 0.92867 0.53314 -0.09900
H 	H 	0.64643 0.92977 0.53957 0.06000
C 	C 	0.59870 0.89630 0.51984 -0.03300
C 	C 	0.56522 0.89468 0.51017 -0.15800
H 	H 	0.54833 0.87307 0.50127 0.10800
C 	C 	0.60739 0.86383 0.51601 0.37700
C 	C 	0.46118 0.97079 0.43540 0.27100
H 	H 	0.43623 0.95687 0.42727 -0.05600
H 	H 	0.48043 0.96527 0.42817 -0.06500
C 	C 	0.48824 0.03122 0.41527 0.25000
C 	C 	0.50268 0.07209 0.41613 -0.23400
H 	H 	0.50273 0.08397 0.42967 0.11100
C 	C 	0.51687 0.09510 0.39721 0.08100
H 	H 	0.52723 0.12257 0.39797 -0.00500
C 	C 	0.51569 0.07701 0.37673 -0.10700
H 	H 	0.52423 0.09227 0.36377 0.07200
C 	C 	0.50189 0.03656 0.37589 -0.00000
C 	C 	0.48730 0.01395 0.39531 -0.20100
H 	H 	0.47673 0.98647 0.39457 0.11000
C 	C 	0.50006 0.01645 0.35422 0.35800
C 	C 	0.29242 0.79661 0.51009 0.41200
C 	C 	0.31859 0.80034 0.52928 -0.03700
C 	C 	0.34612 0.78729 0.52767 -0.08300
H 	H 	0.34743 0.77467 0.51467 0.05900
C 	C 	0.37164 0.79302 0.54542 0.04600
H 	H 	0.39003 0.78427 0.54437 0.00800
C 	C 	0.36964 0.81181 0.56479 -0.20500
H 	H 	0.38673 0.81567 0.57667 0.10600
C 	C 	0.34211 0.82486 0.56640 0.22100
C 	C 	0.31659 0.81913 0.54864 -0.16400
H 	H 	0.29823 0.82787 0.54967 0.09900
C 	C 	0.32167 0.86335 0.58604 0.23600
H 	H 	0.32663 0.87817 0.57217 -0.04300
H 	H 	0.29323 0.84497 0.58727 -0.04500
C 	C 	0.33607 0.89216 0.60588 -0.39700
C 	C 	0.37177 0.92751 0.60459 0.54000
C 	C 	0.38142 0.95612 0.62190 -0.41200
C 	C 	0.35477 0.94884 0.63872 0.47700
C 	C 	0.31952 0.91198 0.64071 -0.38900
C 	C 	0.31076 0.88219 0.62508 0.45200
C 	C 	0.27455 0.84110 0.62726 -0.94000
H 	H 	0.28003 0.82177 0.62057 0.30500
H 	H 	0.26833 0.83487 0.64277 0.29900
H 	H 	0.25233 0.84057 0.61977 0.28100
C 	C 	0.39891 0.93730 0.58573 -1.13200
H 	H 	0.39603 0.95537 0.57587 0.36200
H 	H 	0.42593 0.94967 0.59107 0.36900
H 	H 	0.39263 0.91327 0.57777 0.37000
C 	C 	0.36409 0.98237 0.65556 -0.99600
H 	H 	0.37093 0.00657 0.64767 0.34300
H 	H 	0.34103 0.97497 0.66477 0.34000
H 	H 	0.38613 0.98647 0.66477 0.33500
C 	C 	0.41957 0.99500 0.62053 0.24500
H 	H 	0.43833 0.99297 0.61067 -0.05400
H 	H 	0.43173 0.00347 0.63517 -0.04500
C 	C 	0.43463 0.06186 0.61391 0.23500
C 	C 	0.42013 0.08785 0.61033 -0.21000
H 	H 	0.39303 0.07777 0.60757 0.10400
C 	C 	0.44604 0.12890 0.61091 0.07000
H 	H 	0.43633 0.14627 0.60847 -0.00200
C 	C 	0.48646 0.14396 0.61506 -0.09500
H 	H 	0.50383 0.17147 0.61547 0.06800
C 	C 	0.50098 0.11798 0.61863 -0.01800
C 	C 	0.47507 0.07693 0.61805 -0.17700
H 	H 	0.48483 0.05957 0.62047 0.09900
C 	C 	0.54302 0.13397 0.62274 0.32100
C 	C 	0.28992 0.90819 0.65796 0.25300
H 	H 	0.26533 0.88317 0.65577 -0.04800
H 	H 	0.28413 0.92967 0.65597 -0.04800
C 	C 	0.28854 0.92386 0.69592 0.22100
C 	C 	0.30946 0.93464 0.71598 -0.20100
H 	H 	0.33183 0.93187 0.71777 0.10200
C 	C 	0.29690 0.94954 0.73338 0.06000
H 	H 	0.31093 0.95677 0.74677 0.00100
C 	C 	0.26339 0.95364 0.73073 -0.09900
H 	H 	0.25493 0.96357 0.74237 0.05700
C 	C 	0.24247 0.94286 0.71067 -0.01400
C 	C 	0.25503 0.92796 0.69327 -0.16900
H 	H 	0.24103 0.92077 0.67987 0.09200
C 	C 	0.20639 0.94658 0.70797 0.30900
Mn	Mn	0.15482 0.83117 0.52765 1.26300
Mn	Mn	0.21804 0.80665 0.49515 1.28800
Mn	Mn	0.28761 0.80661 0.45915 1.22200
O 	O 	0.20793 0.87808 0.54717 -0.44000
O 	O 	0.22470 0.84822 0.52314 -0.52500
O 	O 	0.37558 0.94169 0.51704 -0.31100
O 	O 	0.47515 0.01155 0.43493 -0.31200
O 	O 	0.48763 0.97970 0.35521 -0.45600
O 	O 	0.51063 0.03693 0.33704 -0.47100
O 	O 	0.52413 0.92178 0.50326 -0.28600
O 	O 	0.58203 0.83203 0.50767 -0.44400
O 	O 	0.64092 0.87051 0.52317 -0.50500
O 	O 	0.26255 0.79777 0.51417 -0.46300
O 	O 	0.30355 0.79222 0.49158 -0.49600
O 	O 	0.34249 0.84206 0.58602 -0.29700
O 	O 	0.40777 0.02312 0.61157 -0.29100
O 	O 	0.55426 0.10988 0.62907 -0.53000
O 	O 	0.56870 0.16942 0.61923 -0.38500
O 	O 	0.30341 0.90946 0.67997 -0.29200
O 	O 	0.19045 0.94095 0.68930 -0.48600
O 	O 	0.19262 0.95530 0.72500 -0.44700
O 	O 	0.10643 0.83657 0.53797 -0.25200
O 	O 	0.09803 0.83127 0.53507 -0.23900
H 	H 	0.10353 0.85787 0.53757 -0.50100
H 	H 	0.08473 0.81527 0.54787 0.54200
H 	H 	0.07613 0.80457 0.53417 -0.19100
H 	H 	0.09503 0.84727 0.52387 0.40100
H 	H 	0.11453 0.86387 0.54077 0.59400
H 	H 	0.09663 0.82167 0.55157 -0.43800
H 	H 	0.08353 0.81047 0.53877 0.12700
H 	H 	0.10133 0.85267 0.52797 -0.17200
C 	C 	0.30716 0.09846 0.86996 0.35800
C 	C 	0.29562 0.05679 0.87339 -0.01100
C 	C 	0.31793 0.04691 0.88776 -0.11600
H 	H 	0.33750 0.06670 0.89670 0.08100
C 	C 	0.31167 0.00920 0.88891 0.10100
H 	H 	0.32680 0.00310 0.89850 -0.00100
C 	C 	0.28356 0.98086 0.87616 -0.25000
H 	H 	0.27950 0.95510 0.87680 0.10500
C 	C 	0.25988 0.98916 0.86166 0.25700
C 	C 	0.26616 0.02730 0.86032 -0.19300
H 	H 	0.25080 0.03320 0.85080 0.10500
C 	C 	0.20654 0.96195 0.83486 0.24900
H 	H 	0.18980 0.97010 0.84270 -0.05300
H 	H 	0.22200 0.98200 0.82370 -0.05700
C 	C 	0.18106 0.92148 0.82389 -0.42000
C 	C 	0.15188 0.89019 0.83631 0.47900
C 	C 	0.13284 0.85259 0.82709 -0.40200
C 	C 	0.13947 0.84657 0.80493 0.50600
C 	C 	0.16791 0.87861 0.79271 -0.40500
C 	C 	0.19098 0.91697 0.80286 0.47500
C 	C 	0.22445 0.95009 0.78958 -0.99900
H 	H 	0.24660 0.96600 0.79930 0.33200
H 	H 	0.23280 0.93870 0.77800 0.33600
H 	H 	0.21520 0.96670 0.78300 0.31000
C 	C 	0.13993 0.89632 0.85970 -0.98900
H 	H 	0.13640 0.91920 0.85970 0.32600
H 	H 	0.11540 0.87310 0.86400 0.33200
H 	H 	0.16050 0.90050 0.87010 0.31300
C 	C 	0.11684 0.80586 0.79479 -1.05300
H 	H 	0.09270 0.79000 0.80310 0.35400
H 	H 	0.11030 0.80800 0.77960 0.34200
H 	H 	0.13300 0.79340 0.79520 0.33800
C 	C 	0.10433 0.81692 0.84065 0.22500
H 	H 	0.11070 0.82210 0.85640 -0.03500
H 	H 	0.10650 0.79390 0.83640 -0.03600
C 	C 	0.03501 0.77625 0.84714 0.22500
C 	C 	0.04203 0.75091 0.86044 -0.21800
H 	H 	0.06800 0.75630 0.86290 0.11000
C 	C 	0.01017 0.71743 0.87011 0.06200
H 	H 	0.01490 0.70050 0.87900 -0.00300
C 	C 	0.97128 0.70928 0.86647 -0.09900
H 	H 	0.95000 0.68690 0.87290 0.06000
C 	C 	0.96426 0.73463 0.85317 -0.03300
C 	C 	0.99612 0.76811 0.84350 -0.15800
H 	H 	0.99140 0.78500 0.83460 0.10800
C 	C 	0.92310 0.72594 0.84934 0.37700
C 	C 	0.17627 0.87215 0.76873 0.27100
H 	H 	0.18730 0.89710 0.76060 -0.05600
H 	H 	0.15150 0.85290 0.76150 -0.06500
C 	C 	0.20964 0.84509 0.74860 0.25000
C 	C 	0.23607 0.83065 0.74946 -0.23400
H 	H 	0.24790 0.83060 0.76300 0.11100
C 	C 	0.24489 0.81646 0.73054 0.08100
H 	H 	0.26200 0.80610 0.73130 -0.00500
C 	C 	0.22798 0.81764 0.71006 -0.10700
H 	H 	0.23470 0.80910 0.69710 0.07200
C 	C 	0.20133 0.83144 0.70922 -0.00000
C 	C 	0.19331 0.84603 0.72864 -0.20000
H 	H 	0.17640 0.85660 0.72790 0.11000
C 	C 	0.18305 0.83327 0.68755 0.35800
C 	C 	0.17085 0.04091 0.84342 0.41200
C 	C 	0.14841 0.01474 0.86261 -0.03700
C 	C 	0.10783 0.98721 0.86100 -0.08300
H 	H 	0.09390 0.98590 0.84800 0.05900
C 	C 	0.08804 0.96169 0.87875 0.04600
H 	H 	0.06090 0.94330 0.87770 0.00800
C 	C 	0.10883 0.96369 0.89812 -0.20500
H 	H 	0.09560 0.94660 0.91000 0.10600
C 	C 	0.14941 0.99122 0.89973 0.22100
C 	C 	0.16920 0.01674 0.88197 -0.16400
H 	H 	0.19630 0.03510 0.88300 0.09900
C 	C 	0.20834 0.01166 0.91937 0.23600
H 	H 	0.21820 0.00670 0.90550 -0.04300
H 	H 	0.21840 0.04010 0.92060 -0.04500
C 	C 	0.22275 0.99726 0.93921 -0.39700
C 	C 	0.22240 0.96156 0.93792 0.54000
C 	C 	0.24136 0.95191 0.95523 -0.41200
C 	C 	0.26073 0.97856 0.97205 0.47700
C 	C 	0.25912 0.01381 0.97404 -0.38900
C 	C 	0.23809 0.02257 0.95841 0.45200
C 	C 	0.23321 0.05878 0.96059 -0.94000
H 	H 	0.20840 0.05330 0.95390 0.30500
H 	H 	0.23320 0.06500 0.97610 0.29900
H 	H 	0.25490 0.08100 0.95310 0.28100
C 	C 	0.20505 0.93442 0.91906 -1.13200
H 	H 	0.22600 0.93730 0.90920 0.36200
H 	H 	0.19040 0.90740 0.92440 0.36900
H 	H 	0.18730 0.94070 0.91110 0.37000
C 	C 	0.28494 0.96924 0.98889 -0.99600
H 	H 	0.30230 0.96240 0.98100 0.34300
H 	H 	0.30060 0.99230 0.99810 0.34000
H 	H 	0.26700 0.94720 0.99810 0.33500
C 	C 	0.24209 0.91376 0.95386 0.24500
H 	H 	0.22130 0.89500 0.94400 -0.05400
H 	H 	0.23840 0.90160 0.96850 -0.04500
C 	C 	0.29389 0.89870 0.94724 0.23500
C 	C 	0.33438 0.91320 0.94366 -0.21000
H 	H 	0.35140 0.94030 0.94090 0.10400
C 	C 	0.34952 0.88729 0.94424 0.07000
H 	H 	0.37660 0.89700 0.94180 -0.00200
C 	C 	0.32416 0.84687 0.94839 -0.09500
H 	H 	0.33430 0.82950 0.94880 0.06800
C 	C 	0.28366 0.83235 0.95196 -0.01800
C 	C 	0.26852 0.85826 0.95138 -0.17700
H 	H 	0.24140 0.84850 0.95380 0.09900
C 	C 	0.25761 0.79031 0.95607 0.32100
C 	C 	0.28493 0.04341 0.99129 0.25300
H 	H 	0.28450 0.06800 0.98910 -0.04800
H 	H 	0.31220 0.04920 0.98930 -0.04800
C 	C 	0.30198 0.04479 0.02925 0.22100
C 	C 	0.29184 0.02387 0.04931 -0.20100
H 	H 	0.26670 0.00150 0.05110 0.10200
C 	C 	0.31930 0.03643 0.06671 0.06000
H 	H 	0.31250 0.02240 0.08010 0.00100
C 	C 	0.35691 0.06994 0.06406 -0.09900
H 	H 	0.37530 0.07840 0.07570 0.05700
C 	C 	0.36705 0.09086 0.04400 -0.01400
C 	C 	0.33959 0.07830 0.02660 -0.16900
H 	H 	0.34640 0.09230 0.01320 0.09200
C 	C 	0.40685 0.12694 0.04130 0.30900
Mn	Mn	0.34302 0.17851 0.86098 1.26300
Mn	Mn	0.25527 0.11529 0.82848 1.28800
Mn	Mn	0.18567 0.04573 0.79248 1.22200
O 	O 	0.33681 0.12540 0.88050 -0.44000
O 	O 	0.29018 0.10863 0.85647 -0.52500
O 	O 	0.23277 0.95775 0.85037 -0.31100
O 	O 	0.20306 0.85818 0.76826 -0.31200
O 	O 	0.15873 0.84570 0.68854 -0.45600
O 	O 	0.19296 0.82270 0.67037 -0.47100
O 	O 	0.06431 0.80920 0.83659 -0.28600
O 	O 	0.91666 0.75130 0.84100 -0.44400
O 	O 	0.89625 0.69241 0.85650 -0.50500
O 	O 	0.20188 0.07078 0.84750 -0.46300
O 	O 	0.15533 0.02978 0.82491 -0.49600
O 	O 	0.16623 0.99084 0.91935 -0.29700
O 	O 	0.28201 0.92556 0.94490 -0.29100
O 	O 	0.22228 0.77907 0.96240 -0.53000
O 	O 	0.26738 0.76463 0.95256 -0.38500
O 	O 	0.27271 0.02992 0.01330 -0.29200
O 	O 	0.41716 0.14288 0.02263 -0.48600
O 	O 	0.42934 0.14071 0.05833 -0.44700
O 	O 	0.39680 0.22690 0.87130 -0.25200
O 	O 	0.39990 0.23530 0.86840 -0.23900
H 	H 	0.42100 0.22980 0.87090 -0.50100
H 	H 	0.39720 0.24860 0.88120 0.54200
H 	H 	0.39510 0.25720 0.86750 -0.19100
H 	H 	0.41890 0.23830 0.85720 0.40100
H 	H 	0.41600 0.21880 0.87410 0.59400
H 	H 	0.39170 0.23670 0.88490 -0.43800
H 	H 	0.39360 0.24980 0.87210 0.12700
H 	H 	0.41800 0.23200 0.86130 -0.17200
C 	C 	0.97383 0.43179 0.20329 0.35800
C 	C 	0.96229 0.39012 0.20672 -0.01100
C 	C 	0.98460 0.38024 0.22109 -0.11600
H 	H 	0.00417 0.40003 0.23003 0.08100
C 	C 	0.97834 0.34253 0.22224 0.10100
H 	H 	0.99347 0.33643 0.23183 -0.00100
C 	C 	0.95023 0.31419 0.20949 -0.25000
H 	H 	0.94617 0.28843 0.21013 0.10500
C 	C 	0.92655 0.32249 0.19499 0.25700
C 	C 	0.93283 0.36063 0.19365 -0.19300
H 	H 	0.91747 0.36653 0.18413 0.10500
C 	C 	0.87321 0.29528 0.16819 0.24900
H 	H 	0.85647 0.30343 0.17603 -0.05300
H 	H 	0.88867 0.31533 0.15703 -0.05700
C 	C 	0.84773 0.25481 0.15722 -0.42000
C 	C 	0.81855 0.22352 0.16964 0.47900
C 	C 	0.79951 0.18592 0.16042 -0.40200
C 	C 	0.80614 0.17990 0.13826 0.50600
C 	C 	0.83458 0.21194 0.12604 -0.40500
C 	C 	0.85765 0.25030 0.13619 0.47500
C 	C 	0.89112 0.28342 0.12291 -0.99900
H 	H 	0.91327 0.29933 0.13263 0.33200
H 	H 	0.89947 0.27203 0.11133 0.33600
H 	H 	0.88187 0.30003 0.11633 0.31000
C 	C 	0.80660 0.22965 0.19303 -0.98900
H 	H 	0.80307 0.25253 0.19303 0.32600
H 	H 	0.78207 0.20643 0.19733 0.33200
H 	H 	0.82717 0.23383 0.20343 0.31300
C 	C 	0.78351 0.13919 0.12812 -1.05300
H 	H 	0.75937 0.12333 0.13643 0.35400
H 	H 	0.77697 0.14133 0.11293 0.34200
H 	H 	0.79967 0.12673 0.12853 0.33800
C 	C 	0.77100 0.15025 0.17398 0.22500
H 	H 	0.77737 0.15543 0.18973 -0.03500
H 	H 	0.77317 0.12723 0.16973 -0.03600
C 	C 	0.70168 0.10958 0.18047 0.22500
C 	C 	0.70870 0.08424 0.19377 -0.21800
H 	H 	0.73467 0.08963 0.19623 0.11000
C 	C 	0.67684 0.05076 0.20344 0.06200
H 	H 	0.68157 0.03383 0.21233 -0.00300
C 	C 	0.63795 0.04261 0.19980 -0.09900
H 	H 	0.61667 0.02023 0.20623 0.06000
C 	C 	0.63093 0.06796 0.18650 -0.03300
C 	C 	0.66279 0.10144 0.17683 -0.15800
H 	H 	0.65807 0.11833 0.16793 0.10800
C 	C 	0.58977 0.05927 0.18267 0.37700
C 	C 	0.84294 0.20548 0.10206 0.27100
H 	H 	0.85397 0.23043 0.09393 -0.05600
H 	H 	0.81817 0.18623 0.09483 -0.06500
C 	C 	0.87631 0.17842 0.08193 0.25000
C 	C 	0.90274 0.16398 0.08279 -0.23400
H 	H 	0.91457 0.16393 0.09633 0.11100
C 	C 	0.91156 0.14979 0.06387 0.08100
H 	H 	0.92867 0.13943 0.06463 -0.00500
C 	C 	0.89465 0.15097 0.04339 -0.10700
H 	H 	0.90137 0.14243 0.03043 0.07200
C 	C 	0.86800 0.16477 0.04255 -0.00000
C 	C 	0.85998 0.17936 0.06197 -0.20000
H 	H 	0.84307 0.18993 0.06123 0.11000
C 	C 	0.84972 0.16660 0.02088 0.35800
C 	C 	0.83752 0.37424 0.17675 0.41200
C 	C 	0.81508 0.34807 0.19594 -0.03700
C 	C 	0.77450 0.32054 0.19433 -0.08300
H 	H 	0.76057 0.31923 0.18133 0.05900
C 	C 	0.75471 0.29502 0.21208 0.04600
H 	H 	0.72757 0.27663 0.21103 0.00800
C 	C 	0.77550 0.29702 0.23145 -0.20500
H 	H 	0.76227 0.27993 0.24333 0.10600
C 	C 	0.81608 0.32455 0.23306 0.22100
C 	C 	0.83587 0.35007 0.21530 -0.16400
H 	H 	0.86297 0.36843 0.21633 0.09900
C 	C 	0.87501 0.34499 0.25270 0.23600
H 	H 	0.88487 0.34003 0.23883 -0.04300
H 	H 	0.88507 0.37343 0.25393 -0.04500
C 	C 	0.88942 0.33059 0.27254 -0.39700
C 	C 	0.88907 0.29489 0.27125 0.54000
C 	C 	0.90803 0.28524 0.28856 -0.41200
C 	C 	0.92740 0.31189 0.30538 0.47700
C 	C 	0.92579 0.34714 0.30737 -0.38900
C 	C 	0.90476 0.35590 0.29174 0.45200
C 	C 	0.89988 0.39211 0.29392 -0.94000
H 	H 	0.87507 0.38663 0.28723 0.30500
H 	H 	0.89987 0.39833 0.30943 0.29900
H 	H 	0.92157 0.41433 0.28643 0.28100
C 	C 	0.87172 0.26775 0.25239 -1.13200
H 	H 	0.89267 0.27063 0.24253 0.36200
H 	H 	0.85707 0.24073 0.25773 0.36900
H 	H 	0.85397 0.27403 0.24443 0.37000
C 	C 	0.95161 0.30257 0.32222 -0.99600
H 	H 	0.96897 0.29573 0.31433 0.34300
H 	H 	0.96727 0.32563 0.33143 0.34000
H 	H 	0.93367 0.28053 0.33143 0.33500
C 	C 	0.90876 0.24709 0.28719 0.24500
H 	H 	0.88797 0.22833 0.27733 -0.05400
H 	H 	0.90507 0.23493 0.30183 -0.04500
C 	C 	0.96056 0.23203 0.28057 0.23500
C 	C 	0.00105 0.24653 0.27699 -0.21000
H 	H 	0.01807 0.27363 0.27423 0.10400
C 	C 	0.01619 0.22062 0.27757 0.07000
H 	H 	0.04327 0.23033 0.27513 -0.00200
C 	C 	0.99083 0.18020 0.28172 -0.09500
H 	H 	0.00097 0.16283 0.28213 0.06800
C 	C 	0.95033 0.16568 0.28529 -0.01800
C 	C 	0.93519 0.19159 0.28471 -0.17700
H 	H 	0.90807 0.18183 0.28713 0.09900
C 	C 	0.92428 0.12364 0.28940 0.32100
C 	C 	0.95160 0.37674 0.32462 0.25300
H 	H 	0.95117 0.40133 0.32243 -0.04800
H 	H 	0.97887 0.38253 0.32263 -0.04800
C 	C 	0.96865 0.37812 0.36258 0.22100
C 	C 	0.95851 0.35720 0.38264 -0.20100
H 	H 	0.93337 0.33483 0.38443 0.10200
C 	C 	0.98597 0.36976 0.40004 0.06000
H 	H 	0.97917 0.35573 0.41343 0.00100
C 	C 	0.02358 0.40327 0.39739 -0.09900
H 	H 	0.04197 0.41173 0.40903 0.05700
C 	C 	0.03372 0.42419 0.37733 -0.01400
C 	C 	0.00626 0.41163 0.35993 -0.16900
H 	H 	0.01307 0.42563 0.34653 0.09200
C 	C 	0.07352 0.46027 0.37463 0.30900
Mn	Mn	0.00968 0.51185 0.19431 1.26300
Mn	Mn	0.92194 0.44863 0.16182 1.28800
Mn	Mn	0.85234 0.37906 0.12582 1.22200
O 	O 	0.00348 0.45873 0.21383 -0.44000
O 	O 	0.95685 0.44196 0.18980 -0.52500
O 	O 	0.89944 0.29108 0.18370 -0.31100
O 	O 	0.86973 0.19151 0.10159 -0.31200
O 	O 	0.82540 0.17903 0.02187 -0.45600
O 	O 	0.85963 0.15603 0.00370 -0.47100
O 	O 	0.73098 0.14253 0.16992 -0.28600
O 	O 	0.58333 0.08463 0.17433 -0.44400
O 	O 	0.56292 0.02574 0.18983 -0.50500
O 	O 	0.86855 0.40411 0.18083 -0.46300
O 	O 	0.82200 0.36311 0.15824 -0.49600
O 	O 	0.83290 0.32417 0.25268 -0.29700
O 	O 	0.94868 0.25889 0.27823 -0.29100
O 	O 	0.88895 0.11240 0.29573 -0.53000
O 	O 	0.93405 0.09796 0.28589 -0.38500
O 	O 	0.93938 0.36325 0.34663 -0.29200
O 	O 	0.08383 0.47621 0.35596 -0.48600
O 	O 	0.09601 0.47404 0.39166 -0.44700
O 	O 	0.06347 0.56023 0.20463 -0.25200
O 	O 	0.06657 0.56863 0.20173 -0.23900
H 	H 	0.08767 0.56313 0.20423 -0.50100
H 	H 	0.06387 0.58193 0.21453 0.54200
H 	H 	0.06177 0.59053 0.20083 -0.19100
H 	H 	0.08557 0.57163 0.19053 0.40100
H 	H 	0.08267 0.55213 0.20743 0.59400
H 	H 	0.05837 0.57003 0.21823 -0.43800
H 	H 	0.06027 0.58313 0.20543 0.12700
H 	H 	0.08467 0.56533 0.19463 -0.17200
C 	C 	0.64049 0.76513 0.53663 0.35800
C 	C 	0.62895 0.72346 0.54006 -0.01100
C 	C 	0.65126 0.71358 0.55443 -0.11600
H 	H 	0.67083 0.73337 0.56337 0.08100
C 	C 	0.64500 0.67587 0.55558 0.10100
H 	H 	0.66013 0.66977 0.56517 -0.00100
C 	C 	0.61689 0.64753 0.54283 -0.25000
H 	H 	0.61283 0.62177 0.54347 0.10500
C 	C 	0.59321 0.65583 0.52833 0.25700
C 	C 	0.59949 0.69397 0.52699 -0.19300
H 	H 	0.58413 0.69987 0.51747 0.10500
C 	C 	0.53987 0.62862 0.50153 0.24900
H 	H 	0.52313 0.63677 0.50937 -0.05300
H 	H 	0.55533 0.64867 0.49037 -0.05700
C 	C 	0.51439 0.58815 0.49056 -0.42000
C 	C 	0.48521 0.55686 0.50298 0.47900
C 	C 	0.46617 0.51926 0.49376 -0.40200
C 	C 	0.47280 0.51324 0.47160 0.50600
C 	C 	0.50124 0.54528 0.45938 -0.40500
C 	C 	0.52431 0.58364 0.46953 0.47500
C 	C 	0.55778 0.61676 0.45625 -0.99900
H 	H 	0.57993 0.63267 0.46597 0.33200
H 	H 	0.56613 0.60537 0.44467 0.33600
H 	H 	0.54853 0.63337 0.44967 0.31000
C 	C 	0.47326 0.56299 0.52637 -0.98900
H 	H 	0.46973 0.58587 0.52637 0.32600
H 	H 	0.44873 0.53977 0.53067 0.33200
H 	H 	0.49383 0.56717 0.53677 0.31300
C 	C 	0.45017 0.47253 0.46146 -1.05300
H 	H 	0.42603 0.45667 0.46977 0.35400
H 	H 	0.44363 0.47467 0.44627 0.34200
H 	H 	0.46633 0.46007 0.46187 0.33800
C 	C 	0.43766 0.48359 0.50732 0.22500
H 	H 	0.44403 0.48877 0.52307 -0.03500
H 	H 	0.43983 0.46057 0.50307 -0.03600
C 	C 	0.36834 0.44292 0.51381 0.22500
C 	C 	0.37536 0.41758 0.52711 -0.21800
H 	H 	0.40133 0.42297 0.52957 0.11000
C 	C 	0.34350 0.38410 0.53678 0.06200
H 	H 	0.34823 0.36717 0.54567 -0.00300
C 	C 	0.30461 0.37595 0.53314 -0.09900
H 	H 	0.28333 0.35357 0.53957 0.06000
C 	C 	0.29759 0.40130 0.51984 -0.03300
C 	C 	0.32945 0.43478 0.51017 -0.15800
H 	H 	0.32473 0.45167 0.50127 0.10800
C 	C 	0.25643 0.39261 0.51601 0.37700
C 	C 	0.50960 0.53882 0.43540 0.27100
H 	H 	0.52063 0.56377 0.42727 -0.05600
H 	H 	0.48483 0.51957 0.42817 -0.06500
C 	C 	0.54297 0.51176 0.41527 0.25000
C 	C 	0.56940 0.49732 0.41613 -0.23400
H 	H 	0.58123 0.49727 0.42967 0.11100
C 	C 	0.57822 0.48313 0.39721 0.08100
H 	H 	0.59533 0.47277 0.39797 -0.00500
C 	C 	0.56131 0.48431 0.37673 -0.10700
H 	H 	0.56803 0.47577 0.36377 0.07200
C 	C 	0.53466 0.49811 0.37589 -0.00000
C 	C 	0.52664 0.51270 0.39531 -0.20000
H 	H 	0.50973 0.52327 0.39457 0.11000
C 	C 	0.51638 0.49994 0.35422 0.35800
C 	C 	0.50418 0.70758 0.51009 0.41200
C 	C 	0.48174 0.68141 0.52928 -0.03700
C 	C 	0.44116 0.65388 0.52767 -0.08300
H 	H 	0.42723 0.65257 0.51467 0.05900
C 	C 	0.42137 0.62836 0.54542 0.04600
H 	H 	0.39423 0.60997 0.54437 0.00800
C 	C 	0.44216 0.63036 0.56479 -0.20500
H 	H 	0.42893 0.61327 0.57667 0.10600
C 	C 	0.48274 0.65789 0.56640 0.22100
C 	C 	0.50253 0.68341 0.54864 -0.16400
H 	H 	0.52963 0.70177 0.54967 0.09900
C 	C 	0.54167 0.67833 0.58604 0.23600
H 	H 	0.55153 0.67337 0.57217 -0.04300
H 	H 	0.55173 0.70677 0.58727 -0.04500
C 	C 	0.55608 0.66393 0.60588 -0.39700
C 	C 	0.55573 0.62823 0.60459 0.54000
C 	C 	0.57469 0.61858 0.62190 -0.41200
C 	C 	0.59406 0.64523 0.63872 0.47700
C 	C 	0.59245 0.68048 0.64071 -0.38900
C 	C 	0.57142 0.68924 0.62508 0.45200
C 	C 	0.56654 0.72545 0.62726 -0.94000
H 	H 	0.54173 0.71997 0.62057 0.30500
H 	H 	0.56653 0.73167 0.64277 0.29900
H 	H 	0.58823 0.74767 0.61977 0.28100
C 	C 	0.53838 0.60109 0.58573 -1.13200
H 	H 	0.55933 0.60397 0.57587 0.36200
H 	H 	0.52373 0.57407 0.59107 0.36900
H 	H 	0.52063 0.60737 0.57777 0.37000
C 	C 	0.61827 0.63591 0.65556 -0.99600
H 	H 	0.63563 0.62907 0.64767 0.34300
H 	H 	0.63393 0.65897 0.66477 0.34000
H 	H 	0.60033 0.61387 0.66477 0.33500
C 	C 	0.57542 0.58043 0.62053 0.24500
H 	H 	0.55463 0.56167 0.61067 -0.05400
H 	H 	0.57173 0.56827 0.63517 -0.04500
C 	C 	0.62722 0.56537 0.61391 0.23500
C 	C 	0.66771 0.57987 0.61033 -0.21000
H 	H 	0.68473 0.60697 0.60757 0.10400
C 	C 	0.68285 0.55396 0.61091 0.07000
H 	H 	0.70993 0.56367 0.60847 -0.00200
C 	C 	0.65749 0.51354 0.61506 -0.09500
H 	H 	0.66763 0.49617 0.61547 0.06800
C 	C 	0.61699 0.49902 0.61863 -0.01700
C 	C 	0.60185 0.52493 0.61805 -0.17700
H 	H 	0.57473 0.51517 0.62047 0.09900
C 	C 	0.59094 0.45698 0.62274 0.32100
C 	C 	0.61826 0.71008 0.65796 0.25300
H 	H 	0.61783 0.73467 0.65577 -0.04800
H 	H 	0.64553 0.71587 0.65597 -0.04800
C 	C 	0.63531 0.71146 0.69592 0.22100
C 	C 	0.62517 0.69054 0.71598 -0.20100
H 	H 	0.60003 0.66817 0.71777 0.10200
C 	C 	0.65263 0.70310 0.73338 0.06000
H 	H 	0.64583 0.68907 0.74677 0.00100
C 	C 	0.69024 0.73661 0.73073 -0.09900
H 	H 	0.70863 0.74507 0.74237 0.05700
C 	C 	0.70038 0.75753 0.71067 -0.01400
C 	C 	0.67292 0.74497 0.69327 -0.16900
H 	H 	0.67973 0.75897 0.67987 0.09200
C 	C 	0.74018 0.79361 0.70797 0.30900
Mn	Mn	0.67635 0.84518 0.52765 1.26300
Mn	Mn	0.58861 0.78196 0.49515 1.28800
Mn	Mn	0.51900 0.71239 0.45915 1.22200
O 	O 	0.67014 0.79207 0.54717 -0.44000
O 	O 	0.62351 0.77530 0.52314 -0.52500
O 	O 	0.56610 0.62442 0.51704 -0.31100
O 	O 	0.53639 0.52485 0.43493 -0.31200
O 	O 	0.49206 0.51237 0.35521 -0.45600
O 	O 	0.52629 0.48937 0.33704 -0.47100
O 	O 	0.39764 0.47587 0.50326 -0.28600
O 	O 	0.24999 0.41797 0.50767 -0.44400
O 	O 	0.22958 0.35908 0.52317 -0.50500
O 	O 	0.53521 0.73745 0.51417 -0.46300
O 	O 	0.48866 0.69645 0.49158 -0.49600
O 	O 	0.49956 0.65751 0.58602 -0.29700
O 	O 	0.61534 0.59223 0.61157 -0.29100
O 	O 	0.55561 0.44574 0.62907 -0.53000
O 	O 	0.60071 0.43130 0.61923 -0.38500
O 	O 	0.60604 0.69659 0.67997 -0.29200
O 	O 	0.75049 0.80955 0.68930 -0.48600
O 	O 	0.76267 0.80738 0.72500 -0.44700
O 	O 	0.73013 0.89357 0.53797 -0.25200
O 	O 	0.73323 0.90197 0.53507 -0.23900
H 	H 	0.75433 0.89647 0.53757 -0.50100
H 	H 	0.73053 0.91527 0.54787 0.54200
H 	H 	0.72843 0.92387 0.53417 -0.19100
H 	H 	0.75223 0.90497 0.52387 0.40100
H 	H 	0.74933 0.88547 0.54077 0.59400
H 	H 	0.72503 0.90337 0.55157 -0.43800
H 	H 	0.72693 0.91647 0.53877 0.12700
H 	H 	0.75133 0.89867 0.52797 -0.17200
