data_crystal

_cell_length_a 38.76300
_cell_length_b 38.76300
_cell_length_c 59.47100
_cell_angle_alpha 90.00000
_cell_angle_beta  90.00000
_cell_angle_gamma 120.00000

_symmetry_space_group_name_	'P 1'
_symmetry_space_group_name_H-M	'P 1'

loop_
_symmetry_equiv_pos_as_xyz
  x,y,z

loop_
_atom_site_label
_atom_site_type_symbol
_atom_site_fract_x
_atom_site_fract_y
_atom_site_fract_z
_atom_site_charge
C 	C 	0.30670 0.20813 0.37003 0.27600
C 	C 	0.29495 0.23837 0.37349 0.05200
C 	C 	0.31788 0.27079 0.38802 -0.16700
H 	H 	0.33740 0.27060 0.39700 0.09800
C 	C 	0.31148 0.30219 0.38893 0.14500
H 	H 	0.32680 0.32350 0.39850 -0.02400
C 	C 	0.28326 0.30250 0.37617 -0.27000
H 	H 	0.27920 0.32420 0.37690 0.12400
C 	C 	0.25960 0.27064 0.36174 0.28300
C 	C 	0.26570 0.23837 0.36046 -0.22800
H 	H 	0.25030 0.21710 0.35090 0.12700
C 	C 	0.20623 0.24408 0.33507 0.24400
H 	H 	0.18950 0.21940 0.34300 -0.04600
H 	H 	0.22150 0.23930 0.32380 -0.04900
C 	C 	0.18077 0.25967 0.32405 -0.41400
C 	C 	0.15144 0.26154 0.33653 0.50700
C 	C 	0.13236 0.28005 0.32704 -0.42200
C 	C 	0.13898 0.29248 0.30506 0.52400
C 	C 	0.16739 0.28910 0.29268 -0.41100
C 	C 	0.19066 0.27404 0.30280 0.48900
C 	C 	0.22408 0.27412 0.28958 -1.00900
H 	H 	0.24610 0.28040 0.29940 0.33400
H 	H 	0.23260 0.29370 0.27780 0.33400
H 	H 	0.21480 0.24830 0.28310 0.32600
C 	C 	0.13973 0.24372 0.35969 -1.03300
H 	H 	0.13620 0.21740 0.35960 0.34000
H 	H 	0.11520 0.24240 0.36400 0.34600
H 	H 	0.16030 0.26000 0.37020 0.33300
C 	C 	0.11674 0.31118 0.29486 -1.06100
H 	H 	0.09260 0.30300 0.30310 0.36100
H 	H 	0.11040 0.30280 0.27950 0.35000
H 	H 	0.13300 0.33970 0.29550 0.34700
C 	C 	0.10412 0.28722 0.34076 0.24000
H 	H 	0.11060 0.28850 0.35660 -0.03800
H 	H 	0.10620 0.31230 0.33650 -0.03900
C 	C 	0.03454 0.25863 0.34723 0.23000
C 	C 	0.04155 0.29101 0.36052 -0.22100
H 	H 	0.06750 0.31160 0.36280 0.11200
C 	C 	0.00980 0.29256 0.37032 0.07300
H 	H 	0.01450 0.31420 0.37920 -0.00900
C 	C 	0.97105 0.26174 0.36685 -0.10100
H 	H 	0.94980 0.26280 0.37340 0.05900
C 	C 	0.96404 0.22936 0.35356 -0.00500
C 	C 	0.99579 0.22781 0.34376 -0.16800
H 	H 	0.99110 0.20610 0.33490 0.11300
C 	C 	0.92295 0.19654 0.34952 0.33600
C 	C 	0.17580 0.30375 0.26876 0.28700
H 	H 	0.18690 0.28990 0.26060 -0.06300
H 	H 	0.15120 0.29810 0.26140 -0.06400
C 	C 	0.20909 0.36379 0.24851 0.27700
C 	C 	0.23572 0.40516 0.24956 -0.24400
H 	H 	0.24730 0.41690 0.26320 0.11600
C 	C 	0.24475 0.42845 0.23049 0.09900
H 	H 	0.26170 0.45590 0.23130 -0.01300
C 	C 	0.22782 0.40987 0.20989 -0.14000
H 	H 	0.23450 0.42490 0.19680 0.08200
C 	C 	0.20152 0.36963 0.20913 0.04500
C 	C 	0.19309 0.34679 0.22874 -0.23700
H 	H 	0.17610 0.31940 0.22800 0.12800
C 	C 	0.18271 0.34870 0.18759 0.28900
O 	O 	0.33618 0.21079 0.38047 -0.40800
O 	O 	0.28948 0.18124 0.35635 -0.33000
O 	O 	0.23246 0.27485 0.35049 -0.31200
O 	O 	0.20255 0.34465 0.26831 -0.32100
O 	O 	0.15835 0.31228 0.18857 -0.26100
O 	O 	0.19241 0.36953 0.17021 -0.43100
O 	O 	0.06427 0.25506 0.33679 -0.28700
O 	O 	0.91644 0.16529 0.34116 -0.26100
O 	O 	0.89594 0.20345 0.35681 -0.46100
Zn	Zn	0.83549 0.17809 0.36099 1.17500
Zn	Zn	0.16451 0.34260 0.13901 1.17500
C 	C 	0.69330 0.90143 0.12997 0.27500
C 	C 	0.70505 0.94342 0.12651 0.05100
C 	C 	0.68212 0.95291 0.11198 -0.16800
H 	H 	0.66260 0.93320 0.10300 0.09700
C 	C 	0.68852 0.99071 0.11107 0.14400
H 	H 	0.67320 0.99670 0.10150 -0.02500
C 	C 	0.71674 0.01924 0.12383 -0.27100
H 	H 	0.72080 0.04500 0.12310 0.12300
C 	C 	0.74040 0.01104 0.13826 0.28200
C 	C 	0.73430 0.97267 0.13954 -0.22900
H 	H 	0.74970 0.96680 0.14910 0.12600
C 	C 	0.79377 0.03785 0.16493 0.24300
H 	H 	0.81050 0.02990 0.15700 -0.04700
H 	H 	0.77850 0.01780 0.17620 -0.05000
C 	C 	0.81923 0.07890 0.17595 -0.41500
C 	C 	0.84856 0.11010 0.16347 0.50600
C 	C 	0.86764 0.14769 0.17296 -0.42300
C 	C 	0.86102 0.15350 0.19494 0.52300
C 	C 	0.83261 0.12171 0.20732 -0.41200
C 	C 	0.80934 0.08338 0.19720 0.48800
C 	C 	0.77592 0.05004 0.21042 -1.01000
H 	H 	0.75390 0.03430 0.20060 0.33300
H 	H 	0.76740 0.06110 0.22220 0.33300
H 	H 	0.78520 0.03350 0.21690 0.32500
C 	C 	0.86027 0.10399 0.14031 -1.03400
H 	H 	0.86380 0.08120 0.14040 0.33900
H 	H 	0.88480 0.12720 0.13600 0.34500
H 	H 	0.83970 0.09970 0.12980 0.33200
C 	C 	0.88326 0.19444 0.20514 -1.06200
H 	H 	0.90740 0.21040 0.19690 0.36000
H 	H 	0.88960 0.19240 0.22050 0.34900
H 	H 	0.86700 0.20670 0.20450 0.34600
C 	C 	0.89588 0.18310 0.15924 0.23900
H 	H 	0.88940 0.17790 0.14340 -0.03900
H 	H 	0.89380 0.20610 0.16350 -0.04000
C 	C 	0.96546 0.22409 0.15277 0.22900
C 	C 	0.95845 0.24946 0.13948 -0.22200
H 	H 	0.93250 0.24410 0.13720 0.11100
C 	C 	0.99020 0.28276 0.12968 0.07200
H 	H 	0.98550 0.29970 0.12080 -0.01000
C 	C 	0.02895 0.29069 0.13315 -0.10200
H 	H 	0.05020 0.31300 0.12660 0.05800
C 	C 	0.03596 0.26532 0.14644 -0.00600
C 	C 	0.00421 0.23202 0.15624 -0.16900
H 	H 	0.00890 0.21500 0.16510 0.11200
C 	C 	0.07705 0.27359 0.15048 0.33500
C 	C 	0.82420 0.12795 0.23124 0.28600
H 	H 	0.81310 0.10300 0.23940 -0.06400
H 	H 	0.84880 0.14690 0.23860 -0.06500
C 	C 	0.79091 0.15470 0.25149 0.27600
C 	C 	0.76428 0.16944 0.25044 -0.24500
H 	H 	0.75270 0.16960 0.23680 0.11500
C 	C 	0.75525 0.18370 0.26951 0.09800
H 	H 	0.73830 0.19420 0.26870 -0.01400
C 	C 	0.77218 0.18205 0.29011 -0.14000
H 	H 	0.76550 0.19040 0.30320 0.08200
C 	C 	0.79848 0.16811 0.29087 0.04500
C 	C 	0.80691 0.15370 0.27126 -0.23700
H 	H 	0.82390 0.14330 0.27200 0.12800
C 	C 	0.81729 0.16599 0.31241 0.28900
O 	O 	0.66382 0.87461 0.11953 -0.40800
O 	O 	0.71052 0.89176 0.14365 -0.33000
O 	O 	0.76754 0.04239 0.14951 -0.31200
O 	O 	0.79745 0.14210 0.23169 -0.32100
O 	O 	0.84165 0.15393 0.31143 -0.26100
O 	O 	0.80759 0.17712 0.32979 -0.43100
O 	O 	0.93573 0.19079 0.16321 -0.28700
O 	O 	0.08356 0.24885 0.15884 -0.26100
O 	O 	0.10406 0.30751 0.14319 -0.46100
Zn	Zn	0.34260 0.16451 0.36099 1.17500
C 	C 	0.90143 0.69330 0.37003 0.27500
C 	C 	0.94342 0.70505 0.37349 0.05100
C 	C 	0.95291 0.68212 0.38802 -0.16800
H 	H 	0.93320 0.66260 0.39700 0.09700
C 	C 	0.99071 0.68852 0.38893 0.14400
H 	H 	0.99670 0.67320 0.39850 -0.02500
C 	C 	0.01924 0.71674 0.37617 -0.27100
H 	H 	0.04500 0.72080 0.37690 0.12300
C 	C 	0.01104 0.74040 0.36174 0.28200
C 	C 	0.97267 0.73430 0.36046 -0.22900
H 	H 	0.96680 0.74970 0.35090 0.12600
C 	C 	0.03785 0.79377 0.33507 0.24300
H 	H 	0.02990 0.81050 0.34300 -0.04700
H 	H 	0.01780 0.77850 0.32380 -0.05000
C 	C 	0.07890 0.81923 0.32405 -0.41500
C 	C 	0.11010 0.84856 0.33653 0.50600
C 	C 	0.14769 0.86764 0.32704 -0.42300
C 	C 	0.15350 0.86102 0.30506 0.52300
C 	C 	0.12171 0.83261 0.29268 -0.41200
C 	C 	0.08338 0.80934 0.30280 0.48800
C 	C 	0.05004 0.77592 0.28958 -1.01000
H 	H 	0.03430 0.75390 0.29940 0.33300
H 	H 	0.06110 0.76740 0.27780 0.33300
H 	H 	0.03350 0.78520 0.28310 0.32500
C 	C 	0.10399 0.86027 0.35969 -1.03400
H 	H 	0.08120 0.86380 0.35960 0.33900
H 	H 	0.12720 0.88480 0.36400 0.34500
H 	H 	0.09970 0.83970 0.37020 0.33200
C 	C 	0.19444 0.88326 0.29486 -1.06200
H 	H 	0.21040 0.90740 0.30310 0.36000
H 	H 	0.19240 0.88960 0.27950 0.34900
H 	H 	0.20670 0.86700 0.29550 0.34600
C 	C 	0.18310 0.89588 0.34076 0.23900
H 	H 	0.17790 0.88940 0.35660 -0.03900
H 	H 	0.20610 0.89380 0.33650 -0.04000
C 	C 	0.22409 0.96546 0.34723 0.22900
C 	C 	0.24946 0.95845 0.36052 -0.22200
H 	H 	0.24410 0.93250 0.36280 0.11100
C 	C 	0.28276 0.99020 0.37032 0.07200
H 	H 	0.29970 0.98550 0.37920 -0.01000
C 	C 	0.29069 0.02895 0.36685 -0.10200
H 	H 	0.31300 0.05020 0.37340 0.05800
C 	C 	0.26532 0.03596 0.35356 -0.00600
C 	C 	0.23202 0.00421 0.34376 -0.16900
H 	H 	0.21500 0.00890 0.33490 0.11200
C 	C 	0.27359 0.07705 0.34952 0.33500
C 	C 	0.12795 0.82420 0.26876 0.28600
H 	H 	0.10300 0.81310 0.26060 -0.06400
H 	H 	0.14690 0.84880 0.26140 -0.06500
C 	C 	0.15470 0.79091 0.24851 0.27600
C 	C 	0.16944 0.76428 0.24956 -0.24500
H 	H 	0.16960 0.75270 0.26320 0.11500
C 	C 	0.18370 0.75525 0.23049 0.09800
H 	H 	0.19420 0.73830 0.23130 -0.01400
C 	C 	0.18205 0.77218 0.20989 -0.14000
H 	H 	0.19040 0.76550 0.19680 0.08200
C 	C 	0.16811 0.79848 0.20913 0.04500
C 	C 	0.15370 0.80691 0.22874 -0.23700
H 	H 	0.14330 0.82390 0.22800 0.12800
C 	C 	0.16599 0.81729 0.18759 0.28900
O 	O 	0.87461 0.66382 0.38047 -0.40800
O 	O 	0.89176 0.71052 0.35635 -0.33000
O 	O 	0.04239 0.76754 0.35049 -0.31200
O 	O 	0.14210 0.79745 0.26831 -0.32100
O 	O 	0.15393 0.84165 0.18857 -0.26100
O 	O 	0.17712 0.80759 0.17021 -0.43100
O 	O 	0.19079 0.93573 0.33679 -0.28700
O 	O 	0.24885 0.08356 0.34116 -0.26100
O 	O 	0.30751 0.10406 0.35681 -0.46100
C 	C 	0.20813 0.30670 0.12997 0.27500
C 	C 	0.23837 0.29495 0.12651 0.05100
C 	C 	0.27079 0.31788 0.11198 -0.16800
H 	H 	0.27060 0.33740 0.10300 0.09700
C 	C 	0.30219 0.31148 0.11107 0.14400
H 	H 	0.32350 0.32680 0.10150 -0.02500
C 	C 	0.30250 0.28326 0.12383 -0.27100
H 	H 	0.32420 0.27920 0.12310 0.12300
C 	C 	0.27064 0.25960 0.13826 0.28200
C 	C 	0.23837 0.26570 0.13954 -0.22900
H 	H 	0.21710 0.25030 0.14910 0.12600
C 	C 	0.24408 0.20623 0.16493 0.24300
H 	H 	0.21940 0.18950 0.15700 -0.04700
H 	H 	0.23930 0.22150 0.17620 -0.05000
C 	C 	0.25967 0.18077 0.17595 -0.41500
C 	C 	0.26154 0.15144 0.16347 0.50600
C 	C 	0.28005 0.13236 0.17296 -0.42300
C 	C 	0.29248 0.13898 0.19494 0.52300
C 	C 	0.28910 0.16739 0.20732 -0.41200
C 	C 	0.27404 0.19066 0.19720 0.48800
C 	C 	0.27412 0.22408 0.21042 -1.01000
H 	H 	0.28040 0.24610 0.20060 0.33300
H 	H 	0.29370 0.23260 0.22220 0.33300
H 	H 	0.24830 0.21480 0.21690 0.32500
C 	C 	0.24372 0.13973 0.14031 -1.03400
H 	H 	0.21740 0.13620 0.14040 0.33900
H 	H 	0.24240 0.11520 0.13600 0.34500
H 	H 	0.26000 0.16030 0.12980 0.33200
C 	C 	0.31118 0.11674 0.20514 -1.06200
H 	H 	0.30300 0.09260 0.19690 0.36000
H 	H 	0.30280 0.11040 0.22050 0.34900
H 	H 	0.33970 0.13300 0.20450 0.34600
C 	C 	0.28722 0.10412 0.15924 0.23900
H 	H 	0.28850 0.11060 0.14340 -0.03900
H 	H 	0.31230 0.10620 0.16350 -0.04000
C 	C 	0.25863 0.03454 0.15277 0.22900
C 	C 	0.29101 0.04155 0.13948 -0.22200
H 	H 	0.31160 0.06750 0.13720 0.11100
C 	C 	0.29256 0.00980 0.12968 0.07200
H 	H 	0.31420 0.01450 0.12080 -0.01000
C 	C 	0.26174 0.97105 0.13315 -0.10200
H 	H 	0.26280 0.94980 0.12660 0.05800
C 	C 	0.22936 0.96404 0.14644 -0.00600
C 	C 	0.22781 0.99579 0.15624 -0.16900
H 	H 	0.20610 0.99110 0.16510 0.11200
C 	C 	0.19654 0.92295 0.15048 0.33500
C 	C 	0.30375 0.17580 0.23124 0.28600
H 	H 	0.28990 0.18690 0.23940 -0.06400
H 	H 	0.29810 0.15120 0.23860 -0.06500
C 	C 	0.36379 0.20909 0.25149 0.27600
C 	C 	0.40516 0.23572 0.25044 -0.24500
H 	H 	0.41690 0.24730 0.23680 0.11500
C 	C 	0.42845 0.24475 0.26951 0.09800
H 	H 	0.45590 0.26170 0.26870 -0.01400
C 	C 	0.40987 0.22782 0.29011 -0.14000
H 	H 	0.42490 0.23450 0.30320 0.08200
C 	C 	0.36963 0.20152 0.29087 0.04500
C 	C 	0.34679 0.19309 0.27126 -0.23700
H 	H 	0.31940 0.17610 0.27200 0.12800
C 	C 	0.34870 0.18271 0.31241 0.28900
O 	O 	0.21079 0.33618 0.11953 -0.40800
O 	O 	0.18124 0.28948 0.14365 -0.33000
O 	O 	0.27485 0.23246 0.14951 -0.31200
O 	O 	0.34465 0.20255 0.23169 -0.32100
O 	O 	0.31228 0.15835 0.31143 -0.26100
O 	O 	0.36953 0.19241 0.32979 -0.43100
O 	O 	0.25506 0.06427 0.16321 -0.28700
O 	O 	0.16529 0.91644 0.15884 -0.26100
O 	O 	0.20345 0.89594 0.14319 -0.46100
Zn	Zn	0.17809 0.83549 0.13901 1.17500
C 	C 	0.97337 0.54146 0.70336 0.27500
C 	C 	0.96162 0.57170 0.70682 0.05100
C 	C 	0.98455 0.60412 0.72135 -0.16800
H 	H 	0.00407 0.60393 0.73033 0.09700
C 	C 	0.97815 0.63552 0.72226 0.14400
H 	H 	0.99347 0.65683 0.73183 -0.02500
C 	C 	0.94993 0.63583 0.70950 -0.27100
H 	H 	0.94587 0.65753 0.71023 0.12300
C 	C 	0.92627 0.60397 0.69507 0.28200
C 	C 	0.93237 0.57170 0.69379 -0.22900
H 	H 	0.91697 0.55043 0.68423 0.12600
C 	C 	0.87290 0.57741 0.66840 0.24300
H 	H 	0.85617 0.55273 0.67633 -0.04700
H 	H 	0.88817 0.57263 0.65713 -0.05000
C 	C 	0.84744 0.59300 0.65738 -0.41500
C 	C 	0.81811 0.59487 0.66986 0.50600
C 	C 	0.79903 0.61338 0.66037 -0.42300
C 	C 	0.80565 0.62581 0.63839 0.52300
C 	C 	0.83406 0.62243 0.62601 -0.41200
C 	C 	0.85733 0.60737 0.63613 0.48800
C 	C 	0.89075 0.60745 0.62291 -1.01000
H 	H 	0.91277 0.61373 0.63273 0.33300
H 	H 	0.89927 0.62703 0.61113 0.33300
H 	H 	0.88147 0.58163 0.61643 0.32500
C 	C 	0.80640 0.57705 0.69302 -1.03400
H 	H 	0.80287 0.55073 0.69293 0.33800
H 	H 	0.78187 0.57573 0.69733 0.34500
H 	H 	0.82697 0.59333 0.70353 0.33200
C 	C 	0.78341 0.64451 0.62819 -1.06200
H 	H 	0.75927 0.63633 0.63643 0.36000
H 	H 	0.77707 0.63613 0.61283 0.34900
H 	H 	0.79967 0.67303 0.62883 0.34600
C 	C 	0.77079 0.62055 0.67409 0.23900
H 	H 	0.77727 0.62183 0.68993 -0.03900
H 	H 	0.77287 0.64563 0.66983 -0.04000
C 	C 	0.70121 0.59196 0.68056 0.22900
C 	C 	0.70822 0.62434 0.69385 -0.22200
H 	H 	0.73417 0.64493 0.69613 0.11100
C 	C 	0.67647 0.62589 0.70365 0.07200
H 	H 	0.68117 0.64753 0.71253 -0.01000
C 	C 	0.63772 0.59507 0.70018 -0.10200
H 	H 	0.61647 0.59613 0.70673 0.05800
C 	C 	0.63071 0.56269 0.68689 -0.00600
C 	C 	0.66246 0.56114 0.67709 -0.16900
H 	H 	0.65777 0.53943 0.66823 0.11200
C 	C 	0.58962 0.52987 0.68285 0.33500
C 	C 	0.84247 0.63708 0.60209 0.28600
H 	H 	0.85357 0.62323 0.59393 -0.06400
H 	H 	0.81787 0.63143 0.59473 -0.06500
C 	C 	0.87576 0.69712 0.58184 0.27600
C 	C 	0.90239 0.73849 0.58289 -0.24500
H 	H 	0.91397 0.75023 0.59653 0.11500
C 	C 	0.91142 0.76178 0.56382 0.09800
H 	H 	0.92837 0.78923 0.56463 -0.01400
C 	C 	0.89449 0.74320 0.54322 -0.14000
H 	H 	0.90117 0.75823 0.53013 0.08200
C 	C 	0.86819 0.70296 0.54246 0.04500
C 	C 	0.85976 0.68012 0.56207 -0.23700
H 	H 	0.84277 0.65273 0.56133 0.12800
C 	C 	0.84938 0.68203 0.52092 0.28900
O 	O 	0.00285 0.54412 0.71380 -0.40800
O 	O 	0.95615 0.51457 0.68968 -0.33000
O 	O 	0.89913 0.60818 0.68382 -0.31200
O 	O 	0.86922 0.67798 0.60164 -0.32100
O 	O 	0.82502 0.64561 0.52190 -0.26100
O 	O 	0.85908 0.70286 0.50354 -0.43100
O 	O 	0.73094 0.58839 0.67012 -0.28700
O 	O 	0.58311 0.49862 0.67449 -0.26100
O 	O 	0.56261 0.53678 0.69014 -0.46100
Zn	Zn	0.50216 0.51143 0.69433 1.17500
Zn	Zn	0.83117 0.67593 0.47234 1.17500
C 	C 	0.35997 0.23476 0.46330 0.27500
C 	C 	0.37172 0.27675 0.45984 0.05100
C 	C 	0.34879 0.28624 0.44531 -0.16800
H 	H 	0.32927 0.26653 0.43633 0.09700
C 	C 	0.35519 0.32404 0.44440 0.14400
H 	H 	0.33987 0.33003 0.43483 -0.02500
C 	C 	0.38341 0.35257 0.45716 -0.27100
H 	H 	0.38747 0.37833 0.45643 0.12300
C 	C 	0.40707 0.34437 0.47159 0.28200
C 	C 	0.40097 0.30600 0.47287 -0.22900
H 	H 	0.41637 0.30013 0.48243 0.12600
C 	C 	0.46044 0.37118 0.49826 0.24300
H 	H 	0.47717 0.36323 0.49033 -0.04700
H 	H 	0.44517 0.35113 0.50953 -0.05000
C 	C 	0.48590 0.41223 0.50928 -0.41500
C 	C 	0.51523 0.44343 0.49680 0.50600
C 	C 	0.53431 0.48102 0.50629 -0.42300
C 	C 	0.52769 0.48683 0.52827 0.52300
C 	C 	0.49928 0.45504 0.54065 -0.41200
C 	C 	0.47601 0.41671 0.53053 0.48800
C 	C 	0.44259 0.38337 0.54375 -1.01000
H 	H 	0.42057 0.36763 0.53393 0.33300
H 	H 	0.43407 0.39443 0.55553 0.33300
H 	H 	0.45187 0.36683 0.55023 0.32500
C 	C 	0.52694 0.43732 0.47364 -1.03400
H 	H 	0.53047 0.41453 0.47373 0.33800
H 	H 	0.55147 0.46053 0.46933 0.34500
H 	H 	0.50637 0.43303 0.46313 0.33200
C 	C 	0.54993 0.52777 0.53847 -1.06200
H 	H 	0.57407 0.54373 0.53023 0.36000
H 	H 	0.55627 0.52573 0.55383 0.34900
H 	H 	0.53367 0.54003 0.53783 0.34600
C 	C 	0.56255 0.51643 0.49257 0.23900
H 	H 	0.55607 0.51123 0.47673 -0.03900
H 	H 	0.56047 0.53943 0.49683 -0.04000
C 	C 	0.63213 0.55742 0.48610 0.22900
C 	C 	0.62512 0.58279 0.47281 -0.22200
H 	H 	0.59917 0.57743 0.47053 0.11100
C 	C 	0.65687 0.61609 0.46301 0.07200
H 	H 	0.65217 0.63303 0.45413 -0.01000
C 	C 	0.69562 0.62402 0.46648 -0.10200
H 	H 	0.71687 0.64633 0.45993 0.05800
C 	C 	0.70263 0.59865 0.47977 -0.00600
C 	C 	0.67088 0.56535 0.48957 -0.16900
H 	H 	0.67557 0.54833 0.49843 0.11200
C 	C 	0.74372 0.60692 0.48381 0.33500
C 	C 	0.49087 0.46128 0.56457 0.28600
H 	H 	0.47977 0.43633 0.57273 -0.06400
H 	H 	0.51547 0.48023 0.57193 -0.06500
C 	C 	0.45758 0.48803 0.58482 0.27600
C 	C 	0.43095 0.50277 0.58377 -0.24500
H 	H 	0.41937 0.50293 0.57013 0.11500
C 	C 	0.42192 0.51703 0.60284 0.09800
H 	H 	0.40497 0.52753 0.60203 -0.01400
C 	C 	0.43885 0.51538 0.62344 -0.14000
H 	H 	0.43217 0.52373 0.63653 0.08200
C 	C 	0.46515 0.50144 0.62420 0.04500
C 	C 	0.47358 0.48703 0.60459 -0.23700
H 	H 	0.49057 0.47663 0.60533 0.12800
C 	C 	0.48396 0.49932 0.64574 0.28900
O 	O 	0.33049 0.20794 0.45286 -0.40800
O 	O 	0.37719 0.22509 0.47698 -0.33000
O 	O 	0.43421 0.37572 0.48284 -0.31200
O 	O 	0.46412 0.47543 0.56502 -0.32100
O 	O 	0.50832 0.48726 0.64476 -0.26100
O 	O 	0.47426 0.51045 0.66312 -0.43100
O 	O 	0.60240 0.52412 0.49654 -0.28700
O 	O 	0.75023 0.58218 0.49217 -0.26100
O 	O 	0.77073 0.64084 0.47652 -0.46100
Zn	Zn	0.00927 0.49784 0.69433 1.17500
C 	C 	0.56810 0.02663 0.70336 0.27500
C 	C 	0.61009 0.03838 0.70682 0.05100
C 	C 	0.61958 0.01545 0.72135 -0.16800
H 	H 	0.59987 0.99593 0.73033 0.09700
C 	C 	0.65738 0.02185 0.72226 0.14400
H 	H 	0.66337 0.00653 0.73183 -0.02500
C 	C 	0.68591 0.05007 0.70950 -0.27100
H 	H 	0.71167 0.05413 0.71023 0.12300
C 	C 	0.67771 0.07373 0.69507 0.28200
C 	C 	0.63934 0.06763 0.69379 -0.22900
H 	H 	0.63347 0.08303 0.68423 0.12600
C 	C 	0.70452 0.12710 0.66840 0.24300
H 	H 	0.69657 0.14383 0.67633 -0.04700
H 	H 	0.68447 0.11183 0.65713 -0.05000
C 	C 	0.74557 0.15256 0.65738 -0.41500
C 	C 	0.77677 0.18189 0.66986 0.50600
C 	C 	0.81436 0.20097 0.66037 -0.42300
C 	C 	0.82017 0.19435 0.63839 0.52300
C 	C 	0.78838 0.16594 0.62601 -0.41200
C 	C 	0.75005 0.14267 0.63613 0.48800
C 	C 	0.71671 0.10925 0.62291 -1.01000
H 	H 	0.70097 0.08723 0.63273 0.33300
H 	H 	0.72777 0.10073 0.61113 0.33300
H 	H 	0.70017 0.11853 0.61643 0.32500
C 	C 	0.77066 0.19360 0.69302 -1.03400
H 	H 	0.74787 0.19713 0.69293 0.33800
H 	H 	0.79387 0.21813 0.69733 0.34500
H 	H 	0.76637 0.17303 0.70353 0.33200
C 	C 	0.86111 0.21659 0.62819 -1.06200
H 	H 	0.87707 0.24073 0.63643 0.36000
H 	H 	0.85907 0.22293 0.61283 0.34900
H 	H 	0.87337 0.20033 0.62883 0.34600
C 	C 	0.84977 0.22921 0.67409 0.23900
H 	H 	0.84457 0.22273 0.68993 -0.03900
H 	H 	0.87277 0.22713 0.66983 -0.04000
C 	C 	0.89076 0.29879 0.68056 0.22900
C 	C 	0.91613 0.29178 0.69385 -0.22200
H 	H 	0.91077 0.26583 0.69613 0.11100
C 	C 	0.94943 0.32353 0.70365 0.07200
H 	H 	0.96637 0.31883 0.71253 -0.01000
C 	C 	0.95736 0.36228 0.70018 -0.10200
H 	H 	0.97967 0.38353 0.70673 0.05800
C 	C 	0.93199 0.36929 0.68689 -0.00600
C 	C 	0.89869 0.33754 0.67709 -0.16900
H 	H 	0.88167 0.34223 0.66823 0.11200
C 	C 	0.94026 0.41038 0.68285 0.33500
C 	C 	0.79462 0.15753 0.60209 0.28600
H 	H 	0.76967 0.14643 0.59393 -0.06400
H 	H 	0.81357 0.18213 0.59473 -0.06500
C 	C 	0.82137 0.12424 0.58184 0.27600
C 	C 	0.83611 0.09761 0.58289 -0.24500
H 	H 	0.83627 0.08603 0.59653 0.11500
C 	C 	0.85037 0.08858 0.56382 0.09800
H 	H 	0.86087 0.07163 0.56463 -0.01400
C 	C 	0.84872 0.10551 0.54322 -0.14000
H 	H 	0.85707 0.09883 0.53013 0.08200
C 	C 	0.83478 0.13181 0.54246 0.04500
C 	C 	0.82037 0.14024 0.56207 -0.23700
H 	H 	0.80997 0.15723 0.56133 0.12800
C 	C 	0.83266 0.15062 0.52092 0.28900
O 	O 	0.54128 0.99715 0.71380 -0.40800
O 	O 	0.55843 0.04385 0.68968 -0.33000
O 	O 	0.70906 0.10087 0.68382 -0.31200
O 	O 	0.80877 0.13078 0.60164 -0.32100
O 	O 	0.82060 0.17498 0.52190 -0.26100
O 	O 	0.84379 0.14092 0.50354 -0.43100
O 	O 	0.85746 0.26906 0.67012 -0.28700
O 	O 	0.91552 0.41689 0.67449 -0.26100
O 	O 	0.97418 0.43739 0.69014 -0.46100
C 	C 	0.87480 0.64003 0.46330 0.27500
C 	C 	0.90504 0.62828 0.45984 0.05100
C 	C 	0.93746 0.65121 0.44531 -0.16800
H 	H 	0.93727 0.67073 0.43633 0.09700
C 	C 	0.96886 0.64481 0.44440 0.14400
H 	H 	0.99017 0.66013 0.43483 -0.02500
C 	C 	0.96917 0.61659 0.45716 -0.27100
H 	H 	0.99087 0.61253 0.45643 0.12300
C 	C 	0.93731 0.59293 0.47159 0.28200
C 	C 	0.90504 0.59903 0.47287 -0.22900
H 	H 	0.88377 0.58363 0.48243 0.12600
C 	C 	0.91075 0.53956 0.49826 0.24300
H 	H 	0.88607 0.52283 0.49033 -0.04700
H 	H 	0.90597 0.55483 0.50953 -0.05000
C 	C 	0.92634 0.51410 0.50928 -0.41500
C 	C 	0.92821 0.48477 0.49680 0.50600
C 	C 	0.94672 0.46569 0.50629 -0.42300
C 	C 	0.95915 0.47231 0.52827 0.52300
C 	C 	0.95577 0.50072 0.54065 -0.41200
C 	C 	0.94071 0.52399 0.53053 0.48800
C 	C 	0.94079 0.55741 0.54375 -1.01000
H 	H 	0.94707 0.57943 0.53393 0.33300
H 	H 	0.96037 0.56593 0.55553 0.33300
H 	H 	0.91497 0.54813 0.55023 0.32500
C 	C 	0.91039 0.47306 0.47364 -1.03400
H 	H 	0.88407 0.46953 0.47373 0.33800
H 	H 	0.90907 0.44853 0.46933 0.34500
H 	H 	0.92667 0.49363 0.46313 0.33200
C 	C 	0.97785 0.45007 0.53847 -1.06200
H 	H 	0.96967 0.42593 0.53023 0.36000
H 	H 	0.96947 0.44373 0.55383 0.34900
H 	H 	0.00637 0.46633 0.53783 0.34600
C 	C 	0.95389 0.43745 0.49257 0.23900
H 	H 	0.95517 0.44393 0.47673 -0.03900
H 	H 	0.97897 0.43953 0.49683 -0.04000
C 	C 	0.92530 0.36787 0.48610 0.22900
C 	C 	0.95768 0.37488 0.47281 -0.22200
H 	H 	0.97827 0.40083 0.47053 0.11100
C 	C 	0.95923 0.34313 0.46301 0.07200
H 	H 	0.98087 0.34783 0.45413 -0.01000
C 	C 	0.92841 0.30438 0.46648 -0.10200
H 	H 	0.92947 0.28313 0.45993 0.05800
C 	C 	0.89603 0.29737 0.47977 -0.00600
C 	C 	0.89448 0.32912 0.48957 -0.16900
H 	H 	0.87277 0.32443 0.49843 0.11200
C 	C 	0.86321 0.25628 0.48381 0.33500
C 	C 	0.97042 0.50913 0.56457 0.28600
H 	H 	0.95657 0.52023 0.57273 -0.06400
H 	H 	0.96477 0.48453 0.57193 -0.06500
C 	C 	0.03046 0.54242 0.58482 0.27600
C 	C 	0.07183 0.56905 0.58377 -0.24500
H 	H 	0.08357 0.58063 0.57013 0.11500
C 	C 	0.09512 0.57808 0.60284 0.09800
H 	H 	0.12257 0.59503 0.60203 -0.01400
C 	C 	0.07654 0.56115 0.62344 -0.14000
H 	H 	0.09157 0.56783 0.63653 0.08200
C 	C 	0.03630 0.53485 0.62420 0.04500
C 	C 	0.01346 0.52642 0.60459 -0.23600
H 	H 	0.98607 0.50943 0.60533 0.12800
C 	C 	0.01537 0.51604 0.64574 0.28900
O 	O 	0.87746 0.66951 0.45286 -0.40800
O 	O 	0.84791 0.62281 0.47698 -0.33000
O 	O 	0.94152 0.56579 0.48284 -0.31200
O 	O 	0.01132 0.53588 0.56502 -0.32100
O 	O 	0.97895 0.49168 0.64476 -0.26100
O 	O 	0.03620 0.52574 0.66312 -0.43100
O 	O 	0.92173 0.39760 0.49654 -0.28700
O 	O 	0.83196 0.24977 0.49217 -0.26100
O 	O 	0.87012 0.22927 0.47652 -0.46100
Zn	Zn	0.84476 0.16883 0.47234 1.17500
C 	C 	0.64003 0.87480 0.03670 0.27500
C 	C 	0.62828 0.90504 0.04016 0.05100
C 	C 	0.65121 0.93746 0.05469 -0.16800
H 	H 	0.67073 0.93727 0.06367 0.09700
C 	C 	0.64481 0.96886 0.05560 0.14400
H 	H 	0.66013 0.99017 0.06517 -0.02500
C 	C 	0.61659 0.96917 0.04284 -0.27100
H 	H 	0.61253 0.99087 0.04357 0.12300
C 	C 	0.59293 0.93731 0.02841 0.28200
C 	C 	0.59903 0.90504 0.02713 -0.22900
H 	H 	0.58363 0.88377 0.01757 0.12600
C 	C 	0.53956 0.91075 0.00174 0.24300
H 	H 	0.52283 0.88607 0.00967 -0.04700
H 	H 	0.55483 0.90597 0.99047 -0.05000
C 	C 	0.51410 0.92634 0.99072 -0.41500
C 	C 	0.48477 0.92821 0.00320 0.50600
C 	C 	0.46569 0.94672 0.99371 -0.42300
C 	C 	0.47231 0.95915 0.97173 0.52300
C 	C 	0.50072 0.95577 0.95935 -0.41200
C 	C 	0.52399 0.94071 0.96947 0.48800
C 	C 	0.55741 0.94079 0.95625 -1.01000
H 	H 	0.57943 0.94707 0.96607 0.33300
H 	H 	0.56593 0.96037 0.94447 0.33300
H 	H 	0.54813 0.91497 0.94977 0.32500
C 	C 	0.47306 0.91039 0.02636 -1.03400
H 	H 	0.46953 0.88407 0.02627 0.33800
H 	H 	0.44853 0.90907 0.03067 0.34500
H 	H 	0.49363 0.92667 0.03687 0.33200
C 	C 	0.45007 0.97785 0.96153 -1.06200
H 	H 	0.42593 0.96967 0.96977 0.36000
H 	H 	0.44373 0.96947 0.94617 0.34900
H 	H 	0.46633 0.00637 0.96217 0.34600
C 	C 	0.43745 0.95389 0.00743 0.23900
H 	H 	0.44393 0.95517 0.02327 -0.03900
H 	H 	0.43953 0.97897 0.00317 -0.04000
C 	C 	0.36787 0.92530 0.01390 0.22900
C 	C 	0.37488 0.95768 0.02719 -0.22200
H 	H 	0.40083 0.97827 0.02947 0.11100
C 	C 	0.34313 0.95923 0.03699 0.07200
H 	H 	0.34783 0.98087 0.04587 -0.01000
C 	C 	0.30438 0.92841 0.03352 -0.10200
H 	H 	0.28313 0.92947 0.04007 0.05800
C 	C 	0.29737 0.89603 0.02023 -0.00600
C 	C 	0.32912 0.89448 0.01043 -0.16900
H 	H 	0.32443 0.87277 0.00157 0.11200
C 	C 	0.25628 0.86321 0.01619 0.33500
C 	C 	0.50913 0.97042 0.93543 0.28600
H 	H 	0.52023 0.95657 0.92727 -0.06400
H 	H 	0.48453 0.96477 0.92807 -0.06500
C 	C 	0.54242 0.03046 0.91518 0.27600
C 	C 	0.56905 0.07183 0.91623 -0.24500
H 	H 	0.58063 0.08357 0.92987 0.11500
C 	C 	0.57808 0.09512 0.89716 0.09800
H 	H 	0.59503 0.12257 0.89797 -0.01400
C 	C 	0.56115 0.07654 0.87656 -0.14000
H 	H 	0.56783 0.09157 0.86347 0.08200
C 	C 	0.53485 0.03630 0.87580 0.04500
C 	C 	0.52642 0.01346 0.89541 -0.23600
H 	H 	0.50943 0.98607 0.89467 0.12800
C 	C 	0.51604 0.01537 0.85426 0.28900
O 	O 	0.66951 0.87746 0.04714 -0.40800
O 	O 	0.62281 0.84791 0.02302 -0.33000
O 	O 	0.56579 0.94152 0.01716 -0.31200
O 	O 	0.53588 0.01132 0.93498 -0.32100
O 	O 	0.49168 0.97895 0.85524 -0.26100
O 	O 	0.52574 0.03620 0.83688 -0.43100
O 	O 	0.39760 0.92173 0.00346 -0.28700
O 	O 	0.24977 0.83196 0.00783 -0.26100
O 	O 	0.22927 0.87012 0.02348 -0.46100
Zn	Zn	0.16883 0.84476 0.02766 1.17500
Zn	Zn	0.49784 0.00927 0.80567 1.17500
C 	C 	0.02663 0.56810 0.79664 0.27500
C 	C 	0.03838 0.61009 0.79318 0.05100
C 	C 	0.01545 0.61958 0.77865 -0.16800
H 	H 	0.99593 0.59987 0.76967 0.09700
C 	C 	0.02185 0.65738 0.77774 0.14400
H 	H 	0.00653 0.66337 0.76817 -0.02500
C 	C 	0.05007 0.68591 0.79050 -0.27100
H 	H 	0.05413 0.71167 0.78977 0.12300
C 	C 	0.07373 0.67771 0.80493 0.28200
C 	C 	0.06763 0.63934 0.80621 -0.22900
H 	H 	0.08303 0.63347 0.81577 0.12600
C 	C 	0.12710 0.70452 0.83160 0.24300
H 	H 	0.14383 0.69657 0.82367 -0.04700
H 	H 	0.11183 0.68447 0.84287 -0.05000
C 	C 	0.15256 0.74557 0.84262 -0.41500
C 	C 	0.18189 0.77677 0.83014 0.50600
C 	C 	0.20097 0.81436 0.83963 -0.42300
C 	C 	0.19435 0.82017 0.86161 0.52300
C 	C 	0.16594 0.78838 0.87399 -0.41200
C 	C 	0.14267 0.75005 0.86387 0.48800
C 	C 	0.10925 0.71671 0.87709 -1.01000
H 	H 	0.08723 0.70097 0.86727 0.33300
H 	H 	0.10073 0.72777 0.88887 0.33300
H 	H 	0.11853 0.70017 0.88357 0.32500
C 	C 	0.19360 0.77066 0.80698 -1.03400
H 	H 	0.19713 0.74787 0.80707 0.33800
H 	H 	0.21813 0.79387 0.80267 0.34500
H 	H 	0.17303 0.76637 0.79647 0.33200
C 	C 	0.21659 0.86111 0.87181 -1.06200
H 	H 	0.24073 0.87707 0.86357 0.36000
H 	H 	0.22293 0.85907 0.88717 0.34900
H 	H 	0.20033 0.87337 0.87117 0.34600
C 	C 	0.22921 0.84977 0.82591 0.23900
H 	H 	0.22273 0.84457 0.81007 -0.03900
H 	H 	0.22713 0.87277 0.83017 -0.04000
C 	C 	0.29879 0.89076 0.81944 0.22900
C 	C 	0.29178 0.91613 0.80615 -0.22200
H 	H 	0.26583 0.91077 0.80387 0.11100
C 	C 	0.32353 0.94943 0.79635 0.07200
H 	H 	0.31883 0.96637 0.78747 -0.01000
C 	C 	0.36228 0.95736 0.79982 -0.10200
H 	H 	0.38353 0.97967 0.79327 0.05800
C 	C 	0.36929 0.93199 0.81311 -0.00600
C 	C 	0.33754 0.89869 0.82291 -0.16900
H 	H 	0.34223 0.88167 0.83177 0.11200
C 	C 	0.41038 0.94026 0.81715 0.33500
C 	C 	0.15753 0.79462 0.89791 0.28600
H 	H 	0.14643 0.76967 0.90607 -0.06400
H 	H 	0.18213 0.81357 0.90527 -0.06500
C 	C 	0.12424 0.82137 0.91816 0.27600
C 	C 	0.09761 0.83611 0.91711 -0.24500
H 	H 	0.08603 0.83627 0.90347 0.11500
C 	C 	0.08858 0.85037 0.93618 0.09800
H 	H 	0.07163 0.86087 0.93537 -0.01400
C 	C 	0.10551 0.84872 0.95678 -0.14000
H 	H 	0.09883 0.85707 0.96987 0.08200
C 	C 	0.13181 0.83478 0.95754 0.04500
C 	C 	0.14024 0.82037 0.93793 -0.23700
H 	H 	0.15723 0.80997 0.93867 0.12800
C 	C 	0.15062 0.83266 0.97908 0.28900
O 	O 	0.99715 0.54128 0.78620 -0.40800
O 	O 	0.04385 0.55843 0.81032 -0.33000
O 	O 	0.10087 0.70906 0.81618 -0.31200
O 	O 	0.13078 0.80877 0.89836 -0.32100
O 	O 	0.17498 0.82060 0.97810 -0.26100
O 	O 	0.14092 0.84379 0.99646 -0.43100
O 	O 	0.26906 0.85746 0.82988 -0.28700
O 	O 	0.41689 0.91552 0.82551 -0.26100
O 	O 	0.43739 0.97418 0.80986 -0.46100
Zn	Zn	0.67593 0.83117 0.02766 1.17500
C 	C 	0.23476 0.35997 0.03670 0.27500
C 	C 	0.27675 0.37172 0.04016 0.05100
C 	C 	0.28624 0.34879 0.05469 -0.16800
H 	H 	0.26653 0.32927 0.06367 0.09700
C 	C 	0.32404 0.35519 0.05560 0.14400
H 	H 	0.33003 0.33987 0.06517 -0.02500
C 	C 	0.35257 0.38341 0.04284 -0.27100
H 	H 	0.37833 0.38747 0.04357 0.12300
C 	C 	0.34437 0.40707 0.02841 0.28200
C 	C 	0.30600 0.40097 0.02713 -0.22900
H 	H 	0.30013 0.41637 0.01757 0.12600
C 	C 	0.37118 0.46044 0.00174 0.24300
H 	H 	0.36323 0.47717 0.00967 -0.04700
H 	H 	0.35113 0.44517 0.99047 -0.05000
C 	C 	0.41223 0.48590 0.99072 -0.41500
C 	C 	0.44343 0.51523 0.00320 0.50600
C 	C 	0.48102 0.53431 0.99371 -0.42300
C 	C 	0.48683 0.52769 0.97173 0.52300
C 	C 	0.45504 0.49928 0.95935 -0.41200
C 	C 	0.41671 0.47601 0.96947 0.48800
C 	C 	0.38337 0.44259 0.95625 -1.01000
H 	H 	0.36763 0.42057 0.96607 0.33300
H 	H 	0.39443 0.43407 0.94447 0.33300
H 	H 	0.36683 0.45187 0.94977 0.32500
C 	C 	0.43732 0.52694 0.02636 -1.03400
H 	H 	0.41453 0.53047 0.02627 0.33800
H 	H 	0.46053 0.55147 0.03067 0.34500
H 	H 	0.43303 0.50637 0.03687 0.33200
C 	C 	0.52777 0.54993 0.96153 -1.06200
H 	H 	0.54373 0.57407 0.96977 0.36000
H 	H 	0.52573 0.55627 0.94617 0.34900
H 	H 	0.54003 0.53367 0.96217 0.34600
C 	C 	0.51643 0.56255 0.00743 0.23900
H 	H 	0.51123 0.55607 0.02327 -0.03900
H 	H 	0.53943 0.56047 0.00317 -0.04000
C 	C 	0.55742 0.63213 0.01390 0.22900
C 	C 	0.58279 0.62512 0.02719 -0.22200
H 	H 	0.57743 0.59917 0.02947 0.11100
C 	C 	0.61609 0.65687 0.03699 0.07200
H 	H 	0.63303 0.65217 0.04587 -0.01000
C 	C 	0.62402 0.69562 0.03352 -0.10200
H 	H 	0.64633 0.71687 0.04007 0.05800
C 	C 	0.59865 0.70263 0.02023 -0.00600
C 	C 	0.56535 0.67088 0.01043 -0.16900
H 	H 	0.54833 0.67557 0.00157 0.11200
C 	C 	0.60692 0.74372 0.01619 0.33500
C 	C 	0.46128 0.49087 0.93543 0.28600
H 	H 	0.43633 0.47977 0.92727 -0.06400
H 	H 	0.48023 0.51547 0.92807 -0.06500
C 	C 	0.48803 0.45758 0.91518 0.27600
C 	C 	0.50277 0.43095 0.91623 -0.24500
H 	H 	0.50293 0.41937 0.92987 0.11500
C 	C 	0.51703 0.42192 0.89716 0.09800
H 	H 	0.52753 0.40497 0.89797 -0.01400
C 	C 	0.51538 0.43885 0.87656 -0.14000
H 	H 	0.52373 0.43217 0.86347 0.08200
C 	C 	0.50144 0.46515 0.87580 0.04500
C 	C 	0.48703 0.47358 0.89541 -0.23700
H 	H 	0.47663 0.49057 0.89467 0.12800
C 	C 	0.49932 0.48396 0.85426 0.28900
O 	O 	0.20794 0.33049 0.04714 -0.40800
O 	O 	0.22509 0.37719 0.02302 -0.33000
O 	O 	0.37572 0.43421 0.01716 -0.31200
O 	O 	0.47543 0.46412 0.93498 -0.32100
O 	O 	0.48726 0.50832 0.85524 -0.26100
O 	O 	0.51045 0.47426 0.83688 -0.43100
O 	O 	0.52412 0.60240 0.00346 -0.28700
O 	O 	0.58218 0.75023 0.00783 -0.26100
O 	O 	0.64084 0.77073 0.02348 -0.46100
C 	C 	0.54146 0.97337 0.79664 0.27500
C 	C 	0.57170 0.96162 0.79318 0.05100
C 	C 	0.60412 0.98455 0.77865 -0.16800
H 	H 	0.60393 0.00407 0.76967 0.09700
C 	C 	0.63552 0.97815 0.77774 0.14400
H 	H 	0.65683 0.99347 0.76817 -0.02500
C 	C 	0.63583 0.94993 0.79050 -0.27100
H 	H 	0.65753 0.94587 0.78977 0.12300
C 	C 	0.60397 0.92627 0.80493 0.28200
C 	C 	0.57170 0.93237 0.80621 -0.22900
H 	H 	0.55043 0.91697 0.81577 0.12600
C 	C 	0.57741 0.87290 0.83160 0.24300
H 	H 	0.55273 0.85617 0.82367 -0.04700
H 	H 	0.57263 0.88817 0.84287 -0.05000
C 	C 	0.59300 0.84744 0.84262 -0.41500
C 	C 	0.59487 0.81811 0.83014 0.50600
C 	C 	0.61338 0.79903 0.83963 -0.42300
C 	C 	0.62581 0.80565 0.86161 0.52300
C 	C 	0.62243 0.83406 0.87399 -0.41200
C 	C 	0.60737 0.85733 0.86387 0.48800
C 	C 	0.60745 0.89075 0.87709 -1.01000
H 	H 	0.61373 0.91277 0.86727 0.33300
H 	H 	0.62703 0.89927 0.88887 0.33300
H 	H 	0.58163 0.88147 0.88357 0.32500
C 	C 	0.57705 0.80640 0.80698 -1.03400
H 	H 	0.55073 0.80287 0.80707 0.33800
H 	H 	0.57573 0.78187 0.80267 0.34500
H 	H 	0.59333 0.82697 0.79647 0.33200
C 	C 	0.64451 0.78341 0.87181 -1.06200
H 	H 	0.63633 0.75927 0.86357 0.36000
H 	H 	0.63613 0.77707 0.88717 0.34900
H 	H 	0.67303 0.79967 0.87117 0.34600
C 	C 	0.62055 0.77079 0.82591 0.23900
H 	H 	0.62183 0.77727 0.81007 -0.03900
H 	H 	0.64563 0.77287 0.83017 -0.04000
C 	C 	0.59196 0.70121 0.81944 0.22900
C 	C 	0.62434 0.70822 0.80615 -0.22200
H 	H 	0.64493 0.73417 0.80387 0.11100
C 	C 	0.62589 0.67647 0.79635 0.07200
H 	H 	0.64753 0.68117 0.78747 -0.01000
C 	C 	0.59507 0.63772 0.79982 -0.10200
H 	H 	0.59613 0.61647 0.79327 0.05800
C 	C 	0.56269 0.63071 0.81311 -0.00600
C 	C 	0.56114 0.66246 0.82291 -0.16900
H 	H 	0.53943 0.65777 0.83177 0.11200
C 	C 	0.52987 0.58962 0.81715 0.33500
C 	C 	0.63708 0.84247 0.89791 0.28600
H 	H 	0.62323 0.85357 0.90607 -0.06400
H 	H 	0.63143 0.81787 0.90527 -0.06500
C 	C 	0.69712 0.87576 0.91816 0.27600
C 	C 	0.73849 0.90239 0.91711 -0.24500
H 	H 	0.75023 0.91397 0.90347 0.11500
C 	C 	0.76178 0.91142 0.93618 0.09800
H 	H 	0.78923 0.92837 0.93537 -0.01400
C 	C 	0.74320 0.89449 0.95678 -0.14000
H 	H 	0.75823 0.90117 0.96987 0.08200
C 	C 	0.70296 0.86819 0.95754 0.04500
C 	C 	0.68012 0.85976 0.93793 -0.23700
H 	H 	0.65273 0.84277 0.93867 0.12800
C 	C 	0.68203 0.84938 0.97908 0.28900
O 	O 	0.54412 0.00285 0.78620 -0.40800
O 	O 	0.51457 0.95615 0.81032 -0.33000
O 	O 	0.60818 0.89913 0.81618 -0.31200
O 	O 	0.67798 0.86922 0.89836 -0.32100
O 	O 	0.64561 0.82502 0.97810 -0.26100
O 	O 	0.70286 0.85908 0.99646 -0.43100
O 	O 	0.58839 0.73094 0.82988 -0.28700
O 	O 	0.49862 0.58311 0.82551 -0.26100
O 	O 	0.53678 0.56261 0.80986 -0.46100
Zn	Zn	0.51143 0.50216 0.80567 1.17500
C 	C 	0.79187 0.09857 0.37003 0.27500
C 	C 	0.76163 0.05658 0.37349 0.05100
C 	C 	0.72921 0.04709 0.38802 -0.16800
H 	H 	0.72940 0.06680 0.39700 0.09700
C 	C 	0.69781 0.00929 0.38893 0.14400
H 	H 	0.67650 0.00330 0.39850 -0.02500
C 	C 	0.69750 0.98076 0.37617 -0.27100
H 	H 	0.67580 0.95500 0.37690 0.12300
C 	C 	0.72936 0.98896 0.36174 0.28200
C 	C 	0.76163 0.02733 0.36046 -0.22900
H 	H 	0.78290 0.03320 0.35090 0.12600
C 	C 	0.75592 0.96215 0.33507 0.24300
H 	H 	0.78060 0.97010 0.34300 -0.04700
H 	H 	0.76070 0.98220 0.32380 -0.05000
C 	C 	0.74033 0.92110 0.32405 -0.41500
C 	C 	0.73846 0.88990 0.33653 0.50600
C 	C 	0.71995 0.85231 0.32704 -0.42300
C 	C 	0.70752 0.84650 0.30506 0.52300
C 	C 	0.71090 0.87829 0.29268 -0.41200
C 	C 	0.72596 0.91662 0.30280 0.48800
C 	C 	0.72588 0.94996 0.28958 -1.01000
H 	H 	0.71960 0.96570 0.29940 0.33300
H 	H 	0.70630 0.93890 0.27780 0.33300
H 	H 	0.75170 0.96650 0.28310 0.32500
C 	C 	0.75628 0.89601 0.35969 -1.03400
H 	H 	0.78260 0.91880 0.35960 0.33900
H 	H 	0.75760 0.87280 0.36400 0.34500
H 	H 	0.74000 0.90030 0.37020 0.33200
C 	C 	0.68882 0.80556 0.29486 -1.06200
H 	H 	0.69700 0.78960 0.30310 0.36000
H 	H 	0.69720 0.80760 0.27950 0.34900
H 	H 	0.66030 0.79330 0.29550 0.34600
C 	C 	0.71278 0.81690 0.34076 0.23900
H 	H 	0.71150 0.82210 0.35660 -0.03900
H 	H 	0.68770 0.79390 0.33650 -0.04000
C 	C 	0.74137 0.77591 0.34723 0.22900
C 	C 	0.70899 0.75054 0.36052 -0.22200
H 	H 	0.68840 0.75590 0.36280 0.11100
C 	C 	0.70744 0.71724 0.37032 0.07200
H 	H 	0.68580 0.70030 0.37920 -0.01000
C 	C 	0.73826 0.70931 0.36685 -0.10200
H 	H 	0.73720 0.68700 0.37340 0.05800
C 	C 	0.77064 0.73468 0.35356 -0.00600
C 	C 	0.77219 0.76798 0.34376 -0.16900
H 	H 	0.79390 0.78500 0.33490 0.11200
C 	C 	0.80346 0.72641 0.34952 0.33500
C 	C 	0.69625 0.87205 0.26876 0.28600
H 	H 	0.71010 0.89700 0.26060 -0.06400
H 	H 	0.70190 0.85310 0.26140 -0.06500
C 	C 	0.63621 0.84530 0.24851 0.27600
C 	C 	0.59484 0.83056 0.24956 -0.24500
H 	H 	0.58310 0.83040 0.26320 0.11500
C 	C 	0.57155 0.81630 0.23049 0.09800
H 	H 	0.54410 0.80580 0.23130 -0.01400
C 	C 	0.59013 0.81795 0.20989 -0.14000
H 	H 	0.57510 0.80960 0.19680 0.08200
C 	C 	0.63037 0.83189 0.20913 0.04500
C 	C 	0.65321 0.84630 0.22874 -0.23700
H 	H 	0.68060 0.85670 0.22800 0.12800
C 	C 	0.65130 0.83401 0.18759 0.28900
O 	O 	0.78921 0.12539 0.38047 -0.40800
O 	O 	0.81876 0.10824 0.35635 -0.33000
O 	O 	0.72515 0.95761 0.35049 -0.31200
O 	O 	0.65535 0.85790 0.26831 -0.32100
O 	O 	0.68772 0.84607 0.18857 -0.26100
O 	O 	0.63047 0.82288 0.17021 -0.43100
O 	O 	0.74494 0.80921 0.33679 -0.28700
O 	O 	0.83471 0.75115 0.34116 -0.26100
O 	O 	0.79655 0.69249 0.35681 -0.46100
Zn	Zn	0.82191 0.65740 0.36099 1.17500
C 	C 	0.09857 0.79187 0.12997 0.27500
C 	C 	0.05658 0.76163 0.12651 0.05100
C 	C 	0.04709 0.72921 0.11198 -0.16800
H 	H 	0.06680 0.72940 0.10300 0.09700
C 	C 	0.00929 0.69781 0.11107 0.14400
H 	H 	0.00330 0.67650 0.10150 -0.02500
C 	C 	0.98076 0.69750 0.12383 -0.27100
H 	H 	0.95500 0.67580 0.12310 0.12300
C 	C 	0.98896 0.72936 0.13826 0.28200
C 	C 	0.02733 0.76163 0.13954 -0.22900
H 	H 	0.03320 0.78290 0.14910 0.12600
C 	C 	0.96215 0.75592 0.16493 0.24300
H 	H 	0.97010 0.78060 0.15700 -0.04700
H 	H 	0.98220 0.76070 0.17620 -0.05000
C 	C 	0.92110 0.74033 0.17595 -0.41500
C 	C 	0.88990 0.73846 0.16347 0.50600
C 	C 	0.85231 0.71995 0.17296 -0.42300
C 	C 	0.84650 0.70752 0.19494 0.52300
C 	C 	0.87829 0.71090 0.20732 -0.41200
C 	C 	0.91662 0.72596 0.19720 0.48800
C 	C 	0.94996 0.72588 0.21042 -1.01000
H 	H 	0.96570 0.71960 0.20060 0.33300
H 	H 	0.93890 0.70630 0.22220 0.33300
H 	H 	0.96650 0.75170 0.21690 0.32500
C 	C 	0.89601 0.75628 0.14031 -1.03400
H 	H 	0.91880 0.78260 0.14040 0.33900
H 	H 	0.87280 0.75760 0.13600 0.34500
H 	H 	0.90030 0.74000 0.12980 0.33200
C 	C 	0.80556 0.68882 0.20514 -1.06200
H 	H 	0.78960 0.69700 0.19690 0.36000
H 	H 	0.80760 0.69720 0.22050 0.34900
H 	H 	0.79330 0.66030 0.20450 0.34600
C 	C 	0.81690 0.71278 0.15924 0.23900
H 	H 	0.82210 0.71150 0.14340 -0.03900
H 	H 	0.79390 0.68770 0.16350 -0.04000
C 	C 	0.77591 0.74137 0.15277 0.22900
C 	C 	0.75054 0.70899 0.13948 -0.22200
H 	H 	0.75590 0.68840 0.13720 0.11100
C 	C 	0.71724 0.70744 0.12968 0.07200
H 	H 	0.70030 0.68580 0.12080 -0.01000
C 	C 	0.70931 0.73826 0.13315 -0.10200
H 	H 	0.68700 0.73720 0.12660 0.05800
C 	C 	0.73468 0.77064 0.14644 -0.00600
C 	C 	0.76798 0.77219 0.15624 -0.16900
H 	H 	0.78500 0.79390 0.16510 0.11200
C 	C 	0.72641 0.80346 0.15048 0.33500
C 	C 	0.87205 0.69625 0.23124 0.28600
H 	H 	0.89700 0.71010 0.23940 -0.06400
H 	H 	0.85310 0.70190 0.23860 -0.06500
C 	C 	0.84530 0.63621 0.25149 0.27600
C 	C 	0.83056 0.59484 0.25044 -0.24500
H 	H 	0.83040 0.58310 0.23680 0.11500
C 	C 	0.81630 0.57155 0.26951 0.09800
H 	H 	0.80580 0.54410 0.26870 -0.01400
C 	C 	0.81795 0.59013 0.29011 -0.14000
H 	H 	0.80960 0.57510 0.30320 0.08200
C 	C 	0.83189 0.63037 0.29087 0.04500
C 	C 	0.84630 0.65321 0.27126 -0.23700
H 	H 	0.85670 0.68060 0.27200 0.12800
C 	C 	0.83401 0.65130 0.31241 0.28900
O 	O 	0.12539 0.78921 0.11953 -0.40800
O 	O 	0.10824 0.81876 0.14365 -0.33000
O 	O 	0.95761 0.72515 0.14951 -0.31200
O 	O 	0.85790 0.65535 0.23169 -0.32100
O 	O 	0.84607 0.68772 0.31143 -0.26100
O 	O 	0.82288 0.63047 0.32979 -0.43100
O 	O 	0.80921 0.74494 0.16321 -0.28700
O 	O 	0.75115 0.83471 0.15884 -0.26100
O 	O 	0.69249 0.79655 0.14319 -0.46100
Zn	Zn	0.65740 0.82191 0.13901 1.17500
C 	C 	0.45854 0.43190 0.70336 0.27500
C 	C 	0.42830 0.38991 0.70682 0.05100
C 	C 	0.39588 0.38042 0.72135 -0.16800
H 	H 	0.39607 0.40013 0.73033 0.09700
C 	C 	0.36448 0.34262 0.72226 0.14400
H 	H 	0.34317 0.33663 0.73183 -0.02500
C 	C 	0.36417 0.31409 0.70950 -0.27100
H 	H 	0.34247 0.28833 0.71023 0.12300
C 	C 	0.39603 0.32229 0.69507 0.28200
C 	C 	0.42830 0.36066 0.69379 -0.22900
H 	H 	0.44957 0.36653 0.68423 0.12600
C 	C 	0.42259 0.29548 0.66840 0.24300
H 	H 	0.44727 0.30343 0.67633 -0.04700
H 	H 	0.42737 0.31553 0.65713 -0.05000
C 	C 	0.40700 0.25443 0.65738 -0.41500
C 	C 	0.40513 0.22323 0.66986 0.50600
C 	C 	0.38662 0.18564 0.66037 -0.42300
C 	C 	0.37419 0.17983 0.63839 0.52300
C 	C 	0.37757 0.21162 0.62601 -0.41200
C 	C 	0.39263 0.24995 0.63613 0.48800
C 	C 	0.39255 0.28329 0.62291 -1.01000
H 	H 	0.38627 0.29903 0.63273 0.33300
H 	H 	0.37297 0.27223 0.61113 0.33300
H 	H 	0.41837 0.29983 0.61643 0.32500
C 	C 	0.42295 0.22934 0.69302 -1.03400
H 	H 	0.44927 0.25213 0.69293 0.33800
H 	H 	0.42427 0.20613 0.69733 0.34500
H 	H 	0.40667 0.23363 0.70353 0.33200
C 	C 	0.35549 0.13889 0.62819 -1.06200
H 	H 	0.36367 0.12293 0.63643 0.36000
H 	H 	0.36387 0.14093 0.61283 0.34900
H 	H 	0.32697 0.12663 0.62883 0.34600
C 	C 	0.37945 0.15023 0.67409 0.23900
H 	H 	0.37817 0.15543 0.68993 -0.03900
H 	H 	0.35437 0.12723 0.66983 -0.04000
C 	C 	0.40804 0.10924 0.68056 0.22900
C 	C 	0.37566 0.08387 0.69385 -0.22200
H 	H 	0.35507 0.08923 0.69613 0.11100
C 	C 	0.37411 0.05057 0.70365 0.07200
H 	H 	0.35247 0.03363 0.71253 -0.01000
C 	C 	0.40493 0.04264 0.70018 -0.10200
H 	H 	0.40387 0.02033 0.70673 0.05800
C 	C 	0.43731 0.06801 0.68689 -0.00600
C 	C 	0.43886 0.10131 0.67709 -0.16900
H 	H 	0.46057 0.11833 0.66823 0.11200
C 	C 	0.47013 0.05974 0.68285 0.33500
C 	C 	0.36292 0.20538 0.60209 0.28600
H 	H 	0.37677 0.23033 0.59393 -0.06400
H 	H 	0.36857 0.18643 0.59473 -0.06500
C 	C 	0.30288 0.17863 0.58184 0.27600
C 	C 	0.26151 0.16389 0.58289 -0.24500
H 	H 	0.24977 0.16373 0.59653 0.11500
C 	C 	0.23822 0.14963 0.56382 0.09800
H 	H 	0.21077 0.13913 0.56463 -0.01400
C 	C 	0.25680 0.15128 0.54322 -0.14000
H 	H 	0.24177 0.14293 0.53013 0.08200
C 	C 	0.29704 0.16522 0.54246 0.04500
C 	C 	0.31988 0.17963 0.56207 -0.23700
H 	H 	0.34727 0.19003 0.56133 0.12800
C 	C 	0.31797 0.16734 0.52092 0.28900
O 	O 	0.45588 0.45872 0.71380 -0.40800
O 	O 	0.48543 0.44157 0.68968 -0.33000
O 	O 	0.39182 0.29094 0.68382 -0.31200
O 	O 	0.32202 0.19123 0.60164 -0.32100
O 	O 	0.35439 0.17940 0.52190 -0.26100
O 	O 	0.29714 0.15621 0.50354 -0.43100
O 	O 	0.41161 0.14254 0.67012 -0.28700
O 	O 	0.50138 0.08448 0.67449 -0.26100
O 	O 	0.46322 0.02582 0.69014 -0.46100
Zn	Zn	0.48857 0.99073 0.69433 1.17500
C 	C 	0.76524 0.12520 0.46330 0.27500
C 	C 	0.72325 0.09496 0.45984 0.05100
C 	C 	0.71376 0.06254 0.44531 -0.16800
H 	H 	0.73347 0.06273 0.43633 0.09700
C 	C 	0.67596 0.03114 0.44440 0.14400
H 	H 	0.66997 0.00983 0.43483 -0.02500
C 	C 	0.64743 0.03083 0.45716 -0.27100
H 	H 	0.62167 0.00913 0.45643 0.12300
C 	C 	0.65563 0.06269 0.47159 0.28200
C 	C 	0.69400 0.09496 0.47287 -0.22900
H 	H 	0.69987 0.11623 0.48243 0.12600
C 	C 	0.62882 0.08925 0.49826 0.24300
H 	H 	0.63677 0.11393 0.49033 -0.04700
H 	H 	0.64887 0.09403 0.50953 -0.05000
C 	C 	0.58777 0.07366 0.50928 -0.41500
C 	C 	0.55657 0.07179 0.49680 0.50600
C 	C 	0.51898 0.05328 0.50629 -0.42300
C 	C 	0.51317 0.04085 0.52827 0.52300
C 	C 	0.54496 0.04423 0.54065 -0.41200
C 	C 	0.58329 0.05929 0.53053 0.48800
C 	C 	0.61663 0.05921 0.54375 -1.01000
H 	H 	0.63237 0.05293 0.53393 0.33300
H 	H 	0.60557 0.03963 0.55553 0.33300
H 	H 	0.63317 0.08503 0.55023 0.32500
C 	C 	0.56268 0.08961 0.47364 -1.03400
H 	H 	0.58547 0.11593 0.47373 0.33800
H 	H 	0.53947 0.09093 0.46933 0.34500
H 	H 	0.56697 0.07333 0.46313 0.33200
C 	C 	0.47223 0.02215 0.53847 -1.06200
H 	H 	0.45627 0.03033 0.53023 0.36000
H 	H 	0.47427 0.03053 0.55383 0.34900
H 	H 	0.45997 0.99363 0.53783 0.34600
C 	C 	0.48357 0.04611 0.49257 0.23900
H 	H 	0.48877 0.04483 0.47673 -0.03900
H 	H 	0.46057 0.02103 0.49683 -0.04000
C 	C 	0.44258 0.07470 0.48610 0.22900
C 	C 	0.41721 0.04232 0.47281 -0.22200
H 	H 	0.42257 0.02173 0.47053 0.11100
C 	C 	0.38391 0.04077 0.46301 0.07200
H 	H 	0.36697 0.01913 0.45413 -0.01000
C 	C 	0.37598 0.07159 0.46648 -0.10200
H 	H 	0.35367 0.07053 0.45993 0.05800
C 	C 	0.40135 0.10397 0.47977 -0.00600
C 	C 	0.43465 0.10552 0.48957 -0.16900
H 	H 	0.45167 0.12723 0.49843 0.11200
C 	C 	0.39308 0.13679 0.48381 0.33500
C 	C 	0.53872 0.02958 0.56457 0.28600
H 	H 	0.56367 0.04343 0.57273 -0.06400
H 	H 	0.51977 0.03523 0.57193 -0.06500
C 	C 	0.51197 0.96954 0.58482 0.27600
C 	C 	0.49723 0.92817 0.58377 -0.24500
H 	H 	0.49707 0.91643 0.57013 0.11500
C 	C 	0.48297 0.90488 0.60284 0.09800
H 	H 	0.47247 0.87743 0.60203 -0.01400
C 	C 	0.48462 0.92346 0.62344 -0.14000
H 	H 	0.47627 0.90843 0.63653 0.08200
C 	C 	0.49856 0.96370 0.62420 0.04500
C 	C 	0.51297 0.98654 0.60459 -0.23600
H 	H 	0.52337 0.01393 0.60533 0.12800
C 	C 	0.50068 0.98463 0.64574 0.28900
O 	O 	0.79206 0.12254 0.45286 -0.40800
O 	O 	0.77491 0.15209 0.47698 -0.33000
O 	O 	0.62428 0.05848 0.48284 -0.31200
O 	O 	0.52457 0.98868 0.56502 -0.32100
O 	O 	0.51274 0.02105 0.64476 -0.26100
O 	O 	0.48955 0.96380 0.66312 -0.43100
O 	O 	0.47588 0.07827 0.49654 -0.28700
O 	O 	0.41782 0.16804 0.49217 -0.26100
O 	O 	0.35916 0.12988 0.47652 -0.46100
Zn	Zn	0.32407 0.15524 0.47234 1.17500
C 	C 	0.12520 0.76524 0.03670 0.27500
C 	C 	0.09496 0.72325 0.04016 0.05100
C 	C 	0.06254 0.71376 0.05469 -0.16800
H 	H 	0.06273 0.73347 0.06367 0.09700
C 	C 	0.03114 0.67596 0.05560 0.14400
H 	H 	0.00983 0.66997 0.06517 -0.02500
C 	C 	0.03083 0.64743 0.04284 -0.27100
H 	H 	0.00913 0.62167 0.04357 0.12300
C 	C 	0.06269 0.65563 0.02841 0.28200
C 	C 	0.09496 0.69400 0.02713 -0.22900
H 	H 	0.11623 0.69987 0.01757 0.12600
C 	C 	0.08925 0.62882 0.00174 0.24300
H 	H 	0.11393 0.63677 0.00967 -0.04700
H 	H 	0.09403 0.64887 0.99047 -0.05000
C 	C 	0.07366 0.58777 0.99072 -0.41500
C 	C 	0.07179 0.55657 0.00320 0.50600
C 	C 	0.05328 0.51898 0.99371 -0.42300
C 	C 	0.04085 0.51317 0.97173 0.52300
C 	C 	0.04423 0.54496 0.95935 -0.41200
C 	C 	0.05929 0.58329 0.96947 0.48800
C 	C 	0.05921 0.61663 0.95625 -1.01000
H 	H 	0.05293 0.63237 0.96607 0.33300
H 	H 	0.03963 0.60557 0.94447 0.33300
H 	H 	0.08503 0.63317 0.94977 0.32500
C 	C 	0.08961 0.56268 0.02636 -1.03400
H 	H 	0.11593 0.58547 0.02627 0.33800
H 	H 	0.09093 0.53947 0.03067 0.34500
H 	H 	0.07333 0.56697 0.03687 0.33200
C 	C 	0.02215 0.47223 0.96153 -1.06200
H 	H 	0.03033 0.45627 0.96977 0.36000
H 	H 	0.03053 0.47427 0.94617 0.34900
H 	H 	0.99363 0.45997 0.96217 0.34600
C 	C 	0.04611 0.48357 0.00743 0.23900
H 	H 	0.04483 0.48877 0.02327 -0.03900
H 	H 	0.02103 0.46057 0.00317 -0.04000
C 	C 	0.07470 0.44258 0.01390 0.22900
C 	C 	0.04232 0.41721 0.02719 -0.22200
H 	H 	0.02173 0.42257 0.02947 0.11100
C 	C 	0.04077 0.38391 0.03699 0.07200
H 	H 	0.01913 0.36697 0.04587 -0.01000
C 	C 	0.07159 0.37598 0.03352 -0.10200
H 	H 	0.07053 0.35367 0.04007 0.05800
C 	C 	0.10397 0.40135 0.02023 -0.00600
C 	C 	0.10552 0.43465 0.01043 -0.16900
H 	H 	0.12723 0.45167 0.00157 0.11200
C 	C 	0.13679 0.39308 0.01619 0.33500
C 	C 	0.02958 0.53872 0.93543 0.28600
H 	H 	0.04343 0.56367 0.92727 -0.06400
H 	H 	0.03523 0.51977 0.92807 -0.06500
C 	C 	0.96954 0.51197 0.91518 0.27600
C 	C 	0.92817 0.49723 0.91623 -0.24500
H 	H 	0.91643 0.49707 0.92987 0.11500
C 	C 	0.90488 0.48297 0.89716 0.09800
H 	H 	0.87743 0.47247 0.89797 -0.01400
C 	C 	0.92346 0.48462 0.87656 -0.14000
H 	H 	0.90843 0.47627 0.86347 0.08200
C 	C 	0.96370 0.49856 0.87580 0.04500
C 	C 	0.98654 0.51297 0.89541 -0.23700
H 	H 	0.01393 0.52337 0.89467 0.12800
C 	C 	0.98463 0.50068 0.85426 0.28900
O 	O 	0.12254 0.79206 0.04714 -0.40800
O 	O 	0.15209 0.77491 0.02302 -0.33000
O 	O 	0.05848 0.62428 0.01716 -0.31200
O 	O 	0.98868 0.52457 0.93498 -0.32100
O 	O 	0.02105 0.51274 0.85524 -0.26100
O 	O 	0.96380 0.48955 0.83688 -0.43100
O 	O 	0.07827 0.47588 0.00346 -0.28700
O 	O 	0.16804 0.41782 0.00783 -0.26100
O 	O 	0.12988 0.35916 0.02348 -0.46100
Zn	Zn	0.15524 0.32407 0.02766 1.17500
C 	C 	0.43190 0.45854 0.79664 0.27500
C 	C 	0.38991 0.42830 0.79318 0.05100
C 	C 	0.38042 0.39588 0.77865 -0.16800
H 	H 	0.40013 0.39607 0.76967 0.09700
C 	C 	0.34262 0.36448 0.77774 0.14400
H 	H 	0.33663 0.34317 0.76817 -0.02500
C 	C 	0.31409 0.36417 0.79050 -0.27100
H 	H 	0.28833 0.34247 0.78977 0.12300
C 	C 	0.32229 0.39603 0.80493 0.28200
C 	C 	0.36066 0.42830 0.80621 -0.22900
H 	H 	0.36653 0.44957 0.81577 0.12600
C 	C 	0.29548 0.42259 0.83160 0.24300
H 	H 	0.30343 0.44727 0.82367 -0.04700
H 	H 	0.31553 0.42737 0.84287 -0.05000
C 	C 	0.25443 0.40700 0.84262 -0.41500
C 	C 	0.22323 0.40513 0.83014 0.50600
C 	C 	0.18564 0.38662 0.83963 -0.42300
C 	C 	0.17983 0.37419 0.86161 0.52300
C 	C 	0.21162 0.37757 0.87399 -0.41200
C 	C 	0.24995 0.39263 0.86387 0.48800
C 	C 	0.28329 0.39255 0.87709 -1.01000
H 	H 	0.29903 0.38627 0.86727 0.33300
H 	H 	0.27223 0.37297 0.88887 0.33300
H 	H 	0.29983 0.41837 0.88357 0.32500
C 	C 	0.22934 0.42295 0.80698 -1.03400
H 	H 	0.25213 0.44927 0.80707 0.33800
H 	H 	0.20613 0.42427 0.80267 0.34500
H 	H 	0.23363 0.40667 0.79647 0.33200
C 	C 	0.13889 0.35549 0.87181 -1.06200
H 	H 	0.12293 0.36367 0.86357 0.36000
H 	H 	0.14093 0.36387 0.88717 0.34900
H 	H 	0.12663 0.32697 0.87117 0.34600
C 	C 	0.15023 0.37945 0.82591 0.23900
H 	H 	0.15543 0.37817 0.81007 -0.03900
H 	H 	0.12723 0.35437 0.83017 -0.04000
C 	C 	0.10924 0.40804 0.81944 0.22900
C 	C 	0.08387 0.37566 0.80615 -0.22200
H 	H 	0.08923 0.35507 0.80387 0.11100
C 	C 	0.05057 0.37411 0.79635 0.07200
H 	H 	0.03363 0.35247 0.78747 -0.01000
C 	C 	0.04264 0.40493 0.79982 -0.10200
H 	H 	0.02033 0.40387 0.79327 0.05800
C 	C 	0.06801 0.43731 0.81311 -0.00600
C 	C 	0.10131 0.43886 0.82291 -0.16900
H 	H 	0.11833 0.46057 0.83177 0.11200
C 	C 	0.05974 0.47013 0.81715 0.33500
C 	C 	0.20538 0.36292 0.89791 0.28600
H 	H 	0.23033 0.37677 0.90607 -0.06400
H 	H 	0.18643 0.36857 0.90527 -0.06500
C 	C 	0.17863 0.30288 0.91816 0.27600
C 	C 	0.16389 0.26151 0.91711 -0.24500
H 	H 	0.16373 0.24977 0.90347 0.11500
C 	C 	0.14963 0.23822 0.93618 0.09800
H 	H 	0.13913 0.21077 0.93537 -0.01400
C 	C 	0.15128 0.25680 0.95678 -0.14000
H 	H 	0.14293 0.24177 0.96987 0.08200
C 	C 	0.16522 0.29704 0.95754 0.04500
C 	C 	0.17963 0.31988 0.93793 -0.23700
H 	H 	0.19003 0.34727 0.93867 0.12800
C 	C 	0.16734 0.31797 0.97908 0.28900
O 	O 	0.45872 0.45588 0.78620 -0.40800
O 	O 	0.44157 0.48543 0.81032 -0.33000
O 	O 	0.29094 0.39182 0.81618 -0.31200
O 	O 	0.19123 0.32202 0.89836 -0.32100
O 	O 	0.17940 0.35439 0.97810 -0.26100
O 	O 	0.15621 0.29714 0.99646 -0.43100
O 	O 	0.14254 0.41161 0.82988 -0.28700
O 	O 	0.08448 0.50138 0.82551 -0.26100
O 	O 	0.02582 0.46322 0.80986 -0.46100
Zn	Zn	0.99073 0.48857 0.80567 1.17500
C 	C 	0.69330 0.79187 0.62997 0.27500
C 	C 	0.70505 0.76163 0.62651 0.05100
C 	C 	0.68212 0.72921 0.61198 -0.16800
H 	H 	0.66260 0.72940 0.60300 0.09700
C 	C 	0.68852 0.69781 0.61107 0.14400
H 	H 	0.67320 0.67650 0.60150 -0.02500
C 	C 	0.71674 0.69750 0.62383 -0.27100
H 	H 	0.72080 0.67580 0.62310 0.12300
C 	C 	0.74040 0.72936 0.63826 0.28200
C 	C 	0.73430 0.76163 0.63954 -0.22900
H 	H 	0.74970 0.78290 0.64910 0.12600
C 	C 	0.79377 0.75592 0.66493 0.24300
H 	H 	0.81050 0.78060 0.65700 -0.04700
H 	H 	0.77850 0.76070 0.67620 -0.05000
C 	C 	0.81923 0.74033 0.67595 -0.41500
C 	C 	0.84856 0.73846 0.66347 0.50600
C 	C 	0.86764 0.71995 0.67296 -0.42300
C 	C 	0.86102 0.70752 0.69494 0.52300
C 	C 	0.83261 0.71090 0.70732 -0.41200
C 	C 	0.80934 0.72596 0.69720 0.48800
C 	C 	0.77592 0.72588 0.71042 -1.01000
H 	H 	0.75390 0.71960 0.70060 0.33300
H 	H 	0.76740 0.70630 0.72220 0.33300
H 	H 	0.78520 0.75170 0.71690 0.32500
C 	C 	0.86027 0.75628 0.64031 -1.03400
H 	H 	0.86380 0.78260 0.64040 0.33900
H 	H 	0.88480 0.75760 0.63600 0.34500
H 	H 	0.83970 0.74000 0.62980 0.33200
C 	C 	0.88326 0.68882 0.70514 -1.06200
H 	H 	0.90740 0.69700 0.69690 0.36000
H 	H 	0.88960 0.69720 0.72050 0.34900
H 	H 	0.86700 0.66030 0.70450 0.34600
C 	C 	0.89588 0.71278 0.65924 0.23900
H 	H 	0.88940 0.71150 0.64340 -0.03900
H 	H 	0.89380 0.68770 0.66350 -0.04000
C 	C 	0.96546 0.74137 0.65277 0.22900
C 	C 	0.95845 0.70899 0.63948 -0.22200
H 	H 	0.93250 0.68840 0.63720 0.11100
C 	C 	0.99020 0.70744 0.62968 0.07200
H 	H 	0.98550 0.68580 0.62080 -0.01000
C 	C 	0.02895 0.73826 0.63315 -0.10200
H 	H 	0.05020 0.73720 0.62660 0.05800
C 	C 	0.03596 0.77064 0.64644 -0.00600
C 	C 	0.00421 0.77219 0.65624 -0.16900
H 	H 	0.00890 0.79390 0.66510 0.11200
C 	C 	0.07705 0.80346 0.65048 0.33500
C 	C 	0.82420 0.69625 0.73124 0.28600
H 	H 	0.81310 0.71010 0.73940 -0.06400
H 	H 	0.84880 0.70190 0.73860 -0.06500
C 	C 	0.79091 0.63621 0.75149 0.27600
C 	C 	0.76428 0.59484 0.75044 -0.24500
H 	H 	0.75270 0.58310 0.73680 0.11500
C 	C 	0.75525 0.57155 0.76951 0.09800
H 	H 	0.73830 0.54410 0.76870 -0.01400
C 	C 	0.77218 0.59013 0.79011 -0.14000
H 	H 	0.76550 0.57510 0.80320 0.08200
C 	C 	0.79848 0.63037 0.79087 0.04500
C 	C 	0.80691 0.65321 0.77126 -0.23700
H 	H 	0.82390 0.68060 0.77200 0.12800
C 	C 	0.81729 0.65130 0.81241 0.28900
O 	O 	0.66382 0.78921 0.61953 -0.40800
O 	O 	0.71052 0.81876 0.64365 -0.33000
O 	O 	0.76754 0.72515 0.64951 -0.31200
O 	O 	0.79745 0.65535 0.73169 -0.32100
O 	O 	0.84165 0.68772 0.81143 -0.26100
O 	O 	0.80759 0.63047 0.82979 -0.43100
O 	O 	0.93573 0.74494 0.66321 -0.28700
O 	O 	0.08356 0.83471 0.65884 -0.26100
O 	O 	0.10406 0.79655 0.64319 -0.46100
Zn	Zn	0.16451 0.82191 0.63901 1.17500
Zn	Zn	0.83549 0.65740 0.86099 1.17500
C 	C 	0.30670 0.09857 0.87003 0.27500
C 	C 	0.29495 0.05658 0.87349 0.05100
C 	C 	0.31788 0.04709 0.88802 -0.16800
H 	H 	0.33740 0.06680 0.89700 0.09700
C 	C 	0.31148 0.00929 0.88893 0.14400
H 	H 	0.32680 0.00330 0.89850 -0.02500
C 	C 	0.28326 0.98076 0.87617 -0.27100
H 	H 	0.27920 0.95500 0.87690 0.12300
C 	C 	0.25960 0.98896 0.86174 0.28200
C 	C 	0.26570 0.02733 0.86046 -0.22900
H 	H 	0.25030 0.03320 0.85090 0.12600
C 	C 	0.20623 0.96215 0.83507 0.24300
H 	H 	0.18950 0.97010 0.84300 -0.04700
H 	H 	0.22150 0.98220 0.82380 -0.05000
C 	C 	0.18077 0.92110 0.82405 -0.41500
C 	C 	0.15144 0.88990 0.83653 0.50600
C 	C 	0.13236 0.85231 0.82704 -0.42300
C 	C 	0.13898 0.84650 0.80506 0.52300
C 	C 	0.16739 0.87829 0.79268 -0.41200
C 	C 	0.19066 0.91662 0.80280 0.48800
C 	C 	0.22408 0.94996 0.78958 -1.01000
H 	H 	0.24610 0.96570 0.79940 0.33300
H 	H 	0.23260 0.93890 0.77780 0.33300
H 	H 	0.21480 0.96650 0.78310 0.32500
C 	C 	0.13973 0.89601 0.85969 -1.03400
H 	H 	0.13620 0.91880 0.85960 0.33900
H 	H 	0.11520 0.87280 0.86400 0.34500
H 	H 	0.16030 0.90030 0.87020 0.33200
C 	C 	0.11674 0.80556 0.79486 -1.06200
H 	H 	0.09260 0.78960 0.80310 0.36000
H 	H 	0.11040 0.80760 0.77950 0.34900
H 	H 	0.13300 0.79330 0.79550 0.34600
C 	C 	0.10412 0.81690 0.84076 0.23900
H 	H 	0.11060 0.82210 0.85660 -0.03900
H 	H 	0.10620 0.79390 0.83650 -0.04000
C 	C 	0.03454 0.77591 0.84723 0.22900
C 	C 	0.04155 0.75054 0.86052 -0.22200
H 	H 	0.06750 0.75590 0.86280 0.11100
C 	C 	0.00980 0.71724 0.87032 0.07200
H 	H 	0.01450 0.70030 0.87920 -0.01000
C 	C 	0.97105 0.70931 0.86685 -0.10200
H 	H 	0.94980 0.68700 0.87340 0.05800
C 	C 	0.96404 0.73468 0.85356 -0.00600
C 	C 	0.99579 0.76798 0.84376 -0.16900
H 	H 	0.99110 0.78500 0.83490 0.11200
C 	C 	0.92295 0.72641 0.84952 0.33500
C 	C 	0.17580 0.87205 0.76876 0.28600
H 	H 	0.18690 0.89700 0.76060 -0.06400
H 	H 	0.15120 0.85310 0.76140 -0.06500
C 	C 	0.20909 0.84530 0.74851 0.27600
C 	C 	0.23572 0.83056 0.74956 -0.24500
H 	H 	0.24730 0.83040 0.76320 0.11500
C 	C 	0.24475 0.81630 0.73049 0.09800
H 	H 	0.26170 0.80580 0.73130 -0.01400
C 	C 	0.22782 0.81795 0.70989 -0.14000
H 	H 	0.23450 0.80960 0.69680 0.08200
C 	C 	0.20152 0.83189 0.70913 0.04500
C 	C 	0.19309 0.84630 0.72874 -0.23700
H 	H 	0.17610 0.85670 0.72800 0.12800
C 	C 	0.18271 0.83401 0.68759 0.28900
O 	O 	0.33618 0.12539 0.88047 -0.40800
O 	O 	0.28948 0.10824 0.85635 -0.33000
O 	O 	0.23246 0.95761 0.85049 -0.31200
O 	O 	0.20255 0.85790 0.76831 -0.32100
O 	O 	0.15835 0.84607 0.68857 -0.26100
O 	O 	0.19241 0.82288 0.67021 -0.43100
O 	O 	0.06427 0.80921 0.83679 -0.28700
O 	O 	0.91644 0.75115 0.84116 -0.26100
O 	O 	0.89594 0.69249 0.85681 -0.46100
Zn	Zn	0.65740 0.83549 0.63901 1.17500
C 	C 	0.09857 0.30670 0.62997 0.27500
C 	C 	0.05658 0.29495 0.62651 0.05100
C 	C 	0.04709 0.31788 0.61198 -0.16800
H 	H 	0.06680 0.33740 0.60300 0.09700
C 	C 	0.00929 0.31148 0.61107 0.14400
H 	H 	0.00330 0.32680 0.60150 -0.02500
C 	C 	0.98076 0.28326 0.62383 -0.27100
H 	H 	0.95500 0.27920 0.62310 0.12300
C 	C 	0.98896 0.25960 0.63826 0.28200
C 	C 	0.02733 0.26570 0.63954 -0.22900
H 	H 	0.03320 0.25030 0.64910 0.12600
C 	C 	0.96215 0.20623 0.66493 0.24300
H 	H 	0.97010 0.18950 0.65700 -0.04700
H 	H 	0.98220 0.22150 0.67620 -0.05000
C 	C 	0.92110 0.18077 0.67595 -0.41500
C 	C 	0.88990 0.15144 0.66347 0.50600
C 	C 	0.85231 0.13236 0.67296 -0.42300
C 	C 	0.84650 0.13898 0.69494 0.52300
C 	C 	0.87829 0.16739 0.70732 -0.41200
C 	C 	0.91662 0.19066 0.69720 0.48800
C 	C 	0.94996 0.22408 0.71042 -1.01000
H 	H 	0.96570 0.24610 0.70060 0.33300
H 	H 	0.93890 0.23260 0.72220 0.33300
H 	H 	0.96650 0.21480 0.71690 0.32500
C 	C 	0.89601 0.13973 0.64031 -1.03400
H 	H 	0.91880 0.13620 0.64040 0.33900
H 	H 	0.87280 0.11520 0.63600 0.34500
H 	H 	0.90030 0.16030 0.62980 0.33200
C 	C 	0.80556 0.11674 0.70514 -1.06200
H 	H 	0.78960 0.09260 0.69690 0.36000
H 	H 	0.80760 0.11040 0.72050 0.34900
H 	H 	0.79330 0.13300 0.70450 0.34600
C 	C 	0.81690 0.10412 0.65924 0.23900
H 	H 	0.82210 0.11060 0.64340 -0.03900
H 	H 	0.79390 0.10620 0.66350 -0.04000
C 	C 	0.77591 0.03454 0.65277 0.22900
C 	C 	0.75054 0.04155 0.63948 -0.22200
H 	H 	0.75590 0.06750 0.63720 0.11100
C 	C 	0.71724 0.00980 0.62968 0.07200
H 	H 	0.70030 0.01450 0.62080 -0.01000
C 	C 	0.70931 0.97105 0.63315 -0.10200
H 	H 	0.68700 0.94980 0.62660 0.05800
C 	C 	0.73468 0.96404 0.64644 -0.00600
C 	C 	0.76798 0.99579 0.65624 -0.16900
H 	H 	0.78500 0.99110 0.66510 0.11200
C 	C 	0.72641 0.92295 0.65048 0.33500
C 	C 	0.87205 0.17580 0.73124 0.28600
H 	H 	0.89700 0.18690 0.73940 -0.06400
H 	H 	0.85310 0.15120 0.73860 -0.06500
C 	C 	0.84530 0.20909 0.75149 0.27600
C 	C 	0.83056 0.23572 0.75044 -0.24500
H 	H 	0.83040 0.24730 0.73680 0.11500
C 	C 	0.81630 0.24475 0.76951 0.09800
H 	H 	0.80580 0.26170 0.76870 -0.01400
C 	C 	0.81795 0.22782 0.79011 -0.14000
H 	H 	0.80960 0.23450 0.80320 0.08200
C 	C 	0.83189 0.20152 0.79087 0.04500
C 	C 	0.84630 0.19309 0.77126 -0.23700
H 	H 	0.85670 0.17610 0.77200 0.12800
C 	C 	0.83401 0.18271 0.81241 0.28900
O 	O 	0.12539 0.33618 0.61953 -0.40800
O 	O 	0.10824 0.28948 0.64365 -0.33000
O 	O 	0.95761 0.23246 0.64951 -0.31200
O 	O 	0.85790 0.20255 0.73169 -0.32100
O 	O 	0.84607 0.15835 0.81143 -0.26100
O 	O 	0.82288 0.19241 0.82979 -0.43100
O 	O 	0.80921 0.06427 0.66321 -0.28700
O 	O 	0.75115 0.91644 0.65884 -0.26100
O 	O 	0.69249 0.89594 0.64319 -0.46100
C 	C 	0.79187 0.69330 0.87003 0.27500
C 	C 	0.76163 0.70505 0.87349 0.05100
C 	C 	0.72921 0.68212 0.88802 -0.16800
H 	H 	0.72940 0.66260 0.89700 0.09700
C 	C 	0.69781 0.68852 0.88893 0.14400
H 	H 	0.67650 0.67320 0.89850 -0.02500
C 	C 	0.69750 0.71674 0.87617 -0.27100
H 	H 	0.67580 0.72080 0.87690 0.12300
C 	C 	0.72936 0.74040 0.86174 0.28200
C 	C 	0.76163 0.73430 0.86046 -0.22900
H 	H 	0.78290 0.74970 0.85090 0.12600
C 	C 	0.75592 0.79377 0.83507 0.24300
H 	H 	0.78060 0.81050 0.84300 -0.04700
H 	H 	0.76070 0.77850 0.82380 -0.05000
C 	C 	0.74033 0.81923 0.82405 -0.41500
C 	C 	0.73846 0.84856 0.83653 0.50600
C 	C 	0.71995 0.86764 0.82704 -0.42300
C 	C 	0.70752 0.86102 0.80506 0.52300
C 	C 	0.71090 0.83261 0.79268 -0.41200
C 	C 	0.72596 0.80934 0.80280 0.48800
C 	C 	0.72588 0.77592 0.78958 -1.01000
H 	H 	0.71960 0.75390 0.79940 0.33300
H 	H 	0.70630 0.76740 0.77780 0.33300
H 	H 	0.75170 0.78520 0.78310 0.32500
C 	C 	0.75628 0.86027 0.85969 -1.03400
H 	H 	0.78260 0.86380 0.85960 0.33900
H 	H 	0.75760 0.88480 0.86400 0.34500
H 	H 	0.74000 0.83970 0.87020 0.33200
C 	C 	0.68882 0.88326 0.79486 -1.06200
H 	H 	0.69700 0.90740 0.80310 0.36000
H 	H 	0.69720 0.88960 0.77950 0.34900
H 	H 	0.66030 0.86700 0.79550 0.34600
C 	C 	0.71278 0.89588 0.84076 0.23900
H 	H 	0.71150 0.88940 0.85660 -0.03900
H 	H 	0.68770 0.89380 0.83650 -0.04000
C 	C 	0.74137 0.96546 0.84723 0.22900
C 	C 	0.70899 0.95845 0.86052 -0.22200
H 	H 	0.68840 0.93250 0.86280 0.11100
C 	C 	0.70744 0.99020 0.87032 0.07200
H 	H 	0.68580 0.98550 0.87920 -0.01000
C 	C 	0.73826 0.02895 0.86685 -0.10200
H 	H 	0.73720 0.05020 0.87340 0.05800
C 	C 	0.77064 0.03596 0.85356 -0.00600
C 	C 	0.77219 0.00421 0.84376 -0.16900
H 	H 	0.79390 0.00890 0.83490 0.11200
C 	C 	0.80346 0.07705 0.84952 0.33500
C 	C 	0.69625 0.82420 0.76876 0.28600
H 	H 	0.71010 0.81310 0.76060 -0.06400
H 	H 	0.70190 0.84880 0.76140 -0.06500
C 	C 	0.63621 0.79091 0.74851 0.27600
C 	C 	0.59484 0.76428 0.74956 -0.24500
H 	H 	0.58310 0.75270 0.76320 0.11500
C 	C 	0.57155 0.75525 0.73049 0.09800
H 	H 	0.54410 0.73830 0.73130 -0.01400
C 	C 	0.59013 0.77218 0.70989 -0.14000
H 	H 	0.57510 0.76550 0.69680 0.08200
C 	C 	0.63037 0.79848 0.70913 0.04500
C 	C 	0.65321 0.80691 0.72874 -0.23700
H 	H 	0.68060 0.82390 0.72800 0.12800
C 	C 	0.65130 0.81729 0.68759 0.28900
O 	O 	0.78921 0.66382 0.88047 -0.40800
O 	O 	0.81876 0.71052 0.85635 -0.33000
O 	O 	0.72515 0.76754 0.85049 -0.31200
O 	O 	0.65535 0.79745 0.76831 -0.32100
O 	O 	0.68772 0.84165 0.68857 -0.26100
O 	O 	0.63047 0.80759 0.67021 -0.43100
O 	O 	0.74494 0.93573 0.83679 -0.28700
O 	O 	0.83471 0.08356 0.84116 -0.26100
O 	O 	0.79655 0.10406 0.85681 -0.46100
Zn	Zn	0.82191 0.16451 0.86099 1.17500
C 	C 	0.35997 0.12520 0.96330 0.27500
C 	C 	0.37172 0.09496 0.95984 0.05100
C 	C 	0.34879 0.06254 0.94531 -0.16800
H 	H 	0.32927 0.06273 0.93633 0.09700
C 	C 	0.35519 0.03114 0.94440 0.14400
H 	H 	0.33987 0.00983 0.93483 -0.02500
C 	C 	0.38341 0.03083 0.95716 -0.27100
H 	H 	0.38747 0.00913 0.95643 0.12300
C 	C 	0.40707 0.06269 0.97159 0.28200
C 	C 	0.40097 0.09496 0.97287 -0.22900
H 	H 	0.41637 0.11623 0.98243 0.12600
C 	C 	0.46044 0.08925 0.99826 0.24300
H 	H 	0.47717 0.11393 0.99033 -0.04700
H 	H 	0.44517 0.09403 0.00953 -0.05000
C 	C 	0.48590 0.07366 0.00928 -0.41500
C 	C 	0.51523 0.07179 0.99680 0.50600
C 	C 	0.53431 0.05328 0.00629 -0.42300
C 	C 	0.52769 0.04085 0.02827 0.52300
C 	C 	0.49928 0.04423 0.04065 -0.41200
C 	C 	0.47601 0.05929 0.03053 0.48800
C 	C 	0.44259 0.05921 0.04375 -1.01000
H 	H 	0.42057 0.05293 0.03393 0.33300
H 	H 	0.43407 0.03963 0.05553 0.33300
H 	H 	0.45187 0.08503 0.05023 0.32500
C 	C 	0.52694 0.08961 0.97364 -1.03400
H 	H 	0.53047 0.11593 0.97373 0.33800
H 	H 	0.55147 0.09093 0.96933 0.34500
H 	H 	0.50637 0.07333 0.96313 0.33200
C 	C 	0.54993 0.02215 0.03847 -1.06200
H 	H 	0.57407 0.03033 0.03023 0.36000
H 	H 	0.55627 0.03053 0.05383 0.34900
H 	H 	0.53367 0.99363 0.03783 0.34600
C 	C 	0.56255 0.04611 0.99257 0.23900
H 	H 	0.55607 0.04483 0.97673 -0.03900
H 	H 	0.56047 0.02103 0.99683 -0.04000
C 	C 	0.63213 0.07470 0.98610 0.22900
C 	C 	0.62512 0.04232 0.97281 -0.22200
H 	H 	0.59917 0.02173 0.97053 0.11100
C 	C 	0.65687 0.04077 0.96301 0.07200
H 	H 	0.65217 0.01913 0.95413 -0.01000
C 	C 	0.69562 0.07159 0.96648 -0.10200
H 	H 	0.71687 0.07053 0.95993 0.05800
C 	C 	0.70263 0.10397 0.97977 -0.00600
C 	C 	0.67088 0.10552 0.98957 -0.16900
H 	H 	0.67557 0.12723 0.99843 0.11200
C 	C 	0.74372 0.13679 0.98381 0.33500
C 	C 	0.49087 0.02958 0.06457 0.28600
H 	H 	0.47977 0.04343 0.07273 -0.06400
H 	H 	0.51547 0.03523 0.07193 -0.06500
C 	C 	0.45758 0.96954 0.08482 0.27600
C 	C 	0.43095 0.92817 0.08377 -0.24500
H 	H 	0.41937 0.91643 0.07013 0.11500
C 	C 	0.42192 0.90488 0.10284 0.09800
H 	H 	0.40497 0.87743 0.10203 -0.01400
C 	C 	0.43885 0.92346 0.12344 -0.14000
H 	H 	0.43217 0.90843 0.13653 0.08200
C 	C 	0.46515 0.96370 0.12420 0.04500
C 	C 	0.47358 0.98654 0.10459 -0.23600
H 	H 	0.49057 0.01393 0.10533 0.12800
C 	C 	0.48396 0.98463 0.14574 0.28900
O 	O 	0.33049 0.12254 0.95286 -0.40800
O 	O 	0.37719 0.15209 0.97698 -0.33000
O 	O 	0.43421 0.05848 0.98284 -0.31200
O 	O 	0.46412 0.98868 0.06502 -0.32100
O 	O 	0.50832 0.02105 0.14476 -0.26100
O 	O 	0.47426 0.96380 0.16312 -0.43100
O 	O 	0.60240 0.07827 0.99654 -0.28700
O 	O 	0.75023 0.16804 0.99217 -0.26100
O 	O 	0.77073 0.12988 0.97652 -0.46100
Zn	Zn	0.83117 0.15524 0.97234 1.17500
Zn	Zn	0.50216 0.99073 0.19433 1.17500
C 	C 	0.97337 0.43190 0.20336 0.27500
C 	C 	0.96162 0.38991 0.20682 0.05100
C 	C 	0.98455 0.38042 0.22135 -0.16800
H 	H 	0.00407 0.40013 0.23033 0.09700
C 	C 	0.97815 0.34262 0.22226 0.14400
H 	H 	0.99347 0.33663 0.23183 -0.02500
C 	C 	0.94993 0.31409 0.20950 -0.27100
H 	H 	0.94587 0.28833 0.21023 0.12300
C 	C 	0.92627 0.32229 0.19507 0.28200
C 	C 	0.93237 0.36066 0.19379 -0.22900
H 	H 	0.91697 0.36653 0.18423 0.12600
C 	C 	0.87290 0.29548 0.16840 0.24300
H 	H 	0.85617 0.30343 0.17633 -0.04700
H 	H 	0.88817 0.31553 0.15713 -0.05000
C 	C 	0.84744 0.25443 0.15738 -0.41500
C 	C 	0.81811 0.22323 0.16986 0.50600
C 	C 	0.79903 0.18564 0.16037 -0.42300
C 	C 	0.80565 0.17983 0.13839 0.52300
C 	C 	0.83406 0.21162 0.12601 -0.41200
C 	C 	0.85733 0.24995 0.13613 0.48800
C 	C 	0.89075 0.28329 0.12291 -1.01000
H 	H 	0.91277 0.29903 0.13273 0.33300
H 	H 	0.89927 0.27223 0.11113 0.33300
H 	H 	0.88147 0.29983 0.11643 0.32500
C 	C 	0.80640 0.22934 0.19302 -1.03400
H 	H 	0.80287 0.25213 0.19293 0.33800
H 	H 	0.78187 0.20613 0.19733 0.34500
H 	H 	0.82697 0.23363 0.20353 0.33200
C 	C 	0.78341 0.13889 0.12819 -1.06200
H 	H 	0.75927 0.12293 0.13643 0.36000
H 	H 	0.77707 0.14093 0.11283 0.34900
H 	H 	0.79967 0.12663 0.12883 0.34600
C 	C 	0.77079 0.15023 0.17409 0.23900
H 	H 	0.77727 0.15543 0.18993 -0.03900
H 	H 	0.77287 0.12723 0.16983 -0.04000
C 	C 	0.70121 0.10924 0.18056 0.22900
C 	C 	0.70822 0.08387 0.19385 -0.22200
H 	H 	0.73417 0.08923 0.19613 0.11100
C 	C 	0.67647 0.05057 0.20365 0.07200
H 	H 	0.68117 0.03363 0.21253 -0.01000
C 	C 	0.63772 0.04264 0.20018 -0.10200
H 	H 	0.61647 0.02033 0.20673 0.05800
C 	C 	0.63071 0.06801 0.18689 -0.00600
C 	C 	0.66246 0.10131 0.17709 -0.16900
H 	H 	0.65777 0.11833 0.16823 0.11200
C 	C 	0.58962 0.05974 0.18285 0.33500
C 	C 	0.84247 0.20538 0.10209 0.28600
H 	H 	0.85357 0.23033 0.09393 -0.06400
H 	H 	0.81787 0.18643 0.09473 -0.06500
C 	C 	0.87576 0.17863 0.08184 0.27600
C 	C 	0.90239 0.16389 0.08289 -0.24500
H 	H 	0.91397 0.16373 0.09653 0.11500
C 	C 	0.91142 0.14963 0.06382 0.09800
H 	H 	0.92837 0.13913 0.06463 -0.01400
C 	C 	0.89449 0.15128 0.04322 -0.14000
H 	H 	0.90117 0.14293 0.03013 0.08200
C 	C 	0.86819 0.16522 0.04246 0.04500
C 	C 	0.85976 0.17963 0.06207 -0.23700
H 	H 	0.84277 0.19003 0.06133 0.12800
C 	C 	0.84938 0.16734 0.02092 0.28900
O 	O 	0.00285 0.45872 0.21380 -0.40800
O 	O 	0.95615 0.44157 0.18968 -0.33000
O 	O 	0.89913 0.29094 0.18382 -0.31200
O 	O 	0.86922 0.19123 0.10164 -0.32100
O 	O 	0.82502 0.17940 0.02190 -0.26100
O 	O 	0.85908 0.15621 0.00354 -0.43100
O 	O 	0.73094 0.14254 0.17012 -0.28700
O 	O 	0.58311 0.08448 0.17449 -0.26100
O 	O 	0.56261 0.02582 0.19014 -0.46100
Zn	Zn	0.32407 0.16883 0.97234 1.17500
C 	C 	0.76524 0.64003 0.96330 0.27500
C 	C 	0.72325 0.62828 0.95984 0.05100
C 	C 	0.71376 0.65121 0.94531 -0.16800
H 	H 	0.73347 0.67073 0.93633 0.09700
C 	C 	0.67596 0.64481 0.94440 0.14400
H 	H 	0.66997 0.66013 0.93483 -0.02500
C 	C 	0.64743 0.61659 0.95716 -0.27100
H 	H 	0.62167 0.61253 0.95643 0.12300
C 	C 	0.65563 0.59293 0.97159 0.28200
C 	C 	0.69400 0.59903 0.97287 -0.22900
H 	H 	0.69987 0.58363 0.98243 0.12600
C 	C 	0.62882 0.53956 0.99826 0.24300
H 	H 	0.63677 0.52283 0.99033 -0.04700
H 	H 	0.64887 0.55483 0.00953 -0.05000
C 	C 	0.58777 0.51410 0.00928 -0.41500
C 	C 	0.55657 0.48477 0.99680 0.50600
C 	C 	0.51898 0.46569 0.00629 -0.42300
C 	C 	0.51317 0.47231 0.02827 0.52300
C 	C 	0.54496 0.50072 0.04065 -0.41200
C 	C 	0.58329 0.52399 0.03053 0.48800
C 	C 	0.61663 0.55741 0.04375 -1.01000
H 	H 	0.63237 0.57943 0.03393 0.33300
H 	H 	0.60557 0.56593 0.05553 0.33300
H 	H 	0.63317 0.54813 0.05023 0.32500
C 	C 	0.56268 0.47306 0.97364 -1.03400
H 	H 	0.58547 0.46953 0.97373 0.33800
H 	H 	0.53947 0.44853 0.96933 0.34500
H 	H 	0.56697 0.49363 0.96313 0.33200
C 	C 	0.47223 0.45007 0.03847 -1.06200
H 	H 	0.45627 0.42593 0.03023 0.36000
H 	H 	0.47427 0.44373 0.05383 0.34900
H 	H 	0.45997 0.46633 0.03783 0.34600
C 	C 	0.48357 0.43745 0.99257 0.23900
H 	H 	0.48877 0.44393 0.97673 -0.03900
H 	H 	0.46057 0.43953 0.99683 -0.04000
C 	C 	0.44258 0.36787 0.98610 0.22900
C 	C 	0.41721 0.37488 0.97281 -0.22200
H 	H 	0.42257 0.40083 0.97053 0.11100
C 	C 	0.38391 0.34313 0.96301 0.07200
H 	H 	0.36697 0.34783 0.95413 -0.01000
C 	C 	0.37598 0.30438 0.96648 -0.10200
H 	H 	0.35367 0.28313 0.95993 0.05800
C 	C 	0.40135 0.29737 0.97977 -0.00600
C 	C 	0.43465 0.32912 0.98957 -0.16900
H 	H 	0.45167 0.32443 0.99843 0.11200
C 	C 	0.39308 0.25628 0.98381 0.33500
C 	C 	0.53872 0.50913 0.06457 0.28600
H 	H 	0.56367 0.52023 0.07273 -0.06400
H 	H 	0.51977 0.48453 0.07193 -0.06500
C 	C 	0.51197 0.54242 0.08482 0.27600
C 	C 	0.49723 0.56905 0.08377 -0.24500
H 	H 	0.49707 0.58063 0.07013 0.11500
C 	C 	0.48297 0.57808 0.10284 0.09800
H 	H 	0.47247 0.59503 0.10203 -0.01400
C 	C 	0.48462 0.56115 0.12344 -0.14000
H 	H 	0.47627 0.56783 0.13653 0.08200
C 	C 	0.49856 0.53485 0.12420 0.04500
C 	C 	0.51297 0.52642 0.10459 -0.23700
H 	H 	0.52337 0.50943 0.10533 0.12800
C 	C 	0.50068 0.51604 0.14574 0.28900
O 	O 	0.79206 0.66951 0.95286 -0.40800
O 	O 	0.77491 0.62281 0.97698 -0.33000
O 	O 	0.62428 0.56579 0.98284 -0.31200
O 	O 	0.52457 0.53588 0.06502 -0.32100
O 	O 	0.51274 0.49168 0.14476 -0.26100
O 	O 	0.48955 0.52574 0.16312 -0.43100
O 	O 	0.47588 0.39760 0.99654 -0.28700
O 	O 	0.41782 0.24977 0.99217 -0.26100
O 	O 	0.35916 0.22927 0.97652 -0.46100
C 	C 	0.45854 0.02663 0.20336 0.27500
C 	C 	0.42830 0.03838 0.20682 0.05100
C 	C 	0.39588 0.01545 0.22135 -0.16800
H 	H 	0.39607 0.99593 0.23033 0.09700
C 	C 	0.36448 0.02185 0.22226 0.14400
H 	H 	0.34317 0.00653 0.23183 -0.02500
C 	C 	0.36417 0.05007 0.20950 -0.27100
H 	H 	0.34247 0.05413 0.21023 0.12300
C 	C 	0.39603 0.07373 0.19507 0.28200
C 	C 	0.42830 0.06763 0.19379 -0.22900
H 	H 	0.44957 0.08303 0.18423 0.12600
C 	C 	0.42259 0.12710 0.16840 0.24300
H 	H 	0.44727 0.14383 0.17633 -0.04700
H 	H 	0.42737 0.11183 0.15713 -0.05000
C 	C 	0.40700 0.15256 0.15738 -0.41500
C 	C 	0.40513 0.18189 0.16986 0.50600
C 	C 	0.38662 0.20097 0.16037 -0.42300
C 	C 	0.37419 0.19435 0.13839 0.52300
C 	C 	0.37757 0.16594 0.12601 -0.41200
C 	C 	0.39263 0.14267 0.13613 0.48800
C 	C 	0.39255 0.10925 0.12291 -1.01000
H 	H 	0.38627 0.08723 0.13273 0.33300
H 	H 	0.37297 0.10073 0.11113 0.33300
H 	H 	0.41837 0.11853 0.11643 0.32500
C 	C 	0.42295 0.19360 0.19302 -1.03400
H 	H 	0.44927 0.19713 0.19293 0.33800
H 	H 	0.42427 0.21813 0.19733 0.34500
H 	H 	0.40667 0.17303 0.20353 0.33200
C 	C 	0.35549 0.21659 0.12819 -1.06200
H 	H 	0.36367 0.24073 0.13643 0.36000
H 	H 	0.36387 0.22293 0.11283 0.34900
H 	H 	0.32697 0.20033 0.12883 0.34600
C 	C 	0.37945 0.22921 0.17409 0.23900
H 	H 	0.37817 0.22273 0.18993 -0.03900
H 	H 	0.35437 0.22713 0.16983 -0.04000
C 	C 	0.40804 0.29879 0.18056 0.22900
C 	C 	0.37566 0.29178 0.19385 -0.22200
H 	H 	0.35507 0.26583 0.19613 0.11100
C 	C 	0.37411 0.32353 0.20365 0.07200
H 	H 	0.35247 0.31883 0.21253 -0.01000
C 	C 	0.40493 0.36228 0.20018 -0.10200
H 	H 	0.40387 0.38353 0.20673 0.05800
C 	C 	0.43731 0.36929 0.18689 -0.00600
C 	C 	0.43886 0.33754 0.17709 -0.16900
H 	H 	0.46057 0.34223 0.16823 0.11200
C 	C 	0.47013 0.41038 0.18285 0.33500
C 	C 	0.36292 0.15753 0.10209 0.28600
H 	H 	0.37677 0.14643 0.09393 -0.06400
H 	H 	0.36857 0.18213 0.09473 -0.06500
C 	C 	0.30288 0.12424 0.08184 0.27600
C 	C 	0.26151 0.09761 0.08289 -0.24500
H 	H 	0.24977 0.08603 0.09653 0.11500
C 	C 	0.23822 0.08858 0.06382 0.09800
H 	H 	0.21077 0.07163 0.06463 -0.01400
C 	C 	0.25680 0.10551 0.04322 -0.14000
H 	H 	0.24177 0.09883 0.03013 0.08200
C 	C 	0.29704 0.13181 0.04246 0.04500
C 	C 	0.31988 0.14024 0.06207 -0.23700
H 	H 	0.34727 0.15723 0.06133 0.12800
C 	C 	0.31797 0.15062 0.02092 0.28900
O 	O 	0.45588 0.99715 0.21380 -0.40800
O 	O 	0.48543 0.04385 0.18968 -0.33000
O 	O 	0.39182 0.10087 0.18382 -0.31200
O 	O 	0.32202 0.13078 0.10164 -0.32100
O 	O 	0.35439 0.17498 0.02190 -0.26100
O 	O 	0.29714 0.14092 0.00354 -0.43100
O 	O 	0.41161 0.26906 0.17012 -0.28700
O 	O 	0.50138 0.41689 0.17449 -0.26100
O 	O 	0.46322 0.43739 0.19014 -0.46100
Zn	Zn	0.48857 0.49784 0.19433 1.17500
C 	C 	0.02663 0.45854 0.29664 0.27500
C 	C 	0.03838 0.42830 0.29318 0.05100
C 	C 	0.01545 0.39588 0.27865 -0.16800
H 	H 	0.99593 0.39607 0.26967 0.09700
C 	C 	0.02185 0.36448 0.27774 0.14400
H 	H 	0.00653 0.34317 0.26817 -0.02500
C 	C 	0.05007 0.36417 0.29050 -0.27100
H 	H 	0.05413 0.34247 0.28977 0.12300
C 	C 	0.07373 0.39603 0.30493 0.28200
C 	C 	0.06763 0.42830 0.30621 -0.22900
H 	H 	0.08303 0.44957 0.31577 0.12600
C 	C 	0.12710 0.42259 0.33160 0.24300
H 	H 	0.14383 0.44727 0.32367 -0.04700
H 	H 	0.11183 0.42737 0.34287 -0.05000
C 	C 	0.15256 0.40700 0.34262 -0.41500
C 	C 	0.18189 0.40513 0.33014 0.50600
C 	C 	0.20097 0.38662 0.33963 -0.42300
C 	C 	0.19435 0.37419 0.36161 0.52300
C 	C 	0.16594 0.37757 0.37399 -0.41200
C 	C 	0.14267 0.39263 0.36387 0.48800
C 	C 	0.10925 0.39255 0.37709 -1.01000
H 	H 	0.08723 0.38627 0.36727 0.33300
H 	H 	0.10073 0.37297 0.38887 0.33300
H 	H 	0.11853 0.41837 0.38357 0.32500
C 	C 	0.19360 0.42295 0.30698 -1.03400
H 	H 	0.19713 0.44927 0.30707 0.33800
H 	H 	0.21813 0.42427 0.30267 0.34500
H 	H 	0.17303 0.40667 0.29647 0.33200
C 	C 	0.21659 0.35549 0.37181 -1.06200
H 	H 	0.24073 0.36367 0.36357 0.36000
H 	H 	0.22293 0.36387 0.38717 0.34900
H 	H 	0.20033 0.32697 0.37117 0.34600
C 	C 	0.22921 0.37945 0.32591 0.23900
H 	H 	0.22273 0.37817 0.31007 -0.03900
H 	H 	0.22713 0.35437 0.33017 -0.04000
C 	C 	0.29879 0.40804 0.31944 0.22900
C 	C 	0.29178 0.37566 0.30615 -0.22200
H 	H 	0.26583 0.35507 0.30387 0.11100
C 	C 	0.32353 0.37411 0.29635 0.07200
H 	H 	0.31883 0.35247 0.28747 -0.01000
C 	C 	0.36228 0.40493 0.29982 -0.10200
H 	H 	0.38353 0.40387 0.29327 0.05800
C 	C 	0.36929 0.43731 0.31311 -0.00600
C 	C 	0.33754 0.43886 0.32291 -0.16900
H 	H 	0.34223 0.46057 0.33177 0.11200
C 	C 	0.41038 0.47013 0.31715 0.33500
C 	C 	0.15753 0.36292 0.39791 0.28600
H 	H 	0.14643 0.37677 0.40607 -0.06400
H 	H 	0.18213 0.36857 0.40527 -0.06500
C 	C 	0.12424 0.30288 0.41816 0.27600
C 	C 	0.09761 0.26151 0.41711 -0.24500
H 	H 	0.08603 0.24977 0.40347 0.11500
C 	C 	0.08858 0.23822 0.43618 0.09800
H 	H 	0.07163 0.21077 0.43537 -0.01400
C 	C 	0.10551 0.25680 0.45678 -0.14000
H 	H 	0.09883 0.24177 0.46987 0.08200
C 	C 	0.13181 0.29704 0.45754 0.04500
C 	C 	0.14024 0.31988 0.43793 -0.23700
H 	H 	0.15723 0.34727 0.43867 0.12800
C 	C 	0.15062 0.31797 0.47908 0.28900
O 	O 	0.99715 0.45588 0.28620 -0.40800
O 	O 	0.04385 0.48543 0.31032 -0.33000
O 	O 	0.10087 0.39182 0.31618 -0.31200
O 	O 	0.13078 0.32202 0.39836 -0.32100
O 	O 	0.17498 0.35439 0.47810 -0.26100
O 	O 	0.14092 0.29714 0.49646 -0.43100
O 	O 	0.26906 0.41161 0.32988 -0.28700
O 	O 	0.41689 0.50138 0.32551 -0.26100
O 	O 	0.43739 0.46322 0.30986 -0.46100
Zn	Zn	0.49784 0.48857 0.30567 1.17500
Zn	Zn	0.16883 0.32407 0.52766 1.17500
C 	C 	0.64003 0.76524 0.53670 0.27500
C 	C 	0.62828 0.72325 0.54016 0.05100
C 	C 	0.65121 0.71376 0.55469 -0.16800
H 	H 	0.67073 0.73347 0.56367 0.09700
C 	C 	0.64481 0.67596 0.55560 0.14400
H 	H 	0.66013 0.66997 0.56517 -0.02500
C 	C 	0.61659 0.64743 0.54284 -0.27100
H 	H 	0.61253 0.62167 0.54357 0.12300
C 	C 	0.59293 0.65563 0.52841 0.28200
C 	C 	0.59903 0.69400 0.52713 -0.22900
H 	H 	0.58363 0.69987 0.51757 0.12600
C 	C 	0.53956 0.62882 0.50174 0.24300
H 	H 	0.52283 0.63677 0.50967 -0.04700
H 	H 	0.55483 0.64887 0.49047 -0.05000
C 	C 	0.51410 0.58777 0.49072 -0.41500
C 	C 	0.48477 0.55657 0.50320 0.50600
C 	C 	0.46569 0.51898 0.49371 -0.42300
C 	C 	0.47231 0.51317 0.47173 0.52300
C 	C 	0.50072 0.54496 0.45935 -0.41200
C 	C 	0.52399 0.58329 0.46947 0.48800
C 	C 	0.55741 0.61663 0.45625 -1.01000
H 	H 	0.57943 0.63237 0.46607 0.33300
H 	H 	0.56593 0.60557 0.44447 0.33300
H 	H 	0.54813 0.63317 0.44977 0.32500
C 	C 	0.47306 0.56268 0.52636 -1.03400
H 	H 	0.46953 0.58547 0.52627 0.33800
H 	H 	0.44853 0.53947 0.53067 0.34500
H 	H 	0.49363 0.56697 0.53687 0.33200
C 	C 	0.45007 0.47223 0.46153 -1.06200
H 	H 	0.42593 0.45627 0.46977 0.36000
H 	H 	0.44373 0.47427 0.44617 0.34900
H 	H 	0.46633 0.45997 0.46217 0.34600
C 	C 	0.43745 0.48357 0.50743 0.23900
H 	H 	0.44393 0.48877 0.52327 -0.03900
H 	H 	0.43953 0.46057 0.50317 -0.04000
C 	C 	0.36787 0.44258 0.51390 0.22900
C 	C 	0.37488 0.41721 0.52719 -0.22200
H 	H 	0.40083 0.42257 0.52947 0.11100
C 	C 	0.34313 0.38391 0.53699 0.07200
H 	H 	0.34783 0.36697 0.54587 -0.01000
C 	C 	0.30438 0.37598 0.53352 -0.10200
H 	H 	0.28313 0.35367 0.54007 0.05800
C 	C 	0.29737 0.40135 0.52023 -0.00600
C 	C 	0.32912 0.43465 0.51043 -0.16900
H 	H 	0.32443 0.45167 0.50157 0.11200
C 	C 	0.25628 0.39308 0.51619 0.33500
C 	C 	0.50913 0.53872 0.43543 0.28600
H 	H 	0.52023 0.56367 0.42727 -0.06400
H 	H 	0.48453 0.51977 0.42807 -0.06500
C 	C 	0.54242 0.51197 0.41518 0.27600
C 	C 	0.56905 0.49723 0.41623 -0.24500
H 	H 	0.58063 0.49707 0.42987 0.11500
C 	C 	0.57808 0.48297 0.39716 0.09800
H 	H 	0.59503 0.47247 0.39797 -0.01400
C 	C 	0.56115 0.48462 0.37656 -0.14000
H 	H 	0.56783 0.47627 0.36347 0.08200
C 	C 	0.53485 0.49856 0.37580 0.04500
C 	C 	0.52642 0.51297 0.39541 -0.23700
H 	H 	0.50943 0.52337 0.39467 0.12800
C 	C 	0.51604 0.50068 0.35426 0.28900
O 	O 	0.66951 0.79206 0.54714 -0.40800
O 	O 	0.62281 0.77491 0.52302 -0.33000
O 	O 	0.56579 0.62428 0.51716 -0.31200
O 	O 	0.53588 0.52457 0.43498 -0.32100
O 	O 	0.49168 0.51274 0.35524 -0.26100
O 	O 	0.52574 0.48955 0.33688 -0.43100
O 	O 	0.39760 0.47588 0.50346 -0.28700
O 	O 	0.24977 0.41782 0.50783 -0.26100
O 	O 	0.22927 0.35916 0.52348 -0.46100
Zn	Zn	0.99073 0.50216 0.30567 1.17500
C 	C 	0.43190 0.97337 0.29664 0.27500
C 	C 	0.38991 0.96162 0.29318 0.05100
C 	C 	0.38042 0.98455 0.27865 -0.16800
H 	H 	0.40013 0.00407 0.26967 0.09700
C 	C 	0.34262 0.97815 0.27774 0.14400
H 	H 	0.33663 0.99347 0.26817 -0.02500
C 	C 	0.31409 0.94993 0.29050 -0.27100
H 	H 	0.28833 0.94587 0.28977 0.12300
C 	C 	0.32229 0.92627 0.30493 0.28200
C 	C 	0.36066 0.93237 0.30621 -0.22900
H 	H 	0.36653 0.91697 0.31577 0.12600
C 	C 	0.29548 0.87290 0.33160 0.24300
H 	H 	0.30343 0.85617 0.32367 -0.04700
H 	H 	0.31553 0.88817 0.34287 -0.05000
C 	C 	0.25443 0.84744 0.34262 -0.41500
C 	C 	0.22323 0.81811 0.33014 0.50600
C 	C 	0.18564 0.79903 0.33963 -0.42300
C 	C 	0.17983 0.80565 0.36161 0.52300
C 	C 	0.21162 0.83406 0.37399 -0.41200
C 	C 	0.24995 0.85733 0.36387 0.48800
C 	C 	0.28329 0.89075 0.37709 -1.01000
H 	H 	0.29903 0.91277 0.36727 0.33300
H 	H 	0.27223 0.89927 0.38887 0.33300
H 	H 	0.29983 0.88147 0.38357 0.32500
C 	C 	0.22934 0.80640 0.30698 -1.03400
H 	H 	0.25213 0.80287 0.30707 0.33800
H 	H 	0.20613 0.78187 0.30267 0.34500
H 	H 	0.23363 0.82697 0.29647 0.33200
C 	C 	0.13889 0.78341 0.37181 -1.06200
H 	H 	0.12293 0.75927 0.36357 0.36000
H 	H 	0.14093 0.77707 0.38717 0.34900
H 	H 	0.12663 0.79967 0.37117 0.34600
C 	C 	0.15023 0.77079 0.32591 0.23900
H 	H 	0.15543 0.77727 0.31007 -0.03900
H 	H 	0.12723 0.77287 0.33017 -0.04000
C 	C 	0.10924 0.70121 0.31944 0.22900
C 	C 	0.08387 0.70822 0.30615 -0.22200
H 	H 	0.08923 0.73417 0.30387 0.11100
C 	C 	0.05057 0.67647 0.29635 0.07200
H 	H 	0.03363 0.68117 0.28747 -0.01000
C 	C 	0.04264 0.63772 0.29982 -0.10200
H 	H 	0.02033 0.61647 0.29327 0.05800
C 	C 	0.06801 0.63071 0.31311 -0.00600
C 	C 	0.10131 0.66246 0.32291 -0.16900
H 	H 	0.11833 0.65777 0.33177 0.11200
C 	C 	0.05974 0.58962 0.31715 0.33500
C 	C 	0.20538 0.84247 0.39791 0.28600
H 	H 	0.23033 0.85357 0.40607 -0.06400
H 	H 	0.18643 0.81787 0.40527 -0.06500
C 	C 	0.17863 0.87576 0.41816 0.27600
C 	C 	0.16389 0.90239 0.41711 -0.24500
H 	H 	0.16373 0.91397 0.40347 0.11500
C 	C 	0.14963 0.91142 0.43618 0.09800
H 	H 	0.13913 0.92837 0.43537 -0.01400
C 	C 	0.15128 0.89449 0.45678 -0.14000
H 	H 	0.14293 0.90117 0.46987 0.08200
C 	C 	0.16522 0.86819 0.45754 0.04500
C 	C 	0.17963 0.85976 0.43793 -0.23700
H 	H 	0.19003 0.84277 0.43867 0.12800
C 	C 	0.16734 0.84938 0.47908 0.28900
O 	O 	0.45872 0.00285 0.28620 -0.40800
O 	O 	0.44157 0.95615 0.31032 -0.33000
O 	O 	0.29094 0.89913 0.31618 -0.31200
O 	O 	0.19123 0.86922 0.39836 -0.32100
O 	O 	0.17940 0.82502 0.47810 -0.26100
O 	O 	0.15621 0.85908 0.49646 -0.43100
O 	O 	0.14254 0.73094 0.32988 -0.28700
O 	O 	0.08448 0.58311 0.32551 -0.26100
O 	O 	0.02582 0.56261 0.30986 -0.46100
C 	C 	0.12520 0.35997 0.53670 0.27500
C 	C 	0.09496 0.37172 0.54016 0.05100
C 	C 	0.06254 0.34879 0.55469 -0.16800
H 	H 	0.06273 0.32927 0.56367 0.09700
C 	C 	0.03114 0.35519 0.55560 0.14400
H 	H 	0.00983 0.33987 0.56517 -0.02500
C 	C 	0.03083 0.38341 0.54284 -0.27100
H 	H 	0.00913 0.38747 0.54357 0.12300
C 	C 	0.06269 0.40707 0.52841 0.28200
C 	C 	0.09496 0.40097 0.52713 -0.22900
H 	H 	0.11623 0.41637 0.51757 0.12600
C 	C 	0.08925 0.46044 0.50174 0.24300
H 	H 	0.11393 0.47717 0.50967 -0.04700
H 	H 	0.09403 0.44517 0.49047 -0.05000
C 	C 	0.07366 0.48590 0.49072 -0.41500
C 	C 	0.07179 0.51523 0.50320 0.50600
C 	C 	0.05328 0.53431 0.49371 -0.42300
C 	C 	0.04085 0.52769 0.47173 0.52300
C 	C 	0.04423 0.49928 0.45935 -0.41200
C 	C 	0.05929 0.47601 0.46947 0.48800
C 	C 	0.05921 0.44259 0.45625 -1.01000
H 	H 	0.05293 0.42057 0.46607 0.33300
H 	H 	0.03963 0.43407 0.44447 0.33300
H 	H 	0.08503 0.45187 0.44977 0.32500
C 	C 	0.08961 0.52694 0.52636 -1.03400
H 	H 	0.11593 0.53047 0.52627 0.33800
H 	H 	0.09093 0.55147 0.53067 0.34500
H 	H 	0.07333 0.50637 0.53687 0.33200
C 	C 	0.02215 0.54993 0.46153 -1.06200
H 	H 	0.03033 0.57407 0.46977 0.36000
H 	H 	0.03053 0.55627 0.44617 0.34900
H 	H 	0.99363 0.53367 0.46217 0.34600
C 	C 	0.04611 0.56255 0.50743 0.23900
H 	H 	0.04483 0.55607 0.52327 -0.03900
H 	H 	0.02103 0.56047 0.50317 -0.04000
C 	C 	0.07470 0.63213 0.51390 0.22900
C 	C 	0.04232 0.62512 0.52719 -0.22200
H 	H 	0.02173 0.59917 0.52947 0.11100
C 	C 	0.04077 0.65687 0.53699 0.07200
H 	H 	0.01913 0.65217 0.54587 -0.01000
C 	C 	0.07159 0.69562 0.53352 -0.10200
H 	H 	0.07053 0.71687 0.54007 0.05800
C 	C 	0.10397 0.70263 0.52023 -0.00600
C 	C 	0.10552 0.67088 0.51043 -0.16900
H 	H 	0.12723 0.67557 0.50157 0.11200
C 	C 	0.13679 0.74372 0.51619 0.33500
C 	C 	0.02958 0.49087 0.43543 0.28600
H 	H 	0.04343 0.47977 0.42727 -0.06400
H 	H 	0.03523 0.51547 0.42807 -0.06500
C 	C 	0.96954 0.45758 0.41518 0.27600
C 	C 	0.92817 0.43095 0.41623 -0.24500
H 	H 	0.91643 0.41937 0.42987 0.11500
C 	C 	0.90488 0.42192 0.39716 0.09800
H 	H 	0.87743 0.40497 0.39797 -0.01400
C 	C 	0.92346 0.43885 0.37656 -0.14000
H 	H 	0.90843 0.43217 0.36347 0.08200
C 	C 	0.96370 0.46515 0.37580 0.04500
C 	C 	0.98654 0.47358 0.39541 -0.23600
H 	H 	0.01393 0.49057 0.39467 0.12800
C 	C 	0.98463 0.48396 0.35426 0.28900
O 	O 	0.12254 0.33049 0.54714 -0.40800
O 	O 	0.15209 0.37719 0.52302 -0.33000
O 	O 	0.05848 0.43421 0.51716 -0.31200
O 	O 	0.98868 0.46412 0.43498 -0.32100
O 	O 	0.02105 0.50832 0.35524 -0.26100
O 	O 	0.96380 0.47426 0.33688 -0.43100
O 	O 	0.07827 0.60240 0.50346 -0.28700
O 	O 	0.16804 0.75023 0.50783 -0.26100
O 	O 	0.12988 0.77073 0.52348 -0.46100
Zn	Zn	0.15524 0.83117 0.52766 1.17500
C 	C 	0.20813 0.90143 0.62997 0.27500
C 	C 	0.23837 0.94342 0.62651 0.05100
C 	C 	0.27079 0.95291 0.61198 -0.16800
H 	H 	0.27060 0.93320 0.60300 0.09700
C 	C 	0.30219 0.99071 0.61107 0.14400
H 	H 	0.32350 0.99670 0.60150 -0.02500
C 	C 	0.30250 0.01924 0.62383 -0.27100
H 	H 	0.32420 0.04500 0.62310 0.12300
C 	C 	0.27064 0.01104 0.63826 0.28200
C 	C 	0.23837 0.97267 0.63954 -0.22900
H 	H 	0.21710 0.96680 0.64910 0.12600
C 	C 	0.24408 0.03785 0.66493 0.24300
H 	H 	0.21940 0.02990 0.65700 -0.04700
H 	H 	0.23930 0.01780 0.67620 -0.05000
C 	C 	0.25967 0.07890 0.67595 -0.41500
C 	C 	0.26154 0.11010 0.66347 0.50600
C 	C 	0.28005 0.14769 0.67296 -0.42300
C 	C 	0.29248 0.15350 0.69494 0.52300
C 	C 	0.28910 0.12171 0.70732 -0.41200
C 	C 	0.27404 0.08338 0.69720 0.48800
C 	C 	0.27412 0.05004 0.71042 -1.01000
H 	H 	0.28040 0.03430 0.70060 0.33300
H 	H 	0.29370 0.06110 0.72220 0.33300
H 	H 	0.24830 0.03350 0.71690 0.32500
C 	C 	0.24372 0.10399 0.64031 -1.03400
H 	H 	0.21740 0.08120 0.64040 0.33900
H 	H 	0.24240 0.12720 0.63600 0.34500
H 	H 	0.26000 0.09970 0.62980 0.33200
C 	C 	0.31118 0.19444 0.70514 -1.06200
H 	H 	0.30300 0.21040 0.69690 0.36000
H 	H 	0.30280 0.19240 0.72050 0.34900
H 	H 	0.33970 0.20670 0.70450 0.34600
C 	C 	0.28722 0.18310 0.65924 0.23900
H 	H 	0.28850 0.17790 0.64340 -0.03900
H 	H 	0.31230 0.20610 0.66350 -0.04000
C 	C 	0.25863 0.22409 0.65277 0.22900
C 	C 	0.29101 0.24946 0.63948 -0.22200
H 	H 	0.31160 0.24410 0.63720 0.11100
C 	C 	0.29256 0.28276 0.62968 0.07200
H 	H 	0.31420 0.29970 0.62080 -0.01000
C 	C 	0.26174 0.29069 0.63315 -0.10200
H 	H 	0.26280 0.31300 0.62660 0.05800
C 	C 	0.22936 0.26532 0.64644 -0.00600
C 	C 	0.22781 0.23202 0.65624 -0.16900
H 	H 	0.20610 0.21500 0.66510 0.11200
C 	C 	0.19654 0.27359 0.65048 0.33500
C 	C 	0.30375 0.12795 0.73124 0.28600
H 	H 	0.28990 0.10300 0.73940 -0.06400
H 	H 	0.29810 0.14690 0.73860 -0.06500
C 	C 	0.36379 0.15470 0.75149 0.27600
C 	C 	0.40516 0.16944 0.75044 -0.24500
H 	H 	0.41690 0.16960 0.73680 0.11500
C 	C 	0.42845 0.18370 0.76951 0.09800
H 	H 	0.45590 0.19420 0.76870 -0.01400
C 	C 	0.40987 0.18205 0.79011 -0.14000
H 	H 	0.42490 0.19040 0.80320 0.08200
C 	C 	0.36963 0.16811 0.79087 0.04500
C 	C 	0.34679 0.15370 0.77126 -0.23700
H 	H 	0.31940 0.14330 0.77200 0.12800
C 	C 	0.34870 0.16599 0.81241 0.28900
O 	O 	0.21079 0.87461 0.61953 -0.40800
O 	O 	0.18124 0.89176 0.64365 -0.33000
O 	O 	0.27485 0.04239 0.64951 -0.31200
O 	O 	0.34465 0.14210 0.73169 -0.32100
O 	O 	0.31228 0.15393 0.81143 -0.26100
O 	O 	0.36953 0.17712 0.82979 -0.43100
O 	O 	0.25506 0.19079 0.66321 -0.28700
O 	O 	0.16529 0.24885 0.65884 -0.26100
O 	O 	0.20345 0.30751 0.64319 -0.46100
Zn	Zn	0.17809 0.34260 0.63901 1.17500
C 	C 	0.90143 0.20813 0.87003 0.27500
C 	C 	0.94342 0.23837 0.87349 0.05100
C 	C 	0.95291 0.27079 0.88802 -0.16800
H 	H 	0.93320 0.27060 0.89700 0.09700
C 	C 	0.99071 0.30219 0.88893 0.14400
H 	H 	0.99670 0.32350 0.89850 -0.02500
C 	C 	0.01924 0.30250 0.87617 -0.27100
H 	H 	0.04500 0.32420 0.87690 0.12300
C 	C 	0.01104 0.27064 0.86174 0.28200
C 	C 	0.97267 0.23837 0.86046 -0.22900
H 	H 	0.96680 0.21710 0.85090 0.12600
C 	C 	0.03785 0.24408 0.83507 0.24300
H 	H 	0.02990 0.21940 0.84300 -0.04700
H 	H 	0.01780 0.23930 0.82380 -0.05000
C 	C 	0.07890 0.25967 0.82405 -0.41500
C 	C 	0.11010 0.26154 0.83653 0.50600
C 	C 	0.14769 0.28005 0.82704 -0.42300
C 	C 	0.15350 0.29248 0.80506 0.52300
C 	C 	0.12171 0.28910 0.79268 -0.41200
C 	C 	0.08338 0.27404 0.80280 0.48800
C 	C 	0.05004 0.27412 0.78958 -1.01000
H 	H 	0.03430 0.28040 0.79940 0.33300
H 	H 	0.06110 0.29370 0.77780 0.33300
H 	H 	0.03350 0.24830 0.78310 0.32500
C 	C 	0.10399 0.24372 0.85969 -1.03400
H 	H 	0.08120 0.21740 0.85960 0.33900
H 	H 	0.12720 0.24240 0.86400 0.34500
H 	H 	0.09970 0.26000 0.87020 0.33200
C 	C 	0.19444 0.31118 0.79486 -1.06200
H 	H 	0.21040 0.30300 0.80310 0.36000
H 	H 	0.19240 0.30280 0.77950 0.34900
H 	H 	0.20670 0.33970 0.79550 0.34600
C 	C 	0.18310 0.28722 0.84076 0.23900
H 	H 	0.17790 0.28850 0.85660 -0.03900
H 	H 	0.20610 0.31230 0.83650 -0.04000
C 	C 	0.22409 0.25863 0.84723 0.22900
C 	C 	0.24946 0.29101 0.86052 -0.22200
H 	H 	0.24410 0.31160 0.86280 0.11100
C 	C 	0.28276 0.29256 0.87032 0.07200
H 	H 	0.29970 0.31420 0.87920 -0.01000
C 	C 	0.29069 0.26174 0.86685 -0.10200
H 	H 	0.31300 0.26280 0.87340 0.05800
C 	C 	0.26532 0.22936 0.85356 -0.00600
C 	C 	0.23202 0.22781 0.84376 -0.16900
H 	H 	0.21500 0.20610 0.83490 0.11200
C 	C 	0.27359 0.19654 0.84952 0.33500
C 	C 	0.12795 0.30375 0.76876 0.28600
H 	H 	0.10300 0.28990 0.76060 -0.06400
H 	H 	0.14690 0.29810 0.76140 -0.06500
C 	C 	0.15470 0.36379 0.74851 0.27600
C 	C 	0.16944 0.40516 0.74956 -0.24500
H 	H 	0.16960 0.41690 0.76320 0.11500
C 	C 	0.18370 0.42845 0.73049 0.09800
H 	H 	0.19420 0.45590 0.73130 -0.01400
C 	C 	0.18205 0.40987 0.70989 -0.14000
H 	H 	0.19040 0.42490 0.69680 0.08200
C 	C 	0.16811 0.36963 0.70913 0.04500
C 	C 	0.15370 0.34679 0.72874 -0.23700
H 	H 	0.14330 0.31940 0.72800 0.12800
C 	C 	0.16599 0.34870 0.68759 0.28900
O 	O 	0.87461 0.21079 0.88047 -0.40800
O 	O 	0.89176 0.18124 0.85635 -0.33000
O 	O 	0.04239 0.27485 0.85049 -0.31200
O 	O 	0.14210 0.34465 0.76831 -0.32100
O 	O 	0.15393 0.31228 0.68857 -0.26100
O 	O 	0.17712 0.36953 0.67021 -0.43100
O 	O 	0.19079 0.25506 0.83679 -0.28700
O 	O 	0.24885 0.16529 0.84116 -0.26100
O 	O 	0.30751 0.20345 0.85681 -0.46100
Zn	Zn	0.34260 0.17809 0.86099 1.17500
C 	C 	0.87480 0.23476 0.96330 0.27500
C 	C 	0.90504 0.27675 0.95984 0.05100
C 	C 	0.93746 0.28624 0.94531 -0.16800
H 	H 	0.93727 0.26653 0.93633 0.09700
C 	C 	0.96886 0.32404 0.94440 0.14400
H 	H 	0.99017 0.33003 0.93483 -0.02500
C 	C 	0.96917 0.35257 0.95716 -0.27100
H 	H 	0.99087 0.37833 0.95643 0.12300
C 	C 	0.93731 0.34437 0.97159 0.28200
C 	C 	0.90504 0.30600 0.97287 -0.22900
H 	H 	0.88377 0.30013 0.98243 0.12600
C 	C 	0.91075 0.37118 0.99826 0.24300
H 	H 	0.88607 0.36323 0.99033 -0.04700
H 	H 	0.90597 0.35113 0.00953 -0.05000
C 	C 	0.92634 0.41223 0.00928 -0.41500
C 	C 	0.92821 0.44343 0.99680 0.50600
C 	C 	0.94672 0.48102 0.00629 -0.42300
C 	C 	0.95915 0.48683 0.02827 0.52300
C 	C 	0.95577 0.45504 0.04065 -0.41200
C 	C 	0.94071 0.41671 0.03053 0.48800
C 	C 	0.94079 0.38337 0.04375 -1.01000
H 	H 	0.94707 0.36763 0.03393 0.33300
H 	H 	0.96037 0.39443 0.05553 0.33300
H 	H 	0.91497 0.36683 0.05023 0.32500
C 	C 	0.91039 0.43732 0.97364 -1.03400
H 	H 	0.88407 0.41453 0.97373 0.33800
H 	H 	0.90907 0.46053 0.96933 0.34500
H 	H 	0.92667 0.43303 0.96313 0.33200
C 	C 	0.97785 0.52777 0.03847 -1.06200
H 	H 	0.96967 0.54373 0.03023 0.36000
H 	H 	0.96947 0.52573 0.05383 0.34900
H 	H 	0.00637 0.54003 0.03783 0.34600
C 	C 	0.95389 0.51643 0.99257 0.23900
H 	H 	0.95517 0.51123 0.97673 -0.03900
H 	H 	0.97897 0.53943 0.99683 -0.04000
C 	C 	0.92530 0.55742 0.98610 0.22900
C 	C 	0.95768 0.58279 0.97281 -0.22200
H 	H 	0.97827 0.57743 0.97053 0.11100
C 	C 	0.95923 0.61609 0.96301 0.07200
H 	H 	0.98087 0.63303 0.95413 -0.01000
C 	C 	0.92841 0.62402 0.96648 -0.10200
H 	H 	0.92947 0.64633 0.95993 0.05800
C 	C 	0.89603 0.59865 0.97977 -0.00600
C 	C 	0.89448 0.56535 0.98957 -0.16900
H 	H 	0.87277 0.54833 0.99843 0.11200
C 	C 	0.86321 0.60692 0.98381 0.33500
C 	C 	0.97042 0.46128 0.06457 0.28600
H 	H 	0.95657 0.43633 0.07273 -0.06400
H 	H 	0.96477 0.48023 0.07193 -0.06500
C 	C 	0.03046 0.48803 0.08482 0.27600
C 	C 	0.07183 0.50277 0.08377 -0.24500
H 	H 	0.08357 0.50293 0.07013 0.11500
C 	C 	0.09512 0.51703 0.10284 0.09800
H 	H 	0.12257 0.52753 0.10203 -0.01400
C 	C 	0.07654 0.51538 0.12344 -0.14000
H 	H 	0.09157 0.52373 0.13653 0.08200
C 	C 	0.03630 0.50144 0.12420 0.04500
C 	C 	0.01346 0.48703 0.10459 -0.23700
H 	H 	0.98607 0.47663 0.10533 0.12800
C 	C 	0.01537 0.49932 0.14574 0.28900
O 	O 	0.87746 0.20794 0.95286 -0.40800
O 	O 	0.84791 0.22509 0.97698 -0.33000
O 	O 	0.94152 0.37572 0.98284 -0.31200
O 	O 	0.01132 0.47543 0.06502 -0.32100
O 	O 	0.97895 0.48726 0.14476 -0.26100
O 	O 	0.03620 0.51045 0.16312 -0.43100
O 	O 	0.92173 0.52412 0.99654 -0.28700
O 	O 	0.83196 0.58218 0.99217 -0.26100
O 	O 	0.87012 0.64084 0.97652 -0.46100
Zn	Zn	0.84476 0.67593 0.97234 1.17500
C 	C 	0.56810 0.54146 0.20336 0.27500
C 	C 	0.61009 0.57170 0.20682 0.05100
C 	C 	0.61958 0.60412 0.22135 -0.16800
H 	H 	0.59987 0.60393 0.23033 0.09700
C 	C 	0.65738 0.63552 0.22226 0.14400
H 	H 	0.66337 0.65683 0.23183 -0.02500
C 	C 	0.68591 0.63583 0.20950 -0.27100
H 	H 	0.71167 0.65753 0.21023 0.12300
C 	C 	0.67771 0.60397 0.19507 0.28200
C 	C 	0.63934 0.57170 0.19379 -0.22900
H 	H 	0.63347 0.55043 0.18423 0.12600
C 	C 	0.70452 0.57741 0.16840 0.24300
H 	H 	0.69657 0.55273 0.17633 -0.04700
H 	H 	0.68447 0.57263 0.15713 -0.05000
C 	C 	0.74557 0.59300 0.15738 -0.41500
C 	C 	0.77677 0.59487 0.16986 0.50600
C 	C 	0.81436 0.61338 0.16037 -0.42300
C 	C 	0.82017 0.62581 0.13839 0.52300
C 	C 	0.78838 0.62243 0.12601 -0.41200
C 	C 	0.75005 0.60737 0.13613 0.48800
C 	C 	0.71671 0.60745 0.12291 -1.01000
H 	H 	0.70097 0.61373 0.13273 0.33300
H 	H 	0.72777 0.62703 0.11113 0.33300
H 	H 	0.70017 0.58163 0.11643 0.32500
C 	C 	0.77066 0.57705 0.19302 -1.03400
H 	H 	0.74787 0.55073 0.19293 0.33800
H 	H 	0.79387 0.57573 0.19733 0.34500
H 	H 	0.76637 0.59333 0.20353 0.33200
C 	C 	0.86111 0.64451 0.12819 -1.06200
H 	H 	0.87707 0.63633 0.13643 0.36000
H 	H 	0.85907 0.63613 0.11283 0.34900
H 	H 	0.87337 0.67303 0.12883 0.34600
C 	C 	0.84977 0.62055 0.17409 0.23900
H 	H 	0.84457 0.62183 0.18993 -0.03900
H 	H 	0.87277 0.64563 0.16983 -0.04000
C 	C 	0.89076 0.59196 0.18056 0.22900
C 	C 	0.91613 0.62434 0.19385 -0.22200
H 	H 	0.91077 0.64493 0.19613 0.11100
C 	C 	0.94943 0.62589 0.20365 0.07200
H 	H 	0.96637 0.64753 0.21253 -0.01000
C 	C 	0.95736 0.59507 0.20018 -0.10200
H 	H 	0.97967 0.59613 0.20673 0.05800
C 	C 	0.93199 0.56269 0.18689 -0.00600
C 	C 	0.89869 0.56114 0.17709 -0.16900
H 	H 	0.88167 0.53943 0.16823 0.11200
C 	C 	0.94026 0.52987 0.18285 0.33500
C 	C 	0.79462 0.63708 0.10209 0.28600
H 	H 	0.76967 0.62323 0.09393 -0.06400
H 	H 	0.81357 0.63143 0.09473 -0.06500
C 	C 	0.82137 0.69712 0.08184 0.27600
C 	C 	0.83611 0.73849 0.08289 -0.24500
H 	H 	0.83627 0.75023 0.09653 0.11500
C 	C 	0.85037 0.76178 0.06382 0.09800
H 	H 	0.86087 0.78923 0.06463 -0.01400
C 	C 	0.84872 0.74320 0.04322 -0.14000
H 	H 	0.85707 0.75823 0.03013 0.08200
C 	C 	0.83478 0.70296 0.04246 0.04500
C 	C 	0.82037 0.68012 0.06207 -0.23700
H 	H 	0.80997 0.65273 0.06133 0.12800
C 	C 	0.83266 0.68203 0.02092 0.28900
O 	O 	0.54128 0.54412 0.21380 -0.40800
O 	O 	0.55843 0.51457 0.18968 -0.33000
O 	O 	0.70906 0.60818 0.18382 -0.31200
O 	O 	0.80877 0.67798 0.10164 -0.32100
O 	O 	0.82060 0.64561 0.02190 -0.26100
O 	O 	0.84379 0.70286 0.00354 -0.43100
O 	O 	0.85746 0.58839 0.17012 -0.28700
O 	O 	0.91552 0.49862 0.17449 -0.26100
O 	O 	0.97418 0.53678 0.19014 -0.46100
Zn	Zn	0.00927 0.51143 0.19433 1.17500
C 	C 	0.54146 0.56810 0.29664 0.27500
C 	C 	0.57170 0.61009 0.29318 0.05100
C 	C 	0.60412 0.61958 0.27865 -0.16800
H 	H 	0.60393 0.59987 0.26967 0.09700
C 	C 	0.63552 0.65738 0.27774 0.14400
H 	H 	0.65683 0.66337 0.26817 -0.02500
C 	C 	0.63583 0.68591 0.29050 -0.27100
H 	H 	0.65753 0.71167 0.28977 0.12300
C 	C 	0.60397 0.67771 0.30493 0.28200
C 	C 	0.57170 0.63934 0.30621 -0.22900
H 	H 	0.55043 0.63347 0.31577 0.12600
C 	C 	0.57741 0.70452 0.33160 0.24300
H 	H 	0.55273 0.69657 0.32367 -0.04700
H 	H 	0.57263 0.68447 0.34287 -0.05000
C 	C 	0.59300 0.74557 0.34262 -0.41500
C 	C 	0.59487 0.77677 0.33014 0.50600
C 	C 	0.61338 0.81436 0.33963 -0.42300
C 	C 	0.62581 0.82017 0.36161 0.52300
C 	C 	0.62243 0.78838 0.37399 -0.41200
C 	C 	0.60737 0.75005 0.36387 0.48800
C 	C 	0.60745 0.71671 0.37709 -1.01000
H 	H 	0.61373 0.70097 0.36727 0.33300
H 	H 	0.62703 0.72777 0.38887 0.33300
H 	H 	0.58163 0.70017 0.38357 0.32500
C 	C 	0.57705 0.77066 0.30698 -1.03400
H 	H 	0.55073 0.74787 0.30707 0.33800
H 	H 	0.57573 0.79387 0.30267 0.34500
H 	H 	0.59333 0.76637 0.29647 0.33200
C 	C 	0.64451 0.86111 0.37181 -1.06200
H 	H 	0.63633 0.87707 0.36357 0.36000
H 	H 	0.63613 0.85907 0.38717 0.34900
H 	H 	0.67303 0.87337 0.37117 0.34600
C 	C 	0.62055 0.84977 0.32591 0.23900
H 	H 	0.62183 0.84457 0.31007 -0.03900
H 	H 	0.64563 0.87277 0.33017 -0.04000
C 	C 	0.59196 0.89076 0.31944 0.22900
C 	C 	0.62434 0.91613 0.30615 -0.22200
H 	H 	0.64493 0.91077 0.30387 0.11100
C 	C 	0.62589 0.94943 0.29635 0.07200
H 	H 	0.64753 0.96637 0.28747 -0.01000
C 	C 	0.59507 0.95736 0.29982 -0.10200
H 	H 	0.59613 0.97967 0.29327 0.05800
C 	C 	0.56269 0.93199 0.31311 -0.00600
C 	C 	0.56114 0.89869 0.32291 -0.16900
H 	H 	0.53943 0.88167 0.33177 0.11200
C 	C 	0.52987 0.94026 0.31715 0.33500
C 	C 	0.63708 0.79462 0.39791 0.28600
H 	H 	0.62323 0.76967 0.40607 -0.06400
H 	H 	0.63143 0.81357 0.40527 -0.06500
C 	C 	0.69712 0.82137 0.41816 0.27600
C 	C 	0.73849 0.83611 0.41711 -0.24500
H 	H 	0.75023 0.83627 0.40347 0.11500
C 	C 	0.76178 0.85037 0.43618 0.09800
H 	H 	0.78923 0.86087 0.43537 -0.01400
C 	C 	0.74320 0.84872 0.45678 -0.14000
H 	H 	0.75823 0.85707 0.46987 0.08200
C 	C 	0.70296 0.83478 0.45754 0.04500
C 	C 	0.68012 0.82037 0.43793 -0.23700
H 	H 	0.65273 0.80997 0.43867 0.12800
C 	C 	0.68203 0.83266 0.47908 0.28900
O 	O 	0.54412 0.54128 0.28620 -0.40800
O 	O 	0.51457 0.55843 0.31032 -0.33000
O 	O 	0.60818 0.70906 0.31618 -0.31200
O 	O 	0.67798 0.80877 0.39836 -0.32100
O 	O 	0.64561 0.82060 0.47810 -0.26100
O 	O 	0.70286 0.84379 0.49646 -0.43100
O 	O 	0.58839 0.85746 0.32988 -0.28700
O 	O 	0.49862 0.91552 0.32551 -0.26100
O 	O 	0.53678 0.97418 0.30986 -0.46100
Zn	Zn	0.51143 0.00927 0.30567 1.17500
C 	C 	0.23476 0.87480 0.53670 0.27500
C 	C 	0.27675 0.90504 0.54016 0.05100
C 	C 	0.28624 0.93746 0.55469 -0.16800
H 	H 	0.26653 0.93727 0.56367 0.09700
C 	C 	0.32404 0.96886 0.55560 0.14400
H 	H 	0.33003 0.99017 0.56517 -0.02500
C 	C 	0.35257 0.96917 0.54284 -0.27100
H 	H 	0.37833 0.99087 0.54357 0.12300
C 	C 	0.34437 0.93731 0.52841 0.28200
C 	C 	0.30600 0.90504 0.52713 -0.22900
H 	H 	0.30013 0.88377 0.51757 0.12600
C 	C 	0.37118 0.91075 0.50174 0.24300
H 	H 	0.36323 0.88607 0.50967 -0.04700
H 	H 	0.35113 0.90597 0.49047 -0.05000
C 	C 	0.41223 0.92634 0.49072 -0.41500
C 	C 	0.44343 0.92821 0.50320 0.50600
C 	C 	0.48102 0.94672 0.49371 -0.42300
C 	C 	0.48683 0.95915 0.47173 0.52300
C 	C 	0.45504 0.95577 0.45935 -0.41200
C 	C 	0.41671 0.94071 0.46947 0.48800
C 	C 	0.38337 0.94079 0.45625 -1.01000
H 	H 	0.36763 0.94707 0.46607 0.33300
H 	H 	0.39443 0.96037 0.44447 0.33300
H 	H 	0.36683 0.91497 0.44977 0.32500
C 	C 	0.43732 0.91039 0.52636 -1.03400
H 	H 	0.41453 0.88407 0.52627 0.33800
H 	H 	0.46053 0.90907 0.53067 0.34500
H 	H 	0.43303 0.92667 0.53687 0.33200
C 	C 	0.52777 0.97785 0.46153 -1.06200
H 	H 	0.54373 0.96967 0.46977 0.36000
H 	H 	0.52573 0.96947 0.44617 0.34900
H 	H 	0.54003 0.00637 0.46217 0.34600
C 	C 	0.51643 0.95389 0.50743 0.23900
H 	H 	0.51123 0.95517 0.52327 -0.03900
H 	H 	0.53943 0.97897 0.50317 -0.04000
C 	C 	0.55742 0.92530 0.51390 0.22900
C 	C 	0.58279 0.95768 0.52719 -0.22200
H 	H 	0.57743 0.97827 0.52947 0.11100
C 	C 	0.61609 0.95923 0.53699 0.07200
H 	H 	0.63303 0.98087 0.54587 -0.01000
C 	C 	0.62402 0.92841 0.53352 -0.10200
H 	H 	0.64633 0.92947 0.54007 0.05800
C 	C 	0.59865 0.89603 0.52023 -0.00600
C 	C 	0.56535 0.89448 0.51043 -0.16900
H 	H 	0.54833 0.87277 0.50157 0.11200
C 	C 	0.60692 0.86321 0.51619 0.33500
C 	C 	0.46128 0.97042 0.43543 0.28600
H 	H 	0.43633 0.95657 0.42727 -0.06400
H 	H 	0.48023 0.96477 0.42807 -0.06500
C 	C 	0.48803 0.03046 0.41518 0.27600
C 	C 	0.50277 0.07183 0.41623 -0.24500
H 	H 	0.50293 0.08357 0.42987 0.11500
C 	C 	0.51703 0.09512 0.39716 0.09800
H 	H 	0.52753 0.12257 0.39797 -0.01400
C 	C 	0.51538 0.07654 0.37656 -0.14000
H 	H 	0.52373 0.09157 0.36347 0.08200
C 	C 	0.50144 0.03630 0.37580 0.04500
C 	C 	0.48703 0.01346 0.39541 -0.23600
H 	H 	0.47663 0.98607 0.39467 0.12800
C 	C 	0.49932 0.01537 0.35426 0.28900
O 	O 	0.20794 0.87746 0.54714 -0.40800
O 	O 	0.22509 0.84791 0.52302 -0.33000
O 	O 	0.37572 0.94152 0.51716 -0.31200
O 	O 	0.47543 0.01132 0.43498 -0.32100
O 	O 	0.48726 0.97895 0.35524 -0.26100
O 	O 	0.51045 0.03620 0.33688 -0.43100
O 	O 	0.52412 0.92173 0.50346 -0.28700
O 	O 	0.58218 0.83196 0.50783 -0.26100
O 	O 	0.64084 0.87012 0.52348 -0.46100
Zn	Zn	0.67593 0.84476 0.52766 1.17500
