data_crystal

_cell_length_a 23.00770
_cell_length_b 17.05440
_cell_length_c 28.62840
_cell_angle_alpha 90.00000
_cell_angle_beta  101.47900
_cell_angle_gamma 90.00000

_symmetry_space_group_name_	'P 1'
_symmetry_space_group_name_H-M	'P 1'

loop_
_symmetry_equiv_pos_as_xyz
  x,y,z

loop_
_atom_site_label
_atom_site_type_symbol
_atom_site_fract_x
_atom_site_fract_y
_atom_site_fract_z
_atom_site_charge
Ag	Ag	0.25781 0.71502 0.10114 0.42700
Ag	Ag	0.19468 0.83898 0.13582 0.41700
Ag	Ag	0.19342 0.78808 0.01491 0.43100
Ag	Ag	0.18929 0.81572 0.26069 0.39300
Ag	Ag	0.18601 0.79883 0.39085 0.35700
Ag	Ag	0.25945 0.71289 0.20571 0.45700
Ag	Ag	0.25955 0.91104 0.33382 0.43100
Ag	Ag	0.28006 0.90871 0.22423 0.42900
Ag	Ag	0.25986 0.64037 0.97832 0.42300
Ag	Ag	0.94965 0.22790 0.07497 0.56700
Ag	Ag	0.27104 0.81842 0.94544 0.45500
Ag	Ag	0.29933 0.10970 0.19326 0.55700
Ag	Ag	0.27481 0.99650 0.97827 0.56700
Ag	Ag	0.25724 0.71131 0.34040 0.45300
Ag	Ag	0.28555 0.89076 0.07814 0.27300
C 	C 	0.28520 0.76810 0.02720 -0.46600
C 	C 	0.33920 0.76710 0.03280 0.06800
C 	C 	0.40252 0.76130 0.04017 -0.12900
C 	C 	0.42914 0.68820 0.04874 0.08300
H 	H 	0.40600 0.64400 0.05050 -0.00500
C 	C 	0.49036 0.68110 0.05472 -0.18200
H 	H 	0.50820 0.63210 0.06040 0.15800
C 	C 	0.52496 0.74710 0.05213 0.21600
C 	C 	0.49835 0.82030 0.04356 -0.18400
H 	H 	0.52150 0.86450 0.04180 0.22400
C 	C 	0.43713 0.82740 0.03758 0.09500
H 	H 	0.41930 0.87630 0.03180 0.05400
C 	C 	0.28790 0.81990 0.15400 -0.49300
C 	C 	0.34090 0.83710 0.16280 0.04500
C 	C 	0.40420 0.84600 0.17179 -0.12400
C 	C 	0.43887 0.78126 0.16625 0.09500
H 	H 	0.42100 0.73320 0.15730 -0.00100
C 	C 	0.50022 0.78840 0.17402 -0.19400
H 	H 	0.52340 0.74500 0.17030 0.19000
C 	C 	0.52691 0.86030 0.18734 0.22300
C 	C 	0.49224 0.92500 0.19288 -0.15400
H 	H 	0.51010 0.97310 0.20180 0.14900
C 	C 	0.43088 0.91790 0.18511 0.07500
H 	H 	0.40770 0.96120 0.18880 0.02100
C 	C 	0.28200 0.79850 0.27570 -0.45900
C 	C 	0.33360 0.77910 0.28200 0.07000
C 	C 	0.39595 0.76190 0.28960 -0.09800
C 	C 	0.43654 0.82310 0.29917 0.04300
H 	H 	0.42330 0.87410 0.30180 0.03800
C 	C 	0.49690 0.80790 0.30480 -0.14300
H 	H 	0.52410 0.84880 0.31120 0.12100
C 	C 	0.51667 0.73160 0.30090 0.16900
C 	C 	0.47610 0.67050 0.29130 -0.12600
H 	H 	0.48930 0.61950 0.28870 0.14200
C 	C 	0.41572 0.68570 0.28569 0.05800
H 	H 	0.38860 0.64480 0.27930 0.02500
C 	C 	0.28000 0.80280 0.40290 -0.46600
C 	C 	0.33250 0.67850 0.91190 0.06500
C 	C 	0.39435 0.66000 0.92161 -0.07800
C 	C 	0.43618 0.71845 0.92053 0.01800
H 	H 	0.42400 0.76970 0.91320 0.06300
C 	C 	0.49627 0.70020 0.93042 -0.11800
H 	H 	0.52430 0.73930 0.92970 0.12200
C 	C 	0.51451 0.62350 0.94140 0.13900
C 	C 	0.47267 0.56510 0.94250 -0.11200
H 	H 	0.48490 0.51380 0.94980 0.11500
C 	C 	0.41259 0.58340 0.93259 0.02900
H 	H 	0.38460 0.54430 0.93330 0.05100
C 	C 	0.20020 0.53470 0.09040 0.06600
C 	C 	0.19680 0.44950 0.08910 0.02300
C 	C 	0.24815 0.40640 0.08960 -0.08000
H 	H 	0.28380 0.43210 0.08960 0.06800
C 	C 	0.24621 0.32490 0.09000 0.00300
H 	H 	0.28060 0.29610 0.09030 0.04900
C 	C 	0.19290 0.28660 0.08990 -0.07100
H 	H 	0.19160 0.23210 0.09020 0.06000
C 	C 	0.14149 0.32970 0.08941 0.02200
C 	C 	0.14343 0.41120 0.08900 -0.08400
H 	H 	0.10900 0.44000 0.08870 0.09400
C 	C 	0.08690 0.28970 0.08890 0.10400
C 	C 	0.23500 0.54650 0.28060 0.09700
C 	C 	0.20570 0.48040 0.25536 0.04600
C 	C 	0.23742 0.41460 0.24641 -0.08600
H 	H 	0.27860 0.41450 0.25460 0.10400
C 	C 	0.20752 0.34880 0.22526 0.03900
C 	C 	0.14594 0.34890 0.21307 -0.08400
H 	H 	0.12590 0.30490 0.19890 0.07100
C 	C 	0.11427 0.41470 0.22200 0.04800
H 	H 	0.07310 0.41480 0.21390 0.05200
C 	C 	0.14420 0.48050 0.24318 -0.06600
H 	H 	0.12300 0.52450 0.24920 0.12400
C 	C 	0.23890 0.27940 0.21770 0.09600
C 	C 	0.23400 0.18190 0.97730 0.12700
C 	C 	0.20863 0.25590 0.96266 0.03400
C 	C 	0.24426 0.31990 0.95740 -0.07900
H 	H 	0.28530 0.31480 0.96440 0.10200
C 	C 	0.21851 0.39130 0.94160 0.02200
C 	C 	0.15710 0.39870 0.93100 -0.06500
H 	H 	0.13990 0.44650 0.92040 0.04300
C 	C 	0.12150 0.33480 0.93630 0.01500
H 	H 	0.08040 0.33990 0.92930 0.12200
C 	C 	0.14725 0.26340 0.95210 -0.06200
H 	H 	0.12340 0.22070 0.95570 0.15400
C 	C 	0.25420 0.45470 0.93260 0.04100
C 	C 	0.15470 0.90170 0.91620 0.11500
C 	C 	0.10620 0.95990 0.89280 0.81300
C 	C 	0.12510 0.69320 0.18190 0.10800
C 	C 	0.06800 0.65540 0.15310 0.84100
C 	C 	0.36320 0.01250 0.29750 0.06000
C 	C 	0.40610 0.07890 0.31510 1.00000
C 	C 	0.07950 0.81550 0.05510 0.16800
C 	C 	0.01150 0.82540 0.04170 0.87200
C 	C 	0.34940 0.03480 0.08980 0.33200
F 	F 	0.11960 0.03290 0.90736 -0.43600
F 	F 	0.05330 0.94450 0.90170 -0.47000
F 	F 	0.10180 0.95970 0.84592 -0.48700
F 	F 	0.01911 0.69500 0.15446 -0.45600
F 	F 	0.06000 0.58370 0.16760 -0.49500
F 	F 	0.07120 0.65110 0.10727 -0.47800
F 	F 	0.45110 0.08230 0.29630 -0.54200
F 	F 	0.38130 0.14780 0.30260 -0.50700
F 	F 	0.42280 0.08170 0.35810 -0.56400
F 	F 	0.98630 0.75370 0.03050 -0.45700
F 	F 	0.99520 0.86060 0.00100 -0.47700
F 	F 	0.98800 0.85590 0.07280 -0.45700
N 	N 	0.58860 0.73880 0.05730 -0.02900
N 	N 	0.59100 0.86750 0.19580 -0.01800
N 	N 	0.57920 0.71720 0.30570 -0.01300
N 	N 	0.57670 0.60370 0.95250 -0.01300
N 	N 	0.20580 0.60220 0.09270 -0.20100
N 	N 	0.04290 0.25900 0.08870 -0.15800
N 	N 	0.25560 0.59850 0.30180 -0.19200
N 	N 	0.26150 0.22210 0.21120 -0.16800
N 	N 	0.25180 0.12140 0.98620 -0.16200
N 	N 	0.28240 0.50630 0.92530 -0.17600
O 	O 	0.60800 0.67360 0.05290 -0.06600
O 	O 	0.61910 0.79650 0.06420 -0.01600
O 	O 	0.61850 0.81360 0.18390 -0.01600
O 	O 	0.61290 0.92980 0.21160 -0.07100
O 	O 	0.40620 0.14860 0.19790 -0.11400
O 	O 	0.61340 0.77160 0.31450 -0.11100
O 	O 	0.61220 0.65120 0.94420 -0.11100
O 	O 	0.58940 0.53820 0.97050 -0.12600
O 	O 	0.13850 0.84240 0.93515 -0.36500
O 	O 	0.20580 0.92010 0.91246 -0.29800
O 	O 	0.16930 0.65020 0.18804 -0.27600
O 	O 	0.12120 0.76310 0.19340 -0.28000
O 	O 	0.35230 0.96900 0.32860 -0.23600
O 	O 	0.34590 0.01000 0.25325 -0.28800
O 	O 	0.10210 0.83240 0.09609 -0.25300
O 	O 	0.10200 0.79140 0.02183 -0.30700
O 	O 	0.35020 0.98550 0.05970 -0.36300
O 	O 	0.32640 0.03880 0.12620 -0.39800
O 	O 	0.33260 0.00460 0.92470 -0.14000
O 	O 	0.35530 0.87680 0.92510 0.33600
C 	C 	0.36420 0.94690 0.92100 0.20500
C 	C 	0.42240 0.96720 0.90790 -0.81400
F 	F 	0.46860 0.95390 0.94140 -0.04500
F 	F 	0.42730 0.03780 0.89200 -0.37000
F 	F 	0.43270 0.92060 0.87080 -0.21100
Ag	Ag	0.28280 0.92590 0.10300 0.30200
C 	C 	0.36060 0.91500 0.91340 -0.64900
C 	C 	0.39300 0.98700 0.90500 1.80100
F 	F 	0.36490 0.05110 0.90140 -0.62300
F 	F 	0.43340 0.98670 0.88160 -0.04900
F 	F 	0.43220 0.00280 0.95450 -0.30200
O 	O 	0.34150 0.90850 0.95000 -0.25700
O 	O 	0.35680 0.87270 0.87830 -0.05000
Ag	Ag	0.74219 0.21502 0.39886 0.42600
Ag	Ag	0.80532 0.33898 0.36418 0.41600
Ag	Ag	0.80658 0.28808 0.48509 0.43000
Ag	Ag	0.81071 0.31572 0.23931 0.39300
Ag	Ag	0.81399 0.29883 0.10915 0.35700
Ag	Ag	0.74055 0.21289 0.29429 0.45600
Ag	Ag	0.74045 0.41104 0.16618 0.43000
Ag	Ag	0.71994 0.40871 0.27577 0.42800
Ag	Ag	0.74014 0.14037 0.52168 0.42100
Ag	Ag	0.05035 0.72790 0.42503 0.56600
Ag	Ag	0.72896 0.31842 0.55456 0.45400
Ag	Ag	0.70067 0.60970 0.30674 0.55600
Ag	Ag	0.72519 0.49650 0.52173 0.56900
Ag	Ag	0.74276 0.21131 0.15960 0.45200
Ag	Ag	0.71445 0.39076 0.42186 0.27200
C 	C 	0.71480 0.26810 0.47280 -0.46800
C 	C 	0.66080 0.26710 0.46720 0.06800
C 	C 	0.59748 0.26130 0.45983 -0.12900
C 	C 	0.57086 0.18820 0.45126 0.08300
H 	H 	0.59400 0.14400 0.44950 -0.00500
C 	C 	0.50964 0.18110 0.44528 -0.18300
H 	H 	0.49180 0.13210 0.43960 0.15800
C 	C 	0.47504 0.24710 0.44787 0.21600
C 	C 	0.50165 0.32030 0.45644 -0.18500
H 	H 	0.47850 0.36450 0.45820 0.22400
C 	C 	0.56287 0.32740 0.46242 0.09500
H 	H 	0.58070 0.37630 0.46820 0.05400
C 	C 	0.71210 0.31990 0.34600 -0.49300
C 	C 	0.65910 0.33710 0.33720 0.04500
C 	C 	0.59580 0.34600 0.32821 -0.12400
C 	C 	0.56113 0.28126 0.33375 0.09500
H 	H 	0.57900 0.23320 0.34270 -0.00100
C 	C 	0.49978 0.28840 0.32598 -0.19400
H 	H 	0.47660 0.24500 0.32970 0.19000
C 	C 	0.47309 0.36030 0.31266 0.22300
C 	C 	0.50776 0.42500 0.30712 -0.15300
H 	H 	0.48990 0.47310 0.29820 0.14900
C 	C 	0.56912 0.41790 0.31489 0.07400
H 	H 	0.59230 0.46120 0.31120 0.02100
C 	C 	0.71800 0.29850 0.22430 -0.45900
C 	C 	0.66640 0.27910 0.21800 0.06900
C 	C 	0.60405 0.26190 0.21040 -0.09800
C 	C 	0.56346 0.32310 0.20083 0.04300
H 	H 	0.57670 0.37410 0.19820 0.03800
C 	C 	0.50310 0.30790 0.19520 -0.14300
H 	H 	0.47590 0.34880 0.18880 0.12100
C 	C 	0.48333 0.23160 0.19910 0.16900
C 	C 	0.52390 0.17050 0.20870 -0.12600
H 	H 	0.51070 0.11950 0.21130 0.14200
C 	C 	0.58428 0.18570 0.21431 0.05700
H 	H 	0.61140 0.14480 0.22070 0.02400
C 	C 	0.72000 0.30280 0.09710 -0.46500
C 	C 	0.66750 0.17850 0.58810 0.06500
C 	C 	0.60565 0.16000 0.57839 -0.07800
C 	C 	0.56382 0.21845 0.57947 0.01900
H 	H 	0.57600 0.26970 0.58680 0.06300
C 	C 	0.50373 0.20020 0.56958 -0.11900
H 	H 	0.47570 0.23930 0.57030 0.12300
C 	C 	0.48549 0.12350 0.55860 0.13900
C 	C 	0.52733 0.06510 0.55750 -0.11300
H 	H 	0.51510 0.01380 0.55020 0.11500
C 	C 	0.58741 0.08340 0.56741 0.02900
H 	H 	0.61540 0.04430 0.56670 0.05000
C 	C 	0.79980 0.03470 0.40960 0.06000
C 	C 	0.80320 0.94950 0.41090 0.03000
C 	C 	0.75185 0.90640 0.41040 -0.08400
H 	H 	0.71620 0.93210 0.41040 0.07100
C 	C 	0.75379 0.82490 0.41000 0.00700
H 	H 	0.71940 0.79610 0.40970 0.04800
C 	C 	0.80710 0.78660 0.41010 -0.07400
H 	H 	0.80840 0.73210 0.40980 0.06100
C 	C 	0.85851 0.82970 0.41059 0.02500
C 	C 	0.85657 0.91120 0.41100 -0.08800
H 	H 	0.89100 0.94000 0.41130 0.09700
C 	C 	0.91310 0.78970 0.41110 0.10300
C 	C 	0.76500 0.04650 0.21940 0.09300
C 	C 	0.79430 0.98040 0.24464 0.04500
C 	C 	0.76258 0.91460 0.25359 -0.08300
H 	H 	0.72140 0.91450 0.24540 0.10400
C 	C 	0.79248 0.84880 0.27474 0.03700
C 	C 	0.85406 0.84890 0.28693 -0.07900
H 	H 	0.87410 0.80490 0.30110 0.06900
C 	C 	0.88573 0.91470 0.27800 0.04000
H 	H 	0.92690 0.91480 0.28610 0.05700
C 	C 	0.85580 0.98050 0.25682 -0.05100
H 	H 	0.87700 0.02450 0.25080 0.11600
C 	C 	0.76110 0.77940 0.28230 0.09800
C 	C 	0.76600 0.68190 0.52270 0.12600
C 	C 	0.79137 0.75590 0.53734 0.03300
C 	C 	0.75574 0.81990 0.54260 -0.07800
H 	H 	0.71470 0.81480 0.53560 0.10200
C 	C 	0.78149 0.89130 0.55840 0.02000
C 	C 	0.84290 0.89870 0.56900 -0.06400
H 	H 	0.86010 0.94650 0.57960 0.04300
C 	C 	0.87850 0.83480 0.56370 0.01400
H 	H 	0.91960 0.83990 0.57070 0.12200
C 	C 	0.85275 0.76340 0.54790 -0.06100
H 	H 	0.87660 0.72070 0.54430 0.15300
C 	C 	0.74580 0.95470 0.56740 0.04400
C 	C 	0.84530 0.40170 0.58380 0.11400
C 	C 	0.89380 0.45990 0.60720 0.81800
C 	C 	0.87490 0.19320 0.31810 0.10800
C 	C 	0.93200 0.15540 0.34690 0.84100
C 	C 	0.63680 0.51250 0.20250 0.05900
C 	C 	0.59390 0.57890 0.18490 1.00000
C 	C 	0.92050 0.31550 0.44490 0.16600
C 	C 	0.98850 0.32540 0.45830 0.88000
C 	C 	0.65060 0.53480 0.41020 0.33400
F 	F 	0.88040 0.53290 0.59264 -0.44100
F 	F 	0.94670 0.44450 0.59830 -0.46800
F 	F 	0.89820 0.45970 0.65408 -0.48600
F 	F 	0.98089 0.19500 0.34554 -0.45500
F 	F 	0.94000 0.08370 0.33240 -0.49700
F 	F 	0.92880 0.15110 0.39273 -0.47900
F 	F 	0.54890 0.58230 0.20370 -0.54100
F 	F 	0.61870 0.64780 0.19740 -0.50700
F 	F 	0.57720 0.58170 0.14190 -0.56400
F 	F 	0.01370 0.25370 0.46950 -0.45900
F 	F 	0.00480 0.36060 0.49900 -0.48100
F 	F 	0.01200 0.35590 0.42720 -0.46100
N 	N 	0.41140 0.23880 0.44270 -0.02900
N 	N 	0.40900 0.36750 0.30420 -0.01800
N 	N 	0.42080 0.21720 0.19430 -0.01200
N 	N 	0.42330 0.10370 0.54750 -0.01300
N 	N 	0.79420 0.10220 0.40730 -0.20000
N 	N 	0.95710 0.75900 0.41130 -0.15700
N 	N 	0.74440 0.09850 0.19820 -0.19100
N 	N 	0.73850 0.72210 0.28880 -0.16800
N 	N 	0.74820 0.62140 0.51380 -0.16400
N 	N 	0.71760 0.00630 0.57470 -0.17800
O 	O 	0.39200 0.17360 0.44710 -0.06700
O 	O 	0.38090 0.29650 0.43580 -0.01600
O 	O 	0.38150 0.31360 0.31610 -0.01600
O 	O 	0.38710 0.42980 0.28840 -0.07100
O 	O 	0.59380 0.64860 0.30210 -0.11400
O 	O 	0.38660 0.27160 0.18550 -0.11100
O 	O 	0.38780 0.15120 0.55580 -0.11000
O 	O 	0.41060 0.03820 0.52950 -0.12500
O 	O 	0.86150 0.34240 0.56485 -0.36400
O 	O 	0.79420 0.42010 0.58754 -0.29600
O 	O 	0.83070 0.15020 0.31196 -0.27700
O 	O 	0.87880 0.26310 0.30660 -0.28000
O 	O 	0.64770 0.46900 0.17140 -0.23500
O 	O 	0.65410 0.51000 0.24675 -0.28800
O 	O 	0.89790 0.33240 0.40391 -0.25200
O 	O 	0.89800 0.29140 0.47817 -0.30600
O 	O 	0.64980 0.48550 0.44030 -0.36400
O 	O 	0.67360 0.53880 0.37380 -0.39900
O 	O 	0.66740 0.50460 0.57530 -0.14400
O 	O 	0.64470 0.37680 0.57490 0.33100
C 	C 	0.63580 0.44690 0.57900 0.20600
C 	C 	0.57760 0.46720 0.59210 -0.80000
F 	F 	0.53140 0.45390 0.55860 -0.04600
F 	F 	0.57270 0.53780 0.60800 -0.37200
F 	F 	0.56730 0.42060 0.62920 -0.21200
Ag	Ag	0.71720 0.42590 0.39700 0.30200
C 	C 	0.63940 0.41500 0.58660 -0.64200
C 	C 	0.60700 0.48700 0.59500 1.79100
F 	F 	0.63510 0.55110 0.59860 -0.62200
F 	F 	0.56660 0.48670 0.61840 -0.05100
F 	F 	0.56780 0.50280 0.54550 -0.30500
O 	O 	0.65850 0.40850 0.55000 -0.25500
O 	O 	0.64320 0.37270 0.62170 -0.05000
Ag	Ag	0.74219 0.28498 0.89886 0.42600
Ag	Ag	0.80532 0.16102 0.86418 0.41600
Ag	Ag	0.80658 0.21192 0.98509 0.43000
Ag	Ag	0.81071 0.18428 0.73931 0.39200
Ag	Ag	0.81399 0.20117 0.60915 0.35600
Ag	Ag	0.74055 0.28711 0.79429 0.45600
Ag	Ag	0.74045 0.08896 0.66618 0.43000
Ag	Ag	0.71994 0.09129 0.77577 0.42800
Ag	Ag	0.74014 0.35963 0.02168 0.42200
Ag	Ag	0.05035 0.77210 0.92503 0.56600
Ag	Ag	0.72896 0.18158 0.05456 0.45400
Ag	Ag	0.70067 0.89030 0.80674 0.55600
Ag	Ag	0.72519 0.00350 0.02173 0.56600
Ag	Ag	0.74276 0.28869 0.65960 0.45200
Ag	Ag	0.71445 0.10924 0.92186 0.27200
C 	C 	0.71480 0.23190 0.97280 -0.46700
C 	C 	0.66080 0.23290 0.96720 0.06800
C 	C 	0.59748 0.23870 0.95983 -0.12900
C 	C 	0.57086 0.31180 0.95126 0.08300
H 	H 	0.59400 0.35600 0.94950 -0.00500
C 	C 	0.50964 0.31890 0.94528 -0.18200
H 	H 	0.49180 0.36790 0.93960 0.15800
C 	C 	0.47504 0.25290 0.94787 0.21600
C 	C 	0.50165 0.17970 0.95644 -0.18400
H 	H 	0.47850 0.13550 0.95820 0.22400
C 	C 	0.56287 0.17260 0.96242 0.09500
H 	H 	0.58070 0.12370 0.96820 0.05400
C 	C 	0.71210 0.18010 0.84600 -0.49300
C 	C 	0.65910 0.16290 0.83720 0.04500
C 	C 	0.59580 0.15400 0.82821 -0.12400
C 	C 	0.56113 0.21874 0.83375 0.09500
H 	H 	0.57900 0.26680 0.84270 -0.00100
C 	C 	0.49978 0.21160 0.82598 -0.19400
H 	H 	0.47660 0.25500 0.82970 0.19000
C 	C 	0.47309 0.13970 0.81266 0.22300
C 	C 	0.50776 0.07500 0.80712 -0.15400
H 	H 	0.48990 0.02690 0.79820 0.14900
C 	C 	0.56912 0.08210 0.81489 0.07500
H 	H 	0.59230 0.03880 0.81120 0.02100
C 	C 	0.71800 0.20150 0.72430 -0.45900
C 	C 	0.66640 0.22090 0.71800 0.07000
C 	C 	0.60405 0.23810 0.71040 -0.09800
C 	C 	0.56346 0.17690 0.70083 0.04300
H 	H 	0.57670 0.12590 0.69820 0.03800
C 	C 	0.50310 0.19210 0.69520 -0.14300
H 	H 	0.47590 0.15120 0.68880 0.12100
C 	C 	0.48333 0.26840 0.69910 0.16900
C 	C 	0.52390 0.32950 0.70870 -0.12600
H 	H 	0.51070 0.38050 0.71130 0.14200
C 	C 	0.58428 0.31430 0.71431 0.05800
H 	H 	0.61140 0.35520 0.72070 0.02500
C 	C 	0.72000 0.19720 0.59710 -0.46600
C 	C 	0.66750 0.32150 0.08810 0.06500
C 	C 	0.60565 0.34000 0.07839 -0.07800
C 	C 	0.56382 0.28155 0.07947 0.01800
H 	H 	0.57600 0.23030 0.08680 0.06300
C 	C 	0.50373 0.29980 0.06958 -0.11800
H 	H 	0.47570 0.26070 0.07030 0.12200
C 	C 	0.48549 0.37650 0.05860 0.13900
C 	C 	0.52733 0.43490 0.05750 -0.11200
H 	H 	0.51510 0.48620 0.05020 0.11500
C 	C 	0.58741 0.41660 0.06741 0.02900
H 	H 	0.61540 0.45570 0.06670 0.05100
C 	C 	0.79980 0.46530 0.90960 0.06600
C 	C 	0.80320 0.55050 0.91090 0.02300
C 	C 	0.75185 0.59360 0.91040 -0.08000
H 	H 	0.71620 0.56790 0.91040 0.06800
C 	C 	0.75379 0.67510 0.91000 0.00300
H 	H 	0.71940 0.70390 0.90970 0.04900
C 	C 	0.80710 0.71340 0.91010 -0.07100
H 	H 	0.80840 0.76790 0.90980 0.06000
C 	C 	0.85851 0.67030 0.91059 0.02200
C 	C 	0.85657 0.58880 0.91100 -0.08400
H 	H 	0.89100 0.56000 0.91130 0.09400
C 	C 	0.91310 0.71030 0.91110 0.10400
C 	C 	0.76500 0.45350 0.71940 0.09700
C 	C 	0.79430 0.51960 0.74464 0.04600
C 	C 	0.76258 0.58540 0.75359 -0.08600
H 	H 	0.72140 0.58550 0.74540 0.10400
C 	C 	0.79248 0.65120 0.77474 0.03900
C 	C 	0.85406 0.65110 0.78693 -0.08400
H 	H 	0.87410 0.69510 0.80110 0.07100
C 	C 	0.88573 0.58530 0.77800 0.04800
H 	H 	0.92690 0.58520 0.78610 0.05200
C 	C 	0.85580 0.51950 0.75682 -0.06600
H 	H 	0.87700 0.47550 0.75080 0.12400
C 	C 	0.76110 0.72060 0.78230 0.09600
C 	C 	0.76600 0.81810 0.02270 0.12700
C 	C 	0.79137 0.74410 0.03734 0.03400
C 	C 	0.75574 0.68010 0.04260 -0.07900
H 	H 	0.71470 0.68520 0.03560 0.10200
C 	C 	0.78149 0.60870 0.05840 0.02200
C 	C 	0.84290 0.60130 0.06900 -0.06500
H 	H 	0.86010 0.55350 0.07960 0.04300
C 	C 	0.87850 0.66520 0.06370 0.01500
H 	H 	0.91960 0.66010 0.07070 0.12200
C 	C 	0.85275 0.73660 0.04790 -0.06200
H 	H 	0.87660 0.77930 0.04430 0.15400
C 	C 	0.74580 0.54530 0.06740 0.04100
C 	C 	0.84530 0.09830 0.08380 0.11500
C 	C 	0.89380 0.04010 0.10720 0.81300
C 	C 	0.87490 0.30680 0.81810 0.10800
C 	C 	0.93200 0.34460 0.84690 0.84100
C 	C 	0.63680 0.98750 0.70250 0.06000
C 	C 	0.59390 0.92110 0.68490 1.00000
C 	C 	0.92050 0.18450 0.94490 0.16800
C 	C 	0.98850 0.17460 0.95830 0.87200
C 	C 	0.65060 0.96520 0.91020 0.33200
F 	F 	0.88040 0.96710 0.09264 -0.43600
F 	F 	0.94670 0.05550 0.09830 -0.47000
F 	F 	0.89820 0.04030 0.15408 -0.48700
F 	F 	0.98089 0.30500 0.84554 -0.45600
F 	F 	0.94000 0.41630 0.83240 -0.49500
F 	F 	0.92880 0.34890 0.89273 -0.47800
F 	F 	0.54890 0.91770 0.70370 -0.54200
F 	F 	0.61870 0.85220 0.69740 -0.50700
F 	F 	0.57720 0.91830 0.64190 -0.56400
F 	F 	0.01370 0.24630 0.96950 -0.45700
F 	F 	0.00480 0.13940 0.99900 -0.47700
F 	F 	0.01200 0.14410 0.92720 -0.45700
N 	N 	0.41140 0.26120 0.94270 -0.02900
N 	N 	0.40900 0.13250 0.80420 -0.01800
N 	N 	0.42080 0.28280 0.69430 -0.01300
N 	N 	0.42330 0.39630 0.04750 -0.01300
N 	N 	0.79420 0.39780 0.90730 -0.20100
N 	N 	0.95710 0.74100 0.91130 -0.15800
N 	N 	0.74440 0.40150 0.69820 -0.19200
N 	N 	0.73850 0.77790 0.78880 -0.16800
N 	N 	0.74820 0.87860 0.01380 -0.16200
N 	N 	0.71760 0.49370 0.07470 -0.17600
O 	O 	0.39200 0.32640 0.94710 -0.06600
O 	O 	0.38090 0.20350 0.93580 -0.01600
O 	O 	0.38150 0.18640 0.81610 -0.01600
O 	O 	0.38710 0.07020 0.78840 -0.07100
O 	O 	0.59380 0.85140 0.80210 -0.11400
O 	O 	0.38660 0.22840 0.68550 -0.11100
O 	O 	0.38780 0.34880 0.05580 -0.11100
O 	O 	0.41060 0.46180 0.02950 -0.12600
O 	O 	0.86150 0.15760 0.06485 -0.36500
O 	O 	0.79420 0.07990 0.08754 -0.29800
O 	O 	0.83070 0.34980 0.81196 -0.27600
O 	O 	0.87880 0.23690 0.80660 -0.28000
O 	O 	0.64770 0.03100 0.67140 -0.23600
O 	O 	0.65410 0.99000 0.74675 -0.28800
O 	O 	0.89790 0.16760 0.90391 -0.25300
O 	O 	0.89800 0.20860 0.97817 -0.30700
O 	O 	0.64980 0.01450 0.94030 -0.36300
O 	O 	0.67360 0.96120 0.87380 -0.39800
O 	O 	0.66740 0.99540 0.07530 -0.14000
O 	O 	0.64470 0.12320 0.07490 0.33600
C 	C 	0.63580 0.05310 0.07900 0.20500
C 	C 	0.57760 0.03280 0.09210 -0.81400
F 	F 	0.53140 0.04610 0.05860 -0.04500
F 	F 	0.57270 0.96220 0.10800 -0.37000
F 	F 	0.56730 0.07940 0.12920 -0.21100
Ag	Ag	0.71720 0.07410 0.89700 0.30200
C 	C 	0.63940 0.08500 0.08660 -0.64900
C 	C 	0.60700 0.01300 0.09500 1.80100
F 	F 	0.63510 0.94890 0.09860 -0.62300
F 	F 	0.56660 0.01330 0.11840 -0.04900
F 	F 	0.56780 0.99720 0.04550 -0.30200
O 	O 	0.65850 0.09150 0.05000 -0.25700
O 	O 	0.64320 0.12730 0.12170 -0.05000
Ag	Ag	0.25781 0.78498 0.60114 0.42600
Ag	Ag	0.19468 0.66102 0.63582 0.41600
Ag	Ag	0.19342 0.71192 0.51491 0.43000
Ag	Ag	0.18929 0.68428 0.76069 0.39300
Ag	Ag	0.18601 0.70117 0.89085 0.35700
Ag	Ag	0.25945 0.78711 0.70571 0.45600
Ag	Ag	0.25955 0.58896 0.83382 0.43000
Ag	Ag	0.28006 0.59129 0.72423 0.42800
Ag	Ag	0.25986 0.85963 0.47832 0.42100
Ag	Ag	0.94965 0.27210 0.57497 0.56600
Ag	Ag	0.27104 0.68158 0.44544 0.45400
Ag	Ag	0.29933 0.39030 0.69326 0.55600
Ag	Ag	0.27481 0.50350 0.47827 0.56900
Ag	Ag	0.25724 0.78869 0.84040 0.45200
Ag	Ag	0.28555 0.60924 0.57814 0.27200
C 	C 	0.28520 0.73190 0.52720 -0.46800
C 	C 	0.33920 0.73290 0.53280 0.06800
C 	C 	0.40252 0.73870 0.54017 -0.12900
C 	C 	0.42914 0.81180 0.54874 0.08300
H 	H 	0.40600 0.85600 0.55050 -0.00500
C 	C 	0.49036 0.81890 0.55472 -0.18300
H 	H 	0.50820 0.86790 0.56040 0.15800
C 	C 	0.52496 0.75290 0.55213 0.21600
C 	C 	0.49835 0.67970 0.54356 -0.18500
H 	H 	0.52150 0.63550 0.54180 0.22400
C 	C 	0.43713 0.67260 0.53758 0.09500
H 	H 	0.41930 0.62370 0.53180 0.05400
C 	C 	0.28790 0.68010 0.65400 -0.49300
C 	C 	0.34090 0.66290 0.66280 0.04500
C 	C 	0.40420 0.65400 0.67179 -0.12400
C 	C 	0.43887 0.71874 0.66625 0.09500
H 	H 	0.42100 0.76680 0.65730 -0.00100
C 	C 	0.50022 0.71160 0.67402 -0.19400
H 	H 	0.52340 0.75500 0.67030 0.19000
C 	C 	0.52691 0.63970 0.68734 0.22300
C 	C 	0.49224 0.57500 0.69288 -0.15300
H 	H 	0.51010 0.52690 0.70180 0.14900
C 	C 	0.43088 0.58210 0.68511 0.07400
H 	H 	0.40770 0.53880 0.68880 0.02100
C 	C 	0.28200 0.70150 0.77570 -0.45900
C 	C 	0.33360 0.72090 0.78200 0.06900
C 	C 	0.39595 0.73810 0.78960 -0.09800
C 	C 	0.43654 0.67690 0.79917 0.04300
H 	H 	0.42330 0.62590 0.80180 0.03800
C 	C 	0.49690 0.69210 0.80480 -0.14300
H 	H 	0.52410 0.65120 0.81120 0.12100
C 	C 	0.51667 0.76840 0.80090 0.16900
C 	C 	0.47610 0.82950 0.79130 -0.12600
H 	H 	0.48930 0.88050 0.78870 0.14200
C 	C 	0.41572 0.81430 0.78569 0.05700
H 	H 	0.38860 0.85520 0.77930 0.02400
C 	C 	0.28000 0.69720 0.90290 -0.46500
C 	C 	0.33250 0.82150 0.41190 0.06500
C 	C 	0.39435 0.84000 0.42161 -0.07800
C 	C 	0.43618 0.78155 0.42053 0.01900
H 	H 	0.42400 0.73030 0.41320 0.06300
C 	C 	0.49627 0.79980 0.43042 -0.11900
H 	H 	0.52430 0.76070 0.42970 0.12300
C 	C 	0.51451 0.87650 0.44140 0.13900
C 	C 	0.47267 0.93490 0.44250 -0.11300
H 	H 	0.48490 0.98620 0.44980 0.11500
C 	C 	0.41259 0.91660 0.43259 0.02900
H 	H 	0.38460 0.95570 0.43330 0.05000
C 	C 	0.20020 0.96530 0.59040 0.06000
C 	C 	0.19680 0.05050 0.58910 0.03000
C 	C 	0.24815 0.09360 0.58960 -0.08400
H 	H 	0.28380 0.06790 0.58960 0.07100
C 	C 	0.24621 0.17510 0.59000 0.00700
H 	H 	0.28060 0.20390 0.59030 0.04800
C 	C 	0.19290 0.21340 0.58990 -0.07400
H 	H 	0.19160 0.26790 0.59020 0.06100
C 	C 	0.14149 0.17030 0.58941 0.02500
C 	C 	0.14343 0.08880 0.58900 -0.08800
H 	H 	0.10900 0.06000 0.58870 0.09700
C 	C 	0.08690 0.21030 0.58890 0.10300
C 	C 	0.23500 0.95350 0.78060 0.09300
C 	C 	0.20570 0.01960 0.75536 0.04500
C 	C 	0.23742 0.08540 0.74641 -0.08300
H 	H 	0.27860 0.08550 0.75460 0.10400
C 	C 	0.20752 0.15120 0.72526 0.03700
C 	C 	0.14594 0.15110 0.71307 -0.07900
H 	H 	0.12590 0.19510 0.69890 0.06900
C 	C 	0.11427 0.08530 0.72200 0.04000
H 	H 	0.07310 0.08520 0.71390 0.05700
C 	C 	0.14420 0.01950 0.74318 -0.05100
H 	H 	0.12300 0.97550 0.74920 0.11600
C 	C 	0.23890 0.22060 0.71770 0.09800
C 	C 	0.23400 0.31810 0.47730 0.12600
C 	C 	0.20863 0.24410 0.46266 0.03300
C 	C 	0.24426 0.18010 0.45740 -0.07800
H 	H 	0.28530 0.18520 0.46440 0.10200
C 	C 	0.21851 0.10870 0.44160 0.02000
C 	C 	0.15710 0.10130 0.43100 -0.06400
H 	H 	0.13990 0.05350 0.42040 0.04300
C 	C 	0.12150 0.16520 0.43630 0.01400
H 	H 	0.08040 0.16010 0.42930 0.12200
C 	C 	0.14725 0.23660 0.45210 -0.06100
H 	H 	0.12340 0.27930 0.45570 0.15300
C 	C 	0.25420 0.04530 0.43260 0.04400
C 	C 	0.15470 0.59830 0.41620 0.11400
C 	C 	0.10620 0.54010 0.39280 0.81800
C 	C 	0.12510 0.80680 0.68190 0.10800
C 	C 	0.06800 0.84460 0.65310 0.84100
C 	C 	0.36320 0.48750 0.79750 0.05900
C 	C 	0.40610 0.42110 0.81510 1.00000
C 	C 	0.07950 0.68450 0.55510 0.16600
C 	C 	0.01150 0.67460 0.54170 0.88000
C 	C 	0.34940 0.46520 0.58980 0.33400
F 	F 	0.11960 0.46710 0.40736 -0.44100
F 	F 	0.05330 0.55550 0.40170 -0.46800
F 	F 	0.10180 0.54030 0.34592 -0.48600
F 	F 	0.01911 0.80500 0.65446 -0.45500
F 	F 	0.06000 0.91630 0.66760 -0.49700
F 	F 	0.07120 0.84890 0.60727 -0.47900
F 	F 	0.45110 0.41770 0.79630 -0.54100
F 	F 	0.38130 0.35220 0.80260 -0.50700
F 	F 	0.42280 0.41830 0.85810 -0.56400
F 	F 	0.98630 0.74630 0.53050 -0.45900
F 	F 	0.99520 0.63940 0.50100 -0.48100
F 	F 	0.98800 0.64410 0.57280 -0.46100
N 	N 	0.58860 0.76120 0.55730 -0.02900
N 	N 	0.59100 0.63250 0.69580 -0.01800
N 	N 	0.57920 0.78280 0.80570 -0.01200
N 	N 	0.57670 0.89630 0.45250 -0.01300
N 	N 	0.20580 0.89780 0.59270 -0.20000
N 	N 	0.04290 0.24100 0.58870 -0.15700
N 	N 	0.25560 0.90150 0.80180 -0.19100
N 	N 	0.26150 0.27790 0.71120 -0.16800
N 	N 	0.25180 0.37860 0.48620 -0.16400
N 	N 	0.28240 0.99370 0.42530 -0.17800
O 	O 	0.60800 0.82640 0.55290 -0.06700
O 	O 	0.61910 0.70350 0.56420 -0.01600
O 	O 	0.61850 0.68640 0.68390 -0.01600
O 	O 	0.61290 0.57020 0.71160 -0.07100
O 	O 	0.40620 0.35140 0.69790 -0.11400
O 	O 	0.61340 0.72840 0.81450 -0.11100
O 	O 	0.61220 0.84880 0.44420 -0.11000
O 	O 	0.58940 0.96180 0.47050 -0.12500
O 	O 	0.13850 0.65760 0.43515 -0.36400
O 	O 	0.20580 0.57990 0.41246 -0.29600
O 	O 	0.16930 0.84980 0.68804 -0.27700
O 	O 	0.12120 0.73690 0.69340 -0.28000
O 	O 	0.35230 0.53100 0.82860 -0.23500
O 	O 	0.34590 0.49000 0.75325 -0.28800
O 	O 	0.10210 0.66760 0.59609 -0.25200
O 	O 	0.10200 0.70860 0.52183 -0.30600
O 	O 	0.35020 0.51450 0.55970 -0.36400
O 	O 	0.32640 0.46120 0.62620 -0.39900
O 	O 	0.33260 0.49540 0.42470 -0.14400
O 	O 	0.35530 0.62320 0.42510 0.33100
C 	C 	0.36420 0.55310 0.42100 0.20600
C 	C 	0.42240 0.53280 0.40790 -0.80000
F 	F 	0.46860 0.54610 0.44140 -0.04600
F 	F 	0.42730 0.46220 0.39200 -0.37200
F 	F 	0.43270 0.57940 0.37080 -0.21200
Ag	Ag	0.28280 0.57410 0.60300 0.30200
C 	C 	0.36060 0.58500 0.41340 -0.64200
C 	C 	0.39300 0.51300 0.40500 1.79100
F 	F 	0.36490 0.44890 0.40140 -0.62200
F 	F 	0.43340 0.51330 0.38160 -0.05100
F 	F 	0.43220 0.49720 0.45450 -0.30500
O 	O 	0.34150 0.59150 0.45000 -0.25500
O 	O 	0.35680 0.62730 0.37830 -0.05000
