data_crystal

_cell_length_a 10.06560
_cell_length_b 11.16250
_cell_length_c 19.20110
_cell_angle_alpha 90.00000
_cell_angle_beta  90.00000
_cell_angle_gamma 90.00000

_symmetry_space_group_name_	'P 1'
_symmetry_space_group_name_H-M	'P 1'

loop_
_symmetry_equiv_pos_as_xyz
  x,y,z

loop_
_atom_site_label
_atom_site_type_symbol
_atom_site_fract_x
_atom_site_fract_y
_atom_site_fract_z
_atom_site_charge
Ni	Ni	0.96321 0.12971 0.52106 1.02700
Ni	Ni	0.75162 0.01502 0.39820 1.13700
Ni	Ni	0.53679 0.87029 0.02106 1.02900
Ni	Ni	0.74838 0.98498 0.89820 1.14000
Ni	Ni	0.03679 0.62971 0.97894 1.02800
Ni	Ni	0.24838 0.51502 0.10180 1.13900
Ni	Ni	0.46321 0.37029 0.47894 1.02900
Ni	Ni	0.25162 0.48498 0.60180 1.13900
H 	H 	0.66380 0.70730 0.52700 0.12800
H 	H 	0.57340 0.77670 0.57850 0.11600
H 	H 	0.79160 0.52860 0.56860 0.11300
H 	H 	0.77720 0.48480 0.64480 0.10500
H 	H 	0.97460 0.79170 0.60080 0.12300
H 	H 	0.91360 0.71550 0.54130 0.12300
H 	H 	0.67410 0.89910 0.67460 0.12700
H 	H 	0.82720 0.90170 0.68380 0.13600
H 	H 	0.62840 0.59540 0.72770 0.12900
H 	H 	0.54890 0.70590 0.70210 0.12900
H 	H 	0.94830 0.72340 0.72580 0.12400
H 	H 	0.87240 0.60570 0.74200 0.11500
H 	H 	0.75050 0.20170 0.48400 0.25900
H 	H 	0.82860 0.21500 0.42290 0.40400
H 	H 	0.83620 0.29270 0.02700 0.12700
H 	H 	0.92660 0.22330 0.07850 0.11500
H 	H 	0.70840 0.47140 0.06860 0.11300
H 	H 	0.72280 0.51520 0.14480 0.10500
H 	H 	0.52540 0.20830 0.10080 0.12200
H 	H 	0.58640 0.28450 0.04130 0.12200
H 	H 	0.82590 0.10090 0.17460 0.12500
H 	H 	0.67280 0.09830 0.18380 0.13400
H 	H 	0.87160 0.40460 0.22770 0.12900
H 	H 	0.95110 0.29410 0.20210 0.12800
H 	H 	0.55170 0.27660 0.22580 0.12300
H 	H 	0.62760 0.39430 0.24200 0.11400
H 	H 	0.74950 0.79830 0.98400 0.26000
H 	H 	0.67140 0.78500 0.92290 0.40400
H 	H 	0.33620 0.20730 0.97300 0.12800
H 	H 	0.42660 0.27670 0.92150 0.11600
H 	H 	0.20840 0.02860 0.93140 0.11100
H 	H 	0.22280 0.98480 0.85520 0.09900
H 	H 	0.02540 0.29170 0.89920 0.12200
H 	H 	0.08640 0.21550 0.95870 0.12300
H 	H 	0.32590 0.39910 0.82540 0.12600
H 	H 	0.17280 0.40170 0.81620 0.13400
H 	H 	0.37160 0.09540 0.77230 0.12900
H 	H 	0.45110 0.20590 0.79790 0.12800
H 	H 	0.05170 0.22340 0.77420 0.12300
H 	H 	0.12760 0.10570 0.75800 0.11500
H 	H 	0.24950 0.70170 0.01600 0.26000
H 	H 	0.17140 0.71500 0.07710 0.40400
H 	H 	0.16380 0.79270 0.47300 0.12800
H 	H 	0.07340 0.72330 0.42150 0.11700
H 	H 	0.29160 0.97140 0.43140 0.11400
H 	H 	0.27720 0.01520 0.35520 0.10900
H 	H 	0.47460 0.70830 0.39920 0.12200
H 	H 	0.41360 0.78450 0.45870 0.12300
H 	H 	0.17410 0.60090 0.32540 0.12700
H 	H 	0.32720 0.59830 0.31620 0.13500
H 	H 	0.12840 0.90460 0.27230 0.13000
H 	H 	0.04890 0.79410 0.29790 0.13000
H 	H 	0.44830 0.77660 0.27420 0.12300
H 	H 	0.37240 0.89430 0.25800 0.11400
H 	H 	0.25050 0.29830 0.51600 0.26000
H 	H 	0.32860 0.28500 0.57710 0.40400
C 	C 	0.78670 0.92060 0.54390 0.29100
C 	C 	0.77110 0.81300 0.59400 0.12200
C 	C 	0.65370 0.73270 0.57390 -0.28100
C 	C 	0.64840 0.62170 0.62190 0.11200
C 	C 	0.78020 0.55320 0.61550 -0.27700
C 	C 	0.89800 0.63160 0.63680 0.13600
C 	C 	0.90220 0.74170 0.58800 -0.29200
C 	C 	0.75350 0.85370 0.67050 -0.29500
C 	C 	0.74530 0.74470 0.71840 0.13500
C 	C 	0.63010 0.66330 0.69790 -0.29200
C 	C 	0.87630 0.67360 0.71220 -0.29300
C 	C 	0.53240 0.54360 0.59670 0.30700
C 	C 	0.03130 0.57010 0.62740 0.21700
C 	C 	0.73210 0.78760 0.79430 0.25700
C 	C 	0.71330 0.07940 0.04390 0.28100
C 	C 	0.72890 0.18700 0.09400 0.12300
C 	C 	0.84630 0.26730 0.07390 -0.28100
C 	C 	0.85160 0.37830 0.12190 0.11200
C 	C 	0.71980 0.44680 0.11550 -0.27700
C 	C 	0.60200 0.36840 0.13680 0.13500
C 	C 	0.59780 0.25830 0.08800 -0.29200
C 	C 	0.74650 0.14630 0.17050 -0.29400
C 	C 	0.75470 0.25530 0.21840 0.13400
C 	C 	0.86990 0.33670 0.19790 -0.29200
C 	C 	0.62370 0.32640 0.21220 -0.29100
C 	C 	0.96760 0.45640 0.09670 0.30400
C 	C 	0.46870 0.42990 0.12740 0.21900
C 	C 	0.76790 0.21240 0.29430 0.25700
C 	C 	0.21330 0.42060 0.95610 0.28600
C 	C 	0.22890 0.31300 0.90600 0.12200
C 	C 	0.34630 0.23270 0.92610 -0.28000
C 	C 	0.35160 0.12170 0.87810 0.10900
C 	C 	0.21980 0.05320 0.88450 -0.26800
C 	C 	0.10200 0.13160 0.86320 0.13600
C 	C 	0.09780 0.24170 0.91200 -0.29200
C 	C 	0.24650 0.35370 0.82950 -0.29400
C 	C 	0.25470 0.24470 0.78160 0.13400
C 	C 	0.36990 0.16330 0.80210 -0.29000
C 	C 	0.12370 0.17360 0.78780 -0.29200
C 	C 	0.46760 0.04360 0.90330 0.31000
C 	C 	0.96870 0.07010 0.87260 0.21300
C 	C 	0.26790 0.28760 0.70570 0.25700
C 	C 	0.28670 0.57940 0.45610 0.28700
C 	C 	0.27110 0.68700 0.40600 0.12400
C 	C 	0.15370 0.76730 0.42610 -0.28400
C 	C 	0.14840 0.87830 0.37810 0.11700
C 	C 	0.28020 0.94680 0.38450 -0.28400
C 	C 	0.39800 0.86840 0.36320 0.13700
C 	C 	0.40220 0.75830 0.41200 -0.29300
C 	C 	0.25350 0.64630 0.32950 -0.29600
C 	C 	0.24530 0.75530 0.28160 0.13600
C 	C 	0.13010 0.83670 0.30210 -0.29500
C 	C 	0.37630 0.82640 0.28780 -0.29400
C 	C 	0.03240 0.95640 0.40330 0.29600
C 	C 	0.53130 0.92990 0.37260 0.21900
C 	C 	0.23210 0.71240 0.20570 0.25700
O 	O 	0.83530 0.01560 0.56967 -0.44400
O 	O 	0.75680 0.90390 0.48158 -0.40200
O 	O 	0.43050 0.53790 0.63247 -0.41700
O 	O 	0.54980 0.49480 0.53791 -0.46500
O 	O 	0.04200 0.47580 0.59120 -0.37900
O 	O 	0.13470 0.61710 0.65279 -0.34100
O 	O 	0.68720 0.71240 0.83919 -0.33300
O 	O 	0.76690 0.88940 0.80863 -0.39100
O 	O 	0.80660 0.16880 0.45279 -0.97200
O 	O 	0.66470 0.98440 0.06967 -0.43700
O 	O 	0.74320 0.09610 0.98158 -0.40000
O 	O 	0.06950 0.46210 0.13247 -0.41400
O 	O 	0.95020 0.50520 0.03791 -0.46500
O 	O 	0.45800 0.52420 0.09120 -0.37900
O 	O 	0.36530 0.38290 0.15279 -0.34000
O 	O 	0.81280 0.28760 0.33919 -0.33400
O 	O 	0.73310 0.11060 0.30863 -0.39200
O 	O 	0.69340 0.83120 0.95279 -0.97200
O 	O 	0.16470 0.51560 0.93033 -0.44100
O 	O 	0.24320 0.40390 0.01842 -0.40100
O 	O 	0.56950 0.03790 0.86753 -0.41800
O 	O 	0.45020 0.99480 0.96209 -0.46800
O 	O 	0.95800 0.97580 0.90880 -0.37400
O 	O 	0.86530 0.11710 0.84721 -0.33900
O 	O 	0.31280 0.21240 0.66081 -0.33300
O 	O 	0.23310 0.38940 0.69137 -0.39100
O 	O 	0.19340 0.66880 0.04721 -0.97100
O 	O 	0.33530 0.48440 0.43033 -0.44000
O 	O 	0.25680 0.59610 0.51842 -0.40200
O 	O 	0.93050 0.96210 0.36753 -0.41000
O 	O 	0.04980 0.00520 0.46209 -0.45800
O 	O 	0.54200 0.02420 0.40880 -0.38000
O 	O 	0.63470 0.88290 0.34721 -0.33900
O 	O 	0.18720 0.78760 0.16081 -0.33300
O 	O 	0.26690 0.61060 0.19137 -0.39100
O 	O 	0.30660 0.33120 0.54721 -0.97100
