data_crystal

_cell_length_a 20.84840
_cell_length_b 21.71000
_cell_length_c 15.48560
_cell_angle_alpha 90.00000
_cell_angle_beta  90.00000
_cell_angle_gamma 90.00000

_symmetry_space_group_name_	'P 1'
_symmetry_space_group_name_H-M	'P 1'

loop_
_symmetry_equiv_pos_as_xyz
  x,y,z

loop_
_atom_site_label
_atom_site_type_symbol
_atom_site_fract_x
_atom_site_fract_y
_atom_site_fract_z
_atom_site_charge
Fe	Fe	0.94677 0.67117 0.98153 1.03800
O 	O 	0.87780 0.72380 0.02060 -0.22900
O 	O 	0.92650 0.58880 0.94300 0.82600
O 	O 	0.71630 0.75540 0.31060 -0.04200
O 	O 	0.80620 0.47280 0.67260 -0.85000
N 	N 	0.94800 0.63940 0.10890 -0.16800
N 	N 	0.04670 0.63780 0.99670 -0.23700
H 	H 	0.04970 0.60330 0.96360 0.10700
N 	N 	0.00810 0.75520 0.96500 -0.32200
H 	H 	0.99150 0.78600 0.99810 0.25300
N 	N 	0.92010 0.69650 0.85670 0.09200
C 	C 	0.84640 0.73250 0.09290 0.23100
C 	C 	0.79850 0.77700 0.09090 -0.28200
H 	H 	0.79400 0.80230 0.04280 0.21700
C 	C 	0.75730 0.78370 0.16090 -0.03200
H 	H 	0.72530 0.81350 0.15960 0.08100
C 	C 	0.76410 0.74600 0.23280 -0.31400
C 	C 	0.81200 0.70150 0.23480 0.55500
H 	H 	0.81650 0.67620 0.28290 -0.14900
C 	C 	0.85320 0.69470 0.16480 0.31800
C 	C 	0.90610 0.65330 0.17240 -0.09600
H 	H 	0.91220 0.63440 0.22560 0.07400
C 	C 	0.99680 0.59160 0.12370 0.28900
H 	H 	0.98530 0.55370 0.09450 -0.01600
H 	H 	0.00150 0.58330 0.18490 0.04200
C 	C 	0.05820 0.61770 0.08700 -0.04200
H 	H 	0.07230 0.65240 0.12160 0.17000
H 	H 	0.09160 0.58650 0.08830 0.20300
C 	C 	0.09480 0.68140 0.96210 0.15600
H 	H 	0.09580 0.67970 0.89950 0.00900
H 	H 	0.13720 0.67170 0.98400 -0.10100
C 	C 	0.07370 0.74400 0.99250 -0.16400
H 	H 	0.07640 0.74610 0.05490 0.14000
H 	H 	0.10170 0.77530 0.96860 0.08600
C 	C 	0.00040 0.77350 0.86800 -0.34600
H 	H 	0.01020 0.81680 0.86050 -0.02100
H 	H 	0.03000 0.74980 0.83280 -0.48500
C 	C 	0.93510 0.76130 0.84090 0.00200
H 	H 	0.93040 0.77060 0.78000 0.05600
H 	H 	0.90580 0.78740 0.87300 0.06800
C 	C 	0.89210 0.66520 0.79740 -0.04800
H 	H 	0.88060 0.68520 0.74660 0.03100
C 	C 	0.87740 0.59990 0.80550 0.25800
C 	C 	0.84700 0.57150 0.73630 -0.56800
H 	H 	0.83190 0.59510 0.69040 0.16100
C 	C 	0.83900 0.50790 0.73560 0.16400
C 	C 	0.86150 0.47270 0.80420 -1.28400
H 	H 	0.85610 0.43020 0.80370 -0.33800
C 	C 	0.89190 0.50110 0.87340 0.13200
H 	H 	0.90700 0.47750 0.91930 0.03300
C 	C 	0.89990 0.56460 0.87410 1.46800
C 	C 	0.74980 0.74980 0.38440 -0.39400
H 	H 	0.72160 0.75550 0.43280 0.18700
H 	H 	0.78300 0.78040 0.38590 0.17600
H 	H 	0.76870 0.70950 0.38720 0.18600
C 	C 	0.77370 0.50470 0.61390 3.43200
H 	H 	0.75350 0.47680 0.57420 -1.61900
H 	H 	0.80260 0.53120 0.58310 -0.83300
H 	H 	0.74150 0.52910 0.64210 -0.94400
C 	C 	0.86840 0.74810 0.08490 -0.15600
C 	C 	0.82460 0.74030 0.15170 0.23800
C 	C 	0.77880 0.78530 0.16790 -0.23200
C 	C 	0.77670 0.83810 0.11740 0.44600
C 	C 	0.82050 0.84600 0.05060 -0.52900
C 	C 	0.86630 0.80100 0.03430 0.24100
C 	C 	0.91730 0.81090 0.98220 -0.10100
C 	C 	0.01770 0.78610 0.91190 0.45300
C 	C 	0.04990 0.74170 0.86100 0.57900
C 	C 	0.10540 0.67160 0.98570 0.12500
C 	C 	0.10540 0.70900 0.05770 -0.32600
C 	C 	0.02700 0.65300 0.15400 -0.39700
C 	C 	0.02670 0.59790 0.11550 0.02200
C 	C 	0.94980 0.55390 -0.00000 0.45200
C 	C 	0.90940 0.56010 0.92760 -2.12800
C 	C 	0.89060 0.50530 0.88870 -0.17900
C 	C 	0.85620 0.50650 0.81180 0.92300
C 	C 	0.84050 0.56260 0.77390 -0.15600
C 	C 	0.85920 0.61740 0.81290 -0.47200
C 	C 	0.89370 0.61610 0.88970 -0.21400
C 	C 	0.73450 0.93880 0.08700 3.51900
C 	C 	0.85950 0.39680 0.79820 1.62400
Fe	Fe	0.97300 0.68850 0.00450 0.58800
H 	H 	0.82600 0.70490 0.18550 -0.49000
H 	H 	0.74950 0.78000 0.21260 0.29200
H 	H 	0.81910 0.88140 0.01680 0.24400
H 	H 	0.91750 0.84800 0.95210 0.08400
H 	H 	0.05060 0.80650 0.94580 -0.11100
H 	H 	0.00130 0.81660 0.87190 0.07500
H 	H 	0.09350 0.75430 0.84790 -0.13300
H 	H 	0.02710 0.73340 0.80770 0.28800
H 	H 	0.10390 0.62890 0.00420 0.01500
H 	H 	0.14520 0.67760 0.95440 0.06500
H 	H 	0.04350 0.64970 0.89080 0.10900
H 	H 	0.11420 0.75150 0.04220 0.08400
H 	H 	0.13710 0.69540 0.09940 0.15500
H 	H 	0.06090 0.65430 0.19730 0.15800
H 	H 	0.98660 0.65980 0.18350 0.18200
H 	H 	0.01280 0.56640 0.15570 -0.09200
H 	H 	0.06920 0.58750 0.09490 -0.11800
H 	H 	0.95670 0.51460 0.02210 -0.07900
H 	H 	0.90120 0.46780 0.91400 0.15600
H 	H 	0.81740 0.56340 0.72250 0.33100
H 	H 	0.84870 0.65490 0.78760 0.24200
H 	H 	0.02720 0.73790 0.12080 0.07600
H 	H 	0.69870 0.96610 0.09440 -1.42000
H 	H 	0.74330 0.93440 0.02610 -0.72400
H 	H 	0.77150 0.95540 0.11520 -0.78000
H 	H 	0.84180 0.36570 0.76110 -0.45400
H 	H 	0.84590 0.38950 0.85650 -0.37700
H 	H 	0.90550 0.39530 0.79530 -0.37800
N 	N 	0.96820 0.77310 0.96850 -0.24100
N 	N 	0.04860 0.68390 0.92410 -0.33000
N 	N 	0.03730 0.70200 0.09370 -0.16600
N 	N 	0.97940 0.60290 0.03950 -0.37700
O 	O 	0.90740 0.70150 0.08810 -0.29900
O 	O 	0.91460 0.67410 0.91950 -0.70100
O 	O 	0.71940 0.88000 0.12240 -0.89600
O 	O 	0.83520 0.46280 0.76760 0.41900
Fe	Fe	0.55323 0.17117 0.48153 0.98300
O 	O 	0.62220 0.22380 0.52060 -0.21100
O 	O 	0.57350 0.08880 0.44300 0.75300
O 	O 	0.78370 0.25540 0.81060 -0.03400
O 	O 	0.69380 0.97280 0.17260 -0.88800
N 	N 	0.55200 0.13940 0.60890 -0.16800
N 	N 	0.45330 0.13780 0.49670 -0.25500
H 	H 	0.45030 0.10330 0.46360 0.10100
N 	N 	0.49190 0.25520 0.46500 -0.31000
H 	H 	0.50850 0.28600 0.49810 0.23900
N 	N 	0.57990 0.19650 0.35670 0.09200
C 	C 	0.65360 0.23250 0.59290 0.19600
C 	C 	0.70150 0.27700 0.59090 -0.28100
H 	H 	0.70600 0.30230 0.54280 0.22300
C 	C 	0.74270 0.28370 0.66090 -0.03800
H 	H 	0.77470 0.31350 0.65960 0.08000
C 	C 	0.73590 0.24600 0.73280 -0.29600
C 	C 	0.68800 0.20150 0.73480 0.51400
H 	H 	0.68350 0.17620 0.78290 -0.13200
C 	C 	0.64680 0.19470 0.66480 0.30500
C 	C 	0.59390 0.15330 0.67240 -0.08600
H 	H 	0.58780 0.13440 0.72560 0.07200
C 	C 	0.50320 0.09160 0.62370 0.29400
H 	H 	0.51470 0.05370 0.59450 -0.01800
H 	H 	0.49850 0.08330 0.68490 0.04300
C 	C 	0.44180 0.11770 0.58700 -0.07800
H 	H 	0.42770 0.15240 0.62160 0.18300
H 	H 	0.40840 0.08650 0.58830 0.19500
C 	C 	0.40520 0.18140 0.46210 0.14300
H 	H 	0.40420 0.17970 0.39950 0.00800
H 	H 	0.36280 0.17170 0.48400 -0.16000
C 	C 	0.42630 0.24400 0.49250 -0.21900
H 	H 	0.42360 0.24610 0.55490 0.15600
H 	H 	0.39830 0.27530 0.46860 0.09400
C 	C 	0.49960 0.27350 0.36800 -0.30400
H 	H 	0.48980 0.31680 0.36050 -0.01900
H 	H 	0.47000 0.24980 0.33280 -0.45500
C 	C 	0.56490 0.26130 0.34090 -0.02700
H 	H 	0.56960 0.27060 0.28000 0.06200
H 	H 	0.59420 0.28740 0.37300 0.07500
C 	C 	0.60790 0.16520 0.29740 -0.05000
H 	H 	0.61940 0.18520 0.24660 0.03100
C 	C 	0.62260 0.09990 0.30550 0.23900
C 	C 	0.65300 0.07150 0.23630 -0.58200
H 	H 	0.66810 0.09510 0.19040 0.16300
C 	C 	0.66100 0.00790 0.23560 0.15300
C 	C 	0.63850 0.97270 0.30420 -1.30800
H 	H 	0.64390 0.93020 0.30370 -0.33700
C 	C 	0.60810 0.00110 0.37340 0.11400
H 	H 	0.59300 0.97750 0.41930 0.03600
C 	C 	0.60010 0.06460 0.37410 1.43200
C 	C 	0.75020 0.24980 0.88440 -0.42700
H 	H 	0.77840 0.25550 0.93280 0.20800
H 	H 	0.71700 0.28040 0.88590 0.19200
H 	H 	0.73130 0.20950 0.88720 0.20200
C 	C 	0.72630 0.00470 0.11390 3.69400
H 	H 	0.74650 0.97680 0.07420 -1.74800
H 	H 	0.69740 0.03120 0.08310 -0.90900
H 	H 	0.75850 0.02910 0.14210 -1.02600
C 	C 	0.63160 0.24810 0.58490 -0.13500
C 	C 	0.67540 0.24030 0.65170 0.24600
C 	C 	0.72120 0.28530 0.66790 -0.22500
C 	C 	0.72330 0.33810 0.61740 0.44100
C 	C 	0.67950 0.34600 0.55060 -0.54600
C 	C 	0.63370 0.30100 0.53430 0.28200
C 	C 	0.58270 0.31090 0.48220 -0.15900
C 	C 	0.48230 0.28610 0.41190 0.42200
C 	C 	0.45010 0.24170 0.36100 0.52900
C 	C 	0.39460 0.17160 0.48570 0.13300
C 	C 	0.39460 0.20900 0.55770 -0.28800
C 	C 	0.47300 0.15300 0.65400 -0.39900
C 	C 	0.47330 0.09790 0.61550 0.03300
C 	C 	0.55020 0.05390 0.50000 0.51200
C 	C 	0.59060 0.06010 0.42760 -2.07600
C 	C 	0.60940 0.00530 0.38870 -0.17500
C 	C 	0.64380 0.00650 0.31180 0.94000
C 	C 	0.65950 0.06260 0.27390 -0.14200
C 	C 	0.64080 0.11740 0.31290 -0.45500
C 	C 	0.60630 0.11610 0.38970 -0.18800
C 	C 	0.76550 0.43880 0.58700 3.23000
C 	C 	0.64050 0.89680 0.29820 1.62800
Fe	Fe	0.52700 0.18850 0.50450 0.64600
H 	H 	0.67400 0.20490 0.68550 -0.46200
H 	H 	0.75050 0.28000 0.71260 0.28400
H 	H 	0.68090 0.38140 0.51680 0.25800
H 	H 	0.58250 0.34800 0.45210 0.09600
H 	H 	0.44940 0.30650 0.44580 -0.10100
H 	H 	0.49870 0.31660 0.37190 0.06900
H 	H 	0.40650 0.25430 0.34790 -0.12100
H 	H 	0.47290 0.23340 0.30770 0.27600
H 	H 	0.39610 0.12890 0.50420 0.04600
H 	H 	0.35480 0.17760 0.45440 0.10500
H 	H 	0.45650 0.14970 0.39080 0.10700
H 	H 	0.38580 0.25150 0.54220 0.08700
H 	H 	0.36290 0.19540 0.59940 0.14700
H 	H 	0.43910 0.15430 0.69730 0.15900
H 	H 	0.51340 0.15980 0.68350 0.18200
H 	H 	0.48720 0.06640 0.65570 -0.09900
H 	H 	0.43080 0.08750 0.59490 -0.08900
H 	H 	0.54330 0.01460 0.52210 -0.09100
H 	H 	0.59880 0.96780 0.41400 0.15000
H 	H 	0.68260 0.06340 0.22250 0.33200
H 	H 	0.65130 0.15490 0.28760 0.23400
H 	H 	0.47280 0.23790 0.62080 0.07900
H 	H 	0.80130 0.46610 0.59440 -1.30000
H 	H 	0.75670 0.43440 0.52610 -0.65100
H 	H 	0.72850 0.45540 0.61520 -0.70900
H 	H 	0.65820 0.86570 0.26110 -0.45500
H 	H 	0.65410 0.88950 0.35650 -0.38300
H 	H 	0.59450 0.89530 0.29530 -0.37900
N 	N 	0.53180 0.27310 0.46850 -0.23800
N 	N 	0.45140 0.18390 0.42410 -0.32100
N 	N 	0.46270 0.20200 0.59370 -0.16900
N 	N 	0.52060 0.10290 0.53950 -0.37100
O 	O 	0.59260 0.20150 0.58810 -0.29400
O 	O 	0.58540 0.17410 0.41950 -0.69900
O 	O 	0.78060 0.38000 0.62240 -0.83900
O 	O 	0.66480 0.96280 0.26760 0.44300
Fe	Fe	0.05323 0.32883 0.48153 0.98300
O 	O 	0.12220 0.27620 0.52060 -0.21100
O 	O 	0.07350 0.41120 0.44300 0.75100
O 	O 	0.28370 0.24460 0.81060 -0.03500
O 	O 	0.19380 0.52720 0.17260 -0.80100
N 	N 	0.05200 0.36060 0.60890 -0.16800
N 	N 	0.95330 0.36220 0.49670 -0.25500
H 	H 	0.95030 0.39670 0.46360 0.10100
N 	N 	0.99190 0.24480 0.46500 -0.30800
H 	H 	0.00850 0.21400 0.49810 0.24100
N 	N 	0.07990 0.30350 0.35670 0.09400
C 	C 	0.15360 0.26750 0.59290 0.19500
C 	C 	0.20150 0.22300 0.59090 -0.28200
H 	H 	0.20600 0.19770 0.54280 0.22300
C 	C 	0.24270 0.21630 0.66090 -0.03900
H 	H 	0.27470 0.18650 0.65960 0.08200
C 	C 	0.23590 0.25400 0.73280 -0.29500
C 	C 	0.18800 0.29850 0.73480 0.51200
H 	H 	0.18350 0.32380 0.78290 -0.13200
C 	C 	0.14680 0.30530 0.66480 0.30300
C 	C 	0.09390 0.34670 0.67240 -0.08500
H 	H 	0.08780 0.36560 0.72560 0.07100
C 	C 	0.00320 0.40840 0.62370 0.29000
H 	H 	0.01470 0.44630 0.59450 -0.01700
H 	H 	0.99850 0.41670 0.68490 0.04300
C 	C 	0.94180 0.38230 0.58700 -0.07300
H 	H 	0.92770 0.34760 0.62160 0.18000
H 	H 	0.90840 0.41350 0.58830 0.19300
C 	C 	0.90520 0.31860 0.46210 0.14100
H 	H 	0.90420 0.32030 0.39950 0.01000
H 	H 	0.86280 0.32830 0.48400 -0.15800
C 	C 	0.92630 0.25600 0.49250 -0.21600
H 	H 	0.92360 0.25390 0.55490 0.15500
H 	H 	0.89830 0.22470 0.46860 0.09300
C 	C 	0.99960 0.22650 0.36800 -0.28900
H 	H 	0.98980 0.18320 0.36050 -0.01800
H 	H 	0.97000 0.25020 0.33280 -0.44500
C 	C 	0.06490 0.23870 0.34090 -0.03400
H 	H 	0.06960 0.22940 0.28000 0.06500
H 	H 	0.09420 0.21260 0.37300 0.07700
C 	C 	0.10790 0.33480 0.29740 -0.04900
H 	H 	0.11940 0.31480 0.24660 0.03100
C 	C 	0.12260 0.40010 0.30550 0.23800
C 	C 	0.15300 0.42850 0.23630 -0.57100
H 	H 	0.16810 0.40490 0.19040 0.15700
C 	C 	0.16100 0.49210 0.23560 0.14500
C 	C 	0.13850 0.52730 0.30420 -1.27100
H 	H 	0.14390 0.56980 0.30370 -0.33400
C 	C 	0.10810 0.49890 0.37340 0.11700
H 	H 	0.09300 0.52250 0.41930 0.03300
C 	C 	0.10010 0.43540 0.37410 1.43300
C 	C 	0.25020 0.25020 0.88440 -0.42000
H 	H 	0.27840 0.24450 0.93280 0.20400
H 	H 	0.21700 0.21960 0.88590 0.18900
H 	H 	0.23130 0.29050 0.88720 0.19800
C 	C 	0.22630 0.49530 0.11390 3.16600
H 	H 	0.24650 0.52320 0.07420 -1.49900
H 	H 	0.19740 0.46880 0.08310 -0.77200
H 	H 	0.25850 0.47090 0.14210 -0.87200
C 	C 	0.13160 0.25190 0.58490 -0.13400
C 	C 	0.17540 0.25970 0.65170 0.24800
C 	C 	0.22120 0.21470 0.66790 -0.22700
C 	C 	0.22330 0.16190 0.61740 0.44700
C 	C 	0.17950 0.15400 0.55060 -0.55000
C 	C 	0.13370 0.19900 0.53430 0.28400
C 	C 	0.08270 0.18910 0.48220 -0.16000
C 	C 	0.98230 0.21390 0.41190 0.40600
C 	C 	0.95010 0.25830 0.36100 0.51300
C 	C 	0.89460 0.32840 0.48570 0.13200
C 	C 	0.89460 0.29100 0.55770 -0.28700
C 	C 	0.97300 0.34700 0.65400 -0.39500
C 	C 	0.97330 0.40210 0.61550 0.03100
C 	C 	0.05020 0.44610 0.50000 0.51300
C 	C 	0.09060 0.43990 0.42760 -2.07300
C 	C 	0.10940 0.49470 0.38870 -0.17800
C 	C 	0.14380 0.49350 0.31180 0.92600
C 	C 	0.15950 0.43740 0.27390 -0.14400
C 	C 	0.14080 0.38260 0.31290 -0.45700
C 	C 	0.10630 0.38390 0.38970 -0.18800
C 	C 	0.26550 0.06120 0.58700 3.32000
C 	C 	0.14050 0.60320 0.29820 1.61000
Fe	Fe	0.02700 0.31150 0.50450 0.64600
H 	H 	0.17400 0.29510 0.68550 -0.46100
H 	H 	0.25050 0.22000 0.71260 0.28500
H 	H 	0.18090 0.11860 0.51680 0.26000
H 	H 	0.08250 0.15200 0.45210 0.09700
H 	H 	0.94940 0.19350 0.44580 -0.09600
H 	H 	0.99870 0.18340 0.37190 0.06700
H 	H 	0.90650 0.24570 0.34790 -0.11600
H 	H 	0.97290 0.26660 0.30770 0.27100
H 	H 	0.89610 0.37110 0.50420 0.04600
H 	H 	0.85480 0.32240 0.45440 0.10400
H 	H 	0.95650 0.35030 0.39080 0.10700
H 	H 	0.88580 0.24850 0.54220 0.08700
H 	H 	0.86290 0.30460 0.59940 0.14600
H 	H 	0.93910 0.34570 0.69730 0.15800
H 	H 	0.01340 0.34020 0.68350 0.18100
H 	H 	0.98720 0.43360 0.65570 -0.09700
H 	H 	0.93080 0.41250 0.59490 -0.08900
H 	H 	0.04330 0.48540 0.52210 -0.09100
H 	H 	0.09880 0.53220 0.41400 0.14800
H 	H 	0.18260 0.43660 0.22250 0.33000
H 	H 	0.15130 0.34510 0.28760 0.23400
H 	H 	0.97280 0.26210 0.62080 0.07900
H 	H 	0.30130 0.03390 0.59440 -1.33900
H 	H 	0.25670 0.06560 0.52610 -0.67100
H 	H 	0.22850 0.04460 0.61520 -0.73000
H 	H 	0.15820 0.63430 0.26110 -0.45200
H 	H 	0.15410 0.61050 0.35650 -0.37900
H 	H 	0.09450 0.60470 0.29530 -0.37600
N 	N 	0.03180 0.22690 0.46850 -0.23600
N 	N 	0.95140 0.31610 0.42410 -0.31900
N 	N 	0.96270 0.29800 0.59370 -0.16900
N 	N 	0.02060 0.39710 0.53950 -0.37000
O 	O 	0.09260 0.29850 0.58810 -0.29400
O 	O 	0.08540 0.32590 0.41950 -0.69900
O 	O 	0.28060 0.12000 0.62240 -0.85600
O 	O 	0.16480 0.53720 0.26760 0.40700
Fe	Fe	0.44677 0.82883 0.98153 1.02900
O 	O 	0.37780 0.77620 0.02060 -0.22500
O 	O 	0.42650 0.91120 0.94300 0.80900
O 	O 	0.21630 0.74460 0.31060 -0.04200
O 	O 	0.30620 0.02720 0.67260 -0.86200
N 	N 	0.44800 0.86060 0.10890 -0.16800
N 	N 	0.54670 0.86220 0.99670 -0.23500
H 	H 	0.54970 0.89670 0.96360 0.10700
N 	N 	0.50810 0.74480 0.96500 -0.32600
H 	H 	0.49150 0.71400 0.99810 0.25000
N 	N 	0.42010 0.80350 0.85670 0.08900
C 	C 	0.34640 0.76750 0.09290 0.23300
C 	C 	0.29850 0.72300 0.09090 -0.27400
H 	H 	0.29400 0.69770 0.04280 0.21300
C 	C 	0.25730 0.71630 0.16090 -0.02700
H 	H 	0.22530 0.68650 0.15960 0.07300
C 	C 	0.26410 0.75400 0.23280 -0.31500
C 	C 	0.31200 0.79850 0.23480 0.56000
H 	H 	0.31650 0.82380 0.28290 -0.15100
C 	C 	0.35320 0.80530 0.16480 0.32900
C 	C 	0.40610 0.84670 0.17240 -0.10100
H 	H 	0.41220 0.86560 0.22560 0.07500
C 	C 	0.49680 0.90840 0.12370 0.30400
H 	H 	0.48530 0.94630 0.09450 -0.01800
H 	H 	0.50150 0.91670 0.18490 0.04100
C 	C 	0.55820 0.88230 0.08700 -0.06300
H 	H 	0.57230 0.84760 0.12160 0.18000
H 	H 	0.59160 0.91350 0.08830 0.21300
C 	C 	0.59480 0.81860 0.96210 0.15800
H 	H 	0.59580 0.82030 0.89950 0.00700
H 	H 	0.63720 0.82830 0.98400 -0.10100
C 	C 	0.57370 0.75600 0.99250 -0.16200
H 	H 	0.57640 0.75390 0.05490 0.13900
H 	H 	0.60170 0.72470 0.96860 0.08700
C 	C 	0.50040 0.72650 0.86800 -0.38100
H 	H 	0.51020 0.68320 0.86050 -0.02100
H 	H 	0.53000 0.75020 0.83280 -0.51000
C 	C 	0.43510 0.73870 0.84090 0.01900
H 	H 	0.43040 0.72940 0.78000 0.05000
H 	H 	0.40580 0.71260 0.87300 0.06200
C 	C 	0.39210 0.83480 0.79740 -0.04700
H 	H 	0.38060 0.81480 0.74660 0.03100
C 	C 	0.37740 0.90010 0.80550 0.25500
C 	C 	0.34700 0.92850 0.73630 -0.57800
H 	H 	0.33190 0.90490 0.69040 0.16300
C 	C 	0.33900 0.99210 0.73560 0.15400
C 	C 	0.36150 0.02730 0.80420 -1.30500
H 	H 	0.35610 0.06980 0.80370 -0.34000
C 	C 	0.39190 0.99890 0.87340 0.12300
H 	H 	0.40700 0.02250 0.91930 0.03600
C 	C 	0.39990 0.93540 0.87410 1.46400
C 	C 	0.24980 0.75020 0.38440 -0.39300
H 	H 	0.22160 0.74450 0.43280 0.18700
H 	H 	0.28300 0.71960 0.38590 0.17500
H 	H 	0.26870 0.79050 0.38720 0.18600
C 	C 	0.27370 0.99530 0.61390 3.52100
H 	H 	0.25350 0.02320 0.57420 -1.66100
H 	H 	0.30260 0.96880 0.58310 -0.85500
H 	H 	0.24150 0.97090 0.64210 -0.97000
C 	C 	0.36840 0.75190 0.08490 -0.15600
C 	C 	0.32460 0.75970 0.15170 0.22600
C 	C 	0.27880 0.71470 0.16790 -0.22200
C 	C 	0.27670 0.66190 0.11740 0.41500
C 	C 	0.32050 0.65400 0.05060 -0.50800
C 	C 	0.36630 0.69900 0.03430 0.23200
C 	C 	0.41730 0.68910 0.98220 -0.09800
C 	C 	0.51770 0.71390 0.91190 0.49000
C 	C 	0.54990 0.75830 0.86100 0.61700
C 	C 	0.60540 0.82840 0.98570 0.12600
C 	C 	0.60540 0.79100 0.05770 -0.33100
C 	C 	0.52700 0.84700 0.15400 -0.40700
C 	C 	0.52670 0.90210 0.11550 0.02600
C 	C 	0.44980 0.94610 -0.00000 0.46900
C 	C 	0.40940 0.93990 0.92760 -2.12000
C 	C 	0.39060 0.99470 0.88870 -0.18200
C 	C 	0.35620 0.99350 0.81180 0.94100
C 	C 	0.34050 0.93740 0.77390 -0.15100
C 	C 	0.35920 0.88260 0.81290 -0.47000
C 	C 	0.39370 0.88390 0.88970 -0.20900
C 	C 	0.23450 0.56120 0.08700 2.99100
C 	C 	0.35950 0.10320 0.79820 1.63600
Fe	Fe	0.47300 0.81150 0.00450 0.59700
H 	H 	0.32600 0.79510 0.18550 -0.49400
H 	H 	0.24950 0.72000 0.21260 0.28700
H 	H 	0.31910 0.61860 0.01680 0.23100
H 	H 	0.41750 0.65200 0.95210 0.08200
H 	H 	0.55060 0.69350 0.94580 -0.12100
H 	H 	0.50130 0.68340 0.87190 0.07900
H 	H 	0.59350 0.74570 0.84790 -0.14500
H 	H 	0.52710 0.76660 0.80770 0.30100
H 	H 	0.60390 0.87110 0.00420 0.01700
H 	H 	0.64520 0.82240 0.95440 0.06600
H 	H 	0.54350 0.85030 0.89080 0.11000
H 	H 	0.61420 0.74850 0.04220 0.08300
H 	H 	0.63710 0.80460 0.09940 0.15800
H 	H 	0.56090 0.84570 0.19730 0.16100
H 	H 	0.48660 0.84020 0.18350 0.18500
H 	H 	0.51280 0.93360 0.15570 -0.09800
H 	H 	0.56920 0.91250 0.09490 -0.11400
H 	H 	0.45670 0.98540 0.02210 -0.08100
H 	H 	0.40120 0.03220 0.91400 0.15900
H 	H 	0.31740 0.93660 0.72250 0.33500
H 	H 	0.34870 0.84510 0.78760 0.24100
H 	H 	0.52720 0.76210 0.12080 0.07500
H 	H 	0.19870 0.53390 0.09440 -1.19700
H 	H 	0.24330 0.56560 0.02610 -0.61000
H 	H 	0.27150 0.54460 0.11520 -0.65500
H 	H 	0.34180 0.13430 0.76110 -0.45700
H 	H 	0.34590 0.11050 0.85650 -0.37900
H 	H 	0.40550 0.10470 0.79530 -0.38000
N 	N 	0.46820 0.72690 0.96850 -0.24500
N 	N 	0.54860 0.81610 0.92410 -0.33400
N 	N 	0.53730 0.79800 0.09370 -0.16600
N 	N 	0.47940 0.89710 0.03950 -0.37900
O 	O 	0.40740 0.79850 0.08810 -0.30000
O 	O 	0.41460 0.82590 0.91950 -0.70000
O 	O 	0.21940 0.62000 0.12240 -0.79400
O 	O 	0.33520 0.03720 0.76760 0.43600
C 	C 	0.76490 0.45760 0.35390 0.30000
C 	C 	0.76250 0.52900 0.34800 0.20900
C 	C 	0.91340 0.44930 0.17210 0.21300
C 	C 	0.95470 0.41280 0.23810 0.22600
C 	C 	0.93280 0.54220 0.48360 0.21600
C 	C 	0.96520 0.58010 0.41140 0.23200
C 	C 	0.03040 0.23990 0.08160 0.19000
C 	C 	0.95660 0.23510 0.07740 0.23000
C 	C 	0.58530 0.45090 0.19110 0.21300
C 	C 	0.54470 0.41470 0.25630 0.20300
C 	C 	0.58000 0.53730 0.51880 0.21900
C 	C 	0.54480 0.56940 0.44150 0.25600
O 	O 	0.71070 0.43050 0.36280 -0.36200
O 	O 	0.70850 0.55630 0.34770 -0.31900
O 	O 	0.81710 0.43480 0.34670 -0.43000
O 	O 	0.81590 0.55610 0.33920 -0.38500
O 	O 	0.91250 0.43330 0.09470 -0.33800
O 	O 	0.98750 0.36910 0.21070 -0.38300
O 	O 	0.87990 0.49160 0.20530 -0.39700
O 	O 	0.94930 0.42990 0.31570 -0.46400
O 	O 	0.89900 0.49730 0.45840 -0.37200
O 	O 	0.95130 0.56260 0.33630 -0.41400
O 	O 	0.94420 0.55930 0.56050 -0.32100
O 	O 	0.00370 0.62150 0.42910 -0.34600
O 	O 	0.05800 0.29160 0.07750 -0.35000
O 	O 	0.92700 0.28520 0.06720 -0.37000
O 	O 	0.05890 0.18810 0.09140 -0.40400
O 	O 	0.93300 0.18390 0.08690 -0.41400
O 	O 	0.57010 0.44090 0.11070 -0.39300
O 	O 	0.49930 0.37990 0.22500 -0.39200
O 	O 	0.62880 0.48420 0.21570 -0.33900
O 	O 	0.55740 0.42090 0.33430 -0.36400
O 	O 	0.62050 0.49770 0.49600 -0.30800
O 	O 	0.55490 0.55950 0.37100 -0.37300
O 	O 	0.56620 0.55210 0.59310 -0.37500
O 	O 	0.50040 0.60770 0.47010 -0.39100
Cr	Cr	0.88668 0.49556 0.33304 1.56500
Cr	Cr	0.49905 0.38111 0.09757 1.55800
Mn	Mn	0.98780 0.36483 0.06949 1.29900
Mn	Mn	0.62967 0.48987 0.35751 1.31100
C 	C 	0.23510 0.54240 0.85390 0.30000
C 	C 	0.23750 0.47100 0.84800 0.21000
C 	C 	0.08660 0.55070 0.67210 0.21000
C 	C 	0.04530 0.58720 0.73810 0.22700
C 	C 	0.06720 0.45780 0.98360 0.25900
C 	C 	0.03480 0.41990 0.91140 0.21900
C 	C 	0.96960 0.76010 0.58160 0.19100
C 	C 	0.04340 0.76490 0.57740 0.23400
C 	C 	0.41470 0.54910 0.69110 0.21300
C 	C 	0.45530 0.58530 0.75630 0.20400
C 	C 	0.42000 0.46270 0.01880 0.14300
C 	C 	0.45520 0.43060 0.94150 0.29900
O 	O 	0.28930 0.56950 0.86280 -0.35500
O 	O 	0.29150 0.44370 0.84770 -0.31500
O 	O 	0.18290 0.56520 0.84670 -0.42500
O 	O 	0.18410 0.44390 0.83920 -0.38300
O 	O 	0.08750 0.56670 0.59470 -0.32700
O 	O 	0.01250 0.63090 0.71070 -0.38400
O 	O 	0.12010 0.50840 0.70530 -0.39400
O 	O 	0.05070 0.57010 0.81570 -0.46400
O 	O 	0.10100 0.50270 0.95840 -0.37500
O 	O 	0.04870 0.43740 0.83630 -0.40900
O 	O 	0.05580 0.44070 0.06050 -0.35300
O 	O 	0.99630 0.37850 0.92910 -0.32300
O 	O 	0.94200 0.70840 0.57750 -0.34100
O 	O 	0.07300 0.71480 0.56720 -0.35800
O 	O 	0.94110 0.81190 0.59140 -0.39500
O 	O 	0.06700 0.81610 0.58690 -0.40300
O 	O 	0.42990 0.55910 0.61070 -0.38200
O 	O 	0.50070 0.62010 0.72500 -0.38800
O 	O 	0.37120 0.51580 0.71570 -0.33400
O 	O 	0.44260 0.57910 0.83430 -0.35900
O 	O 	0.37950 0.50230 0.99600 -0.26500
O 	O 	0.44510 0.44050 0.87100 -0.38100
O 	O 	0.43380 0.44790 0.09310 -0.36500
O 	O 	0.49960 0.39230 0.97010 -0.37700
Cr	Cr	0.11332 0.50444 0.83304 1.56500
Cr	Cr	0.50095 0.61889 0.59757 1.56400
Mn	Mn	0.01220 0.63517 0.56949 1.30600
Mn	Mn	0.37033 0.51013 0.85751 1.31200
C 	C 	0.26490 0.04240 0.35390 0.29900
C 	C 	0.26250 0.97100 0.34800 0.21200
C 	C 	0.41340 0.05070 0.17210 0.21300
C 	C 	0.45470 0.08720 0.23810 0.22600
C 	C 	0.43280 0.95780 0.48360 0.21900
C 	C 	0.46520 0.91990 0.41140 0.23000
C 	C 	0.53040 0.26010 0.08160 0.18500
C 	C 	0.45660 0.26490 0.07740 0.23500
C 	C 	0.08530 0.04910 0.19110 0.21200
C 	C 	0.04470 0.08530 0.25630 0.20900
C 	C 	0.08000 0.96270 0.51880 0.21800
C 	C 	0.04480 0.93060 0.44150 0.25600
O 	O 	0.21070 0.06950 0.36280 -0.36100
O 	O 	0.20850 0.94370 0.34770 -0.31800
O 	O 	0.31710 0.06520 0.34670 -0.43000
O 	O 	0.31590 0.94390 0.33920 -0.38400
O 	O 	0.41250 0.06670 0.09470 -0.34000
O 	O 	0.48750 0.13090 0.21070 -0.38200
O 	O 	0.37990 0.00840 0.20530 -0.40000
O 	O 	0.44930 0.07010 0.31570 -0.46400
O 	O 	0.39900 0.00270 0.45840 -0.37200
O 	O 	0.45130 0.93740 0.33630 -0.41100
O 	O 	0.44420 0.94070 0.56050 -0.32200
O 	O 	0.50370 0.87850 0.42910 -0.34500
O 	O 	0.55800 0.20840 0.07750 -0.35100
O 	O 	0.42700 0.21480 0.06720 -0.37100
O 	O 	0.55890 0.31190 0.09140 -0.40400
O 	O 	0.43300 0.31610 0.08690 -0.41500
O 	O 	0.07010 0.05910 0.11070 -0.39100
O 	O 	0.99930 0.12010 0.22500 -0.39600
O 	O 	0.12880 0.01580 0.21570 -0.34000
O 	O 	0.05740 0.07910 0.33430 -0.36400
O 	O 	0.12050 0.00230 0.49600 -0.30400
O 	O 	0.05490 0.94050 0.37100 -0.37100
O 	O 	0.06620 0.94790 0.59310 -0.37500
O 	O 	0.00040 0.89230 0.47010 -0.39100
Cr	Cr	0.38668 0.00444 0.33304 1.56400
Cr	Cr	0.99905 0.11889 0.09757 1.55600
Mn	Mn	0.48780 0.13517 0.06949 1.30000
Mn	Mn	0.12967 0.01013 0.35751 1.31000
C 	C 	0.73510 0.95760 0.85390 0.30500
C 	C 	0.73750 0.02900 0.84800 0.21700
C 	C 	0.58660 0.94930 0.67210 0.21100
C 	C 	0.54530 0.91280 0.73810 0.22700
C 	C 	0.56720 0.04220 0.98360 0.27900
C 	C 	0.53480 0.08010 0.91140 0.21800
C 	C 	0.46960 0.73990 0.58160 0.18800
C 	C 	0.54340 0.73510 0.57740 0.23700
C 	C 	0.91470 0.95090 0.69110 0.21200
C 	C 	0.95530 0.91470 0.75630 0.21000
C 	C 	0.92000 0.03730 0.01880 0.12300
C 	C 	0.95520 0.06940 0.94150 0.31200
O 	O 	0.78930 0.93050 0.86280 -0.35200
O 	O 	0.79150 0.05630 0.84770 -0.31200
O 	O 	0.68290 0.93480 0.84670 -0.42300
O 	O 	0.68410 0.05610 0.83920 -0.38000
O 	O 	0.58750 0.93330 0.59470 -0.32600
O 	O 	0.51250 0.86910 0.71070 -0.38400
O 	O 	0.62010 0.99160 0.70530 -0.39400
O 	O 	0.55070 0.92990 0.81570 -0.46400
O 	O 	0.60100 0.99730 0.95840 -0.37400
O 	O 	0.54870 0.06260 0.83630 -0.40700
O 	O 	0.55580 0.05930 0.06050 -0.36100
O 	O 	0.49630 0.12150 0.92910 -0.32400
O 	O 	0.44200 0.79160 0.57750 -0.34100
O 	O 	0.57300 0.78520 0.56720 -0.35800
O 	O 	0.44110 0.68810 0.59140 -0.39600
O 	O 	0.56700 0.68390 0.58690 -0.40400
O 	O 	0.92990 0.94090 0.61070 -0.37900
O 	O 	0.00070 0.87990 0.72500 -0.39400
O 	O 	0.87120 0.98420 0.71570 -0.33300
O 	O 	0.94260 0.92090 0.83430 -0.35900
O 	O 	0.87950 0.99770 0.99600 -0.24700
O 	O 	0.94510 0.05950 0.87100 -0.38400
O 	O 	0.93380 0.05210 0.09310 -0.35900
O 	O 	0.99960 0.10770 0.97010 -0.37600
Cr	Cr	0.61332 0.99556 0.83304 1.56500
Cr	Cr	0.00095 0.88111 0.59757 1.56300
Mn	Mn	0.51220 0.86483 0.56949 1.30600
Mn	Mn	0.87033 0.98987 0.85751 1.31200
