data_crystal

_cell_length_a 9.66150
_cell_length_b 10.49000
_cell_length_c 11.94040
_cell_angle_alpha 110.29500
_cell_angle_beta  91.87500
_cell_angle_gamma 114.86000

_symmetry_space_group_name_	'P 1'
_symmetry_space_group_name_H-M	'P 1'

loop_
_symmetry_equiv_pos_as_xyz
  x,y,z

loop_
_atom_site_label
_atom_site_type_symbol
_atom_site_fract_x
_atom_site_fract_y
_atom_site_fract_z
_atom_site_charge
S 	S 	0.02389 0.05301 0.24333 -0.00600
S 	S 	0.50972 0.54185 0.36569 0.10500
Mg	Mg	0.52862 0.08436 0.32661 1.47700
O 	O 	0.45540 0.88410 0.35015 -0.46500
O 	O 	0.76170 0.10720 0.33026 -0.37800
O 	O 	0.44050 0.79410 0.49545 -0.47700
O 	O 	0.59200 0.28500 0.30318 -0.47800
O 	O 	0.30680 0.01560 0.25045 -0.54500
O 	O 	0.28480 0.92080 0.04735 -0.49800
O 	O 	0.59743 0.98560 0.15410 -0.49200
O 	O 	0.54640 0.22190 0.10122 -0.52100
C 	C 	0.46270 0.79430 0.39240 0.48100
C 	C 	0.56360 0.30660 0.21010 0.43500
C 	C 	0.72750 0.02650 0.21720 0.19500
C 	C 	0.83810 0.97430 0.16090 0.05100
C 	C 	0.07090 0.93840 0.12660 -0.03000
C 	C 	0.23480 0.95930 0.14170 0.47900
C 	C 	0.81460 0.86380 0.04930 -0.14900
H 	H 	0.72040 0.80770 0.99260 0.14100
C 	C 	0.94880 0.84390 0.02890 -0.10000
H 	H 	0.95330 0.77430 0.95710 0.12300
C 	C 	0.54600 0.44740 0.23070 -0.12200
C 	C 	0.49630 0.66970 0.31280 -0.12900
C 	C 	0.52030 0.64110 0.19690 0.00200
H 	H 	0.51850 0.69950 0.15390 0.03500
C 	C 	0.54840 0.51270 0.14910 0.00100
H 	H 	0.56640 0.47670 0.07100 0.02000
S 	S 	0.97611 0.94699 0.75667 0.18300
S 	S 	0.49028 0.45815 0.63431 0.10300
Mg	Mg	0.47138 0.91564 0.67339 1.48200
O 	O 	0.54460 0.11590 0.64985 -0.51100
O 	O 	0.23830 0.89280 0.66974 -0.41200
O 	O 	0.55950 0.20590 0.50455 -0.50000
O 	O 	0.40800 0.71500 0.69682 -0.45700
O 	O 	0.69320 0.98440 0.74955 -0.44300
O 	O 	0.71520 0.07920 0.95265 -0.44800
O 	O 	0.40257 0.01440 0.84590 -0.60600
O 	O 	0.45360 0.77810 0.89878 -0.44800
C 	C 	0.53730 0.20570 0.60760 0.48700
C 	C 	0.43640 0.69340 0.78990 0.42300
C 	C 	0.27250 0.97350 0.78280 0.48600
C 	C 	0.16190 0.02570 0.83910 -0.22300
C 	C 	0.92910 0.06160 0.87340 -0.19100
C 	C 	0.76520 0.04070 0.85830 0.40500
C 	C 	0.18540 0.13620 0.95070 0.13200
H 	H 	0.27960 0.19230 0.00740 -0.06000
C 	C 	0.05120 0.15610 0.97110 0.13000
H 	H 	0.04670 0.22570 0.04290 -0.04300
C 	C 	0.45400 0.55260 0.76930 -0.10300
C 	C 	0.50370 0.33030 0.68720 -0.13900
C 	C 	0.47970 0.35890 0.80310 0.02000
H 	H 	0.48150 0.30050 0.84610 0.05200
C 	C 	0.45160 0.48730 0.85090 -0.00800
H 	H 	0.43360 0.52330 0.92900 0.06800
Mg	Mg	0.50000 0.00000 -0.00000 1.46600
