data_crystal

_cell_length_a 13.56420
_cell_length_b 13.56420
_cell_length_c 15.64250
_cell_angle_alpha 90.00000
_cell_angle_beta  90.00000
_cell_angle_gamma 90.00000

_symmetry_space_group_name_	'P 1'
_symmetry_space_group_name_H-M	'P 1'

loop_
_symmetry_equiv_pos_as_xyz
  x,y,z

loop_
_atom_site_label
_atom_site_type_symbol
_atom_site_fract_x
_atom_site_fract_y
_atom_site_fract_z
_atom_site_charge
S 	S 	0.72360 0.78470 0.89210 0.12100
O 	O 	0.62100 0.95130 0.98550 -0.38000
O 	O 	0.52720 0.99700 0.87860 -0.43200
O 	O 	0.80740 0.60660 0.70850 -0.45600
O 	O 	0.85230 0.61430 0.84220 -0.40400
C 	C 	0.79890 0.64450 0.78240 0.31900
C 	C 	0.59380 0.94210 0.91000 0.30900
C 	C 	0.63680 0.86480 0.85430 -0.06700
C 	C 	0.73090 0.72700 0.79490 -0.08100
C 	C 	0.66780 0.76580 0.73720 -0.00400
H 	H 	0.65980 0.74210 0.68180 0.06800
C 	C 	0.61550 0.84710 0.77130 -0.01300
H 	H 	0.57090 0.88450 0.73980 0.07500
S 	S 	0.27640 0.21530 0.39210 0.10500
O 	O 	0.37900 0.04870 0.48550 -0.39900
O 	O 	0.47280 0.00300 0.37860 -0.44000
O 	O 	0.19260 0.39340 0.20850 -0.46200
O 	O 	0.14770 0.38570 0.34220 -0.40900
C 	C 	0.20110 0.35550 0.28240 0.31800
C 	C 	0.40620 0.05790 0.41000 0.30900
C 	C 	0.36320 0.13520 0.35430 -0.06900
C 	C 	0.26910 0.27300 0.29490 -0.08300
C 	C 	0.33220 0.23420 0.23720 -0.00500
H 	H 	0.34020 0.25790 0.18180 0.06300
C 	C 	0.38450 0.15290 0.27130 -0.01600
H 	H 	0.42910 0.11550 0.23980 0.07500
S 	S 	0.21530 0.72360 0.64210 0.11100
O 	O 	0.04870 0.62100 0.73550 -0.39500
O 	O 	0.00300 0.52720 0.62860 -0.43900
O 	O 	0.39340 0.80740 0.45850 -0.45700
O 	O 	0.38570 0.85230 0.59220 -0.40800
C 	C 	0.35550 0.79890 0.53240 0.31800
C 	C 	0.05790 0.59380 0.66000 0.30900
C 	C 	0.13520 0.63680 0.60430 -0.06800
C 	C 	0.27300 0.73090 0.54490 -0.08100
C 	C 	0.23420 0.66780 0.48720 -0.00500
H 	H 	0.25790 0.65980 0.43180 0.06800
C 	C 	0.15290 0.61550 0.52130 -0.01400
H 	H 	0.11550 0.57090 0.48980 0.07500
S 	S 	0.78470 0.27640 0.14210 0.10000
O 	O 	0.95130 0.37900 0.23550 -0.39300
O 	O 	0.99700 0.47280 0.12860 -0.43500
O 	O 	0.60660 0.19260 0.95850 -0.41900
O 	O 	0.61430 0.14770 0.09220 -0.41300
C 	C 	0.64450 0.20110 0.03240 0.30000
C 	C 	0.94210 0.40620 0.16000 0.27300
C 	C 	0.86480 0.36320 0.10430 0.00900
C 	C 	0.72700 0.26910 0.04490 -0.17900
C 	C 	0.76580 0.33220 0.98720 0.21700
H 	H 	0.74210 0.34020 0.93180 -0.00200
C 	C 	0.84710 0.38450 0.02130 -0.25100
H 	H 	0.88450 0.42910 0.98980 0.18500
S 	S 	0.27640 0.78470 0.10790 0.08700
O 	O 	0.37900 0.95130 0.01450 -0.42100
O 	O 	0.47280 0.99700 0.12140 -0.44800
O 	O 	0.19260 0.60660 0.29150 -0.45600
O 	O 	0.14770 0.61430 0.15780 -0.41500
C 	C 	0.20110 0.64450 0.21760 0.31600
C 	C 	0.40620 0.94210 0.09000 0.30900
C 	C 	0.36320 0.86480 0.14570 -0.07100
C 	C 	0.26910 0.72700 0.20510 -0.07900
C 	C 	0.33220 0.76580 0.26280 -0.00900
H 	H 	0.34020 0.74210 0.31820 0.06900
C 	C 	0.38450 0.84710 0.22870 -0.01400
H 	H 	0.42910 0.88450 0.26020 0.07300
S 	S 	0.72360 0.21530 0.60790 0.10500
O 	O 	0.62100 0.04870 0.51450 -0.40000
O 	O 	0.52720 0.00300 0.62140 -0.43800
O 	O 	0.80740 0.39340 0.79150 -0.45100
O 	O 	0.85230 0.38570 0.65780 -0.40800
C 	C 	0.79890 0.35550 0.71760 0.31700
C 	C 	0.59380 0.05790 0.59000 0.30900
C 	C 	0.63680 0.13520 0.64570 -0.06800
C 	C 	0.73090 0.27300 0.70510 -0.07700
C 	C 	0.66780 0.23420 0.76280 -0.00700
H 	H 	0.65980 0.25790 0.81820 0.07400
C 	C 	0.61550 0.15290 0.72870 -0.01200
H 	H 	0.57090 0.11550 0.76020 0.07600
S 	S 	0.78470 0.72360 0.35790 0.09900
O 	O 	0.95130 0.62100 0.26450 -0.40400
O 	O 	0.99700 0.52720 0.37140 -0.44100
O 	O 	0.60660 0.80740 0.54150 -0.45600
O 	O 	0.61430 0.85230 0.40780 -0.41000
C 	C 	0.64450 0.79890 0.46760 0.31700
C 	C 	0.94210 0.59380 0.34000 0.30900
C 	C 	0.86480 0.63680 0.39570 -0.06900
C 	C 	0.72700 0.73090 0.45510 -0.07900
C 	C 	0.76580 0.66780 0.51280 -0.00700
H 	H 	0.74210 0.65980 0.56820 0.06900
C 	C 	0.84710 0.61550 0.47870 -0.01300
H 	H 	0.88450 0.57090 0.51020 0.07400
S 	S 	0.21530 0.27640 0.85790 0.11200
O 	O 	0.04870 0.37900 0.76450 -0.40700
O 	O 	0.00300 0.47280 0.87140 -0.44200
O 	O 	0.39340 0.19260 0.04150 -0.48900
O 	O 	0.38570 0.14770 0.90780 -0.39900
C 	C 	0.35550 0.20110 0.96760 0.33200
C 	C 	0.05790 0.40620 0.84000 0.35000
C 	C 	0.13520 0.36320 0.89570 -0.15800
C 	C 	0.27300 0.26910 0.95510 0.03500
C 	C 	0.23420 0.33220 0.01280 -0.26200
H 	H 	0.25790 0.34020 0.06820 0.15000
C 	C 	0.15290 0.38450 0.97870 0.26100
H 	H 	0.11550 0.42910 0.01020 -0.05400
In	In	0.50000 0.07660 -0.00000 1.98500
In	In	0.50000 0.92340 0.50000 1.99600
In	In	0.92340 0.50000 0.75000 1.99600
In	In	0.07660 0.50000 0.25000 1.99600
