data_crystal

_cell_length_a 26.40500
_cell_length_b 26.40500
_cell_length_c 36.63100
_cell_angle_alpha 90.00000
_cell_angle_beta  90.00000
_cell_angle_gamma 90.00000

_symmetry_space_group_name_	'P 1'
_symmetry_space_group_name_H-M	'P 1'

loop_
_symmetry_equiv_pos_as_xyz
  x,y,z

loop_
_atom_site_label
_atom_site_type_symbol
_atom_site_fract_x
_atom_site_fract_y
_atom_site_fract_z
_atom_site_charge
Co	Co	0.70165 0.70165 0.23703 1.12800
Co	Co	0.29835 0.29835 0.23703 1.12800
Co	Co	0.79835 0.20165 0.73703 1.12800
Co	Co	0.20165 0.79835 0.73703 1.12800
Co	Co	0.79835 0.20165 0.26297 1.12800
Co	Co	0.20165 0.79835 0.26297 1.12800
Co	Co	0.70165 0.70165 0.76297 1.12800
Co	Co	0.29835 0.29835 0.76297 1.12800
Co	Co	-0.00000 0.50000 -0.00000 1.11800
Co	Co	-0.00000 0.50000 0.50000 1.12000
Co	Co	0.50000 0.00000 0.50000 1.11900
Co	Co	0.50000 0.00000 -0.00000 1.11700
H 	H 	0.70060 0.58520 0.74700 -0.00400
H 	H 	0.72830 0.51010 0.77110 0.08000
H 	H 	0.76610 0.58190 0.86250 0.07900
H 	H 	0.73920 0.65700 0.83750 0.00100
H 	H 	0.97280 0.42210 0.94040 -0.00300
H 	H 	0.91780 0.40520 0.89320 0.08500
H 	H 	0.90110 0.54460 0.96800 -0.00300
H 	H 	0.84540 0.53430 0.91890 0.07900
H 	H 	0.85310 0.32620 0.83750 0.08500
H 	H 	0.77460 0.39330 0.75860 0.08200
H 	H 	0.76550 0.31080 0.72980 -0.00800
H 	H 	0.85030 0.25270 0.80490 -0.00600
H 	H 	0.29940 0.41480 0.74700 -0.00400
H 	H 	0.27170 0.48990 0.77110 0.08000
H 	H 	0.23390 0.41810 0.86250 0.07800
H 	H 	0.26080 0.34300 0.83750 -0.00000
H 	H 	0.02720 0.57790 0.94040 -0.01200
H 	H 	0.08220 0.59480 0.89320 0.08200
H 	H 	0.09890 0.45540 0.96800 -0.00400
H 	H 	0.15460 0.46570 0.91890 0.07900
H 	H 	0.14690 0.67380 0.83750 0.08300
H 	H 	0.22540 0.60670 0.75860 0.08100
H 	H 	0.23450 0.68920 0.72980 -0.00800
H 	H 	0.14970 0.74730 0.80490 -0.00700
H 	H 	0.91480 0.20060 0.24700 -0.00600
H 	H 	0.98990 0.22830 0.27110 0.08900
H 	H 	0.91810 0.26610 0.36250 0.08400
H 	H 	0.84300 0.23920 0.33750 -0.00200
H 	H 	0.07790 0.47280 0.44040 -0.00800
H 	H 	0.09480 0.41780 0.39320 0.08000
H 	H 	0.95540 0.40110 0.46800 -0.00600
H 	H 	0.96570 0.34540 0.41890 0.07500
H 	H 	0.17380 0.35310 0.33750 0.08300
H 	H 	0.10670 0.27460 0.25860 0.07800
H 	H 	0.18920 0.26550 0.22980 -0.00900
H 	H 	0.24730 0.35030 0.30490 -0.00700
H 	H 	0.08520 0.79940 0.24700 -0.00200
H 	H 	0.01010 0.77170 0.27110 0.07100
H 	H 	0.08190 0.73390 0.36250 0.07200
H 	H 	0.15700 0.76080 0.33750 0.00200
H 	H 	0.92210 0.52720 0.44040 -0.00900
H 	H 	0.90520 0.58220 0.39320 0.08600
H 	H 	0.04460 0.59890 0.46800 -0.00400
H 	H 	0.03430 0.65460 0.41890 0.08200
H 	H 	0.82620 0.64690 0.33750 0.08400
H 	H 	0.89330 0.72540 0.25860 0.08400
H 	H 	0.81080 0.73450 0.22980 -0.00700
H 	H 	0.75270 0.64970 0.30490 -0.00700
H 	H 	0.79940 0.08520 0.75300 -0.00200
H 	H 	0.77170 0.01010 0.72890 0.07100
H 	H 	0.73390 0.08190 0.63750 0.07200
H 	H 	0.76080 0.15700 0.66250 0.00200
H 	H 	0.52720 0.92210 0.55960 -0.00900
H 	H 	0.58220 0.90520 0.60680 0.08600
H 	H 	0.59890 0.04460 0.53200 -0.00400
H 	H 	0.65460 0.03430 0.58110 0.08200
H 	H 	0.64690 0.82620 0.66250 0.08400
H 	H 	0.72540 0.89330 0.74140 0.08400
H 	H 	0.73450 0.81080 0.77020 -0.00700
H 	H 	0.64970 0.75270 0.69510 -0.00700
H 	H 	0.20060 0.91480 0.75300 -0.00600
H 	H 	0.22830 0.98990 0.72890 0.08900
H 	H 	0.26610 0.91810 0.63750 0.08400
H 	H 	0.23920 0.84300 0.66250 -0.00200
H 	H 	0.47280 0.07790 0.55960 -0.00800
H 	H 	0.41780 0.09480 0.60680 0.08000
H 	H 	0.40110 0.95540 0.53200 -0.00600
H 	H 	0.34540 0.96570 0.58110 0.07500
H 	H 	0.35310 0.17380 0.66250 0.08300
H 	H 	0.27460 0.10670 0.74140 0.07900
H 	H 	0.26550 0.18920 0.77020 -0.00900
H 	H 	0.35030 0.24730 0.69510 -0.00700
H 	H 	0.58520 0.70060 0.25300 -0.00400
H 	H 	0.51010 0.72830 0.22890 0.08000
H 	H 	0.58190 0.76610 0.13750 0.07800
H 	H 	0.65700 0.73920 0.16250 0.00000
H 	H 	0.42210 0.97280 0.05960 -0.00400
H 	H 	0.40520 0.91780 0.10680 0.08400
H 	H 	0.54460 0.90110 0.03200 -0.00500
H 	H 	0.53430 0.84540 0.08110 0.07900
H 	H 	0.32620 0.85310 0.16250 0.08400
H 	H 	0.39330 0.77460 0.24140 0.08200
H 	H 	0.31080 0.76550 0.27020 -0.00800
H 	H 	0.25270 0.85030 0.19510 -0.00600
H 	H 	0.41480 0.29940 0.25300 -0.00400
H 	H 	0.48990 0.27170 0.22890 0.08000
H 	H 	0.41810 0.23390 0.13750 0.07700
H 	H 	0.34300 0.26080 0.16250 -0.00000
H 	H 	0.57790 0.02720 0.05960 -0.01300
H 	H 	0.59480 0.08220 0.10680 0.08200
H 	H 	0.45540 0.09890 0.03200 -0.00600
H 	H 	0.46570 0.15460 0.08110 0.07800
H 	H 	0.67380 0.14690 0.16250 0.08200
H 	H 	0.60670 0.22540 0.24140 0.08100
H 	H 	0.68920 0.23450 0.27020 -0.00800
H 	H 	0.74730 0.14970 0.19510 -0.00700
H 	H 	0.29940 0.41480 0.25300 -0.00400
H 	H 	0.27170 0.48990 0.22890 0.08000
H 	H 	0.23390 0.41810 0.13750 0.07700
H 	H 	0.26080 0.34300 0.16250 -0.00000
H 	H 	0.02720 0.57790 0.05960 -0.01300
H 	H 	0.08220 0.59480 0.10680 0.08200
H 	H 	0.09890 0.45540 0.03200 -0.00600
H 	H 	0.15460 0.46570 0.08110 0.07800
H 	H 	0.14690 0.67380 0.16250 0.08200
H 	H 	0.22540 0.60670 0.24140 0.08100
H 	H 	0.23450 0.68920 0.27020 -0.00800
H 	H 	0.14970 0.74730 0.19510 -0.00700
H 	H 	0.70060 0.58520 0.25300 -0.00400
H 	H 	0.72830 0.51010 0.22890 0.08000
H 	H 	0.76610 0.58190 0.13750 0.07800
H 	H 	0.73920 0.65700 0.16250 0.00000
H 	H 	0.97280 0.42210 0.05960 -0.00400
H 	H 	0.91780 0.40520 0.10680 0.08400
H 	H 	0.90110 0.54460 0.03200 -0.00500
H 	H 	0.84540 0.53430 0.08110 0.07900
H 	H 	0.85310 0.32620 0.16250 0.08400
H 	H 	0.77460 0.39330 0.24140 0.08200
H 	H 	0.76550 0.31080 0.27020 -0.00800
H 	H 	0.85030 0.25270 0.19510 -0.00600
H 	H 	0.08520 0.79940 0.75300 -0.00200
H 	H 	0.01010 0.77170 0.72890 0.07100
H 	H 	0.08190 0.73390 0.63750 0.07200
H 	H 	0.15700 0.76080 0.66250 0.00200
H 	H 	0.92210 0.52720 0.55960 -0.00900
H 	H 	0.90520 0.58220 0.60680 0.08600
H 	H 	0.04460 0.59890 0.53200 -0.00400
H 	H 	0.03430 0.65460 0.58110 0.08200
H 	H 	0.82620 0.64690 0.66250 0.08400
H 	H 	0.89330 0.72540 0.74140 0.08400
H 	H 	0.81080 0.73450 0.77020 -0.00700
H 	H 	0.75270 0.64970 0.69510 -0.00700
H 	H 	0.91480 0.20060 0.75300 -0.00600
H 	H 	0.98990 0.22830 0.72890 0.08900
H 	H 	0.91810 0.26610 0.63750 0.08400
H 	H 	0.84300 0.23920 0.66250 -0.00200
H 	H 	0.07790 0.47280 0.55960 -0.00800
H 	H 	0.09480 0.41780 0.60680 0.08000
H 	H 	0.95540 0.40110 0.53200 -0.00600
H 	H 	0.96570 0.34540 0.58110 0.07500
H 	H 	0.17380 0.35310 0.66250 0.08300
H 	H 	0.10670 0.27460 0.74140 0.07900
H 	H 	0.18920 0.26550 0.77020 -0.00900
H 	H 	0.24730 0.35030 0.69510 -0.00700
H 	H 	0.20060 0.91480 0.24700 -0.00600
H 	H 	0.22830 0.98990 0.27110 0.08900
H 	H 	0.26610 0.91810 0.36250 0.08400
H 	H 	0.23920 0.84300 0.33750 -0.00200
H 	H 	0.47280 0.07790 0.44040 -0.00800
H 	H 	0.41780 0.09480 0.39320 0.08000
H 	H 	0.40110 0.95540 0.46800 -0.00600
H 	H 	0.34540 0.96570 0.41890 0.07500
H 	H 	0.35310 0.17380 0.33750 0.08300
H 	H 	0.27460 0.10670 0.25860 0.07800
H 	H 	0.26550 0.18920 0.22980 -0.00900
H 	H 	0.35030 0.24730 0.30490 -0.00700
H 	H 	0.79940 0.08520 0.24700 -0.00200
H 	H 	0.77170 0.01010 0.27110 0.07100
H 	H 	0.73390 0.08190 0.36250 0.07200
H 	H 	0.76080 0.15700 0.33750 0.00200
H 	H 	0.52720 0.92210 0.44040 -0.00900
H 	H 	0.58220 0.90520 0.39320 0.08600
H 	H 	0.59890 0.04460 0.46800 -0.00400
H 	H 	0.65460 0.03430 0.41890 0.08200
H 	H 	0.64690 0.82620 0.33750 0.08400
H 	H 	0.72540 0.89330 0.25860 0.08400
H 	H 	0.73450 0.81080 0.22980 -0.00700
H 	H 	0.64970 0.75270 0.30490 -0.00700
H 	H 	0.41480 0.29940 0.74700 -0.00400
H 	H 	0.48990 0.27170 0.77110 0.08000
H 	H 	0.41810 0.23390 0.86250 0.07800
H 	H 	0.34300 0.26080 0.83750 -0.00000
H 	H 	0.57790 0.02720 0.94040 -0.01200
H 	H 	0.59480 0.08220 0.89320 0.08200
H 	H 	0.45540 0.09890 0.96800 -0.00400
H 	H 	0.46570 0.15460 0.91890 0.07900
H 	H 	0.67380 0.14690 0.83750 0.08300
H 	H 	0.60670 0.22540 0.75860 0.08100
H 	H 	0.68920 0.23450 0.72980 -0.00800
H 	H 	0.74730 0.14970 0.80490 -0.00700
H 	H 	0.58520 0.70060 0.74700 -0.00400
H 	H 	0.51010 0.72830 0.77110 0.08000
H 	H 	0.58190 0.76610 0.86250 0.07900
H 	H 	0.65700 0.73920 0.83750 0.00100
H 	H 	0.42210 0.97280 0.94040 -0.00300
H 	H 	0.40520 0.91780 0.89320 0.08500
H 	H 	0.54460 0.90110 0.96800 -0.00300
H 	H 	0.53430 0.84540 0.91890 0.07900
H 	H 	0.32620 0.85310 0.83750 0.08500
H 	H 	0.39330 0.77460 0.75860 0.08200
H 	H 	0.31080 0.76550 0.72980 -0.00800
H 	H 	0.25270 0.85030 0.80490 -0.00600
C 	C 	0.75660 0.54015 0.81699 0.06100
C 	C 	0.78650 0.49494 0.83017 0.10000
C 	C 	0.87688 0.46904 0.90014 0.05900
C 	C 	0.81190 0.41546 0.82243 0.10100
C 	C 	0.84225 0.46280 0.86886 0.10400
C 	C 	0.71478 0.58540 0.77083 0.07000
C 	C 	0.73267 0.54067 0.78445 -0.12600
C 	C 	0.75485 0.58284 0.83782 -0.12000
C 	C 	0.73700 0.62698 0.82326 0.06100
C 	C 	0.94660 0.44595 0.93573 0.08500
C 	C 	0.91415 0.43519 0.90726 -0.13000
C 	C 	0.90599 0.51701 0.95171 0.07000
C 	C 	0.87180 0.51046 0.92280 -0.12000
C 	C 	0.80961 0.36667 0.80240 0.06600
C 	C 	0.83450 0.32467 0.81535 -0.13300
C 	C 	0.78780 0.36380 0.77000 -0.12600
C 	C 	0.78420 0.31365 0.75182 0.08000
C 	C 	0.83190 0.28095 0.79590 0.08000
C 	C 	0.24340 0.45985 0.81699 0.06000
C 	C 	0.21350 0.50506 0.83017 0.09900
C 	C 	0.12312 0.53096 0.90014 0.05800
C 	C 	0.18810 0.58454 0.82243 0.10000
C 	C 	0.15775 0.53720 0.86886 0.10300
C 	C 	0.28522 0.41460 0.77083 0.07000
C 	C 	0.26733 0.45933 0.78445 -0.12700
C 	C 	0.24515 0.41716 0.83782 -0.12100
C 	C 	0.26300 0.37302 0.82326 0.06100
C 	C 	0.05340 0.55405 0.93573 0.08300
C 	C 	0.08585 0.56481 0.90726 -0.13300
C 	C 	0.09401 0.48299 0.95171 0.06800
C 	C 	0.12820 0.48954 0.92280 -0.12100
C 	C 	0.19039 0.63333 0.80240 0.06500
C 	C 	0.16550 0.67533 0.81535 -0.13300
C 	C 	0.21220 0.63620 0.77000 -0.12600
C 	C 	0.21580 0.68635 0.75182 0.07900
C 	C 	0.16810 0.71905 0.79590 0.08000
C 	C 	0.95985 0.25660 0.31699 0.08600
C 	C 	0.00506 0.28650 0.33017 0.07100
C 	C 	0.03096 0.37688 0.40014 0.04200
C 	C 	0.08454 0.31190 0.32243 0.09700
C 	C 	0.03720 0.34225 0.36886 0.09400
C 	C 	0.91460 0.21478 0.27083 0.07800
C 	C 	0.95933 0.23267 0.28445 -0.14100
C 	C 	0.91716 0.25485 0.33782 -0.13500
C 	C 	0.87302 0.23700 0.32326 0.06900
C 	C 	0.05405 0.44660 0.43573 0.07700
C 	C 	0.06481 0.41415 0.40726 -0.12600
C 	C 	0.98299 0.40599 0.45171 0.07700
C 	C 	0.98954 0.37180 0.42280 -0.10300
C 	C 	0.13333 0.30961 0.30240 0.06400
C 	C 	0.17533 0.33450 0.31535 -0.13300
C 	C 	0.13620 0.28780 0.27000 -0.12600
C 	C 	0.18635 0.28420 0.25182 0.07800
C 	C 	0.21905 0.33190 0.29590 0.07900
C 	C 	0.04015 0.74340 0.31699 0.03500
C 	C 	0.99494 0.71350 0.33017 0.12800
C 	C 	0.96904 0.62312 0.40014 0.07500
C 	C 	0.91546 0.68810 0.32243 0.10300
C 	C 	0.96280 0.65775 0.36886 0.11300
C 	C 	0.08540 0.78522 0.27083 0.06200
C 	C 	0.04067 0.76733 0.28445 -0.11200
C 	C 	0.08284 0.74515 0.33782 -0.10600
C 	C 	0.12698 0.76300 0.32326 0.05300
C 	C 	0.94595 0.55340 0.43573 0.09000
C 	C 	0.93519 0.58585 0.40726 -0.13800
C 	C 	0.01701 0.59401 0.45171 0.06000
C 	C 	0.01046 0.62820 0.42280 -0.13900
C 	C 	0.86667 0.69039 0.30240 0.06700
C 	C 	0.82467 0.66550 0.31535 -0.13300
C 	C 	0.86380 0.71220 0.27000 -0.12600
C 	C 	0.81365 0.71580 0.25182 0.08100
C 	C 	0.78095 0.66810 0.29590 0.08100
C 	C 	0.74340 0.04015 0.68301 0.03500
C 	C 	0.71350 0.99494 0.66983 0.12800
C 	C 	0.62312 0.96904 0.59986 0.07500
C 	C 	0.68810 0.91546 0.67757 0.10300
C 	C 	0.65775 0.96280 0.63114 0.11200
C 	C 	0.78522 0.08540 0.72917 0.06200
C 	C 	0.76733 0.04067 0.71555 -0.11200
C 	C 	0.74515 0.08284 0.66218 -0.10600
C 	C 	0.76300 0.12698 0.67674 0.05300
C 	C 	0.55340 0.94595 0.56427 0.09000
C 	C 	0.58585 0.93519 0.59274 -0.13800
C 	C 	0.59401 0.01701 0.54829 0.06000
C 	C 	0.62820 0.01046 0.57720 -0.13900
C 	C 	0.69039 0.86667 0.69760 0.06700
C 	C 	0.66550 0.82467 0.68465 -0.13300
C 	C 	0.71220 0.86380 0.73000 -0.12600
C 	C 	0.71580 0.81365 0.74818 0.08100
C 	C 	0.66810 0.78095 0.70410 0.08100
C 	C 	0.25660 0.95985 0.68301 0.08600
C 	C 	0.28650 0.00506 0.66983 0.07100
C 	C 	0.37688 0.03096 0.59986 0.04200
C 	C 	0.31190 0.08454 0.67757 0.09700
C 	C 	0.34225 0.03720 0.63114 0.09400
C 	C 	0.21478 0.91460 0.72917 0.07800
C 	C 	0.23267 0.95933 0.71555 -0.14100
C 	C 	0.25485 0.91716 0.66218 -0.13500
C 	C 	0.23700 0.87302 0.67674 0.06900
C 	C 	0.44660 0.05405 0.56427 0.07700
C 	C 	0.41415 0.06481 0.59274 -0.12600
C 	C 	0.40599 0.98299 0.54829 0.07700
C 	C 	0.37180 0.98954 0.57720 -0.10300
C 	C 	0.30961 0.13333 0.69760 0.06400
C 	C 	0.33450 0.17533 0.68465 -0.13300
C 	C 	0.28780 0.13620 0.73000 -0.12600
C 	C 	0.28420 0.18635 0.74818 0.07800
C 	C 	0.33190 0.21905 0.70410 0.07900
C 	C 	0.54015 0.75660 0.18301 0.06000
C 	C 	0.49494 0.78650 0.16983 0.10000
C 	C 	0.46904 0.87688 0.09986 0.05900
C 	C 	0.41546 0.81190 0.17757 0.10000
C 	C 	0.46280 0.84225 0.13114 0.10400
C 	C 	0.58540 0.71478 0.22917 0.07000
C 	C 	0.54067 0.73267 0.21555 -0.12600
C 	C 	0.58284 0.75485 0.16218 -0.12000
C 	C 	0.62698 0.73700 0.17674 0.06100
C 	C 	0.44595 0.94660 0.06427 0.08400
C 	C 	0.43519 0.91415 0.09274 -0.13100
C 	C 	0.51701 0.90599 0.04829 0.07000
C 	C 	0.51046 0.87180 0.07720 -0.12000
C 	C 	0.36667 0.80961 0.19760 0.06600
C 	C 	0.32467 0.83450 0.18465 -0.13300
C 	C 	0.36380 0.78780 0.23000 -0.12600
C 	C 	0.31365 0.78420 0.24818 0.08000
C 	C 	0.28095 0.83190 0.20410 0.08000
C 	C 	0.45985 0.24340 0.18301 0.06000
C 	C 	0.50506 0.21350 0.16983 0.09900
C 	C 	0.53096 0.12312 0.09986 0.05800
C 	C 	0.58454 0.18810 0.17757 0.09900
C 	C 	0.53720 0.15775 0.13114 0.10200
C 	C 	0.41460 0.28522 0.22917 0.07000
C 	C 	0.45933 0.26733 0.21555 -0.12700
C 	C 	0.41716 0.24515 0.16218 -0.12100
C 	C 	0.37302 0.26300 0.17674 0.06000
C 	C 	0.55405 0.05340 0.06427 0.08300
C 	C 	0.56481 0.08585 0.09274 -0.13300
C 	C 	0.48299 0.09401 0.04829 0.06700
C 	C 	0.48954 0.12820 0.07720 -0.12200
C 	C 	0.63333 0.19039 0.19760 0.06500
C 	C 	0.67533 0.16550 0.18465 -0.13300
C 	C 	0.63620 0.21220 0.23000 -0.12600
C 	C 	0.68635 0.21580 0.24818 0.07900
C 	C 	0.71905 0.16810 0.20410 0.07900
C 	C 	0.24340 0.45985 0.18301 0.06000
C 	C 	0.21350 0.50506 0.16983 0.09900
C 	C 	0.12312 0.53096 0.09986 0.05800
C 	C 	0.18810 0.58454 0.17757 0.09900
C 	C 	0.15775 0.53720 0.13114 0.10200
C 	C 	0.28522 0.41460 0.22917 0.07000
C 	C 	0.26733 0.45933 0.21555 -0.12700
C 	C 	0.24515 0.41716 0.16218 -0.12100
C 	C 	0.26300 0.37302 0.17674 0.06000
C 	C 	0.05340 0.55405 0.06427 0.08300
C 	C 	0.08585 0.56481 0.09274 -0.13300
C 	C 	0.09401 0.48299 0.04829 0.06700
C 	C 	0.12820 0.48954 0.07720 -0.12200
C 	C 	0.19039 0.63333 0.19760 0.06500
C 	C 	0.16550 0.67533 0.18465 -0.13300
C 	C 	0.21220 0.63620 0.23000 -0.12600
C 	C 	0.21580 0.68635 0.24818 0.07900
C 	C 	0.16810 0.71905 0.20410 0.07900
C 	C 	0.75660 0.54015 0.18301 0.06000
C 	C 	0.78650 0.49494 0.16983 0.10000
C 	C 	0.87688 0.46904 0.09986 0.05900
C 	C 	0.81190 0.41546 0.17757 0.10000
C 	C 	0.84225 0.46280 0.13114 0.10400
C 	C 	0.71478 0.58540 0.22917 0.07000
C 	C 	0.73267 0.54067 0.21555 -0.12600
C 	C 	0.75485 0.58284 0.16218 -0.12000
C 	C 	0.73700 0.62698 0.17674 0.06100
C 	C 	0.94660 0.44595 0.06427 0.08400
C 	C 	0.91415 0.43519 0.09274 -0.13100
C 	C 	0.90599 0.51701 0.04829 0.07000
C 	C 	0.87180 0.51046 0.07720 -0.12000
C 	C 	0.80961 0.36667 0.19760 0.06600
C 	C 	0.83450 0.32467 0.18465 -0.13300
C 	C 	0.78780 0.36380 0.23000 -0.12600
C 	C 	0.78420 0.31365 0.24818 0.08000
C 	C 	0.83190 0.28095 0.20410 0.08000
C 	C 	0.04015 0.74340 0.68301 0.03500
C 	C 	0.99494 0.71350 0.66983 0.12800
C 	C 	0.96904 0.62312 0.59986 0.07500
C 	C 	0.91546 0.68810 0.67757 0.10300
C 	C 	0.96280 0.65775 0.63114 0.11200
C 	C 	0.08540 0.78522 0.72917 0.06200
C 	C 	0.04067 0.76733 0.71555 -0.11200
C 	C 	0.08284 0.74515 0.66218 -0.10600
C 	C 	0.12698 0.76300 0.67674 0.05300
C 	C 	0.94595 0.55340 0.56427 0.09000
C 	C 	0.93519 0.58585 0.59274 -0.13800
C 	C 	0.01701 0.59401 0.54829 0.06000
C 	C 	0.01046 0.62820 0.57720 -0.13900
C 	C 	0.86667 0.69039 0.69760 0.06700
C 	C 	0.82467 0.66550 0.68465 -0.13300
C 	C 	0.86380 0.71220 0.73000 -0.12600
C 	C 	0.81365 0.71580 0.74818 0.08100
C 	C 	0.78095 0.66810 0.70410 0.08100
C 	C 	0.95985 0.25660 0.68301 0.08600
C 	C 	0.00506 0.28650 0.66983 0.07100
C 	C 	0.03096 0.37688 0.59986 0.04200
C 	C 	0.08454 0.31190 0.67757 0.09700
C 	C 	0.03720 0.34225 0.63114 0.09400
C 	C 	0.91460 0.21478 0.72917 0.07800
C 	C 	0.95933 0.23267 0.71555 -0.14100
C 	C 	0.91716 0.25485 0.66218 -0.13500
C 	C 	0.87302 0.23700 0.67674 0.06900
C 	C 	0.05405 0.44660 0.56427 0.07700
C 	C 	0.06481 0.41415 0.59274 -0.12600
C 	C 	0.98299 0.40599 0.54829 0.07700
C 	C 	0.98954 0.37180 0.57720 -0.10300
C 	C 	0.13333 0.30961 0.69760 0.06400
C 	C 	0.17533 0.33450 0.68465 -0.13300
C 	C 	0.13620 0.28780 0.73000 -0.12600
C 	C 	0.18635 0.28420 0.74818 0.07800
C 	C 	0.21905 0.33190 0.70410 0.07900
C 	C 	0.25660 0.95985 0.31699 0.08600
C 	C 	0.28650 0.00506 0.33017 0.07100
C 	C 	0.37688 0.03096 0.40014 0.04200
C 	C 	0.31190 0.08454 0.32243 0.09700
C 	C 	0.34225 0.03720 0.36886 0.09400
C 	C 	0.21478 0.91460 0.27083 0.07800
C 	C 	0.23267 0.95933 0.28445 -0.14100
C 	C 	0.25485 0.91716 0.33782 -0.13500
C 	C 	0.23700 0.87302 0.32326 0.06900
C 	C 	0.44660 0.05405 0.43573 0.07700
C 	C 	0.41415 0.06481 0.40726 -0.12600
C 	C 	0.40599 0.98299 0.45171 0.07700
C 	C 	0.37180 0.98954 0.42280 -0.10300
C 	C 	0.30961 0.13333 0.30240 0.06400
C 	C 	0.33450 0.17533 0.31535 -0.13300
C 	C 	0.28780 0.13620 0.27000 -0.12600
C 	C 	0.28420 0.18635 0.25182 0.07800
C 	C 	0.33190 0.21905 0.29590 0.07900
C 	C 	0.74340 0.04015 0.31699 0.03500
C 	C 	0.71350 0.99494 0.33017 0.12800
C 	C 	0.62312 0.96904 0.40014 0.07500
C 	C 	0.68810 0.91546 0.32243 0.10300
C 	C 	0.65775 0.96280 0.36886 0.11300
C 	C 	0.78522 0.08540 0.27083 0.06200
C 	C 	0.76733 0.04067 0.28445 -0.11200
C 	C 	0.74515 0.08284 0.33782 -0.10600
C 	C 	0.76300 0.12698 0.32326 0.05300
C 	C 	0.55340 0.94595 0.43573 0.09000
C 	C 	0.58585 0.93519 0.40726 -0.13800
C 	C 	0.59401 0.01701 0.45171 0.06000
C 	C 	0.62820 0.01046 0.42280 -0.13900
C 	C 	0.69039 0.86667 0.30240 0.06700
C 	C 	0.66550 0.82467 0.31535 -0.13300
C 	C 	0.71220 0.86380 0.27000 -0.12600
C 	C 	0.71580 0.81365 0.25182 0.08100
C 	C 	0.66810 0.78095 0.29590 0.08100
C 	C 	0.45985 0.24340 0.81699 0.06000
C 	C 	0.50506 0.21350 0.83017 0.09900
C 	C 	0.53096 0.12312 0.90014 0.05800
C 	C 	0.58454 0.18810 0.82243 0.10000
C 	C 	0.53720 0.15775 0.86886 0.10300
C 	C 	0.41460 0.28522 0.77083 0.07000
C 	C 	0.45933 0.26733 0.78445 -0.12700
C 	C 	0.41716 0.24515 0.83782 -0.12100
C 	C 	0.37302 0.26300 0.82326 0.06100
C 	C 	0.55405 0.05340 0.93573 0.08300
C 	C 	0.56481 0.08585 0.90726 -0.13300
C 	C 	0.48299 0.09401 0.95171 0.06800
C 	C 	0.48954 0.12820 0.92280 -0.12100
C 	C 	0.63333 0.19039 0.80240 0.06500
C 	C 	0.67533 0.16550 0.81535 -0.13300
C 	C 	0.63620 0.21220 0.77000 -0.12600
C 	C 	0.68635 0.21580 0.75182 0.07900
C 	C 	0.71905 0.16810 0.79590 0.08000
C 	C 	0.54015 0.75660 0.81699 0.06100
C 	C 	0.49494 0.78650 0.83017 0.10000
C 	C 	0.46904 0.87688 0.90014 0.05900
C 	C 	0.41546 0.81190 0.82243 0.10100
C 	C 	0.46280 0.84225 0.86886 0.10400
C 	C 	0.58540 0.71478 0.77083 0.07000
C 	C 	0.54067 0.73267 0.78445 -0.12600
C 	C 	0.58284 0.75485 0.83782 -0.12000
C 	C 	0.62698 0.73700 0.82326 0.06100
C 	C 	0.44595 0.94660 0.93573 0.08500
C 	C 	0.43519 0.91415 0.90726 -0.13000
C 	C 	0.51701 0.90599 0.95171 0.07000
C 	C 	0.51046 0.87180 0.92280 -0.12000
C 	C 	0.36667 0.80961 0.80240 0.06600
C 	C 	0.32467 0.83450 0.81535 -0.13300
C 	C 	0.36380 0.78780 0.77000 -0.12600
C 	C 	0.31365 0.78420 0.75182 0.08000
C 	C 	0.28095 0.83190 0.79590 0.08000
C 	C 	0.76030 0.76030 0.17310 0.09900
C 	C 	0.64860 0.64860 0.30380 0.11800
C 	C 	0.23970 0.23970 0.17310 0.09900
C 	C 	0.35140 0.35140 0.30380 0.11700
C 	C 	0.73970 0.26030 0.67310 0.09900
C 	C 	0.85140 0.14860 0.80380 0.11700
C 	C 	0.26030 0.73970 0.67310 0.09900
C 	C 	0.14860 0.85140 0.80380 0.11700
C 	C 	0.73970 0.26030 0.32690 0.09900
C 	C 	0.85140 0.14860 0.19620 0.11800
C 	C 	0.26030 0.73970 0.32690 0.09900
C 	C 	0.14860 0.85140 0.19620 0.11800
C 	C 	0.76030 0.76030 0.82690 0.09900
C 	C 	0.64860 0.64860 0.69620 0.11800
C 	C 	0.23970 0.23970 0.82690 0.09900
C 	C 	0.35140 0.35140 0.69620 0.11700
C 	C 	0.97740 0.62010 -0.00000 0.09600
C 	C 	0.02260 0.37990 -0.00000 0.09000
C 	C 	0.87990 0.47740 0.50000 0.09400
C 	C 	0.12010 0.52260 0.50000 0.09400
C 	C 	0.52260 0.12010 0.50000 0.09400
C 	C 	0.47740 0.87990 0.50000 0.09400
C 	C 	0.62010 0.97740 -0.00000 0.09600
C 	C 	0.37990 0.02260 -0.00000 0.09000
S 	S 	0.79229 0.79229 0.14329 -0.04800
S 	S 	0.62230 0.62230 0.33768 -0.06200
S 	S 	0.20771 0.20771 0.14329 -0.06100
S 	S 	0.37770 0.37770 0.33768 -0.06300
S 	S 	0.70771 0.29229 0.64329 -0.05400
S 	S 	0.87770 0.12230 0.83768 -0.06100
S 	S 	0.29229 0.70771 0.64329 -0.05400
S 	S 	0.12230 0.87770 0.83768 -0.06100
S 	S 	0.70771 0.29229 0.35671 -0.05400
S 	S 	0.87770 0.12230 0.16232 -0.06300
S 	S 	0.29229 0.70771 0.35671 -0.05400
S 	S 	0.12230 0.87770 0.16232 -0.06300
S 	S 	0.79229 0.79229 0.85671 -0.04600
S 	S 	0.62230 0.62230 0.66232 -0.06200
S 	S 	0.20771 0.20771 0.85671 -0.05900
S 	S 	0.37770 0.37770 0.66232 -0.06300
S 	S 	0.97240 0.68007 -0.00000 -0.04400
S 	S 	0.02760 0.31993 -0.00000 -0.06500
S 	S 	0.81993 0.47240 0.50000 -0.05100
S 	S 	0.18007 0.52760 0.50000 -0.05300
S 	S 	0.52760 0.18007 0.50000 -0.05300
S 	S 	0.47240 0.81993 0.50000 -0.05100
S 	S 	0.68007 0.97240 -0.00000 -0.04400
S 	S 	0.31993 0.02760 -0.00000 -0.06500
N 	N 	0.84337 0.41809 0.85127 -0.13900
N 	N 	0.71583 0.63007 0.78902 -0.23600
N 	N 	0.81328 0.50076 0.86033 -0.14300
N 	N 	0.94503 0.48599 0.95711 -0.23600
N 	N 	0.78374 0.45221 0.80992 -0.14100
N 	N 	0.80540 0.27451 0.76488 -0.23900
N 	N 	0.15663 0.58191 0.85127 -0.14000
N 	N 	0.28417 0.36993 0.78902 -0.23600
N 	N 	0.18672 0.49924 0.86033 -0.14300
N 	N 	0.05497 0.51401 0.95711 -0.24100
N 	N 	0.21626 0.54779 0.80992 -0.14100
N 	N 	0.19460 0.72549 0.76488 -0.23900
N 	N 	0.08191 0.34337 0.35127 -0.13800
N 	N 	0.86993 0.21583 0.28902 -0.23900
N 	N 	0.99924 0.31328 0.36033 -0.12600
N 	N 	0.01401 0.44503 0.45711 -0.24700
N 	N 	0.04779 0.28374 0.30992 -0.13900
N 	N 	0.22549 0.30540 0.26488 -0.23900
N 	N 	0.91809 0.65663 0.35127 -0.14100
N 	N 	0.13007 0.78417 0.28902 -0.23300
N 	N 	0.00076 0.68672 0.36033 -0.16000
N 	N 	0.98599 0.55497 0.45711 -0.23100
N 	N 	0.95221 0.71626 0.30992 -0.14200
N 	N 	0.77451 0.69460 0.26488 -0.23900
N 	N 	0.65663 0.91809 0.64873 -0.14100
N 	N 	0.78417 0.13007 0.71098 -0.23300
N 	N 	0.68672 0.00076 0.63967 -0.16000
N 	N 	0.55497 0.98599 0.54289 -0.23100
N 	N 	0.71626 0.95221 0.69008 -0.14200
N 	N 	0.69460 0.77451 0.73512 -0.23900
N 	N 	0.34337 0.08191 0.64873 -0.13800
N 	N 	0.21583 0.86993 0.71098 -0.23900
N 	N 	0.31328 0.99924 0.63967 -0.12600
N 	N 	0.44503 0.01401 0.54289 -0.24700
N 	N 	0.28374 0.04779 0.69008 -0.13900
N 	N 	0.30540 0.22549 0.73512 -0.23900
N 	N 	0.41809 0.84337 0.14873 -0.13900
N 	N 	0.63007 0.71583 0.21098 -0.23600
N 	N 	0.50076 0.81328 0.13967 -0.14300
N 	N 	0.48599 0.94503 0.04289 -0.23700
N 	N 	0.45221 0.78374 0.19008 -0.14100
N 	N 	0.27451 0.80540 0.23512 -0.23900
N 	N 	0.58191 0.15663 0.14873 -0.14000
N 	N 	0.36993 0.28417 0.21098 -0.23600
N 	N 	0.49924 0.18672 0.13967 -0.14400
N 	N 	0.51401 0.05497 0.04289 -0.24200
N 	N 	0.54779 0.21626 0.19008 -0.14100
N 	N 	0.72549 0.19460 0.23512 -0.23900
N 	N 	0.15663 0.58191 0.14873 -0.14000
N 	N 	0.28417 0.36993 0.21098 -0.23600
N 	N 	0.18672 0.49924 0.13967 -0.14400
N 	N 	0.05497 0.51401 0.04289 -0.24200
N 	N 	0.21626 0.54779 0.19008 -0.14100
N 	N 	0.19460 0.72549 0.23512 -0.23900
N 	N 	0.84337 0.41809 0.14873 -0.13900
N 	N 	0.71583 0.63007 0.21098 -0.23600
N 	N 	0.81328 0.50076 0.13967 -0.14300
N 	N 	0.94503 0.48599 0.04289 -0.23700
N 	N 	0.78374 0.45221 0.19008 -0.14100
N 	N 	0.80540 0.27451 0.23512 -0.23900
N 	N 	0.91809 0.65663 0.64873 -0.14100
N 	N 	0.13007 0.78417 0.71098 -0.23300
N 	N 	0.00076 0.68672 0.63967 -0.16000
N 	N 	0.98599 0.55497 0.54289 -0.23100
N 	N 	0.95221 0.71626 0.69008 -0.14200
N 	N 	0.77451 0.69460 0.73512 -0.23900
N 	N 	0.08191 0.34337 0.64873 -0.13800
N 	N 	0.86993 0.21583 0.71098 -0.23900
N 	N 	0.99924 0.31328 0.63967 -0.12600
N 	N 	0.01401 0.44503 0.54289 -0.24700
N 	N 	0.04779 0.28374 0.69008 -0.13900
N 	N 	0.22549 0.30540 0.73512 -0.23900
N 	N 	0.34337 0.08191 0.35127 -0.13800
N 	N 	0.21583 0.86993 0.28902 -0.23900
N 	N 	0.31328 0.99924 0.36033 -0.12600
N 	N 	0.44503 0.01401 0.45711 -0.24700
N 	N 	0.28374 0.04779 0.30992 -0.13900
N 	N 	0.30540 0.22549 0.26488 -0.23900
N 	N 	0.65663 0.91809 0.35127 -0.14100
N 	N 	0.78417 0.13007 0.28902 -0.23300
N 	N 	0.68672 0.00076 0.36033 -0.16000
N 	N 	0.55497 0.98599 0.45711 -0.23100
N 	N 	0.71626 0.95221 0.30992 -0.14200
N 	N 	0.69460 0.77451 0.26488 -0.23900
N 	N 	0.58191 0.15663 0.85127 -0.14000
N 	N 	0.36993 0.28417 0.78902 -0.23600
N 	N 	0.49924 0.18672 0.86033 -0.14300
N 	N 	0.51401 0.05497 0.95711 -0.24100
N 	N 	0.54779 0.21626 0.80992 -0.14100
N 	N 	0.72549 0.19460 0.76488 -0.23900
N 	N 	0.41809 0.84337 0.85127 -0.13900
N 	N 	0.63007 0.71583 0.78902 -0.23600
N 	N 	0.50076 0.81328 0.86033 -0.14300
N 	N 	0.48599 0.94503 0.95711 -0.23600
N 	N 	0.45221 0.78374 0.80992 -0.14100
N 	N 	0.27451 0.80540 0.76488 -0.23900
N 	N 	0.66640 0.66640 0.27938 -0.27700
N 	N 	0.73770 0.73770 0.19480 -0.26400
N 	N 	0.33360 0.33360 0.27938 -0.27700
N 	N 	0.26230 0.26230 0.19480 -0.26500
N 	N 	0.83360 0.16640 0.77938 -0.27700
N 	N 	0.76230 0.23770 0.69480 -0.26400
N 	N 	0.16640 0.83360 0.77938 -0.27700
N 	N 	0.23770 0.76230 0.69480 -0.26400
N 	N 	0.83360 0.16640 0.22062 -0.27700
N 	N 	0.76230 0.23770 0.30520 -0.26400
N 	N 	0.16640 0.83360 0.22062 -0.27700
N 	N 	0.23770 0.76230 0.30520 -0.26400
N 	N 	0.66640 0.66640 0.72062 -0.27700
N 	N 	0.73770 0.73770 0.80520 -0.26400
N 	N 	0.33360 0.33360 0.72062 -0.27700
N 	N 	0.26230 0.26230 0.80520 -0.26500
N 	N 	0.98027 0.57557 -0.00000 -0.25600
N 	N 	0.01973 0.42443 -0.00000 -0.26500
N 	N 	0.92443 0.48027 0.50000 -0.25700
N 	N 	0.07557 0.51973 0.50000 -0.26100
N 	N 	0.51973 0.07557 0.50000 -0.26100
N 	N 	0.48027 0.92443 0.50000 -0.25700
N 	N 	0.57557 0.98027 -0.00000 -0.25600
N 	N 	0.42443 0.01973 -0.00000 -0.26500
