data_crystal

_cell_length_a 53.01320
_cell_length_b 53.01320
_cell_length_c 53.01320
_cell_angle_alpha 60.00000
_cell_angle_beta  60.00000
_cell_angle_gamma 60.00000

_symmetry_space_group_name_	'P 1'
_symmetry_space_group_name_H-M	'P 1'

loop_
_symmetry_equiv_pos_as_xyz
  x,y,z

loop_
_atom_site_label
_atom_site_type_symbol
_atom_site_fract_x
_atom_site_fract_y
_atom_site_fract_z
_atom_site_charge
N 	N 	0.70195 0.48317 0.65703 -0.13900
C 	C 	0.68661 0.48305 0.68627 0.10200
N 	N 	0.73033 0.49249 0.72839 -0.23900
C 	C 	0.74636 0.48368 0.70376 0.08100
H 	H 	0.76810 0.47930 0.69570 -0.00700
C 	C 	0.73343 0.48047 0.68897 -0.12900
H 	H 	0.74580 0.47500 0.67080 0.08300
C 	C 	0.70267 0.48523 0.70085 0.06000
C 	C 	0.68522 0.49454 0.72674 -0.12300
H 	H 	0.66360 0.49840 0.73540 0.08200
C 	C 	0.70001 0.49805 0.73955 0.07300
H 	H 	0.68800 0.50480 0.75700 -0.00600
N 	N 	0.79014 0.50098 0.71132 -0.25800
C 	C 	0.80874 0.51038 0.68992 0.09800
S 	S 	0.83426 0.52576 0.65934 -0.05100
N 	N 	0.77266 0.45030 0.76928 -0.23600
C 	C 	0.79594 0.43402 0.75100 0.07200
H 	H 	0.80190 0.44430 0.72930 -0.00400
C 	C 	0.81176 0.40300 0.76200 -0.12100
H 	H 	0.82840 0.39240 0.74820 0.08000
C 	C 	0.80299 0.38779 0.79333 0.05600
C 	C 	0.77793 0.40423 0.81293 -0.12000
H 	H 	0.77060 0.39420 0.83460 0.08100
C 	C 	0.76438 0.43502 0.79998 0.07100
H 	H 	0.74810 0.44650 0.81330 -0.00300
C 	C 	0.82022 0.31032 0.84686 0.10200
N 	N 	0.80372 0.33920 0.83448 -0.13800
C 	C 	0.81966 0.35506 0.80714 0.10000
N 	N 	0.84987 0.34389 0.79179 -0.13700
C 	C 	0.86374 0.31434 0.80636 0.10300
N 	N 	0.85026 0.29652 0.83352 -0.13900
N 	N 	0.77390 0.26526 0.93968 -0.23500
C 	C 	0.75818 0.29034 0.92152 0.06600
H 	H 	0.73640 0.29860 0.93020 -0.00300
C 	C 	0.77240 0.30462 0.89082 -0.11600
H 	H 	0.76060 0.32240 0.87860 0.08000
C 	C 	0.80414 0.29274 0.87808 0.05400
C 	C 	0.82017 0.26585 0.89619 -0.12000
H 	H 	0.84180 0.25640 0.88780 0.08000
C 	C 	0.80425 0.25295 0.92657 0.07200
H 	H 	0.81540 0.23440 0.93880 -0.00200
N 	N 	0.96071 0.27315 0.76587 -0.23300
C 	C 	0.94239 0.25625 0.78779 0.07100
H 	H 	0.95160 0.23440 0.79420 -0.00300
C 	C 	0.91133 0.26853 0.80143 -0.11900
H 	H 	0.89950 0.25550 0.81730 0.08100
C 	C 	0.89740 0.30036 0.79174 0.05300
C 	C 	0.91577 0.31841 0.76767 -0.11700
H 	H 	0.90680 0.34020 0.75960 0.07900
C 	C 	0.94703 0.30395 0.75595 0.06900
H 	H 	0.95950 0.31630 0.74010 -0.00200
N 	N 	0.71468 0.29228 0.98648 -0.25400
C 	C 	0.70922 0.31912 0.97692 0.08400
S 	S 	0.70247 0.35605 0.96377 -0.04800
N 	N 	0.48317 0.70195 0.65785 -0.13900
C 	C 	0.48305 0.68661 0.64407 0.10200
N 	N 	0.49249 0.73033 0.54879 -0.23900
C 	C 	0.48368 0.74636 0.56620 0.08100
H 	H 	0.47930 0.76810 0.55690 -0.00700
C 	C 	0.48047 0.73343 0.59713 -0.12900
H 	H 	0.47500 0.74580 0.60840 0.08300
C 	C 	0.48523 0.70267 0.61125 0.06000
C 	C 	0.49454 0.68522 0.59350 -0.12300
H 	H 	0.49840 0.66360 0.60260 0.08200
C 	C 	0.49805 0.70001 0.56239 0.07300
H 	H 	0.50480 0.68800 0.55020 -0.00600
N 	N 	0.50098 0.79014 0.49756 -0.25800
C 	C 	0.51038 0.80874 0.49096 0.09800
S 	S 	0.52576 0.83426 0.48064 -0.05100
N 	N 	0.45030 0.77266 0.50776 -0.23600
C 	C 	0.43402 0.79594 0.51904 0.07200
H 	H 	0.44430 0.80190 0.52450 -0.00400
C 	C 	0.40300 0.81176 0.52324 -0.12200
H 	H 	0.39240 0.82840 0.53100 0.07900
C 	C 	0.38779 0.80299 0.51589 0.05500
C 	C 	0.40423 0.77793 0.50491 -0.12100
H 	H 	0.39420 0.77060 0.50060 0.08000
C 	C 	0.43502 0.76438 0.50062 0.07000
H 	H 	0.44650 0.74810 0.49210 -0.00400
C 	C 	0.31032 0.82022 0.52260 0.10100
N 	N 	0.33920 0.80372 0.52260 -0.13900
C 	C 	0.35506 0.81966 0.51814 0.09900
N 	N 	0.34389 0.84987 0.51445 -0.13800
C 	C 	0.31434 0.86374 0.51556 0.10200
N 	N 	0.29652 0.85026 0.51970 -0.14000
N 	N 	0.26526 0.77390 0.52116 -0.23600
C 	C 	0.29034 0.75818 0.52996 0.06500
H 	H 	0.29860 0.73640 0.53480 -0.00400
C 	C 	0.30462 0.77240 0.53216 -0.11700
H 	H 	0.32240 0.76060 0.53840 0.07900
C 	C 	0.29274 0.80414 0.52504 0.05300
C 	C 	0.26585 0.82017 0.51779 -0.12100
H 	H 	0.25640 0.84180 0.51400 0.07900
C 	C 	0.25295 0.80425 0.51623 0.07100
H 	H 	0.23440 0.81540 0.51140 -0.00300
N 	N 	0.27315 0.96071 0.50027 -0.23400
C 	C 	0.25625 0.94239 0.51357 0.07000
H 	H 	0.23440 0.95160 0.51980 -0.00400
C 	C 	0.26853 0.91133 0.51871 -0.12000
H 	H 	0.25550 0.89950 0.52770 0.08000
C 	C 	0.30036 0.89740 0.51050 0.05200
C 	C 	0.31841 0.91577 0.49815 -0.11800
H 	H 	0.34020 0.90680 0.49340 0.07800
C 	C 	0.30395 0.94703 0.49307 0.06800
H 	H 	0.31630 0.95950 0.48410 -0.00300
N 	N 	0.29228 0.71468 0.50656 -0.25500
C 	C 	0.31912 0.70922 0.49474 0.08300
S 	S 	0.35605 0.70247 0.47771 -0.04900
N 	N 	0.65703 0.65785 0.70195 -0.14000
C 	C 	0.68627 0.64407 0.68661 0.10100
N 	N 	0.72839 0.54879 0.73033 -0.24000
C 	C 	0.70376 0.56620 0.74636 0.08000
H 	H 	0.69570 0.55690 0.76810 -0.00800
C 	C 	0.68897 0.59713 0.73343 -0.13000
H 	H 	0.67080 0.60840 0.74580 0.08200
C 	C 	0.70085 0.61125 0.70267 0.05900
C 	C 	0.72674 0.59350 0.68522 -0.12400
H 	H 	0.73540 0.60260 0.66360 0.08100
C 	C 	0.73955 0.56239 0.70001 0.07200
H 	H 	0.75700 0.55020 0.68800 -0.00700
N 	N 	0.71132 0.49756 0.79014 -0.25900
C 	C 	0.68992 0.49096 0.80874 0.09700
S 	S 	0.65934 0.48064 0.83426 -0.05200
N 	N 	0.76928 0.50776 0.77266 -0.23700
C 	C 	0.75100 0.51904 0.79594 0.07100
H 	H 	0.72930 0.52450 0.80190 -0.00500
C 	C 	0.76200 0.52324 0.81176 -0.12200
H 	H 	0.74820 0.53100 0.82840 0.07900
C 	C 	0.79333 0.51589 0.80299 0.05500
C 	C 	0.81293 0.50491 0.77793 -0.12100
H 	H 	0.83460 0.50060 0.77060 0.08000
C 	C 	0.79998 0.50062 0.76438 0.07000
H 	H 	0.81330 0.49210 0.74810 -0.00400
C 	C 	0.84686 0.52260 0.82022 0.10100
N 	N 	0.83448 0.52260 0.80372 -0.13900
C 	C 	0.80714 0.51814 0.81966 0.09900
N 	N 	0.79179 0.51445 0.84987 -0.13800
C 	C 	0.80636 0.51556 0.86374 0.10200
N 	N 	0.83352 0.51970 0.85026 -0.14000
N 	N 	0.93968 0.52116 0.77390 -0.23600
C 	C 	0.92152 0.52996 0.75818 0.06500
H 	H 	0.93020 0.53480 0.73640 -0.00400
C 	C 	0.89082 0.53216 0.77240 -0.11700
H 	H 	0.87860 0.53840 0.76060 0.07900
C 	C 	0.87808 0.52504 0.80414 0.05300
C 	C 	0.89619 0.51779 0.82017 -0.12100
H 	H 	0.88780 0.51400 0.84180 0.07900
C 	C 	0.92657 0.51623 0.80425 0.07100
H 	H 	0.93880 0.51140 0.81540 -0.00300
N 	N 	0.76587 0.50027 0.96071 -0.23400
C 	C 	0.78779 0.51357 0.94239 0.07000
H 	H 	0.79420 0.51980 0.95160 -0.00400
C 	C 	0.80143 0.51871 0.91133 -0.12000
H 	H 	0.81730 0.52770 0.89950 0.08000
C 	C 	0.79174 0.51050 0.89740 0.05200
C 	C 	0.76767 0.49815 0.91577 -0.11800
H 	H 	0.75960 0.49340 0.90680 0.07800
C 	C 	0.75595 0.49307 0.94703 0.06800
H 	H 	0.74010 0.48410 0.95950 -0.00300
N 	N 	0.98648 0.50656 0.71468 -0.25500
C 	C 	0.97692 0.49474 0.70922 0.08300
S 	S 	0.96377 0.47771 0.70247 -0.04900
N 	N 	0.65785 0.65703 0.48317 -0.14000
C 	C 	0.64407 0.68627 0.48305 0.10100
N 	N 	0.54879 0.72839 0.49249 -0.24000
C 	C 	0.56620 0.70376 0.48368 0.08000
H 	H 	0.55690 0.69570 0.47930 -0.00800
C 	C 	0.59713 0.68897 0.48047 -0.13000
H 	H 	0.60840 0.67080 0.47500 0.08200
C 	C 	0.61125 0.70085 0.48523 0.05900
C 	C 	0.59350 0.72674 0.49454 -0.12400
H 	H 	0.60260 0.73540 0.49840 0.08100
C 	C 	0.56239 0.73955 0.49805 0.07200
H 	H 	0.55020 0.75700 0.50480 -0.00700
N 	N 	0.49756 0.71132 0.50098 -0.25900
C 	C 	0.49096 0.68992 0.51038 0.09700
S 	S 	0.48064 0.65934 0.52576 -0.05200
N 	N 	0.50776 0.76928 0.45030 -0.23700
C 	C 	0.51904 0.75100 0.43402 0.07100
H 	H 	0.52450 0.72930 0.44430 -0.00500
C 	C 	0.52324 0.76200 0.40300 -0.12200
H 	H 	0.53100 0.74820 0.39240 0.07900
C 	C 	0.51589 0.79333 0.38779 0.05500
C 	C 	0.50491 0.81293 0.40423 -0.12100
H 	H 	0.50060 0.83460 0.39420 0.08000
C 	C 	0.50062 0.79998 0.43502 0.07000
H 	H 	0.49210 0.81330 0.44650 -0.00400
C 	C 	0.52260 0.84686 0.31032 0.10100
N 	N 	0.52260 0.83448 0.33920 -0.13900
C 	C 	0.51814 0.80714 0.35506 0.09900
N 	N 	0.51445 0.79179 0.34389 -0.13800
C 	C 	0.51556 0.80636 0.31434 0.10200
N 	N 	0.51970 0.83352 0.29652 -0.14000
N 	N 	0.52116 0.93968 0.26526 -0.23600
C 	C 	0.52996 0.92152 0.29034 0.06500
H 	H 	0.53480 0.93020 0.29860 -0.00400
C 	C 	0.53216 0.89082 0.30462 -0.11700
H 	H 	0.53840 0.87860 0.32240 0.07900
C 	C 	0.52504 0.87808 0.29274 0.05300
C 	C 	0.51779 0.89619 0.26585 -0.12100
H 	H 	0.51400 0.88780 0.25640 0.07900
C 	C 	0.51623 0.92657 0.25295 0.07100
H 	H 	0.51140 0.93880 0.23440 -0.00300
N 	N 	0.50027 0.76587 0.27315 -0.23400
C 	C 	0.51357 0.78779 0.25625 0.07000
H 	H 	0.51980 0.79420 0.23440 -0.00400
C 	C 	0.51871 0.80143 0.26853 -0.12000
H 	H 	0.52770 0.81730 0.25550 0.08000
C 	C 	0.51050 0.79174 0.30036 0.05200
C 	C 	0.49815 0.76767 0.31841 -0.11800
H 	H 	0.49340 0.75960 0.34020 0.07800
C 	C 	0.49307 0.75595 0.30395 0.06800
H 	H 	0.48410 0.74010 0.31630 -0.00300
N 	N 	0.50656 0.98648 0.29228 -0.25500
C 	C 	0.49474 0.97692 0.31912 0.08300
S 	S 	0.47771 0.96377 0.35605 -0.04900
N 	N 	0.65703 0.70195 0.48317 -0.14000
C 	C 	0.68627 0.68661 0.48305 0.10100
N 	N 	0.72839 0.73033 0.49249 -0.24000
C 	C 	0.70376 0.74636 0.48368 0.08000
H 	H 	0.69570 0.76810 0.47930 -0.00800
C 	C 	0.68897 0.73343 0.48047 -0.13000
H 	H 	0.67080 0.74580 0.47500 0.08200
C 	C 	0.70085 0.70267 0.48523 0.05900
C 	C 	0.72674 0.68522 0.49454 -0.12400
H 	H 	0.73540 0.66360 0.49840 0.08100
C 	C 	0.73955 0.70001 0.49805 0.07200
H 	H 	0.75700 0.68800 0.50480 -0.00700
N 	N 	0.71132 0.79014 0.50098 -0.25900
C 	C 	0.68992 0.80874 0.51038 0.09700
S 	S 	0.65934 0.83426 0.52576 -0.05200
N 	N 	0.76928 0.77266 0.45030 -0.23700
C 	C 	0.75100 0.79594 0.43402 0.07100
H 	H 	0.72930 0.80190 0.44430 -0.00500
C 	C 	0.76200 0.81176 0.40300 -0.12200
H 	H 	0.74820 0.82840 0.39240 0.07900
C 	C 	0.79333 0.80299 0.38779 0.05500
C 	C 	0.81293 0.77793 0.40423 -0.12100
H 	H 	0.83460 0.77060 0.39420 0.08000
C 	C 	0.79998 0.76438 0.43502 0.07000
H 	H 	0.81330 0.74810 0.44650 -0.00400
C 	C 	0.84686 0.82022 0.31032 0.10100
N 	N 	0.83448 0.80372 0.33920 -0.13900
C 	C 	0.80714 0.81966 0.35506 0.09900
N 	N 	0.79179 0.84987 0.34389 -0.13800
C 	C 	0.80636 0.86374 0.31434 0.10200
N 	N 	0.83352 0.85026 0.29652 -0.14000
N 	N 	0.93968 0.77390 0.26526 -0.23600
C 	C 	0.92152 0.75818 0.29034 0.06500
H 	H 	0.93020 0.73640 0.29860 -0.00400
C 	C 	0.89082 0.77240 0.30462 -0.11700
H 	H 	0.87860 0.76060 0.32240 0.07900
C 	C 	0.87808 0.80414 0.29274 0.05300
C 	C 	0.89619 0.82017 0.26585 -0.12100
H 	H 	0.88780 0.84180 0.25640 0.07900
C 	C 	0.92657 0.80425 0.25295 0.07100
H 	H 	0.93880 0.81540 0.23440 -0.00300
N 	N 	0.76587 0.96071 0.27315 -0.23400
C 	C 	0.78779 0.94239 0.25625 0.07000
H 	H 	0.79420 0.95160 0.23440 -0.00400
C 	C 	0.80143 0.91133 0.26853 -0.12000
H 	H 	0.81730 0.89950 0.25550 0.08000
C 	C 	0.79174 0.89740 0.30036 0.05200
C 	C 	0.76767 0.91577 0.31841 -0.11800
H 	H 	0.75960 0.90680 0.34020 0.07800
C 	C 	0.75595 0.94703 0.30395 0.06800
H 	H 	0.74010 0.95950 0.31630 -0.00300
N 	N 	0.98648 0.71468 0.29228 -0.25500
C 	C 	0.97692 0.70922 0.31912 0.08300
S 	S 	0.96377 0.70247 0.35605 -0.04900
N 	N 	0.65785 0.48317 0.70195 -0.14000
C 	C 	0.64407 0.48305 0.68661 0.10100
N 	N 	0.54879 0.49249 0.73033 -0.24000
C 	C 	0.56620 0.48368 0.74636 0.08000
H 	H 	0.55690 0.47930 0.76810 -0.00800
C 	C 	0.59713 0.48047 0.73343 -0.13000
H 	H 	0.60840 0.47500 0.74580 0.08200
C 	C 	0.61125 0.48523 0.70267 0.05900
C 	C 	0.59350 0.49454 0.68522 -0.12400
H 	H 	0.60260 0.49840 0.66360 0.08100
C 	C 	0.56239 0.49805 0.70001 0.07200
H 	H 	0.55020 0.50480 0.68800 -0.00700
N 	N 	0.49756 0.50098 0.79014 -0.25900
C 	C 	0.49096 0.51038 0.80874 0.09700
S 	S 	0.48064 0.52576 0.83426 -0.05200
N 	N 	0.50776 0.45030 0.77266 -0.23700
C 	C 	0.51904 0.43402 0.79594 0.07100
H 	H 	0.52450 0.44430 0.80190 -0.00500
C 	C 	0.52324 0.40300 0.81176 -0.12200
H 	H 	0.53100 0.39240 0.82840 0.07900
C 	C 	0.51589 0.38779 0.80299 0.05500
C 	C 	0.50491 0.40423 0.77793 -0.12100
H 	H 	0.50060 0.39420 0.77060 0.08000
C 	C 	0.50062 0.43502 0.76438 0.07000
H 	H 	0.49210 0.44650 0.74810 -0.00400
C 	C 	0.52260 0.31032 0.82022 0.10100
N 	N 	0.52260 0.33920 0.80372 -0.13900
C 	C 	0.51814 0.35506 0.81966 0.09900
N 	N 	0.51445 0.34389 0.84987 -0.13800
C 	C 	0.51556 0.31434 0.86374 0.10200
N 	N 	0.51970 0.29652 0.85026 -0.14000
N 	N 	0.52116 0.26526 0.77390 -0.23600
C 	C 	0.52996 0.29034 0.75818 0.06500
H 	H 	0.53480 0.29860 0.73640 -0.00400
C 	C 	0.53216 0.30462 0.77240 -0.11700
H 	H 	0.53840 0.32240 0.76060 0.07900
C 	C 	0.52504 0.29274 0.80414 0.05300
C 	C 	0.51779 0.26585 0.82017 -0.12100
H 	H 	0.51400 0.25640 0.84180 0.07900
C 	C 	0.51623 0.25295 0.80425 0.07100
H 	H 	0.51140 0.23440 0.81540 -0.00300
N 	N 	0.50027 0.27315 0.96071 -0.23400
C 	C 	0.51357 0.25625 0.94239 0.07000
H 	H 	0.51980 0.23440 0.95160 -0.00400
C 	C 	0.51871 0.26853 0.91133 -0.12000
H 	H 	0.52770 0.25550 0.89950 0.08000
C 	C 	0.51050 0.30036 0.89740 0.05200
C 	C 	0.49815 0.31841 0.91577 -0.11800
H 	H 	0.49340 0.34020 0.90680 0.07800
C 	C 	0.49307 0.30395 0.94703 0.06800
H 	H 	0.48410 0.31630 0.95950 -0.00300
N 	N 	0.50656 0.29228 0.71468 -0.25500
C 	C 	0.49474 0.31912 0.70922 0.08300
S 	S 	0.47771 0.35605 0.70247 -0.04900
N 	N 	0.70195 0.65703 0.65785 -0.14000
C 	C 	0.68661 0.68627 0.64407 0.10100
N 	N 	0.73033 0.72839 0.54879 -0.24000
C 	C 	0.74636 0.70376 0.56620 0.08000
H 	H 	0.76810 0.69570 0.55690 -0.00800
C 	C 	0.73343 0.68897 0.59713 -0.13000
H 	H 	0.74580 0.67080 0.60840 0.08200
C 	C 	0.70267 0.70085 0.61125 0.05900
C 	C 	0.68522 0.72674 0.59350 -0.12400
H 	H 	0.66360 0.73540 0.60260 0.08100
C 	C 	0.70001 0.73955 0.56239 0.07200
H 	H 	0.68800 0.75700 0.55020 -0.00700
N 	N 	0.79014 0.71132 0.49756 -0.25900
C 	C 	0.80874 0.68992 0.49096 0.09700
S 	S 	0.83426 0.65934 0.48064 -0.05200
N 	N 	0.77266 0.76928 0.50776 -0.23700
C 	C 	0.79594 0.75100 0.51904 0.07100
H 	H 	0.80190 0.72930 0.52450 -0.00500
C 	C 	0.81176 0.76200 0.52324 -0.12200
H 	H 	0.82840 0.74820 0.53100 0.07900
C 	C 	0.80299 0.79333 0.51589 0.05500
C 	C 	0.77793 0.81293 0.50491 -0.12100
H 	H 	0.77060 0.83460 0.50060 0.08000
C 	C 	0.76438 0.79998 0.50062 0.07000
H 	H 	0.74810 0.81330 0.49210 -0.00400
C 	C 	0.82022 0.84686 0.52260 0.10100
N 	N 	0.80372 0.83448 0.52260 -0.13900
C 	C 	0.81966 0.80714 0.51814 0.09900
N 	N 	0.84987 0.79179 0.51445 -0.13800
C 	C 	0.86374 0.80636 0.51556 0.10200
N 	N 	0.85026 0.83352 0.51970 -0.14000
N 	N 	0.77390 0.93968 0.52116 -0.23600
C 	C 	0.75818 0.92152 0.52996 0.06500
H 	H 	0.73640 0.93020 0.53480 -0.00400
C 	C 	0.77240 0.89082 0.53216 -0.11700
H 	H 	0.76060 0.87860 0.53840 0.07900
C 	C 	0.80414 0.87808 0.52504 0.05300
C 	C 	0.82017 0.89619 0.51779 -0.12100
H 	H 	0.84180 0.88780 0.51400 0.07900
C 	C 	0.80425 0.92657 0.51623 0.07100
H 	H 	0.81540 0.93880 0.51140 -0.00300
N 	N 	0.96071 0.76587 0.50027 -0.23400
C 	C 	0.94239 0.78779 0.51357 0.07000
H 	H 	0.95160 0.79420 0.51980 -0.00400
C 	C 	0.91133 0.80143 0.51871 -0.12000
H 	H 	0.89950 0.81730 0.52770 0.08000
C 	C 	0.89740 0.79174 0.51050 0.05200
C 	C 	0.91577 0.76767 0.49815 -0.11800
H 	H 	0.90680 0.75960 0.49340 0.07800
C 	C 	0.94703 0.75595 0.49307 0.06800
H 	H 	0.95950 0.74010 0.48410 -0.00300
N 	N 	0.71468 0.98648 0.50656 -0.25500
C 	C 	0.70922 0.97692 0.49474 0.08300
S 	S 	0.70247 0.96377 0.47771 -0.04900
N 	N 	0.48317 0.65785 0.65703 -0.14000
C 	C 	0.48305 0.64407 0.68627 0.10100
N 	N 	0.49249 0.54879 0.72839 -0.24000
C 	C 	0.48368 0.56620 0.70376 0.08000
H 	H 	0.47930 0.55690 0.69570 -0.00800
C 	C 	0.48047 0.59713 0.68897 -0.13000
H 	H 	0.47500 0.60840 0.67080 0.08200
C 	C 	0.48523 0.61125 0.70085 0.05900
C 	C 	0.49454 0.59350 0.72674 -0.12400
H 	H 	0.49840 0.60260 0.73540 0.08100
C 	C 	0.49805 0.56239 0.73955 0.07200
H 	H 	0.50480 0.55020 0.75700 -0.00700
N 	N 	0.50098 0.49756 0.71132 -0.25900
C 	C 	0.51038 0.49096 0.68992 0.09700
S 	S 	0.52576 0.48064 0.65934 -0.05200
N 	N 	0.45030 0.50776 0.76928 -0.23700
C 	C 	0.43402 0.51904 0.75100 0.07100
H 	H 	0.44430 0.52450 0.72930 -0.00500
C 	C 	0.40300 0.52324 0.76200 -0.12200
H 	H 	0.39240 0.53100 0.74820 0.07900
C 	C 	0.38779 0.51589 0.79333 0.05500
C 	C 	0.40423 0.50491 0.81293 -0.12100
H 	H 	0.39420 0.50060 0.83460 0.08000
C 	C 	0.43502 0.50062 0.79998 0.07000
H 	H 	0.44650 0.49210 0.81330 -0.00400
C 	C 	0.31032 0.52260 0.84686 0.10100
N 	N 	0.33920 0.52260 0.83448 -0.13900
C 	C 	0.35506 0.51814 0.80714 0.09900
N 	N 	0.34389 0.51445 0.79179 -0.13800
C 	C 	0.31434 0.51556 0.80636 0.10200
N 	N 	0.29652 0.51970 0.83352 -0.14000
N 	N 	0.26526 0.52116 0.93968 -0.23600
C 	C 	0.29034 0.52996 0.92152 0.06500
H 	H 	0.29860 0.53480 0.93020 -0.00400
C 	C 	0.30462 0.53216 0.89082 -0.11700
H 	H 	0.32240 0.53840 0.87860 0.07900
C 	C 	0.29274 0.52504 0.87808 0.05300
C 	C 	0.26585 0.51779 0.89619 -0.12100
H 	H 	0.25640 0.51400 0.88780 0.07900
C 	C 	0.25295 0.51623 0.92657 0.07100
H 	H 	0.23440 0.51140 0.93880 -0.00300
N 	N 	0.27315 0.50027 0.76587 -0.23400
C 	C 	0.25625 0.51357 0.78779 0.07000
H 	H 	0.23440 0.51980 0.79420 -0.00400
C 	C 	0.26853 0.51871 0.80143 -0.12000
H 	H 	0.25550 0.52770 0.81730 0.08000
C 	C 	0.30036 0.51050 0.79174 0.05200
C 	C 	0.31841 0.49815 0.76767 -0.11800
H 	H 	0.34020 0.49340 0.75960 0.07800
C 	C 	0.30395 0.49307 0.75595 0.06800
H 	H 	0.31630 0.48410 0.74010 -0.00300
N 	N 	0.29228 0.50656 0.98648 -0.25500
C 	C 	0.31912 0.49474 0.97692 0.08300
S 	S 	0.35605 0.47771 0.96377 -0.04900
N 	N 	0.48317 0.65703 0.70195 -0.14000
C 	C 	0.48305 0.68627 0.68661 0.10100
N 	N 	0.49249 0.72839 0.73033 -0.24000
C 	C 	0.48368 0.70376 0.74636 0.08000
H 	H 	0.47930 0.69570 0.76810 -0.00800
C 	C 	0.48047 0.68897 0.73343 -0.13000
H 	H 	0.47500 0.67080 0.74580 0.08200
C 	C 	0.48523 0.70085 0.70267 0.05900
C 	C 	0.49454 0.72674 0.68522 -0.12400
H 	H 	0.49840 0.73540 0.66360 0.08100
C 	C 	0.49805 0.73955 0.70001 0.07200
H 	H 	0.50480 0.75700 0.68800 -0.00700
N 	N 	0.50098 0.71132 0.79014 -0.25900
C 	C 	0.51038 0.68992 0.80874 0.09700
S 	S 	0.52576 0.65934 0.83426 -0.05200
N 	N 	0.45030 0.76928 0.77266 -0.23700
C 	C 	0.43402 0.75100 0.79594 0.07100
H 	H 	0.44430 0.72930 0.80190 -0.00500
C 	C 	0.40300 0.76200 0.81176 -0.12200
H 	H 	0.39240 0.74820 0.82840 0.07900
C 	C 	0.38779 0.79333 0.80299 0.05500
C 	C 	0.40423 0.81293 0.77793 -0.12100
H 	H 	0.39420 0.83460 0.77060 0.08000
C 	C 	0.43502 0.79998 0.76438 0.07000
H 	H 	0.44650 0.81330 0.74810 -0.00400
C 	C 	0.31032 0.84686 0.82022 0.10100
N 	N 	0.33920 0.83448 0.80372 -0.13900
C 	C 	0.35506 0.80714 0.81966 0.09900
N 	N 	0.34389 0.79179 0.84987 -0.13800
C 	C 	0.31434 0.80636 0.86374 0.10200
N 	N 	0.29652 0.83352 0.85026 -0.14000
N 	N 	0.26526 0.93968 0.77390 -0.23600
C 	C 	0.29034 0.92152 0.75818 0.06500
H 	H 	0.29860 0.93020 0.73640 -0.00400
C 	C 	0.30462 0.89082 0.77240 -0.11700
H 	H 	0.32240 0.87860 0.76060 0.07900
C 	C 	0.29274 0.87808 0.80414 0.05300
C 	C 	0.26585 0.89619 0.82017 -0.12100
H 	H 	0.25640 0.88780 0.84180 0.07900
C 	C 	0.25295 0.92657 0.80425 0.07100
H 	H 	0.23440 0.93880 0.81540 -0.00300
N 	N 	0.27315 0.76587 0.96071 -0.23400
C 	C 	0.25625 0.78779 0.94239 0.07000
H 	H 	0.23440 0.79420 0.95160 -0.00400
C 	C 	0.26853 0.80143 0.91133 -0.12000
H 	H 	0.25550 0.81730 0.89950 0.08000
C 	C 	0.30036 0.79174 0.89740 0.05200
C 	C 	0.31841 0.76767 0.91577 -0.11800
H 	H 	0.34020 0.75960 0.90680 0.07800
C 	C 	0.30395 0.75595 0.94703 0.06800
H 	H 	0.31630 0.74010 0.95950 -0.00300
N 	N 	0.29228 0.98648 0.71468 -0.25500
C 	C 	0.31912 0.97692 0.70922 0.08300
S 	S 	0.35605 0.96377 0.70247 -0.04900
N 	N 	0.70195 0.65785 0.48317 -0.14000
C 	C 	0.68661 0.64407 0.48305 0.10100
N 	N 	0.73033 0.54879 0.49249 -0.24000
C 	C 	0.74636 0.56620 0.48368 0.08000
H 	H 	0.76810 0.55690 0.47930 -0.00800
C 	C 	0.73343 0.59713 0.48047 -0.13000
H 	H 	0.74580 0.60840 0.47500 0.08200
C 	C 	0.70267 0.61125 0.48523 0.05900
C 	C 	0.68522 0.59350 0.49454 -0.12400
H 	H 	0.66360 0.60260 0.49840 0.08100
C 	C 	0.70001 0.56239 0.49805 0.07200
H 	H 	0.68800 0.55020 0.50480 -0.00700
N 	N 	0.79014 0.49756 0.50098 -0.25900
C 	C 	0.80874 0.49096 0.51038 0.09700
S 	S 	0.83426 0.48064 0.52576 -0.05200
N 	N 	0.77266 0.50776 0.45030 -0.23700
C 	C 	0.79594 0.51904 0.43402 0.07100
H 	H 	0.80190 0.52450 0.44430 -0.00500
C 	C 	0.81176 0.52324 0.40300 -0.12200
H 	H 	0.82840 0.53100 0.39240 0.07900
C 	C 	0.80299 0.51589 0.38779 0.05500
C 	C 	0.77793 0.50491 0.40423 -0.12100
H 	H 	0.77060 0.50060 0.39420 0.08000
C 	C 	0.76438 0.50062 0.43502 0.07000
H 	H 	0.74810 0.49210 0.44650 -0.00400
C 	C 	0.82022 0.52260 0.31032 0.10100
N 	N 	0.80372 0.52260 0.33920 -0.13900
C 	C 	0.81966 0.51814 0.35506 0.09900
N 	N 	0.84987 0.51445 0.34389 -0.13800
C 	C 	0.86374 0.51556 0.31434 0.10200
N 	N 	0.85026 0.51970 0.29652 -0.14000
N 	N 	0.77390 0.52116 0.26526 -0.23600
C 	C 	0.75818 0.52996 0.29034 0.06500
H 	H 	0.73640 0.53480 0.29860 -0.00400
C 	C 	0.77240 0.53216 0.30462 -0.11700
H 	H 	0.76060 0.53840 0.32240 0.07900
C 	C 	0.80414 0.52504 0.29274 0.05300
C 	C 	0.82017 0.51779 0.26585 -0.12100
H 	H 	0.84180 0.51400 0.25640 0.07900
C 	C 	0.80425 0.51623 0.25295 0.07100
H 	H 	0.81540 0.51140 0.23440 -0.00300
N 	N 	0.96071 0.50027 0.27315 -0.23400
C 	C 	0.94239 0.51357 0.25625 0.07000
H 	H 	0.95160 0.51980 0.23440 -0.00400
C 	C 	0.91133 0.51871 0.26853 -0.12000
H 	H 	0.89950 0.52770 0.25550 0.08000
C 	C 	0.89740 0.51050 0.30036 0.05200
C 	C 	0.91577 0.49815 0.31841 -0.11800
H 	H 	0.90680 0.49340 0.34020 0.07800
C 	C 	0.94703 0.49307 0.30395 0.06800
H 	H 	0.95950 0.48410 0.31630 -0.00300
N 	N 	0.71468 0.50656 0.29228 -0.25500
C 	C 	0.70922 0.49474 0.31912 0.08300
S 	S 	0.70247 0.47771 0.35605 -0.04900
N 	N 	0.65785 0.70195 0.65703 -0.14000
C 	C 	0.64407 0.68661 0.68627 0.10100
N 	N 	0.54879 0.73033 0.72839 -0.24000
C 	C 	0.56620 0.74636 0.70376 0.08000
H 	H 	0.55690 0.76810 0.69570 -0.00800
C 	C 	0.59713 0.73343 0.68897 -0.13000
H 	H 	0.60840 0.74580 0.67080 0.08200
C 	C 	0.61125 0.70267 0.70085 0.05900
C 	C 	0.59350 0.68522 0.72674 -0.12400
H 	H 	0.60260 0.66360 0.73540 0.08100
C 	C 	0.56239 0.70001 0.73955 0.07200
H 	H 	0.55020 0.68800 0.75700 -0.00700
N 	N 	0.49756 0.79014 0.71132 -0.25900
C 	C 	0.49096 0.80874 0.68992 0.09700
S 	S 	0.48064 0.83426 0.65934 -0.05200
N 	N 	0.50776 0.77266 0.76928 -0.23700
C 	C 	0.51904 0.79594 0.75100 0.07100
H 	H 	0.52450 0.80190 0.72930 -0.00500
C 	C 	0.52324 0.81176 0.76200 -0.12200
H 	H 	0.53100 0.82840 0.74820 0.07900
C 	C 	0.51589 0.80299 0.79333 0.05500
C 	C 	0.50491 0.77793 0.81293 -0.12100
H 	H 	0.50060 0.77060 0.83460 0.08000
C 	C 	0.50062 0.76438 0.79998 0.07000
H 	H 	0.49210 0.74810 0.81330 -0.00400
C 	C 	0.52260 0.82022 0.84686 0.10100
N 	N 	0.52260 0.80372 0.83448 -0.13900
C 	C 	0.51814 0.81966 0.80714 0.09900
N 	N 	0.51445 0.84987 0.79179 -0.13800
C 	C 	0.51556 0.86374 0.80636 0.10200
N 	N 	0.51970 0.85026 0.83352 -0.14000
N 	N 	0.52116 0.77390 0.93968 -0.23600
C 	C 	0.52996 0.75818 0.92152 0.06500
H 	H 	0.53480 0.73640 0.93020 -0.00400
C 	C 	0.53216 0.77240 0.89082 -0.11700
H 	H 	0.53840 0.76060 0.87860 0.07900
C 	C 	0.52504 0.80414 0.87808 0.05300
C 	C 	0.51779 0.82017 0.89619 -0.12100
H 	H 	0.51400 0.84180 0.88780 0.07900
C 	C 	0.51623 0.80425 0.92657 0.07100
H 	H 	0.51140 0.81540 0.93880 -0.00300
N 	N 	0.50027 0.96071 0.76587 -0.23400
C 	C 	0.51357 0.94239 0.78779 0.07000
H 	H 	0.51980 0.95160 0.79420 -0.00400
C 	C 	0.51871 0.91133 0.80143 -0.12000
H 	H 	0.52770 0.89950 0.81730 0.08000
C 	C 	0.51050 0.89740 0.79174 0.05200
C 	C 	0.49815 0.91577 0.76767 -0.11800
H 	H 	0.49340 0.90680 0.75960 0.07800
C 	C 	0.49307 0.94703 0.75595 0.06800
H 	H 	0.48410 0.95950 0.74010 -0.00300
N 	N 	0.50656 0.71468 0.98648 -0.25500
C 	C 	0.49474 0.70922 0.97692 0.08300
S 	S 	0.47771 0.70247 0.96377 -0.04900
N 	N 	0.65703 0.48317 0.65785 -0.14000
C 	C 	0.68627 0.48305 0.64407 0.10100
N 	N 	0.72839 0.49249 0.54879 -0.24000
C 	C 	0.70376 0.48368 0.56620 0.08000
H 	H 	0.69570 0.47930 0.55690 -0.00800
C 	C 	0.68897 0.48047 0.59713 -0.13000
H 	H 	0.67080 0.47500 0.60840 0.08200
C 	C 	0.70085 0.48523 0.61125 0.05900
C 	C 	0.72674 0.49454 0.59350 -0.12400
H 	H 	0.73540 0.49840 0.60260 0.08100
C 	C 	0.73955 0.49805 0.56239 0.07200
H 	H 	0.75700 0.50480 0.55020 -0.00700
N 	N 	0.71132 0.50098 0.49756 -0.25900
C 	C 	0.68992 0.51038 0.49096 0.09700
S 	S 	0.65934 0.52576 0.48064 -0.05200
N 	N 	0.76928 0.45030 0.50776 -0.23700
C 	C 	0.75100 0.43402 0.51904 0.07100
H 	H 	0.72930 0.44430 0.52450 -0.00500
C 	C 	0.76200 0.40300 0.52324 -0.12200
H 	H 	0.74820 0.39240 0.53100 0.07900
C 	C 	0.79333 0.38779 0.51589 0.05500
C 	C 	0.81293 0.40423 0.50491 -0.12100
H 	H 	0.83460 0.39420 0.50060 0.08000
C 	C 	0.79998 0.43502 0.50062 0.07000
H 	H 	0.81330 0.44650 0.49210 -0.00400
C 	C 	0.84686 0.31032 0.52260 0.10100
N 	N 	0.83448 0.33920 0.52260 -0.13900
C 	C 	0.80714 0.35506 0.51814 0.09900
N 	N 	0.79179 0.34389 0.51445 -0.13800
C 	C 	0.80636 0.31434 0.51556 0.10200
N 	N 	0.83352 0.29652 0.51970 -0.14000
N 	N 	0.93968 0.26526 0.52116 -0.23600
C 	C 	0.92152 0.29034 0.52996 0.06500
H 	H 	0.93020 0.29860 0.53480 -0.00400
C 	C 	0.89082 0.30462 0.53216 -0.11700
H 	H 	0.87860 0.32240 0.53840 0.07900
C 	C 	0.87808 0.29274 0.52504 0.05300
C 	C 	0.89619 0.26585 0.51779 -0.12100
H 	H 	0.88780 0.25640 0.51400 0.07900
C 	C 	0.92657 0.25295 0.51623 0.07100
H 	H 	0.93880 0.23440 0.51140 -0.00300
N 	N 	0.76587 0.27315 0.50027 -0.23400
C 	C 	0.78779 0.25625 0.51357 0.07000
H 	H 	0.79420 0.23440 0.51980 -0.00400
C 	C 	0.80143 0.26853 0.51871 -0.12000
H 	H 	0.81730 0.25550 0.52770 0.08000
C 	C 	0.79174 0.30036 0.51050 0.05200
C 	C 	0.76767 0.31841 0.49815 -0.11800
H 	H 	0.75960 0.34020 0.49340 0.07800
C 	C 	0.75595 0.30395 0.49307 0.06800
H 	H 	0.74010 0.31630 0.48410 -0.00300
N 	N 	0.98648 0.29228 0.50656 -0.25500
C 	C 	0.97692 0.31912 0.49474 0.08300
S 	S 	0.96377 0.35605 0.47771 -0.04900
N 	N 	0.79805 0.01683 0.84215 -0.14000
C 	C 	0.81339 0.01695 0.85593 0.10100
N 	N 	0.76967 0.00751 0.95121 -0.24000
C 	C 	0.75364 0.01632 0.93380 0.08000
H 	H 	0.73190 0.02070 0.94310 -0.00800
C 	C 	0.76657 0.01953 0.90287 -0.13000
H 	H 	0.75420 0.02500 0.89160 0.08200
C 	C 	0.79733 0.01477 0.88875 0.05900
C 	C 	0.81478 0.00546 0.90650 -0.12400
H 	H 	0.83640 0.00160 0.89740 0.08100
C 	C 	0.79999 0.00195 0.93761 0.07200
H 	H 	0.81200 0.99520 0.94980 -0.00700
N 	N 	0.70986 0.99902 0.00244 -0.25900
C 	C 	0.69126 0.98962 0.00904 0.09700
S 	S 	0.66574 0.97424 0.01936 -0.05200
N 	N 	0.72734 0.04970 0.99224 -0.23700
C 	C 	0.70406 0.06598 0.98096 0.07100
H 	H 	0.69810 0.05570 0.97550 -0.00500
C 	C 	0.68824 0.09700 0.97676 -0.12200
H 	H 	0.67160 0.10760 0.96900 0.07900
C 	C 	0.69701 0.11221 0.98411 0.05500
C 	C 	0.72207 0.09577 0.99509 -0.12100
H 	H 	0.72940 0.10580 0.99940 0.08000
C 	C 	0.73562 0.06498 0.99938 0.07000
H 	H 	0.75190 0.05350 0.00790 -0.00400
C 	C 	0.67978 0.18968 0.97740 0.10100
N 	N 	0.69628 0.16080 0.97740 -0.13900
C 	C 	0.68034 0.14494 0.98186 0.09900
N 	N 	0.65013 0.15611 0.98555 -0.13800
C 	C 	0.63626 0.18566 0.98444 0.10200
N 	N 	0.64974 0.20348 0.98030 -0.14000
N 	N 	0.72610 0.23474 0.97884 -0.23600
C 	C 	0.74182 0.20966 0.97004 0.06500
H 	H 	0.76360 0.20140 0.96520 -0.00400
C 	C 	0.72760 0.19538 0.96784 -0.11700
H 	H 	0.73940 0.17760 0.96160 0.07900
C 	C 	0.69586 0.20726 0.97496 0.05300
C 	C 	0.67983 0.23415 0.98221 -0.12100
H 	H 	0.65820 0.24360 0.98600 0.07900
C 	C 	0.69575 0.24705 0.98377 0.07100
H 	H 	0.68460 0.26560 0.98860 -0.00300
N 	N 	0.53929 0.22685 0.99973 -0.23400
C 	C 	0.55761 0.24375 0.98643 0.07000
H 	H 	0.54840 0.26560 0.98020 -0.00400
C 	C 	0.58867 0.23147 0.98129 -0.12000
H 	H 	0.60050 0.24450 0.97230 0.08000
C 	C 	0.60260 0.19964 0.98950 0.05200
C 	C 	0.58423 0.18159 0.00185 -0.11800
H 	H 	0.59320 0.15980 0.00660 0.07800
C 	C 	0.55297 0.19605 0.00693 0.06800
H 	H 	0.54050 0.18370 0.01590 -0.00300
N 	N 	0.78532 0.20772 0.99344 -0.25500
C 	C 	0.79078 0.18088 0.00526 0.08300
S 	S 	0.79753 0.14395 0.02229 -0.04900
N 	N 	0.01683 0.79805 0.84297 -0.14000
C 	C 	0.01695 0.81339 0.81373 0.10100
N 	N 	0.00751 0.76967 0.77161 -0.24000
C 	C 	0.01632 0.75364 0.79624 0.08000
H 	H 	0.02070 0.73190 0.80430 -0.00800
C 	C 	0.01953 0.76657 0.81103 -0.13000
H 	H 	0.02500 0.75420 0.82920 0.08200
C 	C 	0.01477 0.79733 0.79915 0.05900
C 	C 	0.00546 0.81478 0.77326 -0.12400
H 	H 	0.00160 0.83640 0.76460 0.08100
C 	C 	0.00195 0.79999 0.76045 0.07200
H 	H 	0.99520 0.81200 0.74300 -0.00700
N 	N 	0.99902 0.70986 0.78868 -0.25900
C 	C 	0.98962 0.69126 0.81008 0.09700
S 	S 	0.97424 0.66574 0.84066 -0.05200
N 	N 	0.04970 0.72734 0.73072 -0.23700
C 	C 	0.06598 0.70406 0.74900 0.07100
H 	H 	0.05570 0.69810 0.77070 -0.00500
C 	C 	0.09700 0.68824 0.73800 -0.12200
H 	H 	0.10760 0.67160 0.75180 0.07900
C 	C 	0.11221 0.69701 0.70667 0.05500
C 	C 	0.09577 0.72207 0.68707 -0.12100
H 	H 	0.10580 0.72940 0.66540 0.08000
C 	C 	0.06498 0.73562 0.70002 0.07000
H 	H 	0.05350 0.75190 0.68670 -0.00400
C 	C 	0.18968 0.67978 0.65314 0.10100
N 	N 	0.16080 0.69628 0.66552 -0.13900
C 	C 	0.14494 0.68034 0.69286 0.09900
N 	N 	0.15611 0.65013 0.70821 -0.13800
C 	C 	0.18566 0.63626 0.69364 0.10200
N 	N 	0.20348 0.64974 0.66648 -0.14000
N 	N 	0.23474 0.72610 0.56032 -0.23600
C 	C 	0.20966 0.74182 0.57848 0.06500
H 	H 	0.20140 0.76360 0.56980 -0.00400
C 	C 	0.19538 0.72760 0.60918 -0.11700
H 	H 	0.17760 0.73940 0.62140 0.07900
C 	C 	0.20726 0.69586 0.62192 0.05300
C 	C 	0.23415 0.67983 0.60381 -0.12100
H 	H 	0.24360 0.65820 0.61220 0.07900
C 	C 	0.24705 0.69575 0.57343 0.07100
H 	H 	0.26560 0.68460 0.56120 -0.00300
N 	N 	0.22685 0.53929 0.73413 -0.23400
C 	C 	0.24375 0.55761 0.71221 0.07000
H 	H 	0.26560 0.54840 0.70580 -0.00400
C 	C 	0.23147 0.58867 0.69857 -0.12000
H 	H 	0.24450 0.60050 0.68270 0.08000
C 	C 	0.19964 0.60260 0.70826 0.05200
C 	C 	0.18159 0.58423 0.73233 -0.11800
H 	H 	0.15980 0.59320 0.74040 0.07800
C 	C 	0.19605 0.55297 0.74405 0.06800
H 	H 	0.18370 0.54050 0.75990 -0.00300
N 	N 	0.20772 0.78532 0.51352 -0.25500
C 	C 	0.18088 0.79078 0.52308 0.08300
S 	S 	0.14395 0.79753 0.53623 -0.04900
N 	N 	0.84297 0.84215 0.01683 -0.14000
C 	C 	0.81373 0.85593 0.01695 0.10100
N 	N 	0.77161 0.95121 0.00751 -0.24000
C 	C 	0.79624 0.93380 0.01632 0.08000
H 	H 	0.80430 0.94310 0.02070 -0.00800
C 	C 	0.81103 0.90287 0.01953 -0.13000
H 	H 	0.82920 0.89160 0.02500 0.08200
C 	C 	0.79915 0.88875 0.01477 0.05900
C 	C 	0.77326 0.90650 0.00546 -0.12400
H 	H 	0.76460 0.89740 0.00160 0.08100
C 	C 	0.76045 0.93761 0.00195 0.07200
H 	H 	0.74300 0.94980 0.99520 -0.00700
N 	N 	0.78868 0.00244 0.99902 -0.25900
C 	C 	0.81008 0.00904 0.98962 0.09700
S 	S 	0.84066 0.01936 0.97424 -0.05200
N 	N 	0.73072 0.99224 0.04970 -0.23700
C 	C 	0.74900 0.98096 0.06598 0.07100
H 	H 	0.77070 0.97550 0.05570 -0.00500
C 	C 	0.73800 0.97676 0.09700 -0.12200
H 	H 	0.75180 0.96900 0.10760 0.07900
C 	C 	0.70667 0.98411 0.11221 0.05500
C 	C 	0.68707 0.99509 0.09577 -0.12100
H 	H 	0.66540 0.99940 0.10580 0.08000
C 	C 	0.70002 0.99938 0.06498 0.07000
H 	H 	0.68670 0.00790 0.05350 -0.00400
C 	C 	0.65314 0.97740 0.18968 0.10100
N 	N 	0.66552 0.97740 0.16080 -0.13900
C 	C 	0.69286 0.98186 0.14494 0.09900
N 	N 	0.70821 0.98555 0.15611 -0.13800
C 	C 	0.69364 0.98444 0.18566 0.10200
N 	N 	0.66648 0.98030 0.20348 -0.14000
N 	N 	0.56032 0.97884 0.23474 -0.23600
C 	C 	0.57848 0.97004 0.20966 0.06500
H 	H 	0.56980 0.96520 0.20140 -0.00400
C 	C 	0.60918 0.96784 0.19538 -0.11700
H 	H 	0.62140 0.96160 0.17760 0.07900
C 	C 	0.62192 0.97496 0.20726 0.05300
C 	C 	0.60381 0.98221 0.23415 -0.12100
H 	H 	0.61220 0.98600 0.24360 0.07900
C 	C 	0.57343 0.98377 0.24705 0.07100
H 	H 	0.56120 0.98860 0.26560 -0.00300
N 	N 	0.73413 0.99973 0.22685 -0.23400
C 	C 	0.71221 0.98643 0.24375 0.07000
H 	H 	0.70580 0.98020 0.26560 -0.00400
C 	C 	0.69857 0.98129 0.23147 -0.12000
H 	H 	0.68270 0.97230 0.24450 0.08000
C 	C 	0.70826 0.98950 0.19964 0.05200
C 	C 	0.73233 0.00185 0.18159 -0.11800
H 	H 	0.74040 0.00660 0.15980 0.07800
C 	C 	0.74405 0.00693 0.19605 0.06800
H 	H 	0.75990 0.01590 0.18370 -0.00300
N 	N 	0.51352 0.99344 0.20772 -0.25500
C 	C 	0.52308 0.00526 0.18088 0.08300
S 	S 	0.53623 0.02229 0.14395 -0.04900
N 	N 	0.84215 0.84297 0.79805 -0.14000
C 	C 	0.85593 0.81373 0.81339 0.10100
N 	N 	0.95121 0.77161 0.76967 -0.24000
C 	C 	0.93380 0.79624 0.75364 0.08000
H 	H 	0.94310 0.80430 0.73190 -0.00800
C 	C 	0.90287 0.81103 0.76657 -0.13000
H 	H 	0.89160 0.82920 0.75420 0.08200
C 	C 	0.88875 0.79915 0.79733 0.05900
C 	C 	0.90650 0.77326 0.81478 -0.12400
H 	H 	0.89740 0.76460 0.83640 0.08100
C 	C 	0.93761 0.76045 0.79999 0.07200
H 	H 	0.94980 0.74300 0.81200 -0.00700
N 	N 	0.00244 0.78868 0.70986 -0.25900
C 	C 	0.00904 0.81008 0.69126 0.09700
S 	S 	0.01936 0.84066 0.66574 -0.05200
N 	N 	0.99224 0.73072 0.72734 -0.23700
C 	C 	0.98096 0.74900 0.70406 0.07100
H 	H 	0.97550 0.77070 0.69810 -0.00500
C 	C 	0.97676 0.73800 0.68824 -0.12200
H 	H 	0.96900 0.75180 0.67160 0.07900
C 	C 	0.98411 0.70667 0.69701 0.05500
C 	C 	0.99509 0.68707 0.72207 -0.12100
H 	H 	0.99940 0.66540 0.72940 0.08000
C 	C 	0.99938 0.70002 0.73562 0.07000
H 	H 	0.00790 0.68670 0.75190 -0.00400
C 	C 	0.97740 0.65314 0.67978 0.10100
N 	N 	0.97740 0.66552 0.69628 -0.13900
C 	C 	0.98186 0.69286 0.68034 0.09900
N 	N 	0.98555 0.70821 0.65013 -0.13800
C 	C 	0.98444 0.69364 0.63626 0.10200
N 	N 	0.98030 0.66648 0.64974 -0.14000
N 	N 	0.97884 0.56032 0.72610 -0.23600
C 	C 	0.97004 0.57848 0.74182 0.06500
H 	H 	0.96520 0.56980 0.76360 -0.00400
C 	C 	0.96784 0.60918 0.72760 -0.11700
H 	H 	0.96160 0.62140 0.73940 0.07900
C 	C 	0.97496 0.62192 0.69586 0.05300
C 	C 	0.98221 0.60381 0.67983 -0.12100
H 	H 	0.98600 0.61220 0.65820 0.07900
C 	C 	0.98377 0.57343 0.69575 0.07100
H 	H 	0.98860 0.56120 0.68460 -0.00300
N 	N 	0.99973 0.73413 0.53929 -0.23400
C 	C 	0.98643 0.71221 0.55761 0.07000
H 	H 	0.98020 0.70580 0.54840 -0.00400
C 	C 	0.98129 0.69857 0.58867 -0.12000
H 	H 	0.97230 0.68270 0.60050 0.08000
C 	C 	0.98950 0.70826 0.60260 0.05200
C 	C 	0.00185 0.73233 0.58423 -0.11800
H 	H 	0.00660 0.74040 0.59320 0.07800
C 	C 	0.00693 0.74405 0.55297 0.06800
H 	H 	0.01590 0.75990 0.54050 -0.00300
N 	N 	0.99344 0.51352 0.78532 -0.25500
C 	C 	0.00526 0.52308 0.79078 0.08300
S 	S 	0.02229 0.53623 0.79753 -0.04900
N 	N 	0.84297 0.79805 0.84215 -0.14000
C 	C 	0.81373 0.81339 0.85593 0.10100
N 	N 	0.77161 0.76967 0.95121 -0.24000
C 	C 	0.79624 0.75364 0.93380 0.08000
H 	H 	0.80430 0.73190 0.94310 -0.00800
C 	C 	0.81103 0.76657 0.90287 -0.13000
H 	H 	0.82920 0.75420 0.89160 0.08200
C 	C 	0.79915 0.79733 0.88875 0.05900
C 	C 	0.77326 0.81478 0.90650 -0.12400
H 	H 	0.76460 0.83640 0.89740 0.08100
C 	C 	0.76045 0.79999 0.93761 0.07200
H 	H 	0.74300 0.81200 0.94980 -0.00700
N 	N 	0.78868 0.70986 0.00244 -0.25900
C 	C 	0.81008 0.69126 0.00904 0.09700
S 	S 	0.84066 0.66574 0.01936 -0.05200
N 	N 	0.73072 0.72734 0.99224 -0.23700
C 	C 	0.74900 0.70406 0.98096 0.07100
H 	H 	0.77070 0.69810 0.97550 -0.00500
C 	C 	0.73800 0.68824 0.97676 -0.12200
H 	H 	0.75180 0.67160 0.96900 0.07900
C 	C 	0.70667 0.69701 0.98411 0.05500
C 	C 	0.68707 0.72207 0.99509 -0.12100
H 	H 	0.66540 0.72940 0.99940 0.08000
C 	C 	0.70002 0.73562 0.99938 0.07000
H 	H 	0.68670 0.75190 0.00790 -0.00400
C 	C 	0.65314 0.67978 0.97740 0.10100
N 	N 	0.66552 0.69628 0.97740 -0.13900
C 	C 	0.69286 0.68034 0.98186 0.09900
N 	N 	0.70821 0.65013 0.98555 -0.13800
C 	C 	0.69364 0.63626 0.98444 0.10200
N 	N 	0.66648 0.64974 0.98030 -0.14000
N 	N 	0.56032 0.72610 0.97884 -0.23600
C 	C 	0.57848 0.74182 0.97004 0.06500
H 	H 	0.56980 0.76360 0.96520 -0.00400
C 	C 	0.60918 0.72760 0.96784 -0.11700
H 	H 	0.62140 0.73940 0.96160 0.07900
C 	C 	0.62192 0.69586 0.97496 0.05300
C 	C 	0.60381 0.67983 0.98221 -0.12100
H 	H 	0.61220 0.65820 0.98600 0.07900
C 	C 	0.57343 0.69575 0.98377 0.07100
H 	H 	0.56120 0.68460 0.98860 -0.00300
N 	N 	0.73413 0.53929 0.99973 -0.23400
C 	C 	0.71221 0.55761 0.98643 0.07000
H 	H 	0.70580 0.54840 0.98020 -0.00400
C 	C 	0.69857 0.58867 0.98129 -0.12000
H 	H 	0.68270 0.60050 0.97230 0.08000
C 	C 	0.70826 0.60260 0.98950 0.05200
C 	C 	0.73233 0.58423 0.00185 -0.11800
H 	H 	0.74040 0.59320 0.00660 0.07800
C 	C 	0.74405 0.55297 0.00693 0.06800
H 	H 	0.75990 0.54050 0.01590 -0.00300
N 	N 	0.51352 0.78532 0.99344 -0.25500
C 	C 	0.52308 0.79078 0.00526 0.08300
S 	S 	0.53623 0.79753 0.02229 -0.04900
N 	N 	0.84215 0.01683 0.84297 -0.14000
C 	C 	0.85593 0.01695 0.81373 0.10100
N 	N 	0.95121 0.00751 0.77161 -0.24000
C 	C 	0.93380 0.01632 0.79624 0.08000
H 	H 	0.94310 0.02070 0.80430 -0.00800
C 	C 	0.90287 0.01953 0.81103 -0.13000
H 	H 	0.89160 0.02500 0.82920 0.08200
C 	C 	0.88875 0.01477 0.79915 0.05900
C 	C 	0.90650 0.00546 0.77326 -0.12400
H 	H 	0.89740 0.00160 0.76460 0.08100
C 	C 	0.93761 0.00195 0.76045 0.07200
H 	H 	0.94980 0.99520 0.74300 -0.00700
N 	N 	0.00244 0.99902 0.78868 -0.25900
C 	C 	0.00904 0.98962 0.81008 0.09700
S 	S 	0.01936 0.97424 0.84066 -0.05200
N 	N 	0.99224 0.04970 0.73072 -0.23700
C 	C 	0.98096 0.06598 0.74900 0.07100
H 	H 	0.97550 0.05570 0.77070 -0.00500
C 	C 	0.97676 0.09700 0.73800 -0.12200
H 	H 	0.96900 0.10760 0.75180 0.07900
C 	C 	0.98411 0.11221 0.70667 0.05500
C 	C 	0.99509 0.09577 0.68707 -0.12100
H 	H 	0.99940 0.10580 0.66540 0.08000
C 	C 	0.99938 0.06498 0.70002 0.07000
H 	H 	0.00790 0.05350 0.68670 -0.00400
C 	C 	0.97740 0.18968 0.65314 0.10100
N 	N 	0.97740 0.16080 0.66552 -0.13900
C 	C 	0.98186 0.14494 0.69286 0.09900
N 	N 	0.98555 0.15611 0.70821 -0.13800
C 	C 	0.98444 0.18566 0.69364 0.10200
N 	N 	0.98030 0.20348 0.66648 -0.14000
N 	N 	0.97884 0.23474 0.56032 -0.23600
C 	C 	0.97004 0.20966 0.57848 0.06500
H 	H 	0.96520 0.20140 0.56980 -0.00400
C 	C 	0.96784 0.19538 0.60918 -0.11700
H 	H 	0.96160 0.17760 0.62140 0.07900
C 	C 	0.97496 0.20726 0.62192 0.05300
C 	C 	0.98221 0.23415 0.60381 -0.12100
H 	H 	0.98600 0.24360 0.61220 0.07900
C 	C 	0.98377 0.24705 0.57343 0.07100
H 	H 	0.98860 0.26560 0.56120 -0.00300
N 	N 	0.99973 0.22685 0.73413 -0.23400
C 	C 	0.98643 0.24375 0.71221 0.07000
H 	H 	0.98020 0.26560 0.70580 -0.00400
C 	C 	0.98129 0.23147 0.69857 -0.12000
H 	H 	0.97230 0.24450 0.68270 0.08000
C 	C 	0.98950 0.19964 0.70826 0.05200
C 	C 	0.00185 0.18159 0.73233 -0.11800
H 	H 	0.00660 0.15980 0.74040 0.07800
C 	C 	0.00693 0.19605 0.74405 0.06800
H 	H 	0.01590 0.18370 0.75990 -0.00300
N 	N 	0.99344 0.20772 0.51352 -0.25500
C 	C 	0.00526 0.18088 0.52308 0.08300
S 	S 	0.02229 0.14395 0.53623 -0.04900
N 	N 	0.79805 0.84297 0.01683 -0.14000
C 	C 	0.81339 0.81373 0.01695 0.10100
N 	N 	0.76967 0.77161 0.00751 -0.24000
C 	C 	0.75364 0.79624 0.01632 0.08000
H 	H 	0.73190 0.80430 0.02070 -0.00800
C 	C 	0.76657 0.81103 0.01953 -0.13000
H 	H 	0.75420 0.82920 0.02500 0.08200
C 	C 	0.79733 0.79915 0.01477 0.05900
C 	C 	0.81478 0.77326 0.00546 -0.12400
H 	H 	0.83640 0.76460 0.00160 0.08100
C 	C 	0.79999 0.76045 0.00195 0.07200
H 	H 	0.81200 0.74300 0.99520 -0.00700
N 	N 	0.70986 0.78868 0.99902 -0.25900
C 	C 	0.69126 0.81008 0.98962 0.09700
S 	S 	0.66574 0.84066 0.97424 -0.05200
N 	N 	0.72734 0.73072 0.04970 -0.23700
C 	C 	0.70406 0.74900 0.06598 0.07100
H 	H 	0.69810 0.77070 0.05570 -0.00500
C 	C 	0.68824 0.73800 0.09700 -0.12200
H 	H 	0.67160 0.75180 0.10760 0.07900
C 	C 	0.69701 0.70667 0.11221 0.05500
C 	C 	0.72207 0.68707 0.09577 -0.12100
H 	H 	0.72940 0.66540 0.10580 0.08000
C 	C 	0.73562 0.70002 0.06498 0.07000
H 	H 	0.75190 0.68670 0.05350 -0.00400
C 	C 	0.67978 0.65314 0.18968 0.10100
N 	N 	0.69628 0.66552 0.16080 -0.13900
C 	C 	0.68034 0.69286 0.14494 0.09900
N 	N 	0.65013 0.70821 0.15611 -0.13800
C 	C 	0.63626 0.69364 0.18566 0.10200
N 	N 	0.64974 0.66648 0.20348 -0.14000
N 	N 	0.72610 0.56032 0.23474 -0.23600
C 	C 	0.74182 0.57848 0.20966 0.06500
H 	H 	0.76360 0.56980 0.20140 -0.00400
C 	C 	0.72760 0.60918 0.19538 -0.11700
H 	H 	0.73940 0.62140 0.17760 0.07900
C 	C 	0.69586 0.62192 0.20726 0.05300
C 	C 	0.67983 0.60381 0.23415 -0.12100
H 	H 	0.65820 0.61220 0.24360 0.07900
C 	C 	0.69575 0.57343 0.24705 0.07100
H 	H 	0.68460 0.56120 0.26560 -0.00300
N 	N 	0.53929 0.73413 0.22685 -0.23400
C 	C 	0.55761 0.71221 0.24375 0.07000
H 	H 	0.54840 0.70580 0.26560 -0.00400
C 	C 	0.58867 0.69857 0.23147 -0.12000
H 	H 	0.60050 0.68270 0.24450 0.08000
C 	C 	0.60260 0.70826 0.19964 0.05200
C 	C 	0.58423 0.73233 0.18159 -0.11800
H 	H 	0.59320 0.74040 0.15980 0.07800
C 	C 	0.55297 0.74405 0.19605 0.06800
H 	H 	0.54050 0.75990 0.18370 -0.00300
N 	N 	0.78532 0.51352 0.20772 -0.25500
C 	C 	0.79078 0.52308 0.18088 0.08300
S 	S 	0.79753 0.53623 0.14395 -0.04900
N 	N 	0.01683 0.84215 0.79805 -0.14000
C 	C 	0.01695 0.85593 0.81339 0.10100
N 	N 	0.00751 0.95121 0.76967 -0.24000
C 	C 	0.01632 0.93380 0.75364 0.08000
H 	H 	0.02070 0.94310 0.73190 -0.00800
C 	C 	0.01953 0.90287 0.76657 -0.13000
H 	H 	0.02500 0.89160 0.75420 0.08200
C 	C 	0.01477 0.88875 0.79733 0.05900
C 	C 	0.00546 0.90650 0.81478 -0.12400
H 	H 	0.00160 0.89740 0.83640 0.08100
C 	C 	0.00195 0.93761 0.79999 0.07200
H 	H 	0.99520 0.94980 0.81200 -0.00700
N 	N 	0.99902 0.00244 0.70986 -0.25900
C 	C 	0.98962 0.00904 0.69126 0.09700
S 	S 	0.97424 0.01936 0.66574 -0.05200
N 	N 	0.04970 0.99224 0.72734 -0.23700
C 	C 	0.06598 0.98096 0.70406 0.07100
H 	H 	0.05570 0.97550 0.69810 -0.00500
C 	C 	0.09700 0.97676 0.68824 -0.12200
H 	H 	0.10760 0.96900 0.67160 0.07900
C 	C 	0.11221 0.98411 0.69701 0.05500
C 	C 	0.09577 0.99509 0.72207 -0.12100
H 	H 	0.10580 0.99940 0.72940 0.08000
C 	C 	0.06498 0.99938 0.73562 0.07000
H 	H 	0.05350 0.00790 0.75190 -0.00400
C 	C 	0.18968 0.97740 0.67978 0.10100
N 	N 	0.16080 0.97740 0.69628 -0.13900
C 	C 	0.14494 0.98186 0.68034 0.09900
N 	N 	0.15611 0.98555 0.65013 -0.13800
C 	C 	0.18566 0.98444 0.63626 0.10200
N 	N 	0.20348 0.98030 0.64974 -0.14000
N 	N 	0.23474 0.97884 0.72610 -0.23600
C 	C 	0.20966 0.97004 0.74182 0.06500
H 	H 	0.20140 0.96520 0.76360 -0.00400
C 	C 	0.19538 0.96784 0.72760 -0.11700
H 	H 	0.17760 0.96160 0.73940 0.07900
C 	C 	0.20726 0.97496 0.69586 0.05300
C 	C 	0.23415 0.98221 0.67983 -0.12100
H 	H 	0.24360 0.98600 0.65820 0.07900
C 	C 	0.24705 0.98377 0.69575 0.07100
H 	H 	0.26560 0.98860 0.68460 -0.00300
N 	N 	0.22685 0.99973 0.53929 -0.23400
C 	C 	0.24375 0.98643 0.55761 0.07000
H 	H 	0.26560 0.98020 0.54840 -0.00400
C 	C 	0.23147 0.98129 0.58867 -0.12000
H 	H 	0.24450 0.97230 0.60050 0.08000
C 	C 	0.19964 0.98950 0.60260 0.05200
C 	C 	0.18159 0.00185 0.58423 -0.11800
H 	H 	0.15980 0.00660 0.59320 0.07800
C 	C 	0.19605 0.00693 0.55297 0.06800
H 	H 	0.18370 0.01590 0.54050 -0.00300
N 	N 	0.20772 0.99344 0.78532 -0.25500
C 	C 	0.18088 0.00526 0.79078 0.08300
S 	S 	0.14395 0.02229 0.79753 -0.04900
N 	N 	0.01683 0.84297 0.84215 -0.14000
C 	C 	0.01695 0.81373 0.85593 0.10100
N 	N 	0.00751 0.77161 0.95121 -0.24000
C 	C 	0.01632 0.79624 0.93380 0.08000
H 	H 	0.02070 0.80430 0.94310 -0.00800
C 	C 	0.01953 0.81103 0.90287 -0.13000
H 	H 	0.02500 0.82920 0.89160 0.08200
C 	C 	0.01477 0.79915 0.88875 0.05900
C 	C 	0.00546 0.77326 0.90650 -0.12400
H 	H 	0.00160 0.76460 0.89740 0.08100
C 	C 	0.00195 0.76045 0.93761 0.07200
H 	H 	0.99520 0.74300 0.94980 -0.00700
N 	N 	0.99902 0.78868 0.00244 -0.25900
C 	C 	0.98962 0.81008 0.00904 0.09700
S 	S 	0.97424 0.84066 0.01936 -0.05200
N 	N 	0.04970 0.73072 0.99224 -0.23700
C 	C 	0.06598 0.74900 0.98096 0.07100
H 	H 	0.05570 0.77070 0.97550 -0.00500
C 	C 	0.09700 0.73800 0.97676 -0.12200
H 	H 	0.10760 0.75180 0.96900 0.07900
C 	C 	0.11221 0.70667 0.98411 0.05500
C 	C 	0.09577 0.68707 0.99509 -0.12100
H 	H 	0.10580 0.66540 0.99940 0.08000
C 	C 	0.06498 0.70002 0.99938 0.07000
H 	H 	0.05350 0.68670 0.00790 -0.00400
C 	C 	0.18968 0.65314 0.97740 0.10100
N 	N 	0.16080 0.66552 0.97740 -0.13900
C 	C 	0.14494 0.69286 0.98186 0.09900
N 	N 	0.15611 0.70821 0.98555 -0.13800
C 	C 	0.18566 0.69364 0.98444 0.10200
N 	N 	0.20348 0.66648 0.98030 -0.14000
N 	N 	0.23474 0.56032 0.97884 -0.23600
C 	C 	0.20966 0.57848 0.97004 0.06500
H 	H 	0.20140 0.56980 0.96520 -0.00400
C 	C 	0.19538 0.60918 0.96784 -0.11700
H 	H 	0.17760 0.62140 0.96160 0.07900
C 	C 	0.20726 0.62192 0.97496 0.05300
C 	C 	0.23415 0.60381 0.98221 -0.12100
H 	H 	0.24360 0.61220 0.98600 0.07900
C 	C 	0.24705 0.57343 0.98377 0.07100
H 	H 	0.26560 0.56120 0.98860 -0.00300
N 	N 	0.22685 0.73413 0.99973 -0.23400
C 	C 	0.24375 0.71221 0.98643 0.07000
H 	H 	0.26560 0.70580 0.98020 -0.00400
C 	C 	0.23147 0.69857 0.98129 -0.12000
H 	H 	0.24450 0.68270 0.97230 0.08000
C 	C 	0.19964 0.70826 0.98950 0.05200
C 	C 	0.18159 0.73233 0.00185 -0.11800
H 	H 	0.15980 0.74040 0.00660 0.07800
C 	C 	0.19605 0.74405 0.00693 0.06800
H 	H 	0.18370 0.75990 0.01590 -0.00300
N 	N 	0.20772 0.51352 0.99344 -0.25500
C 	C 	0.18088 0.52308 0.00526 0.08300
S 	S 	0.14395 0.53623 0.02229 -0.04900
N 	N 	0.79805 0.84215 0.84297 -0.14000
C 	C 	0.81339 0.85593 0.81373 0.10100
N 	N 	0.76967 0.95121 0.77161 -0.24000
C 	C 	0.75364 0.93380 0.79624 0.08000
H 	H 	0.73190 0.94310 0.80430 -0.00800
C 	C 	0.76657 0.90287 0.81103 -0.13000
H 	H 	0.75420 0.89160 0.82920 0.08200
C 	C 	0.79733 0.88875 0.79915 0.05900
C 	C 	0.81478 0.90650 0.77326 -0.12400
H 	H 	0.83640 0.89740 0.76460 0.08100
C 	C 	0.79999 0.93761 0.76045 0.07200
H 	H 	0.81200 0.94980 0.74300 -0.00700
N 	N 	0.70986 0.00244 0.78868 -0.25900
C 	C 	0.69126 0.00904 0.81008 0.09700
S 	S 	0.66574 0.01936 0.84066 -0.05200
N 	N 	0.72734 0.99224 0.73072 -0.23700
C 	C 	0.70406 0.98096 0.74900 0.07100
H 	H 	0.69810 0.97550 0.77070 -0.00500
C 	C 	0.68824 0.97676 0.73800 -0.12200
H 	H 	0.67160 0.96900 0.75180 0.07900
C 	C 	0.69701 0.98411 0.70667 0.05500
C 	C 	0.72207 0.99509 0.68707 -0.12100
H 	H 	0.72940 0.99940 0.66540 0.08000
C 	C 	0.73562 0.99938 0.70002 0.07000
H 	H 	0.75190 0.00790 0.68670 -0.00400
C 	C 	0.67978 0.97740 0.65314 0.10100
N 	N 	0.69628 0.97740 0.66552 -0.13900
C 	C 	0.68034 0.98186 0.69286 0.09900
N 	N 	0.65013 0.98555 0.70821 -0.13800
C 	C 	0.63626 0.98444 0.69364 0.10200
N 	N 	0.64974 0.98030 0.66648 -0.14000
N 	N 	0.72610 0.97884 0.56032 -0.23600
C 	C 	0.74182 0.97004 0.57848 0.06500
H 	H 	0.76360 0.96520 0.56980 -0.00400
C 	C 	0.72760 0.96784 0.60918 -0.11700
H 	H 	0.73940 0.96160 0.62140 0.07900
C 	C 	0.69586 0.97496 0.62192 0.05300
C 	C 	0.67983 0.98221 0.60381 -0.12100
H 	H 	0.65820 0.98600 0.61220 0.07900
C 	C 	0.69575 0.98377 0.57343 0.07100
H 	H 	0.68460 0.98860 0.56120 -0.00300
N 	N 	0.53929 0.99973 0.73413 -0.23400
C 	C 	0.55761 0.98643 0.71221 0.07000
H 	H 	0.54840 0.98020 0.70580 -0.00400
C 	C 	0.58867 0.98129 0.69857 -0.12000
H 	H 	0.60050 0.97230 0.68270 0.08000
C 	C 	0.60260 0.98950 0.70826 0.05200
C 	C 	0.58423 0.00185 0.73233 -0.11800
H 	H 	0.59320 0.00660 0.74040 0.07800
C 	C 	0.55297 0.00693 0.74405 0.06800
H 	H 	0.54050 0.01590 0.75990 -0.00300
N 	N 	0.78532 0.99344 0.51352 -0.25500
C 	C 	0.79078 0.00526 0.52308 0.08300
S 	S 	0.79753 0.02229 0.53623 -0.04900
N 	N 	0.84215 0.79805 0.01683 -0.14000
C 	C 	0.85593 0.81339 0.01695 0.10100
N 	N 	0.95121 0.76967 0.00751 -0.24000
C 	C 	0.93380 0.75364 0.01632 0.08000
H 	H 	0.94310 0.73190 0.02070 -0.00800
C 	C 	0.90287 0.76657 0.01953 -0.13000
H 	H 	0.89160 0.75420 0.02500 0.08200
C 	C 	0.88875 0.79733 0.01477 0.05900
C 	C 	0.90650 0.81478 0.00546 -0.12400
H 	H 	0.89740 0.83640 0.00160 0.08100
C 	C 	0.93761 0.79999 0.00195 0.07200
H 	H 	0.94980 0.81200 0.99520 -0.00700
N 	N 	0.00244 0.70986 0.99902 -0.25900
C 	C 	0.00904 0.69126 0.98962 0.09700
S 	S 	0.01936 0.66574 0.97424 -0.05200
N 	N 	0.99224 0.72734 0.04970 -0.23700
C 	C 	0.98096 0.70406 0.06598 0.07100
H 	H 	0.97550 0.69810 0.05570 -0.00500
C 	C 	0.97676 0.68824 0.09700 -0.12200
H 	H 	0.96900 0.67160 0.10760 0.07900
C 	C 	0.98411 0.69701 0.11221 0.05500
C 	C 	0.99509 0.72207 0.09577 -0.12100
H 	H 	0.99940 0.72940 0.10580 0.08000
C 	C 	0.99938 0.73562 0.06498 0.07000
H 	H 	0.00790 0.75190 0.05350 -0.00400
C 	C 	0.97740 0.67978 0.18968 0.10100
N 	N 	0.97740 0.69628 0.16080 -0.13900
C 	C 	0.98186 0.68034 0.14494 0.09900
N 	N 	0.98555 0.65013 0.15611 -0.13800
C 	C 	0.98444 0.63626 0.18566 0.10200
N 	N 	0.98030 0.64974 0.20348 -0.14000
N 	N 	0.97884 0.72610 0.23474 -0.23600
C 	C 	0.97004 0.74182 0.20966 0.06500
H 	H 	0.96520 0.76360 0.20140 -0.00400
C 	C 	0.96784 0.72760 0.19538 -0.11700
H 	H 	0.96160 0.73940 0.17760 0.07900
C 	C 	0.97496 0.69586 0.20726 0.05300
C 	C 	0.98221 0.67983 0.23415 -0.12100
H 	H 	0.98600 0.65820 0.24360 0.07900
C 	C 	0.98377 0.69575 0.24705 0.07100
H 	H 	0.98860 0.68460 0.26560 -0.00300
N 	N 	0.99973 0.53929 0.22685 -0.23400
C 	C 	0.98643 0.55761 0.24375 0.07000
H 	H 	0.98020 0.54840 0.26560 -0.00400
C 	C 	0.98129 0.58867 0.23147 -0.12000
H 	H 	0.97230 0.60050 0.24450 0.08000
C 	C 	0.98950 0.60260 0.19964 0.05200
C 	C 	0.00185 0.58423 0.18159 -0.11800
H 	H 	0.00660 0.59320 0.15980 0.07800
C 	C 	0.00693 0.55297 0.19605 0.06800
H 	H 	0.01590 0.54050 0.18370 -0.00300
N 	N 	0.99344 0.78532 0.20772 -0.25500
C 	C 	0.00526 0.79078 0.18088 0.08300
S 	S 	0.02229 0.79753 0.14395 -0.04900
N 	N 	0.84297 0.01683 0.79805 -0.14000
C 	C 	0.81373 0.01695 0.81339 0.10100
N 	N 	0.77161 0.00751 0.76967 -0.24000
C 	C 	0.79624 0.01632 0.75364 0.08000
H 	H 	0.80430 0.02070 0.73190 -0.00800
C 	C 	0.81103 0.01953 0.76657 -0.13000
H 	H 	0.82920 0.02500 0.75420 0.08200
C 	C 	0.79915 0.01477 0.79733 0.05900
C 	C 	0.77326 0.00546 0.81478 -0.12400
H 	H 	0.76460 0.00160 0.83640 0.08100
C 	C 	0.76045 0.00195 0.79999 0.07200
H 	H 	0.74300 0.99520 0.81200 -0.00700
N 	N 	0.78868 0.99902 0.70986 -0.25900
C 	C 	0.81008 0.98962 0.69126 0.09700
S 	S 	0.84066 0.97424 0.66574 -0.05200
N 	N 	0.73072 0.04970 0.72734 -0.23700
C 	C 	0.74900 0.06598 0.70406 0.07100
H 	H 	0.77070 0.05570 0.69810 -0.00500
C 	C 	0.73800 0.09700 0.68824 -0.12200
H 	H 	0.75180 0.10760 0.67160 0.07900
C 	C 	0.70667 0.11221 0.69701 0.05500
C 	C 	0.68707 0.09577 0.72207 -0.12100
H 	H 	0.66540 0.10580 0.72940 0.08000
C 	C 	0.70002 0.06498 0.73562 0.07000
H 	H 	0.68670 0.05350 0.75190 -0.00400
C 	C 	0.65314 0.18968 0.67978 0.10100
N 	N 	0.66552 0.16080 0.69628 -0.13900
C 	C 	0.69286 0.14494 0.68034 0.09900
N 	N 	0.70821 0.15611 0.65013 -0.13800
C 	C 	0.69364 0.18566 0.63626 0.10200
N 	N 	0.66648 0.20348 0.64974 -0.14000
N 	N 	0.56032 0.23474 0.72610 -0.23600
C 	C 	0.57848 0.20966 0.74182 0.06500
H 	H 	0.56980 0.20140 0.76360 -0.00400
C 	C 	0.60918 0.19538 0.72760 -0.11700
H 	H 	0.62140 0.17760 0.73940 0.07900
C 	C 	0.62192 0.20726 0.69586 0.05300
C 	C 	0.60381 0.23415 0.67983 -0.12100
H 	H 	0.61220 0.24360 0.65820 0.07900
C 	C 	0.57343 0.24705 0.69575 0.07100
H 	H 	0.56120 0.26560 0.68460 -0.00300
N 	N 	0.73413 0.22685 0.53929 -0.23400
C 	C 	0.71221 0.24375 0.55761 0.07000
H 	H 	0.70580 0.26560 0.54840 -0.00400
C 	C 	0.69857 0.23147 0.58867 -0.12000
H 	H 	0.68270 0.24450 0.60050 0.08000
C 	C 	0.70826 0.19964 0.60260 0.05200
C 	C 	0.73233 0.18159 0.58423 -0.11800
H 	H 	0.74040 0.15980 0.59320 0.07800
C 	C 	0.74405 0.19605 0.55297 0.06800
H 	H 	0.75990 0.18370 0.54050 -0.00300
N 	N 	0.51352 0.20772 0.78532 -0.25500
C 	C 	0.52308 0.18088 0.79078 0.08300
S 	S 	0.53623 0.14395 0.79753 -0.04900
N 	N 	0.29805 0.51683 0.34297 -0.14000
C 	C 	0.31339 0.51695 0.31373 0.10100
N 	N 	0.26967 0.50751 0.27161 -0.24000
C 	C 	0.25364 0.51632 0.29624 0.08000
H 	H 	0.23190 0.52070 0.30430 -0.00800
C 	C 	0.26657 0.51953 0.31103 -0.13000
H 	H 	0.25420 0.52500 0.32920 0.08200
C 	C 	0.29733 0.51477 0.29915 0.05900
C 	C 	0.31478 0.50546 0.27326 -0.12400
H 	H 	0.33640 0.50160 0.26460 0.08100
C 	C 	0.29999 0.50195 0.26045 0.07200
H 	H 	0.31200 0.49520 0.24300 -0.00700
N 	N 	0.20986 0.49902 0.28868 -0.25900
C 	C 	0.19126 0.48962 0.31008 0.09700
S 	S 	0.16574 0.47424 0.34066 -0.05200
N 	N 	0.22734 0.54970 0.23072 -0.23700
C 	C 	0.20406 0.56598 0.24900 0.07100
H 	H 	0.19810 0.55570 0.27070 -0.00500
C 	C 	0.18824 0.59700 0.23800 -0.12200
H 	H 	0.17160 0.60760 0.25180 0.07900
C 	C 	0.19701 0.61221 0.20667 0.05500
C 	C 	0.22207 0.59577 0.18707 -0.12100
H 	H 	0.22940 0.60580 0.16540 0.08000
C 	C 	0.23562 0.56498 0.20002 0.07000
H 	H 	0.25190 0.55350 0.18670 -0.00400
C 	C 	0.17978 0.68968 0.15314 0.10100
N 	N 	0.19628 0.66080 0.16552 -0.13900
C 	C 	0.18034 0.64494 0.19286 0.09900
N 	N 	0.15013 0.65611 0.20821 -0.13800
C 	C 	0.13626 0.68566 0.19364 0.10200
N 	N 	0.14974 0.70348 0.16648 -0.14000
N 	N 	0.22610 0.73474 0.06032 -0.23600
C 	C 	0.24182 0.70966 0.07848 0.06500
H 	H 	0.26360 0.70140 0.06980 -0.00400
C 	C 	0.22760 0.69538 0.10918 -0.11700
H 	H 	0.23940 0.67760 0.12140 0.07900
C 	C 	0.19586 0.70726 0.12192 0.05300
C 	C 	0.17983 0.73415 0.10381 -0.12100
H 	H 	0.15820 0.74360 0.11220 0.07900
C 	C 	0.19575 0.74705 0.07343 0.07100
H 	H 	0.18460 0.76560 0.06120 -0.00300
N 	N 	0.03929 0.72685 0.23413 -0.23400
C 	C 	0.05761 0.74375 0.21221 0.07000
H 	H 	0.04840 0.76560 0.20580 -0.00400
C 	C 	0.08867 0.73147 0.19857 -0.12000
H 	H 	0.10050 0.74450 0.18270 0.08000
C 	C 	0.10260 0.69964 0.20826 0.05200
C 	C 	0.08423 0.68159 0.23233 -0.11800
H 	H 	0.09320 0.65980 0.24040 0.07800
C 	C 	0.05297 0.69605 0.24405 0.06800
H 	H 	0.04050 0.68370 0.25990 -0.00300
N 	N 	0.28532 0.70772 0.01352 -0.25500
C 	C 	0.29078 0.68088 0.02308 0.08300
S 	S 	0.29753 0.64395 0.03623 -0.04900
N 	N 	0.51683 0.29805 0.34215 -0.14000
C 	C 	0.51695 0.31339 0.35593 0.10100
N 	N 	0.50751 0.26967 0.45121 -0.24000
C 	C 	0.51632 0.25364 0.43380 0.08000
H 	H 	0.52070 0.23190 0.44310 -0.00800
C 	C 	0.51953 0.26657 0.40287 -0.13000
H 	H 	0.52500 0.25420 0.39160 0.08200
C 	C 	0.51477 0.29733 0.38875 0.05900
C 	C 	0.50546 0.31478 0.40650 -0.12400
H 	H 	0.50160 0.33640 0.39740 0.08100
C 	C 	0.50195 0.29999 0.43761 0.07200
H 	H 	0.49520 0.31200 0.44980 -0.00700
N 	N 	0.49902 0.20986 0.50244 -0.25900
C 	C 	0.48962 0.19126 0.50904 0.09700
S 	S 	0.47424 0.16574 0.51936 -0.05200
N 	N 	0.54970 0.22734 0.49224 -0.23700
C 	C 	0.56598 0.20406 0.48096 0.07100
H 	H 	0.55570 0.19810 0.47550 -0.00500
C 	C 	0.59700 0.18824 0.47676 -0.12200
H 	H 	0.60760 0.17160 0.46900 0.07900
C 	C 	0.61221 0.19701 0.48411 0.05500
C 	C 	0.59577 0.22207 0.49509 -0.12100
H 	H 	0.60580 0.22940 0.49940 0.08000
C 	C 	0.56498 0.23562 0.49938 0.07000
H 	H 	0.55350 0.25190 0.50790 -0.00400
C 	C 	0.68968 0.17978 0.47740 0.10100
N 	N 	0.66080 0.19628 0.47740 -0.13900
C 	C 	0.64494 0.18034 0.48186 0.09900
N 	N 	0.65611 0.15013 0.48555 -0.13800
C 	C 	0.68566 0.13626 0.48444 0.10200
N 	N 	0.70348 0.14974 0.48030 -0.14000
N 	N 	0.73474 0.22610 0.47884 -0.23600
C 	C 	0.70966 0.24182 0.47004 0.06500
H 	H 	0.70140 0.26360 0.46520 -0.00400
C 	C 	0.69538 0.22760 0.46784 -0.11700
H 	H 	0.67760 0.23940 0.46160 0.07900
C 	C 	0.70726 0.19586 0.47496 0.05300
C 	C 	0.73415 0.17983 0.48221 -0.12100
H 	H 	0.74360 0.15820 0.48600 0.07900
C 	C 	0.74705 0.19575 0.48377 0.07100
H 	H 	0.76560 0.18460 0.48860 -0.00300
N 	N 	0.72685 0.03929 0.49973 -0.23400
C 	C 	0.74375 0.05761 0.48643 0.07000
H 	H 	0.76560 0.04840 0.48020 -0.00400
C 	C 	0.73147 0.08867 0.48129 -0.12000
H 	H 	0.74450 0.10050 0.47230 0.08000
C 	C 	0.69964 0.10260 0.48950 0.05200
C 	C 	0.68159 0.08423 0.50185 -0.11800
H 	H 	0.65980 0.09320 0.50660 0.07800
C 	C 	0.69605 0.05297 0.50693 0.06800
H 	H 	0.68370 0.04050 0.51590 -0.00300
N 	N 	0.70772 0.28532 0.49344 -0.25500
C 	C 	0.68088 0.29078 0.50526 0.08300
S 	S 	0.64395 0.29753 0.52229 -0.04900
N 	N 	0.34297 0.34215 0.29805 -0.14000
C 	C 	0.31373 0.35593 0.31339 0.10100
N 	N 	0.27161 0.45121 0.26967 -0.24000
C 	C 	0.29624 0.43380 0.25364 0.08000
H 	H 	0.30430 0.44310 0.23190 -0.00800
C 	C 	0.31103 0.40287 0.26657 -0.13000
H 	H 	0.32920 0.39160 0.25420 0.08200
C 	C 	0.29915 0.38875 0.29733 0.05900
C 	C 	0.27326 0.40650 0.31478 -0.12400
H 	H 	0.26460 0.39740 0.33640 0.08100
C 	C 	0.26045 0.43761 0.29999 0.07200
H 	H 	0.24300 0.44980 0.31200 -0.00700
N 	N 	0.28868 0.50244 0.20986 -0.25900
C 	C 	0.31008 0.50904 0.19126 0.09700
S 	S 	0.34066 0.51936 0.16574 -0.05200
N 	N 	0.23072 0.49224 0.22734 -0.23700
C 	C 	0.24900 0.48096 0.20406 0.07100
H 	H 	0.27070 0.47550 0.19810 -0.00500
C 	C 	0.23800 0.47676 0.18824 -0.12200
H 	H 	0.25180 0.46900 0.17160 0.07900
C 	C 	0.20667 0.48411 0.19701 0.05500
C 	C 	0.18707 0.49509 0.22207 -0.12100
H 	H 	0.16540 0.49940 0.22940 0.08000
C 	C 	0.20002 0.49938 0.23562 0.07000
H 	H 	0.18670 0.50790 0.25190 -0.00400
C 	C 	0.15314 0.47740 0.17978 0.10100
N 	N 	0.16552 0.47740 0.19628 -0.13900
C 	C 	0.19286 0.48186 0.18034 0.09900
N 	N 	0.20821 0.48555 0.15013 -0.13800
C 	C 	0.19364 0.48444 0.13626 0.10200
N 	N 	0.16648 0.48030 0.14974 -0.14000
N 	N 	0.06032 0.47884 0.22610 -0.23600
C 	C 	0.07848 0.47004 0.24182 0.06500
H 	H 	0.06980 0.46520 0.26360 -0.00400
C 	C 	0.10918 0.46784 0.22760 -0.11700
H 	H 	0.12140 0.46160 0.23940 0.07900
C 	C 	0.12192 0.47496 0.19586 0.05300
C 	C 	0.10381 0.48221 0.17983 -0.12100
H 	H 	0.11220 0.48600 0.15820 0.07900
C 	C 	0.07343 0.48377 0.19575 0.07100
H 	H 	0.06120 0.48860 0.18460 -0.00300
N 	N 	0.23413 0.49973 0.03929 -0.23400
C 	C 	0.21221 0.48643 0.05761 0.07000
H 	H 	0.20580 0.48020 0.04840 -0.00400
C 	C 	0.19857 0.48129 0.08867 -0.12000
H 	H 	0.18270 0.47230 0.10050 0.08000
C 	C 	0.20826 0.48950 0.10260 0.05200
C 	C 	0.23233 0.50185 0.08423 -0.11800
H 	H 	0.24040 0.50660 0.09320 0.07800
C 	C 	0.24405 0.50693 0.05297 0.06800
H 	H 	0.25990 0.51590 0.04050 -0.00300
N 	N 	0.01352 0.49344 0.28532 -0.25500
C 	C 	0.02308 0.50526 0.29078 0.08300
S 	S 	0.03623 0.52229 0.29753 -0.04900
N 	N 	0.34215 0.34297 0.51683 -0.14000
C 	C 	0.35593 0.31373 0.51695 0.10100
N 	N 	0.45121 0.27161 0.50751 -0.24000
C 	C 	0.43380 0.29624 0.51632 0.08000
H 	H 	0.44310 0.30430 0.52070 -0.00800
C 	C 	0.40287 0.31103 0.51953 -0.13000
H 	H 	0.39160 0.32920 0.52500 0.08200
C 	C 	0.38875 0.29915 0.51477 0.05900
C 	C 	0.40650 0.27326 0.50546 -0.12400
H 	H 	0.39740 0.26460 0.50160 0.08100
C 	C 	0.43761 0.26045 0.50195 0.07200
H 	H 	0.44980 0.24300 0.49520 -0.00700
N 	N 	0.50244 0.28868 0.49902 -0.25900
C 	C 	0.50904 0.31008 0.48962 0.09700
S 	S 	0.51936 0.34066 0.47424 -0.05200
N 	N 	0.49224 0.23072 0.54970 -0.23700
C 	C 	0.48096 0.24900 0.56598 0.07100
H 	H 	0.47550 0.27070 0.55570 -0.00500
C 	C 	0.47676 0.23800 0.59700 -0.12200
H 	H 	0.46900 0.25180 0.60760 0.07900
C 	C 	0.48411 0.20667 0.61221 0.05500
C 	C 	0.49509 0.18707 0.59577 -0.12100
H 	H 	0.49940 0.16540 0.60580 0.08000
C 	C 	0.49938 0.20002 0.56498 0.07000
H 	H 	0.50790 0.18670 0.55350 -0.00400
C 	C 	0.47740 0.15314 0.68968 0.10100
N 	N 	0.47740 0.16552 0.66080 -0.13900
C 	C 	0.48186 0.19286 0.64494 0.09900
N 	N 	0.48555 0.20821 0.65611 -0.13800
C 	C 	0.48444 0.19364 0.68566 0.10200
N 	N 	0.48030 0.16648 0.70348 -0.14000
N 	N 	0.47884 0.06032 0.73474 -0.23600
C 	C 	0.47004 0.07848 0.70966 0.06500
H 	H 	0.46520 0.06980 0.70140 -0.00400
C 	C 	0.46784 0.10918 0.69538 -0.11700
H 	H 	0.46160 0.12140 0.67760 0.07900
C 	C 	0.47496 0.12192 0.70726 0.05300
C 	C 	0.48221 0.10381 0.73415 -0.12100
H 	H 	0.48600 0.11220 0.74360 0.07900
C 	C 	0.48377 0.07343 0.74705 0.07100
H 	H 	0.48860 0.06120 0.76560 -0.00300
N 	N 	0.49973 0.23413 0.72685 -0.23400
C 	C 	0.48643 0.21221 0.74375 0.07000
H 	H 	0.48020 0.20580 0.76560 -0.00400
C 	C 	0.48129 0.19857 0.73147 -0.12000
H 	H 	0.47230 0.18270 0.74450 0.08000
C 	C 	0.48950 0.20826 0.69964 0.05200
C 	C 	0.50185 0.23233 0.68159 -0.11800
H 	H 	0.50660 0.24040 0.65980 0.07800
C 	C 	0.50693 0.24405 0.69605 0.06800
H 	H 	0.51590 0.25990 0.68370 -0.00300
N 	N 	0.49344 0.01352 0.70772 -0.25500
C 	C 	0.50526 0.02308 0.68088 0.08300
S 	S 	0.52229 0.03623 0.64395 -0.04900
N 	N 	0.34297 0.29805 0.51683 -0.14000
C 	C 	0.31373 0.31339 0.51695 0.10100
N 	N 	0.27161 0.26967 0.50751 -0.24000
C 	C 	0.29624 0.25364 0.51632 0.08000
H 	H 	0.30430 0.23190 0.52070 -0.00800
C 	C 	0.31103 0.26657 0.51953 -0.13000
H 	H 	0.32920 0.25420 0.52500 0.08200
C 	C 	0.29915 0.29733 0.51477 0.05900
C 	C 	0.27326 0.31478 0.50546 -0.12400
H 	H 	0.26460 0.33640 0.50160 0.08100
C 	C 	0.26045 0.29999 0.50195 0.07200
H 	H 	0.24300 0.31200 0.49520 -0.00700
N 	N 	0.28868 0.20986 0.49902 -0.25900
C 	C 	0.31008 0.19126 0.48962 0.09700
S 	S 	0.34066 0.16574 0.47424 -0.05200
N 	N 	0.23072 0.22734 0.54970 -0.23700
C 	C 	0.24900 0.20406 0.56598 0.07100
H 	H 	0.27070 0.19810 0.55570 -0.00500
C 	C 	0.23800 0.18824 0.59700 -0.12200
H 	H 	0.25180 0.17160 0.60760 0.07900
C 	C 	0.20667 0.19701 0.61221 0.05500
C 	C 	0.18707 0.22207 0.59577 -0.12100
H 	H 	0.16540 0.22940 0.60580 0.08000
C 	C 	0.20002 0.23562 0.56498 0.07000
H 	H 	0.18670 0.25190 0.55350 -0.00400
C 	C 	0.15314 0.17978 0.68968 0.10100
N 	N 	0.16552 0.19628 0.66080 -0.13900
C 	C 	0.19286 0.18034 0.64494 0.09900
N 	N 	0.20821 0.15013 0.65611 -0.13800
C 	C 	0.19364 0.13626 0.68566 0.10200
N 	N 	0.16648 0.14974 0.70348 -0.14000
N 	N 	0.06032 0.22610 0.73474 -0.23600
C 	C 	0.07848 0.24182 0.70966 0.06500
H 	H 	0.06980 0.26360 0.70140 -0.00400
C 	C 	0.10918 0.22760 0.69538 -0.11700
H 	H 	0.12140 0.23940 0.67760 0.07900
C 	C 	0.12192 0.19586 0.70726 0.05300
C 	C 	0.10381 0.17983 0.73415 -0.12100
H 	H 	0.11220 0.15820 0.74360 0.07900
C 	C 	0.07343 0.19575 0.74705 0.07100
H 	H 	0.06120 0.18460 0.76560 -0.00300
N 	N 	0.23413 0.03929 0.72685 -0.23400
C 	C 	0.21221 0.05761 0.74375 0.07000
H 	H 	0.20580 0.04840 0.76560 -0.00400
C 	C 	0.19857 0.08867 0.73147 -0.12000
H 	H 	0.18270 0.10050 0.74450 0.08000
C 	C 	0.20826 0.10260 0.69964 0.05200
C 	C 	0.23233 0.08423 0.68159 -0.11800
H 	H 	0.24040 0.09320 0.65980 0.07800
C 	C 	0.24405 0.05297 0.69605 0.06800
H 	H 	0.25990 0.04050 0.68370 -0.00300
N 	N 	0.01352 0.28532 0.70772 -0.25500
C 	C 	0.02308 0.29078 0.68088 0.08300
S 	S 	0.03623 0.29753 0.64395 -0.04900
N 	N 	0.34215 0.51683 0.29805 -0.14000
C 	C 	0.35593 0.51695 0.31339 0.10100
N 	N 	0.45121 0.50751 0.26967 -0.24000
C 	C 	0.43380 0.51632 0.25364 0.08000
H 	H 	0.44310 0.52070 0.23190 -0.00800
C 	C 	0.40287 0.51953 0.26657 -0.13000
H 	H 	0.39160 0.52500 0.25420 0.08200
C 	C 	0.38875 0.51477 0.29733 0.05900
C 	C 	0.40650 0.50546 0.31478 -0.12400
H 	H 	0.39740 0.50160 0.33640 0.08100
C 	C 	0.43761 0.50195 0.29999 0.07200
H 	H 	0.44980 0.49520 0.31200 -0.00700
N 	N 	0.50244 0.49902 0.20986 -0.25900
C 	C 	0.50904 0.48962 0.19126 0.09700
S 	S 	0.51936 0.47424 0.16574 -0.05200
N 	N 	0.49224 0.54970 0.22734 -0.23700
C 	C 	0.48096 0.56598 0.20406 0.07100
H 	H 	0.47550 0.55570 0.19810 -0.00500
C 	C 	0.47676 0.59700 0.18824 -0.12200
H 	H 	0.46900 0.60760 0.17160 0.07900
C 	C 	0.48411 0.61221 0.19701 0.05500
C 	C 	0.49509 0.59577 0.22207 -0.12100
H 	H 	0.49940 0.60580 0.22940 0.08000
C 	C 	0.49938 0.56498 0.23562 0.07000
H 	H 	0.50790 0.55350 0.25190 -0.00400
C 	C 	0.47740 0.68968 0.17978 0.10100
N 	N 	0.47740 0.66080 0.19628 -0.13900
C 	C 	0.48186 0.64494 0.18034 0.09900
N 	N 	0.48555 0.65611 0.15013 -0.13800
C 	C 	0.48444 0.68566 0.13626 0.10200
N 	N 	0.48030 0.70348 0.14974 -0.14000
N 	N 	0.47884 0.73474 0.22610 -0.23600
C 	C 	0.47004 0.70966 0.24182 0.06500
H 	H 	0.46520 0.70140 0.26360 -0.00400
C 	C 	0.46784 0.69538 0.22760 -0.11700
H 	H 	0.46160 0.67760 0.23940 0.07900
C 	C 	0.47496 0.70726 0.19586 0.05300
C 	C 	0.48221 0.73415 0.17983 -0.12100
H 	H 	0.48600 0.74360 0.15820 0.07900
C 	C 	0.48377 0.74705 0.19575 0.07100
H 	H 	0.48860 0.76560 0.18460 -0.00300
N 	N 	0.49973 0.72685 0.03929 -0.23400
C 	C 	0.48643 0.74375 0.05761 0.07000
H 	H 	0.48020 0.76560 0.04840 -0.00400
C 	C 	0.48129 0.73147 0.08867 -0.12000
H 	H 	0.47230 0.74450 0.10050 0.08000
C 	C 	0.48950 0.69964 0.10260 0.05200
C 	C 	0.50185 0.68159 0.08423 -0.11800
H 	H 	0.50660 0.65980 0.09320 0.07800
C 	C 	0.50693 0.69605 0.05297 0.06800
H 	H 	0.51590 0.68370 0.04050 -0.00300
N 	N 	0.49344 0.70772 0.28532 -0.25500
C 	C 	0.50526 0.68088 0.29078 0.08300
S 	S 	0.52229 0.64395 0.29753 -0.04900
N 	N 	0.29805 0.34297 0.34215 -0.14000
C 	C 	0.31339 0.31373 0.35593 0.10100
N 	N 	0.26967 0.27161 0.45121 -0.24000
C 	C 	0.25364 0.29624 0.43380 0.08000
H 	H 	0.23190 0.30430 0.44310 -0.00800
C 	C 	0.26657 0.31103 0.40287 -0.13000
H 	H 	0.25420 0.32920 0.39160 0.08200
C 	C 	0.29733 0.29915 0.38875 0.05900
C 	C 	0.31478 0.27326 0.40650 -0.12400
H 	H 	0.33640 0.26460 0.39740 0.08100
C 	C 	0.29999 0.26045 0.43761 0.07200
H 	H 	0.31200 0.24300 0.44980 -0.00700
N 	N 	0.20986 0.28868 0.50244 -0.25900
C 	C 	0.19126 0.31008 0.50904 0.09700
S 	S 	0.16574 0.34066 0.51936 -0.05200
N 	N 	0.22734 0.23072 0.49224 -0.23700
C 	C 	0.20406 0.24900 0.48096 0.07100
H 	H 	0.19810 0.27070 0.47550 -0.00500
C 	C 	0.18824 0.23800 0.47676 -0.12200
H 	H 	0.17160 0.25180 0.46900 0.07900
C 	C 	0.19701 0.20667 0.48411 0.05500
C 	C 	0.22207 0.18707 0.49509 -0.12100
H 	H 	0.22940 0.16540 0.49940 0.08000
C 	C 	0.23562 0.20002 0.49938 0.07000
H 	H 	0.25190 0.18670 0.50790 -0.00400
C 	C 	0.17978 0.15314 0.47740 0.10100
N 	N 	0.19628 0.16552 0.47740 -0.13900
C 	C 	0.18034 0.19286 0.48186 0.09900
N 	N 	0.15013 0.20821 0.48555 -0.13800
C 	C 	0.13626 0.19364 0.48444 0.10200
N 	N 	0.14974 0.16648 0.48030 -0.14000
N 	N 	0.22610 0.06032 0.47884 -0.23600
C 	C 	0.24182 0.07848 0.47004 0.06500
H 	H 	0.26360 0.06980 0.46520 -0.00400
C 	C 	0.22760 0.10918 0.46784 -0.11700
H 	H 	0.23940 0.12140 0.46160 0.07900
C 	C 	0.19586 0.12192 0.47496 0.05300
C 	C 	0.17983 0.10381 0.48221 -0.12100
H 	H 	0.15820 0.11220 0.48600 0.07900
C 	C 	0.19575 0.07343 0.48377 0.07100
H 	H 	0.18460 0.06120 0.48860 -0.00300
N 	N 	0.03929 0.23413 0.49973 -0.23400
C 	C 	0.05761 0.21221 0.48643 0.07000
H 	H 	0.04840 0.20580 0.48020 -0.00400
C 	C 	0.08867 0.19857 0.48129 -0.12000
H 	H 	0.10050 0.18270 0.47230 0.08000
C 	C 	0.10260 0.20826 0.48950 0.05200
C 	C 	0.08423 0.23233 0.50185 -0.11800
H 	H 	0.09320 0.24040 0.50660 0.07800
C 	C 	0.05297 0.24405 0.50693 0.06800
H 	H 	0.04050 0.25990 0.51590 -0.00300
N 	N 	0.28532 0.01352 0.49344 -0.25500
C 	C 	0.29078 0.02308 0.50526 0.08300
S 	S 	0.29753 0.03623 0.52229 -0.04900
N 	N 	0.51683 0.34215 0.34297 -0.14000
C 	C 	0.51695 0.35593 0.31373 0.10100
N 	N 	0.50751 0.45121 0.27161 -0.24000
C 	C 	0.51632 0.43380 0.29624 0.08000
H 	H 	0.52070 0.44310 0.30430 -0.00800
C 	C 	0.51953 0.40287 0.31103 -0.13000
H 	H 	0.52500 0.39160 0.32920 0.08200
C 	C 	0.51477 0.38875 0.29915 0.05900
C 	C 	0.50546 0.40650 0.27326 -0.12400
H 	H 	0.50160 0.39740 0.26460 0.08100
C 	C 	0.50195 0.43761 0.26045 0.07200
H 	H 	0.49520 0.44980 0.24300 -0.00700
N 	N 	0.49902 0.50244 0.28868 -0.25900
C 	C 	0.48962 0.50904 0.31008 0.09700
S 	S 	0.47424 0.51936 0.34066 -0.05200
N 	N 	0.54970 0.49224 0.23072 -0.23700
C 	C 	0.56598 0.48096 0.24900 0.07100
H 	H 	0.55570 0.47550 0.27070 -0.00500
C 	C 	0.59700 0.47676 0.23800 -0.12200
H 	H 	0.60760 0.46900 0.25180 0.07900
C 	C 	0.61221 0.48411 0.20667 0.05500
C 	C 	0.59577 0.49509 0.18707 -0.12100
H 	H 	0.60580 0.49940 0.16540 0.08000
C 	C 	0.56498 0.49938 0.20002 0.07000
H 	H 	0.55350 0.50790 0.18670 -0.00400
C 	C 	0.68968 0.47740 0.15314 0.10100
N 	N 	0.66080 0.47740 0.16552 -0.13900
C 	C 	0.64494 0.48186 0.19286 0.09900
N 	N 	0.65611 0.48555 0.20821 -0.13800
C 	C 	0.68566 0.48444 0.19364 0.10200
N 	N 	0.70348 0.48030 0.16648 -0.14000
N 	N 	0.73474 0.47884 0.06032 -0.23600
C 	C 	0.70966 0.47004 0.07848 0.06500
H 	H 	0.70140 0.46520 0.06980 -0.00400
C 	C 	0.69538 0.46784 0.10918 -0.11700
H 	H 	0.67760 0.46160 0.12140 0.07900
C 	C 	0.70726 0.47496 0.12192 0.05300
C 	C 	0.73415 0.48221 0.10381 -0.12100
H 	H 	0.74360 0.48600 0.11220 0.07900
C 	C 	0.74705 0.48377 0.07343 0.07100
H 	H 	0.76560 0.48860 0.06120 -0.00300
N 	N 	0.72685 0.49973 0.23413 -0.23400
C 	C 	0.74375 0.48643 0.21221 0.07000
H 	H 	0.76560 0.48020 0.20580 -0.00400
C 	C 	0.73147 0.48129 0.19857 -0.12000
H 	H 	0.74450 0.47230 0.18270 0.08000
C 	C 	0.69964 0.48950 0.20826 0.05200
C 	C 	0.68159 0.50185 0.23233 -0.11800
H 	H 	0.65980 0.50660 0.24040 0.07800
C 	C 	0.69605 0.50693 0.24405 0.06800
H 	H 	0.68370 0.51590 0.25990 -0.00300
N 	N 	0.70772 0.49344 0.01352 -0.25500
C 	C 	0.68088 0.50526 0.02308 0.08300
S 	S 	0.64395 0.52229 0.03623 -0.04900
N 	N 	0.51683 0.34297 0.29805 -0.14000
C 	C 	0.51695 0.31373 0.31339 0.10100
N 	N 	0.50751 0.27161 0.26967 -0.24000
C 	C 	0.51632 0.29624 0.25364 0.08000
H 	H 	0.52070 0.30430 0.23190 -0.00800
C 	C 	0.51953 0.31103 0.26657 -0.13000
H 	H 	0.52500 0.32920 0.25420 0.08200
C 	C 	0.51477 0.29915 0.29733 0.05900
C 	C 	0.50546 0.27326 0.31478 -0.12400
H 	H 	0.50160 0.26460 0.33640 0.08100
C 	C 	0.50195 0.26045 0.29999 0.07200
H 	H 	0.49520 0.24300 0.31200 -0.00700
N 	N 	0.49902 0.28868 0.20986 -0.25900
C 	C 	0.48962 0.31008 0.19126 0.09700
S 	S 	0.47424 0.34066 0.16574 -0.05200
N 	N 	0.54970 0.23072 0.22734 -0.23700
C 	C 	0.56598 0.24900 0.20406 0.07100
H 	H 	0.55570 0.27070 0.19810 -0.00500
C 	C 	0.59700 0.23800 0.18824 -0.12200
H 	H 	0.60760 0.25180 0.17160 0.07900
C 	C 	0.61221 0.20667 0.19701 0.05500
C 	C 	0.59577 0.18707 0.22207 -0.12100
H 	H 	0.60580 0.16540 0.22940 0.08000
C 	C 	0.56498 0.20002 0.23562 0.07000
H 	H 	0.55350 0.18670 0.25190 -0.00400
C 	C 	0.68968 0.15314 0.17978 0.10100
N 	N 	0.66080 0.16552 0.19628 -0.13900
C 	C 	0.64494 0.19286 0.18034 0.09900
N 	N 	0.65611 0.20821 0.15013 -0.13800
C 	C 	0.68566 0.19364 0.13626 0.10200
N 	N 	0.70348 0.16648 0.14974 -0.14000
N 	N 	0.73474 0.06032 0.22610 -0.23600
C 	C 	0.70966 0.07848 0.24182 0.06500
H 	H 	0.70140 0.06980 0.26360 -0.00400
C 	C 	0.69538 0.10918 0.22760 -0.11700
H 	H 	0.67760 0.12140 0.23940 0.07900
C 	C 	0.70726 0.12192 0.19586 0.05300
C 	C 	0.73415 0.10381 0.17983 -0.12100
H 	H 	0.74360 0.11220 0.15820 0.07900
C 	C 	0.74705 0.07343 0.19575 0.07100
H 	H 	0.76560 0.06120 0.18460 -0.00300
N 	N 	0.72685 0.23413 0.03929 -0.23400
C 	C 	0.74375 0.21221 0.05761 0.07000
H 	H 	0.76560 0.20580 0.04840 -0.00400
C 	C 	0.73147 0.19857 0.08867 -0.12000
H 	H 	0.74450 0.18270 0.10050 0.08000
C 	C 	0.69964 0.20826 0.10260 0.05200
C 	C 	0.68159 0.23233 0.08423 -0.11800
H 	H 	0.65980 0.24040 0.09320 0.07800
C 	C 	0.69605 0.24405 0.05297 0.06800
H 	H 	0.68370 0.25990 0.04050 -0.00300
N 	N 	0.70772 0.01352 0.28532 -0.25500
C 	C 	0.68088 0.02308 0.29078 0.08300
S 	S 	0.64395 0.03623 0.29753 -0.04900
N 	N 	0.29805 0.34215 0.51683 -0.14000
C 	C 	0.31339 0.35593 0.51695 0.10100
N 	N 	0.26967 0.45121 0.50751 -0.24000
C 	C 	0.25364 0.43380 0.51632 0.08000
H 	H 	0.23190 0.44310 0.52070 -0.00800
C 	C 	0.26657 0.40287 0.51953 -0.13000
H 	H 	0.25420 0.39160 0.52500 0.08200
C 	C 	0.29733 0.38875 0.51477 0.05900
C 	C 	0.31478 0.40650 0.50546 -0.12400
H 	H 	0.33640 0.39740 0.50160 0.08100
C 	C 	0.29999 0.43761 0.50195 0.07200
H 	H 	0.31200 0.44980 0.49520 -0.00700
N 	N 	0.20986 0.50244 0.49902 -0.25900
C 	C 	0.19126 0.50904 0.48962 0.09700
S 	S 	0.16574 0.51936 0.47424 -0.05200
N 	N 	0.22734 0.49224 0.54970 -0.23700
C 	C 	0.20406 0.48096 0.56598 0.07100
H 	H 	0.19810 0.47550 0.55570 -0.00500
C 	C 	0.18824 0.47676 0.59700 -0.12200
H 	H 	0.17160 0.46900 0.60760 0.07900
C 	C 	0.19701 0.48411 0.61221 0.05500
C 	C 	0.22207 0.49509 0.59577 -0.12100
H 	H 	0.22940 0.49940 0.60580 0.08000
C 	C 	0.23562 0.49938 0.56498 0.07000
H 	H 	0.25190 0.50790 0.55350 -0.00400
C 	C 	0.17978 0.47740 0.68968 0.10100
N 	N 	0.19628 0.47740 0.66080 -0.13900
C 	C 	0.18034 0.48186 0.64494 0.09900
N 	N 	0.15013 0.48555 0.65611 -0.13800
C 	C 	0.13626 0.48444 0.68566 0.10200
N 	N 	0.14974 0.48030 0.70348 -0.14000
N 	N 	0.22610 0.47884 0.73474 -0.23600
C 	C 	0.24182 0.47004 0.70966 0.06500
H 	H 	0.26360 0.46520 0.70140 -0.00400
C 	C 	0.22760 0.46784 0.69538 -0.11700
H 	H 	0.23940 0.46160 0.67760 0.07900
C 	C 	0.19586 0.47496 0.70726 0.05300
C 	C 	0.17983 0.48221 0.73415 -0.12100
H 	H 	0.15820 0.48600 0.74360 0.07900
C 	C 	0.19575 0.48377 0.74705 0.07100
H 	H 	0.18460 0.48860 0.76560 -0.00300
N 	N 	0.03929 0.49973 0.72685 -0.23400
C 	C 	0.05761 0.48643 0.74375 0.07000
H 	H 	0.04840 0.48020 0.76560 -0.00400
C 	C 	0.08867 0.48129 0.73147 -0.12000
H 	H 	0.10050 0.47230 0.74450 0.08000
C 	C 	0.10260 0.48950 0.69964 0.05200
C 	C 	0.08423 0.50185 0.68159 -0.11800
H 	H 	0.09320 0.50660 0.65980 0.07800
C 	C 	0.05297 0.50693 0.69605 0.06800
H 	H 	0.04050 0.51590 0.68370 -0.00300
N 	N 	0.28532 0.49344 0.70772 -0.25500
C 	C 	0.29078 0.50526 0.68088 0.08300
S 	S 	0.29753 0.52229 0.64395 -0.04900
N 	N 	0.34215 0.29805 0.34297 -0.14000
C 	C 	0.35593 0.31339 0.31373 0.10100
N 	N 	0.45121 0.26967 0.27161 -0.24000
C 	C 	0.43380 0.25364 0.29624 0.08000
H 	H 	0.44310 0.23190 0.30430 -0.00800
C 	C 	0.40287 0.26657 0.31103 -0.13000
H 	H 	0.39160 0.25420 0.32920 0.08200
C 	C 	0.38875 0.29733 0.29915 0.05900
C 	C 	0.40650 0.31478 0.27326 -0.12400
H 	H 	0.39740 0.33640 0.26460 0.08100
C 	C 	0.43761 0.29999 0.26045 0.07200
H 	H 	0.44980 0.31200 0.24300 -0.00700
N 	N 	0.50244 0.20986 0.28868 -0.25900
C 	C 	0.50904 0.19126 0.31008 0.09700
S 	S 	0.51936 0.16574 0.34066 -0.05200
N 	N 	0.49224 0.22734 0.23072 -0.23700
C 	C 	0.48096 0.20406 0.24900 0.07100
H 	H 	0.47550 0.19810 0.27070 -0.00500
C 	C 	0.47676 0.18824 0.23800 -0.12200
H 	H 	0.46900 0.17160 0.25180 0.07900
C 	C 	0.48411 0.19701 0.20667 0.05500
C 	C 	0.49509 0.22207 0.18707 -0.12100
H 	H 	0.49940 0.22940 0.16540 0.08000
C 	C 	0.49938 0.23562 0.20002 0.07000
H 	H 	0.50790 0.25190 0.18670 -0.00400
C 	C 	0.47740 0.17978 0.15314 0.10100
N 	N 	0.47740 0.19628 0.16552 -0.13900
C 	C 	0.48186 0.18034 0.19286 0.09900
N 	N 	0.48555 0.15013 0.20821 -0.13800
C 	C 	0.48444 0.13626 0.19364 0.10200
N 	N 	0.48030 0.14974 0.16648 -0.14000
N 	N 	0.47884 0.22610 0.06032 -0.23600
C 	C 	0.47004 0.24182 0.07848 0.06500
H 	H 	0.46520 0.26360 0.06980 -0.00400
C 	C 	0.46784 0.22760 0.10918 -0.11700
H 	H 	0.46160 0.23940 0.12140 0.07900
C 	C 	0.47496 0.19586 0.12192 0.05300
C 	C 	0.48221 0.17983 0.10381 -0.12100
H 	H 	0.48600 0.15820 0.11220 0.07900
C 	C 	0.48377 0.19575 0.07343 0.07100
H 	H 	0.48860 0.18460 0.06120 -0.00300
N 	N 	0.49973 0.03929 0.23413 -0.23400
C 	C 	0.48643 0.05761 0.21221 0.07000
H 	H 	0.48020 0.04840 0.20580 -0.00400
C 	C 	0.48129 0.08867 0.19857 -0.12000
H 	H 	0.47230 0.10050 0.18270 0.08000
C 	C 	0.48950 0.10260 0.20826 0.05200
C 	C 	0.50185 0.08423 0.23233 -0.11800
H 	H 	0.50660 0.09320 0.24040 0.07800
C 	C 	0.50693 0.05297 0.24405 0.06800
H 	H 	0.51590 0.04050 0.25990 -0.00300
N 	N 	0.49344 0.28532 0.01352 -0.25500
C 	C 	0.50526 0.29078 0.02308 0.08300
S 	S 	0.52229 0.29753 0.03623 -0.04900
N 	N 	0.34297 0.51683 0.34215 -0.14000
C 	C 	0.31373 0.51695 0.35593 0.10100
N 	N 	0.27161 0.50751 0.45121 -0.24000
C 	C 	0.29624 0.51632 0.43380 0.08000
H 	H 	0.30430 0.52070 0.44310 -0.00800
C 	C 	0.31103 0.51953 0.40287 -0.13000
H 	H 	0.32920 0.52500 0.39160 0.08200
C 	C 	0.29915 0.51477 0.38875 0.05900
C 	C 	0.27326 0.50546 0.40650 -0.12400
H 	H 	0.26460 0.50160 0.39740 0.08100
C 	C 	0.26045 0.50195 0.43761 0.07200
H 	H 	0.24300 0.49520 0.44980 -0.00700
N 	N 	0.28868 0.49902 0.50244 -0.25900
C 	C 	0.31008 0.48962 0.50904 0.09700
S 	S 	0.34066 0.47424 0.51936 -0.05200
N 	N 	0.23072 0.54970 0.49224 -0.23700
C 	C 	0.24900 0.56598 0.48096 0.07100
H 	H 	0.27070 0.55570 0.47550 -0.00500
C 	C 	0.23800 0.59700 0.47676 -0.12200
H 	H 	0.25180 0.60760 0.46900 0.07900
C 	C 	0.20667 0.61221 0.48411 0.05500
C 	C 	0.18707 0.59577 0.49509 -0.12100
H 	H 	0.16540 0.60580 0.49940 0.08000
C 	C 	0.20002 0.56498 0.49938 0.07000
H 	H 	0.18670 0.55350 0.50790 -0.00400
C 	C 	0.15314 0.68968 0.47740 0.10100
N 	N 	0.16552 0.66080 0.47740 -0.13900
C 	C 	0.19286 0.64494 0.48186 0.09900
N 	N 	0.20821 0.65611 0.48555 -0.13800
C 	C 	0.19364 0.68566 0.48444 0.10200
N 	N 	0.16648 0.70348 0.48030 -0.14000
N 	N 	0.06032 0.73474 0.47884 -0.23600
C 	C 	0.07848 0.70966 0.47004 0.06500
H 	H 	0.06980 0.70140 0.46520 -0.00400
C 	C 	0.10918 0.69538 0.46784 -0.11700
H 	H 	0.12140 0.67760 0.46160 0.07900
C 	C 	0.12192 0.70726 0.47496 0.05300
C 	C 	0.10381 0.73415 0.48221 -0.12100
H 	H 	0.11220 0.74360 0.48600 0.07900
C 	C 	0.07343 0.74705 0.48377 0.07100
H 	H 	0.06120 0.76560 0.48860 -0.00300
N 	N 	0.23413 0.72685 0.49973 -0.23400
C 	C 	0.21221 0.74375 0.48643 0.07000
H 	H 	0.20580 0.76560 0.48020 -0.00400
C 	C 	0.19857 0.73147 0.48129 -0.12000
H 	H 	0.18270 0.74450 0.47230 0.08000
C 	C 	0.20826 0.69964 0.48950 0.05200
C 	C 	0.23233 0.68159 0.50185 -0.11800
H 	H 	0.24040 0.65980 0.50660 0.07800
C 	C 	0.24405 0.69605 0.50693 0.06800
H 	H 	0.25990 0.68370 0.51590 -0.00300
N 	N 	0.01352 0.70772 0.49344 -0.25500
C 	C 	0.02308 0.68088 0.50526 0.08300
S 	S 	0.03623 0.64395 0.52229 -0.04900
N 	N 	0.20195 0.98317 0.15785 -0.14000
C 	C 	0.18661 0.98305 0.14407 0.10100
N 	N 	0.23033 0.99249 0.04879 -0.24000
C 	C 	0.24636 0.98368 0.06620 0.08000
H 	H 	0.26810 0.97930 0.05690 -0.00800
C 	C 	0.23343 0.98047 0.09713 -0.13000
H 	H 	0.24580 0.97500 0.10840 0.08200
C 	C 	0.20267 0.98523 0.11125 0.05900
C 	C 	0.18522 0.99454 0.09350 -0.12400
H 	H 	0.16360 0.99840 0.10260 0.08100
C 	C 	0.20001 0.99805 0.06239 0.07200
H 	H 	0.18800 0.00480 0.05020 -0.00700
N 	N 	0.29014 0.00098 0.99756 -0.25900
C 	C 	0.30874 0.01038 0.99096 0.09700
S 	S 	0.33426 0.02576 0.98064 -0.05200
N 	N 	0.27266 0.95030 0.00776 -0.23700
C 	C 	0.29594 0.93402 0.01904 0.07100
H 	H 	0.30190 0.94430 0.02450 -0.00500
C 	C 	0.31176 0.90300 0.02324 -0.12200
H 	H 	0.32840 0.89240 0.03100 0.07900
C 	C 	0.30299 0.88779 0.01589 0.05500
C 	C 	0.27793 0.90423 0.00491 -0.12100
H 	H 	0.27060 0.89420 0.00060 0.08000
C 	C 	0.26438 0.93502 0.00062 0.07000
H 	H 	0.24810 0.94650 0.99210 -0.00400
C 	C 	0.32022 0.81032 0.02260 0.10100
N 	N 	0.30372 0.83920 0.02260 -0.13900
C 	C 	0.31966 0.85506 0.01814 0.09900
N 	N 	0.34987 0.84389 0.01445 -0.13800
C 	C 	0.36374 0.81434 0.01556 0.10200
N 	N 	0.35026 0.79652 0.01970 -0.14000
N 	N 	0.27390 0.76526 0.02116 -0.23600
C 	C 	0.25818 0.79034 0.02996 0.06500
H 	H 	0.23640 0.79860 0.03480 -0.00400
C 	C 	0.27240 0.80462 0.03216 -0.11700
H 	H 	0.26060 0.82240 0.03840 0.07900
C 	C 	0.30414 0.79274 0.02504 0.05300
C 	C 	0.32017 0.76585 0.01779 -0.12100
H 	H 	0.34180 0.75640 0.01400 0.07900
C 	C 	0.30425 0.75295 0.01623 0.07100
H 	H 	0.31540 0.73440 0.01140 -0.00300
N 	N 	0.46071 0.77315 0.00027 -0.23400
C 	C 	0.44239 0.75625 0.01357 0.07000
H 	H 	0.45160 0.73440 0.01980 -0.00400
C 	C 	0.41133 0.76853 0.01871 -0.12000
H 	H 	0.39950 0.75550 0.02770 0.08000
C 	C 	0.39740 0.80036 0.01050 0.05200
C 	C 	0.41577 0.81841 0.99815 -0.11800
H 	H 	0.40680 0.84020 0.99340 0.07800
C 	C 	0.44703 0.80395 0.99307 0.06800
H 	H 	0.45950 0.81630 0.98410 -0.00300
N 	N 	0.21468 0.79228 0.00656 -0.25500
C 	C 	0.20922 0.81912 0.99474 0.08300
S 	S 	0.20247 0.85605 0.97771 -0.04900
N 	N 	0.98317 0.20195 0.15703 -0.14000
C 	C 	0.98305 0.18661 0.18627 0.10100
N 	N 	0.99249 0.23033 0.22839 -0.24000
C 	C 	0.98368 0.24636 0.20376 0.08000
H 	H 	0.97930 0.26810 0.19570 -0.00800
C 	C 	0.98047 0.23343 0.18897 -0.13000
H 	H 	0.97500 0.24580 0.17080 0.08200
C 	C 	0.98523 0.20267 0.20085 0.05900
C 	C 	0.99454 0.18522 0.22674 -0.12400
H 	H 	0.99840 0.16360 0.23540 0.08100
C 	C 	0.99805 0.20001 0.23955 0.07200
H 	H 	0.00480 0.18800 0.25700 -0.00700
N 	N 	0.00098 0.29014 0.21132 -0.25900
C 	C 	0.01038 0.30874 0.18992 0.09700
S 	S 	0.02576 0.33426 0.15934 -0.05200
N 	N 	0.95030 0.27266 0.26928 -0.23700
C 	C 	0.93402 0.29594 0.25100 0.07100
H 	H 	0.94430 0.30190 0.22930 -0.00500
C 	C 	0.90300 0.31176 0.26200 -0.12200
H 	H 	0.89240 0.32840 0.24820 0.07900
C 	C 	0.88779 0.30299 0.29333 0.05500
C 	C 	0.90423 0.27793 0.31293 -0.12100
H 	H 	0.89420 0.27060 0.33460 0.08000
C 	C 	0.93502 0.26438 0.29998 0.07000
H 	H 	0.94650 0.24810 0.31330 -0.00400
C 	C 	0.81032 0.32022 0.34686 0.10100
N 	N 	0.83920 0.30372 0.33448 -0.13900
C 	C 	0.85506 0.31966 0.30714 0.09900
N 	N 	0.84389 0.34987 0.29179 -0.13800
C 	C 	0.81434 0.36374 0.30636 0.10200
N 	N 	0.79652 0.35026 0.33352 -0.14000
N 	N 	0.76526 0.27390 0.43968 -0.23600
C 	C 	0.79034 0.25818 0.42152 0.06500
H 	H 	0.79860 0.23640 0.43020 -0.00400
C 	C 	0.80462 0.27240 0.39082 -0.11700
H 	H 	0.82240 0.26060 0.37860 0.07900
C 	C 	0.79274 0.30414 0.37808 0.05300
C 	C 	0.76585 0.32017 0.39619 -0.12100
H 	H 	0.75640 0.34180 0.38780 0.07900
C 	C 	0.75295 0.30425 0.42657 0.07100
H 	H 	0.73440 0.31540 0.43880 -0.00300
N 	N 	0.77315 0.46071 0.26587 -0.23400
C 	C 	0.75625 0.44239 0.28779 0.07000
H 	H 	0.73440 0.45160 0.29420 -0.00400
C 	C 	0.76853 0.41133 0.30143 -0.12000
H 	H 	0.75550 0.39950 0.31730 0.08000
C 	C 	0.80036 0.39740 0.29174 0.05200
C 	C 	0.81841 0.41577 0.26767 -0.11800
H 	H 	0.84020 0.40680 0.25960 0.07800
C 	C 	0.80395 0.44703 0.25595 0.06800
H 	H 	0.81630 0.45950 0.24010 -0.00300
N 	N 	0.79228 0.21468 0.48648 -0.25500
C 	C 	0.81912 0.20922 0.47692 0.08300
S 	S 	0.85605 0.20247 0.46377 -0.04900
N 	N 	0.15703 0.15785 0.98317 -0.14000
C 	C 	0.18627 0.14407 0.98305 0.10100
N 	N 	0.22839 0.04879 0.99249 -0.24000
C 	C 	0.20376 0.06620 0.98368 0.08000
H 	H 	0.19570 0.05690 0.97930 -0.00800
C 	C 	0.18897 0.09713 0.98047 -0.13000
H 	H 	0.17080 0.10840 0.97500 0.08200
C 	C 	0.20085 0.11125 0.98523 0.05900
C 	C 	0.22674 0.09350 0.99454 -0.12400
H 	H 	0.23540 0.10260 0.99840 0.08100
C 	C 	0.23955 0.06239 0.99805 0.07200
H 	H 	0.25700 0.05020 0.00480 -0.00700
N 	N 	0.21132 0.99756 0.00098 -0.25900
C 	C 	0.18992 0.99096 0.01038 0.09700
S 	S 	0.15934 0.98064 0.02576 -0.05200
N 	N 	0.26928 0.00776 0.95030 -0.23700
C 	C 	0.25100 0.01904 0.93402 0.07100
H 	H 	0.22930 0.02450 0.94430 -0.00500
C 	C 	0.26200 0.02324 0.90300 -0.12200
H 	H 	0.24820 0.03100 0.89240 0.07900
C 	C 	0.29333 0.01589 0.88779 0.05500
C 	C 	0.31293 0.00491 0.90423 -0.12100
H 	H 	0.33460 0.00060 0.89420 0.08000
C 	C 	0.29998 0.00062 0.93502 0.07000
H 	H 	0.31330 0.99210 0.94650 -0.00400
C 	C 	0.34686 0.02260 0.81032 0.10100
N 	N 	0.33448 0.02260 0.83920 -0.13900
C 	C 	0.30714 0.01814 0.85506 0.09900
N 	N 	0.29179 0.01445 0.84389 -0.13800
C 	C 	0.30636 0.01556 0.81434 0.10200
N 	N 	0.33352 0.01970 0.79652 -0.14000
N 	N 	0.43968 0.02116 0.76526 -0.23600
C 	C 	0.42152 0.02996 0.79034 0.06500
H 	H 	0.43020 0.03480 0.79860 -0.00400
C 	C 	0.39082 0.03216 0.80462 -0.11700
H 	H 	0.37860 0.03840 0.82240 0.07900
C 	C 	0.37808 0.02504 0.79274 0.05300
C 	C 	0.39619 0.01779 0.76585 -0.12100
H 	H 	0.38780 0.01400 0.75640 0.07900
C 	C 	0.42657 0.01623 0.75295 0.07100
H 	H 	0.43880 0.01140 0.73440 -0.00300
N 	N 	0.26587 0.00027 0.77315 -0.23400
C 	C 	0.28779 0.01357 0.75625 0.07000
H 	H 	0.29420 0.01980 0.73440 -0.00400
C 	C 	0.30143 0.01871 0.76853 -0.12000
H 	H 	0.31730 0.02770 0.75550 0.08000
C 	C 	0.29174 0.01050 0.80036 0.05200
C 	C 	0.26767 0.99815 0.81841 -0.11800
H 	H 	0.25960 0.99340 0.84020 0.07800
C 	C 	0.25595 0.99307 0.80395 0.06800
H 	H 	0.24010 0.98410 0.81630 -0.00300
N 	N 	0.48648 0.00656 0.79228 -0.25500
C 	C 	0.47692 0.99474 0.81912 0.08300
S 	S 	0.46377 0.97771 0.85605 -0.04900
N 	N 	0.15785 0.15703 0.20195 -0.14000
C 	C 	0.14407 0.18627 0.18661 0.10100
N 	N 	0.04879 0.22839 0.23033 -0.24000
C 	C 	0.06620 0.20376 0.24636 0.08000
H 	H 	0.05690 0.19570 0.26810 -0.00800
C 	C 	0.09713 0.18897 0.23343 -0.13000
H 	H 	0.10840 0.17080 0.24580 0.08200
C 	C 	0.11125 0.20085 0.20267 0.05900
C 	C 	0.09350 0.22674 0.18522 -0.12400
H 	H 	0.10260 0.23540 0.16360 0.08100
C 	C 	0.06239 0.23955 0.20001 0.07200
H 	H 	0.05020 0.25700 0.18800 -0.00700
N 	N 	0.99756 0.21132 0.29014 -0.25900
C 	C 	0.99096 0.18992 0.30874 0.09700
S 	S 	0.98064 0.15934 0.33426 -0.05200
N 	N 	0.00776 0.26928 0.27266 -0.23700
C 	C 	0.01904 0.25100 0.29594 0.07100
H 	H 	0.02450 0.22930 0.30190 -0.00500
C 	C 	0.02324 0.26200 0.31176 -0.12200
H 	H 	0.03100 0.24820 0.32840 0.07900
C 	C 	0.01589 0.29333 0.30299 0.05500
C 	C 	0.00491 0.31293 0.27793 -0.12100
H 	H 	0.00060 0.33460 0.27060 0.08000
C 	C 	0.00062 0.29998 0.26438 0.07000
H 	H 	0.99210 0.31330 0.24810 -0.00400
C 	C 	0.02260 0.34686 0.32022 0.10100
N 	N 	0.02260 0.33448 0.30372 -0.13900
C 	C 	0.01814 0.30714 0.31966 0.09900
N 	N 	0.01445 0.29179 0.34987 -0.13800
C 	C 	0.01556 0.30636 0.36374 0.10200
N 	N 	0.01970 0.33352 0.35026 -0.14000
N 	N 	0.02116 0.43968 0.27390 -0.23600
C 	C 	0.02996 0.42152 0.25818 0.06500
H 	H 	0.03480 0.43020 0.23640 -0.00400
C 	C 	0.03216 0.39082 0.27240 -0.11700
H 	H 	0.03840 0.37860 0.26060 0.07900
C 	C 	0.02504 0.37808 0.30414 0.05300
C 	C 	0.01779 0.39619 0.32017 -0.12100
H 	H 	0.01400 0.38780 0.34180 0.07900
C 	C 	0.01623 0.42657 0.30425 0.07100
H 	H 	0.01140 0.43880 0.31540 -0.00300
N 	N 	0.00027 0.26587 0.46071 -0.23400
C 	C 	0.01357 0.28779 0.44239 0.07000
H 	H 	0.01980 0.29420 0.45160 -0.00400
C 	C 	0.01871 0.30143 0.41133 -0.12000
H 	H 	0.02770 0.31730 0.39950 0.08000
C 	C 	0.01050 0.29174 0.39740 0.05200
C 	C 	0.99815 0.26767 0.41577 -0.11800
H 	H 	0.99340 0.25960 0.40680 0.07800
C 	C 	0.99307 0.25595 0.44703 0.06800
H 	H 	0.98410 0.24010 0.45950 -0.00300
N 	N 	0.00656 0.48648 0.21468 -0.25500
C 	C 	0.99474 0.47692 0.20922 0.08300
S 	S 	0.97771 0.46377 0.20247 -0.04900
N 	N 	0.15703 0.20195 0.15785 -0.14000
C 	C 	0.18627 0.18661 0.14407 0.10100
N 	N 	0.22839 0.23033 0.04879 -0.24000
C 	C 	0.20376 0.24636 0.06620 0.08000
H 	H 	0.19570 0.26810 0.05690 -0.00800
C 	C 	0.18897 0.23343 0.09713 -0.13000
H 	H 	0.17080 0.24580 0.10840 0.08200
C 	C 	0.20085 0.20267 0.11125 0.05900
C 	C 	0.22674 0.18522 0.09350 -0.12400
H 	H 	0.23540 0.16360 0.10260 0.08100
C 	C 	0.23955 0.20001 0.06239 0.07200
H 	H 	0.25700 0.18800 0.05020 -0.00700
N 	N 	0.21132 0.29014 0.99756 -0.25900
C 	C 	0.18992 0.30874 0.99096 0.09700
S 	S 	0.15934 0.33426 0.98064 -0.05200
N 	N 	0.26928 0.27266 0.00776 -0.23700
C 	C 	0.25100 0.29594 0.01904 0.07100
H 	H 	0.22930 0.30190 0.02450 -0.00500
C 	C 	0.26200 0.31176 0.02324 -0.12200
H 	H 	0.24820 0.32840 0.03100 0.07900
C 	C 	0.29333 0.30299 0.01589 0.05500
C 	C 	0.31293 0.27793 0.00491 -0.12100
H 	H 	0.33460 0.27060 0.00060 0.08000
C 	C 	0.29998 0.26438 0.00062 0.07000
H 	H 	0.31330 0.24810 0.99210 -0.00400
C 	C 	0.34686 0.32022 0.02260 0.10100
N 	N 	0.33448 0.30372 0.02260 -0.13900
C 	C 	0.30714 0.31966 0.01814 0.09900
N 	N 	0.29179 0.34987 0.01445 -0.13800
C 	C 	0.30636 0.36374 0.01556 0.10200
N 	N 	0.33352 0.35026 0.01970 -0.14000
N 	N 	0.43968 0.27390 0.02116 -0.23600
C 	C 	0.42152 0.25818 0.02996 0.06500
H 	H 	0.43020 0.23640 0.03480 -0.00400
C 	C 	0.39082 0.27240 0.03216 -0.11700
H 	H 	0.37860 0.26060 0.03840 0.07900
C 	C 	0.37808 0.30414 0.02504 0.05300
C 	C 	0.39619 0.32017 0.01779 -0.12100
H 	H 	0.38780 0.34180 0.01400 0.07900
C 	C 	0.42657 0.30425 0.01623 0.07100
H 	H 	0.43880 0.31540 0.01140 -0.00300
N 	N 	0.26587 0.46071 0.00027 -0.23400
C 	C 	0.28779 0.44239 0.01357 0.07000
H 	H 	0.29420 0.45160 0.01980 -0.00400
C 	C 	0.30143 0.41133 0.01871 -0.12000
H 	H 	0.31730 0.39950 0.02770 0.08000
C 	C 	0.29174 0.39740 0.01050 0.05200
C 	C 	0.26767 0.41577 0.99815 -0.11800
H 	H 	0.25960 0.40680 0.99340 0.07800
C 	C 	0.25595 0.44703 0.99307 0.06800
H 	H 	0.24010 0.45950 0.98410 -0.00300
N 	N 	0.48648 0.21468 0.00656 -0.25500
C 	C 	0.47692 0.20922 0.99474 0.08300
S 	S 	0.46377 0.20247 0.97771 -0.04900
N 	N 	0.15785 0.98317 0.15703 -0.14000
C 	C 	0.14407 0.98305 0.18627 0.10100
N 	N 	0.04879 0.99249 0.22839 -0.24000
C 	C 	0.06620 0.98368 0.20376 0.08000
H 	H 	0.05690 0.97930 0.19570 -0.00800
C 	C 	0.09713 0.98047 0.18897 -0.13000
H 	H 	0.10840 0.97500 0.17080 0.08200
C 	C 	0.11125 0.98523 0.20085 0.05900
C 	C 	0.09350 0.99454 0.22674 -0.12400
H 	H 	0.10260 0.99840 0.23540 0.08100
C 	C 	0.06239 0.99805 0.23955 0.07200
H 	H 	0.05020 0.00480 0.25700 -0.00700
N 	N 	0.99756 0.00098 0.21132 -0.25900
C 	C 	0.99096 0.01038 0.18992 0.09700
S 	S 	0.98064 0.02576 0.15934 -0.05200
N 	N 	0.00776 0.95030 0.26928 -0.23700
C 	C 	0.01904 0.93402 0.25100 0.07100
H 	H 	0.02450 0.94430 0.22930 -0.00500
C 	C 	0.02324 0.90300 0.26200 -0.12200
H 	H 	0.03100 0.89240 0.24820 0.07900
C 	C 	0.01589 0.88779 0.29333 0.05500
C 	C 	0.00491 0.90423 0.31293 -0.12100
H 	H 	0.00060 0.89420 0.33460 0.08000
C 	C 	0.00062 0.93502 0.29998 0.07000
H 	H 	0.99210 0.94650 0.31330 -0.00400
C 	C 	0.02260 0.81032 0.34686 0.10100
N 	N 	0.02260 0.83920 0.33448 -0.13900
C 	C 	0.01814 0.85506 0.30714 0.09900
N 	N 	0.01445 0.84389 0.29179 -0.13800
C 	C 	0.01556 0.81434 0.30636 0.10200
N 	N 	0.01970 0.79652 0.33352 -0.14000
N 	N 	0.02116 0.76526 0.43968 -0.23600
C 	C 	0.02996 0.79034 0.42152 0.06500
H 	H 	0.03480 0.79860 0.43020 -0.00400
C 	C 	0.03216 0.80462 0.39082 -0.11700
H 	H 	0.03840 0.82240 0.37860 0.07900
C 	C 	0.02504 0.79274 0.37808 0.05300
C 	C 	0.01779 0.76585 0.39619 -0.12100
H 	H 	0.01400 0.75640 0.38780 0.07900
C 	C 	0.01623 0.75295 0.42657 0.07100
H 	H 	0.01140 0.73440 0.43880 -0.00300
N 	N 	0.00027 0.77315 0.26587 -0.23400
C 	C 	0.01357 0.75625 0.28779 0.07000
H 	H 	0.01980 0.73440 0.29420 -0.00400
C 	C 	0.01871 0.76853 0.30143 -0.12000
H 	H 	0.02770 0.75550 0.31730 0.08000
C 	C 	0.01050 0.80036 0.29174 0.05200
C 	C 	0.99815 0.81841 0.26767 -0.11800
H 	H 	0.99340 0.84020 0.25960 0.07800
C 	C 	0.99307 0.80395 0.25595 0.06800
H 	H 	0.98410 0.81630 0.24010 -0.00300
N 	N 	0.00656 0.79228 0.48648 -0.25500
C 	C 	0.99474 0.81912 0.47692 0.08300
S 	S 	0.97771 0.85605 0.46377 -0.04900
N 	N 	0.20195 0.15703 0.98317 -0.14000
C 	C 	0.18661 0.18627 0.98305 0.10100
N 	N 	0.23033 0.22839 0.99249 -0.24000
C 	C 	0.24636 0.20376 0.98368 0.08000
H 	H 	0.26810 0.19570 0.97930 -0.00800
C 	C 	0.23343 0.18897 0.98047 -0.13000
H 	H 	0.24580 0.17080 0.97500 0.08200
C 	C 	0.20267 0.20085 0.98523 0.05900
C 	C 	0.18522 0.22674 0.99454 -0.12400
H 	H 	0.16360 0.23540 0.99840 0.08100
C 	C 	0.20001 0.23955 0.99805 0.07200
H 	H 	0.18800 0.25700 0.00480 -0.00700
N 	N 	0.29014 0.21132 0.00098 -0.25900
C 	C 	0.30874 0.18992 0.01038 0.09700
S 	S 	0.33426 0.15934 0.02576 -0.05200
N 	N 	0.27266 0.26928 0.95030 -0.23700
C 	C 	0.29594 0.25100 0.93402 0.07100
H 	H 	0.30190 0.22930 0.94430 -0.00500
C 	C 	0.31176 0.26200 0.90300 -0.12200
H 	H 	0.32840 0.24820 0.89240 0.07900
C 	C 	0.30299 0.29333 0.88779 0.05500
C 	C 	0.27793 0.31293 0.90423 -0.12100
H 	H 	0.27060 0.33460 0.89420 0.08000
C 	C 	0.26438 0.29998 0.93502 0.07000
H 	H 	0.24810 0.31330 0.94650 -0.00400
C 	C 	0.32022 0.34686 0.81032 0.10100
N 	N 	0.30372 0.33448 0.83920 -0.13900
C 	C 	0.31966 0.30714 0.85506 0.09900
N 	N 	0.34987 0.29179 0.84389 -0.13800
C 	C 	0.36374 0.30636 0.81434 0.10200
N 	N 	0.35026 0.33352 0.79652 -0.14000
N 	N 	0.27390 0.43968 0.76526 -0.23600
C 	C 	0.25818 0.42152 0.79034 0.06500
H 	H 	0.23640 0.43020 0.79860 -0.00400
C 	C 	0.27240 0.39082 0.80462 -0.11700
H 	H 	0.26060 0.37860 0.82240 0.07900
C 	C 	0.30414 0.37808 0.79274 0.05300
C 	C 	0.32017 0.39619 0.76585 -0.12100
H 	H 	0.34180 0.38780 0.75640 0.07900
C 	C 	0.30425 0.42657 0.75295 0.07100
H 	H 	0.31540 0.43880 0.73440 -0.00300
N 	N 	0.46071 0.26587 0.77315 -0.23400
C 	C 	0.44239 0.28779 0.75625 0.07000
H 	H 	0.45160 0.29420 0.73440 -0.00400
C 	C 	0.41133 0.30143 0.76853 -0.12000
H 	H 	0.39950 0.31730 0.75550 0.08000
C 	C 	0.39740 0.29174 0.80036 0.05200
C 	C 	0.41577 0.26767 0.81841 -0.11800
H 	H 	0.40680 0.25960 0.84020 0.07800
C 	C 	0.44703 0.25595 0.80395 0.06800
H 	H 	0.45950 0.24010 0.81630 -0.00300
N 	N 	0.21468 0.48648 0.79228 -0.25500
C 	C 	0.20922 0.47692 0.81912 0.08300
S 	S 	0.20247 0.46377 0.85605 -0.04900
N 	N 	0.98317 0.15785 0.20195 -0.14000
C 	C 	0.98305 0.14407 0.18661 0.10100
N 	N 	0.99249 0.04879 0.23033 -0.24000
C 	C 	0.98368 0.06620 0.24636 0.08000
H 	H 	0.97930 0.05690 0.26810 -0.00800
C 	C 	0.98047 0.09713 0.23343 -0.13000
H 	H 	0.97500 0.10840 0.24580 0.08200
C 	C 	0.98523 0.11125 0.20267 0.05900
C 	C 	0.99454 0.09350 0.18522 -0.12400
H 	H 	0.99840 0.10260 0.16360 0.08100
C 	C 	0.99805 0.06239 0.20001 0.07200
H 	H 	0.00480 0.05020 0.18800 -0.00700
N 	N 	0.00098 0.99756 0.29014 -0.25900
C 	C 	0.01038 0.99096 0.30874 0.09700
S 	S 	0.02576 0.98064 0.33426 -0.05200
N 	N 	0.95030 0.00776 0.27266 -0.23700
C 	C 	0.93402 0.01904 0.29594 0.07100
H 	H 	0.94430 0.02450 0.30190 -0.00500
C 	C 	0.90300 0.02324 0.31176 -0.12200
H 	H 	0.89240 0.03100 0.32840 0.07900
C 	C 	0.88779 0.01589 0.30299 0.05500
C 	C 	0.90423 0.00491 0.27793 -0.12100
H 	H 	0.89420 0.00060 0.27060 0.08000
C 	C 	0.93502 0.00062 0.26438 0.07000
H 	H 	0.94650 0.99210 0.24810 -0.00400
C 	C 	0.81032 0.02260 0.32022 0.10100
N 	N 	0.83920 0.02260 0.30372 -0.13900
C 	C 	0.85506 0.01814 0.31966 0.09900
N 	N 	0.84389 0.01445 0.34987 -0.13800
C 	C 	0.81434 0.01556 0.36374 0.10200
N 	N 	0.79652 0.01970 0.35026 -0.14000
N 	N 	0.76526 0.02116 0.27390 -0.23600
C 	C 	0.79034 0.02996 0.25818 0.06500
H 	H 	0.79860 0.03480 0.23640 -0.00400
C 	C 	0.80462 0.03216 0.27240 -0.11700
H 	H 	0.82240 0.03840 0.26060 0.07900
C 	C 	0.79274 0.02504 0.30414 0.05300
C 	C 	0.76585 0.01779 0.32017 -0.12100
H 	H 	0.75640 0.01400 0.34180 0.07900
C 	C 	0.75295 0.01623 0.30425 0.07100
H 	H 	0.73440 0.01140 0.31540 -0.00300
N 	N 	0.77315 0.00027 0.46071 -0.23400
C 	C 	0.75625 0.01357 0.44239 0.07000
H 	H 	0.73440 0.01980 0.45160 -0.00400
C 	C 	0.76853 0.01871 0.41133 -0.12000
H 	H 	0.75550 0.02770 0.39950 0.08000
C 	C 	0.80036 0.01050 0.39740 0.05200
C 	C 	0.81841 0.99815 0.41577 -0.11800
H 	H 	0.84020 0.99340 0.40680 0.07800
C 	C 	0.80395 0.99307 0.44703 0.06800
H 	H 	0.81630 0.98410 0.45950 -0.00300
N 	N 	0.79228 0.00656 0.21468 -0.25500
C 	C 	0.81912 0.99474 0.20922 0.08300
S 	S 	0.85605 0.97771 0.20247 -0.04900
N 	N 	0.98317 0.15703 0.15785 -0.14000
C 	C 	0.98305 0.18627 0.14407 0.10100
N 	N 	0.99249 0.22839 0.04879 -0.24000
C 	C 	0.98368 0.20376 0.06620 0.08000
H 	H 	0.97930 0.19570 0.05690 -0.00800
C 	C 	0.98047 0.18897 0.09713 -0.13000
H 	H 	0.97500 0.17080 0.10840 0.08200
C 	C 	0.98523 0.20085 0.11125 0.05900
C 	C 	0.99454 0.22674 0.09350 -0.12400
H 	H 	0.99840 0.23540 0.10260 0.08100
C 	C 	0.99805 0.23955 0.06239 0.07200
H 	H 	0.00480 0.25700 0.05020 -0.00700
N 	N 	0.00098 0.21132 0.99756 -0.25900
C 	C 	0.01038 0.18992 0.99096 0.09700
S 	S 	0.02576 0.15934 0.98064 -0.05200
N 	N 	0.95030 0.26928 0.00776 -0.23700
C 	C 	0.93402 0.25100 0.01904 0.07100
H 	H 	0.94430 0.22930 0.02450 -0.00500
C 	C 	0.90300 0.26200 0.02324 -0.12200
H 	H 	0.89240 0.24820 0.03100 0.07900
C 	C 	0.88779 0.29333 0.01589 0.05500
C 	C 	0.90423 0.31293 0.00491 -0.12100
H 	H 	0.89420 0.33460 0.00060 0.08000
C 	C 	0.93502 0.29998 0.00062 0.07000
H 	H 	0.94650 0.31330 0.99210 -0.00400
C 	C 	0.81032 0.34686 0.02260 0.10100
N 	N 	0.83920 0.33448 0.02260 -0.13900
C 	C 	0.85506 0.30714 0.01814 0.09900
N 	N 	0.84389 0.29179 0.01445 -0.13800
C 	C 	0.81434 0.30636 0.01556 0.10200
N 	N 	0.79652 0.33352 0.01970 -0.14000
N 	N 	0.76526 0.43968 0.02116 -0.23600
C 	C 	0.79034 0.42152 0.02996 0.06500
H 	H 	0.79860 0.43020 0.03480 -0.00400
C 	C 	0.80462 0.39082 0.03216 -0.11700
H 	H 	0.82240 0.37860 0.03840 0.07900
C 	C 	0.79274 0.37808 0.02504 0.05300
C 	C 	0.76585 0.39619 0.01779 -0.12100
H 	H 	0.75640 0.38780 0.01400 0.07900
C 	C 	0.75295 0.42657 0.01623 0.07100
H 	H 	0.73440 0.43880 0.01140 -0.00300
N 	N 	0.77315 0.26587 0.00027 -0.23400
C 	C 	0.75625 0.28779 0.01357 0.07000
H 	H 	0.73440 0.29420 0.01980 -0.00400
C 	C 	0.76853 0.30143 0.01871 -0.12000
H 	H 	0.75550 0.31730 0.02770 0.08000
C 	C 	0.80036 0.29174 0.01050 0.05200
C 	C 	0.81841 0.26767 0.99815 -0.11800
H 	H 	0.84020 0.25960 0.99340 0.07800
C 	C 	0.80395 0.25595 0.99307 0.06800
H 	H 	0.81630 0.24010 0.98410 -0.00300
N 	N 	0.79228 0.48648 0.00656 -0.25500
C 	C 	0.81912 0.47692 0.99474 0.08300
S 	S 	0.85605 0.46377 0.97771 -0.04900
N 	N 	0.20195 0.15785 0.15703 -0.14000
C 	C 	0.18661 0.14407 0.18627 0.10100
N 	N 	0.23033 0.04879 0.22839 -0.24000
C 	C 	0.24636 0.06620 0.20376 0.08000
H 	H 	0.26810 0.05690 0.19570 -0.00800
C 	C 	0.23343 0.09713 0.18897 -0.13000
H 	H 	0.24580 0.10840 0.17080 0.08200
C 	C 	0.20267 0.11125 0.20085 0.05900
C 	C 	0.18522 0.09350 0.22674 -0.12400
H 	H 	0.16360 0.10260 0.23540 0.08100
C 	C 	0.20001 0.06239 0.23955 0.07200
H 	H 	0.18800 0.05020 0.25700 -0.00700
N 	N 	0.29014 0.99756 0.21132 -0.25900
C 	C 	0.30874 0.99096 0.18992 0.09700
S 	S 	0.33426 0.98064 0.15934 -0.05200
N 	N 	0.27266 0.00776 0.26928 -0.23700
C 	C 	0.29594 0.01904 0.25100 0.07100
H 	H 	0.30190 0.02450 0.22930 -0.00500
C 	C 	0.31176 0.02324 0.26200 -0.12200
H 	H 	0.32840 0.03100 0.24820 0.07900
C 	C 	0.30299 0.01589 0.29333 0.05500
C 	C 	0.27793 0.00491 0.31293 -0.12100
H 	H 	0.27060 0.00060 0.33460 0.08000
C 	C 	0.26438 0.00062 0.29998 0.07000
H 	H 	0.24810 0.99210 0.31330 -0.00400
C 	C 	0.32022 0.02260 0.34686 0.10100
N 	N 	0.30372 0.02260 0.33448 -0.13900
C 	C 	0.31966 0.01814 0.30714 0.09900
N 	N 	0.34987 0.01445 0.29179 -0.13800
C 	C 	0.36374 0.01556 0.30636 0.10200
N 	N 	0.35026 0.01970 0.33352 -0.14000
N 	N 	0.27390 0.02116 0.43968 -0.23600
C 	C 	0.25818 0.02996 0.42152 0.06500
H 	H 	0.23640 0.03480 0.43020 -0.00400
C 	C 	0.27240 0.03216 0.39082 -0.11700
H 	H 	0.26060 0.03840 0.37860 0.07900
C 	C 	0.30414 0.02504 0.37808 0.05300
C 	C 	0.32017 0.01779 0.39619 -0.12100
H 	H 	0.34180 0.01400 0.38780 0.07900
C 	C 	0.30425 0.01623 0.42657 0.07100
H 	H 	0.31540 0.01140 0.43880 -0.00300
N 	N 	0.46071 0.00027 0.26587 -0.23400
C 	C 	0.44239 0.01357 0.28779 0.07000
H 	H 	0.45160 0.01980 0.29420 -0.00400
C 	C 	0.41133 0.01871 0.30143 -0.12000
H 	H 	0.39950 0.02770 0.31730 0.08000
C 	C 	0.39740 0.01050 0.29174 0.05200
C 	C 	0.41577 0.99815 0.26767 -0.11800
H 	H 	0.40680 0.99340 0.25960 0.07800
C 	C 	0.44703 0.99307 0.25595 0.06800
H 	H 	0.45950 0.98410 0.24010 -0.00300
N 	N 	0.21468 0.00656 0.48648 -0.25500
C 	C 	0.20922 0.99474 0.47692 0.08300
S 	S 	0.20247 0.97771 0.46377 -0.04900
N 	N 	0.15785 0.20195 0.98317 -0.14000
C 	C 	0.14407 0.18661 0.98305 0.10100
N 	N 	0.04879 0.23033 0.99249 -0.24000
C 	C 	0.06620 0.24636 0.98368 0.08000
H 	H 	0.05690 0.26810 0.97930 -0.00800
C 	C 	0.09713 0.23343 0.98047 -0.13000
H 	H 	0.10840 0.24580 0.97500 0.08200
C 	C 	0.11125 0.20267 0.98523 0.05900
C 	C 	0.09350 0.18522 0.99454 -0.12400
H 	H 	0.10260 0.16360 0.99840 0.08100
C 	C 	0.06239 0.20001 0.99805 0.07200
H 	H 	0.05020 0.18800 0.00480 -0.00700
N 	N 	0.99756 0.29014 0.00098 -0.25900
C 	C 	0.99096 0.30874 0.01038 0.09700
S 	S 	0.98064 0.33426 0.02576 -0.05200
N 	N 	0.00776 0.27266 0.95030 -0.23700
C 	C 	0.01904 0.29594 0.93402 0.07100
H 	H 	0.02450 0.30190 0.94430 -0.00500
C 	C 	0.02324 0.31176 0.90300 -0.12200
H 	H 	0.03100 0.32840 0.89240 0.07900
C 	C 	0.01589 0.30299 0.88779 0.05500
C 	C 	0.00491 0.27793 0.90423 -0.12100
H 	H 	0.00060 0.27060 0.89420 0.08000
C 	C 	0.00062 0.26438 0.93502 0.07000
H 	H 	0.99210 0.24810 0.94650 -0.00400
C 	C 	0.02260 0.32022 0.81032 0.10100
N 	N 	0.02260 0.30372 0.83920 -0.13900
C 	C 	0.01814 0.31966 0.85506 0.09900
N 	N 	0.01445 0.34987 0.84389 -0.13800
C 	C 	0.01556 0.36374 0.81434 0.10200
N 	N 	0.01970 0.35026 0.79652 -0.14000
N 	N 	0.02116 0.27390 0.76526 -0.23600
C 	C 	0.02996 0.25818 0.79034 0.06500
H 	H 	0.03480 0.23640 0.79860 -0.00400
C 	C 	0.03216 0.27240 0.80462 -0.11700
H 	H 	0.03840 0.26060 0.82240 0.07900
C 	C 	0.02504 0.30414 0.79274 0.05300
C 	C 	0.01779 0.32017 0.76585 -0.12100
H 	H 	0.01400 0.34180 0.75640 0.07900
C 	C 	0.01623 0.30425 0.75295 0.07100
H 	H 	0.01140 0.31540 0.73440 -0.00300
N 	N 	0.00027 0.46071 0.77315 -0.23400
C 	C 	0.01357 0.44239 0.75625 0.07000
H 	H 	0.01980 0.45160 0.73440 -0.00400
C 	C 	0.01871 0.41133 0.76853 -0.12000
H 	H 	0.02770 0.39950 0.75550 0.08000
C 	C 	0.01050 0.39740 0.80036 0.05200
C 	C 	0.99815 0.41577 0.81841 -0.11800
H 	H 	0.99340 0.40680 0.84020 0.07800
C 	C 	0.99307 0.44703 0.80395 0.06800
H 	H 	0.98410 0.45950 0.81630 -0.00300
N 	N 	0.00656 0.21468 0.79228 -0.25500
C 	C 	0.99474 0.20922 0.81912 0.08300
S 	S 	0.97771 0.20247 0.85605 -0.04900
N 	N 	0.15703 0.98317 0.20195 -0.14000
C 	C 	0.18627 0.98305 0.18661 0.10100
N 	N 	0.22839 0.99249 0.23033 -0.24000
C 	C 	0.20376 0.98368 0.24636 0.08000
H 	H 	0.19570 0.97930 0.26810 -0.00800
C 	C 	0.18897 0.98047 0.23343 -0.13000
H 	H 	0.17080 0.97500 0.24580 0.08200
C 	C 	0.20085 0.98523 0.20267 0.05900
C 	C 	0.22674 0.99454 0.18522 -0.12400
H 	H 	0.23540 0.99840 0.16360 0.08100
C 	C 	0.23955 0.99805 0.20001 0.07200
H 	H 	0.25700 0.00480 0.18800 -0.00700
N 	N 	0.21132 0.00098 0.29014 -0.25900
C 	C 	0.18992 0.01038 0.30874 0.09700
S 	S 	0.15934 0.02576 0.33426 -0.05200
N 	N 	0.26928 0.95030 0.27266 -0.23700
C 	C 	0.25100 0.93402 0.29594 0.07100
H 	H 	0.22930 0.94430 0.30190 -0.00500
C 	C 	0.26200 0.90300 0.31176 -0.12200
H 	H 	0.24820 0.89240 0.32840 0.07900
C 	C 	0.29333 0.88779 0.30299 0.05500
C 	C 	0.31293 0.90423 0.27793 -0.12100
H 	H 	0.33460 0.89420 0.27060 0.08000
C 	C 	0.29998 0.93502 0.26438 0.07000
H 	H 	0.31330 0.94650 0.24810 -0.00400
C 	C 	0.34686 0.81032 0.32022 0.10100
N 	N 	0.33448 0.83920 0.30372 -0.13900
C 	C 	0.30714 0.85506 0.31966 0.09900
N 	N 	0.29179 0.84389 0.34987 -0.13800
C 	C 	0.30636 0.81434 0.36374 0.10200
N 	N 	0.33352 0.79652 0.35026 -0.14000
N 	N 	0.43968 0.76526 0.27390 -0.23600
C 	C 	0.42152 0.79034 0.25818 0.06500
H 	H 	0.43020 0.79860 0.23640 -0.00400
C 	C 	0.39082 0.80462 0.27240 -0.11700
H 	H 	0.37860 0.82240 0.26060 0.07900
C 	C 	0.37808 0.79274 0.30414 0.05300
C 	C 	0.39619 0.76585 0.32017 -0.12100
H 	H 	0.38780 0.75640 0.34180 0.07900
C 	C 	0.42657 0.75295 0.30425 0.07100
H 	H 	0.43880 0.73440 0.31540 -0.00300
N 	N 	0.26587 0.77315 0.46071 -0.23400
C 	C 	0.28779 0.75625 0.44239 0.07000
H 	H 	0.29420 0.73440 0.45160 -0.00400
C 	C 	0.30143 0.76853 0.41133 -0.12000
H 	H 	0.31730 0.75550 0.39950 0.08000
C 	C 	0.29174 0.80036 0.39740 0.05200
C 	C 	0.26767 0.81841 0.41577 -0.11800
H 	H 	0.25960 0.84020 0.40680 0.07800
C 	C 	0.25595 0.80395 0.44703 0.06800
H 	H 	0.24010 0.81630 0.45950 -0.00300
N 	N 	0.48648 0.79228 0.21468 -0.25500
C 	C 	0.47692 0.81912 0.20922 0.08300
S 	S 	0.46377 0.85605 0.20247 -0.04900
Co	Co	0.75040 0.49960 0.75040 1.12200
Co	Co	0.49960 0.75040 0.49960 1.12200
Co	Co	0.75040 0.75040 0.49960 1.12200
Co	Co	0.49960 0.49960 0.75040 1.12200
Co	Co	0.49960 0.75040 0.75040 1.12200
Co	Co	0.75040 0.49960 0.49960 1.12200
Co	Co	0.74960 0.00040 0.00040 1.12200
Co	Co	0.00040 0.74960 0.74960 1.12200
Co	Co	0.74960 0.74960 0.00040 1.12200
Co	Co	0.00040 0.00040 0.74960 1.12200
Co	Co	0.00040 0.74960 0.00040 1.12200
Co	Co	0.74960 0.00040 0.74960 1.12200
Co	Co	0.24960 0.50040 0.24960 1.12200
Co	Co	0.50040 0.24960 0.50040 1.12200
Co	Co	0.24960 0.24960 0.50040 1.12200
Co	Co	0.50040 0.50040 0.24960 1.12200
Co	Co	0.50040 0.24960 0.24960 1.12200
Co	Co	0.24960 0.50040 0.50040 1.12200
Co	Co	0.25040 0.99960 0.99960 1.12200
Co	Co	0.99960 0.25040 0.25040 1.12200
Co	Co	0.25040 0.25040 0.99960 1.12200
Co	Co	0.99960 0.99960 0.25040 1.12200
Co	Co	0.99960 0.25040 0.99960 1.12200
Co	Co	0.25040 0.99960 0.25040 1.12200
Co	Co	0.75000 0.25000 0.98924 1.12100
Co	Co	0.25000 0.75000 0.51076 1.12100
Co	Co	0.98924 0.51076 0.75000 1.12100
Co	Co	0.51076 0.98924 0.25000 1.12100
Co	Co	0.98924 0.75000 0.25000 1.12100
Co	Co	0.51076 0.25000 0.75000 1.12100
Co	Co	0.75000 0.98924 0.51076 1.12100
Co	Co	0.25000 0.51076 0.98924 1.12100
Co	Co	0.25000 0.98924 0.75000 1.12100
Co	Co	0.75000 0.51076 0.25000 1.12100
Co	Co	0.51076 0.75000 0.98924 1.12100
Co	Co	0.98924 0.25000 0.51076 1.12100
Co	Co	0.25000 0.75000 0.01076 1.12100
Co	Co	0.75000 0.25000 0.48924 1.12100
Co	Co	0.01076 0.48924 0.25000 1.12100
Co	Co	0.48924 0.01076 0.75000 1.12100
Co	Co	0.01076 0.25000 0.75000 1.12100
Co	Co	0.48924 0.75000 0.25000 1.12100
Co	Co	0.25000 0.01076 0.48924 1.12100
Co	Co	0.75000 0.48924 0.01076 1.12100
Co	Co	0.75000 0.01076 0.25000 1.12100
Co	Co	0.25000 0.48924 0.75000 1.12100
Co	Co	0.48924 0.25000 0.01076 1.12100
Co	Co	0.01076 0.75000 0.48924 1.12100
