data_crystal

_cell_length_a 10.50140
_cell_length_b 10.50140
_cell_length_c 21.47000
_cell_angle_alpha 90.00000
_cell_angle_beta  90.00000
_cell_angle_gamma 90.00000

_symmetry_space_group_name_	'P 1'
_symmetry_space_group_name_H-M	'P 1'

loop_
_symmetry_equiv_pos_as_xyz
  x,y,z

loop_
_atom_site_label
_atom_site_type_symbol
_atom_site_fract_x
_atom_site_fract_y
_atom_site_fract_z
_atom_site_charge
F 	F 	0.65117 0.74654 0.38442 -0.34800
N 	N 	0.50520 0.03515 0.38019 -0.12200
C 	C 	0.50333 0.92594 0.38199 0.21600
F 	F 	0.15117 0.24654 0.88442 -0.36400
N 	N 	0.00520 0.53515 0.88019 -0.13600
C 	C 	0.00333 0.42594 0.88199 0.19100
F 	F 	0.84883 0.25346 0.88442 -0.31300
N 	N 	0.99480 0.96485 0.88019 -0.10100
C 	C 	0.99667 0.07406 0.88199 0.28600
F 	F 	0.34883 0.75346 0.38442 -0.36900
N 	N 	0.49480 0.46485 0.38019 -0.12000
C 	C 	0.49667 0.57406 0.38199 0.21100
F 	F 	0.00346 0.90117 0.63442 -0.37700
N 	N 	0.71485 0.75520 0.63019 -0.12800
C 	C 	0.82406 0.75333 0.63199 0.27900
F 	F 	0.50346 0.40117 0.13442 -0.36000
N 	N 	0.21485 0.25520 0.13019 -0.13000
C 	C 	0.32406 0.25333 0.13199 0.20400
F 	F 	0.49654 0.09883 0.13442 -0.36000
N 	N 	0.78515 0.24480 0.13019 -0.09900
C 	C 	0.67594 0.24667 0.13199 0.21800
F 	F 	0.99654 0.59883 0.63442 -0.29800
N 	N 	0.28515 0.74480 0.63019 -0.12400
C 	C 	0.17594 0.74667 0.63199 0.20300
F 	F 	0.34883 0.25346 0.61558 -0.37000
N 	N 	0.49480 0.96485 0.61981 -0.11600
C 	C 	0.49667 0.07406 0.61801 0.20500
F 	F 	0.84883 0.75346 0.11558 -0.31200
N 	N 	0.99480 0.46485 0.11981 -0.10500
C 	C 	0.99667 0.57406 0.11801 0.29300
F 	F 	0.15117 0.74654 0.11558 -0.36400
N 	N 	0.00520 0.03515 0.11981 -0.13800
C 	C 	0.00333 0.92594 0.11801 0.19600
F 	F 	0.65117 0.24654 0.61558 -0.35000
N 	N 	0.50520 0.53515 0.61981 -0.12000
C 	C 	0.50333 0.42594 0.61801 0.21000
F 	F 	0.99654 0.09883 0.36558 -0.30000
N 	N 	0.28515 0.24480 0.36981 -0.12400
C 	C 	0.17594 0.24667 0.36801 0.20200
F 	F 	0.49654 0.59883 0.86558 -0.35900
N 	N 	0.78515 0.74480 0.86981 -0.09800
C 	C 	0.67594 0.74667 0.86801 0.21900
F 	F 	0.50346 0.90117 0.86558 -0.35900
N 	N 	0.21485 0.75520 0.86981 -0.12900
C 	C 	0.32406 0.75333 0.86801 0.20500
F 	F 	0.00346 0.40117 0.36558 -0.37900
N 	N 	0.71485 0.25520 0.36981 -0.12900
C 	C 	0.82406 0.25333 0.36801 0.27800
Li	Li	0.50000 0.25000 0.37500 0.55600
Li	Li	0.00000 0.75000 0.87500 0.55100
Li	Li	0.50000 0.75000 0.62500 0.55600
Li	Li	0.00000 0.25000 0.12500 0.55100
P 	P 	0.50000 0.75000 0.38273 0.57000
F 	F 	0.50000 0.75000 0.30924 -0.31400
N 	N 	0.50000 0.75000 0.52200 -0.11600
C 	C 	0.50000 0.75000 0.46856 0.14100
P 	P 	0.00000 0.25000 0.88273 0.50600
F 	F 	-0.00000 0.25000 0.80924 -0.34300
N 	N 	-0.00000 0.25000 0.02200 -0.13300
C 	C 	0.00000 0.25000 0.96856 0.10800
P 	P 	0.00000 0.75000 0.63273 0.50400
F 	F 	0.00000 0.75000 0.55924 -0.34300
N 	N 	0.00000 0.75000 0.77200 -0.13400
C 	C 	-0.00000 0.75000 0.71856 0.10800
P 	P 	0.50000 0.25000 0.13273 0.57100
F 	F 	0.50000 0.25000 0.05924 -0.31500
N 	N 	0.50000 0.25000 0.27200 -0.11600
C 	C 	0.50000 0.25000 0.21856 0.14100
P 	P 	0.50000 0.25000 0.61727 0.57100
F 	F 	0.50000 0.25000 0.69076 -0.31600
N 	N 	0.50000 0.25000 0.47800 -0.11600
C 	C 	0.50000 0.25000 0.53144 0.14000
P 	P 	-0.00000 0.75000 0.11727 0.50400
F 	F 	-0.00000 0.75000 0.19076 -0.34200
N 	N 	0.00000 0.75000 0.97800 -0.13300
C 	C 	-0.00000 0.75000 0.03144 0.10900
P 	P 	-0.00000 0.25000 0.36727 0.50500
F 	F 	0.00000 0.25000 0.44076 -0.34300
N 	N 	0.00000 0.25000 0.22800 -0.13400
C 	C 	-0.00000 0.25000 0.28144 0.10700
P 	P 	0.50000 0.75000 0.86727 0.57100
F 	F 	0.50000 0.75000 0.94076 -0.31400
N 	N 	0.50000 0.75000 0.72800 -0.11500
C 	C 	0.50000 0.75000 0.78144 0.14200
