data_crystal

_cell_length_a 24.27880
_cell_length_b 25.67350
_cell_length_c 53.82010
_cell_angle_alpha 90.00000
_cell_angle_beta  90.00000
_cell_angle_gamma 90.00000

_symmetry_space_group_name_	'P 1'
_symmetry_space_group_name_H-M	'P 1'

loop_
_symmetry_equiv_pos_as_xyz
  x,y,z

loop_
_atom_site_label
_atom_site_type_symbol
_atom_site_fract_x
_atom_site_fract_y
_atom_site_fract_z
_atom_site_charge
K 	K 	0.25770 0.18679 0.23842 0.64700
K 	K 	0.52569 0.42261 0.22610 0.65100
K 	K 	0.51395 0.16127 0.40638 0.66200
K 	K 	0.24088 0.37994 0.39057 0.61100
K 	K 	0.23944 0.37251 0.07245 0.55000
K 	K 	0.51300 0.14133 0.05930 0.63000
Zn	Zn	0.40059 0.26871 0.15014 1.17500
O 	O 	0.47918 0.16363 0.10206 -0.36200
O 	O 	0.30229 0.37313 0.10988 -0.40300
O 	O 	0.32577 0.17213 0.20294 -0.34000
O 	O 	0.49736 0.38260 0.18544 -0.38800
N 	N 	0.42930 0.22737 0.12181 -0.31400
N 	N 	0.35661 0.30674 0.12471 -0.30000
N 	N 	0.38162 0.22688 0.18009 -0.30700
N 	N 	0.43955 0.31585 0.17354 -0.31300
N 	N 	0.48968 0.17740 0.14399 -0.31700
H 	H 	0.48570 0.20060 0.15590 0.07900
N 	N 	0.29760 0.34940 0.15023 -0.35800
H 	H 	0.30700 0.32510 0.16090 0.08500
N 	N 	0.33879 0.15836 0.16134 -0.32900
H 	H 	0.35250 0.17140 0.14750 0.11100
N 	N 	0.46177 0.38008 0.14604 -0.31600
H 	H 	0.44690 0.35960 0.13480 0.08600
C 	C 	0.53370 0.13380 0.17752 -0.83700
H 	H 	0.55720 0.16420 0.18070 0.23200
H 	H 	0.55290 0.10210 0.18280 0.22500
H 	H 	0.49920 0.13740 0.18680 0.23100
C 	C 	0.52113 0.13035 0.14990 0.59700
C 	C 	0.48740 0.08150 0.14437 -0.85900
H 	H 	0.47790 0.08060 0.12670 0.27900
H 	H 	0.45350 0.08200 0.15430 0.23400
H 	H 	0.50900 0.05050 0.14860 0.24200
C 	C 	0.57500 0.12830 0.13522 -0.83200
H 	H 	0.59520 0.16090 0.13750 0.22900
H 	H 	0.56680 0.12340 0.11750 0.24900
H 	H 	0.59740 0.09910 0.14120 0.23500
C 	C 	0.46556 0.18860 0.12120 0.26600
C 	C 	0.40166 0.24205 0.09873 -0.05500
H 	H 	0.37080 0.21770 0.09550 0.00100
H 	H 	0.42790 0.23930 0.08470 0.01800
C 	C 	0.37962 0.29732 0.10016 -0.07300
H 	H 	0.40980 0.32240 0.09690 0.01400
H 	H 	0.35080 0.30240 0.08740 0.02300
C 	C 	0.31907 0.34460 0.12675 0.24300
C 	C 	0.26140 0.38960 0.15946 0.61600
C 	C 	0.25240 0.37950 0.18695 -0.90700
H 	H 	0.23510 0.34530 0.18920 0.29100
H 	H 	0.22840 0.40660 0.19390 0.27300
H 	H 	0.28800 0.38010 0.19560 0.26900
C 	C 	0.28830 0.44170 0.15625 -0.91200
H 	H 	0.29540 0.44790 0.13860 0.29300
H 	H 	0.32320 0.44230 0.16540 0.27300
H 	H 	0.26390 0.46900 0.16270 0.26200
C 	C 	0.20740 0.38940 0.14630 -0.72800
H 	H 	0.19130 0.35450 0.14720 0.05200
H 	H 	0.21300 0.39920 0.12890 0.17900
H 	H 	0.18260 0.41450 0.15420 0.22800
C 	C 	0.31380 0.09160 0.13233 -0.99100
H 	H 	0.29690 0.11760 0.12140 0.29300
H 	H 	0.29510 0.05810 0.13010 0.28900
H 	H 	0.35280 0.08790 0.12810 0.29700
C 	C 	0.30820 0.10900 0.15934 0.74000
C 	C 	0.24710 0.11770 0.16547 -1.10900
H 	H 	0.24350 0.12910 0.18280 0.39800
H 	H 	0.22680 0.08500 0.16310 0.33900
H 	H 	0.23190 0.14440 0.15440 0.47200
C 	C 	0.33160 0.06760 0.17643 -0.97600
H 	H 	0.32830 0.07910 0.19370 0.30700
H 	H 	0.37050 0.06180 0.17240 0.25700
H 	H 	0.31100 0.03510 0.17420 0.27700
C 	C 	0.34800 0.18620 0.18300 0.28800
C 	C 	0.39350 0.25750 0.20243 -0.08100
H 	H 	0.40000 0.23400 0.21670 0.03600
H 	H 	0.36170 0.28020 0.20640 0.02200
C 	C 	0.44450 0.29060 0.19763 -0.06400
H 	H 	0.44830 0.31730 0.21080 0.02700
H 	H 	0.47780 0.26830 0.19790 0.00600
C 	C 	0.46733 0.35980 0.16966 0.27100
C 	C 	0.47820 0.43240 0.13791 0.57200
C 	C 	0.45730 0.43830 0.11143 -0.87400
H 	H 	0.41720 0.43450 0.11120 0.28200
H 	H 	0.47410 0.41140 0.10090 0.25000
H 	H 	0.46740 0.47280 0.10510 0.27200
C 	C 	0.54130 0.43730 0.13808 -0.69500
H 	H 	0.55730 0.41080 0.12710 0.17000
H 	H 	0.55500 0.43220 0.15500 0.13200
H 	H 	0.55190 0.47200 0.13220 0.16900
C 	C 	0.45310 0.47460 0.15430 -0.84800
H 	H 	0.41290 0.47100 0.15440 0.24100
H 	H 	0.46310 0.50890 0.14780 0.24600
H 	H 	0.46720 0.47100 0.17130 0.27300
Zn	Zn	0.39579 0.31104 0.31920 1.17400
O 	O 	0.28832 0.20776 0.28283 -0.35500
O 	O 	0.48241 0.39959 0.26633 -0.38100
O 	O 	0.47990 0.21461 0.36983 -0.29000
O 	O 	0.30263 0.42326 0.35662 -0.37800
N 	N 	0.35478 0.26608 0.29545 -0.31500
N 	N 	0.42892 0.34345 0.28946 -0.31300
N 	N 	0.42639 0.27401 0.34849 -0.29400
N 	N 	0.36384 0.35983 0.34405 -0.31700
N 	N 	0.30830 0.21782 0.32400 -0.32700
H 	H 	0.32880 0.23460 0.33480 0.08200
N 	N 	0.50031 0.38743 0.30769 -0.33300
H 	H 	0.49780 0.36480 0.31990 0.12700
N 	N 	0.47065 0.20936 0.32730 -0.36000
H 	H 	0.46760 0.22870 0.31390 0.11000
N 	N 	0.34096 0.42585 0.31772 -0.34000
H 	H 	0.35880 0.40760 0.30650 0.09200
C 	C 	0.27850 0.18060 0.36226 -0.85500
H 	H 	0.27040 0.21540 0.36880 0.23100
H 	H 	0.31690 0.17160 0.36590 0.24100
H 	H 	0.25400 0.15510 0.37020 0.23500
C 	C 	0.26930 0.17990 0.33413 0.63800
C 	C 	0.21030 0.19640 0.32816 -0.85200
H 	H 	0.20590 0.19970 0.31010 0.24900
H 	H 	0.20240 0.22990 0.33610 0.22600
H 	H 	0.18460 0.17000 0.33440 0.23200
C 	C 	0.27970 0.12590 0.32436 -0.97100
H 	H 	0.27270 0.12510 0.30640 0.34700
H 	H 	0.25500 0.10120 0.33270 0.28200
H 	H 	0.31800 0.11610 0.32760 0.34600
C 	C 	0.31630 0.23000 0.29941 0.27400
C 	C 	0.36890 0.27910 0.27001 -0.06000
H 	H 	0.33510 0.27820 0.25970 0.01900
H 	H 	0.39450 0.25240 0.26340 0.01900
C 	C 	0.39490 0.33130 0.26778 -0.08300
H 	H 	0.41800 0.33220 0.25260 0.04100
H 	H 	0.36580 0.35800 0.26600 0.01700
C 	C 	0.47020 0.37710 0.28636 0.28400
C 	C 	0.53610 0.43300 0.31155 0.66300
C 	C 	0.54980 0.43380 0.33898 -1.01800
H 	H 	0.51580 0.43680 0.34870 0.31400
H 	H 	0.57370 0.46370 0.34260 0.28800
H 	H 	0.56890 0.40150 0.34350 0.38600
C 	C 	0.58930 0.42810 0.29636 -0.91000
H 	H 	0.60990 0.39740 0.30190 0.29800
H 	H 	0.61190 0.45940 0.29880 0.25400
H 	H 	0.58020 0.42450 0.27870 0.26600
C 	C 	0.50690 0.48270 0.30447 -0.81000
H 	H 	0.47230 0.48550 0.31380 0.21600
H 	H 	0.49900 0.48250 0.28660 0.17600
H 	H 	0.53050 0.51260 0.30840 0.18400
C 	C 	0.48610 0.14560 0.29628 -1.22500
H 	H 	0.51280 0.16870 0.28820 0.35100
H 	H 	0.44910 0.15320 0.29000 0.40600
H 	H 	0.49550 0.10930 0.29270 0.45700
C 	C 	0.48760 0.15450 0.32422 0.93500
C 	C 	0.54640 0.14570 0.33349 -1.31700
H 	H 	0.57170 0.16870 0.32450 0.49700
H 	H 	0.55690 0.10930 0.33060 0.40800
H 	H 	0.54830 0.15330 0.35130 0.49700
C 	C 	0.44840 0.11820 0.33747 -1.23100
H 	H 	0.45030 0.12450 0.35540 0.34800
H 	H 	0.45880 0.08200 0.33400 0.45800
H 	H 	0.41080 0.12440 0.33160 0.43500
C 	C 	0.45923 0.23250 0.35023 0.29700
C 	C 	0.41580 0.30350 0.37117 -0.12900
H 	H 	0.44670 0.32770 0.37440 0.13700
H 	H 	0.41260 0.27950 0.38550 0.06700
C 	C 	0.36222 0.33435 0.36813 -0.03000
H 	H 	0.33020 0.31060 0.36910 -0.02900
H 	H 	0.35880 0.36060 0.38150 0.01800
C 	C 	0.33433 0.40323 0.34074 0.26300
C 	C 	0.32110 0.47750 0.31009 0.71500
C 	C 	0.34450 0.48620 0.28409 -0.96500
H 	H 	0.38480 0.48370 0.28470 0.27100
H 	H 	0.33390 0.52080 0.27810 0.30700
H 	H 	0.33000 0.45960 0.27280 0.30500
C 	C 	0.25850 0.47860 0.30917 -1.08000
H 	H 	0.24370 0.46820 0.32540 0.29600
H 	H 	0.24550 0.45440 0.29640 0.39000
H 	H 	0.24600 0.51390 0.30520 0.46700
C 	C 	0.34220 0.52000 0.32746 -0.95600
H 	H 	0.38220 0.51710 0.32910 0.26500
H 	H 	0.32510 0.51590 0.34380 0.28600
H 	H 	0.33270 0.55420 0.32060 0.26700
Zn	Zn	0.36540 0.26566 0.48446 1.17200
O 	O 	0.45946 0.15243 0.44718 -0.36400
O 	O 	0.27801 0.35850 0.43385 -0.37200
O 	O 	0.27282 0.32397 0.03449 -0.61100
O 	O 	0.45443 0.11878 0.02173 -0.38200
N 	N 	0.40233 0.21842 0.46052 -0.31000
N 	N 	0.32894 0.29683 0.45500 -0.31400
N 	N 	0.33122 0.26748 0.01391 -0.33400
N 	N 	0.39491 0.18225 0.00852 -0.31100
N 	N 	0.44987 0.16926 0.48869 -0.31900
H 	H 	0.42860 0.18410 0.49990 0.09000
N 	N 	0.26171 0.34211 0.47522 -0.30700
H 	H 	0.25710 0.31550 0.48530 0.06100
N 	N 	0.29874 0.34040 0.99424 -0.30600
H 	H 	0.30740 0.32500 0.98020 0.07000
N 	N 	0.43423 0.12782 0.98037 -0.32500
H 	H 	0.41920 0.14810 0.96910 0.08100
C 	C 	0.49230 0.14100 0.52629 -0.85500
H 	H 	0.49910 0.17730 0.53110 0.24500
H 	H 	0.52060 0.11860 0.53370 0.23600
H 	H 	0.45590 0.13030 0.53230 0.24500
C 	C 	0.49440 0.13620 0.49797 0.62900
C 	C 	0.48520 0.07980 0.49074 -0.86200
H 	H 	0.48220 0.07710 0.47260 0.25600
H 	H 	0.45100 0.06710 0.49840 0.23900
H 	H 	0.51620 0.05860 0.49650 0.23800
C 	C 	0.55000 0.15450 0.48841 -0.88200
H 	H 	0.55510 0.19140 0.49260 0.28100
H 	H 	0.55140 0.15030 0.47030 0.19600
H 	H 	0.57930 0.13380 0.49610 0.22000
C 	C 	0.43805 0.17950 0.46406 0.28000
C 	C 	0.38135 0.22684 0.43537 -0.07100
H 	H 	0.35180 0.20130 0.43180 0.01400
H 	H 	0.41140 0.22120 0.42320 0.01800
C 	C 	0.35875 0.28192 0.43249 -0.08100
H 	H 	0.38940 0.30650 0.42960 0.01800
H 	H 	0.33370 0.28340 0.41800 0.03000
C 	C 	0.29081 0.33376 0.45319 0.25900
C 	C 	0.23840 0.39241 0.48266 0.53000
C 	C 	0.22110 0.38620 0.50974 -0.70800
H 	H 	0.19390 0.35810 0.51110 0.12500
H 	H 	0.20480 0.41880 0.51570 0.18100
H 	H 	0.25340 0.37760 0.51980 0.17200
C 	C 	0.18830 0.40660 0.46718 -0.76300
H 	H 	0.16020 0.37950 0.46900 0.20100
H 	H 	0.19900 0.40940 0.44970 0.21000
H 	H 	0.17340 0.44000 0.47290 0.20500
C 	C 	0.28280 0.43470 0.48078 -0.80000
H 	H 	0.31480 0.42460 0.49070 0.23500
H 	H 	0.26800 0.46770 0.48710 0.22600
H 	H 	0.29380 0.43900 0.46340 0.24100
C 	C 	0.29780 0.41380 0.96702 -0.68900
H 	H 	0.27570 0.39390 0.95510 0.19500
H 	H 	0.28940 0.45100 0.96540 0.19200
H 	H 	0.33700 0.40800 0.96370 0.20200
C 	C 	0.28420 0.39590 0.99327 0.40900
C 	C 	0.22190 0.40240 0.99813 -0.44100
H 	H 	0.21320 0.39020 0.01490 -0.06700
H 	H 	0.21190 0.43920 0.99660 0.10600
H 	H 	0.20120 0.38180 0.98600 0.04900
C 	C 	0.31720 0.42750 0.01229 -0.65600
H 	H 	0.30920 0.41470 0.02910 0.18300
H 	H 	0.35660 0.42380 0.00890 0.18700
H 	H 	0.30680 0.46430 0.01110 0.18000
C 	C 	0.29991 0.31040 0.01578 0.28100
C 	C 	0.33430 0.23250 0.03515 -0.02800
H 	H 	0.33280 0.25270 0.05080 -0.01400
H 	H 	0.30270 0.20800 0.03490 -0.08200
C 	C 	0.38790 0.20240 0.03368 -0.09100
H 	H 	0.38740 0.17320 0.04570 0.02200
H 	H 	0.41910 0.22560 0.03790 0.01300
C 	C 	0.42860 0.14250 0.00502 0.28800
C 	C 	0.46340 0.08100 0.97161 0.68800
C 	C 	0.45360 0.07950 0.94349 -1.00100
H 	H 	0.46870 0.11110 0.93590 0.34900
H 	H 	0.47190 0.04880 0.93640 0.31900
H 	H 	0.41400 0.07760 0.94020 0.30800
C 	C 	0.52550 0.08510 0.97661 -0.92900
H 	H 	0.53190 0.08810 0.99450 0.25500
H 	H 	0.54410 0.05400 0.97030 0.25500
H 	H 	0.54020 0.11610 0.96820 0.26900
C 	C 	0.44050 0.03180 0.98341 -0.93300
H 	H 	0.44460 0.03380 0.00150 0.27600
H 	H 	0.40140 0.02830 0.97920 0.27100
H 	H 	0.46070 0.00140 0.97720 0.26400
O 	O 	0.22120 0.09110 0.24040 -0.46300
N 	N 	0.14610 0.04900 0.22790 -0.37600
C 	C 	0.20030 0.05160 0.23090 -0.20400
C 	C 	0.23480 0.00280 0.22790 1.48000
H 	H 	0.23650 0.98420 0.24380 -0.46100
H 	H 	0.27220 0.01050 0.22210 -0.21800
H 	H 	0.21590 0.98110 0.21550 -1.04800
C 	C 	0.11300 0.09540 0.23250 -0.53400
H 	H 	0.13320 0.11650 0.24460 0.07300
H 	H 	0.07680 0.08620 0.23940 0.05500
H 	H 	0.10800 0.11530 0.21710 0.16900
C 	C 	0.11510 0.00670 0.21670 -0.17500
H 	H 	0.10500 0.01470 0.19940 0.06200
H 	H 	0.08160 0.00290 0.22670 -0.02400
H 	H 	0.13620 0.97410 0.21720 0.02400
O 	O 	0.20680 0.09770 0.23970 0.17300
N 	N 	0.16240 0.02870 0.22470 0.12000
C 	C 	0.16220 0.07550 0.23530 0.59600
C 	C 	0.11070 0.09340 0.24880 -0.03200
H 	H 	0.11020 0.08370 0.26640 -0.04500
H 	H 	0.08130 0.07480 0.24000 0.06400
H 	H 	0.10480 0.13110 0.24720 0.02100
C 	C 	0.21480 0.00780 0.21600 -0.11700
H 	H 	0.24220 0.02990 0.22420 -0.47800
H 	H 	0.22030 0.00930 0.19790 0.15900
H 	H 	0.21900 0.97170 0.22170 0.63800
C 	C 	0.11940 0.98940 0.22660 0.08200
H 	H 	0.12720 0.96160 0.23860 -0.04600
H 	H 	0.11920 0.97480 0.20970 0.01900
H 	H 	0.08340 0.00480 0.23030 0.02600
O 	O 	0.52370 0.52520 0.23730 2.04600
N 	N 	0.60730 0.56110 0.23598 0.93500
C 	C 	0.55700 0.55790 0.24535 3.78300
C 	C 	0.53970 0.59620 0.26520 -0.36700
H 	H 	0.53630 0.63110 0.25800 0.06100
H 	H 	0.56700 0.59680 0.27860 -0.44100
H 	H 	0.50390 0.58530 0.27200 0.14200
C 	C 	0.62470 0.52450 0.21680 9.27500
H 	H 	0.63830 0.49250 0.22470 -1.23200
H 	H 	0.65430 0.54040 0.20700 -1.18300
H 	H 	0.59360 0.51620 0.20590 -11.53000
C 	C 	0.65200 0.59390 0.24490 0.21000
H 	H 	0.64260 0.60720 0.26150 -0.00300
H 	H 	0.65570 0.62310 0.23330 0.04800
H 	H 	0.68690 0.57470 0.24580 0.15700
O 	O 	0.53350 0.52180 0.23300 -1.96700
N 	N 	0.59460 0.58020 0.24700 -0.96200
C 	C 	0.58000 0.54190 0.23190 -5.00900
C 	C 	0.61690 0.52960 0.20990 6.07600
H 	H 	0.65290 0.51840 0.21620 -5.52300
H 	H 	0.62150 0.56020 0.19920 -1.78300
H 	H 	0.60020 0.50120 0.20030 6.78400
C 	C 	0.55630 0.59920 0.26580 -0.72300
H 	H 	0.55540 0.63740 0.26530 0.28800
H 	H 	0.56800 0.58750 0.28230 0.69500
H 	H 	0.51940 0.58550 0.26220 -0.24100
C 	C 	0.64150 0.61480 0.24340 -0.07200
H 	H 	0.67400 0.59360 0.23970 -0.20700
H 	H 	0.64800 0.63490 0.25860 -0.00300
H 	H 	0.63460 0.63880 0.22950 -0.00100
O 	O 	0.61180 0.18960 0.40240 -2.34400
N 	N 	0.70220 0.20620 0.40213 -1.01000
C 	C 	0.65210 0.21150 0.39277 -3.77900
C 	C 	0.64490 0.24070 0.36850 -0.62200
H 	H 	0.66390 0.22050 0.35570 4.89900
H 	H 	0.66130 0.27550 0.36960 14.61100
H 	H 	0.60580 0.24390 0.36420 2.80300
C 	C 	0.71010 0.17690 0.42510 -2.18200
H 	H 	0.72280 0.20110 0.43790 1.37600
H 	H 	0.73720 0.14890 0.42300 0.18200
H 	H 	0.67460 0.16190 0.43000 0.21500
C 	C 	0.75110 0.23500 0.39460 -0.24800
H 	H 	0.77270 0.21330 0.38320 -1.27200
H 	H 	0.77330 0.24330 0.40930 -0.12800
H 	H 	0.74050 0.26740 0.38620 0.55400
O 	O 	0.61660 0.19130 0.40933 2.06700
N 	N 	0.68890 0.21780 0.38681 -0.16900
C 	C 	0.66700 0.19860 0.40741 3.88800
C 	C 	0.70350 0.19130 0.43001 -1.54200
H 	H 	0.70720 0.22430 0.43900 -0.68300
H 	H 	0.73990 0.17960 0.42450 1.02200
H 	H 	0.68730 0.16500 0.44100 0.46000
C 	C 	0.65350 0.23060 0.36581 7.27900
H 	H 	0.61860 0.21170 0.36750 -2.48900
H 	H 	0.67120 0.22110 0.35010 -7.05500
H 	H 	0.64630 0.26820 0.36600 -16.82100
C 	C 	0.74480 0.23750 0.38386 -0.51500
H 	H 	0.74760 0.27140 0.39220 -0.77100
H 	H 	0.75320 0.24150 0.36610 0.05200
H 	H 	0.77100 0.21310 0.39140 1.55300
O 	O 	0.55814 0.07050 0.40313 -0.45200
N 	N 	0.62740 0.02800 0.42166 -0.07500
C 	C 	0.60690 0.05570 0.40311 0.33200
C 	C 	0.64370 0.06820 0.38120 -0.10400
H 	H 	0.62190 0.08520 0.36820 -0.10400
H 	H 	0.65850 0.03530 0.37480 -0.96700
H 	H 	0.67410 0.09100 0.38610 0.07000
C 	C 	0.59400 0.01640 0.44346 -0.51000
H 	H 	0.61420 0.02610 0.45850 0.28300
H 	H 	0.58540 0.97910 0.44400 0.63400
H 	H 	0.55980 0.03650 0.44250 0.16300
C 	C 	0.68160 0.00370 0.42210 -0.11200
H 	H 	0.68230 0.97290 0.41140 0.06600
H 	H 	0.69020 0.99350 0.43920 0.03700
H 	H 	0.70910 0.02890 0.41630 0.06800
O 	O 	0.55460 0.06620 0.41360 0.02800
N 	N 	0.64170 0.03950 0.40880 -0.12300
C 	C 	0.59450 0.04040 0.42120 0.11300
C 	C 	0.58660 0.00290 0.44270 -0.10000
H 	H 	0.54820 0.00310 0.44830 -0.07200
H 	H 	0.61030 0.01670 0.45590 -0.13100
H 	H 	0.59770 0.96710 0.43880 -0.42400
C 	C 	0.64670 0.06700 0.38530 -0.50500
H 	H 	0.61650 0.09230 0.38410 0.22100
H 	H 	0.64560 0.04370 0.37080 1.17400
H 	H 	0.68200 0.08560 0.38550 0.13700
C 	C 	0.69110 0.01080 0.41560 -0.03000
H 	H 	0.70540 0.02210 0.43180 0.01300
H 	H 	0.71950 0.01560 0.40290 0.01400
H 	H 	0.68090 0.97390 0.41650 0.00800
O 	O 	0.14639 0.32860 0.08340 -4.10800
N 	N 	0.07652 0.29710 0.06085 -5.88500
C 	C 	0.09720 0.31530 0.08189 -22.90800
C 	C 	0.05920 0.32380 0.10383 1.29300
H 	H 	0.07980 0.33930 0.11760 -1.19300
H 	H 	0.02900 0.34720 0.09900 1.28600
H 	H 	0.04390 0.29020 0.10900 -0.31500
C 	C 	0.11240 0.28860 0.03952 -11.51500
H 	H 	0.12170 0.25160 0.03810 1.34900
H 	H 	0.09360 0.30010 0.02440 -4.44600
H 	H 	0.14620 0.30890 0.04180 2.15400
C 	C 	0.02040 0.27920 0.05671 -1.52300
H 	H 	0.00360 0.29940 0.04320 0.42000
H 	H 	0.02090 0.24220 0.05220 -0.58000
H 	H 	0.99880 0.28390 0.07200 0.24000
O 	O 	0.15330 0.18080 0.58310 2.91600
N 	N 	0.06410 0.19600 0.57540 8.78800
C 	C 	0.11650 0.19490 0.56850 22.12700
C 	C 	0.13170 0.21430 0.54280 -7.64800
H 	H 	0.12010 0.25080 0.54150 3.47100
H 	H 	0.11280 0.19370 0.53010 11.51000
H 	H 	0.17160 0.21190 0.54040 0.89700
C 	C 	0.04860 0.17900 0.60030 3.36600
H 	H 	0.07880 0.15790 0.60700 1.50700
H 	H 	0.01530 0.15760 0.59910 -2.71700
H 	H 	0.04160 0.20860 0.61140 -0.67700
C 	C 	0.01970 0.22280 0.56250 -0.77800
H 	H 	0.03360 0.23820 0.54700 1.93700
H 	H 	0.00510 0.25040 0.57330 0.27200
H 	H 	0.99020 0.19790 0.55860 0.40000
O 	O 	0.19350 0.46280 0.06758 -0.45700
N 	N 	0.11520 0.50410 0.07756 -0.38900
C 	C 	0.16080 0.49930 0.06427 -0.63200
C 	C 	0.17010 0.53670 0.04288 -0.18100
H 	H 	0.19790 0.52240 0.03160 -0.02600
H 	H 	0.13530 0.54130 0.03390 0.08100
H 	H 	0.18270 0.57040 0.04920 0.08900
C 	C 	0.10540 0.46990 0.09869 -0.88700
H 	H 	0.13640 0.44570 0.10040 0.15700
H 	H 	0.10190 0.49070 0.11390 -0.09300
H 	H 	0.07140 0.45010 0.09600 0.30700
C 	C 	0.07540 0.54630 0.07560 0.24800
H 	H 	0.07640 0.55830 0.05830 -0.70000
H 	H 	0.03910 0.53120 0.07910 -0.12000
H 	H 	0.08210 0.57570 0.08680 -0.46100
O 	O 	0.19630 0.03370 0.57440 0.03000
N 	N 	0.13150 0.97400 0.56670 0.11600
C 	C 	0.14940 0.01620 0.57840 1.14100
C 	C 	0.10940 0.04700 0.59420 -0.51500
H 	H 	0.11030 0.03370 0.61130 0.61700
H 	H 	0.07210 0.04320 0.58750 0.17500
H 	H 	0.11980 0.08390 0.59420 0.43700
C 	C 	0.16920 0.94380 0.55140 -0.06600
H 	H 	0.19830 0.96700 0.54540 0.17500
H 	H 	0.14910 0.92920 0.53720 0.01500
H 	H 	0.18560 0.91540 0.56110 -0.05300
C 	C 	0.07840 0.94880 0.57040 0.15000
H 	H 	0.08850 0.91750 0.57980 0.37200
H 	H 	0.05870 0.93860 0.55520 0.52200
H 	H 	0.05450 0.97100 0.58060 0.02900
O 	O 	0.55930 0.05840 0.07570 -0.24100
N 	N 	0.62540 0.00740 0.09178 -0.26300
C 	C 	0.60720 0.04150 0.07523 -0.15200
C 	C 	0.64620 0.05980 0.05507 0.00500
H 	H 	0.62640 0.08180 0.04320 -0.13000
H 	H 	0.67660 0.07970 0.06250 -0.16700
H 	H 	0.66110 0.02930 0.04640 -0.01100
C 	C 	0.58840 0.98550 0.11030 -0.25800
H 	H 	0.55350 0.00480 0.10980 0.07900
H 	H 	0.58140 0.94850 0.10710 0.33300
H 	H 	0.60520 0.98940 0.12680 0.11800
C 	C 	0.67940 0.98250 0.09128 -0.09600
H 	H 	0.70610 0.00580 0.08330 0.05000
H 	H 	0.69130 0.97500 0.10830 0.13100
H 	H 	0.67710 0.94990 0.08180 0.03300
O 	O 	0.55550 0.45150 0.57900 -0.09600
N 	N 	0.64360 0.47690 0.58081 0.00900
C 	C 	0.59210 0.47810 0.58900 0.48100
C 	C 	0.57730 0.51500 0.60990 -0.07800
H 	H 	0.53760 0.52200 0.61000 -0.02000
H 	H 	0.59750 0.54770 0.60730 -0.21100
H 	H 	0.58810 0.49980 0.62590 -0.00000
C 	C 	0.65830 0.44380 0.55990 -0.17200
H 	H 	0.62590 0.43990 0.54910 0.14800
H 	H 	0.66970 0.40940 0.56600 0.21000
H 	H 	0.68850 0.45940 0.55040 0.06100
C 	C 	0.69070 0.50300 0.59200 0.01300
H 	H 	0.68030 0.51740 0.60820 -0.09300
H 	H 	0.70250 0.53130 0.58090 -0.02200
H 	H 	0.72100 0.47820 0.59410 -0.04300
K 	K 	0.75770 0.31321 0.76158 0.64600
K 	K 	0.02569 0.07739 0.77390 0.65100
K 	K 	0.01395 0.33873 0.59362 0.66100
K 	K 	0.74088 0.12006 0.60943 0.61000
K 	K 	0.73944 0.12749 0.92755 0.54900
K 	K 	0.01300 0.35867 0.94070 0.62900
Zn	Zn	0.90059 0.23129 0.84986 1.17400
O 	O 	0.97918 0.33637 0.89794 -0.36300
O 	O 	0.80229 0.12687 0.89012 -0.40400
O 	O 	0.82577 0.32787 0.79706 -0.34200
O 	O 	0.99736 0.11740 0.81456 -0.38900
N 	N 	0.92930 0.27263 0.87819 -0.31500
N 	N 	0.85661 0.19326 0.87529 -0.30100
N 	N 	0.88162 0.27312 0.81991 -0.30800
N 	N 	0.93955 0.18415 0.82646 -0.31400
N 	N 	0.98968 0.32260 0.85601 -0.31800
H 	H 	0.98570 0.29940 0.84410 0.07700
N 	N 	0.79760 0.15060 0.84977 -0.36000
H 	H 	0.80700 0.17490 0.83910 0.08500
N 	N 	0.83879 0.34164 0.83866 -0.33000
H 	H 	0.85250 0.32860 0.85250 0.11000
N 	N 	0.96177 0.11992 0.85396 -0.31600
H 	H 	0.94690 0.14040 0.86520 0.08500
C 	C 	0.03370 0.36620 0.82248 -0.83800
H 	H 	0.05720 0.33580 0.81930 0.23100
H 	H 	0.05290 0.39790 0.81720 0.22500
H 	H 	0.99920 0.36260 0.81320 0.23100
C 	C 	0.02113 0.36965 0.85010 0.59800
C 	C 	0.98740 0.41850 0.85563 -0.86000
H 	H 	0.97790 0.41940 0.87330 0.27900
H 	H 	0.95350 0.41800 0.84570 0.23400
H 	H 	0.00900 0.44950 0.85140 0.24300
C 	C 	0.07500 0.37170 0.86478 -0.83300
H 	H 	0.09520 0.33910 0.86250 0.23000
H 	H 	0.06680 0.37660 0.88250 0.24900
H 	H 	0.09740 0.40090 0.85880 0.23500
C 	C 	0.96556 0.31140 0.87880 0.26600
C 	C 	0.90166 0.25795 0.90127 -0.05500
H 	H 	0.87080 0.28230 0.90450 0.00100
H 	H 	0.92790 0.26070 0.91530 0.01800
C 	C 	0.87962 0.20268 0.89984 -0.07300
H 	H 	0.90980 0.17760 0.90310 0.01400
H 	H 	0.85080 0.19760 0.91260 0.02300
C 	C 	0.81907 0.15540 0.87325 0.24300
C 	C 	0.76140 0.11040 0.84054 0.61800
C 	C 	0.75240 0.12050 0.81305 -0.90800
H 	H 	0.73510 0.15470 0.81080 0.29100
H 	H 	0.72840 0.09340 0.80610 0.27300
H 	H 	0.78800 0.11990 0.80440 0.27000
C 	C 	0.78830 0.05830 0.84375 -0.91400
H 	H 	0.79540 0.05210 0.86140 0.29400
H 	H 	0.82320 0.05770 0.83460 0.27500
H 	H 	0.76390 0.03100 0.83730 0.26300
C 	C 	0.70740 0.11060 0.85370 -0.73000
H 	H 	0.69130 0.14550 0.85280 0.05200
H 	H 	0.71300 0.10080 0.87110 0.17900
H 	H 	0.68260 0.08550 0.84580 0.22900
C 	C 	0.81380 0.40840 0.86767 -0.99200
H 	H 	0.79690 0.38240 0.87860 0.29300
H 	H 	0.79510 0.44190 0.86990 0.29000
H 	H 	0.85280 0.41210 0.87190 0.29700
C 	C 	0.80820 0.39100 0.84066 0.74000
C 	C 	0.74710 0.38230 0.83453 -1.11000
H 	H 	0.74350 0.37090 0.81720 0.39800
H 	H 	0.72680 0.41500 0.83690 0.33900
H 	H 	0.73190 0.35560 0.84560 0.47300
C 	C 	0.83160 0.43240 0.82357 -0.97700
H 	H 	0.82830 0.42090 0.80630 0.30700
H 	H 	0.87050 0.43820 0.82760 0.25800
H 	H 	0.81100 0.46490 0.82580 0.27800
C 	C 	0.84800 0.31380 0.81700 0.28800
C 	C 	0.89350 0.24250 0.79757 -0.08100
H 	H 	0.90000 0.26600 0.78330 0.03600
H 	H 	0.86170 0.21980 0.79360 0.02200
C 	C 	0.94450 0.20940 0.80237 -0.06400
H 	H 	0.94830 0.18270 0.78920 0.02700
H 	H 	0.97780 0.23170 0.80210 0.00600
C 	C 	0.96733 0.14020 0.83034 0.27100
C 	C 	0.97820 0.06760 0.86209 0.56900
C 	C 	0.95730 0.06170 0.88857 -0.87200
H 	H 	0.91720 0.06550 0.88880 0.28200
H 	H 	0.97410 0.08860 0.89910 0.24900
H 	H 	0.96740 0.02720 0.89490 0.27200
C 	C 	0.04130 0.06270 0.86192 -0.69300
H 	H 	0.05730 0.08920 0.87290 0.16900
H 	H 	0.05500 0.06780 0.84500 0.13200
H 	H 	0.05190 0.02800 0.86780 0.16900
C 	C 	0.95310 0.02540 0.84570 -0.84200
H 	H 	0.91290 0.02900 0.84560 0.24000
H 	H 	0.96310 0.99110 0.85220 0.24300
H 	H 	0.96720 0.02900 0.82870 0.27300
Zn	Zn	0.89579 0.18896 0.68080 1.17400
O 	O 	0.78832 0.29224 0.71717 -0.35500
O 	O 	0.98241 0.10041 0.73367 -0.38100
O 	O 	0.97990 0.28539 0.63017 -0.29000
O 	O 	0.80263 0.07674 0.64338 -0.37800
N 	N 	0.85478 0.23392 0.70455 -0.31500
N 	N 	0.92892 0.15655 0.71054 -0.31300
N 	N 	0.92639 0.22599 0.65151 -0.29500
N 	N 	0.86384 0.14017 0.65595 -0.31700
N 	N 	0.80830 0.28218 0.67600 -0.32700
H 	H 	0.82880 0.26540 0.66520 0.08200
N 	N 	0.00031 0.11257 0.69231 -0.33200
H 	H 	0.99780 0.13520 0.68010 0.12600
N 	N 	0.97065 0.29064 0.67270 -0.36000
H 	H 	0.96760 0.27130 0.68610 0.11000
N 	N 	0.84096 0.07415 0.68228 -0.33900
H 	H 	0.85880 0.09240 0.69350 0.09200
C 	C 	0.77850 0.31940 0.63774 -0.85500
H 	H 	0.77040 0.28460 0.63120 0.23100
H 	H 	0.81690 0.32840 0.63410 0.24100
H 	H 	0.75400 0.34490 0.62980 0.23500
C 	C 	0.76930 0.32010 0.66587 0.63800
C 	C 	0.71030 0.30360 0.67184 -0.85200
H 	H 	0.70590 0.30030 0.68990 0.24900
H 	H 	0.70240 0.27010 0.66390 0.22600
H 	H 	0.68460 0.33000 0.66560 0.23200
C 	C 	0.77970 0.37410 0.67564 -0.97000
H 	H 	0.77270 0.37490 0.69360 0.34600
H 	H 	0.75500 0.39880 0.66730 0.28200
H 	H 	0.81800 0.38390 0.67240 0.34600
C 	C 	0.81630 0.27000 0.70059 0.27400
C 	C 	0.86890 0.22090 0.72999 -0.06000
H 	H 	0.83510 0.22180 0.74030 0.01900
H 	H 	0.89450 0.24760 0.73660 0.01900
C 	C 	0.89490 0.16870 0.73222 -0.08300
H 	H 	0.91800 0.16780 0.74740 0.04100
H 	H 	0.86580 0.14200 0.73400 0.01700
C 	C 	0.97020 0.12290 0.71364 0.28300
C 	C 	0.03610 0.06700 0.68845 0.65700
C 	C 	0.04980 0.06620 0.66102 -1.01300
H 	H 	0.01580 0.06320 0.65130 0.31300
H 	H 	0.07370 0.03630 0.65740 0.28700
H 	H 	0.06890 0.09850 0.65650 0.38400
C 	C 	0.08930 0.07190 0.70364 -0.90600
H 	H 	0.10990 0.10260 0.69810 0.29700
H 	H 	0.11190 0.04060 0.70120 0.25400
H 	H 	0.08020 0.07550 0.72130 0.26600
C 	C 	0.00690 0.01730 0.69553 -0.79200
H 	H 	0.97230 0.01450 0.68620 0.21100
H 	H 	0.99900 0.01750 0.71340 0.17100
H 	H 	0.03050 0.98740 0.69160 0.17700
C 	C 	0.98610 0.35440 0.70372 -1.22400
H 	H 	0.01280 0.33130 0.71180 0.35100
H 	H 	0.94910 0.34680 0.71000 0.40600
H 	H 	0.99550 0.39070 0.70730 0.45600
C 	C 	0.98760 0.34550 0.67578 0.93400
C 	C 	0.04640 0.35430 0.66651 -1.31600
H 	H 	0.07170 0.33130 0.67550 0.49700
H 	H 	0.05690 0.39070 0.66940 0.40700
H 	H 	0.04830 0.34670 0.64870 0.49600
C 	C 	0.94840 0.38180 0.66253 -1.23000
H 	H 	0.95030 0.37550 0.64460 0.34800
H 	H 	0.95880 0.41800 0.66600 0.45700
H 	H 	0.91080 0.37560 0.66840 0.43400
C 	C 	0.95923 0.26750 0.64977 0.29700
C 	C 	0.91580 0.19650 0.62883 -0.12900
H 	H 	0.94670 0.17230 0.62560 0.13700
H 	H 	0.91260 0.22050 0.61450 0.06700
C 	C 	0.86222 0.16565 0.63187 -0.03000
H 	H 	0.83020 0.18940 0.63090 -0.02900
H 	H 	0.85880 0.13940 0.61850 0.01800
C 	C 	0.83433 0.09677 0.65926 0.26300
C 	C 	0.82110 0.02250 0.68991 0.71300
C 	C 	0.84450 0.01380 0.71591 -0.95600
H 	H 	0.88480 0.01630 0.71530 0.26900
H 	H 	0.83390 0.97920 0.72190 0.30300
H 	H 	0.83000 0.04040 0.72720 0.30300
C 	C 	0.75850 0.02140 0.69083 -1.07200
H 	H 	0.74370 0.03180 0.67460 0.29400
H 	H 	0.74550 0.04560 0.70360 0.38800
H 	H 	0.74600 0.98610 0.69480 0.46400
C 	C 	0.84220 0.98000 0.67254 -0.95500
H 	H 	0.88220 0.98290 0.67090 0.26500
H 	H 	0.82510 0.98410 0.65620 0.28600
H 	H 	0.83270 0.94580 0.67940 0.26600
Zn	Zn	0.86540 0.23434 0.51554 1.17200
O 	O 	0.95946 0.34757 0.55282 -0.36400
O 	O 	0.77801 0.14150 0.56615 -0.37200
O 	O 	0.77282 0.17603 0.96551 -0.61100
O 	O 	0.95443 0.38122 0.97827 -0.38200
N 	N 	0.90233 0.28158 0.53948 -0.31000
N 	N 	0.82894 0.20317 0.54500 -0.31400
N 	N 	0.83122 0.23252 0.98609 -0.33400
N 	N 	0.89491 0.31775 0.99148 -0.31100
N 	N 	0.94987 0.33074 0.51131 -0.31900
H 	H 	0.92860 0.31590 0.50010 0.09000
N 	N 	0.76171 0.15789 0.52478 -0.30700
H 	H 	0.75710 0.18450 0.51470 0.06100
N 	N 	0.79874 0.15960 0.00576 -0.30600
H 	H 	0.80740 0.17500 0.01980 0.07000
N 	N 	0.93423 0.37218 0.01963 -0.32500
H 	H 	0.91920 0.35190 0.03090 0.08100
C 	C 	0.99230 0.35900 0.47371 -0.85600
H 	H 	0.99910 0.32270 0.46890 0.24500
H 	H 	0.02060 0.38140 0.46630 0.23600
H 	H 	0.95590 0.36970 0.46770 0.24600
C 	C 	0.99440 0.36380 0.50203 0.62800
C 	C 	0.98520 0.42020 0.50926 -0.86200
H 	H 	0.98220 0.42290 0.52740 0.25700
H 	H 	0.95100 0.43290 0.50160 0.23900
H 	H 	0.01620 0.44140 0.50350 0.23800
C 	C 	0.05000 0.34550 0.51159 -0.88200
H 	H 	0.05510 0.30860 0.50740 0.28100
H 	H 	0.05140 0.34970 0.52970 0.19600
H 	H 	0.07930 0.36620 0.50390 0.22000
C 	C 	0.93805 0.32050 0.53594 0.28000
C 	C 	0.88135 0.27316 0.56463 -0.07100
H 	H 	0.85180 0.29870 0.56820 0.01400
H 	H 	0.91140 0.27880 0.57680 0.01800
C 	C 	0.85875 0.21808 0.56751 -0.08100
H 	H 	0.88940 0.19350 0.57040 0.01800
H 	H 	0.83370 0.21660 0.58200 0.03000
C 	C 	0.79081 0.16624 0.54681 0.25900
C 	C 	0.73840 0.10759 0.51734 0.53000
C 	C 	0.72110 0.11380 0.49026 -0.70800
H 	H 	0.69390 0.14190 0.48890 0.12500
H 	H 	0.70480 0.08120 0.48430 0.18100
H 	H 	0.75340 0.12240 0.48020 0.17200
C 	C 	0.68830 0.09340 0.53282 -0.76300
H 	H 	0.66020 0.12050 0.53100 0.20100
H 	H 	0.69900 0.09060 0.55030 0.21000
H 	H 	0.67340 0.06000 0.52710 0.20500
C 	C 	0.78280 0.06530 0.51922 -0.80000
H 	H 	0.81480 0.07540 0.50930 0.23500
H 	H 	0.76800 0.03230 0.51290 0.22600
H 	H 	0.79380 0.06100 0.53660 0.24100
C 	C 	0.79780 0.08620 0.03298 -0.68800
H 	H 	0.77570 0.10610 0.04490 0.19400
H 	H 	0.78940 0.04900 0.03460 0.19200
H 	H 	0.83700 0.09200 0.03630 0.20100
C 	C 	0.78420 0.10410 0.00673 0.40800
C 	C 	0.72190 0.09760 0.00187 -0.44100
H 	H 	0.71320 0.10980 0.98510 -0.06700
H 	H 	0.71190 0.06080 0.00340 0.10600
H 	H 	0.70120 0.11820 0.01400 0.04900
C 	C 	0.81720 0.07250 0.98771 -0.65600
H 	H 	0.80920 0.08530 0.97090 0.18300
H 	H 	0.85660 0.07620 0.99110 0.18700
H 	H 	0.80680 0.03570 0.98890 0.18000
C 	C 	0.79991 0.18960 0.98422 0.28100
C 	C 	0.83430 0.26750 0.96485 -0.02800
H 	H 	0.83280 0.24730 0.94920 -0.01400
H 	H 	0.80270 0.29200 0.96510 -0.08200
C 	C 	0.88790 0.29760 0.96632 -0.09100
H 	H 	0.88740 0.32680 0.95430 0.02200
H 	H 	0.91910 0.27440 0.96210 0.01300
C 	C 	0.92860 0.35750 0.99498 0.28800
C 	C 	0.96340 0.41900 0.02839 0.68700
C 	C 	0.95360 0.42050 0.05651 -1.00000
H 	H 	0.96870 0.38890 0.06410 0.34800
H 	H 	0.97190 0.45120 0.06360 0.31800
H 	H 	0.91400 0.42240 0.05980 0.30800
C 	C 	0.02550 0.41490 0.02339 -0.92800
H 	H 	0.03190 0.41190 0.00550 0.25400
H 	H 	0.04410 0.44600 0.02970 0.25500
H 	H 	0.04020 0.38390 0.03180 0.26900
C 	C 	0.94050 0.46820 0.01659 -0.93300
H 	H 	0.94460 0.46620 0.99850 0.27600
H 	H 	0.90140 0.47170 0.02080 0.27000
H 	H 	0.96070 0.49860 0.02280 0.26400
O 	O 	0.72120 0.40890 0.75960 -0.46100
N 	N 	0.64610 0.45100 0.77210 -0.37500
C 	C 	0.70030 0.44840 0.76910 -0.20100
C 	C 	0.73480 0.49720 0.77210 1.43700
H 	H 	0.73650 0.51580 0.75620 -0.44800
H 	H 	0.77220 0.48950 0.77790 -0.21200
H 	H 	0.71590 0.51890 0.78450 -1.02000
C 	C 	0.61300 0.40460 0.76750 -0.53500
H 	H 	0.63320 0.38350 0.75540 0.07300
H 	H 	0.57680 0.41380 0.76060 0.05600
H 	H 	0.60800 0.38470 0.78290 0.16900
C 	C 	0.61510 0.49330 0.78330 -0.18100
H 	H 	0.60500 0.48530 0.80060 0.06400
H 	H 	0.58160 0.49710 0.77330 -0.02400
H 	H 	0.63620 0.52590 0.78280 0.02000
O 	O 	0.70680 0.40230 0.76030 0.17000
N 	N 	0.66240 0.47130 0.77530 0.12100
C 	C 	0.66220 0.42450 0.76470 0.59400
C 	C 	0.61070 0.40660 0.75120 -0.03100
H 	H 	0.61020 0.41630 0.73360 -0.04600
H 	H 	0.58130 0.42520 0.76000 0.06400
H 	H 	0.60480 0.36890 0.75280 0.02100
C 	C 	0.71480 0.49220 0.78400 -0.11500
H 	H 	0.74220 0.47010 0.77580 -0.46200
H 	H 	0.72030 0.49070 0.80210 0.15600
H 	H 	0.71900 0.52830 0.77830 0.62100
C 	C 	0.61940 0.51060 0.77340 0.08900
H 	H 	0.62720 0.53840 0.76140 -0.04800
H 	H 	0.61920 0.52520 0.79030 0.02100
H 	H 	0.58340 0.49520 0.76970 0.02700
O 	O 	0.02370 0.97480 0.76270 2.06200
N 	N 	0.10730 0.93890 0.76402 0.94400
C 	C 	0.05700 0.94210 0.75465 3.81100
C 	C 	0.03970 0.90380 0.73480 -0.37000
H 	H 	0.03630 0.86890 0.74200 0.06100
H 	H 	0.06700 0.90320 0.72140 -0.44300
H 	H 	0.00390 0.91470 0.72800 0.14400
C 	C 	0.12470 0.97550 0.78320 9.34000
H 	H 	0.13830 0.00750 0.77530 -1.23700
H 	H 	0.15430 0.95960 0.79300 -1.19000
H 	H 	0.09360 0.98380 0.79410 -11.60700
C 	C 	0.15200 0.90610 0.75510 0.21400
H 	H 	0.14260 0.89280 0.73850 -0.00500
H 	H 	0.15570 0.87690 0.76670 0.04800
H 	H 	0.18690 0.92530 0.75420 0.15900
O 	O 	0.03350 0.97820 0.76700 -1.98100
N 	N 	0.09460 0.91980 0.75300 -0.97000
C 	C 	0.08000 0.95810 0.76810 -5.04800
C 	C 	0.11690 0.97040 0.79010 6.11700
H 	H 	0.15290 0.98160 0.78380 -5.56400
H 	H 	0.12150 0.93980 0.80080 -1.79500
H 	H 	0.10020 0.99880 0.79970 6.82800
C 	C 	0.05630 0.90080 0.73420 -0.72600
H 	H 	0.05540 0.86260 0.73470 0.29000
H 	H 	0.06800 0.91250 0.71770 0.69800
H 	H 	0.01940 0.91450 0.73780 -0.24500
C 	C 	0.14150 0.88520 0.75660 -0.07000
H 	H 	0.17400 0.90640 0.76030 -0.21100
H 	H 	0.14800 0.86510 0.74140 -0.00300
H 	H 	0.13460 0.86120 0.77050 -0.00100
O 	O 	0.11180 0.31040 0.59760 -2.34200
N 	N 	0.20220 0.29380 0.59787 -1.01000
C 	C 	0.15210 0.28850 0.60723 -3.77600
C 	C 	0.14490 0.25930 0.63150 -0.62100
H 	H 	0.16390 0.27950 0.64430 4.89300
H 	H 	0.16130 0.22450 0.63040 14.59300
H 	H 	0.10580 0.25610 0.63580 2.80000
C 	C 	0.21010 0.32310 0.57490 -2.18100
H 	H 	0.22280 0.29890 0.56210 1.37500
H 	H 	0.23720 0.35110 0.57700 0.18200
H 	H 	0.17460 0.33810 0.57000 0.21500
C 	C 	0.25110 0.26500 0.60540 -0.24700
H 	H 	0.27270 0.28670 0.61680 -1.27100
H 	H 	0.27330 0.25670 0.59070 -0.12800
H 	H 	0.24050 0.23260 0.61380 0.55300
O 	O 	0.11660 0.30870 0.59067 2.06500
N 	N 	0.18890 0.28220 0.61319 -0.16800
C 	C 	0.16700 0.30140 0.59259 3.88600
C 	C 	0.20350 0.30870 0.56999 -1.54100
H 	H 	0.20720 0.27570 0.56100 -0.68300
H 	H 	0.23990 0.32040 0.57550 1.02100
H 	H 	0.18730 0.33500 0.55900 0.46000
C 	C 	0.15350 0.26940 0.63419 7.27100
H 	H 	0.11860 0.28830 0.63250 -2.48500
H 	H 	0.17120 0.27890 0.64990 -7.04700
H 	H 	0.14630 0.23180 0.63400 -16.80100
C 	C 	0.24480 0.26250 0.61614 -0.51400
H 	H 	0.24760 0.22860 0.60780 -0.76900
H 	H 	0.25320 0.25850 0.63390 0.05200
H 	H 	0.27100 0.28690 0.60860 1.55100
O 	O 	0.05814 0.42950 0.59687 -0.44900
N 	N 	0.12740 0.47200 0.57834 -0.07600
C 	C 	0.10690 0.44430 0.59689 0.33100
C 	C 	0.14370 0.43180 0.61880 -0.10500
H 	H 	0.12190 0.41480 0.63180 -0.10200
H 	H 	0.15850 0.46470 0.62520 -0.95800
H 	H 	0.17410 0.40900 0.61390 0.07000
C 	C 	0.09400 0.48360 0.55654 -0.50300
H 	H 	0.11420 0.47390 0.54150 0.28000
H 	H 	0.08540 0.52090 0.55600 0.62600
H 	H 	0.05980 0.46350 0.55750 0.16100
C 	C 	0.18160 0.49630 0.57790 -0.10900
H 	H 	0.18230 0.52710 0.58860 0.06300
H 	H 	0.19020 0.50650 0.56080 0.03500
H 	H 	0.20910 0.47110 0.58370 0.06500
O 	O 	0.05460 0.43380 0.58640 0.02500
N 	N 	0.14170 0.46050 0.59120 -0.12300
C 	C 	0.09450 0.45960 0.57880 0.11400
C 	C 	0.08660 0.49710 0.55730 -0.09900
H 	H 	0.04820 0.49690 0.55170 -0.07100
H 	H 	0.11030 0.48330 0.54410 -0.13000
H 	H 	0.09770 0.53290 0.56120 -0.41800
C 	C 	0.14670 0.43300 0.61470 -0.50300
H 	H 	0.11650 0.40770 0.61590 0.22000
H 	H 	0.14560 0.45630 0.62920 1.16300
H 	H 	0.18200 0.41440 0.61450 0.13600
C 	C 	0.19110 0.48920 0.58440 -0.02700
H 	H 	0.20540 0.47790 0.56820 0.01300
H 	H 	0.21950 0.48440 0.59710 0.01500
H 	H 	0.18090 0.52610 0.58350 0.00700
O 	O 	0.64639 0.17140 0.91660 -4.10800
N 	N 	0.57652 0.20290 0.93915 -5.88600
C 	C 	0.59720 0.18470 0.91811 -22.91400
C 	C 	0.55920 0.17620 0.89617 1.29300
H 	H 	0.57980 0.16070 0.88240 -1.19300
H 	H 	0.52900 0.15280 0.90100 1.28700
H 	H 	0.54390 0.20980 0.89100 -0.31500
C 	C 	0.61240 0.21140 0.96048 -11.51700
H 	H 	0.62170 0.24840 0.96190 1.34900
H 	H 	0.59360 0.19990 0.97560 -4.44700
H 	H 	0.64620 0.19110 0.95820 2.15500
C 	C 	0.52040 0.22080 0.94329 -1.52400
H 	H 	0.50360 0.20060 0.95680 0.42000
H 	H 	0.52090 0.25780 0.94780 -0.58000
H 	H 	0.49880 0.21610 0.92800 0.24100
O 	O 	0.65330 0.31920 0.41690 2.92000
N 	N 	0.56410 0.30400 0.42460 8.80000
C 	C 	0.61650 0.30510 0.43150 22.15600
C 	C 	0.63170 0.28570 0.45720 -7.65800
H 	H 	0.62010 0.24920 0.45850 3.47600
H 	H 	0.61280 0.30630 0.46990 11.52500
H 	H 	0.67160 0.28810 0.45960 0.89800
C 	C 	0.54860 0.32100 0.39970 3.37100
H 	H 	0.57880 0.34210 0.39300 1.50800
H 	H 	0.51530 0.34240 0.40090 -2.72100
H 	H 	0.54160 0.29140 0.38860 -0.67800
C 	C 	0.51970 0.27720 0.43750 -0.78000
H 	H 	0.53360 0.26180 0.45300 1.94000
H 	H 	0.50510 0.24960 0.42670 0.27200
H 	H 	0.49020 0.30210 0.44140 0.40100
O 	O 	0.69350 0.03720 0.93242 -0.45800
N 	N 	0.61520 0.99590 0.92244 -0.39000
C 	C 	0.66080 0.00070 0.93573 -0.63300
C 	C 	0.67010 0.96330 0.95712 -0.18000
H 	H 	0.69790 0.97760 0.96840 -0.02600
H 	H 	0.63530 0.95870 0.96610 0.08100
H 	H 	0.68270 0.92960 0.95080 0.08800
C 	C 	0.60540 0.03010 0.90131 -0.88800
H 	H 	0.63640 0.05430 0.89960 0.15700
H 	H 	0.60190 0.00930 0.88610 -0.09200
H 	H 	0.57140 0.04990 0.90400 0.30700
C 	C 	0.57540 0.95370 0.92440 0.24700
H 	H 	0.57640 0.94170 0.94170 -0.69700
H 	H 	0.53910 0.96880 0.92090 -0.11900
H 	H 	0.58210 0.92430 0.91320 -0.45900
O 	O 	0.69630 0.46630 0.42560 0.02900
N 	N 	0.63150 0.52600 0.43330 0.11600
C 	C 	0.64940 0.48380 0.42160 1.13700
C 	C 	0.60940 0.45300 0.40580 -0.51500
H 	H 	0.61030 0.46630 0.38870 0.61700
H 	H 	0.57210 0.45680 0.41250 0.17400
H 	H 	0.61980 0.41610 0.40580 0.43800
C 	C 	0.66920 0.55620 0.44860 -0.06900
H 	H 	0.69830 0.53300 0.45460 0.17800
H 	H 	0.64910 0.57080 0.46280 0.01600
H 	H 	0.68560 0.58460 0.43890 -0.05400
C 	C 	0.57840 0.55120 0.42960 0.15000
H 	H 	0.58850 0.58250 0.42020 0.37500
H 	H 	0.55870 0.56140 0.44480 0.52600
H 	H 	0.55450 0.52900 0.41940 0.03000
O 	O 	0.05930 0.44160 0.92430 -0.24100
N 	N 	0.12540 0.49260 0.90822 -0.26100
C 	C 	0.10720 0.45850 0.92477 -0.15400
C 	C 	0.14620 0.44020 0.94493 0.00500
H 	H 	0.12640 0.41820 0.95680 -0.13000
H 	H 	0.17660 0.42030 0.93750 -0.16600
H 	H 	0.16110 0.47070 0.95360 -0.01000
C 	C 	0.08840 0.51450 0.88970 -0.26600
H 	H 	0.05350 0.49520 0.89020 0.08200
H 	H 	0.08140 0.55150 0.89290 0.34500
H 	H 	0.10520 0.51060 0.87320 0.10900
C 	C 	0.17940 0.51750 0.90872 -0.10300
H 	H 	0.20610 0.49420 0.91670 0.05300
H 	H 	0.19130 0.52500 0.89170 0.13300
H 	H 	0.17710 0.55010 0.91820 0.03500
O 	O 	0.05550 0.04850 0.42100 -0.09700
N 	N 	0.14360 0.02310 0.41919 0.00900
C 	C 	0.09210 0.02190 0.41100 0.47900
C 	C 	0.07730 0.98500 0.39010 -0.07800
H 	H 	0.03760 0.97800 0.39000 -0.01900
H 	H 	0.09750 0.95230 0.39270 -0.20500
H 	H 	0.08810 0.00020 0.37410 -0.00800
C 	C 	0.15830 0.05620 0.44010 -0.17200
H 	H 	0.12590 0.06010 0.45090 0.14800
H 	H 	0.16970 0.09060 0.43400 0.21000
H 	H 	0.18850 0.04060 0.44960 0.06100
C 	C 	0.19070 0.99700 0.40800 0.01400
H 	H 	0.18030 0.98260 0.39180 -0.09200
H 	H 	0.20250 0.96870 0.41910 -0.02200
H 	H 	0.22100 0.02180 0.40590 -0.04300
K 	K 	0.75770 0.18679 0.26158 0.64600
K 	K 	0.02569 0.42261 0.27390 0.65000
K 	K 	0.01395 0.16127 0.09362 0.66100
K 	K 	0.74088 0.37994 0.10943 0.61000
K 	K 	0.73944 0.37251 0.42755 0.54900
K 	K 	0.01300 0.14133 0.44070 0.62900
Zn	Zn	0.90059 0.26871 0.34986 1.17400
O 	O 	0.97918 0.16363 0.39794 -0.36400
O 	O 	0.80229 0.37313 0.39012 -0.40400
O 	O 	0.82577 0.17213 0.29706 -0.34100
O 	O 	0.99736 0.38260 0.31456 -0.38900
N 	N 	0.92930 0.22737 0.37819 -0.31500
N 	N 	0.85661 0.30674 0.37529 -0.30100
N 	N 	0.88162 0.22688 0.31991 -0.30800
N 	N 	0.93955 0.31585 0.32646 -0.31400
N 	N 	0.98968 0.17740 0.35601 -0.31800
H 	H 	0.98570 0.20060 0.34410 0.07700
N 	N 	0.79760 0.34940 0.34977 -0.35900
H 	H 	0.80700 0.32510 0.33910 0.08400
N 	N 	0.83879 0.15836 0.33866 -0.33000
H 	H 	0.85250 0.17140 0.35250 0.11000
N 	N 	0.96177 0.38008 0.35396 -0.31600
H 	H 	0.94690 0.35960 0.36520 0.08500
C 	C 	0.03370 0.13380 0.32248 -0.83800
H 	H 	0.05720 0.16420 0.31930 0.23100
H 	H 	0.05290 0.10210 0.31720 0.22500
H 	H 	0.99920 0.13740 0.31320 0.23000
C 	C 	0.02113 0.13035 0.35010 0.59900
C 	C 	0.98740 0.08150 0.35563 -0.86200
H 	H 	0.97790 0.08060 0.37330 0.28000
H 	H 	0.95350 0.08200 0.34570 0.23500
H 	H 	0.00900 0.05050 0.35140 0.24400
C 	C 	0.07500 0.12830 0.36478 -0.83300
H 	H 	0.09520 0.16090 0.36250 0.23000
H 	H 	0.06680 0.12340 0.38250 0.25000
H 	H 	0.09740 0.09910 0.35880 0.23500
C 	C 	0.96556 0.18860 0.37880 0.26600
C 	C 	0.90166 0.24205 0.40127 -0.05500
H 	H 	0.87080 0.21770 0.40450 0.00100
H 	H 	0.92790 0.23930 0.41530 0.01800
C 	C 	0.87962 0.29732 0.39984 -0.07300
H 	H 	0.90980 0.32240 0.40310 0.01400
H 	H 	0.85080 0.30240 0.41260 0.02300
C 	C 	0.81907 0.34460 0.37325 0.24300
C 	C 	0.76140 0.38960 0.34054 0.61600
C 	C 	0.75240 0.37950 0.31305 -0.90600
H 	H 	0.73510 0.34530 0.31080 0.29100
H 	H 	0.72840 0.40660 0.30610 0.27300
H 	H 	0.78800 0.38010 0.30440 0.26900
C 	C 	0.78830 0.44170 0.34375 -0.91200
H 	H 	0.79540 0.44790 0.36140 0.29300
H 	H 	0.82320 0.44230 0.33460 0.27300
H 	H 	0.76390 0.46900 0.33730 0.26200
C 	C 	0.70740 0.38940 0.35370 -0.72800
H 	H 	0.69130 0.35450 0.35280 0.05200
H 	H 	0.71300 0.39920 0.37110 0.17900
H 	H 	0.68260 0.41450 0.34580 0.22800
C 	C 	0.81380 0.09160 0.36767 -0.99100
H 	H 	0.79690 0.11760 0.37860 0.29300
H 	H 	0.79510 0.05810 0.36990 0.28900
H 	H 	0.85280 0.08790 0.37190 0.29600
C 	C 	0.80820 0.10900 0.34066 0.73900
C 	C 	0.74710 0.11770 0.33453 -1.10900
H 	H 	0.74350 0.12910 0.31720 0.39800
H 	H 	0.72680 0.08500 0.33690 0.33900
H 	H 	0.73190 0.14440 0.34560 0.47200
C 	C 	0.83160 0.06760 0.32357 -0.97600
H 	H 	0.82830 0.07910 0.30630 0.30700
H 	H 	0.87050 0.06180 0.32760 0.25700
H 	H 	0.81100 0.03510 0.32580 0.27700
C 	C 	0.84800 0.18620 0.31700 0.28800
C 	C 	0.89350 0.25750 0.29757 -0.08100
H 	H 	0.90000 0.23400 0.28330 0.03600
H 	H 	0.86170 0.28020 0.29360 0.02200
C 	C 	0.94450 0.29060 0.30237 -0.06400
H 	H 	0.94830 0.31730 0.28920 0.02700
H 	H 	0.97780 0.26830 0.30210 0.00600
C 	C 	0.96733 0.35980 0.33034 0.27100
C 	C 	0.97820 0.43240 0.36209 0.57100
C 	C 	0.95730 0.43830 0.38857 -0.87400
H 	H 	0.91720 0.43450 0.38880 0.28200
H 	H 	0.97410 0.41140 0.39910 0.25000
H 	H 	0.96740 0.47280 0.39490 0.27200
C 	C 	0.04130 0.43730 0.36192 -0.69400
H 	H 	0.05730 0.41080 0.37290 0.17000
H 	H 	0.05500 0.43220 0.34500 0.13200
H 	H 	0.05190 0.47200 0.36780 0.16900
C 	C 	0.95310 0.47460 0.34570 -0.84700
H 	H 	0.91290 0.47100 0.34560 0.24100
H 	H 	0.96310 0.50890 0.35220 0.24500
H 	H 	0.96720 0.47100 0.32870 0.27300
Zn	Zn	0.89579 0.31104 0.18080 1.17400
O 	O 	0.78832 0.20776 0.21717 -0.35500
O 	O 	0.98241 0.39959 0.23367 -0.38100
O 	O 	0.97990 0.21461 0.13017 -0.29000
O 	O 	0.80263 0.42326 0.14338 -0.37900
N 	N 	0.85478 0.26608 0.20455 -0.31500
N 	N 	0.92892 0.34345 0.21054 -0.31300
N 	N 	0.92639 0.27401 0.15151 -0.29500
N 	N 	0.86384 0.35983 0.15595 -0.31700
N 	N 	0.80830 0.21782 0.17600 -0.32700
H 	H 	0.82880 0.23460 0.16520 0.08200
N 	N 	0.00031 0.38743 0.19231 -0.33300
H 	H 	0.99780 0.36480 0.18010 0.12700
N 	N 	0.97065 0.20936 0.17270 -0.36000
H 	H 	0.96760 0.22870 0.18610 0.11000
N 	N 	0.84096 0.42585 0.18228 -0.34000
H 	H 	0.85880 0.40760 0.19350 0.09200
C 	C 	0.77850 0.18060 0.13774 -0.85500
H 	H 	0.77040 0.21540 0.13120 0.23100
H 	H 	0.81690 0.17160 0.13410 0.24100
H 	H 	0.75400 0.15510 0.12980 0.23500
C 	C 	0.76930 0.17990 0.16587 0.63800
C 	C 	0.71030 0.19640 0.17184 -0.85200
H 	H 	0.70590 0.19970 0.18990 0.24900
H 	H 	0.70240 0.22990 0.16390 0.22600
H 	H 	0.68460 0.17000 0.16560 0.23200
C 	C 	0.77970 0.12590 0.17564 -0.97100
H 	H 	0.77270 0.12510 0.19360 0.34700
H 	H 	0.75500 0.10120 0.16730 0.28200
H 	H 	0.81800 0.11610 0.17240 0.34600
C 	C 	0.81630 0.23000 0.20059 0.27400
C 	C 	0.86890 0.27910 0.22999 -0.06000
H 	H 	0.83510 0.27820 0.24030 0.01900
H 	H 	0.89450 0.25240 0.23660 0.01900
C 	C 	0.89490 0.33130 0.23222 -0.08300
H 	H 	0.91800 0.33220 0.24740 0.04100
H 	H 	0.86580 0.35800 0.23400 0.01700
C 	C 	0.97020 0.37710 0.21364 0.28400
C 	C 	0.03610 0.43300 0.18845 0.66300
C 	C 	0.04980 0.43380 0.16102 -1.01800
H 	H 	0.01580 0.43680 0.15130 0.31300
H 	H 	0.07370 0.46370 0.15740 0.28800
H 	H 	0.06890 0.40150 0.15650 0.38500
C 	C 	0.08930 0.42810 0.20364 -0.91000
H 	H 	0.10990 0.39740 0.19810 0.29800
H 	H 	0.11190 0.45940 0.20120 0.25400
H 	H 	0.08020 0.42450 0.22130 0.26600
C 	C 	0.00690 0.48270 0.19553 -0.81000
H 	H 	0.97230 0.48550 0.18620 0.21600
H 	H 	0.99900 0.48250 0.21340 0.17600
H 	H 	0.03050 0.51260 0.19160 0.18400
C 	C 	0.98610 0.14560 0.20372 -1.22600
H 	H 	0.01280 0.16870 0.21180 0.35200
H 	H 	0.94910 0.15320 0.21000 0.40600
H 	H 	0.99550 0.10930 0.20730 0.45700
C 	C 	0.98760 0.15450 0.17578 0.93500
C 	C 	0.04640 0.14570 0.16651 -1.31700
H 	H 	0.07170 0.16870 0.17550 0.49700
H 	H 	0.05690 0.10930 0.16940 0.40700
H 	H 	0.04830 0.15330 0.14870 0.49700
C 	C 	0.94840 0.11820 0.16253 -1.23100
H 	H 	0.95030 0.12450 0.14460 0.34800
H 	H 	0.95880 0.08200 0.16600 0.45800
H 	H 	0.91080 0.12440 0.16840 0.43500
C 	C 	0.95923 0.23250 0.14977 0.29700
C 	C 	0.91580 0.30350 0.12883 -0.12900
H 	H 	0.94670 0.32770 0.12560 0.13700
H 	H 	0.91260 0.27950 0.11450 0.06700
C 	C 	0.86222 0.33435 0.13187 -0.03000
H 	H 	0.83020 0.31060 0.13090 -0.02900
H 	H 	0.85880 0.36060 0.11850 0.01800
C 	C 	0.83433 0.40323 0.15926 0.26300
C 	C 	0.82110 0.47750 0.18991 0.71500
C 	C 	0.84450 0.48620 0.21591 -0.96500
H 	H 	0.88480 0.48370 0.21530 0.27100
H 	H 	0.83390 0.52080 0.22190 0.30700
H 	H 	0.83000 0.45960 0.22720 0.30500
C 	C 	0.75850 0.47860 0.19083 -1.08000
H 	H 	0.74370 0.46820 0.17460 0.29600
H 	H 	0.74550 0.45440 0.20360 0.39000
H 	H 	0.74600 0.51390 0.19480 0.46700
C 	C 	0.84220 0.52000 0.17254 -0.95600
H 	H 	0.88220 0.51710 0.17090 0.26500
H 	H 	0.82510 0.51590 0.15620 0.28600
H 	H 	0.83270 0.55420 0.17940 0.26700
Zn	Zn	0.86540 0.26566 0.01554 1.17200
O 	O 	0.95946 0.15243 0.05282 -0.36400
O 	O 	0.77801 0.35850 0.06615 -0.37200
O 	O 	0.77282 0.32397 0.46551 -0.61100
O 	O 	0.95443 0.11878 0.47827 -0.38200
N 	N 	0.90233 0.21842 0.03948 -0.31000
N 	N 	0.82894 0.29683 0.04500 -0.31400
N 	N 	0.83122 0.26748 0.48609 -0.33400
N 	N 	0.89491 0.18225 0.49148 -0.31100
N 	N 	0.94987 0.16926 0.01131 -0.31900
H 	H 	0.92860 0.18410 0.00010 0.09000
N 	N 	0.76171 0.34211 0.02478 -0.30700
H 	H 	0.75710 0.31550 0.01470 0.06100
N 	N 	0.79874 0.34040 0.50576 -0.30600
H 	H 	0.80740 0.32500 0.51980 0.07000
N 	N 	0.93423 0.12782 0.51963 -0.32500
H 	H 	0.91920 0.14810 0.53090 0.08100
C 	C 	0.99230 0.14100 0.97371 -0.85700
H 	H 	0.99910 0.17730 0.96890 0.24600
H 	H 	0.02060 0.11860 0.96630 0.23600
H 	H 	0.95590 0.13030 0.96770 0.24600
C 	C 	0.99440 0.13620 0.00203 0.62900
C 	C 	0.98520 0.07980 0.00926 -0.86400
H 	H 	0.98220 0.07710 0.02740 0.25700
H 	H 	0.95100 0.06710 0.00160 0.24000
H 	H 	0.01620 0.05860 0.00350 0.23900
C 	C 	0.05000 0.15450 0.01159 -0.88200
H 	H 	0.05510 0.19140 0.00740 0.28100
H 	H 	0.05140 0.15030 0.02970 0.19600
H 	H 	0.07930 0.13380 0.00390 0.22000
C 	C 	0.93805 0.17950 0.03594 0.28000
C 	C 	0.88135 0.22684 0.06463 -0.07100
H 	H 	0.85180 0.20130 0.06820 0.01400
H 	H 	0.91140 0.22120 0.07680 0.01800
C 	C 	0.85875 0.28192 0.06751 -0.08100
H 	H 	0.88940 0.30650 0.07040 0.01800
H 	H 	0.83370 0.28340 0.08200 0.03000
C 	C 	0.79081 0.33376 0.04681 0.25900
C 	C 	0.73840 0.39241 0.01734 0.53000
C 	C 	0.72110 0.38620 0.99026 -0.70800
H 	H 	0.69390 0.35810 0.98890 0.12500
H 	H 	0.70480 0.41880 0.98430 0.18100
H 	H 	0.75340 0.37760 0.98020 0.17200
C 	C 	0.68830 0.40660 0.03282 -0.76300
H 	H 	0.66020 0.37950 0.03100 0.20100
H 	H 	0.69900 0.40940 0.05030 0.21000
H 	H 	0.67340 0.44000 0.02710 0.20500
C 	C 	0.78280 0.43470 0.01922 -0.80000
H 	H 	0.81480 0.42460 0.00930 0.23500
H 	H 	0.76800 0.46770 0.01290 0.22600
H 	H 	0.79380 0.43900 0.03660 0.24100
C 	C 	0.79780 0.41380 0.53298 -0.68800
H 	H 	0.77570 0.39390 0.54490 0.19500
H 	H 	0.78940 0.45100 0.53460 0.19200
H 	H 	0.83700 0.40800 0.53630 0.20200
C 	C 	0.78420 0.39590 0.50673 0.40900
C 	C 	0.72190 0.40240 0.50187 -0.44100
H 	H 	0.71320 0.39020 0.48510 -0.06700
H 	H 	0.71190 0.43920 0.50340 0.10600
H 	H 	0.70120 0.38180 0.51400 0.04900
C 	C 	0.81720 0.42750 0.48771 -0.65600
H 	H 	0.80920 0.41470 0.47090 0.18300
H 	H 	0.85660 0.42380 0.49110 0.18700
H 	H 	0.80680 0.46430 0.48890 0.18000
C 	C 	0.79991 0.31040 0.48422 0.28100
C 	C 	0.83430 0.23250 0.46485 -0.02800
H 	H 	0.83280 0.25270 0.44920 -0.01400
H 	H 	0.80270 0.20800 0.46510 -0.08200
C 	C 	0.88790 0.20240 0.46632 -0.09100
H 	H 	0.88740 0.17320 0.45430 0.02200
H 	H 	0.91910 0.22560 0.46210 0.01300
C 	C 	0.92860 0.14250 0.49498 0.28800
C 	C 	0.96340 0.08100 0.52839 0.68700
C 	C 	0.95360 0.07950 0.55651 -1.00000
H 	H 	0.96870 0.11110 0.56410 0.34800
H 	H 	0.97190 0.04880 0.56360 0.31800
H 	H 	0.91400 0.07760 0.55980 0.30800
C 	C 	0.02550 0.08510 0.52339 -0.92800
H 	H 	0.03190 0.08810 0.50550 0.25400
H 	H 	0.04410 0.05400 0.52970 0.25500
H 	H 	0.04020 0.11610 0.53180 0.26900
C 	C 	0.94050 0.03180 0.51659 -0.93200
H 	H 	0.94460 0.03380 0.49850 0.27600
H 	H 	0.90140 0.02830 0.52080 0.27000
H 	H 	0.96070 0.00140 0.52280 0.26400
O 	O 	0.72120 0.09110 0.25960 -0.46300
N 	N 	0.64610 0.04900 0.27210 -0.37700
C 	C 	0.70030 0.05160 0.26910 -0.20400
C 	C 	0.73480 0.00280 0.27210 1.49200
H 	H 	0.73650 0.98420 0.25620 -0.46500
H 	H 	0.77220 0.01050 0.27790 -0.22000
H 	H 	0.71590 0.98110 0.28450 -1.05700
C 	C 	0.61300 0.09540 0.26750 -0.53400
H 	H 	0.63320 0.11650 0.25540 0.07300
H 	H 	0.57680 0.08620 0.26060 0.05500
H 	H 	0.60800 0.11530 0.28290 0.16900
C 	C 	0.61510 0.00670 0.28330 -0.17300
H 	H 	0.60500 0.01470 0.30060 0.06100
H 	H 	0.58160 0.00290 0.27330 -0.02300
H 	H 	0.63620 0.97410 0.28280 0.02500
O 	O 	0.70680 0.09770 0.26030 0.17400
N 	N 	0.66240 0.02870 0.27530 0.12000
C 	C 	0.66220 0.07550 0.26470 0.59600
C 	C 	0.61070 0.09340 0.25120 -0.03200
H 	H 	0.61020 0.08370 0.23360 -0.04500
H 	H 	0.58130 0.07480 0.26000 0.06400
H 	H 	0.60480 0.13110 0.25280 0.02100
C 	C 	0.71480 0.00780 0.28400 -0.11700
H 	H 	0.74220 0.02990 0.27580 -0.48300
H 	H 	0.72030 0.00930 0.30210 0.16000
H 	H 	0.71900 0.97170 0.27830 0.64400
C 	C 	0.61940 0.98940 0.27340 0.07900
H 	H 	0.62720 0.96160 0.26140 -0.04500
H 	H 	0.61920 0.97480 0.29030 0.01900
H 	H 	0.58340 0.00480 0.26970 0.02600
O 	O 	0.02370 0.52520 0.26270 2.04600
N 	N 	0.10730 0.56110 0.26402 0.93500
C 	C 	0.05700 0.55790 0.25465 3.78300
C 	C 	0.03970 0.59620 0.23480 -0.36700
H 	H 	0.03630 0.63110 0.24200 0.06100
H 	H 	0.06700 0.59680 0.22140 -0.44100
H 	H 	0.00390 0.58530 0.22800 0.14200
C 	C 	0.12470 0.52450 0.28320 9.27600
H 	H 	0.13830 0.49250 0.27530 -1.23200
H 	H 	0.15430 0.54040 0.29300 -1.18300
H 	H 	0.09360 0.51620 0.29410 -11.53000
C 	C 	0.15200 0.59390 0.25510 0.21000
H 	H 	0.14260 0.60720 0.23850 -0.00300
H 	H 	0.15570 0.62310 0.26670 0.04800
H 	H 	0.18690 0.57470 0.25420 0.15700
O 	O 	0.03350 0.52180 0.26700 -1.96700
N 	N 	0.09460 0.58020 0.25300 -0.96200
C 	C 	0.08000 0.54190 0.26810 -5.00900
C 	C 	0.11690 0.52960 0.29010 6.07600
H 	H 	0.15290 0.51840 0.28380 -5.52300
H 	H 	0.12150 0.56020 0.30080 -1.78300
H 	H 	0.10020 0.50120 0.29970 6.78400
C 	C 	0.05630 0.59920 0.23420 -0.72300
H 	H 	0.05540 0.63740 0.23470 0.28800
H 	H 	0.06800 0.58750 0.21770 0.69500
H 	H 	0.01940 0.58550 0.23780 -0.24100
C 	C 	0.14150 0.61480 0.25660 -0.07200
H 	H 	0.17400 0.59360 0.26030 -0.20700
H 	H 	0.14800 0.63490 0.24140 -0.00300
H 	H 	0.13460 0.63880 0.27050 -0.00100
O 	O 	0.11180 0.18960 0.09760 -2.34200
N 	N 	0.20220 0.20620 0.09787 -1.01000
C 	C 	0.15210 0.21150 0.10723 -3.77700
C 	C 	0.14490 0.24070 0.13150 -0.62100
H 	H 	0.16390 0.22050 0.14430 4.89500
H 	H 	0.16130 0.27550 0.13040 14.60000
H 	H 	0.10580 0.24390 0.13580 2.80100
C 	C 	0.21010 0.17690 0.07490 -2.18100
H 	H 	0.22280 0.20110 0.06210 1.37600
H 	H 	0.23720 0.14890 0.07700 0.18200
H 	H 	0.17460 0.16190 0.07000 0.21500
C 	C 	0.25110 0.23500 0.10540 -0.24700
H 	H 	0.27270 0.21330 0.11680 -1.27200
H 	H 	0.27330 0.24330 0.09070 -0.12800
H 	H 	0.24050 0.26740 0.11380 0.55300
O 	O 	0.11660 0.19130 0.09067 2.06600
N 	N 	0.18890 0.21780 0.11319 -0.16900
C 	C 	0.16700 0.19860 0.09259 3.88600
C 	C 	0.20350 0.19130 0.06999 -1.54200
H 	H 	0.20720 0.22430 0.06100 -0.68300
H 	H 	0.23990 0.17960 0.07550 1.02100
H 	H 	0.18730 0.16500 0.05900 0.46000
C 	C 	0.15350 0.23060 0.13419 7.27400
H 	H 	0.11860 0.21170 0.13250 -2.48700
H 	H 	0.17120 0.22110 0.14990 -7.05000
H 	H 	0.14630 0.26820 0.13400 -16.80900
C 	C 	0.24480 0.23750 0.11614 -0.51400
H 	H 	0.24760 0.27140 0.10780 -0.77000
H 	H 	0.25320 0.24150 0.13390 0.05200
H 	H 	0.27100 0.21310 0.10860 1.55200
O 	O 	0.05814 0.07050 0.09687 -0.45000
N 	N 	0.12740 0.02800 0.07834 -0.07600
C 	C 	0.10690 0.05570 0.09689 0.33100
C 	C 	0.14370 0.06820 0.11880 -0.10400
H 	H 	0.12190 0.08520 0.13180 -0.10300
H 	H 	0.15850 0.03530 0.12520 -0.96400
H 	H 	0.17410 0.09100 0.11390 0.07000
C 	C 	0.09400 0.01640 0.05654 -0.50500
H 	H 	0.11420 0.02610 0.04150 0.28100
H 	H 	0.08540 0.97910 0.05600 0.62900
H 	H 	0.05980 0.03650 0.05750 0.16200
C 	C 	0.18160 0.00370 0.07790 -0.11100
H 	H 	0.18230 0.97290 0.08860 0.06400
H 	H 	0.19020 0.99350 0.06080 0.03600
H 	H 	0.20910 0.02890 0.08370 0.06700
O 	O 	0.05460 0.06620 0.08640 0.02600
N 	N 	0.14170 0.03950 0.09120 -0.12200
C 	C 	0.09450 0.04040 0.07880 0.11400
C 	C 	0.08660 0.00290 0.05730 -0.10000
H 	H 	0.04820 0.00310 0.05170 -0.07100
H 	H 	0.11030 0.01670 0.04410 -0.13000
H 	H 	0.09770 0.96710 0.06120 -0.42000
C 	C 	0.14670 0.06700 0.11470 -0.50400
H 	H 	0.11650 0.09230 0.11590 0.22100
H 	H 	0.14560 0.04370 0.12920 1.17100
H 	H 	0.18200 0.08560 0.11450 0.13700
C 	C 	0.19110 0.01080 0.08440 -0.02900
H 	H 	0.20540 0.02210 0.06820 0.01300
H 	H 	0.21950 0.01560 0.09710 0.01500
H 	H 	0.18090 0.97390 0.08350 0.00800
O 	O 	0.64639 0.32860 0.41660 -4.11000
N 	N 	0.57652 0.29710 0.43915 -5.88800
C 	C 	0.59720 0.31530 0.41811 -22.92200
C 	C 	0.55920 0.32380 0.39617 1.29400
H 	H 	0.57980 0.33930 0.38240 -1.19400
H 	H 	0.52900 0.34720 0.40100 1.28700
H 	H 	0.54390 0.29020 0.39100 -0.31500
C 	C 	0.61240 0.28860 0.46048 -11.52100
H 	H 	0.62170 0.25160 0.46190 1.35000
H 	H 	0.59360 0.30010 0.47560 -4.44800
H 	H 	0.64620 0.30890 0.45820 2.15600
C 	C 	0.52040 0.27920 0.44329 -1.52500
H 	H 	0.50360 0.29940 0.45680 0.42000
H 	H 	0.52090 0.24220 0.44780 -0.58100
H 	H 	0.49880 0.28390 0.42800 0.24100
O 	O 	0.65330 0.18080 0.91690 2.91900
N 	N 	0.56410 0.19600 0.92460 8.79700
C 	C 	0.61650 0.19490 0.93150 22.14900
C 	C 	0.63170 0.21430 0.95720 -7.65500
H 	H 	0.62010 0.25080 0.95850 3.47500
H 	H 	0.61280 0.19370 0.96990 11.52200
H 	H 	0.67160 0.21190 0.95960 0.89800
C 	C 	0.54860 0.17900 0.89970 3.37000
H 	H 	0.57880 0.15790 0.89300 1.50800
H 	H 	0.51530 0.15760 0.90090 -2.72000
H 	H 	0.54160 0.20860 0.88860 -0.67800
C 	C 	0.51970 0.22280 0.93750 -0.78000
H 	H 	0.53360 0.23820 0.95300 1.93900
H 	H 	0.50510 0.25040 0.92670 0.27200
H 	H 	0.49020 0.19790 0.94140 0.40100
O 	O 	0.69350 0.46280 0.43242 -0.45700
N 	N 	0.61520 0.50410 0.42244 -0.38900
C 	C 	0.66080 0.49930 0.43573 -0.63200
C 	C 	0.67010 0.53670 0.45712 -0.18200
H 	H 	0.69790 0.52240 0.46840 -0.02600
H 	H 	0.63530 0.54130 0.46610 0.08200
H 	H 	0.68270 0.57040 0.45080 0.08900
C 	C 	0.60540 0.46990 0.40131 -0.88700
H 	H 	0.63640 0.44570 0.39960 0.15700
H 	H 	0.60190 0.49070 0.38610 -0.09300
H 	H 	0.57140 0.45010 0.40400 0.30700
C 	C 	0.57540 0.54630 0.42440 0.24800
H 	H 	0.57640 0.55830 0.44170 -0.70000
H 	H 	0.53910 0.53120 0.42090 -0.12000
H 	H 	0.58210 0.57570 0.41320 -0.46100
O 	O 	0.69630 0.03370 0.92560 0.02900
N 	N 	0.63150 0.97400 0.93330 0.11600
C 	C 	0.64940 0.01620 0.92160 1.13900
C 	C 	0.60940 0.04700 0.90580 -0.51500
H 	H 	0.61030 0.03370 0.88870 0.61700
H 	H 	0.57210 0.04320 0.91250 0.17400
H 	H 	0.61980 0.08390 0.90580 0.43800
C 	C 	0.66920 0.94380 0.94860 -0.06800
H 	H 	0.69830 0.96700 0.95460 0.17700
H 	H 	0.64910 0.92920 0.96280 0.01600
H 	H 	0.68560 0.91540 0.93890 -0.05400
C 	C 	0.57840 0.94880 0.92960 0.15000
H 	H 	0.58850 0.91750 0.92020 0.37400
H 	H 	0.55870 0.93860 0.94480 0.52400
H 	H 	0.55450 0.97100 0.91940 0.03000
O 	O 	0.05930 0.05840 0.42430 -0.24100
N 	N 	0.12540 0.00740 0.40822 -0.26200
C 	C 	0.10720 0.04150 0.42477 -0.15300
C 	C 	0.14620 0.05980 0.44493 0.00500
H 	H 	0.12640 0.08180 0.45680 -0.13000
H 	H 	0.17660 0.07970 0.43750 -0.16700
H 	H 	0.16110 0.02930 0.45360 -0.01000
C 	C 	0.08840 0.98550 0.38970 -0.26100
H 	H 	0.05350 0.00480 0.39020 0.08000
H 	H 	0.08140 0.94850 0.39290 0.33700
H 	H 	0.10520 0.98940 0.37320 0.11500
C 	C 	0.17940 0.98250 0.40872 -0.09900
H 	H 	0.20610 0.00580 0.41670 0.05100
H 	H 	0.19130 0.97500 0.39170 0.13200
H 	H 	0.17710 0.94990 0.41820 0.03400
O 	O 	0.05550 0.45150 0.92100 -0.09600
N 	N 	0.14360 0.47690 0.91919 0.00900
C 	C 	0.09210 0.47810 0.91100 0.48100
C 	C 	0.07730 0.51500 0.89010 -0.07800
H 	H 	0.03760 0.52200 0.89000 -0.02000
H 	H 	0.09750 0.54770 0.89270 -0.21100
H 	H 	0.08810 0.49980 0.87410 -0.00000
C 	C 	0.15830 0.44380 0.94010 -0.17200
H 	H 	0.12590 0.43990 0.95090 0.14800
H 	H 	0.16970 0.40940 0.93400 0.21000
H 	H 	0.18850 0.45940 0.94960 0.06100
C 	C 	0.19070 0.50300 0.90800 0.01300
H 	H 	0.18030 0.51740 0.89180 -0.09300
H 	H 	0.20250 0.53130 0.91910 -0.02200
H 	H 	0.22100 0.47820 0.90590 -0.04300
K 	K 	0.25770 0.31321 0.73842 0.64600
K 	K 	0.52569 0.07739 0.72610 0.65000
K 	K 	0.51395 0.33873 0.90638 0.66100
K 	K 	0.24088 0.12006 0.89057 0.61000
K 	K 	0.23944 0.12749 0.57245 0.54900
K 	K 	0.51300 0.35867 0.55930 0.62900
Zn	Zn	0.40059 0.23129 0.65014 1.17400
O 	O 	0.47918 0.33637 0.60206 -0.36300
O 	O 	0.30229 0.12687 0.60988 -0.40400
O 	O 	0.32577 0.32787 0.70294 -0.34200
O 	O 	0.49736 0.11740 0.68544 -0.38900
N 	N 	0.42930 0.27263 0.62181 -0.31500
N 	N 	0.35661 0.19326 0.62471 -0.30100
N 	N 	0.38162 0.27312 0.68009 -0.30800
N 	N 	0.43955 0.18415 0.67354 -0.31400
N 	N 	0.48968 0.32260 0.64399 -0.31800
H 	H 	0.48570 0.29940 0.65590 0.07800
N 	N 	0.29760 0.15060 0.65023 -0.36000
H 	H 	0.30700 0.17490 0.66090 0.08500
N 	N 	0.33879 0.34164 0.66134 -0.33000
H 	H 	0.35250 0.32860 0.64750 0.11000
N 	N 	0.46177 0.11992 0.64604 -0.31600
H 	H 	0.44690 0.14040 0.63480 0.08500
C 	C 	0.53370 0.36620 0.67752 -0.83800
H 	H 	0.55720 0.33580 0.68070 0.23100
H 	H 	0.55290 0.39790 0.68280 0.22500
H 	H 	0.49920 0.36260 0.68680 0.23100
C 	C 	0.52113 0.36965 0.64990 0.59700
C 	C 	0.48740 0.41850 0.64437 -0.85900
H 	H 	0.47790 0.41940 0.62670 0.27900
H 	H 	0.45350 0.41800 0.65430 0.23400
H 	H 	0.50900 0.44950 0.64860 0.24200
C 	C 	0.57500 0.37170 0.63522 -0.83200
H 	H 	0.59520 0.33910 0.63750 0.22900
H 	H 	0.56680 0.37660 0.61750 0.24900
H 	H 	0.59740 0.40090 0.64120 0.23500
C 	C 	0.46556 0.31140 0.62120 0.26600
C 	C 	0.40166 0.25795 0.59873 -0.05500
H 	H 	0.37080 0.28230 0.59550 0.00100
H 	H 	0.42790 0.26070 0.58470 0.01800
C 	C 	0.37962 0.20268 0.60016 -0.07300
H 	H 	0.40980 0.17760 0.59690 0.01400
H 	H 	0.35080 0.19760 0.58740 0.02300
C 	C 	0.31907 0.15540 0.62675 0.24300
C 	C 	0.26140 0.11040 0.65946 0.61900
C 	C 	0.25240 0.12050 0.68695 -0.90800
H 	H 	0.23510 0.15470 0.68920 0.29100
H 	H 	0.22840 0.09340 0.69390 0.27400
H 	H 	0.28800 0.11990 0.69560 0.27000
C 	C 	0.28830 0.05830 0.65625 -0.91500
H 	H 	0.29540 0.05210 0.63860 0.29500
H 	H 	0.32320 0.05770 0.66540 0.27500
H 	H 	0.26390 0.03100 0.66270 0.26400
C 	C 	0.20740 0.11060 0.64630 -0.73000
H 	H 	0.19130 0.14550 0.64720 0.05300
H 	H 	0.21300 0.10080 0.62890 0.18000
H 	H 	0.18260 0.08550 0.65420 0.22900
C 	C 	0.31380 0.40840 0.63233 -0.99200
H 	H 	0.29690 0.38240 0.62140 0.29300
H 	H 	0.29510 0.44190 0.63010 0.29000
H 	H 	0.35280 0.41210 0.62810 0.29700
C 	C 	0.30820 0.39100 0.65934 0.74000
C 	C 	0.24710 0.38230 0.66547 -1.11000
H 	H 	0.24350 0.37090 0.68280 0.39800
H 	H 	0.22680 0.41500 0.66310 0.33900
H 	H 	0.23190 0.35560 0.65440 0.47200
C 	C 	0.33160 0.43240 0.67643 -0.97700
H 	H 	0.32830 0.42090 0.69370 0.30700
H 	H 	0.37050 0.43820 0.67240 0.25800
H 	H 	0.31100 0.46490 0.67420 0.27800
C 	C 	0.34800 0.31380 0.68300 0.28800
C 	C 	0.39350 0.24250 0.70243 -0.08100
H 	H 	0.40000 0.26600 0.71670 0.03600
H 	H 	0.36170 0.21980 0.70640 0.02200
C 	C 	0.44450 0.20940 0.69763 -0.06400
H 	H 	0.44830 0.18270 0.71080 0.02700
H 	H 	0.47780 0.23170 0.69790 0.00600
C 	C 	0.46733 0.14020 0.66966 0.27100
C 	C 	0.47820 0.06760 0.63791 0.57000
C 	C 	0.45730 0.06170 0.61143 -0.87300
H 	H 	0.41720 0.06550 0.61120 0.28300
H 	H 	0.47410 0.08860 0.60090 0.25000
H 	H 	0.46740 0.02720 0.60510 0.27300
C 	C 	0.54130 0.06270 0.63808 -0.69300
H 	H 	0.55730 0.08920 0.62710 0.16900
H 	H 	0.55500 0.06780 0.65500 0.13200
H 	H 	0.55190 0.02800 0.63220 0.16900
C 	C 	0.45310 0.02540 0.65430 -0.84000
H 	H 	0.41290 0.02900 0.65440 0.24000
H 	H 	0.46310 0.99110 0.64780 0.24200
H 	H 	0.46720 0.02900 0.67130 0.27200
Zn	Zn	0.39579 0.18896 0.81920 1.17400
O 	O 	0.28832 0.29224 0.78283 -0.35500
O 	O 	0.48241 0.10041 0.76633 -0.38100
O 	O 	0.47990 0.28539 0.86983 -0.29000
O 	O 	0.30263 0.07674 0.85662 -0.37800
N 	N 	0.35478 0.23392 0.79545 -0.31500
N 	N 	0.42892 0.15655 0.78946 -0.31300
N 	N 	0.42639 0.22599 0.84849 -0.29400
N 	N 	0.36384 0.14017 0.84405 -0.31700
N 	N 	0.30830 0.28218 0.82400 -0.32700
H 	H 	0.32880 0.26540 0.83480 0.08200
N 	N 	0.50031 0.11257 0.80769 -0.33300
H 	H 	0.49780 0.13520 0.81990 0.12700
N 	N 	0.47065 0.29064 0.82730 -0.36000
H 	H 	0.46760 0.27130 0.81390 0.11000
N 	N 	0.34096 0.07415 0.81772 -0.33900
H 	H 	0.35880 0.09240 0.80650 0.09200
C 	C 	0.27850 0.31940 0.86226 -0.85500
H 	H 	0.27040 0.28460 0.86880 0.23100
H 	H 	0.31690 0.32840 0.86590 0.24100
H 	H 	0.25400 0.34490 0.87020 0.23500
C 	C 	0.26930 0.32010 0.83413 0.63800
C 	C 	0.21030 0.30360 0.82816 -0.85300
H 	H 	0.20590 0.30030 0.81010 0.24900
H 	H 	0.20240 0.27010 0.83610 0.22600
H 	H 	0.18460 0.33000 0.83440 0.23200
C 	C 	0.27970 0.37410 0.82436 -0.97000
H 	H 	0.27270 0.37490 0.80640 0.34600
H 	H 	0.25500 0.39880 0.83270 0.28200
H 	H 	0.31800 0.38390 0.82760 0.34600
C 	C 	0.31630 0.27000 0.79941 0.27400
C 	C 	0.36890 0.22090 0.77001 -0.06000
H 	H 	0.33510 0.22180 0.75970 0.01900
H 	H 	0.39450 0.24760 0.76340 0.01900
C 	C 	0.39490 0.16870 0.76778 -0.08300
H 	H 	0.41800 0.16780 0.75260 0.04100
H 	H 	0.36580 0.14200 0.76600 0.01700
C 	C 	0.47020 0.12290 0.78636 0.28400
C 	C 	0.53610 0.06700 0.81155 0.66100
C 	C 	0.54980 0.06620 0.83898 -1.01600
H 	H 	0.51580 0.06320 0.84870 0.31300
H 	H 	0.57370 0.03630 0.84260 0.28800
H 	H 	0.56890 0.09850 0.84350 0.38500
C 	C 	0.58930 0.07190 0.79636 -0.90900
H 	H 	0.60990 0.10260 0.80190 0.29800
H 	H 	0.61190 0.04060 0.79880 0.25500
H 	H 	0.58020 0.07550 0.77870 0.26600
C 	C 	0.50690 0.01730 0.80447 -0.80100
H 	H 	0.47230 0.01450 0.81380 0.21400
H 	H 	0.49900 0.01750 0.78660 0.17400
H 	H 	0.53050 0.98740 0.80840 0.18000
C 	C 	0.48610 0.35440 0.79628 -1.22400
H 	H 	0.51280 0.33130 0.78820 0.35100
H 	H 	0.44910 0.34680 0.79000 0.40600
H 	H 	0.49550 0.39070 0.79270 0.45600
C 	C 	0.48760 0.34550 0.82422 0.93400
C 	C 	0.54640 0.35430 0.83349 -1.31700
H 	H 	0.57170 0.33130 0.82450 0.49700
H 	H 	0.55690 0.39070 0.83060 0.40700
H 	H 	0.54830 0.34670 0.85130 0.49700
C 	C 	0.44840 0.38180 0.83747 -1.23000
H 	H 	0.45030 0.37550 0.85540 0.34800
H 	H 	0.45880 0.41800 0.83400 0.45700
H 	H 	0.41080 0.37560 0.83160 0.43400
C 	C 	0.45923 0.26750 0.85023 0.29700
C 	C 	0.41580 0.19650 0.87117 -0.12900
H 	H 	0.44670 0.17230 0.87440 0.13700
H 	H 	0.41260 0.22050 0.88550 0.06700
C 	C 	0.36222 0.16565 0.86813 -0.03000
H 	H 	0.33020 0.18940 0.86910 -0.02900
H 	H 	0.35880 0.13940 0.88150 0.01800
C 	C 	0.33433 0.09677 0.84074 0.26300
C 	C 	0.32110 0.02250 0.81009 0.71200
C 	C 	0.34450 0.01380 0.78409 -0.95300
H 	H 	0.38480 0.01630 0.78470 0.26800
H 	H 	0.33390 0.97920 0.77810 0.30200
H 	H 	0.33000 0.04040 0.77280 0.30200
C 	C 	0.25850 0.02140 0.80917 -1.07000
H 	H 	0.24370 0.03180 0.82540 0.29300
H 	H 	0.24550 0.04560 0.79640 0.38800
H 	H 	0.24600 0.98610 0.80520 0.46300
C 	C 	0.34220 0.98000 0.82746 -0.95500
H 	H 	0.38220 0.98290 0.82910 0.26400
H 	H 	0.32510 0.98410 0.84380 0.28500
H 	H 	0.33270 0.94580 0.82060 0.26600
Zn	Zn	0.36540 0.23434 0.98446 1.17200
O 	O 	0.45946 0.34757 0.94718 -0.36400
O 	O 	0.27801 0.14150 0.93385 -0.37200
O 	O 	0.27282 0.17603 0.53449 -0.61100
O 	O 	0.45443 0.38122 0.52173 -0.38200
N 	N 	0.40233 0.28158 0.96052 -0.31000
N 	N 	0.32894 0.20317 0.95500 -0.31400
N 	N 	0.33122 0.23252 0.51391 -0.33400
N 	N 	0.39491 0.31775 0.50852 -0.31100
N 	N 	0.44987 0.33074 0.98869 -0.31900
H 	H 	0.42860 0.31590 0.99990 0.09000
N 	N 	0.26171 0.15789 0.97522 -0.30700
H 	H 	0.25710 0.18450 0.98530 0.06100
N 	N 	0.29874 0.15960 0.49424 -0.30600
H 	H 	0.30740 0.17500 0.48020 0.07000
N 	N 	0.43423 0.37218 0.48037 -0.32500
H 	H 	0.41920 0.35190 0.46910 0.08100
C 	C 	0.49230 0.35900 0.02629 -0.85500
H 	H 	0.49910 0.32270 0.03110 0.24500
H 	H 	0.52060 0.38140 0.03370 0.23500
H 	H 	0.45590 0.36970 0.03230 0.24500
C 	C 	0.49440 0.36380 0.99797 0.62900
C 	C 	0.48520 0.42020 0.99074 -0.86200
H 	H 	0.48220 0.42290 0.97260 0.25700
H 	H 	0.45100 0.43290 0.99840 0.23900
H 	H 	0.51620 0.44140 0.99650 0.23800
C 	C 	0.55000 0.34550 0.98841 -0.88200
H 	H 	0.55510 0.30860 0.99260 0.28100
H 	H 	0.55140 0.34970 0.97030 0.19600
H 	H 	0.57930 0.36620 0.99610 0.22000
C 	C 	0.43805 0.32050 0.96406 0.28000
C 	C 	0.38135 0.27316 0.93537 -0.07100
H 	H 	0.35180 0.29870 0.93180 0.01400
H 	H 	0.41140 0.27880 0.92320 0.01800
C 	C 	0.35875 0.21808 0.93249 -0.08100
H 	H 	0.38940 0.19350 0.92960 0.01800
H 	H 	0.33370 0.21660 0.91800 0.03000
C 	C 	0.29081 0.16624 0.95319 0.25900
C 	C 	0.23840 0.10759 0.98266 0.53100
C 	C 	0.22110 0.11380 0.00974 -0.70800
H 	H 	0.19390 0.14190 0.01110 0.12500
H 	H 	0.20480 0.08120 0.01570 0.18100
H 	H 	0.25340 0.12240 0.01980 0.17200
C 	C 	0.18830 0.09340 0.96718 -0.76400
H 	H 	0.16020 0.12050 0.96900 0.20100
H 	H 	0.19900 0.09060 0.94970 0.21000
H 	H 	0.17340 0.06000 0.97290 0.20500
C 	C 	0.28280 0.06530 0.98078 -0.80100
H 	H 	0.31480 0.07540 0.99070 0.23500
H 	H 	0.26800 0.03230 0.98710 0.22700
H 	H 	0.29380 0.06100 0.96340 0.24200
C 	C 	0.29780 0.08620 0.46702 -0.68900
H 	H 	0.27570 0.10610 0.45510 0.19500
H 	H 	0.28940 0.04900 0.46540 0.19200
H 	H 	0.33700 0.09200 0.46370 0.20200
C 	C 	0.28420 0.10410 0.49327 0.40900
C 	C 	0.22190 0.09760 0.49813 -0.44200
H 	H 	0.21320 0.10980 0.51490 -0.06600
H 	H 	0.21190 0.06080 0.49660 0.10600
H 	H 	0.20120 0.11820 0.48600 0.04900
C 	C 	0.31720 0.07250 0.51229 -0.65600
H 	H 	0.30920 0.08530 0.52910 0.18400
H 	H 	0.35660 0.07620 0.50890 0.18700
H 	H 	0.30680 0.03570 0.51110 0.18100
C 	C 	0.29991 0.18960 0.51578 0.28100
C 	C 	0.33430 0.26750 0.53515 -0.02800
H 	H 	0.33280 0.24730 0.55080 -0.01400
H 	H 	0.30270 0.29200 0.53490 -0.08200
C 	C 	0.38790 0.29760 0.53368 -0.09100
H 	H 	0.38740 0.32680 0.54570 0.02200
H 	H 	0.41910 0.27440 0.53790 0.01300
C 	C 	0.42860 0.35750 0.50502 0.28800
C 	C 	0.46340 0.41900 0.47161 0.68800
C 	C 	0.45360 0.42050 0.44349 -1.00000
H 	H 	0.46870 0.38890 0.43590 0.34800
H 	H 	0.47190 0.45120 0.43640 0.31800
H 	H 	0.41400 0.42240 0.44020 0.30800
C 	C 	0.52550 0.41490 0.47661 -0.92900
H 	H 	0.53190 0.41190 0.49450 0.25400
H 	H 	0.54410 0.44600 0.47030 0.25500
H 	H 	0.54020 0.38390 0.46820 0.26900
C 	C 	0.44050 0.46820 0.48341 -0.93300
H 	H 	0.44460 0.46620 0.50150 0.27600
H 	H 	0.40140 0.47170 0.47920 0.27000
H 	H 	0.46070 0.49860 0.47720 0.26400
O 	O 	0.22120 0.40890 0.74040 -0.46100
N 	N 	0.14610 0.45100 0.72790 -0.37500
C 	C 	0.20030 0.44840 0.73090 -0.20100
C 	C 	0.23480 0.49720 0.72790 1.43700
H 	H 	0.23650 0.51580 0.74380 -0.44800
H 	H 	0.27220 0.48950 0.72210 -0.21200
H 	H 	0.21590 0.51890 0.71550 -1.02000
C 	C 	0.11300 0.40460 0.73250 -0.53500
H 	H 	0.13320 0.38350 0.74460 0.07300
H 	H 	0.07680 0.41380 0.73940 0.05600
H 	H 	0.10800 0.38470 0.71710 0.16900
C 	C 	0.11510 0.49330 0.71670 -0.18100
H 	H 	0.10500 0.48530 0.69940 0.06400
H 	H 	0.08160 0.49710 0.72670 -0.02400
H 	H 	0.13620 0.52590 0.71720 0.02000
O 	O 	0.20680 0.40230 0.73970 0.17000
N 	N 	0.16240 0.47130 0.72470 0.12100
C 	C 	0.16220 0.42450 0.73530 0.59400
C 	C 	0.11070 0.40660 0.74880 -0.03100
H 	H 	0.11020 0.41630 0.76640 -0.04600
H 	H 	0.08130 0.42520 0.74000 0.06400
H 	H 	0.10480 0.36890 0.74720 0.02100
C 	C 	0.21480 0.49220 0.71600 -0.11500
H 	H 	0.24220 0.47010 0.72420 -0.46200
H 	H 	0.22030 0.49070 0.69790 0.15600
H 	H 	0.21900 0.52830 0.72170 0.62100
C 	C 	0.11940 0.51060 0.72660 0.08900
H 	H 	0.12720 0.53840 0.73860 -0.04800
H 	H 	0.11920 0.52520 0.70970 0.02100
H 	H 	0.08340 0.49520 0.73030 0.02700
O 	O 	0.52370 0.97480 0.73730 2.05800
N 	N 	0.60730 0.93890 0.73598 0.94200
C 	C 	0.55700 0.94210 0.74535 3.80500
C 	C 	0.53970 0.90380 0.76520 -0.36900
H 	H 	0.53630 0.86890 0.75800 0.06100
H 	H 	0.56700 0.90320 0.77860 -0.44300
H 	H 	0.50390 0.91470 0.77200 0.14300
C 	C 	0.62470 0.97550 0.71680 9.32600
H 	H 	0.63830 0.00750 0.72470 -1.23600
H 	H 	0.65430 0.95960 0.70700 -1.18800
H 	H 	0.59360 0.98380 0.70590 -11.59100
C 	C 	0.65200 0.90610 0.74490 0.21300
H 	H 	0.64260 0.89280 0.76150 -0.00400
H 	H 	0.65570 0.87690 0.73330 0.04800
H 	H 	0.68690 0.92530 0.74580 0.15900
O 	O 	0.53350 0.97820 0.73300 -1.97800
N 	N 	0.59460 0.91980 0.74700 -0.96800
C 	C 	0.58000 0.95810 0.73190 -5.04000
C 	C 	0.61690 0.97040 0.70990 6.10800
H 	H 	0.65290 0.98160 0.71620 -5.55600
H 	H 	0.62150 0.93980 0.69920 -1.79300
H 	H 	0.60020 0.99880 0.70030 6.81900
C 	C 	0.55630 0.90080 0.76580 -0.72500
H 	H 	0.55540 0.86260 0.76530 0.28900
H 	H 	0.56800 0.91250 0.78230 0.69800
H 	H 	0.51940 0.91450 0.76220 -0.24400
C 	C 	0.64150 0.88520 0.74340 -0.07000
H 	H 	0.67400 0.90640 0.73970 -0.21000
H 	H 	0.64800 0.86510 0.75860 -0.00300
H 	H 	0.63460 0.86120 0.72950 -0.00100
O 	O 	0.61180 0.31040 0.90240 -2.34400
N 	N 	0.70220 0.29380 0.90213 -1.01100
C 	C 	0.65210 0.28850 0.89277 -3.77900
C 	C 	0.64490 0.25930 0.86850 -0.62100
H 	H 	0.66390 0.27950 0.85570 4.89800
H 	H 	0.66130 0.22450 0.86960 14.60800
H 	H 	0.60580 0.25610 0.86420 2.80300
C 	C 	0.71010 0.32310 0.92510 -2.18200
H 	H 	0.72280 0.29890 0.93790 1.37600
H 	H 	0.73720 0.35110 0.92300 0.18200
H 	H 	0.67460 0.33810 0.93000 0.21500
C 	C 	0.75110 0.26500 0.89460 -0.24800
H 	H 	0.77270 0.28670 0.88320 -1.27200
H 	H 	0.77330 0.25670 0.90930 -0.12800
H 	H 	0.74050 0.23260 0.88620 0.55300
O 	O 	0.61660 0.30870 0.90933 2.06700
N 	N 	0.68890 0.28220 0.88681 -0.16800
C 	C 	0.66700 0.30140 0.90741 3.88800
C 	C 	0.70350 0.30870 0.93001 -1.54200
H 	H 	0.70720 0.27570 0.93900 -0.68300
H 	H 	0.73990 0.32040 0.92450 1.02200
H 	H 	0.68730 0.33500 0.94100 0.46000
C 	C 	0.65350 0.26940 0.86581 7.27800
H 	H 	0.61860 0.28830 0.86750 -2.48800
H 	H 	0.67120 0.27890 0.85010 -7.05400
H 	H 	0.64630 0.23180 0.86600 -16.81800
C 	C 	0.74480 0.26250 0.88386 -0.51500
H 	H 	0.74760 0.22860 0.89220 -0.77000
H 	H 	0.75320 0.25850 0.86610 0.05200
H 	H 	0.77100 0.28690 0.89140 1.55300
O 	O 	0.55814 0.42950 0.90313 -0.44900
N 	N 	0.62740 0.47200 0.92166 -0.07600
C 	C 	0.60690 0.44430 0.90311 0.33100
C 	C 	0.64370 0.43180 0.88120 -0.10500
H 	H 	0.62190 0.41480 0.86820 -0.10200
H 	H 	0.65850 0.46470 0.87480 -0.95800
H 	H 	0.67410 0.40900 0.88610 0.07000
C 	C 	0.59400 0.48360 0.94346 -0.50300
H 	H 	0.61420 0.47390 0.95850 0.28000
H 	H 	0.58540 0.52090 0.94400 0.62600
H 	H 	0.55980 0.46350 0.94250 0.16100
C 	C 	0.68160 0.49630 0.92210 -0.10900
H 	H 	0.68230 0.52710 0.91140 0.06300
H 	H 	0.69020 0.50650 0.93920 0.03500
H 	H 	0.70910 0.47110 0.91630 0.06500
O 	O 	0.55460 0.43380 0.91360 0.02500
N 	N 	0.64170 0.46050 0.90880 -0.12300
C 	C 	0.59450 0.45960 0.92120 0.11400
C 	C 	0.58660 0.49710 0.94270 -0.09900
H 	H 	0.54820 0.49690 0.94830 -0.07100
H 	H 	0.61030 0.48330 0.95590 -0.13000
H 	H 	0.59770 0.53290 0.93880 -0.41800
C 	C 	0.64670 0.43300 0.88530 -0.50300
H 	H 	0.61650 0.40770 0.88410 0.22000
H 	H 	0.64560 0.45630 0.87080 1.16400
H 	H 	0.68200 0.41440 0.88550 0.13600
C 	C 	0.69110 0.48920 0.91560 -0.02700
H 	H 	0.70540 0.47790 0.93180 0.01300
H 	H 	0.71950 0.48440 0.90290 0.01500
H 	H 	0.68090 0.52610 0.91650 0.00700
O 	O 	0.14639 0.17140 0.58340 -4.10400
N 	N 	0.07652 0.20290 0.56085 -5.88000
C 	C 	0.09720 0.18470 0.58189 -22.89000
C 	C 	0.05920 0.17620 0.60383 1.29200
H 	H 	0.07980 0.16070 0.61760 -1.19200
H 	H 	0.02900 0.15280 0.59900 1.28500
H 	H 	0.04390 0.20980 0.60900 -0.31400
C 	C 	0.11240 0.21140 0.53952 -11.50600
H 	H 	0.12170 0.24840 0.53810 1.34800
H 	H 	0.09360 0.19990 0.52440 -4.44200
H 	H 	0.14620 0.19110 0.54180 2.15300
C 	C 	0.02040 0.22080 0.55671 -1.52200
H 	H 	0.00360 0.20060 0.54320 0.41900
H 	H 	0.02090 0.25780 0.55220 -0.58000
H 	H 	0.99880 0.21610 0.57200 0.24000
O 	O 	0.15330 0.31920 0.08310 2.91800
N 	N 	0.06410 0.30400 0.07540 8.79500
C 	C 	0.11650 0.30510 0.06850 22.14400
C 	C 	0.13170 0.28570 0.04280 -7.65300
H 	H 	0.12010 0.24920 0.04150 3.47400
H 	H 	0.11280 0.30630 0.03010 11.51900
H 	H 	0.17160 0.28810 0.04040 0.89800
C 	C 	0.04860 0.32100 0.10030 3.36900
H 	H 	0.07880 0.34210 0.10700 1.50800
H 	H 	0.01530 0.34240 0.09910 -2.71900
H 	H 	0.04160 0.29140 0.11140 -0.67800
C 	C 	0.01970 0.27720 0.06250 -0.77900
H 	H 	0.03360 0.26180 0.04700 1.93800
H 	H 	0.00510 0.24960 0.07330 0.27200
H 	H 	0.99020 0.30210 0.05860 0.40100
O 	O 	0.19350 0.03720 0.56758 -0.45900
N 	N 	0.11520 0.99590 0.57756 -0.39100
C 	C 	0.16080 0.00070 0.56427 -0.63400
C 	C 	0.17010 0.96330 0.54288 -0.17800
H 	H 	0.19790 0.97760 0.53160 -0.02600
H 	H 	0.13530 0.95870 0.53390 0.08000
H 	H 	0.18270 0.92960 0.54920 0.08600
C 	C 	0.10540 0.03010 0.59869 -0.88800
H 	H 	0.13640 0.05430 0.60040 0.15700
H 	H 	0.10190 0.00930 0.61390 -0.09200
H 	H 	0.07140 0.04990 0.59600 0.30700
C 	C 	0.07540 0.95370 0.57560 0.24700
H 	H 	0.07640 0.94170 0.55830 -0.69500
H 	H 	0.03910 0.96880 0.57910 -0.11800
H 	H 	0.08210 0.92430 0.58680 -0.45800
O 	O 	0.19630 0.46630 0.07440 0.02900
N 	N 	0.13150 0.52600 0.06670 0.11600
C 	C 	0.14940 0.48380 0.07840 1.13700
C 	C 	0.10940 0.45300 0.09420 -0.51500
H 	H 	0.11030 0.46630 0.11130 0.61700
H 	H 	0.07210 0.45680 0.08750 0.17400
H 	H 	0.11980 0.41610 0.09420 0.43800
C 	C 	0.16920 0.55620 0.05140 -0.06900
H 	H 	0.19830 0.53300 0.04540 0.17800
H 	H 	0.14910 0.57080 0.03720 0.01600
H 	H 	0.18560 0.58460 0.06110 -0.05400
C 	C 	0.07840 0.55120 0.07040 0.15000
H 	H 	0.08850 0.58250 0.07980 0.37500
H 	H 	0.05870 0.56140 0.05520 0.52600
H 	H 	0.05450 0.52900 0.08060 0.03000
O 	O 	0.55930 0.44160 0.57570 -0.24100
N 	N 	0.62540 0.49260 0.59178 -0.26100
C 	C 	0.60720 0.45850 0.57523 -0.15400
C 	C 	0.64620 0.44020 0.55507 0.00500
H 	H 	0.62640 0.41820 0.54320 -0.13000
H 	H 	0.67660 0.42030 0.56250 -0.16600
H 	H 	0.66110 0.47070 0.54640 -0.01000
C 	C 	0.58840 0.51450 0.61030 -0.26600
H 	H 	0.55350 0.49520 0.60980 0.08200
H 	H 	0.58140 0.55150 0.60710 0.34500
H 	H 	0.60520 0.51060 0.62680 0.10900
C 	C 	0.67940 0.51750 0.59128 -0.10300
H 	H 	0.70610 0.49420 0.58330 0.05300
H 	H 	0.69130 0.52500 0.60830 0.13300
H 	H 	0.67710 0.55010 0.58180 0.03500
O 	O 	0.55550 0.04850 0.07900 -0.09700
N 	N 	0.64360 0.02310 0.08081 0.00900
C 	C 	0.59210 0.02190 0.08900 0.47900
C 	C 	0.57730 0.98500 0.10990 -0.07700
H 	H 	0.53760 0.97800 0.11000 -0.01800
H 	H 	0.59750 0.95230 0.10730 -0.20200
H 	H 	0.58810 0.00020 0.12590 -0.01200
C 	C 	0.65830 0.05620 0.05990 -0.17200
H 	H 	0.62590 0.06010 0.04910 0.14800
H 	H 	0.66970 0.09060 0.06600 0.21000
H 	H 	0.68850 0.04060 0.05040 0.06100
C 	C 	0.69070 0.99700 0.09200 0.01400
H 	H 	0.68030 0.98260 0.10820 -0.09200
H 	H 	0.70250 0.96870 0.08090 -0.02200
H 	H 	0.72100 0.02180 0.09410 -0.04200
K 	K 	0.24230 0.81321 0.73842 0.64600
K 	K 	0.97431 0.57739 0.72610 0.65000
K 	K 	0.98605 0.83873 0.90638 0.66100
K 	K 	0.25912 0.62006 0.89057 0.61000
K 	K 	0.26056 0.62749 0.57245 0.54900
K 	K 	0.98700 0.85867 0.55930 0.62900
Zn	Zn	0.09941 0.73129 0.65014 1.17400
O 	O 	0.02082 0.83637 0.60206 -0.36400
O 	O 	0.19771 0.62687 0.60988 -0.40400
O 	O 	0.17423 0.82787 0.70294 -0.34100
O 	O 	0.00264 0.61740 0.68544 -0.38900
N 	N 	0.07070 0.77263 0.62181 -0.31500
N 	N 	0.14339 0.69326 0.62471 -0.30100
N 	N 	0.11838 0.77312 0.68009 -0.30800
N 	N 	0.06045 0.68415 0.67354 -0.31400
N 	N 	0.01032 0.82260 0.64399 -0.31800
H 	H 	0.01430 0.79940 0.65590 0.07700
N 	N 	0.20240 0.65060 0.65023 -0.35900
H 	H 	0.19300 0.67490 0.66090 0.08400
N 	N 	0.16121 0.84164 0.66134 -0.33000
H 	H 	0.14750 0.82860 0.64750 0.11000
N 	N 	0.03823 0.61992 0.64604 -0.31600
H 	H 	0.05310 0.64040 0.63480 0.08500
C 	C 	0.96630 0.86620 0.67752 -0.83800
H 	H 	0.94280 0.83580 0.68070 0.23100
H 	H 	0.94710 0.89790 0.68280 0.22500
H 	H 	0.00080 0.86260 0.68680 0.23000
C 	C 	0.97887 0.86965 0.64990 0.59900
C 	C 	0.01260 0.91850 0.64437 -0.86200
H 	H 	0.02210 0.91940 0.62670 0.28000
H 	H 	0.04650 0.91800 0.65430 0.23500
H 	H 	0.99100 0.94950 0.64860 0.24400
C 	C 	0.92500 0.87170 0.63522 -0.83300
H 	H 	0.90480 0.83910 0.63750 0.23000
H 	H 	0.93320 0.87660 0.61750 0.25000
H 	H 	0.90260 0.90090 0.64120 0.23500
C 	C 	0.03444 0.81140 0.62120 0.26600
C 	C 	0.09834 0.75795 0.59873 -0.05500
H 	H 	0.12920 0.78230 0.59550 0.00100
H 	H 	0.07210 0.76070 0.58470 0.01800
C 	C 	0.12038 0.70268 0.60016 -0.07300
H 	H 	0.09020 0.67760 0.59690 0.01400
H 	H 	0.14920 0.69760 0.58740 0.02300
C 	C 	0.18093 0.65540 0.62675 0.24300
C 	C 	0.23860 0.61040 0.65946 0.61600
C 	C 	0.24760 0.62050 0.68695 -0.90600
H 	H 	0.26490 0.65470 0.68920 0.29100
H 	H 	0.27160 0.59340 0.69390 0.27300
H 	H 	0.21200 0.61990 0.69560 0.26900
C 	C 	0.21170 0.55830 0.65625 -0.91200
H 	H 	0.20460 0.55210 0.63860 0.29300
H 	H 	0.17680 0.55770 0.66540 0.27300
H 	H 	0.23610 0.53100 0.66270 0.26200
C 	C 	0.29260 0.61060 0.64630 -0.72800
H 	H 	0.30870 0.64550 0.64720 0.05200
H 	H 	0.28700 0.60080 0.62890 0.17900
H 	H 	0.31740 0.58550 0.65420 0.22800
C 	C 	0.18620 0.90840 0.63233 -0.99100
H 	H 	0.20310 0.88240 0.62140 0.29300
H 	H 	0.20490 0.94190 0.63010 0.28900
H 	H 	0.14720 0.91210 0.62810 0.29600
C 	C 	0.19180 0.89100 0.65934 0.73900
C 	C 	0.25290 0.88230 0.66547 -1.10900
H 	H 	0.25650 0.87090 0.68280 0.39800
H 	H 	0.27320 0.91500 0.66310 0.33900
H 	H 	0.26810 0.85560 0.65440 0.47200
C 	C 	0.16840 0.93240 0.67643 -0.97600
H 	H 	0.17170 0.92090 0.69370 0.30700
H 	H 	0.12950 0.93820 0.67240 0.25700
H 	H 	0.18900 0.96490 0.67420 0.27700
C 	C 	0.15200 0.81380 0.68300 0.28800
C 	C 	0.10650 0.74250 0.70243 -0.08100
H 	H 	0.10000 0.76600 0.71670 0.03600
H 	H 	0.13830 0.71980 0.70640 0.02200
C 	C 	0.05550 0.70940 0.69763 -0.06400
H 	H 	0.05170 0.68270 0.71080 0.02700
H 	H 	0.02220 0.73170 0.69790 0.00600
C 	C 	0.03267 0.64020 0.66966 0.27100
C 	C 	0.02180 0.56760 0.63791 0.57100
C 	C 	0.04270 0.56170 0.61143 -0.87400
H 	H 	0.08280 0.56550 0.61120 0.28200
H 	H 	0.02590 0.58860 0.60090 0.25000
H 	H 	0.03260 0.52720 0.60510 0.27200
C 	C 	0.95870 0.56270 0.63808 -0.69400
H 	H 	0.94270 0.58920 0.62710 0.17000
H 	H 	0.94500 0.56780 0.65500 0.13200
H 	H 	0.94810 0.52800 0.63220 0.16900
C 	C 	0.04690 0.52540 0.65430 -0.84700
H 	H 	0.08710 0.52900 0.65440 0.24100
H 	H 	0.03690 0.49110 0.64780 0.24500
H 	H 	0.03280 0.52900 0.67130 0.27300
Zn	Zn	0.10421 0.68896 0.81920 1.17400
O 	O 	0.21168 0.79224 0.78283 -0.35500
O 	O 	0.01759 0.60041 0.76633 -0.38100
O 	O 	0.02010 0.78539 0.86983 -0.29000
O 	O 	0.19737 0.57674 0.85662 -0.37900
N 	N 	0.14522 0.73392 0.79545 -0.31500
N 	N 	0.07108 0.65655 0.78946 -0.31300
N 	N 	0.07361 0.72599 0.84849 -0.29500
N 	N 	0.13616 0.64017 0.84405 -0.31700
N 	N 	0.19170 0.78218 0.82400 -0.32700
H 	H 	0.17120 0.76540 0.83480 0.08200
N 	N 	0.99969 0.61257 0.80769 -0.33300
H 	H 	0.00220 0.63520 0.81990 0.12700
N 	N 	0.02935 0.79064 0.82730 -0.36000
H 	H 	0.03240 0.77130 0.81390 0.11000
N 	N 	0.15904 0.57415 0.81772 -0.34000
H 	H 	0.14120 0.59240 0.80650 0.09200
C 	C 	0.22150 0.81940 0.86226 -0.85500
H 	H 	0.22960 0.78460 0.86880 0.23100
H 	H 	0.18310 0.82840 0.86590 0.24100
H 	H 	0.24600 0.84490 0.87020 0.23500
C 	C 	0.23070 0.82010 0.83413 0.63800
C 	C 	0.28970 0.80360 0.82816 -0.85200
H 	H 	0.29410 0.80030 0.81010 0.24900
H 	H 	0.29760 0.77010 0.83610 0.22600
H 	H 	0.31540 0.83000 0.83440 0.23200
C 	C 	0.22030 0.87410 0.82436 -0.97100
H 	H 	0.22730 0.87490 0.80640 0.34700
H 	H 	0.24500 0.89880 0.83270 0.28200
H 	H 	0.18200 0.88390 0.82760 0.34600
C 	C 	0.18370 0.77000 0.79941 0.27400
C 	C 	0.13110 0.72090 0.77001 -0.06000
H 	H 	0.16490 0.72180 0.75970 0.01900
H 	H 	0.10550 0.74760 0.76340 0.01900
C 	C 	0.10510 0.66870 0.76778 -0.08300
H 	H 	0.08200 0.66780 0.75260 0.04100
H 	H 	0.13420 0.64200 0.76600 0.01700
C 	C 	0.02980 0.62290 0.78636 0.28400
C 	C 	0.96390 0.56700 0.81155 0.66300
C 	C 	0.95020 0.56620 0.83898 -1.01800
H 	H 	0.98420 0.56320 0.84870 0.31300
H 	H 	0.92630 0.53630 0.84260 0.28800
H 	H 	0.93110 0.59850 0.84350 0.38500
C 	C 	0.91070 0.57190 0.79636 -0.91000
H 	H 	0.89010 0.60260 0.80190 0.29800
H 	H 	0.88810 0.54060 0.79880 0.25400
H 	H 	0.91980 0.57550 0.77870 0.26600
C 	C 	0.99310 0.51730 0.80447 -0.81000
H 	H 	0.02770 0.51450 0.81380 0.21600
H 	H 	0.00100 0.51750 0.78660 0.17600
H 	H 	0.96950 0.48740 0.80840 0.18400
C 	C 	0.01390 0.85440 0.79628 -1.22600
H 	H 	0.98720 0.83130 0.78820 0.35200
H 	H 	0.05090 0.84680 0.79000 0.40600
H 	H 	0.00450 0.89070 0.79270 0.45700
C 	C 	0.01240 0.84550 0.82422 0.93500
C 	C 	0.95360 0.85430 0.83349 -1.31700
H 	H 	0.92830 0.83130 0.82450 0.49700
H 	H 	0.94310 0.89070 0.83060 0.40700
H 	H 	0.95170 0.84670 0.85130 0.49700
C 	C 	0.05160 0.88180 0.83747 -1.23100
H 	H 	0.04970 0.87550 0.85540 0.34800
H 	H 	0.04120 0.91800 0.83400 0.45800
H 	H 	0.08920 0.87560 0.83160 0.43500
C 	C 	0.04077 0.76750 0.85023 0.29700
C 	C 	0.08420 0.69650 0.87117 -0.12900
H 	H 	0.05330 0.67230 0.87440 0.13700
H 	H 	0.08740 0.72050 0.88550 0.06700
C 	C 	0.13778 0.66565 0.86813 -0.03000
H 	H 	0.16980 0.68940 0.86910 -0.02900
H 	H 	0.14120 0.63940 0.88150 0.01800
C 	C 	0.16567 0.59677 0.84074 0.26300
C 	C 	0.17890 0.52250 0.81009 0.71500
C 	C 	0.15550 0.51380 0.78409 -0.96500
H 	H 	0.11520 0.51630 0.78470 0.27100
H 	H 	0.16610 0.47920 0.77810 0.30700
H 	H 	0.17000 0.54040 0.77280 0.30500
C 	C 	0.24150 0.52140 0.80917 -1.08000
H 	H 	0.25630 0.53180 0.82540 0.29600
H 	H 	0.25450 0.54560 0.79640 0.39000
H 	H 	0.25400 0.48610 0.80520 0.46700
C 	C 	0.15780 0.48000 0.82746 -0.95600
H 	H 	0.11780 0.48290 0.82910 0.26500
H 	H 	0.17490 0.48410 0.84380 0.28600
H 	H 	0.16730 0.44580 0.82060 0.26700
Zn	Zn	0.13460 0.73434 0.98446 1.17200
O 	O 	0.04054 0.84757 0.94718 -0.36400
O 	O 	0.22199 0.64150 0.93385 -0.37200
O 	O 	0.22718 0.67603 0.53449 -0.61100
O 	O 	0.04557 0.88122 0.52173 -0.38200
N 	N 	0.09767 0.78158 0.96052 -0.31000
N 	N 	0.17106 0.70317 0.95500 -0.31400
N 	N 	0.16878 0.73252 0.51391 -0.33400
N 	N 	0.10509 0.81775 0.50852 -0.31100
N 	N 	0.05013 0.83074 0.98869 -0.31900
H 	H 	0.07140 0.81590 0.99990 0.09000
N 	N 	0.23829 0.65789 0.97522 -0.30700
H 	H 	0.24290 0.68450 0.98530 0.06100
N 	N 	0.20126 0.65960 0.49424 -0.30600
H 	H 	0.19260 0.67500 0.48020 0.07000
N 	N 	0.06577 0.87218 0.48037 -0.32500
H 	H 	0.08080 0.85190 0.46910 0.08100
C 	C 	0.00770 0.85900 0.02629 -0.85700
H 	H 	0.00090 0.82270 0.03110 0.24600
H 	H 	0.97940 0.88140 0.03370 0.23600
H 	H 	0.04410 0.86970 0.03230 0.24600
C 	C 	0.00560 0.86380 0.99797 0.62900
C 	C 	0.01480 0.92020 0.99074 -0.86400
H 	H 	0.01780 0.92290 0.97260 0.25700
H 	H 	0.04900 0.93290 0.99840 0.24000
H 	H 	0.98380 0.94140 0.99650 0.23900
C 	C 	0.95000 0.84550 0.98841 -0.88200
H 	H 	0.94490 0.80860 0.99260 0.28100
H 	H 	0.94860 0.84970 0.97030 0.19600
H 	H 	0.92070 0.86620 0.99610 0.22000
C 	C 	0.06195 0.82050 0.96406 0.28000
C 	C 	0.11865 0.77316 0.93537 -0.07100
H 	H 	0.14820 0.79870 0.93180 0.01400
H 	H 	0.08860 0.77880 0.92320 0.01800
C 	C 	0.14125 0.71808 0.93249 -0.08100
H 	H 	0.11060 0.69350 0.92960 0.01800
H 	H 	0.16630 0.71660 0.91800 0.03000
C 	C 	0.20919 0.66624 0.95319 0.25900
C 	C 	0.26160 0.60759 0.98266 0.53000
C 	C 	0.27890 0.61380 0.00974 -0.70800
H 	H 	0.30610 0.64190 0.01110 0.12500
H 	H 	0.29520 0.58120 0.01570 0.18100
H 	H 	0.24660 0.62240 0.01980 0.17200
C 	C 	0.31170 0.59340 0.96718 -0.76300
H 	H 	0.33980 0.62050 0.96900 0.20100
H 	H 	0.30100 0.59060 0.94970 0.21000
H 	H 	0.32660 0.56000 0.97290 0.20500
C 	C 	0.21720 0.56530 0.98078 -0.80000
H 	H 	0.18520 0.57540 0.99070 0.23500
H 	H 	0.23200 0.53230 0.98710 0.22600
H 	H 	0.20620 0.56100 0.96340 0.24100
C 	C 	0.20220 0.58620 0.46702 -0.68800
H 	H 	0.22430 0.60610 0.45510 0.19500
H 	H 	0.21060 0.54900 0.46540 0.19200
H 	H 	0.16300 0.59200 0.46370 0.20200
C 	C 	0.21580 0.60410 0.49327 0.40900
C 	C 	0.27810 0.59760 0.49813 -0.44100
H 	H 	0.28680 0.60980 0.51490 -0.06700
H 	H 	0.28810 0.56080 0.49660 0.10600
H 	H 	0.29880 0.61820 0.48600 0.04900
C 	C 	0.18280 0.57250 0.51229 -0.65600
H 	H 	0.19080 0.58530 0.52910 0.18300
H 	H 	0.14340 0.57620 0.50890 0.18700
H 	H 	0.19320 0.53570 0.51110 0.18000
C 	C 	0.20009 0.68960 0.51578 0.28100
C 	C 	0.16570 0.76750 0.53515 -0.02800
H 	H 	0.16720 0.74730 0.55080 -0.01400
H 	H 	0.19730 0.79200 0.53490 -0.08200
C 	C 	0.11210 0.79760 0.53368 -0.09100
H 	H 	0.11260 0.82680 0.54570 0.02200
H 	H 	0.08090 0.77440 0.53790 0.01300
C 	C 	0.07140 0.85750 0.50502 0.28800
C 	C 	0.03660 0.91900 0.47161 0.68700
C 	C 	0.04640 0.92050 0.44349 -1.00000
H 	H 	0.03130 0.88890 0.43590 0.34800
H 	H 	0.02810 0.95120 0.43640 0.31800
H 	H 	0.08600 0.92240 0.44020 0.30800
C 	C 	0.97450 0.91490 0.47661 -0.92800
H 	H 	0.96810 0.91190 0.49450 0.25400
H 	H 	0.95590 0.94600 0.47030 0.25500
H 	H 	0.95980 0.88390 0.46820 0.26900
C 	C 	0.05950 0.96820 0.48341 -0.93200
H 	H 	0.05540 0.96620 0.50150 0.27600
H 	H 	0.09860 0.97170 0.47920 0.27000
H 	H 	0.03930 0.99860 0.47720 0.26400
O 	O 	0.27880 0.90890 0.74040 -0.46300
N 	N 	0.35390 0.95100 0.72790 -0.37700
C 	C 	0.29970 0.94840 0.73090 -0.20400
C 	C 	0.26520 0.99720 0.72790 1.49200
H 	H 	0.26350 0.01580 0.74380 -0.46500
H 	H 	0.22780 0.98950 0.72210 -0.22000
H 	H 	0.28410 0.01890 0.71550 -1.05700
C 	C 	0.38700 0.90460 0.73250 -0.53400
H 	H 	0.36680 0.88350 0.74460 0.07300
H 	H 	0.42320 0.91380 0.73940 0.05500
H 	H 	0.39200 0.88470 0.71710 0.16900
C 	C 	0.38490 0.99330 0.71670 -0.17300
H 	H 	0.39500 0.98530 0.69940 0.06100
H 	H 	0.41840 0.99710 0.72670 -0.02300
H 	H 	0.36380 0.02590 0.71720 0.02500
O 	O 	0.29320 0.90230 0.73970 0.17400
N 	N 	0.33760 0.97130 0.72470 0.12000
C 	C 	0.33780 0.92450 0.73530 0.59600
C 	C 	0.38930 0.90660 0.74880 -0.03200
H 	H 	0.38980 0.91630 0.76640 -0.04500
H 	H 	0.41870 0.92520 0.74000 0.06400
H 	H 	0.39520 0.86890 0.74720 0.02100
C 	C 	0.28520 0.99220 0.71600 -0.11700
H 	H 	0.25780 0.97010 0.72420 -0.48300
H 	H 	0.27970 0.99070 0.69790 0.16000
H 	H 	0.28100 0.02830 0.72170 0.64400
C 	C 	0.38060 0.01060 0.72660 0.07900
H 	H 	0.37280 0.03840 0.73860 -0.04500
H 	H 	0.38080 0.02520 0.70970 0.01900
H 	H 	0.41660 0.99520 0.73030 0.02600
O 	O 	0.97630 0.47480 0.73730 2.04600
N 	N 	0.89270 0.43890 0.73598 0.93500
C 	C 	0.94300 0.44210 0.74535 3.78300
C 	C 	0.96030 0.40380 0.76520 -0.36700
H 	H 	0.96370 0.36890 0.75800 0.06100
H 	H 	0.93300 0.40320 0.77860 -0.44100
H 	H 	0.99610 0.41470 0.77200 0.14200
C 	C 	0.87530 0.47550 0.71680 9.27600
H 	H 	0.86170 0.50750 0.72470 -1.23200
H 	H 	0.84570 0.45960 0.70700 -1.18300
H 	H 	0.90640 0.48380 0.70590 -11.53000
C 	C 	0.84800 0.40610 0.74490 0.21000
H 	H 	0.85740 0.39280 0.76150 -0.00300
H 	H 	0.84430 0.37690 0.73330 0.04800
H 	H 	0.81310 0.42530 0.74580 0.15700
O 	O 	0.96650 0.47820 0.73300 -1.96700
N 	N 	0.90540 0.41980 0.74700 -0.96200
C 	C 	0.92000 0.45810 0.73190 -5.00900
C 	C 	0.88310 0.47040 0.70990 6.07600
H 	H 	0.84710 0.48160 0.71620 -5.52300
H 	H 	0.87850 0.43980 0.69920 -1.78300
H 	H 	0.89980 0.49880 0.70030 6.78400
C 	C 	0.94370 0.40080 0.76580 -0.72300
H 	H 	0.94460 0.36260 0.76530 0.28800
H 	H 	0.93200 0.41250 0.78230 0.69500
H 	H 	0.98060 0.41450 0.76220 -0.24100
C 	C 	0.85850 0.38520 0.74340 -0.07200
H 	H 	0.82600 0.40640 0.73970 -0.20700
H 	H 	0.85200 0.36510 0.75860 -0.00300
H 	H 	0.86540 0.36120 0.72950 -0.00100
O 	O 	0.88820 0.81040 0.90240 -2.34200
N 	N 	0.79780 0.79380 0.90213 -1.01000
C 	C 	0.84790 0.78850 0.89277 -3.77700
C 	C 	0.85510 0.75930 0.86850 -0.62100
H 	H 	0.83610 0.77950 0.85570 4.89500
H 	H 	0.83870 0.72450 0.86960 14.60000
H 	H 	0.89420 0.75610 0.86420 2.80100
C 	C 	0.78990 0.82310 0.92510 -2.18100
H 	H 	0.77720 0.79890 0.93790 1.37600
H 	H 	0.76280 0.85110 0.92300 0.18200
H 	H 	0.82540 0.83810 0.93000 0.21500
C 	C 	0.74890 0.76500 0.89460 -0.24700
H 	H 	0.72730 0.78670 0.88320 -1.27200
H 	H 	0.72670 0.75670 0.90930 -0.12800
H 	H 	0.75950 0.73260 0.88620 0.55300
O 	O 	0.88340 0.80870 0.90933 2.06600
N 	N 	0.81110 0.78220 0.88681 -0.16900
C 	C 	0.83300 0.80140 0.90741 3.88600
C 	C 	0.79650 0.80870 0.93001 -1.54200
H 	H 	0.79280 0.77570 0.93900 -0.68300
H 	H 	0.76010 0.82040 0.92450 1.02100
H 	H 	0.81270 0.83500 0.94100 0.46000
C 	C 	0.84650 0.76940 0.86581 7.27400
H 	H 	0.88140 0.78830 0.86750 -2.48700
H 	H 	0.82880 0.77890 0.85010 -7.05000
H 	H 	0.85370 0.73180 0.86600 -16.80900
C 	C 	0.75520 0.76250 0.88386 -0.51400
H 	H 	0.75240 0.72860 0.89220 -0.77000
H 	H 	0.74680 0.75850 0.86610 0.05200
H 	H 	0.72900 0.78690 0.89140 1.55200
O 	O 	0.94186 0.92950 0.90313 -0.45000
N 	N 	0.87260 0.97200 0.92166 -0.07600
C 	C 	0.89310 0.94430 0.90311 0.33100
C 	C 	0.85630 0.93180 0.88120 -0.10400
H 	H 	0.87810 0.91480 0.86820 -0.10300
H 	H 	0.84150 0.96470 0.87480 -0.96400
H 	H 	0.82590 0.90900 0.88610 0.07000
C 	C 	0.90600 0.98360 0.94346 -0.50500
H 	H 	0.88580 0.97390 0.95850 0.28100
H 	H 	0.91460 0.02090 0.94400 0.62900
H 	H 	0.94020 0.96350 0.94250 0.16200
C 	C 	0.81840 0.99630 0.92210 -0.11100
H 	H 	0.81770 0.02710 0.91140 0.06400
H 	H 	0.80980 0.00650 0.93920 0.03600
H 	H 	0.79090 0.97110 0.91630 0.06700
O 	O 	0.94540 0.93380 0.91360 0.02600
N 	N 	0.85830 0.96050 0.90880 -0.12200
C 	C 	0.90550 0.95960 0.92120 0.11400
C 	C 	0.91340 0.99710 0.94270 -0.10000
H 	H 	0.95180 0.99690 0.94830 -0.07100
H 	H 	0.88970 0.98330 0.95590 -0.13000
H 	H 	0.90230 0.03290 0.93880 -0.42000
C 	C 	0.85330 0.93300 0.88530 -0.50400
H 	H 	0.88350 0.90770 0.88410 0.22100
H 	H 	0.85440 0.95630 0.87080 1.17100
H 	H 	0.81800 0.91440 0.88550 0.13700
C 	C 	0.80890 0.98920 0.91560 -0.02900
H 	H 	0.79460 0.97790 0.93180 0.01300
H 	H 	0.78050 0.98440 0.90290 0.01500
H 	H 	0.81910 0.02610 0.91650 0.00800
O 	O 	0.35361 0.67140 0.58340 -4.11000
N 	N 	0.42348 0.70290 0.56085 -5.88800
C 	C 	0.40280 0.68470 0.58189 -22.92200
C 	C 	0.44080 0.67620 0.60383 1.29400
H 	H 	0.42020 0.66070 0.61760 -1.19400
H 	H 	0.47100 0.65280 0.59900 1.28700
H 	H 	0.45610 0.70980 0.60900 -0.31500
C 	C 	0.38760 0.71140 0.53952 -11.52100
H 	H 	0.37830 0.74840 0.53810 1.35000
H 	H 	0.40640 0.69990 0.52440 -4.44800
H 	H 	0.35380 0.69110 0.54180 2.15600
C 	C 	0.47960 0.72080 0.55671 -1.52500
H 	H 	0.49640 0.70060 0.54320 0.42000
H 	H 	0.47910 0.75780 0.55220 -0.58100
H 	H 	0.50120 0.71610 0.57200 0.24100
O 	O 	0.34670 0.81920 0.08310 2.91900
N 	N 	0.43590 0.80400 0.07540 8.79700
C 	C 	0.38350 0.80510 0.06850 22.14900
C 	C 	0.36830 0.78570 0.04280 -7.65500
H 	H 	0.37990 0.74920 0.04150 3.47500
H 	H 	0.38720 0.80630 0.03010 11.52200
H 	H 	0.32840 0.78810 0.04040 0.89800
C 	C 	0.45140 0.82100 0.10030 3.37000
H 	H 	0.42120 0.84210 0.10700 1.50800
H 	H 	0.48470 0.84240 0.09910 -2.72000
H 	H 	0.45840 0.79140 0.11140 -0.67800
C 	C 	0.48030 0.77720 0.06250 -0.78000
H 	H 	0.46640 0.76180 0.04700 1.93900
H 	H 	0.49490 0.74960 0.07330 0.27200
H 	H 	0.50980 0.80210 0.05860 0.40100
O 	O 	0.30650 0.53720 0.56758 -0.45700
N 	N 	0.38480 0.49590 0.57756 -0.38900
C 	C 	0.33920 0.50070 0.56427 -0.63200
C 	C 	0.32990 0.46330 0.54288 -0.18200
H 	H 	0.30210 0.47760 0.53160 -0.02600
H 	H 	0.36470 0.45870 0.53390 0.08200
H 	H 	0.31730 0.42960 0.54920 0.08900
C 	C 	0.39460 0.53010 0.59869 -0.88700
H 	H 	0.36360 0.55430 0.60040 0.15700
H 	H 	0.39810 0.50930 0.61390 -0.09300
H 	H 	0.42860 0.54990 0.59600 0.30700
C 	C 	0.42460 0.45370 0.57560 0.24800
H 	H 	0.42360 0.44170 0.55830 -0.70000
H 	H 	0.46090 0.46880 0.57910 -0.12000
H 	H 	0.41790 0.42430 0.58680 -0.46100
O 	O 	0.30370 0.96630 0.07440 0.02900
N 	N 	0.36850 0.02600 0.06670 0.11600
C 	C 	0.35060 0.98380 0.07840 1.13900
C 	C 	0.39060 0.95300 0.09420 -0.51500
H 	H 	0.38970 0.96630 0.11130 0.61700
H 	H 	0.42790 0.95680 0.08750 0.17400
H 	H 	0.38020 0.91610 0.09420 0.43800
C 	C 	0.33080 0.05620 0.05140 -0.06800
H 	H 	0.30170 0.03300 0.04540 0.17700
H 	H 	0.35090 0.07080 0.03720 0.01600
H 	H 	0.31440 0.08460 0.06110 -0.05400
C 	C 	0.42160 0.05120 0.07040 0.15000
H 	H 	0.41150 0.08250 0.07980 0.37400
H 	H 	0.44130 0.06140 0.05520 0.52400
H 	H 	0.44550 0.02900 0.08060 0.03000
O 	O 	0.94070 0.94160 0.57570 -0.24100
N 	N 	0.87460 0.99260 0.59178 -0.26200
C 	C 	0.89280 0.95850 0.57523 -0.15300
C 	C 	0.85380 0.94020 0.55507 0.00500
H 	H 	0.87360 0.91820 0.54320 -0.13000
H 	H 	0.82340 0.92030 0.56250 -0.16700
H 	H 	0.83890 0.97070 0.54640 -0.01000
C 	C 	0.91160 0.01450 0.61030 -0.26100
H 	H 	0.94650 0.99520 0.60980 0.08000
H 	H 	0.91860 0.05150 0.60710 0.33700
H 	H 	0.89480 0.01060 0.62680 0.11500
C 	C 	0.82060 0.01750 0.59128 -0.09900
H 	H 	0.79390 0.99420 0.58330 0.05100
H 	H 	0.80870 0.02500 0.60830 0.13200
H 	H 	0.82290 0.05010 0.58180 0.03400
O 	O 	0.94450 0.54850 0.07900 -0.09600
N 	N 	0.85640 0.52310 0.08081 0.00900
C 	C 	0.90790 0.52190 0.08900 0.48100
C 	C 	0.92270 0.48500 0.10990 -0.07800
H 	H 	0.96240 0.47800 0.11000 -0.02000
H 	H 	0.90250 0.45230 0.10730 -0.21100
H 	H 	0.91190 0.50020 0.12590 -0.00000
C 	C 	0.84170 0.55620 0.05990 -0.17200
H 	H 	0.87410 0.56010 0.04910 0.14800
H 	H 	0.83030 0.59060 0.06600 0.21000
H 	H 	0.81150 0.54060 0.05040 0.06100
C 	C 	0.80930 0.49700 0.09200 0.01300
H 	H 	0.81970 0.48260 0.10820 -0.09300
H 	H 	0.79750 0.46870 0.08090 -0.02200
H 	H 	0.77900 0.52180 0.09410 -0.04300
K 	K 	0.74230 0.68679 0.26158 0.64600
K 	K 	0.47431 0.92261 0.27390 0.65000
K 	K 	0.48605 0.66127 0.09362 0.66100
K 	K 	0.75912 0.87994 0.10943 0.61000
K 	K 	0.76056 0.87251 0.42755 0.54900
K 	K 	0.48700 0.64133 0.44070 0.62900
Zn	Zn	0.59941 0.76871 0.34986 1.17400
O 	O 	0.52082 0.66363 0.39794 -0.36300
O 	O 	0.69771 0.87313 0.39012 -0.40400
O 	O 	0.67423 0.67213 0.29706 -0.34200
O 	O 	0.50264 0.88260 0.31456 -0.38900
N 	N 	0.57070 0.72737 0.37819 -0.31500
N 	N 	0.64339 0.80674 0.37529 -0.30100
N 	N 	0.61838 0.72688 0.31991 -0.30800
N 	N 	0.56045 0.81585 0.32646 -0.31400
N 	N 	0.51032 0.67740 0.35601 -0.31800
H 	H 	0.51430 0.70060 0.34410 0.07800
N 	N 	0.70240 0.84940 0.34977 -0.36000
H 	H 	0.69300 0.82510 0.33910 0.08500
N 	N 	0.66121 0.65836 0.33866 -0.33000
H 	H 	0.64750 0.67140 0.35250 0.11000
N 	N 	0.53823 0.88008 0.35396 -0.31600
H 	H 	0.55310 0.85960 0.36520 0.08500
C 	C 	0.46630 0.63380 0.32248 -0.83800
H 	H 	0.44280 0.66420 0.31930 0.23100
H 	H 	0.44710 0.60210 0.31720 0.22500
H 	H 	0.50080 0.63740 0.31320 0.23100
C 	C 	0.47887 0.63035 0.35010 0.59700
C 	C 	0.51260 0.58150 0.35563 -0.85900
H 	H 	0.52210 0.58060 0.37330 0.27900
H 	H 	0.54650 0.58200 0.34570 0.23400
H 	H 	0.49100 0.55050 0.35140 0.24200
C 	C 	0.42500 0.62830 0.36478 -0.83200
H 	H 	0.40480 0.66090 0.36250 0.22900
H 	H 	0.43320 0.62340 0.38250 0.24900
H 	H 	0.40260 0.59910 0.35880 0.23500
C 	C 	0.53444 0.68860 0.37880 0.26600
C 	C 	0.59834 0.74205 0.40127 -0.05500
H 	H 	0.62920 0.71770 0.40450 0.00100
H 	H 	0.57210 0.73930 0.41530 0.01800
C 	C 	0.62038 0.79732 0.39984 -0.07300
H 	H 	0.59020 0.82240 0.40310 0.01400
H 	H 	0.64920 0.80240 0.41260 0.02300
C 	C 	0.68093 0.84460 0.37325 0.24300
C 	C 	0.73860 0.88960 0.34054 0.61900
C 	C 	0.74760 0.87950 0.31305 -0.90800
H 	H 	0.76490 0.84530 0.31080 0.29100
H 	H 	0.77160 0.90660 0.30610 0.27400
H 	H 	0.71200 0.88010 0.30440 0.27000
C 	C 	0.71170 0.94170 0.34375 -0.91500
H 	H 	0.70460 0.94790 0.36140 0.29500
H 	H 	0.67680 0.94230 0.33460 0.27500
H 	H 	0.73610 0.96900 0.33730 0.26400
C 	C 	0.79260 0.88940 0.35370 -0.73000
H 	H 	0.80870 0.85450 0.35280 0.05300
H 	H 	0.78700 0.89920 0.37110 0.18000
H 	H 	0.81740 0.91450 0.34580 0.22900
C 	C 	0.68620 0.59160 0.36767 -0.99200
H 	H 	0.70310 0.61760 0.37860 0.29300
H 	H 	0.70490 0.55810 0.36990 0.29000
H 	H 	0.64720 0.58790 0.37190 0.29700
C 	C 	0.69180 0.60900 0.34066 0.74000
C 	C 	0.75290 0.61770 0.33453 -1.11000
H 	H 	0.75650 0.62910 0.31720 0.39800
H 	H 	0.77320 0.58500 0.33690 0.33900
H 	H 	0.76810 0.64440 0.34560 0.47200
C 	C 	0.66840 0.56760 0.32357 -0.97700
H 	H 	0.67170 0.57910 0.30630 0.30700
H 	H 	0.62950 0.56180 0.32760 0.25800
H 	H 	0.68900 0.53510 0.32580 0.27800
C 	C 	0.65200 0.68620 0.31700 0.28800
C 	C 	0.60650 0.75750 0.29757 -0.08100
H 	H 	0.60000 0.73400 0.28330 0.03600
H 	H 	0.63830 0.78020 0.29360 0.02200
C 	C 	0.55550 0.79060 0.30237 -0.06400
H 	H 	0.55170 0.81730 0.28920 0.02700
H 	H 	0.52220 0.76830 0.30210 0.00600
C 	C 	0.53267 0.85980 0.33034 0.27100
C 	C 	0.52180 0.93240 0.36209 0.57000
C 	C 	0.54270 0.93830 0.38857 -0.87300
H 	H 	0.58280 0.93450 0.38880 0.28300
H 	H 	0.52590 0.91140 0.39910 0.25000
H 	H 	0.53260 0.97280 0.39490 0.27300
C 	C 	0.45870 0.93730 0.36192 -0.69300
H 	H 	0.44270 0.91080 0.37290 0.16900
H 	H 	0.44500 0.93220 0.34500 0.13200
H 	H 	0.44810 0.97200 0.36780 0.16900
C 	C 	0.54690 0.97460 0.34570 -0.84000
H 	H 	0.58710 0.97100 0.34560 0.24000
H 	H 	0.53690 0.00890 0.35220 0.24200
H 	H 	0.53280 0.97100 0.32870 0.27200
Zn	Zn	0.60421 0.81104 0.18080 1.17400
O 	O 	0.71168 0.70776 0.21717 -0.35500
O 	O 	0.51759 0.89959 0.23367 -0.38100
O 	O 	0.52010 0.71461 0.13017 -0.29000
O 	O 	0.69737 0.92326 0.14338 -0.37800
N 	N 	0.64522 0.76608 0.20455 -0.31500
N 	N 	0.57108 0.84345 0.21054 -0.31300
N 	N 	0.57361 0.77401 0.15151 -0.29400
N 	N 	0.63616 0.85983 0.15595 -0.31700
N 	N 	0.69170 0.71782 0.17600 -0.32700
H 	H 	0.67120 0.73460 0.16520 0.08200
N 	N 	0.49969 0.88743 0.19231 -0.33300
H 	H 	0.50220 0.86480 0.18010 0.12700
N 	N 	0.52935 0.70936 0.17270 -0.36000
H 	H 	0.53240 0.72870 0.18610 0.11000
N 	N 	0.65904 0.92585 0.18228 -0.33900
H 	H 	0.64120 0.90760 0.19350 0.09200
C 	C 	0.72150 0.68060 0.13774 -0.85500
H 	H 	0.72960 0.71540 0.13120 0.23100
H 	H 	0.68310 0.67160 0.13410 0.24100
H 	H 	0.74600 0.65510 0.12980 0.23500
C 	C 	0.73070 0.67990 0.16587 0.63800
C 	C 	0.78970 0.69640 0.17184 -0.85300
H 	H 	0.79410 0.69970 0.18990 0.24900
H 	H 	0.79760 0.72990 0.16390 0.22600
H 	H 	0.81540 0.67000 0.16560 0.23200
C 	C 	0.72030 0.62590 0.17564 -0.97000
H 	H 	0.72730 0.62510 0.19360 0.34600
H 	H 	0.74500 0.60120 0.16730 0.28200
H 	H 	0.68200 0.61610 0.17240 0.34600
C 	C 	0.68370 0.73000 0.20059 0.27400
C 	C 	0.63110 0.77910 0.22999 -0.06000
H 	H 	0.66490 0.77820 0.24030 0.01900
H 	H 	0.60550 0.75240 0.23660 0.01900
C 	C 	0.60510 0.83130 0.23222 -0.08300
H 	H 	0.58200 0.83220 0.24740 0.04100
H 	H 	0.63420 0.85800 0.23400 0.01700
C 	C 	0.52980 0.87710 0.21364 0.28400
C 	C 	0.46390 0.93300 0.18845 0.66100
C 	C 	0.45020 0.93380 0.16102 -1.01600
H 	H 	0.48420 0.93680 0.15130 0.31300
H 	H 	0.42630 0.96370 0.15740 0.28800
H 	H 	0.43110 0.90150 0.15650 0.38500
C 	C 	0.41070 0.92810 0.20364 -0.90900
H 	H 	0.39010 0.89740 0.19810 0.29800
H 	H 	0.38810 0.95940 0.20120 0.25500
H 	H 	0.41980 0.92450 0.22130 0.26600
C 	C 	0.49310 0.98270 0.19553 -0.80100
H 	H 	0.52770 0.98550 0.18620 0.21400
H 	H 	0.50100 0.98250 0.21340 0.17400
H 	H 	0.46950 0.01260 0.19160 0.18000
C 	C 	0.51390 0.64560 0.20372 -1.22400
H 	H 	0.48720 0.66870 0.21180 0.35100
H 	H 	0.55090 0.65320 0.21000 0.40600
H 	H 	0.50450 0.60930 0.20730 0.45600
C 	C 	0.51240 0.65450 0.17578 0.93400
C 	C 	0.45360 0.64570 0.16651 -1.31700
H 	H 	0.42830 0.66870 0.17550 0.49700
H 	H 	0.44310 0.60930 0.16940 0.40700
H 	H 	0.45170 0.65330 0.14870 0.49700
C 	C 	0.55160 0.61820 0.16253 -1.23000
H 	H 	0.54970 0.62450 0.14460 0.34800
H 	H 	0.54120 0.58200 0.16600 0.45700
H 	H 	0.58920 0.62440 0.16840 0.43400
C 	C 	0.54077 0.73250 0.14977 0.29700
C 	C 	0.58420 0.80350 0.12883 -0.12900
H 	H 	0.55330 0.82770 0.12560 0.13700
H 	H 	0.58740 0.77950 0.11450 0.06700
C 	C 	0.63778 0.83435 0.13187 -0.03000
H 	H 	0.66980 0.81060 0.13090 -0.02900
H 	H 	0.64120 0.86060 0.11850 0.01800
C 	C 	0.66567 0.90323 0.15926 0.26300
C 	C 	0.67890 0.97750 0.18991 0.71200
C 	C 	0.65550 0.98620 0.21591 -0.95300
H 	H 	0.61520 0.98370 0.21530 0.26800
H 	H 	0.66610 0.02080 0.22190 0.30200
H 	H 	0.67000 0.95960 0.22720 0.30200
C 	C 	0.74150 0.97860 0.19083 -1.07000
H 	H 	0.75630 0.96820 0.17460 0.29300
H 	H 	0.75450 0.95440 0.20360 0.38800
H 	H 	0.75400 0.01390 0.19480 0.46300
C 	C 	0.65780 0.02000 0.17254 -0.95500
H 	H 	0.61780 0.01710 0.17090 0.26400
H 	H 	0.67490 0.01590 0.15620 0.28500
H 	H 	0.66730 0.05420 0.17940 0.26600
Zn	Zn	0.63460 0.76566 0.01554 1.17200
O 	O 	0.54054 0.65243 0.05282 -0.36400
O 	O 	0.72199 0.85850 0.06615 -0.37200
O 	O 	0.72718 0.82397 0.46551 -0.61100
O 	O 	0.54557 0.61878 0.47827 -0.38200
N 	N 	0.59767 0.71842 0.03948 -0.31000
N 	N 	0.67106 0.79683 0.04500 -0.31400
N 	N 	0.66878 0.76748 0.48609 -0.33400
N 	N 	0.60509 0.68225 0.49148 -0.31100
N 	N 	0.55013 0.66926 0.01131 -0.31900
H 	H 	0.57140 0.68410 0.00010 0.09000
N 	N 	0.73829 0.84211 0.02478 -0.30700
H 	H 	0.74290 0.81550 0.01470 0.06100
N 	N 	0.70126 0.84040 0.50576 -0.30600
H 	H 	0.69260 0.82500 0.51980 0.07000
N 	N 	0.56577 0.62782 0.51963 -0.32500
H 	H 	0.58080 0.64810 0.53090 0.08100
C 	C 	0.50770 0.64100 0.97371 -0.85500
H 	H 	0.50090 0.67730 0.96890 0.24500
H 	H 	0.47940 0.61860 0.96630 0.23500
H 	H 	0.54410 0.63030 0.96770 0.24500
C 	C 	0.50560 0.63620 0.00203 0.62900
C 	C 	0.51480 0.57980 0.00926 -0.86200
H 	H 	0.51780 0.57710 0.02740 0.25700
H 	H 	0.54900 0.56710 0.00160 0.23900
H 	H 	0.48380 0.55860 0.00350 0.23800
C 	C 	0.45000 0.65450 0.01159 -0.88200
H 	H 	0.44490 0.69140 0.00740 0.28100
H 	H 	0.44860 0.65030 0.02970 0.19600
H 	H 	0.42070 0.63380 0.00390 0.22000
C 	C 	0.56195 0.67950 0.03594 0.28000
C 	C 	0.61865 0.72684 0.06463 -0.07100
H 	H 	0.64820 0.70130 0.06820 0.01400
H 	H 	0.58860 0.72120 0.07680 0.01800
C 	C 	0.64125 0.78192 0.06751 -0.08100
H 	H 	0.61060 0.80650 0.07040 0.01800
H 	H 	0.66630 0.78340 0.08200 0.03000
C 	C 	0.70919 0.83376 0.04681 0.25900
C 	C 	0.76160 0.89241 0.01734 0.53100
C 	C 	0.77890 0.88620 0.99026 -0.70800
H 	H 	0.80610 0.85810 0.98890 0.12500
H 	H 	0.79520 0.91880 0.98430 0.18100
H 	H 	0.74660 0.87760 0.98020 0.17200
C 	C 	0.81170 0.90660 0.03282 -0.76400
H 	H 	0.83980 0.87950 0.03100 0.20100
H 	H 	0.80100 0.90940 0.05030 0.21000
H 	H 	0.82660 0.94000 0.02710 0.20500
C 	C 	0.71720 0.93470 0.01922 -0.80100
H 	H 	0.68520 0.92460 0.00930 0.23500
H 	H 	0.73200 0.96770 0.01290 0.22700
H 	H 	0.70620 0.93900 0.03660 0.24200
C 	C 	0.70220 0.91380 0.53298 -0.68900
H 	H 	0.72430 0.89390 0.54490 0.19500
H 	H 	0.71060 0.95100 0.53460 0.19200
H 	H 	0.66300 0.90800 0.53630 0.20200
C 	C 	0.71580 0.89590 0.50673 0.40900
C 	C 	0.77810 0.90240 0.50187 -0.44200
H 	H 	0.78680 0.89020 0.48510 -0.06600
H 	H 	0.78810 0.93920 0.50340 0.10600
H 	H 	0.79880 0.88180 0.51400 0.04900
C 	C 	0.68280 0.92750 0.48771 -0.65600
H 	H 	0.69080 0.91470 0.47090 0.18400
H 	H 	0.64340 0.92380 0.49110 0.18700
H 	H 	0.69320 0.96430 0.48890 0.18100
C 	C 	0.70009 0.81040 0.48422 0.28100
C 	C 	0.66570 0.73250 0.46485 -0.02800
H 	H 	0.66720 0.75270 0.44920 -0.01400
H 	H 	0.69730 0.70800 0.46510 -0.08200
C 	C 	0.61210 0.70240 0.46632 -0.09100
H 	H 	0.61260 0.67320 0.45430 0.02200
H 	H 	0.58090 0.72560 0.46210 0.01300
C 	C 	0.57140 0.64250 0.49498 0.28800
C 	C 	0.53660 0.58100 0.52839 0.68800
C 	C 	0.54640 0.57950 0.55651 -1.00000
H 	H 	0.53130 0.61110 0.56410 0.34800
H 	H 	0.52810 0.54880 0.56360 0.31800
H 	H 	0.58600 0.57760 0.55980 0.30800
C 	C 	0.47450 0.58510 0.52339 -0.92900
H 	H 	0.46810 0.58810 0.50550 0.25400
H 	H 	0.45590 0.55400 0.52970 0.25500
H 	H 	0.45980 0.61610 0.53180 0.26900
C 	C 	0.55950 0.53180 0.51659 -0.93300
H 	H 	0.55540 0.53380 0.49850 0.27600
H 	H 	0.59860 0.52830 0.52080 0.27000
H 	H 	0.53930 0.50140 0.52280 0.26400
O 	O 	0.77880 0.59110 0.25960 -0.46100
N 	N 	0.85390 0.54900 0.27210 -0.37500
C 	C 	0.79970 0.55160 0.26910 -0.20100
C 	C 	0.76520 0.50280 0.27210 1.43700
H 	H 	0.76350 0.48420 0.25620 -0.44800
H 	H 	0.72780 0.51050 0.27790 -0.21200
H 	H 	0.78410 0.48110 0.28450 -1.02000
C 	C 	0.88700 0.59540 0.26750 -0.53500
H 	H 	0.86680 0.61650 0.25540 0.07300
H 	H 	0.92320 0.58620 0.26060 0.05600
H 	H 	0.89200 0.61530 0.28290 0.16900
C 	C 	0.88490 0.50670 0.28330 -0.18100
H 	H 	0.89500 0.51470 0.30060 0.06400
H 	H 	0.91840 0.50290 0.27330 -0.02400
H 	H 	0.86380 0.47410 0.28280 0.02000
O 	O 	0.79320 0.59770 0.26030 0.17000
N 	N 	0.83760 0.52870 0.27530 0.12100
C 	C 	0.83780 0.57550 0.26470 0.59400
C 	C 	0.88930 0.59340 0.25120 -0.03100
H 	H 	0.88980 0.58370 0.23360 -0.04600
H 	H 	0.91870 0.57480 0.26000 0.06400
H 	H 	0.89520 0.63110 0.25280 0.02100
C 	C 	0.78520 0.50780 0.28400 -0.11500
H 	H 	0.75780 0.52990 0.27580 -0.46200
H 	H 	0.77970 0.50930 0.30210 0.15600
H 	H 	0.78100 0.47170 0.27830 0.62100
C 	C 	0.88060 0.48940 0.27340 0.08900
H 	H 	0.87280 0.46160 0.26140 -0.04800
H 	H 	0.88080 0.47480 0.29030 0.02100
H 	H 	0.91660 0.50480 0.26970 0.02700
O 	O 	0.47630 0.02520 0.26270 2.05800
N 	N 	0.39270 0.06110 0.26402 0.94200
C 	C 	0.44300 0.05790 0.25465 3.80500
C 	C 	0.46030 0.09620 0.23480 -0.36900
H 	H 	0.46370 0.13110 0.24200 0.06100
H 	H 	0.43300 0.09680 0.22140 -0.44300
H 	H 	0.49610 0.08530 0.22800 0.14300
C 	C 	0.37530 0.02450 0.28320 9.32600
H 	H 	0.36170 0.99250 0.27530 -1.23600
H 	H 	0.34570 0.04040 0.29300 -1.18800
H 	H 	0.40640 0.01620 0.29410 -11.59100
C 	C 	0.34800 0.09390 0.25510 0.21300
H 	H 	0.35740 0.10720 0.23850 -0.00400
H 	H 	0.34430 0.12310 0.26670 0.04800
H 	H 	0.31310 0.07470 0.25420 0.15900
O 	O 	0.46650 0.02180 0.26700 -1.97800
N 	N 	0.40540 0.08020 0.25300 -0.96800
C 	C 	0.42000 0.04190 0.26810 -5.04000
C 	C 	0.38310 0.02960 0.29010 6.10800
H 	H 	0.34710 0.01840 0.28380 -5.55600
H 	H 	0.37850 0.06020 0.30080 -1.79300
H 	H 	0.39980 0.00120 0.29970 6.81900
C 	C 	0.44370 0.09920 0.23420 -0.72500
H 	H 	0.44460 0.13740 0.23470 0.28900
H 	H 	0.43200 0.08750 0.21770 0.69800
H 	H 	0.48060 0.08550 0.23780 -0.24400
C 	C 	0.35850 0.11480 0.25660 -0.07000
H 	H 	0.32600 0.09360 0.26030 -0.21000
H 	H 	0.35200 0.13490 0.24140 -0.00300
H 	H 	0.36540 0.13880 0.27050 -0.00100
O 	O 	0.38820 0.68960 0.09760 -2.34400
N 	N 	0.29780 0.70620 0.09787 -1.01100
C 	C 	0.34790 0.71150 0.10723 -3.77900
C 	C 	0.35510 0.74070 0.13150 -0.62100
H 	H 	0.33610 0.72050 0.14430 4.89800
H 	H 	0.33870 0.77550 0.13040 14.60800
H 	H 	0.39420 0.74390 0.13580 2.80300
C 	C 	0.28990 0.67690 0.07490 -2.18200
H 	H 	0.27720 0.70110 0.06210 1.37600
H 	H 	0.26280 0.64890 0.07700 0.18200
H 	H 	0.32540 0.66190 0.07000 0.21500
C 	C 	0.24890 0.73500 0.10540 -0.24800
H 	H 	0.22730 0.71330 0.11680 -1.27200
H 	H 	0.22670 0.74330 0.09070 -0.12800
H 	H 	0.25950 0.76740 0.11380 0.55300
O 	O 	0.38340 0.69130 0.09067 2.06700
N 	N 	0.31110 0.71780 0.11319 -0.16800
C 	C 	0.33300 0.69860 0.09259 3.88800
C 	C 	0.29650 0.69130 0.06999 -1.54200
H 	H 	0.29280 0.72430 0.06100 -0.68300
H 	H 	0.26010 0.67960 0.07550 1.02200
H 	H 	0.31270 0.66500 0.05900 0.46000
C 	C 	0.34650 0.73060 0.13419 7.27800
H 	H 	0.38140 0.71170 0.13250 -2.48800
H 	H 	0.32880 0.72110 0.14990 -7.05400
H 	H 	0.35370 0.76820 0.13400 -16.81800
C 	C 	0.25520 0.73750 0.11614 -0.51500
H 	H 	0.25240 0.77140 0.10780 -0.77000
H 	H 	0.24680 0.74150 0.13390 0.05200
H 	H 	0.22900 0.71310 0.10860 1.55300
O 	O 	0.44186 0.57050 0.09687 -0.44900
N 	N 	0.37260 0.52800 0.07834 -0.07600
C 	C 	0.39310 0.55570 0.09689 0.33100
C 	C 	0.35630 0.56820 0.11880 -0.10500
H 	H 	0.37810 0.58520 0.13180 -0.10200
H 	H 	0.34150 0.53530 0.12520 -0.95800
H 	H 	0.32590 0.59100 0.11390 0.07000
C 	C 	0.40600 0.51640 0.05654 -0.50300
H 	H 	0.38580 0.52610 0.04150 0.28000
H 	H 	0.41460 0.47910 0.05600 0.62600
H 	H 	0.44020 0.53650 0.05750 0.16100
C 	C 	0.31840 0.50370 0.07790 -0.10900
H 	H 	0.31770 0.47290 0.08860 0.06300
H 	H 	0.30980 0.49350 0.06080 0.03500
H 	H 	0.29090 0.52890 0.08370 0.06500
O 	O 	0.44540 0.56620 0.08640 0.02500
N 	N 	0.35830 0.53950 0.09120 -0.12300
C 	C 	0.40550 0.54040 0.07880 0.11400
C 	C 	0.41340 0.50290 0.05730 -0.09900
H 	H 	0.45180 0.50310 0.05170 -0.07100
H 	H 	0.38970 0.51670 0.04410 -0.13000
H 	H 	0.40230 0.46710 0.06120 -0.41800
C 	C 	0.35330 0.56700 0.11470 -0.50300
H 	H 	0.38350 0.59230 0.11590 0.22000
H 	H 	0.35440 0.54370 0.12920 1.16400
H 	H 	0.31800 0.58560 0.11450 0.13600
C 	C 	0.30890 0.51080 0.08440 -0.02700
H 	H 	0.29460 0.52210 0.06820 0.01300
H 	H 	0.28050 0.51560 0.09710 0.01500
H 	H 	0.31910 0.47390 0.08350 0.00700
O 	O 	0.85361 0.82860 0.41660 -4.10400
N 	N 	0.92348 0.79710 0.43915 -5.88000
C 	C 	0.90280 0.81530 0.41811 -22.89000
C 	C 	0.94080 0.82380 0.39617 1.29200
H 	H 	0.92020 0.83930 0.38240 -1.19200
H 	H 	0.97100 0.84720 0.40100 1.28500
H 	H 	0.95610 0.79020 0.39100 -0.31400
C 	C 	0.88760 0.78860 0.46048 -11.50600
H 	H 	0.87830 0.75160 0.46190 1.34800
H 	H 	0.90640 0.80010 0.47560 -4.44200
H 	H 	0.85380 0.80890 0.45820 2.15300
C 	C 	0.97960 0.77920 0.44329 -1.52200
H 	H 	0.99640 0.79940 0.45680 0.41900
H 	H 	0.97910 0.74220 0.44780 -0.58000
H 	H 	0.00120 0.78390 0.42800 0.24000
O 	O 	0.84670 0.68080 0.91690 2.91800
N 	N 	0.93590 0.69600 0.92460 8.79500
C 	C 	0.88350 0.69490 0.93150 22.14400
C 	C 	0.86830 0.71430 0.95720 -7.65300
H 	H 	0.87990 0.75080 0.95850 3.47400
H 	H 	0.88720 0.69370 0.96990 11.51900
H 	H 	0.82840 0.71190 0.95960 0.89800
C 	C 	0.95140 0.67900 0.89970 3.36900
H 	H 	0.92120 0.65790 0.89300 1.50800
H 	H 	0.98470 0.65760 0.90090 -2.71900
H 	H 	0.95840 0.70860 0.88860 -0.67800
C 	C 	0.98030 0.72280 0.93750 -0.77900
H 	H 	0.96640 0.73820 0.95300 1.93800
H 	H 	0.99490 0.75040 0.92670 0.27200
H 	H 	0.00980 0.69790 0.94140 0.40100
O 	O 	0.80650 0.96280 0.43242 -0.45900
N 	N 	0.88480 0.00410 0.42244 -0.39100
C 	C 	0.83920 0.99930 0.43573 -0.63400
C 	C 	0.82990 0.03670 0.45712 -0.17800
H 	H 	0.80210 0.02240 0.46840 -0.02600
H 	H 	0.86470 0.04130 0.46610 0.08000
H 	H 	0.81730 0.07040 0.45080 0.08600
C 	C 	0.89460 0.96990 0.40131 -0.88800
H 	H 	0.86360 0.94570 0.39960 0.15700
H 	H 	0.89810 0.99070 0.38610 -0.09200
H 	H 	0.92860 0.95010 0.40400 0.30700
C 	C 	0.92460 0.04630 0.42440 0.24700
H 	H 	0.92360 0.05830 0.44170 -0.69500
H 	H 	0.96090 0.03120 0.42090 -0.11800
H 	H 	0.91790 0.07570 0.41320 -0.45800
O 	O 	0.80370 0.53370 0.92560 0.02900
N 	N 	0.86850 0.47400 0.93330 0.11600
C 	C 	0.85060 0.51620 0.92160 1.13700
C 	C 	0.89060 0.54700 0.90580 -0.51500
H 	H 	0.88970 0.53370 0.88870 0.61700
H 	H 	0.92790 0.54320 0.91250 0.17400
H 	H 	0.88020 0.58390 0.90580 0.43800
C 	C 	0.83080 0.44380 0.94860 -0.06900
H 	H 	0.80170 0.46700 0.95460 0.17800
H 	H 	0.85090 0.42920 0.96280 0.01600
H 	H 	0.81440 0.41540 0.93890 -0.05400
C 	C 	0.92160 0.44880 0.92960 0.15000
H 	H 	0.91150 0.41750 0.92020 0.37500
H 	H 	0.94130 0.43860 0.94480 0.52600
H 	H 	0.94550 0.47100 0.91940 0.03000
O 	O 	0.44070 0.55840 0.42430 -0.24100
N 	N 	0.37460 0.50740 0.40822 -0.26100
C 	C 	0.39280 0.54150 0.42477 -0.15400
C 	C 	0.35380 0.55980 0.44493 0.00500
H 	H 	0.37360 0.58180 0.45680 -0.13000
H 	H 	0.32340 0.57970 0.43750 -0.16600
H 	H 	0.33890 0.52930 0.45360 -0.01000
C 	C 	0.41160 0.48550 0.38970 -0.26600
H 	H 	0.44650 0.50480 0.39020 0.08200
H 	H 	0.41860 0.44850 0.39290 0.34500
H 	H 	0.39480 0.48940 0.37320 0.10900
C 	C 	0.32060 0.48250 0.40872 -0.10300
H 	H 	0.29390 0.50580 0.41670 0.05300
H 	H 	0.30870 0.47500 0.39170 0.13300
H 	H 	0.32290 0.44990 0.41820 0.03500
O 	O 	0.44450 0.95150 0.92100 -0.09700
N 	N 	0.35640 0.97690 0.91919 0.00900
C 	C 	0.40790 0.97810 0.91100 0.47900
C 	C 	0.42270 0.01500 0.89010 -0.07700
H 	H 	0.46240 0.02200 0.89000 -0.01800
H 	H 	0.40250 0.04770 0.89270 -0.20200
H 	H 	0.41190 0.99980 0.87410 -0.01200
C 	C 	0.34170 0.94380 0.94010 -0.17200
H 	H 	0.37410 0.93990 0.95090 0.14800
H 	H 	0.33030 0.90940 0.93400 0.21000
H 	H 	0.31150 0.95940 0.94960 0.06100
C 	C 	0.30930 0.00300 0.90800 0.01400
H 	H 	0.31970 0.01740 0.89180 -0.09200
H 	H 	0.29750 0.03130 0.91910 -0.02200
H 	H 	0.27900 0.97820 0.90590 -0.04200
K 	K 	0.74230 0.81321 0.76158 0.64600
K 	K 	0.47431 0.57739 0.77390 0.65000
K 	K 	0.48605 0.83873 0.59362 0.66100
K 	K 	0.75912 0.62006 0.60943 0.61000
K 	K 	0.76056 0.62749 0.92755 0.54900
K 	K 	0.48700 0.85867 0.94070 0.62900
Zn	Zn	0.59941 0.73129 0.84986 1.17400
O 	O 	0.52082 0.83637 0.89794 -0.36300
O 	O 	0.69771 0.62687 0.89012 -0.40400
O 	O 	0.67423 0.82787 0.79706 -0.34100
O 	O 	0.50264 0.61740 0.81456 -0.38900
N 	N 	0.57070 0.77263 0.87819 -0.31500
N 	N 	0.64339 0.69326 0.87529 -0.30100
N 	N 	0.61838 0.77312 0.81991 -0.30800
N 	N 	0.56045 0.68415 0.82646 -0.31400
N 	N 	0.51032 0.82260 0.85601 -0.31800
H 	H 	0.51430 0.79940 0.84410 0.07800
N 	N 	0.70240 0.65060 0.84977 -0.35900
H 	H 	0.69300 0.67490 0.83910 0.08400
N 	N 	0.66121 0.84164 0.83866 -0.33000
H 	H 	0.64750 0.82860 0.85250 0.11000
N 	N 	0.53823 0.61992 0.85396 -0.31700
H 	H 	0.55310 0.64040 0.86520 0.08500
C 	C 	0.46630 0.86620 0.82248 -0.83800
H 	H 	0.44280 0.83580 0.81930 0.23100
H 	H 	0.44710 0.89790 0.81720 0.22400
H 	H 	0.50080 0.86260 0.81320 0.23100
C 	C 	0.47887 0.86965 0.85010 0.59700
C 	C 	0.51260 0.91850 0.85563 -0.85900
H 	H 	0.52210 0.91940 0.87330 0.27900
H 	H 	0.54650 0.91800 0.84570 0.23400
H 	H 	0.49100 0.94950 0.85140 0.24200
C 	C 	0.42500 0.87170 0.86478 -0.83200
H 	H 	0.40480 0.83910 0.86250 0.22900
H 	H 	0.43320 0.87660 0.88250 0.24900
H 	H 	0.40260 0.90090 0.85880 0.23500
C 	C 	0.53444 0.81140 0.87880 0.26600
C 	C 	0.59834 0.75795 0.90127 -0.05500
H 	H 	0.62920 0.78230 0.90450 0.00100
H 	H 	0.57210 0.76070 0.91530 0.01800
C 	C 	0.62038 0.70268 0.89984 -0.07300
H 	H 	0.59020 0.67760 0.90310 0.01400
H 	H 	0.64920 0.69760 0.91260 0.02300
C 	C 	0.68093 0.65540 0.87325 0.24300
C 	C 	0.73860 0.61040 0.84054 0.61600
C 	C 	0.74760 0.62050 0.81305 -0.90700
H 	H 	0.76490 0.65470 0.81080 0.29100
H 	H 	0.77160 0.59340 0.80610 0.27300
H 	H 	0.71200 0.61990 0.80440 0.26900
C 	C 	0.71170 0.55830 0.84375 -0.91200
H 	H 	0.70460 0.55210 0.86140 0.29300
H 	H 	0.67680 0.55770 0.83460 0.27300
H 	H 	0.73610 0.53100 0.83730 0.26200
C 	C 	0.79260 0.61060 0.85370 -0.72800
H 	H 	0.80870 0.64550 0.85280 0.05200
H 	H 	0.78700 0.60080 0.87110 0.17900
H 	H 	0.81740 0.58550 0.84580 0.22800
C 	C 	0.68620 0.90840 0.86767 -0.99100
H 	H 	0.70310 0.88240 0.87860 0.29300
H 	H 	0.70490 0.94190 0.86990 0.28900
H 	H 	0.64720 0.91210 0.87190 0.29700
C 	C 	0.69180 0.89100 0.84066 0.74000
C 	C 	0.75290 0.88230 0.83453 -1.10900
H 	H 	0.75650 0.87090 0.81720 0.39800
H 	H 	0.77320 0.91500 0.83690 0.33900
H 	H 	0.76810 0.85560 0.84560 0.47200
C 	C 	0.66840 0.93240 0.82357 -0.97600
H 	H 	0.67170 0.92090 0.80630 0.30700
H 	H 	0.62950 0.93820 0.82760 0.25700
H 	H 	0.68900 0.96490 0.82580 0.27700
C 	C 	0.65200 0.81380 0.81700 0.28800
C 	C 	0.60650 0.74250 0.79757 -0.08100
H 	H 	0.60000 0.76600 0.78330 0.03600
H 	H 	0.63830 0.71980 0.79360 0.02200
C 	C 	0.55550 0.70940 0.80237 -0.06400
H 	H 	0.55170 0.68270 0.78920 0.02700
H 	H 	0.52220 0.73170 0.80210 0.00600
C 	C 	0.53267 0.64020 0.83034 0.27100
C 	C 	0.52180 0.56760 0.86209 0.57200
C 	C 	0.54270 0.56170 0.88857 -0.87400
H 	H 	0.58280 0.56550 0.88880 0.28200
H 	H 	0.52590 0.58860 0.89910 0.25000
H 	H 	0.53260 0.52720 0.89490 0.27200
C 	C 	0.45870 0.56270 0.86192 -0.69500
H 	H 	0.44270 0.58920 0.87290 0.17000
H 	H 	0.44500 0.56780 0.84500 0.13200
H 	H 	0.44810 0.52800 0.86780 0.16900
C 	C 	0.54690 0.52540 0.84570 -0.84800
H 	H 	0.58710 0.52900 0.84560 0.24100
H 	H 	0.53690 0.49110 0.85220 0.24600
H 	H 	0.53280 0.52900 0.82870 0.27300
Zn	Zn	0.60421 0.68896 0.68080 1.17400
O 	O 	0.71168 0.79224 0.71717 -0.35500
O 	O 	0.51759 0.60041 0.73367 -0.38100
O 	O 	0.52010 0.78539 0.63017 -0.29000
O 	O 	0.69737 0.57674 0.64338 -0.37800
N 	N 	0.64522 0.73392 0.70455 -0.31500
N 	N 	0.57108 0.65655 0.71054 -0.31300
N 	N 	0.57361 0.72599 0.65151 -0.29400
N 	N 	0.63616 0.64017 0.65595 -0.31700
N 	N 	0.69170 0.78218 0.67600 -0.32700
H 	H 	0.67120 0.76540 0.66520 0.08200
N 	N 	0.49969 0.61257 0.69231 -0.33300
H 	H 	0.50220 0.63520 0.68010 0.12700
N 	N 	0.52935 0.79064 0.67270 -0.36000
H 	H 	0.53240 0.77130 0.68610 0.11000
N 	N 	0.65904 0.57415 0.68228 -0.34000
H 	H 	0.64120 0.59240 0.69350 0.09200
C 	C 	0.72150 0.81940 0.63774 -0.85500
H 	H 	0.72960 0.78460 0.63120 0.23100
H 	H 	0.68310 0.82840 0.63410 0.24100
H 	H 	0.74600 0.84490 0.62980 0.23500
C 	C 	0.73070 0.82010 0.66587 0.63800
C 	C 	0.78970 0.80360 0.67184 -0.85200
H 	H 	0.79410 0.80030 0.68990 0.24900
H 	H 	0.79760 0.77010 0.66390 0.22600
H 	H 	0.81540 0.83000 0.66560 0.23200
C 	C 	0.72030 0.87410 0.67564 -0.97100
H 	H 	0.72730 0.87490 0.69360 0.34700
H 	H 	0.74500 0.89880 0.66730 0.28200
H 	H 	0.68200 0.88390 0.67240 0.34600
C 	C 	0.68370 0.77000 0.70059 0.27400
C 	C 	0.63110 0.72090 0.72999 -0.06000
H 	H 	0.66490 0.72180 0.74030 0.01900
H 	H 	0.60550 0.74760 0.73660 0.01900
C 	C 	0.60510 0.66870 0.73222 -0.08300
H 	H 	0.58200 0.66780 0.74740 0.04100
H 	H 	0.63420 0.64200 0.73400 0.01700
C 	C 	0.52980 0.62290 0.71364 0.28400
C 	C 	0.46390 0.56700 0.68845 0.66300
C 	C 	0.45020 0.56620 0.66102 -1.01800
H 	H 	0.48420 0.56320 0.65130 0.31400
H 	H 	0.42630 0.53630 0.65740 0.28800
H 	H 	0.43110 0.59850 0.65650 0.38600
C 	C 	0.41070 0.57190 0.70364 -0.91000
H 	H 	0.39010 0.60260 0.69810 0.29800
H 	H 	0.38810 0.54060 0.70120 0.25400
H 	H 	0.41980 0.57550 0.72130 0.26600
C 	C 	0.49310 0.51730 0.69553 -0.81000
H 	H 	0.52770 0.51450 0.68620 0.21600
H 	H 	0.50100 0.51750 0.71340 0.17600
H 	H 	0.46950 0.48740 0.69160 0.18400
C 	C 	0.51390 0.85440 0.70372 -1.22500
H 	H 	0.48720 0.83130 0.71180 0.35100
H 	H 	0.55090 0.84680 0.71000 0.40600
H 	H 	0.50450 0.89070 0.70730 0.45700
C 	C 	0.51240 0.84550 0.67578 0.93500
C 	C 	0.45360 0.85430 0.66651 -1.31700
H 	H 	0.42830 0.83130 0.67550 0.49700
H 	H 	0.44310 0.89070 0.66940 0.40800
H 	H 	0.45170 0.84670 0.64870 0.49700
C 	C 	0.55160 0.88180 0.66253 -1.23100
H 	H 	0.54970 0.87550 0.64460 0.34800
H 	H 	0.54120 0.91800 0.66600 0.45800
H 	H 	0.58920 0.87560 0.66840 0.43500
C 	C 	0.54077 0.76750 0.64977 0.29700
C 	C 	0.58420 0.69650 0.62883 -0.12900
H 	H 	0.55330 0.67230 0.62560 0.13700
H 	H 	0.58740 0.72050 0.61450 0.06700
C 	C 	0.63778 0.66565 0.63187 -0.03000
H 	H 	0.66980 0.68940 0.63090 -0.02900
H 	H 	0.64120 0.63940 0.61850 0.01800
C 	C 	0.66567 0.59677 0.65926 0.26300
C 	C 	0.67890 0.52250 0.68991 0.71500
C 	C 	0.65550 0.51380 0.71591 -0.96500
H 	H 	0.61520 0.51630 0.71530 0.27100
H 	H 	0.66610 0.47920 0.72190 0.30700
H 	H 	0.67000 0.54040 0.72720 0.30500
C 	C 	0.74150 0.52140 0.69083 -1.08000
H 	H 	0.75630 0.53180 0.67460 0.29600
H 	H 	0.75450 0.54560 0.70360 0.39000
H 	H 	0.75400 0.48610 0.69480 0.46700
C 	C 	0.65780 0.48000 0.67254 -0.95600
H 	H 	0.61780 0.48290 0.67090 0.26500
H 	H 	0.67490 0.48410 0.65620 0.28600
H 	H 	0.66730 0.44580 0.67940 0.26700
Zn	Zn	0.63460 0.73434 0.51554 1.17200
O 	O 	0.54054 0.84757 0.55282 -0.36400
O 	O 	0.72199 0.64150 0.56615 -0.37200
O 	O 	0.72718 0.67603 0.96551 -0.61100
O 	O 	0.54557 0.88122 0.97827 -0.38200
N 	N 	0.59767 0.78158 0.53948 -0.31000
N 	N 	0.67106 0.70317 0.54500 -0.31400
N 	N 	0.66878 0.73252 0.98609 -0.33400
N 	N 	0.60509 0.81775 0.99148 -0.31100
N 	N 	0.55013 0.83074 0.51131 -0.31900
H 	H 	0.57140 0.81590 0.50010 0.09000
N 	N 	0.73829 0.65789 0.52478 -0.30700
H 	H 	0.74290 0.68450 0.51470 0.06100
N 	N 	0.70126 0.65960 0.00576 -0.30600
H 	H 	0.69260 0.67500 0.01980 0.07000
N 	N 	0.56577 0.87218 0.01963 -0.32500
H 	H 	0.58080 0.85190 0.03090 0.08100
C 	C 	0.50770 0.85900 0.47371 -0.85500
H 	H 	0.50090 0.82270 0.46890 0.24500
H 	H 	0.47940 0.88140 0.46630 0.23600
H 	H 	0.54410 0.86970 0.46770 0.24500
C 	C 	0.50560 0.86380 0.50203 0.62900
C 	C 	0.51480 0.92020 0.50926 -0.86200
H 	H 	0.51780 0.92290 0.52740 0.25600
H 	H 	0.54900 0.93290 0.50160 0.23900
H 	H 	0.48380 0.94140 0.50350 0.23800
C 	C 	0.45000 0.84550 0.51159 -0.88200
H 	H 	0.44490 0.80860 0.50740 0.28100
H 	H 	0.44860 0.84970 0.52970 0.19600
H 	H 	0.42070 0.86620 0.50390 0.22000
C 	C 	0.56195 0.82050 0.53594 0.28000
C 	C 	0.61865 0.77316 0.56463 -0.07100
H 	H 	0.64820 0.79870 0.56820 0.01400
H 	H 	0.58860 0.77880 0.57680 0.01800
C 	C 	0.64125 0.71808 0.56751 -0.08100
H 	H 	0.61060 0.69350 0.57040 0.01800
H 	H 	0.66630 0.71660 0.58200 0.03000
C 	C 	0.70919 0.66624 0.54681 0.25900
C 	C 	0.76160 0.60759 0.51734 0.53000
C 	C 	0.77890 0.61380 0.49026 -0.70800
H 	H 	0.80610 0.64190 0.48890 0.12500
H 	H 	0.79520 0.58120 0.48430 0.18100
H 	H 	0.74660 0.62240 0.48020 0.17200
C 	C 	0.81170 0.59340 0.53282 -0.76300
H 	H 	0.83980 0.62050 0.53100 0.20100
H 	H 	0.80100 0.59060 0.55030 0.21000
H 	H 	0.82660 0.56000 0.52710 0.20500
C 	C 	0.71720 0.56530 0.51922 -0.80000
H 	H 	0.68520 0.57540 0.50930 0.23500
H 	H 	0.73200 0.53230 0.51290 0.22600
H 	H 	0.70620 0.56100 0.53660 0.24100
C 	C 	0.70220 0.58620 0.03298 -0.68900
H 	H 	0.72430 0.60610 0.04490 0.19500
H 	H 	0.71060 0.54900 0.03460 0.19200
H 	H 	0.66300 0.59200 0.03630 0.20200
C 	C 	0.71580 0.60410 0.00673 0.40900
C 	C 	0.77810 0.59760 0.00187 -0.44100
H 	H 	0.78680 0.60980 0.98510 -0.06700
H 	H 	0.78810 0.56080 0.00340 0.10600
H 	H 	0.79880 0.61820 0.01400 0.04900
C 	C 	0.68280 0.57250 0.98771 -0.65600
H 	H 	0.69080 0.58530 0.97090 0.18300
H 	H 	0.64340 0.57620 0.99110 0.18700
H 	H 	0.69320 0.53570 0.98890 0.18000
C 	C 	0.70009 0.68960 0.98422 0.28100
C 	C 	0.66570 0.76750 0.96485 -0.02800
H 	H 	0.66720 0.74730 0.94920 -0.01400
H 	H 	0.69730 0.79200 0.96510 -0.08200
C 	C 	0.61210 0.79760 0.96632 -0.09100
H 	H 	0.61260 0.82680 0.95430 0.02200
H 	H 	0.58090 0.77440 0.96210 0.01300
C 	C 	0.57140 0.85750 0.99498 0.28800
C 	C 	0.53660 0.91900 0.02839 0.68800
C 	C 	0.54640 0.92050 0.05651 -1.00100
H 	H 	0.53130 0.88890 0.06410 0.34900
H 	H 	0.52810 0.95120 0.06360 0.31900
H 	H 	0.58600 0.92240 0.05980 0.30800
C 	C 	0.47450 0.91490 0.02339 -0.92900
H 	H 	0.46810 0.91190 0.00550 0.25500
H 	H 	0.45590 0.94600 0.02970 0.25500
H 	H 	0.45980 0.88390 0.03180 0.26900
C 	C 	0.55950 0.96820 0.01659 -0.93300
H 	H 	0.55540 0.96620 0.99850 0.27600
H 	H 	0.59860 0.97170 0.02080 0.27100
H 	H 	0.53930 0.99860 0.02280 0.26400
O 	O 	0.77880 0.90890 0.75960 -0.46300
N 	N 	0.85390 0.95100 0.77210 -0.37600
C 	C 	0.79970 0.94840 0.76910 -0.20400
C 	C 	0.76520 0.99720 0.77210 1.48000
H 	H 	0.76350 0.01580 0.75620 -0.46100
H 	H 	0.72780 0.98950 0.77790 -0.21800
H 	H 	0.78410 0.01890 0.78450 -1.04800
C 	C 	0.88700 0.90460 0.76750 -0.53400
H 	H 	0.86680 0.88350 0.75540 0.07300
H 	H 	0.92320 0.91380 0.76060 0.05500
H 	H 	0.89200 0.88470 0.78290 0.16900
C 	C 	0.88490 0.99330 0.78330 -0.17500
H 	H 	0.89500 0.98530 0.80060 0.06200
H 	H 	0.91840 0.99710 0.77330 -0.02400
H 	H 	0.86380 0.02590 0.78280 0.02400
O 	O 	0.79320 0.90230 0.76030 0.17300
N 	N 	0.83760 0.97130 0.77530 0.12000
C 	C 	0.83780 0.92450 0.76470 0.59600
C 	C 	0.88930 0.90660 0.75120 -0.03200
H 	H 	0.88980 0.91630 0.73360 -0.04500
H 	H 	0.91870 0.92520 0.76000 0.06400
H 	H 	0.89520 0.86890 0.75280 0.02100
C 	C 	0.78520 0.99220 0.78400 -0.11700
H 	H 	0.75780 0.97010 0.77580 -0.47800
H 	H 	0.77970 0.99070 0.80210 0.15900
H 	H 	0.78100 0.02830 0.77830 0.63800
C 	C 	0.88060 0.01060 0.77340 0.08200
H 	H 	0.87280 0.03840 0.76140 -0.04600
H 	H 	0.88080 0.02520 0.79030 0.01900
H 	H 	0.91660 0.99520 0.76970 0.02600
O 	O 	0.47630 0.47480 0.76270 2.04600
N 	N 	0.39270 0.43890 0.76402 0.93500
C 	C 	0.44300 0.44210 0.75465 3.78300
C 	C 	0.46030 0.40380 0.73480 -0.36700
H 	H 	0.46370 0.36890 0.74200 0.06100
H 	H 	0.43300 0.40320 0.72140 -0.44100
H 	H 	0.49610 0.41470 0.72800 0.14200
C 	C 	0.37530 0.47550 0.78320 9.27500
H 	H 	0.36170 0.50750 0.77530 -1.23200
H 	H 	0.34570 0.45960 0.79300 -1.18300
H 	H 	0.40640 0.48380 0.79410 -11.53000
C 	C 	0.34800 0.40610 0.75510 0.21000
H 	H 	0.35740 0.39280 0.73850 -0.00300
H 	H 	0.34430 0.37690 0.76670 0.04800
H 	H 	0.31310 0.42530 0.75420 0.15700
O 	O 	0.46650 0.47820 0.76700 -1.96700
N 	N 	0.40540 0.41980 0.75300 -0.96200
C 	C 	0.42000 0.45810 0.76810 -5.00900
C 	C 	0.38310 0.47040 0.79010 6.07600
H 	H 	0.34710 0.48160 0.78380 -5.52300
H 	H 	0.37850 0.43980 0.80080 -1.78300
H 	H 	0.39980 0.49880 0.79970 6.78400
C 	C 	0.44370 0.40080 0.73420 -0.72300
H 	H 	0.44460 0.36260 0.73470 0.28800
H 	H 	0.43200 0.41250 0.71770 0.69500
H 	H 	0.48060 0.41450 0.73780 -0.24100
C 	C 	0.35850 0.38520 0.75660 -0.07200
H 	H 	0.32600 0.40640 0.76030 -0.20700
H 	H 	0.35200 0.36510 0.74140 -0.00300
H 	H 	0.36540 0.36120 0.77050 -0.00100
O 	O 	0.38820 0.81040 0.59760 -2.34400
N 	N 	0.29780 0.79380 0.59787 -1.01000
C 	C 	0.34790 0.78850 0.60723 -3.77900
C 	C 	0.35510 0.75930 0.63150 -0.62200
H 	H 	0.33610 0.77950 0.64430 4.89900
H 	H 	0.33870 0.72450 0.63040 14.61100
H 	H 	0.39420 0.75610 0.63580 2.80300
C 	C 	0.28990 0.82310 0.57490 -2.18200
H 	H 	0.27720 0.79890 0.56210 1.37600
H 	H 	0.26280 0.85110 0.57700 0.18200
H 	H 	0.32540 0.83810 0.57000 0.21500
C 	C 	0.24890 0.76500 0.60540 -0.24800
H 	H 	0.22730 0.78670 0.61680 -1.27200
H 	H 	0.22670 0.75670 0.59070 -0.12800
H 	H 	0.25950 0.73260 0.61380 0.55400
O 	O 	0.38340 0.80870 0.59067 2.06700
N 	N 	0.31110 0.78220 0.61319 -0.16900
C 	C 	0.33300 0.80140 0.59259 3.88800
C 	C 	0.29650 0.80870 0.56999 -1.54200
H 	H 	0.29280 0.77570 0.56100 -0.68300
H 	H 	0.26010 0.82040 0.57550 1.02200
H 	H 	0.31270 0.83500 0.55900 0.46000
C 	C 	0.34650 0.76940 0.63419 7.27900
H 	H 	0.38140 0.78830 0.63250 -2.48900
H 	H 	0.32880 0.77890 0.64990 -7.05500
H 	H 	0.35370 0.73180 0.63400 -16.82100
C 	C 	0.25520 0.76250 0.61614 -0.51500
H 	H 	0.25240 0.72860 0.60780 -0.77100
H 	H 	0.24680 0.75850 0.63390 0.05200
H 	H 	0.22900 0.78690 0.60860 1.55300
O 	O 	0.44186 0.92950 0.59687 -0.45200
N 	N 	0.37260 0.97200 0.57834 -0.07500
C 	C 	0.39310 0.94430 0.59689 0.33200
C 	C 	0.35630 0.93180 0.61880 -0.10400
H 	H 	0.37810 0.91480 0.63180 -0.10400
H 	H 	0.34150 0.96470 0.62520 -0.96700
H 	H 	0.32590 0.90900 0.61390 0.07000
C 	C 	0.40600 0.98360 0.55654 -0.51000
H 	H 	0.38580 0.97390 0.54150 0.28300
H 	H 	0.41460 0.02090 0.55600 0.63400
H 	H 	0.44020 0.96350 0.55750 0.16300
C 	C 	0.31840 0.99630 0.57790 -0.11200
H 	H 	0.31770 0.02710 0.58860 0.06600
H 	H 	0.30980 0.00650 0.56080 0.03700
H 	H 	0.29090 0.97110 0.58370 0.06800
O 	O 	0.44540 0.93380 0.58640 0.02800
N 	N 	0.35830 0.96050 0.59120 -0.12300
C 	C 	0.40550 0.95960 0.57880 0.11300
C 	C 	0.41340 0.99710 0.55730 -0.10000
H 	H 	0.45180 0.99690 0.55170 -0.07200
H 	H 	0.38970 0.98330 0.54410 -0.13100
H 	H 	0.40230 0.03290 0.56120 -0.42400
C 	C 	0.35330 0.93300 0.61470 -0.50500
H 	H 	0.38350 0.90770 0.61590 0.22100
H 	H 	0.35440 0.95630 0.62920 1.17400
H 	H 	0.31800 0.91440 0.61450 0.13700
C 	C 	0.30890 0.98920 0.58440 -0.03000
H 	H 	0.29460 0.97790 0.56820 0.01300
H 	H 	0.28050 0.98440 0.59710 0.01400
H 	H 	0.31910 0.02610 0.58350 0.00800
O 	O 	0.85361 0.67140 0.91660 -4.10800
N 	N 	0.92348 0.70290 0.93915 -5.88500
C 	C 	0.90280 0.68470 0.91811 -22.90800
C 	C 	0.94080 0.67620 0.89617 1.29300
H 	H 	0.92020 0.66070 0.88240 -1.19300
H 	H 	0.97100 0.65280 0.90100 1.28600
H 	H 	0.95610 0.70980 0.89100 -0.31500
C 	C 	0.88760 0.71140 0.96048 -11.51500
H 	H 	0.87830 0.74840 0.96190 1.34900
H 	H 	0.90640 0.69990 0.97560 -4.44600
H 	H 	0.85380 0.69110 0.95820 2.15400
C 	C 	0.97960 0.72080 0.94329 -1.52300
H 	H 	0.99640 0.70060 0.95680 0.42000
H 	H 	0.97910 0.75780 0.94780 -0.58000
H 	H 	0.00120 0.71610 0.92800 0.24000
O 	O 	0.84670 0.81920 0.41690 2.91600
N 	N 	0.93590 0.80400 0.42460 8.78800
C 	C 	0.88350 0.80510 0.43150 22.12700
C 	C 	0.86830 0.78570 0.45720 -7.64800
H 	H 	0.87990 0.74920 0.45850 3.47100
H 	H 	0.88720 0.80630 0.46990 11.51000
H 	H 	0.82840 0.78810 0.45960 0.89700
C 	C 	0.95140 0.82100 0.39970 3.36600
H 	H 	0.92120 0.84210 0.39300 1.50700
H 	H 	0.98470 0.84240 0.40090 -2.71700
H 	H 	0.95840 0.79140 0.38860 -0.67700
C 	C 	0.98030 0.77720 0.43750 -0.77800
H 	H 	0.96640 0.76180 0.45300 1.93700
H 	H 	0.99490 0.74960 0.42670 0.27200
H 	H 	0.00980 0.80210 0.44140 0.40000
O 	O 	0.80650 0.53720 0.93242 -0.45700
N 	N 	0.88480 0.49590 0.92244 -0.38900
C 	C 	0.83920 0.50070 0.93573 -0.63200
C 	C 	0.82990 0.46330 0.95712 -0.18100
H 	H 	0.80210 0.47760 0.96840 -0.02600
H 	H 	0.86470 0.45870 0.96610 0.08100
H 	H 	0.81730 0.42960 0.95080 0.08900
C 	C 	0.89460 0.53010 0.90131 -0.88700
H 	H 	0.86360 0.55430 0.89960 0.15700
H 	H 	0.89810 0.50930 0.88610 -0.09300
H 	H 	0.92860 0.54990 0.90400 0.30700
C 	C 	0.92460 0.45370 0.92440 0.24800
H 	H 	0.92360 0.44170 0.94170 -0.70000
H 	H 	0.96090 0.46880 0.92090 -0.12000
H 	H 	0.91790 0.42430 0.91320 -0.46100
O 	O 	0.80370 0.96630 0.42560 0.03000
N 	N 	0.86850 0.02600 0.43330 0.11600
C 	C 	0.85060 0.98380 0.42160 1.14100
C 	C 	0.89060 0.95300 0.40580 -0.51500
H 	H 	0.88970 0.96630 0.38870 0.61700
H 	H 	0.92790 0.95680 0.41250 0.17500
H 	H 	0.88020 0.91610 0.40580 0.43700
C 	C 	0.83080 0.05620 0.44860 -0.06600
H 	H 	0.80170 0.03300 0.45460 0.17500
H 	H 	0.85090 0.07080 0.46280 0.01500
H 	H 	0.81440 0.08460 0.43890 -0.05300
C 	C 	0.92160 0.05120 0.42960 0.15000
H 	H 	0.91150 0.08250 0.42020 0.37200
H 	H 	0.94130 0.06140 0.44480 0.52200
H 	H 	0.94550 0.02900 0.41940 0.02900
O 	O 	0.44070 0.94160 0.92430 -0.24100
N 	N 	0.37460 0.99260 0.90822 -0.26300
C 	C 	0.39280 0.95850 0.92477 -0.15200
C 	C 	0.35380 0.94020 0.94493 0.00500
H 	H 	0.37360 0.91820 0.95680 -0.13000
H 	H 	0.32340 0.92030 0.93750 -0.16700
H 	H 	0.33890 0.97070 0.95360 -0.01100
C 	C 	0.41160 0.01450 0.88970 -0.25800
H 	H 	0.44650 0.99520 0.89020 0.07900
H 	H 	0.41860 0.05150 0.89290 0.33300
H 	H 	0.39480 0.01060 0.87320 0.11800
C 	C 	0.32060 0.01750 0.90872 -0.09600
H 	H 	0.29390 0.99420 0.91670 0.05000
H 	H 	0.30870 0.02500 0.89170 0.13100
H 	H 	0.32290 0.05010 0.91820 0.03300
O 	O 	0.44450 0.54850 0.42100 -0.09600
N 	N 	0.35640 0.52310 0.41919 0.00900
C 	C 	0.40790 0.52190 0.41100 0.48100
C 	C 	0.42270 0.48500 0.39010 -0.07800
H 	H 	0.46240 0.47800 0.39000 -0.02000
H 	H 	0.40250 0.45230 0.39270 -0.21100
H 	H 	0.41190 0.50020 0.37410 -0.00000
C 	C 	0.34170 0.55620 0.44010 -0.17200
H 	H 	0.37410 0.56010 0.45090 0.14800
H 	H 	0.33030 0.59060 0.43400 0.21000
H 	H 	0.31150 0.54060 0.44960 0.06100
C 	C 	0.30930 0.49700 0.40800 0.01300
H 	H 	0.31970 0.48260 0.39180 -0.09300
H 	H 	0.29750 0.46870 0.41910 -0.02200
H 	H 	0.27900 0.52180 0.40590 -0.04300
K 	K 	0.24230 0.68679 0.23842 0.64600
K 	K 	0.97431 0.92261 0.22610 0.65100
K 	K 	0.98605 0.66127 0.40638 0.66100
K 	K 	0.25912 0.87994 0.39057 0.61000
K 	K 	0.26056 0.87251 0.07245 0.54900
K 	K 	0.98700 0.64133 0.05930 0.62900
Zn	Zn	0.09941 0.76871 0.15014 1.17400
O 	O 	0.02082 0.66363 0.10206 -0.36300
O 	O 	0.19771 0.87313 0.10988 -0.40400
O 	O 	0.17423 0.67213 0.20294 -0.34200
O 	O 	0.00264 0.88260 0.18544 -0.38900
N 	N 	0.07070 0.72737 0.12181 -0.31500
N 	N 	0.14339 0.80674 0.12471 -0.30100
N 	N 	0.11838 0.72688 0.18009 -0.30800
N 	N 	0.06045 0.81585 0.17354 -0.31400
N 	N 	0.01032 0.67740 0.14399 -0.31800
H 	H 	0.01430 0.70060 0.15590 0.07700
N 	N 	0.20240 0.84940 0.15023 -0.36000
H 	H 	0.19300 0.82510 0.16090 0.08500
N 	N 	0.16121 0.65836 0.16134 -0.33000
H 	H 	0.14750 0.67140 0.14750 0.11000
N 	N 	0.03823 0.88008 0.14604 -0.31600
H 	H 	0.05310 0.85960 0.13480 0.08500
C 	C 	0.96630 0.63380 0.17752 -0.83800
H 	H 	0.94280 0.66420 0.18070 0.23100
H 	H 	0.94710 0.60210 0.18280 0.22500
H 	H 	0.00080 0.63740 0.18680 0.23100
C 	C 	0.97887 0.63035 0.14990 0.59800
C 	C 	0.01260 0.58150 0.14437 -0.86000
H 	H 	0.02210 0.58060 0.12670 0.27900
H 	H 	0.04650 0.58200 0.15430 0.23400
H 	H 	0.99100 0.55050 0.14860 0.24300
C 	C 	0.92500 0.62830 0.13522 -0.83300
H 	H 	0.90480 0.66090 0.13750 0.23000
H 	H 	0.93320 0.62340 0.11750 0.24900
H 	H 	0.90260 0.59910 0.14120 0.23500
C 	C 	0.03444 0.68860 0.12120 0.26600
C 	C 	0.09834 0.74205 0.09873 -0.05500
H 	H 	0.12920 0.71770 0.09550 0.00100
H 	H 	0.07210 0.73930 0.08470 0.01800
C 	C 	0.12038 0.79732 0.10016 -0.07300
H 	H 	0.09020 0.82240 0.09690 0.01400
H 	H 	0.14920 0.80240 0.08740 0.02300
C 	C 	0.18093 0.84460 0.12675 0.24300
C 	C 	0.23860 0.88960 0.15946 0.61800
C 	C 	0.24760 0.87950 0.18695 -0.90800
H 	H 	0.26490 0.84530 0.18920 0.29100
H 	H 	0.27160 0.90660 0.19390 0.27300
H 	H 	0.21200 0.88010 0.19560 0.27000
C 	C 	0.21170 0.94170 0.15625 -0.91400
H 	H 	0.20460 0.94790 0.13860 0.29400
H 	H 	0.17680 0.94230 0.16540 0.27500
H 	H 	0.23610 0.96900 0.16270 0.26300
C 	C 	0.29260 0.88940 0.14630 -0.73000
H 	H 	0.30870 0.85450 0.14720 0.05200
H 	H 	0.28700 0.89920 0.12890 0.17900
H 	H 	0.31740 0.91450 0.15420 0.22900
C 	C 	0.18620 0.59160 0.13233 -0.99200
H 	H 	0.20310 0.61760 0.12140 0.29300
H 	H 	0.20490 0.55810 0.13010 0.29000
H 	H 	0.14720 0.58790 0.12810 0.29700
C 	C 	0.19180 0.60900 0.15934 0.74000
C 	C 	0.25290 0.61770 0.16547 -1.11000
H 	H 	0.25650 0.62910 0.18280 0.39800
H 	H 	0.27320 0.58500 0.16310 0.33900
H 	H 	0.26810 0.64440 0.15440 0.47300
C 	C 	0.16840 0.56760 0.17643 -0.97700
H 	H 	0.17170 0.57910 0.19370 0.30700
H 	H 	0.12950 0.56180 0.17240 0.25800
H 	H 	0.18900 0.53510 0.17420 0.27800
C 	C 	0.15200 0.68620 0.18300 0.28800
C 	C 	0.10650 0.75750 0.20243 -0.08100
H 	H 	0.10000 0.73400 0.21670 0.03600
H 	H 	0.13830 0.78020 0.20640 0.02200
C 	C 	0.05550 0.79060 0.19763 -0.06400
H 	H 	0.05170 0.81730 0.21080 0.02700
H 	H 	0.02220 0.76830 0.19790 0.00600
C 	C 	0.03267 0.85980 0.16966 0.27100
C 	C 	0.02180 0.93240 0.13791 0.56900
C 	C 	0.04270 0.93830 0.11143 -0.87200
H 	H 	0.08280 0.93450 0.11120 0.28200
H 	H 	0.02590 0.91140 0.10090 0.24900
H 	H 	0.03260 0.97280 0.10510 0.27200
C 	C 	0.95870 0.93730 0.13808 -0.69300
H 	H 	0.94270 0.91080 0.12710 0.16900
H 	H 	0.94500 0.93220 0.15500 0.13200
H 	H 	0.94810 0.97200 0.13220 0.16900
C 	C 	0.04690 0.97460 0.15430 -0.84200
H 	H 	0.08710 0.97100 0.15440 0.24000
H 	H 	0.03690 0.00890 0.14780 0.24300
H 	H 	0.03280 0.97100 0.17130 0.27300
Zn	Zn	0.10421 0.81104 0.31920 1.17400
O 	O 	0.21168 0.70776 0.28283 -0.35500
O 	O 	0.01759 0.89959 0.26633 -0.38100
O 	O 	0.02010 0.71461 0.36983 -0.29000
O 	O 	0.19737 0.92326 0.35662 -0.37800
N 	N 	0.14522 0.76608 0.29545 -0.31500
N 	N 	0.07108 0.84345 0.28946 -0.31300
N 	N 	0.07361 0.77401 0.34849 -0.29500
N 	N 	0.13616 0.85983 0.34405 -0.31700
N 	N 	0.19170 0.71782 0.32400 -0.32700
H 	H 	0.17120 0.73460 0.33480 0.08200
N 	N 	0.99969 0.88743 0.30769 -0.33200
H 	H 	0.00220 0.86480 0.31990 0.12600
N 	N 	0.02935 0.70936 0.32730 -0.36000
H 	H 	0.03240 0.72870 0.31390 0.11000
N 	N 	0.15904 0.92585 0.31772 -0.33900
H 	H 	0.14120 0.90760 0.30650 0.09200
C 	C 	0.22150 0.68060 0.36226 -0.85500
H 	H 	0.22960 0.71540 0.36880 0.23100
H 	H 	0.18310 0.67160 0.36590 0.24100
H 	H 	0.24600 0.65510 0.37020 0.23500
C 	C 	0.23070 0.67990 0.33413 0.63800
C 	C 	0.28970 0.69640 0.32816 -0.85200
H 	H 	0.29410 0.69970 0.31010 0.24900
H 	H 	0.29760 0.72990 0.33610 0.22600
H 	H 	0.31540 0.67000 0.33440 0.23200
C 	C 	0.22030 0.62590 0.32436 -0.97000
H 	H 	0.22730 0.62510 0.30640 0.34600
H 	H 	0.24500 0.60120 0.33270 0.28200
H 	H 	0.18200 0.61610 0.32760 0.34600
C 	C 	0.18370 0.73000 0.29941 0.27400
C 	C 	0.13110 0.77910 0.27001 -0.06000
H 	H 	0.16490 0.77820 0.25970 0.01900
H 	H 	0.10550 0.75240 0.26340 0.01900
C 	C 	0.10510 0.83130 0.26778 -0.08300
H 	H 	0.08200 0.83220 0.25260 0.04100
H 	H 	0.13420 0.85800 0.26600 0.01700
C 	C 	0.02980 0.87710 0.28636 0.28300
C 	C 	0.96390 0.93300 0.31155 0.65700
C 	C 	0.95020 0.93380 0.33898 -1.01300
H 	H 	0.98420 0.93680 0.34870 0.31300
H 	H 	0.92630 0.96370 0.34260 0.28700
H 	H 	0.93110 0.90150 0.34350 0.38400
C 	C 	0.91070 0.92810 0.29636 -0.90600
H 	H 	0.89010 0.89740 0.30190 0.29700
H 	H 	0.88810 0.95940 0.29880 0.25400
H 	H 	0.91980 0.92450 0.27870 0.26600
C 	C 	0.99310 0.98270 0.30447 -0.79200
H 	H 	0.02770 0.98550 0.31380 0.21100
H 	H 	0.00100 0.98250 0.28660 0.17100
H 	H 	0.96950 0.01260 0.30840 0.17700
C 	C 	0.01390 0.64560 0.29628 -1.22400
H 	H 	0.98720 0.66870 0.28820 0.35100
H 	H 	0.05090 0.65320 0.29000 0.40600
H 	H 	0.00450 0.60930 0.29270 0.45600
C 	C 	0.01240 0.65450 0.32422 0.93400
C 	C 	0.95360 0.64570 0.33349 -1.31600
H 	H 	0.92830 0.66870 0.32450 0.49700
H 	H 	0.94310 0.60930 0.33060 0.40700
H 	H 	0.95170 0.65330 0.35130 0.49600
C 	C 	0.05160 0.61820 0.33747 -1.23000
H 	H 	0.04970 0.62450 0.35540 0.34800
H 	H 	0.04120 0.58200 0.33400 0.45700
H 	H 	0.08920 0.62440 0.33160 0.43400
C 	C 	0.04077 0.73250 0.35023 0.29700
C 	C 	0.08420 0.80350 0.37117 -0.12900
H 	H 	0.05330 0.82770 0.37440 0.13700
H 	H 	0.08740 0.77950 0.38550 0.06700
C 	C 	0.13778 0.83435 0.36813 -0.03000
H 	H 	0.16980 0.81060 0.36910 -0.02900
H 	H 	0.14120 0.86060 0.38150 0.01800
C 	C 	0.16567 0.90323 0.34074 0.26300
C 	C 	0.17890 0.97750 0.31009 0.71300
C 	C 	0.15550 0.98620 0.28409 -0.95600
H 	H 	0.11520 0.98370 0.28470 0.26900
H 	H 	0.16610 0.02080 0.27810 0.30300
H 	H 	0.17000 0.95960 0.27280 0.30300
C 	C 	0.24150 0.97860 0.30917 -1.07200
H 	H 	0.25630 0.96820 0.32540 0.29400
H 	H 	0.25450 0.95440 0.29640 0.38800
H 	H 	0.25400 0.01390 0.30520 0.46400
C 	C 	0.15780 0.02000 0.32746 -0.95500
H 	H 	0.11780 0.01710 0.32910 0.26500
H 	H 	0.17490 0.01590 0.34380 0.28600
H 	H 	0.16730 0.05420 0.32060 0.26600
Zn	Zn	0.13460 0.76566 0.48446 1.17200
O 	O 	0.04054 0.65243 0.44718 -0.36400
O 	O 	0.22199 0.85850 0.43385 -0.37200
O 	O 	0.22718 0.82397 0.03449 -0.61100
O 	O 	0.04557 0.61878 0.02173 -0.38200
N 	N 	0.09767 0.71842 0.46052 -0.31000
N 	N 	0.17106 0.79683 0.45500 -0.31400
N 	N 	0.16878 0.76748 0.01391 -0.33400
N 	N 	0.10509 0.68225 0.00852 -0.31100
N 	N 	0.05013 0.66926 0.48869 -0.31900
H 	H 	0.07140 0.68410 0.49990 0.09000
N 	N 	0.23829 0.84211 0.47522 -0.30700
H 	H 	0.24290 0.81550 0.48530 0.06100
N 	N 	0.20126 0.84040 0.99424 -0.30600
H 	H 	0.19260 0.82500 0.98020 0.07000
N 	N 	0.06577 0.62782 0.98037 -0.32500
H 	H 	0.08080 0.64810 0.96910 0.08100
C 	C 	0.00770 0.64100 0.52629 -0.85600
H 	H 	0.00090 0.67730 0.53110 0.24500
H 	H 	0.97940 0.61860 0.53370 0.23600
H 	H 	0.04410 0.63030 0.53230 0.24600
C 	C 	0.00560 0.63620 0.49797 0.62800
C 	C 	0.01480 0.57980 0.49074 -0.86200
H 	H 	0.01780 0.57710 0.47260 0.25700
H 	H 	0.04900 0.56710 0.49840 0.23900
H 	H 	0.98380 0.55860 0.49650 0.23800
C 	C 	0.95000 0.65450 0.48841 -0.88200
H 	H 	0.94490 0.69140 0.49260 0.28100
H 	H 	0.94860 0.65030 0.47030 0.19600
H 	H 	0.92070 0.63380 0.49610 0.22000
C 	C 	0.06195 0.67950 0.46406 0.28000
C 	C 	0.11865 0.72684 0.43537 -0.07100
H 	H 	0.14820 0.70130 0.43180 0.01400
H 	H 	0.08860 0.72120 0.42320 0.01800
C 	C 	0.14125 0.78192 0.43249 -0.08100
H 	H 	0.11060 0.80650 0.42960 0.01800
H 	H 	0.16630 0.78340 0.41800 0.03000
C 	C 	0.20919 0.83376 0.45319 0.25900
C 	C 	0.26160 0.89241 0.48266 0.53000
C 	C 	0.27890 0.88620 0.50974 -0.70800
H 	H 	0.30610 0.85810 0.51110 0.12500
H 	H 	0.29520 0.91880 0.51570 0.18100
H 	H 	0.24660 0.87760 0.51980 0.17200
C 	C 	0.31170 0.90660 0.46718 -0.76300
H 	H 	0.33980 0.87950 0.46900 0.20100
H 	H 	0.30100 0.90940 0.44970 0.21000
H 	H 	0.32660 0.94000 0.47290 0.20500
C 	C 	0.21720 0.93470 0.48078 -0.80000
H 	H 	0.18520 0.92460 0.49070 0.23500
H 	H 	0.23200 0.96770 0.48710 0.22600
H 	H 	0.20620 0.93900 0.46340 0.24100
C 	C 	0.20220 0.91380 0.96702 -0.68800
H 	H 	0.22430 0.89390 0.95510 0.19400
H 	H 	0.21060 0.95100 0.96540 0.19200
H 	H 	0.16300 0.90800 0.96370 0.20100
C 	C 	0.21580 0.89590 0.99327 0.40800
C 	C 	0.27810 0.90240 0.99813 -0.44100
H 	H 	0.28680 0.89020 0.01490 -0.06700
H 	H 	0.28810 0.93920 0.99660 0.10600
H 	H 	0.29880 0.88180 0.98600 0.04900
C 	C 	0.18280 0.92750 0.01229 -0.65600
H 	H 	0.19080 0.91470 0.02910 0.18300
H 	H 	0.14340 0.92380 0.00890 0.18700
H 	H 	0.19320 0.96430 0.01110 0.18000
C 	C 	0.20009 0.81040 0.01578 0.28100
C 	C 	0.16570 0.73250 0.03515 -0.02800
H 	H 	0.16720 0.75270 0.05080 -0.01400
H 	H 	0.19730 0.70800 0.03490 -0.08200
C 	C 	0.11210 0.70240 0.03368 -0.09100
H 	H 	0.11260 0.67320 0.04570 0.02200
H 	H 	0.08090 0.72560 0.03790 0.01300
C 	C 	0.07140 0.64250 0.00502 0.28800
C 	C 	0.03660 0.58100 0.97161 0.68700
C 	C 	0.04640 0.57950 0.94349 -1.00000
H 	H 	0.03130 0.61110 0.93590 0.34800
H 	H 	0.02810 0.54880 0.93640 0.31800
H 	H 	0.08600 0.57760 0.94020 0.30800
C 	C 	0.97450 0.58510 0.97661 -0.92800
H 	H 	0.96810 0.58810 0.99450 0.25400
H 	H 	0.95590 0.55400 0.97030 0.25500
H 	H 	0.95980 0.61610 0.96820 0.26900
C 	C 	0.05950 0.53180 0.98341 -0.93300
H 	H 	0.05540 0.53380 0.00150 0.27600
H 	H 	0.09860 0.52830 0.97920 0.27000
H 	H 	0.03930 0.50140 0.97720 0.26400
O 	O 	0.27880 0.59110 0.24040 -0.46100
N 	N 	0.35390 0.54900 0.22790 -0.37500
C 	C 	0.29970 0.55160 0.23090 -0.20100
C 	C 	0.26520 0.50280 0.22790 1.43700
H 	H 	0.26350 0.48420 0.24380 -0.44800
H 	H 	0.22780 0.51050 0.22210 -0.21200
H 	H 	0.28410 0.48110 0.21550 -1.02000
C 	C 	0.38700 0.59540 0.23250 -0.53500
H 	H 	0.36680 0.61650 0.24460 0.07300
H 	H 	0.42320 0.58620 0.23940 0.05600
H 	H 	0.39200 0.61530 0.21710 0.16900
C 	C 	0.38490 0.50670 0.21670 -0.18100
H 	H 	0.39500 0.51470 0.19940 0.06400
H 	H 	0.41840 0.50290 0.22670 -0.02400
H 	H 	0.36380 0.47410 0.21720 0.02000
O 	O 	0.29320 0.59770 0.23970 0.17000
N 	N 	0.33760 0.52870 0.22470 0.12100
C 	C 	0.33780 0.57550 0.23530 0.59400
C 	C 	0.38930 0.59340 0.24880 -0.03100
H 	H 	0.38980 0.58370 0.26640 -0.04600
H 	H 	0.41870 0.57480 0.24000 0.06400
H 	H 	0.39520 0.63110 0.24720 0.02100
C 	C 	0.28520 0.50780 0.21600 -0.11500
H 	H 	0.25780 0.52990 0.22420 -0.46200
H 	H 	0.27970 0.50930 0.19790 0.15600
H 	H 	0.28100 0.47170 0.22170 0.62100
C 	C 	0.38060 0.48940 0.22660 0.08900
H 	H 	0.37280 0.46160 0.23860 -0.04800
H 	H 	0.38080 0.47480 0.20970 0.02100
H 	H 	0.41660 0.50480 0.23030 0.02700
O 	O 	0.97630 0.02520 0.23730 2.06200
N 	N 	0.89270 0.06110 0.23598 0.94400
C 	C 	0.94300 0.05790 0.24535 3.81100
C 	C 	0.96030 0.09620 0.26520 -0.37000
H 	H 	0.96370 0.13110 0.25800 0.06100
H 	H 	0.93300 0.09680 0.27860 -0.44300
H 	H 	0.99610 0.08530 0.27200 0.14400
C 	C 	0.87530 0.02450 0.21680 9.34000
H 	H 	0.86170 0.99250 0.22470 -1.23700
H 	H 	0.84570 0.04040 0.20700 -1.19000
H 	H 	0.90640 0.01620 0.20590 -11.60700
C 	C 	0.84800 0.09390 0.24490 0.21400
H 	H 	0.85740 0.10720 0.26150 -0.00500
H 	H 	0.84430 0.12310 0.23330 0.04800
H 	H 	0.81310 0.07470 0.24580 0.15900
O 	O 	0.96650 0.02180 0.23300 -1.98100
N 	N 	0.90540 0.08020 0.24700 -0.97000
C 	C 	0.92000 0.04190 0.23190 -5.04800
C 	C 	0.88310 0.02960 0.20990 6.11700
H 	H 	0.84710 0.01840 0.21620 -5.56400
H 	H 	0.87850 0.06020 0.19920 -1.79500
H 	H 	0.89980 0.00120 0.20030 6.82800
C 	C 	0.94370 0.09920 0.26580 -0.72600
H 	H 	0.94460 0.13740 0.26530 0.29000
H 	H 	0.93200 0.08750 0.28230 0.69800
H 	H 	0.98060 0.08550 0.26220 -0.24500
C 	C 	0.85850 0.11480 0.24340 -0.07000
H 	H 	0.82600 0.09360 0.23970 -0.21100
H 	H 	0.85200 0.13490 0.25860 -0.00300
H 	H 	0.86540 0.13880 0.22950 -0.00100
O 	O 	0.88820 0.68960 0.40240 -2.34200
N 	N 	0.79780 0.70620 0.40213 -1.01000
C 	C 	0.84790 0.71150 0.39277 -3.77600
C 	C 	0.85510 0.74070 0.36850 -0.62100
H 	H 	0.83610 0.72050 0.35570 4.89300
H 	H 	0.83870 0.77550 0.36960 14.59300
H 	H 	0.89420 0.74390 0.36420 2.80000
C 	C 	0.78990 0.67690 0.42510 -2.18100
H 	H 	0.77720 0.70110 0.43790 1.37500
H 	H 	0.76280 0.64890 0.42300 0.18200
H 	H 	0.82540 0.66190 0.43000 0.21500
C 	C 	0.74890 0.73500 0.39460 -0.24700
H 	H 	0.72730 0.71330 0.38320 -1.27100
H 	H 	0.72670 0.74330 0.40930 -0.12800
H 	H 	0.75950 0.76740 0.38620 0.55300
O 	O 	0.88340 0.69130 0.40933 2.06500
N 	N 	0.81110 0.71780 0.38681 -0.16800
C 	C 	0.83300 0.69860 0.40741 3.88600
C 	C 	0.79650 0.69130 0.43001 -1.54100
H 	H 	0.79280 0.72430 0.43900 -0.68300
H 	H 	0.76010 0.67960 0.42450 1.02100
H 	H 	0.81270 0.66500 0.44100 0.46000
C 	C 	0.84650 0.73060 0.36581 7.27100
H 	H 	0.88140 0.71170 0.36750 -2.48500
H 	H 	0.82880 0.72110 0.35010 -7.04700
H 	H 	0.85370 0.76820 0.36600 -16.80100
C 	C 	0.75520 0.73750 0.38386 -0.51400
H 	H 	0.75240 0.77140 0.39220 -0.76900
H 	H 	0.74680 0.74150 0.36610 0.05200
H 	H 	0.72900 0.71310 0.39140 1.55100
O 	O 	0.94186 0.57050 0.40313 -0.44900
N 	N 	0.87260 0.52800 0.42166 -0.07600
C 	C 	0.89310 0.55570 0.40311 0.33100
C 	C 	0.85630 0.56820 0.38120 -0.10500
H 	H 	0.87810 0.58520 0.36820 -0.10200
H 	H 	0.84150 0.53530 0.37480 -0.95800
H 	H 	0.82590 0.59100 0.38610 0.07000
C 	C 	0.90600 0.51640 0.44346 -0.50300
H 	H 	0.88580 0.52610 0.45850 0.28000
H 	H 	0.91460 0.47910 0.44400 0.62600
H 	H 	0.94020 0.53650 0.44250 0.16100
C 	C 	0.81840 0.50370 0.42210 -0.10900
H 	H 	0.81770 0.47290 0.41140 0.06300
H 	H 	0.80980 0.49350 0.43920 0.03500
H 	H 	0.79090 0.52890 0.41630 0.06500
O 	O 	0.94540 0.56620 0.41360 0.02500
N 	N 	0.85830 0.53950 0.40880 -0.12300
C 	C 	0.90550 0.54040 0.42120 0.11400
C 	C 	0.91340 0.50290 0.44270 -0.09900
H 	H 	0.95180 0.50310 0.44830 -0.07100
H 	H 	0.88970 0.51670 0.45590 -0.13000
H 	H 	0.90230 0.46710 0.43880 -0.41800
C 	C 	0.85330 0.56700 0.38530 -0.50300
H 	H 	0.88350 0.59230 0.38410 0.22000
H 	H 	0.85440 0.54370 0.37080 1.16300
H 	H 	0.81800 0.58560 0.38550 0.13600
C 	C 	0.80890 0.51080 0.41560 -0.02700
H 	H 	0.79460 0.52210 0.43180 0.01300
H 	H 	0.78050 0.51560 0.40290 0.01500
H 	H 	0.81910 0.47390 0.41650 0.00700
O 	O 	0.35361 0.82860 0.08340 -4.10800
N 	N 	0.42348 0.79710 0.06085 -5.88600
C 	C 	0.40280 0.81530 0.08189 -22.91400
C 	C 	0.44080 0.82380 0.10383 1.29300
H 	H 	0.42020 0.83930 0.11760 -1.19300
H 	H 	0.47100 0.84720 0.09900 1.28700
H 	H 	0.45610 0.79020 0.10900 -0.31500
C 	C 	0.38760 0.78860 0.03952 -11.51700
H 	H 	0.37830 0.75160 0.03810 1.34900
H 	H 	0.40640 0.80010 0.02440 -4.44700
H 	H 	0.35380 0.80890 0.04180 2.15500
C 	C 	0.47960 0.77920 0.05671 -1.52400
H 	H 	0.49640 0.79940 0.04320 0.42000
H 	H 	0.47910 0.74220 0.05220 -0.58000
H 	H 	0.50120 0.78390 0.07200 0.24100
O 	O 	0.34670 0.68080 0.58310 2.92000
N 	N 	0.43590 0.69600 0.57540 8.80000
C 	C 	0.38350 0.69490 0.56850 22.15600
C 	C 	0.36830 0.71430 0.54280 -7.65800
H 	H 	0.37990 0.75080 0.54150 3.47600
H 	H 	0.38720 0.69370 0.53010 11.52500
H 	H 	0.32840 0.71190 0.54040 0.89800
C 	C 	0.45140 0.67900 0.60030 3.37100
H 	H 	0.42120 0.65790 0.60700 1.50800
H 	H 	0.48470 0.65760 0.59910 -2.72100
H 	H 	0.45840 0.70860 0.61140 -0.67800
C 	C 	0.48030 0.72280 0.56250 -0.78000
H 	H 	0.46640 0.73820 0.54700 1.94000
H 	H 	0.49490 0.75040 0.57330 0.27200
H 	H 	0.50980 0.69790 0.55860 0.40100
O 	O 	0.30650 0.96280 0.06758 -0.45800
N 	N 	0.38480 0.00410 0.07756 -0.39000
C 	C 	0.33920 0.99930 0.06427 -0.63300
C 	C 	0.32990 0.03670 0.04288 -0.18000
H 	H 	0.30210 0.02240 0.03160 -0.02600
H 	H 	0.36470 0.04130 0.03390 0.08100
H 	H 	0.31730 0.07040 0.04920 0.08800
C 	C 	0.39460 0.96990 0.09869 -0.88800
H 	H 	0.36360 0.94570 0.10040 0.15700
H 	H 	0.39810 0.99070 0.11390 -0.09200
H 	H 	0.42860 0.95010 0.09600 0.30700
C 	C 	0.42460 0.04630 0.07560 0.24700
H 	H 	0.42360 0.05830 0.05830 -0.69700
H 	H 	0.46090 0.03120 0.07910 -0.11900
H 	H 	0.41790 0.07570 0.08680 -0.45900
O 	O 	0.30370 0.53370 0.57440 0.02900
N 	N 	0.36850 0.47400 0.56670 0.11600
C 	C 	0.35060 0.51620 0.57840 1.13700
C 	C 	0.39060 0.54700 0.59420 -0.51500
H 	H 	0.38970 0.53370 0.61130 0.61700
H 	H 	0.42790 0.54320 0.58750 0.17400
H 	H 	0.38020 0.58390 0.59420 0.43800
C 	C 	0.33080 0.44380 0.55140 -0.06900
H 	H 	0.30170 0.46700 0.54540 0.17800
H 	H 	0.35090 0.42920 0.53720 0.01600
H 	H 	0.31440 0.41540 0.56110 -0.05400
C 	C 	0.42160 0.44880 0.57040 0.15000
H 	H 	0.41150 0.41750 0.57980 0.37500
H 	H 	0.44130 0.43860 0.55520 0.52600
H 	H 	0.44550 0.47100 0.58060 0.03000
O 	O 	0.94070 0.55840 0.07570 -0.24100
N 	N 	0.87460 0.50740 0.09178 -0.26100
C 	C 	0.89280 0.54150 0.07523 -0.15400
C 	C 	0.85380 0.55980 0.05507 0.00500
H 	H 	0.87360 0.58180 0.04320 -0.13000
H 	H 	0.82340 0.57970 0.06250 -0.16600
H 	H 	0.83890 0.52930 0.04640 -0.01000
C 	C 	0.91160 0.48550 0.11030 -0.26600
H 	H 	0.94650 0.50480 0.10980 0.08200
H 	H 	0.91860 0.44850 0.10710 0.34500
H 	H 	0.89480 0.48940 0.12680 0.10900
C 	C 	0.82060 0.48250 0.09128 -0.10300
H 	H 	0.79390 0.50580 0.08330 0.05300
H 	H 	0.80870 0.47500 0.10830 0.13300
H 	H 	0.82290 0.44990 0.08180 0.03500
O 	O 	0.94450 0.95150 0.57900 -0.09700
N 	N 	0.85640 0.97690 0.58081 0.00900
C 	C 	0.90790 0.97810 0.58900 0.47900
C 	C 	0.92270 0.01500 0.60990 -0.07800
H 	H 	0.96240 0.02200 0.61000 -0.01900
H 	H 	0.90250 0.04770 0.60730 -0.20500
H 	H 	0.91190 0.99980 0.62590 -0.00800
C 	C 	0.84170 0.94380 0.55990 -0.17200
H 	H 	0.87410 0.93990 0.54910 0.14800
H 	H 	0.83030 0.90940 0.56600 0.21000
H 	H 	0.81150 0.95940 0.55040 0.06100
C 	C 	0.80930 0.00300 0.59200 0.01400
H 	H 	0.81970 0.01740 0.60820 -0.09200
H 	H 	0.79750 0.03130 0.58090 -0.02200
H 	H 	0.77900 0.97820 0.59410 -0.04300
