data_crystal

_cell_length_a 9.75580
_cell_length_b 10.55490
_cell_length_c 16.51110
_cell_angle_alpha 90.00000
_cell_angle_beta  112.44700
_cell_angle_gamma 90.00000

_symmetry_space_group_name_	'P 1'
_symmetry_space_group_name_H-M	'P 1'

loop_
_symmetry_equiv_pos_as_xyz
  x,y,z

loop_
_atom_site_label
_atom_site_type_symbol
_atom_site_fract_x
_atom_site_fract_y
_atom_site_fract_z
_atom_site_charge
C 	C 	0.67860 0.05100 0.97090 0.05600
H 	H 	0.60740 0.10640 0.93460 0.02500
C 	C 	0.64620 0.92480 0.97200 -0.14700
H 	H 	0.55340 0.89440 0.93600 0.07600
C 	C 	0.74950 0.84410 0.02580 0.10100
H 	H 	0.72750 0.75860 0.02710 0.00900
C 	C 	0.88740 0.89020 0.07840 -0.21500
H 	H 	0.95820 0.83520 0.11530 0.11400
C 	C 	0.92110 0.01650 0.07680 0.20800
C 	C 	0.06700 0.07240 0.12920 -0.42100
H 	H 	0.09040 0.13640 0.09430 0.18000
H 	H 	0.14210 0.00680 0.14260 0.15100
C 	C 	0.92830 0.96730 0.46810 0.26700
C 	C 	0.51770 0.94010 0.52840 0.26800
Eu	Eu	0.17947 0.88824 0.39335 1.94200
N 	N 	0.81440 0.09470 0.02270 -0.10300
O 	O 	0.06020 0.04070 0.28972 -0.47700
O 	O 	0.23460 0.20430 0.27020 -0.47300
H 	H 	0.28620 0.16430 0.31380 0.29400
O 	O 	0.96090 0.24570 0.21039 -0.49100
O 	O 	0.84400 0.21660 0.01780 -0.31400
O 	O 	0.81420 0.98040 0.48470 -0.40400
O 	O 	0.93820 0.90920 0.40540 -0.38400
O 	O 	0.42650 0.85180 0.50680 -0.41800
O 	O 	0.63950 0.94080 0.59289 -0.43300
P 	P 	0.07484 0.14356 0.23056 0.58300
C 	C 	0.32140 0.55100 0.52910 0.07200
H 	H 	0.39260 0.60640 0.56540 0.02000
C 	C 	0.35380 0.42480 0.52800 -0.17200
H 	H 	0.44660 0.39440 0.56400 0.08600
C 	C 	0.25050 0.34410 0.47420 0.12900
H 	H 	0.27250 0.25860 0.47290 0.00100
C 	C 	0.11260 0.39020 0.42160 -0.24700
H 	H 	0.04180 0.33520 0.38470 0.12500
C 	C 	0.07890 0.51650 0.42320 0.23700
C 	C 	0.93300 0.57240 0.37080 -0.44500
H 	H 	0.90960 0.63640 0.40570 0.18500
H 	H 	0.85790 0.50680 0.35740 0.15500
C 	C 	0.07170 0.46730 0.03190 0.26600
C 	C 	0.48230 0.44010 0.97160 0.26900
Eu	Eu	0.82053 0.38824 0.10665 1.95000
N 	N 	0.18560 0.59470 0.47730 -0.10900
O 	O 	0.93980 0.54070 0.21028 -0.48200
O 	O 	0.76540 0.70430 0.22980 -0.47300
H 	H 	0.71380 0.66430 0.18620 0.29400
O 	O 	0.03910 0.74570 0.28961 -0.48700
O 	O 	0.15600 0.71660 0.48220 -0.31200
O 	O 	0.18580 0.48040 0.01530 -0.40500
O 	O 	0.06180 0.40920 0.09460 -0.38400
O 	O 	0.57350 0.35180 0.99320 -0.41800
O 	O 	0.36050 0.44080 0.90711 -0.43500
P 	P 	0.92516 0.64356 0.26944 0.58300
C 	C 	0.32140 0.94900 0.02910 0.05700
H 	H 	0.39260 0.89360 0.06540 0.02600
C 	C 	0.35380 0.07520 0.02800 -0.14600
H 	H 	0.44660 0.10560 0.06400 0.07700
C 	C 	0.25050 0.15590 0.97420 0.10200
H 	H 	0.27250 0.24140 0.97290 0.01000
C 	C 	0.11260 0.10980 0.92160 -0.21500
H 	H 	0.04180 0.16480 0.88470 0.11400
C 	C 	0.07890 0.98350 0.92320 0.20800
C 	C 	0.93300 0.92760 0.87080 -0.42100
H 	H 	0.90960 0.86360 0.90570 0.18000
H 	H 	0.85790 0.99320 0.85740 0.15100
C 	C 	0.07170 0.03270 0.53190 0.26700
C 	C 	0.48230 0.05990 0.47160 0.26800
Eu	Eu	0.82053 0.11176 0.60665 1.94200
N 	N 	0.18560 0.90530 0.97730 -0.10300
O 	O 	0.93980 0.95930 0.71028 -0.47700
O 	O 	0.76540 0.79570 0.72980 -0.47300
H 	H 	0.71380 0.83570 0.68620 0.29400
O 	O 	0.03910 0.75430 0.78961 -0.49100
O 	O 	0.15600 0.78340 0.98220 -0.31400
O 	O 	0.18580 0.01960 0.51530 -0.40400
O 	O 	0.06180 0.09080 0.59460 -0.38400
O 	O 	0.57350 0.14820 0.49320 -0.41800
O 	O 	0.36050 0.05920 0.40711 -0.43300
P 	P 	0.92516 0.85644 0.76944 0.58300
C 	C 	0.67860 0.44900 0.47090 0.07200
H 	H 	0.60740 0.39360 0.43460 0.02000
C 	C 	0.64620 0.57520 0.47200 -0.17200
H 	H 	0.55340 0.60560 0.43600 0.08600
C 	C 	0.74950 0.65590 0.52580 0.12900
H 	H 	0.72750 0.74140 0.52710 0.00100
C 	C 	0.88740 0.60980 0.57840 -0.24700
H 	H 	0.95820 0.66480 0.61530 0.12500
C 	C 	0.92110 0.48350 0.57680 0.23700
C 	C 	0.06700 0.42760 0.62920 -0.44500
H 	H 	0.09040 0.36360 0.59430 0.18500
H 	H 	0.14210 0.49320 0.64260 0.15500
C 	C 	0.92830 0.53270 0.96810 0.26600
C 	C 	0.51770 0.55990 0.02840 0.26900
Eu	Eu	0.17947 0.61176 0.89335 1.95000
N 	N 	0.81440 0.40530 0.52270 -0.10900
O 	O 	0.06020 0.45930 0.78972 -0.48200
O 	O 	0.23460 0.29570 0.77020 -0.47300
H 	H 	0.28620 0.33570 0.81380 0.29400
O 	O 	0.96090 0.25430 0.71039 -0.48700
O 	O 	0.84400 0.28340 0.51780 -0.31200
O 	O 	0.81420 0.51960 0.98470 -0.40500
O 	O 	0.93820 0.59080 0.90540 -0.38400
O 	O 	0.42650 0.64820 0.00680 -0.41800
O 	O 	0.63950 0.55920 0.09289 -0.43500
P 	P 	0.07484 0.35644 0.73056 0.58300
