data_crystal

_cell_length_a 9.73060
_cell_length_b 10.53000
_cell_length_c 16.41600
_cell_angle_alpha 90.00000
_cell_angle_beta  112.13000
_cell_angle_gamma 90.00000

_symmetry_space_group_name_	'P 1'
_symmetry_space_group_name_H-M	'P 1'

loop_
_symmetry_equiv_pos_as_xyz
  x,y,z

loop_
_atom_site_label
_atom_site_type_symbol
_atom_site_fract_x
_atom_site_fract_y
_atom_site_fract_z
_atom_site_charge
C 	C 	0.67710 0.05390 0.96930 0.06100
H 	H 	0.60740 0.11020 0.93270 0.02900
C 	C 	0.64210 0.92710 0.97050 -0.15000
H 	H 	0.54940 0.89720 0.93390 0.08400
C 	C 	0.74420 0.84580 0.02570 0.10700
H 	H 	0.72020 0.76060 0.02760 0.01000
C 	C 	0.88170 0.88910 0.07830 -0.21900
H 	H 	0.95110 0.83320 0.11560 0.11900
C 	C 	0.91830 0.01710 0.07600 0.21200
C 	C 	0.06600 0.07140 0.12800 -0.41800
H 	H 	0.09030 0.13490 0.09280 0.18400
H 	H 	0.13980 0.00460 0.14100 0.15900
C 	C 	0.92850 0.96740 0.46800 0.25400
C 	C 	0.51650 0.93990 0.52910 0.26400
Gd	Gd	0.18022 0.88804 0.39342 1.56400
N 	N 	0.81330 0.09620 0.02150 -0.10600
O 	O 	0.06200 0.04200 0.29066 -0.41800
O 	O 	0.23710 0.20320 0.26798 -0.46200
H 	H 	0.28400 0.17300 0.31660 0.29700
O 	O 	0.96150 0.24630 0.21048 -0.42700
O 	O 	0.84540 0.21790 0.01707 -0.26500
O 	O 	0.81430 0.97940 0.48541 -0.35400
O 	O 	0.93810 0.90900 0.40476 -0.33400
O 	O 	0.42620 0.85200 0.50717 -0.37100
O 	O 	0.63730 0.94320 0.59488 -0.38500
P 	P 	0.07588 0.14354 0.23021 0.55800
C 	C 	0.32290 0.55390 0.53070 0.07300
H 	H 	0.39260 0.61020 0.56730 0.02600
C 	C 	0.35790 0.42710 0.52950 -0.16900
H 	H 	0.45060 0.39720 0.56610 0.09200
C 	C 	0.25580 0.34580 0.47430 0.12900
H 	H 	0.27980 0.26060 0.47240 0.00400
C 	C 	0.11830 0.38910 0.42170 -0.24200
H 	H 	0.04890 0.33320 0.38440 0.12900
C 	C 	0.08170 0.51710 0.42400 0.23300
C 	C 	0.93400 0.57140 0.37200 -0.43600
H 	H 	0.90970 0.63490 0.40720 0.18800
H 	H 	0.86020 0.50460 0.35900 0.16200
C 	C 	0.07150 0.46740 0.03200 0.25400
C 	C 	0.48350 0.43990 0.97090 0.26400
Gd	Gd	0.81978 0.38804 0.10658 1.57000
N 	N 	0.18670 0.59620 0.47850 -0.11100
O 	O 	0.93800 0.54200 0.20934 -0.42200
O 	O 	0.76290 0.70320 0.23202 -0.46200
H 	H 	0.71600 0.67300 0.18340 0.29700
O 	O 	0.03850 0.74630 0.28952 -0.42400
O 	O 	0.15460 0.71790 0.48293 -0.26400
O 	O 	0.18570 0.47940 0.01459 -0.35500
O 	O 	0.06190 0.40900 0.09524 -0.33400
O 	O 	0.57380 0.35200 0.99283 -0.37100
O 	O 	0.36270 0.44320 0.90512 -0.38600
P 	P 	0.92412 0.64354 0.26979 0.55800
C 	C 	0.32290 0.94610 0.03070 0.06200
H 	H 	0.39260 0.88980 0.06730 0.03000
C 	C 	0.35790 0.07290 0.02950 -0.14900
H 	H 	0.45060 0.10280 0.06610 0.08500
C 	C 	0.25580 0.15420 0.97430 0.10800
H 	H 	0.27980 0.23940 0.97240 0.01100
C 	C 	0.11830 0.11090 0.92170 -0.21800
H 	H 	0.04890 0.16680 0.88440 0.12000
C 	C 	0.08170 0.98290 0.92400 0.21200
C 	C 	0.93400 0.92860 0.87200 -0.41800
H 	H 	0.90970 0.86510 0.90720 0.18400
H 	H 	0.86020 0.99540 0.85900 0.15900
C 	C 	0.07150 0.03260 0.53200 0.25400
C 	C 	0.48350 0.06010 0.47090 0.26400
Gd	Gd	0.81978 0.11196 0.60658 1.56400
N 	N 	0.18670 0.90380 0.97850 -0.10600
O 	O 	0.93800 0.95800 0.70934 -0.41800
O 	O 	0.76290 0.79680 0.73202 -0.46200
H 	H 	0.71600 0.82700 0.68340 0.29700
O 	O 	0.03850 0.75370 0.78952 -0.42700
O 	O 	0.15460 0.78210 0.98293 -0.26500
O 	O 	0.18570 0.02060 0.51459 -0.35400
O 	O 	0.06190 0.09100 0.59524 -0.33400
O 	O 	0.57380 0.14800 0.49283 -0.37100
O 	O 	0.36270 0.05680 0.40512 -0.38500
P 	P 	0.92412 0.85646 0.76979 0.55800
C 	C 	0.67710 0.44610 0.46930 0.07300
H 	H 	0.60740 0.38980 0.43270 0.02600
C 	C 	0.64210 0.57290 0.47050 -0.16900
H 	H 	0.54940 0.60280 0.43390 0.09200
C 	C 	0.74420 0.65420 0.52570 0.12900
H 	H 	0.72020 0.73940 0.52760 0.00400
C 	C 	0.88170 0.61090 0.57830 -0.24200
H 	H 	0.95110 0.66680 0.61560 0.12900
C 	C 	0.91830 0.48290 0.57600 0.23300
C 	C 	0.06600 0.42860 0.62800 -0.43600
H 	H 	0.09030 0.36510 0.59280 0.18800
H 	H 	0.13980 0.49540 0.64100 0.16200
C 	C 	0.92850 0.53260 0.96800 0.25400
C 	C 	0.51650 0.56010 0.02910 0.26400
Gd	Gd	0.18022 0.61196 0.89342 1.57000
N 	N 	0.81330 0.40380 0.52150 -0.11100
O 	O 	0.06200 0.45800 0.79066 -0.42200
O 	O 	0.23710 0.29680 0.76798 -0.46200
H 	H 	0.28400 0.32700 0.81660 0.29700
O 	O 	0.96150 0.25370 0.71048 -0.42400
O 	O 	0.84540 0.28210 0.51707 -0.26400
O 	O 	0.81430 0.52060 0.98541 -0.35500
O 	O 	0.93810 0.59100 0.90476 -0.33400
O 	O 	0.42620 0.64800 0.00717 -0.37100
O 	O 	0.63730 0.55680 0.09488 -0.38600
P 	P 	0.07588 0.35646 0.73021 0.55800
