data_crystal

_cell_length_a 15.10850
_cell_length_b 8.84030
_cell_length_c 17.26280
_cell_angle_alpha 90.00000
_cell_angle_beta  114.53700
_cell_angle_gamma 90.00000

_symmetry_space_group_name_	'P 1'
_symmetry_space_group_name_H-M	'P 1'

loop_
_symmetry_equiv_pos_as_xyz
  x,y,z

loop_
_atom_site_label
_atom_site_type_symbol
_atom_site_fract_x
_atom_site_fract_y
_atom_site_fract_z
_atom_site_charge
Zn	Zn	0.19028 0.11151 0.54451 1.24000
Zn	Zn	0.01457 0.91976 0.77667 1.22300
Zn	Zn	0.28325 0.15857 0.81074 1.24000
P 	P 	0.28723 0.38070 0.66538 0.58300
P 	P 	0.01660 0.31890 0.41565 0.52300
P 	P 	0.15288 0.86670 0.41213 0.53400
P 	P 	0.17099 0.88630 0.69112 0.55200
O 	O 	0.28850 0.25240 0.60610 -0.46100
O 	O 	0.06250 0.21300 0.49020 -0.43200
O 	O 	0.21360 0.00440 0.45490 -0.45200
O 	O 	0.16100 0.94270 0.60380 -0.41100
O 	O 	0.07910 0.93520 0.70100 -0.46500
O 	O 	0.04810 0.90840 0.35430 -0.47200
O 	O 	0.38170 0.46660 0.69960 -0.42600
O 	O 	0.02570 0.27150 0.33490 -0.49800
O 	O 	0.26060 0.95910 0.76240 -0.45200
O 	O 	0.91200 0.34960 0.40050 -0.37400
O 	O 	0.25880 0.32710 0.73470 -0.47300
O 	O 	0.19770 0.77420 0.36290 -0.42800
O 	O 	0.20670 0.49570 0.60720 -0.43600
H 	H 	0.20440 0.56830 0.63590 0.32600
O 	O 	0.07370 0.47410 0.43880 -0.41900
H 	H 	0.04960 0.53310 0.39880 0.24000
O 	O 	0.14850 0.75980 0.48390 -0.43200
H 	H 	0.11590 0.68470 0.46190 0.29600
O 	O 	0.18420 0.71670 0.69590 -0.24900
Zn	Zn	0.69028 0.61151 0.54451 1.24100
Zn	Zn	0.51457 0.41976 0.77667 1.23800
Zn	Zn	0.78325 0.65857 0.81074 1.24300
P 	P 	0.78723 0.88070 0.66538 0.58400
P 	P 	0.51660 0.81890 0.41565 0.58400
P 	P 	0.65288 0.36670 0.41213 0.53600
P 	P 	0.67099 0.38630 0.69112 0.55200
O 	O 	0.78850 0.75240 0.60610 -0.44500
O 	O 	0.56250 0.71300 0.49020 -0.42300
O 	O 	0.71360 0.50440 0.45490 -0.44500
O 	O 	0.66100 0.44270 0.60380 -0.39800
O 	O 	0.57910 0.43520 0.70100 -0.44400
O 	O 	0.54810 0.40840 0.35430 -0.44700
O 	O 	0.88170 0.96660 0.69960 -0.38700
O 	O 	0.52570 0.77150 0.33490 -0.48400
O 	O 	0.76060 0.45910 0.76240 -0.43800
O 	O 	0.41200 0.84960 0.40050 -0.44100
O 	O 	0.75880 0.82710 0.73470 -0.46000
O 	O 	0.69770 0.27420 0.36290 -0.41800
O 	O 	0.70670 0.99570 0.60720 -0.43200
H 	H 	0.70440 0.06830 0.63590 0.33200
O 	O 	0.57370 0.97410 0.43880 -0.42800
H 	H 	0.54960 0.03310 0.39880 0.26200
O 	O 	0.64850 0.25980 0.48390 -0.42400
H 	H 	0.61590 0.18470 0.46190 0.30200
O 	O 	0.68420 0.21670 0.69590 -0.23600
Zn	Zn	0.19028 0.88849 0.04451 1.20000
Zn	Zn	0.01457 0.08024 0.27667 1.22100
Zn	Zn	0.28325 0.84143 0.31074 1.23600
P 	P 	0.28723 0.61930 0.16538 0.58400
P 	P 	0.01660 0.68110 0.91565 0.52200
P 	P 	0.15288 0.13330 0.91213 0.53500
P 	P 	0.17099 0.11370 0.19112 0.55200
O 	O 	0.28850 0.74760 0.10610 -0.50400
O 	O 	0.06250 0.78700 0.99020 -0.36900
O 	O 	0.21360 0.99560 0.95490 -0.40700
O 	O 	0.16100 0.05730 0.10380 -0.45800
O 	O 	0.07910 0.06480 0.20100 -0.48100
O 	O 	0.04810 0.09160 0.85430 -0.45700
O 	O 	0.38170 0.53340 0.19960 -0.44400
O 	O 	0.02570 0.72850 0.83490 -0.48800
O 	O 	0.26060 0.04090 0.26240 -0.45900
O 	O 	0.91200 0.65040 0.90050 -0.35600
O 	O 	0.25880 0.67290 0.23470 -0.48500
O 	O 	0.19770 0.22580 0.86290 -0.41400
O 	O 	0.20670 0.50430 0.10720 -0.48800
H 	H 	0.20440 0.43170 0.13590 0.32700
O 	O 	0.07370 0.52590 0.93880 -0.37800
H 	H 	0.04960 0.46690 0.89880 0.23600
O 	O 	0.14850 0.24020 0.98390 -0.37700
H 	H 	0.11590 0.31530 0.96190 0.29800
O 	O 	0.18420 0.28330 0.19590 -0.27000
Zn	Zn	0.69028 0.38849 0.04451 1.20400
Zn	Zn	0.51457 0.58024 0.27667 1.23500
Zn	Zn	0.78325 0.34143 0.31074 1.24000
P 	P 	0.78723 0.11930 0.16538 0.58400
P 	P 	0.51660 0.18110 0.91565 0.58200
P 	P 	0.65288 0.63330 0.91213 0.53500
P 	P 	0.67099 0.61370 0.19112 0.55200
O 	O 	0.78850 0.24760 0.10610 -0.48500
O 	O 	0.56250 0.28700 0.99020 -0.36000
O 	O 	0.71360 0.49560 0.95490 -0.39800
O 	O 	0.66100 0.55730 0.10380 -0.45100
O 	O 	0.57910 0.56480 0.20100 -0.46300
O 	O 	0.54810 0.59160 0.85430 -0.43400
O 	O 	0.88170 0.03340 0.19960 -0.40000
O 	O 	0.52570 0.22850 0.83490 -0.47200
O 	O 	0.76060 0.54090 0.26240 -0.44800
O 	O 	0.41200 0.15040 0.90050 -0.42000
O 	O 	0.75880 0.17290 0.23470 -0.46900
O 	O 	0.69770 0.72580 0.86290 -0.40500
O 	O 	0.70670 0.00430 0.10720 -0.47100
H 	H 	0.70440 0.93170 0.13590 0.32200
O 	O 	0.57370 0.02590 0.93880 -0.38300
H 	H 	0.54960 0.96690 0.89880 0.25300
O 	O 	0.64850 0.74020 0.98390 -0.36900
H 	H 	0.61590 0.81530 0.96190 0.30200
O 	O 	0.68420 0.78330 0.19590 -0.25800
