data_crystal

_cell_length_a 9.72840
_cell_length_b 10.47170
_cell_length_c 16.45940
_cell_angle_alpha 90.00000
_cell_angle_beta  112.51100
_cell_angle_gamma 90.00000

_symmetry_space_group_name_	'P 1'
_symmetry_space_group_name_H-M	'P 1'

loop_
_symmetry_equiv_pos_as_xyz
  x,y,z

loop_
_atom_site_label
_atom_site_type_symbol
_atom_site_fract_x
_atom_site_fract_y
_atom_site_fract_z
_atom_site_charge
C 	C 	0.67840 0.05730 0.96910 0.06100
H 	H 	0.60870 0.11400 0.93230 0.02800
C 	C 	0.64340 0.92980 0.96990 -0.15100
H 	H 	0.54990 0.89990 0.93370 0.08100
C 	C 	0.74640 0.84840 0.02380 0.10700
H 	H 	0.72370 0.76240 0.02500 0.01000
C 	C 	0.88530 0.89340 0.07700 -0.21900
H 	H 	0.95560 0.83720 0.11390 0.11700
C 	C 	0.92070 0.02060 0.07600 0.21300
C 	C 	0.06770 0.07560 0.12970 -0.42300
H 	H 	0.09290 0.13970 0.09510 0.18200
H 	H 	0.14210 0.00870 0.14360 0.15300
C 	C 	0.92840 0.96830 0.46730 0.26600
C 	C 	0.51770 0.93870 0.52740 0.26600
Tb	Tb	0.17873 0.89252 0.39314 1.85700
N 	N 	0.81460 0.09940 0.02220 -0.10500
O 	O 	0.06000 0.04520 0.29084 -0.46700
O 	O 	0.23490 0.20920 0.27100 -0.47200
H 	H 	0.28670 0.16910 0.31480 0.29600
O 	O 	0.95960 0.25010 0.20993 -0.48100
O 	O 	0.84580 0.22210 0.01776 -0.30200
O 	O 	0.81430 0.97980 0.48470 -0.39600
O 	O 	0.93740 0.91230 0.40331 -0.37200
O 	O 	0.42380 0.85130 0.50520 -0.40800
O 	O 	0.64070 0.93670 0.59170 -0.42400
P 	P 	0.07489 0.14779 0.23106 0.58300
C 	C 	0.32160 0.55730 0.53090 0.07500
H 	H 	0.39130 0.61400 0.56770 0.02300
C 	C 	0.35660 0.42980 0.53010 -0.17500
H 	H 	0.45010 0.39990 0.56630 0.09000
C 	C 	0.25360 0.34840 0.47620 0.13300
H 	H 	0.27630 0.26240 0.47500 0.00100
C 	C 	0.11470 0.39340 0.42300 -0.25000
H 	H 	0.04440 0.33720 0.38610 0.12800
C 	C 	0.07930 0.52060 0.42400 0.24000
C 	C 	0.93230 0.57560 0.37030 -0.44600
H 	H 	0.90710 0.63970 0.40490 0.18600
H 	H 	0.85790 0.50870 0.35640 0.15700
C 	C 	0.07160 0.46830 0.03270 0.26500
C 	C 	0.48230 0.43870 0.97260 0.26600
Tb	Tb	0.82127 0.39252 0.10686 1.86500
N 	N 	0.18540 0.59940 0.47780 -0.11100
O 	O 	0.94000 0.54520 0.20916 -0.47300
O 	O 	0.76510 0.70920 0.22900 -0.47200
H 	H 	0.71330 0.66910 0.18520 0.29600
O 	O 	0.04040 0.75010 0.29007 -0.47700
O 	O 	0.15420 0.72210 0.48224 -0.30000
O 	O 	0.18570 0.47980 0.01530 -0.39700
O 	O 	0.06260 0.41230 0.09669 -0.37300
O 	O 	0.57620 0.35130 0.99480 -0.40800
O 	O 	0.35930 0.43670 0.90830 -0.42600
P 	P 	0.92511 0.64779 0.26894 0.58300
C 	C 	0.32160 0.94270 0.03090 0.06100
H 	H 	0.39130 0.88600 0.06770 0.02800
C 	C 	0.35660 0.07020 0.03010 -0.15100
H 	H 	0.45010 0.10010 0.06630 0.08100
C 	C 	0.25360 0.15160 0.97620 0.10700
H 	H 	0.27630 0.23760 0.97500 0.01000
C 	C 	0.11470 0.10660 0.92300 -0.21900
H 	H 	0.04440 0.16280 0.88610 0.11700
C 	C 	0.07930 0.97940 0.92400 0.21300
C 	C 	0.93230 0.92440 0.87030 -0.42300
H 	H 	0.90710 0.86030 0.90490 0.18200
H 	H 	0.85790 0.99130 0.85640 0.15300
C 	C 	0.07160 0.03170 0.53270 0.26600
C 	C 	0.48230 0.06130 0.47260 0.26600
Tb	Tb	0.82127 0.10748 0.60686 1.85700
N 	N 	0.18540 0.90060 0.97780 -0.10500
O 	O 	0.94000 0.95480 0.70916 -0.46700
O 	O 	0.76510 0.79080 0.72900 -0.47200
H 	H 	0.71330 0.83090 0.68520 0.29600
O 	O 	0.04040 0.74990 0.79007 -0.48100
O 	O 	0.15420 0.77790 0.98224 -0.30200
O 	O 	0.18570 0.02020 0.51530 -0.39600
O 	O 	0.06260 0.08770 0.59669 -0.37200
O 	O 	0.57620 0.14870 0.49480 -0.40800
O 	O 	0.35930 0.06330 0.40830 -0.42400
P 	P 	0.92511 0.85221 0.76894 0.58300
C 	C 	0.67840 0.44270 0.46910 0.07500
H 	H 	0.60870 0.38600 0.43230 0.02300
C 	C 	0.64340 0.57020 0.46990 -0.17500
H 	H 	0.54990 0.60010 0.43370 0.09000
C 	C 	0.74640 0.65160 0.52380 0.13300
H 	H 	0.72370 0.73760 0.52500 0.00100
C 	C 	0.88530 0.60660 0.57700 -0.25000
H 	H 	0.95560 0.66280 0.61390 0.12800
C 	C 	0.92070 0.47940 0.57600 0.24000
C 	C 	0.06770 0.42440 0.62970 -0.44600
H 	H 	0.09290 0.36030 0.59510 0.18600
H 	H 	0.14210 0.49130 0.64360 0.15700
C 	C 	0.92840 0.53170 0.96730 0.26500
C 	C 	0.51770 0.56130 0.02740 0.26600
Tb	Tb	0.17873 0.60748 0.89314 1.86500
N 	N 	0.81460 0.40060 0.52220 -0.11100
O 	O 	0.06000 0.45480 0.79084 -0.47300
O 	O 	0.23490 0.29080 0.77100 -0.47200
H 	H 	0.28670 0.33090 0.81480 0.29600
O 	O 	0.95960 0.24990 0.70993 -0.47700
O 	O 	0.84580 0.27790 0.51776 -0.30000
O 	O 	0.81430 0.52020 0.98470 -0.39700
O 	O 	0.93740 0.58770 0.90331 -0.37300
O 	O 	0.42380 0.64870 0.00520 -0.40800
O 	O 	0.64070 0.56330 0.09170 -0.42600
P 	P 	0.07489 0.35221 0.73106 0.58300
