data_crystal

_cell_length_a 41.97160
_cell_length_b 41.97160
_cell_length_c 41.97160
_cell_angle_alpha 90.00000
_cell_angle_beta  90.00000
_cell_angle_gamma 90.00000

_symmetry_space_group_name_	'P 1'
_symmetry_space_group_name_H-M	'P 1'

loop_
_symmetry_equiv_pos_as_xyz
  x,y,z

loop_
_atom_site_label
_atom_site_type_symbol
_atom_site_fract_x
_atom_site_fract_y
_atom_site_fract_z
_atom_site_charge
C 	C 	0.63010 0.87530 0.07980 -0.23700
N 	N 	0.63310 0.87580 0.05320 -0.20300
C 	C 	0.68780 0.91260 0.02400 0.02700
C 	C 	0.70900 0.93740 0.02960 -0.04200
C 	C 	0.70760 0.96480 0.01110 -0.08500
C 	C 	0.71740 0.93500 0.01300 0.01200
C 	C 	0.66380 0.94260 0.98150 -0.00300
C 	C 	0.64460 0.83010 0.99380 -0.18200
C 	C 	0.66480 0.82210 0.96870 0.07600
C 	C 	0.67600 0.79110 0.96580 0.25500
C 	C 	0.66710 0.76810 0.98790 -0.65800
C 	C 	0.64690 0.77620 0.01290 -0.23600
C 	C 	0.63570 0.80720 0.01580 -0.33500
C 	C 	0.63870 0.83040 0.99750 0.00100
C 	C 	0.65950 0.81870 0.97450 -0.14200
C 	C 	0.66500 0.78610 0.97230 -0.05900
C 	C 	0.64970 0.76530 0.99310 0.78500
C 	C 	0.62900 0.77710 0.01610 -0.05500
C 	C 	0.62350 0.80970 0.01830 0.32300
C 	C 	0.63010 0.37530 0.57980 -0.23700
N 	N 	0.63310 0.37580 0.55320 -0.20400
C 	C 	0.68780 0.41260 0.52400 0.02400
C 	C 	0.70900 0.43740 0.52960 -0.11300
C 	C 	0.70760 0.46480 0.51110 -0.02200
C 	C 	0.71740 0.43500 0.51300 0.07000
C 	C 	0.66380 0.44260 0.48150 -0.01900
C 	C 	0.64460 0.33010 0.49380 -0.18600
C 	C 	0.66480 0.32210 0.46870 0.07700
C 	C 	0.67600 0.29110 0.46580 0.27900
C 	C 	0.66710 0.26810 0.48790 -0.72100
C 	C 	0.64690 0.27620 0.51290 -0.27000
C 	C 	0.63570 0.30720 0.51580 -0.35200
C 	C 	0.63870 0.33040 0.49750 0.00500
C 	C 	0.65950 0.31870 0.47450 -0.15000
C 	C 	0.66500 0.28610 0.47230 -0.06700
C 	C 	0.64970 0.26530 0.49310 0.86100
C 	C 	0.62900 0.27710 0.51610 -0.04600
C 	C 	0.62350 0.30970 0.51830 0.34600
C 	C 	0.13010 0.87530 0.57980 -0.23800
N 	N 	0.13310 0.87580 0.55320 -0.20400
C 	C 	0.18780 0.91260 0.52400 0.02400
C 	C 	0.20900 0.93740 0.52960 -0.10700
C 	C 	0.20760 0.96480 0.51110 -0.02800
C 	C 	0.21740 0.93500 0.51300 0.06500
C 	C 	0.16380 0.94260 0.48150 -0.01600
C 	C 	0.14460 0.83010 0.49380 -0.18700
C 	C 	0.16480 0.82210 0.46870 0.07700
C 	C 	0.17600 0.79110 0.46580 0.28300
C 	C 	0.16710 0.76810 0.48790 -0.73100
C 	C 	0.14690 0.77620 0.51290 -0.27100
C 	C 	0.13570 0.80720 0.51580 -0.35600
C 	C 	0.13870 0.83040 0.49750 0.00600
C 	C 	0.15950 0.81870 0.47450 -0.15000
C 	C 	0.16500 0.78610 0.47230 -0.06800
C 	C 	0.14970 0.76530 0.49310 0.87200
C 	C 	0.12900 0.77710 0.51610 -0.04800
C 	C 	0.12350 0.80970 0.51830 0.35000
C 	C 	0.13010 0.37530 0.07980 -0.23900
N 	N 	0.13310 0.37580 0.05320 -0.20500
C 	C 	0.18780 0.41260 0.02400 0.02600
C 	C 	0.20900 0.43740 0.02960 -0.05000
C 	C 	0.20760 0.46480 0.01110 -0.08100
C 	C 	0.21740 0.43500 0.01300 0.01500
C 	C 	0.16380 0.44260 0.98150 -0.00600
C 	C 	0.14460 0.33010 0.99380 -0.18200
C 	C 	0.16480 0.32210 0.96870 0.07600
C 	C 	0.17600 0.29110 0.96580 0.25800
C 	C 	0.16710 0.26810 0.98790 -0.66700
C 	C 	0.14690 0.27620 0.01290 -0.23800
C 	C 	0.13570 0.30720 0.01580 -0.33800
C 	C 	0.13870 0.33040 0.99750 0.00100
C 	C 	0.15950 0.31870 0.97450 -0.14300
C 	C 	0.16500 0.28610 0.97230 -0.06000
C 	C 	0.14970 0.26530 0.99310 0.79500
C 	C 	0.12900 0.27710 0.01610 -0.05700
C 	C 	0.12350 0.30970 0.01830 0.32600
C 	C 	0.61990 0.87470 0.57980 -0.23700
N 	N 	0.61690 0.87420 0.55320 -0.20400
C 	C 	0.56220 0.83740 0.52400 0.02400
C 	C 	0.54100 0.81260 0.52960 -0.11300
C 	C 	0.54240 0.78520 0.51110 -0.02200
C 	C 	0.53260 0.81500 0.51300 0.06900
C 	C 	0.58620 0.80740 0.48150 -0.01900
C 	C 	0.60540 0.91990 0.49380 -0.18600
C 	C 	0.58520 0.92790 0.46870 0.07600
C 	C 	0.57400 0.95890 0.46580 0.27700
C 	C 	0.58290 0.98190 0.48790 -0.72300
C 	C 	0.60310 0.97380 0.51290 -0.27100
C 	C 	0.61430 0.94280 0.51580 -0.35100
C 	C 	0.61130 0.91960 0.49750 0.00500
C 	C 	0.59050 0.93130 0.47450 -0.14800
C 	C 	0.58500 0.96390 0.47230 -0.06000
C 	C 	0.60030 0.98470 0.49310 0.86300
C 	C 	0.62100 0.97290 0.51610 -0.04500
C 	C 	0.62650 0.94030 0.51830 0.34600
C 	C 	0.61990 0.37470 0.07980 -0.23800
N 	N 	0.61690 0.37420 0.05320 -0.20500
C 	C 	0.56220 0.33740 0.02400 0.02600
C 	C 	0.54100 0.31260 0.02960 -0.04900
C 	C 	0.54240 0.28520 0.01110 -0.08100
C 	C 	0.53260 0.31500 0.01300 0.01500
C 	C 	0.58620 0.30740 0.98150 -0.00600
C 	C 	0.60540 0.41990 0.99380 -0.18100
C 	C 	0.58520 0.42790 0.96870 0.07600
C 	C 	0.57400 0.45890 0.96580 0.25500
C 	C 	0.58290 0.48190 0.98790 -0.65700
C 	C 	0.60310 0.47380 0.01290 -0.23600
C 	C 	0.61430 0.44280 0.01580 -0.33400
C 	C 	0.61130 0.41960 0.99750 0.00100
C 	C 	0.59050 0.43130 0.97450 -0.14200
C 	C 	0.58500 0.46390 0.97230 -0.05900
C 	C 	0.60030 0.48470 0.99310 0.78400
C 	C 	0.62100 0.47290 0.01610 -0.05400
C 	C 	0.62650 0.44030 0.01830 0.32300
C 	C 	0.11990 0.87470 0.07980 -0.23900
N 	N 	0.11690 0.87420 0.05320 -0.20500
C 	C 	0.06220 0.83740 0.02400 0.02500
C 	C 	0.04100 0.81260 0.02960 -0.04000
C 	C 	0.04240 0.78520 0.01110 -0.08600
C 	C 	0.03260 0.81500 0.01300 0.00400
C 	C 	0.08620 0.80740 0.98150 -0.00500
C 	C 	0.10540 0.91990 0.99380 -0.18100
C 	C 	0.08520 0.92790 0.96870 0.07500
C 	C 	0.07400 0.95890 0.96580 0.25100
C 	C 	0.08290 0.98190 0.98790 -0.65300
C 	C 	0.10310 0.97380 0.01290 -0.23300
C 	C 	0.11430 0.94280 0.01580 -0.33100
C 	C 	0.11130 0.91960 0.99750 -0.00100
C 	C 	0.09050 0.93130 0.97450 -0.14100
C 	C 	0.08500 0.96390 0.97230 -0.05400
C 	C 	0.10030 0.98470 0.99310 0.77600
C 	C 	0.12100 0.97290 0.01610 -0.05500
C 	C 	0.12650 0.94030 0.01830 0.32000
C 	C 	0.11990 0.37470 0.57980 -0.23800
N 	N 	0.11690 0.37420 0.55320 -0.20400
C 	C 	0.06220 0.33740 0.52400 0.02300
C 	C 	0.04100 0.31260 0.52960 -0.10300
C 	C 	0.04240 0.28520 0.51110 -0.02700
C 	C 	0.03260 0.31500 0.51300 0.05800
C 	C 	0.08620 0.30740 0.48150 -0.01900
C 	C 	0.10540 0.41990 0.49380 -0.18600
C 	C 	0.08520 0.42790 0.46870 0.07700
C 	C 	0.07400 0.45890 0.46580 0.27800
C 	C 	0.08290 0.48190 0.48790 -0.71400
C 	C 	0.10310 0.47380 0.51290 -0.26500
C 	C 	0.11430 0.44280 0.51580 -0.35000
C 	C 	0.11130 0.41960 0.49750 0.00400
C 	C 	0.09050 0.43130 0.47450 -0.15000
C 	C 	0.08500 0.46390 0.47230 -0.06800
C 	C 	0.10030 0.48470 0.49310 0.85100
C 	C 	0.12100 0.47290 0.51610 -0.04700
C 	C 	0.12650 0.44030 0.51830 0.34300
C 	C 	0.11990 0.37530 0.17020 -0.23800
N 	N 	0.11690 0.37580 0.19680 -0.20400
C 	C 	0.06220 0.41260 0.22600 0.02300
C 	C 	0.04100 0.43740 0.22040 -0.10300
C 	C 	0.04240 0.46480 0.23890 -0.02700
C 	C 	0.03260 0.43500 0.23700 0.05800
C 	C 	0.08620 0.44260 0.26850 -0.01900
C 	C 	0.10540 0.33010 0.25620 -0.18600
C 	C 	0.08520 0.32210 0.28130 0.07700
C 	C 	0.07400 0.29110 0.28420 0.27800
C 	C 	0.08290 0.26810 0.26210 -0.71400
C 	C 	0.10310 0.27620 0.23710 -0.26600
C 	C 	0.11430 0.30720 0.23420 -0.35000
C 	C 	0.11130 0.33040 0.25250 0.00400
C 	C 	0.09050 0.31870 0.27550 -0.15000
C 	C 	0.08500 0.28610 0.27770 -0.06800
C 	C 	0.10030 0.26530 0.25690 0.85200
C 	C 	0.12100 0.27710 0.23390 -0.04700
C 	C 	0.12650 0.30970 0.23170 0.34300
C 	C 	0.11990 0.87530 0.67020 -0.23800
N 	N 	0.11690 0.87580 0.69680 -0.20400
C 	C 	0.06220 0.91260 0.72600 0.02300
C 	C 	0.04100 0.93740 0.72040 -0.09700
C 	C 	0.04240 0.96480 0.73890 -0.03300
C 	C 	0.03260 0.93500 0.73700 0.05400
C 	C 	0.08620 0.94260 0.76850 -0.01600
C 	C 	0.10540 0.83010 0.75620 -0.18600
C 	C 	0.08520 0.82210 0.78130 0.07700
C 	C 	0.07400 0.79110 0.78420 0.27900
C 	C 	0.08290 0.76810 0.76210 -0.71400
C 	C 	0.10310 0.77620 0.73710 -0.26500
C 	C 	0.11430 0.80720 0.73420 -0.35000
C 	C 	0.11130 0.83040 0.75250 0.00400
C 	C 	0.09050 0.81870 0.77550 -0.15000
C 	C 	0.08500 0.78610 0.77770 -0.06800
C 	C 	0.10030 0.76530 0.75690 0.85200
C 	C 	0.12100 0.77710 0.73390 -0.04700
C 	C 	0.12650 0.80970 0.73170 0.34300
C 	C 	0.61990 0.37530 0.67020 -0.23700
N 	N 	0.61690 0.37580 0.69680 -0.20400
C 	C 	0.56220 0.41260 0.72600 0.02400
C 	C 	0.54100 0.43740 0.72040 -0.11300
C 	C 	0.54240 0.46480 0.73890 -0.02200
C 	C 	0.53260 0.43500 0.73700 0.07000
C 	C 	0.58620 0.44260 0.76850 -0.01900
C 	C 	0.60540 0.33010 0.75620 -0.18600
C 	C 	0.58520 0.32210 0.78130 0.07700
C 	C 	0.57400 0.29110 0.78420 0.28000
C 	C 	0.58290 0.26810 0.76210 -0.72100
C 	C 	0.60310 0.27620 0.73710 -0.27000
C 	C 	0.61430 0.30720 0.73420 -0.35200
C 	C 	0.61130 0.33040 0.75250 0.00500
C 	C 	0.59050 0.31870 0.77550 -0.15000
C 	C 	0.58500 0.28610 0.77770 -0.06700
C 	C 	0.60030 0.26530 0.75690 0.86100
C 	C 	0.62100 0.27710 0.73390 -0.04600
C 	C 	0.62650 0.30970 0.73170 0.34600
C 	C 	0.61990 0.87530 0.17020 -0.23700
N 	N 	0.61690 0.87580 0.19680 -0.20400
C 	C 	0.56220 0.91260 0.22600 0.02400
C 	C 	0.54100 0.93740 0.22040 -0.10700
C 	C 	0.54240 0.96480 0.23890 -0.02800
C 	C 	0.53260 0.93500 0.23700 0.06500
C 	C 	0.58620 0.94260 0.26850 -0.01700
C 	C 	0.60540 0.83010 0.25620 -0.18600
C 	C 	0.58520 0.82210 0.28130 0.07700
C 	C 	0.57400 0.79110 0.28420 0.28000
C 	C 	0.58290 0.76810 0.26210 -0.72200
C 	C 	0.60310 0.77620 0.23710 -0.27000
C 	C 	0.61430 0.80720 0.23420 -0.35300
C 	C 	0.61130 0.83040 0.25250 0.00500
C 	C 	0.59050 0.81870 0.27550 -0.15000
C 	C 	0.58500 0.78610 0.27770 -0.06700
C 	C 	0.60030 0.76530 0.25690 0.86200
C 	C 	0.62100 0.77710 0.23390 -0.04600
C 	C 	0.62650 0.80970 0.23170 0.34700
C 	C 	0.13010 0.37470 0.67020 -0.23800
N 	N 	0.13310 0.37420 0.69680 -0.20400
C 	C 	0.18780 0.33740 0.72600 0.02400
C 	C 	0.20900 0.31260 0.72040 -0.11400
C 	C 	0.20760 0.28520 0.73890 -0.02200
C 	C 	0.21740 0.31500 0.73700 0.07000
C 	C 	0.16380 0.30740 0.76850 -0.01900
C 	C 	0.14460 0.41990 0.75620 -0.18700
C 	C 	0.16480 0.42790 0.78130 0.07700
C 	C 	0.17600 0.45890 0.78420 0.28300
C 	C 	0.16710 0.48190 0.76210 -0.73000
C 	C 	0.14690 0.47380 0.73710 -0.27100
C 	C 	0.13570 0.44280 0.73420 -0.35600
C 	C 	0.13870 0.41960 0.75250 0.00600
C 	C 	0.15950 0.43130 0.77550 -0.15000
C 	C 	0.16500 0.46390 0.77770 -0.06800
C 	C 	0.14970 0.48470 0.75690 0.87100
C 	C 	0.12900 0.47290 0.73390 -0.04800
C 	C 	0.12350 0.44030 0.73170 0.34900
C 	C 	0.13010 0.87470 0.17020 -0.23800
N 	N 	0.13310 0.87420 0.19680 -0.20400
C 	C 	0.18780 0.83740 0.22600 0.02400
C 	C 	0.20900 0.81260 0.22040 -0.11400
C 	C 	0.20760 0.78520 0.23890 -0.02200
C 	C 	0.21740 0.81500 0.23700 0.07000
C 	C 	0.16380 0.80740 0.26850 -0.01900
C 	C 	0.14460 0.91990 0.25620 -0.18600
C 	C 	0.16480 0.92790 0.28130 0.07600
C 	C 	0.17600 0.95890 0.28420 0.28100
C 	C 	0.16710 0.98190 0.26210 -0.73300
C 	C 	0.14690 0.97380 0.23710 -0.27300
C 	C 	0.13570 0.94280 0.23420 -0.35500
C 	C 	0.13870 0.91960 0.25250 0.00500
C 	C 	0.15950 0.93130 0.27550 -0.14900
C 	C 	0.16500 0.96390 0.27770 -0.06100
C 	C 	0.14970 0.98470 0.25690 0.87400
C 	C 	0.12900 0.97290 0.23390 -0.04800
C 	C 	0.12350 0.94030 0.23170 0.34900
C 	C 	0.63010 0.37470 0.17020 -0.23700
N 	N 	0.63310 0.37420 0.19680 -0.20400
C 	C 	0.68780 0.33740 0.22600 0.02400
C 	C 	0.70900 0.31260 0.22040 -0.11300
C 	C 	0.70760 0.28520 0.23890 -0.02200
C 	C 	0.71740 0.31500 0.23700 0.07000
C 	C 	0.66380 0.30740 0.26850 -0.01900
C 	C 	0.64460 0.41990 0.25620 -0.18600
C 	C 	0.66480 0.42790 0.28130 0.07700
C 	C 	0.67600 0.45890 0.28420 0.27900
C 	C 	0.66710 0.48190 0.26210 -0.72100
C 	C 	0.64690 0.47380 0.23710 -0.27000
C 	C 	0.63570 0.44280 0.23420 -0.35200
C 	C 	0.63870 0.41960 0.25250 0.00500
C 	C 	0.65950 0.43130 0.27550 -0.15000
C 	C 	0.66500 0.46390 0.27770 -0.06700
C 	C 	0.64970 0.48470 0.25690 0.86100
C 	C 	0.62900 0.47290 0.23390 -0.04600
C 	C 	0.62350 0.44030 0.23170 0.34600
C 	C 	0.63010 0.87470 0.67020 -0.23700
N 	N 	0.63310 0.87420 0.69680 -0.20400
C 	C 	0.68780 0.83740 0.72600 0.02400
C 	C 	0.70900 0.81260 0.72040 -0.11400
C 	C 	0.70760 0.78520 0.73890 -0.02200
C 	C 	0.71740 0.81500 0.73700 0.07000
C 	C 	0.66380 0.80740 0.76850 -0.01900
C 	C 	0.64460 0.91990 0.75620 -0.18600
C 	C 	0.66480 0.92790 0.78130 0.07600
C 	C 	0.67600 0.95890 0.78420 0.27700
C 	C 	0.66710 0.98190 0.76210 -0.72300
C 	C 	0.64690 0.97380 0.73710 -0.27100
C 	C 	0.63570 0.94280 0.73420 -0.35100
C 	C 	0.63870 0.91960 0.75250 0.00500
C 	C 	0.65950 0.93130 0.77550 -0.14800
C 	C 	0.66500 0.96390 0.77770 -0.06100
C 	C 	0.64970 0.98470 0.75690 0.86200
C 	C 	0.62900 0.97290 0.73390 -0.04500
C 	C 	0.62350 0.94030 0.73170 0.34600
C 	C 	0.07980 0.63010 0.87530 -0.23800
N 	N 	0.05320 0.63310 0.87580 -0.20400
C 	C 	0.02400 0.68780 0.91260 0.02600
C 	C 	0.02960 0.70900 0.93740 -0.04300
C 	C 	0.01110 0.70760 0.96480 -0.08600
C 	C 	0.01300 0.71740 0.93500 0.01100
C 	C 	0.98150 0.66380 0.94260 -0.00300
C 	C 	0.99380 0.64460 0.83010 -0.18200
C 	C 	0.96870 0.66480 0.82210 0.07600
C 	C 	0.96580 0.67600 0.79110 0.25500
C 	C 	0.98790 0.66710 0.76810 -0.65800
C 	C 	0.01290 0.64690 0.77620 -0.23600
C 	C 	0.01580 0.63570 0.80720 -0.33500
C 	C 	0.99750 0.63870 0.83040 0.00100
C 	C 	0.97450 0.65950 0.81870 -0.14200
C 	C 	0.97230 0.66500 0.78610 -0.05900
C 	C 	0.99310 0.64970 0.76530 0.78500
C 	C 	0.01610 0.62900 0.77710 -0.05500
C 	C 	0.01830 0.62350 0.80970 0.32300
C 	C 	0.07980 0.13010 0.37530 -0.23900
N 	N 	0.05320 0.13310 0.37580 -0.20500
C 	C 	0.02400 0.18780 0.41260 0.02600
C 	C 	0.02960 0.20900 0.43740 -0.05000
C 	C 	0.01110 0.20760 0.46480 -0.08100
C 	C 	0.01300 0.21740 0.43500 0.01500
C 	C 	0.98150 0.16380 0.44260 -0.00600
C 	C 	0.99380 0.14460 0.33010 -0.18200
C 	C 	0.96870 0.16480 0.32210 0.07600
C 	C 	0.96580 0.17600 0.29110 0.25800
C 	C 	0.98790 0.16710 0.26810 -0.66700
C 	C 	0.01290 0.14690 0.27620 -0.23800
C 	C 	0.01580 0.13570 0.30720 -0.33800
C 	C 	0.99750 0.13870 0.33040 0.00100
C 	C 	0.97450 0.15950 0.31870 -0.14300
C 	C 	0.97230 0.16500 0.28610 -0.06000
C 	C 	0.99310 0.14970 0.26530 0.79500
C 	C 	0.01610 0.12900 0.27710 -0.05700
C 	C 	0.01830 0.12350 0.30970 0.32600
C 	C 	0.57980 0.63010 0.37530 -0.23700
N 	N 	0.55320 0.63310 0.37580 -0.20400
C 	C 	0.52400 0.68780 0.41260 0.02400
C 	C 	0.52960 0.70900 0.43740 -0.11300
C 	C 	0.51110 0.70760 0.46480 -0.02200
C 	C 	0.51300 0.71740 0.43500 0.07000
C 	C 	0.48150 0.66380 0.44260 -0.01900
C 	C 	0.49380 0.64460 0.33010 -0.18600
C 	C 	0.46870 0.66480 0.32210 0.07700
C 	C 	0.46580 0.67600 0.29110 0.27900
C 	C 	0.48790 0.66710 0.26810 -0.72100
C 	C 	0.51290 0.64690 0.27620 -0.27000
C 	C 	0.51580 0.63570 0.30720 -0.35200
C 	C 	0.49750 0.63870 0.33040 0.00500
C 	C 	0.47450 0.65950 0.31870 -0.15000
C 	C 	0.47230 0.66500 0.28610 -0.06700
C 	C 	0.49310 0.64970 0.26530 0.86100
C 	C 	0.51610 0.62900 0.27710 -0.04600
C 	C 	0.51830 0.62350 0.30970 0.34600
C 	C 	0.57980 0.13010 0.87530 -0.23800
N 	N 	0.55320 0.13310 0.87580 -0.20400
C 	C 	0.52400 0.18780 0.91260 0.02400
C 	C 	0.52960 0.20900 0.93740 -0.10700
C 	C 	0.51110 0.20760 0.96480 -0.02800
C 	C 	0.51300 0.21740 0.93500 0.06500
C 	C 	0.48150 0.16380 0.94260 -0.01600
C 	C 	0.49380 0.14460 0.83010 -0.18700
C 	C 	0.46870 0.16480 0.82210 0.07700
C 	C 	0.46580 0.17600 0.79110 0.28300
C 	C 	0.48790 0.16710 0.76810 -0.73100
C 	C 	0.51290 0.14690 0.77620 -0.27100
C 	C 	0.51580 0.13570 0.80720 -0.35600
C 	C 	0.49750 0.13870 0.83040 0.00600
C 	C 	0.47450 0.15950 0.81870 -0.15000
C 	C 	0.47230 0.16500 0.78610 -0.06800
C 	C 	0.49310 0.14970 0.76530 0.87200
C 	C 	0.51610 0.12900 0.77710 -0.04800
C 	C 	0.51830 0.12350 0.80970 0.35000
C 	C 	0.57980 0.61990 0.87470 -0.23700
N 	N 	0.55320 0.61690 0.87420 -0.20400
C 	C 	0.52400 0.56220 0.83740 0.02400
C 	C 	0.52960 0.54100 0.81260 -0.11300
C 	C 	0.51110 0.54240 0.78520 -0.02200
C 	C 	0.51300 0.53260 0.81500 0.06900
C 	C 	0.48150 0.58620 0.80740 -0.01900
C 	C 	0.49380 0.60540 0.91990 -0.18600
C 	C 	0.46870 0.58520 0.92790 0.07600
C 	C 	0.46580 0.57400 0.95890 0.27700
C 	C 	0.48790 0.58290 0.98190 -0.72300
C 	C 	0.51290 0.60310 0.97380 -0.27100
C 	C 	0.51580 0.61430 0.94280 -0.35100
C 	C 	0.49750 0.61130 0.91960 0.00500
C 	C 	0.47450 0.59050 0.93130 -0.14800
C 	C 	0.47230 0.58500 0.96390 -0.06000
C 	C 	0.49310 0.60030 0.98470 0.86300
C 	C 	0.51610 0.62100 0.97290 -0.04500
C 	C 	0.51830 0.62650 0.94030 0.34600
C 	C 	0.57980 0.11990 0.37470 -0.23800
N 	N 	0.55320 0.11690 0.37420 -0.20400
C 	C 	0.52400 0.06220 0.33740 0.02300
C 	C 	0.52960 0.04100 0.31260 -0.10300
C 	C 	0.51110 0.04240 0.28520 -0.02700
C 	C 	0.51300 0.03260 0.31500 0.05800
C 	C 	0.48150 0.08620 0.30740 -0.01900
C 	C 	0.49380 0.10540 0.41990 -0.18600
C 	C 	0.46870 0.08520 0.42790 0.07700
C 	C 	0.46580 0.07400 0.45890 0.27800
C 	C 	0.48790 0.08290 0.48190 -0.71400
C 	C 	0.51290 0.10310 0.47380 -0.26500
C 	C 	0.51580 0.11430 0.44280 -0.35000
C 	C 	0.49750 0.11130 0.41960 0.00400
C 	C 	0.47450 0.09050 0.43130 -0.15000
C 	C 	0.47230 0.08500 0.46390 -0.06800
C 	C 	0.49310 0.10030 0.48470 0.85100
C 	C 	0.51610 0.12100 0.47290 -0.04700
C 	C 	0.51830 0.12650 0.44030 0.34300
C 	C 	0.07980 0.61990 0.37470 -0.23800
N 	N 	0.05320 0.61690 0.37420 -0.20500
C 	C 	0.02400 0.56220 0.33740 0.02600
C 	C 	0.02960 0.54100 0.31260 -0.04900
C 	C 	0.01110 0.54240 0.28520 -0.08100
C 	C 	0.01300 0.53260 0.31500 0.01500
C 	C 	0.98150 0.58620 0.30740 -0.00600
C 	C 	0.99380 0.60540 0.41990 -0.18100
C 	C 	0.96870 0.58520 0.42790 0.07600
C 	C 	0.96580 0.57400 0.45890 0.25500
C 	C 	0.98790 0.58290 0.48190 -0.65700
C 	C 	0.01290 0.60310 0.47380 -0.23600
C 	C 	0.01580 0.61430 0.44280 -0.33400
C 	C 	0.99750 0.61130 0.41960 0.00100
C 	C 	0.97450 0.59050 0.43130 -0.14200
C 	C 	0.97230 0.58500 0.46390 -0.05900
C 	C 	0.99310 0.60030 0.48470 0.78400
C 	C 	0.01610 0.62100 0.47290 -0.05400
C 	C 	0.01830 0.62650 0.44030 0.32300
C 	C 	0.07980 0.11990 0.87470 -0.23900
N 	N 	0.05320 0.11690 0.87420 -0.20500
C 	C 	0.02400 0.06220 0.83740 0.02500
C 	C 	0.02960 0.04100 0.81260 -0.04000
C 	C 	0.01110 0.04240 0.78520 -0.08600
C 	C 	0.01300 0.03260 0.81500 0.00400
C 	C 	0.98150 0.08620 0.80740 -0.00500
C 	C 	0.99380 0.10540 0.91990 -0.18100
C 	C 	0.96870 0.08520 0.92790 0.07500
C 	C 	0.96580 0.07400 0.95890 0.25100
C 	C 	0.98790 0.08290 0.98190 -0.65300
C 	C 	0.01290 0.10310 0.97380 -0.23300
C 	C 	0.01580 0.11430 0.94280 -0.33100
C 	C 	0.99750 0.11130 0.91960 -0.00100
C 	C 	0.97450 0.09050 0.93130 -0.14100
C 	C 	0.97230 0.08500 0.96390 -0.05400
C 	C 	0.99310 0.10030 0.98470 0.77600
C 	C 	0.01610 0.12100 0.97290 -0.05500
C 	C 	0.01830 0.12650 0.94030 0.32000
C 	C 	0.17020 0.11990 0.37530 -0.23800
N 	N 	0.19680 0.11690 0.37580 -0.20400
C 	C 	0.22600 0.06220 0.41260 0.02300
C 	C 	0.22040 0.04100 0.43740 -0.10300
C 	C 	0.23890 0.04240 0.46480 -0.02700
C 	C 	0.23700 0.03260 0.43500 0.05800
C 	C 	0.26850 0.08620 0.44260 -0.01900
C 	C 	0.25620 0.10540 0.33010 -0.18600
C 	C 	0.28130 0.08520 0.32210 0.07700
C 	C 	0.28420 0.07400 0.29110 0.27800
C 	C 	0.26210 0.08290 0.26810 -0.71400
C 	C 	0.23710 0.10310 0.27620 -0.26600
C 	C 	0.23420 0.11430 0.30720 -0.35000
C 	C 	0.25250 0.11130 0.33040 0.00400
C 	C 	0.27550 0.09050 0.31870 -0.15000
C 	C 	0.27770 0.08500 0.28610 -0.06800
C 	C 	0.25690 0.10030 0.26530 0.85200
C 	C 	0.23390 0.12100 0.27710 -0.04700
C 	C 	0.23170 0.12650 0.30970 0.34300
C 	C 	0.17020 0.61990 0.87530 -0.23700
N 	N 	0.19680 0.61690 0.87580 -0.20400
C 	C 	0.22600 0.56220 0.91260 0.02400
C 	C 	0.22040 0.54100 0.93740 -0.10700
C 	C 	0.23890 0.54240 0.96480 -0.02800
C 	C 	0.23700 0.53260 0.93500 0.06500
C 	C 	0.26850 0.58620 0.94260 -0.01700
C 	C 	0.25620 0.60540 0.83010 -0.18600
C 	C 	0.28130 0.58520 0.82210 0.07700
C 	C 	0.28420 0.57400 0.79110 0.28000
C 	C 	0.26210 0.58290 0.76810 -0.72200
C 	C 	0.23710 0.60310 0.77620 -0.27000
C 	C 	0.23420 0.61430 0.80720 -0.35300
C 	C 	0.25250 0.61130 0.83040 0.00500
C 	C 	0.27550 0.59050 0.81870 -0.15000
C 	C 	0.27770 0.58500 0.78610 -0.06700
C 	C 	0.25690 0.60030 0.76530 0.86200
C 	C 	0.23390 0.62100 0.77710 -0.04600
C 	C 	0.23170 0.62650 0.80970 0.34700
C 	C 	0.67020 0.11990 0.87530 -0.23800
N 	N 	0.69680 0.11690 0.87580 -0.20400
C 	C 	0.72600 0.06220 0.91260 0.02300
C 	C 	0.72040 0.04100 0.93740 -0.09700
C 	C 	0.73890 0.04240 0.96480 -0.03300
C 	C 	0.73700 0.03260 0.93500 0.05400
C 	C 	0.76850 0.08620 0.94260 -0.01600
C 	C 	0.75620 0.10540 0.83010 -0.18600
C 	C 	0.78130 0.08520 0.82210 0.07700
C 	C 	0.78420 0.07400 0.79110 0.27900
C 	C 	0.76210 0.08290 0.76810 -0.71400
C 	C 	0.73710 0.10310 0.77620 -0.26500
C 	C 	0.73420 0.11430 0.80720 -0.35000
C 	C 	0.75250 0.11130 0.83040 0.00400
C 	C 	0.77550 0.09050 0.81870 -0.15000
C 	C 	0.77770 0.08500 0.78610 -0.06800
C 	C 	0.75690 0.10030 0.76530 0.85200
C 	C 	0.73390 0.12100 0.77710 -0.04700
C 	C 	0.73170 0.12650 0.80970 0.34300
C 	C 	0.67020 0.61990 0.37530 -0.23700
N 	N 	0.69680 0.61690 0.37580 -0.20400
C 	C 	0.72600 0.56220 0.41260 0.02400
C 	C 	0.72040 0.54100 0.43740 -0.11300
C 	C 	0.73890 0.54240 0.46480 -0.02200
C 	C 	0.73700 0.53260 0.43500 0.07000
C 	C 	0.76850 0.58620 0.44260 -0.01900
C 	C 	0.75620 0.60540 0.33010 -0.18600
C 	C 	0.78130 0.58520 0.32210 0.07700
C 	C 	0.78420 0.57400 0.29110 0.28000
C 	C 	0.76210 0.58290 0.26810 -0.72100
C 	C 	0.73710 0.60310 0.27620 -0.27000
C 	C 	0.73420 0.61430 0.30720 -0.35200
C 	C 	0.75250 0.61130 0.33040 0.00500
C 	C 	0.77550 0.59050 0.31870 -0.15000
C 	C 	0.77770 0.58500 0.28610 -0.06700
C 	C 	0.75690 0.60030 0.26530 0.86100
C 	C 	0.73390 0.62100 0.27710 -0.04600
C 	C 	0.73170 0.62650 0.30970 0.34600
C 	C 	0.67020 0.13010 0.37470 -0.23800
N 	N 	0.69680 0.13310 0.37420 -0.20400
C 	C 	0.72600 0.18780 0.33740 0.02400
C 	C 	0.72040 0.20900 0.31260 -0.11400
C 	C 	0.73890 0.20760 0.28520 -0.02200
C 	C 	0.73700 0.21740 0.31500 0.07000
C 	C 	0.76850 0.16380 0.30740 -0.01900
C 	C 	0.75620 0.14460 0.41990 -0.18700
C 	C 	0.78130 0.16480 0.42790 0.07700
C 	C 	0.78420 0.17600 0.45890 0.28300
C 	C 	0.76210 0.16710 0.48190 -0.73000
C 	C 	0.73710 0.14690 0.47380 -0.27100
C 	C 	0.73420 0.13570 0.44280 -0.35600
C 	C 	0.75250 0.13870 0.41960 0.00600
C 	C 	0.77550 0.15950 0.43130 -0.15000
C 	C 	0.77770 0.16500 0.46390 -0.06800
C 	C 	0.75690 0.14970 0.48470 0.87100
C 	C 	0.73390 0.12900 0.47290 -0.04800
C 	C 	0.73170 0.12350 0.44030 0.34900
C 	C 	0.67020 0.63010 0.87470 -0.23700
N 	N 	0.69680 0.63310 0.87420 -0.20400
C 	C 	0.72600 0.68780 0.83740 0.02400
C 	C 	0.72040 0.70900 0.81260 -0.11400
C 	C 	0.73890 0.70760 0.78520 -0.02200
C 	C 	0.73700 0.71740 0.81500 0.07000
C 	C 	0.76850 0.66380 0.80740 -0.01900
C 	C 	0.75620 0.64460 0.91990 -0.18600
C 	C 	0.78130 0.66480 0.92790 0.07600
C 	C 	0.78420 0.67600 0.95890 0.27700
C 	C 	0.76210 0.66710 0.98190 -0.72300
C 	C 	0.73710 0.64690 0.97380 -0.27100
C 	C 	0.73420 0.63570 0.94280 -0.35100
C 	C 	0.75250 0.63870 0.91960 0.00500
C 	C 	0.77550 0.65950 0.93130 -0.14800
C 	C 	0.77770 0.66500 0.96390 -0.06100
C 	C 	0.75690 0.64970 0.98470 0.86200
C 	C 	0.73390 0.62900 0.97290 -0.04500
C 	C 	0.73170 0.62350 0.94030 0.34600
C 	C 	0.17020 0.13010 0.87470 -0.23800
N 	N 	0.19680 0.13310 0.87420 -0.20400
C 	C 	0.22600 0.18780 0.83740 0.02400
C 	C 	0.22040 0.20900 0.81260 -0.11400
C 	C 	0.23890 0.20760 0.78520 -0.02200
C 	C 	0.23700 0.21740 0.81500 0.07000
C 	C 	0.26850 0.16380 0.80740 -0.01900
C 	C 	0.25620 0.14460 0.91990 -0.18600
C 	C 	0.28130 0.16480 0.92790 0.07600
C 	C 	0.28420 0.17600 0.95890 0.28100
C 	C 	0.26210 0.16710 0.98190 -0.73300
C 	C 	0.23710 0.14690 0.97380 -0.27300
C 	C 	0.23420 0.13570 0.94280 -0.35500
C 	C 	0.25250 0.13870 0.91960 0.00500
C 	C 	0.27550 0.15950 0.93130 -0.14900
C 	C 	0.27770 0.16500 0.96390 -0.06100
C 	C 	0.25690 0.14970 0.98470 0.87400
C 	C 	0.23390 0.12900 0.97290 -0.04800
C 	C 	0.23170 0.12350 0.94030 0.34900
C 	C 	0.17020 0.63010 0.37470 -0.23700
N 	N 	0.19680 0.63310 0.37420 -0.20400
C 	C 	0.22600 0.68780 0.33740 0.02400
C 	C 	0.22040 0.70900 0.31260 -0.11300
C 	C 	0.23890 0.70760 0.28520 -0.02200
C 	C 	0.23700 0.71740 0.31500 0.07000
C 	C 	0.26850 0.66380 0.30740 -0.01900
C 	C 	0.25620 0.64460 0.41990 -0.18600
C 	C 	0.28130 0.66480 0.42790 0.07700
C 	C 	0.28420 0.67600 0.45890 0.27900
C 	C 	0.26210 0.66710 0.48190 -0.72100
C 	C 	0.23710 0.64690 0.47380 -0.27000
C 	C 	0.23420 0.63570 0.44280 -0.35200
C 	C 	0.25250 0.63870 0.41960 0.00500
C 	C 	0.27550 0.65950 0.43130 -0.15000
C 	C 	0.27770 0.66500 0.46390 -0.06700
C 	C 	0.25690 0.64970 0.48470 0.86100
C 	C 	0.23390 0.62900 0.47290 -0.04600
C 	C 	0.23170 0.62350 0.44030 0.34600
C 	C 	0.87530 0.07980 0.63010 -0.23800
N 	N 	0.87580 0.05320 0.63310 -0.20400
C 	C 	0.91260 0.02400 0.68780 0.02600
C 	C 	0.93740 0.02960 0.70900 -0.04300
C 	C 	0.96480 0.01110 0.70760 -0.08600
C 	C 	0.93500 0.01300 0.71740 0.01100
C 	C 	0.94260 0.98150 0.66380 -0.00300
C 	C 	0.83010 0.99380 0.64460 -0.18200
C 	C 	0.82210 0.96870 0.66480 0.07600
C 	C 	0.79110 0.96580 0.67600 0.25500
C 	C 	0.76810 0.98790 0.66710 -0.65800
C 	C 	0.77620 0.01290 0.64690 -0.23600
C 	C 	0.80720 0.01580 0.63570 -0.33500
C 	C 	0.83040 0.99750 0.63870 0.00100
C 	C 	0.81870 0.97450 0.65950 -0.14200
C 	C 	0.78610 0.97230 0.66500 -0.05900
C 	C 	0.76530 0.99310 0.64970 0.78500
C 	C 	0.77710 0.01610 0.62900 -0.05500
C 	C 	0.80970 0.01830 0.62350 0.32300
C 	C 	0.87530 0.57980 0.13010 -0.23800
N 	N 	0.87580 0.55320 0.13310 -0.20400
C 	C 	0.91260 0.52400 0.18780 0.02400
C 	C 	0.93740 0.52960 0.20900 -0.10700
C 	C 	0.96480 0.51110 0.20760 -0.02800
C 	C 	0.93500 0.51300 0.21740 0.06500
C 	C 	0.94260 0.48150 0.16380 -0.01600
C 	C 	0.83010 0.49380 0.14460 -0.18700
C 	C 	0.82210 0.46870 0.16480 0.07700
C 	C 	0.79110 0.46580 0.17600 0.28300
C 	C 	0.76810 0.48790 0.16710 -0.73100
C 	C 	0.77620 0.51290 0.14690 -0.27100
C 	C 	0.80720 0.51580 0.13570 -0.35600
C 	C 	0.83040 0.49750 0.13870 0.00600
C 	C 	0.81870 0.47450 0.15950 -0.15000
C 	C 	0.78610 0.47230 0.16500 -0.06800
C 	C 	0.76530 0.49310 0.14970 0.87200
C 	C 	0.77710 0.51610 0.12900 -0.04800
C 	C 	0.80970 0.51830 0.12350 0.35000
C 	C 	0.37530 0.07980 0.13010 -0.23900
N 	N 	0.37580 0.05320 0.13310 -0.20500
C 	C 	0.41260 0.02400 0.18780 0.02600
C 	C 	0.43740 0.02960 0.20900 -0.05000
C 	C 	0.46480 0.01110 0.20760 -0.08100
C 	C 	0.43500 0.01300 0.21740 0.01500
C 	C 	0.44260 0.98150 0.16380 -0.00600
C 	C 	0.33010 0.99380 0.14460 -0.18200
C 	C 	0.32210 0.96870 0.16480 0.07600
C 	C 	0.29110 0.96580 0.17600 0.25800
C 	C 	0.26810 0.98790 0.16710 -0.66700
C 	C 	0.27620 0.01290 0.14690 -0.23800
C 	C 	0.30720 0.01580 0.13570 -0.33800
C 	C 	0.33040 0.99750 0.13870 0.00100
C 	C 	0.31870 0.97450 0.15950 -0.14300
C 	C 	0.28610 0.97230 0.16500 -0.06000
C 	C 	0.26530 0.99310 0.14970 0.79500
C 	C 	0.27710 0.01610 0.12900 -0.05700
C 	C 	0.30970 0.01830 0.12350 0.32600
C 	C 	0.37530 0.57980 0.63010 -0.23700
N 	N 	0.37580 0.55320 0.63310 -0.20400
C 	C 	0.41260 0.52400 0.68780 0.02400
C 	C 	0.43740 0.52960 0.70900 -0.11300
C 	C 	0.46480 0.51110 0.70760 -0.02200
C 	C 	0.43500 0.51300 0.71740 0.07000
C 	C 	0.44260 0.48150 0.66380 -0.01900
C 	C 	0.33010 0.49380 0.64460 -0.18600
C 	C 	0.32210 0.46870 0.66480 0.07700
C 	C 	0.29110 0.46580 0.67600 0.27900
C 	C 	0.26810 0.48790 0.66710 -0.72100
C 	C 	0.27620 0.51290 0.64690 -0.27000
C 	C 	0.30720 0.51580 0.63570 -0.35200
C 	C 	0.33040 0.49750 0.63870 0.00500
C 	C 	0.31870 0.47450 0.65950 -0.15000
C 	C 	0.28610 0.47230 0.66500 -0.06700
C 	C 	0.26530 0.49310 0.64970 0.86100
C 	C 	0.27710 0.51610 0.62900 -0.04600
C 	C 	0.30970 0.51830 0.62350 0.34600
C 	C 	0.87470 0.57980 0.61990 -0.23700
N 	N 	0.87420 0.55320 0.61690 -0.20400
C 	C 	0.83740 0.52400 0.56220 0.02400
C 	C 	0.81260 0.52960 0.54100 -0.11300
C 	C 	0.78520 0.51110 0.54240 -0.02200
C 	C 	0.81500 0.51300 0.53260 0.06900
C 	C 	0.80740 0.48150 0.58620 -0.01900
C 	C 	0.91990 0.49380 0.60540 -0.18600
C 	C 	0.92790 0.46870 0.58520 0.07600
C 	C 	0.95890 0.46580 0.57400 0.27700
C 	C 	0.98190 0.48790 0.58290 -0.72300
C 	C 	0.97380 0.51290 0.60310 -0.27100
C 	C 	0.94280 0.51580 0.61430 -0.35100
C 	C 	0.91960 0.49750 0.61130 0.00500
C 	C 	0.93130 0.47450 0.59050 -0.14800
C 	C 	0.96390 0.47230 0.58500 -0.06000
C 	C 	0.98470 0.49310 0.60030 0.86300
C 	C 	0.97290 0.51610 0.62100 -0.04500
C 	C 	0.94030 0.51830 0.62650 0.34600
C 	C 	0.87470 0.07980 0.11990 -0.23900
N 	N 	0.87420 0.05320 0.11690 -0.20500
C 	C 	0.83740 0.02400 0.06220 0.02500
C 	C 	0.81260 0.02960 0.04100 -0.04000
C 	C 	0.78520 0.01110 0.04240 -0.08600
C 	C 	0.81500 0.01300 0.03260 0.00400
C 	C 	0.80740 0.98150 0.08620 -0.00500
C 	C 	0.91990 0.99380 0.10540 -0.18100
C 	C 	0.92790 0.96870 0.08520 0.07500
C 	C 	0.95890 0.96580 0.07400 0.25100
C 	C 	0.98190 0.98790 0.08290 -0.65300
C 	C 	0.97380 0.01290 0.10310 -0.23300
C 	C 	0.94280 0.01580 0.11430 -0.33100
C 	C 	0.91960 0.99750 0.11130 -0.00100
C 	C 	0.93130 0.97450 0.09050 -0.14100
C 	C 	0.96390 0.97230 0.08500 -0.05400
C 	C 	0.98470 0.99310 0.10030 0.77600
C 	C 	0.97290 0.01610 0.12100 -0.05500
C 	C 	0.94030 0.01830 0.12650 0.32000
C 	C 	0.37470 0.57980 0.11990 -0.23800
N 	N 	0.37420 0.55320 0.11690 -0.20400
C 	C 	0.33740 0.52400 0.06220 0.02300
C 	C 	0.31260 0.52960 0.04100 -0.10300
C 	C 	0.28520 0.51110 0.04240 -0.02700
C 	C 	0.31500 0.51300 0.03260 0.05800
C 	C 	0.30740 0.48150 0.08620 -0.01900
C 	C 	0.41990 0.49380 0.10540 -0.18600
C 	C 	0.42790 0.46870 0.08520 0.07700
C 	C 	0.45890 0.46580 0.07400 0.27800
C 	C 	0.48190 0.48790 0.08290 -0.71400
C 	C 	0.47380 0.51290 0.10310 -0.26500
C 	C 	0.44280 0.51580 0.11430 -0.35000
C 	C 	0.41960 0.49750 0.11130 0.00400
C 	C 	0.43130 0.47450 0.09050 -0.15000
C 	C 	0.46390 0.47230 0.08500 -0.06800
C 	C 	0.48470 0.49310 0.10030 0.85100
C 	C 	0.47290 0.51610 0.12100 -0.04700
C 	C 	0.44030 0.51830 0.12650 0.34300
C 	C 	0.37470 0.07980 0.61990 -0.23800
N 	N 	0.37420 0.05320 0.61690 -0.20500
C 	C 	0.33740 0.02400 0.56220 0.02600
C 	C 	0.31260 0.02960 0.54100 -0.04900
C 	C 	0.28520 0.01110 0.54240 -0.08100
C 	C 	0.31500 0.01300 0.53260 0.01500
C 	C 	0.30740 0.98150 0.58620 -0.00600
C 	C 	0.41990 0.99380 0.60540 -0.18100
C 	C 	0.42790 0.96870 0.58520 0.07600
C 	C 	0.45890 0.96580 0.57400 0.25500
C 	C 	0.48190 0.98790 0.58290 -0.65700
C 	C 	0.47380 0.01290 0.60310 -0.23600
C 	C 	0.44280 0.01580 0.61430 -0.33400
C 	C 	0.41960 0.99750 0.61130 0.00100
C 	C 	0.43130 0.97450 0.59050 -0.14200
C 	C 	0.46390 0.97230 0.58500 -0.05900
C 	C 	0.48470 0.99310 0.60030 0.78400
C 	C 	0.47290 0.01610 0.62100 -0.05400
C 	C 	0.44030 0.01830 0.62650 0.32300
C 	C 	0.37530 0.17020 0.11990 -0.23800
N 	N 	0.37580 0.19680 0.11690 -0.20400
C 	C 	0.41260 0.22600 0.06220 0.02300
C 	C 	0.43740 0.22040 0.04100 -0.10300
C 	C 	0.46480 0.23890 0.04240 -0.02700
C 	C 	0.43500 0.23700 0.03260 0.05800
C 	C 	0.44260 0.26850 0.08620 -0.01900
C 	C 	0.33010 0.25620 0.10540 -0.18600
C 	C 	0.32210 0.28130 0.08520 0.07700
C 	C 	0.29110 0.28420 0.07400 0.27800
C 	C 	0.26810 0.26210 0.08290 -0.71400
C 	C 	0.27620 0.23710 0.10310 -0.26600
C 	C 	0.30720 0.23420 0.11430 -0.35000
C 	C 	0.33040 0.25250 0.11130 0.00400
C 	C 	0.31870 0.27550 0.09050 -0.15000
C 	C 	0.28610 0.27770 0.08500 -0.06800
C 	C 	0.26530 0.25690 0.10030 0.85200
C 	C 	0.27710 0.23390 0.12100 -0.04700
C 	C 	0.30970 0.23170 0.12650 0.34300
C 	C 	0.37530 0.67020 0.61990 -0.23700
N 	N 	0.37580 0.69680 0.61690 -0.20400
C 	C 	0.41260 0.72600 0.56220 0.02400
C 	C 	0.43740 0.72040 0.54100 -0.11300
C 	C 	0.46480 0.73890 0.54240 -0.02200
C 	C 	0.43500 0.73700 0.53260 0.07000
C 	C 	0.44260 0.76850 0.58620 -0.01900
C 	C 	0.33010 0.75620 0.60540 -0.18600
C 	C 	0.32210 0.78130 0.58520 0.07700
C 	C 	0.29110 0.78420 0.57400 0.28000
C 	C 	0.26810 0.76210 0.58290 -0.72100
C 	C 	0.27620 0.73710 0.60310 -0.27000
C 	C 	0.30720 0.73420 0.61430 -0.35200
C 	C 	0.33040 0.75250 0.61130 0.00500
C 	C 	0.31870 0.77550 0.59050 -0.15000
C 	C 	0.28610 0.77770 0.58500 -0.06700
C 	C 	0.26530 0.75690 0.60030 0.86100
C 	C 	0.27710 0.73390 0.62100 -0.04600
C 	C 	0.30970 0.73170 0.62650 0.34600
C 	C 	0.87530 0.17020 0.61990 -0.23700
N 	N 	0.87580 0.19680 0.61690 -0.20400
C 	C 	0.91260 0.22600 0.56220 0.02400
C 	C 	0.93740 0.22040 0.54100 -0.10700
C 	C 	0.96480 0.23890 0.54240 -0.02800
C 	C 	0.93500 0.23700 0.53260 0.06500
C 	C 	0.94260 0.26850 0.58620 -0.01700
C 	C 	0.83010 0.25620 0.60540 -0.18600
C 	C 	0.82210 0.28130 0.58520 0.07700
C 	C 	0.79110 0.28420 0.57400 0.28000
C 	C 	0.76810 0.26210 0.58290 -0.72200
C 	C 	0.77620 0.23710 0.60310 -0.27000
C 	C 	0.80720 0.23420 0.61430 -0.35300
C 	C 	0.83040 0.25250 0.61130 0.00500
C 	C 	0.81870 0.27550 0.59050 -0.15000
C 	C 	0.78610 0.27770 0.58500 -0.06700
C 	C 	0.76530 0.25690 0.60030 0.86200
C 	C 	0.77710 0.23390 0.62100 -0.04600
C 	C 	0.80970 0.23170 0.62650 0.34700
C 	C 	0.87530 0.67020 0.11990 -0.23800
N 	N 	0.87580 0.69680 0.11690 -0.20400
C 	C 	0.91260 0.72600 0.06220 0.02300
C 	C 	0.93740 0.72040 0.04100 -0.09700
C 	C 	0.96480 0.73890 0.04240 -0.03300
C 	C 	0.93500 0.73700 0.03260 0.05400
C 	C 	0.94260 0.76850 0.08620 -0.01600
C 	C 	0.83010 0.75620 0.10540 -0.18600
C 	C 	0.82210 0.78130 0.08520 0.07700
C 	C 	0.79110 0.78420 0.07400 0.27900
C 	C 	0.76810 0.76210 0.08290 -0.71400
C 	C 	0.77620 0.73710 0.10310 -0.26500
C 	C 	0.80720 0.73420 0.11430 -0.35000
C 	C 	0.83040 0.75250 0.11130 0.00400
C 	C 	0.81870 0.77550 0.09050 -0.15000
C 	C 	0.78610 0.77770 0.08500 -0.06800
C 	C 	0.76530 0.75690 0.10030 0.85200
C 	C 	0.77710 0.73390 0.12100 -0.04700
C 	C 	0.80970 0.73170 0.12650 0.34300
C 	C 	0.37470 0.67020 0.13010 -0.23800
N 	N 	0.37420 0.69680 0.13310 -0.20400
C 	C 	0.33740 0.72600 0.18780 0.02400
C 	C 	0.31260 0.72040 0.20900 -0.11400
C 	C 	0.28520 0.73890 0.20760 -0.02200
C 	C 	0.31500 0.73700 0.21740 0.07000
C 	C 	0.30740 0.76850 0.16380 -0.01900
C 	C 	0.41990 0.75620 0.14460 -0.18700
C 	C 	0.42790 0.78130 0.16480 0.07700
C 	C 	0.45890 0.78420 0.17600 0.28300
C 	C 	0.48190 0.76210 0.16710 -0.73000
C 	C 	0.47380 0.73710 0.14690 -0.27100
C 	C 	0.44280 0.73420 0.13570 -0.35600
C 	C 	0.41960 0.75250 0.13870 0.00600
C 	C 	0.43130 0.77550 0.15950 -0.15000
C 	C 	0.46390 0.77770 0.16500 -0.06800
C 	C 	0.48470 0.75690 0.14970 0.87100
C 	C 	0.47290 0.73390 0.12900 -0.04800
C 	C 	0.44030 0.73170 0.12350 0.34900
C 	C 	0.37470 0.17020 0.63010 -0.23700
N 	N 	0.37420 0.19680 0.63310 -0.20400
C 	C 	0.33740 0.22600 0.68780 0.02400
C 	C 	0.31260 0.22040 0.70900 -0.11300
C 	C 	0.28520 0.23890 0.70760 -0.02200
C 	C 	0.31500 0.23700 0.71740 0.07000
C 	C 	0.30740 0.26850 0.66380 -0.01900
C 	C 	0.41990 0.25620 0.64460 -0.18600
C 	C 	0.42790 0.28130 0.66480 0.07700
C 	C 	0.45890 0.28420 0.67600 0.27900
C 	C 	0.48190 0.26210 0.66710 -0.72100
C 	C 	0.47380 0.23710 0.64690 -0.27000
C 	C 	0.44280 0.23420 0.63570 -0.35200
C 	C 	0.41960 0.25250 0.63870 0.00500
C 	C 	0.43130 0.27550 0.65950 -0.15000
C 	C 	0.46390 0.27770 0.66500 -0.06700
C 	C 	0.48470 0.25690 0.64970 0.86100
C 	C 	0.47290 0.23390 0.62900 -0.04600
C 	C 	0.44030 0.23170 0.62350 0.34600
C 	C 	0.87470 0.67020 0.63010 -0.23700
N 	N 	0.87420 0.69680 0.63310 -0.20400
C 	C 	0.83740 0.72600 0.68780 0.02400
C 	C 	0.81260 0.72040 0.70900 -0.11400
C 	C 	0.78520 0.73890 0.70760 -0.02200
C 	C 	0.81500 0.73700 0.71740 0.07000
C 	C 	0.80740 0.76850 0.66380 -0.01900
C 	C 	0.91990 0.75620 0.64460 -0.18600
C 	C 	0.92790 0.78130 0.66480 0.07600
C 	C 	0.95890 0.78420 0.67600 0.27700
C 	C 	0.98190 0.76210 0.66710 -0.72300
C 	C 	0.97380 0.73710 0.64690 -0.27100
C 	C 	0.94280 0.73420 0.63570 -0.35100
C 	C 	0.91960 0.75250 0.63870 0.00500
C 	C 	0.93130 0.77550 0.65950 -0.14800
C 	C 	0.96390 0.77770 0.66500 -0.06100
C 	C 	0.98470 0.75690 0.64970 0.86200
C 	C 	0.97290 0.73390 0.62900 -0.04500
C 	C 	0.94030 0.73170 0.62350 0.34600
C 	C 	0.87470 0.17020 0.13010 -0.23800
N 	N 	0.87420 0.19680 0.13310 -0.20400
C 	C 	0.83740 0.22600 0.18780 0.02400
C 	C 	0.81260 0.22040 0.20900 -0.11400
C 	C 	0.78520 0.23890 0.20760 -0.02200
C 	C 	0.81500 0.23700 0.21740 0.07000
C 	C 	0.80740 0.26850 0.16380 -0.01900
C 	C 	0.91990 0.25620 0.14460 -0.18600
C 	C 	0.92790 0.28130 0.16480 0.07600
C 	C 	0.95890 0.28420 0.17600 0.28100
C 	C 	0.98190 0.26210 0.16710 -0.73300
C 	C 	0.97380 0.23710 0.14690 -0.27300
C 	C 	0.94280 0.23420 0.13570 -0.35500
C 	C 	0.91960 0.25250 0.13870 0.00500
C 	C 	0.93130 0.27550 0.15950 -0.14900
C 	C 	0.96390 0.27770 0.16500 -0.06100
C 	C 	0.98470 0.25690 0.14970 0.87400
C 	C 	0.97290 0.23390 0.12900 -0.04800
C 	C 	0.94030 0.23170 0.12350 0.34900
C 	C 	0.62530 0.88010 0.92020 -0.23600
N 	N 	0.62580 0.88310 0.94680 -0.20300
C 	C 	0.66260 0.93780 0.97600 0.02500
C 	C 	0.68740 0.95900 0.97040 -0.18900
C 	C 	0.71480 0.95760 0.98890 0.04100
C 	C 	0.68500 0.96740 0.98700 0.13600
C 	C 	0.69260 0.91380 0.01850 -0.03000
C 	C 	0.58010 0.89460 0.00620 -0.19100
C 	C 	0.57210 0.91480 0.03130 0.07800
C 	C 	0.54110 0.92600 0.03420 0.30500
C 	C 	0.51810 0.91710 0.01210 -0.79000
C 	C 	0.52620 0.89690 0.98710 -0.30700
C 	C 	0.55720 0.88570 0.98420 -0.37200
C 	C 	0.58040 0.88870 0.00250 0.01000
C 	C 	0.56870 0.90950 0.02550 -0.15600
C 	C 	0.53610 0.91500 0.02770 -0.07300
C 	C 	0.51530 0.89970 0.00690 0.94600
C 	C 	0.52710 0.87900 0.98390 -0.03500
C 	C 	0.55970 0.87350 0.98170 0.37200
C 	C 	0.62530 0.38010 0.42020 -0.23700
N 	N 	0.62580 0.38310 0.44680 -0.20400
C 	C 	0.66260 0.43780 0.47600 0.02400
C 	C 	0.68740 0.45900 0.47040 -0.11300
C 	C 	0.71480 0.45760 0.48890 -0.02200
C 	C 	0.68500 0.46740 0.48700 0.06900
C 	C 	0.69260 0.41380 0.51850 -0.01900
C 	C 	0.58010 0.39460 0.50620 -0.18600
C 	C 	0.57210 0.41480 0.53130 0.07700
C 	C 	0.54110 0.42600 0.53420 0.27900
C 	C 	0.51810 0.41710 0.51210 -0.72100
C 	C 	0.52620 0.39690 0.48710 -0.27000
C 	C 	0.55720 0.38570 0.48420 -0.35200
C 	C 	0.58040 0.38870 0.50250 0.00500
C 	C 	0.56870 0.40950 0.52550 -0.15000
C 	C 	0.53610 0.41500 0.52770 -0.06700
C 	C 	0.51530 0.39970 0.50690 0.86100
C 	C 	0.52710 0.37900 0.48390 -0.04600
C 	C 	0.55970 0.37350 0.48170 0.34600
C 	C 	0.12530 0.88010 0.42020 -0.23700
N 	N 	0.12580 0.88310 0.44680 -0.20400
C 	C 	0.16260 0.93780 0.47600 0.02500
C 	C 	0.18740 0.95900 0.47040 -0.12300
C 	C 	0.21480 0.95760 0.48890 -0.01800
C 	C 	0.18500 0.96740 0.48700 0.08100
C 	C 	0.19260 0.91380 0.51850 -0.02000
C 	C 	0.08010 0.89460 0.50620 -0.18700
C 	C 	0.07210 0.91480 0.53130 0.07800
C 	C 	0.04110 0.92600 0.53420 0.28300
C 	C 	0.01810 0.91710 0.51210 -0.72500
C 	C 	0.02620 0.89690 0.48710 -0.27200
C 	C 	0.05720 0.88570 0.48420 -0.35500
C 	C 	0.08040 0.88870 0.50250 0.00600
C 	C 	0.06870 0.90950 0.52550 -0.15100
C 	C 	0.03610 0.91500 0.52770 -0.07200
C 	C 	0.01530 0.89970 0.50690 0.86800
C 	C 	0.02710 0.87900 0.48390 -0.04500
C 	C 	0.05970 0.87350 0.48170 0.34900
C 	C 	0.12530 0.38010 0.92020 -0.23600
N 	N 	0.12580 0.38310 0.94680 -0.20300
C 	C 	0.16260 0.43780 0.97600 0.02400
C 	C 	0.18740 0.45900 0.97040 -0.17900
C 	C 	0.21480 0.45760 0.98890 0.03600
C 	C 	0.18500 0.46740 0.98700 0.12500
C 	C 	0.19260 0.41380 0.01850 -0.03000
C 	C 	0.08010 0.39460 0.00620 -0.19100
C 	C 	0.07210 0.41480 0.03130 0.07900
C 	C 	0.04110 0.42600 0.03420 0.30600
C 	C 	0.01810 0.41710 0.01210 -0.77900
C 	C 	0.02620 0.39690 0.98710 -0.30100
C 	C 	0.05720 0.38570 0.98420 -0.37000
C 	C 	0.08040 0.38870 0.00250 0.01000
C 	C 	0.06870 0.40950 0.02550 -0.15800
C 	C 	0.03610 0.41500 0.02770 -0.08000
C 	C 	0.01530 0.39970 0.00690 0.93300
C 	C 	0.02710 0.37900 0.98390 -0.03700
C 	C 	0.05970 0.37350 0.98170 0.36800
C 	C 	0.62470 0.86990 0.42020 -0.23700
N 	N 	0.62420 0.86690 0.44680 -0.20400
C 	C 	0.58740 0.81220 0.47600 0.02400
C 	C 	0.56260 0.79100 0.47040 -0.11300
C 	C 	0.53520 0.79240 0.48890 -0.02200
C 	C 	0.56500 0.78260 0.48700 0.06900
C 	C 	0.55740 0.83620 0.51850 -0.01900
C 	C 	0.66990 0.85540 0.50620 -0.18600
C 	C 	0.67790 0.83520 0.53130 0.07700
C 	C 	0.70890 0.82400 0.53420 0.27500
C 	C 	0.73190 0.83290 0.51210 -0.71000
C 	C 	0.72380 0.85310 0.48710 -0.26800
C 	C 	0.69280 0.86430 0.48420 -0.34800
C 	C 	0.66960 0.86130 0.50250 0.00400
C 	C 	0.68130 0.84050 0.52550 -0.14900
C 	C 	0.71390 0.83500 0.52770 -0.06600
C 	C 	0.73470 0.85030 0.50690 0.84900
C 	C 	0.72290 0.87100 0.48390 -0.04300
C 	C 	0.69030 0.87650 0.48170 0.34300
C 	C 	0.62470 0.36990 0.92020 -0.23600
N 	N 	0.62420 0.36690 0.94680 -0.20300
C 	C 	0.58740 0.31220 0.97600 0.02400
C 	C 	0.56260 0.29100 0.97040 -0.17900
C 	C 	0.53520 0.29240 0.98890 0.03600
C 	C 	0.56500 0.28260 0.98700 0.12500
C 	C 	0.55740 0.33620 0.01850 -0.03000
C 	C 	0.66990 0.35540 0.00620 -0.19100
C 	C 	0.67790 0.33520 0.03130 0.07800
C 	C 	0.70890 0.32400 0.03420 0.30300
C 	C 	0.73190 0.33290 0.01210 -0.78300
C 	C 	0.72380 0.35310 0.98710 -0.30300
C 	C 	0.69280 0.36430 0.98420 -0.36900
C 	C 	0.66960 0.36130 0.00250 0.01000
C 	C 	0.68130 0.34050 0.02550 -0.15600
C 	C 	0.71390 0.33500 0.02770 -0.07400
C 	C 	0.73470 0.35030 0.00690 0.93600
C 	C 	0.72290 0.37100 0.98390 -0.03700
C 	C 	0.69030 0.37650 0.98170 0.36800
C 	C 	0.12470 0.86990 0.92020 -0.23600
N 	N 	0.12420 0.86690 0.94680 -0.20300
C 	C 	0.08740 0.81220 0.97600 0.02400
C 	C 	0.06260 0.79100 0.97040 -0.18600
C 	C 	0.03520 0.79240 0.98890 0.04100
C 	C 	0.06500 0.78260 0.98700 0.12900
C 	C 	0.05740 0.83620 0.01850 -0.03200
C 	C 	0.16990 0.85540 0.00620 -0.19000
C 	C 	0.17790 0.83520 0.03130 0.07800
C 	C 	0.20890 0.82400 0.03420 0.29900
C 	C 	0.23190 0.83290 0.01210 -0.77200
C 	C 	0.22380 0.85310 0.98710 -0.30100
C 	C 	0.19280 0.86430 0.98420 -0.36500
C 	C 	0.16960 0.86130 0.00250 0.00900
C 	C 	0.18130 0.84050 0.02550 -0.15500
C 	C 	0.21390 0.83500 0.02770 -0.07300
C 	C 	0.23470 0.85030 0.00690 0.92400
C 	C 	0.22290 0.87100 0.98390 -0.03400
C 	C 	0.19030 0.87650 0.98170 0.36500
C 	C 	0.12470 0.36990 0.42020 -0.23800
N 	N 	0.12420 0.36690 0.44680 -0.20400
C 	C 	0.08740 0.31220 0.47600 0.02400
C 	C 	0.06260 0.29100 0.47040 -0.12000
C 	C 	0.03520 0.29240 0.48890 -0.01700
C 	C 	0.06500 0.28260 0.48700 0.07400
C 	C 	0.05740 0.33620 0.51850 -0.02200
C 	C 	0.16990 0.35540 0.50620 -0.18600
C 	C 	0.17790 0.33520 0.53130 0.07700
C 	C 	0.20890 0.32400 0.53420 0.27900
C 	C 	0.23190 0.33290 0.51210 -0.72000
C 	C 	0.22380 0.35310 0.48710 -0.27000
C 	C 	0.19280 0.36430 0.48420 -0.35200
C 	C 	0.16960 0.36130 0.50250 0.00500
C 	C 	0.18130 0.34050 0.52550 -0.15000
C 	C 	0.21390 0.33500 0.52770 -0.06600
C 	C 	0.23470 0.35030 0.50690 0.86000
C 	C 	0.22290 0.37100 0.48390 -0.04500
C 	C 	0.19030 0.37650 0.48170 0.34600
C 	C 	0.12530 0.36990 0.82980 -0.23700
N 	N 	0.12580 0.36690 0.80320 -0.20400
C 	C 	0.16260 0.31220 0.77400 0.02400
C 	C 	0.18740 0.29100 0.77960 -0.11300
C 	C 	0.21480 0.29240 0.76110 -0.02300
C 	C 	0.18500 0.28260 0.76300 0.06900
C 	C 	0.19260 0.33620 0.73150 -0.01900
C 	C 	0.08010 0.35540 0.74380 -0.18700
C 	C 	0.07210 0.33520 0.71870 0.07800
C 	C 	0.04110 0.32400 0.71580 0.28100
C 	C 	0.01810 0.33290 0.73790 -0.71700
C 	C 	0.02620 0.35310 0.76290 -0.26800
C 	C 	0.05720 0.36430 0.76580 -0.35300
C 	C 	0.08040 0.36130 0.74750 0.00500
C 	C 	0.06870 0.34050 0.72450 -0.15100
C 	C 	0.03610 0.33500 0.72230 -0.07300
C 	C 	0.01530 0.35030 0.74310 0.85700
C 	C 	0.02710 0.37100 0.76610 -0.04600
C 	C 	0.05970 0.37650 0.76830 0.34600
C 	C 	0.12530 0.86990 0.32980 -0.23700
N 	N 	0.12580 0.86690 0.30320 -0.20400
C 	C 	0.16260 0.81220 0.27400 0.02400
C 	C 	0.18740 0.79100 0.27960 -0.11300
C 	C 	0.21480 0.79240 0.26110 -0.02300
C 	C 	0.18500 0.78260 0.26300 0.06900
C 	C 	0.19260 0.83620 0.23150 -0.01900
C 	C 	0.08010 0.85540 0.24380 -0.18600
C 	C 	0.07210 0.83520 0.21870 0.07800
C 	C 	0.04110 0.82400 0.21580 0.27800
C 	C 	0.01810 0.83290 0.23790 -0.70700
C 	C 	0.02620 0.85310 0.26290 -0.26600
C 	C 	0.05720 0.86430 0.26580 -0.34900
C 	C 	0.08040 0.86130 0.24750 0.00400
C 	C 	0.06870 0.84050 0.22450 -0.15000
C 	C 	0.03610 0.83500 0.22230 -0.07100
C 	C 	0.01530 0.85030 0.24310 0.84700
C 	C 	0.02710 0.87100 0.26610 -0.04400
C 	C 	0.05970 0.87650 0.26830 0.34300
C 	C 	0.62530 0.36990 0.32980 -0.23700
N 	N 	0.62580 0.36690 0.30320 -0.20400
C 	C 	0.66260 0.31220 0.27400 0.02400
C 	C 	0.68740 0.29100 0.27960 -0.11300
C 	C 	0.71480 0.29240 0.26110 -0.02300
C 	C 	0.68500 0.28260 0.26300 0.06900
C 	C 	0.69260 0.33620 0.23150 -0.01900
C 	C 	0.58010 0.35540 0.24380 -0.18600
C 	C 	0.57210 0.33520 0.21870 0.07700
C 	C 	0.54110 0.32400 0.21580 0.27900
C 	C 	0.51810 0.33290 0.23790 -0.72100
C 	C 	0.52620 0.35310 0.26290 -0.27000
C 	C 	0.55720 0.36430 0.26580 -0.35200
C 	C 	0.58040 0.36130 0.24750 0.00500
C 	C 	0.56870 0.34050 0.22450 -0.15000
C 	C 	0.53610 0.33500 0.22230 -0.06600
C 	C 	0.51530 0.35030 0.24310 0.86100
C 	C 	0.52710 0.37100 0.26610 -0.04600
C 	C 	0.55970 0.37650 0.26830 0.34600
C 	C 	0.62530 0.86990 0.82980 -0.23700
N 	N 	0.62580 0.86690 0.80320 -0.20400
C 	C 	0.66260 0.81220 0.77400 0.02400
C 	C 	0.68740 0.79100 0.77960 -0.11300
C 	C 	0.71480 0.79240 0.76110 -0.02300
C 	C 	0.68500 0.78260 0.76300 0.06900
C 	C 	0.69260 0.83620 0.73150 -0.01900
C 	C 	0.58010 0.85540 0.74380 -0.18600
C 	C 	0.57210 0.83520 0.71870 0.07700
C 	C 	0.54110 0.82400 0.71580 0.27500
C 	C 	0.51810 0.83290 0.73790 -0.71000
C 	C 	0.52620 0.85310 0.76290 -0.26800
C 	C 	0.55720 0.86430 0.76580 -0.34900
C 	C 	0.58040 0.86130 0.74750 0.00400
C 	C 	0.56870 0.84050 0.72450 -0.14900
C 	C 	0.53610 0.83500 0.72230 -0.06600
C 	C 	0.51530 0.85030 0.74310 0.84900
C 	C 	0.52710 0.87100 0.76610 -0.04300
C 	C 	0.55970 0.87650 0.76830 0.34300
C 	C 	0.12470 0.38010 0.32980 -0.23800
N 	N 	0.12420 0.38310 0.30320 -0.20400
C 	C 	0.08740 0.43780 0.27400 0.02400
C 	C 	0.06260 0.45900 0.27960 -0.11900
C 	C 	0.03520 0.45760 0.26110 -0.01700
C 	C 	0.06500 0.46740 0.26300 0.07400
C 	C 	0.05740 0.41380 0.23150 -0.02200
C 	C 	0.16990 0.39460 0.24380 -0.18600
C 	C 	0.17790 0.41480 0.21870 0.07700
C 	C 	0.20890 0.42600 0.21580 0.27900
C 	C 	0.23190 0.41710 0.23790 -0.72000
C 	C 	0.22380 0.39690 0.26290 -0.27000
C 	C 	0.19280 0.38570 0.26580 -0.35200
C 	C 	0.16960 0.38870 0.24750 0.00500
C 	C 	0.18130 0.40950 0.22450 -0.15000
C 	C 	0.21390 0.41500 0.22230 -0.06600
C 	C 	0.23470 0.39970 0.24310 0.86000
C 	C 	0.22290 0.37900 0.26610 -0.04500
C 	C 	0.19030 0.37350 0.26830 0.34600
C 	C 	0.12470 0.88010 0.82980 -0.23700
N 	N 	0.12420 0.88310 0.80320 -0.20400
C 	C 	0.08740 0.93780 0.77400 0.02400
C 	C 	0.06260 0.95900 0.77960 -0.12900
C 	C 	0.03520 0.95760 0.76110 -0.01200
C 	C 	0.06500 0.96740 0.76300 0.08500
C 	C 	0.05740 0.91380 0.73150 -0.02200
C 	C 	0.16990 0.89460 0.74380 -0.18600
C 	C 	0.17790 0.91480 0.71870 0.07700
C 	C 	0.20890 0.92600 0.71580 0.28000
C 	C 	0.23190 0.91710 0.73790 -0.72700
C 	C 	0.22380 0.89690 0.76290 -0.27400
C 	C 	0.19280 0.88570 0.76580 -0.35500
C 	C 	0.16960 0.88870 0.74750 0.00600
C 	C 	0.18130 0.90950 0.72450 -0.14900
C 	C 	0.21390 0.91500 0.72230 -0.06500
C 	C 	0.23470 0.89970 0.74310 0.86900
C 	C 	0.22290 0.87900 0.76610 -0.04400
C 	C 	0.19030 0.87350 0.76830 0.34900
C 	C 	0.62470 0.38010 0.82980 -0.23700
N 	N 	0.62420 0.38310 0.80320 -0.20400
C 	C 	0.58740 0.43780 0.77400 0.02400
C 	C 	0.56260 0.45900 0.77960 -0.11300
C 	C 	0.53520 0.45760 0.76110 -0.02200
C 	C 	0.56500 0.46740 0.76300 0.06900
C 	C 	0.55740 0.41380 0.73150 -0.01900
C 	C 	0.66990 0.39460 0.74380 -0.18600
C 	C 	0.67790 0.41480 0.71870 0.07700
C 	C 	0.70890 0.42600 0.71580 0.27900
C 	C 	0.73190 0.41710 0.73790 -0.72000
C 	C 	0.72380 0.39690 0.76290 -0.26900
C 	C 	0.69280 0.38570 0.76580 -0.35200
C 	C 	0.66960 0.38870 0.74750 0.00500
C 	C 	0.68130 0.40950 0.72450 -0.15000
C 	C 	0.71390 0.41500 0.72230 -0.06700
C 	C 	0.73470 0.39970 0.74310 0.86000
C 	C 	0.72290 0.37900 0.76610 -0.04500
C 	C 	0.69030 0.37350 0.76830 0.34600
C 	C 	0.62470 0.88010 0.32980 -0.23700
N 	N 	0.62420 0.88310 0.30320 -0.20400
C 	C 	0.58740 0.93780 0.27400 0.02400
C 	C 	0.56260 0.95900 0.27960 -0.12300
C 	C 	0.53520 0.95760 0.26110 -0.01700
C 	C 	0.56500 0.96740 0.26300 0.08000
C 	C 	0.55740 0.91380 0.23150 -0.02000
C 	C 	0.66990 0.89460 0.24380 -0.18600
C 	C 	0.67790 0.91480 0.21870 0.07700
C 	C 	0.70890 0.92600 0.21580 0.28000
C 	C 	0.73190 0.91710 0.23790 -0.72800
C 	C 	0.72380 0.89690 0.26290 -0.27400
C 	C 	0.69280 0.88570 0.26580 -0.35500
C 	C 	0.66960 0.88870 0.24750 0.00600
C 	C 	0.68130 0.90950 0.22450 -0.14900
C 	C 	0.71390 0.91500 0.22230 -0.06500
C 	C 	0.73470 0.89970 0.24310 0.87000
C 	C 	0.72290 0.87900 0.26610 -0.04400
C 	C 	0.69030 0.87350 0.26830 0.34900
C 	C 	0.38010 0.32980 0.12470 -0.23800
N 	N 	0.38310 0.30320 0.12420 -0.20400
C 	C 	0.43780 0.27400 0.08740 0.02400
C 	C 	0.45900 0.27960 0.06260 -0.11900
C 	C 	0.45760 0.26110 0.03520 -0.01700
C 	C 	0.46740 0.26300 0.06500 0.07400
C 	C 	0.41380 0.23150 0.05740 -0.02200
C 	C 	0.39460 0.24380 0.16990 -0.18600
C 	C 	0.41480 0.21870 0.17790 0.07700
C 	C 	0.42600 0.21580 0.20890 0.27900
C 	C 	0.41710 0.23790 0.23190 -0.72000
C 	C 	0.39690 0.26290 0.22380 -0.27000
C 	C 	0.38570 0.26580 0.19280 -0.35200
C 	C 	0.38870 0.24750 0.16960 0.00500
C 	C 	0.40950 0.22450 0.18130 -0.15000
C 	C 	0.41500 0.22230 0.21390 -0.06600
C 	C 	0.39970 0.24310 0.23470 0.86000
C 	C 	0.37900 0.26610 0.22290 -0.04500
C 	C 	0.37350 0.26830 0.19030 0.34600
C 	C 	0.38010 0.82980 0.62470 -0.23700
N 	N 	0.38310 0.80320 0.62420 -0.20400
C 	C 	0.43780 0.77400 0.58740 0.02400
C 	C 	0.45900 0.77960 0.56260 -0.11300
C 	C 	0.45760 0.76110 0.53520 -0.02200
C 	C 	0.46740 0.76300 0.56500 0.06900
C 	C 	0.41380 0.73150 0.55740 -0.01900
C 	C 	0.39460 0.74380 0.66990 -0.18600
C 	C 	0.41480 0.71870 0.67790 0.07700
C 	C 	0.42600 0.71580 0.70890 0.27900
C 	C 	0.41710 0.73790 0.73190 -0.72000
C 	C 	0.39690 0.76290 0.72380 -0.26900
C 	C 	0.38570 0.76580 0.69280 -0.35200
C 	C 	0.38870 0.74750 0.66960 0.00500
C 	C 	0.40950 0.72450 0.68130 -0.15000
C 	C 	0.41500 0.72230 0.71390 -0.06700
C 	C 	0.39970 0.74310 0.73470 0.86000
C 	C 	0.37900 0.76610 0.72290 -0.04500
C 	C 	0.37350 0.76830 0.69030 0.34600
C 	C 	0.88010 0.32980 0.62470 -0.23700
N 	N 	0.88310 0.30320 0.62420 -0.20400
C 	C 	0.93780 0.27400 0.58740 0.02400
C 	C 	0.95900 0.27960 0.56260 -0.12300
C 	C 	0.95760 0.26110 0.53520 -0.01700
C 	C 	0.96740 0.26300 0.56500 0.08000
C 	C 	0.91380 0.23150 0.55740 -0.02000
C 	C 	0.89460 0.24380 0.66990 -0.18600
C 	C 	0.91480 0.21870 0.67790 0.07700
C 	C 	0.92600 0.21580 0.70890 0.28000
C 	C 	0.91710 0.23790 0.73190 -0.72800
C 	C 	0.89690 0.26290 0.72380 -0.27400
C 	C 	0.88570 0.26580 0.69280 -0.35500
C 	C 	0.88870 0.24750 0.66960 0.00600
C 	C 	0.90950 0.22450 0.68130 -0.14900
C 	C 	0.91500 0.22230 0.71390 -0.06500
C 	C 	0.89970 0.24310 0.73470 0.87000
C 	C 	0.87900 0.26610 0.72290 -0.04400
C 	C 	0.87350 0.26830 0.69030 0.34900
C 	C 	0.88010 0.82980 0.12470 -0.23700
N 	N 	0.88310 0.80320 0.12420 -0.20400
C 	C 	0.93780 0.77400 0.08740 0.02400
C 	C 	0.95900 0.77960 0.06260 -0.12900
C 	C 	0.95760 0.76110 0.03520 -0.01200
C 	C 	0.96740 0.76300 0.06500 0.08500
C 	C 	0.91380 0.73150 0.05740 -0.02200
C 	C 	0.89460 0.74380 0.16990 -0.18600
C 	C 	0.91480 0.71870 0.17790 0.07700
C 	C 	0.92600 0.71580 0.20890 0.28000
C 	C 	0.91710 0.73790 0.23190 -0.72700
C 	C 	0.89690 0.76290 0.22380 -0.27400
C 	C 	0.88570 0.76580 0.19280 -0.35500
C 	C 	0.88870 0.74750 0.16960 0.00600
C 	C 	0.90950 0.72450 0.18130 -0.14900
C 	C 	0.91500 0.72230 0.21390 -0.06500
C 	C 	0.89970 0.74310 0.23470 0.86900
C 	C 	0.87900 0.76610 0.22290 -0.04400
C 	C 	0.87350 0.76830 0.19030 0.34900
C 	C 	0.36990 0.82980 0.12530 -0.23700
N 	N 	0.36690 0.80320 0.12580 -0.20400
C 	C 	0.31220 0.77400 0.16260 0.02400
C 	C 	0.29100 0.77960 0.18740 -0.11300
C 	C 	0.29240 0.76110 0.21480 -0.02300
C 	C 	0.28260 0.76300 0.18500 0.06900
C 	C 	0.33620 0.73150 0.19260 -0.01900
C 	C 	0.35540 0.74380 0.08010 -0.18700
C 	C 	0.33520 0.71870 0.07210 0.07800
C 	C 	0.32400 0.71580 0.04110 0.28100
C 	C 	0.33290 0.73790 0.01810 -0.71700
C 	C 	0.35310 0.76290 0.02620 -0.26800
C 	C 	0.36430 0.76580 0.05720 -0.35300
C 	C 	0.36130 0.74750 0.08040 0.00500
C 	C 	0.34050 0.72450 0.06870 -0.15100
C 	C 	0.33500 0.72230 0.03610 -0.07300
C 	C 	0.35030 0.74310 0.01530 0.85700
C 	C 	0.37100 0.76610 0.02710 -0.04600
C 	C 	0.37650 0.76830 0.05970 0.34600
C 	C 	0.36990 0.32980 0.62530 -0.23700
N 	N 	0.36690 0.30320 0.62580 -0.20400
C 	C 	0.31220 0.27400 0.66260 0.02400
C 	C 	0.29100 0.27960 0.68740 -0.11300
C 	C 	0.29240 0.26110 0.71480 -0.02300
C 	C 	0.28260 0.26300 0.68500 0.06900
C 	C 	0.33620 0.23150 0.69260 -0.01900
C 	C 	0.35540 0.24380 0.58010 -0.18600
C 	C 	0.33520 0.21870 0.57210 0.07700
C 	C 	0.32400 0.21580 0.54110 0.27900
C 	C 	0.33290 0.23790 0.51810 -0.72100
C 	C 	0.35310 0.26290 0.52620 -0.27000
C 	C 	0.36430 0.26580 0.55720 -0.35200
C 	C 	0.36130 0.24750 0.58040 0.00500
C 	C 	0.34050 0.22450 0.56870 -0.15000
C 	C 	0.33500 0.22230 0.53610 -0.06600
C 	C 	0.35030 0.24310 0.51530 0.86100
C 	C 	0.37100 0.26610 0.52710 -0.04600
C 	C 	0.37650 0.26830 0.55970 0.34600
C 	C 	0.86990 0.82980 0.62530 -0.23700
N 	N 	0.86690 0.80320 0.62580 -0.20400
C 	C 	0.81220 0.77400 0.66260 0.02400
C 	C 	0.79100 0.77960 0.68740 -0.11300
C 	C 	0.79240 0.76110 0.71480 -0.02300
C 	C 	0.78260 0.76300 0.68500 0.06900
C 	C 	0.83620 0.73150 0.69260 -0.01900
C 	C 	0.85540 0.74380 0.58010 -0.18600
C 	C 	0.83520 0.71870 0.57210 0.07700
C 	C 	0.82400 0.71580 0.54110 0.27500
C 	C 	0.83290 0.73790 0.51810 -0.71000
C 	C 	0.85310 0.76290 0.52620 -0.26800
C 	C 	0.86430 0.76580 0.55720 -0.34900
C 	C 	0.86130 0.74750 0.58040 0.00400
C 	C 	0.84050 0.72450 0.56870 -0.14900
C 	C 	0.83500 0.72230 0.53610 -0.06600
C 	C 	0.85030 0.74310 0.51530 0.84900
C 	C 	0.87100 0.76610 0.52710 -0.04300
C 	C 	0.87650 0.76830 0.55970 0.34300
C 	C 	0.86990 0.32980 0.12530 -0.23700
N 	N 	0.86690 0.30320 0.12580 -0.20400
C 	C 	0.81220 0.27400 0.16260 0.02400
C 	C 	0.79100 0.27960 0.18740 -0.11300
C 	C 	0.79240 0.26110 0.21480 -0.02300
C 	C 	0.78260 0.26300 0.18500 0.06900
C 	C 	0.83620 0.23150 0.19260 -0.01900
C 	C 	0.85540 0.24380 0.08010 -0.18600
C 	C 	0.83520 0.21870 0.07210 0.07800
C 	C 	0.82400 0.21580 0.04110 0.27800
C 	C 	0.83290 0.23790 0.01810 -0.70700
C 	C 	0.85310 0.26290 0.02620 -0.26600
C 	C 	0.86430 0.26580 0.05720 -0.34900
C 	C 	0.86130 0.24750 0.08040 0.00400
C 	C 	0.84050 0.22450 0.06870 -0.15000
C 	C 	0.83500 0.22230 0.03610 -0.07100
C 	C 	0.85030 0.24310 0.01530 0.84700
C 	C 	0.87100 0.26610 0.02710 -0.04400
C 	C 	0.87650 0.26830 0.05970 0.34300
C 	C 	0.86990 0.42020 0.62470 -0.23700
N 	N 	0.86690 0.44680 0.62420 -0.20400
C 	C 	0.81220 0.47600 0.58740 0.02400
C 	C 	0.79100 0.47040 0.56260 -0.11300
C 	C 	0.79240 0.48890 0.53520 -0.02200
C 	C 	0.78260 0.48700 0.56500 0.06900
C 	C 	0.83620 0.51850 0.55740 -0.01900
C 	C 	0.85540 0.50620 0.66990 -0.18600
C 	C 	0.83520 0.53130 0.67790 0.07700
C 	C 	0.82400 0.53420 0.70890 0.27500
C 	C 	0.83290 0.51210 0.73190 -0.71000
C 	C 	0.85310 0.48710 0.72380 -0.26800
C 	C 	0.86430 0.48420 0.69280 -0.34800
C 	C 	0.86130 0.50250 0.66960 0.00400
C 	C 	0.84050 0.52550 0.68130 -0.14900
C 	C 	0.83500 0.52770 0.71390 -0.06600
C 	C 	0.85030 0.50690 0.73470 0.84900
C 	C 	0.87100 0.48390 0.72290 -0.04300
C 	C 	0.87650 0.48170 0.69030 0.34300
C 	C 	0.86990 0.92020 0.12470 -0.23600
N 	N 	0.86690 0.94680 0.12420 -0.20300
C 	C 	0.81220 0.97600 0.08740 0.02400
C 	C 	0.79100 0.97040 0.06260 -0.18600
C 	C 	0.79240 0.98890 0.03520 0.04100
C 	C 	0.78260 0.98700 0.06500 0.12900
C 	C 	0.83620 0.01850 0.05740 -0.03200
C 	C 	0.85540 0.00620 0.16990 -0.19000
C 	C 	0.83520 0.03130 0.17790 0.07800
C 	C 	0.82400 0.03420 0.20890 0.29900
C 	C 	0.83290 0.01210 0.23190 -0.77200
C 	C 	0.85310 0.98710 0.22380 -0.30100
C 	C 	0.86430 0.98420 0.19280 -0.36500
C 	C 	0.86130 0.00250 0.16960 0.00900
C 	C 	0.84050 0.02550 0.18130 -0.15500
C 	C 	0.83500 0.02770 0.21390 -0.07300
C 	C 	0.85030 0.00690 0.23470 0.92400
C 	C 	0.87100 0.98390 0.22290 -0.03400
C 	C 	0.87650 0.98170 0.19030 0.36500
C 	C 	0.36990 0.42020 0.12470 -0.23800
N 	N 	0.36690 0.44680 0.12420 -0.20400
C 	C 	0.31220 0.47600 0.08740 0.02400
C 	C 	0.29100 0.47040 0.06260 -0.12000
C 	C 	0.29240 0.48890 0.03520 -0.01700
C 	C 	0.28260 0.48700 0.06500 0.07400
C 	C 	0.33620 0.51850 0.05740 -0.02200
C 	C 	0.35540 0.50620 0.16990 -0.18600
C 	C 	0.33520 0.53130 0.17790 0.07700
C 	C 	0.32400 0.53420 0.20890 0.27900
C 	C 	0.33290 0.51210 0.23190 -0.72000
C 	C 	0.35310 0.48710 0.22380 -0.27000
C 	C 	0.36430 0.48420 0.19280 -0.35200
C 	C 	0.36130 0.50250 0.16960 0.00500
C 	C 	0.34050 0.52550 0.18130 -0.15000
C 	C 	0.33500 0.52770 0.21390 -0.06600
C 	C 	0.35030 0.50690 0.23470 0.86000
C 	C 	0.37100 0.48390 0.22290 -0.04500
C 	C 	0.37650 0.48170 0.19030 0.34600
C 	C 	0.36990 0.92020 0.62470 -0.23600
N 	N 	0.36690 0.94680 0.62420 -0.20300
C 	C 	0.31220 0.97600 0.58740 0.02400
C 	C 	0.29100 0.97040 0.56260 -0.17900
C 	C 	0.29240 0.98890 0.53520 0.03600
C 	C 	0.28260 0.98700 0.56500 0.12500
C 	C 	0.33620 0.01850 0.55740 -0.03000
C 	C 	0.35540 0.00620 0.66990 -0.19100
C 	C 	0.33520 0.03130 0.67790 0.07800
C 	C 	0.32400 0.03420 0.70890 0.30300
C 	C 	0.33290 0.01210 0.73190 -0.78300
C 	C 	0.35310 0.98710 0.72380 -0.30300
C 	C 	0.36430 0.98420 0.69280 -0.36900
C 	C 	0.36130 0.00250 0.66960 0.01000
C 	C 	0.34050 0.02550 0.68130 -0.15600
C 	C 	0.33500 0.02770 0.71390 -0.07400
C 	C 	0.35030 0.00690 0.73470 0.93600
C 	C 	0.37100 0.98390 0.72290 -0.03700
C 	C 	0.37650 0.98170 0.69030 0.36800
C 	C 	0.88010 0.92020 0.62530 -0.23600
N 	N 	0.88310 0.94680 0.62580 -0.20300
C 	C 	0.93780 0.97600 0.66260 0.02500
C 	C 	0.95900 0.97040 0.68740 -0.18900
C 	C 	0.95760 0.98890 0.71480 0.04100
C 	C 	0.96740 0.98700 0.68500 0.13600
C 	C 	0.91380 0.01850 0.69260 -0.03000
C 	C 	0.89460 0.00620 0.58010 -0.19100
C 	C 	0.91480 0.03130 0.57210 0.07800
C 	C 	0.92600 0.03420 0.54110 0.30500
C 	C 	0.91710 0.01210 0.51810 -0.79000
C 	C 	0.89690 0.98710 0.52620 -0.30700
C 	C 	0.88570 0.98420 0.55720 -0.37200
C 	C 	0.88870 0.00250 0.58040 0.01000
C 	C 	0.90950 0.02550 0.56870 -0.15600
C 	C 	0.91500 0.02770 0.53610 -0.07300
C 	C 	0.89970 0.00690 0.51530 0.94600
C 	C 	0.87900 0.98390 0.52710 -0.03500
C 	C 	0.87350 0.98170 0.55970 0.37200
C 	C 	0.88010 0.42020 0.12530 -0.23700
N 	N 	0.88310 0.44680 0.12580 -0.20400
C 	C 	0.93780 0.47600 0.16260 0.02500
C 	C 	0.95900 0.47040 0.18740 -0.12300
C 	C 	0.95760 0.48890 0.21480 -0.01800
C 	C 	0.96740 0.48700 0.18500 0.08100
C 	C 	0.91380 0.51850 0.19260 -0.02000
C 	C 	0.89460 0.50620 0.08010 -0.18700
C 	C 	0.91480 0.53130 0.07210 0.07800
C 	C 	0.92600 0.53420 0.04110 0.28300
C 	C 	0.91710 0.51210 0.01810 -0.72500
C 	C 	0.89690 0.48710 0.02620 -0.27200
C 	C 	0.88570 0.48420 0.05720 -0.35500
C 	C 	0.88870 0.50250 0.08040 0.00600
C 	C 	0.90950 0.52550 0.06870 -0.15100
C 	C 	0.91500 0.52770 0.03610 -0.07200
C 	C 	0.89970 0.50690 0.01530 0.86800
C 	C 	0.87900 0.48390 0.02710 -0.04500
C 	C 	0.87350 0.48170 0.05970 0.34900
C 	C 	0.38010 0.92020 0.12530 -0.23600
N 	N 	0.38310 0.94680 0.12580 -0.20300
C 	C 	0.43780 0.97600 0.16260 0.02400
C 	C 	0.45900 0.97040 0.18740 -0.17900
C 	C 	0.45760 0.98890 0.21480 0.03600
C 	C 	0.46740 0.98700 0.18500 0.12500
C 	C 	0.41380 0.01850 0.19260 -0.03000
C 	C 	0.39460 0.00620 0.08010 -0.19100
C 	C 	0.41480 0.03130 0.07210 0.07900
C 	C 	0.42600 0.03420 0.04110 0.30600
C 	C 	0.41710 0.01210 0.01810 -0.77900
C 	C 	0.39690 0.98710 0.02620 -0.30100
C 	C 	0.38570 0.98420 0.05720 -0.37000
C 	C 	0.38870 0.00250 0.08040 0.01000
C 	C 	0.40950 0.02550 0.06870 -0.15800
C 	C 	0.41500 0.02770 0.03610 -0.08000
C 	C 	0.39970 0.00690 0.01530 0.93300
C 	C 	0.37900 0.98390 0.02710 -0.03700
C 	C 	0.37350 0.98170 0.05970 0.36800
C 	C 	0.38010 0.42020 0.62530 -0.23700
N 	N 	0.38310 0.44680 0.62580 -0.20400
C 	C 	0.43780 0.47600 0.66260 0.02400
C 	C 	0.45900 0.47040 0.68740 -0.11300
C 	C 	0.45760 0.48890 0.71480 -0.02200
C 	C 	0.46740 0.48700 0.68500 0.06900
C 	C 	0.41380 0.51850 0.69260 -0.01900
C 	C 	0.39460 0.50620 0.58010 -0.18600
C 	C 	0.41480 0.53130 0.57210 0.07700
C 	C 	0.42600 0.53420 0.54110 0.27900
C 	C 	0.41710 0.51210 0.51810 -0.72100
C 	C 	0.39690 0.48710 0.52620 -0.27000
C 	C 	0.38570 0.48420 0.55720 -0.35200
C 	C 	0.38870 0.50250 0.58040 0.00500
C 	C 	0.40950 0.52550 0.56870 -0.15000
C 	C 	0.41500 0.52770 0.53610 -0.06700
C 	C 	0.39970 0.50690 0.51530 0.86100
C 	C 	0.37900 0.48390 0.52710 -0.04600
C 	C 	0.37350 0.48170 0.55970 0.34600
C 	C 	0.82980 0.12530 0.36990 -0.23700
N 	N 	0.80320 0.12580 0.36690 -0.20400
C 	C 	0.77400 0.16260 0.31220 0.02400
C 	C 	0.77960 0.18740 0.29100 -0.11300
C 	C 	0.76110 0.21480 0.29240 -0.02300
C 	C 	0.76300 0.18500 0.28260 0.06900
C 	C 	0.73150 0.19260 0.33620 -0.01900
C 	C 	0.74380 0.08010 0.35540 -0.18700
C 	C 	0.71870 0.07210 0.33520 0.07800
C 	C 	0.71580 0.04110 0.32400 0.28100
C 	C 	0.73790 0.01810 0.33290 -0.71700
C 	C 	0.76290 0.02620 0.35310 -0.26800
C 	C 	0.76580 0.05720 0.36430 -0.35300
C 	C 	0.74750 0.08040 0.36130 0.00500
C 	C 	0.72450 0.06870 0.34050 -0.15100
C 	C 	0.72230 0.03610 0.33500 -0.07300
C 	C 	0.74310 0.01530 0.35030 0.85700
C 	C 	0.76610 0.02710 0.37100 -0.04600
C 	C 	0.76830 0.05970 0.37650 0.34600
C 	C 	0.82980 0.62530 0.86990 -0.23700
N 	N 	0.80320 0.62580 0.86690 -0.20400
C 	C 	0.77400 0.66260 0.81220 0.02400
C 	C 	0.77960 0.68740 0.79100 -0.11300
C 	C 	0.76110 0.71480 0.79240 -0.02300
C 	C 	0.76300 0.68500 0.78260 0.06900
C 	C 	0.73150 0.69260 0.83620 -0.01900
C 	C 	0.74380 0.58010 0.85540 -0.18600
C 	C 	0.71870 0.57210 0.83520 0.07700
C 	C 	0.71580 0.54110 0.82400 0.27500
C 	C 	0.73790 0.51810 0.83290 -0.71000
C 	C 	0.76290 0.52620 0.85310 -0.26800
C 	C 	0.76580 0.55720 0.86430 -0.34900
C 	C 	0.74750 0.58040 0.86130 0.00400
C 	C 	0.72450 0.56870 0.84050 -0.14900
C 	C 	0.72230 0.53610 0.83500 -0.06600
C 	C 	0.74310 0.51530 0.85030 0.84900
C 	C 	0.76610 0.52710 0.87100 -0.04300
C 	C 	0.76830 0.55970 0.87650 0.34300
C 	C 	0.32980 0.12530 0.86990 -0.23700
N 	N 	0.30320 0.12580 0.86690 -0.20400
C 	C 	0.27400 0.16260 0.81220 0.02400
C 	C 	0.27960 0.18740 0.79100 -0.11300
C 	C 	0.26110 0.21480 0.79240 -0.02300
C 	C 	0.26300 0.18500 0.78260 0.06900
C 	C 	0.23150 0.19260 0.83620 -0.01900
C 	C 	0.24380 0.08010 0.85540 -0.18600
C 	C 	0.21870 0.07210 0.83520 0.07800
C 	C 	0.21580 0.04110 0.82400 0.27800
C 	C 	0.23790 0.01810 0.83290 -0.70700
C 	C 	0.26290 0.02620 0.85310 -0.26600
C 	C 	0.26580 0.05720 0.86430 -0.34900
C 	C 	0.24750 0.08040 0.86130 0.00400
C 	C 	0.22450 0.06870 0.84050 -0.15000
C 	C 	0.22230 0.03610 0.83500 -0.07100
C 	C 	0.24310 0.01530 0.85030 0.84700
C 	C 	0.26610 0.02710 0.87100 -0.04400
C 	C 	0.26830 0.05970 0.87650 0.34300
C 	C 	0.32980 0.62530 0.36990 -0.23700
N 	N 	0.30320 0.62580 0.36690 -0.20400
C 	C 	0.27400 0.66260 0.31220 0.02400
C 	C 	0.27960 0.68740 0.29100 -0.11300
C 	C 	0.26110 0.71480 0.29240 -0.02300
C 	C 	0.26300 0.68500 0.28260 0.06900
C 	C 	0.23150 0.69260 0.33620 -0.01900
C 	C 	0.24380 0.58010 0.35540 -0.18600
C 	C 	0.21870 0.57210 0.33520 0.07700
C 	C 	0.21580 0.54110 0.32400 0.27900
C 	C 	0.23790 0.51810 0.33290 -0.72100
C 	C 	0.26290 0.52620 0.35310 -0.27000
C 	C 	0.26580 0.55720 0.36430 -0.35200
C 	C 	0.24750 0.58040 0.36130 0.00500
C 	C 	0.22450 0.56870 0.34050 -0.15000
C 	C 	0.22230 0.53610 0.33500 -0.06600
C 	C 	0.24310 0.51530 0.35030 0.86100
C 	C 	0.26610 0.52710 0.37100 -0.04600
C 	C 	0.26830 0.55970 0.37650 0.34600
C 	C 	0.32980 0.12470 0.38010 -0.23800
N 	N 	0.30320 0.12420 0.38310 -0.20400
C 	C 	0.27400 0.08740 0.43780 0.02400
C 	C 	0.27960 0.06260 0.45900 -0.11900
C 	C 	0.26110 0.03520 0.45760 -0.01700
C 	C 	0.26300 0.06500 0.46740 0.07400
C 	C 	0.23150 0.05740 0.41380 -0.02200
C 	C 	0.24380 0.16990 0.39460 -0.18600
C 	C 	0.21870 0.17790 0.41480 0.07700
C 	C 	0.21580 0.20890 0.42600 0.27900
C 	C 	0.23790 0.23190 0.41710 -0.72000
C 	C 	0.26290 0.22380 0.39690 -0.27000
C 	C 	0.26580 0.19280 0.38570 -0.35200
C 	C 	0.24750 0.16960 0.38870 0.00500
C 	C 	0.22450 0.18130 0.40950 -0.15000
C 	C 	0.22230 0.21390 0.41500 -0.06600
C 	C 	0.24310 0.23470 0.39970 0.86000
C 	C 	0.26610 0.22290 0.37900 -0.04500
C 	C 	0.26830 0.19030 0.37350 0.34600
C 	C 	0.32980 0.62470 0.88010 -0.23700
N 	N 	0.30320 0.62420 0.88310 -0.20400
C 	C 	0.27400 0.58740 0.93780 0.02400
C 	C 	0.27960 0.56260 0.95900 -0.12300
C 	C 	0.26110 0.53520 0.95760 -0.01700
C 	C 	0.26300 0.56500 0.96740 0.08000
C 	C 	0.23150 0.55740 0.91380 -0.02000
C 	C 	0.24380 0.66990 0.89460 -0.18600
C 	C 	0.21870 0.67790 0.91480 0.07700
C 	C 	0.21580 0.70890 0.92600 0.28000
C 	C 	0.23790 0.73190 0.91710 -0.72800
C 	C 	0.26290 0.72380 0.89690 -0.27400
C 	C 	0.26580 0.69280 0.88570 -0.35500
C 	C 	0.24750 0.66960 0.88870 0.00600
C 	C 	0.22450 0.68130 0.90950 -0.14900
C 	C 	0.22230 0.71390 0.91500 -0.06500
C 	C 	0.24310 0.73470 0.89970 0.87000
C 	C 	0.26610 0.72290 0.87900 -0.04400
C 	C 	0.26830 0.69030 0.87350 0.34900
C 	C 	0.82980 0.12470 0.88010 -0.23700
N 	N 	0.80320 0.12420 0.88310 -0.20400
C 	C 	0.77400 0.08740 0.93780 0.02400
C 	C 	0.77960 0.06260 0.95900 -0.12900
C 	C 	0.76110 0.03520 0.95760 -0.01200
C 	C 	0.76300 0.06500 0.96740 0.08500
C 	C 	0.73150 0.05740 0.91380 -0.02200
C 	C 	0.74380 0.16990 0.89460 -0.18600
C 	C 	0.71870 0.17790 0.91480 0.07700
C 	C 	0.71580 0.20890 0.92600 0.28000
C 	C 	0.73790 0.23190 0.91710 -0.72700
C 	C 	0.76290 0.22380 0.89690 -0.27400
C 	C 	0.76580 0.19280 0.88570 -0.35500
C 	C 	0.74750 0.16960 0.88870 0.00600
C 	C 	0.72450 0.18130 0.90950 -0.14900
C 	C 	0.72230 0.21390 0.91500 -0.06500
C 	C 	0.74310 0.23470 0.89970 0.86900
C 	C 	0.76610 0.22290 0.87900 -0.04400
C 	C 	0.76830 0.19030 0.87350 0.34900
C 	C 	0.82980 0.62470 0.38010 -0.23700
N 	N 	0.80320 0.62420 0.38310 -0.20400
C 	C 	0.77400 0.58740 0.43780 0.02400
C 	C 	0.77960 0.56260 0.45900 -0.11300
C 	C 	0.76110 0.53520 0.45760 -0.02200
C 	C 	0.76300 0.56500 0.46740 0.06900
C 	C 	0.73150 0.55740 0.41380 -0.01900
C 	C 	0.74380 0.66990 0.39460 -0.18600
C 	C 	0.71870 0.67790 0.41480 0.07700
C 	C 	0.71580 0.70890 0.42600 0.27900
C 	C 	0.73790 0.73190 0.41710 -0.72000
C 	C 	0.76290 0.72380 0.39690 -0.26900
C 	C 	0.76580 0.69280 0.38570 -0.35200
C 	C 	0.74750 0.66960 0.38870 0.00500
C 	C 	0.72450 0.68130 0.40950 -0.15000
C 	C 	0.72230 0.71390 0.41500 -0.06700
C 	C 	0.74310 0.73470 0.39970 0.86000
C 	C 	0.76610 0.72290 0.37900 -0.04500
C 	C 	0.76830 0.69030 0.37350 0.34600
C 	C 	0.92020 0.62530 0.88010 -0.23600
N 	N 	0.94680 0.62580 0.88310 -0.20300
C 	C 	0.97600 0.66260 0.93780 0.02500
C 	C 	0.97040 0.68740 0.95900 -0.18900
C 	C 	0.98890 0.71480 0.95760 0.04100
C 	C 	0.98700 0.68500 0.96740 0.13600
C 	C 	0.01850 0.69260 0.91380 -0.03000
C 	C 	0.00620 0.58010 0.89460 -0.19100
C 	C 	0.03130 0.57210 0.91480 0.07800
C 	C 	0.03420 0.54110 0.92600 0.30500
C 	C 	0.01210 0.51810 0.91710 -0.79000
C 	C 	0.98710 0.52620 0.89690 -0.30700
C 	C 	0.98420 0.55720 0.88570 -0.37200
C 	C 	0.00250 0.58040 0.88870 0.01000
C 	C 	0.02550 0.56870 0.90950 -0.15600
C 	C 	0.02770 0.53610 0.91500 -0.07300
C 	C 	0.00690 0.51530 0.89970 0.94600
C 	C 	0.98390 0.52710 0.87900 -0.03500
C 	C 	0.98170 0.55970 0.87350 0.37200
C 	C 	0.92020 0.12530 0.38010 -0.23600
N 	N 	0.94680 0.12580 0.38310 -0.20300
C 	C 	0.97600 0.16260 0.43780 0.02400
C 	C 	0.97040 0.18740 0.45900 -0.17900
C 	C 	0.98890 0.21480 0.45760 0.03600
C 	C 	0.98700 0.18500 0.46740 0.12500
C 	C 	0.01850 0.19260 0.41380 -0.03000
C 	C 	0.00620 0.08010 0.39460 -0.19100
C 	C 	0.03130 0.07210 0.41480 0.07900
C 	C 	0.03420 0.04110 0.42600 0.30600
C 	C 	0.01210 0.01810 0.41710 -0.77900
C 	C 	0.98710 0.02620 0.39690 -0.30100
C 	C 	0.98420 0.05720 0.38570 -0.37000
C 	C 	0.00250 0.08040 0.38870 0.01000
C 	C 	0.02550 0.06870 0.40950 -0.15800
C 	C 	0.02770 0.03610 0.41500 -0.08000
C 	C 	0.00690 0.01530 0.39970 0.93300
C 	C 	0.98390 0.02710 0.37900 -0.03700
C 	C 	0.98170 0.05970 0.37350 0.36800
C 	C 	0.42020 0.62530 0.38010 -0.23700
N 	N 	0.44680 0.62580 0.38310 -0.20400
C 	C 	0.47600 0.66260 0.43780 0.02400
C 	C 	0.47040 0.68740 0.45900 -0.11300
C 	C 	0.48890 0.71480 0.45760 -0.02200
C 	C 	0.48700 0.68500 0.46740 0.06900
C 	C 	0.51850 0.69260 0.41380 -0.01900
C 	C 	0.50620 0.58010 0.39460 -0.18600
C 	C 	0.53130 0.57210 0.41480 0.07700
C 	C 	0.53420 0.54110 0.42600 0.27900
C 	C 	0.51210 0.51810 0.41710 -0.72100
C 	C 	0.48710 0.52620 0.39690 -0.27000
C 	C 	0.48420 0.55720 0.38570 -0.35200
C 	C 	0.50250 0.58040 0.38870 0.00500
C 	C 	0.52550 0.56870 0.40950 -0.15000
C 	C 	0.52770 0.53610 0.41500 -0.06700
C 	C 	0.50690 0.51530 0.39970 0.86100
C 	C 	0.48390 0.52710 0.37900 -0.04600
C 	C 	0.48170 0.55970 0.37350 0.34600
C 	C 	0.42020 0.12530 0.88010 -0.23700
N 	N 	0.44680 0.12580 0.88310 -0.20400
C 	C 	0.47600 0.16260 0.93780 0.02500
C 	C 	0.47040 0.18740 0.95900 -0.12300
C 	C 	0.48890 0.21480 0.95760 -0.01800
C 	C 	0.48700 0.18500 0.96740 0.08100
C 	C 	0.51850 0.19260 0.91380 -0.02000
C 	C 	0.50620 0.08010 0.89460 -0.18700
C 	C 	0.53130 0.07210 0.91480 0.07800
C 	C 	0.53420 0.04110 0.92600 0.28300
C 	C 	0.51210 0.01810 0.91710 -0.72500
C 	C 	0.48710 0.02620 0.89690 -0.27200
C 	C 	0.48420 0.05720 0.88570 -0.35500
C 	C 	0.50250 0.08040 0.88870 0.00600
C 	C 	0.52550 0.06870 0.90950 -0.15100
C 	C 	0.52770 0.03610 0.91500 -0.07200
C 	C 	0.50690 0.01530 0.89970 0.86800
C 	C 	0.48390 0.02710 0.87900 -0.04500
C 	C 	0.48170 0.05970 0.87350 0.34900
C 	C 	0.42020 0.62470 0.86990 -0.23700
N 	N 	0.44680 0.62420 0.86690 -0.20400
C 	C 	0.47600 0.58740 0.81220 0.02400
C 	C 	0.47040 0.56260 0.79100 -0.11300
C 	C 	0.48890 0.53520 0.79240 -0.02200
C 	C 	0.48700 0.56500 0.78260 0.06900
C 	C 	0.51850 0.55740 0.83620 -0.01900
C 	C 	0.50620 0.66990 0.85540 -0.18600
C 	C 	0.53130 0.67790 0.83520 0.07700
C 	C 	0.53420 0.70890 0.82400 0.27500
C 	C 	0.51210 0.73190 0.83290 -0.71000
C 	C 	0.48710 0.72380 0.85310 -0.26800
C 	C 	0.48420 0.69280 0.86430 -0.34800
C 	C 	0.50250 0.66960 0.86130 0.00400
C 	C 	0.52550 0.68130 0.84050 -0.14900
C 	C 	0.52770 0.71390 0.83500 -0.06600
C 	C 	0.50690 0.73470 0.85030 0.84900
C 	C 	0.48390 0.72290 0.87100 -0.04300
C 	C 	0.48170 0.69030 0.87650 0.34300
C 	C 	0.42020 0.12470 0.36990 -0.23800
N 	N 	0.44680 0.12420 0.36690 -0.20400
C 	C 	0.47600 0.08740 0.31220 0.02400
C 	C 	0.47040 0.06260 0.29100 -0.12000
C 	C 	0.48890 0.03520 0.29240 -0.01700
C 	C 	0.48700 0.06500 0.28260 0.07400
C 	C 	0.51850 0.05740 0.33620 -0.02200
C 	C 	0.50620 0.16990 0.35540 -0.18600
C 	C 	0.53130 0.17790 0.33520 0.07700
C 	C 	0.53420 0.20890 0.32400 0.27900
C 	C 	0.51210 0.23190 0.33290 -0.72000
C 	C 	0.48710 0.22380 0.35310 -0.27000
C 	C 	0.48420 0.19280 0.36430 -0.35200
C 	C 	0.50250 0.16960 0.36130 0.00500
C 	C 	0.52550 0.18130 0.34050 -0.15000
C 	C 	0.52770 0.21390 0.33500 -0.06600
C 	C 	0.50690 0.23470 0.35030 0.86000
C 	C 	0.48390 0.22290 0.37100 -0.04500
C 	C 	0.48170 0.19030 0.37650 0.34600
C 	C 	0.92020 0.62470 0.36990 -0.23600
N 	N 	0.94680 0.62420 0.36690 -0.20300
C 	C 	0.97600 0.58740 0.31220 0.02400
C 	C 	0.97040 0.56260 0.29100 -0.17900
C 	C 	0.98890 0.53520 0.29240 0.03600
C 	C 	0.98700 0.56500 0.28260 0.12500
C 	C 	0.01850 0.55740 0.33620 -0.03000
C 	C 	0.00620 0.66990 0.35540 -0.19100
C 	C 	0.03130 0.67790 0.33520 0.07800
C 	C 	0.03420 0.70890 0.32400 0.30300
C 	C 	0.01210 0.73190 0.33290 -0.78300
C 	C 	0.98710 0.72380 0.35310 -0.30300
C 	C 	0.98420 0.69280 0.36430 -0.36900
C 	C 	0.00250 0.66960 0.36130 0.01000
C 	C 	0.02550 0.68130 0.34050 -0.15600
C 	C 	0.02770 0.71390 0.33500 -0.07400
C 	C 	0.00690 0.73470 0.35030 0.93600
C 	C 	0.98390 0.72290 0.37100 -0.03700
C 	C 	0.98170 0.69030 0.37650 0.36800
C 	C 	0.92020 0.12470 0.86990 -0.23600
N 	N 	0.94680 0.12420 0.86690 -0.20300
C 	C 	0.97600 0.08740 0.81220 0.02400
C 	C 	0.97040 0.06260 0.79100 -0.18600
C 	C 	0.98890 0.03520 0.79240 0.04100
C 	C 	0.98700 0.06500 0.78260 0.12900
C 	C 	0.01850 0.05740 0.83620 -0.03200
C 	C 	0.00620 0.16990 0.85540 -0.19000
C 	C 	0.03130 0.17790 0.83520 0.07800
C 	C 	0.03420 0.20890 0.82400 0.29900
C 	C 	0.01210 0.23190 0.83290 -0.77200
C 	C 	0.98710 0.22380 0.85310 -0.30100
C 	C 	0.98420 0.19280 0.86430 -0.36500
C 	C 	0.00250 0.16960 0.86130 0.00900
C 	C 	0.02550 0.18130 0.84050 -0.15500
C 	C 	0.02770 0.21390 0.83500 -0.07300
C 	C 	0.00690 0.23470 0.85030 0.92400
C 	C 	0.98390 0.22290 0.87100 -0.03400
C 	C 	0.98170 0.19030 0.87650 0.36500
C 	C 	0.36990 0.12470 0.92020 -0.23700
N 	N 	0.36690 0.12420 0.94680 -0.20300
C 	C 	0.31220 0.08740 0.97600 0.02400
C 	C 	0.29100 0.06260 0.97040 -0.18600
C 	C 	0.29240 0.03520 0.98890 0.04100
C 	C 	0.28260 0.06500 0.98700 0.13000
C 	C 	0.33620 0.05740 0.01850 -0.03200
C 	C 	0.35540 0.16990 0.00620 -0.19100
C 	C 	0.33520 0.17790 0.03130 0.07800
C 	C 	0.32400 0.20890 0.03420 0.30300
C 	C 	0.33290 0.23190 0.01210 -0.78200
C 	C 	0.35310 0.22380 0.98710 -0.30300
C 	C 	0.36430 0.19280 0.98420 -0.36900
C 	C 	0.36130 0.16960 0.00250 0.01000
C 	C 	0.34050 0.18130 0.02550 -0.15600
C 	C 	0.33500 0.21390 0.02770 -0.07400
C 	C 	0.35030 0.23470 0.00690 0.93500
C 	C 	0.37100 0.22290 0.98390 -0.03600
C 	C 	0.37650 0.19030 0.98170 0.36800
C 	C 	0.36990 0.62470 0.42020 -0.23700
N 	N 	0.36690 0.62420 0.44680 -0.20400
C 	C 	0.31220 0.58740 0.47600 0.02400
C 	C 	0.29100 0.56260 0.47040 -0.11300
C 	C 	0.29240 0.53520 0.48890 -0.02200
C 	C 	0.28260 0.56500 0.48700 0.06900
C 	C 	0.33620 0.55740 0.51850 -0.01900
C 	C 	0.35540 0.66990 0.50620 -0.18600
C 	C 	0.33520 0.67790 0.53130 0.07700
C 	C 	0.32400 0.70890 0.53420 0.27900
C 	C 	0.33290 0.73190 0.51210 -0.72000
C 	C 	0.35310 0.72380 0.48710 -0.27000
C 	C 	0.36430 0.69280 0.48420 -0.35200
C 	C 	0.36130 0.66960 0.50250 0.00500
C 	C 	0.34050 0.68130 0.52550 -0.15000
C 	C 	0.33500 0.71390 0.52770 -0.06700
C 	C 	0.35030 0.73470 0.50690 0.86000
C 	C 	0.37100 0.72290 0.48390 -0.04600
C 	C 	0.37650 0.69030 0.48170 0.34600
C 	C 	0.86990 0.12470 0.42020 -0.23700
N 	N 	0.86690 0.12420 0.44680 -0.20400
C 	C 	0.81220 0.08740 0.47600 0.02400
C 	C 	0.79100 0.06260 0.47040 -0.11900
C 	C 	0.79240 0.03520 0.48890 -0.01700
C 	C 	0.78260 0.06500 0.48700 0.07400
C 	C 	0.83620 0.05740 0.51850 -0.02200
C 	C 	0.85540 0.16990 0.50620 -0.18600
C 	C 	0.83520 0.17790 0.53130 0.07700
C 	C 	0.82400 0.20890 0.53420 0.27500
C 	C 	0.83290 0.23190 0.51210 -0.71000
C 	C 	0.85310 0.22380 0.48710 -0.26800
C 	C 	0.86430 0.19280 0.48420 -0.34800
C 	C 	0.86130 0.16960 0.50250 0.00400
C 	C 	0.84050 0.18130 0.52550 -0.14900
C 	C 	0.83500 0.21390 0.52770 -0.06600
C 	C 	0.85030 0.23470 0.50690 0.84900
C 	C 	0.87100 0.22290 0.48390 -0.04300
C 	C 	0.87650 0.19030 0.48170 0.34200
C 	C 	0.86990 0.62470 0.92020 -0.23600
N 	N 	0.86690 0.62420 0.94680 -0.20300
C 	C 	0.81220 0.58740 0.97600 0.02400
C 	C 	0.79100 0.56260 0.97040 -0.17900
C 	C 	0.79240 0.53520 0.98890 0.03600
C 	C 	0.78260 0.56500 0.98700 0.12500
C 	C 	0.83620 0.55740 0.01850 -0.03000
C 	C 	0.85540 0.66990 0.00620 -0.19000
C 	C 	0.83520 0.67790 0.03130 0.07800
C 	C 	0.82400 0.70890 0.03420 0.29900
C 	C 	0.83290 0.73190 0.01210 -0.77200
C 	C 	0.85310 0.72380 0.98710 -0.30100
C 	C 	0.86430 0.69280 0.98420 -0.36500
C 	C 	0.86130 0.66960 0.00250 0.00900
C 	C 	0.84050 0.68130 0.02550 -0.15500
C 	C 	0.83500 0.71390 0.02770 -0.07300
C 	C 	0.85030 0.73470 0.00690 0.92400
C 	C 	0.87100 0.72290 0.98390 -0.03400
C 	C 	0.87650 0.69030 0.98170 0.36500
C 	C 	0.38010 0.12530 0.42020 -0.23700
N 	N 	0.38310 0.12580 0.44680 -0.20400
C 	C 	0.43780 0.16260 0.47600 0.02400
C 	C 	0.45900 0.18740 0.47040 -0.11300
C 	C 	0.45760 0.21480 0.48890 -0.02300
C 	C 	0.46740 0.18500 0.48700 0.06900
C 	C 	0.41380 0.19260 0.51850 -0.01900
C 	C 	0.39460 0.08010 0.50620 -0.18700
C 	C 	0.41480 0.07210 0.53130 0.07800
C 	C 	0.42600 0.04110 0.53420 0.28200
C 	C 	0.41710 0.01810 0.51210 -0.71700
C 	C 	0.39690 0.02620 0.48710 -0.26800
C 	C 	0.38570 0.05720 0.48420 -0.35300
C 	C 	0.38870 0.08040 0.50250 0.00500
C 	C 	0.40950 0.06870 0.52550 -0.15100
C 	C 	0.41500 0.03610 0.52770 -0.07300
C 	C 	0.39970 0.01530 0.50690 0.85800
C 	C 	0.37900 0.02710 0.48390 -0.04600
C 	C 	0.37350 0.05970 0.48170 0.34600
C 	C 	0.38010 0.62530 0.92020 -0.23600
N 	N 	0.38310 0.62580 0.94680 -0.20300
C 	C 	0.43780 0.66260 0.97600 0.02400
C 	C 	0.45900 0.68740 0.97040 -0.17900
C 	C 	0.45760 0.71480 0.98890 0.03600
C 	C 	0.46740 0.68500 0.98700 0.12500
C 	C 	0.41380 0.69260 0.01850 -0.03000
C 	C 	0.39460 0.58010 0.00620 -0.19100
C 	C 	0.41480 0.57210 0.03130 0.07800
C 	C 	0.42600 0.54110 0.03420 0.30300
C 	C 	0.41710 0.51810 0.01210 -0.78300
C 	C 	0.39690 0.52620 0.98710 -0.30300
C 	C 	0.38570 0.55720 0.98420 -0.36900
C 	C 	0.38870 0.58040 0.00250 0.01000
C 	C 	0.40950 0.56870 0.02550 -0.15600
C 	C 	0.41500 0.53610 0.02770 -0.07400
C 	C 	0.39970 0.51530 0.00690 0.93600
C 	C 	0.37900 0.52710 0.98390 -0.03700
C 	C 	0.37350 0.55970 0.98170 0.36800
C 	C 	0.88010 0.12530 0.92020 -0.23600
N 	N 	0.88310 0.12580 0.94680 -0.20300
C 	C 	0.93780 0.16260 0.97600 0.02500
C 	C 	0.95900 0.18740 0.97040 -0.18900
C 	C 	0.95760 0.21480 0.98890 0.04100
C 	C 	0.96740 0.18500 0.98700 0.13600
C 	C 	0.91380 0.19260 0.01850 -0.03000
C 	C 	0.89460 0.08010 0.00620 -0.19100
C 	C 	0.91480 0.07210 0.03130 0.07900
C 	C 	0.92600 0.04110 0.03420 0.30700
C 	C 	0.91710 0.01810 0.01210 -0.78700
C 	C 	0.89690 0.02620 0.98710 -0.30600
C 	C 	0.88570 0.05720 0.98420 -0.37200
C 	C 	0.88870 0.08040 0.00250 0.01100
C 	C 	0.90950 0.06870 0.02550 -0.15700
C 	C 	0.91500 0.03610 0.02770 -0.07900
C 	C 	0.89970 0.01530 0.00690 0.94300
C 	C 	0.87900 0.02710 0.98390 -0.03600
C 	C 	0.87350 0.05970 0.98170 0.37200
C 	C 	0.88010 0.62530 0.42020 -0.23700
N 	N 	0.88310 0.62580 0.44680 -0.20400
C 	C 	0.93780 0.66260 0.47600 0.02400
C 	C 	0.95900 0.68740 0.47040 -0.12300
C 	C 	0.95760 0.71480 0.48890 -0.01700
C 	C 	0.96740 0.68500 0.48700 0.08000
C 	C 	0.91380 0.69260 0.51850 -0.02000
C 	C 	0.89460 0.58010 0.50620 -0.18600
C 	C 	0.91480 0.57210 0.53130 0.07700
C 	C 	0.92600 0.54110 0.53420 0.28100
C 	C 	0.91710 0.51810 0.51210 -0.72800
C 	C 	0.89690 0.52620 0.48710 -0.27400
C 	C 	0.88570 0.55720 0.48420 -0.35500
C 	C 	0.88870 0.58040 0.50250 0.00600
C 	C 	0.90950 0.56870 0.52550 -0.14900
C 	C 	0.91500 0.53610 0.52770 -0.06600
C 	C 	0.89970 0.51530 0.50690 0.87100
C 	C 	0.87900 0.52710 0.48390 -0.04400
C 	C 	0.87350 0.55970 0.48170 0.34900
C 	C 	0.88010 0.62470 0.82980 -0.23700
N 	N 	0.88310 0.62420 0.80320 -0.20400
C 	C 	0.93780 0.58740 0.77400 0.02400
C 	C 	0.95900 0.56260 0.77960 -0.12300
C 	C 	0.95760 0.53520 0.76110 -0.01700
C 	C 	0.96740 0.56500 0.76300 0.08000
C 	C 	0.91380 0.55740 0.73150 -0.02000
C 	C 	0.89460 0.66990 0.74380 -0.18600
C 	C 	0.91480 0.67790 0.71870 0.07700
C 	C 	0.92600 0.70890 0.71580 0.28000
C 	C 	0.91710 0.73190 0.73790 -0.72700
C 	C 	0.89690 0.72380 0.76290 -0.27400
C 	C 	0.88570 0.69280 0.76580 -0.35500
C 	C 	0.88870 0.66960 0.74750 0.00600
C 	C 	0.90950 0.68130 0.72450 -0.14900
C 	C 	0.91500 0.71390 0.72230 -0.06600
C 	C 	0.89970 0.73470 0.74310 0.87000
C 	C 	0.87900 0.72290 0.76610 -0.04400
C 	C 	0.87350 0.69030 0.76830 0.34900
C 	C 	0.88010 0.12470 0.32980 -0.23700
N 	N 	0.88310 0.12420 0.30320 -0.20400
C 	C 	0.93780 0.08740 0.27400 0.02400
C 	C 	0.95900 0.06260 0.27960 -0.12900
C 	C 	0.95760 0.03520 0.26110 -0.01200
C 	C 	0.96740 0.06500 0.26300 0.08500
C 	C 	0.91380 0.05740 0.23150 -0.02200
C 	C 	0.89460 0.16990 0.24380 -0.18600
C 	C 	0.91480 0.17790 0.21870 0.07700
C 	C 	0.92600 0.20890 0.21580 0.28000
C 	C 	0.91710 0.23190 0.23790 -0.72700
C 	C 	0.89690 0.22380 0.26290 -0.27400
C 	C 	0.88570 0.19280 0.26580 -0.35500
C 	C 	0.88870 0.16960 0.24750 0.00600
C 	C 	0.90950 0.18130 0.22450 -0.14900
C 	C 	0.91500 0.21390 0.22230 -0.06500
C 	C 	0.89970 0.23470 0.24310 0.87000
C 	C 	0.87900 0.22290 0.26610 -0.04400
C 	C 	0.87350 0.19030 0.26830 0.34900
C 	C 	0.38010 0.62470 0.32980 -0.23700
N 	N 	0.38310 0.62420 0.30320 -0.20400
C 	C 	0.43780 0.58740 0.27400 0.02400
C 	C 	0.45900 0.56260 0.27960 -0.11300
C 	C 	0.45760 0.53520 0.26110 -0.02200
C 	C 	0.46740 0.56500 0.26300 0.06900
C 	C 	0.41380 0.55740 0.23150 -0.01900
C 	C 	0.39460 0.66990 0.24380 -0.18600
C 	C 	0.41480 0.67790 0.21870 0.07700
C 	C 	0.42600 0.70890 0.21580 0.27900
C 	C 	0.41710 0.73190 0.23790 -0.72000
C 	C 	0.39690 0.72380 0.26290 -0.27000
C 	C 	0.38570 0.69280 0.26580 -0.35200
C 	C 	0.38870 0.66960 0.24750 0.00500
C 	C 	0.40950 0.68130 0.22450 -0.15000
C 	C 	0.41500 0.71390 0.22230 -0.06600
C 	C 	0.39970 0.73470 0.24310 0.86000
C 	C 	0.37900 0.72290 0.26610 -0.04600
C 	C 	0.37350 0.69030 0.26830 0.34600
C 	C 	0.38010 0.12470 0.82980 -0.23700
N 	N 	0.38310 0.12420 0.80320 -0.20400
C 	C 	0.43780 0.08740 0.77400 0.02400
C 	C 	0.45900 0.06260 0.77960 -0.12000
C 	C 	0.45760 0.03520 0.76110 -0.01700
C 	C 	0.46740 0.06500 0.76300 0.07400
C 	C 	0.41380 0.05740 0.73150 -0.02200
C 	C 	0.39460 0.16990 0.74380 -0.18600
C 	C 	0.41480 0.17790 0.71870 0.07700
C 	C 	0.42600 0.20890 0.71580 0.27900
C 	C 	0.41710 0.23190 0.73790 -0.71900
C 	C 	0.39690 0.22380 0.76290 -0.27000
C 	C 	0.38570 0.19280 0.76580 -0.35200
C 	C 	0.38870 0.16960 0.74750 0.00500
C 	C 	0.40950 0.18130 0.72450 -0.15000
C 	C 	0.41500 0.21390 0.72230 -0.06600
C 	C 	0.39970 0.23470 0.74310 0.85900
C 	C 	0.37900 0.22290 0.76610 -0.04500
C 	C 	0.37350 0.19030 0.76830 0.34600
C 	C 	0.86990 0.62530 0.32980 -0.23700
N 	N 	0.86690 0.62580 0.30320 -0.20400
C 	C 	0.81220 0.66260 0.27400 0.02400
C 	C 	0.79100 0.68740 0.27960 -0.11300
C 	C 	0.79240 0.71480 0.26110 -0.02200
C 	C 	0.78260 0.68500 0.26300 0.06900
C 	C 	0.83620 0.69260 0.23150 -0.01900
C 	C 	0.85540 0.58010 0.24380 -0.18600
C 	C 	0.83520 0.57210 0.21870 0.07700
C 	C 	0.82400 0.54110 0.21580 0.27500
C 	C 	0.83290 0.51810 0.23790 -0.71100
C 	C 	0.85310 0.52620 0.26290 -0.26800
C 	C 	0.86430 0.55720 0.26580 -0.34900
C 	C 	0.86130 0.58040 0.24750 0.00400
C 	C 	0.84050 0.56870 0.22450 -0.14900
C 	C 	0.83500 0.53610 0.22230 -0.06500
C 	C 	0.85030 0.51530 0.24310 0.85000
C 	C 	0.87100 0.52710 0.26610 -0.04300
C 	C 	0.87650 0.55970 0.26830 0.34300
C 	C 	0.86990 0.12530 0.82980 -0.23700
N 	N 	0.86690 0.12580 0.80320 -0.20400
C 	C 	0.81220 0.16260 0.77400 0.02400
C 	C 	0.79100 0.18740 0.77960 -0.11300
C 	C 	0.79240 0.21480 0.76110 -0.02300
C 	C 	0.78260 0.18500 0.76300 0.06900
C 	C 	0.83620 0.19260 0.73150 -0.01900
C 	C 	0.85540 0.08010 0.74380 -0.18600
C 	C 	0.83520 0.07210 0.71870 0.07800
C 	C 	0.82400 0.04110 0.71580 0.27800
C 	C 	0.83290 0.01810 0.73790 -0.70700
C 	C 	0.85310 0.02620 0.76290 -0.26600
C 	C 	0.86430 0.05720 0.76580 -0.34900
C 	C 	0.86130 0.08040 0.74750 0.00400
C 	C 	0.84050 0.06870 0.72450 -0.15000
C 	C 	0.83500 0.03610 0.72230 -0.07200
C 	C 	0.85030 0.01530 0.74310 0.84600
C 	C 	0.87100 0.02710 0.76610 -0.04400
C 	C 	0.87650 0.05970 0.76830 0.34300
C 	C 	0.36990 0.62530 0.82980 -0.23700
N 	N 	0.36690 0.62580 0.80320 -0.20400
C 	C 	0.31220 0.66260 0.77400 0.02400
C 	C 	0.29100 0.68740 0.77960 -0.11300
C 	C 	0.29240 0.71480 0.76110 -0.02300
C 	C 	0.28260 0.68500 0.76300 0.06900
C 	C 	0.33620 0.69260 0.73150 -0.01900
C 	C 	0.35540 0.58010 0.74380 -0.18600
C 	C 	0.33520 0.57210 0.71870 0.07700
C 	C 	0.32400 0.54110 0.71580 0.27900
C 	C 	0.33290 0.51810 0.73790 -0.72000
C 	C 	0.35310 0.52620 0.76290 -0.27000
C 	C 	0.36430 0.55720 0.76580 -0.35200
C 	C 	0.36130 0.58040 0.74750 0.00500
C 	C 	0.34050 0.56870 0.72450 -0.15000
C 	C 	0.33500 0.53610 0.72230 -0.06700
C 	C 	0.35030 0.51530 0.74310 0.86000
C 	C 	0.37100 0.52710 0.76610 -0.04500
C 	C 	0.37650 0.55970 0.76830 0.34600
C 	C 	0.36990 0.12530 0.32980 -0.23700
N 	N 	0.36690 0.12580 0.30320 -0.20400
C 	C 	0.31220 0.16260 0.27400 0.02400
C 	C 	0.29100 0.18740 0.27960 -0.11300
C 	C 	0.29240 0.21480 0.26110 -0.02300
C 	C 	0.28260 0.18500 0.26300 0.06900
C 	C 	0.33620 0.19260 0.23150 -0.01900
C 	C 	0.35540 0.08010 0.24380 -0.18700
C 	C 	0.33520 0.07210 0.21870 0.07800
C 	C 	0.32400 0.04110 0.21580 0.28200
C 	C 	0.33290 0.01810 0.23790 -0.71800
C 	C 	0.35310 0.02620 0.26290 -0.26800
C 	C 	0.36430 0.05720 0.26580 -0.35300
C 	C 	0.36130 0.08040 0.24750 0.00500
C 	C 	0.34050 0.06870 0.22450 -0.15100
C 	C 	0.33500 0.03610 0.22230 -0.07200
C 	C 	0.35030 0.01530 0.24310 0.85800
C 	C 	0.37100 0.02710 0.26610 -0.04600
C 	C 	0.37650 0.05970 0.26830 0.34600
C 	C 	0.92020 0.36990 0.12470 -0.23700
N 	N 	0.94680 0.36690 0.12420 -0.20300
C 	C 	0.97600 0.31220 0.08740 0.02400
C 	C 	0.97040 0.29100 0.06260 -0.18600
C 	C 	0.98890 0.29240 0.03520 0.04100
C 	C 	0.98700 0.28260 0.06500 0.13000
C 	C 	0.01850 0.33620 0.05740 -0.03200
C 	C 	0.00620 0.35540 0.16990 -0.19100
C 	C 	0.03130 0.33520 0.17790 0.07800
C 	C 	0.03420 0.32400 0.20890 0.30300
C 	C 	0.01210 0.33290 0.23190 -0.78200
C 	C 	0.98710 0.35310 0.22380 -0.30300
C 	C 	0.98420 0.36430 0.19280 -0.36900
C 	C 	0.00250 0.36130 0.16960 0.01000
C 	C 	0.02550 0.34050 0.18130 -0.15600
C 	C 	0.02770 0.33500 0.21390 -0.07400
C 	C 	0.00690 0.35030 0.23470 0.93500
C 	C 	0.98390 0.37100 0.22290 -0.03600
C 	C 	0.98170 0.37650 0.19030 0.36800
C 	C 	0.92020 0.86990 0.62470 -0.23600
N 	N 	0.94680 0.86690 0.62420 -0.20300
C 	C 	0.97600 0.81220 0.58740 0.02400
C 	C 	0.97040 0.79100 0.56260 -0.17900
C 	C 	0.98890 0.79240 0.53520 0.03600
C 	C 	0.98700 0.78260 0.56500 0.12500
C 	C 	0.01850 0.83620 0.55740 -0.03000
C 	C 	0.00620 0.85540 0.66990 -0.19000
C 	C 	0.03130 0.83520 0.67790 0.07800
C 	C 	0.03420 0.82400 0.70890 0.29900
C 	C 	0.01210 0.83290 0.73190 -0.77200
C 	C 	0.98710 0.85310 0.72380 -0.30100
C 	C 	0.98420 0.86430 0.69280 -0.36500
C 	C 	0.00250 0.86130 0.66960 0.00900
C 	C 	0.02550 0.84050 0.68130 -0.15500
C 	C 	0.02770 0.83500 0.71390 -0.07300
C 	C 	0.00690 0.85030 0.73470 0.92400
C 	C 	0.98390 0.87100 0.72290 -0.03400
C 	C 	0.98170 0.87650 0.69030 0.36500
C 	C 	0.42020 0.36990 0.62470 -0.23700
N 	N 	0.44680 0.36690 0.62420 -0.20400
C 	C 	0.47600 0.31220 0.58740 0.02400
C 	C 	0.47040 0.29100 0.56260 -0.11300
C 	C 	0.48890 0.29240 0.53520 -0.02200
C 	C 	0.48700 0.28260 0.56500 0.06900
C 	C 	0.51850 0.33620 0.55740 -0.01900
C 	C 	0.50620 0.35540 0.66990 -0.18600
C 	C 	0.53130 0.33520 0.67790 0.07700
C 	C 	0.53420 0.32400 0.70890 0.27900
C 	C 	0.51210 0.33290 0.73190 -0.72000
C 	C 	0.48710 0.35310 0.72380 -0.27000
C 	C 	0.48420 0.36430 0.69280 -0.35200
C 	C 	0.50250 0.36130 0.66960 0.00500
C 	C 	0.52550 0.34050 0.68130 -0.15000
C 	C 	0.52770 0.33500 0.71390 -0.06700
C 	C 	0.50690 0.35030 0.73470 0.86000
C 	C 	0.48390 0.37100 0.72290 -0.04600
C 	C 	0.48170 0.37650 0.69030 0.34600
C 	C 	0.42020 0.86990 0.12470 -0.23700
N 	N 	0.44680 0.86690 0.12420 -0.20400
C 	C 	0.47600 0.81220 0.08740 0.02400
C 	C 	0.47040 0.79100 0.06260 -0.11900
C 	C 	0.48890 0.79240 0.03520 -0.01700
C 	C 	0.48700 0.78260 0.06500 0.07400
C 	C 	0.51850 0.83620 0.05740 -0.02200
C 	C 	0.50620 0.85540 0.16990 -0.18600
C 	C 	0.53130 0.83520 0.17790 0.07700
C 	C 	0.53420 0.82400 0.20890 0.27500
C 	C 	0.51210 0.83290 0.23190 -0.71000
C 	C 	0.48710 0.85310 0.22380 -0.26800
C 	C 	0.48420 0.86430 0.19280 -0.34800
C 	C 	0.50250 0.86130 0.16960 0.00400
C 	C 	0.52550 0.84050 0.18130 -0.14900
C 	C 	0.52770 0.83500 0.21390 -0.06600
C 	C 	0.50690 0.85030 0.23470 0.84900
C 	C 	0.48390 0.87100 0.22290 -0.04300
C 	C 	0.48170 0.87650 0.19030 0.34200
C 	C 	0.42020 0.38010 0.12530 -0.23700
N 	N 	0.44680 0.38310 0.12580 -0.20400
C 	C 	0.47600 0.43780 0.16260 0.02400
C 	C 	0.47040 0.45900 0.18740 -0.11300
C 	C 	0.48890 0.45760 0.21480 -0.02300
C 	C 	0.48700 0.46740 0.18500 0.06900
C 	C 	0.51850 0.41380 0.19260 -0.01900
C 	C 	0.50620 0.39460 0.08010 -0.18700
C 	C 	0.53130 0.41480 0.07210 0.07800
C 	C 	0.53420 0.42600 0.04110 0.28200
C 	C 	0.51210 0.41710 0.01810 -0.71700
C 	C 	0.48710 0.39690 0.02620 -0.26800
C 	C 	0.48420 0.38570 0.05720 -0.35300
C 	C 	0.50250 0.38870 0.08040 0.00500
C 	C 	0.52550 0.40950 0.06870 -0.15100
C 	C 	0.52770 0.41500 0.03610 -0.07300
C 	C 	0.50690 0.39970 0.01530 0.85800
C 	C 	0.48390 0.37900 0.02710 -0.04600
C 	C 	0.48170 0.37350 0.05970 0.34600
C 	C 	0.42020 0.88010 0.62530 -0.23700
N 	N 	0.44680 0.88310 0.62580 -0.20400
C 	C 	0.47600 0.93780 0.66260 0.02400
C 	C 	0.47040 0.95900 0.68740 -0.12300
C 	C 	0.48890 0.95760 0.71480 -0.01700
C 	C 	0.48700 0.96740 0.68500 0.08000
C 	C 	0.51850 0.91380 0.69260 -0.02000
C 	C 	0.50620 0.89460 0.58010 -0.18600
C 	C 	0.53130 0.91480 0.57210 0.07700
C 	C 	0.53420 0.92600 0.54110 0.28100
C 	C 	0.51210 0.91710 0.51810 -0.72800
C 	C 	0.48710 0.89690 0.52620 -0.27400
C 	C 	0.48420 0.88570 0.55720 -0.35500
C 	C 	0.50250 0.88870 0.58040 0.00600
C 	C 	0.52550 0.90950 0.56870 -0.14900
C 	C 	0.52770 0.91500 0.53610 -0.06600
C 	C 	0.50690 0.89970 0.51530 0.87100
C 	C 	0.48390 0.87900 0.52710 -0.04400
C 	C 	0.48170 0.87350 0.55970 0.34900
C 	C 	0.92020 0.38010 0.62530 -0.23600
N 	N 	0.94680 0.38310 0.62580 -0.20300
C 	C 	0.97600 0.43780 0.66260 0.02400
C 	C 	0.97040 0.45900 0.68740 -0.17900
C 	C 	0.98890 0.45760 0.71480 0.03600
C 	C 	0.98700 0.46740 0.68500 0.12500
C 	C 	0.01850 0.41380 0.69260 -0.03000
C 	C 	0.00620 0.39460 0.58010 -0.19100
C 	C 	0.03130 0.41480 0.57210 0.07800
C 	C 	0.03420 0.42600 0.54110 0.30300
C 	C 	0.01210 0.41710 0.51810 -0.78300
C 	C 	0.98710 0.39690 0.52620 -0.30300
C 	C 	0.98420 0.38570 0.55720 -0.36900
C 	C 	0.00250 0.38870 0.58040 0.01000
C 	C 	0.02550 0.40950 0.56870 -0.15600
C 	C 	0.02770 0.41500 0.53610 -0.07400
C 	C 	0.00690 0.39970 0.51530 0.93600
C 	C 	0.98390 0.37900 0.52710 -0.03700
C 	C 	0.98170 0.37350 0.55970 0.36800
C 	C 	0.92020 0.88010 0.12530 -0.23600
N 	N 	0.94680 0.88310 0.12580 -0.20300
C 	C 	0.97600 0.93780 0.16260 0.02500
C 	C 	0.97040 0.95900 0.18740 -0.18900
C 	C 	0.98890 0.95760 0.21480 0.04100
C 	C 	0.98700 0.96740 0.18500 0.13600
C 	C 	0.01850 0.91380 0.19260 -0.03000
C 	C 	0.00620 0.89460 0.08010 -0.19100
C 	C 	0.03130 0.91480 0.07210 0.07900
C 	C 	0.03420 0.92600 0.04110 0.30700
C 	C 	0.01210 0.91710 0.01810 -0.78700
C 	C 	0.98710 0.89690 0.02620 -0.30600
C 	C 	0.98420 0.88570 0.05720 -0.37200
C 	C 	0.00250 0.88870 0.08040 0.01100
C 	C 	0.02550 0.90950 0.06870 -0.15700
C 	C 	0.02770 0.91500 0.03610 -0.07900
C 	C 	0.00690 0.89970 0.01530 0.94300
C 	C 	0.98390 0.87900 0.02710 -0.03600
C 	C 	0.98170 0.87350 0.05970 0.37200
C 	C 	0.82980 0.88010 0.62470 -0.23700
N 	N 	0.80320 0.88310 0.62420 -0.20400
C 	C 	0.77400 0.93780 0.58740 0.02400
C 	C 	0.77960 0.95900 0.56260 -0.12300
C 	C 	0.76110 0.95760 0.53520 -0.01700
C 	C 	0.76300 0.96740 0.56500 0.08000
C 	C 	0.73150 0.91380 0.55740 -0.02000
C 	C 	0.74380 0.89460 0.66990 -0.18600
C 	C 	0.71870 0.91480 0.67790 0.07700
C 	C 	0.71580 0.92600 0.70890 0.28000
C 	C 	0.73790 0.91710 0.73190 -0.72700
C 	C 	0.76290 0.89690 0.72380 -0.27400
C 	C 	0.76580 0.88570 0.69280 -0.35500
C 	C 	0.74750 0.88870 0.66960 0.00600
C 	C 	0.72450 0.90950 0.68130 -0.14900
C 	C 	0.72230 0.91500 0.71390 -0.06600
C 	C 	0.74310 0.89970 0.73470 0.87000
C 	C 	0.76610 0.87900 0.72290 -0.04400
C 	C 	0.76830 0.87350 0.69030 0.34900
C 	C 	0.82980 0.38010 0.12470 -0.23700
N 	N 	0.80320 0.38310 0.12420 -0.20400
C 	C 	0.77400 0.43780 0.08740 0.02400
C 	C 	0.77960 0.45900 0.06260 -0.12000
C 	C 	0.76110 0.45760 0.03520 -0.01700
C 	C 	0.76300 0.46740 0.06500 0.07400
C 	C 	0.73150 0.41380 0.05740 -0.02200
C 	C 	0.74380 0.39460 0.16990 -0.18600
C 	C 	0.71870 0.41480 0.17790 0.07700
C 	C 	0.71580 0.42600 0.20890 0.27900
C 	C 	0.73790 0.41710 0.23190 -0.71900
C 	C 	0.76290 0.39690 0.22380 -0.27000
C 	C 	0.76580 0.38570 0.19280 -0.35200
C 	C 	0.74750 0.38870 0.16960 0.00500
C 	C 	0.72450 0.40950 0.18130 -0.15000
C 	C 	0.72230 0.41500 0.21390 -0.06600
C 	C 	0.74310 0.39970 0.23470 0.85900
C 	C 	0.76610 0.37900 0.22290 -0.04500
C 	C 	0.76830 0.37350 0.19030 0.34600
C 	C 	0.32980 0.88010 0.12470 -0.23700
N 	N 	0.30320 0.88310 0.12420 -0.20400
C 	C 	0.27400 0.93780 0.08740 0.02400
C 	C 	0.27960 0.95900 0.06260 -0.12900
C 	C 	0.26110 0.95760 0.03520 -0.01200
C 	C 	0.26300 0.96740 0.06500 0.08500
C 	C 	0.23150 0.91380 0.05740 -0.02200
C 	C 	0.24380 0.89460 0.16990 -0.18600
C 	C 	0.21870 0.91480 0.17790 0.07700
C 	C 	0.21580 0.92600 0.20890 0.28000
C 	C 	0.23790 0.91710 0.23190 -0.72700
C 	C 	0.26290 0.89690 0.22380 -0.27400
C 	C 	0.26580 0.88570 0.19280 -0.35500
C 	C 	0.24750 0.88870 0.16960 0.00600
C 	C 	0.22450 0.90950 0.18130 -0.14900
C 	C 	0.22230 0.91500 0.21390 -0.06500
C 	C 	0.24310 0.89970 0.23470 0.87000
C 	C 	0.26610 0.87900 0.22290 -0.04400
C 	C 	0.26830 0.87350 0.19030 0.34900
C 	C 	0.32980 0.38010 0.62470 -0.23700
N 	N 	0.30320 0.38310 0.62420 -0.20400
C 	C 	0.27400 0.43780 0.58740 0.02400
C 	C 	0.27960 0.45900 0.56260 -0.11300
C 	C 	0.26110 0.45760 0.53520 -0.02200
C 	C 	0.26300 0.46740 0.56500 0.06900
C 	C 	0.23150 0.41380 0.55740 -0.01900
C 	C 	0.24380 0.39460 0.66990 -0.18600
C 	C 	0.21870 0.41480 0.67790 0.07700
C 	C 	0.21580 0.42600 0.70890 0.27900
C 	C 	0.23790 0.41710 0.73190 -0.72000
C 	C 	0.26290 0.39690 0.72380 -0.27000
C 	C 	0.26580 0.38570 0.69280 -0.35200
C 	C 	0.24750 0.38870 0.66960 0.00500
C 	C 	0.22450 0.40950 0.68130 -0.15000
C 	C 	0.22230 0.41500 0.71390 -0.06600
C 	C 	0.24310 0.39970 0.73470 0.86000
C 	C 	0.26610 0.37900 0.72290 -0.04600
C 	C 	0.26830 0.37350 0.69030 0.34600
C 	C 	0.32980 0.86990 0.62530 -0.23700
N 	N 	0.30320 0.86690 0.62580 -0.20400
C 	C 	0.27400 0.81220 0.66260 0.02400
C 	C 	0.27960 0.79100 0.68740 -0.11300
C 	C 	0.26110 0.79240 0.71480 -0.02200
C 	C 	0.26300 0.78260 0.68500 0.06900
C 	C 	0.23150 0.83620 0.69260 -0.01900
C 	C 	0.24380 0.85540 0.58010 -0.18600
C 	C 	0.21870 0.83520 0.57210 0.07700
C 	C 	0.21580 0.82400 0.54110 0.27500
C 	C 	0.23790 0.83290 0.51810 -0.71100
C 	C 	0.26290 0.85310 0.52620 -0.26800
C 	C 	0.26580 0.86430 0.55720 -0.34900
C 	C 	0.24750 0.86130 0.58040 0.00400
C 	C 	0.22450 0.84050 0.56870 -0.14900
C 	C 	0.22230 0.83500 0.53610 -0.06500
C 	C 	0.24310 0.85030 0.51530 0.85000
C 	C 	0.26610 0.87100 0.52710 -0.04300
C 	C 	0.26830 0.87650 0.55970 0.34300
C 	C 	0.32980 0.36990 0.12530 -0.23700
N 	N 	0.30320 0.36690 0.12580 -0.20400
C 	C 	0.27400 0.31220 0.16260 0.02400
C 	C 	0.27960 0.29100 0.18740 -0.11300
C 	C 	0.26110 0.29240 0.21480 -0.02300
C 	C 	0.26300 0.28260 0.18500 0.06900
C 	C 	0.23150 0.33620 0.19260 -0.01900
C 	C 	0.24380 0.35540 0.08010 -0.18700
C 	C 	0.21870 0.33520 0.07210 0.07800
C 	C 	0.21580 0.32400 0.04110 0.28200
C 	C 	0.23790 0.33290 0.01810 -0.71800
C 	C 	0.26290 0.35310 0.02620 -0.26800
C 	C 	0.26580 0.36430 0.05720 -0.35300
C 	C 	0.24750 0.36130 0.08040 0.00500
C 	C 	0.22450 0.34050 0.06870 -0.15100
C 	C 	0.22230 0.33500 0.03610 -0.07200
C 	C 	0.24310 0.35030 0.01530 0.85800
C 	C 	0.26610 0.37100 0.02710 -0.04600
C 	C 	0.26830 0.37650 0.05970 0.34600
C 	C 	0.82980 0.86990 0.12530 -0.23700
N 	N 	0.80320 0.86690 0.12580 -0.20400
C 	C 	0.77400 0.81220 0.16260 0.02400
C 	C 	0.77960 0.79100 0.18740 -0.11300
C 	C 	0.76110 0.79240 0.21480 -0.02300
C 	C 	0.76300 0.78260 0.18500 0.06900
C 	C 	0.73150 0.83620 0.19260 -0.01900
C 	C 	0.74380 0.85540 0.08010 -0.18600
C 	C 	0.71870 0.83520 0.07210 0.07800
C 	C 	0.71580 0.82400 0.04110 0.27800
C 	C 	0.73790 0.83290 0.01810 -0.70700
C 	C 	0.76290 0.85310 0.02620 -0.26600
C 	C 	0.76580 0.86430 0.05720 -0.34900
C 	C 	0.74750 0.86130 0.08040 0.00400
C 	C 	0.72450 0.84050 0.06870 -0.15000
C 	C 	0.72230 0.83500 0.03610 -0.07200
C 	C 	0.74310 0.85030 0.01530 0.84600
C 	C 	0.76610 0.87100 0.02710 -0.04400
C 	C 	0.76830 0.87650 0.05970 0.34300
C 	C 	0.82980 0.36990 0.62530 -0.23700
N 	N 	0.80320 0.36690 0.62580 -0.20400
C 	C 	0.77400 0.31220 0.66260 0.02400
C 	C 	0.77960 0.29100 0.68740 -0.11300
C 	C 	0.76110 0.29240 0.71480 -0.02300
C 	C 	0.76300 0.28260 0.68500 0.06900
C 	C 	0.73150 0.33620 0.69260 -0.01900
C 	C 	0.74380 0.35540 0.58010 -0.18600
C 	C 	0.71870 0.33520 0.57210 0.07700
C 	C 	0.71580 0.32400 0.54110 0.27900
C 	C 	0.73790 0.33290 0.51810 -0.72000
C 	C 	0.76290 0.35310 0.52620 -0.27000
C 	C 	0.76580 0.36430 0.55720 -0.35200
C 	C 	0.74750 0.36130 0.58040 0.00500
C 	C 	0.72450 0.34050 0.56870 -0.15000
C 	C 	0.72230 0.33500 0.53610 -0.06700
C 	C 	0.74310 0.35030 0.51530 0.86000
C 	C 	0.76610 0.37100 0.52710 -0.04500
C 	C 	0.76830 0.37650 0.55970 0.34600
C 	C 	0.12470 0.92020 0.36990 -0.23700
N 	N 	0.12420 0.94680 0.36690 -0.20300
C 	C 	0.08740 0.97600 0.31220 0.02400
C 	C 	0.06260 0.97040 0.29100 -0.18600
C 	C 	0.03520 0.98890 0.29240 0.04100
C 	C 	0.06500 0.98700 0.28260 0.13000
C 	C 	0.05740 0.01850 0.33620 -0.03200
C 	C 	0.16990 0.00620 0.35540 -0.19100
C 	C 	0.17790 0.03130 0.33520 0.07800
C 	C 	0.20890 0.03420 0.32400 0.30300
C 	C 	0.23190 0.01210 0.33290 -0.78200
C 	C 	0.22380 0.98710 0.35310 -0.30300
C 	C 	0.19280 0.98420 0.36430 -0.36900
C 	C 	0.16960 0.00250 0.36130 0.01000
C 	C 	0.18130 0.02550 0.34050 -0.15600
C 	C 	0.21390 0.02770 0.33500 -0.07400
C 	C 	0.23470 0.00690 0.35030 0.93500
C 	C 	0.22290 0.98390 0.37100 -0.03600
C 	C 	0.19030 0.98170 0.37650 0.36800
C 	C 	0.12470 0.42020 0.86990 -0.23700
N 	N 	0.12420 0.44680 0.86690 -0.20400
C 	C 	0.08740 0.47600 0.81220 0.02400
C 	C 	0.06260 0.47040 0.79100 -0.11900
C 	C 	0.03520 0.48890 0.79240 -0.01700
C 	C 	0.06500 0.48700 0.78260 0.07400
C 	C 	0.05740 0.51850 0.83620 -0.02200
C 	C 	0.16990 0.50620 0.85540 -0.18600
C 	C 	0.17790 0.53130 0.83520 0.07700
C 	C 	0.20890 0.53420 0.82400 0.27500
C 	C 	0.23190 0.51210 0.83290 -0.71000
C 	C 	0.22380 0.48710 0.85310 -0.26800
C 	C 	0.19280 0.48420 0.86430 -0.34800
C 	C 	0.16960 0.50250 0.86130 0.00400
C 	C 	0.18130 0.52550 0.84050 -0.14900
C 	C 	0.21390 0.52770 0.83500 -0.06600
C 	C 	0.23470 0.50690 0.85030 0.84900
C 	C 	0.22290 0.48390 0.87100 -0.04300
C 	C 	0.19030 0.48170 0.87650 0.34200
C 	C 	0.62470 0.92020 0.86990 -0.23600
N 	N 	0.62420 0.94680 0.86690 -0.20300
C 	C 	0.58740 0.97600 0.81220 0.02400
C 	C 	0.56260 0.97040 0.79100 -0.17900
C 	C 	0.53520 0.98890 0.79240 0.03600
C 	C 	0.56500 0.98700 0.78260 0.12500
C 	C 	0.55740 0.01850 0.83620 -0.03000
C 	C 	0.66990 0.00620 0.85540 -0.19000
C 	C 	0.67790 0.03130 0.83520 0.07800
C 	C 	0.70890 0.03420 0.82400 0.29900
C 	C 	0.73190 0.01210 0.83290 -0.77200
C 	C 	0.72380 0.98710 0.85310 -0.30100
C 	C 	0.69280 0.98420 0.86430 -0.36500
C 	C 	0.66960 0.00250 0.86130 0.00900
C 	C 	0.68130 0.02550 0.84050 -0.15500
C 	C 	0.71390 0.02770 0.83500 -0.07300
C 	C 	0.73470 0.00690 0.85030 0.92400
C 	C 	0.72290 0.98390 0.87100 -0.03400
C 	C 	0.69030 0.98170 0.87650 0.36500
C 	C 	0.62470 0.42020 0.36990 -0.23700
N 	N 	0.62420 0.44680 0.36690 -0.20400
C 	C 	0.58740 0.47600 0.31220 0.02400
C 	C 	0.56260 0.47040 0.29100 -0.11300
C 	C 	0.53520 0.48890 0.29240 -0.02200
C 	C 	0.56500 0.48700 0.28260 0.06900
C 	C 	0.55740 0.51850 0.33620 -0.01900
C 	C 	0.66990 0.50620 0.35540 -0.18600
C 	C 	0.67790 0.53130 0.33520 0.07700
C 	C 	0.70890 0.53420 0.32400 0.27900
C 	C 	0.73190 0.51210 0.33290 -0.72000
C 	C 	0.72380 0.48710 0.35310 -0.27000
C 	C 	0.69280 0.48420 0.36430 -0.35200
C 	C 	0.66960 0.50250 0.36130 0.00500
C 	C 	0.68130 0.52550 0.34050 -0.15000
C 	C 	0.71390 0.52770 0.33500 -0.06700
C 	C 	0.73470 0.50690 0.35030 0.86000
C 	C 	0.72290 0.48390 0.37100 -0.04600
C 	C 	0.69030 0.48170 0.37650 0.34600
C 	C 	0.12530 0.42020 0.38010 -0.23700
N 	N 	0.12580 0.44680 0.38310 -0.20400
C 	C 	0.16260 0.47600 0.43780 0.02400
C 	C 	0.18740 0.47040 0.45900 -0.11300
C 	C 	0.21480 0.48890 0.45760 -0.02300
C 	C 	0.18500 0.48700 0.46740 0.06900
C 	C 	0.19260 0.51850 0.41380 -0.01900
C 	C 	0.08010 0.50620 0.39460 -0.18700
C 	C 	0.07210 0.53130 0.41480 0.07800
C 	C 	0.04110 0.53420 0.42600 0.28200
C 	C 	0.01810 0.51210 0.41710 -0.71700
C 	C 	0.02620 0.48710 0.39690 -0.26800
C 	C 	0.05720 0.48420 0.38570 -0.35300
C 	C 	0.08040 0.50250 0.38870 0.00500
C 	C 	0.06870 0.52550 0.40950 -0.15100
C 	C 	0.03610 0.52770 0.41500 -0.07300
C 	C 	0.01530 0.50690 0.39970 0.85800
C 	C 	0.02710 0.48390 0.37900 -0.04600
C 	C 	0.05970 0.48170 0.37350 0.34600
C 	C 	0.12530 0.92020 0.88010 -0.23600
N 	N 	0.12580 0.94680 0.88310 -0.20300
C 	C 	0.16260 0.97600 0.93780 0.02500
C 	C 	0.18740 0.97040 0.95900 -0.18900
C 	C 	0.21480 0.98890 0.95760 0.04100
C 	C 	0.18500 0.98700 0.96740 0.13600
C 	C 	0.19260 0.01850 0.91380 -0.03000
C 	C 	0.08010 0.00620 0.89460 -0.19100
C 	C 	0.07210 0.03130 0.91480 0.07900
C 	C 	0.04110 0.03420 0.92600 0.30700
C 	C 	0.01810 0.01210 0.91710 -0.78700
C 	C 	0.02620 0.98710 0.89690 -0.30600
C 	C 	0.05720 0.98420 0.88570 -0.37200
C 	C 	0.08040 0.00250 0.88870 0.01100
C 	C 	0.06870 0.02550 0.90950 -0.15700
C 	C 	0.03610 0.02770 0.91500 -0.07900
C 	C 	0.01530 0.00690 0.89970 0.94300
C 	C 	0.02710 0.98390 0.87900 -0.03600
C 	C 	0.05970 0.98170 0.87350 0.37200
C 	C 	0.62530 0.42020 0.88010 -0.23700
N 	N 	0.62580 0.44680 0.88310 -0.20400
C 	C 	0.66260 0.47600 0.93780 0.02400
C 	C 	0.68740 0.47040 0.95900 -0.12300
C 	C 	0.71480 0.48890 0.95760 -0.01700
C 	C 	0.68500 0.48700 0.96740 0.08000
C 	C 	0.69260 0.51850 0.91380 -0.02000
C 	C 	0.58010 0.50620 0.89460 -0.18600
C 	C 	0.57210 0.53130 0.91480 0.07700
C 	C 	0.54110 0.53420 0.92600 0.28100
C 	C 	0.51810 0.51210 0.91710 -0.72800
C 	C 	0.52620 0.48710 0.89690 -0.27400
C 	C 	0.55720 0.48420 0.88570 -0.35500
C 	C 	0.58040 0.50250 0.88870 0.00600
C 	C 	0.56870 0.52550 0.90950 -0.14900
C 	C 	0.53610 0.52770 0.91500 -0.06600
C 	C 	0.51530 0.50690 0.89970 0.87100
C 	C 	0.52710 0.48390 0.87900 -0.04400
C 	C 	0.55970 0.48170 0.87350 0.34900
C 	C 	0.62530 0.92020 0.38010 -0.23600
N 	N 	0.62580 0.94680 0.38310 -0.20300
C 	C 	0.66260 0.97600 0.43780 0.02400
C 	C 	0.68740 0.97040 0.45900 -0.17900
C 	C 	0.71480 0.98890 0.45760 0.03600
C 	C 	0.68500 0.98700 0.46740 0.12500
C 	C 	0.69260 0.01850 0.41380 -0.03000
C 	C 	0.58010 0.00620 0.39460 -0.19100
C 	C 	0.57210 0.03130 0.41480 0.07800
C 	C 	0.54110 0.03420 0.42600 0.30300
C 	C 	0.51810 0.01210 0.41710 -0.78300
C 	C 	0.52620 0.98710 0.39690 -0.30300
C 	C 	0.55720 0.98420 0.38570 -0.36900
C 	C 	0.58040 0.00250 0.38870 0.01000
C 	C 	0.56870 0.02550 0.40950 -0.15600
C 	C 	0.53610 0.02770 0.41500 -0.07400
C 	C 	0.51530 0.00690 0.39970 0.93600
C 	C 	0.52710 0.98390 0.37900 -0.03700
C 	C 	0.55970 0.98170 0.37350 0.36800
C 	C 	0.62470 0.82980 0.88010 -0.23700
N 	N 	0.62420 0.80320 0.88310 -0.20400
C 	C 	0.58740 0.77400 0.93780 0.02400
C 	C 	0.56260 0.77960 0.95900 -0.12300
C 	C 	0.53520 0.76110 0.95760 -0.01700
C 	C 	0.56500 0.76300 0.96740 0.08000
C 	C 	0.55740 0.73150 0.91380 -0.02000
C 	C 	0.66990 0.74380 0.89460 -0.18600
C 	C 	0.67790 0.71870 0.91480 0.07700
C 	C 	0.70890 0.71580 0.92600 0.28000
C 	C 	0.73190 0.73790 0.91710 -0.72700
C 	C 	0.72380 0.76290 0.89690 -0.27400
C 	C 	0.69280 0.76580 0.88570 -0.35500
C 	C 	0.66960 0.74750 0.88870 0.00600
C 	C 	0.68130 0.72450 0.90950 -0.14900
C 	C 	0.71390 0.72230 0.91500 -0.06600
C 	C 	0.73470 0.74310 0.89970 0.87000
C 	C 	0.72290 0.76610 0.87900 -0.04400
C 	C 	0.69030 0.76830 0.87350 0.34900
C 	C 	0.62470 0.32980 0.38010 -0.23700
N 	N 	0.62420 0.30320 0.38310 -0.20400
C 	C 	0.58740 0.27400 0.43780 0.02400
C 	C 	0.56260 0.27960 0.45900 -0.11300
C 	C 	0.53520 0.26110 0.45760 -0.02200
C 	C 	0.56500 0.26300 0.46740 0.06900
C 	C 	0.55740 0.23150 0.41380 -0.01900
C 	C 	0.66990 0.24380 0.39460 -0.18600
C 	C 	0.67790 0.21870 0.41480 0.07700
C 	C 	0.70890 0.21580 0.42600 0.27900
C 	C 	0.73190 0.23790 0.41710 -0.72000
C 	C 	0.72380 0.26290 0.39690 -0.27000
C 	C 	0.69280 0.26580 0.38570 -0.35200
C 	C 	0.66960 0.24750 0.38870 0.00500
C 	C 	0.68130 0.22450 0.40950 -0.15000
C 	C 	0.71390 0.22230 0.41500 -0.06600
C 	C 	0.73470 0.24310 0.39970 0.86000
C 	C 	0.72290 0.26610 0.37900 -0.04600
C 	C 	0.69030 0.26830 0.37350 0.34600
C 	C 	0.12470 0.82980 0.38010 -0.23700
N 	N 	0.12420 0.80320 0.38310 -0.20400
C 	C 	0.08740 0.77400 0.43780 0.02400
C 	C 	0.06260 0.77960 0.45900 -0.12000
C 	C 	0.03520 0.76110 0.45760 -0.01700
C 	C 	0.06500 0.76300 0.46740 0.07400
C 	C 	0.05740 0.73150 0.41380 -0.02200
C 	C 	0.16990 0.74380 0.39460 -0.18600
C 	C 	0.17790 0.71870 0.41480 0.07700
C 	C 	0.20890 0.71580 0.42600 0.27900
C 	C 	0.23190 0.73790 0.41710 -0.71900
C 	C 	0.22380 0.76290 0.39690 -0.27000
C 	C 	0.19280 0.76580 0.38570 -0.35200
C 	C 	0.16960 0.74750 0.38870 0.00500
C 	C 	0.18130 0.72450 0.40950 -0.15000
C 	C 	0.21390 0.72230 0.41500 -0.06600
C 	C 	0.23470 0.74310 0.39970 0.85900
C 	C 	0.22290 0.76610 0.37900 -0.04500
C 	C 	0.19030 0.76830 0.37350 0.34600
C 	C 	0.12470 0.32980 0.88010 -0.23700
N 	N 	0.12420 0.30320 0.88310 -0.20400
C 	C 	0.08740 0.27400 0.93780 0.02400
C 	C 	0.06260 0.27960 0.95900 -0.12900
C 	C 	0.03520 0.26110 0.95760 -0.01200
C 	C 	0.06500 0.26300 0.96740 0.08500
C 	C 	0.05740 0.23150 0.91380 -0.02200
C 	C 	0.16990 0.24380 0.89460 -0.18600
C 	C 	0.17790 0.21870 0.91480 0.07700
C 	C 	0.20890 0.21580 0.92600 0.28000
C 	C 	0.23190 0.23790 0.91710 -0.72700
C 	C 	0.22380 0.26290 0.89690 -0.27400
C 	C 	0.19280 0.26580 0.88570 -0.35500
C 	C 	0.16960 0.24750 0.88870 0.00600
C 	C 	0.18130 0.22450 0.90950 -0.14900
C 	C 	0.21390 0.22230 0.91500 -0.06500
C 	C 	0.23470 0.24310 0.89970 0.87000
C 	C 	0.22290 0.26610 0.87900 -0.04400
C 	C 	0.19030 0.26830 0.87350 0.34900
C 	C 	0.62530 0.32980 0.86990 -0.23700
N 	N 	0.62580 0.30320 0.86690 -0.20400
C 	C 	0.66260 0.27400 0.81220 0.02400
C 	C 	0.68740 0.27960 0.79100 -0.11300
C 	C 	0.71480 0.26110 0.79240 -0.02200
C 	C 	0.68500 0.26300 0.78260 0.06900
C 	C 	0.69260 0.23150 0.83620 -0.01900
C 	C 	0.58010 0.24380 0.85540 -0.18600
C 	C 	0.57210 0.21870 0.83520 0.07700
C 	C 	0.54110 0.21580 0.82400 0.27500
C 	C 	0.51810 0.23790 0.83290 -0.71100
C 	C 	0.52620 0.26290 0.85310 -0.26800
C 	C 	0.55720 0.26580 0.86430 -0.34900
C 	C 	0.58040 0.24750 0.86130 0.00400
C 	C 	0.56870 0.22450 0.84050 -0.14900
C 	C 	0.53610 0.22230 0.83500 -0.06500
C 	C 	0.51530 0.24310 0.85030 0.85000
C 	C 	0.52710 0.26610 0.87100 -0.04300
C 	C 	0.55970 0.26830 0.87650 0.34300
C 	C 	0.62530 0.82980 0.36990 -0.23700
N 	N 	0.62580 0.80320 0.36690 -0.20400
C 	C 	0.66260 0.77400 0.31220 0.02400
C 	C 	0.68740 0.77960 0.29100 -0.11300
C 	C 	0.71480 0.76110 0.29240 -0.02300
C 	C 	0.68500 0.76300 0.28260 0.06900
C 	C 	0.69260 0.73150 0.33620 -0.01900
C 	C 	0.58010 0.74380 0.35540 -0.18600
C 	C 	0.57210 0.71870 0.33520 0.07700
C 	C 	0.54110 0.71580 0.32400 0.27900
C 	C 	0.51810 0.73790 0.33290 -0.72000
C 	C 	0.52620 0.76290 0.35310 -0.27000
C 	C 	0.55720 0.76580 0.36430 -0.35200
C 	C 	0.58040 0.74750 0.36130 0.00500
C 	C 	0.56870 0.72450 0.34050 -0.15000
C 	C 	0.53610 0.72230 0.33500 -0.06700
C 	C 	0.51530 0.74310 0.35030 0.86000
C 	C 	0.52710 0.76610 0.37100 -0.04500
C 	C 	0.55970 0.76830 0.37650 0.34600
C 	C 	0.12530 0.32980 0.36990 -0.23700
N 	N 	0.12580 0.30320 0.36690 -0.20400
C 	C 	0.16260 0.27400 0.31220 0.02400
C 	C 	0.18740 0.27960 0.29100 -0.11300
C 	C 	0.21480 0.26110 0.29240 -0.02300
C 	C 	0.18500 0.26300 0.28260 0.06900
C 	C 	0.19260 0.23150 0.33620 -0.01900
C 	C 	0.08010 0.24380 0.35540 -0.18700
C 	C 	0.07210 0.21870 0.33520 0.07800
C 	C 	0.04110 0.21580 0.32400 0.28200
C 	C 	0.01810 0.23790 0.33290 -0.71800
C 	C 	0.02620 0.26290 0.35310 -0.26800
C 	C 	0.05720 0.26580 0.36430 -0.35300
C 	C 	0.08040 0.24750 0.36130 0.00500
C 	C 	0.06870 0.22450 0.34050 -0.15100
C 	C 	0.03610 0.22230 0.33500 -0.07200
C 	C 	0.01530 0.24310 0.35030 0.85800
C 	C 	0.02710 0.26610 0.37100 -0.04600
C 	C 	0.05970 0.26830 0.37650 0.34600
C 	C 	0.12530 0.82980 0.86990 -0.23700
N 	N 	0.12580 0.80320 0.86690 -0.20400
C 	C 	0.16260 0.77400 0.81220 0.02400
C 	C 	0.18740 0.77960 0.79100 -0.11300
C 	C 	0.21480 0.76110 0.79240 -0.02300
C 	C 	0.18500 0.76300 0.78260 0.06900
C 	C 	0.19260 0.73150 0.83620 -0.01900
C 	C 	0.08010 0.74380 0.85540 -0.18600
C 	C 	0.07210 0.71870 0.83520 0.07800
C 	C 	0.04110 0.71580 0.82400 0.27800
C 	C 	0.01810 0.73790 0.83290 -0.70700
C 	C 	0.02620 0.76290 0.85310 -0.26600
C 	C 	0.05720 0.76580 0.86430 -0.34900
C 	C 	0.08040 0.74750 0.86130 0.00400
C 	C 	0.06870 0.72450 0.84050 -0.15000
C 	C 	0.03610 0.72230 0.83500 -0.07200
C 	C 	0.01530 0.74310 0.85030 0.84600
C 	C 	0.02710 0.76610 0.87100 -0.04400
C 	C 	0.05970 0.76830 0.87650 0.34300
C 	C 	0.37470 0.11990 0.07980 -0.23900
N 	N 	0.37420 0.11690 0.05320 -0.20500
C 	C 	0.33740 0.06220 0.02400 0.02500
C 	C 	0.31260 0.04100 0.02960 -0.04000
C 	C 	0.28520 0.04240 0.01110 -0.08600
C 	C 	0.31500 0.03260 0.01300 0.00400
C 	C 	0.30740 0.08620 0.98150 -0.00500
C 	C 	0.41990 0.10540 0.99380 -0.18100
C 	C 	0.42790 0.08520 0.96870 0.07600
C 	C 	0.45890 0.07400 0.96580 0.25300
C 	C 	0.48190 0.08290 0.98790 -0.65000
C 	C 	0.47380 0.10310 0.01290 -0.23200
C 	C 	0.44280 0.11430 0.01580 -0.33200
C 	C 	0.41960 0.11130 0.99750 -0.00000
C 	C 	0.43130 0.09050 0.97450 -0.14300
C 	C 	0.46390 0.08500 0.97230 -0.06000
C 	C 	0.48470 0.10030 0.99310 0.77400
C 	C 	0.47290 0.12100 0.01610 -0.05600
C 	C 	0.44030 0.12650 0.01830 0.32000
C 	C 	0.37470 0.61990 0.57980 -0.23700
N 	N 	0.37420 0.61690 0.55320 -0.20400
C 	C 	0.33740 0.56220 0.52400 0.02400
C 	C 	0.31260 0.54100 0.52960 -0.11300
C 	C 	0.28520 0.54240 0.51110 -0.02200
C 	C 	0.31500 0.53260 0.51300 0.07000
C 	C 	0.30740 0.58620 0.48150 -0.01900
C 	C 	0.41990 0.60540 0.49380 -0.18600
C 	C 	0.42790 0.58520 0.46870 0.07700
C 	C 	0.45890 0.57400 0.46580 0.27900
C 	C 	0.48190 0.58290 0.48790 -0.72100
C 	C 	0.47380 0.60310 0.51290 -0.27000
C 	C 	0.44280 0.61430 0.51580 -0.35200
C 	C 	0.41960 0.61130 0.49750 0.00500
C 	C 	0.43130 0.59050 0.47450 -0.15000
C 	C 	0.46390 0.58500 0.47230 -0.06700
C 	C 	0.48470 0.60030 0.49310 0.86100
C 	C 	0.47290 0.62100 0.51610 -0.04600
C 	C 	0.44030 0.62650 0.51830 0.34600
C 	C 	0.87470 0.11990 0.57980 -0.23800
N 	N 	0.87420 0.11690 0.55320 -0.20400
C 	C 	0.83740 0.06220 0.52400 0.02300
C 	C 	0.81260 0.04100 0.52960 -0.10300
C 	C 	0.78520 0.04240 0.51110 -0.02700
C 	C 	0.81500 0.03260 0.51300 0.05800
C 	C 	0.80740 0.08620 0.48150 -0.01900
C 	C 	0.91990 0.10540 0.49380 -0.18600
C 	C 	0.92790 0.08520 0.46870 0.07600
C 	C 	0.95890 0.07400 0.46580 0.27500
C 	C 	0.98190 0.08290 0.48790 -0.71600
C 	C 	0.97380 0.10310 0.51290 -0.26700
C 	C 	0.94280 0.11430 0.51580 -0.34900
C 	C 	0.91960 0.11130 0.49750 0.00400
C 	C 	0.93130 0.09050 0.47450 -0.14800
C 	C 	0.96390 0.08500 0.47230 -0.06200
C 	C 	0.98470 0.10030 0.49310 0.85300
C 	C 	0.97290 0.12100 0.51610 -0.04600
C 	C 	0.94030 0.12650 0.51830 0.34300
C 	C 	0.87470 0.61990 0.07980 -0.23800
N 	N 	0.87420 0.61690 0.05320 -0.20500
C 	C 	0.83740 0.56220 0.02400 0.02600
C 	C 	0.81260 0.54100 0.02960 -0.04900
C 	C 	0.78520 0.54240 0.01110 -0.08100
C 	C 	0.81500 0.53260 0.01300 0.01500
C 	C 	0.80740 0.58620 0.98150 -0.00600
C 	C 	0.91990 0.60540 0.99380 -0.18100
C 	C 	0.92790 0.58520 0.96870 0.07400
C 	C 	0.95890 0.57400 0.96580 0.25200
C 	C 	0.98190 0.58290 0.98790 -0.66000
C 	C 	0.97380 0.60310 0.01290 -0.23700
C 	C 	0.94280 0.61430 0.01580 -0.33400
C 	C 	0.91960 0.61130 0.99750 0.00000
C 	C 	0.93130 0.59050 0.97450 -0.14100
C 	C 	0.96390 0.58500 0.97230 -0.05300
C 	C 	0.98470 0.60030 0.99310 0.78600
C 	C 	0.97290 0.62100 0.01610 -0.05400
C 	C 	0.94030 0.62650 0.01830 0.32300
C 	C 	0.37530 0.13010 0.57980 -0.23800
N 	N 	0.37580 0.13310 0.55320 -0.20400
C 	C 	0.41260 0.18780 0.52400 0.02400
C 	C 	0.43740 0.20900 0.52960 -0.11300
C 	C 	0.46480 0.20760 0.51110 -0.02200
C 	C 	0.43500 0.21740 0.51300 0.07000
C 	C 	0.44260 0.16380 0.48150 -0.01900
C 	C 	0.33010 0.14460 0.49380 -0.18700
C 	C 	0.32210 0.16480 0.46870 0.07700
C 	C 	0.29110 0.17600 0.46580 0.28300
C 	C 	0.26810 0.16710 0.48790 -0.73100
C 	C 	0.27620 0.14690 0.51290 -0.27200
C 	C 	0.30720 0.13570 0.51580 -0.35600
C 	C 	0.33040 0.13870 0.49750 0.00600
C 	C 	0.31870 0.15950 0.47450 -0.15000
C 	C 	0.28610 0.16500 0.47230 -0.06700
C 	C 	0.26530 0.14970 0.49310 0.87200
C 	C 	0.27710 0.12900 0.51610 -0.04800
C 	C 	0.30970 0.12350 0.51830 0.34900
C 	C 	0.37530 0.63010 0.07980 -0.23800
N 	N 	0.37580 0.63310 0.05320 -0.20500
C 	C 	0.41260 0.68780 0.02400 0.02600
C 	C 	0.43740 0.70900 0.02960 -0.04900
C 	C 	0.46480 0.70760 0.01110 -0.08100
C 	C 	0.43500 0.71740 0.01300 0.01500
C 	C 	0.44260 0.66380 0.98150 -0.00600
C 	C 	0.33010 0.64460 0.99380 -0.18100
C 	C 	0.32210 0.66480 0.96870 0.07600
C 	C 	0.29110 0.67600 0.96580 0.25500
C 	C 	0.26810 0.66710 0.98790 -0.65700
C 	C 	0.27620 0.64690 0.01290 -0.23600
C 	C 	0.30720 0.63570 0.01580 -0.33400
C 	C 	0.33040 0.63870 0.99750 0.00100
C 	C 	0.31870 0.65950 0.97450 -0.14200
C 	C 	0.28610 0.66500 0.97230 -0.05900
C 	C 	0.26530 0.64970 0.99310 0.78400
C 	C 	0.27710 0.62900 0.01610 -0.05500
C 	C 	0.30970 0.62350 0.01830 0.32300
C 	C 	0.87530 0.13010 0.07980 -0.23900
N 	N 	0.87580 0.13310 0.05320 -0.20500
C 	C 	0.91260 0.18780 0.02400 0.02600
C 	C 	0.93740 0.20900 0.02960 -0.04300
C 	C 	0.96480 0.20760 0.01110 -0.08600
C 	C 	0.93500 0.21740 0.01300 0.01100
C 	C 	0.94260 0.16380 0.98150 -0.00300
C 	C 	0.83010 0.14460 0.99380 -0.18200
C 	C 	0.82210 0.16480 0.96870 0.07600
C 	C 	0.79110 0.17600 0.96580 0.25900
C 	C 	0.76810 0.16710 0.98790 -0.66700
C 	C 	0.77620 0.14690 0.01290 -0.23800
C 	C 	0.80720 0.13570 0.01580 -0.33800
C 	C 	0.83040 0.13870 0.99750 0.00100
C 	C 	0.81870 0.15950 0.97450 -0.14300
C 	C 	0.78610 0.16500 0.97230 -0.06000
C 	C 	0.76530 0.14970 0.99310 0.79500
C 	C 	0.77710 0.12900 0.01610 -0.05700
C 	C 	0.80970 0.12350 0.01830 0.32600
C 	C 	0.87530 0.63010 0.57980 -0.23700
N 	N 	0.87580 0.63310 0.55320 -0.20400
C 	C 	0.91260 0.68780 0.52400 0.02400
C 	C 	0.93740 0.70900 0.52960 -0.10700
C 	C 	0.96480 0.70760 0.51110 -0.02800
C 	C 	0.93500 0.71740 0.51300 0.06500
C 	C 	0.94260 0.66380 0.48150 -0.01700
C 	C 	0.83010 0.64460 0.49380 -0.18600
C 	C 	0.82210 0.66480 0.46870 0.07700
C 	C 	0.79110 0.67600 0.46580 0.28000
C 	C 	0.76810 0.66710 0.48790 -0.72200
C 	C 	0.77620 0.64690 0.51290 -0.27000
C 	C 	0.80720 0.63570 0.51580 -0.35200
C 	C 	0.83040 0.63870 0.49750 0.00500
C 	C 	0.81870 0.65950 0.47450 -0.15000
C 	C 	0.78610 0.66500 0.47230 -0.06700
C 	C 	0.76530 0.64970 0.49310 0.86200
C 	C 	0.77710 0.62900 0.51610 -0.04600
C 	C 	0.80970 0.62350 0.51830 0.34600
C 	C 	0.87470 0.63010 0.17020 -0.23700
N 	N 	0.87420 0.63310 0.19680 -0.20400
C 	C 	0.83740 0.68780 0.22600 0.02400
C 	C 	0.81260 0.70900 0.22040 -0.11300
C 	C 	0.78520 0.70760 0.23890 -0.02200
C 	C 	0.81500 0.71740 0.23700 0.06900
C 	C 	0.80740 0.66380 0.26850 -0.01900
C 	C 	0.91990 0.64460 0.25620 -0.18600
C 	C 	0.92790 0.66480 0.28130 0.07600
C 	C 	0.95890 0.67600 0.28420 0.27700
C 	C 	0.98190 0.66710 0.26210 -0.72300
C 	C 	0.97380 0.64690 0.23710 -0.27100
C 	C 	0.94280 0.63570 0.23420 -0.35100
C 	C 	0.91960 0.63870 0.25250 0.00500
C 	C 	0.93130 0.65950 0.27550 -0.14800
C 	C 	0.96390 0.66500 0.27770 -0.06000
C 	C 	0.98470 0.64970 0.25690 0.86300
C 	C 	0.97290 0.62900 0.23390 -0.04500
C 	C 	0.94030 0.62350 0.23170 0.34600
C 	C 	0.87470 0.13010 0.67020 -0.23800
N 	N 	0.87420 0.13310 0.69680 -0.20400
C 	C 	0.83740 0.18780 0.72600 0.02400
C 	C 	0.81260 0.20900 0.72040 -0.11400
C 	C 	0.78520 0.20760 0.73890 -0.02200
C 	C 	0.81500 0.21740 0.73700 0.07000
C 	C 	0.80740 0.16380 0.76850 -0.01900
C 	C 	0.91990 0.14460 0.75620 -0.18600
C 	C 	0.92790 0.16480 0.78130 0.07600
C 	C 	0.95890 0.17600 0.78420 0.28100
C 	C 	0.98190 0.16710 0.76210 -0.73200
C 	C 	0.97380 0.14690 0.73710 -0.27200
C 	C 	0.94280 0.13570 0.73420 -0.35500
C 	C 	0.91960 0.13870 0.75250 0.00500
C 	C 	0.93130 0.15950 0.77550 -0.14900
C 	C 	0.96390 0.16500 0.77770 -0.06200
C 	C 	0.98470 0.14970 0.75690 0.87300
C 	C 	0.97290 0.12900 0.73390 -0.04700
C 	C 	0.94030 0.12350 0.73170 0.34900
C 	C 	0.37470 0.63010 0.67020 -0.23700
N 	N 	0.37420 0.63310 0.69680 -0.20400
C 	C 	0.33740 0.68780 0.72600 0.02400
C 	C 	0.31260 0.70900 0.72040 -0.11400
C 	C 	0.28520 0.70760 0.73890 -0.02200
C 	C 	0.31500 0.71740 0.73700 0.07000
C 	C 	0.30740 0.66380 0.76850 -0.01900
C 	C 	0.41990 0.64460 0.75620 -0.18600
C 	C 	0.42790 0.66480 0.78130 0.07700
C 	C 	0.45890 0.67600 0.78420 0.27900
C 	C 	0.48190 0.66710 0.76210 -0.72000
C 	C 	0.47380 0.64690 0.73710 -0.26900
C 	C 	0.44280 0.63570 0.73420 -0.35200
C 	C 	0.41960 0.63870 0.75250 0.00500
C 	C 	0.43130 0.65950 0.77550 -0.15000
C 	C 	0.46390 0.66500 0.77770 -0.06700
C 	C 	0.48470 0.64970 0.75690 0.86000
C 	C 	0.47290 0.62900 0.73390 -0.04600
C 	C 	0.44030 0.62350 0.73170 0.34600
C 	C 	0.37470 0.13010 0.17020 -0.23800
N 	N 	0.37420 0.13310 0.19680 -0.20400
C 	C 	0.33740 0.18780 0.22600 0.02400
C 	C 	0.31260 0.20900 0.22040 -0.11400
C 	C 	0.28520 0.20760 0.23890 -0.02200
C 	C 	0.31500 0.21740 0.23700 0.07000
C 	C 	0.30740 0.16380 0.26850 -0.01900
C 	C 	0.41990 0.14460 0.25620 -0.18700
C 	C 	0.42790 0.16480 0.28130 0.07700
C 	C 	0.45890 0.17600 0.28420 0.28300
C 	C 	0.48190 0.16710 0.26210 -0.73100
C 	C 	0.47380 0.14690 0.23710 -0.27100
C 	C 	0.44280 0.13570 0.23420 -0.35600
C 	C 	0.41960 0.13870 0.25250 0.00600
C 	C 	0.43130 0.15950 0.27550 -0.15000
C 	C 	0.46390 0.16500 0.27770 -0.06800
C 	C 	0.48470 0.14970 0.25690 0.87200
C 	C 	0.47290 0.12900 0.23390 -0.04800
C 	C 	0.44030 0.12350 0.23170 0.34900
C 	C 	0.87530 0.61990 0.67020 -0.23700
N 	N 	0.87580 0.61690 0.69680 -0.20400
C 	C 	0.91260 0.56220 0.72600 0.02400
C 	C 	0.93740 0.54100 0.72040 -0.10700
C 	C 	0.96480 0.54240 0.73890 -0.02800
C 	C 	0.93500 0.53260 0.73700 0.06500
C 	C 	0.94260 0.58620 0.76850 -0.01700
C 	C 	0.83010 0.60540 0.75620 -0.18600
C 	C 	0.82210 0.58520 0.78130 0.07700
C 	C 	0.79110 0.57400 0.78420 0.28000
C 	C 	0.76810 0.58290 0.76210 -0.72100
C 	C 	0.77620 0.60310 0.73710 -0.27000
C 	C 	0.80720 0.61430 0.73420 -0.35200
C 	C 	0.83040 0.61130 0.75250 0.00500
C 	C 	0.81870 0.59050 0.77550 -0.15000
C 	C 	0.78610 0.58500 0.77770 -0.06700
C 	C 	0.76530 0.60030 0.75690 0.86200
C 	C 	0.77710 0.62100 0.73390 -0.04600
C 	C 	0.80970 0.62650 0.73170 0.34600
C 	C 	0.87530 0.11990 0.17020 -0.23800
N 	N 	0.87580 0.11690 0.19680 -0.20400
C 	C 	0.91260 0.06220 0.22600 0.02300
C 	C 	0.93740 0.04100 0.22040 -0.09700
C 	C 	0.96480 0.04240 0.23890 -0.03300
C 	C 	0.93500 0.03260 0.23700 0.05400
C 	C 	0.94260 0.08620 0.26850 -0.01600
C 	C 	0.83010 0.10540 0.25620 -0.18600
C 	C 	0.82210 0.08520 0.28130 0.07700
C 	C 	0.79110 0.07400 0.28420 0.27900
C 	C 	0.76810 0.08290 0.26210 -0.71500
C 	C 	0.77620 0.10310 0.23710 -0.26500
C 	C 	0.80720 0.11430 0.23420 -0.35000
C 	C 	0.83040 0.11130 0.25250 0.00400
C 	C 	0.81870 0.09050 0.27550 -0.15000
C 	C 	0.78610 0.08500 0.27770 -0.06800
C 	C 	0.76530 0.10030 0.25690 0.85300
C 	C 	0.77710 0.12100 0.23390 -0.04800
C 	C 	0.80970 0.12650 0.23170 0.34300
C 	C 	0.37530 0.61990 0.17020 -0.23700
N 	N 	0.37580 0.61690 0.19680 -0.20400
C 	C 	0.41260 0.56220 0.22600 0.02400
C 	C 	0.43740 0.54100 0.22040 -0.11300
C 	C 	0.46480 0.54240 0.23890 -0.02200
C 	C 	0.43500 0.53260 0.23700 0.06900
C 	C 	0.44260 0.58620 0.26850 -0.01900
C 	C 	0.33010 0.60540 0.25620 -0.18600
C 	C 	0.32210 0.58520 0.28130 0.07700
C 	C 	0.29110 0.57400 0.28420 0.28000
C 	C 	0.26810 0.58290 0.26210 -0.72200
C 	C 	0.27620 0.60310 0.23710 -0.27000
C 	C 	0.30720 0.61430 0.23420 -0.35200
C 	C 	0.33040 0.61130 0.25250 0.00500
C 	C 	0.31870 0.59050 0.27550 -0.15000
C 	C 	0.28610 0.58500 0.27770 -0.06700
C 	C 	0.26530 0.60030 0.25690 0.86200
C 	C 	0.27710 0.62100 0.23390 -0.04600
C 	C 	0.30970 0.62650 0.23170 0.34600
C 	C 	0.37530 0.11990 0.67020 -0.23800
N 	N 	0.37580 0.11690 0.69680 -0.20400
C 	C 	0.41260 0.06220 0.72600 0.02300
C 	C 	0.43740 0.04100 0.72040 -0.10300
C 	C 	0.46480 0.04240 0.73890 -0.02700
C 	C 	0.43500 0.03260 0.73700 0.05800
C 	C 	0.44260 0.08620 0.76850 -0.01900
C 	C 	0.33010 0.10540 0.75620 -0.18600
C 	C 	0.32210 0.08520 0.78130 0.07700
C 	C 	0.29110 0.07400 0.78420 0.27800
C 	C 	0.26810 0.08290 0.76210 -0.71400
C 	C 	0.27620 0.10310 0.73710 -0.26500
C 	C 	0.30720 0.11430 0.73420 -0.35000
C 	C 	0.33040 0.11130 0.75250 0.00400
C 	C 	0.31870 0.09050 0.77550 -0.15000
C 	C 	0.28610 0.08500 0.77770 -0.06800
C 	C 	0.26530 0.10030 0.75690 0.85200
C 	C 	0.27710 0.12100 0.73390 -0.04700
C 	C 	0.30970 0.12650 0.73170 0.34300
C 	C 	0.61990 0.67020 0.87530 -0.23700
N 	N 	0.61690 0.69680 0.87580 -0.20400
C 	C 	0.56220 0.72600 0.91260 0.02400
C 	C 	0.54100 0.72040 0.93740 -0.10700
C 	C 	0.54240 0.73890 0.96480 -0.02800
C 	C 	0.53260 0.73700 0.93500 0.06500
C 	C 	0.58620 0.76850 0.94260 -0.01700
C 	C 	0.60540 0.75620 0.83010 -0.18600
C 	C 	0.58520 0.78130 0.82210 0.07700
C 	C 	0.57400 0.78420 0.79110 0.28000
C 	C 	0.58290 0.76210 0.76810 -0.72100
C 	C 	0.60310 0.73710 0.77620 -0.27000
C 	C 	0.61430 0.73420 0.80720 -0.35200
C 	C 	0.61130 0.75250 0.83040 0.00500
C 	C 	0.59050 0.77550 0.81870 -0.15000
C 	C 	0.58500 0.77770 0.78610 -0.06700
C 	C 	0.60030 0.75690 0.76530 0.86200
C 	C 	0.62100 0.73390 0.77710 -0.04600
C 	C 	0.62650 0.73170 0.80970 0.34600
C 	C 	0.61990 0.17020 0.37530 -0.23700
N 	N 	0.61690 0.19680 0.37580 -0.20400
C 	C 	0.56220 0.22600 0.41260 0.02400
C 	C 	0.54100 0.22040 0.43740 -0.11300
C 	C 	0.54240 0.23890 0.46480 -0.02200
C 	C 	0.53260 0.23700 0.43500 0.06900
C 	C 	0.58620 0.26850 0.44260 -0.01900
C 	C 	0.60540 0.25620 0.33010 -0.18600
C 	C 	0.58520 0.28130 0.32210 0.07700
C 	C 	0.57400 0.28420 0.29110 0.28000
C 	C 	0.58290 0.26210 0.26810 -0.72200
C 	C 	0.60310 0.23710 0.27620 -0.27000
C 	C 	0.61430 0.23420 0.30720 -0.35200
C 	C 	0.61130 0.25250 0.33040 0.00500
C 	C 	0.59050 0.27550 0.31870 -0.15000
C 	C 	0.58500 0.27770 0.28610 -0.06700
C 	C 	0.60030 0.25690 0.26530 0.86200
C 	C 	0.62100 0.23390 0.27710 -0.04600
C 	C 	0.62650 0.23170 0.30970 0.34600
C 	C 	0.11990 0.67020 0.37530 -0.23800
N 	N 	0.11690 0.69680 0.37580 -0.20400
C 	C 	0.06220 0.72600 0.41260 0.02300
C 	C 	0.04100 0.72040 0.43740 -0.10300
C 	C 	0.04240 0.73890 0.46480 -0.02700
C 	C 	0.03260 0.73700 0.43500 0.05800
C 	C 	0.08620 0.76850 0.44260 -0.01900
C 	C 	0.10540 0.75620 0.33010 -0.18600
C 	C 	0.08520 0.78130 0.32210 0.07700
C 	C 	0.07400 0.78420 0.29110 0.27800
C 	C 	0.08290 0.76210 0.26810 -0.71400
C 	C 	0.10310 0.73710 0.27620 -0.26500
C 	C 	0.11430 0.73420 0.30720 -0.35000
C 	C 	0.11130 0.75250 0.33040 0.00400
C 	C 	0.09050 0.77550 0.31870 -0.15000
C 	C 	0.08500 0.77770 0.28610 -0.06800
C 	C 	0.10030 0.75690 0.26530 0.85200
C 	C 	0.12100 0.73390 0.27710 -0.04700
C 	C 	0.12650 0.73170 0.30970 0.34300
C 	C 	0.11990 0.17020 0.87530 -0.23800
N 	N 	0.11690 0.19680 0.87580 -0.20400
C 	C 	0.06220 0.22600 0.91260 0.02300
C 	C 	0.04100 0.22040 0.93740 -0.09700
C 	C 	0.04240 0.23890 0.96480 -0.03300
C 	C 	0.03260 0.23700 0.93500 0.05400
C 	C 	0.08620 0.26850 0.94260 -0.01600
C 	C 	0.10540 0.25620 0.83010 -0.18600
C 	C 	0.08520 0.28130 0.82210 0.07700
C 	C 	0.07400 0.28420 0.79110 0.27900
C 	C 	0.08290 0.26210 0.76810 -0.71500
C 	C 	0.10310 0.23710 0.77620 -0.26500
C 	C 	0.11430 0.23420 0.80720 -0.35000
C 	C 	0.11130 0.25250 0.83040 0.00400
C 	C 	0.09050 0.27550 0.81870 -0.15000
C 	C 	0.08500 0.27770 0.78610 -0.06800
C 	C 	0.10030 0.25690 0.76530 0.85300
C 	C 	0.12100 0.23390 0.77710 -0.04800
C 	C 	0.12650 0.23170 0.80970 0.34300
C 	C 	0.63010 0.17020 0.87470 -0.23700
N 	N 	0.63310 0.19680 0.87420 -0.20400
C 	C 	0.68780 0.22600 0.83740 0.02400
C 	C 	0.70900 0.22040 0.81260 -0.11300
C 	C 	0.70760 0.23890 0.78520 -0.02200
C 	C 	0.71740 0.23700 0.81500 0.06900
C 	C 	0.66380 0.26850 0.80740 -0.01900
C 	C 	0.64460 0.25620 0.91990 -0.18600
C 	C 	0.66480 0.28130 0.92790 0.07600
C 	C 	0.67600 0.28420 0.95890 0.27700
C 	C 	0.66710 0.26210 0.98190 -0.72300
C 	C 	0.64690 0.23710 0.97380 -0.27100
C 	C 	0.63570 0.23420 0.94280 -0.35100
C 	C 	0.63870 0.25250 0.91960 0.00500
C 	C 	0.65950 0.27550 0.93130 -0.14800
C 	C 	0.66500 0.27770 0.96390 -0.06000
C 	C 	0.64970 0.25690 0.98470 0.86300
C 	C 	0.62900 0.23390 0.97290 -0.04500
C 	C 	0.62350 0.23170 0.94030 0.34600
C 	C 	0.63010 0.67020 0.37470 -0.23700
N 	N 	0.63310 0.69680 0.37420 -0.20400
C 	C 	0.68780 0.72600 0.33740 0.02400
C 	C 	0.70900 0.72040 0.31260 -0.11400
C 	C 	0.70760 0.73890 0.28520 -0.02200
C 	C 	0.71740 0.73700 0.31500 0.07000
C 	C 	0.66380 0.76850 0.30740 -0.01900
C 	C 	0.64460 0.75620 0.41990 -0.18600
C 	C 	0.66480 0.78130 0.42790 0.07700
C 	C 	0.67600 0.78420 0.45890 0.27900
C 	C 	0.66710 0.76210 0.48190 -0.72000
C 	C 	0.64690 0.73710 0.47380 -0.26900
C 	C 	0.63570 0.73420 0.44280 -0.35200
C 	C 	0.63870 0.75250 0.41960 0.00500
C 	C 	0.65950 0.77550 0.43130 -0.15000
C 	C 	0.66500 0.77770 0.46390 -0.06700
C 	C 	0.64970 0.75690 0.48470 0.86000
C 	C 	0.62900 0.73390 0.47290 -0.04600
C 	C 	0.62350 0.73170 0.44030 0.34600
C 	C 	0.13010 0.17020 0.37470 -0.23800
N 	N 	0.13310 0.19680 0.37420 -0.20400
C 	C 	0.18780 0.22600 0.33740 0.02400
C 	C 	0.20900 0.22040 0.31260 -0.11400
C 	C 	0.20760 0.23890 0.28520 -0.02200
C 	C 	0.21740 0.23700 0.31500 0.07000
C 	C 	0.16380 0.26850 0.30740 -0.01900
C 	C 	0.14460 0.25620 0.41990 -0.18700
C 	C 	0.16480 0.28130 0.42790 0.07700
C 	C 	0.17600 0.28420 0.45890 0.28300
C 	C 	0.16710 0.26210 0.48190 -0.73100
C 	C 	0.14690 0.23710 0.47380 -0.27100
C 	C 	0.13570 0.23420 0.44280 -0.35600
C 	C 	0.13870 0.25250 0.41960 0.00600
C 	C 	0.15950 0.27550 0.43130 -0.15000
C 	C 	0.16500 0.27770 0.46390 -0.06800
C 	C 	0.14970 0.25690 0.48470 0.87200
C 	C 	0.12900 0.23390 0.47290 -0.04800
C 	C 	0.12350 0.23170 0.44030 0.34900
C 	C 	0.13010 0.67020 0.87470 -0.23800
N 	N 	0.13310 0.69680 0.87420 -0.20400
C 	C 	0.18780 0.72600 0.83740 0.02400
C 	C 	0.20900 0.72040 0.81260 -0.11400
C 	C 	0.20760 0.73890 0.78520 -0.02200
C 	C 	0.21740 0.73700 0.81500 0.07000
C 	C 	0.16380 0.76850 0.80740 -0.01900
C 	C 	0.14460 0.75620 0.91990 -0.18600
C 	C 	0.16480 0.78130 0.92790 0.07600
C 	C 	0.17600 0.78420 0.95890 0.28100
C 	C 	0.16710 0.76210 0.98190 -0.73200
C 	C 	0.14690 0.73710 0.97380 -0.27200
C 	C 	0.13570 0.73420 0.94280 -0.35500
C 	C 	0.13870 0.75250 0.91960 0.00500
C 	C 	0.15950 0.77550 0.93130 -0.14900
C 	C 	0.16500 0.77770 0.96390 -0.06200
C 	C 	0.14970 0.75690 0.98470 0.87300
C 	C 	0.12900 0.73390 0.97290 -0.04700
C 	C 	0.12350 0.73170 0.94030 0.34900
C 	C 	0.13010 0.57980 0.37530 -0.23800
N 	N 	0.13310 0.55320 0.37580 -0.20400
C 	C 	0.18780 0.52400 0.41260 0.02400
C 	C 	0.20900 0.52960 0.43740 -0.11300
C 	C 	0.20760 0.51110 0.46480 -0.02200
C 	C 	0.21740 0.51300 0.43500 0.07000
C 	C 	0.16380 0.48150 0.44260 -0.01900
C 	C 	0.14460 0.49380 0.33010 -0.18700
C 	C 	0.16480 0.46870 0.32210 0.07700
C 	C 	0.17600 0.46580 0.29110 0.28300
C 	C 	0.16710 0.48790 0.26810 -0.73100
C 	C 	0.14690 0.51290 0.27620 -0.27200
C 	C 	0.13570 0.51580 0.30720 -0.35600
C 	C 	0.13870 0.49750 0.33040 0.00600
C 	C 	0.15950 0.47450 0.31870 -0.15000
C 	C 	0.16500 0.47230 0.28610 -0.06700
C 	C 	0.14970 0.49310 0.26530 0.87200
C 	C 	0.12900 0.51610 0.27710 -0.04800
C 	C 	0.12350 0.51830 0.30970 0.34900
C 	C 	0.13010 0.07980 0.87530 -0.23900
N 	N 	0.13310 0.05320 0.87580 -0.20500
C 	C 	0.18780 0.02400 0.91260 0.02600
C 	C 	0.20900 0.02960 0.93740 -0.04300
C 	C 	0.20760 0.01110 0.96480 -0.08600
C 	C 	0.21740 0.01300 0.93500 0.01100
C 	C 	0.16380 0.98150 0.94260 -0.00300
C 	C 	0.14460 0.99380 0.83010 -0.18200
C 	C 	0.16480 0.96870 0.82210 0.07600
C 	C 	0.17600 0.96580 0.79110 0.25900
C 	C 	0.16710 0.98790 0.76810 -0.66700
C 	C 	0.14690 0.01290 0.77620 -0.23800
C 	C 	0.13570 0.01580 0.80720 -0.33800
C 	C 	0.13870 0.99750 0.83040 0.00100
C 	C 	0.15950 0.97450 0.81870 -0.14300
C 	C 	0.16500 0.97230 0.78610 -0.06000
C 	C 	0.14970 0.99310 0.76530 0.79500
C 	C 	0.12900 0.01610 0.77710 -0.05700
C 	C 	0.12350 0.01830 0.80970 0.32600
C 	C 	0.63010 0.57980 0.87530 -0.23700
N 	N 	0.63310 0.55320 0.87580 -0.20400
C 	C 	0.68780 0.52400 0.91260 0.02400
C 	C 	0.70900 0.52960 0.93740 -0.10700
C 	C 	0.70760 0.51110 0.96480 -0.02800
C 	C 	0.71740 0.51300 0.93500 0.06500
C 	C 	0.66380 0.48150 0.94260 -0.01700
C 	C 	0.64460 0.49380 0.83010 -0.18600
C 	C 	0.66480 0.46870 0.82210 0.07700
C 	C 	0.67600 0.46580 0.79110 0.28000
C 	C 	0.66710 0.48790 0.76810 -0.72200
C 	C 	0.64690 0.51290 0.77620 -0.27000
C 	C 	0.63570 0.51580 0.80720 -0.35200
C 	C 	0.63870 0.49750 0.83040 0.00500
C 	C 	0.65950 0.47450 0.81870 -0.15000
C 	C 	0.66500 0.47230 0.78610 -0.06700
C 	C 	0.64970 0.49310 0.76530 0.86200
C 	C 	0.62900 0.51610 0.77710 -0.04600
C 	C 	0.62350 0.51830 0.80970 0.34600
C 	C 	0.63010 0.07980 0.37530 -0.23800
N 	N 	0.63310 0.05320 0.37580 -0.20500
C 	C 	0.68780 0.02400 0.41260 0.02600
C 	C 	0.70900 0.02960 0.43740 -0.04900
C 	C 	0.70760 0.01110 0.46480 -0.08100
C 	C 	0.71740 0.01300 0.43500 0.01500
C 	C 	0.66380 0.98150 0.44260 -0.00600
C 	C 	0.64460 0.99380 0.33010 -0.18100
C 	C 	0.66480 0.96870 0.32210 0.07600
C 	C 	0.67600 0.96580 0.29110 0.25500
C 	C 	0.66710 0.98790 0.26810 -0.65700
C 	C 	0.64690 0.01290 0.27620 -0.23600
C 	C 	0.63570 0.01580 0.30720 -0.33400
C 	C 	0.63870 0.99750 0.33040 0.00100
C 	C 	0.65950 0.97450 0.31870 -0.14200
C 	C 	0.66500 0.97230 0.28610 -0.05900
C 	C 	0.64970 0.99310 0.26530 0.78400
C 	C 	0.62900 0.01610 0.27710 -0.05500
C 	C 	0.62350 0.01830 0.30970 0.32300
C 	C 	0.11990 0.07980 0.37470 -0.23900
N 	N 	0.11690 0.05320 0.37420 -0.20500
C 	C 	0.06220 0.02400 0.33740 0.02500
C 	C 	0.04100 0.02960 0.31260 -0.04000
C 	C 	0.04240 0.01110 0.28520 -0.08600
C 	C 	0.03260 0.01300 0.31500 0.00400
C 	C 	0.08620 0.98150 0.30740 -0.00500
C 	C 	0.10540 0.99380 0.41990 -0.18100
C 	C 	0.08520 0.96870 0.42790 0.07600
C 	C 	0.07400 0.96580 0.45890 0.25300
C 	C 	0.08290 0.98790 0.48190 -0.65000
C 	C 	0.10310 0.01290 0.47380 -0.23200
C 	C 	0.11430 0.01580 0.44280 -0.33200
C 	C 	0.11130 0.99750 0.41960 -0.00000
C 	C 	0.09050 0.97450 0.43130 -0.14300
C 	C 	0.08500 0.97230 0.46390 -0.06000
C 	C 	0.10030 0.99310 0.48470 0.77400
C 	C 	0.12100 0.01610 0.47290 -0.05600
C 	C 	0.12650 0.01830 0.44030 0.32000
C 	C 	0.11990 0.57980 0.87470 -0.23800
N 	N 	0.11690 0.55320 0.87420 -0.20400
C 	C 	0.06220 0.52400 0.83740 0.02300
C 	C 	0.04100 0.52960 0.81260 -0.10300
C 	C 	0.04240 0.51110 0.78520 -0.02700
C 	C 	0.03260 0.51300 0.81500 0.05800
C 	C 	0.08620 0.48150 0.80740 -0.01900
C 	C 	0.10540 0.49380 0.91990 -0.18600
C 	C 	0.08520 0.46870 0.92790 0.07600
C 	C 	0.07400 0.46580 0.95890 0.27500
C 	C 	0.08290 0.48790 0.98190 -0.71600
C 	C 	0.10310 0.51290 0.97380 -0.26700
C 	C 	0.11430 0.51580 0.94280 -0.34900
C 	C 	0.11130 0.49750 0.91960 0.00400
C 	C 	0.09050 0.47450 0.93130 -0.14800
C 	C 	0.08500 0.47230 0.96390 -0.06200
C 	C 	0.10030 0.49310 0.98470 0.85300
C 	C 	0.12100 0.51610 0.97290 -0.04600
C 	C 	0.12650 0.51830 0.94030 0.34300
C 	C 	0.61990 0.07980 0.87470 -0.23800
N 	N 	0.61690 0.05320 0.87420 -0.20500
C 	C 	0.56220 0.02400 0.83740 0.02600
C 	C 	0.54100 0.02960 0.81260 -0.04900
C 	C 	0.54240 0.01110 0.78520 -0.08100
C 	C 	0.53260 0.01300 0.81500 0.01500
C 	C 	0.58620 0.98150 0.80740 -0.00600
C 	C 	0.60540 0.99380 0.91990 -0.18100
C 	C 	0.58520 0.96870 0.92790 0.07400
C 	C 	0.57400 0.96580 0.95890 0.25200
C 	C 	0.58290 0.98790 0.98190 -0.66000
C 	C 	0.60310 0.01290 0.97380 -0.23700
C 	C 	0.61430 0.01580 0.94280 -0.33400
C 	C 	0.61130 0.99750 0.91960 0.00000
C 	C 	0.59050 0.97450 0.93130 -0.14100
C 	C 	0.58500 0.97230 0.96390 -0.05300
C 	C 	0.60030 0.99310 0.98470 0.78600
C 	C 	0.62100 0.01610 0.97290 -0.05400
C 	C 	0.62650 0.01830 0.94030 0.32300
C 	C 	0.61990 0.57980 0.37470 -0.23700
N 	N 	0.61690 0.55320 0.37420 -0.20400
C 	C 	0.56220 0.52400 0.33740 0.02400
C 	C 	0.54100 0.52960 0.31260 -0.11300
C 	C 	0.54240 0.51110 0.28520 -0.02200
C 	C 	0.53260 0.51300 0.31500 0.07000
C 	C 	0.58620 0.48150 0.30740 -0.01900
C 	C 	0.60540 0.49380 0.41990 -0.18600
C 	C 	0.58520 0.46870 0.42790 0.07700
C 	C 	0.57400 0.46580 0.45890 0.27900
C 	C 	0.58290 0.48790 0.48190 -0.72100
C 	C 	0.60310 0.51290 0.47380 -0.27000
C 	C 	0.61430 0.51580 0.44280 -0.35200
C 	C 	0.61130 0.49750 0.41960 0.00500
C 	C 	0.59050 0.47450 0.43130 -0.15000
C 	C 	0.58500 0.47230 0.46390 -0.06700
C 	C 	0.60030 0.49310 0.48470 0.86100
C 	C 	0.62100 0.51610 0.47290 -0.04600
C 	C 	0.62650 0.51830 0.44030 0.34600
C 	C 	0.17020 0.87470 0.63010 -0.23700
N 	N 	0.19680 0.87420 0.63310 -0.20400
C 	C 	0.22600 0.83740 0.68780 0.02400
C 	C 	0.22040 0.81260 0.70900 -0.11300
C 	C 	0.23890 0.78520 0.70760 -0.02200
C 	C 	0.23700 0.81500 0.71740 0.06900
C 	C 	0.26850 0.80740 0.66380 -0.01900
C 	C 	0.25620 0.91990 0.64460 -0.18600
C 	C 	0.28130 0.92790 0.66480 0.07600
C 	C 	0.28420 0.95890 0.67600 0.27700
C 	C 	0.26210 0.98190 0.66710 -0.72300
C 	C 	0.23710 0.97380 0.64690 -0.27100
C 	C 	0.23420 0.94280 0.63570 -0.35100
C 	C 	0.25250 0.91960 0.63870 0.00500
C 	C 	0.27550 0.93130 0.65950 -0.14800
C 	C 	0.27770 0.96390 0.66500 -0.06000
C 	C 	0.25690 0.98470 0.64970 0.86300
C 	C 	0.23390 0.97290 0.62900 -0.04500
C 	C 	0.23170 0.94030 0.62350 0.34600
C 	C 	0.17020 0.37470 0.13010 -0.23800
N 	N 	0.19680 0.37420 0.13310 -0.20400
C 	C 	0.22600 0.33740 0.18780 0.02400
C 	C 	0.22040 0.31260 0.20900 -0.11400
C 	C 	0.23890 0.28520 0.20760 -0.02200
C 	C 	0.23700 0.31500 0.21740 0.07000
C 	C 	0.26850 0.30740 0.16380 -0.01900
C 	C 	0.25620 0.41990 0.14460 -0.18700
C 	C 	0.28130 0.42790 0.16480 0.07700
C 	C 	0.28420 0.45890 0.17600 0.28300
C 	C 	0.26210 0.48190 0.16710 -0.73100
C 	C 	0.23710 0.47380 0.14690 -0.27100
C 	C 	0.23420 0.44280 0.13570 -0.35600
C 	C 	0.25250 0.41960 0.13870 0.00600
C 	C 	0.27550 0.43130 0.15950 -0.15000
C 	C 	0.27770 0.46390 0.16500 -0.06800
C 	C 	0.25690 0.48470 0.14970 0.87200
C 	C 	0.23390 0.47290 0.12900 -0.04800
C 	C 	0.23170 0.44030 0.12350 0.34900
C 	C 	0.67020 0.87470 0.13010 -0.23800
N 	N 	0.69680 0.87420 0.13310 -0.20400
C 	C 	0.72600 0.83740 0.18780 0.02400
C 	C 	0.72040 0.81260 0.20900 -0.11400
C 	C 	0.73890 0.78520 0.20760 -0.02200
C 	C 	0.73700 0.81500 0.21740 0.07000
C 	C 	0.76850 0.80740 0.16380 -0.01900
C 	C 	0.75620 0.91990 0.14460 -0.18600
C 	C 	0.78130 0.92790 0.16480 0.07600
C 	C 	0.78420 0.95890 0.17600 0.28100
C 	C 	0.76210 0.98190 0.16710 -0.73200
C 	C 	0.73710 0.97380 0.14690 -0.27200
C 	C 	0.73420 0.94280 0.13570 -0.35500
C 	C 	0.75250 0.91960 0.13870 0.00500
C 	C 	0.77550 0.93130 0.15950 -0.14900
C 	C 	0.77770 0.96390 0.16500 -0.06200
C 	C 	0.75690 0.98470 0.14970 0.87300
C 	C 	0.73390 0.97290 0.12900 -0.04700
C 	C 	0.73170 0.94030 0.12350 0.34900
C 	C 	0.67020 0.37470 0.63010 -0.23700
N 	N 	0.69680 0.37420 0.63310 -0.20400
C 	C 	0.72600 0.33740 0.68780 0.02400
C 	C 	0.72040 0.31260 0.70900 -0.11400
C 	C 	0.73890 0.28520 0.70760 -0.02200
C 	C 	0.73700 0.31500 0.71740 0.07000
C 	C 	0.76850 0.30740 0.66380 -0.01900
C 	C 	0.75620 0.41990 0.64460 -0.18600
C 	C 	0.78130 0.42790 0.66480 0.07700
C 	C 	0.78420 0.45890 0.67600 0.27900
C 	C 	0.76210 0.48190 0.66710 -0.72000
C 	C 	0.73710 0.47380 0.64690 -0.26900
C 	C 	0.73420 0.44280 0.63570 -0.35200
C 	C 	0.75250 0.41960 0.63870 0.00500
C 	C 	0.77550 0.43130 0.65950 -0.15000
C 	C 	0.77770 0.46390 0.66500 -0.06700
C 	C 	0.75690 0.48470 0.64970 0.86000
C 	C 	0.73390 0.47290 0.62900 -0.04600
C 	C 	0.73170 0.44030 0.62350 0.34600
C 	C 	0.67020 0.87530 0.61990 -0.23700
N 	N 	0.69680 0.87580 0.61690 -0.20400
C 	C 	0.72600 0.91260 0.56220 0.02400
C 	C 	0.72040 0.93740 0.54100 -0.10700
C 	C 	0.73890 0.96480 0.54240 -0.02800
C 	C 	0.73700 0.93500 0.53260 0.06500
C 	C 	0.76850 0.94260 0.58620 -0.01700
C 	C 	0.75620 0.83010 0.60540 -0.18600
C 	C 	0.78130 0.82210 0.58520 0.07700
C 	C 	0.78420 0.79110 0.57400 0.28000
C 	C 	0.76210 0.76810 0.58290 -0.72100
C 	C 	0.73710 0.77620 0.60310 -0.27000
C 	C 	0.73420 0.80720 0.61430 -0.35200
C 	C 	0.75250 0.83040 0.61130 0.00500
C 	C 	0.77550 0.81870 0.59050 -0.15000
C 	C 	0.77770 0.78610 0.58500 -0.06700
C 	C 	0.75690 0.76530 0.60030 0.86200
C 	C 	0.73390 0.77710 0.62100 -0.04600
C 	C 	0.73170 0.80970 0.62650 0.34600
C 	C 	0.67020 0.37530 0.11990 -0.23800
N 	N 	0.69680 0.37580 0.11690 -0.20400
C 	C 	0.72600 0.41260 0.06220 0.02300
C 	C 	0.72040 0.43740 0.04100 -0.10300
C 	C 	0.73890 0.46480 0.04240 -0.02700
C 	C 	0.73700 0.43500 0.03260 0.05800
C 	C 	0.76850 0.44260 0.08620 -0.01900
C 	C 	0.75620 0.33010 0.10540 -0.18600
C 	C 	0.78130 0.32210 0.08520 0.07700
C 	C 	0.78420 0.29110 0.07400 0.27800
C 	C 	0.76210 0.26810 0.08290 -0.71400
C 	C 	0.73710 0.27620 0.10310 -0.26500
C 	C 	0.73420 0.30720 0.11430 -0.35000
C 	C 	0.75250 0.33040 0.11130 0.00400
C 	C 	0.77550 0.31870 0.09050 -0.15000
C 	C 	0.77770 0.28610 0.08500 -0.06800
C 	C 	0.75690 0.26530 0.10030 0.85200
C 	C 	0.73390 0.27710 0.12100 -0.04700
C 	C 	0.73170 0.30970 0.12650 0.34300
C 	C 	0.17020 0.87530 0.11990 -0.23800
N 	N 	0.19680 0.87580 0.11690 -0.20400
C 	C 	0.22600 0.91260 0.06220 0.02300
C 	C 	0.22040 0.93740 0.04100 -0.09700
C 	C 	0.23890 0.96480 0.04240 -0.03300
C 	C 	0.23700 0.93500 0.03260 0.05400
C 	C 	0.26850 0.94260 0.08620 -0.01600
C 	C 	0.25620 0.83010 0.10540 -0.18600
C 	C 	0.28130 0.82210 0.08520 0.07700
C 	C 	0.28420 0.79110 0.07400 0.27900
C 	C 	0.26210 0.76810 0.08290 -0.71500
C 	C 	0.23710 0.77620 0.10310 -0.26500
C 	C 	0.23420 0.80720 0.11430 -0.35000
C 	C 	0.25250 0.83040 0.11130 0.00400
C 	C 	0.27550 0.81870 0.09050 -0.15000
C 	C 	0.27770 0.78610 0.08500 -0.06800
C 	C 	0.25690 0.76530 0.10030 0.85300
C 	C 	0.23390 0.77710 0.12100 -0.04800
C 	C 	0.23170 0.80970 0.12650 0.34300
C 	C 	0.17020 0.37530 0.61990 -0.23700
N 	N 	0.19680 0.37580 0.61690 -0.20400
C 	C 	0.22600 0.41260 0.56220 0.02400
C 	C 	0.22040 0.43740 0.54100 -0.11300
C 	C 	0.23890 0.46480 0.54240 -0.02200
C 	C 	0.23700 0.43500 0.53260 0.06900
C 	C 	0.26850 0.44260 0.58620 -0.01900
C 	C 	0.25620 0.33010 0.60540 -0.18600
C 	C 	0.28130 0.32210 0.58520 0.07700
C 	C 	0.28420 0.29110 0.57400 0.28000
C 	C 	0.26210 0.26810 0.58290 -0.72200
C 	C 	0.23710 0.27620 0.60310 -0.27000
C 	C 	0.23420 0.30720 0.61430 -0.35200
C 	C 	0.25250 0.33040 0.61130 0.00500
C 	C 	0.27550 0.31870 0.59050 -0.15000
C 	C 	0.27770 0.28610 0.58500 -0.06700
C 	C 	0.25690 0.26530 0.60030 0.86200
C 	C 	0.23390 0.27710 0.62100 -0.04600
C 	C 	0.23170 0.30970 0.62650 0.34600
C 	C 	0.07980 0.37470 0.11990 -0.23900
N 	N 	0.05320 0.37420 0.11690 -0.20500
C 	C 	0.02400 0.33740 0.06220 0.02500
C 	C 	0.02960 0.31260 0.04100 -0.04000
C 	C 	0.01110 0.28520 0.04240 -0.08600
C 	C 	0.01300 0.31500 0.03260 0.00400
C 	C 	0.98150 0.30740 0.08620 -0.00500
C 	C 	0.99380 0.41990 0.10540 -0.18100
C 	C 	0.96870 0.42790 0.08520 0.07600
C 	C 	0.96580 0.45890 0.07400 0.25300
C 	C 	0.98790 0.48190 0.08290 -0.65000
C 	C 	0.01290 0.47380 0.10310 -0.23200
C 	C 	0.01580 0.44280 0.11430 -0.33200
C 	C 	0.99750 0.41960 0.11130 -0.00000
C 	C 	0.97450 0.43130 0.09050 -0.14300
C 	C 	0.97230 0.46390 0.08500 -0.06000
C 	C 	0.99310 0.48470 0.10030 0.77400
C 	C 	0.01610 0.47290 0.12100 -0.05600
C 	C 	0.01830 0.44030 0.12650 0.32000
C 	C 	0.07980 0.87470 0.61990 -0.23800
N 	N 	0.05320 0.87420 0.61690 -0.20500
C 	C 	0.02400 0.83740 0.56220 0.02600
C 	C 	0.02960 0.81260 0.54100 -0.04900
C 	C 	0.01110 0.78520 0.54240 -0.08100
C 	C 	0.01300 0.81500 0.53260 0.01500
C 	C 	0.98150 0.80740 0.58620 -0.00600
C 	C 	0.99380 0.91990 0.60540 -0.18100
C 	C 	0.96870 0.92790 0.58520 0.07400
C 	C 	0.96580 0.95890 0.57400 0.25200
C 	C 	0.98790 0.98190 0.58290 -0.66000
C 	C 	0.01290 0.97380 0.60310 -0.23700
C 	C 	0.01580 0.94280 0.61430 -0.33400
C 	C 	0.99750 0.91960 0.61130 0.00000
C 	C 	0.97450 0.93130 0.59050 -0.14100
C 	C 	0.97230 0.96390 0.58500 -0.05300
C 	C 	0.99310 0.98470 0.60030 0.78600
C 	C 	0.01610 0.97290 0.62100 -0.05400
C 	C 	0.01830 0.94030 0.62650 0.32300
C 	C 	0.57980 0.37470 0.61990 -0.23700
N 	N 	0.55320 0.37420 0.61690 -0.20400
C 	C 	0.52400 0.33740 0.56220 0.02400
C 	C 	0.52960 0.31260 0.54100 -0.11300
C 	C 	0.51110 0.28520 0.54240 -0.02200
C 	C 	0.51300 0.31500 0.53260 0.07000
C 	C 	0.48150 0.30740 0.58620 -0.01900
C 	C 	0.49380 0.41990 0.60540 -0.18600
C 	C 	0.46870 0.42790 0.58520 0.07700
C 	C 	0.46580 0.45890 0.57400 0.27900
C 	C 	0.48790 0.48190 0.58290 -0.72100
C 	C 	0.51290 0.47380 0.60310 -0.27000
C 	C 	0.51580 0.44280 0.61430 -0.35200
C 	C 	0.49750 0.41960 0.61130 0.00500
C 	C 	0.47450 0.43130 0.59050 -0.15000
C 	C 	0.47230 0.46390 0.58500 -0.06700
C 	C 	0.49310 0.48470 0.60030 0.86100
C 	C 	0.51610 0.47290 0.62100 -0.04600
C 	C 	0.51830 0.44030 0.62650 0.34600
C 	C 	0.57980 0.87470 0.11990 -0.23800
N 	N 	0.55320 0.87420 0.11690 -0.20400
C 	C 	0.52400 0.83740 0.06220 0.02300
C 	C 	0.52960 0.81260 0.04100 -0.10300
C 	C 	0.51110 0.78520 0.04240 -0.02700
C 	C 	0.51300 0.81500 0.03260 0.05800
C 	C 	0.48150 0.80740 0.08620 -0.01900
C 	C 	0.49380 0.91990 0.10540 -0.18600
C 	C 	0.46870 0.92790 0.08520 0.07600
C 	C 	0.46580 0.95890 0.07400 0.27500
C 	C 	0.48790 0.98190 0.08290 -0.71600
C 	C 	0.51290 0.97380 0.10310 -0.26700
C 	C 	0.51580 0.94280 0.11430 -0.34900
C 	C 	0.49750 0.91960 0.11130 0.00400
C 	C 	0.47450 0.93130 0.09050 -0.14800
C 	C 	0.47230 0.96390 0.08500 -0.06200
C 	C 	0.49310 0.98470 0.10030 0.85300
C 	C 	0.51610 0.97290 0.12100 -0.04600
C 	C 	0.51830 0.94030 0.12650 0.34300
C 	C 	0.57980 0.37530 0.13010 -0.23800
N 	N 	0.55320 0.37580 0.13310 -0.20400
C 	C 	0.52400 0.41260 0.18780 0.02400
C 	C 	0.52960 0.43740 0.20900 -0.11300
C 	C 	0.51110 0.46480 0.20760 -0.02200
C 	C 	0.51300 0.43500 0.21740 0.07000
C 	C 	0.48150 0.44260 0.16380 -0.01900
C 	C 	0.49380 0.33010 0.14460 -0.18700
C 	C 	0.46870 0.32210 0.16480 0.07700
C 	C 	0.46580 0.29110 0.17600 0.28300
C 	C 	0.48790 0.26810 0.16710 -0.73100
C 	C 	0.51290 0.27620 0.14690 -0.27200
C 	C 	0.51580 0.30720 0.13570 -0.35600
C 	C 	0.49750 0.33040 0.13870 0.00600
C 	C 	0.47450 0.31870 0.15950 -0.15000
C 	C 	0.47230 0.28610 0.16500 -0.06700
C 	C 	0.49310 0.26530 0.14970 0.87200
C 	C 	0.51610 0.27710 0.12900 -0.04800
C 	C 	0.51830 0.30970 0.12350 0.34900
C 	C 	0.57980 0.87530 0.63010 -0.23700
N 	N 	0.55320 0.87580 0.63310 -0.20400
C 	C 	0.52400 0.91260 0.68780 0.02400
C 	C 	0.52960 0.93740 0.70900 -0.10700
C 	C 	0.51110 0.96480 0.70760 -0.02800
C 	C 	0.51300 0.93500 0.71740 0.06500
C 	C 	0.48150 0.94260 0.66380 -0.01700
C 	C 	0.49380 0.83010 0.64460 -0.18600
C 	C 	0.46870 0.82210 0.66480 0.07700
C 	C 	0.46580 0.79110 0.67600 0.28000
C 	C 	0.48790 0.76810 0.66710 -0.72200
C 	C 	0.51290 0.77620 0.64690 -0.27000
C 	C 	0.51580 0.80720 0.63570 -0.35200
C 	C 	0.49750 0.83040 0.63870 0.00500
C 	C 	0.47450 0.81870 0.65950 -0.15000
C 	C 	0.47230 0.78610 0.66500 -0.06700
C 	C 	0.49310 0.76530 0.64970 0.86200
C 	C 	0.51610 0.77710 0.62900 -0.04600
C 	C 	0.51830 0.80970 0.62350 0.34600
C 	C 	0.07980 0.37530 0.63010 -0.23800
N 	N 	0.05320 0.37580 0.63310 -0.20500
C 	C 	0.02400 0.41260 0.68780 0.02600
C 	C 	0.02960 0.43740 0.70900 -0.04900
C 	C 	0.01110 0.46480 0.70760 -0.08100
C 	C 	0.01300 0.43500 0.71740 0.01500
C 	C 	0.98150 0.44260 0.66380 -0.00600
C 	C 	0.99380 0.33010 0.64460 -0.18100
C 	C 	0.96870 0.32210 0.66480 0.07600
C 	C 	0.96580 0.29110 0.67600 0.25500
C 	C 	0.98790 0.26810 0.66710 -0.65700
C 	C 	0.01290 0.27620 0.64690 -0.23600
C 	C 	0.01580 0.30720 0.63570 -0.33400
C 	C 	0.99750 0.33040 0.63870 0.00100
C 	C 	0.97450 0.31870 0.65950 -0.14200
C 	C 	0.97230 0.28610 0.66500 -0.05900
C 	C 	0.99310 0.26530 0.64970 0.78400
C 	C 	0.01610 0.27710 0.62900 -0.05500
C 	C 	0.01830 0.30970 0.62350 0.32300
C 	C 	0.07980 0.87530 0.13010 -0.23900
N 	N 	0.05320 0.87580 0.13310 -0.20500
C 	C 	0.02400 0.91260 0.18780 0.02600
C 	C 	0.02960 0.93740 0.20900 -0.04300
C 	C 	0.01110 0.96480 0.20760 -0.08600
C 	C 	0.01300 0.93500 0.21740 0.01100
C 	C 	0.98150 0.94260 0.16380 -0.00300
C 	C 	0.99380 0.83010 0.14460 -0.18200
C 	C 	0.96870 0.82210 0.16480 0.07600
C 	C 	0.96580 0.79110 0.17600 0.25900
C 	C 	0.98790 0.76810 0.16710 -0.66700
C 	C 	0.01290 0.77620 0.14690 -0.23800
C 	C 	0.01580 0.80720 0.13570 -0.33800
C 	C 	0.99750 0.83040 0.13870 0.00100
C 	C 	0.97450 0.81870 0.15950 -0.14300
C 	C 	0.97230 0.78610 0.16500 -0.06000
C 	C 	0.99310 0.76530 0.14970 0.79500
C 	C 	0.01610 0.77710 0.12900 -0.05700
C 	C 	0.01830 0.80970 0.12350 0.32600
Sn	Sn	0.62963 0.87963 -0.00000 1.24000
C 	C 	0.66520 0.91520 -0.00000 -0.31200
Sn	Sn	0.62963 0.37963 0.50000 1.24100
C 	C 	0.66520 0.41520 0.50000 -0.30800
Sn	Sn	0.12963 0.87963 0.50000 1.24100
C 	C 	0.16520 0.91520 0.50000 -0.30800
Sn	Sn	0.12963 0.37963 -0.00000 1.23900
C 	C 	0.16520 0.41520 -0.00000 -0.31300
Sn	Sn	0.62037 0.87037 0.50000 1.24100
C 	C 	0.58480 0.83480 0.50000 -0.30800
Sn	Sn	0.62037 0.37037 -0.00000 1.23900
C 	C 	0.58480 0.33480 -0.00000 -0.31300
Sn	Sn	0.12037 0.87037 -0.00000 1.23900
C 	C 	0.08480 0.83480 -0.00000 -0.31300
Sn	Sn	0.12037 0.37037 0.50000 1.24000
C 	C 	0.08480 0.33480 0.50000 -0.30800
Sn	Sn	0.12037 0.37963 0.25000 1.24000
C 	C 	0.08480 0.41520 0.25000 -0.30800
Sn	Sn	0.12037 0.87963 0.75000 1.24100
C 	C 	0.08480 0.91520 0.75000 -0.30800
Sn	Sn	0.62037 0.37963 0.75000 1.24100
C 	C 	0.58480 0.41520 0.75000 -0.30800
Sn	Sn	0.62037 0.87963 0.25000 1.24100
C 	C 	0.58480 0.91520 0.25000 -0.30800
Sn	Sn	0.12963 0.37037 0.75000 1.24000
C 	C 	0.16520 0.33480 0.75000 -0.30800
Sn	Sn	0.12963 0.87037 0.25000 1.24100
C 	C 	0.16520 0.83480 0.25000 -0.30800
Sn	Sn	0.62963 0.37037 0.25000 1.24100
C 	C 	0.66520 0.33480 0.25000 -0.30800
Sn	Sn	0.62963 0.87037 0.75000 1.24100
C 	C 	0.66520 0.83480 0.75000 -0.30800
Sn	Sn	0.00000 0.62963 0.87963 1.24000
C 	C 	0.00000 0.66520 0.91520 -0.31200
Sn	Sn	0.00000 0.12963 0.37963 1.23900
C 	C 	0.00000 0.16520 0.41520 -0.31300
Sn	Sn	0.50000 0.62963 0.37963 1.24100
C 	C 	0.50000 0.66520 0.41520 -0.30800
Sn	Sn	0.50000 0.12963 0.87963 1.24100
C 	C 	0.50000 0.16520 0.91520 -0.30800
Sn	Sn	0.50000 0.62037 0.87037 1.24100
C 	C 	0.50000 0.58480 0.83480 -0.30800
Sn	Sn	0.50000 0.12037 0.37037 1.24000
C 	C 	0.50000 0.08480 0.33480 -0.30800
Sn	Sn	0.00000 0.62037 0.37037 1.23900
C 	C 	0.00000 0.58480 0.33480 -0.31300
Sn	Sn	0.00000 0.12037 0.87037 1.23900
C 	C 	0.00000 0.08480 0.83480 -0.31300
Sn	Sn	0.25000 0.12037 0.37963 1.24000
C 	C 	0.25000 0.08480 0.41520 -0.30800
Sn	Sn	0.25000 0.62037 0.87963 1.24100
C 	C 	0.25000 0.58480 0.91520 -0.30800
Sn	Sn	0.75000 0.12037 0.87963 1.24100
C 	C 	0.75000 0.08480 0.91520 -0.30800
Sn	Sn	0.75000 0.62037 0.37963 1.24100
C 	C 	0.75000 0.58480 0.41520 -0.30800
Sn	Sn	0.75000 0.12963 0.37037 1.24000
C 	C 	0.75000 0.16520 0.33480 -0.30800
Sn	Sn	0.75000 0.62963 0.87037 1.24100
C 	C 	0.75000 0.66520 0.83480 -0.30800
Sn	Sn	0.25000 0.12963 0.87037 1.24100
C 	C 	0.25000 0.16520 0.83480 -0.30800
Sn	Sn	0.25000 0.62963 0.37037 1.24100
C 	C 	0.25000 0.66520 0.33480 -0.30800
Sn	Sn	0.87963 0.00000 0.62963 1.24000
C 	C 	0.91520 0.00000 0.66520 -0.31200
Sn	Sn	0.87963 0.50000 0.12963 1.24100
C 	C 	0.91520 0.50000 0.16520 -0.30800
Sn	Sn	0.37963 0.00000 0.12963 1.23900
C 	C 	0.41520 0.00000 0.16520 -0.31300
Sn	Sn	0.37963 0.50000 0.62963 1.24100
C 	C 	0.41520 0.50000 0.66520 -0.30800
Sn	Sn	0.87037 0.50000 0.62037 1.24100
C 	C 	0.83480 0.50000 0.58480 -0.30800
Sn	Sn	0.87037 0.00000 0.12037 1.23900
C 	C 	0.83480 0.00000 0.08480 -0.31300
Sn	Sn	0.37037 0.50000 0.12037 1.24000
C 	C 	0.33480 0.50000 0.08480 -0.30800
Sn	Sn	0.37037 0.00000 0.62037 1.23900
C 	C 	0.33480 0.00000 0.58480 -0.31300
Sn	Sn	0.37963 0.25000 0.12037 1.24000
C 	C 	0.41520 0.25000 0.08480 -0.30800
Sn	Sn	0.37963 0.75000 0.62037 1.24100
C 	C 	0.41520 0.75000 0.58480 -0.30800
Sn	Sn	0.87963 0.25000 0.62037 1.24100
C 	C 	0.91520 0.25000 0.58480 -0.30800
Sn	Sn	0.87963 0.75000 0.12037 1.24100
C 	C 	0.91520 0.75000 0.08480 -0.30800
Sn	Sn	0.37037 0.75000 0.12963 1.24000
C 	C 	0.33480 0.75000 0.16520 -0.30800
Sn	Sn	0.37037 0.25000 0.62963 1.24100
C 	C 	0.33480 0.25000 0.66520 -0.30800
Sn	Sn	0.87037 0.75000 0.62963 1.24100
C 	C 	0.83480 0.75000 0.66520 -0.30800
Sn	Sn	0.87037 0.25000 0.12963 1.24100
C 	C 	0.83480 0.25000 0.16520 -0.30800
Sn	Sn	0.37037 0.12037 -0.00000 1.23900
C 	C 	0.33480 0.08480 -0.00000 -0.31300
Sn	Sn	0.37037 0.62037 0.50000 1.24100
C 	C 	0.33480 0.58480 0.50000 -0.30800
Sn	Sn	0.87037 0.12037 0.50000 1.24100
C 	C 	0.83480 0.08480 0.50000 -0.30800
Sn	Sn	0.87037 0.62037 -0.00000 1.24000
C 	C 	0.83480 0.58480 -0.00000 -0.31300
Sn	Sn	0.37963 0.12963 0.50000 1.24000
C 	C 	0.41520 0.16520 0.50000 -0.30800
Sn	Sn	0.37963 0.62963 -0.00000 1.23900
C 	C 	0.41520 0.66520 -0.00000 -0.31300
Sn	Sn	0.87963 0.12963 -0.00000 1.23900
C 	C 	0.91520 0.16520 -0.00000 -0.31200
Sn	Sn	0.87963 0.62963 0.50000 1.24100
C 	C 	0.91520 0.66520 0.50000 -0.30800
Sn	Sn	0.87963 0.62037 0.75000 1.24100
C 	C 	0.91520 0.58480 0.75000 -0.30800
Sn	Sn	0.87963 0.12037 0.25000 1.24100
C 	C 	0.91520 0.08480 0.25000 -0.30800
Sn	Sn	0.37963 0.62037 0.25000 1.24100
C 	C 	0.41520 0.58480 0.25000 -0.30800
Sn	Sn	0.37963 0.12037 0.75000 1.24000
C 	C 	0.41520 0.08480 0.75000 -0.30800
Sn	Sn	0.87037 0.62963 0.25000 1.24100
C 	C 	0.83480 0.66520 0.25000 -0.30800
Sn	Sn	0.87037 0.12963 0.75000 1.24100
C 	C 	0.83480 0.16520 0.75000 -0.30800
Sn	Sn	0.37037 0.62963 0.75000 1.24100
C 	C 	0.33480 0.66520 0.75000 -0.30800
Sn	Sn	0.37037 0.12963 0.25000 1.24000
C 	C 	0.33480 0.16520 0.25000 -0.30800
Sn	Sn	0.00000 0.37037 0.12037 1.23900
C 	C 	-0.00000 0.33480 0.08480 -0.31300
Sn	Sn	0.00000 0.87037 0.62037 1.24000
C 	C 	0.00000 0.83480 0.58480 -0.31300
Sn	Sn	0.50000 0.37037 0.62037 1.24100
C 	C 	0.50000 0.33480 0.58480 -0.30800
Sn	Sn	0.50000 0.87037 0.12037 1.24100
C 	C 	0.50000 0.83480 0.08480 -0.30800
Sn	Sn	0.50000 0.37963 0.12963 1.24000
C 	C 	0.50000 0.41520 0.16520 -0.30800
Sn	Sn	0.50000 0.87963 0.62963 1.24100
C 	C 	0.50000 0.91520 0.66520 -0.30800
Sn	Sn	0.00000 0.37963 0.62963 1.23900
C 	C 	0.00000 0.41520 0.66520 -0.31300
Sn	Sn	0.00000 0.87963 0.12963 1.23900
C 	C 	0.00000 0.91520 0.16520 -0.31200
Sn	Sn	0.75000 0.87963 0.62037 1.24100
C 	C 	0.75000 0.91520 0.58480 -0.30800
Sn	Sn	0.75000 0.37963 0.12037 1.24000
C 	C 	0.75000 0.41520 0.08480 -0.30800
Sn	Sn	0.25000 0.87963 0.12037 1.24100
C 	C 	0.25000 0.91520 0.08480 -0.30800
Sn	Sn	0.25000 0.37963 0.62037 1.24100
C 	C 	0.25000 0.41520 0.58480 -0.30800
Sn	Sn	0.25000 0.87037 0.62963 1.24100
C 	C 	0.25000 0.83480 0.66520 -0.30800
Sn	Sn	0.25000 0.37037 0.12963 1.24000
C 	C 	0.25000 0.33480 0.16520 -0.30800
Sn	Sn	0.75000 0.87037 0.12963 1.24100
C 	C 	0.75000 0.83480 0.16520 -0.30800
Sn	Sn	0.75000 0.37037 0.62963 1.24100
C 	C 	0.75000 0.33480 0.66520 -0.30800
Sn	Sn	0.12037 0.00000 0.37037 1.23900
C 	C 	0.08480 0.00000 0.33480 -0.31300
Sn	Sn	0.12037 0.50000 0.87037 1.24100
C 	C 	0.08480 0.50000 0.83480 -0.30800
Sn	Sn	0.62037 0.00000 0.87037 1.24000
C 	C 	0.58480 0.00000 0.83480 -0.31300
Sn	Sn	0.62037 0.50000 0.37037 1.24100
C 	C 	0.58480 0.50000 0.33480 -0.30800
Sn	Sn	0.12963 0.50000 0.37963 1.24000
C 	C 	0.16520 0.50000 0.41520 -0.30800
Sn	Sn	0.12963 0.00000 0.87963 1.23900
C 	C 	0.16520 0.00000 0.91520 -0.31200
Sn	Sn	0.62963 0.50000 0.87963 1.24100
C 	C 	0.66520 0.50000 0.91520 -0.30800
Sn	Sn	0.62963 0.00000 0.37963 1.23900
C 	C 	0.66520 0.00000 0.41520 -0.31300
Sn	Sn	0.62037 0.75000 0.87963 1.24100
C 	C 	0.58480 0.75000 0.91520 -0.30800
Sn	Sn	0.62037 0.25000 0.37963 1.24100
C 	C 	0.58480 0.25000 0.41520 -0.30800
Sn	Sn	0.12037 0.75000 0.37963 1.24000
C 	C 	0.08480 0.75000 0.41520 -0.30800
Sn	Sn	0.12037 0.25000 0.87963 1.24100
C 	C 	0.08480 0.25000 0.91520 -0.30800
Sn	Sn	0.62963 0.25000 0.87037 1.24100
C 	C 	0.66520 0.25000 0.83480 -0.30800
Sn	Sn	0.62963 0.75000 0.37037 1.24100
C 	C 	0.66520 0.75000 0.33480 -0.30800
Sn	Sn	0.12963 0.25000 0.37037 1.24000
C 	C 	0.16520 0.25000 0.33480 -0.30800
Sn	Sn	0.12963 0.75000 0.87037 1.24100
C 	C 	0.16520 0.75000 0.83480 -0.30800
Ni	Ni	0.62500 0.87500 0.12500 1.03600
Ni	Ni	0.62500 0.37500 0.62500 1.03600
Ni	Ni	0.62500 0.87500 0.62500 1.03600
Ni	Ni	0.12500 0.37500 0.12500 1.03600
Ni	Ni	0.12500 0.37500 0.62500 1.03600
Ni	Ni	0.12500 0.87500 0.12500 1.03600
Ni	Ni	0.12500 0.62500 0.87500 1.03600
Ni	Ni	0.62500 0.62500 0.87500 1.03600
Ni	Ni	0.12500 0.12500 0.37500 1.03600
Ni	Ni	0.62500 0.12500 0.37500 1.03600
Ni	Ni	0.87500 0.12500 0.62500 1.03600
Ni	Ni	0.37500 0.62500 0.62500 1.03600
Ni	Ni	0.87500 0.62500 0.62500 1.03600
Ni	Ni	0.87500 0.12500 0.12500 1.03600
Ni	Ni	0.37500 0.12500 0.12500 1.03600
Ni	Ni	0.37500 0.62500 0.12500 1.03600
Ni	Ni	0.62500 0.87500 0.87500 1.03600
Ni	Ni	0.62500 0.37500 0.37500 1.03600
Ni	Ni	0.62500 0.87500 0.37500 1.03600
Ni	Ni	0.12500 0.37500 0.87500 1.03600
Ni	Ni	0.12500 0.37500 0.37500 1.03600
Ni	Ni	0.12500 0.87500 0.87500 1.03600
Ni	Ni	0.37500 0.37500 0.12500 1.03600
Ni	Ni	0.37500 0.87500 0.12500 1.03600
Ni	Ni	0.37500 0.37500 0.62500 1.03600
Ni	Ni	0.87500 0.37500 0.62500 1.03600
Ni	Ni	0.87500 0.87500 0.12500 1.03600
Ni	Ni	0.87500 0.87500 0.62500 1.03600
Ni	Ni	0.87500 0.12500 0.37500 1.03600
Ni	Ni	0.37500 0.12500 0.37500 1.03600
Ni	Ni	0.87500 0.62500 0.87500 1.03600
Ni	Ni	0.37500 0.62500 0.87500 1.03600
Ni	Ni	0.37500 0.12500 0.87500 1.03600
Ni	Ni	0.37500 0.62500 0.37500 1.03600
Ni	Ni	0.87500 0.62500 0.37500 1.03600
Ni	Ni	0.87500 0.12500 0.87500 1.03600
Ni	Ni	0.87500 0.37500 0.12500 1.03600
Ni	Ni	0.37500 0.87500 0.62500 1.03600
Ni	Ni	0.12500 0.87500 0.37500 1.03600
Ni	Ni	0.62500 0.37500 0.87500 1.03600
Ni	Ni	0.87500 0.62500 0.12500 1.03600
Ni	Ni	0.37500 0.12500 0.62500 1.03600
Ni	Ni	0.62500 0.12500 0.87500 1.03600
Ni	Ni	0.62500 0.62500 0.37500 1.03600
Ni	Ni	0.12500 0.62500 0.37500 1.03600
Ni	Ni	0.12500 0.12500 0.87500 1.03600
Ni	Ni	0.12500 0.87500 0.62500 1.03600
Ni	Ni	0.62500 0.37500 0.12500 1.03600
