data_crystal

_cell_length_a 26.86900
_cell_length_b 26.86900
_cell_length_c 26.86900
_cell_angle_alpha 90.00000
_cell_angle_beta  90.00000
_cell_angle_gamma 90.00000

_symmetry_space_group_name_	'P 1'
_symmetry_space_group_name_H-M	'P 1'

loop_
_symmetry_equiv_pos_as_xyz
  x,y,z

loop_
_atom_site_label
_atom_site_type_symbol
_atom_site_fract_x
_atom_site_fract_y
_atom_site_fract_z
_atom_site_charge
C 	C 	0.68221 0.24146 0.48630 -0.01100
C 	C 	0.64508 0.20516 0.48620 0.03600
C 	C 	0.59210 0.22620 0.46570 -0.00100
C 	C 	0.68221 0.74146 0.98630 0.21500
C 	C 	0.64508 0.70516 0.98620 0.18700
C 	C 	0.59210 0.72620 0.96570 -0.00200
C 	C 	0.18221 0.24146 0.98630 0.23000
C 	C 	0.14508 0.20516 0.98620 0.20100
C 	C 	0.09210 0.22620 0.96570 -0.00500
C 	C 	0.18221 0.74146 0.48630 -0.01000
C 	C 	0.14508 0.70516 0.48620 0.03800
C 	C 	0.09210 0.72620 0.46570 -0.00300
C 	C 	0.31779 0.75854 0.48630 -0.01100
C 	C 	0.35492 0.79484 0.48620 0.03600
C 	C 	0.40790 0.77380 0.46570 -0.00100
C 	C 	0.31779 0.25854 0.98630 0.22600
C 	C 	0.35492 0.29484 0.98620 0.19900
C 	C 	0.40790 0.27380 0.96570 -0.00300
C 	C 	0.81779 0.75854 0.98630 0.20700
C 	C 	0.85492 0.79484 0.98620 0.18500
C 	C 	0.90790 0.77380 0.96570 0.00300
C 	C 	0.81779 0.25854 0.48630 -0.01100
C 	C 	0.85492 0.29484 0.48620 0.03500
C 	C 	0.90790 0.27380 0.46570 0.00600
C 	C 	0.31779 0.24146 0.51370 -0.01000
C 	C 	0.35492 0.20516 0.51380 0.03400
C 	C 	0.40790 0.22620 0.53430 0.00000
C 	C 	0.31779 0.74146 0.01370 -0.21900
C 	C 	0.35492 0.70516 0.01380 -0.09000
C 	C 	0.40790 0.72620 0.03430 0.00500
C 	C 	0.81779 0.24146 0.01370 -0.21600
C 	C 	0.85492 0.20516 0.01380 -0.09200
C 	C 	0.90790 0.22620 0.03430 0.01300
C 	C 	0.81779 0.74146 0.51370 -0.01100
C 	C 	0.85492 0.70516 0.51380 0.03200
C 	C 	0.90790 0.72620 0.53430 0.00700
C 	C 	0.68221 0.75854 0.51370 -0.01200
C 	C 	0.64508 0.79484 0.51380 0.03300
C 	C 	0.59210 0.77380 0.53430 -0.00200
C 	C 	0.68221 0.25854 0.01370 -0.22200
C 	C 	0.64508 0.29484 0.01380 -0.09200
C 	C 	0.59210 0.27380 0.03430 0.00300
C 	C 	0.18221 0.75854 0.01370 -0.21900
C 	C 	0.14508 0.79484 0.01380 -0.09200
C 	C 	0.09210 0.77380 0.03430 0.00000
C 	C 	0.18221 0.25854 0.51370 -0.01100
C 	C 	0.14508 0.29484 0.51380 0.03500
C 	C 	0.09210 0.27380 0.53430 -0.00500
C 	C 	0.48630 0.68221 0.24146 -0.01000
C 	C 	0.48620 0.64508 0.20516 0.03700
C 	C 	0.46570 0.59210 0.22620 -0.00000
C 	C 	0.48630 0.18221 0.74146 -0.01000
C 	C 	0.48620 0.14508 0.70516 0.03800
C 	C 	0.46570 0.09210 0.72620 -0.00300
C 	C 	0.98630 0.68221 0.74146 0.21600
C 	C 	0.98620 0.64508 0.70516 0.18800
C 	C 	0.96570 0.59210 0.72620 -0.00200
C 	C 	0.98630 0.18221 0.24146 0.23000
C 	C 	0.98620 0.14508 0.20516 0.20100
C 	C 	0.96570 0.09210 0.22620 -0.00500
C 	C 	0.48630 0.31779 0.75854 -0.01100
C 	C 	0.48620 0.35492 0.79484 0.03600
C 	C 	0.46570 0.40790 0.77380 -0.00100
C 	C 	0.48630 0.81779 0.25854 -0.01100
C 	C 	0.48620 0.85492 0.29484 0.03500
C 	C 	0.46570 0.90790 0.27380 0.00600
C 	C 	0.98630 0.31779 0.25854 0.22600
C 	C 	0.98620 0.35492 0.29484 0.19900
C 	C 	0.96570 0.40790 0.27380 -0.00300
C 	C 	0.98630 0.81779 0.75854 0.20700
C 	C 	0.98620 0.85492 0.79484 0.18500
C 	C 	0.96570 0.90790 0.77380 0.00300
C 	C 	0.51370 0.31779 0.24146 -0.01000
C 	C 	0.51380 0.35492 0.20516 0.03400
C 	C 	0.53430 0.40790 0.22620 0.00000
C 	C 	0.51370 0.81779 0.74146 -0.01100
C 	C 	0.51380 0.85492 0.70516 0.03200
C 	C 	0.53430 0.90790 0.72620 0.00700
C 	C 	0.01370 0.31779 0.74146 -0.21900
C 	C 	0.01380 0.35492 0.70516 -0.09000
C 	C 	0.03430 0.40790 0.72620 0.00500
C 	C 	0.01370 0.81779 0.24146 -0.21600
C 	C 	0.01380 0.85492 0.20516 -0.09200
C 	C 	0.03430 0.90790 0.22620 0.01300
C 	C 	0.51370 0.68221 0.75854 -0.01200
C 	C 	0.51380 0.64508 0.79484 0.03300
C 	C 	0.53430 0.59210 0.77380 -0.00200
C 	C 	0.51370 0.18221 0.25854 -0.01100
C 	C 	0.51380 0.14508 0.29484 0.03500
C 	C 	0.53430 0.09210 0.27380 -0.00500
C 	C 	0.01370 0.68221 0.25854 -0.22200
C 	C 	0.01380 0.64508 0.29484 -0.09200
C 	C 	0.03430 0.59210 0.27380 0.00300
C 	C 	0.01370 0.18221 0.75854 -0.21900
C 	C 	0.01380 0.14508 0.79484 -0.09200
C 	C 	0.03430 0.09210 0.77380 0.00000
C 	C 	0.24146 0.48630 0.68221 -0.01000
C 	C 	0.20516 0.48620 0.64508 0.03700
C 	C 	0.22620 0.46570 0.59210 -0.00000
C 	C 	0.24146 0.98630 0.18221 0.23000
C 	C 	0.20516 0.98620 0.14508 0.20100
C 	C 	0.22620 0.96570 0.09210 -0.00500
C 	C 	0.74146 0.48630 0.18221 -0.01000
C 	C 	0.70516 0.48620 0.14508 0.03800
C 	C 	0.72620 0.46570 0.09210 -0.00300
C 	C 	0.74146 0.98630 0.68221 0.21600
C 	C 	0.70516 0.98620 0.64508 0.18800
C 	C 	0.72620 0.96570 0.59210 -0.00200
C 	C 	0.75854 0.48630 0.31779 -0.01100
C 	C 	0.79484 0.48620 0.35492 0.03600
C 	C 	0.77380 0.46570 0.40790 -0.00100
C 	C 	0.75854 0.98630 0.81779 0.20700
C 	C 	0.79484 0.98620 0.85492 0.18500
C 	C 	0.77380 0.96570 0.90790 0.00300
C 	C 	0.25854 0.48630 0.81779 -0.01100
C 	C 	0.29484 0.48620 0.85492 0.03500
C 	C 	0.27380 0.46570 0.90790 0.00600
C 	C 	0.25854 0.98630 0.31779 0.22600
C 	C 	0.29484 0.98620 0.35492 0.19900
C 	C 	0.27380 0.96570 0.40790 -0.00300
C 	C 	0.24146 0.51370 0.31779 -0.01000
C 	C 	0.20516 0.51380 0.35492 0.03400
C 	C 	0.22620 0.53430 0.40790 0.00000
C 	C 	0.24146 0.01370 0.81779 -0.21600
C 	C 	0.20516 0.01380 0.85492 -0.09200
C 	C 	0.22620 0.03430 0.90790 0.01300
C 	C 	0.74146 0.51370 0.81779 -0.01100
C 	C 	0.70516 0.51380 0.85492 0.03200
C 	C 	0.72620 0.53430 0.90790 0.00700
C 	C 	0.74146 0.01370 0.31779 -0.21900
C 	C 	0.70516 0.01380 0.35492 -0.09000
C 	C 	0.72620 0.03430 0.40790 0.00500
C 	C 	0.75854 0.51370 0.68221 -0.01200
C 	C 	0.79484 0.51380 0.64508 0.03300
C 	C 	0.77380 0.53430 0.59210 -0.00200
C 	C 	0.75854 0.01370 0.18221 -0.21900
C 	C 	0.79484 0.01380 0.14508 -0.09200
C 	C 	0.77380 0.03430 0.09210 0.00000
C 	C 	0.25854 0.51370 0.18221 -0.01100
C 	C 	0.29484 0.51380 0.14508 0.03500
C 	C 	0.27380 0.53430 0.09210 -0.00500
C 	C 	0.25854 0.01370 0.68221 -0.22200
C 	C 	0.29484 0.01380 0.64508 -0.09200
C 	C 	0.27380 0.03430 0.59210 0.00300
C 	C 	0.24146 0.68221 0.51370 -0.01100
C 	C 	0.20516 0.64508 0.51380 0.03400
C 	C 	0.22620 0.59210 0.53430 -0.00000
C 	C 	0.24146 0.18221 0.01370 -0.22700
C 	C 	0.20516 0.14508 0.01380 -0.09300
C 	C 	0.22620 0.09210 0.03430 0.00200
C 	C 	0.74146 0.68221 0.01370 -0.21700
C 	C 	0.70516 0.64508 0.01380 -0.08700
C 	C 	0.72620 0.59210 0.03430 0.00400
C 	C 	0.74146 0.18221 0.51370 -0.01100
C 	C 	0.70516 0.14508 0.51380 0.03500
C 	C 	0.72620 0.09210 0.53430 -0.00300
C 	C 	0.75854 0.31779 0.51370 -0.01100
C 	C 	0.79484 0.35492 0.51380 0.03300
C 	C 	0.77380 0.40790 0.53430 -0.00100
C 	C 	0.75854 0.81779 0.01370 -0.20800
C 	C 	0.79484 0.85492 0.01380 -0.09100
C 	C 	0.77380 0.90790 0.03430 0.01100
C 	C 	0.25854 0.31779 0.01370 -0.22400
C 	C 	0.29484 0.35492 0.01380 -0.09600
C 	C 	0.27380 0.40790 0.03430 0.00400
C 	C 	0.25854 0.81779 0.51370 -0.01100
C 	C 	0.29484 0.85492 0.51380 0.03200
C 	C 	0.27380 0.90790 0.53430 0.00600
C 	C 	0.24146 0.31779 0.48630 -0.00900
C 	C 	0.20516 0.35492 0.48620 0.03700
C 	C 	0.22620 0.40790 0.46570 0.00000
C 	C 	0.24146 0.81779 0.98630 0.21800
C 	C 	0.20516 0.85492 0.98620 0.19000
C 	C 	0.22620 0.90790 0.96570 0.00500
C 	C 	0.74146 0.31779 0.98630 0.22000
C 	C 	0.70516 0.35492 0.98620 0.19200
C 	C 	0.72620 0.40790 0.96570 -0.00200
C 	C 	0.74146 0.81779 0.48630 -0.01100
C 	C 	0.70516 0.85492 0.48620 0.03400
C 	C 	0.72620 0.90790 0.46570 0.00700
C 	C 	0.75854 0.68221 0.48630 -0.01100
C 	C 	0.79484 0.64508 0.48620 0.03600
C 	C 	0.77380 0.59210 0.46570 -0.00200
C 	C 	0.75854 0.18221 0.98630 0.21900
C 	C 	0.79484 0.14508 0.98620 0.19500
C 	C 	0.77380 0.09210 0.96570 -0.00700
C 	C 	0.25854 0.68221 0.98630 0.22200
C 	C 	0.29484 0.64508 0.98620 0.19500
C 	C 	0.27380 0.59210 0.96570 -0.00400
C 	C 	0.25854 0.18221 0.48630 -0.01000
C 	C 	0.29484 0.14508 0.48620 0.03900
C 	C 	0.27380 0.09210 0.46570 -0.00500
C 	C 	0.68221 0.48630 0.75854 -0.01100
C 	C 	0.64508 0.48620 0.79484 0.03600
C 	C 	0.59210 0.46570 0.77380 -0.00200
C 	C 	0.68221 0.98630 0.25854 0.22200
C 	C 	0.64508 0.98620 0.29484 0.19500
C 	C 	0.59210 0.96570 0.27380 -0.00400
C 	C 	0.18221 0.48630 0.25854 -0.01000
C 	C 	0.14508 0.48620 0.29484 0.03900
C 	C 	0.09210 0.46570 0.27380 -0.00500
C 	C 	0.18221 0.98630 0.75854 0.21900
C 	C 	0.14508 0.98620 0.79484 0.19500
C 	C 	0.09210 0.96570 0.77380 -0.00700
C 	C 	0.31779 0.48630 0.24146 -0.00900
C 	C 	0.35492 0.48620 0.20516 0.03700
C 	C 	0.40790 0.46570 0.22620 0.00000
C 	C 	0.31779 0.98630 0.74146 0.22000
C 	C 	0.35492 0.98620 0.70516 0.19200
C 	C 	0.40790 0.96570 0.72620 -0.00200
C 	C 	0.81779 0.48630 0.74146 -0.01100
C 	C 	0.85492 0.48620 0.70516 0.03400
C 	C 	0.90790 0.46570 0.72620 0.00700
C 	C 	0.81779 0.98630 0.24146 0.21800
C 	C 	0.85492 0.98620 0.20516 0.19000
C 	C 	0.90790 0.96570 0.22620 0.00500
C 	C 	0.31779 0.51370 0.75854 -0.01100
C 	C 	0.35492 0.51380 0.79484 0.03300
C 	C 	0.40790 0.53430 0.77380 -0.00100
C 	C 	0.31779 0.01370 0.25854 -0.22400
C 	C 	0.35492 0.01380 0.29484 -0.09600
C 	C 	0.40790 0.03430 0.27380 0.00400
C 	C 	0.81779 0.51370 0.25854 -0.01100
C 	C 	0.85492 0.51380 0.29484 0.03200
C 	C 	0.90790 0.53430 0.27380 0.00600
C 	C 	0.81779 0.01370 0.75854 -0.20800
C 	C 	0.85492 0.01380 0.79484 -0.09100
C 	C 	0.90790 0.03430 0.77380 0.01100
C 	C 	0.68221 0.51370 0.24146 -0.01100
C 	C 	0.64508 0.51380 0.20516 0.03400
C 	C 	0.59210 0.53430 0.22620 -0.00000
C 	C 	0.68221 0.01370 0.74146 -0.21700
C 	C 	0.64508 0.01380 0.70516 -0.08700
C 	C 	0.59210 0.03430 0.72620 0.00400
C 	C 	0.18221 0.51370 0.74146 -0.01100
C 	C 	0.14508 0.51380 0.70516 0.03500
C 	C 	0.09210 0.53430 0.72620 -0.00300
C 	C 	0.18221 0.01370 0.24146 -0.22700
C 	C 	0.14508 0.01380 0.20516 -0.09300
C 	C 	0.09210 0.03430 0.22620 0.00200
C 	C 	0.48630 0.24146 0.31779 -0.00900
C 	C 	0.48620 0.20516 0.35492 0.03700
C 	C 	0.46570 0.22620 0.40790 0.00000
C 	C 	0.48630 0.74146 0.81779 -0.01100
C 	C 	0.48620 0.70516 0.85492 0.03400
C 	C 	0.46570 0.72620 0.90790 0.00700
C 	C 	0.98630 0.24146 0.81779 0.21800
C 	C 	0.98620 0.20516 0.85492 0.19000
C 	C 	0.96570 0.22620 0.90790 0.00500
C 	C 	0.98630 0.74146 0.31779 0.22000
C 	C 	0.98620 0.70516 0.35492 0.19200
C 	C 	0.96570 0.72620 0.40790 -0.00200
C 	C 	0.48630 0.75854 0.68221 -0.01100
C 	C 	0.48620 0.79484 0.64508 0.03600
C 	C 	0.46570 0.77380 0.59210 -0.00200
C 	C 	0.48630 0.25854 0.18221 -0.01000
C 	C 	0.48620 0.29484 0.14508 0.03900
C 	C 	0.46570 0.27380 0.09210 -0.00500
C 	C 	0.98630 0.75854 0.18221 0.21900
C 	C 	0.98620 0.79484 0.14508 0.19500
C 	C 	0.96570 0.77380 0.09210 -0.00700
C 	C 	0.98630 0.25854 0.68221 0.22200
C 	C 	0.98620 0.29484 0.64508 0.19500
C 	C 	0.96570 0.27380 0.59210 -0.00400
C 	C 	0.51370 0.24146 0.68221 -0.01100
C 	C 	0.51380 0.20516 0.64508 0.03400
C 	C 	0.53430 0.22620 0.59210 -0.00000
C 	C 	0.51370 0.74146 0.18221 -0.01100
C 	C 	0.51380 0.70516 0.14508 0.03500
C 	C 	0.53430 0.72620 0.09210 -0.00300
C 	C 	0.01370 0.24146 0.18221 -0.22700
C 	C 	0.01380 0.20516 0.14508 -0.09300
C 	C 	0.03430 0.22620 0.09210 0.00200
C 	C 	0.01370 0.74146 0.68221 -0.21700
C 	C 	0.01380 0.70516 0.64508 -0.08700
C 	C 	0.03430 0.72620 0.59210 0.00400
C 	C 	0.51370 0.75854 0.31779 -0.01100
C 	C 	0.51380 0.79484 0.35492 0.03300
C 	C 	0.53430 0.77380 0.40790 -0.00100
C 	C 	0.51370 0.25854 0.81779 -0.01100
C 	C 	0.51380 0.29484 0.85492 0.03200
C 	C 	0.53430 0.27380 0.90790 0.00600
C 	C 	0.01370 0.75854 0.81779 -0.20800
C 	C 	0.01380 0.79484 0.85492 -0.09100
C 	C 	0.03430 0.77380 0.90790 0.01100
C 	C 	0.01370 0.25854 0.31779 -0.22400
C 	C 	0.01380 0.29484 0.35492 -0.09600
C 	C 	0.03430 0.27380 0.40790 0.00400
C 	C 	0.31779 0.75854 0.51370 -0.01100
C 	C 	0.35492 0.79484 0.51380 0.03300
C 	C 	0.40790 0.77380 0.53430 -0.00100
C 	C 	0.31779 0.25854 0.01370 -0.22400
C 	C 	0.35492 0.29484 0.01380 -0.09600
C 	C 	0.40790 0.27380 0.03430 0.00400
C 	C 	0.81779 0.75854 0.01370 -0.20800
C 	C 	0.85492 0.79484 0.01380 -0.09100
C 	C 	0.90790 0.77380 0.03430 0.01100
C 	C 	0.81779 0.25854 0.51370 -0.01100
C 	C 	0.85492 0.29484 0.51380 0.03200
C 	C 	0.90790 0.27380 0.53430 0.00600
C 	C 	0.68221 0.24146 0.51370 -0.01100
C 	C 	0.64508 0.20516 0.51380 0.03400
C 	C 	0.59210 0.22620 0.53430 -0.00000
C 	C 	0.68221 0.74146 0.01370 -0.21700
C 	C 	0.64508 0.70516 0.01380 -0.08700
C 	C 	0.59210 0.72620 0.03430 0.00400
C 	C 	0.18221 0.24146 0.01370 -0.22700
C 	C 	0.14508 0.20516 0.01380 -0.09300
C 	C 	0.09210 0.22620 0.03430 0.00200
C 	C 	0.18221 0.74146 0.51370 -0.01100
C 	C 	0.14508 0.70516 0.51380 0.03500
C 	C 	0.09210 0.72620 0.53430 -0.00300
C 	C 	0.68221 0.75854 0.48630 -0.01100
C 	C 	0.64508 0.79484 0.48620 0.03600
C 	C 	0.59210 0.77380 0.46570 -0.00200
C 	C 	0.68221 0.25854 0.98630 0.22200
C 	C 	0.64508 0.29484 0.98620 0.19500
C 	C 	0.59210 0.27380 0.96570 -0.00400
C 	C 	0.18221 0.75854 0.98630 0.21900
C 	C 	0.14508 0.79484 0.98620 0.19500
C 	C 	0.09210 0.77380 0.96570 -0.00700
C 	C 	0.18221 0.25854 0.48630 -0.01000
C 	C 	0.14508 0.29484 0.48620 0.03900
C 	C 	0.09210 0.27380 0.46570 -0.00500
C 	C 	0.31779 0.24146 0.48630 -0.00900
C 	C 	0.35492 0.20516 0.48620 0.03700
C 	C 	0.40790 0.22620 0.46570 0.00000
C 	C 	0.31779 0.74146 0.98630 0.22000
C 	C 	0.35492 0.70516 0.98620 0.19200
C 	C 	0.40790 0.72620 0.96570 -0.00200
C 	C 	0.81779 0.24146 0.98630 0.21800
C 	C 	0.85492 0.20516 0.98620 0.19000
C 	C 	0.90790 0.22620 0.96570 0.00500
C 	C 	0.81779 0.74146 0.48630 -0.01100
C 	C 	0.85492 0.70516 0.48620 0.03400
C 	C 	0.90790 0.72620 0.46570 0.00700
C 	C 	0.51370 0.31779 0.75854 -0.01100
C 	C 	0.51380 0.35492 0.79484 0.03300
C 	C 	0.53430 0.40790 0.77380 -0.00100
C 	C 	0.51370 0.81779 0.25854 -0.01100
C 	C 	0.51380 0.85492 0.29484 0.03200
C 	C 	0.53430 0.90790 0.27380 0.00600
C 	C 	0.01370 0.31779 0.25854 -0.22400
C 	C 	0.01380 0.35492 0.29484 -0.09600
C 	C 	0.03430 0.40790 0.27380 0.00400
C 	C 	0.01370 0.81779 0.75854 -0.20800
C 	C 	0.01380 0.85492 0.79484 -0.09100
C 	C 	0.03430 0.90790 0.77380 0.01100
C 	C 	0.51370 0.68221 0.24146 -0.01100
C 	C 	0.51380 0.64508 0.20516 0.03400
C 	C 	0.53430 0.59210 0.22620 -0.00000
C 	C 	0.51370 0.18221 0.74146 -0.01100
C 	C 	0.51380 0.14508 0.70516 0.03500
C 	C 	0.53430 0.09210 0.72620 -0.00300
C 	C 	0.01370 0.68221 0.74146 -0.21700
C 	C 	0.01380 0.64508 0.70516 -0.08700
C 	C 	0.03430 0.59210 0.72620 0.00400
C 	C 	0.01370 0.18221 0.24146 -0.22700
C 	C 	0.01380 0.14508 0.20516 -0.09300
C 	C 	0.03430 0.09210 0.22620 0.00200
C 	C 	0.48630 0.68221 0.75854 -0.01100
C 	C 	0.48620 0.64508 0.79484 0.03600
C 	C 	0.46570 0.59210 0.77380 -0.00200
C 	C 	0.48630 0.18221 0.25854 -0.01000
C 	C 	0.48620 0.14508 0.29484 0.03900
C 	C 	0.46570 0.09210 0.27380 -0.00500
C 	C 	0.98630 0.68221 0.25854 0.22200
C 	C 	0.98620 0.64508 0.29484 0.19500
C 	C 	0.96570 0.59210 0.27380 -0.00400
C 	C 	0.98630 0.18221 0.75854 0.21900
C 	C 	0.98620 0.14508 0.79484 0.19500
C 	C 	0.96570 0.09210 0.77380 -0.00700
C 	C 	0.48630 0.31779 0.24146 -0.00900
C 	C 	0.48620 0.35492 0.20516 0.03700
C 	C 	0.46570 0.40790 0.22620 0.00000
C 	C 	0.48630 0.81779 0.74146 -0.01100
C 	C 	0.48620 0.85492 0.70516 0.03400
C 	C 	0.46570 0.90790 0.72620 0.00700
C 	C 	0.98630 0.31779 0.74146 0.22000
C 	C 	0.98620 0.35492 0.70516 0.19200
C 	C 	0.96570 0.40790 0.72620 -0.00200
C 	C 	0.98630 0.81779 0.24146 0.21800
C 	C 	0.98620 0.85492 0.20516 0.19000
C 	C 	0.96570 0.90790 0.22620 0.00500
C 	C 	0.75854 0.51370 0.31779 -0.01100
C 	C 	0.79484 0.51380 0.35492 0.03300
C 	C 	0.77380 0.53430 0.40790 -0.00100
C 	C 	0.75854 0.01370 0.81779 -0.20800
C 	C 	0.79484 0.01380 0.85492 -0.09100
C 	C 	0.77380 0.03430 0.90790 0.01100
C 	C 	0.25854 0.51370 0.81779 -0.01100
C 	C 	0.29484 0.51380 0.85492 0.03200
C 	C 	0.27380 0.53430 0.90790 0.00600
C 	C 	0.25854 0.01370 0.31779 -0.22400
C 	C 	0.29484 0.01380 0.35492 -0.09600
C 	C 	0.27380 0.03430 0.40790 0.00400
C 	C 	0.24146 0.51370 0.68221 -0.01100
C 	C 	0.20516 0.51380 0.64508 0.03400
C 	C 	0.22620 0.53430 0.59210 -0.00000
C 	C 	0.24146 0.01370 0.18221 -0.22700
C 	C 	0.20516 0.01380 0.14508 -0.09300
C 	C 	0.22620 0.03430 0.09210 0.00200
C 	C 	0.74146 0.51370 0.18221 -0.01100
C 	C 	0.70516 0.51380 0.14508 0.03500
C 	C 	0.72620 0.53430 0.09210 -0.00300
C 	C 	0.74146 0.01370 0.68221 -0.21700
C 	C 	0.70516 0.01380 0.64508 -0.08700
C 	C 	0.72620 0.03430 0.59210 0.00400
C 	C 	0.75854 0.48630 0.68221 -0.01100
C 	C 	0.79484 0.48620 0.64508 0.03600
C 	C 	0.77380 0.46570 0.59210 -0.00200
C 	C 	0.75854 0.98630 0.18221 0.21900
C 	C 	0.79484 0.98620 0.14508 0.19500
C 	C 	0.77380 0.96570 0.09210 -0.00700
C 	C 	0.25854 0.48630 0.18221 -0.01000
C 	C 	0.29484 0.48620 0.14508 0.03900
C 	C 	0.27380 0.46570 0.09210 -0.00500
C 	C 	0.25854 0.98630 0.68221 0.22200
C 	C 	0.29484 0.98620 0.64508 0.19500
C 	C 	0.27380 0.96570 0.59210 -0.00400
C 	C 	0.24146 0.48630 0.31779 -0.00900
C 	C 	0.20516 0.48620 0.35492 0.03700
C 	C 	0.22620 0.46570 0.40790 0.00000
C 	C 	0.24146 0.98630 0.81779 0.21800
C 	C 	0.20516 0.98620 0.85492 0.19000
C 	C 	0.22620 0.96570 0.90790 0.00500
C 	C 	0.74146 0.48630 0.81779 -0.01100
C 	C 	0.70516 0.48620 0.85492 0.03400
C 	C 	0.72620 0.46570 0.90790 0.00700
C 	C 	0.74146 0.98630 0.31779 0.22000
C 	C 	0.70516 0.98620 0.35492 0.19200
C 	C 	0.72620 0.96570 0.40790 -0.00200
C 	C 	0.75854 0.31779 0.48630 -0.01100
C 	C 	0.79484 0.35492 0.48620 0.03600
C 	C 	0.77380 0.40790 0.46570 -0.00100
C 	C 	0.75854 0.81779 0.98630 0.20700
C 	C 	0.79484 0.85492 0.98620 0.18500
C 	C 	0.77380 0.90790 0.96570 0.00300
C 	C 	0.25854 0.31779 0.98630 0.22600
C 	C 	0.29484 0.35492 0.98620 0.19900
C 	C 	0.27380 0.40790 0.96570 -0.00300
C 	C 	0.25854 0.81779 0.48630 -0.01100
C 	C 	0.29484 0.85492 0.48620 0.03500
C 	C 	0.27380 0.90790 0.46570 0.00600
C 	C 	0.24146 0.68221 0.48630 -0.01000
C 	C 	0.20516 0.64508 0.48620 0.03700
C 	C 	0.22620 0.59210 0.46570 -0.00000
C 	C 	0.24146 0.18221 0.98630 0.23000
C 	C 	0.20516 0.14508 0.98620 0.20100
C 	C 	0.22620 0.09210 0.96570 -0.00500
C 	C 	0.74146 0.68221 0.98630 0.21600
C 	C 	0.70516 0.64508 0.98620 0.18800
C 	C 	0.72620 0.59210 0.96570 -0.00200
C 	C 	0.74146 0.18221 0.48630 -0.01000
C 	C 	0.70516 0.14508 0.48620 0.03800
C 	C 	0.72620 0.09210 0.46570 -0.00300
C 	C 	0.75854 0.68221 0.51370 -0.01200
C 	C 	0.79484 0.64508 0.51380 0.03300
C 	C 	0.77380 0.59210 0.53430 -0.00200
C 	C 	0.75854 0.18221 0.01370 -0.21900
C 	C 	0.79484 0.14508 0.01380 -0.09200
C 	C 	0.77380 0.09210 0.03430 0.00000
C 	C 	0.25854 0.68221 0.01370 -0.22200
C 	C 	0.29484 0.64508 0.01380 -0.09200
C 	C 	0.27380 0.59210 0.03430 0.00300
C 	C 	0.25854 0.18221 0.51370 -0.01100
C 	C 	0.29484 0.14508 0.51380 0.03500
C 	C 	0.27380 0.09210 0.53430 -0.00500
C 	C 	0.24146 0.31779 0.51370 -0.01000
C 	C 	0.20516 0.35492 0.51380 0.03400
C 	C 	0.22620 0.40790 0.53430 0.00000
C 	C 	0.24146 0.81779 0.01370 -0.21600
C 	C 	0.20516 0.85492 0.01380 -0.09200
C 	C 	0.22620 0.90790 0.03430 0.01300
C 	C 	0.74146 0.31779 0.01370 -0.21900
C 	C 	0.70516 0.35492 0.01380 -0.09000
C 	C 	0.72620 0.40790 0.03430 0.00500
C 	C 	0.74146 0.81779 0.51370 -0.01100
C 	C 	0.70516 0.85492 0.51380 0.03200
C 	C 	0.72620 0.90790 0.53430 0.00700
C 	C 	0.31779 0.51370 0.24146 -0.01000
C 	C 	0.35492 0.51380 0.20516 0.03400
C 	C 	0.40790 0.53430 0.22620 0.00000
C 	C 	0.31779 0.01370 0.74146 -0.21900
C 	C 	0.35492 0.01380 0.70516 -0.09000
C 	C 	0.40790 0.03430 0.72620 0.00500
C 	C 	0.81779 0.51370 0.74146 -0.01100
C 	C 	0.85492 0.51380 0.70516 0.03200
C 	C 	0.90790 0.53430 0.72620 0.00700
C 	C 	0.81779 0.01370 0.24146 -0.21600
C 	C 	0.85492 0.01380 0.20516 -0.09200
C 	C 	0.90790 0.03430 0.22620 0.01300
C 	C 	0.68221 0.51370 0.75854 -0.01200
C 	C 	0.64508 0.51380 0.79484 0.03300
C 	C 	0.59210 0.53430 0.77380 -0.00200
C 	C 	0.68221 0.01370 0.25854 -0.22200
C 	C 	0.64508 0.01380 0.29484 -0.09200
C 	C 	0.59210 0.03430 0.27380 0.00300
C 	C 	0.18221 0.51370 0.25854 -0.01100
C 	C 	0.14508 0.51380 0.29484 0.03500
C 	C 	0.09210 0.53430 0.27380 -0.00500
C 	C 	0.18221 0.01370 0.75854 -0.21900
C 	C 	0.14508 0.01380 0.79484 -0.09200
C 	C 	0.09210 0.03430 0.77380 0.00000
C 	C 	0.68221 0.48630 0.24146 -0.01000
C 	C 	0.64508 0.48620 0.20516 0.03700
C 	C 	0.59210 0.46570 0.22620 -0.00000
C 	C 	0.68221 0.98630 0.74146 0.21600
C 	C 	0.64508 0.98620 0.70516 0.18800
C 	C 	0.59210 0.96570 0.72620 -0.00200
C 	C 	0.18221 0.48630 0.74146 -0.01000
C 	C 	0.14508 0.48620 0.70516 0.03800
C 	C 	0.09210 0.46570 0.72620 -0.00300
C 	C 	0.18221 0.98630 0.24146 0.23000
C 	C 	0.14508 0.98620 0.20516 0.20100
C 	C 	0.09210 0.96570 0.22620 -0.00500
C 	C 	0.31779 0.48630 0.75854 -0.01100
C 	C 	0.35492 0.48620 0.79484 0.03600
C 	C 	0.40790 0.46570 0.77380 -0.00100
C 	C 	0.31779 0.98630 0.25854 0.22600
C 	C 	0.35492 0.98620 0.29484 0.19900
C 	C 	0.40790 0.96570 0.27380 -0.00300
C 	C 	0.81779 0.48630 0.25854 -0.01100
C 	C 	0.85492 0.48620 0.29484 0.03500
C 	C 	0.90790 0.46570 0.27380 0.00600
C 	C 	0.81779 0.98630 0.75854 0.20700
C 	C 	0.85492 0.98620 0.79484 0.18500
C 	C 	0.90790 0.96570 0.77380 0.00300
C 	C 	0.51370 0.75854 0.68221 -0.01200
C 	C 	0.51380 0.79484 0.64508 0.03300
C 	C 	0.53430 0.77380 0.59210 -0.00200
C 	C 	0.51370 0.25854 0.18221 -0.01100
C 	C 	0.51380 0.29484 0.14508 0.03500
C 	C 	0.53430 0.27380 0.09210 -0.00500
C 	C 	0.01370 0.75854 0.18221 -0.21900
C 	C 	0.01380 0.79484 0.14508 -0.09200
C 	C 	0.03430 0.77380 0.09210 0.00000
C 	C 	0.01370 0.25854 0.68221 -0.22200
C 	C 	0.01380 0.29484 0.64508 -0.09200
C 	C 	0.03430 0.27380 0.59210 0.00300
C 	C 	0.51370 0.24146 0.31779 -0.01000
C 	C 	0.51380 0.20516 0.35492 0.03400
C 	C 	0.53430 0.22620 0.40790 0.00000
C 	C 	0.51370 0.74146 0.81779 -0.01100
C 	C 	0.51380 0.70516 0.85492 0.03200
C 	C 	0.53430 0.72620 0.90790 0.00700
C 	C 	0.01370 0.24146 0.81779 -0.21600
C 	C 	0.01380 0.20516 0.85492 -0.09200
C 	C 	0.03430 0.22620 0.90790 0.01300
C 	C 	0.01370 0.74146 0.31779 -0.21900
C 	C 	0.01380 0.70516 0.35492 -0.09000
C 	C 	0.03430 0.72620 0.40790 0.00500
C 	C 	0.48630 0.75854 0.31779 -0.01100
C 	C 	0.48620 0.79484 0.35492 0.03600
C 	C 	0.46570 0.77380 0.40790 -0.00100
C 	C 	0.48630 0.25854 0.81779 -0.01100
C 	C 	0.48620 0.29484 0.85492 0.03500
C 	C 	0.46570 0.27380 0.90790 0.00600
C 	C 	0.98630 0.75854 0.81779 0.20700
C 	C 	0.98620 0.79484 0.85492 0.18500
C 	C 	0.96570 0.77380 0.90790 0.00300
C 	C 	0.98630 0.25854 0.31779 0.22600
C 	C 	0.98620 0.29484 0.35492 0.19900
C 	C 	0.96570 0.27380 0.40790 -0.00300
C 	C 	0.48630 0.24146 0.68221 -0.01000
C 	C 	0.48620 0.20516 0.64508 0.03700
C 	C 	0.46570 0.22620 0.59210 -0.00000
C 	C 	0.48630 0.74146 0.18221 -0.01000
C 	C 	0.48620 0.70516 0.14508 0.03800
C 	C 	0.46570 0.72620 0.09210 -0.00300
C 	C 	0.98630 0.24146 0.18221 0.23000
C 	C 	0.98620 0.20516 0.14508 0.20100
C 	C 	0.96570 0.22620 0.09210 -0.00500
C 	C 	0.98630 0.74146 0.68221 0.21600
C 	C 	0.98620 0.70516 0.64508 0.18800
C 	C 	0.96570 0.72620 0.59210 -0.00200
Zr	Zr	0.50000 0.09204 0.50000 3.24300
Zr	Zr	0.50000 0.59204 -0.00000 3.23700
Zr	Zr	-0.00000 0.09204 -0.00000 3.23300
Zr	Zr	0.00000 0.59204 0.50000 3.23700
Zr	Zr	0.50000 0.90796 0.50000 3.24100
Zr	Zr	0.50000 0.40796 -0.00000 3.23700
Zr	Zr	-0.00000 0.90796 -0.00000 3.23100
Zr	Zr	0.00000 0.40796 0.50000 3.23700
Zr	Zr	0.50000 0.50000 0.09204 3.24300
Zr	Zr	0.50000 0.00000 0.59204 3.23700
Zr	Zr	0.00000 0.50000 0.59204 3.23700
Zr	Zr	-0.00000 0.00000 0.09204 3.23300
Zr	Zr	0.50000 0.50000 0.90796 3.24100
Zr	Zr	0.50000 0.00000 0.40796 3.23700
Zr	Zr	0.00000 0.50000 0.40796 3.23700
Zr	Zr	0.00000 0.00000 0.90796 3.23100
Zr	Zr	0.09204 0.50000 0.50000 3.24300
Zr	Zr	0.09204 0.00000 -0.00000 3.23300
Zr	Zr	0.59204 0.50000 -0.00000 3.23700
Zr	Zr	0.59204 0.00000 0.50000 3.23700
Zr	Zr	0.90796 0.50000 0.50000 3.24100
Zr	Zr	0.90796 0.00000 -0.00000 3.23100
Zr	Zr	0.40796 0.50000 -0.00000 3.23700
Zr	Zr	0.40796 0.00000 0.50000 3.23700
O 	O 	0.57236 0.13171 0.50000 -0.68200
O 	O 	0.57236 0.63171 -0.00000 -0.70800
O 	O 	0.07236 0.13171 -0.00000 -0.71300
O 	O 	0.07236 0.63171 0.50000 -0.68400
O 	O 	0.42764 0.86829 0.50000 -0.67900
O 	O 	0.42764 0.36829 -0.00000 -0.70800
O 	O 	0.92764 0.86829 -0.00000 -0.68500
O 	O 	0.92764 0.36829 0.50000 -0.66100
O 	O 	0.42764 0.13171 0.50000 -0.68200
O 	O 	0.42764 0.63171 -0.00000 -0.70800
O 	O 	0.92764 0.13171 -0.00000 -0.68800
O 	O 	0.92764 0.63171 0.50000 -0.66200
O 	O 	0.57236 0.86829 0.50000 -0.67900
O 	O 	0.57236 0.36829 -0.00000 -0.70800
O 	O 	0.07236 0.86829 -0.00000 -0.70800
O 	O 	0.07236 0.36829 0.50000 -0.68400
O 	O 	0.50000 0.57236 0.13171 -0.68200
O 	O 	0.50000 0.07236 0.63171 -0.68400
O 	O 	-0.00000 0.57236 0.63171 -0.70800
O 	O 	0.00000 0.07236 0.13171 -0.71300
O 	O 	0.50000 0.42764 0.86829 -0.67900
O 	O 	0.50000 0.92764 0.36829 -0.66100
O 	O 	-0.00000 0.42764 0.36829 -0.70800
O 	O 	0.00000 0.92764 0.86829 -0.68500
O 	O 	0.50000 0.42764 0.13171 -0.68200
O 	O 	0.50000 0.92764 0.63171 -0.66200
O 	O 	-0.00000 0.42764 0.63171 -0.70800
O 	O 	-0.00000 0.92764 0.13171 -0.68800
O 	O 	0.50000 0.57236 0.86829 -0.67900
O 	O 	0.50000 0.07236 0.36829 -0.68400
O 	O 	0.00000 0.57236 0.36829 -0.70800
O 	O 	0.00000 0.07236 0.86829 -0.70800
O 	O 	0.13171 0.50000 0.57236 -0.68200
O 	O 	0.13171 0.00000 0.07236 -0.71300
O 	O 	0.63171 0.50000 0.07236 -0.68400
O 	O 	0.63171 0.00000 0.57236 -0.70800
O 	O 	0.86829 0.50000 0.42764 -0.67900
O 	O 	0.86829 0.00000 0.92764 -0.68500
O 	O 	0.36829 0.50000 0.92764 -0.66100
O 	O 	0.36829 -0.00000 0.42764 -0.70800
O 	O 	0.13171 0.50000 0.42764 -0.68200
O 	O 	0.13171 0.00000 0.92764 -0.68800
O 	O 	0.63171 0.50000 0.92764 -0.66200
O 	O 	0.63171 -0.00000 0.42764 -0.70800
O 	O 	0.86829 0.50000 0.57236 -0.67900
O 	O 	0.86829 0.00000 0.07236 -0.70800
O 	O 	0.36829 0.50000 0.07236 -0.68400
O 	O 	0.36829 0.00000 0.57236 -0.70800
O 	O 	0.13171 0.57236 0.50000 -0.68200
O 	O 	0.13171 0.07236 -0.00000 -0.71300
O 	O 	0.63171 0.57236 -0.00000 -0.70800
O 	O 	0.63171 0.07236 0.50000 -0.68400
O 	O 	0.86829 0.42764 0.50000 -0.67900
O 	O 	0.86829 0.92764 -0.00000 -0.68500
O 	O 	0.36829 0.42764 -0.00000 -0.70800
O 	O 	0.36829 0.92764 0.50000 -0.66100
O 	O 	0.13171 0.42764 0.50000 -0.68200
O 	O 	0.13171 0.92764 -0.00000 -0.68800
O 	O 	0.63171 0.42764 -0.00000 -0.70800
O 	O 	0.63171 0.92764 0.50000 -0.66200
O 	O 	0.86829 0.57236 0.50000 -0.67900
O 	O 	0.86829 0.07236 -0.00000 -0.70800
O 	O 	0.36829 0.57236 -0.00000 -0.70800
O 	O 	0.36829 0.07236 0.50000 -0.68400
O 	O 	0.57236 0.50000 0.86829 -0.67900
O 	O 	0.57236 0.00000 0.36829 -0.70800
O 	O 	0.07236 0.50000 0.36829 -0.68400
O 	O 	0.07236 0.00000 0.86829 -0.70800
O 	O 	0.42764 0.50000 0.13171 -0.68200
O 	O 	0.42764 0.00000 0.63171 -0.70800
O 	O 	0.92764 0.50000 0.63171 -0.66200
O 	O 	0.92764 0.00000 0.13171 -0.68800
O 	O 	0.42764 0.50000 0.86829 -0.67900
O 	O 	0.42764 0.00000 0.36829 -0.70800
O 	O 	0.92764 0.50000 0.36829 -0.66100
O 	O 	0.92764 0.00000 0.86829 -0.68500
O 	O 	0.57236 0.50000 0.13171 -0.68200
O 	O 	0.57236 0.00000 0.63171 -0.70800
O 	O 	0.07236 0.50000 0.63171 -0.68400
O 	O 	0.07236 0.00000 0.13171 -0.71300
O 	O 	0.50000 0.13171 0.42764 -0.68200
O 	O 	0.50000 0.63171 0.92764 -0.66200
O 	O 	-0.00000 0.13171 0.92764 -0.68800
O 	O 	-0.00000 0.63171 0.42764 -0.70800
O 	O 	0.50000 0.86829 0.57236 -0.67900
O 	O 	0.50000 0.36829 0.07236 -0.68400
O 	O 	0.00000 0.86829 0.07236 -0.70800
O 	O 	-0.00000 0.36829 0.57236 -0.70800
O 	O 	0.50000 0.13171 0.57236 -0.68200
O 	O 	0.50000 0.63171 0.07236 -0.68400
O 	O 	0.00000 0.13171 0.07236 -0.71300
O 	O 	-0.00000 0.63171 0.57236 -0.70800
O 	O 	0.50000 0.86829 0.42764 -0.67900
O 	O 	0.50000 0.36829 0.92764 -0.66100
O 	O 	0.00000 0.86829 0.92764 -0.68500
O 	O 	-0.00000 0.36829 0.42764 -0.70800
C 	C 	0.61724 0.11724 0.50000 0.50600
C 	C 	0.65667 0.15667 0.50000 -0.16400
C 	C 	0.73039 0.23039 0.50000 0.01300
C 	C 	0.61724 0.61724 -0.00000 0.51700
C 	C 	0.65667 0.65667 -0.00000 -0.22900
C 	C 	0.73039 0.73039 -0.00000 -0.03400
C 	C 	0.38276 0.88276 0.50000 0.49900
C 	C 	0.34333 0.84333 0.50000 -0.16200
C 	C 	0.26961 0.76961 0.50000 0.01200
C 	C 	0.38276 0.38276 -0.00000 0.51800
C 	C 	0.34333 0.34333 -0.00000 -0.23100
C 	C 	0.26961 0.26961 -0.00000 -0.03500
C 	C 	0.38276 0.11724 0.50000 0.50600
C 	C 	0.34333 0.15667 0.50000 -0.16400
C 	C 	0.26961 0.23039 0.50000 0.01400
C 	C 	0.38276 0.61724 -0.00000 0.51800
C 	C 	0.34333 0.65667 -0.00000 -0.23000
C 	C 	0.26961 0.73039 -0.00000 -0.03400
C 	C 	0.61724 0.88276 0.50000 0.49900
C 	C 	0.65667 0.84333 0.50000 -0.16200
C 	C 	0.73039 0.76961 0.50000 0.01100
C 	C 	0.61724 0.38276 -0.00000 0.51800
C 	C 	0.65667 0.34333 -0.00000 -0.23000
C 	C 	0.73039 0.26961 -0.00000 -0.03400
C 	C 	0.50000 0.61724 0.11724 0.50600
C 	C 	0.50000 0.65667 0.15667 -0.16400
C 	C 	0.50000 0.73039 0.23039 0.01300
C 	C 	0.00000 0.61724 0.61724 0.51700
C 	C 	0.00000 0.65667 0.65667 -0.22900
C 	C 	0.00000 0.73039 0.73039 -0.03400
C 	C 	0.50000 0.38276 0.88276 0.49900
C 	C 	0.50000 0.34333 0.84333 -0.16200
C 	C 	0.50000 0.26961 0.76961 0.01200
C 	C 	0.00000 0.38276 0.38276 0.51800
C 	C 	0.00000 0.34333 0.34333 -0.23100
C 	C 	0.00000 0.26961 0.26961 -0.03500
C 	C 	0.50000 0.38276 0.11724 0.50600
C 	C 	0.50000 0.34333 0.15667 -0.16400
C 	C 	0.50000 0.26961 0.23039 0.01400
C 	C 	-0.00000 0.38276 0.61724 0.51800
C 	C 	-0.00000 0.34333 0.65667 -0.23000
C 	C 	-0.00000 0.26961 0.73039 -0.03400
C 	C 	0.50000 0.61724 0.88276 0.49900
C 	C 	0.50000 0.65667 0.84333 -0.16200
C 	C 	0.50000 0.73039 0.76961 0.01100
C 	C 	0.00000 0.61724 0.38276 0.51800
C 	C 	0.00000 0.65667 0.34333 -0.23000
C 	C 	-0.00000 0.73039 0.26961 -0.03400
C 	C 	0.11724 0.50000 0.61724 0.50600
C 	C 	0.15667 0.50000 0.65667 -0.16400
C 	C 	0.23039 0.50000 0.73039 0.01300
C 	C 	0.11724 0.00000 0.11724 0.52300
C 	C 	0.15667 -0.00000 0.15667 -0.23100
C 	C 	0.23039 0.00000 0.23039 -0.03400
C 	C 	0.88276 0.50000 0.38276 0.49900
C 	C 	0.84333 0.50000 0.34333 -0.16200
C 	C 	0.76961 0.50000 0.26961 0.01200
C 	C 	0.88276 0.00000 0.88276 0.50800
C 	C 	0.84333 0.00000 0.84333 -0.22100
C 	C 	0.76961 0.00000 0.76961 -0.03400
C 	C 	0.11724 0.50000 0.38276 0.50600
C 	C 	0.15667 0.50000 0.34333 -0.16400
C 	C 	0.23039 0.50000 0.26961 0.01400
C 	C 	0.11724 0.00000 0.88276 0.51500
C 	C 	0.15667 0.00000 0.84333 -0.22600
C 	C 	0.23039 0.00000 0.76961 -0.03400
C 	C 	0.88276 0.50000 0.61724 0.49900
C 	C 	0.84333 0.50000 0.65667 -0.16200
C 	C 	0.76961 0.50000 0.73039 0.01100
C 	C 	0.88276 0.00000 0.11724 0.51500
C 	C 	0.84333 -0.00000 0.15667 -0.22600
C 	C 	0.76961 0.00000 0.23039 -0.03400
C 	C 	0.11724 0.61724 0.50000 0.50600
C 	C 	0.15667 0.65667 0.50000 -0.16400
C 	C 	0.23039 0.73039 0.50000 0.01300
C 	C 	0.11724 0.11724 -0.00000 0.52300
C 	C 	0.15667 0.15667 -0.00000 -0.23100
C 	C 	0.23039 0.23039 -0.00000 -0.03400
C 	C 	0.88276 0.38276 0.50000 0.49900
C 	C 	0.84333 0.34333 0.50000 -0.16200
C 	C 	0.76961 0.26961 0.50000 0.01200
C 	C 	0.88276 0.88276 -0.00000 0.50800
C 	C 	0.84333 0.84333 -0.00000 -0.22100
C 	C 	0.76961 0.76961 -0.00000 -0.03400
C 	C 	0.11724 0.38276 0.50000 0.50600
C 	C 	0.15667 0.34333 0.50000 -0.16400
C 	C 	0.23039 0.26961 0.50000 0.01400
C 	C 	0.11724 0.88276 -0.00000 0.51500
C 	C 	0.15667 0.84333 -0.00000 -0.22600
C 	C 	0.23039 0.76961 -0.00000 -0.03400
C 	C 	0.88276 0.61724 0.50000 0.49900
C 	C 	0.84333 0.65667 0.50000 -0.16200
C 	C 	0.76961 0.73039 0.50000 0.01100
C 	C 	0.88276 0.11724 -0.00000 0.51500
C 	C 	0.84333 0.15667 -0.00000 -0.22600
C 	C 	0.76961 0.23039 -0.00000 -0.03400
C 	C 	0.61724 0.50000 0.88276 0.49900
C 	C 	0.65667 0.50000 0.84333 -0.16200
C 	C 	0.73039 0.50000 0.76961 0.01100
C 	C 	0.61724 0.00000 0.38276 0.51800
C 	C 	0.65667 0.00000 0.34333 -0.23000
C 	C 	0.73039 0.00000 0.26961 -0.03400
C 	C 	0.38276 0.50000 0.11724 0.50600
C 	C 	0.34333 0.50000 0.15667 -0.16400
C 	C 	0.26961 0.50000 0.23039 0.01400
C 	C 	0.38276 0.00000 0.61724 0.51800
C 	C 	0.34333 0.00000 0.65667 -0.23000
C 	C 	0.26961 0.00000 0.73039 -0.03400
C 	C 	0.38276 0.50000 0.88276 0.49900
C 	C 	0.34333 0.50000 0.84333 -0.16200
C 	C 	0.26961 0.50000 0.76961 0.01200
C 	C 	0.38276 0.00000 0.38276 0.51800
C 	C 	0.34333 0.00000 0.34333 -0.23100
C 	C 	0.26961 0.00000 0.26961 -0.03500
C 	C 	0.61724 0.50000 0.11724 0.50600
C 	C 	0.65667 0.50000 0.15667 -0.16400
C 	C 	0.73039 0.50000 0.23039 0.01300
C 	C 	0.61724 0.00000 0.61724 0.51700
C 	C 	0.65667 0.00000 0.65667 -0.22900
C 	C 	0.73039 0.00000 0.73039 -0.03400
C 	C 	0.50000 0.11724 0.38276 0.50600
C 	C 	0.50000 0.15667 0.34333 -0.16400
C 	C 	0.50000 0.23039 0.26961 0.01400
C 	C 	0.00000 0.11724 0.88276 0.51500
C 	C 	0.00000 0.15667 0.84333 -0.22600
C 	C 	-0.00000 0.23039 0.76961 -0.03400
C 	C 	0.50000 0.88276 0.61724 0.49900
C 	C 	0.50000 0.84333 0.65667 -0.16200
C 	C 	0.50000 0.76961 0.73039 0.01100
C 	C 	0.00000 0.88276 0.11724 0.51500
C 	C 	0.00000 0.84333 0.15667 -0.22600
C 	C 	-0.00000 0.76961 0.23039 -0.03400
C 	C 	0.50000 0.11724 0.61724 0.50600
C 	C 	0.50000 0.15667 0.65667 -0.16400
C 	C 	0.50000 0.23039 0.73039 0.01300
C 	C 	0.00000 0.11724 0.11724 0.52300
C 	C 	-0.00000 0.15667 0.15667 -0.23100
C 	C 	0.00000 0.23039 0.23039 -0.03400
C 	C 	0.50000 0.88276 0.38276 0.49900
C 	C 	0.50000 0.84333 0.34333 -0.16200
C 	C 	0.50000 0.76961 0.26961 0.01200
C 	C 	0.00000 0.88276 0.88276 0.50800
C 	C 	0.00000 0.84333 0.84333 -0.22100
C 	C 	0.00000 0.76961 0.76961 -0.03400
O 	O 	0.46135 0.03865 0.46135 -1.71400
O 	O 	0.44811 0.05189 0.44811 0.64700
O 	O 	0.53865 0.96135 0.46135 -1.62800
O 	O 	0.55189 0.94811 0.44811 0.59700
O 	O 	0.03865 0.46135 0.46135 -1.71400
O 	O 	0.05189 0.44811 0.44811 0.64700
O 	O 	0.53865 0.03865 0.53865 -1.71300
O 	O 	0.55189 0.05189 0.55189 0.64600
O 	O 	0.03865 0.03865 0.03865 -1.80700
O 	O 	0.05189 0.05189 0.05189 0.72100
O 	O 	0.46135 0.96135 0.53865 -1.62800
O 	O 	0.44811 0.94811 0.55189 0.59700
O 	O 	0.46135 0.46135 0.03865 -1.71400
O 	O 	0.44811 0.44811 0.05189 0.64700
O 	O 	0.46135 0.53865 0.96135 -1.62800
O 	O 	0.44811 0.55189 0.94811 0.59700
O 	O 	0.53865 0.53865 0.03865 -1.71300
O 	O 	0.55189 0.55189 0.05189 0.64600
O 	O 	0.53865 0.46135 0.96135 -1.62800
O 	O 	0.55189 0.44811 0.94811 0.59700
O 	O 	0.03865 0.96135 0.96135 -1.62900
O 	O 	0.05189 0.94811 0.94811 0.61500
O 	O 	0.96135 0.46135 0.53865 -1.62800
O 	O 	0.94811 0.44811 0.55189 0.59700
O 	O 	0.96135 0.96135 0.03865 -1.62900
O 	O 	0.94811 0.94811 0.05189 0.61500
O 	O 	0.03865 0.53865 0.53865 -1.71300
O 	O 	0.05189 0.55189 0.55189 0.64600
O 	O 	0.96135 0.53865 0.46135 -1.62800
O 	O 	0.94811 0.55189 0.44811 0.59700
O 	O 	0.96135 0.03865 0.96135 -1.62900
O 	O 	0.94811 0.05189 0.94811 0.61500
O 	O 	0.03865 0.46135 0.53865 -1.71300
O 	O 	0.05189 0.44811 0.55189 0.64700
O 	O 	0.03865 0.96135 0.03865 -1.71300
O 	O 	0.05189 0.94811 0.05189 0.66500
O 	O 	0.96135 0.53865 0.53865 -1.62800
O 	O 	0.94811 0.55189 0.55189 0.59600
O 	O 	0.96135 0.03865 0.03865 -1.71300
O 	O 	0.94811 0.05189 0.05189 0.66500
O 	O 	0.46135 0.53865 0.03865 -1.71300
O 	O 	0.44811 0.55189 0.05189 0.64700
O 	O 	0.46135 0.03865 0.53865 -1.71300
O 	O 	0.44811 0.05189 0.55189 0.64700
O 	O 	0.03865 0.53865 0.46135 -1.71300
O 	O 	0.05189 0.55189 0.44811 0.64700
O 	O 	0.03865 0.03865 0.96135 -1.71300
O 	O 	0.05189 0.05189 0.94811 0.66500
O 	O 	0.96135 0.46135 0.46135 -1.62800
O 	O 	0.94811 0.44811 0.44811 0.59700
O 	O 	0.96135 0.96135 0.96135 -1.55600
O 	O 	0.94811 0.94811 0.94811 0.57100
O 	O 	0.46135 0.46135 0.96135 -1.62800
O 	O 	0.44811 0.44811 0.94811 0.59700
O 	O 	0.53865 0.46135 0.03865 -1.71300
O 	O 	0.55189 0.44811 0.05189 0.64700
O 	O 	0.53865 0.53865 0.96135 -1.62800
O 	O 	0.55189 0.55189 0.94811 0.59600
O 	O 	0.53865 0.03865 0.46135 -1.71300
O 	O 	0.55189 0.05189 0.44811 0.64700
O 	O 	0.46135 0.96135 0.46135 -1.62800
O 	O 	0.44811 0.94811 0.44811 0.59700
O 	O 	0.53865 0.96135 0.53865 -1.62800
O 	O 	0.55189 0.94811 0.55189 0.59600
