data_crystal

_cell_length_a 32.96760
_cell_length_b 32.96760
_cell_length_c 26.69560
_cell_angle_alpha 90.00000
_cell_angle_beta  90.00000
_cell_angle_gamma 90.00000

_symmetry_space_group_name_	'P 1'
_symmetry_space_group_name_H-M	'P 1'

loop_
_symmetry_equiv_pos_as_xyz
  x,y,z

loop_
_atom_site_label
_atom_site_type_symbol
_atom_site_fract_x
_atom_site_fract_y
_atom_site_fract_z
_atom_site_charge
Cd	Cd	0.35814 0.37058 0.06276 1.25100
O 	O 	0.32035 0.37225 0.70810 -0.30900
O 	O 	0.45824 0.47416 0.27291 -0.31400
O 	O 	0.17762 0.19422 0.54541 -0.32600
O 	O 	0.33309 0.37127 0.14498 -0.33600
O 	O 	0.43907 0.46175 0.67499 -0.33100
O 	O 	0.43874 0.46219 0.34995 -0.33300
O 	O 	0.45709 0.47395 0.59804 -0.33800
O 	O 	0.28846 0.34340 0.64638 -0.35200
O 	O 	0.38810 0.40744 0.13107 -0.32400
O 	O 	0.21012 0.26122 0.29409 -0.33600
O 	O 	0.16701 0.21100 0.31057 -0.29200
O 	O 	0.15307 0.15884 0.48347 -0.33800
O 	O 	0.42713 0.36371 0.03440 -0.32000
O 	O 	0.40061 0.31608 0.08173 -0.34000
C 	C 	0.43433 0.45774 0.30442 0.27200
C 	C 	0.31499 0.36828 0.66180 0.30500
N 	N 	0.31667 0.36570 0.33032 -0.23600
H 	H 	0.29920 0.35140 0.31420 0.14700
O 	O 	0.62085 0.22783 0.26260 -0.33100
N 	N 	0.28990 0.33430 0.39670 -0.17900
C 	C 	0.36243 0.39288 0.15959 0.26700
N 	N 	0.35590 0.40470 0.48914 -0.22700
H 	H 	0.36920 0.42280 0.47280 0.14700
C 	C 	0.17476 0.18779 0.49940 0.27300
C 	C 	0.34386 0.38890 0.30000 0.16700
N 	N 	0.33690 0.38760 0.41032 -0.17400
C 	C 	0.19450 0.21525 0.46330 0.01100
C 	C 	0.43438 0.45761 0.62919 0.29800
C 	C 	0.39172 0.42940 0.55859 -0.09400
H 	H 	0.40900 0.44230 0.53610 0.09000
C 	C 	0.19396 0.23700 0.32440 0.25400
O 	O 	0.66929 0.19768 0.30334 -0.32600
C 	C 	0.37360 0.41380 0.31800 -0.14300
H 	H 	0.37620 0.41820 0.35230 0.11500
N 	N 	0.30840 0.35300 0.47998 -0.17200
C 	C 	0.42964 0.33040 0.05590 0.27000
C 	C 	0.40025 0.43283 0.28410 0.01900
C 	C 	0.20244 0.24006 0.37880 0.01500
C 	C 	0.35950 0.40660 0.54109 0.10300
C 	C 	0.39610 0.42648 0.23326 -0.07100
H 	H 	0.41400 0.43870 0.21100 0.09900
C 	C 	0.39864 0.43326 0.61146 -0.02600
C 	C 	0.33380 0.38630 0.57460 0.01700
C 	C 	0.63460 0.19610 0.28300 0.28200
C 	C 	0.36491 0.40156 0.21533 0.02500
C 	C 	0.34067 0.39046 0.62649 -0.06400
C 	C 	0.22080 0.24500 0.48000 -0.13900
H 	H 	0.22660 0.24680 0.51400 0.10200
C 	C 	0.31440 0.36300 0.38340 0.20700
C 	C 	0.18510 0.21249 0.41370 -0.06600
H 	H 	0.16730 0.19250 0.40260 0.09300
C 	C 	0.33917 0.38314 0.24890 -0.14600
H 	H 	0.31840 0.36660 0.23720 0.10500
C 	C 	0.33370 0.37760 0.45990 0.20500
C 	C 	0.23020 0.26900 0.39564 -0.13900
H 	H 	0.24300 0.28610 0.37280 0.11200
C 	C 	0.23880 0.27250 0.44670 0.16700
C 	C 	0.61000 0.15810 0.28220 -0.02800
C 	C 	0.46790 0.30630 0.05370 0.01600
C 	C 	0.49890 0.31830 0.02090 -0.07300
H 	H 	0.49600 0.34150 0.00160 0.09700
O 	O 	0.22060 0.17357 0.23500 -0.32100
O 	O 	0.24879 0.22485 0.19410 -0.33500
C 	C 	0.28840 0.32950 0.44660 0.20600
N 	N 	0.26410 0.30110 0.46785 -0.24700
H 	H 	0.26450 0.30080 0.50010 0.15100
C 	C 	0.37348 0.41471 0.64345 -0.01000
H 	H 	0.37760 0.41780 0.67770 0.07700
O 	O 	0.56770 0.34440 0.96930 -0.34400
N 	N 	0.52006 0.21880 0.11500 -0.24900
H 	H 	0.54520 0.21180 0.11580 0.14700
N 	N 	0.39346 0.18430 0.17110 -0.24500
H 	H 	0.38580 0.20220 0.14970 0.14600
N 	N 	0.50690 0.12670 0.24390 -0.23700
H 	H 	0.49040 0.10990 0.25770 0.14000
C 	C 	0.53990 0.26300 0.04830 -0.14600
H 	H 	0.56450 0.24920 0.04670 0.09700
C 	C 	0.54660 0.12540 0.26090 0.13700
C 	C 	0.43480 0.17770 0.17420 0.20200
N 	N 	0.45588 0.20170 0.14140 -0.17900
C 	C 	0.49500 0.19830 0.14580 0.20800
C 	C 	0.57060 0.15960 0.25960 -0.10800
H 	H 	0.56150 0.18320 0.24420 0.10200
C 	C 	0.47371 0.27310 0.08280 -0.13400
H 	H 	0.45280 0.26520 0.10400 0.10900
C 	C 	0.51030 0.24970 0.08260 0.16000
N 	N 	0.51452 0.17140 0.17700 -0.17500
C 	C 	0.36650 0.13370 0.22920 -0.17400
H 	H 	0.39150 0.12080 0.23270 0.11900
C 	C 	0.29070 0.17050 0.22000 0.03100
N 	N 	0.44960 0.15190 0.20620 -0.17900
C 	C 	0.32420 0.18420 0.19250 -0.15300
H 	H 	0.32140 0.20570 0.17030 0.10500
C 	C 	0.24995 0.19170 0.21370 0.26800
C 	C 	0.29600 0.13750 0.24920 -0.09100
H 	H 	0.27360 0.12630 0.26530 0.09600
C 	C 	0.62340 0.12290 0.30300 0.00300
H 	H 	0.64900 0.12220 0.31770 0.06100
C 	C 	0.36230 0.16530 0.19880 0.18200
C 	C 	0.53400 0.29540 0.01730 0.02600
C 	C 	0.60040 0.08870 0.30280 -0.09000
O 	O 	0.64910 0.04720 0.33840 -0.47000
C 	C 	0.61510 0.04920 0.32320 0.45100
O 	O 	0.59610 0.02010 0.32520 -0.45400
O 	O 	0.37320 0.06620 0.29580 -0.37400
C 	C 	0.56050 0.08950 0.28140 -0.08900
H 	H 	0.54430 0.06630 0.28130 0.07500
O 	O 	0.30980 0.07430 0.32100 -0.38200
C 	C 	0.49040 0.15190 0.20700 0.20100
C 	C 	0.33300 0.12020 0.25570 0.03700
C 	C 	0.33940 0.08560 0.29500 0.24600
O 	O 	0.59040 0.27890 0.96420 -0.25600
C 	C 	0.56680 0.30690 0.98070 0.24700
Cd	Cd	0.65089 0.98006 0.35313 1.19100
Cd	Cd	0.26714 0.32037 0.72294 1.25200
Cd	Cd	0.64185 0.62942 0.06276 1.25200
O 	O 	0.67965 0.62775 0.70810 -0.30800
O 	O 	0.54176 0.52584 0.27291 -0.31300
O 	O 	0.82238 0.80578 0.54541 -0.32500
O 	O 	0.66691 0.62873 0.14498 -0.33500
O 	O 	0.56093 0.53825 0.67499 -0.33000
O 	O 	0.56126 0.53781 0.34995 -0.33200
O 	O 	0.54291 0.52605 0.59804 -0.33700
O 	O 	0.71154 0.65660 0.64638 -0.35100
O 	O 	0.61190 0.59256 0.13107 -0.32300
O 	O 	0.78988 0.73878 0.29409 -0.33500
O 	O 	0.83299 0.78900 0.31057 -0.29000
O 	O 	0.84693 0.84116 0.48347 -0.33600
O 	O 	0.57287 0.63629 0.03440 -0.32000
O 	O 	0.59939 0.68392 0.08173 -0.34000
C 	C 	0.56567 0.54226 0.30442 0.27200
C 	C 	0.68501 0.63172 0.66180 0.30500
N 	N 	0.68333 0.63430 0.33032 -0.23600
H 	H 	0.70080 0.64860 0.31420 0.14700
O 	O 	0.37915 0.77217 0.26260 -0.33000
N 	N 	0.71010 0.66570 0.39670 -0.17900
C 	C 	0.63757 0.60712 0.15959 0.26700
N 	N 	0.64410 0.59530 0.48914 -0.22700
H 	H 	0.63080 0.57720 0.47280 0.14700
C 	C 	0.82524 0.81221 0.49940 0.27300
C 	C 	0.65614 0.61110 0.30000 0.16700
N 	N 	0.66310 0.61240 0.41032 -0.17400
C 	C 	0.80550 0.78475 0.46330 0.01200
C 	C 	0.56562 0.54239 0.62919 0.29800
C 	C 	0.60828 0.57060 0.55859 -0.09400
H 	H 	0.59100 0.55770 0.53610 0.09000
C 	C 	0.80604 0.76300 0.32440 0.25400
O 	O 	0.33071 0.80232 0.30334 -0.32600
C 	C 	0.62640 0.58620 0.31800 -0.14300
H 	H 	0.62380 0.58180 0.35230 0.11500
N 	N 	0.69160 0.64700 0.47998 -0.17200
C 	C 	0.57036 0.66960 0.05590 0.27000
C 	C 	0.59975 0.56717 0.28410 0.01900
C 	C 	0.79756 0.75994 0.37880 0.01600
C 	C 	0.64050 0.59340 0.54109 0.10300
C 	C 	0.60390 0.57352 0.23326 -0.07100
H 	H 	0.58600 0.56130 0.21100 0.09900
C 	C 	0.60136 0.56674 0.61146 -0.02600
C 	C 	0.66620 0.61370 0.57460 0.01800
C 	C 	0.36540 0.80390 0.28300 0.28200
C 	C 	0.63509 0.59844 0.21533 0.02500
C 	C 	0.65933 0.60954 0.62649 -0.06400
C 	C 	0.77920 0.75500 0.48000 -0.14000
H 	H 	0.77340 0.75320 0.51400 0.10200
C 	C 	0.68560 0.63700 0.38340 0.20700
C 	C 	0.81490 0.78751 0.41370 -0.06600
H 	H 	0.83270 0.80750 0.40260 0.09400
C 	C 	0.66083 0.61686 0.24890 -0.14600
H 	H 	0.68160 0.63340 0.23720 0.10500
C 	C 	0.66630 0.62240 0.45990 0.20600
C 	C 	0.76980 0.73100 0.39564 -0.14000
H 	H 	0.75700 0.71390 0.37280 0.11200
C 	C 	0.76120 0.72750 0.44670 0.16700
C 	C 	0.39000 0.84190 0.28220 -0.02600
C 	C 	0.53210 0.69370 0.05370 0.01600
C 	C 	0.50110 0.68170 0.02090 -0.07300
H 	H 	0.50400 0.65850 0.00160 0.09700
O 	O 	0.77940 0.82643 0.23500 -0.31900
O 	O 	0.75121 0.77515 0.19410 -0.33500
C 	C 	0.71160 0.67050 0.44660 0.20700
N 	N 	0.73590 0.69890 0.46785 -0.24700
H 	H 	0.73550 0.69920 0.50010 0.15100
C 	C 	0.62652 0.58529 0.64345 -0.01000
H 	H 	0.62240 0.58220 0.67770 0.07700
O 	O 	0.43230 0.65560 0.96930 -0.34400
N 	N 	0.47994 0.78120 0.11500 -0.24900
H 	H 	0.45480 0.78820 0.11580 0.14800
N 	N 	0.60654 0.81570 0.17110 -0.24500
H 	H 	0.61420 0.79780 0.14970 0.14700
N 	N 	0.49310 0.87330 0.24390 -0.23700
H 	H 	0.50960 0.89010 0.25770 0.14200
C 	C 	0.46010 0.73700 0.04830 -0.14600
H 	H 	0.43550 0.75080 0.04670 0.09700
C 	C 	0.45340 0.87460 0.26090 0.14000
C 	C 	0.56520 0.82230 0.17420 0.20300
N 	N 	0.54412 0.79830 0.14140 -0.17800
C 	C 	0.50500 0.80170 0.14580 0.20900
C 	C 	0.42940 0.84040 0.25960 -0.11000
H 	H 	0.43850 0.81680 0.24420 0.10300
C 	C 	0.52629 0.72690 0.08280 -0.13400
H 	H 	0.54720 0.73480 0.10400 0.10900
C 	C 	0.48970 0.75030 0.08260 0.16100
N 	N 	0.48548 0.82860 0.17700 -0.17500
C 	C 	0.63350 0.86630 0.22920 -0.17500
H 	H 	0.60850 0.87920 0.23270 0.12000
C 	C 	0.70930 0.82950 0.22000 0.03300
N 	N 	0.55040 0.84810 0.20620 -0.17900
C 	C 	0.67580 0.81580 0.19250 -0.15400
H 	H 	0.67860 0.79430 0.17030 0.10600
C 	C 	0.75005 0.80830 0.21370 0.26800
C 	C 	0.70400 0.86250 0.24920 -0.09200
H 	H 	0.72640 0.87370 0.26530 0.09800
C 	C 	0.37660 0.87710 0.30300 0.00000
H 	H 	0.35100 0.87780 0.31770 0.06300
C 	C 	0.63770 0.83470 0.19880 0.18300
C 	C 	0.46600 0.70460 0.01730 0.02700
C 	C 	0.39960 0.91130 0.30280 -0.08600
O 	O 	0.35090 0.95280 0.33840 -0.46400
C 	C 	0.38490 0.95080 0.32320 0.44700
O 	O 	0.40390 0.97990 0.32520 -0.44500
O 	O 	0.62680 0.93380 0.29580 -0.36900
C 	C 	0.43950 0.91050 0.28140 -0.09100
H 	H 	0.45570 0.93370 0.28130 0.07800
O 	O 	0.69020 0.92570 0.32100 -0.37800
C 	C 	0.50960 0.84810 0.20700 0.20200
C 	C 	0.66700 0.87980 0.25570 0.04000
C 	C 	0.66060 0.91440 0.29500 0.24500
O 	O 	0.40960 0.72110 0.96420 -0.25600
C 	C 	0.43320 0.69310 0.98070 0.24700
Cd	Cd	0.34911 0.01994 0.35313 1.18600
Cd	Cd	0.73286 0.67963 0.72294 1.25200
Cd	Cd	0.37058 0.64186 0.93724 1.25200
O 	O 	0.37225 0.67965 0.29190 -0.30800
O 	O 	0.47416 0.54176 0.72709 -0.31300
O 	O 	0.19422 0.82238 0.45459 -0.32500
O 	O 	0.37127 0.66691 0.85502 -0.33500
O 	O 	0.46175 0.56093 0.32501 -0.33000
O 	O 	0.46219 0.56126 0.65005 -0.33200
O 	O 	0.47395 0.54291 0.40196 -0.33700
O 	O 	0.34340 0.71154 0.35362 -0.35100
O 	O 	0.40744 0.61190 0.86893 -0.32300
O 	O 	0.26122 0.78988 0.70591 -0.33500
O 	O 	0.21100 0.83299 0.68943 -0.29100
O 	O 	0.15884 0.84693 0.51653 -0.33700
O 	O 	0.36371 0.57287 0.96560 -0.32000
O 	O 	0.31608 0.59939 0.91827 -0.34000
C 	C 	0.45774 0.56567 0.69558 0.27200
C 	C 	0.36828 0.68501 0.33820 0.30500
N 	N 	0.36570 0.68333 0.66968 -0.23600
H 	H 	0.35140 0.70080 0.68580 0.14700
O 	O 	0.22783 0.37915 0.73740 -0.33100
N 	N 	0.33430 0.71010 0.60330 -0.17900
C 	C 	0.39288 0.63757 0.84041 0.26700
N 	N 	0.40470 0.64410 0.51086 -0.22700
H 	H 	0.42280 0.63080 0.52720 0.14700
C 	C 	0.18779 0.82524 0.50060 0.27300
C 	C 	0.38890 0.65614 0.70000 0.16700
N 	N 	0.38760 0.66310 0.58968 -0.17400
C 	C 	0.21525 0.80550 0.53670 0.01100
C 	C 	0.45761 0.56562 0.37081 0.29800
C 	C 	0.42940 0.60828 0.44141 -0.09400
H 	H 	0.44230 0.59100 0.46390 0.09000
C 	C 	0.23700 0.80604 0.67560 0.25400
O 	O 	0.19768 0.33071 0.69666 -0.32600
C 	C 	0.41380 0.62640 0.68200 -0.14300
H 	H 	0.41820 0.62380 0.64770 0.11500
N 	N 	0.35300 0.69160 0.52002 -0.17200
C 	C 	0.33040 0.57036 0.94410 0.27000
C 	C 	0.43283 0.59975 0.71590 0.01900
C 	C 	0.24006 0.79756 0.62120 0.01600
C 	C 	0.40660 0.64050 0.45891 0.10300
C 	C 	0.42648 0.60390 0.76674 -0.07100
H 	H 	0.43870 0.58600 0.78900 0.09900
C 	C 	0.43326 0.60136 0.38854 -0.02600
C 	C 	0.38630 0.66620 0.42540 0.01800
C 	C 	0.19610 0.36540 0.71700 0.28200
C 	C 	0.40156 0.63509 0.78467 0.02500
C 	C 	0.39046 0.65933 0.37351 -0.06400
C 	C 	0.24500 0.77920 0.52000 -0.14000
H 	H 	0.24680 0.77340 0.48600 0.10200
C 	C 	0.36300 0.68560 0.61660 0.20700
C 	C 	0.21249 0.81490 0.58630 -0.06600
H 	H 	0.19250 0.83270 0.59740 0.09300
C 	C 	0.38314 0.66083 0.75110 -0.14600
H 	H 	0.36660 0.68160 0.76280 0.10500
C 	C 	0.37760 0.66630 0.54010 0.20600
C 	C 	0.26900 0.76980 0.60436 -0.14000
H 	H 	0.28610 0.75700 0.62720 0.11200
C 	C 	0.27250 0.76120 0.55330 0.16700
C 	C 	0.15810 0.39000 0.71780 -0.02800
C 	C 	0.30630 0.53210 0.94630 0.01600
C 	C 	0.31830 0.50110 0.97910 -0.07300
H 	H 	0.34150 0.50400 0.99840 0.09700
O 	O 	0.17357 0.77940 0.76500 -0.32000
O 	O 	0.22485 0.75121 0.80590 -0.33500
C 	C 	0.32950 0.71160 0.55340 0.20700
N 	N 	0.30110 0.73590 0.53215 -0.24700
H 	H 	0.30080 0.73550 0.49990 0.15100
C 	C 	0.41471 0.62652 0.35655 -0.01000
H 	H 	0.41780 0.62240 0.32230 0.07700
O 	O 	0.34440 0.43230 0.03070 -0.34400
N 	N 	0.21880 0.47994 0.88500 -0.24900
H 	H 	0.21180 0.45480 0.88420 0.14700
N 	N 	0.18430 0.60654 0.82890 -0.24500
H 	H 	0.20220 0.61420 0.85030 0.14600
N 	N 	0.12670 0.49310 0.75610 -0.23700
H 	H 	0.10990 0.50960 0.74230 0.14000
C 	C 	0.26300 0.46010 0.95170 -0.14600
H 	H 	0.24920 0.43550 0.95330 0.09700
C 	C 	0.12540 0.45340 0.73910 0.13700
C 	C 	0.17770 0.56520 0.82580 0.20200
N 	N 	0.20170 0.54412 0.85860 -0.17900
C 	C 	0.19830 0.50500 0.85420 0.20800
C 	C 	0.15960 0.42940 0.74040 -0.10800
H 	H 	0.18320 0.43850 0.75580 0.10200
C 	C 	0.27310 0.52629 0.91720 -0.13400
H 	H 	0.26520 0.54720 0.89600 0.10900
C 	C 	0.24970 0.48970 0.91740 0.16000
N 	N 	0.17140 0.48548 0.82300 -0.17500
C 	C 	0.13370 0.63350 0.77080 -0.17400
H 	H 	0.12080 0.60850 0.76730 0.11900
C 	C 	0.17050 0.70930 0.78000 0.03200
N 	N 	0.15190 0.55040 0.79380 -0.17900
C 	C 	0.18420 0.67580 0.80750 -0.15300
H 	H 	0.20570 0.67860 0.82970 0.10500
C 	C 	0.19170 0.75005 0.78630 0.26800
C 	C 	0.13750 0.70400 0.75080 -0.09100
H 	H 	0.12630 0.72640 0.73470 0.09600
C 	C 	0.12290 0.37660 0.69700 0.00300
H 	H 	0.12220 0.35100 0.68230 0.06100
C 	C 	0.16530 0.63770 0.80120 0.18200
C 	C 	0.29540 0.46600 0.98270 0.02600
C 	C 	0.08870 0.39960 0.69720 -0.09000
O 	O 	0.04720 0.35090 0.66160 -0.47100
C 	C 	0.04920 0.38490 0.67680 0.45100
O 	O 	0.02010 0.40390 0.67480 -0.45400
O 	O 	0.06620 0.62680 0.70420 -0.37400
C 	C 	0.08950 0.43950 0.71860 -0.08900
H 	H 	0.06630 0.45570 0.71870 0.07500
O 	O 	0.07430 0.69020 0.67900 -0.38200
C 	C 	0.15190 0.50960 0.79300 0.20100
C 	C 	0.12020 0.66700 0.74430 0.03700
C 	C 	0.08560 0.66060 0.70500 0.24600
O 	O 	0.27890 0.40960 0.03580 -0.25600
C 	C 	0.30690 0.43320 0.01930 0.24700
Cd	Cd	0.98006 0.34911 0.64687 1.19100
Cd	Cd	0.32037 0.73286 0.27706 1.25200
Cd	Cd	0.62942 0.35814 0.93724 1.25200
O 	O 	0.62775 0.32035 0.29190 -0.30800
O 	O 	0.52584 0.45824 0.72709 -0.31300
O 	O 	0.80578 0.17762 0.45459 -0.32500
O 	O 	0.62873 0.33309 0.85502 -0.33500
O 	O 	0.53825 0.43907 0.32501 -0.33000
O 	O 	0.53781 0.43874 0.65005 -0.33200
O 	O 	0.52605 0.45709 0.40196 -0.33700
O 	O 	0.65660 0.28846 0.35362 -0.35100
O 	O 	0.59256 0.38810 0.86893 -0.32300
O 	O 	0.73878 0.21012 0.70591 -0.33500
O 	O 	0.78900 0.16701 0.68943 -0.29100
O 	O 	0.84116 0.15307 0.51653 -0.33600
O 	O 	0.63629 0.42713 0.96560 -0.32000
O 	O 	0.68392 0.40061 0.91827 -0.34000
C 	C 	0.54226 0.43433 0.69558 0.27200
C 	C 	0.63172 0.31499 0.33820 0.30500
N 	N 	0.63430 0.31667 0.66968 -0.23600
H 	H 	0.64860 0.29920 0.68580 0.14700
O 	O 	0.77217 0.62085 0.73740 -0.33000
N 	N 	0.66570 0.28990 0.60330 -0.17900
C 	C 	0.60712 0.36243 0.84041 0.26700
N 	N 	0.59530 0.35590 0.51086 -0.22700
H 	H 	0.57720 0.36920 0.52720 0.14700
C 	C 	0.81221 0.17476 0.50060 0.27300
C 	C 	0.61110 0.34386 0.70000 0.16700
N 	N 	0.61240 0.33690 0.58968 -0.17400
C 	C 	0.78475 0.19450 0.53670 0.01200
C 	C 	0.54239 0.43438 0.37081 0.29800
C 	C 	0.57060 0.39172 0.44141 -0.09400
H 	H 	0.55770 0.40900 0.46390 0.09000
C 	C 	0.76300 0.19396 0.67560 0.25400
O 	O 	0.80232 0.66929 0.69666 -0.32600
C 	C 	0.58620 0.37360 0.68200 -0.14300
H 	H 	0.58180 0.37620 0.64770 0.11500
N 	N 	0.64700 0.30840 0.52002 -0.17200
C 	C 	0.66960 0.42964 0.94410 0.27000
C 	C 	0.56717 0.40025 0.71590 0.01900
C 	C 	0.75994 0.20244 0.62120 0.01600
C 	C 	0.59340 0.35950 0.45891 0.10300
C 	C 	0.57352 0.39610 0.76674 -0.07100
H 	H 	0.56130 0.41400 0.78900 0.09900
C 	C 	0.56674 0.39864 0.38854 -0.02600
C 	C 	0.61370 0.33380 0.42540 0.01800
C 	C 	0.80390 0.63460 0.71700 0.28200
C 	C 	0.59844 0.36491 0.78467 0.02500
C 	C 	0.60954 0.34067 0.37351 -0.06400
C 	C 	0.75500 0.22080 0.52000 -0.14000
H 	H 	0.75320 0.22660 0.48600 0.10200
C 	C 	0.63700 0.31440 0.61660 0.20700
C 	C 	0.78751 0.18510 0.58630 -0.06600
H 	H 	0.80750 0.16730 0.59740 0.09300
C 	C 	0.61686 0.33917 0.75110 -0.14600
H 	H 	0.63340 0.31840 0.76280 0.10500
C 	C 	0.62240 0.33370 0.54010 0.20500
C 	C 	0.73100 0.23020 0.60436 -0.14000
H 	H 	0.71390 0.24300 0.62720 0.11200
C 	C 	0.72750 0.23880 0.55330 0.16700
C 	C 	0.84190 0.61000 0.71780 -0.02600
C 	C 	0.69370 0.46790 0.94630 0.01600
C 	C 	0.68170 0.49890 0.97910 -0.07300
H 	H 	0.65850 0.49600 0.99840 0.09700
O 	O 	0.82643 0.22060 0.76500 -0.31900
O 	O 	0.77515 0.24879 0.80590 -0.33500
C 	C 	0.67050 0.28840 0.55340 0.20700
N 	N 	0.69890 0.26410 0.53215 -0.24700
H 	H 	0.69920 0.26450 0.49990 0.15100
C 	C 	0.58529 0.37348 0.35655 -0.01000
H 	H 	0.58220 0.37760 0.32230 0.07700
O 	O 	0.65560 0.56770 0.03070 -0.34400
N 	N 	0.78120 0.52006 0.88500 -0.24900
H 	H 	0.78820 0.54520 0.88420 0.14800
N 	N 	0.81570 0.39346 0.82890 -0.24500
H 	H 	0.79780 0.38580 0.85030 0.14700
N 	N 	0.87330 0.50690 0.75610 -0.23700
H 	H 	0.89010 0.49040 0.74230 0.14200
C 	C 	0.73700 0.53990 0.95170 -0.14600
H 	H 	0.75080 0.56450 0.95330 0.09700
C 	C 	0.87460 0.54660 0.73910 0.14000
C 	C 	0.82230 0.43480 0.82580 0.20300
N 	N 	0.79830 0.45588 0.85860 -0.17800
C 	C 	0.80170 0.49500 0.85420 0.20900
C 	C 	0.84040 0.57060 0.74040 -0.11000
H 	H 	0.81680 0.56150 0.75580 0.10300
C 	C 	0.72690 0.47371 0.91720 -0.13400
H 	H 	0.73480 0.45280 0.89600 0.10900
C 	C 	0.75030 0.51030 0.91740 0.16100
N 	N 	0.82860 0.51452 0.82300 -0.17500
C 	C 	0.86630 0.36650 0.77080 -0.17500
H 	H 	0.87920 0.39150 0.76730 0.12000
C 	C 	0.82950 0.29070 0.78000 0.03300
N 	N 	0.84810 0.44960 0.79380 -0.17900
C 	C 	0.81580 0.32420 0.80750 -0.15400
H 	H 	0.79430 0.32140 0.82970 0.10600
C 	C 	0.80830 0.24995 0.78630 0.26800
C 	C 	0.86250 0.29600 0.75080 -0.09200
H 	H 	0.87370 0.27360 0.73470 0.09800
C 	C 	0.87710 0.62340 0.69700 0.00000
H 	H 	0.87780 0.64900 0.68230 0.06300
C 	C 	0.83470 0.36230 0.80120 0.18300
C 	C 	0.70460 0.53400 0.98270 0.02700
C 	C 	0.91130 0.60040 0.69720 -0.08600
O 	O 	0.95280 0.64910 0.66160 -0.46400
C 	C 	0.95080 0.61510 0.67680 0.44700
O 	O 	0.97990 0.59610 0.67480 -0.44500
O 	O 	0.93380 0.37320 0.70420 -0.36900
C 	C 	0.91050 0.56050 0.71860 -0.09100
H 	H 	0.93370 0.54430 0.71870 0.07800
O 	O 	0.92570 0.30980 0.67900 -0.37800
C 	C 	0.84810 0.49040 0.79300 0.20200
C 	C 	0.87980 0.33300 0.74430 0.04000
C 	C 	0.91440 0.33940 0.70500 0.24500
O 	O 	0.72110 0.59040 0.03580 -0.25600
C 	C 	0.69310 0.56680 0.01930 0.24700
Cd	Cd	0.01994 0.65089 0.64687 1.18600
Cd	Cd	0.67963 0.26714 0.27706 1.25200
Cd	Cd	0.14186 0.87058 0.43724 1.25200
O 	O 	0.17965 0.87225 0.79190 -0.30800
O 	O 	0.04176 0.97416 0.22709 -0.31200
O 	O 	0.32238 0.69422 0.95459 -0.32500
O 	O 	0.16691 0.87127 0.35502 -0.33500
O 	O 	0.06093 0.96175 0.82501 -0.32900
O 	O 	0.06126 0.96219 0.15005 -0.33100
O 	O 	0.04291 0.97395 0.90196 -0.33600
O 	O 	0.21154 0.84340 0.85362 -0.35100
O 	O 	0.11190 0.90744 0.36893 -0.32300
O 	O 	0.28988 0.76122 0.20591 -0.33500
O 	O 	0.33299 0.71100 0.18943 -0.29100
O 	O 	0.34693 0.65884 0.01653 -0.33700
O 	O 	0.07287 0.86371 0.46560 -0.31900
O 	O 	0.09939 0.81608 0.41827 -0.34000
C 	C 	0.06567 0.95774 0.19558 0.27200
C 	C 	0.18501 0.86828 0.83820 0.30500
N 	N 	0.18333 0.86570 0.16968 -0.23600
H 	H 	0.20080 0.85140 0.18580 0.14700
O 	O 	0.87915 0.72783 0.23740 -0.33000
N 	N 	0.21010 0.83430 0.10330 -0.17900
C 	C 	0.13757 0.89288 0.34041 0.26700
N 	N 	0.14410 0.90470 0.01086 -0.22800
H 	H 	0.13080 0.92280 0.02720 0.14700
C 	C 	0.32524 0.68779 0.00060 0.27300
C 	C 	0.15614 0.88890 0.20000 0.16800
N 	N 	0.16310 0.88760 0.08968 -0.17400
C 	C 	0.30550 0.71525 0.03670 0.01100
C 	C 	0.06562 0.95761 0.87081 0.29800
C 	C 	0.10828 0.92940 0.94141 -0.09400
H 	H 	0.09100 0.94230 0.96390 0.09000
C 	C 	0.30604 0.73700 0.17560 0.25400
O 	O 	0.83071 0.69768 0.19666 -0.32600
C 	C 	0.12640 0.91380 0.18200 -0.14300
H 	H 	0.12380 0.91820 0.14770 0.11500
N 	N 	0.19160 0.85300 0.02002 -0.17200
C 	C 	0.07036 0.83040 0.44410 0.26400
C 	C 	0.09975 0.93283 0.21590 0.02000
C 	C 	0.29756 0.74006 0.12120 0.01600
C 	C 	0.14050 0.90660 0.95891 0.10300
C 	C 	0.10390 0.92648 0.26674 -0.07100
H 	H 	0.08600 0.93870 0.28900 0.09900
C 	C 	0.10136 0.93326 0.88854 -0.02600
C 	C 	0.16620 0.88630 0.92540 0.01800
C 	C 	0.86540 0.69610 0.21700 0.28200
C 	C 	0.13509 0.90156 0.28467 0.02500
C 	C 	0.15933 0.89046 0.87351 -0.06400
C 	C 	0.27920 0.74500 0.02000 -0.14000
H 	H 	0.27340 0.74680 0.98600 0.10200
C 	C 	0.18560 0.86300 0.11660 0.20700
C 	C 	0.31490 0.71249 0.08630 -0.06600
H 	H 	0.33270 0.69250 0.09740 0.09300
C 	C 	0.16083 0.88314 0.25110 -0.14600
H 	H 	0.18160 0.86660 0.26280 0.10500
C 	C 	0.16630 0.87760 0.04010 0.20500
C 	C 	0.26980 0.76900 0.10436 -0.14000
H 	H 	0.25700 0.78610 0.12720 0.11200
C 	C 	0.26120 0.77250 0.05330 0.16700
C 	C 	0.89000 0.65810 0.21780 -0.02700
C 	C 	0.03210 0.80630 0.44630 0.03100
C 	C 	0.00110 0.81830 0.47910 -0.09800
H 	H 	0.00400 0.84150 0.49840 0.10300
O 	O 	0.27940 0.67357 0.26500 -0.32000
O 	O 	0.25121 0.72485 0.30590 -0.33500
C 	C 	0.21160 0.82950 0.05340 0.20700
N 	N 	0.23590 0.80110 0.03215 -0.24700
H 	H 	0.23550 0.80080 0.99990 0.15100
C 	C 	0.12652 0.91471 0.85655 -0.01000
H 	H 	0.12240 0.91780 0.82230 0.07700
O 	O 	0.93230 0.84440 0.53070 -0.34000
N 	N 	0.97994 0.71880 0.38500 -0.24700
H 	H 	0.95480 0.71180 0.38420 0.14800
N 	N 	0.10654 0.68430 0.32890 -0.24500
H 	H 	0.11420 0.70220 0.35030 0.14600
N 	N 	0.99310 0.62670 0.25610 -0.22400
H 	H 	0.00960 0.60990 0.24230 0.13100
C 	C 	0.96010 0.76300 0.45170 -0.16100
H 	H 	0.93550 0.74920 0.45330 0.10300
C 	C 	0.95340 0.62540 0.23910 0.13800
C 	C 	0.06520 0.67770 0.32580 0.20100
N 	N 	0.04412 0.70170 0.35860 -0.17700
C 	C 	0.00500 0.69830 0.35420 0.19500
C 	C 	0.92940 0.65960 0.24040 -0.10800
H 	H 	0.93850 0.68320 0.25580 0.10300
C 	C 	0.02629 0.77310 0.41720 -0.15700
H 	H 	0.04720 0.76520 0.39600 0.11500
C 	C 	0.98970 0.74970 0.41740 0.18000
N 	N 	0.98548 0.67140 0.32300 -0.16400
C 	C 	0.13350 0.63370 0.27080 -0.17400
H 	H 	0.10850 0.62080 0.26730 0.11900
C 	C 	0.20930 0.67050 0.28000 0.03200
N 	N 	0.05040 0.65190 0.29380 -0.17700
C 	C 	0.17580 0.68420 0.30750 -0.15300
H 	H 	0.17860 0.70570 0.32970 0.10500
C 	C 	0.25005 0.69170 0.28630 0.26800
C 	C 	0.20400 0.63750 0.25080 -0.09100
H 	H 	0.22640 0.62630 0.23470 0.09700
C 	C 	0.87660 0.62290 0.19700 0.00200
H 	H 	0.85100 0.62220 0.18230 0.06200
C 	C 	0.13770 0.66530 0.30120 0.18200
C 	C 	0.96600 0.79540 0.48270 0.04800
C 	C 	0.89960 0.58870 0.19720 -0.08800
O 	O 	0.85090 0.54720 0.16160 -0.46700
C 	C 	0.88490 0.54920 0.17680 0.44900
O 	O 	0.90390 0.52010 0.17480 -0.44800
O 	O 	0.12680 0.56620 0.20420 -0.37200
C 	C 	0.93950 0.58950 0.21860 -0.08800
H 	H 	0.95570 0.56630 0.21870 0.07800
O 	O 	0.19020 0.57430 0.17900 -0.38000
C 	C 	0.00960 0.65190 0.29300 0.18700
C 	C 	0.16700 0.62020 0.24430 0.03800
C 	C 	0.16060 0.58560 0.20500 0.24600
O 	O 	0.90960 0.77890 0.53580 -0.25400
C 	C 	0.93320 0.80690 0.51930 0.24100
Cd	Cd	0.84911 0.48006 0.14687 1.18900
Cd	Cd	0.23286 0.82037 0.77706 1.25200
Cd	Cd	0.85814 0.12942 0.43724 1.25200
O 	O 	0.82035 0.12775 0.79190 -0.30800
O 	O 	0.95824 0.02584 0.22709 -0.31200
O 	O 	0.67762 0.30578 0.95459 -0.32500
O 	O 	0.83309 0.12873 0.35502 -0.33500
O 	O 	0.93907 0.03825 0.82501 -0.33000
O 	O 	0.93874 0.03781 0.15005 -0.33100
O 	O 	0.95709 0.02605 0.90196 -0.33700
O 	O 	0.78846 0.15660 0.85362 -0.35100
O 	O 	0.88810 0.09256 0.36893 -0.32300
O 	O 	0.71012 0.23878 0.20591 -0.33500
O 	O 	0.66701 0.28900 0.18943 -0.29100
O 	O 	0.65307 0.34116 0.01653 -0.33700
O 	O 	0.92713 0.13629 0.46560 -0.32100
O 	O 	0.90061 0.18392 0.41827 -0.34100
C 	C 	0.93433 0.04226 0.19558 0.27200
C 	C 	0.81499 0.13172 0.83820 0.30500
N 	N 	0.81667 0.13430 0.16968 -0.23600
H 	H 	0.79920 0.14860 0.18580 0.14700
O 	O 	0.12085 0.27217 0.23740 -0.33100
N 	N 	0.78990 0.16570 0.10330 -0.17900
C 	C 	0.86243 0.10712 0.34041 0.26700
N 	N 	0.85590 0.09530 0.01086 -0.22700
H 	H 	0.86920 0.07720 0.02720 0.14700
C 	C 	0.67476 0.31221 0.00060 0.27300
C 	C 	0.84386 0.11110 0.20000 0.16700
N 	N 	0.83690 0.11240 0.08968 -0.17400
C 	C 	0.69450 0.28475 0.03670 0.01100
C 	C 	0.93438 0.04239 0.87081 0.29800
C 	C 	0.89172 0.07060 0.94141 -0.09400
H 	H 	0.90900 0.05770 0.96390 0.09000
C 	C 	0.69396 0.26300 0.17560 0.25400
O 	O 	0.16929 0.30232 0.19666 -0.32600
C 	C 	0.87360 0.08620 0.18200 -0.14300
H 	H 	0.87620 0.08180 0.14770 0.11500
N 	N 	0.80840 0.14700 0.02002 -0.17200
C 	C 	0.92964 0.16960 0.44410 0.27600
C 	C 	0.90025 0.06717 0.21590 0.01900
C 	C 	0.70244 0.25994 0.12120 0.01600
C 	C 	0.85950 0.09340 0.95891 0.10300
C 	C 	0.89610 0.07352 0.26674 -0.07100
H 	H 	0.91400 0.06130 0.28900 0.09900
C 	C 	0.89864 0.06674 0.88854 -0.02600
C 	C 	0.83380 0.11370 0.92540 0.01700
C 	C 	0.13460 0.30390 0.21700 0.28200
C 	C 	0.86491 0.09844 0.28467 0.02400
C 	C 	0.84067 0.10954 0.87351 -0.06500
C 	C 	0.72080 0.25500 0.02000 -0.14000
H 	H 	0.72660 0.25320 0.98600 0.10200
C 	C 	0.81440 0.13700 0.11660 0.20700
C 	C 	0.68510 0.28751 0.08630 -0.06600
H 	H 	0.66730 0.30750 0.09740 0.09300
C 	C 	0.83917 0.11686 0.25110 -0.14600
H 	H 	0.81840 0.13340 0.26280 0.10500
C 	C 	0.83370 0.12240 0.04010 0.20600
C 	C 	0.73020 0.23100 0.10436 -0.14000
H 	H 	0.74300 0.21390 0.12720 0.11200
C 	C 	0.73880 0.22750 0.05330 0.16700
C 	C 	0.11000 0.34190 0.21780 -0.02700
C 	C 	0.96790 0.19370 0.44630 0.00100
C 	C 	0.99890 0.18170 0.47910 -0.04700
H 	H 	0.99600 0.15850 0.49840 0.09100
O 	O 	0.72060 0.32643 0.26500 -0.32000
O 	O 	0.74879 0.27515 0.30590 -0.33500
C 	C 	0.78840 0.17050 0.05340 0.20700
N 	N 	0.76410 0.19890 0.03215 -0.24700
H 	H 	0.76450 0.19920 0.99990 0.15100
C 	C 	0.87348 0.08529 0.85655 -0.01000
H 	H 	0.87760 0.08220 0.82230 0.07600
O 	O 	0.06770 0.15560 0.53070 -0.34800
N 	N 	0.02006 0.28120 0.38500 -0.25200
H 	H 	0.04520 0.28820 0.38420 0.14700
N 	N 	0.89346 0.31570 0.32890 -0.24500
H 	H 	0.88580 0.29780 0.35030 0.14700
N 	N 	0.00690 0.37330 0.25610 -0.25000
H 	H 	0.99040 0.39010 0.24230 0.15100
C 	C 	0.03990 0.23700 0.45170 -0.13100
H 	H 	0.06450 0.25080 0.45330 0.09200
C 	C 	0.04660 0.37460 0.23910 0.13900
C 	C 	0.93480 0.32230 0.32580 0.20400
N 	N 	0.95588 0.29830 0.35860 -0.18000
C 	C 	0.99500 0.30170 0.35420 0.22200
C 	C 	0.07060 0.34040 0.24040 -0.11100
H 	H 	0.06150 0.31680 0.25580 0.10200
C 	C 	0.97371 0.22690 0.41720 -0.11000
H 	H 	0.95280 0.23480 0.39600 0.10200
C 	C 	0.01030 0.25030 0.41740 0.14100
N 	N 	0.01452 0.32860 0.32300 -0.18600
C 	C 	0.86650 0.36630 0.27080 -0.17500
H 	H 	0.89150 0.37920 0.26730 0.12000
C 	C 	0.79070 0.32950 0.28000 0.03300
N 	N 	0.94960 0.34810 0.29380 -0.18100
C 	C 	0.82420 0.31580 0.30750 -0.15400
H 	H 	0.82140 0.29430 0.32970 0.10600
C 	C 	0.74995 0.30830 0.28630 0.26800
C 	C 	0.79600 0.36250 0.25080 -0.09200
H 	H 	0.77360 0.37370 0.23470 0.09700
C 	C 	0.12340 0.37710 0.19700 0.00100
H 	H 	0.14900 0.37780 0.18230 0.06200
C 	C 	0.86230 0.33470 0.30120 0.18300
C 	C 	0.03400 0.20460 0.48270 0.00400
C 	C 	0.10040 0.41130 0.19720 -0.08900
O 	O 	0.14910 0.45280 0.16160 -0.46800
C 	C 	0.11510 0.45080 0.17680 0.44900
O 	O 	0.09610 0.47990 0.17480 -0.45100
O 	O 	0.87320 0.43380 0.20420 -0.37100
C 	C 	0.06050 0.41050 0.21860 -0.09100
H 	H 	0.04430 0.43370 0.21870 0.07500
O 	O 	0.80980 0.42570 0.17900 -0.38000
C 	C 	0.99040 0.34810 0.29300 0.21700
C 	C 	0.83300 0.37980 0.24430 0.03900
C 	C 	0.83940 0.41440 0.20500 0.24600
O 	O 	0.09040 0.22110 0.53580 -0.25900
C 	C 	0.06680 0.19310 0.51930 0.25300
Cd	Cd	0.15089 0.51994 0.14687 1.18800
Cd	Cd	0.76714 0.17963 0.77706 1.25200
Cd	Cd	0.12942 0.14186 0.56276 1.25200
O 	O 	0.12775 0.17965 0.20810 -0.30900
O 	O 	0.02584 0.04176 0.77291 -0.31900
O 	O 	0.30578 0.32238 0.04541 -0.32500
O 	O 	0.12873 0.16691 0.64498 -0.33600
O 	O 	0.03825 0.06093 0.17499 -0.33500
O 	O 	0.03781 0.06126 0.84995 -0.33600
O 	O 	0.02605 0.04291 0.09804 -0.34300
O 	O 	0.15660 0.21154 0.14638 -0.35100
O 	O 	0.09256 0.11190 0.63107 -0.32500
O 	O 	0.23878 0.28988 0.79409 -0.33600
O 	O 	0.28900 0.33299 0.81057 -0.29100
O 	O 	0.34116 0.34693 0.98347 -0.33700
O 	O 	0.13629 0.07287 0.53440 -0.32100
O 	O 	0.18392 0.09939 0.58173 -0.34000
C 	C 	0.04226 0.06567 0.80442 0.27300
C 	C 	0.13172 0.18501 0.16180 0.30500
N 	N 	0.13430 0.18333 0.83032 -0.23600
H 	H 	0.14860 0.20080 0.81420 0.14700
O 	O 	0.27217 0.87915 0.76260 -0.33000
N 	N 	0.16570 0.21010 0.89670 -0.17900
C 	C 	0.10712 0.13757 0.65959 0.26700
N 	N 	0.09530 0.14410 0.98914 -0.22700
H 	H 	0.07720 0.13080 0.97280 0.14600
C 	C 	0.31221 0.32524 0.99940 0.27300
C 	C 	0.11110 0.15614 0.80000 0.16600
N 	N 	0.11240 0.16310 0.91032 -0.17400
C 	C 	0.28475 0.30550 0.96330 0.01100
C 	C 	0.04239 0.06562 0.12919 0.30000
C 	C 	0.07060 0.10828 0.05859 -0.09300
H 	H 	0.05770 0.09100 0.03610 0.08700
C 	C 	0.26300 0.30604 0.82440 0.25400
O 	O 	0.30232 0.83071 0.80334 -0.32600
C 	C 	0.08620 0.12640 0.81800 -0.14200
H 	H 	0.08180 0.12380 0.85230 0.11300
N 	N 	0.14700 0.19160 0.97998 -0.17300
C 	C 	0.16960 0.07036 0.55590 0.26400
C 	C 	0.06717 0.09975 0.78410 0.01600
C 	C 	0.25994 0.29756 0.87880 0.01600
C 	C 	0.09340 0.14050 0.04109 0.10100
C 	C 	0.07352 0.10390 0.73326 -0.07000
H 	H 	0.06130 0.08600 0.71100 0.09700
C 	C 	0.06674 0.10136 0.11146 -0.02900
C 	C 	0.11370 0.16620 0.07460 0.01700
C 	C 	0.30390 0.86540 0.78300 0.28200
C 	C 	0.09844 0.13509 0.71533 0.02300
C 	C 	0.10954 0.15933 0.12649 -0.06600
C 	C 	0.25500 0.27920 0.98000 -0.14000
H 	H 	0.25320 0.27340 0.01400 0.10200
C 	C 	0.13700 0.18560 0.88340 0.20600
C 	C 	0.28751 0.31490 0.91370 -0.06600
H 	H 	0.30750 0.33270 0.90260 0.09300
C 	C 	0.11686 0.16083 0.74890 -0.14500
H 	H 	0.13340 0.18160 0.73720 0.10400
C 	C 	0.12240 0.16630 0.95990 0.20500
C 	C 	0.23100 0.26980 0.89564 -0.14000
H 	H 	0.21390 0.25700 0.87280 0.11200
C 	C 	0.22750 0.26120 0.94670 0.16700
C 	C 	0.34190 0.89000 0.78220 -0.02700
C 	C 	0.19370 0.03210 0.55370 0.03000
C 	C 	0.18170 0.00110 0.52090 -0.09800
H 	H 	0.15850 0.00400 0.50160 0.10200
O 	O 	0.32643 0.27940 0.73500 -0.32000
O 	O 	0.27515 0.25121 0.69410 -0.33500
C 	C 	0.17050 0.21160 0.94660 0.20600
N 	N 	0.19890 0.23590 0.96785 -0.24700
H 	H 	0.19920 0.23550 0.00010 0.15100
C 	C 	0.08529 0.12652 0.14345 -0.00900
H 	H 	0.08220 0.12240 0.17770 0.07500
O 	O 	0.15560 0.93230 0.46930 -0.34100
N 	N 	0.28120 0.97994 0.61500 -0.24700
H 	H 	0.28820 0.95480 0.61580 0.14800
N 	N 	0.31570 0.10654 0.67110 -0.24500
H 	H 	0.29780 0.11420 0.64970 0.14600
N 	N 	0.37330 0.99310 0.74390 -0.22400
H 	H 	0.39010 0.00960 0.75770 0.13100
C 	C 	0.23700 0.96010 0.54830 -0.16100
H 	H 	0.25080 0.93550 0.54670 0.10300
C 	C 	0.37460 0.95340 0.76090 0.13800
C 	C 	0.32230 0.06520 0.67420 0.20100
N 	N 	0.29830 0.04412 0.64140 -0.17700
C 	C 	0.30170 0.00500 0.64580 0.19500
C 	C 	0.34040 0.92940 0.75960 -0.10800
H 	H 	0.31680 0.93850 0.74420 0.10300
C 	C 	0.22690 0.02629 0.58280 -0.15700
H 	H 	0.23480 0.04720 0.60400 0.11500
C 	C 	0.25030 0.98970 0.58260 0.18000
N 	N 	0.32860 0.98548 0.67700 -0.16400
C 	C 	0.36630 0.13350 0.72920 -0.17400
H 	H 	0.37920 0.10850 0.73270 0.11900
C 	C 	0.32950 0.20930 0.72000 0.03200
N 	N 	0.34810 0.05040 0.70620 -0.17700
C 	C 	0.31580 0.17580 0.69250 -0.15300
H 	H 	0.29430 0.17860 0.67030 0.10500
C 	C 	0.30830 0.25005 0.71370 0.26800
C 	C 	0.36250 0.20400 0.74920 -0.09100
H 	H 	0.37370 0.22640 0.76530 0.09700
C 	C 	0.37710 0.87660 0.80300 0.00200
H 	H 	0.37780 0.85100 0.81770 0.06200
C 	C 	0.33470 0.13770 0.69880 0.18200
C 	C 	0.20460 0.96600 0.51730 0.04800
C 	C 	0.41130 0.89960 0.80280 -0.08800
O 	O 	0.45280 0.85090 0.83840 -0.46700
C 	C 	0.45080 0.88490 0.82320 0.44900
O 	O 	0.47990 0.90390 0.82520 -0.44800
O 	O 	0.43380 0.12680 0.79580 -0.37200
C 	C 	0.41050 0.93950 0.78140 -0.08800
H 	H 	0.43370 0.95570 0.78130 0.07800
O 	O 	0.42570 0.19020 0.82100 -0.38000
C 	C 	0.34810 0.00960 0.70700 0.18600
C 	C 	0.37980 0.16700 0.75570 0.03800
C 	C 	0.41440 0.16060 0.79500 0.24600
O 	O 	0.22110 0.90960 0.46420 -0.25400
C 	C 	0.19310 0.93320 0.48070 0.24100
Cd	Cd	0.51994 0.84911 0.85313 1.18900
Cd	Cd	0.17963 0.23286 0.22294 1.25200
Cd	Cd	0.87058 0.85814 0.56276 1.25200
O 	O 	0.87225 0.82035 0.20810 -0.30700
O 	O 	0.97416 0.95824 0.77291 -0.30500
O 	O 	0.69422 0.67762 0.04541 -0.32500
O 	O 	0.87127 0.83309 0.64498 -0.33400
O 	O 	0.96175 0.93907 0.17499 -0.32400
O 	O 	0.96219 0.93874 0.84995 -0.32600
O 	O 	0.97395 0.95709 0.09804 -0.33000
O 	O 	0.84340 0.78846 0.14638 -0.35000
O 	O 	0.90744 0.88810 0.63107 -0.32100
O 	O 	0.76122 0.71012 0.79409 -0.33500
O 	O 	0.71100 0.66701 0.81057 -0.29100
O 	O 	0.65884 0.65307 0.98347 -0.33700
O 	O 	0.86371 0.92713 0.53440 -0.31900
O 	O 	0.81608 0.90061 0.58173 -0.34100
C 	C 	0.95774 0.93433 0.80442 0.27100
C 	C 	0.86828 0.81499 0.16180 0.30500
N 	N 	0.86570 0.81667 0.83032 -0.23600
H 	H 	0.85140 0.79920 0.81420 0.14700
O 	O 	0.72783 0.12085 0.76260 -0.33100
N 	N 	0.83430 0.78990 0.89670 -0.17900
C 	C 	0.89288 0.86243 0.65959 0.26700
N 	N 	0.90470 0.85590 0.98914 -0.22800
H 	H 	0.92280 0.86920 0.97280 0.14800
C 	C 	0.68779 0.67476 0.99940 0.27300
C 	C 	0.88890 0.84386 0.80000 0.16900
N 	N 	0.88760 0.83690 0.91032 -0.17400
C 	C 	0.71525 0.69450 0.96330 0.01200
C 	C 	0.95761 0.93438 0.12919 0.29700
C 	C 	0.92940 0.89172 0.05859 -0.09500
H 	H 	0.94230 0.90900 0.03610 0.09200
C 	C 	0.73700 0.69396 0.82440 0.25400
O 	O 	0.69768 0.16929 0.80334 -0.32600
C 	C 	0.91380 0.87360 0.81800 -0.14400
H 	H 	0.91820 0.87620 0.85230 0.11600
N 	N 	0.85300 0.80840 0.97998 -0.17200
C 	C 	0.83040 0.92964 0.55590 0.27500
C 	C 	0.93283 0.90025 0.78410 0.02200
C 	C 	0.74006 0.70244 0.87880 0.01600
C 	C 	0.90660 0.85950 0.04109 0.10500
C 	C 	0.92648 0.89610 0.73326 -0.07200
H 	H 	0.93870 0.91400 0.71100 0.10200
C 	C 	0.93326 0.89864 0.11146 -0.02300
C 	C 	0.88630 0.83380 0.07460 0.01800
C 	C 	0.69610 0.13460 0.78300 0.28200
C 	C 	0.90156 0.86491 0.71533 0.02700
C 	C 	0.89046 0.84067 0.12649 -0.06300
C 	C 	0.74500 0.72080 0.98000 -0.14000
H 	H 	0.74680 0.72660 0.01400 0.10200
C 	C 	0.86300 0.81440 0.88340 0.20800
C 	C 	0.71249 0.68510 0.91370 -0.06600
H 	H 	0.69250 0.66730 0.90260 0.09300
C 	C 	0.88314 0.83917 0.74890 -0.14700
H 	H 	0.86660 0.81840 0.73720 0.10600
C 	C 	0.87760 0.83370 0.95990 0.20700
C 	C 	0.76900 0.73020 0.89564 -0.14000
H 	H 	0.78610 0.74300 0.87280 0.11200
C 	C 	0.77250 0.73880 0.94670 0.16700
C 	C 	0.65810 0.11000 0.78220 -0.02700
C 	C 	0.80630 0.96790 0.55370 0.00200
C 	C 	0.81830 0.99890 0.52090 -0.04800
H 	H 	0.84150 0.99600 0.50160 0.09200
O 	O 	0.67357 0.72060 0.73500 -0.32000
O 	O 	0.72485 0.74879 0.69410 -0.33500
C 	C 	0.82950 0.78840 0.94660 0.20700
N 	N 	0.80110 0.76410 0.96785 -0.24700
H 	H 	0.80080 0.76450 0.00010 0.15100
C 	C 	0.91471 0.87348 0.14345 -0.01100
H 	H 	0.91780 0.87760 0.17770 0.07800
O 	O 	0.84440 0.06770 0.46930 -0.34700
N 	N 	0.71880 0.02006 0.61500 -0.25200
H 	H 	0.71180 0.04520 0.61580 0.14700
N 	N 	0.68430 0.89346 0.67110 -0.24500
H 	H 	0.70220 0.88580 0.64970 0.14700
N 	N 	0.62670 0.00690 0.74390 -0.25000
H 	H 	0.60990 0.99040 0.75770 0.15100
C 	C 	0.76300 0.03990 0.54830 -0.13100
H 	H 	0.74920 0.06450 0.54670 0.09200
C 	C 	0.62540 0.04660 0.76090 0.13900
C 	C 	0.67770 0.93480 0.67420 0.20400
N 	N 	0.70170 0.95588 0.64140 -0.18000
C 	C 	0.69830 0.99500 0.64580 0.22200
C 	C 	0.65960 0.07060 0.75960 -0.11100
H 	H 	0.68320 0.06150 0.74420 0.10200
C 	C 	0.77310 0.97371 0.58280 -0.11100
H 	H 	0.76520 0.95280 0.60400 0.10200
C 	C 	0.74970 0.01030 0.58260 0.14200
N 	N 	0.67140 0.01452 0.67700 -0.18600
C 	C 	0.63370 0.86650 0.72920 -0.17500
H 	H 	0.62080 0.89150 0.73270 0.12000
C 	C 	0.67050 0.79070 0.72000 0.03300
N 	N 	0.65190 0.94960 0.70620 -0.18100
C 	C 	0.68420 0.82420 0.69250 -0.15400
H 	H 	0.70570 0.82140 0.67030 0.10600
C 	C 	0.69170 0.74995 0.71370 0.26800
C 	C 	0.63750 0.79600 0.74920 -0.09200
H 	H 	0.62630 0.77360 0.76530 0.09700
C 	C 	0.62290 0.12340 0.80300 0.00100
H 	H 	0.62220 0.14900 0.81770 0.06200
C 	C 	0.66530 0.86230 0.69880 0.18300
C 	C 	0.79540 0.03400 0.51730 0.00600
C 	C 	0.58870 0.10040 0.80280 -0.08900
O 	O 	0.54720 0.14910 0.83840 -0.46800
C 	C 	0.54920 0.11510 0.82320 0.44900
O 	O 	0.52010 0.09610 0.82520 -0.45100
O 	O 	0.56620 0.87320 0.79580 -0.37100
C 	C 	0.58950 0.06050 0.78140 -0.09100
H 	H 	0.56630 0.04430 0.78130 0.07500
O 	O 	0.57430 0.80980 0.82100 -0.38000
C 	C 	0.65190 0.99040 0.70700 0.21700
C 	C 	0.62020 0.83300 0.75570 0.03900
C 	C 	0.58560 0.83940 0.79500 0.24600
O 	O 	0.77890 0.09040 0.46420 -0.25900
C 	C 	0.80690 0.06680 0.48070 0.25300
Cd	Cd	0.48006 0.15089 0.85313 1.18800
Cd	Cd	0.82037 0.76714 0.22294 1.25200
Cd	Cd	0.50000 0.50000 0.66127 1.25500
Cd	Cd	0.50000 0.50000 0.33873 1.25500
Cd	Cd	0.00000 0.00000 0.83873 1.24900
Cd	Cd	0.00000 0.00000 0.16127 1.24900
