data_crystal

_cell_length_a 24.71900
_cell_length_b 24.71900
_cell_length_c 24.71900
_cell_angle_alpha 90.00000
_cell_angle_beta  90.00000
_cell_angle_gamma 90.00000

_symmetry_space_group_name_	'P 1'
_symmetry_space_group_name_H-M	'P 1'

loop_
_symmetry_equiv_pos_as_xyz
  x,y,z

loop_
_atom_site_label
_atom_site_type_symbol
_atom_site_fract_x
_atom_site_fract_y
_atom_site_fract_z
_atom_site_charge
N 	N 	0.47930 0.31360 0.58910 -0.22000
C 	C 	0.46820 0.34240 0.63270 0.02600
N 	N 	0.47930 0.81360 0.08910 -0.22000
C 	C 	0.46820 0.84240 0.13270 0.02600
N 	N 	0.97930 0.31360 0.08910 -0.22000
C 	C 	0.96820 0.34240 0.13270 0.02400
N 	N 	0.97930 0.81360 0.58910 -0.22000
C 	C 	0.96820 0.84240 0.63270 0.02500
N 	N 	0.77070 0.43640 0.08910 -0.22000
C 	C 	0.78180 0.40760 0.13270 0.02600
N 	N 	0.77070 0.93640 0.58910 -0.22000
C 	C 	0.78180 0.90760 0.63270 0.02600
N 	N 	0.27070 0.43640 0.58910 -0.22000
C 	C 	0.28180 0.40760 0.63270 0.02600
N 	N 	0.27070 0.93640 0.08910 -0.22000
C 	C 	0.28180 0.90760 0.13270 0.02600
N 	N 	0.27070 0.81360 0.66090 -0.22000
C 	C 	0.28180 0.84240 0.61730 0.02600
N 	N 	0.27070 0.31360 0.16090 -0.22000
C 	C 	0.28180 0.34240 0.11730 0.02600
N 	N 	0.77070 0.81360 0.16090 -0.22000
C 	C 	0.78180 0.84240 0.11730 0.02600
N 	N 	0.77070 0.31360 0.66090 -0.22000
C 	C 	0.78180 0.34240 0.61730 0.02600
N 	N 	0.97930 0.93640 0.16090 -0.22100
C 	C 	0.96820 0.90760 0.11730 0.02400
N 	N 	0.97930 0.43640 0.66090 -0.22000
C 	C 	0.96820 0.40760 0.61730 0.02500
N 	N 	0.47930 0.93640 0.66090 -0.22000
C 	C 	0.46820 0.90760 0.61730 0.02600
N 	N 	0.47930 0.43640 0.16090 -0.22000
C 	C 	0.46820 0.40760 0.11730 0.02600
N 	N 	0.58910 0.47930 0.31360 -0.22000
C 	C 	0.63270 0.46820 0.34240 0.02600
N 	N 	0.58910 0.97930 0.81360 -0.22000
C 	C 	0.63270 0.96820 0.84240 0.02500
N 	N 	0.08910 0.47930 0.81360 -0.22000
C 	C 	0.13270 0.46820 0.84240 0.02600
N 	N 	0.08910 0.97930 0.31360 -0.22000
C 	C 	0.13270 0.96820 0.34240 0.02400
N 	N 	0.08910 0.77070 0.43640 -0.22000
C 	C 	0.13270 0.78180 0.40760 0.02600
N 	N 	0.08910 0.27070 0.93640 -0.22000
C 	C 	0.13270 0.28180 0.90760 0.02600
N 	N 	0.58910 0.77070 0.93640 -0.22000
C 	C 	0.63270 0.78180 0.90760 0.02600
N 	N 	0.58910 0.27070 0.43640 -0.22000
C 	C 	0.63270 0.28180 0.40760 0.02600
N 	N 	0.66090 0.27070 0.81360 -0.22000
C 	C 	0.61730 0.28180 0.84240 0.02600
N 	N 	0.66090 0.77070 0.31360 -0.22000
C 	C 	0.61730 0.78180 0.34240 0.02600
N 	N 	0.16090 0.27070 0.31360 -0.22000
C 	C 	0.11730 0.28180 0.34240 0.02600
N 	N 	0.16090 0.77070 0.81360 -0.22000
C 	C 	0.11730 0.78180 0.84240 0.02600
N 	N 	0.16090 0.97930 0.93640 -0.22100
C 	C 	0.11730 0.96820 0.90760 0.02400
N 	N 	0.16090 0.47930 0.43640 -0.22000
C 	C 	0.11730 0.46820 0.40760 0.02600
N 	N 	0.66090 0.97930 0.43640 -0.22000
C 	C 	0.61730 0.96820 0.40760 0.02500
N 	N 	0.66090 0.47930 0.93640 -0.22000
C 	C 	0.61730 0.46820 0.90760 0.02600
N 	N 	0.31360 0.58910 0.47930 -0.22000
C 	C 	0.34240 0.63270 0.46820 0.02600
N 	N 	0.31360 0.08910 0.97930 -0.22000
C 	C 	0.34240 0.13270 0.96820 0.02400
N 	N 	0.81360 0.58910 0.97930 -0.22100
C 	C 	0.84240 0.63270 0.96820 0.02400
N 	N 	0.81360 0.08910 0.47930 -0.22100
C 	C 	0.84240 0.13270 0.46820 0.02500
N 	N 	0.43640 0.08910 0.77070 -0.22100
C 	C 	0.40760 0.13270 0.78180 0.02500
N 	N 	0.43640 0.58910 0.27070 -0.22100
C 	C 	0.40760 0.63270 0.28180 0.02500
N 	N 	0.93640 0.08910 0.27070 -0.22100
C 	C 	0.90760 0.13270 0.28180 0.02500
N 	N 	0.93640 0.58910 0.77070 -0.22100
C 	C 	0.90760 0.63270 0.78180 0.02500
N 	N 	0.81360 0.66090 0.27070 -0.22100
C 	C 	0.84240 0.61730 0.28180 0.02500
N 	N 	0.81360 0.16090 0.77070 -0.22100
C 	C 	0.84240 0.11730 0.78180 0.02500
N 	N 	0.31360 0.66090 0.77070 -0.22100
C 	C 	0.34240 0.61730 0.78180 0.02500
N 	N 	0.31360 0.16090 0.27070 -0.22100
C 	C 	0.34240 0.11730 0.28180 0.02500
N 	N 	0.93640 0.16090 0.97930 -0.22200
C 	C 	0.90760 0.11730 0.96820 0.02300
N 	N 	0.93640 0.66090 0.47930 -0.22100
C 	C 	0.90760 0.61730 0.46820 0.02500
N 	N 	0.43640 0.16090 0.47930 -0.22100
C 	C 	0.40760 0.11730 0.46820 0.02500
N 	N 	0.43640 0.66090 0.97930 -0.22100
C 	C 	0.40760 0.61730 0.96820 0.02400
N 	N 	0.06360 0.72930 0.41090 -0.22000
C 	C 	0.09240 0.71820 0.36730 0.02500
N 	N 	0.06360 0.22930 0.91090 -0.22100
C 	C 	0.09240 0.21820 0.86730 0.02500
N 	N 	0.56360 0.72930 0.91090 -0.22100
C 	C 	0.59240 0.71820 0.86730 0.02500
N 	N 	0.56360 0.22930 0.41090 -0.22100
C 	C 	0.59240 0.21820 0.36730 0.02500
N 	N 	0.18640 0.02070 0.91090 -0.22000
C 	C 	0.15760 0.03180 0.86730 0.02600
N 	N 	0.18640 0.52070 0.41090 -0.22100
C 	C 	0.15760 0.53180 0.36730 0.02500
N 	N 	0.68640 0.02070 0.41090 -0.22000
C 	C 	0.65760 0.03180 0.36730 0.02600
N 	N 	0.68640 0.52070 0.91090 -0.22100
C 	C 	0.65760 0.53180 0.86730 0.02500
N 	N 	0.56360 0.52070 0.33910 -0.22100
C 	C 	0.59240 0.53180 0.38270 0.02500
N 	N 	0.56360 0.02070 0.83910 -0.22000
C 	C 	0.59240 0.03180 0.88270 0.02500
N 	N 	0.06360 0.52070 0.83910 -0.22100
C 	C 	0.09240 0.53180 0.88270 0.02500
N 	N 	0.06360 0.02070 0.33910 -0.21900
C 	C 	0.09240 0.03180 0.38270 0.02600
N 	N 	0.68640 0.22930 0.83910 -0.22100
C 	C 	0.65760 0.21820 0.88270 0.02500
N 	N 	0.68640 0.72930 0.33910 -0.22100
C 	C 	0.65760 0.71820 0.38270 0.02500
N 	N 	0.18640 0.22930 0.33910 -0.22100
C 	C 	0.15760 0.21820 0.38270 0.02500
N 	N 	0.18640 0.72930 0.83910 -0.22100
C 	C 	0.15760 0.71820 0.88270 0.02500
N 	N 	0.22930 0.83910 0.68640 -0.22100
C 	C 	0.21820 0.88270 0.65760 0.02500
N 	N 	0.22930 0.33910 0.18640 -0.22100
C 	C 	0.21820 0.38270 0.15760 0.02500
N 	N 	0.72930 0.83910 0.18640 -0.22100
C 	C 	0.71820 0.88270 0.15760 0.02500
N 	N 	0.72930 0.33910 0.68640 -0.22100
C 	C 	0.71820 0.38270 0.65760 0.02500
N 	N 	0.52070 0.33910 0.56360 -0.22100
C 	C 	0.53180 0.38270 0.59240 0.02500
N 	N 	0.52070 0.83910 0.06360 -0.22100
C 	C 	0.53180 0.88270 0.09240 0.02500
N 	N 	0.02070 0.33910 0.06360 -0.21900
C 	C 	0.03180 0.38270 0.09240 0.02600
N 	N 	0.02070 0.83910 0.56360 -0.22000
C 	C 	0.03180 0.88270 0.59240 0.02500
N 	N 	0.02070 0.91090 0.18640 -0.22000
C 	C 	0.03180 0.86730 0.15760 0.02600
N 	N 	0.02070 0.41090 0.68640 -0.22000
C 	C 	0.03180 0.36730 0.65760 0.02600
N 	N 	0.52070 0.91090 0.68640 -0.22100
C 	C 	0.53180 0.86730 0.65760 0.02500
N 	N 	0.52070 0.41090 0.18640 -0.22100
C 	C 	0.53180 0.36730 0.15760 0.02500
N 	N 	0.72930 0.41090 0.06360 -0.22000
C 	C 	0.71820 0.36730 0.09240 0.02500
N 	N 	0.72930 0.91090 0.56360 -0.22100
C 	C 	0.71820 0.86730 0.59240 0.02500
N 	N 	0.22930 0.41090 0.56360 -0.22100
C 	C 	0.21820 0.36730 0.59240 0.02500
N 	N 	0.22930 0.91090 0.06360 -0.22100
C 	C 	0.21820 0.86730 0.09240 0.02500
N 	N 	0.33910 0.56360 0.52070 -0.22100
C 	C 	0.38270 0.59240 0.53180 0.02500
N 	N 	0.33910 0.06360 0.02070 -0.21900
C 	C 	0.38270 0.09240 0.03180 0.02600
N 	N 	0.83910 0.56360 0.02070 -0.22000
C 	C 	0.88270 0.59240 0.03180 0.02500
N 	N 	0.83910 0.06360 0.52070 -0.22100
C 	C 	0.88270 0.09240 0.53180 0.02500
N 	N 	0.83910 0.68640 0.22930 -0.22100
C 	C 	0.88270 0.65760 0.21820 0.02500
N 	N 	0.83910 0.18640 0.72930 -0.22100
C 	C 	0.88270 0.15760 0.71820 0.02500
N 	N 	0.33910 0.68640 0.72930 -0.22100
C 	C 	0.38270 0.65760 0.71820 0.02500
N 	N 	0.33910 0.18640 0.22930 -0.22100
C 	C 	0.38270 0.15760 0.21820 0.02500
N 	N 	0.41090 0.06360 0.72930 -0.22000
C 	C 	0.36730 0.09240 0.71820 0.02500
N 	N 	0.41090 0.56360 0.22930 -0.22100
C 	C 	0.36730 0.59240 0.21820 0.02500
N 	N 	0.91090 0.06360 0.22930 -0.22100
C 	C 	0.86730 0.09240 0.21820 0.02500
N 	N 	0.91090 0.56360 0.72930 -0.22100
C 	C 	0.86730 0.59240 0.71820 0.02500
N 	N 	0.91090 0.18640 0.02070 -0.22000
C 	C 	0.86730 0.15760 0.03180 0.02600
N 	N 	0.91090 0.68640 0.52070 -0.22100
C 	C 	0.86730 0.65760 0.53180 0.02500
N 	N 	0.41090 0.18640 0.52070 -0.22100
C 	C 	0.36730 0.15760 0.53180 0.02500
N 	N 	0.41090 0.68640 0.02070 -0.22000
C 	C 	0.36730 0.65760 0.03180 0.02600
N 	N 	0.52070 0.68640 0.41090 -0.22100
C 	C 	0.53180 0.65760 0.36730 0.02500
N 	N 	0.52070 0.18640 0.91090 -0.22100
C 	C 	0.53180 0.15760 0.86730 0.02500
N 	N 	0.02070 0.68640 0.91090 -0.22000
C 	C 	0.03180 0.65760 0.86730 0.02500
N 	N 	0.02070 0.18640 0.41090 -0.22000
C 	C 	0.03180 0.15760 0.36730 0.02600
N 	N 	0.22930 0.56360 0.91090 -0.22100
C 	C 	0.21820 0.59240 0.86730 0.02500
N 	N 	0.22930 0.06360 0.41090 -0.22000
C 	C 	0.21820 0.09240 0.36730 0.02600
N 	N 	0.72930 0.56360 0.41090 -0.22100
C 	C 	0.71820 0.59240 0.36730 0.02500
N 	N 	0.72930 0.06360 0.91090 -0.22100
C 	C 	0.71820 0.09240 0.86730 0.02500
N 	N 	0.72930 0.18640 0.33910 -0.22100
C 	C 	0.71820 0.15760 0.38270 0.02500
N 	N 	0.72930 0.68640 0.83910 -0.22100
C 	C 	0.71820 0.65760 0.88270 0.02500
N 	N 	0.22930 0.18640 0.83910 -0.22100
C 	C 	0.21820 0.15760 0.88270 0.02500
N 	N 	0.22930 0.68640 0.33910 -0.22100
C 	C 	0.21820 0.65760 0.38270 0.02500
N 	N 	0.02070 0.06360 0.83910 -0.22000
C 	C 	0.03180 0.09240 0.88270 0.02500
N 	N 	0.02070 0.56360 0.33910 -0.22000
C 	C 	0.03180 0.59240 0.38270 0.02600
N 	N 	0.52070 0.06360 0.33910 -0.22000
C 	C 	0.53180 0.09240 0.38270 0.02500
N 	N 	0.52070 0.56360 0.83910 -0.22100
C 	C 	0.53180 0.59240 0.88270 0.02500
N 	N 	0.41090 0.52070 0.68640 -0.22100
C 	C 	0.36730 0.53180 0.65760 0.02500
N 	N 	0.41090 0.02070 0.18640 -0.22000
C 	C 	0.36730 0.03180 0.15760 0.02600
N 	N 	0.91090 0.52070 0.18640 -0.22100
C 	C 	0.86730 0.53180 0.15760 0.02500
N 	N 	0.91090 0.02070 0.68640 -0.22000
C 	C 	0.86730 0.03180 0.65760 0.02500
N 	N 	0.91090 0.22930 0.56360 -0.22100
C 	C 	0.86730 0.21820 0.59240 0.02500
N 	N 	0.91090 0.72930 0.06360 -0.22100
C 	C 	0.86730 0.71820 0.09240 0.02500
N 	N 	0.41090 0.22930 0.06360 -0.22000
C 	C 	0.36730 0.21820 0.09240 0.02600
N 	N 	0.41090 0.72930 0.56360 -0.22100
C 	C 	0.36730 0.71820 0.59240 0.02500
N 	N 	0.33910 0.72930 0.18640 -0.22100
C 	C 	0.38270 0.71820 0.15760 0.02500
N 	N 	0.33910 0.22930 0.68640 -0.22100
C 	C 	0.38270 0.21820 0.65760 0.02500
N 	N 	0.83910 0.72930 0.68640 -0.22100
C 	C 	0.88270 0.71820 0.65760 0.02500
N 	N 	0.83910 0.22930 0.18640 -0.22100
C 	C 	0.88270 0.21820 0.15760 0.02500
N 	N 	0.83910 0.02070 0.06360 -0.22000
C 	C 	0.88270 0.03180 0.09240 0.02500
N 	N 	0.83910 0.52070 0.56360 -0.22100
C 	C 	0.88270 0.53180 0.59240 0.02500
N 	N 	0.33910 0.02070 0.56360 -0.22000
C 	C 	0.38270 0.03180 0.59240 0.02600
N 	N 	0.33910 0.52070 0.06360 -0.22000
C 	C 	0.38270 0.53180 0.09240 0.02500
N 	N 	0.68640 0.41090 0.52070 -0.22100
C 	C 	0.65760 0.36730 0.53180 0.02500
N 	N 	0.68640 0.91090 0.02070 -0.22000
C 	C 	0.65760 0.86730 0.03180 0.02500
N 	N 	0.18640 0.41090 0.02070 -0.22000
C 	C 	0.15760 0.36730 0.03180 0.02600
N 	N 	0.18640 0.91090 0.52070 -0.22100
C 	C 	0.15760 0.86730 0.53180 0.02500
N 	N 	0.56360 0.91090 0.22930 -0.22100
C 	C 	0.59240 0.86730 0.21820 0.02500
N 	N 	0.56360 0.41090 0.72930 -0.22100
C 	C 	0.59240 0.36730 0.71820 0.02500
N 	N 	0.06360 0.91090 0.72930 -0.22100
C 	C 	0.09240 0.86730 0.71820 0.02500
N 	N 	0.06360 0.41090 0.22930 -0.22000
C 	C 	0.09240 0.36730 0.21820 0.02600
N 	N 	0.18640 0.33910 0.72930 -0.22100
C 	C 	0.15760 0.38270 0.71820 0.02500
N 	N 	0.18640 0.83910 0.22930 -0.22100
C 	C 	0.15760 0.88270 0.21820 0.02500
N 	N 	0.68640 0.33910 0.22930 -0.22100
C 	C 	0.65760 0.38270 0.21820 0.02500
N 	N 	0.68640 0.83910 0.72930 -0.22100
C 	C 	0.65760 0.88270 0.71820 0.02500
N 	N 	0.06360 0.83910 0.02070 -0.22000
C 	C 	0.09240 0.88270 0.03180 0.02500
N 	N 	0.06360 0.33910 0.52070 -0.22000
C 	C 	0.09240 0.38270 0.53180 0.02500
N 	N 	0.56360 0.83910 0.52070 -0.22100
C 	C 	0.59240 0.88270 0.53180 0.02500
N 	N 	0.56360 0.33910 0.02070 -0.22000
C 	C 	0.59240 0.38270 0.03180 0.02600
N 	N 	0.93640 0.27070 0.58910 -0.22100
C 	C 	0.90760 0.28180 0.63270 0.02500
N 	N 	0.93640 0.77070 0.08910 -0.22100
C 	C 	0.90760 0.78180 0.13270 0.02500
N 	N 	0.43640 0.27070 0.08910 -0.22000
C 	C 	0.40760 0.28180 0.13270 0.02500
N 	N 	0.43640 0.77070 0.58910 -0.22100
C 	C 	0.40760 0.78180 0.63270 0.02500
N 	N 	0.81360 0.97930 0.08910 -0.22100
C 	C 	0.84240 0.96820 0.13270 0.02400
N 	N 	0.81360 0.47930 0.58910 -0.22100
C 	C 	0.84240 0.46820 0.63270 0.02500
N 	N 	0.31360 0.97930 0.58910 -0.22100
C 	C 	0.34240 0.96820 0.63270 0.02400
N 	N 	0.31360 0.47930 0.08910 -0.22000
C 	C 	0.34240 0.46820 0.13270 0.02500
N 	N 	0.43640 0.47930 0.66090 -0.22100
C 	C 	0.40760 0.46820 0.61730 0.02500
N 	N 	0.43640 0.97930 0.16090 -0.22100
C 	C 	0.40760 0.96820 0.11730 0.02300
N 	N 	0.93640 0.47930 0.16090 -0.22100
C 	C 	0.90760 0.46820 0.11730 0.02500
N 	N 	0.93640 0.97930 0.66090 -0.22100
C 	C 	0.90760 0.96820 0.61730 0.02400
N 	N 	0.31360 0.77070 0.16090 -0.22100
C 	C 	0.34240 0.78180 0.11730 0.02500
N 	N 	0.31360 0.27070 0.66090 -0.22100
C 	C 	0.34240 0.28180 0.61730 0.02500
N 	N 	0.81360 0.77070 0.66090 -0.22100
C 	C 	0.84240 0.78180 0.61730 0.02500
N 	N 	0.81360 0.27070 0.16090 -0.22100
C 	C 	0.84240 0.28180 0.11730 0.02500
N 	N 	0.77070 0.16090 0.31360 -0.22100
C 	C 	0.78180 0.11730 0.34240 0.02500
N 	N 	0.77070 0.66090 0.81360 -0.22100
C 	C 	0.78180 0.61730 0.84240 0.02500
N 	N 	0.27070 0.16090 0.81360 -0.22100
C 	C 	0.28180 0.11730 0.84240 0.02500
N 	N 	0.27070 0.66090 0.31360 -0.22100
C 	C 	0.28180 0.61730 0.34240 0.02500
N 	N 	0.47930 0.66090 0.43640 -0.22100
C 	C 	0.46820 0.61730 0.40760 0.02500
N 	N 	0.47930 0.16090 0.93640 -0.22100
C 	C 	0.46820 0.11730 0.90760 0.02500
N 	N 	0.97930 0.66090 0.93640 -0.22100
C 	C 	0.96820 0.61730 0.90760 0.02400
N 	N 	0.97930 0.16090 0.43640 -0.22100
C 	C 	0.96820 0.11730 0.40760 0.02300
N 	N 	0.97930 0.08910 0.81360 -0.22100
C 	C 	0.96820 0.13270 0.84240 0.02400
N 	N 	0.97930 0.58910 0.31360 -0.22100
C 	C 	0.96820 0.63270 0.34240 0.02400
N 	N 	0.47930 0.08910 0.31360 -0.22000
C 	C 	0.46820 0.13270 0.34240 0.02500
N 	N 	0.47930 0.58910 0.81360 -0.22100
C 	C 	0.46820 0.63270 0.84240 0.02500
N 	N 	0.27070 0.58910 0.93640 -0.22100
C 	C 	0.28180 0.63270 0.90760 0.02500
N 	N 	0.27070 0.08910 0.43640 -0.22000
C 	C 	0.28180 0.13270 0.40760 0.02500
N 	N 	0.77070 0.58910 0.43640 -0.22100
C 	C 	0.78180 0.63270 0.40760 0.02500
N 	N 	0.77070 0.08910 0.93640 -0.22100
C 	C 	0.78180 0.13270 0.90760 0.02500
N 	N 	0.66090 0.43640 0.47930 -0.22100
C 	C 	0.61730 0.40760 0.46820 0.02500
N 	N 	0.66090 0.93640 0.97930 -0.22100
C 	C 	0.61730 0.90760 0.96820 0.02400
N 	N 	0.16090 0.43640 0.97930 -0.22100
C 	C 	0.11730 0.40760 0.96820 0.02300
N 	N 	0.16090 0.93640 0.47930 -0.22100
C 	C 	0.11730 0.90760 0.46820 0.02500
N 	N 	0.16090 0.31360 0.77070 -0.22100
C 	C 	0.11730 0.34240 0.78180 0.02500
N 	N 	0.16090 0.81360 0.27070 -0.22100
C 	C 	0.11730 0.84240 0.28180 0.02500
N 	N 	0.66090 0.31360 0.27070 -0.22100
C 	C 	0.61730 0.34240 0.28180 0.02500
N 	N 	0.66090 0.81360 0.77070 -0.22100
C 	C 	0.61730 0.84240 0.78180 0.02500
N 	N 	0.58910 0.93640 0.27070 -0.22100
C 	C 	0.63270 0.90760 0.28180 0.02500
N 	N 	0.58910 0.43640 0.77070 -0.22100
C 	C 	0.63270 0.40760 0.78180 0.02500
N 	N 	0.08910 0.93640 0.77070 -0.22100
C 	C 	0.13270 0.90760 0.78180 0.02500
N 	N 	0.08910 0.43640 0.27070 -0.22000
C 	C 	0.13270 0.40760 0.28180 0.02500
N 	N 	0.08910 0.81360 0.97930 -0.22100
C 	C 	0.13270 0.84240 0.96820 0.02400
N 	N 	0.08910 0.31360 0.47930 -0.22000
C 	C 	0.13270 0.34240 0.46820 0.02500
N 	N 	0.58910 0.81360 0.47930 -0.22100
C 	C 	0.63270 0.84240 0.46820 0.02500
N 	N 	0.58910 0.31360 0.97930 -0.22100
C 	C 	0.63270 0.34240 0.96820 0.02400
Cu	Cu	0.50000 0.44350 0.69350 0.84100
N 	N 	0.50000 0.38640 0.63640 -0.24400
Cu	Cu	0.50000 0.94350 0.19350 0.84000
N 	N 	0.50000 0.88640 0.13640 -0.24400
Cu	Cu	0.00000 0.44350 0.19350 0.84100
N 	N 	0.00000 0.38640 0.13640 -0.24200
Cu	Cu	0.00000 0.94350 0.69350 0.84000
N 	N 	0.00000 0.88640 0.63640 -0.24300
Cu	Cu	0.75000 0.30650 0.19350 0.84100
N 	N 	0.75000 0.36360 0.13640 -0.24400
Cu	Cu	0.75000 0.80650 0.69350 0.84100
N 	N 	0.75000 0.86360 0.63640 -0.24400
Cu	Cu	0.25000 0.30650 0.69350 0.84100
N 	N 	0.25000 0.36360 0.63640 -0.24400
Cu	Cu	0.25000 0.80650 0.19350 0.84100
N 	N 	0.25000 0.86360 0.13640 -0.24400
Cu	Cu	0.25000 0.94350 0.55650 0.84000
N 	N 	0.25000 0.88640 0.61360 -0.24400
Cu	Cu	0.25000 0.44350 0.05650 0.84100
N 	N 	0.25000 0.38640 0.11360 -0.24400
Cu	Cu	0.75000 0.94350 0.05650 0.84000
N 	N 	0.75000 0.88640 0.11360 -0.24400
Cu	Cu	0.75000 0.44350 0.55650 0.84100
N 	N 	0.75000 0.38640 0.61360 -0.24400
Cu	Cu	0.00000 0.80650 0.05650 0.84100
N 	N 	-0.00000 0.86360 0.11360 -0.24300
Cu	Cu	-0.00000 0.30650 0.55650 0.84100
N 	N 	0.00000 0.36360 0.61360 -0.24300
Cu	Cu	0.50000 0.80650 0.55650 0.84100
N 	N 	0.50000 0.86360 0.61360 -0.24400
Cu	Cu	0.50000 0.30650 0.05650 0.84100
N 	N 	0.50000 0.36360 0.11360 -0.24400
Cu	Cu	0.69350 0.50000 0.44350 0.84100
N 	N 	0.63640 0.50000 0.38640 -0.24400
Cu	Cu	0.69350 0.00000 0.94350 0.84000
N 	N 	0.63640 0.00000 0.88640 -0.24300
Cu	Cu	0.19350 0.50000 0.94350 0.84000
N 	N 	0.13640 0.50000 0.88640 -0.24400
Cu	Cu	0.19350 0.00000 0.44350 0.84100
N 	N 	0.13640 0.00000 0.38640 -0.24200
Cu	Cu	0.19350 0.75000 0.30650 0.84100
N 	N 	0.13640 0.75000 0.36360 -0.24400
Cu	Cu	0.19350 0.25000 0.80650 0.84100
N 	N 	0.13640 0.25000 0.86360 -0.24400
Cu	Cu	0.69350 0.75000 0.80650 0.84100
N 	N 	0.63640 0.75000 0.86360 -0.24400
Cu	Cu	0.69350 0.25000 0.30650 0.84100
N 	N 	0.63640 0.25000 0.36360 -0.24400
Cu	Cu	0.55650 0.25000 0.94350 0.84000
N 	N 	0.61360 0.25000 0.88640 -0.24400
Cu	Cu	0.55650 0.75000 0.44350 0.84100
N 	N 	0.61360 0.75000 0.38640 -0.24400
Cu	Cu	0.05650 0.25000 0.44350 0.84100
N 	N 	0.11360 0.25000 0.38640 -0.24400
Cu	Cu	0.05650 0.75000 0.94350 0.84000
N 	N 	0.11360 0.75000 0.88640 -0.24400
Cu	Cu	0.05650 0.00000 0.80650 0.84100
N 	N 	0.11360 0.00000 0.86360 -0.24300
Cu	Cu	0.05650 0.50000 0.30650 0.84100
N 	N 	0.11360 0.50000 0.36360 -0.24400
Cu	Cu	0.55650 0.00000 0.30650 0.84100
N 	N 	0.61360 0.00000 0.36360 -0.24300
Cu	Cu	0.55650 0.50000 0.80650 0.84100
N 	N 	0.61360 0.50000 0.86360 -0.24400
Cu	Cu	0.44350 0.69350 0.50000 0.84100
N 	N 	0.38640 0.63640 0.50000 -0.24400
Cu	Cu	0.44350 0.19350 -0.00000 0.84100
N 	N 	0.38640 0.13640 -0.00000 -0.24200
Cu	Cu	0.94350 0.69350 -0.00000 0.84000
N 	N 	0.88640 0.63640 -0.00000 -0.24300
Cu	Cu	0.94350 0.19350 0.50000 0.84000
N 	N 	0.88640 0.13640 0.50000 -0.24400
Cu	Cu	0.30650 0.19350 0.75000 0.84100
N 	N 	0.36360 0.13640 0.75000 -0.24400
Cu	Cu	0.30650 0.69350 0.25000 0.84100
N 	N 	0.36360 0.63640 0.25000 -0.24400
Cu	Cu	0.80650 0.19350 0.25000 0.84100
N 	N 	0.86360 0.13640 0.25000 -0.24400
Cu	Cu	0.80650 0.69350 0.75000 0.84100
N 	N 	0.86360 0.63640 0.75000 -0.24400
Cu	Cu	0.94350 0.55650 0.25000 0.84000
N 	N 	0.88640 0.61360 0.25000 -0.24400
Cu	Cu	0.94350 0.05650 0.75000 0.84000
N 	N 	0.88640 0.11360 0.75000 -0.24400
Cu	Cu	0.44350 0.55650 0.75000 0.84100
N 	N 	0.38640 0.61360 0.75000 -0.24400
Cu	Cu	0.44350 0.05650 0.25000 0.84100
N 	N 	0.38640 0.11360 0.25000 -0.24400
Cu	Cu	0.80650 0.05650 -0.00000 0.84100
N 	N 	0.86360 0.11360 -0.00000 -0.24300
Cu	Cu	0.80650 0.55650 0.50000 0.84100
N 	N 	0.86360 0.61360 0.50000 -0.24400
Cu	Cu	0.30650 0.05650 0.50000 0.84100
N 	N 	0.36360 0.11360 0.50000 -0.24400
Cu	Cu	0.30650 0.55650 -0.00000 0.84100
N 	N 	0.36360 0.61360 -0.00000 -0.24300
Cu	Cu	0.50000 0.55650 0.30650 0.84100
N 	N 	0.50000 0.61360 0.36360 -0.24400
Cu	Cu	0.50000 0.05650 0.80650 0.84100
N 	N 	0.50000 0.11360 0.86360 -0.24400
Cu	Cu	0.00000 0.55650 0.80650 0.84100
N 	N 	0.00000 0.61360 0.86360 -0.24300
Cu	Cu	0.00000 0.05650 0.30650 0.84200
N 	N 	0.00000 0.11360 0.36360 -0.24200
Cu	Cu	0.25000 0.69350 0.80650 0.84100
N 	N 	0.25000 0.63640 0.86360 -0.24400
Cu	Cu	0.25000 0.19350 0.30650 0.84100
N 	N 	0.25000 0.13640 0.36360 -0.24400
Cu	Cu	0.75000 0.69350 0.30650 0.84100
N 	N 	0.75000 0.63640 0.36360 -0.24400
Cu	Cu	0.75000 0.19350 0.80650 0.84100
N 	N 	0.75000 0.13640 0.86360 -0.24400
Cu	Cu	0.75000 0.05650 0.44350 0.84100
N 	N 	0.75000 0.11360 0.38640 -0.24400
Cu	Cu	0.75000 0.55650 0.94350 0.84000
N 	N 	0.75000 0.61360 0.88640 -0.24400
Cu	Cu	0.25000 0.05650 0.94350 0.84000
N 	N 	0.25000 0.11360 0.88640 -0.24400
Cu	Cu	0.25000 0.55650 0.44350 0.84100
N 	N 	0.25000 0.61360 0.38640 -0.24400
Cu	Cu	0.00000 0.19350 0.94350 0.84000
N 	N 	0.00000 0.13640 0.88640 -0.24300
Cu	Cu	0.00000 0.69350 0.44350 0.84100
N 	N 	0.00000 0.63640 0.38640 -0.24300
Cu	Cu	0.50000 0.19350 0.44350 0.84100
N 	N 	0.50000 0.13640 0.38640 -0.24400
Cu	Cu	0.50000 0.69350 0.94350 0.84000
N 	N 	0.50000 0.63640 0.88640 -0.24400
Cu	Cu	0.30650 0.50000 0.55650 0.84100
N 	N 	0.36360 0.50000 0.61360 -0.24400
Cu	Cu	0.30650 0.00000 0.05650 0.84200
N 	N 	0.36360 0.00000 0.11360 -0.24200
Cu	Cu	0.80650 0.50000 0.05650 0.84100
N 	N 	0.86360 0.50000 0.11360 -0.24400
Cu	Cu	0.80650 0.00000 0.55650 0.84100
N 	N 	0.86360 0.00000 0.61360 -0.24300
Cu	Cu	0.80650 0.25000 0.69350 0.84100
N 	N 	0.86360 0.25000 0.63640 -0.24400
Cu	Cu	0.80650 0.75000 0.19350 0.84100
N 	N 	0.86360 0.75000 0.13640 -0.24400
Cu	Cu	0.30650 0.25000 0.19350 0.84100
N 	N 	0.36360 0.25000 0.13640 -0.24400
Cu	Cu	0.30650 0.75000 0.69350 0.84100
N 	N 	0.36360 0.75000 0.63640 -0.24400
Cu	Cu	0.44350 0.75000 0.05650 0.84100
N 	N 	0.38640 0.75000 0.11360 -0.24400
Cu	Cu	0.44350 0.25000 0.55650 0.84100
N 	N 	0.38640 0.25000 0.61360 -0.24400
Cu	Cu	0.94350 0.75000 0.55650 0.84000
N 	N 	0.88640 0.75000 0.61360 -0.24400
Cu	Cu	0.94350 0.25000 0.05650 0.84000
N 	N 	0.88640 0.25000 0.11360 -0.24400
Cu	Cu	0.94350 0.00000 0.19350 0.84000
N 	N 	0.88640 0.00000 0.13640 -0.24300
Cu	Cu	0.94350 0.50000 0.69350 0.84000
N 	N 	0.88640 0.50000 0.63640 -0.24400
Cu	Cu	0.44350 0.00000 0.69350 0.84100
N 	N 	0.38640 0.00000 0.63640 -0.24300
Cu	Cu	0.44350 0.50000 0.19350 0.84100
N 	N 	0.38640 0.50000 0.13640 -0.24400
Cu	Cu	0.55650 0.30650 0.50000 0.84100
N 	N 	0.61360 0.36360 0.50000 -0.24400
Cu	Cu	0.55650 0.80650 -0.00000 0.84100
N 	N 	0.61360 0.86360 -0.00000 -0.24300
Cu	Cu	0.05650 0.30650 -0.00000 0.84200
N 	N 	0.11360 0.36360 -0.00000 -0.24200
Cu	Cu	0.05650 0.80650 0.50000 0.84100
N 	N 	0.11360 0.86360 0.50000 -0.24400
Cu	Cu	0.69350 0.80650 0.25000 0.84100
N 	N 	0.63640 0.86360 0.25000 -0.24400
Cu	Cu	0.69350 0.30650 0.75000 0.84100
N 	N 	0.63640 0.36360 0.75000 -0.24400
Cu	Cu	0.19350 0.80650 0.75000 0.84100
N 	N 	0.13640 0.86360 0.75000 -0.24400
Cu	Cu	0.19350 0.30650 0.25000 0.84100
N 	N 	0.13640 0.36360 0.25000 -0.24400
Cu	Cu	0.05650 0.44350 0.75000 0.84100
N 	N 	0.11360 0.38640 0.75000 -0.24400
Cu	Cu	0.05650 0.94350 0.25000 0.84000
N 	N 	0.11360 0.88640 0.25000 -0.24400
Cu	Cu	0.55650 0.44350 0.25000 0.84100
N 	N 	0.61360 0.38640 0.25000 -0.24400
Cu	Cu	0.55650 0.94350 0.75000 0.84000
N 	N 	0.61360 0.88640 0.75000 -0.24400
Cu	Cu	0.19350 0.94350 -0.00000 0.84000
N 	N 	0.13640 0.88640 -0.00000 -0.24300
Cu	Cu	0.19350 0.44350 0.50000 0.84100
N 	N 	0.13640 0.38640 0.50000 -0.24400
Cu	Cu	0.69350 0.94350 0.50000 0.84000
N 	N 	0.63640 0.88640 0.50000 -0.24400
Cu	Cu	0.69350 0.44350 -0.00000 0.84100
N 	N 	0.63640 0.38640 -0.00000 -0.24300
O 	O 	0.50000 0.50000 0.75000 -0.61900
O 	O 	0.50000 0.00000 0.25000 -0.61800
O 	O 	0.75000 0.25000 0.25000 -0.61900
O 	O 	0.75000 0.75000 0.75000 -0.61900
O 	O 	0.25000 0.00000 0.50000 -0.61800
O 	O 	0.25000 0.50000 -0.00000 -0.61800
O 	O 	-0.00000 0.75000 -0.00000 -0.61700
O 	O 	0.00000 0.25000 0.50000 -0.61800
O 	O 	0.75000 0.50000 0.50000 -0.61900
O 	O 	0.25000 0.75000 0.25000 -0.61900
O 	O 	0.50000 0.25000 -0.00000 -0.61800
O 	O 	0.00000 0.00000 0.75000 -0.61700
O 	O 	0.50000 0.75000 0.50000 -0.61900
O 	O 	0.25000 0.25000 0.75000 -0.61900
O 	O 	0.00000 0.50000 0.25000 -0.61800
O 	O 	0.75000 0.00000 -0.00000 -0.61700
O 	O 	0.50000 0.50000 0.25000 -0.61900
O 	O 	0.50000 0.00000 0.75000 -0.61800
O 	O 	0.25000 0.75000 0.75000 -0.61900
O 	O 	0.25000 0.25000 0.25000 -0.61900
O 	O 	0.75000 0.00000 0.50000 -0.61800
O 	O 	0.75000 0.50000 -0.00000 -0.61800
O 	O 	-0.00000 0.25000 -0.00000 -0.61600
O 	O 	0.00000 0.75000 0.50000 -0.61800
O 	O 	0.25000 0.50000 0.50000 -0.61900
O 	O 	0.75000 0.25000 0.75000 -0.61900
O 	O 	0.50000 0.75000 -0.00000 -0.61800
O 	O 	0.00000 0.00000 0.25000 -0.61600
O 	O 	0.50000 0.25000 0.50000 -0.61900
O 	O 	0.75000 0.75000 0.25000 -0.61900
O 	O 	0.00000 0.50000 0.75000 -0.61800
O 	O 	0.25000 0.00000 -0.00000 -0.61600
