data_crystal

_cell_length_a 24.74300
_cell_length_b 24.74300
_cell_length_c 24.74300
_cell_angle_alpha 90.00000
_cell_angle_beta  90.00000
_cell_angle_gamma 90.00000

_symmetry_space_group_name_	'P 1'
_symmetry_space_group_name_H-M	'P 1'

loop_
_symmetry_equiv_pos_as_xyz
  x,y,z

loop_
_atom_site_label
_atom_site_type_symbol
_atom_site_fract_x
_atom_site_fract_y
_atom_site_fract_z
_atom_site_charge
N 	N 	0.91060 0.52070 0.18660 -0.22100
C 	C 	0.86700 0.53170 0.15780 0.02500
N 	N 	0.91060 0.02070 0.68660 -0.22100
C 	C 	0.86700 0.03170 0.65780 0.02500
N 	N 	0.41060 0.52070 0.68660 -0.22100
C 	C 	0.36700 0.53170 0.65780 0.02500
N 	N 	0.41060 0.02070 0.18660 -0.22000
C 	C 	0.36700 0.03170 0.15780 0.02600
N 	N 	0.33940 0.22930 0.68660 -0.22100
C 	C 	0.38300 0.21830 0.65780 0.02500
N 	N 	0.33940 0.72930 0.18660 -0.22100
C 	C 	0.38300 0.71830 0.15780 0.02500
N 	N 	0.83940 0.22930 0.18660 -0.22100
C 	C 	0.88300 0.21830 0.15780 0.02500
N 	N 	0.83940 0.72930 0.68660 -0.22100
C 	C 	0.88300 0.71830 0.65780 0.02500
N 	N 	0.83940 0.02070 0.06340 -0.22000
C 	C 	0.88300 0.03170 0.09220 0.02500
N 	N 	0.83940 0.52070 0.56340 -0.22100
C 	C 	0.88300 0.53170 0.59220 0.02500
N 	N 	0.33940 0.02070 0.56340 -0.22000
C 	C 	0.38300 0.03170 0.59220 0.02600
N 	N 	0.33940 0.52070 0.06340 -0.22100
C 	C 	0.38300 0.53170 0.09220 0.02500
N 	N 	0.41060 0.72930 0.56340 -0.22100
C 	C 	0.36700 0.71830 0.59220 0.02500
N 	N 	0.41060 0.22930 0.06340 -0.22100
C 	C 	0.36700 0.21830 0.09220 0.02600
N 	N 	0.91060 0.72930 0.06340 -0.22100
C 	C 	0.86700 0.71830 0.09220 0.02500
N 	N 	0.91060 0.22930 0.56340 -0.22100
C 	C 	0.86700 0.21830 0.59220 0.02500
N 	N 	0.18660 0.91060 0.52070 -0.22100
C 	C 	0.15780 0.86700 0.53170 0.02500
N 	N 	0.18660 0.41060 0.02070 -0.22000
C 	C 	0.15780 0.36700 0.03170 0.02600
N 	N 	0.68660 0.91060 0.02070 -0.22100
C 	C 	0.65780 0.86700 0.03170 0.02500
N 	N 	0.68660 0.41060 0.52070 -0.22100
C 	C 	0.65780 0.36700 0.53170 0.02500
N 	N 	0.68660 0.33940 0.22930 -0.22100
C 	C 	0.65780 0.38300 0.21830 0.02500
N 	N 	0.68660 0.83940 0.72930 -0.22100
C 	C 	0.65780 0.88300 0.71830 0.02500
N 	N 	0.18660 0.33940 0.72930 -0.22100
C 	C 	0.15780 0.38300 0.71830 0.02500
N 	N 	0.18660 0.83940 0.22930 -0.22100
C 	C 	0.15780 0.88300 0.21830 0.02500
N 	N 	0.06340 0.83940 0.02070 -0.22000
C 	C 	0.09220 0.88300 0.03170 0.02500
N 	N 	0.06340 0.33940 0.52070 -0.22100
C 	C 	0.09220 0.38300 0.53170 0.02500
N 	N 	0.56340 0.83940 0.52070 -0.22100
C 	C 	0.59220 0.88300 0.53170 0.02500
N 	N 	0.56340 0.33940 0.02070 -0.22000
C 	C 	0.59220 0.38300 0.03170 0.02600
N 	N 	0.56340 0.41060 0.72930 -0.22100
C 	C 	0.59220 0.36700 0.71830 0.02500
N 	N 	0.56340 0.91060 0.22930 -0.22100
C 	C 	0.59220 0.86700 0.21830 0.02500
N 	N 	0.06340 0.41060 0.22930 -0.22100
C 	C 	0.09220 0.36700 0.21830 0.02600
N 	N 	0.06340 0.91060 0.72930 -0.22100
C 	C 	0.09220 0.86700 0.71830 0.02500
N 	N 	0.52070 0.18660 0.91060 -0.22100
C 	C 	0.53170 0.15780 0.86700 0.02500
N 	N 	0.52070 0.68660 0.41060 -0.22100
C 	C 	0.53170 0.65780 0.36700 0.02500
N 	N 	0.02070 0.18660 0.41060 -0.22000
C 	C 	0.03170 0.15780 0.36700 0.02600
N 	N 	0.02070 0.68660 0.91060 -0.22100
C 	C 	0.03170 0.65780 0.86700 0.02500
N 	N 	0.22930 0.68660 0.33940 -0.22100
C 	C 	0.21830 0.65780 0.38300 0.02500
N 	N 	0.22930 0.18660 0.83940 -0.22100
C 	C 	0.21830 0.15780 0.88300 0.02500
N 	N 	0.72930 0.68660 0.83940 -0.22100
C 	C 	0.71830 0.65780 0.88300 0.02500
N 	N 	0.72930 0.18660 0.33940 -0.22100
C 	C 	0.71830 0.15780 0.38300 0.02500
N 	N 	0.02070 0.06340 0.83940 -0.22000
C 	C 	0.03170 0.09220 0.88300 0.02500
N 	N 	0.02070 0.56340 0.33940 -0.22000
C 	C 	0.03170 0.59220 0.38300 0.02600
N 	N 	0.52070 0.06340 0.33940 -0.22100
C 	C 	0.53170 0.09220 0.38300 0.02500
N 	N 	0.52070 0.56340 0.83940 -0.22100
C 	C 	0.53170 0.59220 0.88300 0.02500
N 	N 	0.72930 0.56340 0.41060 -0.22100
C 	C 	0.71830 0.59220 0.36700 0.02500
N 	N 	0.72930 0.06340 0.91060 -0.22100
C 	C 	0.71830 0.09220 0.86700 0.02500
N 	N 	0.22930 0.56340 0.91060 -0.22100
C 	C 	0.21830 0.59220 0.86700 0.02500
N 	N 	0.22930 0.06340 0.41060 -0.22100
C 	C 	0.21830 0.09220 0.36700 0.02600
N 	N 	0.27070 0.16060 0.81340 -0.22100
C 	C 	0.28170 0.11700 0.84220 0.02500
N 	N 	0.27070 0.66060 0.31340 -0.22100
C 	C 	0.28170 0.61700 0.34220 0.02500
N 	N 	0.77070 0.16060 0.31340 -0.22100
C 	C 	0.78170 0.11700 0.34220 0.02500
N 	N 	0.77070 0.66060 0.81340 -0.22100
C 	C 	0.78170 0.61700 0.84220 0.02500
N 	N 	0.97930 0.58940 0.31340 -0.22200
C 	C 	0.96830 0.63300 0.34220 0.02400
N 	N 	0.97930 0.08940 0.81340 -0.22200
C 	C 	0.96830 0.13300 0.84220 0.02400
N 	N 	0.47930 0.58940 0.81340 -0.22100
C 	C 	0.46830 0.63300 0.84220 0.02500
N 	N 	0.47930 0.08940 0.31340 -0.22100
C 	C 	0.46830 0.13300 0.34220 0.02500
N 	N 	0.77070 0.08940 0.93660 -0.22100
C 	C 	0.78170 0.13300 0.90780 0.02500
N 	N 	0.77070 0.58940 0.43660 -0.22100
C 	C 	0.78170 0.63300 0.40780 0.02500
N 	N 	0.27070 0.08940 0.43660 -0.22100
C 	C 	0.28170 0.13300 0.40780 0.02500
N 	N 	0.27070 0.58940 0.93660 -0.22100
C 	C 	0.28170 0.63300 0.90780 0.02500
N 	N 	0.47930 0.66060 0.43660 -0.22100
C 	C 	0.46830 0.61700 0.40780 0.02500
N 	N 	0.47930 0.16060 0.93660 -0.22200
C 	C 	0.46830 0.11700 0.90780 0.02500
N 	N 	0.97930 0.66060 0.93660 -0.22100
C 	C 	0.96830 0.61700 0.90780 0.02400
N 	N 	0.97930 0.16060 0.43660 -0.22200
C 	C 	0.96830 0.11700 0.40780 0.02300
N 	N 	0.66060 0.43660 0.47930 -0.22100
C 	C 	0.61700 0.40780 0.46830 0.02500
N 	N 	0.66060 0.93660 0.97930 -0.22100
C 	C 	0.61700 0.90780 0.96830 0.02400
N 	N 	0.16060 0.43660 0.97930 -0.22200
C 	C 	0.11700 0.40780 0.96830 0.02300
N 	N 	0.16060 0.93660 0.47930 -0.22200
C 	C 	0.11700 0.90780 0.46830 0.02500
N 	N 	0.08940 0.93660 0.77070 -0.22100
C 	C 	0.13300 0.90780 0.78170 0.02500
N 	N 	0.08940 0.43660 0.27070 -0.22100
C 	C 	0.13300 0.40780 0.28170 0.02500
N 	N 	0.58940 0.93660 0.27070 -0.22100
C 	C 	0.63300 0.90780 0.28170 0.02500
N 	N 	0.58940 0.43660 0.77070 -0.22100
C 	C 	0.63300 0.40780 0.78170 0.02500
N 	N 	0.58940 0.31340 0.97930 -0.22200
C 	C 	0.63300 0.34220 0.96830 0.02400
N 	N 	0.58940 0.81340 0.47930 -0.22100
C 	C 	0.63300 0.84220 0.46830 0.02500
N 	N 	0.08940 0.31340 0.47930 -0.22100
C 	C 	0.13300 0.34220 0.46830 0.02500
N 	N 	0.08940 0.81340 0.97930 -0.22200
C 	C 	0.13300 0.84220 0.96830 0.02400
N 	N 	0.16060 0.81340 0.27070 -0.22100
C 	C 	0.11700 0.84220 0.28170 0.02500
N 	N 	0.16060 0.31340 0.77070 -0.22100
C 	C 	0.11700 0.34220 0.78170 0.02500
N 	N 	0.66060 0.81340 0.77070 -0.22100
C 	C 	0.61700 0.84220 0.78170 0.02500
N 	N 	0.66060 0.31340 0.27070 -0.22100
C 	C 	0.61700 0.34220 0.28170 0.02500
N 	N 	0.93660 0.77070 0.08940 -0.22100
C 	C 	0.90780 0.78170 0.13300 0.02500
N 	N 	0.93660 0.27070 0.58940 -0.22100
C 	C 	0.90780 0.28170 0.63300 0.02500
N 	N 	0.43660 0.77070 0.58940 -0.22100
C 	C 	0.40780 0.78170 0.63300 0.02500
N 	N 	0.43660 0.27070 0.08940 -0.22100
C 	C 	0.40780 0.28170 0.13300 0.02500
N 	N 	0.43660 0.47930 0.66060 -0.22100
C 	C 	0.40780 0.46830 0.61700 0.02500
N 	N 	0.43660 0.97930 0.16060 -0.22200
C 	C 	0.40780 0.96830 0.11700 0.02300
N 	N 	0.93660 0.47930 0.16060 -0.22200
C 	C 	0.90780 0.46830 0.11700 0.02500
N 	N 	0.93660 0.97930 0.66060 -0.22100
C 	C 	0.90780 0.96830 0.61700 0.02400
N 	N 	0.81340 0.27070 0.16060 -0.22100
C 	C 	0.84220 0.28170 0.11700 0.02500
N 	N 	0.81340 0.77070 0.66060 -0.22100
C 	C 	0.84220 0.78170 0.61700 0.02500
N 	N 	0.31340 0.27070 0.66060 -0.22100
C 	C 	0.34220 0.28170 0.61700 0.02500
N 	N 	0.31340 0.77070 0.16060 -0.22100
C 	C 	0.34220 0.78170 0.11700 0.02500
N 	N 	0.31340 0.97930 0.58940 -0.22200
C 	C 	0.34220 0.96830 0.63300 0.02400
N 	N 	0.31340 0.47930 0.08940 -0.22100
C 	C 	0.34220 0.46830 0.13300 0.02500
N 	N 	0.81340 0.97930 0.08940 -0.22200
C 	C 	0.84220 0.96830 0.13300 0.02400
N 	N 	0.81340 0.47930 0.58940 -0.22100
C 	C 	0.84220 0.46830 0.63300 0.02500
N 	N 	0.08940 0.47930 0.81340 -0.22100
C 	C 	0.13300 0.46830 0.84220 0.02500
N 	N 	0.08940 0.97930 0.31340 -0.22200
C 	C 	0.13300 0.96830 0.34220 0.02300
N 	N 	0.58940 0.47930 0.31340 -0.22100
C 	C 	0.63300 0.46830 0.34220 0.02500
N 	N 	0.58940 0.97930 0.81340 -0.22100
C 	C 	0.63300 0.96830 0.84220 0.02400
N 	N 	0.66060 0.77070 0.31340 -0.22100
C 	C 	0.61700 0.78170 0.34220 0.02500
N 	N 	0.66060 0.27070 0.81340 -0.22100
C 	C 	0.61700 0.28170 0.84220 0.02500
N 	N 	0.16060 0.77070 0.81340 -0.22100
C 	C 	0.11700 0.78170 0.84220 0.02500
N 	N 	0.16060 0.27070 0.31340 -0.22100
C 	C 	0.11700 0.28170 0.34220 0.02500
N 	N 	0.16060 0.97930 0.93660 -0.22200
C 	C 	0.11700 0.96830 0.90780 0.02300
N 	N 	0.16060 0.47930 0.43660 -0.22100
C 	C 	0.11700 0.46830 0.40780 0.02500
N 	N 	0.66060 0.97930 0.43660 -0.22100
C 	C 	0.61700 0.96830 0.40780 0.02400
N 	N 	0.66060 0.47930 0.93660 -0.22100
C 	C 	0.61700 0.46830 0.90780 0.02500
N 	N 	0.58940 0.27070 0.43660 -0.22100
C 	C 	0.63300 0.28170 0.40780 0.02500
N 	N 	0.58940 0.77070 0.93660 -0.22100
C 	C 	0.63300 0.78170 0.90780 0.02500
N 	N 	0.08940 0.27070 0.93660 -0.22200
C 	C 	0.13300 0.28170 0.90780 0.02500
N 	N 	0.08940 0.77070 0.43660 -0.22100
C 	C 	0.13300 0.78170 0.40780 0.02500
N 	N 	0.81340 0.08940 0.47930 -0.22100
C 	C 	0.84220 0.13300 0.46830 0.02500
N 	N 	0.81340 0.58940 0.97930 -0.22100
C 	C 	0.84220 0.63300 0.96830 0.02400
N 	N 	0.31340 0.08940 0.97930 -0.22200
C 	C 	0.34220 0.13300 0.96830 0.02300
N 	N 	0.31340 0.58940 0.47930 -0.22100
C 	C 	0.34220 0.63300 0.46830 0.02500
N 	N 	0.31340 0.66060 0.77070 -0.22100
C 	C 	0.34220 0.61700 0.78170 0.02500
N 	N 	0.31340 0.16060 0.27070 -0.22100
C 	C 	0.34220 0.11700 0.28170 0.02500
N 	N 	0.81340 0.66060 0.27070 -0.22100
C 	C 	0.84220 0.61700 0.28170 0.02500
N 	N 	0.81340 0.16060 0.77070 -0.22100
C 	C 	0.84220 0.11700 0.78170 0.02500
N 	N 	0.93660 0.16060 0.97930 -0.22200
C 	C 	0.90780 0.11700 0.96830 0.02300
N 	N 	0.93660 0.66060 0.47930 -0.22100
C 	C 	0.90780 0.61700 0.46830 0.02500
N 	N 	0.43660 0.16060 0.47930 -0.22100
C 	C 	0.40780 0.11700 0.46830 0.02500
N 	N 	0.43660 0.66060 0.97930 -0.22100
C 	C 	0.40780 0.61700 0.96830 0.02400
N 	N 	0.43660 0.58940 0.27070 -0.22100
C 	C 	0.40780 0.63300 0.28170 0.02500
N 	N 	0.43660 0.08940 0.77070 -0.22100
C 	C 	0.40780 0.13300 0.78170 0.02500
N 	N 	0.93660 0.58940 0.77070 -0.22100
C 	C 	0.90780 0.63300 0.78170 0.02500
N 	N 	0.93660 0.08940 0.27070 -0.22200
C 	C 	0.90780 0.13300 0.28170 0.02500
N 	N 	0.47930 0.81340 0.08940 -0.22100
C 	C 	0.46830 0.84220 0.13300 0.02500
N 	N 	0.47930 0.31340 0.58940 -0.22100
C 	C 	0.46830 0.34220 0.63300 0.02500
N 	N 	0.97930 0.81340 0.58940 -0.22100
C 	C 	0.96830 0.84220 0.63300 0.02400
N 	N 	0.97930 0.31340 0.08940 -0.22200
C 	C 	0.96830 0.34220 0.13300 0.02300
N 	N 	0.77070 0.31340 0.66060 -0.22100
C 	C 	0.78170 0.34220 0.61700 0.02500
N 	N 	0.77070 0.81340 0.16060 -0.22100
C 	C 	0.78170 0.84220 0.11700 0.02500
N 	N 	0.27070 0.31340 0.16060 -0.22100
C 	C 	0.28170 0.34220 0.11700 0.02500
N 	N 	0.27070 0.81340 0.66060 -0.22100
C 	C 	0.28170 0.84220 0.61700 0.02500
N 	N 	0.97930 0.93660 0.16060 -0.22200
C 	C 	0.96830 0.90780 0.11700 0.02300
N 	N 	0.97930 0.43660 0.66060 -0.22100
C 	C 	0.96830 0.40780 0.61700 0.02400
N 	N 	0.47930 0.93660 0.66060 -0.22100
C 	C 	0.46830 0.90780 0.61700 0.02500
N 	N 	0.47930 0.43660 0.16060 -0.22100
C 	C 	0.46830 0.40780 0.11700 0.02500
N 	N 	0.27070 0.43660 0.58940 -0.22100
C 	C 	0.28170 0.40780 0.63300 0.02500
N 	N 	0.27070 0.93660 0.08940 -0.22200
C 	C 	0.28170 0.90780 0.13300 0.02500
N 	N 	0.77070 0.43660 0.08940 -0.22100
C 	C 	0.78170 0.40780 0.13300 0.02500
N 	N 	0.77070 0.93660 0.58940 -0.22100
C 	C 	0.78170 0.90780 0.63300 0.02500
N 	N 	0.72930 0.83940 0.18660 -0.22100
C 	C 	0.71830 0.88300 0.15780 0.02500
N 	N 	0.72930 0.33940 0.68660 -0.22100
C 	C 	0.71830 0.38300 0.65780 0.02500
N 	N 	0.22930 0.83940 0.68660 -0.22100
C 	C 	0.21830 0.88300 0.65780 0.02500
N 	N 	0.22930 0.33940 0.18660 -0.22100
C 	C 	0.21830 0.38300 0.15780 0.02500
N 	N 	0.02070 0.41060 0.68660 -0.22000
C 	C 	0.03170 0.36700 0.65780 0.02600
N 	N 	0.02070 0.91060 0.18660 -0.22100
C 	C 	0.03170 0.86700 0.15780 0.02500
N 	N 	0.52070 0.41060 0.18660 -0.22100
C 	C 	0.53170 0.36700 0.15780 0.02500
N 	N 	0.52070 0.91060 0.68660 -0.22100
C 	C 	0.53170 0.86700 0.65780 0.02500
N 	N 	0.22930 0.91060 0.06340 -0.22100
C 	C 	0.21830 0.86700 0.09220 0.02500
N 	N 	0.22930 0.41060 0.56340 -0.22100
C 	C 	0.21830 0.36700 0.59220 0.02500
N 	N 	0.72930 0.91060 0.56340 -0.22100
C 	C 	0.71830 0.86700 0.59220 0.02500
N 	N 	0.72930 0.41060 0.06340 -0.22100
C 	C 	0.71830 0.36700 0.09220 0.02500
N 	N 	0.52070 0.33940 0.56340 -0.22100
C 	C 	0.53170 0.38300 0.59220 0.02500
N 	N 	0.52070 0.83940 0.06340 -0.22100
C 	C 	0.53170 0.88300 0.09220 0.02500
N 	N 	0.02070 0.33940 0.06340 -0.22000
C 	C 	0.03170 0.38300 0.09220 0.02600
N 	N 	0.02070 0.83940 0.56340 -0.22100
C 	C 	0.03170 0.88300 0.59220 0.02500
N 	N 	0.33940 0.56340 0.52070 -0.22100
C 	C 	0.38300 0.59220 0.53170 0.02500
N 	N 	0.33940 0.06340 0.02070 -0.22000
C 	C 	0.38300 0.09220 0.03170 0.02600
N 	N 	0.83940 0.56340 0.02070 -0.22100
C 	C 	0.88300 0.59220 0.03170 0.02500
N 	N 	0.83940 0.06340 0.52070 -0.22100
C 	C 	0.88300 0.09220 0.53170 0.02500
N 	N 	0.91060 0.06340 0.22930 -0.22100
C 	C 	0.86700 0.09220 0.21830 0.02500
N 	N 	0.91060 0.56340 0.72930 -0.22100
C 	C 	0.86700 0.59220 0.71830 0.02500
N 	N 	0.41060 0.06340 0.72930 -0.22100
C 	C 	0.36700 0.09220 0.71830 0.02500
N 	N 	0.41060 0.56340 0.22930 -0.22100
C 	C 	0.36700 0.59220 0.21830 0.02500
N 	N 	0.41060 0.68660 0.02070 -0.22000
C 	C 	0.36700 0.65780 0.03170 0.02600
N 	N 	0.41060 0.18660 0.52070 -0.22100
C 	C 	0.36700 0.15780 0.53170 0.02500
N 	N 	0.91060 0.68660 0.52070 -0.22100
C 	C 	0.86700 0.65780 0.53170 0.02500
N 	N 	0.91060 0.18660 0.02070 -0.22100
C 	C 	0.86700 0.15780 0.03170 0.02500
N 	N 	0.83940 0.18660 0.72930 -0.22100
C 	C 	0.88300 0.15780 0.71830 0.02500
N 	N 	0.83940 0.68660 0.22930 -0.22100
C 	C 	0.88300 0.65780 0.21830 0.02500
N 	N 	0.33940 0.18660 0.22930 -0.22100
C 	C 	0.38300 0.15780 0.21830 0.02500
N 	N 	0.33940 0.68660 0.72930 -0.22100
C 	C 	0.38300 0.65780 0.71830 0.02500
N 	N 	0.06340 0.22930 0.91060 -0.22100
C 	C 	0.09220 0.21830 0.86700 0.02500
N 	N 	0.06340 0.72930 0.41060 -0.22100
C 	C 	0.09220 0.71830 0.36700 0.02500
N 	N 	0.56340 0.22930 0.41060 -0.22100
C 	C 	0.59220 0.21830 0.36700 0.02500
N 	N 	0.56340 0.72930 0.91060 -0.22100
C 	C 	0.59220 0.71830 0.86700 0.02500
N 	N 	0.56340 0.52070 0.33940 -0.22100
C 	C 	0.59220 0.53170 0.38300 0.02500
N 	N 	0.56340 0.02070 0.83940 -0.22100
C 	C 	0.59220 0.03170 0.88300 0.02500
N 	N 	0.06340 0.52070 0.83940 -0.22100
C 	C 	0.09220 0.53170 0.88300 0.02500
N 	N 	0.06340 0.02070 0.33940 -0.22000
C 	C 	0.09220 0.03170 0.38300 0.02600
N 	N 	0.18660 0.72930 0.83940 -0.22100
C 	C 	0.15780 0.71830 0.88300 0.02500
N 	N 	0.18660 0.22930 0.33940 -0.22100
C 	C 	0.15780 0.21830 0.38300 0.02500
N 	N 	0.68660 0.72930 0.33940 -0.22100
C 	C 	0.65780 0.71830 0.38300 0.02500
N 	N 	0.68660 0.22930 0.83940 -0.22100
C 	C 	0.65780 0.21830 0.88300 0.02500
N 	N 	0.68660 0.02070 0.41060 -0.22000
C 	C 	0.65780 0.03170 0.36700 0.02600
N 	N 	0.68660 0.52070 0.91060 -0.22100
C 	C 	0.65780 0.53170 0.86700 0.02500
N 	N 	0.18660 0.02070 0.91060 -0.22100
C 	C 	0.15780 0.03170 0.86700 0.02500
N 	N 	0.18660 0.52070 0.41060 -0.22100
C 	C 	0.15780 0.53170 0.36700 0.02500
Cu	Cu	0.80650 0.50000 0.05650 0.84100
N 	N 	0.86360 0.50000 0.11360 -0.24300
Cu	Cu	0.80650 0.00000 0.55650 0.84100
N 	N 	0.86360 0.00000 0.61360 -0.24200
Cu	Cu	0.44350 0.25000 0.55650 0.84100
N 	N 	0.38640 0.25000 0.61360 -0.24300
Cu	Cu	0.44350 0.75000 0.05650 0.84100
N 	N 	0.38640 0.75000 0.11360 -0.24300
Cu	Cu	0.94350 -0.00000 0.19350 0.84000
N 	N 	0.88640 0.00000 0.13640 -0.24200
Cu	Cu	0.94350 0.50000 0.69350 0.84000
N 	N 	0.88640 0.50000 0.63640 -0.24300
Cu	Cu	0.30650 0.75000 0.69350 0.84100
N 	N 	0.36360 0.75000 0.63640 -0.24300
Cu	Cu	0.30650 0.25000 0.19350 0.84100
N 	N 	0.36360 0.25000 0.13640 -0.24300
Cu	Cu	0.05650 0.80650 0.50000 0.84100
N 	N 	0.11360 0.86360 0.50000 -0.24300
Cu	Cu	0.05650 0.30650 -0.00000 0.84100
N 	N 	0.11360 0.36360 -0.00000 -0.24100
Cu	Cu	0.55650 0.44350 0.25000 0.84100
N 	N 	0.61360 0.38640 0.25000 -0.24300
Cu	Cu	0.55650 0.94350 0.75000 0.84000
N 	N 	0.61360 0.88640 0.75000 -0.24300
Cu	Cu	0.19350 0.94350 -0.00000 0.84000
N 	N 	0.13640 0.88640 -0.00000 -0.24200
Cu	Cu	0.19350 0.44350 0.50000 0.84100
N 	N 	0.13640 0.38640 0.50000 -0.24300
Cu	Cu	0.69350 0.30650 0.75000 0.84100
N 	N 	0.63640 0.36360 0.75000 -0.24300
Cu	Cu	0.69350 0.80650 0.25000 0.84100
N 	N 	0.63640 0.86360 0.25000 -0.24300
Cu	Cu	0.50000 0.05650 0.80650 0.84100
N 	N 	0.50000 0.11360 0.86360 -0.24300
Cu	Cu	0.00000 0.05650 0.30650 0.84100
N 	N 	0.00000 0.11360 0.36360 -0.24100
Cu	Cu	0.25000 0.55650 0.44350 0.84100
N 	N 	0.25000 0.61360 0.38640 -0.24300
Cu	Cu	0.75000 0.55650 0.94350 0.84000
N 	N 	0.75000 0.61360 0.88640 -0.24300
Cu	Cu	0.00000 0.19350 0.94350 0.84000
N 	N 	-0.00000 0.13640 0.88640 -0.24200
Cu	Cu	0.50000 0.19350 0.44350 0.84100
N 	N 	0.50000 0.13640 0.38640 -0.24300
Cu	Cu	0.75000 0.69350 0.30650 0.84100
N 	N 	0.75000 0.63640 0.36360 -0.24300
Cu	Cu	0.25000 0.69350 0.80650 0.84100
N 	N 	0.25000 0.63640 0.86360 -0.24300
Cu	Cu	0.25000 0.05650 0.94350 0.84000
N 	N 	0.25000 0.11360 0.88640 -0.24300
Cu	Cu	0.75000 0.05650 0.44350 0.84100
N 	N 	0.75000 0.11360 0.38640 -0.24300
Cu	Cu	-0.00000 0.69350 0.44350 0.84100
N 	N 	0.00000 0.63640 0.38640 -0.24200
Cu	Cu	0.50000 0.69350 0.94350 0.84000
N 	N 	0.50000 0.63640 0.88640 -0.24300
Cu	Cu	0.75000 0.19350 0.80650 0.84100
N 	N 	0.75000 0.13640 0.86360 -0.24300
Cu	Cu	0.25000 0.19350 0.30650 0.84100
N 	N 	0.25000 0.13640 0.36360 -0.24300
Cu	Cu	0.50000 0.55650 0.30650 0.84100
N 	N 	0.50000 0.61360 0.36360 -0.24300
Cu	Cu	-0.00000 0.55650 0.80650 0.84100
N 	N 	-0.00000 0.61360 0.86360 -0.24200
Cu	Cu	0.55650 0.30650 0.50000 0.84100
N 	N 	0.61360 0.36360 0.50000 -0.24300
Cu	Cu	0.55650 0.80650 -0.00000 0.84100
N 	N 	0.61360 0.86360 -0.00000 -0.24200
Cu	Cu	0.19350 0.80650 0.75000 0.84100
N 	N 	0.13640 0.86360 0.75000 -0.24300
Cu	Cu	0.19350 0.30650 0.25000 0.84100
N 	N 	0.13640 0.36360 0.25000 -0.24300
Cu	Cu	0.69350 0.44350 -0.00000 0.84100
N 	N 	0.63640 0.38640 -0.00000 -0.24200
Cu	Cu	0.69350 0.94350 0.50000 0.84000
N 	N 	0.63640 0.88640 0.50000 -0.24300
Cu	Cu	0.05650 0.94350 0.25000 0.84000
N 	N 	0.11360 0.88640 0.25000 -0.24300
Cu	Cu	0.05650 0.44350 0.75000 0.84100
N 	N 	0.11360 0.38640 0.75000 -0.24300
Cu	Cu	0.80650 0.75000 0.19350 0.84100
N 	N 	0.86360 0.75000 0.13640 -0.24300
Cu	Cu	0.80650 0.25000 0.69350 0.84100
N 	N 	0.86360 0.25000 0.63640 -0.24300
Cu	Cu	0.30650 0.50000 0.55650 0.84100
N 	N 	0.36360 0.50000 0.61360 -0.24300
Cu	Cu	0.30650 0.00000 0.05650 0.84100
N 	N 	0.36360 0.00000 0.11360 -0.24100
Cu	Cu	0.94350 0.25000 0.05650 0.84000
N 	N 	0.88640 0.25000 0.11360 -0.24300
Cu	Cu	0.94350 0.75000 0.55650 0.84000
N 	N 	0.88640 0.75000 0.61360 -0.24300
Cu	Cu	0.44350 0.00000 0.69350 0.84100
N 	N 	0.38640 0.00000 0.63640 -0.24200
Cu	Cu	0.44350 0.50000 0.19350 0.84100
N 	N 	0.38640 0.50000 0.13640 -0.24300
Cu	Cu	0.19350 0.50000 0.94350 0.84000
N 	N 	0.13640 0.50000 0.88640 -0.24300
Cu	Cu	0.19350 -0.00000 0.44350 0.84100
N 	N 	0.13640 0.00000 0.38640 -0.24100
Cu	Cu	0.55650 0.75000 0.44350 0.84100
N 	N 	0.61360 0.75000 0.38640 -0.24300
Cu	Cu	0.55650 0.25000 0.94350 0.84000
N 	N 	0.61360 0.25000 0.88640 -0.24300
Cu	Cu	0.05650 0.00000 0.80650 0.84100
N 	N 	0.11360 0.00000 0.86360 -0.24200
Cu	Cu	0.05650 0.50000 0.30650 0.84100
N 	N 	0.11360 0.50000 0.36360 -0.24300
Cu	Cu	0.69350 0.25000 0.30650 0.84100
N 	N 	0.63640 0.25000 0.36360 -0.24300
Cu	Cu	0.69350 0.75000 0.80650 0.84100
N 	N 	0.63640 0.75000 0.86360 -0.24300
Cu	Cu	0.94350 0.19350 0.50000 0.84000
N 	N 	0.88640 0.13640 0.50000 -0.24300
Cu	Cu	0.94350 0.69350 -0.00000 0.84000
N 	N 	0.88640 0.63640 -0.00000 -0.24200
Cu	Cu	0.44350 0.55650 0.75000 0.84100
N 	N 	0.38640 0.61360 0.75000 -0.24300
Cu	Cu	0.44350 0.05650 0.25000 0.84100
N 	N 	0.38640 0.11360 0.25000 -0.24300
Cu	Cu	0.80650 0.05650 -0.00000 0.84100
N 	N 	0.86360 0.11360 -0.00000 -0.24200
Cu	Cu	0.80650 0.55650 0.50000 0.84100
N 	N 	0.86360 0.61360 0.50000 -0.24300
Cu	Cu	0.30650 0.69350 0.25000 0.84100
N 	N 	0.36360 0.63640 0.25000 -0.24300
Cu	Cu	0.30650 0.19350 0.75000 0.84100
N 	N 	0.36360 0.13640 0.75000 -0.24300
Cu	Cu	0.50000 0.94350 0.19350 0.84000
N 	N 	0.50000 0.88640 0.13640 -0.24300
Cu	Cu	-0.00000 0.94350 0.69350 0.84000
N 	N 	0.00000 0.88640 0.63640 -0.24200
Cu	Cu	0.75000 0.44350 0.55650 0.84100
N 	N 	0.75000 0.38640 0.61360 -0.24300
Cu	Cu	0.25000 0.44350 0.05650 0.84100
N 	N 	0.25000 0.38640 0.11360 -0.24300
Cu	Cu	0.00000 0.80650 0.05650 0.84100
N 	N 	-0.00000 0.86360 0.11360 -0.24200
Cu	Cu	0.50000 0.80650 0.55650 0.84100
N 	N 	0.50000 0.86360 0.61360 -0.24300
Cu	Cu	0.25000 0.30650 0.69350 0.84100
N 	N 	0.25000 0.36360 0.63640 -0.24300
Cu	Cu	0.75000 0.30650 0.19350 0.84100
N 	N 	0.75000 0.36360 0.13640 -0.24300
Cu	Cu	0.75000 0.94350 0.05650 0.84000
N 	N 	0.75000 0.88640 0.11360 -0.24300
Cu	Cu	0.25000 0.94350 0.55650 0.84000
N 	N 	0.25000 0.88640 0.61360 -0.24300
Cu	Cu	0.00000 0.30650 0.55650 0.84100
N 	N 	0.00000 0.36360 0.61360 -0.24200
Cu	Cu	0.50000 0.30650 0.05650 0.84100
N 	N 	0.50000 0.36360 0.11360 -0.24300
Cu	Cu	0.25000 0.80650 0.19350 0.84100
N 	N 	0.25000 0.86360 0.13640 -0.24300
Cu	Cu	0.75000 0.80650 0.69350 0.84100
N 	N 	0.75000 0.86360 0.63640 -0.24300
Cu	Cu	0.50000 0.44350 0.69350 0.84100
N 	N 	0.50000 0.38640 0.63640 -0.24300
Cu	Cu	0.00000 0.44350 0.19350 0.84100
N 	N 	0.00000 0.38640 0.13640 -0.24100
Cu	Cu	0.44350 0.69350 0.50000 0.84100
N 	N 	0.38640 0.63640 0.50000 -0.24300
Cu	Cu	0.44350 0.19350 -0.00000 0.84100
N 	N 	0.38640 0.13640 -0.00000 -0.24100
Cu	Cu	0.80650 0.19350 0.25000 0.84100
N 	N 	0.86360 0.13640 0.25000 -0.24300
Cu	Cu	0.80650 0.69350 0.75000 0.84100
N 	N 	0.86360 0.63640 0.75000 -0.24300
Cu	Cu	0.30650 0.55650 -0.00000 0.84100
N 	N 	0.36360 0.61360 -0.00000 -0.24200
Cu	Cu	0.30650 0.05650 0.50000 0.84100
N 	N 	0.36360 0.11360 0.50000 -0.24300
Cu	Cu	0.94350 0.05650 0.75000 0.84000
N 	N 	0.88640 0.11360 0.75000 -0.24300
Cu	Cu	0.94350 0.55650 0.25000 0.84000
N 	N 	0.88640 0.61360 0.25000 -0.24300
Cu	Cu	0.19350 0.25000 0.80650 0.84100
N 	N 	0.13640 0.25000 0.86360 -0.24300
Cu	Cu	0.19350 0.75000 0.30650 0.84100
N 	N 	0.13640 0.75000 0.36360 -0.24300
Cu	Cu	0.69350 0.50000 0.44350 0.84100
N 	N 	0.63640 0.50000 0.38640 -0.24300
Cu	Cu	0.69350 0.00000 0.94350 0.84000
N 	N 	0.63640 -0.00000 0.88640 -0.24200
Cu	Cu	0.05650 0.75000 0.94350 0.84000
N 	N 	0.11360 0.75000 0.88640 -0.24300
Cu	Cu	0.05650 0.25000 0.44350 0.84100
N 	N 	0.11360 0.25000 0.38640 -0.24300
Cu	Cu	0.55650 0.00000 0.30650 0.84100
N 	N 	0.61360 0.00000 0.36360 -0.24200
Cu	Cu	0.55650 0.50000 0.80650 0.84100
N 	N 	0.61360 0.50000 0.86360 -0.24300
O 	O 	0.75000 0.50000 -0.00000 -0.61800
O 	O 	0.75000 0.00000 0.50000 -0.61800
O 	O 	0.50000 0.25000 0.50000 -0.61800
O 	O 	0.50000 0.75000 -0.00000 -0.61800
O 	O 	0.00000 0.75000 0.50000 -0.61800
O 	O 	0.00000 0.00000 0.25000 -0.61600
O 	O 	-0.00000 0.50000 0.75000 -0.61800
O 	O 	0.25000 0.75000 0.75000 -0.61800
O 	O 	0.25000 0.25000 0.25000 -0.61800
O 	O 	0.50000 0.50000 0.25000 -0.61800
O 	O 	0.50000 0.00000 0.75000 -0.61800
O 	O 	0.25000 0.00000 -0.00000 -0.61600
O 	O 	0.75000 0.25000 0.75000 -0.61800
O 	O 	0.25000 0.50000 0.50000 -0.61800
O 	O 	-0.00000 0.25000 -0.00000 -0.61600
O 	O 	0.75000 0.75000 0.25000 -0.61800
O 	O 	0.25000 0.50000 -0.00000 -0.61700
O 	O 	0.25000 0.00000 0.50000 -0.61700
O 	O 	0.50000 0.75000 0.50000 -0.61800
O 	O 	0.50000 0.25000 -0.00000 -0.61700
O 	O 	0.00000 0.00000 0.75000 -0.61600
O 	O 	0.00000 0.50000 0.25000 -0.61700
O 	O 	0.75000 0.25000 0.25000 -0.61800
O 	O 	0.75000 0.75000 0.75000 -0.61800
O 	O 	0.00000 0.25000 0.50000 -0.61700
O 	O 	0.50000 0.50000 0.75000 -0.61800
O 	O 	0.75000 0.00000 -0.00000 -0.61600
O 	O 	0.25000 0.75000 0.25000 -0.61800
O 	O 	0.50000 0.00000 0.25000 -0.61700
O 	O 	0.75000 0.50000 0.50000 -0.61800
O 	O 	-0.00000 0.75000 -0.00000 -0.61600
O 	O 	0.25000 0.25000 0.75000 -0.61800
