data_crystal

_cell_length_a 23.96470
_cell_length_b 23.96470
_cell_length_c 40.97900
_cell_angle_alpha 90.00000
_cell_angle_beta  90.00000
_cell_angle_gamma 120.00000

_symmetry_space_group_name_	'P 1'
_symmetry_space_group_name_H-M	'P 1'

loop_
_symmetry_equiv_pos_as_xyz
  x,y,z

loop_
_atom_site_label
_atom_site_type_symbol
_atom_site_fract_x
_atom_site_fract_y
_atom_site_fract_z
_atom_site_charge
Cu	Cu	0.69691 0.95120 0.28268 0.89100
Cu	Cu	0.76632 0.20178 0.23235 0.92000
N 	N 	0.69360 0.03330 0.28438 -0.18400
N 	N 	0.72020 0.07340 0.25935 -0.15300
N 	N 	0.72180 0.12890 0.26416 -0.17900
N 	N 	0.77960 0.93460 0.36568 -0.17400
N 	N 	0.73560 0.92030 0.34300 -0.17000
N 	N 	0.74760 0.97010 0.32399 -0.18600
O 	O 	0.56040 0.01120 0.39245 -0.55600
H 	H 	0.56010 0.98210 0.38050 0.27600
O 	O 	0.59400 0.11460 0.39922 -0.42300
O 	O 	0.00560 0.11660 0.40214 -0.30400
O 	O 	0.02120 0.19620 0.36968 -0.39700
O 	O 	0.66520 0.85990 0.28863 -0.70900
H 	H 	0.69000 0.85110 0.27780 0.26100
C 	C 	0.88300 0.03700 0.37733 -0.07300
H 	H 	0.89550 0.02190 0.39520 0.08400
C 	C 	0.92070 0.09780 0.36570 -0.05400
C 	C 	0.89930 0.12220 0.33970 0.02400
H 	H 	0.92510 0.16480 0.33320 0.02600
C 	C 	0.84180 0.08470 0.32400 -0.11800
H 	H 	0.82840 0.10080 0.30690 0.08400
C 	C 	0.80460 0.02120 0.33485 0.08000
C 	C 	0.82450 0.99810 0.36129 0.07000
C 	C 	0.98660 0.13900 0.38050 0.31500
C 	C 	0.64220 0.04330 0.33617 -0.01000
H 	H 	0.62840 0.00230 0.34450 0.01100
C 	C 	0.63040 0.08660 0.35228 -0.14500
C 	C 	0.65090 0.14870 0.33950 0.08100
H 	H 	0.64260 0.17680 0.35140 0.02100
C 	C 	0.68210 0.16890 0.31050 -0.16500
H 	H 	0.69500 0.20980 0.30230 0.10500
C 	C 	0.69400 0.12460 0.29348 0.11200
C 	C 	0.67570 0.06360 0.30663 0.01800
C 	C 	0.59200 0.06820 0.38400 0.44800
Cu	Cu	0.36358 0.28453 0.61601 0.88900
Cu	Cu	0.43299 0.53511 0.56568 0.91900
N 	N 	0.36027 0.36663 0.61771 -0.18400
N 	N 	0.38687 0.40673 0.59268 -0.15300
N 	N 	0.38847 0.46223 0.59749 -0.18000
N 	N 	0.44627 0.26793 0.69901 -0.17400
N 	N 	0.40227 0.25363 0.67633 -0.17000
N 	N 	0.41427 0.30343 0.65732 -0.18900
O 	O 	0.22707 0.34453 0.72578 -0.55000
H 	H 	0.22677 0.31543 0.71383 0.27100
O 	O 	0.26067 0.44793 0.73255 -0.42200
O 	O 	0.67227 0.44993 0.73547 -0.29900
O 	O 	0.68787 0.52953 0.70301 -0.39200
O 	O 	0.33187 0.19323 0.62196 -0.70900
H 	H 	0.35667 0.18443 0.61113 0.26100
C 	C 	0.54967 0.37033 0.71066 -0.06500
H 	H 	0.56217 0.35523 0.72853 0.08200
C 	C 	0.58737 0.43113 0.69903 -0.05600
C 	C 	0.56597 0.45553 0.67303 0.02800
H 	H 	0.59177 0.49813 0.66653 0.02400
C 	C 	0.50847 0.41803 0.65733 -0.12300
H 	H 	0.49507 0.43413 0.64023 0.08600
C 	C 	0.47127 0.35453 0.66818 0.08900
C 	C 	0.49117 0.33143 0.69462 0.06000
C 	C 	0.65327 0.47233 0.71383 0.30700
C 	C 	0.30887 0.37663 0.66950 -0.01100
H 	H 	0.29507 0.33563 0.67783 0.01300
C 	C 	0.29707 0.41993 0.68561 -0.14300
C 	C 	0.31757 0.48203 0.67283 0.08000
H 	H 	0.30927 0.51013 0.68473 0.02100
C 	C 	0.34877 0.50223 0.64383 -0.16400
H 	H 	0.36167 0.54313 0.63563 0.10400
C 	C 	0.36067 0.45793 0.62681 0.11100
C 	C 	0.34237 0.39693 0.63996 0.01900
C 	C 	0.25867 0.40153 0.71733 0.44600
Cu	Cu	0.03024 0.61787 0.94935 0.88700
Cu	Cu	0.09965 0.86845 0.89902 0.91900
N 	N 	0.02693 0.69997 0.95105 -0.18400
N 	N 	0.05353 0.74007 0.92602 -0.15400
N 	N 	0.05513 0.79557 0.93083 -0.18000
N 	N 	0.11293 0.60127 0.03235 -0.17600
N 	N 	0.06893 0.58697 0.00967 -0.17300
N 	N 	0.08093 0.63677 0.99066 -0.18400
O 	O 	0.89373 0.67787 0.05912 -0.55000
H 	H 	0.89343 0.64877 0.04717 0.27100
O 	O 	0.92733 0.78127 0.06589 -0.42200
O 	O 	0.33893 0.78327 0.06881 -0.29800
O 	O 	0.35453 0.86287 0.03635 -0.39200
O 	O 	0.99853 0.52657 0.95530 -0.70200
H 	H 	0.02333 0.51777 0.94447 0.25600
C 	C 	0.21633 0.70367 0.04400 -0.07400
H 	H 	0.22883 0.68857 0.06187 0.08500
C 	C 	0.25403 0.76447 0.03237 -0.04500
C 	C 	0.23263 0.78887 0.00637 0.00200
H 	H 	0.25843 0.83147 0.99987 0.03600
C 	C 	0.17513 0.75137 0.99067 -0.09800
H 	H 	0.16173 0.76747 0.97357 0.07800
C 	C 	0.13793 0.68787 0.00152 0.07300
C 	C 	0.15783 0.66477 0.02796 0.06800
C 	C 	0.31993 0.80567 0.04717 0.30300
C 	C 	0.97553 0.70997 0.00284 -0.01100
H 	H 	0.96173 0.66897 0.01117 0.01300
C 	C 	0.96373 0.75327 0.01895 -0.14300
C 	C 	0.98423 0.81537 0.00617 0.08000
H 	H 	0.97593 0.84347 0.01807 0.02100
C 	C 	0.01543 0.83557 0.97717 -0.16500
H 	H 	0.02833 0.87647 0.96897 0.10500
C 	C 	0.02733 0.79127 0.96015 0.11100
C 	C 	0.00903 0.73027 0.97330 0.01900
C 	C 	0.92533 0.73487 0.05067 0.44600
Cu	Cu	0.04880 0.74571 0.28268 0.88800
Cu	Cu	0.79822 0.56454 0.23235 0.91900
N 	N 	0.96670 0.66030 0.28438 -0.18300
N 	N 	0.92660 0.64680 0.25935 -0.15300
N 	N 	0.87110 0.59290 0.26416 -0.18000
N 	N 	0.06540 0.84500 0.36568 -0.17300
N 	N 	0.07970 0.81530 0.34300 -0.17100
N 	N 	0.02990 0.77750 0.32399 -0.19200
O 	O 	0.98880 0.54920 0.39245 -0.54300
H 	H 	0.01790 0.57800 0.38050 0.26600
O 	O 	0.88540 0.47940 0.39922 -0.42100
O 	O 	0.88340 0.88900 0.40214 -0.29800
O 	O 	0.80380 0.82500 0.36968 -0.39200
O 	O 	0.14010 0.80530 0.28863 -0.71000
H 	H 	0.14890 0.83890 0.27780 0.26100
C 	C 	0.96300 0.84600 0.37733 -0.05400
H 	H 	0.97810 0.87360 0.39520 0.07900
C 	C 	0.90220 0.82290 0.36570 -0.06200
C 	C 	0.87780 0.77710 0.33970 0.03400
H 	H 	0.83520 0.76030 0.33320 0.02200
C 	C 	0.91530 0.75710 0.32400 -0.13100
H 	H 	0.89920 0.72760 0.30690 0.08900
C 	C 	0.97880 0.78340 0.33485 0.10000
C 	C 	0.00190 0.82640 0.36129 0.04800
C 	C 	0.86100 0.84760 0.38050 0.30900
C 	C 	0.95670 0.59890 0.33617 -0.01200
H 	H 	0.99770 0.62610 0.34450 0.01500
C 	C 	0.91340 0.54380 0.35228 -0.14100
C 	C 	0.85130 0.50220 0.33950 0.07800
H 	H 	0.82320 0.46580 0.35140 0.02200
C 	C 	0.83110 0.51320 0.31050 -0.16300
H 	H 	0.79020 0.48520 0.30230 0.10400
C 	C 	0.87540 0.56940 0.29348 0.11100
C 	C 	0.93640 0.61210 0.30663 0.02000
C 	C 	0.93180 0.52380 0.38400 0.44400
Cu	Cu	0.71547 0.07904 0.61601 0.88800
Cu	Cu	0.46489 0.89787 0.56568 0.91900
N 	N 	0.63337 0.99363 0.61771 -0.18300
N 	N 	0.59327 0.98013 0.59268 -0.15300
N 	N 	0.53777 0.92623 0.59749 -0.18000
N 	N 	0.73207 0.17833 0.69901 -0.17400
N 	N 	0.74637 0.14863 0.67633 -0.17100
N 	N 	0.69657 0.11083 0.65732 -0.18900
O 	O 	0.65547 0.88253 0.72578 -0.55000
H 	H 	0.68457 0.91133 0.71383 0.27200
O 	O 	0.55207 0.81273 0.73255 -0.42200
O 	O 	0.55007 0.22233 0.73547 -0.29900
O 	O 	0.47047 0.15833 0.70301 -0.39200
O 	O 	0.80677 0.13863 0.62196 -0.70900
H 	H 	0.81557 0.17223 0.61113 0.26100
C 	C 	0.62967 0.17933 0.71066 -0.06500
H 	H 	0.64477 0.20693 0.72853 0.08200
C 	C 	0.56887 0.15623 0.69903 -0.05600
C 	C 	0.54447 0.11043 0.67303 0.02700
H 	H 	0.50187 0.09363 0.66653 0.02400
C 	C 	0.58197 0.09043 0.65733 -0.12300
H 	H 	0.56587 0.06093 0.64023 0.08600
C 	C 	0.64547 0.11673 0.66818 0.08800
C 	C 	0.66857 0.15973 0.69462 0.06000
C 	C 	0.52767 0.18093 0.71383 0.30700
C 	C 	0.62337 0.93223 0.66950 -0.01100
H 	H 	0.66437 0.95943 0.67783 0.01400
C 	C 	0.58007 0.87713 0.68561 -0.14300
C 	C 	0.51797 0.83553 0.67283 0.08000
H 	H 	0.48987 0.79913 0.68473 0.02100
C 	C 	0.49777 0.84653 0.64383 -0.16400
H 	H 	0.45687 0.81853 0.63563 0.10400
C 	C 	0.54207 0.90273 0.62681 0.11100
C 	C 	0.60307 0.94543 0.63996 0.02000
C 	C 	0.59847 0.85713 0.71733 0.44600
Cu	Cu	0.38213 0.41238 0.94935 0.88900
Cu	Cu	0.13155 0.23121 0.89902 0.91900
N 	N 	0.30003 0.32697 0.95105 -0.18500
N 	N 	0.25993 0.31347 0.92602 -0.15300
N 	N 	0.20443 0.25957 0.93083 -0.17900
N 	N 	0.39873 0.51167 0.03235 -0.17600
N 	N 	0.41303 0.48197 0.00967 -0.17200
N 	N 	0.36323 0.44417 0.99066 -0.18400
O 	O 	0.32213 0.21587 0.05912 -0.54900
H 	H 	0.35123 0.24467 0.04717 0.27100
O 	O 	0.21873 0.14607 0.06589 -0.42200
O 	O 	0.21673 0.55567 0.06881 -0.29800
O 	O 	0.13713 0.49167 0.03635 -0.39200
O 	O 	0.47343 0.47197 0.95530 -0.70800
H 	H 	0.48223 0.50557 0.94447 0.26100
C 	C 	0.29633 0.51267 0.04400 -0.07500
H 	H 	0.31143 0.54027 0.06187 0.08500
C 	C 	0.23553 0.48957 0.03237 -0.04500
C 	C 	0.21113 0.44377 0.00637 0.00100
H 	H 	0.16853 0.42697 0.99987 0.03600
C 	C 	0.24863 0.42377 0.99067 -0.09700
H 	H 	0.23253 0.39427 0.97357 0.07800
C 	C 	0.31213 0.45007 0.00152 0.07200
C 	C 	0.33523 0.49307 0.02796 0.06800
C 	C 	0.19433 0.51427 0.04717 0.30300
C 	C 	0.29003 0.26557 0.00284 -0.02200
H 	H 	0.33103 0.29277 0.01117 0.01600
C 	C 	0.24673 0.21047 0.01895 -0.13600
C 	C 	0.18463 0.16887 0.00617 0.06600
H 	H 	0.15653 0.13247 0.01807 0.02400
C 	C 	0.16443 0.17987 0.97717 -0.15100
H 	H 	0.12353 0.15187 0.96897 0.10000
C 	C 	0.20873 0.23607 0.96015 0.10500
C 	C 	0.26973 0.27877 0.97330 0.02800
C 	C 	0.26513 0.19047 0.05067 0.44300
Cu	Cu	0.25429 0.30309 0.28268 0.88900
Cu	Cu	0.43546 0.23368 0.23235 0.91900
N 	N 	0.33970 0.30640 0.28438 -0.18400
N 	N 	0.35320 0.27980 0.25935 -0.15300
N 	N 	0.40710 0.27820 0.26416 -0.18000
N 	N 	0.15500 0.22040 0.36568 -0.17400
N 	N 	0.18470 0.26440 0.34300 -0.17000
N 	N 	0.22250 0.25240 0.32399 -0.18900
O 	O 	0.45080 0.43960 0.39245 -0.55000
H 	H 	0.42200 0.43990 0.38050 0.27100
O 	O 	0.52060 0.40600 0.39922 -0.42200
O 	O 	0.11100 0.99440 0.40214 -0.29500
O 	O 	0.17500 0.97880 0.36968 -0.38800
O 	O 	0.19470 0.33480 0.28863 -0.70900
H 	H 	0.16110 0.31000 0.27780 0.26000
C 	C 	0.15400 0.11700 0.37733 -0.06700
H 	H 	0.12640 0.10450 0.39520 0.08100
C 	C 	0.17710 0.07930 0.36570 -0.05400
C 	C 	0.22290 0.10070 0.33970 0.02600
H 	H 	0.23970 0.07490 0.33320 0.02400
C 	C 	0.24290 0.15820 0.32400 -0.12300
H 	H 	0.27240 0.17160 0.30690 0.08600
C 	C 	0.21660 0.19540 0.33485 0.08800
C 	C 	0.17360 0.17550 0.36129 0.06100
C 	C 	0.15240 0.01340 0.38050 0.29900
C 	C 	0.40110 0.35780 0.33617 -0.01100
H 	H 	0.37390 0.37160 0.34450 0.01300
C 	C 	0.45620 0.36960 0.35228 -0.14300
C 	C 	0.49780 0.34910 0.33950 0.08000
H 	H 	0.53420 0.35740 0.35140 0.02100
C 	C 	0.48680 0.31790 0.31050 -0.16400
H 	H 	0.51480 0.30500 0.30230 0.10400
C 	C 	0.43060 0.30600 0.29348 0.11100
C 	C 	0.38790 0.32430 0.30663 0.01900
C 	C 	0.47620 0.40800 0.38400 0.44600
Cu	Cu	0.92096 0.63642 0.61601 0.88900
Cu	Cu	0.10213 0.56701 0.56568 0.91900
N 	N 	0.00637 0.63973 0.61771 -0.18500
N 	N 	0.01987 0.61313 0.59268 -0.15500
N 	N 	0.07377 0.61153 0.59749 -0.18000
N 	N 	0.82167 0.55373 0.69901 -0.17400
N 	N 	0.85137 0.59773 0.67633 -0.17000
N 	N 	0.88917 0.58573 0.65732 -0.18900
O 	O 	0.11747 0.77293 0.72578 -0.55000
H 	H 	0.08867 0.77323 0.71383 0.27100
O 	O 	0.18727 0.73933 0.73255 -0.42200
O 	O 	0.77767 0.32773 0.73547 -0.29900
O 	O 	0.84167 0.31213 0.70301 -0.39200
O 	O 	0.86137 0.66813 0.62196 -0.70900
H 	H 	0.82777 0.64333 0.61113 0.26100
C 	C 	0.82067 0.45033 0.71066 -0.06500
H 	H 	0.79307 0.43783 0.72853 0.08200
C 	C 	0.84377 0.41263 0.69903 -0.05600
C 	C 	0.88957 0.43403 0.67303 0.02800
H 	H 	0.90637 0.40823 0.66653 0.02400
C 	C 	0.90957 0.49153 0.65733 -0.12300
H 	H 	0.93907 0.50493 0.64023 0.08700
C 	C 	0.88327 0.52873 0.66818 0.08900
C 	C 	0.84027 0.50883 0.69462 0.06000
C 	C 	0.81907 0.34673 0.71383 0.30700
C 	C 	0.06777 0.69113 0.66950 -0.01100
H 	H 	0.04057 0.70493 0.67783 0.01200
C 	C 	0.12287 0.70293 0.68561 -0.14300
C 	C 	0.16447 0.68243 0.67283 0.08000
H 	H 	0.20087 0.69073 0.68473 0.02100
C 	C 	0.15347 0.65123 0.64383 -0.16400
H 	H 	0.18147 0.63833 0.63563 0.10400
C 	C 	0.09727 0.63933 0.62681 0.11100
C 	C 	0.05457 0.65763 0.63996 0.01800
C 	C 	0.14287 0.74133 0.71733 0.44600
Cu	Cu	0.58762 0.96976 0.94935 0.89000
Cu	Cu	0.76879 0.90035 0.89902 0.91900
N 	N 	0.67303 0.97307 0.95105 -0.18600
N 	N 	0.68653 0.94647 0.92602 -0.15300
N 	N 	0.74043 0.94487 0.93083 -0.17800
N 	N 	0.48833 0.88707 0.03235 -0.17500
N 	N 	0.51803 0.93107 0.00967 -0.17100
N 	N 	0.55583 0.91907 0.99066 -0.18300
O 	O 	0.78413 0.10627 0.05912 -0.54800
H 	H 	0.75533 0.10657 0.04717 0.27000
O 	O 	0.85393 0.07267 0.06589 -0.42200
O 	O 	0.44433 0.66107 0.06881 -0.29800
O 	O 	0.50833 0.64547 0.03635 -0.39200
O 	O 	0.52803 0.00147 0.95530 -0.71300
H 	H 	0.49443 0.97667 0.94447 0.26500
C 	C 	0.48733 0.78367 0.04400 -0.07500
H 	H 	0.45973 0.77117 0.06187 0.08500
C 	C 	0.51043 0.74597 0.03237 -0.04500
C 	C 	0.55623 0.76737 0.00637 0.00200
H 	H 	0.57303 0.74157 0.99987 0.03600
C 	C 	0.57623 0.82487 0.99067 -0.09700
H 	H 	0.60573 0.83827 0.97357 0.07800
C 	C 	0.54993 0.86207 0.00152 0.07300
C 	C 	0.50693 0.84217 0.02796 0.06800
C 	C 	0.48573 0.68007 0.04717 0.30300
C 	C 	0.73443 0.02447 0.00284 -0.03100
H 	H 	0.70723 0.03827 0.01117 0.01900
C 	C 	0.78953 0.03627 0.01895 -0.13000
C 	C 	0.83113 0.01577 0.00617 0.05500
H 	H 	0.86753 0.02407 0.01807 0.02800
C 	C 	0.82013 0.98457 0.97717 -0.14100
H 	H 	0.84813 0.97167 0.96897 0.09800
C 	C 	0.76393 0.97267 0.96015 0.10100
C 	C 	0.72123 0.99097 0.97330 0.03500
C 	C 	0.80953 0.07467 0.05067 0.44000
Cu	Cu	0.95120 0.69691 0.21732 0.89000
Cu	Cu	0.20178 0.76632 0.26765 0.91900
N 	N 	0.03330 0.69360 0.21562 -0.18500
N 	N 	0.07340 0.72020 0.24065 -0.15400
N 	N 	0.12890 0.72180 0.23584 -0.18000
N 	N 	0.93460 0.77960 0.13432 -0.17500
N 	N 	0.92030 0.73560 0.15700 -0.17000
N 	N 	0.97010 0.74760 0.17601 -0.18600
O 	O 	0.01120 0.56040 0.10755 -0.55700
H 	H 	0.98210 0.56010 0.11950 0.27600
O 	O 	0.11460 0.59400 0.10078 -0.42300
O 	O 	0.11660 0.00560 0.09786 -0.30400
O 	O 	0.19620 0.02120 0.13032 -0.39600
O 	O 	0.85990 0.66520 0.21137 -0.70900
H 	H 	0.85110 0.69000 0.22220 0.26100
C 	C 	0.03700 0.88300 0.12267 -0.07400
H 	H 	0.02190 0.89550 0.10480 0.08400
C 	C 	0.09780 0.92070 0.13430 -0.05400
C 	C 	0.12220 0.89930 0.16030 0.02300
H 	H 	0.16480 0.92510 0.16680 0.02600
C 	C 	0.08470 0.84180 0.17600 -0.11700
H 	H 	0.10080 0.82840 0.19310 0.08400
C 	C 	0.02120 0.80460 0.16515 0.07900
C 	C 	0.99810 0.82450 0.13871 0.07100
C 	C 	0.13900 0.98660 0.11950 0.31400
C 	C 	0.04330 0.64220 0.16383 -0.01000
H 	H 	0.00230 0.62840 0.15550 0.01100
C 	C 	0.08660 0.63040 0.14772 -0.14500
C 	C 	0.14870 0.65090 0.16050 0.08100
H 	H 	0.17680 0.64260 0.14860 0.02100
C 	C 	0.16890 0.68210 0.18950 -0.16500
H 	H 	0.20980 0.69500 0.19770 0.10500
C 	C 	0.12460 0.69400 0.20652 0.11200
C 	C 	0.06360 0.67570 0.19337 0.01800
C 	C 	0.06820 0.59200 0.11600 0.44800
Cu	Cu	0.61787 0.03024 0.55065 0.88700
Cu	Cu	0.86845 0.09965 0.60098 0.91900
N 	N 	0.69997 0.02693 0.54895 -0.18400
N 	N 	0.74007 0.05353 0.57398 -0.15400
N 	N 	0.79557 0.05513 0.56917 -0.18100
N 	N 	0.60127 0.11293 0.46765 -0.17400
N 	N 	0.58697 0.06893 0.49033 -0.17100
N 	N 	0.63677 0.08093 0.50934 -0.18900
O 	O 	0.67787 0.89373 0.44088 -0.55100
H 	H 	0.64877 0.89343 0.45283 0.27200
O 	O 	0.78127 0.92733 0.43411 -0.42200
O 	O 	0.78327 0.33893 0.43119 -0.29900
O 	O 	0.86287 0.35453 0.46365 -0.39200
O 	O 	0.52657 0.99853 0.54470 -0.70400
H 	H 	0.51777 0.02333 0.55553 0.25600
C 	C 	0.70367 0.21633 0.45600 -0.06500
H 	H 	0.68857 0.22883 0.43813 0.08200
C 	C 	0.76447 0.25403 0.46763 -0.05600
C 	C 	0.78887 0.23263 0.49363 0.02800
H 	H 	0.83147 0.25843 0.50013 0.02400
C 	C 	0.75137 0.17513 0.50933 -0.12300
H 	H 	0.76747 0.16173 0.52643 0.08600
C 	C 	0.68787 0.13793 0.49848 0.08800
C 	C 	0.66477 0.15783 0.47204 0.06000
C 	C 	0.80567 0.31993 0.45283 0.30700
C 	C 	0.70997 0.97553 0.49716 -0.00100
H 	H 	0.66897 0.96173 0.48883 0.01100
C 	C 	0.75327 0.96373 0.48105 -0.14900
C 	C 	0.81537 0.98423 0.49383 0.09100
H 	H 	0.84347 0.97593 0.48193 0.01800
C 	C 	0.83557 0.01543 0.52283 -0.17500
H 	H 	0.87647 0.02833 0.53103 0.10800
C 	C 	0.79127 0.02733 0.53985 0.11600
C 	C 	0.73027 0.00903 0.52670 0.01200
C 	C 	0.73487 0.92533 0.44933 0.44900
Cu	Cu	0.28453 0.36358 0.88399 0.88900
Cu	Cu	0.53511 0.43299 0.93432 0.91900
N 	N 	0.36663 0.36027 0.88229 -0.18400
N 	N 	0.40673 0.38687 0.90732 -0.15300
N 	N 	0.46223 0.38847 0.90251 -0.18000
N 	N 	0.26793 0.44627 0.80099 -0.17400
N 	N 	0.25363 0.40227 0.82367 -0.17000
N 	N 	0.30343 0.41427 0.84268 -0.18900
O 	O 	0.34453 0.22707 0.77422 -0.55000
H 	H 	0.31543 0.22677 0.78617 0.27100
O 	O 	0.44793 0.26067 0.76745 -0.42200
O 	O 	0.44993 0.67227 0.76453 -0.29900
O 	O 	0.52953 0.68787 0.79699 -0.39200
O 	O 	0.19323 0.33187 0.87804 -0.71000
H 	H 	0.18443 0.35667 0.88887 0.26100
C 	C 	0.37033 0.54967 0.78934 -0.06500
H 	H 	0.35523 0.56217 0.77147 0.08200
C 	C 	0.43113 0.58737 0.80097 -0.05600
C 	C 	0.45553 0.56597 0.82697 0.02800
H 	H 	0.49813 0.59177 0.83347 0.02400
C 	C 	0.41803 0.50847 0.84267 -0.12300
H 	H 	0.43413 0.49507 0.85977 0.08600
C 	C 	0.35453 0.47127 0.83182 0.08900
C 	C 	0.33143 0.49117 0.80538 0.06000
C 	C 	0.47233 0.65327 0.78617 0.30700
C 	C 	0.37663 0.30887 0.83050 -0.01100
H 	H 	0.33563 0.29507 0.82217 0.01300
C 	C 	0.41993 0.29707 0.81439 -0.14300
C 	C 	0.48203 0.31757 0.82717 0.08000
H 	H 	0.51013 0.30927 0.81527 0.02100
C 	C 	0.50223 0.34877 0.85617 -0.16400
H 	H 	0.54313 0.36167 0.86437 0.10400
C 	C 	0.45793 0.36067 0.87319 0.11100
C 	C 	0.39693 0.34237 0.86004 0.01900
C 	C 	0.40153 0.25867 0.78267 0.44600
Cu	Cu	0.74571 0.04880 0.21732 0.88800
Cu	Cu	0.56454 0.79822 0.26765 0.91900
N 	N 	0.66030 0.96670 0.21562 -0.18300
N 	N 	0.64680 0.92660 0.24065 -0.15300
N 	N 	0.59290 0.87110 0.23584 -0.18000
N 	N 	0.84500 0.06540 0.13432 -0.17300
N 	N 	0.81530 0.07970 0.15700 -0.17100
N 	N 	0.77750 0.02990 0.17601 -0.19200
O 	O 	0.54920 0.98880 0.10755 -0.54400
H 	H 	0.57800 0.01790 0.11950 0.26700
O 	O 	0.47940 0.88540 0.10078 -0.42100
O 	O 	0.88900 0.88340 0.09786 -0.29800
O 	O 	0.82500 0.80380 0.13032 -0.39200
O 	O 	0.80530 0.14010 0.21137 -0.71000
H 	H 	0.83890 0.14890 0.22220 0.26100
C 	C 	0.84600 0.96300 0.12267 -0.05400
H 	H 	0.87360 0.97810 0.10480 0.07900
C 	C 	0.82290 0.90220 0.13430 -0.06100
C 	C 	0.77710 0.87780 0.16030 0.03400
H 	H 	0.76030 0.83520 0.16680 0.02200
C 	C 	0.75710 0.91530 0.17600 -0.13000
H 	H 	0.72760 0.89920 0.19310 0.08900
C 	C 	0.78340 0.97880 0.16515 0.09900
C 	C 	0.82640 0.00190 0.13871 0.04900
C 	C 	0.84760 0.86100 0.11950 0.30900
C 	C 	0.59890 0.95670 0.16383 -0.01200
H 	H 	0.62610 0.99770 0.15550 0.01500
C 	C 	0.54380 0.91340 0.14772 -0.14100
C 	C 	0.50220 0.85130 0.16050 0.07900
H 	H 	0.46580 0.82320 0.14860 0.02200
C 	C 	0.51320 0.83110 0.18950 -0.16300
H 	H 	0.48520 0.79020 0.19770 0.10400
C 	C 	0.56940 0.87540 0.20652 0.11100
C 	C 	0.61210 0.93640 0.19337 0.02000
C 	C 	0.52380 0.93180 0.11600 0.44400
Cu	Cu	0.41238 0.38213 0.55065 0.88900
Cu	Cu	0.23121 0.13155 0.60098 0.91900
N 	N 	0.32697 0.30003 0.54895 -0.18400
N 	N 	0.31347 0.25993 0.57398 -0.15300
N 	N 	0.25957 0.20443 0.56917 -0.18000
N 	N 	0.51167 0.39873 0.46765 -0.17400
N 	N 	0.48197 0.41303 0.49033 -0.17000
N 	N 	0.44417 0.36323 0.50934 -0.18900
O 	O 	0.21587 0.32213 0.44088 -0.55000
H 	H 	0.24467 0.35123 0.45283 0.27100
O 	O 	0.14607 0.21873 0.43411 -0.42200
O 	O 	0.55567 0.21673 0.43119 -0.29900
O 	O 	0.49167 0.13713 0.46365 -0.39200
O 	O 	0.47197 0.47343 0.54470 -0.70900
H 	H 	0.50557 0.48223 0.55553 0.26100
C 	C 	0.51267 0.29633 0.45600 -0.06500
H 	H 	0.54027 0.31143 0.43813 0.08200
C 	C 	0.48957 0.23553 0.46763 -0.05600
C 	C 	0.44377 0.21113 0.49363 0.02800
H 	H 	0.42697 0.16853 0.50013 0.02400
C 	C 	0.42377 0.24863 0.50933 -0.12400
H 	H 	0.39427 0.23253 0.52643 0.08600
C 	C 	0.45007 0.31213 0.49848 0.08900
C 	C 	0.49307 0.33523 0.47204 0.06000
C 	C 	0.51427 0.19433 0.45283 0.30700
C 	C 	0.26557 0.29003 0.49716 -0.01100
H 	H 	0.29277 0.33103 0.48883 0.01300
C 	C 	0.21047 0.24673 0.48105 -0.14300
C 	C 	0.16887 0.18463 0.49383 0.08000
H 	H 	0.13247 0.15653 0.48193 0.02100
C 	C 	0.17987 0.16443 0.52283 -0.16400
H 	H 	0.15187 0.12353 0.53103 0.10400
C 	C 	0.23607 0.20873 0.53985 0.11100
C 	C 	0.27877 0.26973 0.52670 0.01900
C 	C 	0.19047 0.26513 0.44933 0.44600
Cu	Cu	0.07904 0.71547 0.88399 0.88800
Cu	Cu	0.89787 0.46489 0.93432 0.91900
N 	N 	0.99363 0.63337 0.88229 -0.18300
N 	N 	0.98013 0.59327 0.90732 -0.15200
N 	N 	0.92623 0.53777 0.90251 -0.17900
N 	N 	0.17833 0.73207 0.80099 -0.17400
N 	N 	0.14863 0.74637 0.82367 -0.17100
N 	N 	0.11083 0.69657 0.84268 -0.18900
O 	O 	0.88253 0.65547 0.77422 -0.55000
H 	H 	0.91133 0.68457 0.78617 0.27200
O 	O 	0.81273 0.55207 0.76745 -0.42200
O 	O 	0.22233 0.55007 0.76453 -0.29900
O 	O 	0.15833 0.47047 0.79699 -0.39200
O 	O 	0.13863 0.80677 0.87804 -0.70900
H 	H 	0.17223 0.81557 0.88887 0.26100
C 	C 	0.17933 0.62967 0.78934 -0.06500
H 	H 	0.20693 0.64477 0.77147 0.08200
C 	C 	0.15623 0.56887 0.80097 -0.05600
C 	C 	0.11043 0.54447 0.82697 0.02700
H 	H 	0.09363 0.50187 0.83347 0.02400
C 	C 	0.09043 0.58197 0.84267 -0.12300
H 	H 	0.06093 0.56587 0.85977 0.08500
C 	C 	0.11673 0.64547 0.83182 0.08800
C 	C 	0.15973 0.66857 0.80538 0.06000
C 	C 	0.18093 0.52767 0.78617 0.30700
C 	C 	0.93223 0.62337 0.83050 -0.01100
H 	H 	0.95943 0.66437 0.82217 0.01400
C 	C 	0.87713 0.58007 0.81439 -0.14300
C 	C 	0.83553 0.51797 0.82717 0.08000
H 	H 	0.79913 0.48987 0.81527 0.02100
C 	C 	0.84653 0.49777 0.85617 -0.16400
H 	H 	0.81853 0.45687 0.86437 0.10400
C 	C 	0.90273 0.54207 0.87319 0.11100
C 	C 	0.94543 0.60307 0.86004 0.02000
C 	C 	0.85713 0.59847 0.78267 0.44600
Cu	Cu	0.30309 0.25429 0.21732 0.88900
Cu	Cu	0.23368 0.43546 0.26765 0.91900
N 	N 	0.30640 0.33970 0.21562 -0.18400
N 	N 	0.27980 0.35320 0.24065 -0.15300
N 	N 	0.27820 0.40710 0.23584 -0.18000
N 	N 	0.22040 0.15500 0.13432 -0.17400
N 	N 	0.26440 0.18470 0.15700 -0.17000
N 	N 	0.25240 0.22250 0.17601 -0.18900
O 	O 	0.43960 0.45080 0.10755 -0.55000
H 	H 	0.43990 0.42200 0.11950 0.27100
O 	O 	0.40600 0.52060 0.10078 -0.42200
O 	O 	0.99440 0.11100 0.09786 -0.29500
O 	O 	0.97880 0.17500 0.13032 -0.38800
O 	O 	0.33480 0.19470 0.21137 -0.70900
H 	H 	0.31000 0.16110 0.22220 0.26000
C 	C 	0.11700 0.15400 0.12267 -0.06700
H 	H 	0.10450 0.12640 0.10480 0.08100
C 	C 	0.07930 0.17710 0.13430 -0.05400
C 	C 	0.10070 0.22290 0.16030 0.02600
H 	H 	0.07490 0.23970 0.16680 0.02400
C 	C 	0.15820 0.24290 0.17600 -0.12300
H 	H 	0.17160 0.27240 0.19310 0.08600
C 	C 	0.19540 0.21660 0.16515 0.08800
C 	C 	0.17550 0.17360 0.13871 0.06100
C 	C 	0.01340 0.15240 0.11950 0.29800
C 	C 	0.35780 0.40110 0.16383 -0.01100
H 	H 	0.37160 0.37390 0.15550 0.01300
C 	C 	0.36960 0.45620 0.14772 -0.14300
C 	C 	0.34910 0.49780 0.16050 0.08000
H 	H 	0.35740 0.53420 0.14860 0.02100
C 	C 	0.31790 0.48680 0.18950 -0.16400
H 	H 	0.30500 0.51480 0.19770 0.10400
C 	C 	0.30600 0.43060 0.20652 0.11100
C 	C 	0.32430 0.38790 0.19337 0.01900
C 	C 	0.40800 0.47620 0.11600 0.44600
Cu	Cu	0.96976 0.58762 0.55065 0.89000
Cu	Cu	0.90035 0.76879 0.60098 0.91900
N 	N 	0.97307 0.67303 0.54895 -0.18500
N 	N 	0.94647 0.68653 0.57398 -0.15300
N 	N 	0.94487 0.74043 0.56917 -0.17900
N 	N 	0.88707 0.48833 0.46765 -0.17400
N 	N 	0.93107 0.51803 0.49033 -0.16900
N 	N 	0.91907 0.55583 0.50934 -0.18900
O 	O 	0.10627 0.78413 0.44088 -0.54900
H 	H 	0.10657 0.75533 0.45283 0.27100
O 	O 	0.07267 0.85393 0.43411 -0.42200
O 	O 	0.66107 0.44433 0.43119 -0.29900
O 	O 	0.64547 0.50833 0.46365 -0.39200
O 	O 	0.00147 0.52803 0.54470 -0.71500
H 	H 	0.97667 0.49443 0.55553 0.26600
C 	C 	0.78367 0.48733 0.45600 -0.06500
H 	H 	0.77117 0.45973 0.43813 0.08200
C 	C 	0.74597 0.51043 0.46763 -0.05600
C 	C 	0.76737 0.55623 0.49363 0.02800
H 	H 	0.74157 0.57303 0.50013 0.02400
C 	C 	0.82487 0.57623 0.50933 -0.12300
H 	H 	0.83827 0.60573 0.52643 0.08600
C 	C 	0.86207 0.54993 0.49848 0.08900
C 	C 	0.84217 0.50693 0.47204 0.06000
C 	C 	0.68007 0.48573 0.45283 0.30700
C 	C 	0.02447 0.73443 0.49716 -0.02200
H 	H 	0.03827 0.70723 0.48883 0.01600
C 	C 	0.03627 0.78953 0.48105 -0.13600
C 	C 	0.01577 0.83113 0.49383 0.06700
H 	H 	0.02407 0.86753 0.48193 0.02500
C 	C 	0.98457 0.82013 0.52283 -0.15200
H 	H 	0.97167 0.84813 0.53103 0.10100
C 	C 	0.97267 0.76393 0.53985 0.10600
C 	C 	0.99097 0.72123 0.52670 0.02800
C 	C 	0.07467 0.80953 0.44933 0.44300
Cu	Cu	0.63642 0.92096 0.88399 0.88900
Cu	Cu	0.56701 0.10213 0.93432 0.91900
N 	N 	0.63973 0.00637 0.88229 -0.18500
N 	N 	0.61313 0.01987 0.90732 -0.15400
N 	N 	0.61153 0.07377 0.90251 -0.18000
N 	N 	0.55373 0.82167 0.80099 -0.17400
N 	N 	0.59773 0.85137 0.82367 -0.17000
N 	N 	0.58573 0.88917 0.84268 -0.18900
O 	O 	0.77293 0.11747 0.77422 -0.55000
H 	H 	0.77323 0.08867 0.78617 0.27100
O 	O 	0.73933 0.18727 0.76745 -0.42200
O 	O 	0.32773 0.77767 0.76453 -0.29900
O 	O 	0.31213 0.84167 0.79699 -0.39200
O 	O 	0.66813 0.86137 0.87804 -0.70900
H 	H 	0.64333 0.82777 0.88887 0.26100
C 	C 	0.45033 0.82067 0.78934 -0.06500
H 	H 	0.43783 0.79307 0.77147 0.08200
C 	C 	0.41263 0.84377 0.80097 -0.05600
C 	C 	0.43403 0.88957 0.82697 0.02800
H 	H 	0.40823 0.90637 0.83347 0.02400
C 	C 	0.49153 0.90957 0.84267 -0.12300
H 	H 	0.50493 0.93907 0.85977 0.08700
C 	C 	0.52873 0.88327 0.83182 0.08900
C 	C 	0.50883 0.84027 0.80538 0.06000
C 	C 	0.34673 0.81907 0.78617 0.30700
C 	C 	0.69113 0.06777 0.83050 -0.01100
H 	H 	0.70493 0.04057 0.82217 0.01300
C 	C 	0.70293 0.12287 0.81439 -0.14300
C 	C 	0.68243 0.16447 0.82717 0.08000
H 	H 	0.69073 0.20087 0.81527 0.02100
C 	C 	0.65123 0.15347 0.85617 -0.16400
H 	H 	0.63833 0.18147 0.86437 0.10400
C 	C 	0.63933 0.09727 0.87319 0.11100
C 	C 	0.65763 0.05457 0.86004 0.01900
C 	C 	0.74133 0.14287 0.78267 0.44600
Cu	Cu	0.30309 0.04880 0.71732 0.88800
Cu	Cu	0.23368 0.79822 0.76765 0.91900
N 	N 	0.30640 0.96670 0.71562 -0.18300
N 	N 	0.27980 0.92660 0.74065 -0.15300
N 	N 	0.27820 0.87110 0.73584 -0.18000
N 	N 	0.22040 0.06540 0.63432 -0.17300
N 	N 	0.26440 0.07970 0.65700 -0.17100
N 	N 	0.25240 0.02990 0.67601 -0.19200
O 	O 	0.43960 0.98880 0.60755 -0.54400
H 	H 	0.43990 0.01790 0.61950 0.26700
O 	O 	0.40600 0.88540 0.60078 -0.42100
O 	O 	0.99440 0.88340 0.59786 -0.29300
O 	O 	0.97880 0.80380 0.63032 -0.38700
O 	O 	0.33480 0.14010 0.71137 -0.71000
H 	H 	0.31000 0.14890 0.72220 0.26100
C 	C 	0.11700 0.96300 0.62267 -0.05800
H 	H 	0.10450 0.97810 0.60480 0.08000
C 	C 	0.07930 0.90220 0.63430 -0.05800
C 	C 	0.10070 0.87780 0.66030 0.03100
H 	H 	0.07490 0.83520 0.66680 0.02200
C 	C 	0.15820 0.91530 0.67600 -0.12800
H 	H 	0.17160 0.89920 0.69310 0.08800
C 	C 	0.19540 0.97880 0.66515 0.09700
C 	C 	0.17550 0.00190 0.63871 0.05100
C 	C 	0.01340 0.86100 0.61950 0.29900
C 	C 	0.35780 0.95670 0.66383 -0.01200
H 	H 	0.37160 0.99770 0.65550 0.01500
C 	C 	0.36960 0.91340 0.64772 -0.14100
C 	C 	0.34910 0.85130 0.66050 0.07900
H 	H 	0.35740 0.82320 0.64860 0.02200
C 	C 	0.31790 0.83110 0.68950 -0.16300
H 	H 	0.30500 0.79020 0.69770 0.10400
C 	C 	0.30600 0.87540 0.70652 0.11100
C 	C 	0.32430 0.93640 0.69337 0.02000
C 	C 	0.40800 0.93180 0.61600 0.44400
Cu	Cu	0.96976 0.38213 0.05065 0.89000
Cu	Cu	0.90035 0.13155 0.10098 0.91900
N 	N 	0.97307 0.30003 0.04895 -0.18400
N 	N 	0.94647 0.25993 0.07398 -0.15300
N 	N 	0.94487 0.20443 0.06917 -0.18000
N 	N 	0.88707 0.39873 0.96765 -0.17200
N 	N 	0.93107 0.41303 0.99033 -0.16700
N 	N 	0.91907 0.36323 0.00934 -0.19400
O 	O 	0.10627 0.32213 0.94088 -0.55000
H 	H 	0.10657 0.35123 0.95283 0.27100
O 	O 	0.07267 0.21873 0.93411 -0.42300
O 	O 	0.66107 0.21673 0.93119 -0.30000
O 	O 	0.64547 0.13713 0.96365 -0.39200
O 	O 	0.00147 0.47343 0.04470 -0.71500
H 	H 	0.97667 0.48223 0.05553 0.26500
C 	C 	0.78367 0.29633 0.95600 -0.05400
H 	H 	0.77117 0.31143 0.93813 0.07800
C 	C 	0.74597 0.23553 0.96763 -0.06900
C 	C 	0.76737 0.21113 0.99363 0.05700
H 	H 	0.74157 0.16853 0.00013 0.01100
C 	C 	0.82487 0.24863 0.00933 -0.15200
H 	H 	0.83827 0.23253 0.02643 0.09600
C 	C 	0.86207 0.31213 0.99848 0.10600
C 	C 	0.84217 0.33523 0.97204 0.05200
C 	C 	0.68007 0.19433 0.95283 0.31200
C 	C 	0.02447 0.29003 0.99716 -0.01000
H 	H 	0.03827 0.33103 0.98883 0.01300
C 	C 	0.03627 0.24673 0.98105 -0.14400
C 	C 	0.01577 0.18463 0.99383 0.08100
H 	H 	0.02407 0.15653 0.98193 0.02000
C 	C 	0.98457 0.16443 0.02283 -0.16600
H 	H 	0.97167 0.12353 0.03103 0.10400
C 	C 	0.97267 0.20873 0.03985 0.11200
C 	C 	0.99097 0.26973 0.02670 0.01800
C 	C 	0.07467 0.26513 0.94933 0.44600
Cu	Cu	0.63642 0.71547 0.38399 0.88900
Cu	Cu	0.56701 0.46489 0.43432 0.91900
N 	N 	0.63973 0.63337 0.38229 -0.18400
N 	N 	0.61313 0.59327 0.40732 -0.15300
N 	N 	0.61153 0.53777 0.40251 -0.18000
N 	N 	0.55373 0.73207 0.30099 -0.17400
N 	N 	0.59773 0.74637 0.32367 -0.17000
N 	N 	0.58573 0.69657 0.34268 -0.18900
O 	O 	0.77293 0.65547 0.27422 -0.55000
H 	H 	0.77323 0.68457 0.28617 0.27200
O 	O 	0.73933 0.55207 0.26745 -0.42200
O 	O 	0.32773 0.55007 0.26453 -0.29900
O 	O 	0.31213 0.47047 0.29699 -0.39200
O 	O 	0.66813 0.80677 0.37804 -0.70900
H 	H 	0.64333 0.81557 0.38887 0.26100
C 	C 	0.45033 0.62967 0.28934 -0.06500
H 	H 	0.43783 0.64477 0.27147 0.08200
C 	C 	0.41263 0.56887 0.30097 -0.05600
C 	C 	0.43403 0.54447 0.32697 0.02800
H 	H 	0.40823 0.50187 0.33347 0.02400
C 	C 	0.49153 0.58197 0.34267 -0.12300
H 	H 	0.50493 0.56587 0.35977 0.08600
C 	C 	0.52873 0.64547 0.33182 0.08900
C 	C 	0.50883 0.66857 0.30538 0.06000
C 	C 	0.34673 0.52767 0.28617 0.30700
C 	C 	0.69113 0.62337 0.33050 -0.01100
H 	H 	0.70493 0.66437 0.32217 0.01300
C 	C 	0.70293 0.58007 0.31439 -0.14300
C 	C 	0.68243 0.51797 0.32717 0.08000
H 	H 	0.69073 0.48987 0.31527 0.02100
C 	C 	0.65123 0.49777 0.35617 -0.16400
H 	H 	0.63833 0.45687 0.36437 0.10400
C 	C 	0.63933 0.54207 0.37319 0.11100
C 	C 	0.65763 0.60307 0.36004 0.01900
C 	C 	0.74133 0.59847 0.28267 0.44600
Cu	Cu	0.95120 0.25429 0.71732 0.89000
Cu	Cu	0.20178 0.43546 0.76765 0.91900
N 	N 	0.03330 0.33970 0.71562 -0.18500
N 	N 	0.07340 0.35320 0.74065 -0.15400
N 	N 	0.12890 0.40710 0.73584 -0.18000
N 	N 	0.93460 0.15500 0.63432 -0.17600
N 	N 	0.92030 0.18470 0.65700 -0.17000
N 	N 	0.97010 0.22250 0.67601 -0.18600
O 	O 	0.01120 0.45080 0.60755 -0.55700
H 	H 	0.98210 0.42200 0.61950 0.27600
O 	O 	0.11460 0.52060 0.60078 -0.42300
O 	O 	0.11660 0.11100 0.59786 -0.29900
O 	O 	0.19620 0.17500 0.63032 -0.39200
O 	O 	0.85990 0.19470 0.71137 -0.70900
H 	H 	0.85110 0.16110 0.72220 0.26100
C 	C 	0.03700 0.15400 0.62267 -0.07500
H 	H 	0.02190 0.12640 0.60480 0.08400
C 	C 	0.09780 0.17710 0.63430 -0.05100
C 	C 	0.12220 0.22290 0.66030 0.02100
H 	H 	0.16480 0.23970 0.66680 0.02600
C 	C 	0.08470 0.24290 0.67600 -0.11600
H 	H 	0.10080 0.27240 0.69310 0.08400
C 	C 	0.02120 0.21660 0.66515 0.07800
C 	C 	0.99810 0.17360 0.63871 0.07100
C 	C 	0.13900 0.15240 0.61950 0.30500
C 	C 	0.04330 0.40110 0.66383 -0.01000
H 	H 	0.00230 0.37390 0.65550 0.01100
C 	C 	0.08660 0.45620 0.64772 -0.14500
C 	C 	0.14870 0.49780 0.66050 0.08100
H 	H 	0.17680 0.53420 0.64860 0.02100
C 	C 	0.16890 0.48680 0.68950 -0.16500
H 	H 	0.20980 0.51480 0.69770 0.10500
C 	C 	0.12460 0.43060 0.70652 0.11200
C 	C 	0.06360 0.38790 0.69337 0.01800
C 	C 	0.06820 0.47620 0.61600 0.44800
Cu	Cu	0.61787 0.58762 0.05065 0.88800
Cu	Cu	0.86845 0.76879 0.10098 0.91900
N 	N 	0.69997 0.67303 0.04895 -0.18300
N 	N 	0.74007 0.68653 0.07398 -0.15400
N 	N 	0.79557 0.74043 0.06917 -0.18100
N 	N 	0.60127 0.48833 0.96765 -0.17300
N 	N 	0.58697 0.51803 0.99033 -0.16800
N 	N 	0.63677 0.55583 0.00934 -0.19500
O 	O 	0.67787 0.78413 0.94088 -0.55100
H 	H 	0.64877 0.75533 0.95283 0.27200
O 	O 	0.78127 0.85393 0.93411 -0.42200
O 	O 	0.78327 0.44433 0.93119 -0.29900
O 	O 	0.86287 0.50833 0.96365 -0.39200
O 	O 	0.52657 0.52803 0.04470 -0.71000
H 	H 	0.51777 0.49443 0.05553 0.26100
C 	C 	0.70367 0.48733 0.95600 -0.05400
H 	H 	0.68857 0.45973 0.93813 0.07800
C 	C 	0.76447 0.51043 0.96763 -0.06800
C 	C 	0.78887 0.55623 0.99363 0.05500
H 	H 	0.83147 0.57303 0.00013 0.01200
C 	C 	0.75137 0.57623 0.00933 -0.15100
H 	H 	0.76747 0.60573 0.02643 0.09500
C 	C 	0.68787 0.54993 0.99848 0.10500
C 	C 	0.66477 0.50693 0.97204 0.05200
C 	C 	0.80567 0.48573 0.95283 0.31200
C 	C 	0.70997 0.73443 0.99716 0.00000
H 	H 	0.66897 0.70723 0.98883 0.01000
C 	C 	0.75327 0.78953 0.98105 -0.15000
C 	C 	0.81537 0.83113 0.99383 0.09300
H 	H 	0.84347 0.86753 0.98193 0.01800
C 	C 	0.83557 0.82013 0.02283 -0.17700
H 	H 	0.87647 0.84813 0.03103 0.10800
C 	C 	0.79127 0.76393 0.03985 0.11700
C 	C 	0.73027 0.72123 0.02670 0.01100
C 	C 	0.73487 0.80953 0.94933 0.44900
Cu	Cu	0.28453 0.92096 0.38399 0.88900
Cu	Cu	0.53511 0.10213 0.43432 0.91900
N 	N 	0.36663 0.00637 0.38229 -0.18500
N 	N 	0.40673 0.01987 0.40732 -0.15400
N 	N 	0.46223 0.07377 0.40251 -0.18000
N 	N 	0.26793 0.82167 0.30099 -0.17400
N 	N 	0.25363 0.85137 0.32367 -0.17000
N 	N 	0.30343 0.88917 0.34268 -0.18900
O 	O 	0.34453 0.11747 0.27422 -0.55000
H 	H 	0.31543 0.08867 0.28617 0.27100
O 	O 	0.44793 0.18727 0.26745 -0.42200
O 	O 	0.44993 0.77767 0.26453 -0.29900
O 	O 	0.52953 0.84167 0.29699 -0.39200
O 	O 	0.19323 0.86137 0.37804 -0.70900
H 	H 	0.18443 0.82777 0.38887 0.26100
C 	C 	0.37033 0.82067 0.28934 -0.06500
H 	H 	0.35523 0.79307 0.27147 0.08200
C 	C 	0.43113 0.84377 0.30097 -0.05600
C 	C 	0.45553 0.88957 0.32697 0.02800
H 	H 	0.49813 0.90637 0.33347 0.02400
C 	C 	0.41803 0.90957 0.34267 -0.12300
H 	H 	0.43413 0.93907 0.35977 0.08700
C 	C 	0.35453 0.88327 0.33182 0.08900
C 	C 	0.33143 0.84027 0.30538 0.06000
C 	C 	0.47233 0.81907 0.28617 0.30700
C 	C 	0.37663 0.06777 0.33050 -0.01100
H 	H 	0.33563 0.04057 0.32217 0.01200
C 	C 	0.41993 0.12287 0.31439 -0.14300
C 	C 	0.48203 0.16447 0.32717 0.08000
H 	H 	0.51013 0.20087 0.31527 0.02100
C 	C 	0.50223 0.15347 0.35617 -0.16400
H 	H 	0.54313 0.18147 0.36437 0.10400
C 	C 	0.45793 0.09727 0.37319 0.11100
C 	C 	0.39693 0.05457 0.36004 0.01900
C 	C 	0.40153 0.14287 0.28267 0.44600
Cu	Cu	0.74571 0.69691 0.71732 0.88900
Cu	Cu	0.56454 0.76632 0.76765 0.91900
N 	N 	0.66030 0.69360 0.71562 -0.18400
N 	N 	0.64680 0.72020 0.74065 -0.15300
N 	N 	0.59290 0.72180 0.73584 -0.18000
N 	N 	0.84500 0.77960 0.63432 -0.17400
N 	N 	0.81530 0.73560 0.65700 -0.17000
N 	N 	0.77750 0.74760 0.67601 -0.18900
O 	O 	0.54920 0.56040 0.60755 -0.55000
H 	H 	0.57800 0.56010 0.61950 0.27100
O 	O 	0.47940 0.59400 0.60078 -0.42200
O 	O 	0.88900 0.00560 0.59786 -0.30300
O 	O 	0.82500 0.02120 0.63032 -0.39600
O 	O 	0.80530 0.66520 0.71137 -0.71000
H 	H 	0.83890 0.69000 0.72220 0.26100
C 	C 	0.84600 0.88300 0.62267 -0.06300
H 	H 	0.87360 0.89550 0.60480 0.08200
C 	C 	0.82290 0.92070 0.63430 -0.05800
C 	C 	0.77710 0.89930 0.66030 0.03000
H 	H 	0.76030 0.92510 0.66680 0.02400
C 	C 	0.75710 0.84180 0.67600 -0.12400
H 	H 	0.72760 0.82840 0.69310 0.08700
C 	C 	0.78340 0.80460 0.66515 0.08900
C 	C 	0.82640 0.82450 0.63871 0.06000
C 	C 	0.84760 0.98660 0.61950 0.31600
C 	C 	0.59890 0.64220 0.66383 -0.01100
H 	H 	0.62610 0.62840 0.65550 0.01300
C 	C 	0.54380 0.63040 0.64772 -0.14300
C 	C 	0.50220 0.65090 0.66050 0.08000
H 	H 	0.46580 0.64260 0.64860 0.02100
C 	C 	0.51320 0.68210 0.68950 -0.16400
H 	H 	0.48520 0.69500 0.69770 0.10400
C 	C 	0.56940 0.69400 0.70652 0.11100
C 	C 	0.61210 0.67570 0.69337 0.01900
C 	C 	0.52380 0.59200 0.61600 0.44600
Cu	Cu	0.41238 0.03024 0.05065 0.88700
Cu	Cu	0.23121 0.09965 0.10098 0.91900
N 	N 	0.32697 0.02693 0.04895 -0.18300
N 	N 	0.31347 0.05353 0.07398 -0.15400
N 	N 	0.25957 0.05513 0.06917 -0.18200
N 	N 	0.51167 0.11293 0.96765 -0.17300
N 	N 	0.48197 0.06893 0.99033 -0.16800
N 	N 	0.44417 0.08093 0.00934 -0.19500
O 	O 	0.21587 0.89373 0.94088 -0.55200
H 	H 	0.24467 0.89343 0.95283 0.27300
O 	O 	0.14607 0.92733 0.93411 -0.42300
O 	O 	0.55567 0.33893 0.93119 -0.30000
O 	O 	0.49167 0.35453 0.96365 -0.39200
O 	O 	0.47197 0.99853 0.04470 -0.70400
H 	H 	0.50557 0.02333 0.05553 0.25600
C 	C 	0.51267 0.21633 0.95600 -0.05400
H 	H 	0.54027 0.22883 0.93813 0.07800
C 	C 	0.48957 0.25403 0.96763 -0.06900
C 	C 	0.44377 0.23263 0.99363 0.05600
H 	H 	0.42697 0.25843 0.00013 0.01100
C 	C 	0.42377 0.17513 0.00933 -0.15200
H 	H 	0.39427 0.16173 0.02643 0.09600
C 	C 	0.45007 0.13793 0.99848 0.10600
C 	C 	0.49307 0.15783 0.97204 0.05200
C 	C 	0.51427 0.31993 0.95283 0.31200
C 	C 	0.26557 0.97553 0.99716 0.00900
H 	H 	0.29277 0.96173 0.98883 0.00800
C 	C 	0.21047 0.96373 0.98105 -0.15500
C 	C 	0.16887 0.98423 0.99383 0.10300
H 	H 	0.13247 0.97593 0.98193 0.01500
C 	C 	0.17987 0.01543 0.02283 -0.18700
H 	H 	0.15187 0.02833 0.03103 0.11000
C 	C 	0.23607 0.02733 0.03985 0.12100
C 	C 	0.27877 0.00903 0.02670 0.00400
C 	C 	0.19047 0.92533 0.94933 0.45100
Cu	Cu	0.07904 0.36358 0.38399 0.88800
Cu	Cu	0.89787 0.43299 0.43432 0.91900
N 	N 	0.99363 0.36027 0.38229 -0.18300
N 	N 	0.98013 0.38687 0.40732 -0.15200
N 	N 	0.92623 0.38847 0.40251 -0.18000
N 	N 	0.17833 0.44627 0.30099 -0.17400
N 	N 	0.14863 0.40227 0.32367 -0.17100
N 	N 	0.11083 0.41427 0.34268 -0.18900
O 	O 	0.88253 0.22707 0.27422 -0.55000
H 	H 	0.91133 0.22677 0.28617 0.27200
O 	O 	0.81273 0.26067 0.26745 -0.42200
O 	O 	0.22233 0.67227 0.26453 -0.29900
O 	O 	0.15833 0.68787 0.29699 -0.39300
O 	O 	0.13863 0.33187 0.37804 -0.71000
H 	H 	0.17223 0.35667 0.38887 0.26100
C 	C 	0.17933 0.54967 0.28934 -0.06500
H 	H 	0.20693 0.56217 0.27147 0.08200
C 	C 	0.15623 0.58737 0.30097 -0.05600
C 	C 	0.11043 0.56597 0.32697 0.02700
H 	H 	0.09363 0.59177 0.33347 0.02400
C 	C 	0.09043 0.50847 0.34267 -0.12300
H 	H 	0.06093 0.49507 0.35977 0.08500
C 	C 	0.11673 0.47127 0.33182 0.08800
C 	C 	0.15973 0.49117 0.30538 0.06000
C 	C 	0.18093 0.65327 0.28617 0.30700
C 	C 	0.93223 0.30887 0.33050 -0.01100
H 	H 	0.95943 0.29507 0.32217 0.01400
C 	C 	0.87713 0.29707 0.31439 -0.14300
C 	C 	0.83553 0.31757 0.32717 0.08000
H 	H 	0.79913 0.30927 0.31527 0.02100
C 	C 	0.84653 0.34877 0.35617 -0.16400
H 	H 	0.81853 0.36167 0.36437 0.10400
C 	C 	0.90273 0.36067 0.37319 0.11100
C 	C 	0.94543 0.34237 0.36004 0.02000
C 	C 	0.85713 0.25867 0.28267 0.44600
Cu	Cu	0.04880 0.30309 0.78268 0.88800
Cu	Cu	0.79822 0.23368 0.73235 0.91900
N 	N 	0.96670 0.30640 0.78438 -0.18300
N 	N 	0.92660 0.27980 0.75935 -0.15300
N 	N 	0.87110 0.27820 0.76416 -0.18000
N 	N 	0.06540 0.22040 0.86568 -0.17300
N 	N 	0.07970 0.26440 0.84300 -0.17100
N 	N 	0.02990 0.25240 0.82399 -0.19200
O 	O 	0.98880 0.43960 0.89245 -0.54300
H 	H 	0.01790 0.43990 0.88050 0.26600
O 	O 	0.88540 0.40600 0.89922 -0.42100
O 	O 	0.88340 0.99440 0.90214 -0.29400
O 	O 	0.80380 0.97880 0.86968 -0.38800
O 	O 	0.14010 0.33480 0.78863 -0.71000
H 	H 	0.14890 0.31000 0.77780 0.26100
C 	C 	0.96300 0.11700 0.87733 -0.05600
H 	H 	0.97810 0.10450 0.89520 0.08000
C 	C 	0.90220 0.07930 0.86570 -0.05900
C 	C 	0.87780 0.10070 0.83970 0.03200
H 	H 	0.83520 0.07490 0.83320 0.02200
C 	C 	0.91530 0.15820 0.82400 -0.13000
H 	H 	0.89920 0.17160 0.80690 0.08900
C 	C 	0.97880 0.19540 0.83485 0.09900
C 	C 	0.00190 0.17550 0.86129 0.04900
C 	C 	0.86100 0.01340 0.88050 0.30100
C 	C 	0.95670 0.35780 0.83617 -0.01200
H 	H 	0.99770 0.37160 0.84450 0.01500
C 	C 	0.91340 0.36960 0.85228 -0.14100
C 	C 	0.85130 0.34910 0.83950 0.07800
H 	H 	0.82320 0.35740 0.85140 0.02200
C 	C 	0.83110 0.31790 0.81050 -0.16300
H 	H 	0.79020 0.30500 0.80230 0.10400
C 	C 	0.87540 0.30600 0.79348 0.11100
C 	C 	0.93640 0.32430 0.80663 0.02100
C 	C 	0.93180 0.40800 0.88400 0.44300
Cu	Cu	0.71547 0.63642 0.11601 0.88900
Cu	Cu	0.46489 0.56701 0.06568 0.91900
N 	N 	0.63337 0.63973 0.11771 -0.18400
N 	N 	0.59327 0.61313 0.09268 -0.15400
N 	N 	0.53777 0.61153 0.09749 -0.18000
N 	N 	0.73207 0.55373 0.19901 -0.17400
N 	N 	0.74637 0.59773 0.17633 -0.17000
N 	N 	0.69657 0.58573 0.15732 -0.18900
O 	O 	0.65547 0.77293 0.22578 -0.55000
H 	H 	0.68457 0.77323 0.21383 0.27200
O 	O 	0.55207 0.73933 0.23255 -0.42200
O 	O 	0.55007 0.32773 0.23547 -0.29900
O 	O 	0.47047 0.31213 0.20301 -0.39200
O 	O 	0.80677 0.66813 0.12196 -0.70900
H 	H 	0.81557 0.64333 0.11113 0.26100
C 	C 	0.62967 0.45033 0.21066 -0.06500
H 	H 	0.64477 0.43783 0.22853 0.08200
C 	C 	0.56887 0.41263 0.19903 -0.05600
C 	C 	0.54447 0.43403 0.17303 0.02800
H 	H 	0.50187 0.40823 0.16653 0.02400
C 	C 	0.58197 0.49153 0.15733 -0.12300
H 	H 	0.56587 0.50493 0.14023 0.08600
C 	C 	0.64547 0.52873 0.16818 0.08900
C 	C 	0.66857 0.50883 0.19462 0.06000
C 	C 	0.52767 0.34673 0.21383 0.30700
C 	C 	0.62337 0.69113 0.16950 -0.01100
H 	H 	0.66437 0.70493 0.17783 0.01300
C 	C 	0.58007 0.70293 0.18561 -0.14300
C 	C 	0.51797 0.68243 0.17283 0.08000
H 	H 	0.48987 0.69073 0.18473 0.02100
C 	C 	0.49777 0.65123 0.14383 -0.16400
H 	H 	0.45687 0.63833 0.13563 0.10400
C 	C 	0.54207 0.63933 0.12681 0.11100
C 	C 	0.60307 0.65763 0.13996 0.01900
C 	C 	0.59847 0.74133 0.21733 0.44600
Cu	Cu	0.38213 0.96976 0.44935 0.89000
Cu	Cu	0.13155 0.90035 0.39902 0.91900
N 	N 	0.30003 0.97307 0.45105 -0.18500
N 	N 	0.25993 0.94647 0.42602 -0.15300
N 	N 	0.20443 0.94487 0.43083 -0.17900
N 	N 	0.39873 0.88707 0.53235 -0.17400
N 	N 	0.41303 0.93107 0.50967 -0.17000
N 	N 	0.36323 0.91907 0.49066 -0.18900
O 	O 	0.32213 0.10627 0.55912 -0.54900
H 	H 	0.35123 0.10657 0.54717 0.27100
O 	O 	0.21873 0.07267 0.56589 -0.42200
O 	O 	0.21673 0.66107 0.56881 -0.29900
O 	O 	0.13713 0.64547 0.53635 -0.39200
O 	O 	0.47343 0.00147 0.45530 -0.71400
H 	H 	0.48223 0.97667 0.44447 0.26500
C 	C 	0.29633 0.78367 0.54400 -0.06500
H 	H 	0.31143 0.77117 0.56187 0.08200
C 	C 	0.23553 0.74597 0.53237 -0.05600
C 	C 	0.21113 0.76737 0.50637 0.02800
H 	H 	0.16853 0.74157 0.49987 0.02400
C 	C 	0.24863 0.82487 0.49067 -0.12300
H 	H 	0.23253 0.83827 0.47357 0.08600
C 	C 	0.31213 0.86207 0.50152 0.08900
C 	C 	0.33523 0.84217 0.52796 0.06000
C 	C 	0.19433 0.68007 0.54717 0.30700
C 	C 	0.29003 0.02447 0.50284 -0.02000
H 	H 	0.33103 0.03827 0.51117 0.01600
C 	C 	0.24673 0.03627 0.51895 -0.13700
C 	C 	0.18463 0.01577 0.50617 0.06900
H 	H 	0.15653 0.02407 0.51807 0.02400
C 	C 	0.16443 0.98457 0.47717 -0.15400
H 	H 	0.12353 0.97167 0.46897 0.10100
C 	C 	0.20873 0.97267 0.46015 0.10700
C 	C 	0.26973 0.99097 0.47330 0.02600
C 	C 	0.26513 0.07467 0.55067 0.44400
Cu	Cu	0.25429 0.95120 0.78268 0.89000
Cu	Cu	0.43546 0.20178 0.73235 0.91900
N 	N 	0.33970 0.03330 0.78438 -0.18500
N 	N 	0.35320 0.07340 0.75935 -0.15400
N 	N 	0.40710 0.12890 0.76416 -0.18000
N 	N 	0.15500 0.93460 0.86568 -0.17500
N 	N 	0.18470 0.92030 0.84300 -0.17000
N 	N 	0.22250 0.97010 0.82399 -0.18600
O 	O 	0.45080 0.01120 0.89245 -0.55500
H 	H 	0.42200 0.98210 0.88050 0.27600
O 	O 	0.52060 0.11460 0.89922 -0.42300
O 	O 	0.11100 0.11660 0.90214 -0.29900
O 	O 	0.17500 0.19620 0.86968 -0.39200
O 	O 	0.19470 0.85990 0.78863 -0.70900
H 	H 	0.16110 0.85110 0.77780 0.26100
C 	C 	0.15400 0.03700 0.87733 -0.07300
H 	H 	0.12640 0.02190 0.89520 0.08300
C 	C 	0.17710 0.09780 0.86570 -0.05200
C 	C 	0.22290 0.12220 0.83970 0.02300
H 	H 	0.23970 0.16480 0.83320 0.02600
C 	C 	0.24290 0.08470 0.82400 -0.11800
H 	H 	0.27240 0.10080 0.80690 0.08400
C 	C 	0.21660 0.02120 0.83485 0.08000
C 	C 	0.17360 0.99810 0.86129 0.06900
C 	C 	0.15240 0.13900 0.88050 0.30600
C 	C 	0.40110 0.04330 0.83617 -0.01000
H 	H 	0.37390 0.00230 0.84450 0.01200
C 	C 	0.45620 0.08660 0.85228 -0.14500
C 	C 	0.49780 0.14870 0.83950 0.08100
H 	H 	0.53420 0.17680 0.85140 0.02100
C 	C 	0.48680 0.16890 0.81050 -0.16500
H 	H 	0.51480 0.20980 0.80230 0.10500
C 	C 	0.43060 0.12460 0.79348 0.11200
C 	C 	0.38790 0.06360 0.80663 0.01800
C 	C 	0.47620 0.06820 0.88400 0.44800
Cu	Cu	0.92096 0.28453 0.11601 0.88900
Cu	Cu	0.10213 0.53511 0.06568 0.91900
N 	N 	0.00637 0.36663 0.11771 -0.18500
N 	N 	0.01987 0.40673 0.09268 -0.15500
N 	N 	0.07377 0.46223 0.09749 -0.18000
N 	N 	0.82167 0.26793 0.19901 -0.17400
N 	N 	0.85137 0.25363 0.17633 -0.17000
N 	N 	0.88917 0.30343 0.15732 -0.18900
O 	O 	0.11747 0.34453 0.22578 -0.55000
H 	H 	0.08867 0.31543 0.21383 0.27100
O 	O 	0.18727 0.44793 0.23255 -0.42200
O 	O 	0.77767 0.44993 0.23547 -0.29900
O 	O 	0.84167 0.52953 0.20301 -0.39200
O 	O 	0.86137 0.19323 0.12196 -0.70900
H 	H 	0.82777 0.18443 0.11113 0.26000
C 	C 	0.82067 0.37033 0.21066 -0.06500
H 	H 	0.79307 0.35523 0.22853 0.08200
C 	C 	0.84377 0.43113 0.19903 -0.05600
C 	C 	0.88957 0.45553 0.17303 0.02800
H 	H 	0.90637 0.49813 0.16653 0.02400
C 	C 	0.90957 0.41803 0.15733 -0.12400
H 	H 	0.93907 0.43413 0.14023 0.08700
C 	C 	0.88327 0.35453 0.16818 0.08900
C 	C 	0.84027 0.33143 0.19462 0.06000
C 	C 	0.81907 0.47233 0.21383 0.30700
C 	C 	0.06777 0.37663 0.16950 -0.01100
H 	H 	0.04057 0.33563 0.17783 0.01200
C 	C 	0.12287 0.41993 0.18561 -0.14300
C 	C 	0.16447 0.48203 0.17283 0.08000
H 	H 	0.20087 0.51013 0.18473 0.02100
C 	C 	0.15347 0.50223 0.14383 -0.16400
H 	H 	0.18147 0.54313 0.13563 0.10400
C 	C 	0.09727 0.45793 0.12681 0.11100
C 	C 	0.05457 0.39693 0.13996 0.01800
C 	C 	0.14287 0.40153 0.21733 0.44600
Cu	Cu	0.58762 0.61787 0.44935 0.88900
Cu	Cu	0.76879 0.86845 0.39902 0.91900
N 	N 	0.67303 0.69997 0.45105 -0.18400
N 	N 	0.68653 0.74007 0.42602 -0.15300
N 	N 	0.74043 0.79557 0.43083 -0.18000
N 	N 	0.48833 0.60127 0.53235 -0.17400
N 	N 	0.51803 0.58697 0.50967 -0.17000
N 	N 	0.55583 0.63677 0.49066 -0.18900
O 	O 	0.78413 0.67787 0.55912 -0.55000
H 	H 	0.75533 0.64877 0.54717 0.27100
O 	O 	0.85393 0.78127 0.56589 -0.42200
O 	O 	0.44433 0.78327 0.56881 -0.29900
O 	O 	0.50833 0.86287 0.53635 -0.39200
O 	O 	0.52803 0.52657 0.45530 -0.70900
H 	H 	0.49443 0.51777 0.44447 0.26100
C 	C 	0.48733 0.70367 0.54400 -0.06500
H 	H 	0.45973 0.68857 0.56187 0.08200
C 	C 	0.51043 0.76447 0.53237 -0.05600
C 	C 	0.55623 0.78887 0.50637 0.02800
H 	H 	0.57303 0.83147 0.49987 0.02400
C 	C 	0.57623 0.75137 0.49067 -0.12300
H 	H 	0.60573 0.76747 0.47357 0.08600
C 	C 	0.54993 0.68787 0.50152 0.08900
C 	C 	0.50693 0.66477 0.52796 0.06000
C 	C 	0.48573 0.80567 0.54717 0.30700
C 	C 	0.73443 0.70997 0.50284 -0.01100
H 	H 	0.70723 0.66897 0.51117 0.01300
C 	C 	0.78953 0.75327 0.51895 -0.14300
C 	C 	0.83113 0.81537 0.50617 0.08000
H 	H 	0.86753 0.84347 0.51807 0.02200
C 	C 	0.82013 0.83557 0.47717 -0.16400
H 	H 	0.84813 0.87647 0.46897 0.10500
C 	C 	0.76393 0.79127 0.46015 0.11100
C 	C 	0.72123 0.73027 0.47330 0.01900
C 	C 	0.80953 0.73487 0.55067 0.44600
Cu	Cu	0.69691 0.74571 0.78268 0.88900
Cu	Cu	0.76632 0.56454 0.73235 0.91900
N 	N 	0.69360 0.66030 0.78438 -0.18400
N 	N 	0.72020 0.64680 0.75935 -0.15300
N 	N 	0.72180 0.59290 0.76416 -0.18000
N 	N 	0.77960 0.84500 0.86568 -0.17400
N 	N 	0.73560 0.81530 0.84300 -0.17000
N 	N 	0.74760 0.77750 0.82399 -0.18900
O 	O 	0.56040 0.54920 0.89245 -0.55000
H 	H 	0.56010 0.57800 0.88050 0.27100
O 	O 	0.59400 0.47940 0.89922 -0.42200
O 	O 	0.00560 0.88900 0.90214 -0.30400
O 	O 	0.02120 0.82500 0.86968 -0.39700
O 	O 	0.66520 0.80530 0.78863 -0.70900
H 	H 	0.69000 0.83890 0.77780 0.26100
C 	C 	0.88300 0.84600 0.87733 -0.06300
H 	H 	0.89550 0.87360 0.89520 0.08200
C 	C 	0.92070 0.82290 0.86570 -0.05900
C 	C 	0.89930 0.77710 0.83970 0.03000
H 	H 	0.92510 0.76030 0.83320 0.02400
C 	C 	0.84180 0.75710 0.82400 -0.12400
H 	H 	0.82840 0.72760 0.80690 0.08700
C 	C 	0.80460 0.78340 0.83485 0.08900
C 	C 	0.82450 0.82640 0.86129 0.06000
C 	C 	0.98660 0.84760 0.88050 0.31700
C 	C 	0.64220 0.59890 0.83617 -0.01100
H 	H 	0.62840 0.62610 0.84450 0.01300
C 	C 	0.63040 0.54380 0.85228 -0.14300
C 	C 	0.65090 0.50220 0.83950 0.08000
H 	H 	0.64260 0.46580 0.85140 0.02100
C 	C 	0.68210 0.51320 0.81050 -0.16400
H 	H 	0.69500 0.48520 0.80230 0.10400
C 	C 	0.69400 0.56940 0.79348 0.11100
C 	C 	0.67570 0.61210 0.80663 0.01900
C 	C 	0.59200 0.52380 0.88400 0.44600
Cu	Cu	0.36358 0.07904 0.11601 0.88800
Cu	Cu	0.43299 0.89787 0.06568 0.91900
N 	N 	0.36027 0.99363 0.11771 -0.18300
N 	N 	0.38687 0.98013 0.09268 -0.15300
N 	N 	0.38847 0.92623 0.09749 -0.18000
N 	N 	0.44627 0.17833 0.19901 -0.17400
N 	N 	0.40227 0.14863 0.17633 -0.17100
N 	N 	0.41427 0.11083 0.15732 -0.18900
O 	O 	0.22707 0.88253 0.22578 -0.55000
H 	H 	0.22677 0.91133 0.21383 0.27200
O 	O 	0.26067 0.81273 0.23255 -0.42200
O 	O 	0.67227 0.22233 0.23547 -0.29900
O 	O 	0.68787 0.15833 0.20301 -0.39300
O 	O 	0.33187 0.13863 0.12196 -0.70900
H 	H 	0.35667 0.17223 0.11113 0.26100
C 	C 	0.54967 0.17933 0.21066 -0.06500
H 	H 	0.56217 0.20693 0.22853 0.08200
C 	C 	0.58737 0.15623 0.19903 -0.05600
C 	C 	0.56597 0.11043 0.17303 0.02700
H 	H 	0.59177 0.09363 0.16653 0.02400
C 	C 	0.50847 0.09043 0.15733 -0.12300
H 	H 	0.49507 0.06093 0.14023 0.08500
C 	C 	0.47127 0.11673 0.16818 0.08800
C 	C 	0.49117 0.15973 0.19462 0.06000
C 	C 	0.65327 0.18093 0.21383 0.30700
C 	C 	0.30887 0.93223 0.16950 -0.01100
H 	H 	0.29507 0.95943 0.17783 0.01400
C 	C 	0.29707 0.87713 0.18561 -0.14300
C 	C 	0.31757 0.83553 0.17283 0.08000
H 	H 	0.30927 0.79913 0.18473 0.02100
C 	C 	0.34877 0.84653 0.14383 -0.16400
H 	H 	0.36167 0.81853 0.13563 0.10400
C 	C 	0.36067 0.90273 0.12681 0.11100
C 	C 	0.34237 0.94543 0.13996 0.02000
C 	C 	0.25867 0.85713 0.21733 0.44600
Cu	Cu	0.03024 0.41238 0.44935 0.88700
Cu	Cu	0.09965 0.23121 0.39902 0.91900
N 	N 	0.02693 0.32697 0.45105 -0.18400
N 	N 	0.05353 0.31347 0.42602 -0.15400
N 	N 	0.05513 0.25957 0.43083 -0.18100
N 	N 	0.11293 0.51167 0.53235 -0.17400
N 	N 	0.06893 0.48197 0.50967 -0.17100
N 	N 	0.08093 0.44417 0.49066 -0.19000
O 	O 	0.89373 0.21587 0.55912 -0.55100
H 	H 	0.89343 0.24467 0.54717 0.27200
O 	O 	0.92733 0.14607 0.56589 -0.42200
O 	O 	0.33893 0.55567 0.56881 -0.29900
O 	O 	0.35453 0.49167 0.53635 -0.39200
O 	O 	0.99853 0.47197 0.45530 -0.70300
H 	H 	0.02333 0.50557 0.44447 0.25600
C 	C 	0.21633 0.51267 0.54400 -0.06500
H 	H 	0.22883 0.54027 0.56187 0.08200
C 	C 	0.25403 0.48957 0.53237 -0.05600
C 	C 	0.23263 0.44377 0.50637 0.02800
H 	H 	0.25843 0.42697 0.49987 0.02400
C 	C 	0.17513 0.42377 0.49067 -0.12400
H 	H 	0.16173 0.39427 0.47357 0.08600
C 	C 	0.13793 0.45007 0.50152 0.08900
C 	C 	0.15783 0.49307 0.52796 0.06000
C 	C 	0.31993 0.51427 0.54717 0.30700
C 	C 	0.97553 0.26557 0.50284 -0.00100
H 	H 	0.96173 0.29277 0.51117 0.01100
C 	C 	0.96373 0.21047 0.51895 -0.14900
C 	C 	0.98423 0.16887 0.50617 0.09200
H 	H 	0.97593 0.13247 0.51807 0.01800
C 	C 	0.01543 0.17987 0.47717 -0.17600
H 	H 	0.02833 0.15187 0.46897 0.10700
C 	C 	0.02733 0.23607 0.46015 0.11600
C 	C 	0.00903 0.27877 0.47330 0.01100
C 	C 	0.92533 0.19047 0.55067 0.44900
Cu	Cu	0.66667 0.83333 0.33333 0.87700
Cu	Cu	0.16667 0.83333 0.33333 0.87700
Cu	Cu	0.16667 0.33333 0.33333 0.87700
Cu	Cu	0.83333 0.66667 0.16667 0.87700
Cu	Cu	0.50000 -0.00000 0.50000 0.87600
Cu	Cu	0.83333 0.16667 0.16667 0.87700
Cu	Cu	0.50000 0.50000 0.50000 0.87700
Cu	Cu	0.33333 0.16667 0.16667 0.87700
Cu	Cu	-0.00000 0.50000 0.50000 0.87600
Cu	Cu	0.33333 0.16667 0.66667 0.87700
Cu	Cu	-0.00000 0.50000 -0.00000 0.87400
Cu	Cu	0.83333 0.16667 0.66667 0.87700
Cu	Cu	0.50000 0.50000 -0.00000 0.87500
Cu	Cu	0.83333 0.66667 0.66667 0.87700
Cu	Cu	0.50000 0.00000 -0.00000 0.87400
Cu	Cu	0.16667 0.33333 0.83333 0.87700
Cu	Cu	0.16667 0.83333 0.83333 0.87700
Cu	Cu	0.66667 0.83333 0.83333 0.87700
Cl	Cl	0.79990 -0.00000 0.25000 -0.52800
Cl	Cl	0.46657 0.33333 0.58333 -0.52600
Cl	Cl	0.13323 0.66667 0.91667 -0.52600
Cl	Cl	-0.00000 0.79990 0.25000 -0.52900
Cl	Cl	0.66667 0.13323 0.58333 -0.52700
Cl	Cl	0.33333 0.46657 0.91667 -0.52500
Cl	Cl	0.20010 0.20010 0.25000 -0.52700
Cl	Cl	0.86677 0.53343 0.58333 -0.52600
Cl	Cl	0.53343 0.86677 0.91667 -0.52500
Cl	Cl	0.20010 -0.00000 0.75000 -0.52900
Cl	Cl	0.86677 0.33333 0.08333 -0.52700
Cl	Cl	0.53343 0.66667 0.41667 -0.52600
Cl	Cl	-0.00000 0.20010 0.75000 -0.53000
Cl	Cl	0.66667 0.53343 0.08333 -0.52700
Cl	Cl	0.33333 0.86677 0.41667 -0.52600
Cl	Cl	0.79990 0.79990 0.75000 -0.52500
Cl	Cl	0.46657 0.13323 0.08333 -0.52700
Cl	Cl	0.13323 0.46657 0.41667 -0.52700
