data_crystal

_cell_length_a 5.09960
_cell_length_b 21.25950
_cell_length_c 8.92090
_cell_angle_alpha 90.00000
_cell_angle_beta  90.23940
_cell_angle_gamma 90.00000

_symmetry_space_group_name_	'P 1'
_symmetry_space_group_name_H-M	'P 1'

loop_
_symmetry_equiv_pos_as_xyz
  x,y,z

loop_
_atom_site_label
_atom_site_type_symbol
_atom_site_fract_x
_atom_site_fract_y
_atom_site_fract_z
_atom_site_charge
Ti	Ti	0.72781 0.10040 0.02196 3.12100
P 	P 	0.21323 0.38578 0.26543 0.57600
P 	P 	0.23973 0.04614 0.83991 0.71100
O 	O 	0.26380 0.32270 0.34900 -0.67700
O 	O 	0.72040 0.19070 0.96930 -0.60800
O 	O 	0.41740 0.39243 0.14160 -0.81200
O 	O 	0.02490 0.09140 0.89370 -0.89500
O 	O 	0.93840 0.38292 0.19590 -0.61900
O 	O 	0.75090 0.01240 0.06180 -0.87600
O 	O 	0.50590 0.08086 0.84430 -0.65800
O 	O 	0.23470 0.43885 0.37990 -0.81900
O 	O 	0.18490 0.02950 0.67600 -0.98700
Ti	Ti	0.27219 0.60040 0.97804 3.11000
P 	P 	0.78677 0.88578 0.73457 0.92700
P 	P 	0.76027 0.54614 0.16009 0.80900
O 	O 	0.73620 0.82270 0.65100 -0.63700
O 	O 	0.27960 0.69070 0.03070 -0.74700
O 	O 	0.58260 0.89243 0.85840 -0.79000
O 	O 	0.97510 0.59140 0.10630 -0.62000
O 	O 	0.06160 0.88292 0.80410 -1.00500
O 	O 	0.24910 0.51240 0.93820 -0.85800
O 	O 	0.49410 0.58086 0.15570 -0.75700
O 	O 	0.76530 0.93885 0.62010 -0.66900
O 	O 	0.81510 0.52950 0.32400 -0.79800
Ti	Ti	0.27219 0.89960 0.97804 3.11000
P 	P 	0.78677 0.61422 0.73457 0.92600
P 	P 	0.76027 0.95386 0.16009 0.91600
O 	O 	0.73620 0.67730 0.65100 -0.63800
O 	O 	0.27960 0.80930 0.03070 -0.74600
O 	O 	0.58260 0.60757 0.85840 -0.80400
O 	O 	0.97510 0.90860 0.10630 -0.61900
O 	O 	0.06160 0.61708 0.80410 -1.01900
O 	O 	0.24910 0.98760 0.93820 -0.73800
O 	O 	0.49410 0.91914 0.15570 -0.74700
O 	O 	0.76530 0.56115 0.62010 -0.72400
O 	O 	0.81510 0.97050 0.32400 -0.74400
Ti	Ti	0.72781 0.39960 0.02196 3.12300
P 	P 	0.21323 0.11422 0.26543 0.57300
P 	P 	0.23973 0.45386 0.83991 0.80800
O 	O 	0.26380 0.17730 0.34900 -0.67900
O 	O 	0.72040 0.30930 0.96930 -0.60900
O 	O 	0.41740 0.10757 0.14160 -0.82900
O 	O 	0.02490 0.40860 0.89370 -0.89800
O 	O 	0.93840 0.11708 0.19590 -0.63400
O 	O 	0.75090 0.48760 0.06180 -0.74600
O 	O 	0.50590 0.41914 0.84430 -0.65300
O 	O 	0.23470 0.06115 0.37990 -0.86900
O 	O 	0.18490 0.47050 0.67600 -0.94100
Ga	Ga	0.31530 0.25000 0.24392 2.07000
P 	P 	0.80270 0.25000 0.05581 0.76100
O 	O 	0.66760 0.25000 0.21090 -0.68200
O 	O 	0.10260 0.25000 0.07860 -0.83400
Ga	Ga	0.68470 0.75000 0.75608 2.08200
P 	P 	0.19730 0.75000 0.94419 0.49800
O 	O 	0.33240 0.75000 0.78910 -0.74300
O 	O 	0.89740 0.75000 0.92140 -0.45900
Ti	Ti	0.00000 0.50000 0.50000 3.04100
Ti	Ti	-0.00000 -0.00000 0.50000 3.02500
