data_crystal

_cell_length_a 31.40650
_cell_length_b 31.40650
_cell_length_c 21.57320
_cell_angle_alpha 90.00000
_cell_angle_beta  90.00000
_cell_angle_gamma 90.00000

_symmetry_space_group_name_	'P 1'
_symmetry_space_group_name_H-M	'P 1'

loop_
_symmetry_equiv_pos_as_xyz
  x,y,z

loop_
_atom_site_label
_atom_site_type_symbol
_atom_site_fract_x
_atom_site_fract_y
_atom_site_fract_z
_atom_site_charge
Cu	Cu	0.96814 0.49830 0.29970 0.90400
O 	O 	0.41235 0.49313 0.75880 -0.41100
O 	O 	0.44234 0.46772 0.67160 -0.42100
O 	O 	0.02760 0.49263 0.32530 -0.42800
O 	O 	0.05586 0.52550 0.24360 -0.42300
O 	O 	0.25181 0.31219 0.53340 -0.39200
O 	O 	0.24118 0.31209 0.43010 -0.38500
O 	O 	0.24928 0.46629 0.59290 -0.31100
O 	O 	0.22494 0.46650 0.37570 -0.28800
C 	C 	0.36940 0.47460 0.67410 -0.21500
C 	C 	0.10290 0.49560 0.31660 -0.18100
C 	C 	0.24230 0.37760 0.48270 0.12500
C 	C 	0.41140 0.47920 0.70420 0.40600
C 	C 	0.05730 0.50590 0.29330 0.40800
C 	C 	0.24900 0.39900 0.53810 -0.27600
H 	H 	0.25536 0.38442 0.57451 0.15000
C 	C 	0.24650 0.32980 0.48240 0.28200
C 	C 	0.10660 0.47070 0.36880 0.16100
H 	H 	0.08220 0.46024 0.38794 -0.00500
C 	C 	0.28990 0.46840 0.61720 0.31000
C 	C 	0.23070 0.44030 0.43050 0.35200
C 	C 	0.24590 0.44310 0.53690 0.32300
C 	C 	0.36580 0.46100 0.61500 0.19100
H 	H 	0.39044 0.45399 0.59347 -0.01400
C 	C 	0.23380 0.39930 0.42680 -0.32000
H 	H 	0.23069 0.38499 0.38942 0.16700
C 	C 	0.18040 0.47450 0.36050 0.26000
C 	C 	0.13800 0.50990 0.28610 0.13100
H 	H 	0.13427 0.52580 0.25019 0.00800
C 	C 	0.32720 0.45710 0.58490 -0.30100
H 	H 	0.32588 0.44733 0.54424 0.14600
C 	C 	0.23680 0.46470 0.48220 -0.38400
H 	H 	0.23488 0.49425 0.48089 0.19000
C 	C 	0.17970 0.50160 0.30680 -0.22700
H 	H 	0.20396 0.51235 0.28782 0.13200
C 	C 	0.33360 0.48500 0.70590 0.15100
H 	H 	0.33569 0.49358 0.74706 0.00100
C 	C 	0.14560 0.46140 0.39260 -0.28100
H 	H 	0.14828 0.44654 0.42972 0.13800
C 	C 	0.29120 0.48270 0.67590 -0.27200
H 	H 	0.26658 0.49073 0.69679 0.14300
Cu	Cu	0.53186 0.00170 0.29970 0.90500
O 	O 	0.08765 0.00687 0.75880 -0.41000
O 	O 	0.05766 0.03228 0.67160 -0.42000
O 	O 	0.47240 0.00737 0.32530 -0.42700
O 	O 	0.44414 0.97450 0.24360 -0.42200
O 	O 	0.24819 0.18781 0.53340 -0.39100
O 	O 	0.25882 0.18791 0.43010 -0.38400
O 	O 	0.25072 0.03371 0.59290 -0.31000
O 	O 	0.27506 0.03350 0.37570 -0.28800
C 	C 	0.13060 0.02540 0.67410 -0.21500
C 	C 	0.39710 0.00440 0.31660 -0.18100
C 	C 	0.25770 0.12240 0.48270 0.12500
C 	C 	0.08860 0.02080 0.70420 0.40600
C 	C 	0.44270 0.99410 0.29330 0.40800
C 	C 	0.25100 0.10100 0.53810 -0.27600
H 	H 	0.24464 0.11558 0.57451 0.15000
C 	C 	0.25350 0.17020 0.48240 0.28200
C 	C 	0.39340 0.02930 0.36880 0.16100
H 	H 	0.41780 0.03976 0.38794 -0.00500
C 	C 	0.21010 0.03160 0.61720 0.31000
C 	C 	0.26930 0.05970 0.43050 0.35200
C 	C 	0.25410 0.05690 0.53690 0.32300
C 	C 	0.13420 0.03900 0.61500 0.19100
H 	H 	0.10956 0.04601 0.59347 -0.01400
C 	C 	0.26620 0.10070 0.42680 -0.32000
H 	H 	0.26931 0.11501 0.38942 0.16700
C 	C 	0.31960 0.02550 0.36050 0.26000
C 	C 	0.36200 0.99010 0.28610 0.13100
H 	H 	0.36573 0.97420 0.25019 0.00800
C 	C 	0.17280 0.04290 0.58490 -0.30100
H 	H 	0.17412 0.05267 0.54424 0.14600
C 	C 	0.26320 0.03530 0.48220 -0.38400
H 	H 	0.26512 0.00575 0.48089 0.19000
C 	C 	0.32030 0.99840 0.30680 -0.22800
H 	H 	0.29604 0.98765 0.28782 0.13200
C 	C 	0.16640 0.01500 0.70590 0.15100
H 	H 	0.16431 0.00642 0.74706 0.00200
C 	C 	0.35440 0.03860 0.39260 -0.28100
H 	H 	0.35172 0.05346 0.42972 0.13800
C 	C 	0.20880 0.01730 0.67590 -0.27200
H 	H 	0.23342 0.00927 0.69679 0.14300
Cu	Cu	0.00170 0.96814 0.29970 0.90400
O 	O 	0.00687 0.41235 0.75880 -0.41000
O 	O 	0.03228 0.44234 0.67160 -0.42000
O 	O 	0.00737 0.02760 0.32530 -0.42500
O 	O 	0.97450 0.05586 0.24360 -0.42200
O 	O 	0.18781 0.25181 0.53340 -0.39100
O 	O 	0.18791 0.24118 0.43010 -0.38400
O 	O 	0.03371 0.24928 0.59290 -0.31000
O 	O 	0.03350 0.22494 0.37570 -0.28700
C 	C 	0.02540 0.36940 0.67410 -0.21500
C 	C 	0.00440 0.10290 0.31660 -0.17900
C 	C 	0.12240 0.24230 0.48270 0.12500
C 	C 	0.02080 0.41140 0.70420 0.40600
C 	C 	0.99410 0.05730 0.29330 0.40500
C 	C 	0.10100 0.24900 0.53810 -0.27600
H 	H 	0.11558 0.25536 0.57451 0.15000
C 	C 	0.17020 0.24650 0.48240 0.28200
C 	C 	0.02930 0.10660 0.36880 0.16000
H 	H 	0.03976 0.08220 0.38794 -0.00400
C 	C 	0.03160 0.28990 0.61720 0.31000
C 	C 	0.05970 0.23070 0.43050 0.35200
C 	C 	0.05690 0.24590 0.53690 0.32300
C 	C 	0.03900 0.36580 0.61500 0.19100
H 	H 	0.04601 0.39044 0.59347 -0.01400
C 	C 	0.10070 0.23380 0.42680 -0.32000
H 	H 	0.11501 0.23069 0.38942 0.16700
C 	C 	0.02550 0.18040 0.36050 0.25900
C 	C 	0.99010 0.13800 0.28610 0.12900
H 	H 	0.97420 0.13427 0.25019 0.00800
C 	C 	0.04290 0.32720 0.58490 -0.30100
H 	H 	0.05267 0.32588 0.54424 0.14600
C 	C 	0.03530 0.23680 0.48220 -0.38400
H 	H 	0.00575 0.23488 0.48089 0.19000
C 	C 	0.99840 0.17970 0.30680 -0.22700
H 	H 	0.98765 0.20396 0.28782 0.13100
C 	C 	0.01500 0.33360 0.70590 0.15100
H 	H 	0.00642 0.33569 0.74706 0.00200
C 	C 	0.03860 0.14560 0.39260 -0.28000
H 	H 	0.05346 0.14828 0.42972 0.13800
C 	C 	0.01730 0.29120 0.67590 -0.27200
H 	H 	0.00927 0.26658 0.69679 0.14300
Cu	Cu	0.49830 0.53186 0.29970 0.90500
O 	O 	0.49313 0.08765 0.75880 -0.41000
O 	O 	0.46772 0.05766 0.67160 -0.42000
O 	O 	0.49263 0.47240 0.32530 -0.42700
O 	O 	0.52550 0.44414 0.24360 -0.42200
O 	O 	0.31219 0.24819 0.53340 -0.39100
O 	O 	0.31209 0.25882 0.43010 -0.38400
O 	O 	0.46629 0.25072 0.59290 -0.31000
O 	O 	0.46650 0.27506 0.37570 -0.28800
C 	C 	0.47460 0.13060 0.67410 -0.21500
C 	C 	0.49560 0.39710 0.31660 -0.18100
C 	C 	0.37760 0.25770 0.48270 0.12500
C 	C 	0.47920 0.08860 0.70420 0.40600
C 	C 	0.50590 0.44270 0.29330 0.40800
C 	C 	0.39900 0.25100 0.53810 -0.27600
H 	H 	0.38442 0.24464 0.57451 0.15000
C 	C 	0.32980 0.25350 0.48240 0.28200
C 	C 	0.47070 0.39340 0.36880 0.16100
H 	H 	0.46024 0.41780 0.38794 -0.00500
C 	C 	0.46840 0.21010 0.61720 0.31000
C 	C 	0.44030 0.26930 0.43050 0.35200
C 	C 	0.44310 0.25410 0.53690 0.32300
C 	C 	0.46100 0.13420 0.61500 0.19100
H 	H 	0.45399 0.10956 0.59347 -0.01400
C 	C 	0.39930 0.26620 0.42680 -0.32000
H 	H 	0.38499 0.26931 0.38942 0.16700
C 	C 	0.47450 0.31960 0.36050 0.26000
C 	C 	0.50990 0.36200 0.28610 0.13100
H 	H 	0.52580 0.36573 0.25019 0.00800
C 	C 	0.45710 0.17280 0.58490 -0.30100
H 	H 	0.44733 0.17412 0.54424 0.14600
C 	C 	0.46470 0.26320 0.48220 -0.38400
H 	H 	0.49425 0.26512 0.48089 0.19000
C 	C 	0.50160 0.32030 0.30680 -0.22700
H 	H 	0.51235 0.29604 0.28782 0.13200
C 	C 	0.48500 0.16640 0.70590 0.15100
H 	H 	0.49358 0.16431 0.74706 0.00100
C 	C 	0.46140 0.35440 0.39260 -0.28100
H 	H 	0.44654 0.35172 0.42972 0.13800
C 	C 	0.48270 0.20880 0.67590 -0.27200
H 	H 	0.49073 0.23342 0.69679 0.14300
Cu	Cu	0.53186 0.49830 0.20030 0.90500
O 	O 	0.08765 0.49313 0.74120 -0.41000
O 	O 	0.05766 0.46772 0.82840 -0.42000
O 	O 	0.47240 0.49263 0.17470 -0.42700
O 	O 	0.44414 0.52550 0.25640 -0.42200
O 	O 	0.24819 0.31219 0.96660 -0.39100
O 	O 	0.25882 0.31209 0.06990 -0.38400
O 	O 	0.25072 0.46629 0.90710 -0.31000
O 	O 	0.27506 0.46650 0.12430 -0.28800
C 	C 	0.13060 0.47460 0.82590 -0.21500
C 	C 	0.39710 0.49560 0.18340 -0.18100
C 	C 	0.25770 0.37760 0.01730 0.12500
C 	C 	0.08860 0.47920 0.79580 0.40600
C 	C 	0.44270 0.50590 0.20670 0.40800
C 	C 	0.25100 0.39900 0.96190 -0.27600
H 	H 	0.24464 0.38442 0.92549 0.15000
C 	C 	0.25350 0.32980 0.01760 0.28200
C 	C 	0.39340 0.47070 0.13120 0.16100
H 	H 	0.41780 0.46024 0.11206 -0.00500
C 	C 	0.21010 0.46840 0.88280 0.31000
C 	C 	0.26930 0.44030 0.06950 0.35200
C 	C 	0.25410 0.44310 0.96310 0.32300
C 	C 	0.13420 0.46100 0.88500 0.19100
H 	H 	0.10956 0.45399 0.90653 -0.01400
C 	C 	0.26620 0.39930 0.07320 -0.32000
H 	H 	0.26931 0.38499 0.11058 0.16700
C 	C 	0.31960 0.47450 0.13950 0.26000
C 	C 	0.36200 0.50990 0.21390 0.13100
H 	H 	0.36573 0.52580 0.24981 0.00800
C 	C 	0.17280 0.45710 0.91510 -0.30100
H 	H 	0.17412 0.44733 0.95576 0.14600
C 	C 	0.26320 0.46470 0.01780 -0.38400
H 	H 	0.26512 0.49425 0.01911 0.19000
C 	C 	0.32030 0.50160 0.19320 -0.22700
H 	H 	0.29604 0.51235 0.21218 0.13200
C 	C 	0.16640 0.48500 0.79410 0.15100
H 	H 	0.16431 0.49358 0.75294 0.00100
C 	C 	0.35440 0.46140 0.10740 -0.28100
H 	H 	0.35172 0.44654 0.07028 0.13800
C 	C 	0.20880 0.48270 0.82410 -0.27200
H 	H 	0.23342 0.49073 0.80321 0.14300
Cu	Cu	0.96814 0.00170 0.20030 0.90400
O 	O 	0.41235 0.00687 0.74120 -0.41000
O 	O 	0.44234 0.03228 0.82840 -0.42000
O 	O 	0.02760 0.00737 0.17470 -0.42500
O 	O 	0.05586 0.97450 0.25640 -0.42200
O 	O 	0.25181 0.18781 0.96660 -0.39100
O 	O 	0.24118 0.18791 0.06990 -0.38400
O 	O 	0.24928 0.03371 0.90710 -0.31000
O 	O 	0.22494 0.03350 0.12430 -0.28700
C 	C 	0.36940 0.02540 0.82590 -0.21500
C 	C 	0.10290 0.00440 0.18340 -0.17900
C 	C 	0.24230 0.12240 0.01730 0.12500
C 	C 	0.41140 0.02080 0.79580 0.40600
C 	C 	0.05730 0.99410 0.20670 0.40500
C 	C 	0.24900 0.10100 0.96190 -0.27600
H 	H 	0.25536 0.11558 0.92549 0.15000
C 	C 	0.24650 0.17020 0.01760 0.28200
C 	C 	0.10660 0.02930 0.13120 0.16000
H 	H 	0.08220 0.03976 0.11206 -0.00400
C 	C 	0.28990 0.03160 0.88280 0.31000
C 	C 	0.23070 0.05970 0.06950 0.35200
C 	C 	0.24590 0.05690 0.96310 0.32300
C 	C 	0.36580 0.03900 0.88500 0.19100
H 	H 	0.39044 0.04601 0.90653 -0.01400
C 	C 	0.23380 0.10070 0.07320 -0.32000
H 	H 	0.23069 0.11501 0.11058 0.16700
C 	C 	0.18040 0.02550 0.13950 0.25900
C 	C 	0.13800 0.99010 0.21390 0.12900
H 	H 	0.13427 0.97420 0.24981 0.00800
C 	C 	0.32720 0.04290 0.91510 -0.30100
H 	H 	0.32588 0.05267 0.95576 0.14600
C 	C 	0.23680 0.03530 0.01780 -0.38500
H 	H 	0.23488 0.00575 0.01911 0.19000
C 	C 	0.17970 0.99840 0.19320 -0.22700
H 	H 	0.20396 0.98765 0.21218 0.13100
C 	C 	0.33360 0.01500 0.79410 0.15100
H 	H 	0.33569 0.00642 0.75294 0.00200
C 	C 	0.14560 0.03860 0.10740 -0.28000
H 	H 	0.14828 0.05346 0.07028 0.13800
C 	C 	0.29120 0.01730 0.82410 -0.27200
H 	H 	0.26658 0.00927 0.80321 0.14300
Cu	Cu	0.49830 0.96814 0.20030 0.90500
O 	O 	0.49313 0.41235 0.74120 -0.41000
O 	O 	0.46772 0.44234 0.82840 -0.42000
O 	O 	0.49263 0.02760 0.17470 -0.42700
O 	O 	0.52550 0.05586 0.25640 -0.42200
O 	O 	0.31219 0.25181 0.96660 -0.39100
O 	O 	0.31209 0.24118 0.06990 -0.38400
O 	O 	0.46629 0.24928 0.90710 -0.31000
O 	O 	0.46650 0.22494 0.12430 -0.28800
C 	C 	0.47460 0.36940 0.82590 -0.21500
C 	C 	0.49560 0.10290 0.18340 -0.18100
C 	C 	0.37760 0.24230 0.01730 0.12500
C 	C 	0.47920 0.41140 0.79580 0.40600
C 	C 	0.50590 0.05730 0.20670 0.40800
C 	C 	0.39900 0.24900 0.96190 -0.27600
H 	H 	0.38442 0.25536 0.92549 0.15000
C 	C 	0.32980 0.24650 0.01760 0.28200
C 	C 	0.47070 0.10660 0.13120 0.16100
H 	H 	0.46024 0.08220 0.11206 -0.00500
C 	C 	0.46840 0.28990 0.88280 0.31000
C 	C 	0.44030 0.23070 0.06950 0.35200
C 	C 	0.44310 0.24590 0.96310 0.32300
C 	C 	0.46100 0.36580 0.88500 0.19100
H 	H 	0.45399 0.39044 0.90653 -0.01400
C 	C 	0.39930 0.23380 0.07320 -0.32000
H 	H 	0.38499 0.23069 0.11058 0.16700
C 	C 	0.47450 0.18040 0.13950 0.26000
C 	C 	0.50990 0.13800 0.21390 0.13100
H 	H 	0.52580 0.13427 0.24981 0.00800
C 	C 	0.45710 0.32720 0.91510 -0.30100
H 	H 	0.44733 0.32588 0.95576 0.14600
C 	C 	0.46470 0.23680 0.01780 -0.38400
H 	H 	0.49425 0.23488 0.01911 0.19000
C 	C 	0.50160 0.17970 0.19320 -0.22700
H 	H 	0.51235 0.20396 0.21218 0.13200
C 	C 	0.48500 0.33360 0.79410 0.15100
H 	H 	0.49358 0.33569 0.75294 0.00100
C 	C 	0.46140 0.14560 0.10740 -0.28100
H 	H 	0.44654 0.14828 0.07028 0.13800
C 	C 	0.48270 0.29120 0.82410 -0.27200
H 	H 	0.49073 0.26658 0.80321 0.14300
Cu	Cu	0.00170 0.53186 0.20030 0.90500
O 	O 	0.00687 0.08765 0.74120 -0.41000
O 	O 	0.03228 0.05766 0.82840 -0.41900
O 	O 	0.00737 0.47240 0.17470 -0.42700
O 	O 	0.97450 0.44414 0.25640 -0.42200
O 	O 	0.18781 0.24819 0.96660 -0.39100
O 	O 	0.18791 0.25882 0.06990 -0.38400
O 	O 	0.03371 0.25072 0.90710 -0.31000
O 	O 	0.03350 0.27506 0.12430 -0.28800
C 	C 	0.02540 0.13060 0.82590 -0.21500
C 	C 	0.00440 0.39710 0.18340 -0.18100
C 	C 	0.12240 0.25770 0.01730 0.12500
C 	C 	0.02080 0.08860 0.79580 0.40600
C 	C 	0.99410 0.44270 0.20670 0.40800
C 	C 	0.10100 0.25100 0.96190 -0.27600
H 	H 	0.11558 0.24464 0.92549 0.15000
C 	C 	0.17020 0.25350 0.01760 0.28200
C 	C 	0.02930 0.39340 0.13120 0.16100
H 	H 	0.03976 0.41780 0.11206 -0.00500
C 	C 	0.03160 0.21010 0.88280 0.31000
C 	C 	0.05970 0.26930 0.06950 0.35200
C 	C 	0.05690 0.25410 0.96310 0.32300
C 	C 	0.03900 0.13420 0.88500 0.19100
H 	H 	0.04601 0.10956 0.90653 -0.01400
C 	C 	0.10070 0.26620 0.07320 -0.32000
H 	H 	0.11501 0.26931 0.11058 0.16700
C 	C 	0.02550 0.31960 0.13950 0.26000
C 	C 	0.99010 0.36200 0.21390 0.13100
H 	H 	0.97420 0.36573 0.24981 0.00800
C 	C 	0.04290 0.17280 0.91510 -0.30100
H 	H 	0.05267 0.17412 0.95576 0.14600
C 	C 	0.03530 0.26320 0.01780 -0.38500
H 	H 	0.00575 0.26512 0.01911 0.19000
C 	C 	0.99840 0.32030 0.19320 -0.22700
H 	H 	0.98765 0.29604 0.21218 0.13200
C 	C 	0.01500 0.16640 0.79410 0.15100
H 	H 	0.00642 0.16431 0.75294 0.00200
C 	C 	0.03860 0.35440 0.10740 -0.28100
H 	H 	0.05346 0.35172 0.07028 0.13800
C 	C 	0.01730 0.20880 0.82410 -0.27200
H 	H 	0.00927 0.23342 0.80321 0.14300
Cu	Cu	0.03186 0.50170 0.70030 0.90500
O 	O 	0.58765 0.50687 0.24120 -0.41000
O 	O 	0.55766 0.53228 0.32840 -0.42000
O 	O 	0.97240 0.50737 0.67470 -0.42700
O 	O 	0.94414 0.47450 0.75640 -0.42200
O 	O 	0.74819 0.68781 0.46660 -0.39100
O 	O 	0.75882 0.68791 0.56990 -0.38400
O 	O 	0.75072 0.53371 0.40710 -0.31000
O 	O 	0.77506 0.53350 0.62430 -0.28800
C 	C 	0.63060 0.52540 0.32590 -0.21500
C 	C 	0.89710 0.50440 0.68340 -0.18100
C 	C 	0.75770 0.62240 0.51730 0.12500
C 	C 	0.58860 0.52080 0.29580 0.40600
C 	C 	0.94270 0.49410 0.70670 0.40800
C 	C 	0.75100 0.60100 0.46190 -0.27600
H 	H 	0.74464 0.61558 0.42549 0.15000
C 	C 	0.75350 0.67020 0.51760 0.28200
C 	C 	0.89340 0.52930 0.63120 0.16100
H 	H 	0.91780 0.53976 0.61206 -0.00500
C 	C 	0.71010 0.53160 0.38280 0.31000
C 	C 	0.76930 0.55970 0.56950 0.35200
C 	C 	0.75410 0.55690 0.46310 0.32300
C 	C 	0.63420 0.53900 0.38500 0.19100
H 	H 	0.60956 0.54601 0.40653 -0.01400
C 	C 	0.76620 0.60070 0.57320 -0.32000
H 	H 	0.76931 0.61501 0.61058 0.16700
C 	C 	0.81960 0.52550 0.63950 0.26000
C 	C 	0.86200 0.49010 0.71390 0.13100
H 	H 	0.86573 0.47420 0.74981 0.00800
C 	C 	0.67280 0.54290 0.41510 -0.30100
H 	H 	0.67412 0.55267 0.45576 0.14600
C 	C 	0.76320 0.53530 0.51780 -0.38400
H 	H 	0.76512 0.50575 0.51911 0.19000
C 	C 	0.82030 0.49840 0.69320 -0.22700
H 	H 	0.79604 0.48765 0.71218 0.13200
C 	C 	0.66640 0.51500 0.29410 0.15100
H 	H 	0.66431 0.50642 0.25294 0.00100
C 	C 	0.85440 0.53860 0.60740 -0.28100
H 	H 	0.85172 0.55346 0.57028 0.13800
C 	C 	0.70880 0.51730 0.32410 -0.27200
H 	H 	0.73342 0.50927 0.30321 0.14300
Cu	Cu	0.46814 0.99830 0.70030 0.90500
O 	O 	0.91235 0.99313 0.24120 -0.41000
O 	O 	0.94234 0.96772 0.32840 -0.42000
O 	O 	0.52760 0.99263 0.67470 -0.42700
O 	O 	0.55586 0.02550 0.75640 -0.42200
O 	O 	0.75181 0.81219 0.46660 -0.39100
O 	O 	0.74118 0.81209 0.56990 -0.38400
O 	O 	0.74928 0.96629 0.40710 -0.31000
O 	O 	0.72494 0.96650 0.62430 -0.28800
C 	C 	0.86940 0.97460 0.32590 -0.21500
C 	C 	0.60290 0.99560 0.68340 -0.18100
C 	C 	0.74230 0.87760 0.51730 0.12500
C 	C 	0.91140 0.97920 0.29580 0.40600
C 	C 	0.55730 0.00590 0.70670 0.40800
C 	C 	0.74900 0.89900 0.46190 -0.27600
H 	H 	0.75536 0.88442 0.42549 0.15000
C 	C 	0.74650 0.82980 0.51760 0.28200
C 	C 	0.60660 0.97070 0.63120 0.16100
H 	H 	0.58220 0.96024 0.61206 -0.00500
C 	C 	0.78990 0.96840 0.38280 0.31000
C 	C 	0.73070 0.94030 0.56950 0.35200
C 	C 	0.74590 0.94310 0.46310 0.32300
C 	C 	0.86580 0.96100 0.38500 0.19100
H 	H 	0.89044 0.95399 0.40653 -0.01400
C 	C 	0.73380 0.89930 0.57320 -0.32000
H 	H 	0.73069 0.88499 0.61058 0.16700
C 	C 	0.68040 0.97450 0.63950 0.26000
C 	C 	0.63800 0.00990 0.71390 0.13100
H 	H 	0.63427 0.02580 0.74981 0.00800
C 	C 	0.82720 0.95710 0.41510 -0.30100
H 	H 	0.82588 0.94733 0.45576 0.14600
C 	C 	0.73680 0.96470 0.51780 -0.38400
H 	H 	0.73488 0.99425 0.51911 0.19000
C 	C 	0.67970 0.00160 0.69320 -0.22800
H 	H 	0.70396 0.01235 0.71218 0.13200
C 	C 	0.83360 0.98500 0.29410 0.15100
H 	H 	0.83569 0.99358 0.25294 0.00200
C 	C 	0.64560 0.96140 0.60740 -0.28100
H 	H 	0.64828 0.94654 0.57028 0.13800
C 	C 	0.79120 0.98270 0.32410 -0.27200
H 	H 	0.76658 0.99073 0.30321 0.14300
Cu	Cu	0.99830 0.03186 0.70030 0.90400
O 	O 	0.99313 0.58765 0.24120 -0.41000
O 	O 	0.96772 0.55766 0.32840 -0.42000
O 	O 	0.99263 0.97240 0.67470 -0.42500
O 	O 	0.02550 0.94414 0.75640 -0.42200
O 	O 	0.81219 0.74819 0.46660 -0.39100
O 	O 	0.81209 0.75882 0.56990 -0.38400
O 	O 	0.96629 0.75072 0.40710 -0.31000
O 	O 	0.96650 0.77506 0.62430 -0.28700
C 	C 	0.97460 0.63060 0.32590 -0.21500
C 	C 	0.99560 0.89710 0.68340 -0.17900
C 	C 	0.87760 0.75770 0.51730 0.12500
C 	C 	0.97920 0.58860 0.29580 0.40600
C 	C 	0.00590 0.94270 0.70670 0.40500
C 	C 	0.89900 0.75100 0.46190 -0.27600
H 	H 	0.88442 0.74464 0.42549 0.15000
C 	C 	0.82980 0.75350 0.51760 0.28200
C 	C 	0.97070 0.89340 0.63120 0.16000
H 	H 	0.96024 0.91780 0.61206 -0.00400
C 	C 	0.96840 0.71010 0.38280 0.31000
C 	C 	0.94030 0.76930 0.56950 0.35200
C 	C 	0.94310 0.75410 0.46310 0.32300
C 	C 	0.96100 0.63420 0.38500 0.19100
H 	H 	0.95399 0.60956 0.40653 -0.01400
C 	C 	0.89930 0.76620 0.57320 -0.32000
H 	H 	0.88499 0.76931 0.61058 0.16700
C 	C 	0.97450 0.81960 0.63950 0.25900
C 	C 	0.00990 0.86200 0.71390 0.12900
H 	H 	0.02580 0.86573 0.74981 0.00800
C 	C 	0.95710 0.67280 0.41510 -0.30100
H 	H 	0.94733 0.67412 0.45576 0.14600
C 	C 	0.96470 0.76320 0.51780 -0.38400
H 	H 	0.99425 0.76512 0.51911 0.19000
C 	C 	0.00160 0.82030 0.69320 -0.22700
H 	H 	0.01235 0.79604 0.71218 0.13100
C 	C 	0.98500 0.66640 0.29410 0.15100
H 	H 	0.99358 0.66431 0.25294 0.00200
C 	C 	0.96140 0.85440 0.60740 -0.28000
H 	H 	0.94654 0.85172 0.57028 0.13800
C 	C 	0.98270 0.70880 0.32410 -0.27200
H 	H 	0.99073 0.73342 0.30321 0.14300
Cu	Cu	0.50170 0.46814 0.70030 0.90500
O 	O 	0.50687 0.91235 0.24120 -0.41000
O 	O 	0.53228 0.94234 0.32840 -0.42000
O 	O 	0.50737 0.52760 0.67470 -0.42700
O 	O 	0.47450 0.55586 0.75640 -0.42200
O 	O 	0.68781 0.75181 0.46660 -0.39100
O 	O 	0.68791 0.74118 0.56990 -0.38400
O 	O 	0.53371 0.74928 0.40710 -0.31000
O 	O 	0.53350 0.72494 0.62430 -0.28800
C 	C 	0.52540 0.86940 0.32590 -0.21500
C 	C 	0.50440 0.60290 0.68340 -0.18100
C 	C 	0.62240 0.74230 0.51730 0.12500
C 	C 	0.52080 0.91140 0.29580 0.40600
C 	C 	0.49410 0.55730 0.70670 0.40800
C 	C 	0.60100 0.74900 0.46190 -0.27600
H 	H 	0.61558 0.75536 0.42549 0.15000
C 	C 	0.67020 0.74650 0.51760 0.28200
C 	C 	0.52930 0.60660 0.63120 0.16100
H 	H 	0.53976 0.58220 0.61206 -0.00500
C 	C 	0.53160 0.78990 0.38280 0.31000
C 	C 	0.55970 0.73070 0.56950 0.35200
C 	C 	0.55690 0.74590 0.46310 0.32300
C 	C 	0.53900 0.86580 0.38500 0.19100
H 	H 	0.54601 0.89044 0.40653 -0.01400
C 	C 	0.60070 0.73380 0.57320 -0.32000
H 	H 	0.61501 0.73069 0.61058 0.16700
C 	C 	0.52550 0.68040 0.63950 0.26000
C 	C 	0.49010 0.63800 0.71390 0.13100
H 	H 	0.47420 0.63427 0.74981 0.00800
C 	C 	0.54290 0.82720 0.41510 -0.30100
H 	H 	0.55267 0.82588 0.45576 0.14600
C 	C 	0.53530 0.73680 0.51780 -0.38400
H 	H 	0.50575 0.73488 0.51911 0.19000
C 	C 	0.49840 0.67970 0.69320 -0.22700
H 	H 	0.48765 0.70396 0.71218 0.13200
C 	C 	0.51500 0.83360 0.29410 0.15100
H 	H 	0.50642 0.83569 0.25294 0.00100
C 	C 	0.53860 0.64560 0.60740 -0.28100
H 	H 	0.55346 0.64828 0.57028 0.13800
C 	C 	0.51730 0.79120 0.32410 -0.27200
H 	H 	0.50927 0.76658 0.30321 0.14300
Cu	Cu	0.46814 0.50170 0.79970 0.90500
O 	O 	0.91235 0.50687 0.25880 -0.41000
O 	O 	0.94234 0.53228 0.17160 -0.42000
O 	O 	0.52760 0.50737 0.82530 -0.42700
O 	O 	0.55586 0.47450 0.74360 -0.42200
O 	O 	0.75181 0.68781 0.03340 -0.39100
O 	O 	0.74118 0.68791 0.93010 -0.38400
O 	O 	0.74928 0.53371 0.09290 -0.31000
O 	O 	0.72494 0.53350 0.87570 -0.28800
C 	C 	0.86940 0.52540 0.17410 -0.21500
C 	C 	0.60290 0.50440 0.81660 -0.18100
C 	C 	0.74230 0.62240 0.98270 0.12500
C 	C 	0.91140 0.52080 0.20420 0.40600
C 	C 	0.55730 0.49410 0.79330 0.40800
C 	C 	0.74900 0.60100 0.03810 -0.27600
H 	H 	0.75536 0.61558 0.07451 0.15000
C 	C 	0.74650 0.67020 0.98240 0.28200
C 	C 	0.60660 0.52930 0.86880 0.16100
H 	H 	0.58220 0.53976 0.88794 -0.00500
C 	C 	0.78990 0.53160 0.11720 0.31000
C 	C 	0.73070 0.55970 0.93050 0.35200
C 	C 	0.74590 0.55690 0.03690 0.32300
C 	C 	0.86580 0.53900 0.11500 0.19100
H 	H 	0.89044 0.54601 0.09347 -0.01400
C 	C 	0.73380 0.60070 0.92680 -0.32000
H 	H 	0.73069 0.61501 0.88942 0.16700
C 	C 	0.68040 0.52550 0.86050 0.26000
C 	C 	0.63800 0.49010 0.78610 0.13100
H 	H 	0.63427 0.47420 0.75019 0.00800
C 	C 	0.82720 0.54290 0.08490 -0.30100
H 	H 	0.82588 0.55267 0.04424 0.14600
C 	C 	0.73680 0.53530 0.98220 -0.38400
H 	H 	0.73488 0.50575 0.98089 0.19000
C 	C 	0.67970 0.49840 0.80680 -0.22700
H 	H 	0.70396 0.48765 0.78782 0.13200
C 	C 	0.83360 0.51500 0.20590 0.15100
H 	H 	0.83569 0.50642 0.24706 0.00100
C 	C 	0.64560 0.53860 0.89260 -0.28100
H 	H 	0.64828 0.55346 0.92972 0.13800
C 	C 	0.79120 0.51730 0.17590 -0.27200
H 	H 	0.76658 0.50927 0.19679 0.14300
Cu	Cu	0.03186 0.99830 0.79970 0.90400
O 	O 	0.58765 0.99313 0.25880 -0.41000
O 	O 	0.55766 0.96772 0.17160 -0.42000
O 	O 	0.97240 0.99263 0.82530 -0.42500
O 	O 	0.94414 0.02550 0.74360 -0.42200
O 	O 	0.74819 0.81219 0.03340 -0.39100
O 	O 	0.75882 0.81209 0.93010 -0.38400
O 	O 	0.75072 0.96629 0.09290 -0.31000
O 	O 	0.77506 0.96650 0.87570 -0.28700
C 	C 	0.63060 0.97460 0.17410 -0.21500
C 	C 	0.89710 0.99560 0.81660 -0.17900
C 	C 	0.75770 0.87760 0.98270 0.12500
C 	C 	0.58860 0.97920 0.20420 0.40600
C 	C 	0.94270 0.00590 0.79330 0.40500
C 	C 	0.75100 0.89900 0.03810 -0.27600
H 	H 	0.74464 0.88442 0.07451 0.15000
C 	C 	0.75350 0.82980 0.98240 0.28200
C 	C 	0.89340 0.97070 0.86880 0.16000
H 	H 	0.91780 0.96024 0.88794 -0.00400
C 	C 	0.71010 0.96840 0.11720 0.31000
C 	C 	0.76930 0.94030 0.93050 0.35200
C 	C 	0.75410 0.94310 0.03690 0.32300
C 	C 	0.63420 0.96100 0.11500 0.19100
H 	H 	0.60956 0.95399 0.09347 -0.01400
C 	C 	0.76620 0.89930 0.92680 -0.32000
H 	H 	0.76931 0.88499 0.88942 0.16700
C 	C 	0.81960 0.97450 0.86050 0.25900
C 	C 	0.86200 0.00990 0.78610 0.12900
H 	H 	0.86573 0.02580 0.75019 0.00800
C 	C 	0.67280 0.95710 0.08490 -0.30100
H 	H 	0.67412 0.94733 0.04424 0.14600
C 	C 	0.76320 0.96470 0.98220 -0.38500
H 	H 	0.76512 0.99425 0.98089 0.19000
C 	C 	0.82030 0.00160 0.80680 -0.22700
H 	H 	0.79604 0.01235 0.78782 0.13100
C 	C 	0.66640 0.98500 0.20590 0.15100
H 	H 	0.66431 0.99358 0.24706 0.00200
C 	C 	0.85440 0.96140 0.89260 -0.28000
H 	H 	0.85172 0.94654 0.92972 0.13800
C 	C 	0.70880 0.98270 0.17590 -0.27200
H 	H 	0.73342 0.99073 0.19679 0.14300
Cu	Cu	0.50170 0.03186 0.79970 0.90500
O 	O 	0.50687 0.58765 0.25880 -0.41000
O 	O 	0.53228 0.55766 0.17160 -0.42000
O 	O 	0.50737 0.97240 0.82530 -0.42700
O 	O 	0.47450 0.94414 0.74360 -0.42200
O 	O 	0.68781 0.74819 0.03340 -0.39100
O 	O 	0.68791 0.75882 0.93010 -0.38400
O 	O 	0.53371 0.75072 0.09290 -0.31000
O 	O 	0.53350 0.77506 0.87570 -0.28800
C 	C 	0.52540 0.63060 0.17410 -0.21500
C 	C 	0.50440 0.89710 0.81660 -0.18100
C 	C 	0.62240 0.75770 0.98270 0.12500
C 	C 	0.52080 0.58860 0.20420 0.40600
C 	C 	0.49410 0.94270 0.79330 0.40800
C 	C 	0.60100 0.75100 0.03810 -0.27600
H 	H 	0.61558 0.74464 0.07451 0.15000
C 	C 	0.67020 0.75350 0.98240 0.28200
C 	C 	0.52930 0.89340 0.86880 0.16100
H 	H 	0.53976 0.91780 0.88794 -0.00500
C 	C 	0.53160 0.71010 0.11720 0.31000
C 	C 	0.55970 0.76930 0.93050 0.35200
C 	C 	0.55690 0.75410 0.03690 0.32300
C 	C 	0.53900 0.63420 0.11500 0.19100
H 	H 	0.54601 0.60956 0.09347 -0.01400
C 	C 	0.60070 0.76620 0.92680 -0.32000
H 	H 	0.61501 0.76931 0.88942 0.16700
C 	C 	0.52550 0.81960 0.86050 0.26000
C 	C 	0.49010 0.86200 0.78610 0.13100
H 	H 	0.47420 0.86573 0.75019 0.00800
C 	C 	0.54290 0.67280 0.08490 -0.30100
H 	H 	0.55267 0.67412 0.04424 0.14600
C 	C 	0.53530 0.76320 0.98220 -0.38400
H 	H 	0.50575 0.76512 0.98089 0.19000
C 	C 	0.49840 0.82030 0.80680 -0.22700
H 	H 	0.48765 0.79604 0.78782 0.13200
C 	C 	0.51500 0.66640 0.20590 0.15100
H 	H 	0.50642 0.66431 0.24706 0.00100
C 	C 	0.53860 0.85440 0.89260 -0.28100
H 	H 	0.55346 0.85172 0.92972 0.13800
C 	C 	0.51730 0.70880 0.17590 -0.27200
H 	H 	0.50927 0.73342 0.19679 0.14300
Cu	Cu	0.99830 0.46814 0.79970 0.90500
O 	O 	0.99313 0.91235 0.25880 -0.41000
O 	O 	0.96772 0.94234 0.17160 -0.41900
O 	O 	0.99263 0.52760 0.82530 -0.42700
O 	O 	0.02550 0.55586 0.74360 -0.42200
O 	O 	0.81219 0.75181 0.03340 -0.39100
O 	O 	0.81209 0.74118 0.93010 -0.38400
O 	O 	0.96629 0.74928 0.09290 -0.31000
O 	O 	0.96650 0.72494 0.87570 -0.28800
C 	C 	0.97460 0.86940 0.17410 -0.21500
C 	C 	0.99560 0.60290 0.81660 -0.18100
C 	C 	0.87760 0.74230 0.98270 0.12500
C 	C 	0.97920 0.91140 0.20420 0.40600
C 	C 	0.00590 0.55730 0.79330 0.40800
C 	C 	0.89900 0.74900 0.03810 -0.27600
H 	H 	0.88442 0.75536 0.07451 0.15000
C 	C 	0.82980 0.74650 0.98240 0.28200
C 	C 	0.97070 0.60660 0.86880 0.16100
H 	H 	0.96024 0.58220 0.88794 -0.00500
C 	C 	0.96840 0.78990 0.11720 0.31000
C 	C 	0.94030 0.73070 0.93050 0.35200
C 	C 	0.94310 0.74590 0.03690 0.32300
C 	C 	0.96100 0.86580 0.11500 0.19100
H 	H 	0.95399 0.89044 0.09347 -0.01400
C 	C 	0.89930 0.73380 0.92680 -0.32000
H 	H 	0.88499 0.73069 0.88942 0.16700
C 	C 	0.97450 0.68040 0.86050 0.26000
C 	C 	0.00990 0.63800 0.78610 0.13100
H 	H 	0.02580 0.63427 0.75019 0.00800
C 	C 	0.95710 0.82720 0.08490 -0.30100
H 	H 	0.94733 0.82588 0.04424 0.14600
C 	C 	0.96470 0.73680 0.98220 -0.38500
H 	H 	0.99425 0.73488 0.98089 0.19000
C 	C 	0.00160 0.67970 0.80680 -0.22700
H 	H 	0.01235 0.70396 0.78782 0.13200
C 	C 	0.98500 0.83360 0.20590 0.15100
H 	H 	0.99358 0.83569 0.24706 0.00200
C 	C 	0.96140 0.64560 0.89260 -0.28100
H 	H 	0.94654 0.64828 0.92972 0.13800
C 	C 	0.98270 0.79120 0.17590 -0.27200
H 	H 	0.99073 0.76658 0.19679 0.14300
Cu	Cu	0.25000 0.25000 0.42100 0.89500
Cu	Cu	0.25000 0.25000 0.54309 0.90000
Cu	Cu	0.25000 0.25000 0.07900 0.89500
Cu	Cu	0.25000 0.25000 0.95691 0.90000
Cu	Cu	0.75000 0.75000 0.57900 0.89500
Cu	Cu	0.75000 0.75000 0.45691 0.90000
Cu	Cu	0.75000 0.75000 0.92100 0.89500
Cu	Cu	0.75000 0.75000 0.04309 0.90000
