data_crystal

_cell_length_a 19.69930
_cell_length_b 19.69930
_cell_length_c 29.29830
_cell_angle_alpha 90.00000
_cell_angle_beta  90.00000
_cell_angle_gamma 120.00000

_symmetry_space_group_name_	'P 1'
_symmetry_space_group_name_H-M	'P 1'

loop_
_symmetry_equiv_pos_as_xyz
  x,y,z

loop_
_atom_site_label
_atom_site_type_symbol
_atom_site_fract_x
_atom_site_fract_y
_atom_site_fract_z
_atom_site_charge
Cu	Cu	0.36310 0.67135 0.66933 0.91700
O 	O 	0.30970 0.70320 0.62330 -0.34200
O 	O 	0.25750 0.66570 0.55270 -0.31100
O 	O 	0.29050 0.54430 0.55530 -0.31800
N 	N 	0.34060 0.58980 0.62640 -0.20200
C 	C 	0.30780 0.59170 0.59000 0.10200
C 	C 	0.28500 0.65670 0.58700 0.22800
C 	C 	0.42140 0.56800 0.67830 0.33900
C 	C 	0.37310 0.53780 0.63590 -0.19800
H 	H 	0.40690 0.53980 0.60990 0.10200
O 	O 	0.42710 0.62960 0.69820 -0.39400
O 	O 	0.45410 0.53180 0.69440 -0.39700
Cu	Cu	0.24382 0.56530 0.50181 0.91400
O 	O 	0.34470 0.61590 0.46660 -0.34700
O 	O 	0.23820 0.63510 0.37450 -0.32700
O 	O 	0.38510 0.65920 0.39560 -0.31700
N 	N 	0.20240 0.58580 0.44800 -0.20800
O 	O 	0.13300 0.51160 0.52020 -0.41600
O 	O 	0.01670 0.50810 0.50540 -0.39200
C 	C 	0.31090 0.45410 0.64480 0.19100
C 	C 	0.30800 0.39500 0.62290 -0.22700
H 	H 	0.34380 0.40390 0.59850 0.10700
C 	C 	0.25500 0.32000 0.63510 0.12200
H 	H 	0.25870 0.27870 0.62000 -0.01500
C 	C 	0.19700 0.29740 0.66730 -0.19800
H 	H 	0.16010 0.24410 0.67350 0.09100
C 	C 	0.19650 0.35570 0.68850 0.10900
H 	H 	0.15790 0.34460 0.71120 -0.01200
C 	C 	0.25280 0.43580 0.67860 -0.20500
H 	H 	0.25110 0.47680 0.69470 0.09900
C 	C 	0.33570 0.63370 0.42530 0.23000
C 	C 	0.25100 0.61710 0.41360 0.10900
C 	C 	0.12010 0.56200 0.44790 -0.13800
H 	H 	0.09320 0.52130 0.42380 0.08200
C 	C 	0.08600 0.52310 0.49650 0.32300
C 	C 	0.10320 0.62880 0.43940 0.13400
C 	C 	0.13930 0.69610 0.46460 -0.15300
H 	H 	0.18030 0.70450 0.48490 0.08700
C 	C 	0.11670 0.75270 0.46080 0.04300
H 	H 	0.14000 0.79690 0.48050 0.00900
C 	C 	0.06000 0.74700 0.42880 -0.11600
H 	H 	0.04560 0.78560 0.42570 0.06400
C 	C 	0.02700 0.67600 0.40120 0.04300
H 	H 	0.99110 0.66990 0.37760 0.01200
C 	C 	0.04580 0.61900 0.40800 -0.14600
H 	H 	0.01920 0.57190 0.39100 0.08200
Ni	Ni	0.48805 0.51648 0.76037 1.10000
N 	N 	0.59660 0.59790 0.74880 -0.25000
H 	H 	0.62860 0.58690 0.77090 0.08400
N 	N 	0.51040 0.43950 0.72990 -0.24600
H 	H 	0.53810 0.42470 0.75300 0.08800
C 	C 	0.63100 0.53100 0.69870 -0.21600
H 	H 	0.66410 0.54020 0.67140 0.09200
H 	H 	0.65710 0.52080 0.72450 0.09600
N 	N 	0.46420 0.59830 0.79050 -0.23000
H 	H 	0.44470 0.61890 0.76570 0.09600
C 	C 	0.55300 0.45600 0.69030 0.02800
H 	H 	0.52480 0.46270 0.66460 0.02800
H 	H 	0.56280 0.41210 0.68280 0.02600
C 	C 	0.53600 0.65850 0.80310 -0.06000
H 	H 	0.55100 0.64880 0.83380 0.04600
H 	H 	0.53630 0.70870 0.80380 0.04800
C 	C 	0.63200 0.60800 0.70930 0.04600
H 	H 	0.68690 0.65230 0.71110 0.01300
H 	H 	0.60450 0.62010 0.68510 0.01600
C 	C 	0.40900 0.57400 0.82670 -0.00800
H 	H 	0.39810 0.61720 0.83400 0.04000
H 	H 	0.43070 0.56350 0.85430 0.04000
C 	C 	0.32300 0.42000 0.80040 0.02200
H 	H 	0.33410 0.39820 0.82770 0.02800
H 	H 	0.26760 0.38430 0.79150 0.01900
C 	C 	0.33100 0.50000 0.81300 -0.19800
H 	H 	0.29490 0.48960 0.83890 0.08600
H 	H 	0.31030 0.51550 0.78710 0.09400
C 	C 	0.43800 0.37400 0.72380 -0.06200
H 	H 	0.44650 0.32920 0.71930 0.05500
H 	H 	0.41670 0.38150 0.69470 0.04800
N 	N 	0.36930 0.42420 0.76660 -0.22500
H 	H 	0.34300 0.42830 0.73840 0.08100
C 	C 	0.59400 0.66100 0.76690 -0.10700
H 	H 	0.58830 0.68910 0.74050 0.05900
H 	H 	0.64690 0.69590 0.77950 0.05600
C 	C 	0.37500 0.35000 0.75960 -0.10900
H 	H 	0.38940 0.33450 0.78830 0.06100
H 	H 	0.32410 0.30650 0.74860 0.05900
Cu	Cu	0.32865 0.69175 0.33600 0.91600
O 	O 	0.29680 0.60650 0.28997 -0.34300
O 	O 	0.33430 0.59180 0.21937 -0.31200
O 	O 	0.45570 0.74620 0.22197 -0.31900
N 	N 	0.41020 0.75080 0.29307 -0.20300
C 	C 	0.40830 0.71610 0.25667 0.10100
C 	C 	0.34330 0.62830 0.25367 0.22800
C 	C 	0.43200 0.85340 0.34497 0.33900
C 	C 	0.46220 0.83530 0.30257 -0.19800
H 	H 	0.46020 0.86710 0.27657 0.10200
O 	O 	0.37040 0.79750 0.36487 -0.39400
O 	O 	0.46820 0.92230 0.36107 -0.39700
Cu	Cu	0.43470 0.67852 0.16848 0.91400
O 	O 	0.38410 0.72880 0.13327 -0.34700
O 	O 	0.36490 0.60310 0.04117 -0.32700
O 	O 	0.34080 0.72590 0.06227 -0.31700
N 	N 	0.41420 0.61660 0.11467 -0.20800
O 	O 	0.48840 0.62140 0.18687 -0.41600
O 	O 	0.49190 0.50860 0.17207 -0.39200
C 	C 	0.54590 0.85680 0.31147 0.19100
C 	C 	0.60500 0.91300 0.28957 -0.22700
H 	H 	0.59610 0.93990 0.26517 0.10700
C 	C 	0.68000 0.93500 0.30177 0.12200
H 	H 	0.72130 0.98000 0.28667 -0.01500
C 	C 	0.70260 0.89960 0.33397 -0.19800
H 	H 	0.75590 0.91600 0.34017 0.09100
C 	C 	0.64430 0.84080 0.35517 0.10900
H 	H 	0.65540 0.81330 0.37787 -0.01200
C 	C 	0.56420 0.81700 0.34527 -0.20500
H 	H 	0.52320 0.77430 0.36137 0.09900
C 	C 	0.36630 0.70200 0.09197 0.23100
C 	C 	0.38290 0.63390 0.08027 0.10900
C 	C 	0.43800 0.55810 0.11457 -0.13800
H 	H 	0.47870 0.57190 0.09047 0.08200
C 	C 	0.47690 0.56290 0.16317 0.32300
C 	C 	0.37120 0.47440 0.10607 0.13400
C 	C 	0.30390 0.44320 0.13127 -0.15300
H 	H 	0.29550 0.47580 0.15157 0.08700
C 	C 	0.24730 0.36400 0.12747 0.04300
H 	H 	0.20310 0.34310 0.14717 0.00900
C 	C 	0.25300 0.31300 0.09547 -0.11600
H 	H 	0.21440 0.26000 0.09237 0.06400
C 	C 	0.32400 0.35100 0.06787 0.04300
H 	H 	0.33010 0.32120 0.04427 0.01200
C 	C 	0.38100 0.42680 0.07467 -0.14600
H 	H 	0.42810 0.44730 0.05767 0.08200
Ni	Ni	0.48352 0.97157 0.42704 1.10000
N 	N 	0.40210 0.99870 0.41547 -0.25000
H 	H 	0.41310 0.04170 0.43757 0.08400
N 	N 	0.56050 0.07090 0.39657 -0.24600
H 	H 	0.57530 0.11340 0.41967 0.08800
C 	C 	0.46900 0.10000 0.36537 -0.21700
H 	H 	0.45980 0.12390 0.33807 0.09200
H 	H 	0.47920 0.13630 0.39117 0.09600
N 	N 	0.40170 0.86590 0.45717 -0.23000
H 	H 	0.38110 0.82580 0.43237 0.09600
C 	C 	0.54400 0.09700 0.35697 0.02900
H 	H 	0.53730 0.06210 0.33127 0.02800
H 	H 	0.58790 0.15070 0.34947 0.02600
C 	C 	0.34150 0.87750 0.46977 -0.06000
H 	H 	0.35120 0.90220 0.50047 0.04600
H 	H 	0.29130 0.82760 0.47047 0.04800
C 	C 	0.39200 0.02400 0.37597 0.04700
H 	H 	0.34770 0.03460 0.37777 0.01300
H 	H 	0.37990 0.98440 0.35177 0.01600
C 	C 	0.42600 0.83500 0.49337 -0.00800
H 	H 	0.38280 0.78090 0.50067 0.04000
H 	H 	0.43650 0.86720 0.52097 0.04000
C 	C 	0.58000 0.90300 0.46707 0.02200
H 	H 	0.60180 0.93590 0.49437 0.02800
H 	H 	0.61570 0.88330 0.45817 0.01900
C 	C 	0.50000 0.83100 0.47967 -0.19800
H 	H 	0.51040 0.80530 0.50557 0.08600
H 	H 	0.48450 0.79480 0.45377 0.09400
C 	C 	0.62600 0.06400 0.39047 -0.06200
H 	H 	0.67080 0.11730 0.38597 0.05500
H 	H 	0.61850 0.03520 0.36137 0.04800
N 	N 	0.57580 0.94510 0.43327 -0.22500
H 	H 	0.57170 0.91470 0.40507 0.08100
C 	C 	0.33900 0.93300 0.43357 -0.10700
H 	H 	0.31090 0.89920 0.40717 0.05900
H 	H 	0.30410 0.95100 0.44617 0.05600
C 	C 	0.65000 0.02500 0.42627 -0.10800
H 	H 	0.66550 0.05490 0.45497 0.06100
H 	H 	0.69350 0.01760 0.41527 0.05900
Cu	Cu	0.30825 0.63690 0.00266 0.91600
O 	O 	0.39350 0.69030 0.95663 -0.34300
O 	O 	0.40820 0.74250 0.88603 -0.31200
O 	O 	0.25380 0.70950 0.88863 -0.31900
N 	N 	0.24920 0.65940 0.95973 -0.20300
C 	C 	0.28390 0.69220 0.92333 0.10100
C 	C 	0.37170 0.71500 0.92033 0.22800
C 	C 	0.14660 0.57860 0.01163 0.33800
C 	C 	0.16470 0.62690 0.96923 -0.19900
H 	H 	0.13290 0.59310 0.94323 0.10200
O 	O 	0.20250 0.57290 0.03153 -0.39400
O 	O 	0.07770 0.54590 0.02773 -0.39700
Cu	Cu	0.32148 0.75618 0.83514 0.91400
O 	O 	0.27120 0.65530 0.79993 -0.34700
O 	O 	0.39690 0.76180 0.70783 -0.32700
O 	O 	0.27410 0.61490 0.72893 -0.31700
N 	N 	0.38340 0.79760 0.78133 -0.20800
O 	O 	0.37860 0.86700 0.85353 -0.41600
O 	O 	0.49140 0.98330 0.83873 -0.39200
C 	C 	0.14320 0.68910 0.97813 0.19300
C 	C 	0.08700 0.69200 0.95623 -0.23000
H 	H 	0.06010 0.65620 0.93183 0.10800
C 	C 	0.06500 0.74500 0.96843 0.12600
H 	H 	0.02000 0.74130 0.95333 -0.01600
C 	C 	0.10040 0.80300 0.00063 -0.20200
H 	H 	0.08400 0.83990 0.00683 0.09200
C 	C 	0.15920 0.80350 0.02183 0.11200
H 	H 	0.18670 0.84210 0.04453 -0.01300
C 	C 	0.18300 0.74720 0.01193 -0.20800
H 	H 	0.22570 0.74890 0.02803 0.10000
C 	C 	0.29800 0.66430 0.75863 0.23000
C 	C 	0.36610 0.74900 0.74693 0.10900
C 	C 	0.44190 0.87990 0.78123 -0.13900
H 	H 	0.42810 0.90680 0.75713 0.08200
C 	C 	0.43710 0.91400 0.82983 0.32300
C 	C 	0.52560 0.89680 0.77273 0.13400
C 	C 	0.55680 0.86070 0.79793 -0.15300
H 	H 	0.52420 0.81970 0.81823 0.08700
C 	C 	0.63600 0.88330 0.79413 0.04300
H 	H 	0.65690 0.86000 0.81383 0.00900
C 	C 	0.68700 0.94000 0.76213 -0.11600
H 	H 	0.74000 0.95440 0.75903 0.06400
C 	C 	0.64900 0.97300 0.73453 0.04400
H 	H 	0.67880 0.00890 0.71093 0.01200
C 	C 	0.57320 0.95420 0.74133 -0.14600
H 	H 	0.55270 0.98080 0.72433 0.08200
Ni	Ni	0.02843 0.51195 0.09370 1.10000
N 	N 	0.00130 0.40340 0.08213 -0.25100
H 	H 	0.95830 0.37140 0.10423 0.08400
N 	N 	0.92910 0.48960 0.06323 -0.24600
H 	H 	0.88660 0.46190 0.08633 0.08800
C 	C 	0.90000 0.36900 0.03203 -0.21800
H 	H 	0.87610 0.33590 0.00473 0.09300
H 	H 	0.86370 0.34290 0.05783 0.09700
N 	N 	0.13410 0.53580 0.12383 -0.23000
H 	H 	0.17420 0.55530 0.09903 0.09600
C 	C 	0.90300 0.44700 0.02363 0.03000
H 	H 	0.93790 0.47520 0.99793 0.02700
H 	H 	0.84930 0.43720 0.01613 0.02500
C 	C 	0.12250 0.46400 0.13643 -0.06100
H 	H 	0.09780 0.44900 0.16713 0.04600
H 	H 	0.17240 0.46370 0.13713 0.04800
C 	C 	0.97600 0.36800 0.04263 0.04800
H 	H 	0.96540 0.31310 0.04443 0.01300
H 	H 	0.01560 0.39550 0.01843 0.01600
C 	C 	0.16500 0.59100 0.16003 -0.00800
H 	H 	0.21910 0.60190 0.16733 0.04000
H 	H 	0.13280 0.56930 0.18763 0.04000
C 	C 	0.09700 0.67700 0.13373 0.02200
H 	H 	0.06410 0.66590 0.16103 0.02800
H 	H 	0.11670 0.73240 0.12483 0.01900
C 	C 	0.16900 0.66900 0.14633 -0.19800
H 	H 	0.19470 0.70510 0.17223 0.08600
H 	H 	0.20520 0.68970 0.12043 0.09400
C 	C 	0.93600 0.56200 0.05713 -0.06200
H 	H 	0.88270 0.55350 0.05263 0.05500
H 	H 	0.96480 0.58330 0.02803 0.04800
N 	N 	0.05490 0.63070 0.09993 -0.22500
H 	H 	0.08530 0.65700 0.07173 0.08100
C 	C 	0.06700 0.40600 0.10023 -0.10600
H 	H 	0.10080 0.41170 0.07383 0.05900
H 	H 	0.04900 0.35310 0.11283 0.05600
C 	C 	0.97500 0.62500 0.09293 -0.10800
H 	H 	0.94510 0.61060 0.12163 0.06100
H 	H 	0.98240 0.67590 0.08193 0.05900
Cu	Cu	0.67135 0.36310 0.33067 0.91600
O 	O 	0.70320 0.30970 0.37670 -0.34300
O 	O 	0.66570 0.25750 0.44730 -0.31200
O 	O 	0.54430 0.29050 0.44470 -0.31900
N 	N 	0.58980 0.34060 0.37360 -0.20300
C 	C 	0.59170 0.30780 0.41000 0.10100
C 	C 	0.65670 0.28500 0.41300 0.22800
C 	C 	0.56800 0.42140 0.32170 0.33900
C 	C 	0.53780 0.37310 0.36410 -0.19800
H 	H 	0.53980 0.40690 0.39010 0.10200
O 	O 	0.62960 0.42710 0.30180 -0.39400
O 	O 	0.53180 0.45410 0.30560 -0.39700
Cu	Cu	0.56530 0.24382 0.49819 0.91400
O 	O 	0.61590 0.34470 0.53340 -0.34700
O 	O 	0.63510 0.23820 0.62550 -0.32700
O 	O 	0.65920 0.38510 0.60440 -0.31700
N 	N 	0.58580 0.20240 0.55200 -0.20800
O 	O 	0.51160 0.13300 0.47980 -0.41600
O 	O 	0.50810 0.01670 0.49460 -0.39200
C 	C 	0.45410 0.31090 0.35520 0.19100
C 	C 	0.39500 0.30800 0.37710 -0.22700
H 	H 	0.40390 0.34380 0.40150 0.10700
C 	C 	0.32000 0.25500 0.36490 0.12200
H 	H 	0.27870 0.25870 0.38000 -0.01500
C 	C 	0.29740 0.19700 0.33270 -0.19800
H 	H 	0.24410 0.16010 0.32650 0.09100
C 	C 	0.35570 0.19650 0.31150 0.10900
H 	H 	0.34460 0.15790 0.28880 -0.01200
C 	C 	0.43580 0.25280 0.32140 -0.20500
H 	H 	0.47680 0.25110 0.30530 0.09900
C 	C 	0.63370 0.33570 0.57470 0.23000
C 	C 	0.61710 0.25100 0.58640 0.10900
C 	C 	0.56200 0.12010 0.55210 -0.13800
H 	H 	0.52130 0.09320 0.57620 0.08200
C 	C 	0.52310 0.08600 0.50350 0.32300
C 	C 	0.62880 0.10320 0.56060 0.13400
C 	C 	0.69610 0.13930 0.53540 -0.15300
H 	H 	0.70450 0.18030 0.51510 0.08700
C 	C 	0.75270 0.11670 0.53920 0.04300
H 	H 	0.79690 0.14000 0.51950 0.00900
C 	C 	0.74700 0.06000 0.57120 -0.11600
H 	H 	0.78560 0.04560 0.57430 0.06400
C 	C 	0.67600 0.02700 0.59880 0.04300
H 	H 	0.66990 0.99110 0.62240 0.01200
C 	C 	0.61900 0.04580 0.59200 -0.14600
H 	H 	0.57190 0.01920 0.60900 0.08200
Ni	Ni	0.51648 0.48805 0.23963 1.10000
N 	N 	0.59790 0.59660 0.25120 -0.25000
H 	H 	0.58690 0.62860 0.22910 0.08400
N 	N 	0.43950 0.51040 0.27010 -0.24600
H 	H 	0.42470 0.53810 0.24700 0.08800
C 	C 	0.53100 0.63100 0.30130 -0.21600
H 	H 	0.54020 0.66410 0.32860 0.09200
H 	H 	0.52080 0.65710 0.27550 0.09600
N 	N 	0.59830 0.46420 0.20950 -0.23000
H 	H 	0.61890 0.44470 0.23430 0.09600
C 	C 	0.45600 0.55300 0.30970 0.02800
H 	H 	0.46270 0.52480 0.33540 0.02800
H 	H 	0.41210 0.56280 0.31720 0.02600
C 	C 	0.65850 0.53600 0.19690 -0.06000
H 	H 	0.64880 0.55100 0.16620 0.04600
H 	H 	0.70870 0.53630 0.19620 0.04800
C 	C 	0.60800 0.63200 0.29070 0.04600
H 	H 	0.65230 0.68690 0.28890 0.01300
H 	H 	0.62010 0.60450 0.31490 0.01600
C 	C 	0.57400 0.40900 0.17330 -0.00800
H 	H 	0.61720 0.39810 0.16600 0.04000
H 	H 	0.56350 0.43070 0.14570 0.04000
C 	C 	0.42000 0.32300 0.19960 0.02200
H 	H 	0.39820 0.33410 0.17230 0.02800
H 	H 	0.38430 0.26760 0.20850 0.01900
C 	C 	0.50000 0.33100 0.18700 -0.19800
H 	H 	0.48960 0.29490 0.16110 0.08600
H 	H 	0.51550 0.31030 0.21290 0.09400
C 	C 	0.37400 0.43800 0.27620 -0.06200
H 	H 	0.32920 0.44650 0.28070 0.05500
H 	H 	0.38150 0.41670 0.30530 0.04800
N 	N 	0.42420 0.36930 0.23340 -0.22500
H 	H 	0.42830 0.34300 0.26160 0.08100
C 	C 	0.66100 0.59400 0.23310 -0.10700
H 	H 	0.68910 0.58830 0.25950 0.05900
H 	H 	0.69590 0.64690 0.22050 0.05600
C 	C 	0.35000 0.37500 0.24040 -0.10900
H 	H 	0.33450 0.38940 0.21170 0.06100
H 	H 	0.30650 0.32410 0.25140 0.05900
Cu	Cu	0.69175 0.32865 0.66400 0.91600
O 	O 	0.60650 0.29680 0.71003 -0.34300
O 	O 	0.59180 0.33430 0.78063 -0.31200
O 	O 	0.74620 0.45570 0.77803 -0.31900
N 	N 	0.75080 0.41020 0.70693 -0.20300
C 	C 	0.71610 0.40830 0.74333 0.10100
C 	C 	0.62830 0.34330 0.74633 0.22800
C 	C 	0.85340 0.43200 0.65503 0.33900
C 	C 	0.83530 0.46220 0.69743 -0.19800
H 	H 	0.86710 0.46020 0.72343 0.10200
O 	O 	0.79750 0.37040 0.63513 -0.39400
O 	O 	0.92230 0.46820 0.63893 -0.39700
Cu	Cu	0.67852 0.43470 0.83152 0.91400
O 	O 	0.72880 0.38410 0.86673 -0.34700
O 	O 	0.60310 0.36490 0.95883 -0.32700
O 	O 	0.72590 0.34080 0.93773 -0.31700
N 	N 	0.61660 0.41420 0.88533 -0.20800
O 	O 	0.62140 0.48840 0.81313 -0.41600
O 	O 	0.50860 0.49190 0.82793 -0.39200
C 	C 	0.85680 0.54590 0.68853 0.19100
C 	C 	0.91300 0.60500 0.71043 -0.22700
H 	H 	0.93990 0.59610 0.73483 0.10700
C 	C 	0.93500 0.68000 0.69823 0.12200
H 	H 	0.98000 0.72130 0.71333 -0.01500
C 	C 	0.89960 0.70260 0.66603 -0.19800
H 	H 	0.91600 0.75590 0.65983 0.09100
C 	C 	0.84080 0.64430 0.64483 0.10900
H 	H 	0.81330 0.65540 0.62213 -0.01200
C 	C 	0.81700 0.56420 0.65473 -0.20500
H 	H 	0.77430 0.52320 0.63863 0.09900
C 	C 	0.70200 0.36630 0.90803 0.23100
C 	C 	0.63390 0.38290 0.91973 0.10900
C 	C 	0.55810 0.43800 0.88543 -0.13800
H 	H 	0.57190 0.47870 0.90953 0.08200
C 	C 	0.56290 0.47690 0.83683 0.32300
C 	C 	0.47440 0.37120 0.89393 0.13400
C 	C 	0.44320 0.30390 0.86873 -0.15300
H 	H 	0.47580 0.29550 0.84843 0.08700
C 	C 	0.36400 0.24730 0.87253 0.04300
H 	H 	0.34310 0.20310 0.85283 0.00900
C 	C 	0.31300 0.25300 0.90453 -0.11600
H 	H 	0.26000 0.21440 0.90763 0.06400
C 	C 	0.35100 0.32400 0.93213 0.04300
H 	H 	0.32120 0.33010 0.95573 0.01200
C 	C 	0.42680 0.38100 0.92533 -0.14600
H 	H 	0.44730 0.42810 0.94233 0.08200
Ni	Ni	0.97157 0.48352 0.57296 1.10000
N 	N 	0.99870 0.40210 0.58453 -0.25000
H 	H 	0.04170 0.41310 0.56243 0.08400
N 	N 	0.07090 0.56050 0.60343 -0.24600
H 	H 	0.11340 0.57530 0.58033 0.08800
C 	C 	0.10000 0.46900 0.63463 -0.21700
H 	H 	0.12390 0.45980 0.66193 0.09200
H 	H 	0.13630 0.47920 0.60883 0.09600
N 	N 	0.86590 0.40170 0.54283 -0.23000
H 	H 	0.82580 0.38110 0.56763 0.09600
C 	C 	0.09700 0.54400 0.64303 0.02900
H 	H 	0.06210 0.53730 0.66873 0.02800
H 	H 	0.15070 0.58790 0.65053 0.02600
C 	C 	0.87750 0.34150 0.53023 -0.06000
H 	H 	0.90220 0.35120 0.49953 0.04600
H 	H 	0.82760 0.29130 0.52953 0.04800
C 	C 	0.02400 0.39200 0.62403 0.04700
H 	H 	0.03460 0.34770 0.62223 0.01300
H 	H 	0.98440 0.37990 0.64823 0.01600
C 	C 	0.83500 0.42600 0.50663 -0.00800
H 	H 	0.78090 0.38280 0.49933 0.04000
H 	H 	0.86720 0.43650 0.47903 0.04000
C 	C 	0.90300 0.58000 0.53293 0.02200
H 	H 	0.93590 0.60180 0.50563 0.02800
H 	H 	0.88330 0.61570 0.54183 0.01900
C 	C 	0.83100 0.50000 0.52033 -0.19800
H 	H 	0.80530 0.51040 0.49443 0.08600
H 	H 	0.79480 0.48450 0.54623 0.09400
C 	C 	0.06400 0.62600 0.60953 -0.06200
H 	H 	0.11730 0.67080 0.61403 0.05500
H 	H 	0.03520 0.61850 0.63863 0.04800
N 	N 	0.94510 0.57580 0.56673 -0.22500
H 	H 	0.91470 0.57170 0.59493 0.08100
C 	C 	0.93300 0.33900 0.56643 -0.10700
H 	H 	0.89920 0.31090 0.59283 0.05900
H 	H 	0.95100 0.30410 0.55383 0.05600
C 	C 	0.02500 0.65000 0.57373 -0.10800
H 	H 	0.05490 0.66550 0.54503 0.06100
H 	H 	0.01760 0.69350 0.58473 0.05900
Cu	Cu	0.63690 0.30825 0.99734 0.91600
O 	O 	0.69030 0.39350 0.04337 -0.34300
O 	O 	0.74250 0.40820 0.11397 -0.31200
O 	O 	0.70950 0.25380 0.11137 -0.31900
N 	N 	0.65940 0.24920 0.04027 -0.20300
C 	C 	0.69220 0.28390 0.07667 0.10100
C 	C 	0.71500 0.37170 0.07967 0.22800
C 	C 	0.57860 0.14660 0.98837 0.33800
C 	C 	0.62690 0.16470 0.03077 -0.19900
H 	H 	0.59310 0.13290 0.05677 0.10200
O 	O 	0.57290 0.20250 0.96847 -0.39400
O 	O 	0.54590 0.07770 0.97227 -0.39700
Cu	Cu	0.75618 0.32148 0.16486 0.91400
O 	O 	0.65530 0.27120 0.20007 -0.34700
O 	O 	0.76180 0.39690 0.29217 -0.32700
O 	O 	0.61490 0.27410 0.27107 -0.31700
N 	N 	0.79760 0.38340 0.21867 -0.20800
O 	O 	0.86700 0.37860 0.14647 -0.41600
O 	O 	0.98330 0.49140 0.16127 -0.39200
C 	C 	0.68910 0.14320 0.02187 0.19300
C 	C 	0.69200 0.08700 0.04377 -0.23000
H 	H 	0.65620 0.06010 0.06817 0.10800
C 	C 	0.74500 0.06500 0.03157 0.12600
H 	H 	0.74130 0.02000 0.04667 -0.01600
C 	C 	0.80300 0.10040 0.99937 -0.20200
H 	H 	0.83990 0.08400 0.99317 0.09200
C 	C 	0.80350 0.15920 0.97817 0.11200
H 	H 	0.84210 0.18670 0.95547 -0.01300
C 	C 	0.74720 0.18300 0.98807 -0.20800
H 	H 	0.74890 0.22570 0.97197 0.10000
C 	C 	0.66430 0.29800 0.24137 0.23000
C 	C 	0.74900 0.36610 0.25307 0.10900
C 	C 	0.87990 0.44190 0.21877 -0.13900
H 	H 	0.90680 0.42810 0.24287 0.08200
C 	C 	0.91400 0.43710 0.17017 0.32300
C 	C 	0.89680 0.52560 0.22727 0.13400
C 	C 	0.86070 0.55680 0.20207 -0.15300
H 	H 	0.81970 0.52420 0.18177 0.08700
C 	C 	0.88330 0.63600 0.20587 0.04300
H 	H 	0.86000 0.65690 0.18617 0.00900
C 	C 	0.94000 0.68700 0.23787 -0.11600
H 	H 	0.95440 0.74000 0.24097 0.06400
C 	C 	0.97300 0.64900 0.26547 0.04400
H 	H 	0.00890 0.67880 0.28907 0.01200
C 	C 	0.95420 0.57320 0.25867 -0.14600
H 	H 	0.98080 0.55270 0.27567 0.08200
Ni	Ni	0.51195 0.02843 0.90630 1.10000
N 	N 	0.40340 0.00130 0.91787 -0.25100
H 	H 	0.37140 0.95830 0.89577 0.08400
N 	N 	0.48960 0.92910 0.93677 -0.24600
H 	H 	0.46190 0.88660 0.91367 0.08800
C 	C 	0.36900 0.90000 0.96797 -0.21800
H 	H 	0.33590 0.87610 0.99527 0.09300
H 	H 	0.34290 0.86370 0.94217 0.09700
N 	N 	0.53580 0.13410 0.87617 -0.23000
H 	H 	0.55530 0.17420 0.90097 0.09600
C 	C 	0.44700 0.90300 0.97637 0.03000
H 	H 	0.47520 0.93790 0.00207 0.02700
H 	H 	0.43720 0.84930 0.98387 0.02500
C 	C 	0.46400 0.12250 0.86357 -0.06100
H 	H 	0.44900 0.09780 0.83287 0.04600
H 	H 	0.46370 0.17240 0.86287 0.04800
C 	C 	0.36800 0.97600 0.95737 0.04800
H 	H 	0.31310 0.96540 0.95557 0.01300
H 	H 	0.39550 0.01560 0.98157 0.01600
C 	C 	0.59100 0.16500 0.83997 -0.00800
H 	H 	0.60190 0.21910 0.83267 0.04000
H 	H 	0.56930 0.13280 0.81237 0.04000
C 	C 	0.67700 0.09700 0.86627 0.02200
H 	H 	0.66590 0.06410 0.83897 0.02800
H 	H 	0.73240 0.11670 0.87517 0.01900
C 	C 	0.66900 0.16900 0.85367 -0.19800
H 	H 	0.70510 0.19470 0.82777 0.08600
H 	H 	0.68970 0.20520 0.87957 0.09400
C 	C 	0.56200 0.93600 0.94287 -0.06200
H 	H 	0.55350 0.88270 0.94737 0.05500
H 	H 	0.58330 0.96480 0.97197 0.04800
N 	N 	0.63070 0.05490 0.90007 -0.22500
H 	H 	0.65700 0.08530 0.92827 0.08100
C 	C 	0.40600 0.06700 0.89977 -0.10600
H 	H 	0.41170 0.10080 0.92617 0.05900
H 	H 	0.35310 0.04900 0.88717 0.05600
C 	C 	0.62500 0.97500 0.90707 -0.10800
H 	H 	0.61060 0.94510 0.87837 0.06100
H 	H 	0.67590 0.98240 0.91807 0.05900
