data_crystal

_cell_length_a 38.05900
_cell_length_b 14.21820
_cell_length_c 34.84800
_cell_angle_alpha 90.00000
_cell_angle_beta  110.75300
_cell_angle_gamma 90.00000

_symmetry_space_group_name_	'P 1'
_symmetry_space_group_name_H-M	'P 1'

loop_
_symmetry_equiv_pos_as_xyz
  x,y,z

loop_
_atom_site_label
_atom_site_type_symbol
_atom_site_fract_x
_atom_site_fract_y
_atom_site_fract_z
_atom_site_charge
Zn	Zn	0.12834 0.37680 0.07065 1.15600
Zn	Zn	0.89936 0.08698 0.92215 1.15700
Zn	Zn	0.16638 0.15363 0.27101 1.16200
I 	I 	0.18748 0.30740 0.06080 -0.25200
I 	I 	0.07794 0.28180 0.07721 -0.06500
I 	I 	0.22507 0.25642 0.29606 -0.38100
I 	I 	0.12154 0.17351 0.19813 -0.39000
I 	I 	0.89482 0.06620 0.99422 -0.36300
I 	I 	0.90829 0.24446 0.89128 -0.17700
N 	N 	0.10768 0.48350 0.02820 -0.28000
C 	C 	0.08044 0.54070 0.02860 0.08000
H 	H 	0.06950 0.53080 0.04890 -0.01500
C 	C 	0.06713 0.61280 0.00170 -0.13200
H 	H 	0.04750 0.65200 0.00340 0.08000
C 	C 	0.08248 0.62820 0.97173 0.05500
C 	C 	0.10972 0.56680 0.97030 -0.11900
H 	H 	0.12000 0.57280 0.94920 0.08100
C 	C 	0.12225 0.49620 0.99920 0.06300
H 	H 	0.14180 0.45560 0.99820 -0.01400
C 	C 	0.07056 0.70680 0.94255 0.10600
N 	N 	0.04147 0.75890 0.94272 -0.13700
C 	C 	0.03155 0.82760 0.91502 0.11400
N 	N 	0.04753 0.84460 0.88737 -0.13700
C 	C 	0.07686 0.78980 0.89104 0.10900
N 	N 	0.08980 0.72070 0.91798 -0.14000
C 	C 	0.00070 0.89000 0.91595 0.06000
C 	C 	0.99285 0.89780 0.95149 -0.10600
H 	H 	0.00730 0.86410 0.97540 0.06900
C 	C 	0.96396 0.95470 0.95210 0.06200
H 	H 	0.95920 0.96060 0.97700 -0.01400
N 	N 	0.94226 0.00250 0.91902 -0.27700
C 	C 	0.94937 0.99420 0.88480 0.08400
H 	H 	0.93390 0.02720 0.86110 -0.01700
C 	C 	0.97827 0.94000 0.88180 -0.11600
H 	H 	0.98280 0.93680 0.85680 0.08400
C 	C 	0.09757 0.80590 0.86279 0.05600
C 	C 	0.13482 0.77980 0.87450 -0.11700
H 	H 	0.14740 0.75300 0.90080 0.08100
C 	C 	0.15364 0.79330 0.84760 0.06600
H 	H 	0.17930 0.77520 0.85580 -0.01300
N 	N 	0.13704 0.83070 0.81042 -0.27600
C 	C 	0.10105 0.85560 0.79930 0.07400
H 	H 	0.08900 0.88140 0.77260 -0.01700
C 	C 	0.08086 0.84590 0.82430 -0.12400
H 	H 	0.05550 0.86640 0.81560 0.08100
N 	N 	0.15196 0.45070 0.12490 -0.27900
C 	C 	0.16593 0.40200 0.15998 0.07100
H 	H 	0.16330 0.33550 0.15930 -0.01900
C 	C 	0.18393 0.44550 0.19673 -0.12900
H 	H 	0.19420 0.40950 0.22110 0.08400
C 	C 	0.18697 0.54290 0.19793 0.06600
C 	C 	0.17110 0.59230 0.16180 -0.13900
H 	H 	0.17160 0.65910 0.16160 0.09400
C 	C 	0.15490 0.54330 0.12680 0.09400
H 	H 	0.14500 0.57760 0.10190 -0.01900
C 	C 	0.20742 0.59510 0.23631 0.10000
N 	N 	0.23667 0.55300 0.26336 -0.13900
C 	C 	0.25593 0.60760 0.29552 0.09000
N 	N 	0.24774 0.69630 0.30131 -0.13800
C 	C 	0.21657 0.72900 0.27259 0.10400
N 	N 	0.19519 0.68180 0.23952 -0.13500
C 	C 	0.20426 0.82630 0.27676 0.05500
C 	C 	0.22658 0.89040 0.30459 -0.11700
H 	H 	0.25000 0.87090 0.32410 0.07900
C 	C 	0.21516 0.98200 0.30428 0.07100
H 	H 	0.23130 0.02530 0.32320 -0.01200
N 	N 	0.18192 0.01250 0.27813 -0.27100
C 	C 	0.15903 0.94920 0.25290 0.06500
H 	H 	0.13480 0.96890 0.23550 -0.01600
C 	C 	0.16916 0.85720 0.25140 -0.12000
H 	H 	0.15220 0.81460 0.23290 0.08300
C 	C 	0.28899 0.56280 0.32582 0.05600
C 	C 	0.31215 0.61060 0.36060 -0.12500
H 	H 	0.30660 0.67340 0.36580 0.07700
C 	C 	0.34303 0.56490 0.38720 0.07900
H 	H 	0.35850 0.59740 0.41100 -0.02500
N 	N 	0.35237 0.47670 0.38099 -0.27900
C 	C 	0.32975 0.43160 0.34830 0.08300
H 	H 	0.33560 0.36840 0.34410 -0.01700
C 	C 	0.29864 0.47100 0.32040 -0.13400
H 	H 	0.28360 0.43590 0.29720 0.09700
I 	I 	0.17610 0.28760 0.05310 -0.09900
I 	I 	0.06800 0.30170 0.07650 -0.27700
I 	I 	0.89660 0.08350 0.98580 -0.00200
I 	I 	0.90500 0.23760 0.88560 -0.16800
Zn	Zn	0.62834 0.87680 0.07065 1.15700
Zn	Zn	0.39936 0.58698 0.92215 1.15800
Zn	Zn	0.66638 0.65363 0.27101 1.16300
I 	I 	0.68748 0.80740 0.06080 -0.25100
I 	I 	0.57794 0.78180 0.07721 -0.06500
I 	I 	0.72507 0.75642 0.29606 -0.38000
I 	I 	0.62154 0.67351 0.19813 -0.38900
I 	I 	0.39482 0.56620 0.99422 -0.36200
I 	I 	0.40829 0.74446 0.89128 -0.17600
N 	N 	0.60768 0.98350 0.02820 -0.27900
C 	C 	0.58044 0.04070 0.02860 0.08100
H 	H 	0.56950 0.03080 0.04890 -0.01400
C 	C 	0.56713 0.11280 0.00170 -0.13100
H 	H 	0.54750 0.15200 0.00340 0.08100
C 	C 	0.58248 0.12820 0.97173 0.05500
C 	C 	0.60972 0.06680 0.97030 -0.11900
H 	H 	0.62000 0.07280 0.94920 0.08100
C 	C 	0.62225 0.99620 0.99920 0.06300
H 	H 	0.64180 0.95560 0.99820 -0.01400
C 	C 	0.57056 0.20680 0.94255 0.10600
N 	N 	0.54147 0.25890 0.94272 -0.13700
C 	C 	0.53155 0.32760 0.91502 0.11300
N 	N 	0.54753 0.34460 0.88737 -0.13700
C 	C 	0.57686 0.28980 0.89104 0.10900
N 	N 	0.58980 0.22070 0.91798 -0.14000
C 	C 	0.50070 0.39000 0.91595 0.06000
C 	C 	0.49285 0.39780 0.95149 -0.10700
H 	H 	0.50730 0.36410 0.97540 0.06900
C 	C 	0.46396 0.45470 0.95210 0.06200
H 	H 	0.45920 0.46060 0.97700 -0.01400
N 	N 	0.44226 0.50250 0.91902 -0.27700
C 	C 	0.44937 0.49420 0.88480 0.08400
H 	H 	0.43390 0.52720 0.86110 -0.01700
C 	C 	0.47827 0.44000 0.88180 -0.11700
H 	H 	0.48280 0.43680 0.85680 0.08400
C 	C 	0.59757 0.30590 0.86279 0.05600
C 	C 	0.63482 0.27980 0.87450 -0.11700
H 	H 	0.64740 0.25300 0.90080 0.08100
C 	C 	0.65364 0.29330 0.84760 0.06600
H 	H 	0.67930 0.27520 0.85580 -0.01300
N 	N 	0.63704 0.33070 0.81042 -0.27600
C 	C 	0.60105 0.35560 0.79930 0.07500
H 	H 	0.58900 0.38140 0.77260 -0.01700
C 	C 	0.58086 0.34590 0.82430 -0.12400
H 	H 	0.55550 0.36640 0.81560 0.08100
N 	N 	0.65196 0.95070 0.12490 -0.27900
C 	C 	0.66593 0.90200 0.15998 0.07100
H 	H 	0.66330 0.83550 0.15930 -0.01900
C 	C 	0.68393 0.94550 0.19673 -0.12900
H 	H 	0.69420 0.90950 0.22110 0.08400
C 	C 	0.68697 0.04290 0.19793 0.06600
C 	C 	0.67110 0.09230 0.16180 -0.13900
H 	H 	0.67160 0.15910 0.16160 0.09300
C 	C 	0.65490 0.04330 0.12680 0.09400
H 	H 	0.64500 0.07760 0.10190 -0.01900
C 	C 	0.70742 0.09510 0.23631 0.10000
N 	N 	0.73667 0.05300 0.26336 -0.13900
C 	C 	0.75593 0.10760 0.29552 0.09000
N 	N 	0.74774 0.19630 0.30131 -0.13800
C 	C 	0.71657 0.22900 0.27259 0.10400
N 	N 	0.69519 0.18180 0.23952 -0.13500
C 	C 	0.70426 0.32630 0.27676 0.05500
C 	C 	0.72658 0.39040 0.30459 -0.11700
H 	H 	0.75000 0.37090 0.32410 0.07900
C 	C 	0.71516 0.48200 0.30428 0.07100
H 	H 	0.73130 0.52530 0.32320 -0.01200
N 	N 	0.68192 0.51250 0.27813 -0.27100
C 	C 	0.65903 0.44920 0.25290 0.06500
H 	H 	0.63480 0.46890 0.23550 -0.01600
C 	C 	0.66916 0.35720 0.25140 -0.12000
H 	H 	0.65220 0.31460 0.23290 0.08300
C 	C 	0.78899 0.06280 0.32582 0.05600
C 	C 	0.81215 0.11060 0.36060 -0.12500
H 	H 	0.80660 0.17340 0.36580 0.07700
C 	C 	0.84303 0.06490 0.38720 0.07900
H 	H 	0.85850 0.09740 0.41100 -0.02500
N 	N 	0.85237 0.97670 0.38099 -0.27900
C 	C 	0.82975 0.93160 0.34830 0.08300
H 	H 	0.83560 0.86840 0.34410 -0.01700
C 	C 	0.79864 0.97100 0.32040 -0.13400
H 	H 	0.78360 0.93590 0.29720 0.09700
I 	I 	0.67610 0.78760 0.05310 -0.09900
I 	I 	0.56800 0.80170 0.07650 -0.27600
I 	I 	0.39660 0.58350 0.98580 -0.00200
I 	I 	0.40500 0.73760 0.88560 -0.16800
Zn	Zn	0.12834 0.62320 0.57065 1.15700
Zn	Zn	0.89936 0.91302 0.42215 1.15800
Zn	Zn	0.16638 0.84637 0.77101 1.16300
I 	I 	0.18748 0.69260 0.56080 -0.25100
I 	I 	0.07794 0.71820 0.57721 -0.06500
I 	I 	0.22507 0.74358 0.79606 -0.38000
I 	I 	0.12154 0.82649 0.69813 -0.38900
I 	I 	0.89482 0.93380 0.49422 -0.36200
I 	I 	0.90829 0.75554 0.39128 -0.17600
N 	N 	0.10768 0.51650 0.52820 -0.27900
C 	C 	0.08044 0.45930 0.52860 0.08100
H 	H 	0.06950 0.46920 0.54890 -0.01400
C 	C 	0.06713 0.38720 0.50170 -0.13100
H 	H 	0.04750 0.34800 0.50340 0.08100
C 	C 	0.08248 0.37180 0.47173 0.05500
C 	C 	0.10972 0.43320 0.47030 -0.11900
H 	H 	0.12000 0.42720 0.44920 0.08100
C 	C 	0.12225 0.50380 0.49920 0.06300
H 	H 	0.14180 0.54440 0.49820 -0.01400
C 	C 	0.07056 0.29320 0.44255 0.10600
N 	N 	0.04147 0.24110 0.44272 -0.13700
C 	C 	0.03155 0.17240 0.41502 0.11300
N 	N 	0.04753 0.15540 0.38737 -0.13700
C 	C 	0.07686 0.21020 0.39104 0.10900
N 	N 	0.08980 0.27930 0.41798 -0.14000
C 	C 	0.00070 0.11000 0.41595 0.06000
C 	C 	0.99285 0.10220 0.45149 -0.10700
H 	H 	0.00730 0.13590 0.47540 0.06900
C 	C 	0.96396 0.04530 0.45210 0.06200
H 	H 	0.95920 0.03940 0.47700 -0.01400
N 	N 	0.94226 0.99750 0.41902 -0.27700
C 	C 	0.94937 0.00580 0.38480 0.08400
H 	H 	0.93390 0.97280 0.36110 -0.01700
C 	C 	0.97827 0.06000 0.38180 -0.11700
H 	H 	0.98280 0.06320 0.35680 0.08400
C 	C 	0.09757 0.19410 0.36279 0.05600
C 	C 	0.13482 0.22020 0.37450 -0.11700
H 	H 	0.14740 0.24700 0.40080 0.08100
C 	C 	0.15364 0.20670 0.34760 0.06600
H 	H 	0.17930 0.22480 0.35580 -0.01300
N 	N 	0.13704 0.16930 0.31042 -0.27600
C 	C 	0.10105 0.14440 0.29930 0.07500
H 	H 	0.08900 0.11860 0.27260 -0.01700
C 	C 	0.08086 0.15410 0.32430 -0.12400
H 	H 	0.05550 0.13360 0.31560 0.08100
N 	N 	0.15196 0.54930 0.62490 -0.27900
C 	C 	0.16593 0.59800 0.65998 0.07100
H 	H 	0.16330 0.66450 0.65930 -0.01900
C 	C 	0.18393 0.55450 0.69673 -0.12900
H 	H 	0.19420 0.59050 0.72110 0.08400
C 	C 	0.18697 0.45710 0.69793 0.06600
C 	C 	0.17110 0.40770 0.66180 -0.13900
H 	H 	0.17160 0.34090 0.66160 0.09400
C 	C 	0.15490 0.45670 0.62680 0.09400
H 	H 	0.14500 0.42240 0.60190 -0.01900
C 	C 	0.20742 0.40490 0.73631 0.10000
N 	N 	0.23667 0.44700 0.76336 -0.13900
C 	C 	0.25593 0.39240 0.79552 0.09000
N 	N 	0.24774 0.30370 0.80131 -0.13800
C 	C 	0.21657 0.27100 0.77259 0.10400
N 	N 	0.19519 0.31820 0.73952 -0.13500
C 	C 	0.20426 0.17370 0.77676 0.05500
C 	C 	0.22658 0.10960 0.80459 -0.11700
H 	H 	0.25000 0.12910 0.82410 0.07900
C 	C 	0.21516 0.01800 0.80428 0.07100
H 	H 	0.23130 0.97470 0.82320 -0.01200
N 	N 	0.18192 0.98750 0.77813 -0.27100
C 	C 	0.15903 0.05080 0.75290 0.06500
H 	H 	0.13480 0.03110 0.73550 -0.01600
C 	C 	0.16916 0.14280 0.75140 -0.12000
H 	H 	0.15220 0.18540 0.73290 0.08300
C 	C 	0.28899 0.43720 0.82582 0.05600
C 	C 	0.31215 0.38940 0.86060 -0.12500
H 	H 	0.30660 0.32660 0.86580 0.07700
C 	C 	0.34303 0.43510 0.88720 0.07900
H 	H 	0.35850 0.40260 0.91100 -0.02500
N 	N 	0.35237 0.52330 0.88099 -0.27900
C 	C 	0.32975 0.56840 0.84830 0.08300
H 	H 	0.33560 0.63160 0.84410 -0.01700
C 	C 	0.29864 0.52900 0.82040 -0.13400
H 	H 	0.28360 0.56410 0.79720 0.09700
I 	I 	0.17610 0.71240 0.55310 -0.09900
I 	I 	0.06800 0.69830 0.57650 -0.27600
I 	I 	0.89660 0.91650 0.48580 -0.00200
I 	I 	0.90500 0.76240 0.38560 -0.16800
Zn	Zn	0.62834 0.12320 0.57065 1.15700
Zn	Zn	0.39936 0.41302 0.42215 1.15800
Zn	Zn	0.66638 0.34637 0.77101 1.16300
I 	I 	0.68748 0.19260 0.56080 -0.25100
I 	I 	0.57794 0.21820 0.57721 -0.06500
I 	I 	0.72507 0.24358 0.79606 -0.38000
I 	I 	0.62154 0.32649 0.69813 -0.38900
I 	I 	0.39482 0.43380 0.49422 -0.36200
I 	I 	0.40829 0.25554 0.39128 -0.17600
N 	N 	0.60768 0.01650 0.52820 -0.27900
C 	C 	0.58044 0.95930 0.52860 0.08100
H 	H 	0.56950 0.96920 0.54890 -0.01400
C 	C 	0.56713 0.88720 0.50170 -0.13100
H 	H 	0.54750 0.84800 0.50340 0.08100
C 	C 	0.58248 0.87180 0.47173 0.05500
C 	C 	0.60972 0.93320 0.47030 -0.11900
H 	H 	0.62000 0.92720 0.44920 0.08100
C 	C 	0.62225 0.00380 0.49920 0.06300
H 	H 	0.64180 0.04440 0.49820 -0.01400
C 	C 	0.57056 0.79320 0.44255 0.10600
N 	N 	0.54147 0.74110 0.44272 -0.13700
C 	C 	0.53155 0.67240 0.41502 0.11300
N 	N 	0.54753 0.65540 0.38737 -0.13700
C 	C 	0.57686 0.71020 0.39104 0.10900
N 	N 	0.58980 0.77930 0.41798 -0.14000
C 	C 	0.50070 0.61000 0.41595 0.06000
C 	C 	0.49285 0.60220 0.45149 -0.10700
H 	H 	0.50730 0.63590 0.47540 0.06900
C 	C 	0.46396 0.54530 0.45210 0.06200
H 	H 	0.45920 0.53940 0.47700 -0.01400
N 	N 	0.44226 0.49750 0.41902 -0.27700
C 	C 	0.44937 0.50580 0.38480 0.08400
H 	H 	0.43390 0.47280 0.36110 -0.01700
C 	C 	0.47827 0.56000 0.38180 -0.11700
H 	H 	0.48280 0.56320 0.35680 0.08400
C 	C 	0.59757 0.69410 0.36279 0.05600
C 	C 	0.63482 0.72020 0.37450 -0.11700
H 	H 	0.64740 0.74700 0.40080 0.08100
C 	C 	0.65364 0.70670 0.34760 0.06600
H 	H 	0.67930 0.72480 0.35580 -0.01300
N 	N 	0.63704 0.66930 0.31042 -0.27600
C 	C 	0.60105 0.64440 0.29930 0.07500
H 	H 	0.58900 0.61860 0.27260 -0.01700
C 	C 	0.58086 0.65410 0.32430 -0.12400
H 	H 	0.55550 0.63360 0.31560 0.08100
N 	N 	0.65196 0.04930 0.62490 -0.27900
C 	C 	0.66593 0.09800 0.65998 0.07100
H 	H 	0.66330 0.16450 0.65930 -0.01900
C 	C 	0.68393 0.05450 0.69673 -0.12900
H 	H 	0.69420 0.09050 0.72110 0.08400
C 	C 	0.68697 0.95710 0.69793 0.06600
C 	C 	0.67110 0.90770 0.66180 -0.13900
H 	H 	0.67160 0.84090 0.66160 0.09300
C 	C 	0.65490 0.95670 0.62680 0.09400
H 	H 	0.64500 0.92240 0.60190 -0.01900
C 	C 	0.70742 0.90490 0.73631 0.10000
N 	N 	0.73667 0.94700 0.76336 -0.13900
C 	C 	0.75593 0.89240 0.79552 0.09000
N 	N 	0.74774 0.80370 0.80131 -0.13800
C 	C 	0.71657 0.77100 0.77259 0.10400
N 	N 	0.69519 0.81820 0.73952 -0.13500
C 	C 	0.70426 0.67370 0.77676 0.05500
C 	C 	0.72658 0.60960 0.80459 -0.11700
H 	H 	0.75000 0.62910 0.82410 0.07900
C 	C 	0.71516 0.51800 0.80428 0.07100
H 	H 	0.73130 0.47470 0.82320 -0.01200
N 	N 	0.68192 0.48750 0.77813 -0.27100
C 	C 	0.65903 0.55080 0.75290 0.06400
H 	H 	0.63480 0.53110 0.73550 -0.01600
C 	C 	0.66916 0.64280 0.75140 -0.12000
H 	H 	0.65220 0.68540 0.73290 0.08300
C 	C 	0.78899 0.93720 0.82582 0.05600
C 	C 	0.81215 0.88940 0.86060 -0.12500
H 	H 	0.80660 0.82660 0.86580 0.07700
C 	C 	0.84303 0.93510 0.88720 0.07900
H 	H 	0.85850 0.90260 0.91100 -0.02500
N 	N 	0.85237 0.02330 0.88099 -0.27900
C 	C 	0.82975 0.06840 0.84830 0.08300
H 	H 	0.83560 0.13160 0.84410 -0.01700
C 	C 	0.79864 0.02900 0.82040 -0.13400
H 	H 	0.78360 0.06410 0.79720 0.09700
I 	I 	0.67610 0.21240 0.55310 -0.09900
I 	I 	0.56800 0.19830 0.57650 -0.27600
I 	I 	0.39660 0.41650 0.48580 -0.00200
I 	I 	0.40500 0.26240 0.38560 -0.16800
Zn	Zn	0.87166 0.37680 0.42935 1.15700
Zn	Zn	0.10064 0.08698 0.57785 1.15800
Zn	Zn	0.83362 0.15363 0.22899 1.16300
I 	I 	0.81252 0.30740 0.43920 -0.25100
I 	I 	0.92206 0.28180 0.42279 -0.06500
I 	I 	0.77493 0.25642 0.20394 -0.38000
I 	I 	0.87846 0.17351 0.30187 -0.38900
I 	I 	0.10518 0.06620 0.50578 -0.36200
I 	I 	0.09171 0.24446 0.60872 -0.17600
N 	N 	0.89232 0.48350 0.47180 -0.27900
C 	C 	0.91956 0.54070 0.47140 0.08100
H 	H 	0.93050 0.53080 0.45110 -0.01400
C 	C 	0.93287 0.61280 0.49830 -0.13100
H 	H 	0.95250 0.65200 0.49660 0.08100
C 	C 	0.91752 0.62820 0.52827 0.05500
C 	C 	0.89028 0.56680 0.52970 -0.11900
H 	H 	0.88000 0.57280 0.55080 0.08100
C 	C 	0.87775 0.49620 0.50080 0.06300
H 	H 	0.85820 0.45560 0.50180 -0.01400
C 	C 	0.92944 0.70680 0.55745 0.10600
N 	N 	0.95853 0.75890 0.55728 -0.13700
C 	C 	0.96845 0.82760 0.58498 0.11300
N 	N 	0.95247 0.84460 0.61263 -0.13700
C 	C 	0.92314 0.78980 0.60896 0.10900
N 	N 	0.91020 0.72070 0.58202 -0.14000
C 	C 	0.99930 0.89000 0.58405 0.06000
C 	C 	0.00715 0.89780 0.54851 -0.10700
H 	H 	0.99270 0.86410 0.52460 0.06900
C 	C 	0.03604 0.95470 0.54790 0.06200
H 	H 	0.04080 0.96060 0.52300 -0.01400
N 	N 	0.05774 0.00250 0.58098 -0.27700
C 	C 	0.05063 0.99420 0.61520 0.08400
H 	H 	0.06610 0.02720 0.63890 -0.01700
C 	C 	0.02173 0.94000 0.61820 -0.11700
H 	H 	0.01720 0.93680 0.64320 0.08400
C 	C 	0.90243 0.80590 0.63721 0.05600
C 	C 	0.86518 0.77980 0.62550 -0.11700
H 	H 	0.85260 0.75300 0.59920 0.08100
C 	C 	0.84636 0.79330 0.65240 0.06600
H 	H 	0.82070 0.77520 0.64420 -0.01300
N 	N 	0.86296 0.83070 0.68958 -0.27600
C 	C 	0.89895 0.85560 0.70070 0.07500
H 	H 	0.91100 0.88140 0.72740 -0.01700
C 	C 	0.91914 0.84590 0.67570 -0.12400
H 	H 	0.94450 0.86640 0.68440 0.08100
N 	N 	0.84804 0.45070 0.37510 -0.27900
C 	C 	0.83407 0.40200 0.34002 0.07100
H 	H 	0.83670 0.33550 0.34070 -0.01900
C 	C 	0.81607 0.44550 0.30327 -0.12900
H 	H 	0.80580 0.40950 0.27890 0.08400
C 	C 	0.81303 0.54290 0.30207 0.06600
C 	C 	0.82890 0.59230 0.33820 -0.13900
H 	H 	0.82840 0.65910 0.33840 0.09400
C 	C 	0.84510 0.54330 0.37320 0.09400
H 	H 	0.85500 0.57760 0.39810 -0.01900
C 	C 	0.79258 0.59510 0.26369 0.10000
N 	N 	0.76333 0.55300 0.23664 -0.13900
C 	C 	0.74407 0.60760 0.20448 0.09000
N 	N 	0.75226 0.69630 0.19869 -0.13800
C 	C 	0.78343 0.72900 0.22741 0.10400
N 	N 	0.80481 0.68180 0.26048 -0.13500
C 	C 	0.79574 0.82630 0.22324 0.05500
C 	C 	0.77342 0.89040 0.19541 -0.11700
H 	H 	0.75000 0.87090 0.17590 0.07900
C 	C 	0.78484 0.98200 0.19572 0.07100
H 	H 	0.76870 0.02530 0.17680 -0.01200
N 	N 	0.81808 0.01250 0.22187 -0.27100
C 	C 	0.84097 0.94920 0.24710 0.06500
H 	H 	0.86520 0.96890 0.26450 -0.01600
C 	C 	0.83084 0.85720 0.24860 -0.12000
H 	H 	0.84780 0.81460 0.26710 0.08300
C 	C 	0.71101 0.56280 0.17418 0.05600
C 	C 	0.68785 0.61060 0.13940 -0.12500
H 	H 	0.69340 0.67340 0.13420 0.07700
C 	C 	0.65697 0.56490 0.11280 0.07900
H 	H 	0.64150 0.59740 0.08900 -0.02500
N 	N 	0.64763 0.47670 0.11901 -0.27900
C 	C 	0.67025 0.43160 0.15170 0.08300
H 	H 	0.66440 0.36840 0.15590 -0.01700
C 	C 	0.70136 0.47100 0.17960 -0.13400
H 	H 	0.71640 0.43590 0.20280 0.09700
I 	I 	0.82390 0.28760 0.44690 -0.09900
I 	I 	0.93200 0.30170 0.42350 -0.27600
I 	I 	0.10340 0.08350 0.51420 -0.00200
I 	I 	0.09500 0.23760 0.61440 -0.16800
Zn	Zn	0.37166 0.87680 0.42935 1.15700
Zn	Zn	0.60064 0.58698 0.57785 1.15800
Zn	Zn	0.33362 0.65363 0.22899 1.16300
I 	I 	0.31252 0.80740 0.43920 -0.25100
I 	I 	0.42206 0.78180 0.42279 -0.06500
I 	I 	0.27493 0.75642 0.20394 -0.38000
I 	I 	0.37846 0.67351 0.30187 -0.38900
I 	I 	0.60518 0.56620 0.50578 -0.36200
I 	I 	0.59171 0.74446 0.60872 -0.17600
N 	N 	0.39232 0.98350 0.47180 -0.27900
C 	C 	0.41956 0.04070 0.47140 0.08100
H 	H 	0.43050 0.03080 0.45110 -0.01400
C 	C 	0.43287 0.11280 0.49830 -0.13100
H 	H 	0.45250 0.15200 0.49660 0.08100
C 	C 	0.41752 0.12820 0.52827 0.05500
C 	C 	0.39028 0.06680 0.52970 -0.11900
H 	H 	0.38000 0.07280 0.55080 0.08100
C 	C 	0.37775 0.99620 0.50080 0.06300
H 	H 	0.35820 0.95560 0.50180 -0.01400
C 	C 	0.42944 0.20680 0.55745 0.10600
N 	N 	0.45853 0.25890 0.55728 -0.13700
C 	C 	0.46845 0.32760 0.58498 0.11300
N 	N 	0.45247 0.34460 0.61263 -0.13700
C 	C 	0.42314 0.28980 0.60896 0.10900
N 	N 	0.41020 0.22070 0.58202 -0.14000
C 	C 	0.49930 0.39000 0.58405 0.06000
C 	C 	0.50715 0.39780 0.54851 -0.10700
H 	H 	0.49270 0.36410 0.52460 0.06900
C 	C 	0.53604 0.45470 0.54790 0.06200
H 	H 	0.54080 0.46060 0.52300 -0.01400
N 	N 	0.55774 0.50250 0.58098 -0.27700
C 	C 	0.55063 0.49420 0.61520 0.08400
H 	H 	0.56610 0.52720 0.63890 -0.01700
C 	C 	0.52173 0.44000 0.61820 -0.11700
H 	H 	0.51720 0.43680 0.64320 0.08400
C 	C 	0.40243 0.30590 0.63721 0.05600
C 	C 	0.36518 0.27980 0.62550 -0.11700
H 	H 	0.35260 0.25300 0.59920 0.08100
C 	C 	0.34636 0.29330 0.65240 0.06600
H 	H 	0.32070 0.27520 0.64420 -0.01300
N 	N 	0.36296 0.33070 0.68958 -0.27600
C 	C 	0.39895 0.35560 0.70070 0.07500
H 	H 	0.41100 0.38140 0.72740 -0.01700
C 	C 	0.41914 0.34590 0.67570 -0.12400
H 	H 	0.44450 0.36640 0.68440 0.08100
N 	N 	0.34804 0.95070 0.37510 -0.27900
C 	C 	0.33407 0.90200 0.34002 0.07100
H 	H 	0.33670 0.83550 0.34070 -0.01900
C 	C 	0.31607 0.94550 0.30327 -0.12900
H 	H 	0.30580 0.90950 0.27890 0.08400
C 	C 	0.31303 0.04290 0.30207 0.06600
C 	C 	0.32890 0.09230 0.33820 -0.13900
H 	H 	0.32840 0.15910 0.33840 0.09300
C 	C 	0.34510 0.04330 0.37320 0.09400
H 	H 	0.35500 0.07760 0.39810 -0.01900
C 	C 	0.29258 0.09510 0.26369 0.10000
N 	N 	0.26333 0.05300 0.23664 -0.13900
C 	C 	0.24407 0.10760 0.20448 0.09000
N 	N 	0.25226 0.19630 0.19869 -0.13800
C 	C 	0.28343 0.22900 0.22741 0.10400
N 	N 	0.30481 0.18180 0.26048 -0.13500
C 	C 	0.29574 0.32630 0.22324 0.05500
C 	C 	0.27342 0.39040 0.19541 -0.11700
H 	H 	0.25000 0.37090 0.17590 0.07900
C 	C 	0.28484 0.48200 0.19572 0.07100
H 	H 	0.26870 0.52530 0.17680 -0.01200
N 	N 	0.31808 0.51250 0.22187 -0.27100
C 	C 	0.34097 0.44920 0.24710 0.06400
H 	H 	0.36520 0.46890 0.26450 -0.01600
C 	C 	0.33084 0.35720 0.24860 -0.12000
H 	H 	0.34780 0.31460 0.26710 0.08300
C 	C 	0.21101 0.06280 0.17418 0.05600
C 	C 	0.18785 0.11060 0.13940 -0.12500
H 	H 	0.19340 0.17340 0.13420 0.07700
C 	C 	0.15697 0.06490 0.11280 0.07900
H 	H 	0.14150 0.09740 0.08900 -0.02500
N 	N 	0.14763 0.97670 0.11901 -0.27900
C 	C 	0.17025 0.93160 0.15170 0.08300
H 	H 	0.16440 0.86840 0.15590 -0.01700
C 	C 	0.20136 0.97100 0.17960 -0.13400
H 	H 	0.21640 0.93590 0.20280 0.09700
I 	I 	0.32390 0.78760 0.44690 -0.09900
I 	I 	0.43200 0.80170 0.42350 -0.27600
I 	I 	0.60340 0.58350 0.51420 -0.00200
I 	I 	0.59500 0.73760 0.61440 -0.16800
Zn	Zn	0.87166 0.62320 0.92935 1.15700
Zn	Zn	0.10064 0.91302 0.07785 1.15800
Zn	Zn	0.83362 0.84637 0.72899 1.16300
I 	I 	0.81252 0.69260 0.93920 -0.25100
I 	I 	0.92206 0.71820 0.92279 -0.06400
I 	I 	0.77493 0.74358 0.70394 -0.38000
I 	I 	0.87846 0.82649 0.80187 -0.38900
I 	I 	0.10518 0.93380 0.00578 -0.36200
I 	I 	0.09171 0.75554 0.10872 -0.17600
N 	N 	0.89232 0.51650 0.97180 -0.27900
C 	C 	0.91956 0.45930 0.97140 0.08100
H 	H 	0.93050 0.46920 0.95110 -0.01400
C 	C 	0.93287 0.38720 0.99830 -0.13100
H 	H 	0.95250 0.34800 0.99660 0.08100
C 	C 	0.91752 0.37180 0.02827 0.05500
C 	C 	0.89028 0.43320 0.02970 -0.11900
H 	H 	0.88000 0.42720 0.05080 0.08100
C 	C 	0.87775 0.50380 0.00080 0.06300
H 	H 	0.85820 0.54440 0.00180 -0.01400
C 	C 	0.92944 0.29320 0.05745 0.10600
N 	N 	0.95853 0.24110 0.05728 -0.13700
C 	C 	0.96845 0.17240 0.08498 0.11400
N 	N 	0.95247 0.15540 0.11263 -0.13700
C 	C 	0.92314 0.21020 0.10896 0.10900
N 	N 	0.91020 0.27930 0.08202 -0.14000
C 	C 	0.99930 0.11000 0.08405 0.06000
C 	C 	0.00715 0.10220 0.04851 -0.10600
H 	H 	0.99270 0.13590 0.02460 0.06900
C 	C 	0.03604 0.04530 0.04790 0.06200
H 	H 	0.04080 0.03940 0.02300 -0.01400
N 	N 	0.05774 0.99750 0.08098 -0.27700
C 	C 	0.05063 0.00580 0.11520 0.08400
H 	H 	0.06610 0.97280 0.13890 -0.01700
C 	C 	0.02173 0.06000 0.11820 -0.11600
H 	H 	0.01720 0.06320 0.14320 0.08400
C 	C 	0.90243 0.19410 0.13721 0.05600
C 	C 	0.86518 0.22020 0.12550 -0.11700
H 	H 	0.85260 0.24700 0.09920 0.08100
C 	C 	0.84636 0.20670 0.15240 0.06600
H 	H 	0.82070 0.22480 0.14420 -0.01300
N 	N 	0.86296 0.16930 0.18958 -0.27600
C 	C 	0.89895 0.14440 0.20070 0.07400
H 	H 	0.91100 0.11860 0.22740 -0.01700
C 	C 	0.91914 0.15410 0.17570 -0.12400
H 	H 	0.94450 0.13360 0.18440 0.08100
N 	N 	0.84804 0.54930 0.87510 -0.27900
C 	C 	0.83407 0.59800 0.84002 0.07100
H 	H 	0.83670 0.66450 0.84070 -0.01900
C 	C 	0.81607 0.55450 0.80327 -0.12900
H 	H 	0.80580 0.59050 0.77890 0.08400
C 	C 	0.81303 0.45710 0.80207 0.06600
C 	C 	0.82890 0.40770 0.83820 -0.13900
H 	H 	0.82840 0.34090 0.83840 0.09400
C 	C 	0.84510 0.45670 0.87320 0.09400
H 	H 	0.85500 0.42240 0.89810 -0.01900
C 	C 	0.79258 0.40490 0.76369 0.10000
N 	N 	0.76333 0.44700 0.73664 -0.13900
C 	C 	0.74407 0.39240 0.70448 0.09000
N 	N 	0.75226 0.30370 0.69869 -0.13800
C 	C 	0.78343 0.27100 0.72741 0.10400
N 	N 	0.80481 0.31820 0.76048 -0.13500
C 	C 	0.79574 0.17370 0.72324 0.05500
C 	C 	0.77342 0.10960 0.69541 -0.11700
H 	H 	0.75000 0.12910 0.67590 0.07900
C 	C 	0.78484 0.01800 0.69572 0.07100
H 	H 	0.76870 0.97470 0.67680 -0.01200
N 	N 	0.81808 0.98750 0.72187 -0.27100
C 	C 	0.84097 0.05080 0.74710 0.06500
H 	H 	0.86520 0.03110 0.76450 -0.01600
C 	C 	0.83084 0.14280 0.74860 -0.12000
H 	H 	0.84780 0.18540 0.76710 0.08300
C 	C 	0.71101 0.43720 0.67418 0.05600
C 	C 	0.68785 0.38940 0.63940 -0.12500
H 	H 	0.69340 0.32660 0.63420 0.07700
C 	C 	0.65697 0.43510 0.61280 0.07900
H 	H 	0.64150 0.40260 0.58900 -0.02500
N 	N 	0.64763 0.52330 0.61901 -0.27900
C 	C 	0.67025 0.56840 0.65170 0.08300
H 	H 	0.66440 0.63160 0.65590 -0.01700
C 	C 	0.70136 0.52900 0.67960 -0.13400
H 	H 	0.71640 0.56410 0.70280 0.09700
I 	I 	0.82390 0.71240 0.94690 -0.09900
I 	I 	0.93200 0.69830 0.92350 -0.27700
I 	I 	0.10340 0.91650 0.01420 -0.00200
I 	I 	0.09500 0.76240 0.11440 -0.16800
Zn	Zn	0.37166 0.12320 0.92935 1.15700
Zn	Zn	0.60064 0.41302 0.07785 1.15800
Zn	Zn	0.33362 0.34637 0.72899 1.16300
I 	I 	0.31252 0.19260 0.93920 -0.25100
I 	I 	0.42206 0.21820 0.92279 -0.06500
I 	I 	0.27493 0.24358 0.70394 -0.38000
I 	I 	0.37846 0.32649 0.80187 -0.38900
I 	I 	0.60518 0.43380 0.00578 -0.36200
I 	I 	0.59171 0.25554 0.10872 -0.17600
N 	N 	0.39232 0.01650 0.97180 -0.27900
C 	C 	0.41956 0.95930 0.97140 0.08100
H 	H 	0.43050 0.96920 0.95110 -0.01400
C 	C 	0.43287 0.88720 0.99830 -0.13100
H 	H 	0.45250 0.84800 0.99660 0.08100
C 	C 	0.41752 0.87180 0.02827 0.05500
C 	C 	0.39028 0.93320 0.02970 -0.11900
H 	H 	0.38000 0.92720 0.05080 0.08100
C 	C 	0.37775 0.00380 0.00080 0.06300
H 	H 	0.35820 0.04440 0.00180 -0.01400
C 	C 	0.42944 0.79320 0.05745 0.10600
N 	N 	0.45853 0.74110 0.05728 -0.13700
C 	C 	0.46845 0.67240 0.08498 0.11300
N 	N 	0.45247 0.65540 0.11263 -0.13700
C 	C 	0.42314 0.71020 0.10896 0.10900
N 	N 	0.41020 0.77930 0.08202 -0.14000
C 	C 	0.49930 0.61000 0.08405 0.06000
C 	C 	0.50715 0.60220 0.04851 -0.10700
H 	H 	0.49270 0.63590 0.02460 0.06900
C 	C 	0.53604 0.54530 0.04790 0.06200
H 	H 	0.54080 0.53940 0.02300 -0.01400
N 	N 	0.55774 0.49750 0.08098 -0.27700
C 	C 	0.55063 0.50580 0.11520 0.08400
H 	H 	0.56610 0.47280 0.13890 -0.01700
C 	C 	0.52173 0.56000 0.11820 -0.11700
H 	H 	0.51720 0.56320 0.14320 0.08400
C 	C 	0.40243 0.69410 0.13721 0.05600
C 	C 	0.36518 0.72020 0.12550 -0.11700
H 	H 	0.35260 0.74700 0.09920 0.08100
C 	C 	0.34636 0.70670 0.15240 0.06600
H 	H 	0.32070 0.72480 0.14420 -0.01300
N 	N 	0.36296 0.66930 0.18958 -0.27600
C 	C 	0.39895 0.64440 0.20070 0.07500
H 	H 	0.41100 0.61860 0.22740 -0.01700
C 	C 	0.41914 0.65410 0.17570 -0.12400
H 	H 	0.44450 0.63360 0.18440 0.08100
N 	N 	0.34804 0.04930 0.87510 -0.27900
C 	C 	0.33407 0.09800 0.84002 0.07100
H 	H 	0.33670 0.16450 0.84070 -0.01900
C 	C 	0.31607 0.05450 0.80327 -0.12900
H 	H 	0.30580 0.09050 0.77890 0.08400
C 	C 	0.31303 0.95710 0.80207 0.06600
C 	C 	0.32890 0.90770 0.83820 -0.13900
H 	H 	0.32840 0.84090 0.83840 0.09300
C 	C 	0.34510 0.95670 0.87320 0.09400
H 	H 	0.35500 0.92240 0.89810 -0.01900
C 	C 	0.29258 0.90490 0.76369 0.10000
N 	N 	0.26333 0.94700 0.73664 -0.13900
C 	C 	0.24407 0.89240 0.70448 0.09000
N 	N 	0.25226 0.80370 0.69869 -0.13800
C 	C 	0.28343 0.77100 0.72741 0.10400
N 	N 	0.30481 0.81820 0.76048 -0.13500
C 	C 	0.29574 0.67370 0.72324 0.05500
C 	C 	0.27342 0.60960 0.69541 -0.11700
H 	H 	0.25000 0.62910 0.67590 0.07900
C 	C 	0.28484 0.51800 0.69572 0.07100
H 	H 	0.26870 0.47470 0.67680 -0.01200
N 	N 	0.31808 0.48750 0.72187 -0.27100
C 	C 	0.34097 0.55080 0.74710 0.06500
H 	H 	0.36520 0.53110 0.76450 -0.01600
C 	C 	0.33084 0.64280 0.74860 -0.12000
H 	H 	0.34780 0.68540 0.76710 0.08300
C 	C 	0.21101 0.93720 0.67418 0.05600
C 	C 	0.18785 0.88940 0.63940 -0.12500
H 	H 	0.19340 0.82660 0.63420 0.07700
C 	C 	0.15697 0.93510 0.61280 0.07900
H 	H 	0.14150 0.90260 0.58900 -0.02500
N 	N 	0.14763 0.02330 0.61901 -0.27900
C 	C 	0.17025 0.06840 0.65170 0.08300
H 	H 	0.16440 0.13160 0.65590 -0.01700
C 	C 	0.20136 0.02900 0.67960 -0.13400
H 	H 	0.21640 0.06410 0.70280 0.09700
I 	I 	0.32390 0.21240 0.94690 -0.09900
I 	I 	0.43200 0.19830 0.92350 -0.27600
I 	I 	0.60340 0.41650 0.01420 -0.00200
I 	I 	0.59500 0.26240 0.11440 -0.16800
