data_crystal

_cell_length_a 34.19040
_cell_length_b 14.67840
_cell_length_c 30.16830
_cell_angle_alpha 90.00000
_cell_angle_beta  101.74400
_cell_angle_gamma 90.00000

_symmetry_space_group_name_	'P 1'
_symmetry_space_group_name_H-M	'P 1'

loop_
_symmetry_equiv_pos_as_xyz
  x,y,z

loop_
_atom_site_label
_atom_site_type_symbol
_atom_site_fract_x
_atom_site_fract_y
_atom_site_fract_z
_atom_site_charge
Zn	Zn	0.37464 0.88897 0.45025 1.18800
Br	Br	0.38822 0.75280 0.41540 -0.22800
Br	Br	0.35804 0.90173 0.52070 -0.47300
Zn	Zn	0.18110 0.64640 0.27700 0.61200
Br	Br	0.13970 0.66810 0.20570 -0.03400
Br	Br	0.23900 0.73170 0.30270 -0.40300
Zn	Zn	0.08078 0.86411 0.09426 1.19100
Br	Br	0.11503 0.75518 0.06083 -0.47400
Br	Br	0.02886 0.84279 0.13308 -0.44900
N 	N 	0.33129 0.95620 0.40435 -0.26400
C 	C 	0.32794 0.04640 0.40596 0.08000
H 	H 	0.34580 0.07890 0.42880 0.01500
C 	C 	0.29979 0.09460 0.37607 -0.11400
H 	H 	0.29870 0.15910 0.37790 0.09400
C 	C 	0.27315 0.04800 0.34337 0.05400
C 	C 	0.27618 0.95370 0.34215 -0.12200
H 	H 	0.25810 0.91940 0.32030 0.10100
C 	C 	0.30550 0.91070 0.37276 0.07500
H 	H 	0.30760 0.84620 0.37150 0.00700
C 	C 	0.24264 0.09590 0.30907 0.09100
N 	N 	0.23750 0.18510 0.31414 -0.13900
C 	C 	0.20921 0.22230 0.28236 0.10600
N 	N 	0.18594 0.17650 0.24860 -0.13100
C 	C 	0.19457 0.08880 0.24632 0.10300
N 	N 	0.22329 0.04460 0.27532 -0.14100
C 	C 	0.20267 0.32240 0.28238 0.06500
C 	C 	0.22504 0.37950 0.31366 -0.12300
H 	H 	0.24510 0.35550 0.33730 0.08500
C 	C 	0.21813 0.47200 0.31050 0.07700
H 	H 	0.23360 0.51100 0.33240 -0.00500
N 	N 	0.19033 0.50880 0.27750 -0.27200
C 	C 	0.16909 0.45350 0.24770 0.07500
H 	H 	0.14920 0.47910 0.22440 -0.00600
C 	C 	0.17413 0.36120 0.24840 -0.12000
H 	H 	0.15820 0.32410 0.22590 0.08800
C 	C 	0.17113 0.03620 0.20758 0.06200
C 	C 	0.17546 0.94290 0.20376 -0.12200
H 	H 	0.19500 0.91070 0.22490 0.08000
C 	C 	0.15087 0.89740 0.16868 0.07100
H 	H 	0.15380 0.83330 0.16630 0.00100
N 	N 	0.12335 0.93970 0.13822 -0.25700
C 	C 	0.12036 0.03000 0.14088 0.07600
H 	H 	0.10140 0.06090 0.11850 0.00800
C 	C 	0.14385 0.08010 0.17508 -0.11600
H 	H 	0.14110 0.14450 0.17600 0.09700
N 	N 	0.06164 0.96350 0.04546 -0.25800
C 	C 	0.03554 0.02800 0.05211 0.06600
H 	H 	0.02110 0.01960 0.07560 0.00500
C 	C 	0.02898 0.10570 0.02611 -0.10500
H 	H 	0.01050 0.15040 0.03180 0.07700
C 	C 	0.04975 0.11790 0.99131 0.04900
C 	C 	0.07509 0.04860 0.98306 -0.10700
H 	H 	0.08860 0.05280 0.95850 0.08300
C 	C 	0.08027 0.97360 0.01131 0.06600
H 	H 	0.09800 0.92700 0.00600 0.00300
C 	C 	0.04571 0.20210 0.96406 0.10300
N 	N 	0.01838 0.26280 0.97071 -0.14700
C 	C 	0.01457 0.33460 0.94311 0.09800
N 	N 	0.03636 0.35070 0.91207 -0.13100
C 	C 	0.06448 0.28860 0.91021 0.11300
N 	N 	0.06982 0.21150 0.93498 -0.13200
C 	C 	0.98262 0.40150 0.94629 0.05900
C 	C 	0.96576 0.40590 0.98348 -0.12100
H 	H 	0.97430 0.36580 0.00830 0.08400
C 	C 	0.93622 0.46870 0.98470 0.08400
H 	H 	0.92510 0.47200 0.01110 0.00500
N 	N 	0.92252 0.52520 0.95072 -0.26600
C 	C 	0.93913 0.52040 0.91430 0.08100
H 	H 	0.92980 0.56060 0.88980 -0.01000
C 	C 	0.96885 0.46050 0.91070 -0.12000
H 	H 	0.97990 0.45930 0.88430 0.09000
C 	C 	0.09166 0.30470 0.87871 0.07900
C 	C 	0.12721 0.25900 0.88320 -0.11400
H 	H 	0.13470 0.21530 0.90670 0.09100
C 	C 	0.15208 0.27670 0.85350 0.07800
H 	H 	0.17680 0.24520 0.85730 -0.00200
N 	N 	0.14266 0.33640 0.81971 -0.27700
C 	C 	0.10860 0.38080 0.81590 0.09000
H 	H 	0.10170 0.42390 0.79210 -0.01600
C 	C 	0.08249 0.36780 0.84460 -0.12300
H 	H 	0.05850 0.40210 0.84080 0.09100
Br	Br	0.38560 0.74770 0.42100 -0.20200
Zn	Zn	0.17330 0.64670 0.26760 0.60400
Br	Br	0.13003 0.65860 0.19660 -0.42500
Br	Br	0.22931 0.73930 0.28906 -0.06000
Zn	Zn	0.87464 0.38897 0.45025 1.18900
Br	Br	0.88822 0.25280 0.41540 -0.22700
Br	Br	0.85804 0.40173 0.52070 -0.47200
Zn	Zn	0.68110 0.14640 0.27700 0.61300
Br	Br	0.63970 0.16810 0.20570 -0.03300
Br	Br	0.73900 0.23170 0.30270 -0.40200
Zn	Zn	0.58078 0.36411 0.09426 1.19200
Br	Br	0.61503 0.25518 0.06083 -0.47200
Br	Br	0.52886 0.34279 0.13308 -0.44900
N 	N 	0.83129 0.45620 0.40435 -0.26400
C 	C 	0.82794 0.54640 0.40596 0.07900
H 	H 	0.84580 0.57890 0.42880 0.01500
C 	C 	0.79979 0.59460 0.37607 -0.11400
H 	H 	0.79870 0.65910 0.37790 0.09400
C 	C 	0.77315 0.54800 0.34337 0.05400
C 	C 	0.77618 0.45370 0.34215 -0.12200
H 	H 	0.75810 0.41940 0.32030 0.10100
C 	C 	0.80550 0.41070 0.37276 0.07500
H 	H 	0.80760 0.34620 0.37150 0.00700
C 	C 	0.74264 0.59590 0.30907 0.09100
N 	N 	0.73750 0.68510 0.31414 -0.13900
C 	C 	0.70921 0.72230 0.28236 0.10600
N 	N 	0.68594 0.67650 0.24860 -0.13100
C 	C 	0.69457 0.58880 0.24632 0.10300
N 	N 	0.72329 0.54460 0.27532 -0.14100
C 	C 	0.70267 0.82240 0.28238 0.06500
C 	C 	0.72504 0.87950 0.31366 -0.12300
H 	H 	0.74510 0.85550 0.33730 0.08400
C 	C 	0.71813 0.97200 0.31050 0.07600
H 	H 	0.73360 0.01100 0.33240 -0.00500
N 	N 	0.69033 0.00880 0.27750 -0.27100
C 	C 	0.66909 0.95350 0.24770 0.07400
H 	H 	0.64920 0.97910 0.22440 -0.00600
C 	C 	0.67413 0.86120 0.24840 -0.12000
H 	H 	0.65820 0.82410 0.22590 0.08800
C 	C 	0.67113 0.53620 0.20758 0.06100
C 	C 	0.67546 0.44290 0.20376 -0.12200
H 	H 	0.69500 0.41070 0.22490 0.08000
C 	C 	0.65087 0.39740 0.16868 0.07000
H 	H 	0.65380 0.33330 0.16630 0.00100
N 	N 	0.62335 0.43970 0.13822 -0.25700
C 	C 	0.62036 0.53000 0.14088 0.07600
H 	H 	0.60140 0.56090 0.11850 0.00800
C 	C 	0.64385 0.58010 0.17508 -0.11500
H 	H 	0.64110 0.64450 0.17600 0.09700
N 	N 	0.56164 0.46350 0.04546 -0.25700
C 	C 	0.53554 0.52800 0.05211 0.06600
H 	H 	0.52110 0.51960 0.07560 0.00500
C 	C 	0.52898 0.60570 0.02611 -0.10500
H 	H 	0.51050 0.65040 0.03180 0.07700
C 	C 	0.54975 0.61790 0.99131 0.04900
C 	C 	0.57509 0.54860 0.98306 -0.10700
H 	H 	0.58860 0.55280 0.95850 0.08400
C 	C 	0.58027 0.47360 0.01131 0.06600
H 	H 	0.59800 0.42700 0.00600 0.00300
C 	C 	0.54571 0.70210 0.96406 0.10300
N 	N 	0.51838 0.76280 0.97071 -0.14700
C 	C 	0.51457 0.83460 0.94311 0.09800
N 	N 	0.53636 0.85070 0.91207 -0.13100
C 	C 	0.56448 0.78860 0.91021 0.11300
N 	N 	0.56982 0.71150 0.93498 -0.13200
C 	C 	0.48262 0.90150 0.94629 0.05900
C 	C 	0.46576 0.90590 0.98348 -0.12000
H 	H 	0.47430 0.86580 0.00830 0.08300
C 	C 	0.43622 0.96870 0.98470 0.08500
H 	H 	0.42510 0.97200 0.01110 0.00400
N 	N 	0.42252 0.02520 0.95072 -0.26600
C 	C 	0.43913 0.02040 0.91430 0.08100
H 	H 	0.42980 0.06060 0.88980 -0.01000
C 	C 	0.46885 0.96050 0.91070 -0.11900
H 	H 	0.47990 0.95930 0.88430 0.09000
C 	C 	0.59166 0.80470 0.87871 0.07900
C 	C 	0.62721 0.75900 0.88320 -0.11400
H 	H 	0.63470 0.71530 0.90670 0.09100
C 	C 	0.65208 0.77670 0.85350 0.07800
H 	H 	0.67680 0.74520 0.85730 -0.00200
N 	N 	0.64266 0.83640 0.81971 -0.27700
C 	C 	0.60860 0.88080 0.81590 0.09000
H 	H 	0.60170 0.92390 0.79210 -0.01600
C 	C 	0.58249 0.86780 0.84460 -0.12300
H 	H 	0.55850 0.90210 0.84080 0.09100
Br	Br	0.88560 0.24770 0.42100 -0.20200
Zn	Zn	0.67330 0.14670 0.26760 0.60400
Br	Br	0.63003 0.15860 0.19660 -0.42400
Br	Br	0.72931 0.23930 0.28906 -0.06000
Zn	Zn	0.37464 0.11103 0.95025 1.18900
Br	Br	0.38822 0.24720 0.91540 -0.22700
Br	Br	0.35804 0.09827 0.02070 -0.47200
Zn	Zn	0.18110 0.35360 0.77700 0.61300
Br	Br	0.13970 0.33190 0.70570 -0.03300
Br	Br	0.23900 0.26830 0.80270 -0.40200
Zn	Zn	0.08078 0.13589 0.59426 1.19200
Br	Br	0.11503 0.24482 0.56083 -0.47300
Br	Br	0.02886 0.15721 0.63308 -0.44900
N 	N 	0.33129 0.04380 0.90435 -0.26400
C 	C 	0.32794 0.95360 0.90596 0.08000
H 	H 	0.34580 0.92110 0.92880 0.01500
C 	C 	0.29979 0.90540 0.87607 -0.11500
H 	H 	0.29870 0.84090 0.87790 0.09400
C 	C 	0.27315 0.95200 0.84337 0.05500
C 	C 	0.27618 0.04630 0.84215 -0.12200
H 	H 	0.25810 0.08060 0.82030 0.10100
C 	C 	0.30550 0.08930 0.87276 0.07500
H 	H 	0.30760 0.15380 0.87150 0.00700
C 	C 	0.24264 0.90410 0.80907 0.09000
N 	N 	0.23750 0.81490 0.81414 -0.13900
C 	C 	0.20921 0.77770 0.78236 0.10600
N 	N 	0.18594 0.82350 0.74860 -0.13100
C 	C 	0.19457 0.91120 0.74632 0.10300
N 	N 	0.22329 0.95540 0.77532 -0.14100
C 	C 	0.20267 0.67760 0.78238 0.06500
C 	C 	0.22504 0.62050 0.81366 -0.12300
H 	H 	0.24510 0.64450 0.83730 0.08500
C 	C 	0.21813 0.52800 0.81050 0.07700
H 	H 	0.23360 0.48900 0.83240 -0.00500
N 	N 	0.19033 0.49120 0.77750 -0.27200
C 	C 	0.16909 0.54650 0.74770 0.07500
H 	H 	0.14920 0.52090 0.72440 -0.00600
C 	C 	0.17413 0.63880 0.74840 -0.12000
H 	H 	0.15820 0.67590 0.72590 0.08800
C 	C 	0.17113 0.96380 0.70758 0.06100
C 	C 	0.17546 0.05710 0.70376 -0.12200
H 	H 	0.19500 0.08930 0.72490 0.08000
C 	C 	0.15087 0.10260 0.66868 0.07100
H 	H 	0.15380 0.16670 0.66630 0.00100
N 	N 	0.12335 0.06030 0.63822 -0.25700
C 	C 	0.12036 0.97000 0.64088 0.07600
H 	H 	0.10140 0.93910 0.61850 0.00800
C 	C 	0.14385 0.91990 0.67508 -0.11500
H 	H 	0.14110 0.85550 0.67600 0.09700
N 	N 	0.06164 0.03650 0.54546 -0.25700
C 	C 	0.03554 0.97200 0.55211 0.06600
H 	H 	0.02110 0.98040 0.57560 0.00500
C 	C 	0.02898 0.89430 0.52611 -0.10500
H 	H 	0.01050 0.84960 0.53180 0.07700
C 	C 	0.04975 0.88210 0.49131 0.04900
C 	C 	0.07509 0.95140 0.48306 -0.10700
H 	H 	0.08860 0.94720 0.45850 0.08400
C 	C 	0.08027 0.02640 0.51131 0.06600
H 	H 	0.09800 0.07300 0.50600 0.00300
C 	C 	0.04571 0.79790 0.46406 0.10300
N 	N 	0.01838 0.73720 0.47071 -0.14700
C 	C 	0.01457 0.66540 0.44311 0.09800
N 	N 	0.03636 0.64930 0.41207 -0.13100
C 	C 	0.06448 0.71140 0.41021 0.11300
N 	N 	0.06982 0.78850 0.43498 -0.13200
C 	C 	0.98262 0.59850 0.44629 0.05900
C 	C 	0.96576 0.59410 0.48348 -0.12000
H 	H 	0.97430 0.63420 0.50830 0.08400
C 	C 	0.93622 0.53130 0.48470 0.08400
H 	H 	0.92510 0.52800 0.51110 0.00500
N 	N 	0.92252 0.47480 0.45072 -0.26600
C 	C 	0.93913 0.47960 0.41430 0.08100
H 	H 	0.92980 0.43940 0.38980 -0.01000
C 	C 	0.96885 0.53950 0.41070 -0.12000
H 	H 	0.97990 0.54070 0.38430 0.09000
C 	C 	0.09166 0.69530 0.37871 0.07900
C 	C 	0.12721 0.74100 0.38320 -0.11400
H 	H 	0.13470 0.78470 0.40670 0.09100
C 	C 	0.15208 0.72330 0.35350 0.07800
H 	H 	0.17680 0.75480 0.35730 -0.00200
N 	N 	0.14266 0.66360 0.31971 -0.27700
C 	C 	0.10860 0.61920 0.31590 0.09000
H 	H 	0.10170 0.57610 0.29210 -0.01600
C 	C 	0.08249 0.63220 0.34460 -0.12300
H 	H 	0.05850 0.59790 0.34080 0.09100
Br	Br	0.38560 0.25230 0.92100 -0.20200
Zn	Zn	0.17330 0.35330 0.76760 0.60400
Br	Br	0.13003 0.34140 0.69660 -0.42500
Br	Br	0.22931 0.26070 0.78906 -0.06000
Zn	Zn	0.87464 0.61103 0.95025 1.18900
Br	Br	0.88822 0.74720 0.91540 -0.22700
Br	Br	0.85804 0.59827 0.02070 -0.47200
Zn	Zn	0.68110 0.85360 0.77700 0.61300
Br	Br	0.63970 0.83190 0.70570 -0.03300
Br	Br	0.73900 0.76830 0.80270 -0.40200
Zn	Zn	0.58078 0.63589 0.59426 1.19200
Br	Br	0.61503 0.74482 0.56083 -0.47300
Br	Br	0.52886 0.65721 0.63308 -0.44900
N 	N 	0.83129 0.54380 0.90435 -0.26400
C 	C 	0.82794 0.45360 0.90596 0.07900
H 	H 	0.84580 0.42110 0.92880 0.01500
C 	C 	0.79979 0.40540 0.87607 -0.11400
H 	H 	0.79870 0.34090 0.87790 0.09400
C 	C 	0.77315 0.45200 0.84337 0.05400
C 	C 	0.77618 0.54630 0.84215 -0.12200
H 	H 	0.75810 0.58060 0.82030 0.10100
C 	C 	0.80550 0.58930 0.87276 0.07500
H 	H 	0.80760 0.65380 0.87150 0.00700
C 	C 	0.74264 0.40410 0.80907 0.09100
N 	N 	0.73750 0.31490 0.81414 -0.13900
C 	C 	0.70921 0.27770 0.78236 0.10600
N 	N 	0.68594 0.32350 0.74860 -0.13100
C 	C 	0.69457 0.41120 0.74632 0.10300
N 	N 	0.72329 0.45540 0.77532 -0.14100
C 	C 	0.70267 0.17760 0.78238 0.06500
C 	C 	0.72504 0.12050 0.81366 -0.12300
H 	H 	0.74510 0.14450 0.83730 0.08400
C 	C 	0.71813 0.02800 0.81050 0.07600
H 	H 	0.73360 0.98900 0.83240 -0.00400
N 	N 	0.69033 0.99120 0.77750 -0.27100
C 	C 	0.66909 0.04650 0.74770 0.07400
H 	H 	0.64920 0.02090 0.72440 -0.00600
C 	C 	0.67413 0.13880 0.74840 -0.12000
H 	H 	0.65820 0.17590 0.72590 0.08800
C 	C 	0.67113 0.46380 0.70758 0.06100
C 	C 	0.67546 0.55710 0.70376 -0.12200
H 	H 	0.69500 0.58930 0.72490 0.08000
C 	C 	0.65087 0.60260 0.66868 0.07000
H 	H 	0.65380 0.66670 0.66630 0.00100
N 	N 	0.62335 0.56030 0.63822 -0.25700
C 	C 	0.62036 0.47000 0.64088 0.07600
H 	H 	0.60140 0.43910 0.61850 0.00800
C 	C 	0.64385 0.41990 0.67508 -0.11500
H 	H 	0.64110 0.35550 0.67600 0.09700
N 	N 	0.56164 0.53650 0.54546 -0.25700
C 	C 	0.53554 0.47200 0.55211 0.06600
H 	H 	0.52110 0.48040 0.57560 0.00500
C 	C 	0.52898 0.39430 0.52611 -0.10500
H 	H 	0.51050 0.34960 0.53180 0.07700
C 	C 	0.54975 0.38210 0.49131 0.04900
C 	C 	0.57509 0.45140 0.48306 -0.10700
H 	H 	0.58860 0.44720 0.45850 0.08400
C 	C 	0.58027 0.52640 0.51131 0.06600
H 	H 	0.59800 0.57300 0.50600 0.00300
C 	C 	0.54571 0.29790 0.46406 0.10300
N 	N 	0.51838 0.23720 0.47071 -0.14700
C 	C 	0.51457 0.16540 0.44311 0.09800
N 	N 	0.53636 0.14930 0.41207 -0.13100
C 	C 	0.56448 0.21140 0.41021 0.11300
N 	N 	0.56982 0.28850 0.43498 -0.13200
C 	C 	0.48262 0.09850 0.44629 0.05900
C 	C 	0.46576 0.09410 0.48348 -0.12000
H 	H 	0.47430 0.13420 0.50830 0.08400
C 	C 	0.43622 0.03130 0.48470 0.08400
H 	H 	0.42510 0.02800 0.51110 0.00500
N 	N 	0.42252 0.97480 0.45072 -0.26600
C 	C 	0.43913 0.97960 0.41430 0.08100
H 	H 	0.42980 0.93940 0.38980 -0.01000
C 	C 	0.46885 0.03950 0.41070 -0.12000
H 	H 	0.47990 0.04070 0.38430 0.09000
C 	C 	0.59166 0.19530 0.37871 0.07900
C 	C 	0.62721 0.24100 0.38320 -0.11400
H 	H 	0.63470 0.28470 0.40670 0.09100
C 	C 	0.65208 0.22330 0.35350 0.07800
H 	H 	0.67680 0.25480 0.35730 -0.00200
N 	N 	0.64266 0.16360 0.31971 -0.27700
C 	C 	0.60860 0.11920 0.31590 0.09000
H 	H 	0.60170 0.07610 0.29210 -0.01600
C 	C 	0.58249 0.13220 0.34460 -0.12300
H 	H 	0.55850 0.09790 0.34080 0.09100
Br	Br	0.88560 0.75230 0.92100 -0.20200
Zn	Zn	0.67330 0.85330 0.76760 0.60400
Br	Br	0.63003 0.84140 0.69660 -0.42400
Br	Br	0.72931 0.76070 0.78906 -0.06000
Zn	Zn	0.62536 0.88897 0.04975 1.18900
Br	Br	0.61178 0.75280 0.08460 -0.22700
Br	Br	0.64196 0.90173 0.97930 -0.47200
Zn	Zn	0.81890 0.64640 0.22300 0.61300
Br	Br	0.86030 0.66810 0.29430 -0.03300
Br	Br	0.76100 0.73170 0.19730 -0.40200
Zn	Zn	0.91922 0.86411 0.40574 1.19200
Br	Br	0.88497 0.75518 0.43917 -0.47300
Br	Br	0.97114 0.84279 0.36692 -0.44900
N 	N 	0.66871 0.95620 0.09565 -0.26400
C 	C 	0.67206 0.04640 0.09404 0.08000
H 	H 	0.65420 0.07890 0.07120 0.01500
C 	C 	0.70021 0.09460 0.12393 -0.11500
H 	H 	0.70130 0.15910 0.12210 0.09400
C 	C 	0.72685 0.04800 0.15663 0.05500
C 	C 	0.72382 0.95370 0.15785 -0.12200
H 	H 	0.74190 0.91940 0.17970 0.10100
C 	C 	0.69450 0.91070 0.12724 0.07500
H 	H 	0.69240 0.84620 0.12850 0.00700
C 	C 	0.75736 0.09590 0.19093 0.09000
N 	N 	0.76250 0.18510 0.18586 -0.13900
C 	C 	0.79079 0.22230 0.21764 0.10600
N 	N 	0.81406 0.17650 0.25140 -0.13100
C 	C 	0.80543 0.08880 0.25368 0.10300
N 	N 	0.77671 0.04460 0.22468 -0.14100
C 	C 	0.79733 0.32240 0.21762 0.06500
C 	C 	0.77496 0.37950 0.18634 -0.12300
H 	H 	0.75490 0.35550 0.16270 0.08500
C 	C 	0.78187 0.47200 0.18950 0.07700
H 	H 	0.76640 0.51100 0.16760 -0.00500
N 	N 	0.80967 0.50880 0.22250 -0.27200
C 	C 	0.83091 0.45350 0.25230 0.07500
H 	H 	0.85080 0.47910 0.27560 -0.00600
C 	C 	0.82587 0.36120 0.25160 -0.12000
H 	H 	0.84180 0.32410 0.27410 0.08800
C 	C 	0.82887 0.03620 0.29242 0.06100
C 	C 	0.82454 0.94290 0.29624 -0.12200
H 	H 	0.80500 0.91070 0.27510 0.08000
C 	C 	0.84913 0.89740 0.33132 0.07100
H 	H 	0.84620 0.83330 0.33370 0.00100
N 	N 	0.87665 0.93970 0.36178 -0.25700
C 	C 	0.87964 0.03000 0.35912 0.07600
H 	H 	0.89860 0.06090 0.38150 0.00800
C 	C 	0.85615 0.08010 0.32492 -0.11500
H 	H 	0.85890 0.14450 0.32400 0.09700
N 	N 	0.93836 0.96350 0.45454 -0.25700
C 	C 	0.96446 0.02800 0.44789 0.06600
H 	H 	0.97890 0.01960 0.42440 0.00500
C 	C 	0.97102 0.10570 0.47389 -0.10500
H 	H 	0.98950 0.15040 0.46820 0.07700
C 	C 	0.95025 0.11790 0.50869 0.04900
C 	C 	0.92491 0.04860 0.51694 -0.10700
H 	H 	0.91140 0.05280 0.54150 0.08400
C 	C 	0.91973 0.97360 0.48869 0.06600
H 	H 	0.90200 0.92700 0.49400 0.00300
C 	C 	0.95429 0.20210 0.53594 0.10300
N 	N 	0.98162 0.26280 0.52929 -0.14700
C 	C 	0.98543 0.33460 0.55689 0.09800
N 	N 	0.96364 0.35070 0.58793 -0.13100
C 	C 	0.93552 0.28860 0.58979 0.11300
N 	N 	0.93018 0.21150 0.56502 -0.13200
C 	C 	0.01738 0.40150 0.55371 0.05900
C 	C 	0.03424 0.40590 0.51652 -0.12000
H 	H 	0.02570 0.36580 0.49170 0.08400
C 	C 	0.06378 0.46870 0.51530 0.08400
H 	H 	0.07490 0.47200 0.48890 0.00500
N 	N 	0.07748 0.52520 0.54928 -0.26600
C 	C 	0.06087 0.52040 0.58570 0.08100
H 	H 	0.07020 0.56060 0.61020 -0.01000
C 	C 	0.03115 0.46050 0.58930 -0.12000
H 	H 	0.02010 0.45930 0.61570 0.09000
C 	C 	0.90834 0.30470 0.62129 0.07900
C 	C 	0.87279 0.25900 0.61680 -0.11400
H 	H 	0.86530 0.21530 0.59330 0.09100
C 	C 	0.84792 0.27670 0.64650 0.07800
H 	H 	0.82320 0.24520 0.64270 -0.00200
N 	N 	0.85734 0.33640 0.68029 -0.27700
C 	C 	0.89140 0.38080 0.68410 0.09000
H 	H 	0.89830 0.42390 0.70790 -0.01600
C 	C 	0.91751 0.36780 0.65540 -0.12300
H 	H 	0.94150 0.40210 0.65920 0.09100
Br	Br	0.61440 0.74770 0.07900 -0.20200
Zn	Zn	0.82670 0.64670 0.23240 0.60400
Br	Br	0.86997 0.65860 0.30340 -0.42500
Br	Br	0.77069 0.73930 0.21094 -0.06000
Zn	Zn	0.12536 0.38897 0.04975 1.18900
Br	Br	0.11178 0.25280 0.08460 -0.22700
Br	Br	0.14196 0.40173 0.97930 -0.47200
Zn	Zn	0.31890 0.14640 0.22300 0.61300
Br	Br	0.36030 0.16810 0.29430 -0.03300
Br	Br	0.26100 0.23170 0.19730 -0.40200
Zn	Zn	0.41922 0.36411 0.40574 1.19200
Br	Br	0.38497 0.25518 0.43917 -0.47300
Br	Br	0.47114 0.34279 0.36692 -0.44900
N 	N 	0.16871 0.45620 0.09565 -0.26400
C 	C 	0.17206 0.54640 0.09404 0.07900
H 	H 	0.15420 0.57890 0.07120 0.01500
C 	C 	0.20021 0.59460 0.12393 -0.11400
H 	H 	0.20130 0.65910 0.12210 0.09400
C 	C 	0.22685 0.54800 0.15663 0.05400
C 	C 	0.22382 0.45370 0.15785 -0.12200
H 	H 	0.24190 0.41940 0.17970 0.10100
C 	C 	0.19450 0.41070 0.12724 0.07500
H 	H 	0.19240 0.34620 0.12850 0.00700
C 	C 	0.25736 0.59590 0.19093 0.09100
N 	N 	0.26250 0.68510 0.18586 -0.13900
C 	C 	0.29079 0.72230 0.21764 0.10600
N 	N 	0.31406 0.67650 0.25140 -0.13100
C 	C 	0.30543 0.58880 0.25368 0.10300
N 	N 	0.27671 0.54460 0.22468 -0.14100
C 	C 	0.29733 0.82240 0.21762 0.06500
C 	C 	0.27496 0.87950 0.18634 -0.12300
H 	H 	0.25490 0.85550 0.16270 0.08400
C 	C 	0.28187 0.97200 0.18950 0.07600
H 	H 	0.26640 0.01100 0.16760 -0.00400
N 	N 	0.30967 0.00880 0.22250 -0.27100
C 	C 	0.33091 0.95350 0.25230 0.07400
H 	H 	0.35080 0.97910 0.27560 -0.00600
C 	C 	0.32587 0.86120 0.25160 -0.12000
H 	H 	0.34180 0.82410 0.27410 0.08800
C 	C 	0.32887 0.53620 0.29242 0.06100
C 	C 	0.32454 0.44290 0.29624 -0.12200
H 	H 	0.30500 0.41070 0.27510 0.08000
C 	C 	0.34913 0.39740 0.33132 0.07000
H 	H 	0.34620 0.33330 0.33370 0.00100
N 	N 	0.37665 0.43970 0.36178 -0.25700
C 	C 	0.37964 0.53000 0.35912 0.07600
H 	H 	0.39860 0.56090 0.38150 0.00800
C 	C 	0.35615 0.58010 0.32492 -0.11500
H 	H 	0.35890 0.64450 0.32400 0.09700
N 	N 	0.43836 0.46350 0.45454 -0.25700
C 	C 	0.46446 0.52800 0.44789 0.06600
H 	H 	0.47890 0.51960 0.42440 0.00500
C 	C 	0.47102 0.60570 0.47389 -0.10500
H 	H 	0.48950 0.65040 0.46820 0.07700
C 	C 	0.45025 0.61790 0.50869 0.04900
C 	C 	0.42491 0.54860 0.51694 -0.10700
H 	H 	0.41140 0.55280 0.54150 0.08400
C 	C 	0.41973 0.47360 0.48869 0.06600
H 	H 	0.40200 0.42700 0.49400 0.00300
C 	C 	0.45429 0.70210 0.53594 0.10300
N 	N 	0.48162 0.76280 0.52929 -0.14700
C 	C 	0.48543 0.83460 0.55689 0.09800
N 	N 	0.46364 0.85070 0.58793 -0.13100
C 	C 	0.43552 0.78860 0.58979 0.11300
N 	N 	0.43018 0.71150 0.56502 -0.13200
C 	C 	0.51738 0.90150 0.55371 0.05900
C 	C 	0.53424 0.90590 0.51652 -0.12000
H 	H 	0.52570 0.86580 0.49170 0.08400
C 	C 	0.56378 0.96870 0.51530 0.08400
H 	H 	0.57490 0.97200 0.48890 0.00500
N 	N 	0.57748 0.02520 0.54928 -0.26600
C 	C 	0.56087 0.02040 0.58570 0.08100
H 	H 	0.57020 0.06060 0.61020 -0.01000
C 	C 	0.53115 0.96050 0.58930 -0.12000
H 	H 	0.52010 0.95930 0.61570 0.09000
C 	C 	0.40834 0.80470 0.62129 0.07900
C 	C 	0.37279 0.75900 0.61680 -0.11400
H 	H 	0.36530 0.71530 0.59330 0.09100
C 	C 	0.34792 0.77670 0.64650 0.07800
H 	H 	0.32320 0.74520 0.64270 -0.00200
N 	N 	0.35734 0.83640 0.68029 -0.27700
C 	C 	0.39140 0.88080 0.68410 0.09000
H 	H 	0.39830 0.92390 0.70790 -0.01600
C 	C 	0.41751 0.86780 0.65540 -0.12300
H 	H 	0.44150 0.90210 0.65920 0.09100
Br	Br	0.11440 0.24770 0.07900 -0.20200
Zn	Zn	0.32670 0.14670 0.23240 0.60400
Br	Br	0.36997 0.15860 0.30340 -0.42400
Br	Br	0.27069 0.23930 0.21094 -0.06000
Zn	Zn	0.62536 0.11103 0.54975 1.18900
Br	Br	0.61178 0.24720 0.58460 -0.22700
Br	Br	0.64196 0.09827 0.47930 -0.47200
Zn	Zn	0.81890 0.35360 0.72300 0.61300
Br	Br	0.86030 0.33190 0.79430 -0.03300
Br	Br	0.76100 0.26830 0.69730 -0.40200
Zn	Zn	0.91922 0.13589 0.90574 1.19200
Br	Br	0.88497 0.24482 0.93917 -0.47300
Br	Br	0.97114 0.15721 0.86692 -0.44900
N 	N 	0.66871 0.04380 0.59565 -0.26400
C 	C 	0.67206 0.95360 0.59404 0.08000
H 	H 	0.65420 0.92110 0.57120 0.01500
C 	C 	0.70021 0.90540 0.62393 -0.11400
H 	H 	0.70130 0.84090 0.62210 0.09400
C 	C 	0.72685 0.95200 0.65663 0.05400
C 	C 	0.72382 0.04630 0.65785 -0.12200
H 	H 	0.74190 0.08060 0.67970 0.10100
C 	C 	0.69450 0.08930 0.62724 0.07500
H 	H 	0.69240 0.15380 0.62850 0.00700
C 	C 	0.75736 0.90410 0.69093 0.09100
N 	N 	0.76250 0.81490 0.68586 -0.13900
C 	C 	0.79079 0.77770 0.71764 0.10600
N 	N 	0.81406 0.82350 0.75140 -0.13100
C 	C 	0.80543 0.91120 0.75368 0.10300
N 	N 	0.77671 0.95540 0.72468 -0.14100
C 	C 	0.79733 0.67760 0.71762 0.06500
C 	C 	0.77496 0.62050 0.68634 -0.12300
H 	H 	0.75490 0.64450 0.66270 0.08500
C 	C 	0.78187 0.52800 0.68950 0.07700
H 	H 	0.76640 0.48900 0.66760 -0.00500
N 	N 	0.80967 0.49120 0.72250 -0.27200
C 	C 	0.83091 0.54650 0.75230 0.07500
H 	H 	0.85080 0.52090 0.77560 -0.00600
C 	C 	0.82587 0.63880 0.75160 -0.12000
H 	H 	0.84180 0.67590 0.77410 0.08800
C 	C 	0.82887 0.96380 0.79242 0.06200
C 	C 	0.82454 0.05710 0.79624 -0.12200
H 	H 	0.80500 0.08930 0.77510 0.08000
C 	C 	0.84913 0.10260 0.83132 0.07100
H 	H 	0.84620 0.16670 0.83370 0.00100
N 	N 	0.87665 0.06030 0.86178 -0.25700
C 	C 	0.87964 0.97000 0.85912 0.07600
H 	H 	0.89860 0.93910 0.88150 0.00800
C 	C 	0.85615 0.91990 0.82492 -0.11600
H 	H 	0.85890 0.85550 0.82400 0.09700
N 	N 	0.93836 0.03650 0.95454 -0.25800
C 	C 	0.96446 0.97200 0.94789 0.06600
H 	H 	0.97890 0.98040 0.92440 0.00500
C 	C 	0.97102 0.89430 0.97389 -0.10500
H 	H 	0.98950 0.84960 0.96820 0.07700
C 	C 	0.95025 0.88210 0.00869 0.04900
C 	C 	0.92491 0.95140 0.01694 -0.10700
H 	H 	0.91140 0.94720 0.04150 0.08300
C 	C 	0.91973 0.02640 0.98869 0.06600
H 	H 	0.90200 0.07300 0.99400 0.00300
C 	C 	0.95429 0.79790 0.03594 0.10300
N 	N 	0.98162 0.73720 0.02929 -0.14700
C 	C 	0.98543 0.66540 0.05689 0.09800
N 	N 	0.96364 0.64930 0.08793 -0.13100
C 	C 	0.93552 0.71140 0.08979 0.11300
N 	N 	0.93018 0.78850 0.06502 -0.13200
C 	C 	0.01738 0.59850 0.05371 0.05900
C 	C 	0.03424 0.59410 0.01652 -0.12100
H 	H 	0.02570 0.63420 0.99170 0.08400
C 	C 	0.06378 0.53130 0.01530 0.08400
H 	H 	0.07490 0.52800 0.98890 0.00500
N 	N 	0.07748 0.47480 0.04928 -0.26600
C 	C 	0.06087 0.47960 0.08570 0.08100
H 	H 	0.07020 0.43940 0.11020 -0.01000
C 	C 	0.03115 0.53950 0.08930 -0.12000
H 	H 	0.02010 0.54070 0.11570 0.09000
C 	C 	0.90834 0.69530 0.12129 0.07900
C 	C 	0.87279 0.74100 0.11680 -0.11400
H 	H 	0.86530 0.78470 0.09330 0.09100
C 	C 	0.84792 0.72330 0.14650 0.07800
H 	H 	0.82320 0.75480 0.14270 -0.00200
N 	N 	0.85734 0.66360 0.18029 -0.27700
C 	C 	0.89140 0.61920 0.18410 0.09000
H 	H 	0.89830 0.57610 0.20790 -0.01600
C 	C 	0.91751 0.63220 0.15540 -0.12300
H 	H 	0.94150 0.59790 0.15920 0.09100
Br	Br	0.61440 0.25230 0.57900 -0.20200
Zn	Zn	0.82670 0.35330 0.73240 0.60400
Br	Br	0.86997 0.34140 0.80340 -0.42500
Br	Br	0.77069 0.26070 0.71094 -0.06000
Zn	Zn	0.12536 0.61103 0.54975 1.18900
Br	Br	0.11178 0.74720 0.58460 -0.22700
Br	Br	0.14196 0.59827 0.47930 -0.47200
Zn	Zn	0.31890 0.85360 0.72300 0.61300
Br	Br	0.36030 0.83190 0.79430 -0.03300
Br	Br	0.26100 0.76830 0.69730 -0.40200
Zn	Zn	0.41922 0.63589 0.90574 1.19200
Br	Br	0.38497 0.74482 0.93917 -0.47200
Br	Br	0.47114 0.65721 0.86692 -0.44900
N 	N 	0.16871 0.54380 0.59565 -0.26400
C 	C 	0.17206 0.45360 0.59404 0.07900
H 	H 	0.15420 0.42110 0.57120 0.01500
C 	C 	0.20021 0.40540 0.62393 -0.11400
H 	H 	0.20130 0.34090 0.62210 0.09400
C 	C 	0.22685 0.45200 0.65663 0.05400
C 	C 	0.22382 0.54630 0.65785 -0.12200
H 	H 	0.24190 0.58060 0.67970 0.10100
C 	C 	0.19450 0.58930 0.62724 0.07500
H 	H 	0.19240 0.65380 0.62850 0.00700
C 	C 	0.25736 0.40410 0.69093 0.09100
N 	N 	0.26250 0.31490 0.68586 -0.13900
C 	C 	0.29079 0.27770 0.71764 0.10600
N 	N 	0.31406 0.32350 0.75140 -0.13100
C 	C 	0.30543 0.41120 0.75368 0.10300
N 	N 	0.27671 0.45540 0.72468 -0.14100
C 	C 	0.29733 0.17760 0.71762 0.06500
C 	C 	0.27496 0.12050 0.68634 -0.12300
H 	H 	0.25490 0.14450 0.66270 0.08400
C 	C 	0.28187 0.02800 0.68950 0.07600
H 	H 	0.26640 0.98900 0.66760 -0.00500
N 	N 	0.30967 0.99120 0.72250 -0.27100
C 	C 	0.33091 0.04650 0.75230 0.07400
H 	H 	0.35080 0.02090 0.77560 -0.00600
C 	C 	0.32587 0.13880 0.75160 -0.12000
H 	H 	0.34180 0.17590 0.77410 0.08800
C 	C 	0.32887 0.46380 0.79242 0.06100
C 	C 	0.32454 0.55710 0.79624 -0.12200
H 	H 	0.30500 0.58930 0.77510 0.08000
C 	C 	0.34913 0.60260 0.83132 0.07000
H 	H 	0.34620 0.66670 0.83370 0.00100
N 	N 	0.37665 0.56030 0.86178 -0.25700
C 	C 	0.37964 0.47000 0.85912 0.07600
H 	H 	0.39860 0.43910 0.88150 0.00800
C 	C 	0.35615 0.41990 0.82492 -0.11500
H 	H 	0.35890 0.35550 0.82400 0.09700
N 	N 	0.43836 0.53650 0.95454 -0.25700
C 	C 	0.46446 0.47200 0.94789 0.06600
H 	H 	0.47890 0.48040 0.92440 0.00500
C 	C 	0.47102 0.39430 0.97389 -0.10500
H 	H 	0.48950 0.34960 0.96820 0.07700
C 	C 	0.45025 0.38210 0.00869 0.04900
C 	C 	0.42491 0.45140 0.01694 -0.10700
H 	H 	0.41140 0.44720 0.04150 0.08400
C 	C 	0.41973 0.52640 0.98869 0.06600
H 	H 	0.40200 0.57300 0.99400 0.00300
C 	C 	0.45429 0.29790 0.03594 0.10300
N 	N 	0.48162 0.23720 0.02929 -0.14700
C 	C 	0.48543 0.16540 0.05689 0.09800
N 	N 	0.46364 0.14930 0.08793 -0.13100
C 	C 	0.43552 0.21140 0.08979 0.11300
N 	N 	0.43018 0.28850 0.06502 -0.13200
C 	C 	0.51738 0.09850 0.05371 0.05900
C 	C 	0.53424 0.09410 0.01652 -0.12000
H 	H 	0.52570 0.13420 0.99170 0.08300
C 	C 	0.56378 0.03130 0.01530 0.08500
H 	H 	0.57490 0.02800 0.98890 0.00400
N 	N 	0.57748 0.97480 0.04928 -0.26600
C 	C 	0.56087 0.97960 0.08570 0.08100
H 	H 	0.57020 0.93940 0.11020 -0.01000
C 	C 	0.53115 0.03950 0.08930 -0.11900
H 	H 	0.52010 0.04070 0.11570 0.09000
C 	C 	0.40834 0.19530 0.12129 0.07900
C 	C 	0.37279 0.24100 0.11680 -0.11400
H 	H 	0.36530 0.28470 0.09330 0.09100
C 	C 	0.34792 0.22330 0.14650 0.07800
H 	H 	0.32320 0.25480 0.14270 -0.00200
N 	N 	0.35734 0.16360 0.18029 -0.27700
C 	C 	0.39140 0.11920 0.18410 0.09000
H 	H 	0.39830 0.07610 0.20790 -0.01600
C 	C 	0.41751 0.13220 0.15540 -0.12300
H 	H 	0.44150 0.09790 0.15920 0.09100
Br	Br	0.11440 0.75230 0.57900 -0.20200
Zn	Zn	0.32670 0.85330 0.73240 0.60400
Br	Br	0.36997 0.84140 0.80340 -0.42400
Br	Br	0.27069 0.76070 0.71094 -0.06000
