data_crystal

_cell_length_a 35.00630
_cell_length_b 15.09580
_cell_length_c 30.21620
_cell_angle_alpha 90.00000
_cell_angle_beta  102.08800
_cell_angle_gamma 90.00000

_symmetry_space_group_name_	'P 1'
_symmetry_space_group_name_H-M	'P 1'

loop_
_symmetry_equiv_pos_as_xyz
  x,y,z

loop_
_atom_site_label
_atom_site_type_symbol
_atom_site_fract_x
_atom_site_fract_y
_atom_site_fract_z
_atom_site_charge
Zn	Zn	0.37178 0.90828 0.44920 1.16200
I 	I 	0.35327 0.93000 0.52422 -0.38000
I 	I 	0.38350 0.76080 0.41850 -0.11900
Zn	Zn	0.17360 0.64140 0.27240 0.62100
I 	I 	0.12869 0.66270 0.19539 -0.32500
I 	I 	0.23283 0.73980 0.29605 -0.05600
Zn	Zn	0.08051 0.88034 0.09369 1.16400
I 	I 	0.11580 0.76599 0.05670 -0.38200
I 	I 	0.02662 0.85478 0.13634 -0.35700
N 	N 	0.32926 0.97170 0.40280 -0.28000
C 	C 	0.32350 0.05750 0.40610 0.07900
H 	H 	0.33940 0.08890 0.43040 -0.00300
C 	C 	0.29560 0.10430 0.37630 -0.12500
H 	H 	0.29340 0.16660 0.37950 0.08600
C 	C 	0.27100 0.06040 0.34200 0.05000
C 	C 	0.27620 0.97010 0.33880 -0.12700
H 	H 	0.26000 0.93680 0.31550 0.08800
C 	C 	0.30520 0.92890 0.37020 0.07300
H 	H 	0.30800 0.86650 0.36830 -0.00900
C 	C 	0.24000 0.10680 0.30920 0.08900
N 	N 	0.23472 0.19200 0.31410 -0.14300
C 	C 	0.20650 0.22810 0.28300 0.09600
N 	N 	0.18314 0.18390 0.24910 -0.13400
C 	C 	0.19200 0.09800 0.24690 0.09500
N 	N 	0.22108 0.05660 0.27500 -0.14400
C 	C 	0.19970 0.32570 0.28350 0.06400
C 	C 	0.22240 0.38120 0.31460 -0.13400
H 	H 	0.24230 0.35800 0.33800 0.08200
C 	C 	0.21560 0.47090 0.31100 0.08200
H 	H 	0.23180 0.50910 0.33190 -0.01800
N 	N 	0.18770 0.50670 0.28000 -0.27700
C 	C 	0.16580 0.45280 0.25010 0.07100
H 	H 	0.14560 0.47760 0.22750 -0.01700
C 	C 	0.17140 0.36340 0.25070 -0.12800
H 	H 	0.15570 0.32720 0.22830 0.08400
C 	C 	0.16890 0.04720 0.20840 0.06300
C 	C 	0.17530 0.95800 0.20170 -0.13200
H 	H 	0.19600 0.92750 0.22090 0.07800
C 	C 	0.15100 0.91420 0.16650 0.07600
H 	H 	0.15540 0.85300 0.16230 -0.01700
N 	N 	0.12197 0.95320 0.13860 -0.27500
C 	C 	0.11660 0.03830 0.14470 0.08500
H 	H 	0.09570 0.06710 0.12480 -0.00900
C 	C 	0.13950 0.08780 0.17810 -0.13000
H 	H 	0.13510 0.14960 0.18020 0.09400
N 	N 	0.06208 0.97840 0.04570 -0.27200
C 	C 	0.03490 0.03840 0.05000 0.07300
H 	H 	0.01960 0.02870 0.07200 -0.00900
C 	C 	0.02840 0.11330 0.02390 -0.12400
H 	H 	0.00920 0.15500 0.02850 0.07500
C 	C 	0.04944 0.12790 0.99140 0.05500
C 	C 	0.07580 0.06400 0.98520 -0.12200
H 	H 	0.09010 0.07040 0.96190 0.08200
C 	C 	0.08140 0.99150 0.01260 0.06900
H 	H 	0.09990 0.94830 0.00790 -0.01100
C 	C 	0.04525 0.21030 0.96440 0.08800
N 	N 	0.01792 0.26800 0.97050 -0.14700
C 	C 	0.01408 0.33810 0.94230 0.08700
N 	N 	0.03515 0.35450 0.91160 -0.13600
C 	C 	0.06330 0.29550 0.91080 0.10000
N 	N 	0.06913 0.22240 0.93560 -0.13700
C 	C 	0.98170 0.40020 0.94480 0.06100
C 	C 	0.96600 0.40540 0.98290 -0.12800
H 	H 	0.97640 0.36980 0.00850 0.08100
C 	C 	0.93580 0.46100 0.98410 0.07900
H 	H 	0.92560 0.46340 0.01090 -0.00600
N 	N 	0.91966 0.51280 0.94900 -0.27900
C 	C 	0.93460 0.50640 0.91270 0.08800
H 	H 	0.92350 0.54200 0.88730 -0.02200
C 	C 	0.96530 0.45160 0.90890 -0.13300
H 	H 	0.97480 0.44980 0.88170 0.08800
C 	C 	0.09000 0.31200 0.87950 0.07300
C 	C 	0.12380 0.26520 0.88360 -0.11900
H 	H 	0.13000 0.22020 0.90590 0.08200
C 	C 	0.14920 0.28340 0.85530 0.06900
H 	H 	0.17320 0.25200 0.85930 -0.01300
N 	N 	0.14080 0.34420 0.82230 -0.27900
C 	C 	0.10800 0.38910 0.81890 0.09200
H 	H 	0.10180 0.43250 0.79580 -0.02200
C 	C 	0.08260 0.37630 0.84700 -0.13100
H 	H 	0.05990 0.41200 0.84400 0.08800
I 	I 	0.38740 0.76280 0.41000 -0.22100
Zn	Zn	0.17920 0.64170 0.28110 0.52900
I 	I 	0.13860 0.67640 0.20320 -0.04300
I 	I 	0.24140 0.72480 0.31230 -0.30000
Zn	Zn	0.87178 0.40828 0.44920 1.16300
I 	I 	0.85327 0.43000 0.52422 -0.37900
I 	I 	0.88350 0.26080 0.41850 -0.11800
Zn	Zn	0.67360 0.14140 0.27240 0.62200
I 	I 	0.62869 0.16270 0.19539 -0.32400
I 	I 	0.73283 0.23980 0.29605 -0.05500
Zn	Zn	0.58051 0.38034 0.09369 1.16500
I 	I 	0.61580 0.26599 0.05670 -0.38100
I 	I 	0.52662 0.35478 0.13634 -0.35600
N 	N 	0.82926 0.47170 0.40280 -0.27900
C 	C 	0.82350 0.55750 0.40610 0.08000
H 	H 	0.83940 0.58890 0.43040 -0.00200
C 	C 	0.79560 0.60430 0.37630 -0.12400
H 	H 	0.79340 0.66660 0.37950 0.08700
C 	C 	0.77100 0.56040 0.34200 0.05100
C 	C 	0.77620 0.47010 0.33880 -0.12600
H 	H 	0.76000 0.43680 0.31550 0.08900
C 	C 	0.80520 0.42890 0.37020 0.07400
H 	H 	0.80800 0.36650 0.36830 -0.00800
C 	C 	0.74000 0.60680 0.30920 0.09000
N 	N 	0.73472 0.69200 0.31410 -0.14200
C 	C 	0.70650 0.72810 0.28300 0.09700
N 	N 	0.68314 0.68390 0.24910 -0.13300
C 	C 	0.69200 0.59800 0.24690 0.09600
N 	N 	0.72108 0.55660 0.27500 -0.14300
C 	C 	0.69970 0.82570 0.28350 0.06500
C 	C 	0.72240 0.88120 0.31460 -0.13200
H 	H 	0.74230 0.85800 0.33800 0.08300
C 	C 	0.71560 0.97090 0.31100 0.08300
H 	H 	0.73180 0.00910 0.33190 -0.01700
N 	N 	0.68770 0.00670 0.28000 -0.27600
C 	C 	0.66580 0.95280 0.25010 0.07100
H 	H 	0.64560 0.97760 0.22750 -0.01600
C 	C 	0.67140 0.86340 0.25070 -0.12700
H 	H 	0.65570 0.82720 0.22830 0.08500
C 	C 	0.66890 0.54720 0.20840 0.06400
C 	C 	0.67530 0.45800 0.20170 -0.13100
H 	H 	0.69600 0.42750 0.22090 0.07800
C 	C 	0.65100 0.41420 0.16650 0.07600
H 	H 	0.65540 0.35300 0.16230 -0.01700
N 	N 	0.62197 0.45320 0.13860 -0.27400
C 	C 	0.61660 0.53830 0.14470 0.08500
H 	H 	0.59570 0.56710 0.12480 -0.00900
C 	C 	0.63950 0.58780 0.17810 -0.12900
H 	H 	0.63510 0.64960 0.18020 0.09400
N 	N 	0.56208 0.47840 0.04570 -0.27200
C 	C 	0.53490 0.53840 0.05000 0.07300
H 	H 	0.51960 0.52870 0.07200 -0.00900
C 	C 	0.52840 0.61330 0.02390 -0.12400
H 	H 	0.50920 0.65500 0.02850 0.07500
C 	C 	0.54944 0.62790 0.99140 0.05500
C 	C 	0.57580 0.56400 0.98520 -0.12200
H 	H 	0.59010 0.57040 0.96190 0.08200
C 	C 	0.58140 0.49150 0.01260 0.07000
H 	H 	0.59990 0.44830 0.00790 -0.01100
C 	C 	0.54525 0.71030 0.96440 0.08800
N 	N 	0.51792 0.76800 0.97050 -0.14700
C 	C 	0.51408 0.83810 0.94230 0.08700
N 	N 	0.53515 0.85450 0.91160 -0.13600
C 	C 	0.56330 0.79550 0.91080 0.10000
N 	N 	0.56913 0.72240 0.93560 -0.13700
C 	C 	0.48170 0.90020 0.94480 0.06100
C 	C 	0.46600 0.90540 0.98290 -0.12800
H 	H 	0.47640 0.86980 0.00850 0.08100
C 	C 	0.43580 0.96100 0.98410 0.07900
H 	H 	0.42560 0.96340 0.01090 -0.00600
N 	N 	0.41966 0.01280 0.94900 -0.27900
C 	C 	0.43460 0.00640 0.91270 0.08800
H 	H 	0.42350 0.04200 0.88730 -0.02200
C 	C 	0.46530 0.95160 0.90890 -0.13300
H 	H 	0.47480 0.94980 0.88170 0.08800
C 	C 	0.59000 0.81200 0.87950 0.07300
C 	C 	0.62380 0.76520 0.88360 -0.11900
H 	H 	0.63000 0.72020 0.90590 0.08200
C 	C 	0.64920 0.78340 0.85530 0.06900
H 	H 	0.67320 0.75200 0.85930 -0.01300
N 	N 	0.64080 0.84420 0.82230 -0.27900
C 	C 	0.60800 0.88910 0.81890 0.09200
H 	H 	0.60180 0.93250 0.79580 -0.02200
C 	C 	0.58260 0.87630 0.84700 -0.13100
H 	H 	0.55990 0.91200 0.84400 0.08800
I 	I 	0.88740 0.26280 0.41000 -0.22100
Zn	Zn	0.67920 0.14170 0.28110 0.52900
I 	I 	0.63860 0.17640 0.20320 -0.04300
I 	I 	0.74140 0.22480 0.31230 -0.30000
Zn	Zn	0.37178 0.09172 0.94920 1.16300
I 	I 	0.35327 0.07000 0.02422 -0.37900
I 	I 	0.38350 0.23920 0.91850 -0.11800
Zn	Zn	0.17360 0.35860 0.77240 0.62200
I 	I 	0.12869 0.33730 0.69539 -0.32400
I 	I 	0.23283 0.26020 0.79605 -0.05500
Zn	Zn	0.08051 0.11966 0.59369 1.16500
I 	I 	0.11580 0.23401 0.55670 -0.38100
I 	I 	0.02662 0.14522 0.63634 -0.35600
N 	N 	0.32926 0.02830 0.90280 -0.27900
C 	C 	0.32350 0.94250 0.90610 0.08000
H 	H 	0.33940 0.91110 0.93040 -0.00200
C 	C 	0.29560 0.89570 0.87630 -0.12400
H 	H 	0.29340 0.83340 0.87950 0.08700
C 	C 	0.27100 0.93960 0.84200 0.05100
C 	C 	0.27620 0.02990 0.83880 -0.12600
H 	H 	0.26000 0.06320 0.81550 0.08900
C 	C 	0.30520 0.07110 0.87020 0.07400
H 	H 	0.30800 0.13350 0.86830 -0.00800
C 	C 	0.24000 0.89320 0.80920 0.09000
N 	N 	0.23472 0.80800 0.81410 -0.14200
C 	C 	0.20650 0.77190 0.78300 0.09700
N 	N 	0.18314 0.81610 0.74910 -0.13300
C 	C 	0.19200 0.90200 0.74690 0.09600
N 	N 	0.22108 0.94340 0.77500 -0.14300
C 	C 	0.19970 0.67430 0.78350 0.06500
C 	C 	0.22240 0.61880 0.81460 -0.13300
H 	H 	0.24230 0.64200 0.83800 0.08300
C 	C 	0.21560 0.52910 0.81100 0.08300
H 	H 	0.23180 0.49090 0.83190 -0.01700
N 	N 	0.18770 0.49330 0.78000 -0.27600
C 	C 	0.16580 0.54720 0.75010 0.07200
H 	H 	0.14560 0.52240 0.72750 -0.01600
C 	C 	0.17140 0.63660 0.75070 -0.12700
H 	H 	0.15570 0.67280 0.72830 0.08500
C 	C 	0.16890 0.95280 0.70840 0.06400
C 	C 	0.17530 0.04200 0.70170 -0.13200
H 	H 	0.19600 0.07250 0.72090 0.07800
C 	C 	0.15100 0.08580 0.66650 0.07600
H 	H 	0.15540 0.14700 0.66230 -0.01700
N 	N 	0.12197 0.04680 0.63860 -0.27400
C 	C 	0.11660 0.96170 0.64470 0.08500
H 	H 	0.09570 0.93290 0.62480 -0.00900
C 	C 	0.13950 0.91220 0.67810 -0.13000
H 	H 	0.13510 0.85040 0.68020 0.09400
N 	N 	0.06208 0.02160 0.54570 -0.27200
C 	C 	0.03490 0.96160 0.55000 0.07300
H 	H 	0.01960 0.97130 0.57200 -0.00900
C 	C 	0.02840 0.88670 0.52390 -0.12400
H 	H 	0.00920 0.84500 0.52850 0.07500
C 	C 	0.04944 0.87210 0.49140 0.05500
C 	C 	0.07580 0.93600 0.48520 -0.12200
H 	H 	0.09010 0.92960 0.46190 0.08200
C 	C 	0.08140 0.00850 0.51260 0.07000
H 	H 	0.09990 0.05170 0.50790 -0.01100
C 	C 	0.04525 0.78970 0.46440 0.08800
N 	N 	0.01792 0.73200 0.47050 -0.14700
C 	C 	0.01408 0.66190 0.44230 0.08600
N 	N 	0.03515 0.64550 0.41160 -0.13600
C 	C 	0.06330 0.70450 0.41080 0.10000
N 	N 	0.06913 0.77760 0.43560 -0.13700
C 	C 	0.98170 0.59980 0.44480 0.06100
C 	C 	0.96600 0.59460 0.48290 -0.12800
H 	H 	0.97640 0.63020 0.50850 0.08100
C 	C 	0.93580 0.53900 0.48410 0.07900
H 	H 	0.92560 0.53660 0.51090 -0.00600
N 	N 	0.91966 0.48720 0.44900 -0.27900
C 	C 	0.93460 0.49360 0.41270 0.08800
H 	H 	0.92350 0.45800 0.38730 -0.02200
C 	C 	0.96530 0.54840 0.40890 -0.13300
H 	H 	0.97480 0.55020 0.38170 0.08800
C 	C 	0.09000 0.68800 0.37950 0.07300
C 	C 	0.12380 0.73480 0.38360 -0.11900
H 	H 	0.13000 0.77980 0.40590 0.08200
C 	C 	0.14920 0.71660 0.35530 0.06900
H 	H 	0.17320 0.74800 0.35930 -0.01300
N 	N 	0.14080 0.65580 0.32230 -0.27900
C 	C 	0.10800 0.61090 0.31890 0.09200
H 	H 	0.10180 0.56750 0.29580 -0.02200
C 	C 	0.08260 0.62370 0.34700 -0.13100
H 	H 	0.05990 0.58800 0.34400 0.08800
I 	I 	0.38740 0.23720 0.91000 -0.22100
Zn	Zn	0.17920 0.35830 0.78110 0.52900
I 	I 	0.13860 0.32360 0.70320 -0.04300
I 	I 	0.24140 0.27520 0.81230 -0.30000
Zn	Zn	0.87178 0.59172 0.94920 1.16300
I 	I 	0.85327 0.57000 0.02422 -0.37900
I 	I 	0.88350 0.73920 0.91850 -0.11800
Zn	Zn	0.67360 0.85860 0.77240 0.62200
I 	I 	0.62869 0.83730 0.69539 -0.32400
I 	I 	0.73283 0.76020 0.79605 -0.05500
Zn	Zn	0.58051 0.61966 0.59369 1.16500
I 	I 	0.61580 0.73401 0.55670 -0.38100
I 	I 	0.52662 0.64522 0.63634 -0.35600
N 	N 	0.82926 0.52830 0.90280 -0.27900
C 	C 	0.82350 0.44250 0.90610 0.08000
H 	H 	0.83940 0.41110 0.93040 -0.00200
C 	C 	0.79560 0.39570 0.87630 -0.12400
H 	H 	0.79340 0.33340 0.87950 0.08700
C 	C 	0.77100 0.43960 0.84200 0.05100
C 	C 	0.77620 0.52990 0.83880 -0.12600
H 	H 	0.76000 0.56320 0.81550 0.08900
C 	C 	0.80520 0.57110 0.87020 0.07400
H 	H 	0.80800 0.63350 0.86830 -0.00800
C 	C 	0.74000 0.39320 0.80920 0.09000
N 	N 	0.73472 0.30800 0.81410 -0.14200
C 	C 	0.70650 0.27190 0.78300 0.09700
N 	N 	0.68314 0.31610 0.74910 -0.13300
C 	C 	0.69200 0.40200 0.74690 0.09600
N 	N 	0.72108 0.44340 0.77500 -0.14300
C 	C 	0.69970 0.17430 0.78350 0.06500
C 	C 	0.72240 0.11880 0.81460 -0.13200
H 	H 	0.74230 0.14200 0.83800 0.08300
C 	C 	0.71560 0.02910 0.81100 0.08300
H 	H 	0.73180 0.99090 0.83190 -0.01600
N 	N 	0.68770 0.99330 0.78000 -0.27600
C 	C 	0.66580 0.04720 0.75010 0.07100
H 	H 	0.64560 0.02240 0.72750 -0.01600
C 	C 	0.67140 0.13660 0.75070 -0.12700
H 	H 	0.65570 0.17280 0.72830 0.08500
C 	C 	0.66890 0.45280 0.70840 0.06400
C 	C 	0.67530 0.54200 0.70170 -0.13100
H 	H 	0.69600 0.57250 0.72090 0.07800
C 	C 	0.65100 0.58580 0.66650 0.07600
H 	H 	0.65540 0.64700 0.66230 -0.01700
N 	N 	0.62197 0.54680 0.63860 -0.27400
C 	C 	0.61660 0.46170 0.64470 0.08500
H 	H 	0.59570 0.43290 0.62480 -0.00900
C 	C 	0.63950 0.41220 0.67810 -0.12900
H 	H 	0.63510 0.35040 0.68020 0.09400
N 	N 	0.56208 0.52160 0.54570 -0.27200
C 	C 	0.53490 0.46160 0.55000 0.07300
H 	H 	0.51960 0.47130 0.57200 -0.00900
C 	C 	0.52840 0.38670 0.52390 -0.12400
H 	H 	0.50920 0.34500 0.52850 0.07500
C 	C 	0.54944 0.37210 0.49140 0.05500
C 	C 	0.57580 0.43600 0.48520 -0.12200
H 	H 	0.59010 0.42960 0.46190 0.08200
C 	C 	0.58140 0.50850 0.51260 0.07000
H 	H 	0.59990 0.55170 0.50790 -0.01100
C 	C 	0.54525 0.28970 0.46440 0.08800
N 	N 	0.51792 0.23200 0.47050 -0.14700
C 	C 	0.51408 0.16190 0.44230 0.08700
N 	N 	0.53515 0.14550 0.41160 -0.13600
C 	C 	0.56330 0.20450 0.41080 0.10000
N 	N 	0.56913 0.27760 0.43560 -0.13700
C 	C 	0.48170 0.09980 0.44480 0.06100
C 	C 	0.46600 0.09460 0.48290 -0.12800
H 	H 	0.47640 0.13020 0.50850 0.08100
C 	C 	0.43580 0.03900 0.48410 0.07900
H 	H 	0.42560 0.03660 0.51090 -0.00600
N 	N 	0.41966 0.98720 0.44900 -0.27900
C 	C 	0.43460 0.99360 0.41270 0.08800
H 	H 	0.42350 0.95800 0.38730 -0.02200
C 	C 	0.46530 0.04840 0.40890 -0.13300
H 	H 	0.47480 0.05020 0.38170 0.08800
C 	C 	0.59000 0.18800 0.37950 0.07300
C 	C 	0.62380 0.23480 0.38360 -0.11900
H 	H 	0.63000 0.27980 0.40590 0.08200
C 	C 	0.64920 0.21660 0.35530 0.06900
H 	H 	0.67320 0.24800 0.35930 -0.01300
N 	N 	0.64080 0.15580 0.32230 -0.27900
C 	C 	0.60800 0.11090 0.31890 0.09200
H 	H 	0.60180 0.06750 0.29580 -0.02200
C 	C 	0.58260 0.12370 0.34700 -0.13100
H 	H 	0.55990 0.08800 0.34400 0.08800
I 	I 	0.88740 0.73720 0.91000 -0.22100
Zn	Zn	0.67920 0.85830 0.78110 0.52900
I 	I 	0.63860 0.82360 0.70320 -0.04300
I 	I 	0.74140 0.77520 0.81230 -0.30000
Zn	Zn	0.62822 0.90828 0.05080 1.16300
I 	I 	0.64673 0.93000 0.97578 -0.37900
I 	I 	0.61650 0.76080 0.08150 -0.11800
Zn	Zn	0.82640 0.64140 0.22760 0.62200
I 	I 	0.87131 0.66270 0.30461 -0.32400
I 	I 	0.76717 0.73980 0.20395 -0.05500
Zn	Zn	0.91949 0.88034 0.40631 1.16500
I 	I 	0.88420 0.76599 0.44330 -0.38100
I 	I 	0.97338 0.85478 0.36366 -0.35600
N 	N 	0.67074 0.97170 0.09720 -0.27900
C 	C 	0.67650 0.05750 0.09390 0.08000
H 	H 	0.66060 0.08890 0.06960 -0.00200
C 	C 	0.70440 0.10430 0.12370 -0.12400
H 	H 	0.70660 0.16660 0.12050 0.08700
C 	C 	0.72900 0.06040 0.15800 0.05100
C 	C 	0.72380 0.97010 0.16120 -0.12600
H 	H 	0.74000 0.93680 0.18450 0.08900
C 	C 	0.69480 0.92890 0.12980 0.07400
H 	H 	0.69200 0.86650 0.13170 -0.00800
C 	C 	0.76000 0.10680 0.19080 0.09000
N 	N 	0.76528 0.19200 0.18590 -0.14200
C 	C 	0.79350 0.22810 0.21700 0.09700
N 	N 	0.81686 0.18390 0.25090 -0.13300
C 	C 	0.80800 0.09800 0.25310 0.09600
N 	N 	0.77892 0.05660 0.22500 -0.14300
C 	C 	0.80030 0.32570 0.21650 0.06500
C 	C 	0.77760 0.38120 0.18540 -0.13300
H 	H 	0.75770 0.35800 0.16200 0.08300
C 	C 	0.78440 0.47090 0.18900 0.08300
H 	H 	0.76820 0.50910 0.16810 -0.01700
N 	N 	0.81230 0.50670 0.22000 -0.27600
C 	C 	0.83420 0.45280 0.24990 0.07200
H 	H 	0.85440 0.47760 0.27250 -0.01600
C 	C 	0.82860 0.36340 0.24930 -0.12700
H 	H 	0.84430 0.32720 0.27170 0.08500
C 	C 	0.83110 0.04720 0.29160 0.06400
C 	C 	0.82470 0.95800 0.29830 -0.13200
H 	H 	0.80400 0.92750 0.27910 0.07800
C 	C 	0.84900 0.91420 0.33350 0.07600
H 	H 	0.84460 0.85300 0.33770 -0.01700
N 	N 	0.87803 0.95320 0.36140 -0.27400
C 	C 	0.88340 0.03830 0.35530 0.08500
H 	H 	0.90430 0.06710 0.37520 -0.00900
C 	C 	0.86050 0.08780 0.32190 -0.13000
H 	H 	0.86490 0.14960 0.31980 0.09400
N 	N 	0.93792 0.97840 0.45430 -0.27200
C 	C 	0.96510 0.03840 0.45000 0.07300
H 	H 	0.98040 0.02870 0.42800 -0.00900
C 	C 	0.97160 0.11330 0.47610 -0.12400
H 	H 	0.99080 0.15500 0.47150 0.07500
C 	C 	0.95056 0.12790 0.50860 0.05500
C 	C 	0.92420 0.06400 0.51480 -0.12200
H 	H 	0.90990 0.07040 0.53810 0.08200
C 	C 	0.91860 0.99150 0.48740 0.07000
H 	H 	0.90010 0.94830 0.49210 -0.01100
C 	C 	0.95475 0.21030 0.53560 0.08800
N 	N 	0.98208 0.26800 0.52950 -0.14700
C 	C 	0.98592 0.33810 0.55770 0.08600
N 	N 	0.96485 0.35450 0.58840 -0.13600
C 	C 	0.93670 0.29550 0.58920 0.10000
N 	N 	0.93087 0.22240 0.56440 -0.13700
C 	C 	0.01830 0.40020 0.55520 0.06100
C 	C 	0.03400 0.40540 0.51710 -0.12800
H 	H 	0.02360 0.36980 0.49150 0.08100
C 	C 	0.06420 0.46100 0.51590 0.07900
H 	H 	0.07440 0.46340 0.48910 -0.00600
N 	N 	0.08034 0.51280 0.55100 -0.27900
C 	C 	0.06540 0.50640 0.58730 0.08800
H 	H 	0.07650 0.54200 0.61270 -0.02200
C 	C 	0.03470 0.45160 0.59110 -0.13300
H 	H 	0.02520 0.44980 0.61830 0.08800
C 	C 	0.91000 0.31200 0.62050 0.07300
C 	C 	0.87620 0.26520 0.61640 -0.11900
H 	H 	0.87000 0.22020 0.59410 0.08200
C 	C 	0.85080 0.28340 0.64470 0.06900
H 	H 	0.82680 0.25200 0.64070 -0.01300
N 	N 	0.85920 0.34420 0.67770 -0.27900
C 	C 	0.89200 0.38910 0.68110 0.09200
H 	H 	0.89820 0.43250 0.70420 -0.02200
C 	C 	0.91740 0.37630 0.65300 -0.13100
H 	H 	0.94010 0.41200 0.65600 0.08800
I 	I 	0.61260 0.76280 0.09000 -0.22100
Zn	Zn	0.82080 0.64170 0.21890 0.52900
I 	I 	0.86140 0.67640 0.29680 -0.04300
I 	I 	0.75860 0.72480 0.18770 -0.30000
Zn	Zn	0.12822 0.40828 0.05080 1.16300
I 	I 	0.14673 0.43000 0.97578 -0.37900
I 	I 	0.11650 0.26080 0.08150 -0.11800
Zn	Zn	0.32640 0.14140 0.22760 0.62200
I 	I 	0.37131 0.16270 0.30461 -0.32400
I 	I 	0.26717 0.23980 0.20395 -0.05500
Zn	Zn	0.41949 0.38034 0.40631 1.16500
I 	I 	0.38420 0.26599 0.44330 -0.38100
I 	I 	0.47338 0.35478 0.36366 -0.35600
N 	N 	0.17074 0.47170 0.09720 -0.27900
C 	C 	0.17650 0.55750 0.09390 0.08000
H 	H 	0.16060 0.58890 0.06960 -0.00200
C 	C 	0.20440 0.60430 0.12370 -0.12400
H 	H 	0.20660 0.66660 0.12050 0.08700
C 	C 	0.22900 0.56040 0.15800 0.05100
C 	C 	0.22380 0.47010 0.16120 -0.12600
H 	H 	0.24000 0.43680 0.18450 0.08900
C 	C 	0.19480 0.42890 0.12980 0.07400
H 	H 	0.19200 0.36650 0.13170 -0.00800
C 	C 	0.26000 0.60680 0.19080 0.09000
N 	N 	0.26528 0.69200 0.18590 -0.14200
C 	C 	0.29350 0.72810 0.21700 0.09700
N 	N 	0.31686 0.68390 0.25090 -0.13300
C 	C 	0.30800 0.59800 0.25310 0.09600
N 	N 	0.27892 0.55660 0.22500 -0.14300
C 	C 	0.30030 0.82570 0.21650 0.06500
C 	C 	0.27760 0.88120 0.18540 -0.13200
H 	H 	0.25770 0.85800 0.16200 0.08300
C 	C 	0.28440 0.97090 0.18900 0.08300
H 	H 	0.26820 0.00910 0.16810 -0.01600
N 	N 	0.31230 0.00670 0.22000 -0.27600
C 	C 	0.33420 0.95280 0.24990 0.07100
H 	H 	0.35440 0.97760 0.27250 -0.01600
C 	C 	0.32860 0.86340 0.24930 -0.12700
H 	H 	0.34430 0.82720 0.27170 0.08500
C 	C 	0.33110 0.54720 0.29160 0.06400
C 	C 	0.32470 0.45800 0.29830 -0.13100
H 	H 	0.30400 0.42750 0.27910 0.07800
C 	C 	0.34900 0.41420 0.33350 0.07600
H 	H 	0.34460 0.35300 0.33770 -0.01700
N 	N 	0.37803 0.45320 0.36140 -0.27400
C 	C 	0.38340 0.53830 0.35530 0.08500
H 	H 	0.40430 0.56710 0.37520 -0.00900
C 	C 	0.36050 0.58780 0.32190 -0.12900
H 	H 	0.36490 0.64960 0.31980 0.09400
N 	N 	0.43792 0.47840 0.45430 -0.27200
C 	C 	0.46510 0.53840 0.45000 0.07300
H 	H 	0.48040 0.52870 0.42800 -0.00900
C 	C 	0.47160 0.61330 0.47610 -0.12400
H 	H 	0.49080 0.65500 0.47150 0.07500
C 	C 	0.45056 0.62790 0.50860 0.05500
C 	C 	0.42420 0.56400 0.51480 -0.12200
H 	H 	0.40990 0.57040 0.53810 0.08200
C 	C 	0.41860 0.49150 0.48740 0.07000
H 	H 	0.40010 0.44830 0.49210 -0.01100
C 	C 	0.45475 0.71030 0.53560 0.08800
N 	N 	0.48208 0.76800 0.52950 -0.14700
C 	C 	0.48592 0.83810 0.55770 0.08700
N 	N 	0.46485 0.85450 0.58840 -0.13600
C 	C 	0.43670 0.79550 0.58920 0.10000
N 	N 	0.43087 0.72240 0.56440 -0.13700
C 	C 	0.51830 0.90020 0.55520 0.06100
C 	C 	0.53400 0.90540 0.51710 -0.12800
H 	H 	0.52360 0.86980 0.49150 0.08100
C 	C 	0.56420 0.96100 0.51590 0.07900
H 	H 	0.57440 0.96340 0.48910 -0.00600
N 	N 	0.58034 0.01280 0.55100 -0.27900
C 	C 	0.56540 0.00640 0.58730 0.08800
H 	H 	0.57650 0.04200 0.61270 -0.02200
C 	C 	0.53470 0.95160 0.59110 -0.13300
H 	H 	0.52520 0.94980 0.61830 0.08800
C 	C 	0.41000 0.81200 0.62050 0.07300
C 	C 	0.37620 0.76520 0.61640 -0.11900
H 	H 	0.37000 0.72020 0.59410 0.08200
C 	C 	0.35080 0.78340 0.64470 0.06900
H 	H 	0.32680 0.75200 0.64070 -0.01300
N 	N 	0.35920 0.84420 0.67770 -0.27900
C 	C 	0.39200 0.88910 0.68110 0.09200
H 	H 	0.39820 0.93250 0.70420 -0.02200
C 	C 	0.41740 0.87630 0.65300 -0.13100
H 	H 	0.44010 0.91200 0.65600 0.08800
I 	I 	0.11260 0.26280 0.09000 -0.22100
Zn	Zn	0.32080 0.14170 0.21890 0.52900
I 	I 	0.36140 0.17640 0.29680 -0.04300
I 	I 	0.25860 0.22480 0.18770 -0.30000
Zn	Zn	0.62822 0.09172 0.55080 1.16300
I 	I 	0.64673 0.07000 0.47578 -0.37900
I 	I 	0.61650 0.23920 0.58150 -0.11800
Zn	Zn	0.82640 0.35860 0.72760 0.62200
I 	I 	0.87131 0.33730 0.80461 -0.32400
I 	I 	0.76717 0.26020 0.70395 -0.05500
Zn	Zn	0.91949 0.11966 0.90631 1.16500
I 	I 	0.88420 0.23401 0.94330 -0.38100
I 	I 	0.97338 0.14522 0.86366 -0.35600
N 	N 	0.67074 0.02830 0.59720 -0.27900
C 	C 	0.67650 0.94250 0.59390 0.08000
H 	H 	0.66060 0.91110 0.56960 -0.00200
C 	C 	0.70440 0.89570 0.62370 -0.12400
H 	H 	0.70660 0.83340 0.62050 0.08700
C 	C 	0.72900 0.93960 0.65800 0.05100
C 	C 	0.72380 0.02990 0.66120 -0.12600
H 	H 	0.74000 0.06320 0.68450 0.08900
C 	C 	0.69480 0.07110 0.62980 0.07400
H 	H 	0.69200 0.13350 0.63170 -0.00800
C 	C 	0.76000 0.89320 0.69080 0.09000
N 	N 	0.76528 0.80800 0.68590 -0.14200
C 	C 	0.79350 0.77190 0.71700 0.09700
N 	N 	0.81686 0.81610 0.75090 -0.13300
C 	C 	0.80800 0.90200 0.75310 0.09600
N 	N 	0.77892 0.94340 0.72500 -0.14300
C 	C 	0.80030 0.67430 0.71650 0.06500
C 	C 	0.77760 0.61880 0.68540 -0.13300
H 	H 	0.75770 0.64200 0.66200 0.08300
C 	C 	0.78440 0.52910 0.68900 0.08300
H 	H 	0.76820 0.49090 0.66810 -0.01700
N 	N 	0.81230 0.49330 0.72000 -0.27600
C 	C 	0.83420 0.54720 0.74990 0.07200
H 	H 	0.85440 0.52240 0.77250 -0.01600
C 	C 	0.82860 0.63660 0.74930 -0.12700
H 	H 	0.84430 0.67280 0.77170 0.08500
C 	C 	0.83110 0.95280 0.79160 0.06400
C 	C 	0.82470 0.04200 0.79830 -0.13200
H 	H 	0.80400 0.07250 0.77910 0.07800
C 	C 	0.84900 0.08580 0.83350 0.07600
H 	H 	0.84460 0.14700 0.83770 -0.01700
N 	N 	0.87803 0.04680 0.86140 -0.27500
C 	C 	0.88340 0.96170 0.85530 0.08500
H 	H 	0.90430 0.93290 0.87520 -0.00900
C 	C 	0.86050 0.91220 0.82190 -0.13000
H 	H 	0.86490 0.85040 0.81980 0.09400
N 	N 	0.93792 0.02160 0.95430 -0.27200
C 	C 	0.96510 0.96160 0.95000 0.07300
H 	H 	0.98040 0.97130 0.92800 -0.00900
C 	C 	0.97160 0.88670 0.97610 -0.12400
H 	H 	0.99080 0.84500 0.97150 0.07500
C 	C 	0.95056 0.87210 0.00860 0.05500
C 	C 	0.92420 0.93600 0.01480 -0.12200
H 	H 	0.90990 0.92960 0.03810 0.08200
C 	C 	0.91860 0.00850 0.98740 0.06900
H 	H 	0.90010 0.05170 0.99210 -0.01100
C 	C 	0.95475 0.78970 0.03560 0.08800
N 	N 	0.98208 0.73200 0.02950 -0.14700
C 	C 	0.98592 0.66190 0.05770 0.08700
N 	N 	0.96485 0.64550 0.08840 -0.13600
C 	C 	0.93670 0.70450 0.08920 0.10000
N 	N 	0.93087 0.77760 0.06440 -0.13700
C 	C 	0.01830 0.59980 0.05520 0.06100
C 	C 	0.03400 0.59460 0.01710 -0.12800
H 	H 	0.02360 0.63020 0.99150 0.08100
C 	C 	0.06420 0.53900 0.01590 0.07900
H 	H 	0.07440 0.53660 0.98910 -0.00600
N 	N 	0.08034 0.48720 0.05100 -0.27900
C 	C 	0.06540 0.49360 0.08730 0.08800
H 	H 	0.07650 0.45800 0.11270 -0.02200
C 	C 	0.03470 0.54840 0.09110 -0.13300
H 	H 	0.02520 0.55020 0.11830 0.08800
C 	C 	0.91000 0.68800 0.12050 0.07300
C 	C 	0.87620 0.73480 0.11640 -0.11900
H 	H 	0.87000 0.77980 0.09410 0.08200
C 	C 	0.85080 0.71660 0.14470 0.06900
H 	H 	0.82680 0.74800 0.14070 -0.01300
N 	N 	0.85920 0.65580 0.17770 -0.27900
C 	C 	0.89200 0.61090 0.18110 0.09200
H 	H 	0.89820 0.56750 0.20420 -0.02200
C 	C 	0.91740 0.62370 0.15300 -0.13100
H 	H 	0.94010 0.58800 0.15600 0.08800
I 	I 	0.61260 0.23720 0.59000 -0.22100
Zn	Zn	0.82080 0.35830 0.71890 0.52900
I 	I 	0.86140 0.32360 0.79680 -0.04300
I 	I 	0.75860 0.27520 0.68770 -0.30000
Zn	Zn	0.12822 0.59172 0.55080 1.16300
I 	I 	0.14673 0.57000 0.47578 -0.37900
I 	I 	0.11650 0.73920 0.58150 -0.11800
Zn	Zn	0.32640 0.85860 0.72760 0.62200
I 	I 	0.37131 0.83730 0.80461 -0.32400
I 	I 	0.26717 0.76020 0.70395 -0.05500
Zn	Zn	0.41949 0.61966 0.90631 1.16500
I 	I 	0.38420 0.73401 0.94330 -0.38100
I 	I 	0.47338 0.64522 0.86366 -0.35600
N 	N 	0.17074 0.52830 0.59720 -0.27900
C 	C 	0.17650 0.44250 0.59390 0.08000
H 	H 	0.16060 0.41110 0.56960 -0.00200
C 	C 	0.20440 0.39570 0.62370 -0.12400
H 	H 	0.20660 0.33340 0.62050 0.08700
C 	C 	0.22900 0.43960 0.65800 0.05100
C 	C 	0.22380 0.52990 0.66120 -0.12600
H 	H 	0.24000 0.56320 0.68450 0.08900
C 	C 	0.19480 0.57110 0.62980 0.07400
H 	H 	0.19200 0.63350 0.63170 -0.00800
C 	C 	0.26000 0.39320 0.69080 0.09000
N 	N 	0.26528 0.30800 0.68590 -0.14200
C 	C 	0.29350 0.27190 0.71700 0.09700
N 	N 	0.31686 0.31610 0.75090 -0.13300
C 	C 	0.30800 0.40200 0.75310 0.09600
N 	N 	0.27892 0.44340 0.72500 -0.14300
C 	C 	0.30030 0.17430 0.71650 0.06500
C 	C 	0.27760 0.11880 0.68540 -0.13200
H 	H 	0.25770 0.14200 0.66200 0.08300
C 	C 	0.28440 0.02910 0.68900 0.08300
H 	H 	0.26820 0.99090 0.66810 -0.01700
N 	N 	0.31230 0.99330 0.72000 -0.27600
C 	C 	0.33420 0.04720 0.74990 0.07100
H 	H 	0.35440 0.02240 0.77250 -0.01600
C 	C 	0.32860 0.13660 0.74930 -0.12700
H 	H 	0.34430 0.17280 0.77170 0.08500
C 	C 	0.33110 0.45280 0.79160 0.06400
C 	C 	0.32470 0.54200 0.79830 -0.13100
H 	H 	0.30400 0.57250 0.77910 0.07800
C 	C 	0.34900 0.58580 0.83350 0.07600
H 	H 	0.34460 0.64700 0.83770 -0.01700
N 	N 	0.37803 0.54680 0.86140 -0.27400
C 	C 	0.38340 0.46170 0.85530 0.08500
H 	H 	0.40430 0.43290 0.87520 -0.00900
C 	C 	0.36050 0.41220 0.82190 -0.12900
H 	H 	0.36490 0.35040 0.81980 0.09400
N 	N 	0.43792 0.52160 0.95430 -0.27200
C 	C 	0.46510 0.46160 0.95000 0.07300
H 	H 	0.48040 0.47130 0.92800 -0.00900
C 	C 	0.47160 0.38670 0.97610 -0.12400
H 	H 	0.49080 0.34500 0.97150 0.07500
C 	C 	0.45056 0.37210 0.00860 0.05500
C 	C 	0.42420 0.43600 0.01480 -0.12200
H 	H 	0.40990 0.42960 0.03810 0.08200
C 	C 	0.41860 0.50850 0.98740 0.07000
H 	H 	0.40010 0.55170 0.99210 -0.01100
C 	C 	0.45475 0.28970 0.03560 0.08800
N 	N 	0.48208 0.23200 0.02950 -0.14700
C 	C 	0.48592 0.16190 0.05770 0.08700
N 	N 	0.46485 0.14550 0.08840 -0.13600
C 	C 	0.43670 0.20450 0.08920 0.10000
N 	N 	0.43087 0.27760 0.06440 -0.13700
C 	C 	0.51830 0.09980 0.05520 0.06100
C 	C 	0.53400 0.09460 0.01710 -0.12800
H 	H 	0.52360 0.13020 0.99150 0.08100
C 	C 	0.56420 0.03900 0.01590 0.07900
H 	H 	0.57440 0.03660 0.98910 -0.00600
N 	N 	0.58034 0.98720 0.05100 -0.27900
C 	C 	0.56540 0.99360 0.08730 0.08800
H 	H 	0.57650 0.95800 0.11270 -0.02200
C 	C 	0.53470 0.04840 0.09110 -0.13300
H 	H 	0.52520 0.05020 0.11830 0.08800
C 	C 	0.41000 0.18800 0.12050 0.07300
C 	C 	0.37620 0.23480 0.11640 -0.11900
H 	H 	0.37000 0.27980 0.09410 0.08200
C 	C 	0.35080 0.21660 0.14470 0.06900
H 	H 	0.32680 0.24800 0.14070 -0.01300
N 	N 	0.35920 0.15580 0.17770 -0.27900
C 	C 	0.39200 0.11090 0.18110 0.09200
H 	H 	0.39820 0.06750 0.20420 -0.02200
C 	C 	0.41740 0.12370 0.15300 -0.13100
H 	H 	0.44010 0.08800 0.15600 0.08800
I 	I 	0.11260 0.73720 0.59000 -0.22100
Zn	Zn	0.32080 0.85830 0.71890 0.52900
I 	I 	0.36140 0.82360 0.79680 -0.04300
I 	I 	0.25860 0.77520 0.68770 -0.30000
