data_crystal

_cell_length_a 6.42320
_cell_length_b 15.49530
_cell_length_c 23.75940
_cell_angle_alpha 90.00000
_cell_angle_beta  90.00000
_cell_angle_gamma 99.74900

_symmetry_space_group_name_	'P 1'
_symmetry_space_group_name_H-M	'P 1'

loop_
_symmetry_equiv_pos_as_xyz
  x,y,z

loop_
_atom_site_label
_atom_site_type_symbol
_atom_site_fract_x
_atom_site_fract_y
_atom_site_fract_z
_atom_site_charge
Cd	Cd	0.73437 0.96983 0.46594 1.24300
Cd	Cd	0.26563 0.53017 0.96594 1.24300
Cd	Cd	0.26563 0.03017 0.53406 1.24200
Cd	Cd	0.73437 0.46983 0.03406 1.24200
H 	H 	0.15950 0.09460 0.32730 0.13300
H 	H 	0.05400 0.36750 0.26690 0.08100
H 	H 	0.59040 0.30040 0.40930 0.02000
H 	H 	0.64070 0.39730 0.27260 0.00900
H 	H 	0.66640 0.54760 0.25770 0.22500
H 	H 	0.99070 0.59370 0.40130 0.20600
H 	H 	0.98400 0.44440 0.41210 -0.00300
H 	H 	0.29700 0.43680 0.22290 0.06700
H 	H 	0.17040 0.39170 0.17120 0.08200
H 	H 	0.43540 0.49960 0.13750 0.06500
H 	H 	0.60690 0.46050 0.17150 0.06100
H 	H 	0.68980 0.31850 0.14330 0.09000
H 	H 	0.57910 0.27190 0.08990 0.08200
H 	H 	0.25520 0.24890 0.13690 0.10100
H 	H 	0.42090 0.20580 0.17070 0.13200
H 	H 	0.50630 0.40760 0.06730 -0.02800
H 	H 	0.84050 0.40540 0.82730 0.13200
H 	H 	0.94600 0.13250 0.76690 0.08000
H 	H 	0.40960 0.19960 0.90930 0.02000
H 	H 	0.35930 0.10270 0.77260 0.01200
H 	H 	0.33360 0.95240 0.75770 0.22200
H 	H 	0.00930 0.90630 0.90130 0.20300
H 	H 	0.01600 0.05560 0.91210 -0.00100
H 	H 	0.70300 0.06320 0.72290 0.06700
H 	H 	0.82960 0.10830 0.67120 0.08200
H 	H 	0.56460 0.00040 0.63750 0.06500
H 	H 	0.39310 0.03950 0.67150 0.06100
H 	H 	0.31020 0.18150 0.64330 0.08900
H 	H 	0.42090 0.22810 0.58990 0.08100
H 	H 	0.74480 0.25110 0.63690 0.10200
H 	H 	0.57910 0.29420 0.67070 0.13200
H 	H 	0.49370 0.09240 0.56730 -0.02800
H 	H 	0.84050 0.90540 0.67270 0.13300
H 	H 	0.94600 0.63250 0.73310 0.08100
H 	H 	0.40960 0.69960 0.59070 0.02000
H 	H 	0.35930 0.60270 0.72740 0.00900
H 	H 	0.33360 0.45240 0.74230 0.22500
H 	H 	0.00930 0.40630 0.59870 0.20600
H 	H 	0.01600 0.55560 0.58790 -0.00300
H 	H 	0.70300 0.56320 0.77710 0.06700
H 	H 	0.82960 0.60830 0.82880 0.08200
H 	H 	0.56460 0.50040 0.86250 0.06500
H 	H 	0.39310 0.53950 0.82850 0.06100
H 	H 	0.31020 0.68150 0.85670 0.09000
H 	H 	0.42090 0.72810 0.91010 0.08200
H 	H 	0.74480 0.75110 0.86310 0.10100
H 	H 	0.57910 0.79420 0.82930 0.13200
H 	H 	0.49370 0.59240 0.93270 -0.02800
H 	H 	0.15950 0.59460 0.17270 0.13200
H 	H 	0.05400 0.86750 0.23310 0.08000
H 	H 	0.59040 0.80040 0.09070 0.02000
H 	H 	0.64070 0.89730 0.22740 0.01200
H 	H 	0.66640 0.04760 0.24230 0.22200
H 	H 	0.99070 0.09370 0.09870 0.20300
H 	H 	0.98400 0.94440 0.08790 -0.00100
H 	H 	0.29700 0.93680 0.27710 0.06700
H 	H 	0.17040 0.89170 0.32880 0.08200
H 	H 	0.43540 0.99960 0.36250 0.06500
H 	H 	0.60690 0.96050 0.32850 0.06100
H 	H 	0.68980 0.81850 0.35670 0.08900
H 	H 	0.57910 0.77190 0.41010 0.08100
H 	H 	0.25520 0.74890 0.36310 0.10200
H 	H 	0.42090 0.70580 0.32930 0.13200
H 	H 	0.50630 0.90760 0.43270 -0.02800
C 	C 	0.53430 0.15190 0.45373 0.38500
C 	C 	0.68820 0.18607 0.40818 -0.19900
C 	C 	0.84180 0.13972 0.38352 0.24500
C 	C 	0.97710 0.18740 0.34083 -0.01900
C 	C 	0.13710 0.14970 0.31583 -0.18200
C 	C 	0.26030 0.19340 0.27483 0.33000
C 	C 	0.22860 0.27440 0.25260 0.00700
C 	C 	0.07700 0.31280 0.27907 -0.08700
C 	C 	0.95610 0.27189 0.32381 0.10900
C 	C 	0.68560 0.27050 0.39150 0.12500
C 	C 	0.81130 0.40671 0.34374 -0.05300
C 	C 	0.82510 0.58140 0.33000 0.54900
C 	C 	0.71410 0.43690 0.29800 0.13500
C 	C 	0.72480 0.52610 0.28950 -0.37800
C 	C 	0.92200 0.55410 0.37520 -0.39700
C 	C 	0.91590 0.46500 0.38160 0.15000
C 	C 	0.30600 0.40010 0.19017 -0.06600
C 	C 	0.47570 0.44550 0.15070 -0.06400
C 	C 	0.55910 0.30840 0.12199 -0.06400
C 	C 	0.38510 0.26110 0.15848 -0.08000
C 	C 	0.46570 0.34810 0.95373 0.38500
C 	C 	0.31180 0.31393 0.90818 -0.19900
C 	C 	0.15820 0.36028 0.88352 0.24600
C 	C 	0.02290 0.31260 0.84083 -0.02200
C 	C 	0.86290 0.35030 0.81583 -0.17800
C 	C 	0.73970 0.30660 0.77483 0.33000
C 	C 	0.77140 0.22560 0.75260 0.00700
C 	C 	0.92300 0.18720 0.77907 -0.08400
C 	C 	0.04390 0.22811 0.82381 0.10700
C 	C 	0.31440 0.22950 0.89150 0.12500
C 	C 	0.18870 0.09329 0.84374 -0.04800
C 	C 	0.17490 0.91860 0.83000 0.54400
C 	C 	0.28590 0.06310 0.79800 0.12600
C 	C 	0.27520 0.97390 0.78950 -0.37000
C 	C 	0.07800 0.94590 0.87520 -0.38700
C 	C 	0.08410 0.03500 0.88160 0.14000
C 	C 	0.69400 0.09990 0.69017 -0.06700
C 	C 	0.52430 0.05450 0.65070 -0.06400
C 	C 	0.44090 0.19160 0.62199 -0.06300
C 	C 	0.61490 0.23890 0.65848 -0.08100
C 	C 	0.46570 0.84810 0.54627 0.38500
C 	C 	0.31180 0.81393 0.59182 -0.19900
C 	C 	0.15820 0.86028 0.61648 0.24500
C 	C 	0.02290 0.81260 0.65917 -0.01900
C 	C 	0.86290 0.85030 0.68417 -0.18200
C 	C 	0.73970 0.80660 0.72517 0.33000
C 	C 	0.77140 0.72560 0.74740 0.00700
C 	C 	0.92300 0.68720 0.72093 -0.08700
C 	C 	0.04390 0.72811 0.67619 0.10900
C 	C 	0.31440 0.72950 0.60850 0.12500
C 	C 	0.18870 0.59329 0.65626 -0.05300
C 	C 	0.17490 0.41860 0.67000 0.54900
C 	C 	0.28590 0.56310 0.70200 0.13500
C 	C 	0.27520 0.47390 0.71050 -0.37800
C 	C 	0.07800 0.44590 0.62480 -0.39700
C 	C 	0.08410 0.53500 0.61840 0.15000
C 	C 	0.69400 0.59990 0.80983 -0.06600
C 	C 	0.52430 0.55450 0.84930 -0.06400
C 	C 	0.44090 0.69160 0.87801 -0.06400
C 	C 	0.61490 0.73890 0.84152 -0.08000
C 	C 	0.53430 0.65190 0.04627 0.38500
C 	C 	0.68820 0.68607 0.09182 -0.19900
C 	C 	0.84180 0.63972 0.11648 0.24600
C 	C 	0.97710 0.68740 0.15917 -0.02200
C 	C 	0.13710 0.64970 0.18417 -0.17800
C 	C 	0.26030 0.69340 0.22517 0.33000
C 	C 	0.22860 0.77440 0.24740 0.00700
C 	C 	0.07700 0.81280 0.22093 -0.08400
C 	C 	0.95610 0.77189 0.17619 0.10700
C 	C 	0.68560 0.77050 0.10850 0.12500
C 	C 	0.81130 0.90671 0.15626 -0.04800
C 	C 	0.82510 0.08140 0.17000 0.54400
C 	C 	0.71410 0.93690 0.20200 0.12600
C 	C 	0.72480 0.02610 0.21050 -0.37000
C 	C 	0.92200 0.05410 0.12480 -0.38700
C 	C 	0.91590 0.96500 0.11840 0.14000
C 	C 	0.30600 0.90010 0.30983 -0.06700
C 	C 	0.47570 0.94550 0.34930 -0.06400
C 	C 	0.55910 0.80840 0.37801 -0.06300
C 	C 	0.38510 0.76110 0.34152 -0.08100
N 	N 	0.51190 0.39215 0.10195 -0.14200
N 	N 	0.35280 0.31489 0.20839 -0.06500
N 	N 	0.80990 0.31345 0.35134 -0.13100
N 	N 	0.48810 0.10785 0.60195 -0.14300
N 	N 	0.64720 0.18511 0.70839 -0.06500
N 	N 	0.19010 0.18655 0.85134 -0.13200
N 	N 	0.48810 0.60785 0.89805 -0.14200
N 	N 	0.64720 0.68511 0.79161 -0.06500
N 	N 	0.19010 0.68655 0.64866 -0.13100
N 	N 	0.51190 0.89215 0.39805 -0.14300
N 	N 	0.35280 0.81489 0.29161 -0.06500
N 	N 	0.80990 0.81345 0.14866 -0.13200
Cl	Cl	0.05606 0.89828 0.46595 -0.57600
Cl	Cl	0.94394 0.60172 0.96595 -0.57700
Cl	Cl	0.94394 0.10172 0.53405 -0.57600
Cl	Cl	0.05606 0.39828 0.03405 -0.57700
O 	O 	0.48850 0.06842 0.46063 -0.49000
O 	O 	0.45880 0.20436 0.48348 -0.29400
O 	O 	0.86710 0.06357 0.39554 -0.36300
O 	O 	0.51150 0.43158 0.96063 -0.48900
O 	O 	0.54120 0.29564 0.98348 -0.29300
O 	O 	0.13290 0.43643 0.89554 -0.36500
O 	O 	0.51150 0.93158 0.53937 -0.49000
O 	O 	0.54120 0.79564 0.51652 -0.29400
O 	O 	0.13290 0.93643 0.60446 -0.36300
O 	O 	0.48850 0.56842 0.03937 -0.48900
O 	O 	0.45880 0.70436 0.01652 -0.29300
O 	O 	0.86710 0.56357 0.10446 -0.36500
F 	F 	0.42600 0.15673 0.25626 -0.45800
F 	F 	0.83300 0.66844 0.32259 -0.49100
F 	F 	0.57400 0.34327 0.75626 -0.45700
F 	F 	0.16700 0.83156 0.82259 -0.48900
F 	F 	0.57400 0.84327 0.74374 -0.45800
F 	F 	0.16700 0.33156 0.67741 -0.49100
F 	F 	0.42600 0.65673 0.24374 -0.45700
F 	F 	0.83300 0.16844 0.17741 -0.48900
