data_crystal

_cell_length_a 11.06030
_cell_length_b 16.32200
_cell_length_c 19.47230
_cell_angle_alpha 65.76380
_cell_angle_beta  73.50080
_cell_angle_gamma 70.19520

_symmetry_space_group_name_	'P 1'
_symmetry_space_group_name_H-M	'P 1'

loop_
_symmetry_equiv_pos_as_xyz
  x,y,z

loop_
_atom_site_label
_atom_site_type_symbol
_atom_site_fract_x
_atom_site_fract_y
_atom_site_fract_z
_atom_site_charge
Cd	Cd	0.00160 0.40826 0.47476 1.22100
Cd	Cd	0.88462 0.09174 0.02524 1.21800
Cd	Cd	0.99840 0.59174 0.52524 1.22100
Cd	Cd	0.11538 0.90826 0.97476 1.21800
Cd	Cd	0.81846 0.25000 0.75000 1.22300
Cd	Cd	0.18154 0.75000 0.25000 1.22300
H 	H 	0.75040 0.73610 0.69030 0.01500
H 	H 	0.56930 0.45190 0.69610 -0.02900
H 	H 	0.31820 0.57370 0.79250 -0.05300
H 	H 	0.35850 0.49330 0.75970 -0.06500
H 	H 	0.31780 0.43280 0.89220 0.26500
H 	H 	0.46510 0.39330 0.86310 0.26700
H 	H 	0.42430 0.47380 0.89580 0.26800
H 	H 	0.51550 0.85630 0.83730 0.05400
H 	H 	0.36290 0.88670 0.84690 0.03200
H 	H 	0.42060 0.90160 0.94560 0.03800
H 	H 	0.50660 0.79860 0.96840 0.06100
H 	H 	0.40560 0.67100 0.02420 0.05500
H 	H 	0.25310 0.69010 0.03970 0.05700
H 	H 	0.24860 0.74440 0.91040 0.05100
H 	H 	0.34690 0.64570 0.93130 0.04900
H 	H 	0.58500 0.93260 0.55740 0.06700
H 	H 	0.74180 0.84210 0.49330 0.02200
H 	H 	0.49470 0.69020 0.53260 0.02400
H 	H 	0.33910 0.77860 0.59920 0.07700
H 	H 	0.44730 0.95220 0.67360 0.06700
H 	H 	0.28430 0.05690 0.72250 0.03200
H 	H 	0.02880 0.03360 0.62480 0.02500
H 	H 	0.19200 0.92890 0.57590 0.06000
H 	H 	0.17680 0.76390 0.80970 0.01500
H 	H 	0.71730 0.04810 0.80390 -0.03000
H 	H 	0.68440 0.92630 0.70750 -0.05100
H 	H 	0.61150 0.00670 0.74030 -0.06100
H 	H 	0.64280 0.06720 0.60780 0.26200
H 	H 	0.72150 0.10670 0.63690 0.26400
H 	H 	0.79390 0.02620 0.60420 0.26500
H 	H 	0.20910 0.64370 0.66270 0.05400
H 	H 	0.09650 0.61330 0.65310 0.03100
H 	H 	0.26780 0.59840 0.55440 0.04000
H 	H 	0.27360 0.70140 0.53160 0.06200
H 	H 	0.10080 0.82900 0.47580 0.05900
H 	H 	0.98290 0.80990 0.46030 0.06000
H 	H 	0.90340 0.75560 0.58960 0.04900
H 	H 	0.92390 0.85430 0.56870 0.04700
H 	H 	0.07500 0.56740 0.94260 0.06300
H 	H 	0.07720 0.65790 0.00670 0.03700
H 	H 	0.71750 0.80980 0.96740 0.02800
H 	H 	0.71690 0.72140 0.90080 0.07400
H 	H 	0.07310 0.54780 0.82640 0.06100
H 	H 	0.06370 0.44310 0.77750 0.03000
H 	H 	0.68720 0.46640 0.87520 0.02600
H 	H 	0.69680 0.57110 0.92410 0.05900
H 	H 	0.24960 0.26390 0.30970 0.01500
H 	H 	0.43070 0.54810 0.30390 -0.02900
H 	H 	0.68180 0.42630 0.20750 -0.05300
H 	H 	0.64150 0.50670 0.24030 -0.06500
H 	H 	0.68220 0.56720 0.10780 0.26500
H 	H 	0.53490 0.60670 0.13690 0.26700
H 	H 	0.57570 0.52620 0.10420 0.26800
H 	H 	0.48450 0.14370 0.16270 0.05400
H 	H 	0.63710 0.11330 0.15310 0.03200
H 	H 	0.57940 0.09840 0.05440 0.03800
H 	H 	0.49340 0.20140 0.03160 0.06100
H 	H 	0.59440 0.32900 0.97580 0.05500
H 	H 	0.74690 0.30990 0.96030 0.05700
H 	H 	0.75140 0.25560 0.08960 0.05100
H 	H 	0.65310 0.35430 0.06870 0.04900
H 	H 	0.41500 0.06740 0.44260 0.06700
H 	H 	0.25820 0.15790 0.50670 0.02200
H 	H 	0.50530 0.30980 0.46740 0.02400
H 	H 	0.66090 0.22140 0.40080 0.07700
H 	H 	0.55270 0.04780 0.32640 0.06700
H 	H 	0.71570 0.94310 0.27750 0.03200
H 	H 	0.97120 0.96640 0.37520 0.02500
H 	H 	0.80800 0.07110 0.42410 0.06000
H 	H 	0.82320 0.23610 0.19030 0.01500
H 	H 	0.28270 0.95190 0.19610 -0.03000
H 	H 	0.31560 0.07370 0.29250 -0.05100
H 	H 	0.38850 0.99330 0.25970 -0.06100
H 	H 	0.35720 0.93280 0.39220 0.26200
H 	H 	0.27850 0.89330 0.36310 0.26400
H 	H 	0.20610 0.97380 0.39580 0.26500
H 	H 	0.79090 0.35630 0.33730 0.05400
H 	H 	0.90350 0.38670 0.34690 0.03100
H 	H 	0.73220 0.40160 0.44560 0.04000
H 	H 	0.72640 0.29860 0.46840 0.06200
H 	H 	0.89920 0.17100 0.52420 0.05900
H 	H 	0.01710 0.19010 0.53970 0.06000
H 	H 	0.09660 0.24440 0.41040 0.04900
H 	H 	0.07610 0.14570 0.43130 0.04700
H 	H 	0.92500 0.43260 0.05740 0.06300
H 	H 	0.92280 0.34210 0.99330 0.03700
H 	H 	0.28250 0.19020 0.03260 0.02800
H 	H 	0.28310 0.27860 0.09920 0.07400
H 	H 	0.92690 0.45220 0.17360 0.06100
H 	H 	0.93630 0.55690 0.22250 0.03000
H 	H 	0.31280 0.53360 0.12480 0.02600
H 	H 	0.30320 0.42890 0.07590 0.05900
C 	C 	0.78956 0.45659 0.61189 0.44400
C 	C 	0.70899 0.51867 0.65673 -0.28300
C 	C 	0.74758 0.59163 0.66097 0.31000
C 	C 	0.65717 0.63972 0.71084 -0.17400
C 	C 	0.67824 0.71412 0.72042 0.10800
C 	C 	0.50122 0.71745 0.81411 0.16700
C 	C 	0.54238 0.61387 0.75511 0.18300
C 	C 	0.59260 0.49973 0.69933 0.15800
C 	C 	0.38571 0.51869 0.78825 0.30100
C 	C 	0.39949 0.44828 0.86694 -0.79800
C 	C 	0.43623 0.83993 0.86941 -0.05300
C 	C 	0.42787 0.83936 0.94832 -0.08500
C 	C 	0.32674 0.71207 0.00445 -0.07700
C 	C 	0.33162 0.70948 0.92744 -0.06300
C 	C 	0.56623 0.88440 0.55202 -0.11500
C 	C 	0.66008 0.83004 0.51362 0.04200
C 	C 	0.63479 0.75783 0.50485 -0.11800
C 	C 	0.51297 0.73911 0.53735 0.04000
C 	C 	0.41921 0.79275 0.57663 -0.12100
C 	C 	0.44250 0.86714 0.58296 0.04800
C 	C 	0.33787 0.93029 0.61889 0.03700
C 	C 	0.36344 0.96874 0.66338 -0.10200
C 	C 	0.26579 0.03148 0.69294 0.02800
C 	C 	0.13922 0.05645 0.67803 -0.09100
C 	C 	0.11301 0.01755 0.63447 0.02900
C 	C 	0.21097 0.95475 0.60499 -0.10300
C 	C 	0.73543 0.70022 0.46092 0.33900
C 	C 	0.03220 0.12450 0.70950 0.31600
C 	C 	0.85804 0.04341 0.88811 0.44700
C 	C 	0.88439 0.98133 0.84327 -0.28500
C 	C 	0.00018 0.90837 0.83903 0.30800
C 	C 	0.00773 0.86028 0.78916 -0.17800
C 	C 	0.11278 0.78588 0.77958 0.10800
C 	C 	0.03278 0.78255 0.68589 0.16600
C 	C 	0.91136 0.88613 0.74489 0.18700
C 	C 	0.79166 0.00027 0.80067 0.16300
C 	C 	0.69265 0.98131 0.71175 0.29200
C 	C 	0.71471 0.05172 0.63306 -0.78700
C 	C 	0.14557 0.66007 0.63059 -0.05200
C 	C 	0.21555 0.66064 0.55168 -0.08700
C 	C 	0.04326 0.78793 0.49555 -0.09100
C 	C 	0.96854 0.79052 0.57256 -0.05200
C 	C 	0.00265 0.61560 0.94798 -0.10500
C 	C 	0.00374 0.66996 0.98638 0.01200
C 	C 	0.89747 0.74217 0.99515 -0.09700
C 	C 	0.78943 0.76089 0.96265 0.02900
C 	C 	0.78859 0.70725 0.92337 -0.11400
C 	C 	0.89260 0.63286 0.91704 0.04700
C 	C 	0.88705 0.56971 0.88111 0.03400
C 	C 	0.99556 0.53126 0.83662 -0.09100
C 	C 	0.99021 0.46852 0.80706 0.02700
C 	C 	0.87370 0.44355 0.82197 -0.08900
C 	C 	0.76503 0.48245 0.86553 0.02500
C 	C 	0.77071 0.54525 0.89501 -0.09800
C 	C 	0.89657 0.79978 0.03908 0.32500
C 	C 	0.86620 0.37550 0.79050 0.31700
C 	C 	0.21044 0.54341 0.38811 0.44400
C 	C 	0.29101 0.48133 0.34327 -0.28300
C 	C 	0.25242 0.40837 0.33903 0.31000
C 	C 	0.34283 0.36028 0.28916 -0.17400
C 	C 	0.32176 0.28588 0.27958 0.10800
C 	C 	0.49878 0.28255 0.18589 0.16700
C 	C 	0.45762 0.38613 0.24489 0.18300
C 	C 	0.40740 0.50027 0.30067 0.15800
C 	C 	0.61429 0.48131 0.21175 0.30100
C 	C 	0.60051 0.55172 0.13306 -0.79800
C 	C 	0.56377 0.16007 0.13059 -0.05300
C 	C 	0.57213 0.16064 0.05168 -0.08500
C 	C 	0.67326 0.28793 0.99555 -0.07700
C 	C 	0.66838 0.29052 0.07256 -0.06300
C 	C 	0.43377 0.11560 0.44798 -0.11500
C 	C 	0.33992 0.16996 0.48638 0.04200
C 	C 	0.36521 0.24217 0.49515 -0.11800
C 	C 	0.48703 0.26089 0.46265 0.04000
C 	C 	0.58079 0.20725 0.42337 -0.12100
C 	C 	0.55750 0.13286 0.41704 0.04800
C 	C 	0.66213 0.06971 0.38111 0.03700
C 	C 	0.63656 0.03126 0.33662 -0.10200
C 	C 	0.73421 0.96852 0.30706 0.02800
C 	C 	0.86078 0.94355 0.32197 -0.09100
C 	C 	0.88699 0.98245 0.36553 0.02900
C 	C 	0.78903 0.04525 0.39501 -0.10300
C 	C 	0.26457 0.29978 0.53908 0.33900
C 	C 	0.96780 0.87550 0.29050 0.31600
C 	C 	0.14196 0.95659 0.11189 0.44700
C 	C 	0.11561 0.01867 0.15673 -0.28500
C 	C 	0.99982 0.09163 0.16097 0.30800
C 	C 	0.99227 0.13972 0.21084 -0.17800
C 	C 	0.88722 0.21412 0.22042 0.10800
C 	C 	0.96722 0.21745 0.31411 0.16600
C 	C 	0.08864 0.11387 0.25511 0.18700
C 	C 	0.20834 0.99973 0.19933 0.16300
C 	C 	0.30735 0.01869 0.28825 0.29200
C 	C 	0.28529 0.94828 0.36694 -0.78700
C 	C 	0.85443 0.33993 0.36941 -0.05200
C 	C 	0.78445 0.33936 0.44832 -0.08700
C 	C 	0.95674 0.21207 0.50445 -0.09100
C 	C 	0.03146 0.20948 0.42744 -0.05200
C 	C 	0.99735 0.38440 0.05202 -0.10500
C 	C 	0.99626 0.33004 0.01362 0.01200
C 	C 	0.10253 0.25783 0.00485 -0.09700
C 	C 	0.21057 0.23911 0.03735 0.02900
C 	C 	0.21141 0.29275 0.07663 -0.11400
C 	C 	0.10740 0.36714 0.08296 0.04700
C 	C 	0.11295 0.43029 0.11889 0.03400
C 	C 	0.00444 0.46874 0.16338 -0.09100
C 	C 	0.00979 0.53148 0.19294 0.02700
C 	C 	0.12630 0.55645 0.17803 -0.08900
C 	C 	0.23497 0.51755 0.13447 0.02500
C 	C 	0.22929 0.45475 0.10499 -0.09800
C 	C 	0.10343 0.20022 0.96092 0.32500
C 	C 	0.13380 0.62450 0.20950 0.31700
N 	N 	0.31421 0.80732 0.99926 -0.18700
N 	N 	0.43570 0.74923 0.87179 -0.11900
N 	N 	0.60284 0.75483 0.76905 -0.15200
N 	N 	0.46438 0.65164 0.80646 -0.16700
N 	N 	0.50962 0.54554 0.74562 -0.20300
N 	N 	0.12079 0.69268 0.50074 -0.18300
N 	N 	0.05672 0.75077 0.62821 -0.12100
N 	N 	0.12672 0.74517 0.73095 -0.15200
N 	N 	0.92248 0.84836 0.69354 -0.16700
N 	N 	0.80078 0.95446 0.75438 -0.20400
N 	N 	0.68579 0.19268 0.00074 -0.18700
N 	N 	0.56430 0.25077 0.12821 -0.11900
N 	N 	0.39716 0.24517 0.23095 -0.15200
N 	N 	0.53562 0.34836 0.19354 -0.16700
N 	N 	0.49038 0.45446 0.25438 -0.20300
N 	N 	0.87921 0.30732 0.49926 -0.18300
N 	N 	0.94328 0.24923 0.37179 -0.12100
N 	N 	0.87328 0.25483 0.26905 -0.15200
N 	N 	0.07752 0.15164 0.30646 -0.16700
N 	N 	0.19922 0.04554 0.24562 -0.20400
O 	O 	0.76811 0.37924 0.63020 -0.43200
O 	O 	0.87543 0.48609 0.55551 -0.55100
O 	O 	0.85304 0.61440 0.62824 -0.40200
O 	O 	0.85311 0.70160 0.45092 -0.40000
O 	O 	0.69770 0.65528 0.43664 -0.27500
O 	O 	0.92906 0.16067 0.68075 -0.41200
O 	O 	0.04683 0.14150 0.76316 -0.34400
O 	O 	0.77755 0.12076 0.86980 -0.43100
O 	O 	0.91703 0.01391 0.94449 -0.54800
O 	O 	0.09568 0.88560 0.87176 -0.40500
O 	O 	0.00563 0.79840 0.04908 -0.39200
O 	O 	0.78962 0.84472 0.06336 -0.27100
O 	O 	0.77048 0.33933 0.81925 -0.41300
O 	O 	0.95149 0.35850 0.73684 -0.34200
O 	O 	0.23189 0.62076 0.36980 -0.43200
O 	O 	0.12457 0.51391 0.44449 -0.55100
O 	O 	0.14696 0.38560 0.37176 -0.40200
O 	O 	0.14689 0.29840 0.54908 -0.40000
O 	O 	0.30230 0.34472 0.56336 -0.27500
O 	O 	0.07094 0.83933 0.31925 -0.41200
O 	O 	0.95317 0.85850 0.23684 -0.34400
O 	O 	0.22245 0.87924 0.13020 -0.43100
O 	O 	0.08297 0.98609 0.05551 -0.54800
O 	O 	0.90432 0.11440 0.12824 -0.40500
O 	O 	0.99437 0.20160 0.95092 -0.39200
O 	O 	0.21038 0.15528 0.93664 -0.27100
O 	O 	0.22952 0.66067 0.18075 -0.41300
O 	O 	0.04851 0.64150 0.26316 -0.34200
