data_crystal

_cell_length_a 18.89400
_cell_length_b 31.68100
_cell_length_c 13.87600
_cell_angle_alpha 90.00000
_cell_angle_beta  90.00000
_cell_angle_gamma 90.00000

_symmetry_space_group_name_	'P 1'
_symmetry_space_group_name_H-M	'P 1'

loop_
_symmetry_equiv_pos_as_xyz
  x,y,z

loop_
_atom_site_label
_atom_site_type_symbol
_atom_site_fract_x
_atom_site_fract_y
_atom_site_fract_z
_atom_site_charge
O 	O 	0.18920 0.00820 0.44450 -0.30300
Mn	Mn	0.26214 0.91663 0.47499 1.29700
O 	O 	0.22310 0.86010 0.41930 -0.41800
O 	O 	0.33680 0.86100 0.44630 -0.38100
N 	N 	0.25530 0.89920 0.62770 -0.23400
N 	N 	0.32410 0.96030 0.54420 -0.25800
N 	N 	0.30880 0.95120 0.35950 -0.24600
N 	N 	0.54500 0.15110 0.84570 -0.15400
N 	N 	0.57410 0.20020 0.95250 -0.27700
C 	C 	0.29770 0.94480 0.26520 0.08600
H 	H 	0.26930 0.92220 0.24640 -0.01100
C 	C 	0.32560 0.96190 0.64050 0.07400
O 	O 	0.16560 0.94170 0.48610 -0.44800
C 	C 	0.39570 0.02220 0.53640 -0.15100
H 	H 	0.42020 0.04200 0.49980 0.08400
C 	C 	0.36140 0.99340 0.68850 -0.15800
H 	H 	0.36210 0.99390 0.75550 0.09300
C 	C 	0.34970 0.98440 0.38650 0.05600
C 	C 	0.35770 0.98970 0.49150 0.07100
C 	C 	0.40630 0.07610 0.77200 0.05600
H 	H 	0.36320 0.06610 0.79480 0.01000
C 	C 	0.28570 0.92700 0.68800 0.05800
C 	C 	0.39620 0.02440 0.63620 0.11100
C 	C 	0.28090 0.84120 0.42500 0.29400
C 	C 	0.43370 0.05960 0.68710 -0.08000
C 	C 	0.52300 0.17940 0.91020 0.11300
H 	H 	0.47540 0.18400 0.92380 -0.01200
C 	C 	0.22140 0.77190 0.40410 -0.02400
H 	H 	0.17890 0.78640 0.39660 0.06300
C 	C 	0.21600 0.86780 0.66380 0.09200
H 	H 	0.19550 0.84860 0.62160 -0.00300
C 	C 	0.28310 0.79410 0.41490 -0.05600
C 	C 	0.44130 0.10690 0.82350 -0.17100
H 	H 	0.42210 0.11760 0.88020 0.10500
C 	C 	0.50550 0.12170 0.78970 0.15900
C 	C 	0.49630 0.07690 0.65220 0.05300
H 	H 	0.51430 0.06760 0.59350 0.01300
C 	C 	0.32680 0.97040 0.19450 -0.14100
H 	H 	0.31840 0.96530 0.12950 0.09200
C 	C 	0.53200 0.10740 0.70300 -0.17100
H 	H 	0.57410 0.11840 0.67890 0.10500
C 	C 	0.36860 0.00350 0.22370 0.06000
H 	H 	0.38910 0.02120 0.17800 0.01700
C 	C 	0.38030 0.01050 0.32020 -0.12000
H 	H 	0.40880 0.03280 0.34010 0.07300
C 	C 	0.23710 0.89100 0.82260 0.07400
H 	H 	0.23190 0.88800 0.88890 0.00900
C 	C 	0.27690 0.92350 0.78630 -0.13900
H 	H 	0.29770 0.94300 0.82760 0.10000
C 	C 	0.34620 0.77180 0.42350 -0.02600
H 	H 	0.38870 0.78640 0.42930 0.05500
C 	C 	0.20490 0.86300 0.76150 -0.15200
H 	H 	0.17650 0.84140 0.78510 0.09000
C 	C 	0.63280 0.18330 0.91500 -0.00500
H 	H 	0.67870 0.19170 0.92940 0.03100
C 	C 	0.61580 0.15270 0.85300 0.01600
H 	H 	0.64760 0.13540 0.82050 0.02900
C 	C 	0.07110 0.99020 0.48530 -0.06800
C 	C 	0.14860 0.98010 0.46980 0.33000
C 	C 	0.04680 0.03070 0.47000 -0.02400
H 	H 	0.07810 0.05160 0.44980 0.04800
C 	C 	0.02350 0.95960 0.51570 -0.02100
H 	H 	0.03930 0.93220 0.52640 0.05000
O 	O 	0.31080 0.99180 0.94450 -0.30200
Mn	Mn	0.23786 0.08337 0.97499 1.29800
O 	O 	0.27690 0.13990 0.91930 -0.41700
O 	O 	0.16320 0.13900 0.94630 -0.38100
N 	N 	0.24470 0.10080 0.12770 -0.23400
N 	N 	0.17590 0.03970 0.04420 -0.25500
N 	N 	0.19120 0.04880 0.85950 -0.24600
N 	N 	0.95500 0.84890 0.34570 -0.15400
N 	N 	0.92590 0.79980 0.45250 -0.27700
C 	C 	0.20230 0.05520 0.76520 0.08600
H 	H 	0.23070 0.07780 0.74640 -0.01100
C 	C 	0.17440 0.03810 0.14050 0.07400
O 	O 	0.33440 0.05830 0.98610 -0.44900
C 	C 	0.10430 0.97780 0.03640 -0.14100
H 	H 	0.07980 0.95800 0.99980 0.07900
C 	C 	0.13860 0.00660 0.18850 -0.15600
H 	H 	0.13790 0.00610 0.25550 0.09200
C 	C 	0.15030 0.01560 0.88650 0.05800
C 	C 	0.14230 0.01030 0.99150 0.06400
C 	C 	0.09370 0.92390 0.27200 0.05800
H 	H 	0.13680 0.93390 0.29480 0.00900
C 	C 	0.21430 0.07300 0.18800 0.05900
C 	C 	0.10380 0.97560 0.13620 0.10900
C 	C 	0.21910 0.15880 0.92500 0.29400
C 	C 	0.06630 0.94040 0.18710 -0.08300
C 	C 	0.97700 0.82060 0.41020 0.11200
H 	H 	0.02460 0.81600 0.42380 -0.01100
C 	C 	0.27860 0.22810 0.90410 -0.02400
H 	H 	0.32110 0.21360 0.89660 0.06300
C 	C 	0.28400 0.13220 0.16380 0.09200
H 	H 	0.30450 0.15140 0.12160 -0.00300
C 	C 	0.21690 0.20590 0.91490 -0.05700
C 	C 	0.05870 0.89310 0.32350 -0.17200
H 	H 	0.07790 0.88240 0.38020 0.10600
C 	C 	0.99450 0.87830 0.28970 0.16000
C 	C 	0.00370 0.92310 0.15220 0.06200
H 	H 	0.98570 0.93240 0.09350 0.00800
C 	C 	0.17320 0.02960 0.69450 -0.14200
H 	H 	0.18160 0.03470 0.62950 0.09200
C 	C 	0.96800 0.89260 0.20300 -0.17900
H 	H 	0.92590 0.88160 0.17890 0.10800
C 	C 	0.13140 0.99650 0.72370 0.06100
H 	H 	0.11090 0.97880 0.67800 0.01700
C 	C 	0.11970 0.98950 0.82020 -0.12100
H 	H 	0.09120 0.96720 0.84010 0.07300
C 	C 	0.26290 0.10900 0.32260 0.07400
H 	H 	0.26810 0.11200 0.38890 0.00900
C 	C 	0.22310 0.07650 0.28630 -0.13900
H 	H 	0.20230 0.05700 0.32760 0.10000
C 	C 	0.15380 0.22820 0.92350 -0.02600
H 	H 	0.11130 0.21360 0.92930 0.05400
C 	C 	0.29510 0.13700 0.26150 -0.15200
H 	H 	0.32350 0.15860 0.28510 0.09000
C 	C 	0.86720 0.81670 0.41500 -0.00500
H 	H 	0.82130 0.80830 0.42940 0.03100
C 	C 	0.88420 0.84730 0.35300 0.01600
H 	H 	0.85240 0.86460 0.32050 0.02900
C 	C 	0.42890 0.00980 0.98530 -0.06900
C 	C 	0.35140 0.01990 0.96980 0.33000
C 	C 	0.45320 0.96930 0.97000 -0.02400
H 	H 	0.42190 0.94840 0.94980 0.04700
C 	C 	0.47650 0.04040 0.01570 -0.02000
H 	H 	0.46070 0.06780 0.02640 0.05000
O 	O 	0.81080 0.50820 0.55550 -0.30200
Mn	Mn	0.73786 0.41663 0.52501 1.29800
O 	O 	0.77690 0.36010 0.58070 -0.41700
O 	O 	0.66320 0.36100 0.55370 -0.38000
N 	N 	0.74470 0.39920 0.37230 -0.23400
N 	N 	0.67590 0.46030 0.45580 -0.25800
N 	N 	0.69120 0.45120 0.64050 -0.24500
N 	N 	0.45500 0.65110 0.15430 -0.15400
N 	N 	0.42590 0.70020 0.04750 -0.27700
C 	C 	0.70230 0.44480 0.73480 0.08600
H 	H 	0.73070 0.42220 0.75360 -0.01100
C 	C 	0.67440 0.46190 0.35950 0.07400
O 	O 	0.83440 0.44170 0.51390 -0.44800
C 	C 	0.60430 0.52220 0.46360 -0.15100
H 	H 	0.57980 0.54200 0.50020 0.08400
C 	C 	0.63860 0.49340 0.31150 -0.15800
H 	H 	0.63790 0.49390 0.24450 0.09300
C 	C 	0.65030 0.48440 0.61350 0.05600
C 	C 	0.64230 0.48970 0.50850 0.07100
C 	C 	0.59370 0.57610 0.22800 0.05600
H 	H 	0.63680 0.56610 0.20520 0.01000
C 	C 	0.71430 0.42700 0.31200 0.05800
C 	C 	0.60380 0.52440 0.36380 0.11100
C 	C 	0.71910 0.34120 0.57500 0.29400
C 	C 	0.56630 0.55960 0.31290 -0.08100
C 	C 	0.47700 0.67940 0.08980 0.11300
H 	H 	0.52460 0.68400 0.07620 -0.01200
C 	C 	0.77860 0.27190 0.59590 -0.02400
H 	H 	0.82110 0.28640 0.60340 0.06300
C 	C 	0.78400 0.36780 0.33620 0.09200
H 	H 	0.80450 0.34860 0.37840 -0.00300
C 	C 	0.71690 0.29410 0.58510 -0.05600
C 	C 	0.55870 0.60690 0.17650 -0.17100
H 	H 	0.57790 0.61760 0.11980 0.10500
C 	C 	0.49450 0.62170 0.21030 0.15900
C 	C 	0.50370 0.57690 0.34780 0.05300
H 	H 	0.48570 0.56760 0.40650 0.01300
C 	C 	0.67320 0.47040 0.80550 -0.14100
H 	H 	0.68160 0.46530 0.87050 0.09200
C 	C 	0.46800 0.60740 0.29700 -0.17200
H 	H 	0.42590 0.61840 0.32110 0.10500
C 	C 	0.63140 0.50350 0.77630 0.06000
H 	H 	0.61090 0.52120 0.82200 0.01700
C 	C 	0.61970 0.51050 0.67980 -0.11900
H 	H 	0.59120 0.53280 0.65990 0.07300
C 	C 	0.76290 0.39100 0.17740 0.07400
H 	H 	0.76810 0.38800 0.11110 0.00900
C 	C 	0.72310 0.42350 0.21370 -0.13900
H 	H 	0.70230 0.44300 0.17240 0.10000
C 	C 	0.65380 0.27180 0.57650 -0.02600
H 	H 	0.61130 0.28640 0.57070 0.05500
C 	C 	0.79510 0.36300 0.23850 -0.15200
H 	H 	0.82350 0.34140 0.21490 0.09000
C 	C 	0.36720 0.68330 0.08500 -0.00500
H 	H 	0.32130 0.69170 0.07060 0.03100
C 	C 	0.38420 0.65270 0.14700 0.01600
H 	H 	0.35240 0.63540 0.17950 0.02900
C 	C 	0.92890 0.49020 0.51470 -0.06700
C 	C 	0.85140 0.48010 0.53020 0.33000
C 	C 	0.95320 0.53070 0.53000 -0.02400
H 	H 	0.92190 0.55160 0.55020 0.04800
C 	C 	0.97650 0.45960 0.48430 -0.02100
H 	H 	0.96070 0.43220 0.47360 0.05000
O 	O 	0.68920 0.49180 0.05550 -0.30300
Mn	Mn	0.76214 0.58337 0.02501 1.29800
O 	O 	0.72310 0.63990 0.08070 -0.41700
O 	O 	0.83680 0.63900 0.05370 -0.38100
N 	N 	0.75530 0.60080 0.87230 -0.23400
N 	N 	0.82410 0.53970 0.95580 -0.25500
N 	N 	0.80880 0.54880 0.14050 -0.24600
N 	N 	0.04500 0.34890 0.65430 -0.15400
N 	N 	0.07410 0.29980 0.54750 -0.27700
C 	C 	0.79770 0.55520 0.23480 0.08700
H 	H 	0.76930 0.57780 0.25360 -0.01100
C 	C 	0.82560 0.53810 0.85950 0.07400
O 	O 	0.66560 0.55830 0.01390 -0.44900
C 	C 	0.89570 0.47780 0.96360 -0.14100
H 	H 	0.92020 0.45800 0.00020 0.07900
C 	C 	0.86140 0.50660 0.81150 -0.15700
H 	H 	0.86210 0.50610 0.74450 0.09300
C 	C 	0.84970 0.51560 0.11350 0.05800
C 	C 	0.85770 0.51030 0.00850 0.06400
C 	C 	0.90630 0.42390 0.72800 0.05800
H 	H 	0.86320 0.43390 0.70520 0.00900
C 	C 	0.78570 0.57300 0.81200 0.05900
C 	C 	0.89620 0.47560 0.86380 0.10900
C 	C 	0.78090 0.65880 0.07500 0.29400
C 	C 	0.93370 0.44040 0.81290 -0.08300
C 	C 	0.02300 0.32060 0.58980 0.11200
H 	H 	0.97540 0.31600 0.57620 -0.01100
C 	C 	0.72140 0.72810 0.09590 -0.02400
H 	H 	0.67890 0.71360 0.10340 0.06300
C 	C 	0.71600 0.63220 0.83620 0.09200
H 	H 	0.69550 0.65140 0.87840 -0.00300
C 	C 	0.78310 0.70590 0.08510 -0.05700
C 	C 	0.94130 0.39310 0.67650 -0.17200
H 	H 	0.92210 0.38240 0.61980 0.10600
C 	C 	0.00550 0.37830 0.71030 0.16000
C 	C 	0.99630 0.42310 0.84780 0.06300
H 	H 	0.01430 0.43240 0.90650 0.00800
C 	C 	0.82680 0.52960 0.30550 -0.14200
H 	H 	0.81840 0.53470 0.37050 0.09200
C 	C 	0.03200 0.39260 0.79700 -0.17900
H 	H 	0.07410 0.38160 0.82110 0.10800
C 	C 	0.86860 0.49650 0.27630 0.06100
H 	H 	0.88910 0.47880 0.32200 0.01700
C 	C 	0.88030 0.48950 0.17980 -0.12100
H 	H 	0.90880 0.46720 0.15990 0.07400
C 	C 	0.73710 0.60900 0.67740 0.07400
H 	H 	0.73190 0.61200 0.61110 0.00900
C 	C 	0.77690 0.57650 0.71370 -0.13900
H 	H 	0.79770 0.55700 0.67240 0.10000
C 	C 	0.84620 0.72820 0.07650 -0.02600
H 	H 	0.88870 0.71360 0.07070 0.05400
C 	C 	0.70490 0.63700 0.73850 -0.15200
H 	H 	0.67650 0.65860 0.71490 0.09000
C 	C 	0.13280 0.31670 0.58500 -0.00500
H 	H 	0.17870 0.30830 0.57060 0.03100
C 	C 	0.11580 0.34730 0.64700 0.01600
H 	H 	0.14760 0.36460 0.67950 0.02900
C 	C 	0.57110 0.50980 0.01470 -0.06800
C 	C 	0.64860 0.51990 0.03020 0.33000
C 	C 	0.54680 0.46930 0.03000 -0.02500
H 	H 	0.57810 0.44840 0.05020 0.04800
C 	C 	0.52350 0.54040 0.98430 -0.02000
H 	H 	0.53930 0.56780 0.97360 0.05000
O 	O 	0.81080 0.99180 0.55550 -0.30200
Mn	Mn	0.73786 0.08337 0.52501 1.29800
O 	O 	0.77690 0.13990 0.58070 -0.41700
O 	O 	0.66320 0.13900 0.55370 -0.38000
N 	N 	0.74470 0.10080 0.37230 -0.23400
N 	N 	0.67590 0.03970 0.45580 -0.25800
N 	N 	0.69120 0.04880 0.64050 -0.24600
N 	N 	0.45500 0.84890 0.15430 -0.15400
N 	N 	0.42590 0.79980 0.04750 -0.27700
C 	C 	0.70230 0.05520 0.73480 0.08600
H 	H 	0.73070 0.07780 0.75360 -0.01100
C 	C 	0.67440 0.03810 0.35950 0.07400
O 	O 	0.83440 0.05830 0.51390 -0.44800
C 	C 	0.60430 0.97780 0.46360 -0.15100
H 	H 	0.57980 0.95800 0.50020 0.08400
C 	C 	0.63860 0.00660 0.31150 -0.15800
H 	H 	0.63790 0.00610 0.24450 0.09300
C 	C 	0.65030 0.01560 0.61350 0.05600
C 	C 	0.64230 0.01030 0.50850 0.07100
C 	C 	0.59370 0.92390 0.22800 0.05600
H 	H 	0.63680 0.93390 0.20520 0.01000
C 	C 	0.71430 0.07300 0.31200 0.05800
C 	C 	0.60380 0.97560 0.36380 0.11100
C 	C 	0.71910 0.15880 0.57500 0.29400
C 	C 	0.56630 0.94040 0.31290 -0.08000
C 	C 	0.47700 0.82060 0.08980 0.11300
H 	H 	0.52460 0.81600 0.07620 -0.01200
C 	C 	0.77860 0.22810 0.59590 -0.02400
H 	H 	0.82110 0.21360 0.60340 0.06300
C 	C 	0.78400 0.13220 0.33620 0.09200
H 	H 	0.80450 0.15140 0.37840 -0.00300
C 	C 	0.71690 0.20590 0.58510 -0.05600
C 	C 	0.55870 0.89310 0.17650 -0.17100
H 	H 	0.57790 0.88240 0.11980 0.10500
C 	C 	0.49450 0.87830 0.21030 0.15900
C 	C 	0.50370 0.92310 0.34780 0.05300
H 	H 	0.48570 0.93240 0.40650 0.01300
C 	C 	0.67320 0.02960 0.80550 -0.14100
H 	H 	0.68160 0.03470 0.87050 0.09200
C 	C 	0.46800 0.89260 0.29700 -0.17100
H 	H 	0.42590 0.88160 0.32110 0.10500
C 	C 	0.63140 0.99650 0.77630 0.06000
H 	H 	0.61090 0.97880 0.82200 0.01700
C 	C 	0.61970 0.98950 0.67980 -0.12000
H 	H 	0.59120 0.96720 0.65990 0.07300
C 	C 	0.76290 0.10900 0.17740 0.07400
H 	H 	0.76810 0.11200 0.11110 0.00900
C 	C 	0.72310 0.07650 0.21370 -0.13900
H 	H 	0.70230 0.05700 0.17240 0.10000
C 	C 	0.65380 0.22820 0.57650 -0.02600
H 	H 	0.61130 0.21360 0.57070 0.05500
C 	C 	0.79510 0.13700 0.23850 -0.15200
H 	H 	0.82350 0.15860 0.21490 0.09000
C 	C 	0.36720 0.81670 0.08500 -0.00500
H 	H 	0.32130 0.80830 0.07060 0.03100
C 	C 	0.38420 0.84730 0.14700 0.01600
H 	H 	0.35240 0.86460 0.17950 0.02900
C 	C 	0.92890 0.00980 0.51470 -0.06800
C 	C 	0.85140 0.01990 0.53020 0.33000
C 	C 	0.95320 0.96930 0.53000 -0.02400
H 	H 	0.92190 0.94840 0.55020 0.04800
C 	C 	0.97650 0.04040 0.48430 -0.02100
H 	H 	0.96070 0.06780 0.47360 0.05000
O 	O 	0.68920 0.00820 0.05550 -0.30200
Mn	Mn	0.76214 0.91663 0.02501 1.29800
O 	O 	0.72310 0.86010 0.08070 -0.41700
O 	O 	0.83680 0.86100 0.05370 -0.38100
N 	N 	0.75530 0.89920 0.87230 -0.23400
N 	N 	0.82410 0.96030 0.95580 -0.25500
N 	N 	0.80880 0.95120 0.14050 -0.24600
N 	N 	0.04500 0.15110 0.65430 -0.15400
N 	N 	0.07410 0.20020 0.54750 -0.27700
C 	C 	0.79770 0.94480 0.23480 0.08600
H 	H 	0.76930 0.92220 0.25360 -0.01100
C 	C 	0.82560 0.96190 0.85950 0.07400
O 	O 	0.66560 0.94170 0.01390 -0.44900
C 	C 	0.89570 0.02220 0.96360 -0.14100
H 	H 	0.92020 0.04200 0.00020 0.07900
C 	C 	0.86140 0.99340 0.81150 -0.15600
H 	H 	0.86210 0.99390 0.74450 0.09200
C 	C 	0.84970 0.98440 0.11350 0.05800
C 	C 	0.85770 0.98970 0.00850 0.06400
C 	C 	0.90630 0.07610 0.72800 0.05800
H 	H 	0.86320 0.06610 0.70520 0.00900
C 	C 	0.78570 0.92700 0.81200 0.05900
C 	C 	0.89620 0.02440 0.86380 0.10900
C 	C 	0.78090 0.84120 0.07500 0.29400
C 	C 	0.93370 0.05960 0.81290 -0.08300
C 	C 	0.02300 0.17940 0.58980 0.11200
H 	H 	0.97540 0.18400 0.57620 -0.01100
C 	C 	0.72140 0.77190 0.09590 -0.02400
H 	H 	0.67890 0.78640 0.10340 0.06300
C 	C 	0.71600 0.86780 0.83620 0.09200
H 	H 	0.69550 0.84860 0.87840 -0.00300
C 	C 	0.78310 0.79410 0.08510 -0.05700
C 	C 	0.94130 0.10690 0.67650 -0.17200
H 	H 	0.92210 0.11760 0.61980 0.10600
C 	C 	0.00550 0.12170 0.71030 0.16000
C 	C 	0.99630 0.07690 0.84780 0.06200
H 	H 	0.01430 0.06760 0.90650 0.00800
C 	C 	0.82680 0.97040 0.30550 -0.14200
H 	H 	0.81840 0.96530 0.37050 0.09200
C 	C 	0.03200 0.10740 0.79700 -0.17900
H 	H 	0.07410 0.11840 0.82110 0.10800
C 	C 	0.86860 0.00350 0.27630 0.06100
H 	H 	0.88910 0.02120 0.32200 0.01700
C 	C 	0.88030 0.01050 0.17980 -0.12100
H 	H 	0.90880 0.03280 0.15990 0.07300
C 	C 	0.73710 0.89100 0.67740 0.07400
H 	H 	0.73190 0.88800 0.61110 0.00900
C 	C 	0.77690 0.92350 0.71370 -0.13900
H 	H 	0.79770 0.94300 0.67240 0.10000
C 	C 	0.84620 0.77180 0.07650 -0.02600
H 	H 	0.88870 0.78640 0.07070 0.05400
C 	C 	0.70490 0.86300 0.73850 -0.15200
H 	H 	0.67650 0.84140 0.71490 0.09000
C 	C 	0.13280 0.18330 0.58500 -0.00500
H 	H 	0.17870 0.19170 0.57060 0.03100
C 	C 	0.11580 0.15270 0.64700 0.01600
H 	H 	0.14760 0.13540 0.67950 0.02900
C 	C 	0.57110 0.99020 0.01470 -0.06900
C 	C 	0.64860 0.98010 0.03020 0.33000
C 	C 	0.54680 0.03070 0.03000 -0.02400
H 	H 	0.57810 0.05160 0.05020 0.04700
C 	C 	0.52350 0.95960 0.98430 -0.02000
H 	H 	0.53930 0.93220 0.97360 0.05000
O 	O 	0.18920 0.49180 0.44450 -0.30200
Mn	Mn	0.26214 0.58337 0.47499 1.29800
O 	O 	0.22310 0.63990 0.41930 -0.41700
O 	O 	0.33680 0.63900 0.44630 -0.38000
N 	N 	0.25530 0.60080 0.62770 -0.23400
N 	N 	0.32410 0.53970 0.54420 -0.25800
N 	N 	0.30880 0.54880 0.35950 -0.24500
N 	N 	0.54500 0.34890 0.84570 -0.15400
N 	N 	0.57410 0.29980 0.95250 -0.27700
C 	C 	0.29770 0.55520 0.26520 0.08600
H 	H 	0.26930 0.57780 0.24640 -0.01100
C 	C 	0.32560 0.53810 0.64050 0.07400
O 	O 	0.16560 0.55830 0.48610 -0.44800
C 	C 	0.39570 0.47780 0.53640 -0.15100
H 	H 	0.42020 0.45800 0.49980 0.08400
C 	C 	0.36140 0.50660 0.68850 -0.15800
H 	H 	0.36210 0.50610 0.75550 0.09300
C 	C 	0.34970 0.51560 0.38650 0.05600
C 	C 	0.35770 0.51030 0.49150 0.07100
C 	C 	0.40630 0.42390 0.77200 0.05600
H 	H 	0.36320 0.43390 0.79480 0.01000
C 	C 	0.28570 0.57300 0.68800 0.05800
C 	C 	0.39620 0.47560 0.63620 0.11100
C 	C 	0.28090 0.65880 0.42500 0.29400
C 	C 	0.43370 0.44040 0.68710 -0.08100
C 	C 	0.52300 0.32060 0.91020 0.11300
H 	H 	0.47540 0.31600 0.92380 -0.01200
C 	C 	0.22140 0.72810 0.40410 -0.02400
H 	H 	0.17890 0.71360 0.39660 0.06300
C 	C 	0.21600 0.63220 0.66380 0.09200
H 	H 	0.19550 0.65140 0.62160 -0.00300
C 	C 	0.28310 0.70590 0.41490 -0.05600
C 	C 	0.44130 0.39310 0.82350 -0.17100
H 	H 	0.42210 0.38240 0.88020 0.10500
C 	C 	0.50550 0.37830 0.78970 0.15900
C 	C 	0.49630 0.42310 0.65220 0.05300
H 	H 	0.51430 0.43240 0.59350 0.01300
C 	C 	0.32680 0.52960 0.19450 -0.14100
H 	H 	0.31840 0.53470 0.12950 0.09200
C 	C 	0.53200 0.39260 0.70300 -0.17200
H 	H 	0.57410 0.38160 0.67890 0.10500
C 	C 	0.36860 0.49650 0.22370 0.06000
H 	H 	0.38910 0.47880 0.17800 0.01700
C 	C 	0.38030 0.48950 0.32020 -0.11900
H 	H 	0.40880 0.46720 0.34010 0.07300
C 	C 	0.23710 0.60900 0.82260 0.07400
H 	H 	0.23190 0.61200 0.88890 0.00900
C 	C 	0.27690 0.57650 0.78630 -0.13900
H 	H 	0.29770 0.55700 0.82760 0.10000
C 	C 	0.34620 0.72820 0.42350 -0.02600
H 	H 	0.38870 0.71360 0.42930 0.05500
C 	C 	0.20490 0.63700 0.76150 -0.15200
H 	H 	0.17650 0.65860 0.78510 0.09000
C 	C 	0.63280 0.31670 0.91500 -0.00500
H 	H 	0.67870 0.30830 0.92940 0.03100
C 	C 	0.61580 0.34730 0.85300 0.01600
H 	H 	0.64760 0.36460 0.82050 0.02900
C 	C 	0.07110 0.50980 0.48530 -0.06700
C 	C 	0.14860 0.51990 0.46980 0.33000
C 	C 	0.04680 0.46930 0.47000 -0.02400
H 	H 	0.07810 0.44840 0.44980 0.04800
C 	C 	0.02350 0.54040 0.51570 -0.02100
H 	H 	0.03930 0.56780 0.52640 0.05000
O 	O 	0.31080 0.50820 0.94450 -0.30300
Mn	Mn	0.23786 0.41663 0.97499 1.29800
O 	O 	0.27690 0.36010 0.91930 -0.41700
O 	O 	0.16320 0.36100 0.94630 -0.38100
N 	N 	0.24470 0.39920 0.12770 -0.23400
N 	N 	0.17590 0.46030 0.04420 -0.25500
N 	N 	0.19120 0.45120 0.85950 -0.24600
N 	N 	0.95500 0.65110 0.34570 -0.15400
N 	N 	0.92590 0.70020 0.45250 -0.27700
C 	C 	0.20230 0.44480 0.76520 0.08700
H 	H 	0.23070 0.42220 0.74640 -0.01100
C 	C 	0.17440 0.46190 0.14050 0.07400
O 	O 	0.33440 0.44170 0.98610 -0.44900
C 	C 	0.10430 0.52220 0.03640 -0.14100
H 	H 	0.07980 0.54200 0.99980 0.07900
C 	C 	0.13860 0.49340 0.18850 -0.15700
H 	H 	0.13790 0.49390 0.25550 0.09300
C 	C 	0.15030 0.48440 0.88650 0.05800
C 	C 	0.14230 0.48970 0.99150 0.06400
C 	C 	0.09370 0.57610 0.27200 0.05800
H 	H 	0.13680 0.56610 0.29480 0.00900
C 	C 	0.21430 0.42700 0.18800 0.05900
C 	C 	0.10380 0.52440 0.13620 0.10900
C 	C 	0.21910 0.34120 0.92500 0.29400
C 	C 	0.06630 0.55960 0.18710 -0.08300
C 	C 	0.97700 0.67940 0.41020 0.11200
H 	H 	0.02460 0.68400 0.42380 -0.01100
C 	C 	0.27860 0.27190 0.90410 -0.02400
H 	H 	0.32110 0.28640 0.89660 0.06300
C 	C 	0.28400 0.36780 0.16380 0.09200
H 	H 	0.30450 0.34860 0.12160 -0.00300
C 	C 	0.21690 0.29410 0.91490 -0.05700
C 	C 	0.05870 0.60690 0.32350 -0.17200
H 	H 	0.07790 0.61760 0.38020 0.10600
C 	C 	0.99450 0.62170 0.28970 0.16000
C 	C 	0.00370 0.57690 0.15220 0.06300
H 	H 	0.98570 0.56760 0.09350 0.00800
C 	C 	0.17320 0.47040 0.69450 -0.14200
H 	H 	0.18160 0.46530 0.62950 0.09200
C 	C 	0.96800 0.60740 0.20300 -0.17900
H 	H 	0.92590 0.61840 0.17890 0.10800
C 	C 	0.13140 0.50350 0.72370 0.06100
H 	H 	0.11090 0.52120 0.67800 0.01700
C 	C 	0.11970 0.51050 0.82020 -0.12100
H 	H 	0.09120 0.53280 0.84010 0.07400
C 	C 	0.26290 0.39100 0.32260 0.07400
H 	H 	0.26810 0.38800 0.38890 0.00900
C 	C 	0.22310 0.42350 0.28630 -0.13900
H 	H 	0.20230 0.44300 0.32760 0.10000
C 	C 	0.15380 0.27180 0.92350 -0.02600
H 	H 	0.11130 0.28640 0.92930 0.05400
C 	C 	0.29510 0.36300 0.26150 -0.15200
H 	H 	0.32350 0.34140 0.28510 0.09000
C 	C 	0.86720 0.68330 0.41500 -0.00500
H 	H 	0.82130 0.69170 0.42940 0.03100
C 	C 	0.88420 0.65270 0.35300 0.01600
H 	H 	0.85240 0.63540 0.32050 0.02900
C 	C 	0.42890 0.49020 0.98530 -0.06800
C 	C 	0.35140 0.48010 0.96980 0.33000
C 	C 	0.45320 0.53070 0.97000 -0.02500
H 	H 	0.42190 0.55160 0.94980 0.04800
C 	C 	0.47650 0.45960 0.01570 -0.02000
H 	H 	0.46070 0.43220 0.02640 0.05000
O 	O 	0.00550 0.25000 0.35310 -0.46000
C 	C 	0.94200 0.25000 0.38300 0.31900
C 	C 	0.88410 0.25000 0.30910 -0.06200
C 	C 	0.90070 0.25000 0.21170 -0.03100
H 	H 	0.94770 0.25000 0.19200 0.05700
Mn	Mn	0.57368 0.25000 0.04210 1.29400
O 	O 	0.92810 0.25000 0.46980 -0.33200
O 	O 	0.65550 0.25000 0.12760 -0.46300
O 	O 	0.73520 0.25000 0.01030 -0.30200
C 	C 	0.77550 0.25000 0.17190 -0.07400
C 	C 	0.75940 0.25000 0.26850 -0.01700
H 	H 	0.71230 0.25000 0.28810 0.05500
C 	C 	0.71910 0.25000 0.09800 0.32700
C 	C 	0.81340 0.25000 0.33780 -0.03300
H 	H 	0.80200 0.25000 0.40300 0.05800
C 	C 	0.84680 0.25000 0.14340 -0.02400
H 	H 	0.85810 0.25000 0.07820 0.05300
O 	O 	0.49450 0.75000 0.85310 -0.46100
C 	C 	0.55800 0.75000 0.88300 0.32000
C 	C 	0.61590 0.75000 0.80910 -0.06300
C 	C 	0.59930 0.75000 0.71170 -0.03100
H 	H 	0.55230 0.75000 0.69200 0.05700
Mn	Mn	0.92632 0.75000 0.54210 1.29500
O 	O 	0.57190 0.75000 0.96980 -0.33200
O 	O 	0.84450 0.75000 0.62760 -0.46300
O 	O 	0.76480 0.75000 0.51030 -0.30100
C 	C 	0.72450 0.75000 0.67190 -0.07300
C 	C 	0.74060 0.75000 0.76850 -0.01700
H 	H 	0.78770 0.75000 0.78810 0.05500
C 	C 	0.78090 0.75000 0.59800 0.32600
C 	C 	0.68660 0.75000 0.83780 -0.03300
H 	H 	0.69800 0.75000 0.90300 0.05900
C 	C 	0.65320 0.75000 0.64340 -0.02400
H 	H 	0.64190 0.75000 0.57820 0.05300
O 	O 	0.99450 0.75000 0.64690 -0.46000
C 	C 	0.05800 0.75000 0.61700 0.31900
C 	C 	0.11590 0.75000 0.69090 -0.06200
C 	C 	0.09930 0.75000 0.78830 -0.03100
H 	H 	0.05230 0.75000 0.80800 0.05700
Mn	Mn	0.42632 0.75000 0.95790 1.29400
O 	O 	0.07190 0.75000 0.53020 -0.33200
O 	O 	0.34450 0.75000 0.87240 -0.46300
O 	O 	0.26480 0.75000 0.98970 -0.30200
C 	C 	0.22450 0.75000 0.82810 -0.07400
C 	C 	0.24060 0.75000 0.73150 -0.01700
H 	H 	0.28770 0.75000 0.71190 0.05500
C 	C 	0.28090 0.75000 0.90200 0.32700
C 	C 	0.18660 0.75000 0.66220 -0.03300
H 	H 	0.19800 0.75000 0.59700 0.05800
C 	C 	0.15320 0.75000 0.85660 -0.02400
H 	H 	0.14190 0.75000 0.92180 0.05300
O 	O 	0.50550 0.25000 0.14690 -0.46100
C 	C 	0.44200 0.25000 0.11700 0.32000
C 	C 	0.38410 0.25000 0.19090 -0.06300
C 	C 	0.40070 0.25000 0.28830 -0.03100
H 	H 	0.44770 0.25000 0.30800 0.05700
Mn	Mn	0.07368 0.25000 0.45790 1.29500
O 	O 	0.42810 0.25000 0.03020 -0.33200
O 	O 	0.15550 0.25000 0.37240 -0.46300
O 	O 	0.23520 0.25000 0.48970 -0.30100
C 	C 	0.27550 0.25000 0.32810 -0.07300
C 	C 	0.25940 0.25000 0.23150 -0.01700
H 	H 	0.21230 0.25000 0.21190 0.05500
C 	C 	0.21910 0.25000 0.40200 0.32600
C 	C 	0.31340 0.25000 0.16220 -0.03300
H 	H 	0.30200 0.25000 0.09700 0.05900
C 	C 	0.34680 0.25000 0.35660 -0.02400
H 	H 	0.35810 0.25000 0.42180 0.05300
