data_crystal

_cell_length_a 31.20090
_cell_length_b 31.20090
_cell_length_c 31.20090
_cell_angle_alpha 90.00000
_cell_angle_beta  90.00000
_cell_angle_gamma 90.00000

_symmetry_space_group_name_	'P 1'
_symmetry_space_group_name_H-M	'P 1'

loop_
_symmetry_equiv_pos_as_xyz
  x,y,z

loop_
_atom_site_label
_atom_site_type_symbol
_atom_site_fract_x
_atom_site_fract_y
_atom_site_fract_z
_atom_site_charge
Cd	Cd	0.06204 0.12044 0.92395 1.24900
C 	C 	0.88070 0.16440 0.00640 -0.15200
C 	C 	0.88590 0.20190 0.03250 0.09000
H 	H 	0.86390 0.21210 0.04980 0.01600
C 	C 	0.92670 0.22280 0.03050 -0.18600
H 	H 	0.93150 0.24940 0.04320 0.09900
C 	C 	0.95800 0.20150 0.00890 0.16400
H 	H 	0.98520 0.21360 0.00970 -0.02500
C 	C 	0.95400 0.16570 0.98690 -0.24600
C 	C 	0.91540 0.14620 0.98590 0.17000
C 	C 	0.91180 0.10270 0.96300 0.04200
C 	C 	0.91820 0.06490 0.98760 -0.07300
C 	C 	0.91600 0.02570 0.96760 0.03800
H 	H 	0.92000 0.00120 0.98400 0.03600
C 	C 	0.90810 0.02100 0.92350 -0.11200
H 	H 	0.90680 0.99430 0.91040 0.08200
C 	C 	0.90260 0.05830 0.90150 0.04100
H 	H 	0.89720 0.05640 0.87220 0.03800
C 	C 	0.90430 0.09850 0.91900 -0.08300
C 	C 	0.83730 0.14550 0.00650 0.33700
C 	C 	0.99300 0.14980 0.96140 0.63300
C 	C 	0.92120 0.06550 0.03580 0.33800
C 	C 	0.89560 0.13580 0.88860 0.33200
O 	O 	0.83110 0.10740 0.00910 -0.32700
O 	O 	0.80550 0.17240 0.00250 -0.35200
O 	O 	0.99620 0.14970 0.92600 -0.50300
O 	O 	0.01930 0.13100 0.97770 -0.52000
O 	O 	0.94640 0.08960 0.05330 -0.36300
O 	O 	0.90010 0.03860 0.05530 -0.36500
O 	O 	0.89940 0.13040 0.85030 -0.42100
O 	O 	0.88180 0.17070 0.90460 -0.31500
Cd	Cd	0.56204 0.62044 0.42395 1.24900
C 	C 	0.38070 0.66440 0.50640 -0.14200
C 	C 	0.38590 0.70190 0.53250 0.09000
H 	H 	0.36390 0.71210 0.54980 0.01700
C 	C 	0.42670 0.72280 0.53050 -0.19100
H 	H 	0.43150 0.74940 0.54320 0.10100
C 	C 	0.45800 0.70150 0.50890 0.17900
H 	H 	0.48520 0.71360 0.50970 -0.03100
C 	C 	0.45400 0.66570 0.48690 -0.25500
C 	C 	0.41540 0.64620 0.48590 0.16300
C 	C 	0.41180 0.60270 0.46300 0.04100
C 	C 	0.41820 0.56490 0.48760 -0.07600
C 	C 	0.41600 0.52570 0.46760 0.02800
H 	H 	0.42000 0.50120 0.48400 0.04000
C 	C 	0.40810 0.52100 0.42350 -0.08500
H 	H 	0.40680 0.49430 0.41040 0.06600
C 	C 	0.40260 0.55830 0.40150 0.02700
H 	H 	0.39720 0.55640 0.37220 0.04400
C 	C 	0.40430 0.59850 0.41900 -0.07700
C 	C 	0.33730 0.64550 0.50650 0.33500
C 	C 	0.49300 0.64980 0.46140 0.62300
C 	C 	0.42120 0.56550 0.53580 0.34600
C 	C 	0.39560 0.63580 0.38860 0.33100
O 	O 	0.33110 0.60740 0.50910 -0.32100
O 	O 	0.30550 0.67240 0.50250 -0.34700
O 	O 	0.49620 0.64970 0.42600 -0.50400
O 	O 	0.51930 0.63100 0.47770 -0.51000
O 	O 	0.44640 0.58960 0.55330 -0.36200
O 	O 	0.40010 0.53860 0.55530 -0.36200
O 	O 	0.39940 0.63040 0.35030 -0.42100
O 	O 	0.38180 0.67070 0.40460 -0.31600
Cd	Cd	0.43796 0.87956 0.42395 1.25000
C 	C 	0.61930 0.83560 0.50640 -0.14300
C 	C 	0.61410 0.79810 0.53250 0.09200
H 	H 	0.63610 0.78790 0.54980 0.01700
C 	C 	0.57330 0.77720 0.53050 -0.19200
H 	H 	0.56850 0.75060 0.54320 0.10300
C 	C 	0.54200 0.79850 0.50890 0.18100
H 	H 	0.51480 0.78640 0.50970 -0.03000
C 	C 	0.54600 0.83430 0.48690 -0.25600
C 	C 	0.58460 0.85380 0.48590 0.16600
C 	C 	0.58820 0.89730 0.46300 0.03400
C 	C 	0.58180 0.93510 0.48760 -0.06500
C 	C 	0.58400 0.97430 0.46760 0.00800
H 	H 	0.58000 0.99880 0.48400 0.05100
C 	C 	0.59190 0.97900 0.42350 -0.04900
H 	H 	0.59320 0.00570 0.41040 0.04600
C 	C 	0.59740 0.94170 0.40150 0.00500
H 	H 	0.60280 0.94360 0.37220 0.05300
C 	C 	0.59570 0.90150 0.41900 -0.06600
C 	C 	0.66270 0.85450 0.50650 0.33600
C 	C 	0.50700 0.85020 0.46140 0.62300
C 	C 	0.57880 0.93450 0.53580 0.34200
C 	C 	0.60440 0.86420 0.38860 0.32700
O 	O 	0.66890 0.89260 0.50910 -0.32100
O 	O 	0.69450 0.82760 0.50250 -0.34700
O 	O 	0.50380 0.85030 0.42600 -0.50400
O 	O 	0.48070 0.86900 0.47770 -0.51000
O 	O 	0.55360 0.91040 0.55330 -0.36000
O 	O 	0.59990 0.96140 0.55530 -0.35900
O 	O 	0.60060 0.86960 0.35030 -0.41900
O 	O 	0.61820 0.82930 0.40460 -0.31500
Cd	Cd	0.93796 0.37956 0.92395 1.25100
C 	C 	0.11930 0.33560 0.00640 -0.14900
C 	C 	0.11410 0.29810 0.03250 0.08700
H 	H 	0.13610 0.28790 0.04980 0.01800
C 	C 	0.07330 0.27720 0.03050 -0.18100
H 	H 	0.06850 0.25060 0.04320 0.09600
C 	C 	0.04200 0.29850 0.00890 0.15600
H 	H 	0.01480 0.28640 0.00970 -0.02700
C 	C 	0.04600 0.33430 0.98690 -0.23700
C 	C 	0.08460 0.35380 0.98590 0.16800
C 	C 	0.08820 0.39730 0.96300 0.03700
C 	C 	0.08180 0.43510 0.98760 -0.06400
C 	C 	0.08400 0.47430 0.96760 0.02000
H 	H 	0.08000 0.49880 0.98400 0.04500
C 	C 	0.09190 0.47900 0.92350 -0.08000
H 	H 	0.09320 0.50570 0.91040 0.06300
C 	C 	0.09740 0.44170 0.90150 0.02200
H 	H 	0.10280 0.44360 0.87220 0.04500
C 	C 	0.09570 0.40150 0.91900 -0.07400
C 	C 	0.16270 0.35450 0.00650 0.33700
C 	C 	0.00700 0.35020 0.96140 0.60300
C 	C 	0.07880 0.43450 0.03580 0.33600
C 	C 	0.10440 0.36420 0.88860 0.33000
O 	O 	0.16890 0.39260 0.00910 -0.32500
O 	O 	0.19450 0.32760 0.00250 -0.35100
O 	O 	0.00380 0.35030 0.92600 -0.50100
O 	O 	0.98070 0.36900 0.97770 -0.49300
O 	O 	0.05360 0.41040 0.05330 -0.36400
O 	O 	0.09990 0.46140 0.05530 -0.36200
O 	O 	0.10060 0.36960 0.85030 -0.42200
O 	O 	0.11820 0.32930 0.90460 -0.31400
Cd	Cd	0.93796 0.62044 0.57605 1.25100
C 	C 	0.11930 0.66440 0.49360 -0.14000
C 	C 	0.11410 0.70190 0.46750 0.08900
H 	H 	0.13610 0.71210 0.45020 0.01800
C 	C 	0.07330 0.72280 0.46950 -0.18800
H 	H 	0.06850 0.74940 0.45680 0.10000
C 	C 	0.04200 0.70150 0.49110 0.17500
H 	H 	0.01480 0.71360 0.49030 -0.03100
C 	C 	0.04600 0.66570 0.51310 -0.25000
C 	C 	0.08460 0.64620 0.51410 0.16000
C 	C 	0.08820 0.60270 0.53700 0.04200
C 	C 	0.08180 0.56490 0.51240 -0.07800
C 	C 	0.08400 0.52570 0.53240 0.02800
H 	H 	0.08000 0.50120 0.51600 0.04000
C 	C 	0.09190 0.52100 0.57650 -0.08700
H 	H 	0.09320 0.49430 0.58960 0.06500
C 	C 	0.09740 0.55830 0.59850 0.02700
H 	H 	0.10280 0.55640 0.62780 0.04300
C 	C 	0.09570 0.59850 0.58100 -0.07800
C 	C 	0.16270 0.64550 0.49350 0.33500
C 	C 	0.00700 0.64980 0.53860 0.60700
C 	C 	0.07880 0.56550 0.46420 0.34700
C 	C 	0.10440 0.63580 0.61140 0.33200
O 	O 	0.16890 0.60740 0.49090 -0.32100
O 	O 	0.19450 0.67240 0.49750 -0.34700
O 	O 	0.00380 0.64970 0.57400 -0.50300
O 	O 	0.98070 0.63100 0.52230 -0.49800
O 	O 	0.05360 0.58960 0.44670 -0.36400
O 	O 	0.09990 0.53860 0.44470 -0.36200
O 	O 	0.10060 0.63040 0.64970 -0.42300
O 	O 	0.11820 0.67070 0.59540 -0.31700
Cd	Cd	0.43796 0.12044 0.07605 1.25000
C 	C 	0.61930 0.16440 0.99360 -0.13100
C 	C 	0.61410 0.20190 0.96750 0.09200
H 	H 	0.63610 0.21210 0.95020 0.01800
C 	C 	0.57330 0.22280 0.96950 -0.19600
H 	H 	0.56850 0.24940 0.95680 0.10600
C 	C 	0.54200 0.20150 0.99110 0.19700
H 	H 	0.51480 0.21360 0.99030 -0.03300
C 	C 	0.54600 0.16570 0.01310 -0.26600
C 	C 	0.58460 0.14620 0.01410 0.15300
C 	C 	0.58820 0.10270 0.03700 0.05300
C 	C 	0.58180 0.06490 0.01240 -0.10000
C 	C 	0.58400 0.02570 0.03240 0.05600
H 	H 	0.58000 0.00120 0.01600 0.02500
C 	C 	0.59190 0.02100 0.07650 -0.12800
H 	H 	0.59320 0.99430 0.08960 0.08700
C 	C 	0.59740 0.05830 0.09850 0.05300
H 	H 	0.60280 0.05640 0.12780 0.03400
C 	C 	0.59570 0.09850 0.08100 -0.09200
C 	C 	0.66270 0.14550 0.99350 0.33200
C 	C 	0.50700 0.14980 0.03860 0.62600
C 	C 	0.57880 0.06550 0.96420 0.36100
C 	C 	0.60440 0.13580 0.11140 0.33700
O 	O 	0.66890 0.10740 0.99090 -0.31700
O 	O 	0.69450 0.17240 0.99750 -0.34300
O 	O 	0.50380 0.14970 0.07400 -0.50600
O 	O 	0.48070 0.13100 0.02230 -0.51500
O 	O 	0.55360 0.08960 0.94670 -0.36400
O 	O 	0.59990 0.03860 0.94470 -0.36600
O 	O 	0.60060 0.13040 0.14970 -0.42300
O 	O 	0.61820 0.17070 0.09540 -0.31900
Cd	Cd	0.56204 0.37956 0.07605 1.25000
C 	C 	0.38070 0.33560 0.99360 -0.13200
C 	C 	0.38590 0.29810 0.96750 0.09300
H 	H 	0.36390 0.28790 0.95020 0.01800
C 	C 	0.42670 0.27720 0.96950 -0.19700
H 	H 	0.43150 0.25060 0.95680 0.10600
C 	C 	0.45800 0.29850 0.99110 0.19800
H 	H 	0.48520 0.28640 0.99030 -0.03300
C 	C 	0.45400 0.33430 0.01310 -0.26700
C 	C 	0.41540 0.35380 0.01410 0.15600
C 	C 	0.41180 0.39730 0.03700 0.04600
C 	C 	0.41820 0.43510 0.01240 -0.08900
C 	C 	0.41600 0.47430 0.03240 0.03600
H 	H 	0.42000 0.49880 0.01600 0.03500
C 	C 	0.40810 0.47900 0.07650 -0.09200
H 	H 	0.40680 0.50570 0.08960 0.06700
C 	C 	0.40260 0.44170 0.09850 0.03200
H 	H 	0.39720 0.44360 0.12780 0.04300
C 	C 	0.40430 0.40150 0.08100 -0.08100
C 	C 	0.33730 0.35450 0.99350 0.33300
C 	C 	0.49300 0.35020 0.03860 0.62700
C 	C 	0.42120 0.43450 0.96420 0.35700
C 	C 	0.39560 0.36420 0.11140 0.33300
O 	O 	0.33110 0.39260 0.99090 -0.31700
O 	O 	0.30550 0.32760 0.99750 -0.34300
O 	O 	0.49620 0.35030 0.07400 -0.50600
O 	O 	0.51930 0.36900 0.02230 -0.51400
O 	O 	0.44640 0.41040 0.94670 -0.36200
O 	O 	0.40010 0.46140 0.94470 -0.36300
O 	O 	0.39940 0.36960 0.14970 -0.42100
O 	O 	0.38180 0.32930 0.09540 -0.31800
Cd	Cd	0.06204 0.87956 0.57605 1.25000
C 	C 	0.88070 0.83560 0.49360 -0.14400
C 	C 	0.88590 0.79810 0.46750 0.09400
H 	H 	0.86390 0.78790 0.45020 0.01700
C 	C 	0.92670 0.77720 0.46950 -0.19400
H 	H 	0.93150 0.75060 0.45680 0.10500
C 	C 	0.95800 0.79850 0.49110 0.18500
H 	H 	0.98520 0.78640 0.49030 -0.02900
C 	C 	0.95400 0.83430 0.51310 -0.26100
C 	C 	0.91540 0.85380 0.51410 0.16900
C 	C 	0.91180 0.89730 0.53700 0.03300
C 	C 	0.91820 0.93510 0.51240 -0.06400
C 	C 	0.91600 0.97430 0.53240 0.00800
H 	H 	0.92000 0.99880 0.51600 0.05100
C 	C 	0.90810 0.97900 0.57650 -0.04800
H 	H 	0.90680 0.00570 0.58960 0.04700
C 	C 	0.90260 0.94170 0.59850 0.00500
H 	H 	0.89720 0.94360 0.62780 0.05400
C 	C 	0.90430 0.90150 0.58100 -0.06500
C 	C 	0.83730 0.85450 0.49350 0.33600
C 	C 	0.99300 0.85020 0.53860 0.63900
C 	C 	0.92120 0.93450 0.46420 0.34200
C 	C 	0.89560 0.86420 0.61140 0.32700
O 	O 	0.83110 0.89260 0.49090 -0.32100
O 	O 	0.80550 0.82760 0.49750 -0.34800
O 	O 	0.99620 0.85030 0.57400 -0.50400
O 	O 	0.01930 0.86900 0.52230 -0.52200
O 	O 	0.94640 0.91040 0.44670 -0.35800
O 	O 	0.90010 0.96140 0.44470 -0.35800
O 	O 	0.89940 0.86960 0.64970 -0.41800
O 	O 	0.88180 0.82930 0.59540 -0.31500
Cd	Cd	0.92395 0.06204 0.12044 1.25000
C 	C 	0.00640 0.88070 0.16440 -0.15100
C 	C 	0.03250 0.88590 0.20190 0.09100
H 	H 	0.04980 0.86390 0.21210 0.01700
C 	C 	0.03050 0.92670 0.22280 -0.18500
H 	H 	0.04320 0.93150 0.24940 0.10000
C 	C 	0.00890 0.95800 0.20150 0.16500
H 	H 	0.00970 0.98520 0.21360 -0.02400
C 	C 	0.98690 0.95400 0.16570 -0.24500
C 	C 	0.98590 0.91540 0.14620 0.17100
C 	C 	0.96300 0.91180 0.10270 0.04300
C 	C 	0.98760 0.91820 0.06490 -0.07200
C 	C 	0.96760 0.91600 0.02570 0.03900
H 	H 	0.98400 0.92000 0.00120 0.03700
C 	C 	0.92350 0.90810 0.02100 -0.11100
H 	H 	0.91040 0.90680 0.99430 0.08300
C 	C 	0.90150 0.90260 0.05830 0.04200
H 	H 	0.87220 0.89720 0.05640 0.03900
C 	C 	0.91900 0.90430 0.09850 -0.08200
C 	C 	0.00650 0.83730 0.14550 0.33800
C 	C 	0.96140 0.99300 0.14980 0.63400
C 	C 	0.03580 0.92120 0.06550 0.33900
C 	C 	0.88860 0.89560 0.13580 0.33300
O 	O 	0.00910 0.83110 0.10740 -0.32600
O 	O 	0.00250 0.80550 0.17240 -0.35100
O 	O 	0.92600 0.99620 0.14970 -0.50200
O 	O 	0.97770 0.01930 0.13100 -0.51900
O 	O 	0.05330 0.94640 0.08960 -0.36200
O 	O 	0.05530 0.90010 0.03860 -0.36400
O 	O 	0.85030 0.89940 0.13040 -0.42000
O 	O 	0.90460 0.88180 0.17070 -0.31400
Cd	Cd	0.42395 0.56204 0.62044 1.25000
C 	C 	0.50640 0.38070 0.66440 -0.14100
C 	C 	0.53250 0.38590 0.70190 0.09100
H 	H 	0.54980 0.36390 0.71210 0.01800
C 	C 	0.53050 0.42670 0.72280 -0.19000
H 	H 	0.54320 0.43150 0.74940 0.10200
C 	C 	0.50890 0.45800 0.70150 0.18000
H 	H 	0.50970 0.48520 0.71360 -0.03000
C 	C 	0.48690 0.45400 0.66570 -0.25500
C 	C 	0.48590 0.41540 0.64620 0.16300
C 	C 	0.46300 0.41180 0.60270 0.04100
C 	C 	0.48760 0.41820 0.56490 -0.07600
C 	C 	0.46760 0.41600 0.52570 0.02800
H 	H 	0.48400 0.42000 0.50120 0.04000
C 	C 	0.42350 0.40810 0.52100 -0.08500
H 	H 	0.41040 0.40680 0.49430 0.06600
C 	C 	0.40150 0.40260 0.55830 0.02700
H 	H 	0.37220 0.39720 0.55640 0.04400
C 	C 	0.41900 0.40430 0.59850 -0.07700
C 	C 	0.50650 0.33730 0.64550 0.33500
C 	C 	0.46140 0.49300 0.64980 0.62300
C 	C 	0.53580 0.42120 0.56550 0.34600
C 	C 	0.38860 0.39560 0.63580 0.33100
O 	O 	0.50910 0.33110 0.60740 -0.32100
O 	O 	0.50250 0.30550 0.67240 -0.34700
O 	O 	0.42600 0.49620 0.64970 -0.50400
O 	O 	0.47770 0.51930 0.63100 -0.51000
O 	O 	0.55330 0.44640 0.58960 -0.36200
O 	O 	0.55530 0.40010 0.53860 -0.36200
O 	O 	0.35030 0.39940 0.63040 -0.42100
O 	O 	0.40460 0.38180 0.67070 -0.31600
Cd	Cd	0.42395 0.43796 0.87956 1.25000
C 	C 	0.50640 0.61930 0.83560 -0.14300
C 	C 	0.53250 0.61410 0.79810 0.09200
H 	H 	0.54980 0.63610 0.78790 0.01700
C 	C 	0.53050 0.57330 0.77720 -0.19200
H 	H 	0.54320 0.56850 0.75060 0.10300
C 	C 	0.50890 0.54200 0.79850 0.18100
H 	H 	0.50970 0.51480 0.78640 -0.03000
C 	C 	0.48690 0.54600 0.83430 -0.25600
C 	C 	0.48590 0.58460 0.85380 0.16600
C 	C 	0.46300 0.58820 0.89730 0.03400
C 	C 	0.48760 0.58180 0.93510 -0.06500
C 	C 	0.46760 0.58400 0.97430 0.00800
H 	H 	0.48400 0.58000 0.99880 0.05100
C 	C 	0.42350 0.59190 0.97900 -0.04900
H 	H 	0.41040 0.59320 0.00570 0.04600
C 	C 	0.40150 0.59740 0.94170 0.00500
H 	H 	0.37220 0.60280 0.94360 0.05300
C 	C 	0.41900 0.59570 0.90150 -0.06600
C 	C 	0.50650 0.66270 0.85450 0.33600
C 	C 	0.46140 0.50700 0.85020 0.62300
C 	C 	0.53580 0.57880 0.93450 0.34200
C 	C 	0.38860 0.60440 0.86420 0.32700
O 	O 	0.50910 0.66890 0.89260 -0.32100
O 	O 	0.50250 0.69450 0.82760 -0.34700
O 	O 	0.42600 0.50380 0.85030 -0.50400
O 	O 	0.47770 0.48070 0.86900 -0.51000
O 	O 	0.55330 0.55360 0.91040 -0.36000
O 	O 	0.55530 0.59990 0.96140 -0.35900
O 	O 	0.35030 0.60060 0.86960 -0.41900
O 	O 	0.40460 0.61820 0.82930 -0.31500
Cd	Cd	0.92395 0.93796 0.37956 1.25100
C 	C 	0.00640 0.11930 0.33560 -0.14900
C 	C 	0.03250 0.11410 0.29810 0.08700
H 	H 	0.04980 0.13610 0.28790 0.01800
C 	C 	0.03050 0.07330 0.27720 -0.18100
H 	H 	0.04320 0.06850 0.25060 0.09600
C 	C 	0.00890 0.04200 0.29850 0.15600
H 	H 	0.00970 0.01480 0.28640 -0.02700
C 	C 	0.98690 0.04600 0.33430 -0.23700
C 	C 	0.98590 0.08460 0.35380 0.16800
C 	C 	0.96300 0.08820 0.39730 0.03700
C 	C 	0.98760 0.08180 0.43510 -0.06400
C 	C 	0.96760 0.08400 0.47430 0.02000
H 	H 	0.98400 0.08000 0.49880 0.04500
C 	C 	0.92350 0.09190 0.47900 -0.08000
H 	H 	0.91040 0.09320 0.50570 0.06300
C 	C 	0.90150 0.09740 0.44170 0.02200
H 	H 	0.87220 0.10280 0.44360 0.04500
C 	C 	0.91900 0.09570 0.40150 -0.07400
C 	C 	0.00650 0.16270 0.35450 0.33700
C 	C 	0.96140 0.00700 0.35020 0.60300
C 	C 	0.03580 0.07880 0.43450 0.33600
C 	C 	0.88860 0.10440 0.36420 0.33000
O 	O 	0.00910 0.16890 0.39260 -0.32500
O 	O 	0.00250 0.19450 0.32760 -0.35100
O 	O 	0.92600 0.00380 0.35030 -0.50100
O 	O 	0.97770 0.98070 0.36900 -0.49300
O 	O 	0.05330 0.05360 0.41040 -0.36400
O 	O 	0.05530 0.09990 0.46140 -0.36200
O 	O 	0.85030 0.10060 0.36960 -0.42200
O 	O 	0.90460 0.11820 0.32930 -0.31400
Cd	Cd	0.57605 0.93796 0.62044 1.25100
C 	C 	0.49360 0.11930 0.66440 -0.14000
C 	C 	0.46750 0.11410 0.70190 0.08900
H 	H 	0.45020 0.13610 0.71210 0.01800
C 	C 	0.46950 0.07330 0.72280 -0.18800
H 	H 	0.45680 0.06850 0.74940 0.10000
C 	C 	0.49110 0.04200 0.70150 0.17500
H 	H 	0.49030 0.01480 0.71360 -0.03100
C 	C 	0.51310 0.04600 0.66570 -0.25000
C 	C 	0.51410 0.08460 0.64620 0.16000
C 	C 	0.53700 0.08820 0.60270 0.04200
C 	C 	0.51240 0.08180 0.56490 -0.07800
C 	C 	0.53240 0.08400 0.52570 0.02800
H 	H 	0.51600 0.08000 0.50120 0.04000
C 	C 	0.57650 0.09190 0.52100 -0.08700
H 	H 	0.58960 0.09320 0.49430 0.06500
C 	C 	0.59850 0.09740 0.55830 0.02700
H 	H 	0.62780 0.10280 0.55640 0.04300
C 	C 	0.58100 0.09570 0.59850 -0.07800
C 	C 	0.49350 0.16270 0.64550 0.33500
C 	C 	0.53860 0.00700 0.64980 0.60700
C 	C 	0.46420 0.07880 0.56550 0.34700
C 	C 	0.61140 0.10440 0.63580 0.33200
O 	O 	0.49090 0.16890 0.60740 -0.32100
O 	O 	0.49750 0.19450 0.67240 -0.34700
O 	O 	0.57400 0.00380 0.64970 -0.50300
O 	O 	0.52230 0.98070 0.63100 -0.49800
O 	O 	0.44670 0.05360 0.58960 -0.36400
O 	O 	0.44470 0.09990 0.53860 -0.36200
O 	O 	0.64970 0.10060 0.63040 -0.42300
O 	O 	0.59540 0.11820 0.67070 -0.31700
Cd	Cd	0.07605 0.43796 0.12044 1.25000
C 	C 	0.99360 0.61930 0.16440 -0.13100
C 	C 	0.96750 0.61410 0.20190 0.09200
H 	H 	0.95020 0.63610 0.21210 0.01800
C 	C 	0.96950 0.57330 0.22280 -0.19600
H 	H 	0.95680 0.56850 0.24940 0.10600
C 	C 	0.99110 0.54200 0.20150 0.19700
H 	H 	0.99030 0.51480 0.21360 -0.03300
C 	C 	0.01310 0.54600 0.16570 -0.26600
C 	C 	0.01410 0.58460 0.14620 0.15300
C 	C 	0.03700 0.58820 0.10270 0.05300
C 	C 	0.01240 0.58180 0.06490 -0.10000
C 	C 	0.03240 0.58400 0.02570 0.05600
H 	H 	0.01600 0.58000 0.00120 0.02500
C 	C 	0.07650 0.59190 0.02100 -0.12800
H 	H 	0.08960 0.59320 0.99430 0.08700
C 	C 	0.09850 0.59740 0.05830 0.05300
H 	H 	0.12780 0.60280 0.05640 0.03400
C 	C 	0.08100 0.59570 0.09850 -0.09200
C 	C 	0.99350 0.66270 0.14550 0.33200
C 	C 	0.03860 0.50700 0.14980 0.62600
C 	C 	0.96420 0.57880 0.06550 0.36100
C 	C 	0.11140 0.60440 0.13580 0.33700
O 	O 	0.99090 0.66890 0.10740 -0.31700
O 	O 	0.99750 0.69450 0.17240 -0.34300
O 	O 	0.07400 0.50380 0.14970 -0.50600
O 	O 	0.02230 0.48070 0.13100 -0.51500
O 	O 	0.94670 0.55360 0.08960 -0.36400
O 	O 	0.94470 0.59990 0.03860 -0.36600
O 	O 	0.14970 0.60060 0.13040 -0.42300
O 	O 	0.09540 0.61820 0.17070 -0.31900
Cd	Cd	0.07605 0.56204 0.37956 1.25000
C 	C 	0.99360 0.38070 0.33560 -0.13200
C 	C 	0.96750 0.38590 0.29810 0.09300
H 	H 	0.95020 0.36390 0.28790 0.01800
C 	C 	0.96950 0.42670 0.27720 -0.19700
H 	H 	0.95680 0.43150 0.25060 0.10600
C 	C 	0.99110 0.45800 0.29850 0.19800
H 	H 	0.99030 0.48520 0.28640 -0.03300
C 	C 	0.01310 0.45400 0.33430 -0.26700
C 	C 	0.01410 0.41540 0.35380 0.15600
C 	C 	0.03700 0.41180 0.39730 0.04600
C 	C 	0.01240 0.41820 0.43510 -0.08900
C 	C 	0.03240 0.41600 0.47430 0.03600
H 	H 	0.01600 0.42000 0.49880 0.03500
C 	C 	0.07650 0.40810 0.47900 -0.09200
H 	H 	0.08960 0.40680 0.50570 0.06700
C 	C 	0.09850 0.40260 0.44170 0.03200
H 	H 	0.12780 0.39720 0.44360 0.04300
C 	C 	0.08100 0.40430 0.40150 -0.08100
C 	C 	0.99350 0.33730 0.35450 0.33300
C 	C 	0.03860 0.49300 0.35020 0.62700
C 	C 	0.96420 0.42120 0.43450 0.35700
C 	C 	0.11140 0.39560 0.36420 0.33300
O 	O 	0.99090 0.33110 0.39260 -0.31700
O 	O 	0.99750 0.30550 0.32760 -0.34300
O 	O 	0.07400 0.49620 0.35030 -0.50600
O 	O 	0.02230 0.51930 0.36900 -0.51400
O 	O 	0.94670 0.44640 0.41040 -0.36200
O 	O 	0.94470 0.40010 0.46140 -0.36300
O 	O 	0.14970 0.39940 0.36960 -0.42100
O 	O 	0.09540 0.38180 0.32930 -0.31800
Cd	Cd	0.57605 0.06204 0.87956 1.25000
C 	C 	0.49360 0.88070 0.83560 -0.14400
C 	C 	0.46750 0.88590 0.79810 0.09400
H 	H 	0.45020 0.86390 0.78790 0.01700
C 	C 	0.46950 0.92670 0.77720 -0.19400
H 	H 	0.45680 0.93150 0.75060 0.10500
C 	C 	0.49110 0.95800 0.79850 0.18500
H 	H 	0.49030 0.98520 0.78640 -0.02900
C 	C 	0.51310 0.95400 0.83430 -0.26100
C 	C 	0.51410 0.91540 0.85380 0.16900
C 	C 	0.53700 0.91180 0.89730 0.03300
C 	C 	0.51240 0.91820 0.93510 -0.06400
C 	C 	0.53240 0.91600 0.97430 0.00800
H 	H 	0.51600 0.92000 0.99880 0.05100
C 	C 	0.57650 0.90810 0.97900 -0.04800
H 	H 	0.58960 0.90680 0.00570 0.04700
C 	C 	0.59850 0.90260 0.94170 0.00500
H 	H 	0.62780 0.89720 0.94360 0.05400
C 	C 	0.58100 0.90430 0.90150 -0.06500
C 	C 	0.49350 0.83730 0.85450 0.33600
C 	C 	0.53860 0.99300 0.85020 0.63900
C 	C 	0.46420 0.92120 0.93450 0.34200
C 	C 	0.61140 0.89560 0.86420 0.32700
O 	O 	0.49090 0.83110 0.89260 -0.32100
O 	O 	0.49750 0.80550 0.82760 -0.34800
O 	O 	0.57400 0.99620 0.85030 -0.50400
O 	O 	0.52230 0.01930 0.86900 -0.52200
O 	O 	0.44670 0.94640 0.91040 -0.35800
O 	O 	0.44470 0.90010 0.96140 -0.35800
O 	O 	0.64970 0.89940 0.86960 -0.41800
O 	O 	0.59540 0.88180 0.82930 -0.31500
Cd	Cd	0.12044 0.92395 0.06204 1.25000
C 	C 	0.16440 0.00640 0.88070 -0.15100
C 	C 	0.20190 0.03250 0.88590 0.09100
H 	H 	0.21210 0.04980 0.86390 0.01700
C 	C 	0.22280 0.03050 0.92670 -0.18500
H 	H 	0.24940 0.04320 0.93150 0.10000
C 	C 	0.20150 0.00890 0.95800 0.16500
H 	H 	0.21360 0.00970 0.98520 -0.02400
C 	C 	0.16570 0.98690 0.95400 -0.24500
C 	C 	0.14620 0.98590 0.91540 0.17100
C 	C 	0.10270 0.96300 0.91180 0.04300
C 	C 	0.06490 0.98760 0.91820 -0.07200
C 	C 	0.02570 0.96760 0.91600 0.03900
H 	H 	0.00120 0.98400 0.92000 0.03700
C 	C 	0.02100 0.92350 0.90810 -0.11100
H 	H 	0.99430 0.91040 0.90680 0.08300
C 	C 	0.05830 0.90150 0.90260 0.04200
H 	H 	0.05640 0.87220 0.89720 0.03900
C 	C 	0.09850 0.91900 0.90430 -0.08200
C 	C 	0.14550 0.00650 0.83730 0.33800
C 	C 	0.14980 0.96140 0.99300 0.63400
C 	C 	0.06550 0.03580 0.92120 0.33900
C 	C 	0.13580 0.88860 0.89560 0.33300
O 	O 	0.10740 0.00910 0.83110 -0.32600
O 	O 	0.17240 0.00250 0.80550 -0.35100
O 	O 	0.14970 0.92600 0.99620 -0.50200
O 	O 	0.13100 0.97770 0.01930 -0.51900
O 	O 	0.08960 0.05330 0.94640 -0.36200
O 	O 	0.03860 0.05530 0.90010 -0.36400
O 	O 	0.13040 0.85030 0.89940 -0.42000
O 	O 	0.17070 0.90460 0.88180 -0.31400
Cd	Cd	0.62044 0.42395 0.56204 1.25000
C 	C 	0.66440 0.50640 0.38070 -0.14100
C 	C 	0.70190 0.53250 0.38590 0.09100
H 	H 	0.71210 0.54980 0.36390 0.01800
C 	C 	0.72280 0.53050 0.42670 -0.19000
H 	H 	0.74940 0.54320 0.43150 0.10200
C 	C 	0.70150 0.50890 0.45800 0.18000
H 	H 	0.71360 0.50970 0.48520 -0.03000
C 	C 	0.66570 0.48690 0.45400 -0.25500
C 	C 	0.64620 0.48590 0.41540 0.16300
C 	C 	0.60270 0.46300 0.41180 0.04100
C 	C 	0.56490 0.48760 0.41820 -0.07600
C 	C 	0.52570 0.46760 0.41600 0.02800
H 	H 	0.50120 0.48400 0.42000 0.04000
C 	C 	0.52100 0.42350 0.40810 -0.08500
H 	H 	0.49430 0.41040 0.40680 0.06600
C 	C 	0.55830 0.40150 0.40260 0.02700
H 	H 	0.55640 0.37220 0.39720 0.04400
C 	C 	0.59850 0.41900 0.40430 -0.07700
C 	C 	0.64550 0.50650 0.33730 0.33500
C 	C 	0.64980 0.46140 0.49300 0.62300
C 	C 	0.56550 0.53580 0.42120 0.34600
C 	C 	0.63580 0.38860 0.39560 0.33100
O 	O 	0.60740 0.50910 0.33110 -0.32100
O 	O 	0.67240 0.50250 0.30550 -0.34700
O 	O 	0.64970 0.42600 0.49620 -0.50400
O 	O 	0.63100 0.47770 0.51930 -0.51000
O 	O 	0.58960 0.55330 0.44640 -0.36200
O 	O 	0.53860 0.55530 0.40010 -0.36200
O 	O 	0.63040 0.35030 0.39940 -0.42100
O 	O 	0.67070 0.40460 0.38180 -0.31600
Cd	Cd	0.87956 0.42395 0.43796 1.25000
C 	C 	0.83560 0.50640 0.61930 -0.14300
C 	C 	0.79810 0.53250 0.61410 0.09200
H 	H 	0.78790 0.54980 0.63610 0.01700
C 	C 	0.77720 0.53050 0.57330 -0.19200
H 	H 	0.75060 0.54320 0.56850 0.10300
C 	C 	0.79850 0.50890 0.54200 0.18100
H 	H 	0.78640 0.50970 0.51480 -0.03000
C 	C 	0.83430 0.48690 0.54600 -0.25600
C 	C 	0.85380 0.48590 0.58460 0.16600
C 	C 	0.89730 0.46300 0.58820 0.03400
C 	C 	0.93510 0.48760 0.58180 -0.06500
C 	C 	0.97430 0.46760 0.58400 0.00800
H 	H 	0.99880 0.48400 0.58000 0.05100
C 	C 	0.97900 0.42350 0.59190 -0.04900
H 	H 	0.00570 0.41040 0.59320 0.04600
C 	C 	0.94170 0.40150 0.59740 0.00500
H 	H 	0.94360 0.37220 0.60280 0.05300
C 	C 	0.90150 0.41900 0.59570 -0.06600
C 	C 	0.85450 0.50650 0.66270 0.33600
C 	C 	0.85020 0.46140 0.50700 0.62300
C 	C 	0.93450 0.53580 0.57880 0.34200
C 	C 	0.86420 0.38860 0.60440 0.32700
O 	O 	0.89260 0.50910 0.66890 -0.32100
O 	O 	0.82760 0.50250 0.69450 -0.34700
O 	O 	0.85030 0.42600 0.50380 -0.50400
O 	O 	0.86900 0.47770 0.48070 -0.51000
O 	O 	0.91040 0.55330 0.55360 -0.36000
O 	O 	0.96140 0.55530 0.59990 -0.35900
O 	O 	0.86960 0.35030 0.60060 -0.41900
O 	O 	0.82930 0.40460 0.61820 -0.31500
Cd	Cd	0.37956 0.92395 0.93796 1.25100
C 	C 	0.33560 0.00640 0.11930 -0.14900
C 	C 	0.29810 0.03250 0.11410 0.08700
H 	H 	0.28790 0.04980 0.13610 0.01800
C 	C 	0.27720 0.03050 0.07330 -0.18100
H 	H 	0.25060 0.04320 0.06850 0.09600
C 	C 	0.29850 0.00890 0.04200 0.15600
H 	H 	0.28640 0.00970 0.01480 -0.02700
C 	C 	0.33430 0.98690 0.04600 -0.23700
C 	C 	0.35380 0.98590 0.08460 0.16800
C 	C 	0.39730 0.96300 0.08820 0.03700
C 	C 	0.43510 0.98760 0.08180 -0.06400
C 	C 	0.47430 0.96760 0.08400 0.02000
H 	H 	0.49880 0.98400 0.08000 0.04500
C 	C 	0.47900 0.92350 0.09190 -0.08000
H 	H 	0.50570 0.91040 0.09320 0.06300
C 	C 	0.44170 0.90150 0.09740 0.02200
H 	H 	0.44360 0.87220 0.10280 0.04500
C 	C 	0.40150 0.91900 0.09570 -0.07400
C 	C 	0.35450 0.00650 0.16270 0.33700
C 	C 	0.35020 0.96140 0.00700 0.60300
C 	C 	0.43450 0.03580 0.07880 0.33600
C 	C 	0.36420 0.88860 0.10440 0.33000
O 	O 	0.39260 0.00910 0.16890 -0.32500
O 	O 	0.32760 0.00250 0.19450 -0.35100
O 	O 	0.35030 0.92600 0.00380 -0.50100
O 	O 	0.36900 0.97770 0.98070 -0.49300
O 	O 	0.41040 0.05330 0.05360 -0.36400
O 	O 	0.46140 0.05530 0.09990 -0.36200
O 	O 	0.36960 0.85030 0.10060 -0.42200
O 	O 	0.32930 0.90460 0.11820 -0.31400
Cd	Cd	0.62044 0.57605 0.93796 1.25100
C 	C 	0.66440 0.49360 0.11930 -0.14000
C 	C 	0.70190 0.46750 0.11410 0.08900
H 	H 	0.71210 0.45020 0.13610 0.01800
C 	C 	0.72280 0.46950 0.07330 -0.18800
H 	H 	0.74940 0.45680 0.06850 0.10000
C 	C 	0.70150 0.49110 0.04200 0.17500
H 	H 	0.71360 0.49030 0.01480 -0.03100
C 	C 	0.66570 0.51310 0.04600 -0.25000
C 	C 	0.64620 0.51410 0.08460 0.16000
C 	C 	0.60270 0.53700 0.08820 0.04200
C 	C 	0.56490 0.51240 0.08180 -0.07800
C 	C 	0.52570 0.53240 0.08400 0.02800
H 	H 	0.50120 0.51600 0.08000 0.04000
C 	C 	0.52100 0.57650 0.09190 -0.08700
H 	H 	0.49430 0.58960 0.09320 0.06500
C 	C 	0.55830 0.59850 0.09740 0.02700
H 	H 	0.55640 0.62780 0.10280 0.04300
C 	C 	0.59850 0.58100 0.09570 -0.07800
C 	C 	0.64550 0.49350 0.16270 0.33500
C 	C 	0.64980 0.53860 0.00700 0.60700
C 	C 	0.56550 0.46420 0.07880 0.34700
C 	C 	0.63580 0.61140 0.10440 0.33200
O 	O 	0.60740 0.49090 0.16890 -0.32100
O 	O 	0.67240 0.49750 0.19450 -0.34700
O 	O 	0.64970 0.57400 0.00380 -0.50300
O 	O 	0.63100 0.52230 0.98070 -0.49800
O 	O 	0.58960 0.44670 0.05360 -0.36400
O 	O 	0.53860 0.44470 0.09990 -0.36200
O 	O 	0.63040 0.64970 0.10060 -0.42300
O 	O 	0.67070 0.59540 0.11820 -0.31700
Cd	Cd	0.12044 0.07605 0.43796 1.25000
C 	C 	0.16440 0.99360 0.61930 -0.13100
C 	C 	0.20190 0.96750 0.61410 0.09200
H 	H 	0.21210 0.95020 0.63610 0.01800
C 	C 	0.22280 0.96950 0.57330 -0.19600
H 	H 	0.24940 0.95680 0.56850 0.10600
C 	C 	0.20150 0.99110 0.54200 0.19700
H 	H 	0.21360 0.99030 0.51480 -0.03300
C 	C 	0.16570 0.01310 0.54600 -0.26600
C 	C 	0.14620 0.01410 0.58460 0.15300
C 	C 	0.10270 0.03700 0.58820 0.05300
C 	C 	0.06490 0.01240 0.58180 -0.10000
C 	C 	0.02570 0.03240 0.58400 0.05600
H 	H 	0.00120 0.01600 0.58000 0.02500
C 	C 	0.02100 0.07650 0.59190 -0.12800
H 	H 	0.99430 0.08960 0.59320 0.08700
C 	C 	0.05830 0.09850 0.59740 0.05300
H 	H 	0.05640 0.12780 0.60280 0.03400
C 	C 	0.09850 0.08100 0.59570 -0.09200
C 	C 	0.14550 0.99350 0.66270 0.33200
C 	C 	0.14980 0.03860 0.50700 0.62600
C 	C 	0.06550 0.96420 0.57880 0.36100
C 	C 	0.13580 0.11140 0.60440 0.33700
O 	O 	0.10740 0.99090 0.66890 -0.31700
O 	O 	0.17240 0.99750 0.69450 -0.34300
O 	O 	0.14970 0.07400 0.50380 -0.50600
O 	O 	0.13100 0.02230 0.48070 -0.51500
O 	O 	0.08960 0.94670 0.55360 -0.36400
O 	O 	0.03860 0.94470 0.59990 -0.36600
O 	O 	0.13040 0.14970 0.60060 -0.42300
O 	O 	0.17070 0.09540 0.61820 -0.31900
Cd	Cd	0.37956 0.07605 0.56204 1.25000
C 	C 	0.33560 0.99360 0.38070 -0.13200
C 	C 	0.29810 0.96750 0.38590 0.09300
H 	H 	0.28790 0.95020 0.36390 0.01800
C 	C 	0.27720 0.96950 0.42670 -0.19700
H 	H 	0.25060 0.95680 0.43150 0.10600
C 	C 	0.29850 0.99110 0.45800 0.19800
H 	H 	0.28640 0.99030 0.48520 -0.03300
C 	C 	0.33430 0.01310 0.45400 -0.26700
C 	C 	0.35380 0.01410 0.41540 0.15600
C 	C 	0.39730 0.03700 0.41180 0.04600
C 	C 	0.43510 0.01240 0.41820 -0.08900
C 	C 	0.47430 0.03240 0.41600 0.03600
H 	H 	0.49880 0.01600 0.42000 0.03500
C 	C 	0.47900 0.07650 0.40810 -0.09200
H 	H 	0.50570 0.08960 0.40680 0.06700
C 	C 	0.44170 0.09850 0.40260 0.03200
H 	H 	0.44360 0.12780 0.39720 0.04300
C 	C 	0.40150 0.08100 0.40430 -0.08100
C 	C 	0.35450 0.99350 0.33730 0.33300
C 	C 	0.35020 0.03860 0.49300 0.62700
C 	C 	0.43450 0.96420 0.42120 0.35700
C 	C 	0.36420 0.11140 0.39560 0.33300
O 	O 	0.39260 0.99090 0.33110 -0.31700
O 	O 	0.32760 0.99750 0.30550 -0.34300
O 	O 	0.35030 0.07400 0.49620 -0.50600
O 	O 	0.36900 0.02230 0.51930 -0.51400
O 	O 	0.41040 0.94670 0.44640 -0.36200
O 	O 	0.46140 0.94470 0.40010 -0.36300
O 	O 	0.36960 0.14970 0.39940 -0.42100
O 	O 	0.32930 0.09540 0.38180 -0.31800
Cd	Cd	0.87956 0.57605 0.06204 1.25000
C 	C 	0.83560 0.49360 0.88070 -0.14400
C 	C 	0.79810 0.46750 0.88590 0.09400
H 	H 	0.78790 0.45020 0.86390 0.01700
C 	C 	0.77720 0.46950 0.92670 -0.19400
H 	H 	0.75060 0.45680 0.93150 0.10500
C 	C 	0.79850 0.49110 0.95800 0.18500
H 	H 	0.78640 0.49030 0.98520 -0.02900
C 	C 	0.83430 0.51310 0.95400 -0.26100
C 	C 	0.85380 0.51410 0.91540 0.16900
C 	C 	0.89730 0.53700 0.91180 0.03300
C 	C 	0.93510 0.51240 0.91820 -0.06400
C 	C 	0.97430 0.53240 0.91600 0.00800
H 	H 	0.99880 0.51600 0.92000 0.05100
C 	C 	0.97900 0.57650 0.90810 -0.04800
H 	H 	0.00570 0.58960 0.90680 0.04700
C 	C 	0.94170 0.59850 0.90260 0.00500
H 	H 	0.94360 0.62780 0.89720 0.05400
C 	C 	0.90150 0.58100 0.90430 -0.06500
C 	C 	0.85450 0.49350 0.83730 0.33600
C 	C 	0.85020 0.53860 0.99300 0.63900
C 	C 	0.93450 0.46420 0.92120 0.34200
C 	C 	0.86420 0.61140 0.89560 0.32700
O 	O 	0.89260 0.49090 0.83110 -0.32100
O 	O 	0.82760 0.49750 0.80550 -0.34800
O 	O 	0.85030 0.57400 0.99620 -0.50400
O 	O 	0.86900 0.52230 0.01930 -0.52200
O 	O 	0.91040 0.44670 0.94640 -0.35800
O 	O 	0.96140 0.44470 0.90010 -0.35800
O 	O 	0.86960 0.64970 0.89940 -0.41800
O 	O 	0.82930 0.59540 0.88180 -0.31500
Cd	Cd	0.37044 0.31204 0.17395 1.25000
C 	C 	0.41440 0.13070 0.25640 -0.14200
C 	C 	0.45190 0.13590 0.28250 0.09100
H 	H 	0.46210 0.11390 0.29980 0.01700
C 	C 	0.47280 0.17670 0.28050 -0.19100
H 	H 	0.49940 0.18150 0.29320 0.10200
C 	C 	0.45150 0.20800 0.25890 0.18000
H 	H 	0.46360 0.23520 0.25970 -0.03000
C 	C 	0.41570 0.20400 0.23690 -0.25500
C 	C 	0.39620 0.16540 0.23590 0.16400
C 	C 	0.35270 0.16180 0.21300 0.04100
C 	C 	0.31490 0.16820 0.23760 -0.07600
C 	C 	0.27570 0.16600 0.21760 0.02800
H 	H 	0.25120 0.17000 0.23400 0.04000
C 	C 	0.27100 0.15810 0.17350 -0.08600
H 	H 	0.24430 0.15680 0.16040 0.06500
C 	C 	0.30830 0.15260 0.15150 0.02700
H 	H 	0.30640 0.14720 0.12220 0.04300
C 	C 	0.34850 0.15430 0.16900 -0.07800
C 	C 	0.39550 0.08730 0.25650 0.33600
C 	C 	0.39980 0.24300 0.21140 0.62300
C 	C 	0.31550 0.17120 0.28580 0.34600
C 	C 	0.38580 0.14560 0.13860 0.33200
O 	O 	0.35740 0.08110 0.25910 -0.32300
O 	O 	0.42240 0.05550 0.25250 -0.35000
O 	O 	0.39970 0.24620 0.17600 -0.50400
O 	O 	0.38100 0.26930 0.22770 -0.51000
O 	O 	0.33960 0.19640 0.30330 -0.36200
O 	O 	0.28860 0.15010 0.30530 -0.36300
O 	O 	0.38040 0.14940 0.10030 -0.42300
O 	O 	0.42070 0.13180 0.15460 -0.31700
Cd	Cd	0.87044 0.81204 0.67395 1.25100
C 	C 	0.91440 0.63070 0.75640 -0.14100
C 	C 	0.95190 0.63590 0.78250 0.09100
H 	H 	0.96210 0.61390 0.79980 0.01900
C 	C 	0.97280 0.67670 0.78050 -0.18900
H 	H 	0.99940 0.68150 0.79320 0.10500
C 	C 	0.95150 0.70800 0.75890 0.17900
H 	H 	0.96360 0.73520 0.75970 -0.02700
C 	C 	0.91570 0.70400 0.73690 -0.25300
C 	C 	0.89620 0.66540 0.73590 0.16300
C 	C 	0.85270 0.66180 0.71300 0.04100
C 	C 	0.81490 0.66820 0.73760 -0.07600
C 	C 	0.77570 0.66600 0.71760 0.02700
H 	H 	0.75120 0.67000 0.73400 0.04100
C 	C 	0.77100 0.65810 0.67350 -0.08500
H 	H 	0.74430 0.65680 0.66040 0.06500
C 	C 	0.80830 0.65260 0.65150 0.02600
H 	H 	0.80640 0.64720 0.62220 0.04400
C 	C 	0.84850 0.65430 0.66900 -0.07700
C 	C 	0.89550 0.58730 0.75650 0.33500
C 	C 	0.89980 0.74300 0.71140 0.62200
C 	C 	0.81550 0.67120 0.78580 0.34600
C 	C 	0.88580 0.64560 0.63860 0.33100
O 	O 	0.85740 0.58110 0.75910 -0.32100
O 	O 	0.92240 0.55550 0.75250 -0.34600
O 	O 	0.89970 0.74620 0.67600 -0.50200
O 	O 	0.88100 0.76930 0.72770 -0.50900
O 	O 	0.83960 0.69640 0.80330 -0.36100
O 	O 	0.78860 0.65010 0.80530 -0.36200
O 	O 	0.88040 0.64940 0.60030 -0.42000
O 	O 	0.92070 0.63180 0.65460 -0.31500
Cd	Cd	0.12956 0.68796 0.67395 1.25000
C 	C 	0.08560 0.86930 0.75640 -0.14100
C 	C 	0.04810 0.86410 0.78250 0.09100
H 	H 	0.03790 0.88610 0.79980 0.01700
C 	C 	0.02720 0.82330 0.78050 -0.19100
H 	H 	0.00060 0.81850 0.79320 0.10000
C 	C 	0.04850 0.79200 0.75890 0.18000
H 	H 	0.03640 0.76480 0.75970 -0.03200
C 	C 	0.08430 0.79600 0.73690 -0.25600
C 	C 	0.10380 0.83460 0.73590 0.16400
C 	C 	0.14730 0.83820 0.71300 0.04100
C 	C 	0.18510 0.83180 0.73760 -0.07600
C 	C 	0.22430 0.83400 0.71760 0.02800
H 	H 	0.24880 0.83000 0.73400 0.04100
C 	C 	0.22900 0.84190 0.67350 -0.08500
H 	H 	0.25570 0.84320 0.66040 0.06600
C 	C 	0.19170 0.84740 0.65150 0.02700
H 	H 	0.19360 0.85280 0.62220 0.04500
C 	C 	0.15150 0.84570 0.66900 -0.07700
C 	C 	0.10450 0.91270 0.75650 0.33500
C 	C 	0.10020 0.75700 0.71140 0.62300
C 	C 	0.18450 0.82880 0.78580 0.34600
C 	C 	0.11420 0.85440 0.63860 0.33100
O 	O 	0.14260 0.91890 0.75910 -0.31900
O 	O 	0.07760 0.94450 0.75250 -0.34500
O 	O 	0.10030 0.75380 0.67600 -0.50500
O 	O 	0.11900 0.73070 0.72770 -0.51100
O 	O 	0.16040 0.80360 0.80330 -0.36200
O 	O 	0.21140 0.84990 0.80530 -0.36100
O 	O 	0.11960 0.85060 0.60030 -0.42100
O 	O 	0.07930 0.86820 0.65460 -0.31700
Cd	Cd	0.62956 0.18796 0.17395 1.25000
C 	C 	0.58560 0.36930 0.25640 -0.14100
C 	C 	0.54810 0.36410 0.28250 0.09100
H 	H 	0.53790 0.38610 0.29980 0.01800
C 	C 	0.52720 0.32330 0.28050 -0.19100
H 	H 	0.50060 0.31850 0.29320 0.10200
C 	C 	0.54850 0.29200 0.25890 0.18000
H 	H 	0.53640 0.26480 0.25970 -0.03000
C 	C 	0.58430 0.29600 0.23690 -0.25500
C 	C 	0.60380 0.33460 0.23590 0.16300
C 	C 	0.64730 0.33820 0.21300 0.04100
C 	C 	0.68510 0.33180 0.23760 -0.07600
C 	C 	0.72430 0.33400 0.21760 0.02800
H 	H 	0.74880 0.33000 0.23400 0.04000
C 	C 	0.72900 0.34190 0.17350 -0.08500
H 	H 	0.75570 0.34320 0.16040 0.06500
C 	C 	0.69170 0.34740 0.15150 0.02700
H 	H 	0.69360 0.35280 0.12220 0.04400
C 	C 	0.65150 0.34570 0.16900 -0.07700
C 	C 	0.60450 0.41270 0.25650 0.33500
C 	C 	0.60020 0.25700 0.21140 0.62300
C 	C 	0.68450 0.32880 0.28580 0.34600
C 	C 	0.61420 0.35440 0.13860 0.33200
O 	O 	0.64260 0.41890 0.25910 -0.32100
O 	O 	0.57760 0.44450 0.25250 -0.34700
O 	O 	0.60030 0.25380 0.17600 -0.50400
O 	O 	0.61900 0.23070 0.22770 -0.51000
O 	O 	0.66040 0.30360 0.30330 -0.36200
O 	O 	0.71140 0.34990 0.30530 -0.36200
O 	O 	0.61960 0.35060 0.10030 -0.42200
O 	O 	0.57930 0.36820 0.15460 -0.31600
Cd	Cd	0.87044 0.18796 0.82605 1.25100
C 	C 	0.91440 0.36930 0.74360 -0.14100
C 	C 	0.95190 0.36410 0.71750 0.09100
H 	H 	0.96210 0.38610 0.70020 0.01900
C 	C 	0.97280 0.32330 0.71950 -0.18900
H 	H 	0.99940 0.31850 0.70680 0.10400
C 	C 	0.95150 0.29200 0.74110 0.17900
H 	H 	0.96360 0.26480 0.74030 -0.02700
C 	C 	0.91570 0.29600 0.76310 -0.25300
C 	C 	0.89620 0.33460 0.76410 0.16300
C 	C 	0.85270 0.33820 0.78700 0.04100
C 	C 	0.81490 0.33180 0.76240 -0.07600
C 	C 	0.77570 0.33400 0.78240 0.02700
H 	H 	0.75120 0.33000 0.76600 0.04100
C 	C 	0.77100 0.34190 0.82650 -0.08500
H 	H 	0.74430 0.34320 0.83960 0.06600
C 	C 	0.80830 0.34740 0.84850 0.02600
H 	H 	0.80640 0.35280 0.87780 0.04500
C 	C 	0.84850 0.34570 0.83100 -0.07600
C 	C 	0.89550 0.41270 0.74350 0.33500
C 	C 	0.89980 0.25700 0.78860 0.62200
C 	C 	0.81550 0.32880 0.71420 0.34600
C 	C 	0.88580 0.35440 0.86140 0.33100
O 	O 	0.85740 0.41890 0.74090 -0.32100
O 	O 	0.92240 0.44450 0.74750 -0.34600
O 	O 	0.89970 0.25380 0.82400 -0.50200
O 	O 	0.88100 0.23070 0.77230 -0.50900
O 	O 	0.83960 0.30360 0.69670 -0.36200
O 	O 	0.78860 0.34990 0.69470 -0.36200
O 	O 	0.88040 0.35060 0.89970 -0.41900
O 	O 	0.92070 0.36820 0.84540 -0.31500
Cd	Cd	0.37044 0.68796 0.32605 1.25000
C 	C 	0.41440 0.86930 0.24360 -0.14000
C 	C 	0.45190 0.86410 0.21750 0.09000
H 	H 	0.46210 0.88610 0.20020 0.01900
C 	C 	0.47280 0.82330 0.21950 -0.19000
H 	H 	0.49940 0.81850 0.20680 0.10200
C 	C 	0.45150 0.79200 0.24110 0.17900
H 	H 	0.46360 0.76480 0.24030 -0.03000
C 	C 	0.41570 0.79600 0.26310 -0.25400
C 	C 	0.39620 0.83460 0.26410 0.16300
C 	C 	0.35270 0.83820 0.28700 0.04100
C 	C 	0.31490 0.83180 0.26240 -0.07600
C 	C 	0.27570 0.83400 0.28240 0.02800
H 	H 	0.25120 0.83000 0.26600 0.04100
C 	C 	0.27100 0.84190 0.32650 -0.08500
H 	H 	0.24430 0.84320 0.33960 0.06600
C 	C 	0.30830 0.84740 0.34850 0.02700
H 	H 	0.30640 0.85280 0.37780 0.04500
C 	C 	0.34850 0.84570 0.33100 -0.07700
C 	C 	0.39550 0.91270 0.24350 0.33400
C 	C 	0.39980 0.75700 0.28860 0.62200
C 	C 	0.31550 0.82880 0.21420 0.34600
C 	C 	0.38580 0.85440 0.36140 0.33100
O 	O 	0.35740 0.91890 0.24090 -0.31900
O 	O 	0.42240 0.94450 0.24750 -0.34400
O 	O 	0.39970 0.75380 0.32400 -0.50400
O 	O 	0.38100 0.73070 0.27230 -0.51000
O 	O 	0.33960 0.80360 0.19670 -0.36200
O 	O 	0.28860 0.84990 0.19470 -0.36100
O 	O 	0.38040 0.85060 0.39970 -0.42100
O 	O 	0.42070 0.86820 0.34540 -0.31600
Cd	Cd	0.62956 0.81204 0.32605 1.25000
C 	C 	0.58560 0.63070 0.24360 -0.14100
C 	C 	0.54810 0.63590 0.21750 0.09100
H 	H 	0.53790 0.61390 0.20020 0.01800
C 	C 	0.52720 0.67670 0.21950 -0.19000
H 	H 	0.50060 0.68150 0.20680 0.10200
C 	C 	0.54850 0.70800 0.24110 0.17900
H 	H 	0.53640 0.73520 0.24030 -0.03000
C 	C 	0.58430 0.70400 0.26310 -0.25400
C 	C 	0.60380 0.66540 0.26410 0.16300
C 	C 	0.64730 0.66180 0.28700 0.04100
C 	C 	0.68510 0.66820 0.26240 -0.07600
C 	C 	0.72430 0.66600 0.28240 0.02800
H 	H 	0.74880 0.67000 0.26600 0.04000
C 	C 	0.72900 0.65810 0.32650 -0.08500
H 	H 	0.75570 0.65680 0.33960 0.06600
C 	C 	0.69170 0.65260 0.34850 0.02700
H 	H 	0.69360 0.64720 0.37780 0.04400
C 	C 	0.65150 0.65430 0.33100 -0.07700
C 	C 	0.60450 0.58730 0.24350 0.33500
C 	C 	0.60020 0.74300 0.28860 0.62300
C 	C 	0.68450 0.67120 0.21420 0.34600
C 	C 	0.61420 0.64560 0.36140 0.33100
O 	O 	0.64260 0.58110 0.24090 -0.32100
O 	O 	0.57760 0.55550 0.24750 -0.34700
O 	O 	0.60030 0.74620 0.32400 -0.50400
O 	O 	0.61900 0.76930 0.27230 -0.51000
O 	O 	0.66040 0.69640 0.19670 -0.36200
O 	O 	0.71140 0.65010 0.19470 -0.36200
O 	O 	0.61960 0.64940 0.39970 -0.42100
O 	O 	0.57930 0.63180 0.34540 -0.31600
Cd	Cd	0.12956 0.31204 0.82605 1.25000
C 	C 	0.08560 0.13070 0.74360 -0.14300
C 	C 	0.04810 0.13590 0.71750 0.09100
H 	H 	0.03790 0.11390 0.70020 0.01600
C 	C 	0.02720 0.17670 0.71950 -0.19200
H 	H 	0.00060 0.18150 0.70680 0.10000
C 	C 	0.04850 0.20800 0.74110 0.18000
H 	H 	0.03640 0.23520 0.74030 -0.03200
C 	C 	0.08430 0.20400 0.76310 -0.25600
C 	C 	0.10380 0.16540 0.76410 0.16400
C 	C 	0.14730 0.16180 0.78700 0.04100
C 	C 	0.18510 0.16820 0.76240 -0.07600
C 	C 	0.22430 0.16600 0.78240 0.02700
H 	H 	0.24880 0.17000 0.76600 0.04000
C 	C 	0.22900 0.15810 0.82650 -0.08500
H 	H 	0.25570 0.15680 0.83960 0.06600
C 	C 	0.19170 0.15260 0.84850 0.02600
H 	H 	0.19360 0.14720 0.87780 0.04500
C 	C 	0.15150 0.15430 0.83100 -0.07700
C 	C 	0.10450 0.08730 0.74350 0.33600
C 	C 	0.10020 0.24300 0.78860 0.62300
C 	C 	0.18450 0.17120 0.71420 0.34600
C 	C 	0.11420 0.14560 0.86140 0.33100
O 	O 	0.14260 0.08110 0.74090 -0.32300
O 	O 	0.07760 0.05550 0.74750 -0.35100
O 	O 	0.10030 0.24620 0.82400 -0.50400
O 	O 	0.11900 0.26930 0.77230 -0.51100
O 	O 	0.16040 0.19640 0.69670 -0.36200
O 	O 	0.21140 0.15010 0.69470 -0.36300
O 	O 	0.11960 0.14940 0.89970 -0.42100
O 	O 	0.07930 0.13180 0.84540 -0.31700
Cd	Cd	0.31204 0.17395 0.37044 1.25000
C 	C 	0.13070 0.25640 0.41440 -0.14200
C 	C 	0.13590 0.28250 0.45190 0.09100
H 	H 	0.11390 0.29980 0.46210 0.01700
C 	C 	0.17670 0.28050 0.47280 -0.19100
H 	H 	0.18150 0.29320 0.49940 0.10200
C 	C 	0.20800 0.25890 0.45150 0.18000
H 	H 	0.23520 0.25970 0.46360 -0.03000
C 	C 	0.20400 0.23690 0.41570 -0.25500
C 	C 	0.16540 0.23590 0.39620 0.16400
C 	C 	0.16180 0.21300 0.35270 0.04100
C 	C 	0.16820 0.23760 0.31490 -0.07600
C 	C 	0.16600 0.21760 0.27570 0.02800
H 	H 	0.17000 0.23400 0.25120 0.04000
C 	C 	0.15810 0.17350 0.27100 -0.08600
H 	H 	0.15680 0.16040 0.24430 0.06500
C 	C 	0.15260 0.15150 0.30830 0.02700
H 	H 	0.14720 0.12220 0.30640 0.04300
C 	C 	0.15430 0.16900 0.34850 -0.07800
C 	C 	0.08730 0.25650 0.39550 0.33600
C 	C 	0.24300 0.21140 0.39980 0.62300
C 	C 	0.17120 0.28580 0.31550 0.34600
C 	C 	0.14560 0.13860 0.38580 0.33200
O 	O 	0.08110 0.25910 0.35740 -0.32300
O 	O 	0.05550 0.25250 0.42240 -0.35000
O 	O 	0.24620 0.17600 0.39970 -0.50400
O 	O 	0.26930 0.22770 0.38100 -0.51000
O 	O 	0.19640 0.30330 0.33960 -0.36200
O 	O 	0.15010 0.30530 0.28860 -0.36300
O 	O 	0.14940 0.10030 0.38040 -0.42300
O 	O 	0.13180 0.15460 0.42070 -0.31700
Cd	Cd	0.81204 0.67395 0.87044 1.25100
C 	C 	0.63070 0.75640 0.91440 -0.14100
C 	C 	0.63590 0.78250 0.95190 0.09100
H 	H 	0.61390 0.79980 0.96210 0.01900
C 	C 	0.67670 0.78050 0.97280 -0.18900
H 	H 	0.68150 0.79320 0.99940 0.10500
C 	C 	0.70800 0.75890 0.95150 0.17900
H 	H 	0.73520 0.75970 0.96360 -0.02700
C 	C 	0.70400 0.73690 0.91570 -0.25300
C 	C 	0.66540 0.73590 0.89620 0.16300
C 	C 	0.66180 0.71300 0.85270 0.04100
C 	C 	0.66820 0.73760 0.81490 -0.07600
C 	C 	0.66600 0.71760 0.77570 0.02700
H 	H 	0.67000 0.73400 0.75120 0.04100
C 	C 	0.65810 0.67350 0.77100 -0.08500
H 	H 	0.65680 0.66040 0.74430 0.06500
C 	C 	0.65260 0.65150 0.80830 0.02600
H 	H 	0.64720 0.62220 0.80640 0.04400
C 	C 	0.65430 0.66900 0.84850 -0.07700
C 	C 	0.58730 0.75650 0.89550 0.33500
C 	C 	0.74300 0.71140 0.89980 0.62200
C 	C 	0.67120 0.78580 0.81550 0.34600
C 	C 	0.64560 0.63860 0.88580 0.33100
O 	O 	0.58110 0.75910 0.85740 -0.32100
O 	O 	0.55550 0.75250 0.92240 -0.34600
O 	O 	0.74620 0.67600 0.89970 -0.50200
O 	O 	0.76930 0.72770 0.88100 -0.50900
O 	O 	0.69640 0.80330 0.83960 -0.36100
O 	O 	0.65010 0.80530 0.78860 -0.36200
O 	O 	0.64940 0.60030 0.88040 -0.42000
O 	O 	0.63180 0.65460 0.92070 -0.31500
Cd	Cd	0.68796 0.67395 0.12956 1.25000
C 	C 	0.86930 0.75640 0.08560 -0.14100
C 	C 	0.86410 0.78250 0.04810 0.09100
H 	H 	0.88610 0.79980 0.03790 0.01700
C 	C 	0.82330 0.78050 0.02720 -0.19100
H 	H 	0.81850 0.79320 0.00060 0.10000
C 	C 	0.79200 0.75890 0.04850 0.18000
H 	H 	0.76480 0.75970 0.03640 -0.03200
C 	C 	0.79600 0.73690 0.08430 -0.25600
C 	C 	0.83460 0.73590 0.10380 0.16400
C 	C 	0.83820 0.71300 0.14730 0.04100
C 	C 	0.83180 0.73760 0.18510 -0.07600
C 	C 	0.83400 0.71760 0.22430 0.02800
H 	H 	0.83000 0.73400 0.24880 0.04100
C 	C 	0.84190 0.67350 0.22900 -0.08500
H 	H 	0.84320 0.66040 0.25570 0.06600
C 	C 	0.84740 0.65150 0.19170 0.02700
H 	H 	0.85280 0.62220 0.19360 0.04500
C 	C 	0.84570 0.66900 0.15150 -0.07700
C 	C 	0.91270 0.75650 0.10450 0.33500
C 	C 	0.75700 0.71140 0.10020 0.62300
C 	C 	0.82880 0.78580 0.18450 0.34600
C 	C 	0.85440 0.63860 0.11420 0.33100
O 	O 	0.91890 0.75910 0.14260 -0.31900
O 	O 	0.94450 0.75250 0.07760 -0.34500
O 	O 	0.75380 0.67600 0.10030 -0.50500
O 	O 	0.73070 0.72770 0.11900 -0.51100
O 	O 	0.80360 0.80330 0.16040 -0.36200
O 	O 	0.84990 0.80530 0.21140 -0.36100
O 	O 	0.85060 0.60030 0.11960 -0.42100
O 	O 	0.86820 0.65460 0.07930 -0.31700
Cd	Cd	0.18796 0.17395 0.62956 1.25000
C 	C 	0.36930 0.25640 0.58560 -0.14100
C 	C 	0.36410 0.28250 0.54810 0.09100
H 	H 	0.38610 0.29980 0.53790 0.01800
C 	C 	0.32330 0.28050 0.52720 -0.19100
H 	H 	0.31850 0.29320 0.50060 0.10200
C 	C 	0.29200 0.25890 0.54850 0.18000
H 	H 	0.26480 0.25970 0.53640 -0.03000
C 	C 	0.29600 0.23690 0.58430 -0.25500
C 	C 	0.33460 0.23590 0.60380 0.16300
C 	C 	0.33820 0.21300 0.64730 0.04100
C 	C 	0.33180 0.23760 0.68510 -0.07600
C 	C 	0.33400 0.21760 0.72430 0.02800
H 	H 	0.33000 0.23400 0.74880 0.04000
C 	C 	0.34190 0.17350 0.72900 -0.08500
H 	H 	0.34320 0.16040 0.75570 0.06500
C 	C 	0.34740 0.15150 0.69170 0.02700
H 	H 	0.35280 0.12220 0.69360 0.04400
C 	C 	0.34570 0.16900 0.65150 -0.07700
C 	C 	0.41270 0.25650 0.60450 0.33500
C 	C 	0.25700 0.21140 0.60020 0.62300
C 	C 	0.32880 0.28580 0.68450 0.34600
C 	C 	0.35440 0.13860 0.61420 0.33200
O 	O 	0.41890 0.25910 0.64260 -0.32100
O 	O 	0.44450 0.25250 0.57760 -0.34700
O 	O 	0.25380 0.17600 0.60030 -0.50400
O 	O 	0.23070 0.22770 0.61900 -0.51000
O 	O 	0.30360 0.30330 0.66040 -0.36200
O 	O 	0.34990 0.30530 0.71140 -0.36200
O 	O 	0.35060 0.10030 0.61960 -0.42200
O 	O 	0.36820 0.15460 0.57930 -0.31600
Cd	Cd	0.18796 0.82605 0.87044 1.25100
C 	C 	0.36930 0.74360 0.91440 -0.14100
C 	C 	0.36410 0.71750 0.95190 0.09100
H 	H 	0.38610 0.70020 0.96210 0.01900
C 	C 	0.32330 0.71950 0.97280 -0.18900
H 	H 	0.31850 0.70680 0.99940 0.10400
C 	C 	0.29200 0.74110 0.95150 0.17900
H 	H 	0.26480 0.74030 0.96360 -0.02700
C 	C 	0.29600 0.76310 0.91570 -0.25300
C 	C 	0.33460 0.76410 0.89620 0.16300
C 	C 	0.33820 0.78700 0.85270 0.04100
C 	C 	0.33180 0.76240 0.81490 -0.07600
C 	C 	0.33400 0.78240 0.77570 0.02700
H 	H 	0.33000 0.76600 0.75120 0.04100
C 	C 	0.34190 0.82650 0.77100 -0.08500
H 	H 	0.34320 0.83960 0.74430 0.06600
C 	C 	0.34740 0.84850 0.80830 0.02600
H 	H 	0.35280 0.87780 0.80640 0.04500
C 	C 	0.34570 0.83100 0.84850 -0.07600
C 	C 	0.41270 0.74350 0.89550 0.33500
C 	C 	0.25700 0.78860 0.89980 0.62200
C 	C 	0.32880 0.71420 0.81550 0.34600
C 	C 	0.35440 0.86140 0.88580 0.33100
O 	O 	0.41890 0.74090 0.85740 -0.32100
O 	O 	0.44450 0.74750 0.92240 -0.34600
O 	O 	0.25380 0.82400 0.89970 -0.50200
O 	O 	0.23070 0.77230 0.88100 -0.50900
O 	O 	0.30360 0.69670 0.83960 -0.36200
O 	O 	0.34990 0.69470 0.78860 -0.36200
O 	O 	0.35060 0.89970 0.88040 -0.41900
O 	O 	0.36820 0.84540 0.92070 -0.31500
Cd	Cd	0.68796 0.32605 0.37044 1.25000
C 	C 	0.86930 0.24360 0.41440 -0.14000
C 	C 	0.86410 0.21750 0.45190 0.09000
H 	H 	0.88610 0.20020 0.46210 0.01900
C 	C 	0.82330 0.21950 0.47280 -0.19000
H 	H 	0.81850 0.20680 0.49940 0.10200
C 	C 	0.79200 0.24110 0.45150 0.17900
H 	H 	0.76480 0.24030 0.46360 -0.03000
C 	C 	0.79600 0.26310 0.41570 -0.25400
C 	C 	0.83460 0.26410 0.39620 0.16300
C 	C 	0.83820 0.28700 0.35270 0.04100
C 	C 	0.83180 0.26240 0.31490 -0.07600
C 	C 	0.83400 0.28240 0.27570 0.02800
H 	H 	0.83000 0.26600 0.25120 0.04100
C 	C 	0.84190 0.32650 0.27100 -0.08500
H 	H 	0.84320 0.33960 0.24430 0.06600
C 	C 	0.84740 0.34850 0.30830 0.02700
H 	H 	0.85280 0.37780 0.30640 0.04500
C 	C 	0.84570 0.33100 0.34850 -0.07700
C 	C 	0.91270 0.24350 0.39550 0.33400
C 	C 	0.75700 0.28860 0.39980 0.62200
C 	C 	0.82880 0.21420 0.31550 0.34600
C 	C 	0.85440 0.36140 0.38580 0.33100
O 	O 	0.91890 0.24090 0.35740 -0.31900
O 	O 	0.94450 0.24750 0.42240 -0.34400
O 	O 	0.75380 0.32400 0.39970 -0.50400
O 	O 	0.73070 0.27230 0.38100 -0.51000
O 	O 	0.80360 0.19670 0.33960 -0.36200
O 	O 	0.84990 0.19470 0.28860 -0.36100
O 	O 	0.85060 0.39970 0.38040 -0.42100
O 	O 	0.86820 0.34540 0.42070 -0.31600
Cd	Cd	0.81204 0.32605 0.62956 1.25000
C 	C 	0.63070 0.24360 0.58560 -0.14100
C 	C 	0.63590 0.21750 0.54810 0.09100
H 	H 	0.61390 0.20020 0.53790 0.01800
C 	C 	0.67670 0.21950 0.52720 -0.19000
H 	H 	0.68150 0.20680 0.50060 0.10200
C 	C 	0.70800 0.24110 0.54850 0.17900
H 	H 	0.73520 0.24030 0.53640 -0.03000
C 	C 	0.70400 0.26310 0.58430 -0.25400
C 	C 	0.66540 0.26410 0.60380 0.16300
C 	C 	0.66180 0.28700 0.64730 0.04100
C 	C 	0.66820 0.26240 0.68510 -0.07600
C 	C 	0.66600 0.28240 0.72430 0.02800
H 	H 	0.67000 0.26600 0.74880 0.04000
C 	C 	0.65810 0.32650 0.72900 -0.08500
H 	H 	0.65680 0.33960 0.75570 0.06600
C 	C 	0.65260 0.34850 0.69170 0.02700
H 	H 	0.64720 0.37780 0.69360 0.04400
C 	C 	0.65430 0.33100 0.65150 -0.07700
C 	C 	0.58730 0.24350 0.60450 0.33500
C 	C 	0.74300 0.28860 0.60020 0.62300
C 	C 	0.67120 0.21420 0.68450 0.34600
C 	C 	0.64560 0.36140 0.61420 0.33100
O 	O 	0.58110 0.24090 0.64260 -0.32100
O 	O 	0.55550 0.24750 0.57760 -0.34700
O 	O 	0.74620 0.32400 0.60030 -0.50400
O 	O 	0.76930 0.27230 0.61900 -0.51000
O 	O 	0.69640 0.19670 0.66040 -0.36200
O 	O 	0.65010 0.19470 0.71140 -0.36200
O 	O 	0.64940 0.39970 0.61960 -0.42100
O 	O 	0.63180 0.34540 0.57930 -0.31600
Cd	Cd	0.31204 0.82605 0.12956 1.25000
C 	C 	0.13070 0.74360 0.08560 -0.14300
C 	C 	0.13590 0.71750 0.04810 0.09100
H 	H 	0.11390 0.70020 0.03790 0.01600
C 	C 	0.17670 0.71950 0.02720 -0.19200
H 	H 	0.18150 0.70680 0.00060 0.10000
C 	C 	0.20800 0.74110 0.04850 0.18000
H 	H 	0.23520 0.74030 0.03640 -0.03200
C 	C 	0.20400 0.76310 0.08430 -0.25600
C 	C 	0.16540 0.76410 0.10380 0.16400
C 	C 	0.16180 0.78700 0.14730 0.04100
C 	C 	0.16820 0.76240 0.18510 -0.07600
C 	C 	0.16600 0.78240 0.22430 0.02700
H 	H 	0.17000 0.76600 0.24880 0.04000
C 	C 	0.15810 0.82650 0.22900 -0.08500
H 	H 	0.15680 0.83960 0.25570 0.06600
C 	C 	0.15260 0.84850 0.19170 0.02600
H 	H 	0.14720 0.87780 0.19360 0.04500
C 	C 	0.15430 0.83100 0.15150 -0.07700
C 	C 	0.08730 0.74350 0.10450 0.33600
C 	C 	0.24300 0.78860 0.10020 0.62300
C 	C 	0.17120 0.71420 0.18450 0.34600
C 	C 	0.14560 0.86140 0.11420 0.33100
O 	O 	0.08110 0.74090 0.14260 -0.32300
O 	O 	0.05550 0.74750 0.07760 -0.35100
O 	O 	0.24620 0.82400 0.10030 -0.50400
O 	O 	0.26930 0.77230 0.11900 -0.51100
O 	O 	0.19640 0.69670 0.16040 -0.36200
O 	O 	0.15010 0.69470 0.21140 -0.36300
O 	O 	0.14940 0.89970 0.11960 -0.42100
O 	O 	0.13180 0.84540 0.07930 -0.31700
Cd	Cd	0.17395 0.37044 0.31204 1.25000
C 	C 	0.25640 0.41440 0.13070 -0.14200
C 	C 	0.28250 0.45190 0.13590 0.09100
H 	H 	0.29980 0.46210 0.11390 0.01700
C 	C 	0.28050 0.47280 0.17670 -0.19100
H 	H 	0.29320 0.49940 0.18150 0.10200
C 	C 	0.25890 0.45150 0.20800 0.18000
H 	H 	0.25970 0.46360 0.23520 -0.03000
C 	C 	0.23690 0.41570 0.20400 -0.25500
C 	C 	0.23590 0.39620 0.16540 0.16400
C 	C 	0.21300 0.35270 0.16180 0.04100
C 	C 	0.23760 0.31490 0.16820 -0.07600
C 	C 	0.21760 0.27570 0.16600 0.02800
H 	H 	0.23400 0.25120 0.17000 0.04000
C 	C 	0.17350 0.27100 0.15810 -0.08600
H 	H 	0.16040 0.24430 0.15680 0.06500
C 	C 	0.15150 0.30830 0.15260 0.02700
H 	H 	0.12220 0.30640 0.14720 0.04300
C 	C 	0.16900 0.34850 0.15430 -0.07800
C 	C 	0.25650 0.39550 0.08730 0.33600
C 	C 	0.21140 0.39980 0.24300 0.62300
C 	C 	0.28580 0.31550 0.17120 0.34600
C 	C 	0.13860 0.38580 0.14560 0.33200
O 	O 	0.25910 0.35740 0.08110 -0.32300
O 	O 	0.25250 0.42240 0.05550 -0.35000
O 	O 	0.17600 0.39970 0.24620 -0.50400
O 	O 	0.22770 0.38100 0.26930 -0.51000
O 	O 	0.30330 0.33960 0.19640 -0.36200
O 	O 	0.30530 0.28860 0.15010 -0.36300
O 	O 	0.10030 0.38040 0.14940 -0.42300
O 	O 	0.15460 0.42070 0.13180 -0.31700
Cd	Cd	0.67395 0.87044 0.81204 1.25100
C 	C 	0.75640 0.91440 0.63070 -0.14100
C 	C 	0.78250 0.95190 0.63590 0.09100
H 	H 	0.79980 0.96210 0.61390 0.01900
C 	C 	0.78050 0.97280 0.67670 -0.18900
H 	H 	0.79320 0.99940 0.68150 0.10500
C 	C 	0.75890 0.95150 0.70800 0.17900
H 	H 	0.75970 0.96360 0.73520 -0.02700
C 	C 	0.73690 0.91570 0.70400 -0.25300
C 	C 	0.73590 0.89620 0.66540 0.16300
C 	C 	0.71300 0.85270 0.66180 0.04100
C 	C 	0.73760 0.81490 0.66820 -0.07600
C 	C 	0.71760 0.77570 0.66600 0.02700
H 	H 	0.73400 0.75120 0.67000 0.04100
C 	C 	0.67350 0.77100 0.65810 -0.08500
H 	H 	0.66040 0.74430 0.65680 0.06500
C 	C 	0.65150 0.80830 0.65260 0.02600
H 	H 	0.62220 0.80640 0.64720 0.04400
C 	C 	0.66900 0.84850 0.65430 -0.07700
C 	C 	0.75650 0.89550 0.58730 0.33500
C 	C 	0.71140 0.89980 0.74300 0.62200
C 	C 	0.78580 0.81550 0.67120 0.34600
C 	C 	0.63860 0.88580 0.64560 0.33100
O 	O 	0.75910 0.85740 0.58110 -0.32100
O 	O 	0.75250 0.92240 0.55550 -0.34600
O 	O 	0.67600 0.89970 0.74620 -0.50200
O 	O 	0.72770 0.88100 0.76930 -0.50900
O 	O 	0.80330 0.83960 0.69640 -0.36100
O 	O 	0.80530 0.78860 0.65010 -0.36200
O 	O 	0.60030 0.88040 0.64940 -0.42000
O 	O 	0.65460 0.92070 0.63180 -0.31500
Cd	Cd	0.67395 0.12956 0.68796 1.25000
C 	C 	0.75640 0.08560 0.86930 -0.14100
C 	C 	0.78250 0.04810 0.86410 0.09100
H 	H 	0.79980 0.03790 0.88610 0.01700
C 	C 	0.78050 0.02720 0.82330 -0.19100
H 	H 	0.79320 0.00060 0.81850 0.10000
C 	C 	0.75890 0.04850 0.79200 0.18000
H 	H 	0.75970 0.03640 0.76480 -0.03200
C 	C 	0.73690 0.08430 0.79600 -0.25600
C 	C 	0.73590 0.10380 0.83460 0.16400
C 	C 	0.71300 0.14730 0.83820 0.04100
C 	C 	0.73760 0.18510 0.83180 -0.07600
C 	C 	0.71760 0.22430 0.83400 0.02800
H 	H 	0.73400 0.24880 0.83000 0.04100
C 	C 	0.67350 0.22900 0.84190 -0.08500
H 	H 	0.66040 0.25570 0.84320 0.06600
C 	C 	0.65150 0.19170 0.84740 0.02700
H 	H 	0.62220 0.19360 0.85280 0.04500
C 	C 	0.66900 0.15150 0.84570 -0.07700
C 	C 	0.75650 0.10450 0.91270 0.33500
C 	C 	0.71140 0.10020 0.75700 0.62300
C 	C 	0.78580 0.18450 0.82880 0.34600
C 	C 	0.63860 0.11420 0.85440 0.33100
O 	O 	0.75910 0.14260 0.91890 -0.31900
O 	O 	0.75250 0.07760 0.94450 -0.34500
O 	O 	0.67600 0.10030 0.75380 -0.50500
O 	O 	0.72770 0.11900 0.73070 -0.51100
O 	O 	0.80330 0.16040 0.80360 -0.36200
O 	O 	0.80530 0.21140 0.84990 -0.36100
O 	O 	0.60030 0.11960 0.85060 -0.42100
O 	O 	0.65460 0.07930 0.86820 -0.31700
Cd	Cd	0.17395 0.62956 0.18796 1.25000
C 	C 	0.25640 0.58560 0.36930 -0.14100
C 	C 	0.28250 0.54810 0.36410 0.09100
H 	H 	0.29980 0.53790 0.38610 0.01800
C 	C 	0.28050 0.52720 0.32330 -0.19100
H 	H 	0.29320 0.50060 0.31850 0.10200
C 	C 	0.25890 0.54850 0.29200 0.18000
H 	H 	0.25970 0.53640 0.26480 -0.03000
C 	C 	0.23690 0.58430 0.29600 -0.25500
C 	C 	0.23590 0.60380 0.33460 0.16300
C 	C 	0.21300 0.64730 0.33820 0.04100
C 	C 	0.23760 0.68510 0.33180 -0.07600
C 	C 	0.21760 0.72430 0.33400 0.02800
H 	H 	0.23400 0.74880 0.33000 0.04000
C 	C 	0.17350 0.72900 0.34190 -0.08500
H 	H 	0.16040 0.75570 0.34320 0.06500
C 	C 	0.15150 0.69170 0.34740 0.02700
H 	H 	0.12220 0.69360 0.35280 0.04400
C 	C 	0.16900 0.65150 0.34570 -0.07700
C 	C 	0.25650 0.60450 0.41270 0.33500
C 	C 	0.21140 0.60020 0.25700 0.62300
C 	C 	0.28580 0.68450 0.32880 0.34600
C 	C 	0.13860 0.61420 0.35440 0.33200
O 	O 	0.25910 0.64260 0.41890 -0.32100
O 	O 	0.25250 0.57760 0.44450 -0.34700
O 	O 	0.17600 0.60030 0.25380 -0.50400
O 	O 	0.22770 0.61900 0.23070 -0.51000
O 	O 	0.30330 0.66040 0.30360 -0.36200
O 	O 	0.30530 0.71140 0.34990 -0.36200
O 	O 	0.10030 0.61960 0.35060 -0.42200
O 	O 	0.15460 0.57930 0.36820 -0.31600
Cd	Cd	0.82605 0.87044 0.18796 1.25100
C 	C 	0.74360 0.91440 0.36930 -0.14100
C 	C 	0.71750 0.95190 0.36410 0.09100
H 	H 	0.70020 0.96210 0.38610 0.01900
C 	C 	0.71950 0.97280 0.32330 -0.18900
H 	H 	0.70680 0.99940 0.31850 0.10400
C 	C 	0.74110 0.95150 0.29200 0.17900
H 	H 	0.74030 0.96360 0.26480 -0.02700
C 	C 	0.76310 0.91570 0.29600 -0.25300
C 	C 	0.76410 0.89620 0.33460 0.16300
C 	C 	0.78700 0.85270 0.33820 0.04100
C 	C 	0.76240 0.81490 0.33180 -0.07600
C 	C 	0.78240 0.77570 0.33400 0.02700
H 	H 	0.76600 0.75120 0.33000 0.04100
C 	C 	0.82650 0.77100 0.34190 -0.08500
H 	H 	0.83960 0.74430 0.34320 0.06600
C 	C 	0.84850 0.80830 0.34740 0.02600
H 	H 	0.87780 0.80640 0.35280 0.04500
C 	C 	0.83100 0.84850 0.34570 -0.07600
C 	C 	0.74350 0.89550 0.41270 0.33500
C 	C 	0.78860 0.89980 0.25700 0.62200
C 	C 	0.71420 0.81550 0.32880 0.34600
C 	C 	0.86140 0.88580 0.35440 0.33100
O 	O 	0.74090 0.85740 0.41890 -0.32100
O 	O 	0.74750 0.92240 0.44450 -0.34600
O 	O 	0.82400 0.89970 0.25380 -0.50200
O 	O 	0.77230 0.88100 0.23070 -0.50900
O 	O 	0.69670 0.83960 0.30360 -0.36200
O 	O 	0.69470 0.78860 0.34990 -0.36200
O 	O 	0.89970 0.88040 0.35060 -0.41900
O 	O 	0.84540 0.92070 0.36820 -0.31500
Cd	Cd	0.32605 0.37044 0.68796 1.25000
C 	C 	0.24360 0.41440 0.86930 -0.14000
C 	C 	0.21750 0.45190 0.86410 0.09000
H 	H 	0.20020 0.46210 0.88610 0.01900
C 	C 	0.21950 0.47280 0.82330 -0.19000
H 	H 	0.20680 0.49940 0.81850 0.10200
C 	C 	0.24110 0.45150 0.79200 0.17900
H 	H 	0.24030 0.46360 0.76480 -0.03000
C 	C 	0.26310 0.41570 0.79600 -0.25400
C 	C 	0.26410 0.39620 0.83460 0.16300
C 	C 	0.28700 0.35270 0.83820 0.04100
C 	C 	0.26240 0.31490 0.83180 -0.07600
C 	C 	0.28240 0.27570 0.83400 0.02800
H 	H 	0.26600 0.25120 0.83000 0.04100
C 	C 	0.32650 0.27100 0.84190 -0.08500
H 	H 	0.33960 0.24430 0.84320 0.06600
C 	C 	0.34850 0.30830 0.84740 0.02700
H 	H 	0.37780 0.30640 0.85280 0.04500
C 	C 	0.33100 0.34850 0.84570 -0.07700
C 	C 	0.24350 0.39550 0.91270 0.33400
C 	C 	0.28860 0.39980 0.75700 0.62200
C 	C 	0.21420 0.31550 0.82880 0.34600
C 	C 	0.36140 0.38580 0.85440 0.33100
O 	O 	0.24090 0.35740 0.91890 -0.31900
O 	O 	0.24750 0.42240 0.94450 -0.34400
O 	O 	0.32400 0.39970 0.75380 -0.50400
O 	O 	0.27230 0.38100 0.73070 -0.51000
O 	O 	0.19670 0.33960 0.80360 -0.36200
O 	O 	0.19470 0.28860 0.84990 -0.36100
O 	O 	0.39970 0.38040 0.85060 -0.42100
O 	O 	0.34540 0.42070 0.86820 -0.31600
Cd	Cd	0.32605 0.62956 0.81204 1.25000
C 	C 	0.24360 0.58560 0.63070 -0.14100
C 	C 	0.21750 0.54810 0.63590 0.09100
H 	H 	0.20020 0.53790 0.61390 0.01800
C 	C 	0.21950 0.52720 0.67670 -0.19000
H 	H 	0.20680 0.50060 0.68150 0.10200
C 	C 	0.24110 0.54850 0.70800 0.17900
H 	H 	0.24030 0.53640 0.73520 -0.03000
C 	C 	0.26310 0.58430 0.70400 -0.25400
C 	C 	0.26410 0.60380 0.66540 0.16300
C 	C 	0.28700 0.64730 0.66180 0.04100
C 	C 	0.26240 0.68510 0.66820 -0.07600
C 	C 	0.28240 0.72430 0.66600 0.02800
H 	H 	0.26600 0.74880 0.67000 0.04000
C 	C 	0.32650 0.72900 0.65810 -0.08500
H 	H 	0.33960 0.75570 0.65680 0.06600
C 	C 	0.34850 0.69170 0.65260 0.02700
H 	H 	0.37780 0.69360 0.64720 0.04400
C 	C 	0.33100 0.65150 0.65430 -0.07700
C 	C 	0.24350 0.60450 0.58730 0.33500
C 	C 	0.28860 0.60020 0.74300 0.62300
C 	C 	0.21420 0.68450 0.67120 0.34600
C 	C 	0.36140 0.61420 0.64560 0.33100
O 	O 	0.24090 0.64260 0.58110 -0.32100
O 	O 	0.24750 0.57760 0.55550 -0.34700
O 	O 	0.32400 0.60030 0.74620 -0.50400
O 	O 	0.27230 0.61900 0.76930 -0.51000
O 	O 	0.19670 0.66040 0.69640 -0.36200
O 	O 	0.19470 0.71140 0.65010 -0.36200
O 	O 	0.39970 0.61960 0.64940 -0.42100
O 	O 	0.34540 0.57930 0.63180 -0.31600
Cd	Cd	0.82605 0.12956 0.31204 1.25000
C 	C 	0.74360 0.08560 0.13070 -0.14300
C 	C 	0.71750 0.04810 0.13590 0.09100
H 	H 	0.70020 0.03790 0.11390 0.01600
C 	C 	0.71950 0.02720 0.17670 -0.19200
H 	H 	0.70680 0.00060 0.18150 0.10000
C 	C 	0.74110 0.04850 0.20800 0.18000
H 	H 	0.74030 0.03640 0.23520 -0.03200
C 	C 	0.76310 0.08430 0.20400 -0.25600
C 	C 	0.76410 0.10380 0.16540 0.16400
C 	C 	0.78700 0.14730 0.16180 0.04100
C 	C 	0.76240 0.18510 0.16820 -0.07600
C 	C 	0.78240 0.22430 0.16600 0.02700
H 	H 	0.76600 0.24880 0.17000 0.04000
C 	C 	0.82650 0.22900 0.15810 -0.08500
H 	H 	0.83960 0.25570 0.15680 0.06600
C 	C 	0.84850 0.19170 0.15260 0.02600
H 	H 	0.87780 0.19360 0.14720 0.04500
C 	C 	0.83100 0.15150 0.15430 -0.07700
C 	C 	0.74350 0.10450 0.08730 0.33600
C 	C 	0.78860 0.10020 0.24300 0.62300
C 	C 	0.71420 0.18450 0.17120 0.34600
C 	C 	0.86140 0.11420 0.14560 0.33100
O 	O 	0.74090 0.14260 0.08110 -0.32300
O 	O 	0.74750 0.07760 0.05550 -0.35100
O 	O 	0.82400 0.10030 0.24620 -0.50400
O 	O 	0.77230 0.11900 0.26930 -0.51100
O 	O 	0.69670 0.16040 0.19640 -0.36200
O 	O 	0.69470 0.21140 0.15010 -0.36300
O 	O 	0.89970 0.11960 0.14940 -0.42100
O 	O 	0.84540 0.07930 0.13180 -0.31700
Cd	Cd	0.75000 0.12500 -0.00000 1.24800
Cd	Cd	0.75000 0.87500 0.50000 1.25100
Cd	Cd	0.25000 0.62500 0.50000 1.25100
Cd	Cd	0.25000 0.37500 -0.00000 1.24800
Cd	Cd	0.00000 0.75000 0.12500 1.24800
Cd	Cd	0.50000 0.75000 0.87500 1.25100
Cd	Cd	0.50000 0.25000 0.62500 1.25100
Cd	Cd	-0.00000 0.25000 0.37500 1.24800
Cd	Cd	0.12500 0.00000 0.75000 1.24800
Cd	Cd	0.87500 0.50000 0.75000 1.25100
Cd	Cd	0.62500 0.50000 0.25000 1.25100
Cd	Cd	0.37500 0.00000 0.25000 1.24800
