data_crystal

_cell_length_a 12.21480
_cell_length_b 16.97000
_cell_length_c 16.97000
_cell_angle_alpha 65.56560
_cell_angle_beta  76.11770
_cell_angle_gamma 103.88200

_symmetry_space_group_name_	'P 1'
_symmetry_space_group_name_H-M	'P 1'

loop_
_symmetry_equiv_pos_as_xyz
  x,y,z

loop_
_atom_site_label
_atom_site_type_symbol
_atom_site_fract_x
_atom_site_fract_y
_atom_site_fract_z
_atom_site_charge
Tb	Tb	-0.00000 0.32249 0.32249 1.74300
Tb	Tb	0.32249 0.32249 0.35502 1.86700
Tb	Tb	0.67751 0.35502 0.32249 1.88800
H 	H 	0.86090 0.01730 0.57450 -0.02100
H 	H 	0.79190 0.85610 0.66080 0.13200
H 	H 	0.80400 0.71590 0.76300 0.04900
H 	H 	0.80200 0.62240 0.91220 0.07700
H 	H 	0.71260 0.53580 0.07160 0.01000
H 	H 	0.47960 0.33910 0.05370 0.02600
H 	H 	0.56950 0.42440 0.89450 0.06400
H 	H 	0.43540 0.57450 0.40820 0.00600
H 	H 	0.45270 0.66080 0.48310 0.08900
H 	H 	0.56700 0.76300 0.52110 0.05500
H 	H 	0.71420 0.91220 0.46540 0.09800
H 	H 	0.78420 0.07160 0.39260 -0.00800
H 	H 	0.53330 0.05370 0.60720 0.00300
H 	H 	0.46400 0.89450 0.68110 0.08900
H 	H 	0.84360 0.40820 0.01730 0.02700
H 	H 	0.93580 0.48310 0.85610 0.04900
H 	H 	0.08810 0.52110 0.71590 0.05600
H 	H 	0.17960 0.46540 0.62240 0.07500
H 	H 	0.17680 0.39260 0.53580 -0.01000
H 	H 	0.14050 0.60720 0.33910 0.00600
H 	H 	0.14510 0.68110 0.42440 0.06600
H 	H 	0.56460 0.40820 0.57450 0.00500
H 	H 	0.54730 0.48310 0.66080 0.08900
H 	H 	0.43300 0.52110 0.76300 0.05800
H 	H 	0.28580 0.46540 0.91220 0.06000
H 	H 	0.21580 0.39260 0.07160 0.00500
H 	H 	0.46670 0.60720 0.05370 0.03100
H 	H 	0.53600 0.68110 0.89450 0.06100
H 	H 	0.15640 0.01730 0.40820 -0.02400
H 	H 	0.06420 0.85610 0.48310 0.13400
H 	H 	0.91190 0.71590 0.52110 0.05500
H 	H 	0.82040 0.62240 0.46540 0.08800
H 	H 	0.82320 0.53580 0.39260 -0.00200
H 	H 	0.85950 0.33910 0.60720 0.02300
H 	H 	0.85490 0.42440 0.68110 0.08800
H 	H 	0.13910 0.57450 0.01730 0.02900
H 	H 	0.20810 0.66080 0.85610 0.05000
H 	H 	0.19600 0.76300 0.71590 0.06200
H 	H 	0.19800 0.91220 0.62240 0.08300
H 	H 	0.28740 0.07160 0.53580 -0.01900
H 	H 	0.52040 0.05370 0.33910 0.00500
H 	H 	0.43050 0.89450 0.42440 0.08600
H 	H 	0.73655 0.47310 0.76345 0.05600
H 	H 	0.50000 0.76345 0.76345 0.05800
H 	H 	0.26345 0.76345 0.47310 0.05800
C 	C 	0.90568 0.98555 0.55781 0.22700
C 	C 	0.86290 0.88898 0.60698 -0.28900
C 	C 	0.80965 0.68349 0.73044 -0.04900
C 	C 	0.76102 0.58657 0.78031 0.01600
C 	C 	0.69987 0.53432 0.88391 0.05000
C 	C 	0.73761 0.56494 0.94021 -0.10900
C 	C 	0.68361 0.51356 0.03583 0.04800
C 	C 	0.58481 0.42762 0.08009 -0.13500
C 	C 	0.54480 0.39611 0.02521 0.03700
C 	C 	0.59878 0.44692 0.92998 -0.09800
C 	C 	0.51788 0.37681 0.18267 0.39200
C 	C 	0.46349 0.55781 0.45664 0.10000
C 	C 	0.46988 0.60698 0.50404 -0.17000
C 	C 	0.54009 0.73044 0.58607 -0.07800
C 	C 	0.54133 0.78031 0.63312 0.01000
C 	C 	0.58378 0.88391 0.58177 0.09500
C 	C 	0.67782 0.94021 0.49485 -0.19100
C 	C 	0.71944 0.03583 0.45061 0.13100
C 	C 	0.66490 0.08009 0.49229 -0.18300
C 	C 	0.57001 0.02521 0.57868 0.12300
C 	C 	0.52876 0.92998 0.62310 -0.18100
C 	C 	0.70055 0.18267 0.44052 0.40500
C 	C 	0.92013 0.45664 0.98555 0.02800
C 	C 	0.97392 0.50404 0.88898 -0.00400
C 	C 	0.12616 0.58607 0.68349 -0.11800
C 	C 	0.17445 0.63312 0.58657 0.02800
C 	C 	0.16555 0.58177 0.53432 0.05600
C 	C 	0.17267 0.49485 0.56494 -0.15000
C 	C 	0.17005 0.45061 0.51356 0.08300
C 	C 	0.15719 0.49229 0.42762 -0.16900
C 	C 	0.14869 0.57868 0.39611 0.07400
C 	C 	0.15186 0.62310 0.44692 -0.14300
C 	C 	0.14107 0.44052 0.37681 0.39800
C 	C 	0.53651 0.45664 0.55781 0.09900
C 	C 	0.53012 0.50404 0.60698 -0.17100
C 	C 	0.45991 0.58607 0.73044 -0.08800
C 	C 	0.45867 0.63312 0.78031 0.03200
C 	C 	0.41622 0.58177 0.88391 0.03500
C 	C 	0.32218 0.49485 0.94021 -0.09600
C 	C 	0.28056 0.45061 0.03583 0.03400
C 	C 	0.33510 0.49229 0.08009 -0.12700
C 	C 	0.42999 0.57868 0.02521 0.02500
C 	C 	0.47124 0.62310 0.92998 -0.08800
C 	C 	0.29945 0.44052 0.18267 0.38600
C 	C 	0.07987 0.98555 0.45664 0.18900
C 	C 	0.02608 0.88898 0.50404 -0.34800
C 	C 	0.87384 0.68349 0.58607 -0.04300
C 	C 	0.82555 0.58657 0.63312 0.00800
C 	C 	0.83445 0.53432 0.58177 0.08400
C 	C 	0.82733 0.56494 0.49485 -0.15100
C 	C 	0.82995 0.51356 0.45061 0.09900
C 	C 	0.84281 0.42762 0.49229 -0.15500
C 	C 	0.85131 0.39611 0.57868 0.09000
C 	C 	0.84814 0.44692 0.62310 -0.13900
C 	C 	0.85893 0.37681 0.44052 0.40400
C 	C 	0.09432 0.55781 0.98555 -0.01700
C 	C 	0.13710 0.60698 0.88898 -0.06100
C 	C 	0.19035 0.73044 0.68349 -0.11300
C 	C 	0.23898 0.78031 0.58657 0.02200
C 	C 	0.30013 0.88391 0.53432 0.08400
C 	C 	0.26239 0.94021 0.56494 -0.18200
C 	C 	0.31639 0.03583 0.51356 0.12400
C 	C 	0.41519 0.08009 0.42762 -0.18400
C 	C 	0.45520 0.02521 0.39611 0.11700
C 	C 	0.40122 0.92998 0.44692 -0.17400
C 	C 	0.48212 0.18267 0.37681 0.41000
C 	C 	0.07014 0.14028 0.42986 0.41500
C 	C 	0.01671 0.03342 0.48329 -0.28700
C 	C 	0.92038 0.84076 0.57962 0.25500
C 	C 	0.86703 0.73406 0.63297 -0.04000
C 	C 	0.76913 0.53826 0.73087 -0.07600
C 	C 	0.50000 0.42986 0.42986 0.46400
C 	C 	0.50000 0.48329 0.48329 -0.19100
C 	C 	0.50000 0.57962 0.57962 0.09700
C 	C 	0.50000 0.63297 0.63297 0.01100
C 	C 	0.50000 0.73087 0.73087 -0.09200
C 	C 	0.92986 0.42986 0.14028 0.50400
C 	C 	0.98329 0.48329 0.03342 -0.10400
C 	C 	0.07962 0.57962 0.84076 -0.05200
C 	C 	0.13297 0.63297 0.73406 0.05700
C 	C 	0.23087 0.73087 0.53826 -0.10300
O 	O 	0.99726 0.18070 0.43070 -0.43700
O 	O 	0.56031 0.40483 0.23316 -0.53600
O 	O 	0.41589 0.31129 0.21942 -0.42800
O 	O 	0.42796 0.43070 0.38860 -0.51600
O 	O 	0.79347 0.23316 0.36201 -0.51300
O 	O 	0.63531 0.21942 0.46929 -0.43000
O 	O 	0.81656 0.38860 0.18070 -0.52000
O 	O 	0.15548 0.36201 0.40483 -0.54300
O 	O 	0.10460 0.46929 0.31129 -0.43300
O 	O 	0.57204 0.38860 0.43070 -0.51700
O 	O 	0.20653 0.36201 0.23316 -0.52700
O 	O 	0.36469 0.46929 0.21942 -0.42400
O 	O 	0.18344 0.18070 0.38860 -0.50600
O 	O 	0.84452 0.40483 0.36201 -0.51600
O 	O 	0.89540 0.31129 0.46929 -0.39700
O 	O 	0.00274 0.43070 0.18070 -0.55700
O 	O 	0.43969 0.23316 0.40483 -0.54100
O 	O 	0.58411 0.21942 0.31129 -0.43100
