data_crystal

_cell_length_a 9.85800
_cell_length_b 12.56500
_cell_length_c 29.61800
_cell_angle_alpha 90.00000
_cell_angle_beta  90.00000
_cell_angle_gamma 105.69500

_symmetry_space_group_name_	'P 1'
_symmetry_space_group_name_H-M	'P 1'

loop_
_symmetry_equiv_pos_as_xyz
  x,y,z

loop_
_atom_site_label
_atom_site_type_symbol
_atom_site_fract_x
_atom_site_fract_y
_atom_site_fract_z
_atom_site_charge
Co	Co	0.96198 0.64291 0.94246 1.15700
Co	Co	0.53802 0.35709 0.44246 1.15700
H 	H 	0.59720 0.12710 0.19990 0.25500
H 	H 	0.28810 0.71870 0.04910 0.05500
H 	H 	0.68960 0.70070 0.05440 0.05100
H 	H 	0.46420 0.61980 0.93930 0.05500
H 	H 	0.67440 0.70680 0.12420 0.05700
H 	H 	0.68460 0.75890 0.20000 0.04900
H 	H 	0.35420 0.88520 0.18160 0.05700
H 	H 	0.34390 0.83390 0.10590 0.05800
H 	H 	0.53690 0.68930 0.26370 0.07900
H 	H 	0.31040 0.98490 0.37480 0.08300
H 	H 	0.32880 0.14290 0.41750 -0.00200
H 	H 	0.69940 0.28700 0.36470 0.01100
H 	H 	0.68150 0.13930 0.31670 0.10100
H 	H 	0.43250 0.71430 0.40750 0.08600
H 	H 	0.44510 0.56430 0.45090 -0.00100
H 	H 	0.67610 0.47130 0.36020 -0.00200
H 	H 	0.66210 0.61220 0.31230 0.07500
H 	H 	0.90280 0.87290 0.69990 0.25400
H 	H 	0.21190 0.28130 0.54910 0.05300
H 	H 	0.81040 0.29930 0.55440 0.04900
H 	H 	0.03580 0.38020 0.43930 0.05500
H 	H 	0.82560 0.29320 0.62420 0.05800
H 	H 	0.81540 0.24110 0.70000 0.04900
H 	H 	0.14580 0.11480 0.68160 0.05700
H 	H 	0.15610 0.16610 0.60590 0.06000
H 	H 	0.96310 0.31070 0.76370 0.07900
H 	H 	0.18960 0.01510 0.87480 0.08200
H 	H 	0.17120 0.85710 0.91750 -0.00100
H 	H 	0.80060 0.71300 0.86470 0.01100
H 	H 	0.81850 0.86070 0.81670 0.10100
H 	H 	0.06750 0.28570 0.90750 0.08700
H 	H 	0.05490 0.43570 0.95090 -0.00100
H 	H 	0.82390 0.52870 0.86020 -0.00200
H 	H 	0.83790 0.38780 0.81230 0.07600
C 	C 	0.23010 0.66430 0.96260 0.32500
C 	C 	0.35980 0.66850 0.99010 -0.07500
C 	C 	0.36820 0.70430 0.03530 -0.02200
C 	C 	0.49070 0.71870 0.05980 -0.00300
C 	C 	0.60390 0.69240 0.03840 -0.01700
C 	C 	0.59370 0.65430 0.99410 -0.07700
C 	C 	0.47070 0.64390 0.96980 0.01800
C 	C 	0.71930 0.63460 0.97120 0.32500
C 	C 	0.50370 0.76020 0.10710 0.03000
C 	C 	0.60710 0.74140 0.13570 -0.06400
C 	C 	0.61320 0.77270 0.18120 -0.03200
C 	C 	0.51680 0.82340 0.19920 -0.00700
C 	C 	0.41840 0.84720 0.17030 -0.03400
C 	C 	0.41220 0.81630 0.12500 -0.06300
C 	C 	0.51560 0.84200 0.24880 0.09100
C 	C 	0.52620 0.75580 0.27660 -0.14000
C 	C 	0.52140 0.76640 0.32280 0.07900
C 	C 	0.49900 0.94250 0.31680 0.08600
C 	C 	0.50310 0.93840 0.26960 -0.12100
C 	C 	0.49420 0.03680 0.24190 0.35100
C 	C 	0.50000 0.04370 0.34170 0.06900
C 	C 	0.39100 0.04630 0.37210 -0.11900
C 	C 	0.40410 0.14080 0.39780 0.07900
C 	C 	0.61860 0.22540 0.36650 0.07100
C 	C 	0.60990 0.13620 0.33850 -0.12500
C 	C 	0.53510 0.67590 0.35350 0.05500
C 	C 	0.47820 0.66250 0.39590 -0.12500
C 	C 	0.48760 0.57330 0.42190 0.09200
C 	C 	0.62050 0.51900 0.36890 0.08000
C 	C 	0.61400 0.60300 0.34050 -0.12400
C 	C 	0.26990 0.33570 0.46260 0.32600
C 	C 	0.14020 0.33150 0.49010 -0.07600
C 	C 	0.13180 0.29570 0.53530 -0.01900
C 	C 	0.00930 0.28130 0.55980 -0.01100
C 	C 	0.89610 0.30760 0.53840 -0.01200
C 	C 	0.90630 0.34570 0.49410 -0.07700
C 	C 	0.02930 0.35610 0.46980 0.01800
C 	C 	0.78070 0.36540 0.47120 0.32600
C 	C 	0.99630 0.23980 0.60710 0.03800
C 	C 	0.89290 0.25860 0.63570 -0.06600
C 	C 	0.88680 0.22730 0.68120 -0.03200
C 	C 	0.98320 0.17660 0.69920 -0.00300
C 	C 	0.08160 0.15280 0.67030 -0.03700
C 	C 	0.08780 0.18370 0.62500 -0.06700
C 	C 	0.98440 0.15800 0.74880 0.08700
C 	C 	0.97380 0.24420 0.77660 -0.13700
C 	C 	0.97860 0.23360 0.82280 0.07700
C 	C 	0.00100 0.05750 0.81680 0.07900
C 	C 	0.99690 0.06160 0.76960 -0.11300
C 	C 	0.00580 0.96320 0.74190 0.34400
C 	C 	-0.00000 0.95630 0.84170 0.06800
C 	C 	0.10900 0.95370 0.87210 -0.11700
C 	C 	0.09590 0.85920 0.89780 0.07600
C 	C 	0.88140 0.77460 0.86650 0.07000
C 	C 	0.89010 0.86380 0.83850 -0.12200
C 	C 	0.96490 0.32410 0.85350 0.06000
C 	C 	0.02180 0.33750 0.89590 -0.13000
C 	C 	0.01240 0.42670 0.92190 0.09200
C 	C 	0.87950 0.48100 0.86890 0.08200
C 	C 	0.88600 0.39700 0.84050 -0.12600
N 	N 	0.50530 0.85770 0.34291 -0.13300
N 	N 	0.51540 0.22850 0.39675 -0.24600
N 	N 	0.55270 0.50050 0.40829 -0.25300
N 	N 	0.99470 0.14230 0.84291 -0.13000
N 	N 	0.98460 0.77150 0.89675 -0.24400
N 	N 	0.94730 0.49950 0.90829 -0.25200
O 	O 	0.12190 0.66400 0.98373 -0.44300
O 	O 	0.23760 0.65990 0.92046 -0.31000
O 	O 	0.83040 0.65180 0.99280 -0.42300
O 	O 	0.71430 0.60690 0.93075 -0.35100
O 	O 	0.38240 0.06050 0.23904 -0.25400
O 	O 	0.61470 0.08970 0.22160 -0.41900
O 	O 	0.37810 0.33600 0.48373 -0.44200
O 	O 	0.26240 0.34010 0.42046 -0.30900
O 	O 	0.66960 0.34820 0.49280 -0.42300
O 	O 	0.78570 0.39310 0.43075 -0.35100
O 	O 	0.11760 0.93950 0.73904 -0.25200
O 	O 	0.88530 0.91030 0.72160 -0.41600
Co	Co	0.03802 0.35709 0.05754 1.15600
Co	Co	0.46198 0.64291 0.55754 1.15700
H 	H 	0.40280 0.87290 0.80010 0.25500
H 	H 	0.71190 0.28130 0.95090 0.05500
H 	H 	0.31040 0.29930 0.94560 0.05100
H 	H 	0.53580 0.38020 0.06070 0.05500
H 	H 	0.32560 0.29320 0.87580 0.05700
H 	H 	0.31540 0.24110 0.80000 0.04900
H 	H 	0.64580 0.11480 0.81840 0.05700
H 	H 	0.65610 0.16610 0.89410 0.05900
H 	H 	0.46310 0.31070 0.73630 0.07900
H 	H 	0.68960 0.01510 0.62520 0.08400
H 	H 	0.67120 0.85710 0.58250 -0.00200
H 	H 	0.30060 0.71300 0.63530 0.01000
H 	H 	0.31850 0.86070 0.68330 0.10100
H 	H 	0.56750 0.28570 0.59250 0.08600
H 	H 	0.55490 0.43570 0.54910 -0.00100
H 	H 	0.32390 0.52870 0.63980 -0.00200
H 	H 	0.33790 0.38780 0.68770 0.07500
H 	H 	0.09720 0.12710 0.30010 0.25500
H 	H 	0.78810 0.71870 0.45090 0.05500
H 	H 	0.18960 0.70070 0.44560 0.05200
H 	H 	0.96420 0.61980 0.56070 0.05500
H 	H 	0.17440 0.70680 0.37580 0.05700
H 	H 	0.18460 0.75890 0.30000 0.04900
H 	H 	0.85420 0.88520 0.31840 0.05700
H 	H 	0.84390 0.83390 0.39410 0.05800
H 	H 	0.03690 0.68930 0.23630 0.08000
H 	H 	0.81040 0.98490 0.12520 0.08200
H 	H 	0.82880 0.14290 0.08250 -0.00200
H 	H 	0.19940 0.28700 0.13530 0.01100
H 	H 	0.18150 0.13930 0.18330 0.10000
H 	H 	0.93250 0.71430 0.09250 0.08600
H 	H 	0.94510 0.56430 0.04910 -0.00000
H 	H 	0.17610 0.47130 0.13980 -0.00200
H 	H 	0.16210 0.61220 0.18770 0.07500
C 	C 	0.76990 0.33570 0.03740 0.32500
C 	C 	0.64020 0.33150 0.00990 -0.07400
C 	C 	0.63180 0.29570 0.96470 -0.02300
C 	C 	0.50930 0.28130 0.94020 -0.00300
C 	C 	0.39610 0.30760 0.96160 -0.01700
C 	C 	0.40630 0.34570 0.00590 -0.07700
C 	C 	0.52930 0.35610 0.03020 0.01800
C 	C 	0.28070 0.36540 0.02880 0.32500
C 	C 	0.49630 0.23980 0.89290 0.03100
C 	C 	0.39290 0.25860 0.86430 -0.06400
C 	C 	0.38680 0.22730 0.81880 -0.03200
C 	C 	0.48320 0.17660 0.80080 -0.00700
C 	C 	0.58160 0.15280 0.82970 -0.03400
C 	C 	0.58780 0.18370 0.87500 -0.06300
C 	C 	0.48440 0.15800 0.75120 0.09100
C 	C 	0.47380 0.24420 0.72340 -0.14000
C 	C 	0.47860 0.23360 0.67720 0.07900
C 	C 	0.50100 0.05750 0.68320 0.08600
C 	C 	0.49690 0.06160 0.73040 -0.12200
C 	C 	0.50580 0.96320 0.75810 0.35100
C 	C 	0.50000 0.95630 0.65830 0.06900
C 	C 	0.60900 0.95370 0.62790 -0.11900
C 	C 	0.59590 0.85920 0.60220 0.07900
C 	C 	0.38140 0.77460 0.63350 0.07100
C 	C 	0.39010 0.86380 0.66150 -0.12500
C 	C 	0.46490 0.32410 0.64650 0.05500
C 	C 	0.52180 0.33750 0.60410 -0.12500
C 	C 	0.51240 0.42670 0.57810 0.09300
C 	C 	0.37950 0.48100 0.63110 0.08000
C 	C 	0.38600 0.39700 0.65950 -0.12400
C 	C 	0.73010 0.66430 0.53740 0.32500
C 	C 	0.85980 0.66850 0.50990 -0.07500
C 	C 	0.86820 0.70430 0.46470 -0.02300
C 	C 	0.99070 0.71870 0.44020 -0.00000
C 	C 	0.10390 0.69240 0.46160 -0.01900
C 	C 	0.09370 0.65430 0.50590 -0.07800
C 	C 	0.97070 0.64390 0.53020 0.02000
C 	C 	0.21930 0.63460 0.52880 0.32600
C 	C 	0.00370 0.76020 0.39290 0.02800
C 	C 	0.10710 0.74140 0.36430 -0.06300
C 	C 	0.11320 0.77270 0.31880 -0.03200
C 	C 	0.01680 0.82340 0.30080 -0.00800
C 	C 	0.91840 0.84720 0.32970 -0.03400
C 	C 	0.91220 0.81630 0.37500 -0.06100
C 	C 	0.01560 0.84200 0.25120 0.09200
C 	C 	0.02620 0.75580 0.22340 -0.14100
C 	C 	0.02140 0.76640 0.17720 0.08000
C 	C 	0.99900 0.94250 0.18320 0.09000
C 	C 	0.00310 0.93840 0.23040 -0.12400
C 	C 	0.99420 0.03680 0.25810 0.35400
C 	C 	-0.00000 0.04370 0.15830 0.06400
C 	C 	0.89100 0.04630 0.12790 -0.11400
C 	C 	0.90410 0.14080 0.10220 0.07900
C 	C 	0.11860 0.22540 0.13350 0.06900
C 	C 	0.10990 0.13620 0.16150 -0.12200
C 	C 	0.03510 0.67590 0.14650 0.05300
C 	C 	0.97820 0.66250 0.10410 -0.12300
C 	C 	0.98760 0.57330 0.07810 0.09400
C 	C 	0.12050 0.51900 0.13110 0.08000
C 	C 	0.11400 0.60300 0.15950 -0.12400
N 	N 	0.49470 0.14230 0.65709 -0.13300
N 	N 	0.48460 0.77150 0.60325 -0.24600
N 	N 	0.44730 0.49950 0.59171 -0.25300
N 	N 	0.00530 0.85770 0.15709 -0.13400
N 	N 	0.01540 0.22850 0.10325 -0.24600
N 	N 	0.05270 0.50050 0.09171 -0.25400
O 	O 	0.87810 0.33600 0.01627 -0.44100
O 	O 	0.76240 0.34010 0.07954 -0.30900
O 	O 	0.16960 0.34820 0.00720 -0.42300
O 	O 	0.28570 0.39310 0.06925 -0.35200
O 	O 	0.61760 0.93950 0.76096 -0.25400
O 	O 	0.38530 0.91030 0.77840 -0.41900
O 	O 	0.62190 0.66400 0.51627 -0.44200
O 	O 	0.73760 0.65990 0.57954 -0.30900
O 	O 	0.33040 0.65180 0.50720 -0.42300
O 	O 	0.21430 0.60690 0.56925 -0.35200
O 	O 	0.88240 0.06050 0.26096 -0.25400
O 	O 	0.11470 0.08970 0.27840 -0.42000
