data_crystal

_cell_length_a 24.68400
_cell_length_b 15.20200
_cell_length_c 25.36800
_cell_angle_alpha 90.00000
_cell_angle_beta  97.78000
_cell_angle_gamma 90.00000

_symmetry_space_group_name_	'P 1'
_symmetry_space_group_name_H-M	'P 1'

loop_
_symmetry_equiv_pos_as_xyz
  x,y,z

loop_
_atom_site_label
_atom_site_type_symbol
_atom_site_fract_x
_atom_site_fract_y
_atom_site_fract_z
_atom_site_charge
Fe	Fe	0.15300 0.17319 0.15200 1.18900
Ni	Ni	0.22890 0.41505 0.27964 1.06600
N 	N 	0.10977 0.05330 0.05856 -0.03400
N 	N 	0.06121 0.30660 0.11999 -0.06700
N 	N 	0.22748 0.25180 0.07716 -0.17300
N 	N 	0.19633 0.30050 0.24099 -0.17500
N 	N 	0.07801 0.09410 0.22508 -0.17100
N 	N 	0.23849 0.03180 0.18426 -0.17200
N 	N 	0.29728 0.14010 0.01731 -0.26500
H 	H 	0.31650 0.13150 0.99010 0.11600
N 	N 	0.18695 0.16280 0.97811 -0.23400
H 	H 	0.16680 0.15920 0.00510 0.08800
N 	N 	0.25370 0.34950 0.35150 -0.27500
H 	H 	0.27760 0.38470 0.37140 0.10700
N 	N 	0.19800 0.48420 0.20900 -0.24600
H 	H 	0.17340 0.44940 0.18960 0.10100
N 	N 	0.15783 0.43070 0.31190 -0.24800
H 	H 	0.13590 0.38760 0.29700 0.08800
N 	N 	0.29936 0.40410 0.24417 -0.25800
H 	H 	0.32320 0.44580 0.25760 0.10300
C 	C 	0.18042 0.25160 0.20786 -0.20600
C 	C 	0.12481 0.09920 0.09407 -0.22600
C 	C 	0.10707 0.12010 0.19732 -0.21100
C 	C 	0.09601 0.25670 0.13175 -0.22800
C 	C 	0.19912 0.22560 0.10672 -0.21600
C 	C 	0.20742 0.08750 0.17252 -0.20900
C 	C 	0.21380 0.07750 0.97290 -0.06100
H 	H 	0.18790 0.03070 0.97430 0.07700
H 	H 	0.22770 0.07420 0.93940 0.04000
C 	C 	0.25720 0.06590 0.01820 -0.13400
H 	H 	0.24280 0.06490 0.05150 0.06100
H 	H 	0.27610 0.01150 0.01460 0.06100
C 	C 	0.14870 0.19350 0.93067 -0.05500
H 	H 	0.16950 0.19510 0.90140 0.04300
H 	H 	0.12010 0.15100 0.92230 0.07600
C 	C 	0.33816 0.14760 0.06539 -0.05600
H 	H 	0.35910 0.09430 0.07000 0.05200
H 	H 	0.31840 0.15350 0.09530 0.04400
C 	C 	0.16710 0.56580 0.22110 -0.03900
H 	H 	0.15640 0.59500 0.18780 0.06200
H 	H 	0.19170 0.60340 0.24340 0.03900
C 	C 	0.24980 0.49840 0.17830 -0.10100
H 	H 	0.26990 0.54990 0.19120 0.05300
H 	H 	0.23660 0.50600 0.14120 0.05600
C 	C 	0.28020 0.42510 0.18444 -0.09000
H 	H 	0.25990 0.37560 0.16870 0.04700
H 	H 	0.31200 0.43210 0.16680 0.05300
C 	C 	0.32440 0.32360 0.25430 -0.01900
H 	H 	0.35750 0.32160 0.23830 0.04500
H 	H 	0.30000 0.28100 0.23600 0.02900
C 	C 	0.28470 0.29230 0.33340 0.00300
H 	H 	0.25950 0.26420 0.30640 0.00100
H 	H 	0.29130 0.25080 0.36210 0.04200
C 	C 	0.20730 0.33510 0.37700 0.02700
H 	H 	0.21890 0.33180 0.41460 0.02000
H 	H 	0.18910 0.28100 0.36610 0.01300
C 	C 	0.17380 0.40220 0.37060 -0.19100
H 	H 	0.14080 0.38620 0.38430 0.08500
H 	H 	0.18880 0.45220 0.39050 0.07800
C 	C 	0.12890 0.50060 0.29970 -0.02000
H 	H 	0.14550 0.54560 0.32300 0.03700
H 	H 	0.09290 0.49080 0.30900 0.04500
N 	N 	0.02200 0.20150 0.30167 -0.25900
H 	H 	0.99490 0.20890 0.32170 0.11900
C 	C 	0.02360 0.27890 0.26960 -0.12500
H 	H 	0.05670 0.27980 0.25350 0.05400
H 	H 	0.02320 0.32950 0.29210 0.06100
N 	N 	0.02444 0.00300 0.30694 -0.26000
H 	H 	0.99660 0.99830 0.32630 0.12800
C 	C 	0.02070 0.92580 0.27630 -0.14400
H 	H 	0.01270 0.87700 0.29800 0.08200
H 	H 	0.05620 0.91580 0.26610 0.06800
C 	C 	0.07420 0.03330 0.34750 -0.08300
H 	H 	0.10610 0.02880 0.32990 0.05400
H 	H 	0.07840 0.99180 0.37630 0.09200
C 	C 	0.07350 0.18880 0.33830 -0.04500
H 	H 	0.07940 0.24020 0.36020 0.04600
H 	H 	0.10350 0.18430 0.31790 0.03800
N 	N 	0.07301 0.11720 0.36957 -0.05900
C 	C 	0.03280 0.11660 0.40901 -0.34500
H 	H 	0.99820 0.09830 0.39040 0.15900
H 	H 	0.02880 0.17690 0.41910 0.13500
C 	C 	0.04740 0.07220 0.45770 0.33400
O 	O 	0.09960 0.07480 0.47900 -0.19600
O 	O 	0.05660 0.99160 0.45820 -0.21100
N 	N 	0.12553 0.27910 0.93555 -0.08400
C 	C 	0.09070 0.28340 0.97780 -0.11200
H 	H 	0.11160 0.26580 0.01080 0.04300
H 	H 	0.08140 0.34430 0.98120 0.08200
C 	C 	0.04100 0.23170 0.96770 0.13300
O 	O 	0.01370 0.24550 0.91790 -0.16600
N 	N 	0.12062 0.53740 0.24140 -0.10900
C 	C 	0.07700 0.48920 0.20930 0.02000
C 	C 	0.04460 0.48780 0.15270 0.05100
O 	O 	0.03590 0.58130 0.15350 -0.16100
N 	N 	0.33492 0.30290 0.31260 -0.12400
C 	C 	0.36620 0.38460 0.32230 -0.03000
C 	C 	0.10860 0.79720 0.16050 0.03300
C 	C 	0.41190 0.38060 0.37040 0.08000
O 	O 	0.46258 0.41750 0.39690 -0.15000
Fe	Fe	0.65300 0.67319 0.15200 1.18800
Ni	Ni	0.72890 0.91505 0.27964 1.06500
N 	N 	0.60977 0.55330 0.05856 -0.03400
N 	N 	0.56121 0.80660 0.11999 -0.06400
N 	N 	0.72748 0.75180 0.07716 -0.17400
N 	N 	0.69633 0.80050 0.24099 -0.17600
N 	N 	0.57801 0.59410 0.22508 -0.17200
N 	N 	0.73849 0.53180 0.18426 -0.17300
N 	N 	0.79728 0.64010 0.01731 -0.26600
H 	H 	0.81650 0.63150 0.99010 0.11500
N 	N 	0.68695 0.66280 0.97811 -0.23300
H 	H 	0.66680 0.65920 0.00510 0.08700
N 	N 	0.75370 0.84950 0.35150 -0.27500
H 	H 	0.77760 0.88470 0.37140 0.10700
N 	N 	0.69800 0.98420 0.20900 -0.24600
H 	H 	0.67340 0.94940 0.18960 0.10100
N 	N 	0.65783 0.93070 0.31190 -0.24800
H 	H 	0.63590 0.88760 0.29700 0.08900
N 	N 	0.79936 0.90410 0.24417 -0.25900
H 	H 	0.82320 0.94580 0.25760 0.10300
C 	C 	0.68042 0.75160 0.20786 -0.20600
C 	C 	0.62481 0.59920 0.09407 -0.22600
C 	C 	0.60707 0.62010 0.19732 -0.21100
C 	C 	0.59601 0.75670 0.13175 -0.22700
C 	C 	0.69912 0.72560 0.10672 -0.21600
C 	C 	0.70742 0.58750 0.17252 -0.20900
C 	C 	0.71380 0.57750 0.97290 -0.06000
H 	H 	0.68790 0.53070 0.97430 0.07700
H 	H 	0.72770 0.57420 0.93940 0.04000
C 	C 	0.75720 0.56590 0.01820 -0.13500
H 	H 	0.74280 0.56490 0.05150 0.06100
H 	H 	0.77610 0.51150 0.01460 0.06100
C 	C 	0.64870 0.69350 0.93067 -0.05500
H 	H 	0.66950 0.69510 0.90140 0.04300
H 	H 	0.62010 0.65100 0.92230 0.07700
C 	C 	0.83816 0.64760 0.06539 -0.05700
H 	H 	0.85910 0.59430 0.07000 0.05400
H 	H 	0.81840 0.65350 0.09530 0.04500
C 	C 	0.66710 0.06580 0.22110 -0.03900
H 	H 	0.65640 0.09500 0.18780 0.06300
H 	H 	0.69170 0.10340 0.24340 0.03900
C 	C 	0.74980 0.99840 0.17830 -0.10700
H 	H 	0.76990 0.04990 0.19120 0.05500
H 	H 	0.73660 0.00600 0.14120 0.05800
C 	C 	0.78020 0.92510 0.18444 -0.08600
H 	H 	0.75990 0.87560 0.16870 0.04600
H 	H 	0.81200 0.93210 0.16680 0.05200
C 	C 	0.82440 0.82360 0.25430 -0.01900
H 	H 	0.85750 0.82160 0.23830 0.04600
H 	H 	0.80000 0.78100 0.23600 0.03000
C 	C 	0.78470 0.79230 0.33340 0.00300
H 	H 	0.75950 0.76420 0.30640 0.00100
H 	H 	0.79130 0.75080 0.36210 0.04200
C 	C 	0.70730 0.83510 0.37700 0.02900
H 	H 	0.71890 0.83180 0.41460 0.02100
H 	H 	0.68910 0.78100 0.36610 0.01300
C 	C 	0.67380 0.90220 0.37060 -0.19300
H 	H 	0.64080 0.88620 0.38430 0.08700
H 	H 	0.68880 0.95220 0.39050 0.07900
C 	C 	0.62890 0.00060 0.29970 -0.02100
H 	H 	0.64550 0.04560 0.32300 0.03900
H 	H 	0.59290 0.99080 0.30900 0.04800
N 	N 	0.52200 0.70150 0.30167 -0.24800
H 	H 	0.49490 0.70890 0.32170 0.10000
C 	C 	0.52360 0.77890 0.26960 -0.07900
H 	H 	0.55670 0.77980 0.25350 0.04200
H 	H 	0.52320 0.82950 0.29210 0.05500
N 	N 	0.52444 0.50300 0.30694 -0.24700
H 	H 	0.49660 0.49830 0.32630 0.11000
C 	C 	0.52070 0.42580 0.27630 -0.11500
H 	H 	0.51270 0.37700 0.29800 0.08200
H 	H 	0.55620 0.41580 0.26610 0.06200
C 	C 	0.57420 0.53330 0.34750 -0.07800
H 	H 	0.60610 0.52880 0.32990 0.05200
H 	H 	0.57840 0.49180 0.37630 0.09200
C 	C 	0.57350 0.68880 0.33830 -0.04000
H 	H 	0.57940 0.74020 0.36020 0.04800
H 	H 	0.60350 0.68430 0.31790 0.03700
N 	N 	0.57301 0.61720 0.36957 -0.06400
C 	C 	0.53280 0.61660 0.40901 -0.29300
H 	H 	0.49820 0.59830 0.39040 0.12800
H 	H 	0.52880 0.67690 0.41910 0.12700
C 	C 	0.54740 0.57220 0.45770 0.32500
O 	O 	0.59960 0.57480 0.47900 -0.19400
O 	O 	0.55660 0.49160 0.45820 -0.20300
N 	N 	0.62553 0.77910 0.93555 -0.08200
C 	C 	0.59070 0.78340 0.97780 -0.11500
H 	H 	0.61160 0.76580 0.01080 0.04400
H 	H 	0.58140 0.84430 0.98120 0.08600
C 	C 	0.54100 0.73170 0.96770 0.14000
O 	O 	0.51370 0.74550 0.91790 -0.15600
N 	N 	0.62062 0.03740 0.24140 -0.10800
C 	C 	0.57700 0.98920 0.20930 0.02300
C 	C 	0.54460 0.98780 0.15270 0.05700
O 	O 	0.53590 0.08130 0.15350 -0.15200
N 	N 	0.83492 0.80290 0.31260 -0.12500
C 	C 	0.86620 0.88460 0.32230 -0.03000
C 	C 	0.60860 0.29720 0.16050 0.03800
C 	C 	0.91190 0.88060 0.37040 0.08100
O 	O 	0.96258 0.91750 0.39690 -0.14000
Fe	Fe	0.84700 0.17319 0.34800 1.18800
Ni	Ni	0.77110 0.41505 0.22036 1.06500
N 	N 	0.89023 0.05330 0.44144 -0.02700
N 	N 	0.93879 0.30660 0.38001 -0.05800
N 	N 	0.77252 0.25180 0.42284 -0.17400
N 	N 	0.80367 0.30050 0.25901 -0.17600
N 	N 	0.92199 0.09410 0.27492 -0.16900
N 	N 	0.76151 0.03180 0.31574 -0.17300
N 	N 	0.70272 0.14010 0.48269 -0.25300
H 	H 	0.68350 0.13150 0.50990 0.09500
N 	N 	0.81305 0.16280 0.52189 -0.24800
H 	H 	0.83320 0.15920 0.49490 0.10700
N 	N 	0.74630 0.34950 0.14850 -0.27600
H 	H 	0.72240 0.38470 0.12860 0.10600
N 	N 	0.80200 0.48420 0.29100 -0.24600
H 	H 	0.82660 0.44940 0.31040 0.10200
N 	N 	0.84217 0.43070 0.18810 -0.24600
H 	H 	0.86410 0.38760 0.20300 0.08900
N 	N 	0.70064 0.40410 0.25583 -0.25900
H 	H 	0.67680 0.44580 0.24240 0.10300
C 	C 	0.81958 0.25160 0.29214 -0.20500
C 	C 	0.87519 0.09920 0.40593 -0.22400
C 	C 	0.89293 0.12010 0.30268 -0.21100
C 	C 	0.90399 0.25670 0.36825 -0.22500
C 	C 	0.80088 0.22560 0.39328 -0.21500
C 	C 	0.79258 0.08750 0.32748 -0.20800
C 	C 	0.78620 0.07750 0.52710 -0.10100
H 	H 	0.81210 0.03070 0.52570 0.08300
H 	H 	0.77230 0.07420 0.56060 0.05000
C 	C 	0.74280 0.06590 0.48180 -0.09600
H 	H 	0.75720 0.06490 0.44850 0.05200
H 	H 	0.72390 0.01150 0.48540 0.05600
C 	C 	0.85130 0.19350 0.56933 -0.06100
H 	H 	0.83050 0.19510 0.59860 0.04500
H 	H 	0.87990 0.15100 0.57770 0.07900
C 	C 	0.66184 0.14760 0.43461 -0.05200
H 	H 	0.64090 0.09430 0.43000 0.05300
H 	H 	0.68160 0.15350 0.40470 0.04300
C 	C 	0.83290 0.56580 0.27890 -0.04000
H 	H 	0.84360 0.59500 0.31220 0.06400
H 	H 	0.80830 0.60340 0.25660 0.04000
C 	C 	0.75020 0.49840 0.32170 -0.10300
H 	H 	0.73010 0.54990 0.30880 0.05400
H 	H 	0.76340 0.50600 0.35880 0.05900
C 	C 	0.71980 0.42510 0.31556 -0.08800
H 	H 	0.74010 0.37560 0.33130 0.04700
H 	H 	0.68800 0.43210 0.33320 0.05300
C 	C 	0.67560 0.32360 0.24570 -0.01900
H 	H 	0.64250 0.32160 0.26170 0.04500
H 	H 	0.70000 0.28100 0.26400 0.02900
C 	C 	0.71530 0.29230 0.16660 0.00400
H 	H 	0.74050 0.26420 0.19360 0.00100
H 	H 	0.70870 0.25080 0.13790 0.03900
C 	C 	0.79270 0.33510 0.12300 0.03400
H 	H 	0.78110 0.33180 0.08540 0.01600
H 	H 	0.81090 0.28100 0.13390 0.01100
C 	C 	0.82620 0.40220 0.12940 -0.19600
H 	H 	0.85920 0.38620 0.11570 0.08800
H 	H 	0.81120 0.45220 0.10950 0.07900
C 	C 	0.87110 0.50060 0.20030 -0.02400
H 	H 	0.85450 0.54560 0.17700 0.04100
H 	H 	0.90710 0.49080 0.19100 0.05300
N 	N 	0.97800 0.20150 0.19833 -0.23500
H 	H 	0.00510 0.20890 0.17830 0.08100
C 	C 	0.97640 0.27890 0.23040 -0.03100
H 	H 	0.94330 0.27980 0.24650 0.03000
H 	H 	0.97680 0.32950 0.20790 0.04800
N 	N 	0.97556 0.00300 0.19306 -0.23200
H 	H 	0.00340 0.99830 0.17370 0.09100
C 	C 	0.97930 0.92580 0.22370 -0.08600
H 	H 	0.98730 0.87700 0.20200 0.08200
H 	H 	0.94380 0.91580 0.23390 0.05600
C 	C 	0.92580 0.03330 0.15250 -0.06900
H 	H 	0.89390 0.02880 0.17010 0.04900
H 	H 	0.92160 0.99180 0.12370 0.09000
C 	C 	0.92650 0.18880 0.16170 -0.03500
H 	H 	0.92060 0.24020 0.13980 0.04700
H 	H 	0.89650 0.18430 0.18210 0.03500
N 	N 	0.92699 0.11720 0.13043 -0.07000
C 	C 	0.96720 0.11660 0.09099 -0.23800
H 	H 	0.00180 0.09830 0.10960 0.09700
H 	H 	0.97120 0.17690 0.08090 0.11600
C 	C 	0.95260 0.07220 0.04230 0.31200
O 	O 	0.90040 0.07480 0.02100 -0.19900
O 	O 	0.94340 0.99160 0.04180 -0.20000
N 	N 	0.87447 0.27910 0.56445 -0.07600
C 	C 	0.90930 0.28340 0.52220 -0.16800
H 	H 	0.88840 0.26580 0.48920 0.07600
H 	H 	0.91860 0.34430 0.51880 0.09800
C 	C 	0.95900 0.23170 0.53230 0.14700
O 	O 	0.98630 0.24550 0.58210 -0.14900
N 	N 	0.87938 0.53740 0.25860 -0.10700
C 	C 	0.92300 0.48920 0.29070 0.02600
C 	C 	0.95540 0.48780 0.34730 0.06800
O 	O 	0.96410 0.58130 0.34650 -0.14300
N 	N 	0.66508 0.30290 0.18740 -0.12500
C 	C 	0.63380 0.38460 0.17770 -0.03000
C 	C 	0.89140 0.79720 0.33950 0.04400
C 	C 	0.58810 0.38060 0.12960 0.07700
O 	O 	0.53742 0.41750 0.10310 -0.15300
Fe	Fe	0.34700 0.67319 0.34800 1.18800
Ni	Ni	0.27110 0.91505 0.22036 1.06500
N 	N 	0.39023 0.55330 0.44144 -0.02800
N 	N 	0.43879 0.80660 0.38001 -0.06200
N 	N 	0.27252 0.75180 0.42284 -0.17400
N 	N 	0.30367 0.80050 0.25901 -0.17600
N 	N 	0.42199 0.59410 0.27492 -0.17200
N 	N 	0.26151 0.53180 0.31574 -0.17300
N 	N 	0.20272 0.64010 0.48269 -0.25300
H 	H 	0.18350 0.63150 0.50990 0.09400
N 	N 	0.31305 0.66280 0.52189 -0.24800
H 	H 	0.33320 0.65920 0.49490 0.10700
N 	N 	0.24630 0.84950 0.14850 -0.27500
H 	H 	0.22240 0.88470 0.12860 0.10500
N 	N 	0.30200 0.98420 0.29100 -0.24600
H 	H 	0.32660 0.94940 0.31040 0.10200
N 	N 	0.34217 0.93070 0.18810 -0.24800
H 	H 	0.36410 0.88760 0.20300 0.08900
N 	N 	0.20064 0.90410 0.25583 -0.25900
H 	H 	0.17680 0.94580 0.24240 0.10200
C 	C 	0.31958 0.75160 0.29214 -0.20600
C 	C 	0.37519 0.59920 0.40593 -0.22500
C 	C 	0.39293 0.62010 0.30268 -0.21100
C 	C 	0.40399 0.75670 0.36825 -0.22600
C 	C 	0.30088 0.72560 0.39328 -0.21500
C 	C 	0.29258 0.58750 0.32748 -0.20900
C 	C 	0.28620 0.57750 0.52710 -0.10100
H 	H 	0.31210 0.53070 0.52570 0.08300
H 	H 	0.27230 0.57420 0.56060 0.05000
C 	C 	0.24280 0.56590 0.48180 -0.09500
H 	H 	0.25720 0.56490 0.44850 0.05100
H 	H 	0.22390 0.51150 0.48540 0.05600
C 	C 	0.35130 0.69350 0.56933 -0.06100
H 	H 	0.33050 0.69510 0.59860 0.04500
H 	H 	0.37990 0.65100 0.57770 0.07800
C 	C 	0.16184 0.64760 0.43461 -0.05100
H 	H 	0.14090 0.59430 0.43000 0.05100
H 	H 	0.18160 0.65350 0.40470 0.04200
C 	C 	0.33290 0.06580 0.27890 -0.04000
H 	H 	0.34360 0.09500 0.31220 0.06300
H 	H 	0.30830 0.10340 0.25660 0.03900
C 	C 	0.25020 0.99840 0.32170 -0.10600
H 	H 	0.23010 0.04990 0.30880 0.05500
H 	H 	0.26340 0.00600 0.35880 0.06000
C 	C 	0.21980 0.92510 0.31556 -0.08600
H 	H 	0.24010 0.87560 0.33130 0.04700
H 	H 	0.18800 0.93210 0.33320 0.05200
C 	C 	0.17560 0.82360 0.24570 -0.01800
H 	H 	0.14250 0.82160 0.26170 0.04300
H 	H 	0.20000 0.78100 0.26400 0.02900
C 	C 	0.21530 0.79230 0.16660 0.00400
H 	H 	0.24050 0.76420 0.19360 0.00100
H 	H 	0.20870 0.75080 0.13790 0.03900
C 	C 	0.29270 0.83510 0.12300 0.03100
H 	H 	0.28110 0.83180 0.08540 0.01600
H 	H 	0.31090 0.78100 0.13390 0.01100
C 	C 	0.32620 0.90220 0.12940 -0.19300
H 	H 	0.35920 0.88620 0.11570 0.08500
H 	H 	0.31120 0.95220 0.10950 0.07700
C 	C 	0.37110 0.00060 0.20030 -0.02000
H 	H 	0.35450 0.04560 0.17700 0.03800
H 	H 	0.40710 0.99080 0.19100 0.04800
N 	N 	0.47800 0.70150 0.19833 -0.24800
H 	H 	0.50510 0.70890 0.17830 0.09900
C 	C 	0.47640 0.77890 0.23040 -0.07800
H 	H 	0.44330 0.77980 0.24650 0.04200
H 	H 	0.47680 0.82950 0.20790 0.05400
N 	N 	0.47556 0.50300 0.19306 -0.24800
H 	H 	0.50340 0.49830 0.17370 0.11000
C 	C 	0.47930 0.42580 0.22370 -0.11500
H 	H 	0.48730 0.37700 0.20200 0.08200
H 	H 	0.44380 0.41580 0.23390 0.06200
C 	C 	0.42580 0.53330 0.15250 -0.07800
H 	H 	0.39390 0.52880 0.17010 0.05200
H 	H 	0.42160 0.49180 0.12370 0.09200
C 	C 	0.42650 0.68880 0.16170 -0.03900
H 	H 	0.42060 0.74020 0.13980 0.04600
H 	H 	0.39650 0.68430 0.18210 0.03600
N 	N 	0.42699 0.61720 0.13043 -0.06500
C 	C 	0.46720 0.61660 0.09099 -0.28900
H 	H 	0.50180 0.59830 0.10960 0.12700
H 	H 	0.47120 0.67690 0.08090 0.12300
C 	C 	0.45260 0.57220 0.04230 0.31900
O 	O 	0.40040 0.57480 0.02100 -0.20200
O 	O 	0.44340 0.49160 0.04180 -0.20800
N 	N 	0.37447 0.77910 0.56445 -0.07800
C 	C 	0.40930 0.78340 0.52220 -0.16400
H 	H 	0.38840 0.76580 0.48920 0.07400
H 	H 	0.41860 0.84430 0.51880 0.09400
C 	C 	0.45900 0.73170 0.53230 0.14000
O 	O 	0.48630 0.74550 0.58210 -0.15900
N 	N 	0.37938 0.03740 0.25860 -0.10800
C 	C 	0.42300 0.98920 0.29070 0.02200
C 	C 	0.45540 0.98780 0.34730 0.06000
O 	O 	0.46410 0.08130 0.34650 -0.15100
N 	N 	0.16508 0.80290 0.18740 -0.12400
C 	C 	0.13380 0.88460 0.17770 -0.03000
C 	C 	0.39140 0.29720 0.33950 0.03900
C 	C 	0.08810 0.88060 0.12960 0.07600
O 	O 	0.03742 0.91750 0.10310 -0.16300
Fe	Fe	0.84700 0.82681 0.84800 1.18800
Ni	Ni	0.77110 0.58495 0.72036 1.06500
N 	N 	0.89023 0.94670 0.94144 -0.02100
N 	N 	0.93879 0.69340 0.88001 -0.05600
N 	N 	0.77252 0.74820 0.92284 -0.17000
N 	N 	0.80367 0.69950 0.75901 -0.17600
N 	N 	0.92199 0.90590 0.77492 -0.16900
N 	N 	0.76151 0.96820 0.81574 -0.17300
N 	N 	0.70272 0.85990 0.98269 -0.23700
H 	H 	0.68350 0.86850 0.00990 0.07400
N 	N 	0.81305 0.83720 0.02189 -0.26100
H 	H 	0.83320 0.84080 0.99490 0.12600
N 	N 	0.74630 0.65050 0.64850 -0.27500
H 	H 	0.72240 0.61530 0.62860 0.10700
N 	N 	0.80200 0.51580 0.79100 -0.24600
H 	H 	0.82660 0.55060 0.81040 0.10300
N 	N 	0.84217 0.56930 0.68810 -0.24600
H 	H 	0.86410 0.61240 0.70300 0.08900
N 	N 	0.70064 0.59590 0.75583 -0.25900
H 	H 	0.67680 0.55420 0.74240 0.10300
C 	C 	0.81958 0.74840 0.79214 -0.20500
C 	C 	0.87519 0.90080 0.90593 -0.22300
C 	C 	0.89293 0.87990 0.80268 -0.21000
C 	C 	0.90399 0.74330 0.86825 -0.22500
C 	C 	0.80088 0.77440 0.89328 -0.21400
C 	C 	0.79258 0.91250 0.82748 -0.20800
C 	C 	0.78620 0.92250 0.02710 -0.14100
H 	H 	0.81210 0.96930 0.02570 0.08800
H 	H 	0.77230 0.92580 0.06060 0.05900
C 	C 	0.74280 0.93410 0.98180 -0.05500
H 	H 	0.75720 0.93510 0.94850 0.04200
H 	H 	0.72390 0.98850 0.98540 0.05100
C 	C 	0.85130 0.80650 0.06933 -0.06600
H 	H 	0.83050 0.80490 0.09860 0.04700
H 	H 	0.87990 0.84900 0.07770 0.07900
C 	C 	0.66184 0.85240 0.93461 -0.04700
H 	H 	0.64090 0.90570 0.93000 0.05400
H 	H 	0.68160 0.84650 0.90470 0.04100
C 	C 	0.83290 0.43420 0.77890 -0.04100
H 	H 	0.84360 0.40500 0.81220 0.06500
H 	H 	0.80830 0.39660 0.75660 0.04000
C 	C 	0.75020 0.50160 0.82170 -0.10500
H 	H 	0.73010 0.45010 0.80880 0.05500
H 	H 	0.76340 0.49400 0.85880 0.06100
C 	C 	0.71980 0.57490 0.81556 -0.08700
H 	H 	0.74010 0.62440 0.83130 0.04700
H 	H 	0.68800 0.56790 0.83320 0.05300
C 	C 	0.67560 0.67640 0.74570 -0.01900
H 	H 	0.64250 0.67840 0.76170 0.04400
H 	H 	0.70000 0.71900 0.76400 0.02900
C 	C 	0.71530 0.70770 0.66660 0.00400
H 	H 	0.74050 0.73580 0.69360 0.00100
H 	H 	0.70870 0.74920 0.63790 0.04200
C 	C 	0.79270 0.66490 0.62300 0.03100
H 	H 	0.78110 0.66820 0.58540 0.02000
H 	H 	0.81090 0.71900 0.63390 0.01200
C 	C 	0.82620 0.59780 0.62940 -0.19600
H 	H 	0.85920 0.61380 0.61570 0.09000
H 	H 	0.81120 0.54780 0.60950 0.08000
C 	C 	0.87110 0.49940 0.70030 -0.02400
H 	H 	0.85450 0.45440 0.67700 0.04100
H 	H 	0.90710 0.50920 0.69100 0.05300
N 	N 	0.97800 0.79850 0.69833 -0.23500
H 	H 	0.00510 0.79110 0.67830 0.08100
C 	C 	0.97640 0.72110 0.73040 -0.03200
H 	H 	0.94330 0.72020 0.74650 0.03000
H 	H 	0.97680 0.67050 0.70790 0.04800
N 	N 	0.97556 0.99700 0.69306 -0.23300
H 	H 	0.00340 0.00170 0.67370 0.09100
C 	C 	0.97930 0.07420 0.72370 -0.08600
H 	H 	0.98730 0.12300 0.70200 0.08200
H 	H 	0.94380 0.08420 0.73390 0.05600
C 	C 	0.92580 0.96670 0.65250 -0.07100
H 	H 	0.89390 0.97120 0.67010 0.05000
H 	H 	0.92160 0.00820 0.62370 0.09100
C 	C 	0.92650 0.81120 0.66170 -0.03600
H 	H 	0.92060 0.75980 0.63980 0.04900
H 	H 	0.89650 0.81570 0.68210 0.03500
N 	N 	0.92699 0.88280 0.63043 -0.06900
C 	C 	0.96720 0.88340 0.59099 -0.24100
H 	H 	0.00180 0.90170 0.60960 0.09900
H 	H 	0.97120 0.82310 0.58090 0.12000
C 	C 	0.95260 0.92780 0.54230 0.31600
O 	O 	0.90040 0.92520 0.52100 -0.19100
O 	O 	0.94340 0.00840 0.54180 -0.19400
N 	N 	0.87447 0.72090 0.06445 -0.07100
C 	C 	0.90930 0.71660 0.02220 -0.21700
H 	H 	0.88840 0.73420 0.98920 0.10600
H 	H 	0.91860 0.65570 0.01880 0.10500
C 	C 	0.95900 0.76830 0.03230 0.14800
O 	O 	0.98630 0.75450 0.08210 -0.15100
N 	N 	0.87938 0.46260 0.75860 -0.10700
C 	C 	0.92300 0.51080 0.79070 0.02600
C 	C 	0.95540 0.51220 0.84730 0.07000
O 	O 	0.96410 0.41870 0.84650 -0.14200
N 	N 	0.66508 0.69710 0.68740 -0.12400
C 	C 	0.63380 0.61540 0.67770 -0.03000
C 	C 	0.89140 0.20280 0.83950 0.04600
C 	C 	0.58810 0.61940 0.62960 0.07900
O 	O 	0.53742 0.58250 0.60310 -0.15000
Fe	Fe	0.34700 0.32681 0.84800 1.18800
Ni	Ni	0.27110 0.08495 0.72036 1.06500
N 	N 	0.39023 0.44670 0.94144 -0.02200
N 	N 	0.43879 0.19340 0.88001 -0.06000
N 	N 	0.27252 0.24820 0.92284 -0.17000
N 	N 	0.30367 0.19950 0.75901 -0.17600
N 	N 	0.42199 0.40590 0.77492 -0.17200
N 	N 	0.26151 0.46820 0.81574 -0.17300
N 	N 	0.20272 0.35990 0.98269 -0.23700
H 	H 	0.18350 0.36850 0.00990 0.07400
N 	N 	0.31305 0.33720 0.02189 -0.26100
H 	H 	0.33320 0.34080 0.99490 0.12600
N 	N 	0.24630 0.15050 0.64850 -0.27500
H 	H 	0.22240 0.11530 0.62860 0.10700
N 	N 	0.30200 0.01580 0.79100 -0.24600
H 	H 	0.32660 0.05060 0.81040 0.10200
N 	N 	0.34217 0.06930 0.68810 -0.24700
H 	H 	0.36410 0.11240 0.70300 0.08900
N 	N 	0.20064 0.09590 0.75583 -0.25900
H 	H 	0.17680 0.05420 0.74240 0.10200
C 	C 	0.31958 0.24840 0.79214 -0.20500
C 	C 	0.37519 0.40080 0.90593 -0.22400
C 	C 	0.39293 0.37990 0.80268 -0.21100
C 	C 	0.40399 0.24330 0.86825 -0.22600
C 	C 	0.30088 0.27440 0.89328 -0.21400
C 	C 	0.29258 0.41250 0.82748 -0.20800
C 	C 	0.28620 0.42250 0.02710 -0.14100
H 	H 	0.31210 0.46930 0.02570 0.08800
H 	H 	0.27230 0.42580 0.06060 0.06000
C 	C 	0.24280 0.43410 0.98180 -0.05500
H 	H 	0.25720 0.43510 0.94850 0.04200
H 	H 	0.22390 0.48850 0.98540 0.05100
C 	C 	0.35130 0.30650 0.06933 -0.06600
H 	H 	0.33050 0.30490 0.09860 0.04700
H 	H 	0.37990 0.34900 0.07770 0.07800
C 	C 	0.16184 0.35240 0.93461 -0.04700
H 	H 	0.14090 0.40570 0.93000 0.05200
H 	H 	0.18160 0.34650 0.90470 0.04100
C 	C 	0.33290 0.93420 0.77890 -0.04000
H 	H 	0.34360 0.90500 0.81220 0.06500
H 	H 	0.30830 0.89660 0.75660 0.04000
C 	C 	0.25020 0.00160 0.82170 -0.10800
H 	H 	0.23010 0.95010 0.80880 0.05700
H 	H 	0.26340 0.99400 0.85880 0.06300
C 	C 	0.21980 0.07490 0.81556 -0.08500
H 	H 	0.24010 0.12440 0.83130 0.04600
H 	H 	0.18800 0.06790 0.83320 0.05200
C 	C 	0.17560 0.17640 0.74570 -0.01800
H 	H 	0.14250 0.17840 0.76170 0.04300
H 	H 	0.20000 0.21900 0.76400 0.02900
C 	C 	0.21530 0.20770 0.66660 0.00300
H 	H 	0.24050 0.23580 0.69360 0.00100
H 	H 	0.20870 0.24920 0.63790 0.04100
C 	C 	0.29270 0.16490 0.62300 0.02900
H 	H 	0.28110 0.16820 0.58540 0.02000
H 	H 	0.31090 0.21900 0.63390 0.01300
C 	C 	0.32620 0.09780 0.62940 -0.19300
H 	H 	0.35920 0.11380 0.61570 0.08700
H 	H 	0.31120 0.04780 0.60950 0.07900
C 	C 	0.37110 0.99940 0.70030 -0.02200
H 	H 	0.35450 0.95440 0.67700 0.03900
H 	H 	0.40710 0.00920 0.69100 0.04900
N 	N 	0.47800 0.29850 0.69833 -0.24800
H 	H 	0.50510 0.29110 0.67830 0.10000
C 	C 	0.47640 0.22110 0.73040 -0.07800
H 	H 	0.44330 0.22020 0.74650 0.04200
H 	H 	0.47680 0.17050 0.70790 0.05400
N 	N 	0.47556 0.49700 0.69306 -0.24800
H 	H 	0.50340 0.50170 0.67370 0.11000
C 	C 	0.47930 0.57420 0.72370 -0.11500
H 	H 	0.48730 0.62300 0.70200 0.08200
H 	H 	0.44380 0.58420 0.73390 0.06200
C 	C 	0.42580 0.46670 0.65250 -0.07800
H 	H 	0.39390 0.47120 0.67010 0.05200
H 	H 	0.42160 0.50820 0.62370 0.09200
C 	C 	0.42650 0.31120 0.66170 -0.04000
H 	H 	0.42060 0.25980 0.63980 0.04800
H 	H 	0.39650 0.31570 0.68210 0.03700
N 	N 	0.42699 0.38280 0.63043 -0.06400
C 	C 	0.46720 0.38340 0.59099 -0.29300
H 	H 	0.50180 0.40170 0.60960 0.12800
H 	H 	0.47120 0.32310 0.58090 0.12700
C 	C 	0.45260 0.42780 0.54230 0.32500
O 	O 	0.40040 0.42520 0.52100 -0.19400
O 	O 	0.44340 0.50840 0.54180 -0.20300
N 	N 	0.37447 0.22090 0.06445 -0.07300
C 	C 	0.40930 0.21660 0.02220 -0.21200
H 	H 	0.38840 0.23420 0.98920 0.10400
H 	H 	0.41860 0.15570 0.01880 0.10100
C 	C 	0.45900 0.26830 0.03230 0.14100
O 	O 	0.48630 0.25450 0.08210 -0.16200
N 	N 	0.37938 0.96260 0.75860 -0.10800
C 	C 	0.42300 0.01080 0.79070 0.02200
C 	C 	0.45540 0.01220 0.84730 0.06300
O 	O 	0.46410 0.91870 0.84650 -0.15000
N 	N 	0.16508 0.19710 0.68740 -0.12400
C 	C 	0.13380 0.11540 0.67770 -0.03000
C 	C 	0.39140 0.70280 0.83950 0.04100
C 	C 	0.08810 0.11940 0.62960 0.07800
O 	O 	0.03742 0.08250 0.60310 -0.16000
Fe	Fe	0.15300 0.82681 0.65200 1.18800
Ni	Ni	0.22890 0.58495 0.77964 1.06500
N 	N 	0.10977 0.94670 0.55856 -0.02900
N 	N 	0.06121 0.69340 0.61999 -0.06600
N 	N 	0.22748 0.74820 0.57716 -0.17400
N 	N 	0.19633 0.69950 0.74099 -0.17600
N 	N 	0.07801 0.90590 0.72508 -0.17300
N 	N 	0.23849 0.96820 0.68426 -0.17300
N 	N 	0.29728 0.85990 0.51731 -0.25300
H 	H 	0.31650 0.86850 0.49010 0.09500
N 	N 	0.18695 0.83720 0.47811 -0.24800
H 	H 	0.16680 0.84080 0.50510 0.10700
N 	N 	0.25370 0.65050 0.85150 -0.27400
H 	H 	0.27760 0.61530 0.87140 0.10900
N 	N 	0.19800 0.51580 0.70900 -0.24600
H 	H 	0.17340 0.55060 0.68960 0.10200
N 	N 	0.15783 0.56930 0.81190 -0.24800
H 	H 	0.13590 0.61240 0.79700 0.08800
N 	N 	0.29936 0.59590 0.74417 -0.25800
H 	H 	0.32320 0.55420 0.75760 0.10300
C 	C 	0.18042 0.74840 0.70786 -0.20600
C 	C 	0.12481 0.90080 0.59407 -0.22500
C 	C 	0.10707 0.87990 0.69732 -0.21100
C 	C 	0.09601 0.74330 0.63175 -0.22700
C 	C 	0.19912 0.77440 0.60672 -0.21500
C 	C 	0.20742 0.91250 0.67252 -0.20800
C 	C 	0.21380 0.92250 0.47290 -0.10100
H 	H 	0.18790 0.96930 0.47430 0.08300
H 	H 	0.22770 0.92580 0.43940 0.05000
C 	C 	0.25720 0.93410 0.51820 -0.09500
H 	H 	0.24280 0.93510 0.55150 0.05100
H 	H 	0.27610 0.98850 0.51460 0.05600
C 	C 	0.14870 0.80650 0.43067 -0.06000
H 	H 	0.16950 0.80490 0.40140 0.04400
H 	H 	0.12010 0.84900 0.42230 0.07700
C 	C 	0.33816 0.85240 0.56539 -0.05200
H 	H 	0.35910 0.90570 0.57000 0.05300
H 	H 	0.31840 0.84650 0.59530 0.04300
C 	C 	0.16710 0.43420 0.72110 -0.04000
H 	H 	0.15640 0.40500 0.68780 0.06300
H 	H 	0.19170 0.39660 0.74340 0.03900
C 	C 	0.24980 0.50160 0.67830 -0.10300
H 	H 	0.26990 0.45010 0.69120 0.05400
H 	H 	0.23660 0.49400 0.64120 0.05800
C 	C 	0.28020 0.57490 0.68444 -0.08900
H 	H 	0.25990 0.62440 0.66870 0.04700
H 	H 	0.31200 0.56790 0.66680 0.05300
C 	C 	0.32440 0.67640 0.75430 -0.01900
H 	H 	0.35750 0.67840 0.73830 0.04400
H 	H 	0.30000 0.71900 0.73600 0.02900
C 	C 	0.28470 0.70770 0.83340 0.00200
H 	H 	0.25950 0.73580 0.80640 0.00200
H 	H 	0.29130 0.74920 0.86210 0.04400
C 	C 	0.20730 0.66490 0.87700 0.02500
H 	H 	0.21890 0.66820 0.91460 0.02500
H 	H 	0.18910 0.71900 0.86610 0.01500
C 	C 	0.17380 0.59780 0.87060 -0.19000
H 	H 	0.14080 0.61380 0.88430 0.08600
H 	H 	0.18880 0.54780 0.89050 0.07900
C 	C 	0.12890 0.49940 0.79970 -0.02000
H 	H 	0.14550 0.45440 0.82300 0.03800
H 	H 	0.09290 0.50920 0.80900 0.04500
N 	N 	0.02200 0.79850 0.80167 -0.25900
H 	H 	0.99490 0.79110 0.82170 0.11800
C 	C 	0.02360 0.72110 0.76960 -0.12400
H 	H 	0.05670 0.72020 0.75350 0.05400
H 	H 	0.02320 0.67050 0.79210 0.06100
N 	N 	0.02444 0.99700 0.80694 -0.25900
H 	H 	0.99660 0.00170 0.82630 0.12800
C 	C 	0.02070 0.07420 0.77630 -0.14400
H 	H 	0.01270 0.12300 0.79800 0.08200
H 	H 	0.05620 0.08420 0.76610 0.06800
C 	C 	0.07420 0.96670 0.84750 -0.08300
H 	H 	0.10610 0.97120 0.82990 0.05400
H 	H 	0.07840 0.00820 0.87630 0.09200
C 	C 	0.07350 0.81120 0.83830 -0.04500
H 	H 	0.07940 0.75980 0.86020 0.04800
H 	H 	0.10350 0.81570 0.81790 0.03900
N 	N 	0.07301 0.88280 0.86957 -0.05800
C 	C 	0.03280 0.88340 0.90901 -0.34700
H 	H 	0.99820 0.90170 0.89040 0.16000
H 	H 	0.02880 0.82310 0.91910 0.13900
C 	C 	0.04740 0.92780 0.95770 0.33900
O 	O 	0.09960 0.92520 0.97900 -0.18800
O 	O 	0.05660 0.00840 0.95820 -0.20700
N 	N 	0.12553 0.72090 0.43555 -0.07900
C 	C 	0.09070 0.71660 0.47780 -0.16000
H 	H 	0.11160 0.73420 0.51080 0.07200
H 	H 	0.08140 0.65570 0.48120 0.08900
C 	C 	0.04100 0.76830 0.46770 0.13300
O 	O 	0.01370 0.75450 0.41790 -0.16900
N 	N 	0.12062 0.46260 0.74140 -0.10900
C 	C 	0.07700 0.51080 0.70930 0.01900
C 	C 	0.04460 0.51220 0.65270 0.05400
O 	O 	0.03590 0.41870 0.65350 -0.15900
N 	N 	0.33492 0.69710 0.81260 -0.12400
C 	C 	0.36620 0.61540 0.82230 -0.03000
C 	C 	0.10860 0.20280 0.66050 0.03400
C 	C 	0.41190 0.61940 0.87040 0.08200
O 	O 	0.46258 0.58250 0.89690 -0.14700
Fe	Fe	0.65300 0.32681 0.65200 1.18800
Ni	Ni	0.72890 0.08495 0.77964 1.06500
N 	N 	0.60977 0.44670 0.55856 -0.02800
N 	N 	0.56121 0.19340 0.61999 -0.06200
N 	N 	0.72748 0.24820 0.57716 -0.17400
N 	N 	0.69633 0.19950 0.74099 -0.17600
N 	N 	0.57801 0.40590 0.72508 -0.17200
N 	N 	0.73849 0.46820 0.68426 -0.17300
N 	N 	0.79728 0.35990 0.51731 -0.25300
H 	H 	0.81650 0.36850 0.49010 0.09500
N 	N 	0.68695 0.33720 0.47811 -0.24800
H 	H 	0.66680 0.34080 0.50510 0.10700
N 	N 	0.75370 0.15050 0.85150 -0.27400
H 	H 	0.77760 0.11530 0.87140 0.10900
N 	N 	0.69800 0.01580 0.70900 -0.24600
H 	H 	0.67340 0.05060 0.68960 0.10200
N 	N 	0.65783 0.06930 0.81190 -0.24800
H 	H 	0.63590 0.11240 0.79700 0.08900
N 	N 	0.79936 0.09590 0.74417 -0.25900
H 	H 	0.82320 0.05420 0.75760 0.10300
C 	C 	0.68042 0.24840 0.70786 -0.20600
C 	C 	0.62481 0.40080 0.59407 -0.22500
C 	C 	0.60707 0.37990 0.69732 -0.21100
C 	C 	0.59601 0.24330 0.63175 -0.22700
C 	C 	0.69912 0.27440 0.60672 -0.21500
C 	C 	0.70742 0.41250 0.67252 -0.20900
C 	C 	0.71380 0.42250 0.47290 -0.10100
H 	H 	0.68790 0.46930 0.47430 0.08300
H 	H 	0.72770 0.42580 0.43940 0.05000
C 	C 	0.75720 0.43410 0.51820 -0.09600
H 	H 	0.74280 0.43510 0.55150 0.05200
H 	H 	0.77610 0.48850 0.51460 0.05700
C 	C 	0.64870 0.30650 0.43067 -0.06100
H 	H 	0.66950 0.30490 0.40140 0.04500
H 	H 	0.62010 0.34900 0.42230 0.07800
C 	C 	0.83816 0.35240 0.56539 -0.05300
H 	H 	0.85910 0.40570 0.57000 0.05500
H 	H 	0.81840 0.34650 0.59530 0.04300
C 	C 	0.66710 0.93420 0.72110 -0.04000
H 	H 	0.65640 0.90500 0.68780 0.06300
H 	H 	0.69170 0.89660 0.74340 0.03900
C 	C 	0.74980 0.00160 0.67830 -0.10500
H 	H 	0.76990 0.95010 0.69120 0.05500
H 	H 	0.73660 0.99400 0.64120 0.05900
C 	C 	0.78020 0.07490 0.68444 -0.08700
H 	H 	0.75990 0.12440 0.66870 0.04700
H 	H 	0.81200 0.06790 0.66680 0.05200
C 	C 	0.82440 0.17640 0.75430 -0.01900
H 	H 	0.85750 0.17840 0.73830 0.04600
H 	H 	0.80000 0.21900 0.73600 0.03000
C 	C 	0.78470 0.20770 0.83340 0.00300
H 	H 	0.75950 0.23580 0.80640 0.00200
H 	H 	0.79130 0.24920 0.86210 0.04400
C 	C 	0.70730 0.16490 0.87700 0.02600
H 	H 	0.71890 0.16820 0.91460 0.02500
H 	H 	0.68910 0.21900 0.86610 0.01500
C 	C 	0.67380 0.09780 0.87060 -0.19200
H 	H 	0.64080 0.11380 0.88430 0.08800
H 	H 	0.68880 0.04780 0.89050 0.08000
C 	C 	0.62890 0.99940 0.79970 -0.02100
H 	H 	0.64550 0.95440 0.82300 0.03900
H 	H 	0.59290 0.00920 0.80900 0.04900
N 	N 	0.52200 0.29850 0.80167 -0.24800
H 	H 	0.49490 0.29110 0.82170 0.10000
C 	C 	0.52360 0.22110 0.76960 -0.07900
H 	H 	0.55670 0.22020 0.75350 0.04200
H 	H 	0.52320 0.17050 0.79210 0.05500
N 	N 	0.52444 0.49700 0.80694 -0.24700
H 	H 	0.49660 0.50170 0.82630 0.11000
C 	C 	0.52070 0.57420 0.77630 -0.11500
H 	H 	0.51270 0.62300 0.79800 0.08200
H 	H 	0.55620 0.58420 0.76610 0.06200
C 	C 	0.57420 0.46670 0.84750 -0.07900
H 	H 	0.60610 0.47120 0.82990 0.05200
H 	H 	0.57840 0.50820 0.87630 0.09300
C 	C 	0.57350 0.31120 0.83830 -0.04100
H 	H 	0.57940 0.25980 0.86020 0.04900
H 	H 	0.60350 0.31570 0.81790 0.03700
N 	N 	0.57301 0.38280 0.86957 -0.06300
C 	C 	0.53280 0.38340 0.90901 -0.29600
H 	H 	0.49820 0.40170 0.89040 0.13000
H 	H 	0.52880 0.32310 0.91910 0.13100
C 	C 	0.54740 0.42780 0.95770 0.33000
O 	O 	0.59960 0.42520 0.97900 -0.18500
O 	O 	0.55660 0.50840 0.95820 -0.19800
N 	N 	0.62553 0.22090 0.43555 -0.07800
C 	C 	0.59070 0.21660 0.47780 -0.16400
H 	H 	0.61160 0.23420 0.51080 0.07400
H 	H 	0.58140 0.15570 0.48120 0.09400
C 	C 	0.54100 0.26830 0.46770 0.14000
O 	O 	0.51370 0.25450 0.41790 -0.15900
N 	N 	0.62062 0.96260 0.74140 -0.10800
C 	C 	0.57700 0.01080 0.70930 0.02200
C 	C 	0.54460 0.01220 0.65270 0.06100
O 	O 	0.53590 0.91870 0.65350 -0.15100
N 	N 	0.83492 0.19710 0.81260 -0.12400
C 	C 	0.86620 0.11540 0.82230 -0.03100
C 	C 	0.60860 0.70280 0.66050 0.03900
C 	C 	0.91190 0.11940 0.87040 0.08300
O 	O 	0.96258 0.08250 0.89690 -0.13800
Ni	Ni	0.25000 0.25000 -0.00000 1.05800
Ni	Ni	0.75000 0.25000 0.50000 1.06800
Ni	Ni	0.75000 0.75000 -0.00000 1.05800
Ni	Ni	0.25000 0.75000 0.50000 1.06800
Ni	Ni	0.00000 0.09533 0.25000 1.05700
Ni	Ni	0.50000 0.59533 0.25000 1.06600
Ni	Ni	0.00000 0.90467 0.75000 1.05700
Ni	Ni	0.50000 0.40467 0.75000 1.06600
