data_crystal

_cell_length_a 19.45800
_cell_length_b 22.57700
_cell_length_c 45.76300
_cell_angle_alpha 90.00000
_cell_angle_beta  96.35200
_cell_angle_gamma 90.00000

_symmetry_space_group_name_	'P 1'
_symmetry_space_group_name_H-M	'P 1'

loop_
_symmetry_equiv_pos_as_xyz
  x,y,z

loop_
_atom_site_label
_atom_site_type_symbol
_atom_site_fract_x
_atom_site_fract_y
_atom_site_fract_z
_atom_site_charge
Rh	Rh	0.48822 0.98561 0.42632 0.84700
Rh	Rh	0.52571 0.89217 0.45118 0.83800
Rh	Rh	0.96425 0.35529 0.48121 0.84300
Rh	Rh	0.87636 0.39992 0.50915 0.84800
Rh	Rh	0.32589 0.40014 0.23437 0.83700
Rh	Rh	0.38134 0.40579 0.18892 0.84000
N 	N 	0.42250 0.93790 0.39890 -0.23100
N 	N 	0.46700 0.84910 0.41930 -0.18900
N 	N 	0.56400 0.97260 0.39970 -0.23000
N 	N 	0.60780 0.89460 0.42780 -0.23200
N 	N 	0.95680 0.28120 0.50550 -0.23200
N 	N 	0.88680 0.32950 0.53632 -0.23200
N 	N 	0.88610 0.32760 0.45120 -0.23100
N 	N 	0.80330 0.35830 0.48150 -0.22800
N 	N 	0.26370 0.46730 0.22010 -0.23900
N 	N 	0.30350 0.46170 0.17360 -0.23100
N 	N 	0.25950 0.33970 0.21360 -0.26600
N 	N 	0.32880 0.33220 0.17473 -0.23400
N 	N 	0.44440 0.07890 0.41390 -0.17000
N 	N 	0.32270 0.26000 0.37130 -0.14200
N 	N 	0.22840 0.31950 0.38092 -0.14100
N 	N 	0.27130 0.24760 0.41582 -0.14000
N 	N 	0.06050 0.33230 0.45700 -0.16900
N 	N 	0.29950 0.38720 0.28230 -0.17300
N 	N 	0.80460 0.45770 0.53276 -0.17400
N 	N 	0.64350 0.62820 0.53606 -0.14200
N 	N 	0.54960 0.65680 0.56181 -0.13700
N 	N 	0.61390 0.56950 0.57555 -0.14400
N 	N 	0.43970 0.58520 0.64868 -0.17700
N 	N 	0.55000 0.80940 0.48070 -0.18000
O 	O 	0.60600 0.10310 0.29920 -0.18800
O 	O 	0.82660 0.73710 0.46190 -0.19200
O 	O 	0.05310 0.05140 0.47920 -0.16900
O 	O 	0.76980 0.32640 0.64240 -0.20100
O 	O 	0.90550 0.26010 0.33460 -0.17700
O 	O 	0.52750 0.40410 0.49420 -0.28500
O 	O 	0.07350 0.58400 0.28310 -0.18400
O 	O 	0.26080 0.55380 0.05950 -0.18600
O 	O 	0.42020 0.20040 0.08320 -0.19000
O 	O 	0.55770 0.02870 0.45633 -0.36700
O 	O 	0.58300 0.94480 0.48284 -0.36100
O 	O 	0.58340 0.00890 0.54392 -0.37300
O 	O 	0.55850 0.09870 0.52489 -0.37000
O 	O 	0.96530 0.43540 0.45911 -0.37400
O 	O 	0.87370 0.46940 0.47981 -0.36800
O 	O 	0.96370 0.60820 0.48638 -0.37100
O 	O 	0.04550 0.55770 0.46589 -0.37300
O 	O 	0.39110 0.33000 0.24570 -0.38100
O 	O 	0.45990 0.35100 0.21072 -0.36700
O 	O 	0.40280 0.45820 0.25187 -0.37400
O 	O 	0.43880 0.47670 0.20776 -0.36900
C 	C 	0.58790 0.00010 0.47810 0.33200
C 	C 	0.98310 0.57110 0.46880 0.34600
C 	C 	0.92220 0.47460 0.46360 0.35000
C 	C 	0.92760 0.53570 0.44920 -0.10300
C 	C 	0.58910 0.04930 0.52530 0.35200
C 	C 	0.63440 0.03560 0.50080 -0.10600
C 	C 	0.44600 0.32500 0.23380 0.35200
C 	C 	0.44260 0.48270 0.23550 0.35100
C 	C 	0.43310 0.10200 0.38690 0.05000
C 	C 	0.39280 0.15340 0.38030 0.00700
C 	C 	0.36310 0.18110 0.40360 -0.01900
C 	C 	0.37550 0.15680 0.43230 0.00500
C 	C 	0.41830 0.10640 0.43630 0.07700
C 	C 	0.31780 0.23280 0.39690 0.13500
C 	C 	0.27820 0.30370 0.36440 0.14000
C 	C 	0.22800 0.29080 0.40670 0.13900
C 	C 	0.17260 0.30600 0.42500 -0.02400
C 	C 	0.16950 0.28200 0.45270 0.01100
C 	C 	0.11280 0.29560 0.46850 0.05900
C 	C 	0.06790 0.35990 0.43160 0.06200
C 	C 	0.12080 0.34690 0.41440 0.00400
C 	C 	0.28410 0.33450 0.33670 -0.02800
C 	C 	0.34900 0.33710 0.32590 0.00700
C 	C 	0.35470 0.36570 0.29940 0.07000
C 	C 	0.23620 0.38520 0.29240 0.03700
C 	C 	0.22610 0.35960 0.32000 0.01300
C 	C 	0.81520 0.51610 0.52910 0.07600
C 	C 	0.76680 0.55750 0.53590 0.00700
C 	C 	0.70680 0.53890 0.54820 -0.02600
C 	C 	0.69810 0.47860 0.55330 0.01800
C 	C 	0.74900 0.43940 0.54520 0.04700
C 	C 	0.65130 0.58140 0.55360 0.14400
C 	C 	0.59000 0.66450 0.54070 0.14800
C 	C 	0.56440 0.60870 0.57880 0.13800
C 	C 	0.52070 0.59770 0.60300 -0.02300
C 	C 	0.54860 0.57720 0.63030 -0.01300
C 	C 	0.50650 0.57210 0.65270 0.06200
C 	C 	0.41070 0.60130 0.62150 0.03700
C 	C 	0.44840 0.61120 0.59820 0.00400
C 	C 	0.57610 0.71430 0.52030 -0.02300
C 	C 	0.60830 0.71810 0.49460 0.02500
C 	C 	0.59460 0.76500 0.47530 0.05000
C 	C 	0.51780 0.80430 0.50510 0.06600
C 	C 	0.52790 0.75780 0.52530 0.01500
C 	C 	0.42420 0.87830 0.39930 0.13500
C 	C 	0.61030 0.93020 0.40500 0.10800
C 	C 	0.92240 0.28280 0.52950 0.10200
C 	C 	0.82080 0.33550 0.45640 0.10000
C 	C 	0.26040 0.48450 0.19140 0.09400
C 	C 	0.27770 0.31210 0.18950 0.10700
C 	C 	0.35660 0.96030 0.38020 -0.00000
C 	C 	0.31080 0.99670 0.39340 -0.03700
C 	C 	0.25300 0.02070 0.37570 0.04300
C 	C 	0.26240 0.01190 0.34370 -0.10000
C 	C 	0.29650 0.97190 0.33060 -0.00300
C 	C 	0.35210 0.94700 0.35080 0.01300
C 	C 	0.37730 0.96760 0.37530 0.03000
C 	C 	0.32400 0.00050 0.38500 0.02600
C 	C 	0.27460 0.02850 0.36450 -0.00200
C 	C 	0.29130 0.01630 0.33380 0.11000
C 	C 	0.33980 0.98680 0.32330 -0.02700
C 	C 	0.38740 0.96030 0.34610 -0.01400
C 	C 	0.46170 0.78560 0.41930 0.09000
C 	C 	0.40110 0.76060 0.42700 -0.91700
C 	C 	0.39430 0.69650 0.42310 0.05900
C 	C 	0.44400 0.66500 0.41390 2.34300
C 	C 	0.50440 0.68830 0.40340 -0.11900
C 	C 	0.51210 0.75120 0.40830 0.09900
O 	O 	0.43360 0.60090 0.41290 -0.62600
C 	C 	0.48490 0.56340 0.40520 0.85600
C 	C 	0.46200 0.78570 0.41220 -0.33100
C 	C 	0.44200 0.74690 0.43350 1.43000
C 	C 	0.45700 0.68400 0.42770 -2.34500
C 	C 	0.49900 0.67010 0.40850 -0.02400
C 	C 	0.52100 0.70730 0.38580 0.03300
C 	C 	0.50600 0.76830 0.39160 0.00600
O 	O 	0.50760 0.60680 0.40050 -0.43800
C 	C 	0.49500 0.56520 0.42180 -0.39600
C 	C 	0.57480 0.00890 0.37430 0.04000
C 	C 	0.56960 0.97750 0.34670 -0.00800
C 	C 	0.57860 0.01720 0.32060 -0.01000
C 	C 	0.59600 0.07350 0.32590 0.10700
C 	C 	0.60480 0.10110 0.35230 -0.02300
C 	C 	0.59180 0.06680 0.37690 -0.00600
C 	C 	0.62940 0.16380 0.30250 0.09000
C 	C 	0.66760 0.85450 0.43470 0.03700
C 	C 	0.68530 0.81480 0.41380 -0.00600
C 	C 	0.74200 0.77490 0.42240 -0.01900
C 	C 	0.77180 0.77860 0.45080 0.09900
C 	C 	0.75590 0.81780 0.47080 -0.01200
C 	C 	0.70200 0.85790 0.46320 -0.00700
C 	C 	0.85180 0.69710 0.44130 0.10300
C 	C 	0.98690 0.22370 0.50020 0.05700
C 	C 	0.98190 0.20290 0.47230 -0.03600
C 	C 	0.00830 0.14330 0.46660 0.01700
C 	C 	0.03920 0.11850 0.49120 0.05900
C 	C 	0.05350 0.13710 0.51850 -0.00500
C 	C 	0.02490 0.19500 0.52230 -0.00600
C 	C 	0.09400 0.03600 0.50620 0.09500
C 	C 	0.85590 0.32630 0.56330 0.04700
C 	C 	0.87220 0.36970 0.58420 -0.01300
C 	C 	0.84050 0.36740 0.61160 -0.00600
C 	C 	0.79650 0.32340 0.61360 0.09000
C 	C 	0.77650 0.28120 0.59520 -0.00600
C 	C 	0.80890 0.28340 0.56740 -0.00100
C 	C 	0.71930 0.28650 0.64300 0.09500
C 	C 	0.89230 0.30900 0.42220 0.05000
C 	C 	0.87340 0.24640 0.41570 -0.01000
C 	C 	0.87950 0.22860 0.38440 -0.01100
C 	C 	0.90130 0.27620 0.36620 0.08200
C 	C 	0.90660 0.33590 0.36910 -0.00500
C 	C 	0.89890 0.35130 0.40100 -0.01500
C 	C 	0.88110 0.19900 0.32580 0.08600
C 	C 	0.73180 0.36840 0.48310 0.03900
C 	C 	0.69190 0.32650 0.49640 0.00100
C 	C 	0.62130 0.34040 0.49900 -0.02000
C 	C 	0.59600 0.39030 0.49050 0.15400
C 	C 	0.63140 0.43390 0.47750 -0.03300
C 	C 	0.70250 0.42150 0.47370 0.00300
C 	C 	0.50400 0.39950 0.52010 0.19700
C 	C 	0.50000 0.45100 0.49720 0.11700
C 	C 	0.21730 0.49480 0.23610 0.05400
C 	C 	0.23940 0.51930 0.26300 -0.02300
C 	C 	0.19420 0.54950 0.28020 -0.00800
C 	C 	0.12510 0.55220 0.26820 0.09200
C 	C 	0.09730 0.52900 0.24160 0.00400
C 	C 	0.14560 0.50020 0.22510 -0.02900
C 	C 	0.08910 0.60960 0.31190 0.10300
C 	C 	0.29610 0.48700 0.14470 0.05100
C 	C 	0.24570 0.46240 0.12380 -0.01800
C 	C 	0.23470 0.48640 0.09500 -0.00600
C 	C 	0.27390 0.53100 0.08960 0.09400
C 	C 	0.32970 0.55720 0.10860 -0.00100
C 	C 	0.33980 0.53080 0.13820 -0.01800
C 	C 	0.30410 0.59780 0.04940 0.11900
C 	C 	0.21680 0.29880 0.23020 -0.02600
C 	C 	0.24950 0.25440 0.24910 0.09000
C 	C 	0.20560 0.21680 0.26610 0.05900
C 	C 	0.13350 0.23990 0.26350 0.13800
C 	C 	0.10560 0.27830 0.24850 0.39000
C 	C 	0.14960 0.31650 0.23210 -0.59000
O 	O 	0.08700 0.19800 0.27850 -0.29600
C 	C 	0.21070 0.32280 0.23180 0.22100
C 	C 	0.22400 0.26650 0.24560 -0.08600
C 	C 	0.17900 0.24600 0.26790 -0.09900
C 	C 	0.11600 0.28500 0.26580 -0.23500
C 	C 	0.09590 0.32200 0.24840 -0.03000
C 	C 	0.14590 0.34930 0.23050 0.43700
O 	O 	0.06300 0.26400 0.28580 -0.17000
C 	C 	0.09800 0.21900 0.29820 0.32800
C 	C 	0.34690 0.29640 0.15180 0.05100
C 	C 	0.29860 0.28020 0.12710 -0.01000
C 	C 	0.32310 0.24530 0.10340 -0.03000
C 	C 	0.38870 0.23200 0.10530 0.10500
C 	C 	0.43930 0.24640 0.12790 -0.00200
C 	C 	0.41590 0.27960 0.15140 -0.01900
C 	C 	0.37200 0.18100 0.05830 0.09800
Rh	Rh	0.51178 0.98561 0.07368 0.84800
Rh	Rh	0.47429 0.89217 0.04882 0.83900
Rh	Rh	0.03575 0.35529 0.01879 0.84400
Rh	Rh	0.12364 0.39992 0.99085 0.84900
Rh	Rh	0.67411 0.40014 0.26563 0.83800
Rh	Rh	0.61866 0.40579 0.31108 0.84100
N 	N 	0.57750 0.93790 0.10110 -0.23000
N 	N 	0.53300 0.84910 0.08070 -0.18800
N 	N 	0.43600 0.97260 0.10030 -0.22900
N 	N 	0.39220 0.89460 0.07220 -0.23100
N 	N 	0.04320 0.28120 0.99450 -0.23100
N 	N 	0.11320 0.32950 0.96368 -0.23100
N 	N 	0.11390 0.32760 0.04880 -0.23000
N 	N 	0.19670 0.35830 0.01850 -0.22700
N 	N 	0.73630 0.46730 0.27990 -0.23800
N 	N 	0.69650 0.46170 0.32640 -0.23000
N 	N 	0.74050 0.33970 0.28640 -0.26500
N 	N 	0.67120 0.33220 0.32527 -0.23300
N 	N 	0.55560 0.07890 0.08610 -0.16900
N 	N 	0.67730 0.26000 0.12870 -0.14100
N 	N 	0.77160 0.31950 0.11908 -0.14000
N 	N 	0.72870 0.24760 0.08418 -0.13900
N 	N 	0.93950 0.33230 0.04300 -0.16800
N 	N 	0.70050 0.38720 0.21770 -0.17200
N 	N 	0.19540 0.45770 0.96724 -0.17300
N 	N 	0.35650 0.62820 0.96394 -0.14100
N 	N 	0.45040 0.65680 0.93819 -0.13600
N 	N 	0.38610 0.56950 0.92445 -0.14300
N 	N 	0.56030 0.58520 0.85132 -0.17600
N 	N 	0.45000 0.80940 0.01930 -0.17900
O 	O 	0.39400 0.10310 0.20080 -0.18700
O 	O 	0.17340 0.73710 0.03810 -0.19100
O 	O 	0.94690 0.05140 0.02080 -0.16800
O 	O 	0.23020 0.32640 0.85760 -0.20000
O 	O 	0.09450 0.26010 0.16540 -0.17600
O 	O 	0.47250 0.40410 0.00580 -0.28400
O 	O 	0.92650 0.58400 0.21690 -0.18300
O 	O 	0.73920 0.55380 0.44050 -0.18500
O 	O 	0.57980 0.20040 0.41680 -0.19000
O 	O 	0.44230 0.02870 0.04367 -0.36700
O 	O 	0.41700 0.94480 0.01716 -0.36100
O 	O 	0.41660 0.00890 0.95608 -0.37300
O 	O 	0.44150 0.09870 0.97511 -0.37000
O 	O 	0.03470 0.43540 0.04089 -0.37400
O 	O 	0.12630 0.46940 0.02019 -0.36800
O 	O 	0.03630 0.60820 0.01362 -0.37100
O 	O 	0.95450 0.55770 0.03411 -0.37300
O 	O 	0.60890 0.33000 0.25430 -0.38100
O 	O 	0.54010 0.35100 0.28928 -0.36700
O 	O 	0.59720 0.45820 0.24813 -0.37400
O 	O 	0.56120 0.47670 0.29224 -0.36900
C 	C 	0.41210 0.00010 0.02190 0.33200
C 	C 	0.01690 0.57110 0.03120 0.34600
C 	C 	0.07780 0.47460 0.03640 0.35000
C 	C 	0.07240 0.53570 0.05080 -0.10300
C 	C 	0.41090 0.04930 0.97470 0.35200
C 	C 	0.36560 0.03560 0.99920 -0.10600
C 	C 	0.55400 0.32500 0.26620 0.35200
C 	C 	0.55740 0.48270 0.26450 0.35100
C 	C 	0.56690 0.10200 0.11310 0.05000
C 	C 	0.60720 0.15340 0.11970 0.00700
C 	C 	0.63690 0.18110 0.09640 -0.01900
C 	C 	0.62450 0.15680 0.06770 0.00500
C 	C 	0.58170 0.10640 0.06370 0.07700
C 	C 	0.68220 0.23280 0.10310 0.13500
C 	C 	0.72180 0.30370 0.13560 0.14000
C 	C 	0.77200 0.29080 0.09330 0.13900
C 	C 	0.82740 0.30600 0.07500 -0.02400
C 	C 	0.83050 0.28200 0.04730 0.01100
C 	C 	0.88720 0.29560 0.03150 0.05900
C 	C 	0.93210 0.35990 0.06840 0.06200
C 	C 	0.87920 0.34690 0.08560 0.00400
C 	C 	0.71590 0.33450 0.16330 -0.02800
C 	C 	0.65100 0.33710 0.17410 0.00700
C 	C 	0.64530 0.36570 0.20060 0.07000
C 	C 	0.76380 0.38520 0.20760 0.03700
C 	C 	0.77390 0.35960 0.18000 0.01300
C 	C 	0.18480 0.51610 0.97090 0.07600
C 	C 	0.23320 0.55750 0.96410 0.00700
C 	C 	0.29320 0.53890 0.95180 -0.02600
C 	C 	0.30190 0.47860 0.94670 0.01800
C 	C 	0.25100 0.43940 0.95480 0.04700
C 	C 	0.34870 0.58140 0.94640 0.14400
C 	C 	0.41000 0.66450 0.95930 0.14800
C 	C 	0.43560 0.60870 0.92120 0.13800
C 	C 	0.47930 0.59770 0.89700 -0.02300
C 	C 	0.45140 0.57720 0.86970 -0.01300
C 	C 	0.49350 0.57210 0.84730 0.06200
C 	C 	0.58930 0.60130 0.87850 0.03700
C 	C 	0.55160 0.61120 0.90180 0.00400
C 	C 	0.42390 0.71430 0.97970 -0.02300
C 	C 	0.39170 0.71810 0.00540 0.02500
C 	C 	0.40540 0.76500 0.02470 0.05000
C 	C 	0.48220 0.80430 0.99490 0.06600
C 	C 	0.47210 0.75780 0.97470 0.01500
C 	C 	0.57580 0.87830 0.10070 0.13500
C 	C 	0.38970 0.93020 0.09500 0.10800
C 	C 	0.07760 0.28280 0.97050 0.10200
C 	C 	0.17920 0.33550 0.04360 0.10000
C 	C 	0.73960 0.48450 0.30860 0.09400
C 	C 	0.72230 0.31210 0.31050 0.10700
C 	C 	0.64340 0.96030 0.11980 -0.00000
C 	C 	0.68920 0.99670 0.10660 -0.03700
C 	C 	0.74700 0.02070 0.12430 0.04300
C 	C 	0.73760 0.01190 0.15630 -0.10000
C 	C 	0.70350 0.97190 0.16940 -0.00300
C 	C 	0.64790 0.94700 0.14920 0.01300
C 	C 	0.62270 0.96760 0.12470 0.03000
C 	C 	0.67600 0.00050 0.11500 0.02600
C 	C 	0.72540 0.02850 0.13550 -0.00200
C 	C 	0.70870 0.01630 0.16620 0.11000
C 	C 	0.66020 0.98680 0.17670 -0.02700
C 	C 	0.61260 0.96030 0.15390 -0.01400
C 	C 	0.53830 0.78560 0.08070 0.09000
C 	C 	0.59890 0.76060 0.07300 -0.91700
C 	C 	0.60570 0.69650 0.07690 0.05900
C 	C 	0.55600 0.66500 0.08610 2.34300
C 	C 	0.49560 0.68830 0.09660 -0.11900
C 	C 	0.48790 0.75120 0.09170 0.09900
O 	O 	0.56640 0.60090 0.08710 -0.62600
C 	C 	0.51510 0.56340 0.09480 0.85600
C 	C 	0.53800 0.78570 0.08780 -0.33100
C 	C 	0.55800 0.74690 0.06650 1.43000
C 	C 	0.54300 0.68400 0.07230 -2.34500
C 	C 	0.50100 0.67010 0.09150 -0.02400
C 	C 	0.47900 0.70730 0.11420 0.03300
C 	C 	0.49400 0.76830 0.10840 0.00600
O 	O 	0.49240 0.60680 0.09950 -0.43800
C 	C 	0.50500 0.56520 0.07820 -0.39600
C 	C 	0.42520 0.00890 0.12570 0.04000
C 	C 	0.43040 0.97750 0.15330 -0.00800
C 	C 	0.42140 0.01720 0.17940 -0.01000
C 	C 	0.40400 0.07350 0.17410 0.10700
C 	C 	0.39520 0.10110 0.14770 -0.02300
C 	C 	0.40820 0.06680 0.12310 -0.00600
C 	C 	0.37060 0.16380 0.19750 0.09000
C 	C 	0.33240 0.85450 0.06530 0.03700
C 	C 	0.31470 0.81480 0.08620 -0.00600
C 	C 	0.25800 0.77490 0.07760 -0.01900
C 	C 	0.22820 0.77860 0.04920 0.09900
C 	C 	0.24410 0.81780 0.02920 -0.01200
C 	C 	0.29800 0.85790 0.03680 -0.00700
C 	C 	0.14820 0.69710 0.05870 0.10300
C 	C 	0.01310 0.22370 0.99980 0.05700
C 	C 	0.01810 0.20290 0.02770 -0.03700
C 	C 	0.99170 0.14330 0.03340 0.01700
C 	C 	0.96080 0.11850 0.00880 0.05900
C 	C 	0.94650 0.13710 0.98150 -0.00500
C 	C 	0.97510 0.19500 0.97770 -0.00600
C 	C 	0.90600 0.03600 0.99380 0.09500
C 	C 	0.14410 0.32630 0.93670 0.04700
C 	C 	0.12780 0.36970 0.91580 -0.01300
C 	C 	0.15950 0.36740 0.88840 -0.00600
C 	C 	0.20350 0.32340 0.88640 0.09000
C 	C 	0.22350 0.28120 0.90480 -0.00600
C 	C 	0.19110 0.28340 0.93260 -0.00100
C 	C 	0.28070 0.28650 0.85700 0.09500
C 	C 	0.10770 0.30900 0.07780 0.05000
C 	C 	0.12660 0.24640 0.08430 -0.01000
C 	C 	0.12050 0.22860 0.11560 -0.01100
C 	C 	0.09870 0.27620 0.13380 0.08200
C 	C 	0.09340 0.33590 0.13090 -0.00500
C 	C 	0.10110 0.35130 0.09900 -0.01500
C 	C 	0.11890 0.19900 0.17420 0.08600
C 	C 	0.26820 0.36840 0.01690 0.03900
C 	C 	0.30810 0.32650 0.00360 0.00100
C 	C 	0.37870 0.34040 0.00100 -0.02000
C 	C 	0.40400 0.39030 0.00950 0.15400
C 	C 	0.36860 0.43390 0.02250 -0.03300
C 	C 	0.29750 0.42150 0.02630 0.00300
C 	C 	0.49600 0.39950 0.97990 0.19700
C 	C 	0.50000 0.45100 0.00280 0.11700
C 	C 	0.78270 0.49480 0.26390 0.05400
C 	C 	0.76060 0.51930 0.23700 -0.02300
C 	C 	0.80580 0.54950 0.21980 -0.00800
C 	C 	0.87490 0.55220 0.23180 0.09200
C 	C 	0.90270 0.52900 0.25840 0.00400
C 	C 	0.85440 0.50020 0.27490 -0.02900
C 	C 	0.91090 0.60960 0.18810 0.10300
C 	C 	0.70390 0.48700 0.35530 0.05100
C 	C 	0.75430 0.46240 0.37620 -0.01800
C 	C 	0.76530 0.48640 0.40500 -0.00600
C 	C 	0.72610 0.53100 0.41040 0.09400
C 	C 	0.67030 0.55720 0.39140 -0.00100
C 	C 	0.66020 0.53080 0.36180 -0.01800
C 	C 	0.69590 0.59780 0.45060 0.11900
C 	C 	0.78320 0.29880 0.26980 -0.02600
C 	C 	0.75050 0.25440 0.25090 0.09000
C 	C 	0.79440 0.21680 0.23390 0.05900
C 	C 	0.86650 0.23990 0.23650 0.13800
C 	C 	0.89440 0.27830 0.25150 0.39000
C 	C 	0.85040 0.31650 0.26790 -0.59000
O 	O 	0.91300 0.19800 0.22150 -0.29600
C 	C 	0.78930 0.32280 0.26820 0.22100
C 	C 	0.77600 0.26650 0.25440 -0.08600
C 	C 	0.82100 0.24600 0.23210 -0.09900
C 	C 	0.88400 0.28500 0.23420 -0.23500
C 	C 	0.90410 0.32200 0.25160 -0.03000
C 	C 	0.85410 0.34930 0.26950 0.43700
O 	O 	0.93700 0.26400 0.21420 -0.17000
C 	C 	0.90200 0.21900 0.20180 0.32800
C 	C 	0.65310 0.29640 0.34820 0.05100
C 	C 	0.70140 0.28020 0.37290 -0.01000
C 	C 	0.67690 0.24530 0.39660 -0.03000
C 	C 	0.61130 0.23200 0.39470 0.10500
C 	C 	0.56070 0.24640 0.37210 -0.00200
C 	C 	0.58410 0.27960 0.34860 -0.01900
C 	C 	0.62800 0.18100 0.44170 0.09800
Rh	Rh	0.51178 0.01439 0.57368 0.84800
Rh	Rh	0.47429 0.10783 0.54882 0.83900
Rh	Rh	0.03575 0.64471 0.51879 0.84400
Rh	Rh	0.12364 0.60008 0.49085 0.84900
Rh	Rh	0.67411 0.59986 0.76563 0.83800
Rh	Rh	0.61866 0.59421 0.81108 0.84100
N 	N 	0.57750 0.06210 0.60110 -0.23000
N 	N 	0.53300 0.15090 0.58070 -0.18800
N 	N 	0.43600 0.02740 0.60030 -0.22900
N 	N 	0.39220 0.10540 0.57220 -0.23100
N 	N 	0.04320 0.71880 0.49450 -0.23100
N 	N 	0.11320 0.67050 0.46368 -0.23100
N 	N 	0.11390 0.67240 0.54880 -0.23000
N 	N 	0.19670 0.64170 0.51850 -0.22700
N 	N 	0.73630 0.53270 0.77990 -0.23800
N 	N 	0.69650 0.53830 0.82640 -0.23000
N 	N 	0.74050 0.66030 0.78640 -0.26500
N 	N 	0.67120 0.66780 0.82527 -0.23300
N 	N 	0.55560 0.92110 0.58610 -0.16900
N 	N 	0.67730 0.74000 0.62870 -0.14100
N 	N 	0.77160 0.68050 0.61908 -0.14000
N 	N 	0.72870 0.75240 0.58418 -0.13900
N 	N 	0.93950 0.66770 0.54300 -0.16800
N 	N 	0.70050 0.61280 0.71770 -0.17200
N 	N 	0.19540 0.54230 0.46724 -0.17300
N 	N 	0.35650 0.37180 0.46394 -0.14100
N 	N 	0.45040 0.34320 0.43819 -0.13600
N 	N 	0.38610 0.43050 0.42445 -0.14300
N 	N 	0.56030 0.41480 0.35132 -0.17600
N 	N 	0.45000 0.19060 0.51930 -0.17900
O 	O 	0.39400 0.89690 0.70080 -0.18700
O 	O 	0.17340 0.26290 0.53810 -0.19100
O 	O 	0.94690 0.94860 0.52080 -0.16800
O 	O 	0.23020 0.67360 0.35760 -0.20000
O 	O 	0.09450 0.73990 0.66540 -0.17600
O 	O 	0.47250 0.59590 0.50580 -0.28400
O 	O 	0.92650 0.41600 0.71690 -0.18300
O 	O 	0.73920 0.44620 0.94050 -0.18500
O 	O 	0.57980 0.79960 0.91680 -0.19000
O 	O 	0.44230 0.97130 0.54367 -0.36700
O 	O 	0.41700 0.05520 0.51716 -0.36100
O 	O 	0.41660 0.99110 0.45608 -0.37300
O 	O 	0.44150 0.90130 0.47511 -0.37000
O 	O 	0.03470 0.56460 0.54089 -0.37400
O 	O 	0.12630 0.53060 0.52019 -0.36800
O 	O 	0.03630 0.39180 0.51362 -0.37100
O 	O 	0.95450 0.44230 0.53411 -0.37300
O 	O 	0.60890 0.67000 0.75430 -0.38100
O 	O 	0.54010 0.64900 0.78928 -0.36700
O 	O 	0.59720 0.54180 0.74813 -0.37400
O 	O 	0.56120 0.52330 0.79224 -0.36900
C 	C 	0.41210 0.99990 0.52190 0.33200
C 	C 	0.01690 0.42890 0.53120 0.34600
C 	C 	0.07780 0.52540 0.53640 0.35000
C 	C 	0.07240 0.46430 0.55080 -0.10300
C 	C 	0.41090 0.95070 0.47470 0.35200
C 	C 	0.36560 0.96440 0.49920 -0.10600
C 	C 	0.55400 0.67500 0.76620 0.35200
C 	C 	0.55740 0.51730 0.76450 0.35100
C 	C 	0.56690 0.89800 0.61310 0.05000
C 	C 	0.60720 0.84660 0.61970 0.00700
C 	C 	0.63690 0.81890 0.59640 -0.01900
C 	C 	0.62450 0.84320 0.56770 0.00500
C 	C 	0.58170 0.89360 0.56370 0.07700
C 	C 	0.68220 0.76720 0.60310 0.13500
C 	C 	0.72180 0.69630 0.63560 0.14000
C 	C 	0.77200 0.70920 0.59330 0.13900
C 	C 	0.82740 0.69400 0.57500 -0.02400
C 	C 	0.83050 0.71800 0.54730 0.01100
C 	C 	0.88720 0.70440 0.53150 0.05900
C 	C 	0.93210 0.64010 0.56840 0.06200
C 	C 	0.87920 0.65310 0.58560 0.00400
C 	C 	0.71590 0.66550 0.66330 -0.02800
C 	C 	0.65100 0.66290 0.67410 0.00700
C 	C 	0.64530 0.63430 0.70060 0.07000
C 	C 	0.76380 0.61480 0.70760 0.03700
C 	C 	0.77390 0.64040 0.68000 0.01300
C 	C 	0.18480 0.48390 0.47090 0.07600
C 	C 	0.23320 0.44250 0.46410 0.00700
C 	C 	0.29320 0.46110 0.45180 -0.02600
C 	C 	0.30190 0.52140 0.44670 0.01800
C 	C 	0.25100 0.56060 0.45480 0.04700
C 	C 	0.34870 0.41860 0.44640 0.14400
C 	C 	0.41000 0.33550 0.45930 0.14800
C 	C 	0.43560 0.39130 0.42120 0.13800
C 	C 	0.47930 0.40230 0.39700 -0.02300
C 	C 	0.45140 0.42280 0.36970 -0.01300
C 	C 	0.49350 0.42790 0.34730 0.06200
C 	C 	0.58930 0.39870 0.37850 0.03700
C 	C 	0.55160 0.38880 0.40180 0.00400
C 	C 	0.42390 0.28570 0.47970 -0.02300
C 	C 	0.39170 0.28190 0.50540 0.02500
C 	C 	0.40540 0.23500 0.52470 0.05000
C 	C 	0.48220 0.19570 0.49490 0.06600
C 	C 	0.47210 0.24220 0.47470 0.01500
C 	C 	0.57580 0.12170 0.60070 0.13500
C 	C 	0.38970 0.06980 0.59500 0.10800
C 	C 	0.07760 0.71720 0.47050 0.10200
C 	C 	0.17920 0.66450 0.54360 0.10000
C 	C 	0.73960 0.51550 0.80860 0.09400
C 	C 	0.72230 0.68790 0.81050 0.10700
C 	C 	0.64340 0.03970 0.61980 -0.00000
C 	C 	0.68920 0.00330 0.60660 -0.03700
C 	C 	0.74700 0.97930 0.62430 0.04300
C 	C 	0.73760 0.98810 0.65630 -0.10000
C 	C 	0.70350 0.02810 0.66940 -0.00300
C 	C 	0.64790 0.05300 0.64920 0.01300
C 	C 	0.62270 0.03240 0.62470 0.03000
C 	C 	0.67600 0.99950 0.61500 0.02600
C 	C 	0.72540 0.97150 0.63550 -0.00200
C 	C 	0.70870 0.98370 0.66620 0.11000
C 	C 	0.66020 0.01320 0.67670 -0.02700
C 	C 	0.61260 0.03970 0.65390 -0.01400
C 	C 	0.53830 0.21440 0.58070 0.09000
C 	C 	0.59890 0.23940 0.57300 -0.91700
C 	C 	0.60570 0.30350 0.57690 0.05900
C 	C 	0.55600 0.33500 0.58610 2.34300
C 	C 	0.49560 0.31170 0.59660 -0.11900
C 	C 	0.48790 0.24880 0.59170 0.09900
O 	O 	0.56640 0.39910 0.58710 -0.62600
C 	C 	0.51510 0.43660 0.59480 0.85600
C 	C 	0.53800 0.21430 0.58780 -0.33100
C 	C 	0.55800 0.25310 0.56650 1.43000
C 	C 	0.54300 0.31600 0.57230 -2.34500
C 	C 	0.50100 0.32990 0.59150 -0.02400
C 	C 	0.47900 0.29270 0.61420 0.03300
C 	C 	0.49400 0.23170 0.60840 0.00600
O 	O 	0.49240 0.39320 0.59950 -0.43800
C 	C 	0.50500 0.43480 0.57820 -0.39600
C 	C 	0.42520 0.99110 0.62570 0.04000
C 	C 	0.43040 0.02250 0.65330 -0.00800
C 	C 	0.42140 0.98280 0.67940 -0.01000
C 	C 	0.40400 0.92650 0.67410 0.10700
C 	C 	0.39520 0.89890 0.64770 -0.02300
C 	C 	0.40820 0.93320 0.62310 -0.00600
C 	C 	0.37060 0.83620 0.69750 0.09000
C 	C 	0.33240 0.14550 0.56530 0.03700
C 	C 	0.31470 0.18520 0.58620 -0.00600
C 	C 	0.25800 0.22510 0.57760 -0.01900
C 	C 	0.22820 0.22140 0.54920 0.09900
C 	C 	0.24410 0.18220 0.52920 -0.01200
C 	C 	0.29800 0.14210 0.53680 -0.00700
C 	C 	0.14820 0.30290 0.55870 0.10300
C 	C 	0.01310 0.77630 0.49980 0.05700
C 	C 	0.01810 0.79710 0.52770 -0.03600
C 	C 	0.99170 0.85670 0.53340 0.01700
C 	C 	0.96080 0.88150 0.50880 0.05900
C 	C 	0.94650 0.86290 0.48150 -0.00500
C 	C 	0.97510 0.80500 0.47770 -0.00600
C 	C 	0.90600 0.96400 0.49380 0.09500
C 	C 	0.14410 0.67370 0.43670 0.04700
C 	C 	0.12780 0.63030 0.41580 -0.01300
C 	C 	0.15950 0.63260 0.38840 -0.00600
C 	C 	0.20350 0.67660 0.38640 0.09000
C 	C 	0.22350 0.71880 0.40480 -0.00600
C 	C 	0.19110 0.71660 0.43260 -0.00100
C 	C 	0.28070 0.71350 0.35700 0.09500
C 	C 	0.10770 0.69100 0.57780 0.05000
C 	C 	0.12660 0.75360 0.58430 -0.01000
C 	C 	0.12050 0.77140 0.61560 -0.01100
C 	C 	0.09870 0.72380 0.63380 0.08200
C 	C 	0.09340 0.66410 0.63090 -0.00500
C 	C 	0.10110 0.64870 0.59900 -0.01500
C 	C 	0.11890 0.80100 0.67420 0.08600
C 	C 	0.26820 0.63160 0.51690 0.03900
C 	C 	0.30810 0.67350 0.50360 0.00100
C 	C 	0.37870 0.65960 0.50100 -0.02000
C 	C 	0.40400 0.60970 0.50950 0.15400
C 	C 	0.36860 0.56610 0.52250 -0.03300
C 	C 	0.29750 0.57850 0.52630 0.00300
C 	C 	0.49600 0.60050 0.47990 0.19700
C 	C 	0.50000 0.54900 0.50280 0.11700
C 	C 	0.78270 0.50520 0.76390 0.05400
C 	C 	0.76060 0.48070 0.73700 -0.02300
C 	C 	0.80580 0.45050 0.71980 -0.00800
C 	C 	0.87490 0.44780 0.73180 0.09200
C 	C 	0.90270 0.47100 0.75840 0.00400
C 	C 	0.85440 0.49980 0.77490 -0.02900
C 	C 	0.91090 0.39040 0.68810 0.10300
C 	C 	0.70390 0.51300 0.85530 0.05100
C 	C 	0.75430 0.53760 0.87620 -0.01800
C 	C 	0.76530 0.51360 0.90500 -0.00600
C 	C 	0.72610 0.46900 0.91040 0.09400
C 	C 	0.67030 0.44280 0.89140 -0.00100
C 	C 	0.66020 0.46920 0.86180 -0.01800
C 	C 	0.69590 0.40220 0.95060 0.11900
C 	C 	0.78320 0.70120 0.76980 -0.02600
C 	C 	0.75050 0.74560 0.75090 0.09000
C 	C 	0.79440 0.78320 0.73390 0.05900
C 	C 	0.86650 0.76010 0.73650 0.13800
C 	C 	0.89440 0.72170 0.75150 0.39000
C 	C 	0.85040 0.68350 0.76790 -0.59000
O 	O 	0.91300 0.80200 0.72150 -0.29600
C 	C 	0.78930 0.67720 0.76820 0.22100
C 	C 	0.77600 0.73350 0.75440 -0.08600
C 	C 	0.82100 0.75400 0.73210 -0.09900
C 	C 	0.88400 0.71500 0.73420 -0.23500
C 	C 	0.90410 0.67800 0.75160 -0.03000
C 	C 	0.85410 0.65070 0.76950 0.43700
O 	O 	0.93700 0.73600 0.71420 -0.17000
C 	C 	0.90200 0.78100 0.70180 0.32800
C 	C 	0.65310 0.70360 0.84820 0.05100
C 	C 	0.70140 0.71980 0.87290 -0.01000
C 	C 	0.67690 0.75470 0.89660 -0.03000
C 	C 	0.61130 0.76800 0.89470 0.10500
C 	C 	0.56070 0.75360 0.87210 -0.00200
C 	C 	0.58410 0.72040 0.84860 -0.01900
C 	C 	0.62800 0.81900 0.94170 0.09800
Rh	Rh	0.48822 0.01439 0.92632 0.84800
Rh	Rh	0.52571 0.10783 0.95118 0.83900
Rh	Rh	0.96425 0.64471 0.98121 0.84400
Rh	Rh	0.87636 0.60008 0.00915 0.84900
Rh	Rh	0.32589 0.59986 0.73437 0.83800
Rh	Rh	0.38134 0.59421 0.68892 0.84100
N 	N 	0.42250 0.06210 0.89890 -0.23000
N 	N 	0.46700 0.15090 0.91930 -0.18800
N 	N 	0.56400 0.02740 0.89970 -0.22900
N 	N 	0.60780 0.10540 0.92780 -0.23100
N 	N 	0.95680 0.71880 0.00550 -0.23100
N 	N 	0.88680 0.67050 0.03632 -0.23100
N 	N 	0.88610 0.67240 0.95120 -0.23000
N 	N 	0.80330 0.64170 0.98150 -0.22700
N 	N 	0.26370 0.53270 0.72010 -0.23800
N 	N 	0.30350 0.53830 0.67360 -0.23000
N 	N 	0.25950 0.66030 0.71360 -0.26500
N 	N 	0.32880 0.66780 0.67473 -0.23300
N 	N 	0.44440 0.92110 0.91390 -0.16900
N 	N 	0.32270 0.74000 0.87130 -0.14100
N 	N 	0.22840 0.68050 0.88092 -0.14000
N 	N 	0.27130 0.75240 0.91582 -0.13900
N 	N 	0.06050 0.66770 0.95700 -0.16800
N 	N 	0.29950 0.61280 0.78230 -0.17200
N 	N 	0.80460 0.54230 0.03276 -0.17300
N 	N 	0.64350 0.37180 0.03606 -0.14100
N 	N 	0.54960 0.34320 0.06181 -0.13600
N 	N 	0.61390 0.43050 0.07555 -0.14300
N 	N 	0.43970 0.41480 0.14868 -0.17600
N 	N 	0.55000 0.19060 0.98070 -0.17900
O 	O 	0.60600 0.89690 0.79920 -0.18700
O 	O 	0.82660 0.26290 0.96190 -0.19100
O 	O 	0.05310 0.94860 0.97920 -0.16800
O 	O 	0.76980 0.67360 0.14240 -0.20000
O 	O 	0.90550 0.73990 0.83460 -0.17600
O 	O 	0.52750 0.59590 0.99420 -0.28400
O 	O 	0.07350 0.41600 0.78310 -0.18300
O 	O 	0.26080 0.44620 0.55950 -0.18500
O 	O 	0.42020 0.79960 0.58320 -0.19000
O 	O 	0.55770 0.97130 0.95633 -0.36700
O 	O 	0.58300 0.05520 0.98284 -0.36100
O 	O 	0.58340 0.99110 0.04392 -0.37300
O 	O 	0.55850 0.90130 0.02489 -0.37000
O 	O 	0.96530 0.56460 0.95911 -0.37400
O 	O 	0.87370 0.53060 0.97981 -0.36800
O 	O 	0.96370 0.39180 0.98638 -0.37100
O 	O 	0.04550 0.44230 0.96589 -0.37300
O 	O 	0.39110 0.67000 0.74570 -0.38100
O 	O 	0.45990 0.64900 0.71072 -0.36700
O 	O 	0.40280 0.54180 0.75187 -0.37400
O 	O 	0.43880 0.52330 0.70776 -0.36900
C 	C 	0.58790 0.99990 0.97810 0.33200
C 	C 	0.98310 0.42890 0.96880 0.34600
C 	C 	0.92220 0.52540 0.96360 0.35000
C 	C 	0.92760 0.46430 0.94920 -0.10300
C 	C 	0.58910 0.95070 0.02530 0.35200
C 	C 	0.63440 0.96440 0.00080 -0.10600
C 	C 	0.44600 0.67500 0.73380 0.35200
C 	C 	0.44260 0.51730 0.73550 0.35100
C 	C 	0.43310 0.89800 0.88690 0.05000
C 	C 	0.39280 0.84660 0.88030 0.00700
C 	C 	0.36310 0.81890 0.90360 -0.01900
C 	C 	0.37550 0.84320 0.93230 0.00500
C 	C 	0.41830 0.89360 0.93630 0.07700
C 	C 	0.31780 0.76720 0.89690 0.13500
C 	C 	0.27820 0.69630 0.86440 0.14000
C 	C 	0.22800 0.70920 0.90670 0.13900
C 	C 	0.17260 0.69400 0.92500 -0.02400
C 	C 	0.16950 0.71800 0.95270 0.01100
C 	C 	0.11280 0.70440 0.96850 0.05900
C 	C 	0.06790 0.64010 0.93160 0.06200
C 	C 	0.12080 0.65310 0.91440 0.00400
C 	C 	0.28410 0.66550 0.83670 -0.02800
C 	C 	0.34900 0.66290 0.82590 0.00700
C 	C 	0.35470 0.63430 0.79940 0.07000
C 	C 	0.23620 0.61480 0.79240 0.03700
C 	C 	0.22610 0.64040 0.82000 0.01300
C 	C 	0.81520 0.48390 0.02910 0.07600
C 	C 	0.76680 0.44250 0.03590 0.00700
C 	C 	0.70680 0.46110 0.04820 -0.02600
C 	C 	0.69810 0.52140 0.05330 0.01800
C 	C 	0.74900 0.56060 0.04520 0.04700
C 	C 	0.65130 0.41860 0.05360 0.14400
C 	C 	0.59000 0.33550 0.04070 0.14800
C 	C 	0.56440 0.39130 0.07880 0.13800
C 	C 	0.52070 0.40230 0.10300 -0.02300
C 	C 	0.54860 0.42280 0.13030 -0.01300
C 	C 	0.50650 0.42790 0.15270 0.06200
C 	C 	0.41070 0.39870 0.12150 0.03700
C 	C 	0.44840 0.38880 0.09820 0.00400
C 	C 	0.57610 0.28570 0.02030 -0.02300
C 	C 	0.60830 0.28190 0.99460 0.02500
C 	C 	0.59460 0.23500 0.97530 0.05000
C 	C 	0.51780 0.19570 0.00510 0.06600
C 	C 	0.52790 0.24220 0.02530 0.01500
C 	C 	0.42420 0.12170 0.89930 0.13500
C 	C 	0.61030 0.06980 0.90500 0.10800
C 	C 	0.92240 0.71720 0.02950 0.10200
C 	C 	0.82080 0.66450 0.95640 0.10000
C 	C 	0.26040 0.51550 0.69140 0.09400
C 	C 	0.27770 0.68790 0.68950 0.10700
C 	C 	0.35660 0.03970 0.88020 -0.00000
C 	C 	0.31080 0.00330 0.89340 -0.03700
C 	C 	0.25300 0.97930 0.87570 0.04300
C 	C 	0.26240 0.98810 0.84370 -0.10000
C 	C 	0.29650 0.02810 0.83060 -0.00300
C 	C 	0.35210 0.05300 0.85080 0.01300
C 	C 	0.37730 0.03240 0.87530 0.03000
C 	C 	0.32400 0.99950 0.88500 0.02600
C 	C 	0.27460 0.97150 0.86450 -0.00200
C 	C 	0.29130 0.98370 0.83380 0.11000
C 	C 	0.33980 0.01320 0.82330 -0.02700
C 	C 	0.38740 0.03970 0.84610 -0.01400
C 	C 	0.46170 0.21440 0.91930 0.09000
C 	C 	0.40110 0.23940 0.92700 -0.91700
C 	C 	0.39430 0.30350 0.92310 0.05900
C 	C 	0.44400 0.33500 0.91390 2.34300
C 	C 	0.50440 0.31170 0.90340 -0.11900
C 	C 	0.51210 0.24880 0.90830 0.09900
O 	O 	0.43360 0.39910 0.91290 -0.62600
C 	C 	0.48490 0.43660 0.90520 0.85600
C 	C 	0.46200 0.21430 0.91220 -0.33100
C 	C 	0.44200 0.25310 0.93350 1.43000
C 	C 	0.45700 0.31600 0.92770 -2.34500
C 	C 	0.49900 0.32990 0.90850 -0.02400
C 	C 	0.52100 0.29270 0.88580 0.03300
C 	C 	0.50600 0.23170 0.89160 0.00600
O 	O 	0.50760 0.39320 0.90050 -0.43800
C 	C 	0.49500 0.43480 0.92180 -0.39600
C 	C 	0.57480 0.99110 0.87430 0.04000
C 	C 	0.56960 0.02250 0.84670 -0.00800
C 	C 	0.57860 0.98280 0.82060 -0.01000
C 	C 	0.59600 0.92650 0.82590 0.10700
C 	C 	0.60480 0.89890 0.85230 -0.02300
C 	C 	0.59180 0.93320 0.87690 -0.00600
C 	C 	0.62940 0.83620 0.80250 0.09000
C 	C 	0.66760 0.14550 0.93470 0.03700
C 	C 	0.68530 0.18520 0.91380 -0.00600
C 	C 	0.74200 0.22510 0.92240 -0.01900
C 	C 	0.77180 0.22140 0.95080 0.09900
C 	C 	0.75590 0.18220 0.97080 -0.01200
C 	C 	0.70200 0.14210 0.96320 -0.00700
C 	C 	0.85180 0.30290 0.94130 0.10300
C 	C 	0.98690 0.77630 0.00020 0.05700
C 	C 	0.98190 0.79710 0.97230 -0.03700
C 	C 	0.00830 0.85670 0.96660 0.01700
C 	C 	0.03920 0.88150 0.99120 0.05900
C 	C 	0.05350 0.86290 0.01850 -0.00500
C 	C 	0.02490 0.80500 0.02230 -0.00600
C 	C 	0.09400 0.96400 0.00620 0.09500
C 	C 	0.85590 0.67370 0.06330 0.04700
C 	C 	0.87220 0.63030 0.08420 -0.01300
C 	C 	0.84050 0.63260 0.11160 -0.00600
C 	C 	0.79650 0.67660 0.11360 0.09000
C 	C 	0.77650 0.71880 0.09520 -0.00600
C 	C 	0.80890 0.71660 0.06740 -0.00100
C 	C 	0.71930 0.71350 0.14300 0.09500
C 	C 	0.89230 0.69100 0.92220 0.05000
C 	C 	0.87340 0.75360 0.91570 -0.01000
C 	C 	0.87950 0.77140 0.88440 -0.01100
C 	C 	0.90130 0.72380 0.86620 0.08200
C 	C 	0.90660 0.66410 0.86910 -0.00500
C 	C 	0.89890 0.64870 0.90100 -0.01500
C 	C 	0.88110 0.80100 0.82580 0.08600
C 	C 	0.73180 0.63160 0.98310 0.03900
C 	C 	0.69190 0.67350 0.99640 0.00100
C 	C 	0.62130 0.65960 0.99900 -0.02000
C 	C 	0.59600 0.60970 0.99050 0.15400
C 	C 	0.63140 0.56610 0.97750 -0.03300
C 	C 	0.70250 0.57850 0.97370 0.00300
C 	C 	0.50400 0.60050 0.02010 0.19700
C 	C 	0.50000 0.54900 0.99720 0.11700
C 	C 	0.21730 0.50520 0.73610 0.05400
C 	C 	0.23940 0.48070 0.76300 -0.02300
C 	C 	0.19420 0.45050 0.78020 -0.00800
C 	C 	0.12510 0.44780 0.76820 0.09200
C 	C 	0.09730 0.47100 0.74160 0.00400
C 	C 	0.14560 0.49980 0.72510 -0.02900
C 	C 	0.08910 0.39040 0.81190 0.10300
C 	C 	0.29610 0.51300 0.64470 0.05100
C 	C 	0.24570 0.53760 0.62380 -0.01800
C 	C 	0.23470 0.51360 0.59500 -0.00600
C 	C 	0.27390 0.46900 0.58960 0.09400
C 	C 	0.32970 0.44280 0.60860 -0.00100
C 	C 	0.33980 0.46920 0.63820 -0.01800
C 	C 	0.30410 0.40220 0.54940 0.11900
C 	C 	0.21680 0.70120 0.73020 -0.02600
C 	C 	0.24950 0.74560 0.74910 0.09000
C 	C 	0.20560 0.78320 0.76610 0.05900
C 	C 	0.13350 0.76010 0.76350 0.13800
C 	C 	0.10560 0.72170 0.74850 0.39000
C 	C 	0.14960 0.68350 0.73210 -0.59000
O 	O 	0.08700 0.80200 0.77850 -0.29600
C 	C 	0.21070 0.67720 0.73180 0.22100
C 	C 	0.22400 0.73350 0.74560 -0.08600
C 	C 	0.17900 0.75400 0.76790 -0.09900
C 	C 	0.11600 0.71500 0.76580 -0.23500
C 	C 	0.09590 0.67800 0.74840 -0.03000
C 	C 	0.14590 0.65070 0.73050 0.43700
O 	O 	0.06300 0.73600 0.78580 -0.17000
C 	C 	0.09800 0.78100 0.79820 0.32800
C 	C 	0.34690 0.70360 0.65180 0.05100
C 	C 	0.29860 0.71980 0.62710 -0.01000
C 	C 	0.32310 0.75470 0.60340 -0.03000
C 	C 	0.38870 0.76800 0.60530 0.10500
C 	C 	0.43930 0.75360 0.62790 -0.00200
C 	C 	0.41590 0.72040 0.65140 -0.01900
C 	C 	0.37200 0.81900 0.55830 0.09800
C 	C 	0.50000 0.28480 0.25000 -0.11600
C 	C 	0.50000 0.52140 0.25000 -0.12000
C 	C 	0.50000 0.71520 0.75000 -0.11600
C 	C 	0.50000 0.47860 0.75000 -0.12000
