data_crystal

_cell_length_a 7.12430
_cell_length_b 10.69330
_cell_length_c 17.09200
_cell_angle_alpha 97.10900
_cell_angle_beta  90.00000
_cell_angle_gamma 90.00000

_symmetry_space_group_name_	'P 1'
_symmetry_space_group_name_H-M	'P 1'

loop_
_symmetry_equiv_pos_as_xyz
  x,y,z

loop_
_atom_site_label
_atom_site_type_symbol
_atom_site_fract_x
_atom_site_fract_y
_atom_site_fract_z
_atom_site_charge
Er	Er	0.02014 0.67741 0.74657 1.75600
Er	Er	0.52014 0.82259 0.75343 1.76500
Er	Er	0.97986 0.32259 0.25343 1.75600
Er	Er	0.47986 0.17741 0.24657 1.76500
H 	H 	0.45610 0.18050 0.55950 0.28900
H 	H 	0.18060 0.48850 0.52000 0.06200
H 	H 	0.15170 0.83550 0.54970 0.05600
H 	H 	0.95610 0.31950 0.94050 0.28700
H 	H 	0.68060 0.01150 0.98000 0.06400
H 	H 	0.65170 0.66450 0.95030 0.05500
H 	H 	0.54390 0.81950 0.44050 0.28900
H 	H 	0.81940 0.51150 0.48000 0.06200
H 	H 	0.84830 0.16450 0.45030 0.05600
H 	H 	0.04390 0.68050 0.05950 0.28700
H 	H 	0.31940 0.98850 0.02000 0.06400
H 	H 	0.34830 0.33550 0.04970 0.05500
C 	C 	0.32610 0.58580 0.65000 0.35200
C 	C 	0.42440 0.54200 0.57360 -0.04600
C 	C 	0.30930 0.49310 0.51170 0.00200
C 	C 	0.61860 0.54880 0.56200 -0.06600
C 	C 	0.75410 0.59670 0.62600 0.37300
C 	C 	0.85280 0.89030 0.63530 0.44200
C 	C 	0.92750 0.95280 0.56700 -0.07000
C 	C 	0.09030 0.90130 0.52950 0.00400
C 	C 	0.83920 0.05320 0.53700 -0.04500
C 	C 	0.67730 0.12160 0.57920 0.37500
C 	C 	0.82610 0.91420 0.85000 0.35000
C 	C 	0.92440 0.95800 0.92640 -0.03400
C 	C 	0.80930 0.00690 0.98830 -0.00600
C 	C 	0.11860 0.95120 0.93800 -0.07300
C 	C 	0.25410 0.90330 0.87400 0.37500
C 	C 	0.35280 0.60970 0.86470 0.44500
C 	C 	0.42750 0.54720 0.93300 -0.08000
C 	C 	0.59030 0.59870 0.97050 0.01200
C 	C 	0.33920 0.44680 0.96300 -0.04100
C 	C 	0.17730 0.37840 0.92080 0.37400
C 	C 	0.67390 0.41420 0.35000 0.35200
C 	C 	0.57560 0.45800 0.42640 -0.04600
C 	C 	0.69070 0.50690 0.48830 0.00200
C 	C 	0.38140 0.45120 0.43800 -0.06600
C 	C 	0.24590 0.40330 0.37400 0.37300
C 	C 	0.14720 0.10970 0.36470 0.44200
C 	C 	0.07250 0.04720 0.43300 -0.07000
C 	C 	0.90970 0.09870 0.47050 0.00400
C 	C 	0.16080 0.94680 0.46300 -0.04500
C 	C 	0.32270 0.87840 0.42080 0.37500
C 	C 	0.17390 0.08580 0.15000 0.35000
C 	C 	0.07560 0.04200 0.07360 -0.03400
C 	C 	0.19070 0.99310 0.01170 -0.00600
C 	C 	0.88140 0.04880 0.06200 -0.07300
C 	C 	0.74590 0.09670 0.12600 0.37500
C 	C 	0.64720 0.39030 0.13530 0.44500
C 	C 	0.57250 0.45280 0.06700 -0.08000
C 	C 	0.40970 0.40130 0.02950 0.01200
C 	C 	0.66080 0.55320 0.03700 -0.04100
C 	C 	0.82270 0.62160 0.07920 0.37400
O 	O 	0.24280 0.50660 0.68556 -0.36100
O 	O 	0.30780 0.70380 0.67159 -0.53900
O 	O 	0.92420 0.58710 0.61450 -0.40700
O 	O 	0.69040 0.64630 0.69311 -0.52200
O 	O 	0.97200 0.84480 0.67690 -0.46900
O 	O 	0.67780 0.88580 0.64482 -0.45200
O 	O 	0.67790 0.15220 0.65040 -0.26800
O 	O 	0.54390 0.14880 0.53300 -0.46800
O 	O 	0.74280 0.99340 0.81444 -0.36000
O 	O 	0.80780 0.79620 0.82841 -0.53600
O 	O 	0.42420 0.91290 0.88550 -0.41000
O 	O 	0.19040 0.85370 0.80689 -0.52500
O 	O 	0.47200 0.65520 0.82310 -0.47400
O 	O 	0.17780 0.61420 0.85518 -0.45300
O 	O 	0.17790 0.34780 0.84960 -0.26700
O 	O 	0.04390 0.35120 0.96700 -0.46600
O 	O 	0.75720 0.49340 0.31444 -0.36100
O 	O 	0.69220 0.29620 0.32841 -0.53900
O 	O 	0.07580 0.41290 0.38550 -0.40700
O 	O 	0.30960 0.35370 0.30689 -0.52200
O 	O 	0.02800 0.15520 0.32310 -0.46900
O 	O 	0.32220 0.11420 0.35518 -0.45200
O 	O 	0.32210 0.84780 0.34960 -0.26800
O 	O 	0.45610 0.85120 0.46700 -0.46800
O 	O 	0.25720 0.00660 0.18556 -0.36000
O 	O 	0.19220 0.20380 0.17159 -0.53600
O 	O 	0.57580 0.08710 0.11450 -0.41000
O 	O 	0.80960 0.14630 0.19311 -0.52500
O 	O 	0.52800 0.34480 0.17690 -0.47400
O 	O 	0.82220 0.38580 0.14482 -0.45300
O 	O 	0.82210 0.65220 0.15040 -0.26700
O 	O 	0.95610 0.64880 0.03300 -0.46600
