data_crystal

_cell_length_a 49.03300
_cell_length_b 8.98770
_cell_length_c 18.43570
_cell_angle_alpha 90.00000
_cell_angle_beta  90.00000
_cell_angle_gamma 90.00000

_symmetry_space_group_name_	'P 1'
_symmetry_space_group_name_H-M	'P 1'

loop_
_symmetry_equiv_pos_as_xyz
  x,y,z

loop_
_atom_site_label
_atom_site_type_symbol
_atom_site_fract_x
_atom_site_fract_y
_atom_site_fract_z
_atom_site_charge
O 	O 	0.09065 0.00090 0.19300 -0.25000
N 	N 	0.03243 0.36960 0.06390 -0.18600
N 	N 	0.09504 0.20430 0.26230 -0.24800
H 	H 	0.09120 0.29980 0.26460 0.14700
C 	C 	0.05460 0.42770 0.08790 1.30700
H 	H 	0.05950 0.52400 0.07130 -0.44100
C 	C 	0.07210 0.35400 0.13820 -1.23500
H 	H 	0.08710 0.40620 0.15850 0.45500
C 	C 	0.06746 0.21560 0.15670 0.11200
C 	C 	0.04750 0.13630 0.11920 -1.96000
H 	H 	0.04560 0.03170 0.12450 0.68700
C 	C 	0.03000 0.22020 0.07220 2.07800
H 	H 	0.01620 0.16940 0.04590 -0.68000
C 	C 	0.08536 0.13150 0.20500 0.18600
C 	C 	0.11087 0.14540 0.32040 0.17200
C 	C 	0.10445 0.19470 0.39030 -0.14900
H 	H 	0.08960 0.26090 0.39740 0.08300
C 	C 	0.11941 0.14830 0.44820 0.00100
H 	H 	0.11520 0.18390 0.49540 0.04500
C 	C 	0.14080 0.04940 0.43870 -0.01000
C 	C 	0.14696 0.99860 0.36910 0.08400
H 	H 	0.16140 0.92970 0.36200 0.01700
C 	C 	0.13197 0.04890 0.31010 -0.22300
H 	H 	0.13640 0.01610 0.26250 0.10500
C 	C 	0.19908 0.10480 0.46050 -0.05900
H 	H 	0.18960 0.17780 0.43320 0.06400
C 	C 	0.22707 0.10440 0.46050 -0.07300
H 	H 	0.23670 0.17670 0.43300 0.07100
O 	O 	0.28001 0.02190 0.39540 -0.18300
N 	N 	0.27049 0.98900 0.51410 -0.54700
C 	C 	0.28760 0.00580 0.45870 -0.40100
C 	C 	0.36210 0.02000 0.43320 0.10600
C 	C 	0.33590 0.02040 0.42000 -0.04900
C 	C 	0.31770 0.00380 0.47630 0.13400
C 	C 	0.32840 0.98590 0.54480 -0.08500
C 	C 	0.35780 0.98900 0.55230 -0.40700
O 	O 	0.26188 0.47070 0.28950 -0.36900
C 	C 	0.27450 0.33690 0.31020 0.00000
H 	H 	0.26050 0.25910 0.31810 -0.00900
H 	H 	0.28460 0.35150 0.35610 0.01000
C 	C 	0.29360 0.29000 0.25200 -0.31400
H 	H 	0.30240 0.19600 0.26600 0.14900
H 	H 	0.30750 0.36640 0.24490 0.00000
H 	H 	0.28340 0.27510 0.20680 0.03900
C 	C 	0.03150 0.39820 0.14070 -0.93600
H 	H 	0.01870 0.46720 0.15960 0.28300
C 	C 	0.04920 0.32550 0.18680 0.79900
H 	H 	0.04940 0.34730 0.23720 -0.25400
C 	C 	0.06640 0.19500 0.08340 2.03300
H 	H 	0.07800 0.12400 0.06110 -0.62700
C 	C 	0.04860 0.27580 0.04190 -2.41500
H 	H 	0.04880 0.25750 0.99110 0.77000
H 	H 	0.27660 0.97160 0.55810 0.53700
H 	H 	0.37410 0.03160 0.39240 -0.45100
H 	H 	0.32870 0.03560 0.37210 0.02000
H 	H 	0.31670 0.97200 0.58610 0.07000
H 	H 	0.36550 0.98000 0.60000 0.72100
O 	O 	0.27998 0.11210 0.33620 -0.35500
H 	H 	0.26520 0.08890 0.31510 0.24200
C 	C 	0.28490 0.26140 0.32340 0.20300
H 	H 	0.29350 0.30600 0.36700 -0.01300
H 	H 	0.26740 0.31300 0.31480 0.04200
C 	C 	0.30320 0.28400 0.25940 -0.18000
H 	H 	0.30670 0.39070 0.25290 0.16300
H 	H 	0.29450 0.24410 0.21580 0.17100
H 	H 	0.32060 0.23250 0.26760 0.03800
O 	O 	0.40935 0.99910 0.69300 -0.21600
N 	N 	0.46757 0.63040 0.56390 -0.21800
N 	N 	0.40496 0.79570 0.76230 -0.22800
H 	H 	0.40880 0.70020 0.76460 0.14400
C 	C 	0.44540 0.57230 0.58790 0.74800
H 	H 	0.44050 0.47600 0.57130 -0.25600
C 	C 	0.42790 0.64600 0.63820 -0.71600
H 	H 	0.41290 0.59380 0.65850 0.28000
C 	C 	0.43254 0.78440 0.65670 0.07300
C 	C 	0.45250 0.86370 0.61920 -1.09400
H 	H 	0.45440 0.96830 0.62450 0.40700
C 	C 	0.47000 0.77980 0.57220 1.14300
H 	H 	0.48380 0.83060 0.54590 -0.37100
C 	C 	0.41464 0.86850 0.70500 0.19200
C 	C 	0.38913 0.85460 0.82040 0.07900
C 	C 	0.39555 0.80530 0.89030 -0.04200
H 	H 	0.41040 0.73910 0.89740 0.05100
C 	C 	0.38059 0.85170 0.94820 -0.10800
H 	H 	0.38480 0.81610 0.99540 0.08100
C 	C 	0.35920 0.95060 0.93870 0.15100
C 	C 	0.35304 0.00140 0.86910 -0.17700
H 	H 	0.33860 0.07030 0.86200 0.08500
C 	C 	0.36803 0.95110 0.81010 -0.01700
H 	H 	0.36360 0.98390 0.76250 0.05400
C 	C 	0.30092 0.89520 0.96050 -0.06000
H 	H 	0.31040 0.82220 0.93320 0.06800
C 	C 	0.27293 0.89560 0.96050 -0.05700
H 	H 	0.26330 0.82330 0.93300 0.07400
O 	O 	0.21999 0.97810 0.89540 -0.29700
N 	N 	0.22951 0.01100 0.01410 0.06100
C 	C 	0.21240 0.99420 0.95870 -0.19100
C 	C 	0.13790 0.98000 0.93320 0.10900
C 	C 	0.16410 0.97960 0.92000 -0.01200
C 	C 	0.18230 0.99620 0.97630 0.13100
C 	C 	0.17160 0.01410 0.04480 -0.08100
C 	C 	0.14220 0.01100 0.05230 -0.34400
O 	O 	0.23812 0.52930 0.78950 -0.37300
C 	C 	0.22550 0.66310 0.81020 -0.00400
H 	H 	0.23950 0.74090 0.81810 -0.01000
H 	H 	0.21540 0.64850 0.85610 0.01100
C 	C 	0.20640 0.71000 0.75200 -0.31600
H 	H 	0.19760 0.80400 0.76600 0.15500
H 	H 	0.19250 0.63360 0.74490 0.00100
H 	H 	0.21660 0.72490 0.70680 0.04100
C 	C 	0.46850 0.60180 0.64070 -0.52300
H 	H 	0.48130 0.53280 0.65960 0.15100
C 	C 	0.45080 0.67450 0.68680 0.42000
H 	H 	0.45060 0.65270 0.73720 -0.12200
C 	C 	0.43360 0.80500 0.58340 1.08100
H 	H 	0.42200 0.87600 0.56110 -0.30100
C 	C 	0.45140 0.72420 0.54190 -1.30800
H 	H 	0.45120 0.74250 0.49110 0.43200
H 	H 	0.22340 0.02840 0.05810 0.37700
H 	H 	0.12590 0.96840 0.89240 -0.48900
H 	H 	0.17130 0.96440 0.87210 0.02200
H 	H 	0.18330 0.02800 0.08610 0.09000
H 	H 	0.13450 0.02000 0.10000 0.59800
O 	O 	0.22002 0.88790 0.83620 -0.31200
H 	H 	0.23480 0.91110 0.81510 0.25200
C 	C 	0.21510 0.73860 0.82340 0.18400
H 	H 	0.20650 0.69400 0.86700 -0.01100
H 	H 	0.23260 0.68700 0.81480 0.05300
C 	C 	0.19680 0.71600 0.75940 -0.17600
H 	H 	0.19330 0.60930 0.75290 0.16200
H 	H 	0.20550 0.75590 0.71580 0.17500
H 	H 	0.17940 0.76750 0.76760 0.04000
O 	O 	0.40935 0.00090 0.30700 -0.24900
N 	N 	0.46757 0.36960 0.43610 -0.21700
N 	N 	0.40496 0.20430 0.23770 -0.24800
H 	H 	0.40880 0.29980 0.23540 0.14800
C 	C 	0.44540 0.42770 0.41210 0.73500
H 	H 	0.44050 0.52400 0.42870 -0.25100
C 	C 	0.42790 0.35400 0.36180 -0.70100
H 	H 	0.41290 0.40620 0.34150 0.27400
C 	C 	0.43254 0.21560 0.34330 0.06000
C 	C 	0.45250 0.13630 0.38080 -1.07700
H 	H 	0.45440 0.03170 0.37550 0.38700
C 	C 	0.47000 0.22020 0.42780 1.12100
H 	H 	0.48380 0.16940 0.45410 -0.37100
C 	C 	0.41464 0.13150 0.29500 0.19700
C 	C 	0.38913 0.14540 0.17960 0.15400
C 	C 	0.39555 0.19470 0.10970 -0.13200
H 	H 	0.41040 0.26090 0.10260 0.08700
C 	C 	0.38059 0.14830 0.05180 -0.01100
H 	H 	0.38480 0.18390 0.00460 0.05700
C 	C 	0.35920 0.04940 0.06130 0.01400
C 	C 	0.35304 0.99860 0.13090 0.04700
H 	H 	0.33860 0.92970 0.13800 0.02700
C 	C 	0.36803 0.04890 0.18990 -0.20100
H 	H 	0.36360 0.01610 0.23750 0.09800
C 	C 	0.30092 0.10480 0.03950 -0.06200
H 	H 	0.31040 0.17780 0.06680 0.06500
C 	C 	0.27293 0.10440 0.03950 -0.07400
H 	H 	0.26330 0.17670 0.06700 0.07700
O 	O 	0.21999 0.02190 0.10460 -0.24800
N 	N 	0.22951 0.98900 0.98590 -0.26600
C 	C 	0.21240 0.00580 0.04130 -0.29900
C 	C 	0.13790 0.02000 0.06680 0.09700
C 	C 	0.16410 0.02040 0.08000 -0.01200
C 	C 	0.18230 0.00380 0.02370 0.11600
C 	C 	0.17160 0.98590 0.95520 -0.07400
C 	C 	0.14220 0.98900 0.94770 -0.34900
O 	O 	0.23812 0.47070 0.21050 -0.36800
C 	C 	0.22550 0.33690 0.18980 0.00100
H 	H 	0.23950 0.25910 0.18190 -0.00900
H 	H 	0.21540 0.35150 0.14390 0.01200
C 	C 	0.20640 0.29000 0.24800 -0.30500
H 	H 	0.19760 0.19600 0.23400 0.14600
H 	H 	0.19250 0.36640 0.25510 0.00100
H 	H 	0.21660 0.27510 0.29320 0.03800
C 	C 	0.46850 0.39820 0.35930 -0.51700
H 	H 	0.48130 0.46720 0.34040 0.15000
C 	C 	0.45080 0.32550 0.31320 0.41500
H 	H 	0.45060 0.34730 0.26280 -0.12400
C 	C 	0.43360 0.19500 0.41660 1.06900
H 	H 	0.42200 0.12400 0.43890 -0.30800
C 	C 	0.45140 0.27580 0.45810 -1.28700
H 	H 	0.45120 0.25750 0.50890 0.42000
H 	H 	0.22340 0.97160 0.94190 0.45800
H 	H 	0.12590 0.03160 0.10760 -0.47900
H 	H 	0.17130 0.03560 0.12790 0.00900
H 	H 	0.18330 0.97200 0.91390 0.08000
H 	H 	0.13450 0.98000 0.90000 0.61100
O 	O 	0.22002 0.11210 0.16380 -0.32800
H 	H 	0.23480 0.08890 0.18490 0.23500
C 	C 	0.21510 0.26140 0.17660 0.18100
H 	H 	0.20650 0.30600 0.13300 -0.00600
H 	H 	0.23260 0.31300 0.18520 0.04900
C 	C 	0.19680 0.28400 0.24060 -0.17200
H 	H 	0.19330 0.39070 0.24710 0.15800
H 	H 	0.20550 0.24410 0.28420 0.16500
H 	H 	0.17940 0.23250 0.23240 0.03600
O 	O 	0.09065 0.99910 0.80700 -0.21900
N 	N 	0.03243 0.63040 0.93610 -0.25100
N 	N 	0.09504 0.79570 0.73770 -0.22800
H 	H 	0.09120 0.70020 0.73540 0.14500
C 	C 	0.05460 0.57230 0.91210 0.18700
H 	H 	0.05950 0.47600 0.92870 -0.07000
C 	C 	0.07210 0.64600 0.86180 -0.19200
H 	H 	0.08710 0.59380 0.84150 0.10200
C 	C 	0.06746 0.78440 0.84330 0.02100
C 	C 	0.04750 0.86370 0.88080 -0.22600
H 	H 	0.04560 0.96830 0.87550 0.11100
C 	C 	0.03000 0.77980 0.92780 0.20100
H 	H 	0.01620 0.83060 0.95410 -0.07000
C 	C 	0.08536 0.86850 0.79500 0.20200
C 	C 	0.11087 0.85460 0.67960 0.05500
C 	C 	0.10445 0.80530 0.60970 -0.01500
H 	H 	0.08960 0.73910 0.60260 0.05300
C 	C 	0.11941 0.85170 0.55180 -0.13500
H 	H 	0.11520 0.81610 0.50460 0.10100
C 	C 	0.14080 0.95060 0.56130 0.19800
C 	C 	0.14696 0.00140 0.63090 -0.22500
H 	H 	0.16140 0.07030 0.63800 0.10200
C 	C 	0.13197 0.95110 0.68990 0.01400
H 	H 	0.13640 0.98390 0.73750 0.04300
C 	C 	0.19908 0.89520 0.53950 -0.03900
H 	H 	0.18960 0.82220 0.56680 0.06400
C 	C 	0.22707 0.89560 0.53950 -0.02500
H 	H 	0.23670 0.82330 0.56700 0.07100
O 	O 	0.28001 0.97810 0.60460 -0.36000
N 	N 	0.27049 0.01100 0.48590 0.35200
C 	C 	0.28760 0.99420 0.54130 -0.10100
C 	C 	0.36210 0.98000 0.56680 0.10600
C 	C 	0.33590 0.97960 0.58000 0.03700
C 	C 	0.31770 0.99620 0.52370 0.11900
C 	C 	0.32840 0.01410 0.45520 -0.07200
C 	C 	0.35780 0.01100 0.44770 -0.32200
O 	O 	0.26188 0.52930 0.71050 -0.37200
C 	C 	0.27450 0.66310 0.68980 -0.00300
H 	H 	0.26050 0.74090 0.68190 -0.01100
H 	H 	0.28460 0.64850 0.64390 0.01400
C 	C 	0.29360 0.71000 0.74800 -0.30700
H 	H 	0.30240 0.80400 0.73400 0.15200
H 	H 	0.30750 0.63360 0.75510 0.00200
H 	H 	0.28340 0.72490 0.79320 0.04000
C 	C 	0.03150 0.60180 0.85930 -0.11200
H 	H 	0.01870 0.53280 0.84040 0.02000
C 	C 	0.04920 0.67450 0.81320 0.04300
H 	H 	0.04940 0.65270 0.76280 0.00500
C 	C 	0.06640 0.80500 0.91660 0.13400
H 	H 	0.07800 0.87600 0.93890 0.01100
C 	C 	0.04860 0.72420 0.95810 -0.19900
H 	H 	0.04880 0.74250 0.00890 0.08700
H 	H 	0.27660 0.02840 0.44190 0.30500
H 	H 	0.37410 0.96840 0.60760 -0.57700
H 	H 	0.32870 0.96440 0.62790 0.00600
H 	H 	0.31670 0.02800 0.41390 0.09700
H 	H 	0.36550 0.02000 0.40000 0.55800
O 	O 	0.27998 0.88790 0.66380 -0.28400
H 	H 	0.26520 0.91110 0.68490 0.24500
C 	C 	0.28490 0.73860 0.67660 0.16100
H 	H 	0.29350 0.69400 0.63300 -0.00200
H 	H 	0.26740 0.68700 0.68520 0.06000
C 	C 	0.30320 0.71600 0.74060 -0.16800
H 	H 	0.30670 0.60930 0.74710 0.15600
H 	H 	0.29450 0.75590 0.78420 0.16900
H 	H 	0.32060 0.76750 0.73240 0.03800
O 	O 	0.90935 0.99910 0.80700 -0.21900
N 	N 	0.96757 0.63040 0.93610 -0.25100
N 	N 	0.90496 0.79570 0.73770 -0.22800
H 	H 	0.90880 0.70020 0.73540 0.14500
C 	C 	0.94540 0.57230 0.91210 0.18600
H 	H 	0.94050 0.47600 0.92870 -0.06900
C 	C 	0.92790 0.64600 0.86180 -0.19100
H 	H 	0.91290 0.59380 0.84150 0.10200
C 	C 	0.93254 0.78440 0.84330 0.02100
C 	C 	0.95250 0.86370 0.88080 -0.22400
H 	H 	0.95440 0.96830 0.87550 0.11100
C 	C 	0.97000 0.77980 0.92780 0.19900
H 	H 	0.98380 0.83060 0.95410 -0.06800
C 	C 	0.91464 0.86850 0.79500 0.20200
C 	C 	0.88913 0.85460 0.67960 0.05500
C 	C 	0.89555 0.80530 0.60970 -0.01500
H 	H 	0.91040 0.73910 0.60260 0.05300
C 	C 	0.88059 0.85170 0.55180 -0.13400
H 	H 	0.88480 0.81610 0.50460 0.10100
C 	C 	0.85920 0.95060 0.56130 0.19800
C 	C 	0.85304 0.00140 0.63090 -0.22500
H 	H 	0.83860 0.07030 0.63800 0.10100
C 	C 	0.86803 0.95110 0.68990 0.01400
H 	H 	0.86360 0.98390 0.73750 0.04300
C 	C 	0.80092 0.89520 0.53950 -0.03900
H 	H 	0.81040 0.82220 0.56680 0.06400
C 	C 	0.77293 0.89560 0.53950 -0.02600
H 	H 	0.76330 0.82330 0.56700 0.07100
O 	O 	0.71999 0.97810 0.60460 -0.36000
N 	N 	0.72951 0.01100 0.48590 0.35100
C 	C 	0.71240 0.99420 0.54130 -0.10100
C 	C 	0.63790 0.98000 0.56680 0.10600
C 	C 	0.66410 0.97960 0.58000 0.03700
C 	C 	0.68230 0.99620 0.52370 0.11900
C 	C 	0.67160 0.01410 0.45520 -0.07200
C 	C 	0.64220 0.01100 0.44770 -0.32200
O 	O 	0.73812 0.52930 0.71050 -0.37200
C 	C 	0.72550 0.66310 0.68980 -0.00300
H 	H 	0.73950 0.74090 0.68190 -0.01100
H 	H 	0.71540 0.64850 0.64390 0.01400
C 	C 	0.70640 0.71000 0.74800 -0.30700
H 	H 	0.69760 0.80400 0.73400 0.15200
H 	H 	0.69250 0.63360 0.75510 0.00200
H 	H 	0.71660 0.72490 0.79320 0.04000
C 	C 	0.96850 0.60180 0.85930 -0.11100
H 	H 	0.98130 0.53280 0.84040 0.02100
C 	C 	0.95080 0.67450 0.81320 0.04300
H 	H 	0.95060 0.65270 0.76280 0.00600
C 	C 	0.93360 0.80500 0.91660 0.13200
H 	H 	0.92200 0.87600 0.93890 0.01100
C 	C 	0.95140 0.72420 0.95810 -0.19700
H 	H 	0.95120 0.74250 0.00890 0.08600
H 	H 	0.72340 0.02840 0.44190 0.30500
H 	H 	0.62590 0.96840 0.60760 -0.57700
H 	H 	0.67130 0.96440 0.62790 0.00600
H 	H 	0.68330 0.02800 0.41390 0.09700
H 	H 	0.63450 0.02000 0.40000 0.55800
O 	O 	0.72002 0.88790 0.66380 -0.28400
H 	H 	0.73480 0.91110 0.68490 0.24500
C 	C 	0.71510 0.73860 0.67660 0.16100
H 	H 	0.70650 0.69400 0.63300 -0.00200
H 	H 	0.73260 0.68700 0.68520 0.06000
C 	C 	0.69680 0.71600 0.74060 -0.16800
H 	H 	0.69330 0.60930 0.74710 0.15600
H 	H 	0.70550 0.75590 0.78420 0.16900
H 	H 	0.67940 0.76750 0.73240 0.03800
O 	O 	0.59065 0.00090 0.30700 -0.24900
N 	N 	0.53243 0.36960 0.43610 -0.21700
N 	N 	0.59504 0.20430 0.23770 -0.24800
H 	H 	0.59120 0.29980 0.23540 0.14800
C 	C 	0.55460 0.42770 0.41210 0.73500
H 	H 	0.55950 0.52400 0.42870 -0.25100
C 	C 	0.57210 0.35400 0.36180 -0.70100
H 	H 	0.58710 0.40620 0.34150 0.27400
C 	C 	0.56746 0.21560 0.34330 0.06000
C 	C 	0.54750 0.13630 0.38080 -1.07700
H 	H 	0.54560 0.03170 0.37550 0.38700
C 	C 	0.53000 0.22020 0.42780 1.12100
H 	H 	0.51620 0.16940 0.45410 -0.37100
C 	C 	0.58536 0.13150 0.29500 0.19700
C 	C 	0.61087 0.14540 0.17960 0.15400
C 	C 	0.60445 0.19470 0.10970 -0.13200
H 	H 	0.58960 0.26090 0.10260 0.08700
C 	C 	0.61941 0.14830 0.05180 -0.01100
H 	H 	0.61520 0.18390 0.00460 0.05700
C 	C 	0.64080 0.04940 0.06130 0.01400
C 	C 	0.64696 0.99860 0.13090 0.04700
H 	H 	0.66140 0.92970 0.13800 0.02700
C 	C 	0.63197 0.04890 0.18990 -0.20100
H 	H 	0.63640 0.01610 0.23750 0.09800
C 	C 	0.69908 0.10480 0.03950 -0.06200
H 	H 	0.68960 0.17780 0.06680 0.06500
C 	C 	0.72707 0.10440 0.03950 -0.07500
H 	H 	0.73670 0.17670 0.06700 0.07700
O 	O 	0.78001 0.02190 0.10460 -0.24800
N 	N 	0.77049 0.98900 0.98590 -0.26500
C 	C 	0.78760 0.00580 0.04130 -0.29900
C 	C 	0.86210 0.02000 0.06680 0.09700
C 	C 	0.83590 0.02040 0.08000 -0.01200
C 	C 	0.81770 0.00380 0.02370 0.11600
C 	C 	0.82840 0.98590 0.95520 -0.07400
C 	C 	0.85780 0.98900 0.94770 -0.34900
O 	O 	0.76188 0.47070 0.21050 -0.36800
C 	C 	0.77450 0.33690 0.18980 0.00100
H 	H 	0.76050 0.25910 0.18190 -0.00900
H 	H 	0.78460 0.35150 0.14390 0.01200
C 	C 	0.79360 0.29000 0.24800 -0.30500
H 	H 	0.80240 0.19600 0.23400 0.14600
H 	H 	0.80750 0.36640 0.25510 0.00100
H 	H 	0.78340 0.27510 0.29320 0.03800
C 	C 	0.53150 0.39820 0.35930 -0.51700
H 	H 	0.51870 0.46720 0.34040 0.15000
C 	C 	0.54920 0.32550 0.31320 0.41500
H 	H 	0.54940 0.34730 0.26280 -0.12400
C 	C 	0.56640 0.19500 0.41660 1.06900
H 	H 	0.57800 0.12400 0.43890 -0.30800
C 	C 	0.54860 0.27580 0.45810 -1.28700
H 	H 	0.54880 0.25750 0.50890 0.42000
H 	H 	0.77660 0.97160 0.94190 0.45800
H 	H 	0.87410 0.03160 0.10760 -0.47900
H 	H 	0.82870 0.03560 0.12790 0.00900
H 	H 	0.81670 0.97200 0.91390 0.08000
H 	H 	0.86550 0.98000 0.90000 0.61000
O 	O 	0.77998 0.11210 0.16380 -0.32800
H 	H 	0.76520 0.08890 0.18490 0.23500
C 	C 	0.78490 0.26140 0.17660 0.18100
H 	H 	0.79350 0.30600 0.13300 -0.00600
H 	H 	0.76740 0.31300 0.18520 0.04900
C 	C 	0.80320 0.28400 0.24060 -0.17200
H 	H 	0.80670 0.39070 0.24710 0.15800
H 	H 	0.79450 0.24410 0.28420 0.16500
H 	H 	0.82060 0.23250 0.23240 0.03600
O 	O 	0.59065 0.99910 0.69300 -0.21600
N 	N 	0.53243 0.63040 0.56390 -0.21800
N 	N 	0.59504 0.79570 0.76230 -0.22800
H 	H 	0.59120 0.70020 0.76460 0.14400
C 	C 	0.55460 0.57230 0.58790 0.74800
H 	H 	0.55950 0.47600 0.57130 -0.25600
C 	C 	0.57210 0.64600 0.63820 -0.71600
H 	H 	0.58710 0.59380 0.65850 0.28000
C 	C 	0.56746 0.78440 0.65670 0.07300
C 	C 	0.54750 0.86370 0.61920 -1.09400
H 	H 	0.54560 0.96830 0.62450 0.40700
C 	C 	0.53000 0.77980 0.57220 1.14300
H 	H 	0.51620 0.83060 0.54590 -0.37100
C 	C 	0.58536 0.86850 0.70500 0.19200
C 	C 	0.61087 0.85460 0.82040 0.07900
C 	C 	0.60445 0.80530 0.89030 -0.04200
H 	H 	0.58960 0.73910 0.89740 0.05100
C 	C 	0.61941 0.85170 0.94820 -0.10800
H 	H 	0.61520 0.81610 0.99540 0.08100
C 	C 	0.64080 0.95060 0.93870 0.15100
C 	C 	0.64696 0.00140 0.86910 -0.17600
H 	H 	0.66140 0.07030 0.86200 0.08500
C 	C 	0.63197 0.95110 0.81010 -0.01700
H 	H 	0.63640 0.98390 0.76250 0.05400
C 	C 	0.69908 0.89520 0.96050 -0.06000
H 	H 	0.68960 0.82220 0.93320 0.06800
C 	C 	0.72707 0.89560 0.96050 -0.05700
H 	H 	0.73670 0.82330 0.93300 0.07400
O 	O 	0.78001 0.97810 0.89540 -0.29700
N 	N 	0.77049 0.01100 0.01410 0.06100
C 	C 	0.78760 0.99420 0.95870 -0.19100
C 	C 	0.86210 0.98000 0.93320 0.10900
C 	C 	0.83590 0.97960 0.92000 -0.01300
C 	C 	0.81770 0.99620 0.97630 0.13100
C 	C 	0.82840 0.01410 0.04480 -0.08100
C 	C 	0.85780 0.01100 0.05230 -0.34400
O 	O 	0.76188 0.52930 0.78950 -0.37300
C 	C 	0.77450 0.66310 0.81020 -0.00400
H 	H 	0.76050 0.74090 0.81810 -0.01000
H 	H 	0.78460 0.64850 0.85610 0.01100
C 	C 	0.79360 0.71000 0.75200 -0.31600
H 	H 	0.80240 0.80400 0.76600 0.15500
H 	H 	0.80750 0.63360 0.74490 0.00100
H 	H 	0.78340 0.72490 0.70680 0.04100
C 	C 	0.53150 0.60180 0.64070 -0.52300
H 	H 	0.51870 0.53280 0.65960 0.15100
C 	C 	0.54920 0.67450 0.68680 0.42000
H 	H 	0.54940 0.65270 0.73720 -0.12200
C 	C 	0.56640 0.80500 0.58340 1.08100
H 	H 	0.57800 0.87600 0.56110 -0.30100
C 	C 	0.54860 0.72420 0.54190 -1.30800
H 	H 	0.54880 0.74250 0.49110 0.43200
H 	H 	0.77660 0.02840 0.05810 0.37800
H 	H 	0.87410 0.96840 0.89240 -0.48900
H 	H 	0.82870 0.96440 0.87210 0.02200
H 	H 	0.81670 0.02800 0.08610 0.09000
H 	H 	0.86550 0.02000 0.10000 0.59800
O 	O 	0.77998 0.88790 0.83620 -0.31200
H 	H 	0.76520 0.91110 0.81510 0.25200
C 	C 	0.78490 0.73860 0.82340 0.18400
H 	H 	0.79350 0.69400 0.86700 -0.01100
H 	H 	0.76740 0.68700 0.81480 0.05300
C 	C 	0.80320 0.71600 0.75940 -0.17600
H 	H 	0.80670 0.60930 0.75290 0.16200
H 	H 	0.79450 0.75590 0.71580 0.17500
H 	H 	0.82060 0.76750 0.76760 0.04000
O 	O 	0.90935 0.00090 0.19300 -0.24900
N 	N 	0.96757 0.36960 0.06390 -0.18500
N 	N 	0.90496 0.20430 0.26230 -0.24700
H 	H 	0.90880 0.29980 0.26460 0.14700
C 	C 	0.94540 0.42770 0.08790 1.30700
H 	H 	0.94050 0.52400 0.07130 -0.44100
C 	C 	0.92790 0.35400 0.13820 -1.23500
H 	H 	0.91290 0.40620 0.15850 0.45500
C 	C 	0.93254 0.21560 0.15670 0.11200
C 	C 	0.95250 0.13630 0.11920 -1.96000
H 	H 	0.95440 0.03170 0.12450 0.68800
C 	C 	0.97000 0.22020 0.07220 2.07800
H 	H 	0.98380 0.16940 0.04590 -0.67900
C 	C 	0.91464 0.13150 0.20500 0.18600
C 	C 	0.88913 0.14540 0.32040 0.17200
C 	C 	0.89555 0.19470 0.39030 -0.14900
H 	H 	0.91040 0.26090 0.39740 0.08300
C 	C 	0.88059 0.14830 0.44820 0.00100
H 	H 	0.88480 0.18390 0.49540 0.04500
C 	C 	0.85920 0.04940 0.43870 -0.01000
C 	C 	0.85304 0.99860 0.36910 0.08400
H 	H 	0.83860 0.92970 0.36200 0.01700
C 	C 	0.86803 0.04890 0.31010 -0.22300
H 	H 	0.86360 0.01610 0.26250 0.10500
C 	C 	0.80092 0.10480 0.46050 -0.05900
H 	H 	0.81040 0.17780 0.43320 0.06400
C 	C 	0.77293 0.10440 0.46050 -0.07300
H 	H 	0.76330 0.17670 0.43300 0.07100
O 	O 	0.71999 0.02190 0.39540 -0.18300
N 	N 	0.72951 0.98900 0.51410 -0.54600
C 	C 	0.71240 0.00580 0.45870 -0.40100
C 	C 	0.63790 0.02000 0.43320 0.10600
C 	C 	0.66410 0.02040 0.42000 -0.04900
C 	C 	0.68230 0.00380 0.47630 0.13400
C 	C 	0.67160 0.98590 0.54480 -0.08500
C 	C 	0.64220 0.98900 0.55230 -0.40700
O 	O 	0.73812 0.47070 0.28950 -0.36900
C 	C 	0.72550 0.33690 0.31020 0.00000
H 	H 	0.73950 0.25910 0.31810 -0.00900
H 	H 	0.71540 0.35150 0.35610 0.01000
C 	C 	0.70640 0.29000 0.25200 -0.31400
H 	H 	0.69760 0.19600 0.26600 0.14900
H 	H 	0.69250 0.36640 0.24490 0.00000
H 	H 	0.71660 0.27510 0.20680 0.03900
C 	C 	0.96850 0.39820 0.14070 -0.93600
H 	H 	0.98130 0.46720 0.15960 0.28400
C 	C 	0.95080 0.32550 0.18680 0.80000
H 	H 	0.95060 0.34730 0.23720 -0.25400
C 	C 	0.93360 0.19500 0.08340 2.03300
H 	H 	0.92200 0.12400 0.06110 -0.62700
C 	C 	0.95140 0.27580 0.04190 -2.41500
H 	H 	0.95120 0.25750 0.99110 0.77000
H 	H 	0.72340 0.97160 0.55810 0.53700
H 	H 	0.62590 0.03160 0.39240 -0.45100
H 	H 	0.67130 0.03560 0.37210 0.02000
H 	H 	0.68330 0.97200 0.58610 0.07000
H 	H 	0.63450 0.98000 0.60000 0.72000
O 	O 	0.72002 0.11210 0.33620 -0.35500
H 	H 	0.73480 0.08890 0.31510 0.24200
C 	C 	0.71510 0.26140 0.32340 0.20300
H 	H 	0.70650 0.30600 0.36700 -0.01300
H 	H 	0.73260 0.31300 0.31480 0.04200
C 	C 	0.69680 0.28400 0.25940 -0.18000
H 	H 	0.69330 0.39070 0.25290 0.16300
H 	H 	0.70550 0.24410 0.21580 0.17100
H 	H 	0.67940 0.23250 0.26760 0.03800
Cd	Cd	-0.00000 0.50000 -0.00000 1.16000
Cd	Cd	0.50000 0.50000 0.50000 1.15300
N 	N 	0.15577 0.00000 0.50000 -0.16000
C 	C 	0.18451 0.00000 0.50000 0.05600
C 	C 	0.24135 0.00000 0.50000 0.04700
N 	N 	0.37400 0.00000 0.50000 0.05000
N 	N 	0.34423 0.00000 -0.00000 -0.14800
C 	C 	0.31549 0.00000 -0.00000 0.08200
C 	C 	0.25865 0.00000 -0.00000 0.08100
N 	N 	0.12600 0.00000 -0.00000 0.04900
N 	N 	0.84423 0.00000 0.50000 -0.16000
C 	C 	0.81549 0.00000 0.50000 0.05600
C 	C 	0.75865 0.00000 0.50000 0.04700
N 	N 	0.62600 0.00000 0.50000 0.05000
N 	N 	0.65577 0.00000 -0.00000 -0.14800
C 	C 	0.68451 0.00000 -0.00000 0.08200
C 	C 	0.74135 0.00000 -0.00000 0.08100
N 	N 	0.87400 0.00000 -0.00000 0.04900
H 	H 	0.25000 0.45430 0.25000 0.35900
H 	H 	0.25000 0.54570 0.75000 0.36000
H 	H 	0.75000 0.54570 0.75000 0.36000
H 	H 	0.75000 0.45430 0.25000 0.35900
O 	O 	0.59065 0.50090 0.19300 -0.23300
N 	N 	0.53243 0.86960 0.06390 -0.21400
N 	N 	0.59504 0.70430 0.26230 -0.23800
H 	H 	0.59120 0.79980 0.26460 0.15200
C 	C 	0.55460 0.92770 0.08790 0.92600
H 	H 	0.55950 0.02400 0.07130 -0.32800
C 	C 	0.57210 0.85400 0.13820 -0.85900
H 	H 	0.58710 0.90620 0.15850 0.33600
C 	C 	0.56746 0.71560 0.15670 0.08900
C 	C 	0.54750 0.63630 0.11920 -1.28500
H 	H 	0.54560 0.53170 0.12450 0.46600
C 	C 	0.53000 0.72020 0.07220 1.34200
H 	H 	0.51620 0.66940 0.04590 -0.43400
C 	C 	0.58536 0.63150 0.20500 0.18800
C 	C 	0.61087 0.64540 0.32040 0.12100
C 	C 	0.60445 0.69470 0.39030 -0.08800
H 	H 	0.58960 0.76090 0.39740 0.07500
C 	C 	0.61941 0.64830 0.44820 -0.05400
H 	H 	0.61520 0.68390 0.49540 0.07200
C 	C 	0.64080 0.54940 0.43870 0.07900
C 	C 	0.64696 0.49860 0.36910 -0.06000
H 	H 	0.66140 0.42970 0.36200 0.05400
C 	C 	0.63197 0.54890 0.31010 -0.11200
H 	H 	0.63640 0.51610 0.26250 0.07700
C 	C 	0.69908 0.60480 0.46050 -0.06100
H 	H 	0.68960 0.67780 0.43320 0.07200
C 	C 	0.72707 0.60440 0.46050 -0.07300
H 	H 	0.73670 0.67670 0.43300 0.08200
O 	O 	0.78001 0.52190 0.39540 -0.27300
N 	N 	0.77049 0.48900 0.51410 -0.10300
C 	C 	0.78760 0.50580 0.45870 -0.24000
C 	C 	0.86210 0.52000 0.43320 0.10300
C 	C 	0.83590 0.52040 0.42000 -0.02200
C 	C 	0.81770 0.50380 0.47630 0.12100
C 	C 	0.82840 0.48590 0.54480 -0.07600
C 	C 	0.85780 0.48900 0.55230 -0.34500
O 	O 	0.76188 0.97070 0.28950 -0.35400
C 	C 	0.77450 0.83690 0.31020 -0.00200
H 	H 	0.76050 0.75910 0.31810 -0.00900
H 	H 	0.78460 0.85150 0.35610 0.01600
C 	C 	0.79360 0.79000 0.25200 -0.31600
H 	H 	0.80240 0.69600 0.26600 0.15100
H 	H 	0.80750 0.86640 0.24490 0.00800
H 	H 	0.78340 0.77510 0.20680 0.04300
C 	C 	0.53150 0.89820 0.14070 -0.63000
H 	H 	0.51870 0.96720 0.15960 0.19400
C 	C 	0.54920 0.82550 0.18680 0.51700
H 	H 	0.54940 0.84730 0.23720 -0.15200
C 	C 	0.56640 0.69500 0.08340 1.28400
H 	H 	0.57800 0.62400 0.06110 -0.37200
C 	C 	0.54860 0.77580 0.04190 -1.53200
H 	H 	0.54880 0.75750 0.99110 0.49200
H 	H 	0.77660 0.47160 0.55810 0.41700
H 	H 	0.87410 0.53160 0.39240 -0.43500
H 	H 	0.82870 0.53560 0.37210 0.02000
H 	H 	0.81670 0.47200 0.58610 0.08400
H 	H 	0.86550 0.48000 0.60000 0.60500
O 	O 	0.77998 0.61210 0.33620 -0.32000
H 	H 	0.76520 0.58890 0.31510 0.24300
C 	C 	0.78490 0.76140 0.32340 0.18500
H 	H 	0.79350 0.80600 0.36700 -0.00600
H 	H 	0.76740 0.81300 0.31480 0.05000
C 	C 	0.80320 0.78400 0.25940 -0.17500
H 	H 	0.80670 0.89070 0.25290 0.16300
H 	H 	0.79450 0.74410 0.21580 0.17200
H 	H 	0.82060 0.73250 0.26760 0.04200
O 	O 	0.90935 0.49910 0.69300 -0.23100
N 	N 	0.96757 0.13040 0.56390 -0.18400
N 	N 	0.90496 0.29570 0.76230 -0.23600
H 	H 	0.90880 0.20020 0.76460 0.13600
C 	C 	0.94540 0.07230 0.58790 1.10700
H 	H 	0.94050 0.97600 0.57130 -0.35400
C 	C 	0.92790 0.14600 0.63820 -1.08300
H 	H 	0.91290 0.09380 0.65850 0.39200
C 	C 	0.93254 0.28440 0.65670 0.09000
C 	C 	0.95250 0.36370 0.61920 -1.77800
H 	H 	0.95440 0.46830 0.62450 0.63500
C 	C 	0.97000 0.27980 0.57220 1.89100
H 	H 	0.98380 0.33060 0.54590 -0.61900
C 	C 	0.91464 0.36850 0.70500 0.18800
C 	C 	0.88913 0.35460 0.82040 0.12300
C 	C 	0.89555 0.30530 0.89030 -0.09800
H 	H 	0.91040 0.23910 0.89740 0.05800
C 	C 	0.88059 0.35170 0.94820 -0.05100
H 	H 	0.88480 0.31610 0.99540 0.05500
C 	C 	0.85920 0.45060 0.93870 0.05700
C 	C 	0.85304 0.50140 0.86910 -0.05100
H 	H 	0.83860 0.57030 0.86200 0.05000
C 	C 	0.86803 0.45110 0.81010 -0.11300
H 	H 	0.86360 0.48390 0.76250 0.07800
C 	C 	0.80092 0.39520 0.96050 -0.07500
H 	H 	0.81040 0.32220 0.93320 0.06300
C 	C 	0.77293 0.39560 0.96050 -0.11100
H 	H 	0.76330 0.32330 0.93300 0.08100
O 	O 	0.71999 0.47810 0.89540 -0.20800
N 	N 	0.72951 0.51100 0.01410 -0.41200
C 	C 	0.71240 0.49420 0.95870 -0.34600
C 	C 	0.63790 0.48000 0.93320 0.10100
C 	C 	0.66410 0.47960 0.92000 -0.06800
C 	C 	0.68230 0.49620 0.97630 0.12900
C 	C 	0.67160 0.51410 0.04480 -0.08300
C 	C 	0.64220 0.51100 0.05230 -0.34100
O 	O 	0.73812 0.02930 0.78950 -0.38800
C 	C 	0.72550 0.16310 0.81020 -0.00100
H 	H 	0.73950 0.24090 0.81810 -0.01100
H 	H 	0.71540 0.14850 0.85610 0.00600
C 	C 	0.70640 0.21000 0.75200 -0.31300
H 	H 	0.69760 0.30400 0.76600 0.15100
H 	H 	0.69250 0.13360 0.74490 -0.00600
H 	H 	0.71660 0.22490 0.70680 0.03700
C 	C 	0.96850 0.10180 0.64070 -0.82400
H 	H 	0.98130 0.03280 0.65960 0.23700
C 	C 	0.95080 0.17450 0.68680 0.70200
H 	H 	0.95060 0.15270 0.73720 -0.22500
C 	C 	0.93360 0.30500 0.58340 1.84400
H 	H 	0.92200 0.37600 0.56110 -0.56400
C 	C 	0.95140 0.22420 0.54190 -2.21000
H 	H 	0.95120 0.24250 0.49110 0.71900
H 	H 	0.72340 0.52840 0.05810 0.48800
H 	H 	0.62590 0.46840 0.89240 -0.36400
H 	H 	0.67130 0.46440 0.87210 0.03200
H 	H 	0.68330 0.52800 0.08610 0.07700
H 	H 	0.63450 0.52000 0.10000 0.59100
O 	O 	0.72002 0.38790 0.83620 -0.34700
H 	H 	0.73480 0.41110 0.81510 0.25000
C 	C 	0.71510 0.23860 0.82340 0.20000
H 	H 	0.70650 0.19400 0.86700 -0.01600
H 	H 	0.73260 0.18700 0.81480 0.04600
C 	C 	0.69680 0.21600 0.75940 -0.17900
H 	H 	0.69330 0.10930 0.75290 0.16300
H 	H 	0.70550 0.25590 0.71580 0.17300
H 	H 	0.67940 0.26750 0.76760 0.03700
O 	O 	0.90935 0.50090 0.30700 -0.23900
N 	N 	0.96757 0.86960 0.43610 -0.25000
N 	N 	0.90496 0.70430 0.23770 -0.24200
H 	H 	0.90880 0.79980 0.23540 0.15600
C 	C 	0.94540 0.92770 0.41210 0.34300
H 	H 	0.94050 0.02400 0.42870 -0.14000
C 	C 	0.92790 0.85400 0.36180 -0.30200
H 	H 	0.91290 0.90620 0.34150 0.15100
C 	C 	0.93254 0.71560 0.34330 0.03700
C 	C 	0.95250 0.63630 0.38080 -0.34200
H 	H 	0.95440 0.53170 0.37550 0.14100
C 	C 	0.97000 0.72020 0.42780 0.31700
H 	H 	0.98380 0.66940 0.45410 -0.10400
C 	C 	0.91464 0.63150 0.29500 0.20100
C 	C 	0.88913 0.64540 0.17960 0.11700
C 	C 	0.89555 0.69470 0.10970 -0.08600
H 	H 	0.91040 0.76090 0.10260 0.08500
C 	C 	0.88059 0.64830 0.05180 -0.05200
H 	H 	0.88480 0.68390 0.00460 0.08000
C 	C 	0.85920 0.54940 0.06130 0.08200
C 	C 	0.85304 0.49860 0.13090 -0.06200
H 	H 	0.83860 0.42970 0.13800 0.05500
C 	C 	0.86803 0.54890 0.18990 -0.11700
H 	H 	0.86360 0.51610 0.23750 0.07700
C 	C 	0.80092 0.60480 0.03950 -0.06100
H 	H 	0.81040 0.67780 0.06680 0.07300
C 	C 	0.77293 0.60440 0.03950 -0.07600
H 	H 	0.76330 0.67670 0.06700 0.08800
O 	O 	0.71999 0.52190 0.10460 -0.34000
N 	N 	0.72951 0.48900 0.98590 0.19300
C 	C 	0.71240 0.50580 0.04130 -0.12500
C 	C 	0.63790 0.52000 0.06680 0.09400
C 	C 	0.66410 0.52040 0.08000 0.01300
C 	C 	0.68230 0.50380 0.02370 0.10700
C 	C 	0.67160 0.48590 0.95520 -0.06500
C 	C 	0.64220 0.48900 0.94770 -0.27000
O 	O 	0.73812 0.97070 0.21050 -0.35400
C 	C 	0.72550 0.83690 0.18980 -0.00100
H 	H 	0.73950 0.75910 0.18190 -0.00900
H 	H 	0.71540 0.85150 0.14390 0.01700
C 	C 	0.70640 0.79000 0.24800 -0.30700
H 	H 	0.69760 0.69600 0.23400 0.14900
H 	H 	0.69250 0.86640 0.25510 0.00800
H 	H 	0.71660 0.77510 0.29320 0.04200
C 	C 	0.96850 0.89820 0.35930 -0.19200
H 	H 	0.98130 0.96720 0.34040 0.05900
C 	C 	0.95080 0.82550 0.31320 0.11200
H 	H 	0.95060 0.84730 0.26280 -0.01400
C 	C 	0.93360 0.69500 0.41660 0.25200
H 	H 	0.92200 0.62400 0.43890 -0.03100
C 	C 	0.95140 0.77580 0.45810 -0.32000
H 	H 	0.95120 0.75750 0.50890 0.11200
H 	H 	0.72340 0.47160 0.94190 0.33900
H 	H 	0.62590 0.53160 0.10760 -0.46900
H 	H 	0.67130 0.53560 0.12790 0.01000
H 	H 	0.68330 0.47200 0.91390 0.09700
H 	H 	0.63450 0.48000 0.90000 0.45900
O 	O 	0.72002 0.61210 0.16380 -0.29200
H 	H 	0.73480 0.58890 0.18490 0.23600
C 	C 	0.71510 0.76140 0.17660 0.16200
H 	H 	0.70650 0.80600 0.13300 -0.00000
H 	H 	0.73260 0.81300 0.18520 0.05700
C 	C 	0.69680 0.78400 0.24060 -0.16800
H 	H 	0.69330 0.89070 0.24710 0.15700
H 	H 	0.70550 0.74410 0.28420 0.16600
H 	H 	0.67940 0.73250 0.23240 0.04000
O 	O 	0.59065 0.49910 0.80700 -0.24100
N 	N 	0.53243 0.13040 0.93610 -0.22200
N 	N 	0.59504 0.29570 0.73770 -0.23900
H 	H 	0.59120 0.20020 0.73540 0.14000
C 	C 	0.55460 0.07230 0.91210 0.50900
H 	H 	0.55950 0.97600 0.92870 -0.16200
C 	C 	0.57210 0.14600 0.86180 -0.51400
H 	H 	0.58710 0.09380 0.84150 0.20200
C 	C 	0.56746 0.28440 0.84330 0.03500
C 	C 	0.54750 0.36370 0.88080 -0.81500
H 	H 	0.54560 0.46830 0.87550 0.30300
C 	C 	0.53000 0.27980 0.92780 0.84300
H 	H 	0.51620 0.33060 0.95410 -0.28300
C 	C 	0.58536 0.36850 0.79500 0.20000
C 	C 	0.61087 0.35460 0.67960 0.11300
C 	C 	0.60445 0.30530 0.60970 -0.08700
H 	H 	0.58960 0.23910 0.60260 0.06500
C 	C 	0.61941 0.35170 0.55180 -0.06100
H 	H 	0.61520 0.31610 0.50460 0.06900
C 	C 	0.64080 0.45060 0.56130 0.08000
C 	C 	0.64696 0.50140 0.63090 -0.06300
H 	H 	0.66140 0.57030 0.63800 0.05600
C 	C 	0.63197 0.45110 0.68990 -0.11000
H 	H 	0.63640 0.48390 0.73750 0.07500
C 	C 	0.69908 0.39520 0.53950 -0.06000
H 	H 	0.68960 0.32220 0.56680 0.06200
C 	C 	0.72707 0.39560 0.53950 -0.07700
H 	H 	0.73670 0.32330 0.56700 0.07700
O 	O 	0.78001 0.47810 0.60460 -0.27300
N 	N 	0.77049 0.51100 0.48590 -0.10600
C 	C 	0.78760 0.49420 0.54130 -0.24300
C 	C 	0.86210 0.48000 0.56680 0.09900
C 	C 	0.83590 0.47960 0.58000 -0.01400
C 	C 	0.81770 0.49620 0.52370 0.12300
C 	C 	0.82840 0.51410 0.45520 -0.07600
C 	C 	0.85780 0.51100 0.44770 -0.31700
O 	O 	0.76188 0.02930 0.71050 -0.38700
C 	C 	0.77450 0.16310 0.68980 -0.00000
H 	H 	0.76050 0.24090 0.68190 -0.01100
H 	H 	0.78460 0.14850 0.64390 0.00800
C 	C 	0.79360 0.21000 0.74800 -0.30400
H 	H 	0.80240 0.30400 0.73400 0.14900
H 	H 	0.80750 0.13360 0.75510 -0.00600
H 	H 	0.78340 0.22490 0.79320 0.03600
C 	C 	0.53150 0.10180 0.85930 -0.37600
H 	H 	0.51870 0.03280 0.84040 0.09800
C 	C 	0.54920 0.17450 0.81320 0.28900
H 	H 	0.54940 0.15270 0.76280 -0.08400
C 	C 	0.56640 0.30500 0.91660 0.79100
H 	H 	0.57800 0.37600 0.93890 -0.21900
C 	C 	0.54860 0.22420 0.95810 -0.97200
H 	H 	0.54880 0.24250 0.00890 0.33000
H 	H 	0.77660 0.52840 0.44190 0.41600
H 	H 	0.87410 0.46840 0.60760 -0.48200
H 	H 	0.82870 0.46440 0.62790 0.01500
H 	H 	0.81670 0.52800 0.41390 0.08700
H 	H 	0.86550 0.52000 0.40000 0.54400
O 	O 	0.77998 0.38790 0.66380 -0.31800
H 	H 	0.76520 0.41110 0.68490 0.24300
C 	C 	0.78490 0.23860 0.67660 0.17600
H 	H 	0.79350 0.19400 0.63300 -0.00800
H 	H 	0.76740 0.18700 0.68520 0.05400
C 	C 	0.80320 0.21600 0.74060 -0.17200
H 	H 	0.80670 0.10930 0.74710 0.15600
H 	H 	0.79450 0.25590 0.78420 0.16700
H 	H 	0.82060 0.26750 0.73240 0.03400
O 	O 	0.40935 0.49910 0.80700 -0.24100
N 	N 	0.46757 0.13040 0.93610 -0.22200
N 	N 	0.40496 0.29570 0.73770 -0.23900
H 	H 	0.40880 0.20020 0.73540 0.14000
C 	C 	0.44540 0.07230 0.91210 0.50900
H 	H 	0.44050 0.97600 0.92870 -0.16200
C 	C 	0.42790 0.14600 0.86180 -0.51500
H 	H 	0.41290 0.09380 0.84150 0.20200
C 	C 	0.43254 0.28440 0.84330 0.03500
C 	C 	0.45250 0.36370 0.88080 -0.81500
H 	H 	0.45440 0.46830 0.87550 0.30300
C 	C 	0.47000 0.27980 0.92780 0.84300
H 	H 	0.48380 0.33060 0.95410 -0.28300
C 	C 	0.41464 0.36850 0.79500 0.20000
C 	C 	0.38913 0.35460 0.67960 0.11300
C 	C 	0.39555 0.30530 0.60970 -0.08700
H 	H 	0.41040 0.23910 0.60260 0.06500
C 	C 	0.38059 0.35170 0.55180 -0.06100
H 	H 	0.38480 0.31610 0.50460 0.06900
C 	C 	0.35920 0.45060 0.56130 0.08000
C 	C 	0.35304 0.50140 0.63090 -0.06300
H 	H 	0.33860 0.57030 0.63800 0.05600
C 	C 	0.36803 0.45110 0.68990 -0.11000
H 	H 	0.36360 0.48390 0.73750 0.07500
C 	C 	0.30092 0.39520 0.53950 -0.06000
H 	H 	0.31040 0.32220 0.56680 0.06200
C 	C 	0.27293 0.39560 0.53950 -0.07700
H 	H 	0.26330 0.32330 0.56700 0.07700
O 	O 	0.21999 0.47810 0.60460 -0.27300
N 	N 	0.22951 0.51100 0.48590 -0.10600
C 	C 	0.21240 0.49420 0.54130 -0.24300
C 	C 	0.13790 0.48000 0.56680 0.09900
C 	C 	0.16410 0.47960 0.58000 -0.01400
C 	C 	0.18230 0.49620 0.52370 0.12300
C 	C 	0.17160 0.51410 0.45520 -0.07600
C 	C 	0.14220 0.51100 0.44770 -0.31700
O 	O 	0.23812 0.02930 0.71050 -0.38700
C 	C 	0.22550 0.16310 0.68980 -0.00000
H 	H 	0.23950 0.24090 0.68190 -0.01100
H 	H 	0.21540 0.14850 0.64390 0.00800
C 	C 	0.20640 0.21000 0.74800 -0.30400
H 	H 	0.19760 0.30400 0.73400 0.14900
H 	H 	0.19250 0.13360 0.75510 -0.00600
H 	H 	0.21660 0.22490 0.79320 0.03600
C 	C 	0.46850 0.10180 0.85930 -0.37600
H 	H 	0.48130 0.03280 0.84040 0.09800
C 	C 	0.45080 0.17450 0.81320 0.28900
H 	H 	0.45060 0.15270 0.76280 -0.08400
C 	C 	0.43360 0.30500 0.91660 0.79100
H 	H 	0.42200 0.37600 0.93890 -0.21900
C 	C 	0.45140 0.22420 0.95810 -0.97200
H 	H 	0.45120 0.24250 0.00890 0.33000
H 	H 	0.22340 0.52840 0.44190 0.41600
H 	H 	0.12590 0.46840 0.60760 -0.48300
H 	H 	0.17130 0.46440 0.62790 0.01500
H 	H 	0.18330 0.52800 0.41390 0.08700
H 	H 	0.13450 0.52000 0.40000 0.54400
O 	O 	0.22002 0.38790 0.66380 -0.31800
H 	H 	0.23480 0.41110 0.68490 0.24300
C 	C 	0.21510 0.23860 0.67660 0.17600
H 	H 	0.20650 0.19400 0.63300 -0.00800
H 	H 	0.23260 0.18700 0.68520 0.05400
C 	C 	0.19680 0.21600 0.74060 -0.17200
H 	H 	0.19330 0.10930 0.74710 0.15600
H 	H 	0.20550 0.25590 0.78420 0.16700
H 	H 	0.17940 0.26750 0.73240 0.03400
O 	O 	0.09065 0.50090 0.30700 -0.23900
N 	N 	0.03243 0.86960 0.43610 -0.25000
N 	N 	0.09504 0.70430 0.23770 -0.24200
H 	H 	0.09120 0.79980 0.23540 0.15600
C 	C 	0.05460 0.92770 0.41210 0.34300
H 	H 	0.05950 0.02400 0.42870 -0.14000
C 	C 	0.07210 0.85400 0.36180 -0.30300
H 	H 	0.08710 0.90620 0.34150 0.15100
C 	C 	0.06746 0.71560 0.34330 0.03700
C 	C 	0.04750 0.63630 0.38080 -0.34300
H 	H 	0.04560 0.53170 0.37550 0.14100
C 	C 	0.03000 0.72020 0.42780 0.31700
H 	H 	0.01620 0.66940 0.45410 -0.10500
C 	C 	0.08536 0.63150 0.29500 0.20100
C 	C 	0.11087 0.64540 0.17960 0.11700
C 	C 	0.10445 0.69470 0.10970 -0.08600
H 	H 	0.08960 0.76090 0.10260 0.08500
C 	C 	0.11941 0.64830 0.05180 -0.05200
H 	H 	0.11520 0.68390 0.00460 0.08000
C 	C 	0.14080 0.54940 0.06130 0.08200
C 	C 	0.14696 0.49860 0.13090 -0.06200
H 	H 	0.16140 0.42970 0.13800 0.05500
C 	C 	0.13197 0.54890 0.18990 -0.11700
H 	H 	0.13640 0.51610 0.23750 0.07700
C 	C 	0.19908 0.60480 0.03950 -0.06100
H 	H 	0.18960 0.67780 0.06680 0.07300
C 	C 	0.22707 0.60440 0.03950 -0.07600
H 	H 	0.23670 0.67670 0.06700 0.08800
O 	O 	0.28001 0.52190 0.10460 -0.34000
N 	N 	0.27049 0.48900 0.98590 0.19300
C 	C 	0.28760 0.50580 0.04130 -0.12500
C 	C 	0.36210 0.52000 0.06680 0.09400
C 	C 	0.33590 0.52040 0.08000 0.01300
C 	C 	0.31770 0.50380 0.02370 0.10700
C 	C 	0.32840 0.48590 0.95520 -0.06500
C 	C 	0.35780 0.48900 0.94770 -0.27000
O 	O 	0.26188 0.97070 0.21050 -0.35400
C 	C 	0.27450 0.83690 0.18980 -0.00100
H 	H 	0.26050 0.75910 0.18190 -0.00900
H 	H 	0.28460 0.85150 0.14390 0.01700
C 	C 	0.29360 0.79000 0.24800 -0.30700
H 	H 	0.30240 0.69600 0.23400 0.14900
H 	H 	0.30750 0.86640 0.25510 0.00800
H 	H 	0.28340 0.77510 0.29320 0.04200
C 	C 	0.03150 0.89820 0.35930 -0.19200
H 	H 	0.01870 0.96720 0.34040 0.05800
C 	C 	0.04920 0.82550 0.31320 0.11200
H 	H 	0.04940 0.84730 0.26280 -0.01400
C 	C 	0.06640 0.69500 0.41660 0.25300
H 	H 	0.07800 0.62400 0.43890 -0.03100
C 	C 	0.04860 0.77580 0.45810 -0.32100
H 	H 	0.04880 0.75750 0.50890 0.11100
H 	H 	0.27660 0.47160 0.94190 0.33900
H 	H 	0.37410 0.53160 0.10760 -0.46900
H 	H 	0.32870 0.53560 0.12790 0.01000
H 	H 	0.31670 0.47200 0.91390 0.09700
H 	H 	0.36550 0.48000 0.90000 0.45900
O 	O 	0.27998 0.61210 0.16380 -0.29200
H 	H 	0.26520 0.58890 0.18490 0.23600
C 	C 	0.28490 0.76140 0.17660 0.16200
H 	H 	0.29350 0.80600 0.13300 -0.00000
H 	H 	0.26740 0.81300 0.18520 0.05700
C 	C 	0.30320 0.78400 0.24060 -0.16800
H 	H 	0.30670 0.89070 0.24710 0.15700
H 	H 	0.29450 0.74410 0.28420 0.16600
H 	H 	0.32060 0.73250 0.23240 0.04000
O 	O 	0.09065 0.49910 0.69300 -0.23100
N 	N 	0.03243 0.13040 0.56390 -0.18400
N 	N 	0.09504 0.29570 0.76230 -0.23600
H 	H 	0.09120 0.20020 0.76460 0.13600
C 	C 	0.05460 0.07230 0.58790 1.10700
H 	H 	0.05950 0.97600 0.57130 -0.35400
C 	C 	0.07210 0.14600 0.63820 -1.08400
H 	H 	0.08710 0.09380 0.65850 0.39200
C 	C 	0.06746 0.28440 0.65670 0.09000
C 	C 	0.04750 0.36370 0.61920 -1.77900
H 	H 	0.04560 0.46830 0.62450 0.63600
C 	C 	0.03000 0.27980 0.57220 1.89200
H 	H 	0.01620 0.33060 0.54590 -0.62100
C 	C 	0.08536 0.36850 0.70500 0.18800
C 	C 	0.11087 0.35460 0.82040 0.12200
C 	C 	0.10445 0.30530 0.89030 -0.09800
H 	H 	0.08960 0.23910 0.89740 0.05800
C 	C 	0.11941 0.35170 0.94820 -0.05100
H 	H 	0.11520 0.31610 0.99540 0.05500
C 	C 	0.14080 0.45060 0.93870 0.05700
C 	C 	0.14696 0.50140 0.86910 -0.05100
H 	H 	0.16140 0.57030 0.86200 0.05000
C 	C 	0.13197 0.45110 0.81010 -0.11300
H 	H 	0.13640 0.48390 0.76250 0.07800
C 	C 	0.19908 0.39520 0.96050 -0.07500
H 	H 	0.18960 0.32220 0.93320 0.06300
C 	C 	0.22707 0.39560 0.96050 -0.11100
H 	H 	0.23670 0.32330 0.93300 0.08100
O 	O 	0.28001 0.47810 0.89540 -0.20800
N 	N 	0.27049 0.51100 0.01410 -0.41200
C 	C 	0.28760 0.49420 0.95870 -0.34600
C 	C 	0.36210 0.48000 0.93320 0.10100
C 	C 	0.33590 0.47960 0.92000 -0.06800
C 	C 	0.31770 0.49620 0.97630 0.12900
C 	C 	0.32840 0.51410 0.04480 -0.08300
C 	C 	0.35780 0.51100 0.05230 -0.34100
O 	O 	0.26188 0.02930 0.78950 -0.38800
C 	C 	0.27450 0.16310 0.81020 -0.00100
H 	H 	0.26050 0.24090 0.81810 -0.01100
H 	H 	0.28460 0.14850 0.85610 0.00600
C 	C 	0.29360 0.21000 0.75200 -0.31300
H 	H 	0.30240 0.30400 0.76600 0.15100
H 	H 	0.30750 0.13360 0.74490 -0.00600
H 	H 	0.28340 0.22490 0.70680 0.03700
C 	C 	0.03150 0.10180 0.64070 -0.82400
H 	H 	0.01870 0.03280 0.65960 0.23600
C 	C 	0.04920 0.17450 0.68680 0.70200
H 	H 	0.04940 0.15270 0.73720 -0.22600
C 	C 	0.06640 0.30500 0.58340 1.84500
H 	H 	0.07800 0.37600 0.56110 -0.56500
C 	C 	0.04860 0.22420 0.54190 -2.21100
H 	H 	0.04880 0.24250 0.49110 0.72000
H 	H 	0.27660 0.52840 0.05810 0.48800
H 	H 	0.37410 0.46840 0.89240 -0.36500
H 	H 	0.32870 0.46440 0.87210 0.03200
H 	H 	0.31670 0.52800 0.08610 0.07700
H 	H 	0.36550 0.52000 0.10000 0.59100
O 	O 	0.27998 0.38790 0.83620 -0.34700
H 	H 	0.26520 0.41110 0.81510 0.25000
C 	C 	0.28490 0.23860 0.82340 0.20000
H 	H 	0.29350 0.19400 0.86700 -0.01600
H 	H 	0.26740 0.18700 0.81480 0.04600
C 	C 	0.30320 0.21600 0.75940 -0.17900
H 	H 	0.30670 0.10930 0.75290 0.16300
H 	H 	0.29450 0.25590 0.71580 0.17300
H 	H 	0.32060 0.26750 0.76760 0.03700
O 	O 	0.40935 0.50090 0.19300 -0.23300
N 	N 	0.46757 0.86960 0.06390 -0.21400
N 	N 	0.40496 0.70430 0.26230 -0.23800
H 	H 	0.40880 0.79980 0.26460 0.15200
C 	C 	0.44540 0.92770 0.08790 0.92600
H 	H 	0.44050 0.02400 0.07130 -0.32800
C 	C 	0.42790 0.85400 0.13820 -0.85900
H 	H 	0.41290 0.90620 0.15850 0.33600
C 	C 	0.43254 0.71560 0.15670 0.08900
C 	C 	0.45250 0.63630 0.11920 -1.28500
H 	H 	0.45440 0.53170 0.12450 0.46600
C 	C 	0.47000 0.72020 0.07220 1.34200
H 	H 	0.48380 0.66940 0.04590 -0.43400
C 	C 	0.41464 0.63150 0.20500 0.18800
C 	C 	0.38913 0.64540 0.32040 0.12100
C 	C 	0.39555 0.69470 0.39030 -0.08800
H 	H 	0.41040 0.76090 0.39740 0.07500
C 	C 	0.38059 0.64830 0.44820 -0.05400
H 	H 	0.38480 0.68390 0.49540 0.07200
C 	C 	0.35920 0.54940 0.43870 0.07900
C 	C 	0.35304 0.49860 0.36910 -0.06000
H 	H 	0.33860 0.42970 0.36200 0.05400
C 	C 	0.36803 0.54890 0.31010 -0.11200
H 	H 	0.36360 0.51610 0.26250 0.07700
C 	C 	0.30092 0.60480 0.46050 -0.06100
H 	H 	0.31040 0.67780 0.43320 0.07200
C 	C 	0.27293 0.60440 0.46050 -0.07300
H 	H 	0.26330 0.67670 0.43300 0.08200
O 	O 	0.21999 0.52190 0.39540 -0.27300
N 	N 	0.22951 0.48900 0.51410 -0.10300
C 	C 	0.21240 0.50580 0.45870 -0.24000
C 	C 	0.13790 0.52000 0.43320 0.10300
C 	C 	0.16410 0.52040 0.42000 -0.02200
C 	C 	0.18230 0.50380 0.47630 0.12100
C 	C 	0.17160 0.48590 0.54480 -0.07600
C 	C 	0.14220 0.48900 0.55230 -0.34500
O 	O 	0.23812 0.97070 0.28950 -0.35400
C 	C 	0.22550 0.83690 0.31020 -0.00200
H 	H 	0.23950 0.75910 0.31810 -0.00900
H 	H 	0.21540 0.85150 0.35610 0.01600
C 	C 	0.20640 0.79000 0.25200 -0.31600
H 	H 	0.19760 0.69600 0.26600 0.15100
H 	H 	0.19250 0.86640 0.24490 0.00800
H 	H 	0.21660 0.77510 0.20680 0.04300
C 	C 	0.46850 0.89820 0.14070 -0.63000
H 	H 	0.48130 0.96720 0.15960 0.19400
C 	C 	0.45080 0.82550 0.18680 0.51700
H 	H 	0.45060 0.84730 0.23720 -0.15200
C 	C 	0.43360 0.69500 0.08340 1.28400
H 	H 	0.42200 0.62400 0.06110 -0.37200
C 	C 	0.45140 0.77580 0.04190 -1.53200
H 	H 	0.45120 0.75750 0.99110 0.49200
H 	H 	0.22340 0.47160 0.55810 0.41700
H 	H 	0.12590 0.53160 0.39240 -0.43500
H 	H 	0.17130 0.53560 0.37210 0.02000
H 	H 	0.18330 0.47200 0.58610 0.08400
H 	H 	0.13450 0.48000 0.60000 0.60500
O 	O 	0.22002 0.61210 0.33620 -0.32000
H 	H 	0.23480 0.58890 0.31510 0.24300
C 	C 	0.21510 0.76140 0.32340 0.18500
H 	H 	0.20650 0.80600 0.36700 -0.00600
H 	H 	0.23260 0.81300 0.31480 0.05000
C 	C 	0.19680 0.78400 0.25940 -0.17500
H 	H 	0.19330 0.89070 0.25290 0.16300
H 	H 	0.20550 0.74410 0.21580 0.17200
H 	H 	0.17940 0.73250 0.26760 0.04200
Cd	Cd	0.50000 0.00000 -0.00000 1.15200
Cd	Cd	0.00000 0.00000 0.50000 1.14200
N 	N 	0.65577 0.50000 0.50000 -0.14500
C 	C 	0.68451 0.50000 0.50000 0.08800
C 	C 	0.74135 0.50000 0.50000 0.09700
N 	N 	0.87400 0.50000 0.50000 0.04700
N 	N 	0.84423 0.50000 -0.00000 -0.13500
C 	C 	0.81549 0.50000 -0.00000 0.10900
C 	C 	0.75865 0.50000 -0.00000 0.13100
N 	N 	0.62600 0.50000 -0.00000 0.04500
N 	N 	0.34423 0.50000 0.50000 -0.14500
C 	C 	0.31549 0.50000 0.50000 0.08800
C 	C 	0.25865 0.50000 0.50000 0.09700
N 	N 	0.12600 0.50000 0.50000 0.04700
N 	N 	0.15577 0.50000 -0.00000 -0.13500
C 	C 	0.18451 0.50000 -0.00000 0.10900
C 	C 	0.24135 0.50000 -0.00000 0.13100
N 	N 	0.37400 0.50000 -0.00000 0.04500
H 	H 	0.75000 0.04570 0.75000 0.36400
H 	H 	0.75000 0.95430 0.25000 0.35500
H 	H 	0.25000 0.95430 0.25000 0.35500
H 	H 	0.25000 0.04570 0.75000 0.36400
