data_crystal

_cell_length_a 14.35510
_cell_length_b 14.35510
_cell_length_c 10.11320
_cell_angle_alpha 90.00000
_cell_angle_beta  90.00000
_cell_angle_gamma 120.00000

_symmetry_space_group_name_	'P 1'
_symmetry_space_group_name_H-M	'P 1'

loop_
_symmetry_equiv_pos_as_xyz
  x,y,z

loop_
_atom_site_label
_atom_site_type_symbol
_atom_site_fract_x
_atom_site_fract_y
_atom_site_fract_z
_atom_site_charge
Sm	Sm	0.85662 0.44023 0.90361 1.97800
S 	S 	0.80665 0.66346 0.94150 0.58300
S 	S 	0.99451 0.51923 0.15421 0.68500
O 	O 	0.83140 0.70580 0.80760 -0.22500
O 	O 	0.85400 0.59550 0.97170 -0.52100
O 	O 	0.84830 0.75270 0.03860 -0.03200
O 	O 	0.68900 0.59790 0.95950 -0.49600
O 	O 	0.03080 0.54830 0.01510 -0.30000
O 	O 	0.87678 0.45060 0.14980 -0.31600
O 	O 	0.02840 0.61690 0.23640 -0.36100
O 	O 	0.04740 0.46380 0.21630 -0.39400
O 	O 	0.72230 0.44410 0.74970 -0.52800
Sm	Sm	0.55977 0.41638 0.90361 1.96600
S 	S 	0.33654 0.14319 0.94150 0.58200
S 	S 	0.48077 0.47528 0.15421 0.64000
O 	O 	0.29420 0.12560 0.80760 -0.22400
O 	O 	0.40450 0.25850 0.97170 -0.52300
O 	O 	0.24730 0.09560 0.03860 -0.03100
O 	O 	0.40210 0.09110 0.95950 -0.49300
O 	O 	0.45170 0.48250 0.01510 -0.27900
O 	O 	0.54940 0.42618 0.14980 -0.30800
O 	O 	0.38310 0.41150 0.23640 -0.34300
O 	O 	0.53620 0.58360 0.21630 -0.37700
O 	O 	0.55590 0.27820 0.74970 -0.52800
Sm	Sm	0.58362 0.14338 0.90361 1.97800
S 	S 	0.85681 0.19335 0.94150 0.58700
S 	S 	0.52472 0.00549 0.15421 0.68300
O 	O 	0.87440 0.16860 0.80760 -0.22100
O 	O 	0.74150 0.14600 0.97170 -0.52100
O 	O 	0.90440 0.15170 0.03860 -0.03000
O 	O 	0.90890 0.31100 0.95950 -0.49300
O 	O 	0.51750 0.96920 0.01510 -0.30000
O 	O 	0.57382 0.12322 0.14980 -0.31500
O 	O 	0.58850 0.97160 0.23640 -0.36000
O 	O 	0.41640 0.95260 0.21630 -0.39400
O 	O 	0.72180 0.27770 0.74970 -0.52900
Sm	Sm	0.44023 0.85662 0.40361 2.18300
S 	S 	0.66346 0.80665 0.44150 0.80700
S 	S 	0.51923 0.99451 0.65421 0.59900
O 	O 	0.70580 0.83140 0.30760 -0.22400
O 	O 	0.59550 0.85400 0.47170 -0.51900
O 	O 	0.75270 0.84830 0.53860 -0.22000
O 	O 	0.59790 0.68900 0.45950 -0.48400
O 	O 	0.54830 0.03080 0.51510 -0.37300
O 	O 	0.45060 0.87678 0.64980 -0.42800
O 	O 	0.61690 0.02840 0.73640 -0.35800
O 	O 	0.46380 0.04740 0.71630 -0.38300
O 	O 	0.44410 0.72230 0.24970 -0.55300
Sm	Sm	0.41638 0.55977 0.40361 2.19200
S 	S 	0.14319 0.33654 0.44150 0.80800
S 	S 	0.47528 0.48077 0.65421 0.65100
O 	O 	0.12560 0.29420 0.30760 -0.22500
O 	O 	0.25850 0.40450 0.47170 -0.51700
O 	O 	0.09560 0.24730 0.53860 -0.22100
O 	O 	0.09110 0.40210 0.45950 -0.48700
O 	O 	0.48250 0.45170 0.51510 -0.39500
O 	O 	0.42618 0.54940 0.64980 -0.43600
O 	O 	0.41150 0.38310 0.73640 -0.37800
O 	O 	0.58360 0.53620 0.71630 -0.40100
O 	O 	0.27820 0.55590 0.24970 -0.55300
Sm	Sm	0.14338 0.58362 0.40361 2.18300
S 	S 	0.19335 0.85681 0.44150 0.80800
S 	S 	0.00549 0.52472 0.65421 0.59900
O 	O 	0.16860 0.87440 0.30760 -0.23000
O 	O 	0.14600 0.74150 0.47170 -0.52000
O 	O 	0.15170 0.90440 0.53860 -0.22800
O 	O 	0.31100 0.90890 0.45950 -0.48800
O 	O 	0.96920 0.51750 0.51510 -0.37300
O 	O 	0.12322 0.57382 0.64980 -0.42800
O 	O 	0.97160 0.58850 0.73640 -0.35900
O 	O 	0.95260 0.41640 0.71630 -0.38200
O 	O 	0.27770 0.72180 0.24970 -0.55300
S 	S 	0.66667 0.33333 0.69164 0.67800
O 	O 	0.66667 0.33333 0.54980 -0.21800
O 	O 	0.66667 0.33333 0.99020 -0.66300
S 	S 	0.33333 0.66667 0.19164 0.68100
O 	O 	0.33333 0.66667 0.04980 -0.17500
O 	O 	0.33333 0.66667 0.49020 -0.65700
