data_crystal

_cell_length_a 14.26980
_cell_length_b 14.26980
_cell_length_c 10.06600
_cell_angle_alpha 90.00000
_cell_angle_beta  90.00000
_cell_angle_gamma 120.00000

_symmetry_space_group_name_	'P 1'
_symmetry_space_group_name_H-M	'P 1'

loop_
_symmetry_equiv_pos_as_xyz
  x,y,z

loop_
_atom_site_label
_atom_site_type_symbol
_atom_site_fract_x
_atom_site_fract_y
_atom_site_fract_z
_atom_site_charge
Tb	Tb	0.44103 0.85659 0.21953 1.99700
S 	S 	0.66197 0.80623 0.25639 0.80200
S 	S 	0.51994 0.99534 0.46868 0.61000
O 	O 	0.70390 0.82920 0.12100 -0.21500
O 	O 	0.59330 0.68840 0.27610 -0.46400
O 	O 	0.59650 0.85720 0.28580 -0.48700
O 	O 	0.75260 0.84660 0.35080 -0.20300
O 	O 	0.54680 0.03030 0.32980 -0.35400
O 	O 	0.61870 0.02960 0.55070 -0.32400
O 	O 	0.45180 0.87650 0.46570 -0.37900
O 	O 	0.46500 0.04780 0.53320 -0.36700
O 	O 	0.44500 0.72400 0.06830 -0.53900
Tb	Tb	0.14341 0.58444 0.21953 1.99600
S 	S 	0.19377 0.85574 0.25639 0.80300
S 	S 	0.00466 0.52460 0.46868 0.61000
O 	O 	0.17080 0.87470 0.12100 -0.22200
O 	O 	0.31160 0.90490 0.27610 -0.46800
O 	O 	0.14280 0.73930 0.28580 -0.48900
O 	O 	0.15340 0.90600 0.35080 -0.21200
O 	O 	0.96970 0.51650 0.32980 -0.35500
O 	O 	0.97040 0.58910 0.55070 -0.32500
O 	O 	0.12350 0.57530 0.46570 -0.37900
O 	O 	0.95220 0.41720 0.53320 -0.36700
O 	O 	0.27600 0.72100 0.06830 -0.53900
Tb	Tb	0.41556 0.55897 0.21953 2.00600
S 	S 	0.14426 0.33803 0.25639 0.80200
S 	S 	0.47540 0.48006 0.46868 0.66700
O 	O 	0.12530 0.29610 0.12100 -0.21600
O 	O 	0.09510 0.40670 0.27610 -0.46800
O 	O 	0.26070 0.40350 0.28580 -0.48600
O 	O 	0.09400 0.24740 0.35080 -0.20400
O 	O 	0.48350 0.45320 0.32980 -0.38000
O 	O 	0.41090 0.38130 0.55070 -0.34600
O 	O 	0.42470 0.54820 0.46570 -0.38800
O 	O 	0.58280 0.53500 0.53320 -0.38700
O 	O 	0.27900 0.55500 0.06830 -0.53900
Tb	Tb	0.85659 0.44103 0.71953 2.00300
S 	S 	0.80623 0.66197 0.75639 0.80500
S 	S 	0.99534 0.51994 0.96868 0.56300
O 	O 	0.82920 0.70390 0.62100 -0.23400
O 	O 	0.68840 0.59330 0.77610 -0.47600
O 	O 	0.85720 0.59650 0.78580 -0.49300
O 	O 	0.84660 0.75260 0.85080 -0.22700
O 	O 	0.03030 0.54680 0.82980 -0.39100
O 	O 	0.02960 0.61870 0.05070 -0.29500
O 	O 	0.87650 0.45180 0.96570 -0.38500
O 	O 	0.04780 0.46500 0.03320 -0.33400
O 	O 	0.72400 0.44500 0.56830 -0.53000
Tb	Tb	0.58444 0.14341 0.71953 2.00300
S 	S 	0.85574 0.19377 0.75639 0.80400
S 	S 	0.52460 0.00466 0.96868 0.56200
O 	O 	0.87470 0.17080 0.62100 -0.22900
O 	O 	0.90490 0.31160 0.77610 -0.47200
O 	O 	0.73930 0.14280 0.78580 -0.49200
O 	O 	0.90600 0.15340 0.85080 -0.22100
O 	O 	0.51650 0.96970 0.82980 -0.39100
O 	O 	0.58910 0.97040 0.05070 -0.29300
O 	O 	0.57530 0.12350 0.96570 -0.38400
O 	O 	0.41720 0.95220 0.03320 -0.33500
O 	O 	0.72100 0.27600 0.56830 -0.53000
Tb	Tb	0.55897 0.41556 0.71953 1.99600
S 	S 	0.33803 0.14426 0.75639 0.80500
S 	S 	0.48006 0.47540 0.96868 0.51000
O 	O 	0.29610 0.12530 0.62100 -0.23300
O 	O 	0.40670 0.09510 0.77610 -0.47300
O 	O 	0.40350 0.26070 0.78580 -0.49400
O 	O 	0.24740 0.09400 0.85080 -0.22600
O 	O 	0.45320 0.48350 0.82980 -0.37100
O 	O 	0.38130 0.41090 0.05070 -0.27200
O 	O 	0.54820 0.42470 0.96570 -0.37600
O 	O 	0.53500 0.58280 0.03320 -0.31400
O 	O 	0.55500 0.27900 0.56830 -0.53000
S 	S 	0.33333 0.66667 0.00955 0.78000
O 	O 	0.33333 0.66667 0.86930 -0.30400
O 	O 	0.33333 0.66667 0.30470 -0.58900
S 	S 	0.66667 0.33333 0.50955 0.68800
O 	O 	0.66667 0.33333 0.36930 -0.22200
O 	O 	0.66667 0.33333 0.80470 -0.59400
