data_crystal

_cell_length_a 13.04550
_cell_length_b 13.04550
_cell_length_c 16.68500
_cell_angle_alpha 109.47100
_cell_angle_beta  109.47100
_cell_angle_gamma 93.70560

_symmetry_space_group_name_	'P 1'
_symmetry_space_group_name_H-M	'P 1'

loop_
_symmetry_equiv_pos_as_xyz
  x,y,z

loop_
_atom_site_label
_atom_site_type_symbol
_atom_site_fract_x
_atom_site_fract_y
_atom_site_fract_z
_atom_site_charge
Cd	Cd	0.12249 0.87751 0.75000 1.16000
Cd	Cd	0.87751 0.12249 0.25000 1.15800
C 	C 	0.30405 0.78595 0.66350 0.02700
C 	C 	0.11790 0.71110 0.55400 0.02900
C 	C 	0.34280 0.72620 0.59200 -0.06400
C 	C 	0.15410 0.64990 0.48300 -0.06100
C 	C 	0.27085 0.66015 0.50400 0.08100
C 	C 	0.30750 0.59650 0.42700 -0.04500
C 	C 	0.40715 0.54685 0.46500 -0.14000
C 	C 	0.51465 0.60175 0.49600 0.22600
C 	C 	0.60590 0.55710 0.53150 0.23500
C 	C 	0.15770 0.12830 0.90100 0.05200
C 	C 	0.00025 0.01075 0.88250 0.03300
C 	C 	0.13685 0.22215 0.96250 -0.06600
C 	C 	0.97485 0.10315 0.94600 -0.05800
C 	C 	0.04105 0.20695 0.98500 0.05600
C 	C 	0.01705 0.30395 0.05600 -0.02300
C 	C 	0.00950 0.40350 0.02600 -0.13600
C 	C 	0.09355 0.49945 0.06800 0.24400
C 	C 	0.08280 0.58920 0.04400 0.23800
C 	C 	0.21405 0.69595 0.83650 0.02700
C 	C 	0.28890 0.88210 0.94600 0.02000
C 	C 	0.27380 0.65720 0.90800 -0.05700
C 	C 	0.35010 0.84590 0.01700 -0.04400
C 	C 	0.33985 0.72915 0.99600 0.06700
C 	C 	0.40350 0.69250 0.07300 -0.03600
C 	C 	0.45315 0.59285 0.03500 -0.14200
C 	C 	0.39825 0.48535 0.00400 0.23100
C 	C 	0.44290 0.39410 0.96850 0.23100
C 	C 	0.87170 0.84230 0.59900 0.05400
C 	C 	0.98925 0.99975 0.61750 0.03700
C 	C 	0.77785 0.86315 0.53750 -0.06900
C 	C 	0.89685 0.02515 0.55400 -0.06600
C 	C 	0.79305 0.95895 0.51500 0.06600
C 	C 	0.69605 0.98295 0.44400 -0.03000
C 	C 	0.59650 0.99050 0.47400 -0.14200
C 	C 	0.50055 0.90645 0.43200 0.24200
C 	C 	0.41080 0.91720 0.45600 0.23400
C 	C 	0.69595 0.21405 0.33650 0.02600
C 	C 	0.88210 0.28890 0.44600 0.02900
C 	C 	0.65720 0.27380 0.40800 -0.06400
C 	C 	0.84590 0.35010 0.51700 -0.06200
C 	C 	0.72915 0.33985 0.49600 0.08200
C 	C 	0.69250 0.40350 0.57300 -0.04600
C 	C 	0.59285 0.45315 0.53500 -0.13900
C 	C 	0.48535 0.39825 0.50400 0.22600
C 	C 	0.39410 0.44290 0.46850 0.23500
C 	C 	0.84230 0.87170 0.09900 0.04900
C 	C 	0.99975 0.98925 0.11750 0.02900
C 	C 	0.86315 0.77785 0.03750 -0.04900
C 	C 	0.02515 0.89685 0.05400 -0.04500
C 	C 	0.95895 0.79305 0.01500 0.04800
C 	C 	0.98295 0.69605 0.94400 0.06600
C 	C 	0.99050 0.59650 0.97400 -0.09900
C 	C 	0.90645 0.50055 0.93200 0.24400
C 	C 	0.91720 0.41080 0.95600 0.23400
C 	C 	0.78595 0.30405 0.16350 0.02600
C 	C 	0.71110 0.11790 0.05400 0.02600
C 	C 	0.72620 0.34280 0.09200 -0.06300
C 	C 	0.64990 0.15410 0.98300 -0.05800
C 	C 	0.66015 0.27085 0.00400 0.07900
C 	C 	0.59650 0.30750 0.92700 -0.04500
C 	C 	0.54685 0.40715 0.96500 -0.13800
C 	C 	0.60175 0.51465 0.99600 0.22200
C 	C 	0.55710 0.60590 0.03150 0.23900
C 	C 	0.12830 0.15770 0.40100 0.05400
C 	C 	0.01075 0.00025 0.38250 0.03800
C 	C 	0.22215 0.13685 0.46250 -0.06900
C 	C 	0.10315 0.97485 0.44600 -0.06400
C 	C 	0.20695 0.04105 0.48500 0.06500
C 	C 	0.30395 0.01705 0.55600 -0.03000
C 	C 	0.40350 0.00950 0.52600 -0.14400
C 	C 	0.49945 0.09355 0.56800 0.24200
C 	C 	0.58920 0.08280 0.54400 0.23200
N 	N 	0.19140 0.77440 0.63950 -0.23400
N 	N 	0.09175 0.02825 0.86300 -0.23100
N 	N 	0.22560 0.80860 0.86050 -0.23100
N 	N 	0.97175 0.90825 0.63700 -0.23200
N 	N 	0.80860 0.22560 0.36050 -0.23400
N 	N 	0.90825 0.97175 0.13700 -0.22900
N 	N 	0.77440 0.19140 0.13950 -0.23400
N 	N 	0.02825 0.09175 0.36300 -0.23200
F 	F 	0.53495 0.70475 0.49360 -0.40100
F 	F 	0.70945 0.61685 0.55990 -0.42900
F 	F 	0.18595 0.50415 0.13845 -0.38200
F 	F 	0.16665 0.68025 0.08990 -0.39600
F 	F 	0.29525 0.46505 0.00640 -0.40000
F 	F 	0.38315 0.29055 0.94010 -0.42900
F 	F 	0.49585 0.81405 0.36155 -0.38300
F 	F 	0.31975 0.83335 0.41010 -0.40100
F 	F 	0.46505 0.29525 0.50640 -0.40100
F 	F 	0.29055 0.38315 0.44010 -0.43000
F 	F 	0.81405 0.49585 0.86155 -0.37700
F 	F 	0.83335 0.31975 0.91010 -0.40100
F 	F 	0.70475 0.53495 0.99360 -0.39700
F 	F 	0.61685 0.70945 0.05990 -0.42900
F 	F 	0.50415 0.18595 0.63845 -0.38300
F 	F 	0.68025 0.16665 0.58990 -0.40100
H 	H 	0.36642 0.83904 0.73524 0.00300
H 	H 	0.02555 0.70714 0.53911 0.00100
H 	H 	0.43552 0.73293 0.60763 0.08000
H 	H 	0.09050 0.59510 0.41230 0.06000
H 	H 	0.33180 0.65527 0.39595 0.15000
H 	H 	0.23631 0.52688 0.37171 0.09200
H 	H 	0.40636 0.58566 0.53690 0.07300
H 	H 	0.23336 0.13656 0.88219 0.03200
H 	H 	0.94394 0.92540 0.84996 0.00100
H 	H 	0.19511 0.30600 0.99228 0.12800
H 	H 	0.89930 0.08988 0.96391 0.05400
H 	H 	0.08683 0.32915 0.12609 0.07200
H 	H 	0.93515 0.27634 0.06056 0.05200
H 	H 	0.04852 0.36428 0.97421 0.08600
H 	H 	0.16096 0.63358 0.76476 0.00400
H 	H 	0.29286 0.97445 0.96089 0.00100
H 	H 	0.26707 0.56448 0.89237 0.07800
H 	H 	0.40490 0.90950 0.08770 0.05700
H 	H 	0.34473 0.66820 0.10405 0.14900
H 	H 	0.47312 0.76369 0.12829 0.09000
H 	H 	0.41434 0.59364 0.96310 0.07200
H 	H 	0.86344 0.76664 0.61781 0.03300
H 	H 	0.07460 0.05606 0.65004 -0.00200
H 	H 	0.69400 0.80489 0.50772 0.13100
H 	H 	0.91012 0.10070 0.53609 0.05500
H 	H 	0.67085 0.91317 0.37391 0.07300
H 	H 	0.72366 0.06485 0.43944 0.05500
H 	H 	0.63572 0.95148 0.52579 0.09100
H 	H 	0.63358 0.16096 0.26476 0.00300
H 	H 	0.97445 0.29286 0.46089 0.00000
H 	H 	0.56448 0.26707 0.39237 0.08000
H 	H 	0.90950 0.40490 0.58770 0.06000
H 	H 	0.76664 0.86344 0.11781 0.03400
H 	H 	0.05606 0.07460 0.15004 0.00100
H 	H 	0.80489 0.69400 0.00772 0.13500
H 	H 	0.10070 0.91012 0.03609 0.05600
H 	H 	0.83904 0.36642 0.23524 0.00300
H 	H 	0.70714 0.02555 0.03911 0.00000
H 	H 	0.73293 0.43552 0.10763 0.08100
H 	H 	0.59510 0.09050 0.91230 0.05900
H 	H 	0.52699 0.23622 0.87169 0.09200
H 	H 	0.65524 0.33195 0.89598 0.15000
H 	H 	0.58566 0.40636 0.03690 0.07400
H 	H 	0.13656 0.23336 0.38219 0.03200
H 	H 	0.92540 0.94394 0.34996 -0.00200
H 	H 	0.30600 0.19511 0.49228 0.13100
H 	H 	0.08988 0.89930 0.46391 0.05500
H 	H 	0.27628 0.93519 0.56058 0.05600
H 	H 	0.32923 0.08684 0.62609 0.07300
H 	H 	0.36428 0.04852 0.47421 0.09100
H 	H 	0.76378 0.47301 0.62831 0.09400
H 	H 	0.66805 0.34476 0.60402 0.15000
H 	H 	0.59364 0.41434 0.46310 0.07300
