data_crystal

_cell_length_a 21.91240
_cell_length_b 36.70100
_cell_length_c 38.71020
_cell_angle_alpha 90.00000
_cell_angle_beta  100.59900
_cell_angle_gamma 90.00000

_symmetry_space_group_name_	'P 1'
_symmetry_space_group_name_H-M	'P 1'

loop_
_symmetry_equiv_pos_as_xyz
  x,y,z

loop_
_atom_site_label
_atom_site_type_symbol
_atom_site_fract_x
_atom_site_fract_y
_atom_site_fract_z
_atom_site_charge
Zn	Zn	0.36950 0.03968 0.03160 1.22000
Zn	Zn	0.37437 0.08812 0.11523 0.70200
Zn	Zn	0.84229 0.58617 0.21153 1.22900
N 	N 	0.32980 0.75021 0.16977 -0.19000
N 	N 	0.87630 0.20115 0.05644 -0.18200
N 	N 	0.38630 0.03916 0.98074 -0.30800
N 	N 	0.36770 0.93618 0.76101 -0.32300
O 	O 	0.79180 0.64060 0.23010 -0.38700
O 	O 	0.79680 0.48676 0.02735 -0.33000
O 	O 	0.75540 0.59970 0.19456 -0.50100
O 	O 	0.34120 0.03857 0.18788 -0.53500
O 	O 	0.89760 0.49129 0.04908 -0.45200
O 	O 	0.92336 0.61038 0.21186 -0.46800
O 	O 	0.39030 0.03807 0.14426 -0.60100
O 	O 	0.88700 0.61956 0.15558 -0.54700
O 	O 	0.31038 0.06235 0.08314 -0.57800
O 	O 	0.44746 0.06799 0.04830 -0.53200
O 	O 	0.45986 0.08332 0.10437 -0.57500
O 	O 	0.29644 0.07195 0.02585 -0.48300
C 	C 	0.67820 0.67800 0.21810 0.17200
H 	H 	0.71370 0.68940 0.23020 -0.01400
C 	C 	0.39260 0.06890 0.92680 -0.36400
H 	H 	0.37830 0.08760 0.91110 0.15200
C 	C 	0.58040 0.64910 0.17870 -0.30400
H 	H 	0.54910 0.63960 0.16160 0.13600
C 	C 	0.30540 0.81050 0.18940 -0.20000
H 	H 	0.28300 0.79980 0.20490 0.10400
C 	C 	0.43400 0.02750 0.85664 0.34000
H 	H 	0.41480 0.03830 0.83570 -0.09600
C 	C 	0.46310 0.04970 0.88670 -0.56800
H 	H 	0.45970 0.07520 0.87990 0.19000
H 	H 	0.50690 0.04380 0.89240 0.19900
C 	C 	0.43490 0.04480 0.91970 0.37600
C 	C 	0.43610 0.98820 0.86035 -0.60000
H 	H 	0.41180 0.98110 0.87780 0.20700
H 	H 	0.47870 0.98080 0.86890 0.20800
C 	C 	0.44780 0.96160 0.80320 -0.43200
H 	H 	0.48980 0.96730 0.80900 0.18200
C 	C 	0.34190 0.92740 0.19500 -0.23800
H 	H 	0.33170 0.91610 0.21460 0.11300
C 	C 	0.37400 0.84320 0.14630 0.06600
H 	H 	0.39950 0.85360 0.13230 0.00400
C 	C 	0.45200 0.01810 0.94290 -0.40100
H 	H 	0.48110 0.00090 0.93890 0.17400
C 	C 	0.34630 0.96440 0.19490 0.18300
H 	H 	0.33920 0.97770 0.21420 -0.02300
C 	C 	0.68400 0.64360 0.20435 -0.27800
C 	C 	0.63680 0.63180 0.18390 0.24500
H 	H 	0.64030 0.61030 0.17170 -0.04200
C 	C 	0.92310 0.26064 0.06960 -0.16900
H 	H 	0.95950 0.24970 0.08100 0.09300
C 	C 	0.49520 0.72790 0.20450 0.13100
H 	H 	0.52740 0.73850 0.22030 -0.01900
C 	C 	0.42530 0.94670 0.77120 0.25500
H 	H 	0.45260 0.94380 0.75560 -0.06400
C 	C 	0.39840 0.69830 0.16260 -0.24300
H 	H 	0.36520 0.68770 0.14750 0.11700
C 	C 	0.38940 0.73090 0.17780 0.20200
C 	C 	0.36550 0.80530 0.14560 -0.18800
H 	H 	0.38250 0.79110 0.12980 0.10200
C 	C 	0.34510 0.86550 0.16751 -0.11600
C 	C 	0.37060 0.06524 0.95880 0.20800
H 	H 	0.34310 0.08270 0.96420 -0.05000
C 	C 	0.84790 0.47312 0.04004 0.30500
C 	C 	0.56700 0.67800 0.19583 0.21300
C 	C 	0.03720 0.64312 0.20788 0.11200
H 	H 	0.03330 0.63080 0.22830 0.01600
C 	C 	0.09160 0.66019 0.20605 -0.18800
H 	H 	0.12450 0.65860 0.22500 0.11100
C 	C 	0.62250 0.69630 0.21460 -0.24000
H 	H 	0.62030 0.71950 0.22400 0.11400
C 	C 	0.74690 0.62650 0.20990 0.45200
C 	C 	0.35280 0.95590 0.81660 -0.42800
H 	H 	0.32510 0.95860 0.83190 0.17700
C 	C 	0.43890 0.74570 0.19810 -0.24400
H 	H 	0.43530 0.76850 0.20810 0.11600
C 	C 	0.41150 0.96804 0.82607 0.42900
C 	C 	0.16290 0.72984 0.15489 0.04300
H 	H 	0.12620 0.73980 0.14270 0.01300
C 	C 	0.21470 0.68340 0.19220 0.02900
H 	H 	0.21410 0.66160 0.20440 0.03000
C 	C 	0.33340 0.93960 0.78490 0.26200
H 	H 	0.29320 0.93040 0.78010 -0.07400
C 	C 	0.27100 0.70180 0.19170 -0.15900
H 	H 	0.30720 0.69310 0.20560 0.09000
C 	C 	0.50620 0.69660 0.18967 -0.16800
C 	C 	0.45250 0.68120 0.16840 0.12800
H 	H 	0.45560 0.65840 0.15820 -0.02000
C 	C 	0.35210 0.90550 0.16709 0.16900
C 	C 	0.21720 0.74647 0.15300 -0.16300
H 	H 	0.21740 0.76750 0.13970 0.09000
C 	C 	0.86730 0.31553 0.05112 -0.06500
C 	C 	0.04840 0.68150 0.14912 -0.18400
H 	H 	0.05100 0.69550 0.12940 0.09300
C 	C 	0.80150 0.41103 0.04363 0.04200
H 	H 	0.76280 0.42220 0.04090 0.03000
C 	C 	0.92030 0.29843 0.06740 0.03200
H 	H 	0.95480 0.31220 0.07720 0.01300
C 	C 	0.27420 0.73182 0.17133 0.14300
C 	C 	0.13760 0.11088 0.08512 -0.18100
H 	H 	0.12040 0.11080 0.10540 0.09500
C 	C 	0.99420 0.66289 0.15037 0.11300
H 	H 	0.96190 0.66330 0.13110 -0.01600
C 	C 	0.42720 0.01600 0.97223 0.23600
H 	H 	0.43990 0.99690 0.98760 -0.06100
C 	C 	0.81800 0.29483 0.03686 0.02900
H 	H 	0.78150 0.30610 0.02610 0.01900
C 	C 	0.37080 0.92450 0.13951 -0.23700
H 	H 	0.37980 0.91150 0.12040 0.11500
C 	C 	0.31060 0.84820 0.18860 0.07500
H 	H 	0.28990 0.86210 0.20290 0.00100
C 	C 	0.91620 0.37787 0.05180 -0.13500
H 	H 	0.95540 0.36730 0.05460 0.07300
C 	C 	0.86370 0.35590 0.05009 0.08200
C 	C 	0.97140 0.19324 0.03340 -0.17300
H 	H 	0.96030 0.21280 0.01830 0.09300
C 	C 	0.85270 0.43126 0.04486 -0.10200
C 	C 	0.75490 0.13032 0.04542 0.03500
H 	H 	0.74500 0.10910 0.03260 0.02200
C 	C 	0.82290 0.18181 0.06058 0.14400
C 	C 	0.36120 0.98216 0.16639 -0.26900
C 	C 	0.09930 0.68003 0.17626 0.12400
C 	C 	0.33200 0.78915 0.16820 0.17100
C 	C 	0.80690 0.14980 0.04144 -0.16000
H 	H 	0.83150 0.14160 0.02590 0.09000
C 	C 	0.00490 0.13476 0.07804 0.05000
H 	H 	0.01510 0.11480 0.09280 0.01000
C 	C 	0.15990 0.69880 0.17417 -0.07600
C 	C 	0.63700 0.12079 0.10284 -0.19100
H 	H 	0.66200 0.12900 0.12340 0.09800
C 	C 	0.18360 0.10657 0.02490 0.11200
H 	H 	0.19750 0.10400 0.00370 0.00600
C 	C 	0.73300 0.17341 0.08739 0.03600
H 	H 	0.70860 0.18130 0.10320 0.02000
C 	C 	0.37630 0.96183 0.13978 0.18000
H 	H 	0.39060 0.97340 0.12140 -0.02800
C 	C 	0.62130 0.10785 0.04100 -0.18400
H 	H 	0.63500 0.10810 0.01960 0.10200
C 	C 	0.80620 0.37382 0.04633 -0.13500
H 	H 	0.77040 0.36010 0.04570 0.07800
C 	C 	0.91010 0.41527 0.04927 0.03000
H 	H 	0.94530 0.42970 0.05060 0.02800
C 	C 	0.98760 0.64366 0.18015 -0.18500
C 	C 	0.87400 0.23913 0.05532 0.15200
C 	C 	0.93290 0.18193 0.05560 0.15000
C 	C 	0.82090 0.25646 0.03805 -0.16000
H 	H 	0.78700 0.24280 0.02720 0.08800
C 	C 	0.02690 0.17505 0.03390 0.04900
H 	H 	0.05270 0.18290 0.01890 0.01000
C 	C 	0.78480 0.19356 0.08338 -0.16500
H 	H 	0.79410 0.21500 0.09600 0.09200
C 	C 	0.65800 0.12338 0.07103 0.12400
C 	C 	0.47810 0.07942 0.07566 0.47300
C 	C 	0.19480 0.09468 0.08659 0.09900
H 	H 	0.21710 0.08570 0.10760 -0.00500
C 	C 	0.04580 0.14551 0.05584 -0.09200
C 	C 	0.95100 0.15279 0.07849 -0.17000
H 	H 	0.92580 0.14570 0.09420 0.09200
C 	C 	0.54260 0.09239 0.07465 -0.20700
C 	C 	0.92930 0.62293 0.18250 0.40600
C 	C 	0.10420 0.12715 0.05541 0.13600
C 	C 	0.36510 0.02270 0.16604 0.54700
C 	C 	0.21820 0.09227 0.05525 -0.18300
C 	C 	0.71690 0.14204 0.06850 -0.07700
C 	C 	0.56430 0.09211 0.04338 0.11400
H 	H 	0.54070 0.08130 0.02360 0.00300
C 	C 	0.57980 0.10633 0.10414 0.11600
H 	H 	0.56580 0.10590 0.12540 0.00300
C 	C 	0.27990 0.07463 0.05480 0.40200
C 	C 	0.12900 0.12447 0.02553 -0.19200
H 	H 	0.10800 0.13520 0.00500 0.09700
Zn	Zn	0.38560 0.07550 0.11820 0.76100
Zn	Zn	0.86950 0.53968 0.03160 1.21900
Zn	Zn	0.87437 0.58812 0.11523 0.70100
Zn	Zn	0.34229 0.08617 0.21153 1.22800
N 	N 	0.82980 0.25021 0.16977 -0.19100
N 	N 	0.37630 0.70115 0.05644 -0.18300
N 	N 	0.88630 0.53916 0.98074 -0.30900
N 	N 	0.86770 0.43618 0.76101 -0.32400
O 	O 	0.29180 0.14060 0.23010 -0.38800
O 	O 	0.29680 0.98676 0.02735 -0.33100
O 	O 	0.25540 0.09970 0.19456 -0.50200
O 	O 	0.84120 0.53857 0.18788 -0.53600
O 	O 	0.39760 0.99129 0.04908 -0.45300
O 	O 	0.42336 0.11038 0.21186 -0.46900
O 	O 	0.89030 0.53807 0.14426 -0.60200
O 	O 	0.38700 0.11956 0.15558 -0.54800
O 	O 	0.81038 0.56235 0.08314 -0.57900
O 	O 	0.94746 0.56799 0.04830 -0.53300
O 	O 	0.95986 0.58332 0.10437 -0.57600
O 	O 	0.79644 0.57195 0.02585 -0.48400
C 	C 	0.17820 0.17800 0.21810 0.17100
H 	H 	0.21370 0.18940 0.23020 -0.01500
C 	C 	0.89260 0.56890 0.92680 -0.36500
H 	H 	0.87830 0.58760 0.91110 0.15100
C 	C 	0.08040 0.14910 0.17870 -0.30500
H 	H 	0.04910 0.13960 0.16160 0.13500
C 	C 	0.80540 0.31050 0.18940 -0.20100
H 	H 	0.78300 0.29980 0.20490 0.10300
C 	C 	0.93400 0.52750 0.85664 0.33900
H 	H 	0.91480 0.53830 0.83570 -0.09600
C 	C 	0.96310 0.54970 0.88670 -0.56800
H 	H 	0.95970 0.57520 0.87990 0.19000
H 	H 	0.00690 0.54380 0.89240 0.19900
C 	C 	0.93490 0.54480 0.91970 0.37600
C 	C 	0.93610 0.48820 0.86035 -0.60000
H 	H 	0.91180 0.48110 0.87780 0.20700
H 	H 	0.97870 0.48080 0.86890 0.20800
C 	C 	0.94780 0.46160 0.80320 -0.43200
H 	H 	0.98980 0.46730 0.80900 0.18200
C 	C 	0.84190 0.42740 0.19500 -0.23800
H 	H 	0.83170 0.41610 0.21460 0.11300
C 	C 	0.87400 0.34320 0.14630 0.06600
H 	H 	0.89950 0.35360 0.13230 0.00400
C 	C 	0.95200 0.51810 0.94290 -0.40100
H 	H 	0.98110 0.50090 0.93890 0.17300
C 	C 	0.84630 0.46440 0.19490 0.18300
H 	H 	0.83920 0.47770 0.21420 -0.02300
C 	C 	0.18400 0.14360 0.20435 -0.27800
C 	C 	0.13680 0.13180 0.18390 0.24500
H 	H 	0.14030 0.11030 0.17170 -0.04200
C 	C 	0.42310 0.76064 0.06960 -0.16900
H 	H 	0.45950 0.74970 0.08100 0.09300
C 	C 	0.99520 0.22790 0.20450 0.13100
H 	H 	0.02740 0.23850 0.22030 -0.01900
C 	C 	0.92530 0.44670 0.77120 0.25500
H 	H 	0.95260 0.44380 0.75560 -0.06400
C 	C 	0.89840 0.19830 0.16260 -0.24300
H 	H 	0.86520 0.18770 0.14750 0.11700
C 	C 	0.88940 0.23090 0.17780 0.20200
C 	C 	0.86550 0.30530 0.14560 -0.18800
H 	H 	0.88250 0.29110 0.12980 0.10200
C 	C 	0.84510 0.36550 0.16751 -0.11600
C 	C 	0.87060 0.56524 0.95880 0.20800
H 	H 	0.84310 0.58270 0.96420 -0.05000
C 	C 	0.34790 0.97312 0.04004 0.30500
C 	C 	0.06700 0.17800 0.19583 0.21300
C 	C 	0.53720 0.14312 0.20788 0.11200
H 	H 	0.53330 0.13080 0.22830 0.01600
C 	C 	0.59160 0.16019 0.20605 -0.18800
H 	H 	0.62450 0.15860 0.22500 0.11100
C 	C 	0.12250 0.19630 0.21460 -0.24000
H 	H 	0.12030 0.21950 0.22400 0.11400
C 	C 	0.24690 0.12650 0.20990 0.45200
C 	C 	0.85280 0.45590 0.81660 -0.42800
H 	H 	0.82510 0.45860 0.83190 0.17700
C 	C 	0.93890 0.24570 0.19810 -0.24300
H 	H 	0.93530 0.26850 0.20810 0.11600
C 	C 	0.91150 0.46804 0.82607 0.42900
C 	C 	0.66290 0.22984 0.15489 0.04300
H 	H 	0.62620 0.23980 0.14270 0.01300
C 	C 	0.71470 0.18340 0.19220 0.02900
H 	H 	0.71410 0.16160 0.20440 0.03000
C 	C 	0.83340 0.43960 0.78490 0.26200
H 	H 	0.79320 0.43040 0.78010 -0.07400
C 	C 	0.77100 0.20180 0.19170 -0.15900
H 	H 	0.80720 0.19310 0.20560 0.09000
C 	C 	0.00620 0.19660 0.18967 -0.16800
C 	C 	0.95250 0.18120 0.16840 0.12800
H 	H 	0.95560 0.15840 0.15820 -0.02000
C 	C 	0.85210 0.40550 0.16709 0.16900
C 	C 	0.71720 0.24647 0.15300 -0.16300
H 	H 	0.71740 0.26750 0.13970 0.09000
C 	C 	0.36730 0.81553 0.05112 -0.06500
C 	C 	0.54840 0.18150 0.14912 -0.18400
H 	H 	0.55100 0.19550 0.12940 0.09300
C 	C 	0.30150 0.91103 0.04363 0.04200
H 	H 	0.26280 0.92220 0.04090 0.03000
C 	C 	0.42030 0.79843 0.06740 0.03200
H 	H 	0.45480 0.81220 0.07720 0.01300
C 	C 	0.77420 0.23182 0.17133 0.14300
C 	C 	0.63760 0.61088 0.08512 -0.18100
H 	H 	0.62040 0.61080 0.10540 0.09500
C 	C 	0.49420 0.16289 0.15037 0.11300
H 	H 	0.46190 0.16330 0.13110 -0.01600
C 	C 	0.92720 0.51600 0.97223 0.23600
H 	H 	0.93990 0.49690 0.98760 -0.06100
C 	C 	0.31800 0.79483 0.03686 0.02900
H 	H 	0.28150 0.80610 0.02610 0.01900
C 	C 	0.87080 0.42450 0.13951 -0.23700
H 	H 	0.87980 0.41150 0.12040 0.11500
C 	C 	0.81060 0.34820 0.18860 0.07500
H 	H 	0.78990 0.36210 0.20290 0.00100
C 	C 	0.41620 0.87787 0.05180 -0.13500
H 	H 	0.45540 0.86730 0.05460 0.07300
C 	C 	0.36370 0.85590 0.05009 0.08200
C 	C 	0.47140 0.69324 0.03340 -0.17300
H 	H 	0.46030 0.71280 0.01830 0.09300
C 	C 	0.35270 0.93126 0.04486 -0.10200
C 	C 	0.25490 0.63032 0.04542 0.03500
H 	H 	0.24500 0.60910 0.03260 0.02200
C 	C 	0.32290 0.68181 0.06058 0.14400
C 	C 	0.86120 0.48216 0.16639 -0.26900
C 	C 	0.59930 0.18003 0.17626 0.12500
C 	C 	0.83200 0.28915 0.16820 0.17100
C 	C 	0.30690 0.64980 0.04144 -0.16000
H 	H 	0.33150 0.64160 0.02590 0.09000
C 	C 	0.50490 0.63476 0.07804 0.05000
H 	H 	0.51510 0.61480 0.09280 0.01000
C 	C 	0.65990 0.19880 0.17417 -0.07600
C 	C 	0.13700 0.62079 0.10284 -0.19100
H 	H 	0.16200 0.62900 0.12340 0.09800
C 	C 	0.68360 0.60657 0.02490 0.11200
H 	H 	0.69750 0.60400 0.00370 0.00600
C 	C 	0.23300 0.67341 0.08739 0.03600
H 	H 	0.20860 0.68130 0.10320 0.02000
C 	C 	0.87630 0.46183 0.13978 0.18000
H 	H 	0.89060 0.47340 0.12140 -0.02900
C 	C 	0.12130 0.60785 0.04100 -0.18400
H 	H 	0.13500 0.60810 0.01960 0.10200
C 	C 	0.30620 0.87382 0.04633 -0.13500
H 	H 	0.27040 0.86010 0.04570 0.07800
C 	C 	0.41010 0.91527 0.04927 0.03000
H 	H 	0.44530 0.92970 0.05060 0.02800
C 	C 	0.48760 0.14366 0.18015 -0.18500
C 	C 	0.37400 0.73913 0.05532 0.15200
C 	C 	0.43290 0.68193 0.05560 0.15000
C 	C 	0.32090 0.75646 0.03805 -0.16000
H 	H 	0.28700 0.74280 0.02720 0.08800
C 	C 	0.52690 0.67505 0.03390 0.04900
H 	H 	0.55270 0.68290 0.01890 0.01000
C 	C 	0.28480 0.69356 0.08338 -0.16500
H 	H 	0.29410 0.71500 0.09600 0.09200
C 	C 	0.15800 0.62338 0.07103 0.12400
C 	C 	0.97810 0.57942 0.07566 0.47300
C 	C 	0.69480 0.59468 0.08659 0.09900
H 	H 	0.71710 0.58570 0.10760 -0.00500
C 	C 	0.54580 0.64551 0.05584 -0.09200
C 	C 	0.45100 0.65279 0.07849 -0.17000
H 	H 	0.42580 0.64570 0.09420 0.09200
C 	C 	0.04260 0.59239 0.07465 -0.20700
C 	C 	0.42930 0.12293 0.18250 0.40600
C 	C 	0.60420 0.62715 0.05541 0.13600
C 	C 	0.86510 0.52270 0.16604 0.54800
C 	C 	0.71820 0.59227 0.05525 -0.18300
C 	C 	0.21690 0.64204 0.06850 -0.07700
C 	C 	0.06430 0.59211 0.04338 0.11400
H 	H 	0.04070 0.58130 0.02360 0.00300
C 	C 	0.07980 0.60633 0.10414 0.11600
H 	H 	0.06580 0.60590 0.12540 0.00300
C 	C 	0.77990 0.57463 0.05480 0.40200
C 	C 	0.62900 0.62447 0.02553 -0.19200
H 	H 	0.60800 0.63520 0.00500 0.09700
Zn	Zn	0.88560 0.57550 0.11820 0.76100
Zn	Zn	0.36950 0.96032 0.53160 1.21900
Zn	Zn	0.37437 0.91188 0.61523 0.70100
Zn	Zn	0.84229 0.41383 0.71153 1.22800
N 	N 	0.32980 0.24979 0.66977 -0.19100
N 	N 	0.87630 0.79885 0.55644 -0.18300
N 	N 	0.38630 0.96084 0.48074 -0.30900
N 	N 	0.36770 0.06382 0.26101 -0.32400
O 	O 	0.79180 0.35940 0.73010 -0.38800
O 	O 	0.79680 0.51324 0.52735 -0.33100
O 	O 	0.75540 0.40030 0.69456 -0.50200
O 	O 	0.34120 0.96143 0.68788 -0.53600
O 	O 	0.89760 0.50871 0.54908 -0.45300
O 	O 	0.92336 0.38962 0.71186 -0.46900
O 	O 	0.39030 0.96193 0.64426 -0.60200
O 	O 	0.88700 0.38044 0.65558 -0.54800
O 	O 	0.31038 0.93765 0.58314 -0.57900
O 	O 	0.44746 0.93201 0.54830 -0.53300
O 	O 	0.45986 0.91668 0.60437 -0.57600
O 	O 	0.29644 0.92805 0.52585 -0.48400
C 	C 	0.67820 0.32200 0.71810 0.17100
H 	H 	0.71370 0.31060 0.73020 -0.01500
C 	C 	0.39260 0.93110 0.42680 -0.36500
H 	H 	0.37830 0.91240 0.41110 0.15100
C 	C 	0.58040 0.35090 0.67870 -0.30500
H 	H 	0.54910 0.36040 0.66160 0.13500
C 	C 	0.30540 0.18950 0.68940 -0.20100
H 	H 	0.28300 0.20020 0.70490 0.10300
C 	C 	0.43400 0.97250 0.35664 0.33900
H 	H 	0.41480 0.96170 0.33570 -0.09600
C 	C 	0.46310 0.95030 0.38670 -0.56800
H 	H 	0.45970 0.92480 0.37990 0.19000
H 	H 	0.50690 0.95620 0.39240 0.19900
C 	C 	0.43490 0.95520 0.41970 0.37600
C 	C 	0.43610 0.01180 0.36035 -0.60000
H 	H 	0.41180 0.01890 0.37780 0.20700
H 	H 	0.47870 0.01920 0.36890 0.20800
C 	C 	0.44780 0.03840 0.30320 -0.43200
H 	H 	0.48980 0.03270 0.30900 0.18200
C 	C 	0.34190 0.07260 0.69500 -0.23800
H 	H 	0.33170 0.08390 0.71460 0.11300
C 	C 	0.37400 0.15680 0.64630 0.06600
H 	H 	0.39950 0.14640 0.63230 0.00400
C 	C 	0.45200 0.98190 0.44290 -0.40100
H 	H 	0.48110 0.99910 0.43890 0.17300
C 	C 	0.34630 0.03560 0.69490 0.18300
H 	H 	0.33920 0.02230 0.71420 -0.02300
C 	C 	0.68400 0.35640 0.70435 -0.27800
C 	C 	0.63680 0.36820 0.68390 0.24500
H 	H 	0.64030 0.38970 0.67170 -0.04200
C 	C 	0.92310 0.73936 0.56960 -0.16900
H 	H 	0.95950 0.75030 0.58100 0.09300
C 	C 	0.49520 0.27210 0.70450 0.13100
H 	H 	0.52740 0.26150 0.72030 -0.01900
C 	C 	0.42530 0.05330 0.27120 0.25500
H 	H 	0.45260 0.05620 0.25560 -0.06400
C 	C 	0.39840 0.30170 0.66260 -0.24300
H 	H 	0.36520 0.31230 0.64750 0.11700
C 	C 	0.38940 0.26910 0.67780 0.20200
C 	C 	0.36550 0.19470 0.64560 -0.18800
H 	H 	0.38250 0.20890 0.62980 0.10200
C 	C 	0.34510 0.13450 0.66751 -0.11600
C 	C 	0.37060 0.93476 0.45880 0.20800
H 	H 	0.34310 0.91730 0.46420 -0.05000
C 	C 	0.84790 0.52688 0.54004 0.30500
C 	C 	0.56700 0.32200 0.69583 0.21300
C 	C 	0.03720 0.35688 0.70788 0.11200
H 	H 	0.03330 0.36920 0.72830 0.01600
C 	C 	0.09160 0.33981 0.70605 -0.18800
H 	H 	0.12450 0.34140 0.72500 0.11100
C 	C 	0.62250 0.30370 0.71460 -0.24000
H 	H 	0.62030 0.28050 0.72400 0.11400
C 	C 	0.74690 0.37350 0.70990 0.45200
C 	C 	0.35280 0.04410 0.31660 -0.42800
H 	H 	0.32510 0.04140 0.33190 0.17700
C 	C 	0.43890 0.25430 0.69810 -0.24400
H 	H 	0.43530 0.23150 0.70810 0.11600
C 	C 	0.41150 0.03196 0.32607 0.42900
C 	C 	0.16290 0.27016 0.65489 0.04300
H 	H 	0.12620 0.26020 0.64270 0.01300
C 	C 	0.21470 0.31660 0.69220 0.02900
H 	H 	0.21410 0.33840 0.70440 0.03000
C 	C 	0.33340 0.06040 0.28490 0.26200
H 	H 	0.29320 0.06960 0.28010 -0.07400
C 	C 	0.27100 0.29820 0.69170 -0.15900
H 	H 	0.30720 0.30690 0.70560 0.09000
C 	C 	0.50620 0.30340 0.68967 -0.16800
C 	C 	0.45250 0.31880 0.66840 0.12800
H 	H 	0.45560 0.34160 0.65820 -0.02000
C 	C 	0.35210 0.09450 0.66709 0.16900
C 	C 	0.21720 0.25353 0.65300 -0.16300
H 	H 	0.21740 0.23250 0.63970 0.09000
C 	C 	0.86730 0.68447 0.55112 -0.06500
C 	C 	0.04840 0.31850 0.64912 -0.18400
H 	H 	0.05100 0.30450 0.62940 0.09300
C 	C 	0.80150 0.58897 0.54363 0.04200
H 	H 	0.76280 0.57780 0.54090 0.03000
C 	C 	0.92030 0.70157 0.56740 0.03200
H 	H 	0.95480 0.68780 0.57720 0.01300
C 	C 	0.27420 0.26818 0.67133 0.14300
C 	C 	0.13760 0.88912 0.58512 -0.18100
H 	H 	0.12040 0.88920 0.60540 0.09500
C 	C 	0.99420 0.33711 0.65037 0.11300
H 	H 	0.96190 0.33670 0.63110 -0.01600
C 	C 	0.42720 0.98400 0.47223 0.23600
H 	H 	0.43990 0.00310 0.48760 -0.06100
C 	C 	0.81800 0.70517 0.53686 0.02900
H 	H 	0.78150 0.69390 0.52610 0.01900
C 	C 	0.37080 0.07550 0.63951 -0.23700
H 	H 	0.37980 0.08850 0.62040 0.11500
C 	C 	0.31060 0.15180 0.68860 0.07500
H 	H 	0.28990 0.13790 0.70290 0.00100
C 	C 	0.91620 0.62213 0.55180 -0.13500
H 	H 	0.95540 0.63270 0.55460 0.07300
C 	C 	0.86370 0.64410 0.55009 0.08200
C 	C 	0.97140 0.80676 0.53340 -0.17300
H 	H 	0.96030 0.78720 0.51830 0.09300
C 	C 	0.85270 0.56874 0.54486 -0.10200
C 	C 	0.75490 0.86968 0.54542 0.03500
H 	H 	0.74500 0.89090 0.53260 0.02200
C 	C 	0.82290 0.81819 0.56058 0.14400
C 	C 	0.36120 0.01784 0.66639 -0.26900
C 	C 	0.09930 0.31997 0.67626 0.12500
C 	C 	0.33200 0.21085 0.66820 0.17100
C 	C 	0.80690 0.85020 0.54144 -0.16000
H 	H 	0.83150 0.85840 0.52590 0.09000
C 	C 	0.00490 0.86524 0.57804 0.05000
H 	H 	0.01510 0.88520 0.59280 0.01000
C 	C 	0.15990 0.30120 0.67417 -0.07600
C 	C 	0.63700 0.87921 0.60284 -0.19100
H 	H 	0.66200 0.87100 0.62340 0.09800
C 	C 	0.18360 0.89343 0.52490 0.11200
H 	H 	0.19750 0.89600 0.50370 0.00600
C 	C 	0.73300 0.82659 0.58739 0.03600
H 	H 	0.70860 0.81870 0.60320 0.02000
C 	C 	0.37630 0.03817 0.63978 0.18000
H 	H 	0.39060 0.02660 0.62140 -0.02900
C 	C 	0.62130 0.89215 0.54100 -0.18400
H 	H 	0.63500 0.89190 0.51960 0.10200
C 	C 	0.80620 0.62618 0.54633 -0.13500
H 	H 	0.77040 0.63990 0.54570 0.07800
C 	C 	0.91010 0.58473 0.54927 0.03000
H 	H 	0.94530 0.57030 0.55060 0.02800
C 	C 	0.98760 0.35634 0.68015 -0.18500
C 	C 	0.87400 0.76087 0.55532 0.15200
C 	C 	0.93290 0.81807 0.55560 0.15000
C 	C 	0.82090 0.74354 0.53805 -0.16000
H 	H 	0.78700 0.75720 0.52720 0.08800
C 	C 	0.02690 0.82495 0.53390 0.04900
H 	H 	0.05270 0.81710 0.51890 0.01000
C 	C 	0.78480 0.80644 0.58338 -0.16500
H 	H 	0.79410 0.78500 0.59600 0.09200
C 	C 	0.65800 0.87662 0.57103 0.12400
C 	C 	0.47810 0.92058 0.57566 0.47300
C 	C 	0.19480 0.90532 0.58659 0.09800
H 	H 	0.21710 0.91430 0.60760 -0.00500
C 	C 	0.04580 0.85449 0.55584 -0.09200
C 	C 	0.95100 0.84721 0.57849 -0.17000
H 	H 	0.92580 0.85430 0.59420 0.09200
C 	C 	0.54260 0.90761 0.57465 -0.20700
C 	C 	0.92930 0.37707 0.68250 0.40600
C 	C 	0.10420 0.87285 0.55541 0.13600
C 	C 	0.36510 0.97730 0.66604 0.54800
C 	C 	0.21820 0.90773 0.55525 -0.18300
C 	C 	0.71690 0.85796 0.56850 -0.07700
C 	C 	0.56430 0.90789 0.54338 0.11400
H 	H 	0.54070 0.91870 0.52360 0.00300
C 	C 	0.57980 0.89367 0.60414 0.11600
H 	H 	0.56580 0.89410 0.62540 0.00300
C 	C 	0.27990 0.92537 0.55480 0.40200
C 	C 	0.12900 0.87553 0.52553 -0.19200
H 	H 	0.10800 0.86480 0.50500 0.09700
Zn	Zn	0.38560 0.92450 0.61820 0.76100
Zn	Zn	0.86950 0.46032 0.53160 1.21900
Zn	Zn	0.87437 0.41188 0.61523 0.70100
Zn	Zn	0.34229 0.91383 0.71153 1.22800
N 	N 	0.82980 0.74979 0.66977 -0.19100
N 	N 	0.37630 0.29885 0.55644 -0.18300
N 	N 	0.88630 0.46084 0.48074 -0.30900
N 	N 	0.86770 0.56382 0.26101 -0.32400
O 	O 	0.29180 0.85940 0.73010 -0.38800
O 	O 	0.29680 0.01324 0.52735 -0.33100
O 	O 	0.25540 0.90030 0.69456 -0.50200
O 	O 	0.84120 0.46143 0.68788 -0.53600
O 	O 	0.39760 0.00871 0.54908 -0.45300
O 	O 	0.42336 0.88962 0.71186 -0.46900
O 	O 	0.89030 0.46193 0.64426 -0.60200
O 	O 	0.38700 0.88044 0.65558 -0.54800
O 	O 	0.81038 0.43765 0.58314 -0.57900
O 	O 	0.94746 0.43201 0.54830 -0.53300
O 	O 	0.95986 0.41668 0.60437 -0.57600
O 	O 	0.79644 0.42805 0.52585 -0.48400
C 	C 	0.17820 0.82200 0.71810 0.17100
H 	H 	0.21370 0.81060 0.73020 -0.01500
C 	C 	0.89260 0.43110 0.42680 -0.36500
H 	H 	0.87830 0.41240 0.41110 0.15100
C 	C 	0.08040 0.85090 0.67870 -0.30600
H 	H 	0.04910 0.86040 0.66160 0.13600
C 	C 	0.80540 0.68950 0.68940 -0.20100
H 	H 	0.78300 0.70020 0.70490 0.10300
C 	C 	0.93400 0.47250 0.35664 0.33900
H 	H 	0.91480 0.46170 0.33570 -0.09600
C 	C 	0.96310 0.45030 0.38670 -0.56800
H 	H 	0.95970 0.42480 0.37990 0.19000
H 	H 	0.00690 0.45620 0.39240 0.19900
C 	C 	0.93490 0.45520 0.41970 0.37600
C 	C 	0.93610 0.51180 0.36035 -0.60000
H 	H 	0.91180 0.51890 0.37780 0.20700
H 	H 	0.97870 0.51920 0.36890 0.20800
C 	C 	0.94780 0.53840 0.30320 -0.43200
H 	H 	0.98980 0.53270 0.30900 0.18200
C 	C 	0.84190 0.57260 0.69500 -0.23800
H 	H 	0.83170 0.58390 0.71460 0.11300
C 	C 	0.87400 0.65680 0.64630 0.06600
H 	H 	0.89950 0.64640 0.63230 0.00400
C 	C 	0.95200 0.48190 0.44290 -0.40100
H 	H 	0.98110 0.49910 0.43890 0.17300
C 	C 	0.84630 0.53560 0.69490 0.18300
H 	H 	0.83920 0.52230 0.71420 -0.02300
C 	C 	0.18400 0.85640 0.70435 -0.27800
C 	C 	0.13680 0.86820 0.68390 0.24500
H 	H 	0.14030 0.88970 0.67170 -0.04200
C 	C 	0.42310 0.23936 0.56960 -0.16900
H 	H 	0.45950 0.25030 0.58100 0.09300
C 	C 	0.99520 0.77210 0.70450 0.13100
H 	H 	0.02740 0.76150 0.72030 -0.01900
C 	C 	0.92530 0.55330 0.27120 0.25500
H 	H 	0.95260 0.55620 0.25560 -0.06400
C 	C 	0.89840 0.80170 0.66260 -0.24400
H 	H 	0.86520 0.81230 0.64750 0.11700
C 	C 	0.88940 0.76910 0.67780 0.20200
C 	C 	0.86550 0.69470 0.64560 -0.18800
H 	H 	0.88250 0.70890 0.62980 0.10200
C 	C 	0.84510 0.63450 0.66751 -0.11600
C 	C 	0.87060 0.43476 0.45880 0.20800
H 	H 	0.84310 0.41730 0.46420 -0.05000
C 	C 	0.34790 0.02688 0.54004 0.30500
C 	C 	0.06700 0.82200 0.69583 0.21300
C 	C 	0.53720 0.85688 0.70788 0.11200
H 	H 	0.53330 0.86920 0.72830 0.01600
C 	C 	0.59160 0.83981 0.70605 -0.18800
H 	H 	0.62450 0.84140 0.72500 0.11100
C 	C 	0.12250 0.80370 0.71460 -0.24000
H 	H 	0.12030 0.78050 0.72400 0.11400
C 	C 	0.24690 0.87350 0.70990 0.45200
C 	C 	0.85280 0.54410 0.31660 -0.42800
H 	H 	0.82510 0.54140 0.33190 0.17700
C 	C 	0.93890 0.75430 0.69810 -0.24400
H 	H 	0.93530 0.73150 0.70810 0.11600
C 	C 	0.91150 0.53196 0.32607 0.42900
C 	C 	0.66290 0.77016 0.65489 0.04300
H 	H 	0.62620 0.76020 0.64270 0.01300
C 	C 	0.71470 0.81660 0.69220 0.02900
H 	H 	0.71410 0.83840 0.70440 0.03000
C 	C 	0.83340 0.56040 0.28490 0.26200
H 	H 	0.79320 0.56960 0.28010 -0.07400
C 	C 	0.77100 0.79820 0.69170 -0.15900
H 	H 	0.80720 0.80690 0.70560 0.09000
C 	C 	0.00620 0.80340 0.68967 -0.16800
C 	C 	0.95250 0.81880 0.66840 0.12800
H 	H 	0.95560 0.84160 0.65820 -0.02000
C 	C 	0.85210 0.59450 0.66709 0.16900
C 	C 	0.71720 0.75353 0.65300 -0.16300
H 	H 	0.71740 0.73250 0.63970 0.09000
C 	C 	0.36730 0.18447 0.55112 -0.06500
C 	C 	0.54840 0.81850 0.64912 -0.18400
H 	H 	0.55100 0.80450 0.62940 0.09300
C 	C 	0.30150 0.08897 0.54363 0.04200
H 	H 	0.26280 0.07780 0.54090 0.03000
C 	C 	0.42030 0.20157 0.56740 0.03200
H 	H 	0.45480 0.18780 0.57720 0.01300
C 	C 	0.77420 0.76818 0.67133 0.14300
C 	C 	0.63760 0.38912 0.58512 -0.18100
H 	H 	0.62040 0.38920 0.60540 0.09500
C 	C 	0.49420 0.83711 0.65037 0.11300
H 	H 	0.46190 0.83670 0.63110 -0.01600
C 	C 	0.92720 0.48400 0.47223 0.23600
H 	H 	0.93990 0.50310 0.48760 -0.06100
C 	C 	0.31800 0.20517 0.53686 0.02900
H 	H 	0.28150 0.19390 0.52610 0.01900
C 	C 	0.87080 0.57550 0.63951 -0.23700
H 	H 	0.87980 0.58850 0.62040 0.11500
C 	C 	0.81060 0.65180 0.68860 0.07500
H 	H 	0.78990 0.63790 0.70290 0.00100
C 	C 	0.41620 0.12213 0.55180 -0.13500
H 	H 	0.45540 0.13270 0.55460 0.07300
C 	C 	0.36370 0.14410 0.55009 0.08200
C 	C 	0.47140 0.30676 0.53340 -0.17300
H 	H 	0.46030 0.28720 0.51830 0.09300
C 	C 	0.35270 0.06874 0.54486 -0.10200
C 	C 	0.25490 0.36968 0.54542 0.03500
H 	H 	0.24500 0.39090 0.53260 0.02200
C 	C 	0.32290 0.31819 0.56058 0.14400
C 	C 	0.86120 0.51784 0.66639 -0.26900
C 	C 	0.59930 0.81997 0.67626 0.12500
C 	C 	0.83200 0.71085 0.66820 0.17100
C 	C 	0.30690 0.35020 0.54144 -0.16000
H 	H 	0.33150 0.35840 0.52590 0.09000
C 	C 	0.50490 0.36524 0.57804 0.05000
H 	H 	0.51510 0.38520 0.59280 0.01000
C 	C 	0.65990 0.80120 0.67417 -0.07600
C 	C 	0.13700 0.37921 0.60284 -0.19100
H 	H 	0.16200 0.37100 0.62340 0.09800
C 	C 	0.68360 0.39343 0.52490 0.11200
H 	H 	0.69750 0.39600 0.50370 0.00600
C 	C 	0.23300 0.32659 0.58739 0.03600
H 	H 	0.20860 0.31870 0.60320 0.02000
C 	C 	0.87630 0.53817 0.63978 0.18000
H 	H 	0.89060 0.52660 0.62140 -0.02900
C 	C 	0.12130 0.39215 0.54100 -0.18400
H 	H 	0.13500 0.39190 0.51960 0.10200
C 	C 	0.30620 0.12618 0.54633 -0.13500
H 	H 	0.27040 0.13990 0.54570 0.07800
C 	C 	0.41010 0.08473 0.54927 0.03000
H 	H 	0.44530 0.07030 0.55060 0.02800
C 	C 	0.48760 0.85634 0.68015 -0.18500
C 	C 	0.37400 0.26087 0.55532 0.15200
C 	C 	0.43290 0.31807 0.55560 0.15000
C 	C 	0.32090 0.24354 0.53805 -0.16000
H 	H 	0.28700 0.25720 0.52720 0.08800
C 	C 	0.52690 0.32495 0.53390 0.04900
H 	H 	0.55270 0.31710 0.51890 0.01000
C 	C 	0.28480 0.30644 0.58338 -0.16500
H 	H 	0.29410 0.28500 0.59600 0.09200
C 	C 	0.15800 0.37662 0.57103 0.12400
C 	C 	0.97810 0.42058 0.57566 0.47300
C 	C 	0.69480 0.40532 0.58659 0.09800
H 	H 	0.71710 0.41430 0.60760 -0.00500
C 	C 	0.54580 0.35449 0.55584 -0.09200
C 	C 	0.45100 0.34721 0.57849 -0.17000
H 	H 	0.42580 0.35430 0.59420 0.09200
C 	C 	0.04260 0.40761 0.57465 -0.20700
C 	C 	0.42930 0.87707 0.68250 0.40600
C 	C 	0.60420 0.37285 0.55541 0.13600
C 	C 	0.86510 0.47730 0.66604 0.54800
C 	C 	0.71820 0.40773 0.55525 -0.18300
C 	C 	0.21690 0.35796 0.56850 -0.07700
C 	C 	0.06430 0.40789 0.54338 0.11400
H 	H 	0.04070 0.41870 0.52360 0.00300
C 	C 	0.07980 0.39367 0.60414 0.11600
H 	H 	0.06580 0.39410 0.62540 0.00300
C 	C 	0.77990 0.42537 0.55480 0.40200
C 	C 	0.62900 0.37553 0.52553 -0.19200
H 	H 	0.60800 0.36480 0.50500 0.09700
Zn	Zn	0.88560 0.42450 0.61820 0.76100
Zn	Zn	0.63050 0.03968 0.46840 1.21900
Zn	Zn	0.62563 0.08812 0.38477 0.70100
Zn	Zn	0.15771 0.58617 0.28847 1.22800
N 	N 	0.67020 0.75021 0.33023 -0.19100
N 	N 	0.12370 0.20115 0.44356 -0.18300
N 	N 	0.61370 0.03916 0.51926 -0.30900
N 	N 	0.63230 0.93618 0.73899 -0.32400
O 	O 	0.20820 0.64060 0.26990 -0.38800
O 	O 	0.20320 0.48676 0.47265 -0.33100
O 	O 	0.24460 0.59970 0.30544 -0.50200
O 	O 	0.65880 0.03857 0.31212 -0.53600
O 	O 	0.10240 0.49129 0.45092 -0.45300
O 	O 	0.07664 0.61038 0.28814 -0.46900
O 	O 	0.60970 0.03807 0.35574 -0.60200
O 	O 	0.11300 0.61956 0.34442 -0.54800
O 	O 	0.68962 0.06235 0.41686 -0.57900
O 	O 	0.55254 0.06799 0.45170 -0.53300
O 	O 	0.54014 0.08332 0.39563 -0.57600
O 	O 	0.70356 0.07195 0.47415 -0.48400
C 	C 	0.32180 0.67800 0.28190 0.17100
H 	H 	0.28630 0.68940 0.26980 -0.01500
C 	C 	0.60740 0.06890 0.57320 -0.36500
H 	H 	0.62170 0.08760 0.58890 0.15100
C 	C 	0.41960 0.64910 0.32130 -0.30500
H 	H 	0.45090 0.63960 0.33840 0.13500
C 	C 	0.69460 0.81050 0.31060 -0.20100
H 	H 	0.71700 0.79980 0.29510 0.10300
C 	C 	0.56600 0.02750 0.64336 0.33900
H 	H 	0.58520 0.03830 0.66430 -0.09600
C 	C 	0.53690 0.04970 0.61330 -0.56800
H 	H 	0.54030 0.07520 0.62010 0.19000
H 	H 	0.49310 0.04380 0.60760 0.19900
C 	C 	0.56510 0.04480 0.58030 0.37600
C 	C 	0.56390 0.98820 0.63965 -0.60000
H 	H 	0.58820 0.98110 0.62220 0.20700
H 	H 	0.52130 0.98080 0.63110 0.20800
C 	C 	0.55220 0.96160 0.69680 -0.43200
H 	H 	0.51020 0.96730 0.69100 0.18200
C 	C 	0.65810 0.92740 0.30500 -0.23800
H 	H 	0.66830 0.91610 0.28540 0.11300
C 	C 	0.62600 0.84320 0.35370 0.06600
H 	H 	0.60050 0.85360 0.36770 0.00400
C 	C 	0.54800 0.01810 0.55710 -0.40100
H 	H 	0.51890 0.00090 0.56110 0.17300
C 	C 	0.65370 0.96440 0.30510 0.18300
H 	H 	0.66080 0.97770 0.28580 -0.02300
C 	C 	0.31600 0.64360 0.29565 -0.27800
C 	C 	0.36320 0.63180 0.31610 0.24500
H 	H 	0.35970 0.61030 0.32830 -0.04200
C 	C 	0.07690 0.26064 0.43040 -0.16900
H 	H 	0.04050 0.24970 0.41900 0.09300
C 	C 	0.50480 0.72790 0.29550 0.13100
H 	H 	0.47260 0.73850 0.27970 -0.01900
C 	C 	0.57470 0.94670 0.72880 0.25500
H 	H 	0.54740 0.94380 0.74440 -0.06400
C 	C 	0.60160 0.69830 0.33740 -0.24300
H 	H 	0.63480 0.68770 0.35250 0.11700
C 	C 	0.61060 0.73090 0.32220 0.20200
C 	C 	0.63450 0.80530 0.35440 -0.18800
H 	H 	0.61750 0.79110 0.37020 0.10200
C 	C 	0.65490 0.86550 0.33249 -0.11600
C 	C 	0.62940 0.06524 0.54120 0.20800
H 	H 	0.65690 0.08270 0.53580 -0.05000
C 	C 	0.15210 0.47312 0.45996 0.30500
C 	C 	0.43300 0.67800 0.30417 0.21300
C 	C 	0.96280 0.64312 0.29212 0.11200
H 	H 	0.96670 0.63080 0.27170 0.01600
C 	C 	0.90840 0.66019 0.29395 -0.18800
H 	H 	0.87550 0.65860 0.27500 0.11100
C 	C 	0.37750 0.69630 0.28540 -0.24000
H 	H 	0.37970 0.71950 0.27600 0.11400
C 	C 	0.25310 0.62650 0.29010 0.45200
C 	C 	0.64720 0.95590 0.68340 -0.42800
H 	H 	0.67490 0.95860 0.66810 0.17700
C 	C 	0.56110 0.74570 0.30190 -0.24400
H 	H 	0.56470 0.76850 0.29190 0.11600
C 	C 	0.58850 0.96804 0.67393 0.42900
C 	C 	0.83710 0.72984 0.34511 0.04300
H 	H 	0.87380 0.73980 0.35730 0.01300
C 	C 	0.78530 0.68340 0.30780 0.02900
H 	H 	0.78590 0.66160 0.29560 0.03000
C 	C 	0.66660 0.93960 0.71510 0.26200
H 	H 	0.70680 0.93040 0.71990 -0.07400
C 	C 	0.72900 0.70180 0.30830 -0.15900
H 	H 	0.69280 0.69310 0.29440 0.09000
C 	C 	0.49380 0.69660 0.31033 -0.16800
C 	C 	0.54750 0.68120 0.33160 0.12800
H 	H 	0.54440 0.65840 0.34180 -0.02000
C 	C 	0.64790 0.90550 0.33291 0.16900
C 	C 	0.78280 0.74647 0.34700 -0.16300
H 	H 	0.78260 0.76750 0.36030 0.09000
C 	C 	0.13270 0.31553 0.44888 -0.06500
C 	C 	0.95160 0.68150 0.35088 -0.18400
H 	H 	0.94900 0.69550 0.37060 0.09300
C 	C 	0.19850 0.41103 0.45637 0.04200
H 	H 	0.23720 0.42220 0.45910 0.03000
C 	C 	0.07970 0.29843 0.43260 0.03200
H 	H 	0.04520 0.31220 0.42280 0.01300
C 	C 	0.72580 0.73182 0.32867 0.14300
C 	C 	0.86240 0.11088 0.41488 -0.18100
H 	H 	0.87960 0.11080 0.39460 0.09500
C 	C 	0.00580 0.66289 0.34963 0.11300
H 	H 	0.03810 0.66330 0.36890 -0.01600
C 	C 	0.57280 0.01600 0.52777 0.23600
H 	H 	0.56010 0.99690 0.51240 -0.06100
C 	C 	0.18200 0.29483 0.46314 0.02900
H 	H 	0.21850 0.30610 0.47390 0.01900
C 	C 	0.62920 0.92450 0.36049 -0.23700
H 	H 	0.62020 0.91150 0.37960 0.11500
C 	C 	0.68940 0.84820 0.31140 0.07500
H 	H 	0.71010 0.86210 0.29710 0.00100
C 	C 	0.08380 0.37787 0.44820 -0.13500
H 	H 	0.04460 0.36730 0.44540 0.07300
C 	C 	0.13630 0.35590 0.44991 0.08200
C 	C 	0.02860 0.19324 0.46660 -0.17300
H 	H 	0.03970 0.21280 0.48170 0.09300
C 	C 	0.14730 0.43126 0.45514 -0.10200
C 	C 	0.24510 0.13032 0.45458 0.03500
H 	H 	0.25500 0.10910 0.46740 0.02200
C 	C 	0.17710 0.18181 0.43942 0.14400
C 	C 	0.63880 0.98216 0.33361 -0.26900
C 	C 	0.90070 0.68003 0.32374 0.12500
C 	C 	0.66800 0.78915 0.33180 0.17100
C 	C 	0.19310 0.14980 0.45856 -0.16000
H 	H 	0.16850 0.14160 0.47410 0.09000
C 	C 	0.99510 0.13476 0.42196 0.05000
H 	H 	0.98490 0.11480 0.40720 0.01000
C 	C 	0.84010 0.69880 0.32583 -0.07600
C 	C 	0.36300 0.12079 0.39716 -0.19100
H 	H 	0.33800 0.12900 0.37660 0.09800
C 	C 	0.81640 0.10657 0.47510 0.11200
H 	H 	0.80250 0.10400 0.49630 0.00600
C 	C 	0.26700 0.17341 0.41261 0.03600
H 	H 	0.29140 0.18130 0.39680 0.02000
C 	C 	0.62370 0.96183 0.36022 0.18000
H 	H 	0.60940 0.97340 0.37860 -0.02900
C 	C 	0.37870 0.10785 0.45900 -0.18400
H 	H 	0.36500 0.10810 0.48040 0.10200
C 	C 	0.19380 0.37382 0.45367 -0.13500
H 	H 	0.22960 0.36010 0.45430 0.07800
C 	C 	0.08990 0.41527 0.45073 0.03000
H 	H 	0.05470 0.42970 0.44940 0.02800
C 	C 	0.01240 0.64366 0.31985 -0.18500
C 	C 	0.12600 0.23913 0.44468 0.15200
C 	C 	0.06710 0.18193 0.44440 0.15000
C 	C 	0.17910 0.25646 0.46195 -0.16000
H 	H 	0.21300 0.24280 0.47280 0.08800
C 	C 	0.97310 0.17505 0.46610 0.04900
H 	H 	0.94730 0.18290 0.48110 0.01000
C 	C 	0.21520 0.19356 0.41662 -0.16500
H 	H 	0.20590 0.21500 0.40400 0.09200
C 	C 	0.34200 0.12338 0.42897 0.12400
C 	C 	0.52190 0.07942 0.42434 0.47300
C 	C 	0.80520 0.09468 0.41341 0.09800
H 	H 	0.78290 0.08570 0.39240 -0.00500
C 	C 	0.95420 0.14551 0.44416 -0.09200
C 	C 	0.04900 0.15279 0.42151 -0.17000
H 	H 	0.07420 0.14570 0.40580 0.09200
C 	C 	0.45740 0.09239 0.42535 -0.20700
C 	C 	0.07070 0.62293 0.31750 0.40600
C 	C 	0.89580 0.12715 0.44459 0.13600
C 	C 	0.63490 0.02270 0.33396 0.54800
C 	C 	0.78180 0.09227 0.44475 -0.18300
C 	C 	0.28310 0.14204 0.43150 -0.07700
C 	C 	0.43570 0.09211 0.45662 0.11400
H 	H 	0.45930 0.08130 0.47640 0.00300
C 	C 	0.42020 0.10633 0.39586 0.11600
H 	H 	0.43420 0.10590 0.37460 0.00300
C 	C 	0.72010 0.07463 0.44520 0.40200
C 	C 	0.87100 0.12447 0.47447 -0.19200
H 	H 	0.89200 0.13520 0.49500 0.09700
Zn	Zn	0.61440 0.07550 0.38180 0.76100
Zn	Zn	0.13050 0.53968 0.46840 1.21900
Zn	Zn	0.12563 0.58812 0.38477 0.70100
Zn	Zn	0.65771 0.08617 0.28847 1.22800
N 	N 	0.17020 0.25021 0.33023 -0.19100
N 	N 	0.62370 0.70115 0.44356 -0.18300
N 	N 	0.11370 0.53916 0.51926 -0.30900
N 	N 	0.13230 0.43618 0.73899 -0.32400
O 	O 	0.70820 0.14060 0.26990 -0.38800
O 	O 	0.70320 0.98676 0.47265 -0.33100
O 	O 	0.74460 0.09970 0.30544 -0.50200
O 	O 	0.15880 0.53857 0.31212 -0.53600
O 	O 	0.60240 0.99129 0.45092 -0.45300
O 	O 	0.57664 0.11038 0.28814 -0.46900
O 	O 	0.10970 0.53807 0.35574 -0.60200
O 	O 	0.61300 0.11956 0.34442 -0.54800
O 	O 	0.18962 0.56235 0.41686 -0.57900
O 	O 	0.05254 0.56799 0.45170 -0.53300
O 	O 	0.04014 0.58332 0.39563 -0.57600
O 	O 	0.20356 0.57195 0.47415 -0.48400
C 	C 	0.82180 0.17800 0.28190 0.17100
H 	H 	0.78630 0.18940 0.26980 -0.01500
C 	C 	0.10740 0.56890 0.57320 -0.36500
H 	H 	0.12170 0.58760 0.58890 0.15100
C 	C 	0.91960 0.14910 0.32130 -0.30600
H 	H 	0.95090 0.13960 0.33840 0.13600
C 	C 	0.19460 0.31050 0.31060 -0.20100
H 	H 	0.21700 0.29980 0.29510 0.10300
C 	C 	0.06600 0.52750 0.64336 0.33900
H 	H 	0.08520 0.53830 0.66430 -0.09600
C 	C 	0.03690 0.54970 0.61330 -0.56800
H 	H 	0.04030 0.57520 0.62010 0.19000
H 	H 	0.99310 0.54380 0.60760 0.19900
C 	C 	0.06510 0.54480 0.58030 0.37600
C 	C 	0.06390 0.48820 0.63965 -0.60000
H 	H 	0.08820 0.48110 0.62220 0.20700
H 	H 	0.02130 0.48080 0.63110 0.20800
C 	C 	0.05220 0.46160 0.69680 -0.43200
H 	H 	0.01020 0.46730 0.69100 0.18200
C 	C 	0.15810 0.42740 0.30500 -0.23800
H 	H 	0.16830 0.41610 0.28540 0.11300
C 	C 	0.12600 0.34320 0.35370 0.06600
H 	H 	0.10050 0.35360 0.36770 0.00400
C 	C 	0.04800 0.51810 0.55710 -0.40100
H 	H 	0.01890 0.50090 0.56110 0.17300
C 	C 	0.15370 0.46440 0.30510 0.18300
H 	H 	0.16080 0.47770 0.28580 -0.02300
C 	C 	0.81600 0.14360 0.29565 -0.27800
C 	C 	0.86320 0.13180 0.31610 0.24500
H 	H 	0.85970 0.11030 0.32830 -0.04200
C 	C 	0.57690 0.76064 0.43040 -0.16900
H 	H 	0.54050 0.74970 0.41900 0.09300
C 	C 	0.00480 0.22790 0.29550 0.13100
H 	H 	0.97260 0.23850 0.27970 -0.01900
C 	C 	0.07470 0.44670 0.72880 0.25500
H 	H 	0.04740 0.44380 0.74440 -0.06400
C 	C 	0.10160 0.19830 0.33740 -0.24400
H 	H 	0.13480 0.18770 0.35250 0.11700
C 	C 	0.11060 0.23090 0.32220 0.20200
C 	C 	0.13450 0.30530 0.35440 -0.18800
H 	H 	0.11750 0.29110 0.37020 0.10200
C 	C 	0.15490 0.36550 0.33249 -0.11600
C 	C 	0.12940 0.56524 0.54120 0.20800
H 	H 	0.15690 0.58270 0.53580 -0.05000
C 	C 	0.65210 0.97312 0.45996 0.30500
C 	C 	0.93300 0.17800 0.30417 0.21300
C 	C 	0.46280 0.14312 0.29212 0.11200
H 	H 	0.46670 0.13080 0.27170 0.01600
C 	C 	0.40840 0.16019 0.29395 -0.18800
H 	H 	0.37550 0.15860 0.27500 0.11100
C 	C 	0.87750 0.19630 0.28540 -0.24000
H 	H 	0.87970 0.21950 0.27600 0.11400
C 	C 	0.75310 0.12650 0.29010 0.45200
C 	C 	0.14720 0.45590 0.68340 -0.42800
H 	H 	0.17490 0.45860 0.66810 0.17700
C 	C 	0.06110 0.24570 0.30190 -0.24400
H 	H 	0.06470 0.26850 0.29190 0.11600
C 	C 	0.08850 0.46804 0.67393 0.42900
C 	C 	0.33710 0.22984 0.34511 0.04300
H 	H 	0.37380 0.23980 0.35730 0.01300
C 	C 	0.28530 0.18340 0.30780 0.02900
H 	H 	0.28590 0.16160 0.29560 0.03000
C 	C 	0.16660 0.43960 0.71510 0.26200
H 	H 	0.20680 0.43040 0.71990 -0.07400
C 	C 	0.22900 0.20180 0.30830 -0.15900
H 	H 	0.19280 0.19310 0.29440 0.09000
C 	C 	0.99380 0.19660 0.31033 -0.16800
C 	C 	0.04750 0.18120 0.33160 0.12800
H 	H 	0.04440 0.15840 0.34180 -0.02000
C 	C 	0.14790 0.40550 0.33291 0.16900
C 	C 	0.28280 0.24647 0.34700 -0.16300
H 	H 	0.28260 0.26750 0.36030 0.09000
C 	C 	0.63270 0.81553 0.44888 -0.06500
C 	C 	0.45160 0.18150 0.35088 -0.18400
H 	H 	0.44900 0.19550 0.37060 0.09300
C 	C 	0.69850 0.91103 0.45637 0.04200
H 	H 	0.73720 0.92220 0.45910 0.03000
C 	C 	0.57970 0.79843 0.43260 0.03200
H 	H 	0.54520 0.81220 0.42280 0.01300
C 	C 	0.22580 0.23182 0.32867 0.14300
C 	C 	0.36240 0.61088 0.41488 -0.18100
H 	H 	0.37960 0.61080 0.39460 0.09500
C 	C 	0.50580 0.16289 0.34963 0.11300
H 	H 	0.53810 0.16330 0.36890 -0.01600
C 	C 	0.07280 0.51600 0.52777 0.23600
H 	H 	0.06010 0.49690 0.51240 -0.06100
C 	C 	0.68200 0.79483 0.46314 0.02900
H 	H 	0.71850 0.80610 0.47390 0.01900
C 	C 	0.12920 0.42450 0.36049 -0.23700
H 	H 	0.12020 0.41150 0.37960 0.11500
C 	C 	0.18940 0.34820 0.31140 0.07500
H 	H 	0.21010 0.36210 0.29710 0.00100
C 	C 	0.58380 0.87787 0.44820 -0.13500
H 	H 	0.54460 0.86730 0.44540 0.07300
C 	C 	0.63630 0.85590 0.44991 0.08200
C 	C 	0.52860 0.69324 0.46660 -0.17300
H 	H 	0.53970 0.71280 0.48170 0.09300
C 	C 	0.64730 0.93126 0.45514 -0.10200
C 	C 	0.74510 0.63032 0.45458 0.03500
H 	H 	0.75500 0.60910 0.46740 0.02200
C 	C 	0.67710 0.68181 0.43942 0.14400
C 	C 	0.13880 0.48216 0.33361 -0.26900
C 	C 	0.40070 0.18003 0.32374 0.12500
C 	C 	0.16800 0.28915 0.33180 0.17100
C 	C 	0.69310 0.64980 0.45856 -0.16000
H 	H 	0.66850 0.64160 0.47410 0.09000
C 	C 	0.49510 0.63476 0.42196 0.05000
H 	H 	0.48490 0.61480 0.40720 0.01000
C 	C 	0.34010 0.19880 0.32583 -0.07600
C 	C 	0.86300 0.62079 0.39716 -0.19100
H 	H 	0.83800 0.62900 0.37660 0.09800
C 	C 	0.31640 0.60657 0.47510 0.11200
H 	H 	0.30250 0.60400 0.49630 0.00600
C 	C 	0.76700 0.67341 0.41261 0.03600
H 	H 	0.79140 0.68130 0.39680 0.02000
C 	C 	0.12370 0.46183 0.36022 0.18000
H 	H 	0.10940 0.47340 0.37860 -0.02900
C 	C 	0.87870 0.60785 0.45900 -0.18400
H 	H 	0.86500 0.60810 0.48040 0.10200
C 	C 	0.69380 0.87382 0.45367 -0.13500
H 	H 	0.72960 0.86010 0.45430 0.07800
C 	C 	0.58990 0.91527 0.45073 0.03000
H 	H 	0.55470 0.92970 0.44940 0.02800
C 	C 	0.51240 0.14366 0.31985 -0.18500
C 	C 	0.62600 0.73913 0.44468 0.15200
C 	C 	0.56710 0.68193 0.44440 0.15000
C 	C 	0.67910 0.75646 0.46195 -0.16000
H 	H 	0.71300 0.74280 0.47280 0.08800
C 	C 	0.47310 0.67505 0.46610 0.04900
H 	H 	0.44730 0.68290 0.48110 0.01000
C 	C 	0.71520 0.69356 0.41662 -0.16500
H 	H 	0.70590 0.71500 0.40400 0.09200
C 	C 	0.84200 0.62338 0.42897 0.12400
C 	C 	0.02190 0.57942 0.42434 0.47300
C 	C 	0.30520 0.59468 0.41341 0.09800
H 	H 	0.28290 0.58570 0.39240 -0.00500
C 	C 	0.45420 0.64551 0.44416 -0.09200
C 	C 	0.54900 0.65279 0.42151 -0.17000
H 	H 	0.57420 0.64570 0.40580 0.09200
C 	C 	0.95740 0.59239 0.42535 -0.20700
C 	C 	0.57070 0.12293 0.31750 0.40600
C 	C 	0.39580 0.62715 0.44459 0.13600
C 	C 	0.13490 0.52270 0.33396 0.54800
C 	C 	0.28180 0.59227 0.44475 -0.18300
C 	C 	0.78310 0.64204 0.43150 -0.07700
C 	C 	0.93570 0.59211 0.45662 0.11400
H 	H 	0.95930 0.58130 0.47640 0.00300
C 	C 	0.92020 0.60633 0.39586 0.11600
H 	H 	0.93420 0.60590 0.37460 0.00300
C 	C 	0.22010 0.57463 0.44520 0.40200
C 	C 	0.37100 0.62447 0.47447 -0.19200
H 	H 	0.39200 0.63520 0.49500 0.09700
Zn	Zn	0.11440 0.57550 0.38180 0.76100
Zn	Zn	0.63050 0.96032 0.96840 1.21900
Zn	Zn	0.62563 0.91188 0.88477 0.70100
Zn	Zn	0.15771 0.41383 0.78847 1.22800
N 	N 	0.67020 0.24979 0.83023 -0.19100
N 	N 	0.12370 0.79885 0.94356 -0.18300
N 	N 	0.61370 0.96084 0.01926 -0.30900
N 	N 	0.63230 0.06382 0.23899 -0.32400
O 	O 	0.20820 0.35940 0.76990 -0.38800
O 	O 	0.20320 0.51324 0.97265 -0.33100
O 	O 	0.24460 0.40030 0.80544 -0.50200
O 	O 	0.65880 0.96143 0.81212 -0.53600
O 	O 	0.10240 0.50871 0.95092 -0.45300
O 	O 	0.07664 0.38962 0.78814 -0.46900
O 	O 	0.60970 0.96193 0.85574 -0.60200
O 	O 	0.11300 0.38044 0.84442 -0.54800
O 	O 	0.68962 0.93765 0.91686 -0.57900
O 	O 	0.55254 0.93201 0.95170 -0.53300
O 	O 	0.54014 0.91668 0.89563 -0.57600
O 	O 	0.70356 0.92805 0.97415 -0.48400
C 	C 	0.32180 0.32200 0.78190 0.17100
H 	H 	0.28630 0.31060 0.76980 -0.01500
C 	C 	0.60740 0.93110 0.07320 -0.36500
H 	H 	0.62170 0.91240 0.08890 0.15100
C 	C 	0.41960 0.35090 0.82130 -0.30500
H 	H 	0.45090 0.36040 0.83840 0.13500
C 	C 	0.69460 0.18950 0.81060 -0.20100
H 	H 	0.71700 0.20020 0.79510 0.10300
C 	C 	0.56600 0.97250 0.14336 0.33900
H 	H 	0.58520 0.96170 0.16430 -0.09600
C 	C 	0.53690 0.95030 0.11330 -0.56800
H 	H 	0.54030 0.92480 0.12010 0.19000
H 	H 	0.49310 0.95620 0.10760 0.19900
C 	C 	0.56510 0.95520 0.08030 0.37600
C 	C 	0.56390 0.01180 0.13965 -0.60000
H 	H 	0.58820 0.01890 0.12220 0.20700
H 	H 	0.52130 0.01920 0.13110 0.20800
C 	C 	0.55220 0.03840 0.19680 -0.43200
H 	H 	0.51020 0.03270 0.19100 0.18200
C 	C 	0.65810 0.07260 0.80500 -0.23800
H 	H 	0.66830 0.08390 0.78540 0.11300
C 	C 	0.62600 0.15680 0.85370 0.06600
H 	H 	0.60050 0.14640 0.86770 0.00400
C 	C 	0.54800 0.98190 0.05710 -0.40100
H 	H 	0.51890 0.99910 0.06110 0.17400
C 	C 	0.65370 0.03560 0.80510 0.18300
H 	H 	0.66080 0.02230 0.78580 -0.02300
C 	C 	0.31600 0.35640 0.79565 -0.27800
C 	C 	0.36320 0.36820 0.81610 0.24500
H 	H 	0.35970 0.38970 0.82830 -0.04200
C 	C 	0.07690 0.73936 0.93040 -0.16900
H 	H 	0.04050 0.75030 0.91900 0.09300
C 	C 	0.50480 0.27210 0.79550 0.13100
H 	H 	0.47260 0.26150 0.77970 -0.01900
C 	C 	0.57470 0.05330 0.22880 0.25500
H 	H 	0.54740 0.05620 0.24440 -0.06400
C 	C 	0.60160 0.30170 0.83740 -0.24300
H 	H 	0.63480 0.31230 0.85250 0.11700
C 	C 	0.61060 0.26910 0.82220 0.20200
C 	C 	0.63450 0.19470 0.85440 -0.18800
H 	H 	0.61750 0.20890 0.87020 0.10200
C 	C 	0.65490 0.13450 0.83249 -0.11600
C 	C 	0.62940 0.93476 0.04120 0.20800
H 	H 	0.65690 0.91730 0.03580 -0.05000
C 	C 	0.15210 0.52688 0.95996 0.30500
C 	C 	0.43300 0.32200 0.80417 0.21300
C 	C 	0.96280 0.35688 0.79212 0.11200
H 	H 	0.96670 0.36920 0.77170 0.01600
C 	C 	0.90840 0.33981 0.79395 -0.18800
H 	H 	0.87550 0.34140 0.77500 0.11100
C 	C 	0.37750 0.30370 0.78540 -0.24000
H 	H 	0.37970 0.28050 0.77600 0.11400
C 	C 	0.25310 0.37350 0.79010 0.45200
C 	C 	0.64720 0.04410 0.18340 -0.42800
H 	H 	0.67490 0.04140 0.16810 0.17700
C 	C 	0.56110 0.25430 0.80190 -0.24400
H 	H 	0.56470 0.23150 0.79190 0.11600
C 	C 	0.58850 0.03196 0.17393 0.42900
C 	C 	0.83710 0.27016 0.84511 0.04300
H 	H 	0.87380 0.26020 0.85730 0.01300
C 	C 	0.78530 0.31660 0.80780 0.02900
H 	H 	0.78590 0.33840 0.79560 0.03000
C 	C 	0.66660 0.06040 0.21510 0.26200
H 	H 	0.70680 0.06960 0.21990 -0.07400
C 	C 	0.72900 0.29820 0.80830 -0.15900
H 	H 	0.69280 0.30690 0.79440 0.09000
C 	C 	0.49380 0.30340 0.81033 -0.16800
C 	C 	0.54750 0.31880 0.83160 0.12800
H 	H 	0.54440 0.34160 0.84180 -0.02000
C 	C 	0.64790 0.09450 0.83291 0.16900
C 	C 	0.78280 0.25353 0.84700 -0.16300
H 	H 	0.78260 0.23250 0.86030 0.09000
C 	C 	0.13270 0.68447 0.94888 -0.06500
C 	C 	0.95160 0.31850 0.85088 -0.18400
H 	H 	0.94900 0.30450 0.87060 0.09300
C 	C 	0.19850 0.58897 0.95637 0.04200
H 	H 	0.23720 0.57780 0.95910 0.03000
C 	C 	0.07970 0.70157 0.93260 0.03200
H 	H 	0.04520 0.68780 0.92280 0.01300
C 	C 	0.72580 0.26818 0.82867 0.14300
C 	C 	0.86240 0.88912 0.91488 -0.18100
H 	H 	0.87960 0.88920 0.89460 0.09500
C 	C 	0.00580 0.33711 0.84963 0.11300
H 	H 	0.03810 0.33670 0.86890 -0.01600
C 	C 	0.57280 0.98400 0.02777 0.23600
H 	H 	0.56010 0.00310 0.01240 -0.06100
C 	C 	0.18200 0.70517 0.96314 0.02900
H 	H 	0.21850 0.69390 0.97390 0.01900
C 	C 	0.62920 0.07550 0.86049 -0.23700
H 	H 	0.62020 0.08850 0.87960 0.11500
C 	C 	0.68940 0.15180 0.81140 0.07500
H 	H 	0.71010 0.13790 0.79710 0.00100
C 	C 	0.08380 0.62213 0.94820 -0.13500
H 	H 	0.04460 0.63270 0.94540 0.07300
C 	C 	0.13630 0.64410 0.94991 0.08200
C 	C 	0.02860 0.80676 0.96660 -0.17300
H 	H 	0.03970 0.78720 0.98170 0.09300
C 	C 	0.14730 0.56874 0.95514 -0.10200
C 	C 	0.24510 0.86968 0.95458 0.03500
H 	H 	0.25500 0.89090 0.96740 0.02200
C 	C 	0.17710 0.81819 0.93942 0.14400
C 	C 	0.63880 0.01784 0.83361 -0.26900
C 	C 	0.90070 0.31997 0.82374 0.12400
C 	C 	0.66800 0.21085 0.83180 0.17100
C 	C 	0.19310 0.85020 0.95856 -0.16000
H 	H 	0.16850 0.85840 0.97410 0.09000
C 	C 	0.99510 0.86524 0.92196 0.05000
H 	H 	0.98490 0.88520 0.90720 0.01000
C 	C 	0.84010 0.30120 0.82583 -0.07600
C 	C 	0.36300 0.87921 0.89716 -0.19100
H 	H 	0.33800 0.87100 0.87660 0.09800
C 	C 	0.81640 0.89343 0.97510 0.11200
H 	H 	0.80250 0.89600 0.99630 0.00600
C 	C 	0.26700 0.82659 0.91261 0.03600
H 	H 	0.29140 0.81870 0.89680 0.02000
C 	C 	0.62370 0.03817 0.86022 0.18000
H 	H 	0.60940 0.02660 0.87860 -0.02800
C 	C 	0.37870 0.89215 0.95900 -0.18400
H 	H 	0.36500 0.89190 0.98040 0.10200
C 	C 	0.19380 0.62618 0.95367 -0.13500
H 	H 	0.22960 0.63990 0.95430 0.07800
C 	C 	0.08990 0.58473 0.95073 0.03000
H 	H 	0.05470 0.57030 0.94940 0.02800
C 	C 	0.01240 0.35634 0.81985 -0.18500
C 	C 	0.12600 0.76087 0.94468 0.15200
C 	C 	0.06710 0.81807 0.94440 0.15000
C 	C 	0.17910 0.74354 0.96195 -0.16000
H 	H 	0.21300 0.75720 0.97280 0.08800
C 	C 	0.97310 0.82495 0.96610 0.04900
H 	H 	0.94730 0.81710 0.98110 0.01000
C 	C 	0.21520 0.80644 0.91662 -0.16500
H 	H 	0.20590 0.78500 0.90400 0.09200
C 	C 	0.34200 0.87662 0.92897 0.12400
C 	C 	0.52190 0.92058 0.92434 0.47300
C 	C 	0.80520 0.90532 0.91341 0.09900
H 	H 	0.78290 0.91430 0.89240 -0.00500
C 	C 	0.95420 0.85449 0.94416 -0.09200
C 	C 	0.04900 0.84721 0.92151 -0.17000
H 	H 	0.07420 0.85430 0.90580 0.09200
C 	C 	0.45740 0.90761 0.92535 -0.20700
C 	C 	0.07070 0.37707 0.81750 0.40600
C 	C 	0.89580 0.87285 0.94459 0.13600
C 	C 	0.63490 0.97730 0.83396 0.54700
C 	C 	0.78180 0.90773 0.94475 -0.18300
C 	C 	0.28310 0.85796 0.93150 -0.07700
C 	C 	0.43570 0.90789 0.95662 0.11400
H 	H 	0.45930 0.91870 0.97640 0.00300
C 	C 	0.42020 0.89367 0.89586 0.11600
H 	H 	0.43420 0.89410 0.87460 0.00300
C 	C 	0.72010 0.92537 0.94520 0.40200
C 	C 	0.87100 0.87553 0.97447 -0.19200
H 	H 	0.89200 0.86480 0.99500 0.09700
Zn	Zn	0.61440 0.92450 0.88180 0.76100
Zn	Zn	0.13050 0.46032 0.96840 1.21900
Zn	Zn	0.12563 0.41188 0.88477 0.70100
Zn	Zn	0.65771 0.91383 0.78847 1.22800
N 	N 	0.17020 0.74979 0.83023 -0.19100
N 	N 	0.62370 0.29885 0.94356 -0.18300
N 	N 	0.11370 0.46084 0.01926 -0.30900
N 	N 	0.13230 0.56382 0.23899 -0.32400
O 	O 	0.70820 0.85940 0.76990 -0.38800
O 	O 	0.70320 0.01324 0.97265 -0.33100
O 	O 	0.74460 0.90030 0.80544 -0.50200
O 	O 	0.15880 0.46143 0.81212 -0.53600
O 	O 	0.60240 0.00871 0.95092 -0.45300
O 	O 	0.57664 0.88962 0.78814 -0.46900
O 	O 	0.10970 0.46193 0.85574 -0.60200
O 	O 	0.61300 0.88044 0.84442 -0.54800
O 	O 	0.18962 0.43765 0.91686 -0.57900
O 	O 	0.05254 0.43201 0.95170 -0.53300
O 	O 	0.04014 0.41668 0.89563 -0.57600
O 	O 	0.20356 0.42805 0.97415 -0.48400
C 	C 	0.82180 0.82200 0.78190 0.17100
H 	H 	0.78630 0.81060 0.76980 -0.01500
C 	C 	0.10740 0.43110 0.07320 -0.36500
H 	H 	0.12170 0.41240 0.08890 0.15100
C 	C 	0.91960 0.85090 0.82130 -0.30500
H 	H 	0.95090 0.86040 0.83840 0.13500
C 	C 	0.19460 0.68950 0.81060 -0.20100
H 	H 	0.21700 0.70020 0.79510 0.10300
C 	C 	0.06600 0.47250 0.14336 0.33900
H 	H 	0.08520 0.46170 0.16430 -0.09600
C 	C 	0.03690 0.45030 0.11330 -0.56800
H 	H 	0.04030 0.42480 0.12010 0.19000
H 	H 	0.99310 0.45620 0.10760 0.19900
C 	C 	0.06510 0.45520 0.08030 0.37600
C 	C 	0.06390 0.51180 0.13965 -0.60000
H 	H 	0.08820 0.51890 0.12220 0.20700
H 	H 	0.02130 0.51920 0.13110 0.20800
C 	C 	0.05220 0.53840 0.19680 -0.43200
H 	H 	0.01020 0.53270 0.19100 0.18200
C 	C 	0.15810 0.57260 0.80500 -0.23800
H 	H 	0.16830 0.58390 0.78540 0.11300
C 	C 	0.12600 0.65680 0.85370 0.06600
H 	H 	0.10050 0.64640 0.86770 0.00400
C 	C 	0.04800 0.48190 0.05710 -0.40100
H 	H 	0.01890 0.49910 0.06110 0.17300
C 	C 	0.15370 0.53560 0.80510 0.18300
H 	H 	0.16080 0.52230 0.78580 -0.02300
C 	C 	0.81600 0.85640 0.79565 -0.27800
C 	C 	0.86320 0.86820 0.81610 0.24500
H 	H 	0.85970 0.88970 0.82830 -0.04200
C 	C 	0.57690 0.23936 0.93040 -0.16900
H 	H 	0.54050 0.25030 0.91900 0.09300
C 	C 	0.00480 0.77210 0.79550 0.13100
H 	H 	0.97260 0.76150 0.77970 -0.01900
C 	C 	0.07470 0.55330 0.22880 0.25500
H 	H 	0.04740 0.55620 0.24440 -0.06400
C 	C 	0.10160 0.80170 0.83740 -0.24300
H 	H 	0.13480 0.81230 0.85250 0.11700
C 	C 	0.11060 0.76910 0.82220 0.20200
C 	C 	0.13450 0.69470 0.85440 -0.18800
H 	H 	0.11750 0.70890 0.87020 0.10200
C 	C 	0.15490 0.63450 0.83249 -0.11600
C 	C 	0.12940 0.43476 0.04120 0.20800
H 	H 	0.15690 0.41730 0.03580 -0.05000
C 	C 	0.65210 0.02688 0.95996 0.30500
C 	C 	0.93300 0.82200 0.80417 0.21300
C 	C 	0.46280 0.85688 0.79212 0.11200
H 	H 	0.46670 0.86920 0.77170 0.01600
C 	C 	0.40840 0.83981 0.79395 -0.18800
H 	H 	0.37550 0.84140 0.77500 0.11100
C 	C 	0.87750 0.80370 0.78540 -0.24000
H 	H 	0.87970 0.78050 0.77600 0.11400
C 	C 	0.75310 0.87350 0.79010 0.45200
C 	C 	0.14720 0.54410 0.18340 -0.42800
H 	H 	0.17490 0.54140 0.16810 0.17700
C 	C 	0.06110 0.75430 0.80190 -0.24300
H 	H 	0.06470 0.73150 0.79190 0.11600
C 	C 	0.08850 0.53196 0.17393 0.42900
C 	C 	0.33710 0.77016 0.84511 0.04300
H 	H 	0.37380 0.76020 0.85730 0.01300
C 	C 	0.28530 0.81660 0.80780 0.02900
H 	H 	0.28590 0.83840 0.79560 0.03000
C 	C 	0.16660 0.56040 0.21510 0.26200
H 	H 	0.20680 0.56960 0.21990 -0.07400
C 	C 	0.22900 0.79820 0.80830 -0.15900
H 	H 	0.19280 0.80690 0.79440 0.09000
C 	C 	0.99380 0.80340 0.81033 -0.16800
C 	C 	0.04750 0.81880 0.83160 0.12800
H 	H 	0.04440 0.84160 0.84180 -0.02000
C 	C 	0.14790 0.59450 0.83291 0.16900
C 	C 	0.28280 0.75353 0.84700 -0.16300
H 	H 	0.28260 0.73250 0.86030 0.09000
C 	C 	0.63270 0.18447 0.94888 -0.06500
C 	C 	0.45160 0.81850 0.85088 -0.18400
H 	H 	0.44900 0.80450 0.87060 0.09300
C 	C 	0.69850 0.08897 0.95637 0.04200
H 	H 	0.73720 0.07780 0.95910 0.03000
C 	C 	0.57970 0.20157 0.93260 0.03200
H 	H 	0.54520 0.18780 0.92280 0.01300
C 	C 	0.22580 0.76818 0.82867 0.14300
C 	C 	0.36240 0.38912 0.91488 -0.18100
H 	H 	0.37960 0.38920 0.89460 0.09500
C 	C 	0.50580 0.83711 0.84963 0.11300
H 	H 	0.53810 0.83670 0.86890 -0.01600
C 	C 	0.07280 0.48400 0.02777 0.23600
H 	H 	0.06010 0.50310 0.01240 -0.06100
C 	C 	0.68200 0.20517 0.96314 0.02900
H 	H 	0.71850 0.19390 0.97390 0.01900
C 	C 	0.12920 0.57550 0.86049 -0.23700
H 	H 	0.12020 0.58850 0.87960 0.11500
C 	C 	0.18940 0.65180 0.81140 0.07500
H 	H 	0.21010 0.63790 0.79710 0.00100
C 	C 	0.58380 0.12213 0.94820 -0.13500
H 	H 	0.54460 0.13270 0.94540 0.07300
C 	C 	0.63630 0.14410 0.94991 0.08200
C 	C 	0.52860 0.30676 0.96660 -0.17300
H 	H 	0.53970 0.28720 0.98170 0.09300
C 	C 	0.64730 0.06874 0.95514 -0.10200
C 	C 	0.74510 0.36968 0.95458 0.03500
H 	H 	0.75500 0.39090 0.96740 0.02200
C 	C 	0.67710 0.31819 0.93942 0.14400
C 	C 	0.13880 0.51784 0.83361 -0.26900
C 	C 	0.40070 0.81997 0.82374 0.12500
C 	C 	0.16800 0.71085 0.83180 0.17100
C 	C 	0.69310 0.35020 0.95856 -0.16000
H 	H 	0.66850 0.35840 0.97410 0.09000
C 	C 	0.49510 0.36524 0.92196 0.05000
H 	H 	0.48490 0.38520 0.90720 0.01000
C 	C 	0.34010 0.80120 0.82583 -0.07600
C 	C 	0.86300 0.37921 0.89716 -0.19100
H 	H 	0.83800 0.37100 0.87660 0.09800
C 	C 	0.31640 0.39343 0.97510 0.11200
H 	H 	0.30250 0.39600 0.99630 0.00600
C 	C 	0.76700 0.32659 0.91261 0.03600
H 	H 	0.79140 0.31870 0.89680 0.02000
C 	C 	0.12370 0.53817 0.86022 0.18000
H 	H 	0.10940 0.52660 0.87860 -0.02900
C 	C 	0.87870 0.39215 0.95900 -0.18400
H 	H 	0.86500 0.39190 0.98040 0.10200
C 	C 	0.69380 0.12618 0.95367 -0.13500
H 	H 	0.72960 0.13990 0.95430 0.07800
C 	C 	0.58990 0.08473 0.95073 0.03000
H 	H 	0.55470 0.07030 0.94940 0.02800
C 	C 	0.51240 0.85634 0.81985 -0.18500
C 	C 	0.62600 0.26087 0.94468 0.15200
C 	C 	0.56710 0.31807 0.94440 0.15000
C 	C 	0.67910 0.24354 0.96195 -0.16000
H 	H 	0.71300 0.25720 0.97280 0.08800
C 	C 	0.47310 0.32495 0.96610 0.04900
H 	H 	0.44730 0.31710 0.98110 0.01000
C 	C 	0.71520 0.30644 0.91662 -0.16500
H 	H 	0.70590 0.28500 0.90400 0.09200
C 	C 	0.84200 0.37662 0.92897 0.12400
C 	C 	0.02190 0.42058 0.92434 0.47300
C 	C 	0.30520 0.40532 0.91341 0.09900
H 	H 	0.28290 0.41430 0.89240 -0.00500
C 	C 	0.45420 0.35449 0.94416 -0.09200
C 	C 	0.54900 0.34721 0.92151 -0.17000
H 	H 	0.57420 0.35430 0.90580 0.09200
C 	C 	0.95740 0.40761 0.92535 -0.20700
C 	C 	0.57070 0.87707 0.81750 0.40600
C 	C 	0.39580 0.37285 0.94459 0.13600
C 	C 	0.13490 0.47730 0.83396 0.54800
C 	C 	0.28180 0.40773 0.94475 -0.18300
C 	C 	0.78310 0.35796 0.93150 -0.07700
C 	C 	0.93570 0.40789 0.95662 0.11400
H 	H 	0.95930 0.41870 0.97640 0.00300
C 	C 	0.92020 0.39367 0.89586 0.11600
H 	H 	0.93420 0.39410 0.87460 0.00300
C 	C 	0.22010 0.42537 0.94520 0.40200
C 	C 	0.37100 0.37553 0.97447 -0.19200
H 	H 	0.39200 0.36480 0.99500 0.09700
Zn	Zn	0.11440 0.42450 0.88180 0.76100
