data_crystal

_cell_length_a 9.52680
_cell_length_b 9.52680
_cell_length_c 23.40100
_cell_angle_alpha 90.00000
_cell_angle_beta  90.00000
_cell_angle_gamma 90.00000

_symmetry_space_group_name_	'P 1'
_symmetry_space_group_name_H-M	'P 1'

loop_
_symmetry_equiv_pos_as_xyz
  x,y,z

loop_
_atom_site_label
_atom_site_type_symbol
_atom_site_fract_x
_atom_site_fract_y
_atom_site_fract_z
_atom_site_charge
N 	N 	0.60260 0.88730 0.81027 -0.20100
O 	O 	0.83170 0.95780 0.92672 -0.20700
C 	C 	0.92830 0.88650 0.96361 0.09000
H 	H 	0.99740 0.83560 0.94130 0.03900
H 	H 	0.87890 0.82040 0.98790 0.02900
C 	C 	0.75710 0.87670 0.88978 0.14900
C 	C 	0.75120 0.73260 0.89000 -0.13500
H 	H 	0.79950 0.68010 0.91710 0.08400
C 	C 	0.67190 0.66990 0.84908 -0.00800
H 	H 	0.66830 0.57240 0.84770 0.03100
C 	C 	0.59750 0.74490 0.81007 0.00200
H 	H 	0.54280 0.69850 0.78310 0.00900
C 	C 	0.67980 0.95070 0.84980 -0.00000
H 	H 	0.68200 0.04820 0.85070 0.00500
N 	N 	0.39740 0.11270 0.81027 -0.18500
O 	O 	0.16830 0.04220 0.92672 -0.25800
C 	C 	0.07170 0.11350 0.96361 0.05500
H 	H 	0.00260 0.16440 0.94130 0.01700
H 	H 	0.12110 0.17960 0.98790 0.01900
C 	C 	0.24290 0.12330 0.88978 0.20400
C 	C 	0.24880 0.26740 0.89000 -0.18600
H 	H 	0.20050 0.31990 0.91710 0.09400
C 	C 	0.32810 0.33010 0.84908 0.02600
H 	H 	0.33170 0.42760 0.84770 0.01500
C 	C 	0.40250 0.25510 0.81007 -0.02400
H 	H 	0.45720 0.30150 0.78310 0.01600
C 	C 	0.32020 0.04930 0.84980 -0.14400
H 	H 	0.31800 0.95180 0.85070 0.08900
N 	N 	0.88730 0.39740 0.18973 -0.20200
O 	O 	0.95780 0.16830 0.07328 -0.21600
C 	C 	0.88650 0.07170 0.03639 0.07300
H 	H 	0.83560 0.00260 0.05870 0.02200
H 	H 	0.82040 0.12110 0.01210 0.02400
C 	C 	0.87670 0.24290 0.11022 0.14600
C 	C 	0.73260 0.24880 0.11000 -0.13600
H 	H 	0.68010 0.20050 0.08290 0.07800
C 	C 	0.66990 0.32810 0.15092 -0.01000
H 	H 	0.57240 0.33170 0.15230 0.02800
C 	C 	0.74490 0.40250 0.18993 0.00000
H 	H 	0.69850 0.45720 0.21690 0.01100
C 	C 	0.95070 0.32020 0.15020 -0.00300
H 	H 	0.04820 0.31800 0.14930 0.00100
N 	N 	0.11270 0.60260 0.18973 -0.18500
O 	O 	0.04220 0.83170 0.07328 -0.24900
C 	C 	0.11350 0.92830 0.03639 0.07500
H 	H 	0.16440 0.99740 0.05870 0.03400
H 	H 	0.17960 0.87890 0.01210 0.02600
C 	C 	0.12330 0.75710 0.11022 0.20900
C 	C 	0.26740 0.75120 0.11000 -0.18500
H 	H 	0.31990 0.79950 0.08290 0.10100
C 	C 	0.33010 0.67190 0.15092 0.02900
H 	H 	0.42760 0.66830 0.15230 0.02000
C 	C 	0.25510 0.59750 0.18993 -0.02300
H 	H 	0.30150 0.54280 0.21690 0.01500
C 	C 	0.04930 0.67980 0.15020 -0.14200
H 	H 	0.95180 0.68200 0.14930 0.09500
N 	N 	0.10260 0.61270 0.31027 -0.20100
O 	O 	0.33170 0.54220 0.42672 -0.22100
C 	C 	0.42830 0.61350 0.46361 -0.01200
H 	H 	0.49740 0.66440 0.44130 0.05500
H 	H 	0.37890 0.67960 0.48790 0.04900
C 	C 	0.25710 0.62330 0.38978 0.16800
C 	C 	0.25120 0.76740 0.39000 -0.15500
H 	H 	0.29950 0.81990 0.41710 0.08900
C 	C 	0.17190 0.83010 0.34908 0.00400
H 	H 	0.16830 0.92760 0.34770 0.02800
C 	C 	0.09750 0.75510 0.31007 -0.01000
H 	H 	0.04280 0.80150 0.28310 0.00900
C 	C 	0.17980 0.54930 0.34980 -0.07000
H 	H 	0.18200 0.45180 0.35070 0.03800
N 	N 	0.89740 0.38730 0.31027 -0.18900
O 	O 	0.66830 0.45780 0.42672 -0.21800
C 	C 	0.57170 0.38650 0.46361 -0.00900
H 	H 	0.50260 0.33560 0.44130 0.04700
H 	H 	0.62110 0.32040 0.48790 0.04600
C 	C 	0.74290 0.37670 0.38978 0.17100
C 	C 	0.74880 0.23260 0.39000 -0.15600
H 	H 	0.70050 0.18010 0.41710 0.08300
C 	C 	0.82810 0.16990 0.34908 0.00600
H 	H 	0.83170 0.07240 0.34770 0.02100
C 	C 	0.90250 0.24490 0.31007 -0.00900
H 	H 	0.95720 0.19850 0.28310 0.01500
C 	C 	0.82020 0.45070 0.34980 -0.06800
H 	H 	0.81800 0.54820 0.35070 0.05300
N 	N 	0.38730 0.10260 0.68973 -0.20100
O 	O 	0.45780 0.33170 0.57328 -0.22200
C 	C 	0.38650 0.42830 0.53639 -0.00800
H 	H 	0.33560 0.49740 0.55870 0.04800
H 	H 	0.32040 0.37890 0.51210 0.04200
C 	C 	0.37670 0.25710 0.61022 0.16800
C 	C 	0.23260 0.25120 0.61000 -0.16000
H 	H 	0.18010 0.29950 0.58290 0.08100
C 	C 	0.16990 0.17190 0.65092 0.00200
H 	H 	0.07240 0.16830 0.65230 0.01100
C 	C 	0.24490 0.09750 0.68993 -0.01500
H 	H 	0.19850 0.04280 0.71690 0.00100
C 	C 	0.45070 0.17980 0.65020 -0.07300
H 	H 	0.54820 0.18200 0.64930 0.04200
N 	N 	0.61270 0.89740 0.68973 -0.18900
O 	O 	0.54220 0.66830 0.57328 -0.21700
C 	C 	0.61350 0.57170 0.53639 -0.01300
H 	H 	0.66440 0.50260 0.55870 0.05300
H 	H 	0.67960 0.62110 0.51210 0.05200
C 	C 	0.62330 0.74290 0.61022 0.17100
C 	C 	0.76740 0.74880 0.61000 -0.15100
H 	H 	0.81990 0.70050 0.58290 0.09200
C 	C 	0.83010 0.82810 0.65092 0.00800
H 	H 	0.92760 0.83170 0.65230 0.03700
C 	C 	0.75510 0.90250 0.68993 -0.00400
H 	H 	0.80150 0.95720 0.71690 0.02400
C 	C 	0.54930 0.82020 0.65020 -0.06500
H 	H 	0.45180 0.81800 0.64930 0.04800
Cu	Cu	0.50000 0.00000 0.75000 0.83700
Cu	Cu	0.00000 0.50000 0.25000 0.83700
C 	C 	-0.00000 0.00000 -0.00000 -0.09600
C 	C 	0.50000 0.50000 0.50000 0.03500
