data_crystal

_cell_length_a 10.79900
_cell_length_b 18.16080
_cell_length_c 19.68260
_cell_angle_alpha 82.79460
_cell_angle_beta  74.07800
_cell_angle_gamma 72.70350

_symmetry_space_group_name_	'P 1'
_symmetry_space_group_name_H-M	'P 1'

loop_
_symmetry_equiv_pos_as_xyz
  x,y,z

loop_
_atom_site_label
_atom_site_type_symbol
_atom_site_fract_x
_atom_site_fract_y
_atom_site_fract_z
_atom_site_charge
Cd	Cd	0.24915 0.75000 0.75000 1.14800
Cd	Cd	0.05702 0.63369 0.59855 1.22900
Cd	Cd	0.94298 0.36631 0.40145 1.23600
Cd	Cd	0.37926 0.93953 0.51668 1.19400
Cd	Cd	0.78926 0.86631 0.90145 1.23400
Cd	Cd	0.33547 0.56047 0.98332 1.20000
Cd	Cd	-0.00000 0.50000 0.50000 1.23600
Cd	Cd	0.66453 0.43953 0.01668 1.18000
Cd	Cd	0.75085 0.25000 0.25000 1.15000
Cd	Cd	0.62074 0.06047 0.48332 1.18700
Cd	Cd	0.21074 0.13369 0.09855 1.23300
Cd	Cd	0.50000 0.00000 -0.00000 1.22300
H 	H 	0.43540 0.38920 0.82220 0.07700
H 	H 	0.17120 0.85160 0.23560 0.08100
H 	H 	0.69040 0.58770 0.39450 0.07000
H 	H 	0.54420 0.94220 0.72300 -0.00600
H 	H 	0.85320 0.88920 0.32220 0.08100
H 	H 	0.72890 0.15590 0.67370 0.04000
H 	H 	0.35730 0.20060 0.76800 0.09100
H 	H 	0.48710 0.12200 0.83760 -0.00200
H 	H 	0.51290 0.87800 0.16240 0.03800
H 	H 	0.36070 0.82610 0.05630 0.01900
H 	H 	0.17250 0.97950 0.76390 0.10500
H 	H 	0.48760 0.59600 0.47480 0.01800
H 	H 	0.56460 0.61080 0.17780 0.06300
H 	H 	0.94670 0.37800 0.66240 0.02300
H 	H 	0.14680 0.11080 0.67780 0.06000
H 	H 	0.76570 0.24900 0.87060 0.08200
H 	H 	0.41590 0.52050 0.73610 0.06800
H 	H 	0.61630 0.51500 0.65460 0.01800
H 	H 	0.88230 0.92790 0.65370 0.03600
H 	H 	0.03610 0.42790 0.15370 -0.00200
H 	H 	0.82740 0.08770 0.89450 0.09600
H 	H 	0.28590 0.98500 0.84540 0.02200
H 	H 	0.29060 0.44220 0.22300 0.02000
H 	H 	0.82750 0.02050 0.23610 0.01400
H 	H 	0.61470 0.74900 0.37060 0.07900
H 	H 	0.23430 0.75100 0.12940 0.06300
H 	H 	0.17410 0.70060 0.26800 0.07400
H 	H 	0.05330 0.62200 0.33760 0.01300
H 	H 	0.94150 0.65590 0.17370 0.01700
H 	H 	0.38370 0.48500 0.34540 0.02300
H 	H 	0.71410 0.01500 0.15460 0.01700
H 	H 	0.64270 0.79940 0.23200 0.06000
H 	H 	0.03230 0.25380 0.38800 0.20100
H 	H 	0.82880 0.14840 0.76440 0.05900
H 	H 	0.70940 0.55780 0.77700 0.02300
H 	H 	0.30960 0.41230 0.60550 0.07800
H 	H 	0.01110 0.21990 0.32950 0.29700
H 	H 	0.05850 0.34410 0.82630 0.05400
H 	H 	0.69200 0.68430 0.10310 0.03200
H 	H 	0.45580 0.05780 0.27700 0.04800
H 	H 	0.96390 0.57210 0.84630 0.07400
H 	H 	0.94160 0.09600 0.97480 0.00400
H 	H 	0.63930 0.17390 0.94370 0.00900
H 	H 	0.24160 0.35160 0.73560 0.05300
H 	H 	0.38530 0.25100 0.62940 0.06700
H 	H 	0.11770 0.07210 0.34630 0.02300
H 	H 	0.74310 0.67390 0.44370 0.00800
H 	H 	0.27110 0.84410 0.32630 0.02400
H 	H 	0.17260 0.91230 0.10550 0.05000
H 	H 	0.30800 0.31570 0.89690 0.02000
H 	H 	0.97940 0.81570 0.39690 0.02700
H 	H 	0.98890 0.78010 0.67050 0.30800
H 	H 	0.82590 0.29940 0.73200 0.07600
H 	H 	0.82590 0.75380 0.88800 0.20900
H 	H 	0.51240 0.40400 0.52520 0.01300
H 	H 	0.25690 0.32610 0.55630 0.01800
H 	H 	0.75840 0.64840 0.26440 0.08400
H 	H 	0.93950 0.71990 0.82950 0.30600
H 	H 	0.06050 0.28010 0.17050 0.29700
H 	H 	0.96770 0.74620 0.61200 0.21300
H 	H 	0.58410 0.47950 0.26390 0.06000
H 	H 	0.05840 0.90400 0.02520 0.02900
H 	H 	0.02060 0.18430 0.60310 0.02600
H 	H 	0.17410 0.24620 0.11200 0.20400
C 	C 	0.12927 0.26116 0.56950 -0.12100
C 	C 	0.28036 0.54681 0.47067 0.38400
C 	C 	0.98839 0.07218 0.93244 0.13000
C 	C 	0.71707 0.82883 0.34103 0.06700
C 	C 	0.92001 0.06765 0.88413 -0.18800
C 	C 	0.52786 0.89847 0.19941 0.00400
C 	C 	0.82894 0.84681 0.34791 -0.13200
C 	C 	0.84769 0.38878 0.25544 0.39700
C 	C 	0.78030 0.10853 0.68767 0.01800
C 	C 	0.50643 0.99432 0.73182 0.16300
C 	C 	0.49301 0.42782 0.56756 0.06800
C 	C 	0.54520 0.49465 0.87115 0.36400
C 	C 	0.68702 0.76312 0.37644 -0.14700
C 	C 	0.12548 0.00278 0.80646 -0.21300
C 	C 	0.87404 0.45140 0.90572 0.28600
C 	C 	0.59738 0.21826 0.92058 0.06900
C 	C 	0.07999 0.93235 0.11587 -0.06100
C 	C 	0.12596 0.54860 0.09428 0.33300
C 	C 	0.39975 0.30266 0.89244 0.06700
C 	C 	0.31298 0.23688 0.62356 -0.11400
C 	C 	0.00726 0.54245 0.15343 -0.17000
C 	C 	0.18602 0.39625 0.75771 -0.06500
C 	C 	0.20314 0.95755 0.34657 -0.11400
C 	C 	0.23622 0.28174 0.57942 0.02800
C 	C 	0.19362 0.00641 0.85515 0.08000
C 	C 	0.08304 0.96658 0.23474 0.10800
C 	C 	0.91866 0.52772 0.66676 0.35600
C 	C 	0.87059 0.46691 0.23151 -0.18400
C 	C 	0.40262 0.78174 0.07942 0.01200
C 	C 	0.19830 0.64862 0.25858 -0.12800
C 	C 	0.26743 0.49432 0.23182 0.07200
C 	C 	0.12941 0.53309 0.76849 -0.10900
C 	C 	0.20216 0.04681 0.97067 0.43400
C 	C 	0.01161 0.92782 0.06756 -0.01400
C 	C 	0.98012 0.47234 0.17602 0.12600
C 	C 	0.81398 0.60375 0.24229 -0.15000
C 	C 	0.60025 0.69734 0.10756 0.01100
C 	C 	0.65885 0.53347 0.32003 0.03000
C 	C 	0.93099 0.96691 0.73151 -0.08800
C 	C 	0.37584 0.19657 0.98455 0.43100
C 	C 	0.49357 0.00568 0.26818 -0.02100
C 	C 	0.32658 0.73688 0.12356 -0.11100
C 	C 	0.79784 0.95319 0.02933 0.32800
C 	C 	0.84008 0.47627 0.71197 -0.12900
C 	C 	0.57085 0.95875 0.31135 -0.09500
C 	C 	0.69237 0.37996 0.79790 0.06000
C 	C 	0.26884 0.95140 0.40572 0.33500
C 	C 	0.16002 0.89625 0.25771 -0.14700
C 	C 	0.52832 0.02373 0.78803 -0.20900
C 	C 	0.39450 0.14862 0.75858 -0.16800
C 	C 	0.01235 0.96653 0.17997 -0.03200
C 	C 	0.47214 0.10153 0.80059 0.11200
C 	C 	0.34095 0.54125 0.18865 -0.15200
C 	C 	0.80638 0.99359 0.14485 0.00900
C 	C 	0.42915 0.04125 0.68865 -0.20100
C 	C 	0.92350 0.60853 0.18767 0.09100
C 	C 	0.83998 0.10375 0.74229 -0.07900
C 	C 	0.67342 0.26312 0.87644 -0.14800
C 	C 	0.87402 0.95831 0.08145 -0.07400
C 	C 	0.12848 0.02766 0.32398 0.06400
C 	C 	0.38686 0.02772 0.16676 0.30000
C 	C 	0.45480 0.50535 0.12885 0.37100
C 	C 	0.45993 0.23884 0.93050 -0.16200
C 	C 	0.09485 0.19734 0.60756 0.02500
C 	C 	0.87073 0.73884 0.43050 -0.14400
C 	C 	0.62416 0.80343 0.01545 0.26400
C 	C 	0.87426 0.39847 0.69941 0.05800
C 	C 	0.28293 0.17117 0.65897 0.02500
C 	C 	0.62821 0.56765 0.38413 -0.11500
C 	C 	0.99274 0.45755 0.84657 -0.02600
C 	C 	0.38693 0.67117 0.15897 0.02900
C 	C 	0.94304 0.69657 0.48455 0.37500
C 	C 	0.52366 0.65319 0.15209 -0.09600
C 	C 	0.78436 0.53342 0.26526 0.08000
C 	C 	0.44482 0.50641 0.35515 0.03900
C 	C 	0.61314 0.97228 0.83324 0.37800
C 	C 	0.21564 0.46658 0.73474 0.01800
C 	C 	0.01988 0.52766 0.82398 -0.03900
C 	C 	0.21970 0.89147 0.31233 0.05900
C 	C 	0.30763 0.62004 0.20210 0.07200
C 	C 	0.47168 0.97627 0.21197 -0.05100
C 	C 	0.41378 0.54169 0.41855 -0.12600
C 	C 	0.56528 0.50278 0.30646 -0.11000
C 	C 	0.41100 0.00535 0.62885 0.36200
C 	C 	0.34115 0.46653 0.67997 0.06200
C 	C 	0.12598 0.04169 0.91855 -0.18400
C 	C 	0.12574 0.60153 0.30059 0.05700
C 	C 	0.00809 0.88878 0.75544 0.32900
C 	C 	0.50699 0.57218 0.43244 0.05200
C 	C 	0.80170 0.35138 0.74142 -0.11900
C 	C 	0.91696 0.03342 0.76526 -0.01200
C 	C 	0.37179 0.43235 0.61587 -0.13800
C 	C 	0.58622 0.45831 0.58145 -0.13700
C 	C 	0.55518 0.49359 0.64485 0.05500
C 	C 	0.37023 0.12004 0.70210 0.10000
C 	C 	0.87452 0.99722 0.19354 -0.01500
C 	C 	0.54007 0.76116 0.06950 -0.09800
C 	C 	0.60550 0.85138 0.24142 -0.07900
C 	C 	0.87152 0.97234 0.67602 0.05500
C 	C 	0.99191 0.11122 0.24456 0.41300
C 	C 	0.65905 0.45875 0.81135 -0.14300
C 	C 	0.05696 0.30343 0.51545 0.33300
C 	C 	0.98765 0.03347 0.82003 0.11600
C 	C 	0.15231 0.61122 0.74456 0.36600
C 	C 	0.58900 0.99465 0.37115 0.37500
C 	C 	0.17106 0.15319 0.65209 -0.10000
C 	C 	0.90515 0.80266 0.39244 0.05700
C 	C 	0.06901 0.03309 0.26849 -0.19600
C 	C 	0.73257 0.50568 0.76818 0.07000
C 	C 	0.79686 0.04245 0.65343 -0.11100
C 	C 	0.47634 0.34681 0.84791 -0.13300
C 	C 	0.76378 0.71826 0.42058 0.05700
C 	C 	0.43472 0.49722 0.69354 -0.13300
C 	C 	0.08134 0.47228 0.33324 0.32400
C 	C 	0.62977 0.87996 0.29790 0.03100
C 	C 	0.71964 0.45319 0.52933 0.38800
C 	C 	0.73116 0.04860 0.59428 0.28800
C 	C 	0.15992 0.52373 0.28803 -0.12800
C 	C 	0.07650 0.39147 0.81233 -0.03400
C 	C 	0.61307 0.32883 0.84103 0.06000
O 	O 	0.24745 0.59204 0.51966 -0.44300
O 	O 	0.98586 0.49978 0.38534 -0.45800
O 	O 	0.01761 0.72583 0.50415 -0.41800
O 	O 	0.07859 0.36679 0.48763 -0.48000
O 	O 	0.62033 0.05651 0.35883 -0.45500
O 	O 	0.14085 0.09204 0.01966 -0.47900
O 	O 	0.98408 0.86750 0.81912 -0.44000
O 	O 	0.56699 0.86679 0.98763 -0.42800
O 	O 	0.33134 0.09717 0.18215 -0.37700
O 	O 	0.05201 0.24555 0.34423 -0.63800
O 	O 	0.01592 0.13250 0.18088 -0.49000
O 	O 	0.66591 0.11316 0.57478 -0.39400
O 	O 	0.74379 0.98755 0.56407 -0.36300
O 	O 	0.53567 0.44349 0.14117 -0.44700
O 	O 	0.98239 0.27417 0.49585 -0.38400
O 	O 	0.75255 0.40796 0.48034 -0.44100
O 	O 	0.46433 0.55651 0.85883 -0.43700
O 	O 	0.01414 0.50022 0.61466 -0.48700
O 	O 	0.82930 0.36750 0.31912 -0.47400
O 	O 	0.33409 0.88684 0.42522 -0.40500
O 	O 	0.90271 0.15255 0.29143 -0.48900
O 	O 	0.14179 0.25445 0.15577 -0.63900
O 	O 	0.42651 0.03704 0.56700 -0.53000
O 	O 	0.21129 0.50539 0.46063 -0.43700
O 	O 	0.92141 0.63321 0.51237 -0.48000
O 	O 	0.66866 0.90283 0.81785 -0.38900
O 	O 	0.53055 0.46296 0.93300 -0.51200
O 	O 	0.94799 0.75445 0.65577 -0.63900
O 	O 	0.85821 0.74555 0.84423 -0.63900
O 	O 	0.74759 0.77417 0.99585 -0.34800
O 	O 	0.85915 0.90796 0.98034 -0.39600
O 	O 	0.62902 0.99978 0.88534 -0.46300
O 	O 	0.85385 0.38684 0.92522 -0.37900
O 	O 	0.57349 0.96296 0.43300 -0.51800
O 	O 	0.43301 0.13321 0.01237 -0.52500
O 	O 	0.11066 0.40283 0.31785 -0.38400
O 	O 	0.84669 0.34745 0.20857 -0.48700
O 	O 	0.32269 0.00539 0.96063 -0.44500
O 	O 	0.17070 0.63250 0.68088 -0.47200
O 	O 	0.09729 0.84745 0.70857 -0.47700
O 	O 	0.25621 0.01245 0.43593 -0.40900
O 	O 	0.14615 0.61316 0.07478 -0.41700
O 	O 	0.78871 0.49461 0.53937 -0.43300
O 	O 	0.15331 0.65255 0.79143 -0.48400
O 	O 	0.37967 0.94349 0.64117 -0.43000
O 	O 	0.25241 0.22583 0.00415 -0.44300
O 	O 	0.79541 0.51245 0.93593 -0.36800
O 	O 	0.20459 0.48755 0.06407 -0.40500
O 	O 	0.88934 0.59717 0.68215 -0.38200
O 	O 	0.37098 0.00022 0.11466 -0.47500
O 	O 	0.67731 0.99461 0.03937 -0.42100
O 	O 	0.46945 0.53704 0.06700 -0.53600
