data_crystal

_cell_length_a 21.93670
_cell_length_b 21.93670
_cell_length_c 16.33770
_cell_angle_alpha 90.00000
_cell_angle_beta  90.00000
_cell_angle_gamma 90.00000

_symmetry_space_group_name_	'P 1'
_symmetry_space_group_name_H-M	'P 1'

loop_
_symmetry_equiv_pos_as_xyz
  x,y,z

loop_
_atom_site_label
_atom_site_type_symbol
_atom_site_fract_x
_atom_site_fract_y
_atom_site_fract_z
_atom_site_charge
Cd	Cd	0.08029 0.51124 0.04089 1.19800
O 	O 	0.08621 0.41788 0.95840 -0.38700
O 	O 	0.11760 0.32250 0.96390 -0.23500
O 	O 	0.17460 0.25674 0.05790 -0.26500
O 	O 	0.21814 0.26395 0.17970 -0.51800
N 	N 	0.13263 0.44364 0.11210 -0.23400
N 	N 	0.18360 0.38299 0.19810 -0.22500
C 	C 	0.11180 0.37590 0.99460 0.27300
C 	C 	0.18850 0.28590 0.12160 0.31900
C 	C 	0.13870 0.38770 0.07650 -0.02300
C 	C 	0.17050 0.35040 0.12850 -0.05500
C 	C 	0.15960 0.43830 0.18580 0.05800
C 	C 	0.16100 0.48850 0.24560 0.10600
C 	C 	0.11260 0.52280 0.25840 -0.21600
H 	H 	0.07640 0.51440 0.23100 0.06700
C 	C 	0.11530 0.57260 0.31390 0.22200
H 	H 	0.08100 0.59720 0.31880 -0.08100
C 	C 	0.16300 0.58600 0.35860 -0.45900
C 	C 	0.21720 0.54710 0.34710 0.11600
H 	H 	0.25210 0.55370 0.37800 -0.03900
C 	C 	0.21550 0.50080 0.28980 -0.15800
H 	H 	0.25020 0.47760 0.28010 0.04300
C 	C 	0.16160 0.63970 0.41740 0.93000
C 	C 	0.10440 0.67430 0.42430 -0.38200
H 	H 	0.09230 0.69230 0.37330 0.17200
H 	H 	0.10930 0.70560 0.46480 0.11100
H 	H 	0.07360 0.64610 0.44200 0.10700
C 	C 	0.17900 0.62010 0.50030 -0.93100
H 	H 	0.14490 0.61380 0.53600 0.32600
H 	H 	0.20560 0.65020 0.52340 0.34400
H 	H 	0.20080 0.58250 0.49370 0.26200
C 	C 	0.20880 0.68220 0.38830 -0.55500
H 	H 	0.24930 0.66760 0.39900 0.02600
H 	H 	0.20330 0.72110 0.41420 0.20000
H 	H 	0.20300 0.68630 0.33040 0.14800
C 	C 	0.15990 0.55090 0.21710 -0.03800
H 	H 	0.15950 0.55860 0.16110 -0.02200
C 	C 	0.15930 0.60000 0.27170 0.00800
H 	H 	0.15650 0.64000 0.25320 0.00100
C 	C 	0.15640 0.53220 0.38280 0.14900
H 	H 	0.15120 0.52510 0.43840 -0.04800
C 	C 	0.15650 0.48000 0.32650 -0.11000
H 	H 	0.15340 0.44070 0.34720 0.03300
C 	C 	0.14300 0.69920 0.38440 -0.50800
H 	H 	0.17110 0.71480 0.34440 0.16900
H 	H 	0.13780 0.72870 0.42720 0.14600
H 	H 	0.10440 0.69140 0.35870 0.04500
C 	C 	0.11530 0.62530 0.47970 -0.51900
H 	H 	0.07370 0.63230 0.46370 0.11200
H 	H 	0.12440 0.64900 0.52750 0.13400
H 	H 	0.12090 0.58280 0.49170 0.15900
C 	C 	0.21740 0.65230 0.46440 -0.46900
H 	H 	0.22890 0.62170 0.50340 0.16200
H 	H 	0.21300 0.69080 0.49160 0.08100
H 	H 	0.24830 0.65550 0.42300 0.24000
Cd	Cd	0.58029 0.01124 0.54089 1.19900
O 	O 	0.58621 0.91788 0.45840 -0.38600
O 	O 	0.61760 0.82250 0.46390 -0.23400
O 	O 	0.67460 0.75674 0.55790 -0.26400
O 	O 	0.71814 0.76395 0.67970 -0.51700
N 	N 	0.63263 0.94364 0.61210 -0.23200
N 	N 	0.68360 0.88299 0.69810 -0.22500
C 	C 	0.61180 0.87590 0.49460 0.27400
C 	C 	0.68850 0.78590 0.62160 0.31900
C 	C 	0.63870 0.88770 0.57650 -0.02300
C 	C 	0.67050 0.85040 0.62850 -0.05500
C 	C 	0.65960 0.93830 0.68580 0.05600
C 	C 	0.66100 0.98850 0.74560 0.11200
C 	C 	0.61260 0.02280 0.75840 -0.23200
H 	H 	0.57640 0.01440 0.73100 0.07300
C 	C 	0.61530 0.07260 0.81390 0.23700
H 	H 	0.58100 0.09720 0.81880 -0.08600
C 	C 	0.66300 0.08600 0.85860 -0.45800
C 	C 	0.71720 0.04710 0.84710 0.12800
H 	H 	0.75210 0.05370 0.87800 -0.04300
C 	C 	0.71550 0.00080 0.78980 -0.17500
H 	H 	0.75020 0.97760 0.78010 0.05000
C 	C 	0.66160 0.13970 0.91740 0.92700
C 	C 	0.60440 0.17430 0.92430 -0.38800
H 	H 	0.59230 0.19230 0.87330 0.16500
H 	H 	0.60930 0.20560 0.96480 0.11300
H 	H 	0.57360 0.14610 0.94200 0.11600
C 	C 	0.67900 0.12010 0.00030 -0.90800
H 	H 	0.64490 0.11380 0.03600 0.32000
H 	H 	0.70560 0.15020 0.02340 0.33700
H 	H 	0.70080 0.08250 0.99370 0.25300
C 	C 	0.70880 0.18220 0.88830 -0.56400
H 	H 	0.74930 0.16760 0.89900 0.03600
H 	H 	0.70330 0.22110 0.91420 0.20300
H 	H 	0.70300 0.18630 0.83040 0.15200
C 	C 	0.65990 0.05090 0.71710 -0.02700
H 	H 	0.65950 0.05860 0.66110 -0.02600
C 	C 	0.65930 0.10000 0.77170 -0.00400
H 	H 	0.65650 0.14000 0.75320 0.00500
C 	C 	0.65640 0.03220 0.88280 0.13600
H 	H 	0.65120 0.02510 0.93840 -0.04400
C 	C 	0.65650 0.98000 0.82650 -0.09700
H 	H 	0.65340 0.94070 0.84720 0.03000
C 	C 	0.64300 0.19920 0.88440 -0.50000
H 	H 	0.67110 0.21480 0.84440 0.16600
H 	H 	0.63780 0.22870 0.92720 0.14300
H 	H 	0.60440 0.19140 0.85870 0.05200
C 	C 	0.61530 0.12530 0.97970 -0.52500
H 	H 	0.57370 0.13230 0.96370 0.10600
H 	H 	0.62440 0.14900 0.02750 0.13700
H 	H 	0.62090 0.08280 0.99170 0.16000
C 	C 	0.71740 0.15230 0.96440 -0.47000
H 	H 	0.72890 0.12170 0.00340 0.16400
H 	H 	0.71300 0.19080 0.99160 0.08200
H 	H 	0.74830 0.15550 0.92300 0.23300
Cd	Cd	0.41971 0.48876 0.54089 1.19900
O 	O 	0.41379 0.58212 0.45840 -0.38600
O 	O 	0.38240 0.67750 0.46390 -0.23400
O 	O 	0.32540 0.74326 0.55790 -0.26400
O 	O 	0.28186 0.73605 0.67970 -0.51700
N 	N 	0.36737 0.55636 0.61210 -0.23300
N 	N 	0.31640 0.61701 0.69810 -0.22500
C 	C 	0.38820 0.62410 0.49460 0.27400
C 	C 	0.31150 0.71410 0.62160 0.31900
C 	C 	0.36130 0.61230 0.57650 -0.02300
C 	C 	0.32950 0.64960 0.62850 -0.05500
C 	C 	0.34040 0.56170 0.68580 0.05800
C 	C 	0.33900 0.51150 0.74560 0.10600
C 	C 	0.38740 0.47720 0.75840 -0.21500
H 	H 	0.42360 0.48560 0.73100 0.06700
C 	C 	0.38470 0.42740 0.81390 0.22200
H 	H 	0.41900 0.40280 0.81880 -0.08100
C 	C 	0.33700 0.41400 0.85860 -0.45900
C 	C 	0.28280 0.45290 0.84710 0.11600
H 	H 	0.24790 0.44630 0.87800 -0.03900
C 	C 	0.28450 0.49920 0.78980 -0.15800
H 	H 	0.24980 0.52240 0.78010 0.04300
C 	C 	0.33840 0.36030 0.91740 0.93000
C 	C 	0.39560 0.32570 0.92430 -0.38400
H 	H 	0.40770 0.30770 0.87330 0.17000
H 	H 	0.39070 0.29440 0.96480 0.11200
H 	H 	0.42640 0.35390 0.94200 0.11000
C 	C 	0.32100 0.37990 0.00030 -0.92600
H 	H 	0.35510 0.38620 0.03600 0.32500
H 	H 	0.29440 0.34980 0.02340 0.34300
H 	H 	0.29920 0.41750 0.99370 0.26000
C 	C 	0.29120 0.31780 0.88830 -0.55700
H 	H 	0.25070 0.33240 0.89900 0.02800
H 	H 	0.29670 0.27890 0.91420 0.20100
H 	H 	0.29700 0.31370 0.83040 0.14900
C 	C 	0.34010 0.44910 0.71710 -0.03800
H 	H 	0.34050 0.44140 0.66110 -0.02300
C 	C 	0.34070 0.40000 0.77170 0.00800
H 	H 	0.34350 0.36000 0.75320 0.00100
C 	C 	0.34360 0.46780 0.88280 0.15000
H 	H 	0.34880 0.47490 0.93840 -0.04800
C 	C 	0.34350 0.52000 0.82650 -0.11000
H 	H 	0.34660 0.55930 0.84720 0.03300
C 	C 	0.35700 0.30080 0.88440 -0.50600
H 	H 	0.32890 0.28520 0.84440 0.16800
H 	H 	0.36220 0.27130 0.92720 0.14600
H 	H 	0.39560 0.30860 0.85870 0.04700
C 	C 	0.38470 0.37470 0.97970 -0.52100
H 	H 	0.42630 0.36770 0.96370 0.11100
H 	H 	0.37560 0.35100 0.02750 0.13500
H 	H 	0.37910 0.41720 0.99170 0.15900
C 	C 	0.28260 0.34770 0.96440 -0.46900
H 	H 	0.27110 0.37830 0.00340 0.16200
H 	H 	0.28700 0.30920 0.99160 0.08100
H 	H 	0.25170 0.34450 0.92300 0.23800
Cd	Cd	0.91971 0.98876 0.04089 1.19700
O 	O 	0.91379 0.08212 0.95840 -0.38700
O 	O 	0.88240 0.17750 0.96390 -0.23400
O 	O 	0.82540 0.24326 0.05790 -0.26300
O 	O 	0.78186 0.23605 0.17970 -0.51700
N 	N 	0.86737 0.05636 0.11210 -0.23200
N 	N 	0.81640 0.11701 0.19810 -0.22500
C 	C 	0.88820 0.12410 0.99460 0.27100
C 	C 	0.81150 0.21410 0.12160 0.31900
C 	C 	0.86130 0.11230 0.07650 -0.02100
C 	C 	0.82950 0.14960 0.12850 -0.05500
C 	C 	0.84040 0.06170 0.18580 0.05600
C 	C 	0.83900 0.01150 0.24560 0.11500
C 	C 	0.88740 0.97720 0.25840 -0.23200
H 	H 	0.92360 0.98560 0.23100 0.07200
C 	C 	0.88470 0.92740 0.31390 0.23700
H 	H 	0.91900 0.90280 0.31880 -0.08600
C 	C 	0.83700 0.91400 0.35860 -0.46200
C 	C 	0.78280 0.95290 0.34710 0.12800
H 	H 	0.74790 0.94630 0.37800 -0.04300
C 	C 	0.78450 0.99920 0.28980 -0.17500
H 	H 	0.74980 0.02240 0.28010 0.05000
C 	C 	0.83840 0.86030 0.41740 0.93200
C 	C 	0.89560 0.82570 0.42430 -0.38200
H 	H 	0.90770 0.80770 0.37330 0.17300
H 	H 	0.89070 0.79440 0.46480 0.11100
H 	H 	0.92640 0.85390 0.44200 0.10700
C 	C 	0.82100 0.87990 0.50030 -0.93300
H 	H 	0.85510 0.88620 0.53600 0.32700
H 	H 	0.79440 0.84980 0.52340 0.34400
H 	H 	0.79920 0.91750 0.49370 0.26200
C 	C 	0.79120 0.81780 0.38830 -0.55500
H 	H 	0.75070 0.83240 0.39900 0.02600
H 	H 	0.79670 0.77890 0.41420 0.20100
H 	H 	0.79700 0.81370 0.33040 0.14900
C 	C 	0.84010 0.94910 0.21710 -0.03100
H 	H 	0.84050 0.94140 0.16110 -0.02500
C 	C 	0.84070 0.90000 0.27170 -0.00100
H 	H 	0.84350 0.86000 0.25320 0.00400
C 	C 	0.84360 0.96780 0.38280 0.14100
H 	H 	0.84880 0.97490 0.43840 -0.04500
C 	C 	0.84350 0.02000 0.32650 -0.10100
H 	H 	0.84660 0.05930 0.34720 0.03000
C 	C 	0.85700 0.80080 0.38440 -0.50900
H 	H 	0.82890 0.78520 0.34440 0.16900
H 	H 	0.86220 0.77130 0.42720 0.14600
H 	H 	0.89560 0.80860 0.35870 0.04500
C 	C 	0.88470 0.87470 0.47970 -0.52000
H 	H 	0.92630 0.86770 0.46370 0.11300
H 	H 	0.87560 0.85100 0.52750 0.13400
H 	H 	0.87910 0.91720 0.49170 0.15900
C 	C 	0.78260 0.84770 0.46440 -0.46900
H 	H 	0.77110 0.87830 0.50340 0.16200
H 	H 	0.78700 0.80920 0.49160 0.08100
H 	H 	0.75170 0.84450 0.42300 0.24100
Cd	Cd	0.23876 0.33029 0.29089 1.19900
O 	O 	0.33212 0.33621 0.20840 -0.38600
O 	O 	0.42750 0.36760 0.21390 -0.23300
O 	O 	0.49326 0.42460 0.30790 -0.26400
O 	O 	0.48605 0.46814 0.42970 -0.51700
N 	N 	0.30636 0.38263 0.36210 -0.23300
N 	N 	0.36701 0.43360 0.44810 -0.22500
C 	C 	0.37410 0.36180 0.24460 0.27400
C 	C 	0.46410 0.43850 0.37160 0.31900
C 	C 	0.36230 0.38870 0.32650 -0.02300
C 	C 	0.39960 0.42050 0.37850 -0.05500
C 	C 	0.31170 0.40960 0.43580 0.05800
C 	C 	0.26150 0.41100 0.49560 0.10600
C 	C 	0.22720 0.36260 0.50840 -0.21600
H 	H 	0.23560 0.32640 0.48100 0.06700
C 	C 	0.17740 0.36530 0.56390 0.22300
H 	H 	0.15280 0.33100 0.56880 -0.08100
C 	C 	0.16400 0.41300 0.60860 -0.45900
C 	C 	0.20290 0.46720 0.59710 0.11600
H 	H 	0.19630 0.50210 0.62800 -0.03900
C 	C 	0.24920 0.46550 0.53980 -0.15800
H 	H 	0.27240 0.50020 0.53010 0.04300
C 	C 	0.11030 0.41160 0.66740 0.93000
C 	C 	0.07570 0.35440 0.67430 -0.38200
H 	H 	0.05770 0.34230 0.62330 0.17200
H 	H 	0.04440 0.35930 0.71480 0.11100
H 	H 	0.10390 0.32360 0.69200 0.10700
C 	C 	0.12990 0.42900 0.75030 -0.93100
H 	H 	0.13620 0.39490 0.78600 0.32600
H 	H 	0.09980 0.45560 0.77340 0.34400
H 	H 	0.16750 0.45080 0.74370 0.26200
C 	C 	0.06780 0.45880 0.63830 -0.55400
H 	H 	0.08240 0.49930 0.64900 0.02600
H 	H 	0.02890 0.45330 0.66420 0.20000
H 	H 	0.06370 0.45300 0.58040 0.14800
C 	C 	0.19910 0.40990 0.46710 -0.03700
H 	H 	0.19140 0.40950 0.41110 -0.02300
C 	C 	0.15000 0.40930 0.52170 0.00700
H 	H 	0.11000 0.40650 0.50320 0.00100
C 	C 	0.21780 0.40640 0.63280 0.14900
H 	H 	0.22490 0.40120 0.68840 -0.04800
C 	C 	0.27000 0.40650 0.57650 -0.11000
H 	H 	0.30930 0.40340 0.59720 0.03300
C 	C 	0.05080 0.39300 0.63440 -0.50800
H 	H 	0.03520 0.42110 0.59440 0.16900
H 	H 	0.02130 0.38780 0.67720 0.14600
H 	H 	0.05860 0.35440 0.60870 0.04500
C 	C 	0.12470 0.36530 0.72970 -0.51900
H 	H 	0.11770 0.32370 0.71370 0.11200
H 	H 	0.10100 0.37440 0.77750 0.13400
H 	H 	0.16720 0.37090 0.74170 0.15800
C 	C 	0.09770 0.46740 0.71440 -0.46900
H 	H 	0.12830 0.47890 0.75340 0.16200
H 	H 	0.05920 0.46300 0.74160 0.08100
H 	H 	0.09450 0.49830 0.67300 0.24000
Cd	Cd	0.73876 0.83029 0.79089 1.19900
O 	O 	0.83212 0.83621 0.70840 -0.38600
O 	O 	0.92750 0.86760 0.71390 -0.23400
O 	O 	0.99326 0.92460 0.80790 -0.26400
O 	O 	0.98605 0.96814 0.92970 -0.51500
N 	N 	0.80636 0.88263 0.86210 -0.23200
N 	N 	0.86701 0.93360 0.94810 -0.22400
C 	C 	0.87410 0.86180 0.74460 0.27400
C 	C 	0.96410 0.93850 0.87160 0.31900
C 	C 	0.86230 0.88870 0.82650 -0.02300
C 	C 	0.89960 0.92050 0.87850 -0.05400
C 	C 	0.81170 0.90960 0.93580 0.05300
C 	C 	0.76150 0.91100 0.99560 0.12200
C 	C 	0.72720 0.86260 0.00840 -0.26000
H 	H 	0.73560 0.82640 0.98100 0.08400
C 	C 	0.67740 0.86530 0.06390 0.26000
H 	H 	0.65280 0.83100 0.06880 -0.09400
C 	C 	0.66400 0.91300 0.10860 -0.46400
C 	C 	0.70290 0.96720 0.09710 0.13400
H 	H 	0.69630 0.00210 0.12800 -0.04300
C 	C 	0.74920 0.96550 0.03980 -0.18700
H 	H 	0.77240 0.00020 0.03010 0.05600
C 	C 	0.61030 0.91160 0.16740 0.93300
C 	C 	0.57570 0.85440 0.17430 -0.38200
H 	H 	0.55770 0.84230 0.12330 0.17300
H 	H 	0.54440 0.85930 0.21480 0.11100
H 	H 	0.60390 0.82360 0.19200 0.10700
C 	C 	0.62990 0.92900 0.25030 -0.93300
H 	H 	0.63620 0.89490 0.28600 0.32700
H 	H 	0.59980 0.95560 0.27340 0.34400
H 	H 	0.66750 0.95080 0.24370 0.26200
C 	C 	0.56780 0.95880 0.13830 -0.55500
H 	H 	0.58240 0.99930 0.14900 0.02600
H 	H 	0.52890 0.95330 0.16420 0.20100
H 	H 	0.56370 0.95300 0.08040 0.14800
C 	C 	0.69910 0.90990 0.96710 -0.00800
H 	H 	0.69140 0.90950 0.91110 -0.03200
C 	C 	0.65000 0.90930 0.02170 -0.02200
H 	H 	0.61000 0.90650 0.00320 0.01100
C 	C 	0.71780 0.90640 0.13280 0.13400
H 	H 	0.72490 0.90120 0.18840 -0.04300
C 	C 	0.77000 0.90650 0.07650 -0.09600
H 	H 	0.80930 0.90340 0.09720 0.02800
C 	C 	0.55080 0.89300 0.13440 -0.51000
H 	H 	0.53520 0.92110 0.09440 0.16900
H 	H 	0.52130 0.88780 0.17720 0.14700
H 	H 	0.55860 0.85440 0.10870 0.04500
C 	C 	0.62470 0.86530 0.22970 -0.52100
H 	H 	0.61770 0.82370 0.21370 0.11300
H 	H 	0.60100 0.87440 0.27750 0.13400
H 	H 	0.66720 0.87090 0.24170 0.15900
C 	C 	0.59770 0.96740 0.21440 -0.47000
H 	H 	0.62830 0.97890 0.25340 0.16200
H 	H 	0.55920 0.96300 0.24160 0.08100
H 	H 	0.59450 0.99830 0.17300 0.24000
Cd	Cd	0.26124 0.66971 0.79089 1.19900
O 	O 	0.16788 0.66379 0.70840 -0.38600
O 	O 	0.07250 0.63240 0.71390 -0.23400
O 	O 	0.00674 0.57540 0.80790 -0.26400
O 	O 	0.01395 0.53186 0.92970 -0.51700
N 	N 	0.19364 0.61737 0.86210 -0.23200
N 	N 	0.13299 0.56640 0.94810 -0.22500
C 	C 	0.12590 0.63820 0.74460 0.27400
C 	C 	0.03590 0.56150 0.87160 0.31900
C 	C 	0.13770 0.61130 0.82650 -0.02300
C 	C 	0.10040 0.57950 0.87850 -0.05500
C 	C 	0.18830 0.59040 0.93580 0.05700
C 	C 	0.23850 0.58900 0.99560 0.11000
C 	C 	0.27280 0.63740 0.00840 -0.23000
H 	H 	0.26440 0.67360 0.98100 0.07300
C 	C 	0.32260 0.63470 0.06390 0.23400
H 	H 	0.34720 0.66900 0.06880 -0.08500
C 	C 	0.33600 0.58700 0.10860 -0.46100
C 	C 	0.29710 0.53280 0.09710 0.12200
H 	H 	0.30370 0.49790 0.12800 -0.04100
C 	C 	0.25080 0.53450 0.03980 -0.16500
H 	H 	0.22760 0.49980 0.03010 0.04600
C 	C 	0.38970 0.58840 0.16740 0.93200
C 	C 	0.42430 0.64560 0.17430 -0.38200
H 	H 	0.44230 0.65770 0.12330 0.17200
H 	H 	0.45560 0.64070 0.21480 0.11100
H 	H 	0.39610 0.67640 0.19200 0.10700
C 	C 	0.37010 0.57100 0.25030 -0.93200
H 	H 	0.36380 0.60510 0.28600 0.32700
H 	H 	0.40020 0.54440 0.27340 0.34400
H 	H 	0.33250 0.54920 0.24370 0.26200
C 	C 	0.43220 0.54120 0.13830 -0.55500
H 	H 	0.41760 0.50070 0.14900 0.02600
H 	H 	0.47110 0.54670 0.16420 0.20100
H 	H 	0.43630 0.54700 0.08040 0.14900
C 	C 	0.30090 0.59010 0.96710 -0.02800
H 	H 	0.30860 0.59050 0.91110 -0.02600
C 	C 	0.35000 0.59070 0.02170 -0.00100
H 	H 	0.39000 0.59350 0.00320 0.00400
C 	C 	0.28220 0.59360 0.13280 0.14500
H 	H 	0.27510 0.59880 0.18840 -0.04600
C 	C 	0.23000 0.59350 0.07650 -0.10600
H 	H 	0.19070 0.59660 0.09720 0.03100
C 	C 	0.44920 0.60700 0.13440 -0.50900
H 	H 	0.46480 0.57890 0.09440 0.16900
H 	H 	0.47870 0.61220 0.17720 0.14600
H 	H 	0.44140 0.64560 0.10870 0.04500
C 	C 	0.37530 0.63470 0.22970 -0.52000
H 	H 	0.38230 0.67630 0.21370 0.11300
H 	H 	0.39900 0.62560 0.27750 0.13400
H 	H 	0.33280 0.62910 0.24170 0.15900
C 	C 	0.40230 0.53260 0.21440 -0.46900
H 	H 	0.37170 0.52110 0.25340 0.16200
H 	H 	0.44080 0.53700 0.24160 0.08100
H 	H 	0.40550 0.50170 0.17300 0.24100
Cd	Cd	0.76124 0.16971 0.29089 1.19900
O 	O 	0.66788 0.16379 0.20840 -0.38600
O 	O 	0.57250 0.13240 0.21390 -0.23300
O 	O 	0.50674 0.07540 0.30790 -0.26300
O 	O 	0.51395 0.03186 0.42970 -0.51600
N 	N 	0.69364 0.11737 0.36210 -0.23300
N 	N 	0.63299 0.06640 0.44810 -0.22500
C 	C 	0.62590 0.13820 0.24460 0.27400
C 	C 	0.53590 0.06150 0.37160 0.31900
C 	C 	0.63770 0.11130 0.32650 -0.02300
C 	C 	0.60040 0.07950 0.37850 -0.05400
C 	C 	0.68830 0.09040 0.43580 0.05800
C 	C 	0.73850 0.08900 0.49560 0.10600
C 	C 	0.77280 0.13740 0.50840 -0.21400
H 	H 	0.76440 0.17360 0.48100 0.06600
C 	C 	0.82260 0.13470 0.56390 0.22000
H 	H 	0.84720 0.16900 0.56880 -0.08000
C 	C 	0.83600 0.08700 0.60860 -0.45800
C 	C 	0.79710 0.03280 0.59710 0.11400
H 	H 	0.80370 0.99790 0.62800 -0.03700
C 	C 	0.75080 0.03450 0.53980 -0.15600
H 	H 	0.72760 0.99980 0.53010 0.04300
C 	C 	0.88970 0.08840 0.66740 0.92900
C 	C 	0.92430 0.14560 0.67430 -0.38200
H 	H 	0.94230 0.15770 0.62330 0.17200
H 	H 	0.95560 0.14070 0.71480 0.11100
H 	H 	0.89610 0.17640 0.69200 0.10700
C 	C 	0.87010 0.07100 0.75030 -0.92900
H 	H 	0.86380 0.10510 0.78600 0.32500
H 	H 	0.90020 0.04440 0.77340 0.34300
H 	H 	0.83250 0.04920 0.74370 0.26100
C 	C 	0.93220 0.04120 0.63830 -0.55400
H 	H 	0.91760 0.00070 0.64900 0.02600
H 	H 	0.97110 0.04670 0.66420 0.20000
H 	H 	0.93630 0.04700 0.58040 0.14800
C 	C 	0.80090 0.09010 0.46710 -0.03900
H 	H 	0.80860 0.09050 0.41110 -0.02200
C 	C 	0.85000 0.09070 0.52170 0.00900
H 	H 	0.89000 0.09350 0.50320 0.00100
C 	C 	0.78220 0.09360 0.63280 0.15100
H 	H 	0.77510 0.09880 0.68840 -0.04900
C 	C 	0.73000 0.09350 0.57650 -0.11100
H 	H 	0.69070 0.09660 0.59720 0.03400
C 	C 	0.94920 0.10700 0.63440 -0.50800
H 	H 	0.96480 0.07890 0.59440 0.16900
H 	H 	0.97870 0.11220 0.67720 0.14600
H 	H 	0.94140 0.14560 0.60870 0.04500
C 	C 	0.87530 0.13470 0.72970 -0.51900
H 	H 	0.88230 0.17630 0.71370 0.11200
H 	H 	0.89900 0.12560 0.77750 0.13400
H 	H 	0.83280 0.12910 0.74170 0.15800
C 	C 	0.90230 0.03260 0.71440 -0.46900
H 	H 	0.87170 0.02110 0.75340 0.16100
H 	H 	0.94080 0.03700 0.74160 0.08100
H 	H 	0.90550 0.00170 0.67300 0.24000
Cd	Cd	0.91971 0.48876 0.95911 1.19900
O 	O 	0.91379 0.58212 0.04160 -0.38600
O 	O 	0.88240 0.67750 0.03610 -0.23400
O 	O 	0.82540 0.74326 0.94210 -0.26400
O 	O 	0.78186 0.73605 0.82030 -0.51700
N 	N 	0.86737 0.55636 0.88790 -0.23300
N 	N 	0.81640 0.61701 0.80190 -0.22500
C 	C 	0.88820 0.62410 0.00540 0.27300
C 	C 	0.81150 0.71410 0.87840 0.31900
C 	C 	0.86130 0.61230 0.92350 -0.02300
C 	C 	0.82950 0.64960 0.87150 -0.05500
C 	C 	0.84040 0.56170 0.81420 0.05800
C 	C 	0.83900 0.51150 0.75440 0.10600
C 	C 	0.88740 0.47720 0.74160 -0.21600
H 	H 	0.92360 0.48560 0.76900 0.06700
C 	C 	0.88470 0.42740 0.68610 0.22200
H 	H 	0.91900 0.40280 0.68120 -0.08100
C 	C 	0.83700 0.41400 0.64140 -0.45900
C 	C 	0.78280 0.45290 0.65290 0.11600
H 	H 	0.74790 0.44630 0.62200 -0.03900
C 	C 	0.78450 0.49920 0.71020 -0.15800
H 	H 	0.74980 0.52240 0.71990 0.04300
C 	C 	0.83840 0.36030 0.58260 0.93000
C 	C 	0.89560 0.32570 0.57570 -0.38200
H 	H 	0.90770 0.30770 0.62670 0.17200
H 	H 	0.89070 0.29440 0.53520 0.11100
H 	H 	0.92640 0.35390 0.55800 0.10700
C 	C 	0.82100 0.37990 0.49970 -0.93100
H 	H 	0.85510 0.38620 0.46400 0.32600
H 	H 	0.79440 0.34980 0.47660 0.34400
H 	H 	0.79920 0.41750 0.50630 0.26200
C 	C 	0.79120 0.31780 0.61170 -0.55500
H 	H 	0.75070 0.33240 0.60100 0.02600
H 	H 	0.79670 0.27890 0.58580 0.20000
H 	H 	0.79700 0.31370 0.66960 0.14800
C 	C 	0.84010 0.44910 0.78290 -0.03800
H 	H 	0.84050 0.44140 0.83890 -0.02200
C 	C 	0.84070 0.40000 0.72830 0.00800
H 	H 	0.84350 0.36000 0.74680 0.00100
C 	C 	0.84360 0.46780 0.61720 0.14900
H 	H 	0.84880 0.47490 0.56160 -0.04800
C 	C 	0.84350 0.52000 0.67350 -0.11000
H 	H 	0.84660 0.55930 0.65280 0.03300
C 	C 	0.85700 0.30080 0.61560 -0.50800
H 	H 	0.82890 0.28520 0.65560 0.16900
H 	H 	0.86220 0.27130 0.57280 0.14600
H 	H 	0.89560 0.30860 0.64130 0.04500
C 	C 	0.88470 0.37470 0.52030 -0.51900
H 	H 	0.92630 0.36770 0.53630 0.11200
H 	H 	0.87560 0.35100 0.47250 0.13400
H 	H 	0.87910 0.41720 0.50830 0.15900
C 	C 	0.78260 0.34770 0.53560 -0.46900
H 	H 	0.77110 0.37830 0.49660 0.16200
H 	H 	0.78700 0.30920 0.50840 0.08100
H 	H 	0.75170 0.34450 0.57700 0.24000
Cd	Cd	0.41971 0.98876 0.45911 1.19900
O 	O 	0.41379 0.08212 0.54160 -0.38600
O 	O 	0.38240 0.17750 0.53610 -0.23400
O 	O 	0.32540 0.24326 0.44210 -0.26400
O 	O 	0.28186 0.23605 0.32030 -0.51700
N 	N 	0.36737 0.05636 0.38790 -0.23200
N 	N 	0.31640 0.11701 0.30190 -0.22500
C 	C 	0.38820 0.12410 0.50540 0.27400
C 	C 	0.31150 0.21410 0.37840 0.31900
C 	C 	0.36130 0.11230 0.42350 -0.02300
C 	C 	0.32950 0.14960 0.37150 -0.05500
C 	C 	0.34040 0.06170 0.31420 0.05600
C 	C 	0.33900 0.01150 0.25440 0.11200
C 	C 	0.38740 0.97720 0.24160 -0.23200
H 	H 	0.42360 0.98560 0.26900 0.07300
C 	C 	0.38470 0.92740 0.18610 0.23700
H 	H 	0.41900 0.90280 0.18120 -0.08600
C 	C 	0.33700 0.91400 0.14140 -0.45800
C 	C 	0.28280 0.95290 0.15290 0.12800
H 	H 	0.24790 0.94630 0.12200 -0.04300
C 	C 	0.28450 0.99920 0.21020 -0.17500
H 	H 	0.24980 0.02240 0.21990 0.05000
C 	C 	0.33840 0.86030 0.08260 0.92700
C 	C 	0.39560 0.82570 0.07570 -0.38800
H 	H 	0.40770 0.80770 0.12670 0.16500
H 	H 	0.39070 0.79440 0.03520 0.11300
H 	H 	0.42640 0.85390 0.05800 0.11600
C 	C 	0.32100 0.87990 0.99970 -0.90800
H 	H 	0.35510 0.88620 0.96400 0.32000
H 	H 	0.29440 0.84980 0.97660 0.33700
H 	H 	0.29920 0.91750 0.00630 0.25300
C 	C 	0.29120 0.81780 0.11170 -0.56400
H 	H 	0.25070 0.83240 0.10100 0.03600
H 	H 	0.29670 0.77890 0.08580 0.20300
H 	H 	0.29700 0.81370 0.16960 0.15200
C 	C 	0.34010 0.94910 0.28290 -0.02700
H 	H 	0.34050 0.94140 0.33890 -0.02600
C 	C 	0.34070 0.90000 0.22830 -0.00400
H 	H 	0.34350 0.86000 0.24680 0.00500
C 	C 	0.34360 0.96780 0.11720 0.13600
H 	H 	0.34880 0.97490 0.06160 -0.04400
C 	C 	0.34350 0.02000 0.17350 -0.09700
H 	H 	0.34660 0.05930 0.15280 0.03000
C 	C 	0.35700 0.80080 0.11560 -0.50000
H 	H 	0.32890 0.78520 0.15560 0.16600
H 	H 	0.36220 0.77130 0.07280 0.14300
H 	H 	0.39560 0.80860 0.14130 0.05200
C 	C 	0.38470 0.87470 0.02030 -0.52500
H 	H 	0.42630 0.86770 0.03630 0.10600
H 	H 	0.37560 0.85100 0.97250 0.13700
H 	H 	0.37910 0.91720 0.00830 0.16000
C 	C 	0.28260 0.84770 0.03560 -0.47000
H 	H 	0.27110 0.87830 0.99660 0.16400
H 	H 	0.28700 0.80920 0.00840 0.08200
H 	H 	0.25170 0.84450 0.07700 0.23300
Cd	Cd	0.58029 0.51124 0.45911 1.19900
O 	O 	0.58621 0.41788 0.54160 -0.38600
O 	O 	0.61760 0.32250 0.53610 -0.23400
O 	O 	0.67460 0.25674 0.44210 -0.26400
O 	O 	0.71814 0.26395 0.32030 -0.51700
N 	N 	0.63263 0.44364 0.38790 -0.23300
N 	N 	0.68360 0.38299 0.30190 -0.22500
C 	C 	0.61180 0.37590 0.50540 0.27400
C 	C 	0.68850 0.28590 0.37840 0.31900
C 	C 	0.63870 0.38770 0.42350 -0.02300
C 	C 	0.67050 0.35040 0.37150 -0.05500
C 	C 	0.65960 0.43830 0.31420 0.05800
C 	C 	0.66100 0.48850 0.25440 0.10600
C 	C 	0.61260 0.52280 0.24160 -0.21500
H 	H 	0.57640 0.51440 0.26900 0.06700
C 	C 	0.61530 0.57260 0.18610 0.22200
H 	H 	0.58100 0.59720 0.18120 -0.08100
C 	C 	0.66300 0.58600 0.14140 -0.45900
C 	C 	0.71720 0.54710 0.15290 0.11600
H 	H 	0.75210 0.55370 0.12200 -0.03900
C 	C 	0.71550 0.50080 0.21020 -0.15800
H 	H 	0.75020 0.47760 0.21990 0.04300
C 	C 	0.66160 0.63970 0.08260 0.93000
C 	C 	0.60440 0.67430 0.07570 -0.38400
H 	H 	0.59230 0.69230 0.12670 0.17000
H 	H 	0.60930 0.70560 0.03520 0.11200
H 	H 	0.57360 0.64610 0.05800 0.11000
C 	C 	0.67900 0.62010 0.99970 -0.92600
H 	H 	0.64490 0.61380 0.96400 0.32500
H 	H 	0.70560 0.65020 0.97660 0.34300
H 	H 	0.70080 0.58250 0.00630 0.26000
C 	C 	0.70880 0.68220 0.11170 -0.55700
H 	H 	0.74930 0.66760 0.10100 0.02800
H 	H 	0.70330 0.72110 0.08580 0.20100
H 	H 	0.70300 0.68630 0.16960 0.14900
C 	C 	0.65990 0.55090 0.28290 -0.03800
H 	H 	0.65950 0.55860 0.33890 -0.02300
C 	C 	0.65930 0.60000 0.22830 0.00800
H 	H 	0.65650 0.64000 0.24680 0.00100
C 	C 	0.65640 0.53220 0.11720 0.15000
H 	H 	0.65120 0.52510 0.06160 -0.04800
C 	C 	0.65650 0.48000 0.17350 -0.11000
H 	H 	0.65340 0.44070 0.15280 0.03300
C 	C 	0.64300 0.69920 0.11560 -0.50600
H 	H 	0.67110 0.71480 0.15560 0.16800
H 	H 	0.63780 0.72870 0.07280 0.14600
H 	H 	0.60440 0.69140 0.14130 0.04700
C 	C 	0.61530 0.62530 0.02030 -0.52100
H 	H 	0.57370 0.63230 0.03630 0.11100
H 	H 	0.62440 0.64900 0.97250 0.13500
H 	H 	0.62090 0.58280 0.00830 0.15900
C 	C 	0.71740 0.65230 0.03560 -0.46900
H 	H 	0.72890 0.62170 0.99660 0.16200
H 	H 	0.71300 0.69080 0.00840 0.08100
H 	H 	0.74830 0.65550 0.07700 0.23800
Cd	Cd	0.08029 0.01124 0.95911 1.19700
O 	O 	0.08621 0.91788 0.04160 -0.38700
O 	O 	0.11760 0.82250 0.03610 -0.23400
O 	O 	0.17460 0.75674 0.94210 -0.26300
O 	O 	0.21814 0.76395 0.82030 -0.51700
N 	N 	0.13263 0.94364 0.88790 -0.23200
N 	N 	0.18360 0.88299 0.80190 -0.22500
C 	C 	0.11180 0.87590 0.00540 0.27100
C 	C 	0.18850 0.78590 0.87840 0.31900
C 	C 	0.13870 0.88770 0.92350 -0.02100
C 	C 	0.17050 0.85040 0.87150 -0.05500
C 	C 	0.15960 0.93830 0.81420 0.05600
C 	C 	0.16100 0.98850 0.75440 0.11500
C 	C 	0.11260 0.02280 0.74160 -0.23200
H 	H 	0.07640 0.01440 0.76900 0.07200
C 	C 	0.11530 0.07260 0.68610 0.23700
H 	H 	0.08100 0.09720 0.68120 -0.08600
C 	C 	0.16300 0.08600 0.64140 -0.46200
C 	C 	0.21720 0.04710 0.65290 0.12800
H 	H 	0.25210 0.05370 0.62200 -0.04300
C 	C 	0.21550 0.00080 0.71020 -0.17500
H 	H 	0.25020 0.97760 0.71990 0.05000
C 	C 	0.16160 0.13970 0.58260 0.93200
C 	C 	0.10440 0.17430 0.57570 -0.38200
H 	H 	0.09230 0.19230 0.62670 0.17300
H 	H 	0.10930 0.20560 0.53520 0.11100
H 	H 	0.07360 0.14610 0.55800 0.10700
C 	C 	0.17900 0.12010 0.49970 -0.93300
H 	H 	0.14490 0.11380 0.46400 0.32700
H 	H 	0.20560 0.15020 0.47660 0.34400
H 	H 	0.20080 0.08250 0.50630 0.26200
C 	C 	0.20880 0.18220 0.61170 -0.55500
H 	H 	0.24930 0.16760 0.60100 0.02600
H 	H 	0.20330 0.22110 0.58580 0.20100
H 	H 	0.20300 0.18630 0.66960 0.14900
C 	C 	0.15990 0.05090 0.78290 -0.03100
H 	H 	0.15950 0.05860 0.83890 -0.02500
C 	C 	0.15930 0.10000 0.72830 -0.00100
H 	H 	0.15650 0.14000 0.74680 0.00400
C 	C 	0.15640 0.03220 0.61720 0.14100
H 	H 	0.15120 0.02510 0.56160 -0.04500
C 	C 	0.15650 0.98000 0.67350 -0.10100
H 	H 	0.15340 0.94070 0.65280 0.03000
C 	C 	0.14300 0.19920 0.61560 -0.50900
H 	H 	0.17110 0.21480 0.65560 0.16900
H 	H 	0.13780 0.22870 0.57280 0.14600
H 	H 	0.10440 0.19140 0.64130 0.04500
C 	C 	0.11530 0.12530 0.52030 -0.52000
H 	H 	0.07370 0.13230 0.53630 0.11300
H 	H 	0.12440 0.14900 0.47250 0.13400
H 	H 	0.12090 0.08280 0.50830 0.15900
C 	C 	0.21740 0.15230 0.53560 -0.46900
H 	H 	0.22890 0.12170 0.49660 0.16200
H 	H 	0.21300 0.19080 0.50840 0.08100
H 	H 	0.24830 0.15550 0.57700 0.24100
Cd	Cd	0.76124 0.66971 0.70911 1.19900
O 	O 	0.66788 0.66379 0.79160 -0.38600
O 	O 	0.57250 0.63240 0.78610 -0.23300
O 	O 	0.50674 0.57540 0.69210 -0.26400
O 	O 	0.51395 0.53186 0.57030 -0.51700
N 	N 	0.69364 0.61737 0.63790 -0.23300
N 	N 	0.63299 0.56640 0.55190 -0.22500
C 	C 	0.62590 0.63820 0.75540 0.27400
C 	C 	0.53590 0.56150 0.62840 0.31900
C 	C 	0.63770 0.61130 0.67350 -0.02300
C 	C 	0.60040 0.57950 0.62150 -0.05500
C 	C 	0.68830 0.59040 0.56420 0.05800
C 	C 	0.73850 0.58900 0.50440 0.10600
C 	C 	0.77280 0.63740 0.49160 -0.21600
H 	H 	0.76440 0.67360 0.51900 0.06700
C 	C 	0.82260 0.63470 0.43610 0.22300
H 	H 	0.84720 0.66900 0.43120 -0.08100
C 	C 	0.83600 0.58700 0.39140 -0.45900
C 	C 	0.79710 0.53280 0.40290 0.11600
H 	H 	0.80370 0.49790 0.37200 -0.03900
C 	C 	0.75080 0.53450 0.46020 -0.15800
H 	H 	0.72760 0.49980 0.46990 0.04300
C 	C 	0.88970 0.58840 0.33260 0.93000
C 	C 	0.92430 0.64560 0.32570 -0.38200
H 	H 	0.94230 0.65770 0.37670 0.17200
H 	H 	0.95560 0.64070 0.28520 0.11100
H 	H 	0.89610 0.67640 0.30800 0.10700
C 	C 	0.87010 0.57100 0.24970 -0.93100
H 	H 	0.86380 0.60510 0.21400 0.32600
H 	H 	0.90020 0.54440 0.22660 0.34400
H 	H 	0.83250 0.54920 0.25630 0.26200
C 	C 	0.93220 0.54120 0.36170 -0.55400
H 	H 	0.91760 0.50070 0.35100 0.02600
H 	H 	0.97110 0.54670 0.33580 0.20000
H 	H 	0.93630 0.54700 0.41960 0.14800
C 	C 	0.80090 0.59010 0.53290 -0.03700
H 	H 	0.80860 0.59050 0.58890 -0.02300
C 	C 	0.85000 0.59070 0.47830 0.00700
H 	H 	0.89000 0.59350 0.49680 0.00100
C 	C 	0.78220 0.59360 0.36720 0.14900
H 	H 	0.77510 0.59880 0.31160 -0.04800
C 	C 	0.73000 0.59350 0.42350 -0.11000
H 	H 	0.69070 0.59660 0.40280 0.03300
C 	C 	0.94920 0.60700 0.36560 -0.50800
H 	H 	0.96480 0.57890 0.40560 0.16900
H 	H 	0.97870 0.61220 0.32280 0.14600
H 	H 	0.94140 0.64560 0.39130 0.04500
C 	C 	0.87530 0.63470 0.27030 -0.51900
H 	H 	0.88230 0.67630 0.28630 0.11200
H 	H 	0.89900 0.62560 0.22250 0.13400
H 	H 	0.83280 0.62910 0.25830 0.15800
C 	C 	0.90230 0.53260 0.28560 -0.46900
H 	H 	0.87170 0.52110 0.24660 0.16200
H 	H 	0.94080 0.53700 0.25840 0.08100
H 	H 	0.90550 0.50170 0.32700 0.24000
Cd	Cd	0.26124 0.16971 0.20911 1.19900
O 	O 	0.16788 0.16379 0.29160 -0.38600
O 	O 	0.07250 0.13240 0.28610 -0.23400
O 	O 	0.00674 0.07540 0.19210 -0.26400
O 	O 	0.01395 0.03186 0.07030 -0.51500
N 	N 	0.19364 0.11737 0.13790 -0.23200
N 	N 	0.13299 0.06640 0.05190 -0.22400
C 	C 	0.12590 0.13820 0.25540 0.27400
C 	C 	0.03590 0.06150 0.12840 0.31900
C 	C 	0.13770 0.11130 0.17350 -0.02300
C 	C 	0.10040 0.07950 0.12150 -0.05400
C 	C 	0.18830 0.09040 0.06420 0.05300
C 	C 	0.23850 0.08900 0.00440 0.12200
C 	C 	0.27280 0.13740 0.99160 -0.26000
H 	H 	0.26440 0.17360 0.01900 0.08400
C 	C 	0.32260 0.13470 0.93610 0.26000
H 	H 	0.34720 0.16900 0.93120 -0.09400
C 	C 	0.33600 0.08700 0.89140 -0.46400
C 	C 	0.29710 0.03280 0.90290 0.13400
H 	H 	0.30370 0.99790 0.87200 -0.04300
C 	C 	0.25080 0.03450 0.96020 -0.18700
H 	H 	0.22760 0.99980 0.96990 0.05600
C 	C 	0.38970 0.08840 0.83260 0.93300
C 	C 	0.42430 0.14560 0.82570 -0.38200
H 	H 	0.44230 0.15770 0.87670 0.17300
H 	H 	0.45560 0.14070 0.78520 0.11100
H 	H 	0.39610 0.17640 0.80800 0.10700
C 	C 	0.37010 0.07100 0.74970 -0.93300
H 	H 	0.36380 0.10510 0.71400 0.32700
H 	H 	0.40020 0.04440 0.72660 0.34400
H 	H 	0.33250 0.04920 0.75630 0.26200
C 	C 	0.43220 0.04120 0.86170 -0.55500
H 	H 	0.41760 0.00070 0.85100 0.02600
H 	H 	0.47110 0.04670 0.83580 0.20100
H 	H 	0.43630 0.04700 0.91960 0.14800
C 	C 	0.30090 0.09010 0.03290 -0.00800
H 	H 	0.30860 0.09050 0.08890 -0.03200
C 	C 	0.35000 0.09070 0.97830 -0.02200
H 	H 	0.39000 0.09350 0.99680 0.01100
C 	C 	0.28220 0.09360 0.86720 0.13400
H 	H 	0.27510 0.09880 0.81160 -0.04300
C 	C 	0.23000 0.09350 0.92350 -0.09600
H 	H 	0.19070 0.09660 0.90280 0.02800
C 	C 	0.44920 0.10700 0.86560 -0.51000
H 	H 	0.46480 0.07890 0.90560 0.16900
H 	H 	0.47870 0.11220 0.82280 0.14700
H 	H 	0.44140 0.14560 0.89130 0.04500
C 	C 	0.37530 0.13470 0.77030 -0.52100
H 	H 	0.38230 0.17630 0.78630 0.11300
H 	H 	0.39900 0.12560 0.72250 0.13400
H 	H 	0.33280 0.12910 0.75830 0.15900
C 	C 	0.40230 0.03260 0.78560 -0.47000
H 	H 	0.37170 0.02110 0.74660 0.16200
H 	H 	0.44080 0.03700 0.75840 0.08100
H 	H 	0.40550 0.00170 0.82700 0.24000
Cd	Cd	0.73876 0.33029 0.20911 1.19900
O 	O 	0.83212 0.33621 0.29160 -0.38600
O 	O 	0.92750 0.36760 0.28610 -0.23400
O 	O 	0.99326 0.42460 0.19210 -0.26400
O 	O 	0.98605 0.46814 0.07030 -0.51700
N 	N 	0.80636 0.38263 0.13790 -0.23200
N 	N 	0.86701 0.43360 0.05190 -0.22500
C 	C 	0.87410 0.36180 0.25540 0.27400
C 	C 	0.96410 0.43850 0.12840 0.31900
C 	C 	0.86230 0.38870 0.17350 -0.02300
C 	C 	0.89960 0.42050 0.12150 -0.05500
C 	C 	0.81170 0.40960 0.06420 0.05700
C 	C 	0.76150 0.41100 0.00440 0.11000
C 	C 	0.72720 0.36260 0.99160 -0.23000
H 	H 	0.73560 0.32640 0.01900 0.07300
C 	C 	0.67740 0.36530 0.93610 0.23400
H 	H 	0.65280 0.33100 0.93120 -0.08500
C 	C 	0.66400 0.41300 0.89140 -0.46100
C 	C 	0.70290 0.46720 0.90290 0.12200
H 	H 	0.69630 0.50210 0.87200 -0.04100
C 	C 	0.74920 0.46550 0.96020 -0.16500
H 	H 	0.77240 0.50020 0.96990 0.04600
C 	C 	0.61030 0.41160 0.83260 0.93200
C 	C 	0.57570 0.35440 0.82570 -0.38200
H 	H 	0.55770 0.34230 0.87670 0.17200
H 	H 	0.54440 0.35930 0.78520 0.11100
H 	H 	0.60390 0.32360 0.80800 0.10700
C 	C 	0.62990 0.42900 0.74970 -0.93200
H 	H 	0.63620 0.39490 0.71400 0.32700
H 	H 	0.59980 0.45560 0.72660 0.34400
H 	H 	0.66750 0.45080 0.75630 0.26200
C 	C 	0.56780 0.45880 0.86170 -0.55500
H 	H 	0.58240 0.49930 0.85100 0.02600
H 	H 	0.52890 0.45330 0.83580 0.20100
H 	H 	0.56370 0.45300 0.91960 0.14900
C 	C 	0.69910 0.40990 0.03290 -0.02800
H 	H 	0.69140 0.40950 0.08890 -0.02600
C 	C 	0.65000 0.40930 0.97830 -0.00100
H 	H 	0.61000 0.40650 0.99680 0.00400
C 	C 	0.71780 0.40640 0.86720 0.14500
H 	H 	0.72490 0.40120 0.81160 -0.04600
C 	C 	0.77000 0.40650 0.92350 -0.10600
H 	H 	0.80930 0.40340 0.90280 0.03100
C 	C 	0.55080 0.39300 0.86560 -0.50900
H 	H 	0.53520 0.42110 0.90560 0.16900
H 	H 	0.52130 0.38780 0.82280 0.14600
H 	H 	0.55860 0.35440 0.89130 0.04500
C 	C 	0.62470 0.36530 0.77030 -0.52000
H 	H 	0.61770 0.32370 0.78630 0.11300
H 	H 	0.60100 0.37440 0.72250 0.13400
H 	H 	0.66720 0.37090 0.75830 0.15900
C 	C 	0.59770 0.46740 0.78560 -0.46900
H 	H 	0.62830 0.47890 0.74660 0.16200
H 	H 	0.55920 0.46300 0.75840 0.08100
H 	H 	0.59450 0.49830 0.82700 0.24100
Cd	Cd	0.23876 0.83029 0.70911 1.19900
O 	O 	0.33212 0.83621 0.79160 -0.38600
O 	O 	0.42750 0.86760 0.78610 -0.23300
O 	O 	0.49326 0.92460 0.69210 -0.26300
O 	O 	0.48605 0.96814 0.57030 -0.51600
N 	N 	0.30636 0.88263 0.63790 -0.23300
N 	N 	0.36701 0.93360 0.55190 -0.22500
C 	C 	0.37410 0.86180 0.75540 0.27400
C 	C 	0.46410 0.93850 0.62840 0.31900
C 	C 	0.36230 0.88870 0.67350 -0.02300
C 	C 	0.39960 0.92050 0.62150 -0.05400
C 	C 	0.31170 0.90960 0.56420 0.05800
C 	C 	0.26150 0.91100 0.50440 0.10600
C 	C 	0.22720 0.86260 0.49160 -0.21400
H 	H 	0.23560 0.82640 0.51900 0.06600
C 	C 	0.17740 0.86530 0.43610 0.22000
H 	H 	0.15280 0.83100 0.43120 -0.08000
C 	C 	0.16400 0.91300 0.39140 -0.45800
C 	C 	0.20290 0.96720 0.40290 0.11400
H 	H 	0.19630 0.00210 0.37200 -0.03700
C 	C 	0.24920 0.96550 0.46020 -0.15600
H 	H 	0.27240 0.00020 0.46990 0.04300
C 	C 	0.11030 0.91160 0.33260 0.92900
C 	C 	0.07570 0.85440 0.32570 -0.38200
H 	H 	0.05770 0.84230 0.37670 0.17200
H 	H 	0.04440 0.85930 0.28520 0.11100
H 	H 	0.10390 0.82360 0.30800 0.10700
C 	C 	0.12990 0.92900 0.24970 -0.92900
H 	H 	0.13620 0.89490 0.21400 0.32500
H 	H 	0.09980 0.95560 0.22660 0.34300
H 	H 	0.16750 0.95080 0.25630 0.26100
C 	C 	0.06780 0.95880 0.36170 -0.55400
H 	H 	0.08240 0.99930 0.35100 0.02600
H 	H 	0.02890 0.95330 0.33580 0.20000
H 	H 	0.06370 0.95300 0.41960 0.14800
C 	C 	0.19910 0.90990 0.53290 -0.03900
H 	H 	0.19140 0.90950 0.58890 -0.02200
C 	C 	0.15000 0.90930 0.47830 0.00900
H 	H 	0.11000 0.90650 0.49680 0.00100
C 	C 	0.21780 0.90640 0.36720 0.15100
H 	H 	0.22490 0.90120 0.31160 -0.04900
C 	C 	0.27000 0.90650 0.42350 -0.11100
H 	H 	0.30930 0.90340 0.40280 0.03400
C 	C 	0.05080 0.89300 0.36560 -0.50800
H 	H 	0.03520 0.92110 0.40560 0.16900
H 	H 	0.02130 0.88780 0.32280 0.14600
H 	H 	0.05860 0.85440 0.39130 0.04500
C 	C 	0.12470 0.86530 0.27030 -0.51900
H 	H 	0.11770 0.82370 0.28630 0.11200
H 	H 	0.10100 0.87440 0.22250 0.13400
H 	H 	0.16720 0.87090 0.25830 0.15800
C 	C 	0.09770 0.96740 0.28560 -0.46900
H 	H 	0.12830 0.97890 0.24660 0.16100
H 	H 	0.05920 0.96300 0.25840 0.08100
H 	H 	0.09450 0.99830 0.32700 0.24000
