data_crystal

_cell_length_a 18.83270
_cell_length_b 18.83270
_cell_length_c 18.83270
_cell_angle_alpha 72.80770
_cell_angle_beta  72.80770
_cell_angle_gamma 72.80770

_symmetry_space_group_name_	'P 1'
_symmetry_space_group_name_H-M	'P 1'

loop_
_symmetry_equiv_pos_as_xyz
  x,y,z

loop_
_atom_site_label
_atom_site_type_symbol
_atom_site_fract_x
_atom_site_fract_y
_atom_site_fract_z
_atom_site_charge
Cu	Cu	0.41282 0.26827 0.85036 0.90100
Cu	Cu	0.85036 0.41282 0.26827 0.90100
Cu	Cu	0.26827 0.85036 0.41282 0.90100
Cu	Cu	0.23173 0.08719 0.64964 0.90100
Cu	Cu	0.08718 0.64964 0.23173 0.90100
Cu	Cu	0.64964 0.23173 0.08718 0.90100
Cu	Cu	0.58718 0.73173 0.14964 0.90100
Cu	Cu	0.14964 0.58718 0.73173 0.90100
Cu	Cu	0.73173 0.14964 0.58718 0.90100
Cu	Cu	0.76827 0.91282 0.35036 0.90100
Cu	Cu	0.91282 0.35036 0.76827 0.90100
Cu	Cu	0.35036 0.76827 0.91282 0.90100
H 	H 	0.43960 0.30500 0.98180 -0.00700
H 	H 	0.37320 0.37510 0.07410 0.11500
H 	H 	0.18460 0.41390 0.99590 0.11100
H 	H 	0.25590 0.34200 0.90800 0.01500
H 	H 	0.98180 0.43960 0.30500 -0.00700
H 	H 	0.07410 0.37320 0.37510 0.11500
H 	H 	0.99590 0.18460 0.41390 0.11100
H 	H 	0.90800 0.25590 0.34200 0.01500
H 	H 	0.30500 0.98180 0.43960 -0.00700
H 	H 	0.37510 0.07410 0.37320 0.11500
H 	H 	0.41390 0.99590 0.18460 0.11100
H 	H 	0.34200 0.90800 0.25590 0.01500
H 	H 	0.19500 0.06040 0.51820 -0.00700
H 	H 	0.12490 0.12680 0.42590 0.11400
H 	H 	0.08610 0.31540 0.50410 0.11200
H 	H 	0.15800 0.24410 0.59200 0.01400
H 	H 	0.06040 0.51820 0.19500 -0.00700
H 	H 	0.12680 0.42590 0.12490 0.11400
H 	H 	0.31540 0.50410 0.08610 0.11200
H 	H 	0.24410 0.59200 0.15800 0.01400
H 	H 	0.51820 0.19500 0.06040 -0.00700
H 	H 	0.42590 0.12490 0.12680 0.11400
H 	H 	0.50410 0.08610 0.31540 0.11200
H 	H 	0.59200 0.15800 0.24410 0.01400
H 	H 	0.56040 0.69500 0.01820 -0.00700
H 	H 	0.62680 0.62490 0.92590 0.11500
H 	H 	0.81540 0.58610 0.00410 0.11100
H 	H 	0.74410 0.65800 0.09200 0.01500
H 	H 	0.01820 0.56040 0.69500 -0.00700
H 	H 	0.92590 0.62680 0.62490 0.11500
H 	H 	0.00410 0.81540 0.58610 0.11100
H 	H 	0.09200 0.74410 0.65800 0.01500
H 	H 	0.69500 0.01820 0.56040 -0.00700
H 	H 	0.62490 0.92590 0.62680 0.11500
H 	H 	0.58610 0.00410 0.81540 0.11100
H 	H 	0.65800 0.09200 0.74410 0.01500
H 	H 	0.80500 0.93960 0.48180 -0.00700
H 	H 	0.87510 0.87320 0.57410 0.11400
H 	H 	0.91390 0.68460 0.49590 0.11200
H 	H 	0.84200 0.75590 0.40800 0.01400
H 	H 	0.93960 0.48180 0.80500 -0.00700
H 	H 	0.87320 0.57410 0.87510 0.11400
H 	H 	0.68460 0.49590 0.91390 0.11200
H 	H 	0.75590 0.40800 0.84200 0.01400
H 	H 	0.48180 0.80500 0.93960 -0.00700
H 	H 	0.57410 0.87510 0.87320 0.11400
H 	H 	0.49590 0.91390 0.68460 0.11200
H 	H 	0.40800 0.84200 0.75590 0.01400
C 	C 	0.27691 0.91391 0.92211 0.42500
C 	C 	0.25420 0.98480 0.95400 -0.21700
C 	C 	0.18586 0.00146 0.00706 0.28300
C 	C 	0.16130 0.06900 0.03320 -0.16900
C 	C 	0.38739 0.32749 0.98509 0.12600
C 	C 	0.34804 0.36994 0.04034 -0.13100
C 	C 	0.27151 0.40431 0.04431 0.09200
C 	C 	0.23678 0.39258 0.99408 -0.11300
C 	C 	0.27964 0.34944 0.94174 0.11900
C 	C 	0.34368 0.14708 0.94158 0.47500
C 	C 	0.28493 0.10043 0.95923 -0.23500
C 	C 	0.30360 0.03450 0.93200 0.30600
C 	C 	0.21417 0.11637 0.00937 0.29300
C 	C 	0.92211 0.27691 0.91391 0.42500
C 	C 	0.95400 0.25420 0.98480 -0.21700
C 	C 	0.00706 0.18586 0.00146 0.28300
C 	C 	0.03320 0.16130 0.06900 -0.16900
C 	C 	0.98509 0.38739 0.32749 0.12600
C 	C 	0.04034 0.34804 0.36994 -0.13100
C 	C 	0.04431 0.27151 0.40431 0.09200
C 	C 	0.99408 0.23678 0.39258 -0.11300
C 	C 	0.94174 0.27964 0.34944 0.11900
C 	C 	0.94158 0.34368 0.14708 0.47500
C 	C 	0.95923 0.28493 0.10043 -0.23500
C 	C 	0.93200 0.30360 0.03450 0.30600
C 	C 	0.00937 0.21417 0.11637 0.29300
C 	C 	0.91391 0.92211 0.27691 0.42500
C 	C 	0.98480 0.95400 0.25420 -0.21700
C 	C 	0.00146 0.00706 0.18586 0.28300
C 	C 	0.06900 0.03320 0.16130 -0.16900
C 	C 	0.32749 0.98509 0.38739 0.12600
C 	C 	0.36994 0.04034 0.34804 -0.13100
C 	C 	0.40431 0.04431 0.27151 0.09200
C 	C 	0.39258 0.99408 0.23678 -0.11300
C 	C 	0.34944 0.94174 0.27964 0.11900
C 	C 	0.14708 0.94158 0.34368 0.47500
C 	C 	0.10043 0.95923 0.28493 -0.23500
C 	C 	0.03450 0.93200 0.30360 0.30600
C 	C 	0.11637 0.00937 0.21417 0.29300
C 	C 	0.58609 0.22309 0.57789 0.42700
C 	C 	0.51520 0.24580 0.54600 -0.22200
C 	C 	0.49854 0.31414 0.49294 0.29400
C 	C 	0.43100 0.33870 0.46680 -0.17400
C 	C 	0.17251 0.11261 0.51491 0.12400
C 	C 	0.13006 0.15196 0.45966 -0.13000
C 	C 	0.09569 0.22849 0.45569 0.09500
C 	C 	0.10742 0.26322 0.50592 -0.11700
C 	C 	0.15056 0.22036 0.55826 0.11900
C 	C 	0.35292 0.15632 0.55842 0.47700
C 	C 	0.39957 0.21507 0.54077 -0.24200
C 	C 	0.46550 0.19640 0.56800 0.30800
C 	C 	0.38363 0.28583 0.49063 0.29900
C 	C 	0.22309 0.57789 0.58609 0.42700
C 	C 	0.24580 0.54600 0.51520 -0.22200
C 	C 	0.31414 0.49294 0.49854 0.29400
C 	C 	0.33870 0.46680 0.43100 -0.17400
C 	C 	0.11261 0.51491 0.17251 0.12400
C 	C 	0.15196 0.45966 0.13006 -0.13000
C 	C 	0.22849 0.45569 0.09569 0.09500
C 	C 	0.26322 0.50592 0.10742 -0.11700
C 	C 	0.22036 0.55826 0.15056 0.11900
C 	C 	0.15632 0.55842 0.35292 0.47700
C 	C 	0.21507 0.54077 0.39957 -0.24200
C 	C 	0.19640 0.56800 0.46550 0.30800
C 	C 	0.28583 0.49063 0.38363 0.29900
C 	C 	0.57789 0.58609 0.22309 0.42700
C 	C 	0.54600 0.51520 0.24580 -0.22200
C 	C 	0.49294 0.49854 0.31414 0.29400
C 	C 	0.46680 0.43100 0.33870 -0.17400
C 	C 	0.51491 0.17251 0.11261 0.12400
C 	C 	0.45966 0.13006 0.15196 -0.13000
C 	C 	0.45569 0.09569 0.22849 0.09500
C 	C 	0.50592 0.10742 0.26322 -0.11700
C 	C 	0.55826 0.15056 0.22036 0.11900
C 	C 	0.55842 0.35292 0.15632 0.47700
C 	C 	0.54077 0.39957 0.21507 -0.24200
C 	C 	0.56800 0.46550 0.19640 0.30800
C 	C 	0.49063 0.38363 0.28583 0.29900
C 	C 	0.72309 0.08609 0.07789 0.42500
C 	C 	0.74580 0.01520 0.04600 -0.21700
C 	C 	0.81414 0.99854 0.99294 0.28300
C 	C 	0.83870 0.93100 0.96680 -0.16900
C 	C 	0.61261 0.67251 0.01491 0.12600
C 	C 	0.65196 0.63006 0.95966 -0.13100
C 	C 	0.72849 0.59569 0.95569 0.09200
C 	C 	0.76322 0.60742 0.00592 -0.11300
C 	C 	0.72036 0.65056 0.05826 0.11900
C 	C 	0.65632 0.85292 0.05842 0.47500
C 	C 	0.71507 0.89957 0.04077 -0.23500
C 	C 	0.69640 0.96550 0.06800 0.30600
C 	C 	0.78583 0.88363 0.99063 0.29300
C 	C 	0.07789 0.72309 0.08609 0.42500
C 	C 	0.04600 0.74580 0.01520 -0.21700
C 	C 	0.99294 0.81414 0.99854 0.28300
C 	C 	0.96680 0.83870 0.93100 -0.16900
C 	C 	0.01491 0.61261 0.67251 0.12600
C 	C 	0.95966 0.65196 0.63006 -0.13100
C 	C 	0.95569 0.72849 0.59569 0.09200
C 	C 	0.00592 0.76322 0.60742 -0.11300
C 	C 	0.05826 0.72036 0.65056 0.11900
C 	C 	0.05842 0.65632 0.85292 0.47500
C 	C 	0.04077 0.71507 0.89957 -0.23500
C 	C 	0.06800 0.69640 0.96550 0.30600
C 	C 	0.99063 0.78583 0.88363 0.29300
C 	C 	0.08609 0.07789 0.72309 0.42500
C 	C 	0.01520 0.04600 0.74580 -0.21700
C 	C 	0.99854 0.99294 0.81414 0.28300
C 	C 	0.93100 0.96680 0.83870 -0.16900
C 	C 	0.67251 0.01491 0.61261 0.12600
C 	C 	0.63006 0.95966 0.65196 -0.13100
C 	C 	0.59569 0.95569 0.72849 0.09200
C 	C 	0.60742 0.00592 0.76322 -0.11300
C 	C 	0.65056 0.05826 0.72036 0.11900
C 	C 	0.85292 0.05842 0.65632 0.47500
C 	C 	0.89957 0.04077 0.71507 -0.23500
C 	C 	0.96550 0.06800 0.69640 0.30600
C 	C 	0.88363 0.99063 0.78583 0.29300
C 	C 	0.41391 0.77691 0.42211 0.42700
C 	C 	0.48480 0.75420 0.45400 -0.22200
C 	C 	0.50146 0.68586 0.50706 0.29400
C 	C 	0.56900 0.66130 0.53320 -0.17400
C 	C 	0.82749 0.88739 0.48509 0.12400
C 	C 	0.86994 0.84804 0.54034 -0.13000
C 	C 	0.90431 0.77151 0.54431 0.09500
C 	C 	0.89258 0.73678 0.49408 -0.11700
C 	C 	0.84944 0.77964 0.44174 0.11900
C 	C 	0.64708 0.84368 0.44158 0.47700
C 	C 	0.60043 0.78493 0.45923 -0.24200
C 	C 	0.53450 0.80360 0.43200 0.30800
C 	C 	0.61637 0.71417 0.50937 0.29900
C 	C 	0.77691 0.42211 0.41391 0.42700
C 	C 	0.75420 0.45400 0.48480 -0.22200
C 	C 	0.68586 0.50706 0.50146 0.29400
C 	C 	0.66130 0.53320 0.56900 -0.17400
C 	C 	0.88739 0.48509 0.82749 0.12400
C 	C 	0.84804 0.54034 0.86994 -0.13000
C 	C 	0.77151 0.54431 0.90431 0.09500
C 	C 	0.73678 0.49408 0.89258 -0.11700
C 	C 	0.77964 0.44174 0.84944 0.11900
C 	C 	0.84368 0.44158 0.64708 0.47700
C 	C 	0.78493 0.45923 0.60043 -0.24200
C 	C 	0.80360 0.43200 0.53450 0.30800
C 	C 	0.71417 0.50937 0.61637 0.29900
C 	C 	0.42211 0.41391 0.77691 0.42700
C 	C 	0.45400 0.48480 0.75420 -0.22200
C 	C 	0.50706 0.50146 0.68586 0.29400
C 	C 	0.53320 0.56900 0.66130 -0.17400
C 	C 	0.48509 0.82749 0.88739 0.12400
C 	C 	0.54034 0.86994 0.84804 -0.13000
C 	C 	0.54431 0.90431 0.77151 0.09500
C 	C 	0.49408 0.89258 0.73678 -0.11700
C 	C 	0.44174 0.84944 0.77964 0.11900
C 	C 	0.44158 0.64708 0.84368 0.47700
C 	C 	0.45923 0.60043 0.78493 -0.24200
C 	C 	0.43200 0.53450 0.80360 0.30800
C 	C 	0.50937 0.61637 0.71417 0.29900
C 	C 	0.08653 0.08653 0.08653 0.24800
C 	C 	0.41347 0.41347 0.41347 0.25300
C 	C 	0.91347 0.91347 0.91347 0.24800
C 	C 	0.58653 0.58653 0.58653 0.25300
N 	N 	0.35371 0.31771 0.93741 -0.21900
N 	N 	0.93741 0.35371 0.31771 -0.21900
N 	N 	0.31771 0.93741 0.35371 -0.21900
N 	N 	0.18229 0.14629 0.56259 -0.21900
N 	N 	0.14629 0.56259 0.18229 -0.21900
N 	N 	0.56259 0.18229 0.14629 -0.21900
N 	N 	0.64629 0.68229 0.06259 -0.21900
N 	N 	0.06259 0.64629 0.68229 -0.21900
N 	N 	0.68229 0.06259 0.64629 -0.21900
N 	N 	0.81771 0.85371 0.43741 -0.21900
N 	N 	0.85371 0.43741 0.81771 -0.21900
N 	N 	0.43741 0.81771 0.85371 -0.21900
Cl	Cl	0.38891 0.01573 0.86636 -0.34100
Cl	Cl	0.12773 0.93766 0.03359 -0.24900
Cl	Cl	0.19170 0.20005 0.04035 -0.30800
Cl	Cl	0.86636 0.38891 0.01573 -0.34100
Cl	Cl	0.03359 0.12773 0.93766 -0.24900
Cl	Cl	0.04035 0.19170 0.20005 -0.30800
Cl	Cl	0.01573 0.86636 0.38891 -0.34100
Cl	Cl	0.93766 0.03359 0.12773 -0.24900
Cl	Cl	0.20005 0.04035 0.19170 -0.30800
Cl	Cl	0.48427 0.11109 0.63364 -0.34200
Cl	Cl	0.56234 0.37227 0.46641 -0.25400
Cl	Cl	0.29995 0.30830 0.45965 -0.30700
Cl	Cl	0.11109 0.63364 0.48427 -0.34200
Cl	Cl	0.37227 0.46641 0.56234 -0.25400
Cl	Cl	0.30830 0.45965 0.29995 -0.30700
Cl	Cl	0.63364 0.48427 0.11109 -0.34200
Cl	Cl	0.46641 0.56234 0.37227 -0.25400
Cl	Cl	0.45965 0.29995 0.30830 -0.30700
Cl	Cl	0.61109 0.98427 0.13364 -0.34100
Cl	Cl	0.87227 0.06234 0.96641 -0.24900
Cl	Cl	0.80830 0.79995 0.95965 -0.30800
Cl	Cl	0.13364 0.61109 0.98427 -0.34100
Cl	Cl	0.96641 0.87227 0.06234 -0.24900
Cl	Cl	0.95965 0.80830 0.79995 -0.30800
Cl	Cl	0.98427 0.13364 0.61109 -0.34100
Cl	Cl	0.06234 0.96641 0.87227 -0.24900
Cl	Cl	0.79995 0.95965 0.80830 -0.30800
Cl	Cl	0.51573 0.88891 0.36636 -0.34200
Cl	Cl	0.43766 0.62773 0.53359 -0.25400
Cl	Cl	0.70005 0.69170 0.54035 -0.30700
Cl	Cl	0.88891 0.36636 0.51573 -0.34200
Cl	Cl	0.62773 0.53359 0.43766 -0.25400
Cl	Cl	0.69170 0.54035 0.70005 -0.30700
Cl	Cl	0.36636 0.51573 0.88891 -0.34200
Cl	Cl	0.53359 0.43766 0.62773 -0.25400
Cl	Cl	0.54035 0.70005 0.69170 -0.30700
O 	O 	0.34747 0.19597 0.88437 -0.42100
O 	O 	0.30639 0.85349 0.96346 -0.38700
O 	O 	0.26648 0.92068 0.85818 -0.26900
O 	O 	0.38479 0.12909 0.98839 -0.27600
O 	O 	0.88437 0.34747 0.19597 -0.42100
O 	O 	0.96346 0.30639 0.85349 -0.38700
O 	O 	0.85818 0.26648 0.92068 -0.26900
O 	O 	0.98839 0.38479 0.12909 -0.27600
O 	O 	0.19597 0.88437 0.34747 -0.42100
O 	O 	0.85349 0.96346 0.30639 -0.38700
O 	O 	0.92068 0.85818 0.26648 -0.26900
O 	O 	0.12909 0.98839 0.38479 -0.27600
O 	O 	0.30403 0.15253 0.61563 -0.42200
O 	O 	0.64651 0.19361 0.53654 -0.38700
O 	O 	0.57932 0.23352 0.64182 -0.26900
O 	O 	0.37091 0.11521 0.51161 -0.27800
O 	O 	0.15253 0.61563 0.30403 -0.42200
O 	O 	0.19361 0.53654 0.64651 -0.38700
O 	O 	0.23352 0.64182 0.57932 -0.26900
O 	O 	0.11521 0.51161 0.37091 -0.27800
O 	O 	0.61563 0.30403 0.15253 -0.42200
O 	O 	0.53654 0.64651 0.19361 -0.38700
O 	O 	0.64182 0.57932 0.23352 -0.26900
O 	O 	0.51161 0.37091 0.11521 -0.27800
O 	O 	0.65253 0.80403 0.11563 -0.42100
O 	O 	0.69361 0.14651 0.03654 -0.38700
O 	O 	0.73352 0.07932 0.14182 -0.26900
O 	O 	0.61521 0.87091 0.01161 -0.27600
O 	O 	0.11563 0.65253 0.80403 -0.42100
O 	O 	0.03654 0.69361 0.14651 -0.38700
O 	O 	0.14182 0.73352 0.07932 -0.26900
O 	O 	0.01161 0.61521 0.87091 -0.27600
O 	O 	0.80403 0.11563 0.65253 -0.42100
O 	O 	0.14651 0.03654 0.69361 -0.38700
O 	O 	0.07932 0.14182 0.73352 -0.26900
O 	O 	0.87091 0.01161 0.61521 -0.27600
O 	O 	0.69597 0.84747 0.38437 -0.42200
O 	O 	0.35349 0.80639 0.46346 -0.38700
O 	O 	0.42068 0.76648 0.35818 -0.26900
O 	O 	0.62909 0.88479 0.48839 -0.27800
O 	O 	0.84747 0.38437 0.69597 -0.42200
O 	O 	0.80639 0.46346 0.35349 -0.38700
O 	O 	0.76648 0.35818 0.42068 -0.26900
O 	O 	0.88479 0.48839 0.62909 -0.27800
O 	O 	0.38437 0.69597 0.84747 -0.42200
O 	O 	0.46346 0.35349 0.80639 -0.38700
O 	O 	0.35818 0.42068 0.76648 -0.26900
O 	O 	0.48839 0.62909 0.88479 -0.27800
