data_crystal

_cell_length_a 18.87640
_cell_length_b 18.87640
_cell_length_c 18.87640
_cell_angle_alpha 72.96870
_cell_angle_beta  72.96870
_cell_angle_gamma 72.96870

_symmetry_space_group_name_	'P 1'
_symmetry_space_group_name_H-M	'P 1'

loop_
_symmetry_equiv_pos_as_xyz
  x,y,z

loop_
_atom_site_label
_atom_site_type_symbol
_atom_site_fract_x
_atom_site_fract_y
_atom_site_fract_z
_atom_site_charge
Cu	Cu	0.41057 0.26859 0.85191 0.89800
Cu	Cu	0.85191 0.41057 0.26859 0.89800
Cu	Cu	0.26859 0.85191 0.41057 0.89800
Cu	Cu	0.23141 0.08943 0.64809 0.89800
Cu	Cu	0.08943 0.64809 0.23141 0.89800
Cu	Cu	0.64809 0.23141 0.08943 0.89800
Cu	Cu	0.58943 0.73141 0.14809 0.89800
Cu	Cu	0.14809 0.58943 0.73141 0.89800
Cu	Cu	0.73141 0.14809 0.58943 0.89800
Cu	Cu	0.76859 0.91057 0.35191 0.89800
Cu	Cu	0.91057 0.35191 0.76859 0.89800
Cu	Cu	0.35191 0.76859 0.91057 0.89800
H 	H 	0.44020 0.30420 0.98380 -0.00800
H 	H 	0.37480 0.37040 0.07810 0.11600
H 	H 	0.18400 0.40320 0.00690 0.11500
H 	H 	0.25500 0.33560 0.91590 0.01200
H 	H 	0.98380 0.44020 0.30420 -0.00800
H 	H 	0.07810 0.37480 0.37040 0.11600
H 	H 	0.00690 0.18400 0.40320 0.11500
H 	H 	0.91590 0.25500 0.33560 0.01200
H 	H 	0.30420 0.98380 0.44020 -0.00800
H 	H 	0.37040 0.07810 0.37480 0.11600
H 	H 	0.40320 0.00690 0.18400 0.11600
H 	H 	0.33560 0.91590 0.25500 0.01300
H 	H 	0.19580 0.05980 0.51620 -0.00700
H 	H 	0.12960 0.12520 0.42190 0.11400
H 	H 	0.09680 0.31600 0.49310 0.11400
H 	H 	0.16440 0.24500 0.58410 0.01400
H 	H 	0.05980 0.51620 0.19580 -0.00700
H 	H 	0.12520 0.42190 0.12960 0.11400
H 	H 	0.31600 0.49310 0.09680 0.11400
H 	H 	0.24500 0.58410 0.16440 0.01400
H 	H 	0.51620 0.19580 0.05980 -0.00700
H 	H 	0.42190 0.12960 0.12520 0.11400
H 	H 	0.49310 0.09680 0.31600 0.11400
H 	H 	0.58410 0.16440 0.24500 0.01400
H 	H 	0.55980 0.69580 0.01620 -0.00700
H 	H 	0.62520 0.62960 0.92190 0.11700
H 	H 	0.81600 0.59680 0.99310 0.11600
H 	H 	0.74500 0.66440 0.08410 0.01300
H 	H 	0.01620 0.55980 0.69580 -0.00700
H 	H 	0.92190 0.62520 0.62960 0.11700
H 	H 	0.99310 0.81600 0.59680 0.11600
H 	H 	0.08410 0.74500 0.66440 0.01300
H 	H 	0.69580 0.01620 0.55980 -0.00700
H 	H 	0.62960 0.92190 0.62520 0.11700
H 	H 	0.59680 0.99310 0.81600 0.11600
H 	H 	0.66440 0.08410 0.74500 0.01300
H 	H 	0.80420 0.94020 0.48380 -0.00700
H 	H 	0.87040 0.87480 0.57810 0.11400
H 	H 	0.90320 0.68400 0.50690 0.11400
H 	H 	0.83560 0.75500 0.41590 0.01400
H 	H 	0.94020 0.48380 0.80420 -0.00700
H 	H 	0.87480 0.57810 0.87040 0.11400
H 	H 	0.68400 0.50690 0.90320 0.11400
H 	H 	0.75500 0.41590 0.83560 0.01400
H 	H 	0.48380 0.80420 0.94020 -0.00700
H 	H 	0.57810 0.87040 0.87480 0.11400
H 	H 	0.50690 0.90320 0.68400 0.11400
H 	H 	0.41590 0.83560 0.75500 0.01400
H 	H 	0.05643 0.05643 0.05643 0.08400
H 	H 	0.44357 0.44357 0.44357 0.08500
H 	H 	0.94357 0.94357 0.94357 0.08400
H 	H 	0.55643 0.55643 0.55643 0.08500
C 	C 	0.34261 0.14531 0.94661 0.43600
C 	C 	0.28017 0.91397 0.91927 0.41800
C 	C 	0.28487 0.09757 0.96227 -0.21700
C 	C 	0.30430 0.03340 0.93300 0.30000
C 	C 	0.25671 0.98401 0.95291 -0.20800
C 	C 	0.18726 0.00016 0.00486 0.26100
C 	C 	0.16205 0.06645 0.03305 -0.13100
C 	C 	0.21290 0.11400 0.00950 0.28000
C 	C 	0.38781 0.32521 0.98851 0.13000
C 	C 	0.34930 0.36500 0.04480 -0.13900
C 	C 	0.27156 0.39706 0.05076 0.10000
C 	C 	0.23660 0.38430 0.00290 -0.13100
C 	C 	0.27944 0.34364 0.94864 0.13000
C 	C 	0.94661 0.34261 0.14531 0.43600
C 	C 	0.91927 0.28017 0.91397 0.41800
C 	C 	0.96227 0.28487 0.09757 -0.21700
C 	C 	0.93300 0.30430 0.03340 0.30000
C 	C 	0.95291 0.25671 0.98401 -0.20800
C 	C 	0.00486 0.18726 0.00016 0.26100
C 	C 	0.03305 0.16205 0.06645 -0.13100
C 	C 	0.00950 0.21290 0.11400 0.28000
C 	C 	0.98851 0.38781 0.32521 0.13000
C 	C 	0.04480 0.34930 0.36500 -0.13900
C 	C 	0.05076 0.27156 0.39706 0.10000
C 	C 	0.00290 0.23660 0.38430 -0.13100
C 	C 	0.94864 0.27944 0.34364 0.13000
C 	C 	0.14531 0.94661 0.34261 0.43600
C 	C 	0.91397 0.91927 0.28017 0.41800
C 	C 	0.09757 0.96227 0.28487 -0.21700
C 	C 	0.03340 0.93300 0.30430 0.30000
C 	C 	0.98401 0.95291 0.25671 -0.20800
C 	C 	0.00016 0.00486 0.18726 0.26100
C 	C 	0.06645 0.03305 0.16205 -0.13100
C 	C 	0.11400 0.00950 0.21290 0.28000
C 	C 	0.32521 0.98851 0.38781 0.13000
C 	C 	0.36500 0.04480 0.34930 -0.13900
C 	C 	0.39706 0.05076 0.27156 0.10000
C 	C 	0.38430 0.00290 0.23660 -0.13100
C 	C 	0.34364 0.94864 0.27944 0.13000
C 	C 	0.35469 0.15739 0.55339 0.43700
C 	C 	0.58603 0.21983 0.58073 0.42000
C 	C 	0.40243 0.21513 0.53773 -0.22400
C 	C 	0.46660 0.19570 0.56700 0.30200
C 	C 	0.51599 0.24329 0.54709 -0.21300
C 	C 	0.49984 0.31274 0.49514 0.27200
C 	C 	0.43355 0.33795 0.46695 -0.13600
C 	C 	0.38600 0.28710 0.49050 0.28600
C 	C 	0.17479 0.11219 0.51149 0.12400
C 	C 	0.13500 0.15070 0.45520 -0.13200
C 	C 	0.10294 0.22844 0.44924 0.09300
C 	C 	0.11570 0.26340 0.49710 -0.12200
C 	C 	0.15636 0.22056 0.55136 0.12300
C 	C 	0.15739 0.55339 0.35469 0.43700
C 	C 	0.21983 0.58073 0.58603 0.42000
C 	C 	0.21513 0.53773 0.40243 -0.22400
C 	C 	0.19570 0.56700 0.46660 0.30200
C 	C 	0.24329 0.54709 0.51599 -0.21300
C 	C 	0.31274 0.49514 0.49984 0.27200
C 	C 	0.33795 0.46695 0.43355 -0.13600
C 	C 	0.28710 0.49050 0.38600 0.28600
C 	C 	0.11219 0.51149 0.17479 0.12400
C 	C 	0.15070 0.45520 0.13500 -0.13200
C 	C 	0.22844 0.44924 0.10294 0.09300
C 	C 	0.26340 0.49710 0.11570 -0.12200
C 	C 	0.22056 0.55136 0.15636 0.12300
C 	C 	0.55339 0.35469 0.15739 0.43700
C 	C 	0.58073 0.58603 0.21983 0.42000
C 	C 	0.53773 0.40243 0.21513 -0.22400
C 	C 	0.56700 0.46660 0.19570 0.30200
C 	C 	0.54709 0.51599 0.24329 -0.21300
C 	C 	0.49514 0.49984 0.31274 0.27200
C 	C 	0.46695 0.43355 0.33795 -0.13600
C 	C 	0.49050 0.38600 0.28710 0.28600
C 	C 	0.51149 0.17479 0.11219 0.12400
C 	C 	0.45520 0.13500 0.15070 -0.13200
C 	C 	0.44924 0.10294 0.22844 0.09300
C 	C 	0.49710 0.11570 0.26340 -0.12200
C 	C 	0.55136 0.15636 0.22056 0.12300
C 	C 	0.65739 0.85469 0.05339 0.43600
C 	C 	0.71983 0.08603 0.08073 0.41800
C 	C 	0.71513 0.90243 0.03773 -0.21700
C 	C 	0.69570 0.96660 0.06700 0.30000
C 	C 	0.74329 0.01599 0.04709 -0.20800
C 	C 	0.81274 0.99984 0.99514 0.26100
C 	C 	0.83795 0.93355 0.96695 -0.13100
C 	C 	0.78710 0.88600 0.99050 0.28000
C 	C 	0.61219 0.67479 0.01149 0.13000
C 	C 	0.65070 0.63500 0.95520 -0.13900
C 	C 	0.72844 0.60294 0.94924 0.10000
C 	C 	0.76340 0.61570 0.99710 -0.13100
C 	C 	0.72056 0.65636 0.05136 0.13000
C 	C 	0.05339 0.65739 0.85469 0.43600
C 	C 	0.08073 0.71983 0.08603 0.41800
C 	C 	0.03773 0.71513 0.90243 -0.21700
C 	C 	0.06700 0.69570 0.96660 0.30000
C 	C 	0.04709 0.74329 0.01599 -0.20800
C 	C 	0.99514 0.81274 0.99984 0.26100
C 	C 	0.96695 0.83795 0.93355 -0.13100
C 	C 	0.99050 0.78710 0.88600 0.28000
C 	C 	0.01149 0.61219 0.67479 0.13000
C 	C 	0.95520 0.65070 0.63500 -0.13900
C 	C 	0.94924 0.72844 0.60294 0.10000
C 	C 	0.99710 0.76340 0.61570 -0.13100
C 	C 	0.05136 0.72056 0.65636 0.13000
C 	C 	0.85469 0.05339 0.65739 0.43600
C 	C 	0.08603 0.08073 0.71983 0.41800
C 	C 	0.90243 0.03773 0.71513 -0.21700
C 	C 	0.96660 0.06700 0.69570 0.30000
C 	C 	0.01599 0.04709 0.74329 -0.20800
C 	C 	0.99984 0.99514 0.81274 0.26100
C 	C 	0.93355 0.96695 0.83795 -0.13100
C 	C 	0.88600 0.99050 0.78710 0.28000
C 	C 	0.67479 0.01149 0.61219 0.13000
C 	C 	0.63500 0.95520 0.65070 -0.13900
C 	C 	0.60294 0.94924 0.72844 0.10000
C 	C 	0.61570 0.99710 0.76340 -0.13100
C 	C 	0.65636 0.05136 0.72056 0.13000
C 	C 	0.64531 0.84261 0.44661 0.43700
C 	C 	0.41397 0.78017 0.41927 0.42000
C 	C 	0.59757 0.78487 0.46227 -0.22400
C 	C 	0.53340 0.80430 0.43300 0.30200
C 	C 	0.48401 0.75671 0.45291 -0.21300
C 	C 	0.50016 0.68726 0.50486 0.27200
C 	C 	0.56645 0.66205 0.53305 -0.13600
C 	C 	0.61400 0.71290 0.50950 0.28600
C 	C 	0.82521 0.88781 0.48851 0.12400
C 	C 	0.86500 0.84930 0.54480 -0.13200
C 	C 	0.89706 0.77156 0.55076 0.09300
C 	C 	0.88430 0.73660 0.50290 -0.12200
C 	C 	0.84364 0.77944 0.44864 0.12300
C 	C 	0.84261 0.44661 0.64531 0.43700
C 	C 	0.78017 0.41927 0.41397 0.42000
C 	C 	0.78487 0.46227 0.59757 -0.22400
C 	C 	0.80430 0.43300 0.53340 0.30200
C 	C 	0.75671 0.45291 0.48401 -0.21300
C 	C 	0.68726 0.50486 0.50016 0.27200
C 	C 	0.66205 0.53305 0.56645 -0.13600
C 	C 	0.71290 0.50950 0.61400 0.28600
C 	C 	0.88781 0.48851 0.82521 0.12400
C 	C 	0.84930 0.54480 0.86500 -0.13200
C 	C 	0.77156 0.55076 0.89706 0.09300
C 	C 	0.73660 0.50290 0.88430 -0.12200
C 	C 	0.77944 0.44864 0.84364 0.12300
C 	C 	0.44661 0.64531 0.84261 0.43700
C 	C 	0.41927 0.41397 0.78017 0.42000
C 	C 	0.46227 0.59757 0.78487 -0.22400
C 	C 	0.43300 0.53340 0.80430 0.30200
C 	C 	0.45291 0.48401 0.75671 -0.21300
C 	C 	0.50486 0.50016 0.68726 0.27200
C 	C 	0.53305 0.56645 0.66205 -0.13600
C 	C 	0.50950 0.61400 0.71290 0.28600
C 	C 	0.48851 0.82521 0.88781 0.12400
C 	C 	0.54480 0.86500 0.84930 -0.13200
C 	C 	0.55076 0.89706 0.77156 0.09300
C 	C 	0.50290 0.88430 0.73660 -0.12200
C 	C 	0.44864 0.84364 0.77944 0.12300
C 	C 	0.08043 0.08043 0.08043 0.13600
C 	C 	0.41957 0.41957 0.41957 0.14100
C 	C 	0.91957 0.91957 0.91957 0.13600
C 	C 	0.58043 0.58043 0.58043 0.14100
N 	N 	0.35356 0.31556 0.94076 -0.22200
N 	N 	0.94076 0.35356 0.31556 -0.22200
N 	N 	0.31556 0.94076 0.35356 -0.22200
N 	N 	0.18444 0.14644 0.55924 -0.22100
N 	N 	0.14644 0.55924 0.18444 -0.22100
N 	N 	0.55924 0.18444 0.14644 -0.22100
N 	N 	0.64644 0.68444 0.05924 -0.22200
N 	N 	0.05924 0.64644 0.68444 -0.22200
N 	N 	0.68444 0.05924 0.64644 -0.22200
N 	N 	0.81556 0.85356 0.44076 -0.22100
N 	N 	0.85356 0.44076 0.81556 -0.22100
N 	N 	0.44076 0.81556 0.85356 -0.22100
Cl	Cl	0.39144 0.01499 0.86970 -0.33700
Cl	Cl	0.13140 0.93451 0.03169 -0.26100
Cl	Cl	0.18998 0.19782 0.03989 -0.30200
Cl	Cl	0.86970 0.39144 0.01499 -0.33700
Cl	Cl	0.03169 0.13140 0.93451 -0.26100
Cl	Cl	0.03989 0.18998 0.19782 -0.30200
Cl	Cl	0.01499 0.86970 0.39144 -0.33700
Cl	Cl	0.93451 0.03169 0.13140 -0.26100
Cl	Cl	0.19782 0.03989 0.18998 -0.30200
Cl	Cl	0.48501 0.10856 0.63030 -0.33900
Cl	Cl	0.56549 0.36860 0.46831 -0.26700
Cl	Cl	0.30218 0.31002 0.46011 -0.30100
Cl	Cl	0.10856 0.63030 0.48501 -0.33900
Cl	Cl	0.36860 0.46831 0.56549 -0.26700
Cl	Cl	0.31002 0.46011 0.30218 -0.30100
Cl	Cl	0.63030 0.48501 0.10856 -0.33900
Cl	Cl	0.46831 0.56549 0.36860 -0.26700
Cl	Cl	0.46011 0.30218 0.31002 -0.30100
Cl	Cl	0.60856 0.98501 0.13030 -0.33700
Cl	Cl	0.86860 0.06549 0.96831 -0.26100
Cl	Cl	0.81002 0.80218 0.96011 -0.30200
Cl	Cl	0.13030 0.60856 0.98501 -0.33700
Cl	Cl	0.96831 0.86860 0.06549 -0.26100
Cl	Cl	0.96011 0.81002 0.80218 -0.30200
Cl	Cl	0.98501 0.13030 0.60856 -0.33700
Cl	Cl	0.06549 0.96831 0.86860 -0.26100
Cl	Cl	0.80218 0.96011 0.81002 -0.30200
Cl	Cl	0.51499 0.89144 0.36970 -0.33900
Cl	Cl	0.43451 0.63140 0.53169 -0.26700
Cl	Cl	0.69782 0.68998 0.53989 -0.30100
Cl	Cl	0.89144 0.36970 0.51499 -0.33900
Cl	Cl	0.63140 0.53169 0.43451 -0.26700
Cl	Cl	0.68998 0.53989 0.69782 -0.30100
Cl	Cl	0.36970 0.51499 0.89144 -0.33900
Cl	Cl	0.53169 0.43451 0.63140 -0.26700
Cl	Cl	0.53989 0.69782 0.68998 -0.30100
O 	O 	0.34410 0.19674 0.88679 -0.38900
O 	O 	0.38263 0.12923 0.99263 -0.26900
O 	O 	0.30740 0.85276 0.96141 -0.38400
O 	O 	0.27273 0.92231 0.85405 -0.26900
O 	O 	0.88679 0.34410 0.19674 -0.38900
O 	O 	0.99263 0.38263 0.12923 -0.26900
O 	O 	0.96141 0.30740 0.85276 -0.38400
O 	O 	0.85405 0.27273 0.92231 -0.26900
O 	O 	0.19674 0.88679 0.34410 -0.38900
O 	O 	0.12923 0.99263 0.38263 -0.26900
O 	O 	0.85276 0.96141 0.30740 -0.38400
O 	O 	0.92231 0.85405 0.27273 -0.26900
O 	O 	0.30326 0.15590 0.61321 -0.39000
O 	O 	0.37077 0.11737 0.50737 -0.27200
O 	O 	0.64724 0.19260 0.53859 -0.38400
O 	O 	0.57769 0.22727 0.64595 -0.26900
O 	O 	0.15590 0.61321 0.30326 -0.39000
O 	O 	0.11737 0.50737 0.37077 -0.27200
O 	O 	0.19260 0.53859 0.64724 -0.38400
O 	O 	0.22727 0.64595 0.57769 -0.26900
O 	O 	0.61321 0.30326 0.15590 -0.39000
O 	O 	0.50737 0.37077 0.11737 -0.27200
O 	O 	0.53859 0.64724 0.19260 -0.38400
O 	O 	0.64595 0.57769 0.22727 -0.26900
O 	O 	0.65590 0.80326 0.11321 -0.38900
O 	O 	0.61737 0.87077 0.00737 -0.26900
O 	O 	0.69260 0.14724 0.03859 -0.38400
O 	O 	0.72727 0.07769 0.14595 -0.26900
O 	O 	0.11321 0.65590 0.80326 -0.38900
O 	O 	0.00737 0.61737 0.87077 -0.26900
O 	O 	0.03859 0.69260 0.14724 -0.38400
O 	O 	0.14595 0.72727 0.07769 -0.26900
O 	O 	0.80326 0.11321 0.65590 -0.38900
O 	O 	0.87077 0.00737 0.61737 -0.26900
O 	O 	0.14724 0.03859 0.69260 -0.38400
O 	O 	0.07769 0.14595 0.72727 -0.26900
O 	O 	0.69674 0.84410 0.38679 -0.39000
O 	O 	0.62923 0.88263 0.49263 -0.27200
O 	O 	0.35276 0.80740 0.46141 -0.38400
O 	O 	0.42231 0.77273 0.35405 -0.26900
O 	O 	0.84410 0.38679 0.69674 -0.39000
O 	O 	0.88263 0.49263 0.62923 -0.27200
O 	O 	0.80740 0.46141 0.35276 -0.38400
O 	O 	0.77273 0.35405 0.42231 -0.26900
O 	O 	0.38679 0.69674 0.84410 -0.39000
O 	O 	0.49263 0.62923 0.88263 -0.27200
O 	O 	0.46141 0.35276 0.80740 -0.38400
O 	O 	0.35405 0.42231 0.77273 -0.26900
