data_crystal

_cell_length_a 30.76000
_cell_length_b 30.76000
_cell_length_c 16.10300
_cell_angle_alpha 90.00000
_cell_angle_beta  90.00000
_cell_angle_gamma 90.00000

_symmetry_space_group_name_	'P 1'
_symmetry_space_group_name_H-M	'P 1'

loop_
_symmetry_equiv_pos_as_xyz
  x,y,z

loop_
_atom_site_label
_atom_site_type_symbol
_atom_site_fract_x
_atom_site_fract_y
_atom_site_fract_z
_atom_site_charge
C 	C 	0.10370 0.68210 0.81850 0.30400
C 	C 	0.13950 0.65140 0.79350 -0.08600
C 	C 	0.12660 0.61570 0.74890 -0.02900
H 	H 	0.09730 0.61270 0.73550 0.05400
C 	C 	0.15570 0.58370 0.72300 0.00300
H 	H 	0.14570 0.56020 0.69220 0.03600
C 	C 	0.19910 0.58680 0.74270 -0.11400
C 	C 	0.22840 0.55210 0.70910 0.35300
C 	C 	0.21400 0.62150 0.79260 0.04700
C 	C 	0.25820 0.62450 0.81250 -0.09000
H 	H 	0.27780 0.60360 0.79430 0.05800
C 	C 	0.27180 0.65920 0.85990 -0.03000
H 	H 	0.30120 0.66160 0.87260 0.03600
C 	C 	0.24340 0.69110 0.88960 -0.02900
H 	H 	0.25320 0.71300 0.92480 0.03000
C 	C 	0.19980 0.68920 0.86500 -0.09100
H 	H 	0.18080 0.71100 0.88220 0.07600
C 	C 	0.18400 0.65520 0.81510 0.03900
C 	C 	0.92020 0.67040 0.54470 0.34800
C 	C 	0.89400 0.63360 0.51350 -0.10300
C 	C 	0.85020 0.63480 0.53420 -0.01600
H 	H 	0.83940 0.65810 0.56470 0.05200
C 	C 	0.82200 0.60150 0.50990 0.00700
H 	H 	0.79260 0.60360 0.52280 0.02700
C 	C 	0.83690 0.56570 0.46740 -0.11500
C 	C 	0.80480 0.53010 0.45020 0.35700
C 	C 	0.88150 0.56370 0.44080 0.06000
C 	C 	0.89920 0.52980 0.38970 -0.09900
H 	H 	0.88070 0.50830 0.36980 0.08900
C 	C 	0.94190 0.52790 0.36950 -0.01000
H 	H 	0.95220 0.50480 0.33770 0.03400
C 	C 	0.97110 0.56060 0.39650 -0.03800
H 	H 	0.00030 0.55930 0.38210 0.04600
C 	C 	0.95570 0.59460 0.44430 -0.07400
H 	H 	0.97500 0.61570 0.46290 0.06700
C 	C 	0.91080 0.59780 0.46600 0.03700
C 	C 	0.95600 0.67010 0.81790 0.37500
C 	C 	0.91990 0.63960 0.79480 -0.11500
C 	C 	0.87890 0.64770 0.82590 -0.01200
H 	H 	0.87420 0.67110 0.86120 0.02900
C 	C 	0.84410 0.61990 0.80350 -0.00900
H 	H 	0.81660 0.62510 0.82540 0.02700
C 	C 	0.84960 0.58550 0.75060 -0.11900
C 	C 	0.80890 0.56200 0.72410 0.37300
C 	C 	0.89230 0.57530 0.71710 0.06400
C 	C 	0.90160 0.54060 0.66420 -0.10600
H 	H 	0.87940 0.52210 0.64700 0.08900
C 	C 	0.94260 0.53380 0.63810 0.00000
H 	H 	0.94790 0.50970 0.60450 0.03000
C 	C 	0.97780 0.56060 0.65830 -0.04700
H 	H 	0.00550 0.55520 0.63790 0.04300
C 	C 	0.96950 0.59490 0.70910 -0.07400
H 	H 	0.99230 0.61310 0.72410 0.05100
C 	C 	0.92720 0.60380 0.74000 0.03400
O 	O 	0.06545 0.67425 0.79240 -0.39200
O 	O 	0.11028 0.71501 0.86420 -0.37800
O 	O 	0.24959 0.52734 0.75720 -0.47800
O 	O 	0.23097 0.54730 0.63040 -0.38300
O 	O 	0.95401 0.68380 0.50430 -0.48600
O 	O 	0.90926 0.68908 0.60950 -0.40300
O 	O 	0.76866 0.53022 0.48850 -0.49700
O 	O 	0.81205 0.50217 0.39540 -0.40900
O 	O 	0.97253 0.69511 0.76600 -0.50500
O 	O 	0.96812 0.67008 0.89260 -0.39600
O 	O 	0.80939 0.54050 0.65800 -0.40300
O 	O 	0.77533 0.56470 0.76690 -0.47900
La	La	0.02717 0.73013 0.87940 1.64100
La	La	0.97572 0.73590 0.62923 1.59100
C 	C 	0.60370 0.18210 0.31850 0.30400
C 	C 	0.63950 0.15140 0.29350 -0.08300
C 	C 	0.62660 0.11570 0.24890 -0.02900
H 	H 	0.59730 0.11270 0.23550 0.05400
C 	C 	0.65570 0.08370 0.22300 0.00300
H 	H 	0.64570 0.06020 0.19220 0.03800
C 	C 	0.69910 0.08680 0.24270 -0.11200
C 	C 	0.72840 0.05210 0.20910 0.35000
C 	C 	0.71400 0.12150 0.29260 0.04800
C 	C 	0.75820 0.12450 0.31250 -0.08800
H 	H 	0.77780 0.10360 0.29430 0.05900
C 	C 	0.77180 0.15920 0.35990 -0.02600
H 	H 	0.80120 0.16160 0.37260 0.04100
C 	C 	0.74340 0.19110 0.38960 -0.02600
H 	H 	0.75320 0.21300 0.42480 0.04200
C 	C 	0.69980 0.18920 0.36500 -0.08500
H 	H 	0.68080 0.21100 0.38220 0.08200
C 	C 	0.68400 0.15520 0.31510 0.04100
C 	C 	0.42020 0.17040 0.04470 0.31400
C 	C 	0.39400 0.13360 0.01350 0.01000
C 	C 	0.35020 0.13480 0.03420 -0.11500
H 	H 	0.33940 0.15810 0.06470 0.09200
C 	C 	0.32200 0.10150 0.00990 0.15300
H 	H 	0.29260 0.10360 0.02280 -0.00900
C 	C 	0.33690 0.06570 0.96740 -0.23000
C 	C 	0.30480 0.03010 0.95020 0.39100
C 	C 	0.38150 0.06370 0.94080 0.13300
C 	C 	0.39920 0.02980 0.88970 -0.16600
H 	H 	0.38070 0.00830 0.86980 0.11100
C 	C 	0.44190 0.02790 0.86950 0.04700
H 	H 	0.45220 0.00480 0.83770 0.01200
C 	C 	0.47110 0.06060 0.89650 -0.10500
H 	H 	0.50030 0.05930 0.88210 0.06600
C 	C 	0.45570 0.09460 0.94430 -0.00300
H 	H 	0.47500 0.11570 0.96290 0.02600
C 	C 	0.41080 0.09780 0.96600 -0.07600
C 	C 	0.45600 0.17010 0.31790 0.37200
C 	C 	0.41990 0.13960 0.29480 -0.11100
C 	C 	0.37890 0.14770 0.32590 -0.01200
H 	H 	0.37420 0.17110 0.36120 0.03700
C 	C 	0.34410 0.11990 0.30350 -0.00600
H 	H 	0.31660 0.12510 0.32540 0.03100
C 	C 	0.34960 0.08550 0.25060 -0.11800
C 	C 	0.30890 0.06200 0.22410 0.37100
C 	C 	0.39230 0.07530 0.21710 0.06600
C 	C 	0.40160 0.04060 0.16420 -0.10400
H 	H 	0.37940 0.02210 0.14700 0.09400
C 	C 	0.44260 0.03380 0.13810 0.00400
H 	H 	0.44790 0.00970 0.10450 0.03800
C 	C 	0.47780 0.06060 0.15830 -0.04500
H 	H 	0.50550 0.05520 0.13790 0.04800
C 	C 	0.46950 0.09490 0.20910 -0.07100
H 	H 	0.49230 0.11310 0.22410 0.05200
C 	C 	0.42720 0.10380 0.24000 0.03300
O 	O 	0.56545 0.17425 0.29240 -0.39000
O 	O 	0.61028 0.21501 0.36420 -0.36600
O 	O 	0.74959 0.02734 0.25720 -0.47700
O 	O 	0.73097 0.04730 0.13040 -0.37300
O 	O 	0.45401 0.18380 0.00430 -0.45300
O 	O 	0.40926 0.18908 0.10950 -0.39200
O 	O 	0.26866 0.03022 0.98850 -0.53300
O 	O 	0.31205 0.00217 0.89540 -0.42400
O 	O 	0.47253 0.19511 0.26600 -0.50300
O 	O 	0.46812 0.17008 0.39260 -0.38300
O 	O 	0.30939 0.04050 0.15800 -0.39600
O 	O 	0.27533 0.06470 0.26690 -0.47800
La	La	0.52717 0.23013 0.37940 1.66900
La	La	0.47572 0.23590 0.12923 1.59200
C 	C 	0.39630 0.81790 0.31850 0.30400
C 	C 	0.36050 0.84860 0.29350 -0.08300
C 	C 	0.37340 0.88430 0.24890 -0.02900
H 	H 	0.40270 0.88730 0.23550 0.05400
C 	C 	0.34430 0.91630 0.22300 0.00300
H 	H 	0.35430 0.93980 0.19220 0.03800
C 	C 	0.30090 0.91320 0.24270 -0.11200
C 	C 	0.27160 0.94790 0.20910 0.35000
C 	C 	0.28600 0.87850 0.29260 0.04800
C 	C 	0.24180 0.87550 0.31250 -0.08800
H 	H 	0.22220 0.89640 0.29430 0.05900
C 	C 	0.22820 0.84080 0.35990 -0.02600
H 	H 	0.19880 0.83840 0.37260 0.04100
C 	C 	0.25660 0.80890 0.38960 -0.02600
H 	H 	0.24680 0.78700 0.42480 0.04200
C 	C 	0.30020 0.81080 0.36500 -0.08500
H 	H 	0.31920 0.78900 0.38220 0.08200
C 	C 	0.31600 0.84480 0.31510 0.04100
C 	C 	0.57980 0.82960 0.04470 0.31400
C 	C 	0.60600 0.86640 0.01350 0.01000
C 	C 	0.64980 0.86520 0.03420 -0.11500
H 	H 	0.66060 0.84190 0.06470 0.09200
C 	C 	0.67800 0.89850 0.00990 0.15300
H 	H 	0.70740 0.89640 0.02280 -0.00900
C 	C 	0.66310 0.93430 0.96740 -0.23000
C 	C 	0.69520 0.96990 0.95020 0.39100
C 	C 	0.61850 0.93630 0.94080 0.13300
C 	C 	0.60080 0.97020 0.88970 -0.16600
H 	H 	0.61930 0.99170 0.86980 0.11100
C 	C 	0.55810 0.97210 0.86950 0.04700
H 	H 	0.54780 0.99520 0.83770 0.01200
C 	C 	0.52890 0.93940 0.89650 -0.10500
H 	H 	0.49970 0.94070 0.88210 0.06600
C 	C 	0.54430 0.90540 0.94430 -0.00300
H 	H 	0.52500 0.88430 0.96290 0.02600
C 	C 	0.58920 0.90220 0.96600 -0.07600
C 	C 	0.54400 0.82990 0.31790 0.37200
C 	C 	0.58010 0.86040 0.29480 -0.11100
C 	C 	0.62110 0.85230 0.32590 -0.01200
H 	H 	0.62580 0.82890 0.36120 0.03700
C 	C 	0.65590 0.88010 0.30350 -0.00600
H 	H 	0.68340 0.87490 0.32540 0.03100
C 	C 	0.65040 0.91450 0.25060 -0.11800
C 	C 	0.69110 0.93800 0.22410 0.37100
C 	C 	0.60770 0.92470 0.21710 0.06600
C 	C 	0.59840 0.95940 0.16420 -0.10400
H 	H 	0.62060 0.97790 0.14700 0.09400
C 	C 	0.55740 0.96620 0.13810 0.00400
H 	H 	0.55210 0.99030 0.10450 0.03800
C 	C 	0.52220 0.93940 0.15830 -0.04500
H 	H 	0.49450 0.94480 0.13790 0.04800
C 	C 	0.53050 0.90510 0.20910 -0.07100
H 	H 	0.50770 0.88690 0.22410 0.05200
C 	C 	0.57280 0.89620 0.24000 0.03300
O 	O 	0.43455 0.82575 0.29240 -0.39000
O 	O 	0.38972 0.78499 0.36420 -0.36600
O 	O 	0.25041 0.97266 0.25720 -0.47700
O 	O 	0.26903 0.95270 0.13040 -0.37300
O 	O 	0.54599 0.81620 0.00430 -0.45300
O 	O 	0.59074 0.81092 0.10950 -0.39200
O 	O 	0.73134 0.96978 0.98850 -0.53300
O 	O 	0.68795 0.99783 0.89540 -0.42400
O 	O 	0.52747 0.80489 0.26600 -0.50300
O 	O 	0.53188 0.82992 0.39260 -0.38300
O 	O 	0.69061 0.95950 0.15800 -0.39600
O 	O 	0.72467 0.93530 0.26690 -0.47800
La	La	0.47283 0.76987 0.37940 1.66900
La	La	0.52428 0.76410 0.12923 1.59200
C 	C 	0.89630 0.31790 0.81850 0.30300
C 	C 	0.86050 0.34860 0.79350 -0.08700
C 	C 	0.87340 0.38430 0.74890 -0.03000
H 	H 	0.90270 0.38730 0.73550 0.05300
C 	C 	0.84430 0.41630 0.72300 0.00200
H 	H 	0.85430 0.43980 0.69220 0.03500
C 	C 	0.80090 0.41320 0.74270 -0.11500
C 	C 	0.77160 0.44790 0.70910 0.35200
C 	C 	0.78600 0.37850 0.79260 0.04600
C 	C 	0.74180 0.37550 0.81250 -0.09100
H 	H 	0.72220 0.39640 0.79430 0.05700
C 	C 	0.72820 0.34080 0.85990 -0.03100
H 	H 	0.69880 0.33840 0.87260 0.03500
C 	C 	0.75660 0.30890 0.88960 -0.03000
H 	H 	0.74680 0.28700 0.92480 0.03000
C 	C 	0.80020 0.31080 0.86500 -0.09100
H 	H 	0.81920 0.28900 0.88220 0.07600
C 	C 	0.81600 0.34480 0.81510 0.03900
C 	C 	0.07980 0.32960 0.54470 0.34800
C 	C 	0.10600 0.36640 0.51350 -0.10300
C 	C 	0.14980 0.36520 0.53420 -0.01600
H 	H 	0.16060 0.34190 0.56470 0.05200
C 	C 	0.17800 0.39850 0.50990 0.00700
H 	H 	0.20740 0.39640 0.52280 0.02700
C 	C 	0.16310 0.43430 0.46740 -0.11500
C 	C 	0.19520 0.46990 0.45020 0.35700
C 	C 	0.11850 0.43630 0.44080 0.06000
C 	C 	0.10080 0.47020 0.38970 -0.09900
H 	H 	0.11930 0.49170 0.36980 0.08900
C 	C 	0.05810 0.47210 0.36950 -0.01000
H 	H 	0.04780 0.49520 0.33770 0.03400
C 	C 	0.02890 0.43940 0.39650 -0.03800
H 	H 	0.99970 0.44070 0.38210 0.04600
C 	C 	0.04430 0.40540 0.44430 -0.07400
H 	H 	0.02500 0.38430 0.46290 0.06700
C 	C 	0.08920 0.40220 0.46600 0.03700
C 	C 	0.04400 0.32990 0.81790 0.37500
C 	C 	0.08010 0.36040 0.79480 -0.11500
C 	C 	0.12110 0.35230 0.82590 -0.01200
H 	H 	0.12580 0.32890 0.86120 0.02900
C 	C 	0.15590 0.38010 0.80350 -0.00900
H 	H 	0.18340 0.37490 0.82540 0.02700
C 	C 	0.15040 0.41450 0.75060 -0.11900
C 	C 	0.19110 0.43800 0.72410 0.37300
C 	C 	0.10770 0.42470 0.71710 0.06400
C 	C 	0.09840 0.45940 0.66420 -0.10600
H 	H 	0.12060 0.47790 0.64700 0.08900
C 	C 	0.05740 0.46620 0.63810 0.00000
H 	H 	0.05210 0.49030 0.60450 0.03000
C 	C 	0.02220 0.43940 0.65830 -0.04700
H 	H 	0.99450 0.44480 0.63790 0.04300
C 	C 	0.03050 0.40510 0.70910 -0.07400
H 	H 	0.00770 0.38690 0.72410 0.05100
C 	C 	0.07280 0.39620 0.74000 0.03400
O 	O 	0.93455 0.32575 0.79240 -0.39200
O 	O 	0.88972 0.28499 0.86420 -0.37800
O 	O 	0.75041 0.47266 0.75720 -0.47800
O 	O 	0.76903 0.45270 0.63040 -0.38300
O 	O 	0.04599 0.31620 0.50430 -0.48600
O 	O 	0.09074 0.31092 0.60950 -0.40300
O 	O 	0.23134 0.46978 0.48850 -0.49700
O 	O 	0.18795 0.49783 0.39540 -0.40900
O 	O 	0.02747 0.30489 0.76600 -0.50500
O 	O 	0.03188 0.32992 0.89260 -0.39600
O 	O 	0.19061 0.45950 0.65800 -0.40300
O 	O 	0.22467 0.43530 0.76690 -0.47900
La	La	0.97283 0.26987 0.87940 1.64100
La	La	0.02428 0.26410 0.62923 1.59100
C 	C 	0.31790 0.60370 0.06850 0.27200
C 	C 	0.34860 0.63950 0.04350 0.03100
C 	C 	0.38430 0.62660 0.99890 -0.17500
H 	H 	0.38730 0.59730 0.98550 0.08700
C 	C 	0.41630 0.65570 0.97300 0.09500
H 	H 	0.43980 0.64570 0.94220 -0.00300
C 	C 	0.41320 0.69910 0.99270 -0.21500
C 	C 	0.44790 0.72840 0.95910 0.32800
C 	C 	0.37850 0.71400 0.04260 0.16000
C 	C 	0.37550 0.75820 0.06250 -0.16200
H 	H 	0.39640 0.77780 0.04430 0.09800
C 	C 	0.34080 0.77180 0.10990 0.04100
H 	H 	0.33840 0.80120 0.12260 0.02300
C 	C 	0.30890 0.74340 0.13960 -0.08300
H 	H 	0.28700 0.75320 0.17480 0.06400
C 	C 	0.31080 0.69980 0.11500 -0.01900
H 	H 	0.28900 0.68080 0.13220 0.06100
C 	C 	0.34480 0.68400 0.06510 -0.03400
C 	C 	0.32960 0.42020 0.79470 0.35100
C 	C 	0.36640 0.39400 0.76350 -0.10700
C 	C 	0.36520 0.35020 0.78420 -0.01400
H 	H 	0.34190 0.33940 0.81470 0.04700
C 	C 	0.39850 0.32200 0.75990 0.00300
H 	H 	0.39640 0.29260 0.77280 0.02800
C 	C 	0.43430 0.33690 0.71740 -0.11400
C 	C 	0.46990 0.30480 0.70020 0.35600
C 	C 	0.43630 0.38150 0.69080 0.05900
C 	C 	0.47020 0.39920 0.63970 -0.09800
H 	H 	0.49170 0.38070 0.61980 0.08900
C 	C 	0.47210 0.44190 0.61950 -0.01200
H 	H 	0.49520 0.45220 0.58770 0.03500
C 	C 	0.43940 0.47110 0.64650 -0.03700
H 	H 	0.44070 0.50030 0.63210 0.04600
C 	C 	0.40540 0.45570 0.69430 -0.07500
H 	H 	0.38430 0.47500 0.71290 0.06700
C 	C 	0.40220 0.41080 0.71600 0.03900
C 	C 	0.32990 0.45600 0.06790 0.36500
C 	C 	0.36040 0.41990 0.04480 -0.07400
C 	C 	0.35230 0.37890 0.07590 0.00800
H 	H 	0.32890 0.37420 0.11120 0.03400
C 	C 	0.38010 0.34410 0.05350 -0.05600
H 	H 	0.37490 0.31660 0.07540 0.05400
C 	C 	0.41450 0.34960 0.00060 0.00600
C 	C 	0.43800 0.30890 0.97410 0.24800
C 	C 	0.42470 0.39230 0.96710 -0.01000
C 	C 	0.45940 0.40160 0.91420 -0.06500
H 	H 	0.47790 0.37940 0.89700 0.07000
C 	C 	0.46620 0.44260 0.88810 -0.02900
H 	H 	0.49030 0.44790 0.85450 0.03700
C 	C 	0.43940 0.47780 0.90830 -0.04200
H 	H 	0.44480 0.50550 0.88790 0.03600
C 	C 	0.40510 0.46950 0.95910 -0.07400
H 	H 	0.38690 0.49230 0.97410 0.03400
C 	C 	0.39620 0.42720 0.99000 0.00400
O 	O 	0.32575 0.56545 0.04240 -0.36500
O 	O 	0.28499 0.61028 0.11420 -0.35200
O 	O 	0.47266 0.74959 0.00720 -0.43800
O 	O 	0.45270 0.73097 0.88040 -0.38200
O 	O 	0.31620 0.45401 0.75430 -0.48800
O 	O 	0.31092 0.40926 0.85950 -0.41400
O 	O 	0.46978 0.26866 0.73850 -0.49600
O 	O 	0.49783 0.31205 0.64540 -0.40900
O 	O 	0.30489 0.47253 0.01600 -0.47700
O 	O 	0.32992 0.46812 0.14260 -0.37900
O 	O 	0.45950 0.30939 0.90800 -0.37700
O 	O 	0.43530 0.27533 0.01690 -0.41600
La	La	0.26987 0.52717 0.12940 1.68300
La	La	0.26410 0.47572 0.87923 1.57000
C 	C 	0.81790 0.10370 0.56850 0.30400
C 	C 	0.84860 0.13950 0.54350 -0.08300
C 	C 	0.88430 0.12660 0.49890 -0.03100
H 	H 	0.88730 0.09730 0.48550 0.05300
C 	C 	0.91630 0.15570 0.47300 0.00300
H 	H 	0.93980 0.14570 0.44220 0.03400
C 	C 	0.91320 0.19910 0.49270 -0.11600
C 	C 	0.94790 0.22840 0.45910 0.35200
C 	C 	0.87850 0.21400 0.54260 0.04900
C 	C 	0.87550 0.25820 0.56250 -0.09000
H 	H 	0.89640 0.27780 0.54430 0.05900
C 	C 	0.84080 0.27180 0.60990 -0.02500
H 	H 	0.83840 0.30120 0.62260 0.04100
C 	C 	0.80890 0.24340 0.63960 -0.02700
H 	H 	0.78700 0.25320 0.67480 0.04100
C 	C 	0.81080 0.19980 0.61500 -0.08500
H 	H 	0.78900 0.18080 0.63220 0.08100
C 	C 	0.84480 0.18400 0.56510 0.04000
C 	C 	0.82960 0.92020 0.29470 0.34800
C 	C 	0.86640 0.89400 0.26350 -0.10400
C 	C 	0.86520 0.85020 0.28420 -0.01600
H 	H 	0.84190 0.83940 0.31470 0.05200
C 	C 	0.89850 0.82200 0.25990 0.00600
H 	H 	0.89640 0.79260 0.27280 0.02800
C 	C 	0.93430 0.83690 0.21740 -0.11200
C 	C 	0.96990 0.80480 0.20020 0.35700
C 	C 	0.93630 0.88150 0.19080 0.06200
C 	C 	0.97020 0.89920 0.13970 -0.09300
H 	H 	0.99170 0.88070 0.11980 0.09500
C 	C 	0.97210 0.94190 0.11950 -0.00800
H 	H 	0.99520 0.95220 0.08770 0.04500
C 	C 	0.93940 0.97110 0.14650 -0.03400
H 	H 	0.94070 0.00030 0.13210 0.05200
C 	C 	0.90540 0.95570 0.19430 -0.07200
H 	H 	0.88430 0.97500 0.21290 0.06700
C 	C 	0.90220 0.91080 0.21600 0.03900
C 	C 	0.82990 0.95600 0.56790 0.37200
C 	C 	0.86040 0.91990 0.54480 -0.11000
C 	C 	0.85230 0.87890 0.57590 -0.01300
H 	H 	0.82890 0.87420 0.61120 0.03700
C 	C 	0.88010 0.84410 0.55350 -0.00500
H 	H 	0.87490 0.81660 0.57540 0.03000
C 	C 	0.91450 0.84960 0.50060 -0.12000
C 	C 	0.93800 0.80890 0.47410 0.37300
C 	C 	0.92470 0.89230 0.46710 0.06600
C 	C 	0.95940 0.90160 0.41420 -0.10800
H 	H 	0.97790 0.87940 0.39700 0.08900
C 	C 	0.96620 0.94260 0.38810 0.00200
H 	H 	0.99030 0.94790 0.35450 0.02900
C 	C 	0.93940 0.97780 0.40830 -0.04900
H 	H 	0.94480 0.00550 0.38790 0.04400
C 	C 	0.90510 0.96950 0.45910 -0.07200
H 	H 	0.88690 0.99230 0.47410 0.05000
C 	C 	0.89620 0.92720 0.49000 0.03200
O 	O 	0.82575 0.06545 0.54240 -0.39100
O 	O 	0.78499 0.11028 0.61420 -0.36700
O 	O 	0.97266 0.24959 0.50720 -0.47700
O 	O 	0.95270 0.23097 0.38040 -0.38300
O 	O 	0.81620 0.95401 0.25430 -0.48700
O 	O 	0.81092 0.90926 0.35950 -0.40300
O 	O 	0.96978 0.76866 0.23850 -0.49600
O 	O 	0.99783 0.81205 0.14540 -0.40200
O 	O 	0.80489 0.97253 0.51600 -0.50400
O 	O 	0.82992 0.96812 0.64260 -0.38300
O 	O 	0.95950 0.80939 0.40800 -0.40300
O 	O 	0.93530 0.77533 0.51690 -0.47900
La	La	0.76987 0.02717 0.62940 1.67000
La	La	0.76410 0.97572 0.37923 1.59100
C 	C 	0.18210 0.89630 0.56850 0.30400
C 	C 	0.15140 0.86050 0.54350 -0.08300
C 	C 	0.11570 0.87340 0.49890 -0.03100
H 	H 	0.11270 0.90270 0.48550 0.05300
C 	C 	0.08370 0.84430 0.47300 0.00300
H 	H 	0.06020 0.85430 0.44220 0.03400
C 	C 	0.08680 0.80090 0.49270 -0.11600
C 	C 	0.05210 0.77160 0.45910 0.35200
C 	C 	0.12150 0.78600 0.54260 0.04900
C 	C 	0.12450 0.74180 0.56250 -0.09000
H 	H 	0.10360 0.72220 0.54430 0.05900
C 	C 	0.15920 0.72820 0.60990 -0.02500
H 	H 	0.16160 0.69880 0.62260 0.04100
C 	C 	0.19110 0.75660 0.63960 -0.02700
H 	H 	0.21300 0.74680 0.67480 0.04100
C 	C 	0.18920 0.80020 0.61500 -0.08500
H 	H 	0.21100 0.81920 0.63220 0.08100
C 	C 	0.15520 0.81600 0.56510 0.04000
C 	C 	0.17040 0.07980 0.29470 0.34800
C 	C 	0.13360 0.10600 0.26350 -0.10400
C 	C 	0.13480 0.14980 0.28420 -0.01600
H 	H 	0.15810 0.16060 0.31470 0.05200
C 	C 	0.10150 0.17800 0.25990 0.00600
H 	H 	0.10360 0.20740 0.27280 0.02800
C 	C 	0.06570 0.16310 0.21740 -0.11200
C 	C 	0.03010 0.19520 0.20020 0.35700
C 	C 	0.06370 0.11850 0.19080 0.06200
C 	C 	0.02980 0.10080 0.13970 -0.09300
H 	H 	0.00830 0.11930 0.11980 0.09500
C 	C 	0.02790 0.05810 0.11950 -0.00800
H 	H 	0.00480 0.04780 0.08770 0.04500
C 	C 	0.06060 0.02890 0.14650 -0.03400
H 	H 	0.05930 0.99970 0.13210 0.05200
C 	C 	0.09460 0.04430 0.19430 -0.07200
H 	H 	0.11570 0.02500 0.21290 0.06700
C 	C 	0.09780 0.08920 0.21600 0.03900
C 	C 	0.17010 0.04400 0.56790 0.37200
C 	C 	0.13960 0.08010 0.54480 -0.11000
C 	C 	0.14770 0.12110 0.57590 -0.01300
H 	H 	0.17110 0.12580 0.61120 0.03700
C 	C 	0.11990 0.15590 0.55350 -0.00500
H 	H 	0.12510 0.18340 0.57540 0.03000
C 	C 	0.08550 0.15040 0.50060 -0.12000
C 	C 	0.06200 0.19110 0.47410 0.37300
C 	C 	0.07530 0.10770 0.46710 0.06600
C 	C 	0.04060 0.09840 0.41420 -0.10800
H 	H 	0.02210 0.12060 0.39700 0.08900
C 	C 	0.03380 0.05740 0.38810 0.00200
H 	H 	0.00970 0.05210 0.35450 0.02900
C 	C 	0.06060 0.02220 0.40830 -0.04900
H 	H 	0.05520 0.99450 0.38790 0.04400
C 	C 	0.09490 0.03050 0.45910 -0.07200
H 	H 	0.11310 0.00770 0.47410 0.05000
C 	C 	0.10380 0.07280 0.49000 0.03200
O 	O 	0.17425 0.93455 0.54240 -0.39100
O 	O 	0.21501 0.88972 0.61420 -0.36700
O 	O 	0.02734 0.75041 0.50720 -0.47700
O 	O 	0.04730 0.76903 0.38040 -0.38300
O 	O 	0.18380 0.04599 0.25430 -0.48700
O 	O 	0.18908 0.09074 0.35950 -0.40300
O 	O 	0.03022 0.23134 0.23850 -0.49600
O 	O 	0.00217 0.18795 0.14540 -0.40200
O 	O 	0.19511 0.02747 0.51600 -0.50400
O 	O 	0.17008 0.03188 0.64260 -0.38300
O 	O 	0.04050 0.19061 0.40800 -0.40300
O 	O 	0.06470 0.22467 0.51690 -0.47900
La	La	0.23013 0.97283 0.62940 1.67000
La	La	0.23590 0.02428 0.37923 1.59100
C 	C 	0.68210 0.39630 0.06850 0.27200
C 	C 	0.65140 0.36050 0.04350 0.03100
C 	C 	0.61570 0.37340 0.99890 -0.17500
H 	H 	0.61270 0.40270 0.98550 0.08700
C 	C 	0.58370 0.34430 0.97300 0.09500
H 	H 	0.56020 0.35430 0.94220 -0.00300
C 	C 	0.58680 0.30090 0.99270 -0.21500
C 	C 	0.55210 0.27160 0.95910 0.32800
C 	C 	0.62150 0.28600 0.04260 0.16000
C 	C 	0.62450 0.24180 0.06250 -0.16200
H 	H 	0.60360 0.22220 0.04430 0.09800
C 	C 	0.65920 0.22820 0.10990 0.04100
H 	H 	0.66160 0.19880 0.12260 0.02300
C 	C 	0.69110 0.25660 0.13960 -0.08300
H 	H 	0.71300 0.24680 0.17480 0.06400
C 	C 	0.68920 0.30020 0.11500 -0.01900
H 	H 	0.71100 0.31920 0.13220 0.06100
C 	C 	0.65520 0.31600 0.06510 -0.03400
C 	C 	0.67040 0.57980 0.79470 0.35100
C 	C 	0.63360 0.60600 0.76350 -0.10700
C 	C 	0.63480 0.64980 0.78420 -0.01400
H 	H 	0.65810 0.66060 0.81470 0.04700
C 	C 	0.60150 0.67800 0.75990 0.00300
H 	H 	0.60360 0.70740 0.77280 0.02800
C 	C 	0.56570 0.66310 0.71740 -0.11400
C 	C 	0.53010 0.69520 0.70020 0.35600
C 	C 	0.56370 0.61850 0.69080 0.05900
C 	C 	0.52980 0.60080 0.63970 -0.09800
H 	H 	0.50830 0.61930 0.61980 0.08900
C 	C 	0.52790 0.55810 0.61950 -0.01200
H 	H 	0.50480 0.54780 0.58770 0.03500
C 	C 	0.56060 0.52890 0.64650 -0.03700
H 	H 	0.55930 0.49970 0.63210 0.04600
C 	C 	0.59460 0.54430 0.69430 -0.07500
H 	H 	0.61570 0.52500 0.71290 0.06700
C 	C 	0.59780 0.58920 0.71600 0.03900
C 	C 	0.67010 0.54400 0.06790 0.36500
C 	C 	0.63960 0.58010 0.04480 -0.07400
C 	C 	0.64770 0.62110 0.07590 0.00800
H 	H 	0.67110 0.62580 0.11120 0.03400
C 	C 	0.61990 0.65590 0.05350 -0.05600
H 	H 	0.62510 0.68340 0.07540 0.05400
C 	C 	0.58550 0.65040 0.00060 0.00600
C 	C 	0.56200 0.69110 0.97410 0.24800
C 	C 	0.57530 0.60770 0.96710 -0.01000
C 	C 	0.54060 0.59840 0.91420 -0.06500
H 	H 	0.52210 0.62060 0.89700 0.07000
C 	C 	0.53380 0.55740 0.88810 -0.02900
H 	H 	0.50970 0.55210 0.85450 0.03700
C 	C 	0.56060 0.52220 0.90830 -0.04200
H 	H 	0.55520 0.49450 0.88790 0.03600
C 	C 	0.59490 0.53050 0.95910 -0.07400
H 	H 	0.61310 0.50770 0.97410 0.03400
C 	C 	0.60380 0.57280 0.99000 0.00400
O 	O 	0.67425 0.43455 0.04240 -0.36500
O 	O 	0.71501 0.38972 0.11420 -0.35200
O 	O 	0.52734 0.25041 0.00720 -0.43800
O 	O 	0.54730 0.26903 0.88040 -0.38200
O 	O 	0.68380 0.54599 0.75430 -0.48800
O 	O 	0.68908 0.59074 0.85950 -0.41400
O 	O 	0.53022 0.73134 0.73850 -0.49600
O 	O 	0.50217 0.68795 0.64540 -0.40900
O 	O 	0.69511 0.52747 0.01600 -0.47700
O 	O 	0.67008 0.53188 0.14260 -0.37900
O 	O 	0.54050 0.69061 0.90800 -0.37700
O 	O 	0.56470 0.72467 0.01690 -0.41600
La	La	0.73013 0.47283 0.12940 1.68300
La	La	0.73590 0.52428 0.87923 1.57000
C 	C 	0.10370 0.31790 0.31850 0.30400
C 	C 	0.13950 0.34860 0.29350 -0.08300
C 	C 	0.12660 0.38430 0.24890 -0.02900
H 	H 	0.09730 0.38730 0.23550 0.05400
C 	C 	0.15570 0.41630 0.22300 0.00300
H 	H 	0.14570 0.43980 0.19220 0.03800
C 	C 	0.19910 0.41320 0.24270 -0.11200
C 	C 	0.22840 0.44790 0.20910 0.35000
C 	C 	0.21400 0.37850 0.29260 0.04800
C 	C 	0.25820 0.37550 0.31250 -0.08800
H 	H 	0.27780 0.39640 0.29430 0.05900
C 	C 	0.27180 0.34080 0.35990 -0.02600
H 	H 	0.30120 0.33840 0.37260 0.04100
C 	C 	0.24340 0.30890 0.38960 -0.02600
H 	H 	0.25320 0.28700 0.42480 0.04200
C 	C 	0.19980 0.31080 0.36500 -0.08500
H 	H 	0.18080 0.28900 0.38220 0.08200
C 	C 	0.18400 0.34480 0.31510 0.04100
C 	C 	0.92020 0.32960 0.04470 0.31400
C 	C 	0.89400 0.36640 0.01350 0.01000
C 	C 	0.85020 0.36520 0.03420 -0.11500
H 	H 	0.83940 0.34190 0.06470 0.09200
C 	C 	0.82200 0.39850 0.00990 0.15300
H 	H 	0.79260 0.39640 0.02280 -0.00900
C 	C 	0.83690 0.43430 0.96740 -0.23000
C 	C 	0.80480 0.46990 0.95020 0.39100
C 	C 	0.88150 0.43630 0.94080 0.13300
C 	C 	0.89920 0.47020 0.88970 -0.16600
H 	H 	0.88070 0.49170 0.86980 0.11100
C 	C 	0.94190 0.47210 0.86950 0.04700
H 	H 	0.95220 0.49520 0.83770 0.01200
C 	C 	0.97110 0.43940 0.89650 -0.10500
H 	H 	0.00030 0.44070 0.88210 0.06600
C 	C 	0.95570 0.40540 0.94430 -0.00300
H 	H 	0.97500 0.38430 0.96290 0.02700
C 	C 	0.91080 0.40220 0.96600 -0.07600
C 	C 	0.95600 0.32990 0.31790 0.37200
C 	C 	0.91990 0.36040 0.29480 -0.11100
C 	C 	0.87890 0.35230 0.32590 -0.01200
H 	H 	0.87420 0.32890 0.36120 0.03700
C 	C 	0.84410 0.38010 0.30350 -0.00600
H 	H 	0.81660 0.37490 0.32540 0.03100
C 	C 	0.84960 0.41450 0.25060 -0.11800
C 	C 	0.80890 0.43800 0.22410 0.37100
C 	C 	0.89230 0.42470 0.21710 0.06600
C 	C 	0.90160 0.45940 0.16420 -0.10400
H 	H 	0.87940 0.47790 0.14700 0.09400
C 	C 	0.94260 0.46620 0.13810 0.00400
H 	H 	0.94790 0.49030 0.10450 0.03800
C 	C 	0.97780 0.43940 0.15830 -0.04500
H 	H 	0.00550 0.44480 0.13790 0.04800
C 	C 	0.96950 0.40510 0.20910 -0.07100
H 	H 	0.99230 0.38690 0.22410 0.05200
C 	C 	0.92720 0.39620 0.24000 0.03300
O 	O 	0.06545 0.32575 0.29240 -0.39000
O 	O 	0.11028 0.28499 0.36420 -0.36600
O 	O 	0.24959 0.47266 0.25720 -0.47700
O 	O 	0.23097 0.45270 0.13040 -0.37300
O 	O 	0.95401 0.31620 0.00430 -0.45300
O 	O 	0.90926 0.31092 0.10950 -0.39200
O 	O 	0.76866 0.46978 0.98850 -0.53300
O 	O 	0.81205 0.49783 0.89540 -0.42400
O 	O 	0.97253 0.30489 0.26600 -0.50300
O 	O 	0.96812 0.32992 0.39260 -0.38300
O 	O 	0.80939 0.45950 0.15800 -0.39600
O 	O 	0.77533 0.43530 0.26690 -0.47800
La	La	0.02717 0.26987 0.37940 1.67000
La	La	0.97572 0.26410 0.12923 1.59200
C 	C 	0.60370 0.81790 0.81850 0.30300
C 	C 	0.63950 0.84860 0.79350 -0.08700
C 	C 	0.62660 0.88430 0.74890 -0.03000
H 	H 	0.59730 0.88730 0.73550 0.05300
C 	C 	0.65570 0.91630 0.72300 0.00200
H 	H 	0.64570 0.93980 0.69220 0.03500
C 	C 	0.69910 0.91320 0.74270 -0.11500
C 	C 	0.72840 0.94790 0.70910 0.35200
C 	C 	0.71400 0.87850 0.79260 0.04600
C 	C 	0.75820 0.87550 0.81250 -0.09100
H 	H 	0.77780 0.89640 0.79430 0.05700
C 	C 	0.77180 0.84080 0.85990 -0.03100
H 	H 	0.80120 0.83840 0.87260 0.03500
C 	C 	0.74340 0.80890 0.88960 -0.03000
H 	H 	0.75320 0.78700 0.92480 0.03000
C 	C 	0.69980 0.81080 0.86500 -0.09100
H 	H 	0.68080 0.78900 0.88220 0.07600
C 	C 	0.68400 0.84480 0.81510 0.03900
C 	C 	0.42020 0.82960 0.54470 0.34800
C 	C 	0.39400 0.86640 0.51350 -0.10300
C 	C 	0.35020 0.86520 0.53420 -0.01600
H 	H 	0.33940 0.84190 0.56470 0.05200
C 	C 	0.32200 0.89850 0.50990 0.00700
H 	H 	0.29260 0.89640 0.52280 0.02700
C 	C 	0.33690 0.93430 0.46740 -0.11500
C 	C 	0.30480 0.96990 0.45020 0.35700
C 	C 	0.38150 0.93630 0.44080 0.06000
C 	C 	0.39920 0.97020 0.38970 -0.09900
H 	H 	0.38070 0.99170 0.36980 0.08900
C 	C 	0.44190 0.97210 0.36950 -0.01000
H 	H 	0.45220 0.99520 0.33770 0.03400
C 	C 	0.47110 0.93940 0.39650 -0.03800
H 	H 	0.50030 0.94070 0.38210 0.04600
C 	C 	0.45570 0.90540 0.44430 -0.07400
H 	H 	0.47500 0.88430 0.46290 0.06700
C 	C 	0.41080 0.90220 0.46600 0.03700
C 	C 	0.45600 0.82990 0.81790 0.37500
C 	C 	0.41990 0.86040 0.79480 -0.11500
C 	C 	0.37890 0.85230 0.82590 -0.01200
H 	H 	0.37420 0.82890 0.86120 0.02900
C 	C 	0.34410 0.88010 0.80350 -0.00900
H 	H 	0.31660 0.87490 0.82540 0.02700
C 	C 	0.34960 0.91450 0.75060 -0.11900
C 	C 	0.30890 0.93800 0.72410 0.37300
C 	C 	0.39230 0.92470 0.71710 0.06400
C 	C 	0.40160 0.95940 0.66420 -0.10600
H 	H 	0.37940 0.97790 0.64700 0.08900
C 	C 	0.44260 0.96620 0.63810 0.00000
H 	H 	0.44790 0.99030 0.60450 0.03000
C 	C 	0.47780 0.93940 0.65830 -0.04700
H 	H 	0.50550 0.94480 0.63790 0.04300
C 	C 	0.46950 0.90510 0.70910 -0.07400
H 	H 	0.49230 0.88690 0.72410 0.05100
C 	C 	0.42720 0.89620 0.74000 0.03400
O 	O 	0.56545 0.82575 0.79240 -0.39200
O 	O 	0.61028 0.78499 0.86420 -0.37800
O 	O 	0.74959 0.97266 0.75720 -0.47800
O 	O 	0.73097 0.95270 0.63040 -0.38300
O 	O 	0.45401 0.81620 0.50430 -0.48700
O 	O 	0.40926 0.81092 0.60950 -0.40300
O 	O 	0.26866 0.96978 0.48850 -0.49700
O 	O 	0.31205 0.99783 0.39540 -0.40900
O 	O 	0.47253 0.80489 0.76600 -0.50500
O 	O 	0.46812 0.82992 0.89260 -0.39600
O 	O 	0.30939 0.95950 0.65800 -0.40300
O 	O 	0.27533 0.93530 0.76690 -0.47900
La	La	0.52717 0.76987 0.87940 1.64000
La	La	0.47572 0.76410 0.62923 1.59100
C 	C 	0.39630 0.18210 0.81850 0.30300
C 	C 	0.36050 0.15140 0.79350 -0.08700
C 	C 	0.37340 0.11570 0.74890 -0.03000
H 	H 	0.40270 0.11270 0.73550 0.05300
C 	C 	0.34430 0.08370 0.72300 0.00200
H 	H 	0.35430 0.06020 0.69220 0.03500
C 	C 	0.30090 0.08680 0.74270 -0.11500
C 	C 	0.27160 0.05210 0.70910 0.35200
C 	C 	0.28600 0.12150 0.79260 0.04600
C 	C 	0.24180 0.12450 0.81250 -0.09100
H 	H 	0.22220 0.10360 0.79430 0.05700
C 	C 	0.22820 0.15920 0.85990 -0.03100
H 	H 	0.19880 0.16160 0.87260 0.03500
C 	C 	0.25660 0.19110 0.88960 -0.03000
H 	H 	0.24680 0.21300 0.92480 0.03000
C 	C 	0.30020 0.18920 0.86500 -0.09100
H 	H 	0.31920 0.21100 0.88220 0.07600
C 	C 	0.31600 0.15520 0.81510 0.03900
C 	C 	0.57980 0.17040 0.54470 0.34800
C 	C 	0.60600 0.13360 0.51350 -0.10300
C 	C 	0.64980 0.13480 0.53420 -0.01600
H 	H 	0.66060 0.15810 0.56470 0.05200
C 	C 	0.67800 0.10150 0.50990 0.00700
H 	H 	0.70740 0.10360 0.52280 0.02700
C 	C 	0.66310 0.06570 0.46740 -0.11500
C 	C 	0.69520 0.03010 0.45020 0.35700
C 	C 	0.61850 0.06370 0.44080 0.06000
C 	C 	0.60080 0.02980 0.38970 -0.09900
H 	H 	0.61930 0.00830 0.36980 0.08900
C 	C 	0.55810 0.02790 0.36950 -0.01000
H 	H 	0.54780 0.00480 0.33770 0.03400
C 	C 	0.52890 0.06060 0.39650 -0.03800
H 	H 	0.49970 0.05930 0.38210 0.04600
C 	C 	0.54430 0.09460 0.44430 -0.07400
H 	H 	0.52500 0.11570 0.46290 0.06700
C 	C 	0.58920 0.09780 0.46600 0.03700
C 	C 	0.54400 0.17010 0.81790 0.37500
C 	C 	0.58010 0.13960 0.79480 -0.11500
C 	C 	0.62110 0.14770 0.82590 -0.01200
H 	H 	0.62580 0.17110 0.86120 0.02900
C 	C 	0.65590 0.11990 0.80350 -0.00900
H 	H 	0.68340 0.12510 0.82540 0.02700
C 	C 	0.65040 0.08550 0.75060 -0.11900
C 	C 	0.69110 0.06200 0.72410 0.37300
C 	C 	0.60770 0.07530 0.71710 0.06400
C 	C 	0.59840 0.04060 0.66420 -0.10600
H 	H 	0.62060 0.02210 0.64700 0.08900
C 	C 	0.55740 0.03380 0.63810 0.00000
H 	H 	0.55210 0.00970 0.60450 0.03000
C 	C 	0.52220 0.06060 0.65830 -0.04700
H 	H 	0.49450 0.05520 0.63790 0.04300
C 	C 	0.53050 0.09490 0.70910 -0.07400
H 	H 	0.50770 0.11310 0.72410 0.05100
C 	C 	0.57280 0.10380 0.74000 0.03400
O 	O 	0.43455 0.17425 0.79240 -0.39200
O 	O 	0.38972 0.21501 0.86420 -0.37800
O 	O 	0.25041 0.02734 0.75720 -0.47800
O 	O 	0.26903 0.04730 0.63040 -0.38300
O 	O 	0.54599 0.18380 0.50430 -0.48700
O 	O 	0.59074 0.18908 0.60950 -0.40300
O 	O 	0.73134 0.03022 0.48850 -0.49700
O 	O 	0.68795 0.00217 0.39540 -0.40900
O 	O 	0.52747 0.19511 0.76600 -0.50500
O 	O 	0.53188 0.17008 0.89260 -0.39600
O 	O 	0.69061 0.04050 0.65800 -0.40300
O 	O 	0.72467 0.06470 0.76690 -0.47900
La	La	0.47283 0.23013 0.87940 1.64000
La	La	0.52428 0.23590 0.62923 1.59100
C 	C 	0.89630 0.68210 0.31850 0.30400
C 	C 	0.86050 0.65140 0.29350 -0.08300
C 	C 	0.87340 0.61570 0.24890 -0.02900
H 	H 	0.90270 0.61270 0.23550 0.05400
C 	C 	0.84430 0.58370 0.22300 0.00300
H 	H 	0.85430 0.56020 0.19220 0.03800
C 	C 	0.80090 0.58680 0.24270 -0.11200
C 	C 	0.77160 0.55210 0.20910 0.35000
C 	C 	0.78600 0.62150 0.29260 0.04800
C 	C 	0.74180 0.62450 0.31250 -0.08800
H 	H 	0.72220 0.60360 0.29430 0.05900
C 	C 	0.72820 0.65920 0.35990 -0.02600
H 	H 	0.69880 0.66160 0.37260 0.04100
C 	C 	0.75660 0.69110 0.38960 -0.02600
H 	H 	0.74680 0.71300 0.42480 0.04200
C 	C 	0.80020 0.68920 0.36500 -0.08500
H 	H 	0.81920 0.71100 0.38220 0.08200
C 	C 	0.81600 0.65520 0.31510 0.04100
C 	C 	0.07980 0.67040 0.04470 0.31400
C 	C 	0.10600 0.63360 0.01350 0.01000
C 	C 	0.14980 0.63480 0.03420 -0.11500
H 	H 	0.16060 0.65810 0.06470 0.09200
C 	C 	0.17800 0.60150 0.00990 0.15300
H 	H 	0.20740 0.60360 0.02280 -0.00900
C 	C 	0.16310 0.56570 0.96740 -0.23000
C 	C 	0.19520 0.53010 0.95020 0.39100
C 	C 	0.11850 0.56370 0.94080 0.13300
C 	C 	0.10080 0.52980 0.88970 -0.16600
H 	H 	0.11930 0.50830 0.86980 0.11100
C 	C 	0.05810 0.52790 0.86950 0.04700
H 	H 	0.04780 0.50480 0.83770 0.01200
C 	C 	0.02890 0.56060 0.89650 -0.10500
H 	H 	0.99970 0.55930 0.88210 0.06600
C 	C 	0.04430 0.59460 0.94430 -0.00300
H 	H 	0.02500 0.61570 0.96290 0.02700
C 	C 	0.08920 0.59780 0.96600 -0.07600
C 	C 	0.04400 0.67010 0.31790 0.37200
C 	C 	0.08010 0.63960 0.29480 -0.11100
C 	C 	0.12110 0.64770 0.32590 -0.01200
H 	H 	0.12580 0.67110 0.36120 0.03700
C 	C 	0.15590 0.61990 0.30350 -0.00600
H 	H 	0.18340 0.62510 0.32540 0.03100
C 	C 	0.15040 0.58550 0.25060 -0.11800
C 	C 	0.19110 0.56200 0.22410 0.37100
C 	C 	0.10770 0.57530 0.21710 0.06600
C 	C 	0.09840 0.54060 0.16420 -0.10400
H 	H 	0.12060 0.52210 0.14700 0.09400
C 	C 	0.05740 0.53380 0.13810 0.00400
H 	H 	0.05210 0.50970 0.10450 0.03800
C 	C 	0.02220 0.56060 0.15830 -0.04500
H 	H 	0.99450 0.55520 0.13790 0.04800
C 	C 	0.03050 0.59490 0.20910 -0.07100
H 	H 	0.00770 0.61310 0.22410 0.05200
C 	C 	0.07280 0.60380 0.24000 0.03300
O 	O 	0.93455 0.67425 0.29240 -0.39000
O 	O 	0.88972 0.71501 0.36420 -0.36600
O 	O 	0.75041 0.52734 0.25720 -0.47700
O 	O 	0.76903 0.54730 0.13040 -0.37300
O 	O 	0.04599 0.68380 0.00430 -0.45300
O 	O 	0.09074 0.68908 0.10950 -0.39200
O 	O 	0.23134 0.53022 0.98850 -0.53300
O 	O 	0.18795 0.50217 0.89540 -0.42400
O 	O 	0.02747 0.69511 0.26600 -0.50300
O 	O 	0.03188 0.67008 0.39260 -0.38300
O 	O 	0.19061 0.54050 0.15800 -0.39600
O 	O 	0.22467 0.56470 0.26690 -0.47800
La	La	0.97283 0.73013 0.37940 1.67000
La	La	0.02428 0.73590 0.12923 1.59200
C 	C 	0.31790 0.39630 0.56850 0.30400
C 	C 	0.34860 0.36050 0.54350 -0.08300
C 	C 	0.38430 0.37340 0.49890 -0.03100
H 	H 	0.38730 0.40270 0.48550 0.05300
C 	C 	0.41630 0.34430 0.47300 0.00300
H 	H 	0.43980 0.35430 0.44220 0.03400
C 	C 	0.41320 0.30090 0.49270 -0.11600
C 	C 	0.44790 0.27160 0.45910 0.35200
C 	C 	0.37850 0.28600 0.54260 0.04900
C 	C 	0.37550 0.24180 0.56250 -0.09000
H 	H 	0.39640 0.22220 0.54430 0.05900
C 	C 	0.34080 0.22820 0.60990 -0.02500
H 	H 	0.33840 0.19880 0.62260 0.04100
C 	C 	0.30890 0.25660 0.63960 -0.02700
H 	H 	0.28700 0.24680 0.67480 0.04100
C 	C 	0.31080 0.30020 0.61500 -0.08500
H 	H 	0.28900 0.31920 0.63220 0.08100
C 	C 	0.34480 0.31600 0.56510 0.04000
C 	C 	0.32960 0.57980 0.29470 0.34800
C 	C 	0.36640 0.60600 0.26350 -0.10400
C 	C 	0.36520 0.64980 0.28420 -0.01600
H 	H 	0.34190 0.66060 0.31470 0.05200
C 	C 	0.39850 0.67800 0.25990 0.00600
H 	H 	0.39640 0.70740 0.27280 0.02800
C 	C 	0.43430 0.66310 0.21740 -0.11200
C 	C 	0.46990 0.69520 0.20020 0.35700
C 	C 	0.43630 0.61850 0.19080 0.06200
C 	C 	0.47020 0.60080 0.13970 -0.09300
H 	H 	0.49170 0.61930 0.11980 0.09500
C 	C 	0.47210 0.55810 0.11950 -0.00800
H 	H 	0.49520 0.54780 0.08770 0.04500
C 	C 	0.43940 0.52890 0.14650 -0.03400
H 	H 	0.44070 0.49970 0.13210 0.05200
C 	C 	0.40540 0.54430 0.19430 -0.07200
H 	H 	0.38430 0.52500 0.21290 0.06700
C 	C 	0.40220 0.58920 0.21600 0.03900
C 	C 	0.32990 0.54400 0.56790 0.37200
C 	C 	0.36040 0.58010 0.54480 -0.11000
C 	C 	0.35230 0.62110 0.57590 -0.01300
H 	H 	0.32890 0.62580 0.61120 0.03700
C 	C 	0.38010 0.65590 0.55350 -0.00500
H 	H 	0.37490 0.68340 0.57540 0.03000
C 	C 	0.41450 0.65040 0.50060 -0.12000
C 	C 	0.43800 0.69110 0.47410 0.37300
C 	C 	0.42470 0.60770 0.46710 0.06600
C 	C 	0.45940 0.59840 0.41420 -0.10800
H 	H 	0.47790 0.62060 0.39700 0.08900
C 	C 	0.46620 0.55740 0.38810 0.00200
H 	H 	0.49030 0.55210 0.35450 0.02900
C 	C 	0.43940 0.52220 0.40830 -0.04900
H 	H 	0.44480 0.49450 0.38790 0.04300
C 	C 	0.40510 0.53050 0.45910 -0.07200
H 	H 	0.38690 0.50770 0.47410 0.05000
C 	C 	0.39620 0.57280 0.49000 0.03200
O 	O 	0.32575 0.43455 0.54240 -0.39100
O 	O 	0.28499 0.38972 0.61420 -0.36700
O 	O 	0.47266 0.25041 0.50720 -0.47800
O 	O 	0.45270 0.26903 0.38040 -0.38300
O 	O 	0.31620 0.54599 0.25430 -0.48700
O 	O 	0.31092 0.59074 0.35950 -0.40300
O 	O 	0.46978 0.73134 0.23850 -0.49600
O 	O 	0.49783 0.68795 0.14540 -0.40200
O 	O 	0.30489 0.52747 0.51600 -0.50400
O 	O 	0.32992 0.53188 0.64260 -0.38300
O 	O 	0.45950 0.69061 0.40800 -0.40400
O 	O 	0.43530 0.72467 0.51690 -0.47900
La	La	0.26987 0.47283 0.62940 1.67000
La	La	0.26410 0.52428 0.37923 1.59100
C 	C 	0.81790 0.89630 0.06850 0.27200
C 	C 	0.84860 0.86050 0.04350 0.03100
C 	C 	0.88430 0.87340 0.99890 -0.17500
H 	H 	0.88730 0.90270 0.98550 0.08700
C 	C 	0.91630 0.84430 0.97300 0.09400
H 	H 	0.93980 0.85430 0.94220 -0.00200
C 	C 	0.91320 0.80090 0.99270 -0.21500
C 	C 	0.94790 0.77160 0.95910 0.32800
C 	C 	0.87850 0.78600 0.04260 0.16000
C 	C 	0.87550 0.74180 0.06250 -0.16200
H 	H 	0.89640 0.72220 0.04430 0.09700
C 	C 	0.84080 0.72820 0.10990 0.04100
H 	H 	0.83840 0.69880 0.12260 0.02300
C 	C 	0.80890 0.75660 0.13960 -0.08200
H 	H 	0.78700 0.74680 0.17480 0.06400
C 	C 	0.81080 0.80020 0.11500 -0.02000
H 	H 	0.78900 0.81920 0.13220 0.06100
C 	C 	0.84480 0.81600 0.06510 -0.03300
C 	C 	0.82960 0.07980 0.79470 0.35100
C 	C 	0.86640 0.10600 0.76350 -0.10700
C 	C 	0.86520 0.14980 0.78420 -0.01400
H 	H 	0.84190 0.16060 0.81470 0.04700
C 	C 	0.89850 0.17800 0.75990 0.00300
H 	H 	0.89640 0.20740 0.77280 0.02800
C 	C 	0.93430 0.16310 0.71740 -0.11400
C 	C 	0.96990 0.19520 0.70020 0.35600
C 	C 	0.93630 0.11850 0.69080 0.05900
C 	C 	0.97020 0.10080 0.63970 -0.09800
H 	H 	0.99170 0.11930 0.61980 0.08900
C 	C 	0.97210 0.05810 0.61950 -0.01200
H 	H 	0.99520 0.04780 0.58770 0.03500
C 	C 	0.93940 0.02890 0.64650 -0.03700
H 	H 	0.94070 0.99970 0.63210 0.04600
C 	C 	0.90540 0.04430 0.69430 -0.07500
H 	H 	0.88430 0.02500 0.71290 0.06700
C 	C 	0.90220 0.08920 0.71600 0.03900
C 	C 	0.82990 0.04400 0.06790 0.36500
C 	C 	0.86040 0.08010 0.04480 -0.07400
C 	C 	0.85230 0.12110 0.07590 0.00800
H 	H 	0.82890 0.12580 0.11120 0.03400
C 	C 	0.88010 0.15590 0.05350 -0.05600
H 	H 	0.87490 0.18340 0.07540 0.05400
C 	C 	0.91450 0.15040 0.00060 0.00500
C 	C 	0.93800 0.19110 0.97410 0.24800
C 	C 	0.92470 0.10770 0.96710 -0.01000
C 	C 	0.95940 0.09840 0.91420 -0.06500
H 	H 	0.97790 0.12060 0.89700 0.07000
C 	C 	0.96620 0.05740 0.88810 -0.02800
H 	H 	0.99030 0.05210 0.85450 0.03800
C 	C 	0.93940 0.02220 0.90830 -0.04100
H 	H 	0.94480 0.99450 0.88790 0.03600
C 	C 	0.90510 0.03050 0.95910 -0.07400
H 	H 	0.88690 0.00770 0.97410 0.03400
C 	C 	0.89620 0.07280 0.99000 0.00400
O 	O 	0.82575 0.93455 0.04240 -0.36500
O 	O 	0.78499 0.88972 0.11420 -0.35200
O 	O 	0.97266 0.75041 0.00720 -0.43800
O 	O 	0.95270 0.76903 0.88040 -0.38200
O 	O 	0.81620 0.04599 0.75430 -0.48800
O 	O 	0.81092 0.09074 0.85950 -0.41400
O 	O 	0.96978 0.23134 0.73850 -0.49600
O 	O 	0.99783 0.18795 0.64540 -0.40900
O 	O 	0.80489 0.02747 0.01600 -0.47700
O 	O 	0.82992 0.03188 0.14260 -0.37900
O 	O 	0.95950 0.19061 0.90800 -0.37700
O 	O 	0.93530 0.22467 0.01690 -0.41600
La	La	0.76987 0.97283 0.12940 1.68300
La	La	0.76410 0.02428 0.87923 1.57000
C 	C 	0.18210 0.10370 0.06850 0.27200
C 	C 	0.15140 0.13950 0.04350 0.03100
C 	C 	0.11570 0.12660 0.99890 -0.17500
H 	H 	0.11270 0.09730 0.98550 0.08700
C 	C 	0.08370 0.15570 0.97300 0.09400
H 	H 	0.06020 0.14570 0.94220 -0.00200
C 	C 	0.08680 0.19910 0.99270 -0.21500
C 	C 	0.05210 0.22840 0.95910 0.32800
C 	C 	0.12150 0.21400 0.04260 0.16000
C 	C 	0.12450 0.25820 0.06250 -0.16200
H 	H 	0.10360 0.27780 0.04430 0.09700
C 	C 	0.15920 0.27180 0.10990 0.04100
H 	H 	0.16160 0.30120 0.12260 0.02300
C 	C 	0.19110 0.24340 0.13960 -0.08200
H 	H 	0.21300 0.25320 0.17480 0.06400
C 	C 	0.18920 0.19980 0.11500 -0.02000
H 	H 	0.21100 0.18080 0.13220 0.06100
C 	C 	0.15520 0.18400 0.06510 -0.03300
C 	C 	0.17040 0.92020 0.79470 0.35100
C 	C 	0.13360 0.89400 0.76350 -0.10700
C 	C 	0.13480 0.85020 0.78420 -0.01400
H 	H 	0.15810 0.83940 0.81470 0.04700
C 	C 	0.10150 0.82200 0.75990 0.00300
H 	H 	0.10360 0.79260 0.77280 0.02800
C 	C 	0.06570 0.83690 0.71740 -0.11400
C 	C 	0.03010 0.80480 0.70020 0.35600
C 	C 	0.06370 0.88150 0.69080 0.05900
C 	C 	0.02980 0.89920 0.63970 -0.09800
H 	H 	0.00830 0.88070 0.61980 0.08900
C 	C 	0.02790 0.94190 0.61950 -0.01200
H 	H 	0.00480 0.95220 0.58770 0.03500
C 	C 	0.06060 0.97110 0.64650 -0.03700
H 	H 	0.05930 0.00030 0.63210 0.04600
C 	C 	0.09460 0.95570 0.69430 -0.07500
H 	H 	0.11570 0.97500 0.71290 0.06700
C 	C 	0.09780 0.91080 0.71600 0.03900
C 	C 	0.17010 0.95600 0.06790 0.36500
C 	C 	0.13960 0.91990 0.04480 -0.07400
C 	C 	0.14770 0.87890 0.07590 0.00800
H 	H 	0.17110 0.87420 0.11120 0.03400
C 	C 	0.11990 0.84410 0.05350 -0.05600
H 	H 	0.12510 0.81660 0.07540 0.05400
C 	C 	0.08550 0.84960 0.00060 0.00500
C 	C 	0.06200 0.80890 0.97410 0.24800
C 	C 	0.07530 0.89230 0.96710 -0.01000
C 	C 	0.04060 0.90160 0.91420 -0.06500
H 	H 	0.02210 0.87940 0.89700 0.07000
C 	C 	0.03380 0.94260 0.88810 -0.02800
H 	H 	0.00970 0.94790 0.85450 0.03800
C 	C 	0.06060 0.97780 0.90830 -0.04100
H 	H 	0.05520 0.00550 0.88790 0.03600
C 	C 	0.09490 0.96950 0.95910 -0.07400
H 	H 	0.11310 0.99230 0.97410 0.03400
C 	C 	0.10380 0.92720 0.99000 0.00400
O 	O 	0.17425 0.06545 0.04240 -0.36500
O 	O 	0.21501 0.11028 0.11420 -0.35200
O 	O 	0.02734 0.24959 0.00720 -0.43800
O 	O 	0.04730 0.23097 0.88040 -0.38200
O 	O 	0.18380 0.95401 0.75430 -0.48800
O 	O 	0.18908 0.90926 0.85950 -0.41400
O 	O 	0.03022 0.76866 0.73850 -0.49600
O 	O 	0.00217 0.81205 0.64540 -0.40900
O 	O 	0.19511 0.97253 0.01600 -0.47700
O 	O 	0.17008 0.96812 0.14260 -0.37900
O 	O 	0.04050 0.80939 0.90800 -0.37700
O 	O 	0.06470 0.77533 0.01690 -0.41600
La	La	0.23013 0.02717 0.12940 1.68300
La	La	0.23590 0.97572 0.87923 1.57000
C 	C 	0.68210 0.60370 0.56850 0.30400
C 	C 	0.65140 0.63950 0.54350 -0.08300
C 	C 	0.61570 0.62660 0.49890 -0.03100
H 	H 	0.61270 0.59730 0.48550 0.05300
C 	C 	0.58370 0.65570 0.47300 0.00300
H 	H 	0.56020 0.64570 0.44220 0.03400
C 	C 	0.58680 0.69910 0.49270 -0.11600
C 	C 	0.55210 0.72840 0.45910 0.35200
C 	C 	0.62150 0.71400 0.54260 0.04900
C 	C 	0.62450 0.75820 0.56250 -0.09000
H 	H 	0.60360 0.77780 0.54430 0.05900
C 	C 	0.65920 0.77180 0.60990 -0.02500
H 	H 	0.66160 0.80120 0.62260 0.04100
C 	C 	0.69110 0.74340 0.63960 -0.02700
H 	H 	0.71300 0.75320 0.67480 0.04100
C 	C 	0.68920 0.69980 0.61500 -0.08500
H 	H 	0.71100 0.68080 0.63220 0.08100
C 	C 	0.65520 0.68400 0.56510 0.04000
C 	C 	0.67040 0.42020 0.29470 0.34800
C 	C 	0.63360 0.39400 0.26350 -0.10400
C 	C 	0.63480 0.35020 0.28420 -0.01600
H 	H 	0.65810 0.33940 0.31470 0.05200
C 	C 	0.60150 0.32200 0.25990 0.00600
H 	H 	0.60360 0.29260 0.27280 0.02800
C 	C 	0.56570 0.33690 0.21740 -0.11200
C 	C 	0.53010 0.30480 0.20020 0.35700
C 	C 	0.56370 0.38150 0.19080 0.06200
C 	C 	0.52980 0.39920 0.13970 -0.09300
H 	H 	0.50830 0.38070 0.11980 0.09500
C 	C 	0.52790 0.44190 0.11950 -0.00800
H 	H 	0.50480 0.45220 0.08770 0.04500
C 	C 	0.56060 0.47110 0.14650 -0.03400
H 	H 	0.55930 0.50030 0.13210 0.05200
C 	C 	0.59460 0.45570 0.19430 -0.07200
H 	H 	0.61570 0.47500 0.21290 0.06700
C 	C 	0.59780 0.41080 0.21600 0.03900
C 	C 	0.67010 0.45600 0.56790 0.37200
C 	C 	0.63960 0.41990 0.54480 -0.11000
C 	C 	0.64770 0.37890 0.57590 -0.01300
H 	H 	0.67110 0.37420 0.61120 0.03700
C 	C 	0.61990 0.34410 0.55350 -0.00500
H 	H 	0.62510 0.31660 0.57540 0.03000
C 	C 	0.58550 0.34960 0.50060 -0.12000
C 	C 	0.56200 0.30890 0.47410 0.37300
C 	C 	0.57530 0.39230 0.46710 0.06600
C 	C 	0.54060 0.40160 0.41420 -0.10800
H 	H 	0.52210 0.37940 0.39700 0.08900
C 	C 	0.53380 0.44260 0.38810 0.00200
H 	H 	0.50970 0.44790 0.35450 0.02900
C 	C 	0.56060 0.47780 0.40830 -0.04900
H 	H 	0.55520 0.50550 0.38790 0.04300
C 	C 	0.59490 0.46950 0.45910 -0.07200
H 	H 	0.61310 0.49230 0.47410 0.05000
C 	C 	0.60380 0.42720 0.49000 0.03200
O 	O 	0.67425 0.56545 0.54240 -0.39100
O 	O 	0.71501 0.61028 0.61420 -0.36700
O 	O 	0.52734 0.74959 0.50720 -0.47800
O 	O 	0.54730 0.73097 0.38040 -0.38300
O 	O 	0.68380 0.45401 0.25430 -0.48700
O 	O 	0.68908 0.40926 0.35950 -0.40300
O 	O 	0.53022 0.26866 0.23850 -0.49600
O 	O 	0.50217 0.31205 0.14540 -0.40200
O 	O 	0.69511 0.47253 0.51600 -0.50400
O 	O 	0.67008 0.46812 0.64260 -0.38300
O 	O 	0.54050 0.30939 0.40800 -0.40400
O 	O 	0.56470 0.27533 0.51690 -0.47900
La	La	0.73013 0.52717 0.62940 1.67000
La	La	0.73590 0.47572 0.37923 1.59100
