data_crystal

_cell_length_a 28.47100
_cell_length_b 28.47100
_cell_length_c 28.47100
_cell_angle_alpha 90.00000
_cell_angle_beta  90.00000
_cell_angle_gamma 90.00000

_symmetry_space_group_name_	'P 1'
_symmetry_space_group_name_H-M	'P 1'

loop_
_symmetry_equiv_pos_as_xyz
  x,y,z

loop_
_atom_site_label
_atom_site_type_symbol
_atom_site_fract_x
_atom_site_fract_y
_atom_site_fract_z
_atom_site_charge
Ni	Ni	0.34730 0.61890 0.89900 0.54600
O 	O 	0.39070 0.58840 0.94530 -0.41900
O 	O 	0.45700 0.62960 0.94730 -0.25300
C 	C 	0.42980 0.59800 0.96270 0.34700
C 	C 	0.44420 0.56940 0.00350 -0.13300
C 	C 	0.48370 0.58160 0.03010 0.06300
O 	O 	0.36480 0.57730 0.84180 -0.68800
O 	O 	0.40380 0.65860 0.87400 0.44700
C 	C 	0.41020 0.58790 0.82560 -0.08200
C 	C 	0.42060 0.64170 0.83030 -0.06000
C 	C 	0.42070 0.56520 0.78270 0.08700
C 	C 	0.46680 0.65760 0.82130 0.26000
N 	N 	0.33310 0.66520 0.95440 -0.23200
C 	C 	0.32960 0.65180 0.99830 0.10200
C 	C 	0.31770 0.68570 0.03430 -0.04800
C 	C 	0.30990 0.73200 0.02570 0.00900
C 	C 	0.31420 0.74440 0.98570 -0.18400
C 	C 	0.32510 0.71800 0.94900 0.10900
N 	N 	0.33180 0.68300 0.95200 -0.06500
C 	C 	0.32390 0.66920 0.99660 0.18400
C 	C 	0.31300 0.70730 0.02940 -0.16900
C 	C 	0.30820 0.74950 0.01710 0.18700
C 	C 	0.31770 0.75750 0.96900 -0.09600
C 	C 	0.32990 0.72010 0.93540 0.14300
H 	H 	0.49800 0.61000 0.02000 0.03200
H 	H 	0.43100 0.57300 0.84800 0.02800
H 	H 	0.42200 0.60300 0.79600 -0.11000
H 	H 	0.44500 0.59200 0.84400 0.01600
H 	H 	0.41200 0.53300 0.78500 0.09000
H 	H 	0.45400 0.56800 0.77600 0.00600
H 	H 	0.40300 0.58000 0.75800 -0.00200
H 	H 	0.40100 0.65700 0.80700 0.02800
H 	H 	0.41300 0.57900 0.79300 0.04600
H 	H 	0.43300 0.57000 0.84300 0.01000
H 	H 	0.46800 0.69100 0.82600 -0.18200
H 	H 	0.47500 0.65000 0.79000 -0.04700
H 	H 	0.48800 0.64300 0.84300 -0.02300
H 	H 	0.33500 0.62000 0.00700 0.16100
H 	H 	0.31500 0.67500 0.06600 -0.00100
H 	H 	0.30100 0.75400 0.05000 0.00000
H 	H 	0.30900 0.77700 0.98000 0.12100
H 	H 	0.32800 0.73200 0.91900 -0.22400
H 	H 	0.32500 0.63700 0.00600 -0.23900
H 	H 	0.30900 0.70000 0.06200 0.10300
H 	H 	0.29900 0.77400 0.03800 -0.01200
H 	H 	0.31600 0.78900 0.95800 0.02400
H 	H 	0.33600 0.72600 0.90300 0.16600
Ni	Ni	0.15270 0.38110 0.39900 0.54600
O 	O 	0.10930 0.41160 0.44530 -0.41900
O 	O 	0.04300 0.37040 0.44730 -0.25300
C 	C 	0.07020 0.40200 0.46270 0.34700
C 	C 	0.05580 0.43060 0.50350 -0.13300
C 	C 	0.01630 0.41840 0.53010 0.06300
O 	O 	0.13520 0.42270 0.34180 -0.68800
O 	O 	0.09620 0.34140 0.37400 0.44700
C 	C 	0.08980 0.41210 0.32560 -0.08200
C 	C 	0.07940 0.35830 0.33030 -0.06000
C 	C 	0.07930 0.43480 0.28270 0.08700
C 	C 	0.03320 0.34240 0.32130 0.26000
N 	N 	0.16690 0.33480 0.45440 -0.23200
C 	C 	0.17040 0.34820 0.49830 0.10200
C 	C 	0.18230 0.31430 0.53430 -0.04800
C 	C 	0.19010 0.26800 0.52570 0.00900
C 	C 	0.18580 0.25560 0.48570 -0.18400
C 	C 	0.17490 0.28200 0.44900 0.10900
N 	N 	0.16820 0.31700 0.45200 -0.06500
C 	C 	0.17610 0.33080 0.49660 0.18400
C 	C 	0.18700 0.29270 0.52940 -0.16900
C 	C 	0.19180 0.25050 0.51710 0.18700
C 	C 	0.18230 0.24250 0.46900 -0.09600
C 	C 	0.17010 0.27990 0.43540 0.14300
H 	H 	0.00200 0.39000 0.52000 0.03200
H 	H 	0.06900 0.42700 0.34800 0.02800
H 	H 	0.07800 0.39700 0.29600 -0.11000
H 	H 	0.05500 0.40800 0.34400 0.01600
H 	H 	0.08800 0.46700 0.28500 0.09000
H 	H 	0.04600 0.43200 0.27600 0.00600
H 	H 	0.09700 0.42000 0.25800 -0.00200
H 	H 	0.09900 0.34300 0.30700 0.02800
H 	H 	0.08700 0.42100 0.29300 0.04600
H 	H 	0.06700 0.43000 0.34300 0.01000
H 	H 	0.03200 0.30900 0.32600 -0.18200
H 	H 	0.02500 0.35000 0.29000 -0.04700
H 	H 	0.01200 0.35700 0.34300 -0.02300
H 	H 	0.16500 0.38000 0.50700 0.16100
H 	H 	0.18500 0.32500 0.56600 -0.00100
H 	H 	0.19900 0.24600 0.55000 0.00000
H 	H 	0.19100 0.22300 0.48000 0.12100
H 	H 	0.17200 0.26800 0.41900 -0.22400
H 	H 	0.17500 0.36300 0.50600 -0.24000
H 	H 	0.19100 0.30000 0.56200 0.10200
H 	H 	0.20100 0.22600 0.53800 -0.01300
H 	H 	0.18400 0.21100 0.45800 0.02300
H 	H 	0.16400 0.27400 0.40300 0.16500
Ni	Ni	0.65270 0.11890 0.60100 0.54500
O 	O 	0.60930 0.08840 0.55470 -0.42000
O 	O 	0.54300 0.12960 0.55270 -0.25400
C 	C 	0.57020 0.09800 0.53730 0.34600
C 	C 	0.55580 0.06940 0.49650 -0.13400
C 	C 	0.51630 0.08160 0.46990 0.06200
O 	O 	0.63520 0.07730 0.65820 -0.68900
O 	O 	0.59620 0.15860 0.62600 0.44600
C 	C 	0.58980 0.08790 0.67440 -0.08300
C 	C 	0.57940 0.14170 0.66970 -0.06100
C 	C 	0.57930 0.06520 0.71730 0.08600
C 	C 	0.53320 0.15760 0.67870 0.25900
N 	N 	0.66690 0.16520 0.54560 -0.23300
C 	C 	0.67040 0.15180 0.50170 0.10100
C 	C 	0.68230 0.18570 0.46570 -0.04900
C 	C 	0.69010 0.23200 0.47430 0.00800
C 	C 	0.68580 0.24440 0.51430 -0.18500
C 	C 	0.67490 0.21800 0.55100 0.10800
N 	N 	0.66820 0.18300 0.54800 -0.06600
C 	C 	0.67610 0.16920 0.50340 0.18300
C 	C 	0.68700 0.20730 0.47060 -0.17000
C 	C 	0.69180 0.24950 0.48290 0.18600
C 	C 	0.68230 0.25750 0.53100 -0.09700
C 	C 	0.67010 0.22010 0.56460 0.14200
H 	H 	0.50200 0.11000 0.48000 0.03100
H 	H 	0.56900 0.07300 0.65200 0.02700
H 	H 	0.57800 0.10300 0.70400 -0.11100
H 	H 	0.55500 0.09200 0.65600 0.01500
H 	H 	0.58800 0.03300 0.71500 0.08900
H 	H 	0.54600 0.06800 0.72400 0.00500
H 	H 	0.59700 0.08000 0.74200 -0.00300
H 	H 	0.59900 0.15700 0.69300 0.02700
H 	H 	0.58700 0.07900 0.70700 0.04500
H 	H 	0.56700 0.07000 0.65700 0.00900
H 	H 	0.53200 0.19100 0.67400 -0.18300
H 	H 	0.52500 0.15000 0.71000 -0.04800
H 	H 	0.51200 0.14300 0.65700 -0.02400
H 	H 	0.66500 0.12000 0.49300 0.16000
H 	H 	0.68500 0.17500 0.43400 -0.00200
H 	H 	0.69900 0.25400 0.45000 -0.00100
H 	H 	0.69100 0.27700 0.52000 0.12000
H 	H 	0.67200 0.23200 0.58100 -0.22500
H 	H 	0.67500 0.13700 0.49400 -0.24100
H 	H 	0.69100 0.20000 0.43800 0.10200
H 	H 	0.70100 0.27400 0.46200 -0.01300
H 	H 	0.68400 0.28900 0.54200 0.02300
H 	H 	0.66400 0.22600 0.59700 0.16500
Ni	Ni	0.84730 0.88110 0.10100 0.54500
O 	O 	0.89070 0.91160 0.05470 -0.42000
O 	O 	0.95700 0.87040 0.05270 -0.25400
C 	C 	0.92980 0.90200 0.03730 0.34600
C 	C 	0.94420 0.93060 0.99650 -0.13400
C 	C 	0.98370 0.91840 0.96990 0.06200
O 	O 	0.86480 0.92270 0.15820 -0.68900
O 	O 	0.90380 0.84140 0.12600 0.44600
C 	C 	0.91020 0.91210 0.17440 -0.08300
C 	C 	0.92060 0.85830 0.16970 -0.06100
C 	C 	0.92070 0.93480 0.21730 0.08600
C 	C 	0.96680 0.84240 0.17870 0.25900
N 	N 	0.83310 0.83480 0.04560 -0.23300
C 	C 	0.82960 0.84820 0.00170 0.10100
C 	C 	0.81770 0.81430 0.96570 -0.04900
C 	C 	0.80990 0.76800 0.97430 0.00800
C 	C 	0.81420 0.75560 0.01430 -0.18500
C 	C 	0.82510 0.78200 0.05100 0.10800
N 	N 	0.83180 0.81700 0.04800 -0.06600
C 	C 	0.82390 0.83080 0.00340 0.18300
C 	C 	0.81300 0.79270 0.97060 -0.17000
C 	C 	0.80820 0.75050 0.98290 0.18600
C 	C 	0.81770 0.74250 0.03100 -0.09700
C 	C 	0.82990 0.77990 0.06460 0.14200
H 	H 	0.99800 0.89000 0.98000 0.03100
H 	H 	0.93100 0.92700 0.15200 0.02700
H 	H 	0.92200 0.89700 0.20400 -0.11100
H 	H 	0.94500 0.90800 0.15600 0.01500
H 	H 	0.91200 0.96700 0.21500 0.08900
H 	H 	0.95400 0.93200 0.22400 0.00500
H 	H 	0.90300 0.92000 0.24200 -0.00300
H 	H 	0.90100 0.84300 0.19300 0.02700
H 	H 	0.91300 0.92100 0.20700 0.04500
H 	H 	0.93300 0.93000 0.15700 0.00900
H 	H 	0.96800 0.80900 0.17400 -0.18300
H 	H 	0.97500 0.85000 0.21000 -0.04800
H 	H 	0.98800 0.85700 0.15700 -0.02400
H 	H 	0.83500 0.88000 0.99300 0.16000
H 	H 	0.81500 0.82500 0.93400 -0.00200
H 	H 	0.80100 0.74600 0.95000 -0.00100
H 	H 	0.80900 0.72300 0.02000 0.12000
H 	H 	0.82800 0.76800 0.08100 -0.22500
H 	H 	0.82500 0.86300 0.99400 -0.24100
H 	H 	0.80900 0.80000 0.93800 0.10200
H 	H 	0.79900 0.72600 0.96200 -0.01300
H 	H 	0.81600 0.71100 0.04200 0.02300
H 	H 	0.83600 0.77400 0.09700 0.16500
Ni	Ni	0.89900 0.34730 0.61890 0.54500
O 	O 	0.94530 0.39070 0.58840 -0.42000
O 	O 	0.94730 0.45700 0.62960 -0.25400
C 	C 	0.96270 0.42980 0.59800 0.34600
C 	C 	0.00350 0.44420 0.56940 -0.13400
C 	C 	0.03010 0.48370 0.58160 0.06200
O 	O 	0.84180 0.36480 0.57730 -0.68900
O 	O 	0.87400 0.40380 0.65860 0.44600
C 	C 	0.82560 0.41020 0.58790 -0.08300
C 	C 	0.83030 0.42060 0.64170 -0.06100
C 	C 	0.78270 0.42070 0.56520 0.08600
C 	C 	0.82130 0.46680 0.65760 0.25900
N 	N 	0.95440 0.33310 0.66520 -0.23300
C 	C 	0.99830 0.32960 0.65180 0.10100
C 	C 	0.03430 0.31770 0.68570 -0.04900
C 	C 	0.02570 0.30990 0.73200 0.00800
C 	C 	0.98570 0.31420 0.74440 -0.18500
C 	C 	0.94900 0.32510 0.71800 0.10800
N 	N 	0.95200 0.33180 0.68300 -0.06600
C 	C 	0.99660 0.32390 0.66920 0.18300
C 	C 	0.02940 0.31300 0.70730 -0.17000
C 	C 	0.01710 0.30820 0.74950 0.18600
C 	C 	0.96900 0.31770 0.75750 -0.09700
C 	C 	0.93540 0.32990 0.72010 0.14200
H 	H 	0.02000 0.49800 0.61000 0.03100
H 	H 	0.84800 0.43100 0.57300 0.02700
H 	H 	0.79600 0.42200 0.60300 -0.11100
H 	H 	0.84400 0.44500 0.59200 0.01500
H 	H 	0.78500 0.41200 0.53300 0.08900
H 	H 	0.77600 0.45400 0.56800 0.00500
H 	H 	0.75800 0.40300 0.58000 -0.00300
H 	H 	0.80700 0.40100 0.65700 0.02700
H 	H 	0.79300 0.41300 0.57900 0.04500
H 	H 	0.84300 0.43300 0.57000 0.00900
H 	H 	0.82600 0.46800 0.69100 -0.18300
H 	H 	0.79000 0.47500 0.65000 -0.04800
H 	H 	0.84300 0.48800 0.64300 -0.02400
H 	H 	0.00700 0.33500 0.62000 0.16000
H 	H 	0.06600 0.31500 0.67500 -0.00200
H 	H 	0.05000 0.30100 0.75400 -0.00100
H 	H 	0.98000 0.30900 0.77700 0.12000
H 	H 	0.91900 0.32800 0.73200 -0.22500
H 	H 	0.00600 0.32500 0.63700 -0.24000
H 	H 	0.06200 0.30900 0.70000 0.10200
H 	H 	0.03800 0.29900 0.77400 -0.01300
H 	H 	0.95800 0.31600 0.78900 0.02300
H 	H 	0.90300 0.33600 0.72600 0.16500
Ni	Ni	0.39900 0.15270 0.38110 0.54500
O 	O 	0.44530 0.10930 0.41160 -0.42000
O 	O 	0.44730 0.04300 0.37040 -0.25400
C 	C 	0.46270 0.07020 0.40200 0.34600
C 	C 	0.50350 0.05580 0.43060 -0.13400
C 	C 	0.53010 0.01630 0.41840 0.06200
O 	O 	0.34180 0.13520 0.42270 -0.68900
O 	O 	0.37400 0.09620 0.34140 0.44600
C 	C 	0.32560 0.08980 0.41210 -0.08300
C 	C 	0.33030 0.07940 0.35830 -0.06100
C 	C 	0.28270 0.07930 0.43480 0.08600
C 	C 	0.32130 0.03320 0.34240 0.25900
N 	N 	0.45440 0.16690 0.33480 -0.23300
C 	C 	0.49830 0.17040 0.34820 0.10100
C 	C 	0.53430 0.18230 0.31430 -0.04900
C 	C 	0.52570 0.19010 0.26800 0.00800
C 	C 	0.48570 0.18580 0.25560 -0.18500
C 	C 	0.44900 0.17490 0.28200 0.10800
N 	N 	0.45200 0.16820 0.31700 -0.06600
C 	C 	0.49660 0.17610 0.33080 0.18300
C 	C 	0.52940 0.18700 0.29270 -0.17000
C 	C 	0.51710 0.19180 0.25050 0.18600
C 	C 	0.46900 0.18230 0.24250 -0.09700
C 	C 	0.43540 0.17010 0.27990 0.14200
H 	H 	0.52000 0.00200 0.39000 0.03100
H 	H 	0.34800 0.06900 0.42700 0.02700
H 	H 	0.29600 0.07800 0.39700 -0.11100
H 	H 	0.34400 0.05500 0.40800 0.01500
H 	H 	0.28500 0.08800 0.46700 0.08900
H 	H 	0.27600 0.04600 0.43200 0.00500
H 	H 	0.25800 0.09700 0.42000 -0.00300
H 	H 	0.30700 0.09900 0.34300 0.02700
H 	H 	0.29300 0.08700 0.42100 0.04500
H 	H 	0.34300 0.06700 0.43000 0.00900
H 	H 	0.32600 0.03200 0.30900 -0.18300
H 	H 	0.29000 0.02500 0.35000 -0.04800
H 	H 	0.34300 0.01200 0.35700 -0.02400
H 	H 	0.50700 0.16500 0.38000 0.16000
H 	H 	0.56600 0.18500 0.32500 -0.00200
H 	H 	0.55000 0.19900 0.24600 -0.00100
H 	H 	0.48000 0.19100 0.22300 0.12000
H 	H 	0.41900 0.17200 0.26800 -0.22500
H 	H 	0.50600 0.17500 0.36300 -0.24100
H 	H 	0.56200 0.19100 0.30000 0.10200
H 	H 	0.53800 0.20100 0.22600 -0.01300
H 	H 	0.45800 0.18400 0.21100 0.02300
H 	H 	0.40300 0.16400 0.27400 0.16500
Ni	Ni	0.60100 0.65270 0.11890 0.54500
O 	O 	0.55470 0.60930 0.08840 -0.42000
O 	O 	0.55270 0.54300 0.12960 -0.25400
C 	C 	0.53730 0.57020 0.09800 0.34600
C 	C 	0.49650 0.55580 0.06940 -0.13400
C 	C 	0.46990 0.51630 0.08160 0.06200
O 	O 	0.65820 0.63520 0.07730 -0.68900
O 	O 	0.62600 0.59620 0.15860 0.44600
C 	C 	0.67440 0.58980 0.08790 -0.08300
C 	C 	0.66970 0.57940 0.14170 -0.06100
C 	C 	0.71730 0.57930 0.06520 0.08600
C 	C 	0.67870 0.53320 0.15760 0.25900
N 	N 	0.54560 0.66690 0.16520 -0.23300
C 	C 	0.50170 0.67040 0.15180 0.10100
C 	C 	0.46570 0.68230 0.18570 -0.04900
C 	C 	0.47430 0.69010 0.23200 0.00800
C 	C 	0.51430 0.68580 0.24440 -0.18500
C 	C 	0.55100 0.67490 0.21800 0.10800
N 	N 	0.54800 0.66820 0.18300 -0.06600
C 	C 	0.50340 0.67610 0.16920 0.18300
C 	C 	0.47060 0.68700 0.20730 -0.17000
C 	C 	0.48290 0.69180 0.24950 0.18600
C 	C 	0.53100 0.68230 0.25750 -0.09700
C 	C 	0.56460 0.67010 0.22010 0.14200
H 	H 	0.48000 0.50200 0.11000 0.03100
H 	H 	0.65200 0.56900 0.07300 0.02700
H 	H 	0.70400 0.57800 0.10300 -0.11100
H 	H 	0.65600 0.55500 0.09200 0.01500
H 	H 	0.71500 0.58800 0.03300 0.08900
H 	H 	0.72400 0.54600 0.06800 0.00500
H 	H 	0.74200 0.59700 0.08000 -0.00300
H 	H 	0.69300 0.59900 0.15700 0.02700
H 	H 	0.70700 0.58700 0.07900 0.04500
H 	H 	0.65700 0.56700 0.07000 0.00900
H 	H 	0.67400 0.53200 0.19100 -0.18300
H 	H 	0.71000 0.52500 0.15000 -0.04800
H 	H 	0.65700 0.51200 0.14300 -0.02400
H 	H 	0.49300 0.66500 0.12000 0.16000
H 	H 	0.43400 0.68500 0.17500 -0.00200
H 	H 	0.45000 0.69900 0.25400 -0.00100
H 	H 	0.52000 0.69100 0.27700 0.12000
H 	H 	0.58100 0.67200 0.23200 -0.22500
H 	H 	0.49400 0.67500 0.13700 -0.24100
H 	H 	0.43800 0.69100 0.20000 0.10200
H 	H 	0.46200 0.70100 0.27400 -0.01300
H 	H 	0.54200 0.68400 0.28900 0.02300
H 	H 	0.59700 0.66400 0.22600 0.16500
Ni	Ni	0.10100 0.84730 0.88110 0.54500
O 	O 	0.05470 0.89070 0.91160 -0.42000
O 	O 	0.05270 0.95700 0.87040 -0.25400
C 	C 	0.03730 0.92980 0.90200 0.34600
C 	C 	0.99650 0.94420 0.93060 -0.13400
C 	C 	0.96990 0.98370 0.91840 0.06200
O 	O 	0.15820 0.86480 0.92270 -0.68900
O 	O 	0.12600 0.90380 0.84140 0.44600
C 	C 	0.17440 0.91020 0.91210 -0.08300
C 	C 	0.16970 0.92060 0.85830 -0.06100
C 	C 	0.21730 0.92070 0.93480 0.08600
C 	C 	0.17870 0.96680 0.84240 0.25900
N 	N 	0.04560 0.83310 0.83480 -0.23300
C 	C 	0.00170 0.82960 0.84820 0.10100
C 	C 	0.96570 0.81770 0.81430 -0.04900
C 	C 	0.97430 0.80990 0.76800 0.00800
C 	C 	0.01430 0.81420 0.75560 -0.18500
C 	C 	0.05100 0.82510 0.78200 0.10800
N 	N 	0.04800 0.83180 0.81700 -0.06600
C 	C 	0.00340 0.82390 0.83080 0.18300
C 	C 	0.97060 0.81300 0.79270 -0.17000
C 	C 	0.98290 0.80820 0.75050 0.18600
C 	C 	0.03100 0.81770 0.74250 -0.09700
C 	C 	0.06460 0.82990 0.77990 0.14200
H 	H 	0.98000 0.99800 0.89000 0.03100
H 	H 	0.15200 0.93100 0.92700 0.02700
H 	H 	0.20400 0.92200 0.89700 -0.11100
H 	H 	0.15600 0.94500 0.90800 0.01500
H 	H 	0.21500 0.91200 0.96700 0.08900
H 	H 	0.22400 0.95400 0.93200 0.00500
H 	H 	0.24200 0.90300 0.92000 -0.00300
H 	H 	0.19300 0.90100 0.84300 0.02700
H 	H 	0.20700 0.91300 0.92100 0.04500
H 	H 	0.15700 0.93300 0.93000 0.00900
H 	H 	0.17400 0.96800 0.80900 -0.18300
H 	H 	0.21000 0.97500 0.85000 -0.04800
H 	H 	0.15700 0.98800 0.85700 -0.02400
H 	H 	0.99300 0.83500 0.88000 0.16000
H 	H 	0.93400 0.81500 0.82500 -0.00200
H 	H 	0.95000 0.80100 0.74600 -0.00100
H 	H 	0.02000 0.80900 0.72300 0.12000
H 	H 	0.08100 0.82800 0.76800 -0.22500
H 	H 	0.99400 0.82500 0.86300 -0.24100
H 	H 	0.93800 0.80900 0.80000 0.10200
H 	H 	0.96200 0.79900 0.72600 -0.01300
H 	H 	0.04200 0.81600 0.71100 0.02300
H 	H 	0.09700 0.83600 0.77400 0.16500
Ni	Ni	0.61890 0.89900 0.34730 0.54500
O 	O 	0.58840 0.94530 0.39070 -0.42000
O 	O 	0.62960 0.94730 0.45700 -0.25400
C 	C 	0.59800 0.96270 0.42980 0.34600
C 	C 	0.56940 0.00350 0.44420 -0.13400
C 	C 	0.58160 0.03010 0.48370 0.06200
O 	O 	0.57730 0.84180 0.36480 -0.68900
O 	O 	0.65860 0.87400 0.40380 0.44600
C 	C 	0.58790 0.82560 0.41020 -0.08300
C 	C 	0.64170 0.83030 0.42060 -0.06100
C 	C 	0.56520 0.78270 0.42070 0.08600
C 	C 	0.65760 0.82130 0.46680 0.25900
N 	N 	0.66520 0.95440 0.33310 -0.23300
C 	C 	0.65180 0.99830 0.32960 0.10100
C 	C 	0.68570 0.03430 0.31770 -0.04900
C 	C 	0.73200 0.02570 0.30990 0.00800
C 	C 	0.74440 0.98570 0.31420 -0.18500
C 	C 	0.71800 0.94900 0.32510 0.10800
N 	N 	0.68300 0.95200 0.33180 -0.06600
C 	C 	0.66920 0.99660 0.32390 0.18300
C 	C 	0.70730 0.02940 0.31300 -0.17000
C 	C 	0.74950 0.01710 0.30820 0.18600
C 	C 	0.75750 0.96900 0.31770 -0.09700
C 	C 	0.72010 0.93540 0.32990 0.14200
H 	H 	0.61000 0.02000 0.49800 0.03100
H 	H 	0.57300 0.84800 0.43100 0.02700
H 	H 	0.60300 0.79600 0.42200 -0.11100
H 	H 	0.59200 0.84400 0.44500 0.01500
H 	H 	0.53300 0.78500 0.41200 0.08900
H 	H 	0.56800 0.77600 0.45400 0.00500
H 	H 	0.58000 0.75800 0.40300 -0.00300
H 	H 	0.65700 0.80700 0.40100 0.02700
H 	H 	0.57900 0.79300 0.41300 0.04500
H 	H 	0.57000 0.84300 0.43300 0.00900
H 	H 	0.69100 0.82600 0.46800 -0.18300
H 	H 	0.65000 0.79000 0.47500 -0.04800
H 	H 	0.64300 0.84300 0.48800 -0.02400
H 	H 	0.62000 0.00700 0.33500 0.16000
H 	H 	0.67500 0.06600 0.31500 -0.00200
H 	H 	0.75400 0.05000 0.30100 -0.00100
H 	H 	0.77700 0.98000 0.30900 0.12000
H 	H 	0.73200 0.91900 0.32800 -0.22500
H 	H 	0.63700 0.00600 0.32500 -0.24000
H 	H 	0.70000 0.06200 0.30900 0.10200
H 	H 	0.77400 0.03800 0.29900 -0.01300
H 	H 	0.78900 0.95800 0.31600 0.02300
H 	H 	0.72600 0.90300 0.33600 0.16500
Ni	Ni	0.38110 0.39900 0.15270 0.54500
O 	O 	0.41160 0.44530 0.10930 -0.42000
O 	O 	0.37040 0.44730 0.04300 -0.25400
C 	C 	0.40200 0.46270 0.07020 0.34600
C 	C 	0.43060 0.50350 0.05580 -0.13400
C 	C 	0.41840 0.53010 0.01630 0.06200
O 	O 	0.42270 0.34180 0.13520 -0.68900
O 	O 	0.34140 0.37400 0.09620 0.44600
C 	C 	0.41210 0.32560 0.08980 -0.08300
C 	C 	0.35830 0.33030 0.07940 -0.06100
C 	C 	0.43480 0.28270 0.07930 0.08600
C 	C 	0.34240 0.32130 0.03320 0.25900
N 	N 	0.33480 0.45440 0.16690 -0.23300
C 	C 	0.34820 0.49830 0.17040 0.10100
C 	C 	0.31430 0.53430 0.18230 -0.04900
C 	C 	0.26800 0.52570 0.19010 0.00800
C 	C 	0.25560 0.48570 0.18580 -0.18500
C 	C 	0.28200 0.44900 0.17490 0.10800
N 	N 	0.31700 0.45200 0.16820 -0.06600
C 	C 	0.33080 0.49660 0.17610 0.18300
C 	C 	0.29270 0.52940 0.18700 -0.17000
C 	C 	0.25050 0.51710 0.19180 0.18600
C 	C 	0.24250 0.46900 0.18230 -0.09700
C 	C 	0.27990 0.43540 0.17010 0.14200
H 	H 	0.39000 0.52000 0.00200 0.03100
H 	H 	0.42700 0.34800 0.06900 0.02700
H 	H 	0.39700 0.29600 0.07800 -0.11100
H 	H 	0.40800 0.34400 0.05500 0.01500
H 	H 	0.46700 0.28500 0.08800 0.08900
H 	H 	0.43200 0.27600 0.04600 0.00500
H 	H 	0.42000 0.25800 0.09700 -0.00300
H 	H 	0.34300 0.30700 0.09900 0.02700
H 	H 	0.42100 0.29300 0.08700 0.04500
H 	H 	0.43000 0.34300 0.06700 0.00900
H 	H 	0.30900 0.32600 0.03200 -0.18300
H 	H 	0.35000 0.29000 0.02500 -0.04800
H 	H 	0.35700 0.34300 0.01200 -0.02400
H 	H 	0.38000 0.50700 0.16500 0.16000
H 	H 	0.32500 0.56600 0.18500 -0.00200
H 	H 	0.24600 0.55000 0.19900 -0.00100
H 	H 	0.22300 0.48000 0.19100 0.12000
H 	H 	0.26800 0.41900 0.17200 -0.22500
H 	H 	0.36300 0.50600 0.17500 -0.24100
H 	H 	0.30000 0.56200 0.19100 0.10200
H 	H 	0.22600 0.53800 0.20100 -0.01300
H 	H 	0.21100 0.45800 0.18400 0.02300
H 	H 	0.27400 0.40300 0.16400 0.16500
Ni	Ni	0.11890 0.60100 0.65270 0.54500
O 	O 	0.08840 0.55470 0.60930 -0.42000
O 	O 	0.12960 0.55270 0.54300 -0.25400
C 	C 	0.09800 0.53730 0.57020 0.34600
C 	C 	0.06940 0.49650 0.55580 -0.13400
C 	C 	0.08160 0.46990 0.51630 0.06200
O 	O 	0.07730 0.65820 0.63520 -0.68900
O 	O 	0.15860 0.62600 0.59620 0.44600
C 	C 	0.08790 0.67440 0.58980 -0.08300
C 	C 	0.14170 0.66970 0.57940 -0.06100
C 	C 	0.06520 0.71730 0.57930 0.08600
C 	C 	0.15760 0.67870 0.53320 0.25900
N 	N 	0.16520 0.54560 0.66690 -0.23300
C 	C 	0.15180 0.50170 0.67040 0.10100
C 	C 	0.18570 0.46570 0.68230 -0.04900
C 	C 	0.23200 0.47430 0.69010 0.00800
C 	C 	0.24440 0.51430 0.68580 -0.18500
C 	C 	0.21800 0.55100 0.67490 0.10800
N 	N 	0.18300 0.54800 0.66820 -0.06600
C 	C 	0.16920 0.50340 0.67610 0.18300
C 	C 	0.20730 0.47060 0.68700 -0.17000
C 	C 	0.24950 0.48290 0.69180 0.18600
C 	C 	0.25750 0.53100 0.68230 -0.09700
C 	C 	0.22010 0.56460 0.67010 0.14200
H 	H 	0.11000 0.48000 0.50200 0.03100
H 	H 	0.07300 0.65200 0.56900 0.02700
H 	H 	0.10300 0.70400 0.57800 -0.11100
H 	H 	0.09200 0.65600 0.55500 0.01500
H 	H 	0.03300 0.71500 0.58800 0.08900
H 	H 	0.06800 0.72400 0.54600 0.00500
H 	H 	0.08000 0.74200 0.59700 -0.00300
H 	H 	0.15700 0.69300 0.59900 0.02700
H 	H 	0.07900 0.70700 0.58700 0.04500
H 	H 	0.07000 0.65700 0.56700 0.00900
H 	H 	0.19100 0.67400 0.53200 -0.18300
H 	H 	0.15000 0.71000 0.52500 -0.04800
H 	H 	0.14300 0.65700 0.51200 -0.02400
H 	H 	0.12000 0.49300 0.66500 0.16000
H 	H 	0.17500 0.43400 0.68500 -0.00200
H 	H 	0.25400 0.45000 0.69900 -0.00100
H 	H 	0.27700 0.52000 0.69100 0.12000
H 	H 	0.23200 0.58100 0.67200 -0.22500
H 	H 	0.13700 0.49400 0.67500 -0.24100
H 	H 	0.20000 0.43800 0.69100 0.10200
H 	H 	0.27400 0.46200 0.70100 -0.01300
H 	H 	0.28900 0.54200 0.68400 0.02300
H 	H 	0.22600 0.59700 0.66400 0.16500
Ni	Ni	0.88110 0.10100 0.84730 0.54500
O 	O 	0.91160 0.05470 0.89070 -0.42000
O 	O 	0.87040 0.05270 0.95700 -0.25400
C 	C 	0.90200 0.03730 0.92980 0.34600
C 	C 	0.93060 0.99650 0.94420 -0.13400
C 	C 	0.91840 0.96990 0.98370 0.06200
O 	O 	0.92270 0.15820 0.86480 -0.68900
O 	O 	0.84140 0.12600 0.90380 0.44600
C 	C 	0.91210 0.17440 0.91020 -0.08300
C 	C 	0.85830 0.16970 0.92060 -0.06100
C 	C 	0.93480 0.21730 0.92070 0.08600
C 	C 	0.84240 0.17870 0.96680 0.25900
N 	N 	0.83480 0.04560 0.83310 -0.23300
C 	C 	0.84820 0.00170 0.82960 0.10100
C 	C 	0.81430 0.96570 0.81770 -0.04900
C 	C 	0.76800 0.97430 0.80990 0.00800
C 	C 	0.75560 0.01430 0.81420 -0.18500
C 	C 	0.78200 0.05100 0.82510 0.10800
N 	N 	0.81700 0.04800 0.83180 -0.06600
C 	C 	0.83080 0.00340 0.82390 0.18300
C 	C 	0.79270 0.97060 0.81300 -0.17000
C 	C 	0.75050 0.98290 0.80820 0.18600
C 	C 	0.74250 0.03100 0.81770 -0.09700
C 	C 	0.77990 0.06460 0.82990 0.14200
H 	H 	0.89000 0.98000 0.99800 0.03100
H 	H 	0.92700 0.15200 0.93100 0.02700
H 	H 	0.89700 0.20400 0.92200 -0.11100
H 	H 	0.90800 0.15600 0.94500 0.01500
H 	H 	0.96700 0.21500 0.91200 0.08900
H 	H 	0.93200 0.22400 0.95400 0.00500
H 	H 	0.92000 0.24200 0.90300 -0.00300
H 	H 	0.84300 0.19300 0.90100 0.02700
H 	H 	0.92100 0.20700 0.91300 0.04500
H 	H 	0.93000 0.15700 0.93300 0.00900
H 	H 	0.80900 0.17400 0.96800 -0.18300
H 	H 	0.85000 0.21000 0.97500 -0.04800
H 	H 	0.85700 0.15700 0.98800 -0.02400
H 	H 	0.88000 0.99300 0.83500 0.16000
H 	H 	0.82500 0.93400 0.81500 -0.00200
H 	H 	0.74600 0.95000 0.80100 -0.00100
H 	H 	0.72300 0.02000 0.80900 0.12000
H 	H 	0.76800 0.08100 0.82800 -0.22500
H 	H 	0.86300 0.99400 0.82500 -0.24100
H 	H 	0.80000 0.93800 0.80900 0.10200
H 	H 	0.72600 0.96200 0.79900 -0.01300
H 	H 	0.71100 0.04200 0.81600 0.02300
H 	H 	0.77400 0.09700 0.83600 0.16500
Ni	Ni	0.86890 0.09730 0.85100 0.54500
O 	O 	0.83840 0.14070 0.80470 -0.42000
O 	O 	0.87960 0.20700 0.80270 -0.25400
C 	C 	0.84800 0.17980 0.78730 0.34600
C 	C 	0.81940 0.19420 0.74650 -0.13400
C 	C 	0.83160 0.23370 0.71990 0.06200
O 	O 	0.82730 0.11480 0.90820 -0.68900
O 	O 	0.90860 0.15380 0.87600 0.44600
C 	C 	0.83790 0.16020 0.92440 -0.08300
C 	C 	0.89170 0.17060 0.91970 -0.06100
C 	C 	0.81520 0.17070 0.96730 0.08600
C 	C 	0.90760 0.21680 0.92870 0.25900
N 	N 	0.91520 0.08310 0.79560 -0.23300
C 	C 	0.90180 0.07960 0.75170 0.10100
C 	C 	0.93570 0.06770 0.71570 -0.04900
C 	C 	0.98200 0.05990 0.72430 0.00800
C 	C 	0.99440 0.06420 0.76430 -0.18500
C 	C 	0.96800 0.07510 0.80100 0.10800
N 	N 	0.93300 0.08180 0.79800 -0.06600
C 	C 	0.91920 0.07390 0.75340 0.18300
C 	C 	0.95730 0.06300 0.72060 -0.17000
C 	C 	0.99950 0.05820 0.73290 0.18600
C 	C 	0.00750 0.06770 0.78100 -0.09700
C 	C 	0.97010 0.07990 0.81460 0.14200
H 	H 	0.86000 0.24800 0.73000 0.03100
H 	H 	0.82300 0.18100 0.90200 0.02700
H 	H 	0.85300 0.17200 0.95400 -0.11100
H 	H 	0.84200 0.19500 0.90600 0.01500
H 	H 	0.78300 0.16200 0.96500 0.08900
H 	H 	0.81800 0.20400 0.97400 0.00500
H 	H 	0.83000 0.15300 0.99200 -0.00300
H 	H 	0.90700 0.15100 0.94300 0.02700
H 	H 	0.82900 0.16300 0.95700 0.04500
H 	H 	0.82000 0.18300 0.90700 0.00900
H 	H 	0.94100 0.21800 0.92400 -0.18300
H 	H 	0.90000 0.22500 0.96000 -0.04800
H 	H 	0.89300 0.23800 0.90700 -0.02400
H 	H 	0.87000 0.08500 0.74300 0.16000
H 	H 	0.92500 0.06500 0.68400 -0.00200
H 	H 	0.00400 0.05100 0.70000 -0.00100
H 	H 	0.02700 0.05900 0.77000 0.12000
H 	H 	0.98200 0.07800 0.83100 -0.22500
H 	H 	0.88700 0.07500 0.74400 -0.24100
H 	H 	0.95000 0.05900 0.68800 0.10200
H 	H 	0.02400 0.04900 0.71200 -0.01300
H 	H 	0.03900 0.06600 0.79200 0.02300
H 	H 	0.97600 0.08600 0.84700 0.16500
Ni	Ni	0.63110 0.90270 0.35100 0.54500
O 	O 	0.66160 0.85930 0.30470 -0.42000
O 	O 	0.62040 0.79300 0.30270 -0.25400
C 	C 	0.65200 0.82020 0.28730 0.34600
C 	C 	0.68060 0.80580 0.24650 -0.13400
C 	C 	0.66840 0.76630 0.21990 0.06200
O 	O 	0.67270 0.88520 0.40820 -0.68900
O 	O 	0.59140 0.84620 0.37600 0.44600
C 	C 	0.66210 0.83980 0.42440 -0.08300
C 	C 	0.60830 0.82940 0.41970 -0.06100
C 	C 	0.68480 0.82930 0.46730 0.08600
C 	C 	0.59240 0.78320 0.42870 0.25900
N 	N 	0.58480 0.91690 0.29560 -0.23300
C 	C 	0.59820 0.92040 0.25170 0.10100
C 	C 	0.56430 0.93230 0.21570 -0.04900
C 	C 	0.51800 0.94010 0.22430 0.00800
C 	C 	0.50560 0.93580 0.26430 -0.18500
C 	C 	0.53200 0.92490 0.30100 0.10800
N 	N 	0.56700 0.91820 0.29800 -0.06600
C 	C 	0.58080 0.92610 0.25340 0.18300
C 	C 	0.54270 0.93700 0.22060 -0.17000
C 	C 	0.50050 0.94180 0.23290 0.18600
C 	C 	0.49250 0.93230 0.28100 -0.09700
C 	C 	0.52990 0.92010 0.31460 0.14200
H 	H 	0.64000 0.75200 0.23000 0.03100
H 	H 	0.67700 0.81900 0.40200 0.02700
H 	H 	0.64700 0.82800 0.45400 -0.11100
H 	H 	0.65800 0.80500 0.40600 0.01500
H 	H 	0.71700 0.83800 0.46500 0.08900
H 	H 	0.68200 0.79600 0.47400 0.00500
H 	H 	0.67000 0.84700 0.49200 -0.00300
H 	H 	0.59300 0.84900 0.44300 0.02700
H 	H 	0.67100 0.83700 0.45700 0.04500
H 	H 	0.68000 0.81700 0.40700 0.00900
H 	H 	0.55900 0.78200 0.42400 -0.18300
H 	H 	0.60000 0.77500 0.46000 -0.04800
H 	H 	0.60700 0.76200 0.40700 -0.02400
H 	H 	0.63000 0.91500 0.24300 0.16000
H 	H 	0.57500 0.93500 0.18400 -0.00200
H 	H 	0.49600 0.94900 0.20000 -0.00100
H 	H 	0.47300 0.94100 0.27000 0.12000
H 	H 	0.51800 0.92200 0.33100 -0.22500
H 	H 	0.61300 0.92500 0.24400 -0.24100
H 	H 	0.55000 0.94100 0.18800 0.10200
H 	H 	0.47600 0.95100 0.21200 -0.01300
H 	H 	0.46100 0.93400 0.29200 0.02300
H 	H 	0.52400 0.91400 0.34700 0.16500
Ni	Ni	0.36890 0.40270 0.14900 0.54500
O 	O 	0.33840 0.35930 0.19530 -0.42000
O 	O 	0.37960 0.29300 0.19730 -0.25400
C 	C 	0.34800 0.32020 0.21270 0.34600
C 	C 	0.31940 0.30580 0.25350 -0.13400
C 	C 	0.33160 0.26630 0.28010 0.06200
O 	O 	0.32730 0.38520 0.09180 -0.68900
O 	O 	0.40860 0.34620 0.12400 0.44600
C 	C 	0.33790 0.33980 0.07560 -0.08300
C 	C 	0.39170 0.32940 0.08030 -0.06100
C 	C 	0.31520 0.32930 0.03270 0.08600
C 	C 	0.40760 0.28320 0.07130 0.25900
N 	N 	0.41520 0.41690 0.20440 -0.23300
C 	C 	0.40180 0.42040 0.24830 0.10100
C 	C 	0.43570 0.43230 0.28430 -0.04900
C 	C 	0.48200 0.44010 0.27570 0.00800
C 	C 	0.49440 0.43580 0.23570 -0.18500
C 	C 	0.46800 0.42490 0.19900 0.10800
N 	N 	0.43300 0.41820 0.20200 -0.06600
C 	C 	0.41920 0.42610 0.24660 0.18300
C 	C 	0.45730 0.43700 0.27940 -0.17000
C 	C 	0.49950 0.44180 0.26710 0.18600
C 	C 	0.50750 0.43230 0.21900 -0.09700
C 	C 	0.47010 0.42010 0.18540 0.14200
H 	H 	0.36000 0.25200 0.27000 0.03100
H 	H 	0.32300 0.31900 0.09800 0.02700
H 	H 	0.35300 0.32800 0.04600 -0.11100
H 	H 	0.34200 0.30500 0.09400 0.01500
H 	H 	0.28300 0.33800 0.03500 0.08900
H 	H 	0.31800 0.29600 0.02600 0.00500
H 	H 	0.33000 0.34700 0.00800 -0.00300
H 	H 	0.40700 0.34900 0.05700 0.02700
H 	H 	0.32900 0.33700 0.04300 0.04500
H 	H 	0.32000 0.31700 0.09300 0.00900
H 	H 	0.44100 0.28200 0.07600 -0.18300
H 	H 	0.40000 0.27500 0.04000 -0.04800
H 	H 	0.39300 0.26200 0.09300 -0.02400
H 	H 	0.37000 0.41500 0.25700 0.16000
H 	H 	0.42500 0.43500 0.31600 -0.00200
H 	H 	0.50400 0.44900 0.30000 -0.00100
H 	H 	0.52700 0.44100 0.23000 0.12000
H 	H 	0.48200 0.42200 0.16900 -0.22500
H 	H 	0.38700 0.42500 0.25600 -0.24100
H 	H 	0.45000 0.44100 0.31200 0.10200
H 	H 	0.52400 0.45100 0.28800 -0.01300
H 	H 	0.53900 0.43400 0.20800 0.02300
H 	H 	0.47600 0.41400 0.15300 0.16500
Ni	Ni	0.13110 0.59730 0.64900 0.54500
O 	O 	0.16160 0.64070 0.69530 -0.42000
O 	O 	0.12040 0.70700 0.69730 -0.25400
C 	C 	0.15200 0.67980 0.71270 0.34600
C 	C 	0.18060 0.69420 0.75350 -0.13400
C 	C 	0.16840 0.73370 0.78010 0.06200
O 	O 	0.17270 0.61480 0.59180 -0.68900
O 	O 	0.09140 0.65380 0.62400 0.44600
C 	C 	0.16210 0.66020 0.57560 -0.08300
C 	C 	0.10830 0.67060 0.58030 -0.06100
C 	C 	0.18480 0.67070 0.53270 0.08600
C 	C 	0.09240 0.71680 0.57130 0.25900
N 	N 	0.08480 0.58310 0.70440 -0.23300
C 	C 	0.09820 0.57960 0.74830 0.10100
C 	C 	0.06430 0.56770 0.78430 -0.04900
C 	C 	0.01800 0.55990 0.77570 0.00800
C 	C 	0.00560 0.56420 0.73570 -0.18500
C 	C 	0.03200 0.57510 0.69900 0.10800
N 	N 	0.06700 0.58180 0.70200 -0.06600
C 	C 	0.08080 0.57390 0.74660 0.18300
C 	C 	0.04270 0.56300 0.77940 -0.17000
C 	C 	0.00050 0.55820 0.76710 0.18600
C 	C 	0.99250 0.56770 0.71900 -0.09700
C 	C 	0.02990 0.57990 0.68540 0.14200
H 	H 	0.14000 0.74800 0.77000 0.03100
H 	H 	0.17700 0.68100 0.59800 0.02700
H 	H 	0.14700 0.67200 0.54600 -0.11100
H 	H 	0.15800 0.69500 0.59400 0.01500
H 	H 	0.21700 0.66200 0.53500 0.08900
H 	H 	0.18200 0.70400 0.52600 0.00500
H 	H 	0.17000 0.65300 0.50800 -0.00300
H 	H 	0.09300 0.65100 0.55700 0.02700
H 	H 	0.17100 0.66300 0.54300 0.04500
H 	H 	0.18000 0.68300 0.59300 0.00900
H 	H 	0.05900 0.71800 0.57600 -0.18300
H 	H 	0.10000 0.72500 0.54000 -0.04800
H 	H 	0.10700 0.73800 0.59300 -0.02400
H 	H 	0.13000 0.58500 0.75700 0.16000
H 	H 	0.07500 0.56500 0.81600 -0.00200
H 	H 	0.99600 0.55100 0.80000 -0.00100
H 	H 	0.97300 0.55900 0.73000 0.12000
H 	H 	0.01800 0.57800 0.66900 -0.22500
H 	H 	0.11300 0.57500 0.75600 -0.24100
H 	H 	0.05000 0.55900 0.81200 0.10200
H 	H 	0.97600 0.54900 0.78800 -0.01300
H 	H 	0.96100 0.56600 0.70800 0.02300
H 	H 	0.02400 0.58600 0.65300 0.16500
Ni	Ni	0.59730 0.64900 0.13110 0.54500
O 	O 	0.64070 0.69530 0.16160 -0.42000
O 	O 	0.70700 0.69730 0.12040 -0.25400
C 	C 	0.67980 0.71270 0.15200 0.34600
C 	C 	0.69420 0.75350 0.18060 -0.13400
C 	C 	0.73370 0.78010 0.16840 0.06200
O 	O 	0.61480 0.59180 0.17270 -0.68900
O 	O 	0.65380 0.62400 0.09140 0.44600
C 	C 	0.66020 0.57560 0.16210 -0.08300
C 	C 	0.67060 0.58030 0.10830 -0.06100
C 	C 	0.67070 0.53270 0.18480 0.08600
C 	C 	0.71680 0.57130 0.09240 0.25900
N 	N 	0.58310 0.70440 0.08480 -0.23300
C 	C 	0.57960 0.74830 0.09820 0.10100
C 	C 	0.56770 0.78430 0.06430 -0.04900
C 	C 	0.55990 0.77570 0.01800 0.00800
C 	C 	0.56420 0.73570 0.00560 -0.18500
C 	C 	0.57510 0.69900 0.03200 0.10800
N 	N 	0.58180 0.70200 0.06700 -0.06600
C 	C 	0.57390 0.74660 0.08080 0.18300
C 	C 	0.56300 0.77940 0.04270 -0.17000
C 	C 	0.55820 0.76710 0.00050 0.18600
C 	C 	0.56770 0.71900 0.99250 -0.09700
C 	C 	0.57990 0.68540 0.02990 0.14200
H 	H 	0.74800 0.77000 0.14000 0.03100
H 	H 	0.68100 0.59800 0.17700 0.02700
H 	H 	0.67200 0.54600 0.14700 -0.11100
H 	H 	0.69500 0.59400 0.15800 0.01500
H 	H 	0.66200 0.53500 0.21700 0.08900
H 	H 	0.70400 0.52600 0.18200 0.00500
H 	H 	0.65300 0.50800 0.17000 -0.00300
H 	H 	0.65100 0.55700 0.09300 0.02700
H 	H 	0.66300 0.54300 0.17100 0.04500
H 	H 	0.68300 0.59300 0.18000 0.00900
H 	H 	0.71800 0.57600 0.05900 -0.18300
H 	H 	0.72500 0.54000 0.10000 -0.04800
H 	H 	0.73800 0.59300 0.10700 -0.02400
H 	H 	0.58500 0.75700 0.13000 0.16000
H 	H 	0.56500 0.81600 0.07500 -0.00200
H 	H 	0.55100 0.80000 0.99600 -0.00100
H 	H 	0.55900 0.73000 0.97300 0.12000
H 	H 	0.57800 0.66900 0.01800 -0.22500
H 	H 	0.57500 0.75600 0.11300 -0.24100
H 	H 	0.55900 0.81200 0.05000 0.10200
H 	H 	0.54900 0.78800 0.97600 -0.01300
H 	H 	0.56600 0.70800 0.96100 0.02300
H 	H 	0.58600 0.65300 0.02400 0.16500
Ni	Ni	0.40270 0.14900 0.36890 0.54500
O 	O 	0.35930 0.19530 0.33840 -0.42000
O 	O 	0.29300 0.19730 0.37960 -0.25400
C 	C 	0.32020 0.21270 0.34800 0.34600
C 	C 	0.30580 0.25350 0.31940 -0.13400
C 	C 	0.26630 0.28010 0.33160 0.06200
O 	O 	0.38520 0.09180 0.32730 -0.68900
O 	O 	0.34620 0.12400 0.40860 0.44600
C 	C 	0.33980 0.07560 0.33790 -0.08300
C 	C 	0.32940 0.08030 0.39170 -0.06100
C 	C 	0.32930 0.03270 0.31520 0.08600
C 	C 	0.28320 0.07130 0.40760 0.25900
N 	N 	0.41690 0.20440 0.41520 -0.23300
C 	C 	0.42040 0.24830 0.40180 0.10100
C 	C 	0.43230 0.28430 0.43570 -0.04900
C 	C 	0.44010 0.27570 0.48200 0.00800
C 	C 	0.43580 0.23570 0.49440 -0.18500
C 	C 	0.42490 0.19900 0.46800 0.10800
N 	N 	0.41820 0.20200 0.43300 -0.06600
C 	C 	0.42610 0.24660 0.41920 0.18300
C 	C 	0.43700 0.27940 0.45730 -0.17000
C 	C 	0.44180 0.26710 0.49950 0.18600
C 	C 	0.43230 0.21900 0.50750 -0.09700
C 	C 	0.42010 0.18540 0.47010 0.14200
H 	H 	0.25200 0.27000 0.36000 0.03100
H 	H 	0.31900 0.09800 0.32300 0.02700
H 	H 	0.32800 0.04600 0.35300 -0.11100
H 	H 	0.30500 0.09400 0.34200 0.01500
H 	H 	0.33800 0.03500 0.28300 0.08900
H 	H 	0.29600 0.02600 0.31800 0.00500
H 	H 	0.34700 0.00800 0.33000 -0.00300
H 	H 	0.34900 0.05700 0.40700 0.02700
H 	H 	0.33700 0.04300 0.32900 0.04500
H 	H 	0.31700 0.09300 0.32000 0.00900
H 	H 	0.28200 0.07600 0.44100 -0.18300
H 	H 	0.27500 0.04000 0.40000 -0.04800
H 	H 	0.26200 0.09300 0.39300 -0.02400
H 	H 	0.41500 0.25700 0.37000 0.16000
H 	H 	0.43500 0.31600 0.42500 -0.00200
H 	H 	0.44900 0.30000 0.50400 -0.00100
H 	H 	0.44100 0.23000 0.52700 0.12000
H 	H 	0.42200 0.16900 0.48200 -0.22500
H 	H 	0.42500 0.25600 0.38700 -0.24100
H 	H 	0.44100 0.31200 0.45000 0.10200
H 	H 	0.45100 0.28800 0.52400 -0.01300
H 	H 	0.43400 0.20800 0.53900 0.02300
H 	H 	0.41400 0.15300 0.47600 0.16500
Ni	Ni	0.90270 0.35100 0.63110 0.54500
O 	O 	0.85930 0.30470 0.66160 -0.42000
O 	O 	0.79300 0.30270 0.62040 -0.25400
C 	C 	0.82020 0.28730 0.65200 0.34600
C 	C 	0.80580 0.24650 0.68060 -0.13400
C 	C 	0.76630 0.21990 0.66840 0.06200
O 	O 	0.88520 0.40820 0.67270 -0.68900
O 	O 	0.84620 0.37600 0.59140 0.44600
C 	C 	0.83980 0.42440 0.66210 -0.08300
C 	C 	0.82940 0.41970 0.60830 -0.06100
C 	C 	0.82930 0.46730 0.68480 0.08600
C 	C 	0.78320 0.42870 0.59240 0.25900
N 	N 	0.91690 0.29560 0.58480 -0.23300
C 	C 	0.92040 0.25170 0.59820 0.10100
C 	C 	0.93230 0.21570 0.56430 -0.04900
C 	C 	0.94010 0.22430 0.51800 0.00800
C 	C 	0.93580 0.26430 0.50560 -0.18500
C 	C 	0.92490 0.30100 0.53200 0.10800
N 	N 	0.91820 0.29800 0.56700 -0.06600
C 	C 	0.92610 0.25340 0.58080 0.18300
C 	C 	0.93700 0.22060 0.54270 -0.17000
C 	C 	0.94180 0.23290 0.50050 0.18600
C 	C 	0.93230 0.28100 0.49250 -0.09700
C 	C 	0.92010 0.31460 0.52990 0.14200
H 	H 	0.75200 0.23000 0.64000 0.03100
H 	H 	0.81900 0.40200 0.67700 0.02700
H 	H 	0.82800 0.45400 0.64700 -0.11100
H 	H 	0.80500 0.40600 0.65800 0.01500
H 	H 	0.83800 0.46500 0.71700 0.08900
H 	H 	0.79600 0.47400 0.68200 0.00500
H 	H 	0.84700 0.49200 0.67000 -0.00300
H 	H 	0.84900 0.44300 0.59300 0.02700
H 	H 	0.83700 0.45700 0.67100 0.04500
H 	H 	0.81700 0.40700 0.68000 0.00900
H 	H 	0.78200 0.42400 0.55900 -0.18300
H 	H 	0.77500 0.46000 0.60000 -0.04800
H 	H 	0.76200 0.40700 0.60700 -0.02400
H 	H 	0.91500 0.24300 0.63000 0.16000
H 	H 	0.93500 0.18400 0.57500 -0.00200
H 	H 	0.94900 0.20000 0.49600 -0.00100
H 	H 	0.94100 0.27000 0.47300 0.12000
H 	H 	0.92200 0.33100 0.51800 -0.22500
H 	H 	0.92500 0.24400 0.61300 -0.24100
H 	H 	0.94100 0.18800 0.55000 0.10200
H 	H 	0.95100 0.21200 0.47600 -0.01300
H 	H 	0.93400 0.29200 0.46100 0.02300
H 	H 	0.91400 0.34700 0.52400 0.16500
Ni	Ni	0.09730 0.85100 0.86890 0.54500
O 	O 	0.14070 0.80470 0.83840 -0.42000
O 	O 	0.20700 0.80270 0.87960 -0.25400
C 	C 	0.17980 0.78730 0.84800 0.34600
C 	C 	0.19420 0.74650 0.81940 -0.13400
C 	C 	0.23370 0.71990 0.83160 0.06200
O 	O 	0.11480 0.90820 0.82730 -0.68900
O 	O 	0.15380 0.87600 0.90860 0.44600
C 	C 	0.16020 0.92440 0.83790 -0.08300
C 	C 	0.17060 0.91970 0.89170 -0.06100
C 	C 	0.17070 0.96730 0.81520 0.08600
C 	C 	0.21680 0.92870 0.90760 0.25900
N 	N 	0.08310 0.79560 0.91520 -0.23300
C 	C 	0.07960 0.75170 0.90180 0.10100
C 	C 	0.06770 0.71570 0.93570 -0.04900
C 	C 	0.05990 0.72430 0.98200 0.00800
C 	C 	0.06420 0.76430 0.99440 -0.18500
C 	C 	0.07510 0.80100 0.96800 0.10800
N 	N 	0.08180 0.79800 0.93300 -0.06600
C 	C 	0.07390 0.75340 0.91920 0.18300
C 	C 	0.06300 0.72060 0.95730 -0.17000
C 	C 	0.05820 0.73290 0.99950 0.18600
C 	C 	0.06770 0.78100 0.00750 -0.09700
C 	C 	0.07990 0.81460 0.97010 0.14200
H 	H 	0.24800 0.73000 0.86000 0.03100
H 	H 	0.18100 0.90200 0.82300 0.02700
H 	H 	0.17200 0.95400 0.85300 -0.11100
H 	H 	0.19500 0.90600 0.84200 0.01500
H 	H 	0.16200 0.96500 0.78300 0.08900
H 	H 	0.20400 0.97400 0.81800 0.00500
H 	H 	0.15300 0.99200 0.83000 -0.00300
H 	H 	0.15100 0.94300 0.90700 0.02700
H 	H 	0.16300 0.95700 0.82900 0.04500
H 	H 	0.18300 0.90700 0.82000 0.00900
H 	H 	0.21800 0.92400 0.94100 -0.18300
H 	H 	0.22500 0.96000 0.90000 -0.04800
H 	H 	0.23800 0.90700 0.89300 -0.02400
H 	H 	0.08500 0.74300 0.87000 0.16000
H 	H 	0.06500 0.68400 0.92500 -0.00200
H 	H 	0.05100 0.70000 0.00400 -0.00100
H 	H 	0.05900 0.77000 0.02700 0.12000
H 	H 	0.07800 0.83100 0.98200 -0.22500
H 	H 	0.07500 0.74400 0.88700 -0.24100
H 	H 	0.05900 0.68800 0.95000 0.10200
H 	H 	0.04900 0.71200 0.02400 -0.01300
H 	H 	0.06600 0.79200 0.03900 0.02300
H 	H 	0.08600 0.84700 0.97600 0.16500
Ni	Ni	0.14900 0.36890 0.40270 0.54500
O 	O 	0.19530 0.33840 0.35930 -0.42000
O 	O 	0.19730 0.37960 0.29300 -0.25400
C 	C 	0.21270 0.34800 0.32020 0.34600
C 	C 	0.25350 0.31940 0.30580 -0.13400
C 	C 	0.28010 0.33160 0.26630 0.06200
O 	O 	0.09180 0.32730 0.38520 -0.68900
O 	O 	0.12400 0.40860 0.34620 0.44600
C 	C 	0.07560 0.33790 0.33980 -0.08300
C 	C 	0.08030 0.39170 0.32940 -0.06100
C 	C 	0.03270 0.31520 0.32930 0.08600
C 	C 	0.07130 0.40760 0.28320 0.25900
N 	N 	0.20440 0.41520 0.41690 -0.23300
C 	C 	0.24830 0.40180 0.42040 0.10100
C 	C 	0.28430 0.43570 0.43230 -0.04900
C 	C 	0.27570 0.48200 0.44010 0.00800
C 	C 	0.23570 0.49440 0.43580 -0.18500
C 	C 	0.19900 0.46800 0.42490 0.10800
N 	N 	0.20200 0.43300 0.41820 -0.06600
C 	C 	0.24660 0.41920 0.42610 0.18300
C 	C 	0.27940 0.45730 0.43700 -0.17000
C 	C 	0.26710 0.49950 0.44180 0.18600
C 	C 	0.21900 0.50750 0.43230 -0.09700
C 	C 	0.18540 0.47010 0.42010 0.14200
H 	H 	0.27000 0.36000 0.25200 0.03100
H 	H 	0.09800 0.32300 0.31900 0.02700
H 	H 	0.04600 0.35300 0.32800 -0.11100
H 	H 	0.09400 0.34200 0.30500 0.01500
H 	H 	0.03500 0.28300 0.33800 0.08900
H 	H 	0.02600 0.31800 0.29600 0.00500
H 	H 	0.00800 0.33000 0.34700 -0.00300
H 	H 	0.05700 0.40700 0.34900 0.02700
H 	H 	0.04300 0.32900 0.33700 0.04500
H 	H 	0.09300 0.32000 0.31700 0.00900
H 	H 	0.07600 0.44100 0.28200 -0.18300
H 	H 	0.04000 0.40000 0.27500 -0.04800
H 	H 	0.09300 0.39300 0.26200 -0.02400
H 	H 	0.25700 0.37000 0.41500 0.16000
H 	H 	0.31600 0.42500 0.43500 -0.00200
H 	H 	0.30000 0.50400 0.44900 -0.00100
H 	H 	0.23000 0.52700 0.44100 0.12000
H 	H 	0.16900 0.48200 0.42200 -0.22500
H 	H 	0.25600 0.38700 0.42500 -0.24100
H 	H 	0.31200 0.45000 0.44100 0.10200
H 	H 	0.28800 0.52400 0.45100 -0.01300
H 	H 	0.20800 0.53900 0.43400 0.02300
H 	H 	0.15300 0.47600 0.41400 0.16500
Ni	Ni	0.64900 0.13110 0.59730 0.54500
O 	O 	0.69530 0.16160 0.64070 -0.42000
O 	O 	0.69730 0.12040 0.70700 -0.25400
C 	C 	0.71270 0.15200 0.67980 0.34600
C 	C 	0.75350 0.18060 0.69420 -0.13400
C 	C 	0.78010 0.16840 0.73370 0.06200
O 	O 	0.59180 0.17270 0.61480 -0.68900
O 	O 	0.62400 0.09140 0.65380 0.44600
C 	C 	0.57560 0.16210 0.66020 -0.08300
C 	C 	0.58030 0.10830 0.67060 -0.06100
C 	C 	0.53270 0.18480 0.67070 0.08600
C 	C 	0.57130 0.09240 0.71680 0.25900
N 	N 	0.70440 0.08480 0.58310 -0.23300
C 	C 	0.74830 0.09820 0.57960 0.10100
C 	C 	0.78430 0.06430 0.56770 -0.04900
C 	C 	0.77570 0.01800 0.55990 0.00800
C 	C 	0.73570 0.00560 0.56420 -0.18500
C 	C 	0.69900 0.03200 0.57510 0.10800
N 	N 	0.70200 0.06700 0.58180 -0.06600
C 	C 	0.74660 0.08080 0.57390 0.18300
C 	C 	0.77940 0.04270 0.56300 -0.17000
C 	C 	0.76710 0.00050 0.55820 0.18600
C 	C 	0.71900 0.99250 0.56770 -0.09700
C 	C 	0.68540 0.02990 0.57990 0.14200
H 	H 	0.77000 0.14000 0.74800 0.03100
H 	H 	0.59800 0.17700 0.68100 0.02700
H 	H 	0.54600 0.14700 0.67200 -0.11100
H 	H 	0.59400 0.15800 0.69500 0.01500
H 	H 	0.53500 0.21700 0.66200 0.08900
H 	H 	0.52600 0.18200 0.70400 0.00500
H 	H 	0.50800 0.17000 0.65300 -0.00300
H 	H 	0.55700 0.09300 0.65100 0.02700
H 	H 	0.54300 0.17100 0.66300 0.04500
H 	H 	0.59300 0.18000 0.68300 0.00900
H 	H 	0.57600 0.05900 0.71800 -0.18300
H 	H 	0.54000 0.10000 0.72500 -0.04800
H 	H 	0.59300 0.10700 0.73800 -0.02400
H 	H 	0.75700 0.13000 0.58500 0.16000
H 	H 	0.81600 0.07500 0.56500 -0.00200
H 	H 	0.80000 0.99600 0.55100 -0.00100
H 	H 	0.73000 0.97300 0.55900 0.12000
H 	H 	0.66900 0.01800 0.57800 -0.22500
H 	H 	0.75600 0.11300 0.57500 -0.24100
H 	H 	0.81200 0.05000 0.55900 0.10200
H 	H 	0.78800 0.97600 0.54900 -0.01300
H 	H 	0.70800 0.96100 0.56600 0.02300
H 	H 	0.65300 0.02400 0.58600 0.16500
Ni	Ni	0.85100 0.86890 0.09730 0.54500
O 	O 	0.80470 0.83840 0.14070 -0.42000
O 	O 	0.80270 0.87960 0.20700 -0.25400
C 	C 	0.78730 0.84800 0.17980 0.34600
C 	C 	0.74650 0.81940 0.19420 -0.13400
C 	C 	0.71990 0.83160 0.23370 0.06200
O 	O 	0.90820 0.82730 0.11480 -0.68900
O 	O 	0.87600 0.90860 0.15380 0.44600
C 	C 	0.92440 0.83790 0.16020 -0.08300
C 	C 	0.91970 0.89170 0.17060 -0.06100
C 	C 	0.96730 0.81520 0.17070 0.08600
C 	C 	0.92870 0.90760 0.21680 0.25900
N 	N 	0.79560 0.91520 0.08310 -0.23300
C 	C 	0.75170 0.90180 0.07960 0.10100
C 	C 	0.71570 0.93570 0.06770 -0.04900
C 	C 	0.72430 0.98200 0.05990 0.00800
C 	C 	0.76430 0.99440 0.06420 -0.18500
C 	C 	0.80100 0.96800 0.07510 0.10800
N 	N 	0.79800 0.93300 0.08180 -0.06600
C 	C 	0.75340 0.91920 0.07390 0.18300
C 	C 	0.72060 0.95730 0.06300 -0.17000
C 	C 	0.73290 0.99950 0.05820 0.18600
C 	C 	0.78100 0.00750 0.06770 -0.09700
C 	C 	0.81460 0.97010 0.07990 0.14200
H 	H 	0.73000 0.86000 0.24800 0.03100
H 	H 	0.90200 0.82300 0.18100 0.02700
H 	H 	0.95400 0.85300 0.17200 -0.11100
H 	H 	0.90600 0.84200 0.19500 0.01500
H 	H 	0.96500 0.78300 0.16200 0.08900
H 	H 	0.97400 0.81800 0.20400 0.00500
H 	H 	0.99200 0.83000 0.15300 -0.00300
H 	H 	0.94300 0.90700 0.15100 0.02700
H 	H 	0.95700 0.82900 0.16300 0.04500
H 	H 	0.90700 0.82000 0.18300 0.00900
H 	H 	0.92400 0.94100 0.21800 -0.18300
H 	H 	0.96000 0.90000 0.22500 -0.04800
H 	H 	0.90700 0.89300 0.23800 -0.02400
H 	H 	0.74300 0.87000 0.08500 0.16000
H 	H 	0.68400 0.92500 0.06500 -0.00200
H 	H 	0.70000 0.00400 0.05100 -0.00100
H 	H 	0.77000 0.02700 0.05900 0.12000
H 	H 	0.83100 0.98200 0.07800 -0.22500
H 	H 	0.74400 0.88700 0.07500 -0.24100
H 	H 	0.68800 0.95000 0.05900 0.10200
H 	H 	0.71200 0.02400 0.04900 -0.01300
H 	H 	0.79200 0.03900 0.06600 0.02300
H 	H 	0.84700 0.97600 0.08600 0.16500
Ni	Ni	0.35100 0.63110 0.90270 0.54500
O 	O 	0.30470 0.66160 0.85930 -0.42000
O 	O 	0.30270 0.62040 0.79300 -0.25400
C 	C 	0.28730 0.65200 0.82020 0.34600
C 	C 	0.24650 0.68060 0.80580 -0.13400
C 	C 	0.21990 0.66840 0.76630 0.06200
O 	O 	0.40820 0.67270 0.88520 -0.68900
O 	O 	0.37600 0.59140 0.84620 0.44600
C 	C 	0.42440 0.66210 0.83980 -0.08300
C 	C 	0.41970 0.60830 0.82940 -0.06100
C 	C 	0.46730 0.68480 0.82930 0.08600
C 	C 	0.42870 0.59240 0.78320 0.25900
N 	N 	0.29560 0.58480 0.91690 -0.23300
C 	C 	0.25170 0.59820 0.92040 0.10100
C 	C 	0.21570 0.56430 0.93230 -0.04900
C 	C 	0.22430 0.51800 0.94010 0.00800
C 	C 	0.26430 0.50560 0.93580 -0.18500
C 	C 	0.30100 0.53200 0.92490 0.10800
N 	N 	0.29800 0.56700 0.91820 -0.06600
C 	C 	0.25340 0.58080 0.92610 0.18300
C 	C 	0.22060 0.54270 0.93700 -0.17000
C 	C 	0.23290 0.50050 0.94180 0.18600
C 	C 	0.28100 0.49250 0.93230 -0.09700
C 	C 	0.31460 0.52990 0.92010 0.14200
H 	H 	0.23000 0.64000 0.75200 0.03100
H 	H 	0.40200 0.67700 0.81900 0.02700
H 	H 	0.45400 0.64700 0.82800 -0.11100
H 	H 	0.40600 0.65800 0.80500 0.01500
H 	H 	0.46500 0.71700 0.83800 0.08900
H 	H 	0.47400 0.68200 0.79600 0.00500
H 	H 	0.49200 0.67000 0.84700 -0.00300
H 	H 	0.44300 0.59300 0.84900 0.02700
H 	H 	0.45700 0.67100 0.83700 0.04500
H 	H 	0.40700 0.68000 0.81700 0.00900
H 	H 	0.42400 0.55900 0.78200 -0.18300
H 	H 	0.46000 0.60000 0.77500 -0.04800
H 	H 	0.40700 0.60700 0.76200 -0.02400
H 	H 	0.24300 0.63000 0.91500 0.16000
H 	H 	0.18400 0.57500 0.93500 -0.00200
H 	H 	0.20000 0.49600 0.94900 -0.00100
H 	H 	0.27000 0.47300 0.94100 0.12000
H 	H 	0.33100 0.51800 0.92200 -0.22500
H 	H 	0.24400 0.61300 0.92500 -0.24100
H 	H 	0.18800 0.55000 0.94100 0.10200
H 	H 	0.21200 0.47600 0.95100 -0.01300
H 	H 	0.29200 0.46100 0.93400 0.02300
H 	H 	0.34700 0.52400 0.91400 0.16500
Ni	Ni	0.84730 0.11890 0.39900 0.54500
O 	O 	0.89070 0.08840 0.44530 -0.42000
O 	O 	0.95700 0.12960 0.44730 -0.25400
C 	C 	0.92980 0.09800 0.46270 0.34600
C 	C 	0.94420 0.06940 0.50350 -0.13400
C 	C 	0.98370 0.08160 0.53010 0.06200
O 	O 	0.86480 0.07730 0.34180 -0.68900
O 	O 	0.90380 0.15860 0.37400 0.44600
C 	C 	0.91020 0.08790 0.32560 -0.08300
C 	C 	0.92060 0.14170 0.33030 -0.06100
C 	C 	0.92070 0.06520 0.28270 0.08600
C 	C 	0.96680 0.15760 0.32130 0.25900
N 	N 	0.83310 0.16520 0.45440 -0.23300
C 	C 	0.82960 0.15180 0.49830 0.10100
C 	C 	0.81770 0.18570 0.53430 -0.04900
C 	C 	0.80990 0.23200 0.52570 0.00800
C 	C 	0.81420 0.24440 0.48570 -0.18500
C 	C 	0.82510 0.21800 0.44900 0.10800
N 	N 	0.83180 0.18300 0.45200 -0.06600
C 	C 	0.82390 0.16920 0.49660 0.18300
C 	C 	0.81300 0.20730 0.52940 -0.17000
C 	C 	0.80820 0.24950 0.51710 0.18600
C 	C 	0.81770 0.25750 0.46900 -0.09700
C 	C 	0.82990 0.22010 0.43540 0.14200
H 	H 	0.99800 0.11000 0.52000 0.03100
H 	H 	0.93100 0.07300 0.34800 0.02700
H 	H 	0.92200 0.10300 0.29600 -0.11100
H 	H 	0.94500 0.09200 0.34400 0.01500
H 	H 	0.91200 0.03300 0.28500 0.08900
H 	H 	0.95400 0.06800 0.27600 0.00500
H 	H 	0.90300 0.08000 0.25800 -0.00300
H 	H 	0.90100 0.15700 0.30700 0.02700
H 	H 	0.91300 0.07900 0.29300 0.04500
H 	H 	0.93300 0.07000 0.34300 0.00900
H 	H 	0.96800 0.19100 0.32600 -0.18300
H 	H 	0.97500 0.15000 0.29000 -0.04800
H 	H 	0.98800 0.14300 0.34300 -0.02400
H 	H 	0.83500 0.12000 0.50700 0.16000
H 	H 	0.81500 0.17500 0.56600 -0.00200
H 	H 	0.80100 0.25400 0.55000 -0.00100
H 	H 	0.80900 0.27700 0.48000 0.12000
H 	H 	0.82800 0.23200 0.41900 -0.22500
H 	H 	0.82500 0.13700 0.50600 -0.24100
H 	H 	0.80900 0.20000 0.56200 0.10200
H 	H 	0.79900 0.27400 0.53800 -0.01300
H 	H 	0.81600 0.28900 0.45800 0.02300
H 	H 	0.83600 0.22600 0.40300 0.16500
Ni	Ni	0.65270 0.88110 0.89900 0.54500
O 	O 	0.60930 0.91160 0.94530 -0.42000
O 	O 	0.54300 0.87040 0.94730 -0.25400
C 	C 	0.57020 0.90200 0.96270 0.34600
C 	C 	0.55580 0.93060 0.00350 -0.13400
C 	C 	0.51630 0.91840 0.03010 0.06200
O 	O 	0.63520 0.92270 0.84180 -0.68900
O 	O 	0.59620 0.84140 0.87400 0.44600
C 	C 	0.58980 0.91210 0.82560 -0.08300
C 	C 	0.57940 0.85830 0.83030 -0.06100
C 	C 	0.57930 0.93480 0.78270 0.08600
C 	C 	0.53320 0.84240 0.82130 0.25900
N 	N 	0.66690 0.83480 0.95440 -0.23300
C 	C 	0.67040 0.84820 0.99830 0.10100
C 	C 	0.68230 0.81430 0.03430 -0.04900
C 	C 	0.69010 0.76800 0.02570 0.00800
C 	C 	0.68580 0.75560 0.98570 -0.18500
C 	C 	0.67490 0.78200 0.94900 0.10800
N 	N 	0.66820 0.81700 0.95200 -0.06600
C 	C 	0.67610 0.83080 0.99660 0.18300
C 	C 	0.68700 0.79270 0.02940 -0.17000
C 	C 	0.69180 0.75050 0.01710 0.18600
C 	C 	0.68230 0.74250 0.96900 -0.09700
C 	C 	0.67010 0.77990 0.93540 0.14200
H 	H 	0.50200 0.89000 0.02000 0.03100
H 	H 	0.56900 0.92700 0.84800 0.02700
H 	H 	0.57800 0.89700 0.79600 -0.11100
H 	H 	0.55500 0.90800 0.84400 0.01500
H 	H 	0.58800 0.96700 0.78500 0.08900
H 	H 	0.54600 0.93200 0.77600 0.00500
H 	H 	0.59700 0.92000 0.75800 -0.00300
H 	H 	0.59900 0.84300 0.80700 0.02700
H 	H 	0.58700 0.92100 0.79300 0.04500
H 	H 	0.56700 0.93000 0.84300 0.00900
H 	H 	0.53200 0.80900 0.82600 -0.18300
H 	H 	0.52500 0.85000 0.79000 -0.04800
H 	H 	0.51200 0.85700 0.84300 -0.02400
H 	H 	0.66500 0.88000 0.00700 0.16000
H 	H 	0.68500 0.82500 0.06600 -0.00200
H 	H 	0.69900 0.74600 0.05000 -0.00100
H 	H 	0.69100 0.72300 0.98000 0.12000
H 	H 	0.67200 0.76800 0.91900 -0.22500
H 	H 	0.67500 0.86300 0.00600 -0.24000
H 	H 	0.69100 0.80000 0.06200 0.10200
H 	H 	0.70100 0.72600 0.03800 -0.01300
H 	H 	0.68400 0.71100 0.95800 0.02300
H 	H 	0.66400 0.77400 0.90300 0.16500
Ni	Ni	0.15270 0.61890 0.10100 0.54500
O 	O 	0.10930 0.58840 0.05470 -0.42000
O 	O 	0.04300 0.62960 0.05270 -0.25400
C 	C 	0.07020 0.59800 0.03730 0.34600
C 	C 	0.05580 0.56940 0.99650 -0.13400
C 	C 	0.01630 0.58160 0.96990 0.06200
O 	O 	0.13520 0.57730 0.15820 -0.68900
O 	O 	0.09620 0.65860 0.12600 0.44600
C 	C 	0.08980 0.58790 0.17440 -0.08300
C 	C 	0.07940 0.64170 0.16970 -0.06100
C 	C 	0.07930 0.56520 0.21730 0.08600
C 	C 	0.03320 0.65760 0.17870 0.25900
N 	N 	0.16690 0.66520 0.04560 -0.23300
C 	C 	0.17040 0.65180 0.00170 0.10100
C 	C 	0.18230 0.68570 0.96570 -0.04900
C 	C 	0.19010 0.73200 0.97430 0.00800
C 	C 	0.18580 0.74440 0.01430 -0.18500
C 	C 	0.17490 0.71800 0.05100 0.10800
N 	N 	0.16820 0.68300 0.04800 -0.06600
C 	C 	0.17610 0.66920 0.00340 0.18300
C 	C 	0.18700 0.70730 0.97060 -0.17000
C 	C 	0.19180 0.74950 0.98290 0.18600
C 	C 	0.18230 0.75750 0.03100 -0.09700
C 	C 	0.17010 0.72010 0.06460 0.14200
H 	H 	0.00200 0.61000 0.98000 0.03100
H 	H 	0.06900 0.57300 0.15200 0.02700
H 	H 	0.07800 0.60300 0.20400 -0.11100
H 	H 	0.05500 0.59200 0.15600 0.01500
H 	H 	0.08800 0.53300 0.21500 0.08900
H 	H 	0.04600 0.56800 0.22400 0.00500
H 	H 	0.09700 0.58000 0.24200 -0.00300
H 	H 	0.09900 0.65700 0.19300 0.02700
H 	H 	0.08700 0.57900 0.20700 0.04500
H 	H 	0.06700 0.57000 0.15700 0.00900
H 	H 	0.03200 0.69100 0.17400 -0.18300
H 	H 	0.02500 0.65000 0.21000 -0.04800
H 	H 	0.01200 0.64300 0.15700 -0.02400
H 	H 	0.16500 0.62000 0.99300 0.16000
H 	H 	0.18500 0.67500 0.93400 -0.00200
H 	H 	0.19900 0.75400 0.95000 -0.00100
H 	H 	0.19100 0.77700 0.02000 0.12000
H 	H 	0.17200 0.73200 0.08100 -0.22500
H 	H 	0.17500 0.63700 0.99400 -0.24100
H 	H 	0.19100 0.70000 0.93800 0.10200
H 	H 	0.20100 0.77400 0.96200 -0.01300
H 	H 	0.18400 0.78900 0.04200 0.02300
H 	H 	0.16400 0.72600 0.09700 0.16500
Ni	Ni	0.34730 0.38110 0.60100 0.54500
O 	O 	0.39070 0.41160 0.55470 -0.42000
O 	O 	0.45700 0.37040 0.55270 -0.25400
C 	C 	0.42980 0.40200 0.53730 0.34600
C 	C 	0.44420 0.43060 0.49650 -0.13400
C 	C 	0.48370 0.41840 0.46990 0.06200
O 	O 	0.36480 0.42270 0.65820 -0.68900
O 	O 	0.40380 0.34140 0.62600 0.44600
C 	C 	0.41020 0.41210 0.67440 -0.08300
C 	C 	0.42060 0.35830 0.66970 -0.06100
C 	C 	0.42070 0.43480 0.71730 0.08600
C 	C 	0.46680 0.34240 0.67870 0.25900
N 	N 	0.33310 0.33480 0.54560 -0.23300
C 	C 	0.32960 0.34820 0.50170 0.10100
C 	C 	0.31770 0.31430 0.46570 -0.04900
C 	C 	0.30990 0.26800 0.47430 0.00800
C 	C 	0.31420 0.25560 0.51430 -0.18500
C 	C 	0.32510 0.28200 0.55100 0.10800
N 	N 	0.33180 0.31700 0.54800 -0.06600
C 	C 	0.32390 0.33080 0.50340 0.18300
C 	C 	0.31300 0.29270 0.47060 -0.17000
C 	C 	0.30820 0.25050 0.48290 0.18600
C 	C 	0.31770 0.24250 0.53100 -0.09700
C 	C 	0.32990 0.27990 0.56460 0.14200
H 	H 	0.49800 0.39000 0.48000 0.03100
H 	H 	0.43100 0.42700 0.65200 0.02700
H 	H 	0.42200 0.39700 0.70400 -0.11100
H 	H 	0.44500 0.40800 0.65600 0.01500
H 	H 	0.41200 0.46700 0.71500 0.08900
H 	H 	0.45400 0.43200 0.72400 0.00500
H 	H 	0.40300 0.42000 0.74200 -0.00300
H 	H 	0.40100 0.34300 0.69300 0.02700
H 	H 	0.41300 0.42100 0.70700 0.04500
H 	H 	0.43300 0.43000 0.65700 0.00900
H 	H 	0.46800 0.30900 0.67400 -0.18300
H 	H 	0.47500 0.35000 0.71000 -0.04800
H 	H 	0.48800 0.35700 0.65700 -0.02400
H 	H 	0.33500 0.38000 0.49300 0.16000
H 	H 	0.31500 0.32500 0.43400 -0.00200
H 	H 	0.30100 0.24600 0.45000 -0.00100
H 	H 	0.30900 0.22300 0.52000 0.12000
H 	H 	0.32800 0.26800 0.58100 -0.22500
H 	H 	0.32500 0.36300 0.49400 -0.24100
H 	H 	0.30900 0.30000 0.43800 0.10200
H 	H 	0.29900 0.22600 0.46200 -0.01300
H 	H 	0.31600 0.21100 0.54200 0.02300
H 	H 	0.33600 0.27400 0.59700 0.16500
Ni	Ni	0.39900 0.84730 0.11890 0.54500
O 	O 	0.44530 0.89070 0.08840 -0.42000
O 	O 	0.44730 0.95700 0.12960 -0.25400
C 	C 	0.46270 0.92980 0.09800 0.34600
C 	C 	0.50350 0.94420 0.06940 -0.13400
C 	C 	0.53010 0.98370 0.08160 0.06200
O 	O 	0.34180 0.86480 0.07730 -0.68900
O 	O 	0.37400 0.90380 0.15860 0.44600
C 	C 	0.32560 0.91020 0.08790 -0.08300
C 	C 	0.33030 0.92060 0.14170 -0.06100
C 	C 	0.28270 0.92070 0.06520 0.08600
C 	C 	0.32130 0.96680 0.15760 0.25900
N 	N 	0.45440 0.83310 0.16520 -0.23300
C 	C 	0.49830 0.82960 0.15180 0.10100
C 	C 	0.53430 0.81770 0.18570 -0.04900
C 	C 	0.52570 0.80990 0.23200 0.00800
C 	C 	0.48570 0.81420 0.24440 -0.18500
C 	C 	0.44900 0.82510 0.21800 0.10800
N 	N 	0.45200 0.83180 0.18300 -0.06600
C 	C 	0.49660 0.82390 0.16920 0.18300
C 	C 	0.52940 0.81300 0.20730 -0.17000
C 	C 	0.51710 0.80820 0.24950 0.18600
C 	C 	0.46900 0.81770 0.25750 -0.09700
C 	C 	0.43540 0.82990 0.22010 0.14200
H 	H 	0.52000 0.99800 0.11000 0.03100
H 	H 	0.34800 0.93100 0.07300 0.02700
H 	H 	0.29600 0.92200 0.10300 -0.11100
H 	H 	0.34400 0.94500 0.09200 0.01500
H 	H 	0.28500 0.91200 0.03300 0.08900
H 	H 	0.27600 0.95400 0.06800 0.00500
H 	H 	0.25800 0.90300 0.08000 -0.00300
H 	H 	0.30700 0.90100 0.15700 0.02700
H 	H 	0.29300 0.91300 0.07900 0.04500
H 	H 	0.34300 0.93300 0.07000 0.00900
H 	H 	0.32600 0.96800 0.19100 -0.18300
H 	H 	0.29000 0.97500 0.15000 -0.04800
H 	H 	0.34300 0.98800 0.14300 -0.02400
H 	H 	0.50700 0.83500 0.12000 0.16000
H 	H 	0.56600 0.81500 0.17500 -0.00200
H 	H 	0.55000 0.80100 0.25400 -0.00100
H 	H 	0.48000 0.80900 0.27700 0.12000
H 	H 	0.41900 0.82800 0.23200 -0.22500
H 	H 	0.50600 0.82500 0.13700 -0.24100
H 	H 	0.56200 0.80900 0.20000 0.10200
H 	H 	0.53800 0.79900 0.27400 -0.01300
H 	H 	0.45800 0.81600 0.28900 0.02300
H 	H 	0.40300 0.83600 0.22600 0.16500
Ni	Ni	0.89900 0.65270 0.88110 0.54500
O 	O 	0.94530 0.60930 0.91160 -0.42000
O 	O 	0.94730 0.54300 0.87040 -0.25400
C 	C 	0.96270 0.57020 0.90200 0.34600
C 	C 	0.00350 0.55580 0.93060 -0.13400
C 	C 	0.03010 0.51630 0.91840 0.06200
O 	O 	0.84180 0.63520 0.92270 -0.68900
O 	O 	0.87400 0.59620 0.84140 0.44600
C 	C 	0.82560 0.58980 0.91210 -0.08300
C 	C 	0.83030 0.57940 0.85830 -0.06100
C 	C 	0.78270 0.57930 0.93480 0.08600
C 	C 	0.82130 0.53320 0.84240 0.25900
N 	N 	0.95440 0.66690 0.83480 -0.23300
C 	C 	0.99830 0.67040 0.84820 0.10100
C 	C 	0.03430 0.68230 0.81430 -0.04900
C 	C 	0.02570 0.69010 0.76800 0.00800
C 	C 	0.98570 0.68580 0.75560 -0.18500
C 	C 	0.94900 0.67490 0.78200 0.10800
N 	N 	0.95200 0.66820 0.81700 -0.06600
C 	C 	0.99660 0.67610 0.83080 0.18300
C 	C 	0.02940 0.68700 0.79270 -0.17000
C 	C 	0.01710 0.69180 0.75050 0.18600
C 	C 	0.96900 0.68230 0.74250 -0.09700
C 	C 	0.93540 0.67010 0.77990 0.14200
H 	H 	0.02000 0.50200 0.89000 0.03100
H 	H 	0.84800 0.56900 0.92700 0.02700
H 	H 	0.79600 0.57800 0.89700 -0.11100
H 	H 	0.84400 0.55500 0.90800 0.01500
H 	H 	0.78500 0.58800 0.96700 0.08900
H 	H 	0.77600 0.54600 0.93200 0.00500
H 	H 	0.75800 0.59700 0.92000 -0.00300
H 	H 	0.80700 0.59900 0.84300 0.02700
H 	H 	0.79300 0.58700 0.92100 0.04500
H 	H 	0.84300 0.56700 0.93000 0.00900
H 	H 	0.82600 0.53200 0.80900 -0.18300
H 	H 	0.79000 0.52500 0.85000 -0.04800
H 	H 	0.84300 0.51200 0.85700 -0.02400
H 	H 	0.00700 0.66500 0.88000 0.16000
H 	H 	0.06600 0.68500 0.82500 -0.00200
H 	H 	0.05000 0.69900 0.74600 -0.00100
H 	H 	0.98000 0.69100 0.72300 0.12000
H 	H 	0.91900 0.67200 0.76800 -0.22500
H 	H 	0.00600 0.67500 0.86300 -0.24000
H 	H 	0.06200 0.69100 0.80000 0.10200
H 	H 	0.03800 0.70100 0.72600 -0.01300
H 	H 	0.95800 0.68400 0.71100 0.02300
H 	H 	0.90300 0.66400 0.77400 0.16500
Ni	Ni	0.10100 0.15270 0.61890 0.54500
O 	O 	0.05470 0.10930 0.58840 -0.42000
O 	O 	0.05270 0.04300 0.62960 -0.25400
C 	C 	0.03730 0.07020 0.59800 0.34600
C 	C 	0.99650 0.05580 0.56940 -0.13400
C 	C 	0.96990 0.01630 0.58160 0.06200
O 	O 	0.15820 0.13520 0.57730 -0.68900
O 	O 	0.12600 0.09620 0.65860 0.44600
C 	C 	0.17440 0.08980 0.58790 -0.08300
C 	C 	0.16970 0.07940 0.64170 -0.06100
C 	C 	0.21730 0.07930 0.56520 0.08600
C 	C 	0.17870 0.03320 0.65760 0.25900
N 	N 	0.04560 0.16690 0.66520 -0.23300
C 	C 	0.00170 0.17040 0.65180 0.10100
C 	C 	0.96570 0.18230 0.68570 -0.04900
C 	C 	0.97430 0.19010 0.73200 0.00800
C 	C 	0.01430 0.18580 0.74440 -0.18500
C 	C 	0.05100 0.17490 0.71800 0.10800
N 	N 	0.04800 0.16820 0.68300 -0.06600
C 	C 	0.00340 0.17610 0.66920 0.18300
C 	C 	0.97060 0.18700 0.70730 -0.17000
C 	C 	0.98290 0.19180 0.74950 0.18600
C 	C 	0.03100 0.18230 0.75750 -0.09700
C 	C 	0.06460 0.17010 0.72010 0.14200
H 	H 	0.98000 0.00200 0.61000 0.03100
H 	H 	0.15200 0.06900 0.57300 0.02700
H 	H 	0.20400 0.07800 0.60300 -0.11100
H 	H 	0.15600 0.05500 0.59200 0.01500
H 	H 	0.21500 0.08800 0.53300 0.08900
H 	H 	0.22400 0.04600 0.56800 0.00500
H 	H 	0.24200 0.09700 0.58000 -0.00300
H 	H 	0.19300 0.09900 0.65700 0.02700
H 	H 	0.20700 0.08700 0.57900 0.04500
H 	H 	0.15700 0.06700 0.57000 0.00900
H 	H 	0.17400 0.03200 0.69100 -0.18300
H 	H 	0.21000 0.02500 0.65000 -0.04800
H 	H 	0.15700 0.01200 0.64300 -0.02400
H 	H 	0.99300 0.16500 0.62000 0.16000
H 	H 	0.93400 0.18500 0.67500 -0.00200
H 	H 	0.95000 0.19900 0.75400 -0.00100
H 	H 	0.02000 0.19100 0.77700 0.12000
H 	H 	0.08100 0.17200 0.73200 -0.22500
H 	H 	0.99400 0.17500 0.63700 -0.24100
H 	H 	0.93800 0.19100 0.70000 0.10200
H 	H 	0.96200 0.20100 0.77400 -0.01300
H 	H 	0.04200 0.18400 0.78900 0.02300
H 	H 	0.09700 0.16400 0.72600 0.16500
Ni	Ni	0.60100 0.34730 0.38110 0.54500
O 	O 	0.55470 0.39070 0.41160 -0.42000
O 	O 	0.55270 0.45700 0.37040 -0.25400
C 	C 	0.53730 0.42980 0.40200 0.34600
C 	C 	0.49650 0.44420 0.43060 -0.13400
C 	C 	0.46990 0.48370 0.41840 0.06200
O 	O 	0.65820 0.36480 0.42270 -0.68900
O 	O 	0.62600 0.40380 0.34140 0.44600
C 	C 	0.67440 0.41020 0.41210 -0.08300
C 	C 	0.66970 0.42060 0.35830 -0.06100
C 	C 	0.71730 0.42070 0.43480 0.08600
C 	C 	0.67870 0.46680 0.34240 0.25900
N 	N 	0.54560 0.33310 0.33480 -0.23300
C 	C 	0.50170 0.32960 0.34820 0.10100
C 	C 	0.46570 0.31770 0.31430 -0.04900
C 	C 	0.47430 0.30990 0.26800 0.00800
C 	C 	0.51430 0.31420 0.25560 -0.18500
C 	C 	0.55100 0.32510 0.28200 0.10800
N 	N 	0.54800 0.33180 0.31700 -0.06600
C 	C 	0.50340 0.32390 0.33080 0.18300
C 	C 	0.47060 0.31300 0.29270 -0.17000
C 	C 	0.48290 0.30820 0.25050 0.18600
C 	C 	0.53100 0.31770 0.24250 -0.09700
C 	C 	0.56460 0.32990 0.27990 0.14200
H 	H 	0.48000 0.49800 0.39000 0.03100
H 	H 	0.65200 0.43100 0.42700 0.02700
H 	H 	0.70400 0.42200 0.39700 -0.11100
H 	H 	0.65600 0.44500 0.40800 0.01500
H 	H 	0.71500 0.41200 0.46700 0.08900
H 	H 	0.72400 0.45400 0.43200 0.00500
H 	H 	0.74200 0.40300 0.42000 -0.00300
H 	H 	0.69300 0.40100 0.34300 0.02700
H 	H 	0.70700 0.41300 0.42100 0.04500
H 	H 	0.65700 0.43300 0.43000 0.00900
H 	H 	0.67400 0.46800 0.30900 -0.18300
H 	H 	0.71000 0.47500 0.35000 -0.04800
H 	H 	0.65700 0.48800 0.35700 -0.02400
H 	H 	0.49300 0.33500 0.38000 0.16000
H 	H 	0.43400 0.31500 0.32500 -0.00200
H 	H 	0.45000 0.30100 0.24600 -0.00100
H 	H 	0.52000 0.30900 0.22300 0.12000
H 	H 	0.58100 0.32800 0.26800 -0.22500
H 	H 	0.49400 0.32500 0.36300 -0.24100
H 	H 	0.43800 0.30900 0.30000 0.10200
H 	H 	0.46200 0.29900 0.22600 -0.01300
H 	H 	0.54200 0.31600 0.21100 0.02300
H 	H 	0.59700 0.33600 0.27400 0.16500
Ni	Ni	0.11890 0.39900 0.84730 0.54500
O 	O 	0.08840 0.44530 0.89070 -0.42000
O 	O 	0.12960 0.44730 0.95700 -0.25400
C 	C 	0.09800 0.46270 0.92980 0.34600
C 	C 	0.06940 0.50350 0.94420 -0.13400
C 	C 	0.08160 0.53010 0.98370 0.06200
O 	O 	0.07730 0.34180 0.86480 -0.68900
O 	O 	0.15860 0.37400 0.90380 0.44600
C 	C 	0.08790 0.32560 0.91020 -0.08300
C 	C 	0.14170 0.33030 0.92060 -0.06100
C 	C 	0.06520 0.28270 0.92070 0.08600
C 	C 	0.15760 0.32130 0.96680 0.25900
N 	N 	0.16520 0.45440 0.83310 -0.23300
C 	C 	0.15180 0.49830 0.82960 0.10100
C 	C 	0.18570 0.53430 0.81770 -0.04900
C 	C 	0.23200 0.52570 0.80990 0.00800
C 	C 	0.24440 0.48570 0.81420 -0.18500
C 	C 	0.21800 0.44900 0.82510 0.10800
N 	N 	0.18300 0.45200 0.83180 -0.06600
C 	C 	0.16920 0.49660 0.82390 0.18300
C 	C 	0.20730 0.52940 0.81300 -0.17000
C 	C 	0.24950 0.51710 0.80820 0.18600
C 	C 	0.25750 0.46900 0.81770 -0.09700
C 	C 	0.22010 0.43540 0.82990 0.14200
H 	H 	0.11000 0.52000 0.99800 0.03100
H 	H 	0.07300 0.34800 0.93100 0.02700
H 	H 	0.10300 0.29600 0.92200 -0.11100
H 	H 	0.09200 0.34400 0.94500 0.01500
H 	H 	0.03300 0.28500 0.91200 0.08900
H 	H 	0.06800 0.27600 0.95400 0.00500
H 	H 	0.08000 0.25800 0.90300 -0.00300
H 	H 	0.15700 0.30700 0.90100 0.02700
H 	H 	0.07900 0.29300 0.91300 0.04500
H 	H 	0.07000 0.34300 0.93300 0.00900
H 	H 	0.19100 0.32600 0.96800 -0.18300
H 	H 	0.15000 0.29000 0.97500 -0.04800
H 	H 	0.14300 0.34300 0.98800 -0.02400
H 	H 	0.12000 0.50700 0.83500 0.16000
H 	H 	0.17500 0.56600 0.81500 -0.00200
H 	H 	0.25400 0.55000 0.80100 -0.00100
H 	H 	0.27700 0.48000 0.80900 0.12000
H 	H 	0.23200 0.41900 0.82800 -0.22500
H 	H 	0.13700 0.50600 0.82500 -0.24100
H 	H 	0.20000 0.56200 0.80900 0.10200
H 	H 	0.27400 0.53800 0.79900 -0.01300
H 	H 	0.28900 0.45800 0.81600 0.02300
H 	H 	0.22600 0.40300 0.83600 0.16500
Ni	Ni	0.88110 0.89900 0.65270 0.54500
O 	O 	0.91160 0.94530 0.60930 -0.42000
O 	O 	0.87040 0.94730 0.54300 -0.25400
C 	C 	0.90200 0.96270 0.57020 0.34600
C 	C 	0.93060 0.00350 0.55580 -0.13400
C 	C 	0.91840 0.03010 0.51630 0.06200
O 	O 	0.92270 0.84180 0.63520 -0.68900
O 	O 	0.84140 0.87400 0.59620 0.44600
C 	C 	0.91210 0.82560 0.58980 -0.08300
C 	C 	0.85830 0.83030 0.57940 -0.06100
C 	C 	0.93480 0.78270 0.57930 0.08600
C 	C 	0.84240 0.82130 0.53320 0.25900
N 	N 	0.83480 0.95440 0.66690 -0.23300
C 	C 	0.84820 0.99830 0.67040 0.10100
C 	C 	0.81430 0.03430 0.68230 -0.04900
C 	C 	0.76800 0.02570 0.69010 0.00800
C 	C 	0.75560 0.98570 0.68580 -0.18500
C 	C 	0.78200 0.94900 0.67490 0.10800
N 	N 	0.81700 0.95200 0.66820 -0.06600
C 	C 	0.83080 0.99660 0.67610 0.18300
C 	C 	0.79270 0.02940 0.68700 -0.17000
C 	C 	0.75050 0.01710 0.69180 0.18600
C 	C 	0.74250 0.96900 0.68230 -0.09700
C 	C 	0.77990 0.93540 0.67010 0.14200
H 	H 	0.89000 0.02000 0.50200 0.03100
H 	H 	0.92700 0.84800 0.56900 0.02700
H 	H 	0.89700 0.79600 0.57800 -0.11100
H 	H 	0.90800 0.84400 0.55500 0.01500
H 	H 	0.96700 0.78500 0.58800 0.08900
H 	H 	0.93200 0.77600 0.54600 0.00500
H 	H 	0.92000 0.75800 0.59700 -0.00300
H 	H 	0.84300 0.80700 0.59900 0.02700
H 	H 	0.92100 0.79300 0.58700 0.04500
H 	H 	0.93000 0.84300 0.56700 0.00900
H 	H 	0.80900 0.82600 0.53200 -0.18300
H 	H 	0.85000 0.79000 0.52500 -0.04800
H 	H 	0.85700 0.84300 0.51200 -0.02400
H 	H 	0.88000 0.00700 0.66500 0.16000
H 	H 	0.82500 0.06600 0.68500 -0.00200
H 	H 	0.74600 0.05000 0.69900 -0.00100
H 	H 	0.72300 0.98000 0.69100 0.12000
H 	H 	0.76800 0.91900 0.67200 -0.22500
H 	H 	0.86300 0.00600 0.67500 -0.24000
H 	H 	0.80000 0.06200 0.69100 0.10200
H 	H 	0.72600 0.03800 0.70100 -0.01300
H 	H 	0.71100 0.95800 0.68400 0.02300
H 	H 	0.77400 0.90300 0.66400 0.16500
Ni	Ni	0.61890 0.10100 0.15270 0.54500
O 	O 	0.58840 0.05470 0.10930 -0.42000
O 	O 	0.62960 0.05270 0.04300 -0.25400
C 	C 	0.59800 0.03730 0.07020 0.34600
C 	C 	0.56940 0.99650 0.05580 -0.13400
C 	C 	0.58160 0.96990 0.01630 0.06200
O 	O 	0.57730 0.15820 0.13520 -0.68900
O 	O 	0.65860 0.12600 0.09620 0.44600
C 	C 	0.58790 0.17440 0.08980 -0.08300
C 	C 	0.64170 0.16970 0.07940 -0.06100
C 	C 	0.56520 0.21730 0.07930 0.08600
C 	C 	0.65760 0.17870 0.03320 0.25900
N 	N 	0.66520 0.04560 0.16690 -0.23300
C 	C 	0.65180 0.00170 0.17040 0.10100
C 	C 	0.68570 0.96570 0.18230 -0.04900
C 	C 	0.73200 0.97430 0.19010 0.00800
C 	C 	0.74440 0.01430 0.18580 -0.18500
C 	C 	0.71800 0.05100 0.17490 0.10800
N 	N 	0.68300 0.04800 0.16820 -0.06600
C 	C 	0.66920 0.00340 0.17610 0.18300
C 	C 	0.70730 0.97060 0.18700 -0.17000
C 	C 	0.74950 0.98290 0.19180 0.18600
C 	C 	0.75750 0.03100 0.18230 -0.09700
C 	C 	0.72010 0.06460 0.17010 0.14200
H 	H 	0.61000 0.98000 0.00200 0.03100
H 	H 	0.57300 0.15200 0.06900 0.02700
H 	H 	0.60300 0.20400 0.07800 -0.11100
H 	H 	0.59200 0.15600 0.05500 0.01500
H 	H 	0.53300 0.21500 0.08800 0.08900
H 	H 	0.56800 0.22400 0.04600 0.00500
H 	H 	0.58000 0.24200 0.09700 -0.00300
H 	H 	0.65700 0.19300 0.09900 0.02700
H 	H 	0.57900 0.20700 0.08700 0.04500
H 	H 	0.57000 0.15700 0.06700 0.00900
H 	H 	0.69100 0.17400 0.03200 -0.18300
H 	H 	0.65000 0.21000 0.02500 -0.04800
H 	H 	0.64300 0.15700 0.01200 -0.02400
H 	H 	0.62000 0.99300 0.16500 0.16000
H 	H 	0.67500 0.93400 0.18500 -0.00200
H 	H 	0.75400 0.95000 0.19900 -0.00100
H 	H 	0.77700 0.02000 0.19100 0.12000
H 	H 	0.73200 0.08100 0.17200 -0.22500
H 	H 	0.63700 0.99400 0.17500 -0.24100
H 	H 	0.70000 0.93800 0.19100 0.10200
H 	H 	0.77400 0.96200 0.20100 -0.01300
H 	H 	0.78900 0.04200 0.18400 0.02300
H 	H 	0.72600 0.09700 0.16400 0.16500
Ni	Ni	0.38110 0.60100 0.34730 0.54500
O 	O 	0.41160 0.55470 0.39070 -0.42000
O 	O 	0.37040 0.55270 0.45700 -0.25400
C 	C 	0.40200 0.53730 0.42980 0.34600
C 	C 	0.43060 0.49650 0.44420 -0.13400
C 	C 	0.41840 0.46990 0.48370 0.06200
O 	O 	0.42270 0.65820 0.36480 -0.68900
O 	O 	0.34140 0.62600 0.40380 0.44600
C 	C 	0.41210 0.67440 0.41020 -0.08300
C 	C 	0.35830 0.66970 0.42060 -0.06100
C 	C 	0.43480 0.71730 0.42070 0.08600
C 	C 	0.34240 0.67870 0.46680 0.25900
N 	N 	0.33480 0.54560 0.33310 -0.23300
C 	C 	0.34820 0.50170 0.32960 0.10100
C 	C 	0.31430 0.46570 0.31770 -0.04900
C 	C 	0.26800 0.47430 0.30990 0.00800
C 	C 	0.25560 0.51430 0.31420 -0.18500
C 	C 	0.28200 0.55100 0.32510 0.10800
N 	N 	0.31700 0.54800 0.33180 -0.06600
C 	C 	0.33080 0.50340 0.32390 0.18300
C 	C 	0.29270 0.47060 0.31300 -0.17000
C 	C 	0.25050 0.48290 0.30820 0.18600
C 	C 	0.24250 0.53100 0.31770 -0.09700
C 	C 	0.27990 0.56460 0.32990 0.14200
H 	H 	0.39000 0.48000 0.49800 0.03100
H 	H 	0.42700 0.65200 0.43100 0.02700
H 	H 	0.39700 0.70400 0.42200 -0.11100
H 	H 	0.40800 0.65600 0.44500 0.01500
H 	H 	0.46700 0.71500 0.41200 0.08900
H 	H 	0.43200 0.72400 0.45400 0.00500
H 	H 	0.42000 0.74200 0.40300 -0.00300
H 	H 	0.34300 0.69300 0.40100 0.02700
H 	H 	0.42100 0.70700 0.41300 0.04500
H 	H 	0.43000 0.65700 0.43300 0.00900
H 	H 	0.30900 0.67400 0.46800 -0.18300
H 	H 	0.35000 0.71000 0.47500 -0.04800
H 	H 	0.35700 0.65700 0.48800 -0.02400
H 	H 	0.38000 0.49300 0.33500 0.16000
H 	H 	0.32500 0.43400 0.31500 -0.00200
H 	H 	0.24600 0.45000 0.30100 -0.00100
H 	H 	0.22300 0.52000 0.30900 0.12000
H 	H 	0.26800 0.58100 0.32800 -0.22500
H 	H 	0.36300 0.49400 0.32500 -0.24100
H 	H 	0.30000 0.43800 0.30900 0.10200
H 	H 	0.22600 0.46200 0.29900 -0.01300
H 	H 	0.21100 0.54200 0.31600 0.02300
H 	H 	0.27400 0.59700 0.33600 0.16500
Ni	Ni	0.36890 0.59730 0.35100 0.54500
O 	O 	0.33840 0.64070 0.30470 -0.42000
O 	O 	0.37960 0.70700 0.30270 -0.25400
C 	C 	0.34800 0.67980 0.28730 0.34600
C 	C 	0.31940 0.69420 0.24650 -0.13400
C 	C 	0.33160 0.73370 0.21990 0.06200
O 	O 	0.32730 0.61480 0.40820 -0.68900
O 	O 	0.40860 0.65380 0.37600 0.44600
C 	C 	0.33790 0.66020 0.42440 -0.08300
C 	C 	0.39170 0.67060 0.41970 -0.06100
C 	C 	0.31520 0.67070 0.46730 0.08600
C 	C 	0.40760 0.71680 0.42870 0.25900
N 	N 	0.41520 0.58310 0.29560 -0.23300
C 	C 	0.40180 0.57960 0.25170 0.10100
C 	C 	0.43570 0.56770 0.21570 -0.04900
C 	C 	0.48200 0.55990 0.22430 0.00800
C 	C 	0.49440 0.56420 0.26430 -0.18500
C 	C 	0.46800 0.57510 0.30100 0.10800
N 	N 	0.43300 0.58180 0.29800 -0.06600
C 	C 	0.41920 0.57390 0.25340 0.18300
C 	C 	0.45730 0.56300 0.22060 -0.17000
C 	C 	0.49950 0.55820 0.23290 0.18600
C 	C 	0.50750 0.56770 0.28100 -0.09700
C 	C 	0.47010 0.57990 0.31460 0.14200
H 	H 	0.36000 0.74800 0.23000 0.03100
H 	H 	0.32300 0.68100 0.40200 0.02700
H 	H 	0.35300 0.67200 0.45400 -0.11100
H 	H 	0.34200 0.69500 0.40600 0.01500
H 	H 	0.28300 0.66200 0.46500 0.08900
H 	H 	0.31800 0.70400 0.47400 0.00500
H 	H 	0.33000 0.65300 0.49200 -0.00300
H 	H 	0.40700 0.65100 0.44300 0.02700
H 	H 	0.32900 0.66300 0.45700 0.04500
H 	H 	0.32000 0.68300 0.40700 0.00900
H 	H 	0.44100 0.71800 0.42400 -0.18300
H 	H 	0.40000 0.72500 0.46000 -0.04800
H 	H 	0.39300 0.73800 0.40700 -0.02400
H 	H 	0.37000 0.58500 0.24300 0.16000
H 	H 	0.42500 0.56500 0.18400 -0.00200
H 	H 	0.50400 0.55100 0.20000 -0.00100
H 	H 	0.52700 0.55900 0.27000 0.12000
H 	H 	0.48200 0.57800 0.33100 -0.22500
H 	H 	0.38700 0.57500 0.24400 -0.24100
H 	H 	0.45000 0.55900 0.18800 0.10200
H 	H 	0.52400 0.54900 0.21200 -0.01300
H 	H 	0.53900 0.56600 0.29200 0.02300
H 	H 	0.47600 0.58600 0.34700 0.16500
Ni	Ni	0.13110 0.40270 0.85100 0.54500
O 	O 	0.16160 0.35930 0.80470 -0.42000
O 	O 	0.12040 0.29300 0.80270 -0.25400
C 	C 	0.15200 0.32020 0.78730 0.34600
C 	C 	0.18060 0.30580 0.74650 -0.13400
C 	C 	0.16840 0.26630 0.71990 0.06200
O 	O 	0.17270 0.38520 0.90820 -0.68900
O 	O 	0.09140 0.34620 0.87600 0.44600
C 	C 	0.16210 0.33980 0.92440 -0.08300
C 	C 	0.10830 0.32940 0.91970 -0.06100
C 	C 	0.18480 0.32930 0.96730 0.08600
C 	C 	0.09240 0.28320 0.92870 0.25900
N 	N 	0.08480 0.41690 0.79560 -0.23300
C 	C 	0.09820 0.42040 0.75170 0.10100
C 	C 	0.06430 0.43230 0.71570 -0.04900
C 	C 	0.01800 0.44010 0.72430 0.00800
C 	C 	0.00560 0.43580 0.76430 -0.18500
C 	C 	0.03200 0.42490 0.80100 0.10800
N 	N 	0.06700 0.41820 0.79800 -0.06600
C 	C 	0.08080 0.42610 0.75340 0.18300
C 	C 	0.04270 0.43700 0.72060 -0.17000
C 	C 	0.00050 0.44180 0.73290 0.18600
C 	C 	0.99250 0.43230 0.78100 -0.09700
C 	C 	0.02990 0.42010 0.81460 0.14200
H 	H 	0.14000 0.25200 0.73000 0.03100
H 	H 	0.17700 0.31900 0.90200 0.02700
H 	H 	0.14700 0.32800 0.95400 -0.11100
H 	H 	0.15800 0.30500 0.90600 0.01500
H 	H 	0.21700 0.33800 0.96500 0.08900
H 	H 	0.18200 0.29600 0.97400 0.00500
H 	H 	0.17000 0.34700 0.99200 -0.00300
H 	H 	0.09300 0.34900 0.94300 0.02700
H 	H 	0.17100 0.33700 0.95700 0.04500
H 	H 	0.18000 0.31700 0.90700 0.00900
H 	H 	0.05900 0.28200 0.92400 -0.18300
H 	H 	0.10000 0.27500 0.96000 -0.04800
H 	H 	0.10700 0.26200 0.90700 -0.02400
H 	H 	0.13000 0.41500 0.74300 0.16000
H 	H 	0.07500 0.43500 0.68400 -0.00200
H 	H 	0.99600 0.44900 0.70000 -0.00100
H 	H 	0.97300 0.44100 0.77000 0.12000
H 	H 	0.01800 0.42200 0.83100 -0.22500
H 	H 	0.11300 0.42500 0.74400 -0.24100
H 	H 	0.05000 0.44100 0.68800 0.10200
H 	H 	0.97600 0.45100 0.71200 -0.01300
H 	H 	0.96100 0.43400 0.79200 0.02300
H 	H 	0.02400 0.41400 0.84700 0.16500
Ni	Ni	0.86890 0.90270 0.64900 0.54500
O 	O 	0.83840 0.85930 0.69530 -0.42000
O 	O 	0.87960 0.79300 0.69730 -0.25400
C 	C 	0.84800 0.82020 0.71270 0.34600
C 	C 	0.81940 0.80580 0.75350 -0.13400
C 	C 	0.83160 0.76630 0.78010 0.06200
O 	O 	0.82730 0.88520 0.59180 -0.68900
O 	O 	0.90860 0.84620 0.62400 0.44600
C 	C 	0.83790 0.83980 0.57560 -0.08300
C 	C 	0.89170 0.82940 0.58030 -0.06100
C 	C 	0.81520 0.82930 0.53270 0.08600
C 	C 	0.90760 0.78320 0.57130 0.25900
N 	N 	0.91520 0.91690 0.70440 -0.23300
C 	C 	0.90180 0.92040 0.74830 0.10100
C 	C 	0.93570 0.93230 0.78430 -0.04900
C 	C 	0.98200 0.94010 0.77570 0.00800
C 	C 	0.99440 0.93580 0.73570 -0.18500
C 	C 	0.96800 0.92490 0.69900 0.10800
N 	N 	0.93300 0.91820 0.70200 -0.06600
C 	C 	0.91920 0.92610 0.74660 0.18300
C 	C 	0.95730 0.93700 0.77940 -0.17000
C 	C 	0.99950 0.94180 0.76710 0.18600
C 	C 	0.00750 0.93230 0.71900 -0.09700
C 	C 	0.97010 0.92010 0.68540 0.14200
H 	H 	0.86000 0.75200 0.77000 0.03100
H 	H 	0.82300 0.81900 0.59800 0.02700
H 	H 	0.85300 0.82800 0.54600 -0.11100
H 	H 	0.84200 0.80500 0.59400 0.01500
H 	H 	0.78300 0.83800 0.53500 0.08900
H 	H 	0.81800 0.79600 0.52600 0.00500
H 	H 	0.83000 0.84700 0.50800 -0.00300
H 	H 	0.90700 0.84900 0.55700 0.02700
H 	H 	0.82900 0.83700 0.54300 0.04500
H 	H 	0.82000 0.81700 0.59300 0.00900
H 	H 	0.94100 0.78200 0.57600 -0.18300
H 	H 	0.90000 0.77500 0.54000 -0.04800
H 	H 	0.89300 0.76200 0.59300 -0.02400
H 	H 	0.87000 0.91500 0.75700 0.16000
H 	H 	0.92500 0.93500 0.81600 -0.00200
H 	H 	0.00400 0.94900 0.80000 -0.00100
H 	H 	0.02700 0.94100 0.73000 0.12000
H 	H 	0.98200 0.92200 0.66900 -0.22500
H 	H 	0.88700 0.92500 0.75600 -0.24100
H 	H 	0.95000 0.94100 0.81200 0.10200
H 	H 	0.02400 0.95100 0.78800 -0.01300
H 	H 	0.03900 0.93400 0.70800 0.02300
H 	H 	0.97600 0.91400 0.65300 0.16500
Ni	Ni	0.63110 0.09730 0.14900 0.54500
O 	O 	0.66160 0.14070 0.19530 -0.42000
O 	O 	0.62040 0.20700 0.19730 -0.25400
C 	C 	0.65200 0.17980 0.21270 0.34600
C 	C 	0.68060 0.19420 0.25350 -0.13400
C 	C 	0.66840 0.23370 0.28010 0.06200
O 	O 	0.67270 0.11480 0.09180 -0.68900
O 	O 	0.59140 0.15380 0.12400 0.44600
C 	C 	0.66210 0.16020 0.07560 -0.08300
C 	C 	0.60830 0.17060 0.08030 -0.06100
C 	C 	0.68480 0.17070 0.03270 0.08600
C 	C 	0.59240 0.21680 0.07130 0.25900
N 	N 	0.58480 0.08310 0.20440 -0.23300
C 	C 	0.59820 0.07960 0.24830 0.10100
C 	C 	0.56430 0.06770 0.28430 -0.04900
C 	C 	0.51800 0.05990 0.27570 0.00800
C 	C 	0.50560 0.06420 0.23570 -0.18500
C 	C 	0.53200 0.07510 0.19900 0.10800
N 	N 	0.56700 0.08180 0.20200 -0.06600
C 	C 	0.58080 0.07390 0.24660 0.18300
C 	C 	0.54270 0.06300 0.27940 -0.17000
C 	C 	0.50050 0.05820 0.26710 0.18600
C 	C 	0.49250 0.06770 0.21900 -0.09700
C 	C 	0.52990 0.07990 0.18540 0.14200
H 	H 	0.64000 0.24800 0.27000 0.03100
H 	H 	0.67700 0.18100 0.09800 0.02700
H 	H 	0.64700 0.17200 0.04600 -0.11100
H 	H 	0.65800 0.19500 0.09400 0.01500
H 	H 	0.71700 0.16200 0.03500 0.08900
H 	H 	0.68200 0.20400 0.02600 0.00500
H 	H 	0.67000 0.15300 0.00800 -0.00300
H 	H 	0.59300 0.15100 0.05700 0.02700
H 	H 	0.67100 0.16300 0.04300 0.04500
H 	H 	0.68000 0.18300 0.09300 0.00900
H 	H 	0.55900 0.21800 0.07600 -0.18300
H 	H 	0.60000 0.22500 0.04000 -0.04800
H 	H 	0.60700 0.23800 0.09300 -0.02400
H 	H 	0.63000 0.08500 0.25700 0.16000
H 	H 	0.57500 0.06500 0.31600 -0.00200
H 	H 	0.49600 0.05100 0.30000 -0.00100
H 	H 	0.47300 0.05900 0.23000 0.12000
H 	H 	0.51800 0.07800 0.16900 -0.22500
H 	H 	0.61300 0.07500 0.25600 -0.24100
H 	H 	0.55000 0.05900 0.31200 0.10200
H 	H 	0.47600 0.04900 0.28800 -0.01300
H 	H 	0.46100 0.06600 0.20800 0.02300
H 	H 	0.52400 0.08600 0.15300 0.16500
Ni	Ni	0.09730 0.14900 0.63110 0.54500
O 	O 	0.14070 0.19530 0.66160 -0.42000
O 	O 	0.20700 0.19730 0.62040 -0.25400
C 	C 	0.17980 0.21270 0.65200 0.34600
C 	C 	0.19420 0.25350 0.68060 -0.13400
C 	C 	0.23370 0.28010 0.66840 0.06200
O 	O 	0.11480 0.09180 0.67270 -0.68900
O 	O 	0.15380 0.12400 0.59140 0.44600
C 	C 	0.16020 0.07560 0.66210 -0.08300
C 	C 	0.17060 0.08030 0.60830 -0.06100
C 	C 	0.17070 0.03270 0.68480 0.08600
C 	C 	0.21680 0.07130 0.59240 0.25900
N 	N 	0.08310 0.20440 0.58480 -0.23300
C 	C 	0.07960 0.24830 0.59820 0.10100
C 	C 	0.06770 0.28430 0.56430 -0.04900
C 	C 	0.05990 0.27570 0.51800 0.00800
C 	C 	0.06420 0.23570 0.50560 -0.18500
C 	C 	0.07510 0.19900 0.53200 0.10800
N 	N 	0.08180 0.20200 0.56700 -0.06600
C 	C 	0.07390 0.24660 0.58080 0.18300
C 	C 	0.06300 0.27940 0.54270 -0.17000
C 	C 	0.05820 0.26710 0.50050 0.18600
C 	C 	0.06770 0.21900 0.49250 -0.09700
C 	C 	0.07990 0.18540 0.52990 0.14200
H 	H 	0.24800 0.27000 0.64000 0.03100
H 	H 	0.18100 0.09800 0.67700 0.02700
H 	H 	0.17200 0.04600 0.64700 -0.11100
H 	H 	0.19500 0.09400 0.65800 0.01500
H 	H 	0.16200 0.03500 0.71700 0.08900
H 	H 	0.20400 0.02600 0.68200 0.00500
H 	H 	0.15300 0.00800 0.67000 -0.00300
H 	H 	0.15100 0.05700 0.59300 0.02700
H 	H 	0.16300 0.04300 0.67100 0.04500
H 	H 	0.18300 0.09300 0.68000 0.00900
H 	H 	0.21800 0.07600 0.55900 -0.18300
H 	H 	0.22500 0.04000 0.60000 -0.04800
H 	H 	0.23800 0.09300 0.60700 -0.02400
H 	H 	0.08500 0.25700 0.63000 0.16000
H 	H 	0.06500 0.31600 0.57500 -0.00200
H 	H 	0.05100 0.30000 0.49600 -0.00100
H 	H 	0.05900 0.23000 0.47300 0.12000
H 	H 	0.07800 0.16900 0.51800 -0.22500
H 	H 	0.07500 0.25600 0.61300 -0.24100
H 	H 	0.05900 0.31200 0.55000 0.10200
H 	H 	0.04900 0.28800 0.47600 -0.01300
H 	H 	0.06600 0.20800 0.46100 0.02300
H 	H 	0.08600 0.15300 0.52400 0.16500
Ni	Ni	0.90270 0.64900 0.86890 0.54500
O 	O 	0.85930 0.69530 0.83840 -0.42000
O 	O 	0.79300 0.69730 0.87960 -0.25400
C 	C 	0.82020 0.71270 0.84800 0.34600
C 	C 	0.80580 0.75350 0.81940 -0.13400
C 	C 	0.76630 0.78010 0.83160 0.06200
O 	O 	0.88520 0.59180 0.82730 -0.68900
O 	O 	0.84620 0.62400 0.90860 0.44600
C 	C 	0.83980 0.57560 0.83790 -0.08300
C 	C 	0.82940 0.58030 0.89170 -0.06100
C 	C 	0.82930 0.53270 0.81520 0.08600
C 	C 	0.78320 0.57130 0.90760 0.25900
N 	N 	0.91690 0.70440 0.91520 -0.23300
C 	C 	0.92040 0.74830 0.90180 0.10100
C 	C 	0.93230 0.78430 0.93570 -0.04900
C 	C 	0.94010 0.77570 0.98200 0.00800
C 	C 	0.93580 0.73570 0.99440 -0.18500
C 	C 	0.92490 0.69900 0.96800 0.10800
N 	N 	0.91820 0.70200 0.93300 -0.06600
C 	C 	0.92610 0.74660 0.91920 0.18300
C 	C 	0.93700 0.77940 0.95730 -0.17000
C 	C 	0.94180 0.76710 0.99950 0.18600
C 	C 	0.93230 0.71900 0.00750 -0.09700
C 	C 	0.92010 0.68540 0.97010 0.14200
H 	H 	0.75200 0.77000 0.86000 0.03100
H 	H 	0.81900 0.59800 0.82300 0.02700
H 	H 	0.82800 0.54600 0.85300 -0.11100
H 	H 	0.80500 0.59400 0.84200 0.01500
H 	H 	0.83800 0.53500 0.78300 0.08900
H 	H 	0.79600 0.52600 0.81800 0.00500
H 	H 	0.84700 0.50800 0.83000 -0.00300
H 	H 	0.84900 0.55700 0.90700 0.02700
H 	H 	0.83700 0.54300 0.82900 0.04500
H 	H 	0.81700 0.59300 0.82000 0.00900
H 	H 	0.78200 0.57600 0.94100 -0.18300
H 	H 	0.77500 0.54000 0.90000 -0.04800
H 	H 	0.76200 0.59300 0.89300 -0.02400
H 	H 	0.91500 0.75700 0.87000 0.16000
H 	H 	0.93500 0.81600 0.92500 -0.00200
H 	H 	0.94900 0.80000 0.00400 -0.00100
H 	H 	0.94100 0.73000 0.02700 0.12000
H 	H 	0.92200 0.66900 0.98200 -0.22500
H 	H 	0.92500 0.75600 0.88700 -0.24100
H 	H 	0.94100 0.81200 0.95000 0.10200
H 	H 	0.95100 0.78800 0.02400 -0.01300
H 	H 	0.93400 0.70800 0.03900 0.02300
H 	H 	0.91400 0.65300 0.97600 0.16500
Ni	Ni	0.40270 0.85100 0.13110 0.54500
O 	O 	0.35930 0.80470 0.16160 -0.42000
O 	O 	0.29300 0.80270 0.12040 -0.25400
C 	C 	0.32020 0.78730 0.15200 0.34600
C 	C 	0.30580 0.74650 0.18060 -0.13400
C 	C 	0.26630 0.71990 0.16840 0.06200
O 	O 	0.38520 0.90820 0.17270 -0.68900
O 	O 	0.34620 0.87600 0.09140 0.44600
C 	C 	0.33980 0.92440 0.16210 -0.08300
C 	C 	0.32940 0.91970 0.10830 -0.06100
C 	C 	0.32930 0.96730 0.18480 0.08600
C 	C 	0.28320 0.92870 0.09240 0.25900
N 	N 	0.41690 0.79560 0.08480 -0.23300
C 	C 	0.42040 0.75170 0.09820 0.10100
C 	C 	0.43230 0.71570 0.06430 -0.04900
C 	C 	0.44010 0.72430 0.01800 0.00800
C 	C 	0.43580 0.76430 0.00560 -0.18500
C 	C 	0.42490 0.80100 0.03200 0.10800
N 	N 	0.41820 0.79800 0.06700 -0.06600
C 	C 	0.42610 0.75340 0.08080 0.18300
C 	C 	0.43700 0.72060 0.04270 -0.17000
C 	C 	0.44180 0.73290 0.00050 0.18600
C 	C 	0.43230 0.78100 0.99250 -0.09700
C 	C 	0.42010 0.81460 0.02990 0.14200
H 	H 	0.25200 0.73000 0.14000 0.03100
H 	H 	0.31900 0.90200 0.17700 0.02700
H 	H 	0.32800 0.95400 0.14700 -0.11100
H 	H 	0.30500 0.90600 0.15800 0.01500
H 	H 	0.33800 0.96500 0.21700 0.08900
H 	H 	0.29600 0.97400 0.18200 0.00500
H 	H 	0.34700 0.99200 0.17000 -0.00300
H 	H 	0.34900 0.94300 0.09300 0.02700
H 	H 	0.33700 0.95700 0.17100 0.04500
H 	H 	0.31700 0.90700 0.18000 0.00900
H 	H 	0.28200 0.92400 0.05900 -0.18300
H 	H 	0.27500 0.96000 0.10000 -0.04800
H 	H 	0.26200 0.90700 0.10700 -0.02400
H 	H 	0.41500 0.74300 0.13000 0.16000
H 	H 	0.43500 0.68400 0.07500 -0.00200
H 	H 	0.44900 0.70000 0.99600 -0.00100
H 	H 	0.44100 0.77000 0.97300 0.12000
H 	H 	0.42200 0.83100 0.01800 -0.22500
H 	H 	0.42500 0.74400 0.11300 -0.24100
H 	H 	0.44100 0.68800 0.05000 0.10200
H 	H 	0.45100 0.71200 0.97600 -0.01300
H 	H 	0.43400 0.79200 0.96100 0.02300
H 	H 	0.41400 0.84700 0.02400 0.16500
Ni	Ni	0.59730 0.35100 0.36890 0.54500
O 	O 	0.64070 0.30470 0.33840 -0.42000
O 	O 	0.70700 0.30270 0.37960 -0.25400
C 	C 	0.67980 0.28730 0.34800 0.34600
C 	C 	0.69420 0.24650 0.31940 -0.13400
C 	C 	0.73370 0.21990 0.33160 0.06200
O 	O 	0.61480 0.40820 0.32730 -0.68900
O 	O 	0.65380 0.37600 0.40860 0.44600
C 	C 	0.66020 0.42440 0.33790 -0.08300
C 	C 	0.67060 0.41970 0.39170 -0.06100
C 	C 	0.67070 0.46730 0.31520 0.08600
C 	C 	0.71680 0.42870 0.40760 0.25900
N 	N 	0.58310 0.29560 0.41520 -0.23300
C 	C 	0.57960 0.25170 0.40180 0.10100
C 	C 	0.56770 0.21570 0.43570 -0.04900
C 	C 	0.55990 0.22430 0.48200 0.00800
C 	C 	0.56420 0.26430 0.49440 -0.18500
C 	C 	0.57510 0.30100 0.46800 0.10800
N 	N 	0.58180 0.29800 0.43300 -0.06600
C 	C 	0.57390 0.25340 0.41920 0.18300
C 	C 	0.56300 0.22060 0.45730 -0.17000
C 	C 	0.55820 0.23290 0.49950 0.18600
C 	C 	0.56770 0.28100 0.50750 -0.09700
C 	C 	0.57990 0.31460 0.47010 0.14200
H 	H 	0.74800 0.23000 0.36000 0.03100
H 	H 	0.68100 0.40200 0.32300 0.02700
H 	H 	0.67200 0.45400 0.35300 -0.11100
H 	H 	0.69500 0.40600 0.34200 0.01500
H 	H 	0.66200 0.46500 0.28300 0.08900
H 	H 	0.70400 0.47400 0.31800 0.00500
H 	H 	0.65300 0.49200 0.33000 -0.00300
H 	H 	0.65100 0.44300 0.40700 0.02700
H 	H 	0.66300 0.45700 0.32900 0.04500
H 	H 	0.68300 0.40700 0.32000 0.00900
H 	H 	0.71800 0.42400 0.44100 -0.18300
H 	H 	0.72500 0.46000 0.40000 -0.04800
H 	H 	0.73800 0.40700 0.39300 -0.02400
H 	H 	0.58500 0.24300 0.37000 0.16000
H 	H 	0.56500 0.18400 0.42500 -0.00200
H 	H 	0.55100 0.20000 0.50400 -0.00100
H 	H 	0.55900 0.27000 0.52700 0.12000
H 	H 	0.57800 0.33100 0.48200 -0.22500
H 	H 	0.57500 0.24400 0.38700 -0.24100
H 	H 	0.55900 0.18800 0.45000 0.10200
H 	H 	0.54900 0.21200 0.52400 -0.01300
H 	H 	0.56600 0.29200 0.53900 0.02300
H 	H 	0.58600 0.34700 0.47600 0.16500
Ni	Ni	0.64900 0.86890 0.90270 0.54500
O 	O 	0.69530 0.83840 0.85930 -0.42000
O 	O 	0.69730 0.87960 0.79300 -0.25400
C 	C 	0.71270 0.84800 0.82020 0.34600
C 	C 	0.75350 0.81940 0.80580 -0.13400
C 	C 	0.78010 0.83160 0.76630 0.06200
O 	O 	0.59180 0.82730 0.88520 -0.68900
O 	O 	0.62400 0.90860 0.84620 0.44600
C 	C 	0.57560 0.83790 0.83980 -0.08300
C 	C 	0.58030 0.89170 0.82940 -0.06100
C 	C 	0.53270 0.81520 0.82930 0.08600
C 	C 	0.57130 0.90760 0.78320 0.25900
N 	N 	0.70440 0.91520 0.91690 -0.23300
C 	C 	0.74830 0.90180 0.92040 0.10100
C 	C 	0.78430 0.93570 0.93230 -0.04900
C 	C 	0.77570 0.98200 0.94010 0.00800
C 	C 	0.73570 0.99440 0.93580 -0.18500
C 	C 	0.69900 0.96800 0.92490 0.10800
N 	N 	0.70200 0.93300 0.91820 -0.06600
C 	C 	0.74660 0.91920 0.92610 0.18300
C 	C 	0.77940 0.95730 0.93700 -0.17000
C 	C 	0.76710 0.99950 0.94180 0.18600
C 	C 	0.71900 0.00750 0.93230 -0.09700
C 	C 	0.68540 0.97010 0.92010 0.14200
H 	H 	0.77000 0.86000 0.75200 0.03100
H 	H 	0.59800 0.82300 0.81900 0.02700
H 	H 	0.54600 0.85300 0.82800 -0.11100
H 	H 	0.59400 0.84200 0.80500 0.01500
H 	H 	0.53500 0.78300 0.83800 0.08900
H 	H 	0.52600 0.81800 0.79600 0.00500
H 	H 	0.50800 0.83000 0.84700 -0.00300
H 	H 	0.55700 0.90700 0.84900 0.02700
H 	H 	0.54300 0.82900 0.83700 0.04500
H 	H 	0.59300 0.82000 0.81700 0.00900
H 	H 	0.57600 0.94100 0.78200 -0.18300
H 	H 	0.54000 0.90000 0.77500 -0.04800
H 	H 	0.59300 0.89300 0.76200 -0.02400
H 	H 	0.75700 0.87000 0.91500 0.16000
H 	H 	0.81600 0.92500 0.93500 -0.00200
H 	H 	0.80000 0.00400 0.94900 -0.00100
H 	H 	0.73000 0.02700 0.94100 0.12000
H 	H 	0.66900 0.98200 0.92200 -0.22500
H 	H 	0.75600 0.88700 0.92500 -0.24100
H 	H 	0.81200 0.95000 0.94100 0.10200
H 	H 	0.78800 0.02400 0.95100 -0.01300
H 	H 	0.70800 0.03900 0.93400 0.02300
H 	H 	0.65300 0.97600 0.91400 0.16500
Ni	Ni	0.14900 0.63110 0.09730 0.54500
O 	O 	0.19530 0.66160 0.14070 -0.42000
O 	O 	0.19730 0.62040 0.20700 -0.25400
C 	C 	0.21270 0.65200 0.17980 0.34600
C 	C 	0.25350 0.68060 0.19420 -0.13400
C 	C 	0.28010 0.66840 0.23370 0.06200
O 	O 	0.09180 0.67270 0.11480 -0.68900
O 	O 	0.12400 0.59140 0.15380 0.44600
C 	C 	0.07560 0.66210 0.16020 -0.08300
C 	C 	0.08030 0.60830 0.17060 -0.06100
C 	C 	0.03270 0.68480 0.17070 0.08600
C 	C 	0.07130 0.59240 0.21680 0.25900
N 	N 	0.20440 0.58480 0.08310 -0.23300
C 	C 	0.24830 0.59820 0.07960 0.10100
C 	C 	0.28430 0.56430 0.06770 -0.04900
C 	C 	0.27570 0.51800 0.05990 0.00800
C 	C 	0.23570 0.50560 0.06420 -0.18500
C 	C 	0.19900 0.53200 0.07510 0.10800
N 	N 	0.20200 0.56700 0.08180 -0.06600
C 	C 	0.24660 0.58080 0.07390 0.18300
C 	C 	0.27940 0.54270 0.06300 -0.17000
C 	C 	0.26710 0.50050 0.05820 0.18600
C 	C 	0.21900 0.49250 0.06770 -0.09700
C 	C 	0.18540 0.52990 0.07990 0.14200
H 	H 	0.27000 0.64000 0.24800 0.03100
H 	H 	0.09800 0.67700 0.18100 0.02700
H 	H 	0.04600 0.64700 0.17200 -0.11100
H 	H 	0.09400 0.65800 0.19500 0.01500
H 	H 	0.03500 0.71700 0.16200 0.08900
H 	H 	0.02600 0.68200 0.20400 0.00500
H 	H 	0.00800 0.67000 0.15300 -0.00300
H 	H 	0.05700 0.59300 0.15100 0.02700
H 	H 	0.04300 0.67100 0.16300 0.04500
H 	H 	0.09300 0.68000 0.18300 0.00900
H 	H 	0.07600 0.55900 0.21800 -0.18300
H 	H 	0.04000 0.60000 0.22500 -0.04800
H 	H 	0.09300 0.60700 0.23800 -0.02400
H 	H 	0.25700 0.63000 0.08500 0.16000
H 	H 	0.31600 0.57500 0.06500 -0.00200
H 	H 	0.30000 0.49600 0.05100 -0.00100
H 	H 	0.23000 0.47300 0.05900 0.12000
H 	H 	0.16900 0.51800 0.07800 -0.22500
H 	H 	0.25600 0.61300 0.07500 -0.24100
H 	H 	0.31200 0.55000 0.05900 0.10200
H 	H 	0.28800 0.47600 0.04900 -0.01300
H 	H 	0.20800 0.46100 0.06600 0.02300
H 	H 	0.15300 0.52400 0.08600 0.16500
Ni	Ni	0.35100 0.36890 0.59730 0.54500
O 	O 	0.30470 0.33840 0.64070 -0.42000
O 	O 	0.30270 0.37960 0.70700 -0.25400
C 	C 	0.28730 0.34800 0.67980 0.34600
C 	C 	0.24650 0.31940 0.69420 -0.13400
C 	C 	0.21990 0.33160 0.73370 0.06200
O 	O 	0.40820 0.32730 0.61480 -0.68900
O 	O 	0.37600 0.40860 0.65380 0.44600
C 	C 	0.42440 0.33790 0.66020 -0.08300
C 	C 	0.41970 0.39170 0.67060 -0.06100
C 	C 	0.46730 0.31520 0.67070 0.08600
C 	C 	0.42870 0.40760 0.71680 0.25900
N 	N 	0.29560 0.41520 0.58310 -0.23300
C 	C 	0.25170 0.40180 0.57960 0.10100
C 	C 	0.21570 0.43570 0.56770 -0.04900
C 	C 	0.22430 0.48200 0.55990 0.00800
C 	C 	0.26430 0.49440 0.56420 -0.18500
C 	C 	0.30100 0.46800 0.57510 0.10800
N 	N 	0.29800 0.43300 0.58180 -0.06600
C 	C 	0.25340 0.41920 0.57390 0.18300
C 	C 	0.22060 0.45730 0.56300 -0.17000
C 	C 	0.23290 0.49950 0.55820 0.18600
C 	C 	0.28100 0.50750 0.56770 -0.09700
C 	C 	0.31460 0.47010 0.57990 0.14200
H 	H 	0.23000 0.36000 0.74800 0.03100
H 	H 	0.40200 0.32300 0.68100 0.02700
H 	H 	0.45400 0.35300 0.67200 -0.11100
H 	H 	0.40600 0.34200 0.69500 0.01500
H 	H 	0.46500 0.28300 0.66200 0.08900
H 	H 	0.47400 0.31800 0.70400 0.00500
H 	H 	0.49200 0.33000 0.65300 -0.00300
H 	H 	0.44300 0.40700 0.65100 0.02700
H 	H 	0.45700 0.32900 0.66300 0.04500
H 	H 	0.40700 0.32000 0.68300 0.00900
H 	H 	0.42400 0.44100 0.71800 -0.18300
H 	H 	0.46000 0.40000 0.72500 -0.04800
H 	H 	0.40700 0.39300 0.73800 -0.02400
H 	H 	0.24300 0.37000 0.58500 0.16000
H 	H 	0.18400 0.42500 0.56500 -0.00200
H 	H 	0.20000 0.50400 0.55100 -0.00100
H 	H 	0.27000 0.52700 0.55900 0.12000
H 	H 	0.33100 0.48200 0.57800 -0.22500
H 	H 	0.24400 0.38700 0.57500 -0.24100
H 	H 	0.18800 0.45000 0.55900 0.10200
H 	H 	0.21200 0.52400 0.54900 -0.01300
H 	H 	0.29200 0.53900 0.56600 0.02300
H 	H 	0.34700 0.47600 0.58600 0.16500
Ni	Ni	0.85100 0.13110 0.40270 0.54500
O 	O 	0.80470 0.16160 0.35930 -0.42000
O 	O 	0.80270 0.12040 0.29300 -0.25400
C 	C 	0.78730 0.15200 0.32020 0.34600
C 	C 	0.74650 0.18060 0.30580 -0.13400
C 	C 	0.71990 0.16840 0.26630 0.06200
O 	O 	0.90820 0.17270 0.38520 -0.68900
O 	O 	0.87600 0.09140 0.34620 0.44600
C 	C 	0.92440 0.16210 0.33980 -0.08300
C 	C 	0.91970 0.10830 0.32940 -0.06100
C 	C 	0.96730 0.18480 0.32930 0.08600
C 	C 	0.92870 0.09240 0.28320 0.25900
N 	N 	0.79560 0.08480 0.41690 -0.23300
C 	C 	0.75170 0.09820 0.42040 0.10100
C 	C 	0.71570 0.06430 0.43230 -0.04900
C 	C 	0.72430 0.01800 0.44010 0.00800
C 	C 	0.76430 0.00560 0.43580 -0.18500
C 	C 	0.80100 0.03200 0.42490 0.10800
N 	N 	0.79800 0.06700 0.41820 -0.06600
C 	C 	0.75340 0.08080 0.42610 0.18300
C 	C 	0.72060 0.04270 0.43700 -0.17000
C 	C 	0.73290 0.00050 0.44180 0.18600
C 	C 	0.78100 0.99250 0.43230 -0.09700
C 	C 	0.81460 0.02990 0.42010 0.14200
H 	H 	0.73000 0.14000 0.25200 0.03100
H 	H 	0.90200 0.17700 0.31900 0.02700
H 	H 	0.95400 0.14700 0.32800 -0.11100
H 	H 	0.90600 0.15800 0.30500 0.01500
H 	H 	0.96500 0.21700 0.33800 0.08900
H 	H 	0.97400 0.18200 0.29600 0.00500
H 	H 	0.99200 0.17000 0.34700 -0.00300
H 	H 	0.94300 0.09300 0.34900 0.02700
H 	H 	0.95700 0.17100 0.33700 0.04500
H 	H 	0.90700 0.18000 0.31700 0.00900
H 	H 	0.92400 0.05900 0.28200 -0.18300
H 	H 	0.96000 0.10000 0.27500 -0.04800
H 	H 	0.90700 0.10700 0.26200 -0.02400
H 	H 	0.74300 0.13000 0.41500 0.16000
H 	H 	0.68400 0.07500 0.43500 -0.00200
H 	H 	0.70000 0.99600 0.44900 -0.00100
H 	H 	0.77000 0.97300 0.44100 0.12000
H 	H 	0.83100 0.01800 0.42200 -0.22500
H 	H 	0.74400 0.11300 0.42500 -0.24100
H 	H 	0.68800 0.05000 0.44100 0.10200
H 	H 	0.71200 0.97600 0.45100 -0.01300
H 	H 	0.79200 0.96100 0.43400 0.02300
H 	H 	0.84700 0.02400 0.41400 0.16500
