data_crystal

_cell_length_a 28.45700
_cell_length_b 28.45700
_cell_length_c 28.45700
_cell_angle_alpha 90.00000
_cell_angle_beta  90.00000
_cell_angle_gamma 90.00000

_symmetry_space_group_name_	'P 1'
_symmetry_space_group_name_H-M	'P 1'

loop_
_symmetry_equiv_pos_as_xyz
  x,y,z

loop_
_atom_site_label
_atom_site_type_symbol
_atom_site_fract_x
_atom_site_fract_y
_atom_site_fract_z
_atom_site_charge
Ni	Ni	0.34940 0.61960 0.89920 -0.37700
Ni	Ni	0.34040 0.62810 0.92340 -0.84800
Ni	Ni	0.34410 0.64290 0.92310 1.56600
Ni	Ni	0.38010 0.63220 0.90340 0.60500
Ni	Ni	0.36300 0.60270 0.92440 0.85400
Ni	Ni	0.36230 0.62280 0.93000 -0.02900
Ni	Ni	0.35610 0.65340 0.88840 0.25600
O 	O 	0.39450 0.58440 0.93980 -0.33800
O 	O 	0.38870 0.59230 0.95300 -0.67400
O 	O 	0.45420 0.63120 0.95250 -0.06800
O 	O 	0.45970 0.62690 0.94100 -0.27800
C 	C 	0.43110 0.59570 0.96310 0.54500
C 	C 	0.44530 0.56900 0.00340 -0.32600
C 	C 	0.48260 0.58090 0.03030 0.25000
O 	O 	0.36780 0.57940 0.84120 -0.55000
O 	O 	0.40830 0.65990 0.87490 -0.02700
C 	C 	0.41320 0.59100 0.82540 -0.33100
C 	C 	0.42050 0.60620 0.83120 0.57000
C 	C 	0.41620 0.57440 0.77440 -0.66300
C 	C 	0.43100 0.59040 0.78100 -1.12400
N 	N 	0.33450 0.66810 0.95580 0.17000
C 	C 	0.32830 0.65570 0.99950 0.26200
C 	C 	0.31600 0.68530 0.03350 0.23400
C 	C 	0.30910 0.73070 0.02590 0.07200
C 	C 	0.31600 0.74340 0.98170 -0.22400
C 	C 	0.32800 0.71300 0.94830 -0.21400
N 	N 	0.33090 0.67940 0.95070 -0.59500
C 	C 	0.32400 0.67060 0.99520 -0.76900
C 	C 	0.31410 0.70320 0.02710 0.06800
C 	C 	0.31030 0.74840 0.01620 -0.06600
C 	C 	0.31740 0.75740 0.97110 0.15200
C 	C 	0.32670 0.72390 0.94000 0.40600
H 	H 	0.50000 0.60900 0.02200 -0.02000
H 	H 	0.43600 0.57500 0.84400 0.35300
H 	H 	0.44200 0.59100 0.85200 -0.43700
H 	H 	0.41200 0.54100 0.77300 -0.24900
H 	H 	0.44600 0.58300 0.76200 0.43900
H 	H 	0.39200 0.58900 0.75600 0.06300
H 	H 	0.42800 0.55700 0.77900 0.85600
H 	H 	0.46200 0.60000 0.77300 0.10000
H 	H 	0.40900 0.60500 0.76000 0.49600
H 	H 	0.33300 0.62300 0.00800 -0.59600
H 	H 	0.31200 0.67300 0.06500 0.05800
H 	H 	0.30000 0.75200 0.05000 0.00000
H 	H 	0.31200 0.77600 0.97300 0.05000
H 	H 	0.33200 0.72500 0.91700 0.19600
H 	H 	0.32600 0.63800 0.00500 0.63200
H 	H 	0.31000 0.69400 0.05900 -0.13700
H 	H 	0.30300 0.77200 0.03900 0.05700
H 	H 	0.31600 0.78900 0.96000 -0.04100
H 	H 	0.33000 0.73300 0.90800 -0.34800
Ni	Ni	0.15060 0.38040 0.39920 -0.37600
Ni	Ni	0.15960 0.37190 0.42340 -0.84600
Ni	Ni	0.15590 0.35710 0.42310 1.56600
Ni	Ni	0.11990 0.36780 0.40340 0.60600
Ni	Ni	0.13700 0.39730 0.42440 0.85500
Ni	Ni	0.13770 0.37720 0.43000 -0.02700
Ni	Ni	0.14390 0.34660 0.38840 0.25700
O 	O 	0.10550 0.41560 0.43980 -0.33700
O 	O 	0.11130 0.40770 0.45300 -0.67300
O 	O 	0.04580 0.36880 0.45250 -0.06700
O 	O 	0.04030 0.37310 0.44100 -0.27700
C 	C 	0.06890 0.40430 0.46310 0.54700
C 	C 	0.05470 0.43100 0.50340 -0.32600
C 	C 	0.01740 0.41910 0.53030 0.25100
O 	O 	0.13220 0.42060 0.34120 -0.55000
O 	O 	0.09170 0.34010 0.37490 -0.02600
C 	C 	0.08680 0.40900 0.32540 -0.32900
C 	C 	0.07950 0.39380 0.33120 0.57100
C 	C 	0.08380 0.42560 0.27440 -0.66300
C 	C 	0.06900 0.40960 0.28100 -1.12400
N 	N 	0.16550 0.33190 0.45580 0.17100
C 	C 	0.17170 0.34430 0.49950 0.26200
C 	C 	0.18400 0.31470 0.53350 0.23600
C 	C 	0.19090 0.26930 0.52590 0.07000
C 	C 	0.18400 0.25660 0.48170 -0.22000
C 	C 	0.17200 0.28700 0.44830 -0.21500
N 	N 	0.16910 0.32060 0.45070 -0.59500
C 	C 	0.17600 0.32940 0.49520 -0.77100
C 	C 	0.18590 0.29680 0.52710 0.06800
C 	C 	0.18970 0.25160 0.51620 -0.06700
C 	C 	0.18260 0.24260 0.47110 0.15300
C 	C 	0.17330 0.27610 0.44000 0.40500
H 	H 	-0.00000 0.39100 0.52200 -0.02000
H 	H 	0.06400 0.42500 0.34400 0.35300
H 	H 	0.05800 0.40900 0.35200 -0.43700
H 	H 	0.08800 0.45900 0.27300 -0.24900
H 	H 	0.05400 0.41700 0.26200 0.43900
H 	H 	0.10800 0.41100 0.25600 0.06300
H 	H 	0.07200 0.44300 0.27900 0.85600
H 	H 	0.03800 0.40000 0.27300 0.10100
H 	H 	0.09100 0.39500 0.26000 0.49600
H 	H 	0.16700 0.37700 0.50800 -0.59800
H 	H 	0.18800 0.32700 0.56500 0.05700
H 	H 	0.20000 0.24800 0.55000 0.00100
H 	H 	0.18800 0.22400 0.47300 0.04400
H 	H 	0.16800 0.27500 0.41700 0.19500
H 	H 	0.17400 0.36200 0.50500 0.63500
H 	H 	0.19000 0.30600 0.55900 -0.13800
H 	H 	0.19700 0.22800 0.53900 0.05700
H 	H 	0.18400 0.21100 0.46000 -0.03700
H 	H 	0.17000 0.26700 0.40800 -0.34600
Ni	Ni	0.65060 0.11960 0.60080 -0.37600
Ni	Ni	0.65960 0.12810 0.57660 -0.84600
Ni	Ni	0.65590 0.14290 0.57690 1.56600
Ni	Ni	0.61990 0.13220 0.59660 0.60600
Ni	Ni	0.63700 0.10270 0.57560 0.85500
Ni	Ni	0.63770 0.12280 0.57000 -0.02700
Ni	Ni	0.64390 0.15340 0.61160 0.25700
O 	O 	0.60550 0.08440 0.56020 -0.33700
O 	O 	0.61130 0.09230 0.54700 -0.67300
O 	O 	0.54580 0.13120 0.54750 -0.06700
O 	O 	0.54030 0.12690 0.55900 -0.27700
C 	C 	0.56890 0.09570 0.53690 0.54700
C 	C 	0.55470 0.06900 0.49660 -0.32600
C 	C 	0.51740 0.08090 0.46970 0.25100
O 	O 	0.63220 0.07940 0.65880 -0.54900
O 	O 	0.59170 0.15990 0.62510 -0.02600
C 	C 	0.58680 0.09100 0.67460 -0.33000
C 	C 	0.57950 0.10620 0.66880 0.57000
C 	C 	0.58380 0.07440 0.72560 -0.66200
C 	C 	0.56900 0.09040 0.71900 -1.12300
N 	N 	0.66550 0.16810 0.54420 0.17100
C 	C 	0.67170 0.15570 0.50050 0.26200
C 	C 	0.68400 0.18530 0.46650 0.23600
C 	C 	0.69090 0.23070 0.47410 0.07000
C 	C 	0.68400 0.24340 0.51830 -0.22000
C 	C 	0.67200 0.21300 0.55170 -0.21500
N 	N 	0.66910 0.17940 0.54930 -0.59500
C 	C 	0.67600 0.17060 0.50480 -0.77100
C 	C 	0.68590 0.20320 0.47290 0.06800
C 	C 	0.68970 0.24840 0.48380 -0.06700
C 	C 	0.68260 0.25740 0.52890 0.15300
C 	C 	0.67330 0.22390 0.56000 0.40500
H 	H 	0.50000 0.10900 0.47800 -0.02000
H 	H 	0.56400 0.07500 0.65600 0.35300
H 	H 	0.55800 0.09100 0.64800 -0.43700
H 	H 	0.58800 0.04100 0.72700 -0.24900
H 	H 	0.55400 0.08300 0.73800 0.43900
H 	H 	0.60800 0.08900 0.74400 0.06300
H 	H 	0.57200 0.05700 0.72100 0.85500
H 	H 	0.53800 0.10000 0.72700 0.10000
H 	H 	0.59100 0.10500 0.74000 0.49500
H 	H 	0.66700 0.12300 0.49200 -0.59900
H 	H 	0.68800 0.17300 0.43500 0.05700
H 	H 	0.70000 0.25200 0.45000 0.00100
H 	H 	0.68800 0.27600 0.52700 0.04500
H 	H 	0.66800 0.22500 0.58300 0.19500
H 	H 	0.67400 0.13800 0.49500 0.63500
H 	H 	0.69000 0.19400 0.44100 -0.13800
H 	H 	0.69700 0.27200 0.46100 0.05700
H 	H 	0.68400 0.28900 0.54000 -0.03700
H 	H 	0.67000 0.23300 0.59200 -0.34600
Ni	Ni	0.84940 0.88040 0.10080 -0.37600
Ni	Ni	0.84040 0.87190 0.07660 -0.84600
Ni	Ni	0.84410 0.85710 0.07690 1.56600
Ni	Ni	0.88010 0.86780 0.09660 0.60600
Ni	Ni	0.86300 0.89730 0.07560 0.85500
Ni	Ni	0.86230 0.87720 0.07000 -0.02700
Ni	Ni	0.85610 0.84660 0.11160 0.25700
O 	O 	0.89450 0.91560 0.06020 -0.33600
O 	O 	0.88870 0.90770 0.04700 -0.67400
O 	O 	0.95420 0.86880 0.04750 -0.06700
O 	O 	0.95970 0.87310 0.05900 -0.27700
C 	C 	0.93110 0.90430 0.03690 0.54700
C 	C 	0.94530 0.93100 0.99660 -0.32600
C 	C 	0.98260 0.91910 0.96970 0.25100
O 	O 	0.86780 0.92060 0.15880 -0.55000
O 	O 	0.90830 0.84010 0.12510 -0.02700
C 	C 	0.91320 0.90900 0.17460 -0.32900
C 	C 	0.92050 0.89380 0.16880 0.57100
C 	C 	0.91620 0.92560 0.22560 -0.66400
C 	C 	0.93100 0.90960 0.21900 -1.12500
N 	N 	0.83450 0.83190 0.04420 0.17100
C 	C 	0.82830 0.84430 0.00050 0.26200
C 	C 	0.81600 0.81470 0.96650 0.23800
C 	C 	0.80910 0.76930 0.97410 0.06800
C 	C 	0.81600 0.75660 0.01830 -0.21700
C 	C 	0.82800 0.78700 0.05170 -0.21500
N 	N 	0.83090 0.82060 0.04930 -0.59500
C 	C 	0.82400 0.82940 0.00480 -0.77300
C 	C 	0.81410 0.79680 0.97290 0.06800
C 	C 	0.81030 0.75160 0.98380 -0.06800
C 	C 	0.81740 0.74260 0.02890 0.15400
C 	C 	0.82670 0.77610 0.06000 0.40500
H 	H 	0.00000 0.89100 0.97800 -0.02000
H 	H 	0.93600 0.92500 0.15600 0.35200
H 	H 	0.94200 0.90900 0.14800 -0.43700
H 	H 	0.91200 0.95900 0.22700 -0.25000
H 	H 	0.94600 0.91700 0.23800 0.44000
H 	H 	0.89200 0.91100 0.24400 0.06300
H 	H 	0.92800 0.94300 0.22100 0.85700
H 	H 	0.96200 0.90000 0.22700 0.10100
H 	H 	0.90900 0.89500 0.24000 0.49600
H 	H 	0.83300 0.87700 0.99200 -0.60100
H 	H 	0.81200 0.82700 0.93500 0.05700
H 	H 	0.80000 0.74800 0.95000 0.00200
H 	H 	0.81200 0.72400 0.02700 0.04000
H 	H 	0.83200 0.77500 0.08300 0.19400
H 	H 	0.82600 0.86200 0.99500 0.63800
H 	H 	0.81000 0.80600 0.94100 -0.13800
H 	H 	0.80300 0.72800 0.96100 0.05700
H 	H 	0.81600 0.71100 0.04000 -0.03400
H 	H 	0.83000 0.76700 0.09200 -0.34500
Ni	Ni	0.89920 0.34940 0.61960 -0.37600
Ni	Ni	0.92340 0.34040 0.62810 -0.84700
Ni	Ni	0.92310 0.34410 0.64290 1.56700
Ni	Ni	0.90340 0.38010 0.63220 0.60600
Ni	Ni	0.92440 0.36300 0.60270 0.85500
Ni	Ni	0.93000 0.36230 0.62280 -0.02800
Ni	Ni	0.88840 0.35610 0.65340 0.25700
O 	O 	0.93980 0.39450 0.58440 -0.33700
O 	O 	0.95300 0.38870 0.59230 -0.67300
O 	O 	0.95250 0.45420 0.63120 -0.06700
O 	O 	0.94100 0.45970 0.62690 -0.27700
C 	C 	0.96310 0.43110 0.59570 0.54600
C 	C 	0.00340 0.44530 0.56900 -0.32500
C 	C 	0.03030 0.48260 0.58090 0.25100
O 	O 	0.84120 0.36780 0.57940 -0.54900
O 	O 	0.87490 0.40830 0.65990 -0.02600
C 	C 	0.82540 0.41320 0.59100 -0.33000
C 	C 	0.83120 0.42050 0.60620 0.57100
C 	C 	0.77440 0.41620 0.57440 -0.66300
C 	C 	0.78100 0.43100 0.59040 -1.12400
N 	N 	0.95580 0.33450 0.66810 0.17000
C 	C 	0.99950 0.32830 0.65570 0.26200
C 	C 	0.03350 0.31600 0.68530 0.23400
C 	C 	0.02590 0.30910 0.73070 0.07200
C 	C 	0.98170 0.31600 0.74340 -0.22400
C 	C 	0.94830 0.32800 0.71300 -0.21400
N 	N 	0.95070 0.33090 0.67940 -0.59500
C 	C 	0.99520 0.32400 0.67060 -0.76900
C 	C 	0.02710 0.31410 0.70320 0.06800
C 	C 	0.01620 0.31030 0.74840 -0.06600
C 	C 	0.97110 0.31740 0.75740 0.15200
C 	C 	0.94000 0.32670 0.72390 0.40600
H 	H 	0.02200 0.50000 0.60900 -0.02000
H 	H 	0.84400 0.43600 0.57500 0.35300
H 	H 	0.85200 0.44200 0.59100 -0.43700
H 	H 	0.77300 0.41200 0.54100 -0.24900
H 	H 	0.76200 0.44600 0.58300 0.43900
H 	H 	0.75600 0.39200 0.58900 0.06300
H 	H 	0.77900 0.42800 0.55700 0.85600
H 	H 	0.77300 0.46200 0.60000 0.10000
H 	H 	0.76000 0.40900 0.60500 0.49600
H 	H 	0.00800 0.33300 0.62300 -0.59600
H 	H 	0.06500 0.31200 0.67300 0.05800
H 	H 	0.05000 0.30000 0.75200 0.00000
H 	H 	0.97300 0.31200 0.77600 0.05000
H 	H 	0.91700 0.33200 0.72500 0.19600
H 	H 	0.00500 0.32600 0.63800 0.63200
H 	H 	0.05900 0.31000 0.69400 -0.13700
H 	H 	0.03900 0.30300 0.77200 0.05700
H 	H 	0.96000 0.31600 0.78900 -0.04100
H 	H 	0.90800 0.33000 0.73300 -0.34800
Ni	Ni	0.39920 0.15060 0.38040 -0.37600
Ni	Ni	0.42340 0.15960 0.37190 -0.84600
Ni	Ni	0.42310 0.15590 0.35710 1.56600
Ni	Ni	0.40340 0.11990 0.36780 0.60600
Ni	Ni	0.42440 0.13700 0.39730 0.85500
Ni	Ni	0.43000 0.13770 0.37720 -0.02700
Ni	Ni	0.38840 0.14390 0.34660 0.25700
O 	O 	0.43980 0.10550 0.41560 -0.33700
O 	O 	0.45300 0.11130 0.40770 -0.67300
O 	O 	0.45250 0.04580 0.36880 -0.06700
O 	O 	0.44100 0.04030 0.37310 -0.27700
C 	C 	0.46310 0.06890 0.40430 0.54700
C 	C 	0.50340 0.05470 0.43100 -0.32600
C 	C 	0.53030 0.01740 0.41910 0.25100
O 	O 	0.34120 0.13220 0.42060 -0.55000
O 	O 	0.37490 0.09170 0.34010 -0.02600
C 	C 	0.32540 0.08680 0.40900 -0.32900
C 	C 	0.33120 0.07950 0.39380 0.57100
C 	C 	0.27440 0.08380 0.42560 -0.66300
C 	C 	0.28100 0.06900 0.40960 -1.12400
N 	N 	0.45580 0.16550 0.33190 0.17100
C 	C 	0.49950 0.17170 0.34430 0.26200
C 	C 	0.53350 0.18400 0.31470 0.23600
C 	C 	0.52590 0.19090 0.26930 0.07000
C 	C 	0.48170 0.18400 0.25660 -0.22000
C 	C 	0.44830 0.17200 0.28700 -0.21500
N 	N 	0.45070 0.16910 0.32060 -0.59500
C 	C 	0.49520 0.17600 0.32940 -0.77100
C 	C 	0.52710 0.18590 0.29680 0.06800
C 	C 	0.51620 0.18970 0.25160 -0.06700
C 	C 	0.47110 0.18260 0.24260 0.15300
C 	C 	0.44000 0.17330 0.27610 0.40500
H 	H 	0.52200 0.00000 0.39100 -0.02000
H 	H 	0.34400 0.06400 0.42500 0.35300
H 	H 	0.35200 0.05800 0.40900 -0.43700
H 	H 	0.27300 0.08800 0.45900 -0.24900
H 	H 	0.26200 0.05400 0.41700 0.43900
H 	H 	0.25600 0.10800 0.41100 0.06300
H 	H 	0.27900 0.07200 0.44300 0.85600
H 	H 	0.27300 0.03800 0.40000 0.10100
H 	H 	0.26000 0.09100 0.39500 0.49600
H 	H 	0.50800 0.16700 0.37700 -0.59800
H 	H 	0.56500 0.18800 0.32700 0.05700
H 	H 	0.55000 0.20000 0.24800 0.00100
H 	H 	0.47300 0.18800 0.22400 0.04400
H 	H 	0.41700 0.16800 0.27500 0.19500
H 	H 	0.50500 0.17400 0.36200 0.63500
H 	H 	0.55900 0.19000 0.30600 -0.13800
H 	H 	0.53900 0.19700 0.22800 0.05700
H 	H 	0.46000 0.18400 0.21100 -0.03700
H 	H 	0.40800 0.17000 0.26700 -0.34600
Ni	Ni	0.60080 0.65060 0.11960 -0.37600
Ni	Ni	0.57660 0.65960 0.12810 -0.84600
Ni	Ni	0.57690 0.65590 0.14290 1.56600
Ni	Ni	0.59660 0.61990 0.13220 0.60600
Ni	Ni	0.57560 0.63700 0.10270 0.85500
Ni	Ni	0.57000 0.63770 0.12280 -0.02700
Ni	Ni	0.61160 0.64390 0.15340 0.25700
O 	O 	0.56020 0.60550 0.08440 -0.33700
O 	O 	0.54700 0.61130 0.09230 -0.67300
O 	O 	0.54750 0.54580 0.13120 -0.06700
O 	O 	0.55900 0.54030 0.12690 -0.27700
C 	C 	0.53690 0.56890 0.09570 0.54700
C 	C 	0.49660 0.55470 0.06900 -0.32600
C 	C 	0.46970 0.51740 0.08090 0.25100
O 	O 	0.65880 0.63220 0.07940 -0.54900
O 	O 	0.62510 0.59170 0.15990 -0.02600
C 	C 	0.67460 0.58680 0.09100 -0.33000
C 	C 	0.66880 0.57950 0.10620 0.57000
C 	C 	0.72560 0.58380 0.07440 -0.66200
C 	C 	0.71900 0.56900 0.09040 -1.12300
N 	N 	0.54420 0.66550 0.16810 0.17100
C 	C 	0.50050 0.67170 0.15570 0.26200
C 	C 	0.46650 0.68400 0.18530 0.23600
C 	C 	0.47410 0.69090 0.23070 0.07000
C 	C 	0.51830 0.68400 0.24340 -0.22000
C 	C 	0.55170 0.67200 0.21300 -0.21500
N 	N 	0.54930 0.66910 0.17940 -0.59500
C 	C 	0.50480 0.67600 0.17060 -0.77100
C 	C 	0.47290 0.68590 0.20320 0.06800
C 	C 	0.48380 0.68970 0.24840 -0.06700
C 	C 	0.52890 0.68260 0.25740 0.15300
C 	C 	0.56000 0.67330 0.22390 0.40500
H 	H 	0.47800 0.50000 0.10900 -0.02000
H 	H 	0.65600 0.56400 0.07500 0.35300
H 	H 	0.64800 0.55800 0.09100 -0.43700
H 	H 	0.72700 0.58800 0.04100 -0.24900
H 	H 	0.73800 0.55400 0.08300 0.43900
H 	H 	0.74400 0.60800 0.08900 0.06300
H 	H 	0.72100 0.57200 0.05700 0.85500
H 	H 	0.72700 0.53800 0.10000 0.10000
H 	H 	0.74000 0.59100 0.10500 0.49500
H 	H 	0.49200 0.66700 0.12300 -0.59900
H 	H 	0.43500 0.68800 0.17300 0.05700
H 	H 	0.45000 0.70000 0.25200 0.00100
H 	H 	0.52700 0.68800 0.27600 0.04500
H 	H 	0.58300 0.66800 0.22500 0.19500
H 	H 	0.49500 0.67400 0.13800 0.63500
H 	H 	0.44100 0.69000 0.19400 -0.13800
H 	H 	0.46100 0.69700 0.27200 0.05700
H 	H 	0.54000 0.68400 0.28900 -0.03700
H 	H 	0.59200 0.67000 0.23300 -0.34600
Ni	Ni	0.10080 0.84940 0.88040 -0.37600
Ni	Ni	0.07660 0.84040 0.87190 -0.84600
Ni	Ni	0.07690 0.84410 0.85710 1.56600
Ni	Ni	0.09660 0.88010 0.86780 0.60600
Ni	Ni	0.07560 0.86300 0.89730 0.85500
Ni	Ni	0.07000 0.86230 0.87720 -0.02700
Ni	Ni	0.11160 0.85610 0.84660 0.25700
O 	O 	0.06020 0.89450 0.91560 -0.33600
O 	O 	0.04700 0.88870 0.90770 -0.67400
O 	O 	0.04750 0.95420 0.86880 -0.06700
O 	O 	0.05900 0.95970 0.87310 -0.27700
C 	C 	0.03690 0.93110 0.90430 0.54700
C 	C 	0.99660 0.94530 0.93100 -0.32600
C 	C 	0.96970 0.98260 0.91910 0.25100
O 	O 	0.15880 0.86780 0.92060 -0.55000
O 	O 	0.12510 0.90830 0.84010 -0.02700
C 	C 	0.17460 0.91320 0.90900 -0.32900
C 	C 	0.16880 0.92050 0.89380 0.57100
C 	C 	0.22560 0.91620 0.92560 -0.66400
C 	C 	0.21900 0.93100 0.90960 -1.12500
N 	N 	0.04420 0.83450 0.83190 0.17100
C 	C 	0.00050 0.82830 0.84430 0.26200
C 	C 	0.96650 0.81600 0.81470 0.23800
C 	C 	0.97410 0.80910 0.76930 0.06800
C 	C 	0.01830 0.81600 0.75660 -0.21700
C 	C 	0.05170 0.82800 0.78700 -0.21500
N 	N 	0.04930 0.83090 0.82060 -0.59500
C 	C 	0.00480 0.82400 0.82940 -0.77300
C 	C 	0.97290 0.81410 0.79680 0.06800
C 	C 	0.98380 0.81030 0.75160 -0.06800
C 	C 	0.02890 0.81740 0.74260 0.15400
C 	C 	0.06000 0.82670 0.77610 0.40500
H 	H 	0.97800 0.00000 0.89100 -0.02000
H 	H 	0.15600 0.93600 0.92500 0.35200
H 	H 	0.14800 0.94200 0.90900 -0.43700
H 	H 	0.22700 0.91200 0.95900 -0.25000
H 	H 	0.23800 0.94600 0.91700 0.44000
H 	H 	0.24400 0.89200 0.91100 0.06300
H 	H 	0.22100 0.92800 0.94300 0.85700
H 	H 	0.22700 0.96200 0.90000 0.10100
H 	H 	0.24000 0.90900 0.89500 0.49600
H 	H 	0.99200 0.83300 0.87700 -0.60100
H 	H 	0.93500 0.81200 0.82700 0.05700
H 	H 	0.95000 0.80000 0.74800 0.00200
H 	H 	0.02700 0.81200 0.72400 0.04000
H 	H 	0.08300 0.83200 0.77500 0.19400
H 	H 	0.99500 0.82600 0.86200 0.63800
H 	H 	0.94100 0.81000 0.80600 -0.13800
H 	H 	0.96100 0.80300 0.72800 0.05700
H 	H 	0.04000 0.81600 0.71100 -0.03400
H 	H 	0.09200 0.83000 0.76700 -0.34500
Ni	Ni	0.61960 0.89920 0.34940 -0.37600
Ni	Ni	0.62810 0.92340 0.34040 -0.84700
Ni	Ni	0.64290 0.92310 0.34410 1.56700
Ni	Ni	0.63220 0.90340 0.38010 0.60600
Ni	Ni	0.60270 0.92440 0.36300 0.85500
Ni	Ni	0.62280 0.93000 0.36230 -0.02800
Ni	Ni	0.65340 0.88840 0.35610 0.25700
O 	O 	0.58440 0.93980 0.39450 -0.33700
O 	O 	0.59230 0.95300 0.38870 -0.67300
O 	O 	0.63120 0.95250 0.45420 -0.06700
O 	O 	0.62690 0.94100 0.45970 -0.27700
C 	C 	0.59570 0.96310 0.43110 0.54600
C 	C 	0.56900 0.00340 0.44530 -0.32500
C 	C 	0.58090 0.03030 0.48260 0.25100
O 	O 	0.57940 0.84120 0.36780 -0.54900
O 	O 	0.65990 0.87490 0.40830 -0.02600
C 	C 	0.59100 0.82540 0.41320 -0.33000
C 	C 	0.60620 0.83120 0.42050 0.57100
C 	C 	0.57440 0.77440 0.41620 -0.66300
C 	C 	0.59040 0.78100 0.43100 -1.12400
N 	N 	0.66810 0.95580 0.33450 0.17000
C 	C 	0.65570 0.99950 0.32830 0.26200
C 	C 	0.68530 0.03350 0.31600 0.23400
C 	C 	0.73070 0.02590 0.30910 0.07200
C 	C 	0.74340 0.98170 0.31600 -0.22400
C 	C 	0.71300 0.94830 0.32800 -0.21400
N 	N 	0.67940 0.95070 0.33090 -0.59500
C 	C 	0.67060 0.99520 0.32400 -0.76900
C 	C 	0.70320 0.02710 0.31410 0.06800
C 	C 	0.74840 0.01620 0.31030 -0.06600
C 	C 	0.75740 0.97110 0.31740 0.15200
C 	C 	0.72390 0.94000 0.32670 0.40600
H 	H 	0.60900 0.02200 0.50000 -0.02000
H 	H 	0.57500 0.84400 0.43600 0.35300
H 	H 	0.59100 0.85200 0.44200 -0.43700
H 	H 	0.54100 0.77300 0.41200 -0.24900
H 	H 	0.58300 0.76200 0.44600 0.43900
H 	H 	0.58900 0.75600 0.39200 0.06300
H 	H 	0.55700 0.77900 0.42800 0.85600
H 	H 	0.60000 0.77300 0.46200 0.10000
H 	H 	0.60500 0.76000 0.40900 0.49600
H 	H 	0.62300 0.00800 0.33300 -0.59600
H 	H 	0.67300 0.06500 0.31200 0.05800
H 	H 	0.75200 0.05000 0.30000 0.00000
H 	H 	0.77600 0.97300 0.31200 0.05000
H 	H 	0.72500 0.91700 0.33200 0.19600
H 	H 	0.63800 0.00500 0.32600 0.63200
H 	H 	0.69400 0.05900 0.31000 -0.13700
H 	H 	0.77200 0.03900 0.30300 0.05700
H 	H 	0.78900 0.96000 0.31600 -0.04100
H 	H 	0.73300 0.90800 0.33000 -0.34800
Ni	Ni	0.38040 0.39920 0.15060 -0.37600
Ni	Ni	0.37190 0.42340 0.15960 -0.84600
Ni	Ni	0.35710 0.42310 0.15590 1.56600
Ni	Ni	0.36780 0.40340 0.11990 0.60600
Ni	Ni	0.39730 0.42440 0.13700 0.85500
Ni	Ni	0.37720 0.43000 0.13770 -0.02700
Ni	Ni	0.34660 0.38840 0.14390 0.25700
O 	O 	0.41560 0.43980 0.10550 -0.33700
O 	O 	0.40770 0.45300 0.11130 -0.67300
O 	O 	0.36880 0.45250 0.04580 -0.06700
O 	O 	0.37310 0.44100 0.04030 -0.27700
C 	C 	0.40430 0.46310 0.06890 0.54700
C 	C 	0.43100 0.50340 0.05470 -0.32600
C 	C 	0.41910 0.53030 0.01740 0.25100
O 	O 	0.42060 0.34120 0.13220 -0.55000
O 	O 	0.34010 0.37490 0.09170 -0.02600
C 	C 	0.40900 0.32540 0.08680 -0.32900
C 	C 	0.39380 0.33120 0.07950 0.57100
C 	C 	0.42560 0.27440 0.08380 -0.66300
C 	C 	0.40960 0.28100 0.06900 -1.12400
N 	N 	0.33190 0.45580 0.16550 0.17100
C 	C 	0.34430 0.49950 0.17170 0.26200
C 	C 	0.31470 0.53350 0.18400 0.23600
C 	C 	0.26930 0.52590 0.19090 0.07000
C 	C 	0.25660 0.48170 0.18400 -0.22000
C 	C 	0.28700 0.44830 0.17200 -0.21500
N 	N 	0.32060 0.45070 0.16910 -0.59500
C 	C 	0.32940 0.49520 0.17600 -0.77100
C 	C 	0.29680 0.52710 0.18590 0.06800
C 	C 	0.25160 0.51620 0.18970 -0.06700
C 	C 	0.24260 0.47110 0.18260 0.15300
C 	C 	0.27610 0.44000 0.17330 0.40500
H 	H 	0.39100 0.52200 -0.00000 -0.02000
H 	H 	0.42500 0.34400 0.06400 0.35300
H 	H 	0.40900 0.35200 0.05800 -0.43700
H 	H 	0.45900 0.27300 0.08800 -0.24900
H 	H 	0.41700 0.26200 0.05400 0.43900
H 	H 	0.41100 0.25600 0.10800 0.06300
H 	H 	0.44300 0.27900 0.07200 0.85600
H 	H 	0.40000 0.27300 0.03800 0.10100
H 	H 	0.39500 0.26000 0.09100 0.49600
H 	H 	0.37700 0.50800 0.16700 -0.59800
H 	H 	0.32700 0.56500 0.18800 0.05700
H 	H 	0.24800 0.55000 0.20000 0.00100
H 	H 	0.22400 0.47300 0.18800 0.04400
H 	H 	0.27500 0.41700 0.16800 0.19500
H 	H 	0.36200 0.50500 0.17400 0.63500
H 	H 	0.30600 0.55900 0.19000 -0.13800
H 	H 	0.22800 0.53900 0.19700 0.05700
H 	H 	0.21100 0.46000 0.18400 -0.03700
H 	H 	0.26700 0.40800 0.17000 -0.34600
Ni	Ni	0.11960 0.60080 0.65060 -0.37600
Ni	Ni	0.12810 0.57660 0.65960 -0.84600
Ni	Ni	0.14290 0.57690 0.65590 1.56600
Ni	Ni	0.13220 0.59660 0.61990 0.60600
Ni	Ni	0.10270 0.57560 0.63700 0.85500
Ni	Ni	0.12280 0.57000 0.63770 -0.02700
Ni	Ni	0.15340 0.61160 0.64390 0.25700
O 	O 	0.08440 0.56020 0.60550 -0.33700
O 	O 	0.09230 0.54700 0.61130 -0.67300
O 	O 	0.13120 0.54750 0.54580 -0.06700
O 	O 	0.12690 0.55900 0.54030 -0.27700
C 	C 	0.09570 0.53690 0.56890 0.54700
C 	C 	0.06900 0.49660 0.55470 -0.32600
C 	C 	0.08090 0.46970 0.51740 0.25100
O 	O 	0.07940 0.65880 0.63220 -0.54900
O 	O 	0.15990 0.62510 0.59170 -0.02600
C 	C 	0.09100 0.67460 0.58680 -0.33000
C 	C 	0.10620 0.66880 0.57950 0.57000
C 	C 	0.07440 0.72560 0.58380 -0.66200
C 	C 	0.09040 0.71900 0.56900 -1.12300
N 	N 	0.16810 0.54420 0.66550 0.17100
C 	C 	0.15570 0.50050 0.67170 0.26200
C 	C 	0.18530 0.46650 0.68400 0.23600
C 	C 	0.23070 0.47410 0.69090 0.07000
C 	C 	0.24340 0.51830 0.68400 -0.22000
C 	C 	0.21300 0.55170 0.67200 -0.21500
N 	N 	0.17940 0.54930 0.66910 -0.59500
C 	C 	0.17060 0.50480 0.67600 -0.77100
C 	C 	0.20320 0.47290 0.68590 0.06800
C 	C 	0.24840 0.48380 0.68970 -0.06700
C 	C 	0.25740 0.52890 0.68260 0.15300
C 	C 	0.22390 0.56000 0.67330 0.40500
H 	H 	0.10900 0.47800 0.50000 -0.02000
H 	H 	0.07500 0.65600 0.56400 0.35300
H 	H 	0.09100 0.64800 0.55800 -0.43700
H 	H 	0.04100 0.72700 0.58800 -0.24900
H 	H 	0.08300 0.73800 0.55400 0.43900
H 	H 	0.08900 0.74400 0.60800 0.06300
H 	H 	0.05700 0.72100 0.57200 0.85500
H 	H 	0.10000 0.72700 0.53800 0.10000
H 	H 	0.10500 0.74000 0.59100 0.49500
H 	H 	0.12300 0.49200 0.66700 -0.59900
H 	H 	0.17300 0.43500 0.68800 0.05700
H 	H 	0.25200 0.45000 0.70000 0.00100
H 	H 	0.27600 0.52700 0.68800 0.04500
H 	H 	0.22500 0.58300 0.66800 0.19500
H 	H 	0.13800 0.49500 0.67400 0.63500
H 	H 	0.19400 0.44100 0.69000 -0.13800
H 	H 	0.27200 0.46100 0.69700 0.05700
H 	H 	0.28900 0.54000 0.68400 -0.03700
H 	H 	0.23300 0.59200 0.67000 -0.34600
Ni	Ni	0.88040 0.10080 0.84940 -0.37600
Ni	Ni	0.87190 0.07660 0.84040 -0.84600
Ni	Ni	0.85710 0.07690 0.84410 1.56600
Ni	Ni	0.86780 0.09660 0.88010 0.60600
Ni	Ni	0.89730 0.07560 0.86300 0.85500
Ni	Ni	0.87720 0.07000 0.86230 -0.02700
Ni	Ni	0.84660 0.11160 0.85610 0.25700
O 	O 	0.91560 0.06020 0.89450 -0.33600
O 	O 	0.90770 0.04700 0.88870 -0.67400
O 	O 	0.86880 0.04750 0.95420 -0.06700
O 	O 	0.87310 0.05900 0.95970 -0.27700
C 	C 	0.90430 0.03690 0.93110 0.54700
C 	C 	0.93100 0.99660 0.94530 -0.32600
C 	C 	0.91910 0.96970 0.98260 0.25100
O 	O 	0.92060 0.15880 0.86780 -0.55000
O 	O 	0.84010 0.12510 0.90830 -0.02700
C 	C 	0.90900 0.17460 0.91320 -0.32900
C 	C 	0.89380 0.16880 0.92050 0.57100
C 	C 	0.92560 0.22560 0.91620 -0.66400
C 	C 	0.90960 0.21900 0.93100 -1.12500
N 	N 	0.83190 0.04420 0.83450 0.17100
C 	C 	0.84430 0.00050 0.82830 0.26200
C 	C 	0.81470 0.96650 0.81600 0.23800
C 	C 	0.76930 0.97410 0.80910 0.06800
C 	C 	0.75660 0.01830 0.81600 -0.21700
C 	C 	0.78700 0.05170 0.82800 -0.21500
N 	N 	0.82060 0.04930 0.83090 -0.59500
C 	C 	0.82940 0.00480 0.82400 -0.77300
C 	C 	0.79680 0.97290 0.81410 0.06800
C 	C 	0.75160 0.98380 0.81030 -0.06800
C 	C 	0.74260 0.02890 0.81740 0.15400
C 	C 	0.77610 0.06000 0.82670 0.40500
H 	H 	0.89100 0.97800 -0.00000 -0.02000
H 	H 	0.92500 0.15600 0.93600 0.35200
H 	H 	0.90900 0.14800 0.94200 -0.43700
H 	H 	0.95900 0.22700 0.91200 -0.25000
H 	H 	0.91700 0.23800 0.94600 0.44000
H 	H 	0.91100 0.24400 0.89200 0.06300
H 	H 	0.94300 0.22100 0.92800 0.85700
H 	H 	0.90000 0.22700 0.96200 0.10100
H 	H 	0.89500 0.24000 0.90900 0.49600
H 	H 	0.87700 0.99200 0.83300 -0.60100
H 	H 	0.82700 0.93500 0.81200 0.05700
H 	H 	0.74800 0.95000 0.80000 0.00200
H 	H 	0.72400 0.02700 0.81200 0.04000
H 	H 	0.77500 0.08300 0.83200 0.19400
H 	H 	0.86200 0.99500 0.82600 0.63800
H 	H 	0.80600 0.94100 0.81000 -0.13800
H 	H 	0.72800 0.96100 0.80300 0.05700
H 	H 	0.71100 0.04000 0.81600 -0.03400
H 	H 	0.76700 0.09200 0.83000 -0.34500
Ni	Ni	0.86960 0.09940 0.85080 -0.37600
Ni	Ni	0.87810 0.09040 0.82660 -0.84600
Ni	Ni	0.89290 0.09410 0.82690 1.56600
Ni	Ni	0.88220 0.13010 0.84660 0.60600
Ni	Ni	0.85270 0.11300 0.82560 0.85500
Ni	Ni	0.87280 0.11230 0.82000 -0.02700
Ni	Ni	0.90340 0.10610 0.86160 0.25700
O 	O 	0.83440 0.14450 0.81020 -0.33700
O 	O 	0.84230 0.13870 0.79700 -0.67400
O 	O 	0.88120 0.20420 0.79750 -0.06700
O 	O 	0.87690 0.20970 0.80900 -0.27700
C 	C 	0.84570 0.18110 0.78690 0.54700
C 	C 	0.81900 0.19530 0.74660 -0.32600
C 	C 	0.83090 0.23260 0.71970 0.25200
O 	O 	0.82940 0.11780 0.90880 -0.54900
O 	O 	0.90990 0.15830 0.87510 -0.02600
C 	C 	0.84100 0.16320 0.92460 -0.33000
C 	C 	0.85620 0.17050 0.91880 0.56900
C 	C 	0.82440 0.16620 0.97560 -0.66000
C 	C 	0.84040 0.18100 0.96900 -1.12000
N 	N 	0.91810 0.08450 0.79420 0.17100
C 	C 	0.90570 0.07830 0.75050 0.26200
C 	C 	0.93530 0.06600 0.71650 0.23700
C 	C 	0.98070 0.05910 0.72410 0.06900
C 	C 	0.99340 0.06600 0.76830 -0.22100
C 	C 	0.96300 0.07800 0.80170 -0.21400
N 	N 	0.92940 0.08090 0.79930 -0.59500
C 	C 	0.92060 0.07400 0.75480 -0.77100
C 	C 	0.95320 0.06410 0.72290 0.06800
C 	C 	0.99840 0.06030 0.73380 -0.06700
C 	C 	0.00740 0.06740 0.77890 0.15200
C 	C 	0.97390 0.07670 0.81000 0.40500
H 	H 	0.85900 0.25000 0.72800 -0.02000
H 	H 	0.82500 0.18600 0.90600 0.35300
H 	H 	0.84100 0.19200 0.89800 -0.43700
H 	H 	0.79100 0.16200 0.97700 -0.24900
H 	H 	0.83300 0.19600 0.98800 0.43800
H 	H 	0.83900 0.14200 0.99400 0.06300
H 	H 	0.80700 0.17800 0.97100 0.85300
H 	H 	0.85000 0.21200 0.97700 0.10000
H 	H 	0.85500 0.15900 0.99000 0.49400
H 	H 	0.87300 0.08300 0.74200 -0.59800
H 	H 	0.92300 0.06200 0.68500 0.05700
H 	H 	0.00200 0.05000 0.70000 0.00200
H 	H 	0.02600 0.06200 0.77700 0.04700
H 	H 	0.97500 0.08200 0.83300 0.19500
H 	H 	0.88800 0.07600 0.74500 0.63500
H 	H 	0.94400 0.06000 0.69100 -0.13800
H 	H 	0.02200 0.05300 0.71100 0.05700
H 	H 	0.03900 0.06600 0.79000 -0.03900
H 	H 	0.98300 0.08000 0.84200 -0.34600
Ni	Ni	0.63040 0.90060 0.35080 -0.37600
Ni	Ni	0.62190 0.90960 0.32660 -0.84700
Ni	Ni	0.60710 0.90590 0.32690 1.56700
Ni	Ni	0.61780 0.86990 0.34660 0.60600
Ni	Ni	0.64730 0.88700 0.32560 0.85500
Ni	Ni	0.62720 0.88770 0.32000 -0.02700
Ni	Ni	0.59660 0.89390 0.36160 0.25700
O 	O 	0.66560 0.85550 0.31020 -0.33700
O 	O 	0.65770 0.86130 0.29700 -0.67300
O 	O 	0.61880 0.79580 0.29750 -0.06700
O 	O 	0.62310 0.79030 0.30900 -0.27700
C 	C 	0.65430 0.81890 0.28690 0.54700
C 	C 	0.68100 0.80470 0.24660 -0.32600
C 	C 	0.66910 0.76740 0.21970 0.25200
O 	O 	0.67060 0.88220 0.40880 -0.55000
O 	O 	0.59010 0.84170 0.37510 -0.02600
C 	C 	0.65900 0.83680 0.42460 -0.32900
C 	C 	0.64380 0.82950 0.41880 0.57100
C 	C 	0.67560 0.83380 0.47560 -0.66300
C 	C 	0.65960 0.81900 0.46900 -1.12400
N 	N 	0.58190 0.91550 0.29420 0.17100
C 	C 	0.59430 0.92170 0.25050 0.26200
C 	C 	0.56470 0.93400 0.21650 0.23600
C 	C 	0.51930 0.94090 0.22410 0.07000
C 	C 	0.50660 0.93400 0.26830 -0.22100
C 	C 	0.53700 0.92200 0.30170 -0.21500
N 	N 	0.57060 0.91910 0.29930 -0.59500
C 	C 	0.57940 0.92600 0.25480 -0.77100
C 	C 	0.54680 0.93590 0.22290 0.06800
C 	C 	0.50160 0.93970 0.23380 -0.06700
C 	C 	0.49260 0.93260 0.27890 0.15300
C 	C 	0.52610 0.92330 0.31000 0.40500
H 	H 	0.64100 0.75000 0.22800 -0.02000
H 	H 	0.67500 0.81400 0.40600 0.35300
H 	H 	0.65900 0.80800 0.39800 -0.43700
H 	H 	0.70900 0.83800 0.47700 -0.24900
H 	H 	0.66700 0.80400 0.48800 0.43900
H 	H 	0.66100 0.85800 0.49400 0.06300
H 	H 	0.69300 0.82200 0.47100 0.85600
H 	H 	0.65000 0.78800 0.47700 0.10100
H 	H 	0.64500 0.84100 0.49000 0.49600
H 	H 	0.62700 0.91700 0.24200 -0.59900
H 	H 	0.57700 0.93800 0.18500 0.05700
H 	H 	0.49800 0.95000 0.20000 0.00100
H 	H 	0.47400 0.93800 0.27700 0.04500
H 	H 	0.52500 0.91800 0.33300 0.19500
H 	H 	0.61200 0.92400 0.24500 0.63600
H 	H 	0.55600 0.94000 0.19100 -0.13800
H 	H 	0.47800 0.94700 0.21100 0.05700
H 	H 	0.46100 0.93400 0.29000 -0.03800
H 	H 	0.51700 0.92000 0.34200 -0.34600
Ni	Ni	0.36960 0.40060 0.14920 -0.37600
Ni	Ni	0.37810 0.40960 0.17340 -0.84600
Ni	Ni	0.39290 0.40590 0.17310 1.56600
Ni	Ni	0.38220 0.36990 0.15340 0.60600
Ni	Ni	0.35270 0.38700 0.17440 0.85500
Ni	Ni	0.37280 0.38770 0.18000 -0.02700
Ni	Ni	0.40340 0.39390 0.13840 0.25700
O 	O 	0.33440 0.35550 0.18980 -0.33700
O 	O 	0.34230 0.36130 0.20300 -0.67300
O 	O 	0.38120 0.29580 0.20250 -0.06700
O 	O 	0.37690 0.29030 0.19100 -0.27700
C 	C 	0.34570 0.31890 0.21310 0.54700
C 	C 	0.31900 0.30470 0.25340 -0.32600
C 	C 	0.33090 0.26740 0.28030 0.25200
O 	O 	0.32940 0.38220 0.09120 -0.55000
O 	O 	0.40990 0.34170 0.12490 -0.02600
C 	C 	0.34100 0.33680 0.07540 -0.33000
C 	C 	0.35620 0.32950 0.08120 0.57100
C 	C 	0.32440 0.33380 0.02440 -0.66300
C 	C 	0.34040 0.31900 0.03100 -1.12400
N 	N 	0.41810 0.41550 0.20580 0.17100
C 	C 	0.40570 0.42170 0.24950 0.26200
C 	C 	0.43530 0.43400 0.28350 0.23600
C 	C 	0.48070 0.44090 0.27590 0.07000
C 	C 	0.49340 0.43400 0.23170 -0.22000
C 	C 	0.46300 0.42200 0.19830 -0.21500
N 	N 	0.42940 0.41910 0.20070 -0.59500
C 	C 	0.42060 0.42600 0.24520 -0.77100
C 	C 	0.45320 0.43590 0.27710 0.06800
C 	C 	0.49840 0.43970 0.26620 -0.06700
C 	C 	0.50740 0.43260 0.22110 0.15300
C 	C 	0.47390 0.42330 0.19000 0.40500
H 	H 	0.35900 0.25000 0.27200 -0.02000
H 	H 	0.32500 0.31400 0.09400 0.35300
H 	H 	0.34100 0.30800 0.10200 -0.43700
H 	H 	0.29100 0.33800 0.02300 -0.24900
H 	H 	0.33300 0.30400 0.01200 0.43900
H 	H 	0.33900 0.35800 0.00600 0.06300
H 	H 	0.30700 0.32200 0.02900 0.85600
H 	H 	0.35000 0.28800 0.02300 0.10100
H 	H 	0.35500 0.34100 0.01000 0.49600
H 	H 	0.37300 0.41700 0.25800 -0.59900
H 	H 	0.42300 0.43800 0.31500 0.05700
H 	H 	0.50200 0.45000 0.30000 0.00100
H 	H 	0.52600 0.43800 0.22300 0.04500
H 	H 	0.47500 0.41800 0.16700 0.19500
H 	H 	0.38800 0.42400 0.25500 0.63500
H 	H 	0.44400 0.44000 0.30900 -0.13800
H 	H 	0.52200 0.44700 0.28900 0.05700
H 	H 	0.53900 0.43400 0.21000 -0.03700
H 	H 	0.48300 0.42000 0.15800 -0.34600
Ni	Ni	0.13040 0.59940 0.64920 -0.37600
Ni	Ni	0.12190 0.59040 0.67340 -0.84600
Ni	Ni	0.10710 0.59410 0.67310 1.56600
Ni	Ni	0.11780 0.63010 0.65340 0.60600
Ni	Ni	0.14730 0.61300 0.67440 0.85500
Ni	Ni	0.12720 0.61230 0.68000 -0.02700
Ni	Ni	0.09660 0.60610 0.63840 0.25700
O 	O 	0.16560 0.64450 0.68980 -0.33700
O 	O 	0.15770 0.63870 0.70300 -0.67400
O 	O 	0.11880 0.70420 0.70250 -0.06700
O 	O 	0.12310 0.70970 0.69100 -0.27700
C 	C 	0.15430 0.68110 0.71310 0.54700
C 	C 	0.18100 0.69530 0.75340 -0.32600
C 	C 	0.16910 0.73260 0.78030 0.25200
O 	O 	0.17060 0.61780 0.59120 -0.55000
O 	O 	0.09010 0.65830 0.62490 -0.02600
C 	C 	0.15900 0.66320 0.57540 -0.32900
C 	C 	0.14380 0.67050 0.58120 0.57100
C 	C 	0.17560 0.66620 0.52440 -0.66300
C 	C 	0.15960 0.68100 0.53100 -1.12500
N 	N 	0.08190 0.58450 0.70580 0.17100
C 	C 	0.09430 0.57830 0.74950 0.26200
C 	C 	0.06470 0.56600 0.78350 0.23600
C 	C 	0.01930 0.55910 0.77590 0.07000
C 	C 	0.00660 0.56600 0.73170 -0.22000
C 	C 	0.03700 0.57800 0.69830 -0.21500
N 	N 	0.07060 0.58090 0.70070 -0.59500
C 	C 	0.07940 0.57400 0.74520 -0.77100
C 	C 	0.04680 0.56410 0.77710 0.06900
C 	C 	0.00160 0.56030 0.76620 -0.06700
C 	C 	0.99260 0.56740 0.72110 0.15400
C 	C 	0.02610 0.57670 0.69000 0.40500
H 	H 	0.14100 0.75000 0.77200 -0.02000
H 	H 	0.17500 0.68600 0.59400 0.35300
H 	H 	0.15900 0.69200 0.60200 -0.43700
H 	H 	0.20900 0.66200 0.52300 -0.25000
H 	H 	0.16700 0.69600 0.51200 0.44000
H 	H 	0.16100 0.64200 0.50600 0.06300
H 	H 	0.19300 0.67800 0.52900 0.85600
H 	H 	0.15000 0.71200 0.52300 0.10100
H 	H 	0.14500 0.65900 0.51000 0.49600
H 	H 	0.12700 0.58300 0.75800 -0.59900
H 	H 	0.07700 0.56200 0.81500 0.05700
H 	H 	0.99800 0.55000 0.80000 0.00100
H 	H 	0.97400 0.56200 0.72300 0.04200
H 	H 	0.02500 0.58200 0.66700 0.19500
H 	H 	0.11200 0.57600 0.75500 0.63600
H 	H 	0.05600 0.56000 0.80900 -0.13700
H 	H 	0.97800 0.55300 0.78900 0.05700
H 	H 	0.96100 0.56600 0.71000 -0.03600
H 	H 	0.01700 0.58000 0.65800 -0.34600
Ni	Ni	0.59940 0.64920 0.13040 -0.37600
Ni	Ni	0.59040 0.67340 0.12190 -0.84600
Ni	Ni	0.59410 0.67310 0.10710 1.56600
Ni	Ni	0.63010 0.65340 0.11780 0.60600
Ni	Ni	0.61300 0.67440 0.14730 0.85500
Ni	Ni	0.61230 0.68000 0.12720 -0.02700
Ni	Ni	0.60610 0.63840 0.09660 0.25700
O 	O 	0.64450 0.68980 0.16560 -0.33700
O 	O 	0.63870 0.70300 0.15770 -0.67400
O 	O 	0.70420 0.70250 0.11880 -0.06700
O 	O 	0.70970 0.69100 0.12310 -0.27700
C 	C 	0.68110 0.71310 0.15430 0.54700
C 	C 	0.69530 0.75340 0.18100 -0.32600
C 	C 	0.73260 0.78030 0.16910 0.25200
O 	O 	0.61780 0.59120 0.17060 -0.55000
O 	O 	0.65830 0.62490 0.09010 -0.02600
C 	C 	0.66320 0.57540 0.15900 -0.32900
C 	C 	0.67050 0.58120 0.14380 0.57100
C 	C 	0.66620 0.52440 0.17560 -0.66300
C 	C 	0.68100 0.53100 0.15960 -1.12500
N 	N 	0.58450 0.70580 0.08190 0.17100
C 	C 	0.57830 0.74950 0.09430 0.26200
C 	C 	0.56600 0.78350 0.06470 0.23600
C 	C 	0.55910 0.77590 0.01930 0.07000
C 	C 	0.56600 0.73170 0.00660 -0.22000
C 	C 	0.57800 0.69830 0.03700 -0.21500
N 	N 	0.58090 0.70070 0.07060 -0.59500
C 	C 	0.57400 0.74520 0.07940 -0.77100
C 	C 	0.56410 0.77710 0.04680 0.06900
C 	C 	0.56030 0.76620 0.00160 -0.06700
C 	C 	0.56740 0.72110 0.99260 0.15400
C 	C 	0.57670 0.69000 0.02610 0.40500
H 	H 	0.75000 0.77200 0.14100 -0.02000
H 	H 	0.68600 0.59400 0.17500 0.35300
H 	H 	0.69200 0.60200 0.15900 -0.43700
H 	H 	0.66200 0.52300 0.20900 -0.25000
H 	H 	0.69600 0.51200 0.16700 0.44000
H 	H 	0.64200 0.50600 0.16100 0.06300
H 	H 	0.67800 0.52900 0.19300 0.85600
H 	H 	0.71200 0.52300 0.15000 0.10100
H 	H 	0.65900 0.51000 0.14500 0.49600
H 	H 	0.58300 0.75800 0.12700 -0.59900
H 	H 	0.56200 0.81500 0.07700 0.05700
H 	H 	0.55000 0.80000 0.99800 0.00100
H 	H 	0.56200 0.72300 0.97400 0.04200
H 	H 	0.58200 0.66700 0.02500 0.19500
H 	H 	0.57600 0.75500 0.11200 0.63600
H 	H 	0.56000 0.80900 0.05600 -0.13700
H 	H 	0.55300 0.78900 0.97800 0.05700
H 	H 	0.56600 0.71000 0.96100 -0.03600
H 	H 	0.58000 0.65800 0.01700 -0.34600
Ni	Ni	0.40060 0.14920 0.36960 -0.37600
Ni	Ni	0.40960 0.17340 0.37810 -0.84600
Ni	Ni	0.40590 0.17310 0.39290 1.56600
Ni	Ni	0.36990 0.15340 0.38220 0.60600
Ni	Ni	0.38700 0.17440 0.35270 0.85500
Ni	Ni	0.38770 0.18000 0.37280 -0.02700
Ni	Ni	0.39390 0.13840 0.40340 0.25700
O 	O 	0.35550 0.18980 0.33440 -0.33700
O 	O 	0.36130 0.20300 0.34230 -0.67300
O 	O 	0.29580 0.20250 0.38120 -0.06700
O 	O 	0.29030 0.19100 0.37690 -0.27700
C 	C 	0.31890 0.21310 0.34570 0.54700
C 	C 	0.30470 0.25340 0.31900 -0.32600
C 	C 	0.26740 0.28030 0.33090 0.25200
O 	O 	0.38220 0.09120 0.32940 -0.55000
O 	O 	0.34170 0.12490 0.40990 -0.02600
C 	C 	0.33680 0.07540 0.34100 -0.33000
C 	C 	0.32950 0.08120 0.35620 0.57100
C 	C 	0.33380 0.02440 0.32440 -0.66300
C 	C 	0.31900 0.03100 0.34040 -1.12400
N 	N 	0.41550 0.20580 0.41810 0.17100
C 	C 	0.42170 0.24950 0.40570 0.26200
C 	C 	0.43400 0.28350 0.43530 0.23600
C 	C 	0.44090 0.27590 0.48070 0.07000
C 	C 	0.43400 0.23170 0.49340 -0.22000
C 	C 	0.42200 0.19830 0.46300 -0.21500
N 	N 	0.41910 0.20070 0.42940 -0.59500
C 	C 	0.42600 0.24520 0.42060 -0.77100
C 	C 	0.43590 0.27710 0.45320 0.06800
C 	C 	0.43970 0.26620 0.49840 -0.06700
C 	C 	0.43260 0.22110 0.50740 0.15300
C 	C 	0.42330 0.19000 0.47390 0.40500
H 	H 	0.25000 0.27200 0.35900 -0.02000
H 	H 	0.31400 0.09400 0.32500 0.35300
H 	H 	0.30800 0.10200 0.34100 -0.43700
H 	H 	0.33800 0.02300 0.29100 -0.24900
H 	H 	0.30400 0.01200 0.33300 0.43900
H 	H 	0.35800 0.00600 0.33900 0.06300
H 	H 	0.32200 0.02900 0.30700 0.85600
H 	H 	0.28800 0.02300 0.35000 0.10100
H 	H 	0.34100 0.01000 0.35500 0.49600
H 	H 	0.41700 0.25800 0.37300 -0.59900
H 	H 	0.43800 0.31500 0.42300 0.05700
H 	H 	0.45000 0.30000 0.50200 0.00100
H 	H 	0.43800 0.22300 0.52600 0.04500
H 	H 	0.41800 0.16700 0.47500 0.19500
H 	H 	0.42400 0.25500 0.38800 0.63500
H 	H 	0.44000 0.30900 0.44400 -0.13800
H 	H 	0.44700 0.28900 0.52200 0.05700
H 	H 	0.43400 0.21000 0.53900 -0.03700
H 	H 	0.42000 0.15800 0.48300 -0.34600
Ni	Ni	0.90060 0.35080 0.63040 -0.37600
Ni	Ni	0.90960 0.32660 0.62190 -0.84700
Ni	Ni	0.90590 0.32690 0.60710 1.56700
Ni	Ni	0.86990 0.34660 0.61780 0.60600
Ni	Ni	0.88700 0.32560 0.64730 0.85500
Ni	Ni	0.88770 0.32000 0.62720 -0.02700
Ni	Ni	0.89390 0.36160 0.59660 0.25700
O 	O 	0.85550 0.31020 0.66560 -0.33700
O 	O 	0.86130 0.29700 0.65770 -0.67300
O 	O 	0.79580 0.29750 0.61880 -0.06700
O 	O 	0.79030 0.30900 0.62310 -0.27700
C 	C 	0.81890 0.28690 0.65430 0.54700
C 	C 	0.80470 0.24660 0.68100 -0.32600
C 	C 	0.76740 0.21970 0.66910 0.25200
O 	O 	0.88220 0.40880 0.67060 -0.55000
O 	O 	0.84170 0.37510 0.59010 -0.02600
C 	C 	0.83680 0.42460 0.65900 -0.32900
C 	C 	0.82950 0.41880 0.64380 0.57100
C 	C 	0.83380 0.47560 0.67560 -0.66300
C 	C 	0.81900 0.46900 0.65960 -1.12400
N 	N 	0.91550 0.29420 0.58190 0.17100
C 	C 	0.92170 0.25050 0.59430 0.26200
C 	C 	0.93400 0.21650 0.56470 0.23600
C 	C 	0.94090 0.22410 0.51930 0.07000
C 	C 	0.93400 0.26830 0.50660 -0.22100
C 	C 	0.92200 0.30170 0.53700 -0.21500
N 	N 	0.91910 0.29930 0.57060 -0.59500
C 	C 	0.92600 0.25480 0.57940 -0.77100
C 	C 	0.93590 0.22290 0.54680 0.06800
C 	C 	0.93970 0.23380 0.50160 -0.06700
C 	C 	0.93260 0.27890 0.49260 0.15300
C 	C 	0.92330 0.31000 0.52610 0.40500
H 	H 	0.75000 0.22800 0.64100 -0.02000
H 	H 	0.81400 0.40600 0.67500 0.35300
H 	H 	0.80800 0.39800 0.65900 -0.43700
H 	H 	0.83800 0.47700 0.70900 -0.24900
H 	H 	0.80400 0.48800 0.66700 0.43900
H 	H 	0.85800 0.49400 0.66100 0.06300
H 	H 	0.82200 0.47100 0.69300 0.85600
H 	H 	0.78800 0.47700 0.65000 0.10100
H 	H 	0.84100 0.49000 0.64500 0.49600
H 	H 	0.91700 0.24200 0.62700 -0.59900
H 	H 	0.93800 0.18500 0.57700 0.05700
H 	H 	0.95000 0.20000 0.49800 0.00100
H 	H 	0.93800 0.27700 0.47400 0.04500
H 	H 	0.91800 0.33300 0.52500 0.19500
H 	H 	0.92400 0.24500 0.61200 0.63600
H 	H 	0.94000 0.19100 0.55600 -0.13800
H 	H 	0.94700 0.21100 0.47800 0.05700
H 	H 	0.93400 0.29000 0.46100 -0.03800
H 	H 	0.92000 0.34200 0.51700 -0.34600
Ni	Ni	0.09940 0.85080 0.86960 -0.37600
Ni	Ni	0.09040 0.82660 0.87810 -0.84600
Ni	Ni	0.09410 0.82690 0.89290 1.56600
Ni	Ni	0.13010 0.84660 0.88220 0.60600
Ni	Ni	0.11300 0.82560 0.85270 0.85500
Ni	Ni	0.11230 0.82000 0.87280 -0.02700
Ni	Ni	0.10610 0.86160 0.90340 0.25700
O 	O 	0.14450 0.81020 0.83440 -0.33700
O 	O 	0.13870 0.79700 0.84230 -0.67400
O 	O 	0.20420 0.79750 0.88120 -0.06700
O 	O 	0.20970 0.80900 0.87690 -0.27700
C 	C 	0.18110 0.78690 0.84570 0.54700
C 	C 	0.19530 0.74660 0.81900 -0.32600
C 	C 	0.23260 0.71970 0.83090 0.25200
O 	O 	0.11780 0.90880 0.82940 -0.54900
O 	O 	0.15830 0.87510 0.90990 -0.02600
C 	C 	0.16320 0.92460 0.84100 -0.33000
C 	C 	0.17050 0.91880 0.85620 0.56900
C 	C 	0.16620 0.97560 0.82440 -0.66000
C 	C 	0.18100 0.96900 0.84040 -1.12000
N 	N 	0.08450 0.79420 0.91810 0.17100
C 	C 	0.07830 0.75050 0.90570 0.26200
C 	C 	0.06600 0.71650 0.93530 0.23700
C 	C 	0.05910 0.72410 0.98070 0.06900
C 	C 	0.06600 0.76830 0.99340 -0.22100
C 	C 	0.07800 0.80170 0.96300 -0.21400
N 	N 	0.08090 0.79930 0.92940 -0.59500
C 	C 	0.07400 0.75480 0.92060 -0.77100
C 	C 	0.06410 0.72290 0.95320 0.06800
C 	C 	0.06030 0.73380 0.99840 -0.06700
C 	C 	0.06740 0.77890 0.00740 0.15200
C 	C 	0.07670 0.81000 0.97390 0.40500
H 	H 	0.25000 0.72800 0.85900 -0.02000
H 	H 	0.18600 0.90600 0.82500 0.35300
H 	H 	0.19200 0.89800 0.84100 -0.43700
H 	H 	0.16200 0.97700 0.79100 -0.24900
H 	H 	0.19600 0.98800 0.83300 0.43800
H 	H 	0.14200 0.99400 0.83900 0.06300
H 	H 	0.17800 0.97100 0.80700 0.85300
H 	H 	0.21200 0.97700 0.85000 0.10000
H 	H 	0.15900 0.99000 0.85500 0.49400
H 	H 	0.08300 0.74200 0.87300 -0.59800
H 	H 	0.06200 0.68500 0.92300 0.05700
H 	H 	0.05000 0.70000 0.00200 0.00200
H 	H 	0.06200 0.77700 0.02600 0.04700
H 	H 	0.08200 0.83300 0.97500 0.19500
H 	H 	0.07600 0.74500 0.88800 0.63500
H 	H 	0.06000 0.69100 0.94400 -0.13800
H 	H 	0.05300 0.71100 0.02200 0.05700
H 	H 	0.06600 0.79000 0.03900 -0.03900
H 	H 	0.08000 0.84200 0.98300 -0.34600
Ni	Ni	0.14920 0.36960 0.40060 -0.37600
Ni	Ni	0.17340 0.37810 0.40960 -0.84600
Ni	Ni	0.17310 0.39290 0.40590 1.56600
Ni	Ni	0.15340 0.38220 0.36990 0.60600
Ni	Ni	0.17440 0.35270 0.38700 0.85500
Ni	Ni	0.18000 0.37280 0.38770 -0.02700
Ni	Ni	0.13840 0.40340 0.39390 0.25700
O 	O 	0.18980 0.33440 0.35550 -0.33700
O 	O 	0.20300 0.34230 0.36130 -0.67300
O 	O 	0.20250 0.38120 0.29580 -0.06700
O 	O 	0.19100 0.37690 0.29030 -0.27700
C 	C 	0.21310 0.34570 0.31890 0.54700
C 	C 	0.25340 0.31900 0.30470 -0.32600
C 	C 	0.28030 0.33090 0.26740 0.25200
O 	O 	0.09120 0.32940 0.38220 -0.55000
O 	O 	0.12490 0.40990 0.34170 -0.02600
C 	C 	0.07540 0.34100 0.33680 -0.33000
C 	C 	0.08120 0.35620 0.32950 0.57100
C 	C 	0.02440 0.32440 0.33380 -0.66300
C 	C 	0.03100 0.34040 0.31900 -1.12400
N 	N 	0.20580 0.41810 0.41550 0.17100
C 	C 	0.24950 0.40570 0.42170 0.26200
C 	C 	0.28350 0.43530 0.43400 0.23600
C 	C 	0.27590 0.48070 0.44090 0.07000
C 	C 	0.23170 0.49340 0.43400 -0.22000
C 	C 	0.19830 0.46300 0.42200 -0.21500
N 	N 	0.20070 0.42940 0.41910 -0.59500
C 	C 	0.24520 0.42060 0.42600 -0.77100
C 	C 	0.27710 0.45320 0.43590 0.06800
C 	C 	0.26620 0.49840 0.43970 -0.06700
C 	C 	0.22110 0.50740 0.43260 0.15300
C 	C 	0.19000 0.47390 0.42330 0.40500
H 	H 	0.27200 0.35900 0.25000 -0.02000
H 	H 	0.09400 0.32500 0.31400 0.35300
H 	H 	0.10200 0.34100 0.30800 -0.43700
H 	H 	0.02300 0.29100 0.33800 -0.24900
H 	H 	0.01200 0.33300 0.30400 0.43900
H 	H 	0.00600 0.33900 0.35800 0.06300
H 	H 	0.02900 0.30700 0.32200 0.85600
H 	H 	0.02300 0.35000 0.28800 0.10100
H 	H 	0.01000 0.35500 0.34100 0.49600
H 	H 	0.25800 0.37300 0.41700 -0.59900
H 	H 	0.31500 0.42300 0.43800 0.05700
H 	H 	0.30000 0.50200 0.45000 0.00100
H 	H 	0.22300 0.52600 0.43800 0.04500
H 	H 	0.16700 0.47500 0.41800 0.19500
H 	H 	0.25500 0.38800 0.42400 0.63500
H 	H 	0.30900 0.44400 0.44000 -0.13800
H 	H 	0.28900 0.52200 0.44700 0.05700
H 	H 	0.21000 0.53900 0.43400 -0.03700
H 	H 	0.15800 0.48300 0.42000 -0.34600
Ni	Ni	0.64920 0.13040 0.59940 -0.37600
Ni	Ni	0.67340 0.12190 0.59040 -0.84600
Ni	Ni	0.67310 0.10710 0.59410 1.56600
Ni	Ni	0.65340 0.11780 0.63010 0.60600
Ni	Ni	0.67440 0.14730 0.61300 0.85500
Ni	Ni	0.68000 0.12720 0.61230 -0.02700
Ni	Ni	0.63840 0.09660 0.60610 0.25700
O 	O 	0.68980 0.16560 0.64450 -0.33700
O 	O 	0.70300 0.15770 0.63870 -0.67400
O 	O 	0.70250 0.11880 0.70420 -0.06700
O 	O 	0.69100 0.12310 0.70970 -0.27700
C 	C 	0.71310 0.15430 0.68110 0.54700
C 	C 	0.75340 0.18100 0.69530 -0.32600
C 	C 	0.78030 0.16910 0.73260 0.25200
O 	O 	0.59120 0.17060 0.61780 -0.55000
O 	O 	0.62490 0.09010 0.65830 -0.02600
C 	C 	0.57540 0.15900 0.66320 -0.32900
C 	C 	0.58120 0.14380 0.67050 0.57100
C 	C 	0.52440 0.17560 0.66620 -0.66300
C 	C 	0.53100 0.15960 0.68100 -1.12500
N 	N 	0.70580 0.08190 0.58450 0.17100
C 	C 	0.74950 0.09430 0.57830 0.26200
C 	C 	0.78350 0.06470 0.56600 0.23600
C 	C 	0.77590 0.01930 0.55910 0.07000
C 	C 	0.73170 0.00660 0.56600 -0.22000
C 	C 	0.69830 0.03700 0.57800 -0.21500
N 	N 	0.70070 0.07060 0.58090 -0.59500
C 	C 	0.74520 0.07940 0.57400 -0.77100
C 	C 	0.77710 0.04680 0.56410 0.06900
C 	C 	0.76620 0.00160 0.56030 -0.06700
C 	C 	0.72110 0.99260 0.56740 0.15400
C 	C 	0.69000 0.02610 0.57670 0.40500
H 	H 	0.77200 0.14100 0.75000 -0.02000
H 	H 	0.59400 0.17500 0.68600 0.35300
H 	H 	0.60200 0.15900 0.69200 -0.43700
H 	H 	0.52300 0.20900 0.66200 -0.25000
H 	H 	0.51200 0.16700 0.69600 0.44000
H 	H 	0.50600 0.16100 0.64200 0.06300
H 	H 	0.52900 0.19300 0.67800 0.85600
H 	H 	0.52300 0.15000 0.71200 0.10100
H 	H 	0.51000 0.14500 0.65900 0.49600
H 	H 	0.75800 0.12700 0.58300 -0.59900
H 	H 	0.81500 0.07700 0.56200 0.05700
H 	H 	0.80000 0.99800 0.55000 0.00100
H 	H 	0.72300 0.97400 0.56200 0.04200
H 	H 	0.66700 0.02500 0.58200 0.19500
H 	H 	0.75500 0.11200 0.57600 0.63600
H 	H 	0.80900 0.05600 0.56000 -0.13700
H 	H 	0.78900 0.97800 0.55300 0.05700
H 	H 	0.71000 0.96100 0.56600 -0.03600
H 	H 	0.65800 0.01700 0.58000 -0.34600
Ni	Ni	0.85080 0.86960 0.09940 -0.37600
Ni	Ni	0.82660 0.87810 0.09040 -0.84600
Ni	Ni	0.82690 0.89290 0.09410 1.56600
Ni	Ni	0.84660 0.88220 0.13010 0.60600
Ni	Ni	0.82560 0.85270 0.11300 0.85500
Ni	Ni	0.82000 0.87280 0.11230 -0.02700
Ni	Ni	0.86160 0.90340 0.10610 0.25700
O 	O 	0.81020 0.83440 0.14450 -0.33700
O 	O 	0.79700 0.84230 0.13870 -0.67400
O 	O 	0.79750 0.88120 0.20420 -0.06700
O 	O 	0.80900 0.87690 0.20970 -0.27700
C 	C 	0.78690 0.84570 0.18110 0.54700
C 	C 	0.74660 0.81900 0.19530 -0.32600
C 	C 	0.71970 0.83090 0.23260 0.25200
O 	O 	0.90880 0.82940 0.11780 -0.54900
O 	O 	0.87510 0.90990 0.15830 -0.02600
C 	C 	0.92460 0.84100 0.16320 -0.33000
C 	C 	0.91880 0.85620 0.17050 0.56900
C 	C 	0.97560 0.82440 0.16620 -0.66000
C 	C 	0.96900 0.84040 0.18100 -1.12000
N 	N 	0.79420 0.91810 0.08450 0.17100
C 	C 	0.75050 0.90570 0.07830 0.26200
C 	C 	0.71650 0.93530 0.06600 0.23700
C 	C 	0.72410 0.98070 0.05910 0.06900
C 	C 	0.76830 0.99340 0.06600 -0.22100
C 	C 	0.80170 0.96300 0.07800 -0.21400
N 	N 	0.79930 0.92940 0.08090 -0.59500
C 	C 	0.75480 0.92060 0.07400 -0.77100
C 	C 	0.72290 0.95320 0.06410 0.06800
C 	C 	0.73380 0.99840 0.06030 -0.06700
C 	C 	0.77890 0.00740 0.06740 0.15200
C 	C 	0.81000 0.97390 0.07670 0.40500
H 	H 	0.72800 0.85900 0.25000 -0.02000
H 	H 	0.90600 0.82500 0.18600 0.35300
H 	H 	0.89800 0.84100 0.19200 -0.43700
H 	H 	0.97700 0.79100 0.16200 -0.24900
H 	H 	0.98800 0.83300 0.19600 0.43800
H 	H 	0.99400 0.83900 0.14200 0.06300
H 	H 	0.97100 0.80700 0.17800 0.85300
H 	H 	0.97700 0.85000 0.21200 0.10000
H 	H 	0.99000 0.85500 0.15900 0.49400
H 	H 	0.74200 0.87300 0.08300 -0.59800
H 	H 	0.68500 0.92300 0.06200 0.05700
H 	H 	0.70000 0.00200 0.05000 0.00200
H 	H 	0.77700 0.02600 0.06200 0.04700
H 	H 	0.83300 0.97500 0.08200 0.19500
H 	H 	0.74500 0.88800 0.07600 0.63500
H 	H 	0.69100 0.94400 0.06000 -0.13800
H 	H 	0.71100 0.02200 0.05300 0.05700
H 	H 	0.79000 0.03900 0.06600 -0.03900
H 	H 	0.84200 0.98300 0.08000 -0.34600
Ni	Ni	0.35080 0.63040 0.90060 -0.37600
Ni	Ni	0.32660 0.62190 0.90960 -0.84700
Ni	Ni	0.32690 0.60710 0.90590 1.56700
Ni	Ni	0.34660 0.61780 0.86990 0.60600
Ni	Ni	0.32560 0.64730 0.88700 0.85500
Ni	Ni	0.32000 0.62720 0.88770 -0.02700
Ni	Ni	0.36160 0.59660 0.89390 0.25700
O 	O 	0.31020 0.66560 0.85550 -0.33700
O 	O 	0.29700 0.65770 0.86130 -0.67300
O 	O 	0.29750 0.61880 0.79580 -0.06700
O 	O 	0.30900 0.62310 0.79030 -0.27700
C 	C 	0.28690 0.65430 0.81890 0.54700
C 	C 	0.24660 0.68100 0.80470 -0.32600
C 	C 	0.21970 0.66910 0.76740 0.25200
O 	O 	0.40880 0.67060 0.88220 -0.55000
O 	O 	0.37510 0.59010 0.84170 -0.02600
C 	C 	0.42460 0.65900 0.83680 -0.32900
C 	C 	0.41880 0.64380 0.82950 0.57100
C 	C 	0.47560 0.67560 0.83380 -0.66300
C 	C 	0.46900 0.65960 0.81900 -1.12400
N 	N 	0.29420 0.58190 0.91550 0.17100
C 	C 	0.25050 0.59430 0.92170 0.26200
C 	C 	0.21650 0.56470 0.93400 0.23600
C 	C 	0.22410 0.51930 0.94090 0.07000
C 	C 	0.26830 0.50660 0.93400 -0.22100
C 	C 	0.30170 0.53700 0.92200 -0.21500
N 	N 	0.29930 0.57060 0.91910 -0.59500
C 	C 	0.25480 0.57940 0.92600 -0.77100
C 	C 	0.22290 0.54680 0.93590 0.06800
C 	C 	0.23380 0.50160 0.93970 -0.06700
C 	C 	0.27890 0.49260 0.93260 0.15300
C 	C 	0.31000 0.52610 0.92330 0.40500
H 	H 	0.22800 0.64100 0.75000 -0.02000
H 	H 	0.40600 0.67500 0.81400 0.35300
H 	H 	0.39800 0.65900 0.80800 -0.43700
H 	H 	0.47700 0.70900 0.83800 -0.24900
H 	H 	0.48800 0.66700 0.80400 0.43900
H 	H 	0.49400 0.66100 0.85800 0.06300
H 	H 	0.47100 0.69300 0.82200 0.85600
H 	H 	0.47700 0.65000 0.78800 0.10100
H 	H 	0.49000 0.64500 0.84100 0.49600
H 	H 	0.24200 0.62700 0.91700 -0.59900
H 	H 	0.18500 0.57700 0.93800 0.05700
H 	H 	0.20000 0.49800 0.95000 0.00100
H 	H 	0.27700 0.47400 0.93800 0.04500
H 	H 	0.33300 0.52500 0.91800 0.19500
H 	H 	0.24500 0.61200 0.92400 0.63600
H 	H 	0.19100 0.55600 0.94000 -0.13800
H 	H 	0.21100 0.47800 0.94700 0.05700
H 	H 	0.29000 0.46100 0.93400 -0.03800
H 	H 	0.34200 0.51700 0.92000 -0.34600
Ni	Ni	0.84940 0.11960 0.39920 -0.37600
Ni	Ni	0.84040 0.12810 0.42340 -0.84600
Ni	Ni	0.84410 0.14290 0.42310 1.56600
Ni	Ni	0.88010 0.13220 0.40340 0.60600
Ni	Ni	0.86300 0.10270 0.42440 0.85500
Ni	Ni	0.86230 0.12280 0.43000 -0.02700
Ni	Ni	0.85610 0.15340 0.38840 0.25700
O 	O 	0.89450 0.08440 0.43980 -0.33700
O 	O 	0.88870 0.09230 0.45300 -0.67400
O 	O 	0.95420 0.13120 0.45250 -0.06700
O 	O 	0.95970 0.12690 0.44100 -0.27700
C 	C 	0.93110 0.09570 0.46310 0.54700
C 	C 	0.94530 0.06900 0.50340 -0.32600
C 	C 	0.98260 0.08090 0.53030 0.25100
O 	O 	0.86780 0.07940 0.34120 -0.55000
O 	O 	0.90830 0.15990 0.37490 -0.02600
C 	C 	0.91320 0.09100 0.32540 -0.32900
C 	C 	0.92050 0.10620 0.33120 0.57100
C 	C 	0.91620 0.07440 0.27440 -0.66300
C 	C 	0.93100 0.09040 0.28100 -1.12500
N 	N 	0.83450 0.16810 0.45580 0.17100
C 	C 	0.82830 0.15570 0.49950 0.26200
C 	C 	0.81600 0.18530 0.53350 0.23600
C 	C 	0.80910 0.23070 0.52590 0.07000
C 	C 	0.81600 0.24340 0.48170 -0.22000
C 	C 	0.82800 0.21300 0.44830 -0.21500
N 	N 	0.83090 0.17940 0.45070 -0.59500
C 	C 	0.82400 0.17060 0.49520 -0.77100
C 	C 	0.81410 0.20320 0.52710 0.06800
C 	C 	0.81030 0.24840 0.51620 -0.06700
C 	C 	0.81740 0.25740 0.47110 0.15300
C 	C 	0.82670 0.22390 0.44000 0.40500
H 	H 	-0.00000 0.10900 0.52200 -0.02000
H 	H 	0.93600 0.07500 0.34400 0.35300
H 	H 	0.94200 0.09100 0.35200 -0.43700
H 	H 	0.91200 0.04100 0.27300 -0.25000
H 	H 	0.94600 0.08300 0.26200 0.44000
H 	H 	0.89200 0.08900 0.25600 0.06300
H 	H 	0.92800 0.05700 0.27900 0.85600
H 	H 	0.96200 0.10000 0.27300 0.10000
H 	H 	0.90900 0.10500 0.26000 0.49600
H 	H 	0.83300 0.12300 0.50800 -0.59900
H 	H 	0.81200 0.17300 0.56500 0.05700
H 	H 	0.80000 0.25200 0.55000 0.00100
H 	H 	0.81200 0.27600 0.47300 0.04500
H 	H 	0.83200 0.22500 0.41700 0.19500
H 	H 	0.82600 0.13800 0.50500 0.63500
H 	H 	0.81000 0.19400 0.55900 -0.13800
H 	H 	0.80300 0.27200 0.53900 0.05700
H 	H 	0.81600 0.28900 0.46000 -0.03700
H 	H 	0.83000 0.23300 0.40800 -0.34600
Ni	Ni	0.65060 0.88040 0.89920 -0.37600
Ni	Ni	0.65960 0.87190 0.92340 -0.84700
Ni	Ni	0.65590 0.85710 0.92310 1.56700
Ni	Ni	0.61990 0.86780 0.90340 0.60600
Ni	Ni	0.63700 0.89730 0.92440 0.85500
Ni	Ni	0.63770 0.87720 0.93000 -0.02800
Ni	Ni	0.64390 0.84660 0.88840 0.25700
O 	O 	0.60550 0.91560 0.93980 -0.33700
O 	O 	0.61130 0.90770 0.95300 -0.67300
O 	O 	0.54580 0.86880 0.95250 -0.06700
O 	O 	0.54030 0.87310 0.94100 -0.27700
C 	C 	0.56890 0.90430 0.96310 0.54600
C 	C 	0.55470 0.93100 0.00340 -0.32500
C 	C 	0.51740 0.91910 0.03030 0.25100
O 	O 	0.63220 0.92060 0.84120 -0.55000
O 	O 	0.59170 0.84010 0.87490 -0.02600
C 	C 	0.58680 0.90900 0.82540 -0.32900
C 	C 	0.57950 0.89380 0.83120 0.57100
C 	C 	0.58380 0.92560 0.77440 -0.66300
C 	C 	0.56900 0.90960 0.78100 -1.12500
N 	N 	0.66550 0.83190 0.95580 0.17000
C 	C 	0.67170 0.84430 0.99950 0.26200
C 	C 	0.68400 0.81470 0.03350 0.23400
C 	C 	0.69090 0.76930 0.02590 0.07200
C 	C 	0.68400 0.75660 0.98170 -0.22400
C 	C 	0.67200 0.78700 0.94830 -0.21400
N 	N 	0.66910 0.82060 0.95070 -0.59600
C 	C 	0.67600 0.82940 0.99520 -0.76900
C 	C 	0.68590 0.79680 0.02710 0.06800
C 	C 	0.68970 0.75160 0.01620 -0.06600
C 	C 	0.68260 0.74260 0.97110 0.15200
C 	C 	0.67330 0.77610 0.94000 0.40600
H 	H 	0.50000 0.89100 0.02200 -0.02000
H 	H 	0.56400 0.92500 0.84400 0.35300
H 	H 	0.55800 0.90900 0.85200 -0.43700
H 	H 	0.58800 0.95900 0.77300 -0.25000
H 	H 	0.55400 0.91700 0.76200 0.44000
H 	H 	0.60800 0.91100 0.75600 0.06300
H 	H 	0.57200 0.94300 0.77900 0.85600
H 	H 	0.53800 0.90000 0.77300 0.10100
H 	H 	0.59100 0.89500 0.76000 0.49600
H 	H 	0.66700 0.87700 0.00800 -0.59600
H 	H 	0.68800 0.82700 0.06500 0.05800
H 	H 	0.70000 0.74800 0.05000 0.00000
H 	H 	0.68800 0.72400 0.97300 0.05000
H 	H 	0.66800 0.77500 0.91700 0.19600
H 	H 	0.67400 0.86200 0.00500 0.63200
H 	H 	0.69000 0.80600 0.05900 -0.13700
H 	H 	0.69700 0.72800 0.03900 0.05700
H 	H 	0.68400 0.71100 0.96000 -0.04100
H 	H 	0.67000 0.76700 0.90800 -0.34800
Ni	Ni	0.15060 0.61960 0.10080 -0.37600
Ni	Ni	0.15960 0.62810 0.07660 -0.84600
Ni	Ni	0.15590 0.64290 0.07690 1.56600
Ni	Ni	0.11990 0.63220 0.09660 0.60600
Ni	Ni	0.13700 0.60270 0.07560 0.85500
Ni	Ni	0.13770 0.62280 0.07000 -0.02700
Ni	Ni	0.14390 0.65340 0.11160 0.25700
O 	O 	0.10550 0.58440 0.06020 -0.33700
O 	O 	0.11130 0.59230 0.04700 -0.67400
O 	O 	0.04580 0.63120 0.04750 -0.06700
O 	O 	0.04030 0.62690 0.05900 -0.27700
C 	C 	0.06890 0.59570 0.03690 0.54700
C 	C 	0.05470 0.56900 0.99660 -0.32600
C 	C 	0.01740 0.58090 0.96970 0.25100
O 	O 	0.13220 0.57940 0.15880 -0.54900
O 	O 	0.09170 0.65990 0.12510 -0.02600
C 	C 	0.08680 0.59100 0.17460 -0.33000
C 	C 	0.07950 0.60620 0.16880 0.57100
C 	C 	0.08380 0.57440 0.22560 -0.66200
C 	C 	0.06900 0.59040 0.21900 -1.12300
N 	N 	0.16550 0.66810 0.04420 0.17100
C 	C 	0.17170 0.65570 0.00050 0.26200
C 	C 	0.18400 0.68530 0.96650 0.23800
C 	C 	0.19090 0.73070 0.97410 0.06800
C 	C 	0.18400 0.74340 0.01830 -0.21700
C 	C 	0.17200 0.71300 0.05170 -0.21500
N 	N 	0.16910 0.67940 0.04930 -0.59500
C 	C 	0.17600 0.67060 0.00480 -0.77200
C 	C 	0.18590 0.70320 0.97290 0.06800
C 	C 	0.18970 0.74840 0.98380 -0.06800
C 	C 	0.18260 0.75740 0.02890 0.15400
C 	C 	0.17330 0.72390 0.06000 0.40500
H 	H 	0.00000 0.60900 0.97800 -0.02000
H 	H 	0.06400 0.57500 0.15600 0.35300
H 	H 	0.05800 0.59100 0.14800 -0.43700
H 	H 	0.08800 0.54100 0.22700 -0.24900
H 	H 	0.05400 0.58300 0.23800 0.43900
H 	H 	0.10800 0.58900 0.24400 0.06300
H 	H 	0.07200 0.55700 0.22100 0.85500
H 	H 	0.03800 0.60000 0.22700 0.10000
H 	H 	0.09100 0.60500 0.24000 0.49600
H 	H 	0.16700 0.62300 0.99200 -0.60100
H 	H 	0.18800 0.67300 0.93500 0.05700
H 	H 	0.20000 0.75200 0.95000 0.00200
H 	H 	0.18800 0.77600 0.02700 0.04000
H 	H 	0.16800 0.72500 0.08300 0.19400
H 	H 	0.17400 0.63800 0.99500 0.63800
H 	H 	0.19000 0.69400 0.94100 -0.13800
H 	H 	0.19700 0.77200 0.96100 0.05700
H 	H 	0.18400 0.78900 0.04000 -0.03400
H 	H 	0.17000 0.73300 0.09200 -0.34500
Ni	Ni	0.34940 0.38040 0.60080 -0.37600
Ni	Ni	0.34040 0.37190 0.57660 -0.84600
Ni	Ni	0.34410 0.35710 0.57690 1.56600
Ni	Ni	0.38010 0.36780 0.59660 0.60600
Ni	Ni	0.36300 0.39730 0.57560 0.85500
Ni	Ni	0.36230 0.37720 0.57000 -0.02700
Ni	Ni	0.35610 0.34660 0.61160 0.25700
O 	O 	0.39450 0.41560 0.56020 -0.33700
O 	O 	0.38870 0.40770 0.54700 -0.67300
O 	O 	0.45420 0.36880 0.54750 -0.06700
O 	O 	0.45970 0.37310 0.55900 -0.27700
C 	C 	0.43110 0.40430 0.53690 0.54700
C 	C 	0.44530 0.43100 0.49660 -0.32600
C 	C 	0.48260 0.41910 0.46970 0.25200
O 	O 	0.36780 0.42060 0.65880 -0.54900
O 	O 	0.40830 0.34010 0.62510 -0.02600
C 	C 	0.41320 0.40900 0.67460 -0.33000
C 	C 	0.42050 0.39380 0.66880 0.57100
C 	C 	0.41620 0.42560 0.72560 -0.66200
C 	C 	0.43100 0.40960 0.71900 -1.12300
N 	N 	0.33450 0.33190 0.54420 0.17100
C 	C 	0.32830 0.34430 0.50050 0.26200
C 	C 	0.31600 0.31470 0.46650 0.23600
C 	C 	0.30910 0.26930 0.47410 0.07000
C 	C 	0.31600 0.25660 0.51830 -0.22000
C 	C 	0.32800 0.28700 0.55170 -0.21500
N 	N 	0.33090 0.32060 0.54930 -0.59500
C 	C 	0.32400 0.32940 0.50480 -0.77100
C 	C 	0.31410 0.29680 0.47290 0.06800
C 	C 	0.31030 0.25160 0.48380 -0.06700
C 	C 	0.31740 0.24260 0.52890 0.15300
C 	C 	0.32670 0.27610 0.56000 0.40500
H 	H 	0.50000 0.39100 0.47800 -0.02000
H 	H 	0.43600 0.42500 0.65600 0.35300
H 	H 	0.44200 0.40900 0.64800 -0.43700
H 	H 	0.41200 0.45900 0.72700 -0.24900
H 	H 	0.44600 0.41700 0.73800 0.43900
H 	H 	0.39200 0.41100 0.74400 0.06300
H 	H 	0.42800 0.44300 0.72100 0.85500
H 	H 	0.46200 0.40000 0.72700 0.10000
H 	H 	0.40900 0.39500 0.74000 0.49600
H 	H 	0.33300 0.37700 0.49200 -0.59900
H 	H 	0.31200 0.32700 0.43500 0.05700
H 	H 	0.30000 0.24800 0.45000 0.00100
H 	H 	0.31200 0.22400 0.52700 0.04500
H 	H 	0.33200 0.27500 0.58300 0.19500
H 	H 	0.32600 0.36200 0.49500 0.63500
H 	H 	0.31000 0.30600 0.44100 -0.13800
H 	H 	0.30300 0.22800 0.46100 0.05700
H 	H 	0.31600 0.21100 0.54000 -0.03700
H 	H 	0.33000 0.26700 0.59200 -0.34600
Ni	Ni	0.39920 0.84940 0.11960 -0.37600
Ni	Ni	0.42340 0.84040 0.12810 -0.84600
Ni	Ni	0.42310 0.84410 0.14290 1.56600
Ni	Ni	0.40340 0.88010 0.13220 0.60600
Ni	Ni	0.42440 0.86300 0.10270 0.85500
Ni	Ni	0.43000 0.86230 0.12280 -0.02700
Ni	Ni	0.38840 0.85610 0.15340 0.25700
O 	O 	0.43980 0.89450 0.08440 -0.33700
O 	O 	0.45300 0.88870 0.09230 -0.67400
O 	O 	0.45250 0.95420 0.13120 -0.06700
O 	O 	0.44100 0.95970 0.12690 -0.27700
C 	C 	0.46310 0.93110 0.09570 0.54700
C 	C 	0.50340 0.94530 0.06900 -0.32600
C 	C 	0.53030 0.98260 0.08090 0.25100
O 	O 	0.34120 0.86780 0.07940 -0.55000
O 	O 	0.37490 0.90830 0.15990 -0.02600
C 	C 	0.32540 0.91320 0.09100 -0.32900
C 	C 	0.33120 0.92050 0.10620 0.57100
C 	C 	0.27440 0.91620 0.07440 -0.66300
C 	C 	0.28100 0.93100 0.09040 -1.12500
N 	N 	0.45580 0.83450 0.16810 0.17100
C 	C 	0.49950 0.82830 0.15570 0.26200
C 	C 	0.53350 0.81600 0.18530 0.23600
C 	C 	0.52590 0.80910 0.23070 0.07000
C 	C 	0.48170 0.81600 0.24340 -0.22000
C 	C 	0.44830 0.82800 0.21300 -0.21500
N 	N 	0.45070 0.83090 0.17940 -0.59500
C 	C 	0.49520 0.82400 0.17060 -0.77100
C 	C 	0.52710 0.81410 0.20320 0.06800
C 	C 	0.51620 0.81030 0.24840 -0.06700
C 	C 	0.47110 0.81740 0.25740 0.15300
C 	C 	0.44000 0.82670 0.22390 0.40500
H 	H 	0.52200 0.00000 0.10900 -0.02000
H 	H 	0.34400 0.93600 0.07500 0.35300
H 	H 	0.35200 0.94200 0.09100 -0.43700
H 	H 	0.27300 0.91200 0.04100 -0.25000
H 	H 	0.26200 0.94600 0.08300 0.44000
H 	H 	0.25600 0.89200 0.08900 0.06300
H 	H 	0.27900 0.92800 0.05700 0.85600
H 	H 	0.27300 0.96200 0.10000 0.10000
H 	H 	0.26000 0.90900 0.10500 0.49600
H 	H 	0.50800 0.83300 0.12300 -0.59900
H 	H 	0.56500 0.81200 0.17300 0.05700
H 	H 	0.55000 0.80000 0.25200 0.00100
H 	H 	0.47300 0.81200 0.27600 0.04500
H 	H 	0.41700 0.83200 0.22500 0.19500
H 	H 	0.50500 0.82600 0.13800 0.63500
H 	H 	0.55900 0.81000 0.19400 -0.13800
H 	H 	0.53900 0.80300 0.27200 0.05700
H 	H 	0.46000 0.81600 0.28900 -0.03700
H 	H 	0.40800 0.83000 0.23300 -0.34600
Ni	Ni	0.89920 0.65060 0.88040 -0.37600
Ni	Ni	0.92340 0.65960 0.87190 -0.84700
Ni	Ni	0.92310 0.65590 0.85710 1.56700
Ni	Ni	0.90340 0.61990 0.86780 0.60600
Ni	Ni	0.92440 0.63700 0.89730 0.85500
Ni	Ni	0.93000 0.63770 0.87720 -0.02800
Ni	Ni	0.88840 0.64390 0.84660 0.25700
O 	O 	0.93980 0.60550 0.91560 -0.33700
O 	O 	0.95300 0.61130 0.90770 -0.67300
O 	O 	0.95250 0.54580 0.86880 -0.06700
O 	O 	0.94100 0.54030 0.87310 -0.27700
C 	C 	0.96310 0.56890 0.90430 0.54600
C 	C 	0.00340 0.55470 0.93100 -0.32500
C 	C 	0.03030 0.51740 0.91910 0.25100
O 	O 	0.84120 0.63220 0.92060 -0.55000
O 	O 	0.87490 0.59170 0.84010 -0.02600
C 	C 	0.82540 0.58680 0.90900 -0.32900
C 	C 	0.83120 0.57950 0.89380 0.57100
C 	C 	0.77440 0.58380 0.92560 -0.66300
C 	C 	0.78100 0.56900 0.90960 -1.12500
N 	N 	0.95580 0.66550 0.83190 0.17000
C 	C 	0.99950 0.67170 0.84430 0.26200
C 	C 	0.03350 0.68400 0.81470 0.23400
C 	C 	0.02590 0.69090 0.76930 0.07200
C 	C 	0.98170 0.68400 0.75660 -0.22400
C 	C 	0.94830 0.67200 0.78700 -0.21400
N 	N 	0.95070 0.66910 0.82060 -0.59600
C 	C 	0.99520 0.67600 0.82940 -0.76900
C 	C 	0.02710 0.68590 0.79680 0.06800
C 	C 	0.01620 0.68970 0.75160 -0.06600
C 	C 	0.97110 0.68260 0.74260 0.15200
C 	C 	0.94000 0.67330 0.77610 0.40600
H 	H 	0.02200 0.50000 0.89100 -0.02000
H 	H 	0.84400 0.56400 0.92500 0.35300
H 	H 	0.85200 0.55800 0.90900 -0.43700
H 	H 	0.77300 0.58800 0.95900 -0.25000
H 	H 	0.76200 0.55400 0.91700 0.44000
H 	H 	0.75600 0.60800 0.91100 0.06300
H 	H 	0.77900 0.57200 0.94300 0.85600
H 	H 	0.77300 0.53800 0.90000 0.10100
H 	H 	0.76000 0.59100 0.89500 0.49600
H 	H 	0.00800 0.66700 0.87700 -0.59600
H 	H 	0.06500 0.68800 0.82700 0.05800
H 	H 	0.05000 0.70000 0.74800 0.00000
H 	H 	0.97300 0.68800 0.72400 0.05000
H 	H 	0.91700 0.66800 0.77500 0.19600
H 	H 	0.00500 0.67400 0.86200 0.63200
H 	H 	0.05900 0.69000 0.80600 -0.13700
H 	H 	0.03900 0.69700 0.72800 0.05700
H 	H 	0.96000 0.68400 0.71100 -0.04100
H 	H 	0.90800 0.67000 0.76700 -0.34800
Ni	Ni	0.10080 0.15060 0.61960 -0.37600
Ni	Ni	0.07660 0.15960 0.62810 -0.84600
Ni	Ni	0.07690 0.15590 0.64290 1.56600
Ni	Ni	0.09660 0.11990 0.63220 0.60600
Ni	Ni	0.07560 0.13700 0.60270 0.85500
Ni	Ni	0.07000 0.13770 0.62280 -0.02700
Ni	Ni	0.11160 0.14390 0.65340 0.25700
O 	O 	0.06020 0.10550 0.58440 -0.33700
O 	O 	0.04700 0.11130 0.59230 -0.67400
O 	O 	0.04750 0.04580 0.63120 -0.06700
O 	O 	0.05900 0.04030 0.62690 -0.27700
C 	C 	0.03690 0.06890 0.59570 0.54700
C 	C 	0.99660 0.05470 0.56900 -0.32600
C 	C 	0.96970 0.01740 0.58090 0.25100
O 	O 	0.15880 0.13220 0.57940 -0.54900
O 	O 	0.12510 0.09170 0.65990 -0.02600
C 	C 	0.17460 0.08680 0.59100 -0.33000
C 	C 	0.16880 0.07950 0.60620 0.57100
C 	C 	0.22560 0.08380 0.57440 -0.66200
C 	C 	0.21900 0.06900 0.59040 -1.12300
N 	N 	0.04420 0.16550 0.66810 0.17100
C 	C 	0.00050 0.17170 0.65570 0.26200
C 	C 	0.96650 0.18400 0.68530 0.23800
C 	C 	0.97410 0.19090 0.73070 0.06800
C 	C 	0.01830 0.18400 0.74340 -0.21700
C 	C 	0.05170 0.17200 0.71300 -0.21500
N 	N 	0.04930 0.16910 0.67940 -0.59500
C 	C 	0.00480 0.17600 0.67060 -0.77200
C 	C 	0.97290 0.18590 0.70320 0.06800
C 	C 	0.98380 0.18970 0.74840 -0.06800
C 	C 	0.02890 0.18260 0.75740 0.15400
C 	C 	0.06000 0.17330 0.72390 0.40500
H 	H 	0.97800 0.00000 0.60900 -0.02000
H 	H 	0.15600 0.06400 0.57500 0.35300
H 	H 	0.14800 0.05800 0.59100 -0.43700
H 	H 	0.22700 0.08800 0.54100 -0.24900
H 	H 	0.23800 0.05400 0.58300 0.43900
H 	H 	0.24400 0.10800 0.58900 0.06300
H 	H 	0.22100 0.07200 0.55700 0.85500
H 	H 	0.22700 0.03800 0.60000 0.10000
H 	H 	0.24000 0.09100 0.60500 0.49600
H 	H 	0.99200 0.16700 0.62300 -0.60100
H 	H 	0.93500 0.18800 0.67300 0.05700
H 	H 	0.95000 0.20000 0.75200 0.00200
H 	H 	0.02700 0.18800 0.77600 0.04000
H 	H 	0.08300 0.16800 0.72500 0.19400
H 	H 	0.99500 0.17400 0.63800 0.63800
H 	H 	0.94100 0.19000 0.69400 -0.13800
H 	H 	0.96100 0.19700 0.77200 0.05700
H 	H 	0.04000 0.18400 0.78900 -0.03400
H 	H 	0.09200 0.17000 0.73300 -0.34500
Ni	Ni	0.60080 0.34940 0.38040 -0.37600
Ni	Ni	0.57660 0.34040 0.37190 -0.84600
Ni	Ni	0.57690 0.34410 0.35710 1.56600
Ni	Ni	0.59660 0.38010 0.36780 0.60600
Ni	Ni	0.57560 0.36300 0.39730 0.85500
Ni	Ni	0.57000 0.36230 0.37720 -0.02700
Ni	Ni	0.61160 0.35610 0.34660 0.25700
O 	O 	0.56020 0.39450 0.41560 -0.33700
O 	O 	0.54700 0.38870 0.40770 -0.67300
O 	O 	0.54750 0.45420 0.36880 -0.06700
O 	O 	0.55900 0.45970 0.37310 -0.27700
C 	C 	0.53690 0.43110 0.40430 0.54700
C 	C 	0.49660 0.44530 0.43100 -0.32600
C 	C 	0.46970 0.48260 0.41910 0.25200
O 	O 	0.65880 0.36780 0.42060 -0.54900
O 	O 	0.62510 0.40830 0.34010 -0.02600
C 	C 	0.67460 0.41320 0.40900 -0.33000
C 	C 	0.66880 0.42050 0.39380 0.57100
C 	C 	0.72560 0.41620 0.42560 -0.66200
C 	C 	0.71900 0.43100 0.40960 -1.12300
N 	N 	0.54420 0.33450 0.33190 0.17100
C 	C 	0.50050 0.32830 0.34430 0.26200
C 	C 	0.46650 0.31600 0.31470 0.23600
C 	C 	0.47410 0.30910 0.26930 0.07000
C 	C 	0.51830 0.31600 0.25660 -0.22000
C 	C 	0.55170 0.32800 0.28700 -0.21500
N 	N 	0.54930 0.33090 0.32060 -0.59500
C 	C 	0.50480 0.32400 0.32940 -0.77100
C 	C 	0.47290 0.31410 0.29680 0.06800
C 	C 	0.48380 0.31030 0.25160 -0.06700
C 	C 	0.52890 0.31740 0.24260 0.15300
C 	C 	0.56000 0.32670 0.27610 0.40500
H 	H 	0.47800 0.50000 0.39100 -0.02000
H 	H 	0.65600 0.43600 0.42500 0.35300
H 	H 	0.64800 0.44200 0.40900 -0.43700
H 	H 	0.72700 0.41200 0.45900 -0.24900
H 	H 	0.73800 0.44600 0.41700 0.43900
H 	H 	0.74400 0.39200 0.41100 0.06300
H 	H 	0.72100 0.42800 0.44300 0.85500
H 	H 	0.72700 0.46200 0.40000 0.10000
H 	H 	0.74000 0.40900 0.39500 0.49600
H 	H 	0.49200 0.33300 0.37700 -0.59900
H 	H 	0.43500 0.31200 0.32700 0.05700
H 	H 	0.45000 0.30000 0.24800 0.00100
H 	H 	0.52700 0.31200 0.22400 0.04500
H 	H 	0.58300 0.33200 0.27500 0.19500
H 	H 	0.49500 0.32600 0.36200 0.63500
H 	H 	0.44100 0.31000 0.30600 -0.13800
H 	H 	0.46100 0.30300 0.22800 0.05700
H 	H 	0.54000 0.31600 0.21100 -0.03700
H 	H 	0.59200 0.33000 0.26700 -0.34600
Ni	Ni	0.11960 0.39920 0.84940 -0.37600
Ni	Ni	0.12810 0.42340 0.84040 -0.84600
Ni	Ni	0.14290 0.42310 0.84410 1.56600
Ni	Ni	0.13220 0.40340 0.88010 0.60600
Ni	Ni	0.10270 0.42440 0.86300 0.85500
Ni	Ni	0.12280 0.43000 0.86230 -0.02700
Ni	Ni	0.15340 0.38840 0.85610 0.25700
O 	O 	0.08440 0.43980 0.89450 -0.33700
O 	O 	0.09230 0.45300 0.88870 -0.67400
O 	O 	0.13120 0.45250 0.95420 -0.06700
O 	O 	0.12690 0.44100 0.95970 -0.27700
C 	C 	0.09570 0.46310 0.93110 0.54700
C 	C 	0.06900 0.50340 0.94530 -0.32600
C 	C 	0.08090 0.53030 0.98260 0.25100
O 	O 	0.07940 0.34120 0.86780 -0.55000
O 	O 	0.15990 0.37490 0.90830 -0.02600
C 	C 	0.09100 0.32540 0.91320 -0.32900
C 	C 	0.10620 0.33120 0.92050 0.57100
C 	C 	0.07440 0.27440 0.91620 -0.66300
C 	C 	0.09040 0.28100 0.93100 -1.12500
N 	N 	0.16810 0.45580 0.83450 0.17100
C 	C 	0.15570 0.49950 0.82830 0.26200
C 	C 	0.18530 0.53350 0.81600 0.23600
C 	C 	0.23070 0.52590 0.80910 0.07000
C 	C 	0.24340 0.48170 0.81600 -0.22000
C 	C 	0.21300 0.44830 0.82800 -0.21500
N 	N 	0.17940 0.45070 0.83090 -0.59500
C 	C 	0.17060 0.49520 0.82400 -0.77100
C 	C 	0.20320 0.52710 0.81410 0.06800
C 	C 	0.24840 0.51620 0.81030 -0.06700
C 	C 	0.25740 0.47110 0.81740 0.15300
C 	C 	0.22390 0.44000 0.82670 0.40500
H 	H 	0.10900 0.52200 -0.00000 -0.02000
H 	H 	0.07500 0.34400 0.93600 0.35300
H 	H 	0.09100 0.35200 0.94200 -0.43700
H 	H 	0.04100 0.27300 0.91200 -0.25000
H 	H 	0.08300 0.26200 0.94600 0.44000
H 	H 	0.08900 0.25600 0.89200 0.06300
H 	H 	0.05700 0.27900 0.92800 0.85600
H 	H 	0.10000 0.27300 0.96200 0.10000
H 	H 	0.10500 0.26000 0.90900 0.49600
H 	H 	0.12300 0.50800 0.83300 -0.59900
H 	H 	0.17300 0.56500 0.81200 0.05700
H 	H 	0.25200 0.55000 0.80000 0.00100
H 	H 	0.27600 0.47300 0.81200 0.04500
H 	H 	0.22500 0.41700 0.83200 0.19500
H 	H 	0.13800 0.50500 0.82600 0.63500
H 	H 	0.19400 0.55900 0.81000 -0.13800
H 	H 	0.27200 0.53900 0.80300 0.05700
H 	H 	0.28900 0.46000 0.81600 -0.03700
H 	H 	0.23300 0.40800 0.83000 -0.34600
Ni	Ni	0.88040 0.89920 0.65060 -0.37600
Ni	Ni	0.87190 0.92340 0.65960 -0.84700
Ni	Ni	0.85710 0.92310 0.65590 1.56700
Ni	Ni	0.86780 0.90340 0.61990 0.60600
Ni	Ni	0.89730 0.92440 0.63700 0.85500
Ni	Ni	0.87720 0.93000 0.63770 -0.02800
Ni	Ni	0.84660 0.88840 0.64390 0.25700
O 	O 	0.91560 0.93980 0.60550 -0.33700
O 	O 	0.90770 0.95300 0.61130 -0.67300
O 	O 	0.86880 0.95250 0.54580 -0.06700
O 	O 	0.87310 0.94100 0.54030 -0.27700
C 	C 	0.90430 0.96310 0.56890 0.54600
C 	C 	0.93100 0.00340 0.55470 -0.32500
C 	C 	0.91910 0.03030 0.51740 0.25100
O 	O 	0.92060 0.84120 0.63220 -0.55000
O 	O 	0.84010 0.87490 0.59170 -0.02600
C 	C 	0.90900 0.82540 0.58680 -0.32900
C 	C 	0.89380 0.83120 0.57950 0.57100
C 	C 	0.92560 0.77440 0.58380 -0.66300
C 	C 	0.90960 0.78100 0.56900 -1.12500
N 	N 	0.83190 0.95580 0.66550 0.17000
C 	C 	0.84430 0.99950 0.67170 0.26200
C 	C 	0.81470 0.03350 0.68400 0.23400
C 	C 	0.76930 0.02590 0.69090 0.07200
C 	C 	0.75660 0.98170 0.68400 -0.22400
C 	C 	0.78700 0.94830 0.67200 -0.21400
N 	N 	0.82060 0.95070 0.66910 -0.59600
C 	C 	0.82940 0.99520 0.67600 -0.76900
C 	C 	0.79680 0.02710 0.68590 0.06800
C 	C 	0.75160 0.01620 0.68970 -0.06600
C 	C 	0.74260 0.97110 0.68260 0.15200
C 	C 	0.77610 0.94000 0.67330 0.40600
H 	H 	0.89100 0.02200 0.50000 -0.02000
H 	H 	0.92500 0.84400 0.56400 0.35300
H 	H 	0.90900 0.85200 0.55800 -0.43700
H 	H 	0.95900 0.77300 0.58800 -0.25000
H 	H 	0.91700 0.76200 0.55400 0.44000
H 	H 	0.91100 0.75600 0.60800 0.06300
H 	H 	0.94300 0.77900 0.57200 0.85600
H 	H 	0.90000 0.77300 0.53800 0.10100
H 	H 	0.89500 0.76000 0.59100 0.49600
H 	H 	0.87700 0.00800 0.66700 -0.59600
H 	H 	0.82700 0.06500 0.68800 0.05800
H 	H 	0.74800 0.05000 0.70000 0.00000
H 	H 	0.72400 0.97300 0.68800 0.05000
H 	H 	0.77500 0.91700 0.66800 0.19600
H 	H 	0.86200 0.00500 0.67400 0.63200
H 	H 	0.80600 0.05900 0.69000 -0.13700
H 	H 	0.72800 0.03900 0.69700 0.05700
H 	H 	0.71100 0.96000 0.68400 -0.04100
H 	H 	0.76700 0.90800 0.67000 -0.34800
Ni	Ni	0.61960 0.10080 0.15060 -0.37600
Ni	Ni	0.62810 0.07660 0.15960 -0.84600
Ni	Ni	0.64290 0.07690 0.15590 1.56600
Ni	Ni	0.63220 0.09660 0.11990 0.60600
Ni	Ni	0.60270 0.07560 0.13700 0.85500
Ni	Ni	0.62280 0.07000 0.13770 -0.02700
Ni	Ni	0.65340 0.11160 0.14390 0.25700
O 	O 	0.58440 0.06020 0.10550 -0.33700
O 	O 	0.59230 0.04700 0.11130 -0.67400
O 	O 	0.63120 0.04750 0.04580 -0.06700
O 	O 	0.62690 0.05900 0.04030 -0.27700
C 	C 	0.59570 0.03690 0.06890 0.54700
C 	C 	0.56900 0.99660 0.05470 -0.32600
C 	C 	0.58090 0.96970 0.01740 0.25100
O 	O 	0.57940 0.15880 0.13220 -0.54900
O 	O 	0.65990 0.12510 0.09170 -0.02600
C 	C 	0.59100 0.17460 0.08680 -0.33000
C 	C 	0.60620 0.16880 0.07950 0.57100
C 	C 	0.57440 0.22560 0.08380 -0.66200
C 	C 	0.59040 0.21900 0.06900 -1.12300
N 	N 	0.66810 0.04420 0.16550 0.17100
C 	C 	0.65570 0.00050 0.17170 0.26200
C 	C 	0.68530 0.96650 0.18400 0.23800
C 	C 	0.73070 0.97410 0.19090 0.06800
C 	C 	0.74340 0.01830 0.18400 -0.21700
C 	C 	0.71300 0.05170 0.17200 -0.21500
N 	N 	0.67940 0.04930 0.16910 -0.59500
C 	C 	0.67060 0.00480 0.17600 -0.77200
C 	C 	0.70320 0.97290 0.18590 0.06800
C 	C 	0.74840 0.98380 0.18970 -0.06800
C 	C 	0.75740 0.02890 0.18260 0.15400
C 	C 	0.72390 0.06000 0.17330 0.40500
H 	H 	0.60900 0.97800 -0.00000 -0.02000
H 	H 	0.57500 0.15600 0.06400 0.35300
H 	H 	0.59100 0.14800 0.05800 -0.43700
H 	H 	0.54100 0.22700 0.08800 -0.24900
H 	H 	0.58300 0.23800 0.05400 0.43900
H 	H 	0.58900 0.24400 0.10800 0.06300
H 	H 	0.55700 0.22100 0.07200 0.85500
H 	H 	0.60000 0.22700 0.03800 0.10000
H 	H 	0.60500 0.24000 0.09100 0.49600
H 	H 	0.62300 0.99200 0.16700 -0.60100
H 	H 	0.67300 0.93500 0.18800 0.05700
H 	H 	0.75200 0.95000 0.20000 0.00200
H 	H 	0.77600 0.02700 0.18800 0.04000
H 	H 	0.72500 0.08300 0.16800 0.19400
H 	H 	0.63800 0.99500 0.17400 0.63800
H 	H 	0.69400 0.94100 0.19000 -0.13800
H 	H 	0.77200 0.96100 0.19700 0.05700
H 	H 	0.78900 0.04000 0.18400 -0.03400
H 	H 	0.73300 0.09200 0.17000 -0.34500
Ni	Ni	0.38040 0.60080 0.34940 -0.37600
Ni	Ni	0.37190 0.57660 0.34040 -0.84600
Ni	Ni	0.35710 0.57690 0.34410 1.56600
Ni	Ni	0.36780 0.59660 0.38010 0.60600
Ni	Ni	0.39730 0.57560 0.36300 0.85500
Ni	Ni	0.37720 0.57000 0.36230 -0.02700
Ni	Ni	0.34660 0.61160 0.35610 0.25700
O 	O 	0.41560 0.56020 0.39450 -0.33700
O 	O 	0.40770 0.54700 0.38870 -0.67300
O 	O 	0.36880 0.54750 0.45420 -0.06700
O 	O 	0.37310 0.55900 0.45970 -0.27700
C 	C 	0.40430 0.53690 0.43110 0.54700
C 	C 	0.43100 0.49660 0.44530 -0.32600
C 	C 	0.41910 0.46970 0.48260 0.25200
O 	O 	0.42060 0.65880 0.36780 -0.54900
O 	O 	0.34010 0.62510 0.40830 -0.02600
C 	C 	0.40900 0.67460 0.41320 -0.33000
C 	C 	0.39380 0.66880 0.42050 0.57100
C 	C 	0.42560 0.72560 0.41620 -0.66200
C 	C 	0.40960 0.71900 0.43100 -1.12300
N 	N 	0.33190 0.54420 0.33450 0.17100
C 	C 	0.34430 0.50050 0.32830 0.26200
C 	C 	0.31470 0.46650 0.31600 0.23600
C 	C 	0.26930 0.47410 0.30910 0.07000
C 	C 	0.25660 0.51830 0.31600 -0.22000
C 	C 	0.28700 0.55170 0.32800 -0.21500
N 	N 	0.32060 0.54930 0.33090 -0.59500
C 	C 	0.32940 0.50480 0.32400 -0.77100
C 	C 	0.29680 0.47290 0.31410 0.06800
C 	C 	0.25160 0.48380 0.31030 -0.06700
C 	C 	0.24260 0.52890 0.31740 0.15300
C 	C 	0.27610 0.56000 0.32670 0.40500
H 	H 	0.39100 0.47800 0.50000 -0.02000
H 	H 	0.42500 0.65600 0.43600 0.35300
H 	H 	0.40900 0.64800 0.44200 -0.43700
H 	H 	0.45900 0.72700 0.41200 -0.24900
H 	H 	0.41700 0.73800 0.44600 0.43900
H 	H 	0.41100 0.74400 0.39200 0.06300
H 	H 	0.44300 0.72100 0.42800 0.85500
H 	H 	0.40000 0.72700 0.46200 0.10000
H 	H 	0.39500 0.74000 0.40900 0.49600
H 	H 	0.37700 0.49200 0.33300 -0.59900
H 	H 	0.32700 0.43500 0.31200 0.05700
H 	H 	0.24800 0.45000 0.30000 0.00100
H 	H 	0.22400 0.52700 0.31200 0.04500
H 	H 	0.27500 0.58300 0.33200 0.19500
H 	H 	0.36200 0.49500 0.32600 0.63500
H 	H 	0.30600 0.44100 0.31000 -0.13800
H 	H 	0.22800 0.46100 0.30300 0.05700
H 	H 	0.21100 0.54000 0.31600 -0.03700
H 	H 	0.26700 0.59200 0.33000 -0.34600
Ni	Ni	0.36960 0.59940 0.35080 -0.37600
Ni	Ni	0.37810 0.59040 0.32660 -0.84600
Ni	Ni	0.39290 0.59410 0.32690 1.56600
Ni	Ni	0.38220 0.63010 0.34660 0.60600
Ni	Ni	0.35270 0.61300 0.32560 0.85500
Ni	Ni	0.37280 0.61230 0.32000 -0.02700
Ni	Ni	0.40340 0.60610 0.36160 0.25700
O 	O 	0.33440 0.64450 0.31020 -0.33700
O 	O 	0.34230 0.63870 0.29700 -0.67300
O 	O 	0.38120 0.70420 0.29750 -0.06700
O 	O 	0.37690 0.70970 0.30900 -0.27700
C 	C 	0.34570 0.68110 0.28690 0.54700
C 	C 	0.31900 0.69530 0.24660 -0.32600
C 	C 	0.33090 0.73260 0.21970 0.25200
O 	O 	0.32940 0.61780 0.40880 -0.55000
O 	O 	0.40990 0.65830 0.37510 -0.02600
C 	C 	0.34100 0.66320 0.42460 -0.32900
C 	C 	0.35620 0.67050 0.41880 0.57100
C 	C 	0.32440 0.66620 0.47560 -0.66300
C 	C 	0.34040 0.68100 0.46900 -1.12400
N 	N 	0.41810 0.58450 0.29420 0.17100
C 	C 	0.40570 0.57830 0.25050 0.26200
C 	C 	0.43530 0.56600 0.21650 0.23600
C 	C 	0.48070 0.55910 0.22410 0.07000
C 	C 	0.49340 0.56600 0.26830 -0.22000
C 	C 	0.46300 0.57800 0.30170 -0.21500
N 	N 	0.42940 0.58090 0.29930 -0.59500
C 	C 	0.42060 0.57400 0.25480 -0.77100
C 	C 	0.45320 0.56410 0.22290 0.06800
C 	C 	0.49840 0.56030 0.23380 -0.06700
C 	C 	0.50740 0.56740 0.27890 0.15300
C 	C 	0.47390 0.57670 0.31000 0.40500
H 	H 	0.35900 0.75000 0.22800 -0.02000
H 	H 	0.32500 0.68600 0.40600 0.35300
H 	H 	0.34100 0.69200 0.39800 -0.43700
H 	H 	0.29100 0.66200 0.47700 -0.24900
H 	H 	0.33300 0.69600 0.48800 0.43900
H 	H 	0.33900 0.64200 0.49400 0.06300
H 	H 	0.30700 0.67800 0.47100 0.85600
H 	H 	0.35000 0.71200 0.47700 0.10000
H 	H 	0.35500 0.65900 0.49000 0.49600
H 	H 	0.37300 0.58300 0.24200 -0.59900
H 	H 	0.42300 0.56200 0.18500 0.05700
H 	H 	0.50200 0.55000 0.20000 0.00100
H 	H 	0.52600 0.56200 0.27700 0.04500
H 	H 	0.47500 0.58200 0.33300 0.19500
H 	H 	0.38800 0.57600 0.24500 0.63500
H 	H 	0.44400 0.56000 0.19100 -0.13800
H 	H 	0.52200 0.55300 0.21100 0.05700
H 	H 	0.53900 0.56600 0.29000 -0.03700
H 	H 	0.48300 0.58000 0.34200 -0.34600
Ni	Ni	0.13040 0.40060 0.85080 -0.37600
Ni	Ni	0.12190 0.40960 0.82660 -0.84600
Ni	Ni	0.10710 0.40590 0.82690 1.56600
Ni	Ni	0.11780 0.36990 0.84660 0.60600
Ni	Ni	0.14730 0.38700 0.82560 0.85500
Ni	Ni	0.12720 0.38770 0.82000 -0.02700
Ni	Ni	0.09660 0.39390 0.86160 0.25700
O 	O 	0.16560 0.35550 0.81020 -0.33700
O 	O 	0.15770 0.36130 0.79700 -0.67400
O 	O 	0.11880 0.29580 0.79750 -0.06700
O 	O 	0.12310 0.29030 0.80900 -0.27700
C 	C 	0.15430 0.31890 0.78690 0.54700
C 	C 	0.18100 0.30470 0.74660 -0.32600
C 	C 	0.16910 0.26740 0.71970 0.25200
O 	O 	0.17060 0.38220 0.90880 -0.54900
O 	O 	0.09010 0.34170 0.87510 -0.02600
C 	C 	0.15900 0.33680 0.92460 -0.33000
C 	C 	0.14380 0.32950 0.91880 0.57000
C 	C 	0.17560 0.33380 0.97560 -0.66100
C 	C 	0.15960 0.31900 0.96900 -1.12200
N 	N 	0.08190 0.41550 0.79420 0.17100
C 	C 	0.09430 0.42170 0.75050 0.26200
C 	C 	0.06470 0.43400 0.71650 0.23600
C 	C 	0.01930 0.44090 0.72410 0.07000
C 	C 	0.00660 0.43400 0.76830 -0.22000
C 	C 	0.03700 0.42200 0.80170 -0.21500
N 	N 	0.07060 0.41910 0.79930 -0.59500
C 	C 	0.07940 0.42600 0.75480 -0.77100
C 	C 	0.04680 0.43590 0.72290 0.06900
C 	C 	0.00160 0.43970 0.73380 -0.06700
C 	C 	0.99260 0.43260 0.77890 0.15400
C 	C 	0.02610 0.42330 0.81000 0.40500
H 	H 	0.14100 0.25000 0.72800 -0.02000
H 	H 	0.17500 0.31400 0.90600 0.35300
H 	H 	0.15900 0.30800 0.89800 -0.43700
H 	H 	0.20900 0.33800 0.97700 -0.24900
H 	H 	0.16700 0.30400 0.98800 0.43800
H 	H 	0.16100 0.35800 0.99400 0.06300
H 	H 	0.19300 0.32200 0.97100 0.85400
H 	H 	0.15000 0.28800 0.97700 0.10000
H 	H 	0.14500 0.34100 0.99000 0.49500
H 	H 	0.12700 0.41700 0.74200 -0.59900
H 	H 	0.07700 0.43800 0.68500 0.05700
H 	H 	0.99800 0.45000 0.70000 0.00100
H 	H 	0.97400 0.43800 0.77700 0.04200
H 	H 	0.02500 0.41800 0.83300 0.19500
H 	H 	0.11200 0.42400 0.74500 0.63600
H 	H 	0.05600 0.44000 0.69100 -0.13700
H 	H 	0.97800 0.44700 0.71100 0.05700
H 	H 	0.96100 0.43400 0.79000 -0.03600
H 	H 	0.01700 0.42000 0.84200 -0.34600
Ni	Ni	0.86960 0.90060 0.64920 -0.37600
Ni	Ni	0.87810 0.90960 0.67340 -0.84700
Ni	Ni	0.89290 0.90590 0.67310 1.56700
Ni	Ni	0.88220 0.86990 0.65340 0.60600
Ni	Ni	0.85270 0.88700 0.67440 0.85500
Ni	Ni	0.87280 0.88770 0.68000 -0.02700
Ni	Ni	0.90340 0.89390 0.63840 0.25700
O 	O 	0.83440 0.85550 0.68980 -0.33700
O 	O 	0.84230 0.86130 0.70300 -0.67300
O 	O 	0.88120 0.79580 0.70250 -0.06700
O 	O 	0.87690 0.79030 0.69100 -0.27700
C 	C 	0.84570 0.81890 0.71310 0.54700
C 	C 	0.81900 0.80470 0.75340 -0.32600
C 	C 	0.83090 0.76740 0.78030 0.25200
O 	O 	0.82940 0.88220 0.59120 -0.54900
O 	O 	0.90990 0.84170 0.62490 -0.02600
C 	C 	0.84100 0.83680 0.57540 -0.33000
C 	C 	0.85620 0.82950 0.58120 0.57000
C 	C 	0.82440 0.83380 0.52440 -0.66200
C 	C 	0.84040 0.81900 0.53100 -1.12200
N 	N 	0.91810 0.91550 0.70580 0.17000
C 	C 	0.90570 0.92170 0.74950 0.26200
C 	C 	0.93530 0.93400 0.78350 0.23700
C 	C 	0.98070 0.94090 0.77590 0.07000
C 	C 	0.99340 0.93400 0.73170 -0.22200
C 	C 	0.96300 0.92200 0.69830 -0.21400
N 	N 	0.92940 0.91910 0.70070 -0.59500
C 	C 	0.92060 0.92600 0.74520 -0.77100
C 	C 	0.95320 0.93590 0.77710 0.06800
C 	C 	0.99840 0.93970 0.76620 -0.06700
C 	C 	0.00740 0.93260 0.72110 0.15200
C 	C 	0.97390 0.92330 0.69000 0.40600
H 	H 	0.85900 0.75000 0.77200 -0.02000
H 	H 	0.82500 0.81400 0.59400 0.35300
H 	H 	0.84100 0.80800 0.60200 -0.43700
H 	H 	0.79100 0.83800 0.52300 -0.24900
H 	H 	0.83300 0.80400 0.51200 0.43900
H 	H 	0.83900 0.85800 0.50600 0.06300
H 	H 	0.80700 0.82200 0.52900 0.85500
H 	H 	0.85000 0.78800 0.52300 0.10000
H 	H 	0.85500 0.84100 0.51000 0.49500
H 	H 	0.87300 0.91700 0.75800 -0.59900
H 	H 	0.92300 0.93800 0.81500 0.05700
H 	H 	0.00200 0.95000 0.80000 0.00200
H 	H 	0.02600 0.93800 0.72300 0.04800
H 	H 	0.97500 0.91800 0.66700 0.19500
H 	H 	0.88800 0.92400 0.75500 0.63500
H 	H 	0.94400 0.94000 0.80900 -0.13800
H 	H 	0.02200 0.94700 0.78900 0.05700
H 	H 	0.03900 0.93400 0.71000 -0.04000
H 	H 	0.98300 0.92000 0.65800 -0.34700
Ni	Ni	0.63040 0.09940 0.14920 -0.37600
Ni	Ni	0.62190 0.09040 0.17340 -0.84600
Ni	Ni	0.60710 0.09410 0.17310 1.56600
Ni	Ni	0.61780 0.13010 0.15340 0.60600
Ni	Ni	0.64730 0.11300 0.17440 0.85500
Ni	Ni	0.62720 0.11230 0.18000 -0.02700
Ni	Ni	0.59660 0.10610 0.13840 0.25700
O 	O 	0.66560 0.14450 0.18980 -0.33700
O 	O 	0.65770 0.13870 0.20300 -0.67400
O 	O 	0.61880 0.20420 0.20250 -0.06700
O 	O 	0.62310 0.20970 0.19100 -0.27700
C 	C 	0.65430 0.18110 0.21310 0.54700
C 	C 	0.68100 0.19530 0.25340 -0.32600
C 	C 	0.66910 0.23260 0.28030 0.25200
O 	O 	0.67060 0.11780 0.09120 -0.55000
O 	O 	0.59010 0.15830 0.12490 -0.02600
C 	C 	0.65900 0.16320 0.07540 -0.32900
C 	C 	0.64380 0.17050 0.08120 0.57100
C 	C 	0.67560 0.16620 0.02440 -0.66300
C 	C 	0.65960 0.18100 0.03100 -1.12500
N 	N 	0.58190 0.08450 0.20580 0.17100
C 	C 	0.59430 0.07830 0.24950 0.26200
C 	C 	0.56470 0.06600 0.28350 0.23600
C 	C 	0.51930 0.05910 0.27590 0.07000
C 	C 	0.50660 0.06600 0.23170 -0.22000
C 	C 	0.53700 0.07800 0.19830 -0.21500
N 	N 	0.57060 0.08090 0.20070 -0.59500
C 	C 	0.57940 0.07400 0.24520 -0.77100
C 	C 	0.54680 0.06410 0.27710 0.06800
C 	C 	0.50160 0.06030 0.26620 -0.06700
C 	C 	0.49260 0.06740 0.22110 0.15300
C 	C 	0.52610 0.07670 0.19000 0.40500
H 	H 	0.64100 0.25000 0.27200 -0.02000
H 	H 	0.67500 0.18600 0.09400 0.35300
H 	H 	0.65900 0.19200 0.10200 -0.43700
H 	H 	0.70900 0.16200 0.02300 -0.24900
H 	H 	0.66700 0.19600 0.01200 0.44000
H 	H 	0.66100 0.14200 0.00600 0.06300
H 	H 	0.69300 0.17800 0.02900 0.85600
H 	H 	0.65000 0.21200 0.02300 0.10100
H 	H 	0.64500 0.15900 0.01000 0.49600
H 	H 	0.62700 0.08300 0.25800 -0.59800
H 	H 	0.57700 0.06200 0.31500 0.05700
H 	H 	0.49800 0.05000 0.30000 0.00100
H 	H 	0.47400 0.06200 0.22300 0.04400
H 	H 	0.52500 0.08200 0.16700 0.19500
H 	H 	0.61200 0.07600 0.25500 0.63500
H 	H 	0.55600 0.06000 0.30900 -0.13700
H 	H 	0.47800 0.05300 0.28900 0.05700
H 	H 	0.46100 0.06600 0.21000 -0.03700
H 	H 	0.51700 0.08000 0.15800 -0.34600
Ni	Ni	0.09940 0.14920 0.63040 -0.37600
Ni	Ni	0.09040 0.17340 0.62190 -0.84600
Ni	Ni	0.09410 0.17310 0.60710 1.56600
Ni	Ni	0.13010 0.15340 0.61780 0.60600
Ni	Ni	0.11300 0.17440 0.64730 0.85500
Ni	Ni	0.11230 0.18000 0.62720 -0.02700
Ni	Ni	0.10610 0.13840 0.59660 0.25700
O 	O 	0.14450 0.18980 0.66560 -0.33700
O 	O 	0.13870 0.20300 0.65770 -0.67400
O 	O 	0.20420 0.20250 0.61880 -0.06700
O 	O 	0.20970 0.19100 0.62310 -0.27700
C 	C 	0.18110 0.21310 0.65430 0.54700
C 	C 	0.19530 0.25340 0.68100 -0.32600
C 	C 	0.23260 0.28030 0.66910 0.25200
O 	O 	0.11780 0.09120 0.67060 -0.55000
O 	O 	0.15830 0.12490 0.59010 -0.02600
C 	C 	0.16320 0.07540 0.65900 -0.32900
C 	C 	0.17050 0.08120 0.64380 0.57100
C 	C 	0.16620 0.02440 0.67560 -0.66300
C 	C 	0.18100 0.03100 0.65960 -1.12500
N 	N 	0.08450 0.20580 0.58190 0.17100
C 	C 	0.07830 0.24950 0.59430 0.26200
C 	C 	0.06600 0.28350 0.56470 0.23600
C 	C 	0.05910 0.27590 0.51930 0.07000
C 	C 	0.06600 0.23170 0.50660 -0.22000
C 	C 	0.07800 0.19830 0.53700 -0.21500
N 	N 	0.08090 0.20070 0.57060 -0.59500
C 	C 	0.07400 0.24520 0.57940 -0.77100
C 	C 	0.06410 0.27710 0.54680 0.06800
C 	C 	0.06030 0.26620 0.50160 -0.06700
C 	C 	0.06740 0.22110 0.49260 0.15300
C 	C 	0.07670 0.19000 0.52610 0.40500
H 	H 	0.25000 0.27200 0.64100 -0.02000
H 	H 	0.18600 0.09400 0.67500 0.35300
H 	H 	0.19200 0.10200 0.65900 -0.43700
H 	H 	0.16200 0.02300 0.70900 -0.24900
H 	H 	0.19600 0.01200 0.66700 0.44000
H 	H 	0.14200 0.00600 0.66100 0.06300
H 	H 	0.17800 0.02900 0.69300 0.85600
H 	H 	0.21200 0.02300 0.65000 0.10100
H 	H 	0.15900 0.01000 0.64500 0.49600
H 	H 	0.08300 0.25800 0.62700 -0.59800
H 	H 	0.06200 0.31500 0.57700 0.05700
H 	H 	0.05000 0.30000 0.49800 0.00100
H 	H 	0.06200 0.22300 0.47400 0.04400
H 	H 	0.08200 0.16700 0.52500 0.19500
H 	H 	0.07600 0.25500 0.61200 0.63500
H 	H 	0.06000 0.30900 0.55600 -0.13700
H 	H 	0.05300 0.28900 0.47800 0.05700
H 	H 	0.06600 0.21000 0.46100 -0.03700
H 	H 	0.08000 0.15800 0.51700 -0.34600
Ni	Ni	0.90060 0.64920 0.86960 -0.37600
Ni	Ni	0.90960 0.67340 0.87810 -0.84700
Ni	Ni	0.90590 0.67310 0.89290 1.56700
Ni	Ni	0.86990 0.65340 0.88220 0.60600
Ni	Ni	0.88700 0.67440 0.85270 0.85500
Ni	Ni	0.88770 0.68000 0.87280 -0.02700
Ni	Ni	0.89390 0.63840 0.90340 0.25700
O 	O 	0.85550 0.68980 0.83440 -0.33700
O 	O 	0.86130 0.70300 0.84230 -0.67300
O 	O 	0.79580 0.70250 0.88120 -0.06700
O 	O 	0.79030 0.69100 0.87690 -0.27700
C 	C 	0.81890 0.71310 0.84570 0.54700
C 	C 	0.80470 0.75340 0.81900 -0.32600
C 	C 	0.76740 0.78030 0.83090 0.25200
O 	O 	0.88220 0.59120 0.82940 -0.54900
O 	O 	0.84170 0.62490 0.90990 -0.02600
C 	C 	0.83680 0.57540 0.84100 -0.33000
C 	C 	0.82950 0.58120 0.85620 0.57000
C 	C 	0.83380 0.52440 0.82440 -0.66200
C 	C 	0.81900 0.53100 0.84040 -1.12200
N 	N 	0.91550 0.70580 0.91810 0.17000
C 	C 	0.92170 0.74950 0.90570 0.26200
C 	C 	0.93400 0.78350 0.93530 0.23700
C 	C 	0.94090 0.77590 0.98070 0.07000
C 	C 	0.93400 0.73170 0.99340 -0.22200
C 	C 	0.92200 0.69830 0.96300 -0.21400
N 	N 	0.91910 0.70070 0.92940 -0.59500
C 	C 	0.92600 0.74520 0.92060 -0.77100
C 	C 	0.93590 0.77710 0.95320 0.06800
C 	C 	0.93970 0.76620 0.99840 -0.06700
C 	C 	0.93260 0.72110 0.00740 0.15200
C 	C 	0.92330 0.69000 0.97390 0.40600
H 	H 	0.75000 0.77200 0.85900 -0.02000
H 	H 	0.81400 0.59400 0.82500 0.35300
H 	H 	0.80800 0.60200 0.84100 -0.43700
H 	H 	0.83800 0.52300 0.79100 -0.24900
H 	H 	0.80400 0.51200 0.83300 0.43900
H 	H 	0.85800 0.50600 0.83900 0.06300
H 	H 	0.82200 0.52900 0.80700 0.85500
H 	H 	0.78800 0.52300 0.85000 0.10000
H 	H 	0.84100 0.51000 0.85500 0.49500
H 	H 	0.91700 0.75800 0.87300 -0.59900
H 	H 	0.93800 0.81500 0.92300 0.05700
H 	H 	0.95000 0.80000 0.00200 0.00200
H 	H 	0.93800 0.72300 0.02600 0.04800
H 	H 	0.91800 0.66700 0.97500 0.19500
H 	H 	0.92400 0.75500 0.88800 0.63500
H 	H 	0.94000 0.80900 0.94400 -0.13800
H 	H 	0.94700 0.78900 0.02200 0.05700
H 	H 	0.93400 0.71000 0.03900 -0.04000
H 	H 	0.92000 0.65800 0.98300 -0.34700
Ni	Ni	0.40060 0.85080 0.13040 -0.37600
Ni	Ni	0.40960 0.82660 0.12190 -0.84600
Ni	Ni	0.40590 0.82690 0.10710 1.56600
Ni	Ni	0.36990 0.84660 0.11780 0.60600
Ni	Ni	0.38700 0.82560 0.14730 0.85500
Ni	Ni	0.38770 0.82000 0.12720 -0.02700
Ni	Ni	0.39390 0.86160 0.09660 0.25700
O 	O 	0.35550 0.81020 0.16560 -0.33700
O 	O 	0.36130 0.79700 0.15770 -0.67400
O 	O 	0.29580 0.79750 0.11880 -0.06700
O 	O 	0.29030 0.80900 0.12310 -0.27700
C 	C 	0.31890 0.78690 0.15430 0.54700
C 	C 	0.30470 0.74660 0.18100 -0.32600
C 	C 	0.26740 0.71970 0.16910 0.25200
O 	O 	0.38220 0.90880 0.17060 -0.54900
O 	O 	0.34170 0.87510 0.09010 -0.02600
C 	C 	0.33680 0.92460 0.15900 -0.33000
C 	C 	0.32950 0.91880 0.14380 0.57000
C 	C 	0.33380 0.97560 0.17560 -0.66100
C 	C 	0.31900 0.96900 0.15960 -1.12200
N 	N 	0.41550 0.79420 0.08190 0.17100
C 	C 	0.42170 0.75050 0.09430 0.26200
C 	C 	0.43400 0.71650 0.06470 0.23600
C 	C 	0.44090 0.72410 0.01930 0.07000
C 	C 	0.43400 0.76830 0.00660 -0.22000
C 	C 	0.42200 0.80170 0.03700 -0.21500
N 	N 	0.41910 0.79930 0.07060 -0.59500
C 	C 	0.42600 0.75480 0.07940 -0.77100
C 	C 	0.43590 0.72290 0.04680 0.06900
C 	C 	0.43970 0.73380 0.00160 -0.06700
C 	C 	0.43260 0.77890 0.99260 0.15400
C 	C 	0.42330 0.81000 0.02610 0.40500
H 	H 	0.25000 0.72800 0.14100 -0.02000
H 	H 	0.31400 0.90600 0.17500 0.35300
H 	H 	0.30800 0.89800 0.15900 -0.43700
H 	H 	0.33800 0.97700 0.20900 -0.24900
H 	H 	0.30400 0.98800 0.16700 0.43800
H 	H 	0.35800 0.99400 0.16100 0.06300
H 	H 	0.32200 0.97100 0.19300 0.85400
H 	H 	0.28800 0.97700 0.15000 0.10000
H 	H 	0.34100 0.99000 0.14500 0.49500
H 	H 	0.41700 0.74200 0.12700 -0.59900
H 	H 	0.43800 0.68500 0.07700 0.05700
H 	H 	0.45000 0.70000 0.99800 0.00100
H 	H 	0.43800 0.77700 0.97400 0.04200
H 	H 	0.41800 0.83300 0.02500 0.19500
H 	H 	0.42400 0.74500 0.11200 0.63600
H 	H 	0.44000 0.69100 0.05600 -0.13700
H 	H 	0.44700 0.71100 0.97800 0.05700
H 	H 	0.43400 0.79000 0.96100 -0.03600
H 	H 	0.42000 0.84200 0.01700 -0.34600
Ni	Ni	0.59940 0.35080 0.36960 -0.37600
Ni	Ni	0.59040 0.32660 0.37810 -0.84600
Ni	Ni	0.59410 0.32690 0.39290 1.56600
Ni	Ni	0.63010 0.34660 0.38220 0.60600
Ni	Ni	0.61300 0.32560 0.35270 0.85500
Ni	Ni	0.61230 0.32000 0.37280 -0.02700
Ni	Ni	0.60610 0.36160 0.40340 0.25700
O 	O 	0.64450 0.31020 0.33440 -0.33700
O 	O 	0.63870 0.29700 0.34230 -0.67300
O 	O 	0.70420 0.29750 0.38120 -0.06700
O 	O 	0.70970 0.30900 0.37690 -0.27700
C 	C 	0.68110 0.28690 0.34570 0.54700
C 	C 	0.69530 0.24660 0.31900 -0.32600
C 	C 	0.73260 0.21970 0.33090 0.25200
O 	O 	0.61780 0.40880 0.32940 -0.55000
O 	O 	0.65830 0.37510 0.40990 -0.02600
C 	C 	0.66320 0.42460 0.34100 -0.32900
C 	C 	0.67050 0.41880 0.35620 0.57100
C 	C 	0.66620 0.47560 0.32440 -0.66300
C 	C 	0.68100 0.46900 0.34040 -1.12400
N 	N 	0.58450 0.29420 0.41810 0.17100
C 	C 	0.57830 0.25050 0.40570 0.26200
C 	C 	0.56600 0.21650 0.43530 0.23600
C 	C 	0.55910 0.22410 0.48070 0.07000
C 	C 	0.56600 0.26830 0.49340 -0.22000
C 	C 	0.57800 0.30170 0.46300 -0.21500
N 	N 	0.58090 0.29930 0.42940 -0.59500
C 	C 	0.57400 0.25480 0.42060 -0.77100
C 	C 	0.56410 0.22290 0.45320 0.06800
C 	C 	0.56030 0.23380 0.49840 -0.06700
C 	C 	0.56740 0.27890 0.50740 0.15300
C 	C 	0.57670 0.31000 0.47390 0.40500
H 	H 	0.75000 0.22800 0.35900 -0.02000
H 	H 	0.68600 0.40600 0.32500 0.35300
H 	H 	0.69200 0.39800 0.34100 -0.43700
H 	H 	0.66200 0.47700 0.29100 -0.24900
H 	H 	0.69600 0.48800 0.33300 0.43900
H 	H 	0.64200 0.49400 0.33900 0.06300
H 	H 	0.67800 0.47100 0.30700 0.85600
H 	H 	0.71200 0.47700 0.35000 0.10000
H 	H 	0.65900 0.49000 0.35500 0.49600
H 	H 	0.58300 0.24200 0.37300 -0.59900
H 	H 	0.56200 0.18500 0.42300 0.05700
H 	H 	0.55000 0.20000 0.50200 0.00100
H 	H 	0.56200 0.27700 0.52600 0.04500
H 	H 	0.58200 0.33300 0.47500 0.19500
H 	H 	0.57600 0.24500 0.38800 0.63500
H 	H 	0.56000 0.19100 0.44400 -0.13800
H 	H 	0.55300 0.21100 0.52200 0.05700
H 	H 	0.56600 0.29000 0.53900 -0.03700
H 	H 	0.58000 0.34200 0.48300 -0.34600
Ni	Ni	0.64920 0.86960 0.90060 -0.37600
Ni	Ni	0.67340 0.87810 0.90960 -0.84700
Ni	Ni	0.67310 0.89290 0.90590 1.56700
Ni	Ni	0.65340 0.88220 0.86990 0.60600
Ni	Ni	0.67440 0.85270 0.88700 0.85500
Ni	Ni	0.68000 0.87280 0.88770 -0.02700
Ni	Ni	0.63840 0.90340 0.89390 0.25700
O 	O 	0.68980 0.83440 0.85550 -0.33700
O 	O 	0.70300 0.84230 0.86130 -0.67300
O 	O 	0.70250 0.88120 0.79580 -0.06700
O 	O 	0.69100 0.87690 0.79030 -0.27700
C 	C 	0.71310 0.84570 0.81890 0.54700
C 	C 	0.75340 0.81900 0.80470 -0.32600
C 	C 	0.78030 0.83090 0.76740 0.25200
O 	O 	0.59120 0.82940 0.88220 -0.54900
O 	O 	0.62490 0.90990 0.84170 -0.02600
C 	C 	0.57540 0.84100 0.83680 -0.33000
C 	C 	0.58120 0.85620 0.82950 0.57000
C 	C 	0.52440 0.82440 0.83380 -0.66200
C 	C 	0.53100 0.84040 0.81900 -1.12200
N 	N 	0.70580 0.91810 0.91550 0.17000
C 	C 	0.74950 0.90570 0.92170 0.26200
C 	C 	0.78350 0.93530 0.93400 0.23700
C 	C 	0.77590 0.98070 0.94090 0.07000
C 	C 	0.73170 0.99340 0.93400 -0.22200
C 	C 	0.69830 0.96300 0.92200 -0.21400
N 	N 	0.70070 0.92940 0.91910 -0.59500
C 	C 	0.74520 0.92060 0.92600 -0.77100
C 	C 	0.77710 0.95320 0.93590 0.06800
C 	C 	0.76620 0.99840 0.93970 -0.06700
C 	C 	0.72110 0.00740 0.93260 0.15200
C 	C 	0.69000 0.97390 0.92330 0.40600
H 	H 	0.77200 0.85900 0.75000 -0.02000
H 	H 	0.59400 0.82500 0.81400 0.35300
H 	H 	0.60200 0.84100 0.80800 -0.43700
H 	H 	0.52300 0.79100 0.83800 -0.24900
H 	H 	0.51200 0.83300 0.80400 0.43900
H 	H 	0.50600 0.83900 0.85800 0.06300
H 	H 	0.52900 0.80700 0.82200 0.85500
H 	H 	0.52300 0.85000 0.78800 0.10000
H 	H 	0.51000 0.85500 0.84100 0.49500
H 	H 	0.75800 0.87300 0.91700 -0.59900
H 	H 	0.81500 0.92300 0.93800 0.05700
H 	H 	0.80000 0.00200 0.95000 0.00200
H 	H 	0.72300 0.02600 0.93800 0.04800
H 	H 	0.66700 0.97500 0.91800 0.19500
H 	H 	0.75500 0.88800 0.92400 0.63500
H 	H 	0.80900 0.94400 0.94000 -0.13800
H 	H 	0.78900 0.02200 0.94700 0.05700
H 	H 	0.71000 0.03900 0.93400 -0.04000
H 	H 	0.65800 0.98300 0.92000 -0.34700
Ni	Ni	0.14920 0.63040 0.09940 -0.37600
Ni	Ni	0.17340 0.62190 0.09040 -0.84600
Ni	Ni	0.17310 0.60710 0.09410 1.56600
Ni	Ni	0.15340 0.61780 0.13010 0.60600
Ni	Ni	0.17440 0.64730 0.11300 0.85500
Ni	Ni	0.18000 0.62720 0.11230 -0.02700
Ni	Ni	0.13840 0.59660 0.10610 0.25700
O 	O 	0.18980 0.66560 0.14450 -0.33700
O 	O 	0.20300 0.65770 0.13870 -0.67400
O 	O 	0.20250 0.61880 0.20420 -0.06700
O 	O 	0.19100 0.62310 0.20970 -0.27700
C 	C 	0.21310 0.65430 0.18110 0.54700
C 	C 	0.25340 0.68100 0.19530 -0.32600
C 	C 	0.28030 0.66910 0.23260 0.25200
O 	O 	0.09120 0.67060 0.11780 -0.55000
O 	O 	0.12490 0.59010 0.15830 -0.02600
C 	C 	0.07540 0.65900 0.16320 -0.32900
C 	C 	0.08120 0.64380 0.17050 0.57100
C 	C 	0.02440 0.67560 0.16620 -0.66300
C 	C 	0.03100 0.65960 0.18100 -1.12500
N 	N 	0.20580 0.58190 0.08450 0.17100
C 	C 	0.24950 0.59430 0.07830 0.26200
C 	C 	0.28350 0.56470 0.06600 0.23600
C 	C 	0.27590 0.51930 0.05910 0.07000
C 	C 	0.23170 0.50660 0.06600 -0.22000
C 	C 	0.19830 0.53700 0.07800 -0.21500
N 	N 	0.20070 0.57060 0.08090 -0.59500
C 	C 	0.24520 0.57940 0.07400 -0.77100
C 	C 	0.27710 0.54680 0.06410 0.06800
C 	C 	0.26620 0.50160 0.06030 -0.06700
C 	C 	0.22110 0.49260 0.06740 0.15300
C 	C 	0.19000 0.52610 0.07670 0.40500
H 	H 	0.27200 0.64100 0.25000 -0.02000
H 	H 	0.09400 0.67500 0.18600 0.35300
H 	H 	0.10200 0.65900 0.19200 -0.43700
H 	H 	0.02300 0.70900 0.16200 -0.24900
H 	H 	0.01200 0.66700 0.19600 0.44000
H 	H 	0.00600 0.66100 0.14200 0.06300
H 	H 	0.02900 0.69300 0.17800 0.85600
H 	H 	0.02300 0.65000 0.21200 0.10100
H 	H 	0.01000 0.64500 0.15900 0.49600
H 	H 	0.25800 0.62700 0.08300 -0.59800
H 	H 	0.31500 0.57700 0.06200 0.05700
H 	H 	0.30000 0.49800 0.05000 0.00100
H 	H 	0.22300 0.47400 0.06200 0.04400
H 	H 	0.16700 0.52500 0.08200 0.19500
H 	H 	0.25500 0.61200 0.07600 0.63500
H 	H 	0.30900 0.55600 0.06000 -0.13700
H 	H 	0.28900 0.47800 0.05300 0.05700
H 	H 	0.21000 0.46100 0.06600 -0.03700
H 	H 	0.15800 0.51700 0.08000 -0.34600
Ni	Ni	0.35080 0.36960 0.59940 -0.37600
Ni	Ni	0.32660 0.37810 0.59040 -0.84600
Ni	Ni	0.32690 0.39290 0.59410 1.56600
Ni	Ni	0.34660 0.38220 0.63010 0.60600
Ni	Ni	0.32560 0.35270 0.61300 0.85500
Ni	Ni	0.32000 0.37280 0.61230 -0.02700
Ni	Ni	0.36160 0.40340 0.60610 0.25700
O 	O 	0.31020 0.33440 0.64450 -0.33700
O 	O 	0.29700 0.34230 0.63870 -0.67300
O 	O 	0.29750 0.38120 0.70420 -0.06700
O 	O 	0.30900 0.37690 0.70970 -0.27700
C 	C 	0.28690 0.34570 0.68110 0.54700
C 	C 	0.24660 0.31900 0.69530 -0.32600
C 	C 	0.21970 0.33090 0.73260 0.25200
O 	O 	0.40880 0.32940 0.61780 -0.55000
O 	O 	0.37510 0.40990 0.65830 -0.02600
C 	C 	0.42460 0.34100 0.66320 -0.32900
C 	C 	0.41880 0.35620 0.67050 0.57100
C 	C 	0.47560 0.32440 0.66620 -0.66300
C 	C 	0.46900 0.34040 0.68100 -1.12400
N 	N 	0.29420 0.41810 0.58450 0.17100
C 	C 	0.25050 0.40570 0.57830 0.26200
C 	C 	0.21650 0.43530 0.56600 0.23600
C 	C 	0.22410 0.48070 0.55910 0.07000
C 	C 	0.26830 0.49340 0.56600 -0.22000
C 	C 	0.30170 0.46300 0.57800 -0.21500
N 	N 	0.29930 0.42940 0.58090 -0.59500
C 	C 	0.25480 0.42060 0.57400 -0.77100
C 	C 	0.22290 0.45320 0.56410 0.06800
C 	C 	0.23380 0.49840 0.56030 -0.06700
C 	C 	0.27890 0.50740 0.56740 0.15300
C 	C 	0.31000 0.47390 0.57670 0.40500
H 	H 	0.22800 0.35900 0.75000 -0.02000
H 	H 	0.40600 0.32500 0.68600 0.35300
H 	H 	0.39800 0.34100 0.69200 -0.43700
H 	H 	0.47700 0.29100 0.66200 -0.24900
H 	H 	0.48800 0.33300 0.69600 0.43900
H 	H 	0.49400 0.33900 0.64200 0.06300
H 	H 	0.47100 0.30700 0.67800 0.85600
H 	H 	0.47700 0.35000 0.71200 0.10000
H 	H 	0.49000 0.35500 0.65900 0.49600
H 	H 	0.24200 0.37300 0.58300 -0.59900
H 	H 	0.18500 0.42300 0.56200 0.05700
H 	H 	0.20000 0.50200 0.55000 0.00100
H 	H 	0.27700 0.52600 0.56200 0.04500
H 	H 	0.33300 0.47500 0.58200 0.19500
H 	H 	0.24500 0.38800 0.57600 0.63500
H 	H 	0.19100 0.44400 0.56000 -0.13800
H 	H 	0.21100 0.52200 0.55300 0.05700
H 	H 	0.29000 0.53900 0.56600 -0.03700
H 	H 	0.34200 0.48300 0.58000 -0.34600
Ni	Ni	0.85080 0.13040 0.40060 -0.37600
Ni	Ni	0.82660 0.12190 0.40960 -0.84600
Ni	Ni	0.82690 0.10710 0.40590 1.56600
Ni	Ni	0.84660 0.11780 0.36990 0.60600
Ni	Ni	0.82560 0.14730 0.38700 0.85500
Ni	Ni	0.82000 0.12720 0.38770 -0.02700
Ni	Ni	0.86160 0.09660 0.39390 0.25700
O 	O 	0.81020 0.16560 0.35550 -0.33700
O 	O 	0.79700 0.15770 0.36130 -0.67400
O 	O 	0.79750 0.11880 0.29580 -0.06700
O 	O 	0.80900 0.12310 0.29030 -0.27700
C 	C 	0.78690 0.15430 0.31890 0.54700
C 	C 	0.74660 0.18100 0.30470 -0.32600
C 	C 	0.71970 0.16910 0.26740 0.25200
O 	O 	0.90880 0.17060 0.38220 -0.54900
O 	O 	0.87510 0.09010 0.34170 -0.02600
C 	C 	0.92460 0.15900 0.33680 -0.33000
C 	C 	0.91880 0.14380 0.32950 0.57000
C 	C 	0.97560 0.17560 0.33380 -0.66100
C 	C 	0.96900 0.15960 0.31900 -1.12200
N 	N 	0.79420 0.08190 0.41550 0.17100
C 	C 	0.75050 0.09430 0.42170 0.26200
C 	C 	0.71650 0.06470 0.43400 0.23600
C 	C 	0.72410 0.01930 0.44090 0.07000
C 	C 	0.76830 0.00660 0.43400 -0.22000
C 	C 	0.80170 0.03700 0.42200 -0.21500
N 	N 	0.79930 0.07060 0.41910 -0.59500
C 	C 	0.75480 0.07940 0.42600 -0.77100
C 	C 	0.72290 0.04680 0.43590 0.06900
C 	C 	0.73380 0.00160 0.43970 -0.06700
C 	C 	0.77890 0.99260 0.43260 0.15400
C 	C 	0.81000 0.02610 0.42330 0.40500
H 	H 	0.72800 0.14100 0.25000 -0.02000
H 	H 	0.90600 0.17500 0.31400 0.35300
H 	H 	0.89800 0.15900 0.30800 -0.43700
H 	H 	0.97700 0.20900 0.33800 -0.24900
H 	H 	0.98800 0.16700 0.30400 0.43800
H 	H 	0.99400 0.16100 0.35800 0.06300
H 	H 	0.97100 0.19300 0.32200 0.85400
H 	H 	0.97700 0.15000 0.28800 0.10000
H 	H 	0.99000 0.14500 0.34100 0.49500
H 	H 	0.74200 0.12700 0.41700 -0.59900
H 	H 	0.68500 0.07700 0.43800 0.05700
H 	H 	0.70000 0.99800 0.45000 0.00100
H 	H 	0.77700 0.97400 0.43800 0.04200
H 	H 	0.83300 0.02500 0.41800 0.19500
H 	H 	0.74500 0.11200 0.42400 0.63600
H 	H 	0.69100 0.05600 0.44000 -0.13700
H 	H 	0.71100 0.97800 0.44700 0.05700
H 	H 	0.79000 0.96100 0.43400 -0.03600
H 	H 	0.84200 0.01700 0.42000 -0.34600
