data_crystal

_cell_length_a 9.69100
_cell_length_b 14.15700
_cell_length_c 16.05500
_cell_angle_alpha 107.40800
_cell_angle_beta  99.93700
_cell_angle_gamma 104.26400

_symmetry_space_group_name_	'P 1'
_symmetry_space_group_name_H-M	'P 1'

loop_
_symmetry_equiv_pos_as_xyz
  x,y,z

loop_
_atom_site_label
_atom_site_type_symbol
_atom_site_fract_x
_atom_site_fract_y
_atom_site_fract_z
_atom_site_charge
Zn	Zn	0.80800 0.90897 0.93976 1.21900
S 	S 	0.98870 0.48582 0.70239 0.48800
O 	O 	0.94870 0.85580 0.87650 -0.48500
O 	O 	0.17450 0.95560 0.96440 -0.49100
O 	O 	0.59750 0.83500 0.91660 -0.45000
O 	O 	0.57070 0.70760 0.78870 -0.28600
O 	O 	0.07610 0.41710 0.69370 -0.26500
O 	O 	0.87920 0.46260 0.75060 -0.26300
O 	O 	0.92470 0.49460 0.61750 -0.23600
N 	N 	0.95630 0.75860 0.11520 -0.09200
N 	N 	0.91340 0.82740 0.17450 -0.09800
N 	N 	0.87310 0.84660 0.04010 -0.25100
N 	N 	0.73730 0.01200 0.71800 -0.09200
N 	N 	0.65770 0.06160 0.76600 -0.09900
N 	N 	0.75890 0.97440 0.83980 -0.24200
C 	C 	0.01250 0.59220 0.06730 -0.07400
C 	C 	0.13150 0.58480 0.03240 0.10300
C 	C 	0.11860 0.48960 0.96500 0.12200
C 	C 	0.02660 0.68970 0.14530 -0.06200
H 	H 	0.98140 0.66950 0.18940 0.06900
H 	H 	0.13040 0.72740 0.17480 0.05900
C 	C 	0.27210 0.67700 0.06310 -0.59800
H 	H 	0.32750 0.68550 0.12200 0.21000
H 	H 	0.24710 0.73920 0.06590 0.21600
H 	H 	0.33050 0.66460 0.02090 0.20200
C 	C 	0.25160 0.47810 0.93080 -0.61900
H 	H 	0.29870 0.54050 0.92110 0.20900
H 	H 	0.22060 0.41970 0.87480 0.23000
H 	H 	0.31990 0.46680 0.97480 0.21100
C 	C 	0.86420 0.87770 0.12580 0.09400
H 	H 	0.82600 0.93110 0.14900 0.00100
C 	C 	0.93360 0.77180 0.03690 0.09700
H 	H 	0.95680 0.73370 0.98620 -0.00300
C 	C 	0.62310 0.01320 0.56680 -0.08300
C 	C 	0.52710 0.91290 0.51430 0.11300
C 	C 	0.40470 0.89940 0.44580 0.11400
C 	C 	0.76230 0.02560 0.63400 -0.03400
H 	H 	0.80750 0.97500 0.60570 0.04000
H 	H 	0.83130 0.09460 0.64910 0.04500
C 	C 	0.55230 0.81800 0.53120 -0.62800
H 	H 	0.50010 0.80260 0.57370 0.22900
H 	H 	0.65600 0.83180 0.55540 0.22700
H 	H 	0.51680 0.75930 0.47520 0.21900
C 	C 	0.30800 0.78950 0.38580 -0.63600
H 	H 	0.35570 0.76050 0.34140 0.22600
H 	H 	0.21450 0.79130 0.35580 0.23400
H 	H 	0.29250 0.74700 0.42220 0.23100
C 	C 	0.67270 0.03600 0.83750 0.09900
H 	H 	0.62800 0.05820 0.88330 -0.00200
C 	C 	0.79610 0.96130 0.76290 0.09700
H 	H 	0.85580 0.92170 0.74320 0.00300
C 	C 	0.14730 0.79050 0.85920 -0.15000
C 	C 	0.29860 0.81140 0.87200 0.07000
H 	H 	0.36210 0.87790 0.90790 0.03000
C 	C 	0.35590 0.73470 0.83210 -0.12700
C 	C 	0.26160 0.63500 0.77960 0.04900
H 	H 	0.29920 0.58300 0.75180 0.03700
C 	C 	0.11140 0.61370 0.76900 -0.10900
C 	C 	0.05370 0.69110 0.80680 0.07200
H 	H 	0.95200 0.67640 0.79700 0.03400
C 	C 	0.08590 0.87440 0.90360 0.42200
C 	C 	0.52080 0.75940 0.84540 0.35300
Zn	Zn	0.19200 0.09103 0.06024 1.22000
S 	S 	0.01130 0.51418 0.29761 0.48900
O 	O 	0.05130 0.14420 0.12350 -0.48500
O 	O 	0.82550 0.04440 0.03560 -0.49100
O 	O 	0.40250 0.16500 0.08340 -0.45000
O 	O 	0.42930 0.29240 0.21130 -0.28600
O 	O 	0.92390 0.58290 0.30630 -0.26500
O 	O 	0.12080 0.53740 0.24940 -0.26300
O 	O 	0.07530 0.50540 0.38250 -0.23600
N 	N 	0.04370 0.24140 0.88480 -0.09200
N 	N 	0.08660 0.17260 0.82550 -0.09800
N 	N 	0.12690 0.15340 0.95990 -0.25100
N 	N 	0.26270 0.98800 0.28200 -0.09200
N 	N 	0.34230 0.93840 0.23400 -0.09900
N 	N 	0.24110 0.02560 0.16020 -0.24200
C 	C 	0.98750 0.40780 0.93270 -0.07400
C 	C 	0.86850 0.41520 0.96760 0.10300
C 	C 	0.88140 0.51040 0.03500 0.12200
C 	C 	0.97340 0.31030 0.85470 -0.06200
H 	H 	0.01860 0.33050 0.81060 0.06900
H 	H 	0.86960 0.27260 0.82520 0.05900
C 	C 	0.72790 0.32300 0.93690 -0.59800
H 	H 	0.67250 0.31450 0.87800 0.21000
H 	H 	0.75290 0.26080 0.93410 0.21600
H 	H 	0.66950 0.33540 0.97910 0.20200
C 	C 	0.74840 0.52190 0.06920 -0.61900
H 	H 	0.70130 0.45950 0.07890 0.20900
H 	H 	0.77940 0.58030 0.12520 0.23000
H 	H 	0.68010 0.53320 0.02520 0.21100
C 	C 	0.13580 0.12230 0.87420 0.09400
H 	H 	0.17400 0.06890 0.85100 0.00100
C 	C 	0.06640 0.22820 0.96310 0.09700
H 	H 	0.04320 0.26630 0.01380 -0.00300
C 	C 	0.37690 0.98680 0.43320 -0.08300
C 	C 	0.47290 0.08710 0.48570 0.11300
C 	C 	0.59530 0.10060 0.55420 0.11400
C 	C 	0.23770 0.97440 0.36600 -0.03400
H 	H 	0.19250 0.02500 0.39430 0.04000
H 	H 	0.16870 0.90540 0.35090 0.04500
C 	C 	0.44770 0.18200 0.46880 -0.62800
H 	H 	0.49990 0.19740 0.42630 0.22900
H 	H 	0.34400 0.16820 0.44460 0.22700
H 	H 	0.48320 0.24070 0.52480 0.21900
C 	C 	0.69200 0.21050 0.61420 -0.63600
H 	H 	0.64430 0.23950 0.65860 0.22600
H 	H 	0.78550 0.20870 0.64420 0.23400
H 	H 	0.70750 0.25300 0.57780 0.23100
C 	C 	0.32730 0.96400 0.16250 0.09900
H 	H 	0.37200 0.94180 0.11670 -0.00200
C 	C 	0.20390 0.03870 0.23710 0.09700
H 	H 	0.14420 0.07830 0.25680 0.00300
C 	C 	0.85270 0.20950 0.14080 -0.15000
C 	C 	0.70140 0.18860 0.12800 0.07000
H 	H 	0.63790 0.12210 0.09210 0.03000
C 	C 	0.64410 0.26530 0.16790 -0.12700
C 	C 	0.73840 0.36500 0.22040 0.04900
H 	H 	0.70080 0.41700 0.24820 0.03700
C 	C 	0.88860 0.38630 0.23100 -0.10900
C 	C 	0.94630 0.30890 0.19320 0.07200
H 	H 	0.04800 0.32360 0.20300 0.03400
C 	C 	0.91410 0.12560 0.09640 0.42200
C 	C 	0.47920 0.24060 0.15460 0.35300
