data_crystal

_cell_length_a 27.26580
_cell_length_b 27.26580
_cell_length_c 27.26580
_cell_angle_alpha 90.00000
_cell_angle_beta  90.00000
_cell_angle_gamma 90.00000

_symmetry_space_group_name_	'P 1'
_symmetry_space_group_name_H-M	'P 1'

loop_
_symmetry_equiv_pos_as_xyz
  x,y,z

loop_
_atom_site_label
_atom_site_type_symbol
_atom_site_fract_x
_atom_site_fract_y
_atom_site_fract_z
_atom_site_charge
O 	O 	0.11220 0.97354 0.41358 -0.48900
O 	O 	0.18231 0.98087 0.45350 -0.39900
O 	O 	0.17529 0.07989 0.45469 -0.20700
S 	S 	0.11097 0.12227 0.53624 -0.04000
C 	C 	0.14530 0.99760 0.43290 0.43200
C 	C 	0.13700 0.05130 0.43190 -0.23200
H 	H 	0.13360 0.06180 0.39740 0.08700
H 	H 	0.10560 0.05850 0.44870 0.09400
C 	C 	0.16525 0.12965 0.45080 0.10200
C 	C 	0.13773 0.15316 0.48640 -0.07200
C 	C 	0.18320 0.15620 0.41030 -0.07500
C 	C 	0.17010 0.20530 0.40490 0.02500
H 	H 	0.18200 0.22290 0.37730 -0.00400
C 	C 	0.14020 0.22940 0.43880 -0.23700
C 	C 	0.12590 0.20310 0.48010 0.03300
H 	H 	0.10750 0.21930 0.50490 -0.01000
C 	C 	0.12520 0.28290 0.43110 0.60300
C 	C 	0.08890 0.29910 0.46740 -0.91000
H 	H 	0.10060 0.29130 0.50050 0.26200
H 	H 	0.05770 0.28220 0.46150 0.25600
H 	H 	0.08400 0.33460 0.46440 0.25800
C 	C 	0.17350 0.31480 0.43700 -0.81700
H 	H 	0.18590 0.31170 0.47060 0.23700
H 	H 	0.16590 0.34930 0.43010 0.24200
H 	H 	0.19840 0.30310 0.41390 0.25600
C 	C 	0.10730 0.29060 0.37860 -0.87800
H 	H 	0.13300 0.28050 0.35560 0.26600
H 	H 	0.09970 0.32540 0.37350 0.26900
H 	H 	0.07780 0.27100 0.37300 0.25000
O 	O 	0.61220 0.47354 0.91358 -0.48800
O 	O 	0.68231 0.48087 0.95350 -0.39500
O 	O 	0.67529 0.57989 0.95469 -0.20400
S 	S 	0.61097 0.62227 0.03624 -0.05200
C 	C 	0.64530 0.49760 0.93290 0.41500
C 	C 	0.63700 0.55130 0.93190 -0.21400
H 	H 	0.63360 0.56180 0.89740 0.08300
H 	H 	0.60560 0.55850 0.94870 0.09500
C 	C 	0.66525 0.62965 0.95080 0.10100
C 	C 	0.63773 0.65316 0.98640 -0.06600
C 	C 	0.68320 0.65620 0.91030 -0.07600
C 	C 	0.67010 0.70530 0.90490 0.02600
H 	H 	0.68200 0.72290 0.87730 -0.00400
C 	C 	0.64020 0.72940 0.93880 -0.23900
C 	C 	0.62590 0.70310 0.98010 0.05800
H 	H 	0.60750 0.71930 0.00490 -0.02600
C 	C 	0.62520 0.78290 0.93110 0.59400
C 	C 	0.58890 0.79910 0.96740 -0.86400
H 	H 	0.60060 0.79130 0.00050 0.24000
H 	H 	0.55770 0.78220 0.96150 0.25000
H 	H 	0.58400 0.83460 0.96440 0.25100
C 	C 	0.67350 0.81480 0.93700 -0.81300
H 	H 	0.68590 0.81170 0.97060 0.24100
H 	H 	0.66590 0.84930 0.93010 0.24300
H 	H 	0.69840 0.80310 0.91390 0.25600
C 	C 	0.60730 0.79060 0.87860 -0.87100
H 	H 	0.63300 0.78050 0.85560 0.26400
H 	H 	0.59970 0.82540 0.87350 0.26800
H 	H 	0.57780 0.77100 0.87300 0.25000
O 	O 	0.38780 0.02646 0.91358 -0.48800
O 	O 	0.31769 0.01913 0.95350 -0.39500
O 	O 	0.32471 0.92011 0.95469 -0.20500
S 	S 	0.38903 0.87773 0.03624 -0.05100
C 	C 	0.35470 0.00240 0.93290 0.39600
C 	C 	0.36300 0.94870 0.93190 -0.19300
H 	H 	0.36640 0.93820 0.89740 0.08000
H 	H 	0.39440 0.94150 0.94870 0.09200
C 	C 	0.33475 0.87035 0.95080 0.10200
C 	C 	0.36227 0.84684 0.98640 -0.06600
C 	C 	0.31680 0.84380 0.91030 -0.07600
C 	C 	0.32990 0.79470 0.90490 0.02600
H 	H 	0.31800 0.77710 0.87730 -0.00400
C 	C 	0.35980 0.77060 0.93880 -0.23900
C 	C 	0.37410 0.79690 0.98010 0.05800
H 	H 	0.39250 0.78070 0.00490 -0.02600
C 	C 	0.37480 0.71710 0.93110 0.59300
C 	C 	0.41110 0.70090 0.96740 -0.86300
H 	H 	0.39940 0.70870 0.00050 0.23900
H 	H 	0.44230 0.71780 0.96150 0.25000
H 	H 	0.41600 0.66540 0.96440 0.25000
C 	C 	0.32650 0.68520 0.93700 -0.81300
H 	H 	0.31410 0.68830 0.97060 0.24000
H 	H 	0.33410 0.65070 0.93010 0.24200
H 	H 	0.30160 0.69690 0.91390 0.25600
C 	C 	0.39270 0.70940 0.87860 -0.87100
H 	H 	0.36700 0.71950 0.85560 0.26400
H 	H 	0.40030 0.67460 0.87350 0.26800
H 	H 	0.42220 0.72900 0.87300 0.25000
O 	O 	0.88780 0.52646 0.41358 -0.48800
O 	O 	0.81769 0.51913 0.45350 -0.40000
O 	O 	0.82471 0.42011 0.45469 -0.20900
S 	S 	0.88903 0.37773 0.53624 -0.03300
C 	C 	0.85470 0.50240 0.43290 0.41400
C 	C 	0.86300 0.44870 0.43190 -0.21300
H 	H 	0.86640 0.43820 0.39740 0.08200
H 	H 	0.89440 0.44150 0.44870 0.09200
C 	C 	0.83475 0.37035 0.45080 0.10200
C 	C 	0.86227 0.34684 0.48640 -0.07500
C 	C 	0.81680 0.34380 0.41030 -0.07700
C 	C 	0.82990 0.29470 0.40490 0.02700
H 	H 	0.81800 0.27710 0.37730 -0.00500
C 	C 	0.85980 0.27060 0.43880 -0.24200
C 	C 	0.87410 0.29690 0.48010 0.03700
H 	H 	0.89250 0.28070 0.50490 -0.00900
C 	C 	0.87480 0.21710 0.43110 0.61700
C 	C 	0.91110 0.20090 0.46740 -0.93200
H 	H 	0.89940 0.20870 0.50050 0.27000
H 	H 	0.94230 0.21780 0.46150 0.26900
H 	H 	0.91600 0.16540 0.46440 0.26800
C 	C 	0.82650 0.18520 0.43700 -0.82700
H 	H 	0.81410 0.18830 0.47060 0.23900
H 	H 	0.83410 0.15070 0.43010 0.24500
H 	H 	0.80160 0.19690 0.41390 0.25900
C 	C 	0.89270 0.20940 0.37860 -0.89400
H 	H 	0.86700 0.21950 0.35560 0.27100
H 	H 	0.90030 0.17460 0.37350 0.27600
H 	H 	0.92220 0.22900 0.37300 0.25900
O 	O 	0.88780 0.47354 0.08642 -0.49000
O 	O 	0.81769 0.48087 0.04650 -0.40400
O 	O 	0.82471 0.57989 0.04531 -0.21400
S 	S 	0.88903 0.62227 0.96376 -0.01700
C 	C 	0.85470 0.49760 0.06710 0.41200
C 	C 	0.86300 0.55130 0.06810 -0.21200
H 	H 	0.86640 0.56180 0.10260 0.08200
H 	H 	0.89440 0.55850 0.05130 0.08900
C 	C 	0.83475 0.62965 0.04920 0.10300
C 	C 	0.86227 0.65316 0.01360 -0.08300
C 	C 	0.81680 0.65620 0.08970 -0.07800
C 	C 	0.82990 0.70530 0.09510 0.02800
H 	H 	0.81800 0.72290 0.12270 -0.00600
C 	C 	0.85980 0.72940 0.06120 -0.24400
C 	C 	0.87410 0.70310 0.01990 0.01400
H 	H 	0.89250 0.71930 0.99510 0.00700
C 	C 	0.87480 0.78290 0.06890 0.63600
C 	C 	0.91110 0.79910 0.03260 -0.99500
H 	H 	0.89940 0.79130 0.99950 0.29900
H 	H 	0.94230 0.78220 0.03850 0.28300
H 	H 	0.91600 0.83460 0.03560 0.28400
C 	C 	0.82650 0.81480 0.06300 -0.84000
H 	H 	0.81410 0.81170 0.02940 0.23900
H 	H 	0.83410 0.84930 0.06990 0.24700
H 	H 	0.80160 0.80310 0.08610 0.26200
C 	C 	0.89270 0.79060 0.12140 -0.91000
H 	H 	0.86700 0.78050 0.14440 0.27500
H 	H 	0.90030 0.82540 0.12650 0.28000
H 	H 	0.92220 0.77100 0.12700 0.26300
O 	O 	0.38780 0.97354 0.58642 -0.48900
O 	O 	0.31769 0.98087 0.54650 -0.40000
O 	O 	0.32471 0.07989 0.54531 -0.20800
S 	S 	0.38903 0.12227 0.46376 -0.03700
C 	C 	0.35470 0.99760 0.56710 0.43200
C 	C 	0.36300 0.05130 0.56810 -0.23400
H 	H 	0.36640 0.06180 0.60260 0.08600
H 	H 	0.39440 0.05850 0.55130 0.09400
C 	C 	0.33475 0.12965 0.54920 0.10100
C 	C 	0.36227 0.15316 0.51360 -0.07400
C 	C 	0.31680 0.15620 0.58970 -0.07700
C 	C 	0.32990 0.20530 0.59510 0.02600
H 	H 	0.31800 0.22290 0.62270 -0.00500
C 	C 	0.35980 0.22940 0.56120 -0.24000
C 	C 	0.37410 0.20310 0.51990 0.03500
H 	H 	0.39250 0.21930 0.49510 -0.01000
C 	C 	0.37480 0.28290 0.56890 0.61000
C 	C 	0.41110 0.29910 0.53260 -0.92200
H 	H 	0.39940 0.29130 0.49950 0.26600
H 	H 	0.44230 0.28220 0.53850 0.26200
H 	H 	0.41600 0.33460 0.53560 0.26400
C 	C 	0.32650 0.31480 0.56300 -0.82200
H 	H 	0.31410 0.31170 0.52940 0.23800
H 	H 	0.33410 0.34930 0.56990 0.24300
H 	H 	0.30160 0.30310 0.58610 0.25800
C 	C 	0.39270 0.29060 0.62140 -0.88600
H 	H 	0.36700 0.28050 0.64440 0.26900
H 	H 	0.40030 0.32540 0.62650 0.27200
H 	H 	0.42220 0.27100 0.62700 0.25500
O 	O 	0.61220 0.52646 0.58642 -0.48900
O 	O 	0.68231 0.51913 0.54650 -0.40000
O 	O 	0.67529 0.42011 0.54531 -0.20900
S 	S 	0.61097 0.37773 0.46376 -0.03700
C 	C 	0.64530 0.50240 0.56710 0.41300
C 	C 	0.63700 0.44870 0.56810 -0.21300
H 	H 	0.63360 0.43820 0.60260 0.08300
H 	H 	0.60560 0.44150 0.55130 0.09100
C 	C 	0.66525 0.37035 0.54920 0.10200
C 	C 	0.63773 0.34684 0.51360 -0.07400
C 	C 	0.68320 0.34380 0.58970 -0.07700
C 	C 	0.67010 0.29470 0.59510 0.02600
H 	H 	0.68200 0.27710 0.62270 -0.00400
C 	C 	0.64020 0.27060 0.56120 -0.23900
C 	C 	0.62590 0.29690 0.51990 0.03500
H 	H 	0.60750 0.28070 0.49510 -0.01000
C 	C 	0.62520 0.21710 0.56890 0.61000
C 	C 	0.58890 0.20090 0.53260 -0.92000
H 	H 	0.60060 0.20870 0.49950 0.26500
H 	H 	0.55770 0.21780 0.53850 0.26200
H 	H 	0.58400 0.16540 0.53560 0.26300
C 	C 	0.67350 0.18520 0.56300 -0.82200
H 	H 	0.68590 0.18830 0.52940 0.23800
H 	H 	0.66590 0.15070 0.56990 0.24300
H 	H 	0.69840 0.19690 0.58610 0.25700
C 	C 	0.60730 0.20940 0.62140 -0.88500
H 	H 	0.63300 0.21950 0.64440 0.26800
H 	H 	0.59970 0.17460 0.62650 0.27200
H 	H 	0.57780 0.22900 0.62700 0.25400
O 	O 	0.11220 0.02646 0.08642 -0.49100
O 	O 	0.18231 0.01913 0.04650 -0.40400
O 	O 	0.17529 0.92011 0.04531 -0.21400
S 	S 	0.11097 0.87773 0.96376 -0.02500
C 	C 	0.14530 0.00240 0.06710 0.39500
C 	C 	0.13700 0.94870 0.06810 -0.19200
H 	H 	0.13360 0.93820 0.10260 0.07900
H 	H 	0.10560 0.94150 0.05130 0.08400
C 	C 	0.16525 0.87035 0.04920 0.10200
C 	C 	0.13773 0.84684 0.01360 -0.08100
C 	C 	0.18320 0.84380 0.08970 -0.07600
C 	C 	0.17010 0.79470 0.09510 0.02500
H 	H 	0.18200 0.77710 0.12270 -0.00400
C 	C 	0.14020 0.77060 0.06120 -0.23800
C 	C 	0.12590 0.79690 0.01990 0.01100
H 	H 	0.10750 0.78070 0.99510 0.00600
C 	C 	0.12520 0.71710 0.06890 0.62100
C 	C 	0.08890 0.70090 0.03260 -0.96800
H 	H 	0.10060 0.70870 0.99950 0.28800
H 	H 	0.05770 0.71780 0.03850 0.26800
H 	H 	0.08400 0.66540 0.03560 0.27100
C 	C 	0.17350 0.68520 0.06300 -0.82700
H 	H 	0.18590 0.68830 0.02940 0.23500
H 	H 	0.16590 0.65070 0.06990 0.24300
H 	H 	0.19840 0.69690 0.08610 0.25800
C 	C 	0.10730 0.70940 0.12140 -0.89300
H 	H 	0.13300 0.71950 0.14440 0.27000
H 	H 	0.09970 0.67460 0.12650 0.27300
H 	H 	0.07780 0.72900 0.12700 0.25400
O 	O 	0.41358 0.11220 0.97354 -0.49000
O 	O 	0.45350 0.18231 0.98087 -0.40000
O 	O 	0.45469 0.17529 0.07989 -0.20800
S 	S 	0.53624 0.11097 0.12227 -0.04100
C 	C 	0.43290 0.14530 0.99760 0.43100
C 	C 	0.43190 0.13700 0.05130 -0.23300
H 	H 	0.39740 0.13360 0.06180 0.08600
H 	H 	0.44870 0.10560 0.05850 0.09300
C 	C 	0.45080 0.16525 0.12965 0.10100
C 	C 	0.48640 0.13773 0.15316 -0.07300
C 	C 	0.41030 0.18320 0.15620 -0.07600
C 	C 	0.40490 0.17010 0.20530 0.02500
H 	H 	0.37730 0.18200 0.22290 -0.00400
C 	C 	0.43880 0.14020 0.22940 -0.23700
C 	C 	0.48010 0.12590 0.20310 0.03300
H 	H 	0.50490 0.10750 0.21930 -0.01000
C 	C 	0.43110 0.12520 0.28290 0.60300
C 	C 	0.46740 0.08890 0.29910 -0.91000
H 	H 	0.50050 0.10060 0.29130 0.26200
H 	H 	0.46150 0.05770 0.28220 0.25600
H 	H 	0.46440 0.08400 0.33460 0.25800
C 	C 	0.43700 0.17350 0.31480 -0.81700
H 	H 	0.47060 0.18590 0.31170 0.23700
H 	H 	0.43010 0.16590 0.34930 0.24200
H 	H 	0.41390 0.19840 0.30310 0.25600
C 	C 	0.37860 0.10730 0.29060 -0.87800
H 	H 	0.35560 0.13300 0.28050 0.26600
H 	H 	0.37350 0.09970 0.32540 0.26900
H 	H 	0.37300 0.07780 0.27100 0.25000
O 	O 	0.91358 0.61220 0.47354 -0.48800
O 	O 	0.95350 0.68231 0.48087 -0.39500
O 	O 	0.95469 0.67529 0.57989 -0.20400
S 	S 	0.03624 0.61097 0.62227 -0.05200
C 	C 	0.93290 0.64530 0.49760 0.41500
C 	C 	0.93190 0.63700 0.55130 -0.21400
H 	H 	0.89740 0.63360 0.56180 0.08300
H 	H 	0.94870 0.60560 0.55850 0.09500
C 	C 	0.95080 0.66525 0.62965 0.10100
C 	C 	0.98640 0.63773 0.65316 -0.06600
C 	C 	0.91030 0.68320 0.65620 -0.07600
C 	C 	0.90490 0.67010 0.70530 0.02600
H 	H 	0.87730 0.68200 0.72290 -0.00400
C 	C 	0.93880 0.64020 0.72940 -0.23900
C 	C 	0.98010 0.62590 0.70310 0.05800
H 	H 	0.00490 0.60750 0.71930 -0.02600
C 	C 	0.93110 0.62520 0.78290 0.59400
C 	C 	0.96740 0.58890 0.79910 -0.86400
H 	H 	0.00050 0.60060 0.79130 0.24000
H 	H 	0.96150 0.55770 0.78220 0.25000
H 	H 	0.96440 0.58400 0.83460 0.25100
C 	C 	0.93700 0.67350 0.81480 -0.81300
H 	H 	0.97060 0.68590 0.81170 0.24100
H 	H 	0.93010 0.66590 0.84930 0.24300
H 	H 	0.91390 0.69840 0.80310 0.25600
C 	C 	0.87860 0.60730 0.79060 -0.87100
H 	H 	0.85560 0.63300 0.78050 0.26400
H 	H 	0.87350 0.59970 0.82540 0.26800
H 	H 	0.87300 0.57780 0.77100 0.25000
O 	O 	0.91358 0.38780 0.02646 -0.48800
O 	O 	0.95350 0.31769 0.01913 -0.39500
O 	O 	0.95469 0.32471 0.92011 -0.20500
S 	S 	0.03624 0.38903 0.87773 -0.05100
C 	C 	0.93290 0.35470 0.00240 0.39600
C 	C 	0.93190 0.36300 0.94870 -0.19300
H 	H 	0.89740 0.36640 0.93820 0.08000
H 	H 	0.94870 0.39440 0.94150 0.09200
C 	C 	0.95080 0.33475 0.87035 0.10200
C 	C 	0.98640 0.36227 0.84684 -0.06600
C 	C 	0.91030 0.31680 0.84380 -0.07600
C 	C 	0.90490 0.32990 0.79470 0.02600
H 	H 	0.87730 0.31800 0.77710 -0.00400
C 	C 	0.93880 0.35980 0.77060 -0.23900
C 	C 	0.98010 0.37410 0.79690 0.05800
H 	H 	0.00490 0.39250 0.78070 -0.02600
C 	C 	0.93110 0.37480 0.71710 0.59300
C 	C 	0.96740 0.41110 0.70090 -0.86300
H 	H 	0.00050 0.39940 0.70870 0.23900
H 	H 	0.96150 0.44230 0.71780 0.25000
H 	H 	0.96440 0.41600 0.66540 0.25000
C 	C 	0.93700 0.32650 0.68520 -0.81300
H 	H 	0.97060 0.31410 0.68830 0.24000
H 	H 	0.93010 0.33410 0.65070 0.24200
H 	H 	0.91390 0.30160 0.69690 0.25600
C 	C 	0.87860 0.39270 0.70940 -0.87100
H 	H 	0.85560 0.36700 0.71950 0.26400
H 	H 	0.87350 0.40030 0.67460 0.26800
H 	H 	0.87300 0.42220 0.72900 0.25000
O 	O 	0.41358 0.88780 0.52646 -0.48800
O 	O 	0.45350 0.81769 0.51913 -0.40000
O 	O 	0.45469 0.82471 0.42011 -0.20900
S 	S 	0.53624 0.88903 0.37773 -0.03300
C 	C 	0.43290 0.85470 0.50240 0.41400
C 	C 	0.43190 0.86300 0.44870 -0.21300
H 	H 	0.39740 0.86640 0.43820 0.08200
H 	H 	0.44870 0.89440 0.44150 0.09200
C 	C 	0.45080 0.83475 0.37035 0.10200
C 	C 	0.48640 0.86227 0.34684 -0.07500
C 	C 	0.41030 0.81680 0.34380 -0.07700
C 	C 	0.40490 0.82990 0.29470 0.02700
H 	H 	0.37730 0.81800 0.27710 -0.00500
C 	C 	0.43880 0.85980 0.27060 -0.24200
C 	C 	0.48010 0.87410 0.29690 0.03700
H 	H 	0.50490 0.89250 0.28070 -0.00900
C 	C 	0.43110 0.87480 0.21710 0.61700
C 	C 	0.46740 0.91110 0.20090 -0.93200
H 	H 	0.50050 0.89940 0.20870 0.27000
H 	H 	0.46150 0.94230 0.21780 0.26900
H 	H 	0.46440 0.91600 0.16540 0.26800
C 	C 	0.43700 0.82650 0.18520 -0.82700
H 	H 	0.47060 0.81410 0.18830 0.23900
H 	H 	0.43010 0.83410 0.15070 0.24500
H 	H 	0.41390 0.80160 0.19690 0.25900
C 	C 	0.37860 0.89270 0.20940 -0.89400
H 	H 	0.35560 0.86700 0.21950 0.27100
H 	H 	0.37350 0.90030 0.17460 0.27600
H 	H 	0.37300 0.92220 0.22900 0.25900
O 	O 	0.08642 0.88780 0.47354 -0.49000
O 	O 	0.04650 0.81769 0.48087 -0.40400
O 	O 	0.04531 0.82471 0.57989 -0.21400
S 	S 	0.96376 0.88903 0.62227 -0.01700
C 	C 	0.06710 0.85470 0.49760 0.41200
C 	C 	0.06810 0.86300 0.55130 -0.21200
H 	H 	0.10260 0.86640 0.56180 0.08200
H 	H 	0.05130 0.89440 0.55850 0.08900
C 	C 	0.04920 0.83475 0.62965 0.10300
C 	C 	0.01360 0.86227 0.65316 -0.08300
C 	C 	0.08970 0.81680 0.65620 -0.07800
C 	C 	0.09510 0.82990 0.70530 0.02800
H 	H 	0.12270 0.81800 0.72290 -0.00600
C 	C 	0.06120 0.85980 0.72940 -0.24400
C 	C 	0.01990 0.87410 0.70310 0.01400
H 	H 	0.99510 0.89250 0.71930 0.00700
C 	C 	0.06890 0.87480 0.78290 0.63600
C 	C 	0.03260 0.91110 0.79910 -0.99500
H 	H 	0.99950 0.89940 0.79130 0.29900
H 	H 	0.03850 0.94230 0.78220 0.28300
H 	H 	0.03560 0.91600 0.83460 0.28400
C 	C 	0.06300 0.82650 0.81480 -0.84000
H 	H 	0.02940 0.81410 0.81170 0.23900
H 	H 	0.06990 0.83410 0.84930 0.24700
H 	H 	0.08610 0.80160 0.80310 0.26200
C 	C 	0.12140 0.89270 0.79060 -0.91000
H 	H 	0.14440 0.86700 0.78050 0.27500
H 	H 	0.12650 0.90030 0.82540 0.28000
H 	H 	0.12700 0.92220 0.77100 0.26300
O 	O 	0.58642 0.38780 0.97354 -0.48900
O 	O 	0.54650 0.31769 0.98087 -0.40000
O 	O 	0.54531 0.32471 0.07989 -0.20800
S 	S 	0.46376 0.38903 0.12227 -0.03700
C 	C 	0.56710 0.35470 0.99760 0.43200
C 	C 	0.56810 0.36300 0.05130 -0.23400
H 	H 	0.60260 0.36640 0.06180 0.08600
H 	H 	0.55130 0.39440 0.05850 0.09400
C 	C 	0.54920 0.33475 0.12965 0.10100
C 	C 	0.51360 0.36227 0.15316 -0.07400
C 	C 	0.58970 0.31680 0.15620 -0.07700
C 	C 	0.59510 0.32990 0.20530 0.02600
H 	H 	0.62270 0.31800 0.22290 -0.00500
C 	C 	0.56120 0.35980 0.22940 -0.24000
C 	C 	0.51990 0.37410 0.20310 0.03500
H 	H 	0.49510 0.39250 0.21930 -0.01000
C 	C 	0.56890 0.37480 0.28290 0.61000
C 	C 	0.53260 0.41110 0.29910 -0.92200
H 	H 	0.49950 0.39940 0.29130 0.26600
H 	H 	0.53850 0.44230 0.28220 0.26200
H 	H 	0.53560 0.41600 0.33460 0.26400
C 	C 	0.56300 0.32650 0.31480 -0.82200
H 	H 	0.52940 0.31410 0.31170 0.23800
H 	H 	0.56990 0.33410 0.34930 0.24300
H 	H 	0.58610 0.30160 0.30310 0.25800
C 	C 	0.62140 0.39270 0.29060 -0.88600
H 	H 	0.64440 0.36700 0.28050 0.26900
H 	H 	0.62650 0.40030 0.32540 0.27200
H 	H 	0.62700 0.42220 0.27100 0.25500
O 	O 	0.58642 0.61220 0.52646 -0.48900
O 	O 	0.54650 0.68231 0.51913 -0.40000
O 	O 	0.54531 0.67529 0.42011 -0.20900
S 	S 	0.46376 0.61097 0.37773 -0.03700
C 	C 	0.56710 0.64530 0.50240 0.41300
C 	C 	0.56810 0.63700 0.44870 -0.21300
H 	H 	0.60260 0.63360 0.43820 0.08300
H 	H 	0.55130 0.60560 0.44150 0.09100
C 	C 	0.54920 0.66525 0.37035 0.10200
C 	C 	0.51360 0.63773 0.34684 -0.07400
C 	C 	0.58970 0.68320 0.34380 -0.07700
C 	C 	0.59510 0.67010 0.29470 0.02600
H 	H 	0.62270 0.68200 0.27710 -0.00400
C 	C 	0.56120 0.64020 0.27060 -0.23900
C 	C 	0.51990 0.62590 0.29690 0.03500
H 	H 	0.49510 0.60750 0.28070 -0.01000
C 	C 	0.56890 0.62520 0.21710 0.61000
C 	C 	0.53260 0.58890 0.20090 -0.92000
H 	H 	0.49950 0.60060 0.20870 0.26500
H 	H 	0.53850 0.55770 0.21780 0.26200
H 	H 	0.53560 0.58400 0.16540 0.26300
C 	C 	0.56300 0.67350 0.18520 -0.82200
H 	H 	0.52940 0.68590 0.18830 0.23800
H 	H 	0.56990 0.66590 0.15070 0.24300
H 	H 	0.58610 0.69840 0.19690 0.25700
C 	C 	0.62140 0.60730 0.20940 -0.88500
H 	H 	0.64440 0.63300 0.21950 0.26800
H 	H 	0.62650 0.59970 0.17460 0.27200
H 	H 	0.62700 0.57780 0.22900 0.25400
O 	O 	0.08642 0.11220 0.02646 -0.49100
O 	O 	0.04650 0.18231 0.01913 -0.40400
O 	O 	0.04531 0.17529 0.92011 -0.21400
S 	S 	0.96376 0.11097 0.87773 -0.02500
C 	C 	0.06710 0.14530 0.00240 0.39500
C 	C 	0.06810 0.13700 0.94870 -0.19200
H 	H 	0.10260 0.13360 0.93820 0.07900
H 	H 	0.05130 0.10560 0.94150 0.08400
C 	C 	0.04920 0.16525 0.87035 0.10200
C 	C 	0.01360 0.13773 0.84684 -0.08100
C 	C 	0.08970 0.18320 0.84380 -0.07600
C 	C 	0.09510 0.17010 0.79470 0.02500
H 	H 	0.12270 0.18200 0.77710 -0.00400
C 	C 	0.06120 0.14020 0.77060 -0.23800
C 	C 	0.01990 0.12590 0.79690 0.01100
H 	H 	0.99510 0.10750 0.78070 0.00600
C 	C 	0.06890 0.12520 0.71710 0.62100
C 	C 	0.03260 0.08890 0.70090 -0.96800
H 	H 	0.99950 0.10060 0.70870 0.28800
H 	H 	0.03850 0.05770 0.71780 0.26800
H 	H 	0.03560 0.08400 0.66540 0.27100
C 	C 	0.06300 0.17350 0.68520 -0.82700
H 	H 	0.02940 0.18590 0.68830 0.23500
H 	H 	0.06990 0.16590 0.65070 0.24300
H 	H 	0.08610 0.19840 0.69690 0.25800
C 	C 	0.12140 0.10730 0.70940 -0.89300
H 	H 	0.14440 0.13300 0.71950 0.27000
H 	H 	0.12650 0.09970 0.67460 0.27300
H 	H 	0.12700 0.07780 0.72900 0.25400
O 	O 	0.97354 0.41358 0.11220 -0.49000
O 	O 	0.98087 0.45350 0.18231 -0.40000
O 	O 	0.07989 0.45469 0.17529 -0.20800
S 	S 	0.12227 0.53624 0.11097 -0.04100
C 	C 	0.99760 0.43290 0.14530 0.43100
C 	C 	0.05130 0.43190 0.13700 -0.23300
H 	H 	0.06180 0.39740 0.13360 0.08600
H 	H 	0.05850 0.44870 0.10560 0.09300
C 	C 	0.12965 0.45080 0.16525 0.10100
C 	C 	0.15316 0.48640 0.13773 -0.07300
C 	C 	0.15620 0.41030 0.18320 -0.07600
C 	C 	0.20530 0.40490 0.17010 0.02500
H 	H 	0.22290 0.37730 0.18200 -0.00400
C 	C 	0.22940 0.43880 0.14020 -0.23700
C 	C 	0.20310 0.48010 0.12590 0.03300
H 	H 	0.21930 0.50490 0.10750 -0.01000
C 	C 	0.28290 0.43110 0.12520 0.60300
C 	C 	0.29910 0.46740 0.08890 -0.91000
H 	H 	0.29130 0.50050 0.10060 0.26200
H 	H 	0.28220 0.46150 0.05770 0.25600
H 	H 	0.33460 0.46440 0.08400 0.25800
C 	C 	0.31480 0.43700 0.17350 -0.81700
H 	H 	0.31170 0.47060 0.18590 0.23700
H 	H 	0.34930 0.43010 0.16590 0.24200
H 	H 	0.30310 0.41390 0.19840 0.25600
C 	C 	0.29060 0.37860 0.10730 -0.87800
H 	H 	0.28050 0.35560 0.13300 0.26600
H 	H 	0.32540 0.37350 0.09970 0.26900
H 	H 	0.27100 0.37300 0.07780 0.25000
O 	O 	0.47354 0.91358 0.61220 -0.48800
O 	O 	0.48087 0.95350 0.68231 -0.39500
O 	O 	0.57989 0.95469 0.67529 -0.20400
S 	S 	0.62227 0.03624 0.61097 -0.05200
C 	C 	0.49760 0.93290 0.64530 0.41500
C 	C 	0.55130 0.93190 0.63700 -0.21400
H 	H 	0.56180 0.89740 0.63360 0.08300
H 	H 	0.55850 0.94870 0.60560 0.09500
C 	C 	0.62965 0.95080 0.66525 0.10100
C 	C 	0.65316 0.98640 0.63773 -0.06600
C 	C 	0.65620 0.91030 0.68320 -0.07600
C 	C 	0.70530 0.90490 0.67010 0.02600
H 	H 	0.72290 0.87730 0.68200 -0.00400
C 	C 	0.72940 0.93880 0.64020 -0.23900
C 	C 	0.70310 0.98010 0.62590 0.05800
H 	H 	0.71930 0.00490 0.60750 -0.02600
C 	C 	0.78290 0.93110 0.62520 0.59400
C 	C 	0.79910 0.96740 0.58890 -0.86400
H 	H 	0.79130 0.00050 0.60060 0.24000
H 	H 	0.78220 0.96150 0.55770 0.25000
H 	H 	0.83460 0.96440 0.58400 0.25100
C 	C 	0.81480 0.93700 0.67350 -0.81300
H 	H 	0.81170 0.97060 0.68590 0.24100
H 	H 	0.84930 0.93010 0.66590 0.24300
H 	H 	0.80310 0.91390 0.69840 0.25600
C 	C 	0.79060 0.87860 0.60730 -0.87100
H 	H 	0.78050 0.85560 0.63300 0.26400
H 	H 	0.82540 0.87350 0.59970 0.26800
H 	H 	0.77100 0.87300 0.57780 0.25000
O 	O 	0.02646 0.91358 0.38780 -0.48800
O 	O 	0.01913 0.95350 0.31769 -0.39500
O 	O 	0.92011 0.95469 0.32471 -0.20500
S 	S 	0.87773 0.03624 0.38903 -0.05100
C 	C 	0.00240 0.93290 0.35470 0.39600
C 	C 	0.94870 0.93190 0.36300 -0.19300
H 	H 	0.93820 0.89740 0.36640 0.08000
H 	H 	0.94150 0.94870 0.39440 0.09200
C 	C 	0.87035 0.95080 0.33475 0.10200
C 	C 	0.84684 0.98640 0.36227 -0.06600
C 	C 	0.84380 0.91030 0.31680 -0.07600
C 	C 	0.79470 0.90490 0.32990 0.02600
H 	H 	0.77710 0.87730 0.31800 -0.00400
C 	C 	0.77060 0.93880 0.35980 -0.23900
C 	C 	0.79690 0.98010 0.37410 0.05800
H 	H 	0.78070 0.00490 0.39250 -0.02600
C 	C 	0.71710 0.93110 0.37480 0.59300
C 	C 	0.70090 0.96740 0.41110 -0.86300
H 	H 	0.70870 0.00050 0.39940 0.23900
H 	H 	0.71780 0.96150 0.44230 0.25000
H 	H 	0.66540 0.96440 0.41600 0.25000
C 	C 	0.68520 0.93700 0.32650 -0.81300
H 	H 	0.68830 0.97060 0.31410 0.24000
H 	H 	0.65070 0.93010 0.33410 0.24200
H 	H 	0.69690 0.91390 0.30160 0.25600
C 	C 	0.70940 0.87860 0.39270 -0.87100
H 	H 	0.71950 0.85560 0.36700 0.26400
H 	H 	0.67460 0.87350 0.40030 0.26800
H 	H 	0.72900 0.87300 0.42220 0.25000
O 	O 	0.52646 0.41358 0.88780 -0.48800
O 	O 	0.51913 0.45350 0.81769 -0.40000
O 	O 	0.42011 0.45469 0.82471 -0.20900
S 	S 	0.37773 0.53624 0.88903 -0.03300
C 	C 	0.50240 0.43290 0.85470 0.41400
C 	C 	0.44870 0.43190 0.86300 -0.21300
H 	H 	0.43820 0.39740 0.86640 0.08200
H 	H 	0.44150 0.44870 0.89440 0.09200
C 	C 	0.37035 0.45080 0.83475 0.10200
C 	C 	0.34684 0.48640 0.86227 -0.07500
C 	C 	0.34380 0.41030 0.81680 -0.07700
C 	C 	0.29470 0.40490 0.82990 0.02700
H 	H 	0.27710 0.37730 0.81800 -0.00500
C 	C 	0.27060 0.43880 0.85980 -0.24200
C 	C 	0.29690 0.48010 0.87410 0.03700
H 	H 	0.28070 0.50490 0.89250 -0.00900
C 	C 	0.21710 0.43110 0.87480 0.61700
C 	C 	0.20090 0.46740 0.91110 -0.93200
H 	H 	0.20870 0.50050 0.89940 0.27000
H 	H 	0.21780 0.46150 0.94230 0.26900
H 	H 	0.16540 0.46440 0.91600 0.26800
C 	C 	0.18520 0.43700 0.82650 -0.82700
H 	H 	0.18830 0.47060 0.81410 0.23900
H 	H 	0.15070 0.43010 0.83410 0.24500
H 	H 	0.19690 0.41390 0.80160 0.25900
C 	C 	0.20940 0.37860 0.89270 -0.89400
H 	H 	0.21950 0.35560 0.86700 0.27100
H 	H 	0.17460 0.37350 0.90030 0.27600
H 	H 	0.22900 0.37300 0.92220 0.25900
O 	O 	0.47354 0.08642 0.88780 -0.49000
O 	O 	0.48087 0.04650 0.81769 -0.40400
O 	O 	0.57989 0.04531 0.82471 -0.21400
S 	S 	0.62227 0.96376 0.88903 -0.01700
C 	C 	0.49760 0.06710 0.85470 0.41200
C 	C 	0.55130 0.06810 0.86300 -0.21200
H 	H 	0.56180 0.10260 0.86640 0.08200
H 	H 	0.55850 0.05130 0.89440 0.08900
C 	C 	0.62965 0.04920 0.83475 0.10300
C 	C 	0.65316 0.01360 0.86227 -0.08300
C 	C 	0.65620 0.08970 0.81680 -0.07800
C 	C 	0.70530 0.09510 0.82990 0.02800
H 	H 	0.72290 0.12270 0.81800 -0.00600
C 	C 	0.72940 0.06120 0.85980 -0.24400
C 	C 	0.70310 0.01990 0.87410 0.01400
H 	H 	0.71930 0.99510 0.89250 0.00700
C 	C 	0.78290 0.06890 0.87480 0.63600
C 	C 	0.79910 0.03260 0.91110 -0.99500
H 	H 	0.79130 0.99950 0.89940 0.29900
H 	H 	0.78220 0.03850 0.94230 0.28300
H 	H 	0.83460 0.03560 0.91600 0.28400
C 	C 	0.81480 0.06300 0.82650 -0.84000
H 	H 	0.81170 0.02940 0.81410 0.23900
H 	H 	0.84930 0.06990 0.83410 0.24700
H 	H 	0.80310 0.08610 0.80160 0.26200
C 	C 	0.79060 0.12140 0.89270 -0.91000
H 	H 	0.78050 0.14440 0.86700 0.27500
H 	H 	0.82540 0.12650 0.90030 0.28000
H 	H 	0.77100 0.12700 0.92220 0.26300
O 	O 	0.97354 0.58642 0.38780 -0.48900
O 	O 	0.98087 0.54650 0.31769 -0.40000
O 	O 	0.07989 0.54531 0.32471 -0.20800
S 	S 	0.12227 0.46376 0.38903 -0.03700
C 	C 	0.99760 0.56710 0.35470 0.43200
C 	C 	0.05130 0.56810 0.36300 -0.23400
H 	H 	0.06180 0.60260 0.36640 0.08600
H 	H 	0.05850 0.55130 0.39440 0.09400
C 	C 	0.12965 0.54920 0.33475 0.10100
C 	C 	0.15316 0.51360 0.36227 -0.07400
C 	C 	0.15620 0.58970 0.31680 -0.07700
C 	C 	0.20530 0.59510 0.32990 0.02600
H 	H 	0.22290 0.62270 0.31800 -0.00500
C 	C 	0.22940 0.56120 0.35980 -0.24000
C 	C 	0.20310 0.51990 0.37410 0.03500
H 	H 	0.21930 0.49510 0.39250 -0.01000
C 	C 	0.28290 0.56890 0.37480 0.61000
C 	C 	0.29910 0.53260 0.41110 -0.92200
H 	H 	0.29130 0.49950 0.39940 0.26600
H 	H 	0.28220 0.53850 0.44230 0.26200
H 	H 	0.33460 0.53560 0.41600 0.26400
C 	C 	0.31480 0.56300 0.32650 -0.82200
H 	H 	0.31170 0.52940 0.31410 0.23800
H 	H 	0.34930 0.56990 0.33410 0.24300
H 	H 	0.30310 0.58610 0.30160 0.25800
C 	C 	0.29060 0.62140 0.39270 -0.88600
H 	H 	0.28050 0.64440 0.36700 0.26900
H 	H 	0.32540 0.62650 0.40030 0.27200
H 	H 	0.27100 0.62700 0.42220 0.25500
O 	O 	0.52646 0.58642 0.61220 -0.48900
O 	O 	0.51913 0.54650 0.68231 -0.40000
O 	O 	0.42011 0.54531 0.67529 -0.20900
S 	S 	0.37773 0.46376 0.61097 -0.03700
C 	C 	0.50240 0.56710 0.64530 0.41300
C 	C 	0.44870 0.56810 0.63700 -0.21300
H 	H 	0.43820 0.60260 0.63360 0.08300
H 	H 	0.44150 0.55130 0.60560 0.09100
C 	C 	0.37035 0.54920 0.66525 0.10200
C 	C 	0.34684 0.51360 0.63773 -0.07400
C 	C 	0.34380 0.58970 0.68320 -0.07700
C 	C 	0.29470 0.59510 0.67010 0.02600
H 	H 	0.27710 0.62270 0.68200 -0.00400
C 	C 	0.27060 0.56120 0.64020 -0.23900
C 	C 	0.29690 0.51990 0.62590 0.03500
H 	H 	0.28070 0.49510 0.60750 -0.01000
C 	C 	0.21710 0.56890 0.62520 0.61000
C 	C 	0.20090 0.53260 0.58890 -0.92000
H 	H 	0.20870 0.49950 0.60060 0.26500
H 	H 	0.21780 0.53850 0.55770 0.26200
H 	H 	0.16540 0.53560 0.58400 0.26300
C 	C 	0.18520 0.56300 0.67350 -0.82200
H 	H 	0.18830 0.52940 0.68590 0.23800
H 	H 	0.15070 0.56990 0.66590 0.24300
H 	H 	0.19690 0.58610 0.69840 0.25700
C 	C 	0.20940 0.62140 0.60730 -0.88500
H 	H 	0.21950 0.64440 0.63300 0.26800
H 	H 	0.17460 0.62650 0.59970 0.27200
H 	H 	0.22900 0.62700 0.57780 0.25400
O 	O 	0.02646 0.08642 0.11220 -0.49100
O 	O 	0.01913 0.04650 0.18231 -0.40400
O 	O 	0.92011 0.04531 0.17529 -0.21400
S 	S 	0.87773 0.96376 0.11097 -0.02500
C 	C 	0.00240 0.06710 0.14530 0.39500
C 	C 	0.94870 0.06810 0.13700 -0.19200
H 	H 	0.93820 0.10260 0.13360 0.07900
H 	H 	0.94150 0.05130 0.10560 0.08400
C 	C 	0.87035 0.04920 0.16525 0.10200
C 	C 	0.84684 0.01360 0.13773 -0.08100
C 	C 	0.84380 0.08970 0.18320 -0.07600
C 	C 	0.79470 0.09510 0.17010 0.02500
H 	H 	0.77710 0.12270 0.18200 -0.00400
C 	C 	0.77060 0.06120 0.14020 -0.23800
C 	C 	0.79690 0.01990 0.12590 0.01100
H 	H 	0.78070 0.99510 0.10750 0.00600
C 	C 	0.71710 0.06890 0.12520 0.62100
C 	C 	0.70090 0.03260 0.08890 -0.96800
H 	H 	0.70870 0.99950 0.10060 0.28800
H 	H 	0.71780 0.03850 0.05770 0.26800
H 	H 	0.66540 0.03560 0.08400 0.27100
C 	C 	0.68520 0.06300 0.17350 -0.82700
H 	H 	0.68830 0.02940 0.18590 0.23500
H 	H 	0.65070 0.06990 0.16590 0.24300
H 	H 	0.69690 0.08610 0.19840 0.25800
C 	C 	0.70940 0.12140 0.10730 -0.89300
H 	H 	0.71950 0.14440 0.13300 0.27000
H 	H 	0.67460 0.12650 0.09970 0.27300
H 	H 	0.72900 0.12700 0.07780 0.25400
O 	O 	0.22354 0.36220 0.66358 -0.48900
O 	O 	0.23087 0.43231 0.70350 -0.40000
O 	O 	0.32989 0.42529 0.70469 -0.20900
S 	S 	0.37227 0.36097 0.78624 -0.03700
C 	C 	0.24760 0.39530 0.68290 0.41300
C 	C 	0.30130 0.38700 0.68190 -0.21300
H 	H 	0.31180 0.38360 0.64740 0.08300
H 	H 	0.30850 0.35560 0.69870 0.09100
C 	C 	0.37965 0.41525 0.70080 0.10200
C 	C 	0.40316 0.38773 0.73640 -0.07400
C 	C 	0.40620 0.43320 0.66030 -0.07700
C 	C 	0.45530 0.42010 0.65490 0.02600
H 	H 	0.47290 0.43200 0.62730 -0.00500
C 	C 	0.47940 0.39020 0.68880 -0.24000
C 	C 	0.45310 0.37590 0.73010 0.03500
H 	H 	0.46930 0.35750 0.75490 -0.01000
C 	C 	0.53290 0.37520 0.68110 0.61000
C 	C 	0.54910 0.33890 0.71740 -0.92100
H 	H 	0.54130 0.35060 0.75050 0.26600
H 	H 	0.53220 0.30770 0.71150 0.26200
H 	H 	0.58460 0.33400 0.71440 0.26300
C 	C 	0.56480 0.42350 0.68700 -0.82200
H 	H 	0.56170 0.43590 0.72060 0.23800
H 	H 	0.59930 0.41590 0.68010 0.24300
H 	H 	0.55310 0.44840 0.66390 0.25700
C 	C 	0.54060 0.35730 0.62860 -0.88600
H 	H 	0.53050 0.38300 0.60560 0.26900
H 	H 	0.57540 0.34970 0.62350 0.27200
H 	H 	0.52100 0.32780 0.62300 0.25400
O 	O 	0.72354 0.86220 0.16358 -0.48900
O 	O 	0.73087 0.93231 0.20350 -0.39500
O 	O 	0.82989 0.92529 0.20469 -0.20500
S 	S 	0.87227 0.86097 0.28624 -0.03700
C 	C 	0.74760 0.89530 0.18290 0.41200
C 	C 	0.80130 0.88700 0.18190 -0.21300
H 	H 	0.81180 0.88360 0.14740 0.08200
H 	H 	0.80850 0.85560 0.19870 0.09100
C 	C 	0.87965 0.91525 0.20080 0.09800
C 	C 	0.90316 0.88773 0.23640 -0.06600
C 	C 	0.90620 0.93320 0.16030 -0.06900
C 	C 	0.95530 0.92010 0.15490 0.01200
H 	H 	0.97290 0.93200 0.12730 0.00700
C 	C 	0.97940 0.89020 0.18880 -0.20700
C 	C 	0.95310 0.87590 0.23010 0.02100
H 	H 	0.96930 0.85750 0.25490 0.00100
C 	C 	0.03290 0.87520 0.18110 0.57000
C 	C 	0.04910 0.83890 0.21740 -0.88100
H 	H 	0.04130 0.85060 0.25050 0.25100
H 	H 	0.03220 0.80770 0.21150 0.24600
H 	H 	0.08460 0.83400 0.21440 0.25200
C 	C 	0.06480 0.92350 0.18700 -0.79900
H 	H 	0.06170 0.93590 0.22060 0.23200
H 	H 	0.09930 0.91590 0.18010 0.23900
H 	H 	0.05310 0.94840 0.16390 0.25100
C 	C 	0.04060 0.85730 0.12860 -0.84800
H 	H 	0.03050 0.88300 0.10560 0.25300
H 	H 	0.07540 0.84970 0.12350 0.26100
H 	H 	0.02100 0.82780 0.12300 0.23800
O 	O 	0.27646 0.63780 0.16358 -0.49000
O 	O 	0.26913 0.56769 0.20350 -0.40000
O 	O 	0.17011 0.57471 0.20469 -0.21000
S 	S 	0.12773 0.63903 0.28624 -0.03700
C 	C 	0.25240 0.60470 0.18290 0.41300
C 	C 	0.19870 0.61300 0.18190 -0.21200
H 	H 	0.18820 0.61640 0.14740 0.08200
H 	H 	0.19150 0.64440 0.19870 0.09100
C 	C 	0.12035 0.58475 0.20080 0.10700
C 	C 	0.09684 0.61227 0.23640 -0.08200
C 	C 	0.09380 0.56680 0.16030 -0.08400
C 	C 	0.04470 0.57990 0.15490 0.04100
H 	H 	0.02710 0.56800 0.12730 -0.01600
C 	C 	0.02060 0.60980 0.18880 -0.27300
C 	C 	0.04690 0.62410 0.23010 0.05000
H 	H 	0.03070 0.64250 0.25490 -0.02100
C 	C 	0.96710 0.62480 0.18110 0.65200
C 	C 	0.95090 0.66110 0.21740 -0.96300
H 	H 	0.95870 0.64940 0.25050 0.28200
H 	H 	0.96780 0.69230 0.21150 0.27800
H 	H 	0.91540 0.66600 0.21440 0.27500
C 	C 	0.93520 0.57650 0.18700 -0.85200
H 	H 	0.93830 0.56410 0.22060 0.24900
H 	H 	0.90070 0.58410 0.18010 0.25200
H 	H 	0.94690 0.55160 0.16390 0.26900
C 	C 	0.95940 0.64270 0.12860 -0.92200
H 	H 	0.96950 0.61700 0.10560 0.28200
H 	H 	0.92460 0.65030 0.12350 0.28200
H 	H 	0.97900 0.67220 0.12300 0.26800
O 	O 	0.77646 0.13780 0.66358 -0.49000
O 	O 	0.76913 0.06769 0.70350 -0.40300
O 	O 	0.67011 0.07471 0.70469 -0.21100
S 	S 	0.62773 0.13903 0.78624 -0.03700
C 	C 	0.75240 0.10470 0.68290 0.41400
C 	C 	0.69870 0.11300 0.68190 -0.21400
H 	H 	0.68820 0.11640 0.64740 0.08300
H 	H 	0.69150 0.14440 0.69870 0.09100
C 	C 	0.62035 0.08475 0.70080 0.10000
C 	C 	0.59684 0.11227 0.73640 -0.07400
C 	C 	0.59380 0.06680 0.66030 -0.07600
C 	C 	0.54470 0.07990 0.65490 0.02300
H 	H 	0.52710 0.06800 0.62730 -0.00600
C 	C 	0.52060 0.10980 0.68880 -0.23800
C 	C 	0.54690 0.12410 0.73010 0.03300
H 	H 	0.53070 0.14250 0.75490 -0.00900
C 	C 	0.46710 0.12480 0.68110 0.60500
C 	C 	0.45090 0.16110 0.71740 -0.91600
H 	H 	0.45870 0.14940 0.75050 0.26400
H 	H 	0.46780 0.19230 0.71150 0.26100
H 	H 	0.41540 0.16600 0.71440 0.26200
C 	C 	0.43520 0.07650 0.68700 -0.81300
H 	H 	0.43830 0.06410 0.72060 0.23300
H 	H 	0.40070 0.08410 0.68010 0.23900
H 	H 	0.44690 0.05160 0.66390 0.25100
C 	C 	0.45940 0.14270 0.62860 -0.88100
H 	H 	0.46950 0.11700 0.60560 0.26600
H 	H 	0.42460 0.15030 0.62350 0.27000
H 	H 	0.47900 0.17220 0.62300 0.25300
O 	O 	0.72354 0.13780 0.33642 -0.49000
O 	O 	0.73087 0.06769 0.29650 -0.40400
O 	O 	0.82989 0.07471 0.29531 -0.21000
S 	S 	0.87227 0.13903 0.21376 -0.03600
C 	C 	0.74760 0.10470 0.31710 0.41400
C 	C 	0.80130 0.11300 0.31810 -0.21400
H 	H 	0.81180 0.11640 0.35260 0.08300
H 	H 	0.80850 0.14440 0.30130 0.09200
C 	C 	0.87965 0.08475 0.29920 0.09500
C 	C 	0.90316 0.11227 0.26360 -0.06600
C 	C 	0.90620 0.06680 0.33970 -0.06800
C 	C 	0.95530 0.07990 0.34510 0.00800
H 	H 	0.97290 0.06800 0.37270 0.00600
C 	C 	0.97940 0.10980 0.31120 -0.20500
C 	C 	0.95310 0.12410 0.26990 0.01800
H 	H 	0.96930 0.14250 0.24510 0.00200
C 	C 	0.03290 0.12480 0.31890 0.56300
C 	C 	0.04910 0.16110 0.28260 -0.87500
H 	H 	0.04130 0.14940 0.24950 0.24900
H 	H 	0.03220 0.19230 0.28850 0.24500
H 	H 	0.08460 0.16600 0.28560 0.25000
C 	C 	0.06480 0.07650 0.31300 -0.78300
H 	H 	0.06170 0.06410 0.27940 0.22300
H 	H 	0.09930 0.08410 0.31990 0.23100
H 	H 	0.05310 0.05160 0.33610 0.24000
C 	C 	0.04060 0.14270 0.37140 -0.84200
H 	H 	0.03050 0.11700 0.39440 0.25100
H 	H 	0.07540 0.15030 0.37650 0.25900
H 	H 	0.02100 0.17220 0.37700 0.23700
O 	O 	0.22354 0.63780 0.83642 -0.48900
O 	O 	0.23087 0.56769 0.79650 -0.40000
O 	O 	0.32989 0.57471 0.79531 -0.20900
S 	S 	0.37227 0.63903 0.71376 -0.03700
C 	C 	0.24760 0.60470 0.81710 0.41400
C 	C 	0.30130 0.61300 0.81810 -0.21300
H 	H 	0.31180 0.61640 0.85260 0.08300
H 	H 	0.30850 0.64440 0.80130 0.09100
C 	C 	0.37965 0.58475 0.79920 0.10200
C 	C 	0.40316 0.61227 0.76360 -0.07500
C 	C 	0.40620 0.56680 0.83970 -0.07700
C 	C 	0.45530 0.57990 0.84510 0.02700
H 	H 	0.47290 0.56800 0.87270 -0.00400
C 	C 	0.47940 0.60980 0.81120 -0.24000
C 	C 	0.45310 0.62410 0.76990 0.03600
H 	H 	0.46930 0.64250 0.74510 -0.01000
C 	C 	0.53290 0.62480 0.81890 0.61200
C 	C 	0.54910 0.66110 0.78260 -0.92300
H 	H 	0.54130 0.64940 0.74950 0.26700
H 	H 	0.53220 0.69230 0.78850 0.26300
H 	H 	0.58460 0.66600 0.78560 0.26400
C 	C 	0.56480 0.57650 0.81300 -0.82400
H 	H 	0.56170 0.56410 0.77940 0.23900
H 	H 	0.59930 0.58410 0.81990 0.24400
H 	H 	0.55310 0.55160 0.83610 0.25800
C 	C 	0.54060 0.64270 0.87140 -0.88900
H 	H 	0.53050 0.61700 0.89440 0.27100
H 	H 	0.57540 0.65030 0.87650 0.27300
H 	H 	0.52100 0.67220 0.87700 0.25700
O 	O 	0.77646 0.86220 0.83642 -0.48800
O 	O 	0.76913 0.93231 0.79650 -0.39500
O 	O 	0.67011 0.92529 0.79531 -0.20600
S 	S 	0.62773 0.86097 0.71376 -0.03700
C 	C 	0.75240 0.89530 0.81710 0.41300
C 	C 	0.69870 0.88700 0.81810 -0.21300
H 	H 	0.68820 0.88360 0.85260 0.08300
H 	H 	0.69150 0.85560 0.80130 0.09100
C 	C 	0.62035 0.91525 0.79920 0.10400
C 	C 	0.59684 0.88773 0.76360 -0.07500
C 	C 	0.59380 0.93320 0.83970 -0.07800
C 	C 	0.54470 0.92010 0.84510 0.03000
H 	H 	0.52710 0.93200 0.87270 -0.00300
C 	C 	0.52060 0.89020 0.81120 -0.24200
C 	C 	0.54690 0.87590 0.76990 0.03800
H 	H 	0.53070 0.85750 0.74510 -0.01100
C 	C 	0.46710 0.87520 0.81890 0.61800
C 	C 	0.45090 0.83890 0.78260 -0.92900
H 	H 	0.45870 0.85060 0.74950 0.26800
H 	H 	0.46780 0.80770 0.78850 0.26500
H 	H 	0.41540 0.83400 0.78560 0.26600
C 	C 	0.43520 0.92350 0.81300 -0.83400
H 	H 	0.43830 0.93590 0.77940 0.24400
H 	H 	0.40070 0.91590 0.81990 0.24800
H 	H 	0.44690 0.94840 0.83610 0.26500
C 	C 	0.45940 0.85730 0.87140 -0.89500
H 	H 	0.46950 0.88300 0.89440 0.27400
H 	H 	0.42460 0.84970 0.87650 0.27500
H 	H 	0.47900 0.82780 0.87700 0.25800
O 	O 	0.27646 0.36220 0.33642 -0.48900
O 	O 	0.26913 0.43231 0.29650 -0.40000
O 	O 	0.17011 0.42529 0.29531 -0.21000
S 	S 	0.12773 0.36097 0.21376 -0.03600
C 	C 	0.25240 0.39530 0.31710 0.41300
C 	C 	0.19870 0.38700 0.31810 -0.21200
H 	H 	0.18820 0.38360 0.35260 0.08200
H 	H 	0.19150 0.35560 0.30130 0.09100
C 	C 	0.12035 0.41525 0.29920 0.10700
C 	C 	0.09684 0.38773 0.26360 -0.08200
C 	C 	0.09380 0.43320 0.33970 -0.08400
C 	C 	0.04470 0.42010 0.34510 0.04200
H 	H 	0.02710 0.43200 0.37270 -0.01600
C 	C 	0.02060 0.39020 0.31120 -0.27400
C 	C 	0.04690 0.37590 0.26990 0.05100
H 	H 	0.03070 0.35750 0.24510 -0.02100
C 	C 	0.96710 0.37520 0.31890 0.65400
C 	C 	0.95090 0.33890 0.28260 -0.96600
H 	H 	0.95870 0.35060 0.24950 0.28300
H 	H 	0.96780 0.30770 0.28850 0.27900
H 	H 	0.91540 0.33400 0.28560 0.27600
C 	C 	0.93520 0.42350 0.31300 -0.85400
H 	H 	0.93830 0.43590 0.27940 0.24900
H 	H 	0.90070 0.41590 0.31990 0.25200
H 	H 	0.94690 0.44840 0.33610 0.26900
C 	C 	0.95940 0.35730 0.37140 -0.92600
H 	H 	0.96950 0.38300 0.39440 0.28500
H 	H 	0.92460 0.34970 0.37650 0.28400
H 	H 	0.97900 0.32780 0.37700 0.27100
O 	O 	0.36220 0.66358 0.22354 -0.48900
O 	O 	0.43231 0.70350 0.23087 -0.40000
O 	O 	0.42529 0.70469 0.32989 -0.20900
S 	S 	0.36097 0.78624 0.37227 -0.03700
C 	C 	0.39530 0.68290 0.24760 0.41300
C 	C 	0.38700 0.68190 0.30130 -0.21300
H 	H 	0.38360 0.64740 0.31180 0.08300
H 	H 	0.35560 0.69870 0.30850 0.09100
C 	C 	0.41525 0.70080 0.37965 0.10200
C 	C 	0.38773 0.73640 0.40316 -0.07400
C 	C 	0.43320 0.66030 0.40620 -0.07700
C 	C 	0.42010 0.65490 0.45530 0.02600
H 	H 	0.43200 0.62730 0.47290 -0.00500
C 	C 	0.39020 0.68880 0.47940 -0.24000
C 	C 	0.37590 0.73010 0.45310 0.03500
H 	H 	0.35750 0.75490 0.46930 -0.01000
C 	C 	0.37520 0.68110 0.53290 0.61000
C 	C 	0.33890 0.71740 0.54910 -0.92100
H 	H 	0.35060 0.75050 0.54130 0.26600
H 	H 	0.30770 0.71150 0.53220 0.26200
H 	H 	0.33400 0.71440 0.58460 0.26300
C 	C 	0.42350 0.68700 0.56480 -0.82200
H 	H 	0.43590 0.72060 0.56170 0.23800
H 	H 	0.41590 0.68010 0.59930 0.24300
H 	H 	0.44840 0.66390 0.55310 0.25700
C 	C 	0.35730 0.62860 0.54060 -0.88600
H 	H 	0.38300 0.60560 0.53050 0.26900
H 	H 	0.34970 0.62350 0.57540 0.27200
H 	H 	0.32780 0.62300 0.52100 0.25400
O 	O 	0.86220 0.16358 0.72354 -0.48900
O 	O 	0.93231 0.20350 0.73087 -0.39500
O 	O 	0.92529 0.20469 0.82989 -0.20500
S 	S 	0.86097 0.28624 0.87227 -0.03700
C 	C 	0.89530 0.18290 0.74760 0.41200
C 	C 	0.88700 0.18190 0.80130 -0.21300
H 	H 	0.88360 0.14740 0.81180 0.08200
H 	H 	0.85560 0.19870 0.80850 0.09100
C 	C 	0.91525 0.20080 0.87965 0.09800
C 	C 	0.88773 0.23640 0.90316 -0.06600
C 	C 	0.93320 0.16030 0.90620 -0.06900
C 	C 	0.92010 0.15490 0.95530 0.01200
H 	H 	0.93200 0.12730 0.97290 0.00700
C 	C 	0.89020 0.18880 0.97940 -0.20700
C 	C 	0.87590 0.23010 0.95310 0.02100
H 	H 	0.85750 0.25490 0.96930 0.00100
C 	C 	0.87520 0.18110 0.03290 0.57000
C 	C 	0.83890 0.21740 0.04910 -0.88100
H 	H 	0.85060 0.25050 0.04130 0.25100
H 	H 	0.80770 0.21150 0.03220 0.24600
H 	H 	0.83400 0.21440 0.08460 0.25200
C 	C 	0.92350 0.18700 0.06480 -0.79900
H 	H 	0.93590 0.22060 0.06170 0.23200
H 	H 	0.91590 0.18010 0.09930 0.23900
H 	H 	0.94840 0.16390 0.05310 0.25100
C 	C 	0.85730 0.12860 0.04060 -0.84800
H 	H 	0.88300 0.10560 0.03050 0.25300
H 	H 	0.84970 0.12350 0.07540 0.26100
H 	H 	0.82780 0.12300 0.02100 0.23800
O 	O 	0.63780 0.16358 0.27646 -0.49000
O 	O 	0.56769 0.20350 0.26913 -0.40000
O 	O 	0.57471 0.20469 0.17011 -0.21000
S 	S 	0.63903 0.28624 0.12773 -0.03700
C 	C 	0.60470 0.18290 0.25240 0.41300
C 	C 	0.61300 0.18190 0.19870 -0.21200
H 	H 	0.61640 0.14740 0.18820 0.08200
H 	H 	0.64440 0.19870 0.19150 0.09100
C 	C 	0.58475 0.20080 0.12035 0.10700
C 	C 	0.61227 0.23640 0.09684 -0.08200
C 	C 	0.56680 0.16030 0.09380 -0.08400
C 	C 	0.57990 0.15490 0.04470 0.04100
H 	H 	0.56800 0.12730 0.02710 -0.01600
C 	C 	0.60980 0.18880 0.02060 -0.27300
C 	C 	0.62410 0.23010 0.04690 0.05000
H 	H 	0.64250 0.25490 0.03070 -0.02100
C 	C 	0.62480 0.18110 0.96710 0.65200
C 	C 	0.66110 0.21740 0.95090 -0.96300
H 	H 	0.64940 0.25050 0.95870 0.28200
H 	H 	0.69230 0.21150 0.96780 0.27800
H 	H 	0.66600 0.21440 0.91540 0.27500
C 	C 	0.57650 0.18700 0.93520 -0.85200
H 	H 	0.56410 0.22060 0.93830 0.24900
H 	H 	0.58410 0.18010 0.90070 0.25200
H 	H 	0.55160 0.16390 0.94690 0.26900
C 	C 	0.64270 0.12860 0.95940 -0.92200
H 	H 	0.61700 0.10560 0.96950 0.28200
H 	H 	0.65030 0.12350 0.92460 0.28200
H 	H 	0.67220 0.12300 0.97900 0.26800
O 	O 	0.13780 0.66358 0.77646 -0.49000
O 	O 	0.06769 0.70350 0.76913 -0.40300
O 	O 	0.07471 0.70469 0.67011 -0.21100
S 	S 	0.13903 0.78624 0.62773 -0.03700
C 	C 	0.10470 0.68290 0.75240 0.41400
C 	C 	0.11300 0.68190 0.69870 -0.21400
H 	H 	0.11640 0.64740 0.68820 0.08300
H 	H 	0.14440 0.69870 0.69150 0.09100
C 	C 	0.08475 0.70080 0.62035 0.10000
C 	C 	0.11227 0.73640 0.59684 -0.07400
C 	C 	0.06680 0.66030 0.59380 -0.07600
C 	C 	0.07990 0.65490 0.54470 0.02300
H 	H 	0.06800 0.62730 0.52710 -0.00600
C 	C 	0.10980 0.68880 0.52060 -0.23800
C 	C 	0.12410 0.73010 0.54690 0.03300
H 	H 	0.14250 0.75490 0.53070 -0.00900
C 	C 	0.12480 0.68110 0.46710 0.60500
C 	C 	0.16110 0.71740 0.45090 -0.91600
H 	H 	0.14940 0.75050 0.45870 0.26400
H 	H 	0.19230 0.71150 0.46780 0.26100
H 	H 	0.16600 0.71440 0.41540 0.26200
C 	C 	0.07650 0.68700 0.43520 -0.81300
H 	H 	0.06410 0.72060 0.43830 0.23300
H 	H 	0.08410 0.68010 0.40070 0.23900
H 	H 	0.05160 0.66390 0.44690 0.25100
C 	C 	0.14270 0.62860 0.45940 -0.88100
H 	H 	0.11700 0.60560 0.46950 0.26600
H 	H 	0.15030 0.62350 0.42460 0.27000
H 	H 	0.17220 0.62300 0.47900 0.25300
O 	O 	0.13780 0.33642 0.72354 -0.49000
O 	O 	0.06769 0.29650 0.73087 -0.40400
O 	O 	0.07471 0.29531 0.82989 -0.21000
S 	S 	0.13903 0.21376 0.87227 -0.03600
C 	C 	0.10470 0.31710 0.74760 0.41400
C 	C 	0.11300 0.31810 0.80130 -0.21400
H 	H 	0.11640 0.35260 0.81180 0.08300
H 	H 	0.14440 0.30130 0.80850 0.09200
C 	C 	0.08475 0.29920 0.87965 0.09500
C 	C 	0.11227 0.26360 0.90316 -0.06600
C 	C 	0.06680 0.33970 0.90620 -0.06800
C 	C 	0.07990 0.34510 0.95530 0.00800
H 	H 	0.06800 0.37270 0.97290 0.00600
C 	C 	0.10980 0.31120 0.97940 -0.20500
C 	C 	0.12410 0.26990 0.95310 0.01800
H 	H 	0.14250 0.24510 0.96930 0.00200
C 	C 	0.12480 0.31890 0.03290 0.56300
C 	C 	0.16110 0.28260 0.04910 -0.87500
H 	H 	0.14940 0.24950 0.04130 0.24900
H 	H 	0.19230 0.28850 0.03220 0.24500
H 	H 	0.16600 0.28560 0.08460 0.25000
C 	C 	0.07650 0.31300 0.06480 -0.78300
H 	H 	0.06410 0.27940 0.06170 0.22300
H 	H 	0.08410 0.31990 0.09930 0.23100
H 	H 	0.05160 0.33610 0.05310 0.24000
C 	C 	0.14270 0.37140 0.04060 -0.84200
H 	H 	0.11700 0.39440 0.03050 0.25100
H 	H 	0.15030 0.37650 0.07540 0.25900
H 	H 	0.17220 0.37700 0.02100 0.23700
O 	O 	0.63780 0.83642 0.22354 -0.48900
O 	O 	0.56769 0.79650 0.23087 -0.40000
O 	O 	0.57471 0.79531 0.32989 -0.20900
S 	S 	0.63903 0.71376 0.37227 -0.03700
C 	C 	0.60470 0.81710 0.24760 0.41400
C 	C 	0.61300 0.81810 0.30130 -0.21300
H 	H 	0.61640 0.85260 0.31180 0.08300
H 	H 	0.64440 0.80130 0.30850 0.09100
C 	C 	0.58475 0.79920 0.37965 0.10200
C 	C 	0.61227 0.76360 0.40316 -0.07500
C 	C 	0.56680 0.83970 0.40620 -0.07700
C 	C 	0.57990 0.84510 0.45530 0.02700
H 	H 	0.56800 0.87270 0.47290 -0.00400
C 	C 	0.60980 0.81120 0.47940 -0.24000
C 	C 	0.62410 0.76990 0.45310 0.03600
H 	H 	0.64250 0.74510 0.46930 -0.01000
C 	C 	0.62480 0.81890 0.53290 0.61200
C 	C 	0.66110 0.78260 0.54910 -0.92300
H 	H 	0.64940 0.74950 0.54130 0.26700
H 	H 	0.69230 0.78850 0.53220 0.26300
H 	H 	0.66600 0.78560 0.58460 0.26400
C 	C 	0.57650 0.81300 0.56480 -0.82400
H 	H 	0.56410 0.77940 0.56170 0.23900
H 	H 	0.58410 0.81990 0.59930 0.24400
H 	H 	0.55160 0.83610 0.55310 0.25800
C 	C 	0.64270 0.87140 0.54060 -0.88900
H 	H 	0.61700 0.89440 0.53050 0.27100
H 	H 	0.65030 0.87650 0.57540 0.27300
H 	H 	0.67220 0.87700 0.52100 0.25700
O 	O 	0.86220 0.83642 0.77646 -0.48800
O 	O 	0.93231 0.79650 0.76913 -0.39500
O 	O 	0.92529 0.79531 0.67011 -0.20600
S 	S 	0.86097 0.71376 0.62773 -0.03700
C 	C 	0.89530 0.81710 0.75240 0.41300
C 	C 	0.88700 0.81810 0.69870 -0.21300
H 	H 	0.88360 0.85260 0.68820 0.08300
H 	H 	0.85560 0.80130 0.69150 0.09100
C 	C 	0.91525 0.79920 0.62035 0.10400
C 	C 	0.88773 0.76360 0.59684 -0.07500
C 	C 	0.93320 0.83970 0.59380 -0.07800
C 	C 	0.92010 0.84510 0.54470 0.03000
H 	H 	0.93200 0.87270 0.52710 -0.00300
C 	C 	0.89020 0.81120 0.52060 -0.24200
C 	C 	0.87590 0.76990 0.54690 0.03800
H 	H 	0.85750 0.74510 0.53070 -0.01100
C 	C 	0.87520 0.81890 0.46710 0.61800
C 	C 	0.83890 0.78260 0.45090 -0.92900
H 	H 	0.85060 0.74950 0.45870 0.26800
H 	H 	0.80770 0.78850 0.46780 0.26500
H 	H 	0.83400 0.78560 0.41540 0.26600
C 	C 	0.92350 0.81300 0.43520 -0.83400
H 	H 	0.93590 0.77940 0.43830 0.24400
H 	H 	0.91590 0.81990 0.40070 0.24800
H 	H 	0.94840 0.83610 0.44690 0.26500
C 	C 	0.85730 0.87140 0.45940 -0.89500
H 	H 	0.88300 0.89440 0.46950 0.27400
H 	H 	0.84970 0.87650 0.42460 0.27500
H 	H 	0.82780 0.87700 0.47900 0.25800
O 	O 	0.36220 0.33642 0.27646 -0.48900
O 	O 	0.43231 0.29650 0.26913 -0.40000
O 	O 	0.42529 0.29531 0.17011 -0.21000
S 	S 	0.36097 0.21376 0.12773 -0.03600
C 	C 	0.39530 0.31710 0.25240 0.41300
C 	C 	0.38700 0.31810 0.19870 -0.21200
H 	H 	0.38360 0.35260 0.18820 0.08200
H 	H 	0.35560 0.30130 0.19150 0.09100
C 	C 	0.41525 0.29920 0.12035 0.10700
C 	C 	0.38773 0.26360 0.09684 -0.08200
C 	C 	0.43320 0.33970 0.09380 -0.08400
C 	C 	0.42010 0.34510 0.04470 0.04200
H 	H 	0.43200 0.37270 0.02710 -0.01600
C 	C 	0.39020 0.31120 0.02060 -0.27400
C 	C 	0.37590 0.26990 0.04690 0.05100
H 	H 	0.35750 0.24510 0.03070 -0.02100
C 	C 	0.37520 0.31890 0.96710 0.65400
C 	C 	0.33890 0.28260 0.95090 -0.96600
H 	H 	0.35060 0.24950 0.95870 0.28300
H 	H 	0.30770 0.28850 0.96780 0.27900
H 	H 	0.33400 0.28560 0.91540 0.27600
C 	C 	0.42350 0.31300 0.93520 -0.85400
H 	H 	0.43590 0.27940 0.93830 0.24900
H 	H 	0.41590 0.31990 0.90070 0.25200
H 	H 	0.44840 0.33610 0.94690 0.26900
C 	C 	0.35730 0.37140 0.95940 -0.92600
H 	H 	0.38300 0.39440 0.96950 0.28500
H 	H 	0.34970 0.37650 0.92460 0.28400
H 	H 	0.32780 0.37700 0.97900 0.27100
O 	O 	0.66358 0.22354 0.36220 -0.48900
O 	O 	0.70350 0.23087 0.43231 -0.40000
O 	O 	0.70469 0.32989 0.42529 -0.20900
S 	S 	0.78624 0.37227 0.36097 -0.03700
C 	C 	0.68290 0.24760 0.39530 0.41300
C 	C 	0.68190 0.30130 0.38700 -0.21300
H 	H 	0.64740 0.31180 0.38360 0.08300
H 	H 	0.69870 0.30850 0.35560 0.09100
C 	C 	0.70080 0.37965 0.41525 0.10200
C 	C 	0.73640 0.40316 0.38773 -0.07400
C 	C 	0.66030 0.40620 0.43320 -0.07700
C 	C 	0.65490 0.45530 0.42010 0.02600
H 	H 	0.62730 0.47290 0.43200 -0.00500
C 	C 	0.68880 0.47940 0.39020 -0.24000
C 	C 	0.73010 0.45310 0.37590 0.03500
H 	H 	0.75490 0.46930 0.35750 -0.01000
C 	C 	0.68110 0.53290 0.37520 0.61000
C 	C 	0.71740 0.54910 0.33890 -0.92100
H 	H 	0.75050 0.54130 0.35060 0.26600
H 	H 	0.71150 0.53220 0.30770 0.26200
H 	H 	0.71440 0.58460 0.33400 0.26300
C 	C 	0.68700 0.56480 0.42350 -0.82200
H 	H 	0.72060 0.56170 0.43590 0.23800
H 	H 	0.68010 0.59930 0.41590 0.24300
H 	H 	0.66390 0.55310 0.44840 0.25700
C 	C 	0.62860 0.54060 0.35730 -0.88600
H 	H 	0.60560 0.53050 0.38300 0.26900
H 	H 	0.62350 0.57540 0.34970 0.27200
H 	H 	0.62300 0.52100 0.32780 0.25400
O 	O 	0.16358 0.72354 0.86220 -0.48900
O 	O 	0.20350 0.73087 0.93231 -0.39500
O 	O 	0.20469 0.82989 0.92529 -0.20500
S 	S 	0.28624 0.87227 0.86097 -0.03700
C 	C 	0.18290 0.74760 0.89530 0.41200
C 	C 	0.18190 0.80130 0.88700 -0.21300
H 	H 	0.14740 0.81180 0.88360 0.08200
H 	H 	0.19870 0.80850 0.85560 0.09100
C 	C 	0.20080 0.87965 0.91525 0.09800
C 	C 	0.23640 0.90316 0.88773 -0.06600
C 	C 	0.16030 0.90620 0.93320 -0.06900
C 	C 	0.15490 0.95530 0.92010 0.01200
H 	H 	0.12730 0.97290 0.93200 0.00700
C 	C 	0.18880 0.97940 0.89020 -0.20700
C 	C 	0.23010 0.95310 0.87590 0.02100
H 	H 	0.25490 0.96930 0.85750 0.00100
C 	C 	0.18110 0.03290 0.87520 0.57000
C 	C 	0.21740 0.04910 0.83890 -0.88100
H 	H 	0.25050 0.04130 0.85060 0.25100
H 	H 	0.21150 0.03220 0.80770 0.24600
H 	H 	0.21440 0.08460 0.83400 0.25200
C 	C 	0.18700 0.06480 0.92350 -0.79900
H 	H 	0.22060 0.06170 0.93590 0.23200
H 	H 	0.18010 0.09930 0.91590 0.23900
H 	H 	0.16390 0.05310 0.94840 0.25100
C 	C 	0.12860 0.04060 0.85730 -0.84800
H 	H 	0.10560 0.03050 0.88300 0.25300
H 	H 	0.12350 0.07540 0.84970 0.26100
H 	H 	0.12300 0.02100 0.82780 0.23800
O 	O 	0.16358 0.27646 0.63780 -0.49000
O 	O 	0.20350 0.26913 0.56769 -0.40000
O 	O 	0.20469 0.17011 0.57471 -0.21000
S 	S 	0.28624 0.12773 0.63903 -0.03700
C 	C 	0.18290 0.25240 0.60470 0.41300
C 	C 	0.18190 0.19870 0.61300 -0.21200
H 	H 	0.14740 0.18820 0.61640 0.08200
H 	H 	0.19870 0.19150 0.64440 0.09100
C 	C 	0.20080 0.12035 0.58475 0.10700
C 	C 	0.23640 0.09684 0.61227 -0.08200
C 	C 	0.16030 0.09380 0.56680 -0.08400
C 	C 	0.15490 0.04470 0.57990 0.04100
H 	H 	0.12730 0.02710 0.56800 -0.01600
C 	C 	0.18880 0.02060 0.60980 -0.27300
C 	C 	0.23010 0.04690 0.62410 0.05000
H 	H 	0.25490 0.03070 0.64250 -0.02100
C 	C 	0.18110 0.96710 0.62480 0.65200
C 	C 	0.21740 0.95090 0.66110 -0.96300
H 	H 	0.25050 0.95870 0.64940 0.28200
H 	H 	0.21150 0.96780 0.69230 0.27800
H 	H 	0.21440 0.91540 0.66600 0.27500
C 	C 	0.18700 0.93520 0.57650 -0.85200
H 	H 	0.22060 0.93830 0.56410 0.24900
H 	H 	0.18010 0.90070 0.58410 0.25200
H 	H 	0.16390 0.94690 0.55160 0.26900
C 	C 	0.12860 0.95940 0.64270 -0.92200
H 	H 	0.10560 0.96950 0.61700 0.28200
H 	H 	0.12350 0.92460 0.65030 0.28200
H 	H 	0.12300 0.97900 0.67220 0.26800
O 	O 	0.66358 0.77646 0.13780 -0.49000
O 	O 	0.70350 0.76913 0.06769 -0.40300
O 	O 	0.70469 0.67011 0.07471 -0.21100
S 	S 	0.78624 0.62773 0.13903 -0.03700
C 	C 	0.68290 0.75240 0.10470 0.41400
C 	C 	0.68190 0.69870 0.11300 -0.21400
H 	H 	0.64740 0.68820 0.11640 0.08300
H 	H 	0.69870 0.69150 0.14440 0.09100
C 	C 	0.70080 0.62035 0.08475 0.10000
C 	C 	0.73640 0.59684 0.11227 -0.07400
C 	C 	0.66030 0.59380 0.06680 -0.07600
C 	C 	0.65490 0.54470 0.07990 0.02300
H 	H 	0.62730 0.52710 0.06800 -0.00600
C 	C 	0.68880 0.52060 0.10980 -0.23800
C 	C 	0.73010 0.54690 0.12410 0.03300
H 	H 	0.75490 0.53070 0.14250 -0.00900
C 	C 	0.68110 0.46710 0.12480 0.60500
C 	C 	0.71740 0.45090 0.16110 -0.91600
H 	H 	0.75050 0.45870 0.14940 0.26400
H 	H 	0.71150 0.46780 0.19230 0.26100
H 	H 	0.71440 0.41540 0.16600 0.26200
C 	C 	0.68700 0.43520 0.07650 -0.81300
H 	H 	0.72060 0.43830 0.06410 0.23300
H 	H 	0.68010 0.40070 0.08410 0.23900
H 	H 	0.66390 0.44690 0.05160 0.25100
C 	C 	0.62860 0.45940 0.14270 -0.88100
H 	H 	0.60560 0.46950 0.11700 0.26600
H 	H 	0.62350 0.42460 0.15030 0.27000
H 	H 	0.62300 0.47900 0.17220 0.25300
O 	O 	0.33642 0.72354 0.13780 -0.49000
O 	O 	0.29650 0.73087 0.06769 -0.40400
O 	O 	0.29531 0.82989 0.07471 -0.21000
S 	S 	0.21376 0.87227 0.13903 -0.03600
C 	C 	0.31710 0.74760 0.10470 0.41400
C 	C 	0.31810 0.80130 0.11300 -0.21400
H 	H 	0.35260 0.81180 0.11640 0.08300
H 	H 	0.30130 0.80850 0.14440 0.09200
C 	C 	0.29920 0.87965 0.08475 0.09500
C 	C 	0.26360 0.90316 0.11227 -0.06600
C 	C 	0.33970 0.90620 0.06680 -0.06800
C 	C 	0.34510 0.95530 0.07990 0.00800
H 	H 	0.37270 0.97290 0.06800 0.00600
C 	C 	0.31120 0.97940 0.10980 -0.20500
C 	C 	0.26990 0.95310 0.12410 0.01800
H 	H 	0.24510 0.96930 0.14250 0.00200
C 	C 	0.31890 0.03290 0.12480 0.56300
C 	C 	0.28260 0.04910 0.16110 -0.87500
H 	H 	0.24950 0.04130 0.14940 0.24900
H 	H 	0.28850 0.03220 0.19230 0.24500
H 	H 	0.28560 0.08460 0.16600 0.25000
C 	C 	0.31300 0.06480 0.07650 -0.78300
H 	H 	0.27940 0.06170 0.06410 0.22300
H 	H 	0.31990 0.09930 0.08410 0.23100
H 	H 	0.33610 0.05310 0.05160 0.24000
C 	C 	0.37140 0.04060 0.14270 -0.84200
H 	H 	0.39440 0.03050 0.11700 0.25100
H 	H 	0.37650 0.07540 0.15030 0.25900
H 	H 	0.37700 0.02100 0.17220 0.23700
O 	O 	0.83642 0.22354 0.63780 -0.48900
O 	O 	0.79650 0.23087 0.56769 -0.40000
O 	O 	0.79531 0.32989 0.57471 -0.20900
S 	S 	0.71376 0.37227 0.63903 -0.03700
C 	C 	0.81710 0.24760 0.60470 0.41400
C 	C 	0.81810 0.30130 0.61300 -0.21300
H 	H 	0.85260 0.31180 0.61640 0.08300
H 	H 	0.80130 0.30850 0.64440 0.09100
C 	C 	0.79920 0.37965 0.58475 0.10200
C 	C 	0.76360 0.40316 0.61227 -0.07500
C 	C 	0.83970 0.40620 0.56680 -0.07700
C 	C 	0.84510 0.45530 0.57990 0.02700
H 	H 	0.87270 0.47290 0.56800 -0.00400
C 	C 	0.81120 0.47940 0.60980 -0.24000
C 	C 	0.76990 0.45310 0.62410 0.03600
H 	H 	0.74510 0.46930 0.64250 -0.01000
C 	C 	0.81890 0.53290 0.62480 0.61200
C 	C 	0.78260 0.54910 0.66110 -0.92300
H 	H 	0.74950 0.54130 0.64940 0.26700
H 	H 	0.78850 0.53220 0.69230 0.26300
H 	H 	0.78560 0.58460 0.66600 0.26400
C 	C 	0.81300 0.56480 0.57650 -0.82400
H 	H 	0.77940 0.56170 0.56410 0.23900
H 	H 	0.81990 0.59930 0.58410 0.24400
H 	H 	0.83610 0.55310 0.55160 0.25800
C 	C 	0.87140 0.54060 0.64270 -0.88900
H 	H 	0.89440 0.53050 0.61700 0.27100
H 	H 	0.87650 0.57540 0.65030 0.27300
H 	H 	0.87700 0.52100 0.67220 0.25700
O 	O 	0.83642 0.77646 0.86220 -0.48800
O 	O 	0.79650 0.76913 0.93231 -0.39500
O 	O 	0.79531 0.67011 0.92529 -0.20600
S 	S 	0.71376 0.62773 0.86097 -0.03700
C 	C 	0.81710 0.75240 0.89530 0.41300
C 	C 	0.81810 0.69870 0.88700 -0.21300
H 	H 	0.85260 0.68820 0.88360 0.08300
H 	H 	0.80130 0.69150 0.85560 0.09100
C 	C 	0.79920 0.62035 0.91525 0.10400
C 	C 	0.76360 0.59684 0.88773 -0.07500
C 	C 	0.83970 0.59380 0.93320 -0.07800
C 	C 	0.84510 0.54470 0.92010 0.03000
H 	H 	0.87270 0.52710 0.93200 -0.00300
C 	C 	0.81120 0.52060 0.89020 -0.24200
C 	C 	0.76990 0.54690 0.87590 0.03800
H 	H 	0.74510 0.53070 0.85750 -0.01100
C 	C 	0.81890 0.46710 0.87520 0.61800
C 	C 	0.78260 0.45090 0.83890 -0.92900
H 	H 	0.74950 0.45870 0.85060 0.26800
H 	H 	0.78850 0.46780 0.80770 0.26500
H 	H 	0.78560 0.41540 0.83400 0.26600
C 	C 	0.81300 0.43520 0.92350 -0.83400
H 	H 	0.77940 0.43830 0.93590 0.24400
H 	H 	0.81990 0.40070 0.91590 0.24800
H 	H 	0.83610 0.44690 0.94840 0.26500
C 	C 	0.87140 0.45940 0.85730 -0.89500
H 	H 	0.89440 0.46950 0.88300 0.27400
H 	H 	0.87650 0.42460 0.84970 0.27500
H 	H 	0.87700 0.47900 0.82780 0.25800
O 	O 	0.33642 0.27646 0.36220 -0.48900
O 	O 	0.29650 0.26913 0.43231 -0.40000
O 	O 	0.29531 0.17011 0.42529 -0.21000
S 	S 	0.21376 0.12773 0.36097 -0.03600
C 	C 	0.31710 0.25240 0.39530 0.41300
C 	C 	0.31810 0.19870 0.38700 -0.21200
H 	H 	0.35260 0.18820 0.38360 0.08200
H 	H 	0.30130 0.19150 0.35560 0.09100
C 	C 	0.29920 0.12035 0.41525 0.10700
C 	C 	0.26360 0.09684 0.38773 -0.08200
C 	C 	0.33970 0.09380 0.43320 -0.08400
C 	C 	0.34510 0.04470 0.42010 0.04200
H 	H 	0.37270 0.02710 0.43200 -0.01600
C 	C 	0.31120 0.02060 0.39020 -0.27400
C 	C 	0.26990 0.04690 0.37590 0.05100
H 	H 	0.24510 0.03070 0.35750 -0.02100
C 	C 	0.31890 0.96710 0.37520 0.65400
C 	C 	0.28260 0.95090 0.33890 -0.96600
H 	H 	0.24950 0.95870 0.35060 0.28300
H 	H 	0.28850 0.96780 0.30770 0.27900
H 	H 	0.28560 0.91540 0.33400 0.27600
C 	C 	0.31300 0.93520 0.42350 -0.85400
H 	H 	0.27940 0.93830 0.43590 0.24900
H 	H 	0.31990 0.90070 0.41590 0.25200
H 	H 	0.33610 0.94690 0.44840 0.26900
C 	C 	0.37140 0.95940 0.35730 -0.92600
H 	H 	0.39440 0.96950 0.38300 0.28500
H 	H 	0.37650 0.92460 0.34970 0.28400
H 	H 	0.37700 0.97900 0.32780 0.27100
Co	Co	0.09742 0.90258 0.40258 1.10700
Co	Co	0.59742 0.40258 0.90258 1.10800
Co	Co	0.40258 0.09742 0.90258 1.10700
Co	Co	0.90258 0.59742 0.40258 1.10800
Co	Co	0.90258 0.40258 0.09742 1.10700
Co	Co	0.40258 0.90258 0.59742 1.10800
Co	Co	0.59742 0.59742 0.59742 1.10700
Co	Co	0.09742 0.09742 0.09742 1.10600
Co	Co	0.15258 0.34742 0.65258 1.10700
Co	Co	0.65258 0.84742 0.15258 1.10700
Co	Co	0.34742 0.65258 0.15258 1.10700
Co	Co	0.84742 0.15258 0.65258 1.10700
Co	Co	0.65258 0.15258 0.34742 1.10700
Co	Co	0.15258 0.65258 0.84742 1.10700
Co	Co	0.84742 0.84742 0.84742 1.10900
Co	Co	0.34742 0.34742 0.34742 1.10700
K 	K 	0.25000 0.03007 0.50000 0.65000
K 	K 	0.25000 0.96993 -0.00000 0.65300
K 	K 	0.75000 0.53007 -0.00000 0.65000
K 	K 	0.75000 0.46993 0.50000 0.65300
K 	K 	0.50000 0.25000 0.03007 0.65000
K 	K 	0.00000 0.25000 0.96993 0.65300
K 	K 	0.00000 0.75000 0.53007 0.65000
K 	K 	0.50000 0.75000 0.46993 0.65300
K 	K 	0.03007 0.50000 0.25000 0.65000
K 	K 	0.96993 0.00000 0.25000 0.65300
K 	K 	0.53007 0.00000 0.75000 0.65000
K 	K 	0.46993 0.50000 0.75000 0.65300
K 	K 	0.28007 0.50000 0.75000 0.65300
K 	K 	0.21993 0.50000 0.25000 0.65300
K 	K 	0.78007 0.00000 0.25000 0.65000
K 	K 	0.71993 0.00000 0.75000 0.65000
K 	K 	0.50000 0.75000 0.28007 0.65300
K 	K 	0.50000 0.25000 0.21993 0.65300
K 	K 	-0.00000 0.25000 0.78007 0.65000
K 	K 	0.00000 0.75000 0.71993 0.65000
K 	K 	0.75000 0.28007 0.50000 0.65300
K 	K 	0.25000 0.21993 0.50000 0.65300
K 	K 	0.25000 0.78007 -0.00000 0.65000
K 	K 	0.75000 0.71993 -0.00000 0.65000
