data_crystal

_cell_length_a 11.92720
_cell_length_b 13.95400
_cell_length_c 20.18500
_cell_angle_alpha 90.00000
_cell_angle_beta  90.00000
_cell_angle_gamma 90.00000

_symmetry_space_group_name_	'P 1'
_symmetry_space_group_name_H-M	'P 1'

loop_
_symmetry_equiv_pos_as_xyz
  x,y,z

loop_
_atom_site_label
_atom_site_type_symbol
_atom_site_fract_x
_atom_site_fract_y
_atom_site_fract_z
_atom_site_charge
Cu	Cu	0.26257 0.07272 -0.00000 0.87600
Cu	Cu	0.23743 0.57272 0.50000 0.90700
Cu	Cu	0.73743 0.92728 -0.00000 0.87500
Cu	Cu	0.76257 0.42728 0.50000 0.90600
H 	H 	0.03660 0.09900 -0.00000 0.02900
H 	H 	0.51430 0.66520 0.38570 0.04800
H 	H 	0.03100 0.77880 0.22680 0.09200
H 	H 	0.01430 0.83480 0.88570 0.05700
H 	H 	0.48570 0.33480 0.61430 0.04900
H 	H 	0.96900 0.22120 0.77320 0.09400
H 	H 	0.16730 0.40190 0.26570 0.08600
H 	H 	0.57320 0.80080 0.17210 0.00900
H 	H 	0.33270 0.90190 0.23430 0.08300
H 	H 	0.36450 0.82590 0.34010 0.02200
H 	H 	0.79220 0.51040 0.35490 0.00900
H 	H 	0.20780 0.48960 0.64510 0.01100
H 	H 	0.46900 0.27880 0.72680 0.09200
H 	H 	0.70780 0.01040 0.14510 0.00800
H 	H 	0.63550 0.17410 0.34010 0.02200
H 	H 	0.53100 0.72120 0.27320 0.09400
H 	H 	0.20780 0.48960 0.35490 0.00900
H 	H 	0.46900 0.27880 0.27320 0.09400
H 	H 	0.66730 0.09810 0.23430 0.08300
H 	H 	0.29220 0.98960 0.14510 0.00800
H 	H 	0.53100 0.72120 0.72680 0.09200
H 	H 	0.01430 0.83480 0.11430 0.04700
H 	H 	0.33270 0.90190 0.76570 0.08600
H 	H 	0.98570 0.16520 0.88570 0.05700
H 	H 	0.13550 0.32590 0.15990 0.01400
H 	H 	0.48570 0.33480 0.38570 0.04800
H 	H 	0.92680 0.30080 0.32790 0.01500
H 	H 	0.13550 0.32590 0.84010 0.03100
H 	H 	0.07320 0.69920 0.32790 0.01500
H 	H 	0.16730 0.40190 0.73430 0.08400
H 	H 	0.51430 0.66520 0.61430 0.04900
H 	H 	0.79220 0.51040 0.64510 0.01100
H 	H 	0.66730 0.09810 0.76570 0.08600
H 	H 	0.96900 0.22120 0.22680 0.09200
H 	H 	0.03100 0.77880 0.77320 0.09400
H 	H 	0.53660 0.40100 0.50000 0.04100
H 	H 	0.57320 0.80080 0.82790 0.02300
H 	H 	0.42680 0.19920 0.17210 0.00900
H 	H 	0.98570 0.16520 0.11430 0.04700
H 	H 	0.96340 0.90100 -0.00000 0.02900
H 	H 	0.07320 0.69920 0.67210 0.01600
H 	H 	0.36450 0.82590 0.65990 0.02200
H 	H 	0.86450 0.67410 0.84010 0.03100
H 	H 	0.63550 0.17410 0.65990 0.02200
H 	H 	0.86450 0.67410 0.15990 0.01400
H 	H 	0.46340 0.59900 0.50000 0.04100
H 	H 	0.29220 0.98960 0.85490 0.01500
H 	H 	0.42680 0.19920 0.82790 0.02300
H 	H 	0.83270 0.59810 0.73430 0.08400
H 	H 	0.92680 0.30080 0.67210 0.01600
H 	H 	0.70780 0.01040 0.85490 0.01500
H 	H 	0.83270 0.59810 0.26570 0.08600
C 	C 	0.87320 0.25870 0.30880 0.08800
C 	C 	0.12680 0.74130 0.69120 0.09000
C 	C 	0.17750 0.84670 0.77450 0.12400
C 	C 	0.75480 0.79990 0.09600 0.38100
C 	C 	0.83930 0.10360 0.84390 -0.05200
C 	C 	0.29760 0.81380 0.68400 0.07700
C 	C 	0.77780 0.63830 0.24600 -0.16500
C 	C 	0.70240 0.18620 0.31600 0.07500
C 	C 	0.27780 0.86170 0.74600 -0.15600
C 	C 	0.92560 0.12100 0.10970 0.02700
C 	C 	0.27650 0.25380 0.83900 -0.12700
C 	C 	0.25480 0.70010 0.40400 0.37500
C 	C 	0.17750 0.84670 0.22550 0.12000
C 	C 	0.60040 0.71150 0.74890 -0.15900
C 	C 	0.24520 0.20010 0.09600 0.38100
C 	C 	0.66070 0.60360 0.34390 -0.06000
C 	C 	0.72350 0.74620 0.83900 -0.12700
C 	C 	0.72220 0.13830 0.74600 -0.15600
C 	C 	0.83930 0.10360 0.15610 -0.05800
C 	C 	0.29760 0.81380 0.31600 0.07500
C 	C 	0.66070 0.60360 0.65610 -0.05400
C 	C 	0.77780 0.63830 0.75400 -0.14700
C 	C 	0.67750 0.65330 0.27450 0.12600
C 	C 	0.77430 0.03560 0.12590 0.04400
C 	C 	0.25480 0.70010 0.59600 0.37600
C 	C 	0.79760 0.68620 0.81600 0.06700
C 	C 	0.89960 0.21150 0.75110 -0.16700
C 	C 	0.24520 0.20010 0.90400 0.36600
C 	C 	0.70240 0.18620 0.68400 0.07700
C 	C 	0.22220 0.36170 0.75400 -0.14700
C 	C 	0.22220 0.36170 0.24600 -0.16500
C 	C 	0.32250 0.34670 0.27450 0.12600
C 	C 	0.82250 0.15330 0.22550 0.12000
C 	C 	0.12680 0.74130 0.30880 0.08800
C 	C 	0.72570 0.53560 0.37410 0.04800
C 	C 	0.75480 0.79990 0.90400 0.36600
C 	C 	0.39960 0.28850 0.25110 -0.17700
C 	C 	0.22570 0.96440 0.12590 0.04400
C 	C 	0.16070 0.89640 0.15610 -0.05800
C 	C 	0.47470 0.44920 0.50000 0.03100
C 	C 	0.87320 0.25870 0.69120 0.09000
C 	C 	0.92560 0.12100 0.89030 0.03500
C 	C 	0.42560 0.37900 0.60970 0.03200
C 	C 	0.22350 0.75380 0.66100 -0.14200
C 	C 	0.72570 0.53560 0.62590 0.04600
C 	C 	0.77430 0.03560 0.87410 0.04800
C 	C 	0.97470 0.05080 -0.00000 -0.01100
C 	C 	0.74520 0.29990 0.59600 0.37600
C 	C 	0.22570 0.96440 0.87410 0.04800
C 	C 	0.57440 0.62100 0.39030 0.03400
C 	C 	0.77650 0.24620 0.66100 -0.14200
C 	C 	0.33930 0.39640 0.34390 -0.06000
C 	C 	0.07440 0.87900 0.10970 0.02700
C 	C 	0.67750 0.65330 0.72550 0.11700
C 	C 	0.27430 0.46440 0.62590 0.04600
C 	C 	0.27650 0.25380 0.16100 -0.15500
C 	C 	0.39960 0.28850 0.74890 -0.15900
C 	C 	0.10040 0.78850 0.75110 -0.16700
C 	C 	0.33930 0.39640 0.65610 -0.05400
C 	C 	0.72350 0.74620 0.16100 -0.15500
C 	C 	0.07440 0.87900 0.89030 0.03500
C 	C 	0.27430 0.46440 0.37410 0.04800
C 	C 	0.62680 0.75870 0.80880 0.08000
C 	C 	0.02530 0.94920 -0.00000 -0.01100
C 	C 	0.72220 0.13830 0.25400 -0.15700
C 	C 	0.27780 0.86170 0.25400 -0.15700
C 	C 	0.89960 0.21150 0.24890 -0.16900
C 	C 	0.22350 0.75380 0.33900 -0.14300
C 	C 	0.42560 0.37900 0.39030 0.03400
C 	C 	0.62680 0.75870 0.19120 0.09500
C 	C 	0.82250 0.15330 0.77450 0.12400
C 	C 	0.16070 0.89640 0.84390 -0.05200
C 	C 	0.37320 0.24130 0.19120 0.09500
C 	C 	0.37320 0.24130 0.80880 0.08000
C 	C 	0.77650 0.24620 0.33900 -0.14300
C 	C 	0.52530 0.55080 0.50000 0.03100
C 	C 	0.20240 0.31380 0.81600 0.06700
C 	C 	0.20240 0.31380 0.18400 0.08200
C 	C 	0.57440 0.62100 0.60970 0.03200
C 	C 	0.74520 0.29990 0.40400 0.37500
C 	C 	0.32250 0.34670 0.72550 0.11700
C 	C 	0.60040 0.71150 0.25110 -0.17700
C 	C 	0.10040 0.78850 0.24890 -0.16900
C 	C 	0.79760 0.68620 0.18400 0.08200
N 	N 	0.81300 0.00840 0.93250 -0.16000
N 	N 	0.18700 0.99160 0.93250 -0.16000
N 	N 	0.68700 0.50840 0.56750 -0.18100
N 	N 	0.90670 0.06390 0.05840 -0.08400
N 	N 	0.09330 0.93610 0.94160 -0.05000
N 	N 	0.59330 0.56390 0.44160 -0.08500
N 	N 	0.90670 0.06390 0.94160 -0.05000
N 	N 	0.40670 0.43610 0.55840 -0.08500
N 	N 	0.81300 0.00840 0.06750 -0.18800
N 	N 	0.09330 0.93610 0.05840 -0.08400
N 	N 	0.31300 0.49160 0.56750 -0.18100
N 	N 	0.68700 0.50840 0.43250 -0.18100
N 	N 	0.40670 0.43610 0.44160 -0.08500
N 	N 	0.59330 0.56390 0.55840 -0.08500
N 	N 	0.18700 0.99160 0.06750 -0.18800
N 	N 	0.31300 0.49160 0.43250 -0.18100
O 	O 	0.84920 0.79140 0.07440 -0.32600
O 	O 	0.32160 0.15330 0.92790 -0.37300
O 	O 	0.15080 0.20860 0.07440 -0.32600
O 	O 	0.67840 0.84670 0.07210 -0.42600
O 	O 	0.15080 0.20860 0.92560 -0.27700
O 	O 	0.84920 0.79140 0.92560 -0.27700
O 	O 	0.32160 0.15330 0.07210 -0.42600
O 	O 	0.17840 0.65330 0.42790 -0.40700
O 	O 	0.17840 0.65330 0.57210 -0.40700
O 	O 	0.65080 0.29140 0.42560 -0.30700
O 	O 	0.82160 0.34670 0.57210 -0.40700
O 	O 	0.65080 0.29140 0.57440 -0.30700
O 	O 	0.34920 0.70860 0.42560 -0.30700
O 	O 	0.34920 0.70860 0.57440 -0.30700
O 	O 	0.67840 0.84670 0.92790 -0.37300
O 	O 	0.82160 0.34670 0.42790 -0.40700
