data_crystal

_cell_length_a 7.37420
_cell_length_b 11.40110
_cell_length_c 11.67060
_cell_angle_alpha 89.66600
_cell_angle_beta  76.81300
_cell_angle_gamma 74.97100

_symmetry_space_group_name_	'P 1'
_symmetry_space_group_name_H-M	'P 1'

loop_
_symmetry_equiv_pos_as_xyz
  x,y,z

loop_
_atom_site_label
_atom_site_type_symbol
_atom_site_fract_x
_atom_site_fract_y
_atom_site_fract_z
_atom_site_charge
Mg	Mg	0.54122 0.14697 0.67436 1.46600
Mg	Mg	0.68751 0.13197 0.36399 1.46600
O 	O 	0.32640 0.25246 0.60626 -0.55200
O 	O 	0.39710 0.22060 0.41132 -0.56400
O 	O 	0.00250 0.17899 0.51094 -0.62500
O 	O 	0.77400 0.27349 0.41980 -0.55700
O 	O 	0.97798 0.02162 0.32188 -0.67900
O 	O 	0.27420 0.92782 0.22082 -0.52500
O 	O 	0.32210 0.16767 0.83765 -0.44300
O 	O 	0.36635 0.00991 0.71957 -0.66500
O 	O 	0.70107 0.05109 0.52381 -0.93800
H 	H 	0.65990 0.97630 0.52080 0.26100
C 	C 	0.29840 0.27715 0.50623 0.47400
C 	C 	0.13950 0.39039 0.50154 -0.22100
C 	C 	0.17860 0.50135 0.51597 0.10700
H 	H 	0.29930 0.50230 0.52680 -0.00800
C 	C 	0.95790 0.38894 0.48529 0.05500
C 	C 	0.90720 0.27101 0.47119 0.46800
C 	C 	0.10060 0.97862 0.22770 0.46600
C 	C 	0.03870 0.99074 0.11257 -0.10900
C 	C 	0.16400 0.02480 0.01798 -0.08600
H 	H 	0.27490 0.04190 0.03030 0.03800
C 	C 	0.12880 0.03399 0.90564 -0.14400
C 	C 	0.27840 0.07364 0.81431 0.36300
Mg	Mg	0.45878 0.85303 0.32564 1.46600
Mg	Mg	0.31249 0.86803 0.63601 1.47100
O 	O 	0.67360 0.74754 0.39374 -0.51100
O 	O 	0.60290 0.77940 0.58868 -0.49600
O 	O 	0.99750 0.82101 0.48906 -0.41700
O 	O 	0.22600 0.72651 0.58020 -0.53400
O 	O 	0.02202 0.97838 0.67812 -0.64300
O 	O 	0.72580 0.07218 0.77918 -0.54600
O 	O 	0.67790 0.83233 0.16235 -0.41000
O 	O 	0.63365 0.99009 0.28043 -0.57000
O 	O 	0.29893 0.94891 0.47619 -0.78900
H 	H 	0.34010 0.02370 0.47920 0.09700
C 	C 	0.70160 0.72285 0.49377 0.38600
C 	C 	0.86050 0.60961 0.49846 0.06800
C 	C 	0.82140 0.49865 0.48403 -0.08100
H 	H 	0.70070 0.49770 0.47320 0.05900
C 	C 	0.04210 0.61106 0.51471 -0.20500
C 	C 	0.09280 0.72899 0.52881 0.32900
C 	C 	0.89940 0.02138 0.77230 0.46400
C 	C 	0.96130 0.00926 0.88743 -0.13100
C 	C 	0.83600 0.97520 0.98202 0.12000
H 	H 	0.72510 0.95810 0.96970 0.03900
C 	C 	0.87120 0.96601 0.09436 -0.02500
C 	C 	0.72160 0.92636 0.18569 0.35400
Mg	Mg	-0.00000 -0.00000 0.50000 1.45700
