data_crystal

_cell_length_a 41.67400
_cell_length_b 41.67400
_cell_length_c 41.93900
_cell_angle_alpha 87.28730
_cell_angle_beta  61.20940
_cell_angle_gamma 117.88500

_symmetry_space_group_name_	'P 1'
_symmetry_space_group_name_H-M	'P 1'

loop_
_symmetry_equiv_pos_as_xyz
  x,y,z

loop_
_atom_site_label
_atom_site_type_symbol
_atom_site_fract_x
_atom_site_fract_y
_atom_site_fract_z
_atom_site_charge
Cu	Cu	0.82008 0.41683 0.29603 0.90000
Cu	Cu	0.28805 0.42994 0.75261 0.90200
Cu	Cu	0.81745 0.95934 0.75261 0.90200
Cu	Cu	0.36124 0.42328 0.21548 0.90000
Cu	Cu	0.29945 0.42235 0.27820 0.90300
Cu	Cu	0.28091 0.89270 0.76507 0.90500
Cu	Cu	0.82086 0.89771 0.75457 0.89700
Cu	Cu	0.81968 0.42359 0.23361 0.91000
Cu	Cu	0.34223 0.95402 0.76507 0.90500
Cu	Cu	0.34772 0.42457 0.75457 0.89700
Cu	Cu	0.34280 0.94671 0.23361 0.91000
Cu	Cu	0.28714 0.88389 0.29603 0.90000
H 	H 	0.33950 0.54720 0.74570 0.03400
H 	H 	0.72520 0.82930 0.72430 0.02800
H 	H 	0.53630 0.45490 0.45080 0.09800
H 	H 	0.18900 0.82820 0.07820 0.09700
H 	H 	0.09360 0.73280 0.07820 0.09700
H 	H 	0.32710 0.93280 0.64650 0.04000
H 	H 	0.55010 0.45870 0.34840 0.10500
H 	H 	0.52020 0.11900 0.45500 0.09900
H 	H 	0.34810 0.54170 0.24540 0.02100
H 	H 	0.19290 0.10150 0.34840 0.10500
H 	H 	0.35320 0.43810 0.34630 0.02900
H 	H 	0.18060 0.23400 0.37340 0.07500
H 	H 	0.47500 0.89190 0.13290 0.07700
H 	H 	0.43070 0.44040 0.63510 0.03600
H 	H 	0.91900 0.02980 0.76840 0.02700
H 	H 	0.42120 0.02340 0.26780 0.02900
H 	H 	0.19880 0.39170 0.06490 0.09900
H 	H 	0.24890 0.05180 0.78990 0.06600
H 	H 	0.43640 0.91960 0.16300 0.02800
H 	H 	0.26460 0.99650 0.26690 0.02900
H 	H 	0.28380 0.01990 0.78730 0.03700
H 	H 	0.37290 0.45200 0.56730 0.07100
H 	H 	0.20190 0.40780 0.87210 0.04300
H 	H 	0.71630 0.29500 0.35910 0.02900
H 	H 	0.53960 0.83150 0.72170 0.09100
H 	H 	0.37900 0.95860 0.38860 0.07700
H 	H 	0.97780 0.60310 0.23650 0.07900
H 	H 	0.09210 0.73110 0.17680 0.08800
H 	H 	0.46870 0.89000 0.73470 0.07000
H 	H 	0.16320 0.39800 0.93820 0.06900
H 	H 	0.45440 0.05950 0.58110 0.06600
H 	H 	0.44660 0.43930 0.24910 0.03100
H 	H 	0.48160 0.61590 0.71690 0.07600
H 	H 	0.28970 0.91000 0.16630 0.03000
H 	H 	0.97990 0.39070 0.22680 0.07700
H 	H 	0.15830 0.96120 0.78990 0.06600
H 	H 	0.37470 0.61260 0.73830 0.07500
H 	H 	0.92200 0.39920 0.25700 0.03000
H 	H 	0.48610 0.44730 0.27620 0.07600
H 	H 	0.92120 0.02940 0.63240 0.03700
H 	H 	0.38220 0.60810 0.21830 0.08200
H 	H 	0.98090 0.60960 0.13870 0.07800
H 	H 	0.18690 0.11290 0.79220 0.13500
H 	H 	0.44470 0.54620 0.14810 0.01900
H 	H 	0.42070 0.02640 0.64650 0.04000
H 	H 	0.39260 0.44600 0.37340 0.07500
H 	H 	0.19820 0.81520 0.26420 0.02800
H 	H 	0.42600 0.02480 0.45500 0.09900
H 	H 	0.33820 0.44640 0.63240 0.03700
H 	H 	0.34590 0.92460 0.35910 0.02900
H 	H 	0.25900 0.88600 0.95080 0.07300
H 	H 	0.98070 0.05980 0.56730 0.07100
H 	H 	0.97520 0.39210 0.13290 0.07700
H 	H 	0.54340 0.73630 0.06490 0.09900
H 	H 	0.64970 0.42900 0.40210 0.07500
H 	H 	0.46540 0.44600 0.57000 0.07300
H 	H 	0.70880 0.31100 0.26780 0.02900
H 	H 	0.54310 0.73510 0.72180 0.09300
H 	H 	0.38250 0.79330 0.22680 0.07700
H 	H 	0.44680 0.73870 0.72170 0.09100
H 	H 	0.20180 0.31260 0.76840 0.02700
H 	H 	0.66080 0.80030 0.94290 0.07000
H 	H 	0.29050 0.30560 0.77770 0.02700
H 	H 	0.16320 0.79020 0.95080 0.07300
H 	H 	0.92370 0.54400 0.16630 0.03000
H 	H 	0.35940 0.96450 0.58110 0.06600
H 	H 	0.70710 0.91480 0.74570 0.03400
H 	H 	0.19280 0.92890 0.78730 0.03700
H 	H 	0.66720 0.80150 0.71690 0.07600
H 	H 	0.16410 0.24670 0.77760 0.07800
H 	H 	0.17360 0.39950 0.21830 0.08200
H 	H 	0.20000 0.82040 0.88480 0.03300
H 	H 	0.97330 0.96030 0.78680 0.07800
H 	H 	0.52670 0.11750 0.35580 0.10300
H 	H 	0.16040 0.78570 0.23650 0.07900
H 	H 	0.09430 0.01290 0.45080 0.09800
H 	H 	0.31160 0.30430 0.24910 0.03100
H 	H 	0.43260 0.91950 0.74110 0.02900
H 	H 	0.16890 0.94820 0.40210 0.07500
H 	H 	0.91670 0.93180 0.77770 0.02800
H 	H 	0.92060 0.53760 0.26420 0.02800
H 	H 	0.66380 0.89860 0.93820 0.06900
H 	H 	0.29480 0.91520 0.88480 0.03300
H 	H 	0.29570 0.40610 0.87680 0.04000
H 	H 	0.09490 0.02090 0.79220 0.13500
H 	H 	0.64910 0.88700 0.73830 0.07500
H 	H 	0.33940 0.82630 0.74110 0.02900
H 	H 	0.97570 0.05830 0.77760 0.07800
H 	H 	0.25290 0.23990 0.78680 0.07800
H 	H 	0.30570 0.40720 0.14810 0.01900
H 	H 	0.10010 0.38810 0.06540 0.09900
H 	H 	0.37530 0.79660 0.73470 0.07000
H 	H 	0.44630 0.45410 0.43740 0.09700
H 	H 	0.09360 0.11910 0.78730 0.10600
H 	H 	0.10140 0.38760 0.16100 0.09900
H 	H 	0.98400 0.96460 0.57000 0.07300
H 	H 	0.27650 0.23770 0.27620 0.07600
H 	H 	0.26640 0.40010 0.12110 0.08300
H 	H 	0.91740 0.40060 0.16300 0.02800
H 	H 	0.10850 0.11630 0.43740 0.09700
H 	H 	0.72010 0.92600 0.87210 0.04300
H 	H 	0.65280 0.23240 0.38860 0.07700
H 	H 	0.73660 0.46850 0.26690 0.02900
H 	H 	0.54650 0.83450 0.06540 0.09900
H 	H 	0.22470 0.02280 0.29810 0.08900
H 	H 	0.20890 0.92180 0.37090 0.03200
H 	H 	0.44640 0.55050 0.72430 0.02800
H 	H 	0.92450 0.93420 0.63510 0.03700
H 	H 	0.34380 0.82100 0.25700 0.03000
H 	H 	0.70730 0.42020 0.37090 0.03200
H 	H 	0.45440 0.05730 0.29730 0.07400
H 	H 	0.21290 0.40650 0.24540 0.02100
H 	H 	0.71710 0.82750 0.87680 0.04000
H 	H 	0.25170 0.88040 0.13870 0.07800
H 	H 	0.64540 0.24830 0.29730 0.07400
H 	H 	0.21560 0.30050 0.34630 0.02900
H 	H 	0.47880 0.61250 0.12110 0.08300
H 	H 	0.45140 0.73760 0.16100 0.09900
H 	H 	0.25680 0.39630 0.94290 0.07000
H 	H 	0.67910 0.47720 0.29810 0.09000
C 	C 	0.49426 0.73064 0.11600 0.12500
C 	C 	0.14610 0.78060 0.07330 0.12300
C 	C 	0.26504 0.29378 0.77766 0.06400
C 	C 	0.52604 0.45527 0.43527 -0.17500
C 	C 	0.46680 0.80790 0.72530 -0.06500
C 	C 	0.24064 0.95662 0.31590 -0.10400
C 	C 	0.18960 0.25860 0.77760 -0.12700
C 	C 	0.24737 0.87355 0.93730 -0.11300
C 	C 	0.38322 0.87494 0.74184 -0.11700
C 	C 	0.02761 0.03373 0.52210 -0.01200
C 	C 	0.58880 0.81046 0.01940 -0.05100
C 	C 	0.14596 0.78226 0.12860 0.09900
C 	C 	0.24258 0.25451 0.78311 -0.12800
C 	C 	0.24947 0.87023 0.88030 -0.09600
C 	C 	0.16499 0.79881 0.15180 -0.02800
C 	C 	0.56929 0.16311 0.38040 -0.04500
C 	C 	0.36386 0.44636 0.61980 0.03100
C 	C 	0.38917 0.60013 0.73550 -0.11600
C 	C 	0.36199 0.89003 0.23130 0.34400
C 	C 	0.65884 0.45394 0.35310 0.08100
C 	C 	0.44262 0.87689 0.73549 -0.11400
C 	C 	0.46994 0.06986 0.46020 0.12300
C 	C 	0.87867 0.40671 0.23130 0.34400
C 	C 	0.91418 0.40070 0.21290 -0.12100
C 	C 	0.37031 0.83524 0.23193 0.05300
C 	C 	0.87911 0.96041 0.68322 0.33800
C 	C 	0.11788 0.10034 0.42730 -0.18000
C 	C 	0.66725 0.43693 0.37480 -0.12200
C 	C 	0.88110 0.49160 0.23250 0.36600
C 	C 	0.38113 0.44289 0.64004 -0.09000
C 	C 	0.08914 0.72544 0.12860 0.09900
C 	C 	0.05849 0.04671 0.48890 -0.05300
C 	C 	0.96879 0.59503 0.16398 -0.12700
C 	C 	0.09547 0.06216 0.45031 0.12400
C 	C 	0.49271 0.73361 0.72048 0.10400
C 	C 	0.39483 0.59560 0.20417 -0.14100
C 	C 	0.39614 0.43796 0.29510 -0.11700
C 	C 	0.26429 0.25035 0.29032 -0.12400
C 	C 	0.26777 0.94023 0.29780 0.33000
C 	C 	0.20621 0.39621 0.94698 0.05900
C 	C 	0.71908 0.46048 0.29418 0.04900
C 	C 	0.27325 0.89045 0.83630 0.34500
C 	C 	0.45176 0.05012 0.44160 -0.18200
C 	C 	0.76197 0.43443 0.29780 0.33000
C 	C 	0.51175 0.10565 0.38260 -0.18000
C 	C 	0.43247 0.03061 0.30980 -0.12500
C 	C 	0.45100 0.82220 0.72680 -0.00200
C 	C 	0.28514 0.29004 0.27420 0.05000
C 	C 	0.37224 0.97730 0.59370 -0.09400
C 	C 	0.53333 0.80825 0.07818 -0.18200
C 	C 	0.72748 0.44346 0.31590 -0.10400
C 	C 	0.17715 0.19295 0.78890 -0.00300
C 	C 	0.26953 0.95347 0.77700 0.36000
C 	C 	0.27611 0.41508 0.82313 0.32700
C 	C 	0.47430 0.69360 0.72170 -0.03600
C 	C 	0.20486 0.23692 0.78308 0.07200
C 	C 	0.40882 0.01422 0.63300 0.02100
C 	C 	0.43203 0.55867 0.16230 0.07700
C 	C 	0.47371 0.69119 0.13410 -0.04900
C 	C 	0.24977 0.31545 0.77218 -0.13800
C 	C 	0.22785 0.28779 0.33220 0.04900
C 	C 	0.11357 0.38849 0.07818 -0.18200
C 	C 	0.65959 0.25773 0.30980 -0.12500
C 	C 	0.18827 0.95795 0.37480 -0.12200
C 	C 	0.24759 0.86545 0.21790 -0.11400
C 	C 	0.21202 0.29783 0.77215 0.06200
C 	C 	0.24099 0.86723 0.16398 -0.12700
C 	C 	0.14460 0.12130 0.79090 0.17100
C 	C 	0.21301 0.40549 0.88640 0.01700
C 	C 	0.36779 0.95143 0.34660 0.05400
C 	C 	0.15434 0.11505 0.38919 0.12400
C 	C 	0.05160 0.04820 0.78860 -0.07100
C 	C 	0.43384 0.61674 0.16710 0.08700
C 	C 	0.70811 0.90059 0.88640 0.01700
C 	C 	0.27307 0.35635 0.76618 0.39300
C 	C 	0.28789 0.41383 0.21570 0.39700
C 	C 	0.37090 0.43182 0.27780 0.36500
C 	C 	0.16590 0.79870 0.03540 -0.05300
C 	C 	0.52856 0.12478 0.40250 0.12300
C 	C 	0.39330 0.81874 0.21400 -0.12500
C 	C 	0.52606 0.80616 0.72158 -0.16100
C 	C 	0.43977 0.44604 0.58257 -0.11100
C 	C 	0.34859 0.95661 0.69480 0.34500
C 	C 	0.44837 0.04923 0.50240 -0.04900
C 	C 	0.93002 0.01583 0.77215 0.06200
C 	C 	0.43167 0.62065 0.72688 0.07400
C 	C 	0.60170 0.19480 0.36650 -0.01700
C 	C 	0.42552 0.89408 0.17590 0.05200
C 	C 	0.18530 0.81560 0.99910 -0.01100
C 	C 	0.45649 0.82311 0.15480 -0.01800
C 	C 	0.42790 0.83990 0.73220 0.05700
C 	C 	0.53143 0.74963 0.07790 -0.18200
C 	C 	0.26820 0.89040 0.89890 0.03800
C 	C 	0.36124 0.49915 0.74161 0.33800
C 	C 	0.41988 0.01130 0.34580 0.07500
C 	C 	0.53427 0.45752 0.37415 -0.17500
C 	C 	0.54591 0.78681 0.72048 0.10400
C 	C 	0.42900 0.03406 0.59370 -0.09400
C 	C 	0.72177 0.87476 0.73573 -0.09600
C 	C 	0.26694 0.30876 0.29510 -0.11700
C 	C 	0.65681 0.84681 0.94698 0.05900
C 	C 	0.43192 0.56296 0.72712 0.03900
C 	C 	0.68485 0.46571 0.31270 -0.13200
C 	C 	0.43870 0.03180 0.36650 -0.01700
C 	C 	0.24534 0.98674 0.29418 0.04800
C 	C 	0.37444 0.55599 0.22029 0.07600
C 	C 	0.69906 0.89202 0.73992 0.03200
C 	C 	0.38762 0.82189 0.73549 -0.11400
C 	C 	0.38951 0.54250 0.73573 -0.09600
C 	C 	0.75924 0.89715 0.74161 0.33800
C 	C 	0.69753 0.29511 0.29216 0.05300
C 	C 	0.92856 0.95730 0.77766 0.06400
C 	C 	0.29038 0.35130 0.27780 0.36500
C 	C 	0.47272 0.06894 0.40250 0.12300
C 	C 	0.17014 0.39180 0.01940 -0.05100
C 	C 	0.15900 0.04550 0.79550 -0.12800
C 	C 	0.70992 0.84096 0.72712 0.03900
C 	C 	0.41908 0.44274 0.62142 0.03500
C 	C 	0.20600 0.95439 0.78723 0.03000
C 	C 	0.93283 0.39776 0.23193 0.05300
C 	C 	0.42129 0.89450 0.73971 0.05000
C 	C 	0.02209 0.38871 0.15480 -0.01800
C 	C 	0.39309 0.53753 0.19930 -0.15600
C 	C 	0.65247 0.84145 0.72688 0.07400
C 	C 	0.93461 0.55595 0.18050 0.04800
C 	C 	0.16320 0.15980 0.78860 -0.07100
C 	C 	0.93384 0.01634 0.61980 0.03100
C 	C 	0.45719 0.65801 0.14820 -0.02000
C 	C 	0.23588 0.02642 0.78970 -0.09400
C 	C 	0.96238 0.97431 0.78311 -0.12800
C 	C 	0.09443 0.38756 0.11631 0.12900
C 	C 	0.49613 0.78926 0.11631 0.12900
C 	C 	0.35637 0.43767 0.68322 0.33800
C 	C 	0.49576 0.45647 0.38919 0.12400
C 	C 	0.38640 0.87292 0.21290 -0.12100
C 	C 	0.21211 0.94223 0.35620 0.04100
C 	C 	0.76179 0.90076 0.82313 0.32700
C 	C 	0.64290 0.23432 0.34580 0.07500
C 	C 	0.43274 0.03466 0.53260 -0.00500
C 	C 	0.27590 0.88640 0.23250 0.36600
C 	C 	0.93002 0.39858 0.17590 0.05200
C 	C 	0.93281 0.55214 0.23885 0.05400
C 	C 	0.53040 0.74850 0.72110 -0.16100
C 	C 	0.70157 0.43169 0.35620 0.04100
C 	C 	0.96450 0.39352 0.15794 -0.12400
C 	C 	0.17336 0.00798 0.36980 -0.02100
C 	C 	0.20704 0.24810 0.34830 -0.12100
C 	C 	0.16505 0.80205 0.09110 -0.17500
C 	C 	0.05724 0.38776 0.13640 -0.05400
C 	C 	0.04939 0.68321 0.15180 -0.02800
C 	C 	0.20023 0.40100 0.20417 -0.14100
C 	C 	0.61630 0.82080 0.72330 -0.02300
C 	C 	0.96939 0.03449 0.58094 -0.11100
C 	C 	0.22372 0.40527 0.22029 0.07600
C 	C 	0.41273 0.01031 0.29216 0.05300
C 	C 	0.17879 0.81221 0.16920 -0.03200
C 	C 	0.72403 0.87940 0.86807 -0.07000
C 	C 	0.37047 0.49641 0.21570 0.39700
C 	C 	0.44322 0.44738 0.32740 0.07200
C 	C 	0.24573 0.39861 0.92866 -0.10300
C 	C 	0.45933 0.44539 0.29032 -0.12400
C 	C 	0.43242 0.83990 0.17700 0.07600
C 	C 	0.26890 0.40446 0.88920 0.02100
C 	C 	0.55098 0.78844 0.05898 0.12400
C 	C 	0.10685 0.74385 0.09110 -0.17500
C 	C 	0.01815 0.03395 0.78890 -0.00300
C 	C 	0.45246 0.59827 0.14615 -0.14200
C 	C 	0.66407 0.24828 0.36425 -0.12500
C 	C 	0.21616 0.39906 0.16710 0.08700
C 	C 	0.96690 0.59118 0.22240 -0.13000
C 	C 	0.35693 0.94991 0.29290 0.38000
C 	C 	0.48670 0.79070 0.72260 0.11200
C 	C 	0.98000 0.01206 0.78308 0.07200
C 	C 	0.24420 0.97090 0.78490 -0.10700
C 	C 	0.67526 0.82429 0.72269 -0.12000
C 	C 	0.11430 0.38819 0.13525 -0.18300
C 	C 	0.46439 0.45261 0.48890 -0.05300
C 	C 	0.58922 0.45644 0.38222 -0.03500
C 	C 	0.61963 0.82531 0.98680 -0.01100
C 	C 	0.44417 0.45029 0.52210 -0.01300
C 	C 	0.10611 0.04619 0.79270 -0.28500
C 	C 	0.01859 0.65201 0.16920 -0.03200
C 	C 	0.71867 0.30903 0.31060 -0.12100
C 	C 	0.47236 0.45482 0.42730 -0.18000
C 	C 	0.18915 0.81533 0.93730 -0.11300
C 	C 	0.98495 0.61263 0.18490 0.08500
C 	C 	0.91665 0.53451 0.21790 -0.11400
C 	C 	0.97139 0.97766 0.58257 -0.11000
C 	C 	0.14587 0.05339 0.39720 0.11900
C 	C 	0.08780 0.06450 0.79090 0.17100
C 	C 	0.62222 0.45684 0.36980 -0.02100
C 	C 	0.70634 0.84190 0.88920 0.02100
C 	C 	0.16111 0.10119 0.79270 -0.28500
C 	C 	0.93584 0.95950 0.62142 0.03400
C 	C 	0.42252 0.44951 0.56233 0.06500
C 	C 	0.14040 0.06410 0.79550 0.24600
C 	C 	0.37161 0.97699 0.65140 -0.08500
C 	C 	0.18388 0.97442 0.78970 -0.09400
C 	C 	0.98310 0.39058 0.17700 0.07500
C 	C 	0.45302 0.60205 0.72269 -0.12000
C 	C 	0.15336 0.38974 0.11600 0.12500
C 	C 	0.87747 0.96075 0.76618 0.39300
C 	C 	0.67273 0.82561 0.92866 -0.10300
C 	C 	0.67455 0.88429 0.92580 -0.10100
C 	C 	0.41160 0.01590 0.57250 0.04800
C 	C 	0.20901 0.82834 0.23885 0.05400
C 	C 	0.47656 0.75045 0.13525 -0.18300
C 	C 	0.96726 0.39270 0.21400 -0.12500
C 	C 	0.17471 0.39219 0.13410 -0.04900
C 	C 	0.46321 0.45289 0.34990 -0.01300
C 	C 	0.10550 0.10530 0.78920 -0.19800
C 	C 	0.16134 0.02856 0.38222 -0.03500
C 	C 	0.27903 0.40567 0.16230 0.07700
C 	C 	0.18642 0.81070 0.22240 -0.13000
C 	C 	0.54941 0.45693 0.39720 0.11900
C 	C 	0.22159 0.00245 0.31270 -0.13100
C 	C 	0.96380 0.03280 0.77760 -0.12700
C 	C 	0.91707 0.97883 0.64004 -0.09000
C 	C 	0.36579 0.83900 0.73971 0.05000
C 	C 	0.48128 0.45602 0.36490 -0.05000
C 	C 	0.66437 0.87533 0.73550 -0.11600
C 	C 	0.17908 0.15382 0.36490 -0.05000
C 	C 	0.38037 0.97073 0.31060 -0.12200
C 	C 	0.25558 0.40139 0.14615 -0.14200
C 	C 	0.98816 0.01515 0.56233 0.06400
C 	C 	0.25838 0.00677 0.78723 0.03000
C 	C 	0.17247 0.39067 0.07790 -0.18200
C 	C 	0.75719 0.35017 0.29290 0.38000
C 	C 	0.18991 0.39965 0.92580 -0.10100
C 	C 	0.38747 0.97168 0.36425 -0.12500
C 	C 	0.58470 0.80400 0.72170 -0.03600
C 	C 	0.40360 0.44466 0.34830 -0.12100
C 	C 	0.47226 0.75236 0.72158 -0.16100
C 	C 	0.19721 0.18689 0.34990 -0.01300
C 	C 	0.17560 0.03030 0.79410 0.03700
C 	C 	0.18789 0.39357 0.98680 -0.01100
C 	C 	0.44854 0.87756 0.15794 -0.12400
C 	C 	0.19296 0.98806 0.35310 0.08100
C 	C 	0.91237 0.97805 0.77218 -0.13700
C 	C 	0.10946 0.03869 0.43527 -0.17500
C 	C 	0.20247 0.83015 0.18490 0.08500
C 	C 	0.45649 0.05031 0.38040 -0.04500
C 	C 	0.20716 0.83624 0.95660 0.06300
C 	C 	0.21070 0.83290 0.89890 0.03800
C 	C 	0.19379 0.39461 0.14820 -0.02000
C 	C 	0.48753 0.45422 0.45031 0.12400
C 	C 	0.15258 0.39004 0.05898 0.12400
C 	C 	0.16833 0.09158 0.37415 -0.17500
C 	C 	0.35770 0.89270 0.74960 0.33400
C 	C 	0.10609 0.74361 0.15030 -0.15100
C 	C 	0.25253 0.40790 0.86807 -0.07000
C 	C 	0.50828 0.10664 0.44160 -0.18200
C 	C 	0.70197 0.28561 0.34660 0.05400
C 	C 	0.43576 0.44066 0.27420 0.05000
C 	C 	0.47584 0.80636 0.13640 -0.05400
C 	C 	0.19780 0.01040 0.79180 0.03900
C 	C 	0.45590 0.66040 0.72330 -0.02300
C 	C 	0.36806 0.56102 0.73992 0.03200
C 	C 	0.22522 0.22938 0.32740 0.07200
C 	C 	0.38001 0.43995 0.33220 0.04900
C 	C 	0.26317 0.40761 0.19930 -0.15600
C 	C 	0.26355 0.88489 0.18050 0.04800
C 	C 	0.35278 0.95818 0.63300 0.02100
C 	C 	0.38457 0.44967 0.58094 -0.11200
O 	O 	0.33672 0.47927 0.24929 -0.41600
O 	O 	0.32421 0.44078 0.69721 -0.40700
O 	O 	0.32555 0.86722 0.26685 -0.39200
O 	O 	0.31270 0.41662 0.80964 -0.39200
O 	O 	0.77374 0.87766 0.80964 -0.39200
O 	O 	0.77447 0.42572 0.31799 -0.40200
O 	O 	0.86455 0.92655 0.76712 -0.41400
O 	O 	0.77013 0.36904 0.26109 -0.42200
O 	O 	0.86839 0.47711 0.21358 -0.42500
O 	O 	0.38832 0.47973 0.19713 -0.41000
O 	O 	0.77036 0.92981 0.74475 -0.40900
O 	O 	0.30310 0.97159 0.77779 -0.40600
O 	O 	0.32487 0.36711 0.24400 -0.40900
O 	O 	0.86591 0.47373 0.26840 -0.39000
O 	O 	0.32314 0.41455 0.19713 -0.41000
O 	O 	0.31497 0.92247 0.70972 -0.40500
O 	O 	0.27144 0.41399 0.24929 -0.41600
O 	O 	0.77884 0.43842 0.26196 -0.39600
O 	O 	0.25787 0.86569 0.26840 -0.39000
O 	O 	0.30813 0.92480 0.81905 -0.40500
O 	O 	0.32544 0.48489 0.74475 -0.40900
O 	O 	0.86400 0.98018 0.76184 -0.42200
O 	O 	0.25798 0.37416 0.76184 -0.42200
O 	O 	0.37387 0.43264 0.69949 -0.40100
O 	O 	0.77310 0.36082 0.31258 -0.40200
O 	O 	0.27179 0.36705 0.29698 -0.41100
O 	O 	0.86201 0.97858 0.69721 -0.40700
O 	O 	0.37973 0.48169 0.74140 -0.39400
O 	O 	0.86593 0.40760 0.26685 -0.39200
O 	O 	0.32076 0.87506 0.75248 -0.38600
O 	O 	0.25629 0.90754 0.31799 -0.40200
O 	O 	0.77408 0.93371 0.80855 -0.41000
O 	O 	0.25615 0.87282 0.81905 -0.40500
O 	O 	0.37246 0.92676 0.75248 -0.38600
O 	O 	0.30931 0.91803 0.21358 -0.42500
O 	O 	0.38889 0.43113 0.24400 -0.40900
O 	O 	0.25062 0.91911 0.77779 -0.40600
O 	O 	0.36781 0.97531 0.70972 -0.40500
O 	O 	0.37504 0.92379 0.21517 -0.41400
O 	O 	0.86104 0.40979 0.21517 -0.41400
O 	O 	0.77691 0.87887 0.74140 -0.39400
O 	O 	0.33597 0.43123 0.29698 -0.41100
O 	O 	0.36987 0.96878 0.26109 -0.42200
O 	O 	0.32660 0.91432 0.31258 -0.40200
O 	O 	0.25774 0.41737 0.80855 -0.41000
O 	O 	0.30633 0.36833 0.76712 -0.41400
O 	O 	0.29962 0.95920 0.26196 -0.39600
O 	O 	0.86787 0.92664 0.69949 -0.40100
Cu	Cu	0.71286 0.11611 0.70397 0.90100
Cu	Cu	0.71195 0.57006 0.24739 0.90300
Cu	Cu	0.65720 0.05329 0.76639 0.91100
Cu	Cu	0.17992 0.58317 0.70397 0.90100
Cu	Cu	0.63876 0.57672 0.78452 0.90100
Cu	Cu	0.65228 0.57543 0.24543 0.89800
Cu	Cu	0.18032 0.57641 0.76639 0.91100
Cu	Cu	0.18255 0.04066 0.24739 0.90300
Cu	Cu	0.70055 0.57765 0.72180 0.90400
Cu	Cu	0.17914 0.10229 0.24543 0.89800
Cu	Cu	0.65777 0.04598 0.23493 0.90600
Cu	Cu	0.71909 0.10730 0.23493 0.90600
H 	H 	0.66060 0.17370 0.25890 0.02900
H 	H 	0.47330 0.88250 0.64420 0.10300
H 	H 	0.74100 0.11400 0.04920 0.07300
H 	H 	0.55360 0.44950 0.27570 0.02800
H 	H 	0.62100 0.04140 0.61140 0.07700
H 	H 	0.62530 0.38740 0.26170 0.07500
H 	H 	0.27990 0.07400 0.12790 0.04300
H 	H 	0.28290 0.17250 0.12320 0.04000
H 	H 	0.90790 0.26890 0.82320 0.08800
H 	H 	0.83110 0.05180 0.59790 0.07500
H 	H 	0.08330 0.06820 0.22230 0.02800
H 	H 	0.55340 0.56070 0.75090 0.03100
H 	H 	0.54560 0.94270 0.70270 0.07400
H 	H 	0.74710 0.76010 0.21320 0.07800
H 	H 	0.02480 0.60790 0.86710 0.07700
H 	H 	0.26340 0.53150 0.73310 0.02900
H 	H 	0.02220 0.39690 0.76350 0.07900
H 	H 	0.33620 0.10140 0.06180 0.06900
H 	H 	0.90640 0.26720 0.92180 0.09700
H 	H 	0.79810 0.59220 0.12790 0.04300
H 	H 	0.08100 0.97020 0.23160 0.02700
H 	H 	0.45690 0.26490 0.27820 0.09300
H 	H 	0.45660 0.26370 0.93510 0.09900
H 	H 	0.55370 0.54590 0.56260 0.09700
H 	H 	0.64680 0.56190 0.65370 0.02900
H 	H 	0.80710 0.89850 0.65160 0.10500
H 	H 	0.67290 0.06720 0.35350 0.04000
H 	H 	0.07800 0.60080 0.74300 0.03000
H 	H 	0.65620 0.17900 0.74300 0.03000
H 	H 	0.54560 0.94050 0.41890 0.06600
H 	H 	0.80180 0.18480 0.73580 0.02800
H 	H 	0.83590 0.75330 0.22240 0.07800
H 	H 	0.44990 0.54130 0.65160 0.10500
H 	H 	0.69430 0.59280 0.85190 0.01900
H 	H 	0.51390 0.55270 0.72380 0.07600
H 	H 	0.71620 0.98010 0.21270 0.03700
H 	H 	0.80720 0.07110 0.21270 0.03700
H 	H 	0.57400 0.97520 0.54500 0.09900
H 	H 	0.60740 0.55400 0.62660 0.07500
H 	H 	0.81940 0.76600 0.62660 0.07500
H 	H 	0.56930 0.55960 0.36490 0.03600
H 	H 	0.71030 0.09000 0.83370 0.03000
H 	H 	0.66180 0.55360 0.36760 0.03700
H 	H 	0.78710 0.59350 0.75460 0.02100
H 	H 	0.70430 0.59390 0.12320 0.04000
H 	H 	0.61780 0.39190 0.78170 0.08200
H 	H 	0.68840 0.69570 0.75090 0.03100
H 	H 	0.73540 0.00350 0.73310 0.02900
H 	H 	0.53460 0.55400 0.43000 0.07300
H 	H 	0.65410 0.07540 0.64090 0.02900
H 	H 	0.57930 0.97360 0.35350 0.04000
H 	H 	0.84170 0.03880 0.21010 0.06600
H 	H 	0.07630 0.45600 0.83370 0.03000
H 	H 	0.28370 0.70500 0.64090 0.02900
H 	H 	0.34720 0.76760 0.61140 0.07700
H 	H 	0.46040 0.16850 0.27830 0.09100
H 	H 	0.02670 0.03970 0.21320 0.07800
H 	H 	0.81100 0.17180 0.92180 0.09700
H 	H 	0.70520 0.08480 0.11520 0.03300
H 	H 	0.33280 0.19850 0.28310 0.07600
H 	H 	0.57880 0.97660 0.73220 0.02900
H 	H 	0.72350 0.76230 0.72380 0.07600
H 	H 	0.29290 0.08520 0.25430 0.03400
H 	H 	0.07880 0.97060 0.36760 0.03700
H 	H 	0.29120 0.68900 0.73220 0.02900
H 	H 	0.56740 0.08050 0.25890 0.02900
H 	H 	0.45350 0.16550 0.93460 0.09900
H 	H 	0.74830 0.11960 0.86130 0.07800
H 	H 	0.27480 0.17070 0.27570 0.02800
H 	H 	0.90510 0.97910 0.20780 0.13500
H 	H 	0.83680 0.60200 0.06180 0.06900
H 	H 	0.02430 0.94170 0.22240 0.07800
H 	H 	0.61750 0.20670 0.77320 0.07700
H 	H 	0.55320 0.26130 0.27830 0.09100
H 	H 	0.83960 0.21430 0.76350 0.07900
H 	H 	0.80120 0.60830 0.93510 0.09900
H 	H 	0.90570 0.98710 0.54920 0.09800
H 	H 	0.32090 0.52280 0.70190 0.09000
H 	H 	0.54860 0.26240 0.83900 0.09900
H 	H 	0.62710 0.54800 0.43270 0.07100
H 	H 	0.62470 0.20340 0.26530 0.07000
H 	H 	0.52120 0.38750 0.87890 0.08300
H 	H 	0.79820 0.68740 0.23160 0.02700
H 	H 	0.29270 0.57980 0.62910 0.03200
H 	H 	0.53130 0.11000 0.26530 0.07000
H 	H 	0.47980 0.88100 0.54500 0.09900
H 	H 	0.82640 0.60050 0.78170 0.08200
H 	H 	0.65190 0.45830 0.75460 0.02100
H 	H 	0.81310 0.88710 0.20780 0.13500
H 	H 	0.78440 0.69950 0.65370 0.02900
H 	H 	0.80000 0.17960 0.11520 0.03300
H 	H 	0.35030 0.57100 0.59790 0.07500
H 	H 	0.70950 0.69440 0.22230 0.02700
H 	H 	0.08260 0.59940 0.83700 0.02800
H 	H 	0.01600 0.03540 0.43000 0.07300
H 	H 	0.90640 0.88090 0.21270 0.10600
H 	H 	0.52500 0.10810 0.86710 0.07700
H 	H 	0.55530 0.45380 0.85190 0.01900
H 	H 	0.51840 0.38410 0.28310 0.07600
H 	H 	0.02010 0.60930 0.77320 0.07700
H 	H 	0.33920 0.19970 0.05710 0.07000
H 	H 	0.01910 0.39040 0.86130 0.07800
H 	H 	0.46370 0.54510 0.54920 0.09800
H 	H 	0.79110 0.07820 0.62910 0.03200
H 	H 	0.01930 0.94020 0.43270 0.07100
H 	H 	0.89150 0.88370 0.56260 0.09700
H 	H 	0.35090 0.11300 0.26170 0.07500
H 	H 	0.74320 0.60370 0.05710 0.07000
H 	H 	0.56360 0.08040 0.83700 0.02800
H 	H 	0.75110 0.94820 0.21010 0.06600
H 	H 	0.73360 0.59990 0.87890 0.08300
H 	H 	0.77530 0.97720 0.70190 0.08900
H 	H 	0.89860 0.61240 0.83900 0.09900
H 	H 	0.83680 0.20980 0.04920 0.07300
H 	H 	0.89990 0.61190 0.93460 0.09900
H 	H 	0.66050 0.45280 0.25430 0.03400
H 	H 	0.64060 0.03550 0.41890 0.06600
H 	H 	0.07940 0.46240 0.73580 0.02800
H 	H 	0.07550 0.06580 0.36490 0.03700
H 	H 	0.35460 0.75170 0.70270 0.07400
C 	C 	0.82285 0.80705 0.21110 -0.00300
C 	C 	0.63614 0.55364 0.38020 0.03100
C 	C 	0.61963 0.02927 0.68940 -0.12200
C 	C 	0.56424 0.55934 0.72580 0.05000
C 	C 	0.83495 0.19795 0.90890 -0.17500
C 	C 	0.88643 0.61151 0.92182 -0.18200
C 	C 	0.82440 0.96970 0.20590 0.03700
C 	C 	0.84664 0.61026 0.88400 0.12500
C 	C 	0.76412 0.97358 0.21030 -0.09400
C 	C 	0.75901 0.13277 0.83602 -0.12700
C 	C 	0.51872 0.54398 0.63510 -0.05000
C 	C 	0.55678 0.55262 0.67260 0.07200
C 	C 	0.85960 0.93590 0.20450 0.24600
C 	C 	0.54410 0.33960 0.27670 -0.02300
C 	C 	0.81612 0.02558 0.21030 -0.09400
C 	C 	0.29843 0.56831 0.64380 0.04100
C 	C 	0.74747 0.59210 0.13193 -0.07000
C 	C 	0.75580 0.02910 0.21510 -0.10700
C 	C 	0.06539 0.44405 0.81950 0.04800
C 	C 	0.97239 0.96627 0.47790 -0.01200
C 	C 	0.85404 0.21774 0.87140 0.09900
C 	C 	0.79284 0.16376 0.04340 0.06300
C 	C 	0.51330 0.20930 0.27740 0.11200
C 	C 	0.75466 0.01326 0.70582 0.04800
C 	C 	0.63876 0.50085 0.25839 0.33800
C 	C 	0.78930 0.16710 0.10110 0.03800
C 	C 	0.45059 0.54307 0.60280 0.11900
C 	C 	0.60517 0.40440 0.79583 -0.14100
C 	C 	0.12253 0.03925 0.23382 0.39300
C 	C 	0.78798 0.70217 0.22785 0.06200
C 	C 	0.29803 0.71439 0.65340 0.05400
C 	C 	0.78384 0.60094 0.83290 0.08700
C 	C 	0.01184 0.98485 0.43767 0.06400
C 	C 	0.52764 0.54518 0.57270 -0.18000
C 	C 	0.84100 0.95450 0.20450 -0.12800
C 	C 	0.54351 0.17689 0.84520 -0.01800
C 	C 	0.52774 0.24764 0.27842 -0.16100
C 	C 	0.89054 0.96131 0.56473 -0.17500
C 	C 	0.73110 0.59554 0.11080 0.02100
C 	C 	0.73306 0.69124 0.70490 -0.11700
C 	C 	0.35710 0.76568 0.65420 0.07500
C 	C 	0.88212 0.89966 0.57270 -0.18000
C 	C 	0.78789 0.05777 0.64380 0.04100
C 	C 	0.03274 0.60730 0.78600 -0.12500
C 	C 	0.62776 0.02270 0.40630 -0.09400
C 	C 	0.56023 0.55396 0.41743 -0.11100
C 	C 	0.27252 0.55654 0.68410 -0.10400
C 	C 	0.64307 0.05009 0.70710 0.38000
C 	C 	0.37778 0.54316 0.63020 -0.02100
C 	C 	0.85390 0.21940 0.92670 0.12300
C 	C 	0.88570 0.61181 0.86475 -0.18300
C 	C 	0.53006 0.93014 0.53980 0.12300
C 	C 	0.72693 0.64365 0.23382 0.39300
C 	C 	0.55146 0.12244 0.84206 -0.12400
C 	C 	0.27597 0.12060 0.13193 -0.07000
C 	C 	0.62839 0.02301 0.34860 -0.08500
C 	C 	0.03550 0.60648 0.84206 -0.12400
C 	C 	0.82664 0.99202 0.63020 -0.02100
C 	C 	0.62953 0.50359 0.78430 0.39700
C 	C 	0.56758 0.16010 0.82300 0.07600
C 	C 	0.55738 0.12311 0.26451 -0.11400
C 	C 	0.33275 0.56307 0.62520 -0.12200
C 	C 	0.82986 0.60820 0.98060 -0.05100
C 	C 	0.01690 0.60942 0.82300 0.07500
C 	C 	0.49172 0.89336 0.55840 -0.18200
C 	C 	0.52344 0.24955 0.86475 -0.18300
C 	C 	0.41120 0.18954 0.98060 -0.05100
C 	C 	0.89389 0.95381 0.20730 -0.28500
C 	C 	0.73683 0.59239 0.80070 -0.15600
C 	C 	0.83866 0.97144 0.61778 -0.03500
C 	C 	0.28133 0.69097 0.68940 -0.12100
C 	C 	0.83501 0.20119 0.84820 -0.02800
C 	C 	0.61678 0.12506 0.25816 -0.11700
C 	C 	0.58092 0.55726 0.37858 0.03500
C 	C 	0.47144 0.87522 0.59750 0.12300
C 	C 	0.54824 0.94988 0.55840 -0.18200
C 	C 	0.02861 0.02234 0.41743 -0.11000
C 	C 	0.62910 0.56818 0.72220 0.36500
C 	C 	0.59640 0.55534 0.65170 -0.12100
C 	C 	0.77628 0.59473 0.77971 0.07600
C 	C 	0.72389 0.58492 0.17687 0.32700
C 	C 	0.81173 0.04205 0.62520 -0.12200
C 	C 	0.31515 0.53429 0.68730 -0.13200
C 	C 	0.38037 0.17469 0.01320 -0.01100
C 	C 	0.03762 0.02569 0.21689 -0.12800
C 	C 	0.47396 0.54473 0.56473 -0.17500
C 	C 	0.79379 0.60379 0.05302 0.05900
C 	C 	0.54351 0.94969 0.61960 -0.04500
C 	C 	0.79296 0.75190 0.65170 -0.12100
C 	C 	0.33563 0.12467 0.26450 -0.11600
C 	C 	0.03121 0.40497 0.83602 -0.12700
C 	C 	0.61049 0.45750 0.26427 -0.09600
C 	C 	0.90453 0.93784 0.54969 0.12400
C 	C 	0.06998 0.98417 0.22785 0.06200
C 	C 	0.85540 0.87870 0.20910 0.17100
C 	C 	0.79099 0.17166 0.76115 0.05400
C 	C 	0.29189 0.09941 0.11360 0.01700
C 	C 	0.06616 0.98366 0.38020 0.03100
C 	C 	0.59118 0.98578 0.36700 0.02100
C 	C 	0.75241 0.13455 0.78210 -0.11400
C 	C 	0.08582 0.59930 0.78710 -0.12100
C 	C 	0.79977 0.59900 0.79583 -0.14100
C 	C 	0.06717 0.60224 0.76807 0.05300
C 	C 	0.64363 0.56233 0.31678 0.33800
C 	C 	0.75053 0.12977 0.11970 -0.09600
C 	C 	0.06416 0.04050 0.37858 0.03400
C 	C 	0.53561 0.54739 0.51110 -0.05300
C 	C 	0.03620 0.96720 0.22240 -0.12700
C 	C 	0.50729 0.26639 0.27952 0.10400
C 	C 	0.52728 0.93106 0.59750 0.12300
C 	C 	0.45409 0.21319 0.27952 0.10400
C 	C 	0.60386 0.56204 0.70490 -0.11700
C 	C 	0.80704 0.01194 0.64690 0.08100
C 	C 	0.53679 0.54711 0.65010 -0.01300
C 	C 	0.73571 0.74965 0.70968 -0.12400
C 	C 	0.56616 0.38326 0.83290 0.08700
C 	C 	0.58727 0.98969 0.70784 0.05300
C 	C 	0.47394 0.19384 0.27842 -0.16100
C 	C 	0.24281 0.64983 0.70710 0.38000
C 	C 	0.24076 0.10285 0.25839 0.33800
C 	C 	0.41530 0.19600 0.27830 -0.03600
C 	C 	0.73223 0.05977 0.70220 0.33000
C 	C 	0.61543 0.55033 0.41906 -0.11200
C 	C 	0.90557 0.61244 0.88369 0.12900
C 	C 	0.61253 0.02832 0.63575 -0.12500
C 	C 	0.63801 0.10997 0.76870 0.34400
C 	C 	0.81040 0.74140 0.22240 -0.12700
C 	C 	0.83410 0.20130 0.96460 -0.05300
C 	C 	0.34753 0.15855 0.27312 0.07400
C 	C 	0.79514 0.76308 0.21692 0.07200
C 	C 	0.84566 0.88495 0.61081 0.12400
C 	C 	0.38370 0.17920 0.27670 -0.02300
C 	C 	0.12089 0.03959 0.31678 0.33800
C 	C 	0.58012 0.98870 0.65420 0.07500
C 	C 	0.02000 0.98794 0.21692 0.07200
C 	C 	0.56753 0.96939 0.69020 -0.12500
C 	C 	0.83167 0.90842 0.62585 -0.17500
C 	C 	0.74162 0.99323 0.21277 0.03000
C 	C 	0.23821 0.09924 0.17687 0.32700
C 	C 	0.81085 0.18467 0.06270 -0.11300
C 	C 	0.46667 0.19175 0.92182 -0.18200
C 	C 	0.54900 0.17780 0.27320 -0.00200
C 	C 	0.32545 0.11571 0.07420 -0.10100
C 	C 	0.61360 0.12708 0.78710 -0.12100
C 	C 	0.77841 0.99755 0.68730 -0.13100
C 	C 	0.89315 0.25615 0.90890 -0.17500
C 	C 	0.82092 0.84618 0.63510 -0.05000
C 	C 	0.43071 0.83689 0.61960 -0.04500
C 	C 	0.30094 0.10798 0.26008 0.03200
C 	C 	0.56808 0.43704 0.27288 0.03900
C 	C 	0.73180 0.10960 0.10110 0.03800
C 	C 	0.54754 0.40173 0.85385 -0.14200
C 	C 	0.57871 0.10550 0.26029 0.05000
C 	C 	0.75023 0.68455 0.22782 -0.13800
C 	C 	0.61238 0.17811 0.26451 -0.11400
C 	C 	0.91220 0.93550 0.20910 0.17100
C 	C 	0.95061 0.31679 0.84820 -0.02800
C 	C 	0.55583 0.54971 0.47790 -0.01300
C 	C 	0.53320 0.19210 0.27470 -0.06500
C 	C 	0.80279 0.81311 0.65010 -0.01300
C 	C 	0.77215 0.71221 0.66780 0.04900
C 	C 	0.94276 0.61224 0.86360 -0.05400
C 	C 	0.54067 0.55461 0.70968 -0.12400
C 	C 	0.81470 0.18440 0.00090 -0.01100
C 	C 	0.64230 0.10730 0.25040 0.33400
C 	C 	0.82753 0.60933 0.92210 -0.18200
C 	C 	0.08763 0.02195 0.22782 -0.13700
C 	C 	0.72410 0.11360 0.76750 0.36600
C 	C 	0.62556 0.44401 0.77971 0.07600
C 	C 	0.89391 0.25639 0.84970 -0.15100
C 	C 	0.85413 0.94661 0.60280 0.11900
C 	C 	0.52570 0.30640 0.27830 -0.03600
C 	C 	0.97791 0.61129 0.84520 -0.01800
C 	C 	0.83889 0.89881 0.20730 -0.28500
C 	C 	0.63421 0.16100 0.26029 0.05000
C 	C 	0.39830 0.80520 0.63350 -0.01700
C 	C 	0.98141 0.34799 0.83080 -0.03200
C 	C 	0.46573 0.54248 0.62585 -0.17500
C 	C 	0.56833 0.37935 0.27312 0.07400
C 	C 	0.63221 0.04857 0.65340 0.05400
C 	C 	0.03310 0.40882 0.77760 -0.13000
C 	C 	0.65141 0.04339 0.30520 0.34500
C 	C 	0.57210 0.16010 0.26780 0.05700
C 	C 	0.61083 0.39987 0.26450 -0.11600
C 	C 	0.75936 0.04338 0.68410 -0.10400
C 	C 	0.73496 0.70622 0.22234 0.06400
C 	C 	0.11890 0.50840 0.76750 0.36600
C 	C 	0.32474 0.17571 0.27731 -0.12000
C 	C 	0.72097 0.59433 0.83770 0.07700
C 	C 	0.79753 0.16985 0.81510 0.08500
C 	C 	0.61887 0.55711 0.35996 -0.09000
C 	C 	0.57748 0.55049 0.43767 0.06500
C 	C 	0.52416 0.19364 0.86360 -0.05400
C 	C 	0.29008 0.15904 0.27288 0.03900
C 	C 	0.46960 0.25150 0.27890 -0.16100
C 	C 	0.77478 0.77062 0.67260 0.07200
C 	C 	0.12133 0.59329 0.76870 0.34400
C 	C 	0.48825 0.89435 0.61740 -0.18000
C 	C 	0.51247 0.54578 0.54969 0.12400
C 	C 	0.58840 0.98410 0.42750 0.04800
C 	C 	0.80220 0.98960 0.20820 0.03900
C 	C 	0.54698 0.39795 0.27731 -0.12000
C 	C 	0.50424 0.54353 0.61081 0.12400
C 	C 	0.56726 0.96534 0.46740 -0.00500
C 	C 	0.94151 0.95329 0.51110 -0.05300
C 	C 	0.41078 0.54356 0.61778 -0.03500
C 	C 	0.64722 0.04182 0.36700 0.02100
C 	C 	0.63194 0.43898 0.26008 0.03200
C 	C 	0.60691 0.46247 0.80070 -0.15600
C 	C 	0.71486 0.70996 0.72580 0.05000
C 	C 	0.72675 0.10955 0.16370 0.34500
C 	C 	0.61999 0.56005 0.66780 0.04900
C 	C 	0.01505 0.38737 0.81510 0.08500
C 	C 	0.52629 0.30881 0.86590 -0.04900
C 	C 	0.34319 0.15319 0.05302 0.05900
C 	C 	0.29366 0.15810 0.11080 0.02100
C 	C 	0.79400 0.04561 0.21277 0.03000
C 	C 	0.82121 0.18779 0.83080 -0.03200
C 	C 	0.46857 0.25037 0.92210 -0.18200
C 	C 	0.78699 0.59451 0.11360 0.01700
C 	C 	0.57100 0.96594 0.40630 -0.09400
C 	C 	0.06998 0.60142 0.82410 0.05200
C 	C 	0.32727 0.17439 0.07134 -0.10300
C 	C 	0.56130 0.96820 0.63350 -0.01700
C 	C 	0.23803 0.56557 0.70220 0.33000
C 	C 	0.73047 0.04653 0.22300 0.36000
C 	C 	0.60670 0.18126 0.78600 -0.12500
C 	C 	0.81358 0.18930 0.77760 -0.13000
C 	C 	0.34116 0.54606 0.64690 0.08100
C 	C 	0.71211 0.58617 0.78430 0.39700
C 	C 	0.27823 0.12524 0.26427 -0.09600
C 	C 	0.55163 0.95077 0.49760 -0.04900
C 	C 	0.08293 0.02117 0.35996 -0.09000
C 	C 	0.54281 0.34199 0.85180 -0.02000
C 	C 	0.91086 0.27456 0.87140 0.09900
C 	C 	0.56797 0.44133 0.83770 0.07700
C 	C 	0.34041 0.74227 0.69020 -0.12500
C 	C 	0.73645 0.11511 0.81950 0.04800
C 	C 	0.81009 0.60035 0.07420 -0.10100
C 	C 	0.98185 0.96605 0.21110 -0.00300
C 	C 	0.94840 0.95180 0.21140 -0.07100
C 	C 	0.84742 0.60996 0.94102 0.12400
C 	C 	0.70962 0.64870 0.72220 0.36500
C 	C 	0.80621 0.60539 0.85180 -0.02000
C 	C 	0.50574 0.26936 0.88400 0.12500
C 	C 	0.89450 0.89470 0.21080 -0.19800
C 	C 	0.08335 0.46549 0.78210 -0.11400
C 	C 	0.62969 0.16476 0.76807 0.05300
C 	C 	0.28092 0.53952 0.70582 0.04900
C 	C 	0.33593 0.75172 0.63575 -0.12500
C 	C 	0.82529 0.60781 0.86590 -0.04900
C 	C 	0.75427 0.60139 0.07134 -0.10300
C 	C 	0.74442 0.59861 0.85385 -0.14200
C 	C 	0.50387 0.21074 0.88369 0.12900
C 	C 	0.06719 0.44786 0.76115 0.05400
C 	C 	0.07144 0.04270 0.22234 0.06400
C 	C 	0.03061 0.96551 0.41906 -0.11100
C 	C 	0.81211 0.60643 0.01320 -0.01100
C 	C 	0.83680 0.84020 0.21140 -0.07100
C 	C 	0.30247 0.70489 0.70784 0.05300
C 	C 	0.44902 0.21156 0.94102 0.12400
C 	C 	0.57448 0.10592 0.82410 0.05200
C 	C 	0.75263 0.12645 0.06270 -0.11300
C 	C 	0.75742 0.74549 0.21689 -0.12800
O 	O 	0.22626 0.12234 0.19036 -0.39200
O 	O 	0.74938 0.08089 0.22221 -0.40600
O 	O 	0.67579 0.55922 0.30279 -0.40700
O 	O 	0.13161 0.52289 0.78642 -0.42500
O 	O 	0.13545 0.07345 0.23288 -0.41400
O 	O 	0.13896 0.59021 0.78483 -0.41400
O 	O 	0.68503 0.07753 0.29028 -0.40500
O 	O 	0.68730 0.58338 0.19036 -0.39200
O 	O 	0.62613 0.56736 0.30051 -0.40100
O 	O 	0.67686 0.58545 0.80287 -0.41000
O 	O 	0.22116 0.56158 0.73804 -0.39600
O 	O 	0.72856 0.58601 0.75071 -0.41600
O 	O 	0.70038 0.04080 0.73804 -0.39600
O 	O 	0.67456 0.51511 0.25525 -0.40900
O 	O 	0.13213 0.07336 0.30051 -0.40100
O 	O 	0.61111 0.56887 0.75600 -0.40900
O 	O 	0.69069 0.08197 0.78642 -0.42500
O 	O 	0.74385 0.12718 0.18095 -0.40500
O 	O 	0.66328 0.52073 0.75071 -0.41600
O 	O 	0.67924 0.12494 0.24752 -0.38600
O 	O 	0.66403 0.56877 0.70302 -0.41100
O 	O 	0.63013 0.03122 0.73891 -0.42200
O 	O 	0.22309 0.12113 0.25860 -0.39400
O 	O 	0.22553 0.57428 0.68201 -0.40200
O 	O 	0.69367 0.63167 0.23288 -0.41400
O 	O 	0.13600 0.01982 0.23816 -0.42200
O 	O 	0.61168 0.52027 0.80287 -0.41000
O 	O 	0.69690 0.02841 0.22221 -0.40600
O 	O 	0.22987 0.63096 0.73891 -0.42200
O 	O 	0.22964 0.07019 0.25525 -0.40900
O 	O 	0.69187 0.07520 0.18095 -0.40500
O 	O 	0.74213 0.13431 0.73160 -0.39000
O 	O 	0.13799 0.02142 0.30279 -0.40700
O 	O 	0.74371 0.09246 0.68201 -0.40200
O 	O 	0.63219 0.02469 0.29028 -0.40500
O 	O 	0.62496 0.07621 0.78483 -0.41400
O 	O 	0.74202 0.62584 0.23816 -0.42200
O 	O 	0.22690 0.63918 0.68742 -0.40200
O 	O 	0.72821 0.63295 0.70302 -0.41100
O 	O 	0.67340 0.08568 0.68742 -0.40200
O 	O 	0.62754 0.07324 0.24752 -0.38600
O 	O 	0.74226 0.58263 0.19145 -0.41000
O 	O 	0.22592 0.06629 0.19145 -0.41000
O 	O 	0.67513 0.63289 0.75600 -0.40900
O 	O 	0.62027 0.51831 0.25860 -0.39400
O 	O 	0.13407 0.59240 0.73315 -0.39200
O 	O 	0.67445 0.13278 0.73315 -0.39200
O 	O 	0.13409 0.52627 0.73160 -0.39000
