data_crystal

_cell_length_a 47.49300
_cell_length_b 51.75150
_cell_length_c 32.96740
_cell_angle_alpha 90.00000
_cell_angle_beta  92.69000
_cell_angle_gamma 90.00000

_symmetry_space_group_name_	'P 1'
_symmetry_space_group_name_H-M	'P 1'

loop_
_symmetry_equiv_pos_as_xyz
  x,y,z

loop_
_atom_site_label
_atom_site_type_symbol
_atom_site_fract_x
_atom_site_fract_y
_atom_site_fract_z
_atom_site_charge
Cu	Cu	0.14008 0.85379 0.27209 0.90500
Cu	Cu	0.18212 0.88685 0.27657 0.90900
Cu	Cu	0.38836 0.87637 0.79145 0.91100
Cu	Cu	0.43214 0.84531 0.79568 0.89900
Cu	Cu	0.78388 0.00307 0.58515 0.90900
Cu	Cu	0.77829 0.00119 0.50545 0.90500
O 	O 	0.16667 0.83294 0.30682 -0.41000
O 	O 	0.19932 0.86364 0.31654 -0.39400
O 	O 	0.12253 0.11922 0.73723 -0.37200
O 	O 	0.16082 0.09334 0.73774 -0.41100
O 	O 	0.15802 0.83902 0.22613 -0.40700
O 	O 	0.19596 0.86364 0.23463 -0.40900
O 	O 	0.12741 0.87147 0.31849 -0.39400
O 	O 	0.16043 0.90302 0.31894 -0.41400
O 	O 	0.37712 0.85568 0.74381 -0.40700
O 	O 	0.41366 0.82736 0.74980 -0.39700
O 	O 	0.40601 0.10800 0.34016 -0.40300
O 	O 	0.44483 0.13204 0.34024 -0.40100
O 	O 	0.41184 0.89728 0.75851 -0.43000
O 	O 	0.44829 0.87019 0.75814 -0.37400
O 	O 	0.37161 0.85096 0.82529 -0.43500
O 	O 	0.40854 0.82524 0.83317 -0.39300
O 	O 	0.74418 0.00661 0.58384 -0.41500
O 	O 	0.73870 0.00802 0.51578 -0.39300
O 	O 	0.82380 0.99848 0.57772 -0.42100
O 	O 	0.81914 0.99341 0.51112 -0.39500
O 	O 	0.28872 0.54075 0.57471 -0.41000
O 	O 	0.28615 0.53787 0.50864 -0.41300
O 	O 	0.27961 0.53477 0.07987 -0.39400
O 	O 	0.27147 0.53537 0.01305 -0.39900
C 	C 	0.18929 0.84001 0.32290 0.36500
C 	C 	0.20761 0.82342 0.34658 -0.14300
C 	C 	0.20041 0.79749 0.34966 0.06400
H 	H 	0.18440 0.79110 0.33500 0.02400
C 	C 	0.21681 0.78106 0.37434 -0.13300
H 	H 	0.21190 0.76350 0.37640 0.08200
C 	C 	0.24042 0.79058 0.39596 0.08100
C 	C 	0.24762 0.81651 0.39289 -0.13300
H 	H 	0.26360 0.82290 0.40750 0.08000
C 	C 	0.23122 0.83294 0.36820 0.06600
H 	H 	0.23610 0.85050 0.36610 0.02400
C 	C 	0.25710 0.77383 0.42520 -0.01400
C 	C 	0.26973 0.76178 0.45040 -0.04900
C 	C 	0.28588 0.74893 0.48051 0.12300
C 	C 	0.30125 0.76359 0.50909 -0.17700
H 	H 	0.30080 0.78170 0.50760 0.09700
C 	C 	0.31731 0.75144 0.53984 0.11600
C 	C 	0.31799 0.72462 0.54201 -0.17300
H 	H 	0.32890 0.71640 0.56280 0.09700
C 	C 	0.30262 0.70996 0.51343 0.11500
C 	C 	0.28656 0.72211 0.48268 -0.17600
H 	H 	0.27620 0.71220 0.46340 0.09700
C 	C 	0.33060 0.76601 0.57190 -0.04500
C 	C 	0.34230 0.77870 0.60180 -0.02900
C 	C 	0.35556 0.79320 0.63296 0.08400
C 	C 	0.34344 0.81655 0.64350 -0.13200
H 	H 	0.32760 0.82280 0.62850 0.07900
C 	C 	0.35481 0.83063 0.67630 0.05800
H 	H 	0.34660 0.84640 0.68340 0.02600
C 	C 	0.37830 0.82136 0.69843 -0.12600
C 	C 	0.39042 0.79801 0.68790 0.05700
H 	H 	0.40630 0.79170 0.70280 0.02700
C 	C 	0.37906 0.78393 0.65510 -0.13100
H 	H 	0.38730 0.76810 0.64800 0.07800
C 	C 	0.38960 0.83558 0.73350 0.35100
C 	C 	0.30135 0.68231 0.51770 -0.03600
C 	C 	0.29999 0.65880 0.52410 -0.03300
C 	C 	0.29864 0.63230 0.52830 0.10000
C 	C 	0.29231 0.61717 0.49427 -0.14900
H 	H 	0.29020 0.62490 0.46850 0.08500
C 	C 	0.28916 0.59060 0.49832 0.08100
H 	H 	0.28490 0.58040 0.47530 0.01700
C 	C 	0.29234 0.57917 0.53642 -0.15800
C 	C 	0.29867 0.59431 0.57046 0.08100
H 	H 	0.30080 0.58660 0.59620 0.02000
C 	C 	0.30182 0.62088 0.56641 -0.14900
H 	H 	0.30610 0.63110 0.58940 0.09300
C 	C 	0.28883 0.55161 0.54100 0.39000
C 	C 	0.43300 0.89156 0.74306 0.35800
C 	C 	0.45045 0.90814 0.71858 -0.13200
C 	C 	0.43589 0.92989 0.70447 0.05600
H 	H 	0.41740 0.93290 0.71230 0.02600
C 	C 	0.44867 0.94717 0.67881 -0.13300
H 	H 	0.43880 0.96190 0.66930 0.07900
C 	C 	0.47602 0.94269 0.66726 0.09100
C 	C 	0.49058 0.92093 0.68137 -0.13800
H 	H 	0.50910 0.91790 0.67360 0.09000
C 	C 	0.47779 0.90365 0.70703 0.06800
H 	H 	0.48760 0.88890 0.71660 0.02700
C 	C 	0.48868 0.95980 0.64220 -0.03100
C 	C 	0.49917 0.97505 0.61750 -0.03500
C 	C 	0.51122 0.99361 0.58978 0.11300
C 	C 	0.54046 0.99437 0.58932 -0.17000
H 	H 	0.55140 0.98380 0.60710 0.09700
C 	C 	0.55352 0.01071 0.56253 0.11200
C 	C 	0.53735 0.02631 0.53620 -0.17300
H 	H 	0.54620 0.03740 0.51810 0.09500
C 	C 	0.50811 0.02555 0.53666 0.12100
C 	C 	0.49504 0.00921 0.56345 -0.17300
H 	H 	0.47530 0.00870 0.56380 0.09600
C 	C 	0.58410 0.01165 0.56090 -0.04200
C 	C 	0.60970 0.01176 0.55990 -0.02600
C 	C 	0.63956 0.01242 0.55850 0.08100
C 	C 	0.65722 0.01062 0.59326 -0.12700
H 	H 	0.64950 0.01010 0.61900 0.07700
C 	C 	0.68626 0.00961 0.58990 0.05100
H 	H 	0.69820 0.00840 0.61340 0.02800
C 	C 	0.69766 0.01041 0.55190 -0.12200
C 	C 	0.68000 0.01221 0.51715 0.05700
H 	H 	0.68770 0.01280 0.49140 0.02600
C 	C 	0.65095 0.01322 0.52050 -0.13000
H 	H 	0.63900 0.01440 0.49700 0.07800
C 	C 	0.72859 0.00845 0.55190 0.35200
C 	C 	0.49153 0.04013 0.50920 -0.04800
C 	C 	0.48009 0.05407 0.48610 -0.01400
C 	C 	0.46568 0.07006 0.45337 0.07900
C 	C 	0.43801 0.06589 0.43930 -0.13300
H 	H 	0.42710 0.05320 0.45140 0.08100
C 	C 	0.42652 0.08056 0.40730 0.06000
H 	H 	0.40780 0.07770 0.39780 0.02600
C 	C 	0.44270 0.09940 0.38940 -0.13600
C 	C 	0.47037 0.10357 0.40347 0.06000
H 	H 	0.48130 0.11630 0.39140 0.02400
C 	C 	0.48186 0.08890 0.43550 -0.13000
H 	H 	0.50060 0.09170 0.44500 0.07900
C 	C 	0.43013 0.11365 0.35530 0.36300
C 	C 	0.38240 0.83196 0.83980 0.38400
C 	C 	0.36833 0.81321 0.86660 -0.13200
C 	C 	0.38136 0.79140 0.88340 0.06400
H 	H 	0.39980 0.78710 0.87670 0.02400
C 	C 	0.36711 0.77592 0.91010 -0.13600
H 	H 	0.37590 0.76120 0.92150 0.08000
C 	C 	0.33983 0.78226 0.92006 0.08300
C 	C 	0.32681 0.80408 0.90320 -0.13100
H 	H 	0.30840 0.80840 0.91000 0.07800
C 	C 	0.34106 0.81955 0.87650 0.05800
H 	H 	0.33230 0.83430 0.86510 0.02600
C 	C 	0.32321 0.76751 0.94660 -0.02600
C 	C 	0.31105 0.75658 0.97150 -0.04000
C 	C 	0.29434 0.74448 0.00241 0.11800
C 	C 	0.29294 0.71775 0.00602 -0.17900
H 	H 	0.30250 0.70720 0.98810 0.09900
C 	C 	0.27738 0.70670 0.03619 0.12500
C 	C 	0.26321 0.72237 0.06275 -0.17900
H 	H 	0.25270 0.71490 0.08320 0.09700
C 	C 	0.26461 0.74910 0.05914 0.12200
C 	C 	0.28018 0.76015 0.02897 -0.17400
H 	H 	0.28110 0.77820 0.02650 0.09800
C 	C 	0.27496 0.68075 0.03940 -0.05200
C 	C 	0.27319 0.65564 0.04210 -0.02600
C 	C 	0.27193 0.62867 0.04320 0.08900
C 	C 	0.26840 0.61454 0.00745 -0.13900
H 	H 	0.26580 0.62310 0.98240 0.08200
C 	C 	0.26871 0.58769 0.00870 0.07000
H 	H 	0.26630 0.57810 0.98450 0.02300
C 	C 	0.27256 0.57498 0.04570 -0.14400
C 	C 	0.27609 0.58911 0.08142 0.06900
H 	H 	0.27870 0.58050 0.10640 0.02200
C 	C 	0.27578 0.61596 0.08016 -0.13900
H 	H 	0.27820 0.62550 0.10430 0.08200
C 	C 	0.27632 0.54774 0.04670 0.35900
C 	C 	0.24988 0.76592 0.08440 -0.04500
C 	C 	0.23849 0.78017 0.10730 -0.02100
C 	C 	0.22394 0.79729 0.13389 0.08300
C 	C 	0.19653 0.79183 0.14420 -0.13300
H 	H 	0.18710 0.77730 0.13300 0.08100
C 	C 	0.18304 0.80780 0.17110 0.06400
H 	H 	0.16450 0.80410 0.17800 0.02500
C 	C 	0.19696 0.82924 0.18764 -0.13700
C 	C 	0.22438 0.83470 0.17730 0.06400
H 	H 	0.23380 0.84920 0.18850 0.02300
C 	C 	0.23787 0.81873 0.15050 -0.13400
H 	H 	0.25640 0.82240 0.14350 0.08000
C 	C 	0.18280 0.84552 0.21660 0.37300
C 	C 	0.83462 0.99373 0.54540 0.37800
C 	C 	0.86407 0.98816 0.54320 -0.15300
C 	C 	0.87559 0.97947 0.50766 0.07500
H 	H 	0.86390 0.97690 0.48420 0.01900
C 	C 	0.90433 0.97457 0.50689 -0.14500
H 	H 	0.91210 0.96870 0.48290 0.08600
C 	C 	0.92156 0.97835 0.54160 0.09100
C 	C 	0.91004 0.98704 0.57715 -0.14000
H 	H 	0.92170 0.98960 0.60060 0.08300
C 	C 	0.88130 0.99194 0.57792 0.07100
H 	H 	0.87350 0.99780 0.60190 0.02100
C 	C 	0.95202 0.97649 0.53870 -0.02400
C 	C 	0.97606 0.97560 0.53870 -0.03600
C 	C 	0.00734 0.97671 0.54000 0.11300
C 	C 	0.02331 0.96275 0.51334 -0.17400
H 	H 	0.01440 0.95190 0.49390 0.09600
C 	C 	0.05252 0.96488 0.51547 0.12200
C 	C 	0.06575 0.98096 0.54425 -0.17600
H 	H 	0.08550 0.98240 0.54570 0.09800
C 	C 	0.04978 0.99492 0.57091 0.11400
C 	C 	0.02057 0.99280 0.56878 -0.17200
H 	H 	0.00980 0.00220 0.58680 0.09500
C 	C 	0.06754 0.95172 0.48610 -0.04900
C 	C 	0.08094 0.94164 0.46140 -0.01300
C 	C 	0.09687 0.92837 0.42952 0.07400
C 	C 	0.08530 0.90683 0.40983 -0.12300
H 	H 	0.06790 0.90020 0.41750 0.07600
C 	C 	0.09946 0.89509 0.37880 0.05100
H 	H 	0.09160 0.88050 0.36550 0.02900
C 	C 	0.12519 0.90489 0.36747 -0.11700
C 	C 	0.13675 0.92643 0.38717 0.05000
H 	H 	0.15410 0.93310 0.37950 0.03200
C 	C 	0.12259 0.93817 0.41819 -0.12300
H 	H 	0.13040 0.95270 0.43150 0.08300
C 	C 	0.14020 0.89332 0.33346 0.35100
C 	C 	0.06429 0.01275 0.59840 -0.04500
C 	C 	0.07575 0.02855 0.62030 -0.02400
C 	C 	0.09125 0.04614 0.64598 0.07900
C 	C 	0.11936 0.04207 0.65787 -0.12500
H 	H 	0.12900 0.02760 0.64820 0.07600
C 	C 	0.13330 0.05940 0.68402 0.04900
H 	H 	0.15230 0.05660 0.69210 0.02800
C 	C 	0.11911 0.08081 0.69828 -0.12300
C 	C 	0.09099 0.08488 0.68639 0.05700
H 	H 	0.08140 0.09940 0.69600 0.02600
C 	C 	0.07706 0.06755 0.66024 -0.12800
H 	H 	0.05800 0.07030 0.65220 0.07700
C 	C 	0.13650 0.09782 0.72340 0.33200
Cu	Cu	0.64008 0.35379 0.27209 0.90600
Cu	Cu	0.68212 0.38685 0.27657 0.91000
Cu	Cu	0.88836 0.37637 0.79145 0.91200
Cu	Cu	0.93214 0.34531 0.79568 0.90000
Cu	Cu	0.28388 0.50307 0.58515 0.90900
Cu	Cu	0.27829 0.50119 0.50545 0.90500
O 	O 	0.66667 0.33294 0.30682 -0.41000
O 	O 	0.69932 0.36364 0.31654 -0.39400
O 	O 	0.62253 0.61922 0.73723 -0.37200
O 	O 	0.66082 0.59334 0.73774 -0.41100
O 	O 	0.65802 0.33902 0.22613 -0.40700
O 	O 	0.69596 0.36364 0.23463 -0.40900
O 	O 	0.62741 0.37147 0.31849 -0.39400
O 	O 	0.66043 0.40302 0.31894 -0.41400
O 	O 	0.87712 0.35568 0.74381 -0.40700
O 	O 	0.91366 0.32736 0.74980 -0.39700
O 	O 	0.90601 0.60800 0.34016 -0.40300
O 	O 	0.94483 0.63204 0.34024 -0.40100
O 	O 	0.91184 0.39728 0.75851 -0.43000
O 	O 	0.94829 0.37019 0.75814 -0.37400
O 	O 	0.87161 0.35096 0.82529 -0.43500
O 	O 	0.90854 0.32524 0.83317 -0.39300
O 	O 	0.24418 0.50661 0.58384 -0.41500
O 	O 	0.23870 0.50802 0.51578 -0.39300
O 	O 	0.32380 0.49848 0.57772 -0.42100
O 	O 	0.31914 0.49341 0.51112 -0.39500
O 	O 	0.78872 0.04075 0.57471 -0.41000
O 	O 	0.78615 0.03787 0.50864 -0.41300
O 	O 	0.77961 0.03477 0.07987 -0.39400
O 	O 	0.77147 0.03537 0.01305 -0.39900
C 	C 	0.68929 0.34001 0.32290 0.36500
C 	C 	0.70761 0.32342 0.34658 -0.14300
C 	C 	0.70041 0.29749 0.34966 0.06400
H 	H 	0.68440 0.29110 0.33500 0.02400
C 	C 	0.71681 0.28106 0.37434 -0.13300
H 	H 	0.71190 0.26350 0.37640 0.08200
C 	C 	0.74042 0.29058 0.39596 0.08100
C 	C 	0.74762 0.31651 0.39289 -0.13300
H 	H 	0.76360 0.32290 0.40750 0.08000
C 	C 	0.73122 0.33294 0.36820 0.06600
H 	H 	0.73610 0.35050 0.36610 0.02400
C 	C 	0.75710 0.27383 0.42520 -0.01400
C 	C 	0.76973 0.26178 0.45040 -0.04900
C 	C 	0.78588 0.24893 0.48051 0.12300
C 	C 	0.80125 0.26359 0.50909 -0.17700
H 	H 	0.80080 0.28170 0.50760 0.09700
C 	C 	0.81731 0.25144 0.53984 0.11600
C 	C 	0.81799 0.22462 0.54201 -0.17300
H 	H 	0.82890 0.21640 0.56280 0.09700
C 	C 	0.80262 0.20996 0.51343 0.11500
C 	C 	0.78656 0.22211 0.48268 -0.17600
H 	H 	0.77620 0.21220 0.46340 0.09700
C 	C 	0.83060 0.26601 0.57190 -0.04500
C 	C 	0.84230 0.27870 0.60180 -0.02900
C 	C 	0.85556 0.29320 0.63296 0.08400
C 	C 	0.84344 0.31655 0.64350 -0.13200
H 	H 	0.82760 0.32280 0.62850 0.07900
C 	C 	0.85481 0.33063 0.67630 0.05800
H 	H 	0.84660 0.34640 0.68340 0.02600
C 	C 	0.87830 0.32136 0.69843 -0.12600
C 	C 	0.89042 0.29801 0.68790 0.05700
H 	H 	0.90630 0.29170 0.70280 0.02700
C 	C 	0.87906 0.28393 0.65510 -0.13100
H 	H 	0.88730 0.26810 0.64800 0.07800
C 	C 	0.88960 0.33558 0.73350 0.35100
C 	C 	0.80135 0.18231 0.51770 -0.03600
C 	C 	0.79999 0.15880 0.52410 -0.03300
C 	C 	0.79864 0.13230 0.52830 0.10000
C 	C 	0.79231 0.11717 0.49427 -0.14900
H 	H 	0.79020 0.12490 0.46850 0.08500
C 	C 	0.78916 0.09060 0.49832 0.08100
H 	H 	0.78490 0.08040 0.47530 0.01700
C 	C 	0.79234 0.07917 0.53642 -0.15800
C 	C 	0.79867 0.09431 0.57046 0.08100
H 	H 	0.80080 0.08660 0.59620 0.02000
C 	C 	0.80182 0.12088 0.56641 -0.14900
H 	H 	0.80610 0.13110 0.58940 0.09300
C 	C 	0.78883 0.05161 0.54100 0.39000
C 	C 	0.93300 0.39156 0.74306 0.35800
C 	C 	0.95045 0.40814 0.71858 -0.13200
C 	C 	0.93589 0.42989 0.70447 0.05600
H 	H 	0.91740 0.43290 0.71230 0.02600
C 	C 	0.94867 0.44717 0.67881 -0.13300
H 	H 	0.93880 0.46190 0.66930 0.07900
C 	C 	0.97602 0.44269 0.66726 0.09100
C 	C 	0.99058 0.42093 0.68137 -0.13800
H 	H 	0.00910 0.41790 0.67360 0.09000
C 	C 	0.97779 0.40365 0.70703 0.06800
H 	H 	0.98760 0.38890 0.71660 0.02700
C 	C 	0.98868 0.45980 0.64220 -0.03100
C 	C 	0.99917 0.47505 0.61750 -0.03500
C 	C 	0.01122 0.49361 0.58978 0.11300
C 	C 	0.04046 0.49437 0.58932 -0.17000
H 	H 	0.05140 0.48380 0.60710 0.09700
C 	C 	0.05352 0.51071 0.56253 0.11200
C 	C 	0.03735 0.52631 0.53620 -0.17300
H 	H 	0.04620 0.53740 0.51810 0.09500
C 	C 	0.00811 0.52555 0.53666 0.12100
C 	C 	0.99504 0.50921 0.56345 -0.17300
H 	H 	0.97530 0.50870 0.56380 0.09600
C 	C 	0.08410 0.51165 0.56090 -0.04200
C 	C 	0.10970 0.51176 0.55990 -0.02600
C 	C 	0.13956 0.51242 0.55850 0.08100
C 	C 	0.15722 0.51062 0.59326 -0.12700
H 	H 	0.14950 0.51010 0.61900 0.07700
C 	C 	0.18626 0.50961 0.58990 0.05100
H 	H 	0.19820 0.50840 0.61340 0.02800
C 	C 	0.19766 0.51041 0.55190 -0.12200
C 	C 	0.18000 0.51221 0.51715 0.05700
H 	H 	0.18770 0.51280 0.49140 0.02600
C 	C 	0.15095 0.51322 0.52050 -0.13000
H 	H 	0.13900 0.51440 0.49700 0.07800
C 	C 	0.22859 0.50845 0.55190 0.35200
C 	C 	0.99153 0.54013 0.50920 -0.04800
C 	C 	0.98009 0.55407 0.48610 -0.01400
C 	C 	0.96568 0.57006 0.45337 0.07900
C 	C 	0.93801 0.56589 0.43930 -0.13300
H 	H 	0.92710 0.55320 0.45140 0.08100
C 	C 	0.92652 0.58056 0.40730 0.06000
H 	H 	0.90780 0.57770 0.39780 0.02600
C 	C 	0.94270 0.59940 0.38940 -0.13600
C 	C 	0.97037 0.60357 0.40347 0.06000
H 	H 	0.98130 0.61630 0.39140 0.02400
C 	C 	0.98186 0.58890 0.43550 -0.13000
H 	H 	0.00060 0.59170 0.44500 0.07900
C 	C 	0.93013 0.61365 0.35530 0.36300
C 	C 	0.88240 0.33196 0.83980 0.38400
C 	C 	0.86833 0.31321 0.86660 -0.13200
C 	C 	0.88136 0.29140 0.88340 0.06400
H 	H 	0.89980 0.28710 0.87670 0.02400
C 	C 	0.86711 0.27592 0.91010 -0.13600
H 	H 	0.87590 0.26120 0.92150 0.08000
C 	C 	0.83983 0.28226 0.92006 0.08300
C 	C 	0.82681 0.30408 0.90320 -0.13100
H 	H 	0.80840 0.30840 0.91000 0.07800
C 	C 	0.84106 0.31955 0.87650 0.05800
H 	H 	0.83230 0.33430 0.86510 0.02600
C 	C 	0.82321 0.26751 0.94660 -0.02600
C 	C 	0.81105 0.25658 0.97150 -0.04000
C 	C 	0.79434 0.24448 0.00241 0.11800
C 	C 	0.79294 0.21775 0.00602 -0.17900
H 	H 	0.80250 0.20720 0.98810 0.09900
C 	C 	0.77738 0.20670 0.03619 0.12500
C 	C 	0.76321 0.22237 0.06275 -0.17900
H 	H 	0.75270 0.21490 0.08320 0.09700
C 	C 	0.76461 0.24910 0.05914 0.12200
C 	C 	0.78018 0.26015 0.02897 -0.17400
H 	H 	0.78110 0.27820 0.02650 0.09800
C 	C 	0.77496 0.18075 0.03940 -0.05200
C 	C 	0.77319 0.15564 0.04210 -0.02600
C 	C 	0.77193 0.12867 0.04320 0.08900
C 	C 	0.76840 0.11454 0.00745 -0.13900
H 	H 	0.76580 0.12310 0.98240 0.08200
C 	C 	0.76871 0.08769 0.00870 0.07000
H 	H 	0.76630 0.07810 0.98450 0.02300
C 	C 	0.77256 0.07498 0.04570 -0.14400
C 	C 	0.77609 0.08911 0.08142 0.06900
H 	H 	0.77870 0.08050 0.10640 0.02200
C 	C 	0.77578 0.11596 0.08016 -0.13900
H 	H 	0.77820 0.12550 0.10430 0.08200
C 	C 	0.77632 0.04774 0.04670 0.35900
C 	C 	0.74988 0.26592 0.08440 -0.04500
C 	C 	0.73849 0.28017 0.10730 -0.02100
C 	C 	0.72394 0.29729 0.13389 0.08300
C 	C 	0.69653 0.29183 0.14420 -0.13300
H 	H 	0.68710 0.27730 0.13300 0.08100
C 	C 	0.68304 0.30780 0.17110 0.06400
H 	H 	0.66450 0.30410 0.17800 0.02500
C 	C 	0.69696 0.32924 0.18764 -0.13700
C 	C 	0.72438 0.33470 0.17730 0.06400
H 	H 	0.73380 0.34920 0.18850 0.02300
C 	C 	0.73787 0.31873 0.15050 -0.13400
H 	H 	0.75640 0.32240 0.14350 0.08000
C 	C 	0.68280 0.34552 0.21660 0.37300
C 	C 	0.33462 0.49373 0.54540 0.37800
C 	C 	0.36407 0.48816 0.54320 -0.15300
C 	C 	0.37559 0.47947 0.50766 0.07500
H 	H 	0.36390 0.47690 0.48420 0.01900
C 	C 	0.40433 0.47457 0.50689 -0.14500
H 	H 	0.41210 0.46870 0.48290 0.08600
C 	C 	0.42156 0.47835 0.54160 0.09100
C 	C 	0.41004 0.48704 0.57715 -0.14000
H 	H 	0.42170 0.48960 0.60060 0.08300
C 	C 	0.38130 0.49194 0.57792 0.07100
H 	H 	0.37350 0.49780 0.60190 0.02100
C 	C 	0.45202 0.47649 0.53870 -0.02400
C 	C 	0.47606 0.47560 0.53870 -0.03600
C 	C 	0.50734 0.47671 0.54000 0.11300
C 	C 	0.52331 0.46275 0.51334 -0.17400
H 	H 	0.51440 0.45190 0.49390 0.09600
C 	C 	0.55252 0.46488 0.51547 0.12200
C 	C 	0.56575 0.48096 0.54425 -0.17600
H 	H 	0.58550 0.48240 0.54570 0.09800
C 	C 	0.54978 0.49492 0.57091 0.11400
C 	C 	0.52057 0.49280 0.56878 -0.17200
H 	H 	0.50980 0.50220 0.58680 0.09500
C 	C 	0.56754 0.45172 0.48610 -0.04900
C 	C 	0.58094 0.44164 0.46140 -0.01300
C 	C 	0.59687 0.42837 0.42952 0.07400
C 	C 	0.58530 0.40683 0.40983 -0.12300
H 	H 	0.56790 0.40020 0.41750 0.07600
C 	C 	0.59946 0.39509 0.37880 0.05100
H 	H 	0.59160 0.38050 0.36550 0.02900
C 	C 	0.62519 0.40489 0.36747 -0.11700
C 	C 	0.63675 0.42643 0.38717 0.05000
H 	H 	0.65410 0.43310 0.37950 0.03200
C 	C 	0.62259 0.43817 0.41819 -0.12300
H 	H 	0.63040 0.45270 0.43150 0.08300
C 	C 	0.64020 0.39332 0.33346 0.35100
C 	C 	0.56429 0.51275 0.59840 -0.04500
C 	C 	0.57575 0.52855 0.62030 -0.02400
C 	C 	0.59125 0.54614 0.64598 0.07900
C 	C 	0.61936 0.54207 0.65787 -0.12500
H 	H 	0.62900 0.52760 0.64820 0.07600
C 	C 	0.63330 0.55940 0.68402 0.04900
H 	H 	0.65230 0.55660 0.69210 0.02800
C 	C 	0.61911 0.58081 0.69828 -0.12300
C 	C 	0.59099 0.58488 0.68639 0.05700
H 	H 	0.58140 0.59940 0.69600 0.02600
C 	C 	0.57706 0.56755 0.66024 -0.12800
H 	H 	0.55800 0.57030 0.65220 0.07700
C 	C 	0.63650 0.59782 0.72340 0.33200
Cu	Cu	0.14008 0.14621 0.77209 0.90600
Cu	Cu	0.18212 0.11315 0.77657 0.91000
Cu	Cu	0.38836 0.12363 0.29145 0.91200
Cu	Cu	0.43214 0.15469 0.29568 0.90000
Cu	Cu	0.78388 0.99693 0.08515 0.90900
Cu	Cu	0.77829 0.99881 0.00545 0.90500
O 	O 	0.16667 0.16706 0.80682 -0.41000
O 	O 	0.19932 0.13636 0.81654 -0.39400
O 	O 	0.12253 0.88078 0.23723 -0.37200
O 	O 	0.16082 0.90666 0.23774 -0.41100
O 	O 	0.15802 0.16098 0.72613 -0.40700
O 	O 	0.19596 0.13636 0.73463 -0.40900
O 	O 	0.12741 0.12853 0.81849 -0.39400
O 	O 	0.16043 0.09698 0.81894 -0.41400
O 	O 	0.37712 0.14432 0.24381 -0.40700
O 	O 	0.41366 0.17264 0.24980 -0.39700
O 	O 	0.40601 0.89200 0.84016 -0.40300
O 	O 	0.44483 0.86796 0.84024 -0.40100
O 	O 	0.41184 0.10272 0.25851 -0.43000
O 	O 	0.44829 0.12981 0.25814 -0.37400
O 	O 	0.37161 0.14904 0.32529 -0.43500
O 	O 	0.40854 0.17476 0.33317 -0.39300
O 	O 	0.74418 0.99339 0.08384 -0.41500
O 	O 	0.73870 0.99198 0.01578 -0.39300
O 	O 	0.82380 0.00152 0.07772 -0.42100
O 	O 	0.81914 0.00659 0.01112 -0.39500
O 	O 	0.28872 0.45925 0.07471 -0.41000
O 	O 	0.28615 0.46213 0.00864 -0.41300
O 	O 	0.27961 0.46523 0.57987 -0.39400
O 	O 	0.27147 0.46463 0.51305 -0.39900
C 	C 	0.18929 0.15999 0.82290 0.36500
C 	C 	0.20761 0.17658 0.84658 -0.14300
C 	C 	0.20041 0.20251 0.84966 0.06400
H 	H 	0.18440 0.20890 0.83500 0.02400
C 	C 	0.21681 0.21894 0.87434 -0.13300
H 	H 	0.21190 0.23650 0.87640 0.08200
C 	C 	0.24042 0.20942 0.89596 0.08100
C 	C 	0.24762 0.18349 0.89289 -0.13300
H 	H 	0.26360 0.17710 0.90750 0.08000
C 	C 	0.23122 0.16706 0.86820 0.06600
H 	H 	0.23610 0.14950 0.86610 0.02400
C 	C 	0.25710 0.22617 0.92520 -0.01400
C 	C 	0.26973 0.23822 0.95040 -0.04900
C 	C 	0.28588 0.25107 0.98051 0.12300
C 	C 	0.30125 0.23641 0.00909 -0.17700
H 	H 	0.30080 0.21830 0.00760 0.09700
C 	C 	0.31731 0.24856 0.03984 0.11600
C 	C 	0.31799 0.27538 0.04201 -0.17300
H 	H 	0.32890 0.28360 0.06280 0.09700
C 	C 	0.30262 0.29004 0.01343 0.11500
C 	C 	0.28656 0.27789 0.98268 -0.17600
H 	H 	0.27620 0.28780 0.96340 0.09700
C 	C 	0.33060 0.23399 0.07190 -0.04500
C 	C 	0.34230 0.22130 0.10180 -0.02900
C 	C 	0.35556 0.20680 0.13296 0.08400
C 	C 	0.34344 0.18345 0.14350 -0.13200
H 	H 	0.32760 0.17720 0.12850 0.07900
C 	C 	0.35481 0.16937 0.17630 0.05800
H 	H 	0.34660 0.15360 0.18340 0.02600
C 	C 	0.37830 0.17864 0.19843 -0.12600
C 	C 	0.39042 0.20199 0.18790 0.05700
H 	H 	0.40630 0.20830 0.20280 0.02700
C 	C 	0.37906 0.21607 0.15510 -0.13100
H 	H 	0.38730 0.23190 0.14800 0.07800
C 	C 	0.38960 0.16442 0.23350 0.35100
C 	C 	0.30135 0.31769 0.01770 -0.03600
C 	C 	0.29999 0.34120 0.02410 -0.03300
C 	C 	0.29864 0.36770 0.02830 0.10000
C 	C 	0.29231 0.38283 0.99427 -0.14900
H 	H 	0.29020 0.37510 0.96850 0.08500
C 	C 	0.28916 0.40940 0.99832 0.08100
H 	H 	0.28490 0.41960 0.97530 0.01700
C 	C 	0.29234 0.42083 0.03642 -0.15800
C 	C 	0.29867 0.40569 0.07046 0.08100
H 	H 	0.30080 0.41340 0.09620 0.02000
C 	C 	0.30182 0.37912 0.06641 -0.14900
H 	H 	0.30610 0.36890 0.08940 0.09300
C 	C 	0.28883 0.44839 0.04100 0.39000
C 	C 	0.43300 0.10844 0.24306 0.35800
C 	C 	0.45045 0.09186 0.21858 -0.13200
C 	C 	0.43589 0.07011 0.20447 0.05600
H 	H 	0.41740 0.06710 0.21230 0.02600
C 	C 	0.44867 0.05283 0.17881 -0.13300
H 	H 	0.43880 0.03810 0.16930 0.07900
C 	C 	0.47602 0.05731 0.16726 0.09100
C 	C 	0.49058 0.07907 0.18137 -0.13800
H 	H 	0.50910 0.08210 0.17360 0.09000
C 	C 	0.47779 0.09635 0.20703 0.06800
H 	H 	0.48760 0.11110 0.21660 0.02700
C 	C 	0.48868 0.04020 0.14220 -0.03100
C 	C 	0.49917 0.02495 0.11750 -0.03500
C 	C 	0.51122 0.00639 0.08978 0.11300
C 	C 	0.54046 0.00563 0.08932 -0.17000
H 	H 	0.55140 0.01620 0.10710 0.09700
C 	C 	0.55352 0.98929 0.06253 0.11200
C 	C 	0.53735 0.97369 0.03620 -0.17300
H 	H 	0.54620 0.96260 0.01810 0.09500
C 	C 	0.50811 0.97445 0.03666 0.12100
C 	C 	0.49504 0.99079 0.06345 -0.17300
H 	H 	0.47530 0.99130 0.06380 0.09600
C 	C 	0.58410 0.98835 0.06090 -0.04200
C 	C 	0.60970 0.98824 0.05990 -0.02600
C 	C 	0.63956 0.98758 0.05850 0.08100
C 	C 	0.65722 0.98938 0.09326 -0.12700
H 	H 	0.64950 0.98990 0.11900 0.07700
C 	C 	0.68626 0.99039 0.08990 0.05100
H 	H 	0.69820 0.99160 0.11340 0.02800
C 	C 	0.69766 0.98959 0.05190 -0.12200
C 	C 	0.68000 0.98779 0.01715 0.05700
H 	H 	0.68770 0.98720 0.99140 0.02600
C 	C 	0.65095 0.98678 0.02050 -0.13000
H 	H 	0.63900 0.98560 0.99700 0.07800
C 	C 	0.72859 0.99155 0.05190 0.35200
C 	C 	0.49153 0.95987 0.00920 -0.04800
C 	C 	0.48009 0.94593 0.98610 -0.01400
C 	C 	0.46568 0.92994 0.95337 0.07900
C 	C 	0.43801 0.93411 0.93930 -0.13300
H 	H 	0.42710 0.94680 0.95140 0.08100
C 	C 	0.42652 0.91944 0.90730 0.06000
H 	H 	0.40780 0.92230 0.89780 0.02600
C 	C 	0.44270 0.90060 0.88940 -0.13600
C 	C 	0.47037 0.89643 0.90347 0.06000
H 	H 	0.48130 0.88370 0.89140 0.02400
C 	C 	0.48186 0.91110 0.93550 -0.13000
H 	H 	0.50060 0.90830 0.94500 0.07900
C 	C 	0.43013 0.88635 0.85530 0.36300
C 	C 	0.38240 0.16804 0.33980 0.38400
C 	C 	0.36833 0.18679 0.36660 -0.13200
C 	C 	0.38136 0.20860 0.38340 0.06400
H 	H 	0.39980 0.21290 0.37670 0.02400
C 	C 	0.36711 0.22408 0.41010 -0.13600
H 	H 	0.37590 0.23880 0.42150 0.08000
C 	C 	0.33983 0.21774 0.42006 0.08300
C 	C 	0.32681 0.19592 0.40320 -0.13100
H 	H 	0.30840 0.19160 0.41000 0.07800
C 	C 	0.34106 0.18045 0.37650 0.05800
H 	H 	0.33230 0.16570 0.36510 0.02600
C 	C 	0.32321 0.23249 0.44660 -0.02600
C 	C 	0.31105 0.24342 0.47150 -0.04000
C 	C 	0.29434 0.25552 0.50241 0.11800
C 	C 	0.29294 0.28225 0.50602 -0.17900
H 	H 	0.30250 0.29280 0.48810 0.09900
C 	C 	0.27738 0.29330 0.53619 0.12500
C 	C 	0.26321 0.27763 0.56275 -0.17900
H 	H 	0.25270 0.28510 0.58320 0.09700
C 	C 	0.26461 0.25090 0.55914 0.12200
C 	C 	0.28018 0.23985 0.52897 -0.17400
H 	H 	0.28110 0.22180 0.52650 0.09800
C 	C 	0.27496 0.31925 0.53940 -0.05200
C 	C 	0.27319 0.34436 0.54210 -0.02600
C 	C 	0.27193 0.37133 0.54320 0.08900
C 	C 	0.26840 0.38546 0.50745 -0.13900
H 	H 	0.26580 0.37690 0.48240 0.08200
C 	C 	0.26871 0.41231 0.50870 0.07000
H 	H 	0.26630 0.42190 0.48450 0.02300
C 	C 	0.27256 0.42502 0.54570 -0.14400
C 	C 	0.27609 0.41089 0.58142 0.06900
H 	H 	0.27870 0.41950 0.60640 0.02200
C 	C 	0.27578 0.38404 0.58016 -0.13900
H 	H 	0.27820 0.37450 0.60430 0.08200
C 	C 	0.27632 0.45226 0.54670 0.35900
C 	C 	0.24988 0.23408 0.58440 -0.04500
C 	C 	0.23849 0.21983 0.60730 -0.02100
C 	C 	0.22394 0.20271 0.63389 0.08300
C 	C 	0.19653 0.20817 0.64420 -0.13300
H 	H 	0.18710 0.22270 0.63300 0.08100
C 	C 	0.18304 0.19220 0.67110 0.06400
H 	H 	0.16450 0.19590 0.67800 0.02500
C 	C 	0.19696 0.17076 0.68764 -0.13700
C 	C 	0.22438 0.16530 0.67730 0.06400
H 	H 	0.23380 0.15080 0.68850 0.02300
C 	C 	0.23787 0.18127 0.65050 -0.13400
H 	H 	0.25640 0.17760 0.64350 0.08000
C 	C 	0.18280 0.15448 0.71660 0.37300
C 	C 	0.83462 0.00627 0.04540 0.37800
C 	C 	0.86407 0.01184 0.04320 -0.15300
C 	C 	0.87559 0.02053 0.00766 0.07500
H 	H 	0.86390 0.02310 0.98420 0.01900
C 	C 	0.90433 0.02543 0.00689 -0.14500
H 	H 	0.91210 0.03130 0.98290 0.08500
C 	C 	0.92156 0.02165 0.04160 0.09100
C 	C 	0.91004 0.01296 0.07715 -0.14000
H 	H 	0.92170 0.01040 0.10060 0.08300
C 	C 	0.88130 0.00806 0.07792 0.07100
H 	H 	0.87350 0.00220 0.10190 0.02100
C 	C 	0.95202 0.02351 0.03870 -0.02400
C 	C 	0.97606 0.02440 0.03870 -0.03600
C 	C 	0.00734 0.02329 0.04000 0.11300
C 	C 	0.02331 0.03725 0.01334 -0.17400
H 	H 	0.01440 0.04810 0.99390 0.09600
C 	C 	0.05252 0.03512 0.01547 0.12200
C 	C 	0.06575 0.01904 0.04425 -0.17600
H 	H 	0.08550 0.01760 0.04570 0.09800
C 	C 	0.04978 0.00508 0.07091 0.11400
C 	C 	0.02057 0.00720 0.06878 -0.17200
H 	H 	0.00980 0.99780 0.08680 0.09500
C 	C 	0.06754 0.04828 0.98610 -0.04900
C 	C 	0.08094 0.05836 0.96140 -0.01300
C 	C 	0.09687 0.07163 0.92952 0.07400
C 	C 	0.08530 0.09317 0.90983 -0.12300
H 	H 	0.06790 0.09980 0.91750 0.07600
C 	C 	0.09946 0.10491 0.87880 0.05100
H 	H 	0.09160 0.11950 0.86550 0.02900
C 	C 	0.12519 0.09511 0.86747 -0.11700
C 	C 	0.13675 0.07357 0.88717 0.05000
H 	H 	0.15410 0.06690 0.87950 0.03200
C 	C 	0.12259 0.06183 0.91819 -0.12300
H 	H 	0.13040 0.04730 0.93150 0.08300
C 	C 	0.14020 0.10668 0.83346 0.35100
C 	C 	0.06429 0.98725 0.09840 -0.04500
C 	C 	0.07575 0.97145 0.12030 -0.02400
C 	C 	0.09125 0.95386 0.14598 0.07900
C 	C 	0.11936 0.95793 0.15787 -0.12500
H 	H 	0.12900 0.97240 0.14820 0.07600
C 	C 	0.13330 0.94060 0.18402 0.04900
H 	H 	0.15230 0.94340 0.19210 0.02800
C 	C 	0.11911 0.91919 0.19828 -0.12300
C 	C 	0.09099 0.91512 0.18639 0.05700
H 	H 	0.08140 0.90060 0.19600 0.02600
C 	C 	0.07706 0.93245 0.16024 -0.12800
H 	H 	0.05800 0.92970 0.15220 0.07700
C 	C 	0.13650 0.90218 0.22340 0.33200
Cu	Cu	0.64008 0.64621 0.77209 0.90600
Cu	Cu	0.68212 0.61315 0.77657 0.91000
Cu	Cu	0.88836 0.62363 0.29145 0.91200
Cu	Cu	0.93214 0.65469 0.29568 0.90000
Cu	Cu	0.28388 0.49693 0.08515 0.90900
Cu	Cu	0.27829 0.49881 0.00545 0.90500
O 	O 	0.66667 0.66706 0.80682 -0.41000
O 	O 	0.69932 0.63636 0.81654 -0.39400
O 	O 	0.62253 0.38078 0.23723 -0.37200
O 	O 	0.66082 0.40666 0.23774 -0.41100
O 	O 	0.65802 0.66098 0.72613 -0.40700
O 	O 	0.69596 0.63636 0.73463 -0.40900
O 	O 	0.62741 0.62853 0.81849 -0.39400
O 	O 	0.66043 0.59698 0.81894 -0.41400
O 	O 	0.87712 0.64432 0.24381 -0.40700
O 	O 	0.91366 0.67264 0.24980 -0.39700
O 	O 	0.90601 0.39200 0.84016 -0.40300
O 	O 	0.94483 0.36796 0.84024 -0.40100
O 	O 	0.91184 0.60272 0.25851 -0.43000
O 	O 	0.94829 0.62981 0.25814 -0.37400
O 	O 	0.87161 0.64904 0.32529 -0.43500
O 	O 	0.90854 0.67476 0.33317 -0.39300
O 	O 	0.24418 0.49339 0.08384 -0.41500
O 	O 	0.23870 0.49198 0.01578 -0.39300
O 	O 	0.32380 0.50152 0.07772 -0.42100
O 	O 	0.31914 0.50659 0.01112 -0.39500
O 	O 	0.78872 0.95925 0.07471 -0.41000
O 	O 	0.78615 0.96213 0.00864 -0.41300
O 	O 	0.77961 0.96523 0.57987 -0.39400
O 	O 	0.77147 0.96463 0.51305 -0.39900
C 	C 	0.68929 0.65999 0.82290 0.36500
C 	C 	0.70761 0.67658 0.84658 -0.14300
C 	C 	0.70041 0.70251 0.84966 0.06400
H 	H 	0.68440 0.70890 0.83500 0.02400
C 	C 	0.71681 0.71894 0.87434 -0.13300
H 	H 	0.71190 0.73650 0.87640 0.08200
C 	C 	0.74042 0.70942 0.89596 0.08100
C 	C 	0.74762 0.68349 0.89289 -0.13300
H 	H 	0.76360 0.67710 0.90750 0.08000
C 	C 	0.73122 0.66706 0.86820 0.06600
H 	H 	0.73610 0.64950 0.86610 0.02400
C 	C 	0.75710 0.72617 0.92520 -0.01400
C 	C 	0.76973 0.73822 0.95040 -0.04900
C 	C 	0.78588 0.75107 0.98051 0.12300
C 	C 	0.80125 0.73641 0.00909 -0.17700
H 	H 	0.80080 0.71830 0.00760 0.09700
C 	C 	0.81731 0.74856 0.03984 0.11600
C 	C 	0.81799 0.77538 0.04201 -0.17300
H 	H 	0.82890 0.78360 0.06280 0.09700
C 	C 	0.80262 0.79004 0.01343 0.11500
C 	C 	0.78656 0.77789 0.98268 -0.17600
H 	H 	0.77620 0.78780 0.96340 0.09700
C 	C 	0.83060 0.73399 0.07190 -0.04500
C 	C 	0.84230 0.72130 0.10180 -0.02900
C 	C 	0.85556 0.70680 0.13296 0.08400
C 	C 	0.84344 0.68345 0.14350 -0.13200
H 	H 	0.82760 0.67720 0.12850 0.07900
C 	C 	0.85481 0.66937 0.17630 0.05800
H 	H 	0.84660 0.65360 0.18340 0.02600
C 	C 	0.87830 0.67864 0.19843 -0.12600
C 	C 	0.89042 0.70199 0.18790 0.05700
H 	H 	0.90630 0.70830 0.20280 0.02700
C 	C 	0.87906 0.71607 0.15510 -0.13100
H 	H 	0.88730 0.73190 0.14800 0.07800
C 	C 	0.88960 0.66442 0.23350 0.35100
C 	C 	0.80135 0.81769 0.01770 -0.03600
C 	C 	0.79999 0.84120 0.02410 -0.03300
C 	C 	0.79864 0.86770 0.02830 0.10000
C 	C 	0.79231 0.88283 0.99427 -0.14900
H 	H 	0.79020 0.87510 0.96850 0.08500
C 	C 	0.78916 0.90940 0.99832 0.08100
H 	H 	0.78490 0.91960 0.97530 0.01700
C 	C 	0.79234 0.92083 0.03642 -0.15800
C 	C 	0.79867 0.90569 0.07046 0.08100
H 	H 	0.80080 0.91340 0.09620 0.02000
C 	C 	0.80182 0.87912 0.06641 -0.14900
H 	H 	0.80610 0.86890 0.08940 0.09300
C 	C 	0.78883 0.94839 0.04100 0.39000
C 	C 	0.93300 0.60844 0.24306 0.35800
C 	C 	0.95045 0.59186 0.21858 -0.13200
C 	C 	0.93589 0.57011 0.20447 0.05600
H 	H 	0.91740 0.56710 0.21230 0.02600
C 	C 	0.94867 0.55283 0.17881 -0.13300
H 	H 	0.93880 0.53810 0.16930 0.07900
C 	C 	0.97602 0.55731 0.16726 0.09100
C 	C 	0.99058 0.57907 0.18137 -0.13800
H 	H 	0.00910 0.58210 0.17360 0.09000
C 	C 	0.97779 0.59635 0.20703 0.06800
H 	H 	0.98760 0.61110 0.21660 0.02700
C 	C 	0.98868 0.54020 0.14220 -0.03100
C 	C 	0.99917 0.52495 0.11750 -0.03500
C 	C 	0.01122 0.50639 0.08978 0.11300
C 	C 	0.04046 0.50563 0.08932 -0.17000
H 	H 	0.05140 0.51620 0.10710 0.09700
C 	C 	0.05352 0.48929 0.06253 0.11200
C 	C 	0.03735 0.47369 0.03620 -0.17300
H 	H 	0.04620 0.46260 0.01810 0.09500
C 	C 	0.00811 0.47445 0.03666 0.12100
C 	C 	0.99504 0.49079 0.06345 -0.17300
H 	H 	0.97530 0.49130 0.06380 0.09600
C 	C 	0.08410 0.48835 0.06090 -0.04200
C 	C 	0.10970 0.48824 0.05990 -0.02600
C 	C 	0.13956 0.48758 0.05850 0.08100
C 	C 	0.15722 0.48938 0.09326 -0.12700
H 	H 	0.14950 0.48990 0.11900 0.07700
C 	C 	0.18626 0.49039 0.08990 0.05100
H 	H 	0.19820 0.49160 0.11340 0.02800
C 	C 	0.19766 0.48959 0.05190 -0.12200
C 	C 	0.18000 0.48779 0.01715 0.05700
H 	H 	0.18770 0.48720 0.99140 0.02600
C 	C 	0.15095 0.48678 0.02050 -0.13000
H 	H 	0.13900 0.48560 0.99700 0.07800
C 	C 	0.22859 0.49155 0.05190 0.35200
C 	C 	0.99153 0.45987 0.00920 -0.04800
C 	C 	0.98009 0.44593 0.98610 -0.01400
C 	C 	0.96568 0.42994 0.95337 0.07900
C 	C 	0.93801 0.43411 0.93930 -0.13300
H 	H 	0.92710 0.44680 0.95140 0.08100
C 	C 	0.92652 0.41944 0.90730 0.06000
H 	H 	0.90780 0.42230 0.89780 0.02600
C 	C 	0.94270 0.40060 0.88940 -0.13600
C 	C 	0.97037 0.39643 0.90347 0.06000
H 	H 	0.98130 0.38370 0.89140 0.02400
C 	C 	0.98186 0.41110 0.93550 -0.13000
H 	H 	0.00060 0.40830 0.94500 0.07900
C 	C 	0.93013 0.38635 0.85530 0.36300
C 	C 	0.88240 0.66804 0.33980 0.38400
C 	C 	0.86833 0.68679 0.36660 -0.13200
C 	C 	0.88136 0.70860 0.38340 0.06400
H 	H 	0.89980 0.71290 0.37670 0.02400
C 	C 	0.86711 0.72408 0.41010 -0.13600
H 	H 	0.87590 0.73880 0.42150 0.08000
C 	C 	0.83983 0.71774 0.42006 0.08300
C 	C 	0.82681 0.69592 0.40320 -0.13100
H 	H 	0.80840 0.69160 0.41000 0.07800
C 	C 	0.84106 0.68045 0.37650 0.05800
H 	H 	0.83230 0.66570 0.36510 0.02600
C 	C 	0.82321 0.73249 0.44660 -0.02600
C 	C 	0.81105 0.74342 0.47150 -0.04000
C 	C 	0.79434 0.75552 0.50241 0.11800
C 	C 	0.79294 0.78225 0.50602 -0.17900
H 	H 	0.80250 0.79280 0.48810 0.09900
C 	C 	0.77738 0.79330 0.53619 0.12500
C 	C 	0.76321 0.77763 0.56275 -0.17900
H 	H 	0.75270 0.78510 0.58320 0.09700
C 	C 	0.76461 0.75090 0.55914 0.12200
C 	C 	0.78018 0.73985 0.52897 -0.17400
H 	H 	0.78110 0.72180 0.52650 0.09800
C 	C 	0.77496 0.81925 0.53940 -0.05200
C 	C 	0.77319 0.84436 0.54210 -0.02600
C 	C 	0.77193 0.87133 0.54320 0.08900
C 	C 	0.76840 0.88546 0.50745 -0.13900
H 	H 	0.76580 0.87690 0.48240 0.08200
C 	C 	0.76871 0.91231 0.50870 0.07000
H 	H 	0.76630 0.92190 0.48450 0.02300
C 	C 	0.77256 0.92502 0.54570 -0.14400
C 	C 	0.77609 0.91089 0.58142 0.06900
H 	H 	0.77870 0.91950 0.60640 0.02200
C 	C 	0.77578 0.88404 0.58016 -0.13900
H 	H 	0.77820 0.87450 0.60430 0.08200
C 	C 	0.77632 0.95226 0.54670 0.35900
C 	C 	0.74988 0.73408 0.58440 -0.04500
C 	C 	0.73849 0.71983 0.60730 -0.02100
C 	C 	0.72394 0.70271 0.63389 0.08300
C 	C 	0.69653 0.70817 0.64420 -0.13300
H 	H 	0.68710 0.72270 0.63300 0.08100
C 	C 	0.68304 0.69220 0.67110 0.06400
H 	H 	0.66450 0.69590 0.67800 0.02500
C 	C 	0.69696 0.67076 0.68764 -0.13700
C 	C 	0.72438 0.66530 0.67730 0.06400
H 	H 	0.73380 0.65080 0.68850 0.02300
C 	C 	0.73787 0.68127 0.65050 -0.13400
H 	H 	0.75640 0.67760 0.64350 0.08000
C 	C 	0.68280 0.65448 0.71660 0.37300
C 	C 	0.33462 0.50627 0.04540 0.37800
C 	C 	0.36407 0.51184 0.04320 -0.15300
C 	C 	0.37559 0.52053 0.00766 0.07500
H 	H 	0.36390 0.52310 0.98420 0.01900
C 	C 	0.40433 0.52543 0.00689 -0.14500
H 	H 	0.41210 0.53130 0.98290 0.08500
C 	C 	0.42156 0.52165 0.04160 0.09100
C 	C 	0.41004 0.51296 0.07715 -0.14000
H 	H 	0.42170 0.51040 0.10060 0.08300
C 	C 	0.38130 0.50806 0.07792 0.07100
H 	H 	0.37350 0.50220 0.10190 0.02100
C 	C 	0.45202 0.52351 0.03870 -0.02400
C 	C 	0.47606 0.52440 0.03870 -0.03600
C 	C 	0.50734 0.52329 0.04000 0.11300
C 	C 	0.52331 0.53725 0.01334 -0.17400
H 	H 	0.51440 0.54810 0.99390 0.09600
C 	C 	0.55252 0.53512 0.01547 0.12200
C 	C 	0.56575 0.51904 0.04425 -0.17600
H 	H 	0.58550 0.51760 0.04570 0.09800
C 	C 	0.54978 0.50508 0.07091 0.11400
C 	C 	0.52057 0.50720 0.06878 -0.17200
H 	H 	0.50980 0.49780 0.08680 0.09500
C 	C 	0.56754 0.54828 0.98610 -0.04900
C 	C 	0.58094 0.55836 0.96140 -0.01300
C 	C 	0.59687 0.57163 0.92952 0.07400
C 	C 	0.58530 0.59317 0.90983 -0.12300
H 	H 	0.56790 0.59980 0.91750 0.07600
C 	C 	0.59946 0.60491 0.87880 0.05100
H 	H 	0.59160 0.61950 0.86550 0.02900
C 	C 	0.62519 0.59511 0.86747 -0.11700
C 	C 	0.63675 0.57357 0.88717 0.05000
H 	H 	0.65410 0.56690 0.87950 0.03200
C 	C 	0.62259 0.56183 0.91819 -0.12300
H 	H 	0.63040 0.54730 0.93150 0.08300
C 	C 	0.64020 0.60668 0.83346 0.35100
C 	C 	0.56429 0.48725 0.09840 -0.04500
C 	C 	0.57575 0.47145 0.12030 -0.02400
C 	C 	0.59125 0.45386 0.14598 0.07900
C 	C 	0.61936 0.45793 0.15787 -0.12500
H 	H 	0.62900 0.47240 0.14820 0.07600
C 	C 	0.63330 0.44060 0.18402 0.04900
H 	H 	0.65230 0.44340 0.19210 0.02800
C 	C 	0.61911 0.41919 0.19828 -0.12300
C 	C 	0.59099 0.41512 0.18639 0.05700
H 	H 	0.58140 0.40060 0.19600 0.02600
C 	C 	0.57706 0.43245 0.16024 -0.12800
H 	H 	0.55800 0.42970 0.15220 0.07700
C 	C 	0.63650 0.40218 0.22340 0.33200
Cu	Cu	0.85992 0.85379 0.22791 0.90600
Cu	Cu	0.81788 0.88685 0.22343 0.91000
Cu	Cu	0.61164 0.87637 0.70855 0.91200
Cu	Cu	0.56786 0.84531 0.70432 0.90000
Cu	Cu	0.21612 0.00307 0.91485 0.90900
Cu	Cu	0.22171 0.00119 0.99455 0.90500
O 	O 	0.83333 0.83294 0.19318 -0.41000
O 	O 	0.80068 0.86364 0.18346 -0.39400
O 	O 	0.87747 0.11922 0.76277 -0.37200
O 	O 	0.83918 0.09334 0.76226 -0.41100
O 	O 	0.84198 0.83902 0.27387 -0.40700
O 	O 	0.80404 0.86364 0.26537 -0.40900
O 	O 	0.87259 0.87147 0.18151 -0.39400
O 	O 	0.83957 0.90302 0.18106 -0.41400
O 	O 	0.62288 0.85568 0.75619 -0.40700
O 	O 	0.58634 0.82736 0.75020 -0.39700
O 	O 	0.59399 0.10800 0.15984 -0.40300
O 	O 	0.55517 0.13204 0.15976 -0.40100
O 	O 	0.58816 0.89728 0.74149 -0.43000
O 	O 	0.55171 0.87019 0.74186 -0.37400
O 	O 	0.62839 0.85096 0.67471 -0.43500
O 	O 	0.59146 0.82524 0.66683 -0.39300
O 	O 	0.25582 0.00661 0.91616 -0.41500
O 	O 	0.26130 0.00802 0.98422 -0.39300
O 	O 	0.17620 0.99848 0.92228 -0.42100
O 	O 	0.18086 0.99341 0.98888 -0.39500
O 	O 	0.71128 0.54075 0.92529 -0.41000
O 	O 	0.71385 0.53787 0.99136 -0.41300
O 	O 	0.72039 0.53477 0.42013 -0.39400
O 	O 	0.72853 0.53537 0.48695 -0.39900
C 	C 	0.81071 0.84001 0.17710 0.36500
C 	C 	0.79239 0.82342 0.15342 -0.14300
C 	C 	0.79959 0.79749 0.15034 0.06400
H 	H 	0.81560 0.79110 0.16500 0.02400
C 	C 	0.78319 0.78106 0.12566 -0.13300
H 	H 	0.78810 0.76350 0.12360 0.08200
C 	C 	0.75958 0.79058 0.10404 0.08100
C 	C 	0.75238 0.81651 0.10711 -0.13300
H 	H 	0.73640 0.82290 0.09250 0.08000
C 	C 	0.76878 0.83294 0.13180 0.06600
H 	H 	0.76390 0.85050 0.13390 0.02400
C 	C 	0.74290 0.77383 0.07480 -0.01400
C 	C 	0.73027 0.76178 0.04960 -0.04900
C 	C 	0.71412 0.74893 0.01949 0.12300
C 	C 	0.69875 0.76359 0.99091 -0.17700
H 	H 	0.69920 0.78170 0.99240 0.09700
C 	C 	0.68269 0.75144 0.96016 0.11600
C 	C 	0.68201 0.72462 0.95799 -0.17300
H 	H 	0.67110 0.71640 0.93720 0.09700
C 	C 	0.69738 0.70996 0.98657 0.11500
C 	C 	0.71344 0.72211 0.01732 -0.17600
H 	H 	0.72380 0.71220 0.03660 0.09700
C 	C 	0.66940 0.76601 0.92810 -0.04500
C 	C 	0.65770 0.77870 0.89820 -0.02900
C 	C 	0.64444 0.79320 0.86704 0.08400
C 	C 	0.65656 0.81655 0.85650 -0.13200
H 	H 	0.67240 0.82280 0.87150 0.07900
C 	C 	0.64519 0.83063 0.82370 0.05800
H 	H 	0.65340 0.84640 0.81660 0.02600
C 	C 	0.62170 0.82136 0.80157 -0.12600
C 	C 	0.60958 0.79801 0.81210 0.05700
H 	H 	0.59370 0.79170 0.79720 0.02700
C 	C 	0.62094 0.78393 0.84490 -0.13100
H 	H 	0.61270 0.76810 0.85200 0.07800
C 	C 	0.61040 0.83558 0.76650 0.35100
C 	C 	0.69865 0.68231 0.98230 -0.03600
C 	C 	0.70001 0.65880 0.97590 -0.03300
C 	C 	0.70136 0.63230 0.97170 0.10000
C 	C 	0.70769 0.61717 0.00573 -0.14900
H 	H 	0.70980 0.62490 0.03150 0.08500
C 	C 	0.71084 0.59060 0.00168 0.08100
H 	H 	0.71510 0.58040 0.02470 0.01700
C 	C 	0.70766 0.57917 0.96358 -0.15800
C 	C 	0.70133 0.59431 0.92954 0.08100
H 	H 	0.69920 0.58660 0.90380 0.02000
C 	C 	0.69818 0.62088 0.93359 -0.14900
H 	H 	0.69390 0.63110 0.91060 0.09300
C 	C 	0.71117 0.55161 0.95900 0.39000
C 	C 	0.56700 0.89156 0.75694 0.35800
C 	C 	0.54955 0.90814 0.78142 -0.13200
C 	C 	0.56411 0.92989 0.79553 0.05600
H 	H 	0.58260 0.93290 0.78770 0.02600
C 	C 	0.55133 0.94717 0.82119 -0.13300
H 	H 	0.56120 0.96190 0.83070 0.07900
C 	C 	0.52398 0.94269 0.83274 0.09100
C 	C 	0.50942 0.92093 0.81863 -0.13800
H 	H 	0.49090 0.91790 0.82640 0.09000
C 	C 	0.52221 0.90365 0.79297 0.06800
H 	H 	0.51240 0.88890 0.78340 0.02700
C 	C 	0.51132 0.95980 0.85780 -0.03100
C 	C 	0.50083 0.97505 0.88250 -0.03500
C 	C 	0.48878 0.99361 0.91022 0.11300
C 	C 	0.45954 0.99437 0.91068 -0.17000
H 	H 	0.44860 0.98380 0.89290 0.09700
C 	C 	0.44648 0.01071 0.93747 0.11200
C 	C 	0.46265 0.02631 0.96380 -0.17300
H 	H 	0.45380 0.03740 0.98190 0.09500
C 	C 	0.49189 0.02555 0.96334 0.12100
C 	C 	0.50496 0.00921 0.93655 -0.17300
H 	H 	0.52470 0.00870 0.93620 0.09600
C 	C 	0.41590 0.01165 0.93910 -0.04200
C 	C 	0.39030 0.01176 0.94010 -0.02600
C 	C 	0.36044 0.01242 0.94150 0.08100
C 	C 	0.34278 0.01062 0.90674 -0.12700
H 	H 	0.35050 0.01010 0.88100 0.07700
C 	C 	0.31374 0.00961 0.91010 0.05100
H 	H 	0.30180 0.00840 0.88660 0.02800
C 	C 	0.30234 0.01041 0.94810 -0.12200
C 	C 	0.32000 0.01221 0.98285 0.05700
H 	H 	0.31230 0.01280 0.00860 0.02600
C 	C 	0.34905 0.01322 0.97950 -0.13000
H 	H 	0.36100 0.01440 0.00300 0.07800
C 	C 	0.27141 0.00845 0.94810 0.35200
C 	C 	0.50847 0.04013 0.99080 -0.04800
C 	C 	0.51991 0.05407 0.01390 -0.01400
C 	C 	0.53432 0.07006 0.04663 0.07900
C 	C 	0.56199 0.06589 0.06070 -0.13300
H 	H 	0.57290 0.05320 0.04860 0.08100
C 	C 	0.57348 0.08056 0.09270 0.06000
H 	H 	0.59220 0.07770 0.10220 0.02600
C 	C 	0.55730 0.09940 0.11060 -0.13600
C 	C 	0.52963 0.10357 0.09653 0.06000
H 	H 	0.51870 0.11630 0.10860 0.02400
C 	C 	0.51814 0.08890 0.06450 -0.13000
H 	H 	0.49940 0.09170 0.05500 0.07900
C 	C 	0.56987 0.11365 0.14470 0.36300
C 	C 	0.61760 0.83196 0.66020 0.38400
C 	C 	0.63167 0.81321 0.63340 -0.13200
C 	C 	0.61864 0.79140 0.61660 0.06400
H 	H 	0.60020 0.78710 0.62330 0.02400
C 	C 	0.63289 0.77592 0.58990 -0.13600
H 	H 	0.62410 0.76120 0.57850 0.08000
C 	C 	0.66017 0.78226 0.57994 0.08300
C 	C 	0.67319 0.80408 0.59680 -0.13100
H 	H 	0.69160 0.80840 0.59000 0.07800
C 	C 	0.65894 0.81955 0.62350 0.05800
H 	H 	0.66770 0.83430 0.63490 0.02600
C 	C 	0.67679 0.76751 0.55340 -0.02600
C 	C 	0.68895 0.75658 0.52850 -0.04000
C 	C 	0.70566 0.74448 0.49759 0.11800
C 	C 	0.70706 0.71775 0.49398 -0.17900
H 	H 	0.69750 0.70720 0.51190 0.09900
C 	C 	0.72262 0.70670 0.46381 0.12500
C 	C 	0.73679 0.72237 0.43725 -0.17900
H 	H 	0.74730 0.71490 0.41680 0.09700
C 	C 	0.73539 0.74910 0.44086 0.12200
C 	C 	0.71982 0.76015 0.47103 -0.17400
H 	H 	0.71890 0.77820 0.47350 0.09800
C 	C 	0.72504 0.68075 0.46060 -0.05200
C 	C 	0.72681 0.65564 0.45790 -0.02600
C 	C 	0.72807 0.62867 0.45680 0.08900
C 	C 	0.73160 0.61454 0.49255 -0.13900
H 	H 	0.73420 0.62310 0.51760 0.08200
C 	C 	0.73129 0.58769 0.49130 0.07000
H 	H 	0.73370 0.57810 0.51550 0.02300
C 	C 	0.72744 0.57498 0.45430 -0.14400
C 	C 	0.72391 0.58911 0.41858 0.06900
H 	H 	0.72130 0.58050 0.39360 0.02200
C 	C 	0.72422 0.61596 0.41984 -0.13900
H 	H 	0.72180 0.62550 0.39570 0.08200
C 	C 	0.72368 0.54774 0.45330 0.35900
C 	C 	0.75012 0.76592 0.41560 -0.04500
C 	C 	0.76151 0.78017 0.39270 -0.02100
C 	C 	0.77606 0.79729 0.36611 0.08300
C 	C 	0.80347 0.79183 0.35580 -0.13300
H 	H 	0.81290 0.77730 0.36700 0.08100
C 	C 	0.81696 0.80780 0.32890 0.06400
H 	H 	0.83550 0.80410 0.32200 0.02500
C 	C 	0.80304 0.82924 0.31236 -0.13700
C 	C 	0.77562 0.83470 0.32270 0.06400
H 	H 	0.76620 0.84920 0.31150 0.02300
C 	C 	0.76213 0.81873 0.34950 -0.13400
H 	H 	0.74360 0.82240 0.35650 0.08000
C 	C 	0.81720 0.84552 0.28340 0.37300
C 	C 	0.16538 0.99373 0.95460 0.37800
C 	C 	0.13593 0.98816 0.95680 -0.15300
C 	C 	0.12441 0.97947 0.99234 0.07500
H 	H 	0.13610 0.97690 0.01580 0.01900
C 	C 	0.09567 0.97457 0.99311 -0.14500
H 	H 	0.08790 0.96870 0.01710 0.08500
C 	C 	0.07844 0.97835 0.95840 0.09100
C 	C 	0.08996 0.98704 0.92285 -0.14000
H 	H 	0.07830 0.98960 0.89940 0.08300
C 	C 	0.11870 0.99194 0.92208 0.07100
H 	H 	0.12650 0.99780 0.89810 0.02100
C 	C 	0.04798 0.97649 0.96130 -0.02400
C 	C 	0.02394 0.97560 0.96130 -0.03600
C 	C 	0.99266 0.97671 0.96000 0.11300
C 	C 	0.97669 0.96275 0.98666 -0.17400
H 	H 	0.98560 0.95190 0.00610 0.09600
C 	C 	0.94748 0.96488 0.98453 0.12200
C 	C 	0.93425 0.98096 0.95575 -0.17600
H 	H 	0.91450 0.98240 0.95430 0.09800
C 	C 	0.95022 0.99492 0.92909 0.11400
C 	C 	0.97943 0.99280 0.93122 -0.17200
H 	H 	0.99020 0.00220 0.91320 0.09500
C 	C 	0.93246 0.95172 0.01390 -0.04900
C 	C 	0.91906 0.94164 0.03860 -0.01300
C 	C 	0.90313 0.92837 0.07048 0.07400
C 	C 	0.91470 0.90683 0.09017 -0.12300
H 	H 	0.93210 0.90020 0.08250 0.07600
C 	C 	0.90054 0.89509 0.12120 0.05100
H 	H 	0.90840 0.88050 0.13450 0.02900
C 	C 	0.87481 0.90489 0.13253 -0.11700
C 	C 	0.86325 0.92643 0.11283 0.05000
H 	H 	0.84590 0.93310 0.12050 0.03200
C 	C 	0.87741 0.93817 0.08181 -0.12300
H 	H 	0.86960 0.95270 0.06850 0.08300
C 	C 	0.85980 0.89332 0.16654 0.35100
C 	C 	0.93571 0.01275 0.90160 -0.04500
C 	C 	0.92425 0.02855 0.87970 -0.02400
C 	C 	0.90875 0.04614 0.85402 0.07900
C 	C 	0.88064 0.04207 0.84213 -0.12500
H 	H 	0.87100 0.02760 0.85180 0.07600
C 	C 	0.86670 0.05940 0.81598 0.04900
H 	H 	0.84770 0.05660 0.80790 0.02800
C 	C 	0.88089 0.08081 0.80172 -0.12300
C 	C 	0.90901 0.08488 0.81361 0.05700
H 	H 	0.91860 0.09940 0.80400 0.02600
C 	C 	0.92294 0.06755 0.83976 -0.12800
H 	H 	0.94200 0.07030 0.84780 0.07700
C 	C 	0.86350 0.09782 0.77660 0.33200
Cu	Cu	0.35992 0.35379 0.22791 0.90600
Cu	Cu	0.31788 0.38685 0.22343 0.91000
Cu	Cu	0.11164 0.37637 0.70855 0.91200
Cu	Cu	0.06786 0.34531 0.70432 0.90000
Cu	Cu	0.71612 0.50307 0.91485 0.90900
Cu	Cu	0.72171 0.50119 0.99455 0.90500
O 	O 	0.33333 0.33294 0.19318 -0.41000
O 	O 	0.30068 0.36364 0.18346 -0.39400
O 	O 	0.37747 0.61922 0.76277 -0.37200
O 	O 	0.33918 0.59334 0.76226 -0.41100
O 	O 	0.34198 0.33902 0.27387 -0.40700
O 	O 	0.30404 0.36364 0.26537 -0.40900
O 	O 	0.37259 0.37147 0.18151 -0.39400
O 	O 	0.33957 0.40302 0.18106 -0.41400
O 	O 	0.12288 0.35568 0.75619 -0.40700
O 	O 	0.08634 0.32736 0.75020 -0.39700
O 	O 	0.09399 0.60800 0.15984 -0.40300
O 	O 	0.05517 0.63204 0.15976 -0.40100
O 	O 	0.08816 0.39728 0.74149 -0.43000
O 	O 	0.05171 0.37019 0.74186 -0.37400
O 	O 	0.12839 0.35096 0.67471 -0.43500
O 	O 	0.09146 0.32524 0.66683 -0.39300
O 	O 	0.75582 0.50661 0.91616 -0.41500
O 	O 	0.76130 0.50802 0.98422 -0.39300
O 	O 	0.67620 0.49848 0.92228 -0.42100
O 	O 	0.68086 0.49341 0.98888 -0.39500
O 	O 	0.21128 0.04075 0.92529 -0.41000
O 	O 	0.21385 0.03787 0.99136 -0.41300
O 	O 	0.22039 0.03477 0.42013 -0.39400
O 	O 	0.22853 0.03537 0.48695 -0.39900
C 	C 	0.31071 0.34001 0.17710 0.36500
C 	C 	0.29239 0.32342 0.15342 -0.14300
C 	C 	0.29959 0.29749 0.15034 0.06400
H 	H 	0.31560 0.29110 0.16500 0.02400
C 	C 	0.28319 0.28106 0.12566 -0.13300
H 	H 	0.28810 0.26350 0.12360 0.08200
C 	C 	0.25958 0.29058 0.10404 0.08100
C 	C 	0.25238 0.31651 0.10711 -0.13300
H 	H 	0.23640 0.32290 0.09250 0.08000
C 	C 	0.26878 0.33294 0.13180 0.06600
H 	H 	0.26390 0.35050 0.13390 0.02400
C 	C 	0.24290 0.27383 0.07480 -0.01400
C 	C 	0.23027 0.26178 0.04960 -0.04900
C 	C 	0.21412 0.24893 0.01949 0.12300
C 	C 	0.19875 0.26359 0.99091 -0.17700
H 	H 	0.19920 0.28170 0.99240 0.09700
C 	C 	0.18269 0.25144 0.96016 0.11600
C 	C 	0.18201 0.22462 0.95799 -0.17300
H 	H 	0.17110 0.21640 0.93720 0.09700
C 	C 	0.19738 0.20996 0.98657 0.11500
C 	C 	0.21344 0.22211 0.01732 -0.17600
H 	H 	0.22380 0.21220 0.03660 0.09700
C 	C 	0.16940 0.26601 0.92810 -0.04500
C 	C 	0.15770 0.27870 0.89820 -0.02900
C 	C 	0.14444 0.29320 0.86704 0.08400
C 	C 	0.15656 0.31655 0.85650 -0.13200
H 	H 	0.17240 0.32280 0.87150 0.07900
C 	C 	0.14519 0.33063 0.82370 0.05800
H 	H 	0.15340 0.34640 0.81660 0.02600
C 	C 	0.12170 0.32136 0.80157 -0.12600
C 	C 	0.10958 0.29801 0.81210 0.05700
H 	H 	0.09370 0.29170 0.79720 0.02700
C 	C 	0.12094 0.28393 0.84490 -0.13100
H 	H 	0.11270 0.26810 0.85200 0.07800
C 	C 	0.11040 0.33558 0.76650 0.35100
C 	C 	0.19865 0.18231 0.98230 -0.03600
C 	C 	0.20001 0.15880 0.97590 -0.03300
C 	C 	0.20136 0.13230 0.97170 0.10000
C 	C 	0.20769 0.11717 0.00573 -0.14900
H 	H 	0.20980 0.12490 0.03150 0.08500
C 	C 	0.21084 0.09060 0.00168 0.08100
H 	H 	0.21510 0.08040 0.02470 0.01700
C 	C 	0.20766 0.07917 0.96358 -0.15800
C 	C 	0.20133 0.09431 0.92954 0.08100
H 	H 	0.19920 0.08660 0.90380 0.02000
C 	C 	0.19818 0.12088 0.93359 -0.14900
H 	H 	0.19390 0.13110 0.91060 0.09300
C 	C 	0.21117 0.05161 0.95900 0.39000
C 	C 	0.06700 0.39156 0.75694 0.35800
C 	C 	0.04955 0.40814 0.78142 -0.13200
C 	C 	0.06411 0.42989 0.79553 0.05600
H 	H 	0.08260 0.43290 0.78770 0.02600
C 	C 	0.05133 0.44717 0.82119 -0.13300
H 	H 	0.06120 0.46190 0.83070 0.07900
C 	C 	0.02398 0.44269 0.83274 0.09100
C 	C 	0.00942 0.42093 0.81863 -0.13800
H 	H 	0.99090 0.41790 0.82640 0.09000
C 	C 	0.02221 0.40365 0.79297 0.06800
H 	H 	0.01240 0.38890 0.78340 0.02700
C 	C 	0.01132 0.45980 0.85780 -0.03100
C 	C 	0.00083 0.47505 0.88250 -0.03500
C 	C 	0.98878 0.49361 0.91022 0.11300
C 	C 	0.95954 0.49437 0.91068 -0.17000
H 	H 	0.94860 0.48380 0.89290 0.09700
C 	C 	0.94648 0.51071 0.93747 0.11200
C 	C 	0.96265 0.52631 0.96380 -0.17300
H 	H 	0.95380 0.53740 0.98190 0.09500
C 	C 	0.99189 0.52555 0.96334 0.12100
C 	C 	0.00496 0.50921 0.93655 -0.17300
H 	H 	0.02470 0.50870 0.93620 0.09600
C 	C 	0.91590 0.51165 0.93910 -0.04200
C 	C 	0.89030 0.51176 0.94010 -0.02600
C 	C 	0.86044 0.51242 0.94150 0.08100
C 	C 	0.84278 0.51062 0.90674 -0.12700
H 	H 	0.85050 0.51010 0.88100 0.07700
C 	C 	0.81374 0.50961 0.91010 0.05100
H 	H 	0.80180 0.50840 0.88660 0.02800
C 	C 	0.80234 0.51041 0.94810 -0.12200
C 	C 	0.82000 0.51221 0.98285 0.05700
H 	H 	0.81230 0.51280 0.00860 0.02600
C 	C 	0.84905 0.51322 0.97950 -0.13000
H 	H 	0.86100 0.51440 0.00300 0.07800
C 	C 	0.77141 0.50845 0.94810 0.35200
C 	C 	0.00847 0.54013 0.99080 -0.04800
C 	C 	0.01991 0.55407 0.01390 -0.01400
C 	C 	0.03432 0.57006 0.04663 0.07900
C 	C 	0.06199 0.56589 0.06070 -0.13300
H 	H 	0.07290 0.55320 0.04860 0.08100
C 	C 	0.07348 0.58056 0.09270 0.06000
H 	H 	0.09220 0.57770 0.10220 0.02600
C 	C 	0.05730 0.59940 0.11060 -0.13600
C 	C 	0.02963 0.60357 0.09653 0.06000
H 	H 	0.01870 0.61630 0.10860 0.02400
C 	C 	0.01814 0.58890 0.06450 -0.13000
H 	H 	0.99940 0.59170 0.05500 0.07900
C 	C 	0.06987 0.61365 0.14470 0.36300
C 	C 	0.11760 0.33196 0.66020 0.38400
C 	C 	0.13167 0.31321 0.63340 -0.13200
C 	C 	0.11864 0.29140 0.61660 0.06400
H 	H 	0.10020 0.28710 0.62330 0.02400
C 	C 	0.13289 0.27592 0.58990 -0.13600
H 	H 	0.12410 0.26120 0.57850 0.08000
C 	C 	0.16017 0.28226 0.57994 0.08300
C 	C 	0.17319 0.30408 0.59680 -0.13100
H 	H 	0.19160 0.30840 0.59000 0.07800
C 	C 	0.15894 0.31955 0.62350 0.05800
H 	H 	0.16770 0.33430 0.63490 0.02600
C 	C 	0.17679 0.26751 0.55340 -0.02600
C 	C 	0.18895 0.25658 0.52850 -0.04000
C 	C 	0.20566 0.24448 0.49759 0.11800
C 	C 	0.20706 0.21775 0.49398 -0.17900
H 	H 	0.19750 0.20720 0.51190 0.09900
C 	C 	0.22262 0.20670 0.46381 0.12500
C 	C 	0.23679 0.22237 0.43725 -0.17900
H 	H 	0.24730 0.21490 0.41680 0.09700
C 	C 	0.23539 0.24910 0.44086 0.12200
C 	C 	0.21982 0.26015 0.47103 -0.17400
H 	H 	0.21890 0.27820 0.47350 0.09800
C 	C 	0.22504 0.18075 0.46060 -0.05200
C 	C 	0.22681 0.15564 0.45790 -0.02600
C 	C 	0.22807 0.12867 0.45680 0.08900
C 	C 	0.23160 0.11454 0.49255 -0.13900
H 	H 	0.23420 0.12310 0.51760 0.08200
C 	C 	0.23129 0.08769 0.49130 0.07000
H 	H 	0.23370 0.07810 0.51550 0.02300
C 	C 	0.22744 0.07498 0.45430 -0.14400
C 	C 	0.22391 0.08911 0.41858 0.06900
H 	H 	0.22130 0.08050 0.39360 0.02200
C 	C 	0.22422 0.11596 0.41984 -0.13900
H 	H 	0.22180 0.12550 0.39570 0.08200
C 	C 	0.22368 0.04774 0.45330 0.35900
C 	C 	0.25012 0.26592 0.41560 -0.04500
C 	C 	0.26151 0.28017 0.39270 -0.02100
C 	C 	0.27606 0.29729 0.36611 0.08300
C 	C 	0.30347 0.29183 0.35580 -0.13300
H 	H 	0.31290 0.27730 0.36700 0.08100
C 	C 	0.31696 0.30780 0.32890 0.06400
H 	H 	0.33550 0.30410 0.32200 0.02500
C 	C 	0.30304 0.32924 0.31236 -0.13700
C 	C 	0.27562 0.33470 0.32270 0.06400
H 	H 	0.26620 0.34920 0.31150 0.02300
C 	C 	0.26213 0.31873 0.34950 -0.13400
H 	H 	0.24360 0.32240 0.35650 0.08000
C 	C 	0.31720 0.34552 0.28340 0.37300
C 	C 	0.66538 0.49373 0.95460 0.37800
C 	C 	0.63593 0.48816 0.95680 -0.15300
C 	C 	0.62441 0.47947 0.99234 0.07500
H 	H 	0.63610 0.47690 0.01580 0.01900
C 	C 	0.59567 0.47457 0.99311 -0.14500
H 	H 	0.58790 0.46870 0.01710 0.08500
C 	C 	0.57844 0.47835 0.95840 0.09100
C 	C 	0.58996 0.48704 0.92285 -0.14000
H 	H 	0.57830 0.48960 0.89940 0.08300
C 	C 	0.61870 0.49194 0.92208 0.07100
H 	H 	0.62650 0.49780 0.89810 0.02100
C 	C 	0.54798 0.47649 0.96130 -0.02400
C 	C 	0.52394 0.47560 0.96130 -0.03600
C 	C 	0.49266 0.47671 0.96000 0.11300
C 	C 	0.47669 0.46275 0.98666 -0.17400
H 	H 	0.48560 0.45190 0.00610 0.09600
C 	C 	0.44748 0.46488 0.98453 0.12200
C 	C 	0.43425 0.48096 0.95575 -0.17600
H 	H 	0.41450 0.48240 0.95430 0.09800
C 	C 	0.45022 0.49492 0.92909 0.11400
C 	C 	0.47943 0.49280 0.93122 -0.17200
H 	H 	0.49020 0.50220 0.91320 0.09500
C 	C 	0.43246 0.45172 0.01390 -0.04900
C 	C 	0.41906 0.44164 0.03860 -0.01300
C 	C 	0.40313 0.42837 0.07048 0.07400
C 	C 	0.41470 0.40683 0.09017 -0.12300
H 	H 	0.43210 0.40020 0.08250 0.07600
C 	C 	0.40054 0.39509 0.12120 0.05100
H 	H 	0.40840 0.38050 0.13450 0.02900
C 	C 	0.37481 0.40489 0.13253 -0.11700
C 	C 	0.36325 0.42643 0.11283 0.05000
H 	H 	0.34590 0.43310 0.12050 0.03200
C 	C 	0.37741 0.43817 0.08181 -0.12300
H 	H 	0.36960 0.45270 0.06850 0.08300
C 	C 	0.35980 0.39332 0.16654 0.35100
C 	C 	0.43571 0.51275 0.90160 -0.04500
C 	C 	0.42425 0.52855 0.87970 -0.02400
C 	C 	0.40875 0.54614 0.85402 0.07900
C 	C 	0.38064 0.54207 0.84213 -0.12500
H 	H 	0.37100 0.52760 0.85180 0.07600
C 	C 	0.36670 0.55940 0.81598 0.04900
H 	H 	0.34770 0.55660 0.80790 0.02800
C 	C 	0.38089 0.58081 0.80172 -0.12300
C 	C 	0.40901 0.58488 0.81361 0.05700
H 	H 	0.41860 0.59940 0.80400 0.02600
C 	C 	0.42294 0.56755 0.83976 -0.12800
H 	H 	0.44200 0.57030 0.84780 0.07700
C 	C 	0.36350 0.59782 0.77660 0.33200
Cu	Cu	0.85992 0.14621 0.72791 0.90600
Cu	Cu	0.81788 0.11315 0.72343 0.91000
Cu	Cu	0.61164 0.12363 0.20855 0.91200
Cu	Cu	0.56786 0.15469 0.20432 0.90000
Cu	Cu	0.21612 0.99693 0.41485 0.90900
Cu	Cu	0.22171 0.99881 0.49455 0.90500
O 	O 	0.83333 0.16706 0.69318 -0.41000
O 	O 	0.80068 0.13636 0.68346 -0.39400
O 	O 	0.87747 0.88078 0.26277 -0.37200
O 	O 	0.83918 0.90666 0.26226 -0.41100
O 	O 	0.84198 0.16098 0.77387 -0.40700
O 	O 	0.80404 0.13636 0.76537 -0.40900
O 	O 	0.87259 0.12853 0.68151 -0.39400
O 	O 	0.83957 0.09698 0.68106 -0.41400
O 	O 	0.62288 0.14432 0.25619 -0.40700
O 	O 	0.58634 0.17264 0.25020 -0.39700
O 	O 	0.59399 0.89200 0.65984 -0.40300
O 	O 	0.55517 0.86796 0.65976 -0.40100
O 	O 	0.58816 0.10272 0.24149 -0.43000
O 	O 	0.55171 0.12981 0.24186 -0.37400
O 	O 	0.62839 0.14904 0.17471 -0.43500
O 	O 	0.59146 0.17476 0.16683 -0.39300
O 	O 	0.25582 0.99339 0.41616 -0.41500
O 	O 	0.26130 0.99198 0.48422 -0.39300
O 	O 	0.17620 0.00152 0.42228 -0.42100
O 	O 	0.18086 0.00659 0.48888 -0.39500
O 	O 	0.71128 0.45925 0.42529 -0.41000
O 	O 	0.71385 0.46213 0.49136 -0.41300
O 	O 	0.72039 0.46523 0.92013 -0.39400
O 	O 	0.72853 0.46463 0.98695 -0.39900
C 	C 	0.81071 0.15999 0.67710 0.36500
C 	C 	0.79239 0.17658 0.65342 -0.14300
C 	C 	0.79959 0.20251 0.65034 0.06400
H 	H 	0.81560 0.20890 0.66500 0.02400
C 	C 	0.78319 0.21894 0.62566 -0.13300
H 	H 	0.78810 0.23650 0.62360 0.08200
C 	C 	0.75958 0.20942 0.60404 0.08100
C 	C 	0.75238 0.18349 0.60711 -0.13300
H 	H 	0.73640 0.17710 0.59250 0.08000
C 	C 	0.76878 0.16706 0.63180 0.06600
H 	H 	0.76390 0.14950 0.63390 0.02400
C 	C 	0.74290 0.22617 0.57480 -0.01400
C 	C 	0.73027 0.23822 0.54960 -0.04900
C 	C 	0.71412 0.25107 0.51949 0.12300
C 	C 	0.69875 0.23641 0.49091 -0.17700
H 	H 	0.69920 0.21830 0.49240 0.09700
C 	C 	0.68269 0.24856 0.46016 0.11600
C 	C 	0.68201 0.27538 0.45799 -0.17300
H 	H 	0.67110 0.28360 0.43720 0.09700
C 	C 	0.69738 0.29004 0.48657 0.11500
C 	C 	0.71344 0.27789 0.51732 -0.17600
H 	H 	0.72380 0.28780 0.53660 0.09700
C 	C 	0.66940 0.23399 0.42810 -0.04500
C 	C 	0.65770 0.22130 0.39820 -0.02900
C 	C 	0.64444 0.20680 0.36704 0.08400
C 	C 	0.65656 0.18345 0.35650 -0.13200
H 	H 	0.67240 0.17720 0.37150 0.07900
C 	C 	0.64519 0.16937 0.32370 0.05800
H 	H 	0.65340 0.15360 0.31660 0.02600
C 	C 	0.62170 0.17864 0.30157 -0.12600
C 	C 	0.60958 0.20199 0.31210 0.05700
H 	H 	0.59370 0.20830 0.29720 0.02700
C 	C 	0.62094 0.21607 0.34490 -0.13100
H 	H 	0.61270 0.23190 0.35200 0.07800
C 	C 	0.61040 0.16442 0.26650 0.35100
C 	C 	0.69865 0.31769 0.48230 -0.03600
C 	C 	0.70001 0.34120 0.47590 -0.03300
C 	C 	0.70136 0.36770 0.47170 0.10000
C 	C 	0.70769 0.38283 0.50573 -0.14900
H 	H 	0.70980 0.37510 0.53150 0.08500
C 	C 	0.71084 0.40940 0.50168 0.08100
H 	H 	0.71510 0.41960 0.52470 0.01700
C 	C 	0.70766 0.42083 0.46358 -0.15800
C 	C 	0.70133 0.40569 0.42954 0.08100
H 	H 	0.69920 0.41340 0.40380 0.02000
C 	C 	0.69818 0.37912 0.43359 -0.14900
H 	H 	0.69390 0.36890 0.41060 0.09300
C 	C 	0.71117 0.44839 0.45900 0.39000
C 	C 	0.56700 0.10844 0.25694 0.35800
C 	C 	0.54955 0.09186 0.28142 -0.13200
C 	C 	0.56411 0.07011 0.29553 0.05600
H 	H 	0.58260 0.06710 0.28770 0.02600
C 	C 	0.55133 0.05283 0.32119 -0.13300
H 	H 	0.56120 0.03810 0.33070 0.07900
C 	C 	0.52398 0.05731 0.33274 0.09100
C 	C 	0.50942 0.07907 0.31863 -0.13800
H 	H 	0.49090 0.08210 0.32640 0.09000
C 	C 	0.52221 0.09635 0.29297 0.06800
H 	H 	0.51240 0.11110 0.28340 0.02700
C 	C 	0.51132 0.04020 0.35780 -0.03100
C 	C 	0.50083 0.02495 0.38250 -0.03500
C 	C 	0.48878 0.00639 0.41022 0.11300
C 	C 	0.45954 0.00563 0.41068 -0.17000
H 	H 	0.44860 0.01620 0.39290 0.09700
C 	C 	0.44648 0.98929 0.43747 0.11200
C 	C 	0.46265 0.97369 0.46380 -0.17300
H 	H 	0.45380 0.96260 0.48190 0.09500
C 	C 	0.49189 0.97445 0.46334 0.12100
C 	C 	0.50496 0.99079 0.43655 -0.17300
H 	H 	0.52470 0.99130 0.43620 0.09600
C 	C 	0.41590 0.98835 0.43910 -0.04200
C 	C 	0.39030 0.98824 0.44010 -0.02600
C 	C 	0.36044 0.98758 0.44150 0.08100
C 	C 	0.34278 0.98938 0.40674 -0.12700
H 	H 	0.35050 0.98990 0.38100 0.07700
C 	C 	0.31374 0.99039 0.41010 0.05100
H 	H 	0.30180 0.99160 0.38660 0.02800
C 	C 	0.30234 0.98959 0.44810 -0.12200
C 	C 	0.32000 0.98779 0.48285 0.05700
H 	H 	0.31230 0.98720 0.50860 0.02600
C 	C 	0.34905 0.98678 0.47950 -0.13000
H 	H 	0.36100 0.98560 0.50300 0.07800
C 	C 	0.27141 0.99155 0.44810 0.35200
C 	C 	0.50847 0.95987 0.49080 -0.04800
C 	C 	0.51991 0.94593 0.51390 -0.01400
C 	C 	0.53432 0.92994 0.54663 0.07900
C 	C 	0.56199 0.93411 0.56070 -0.13300
H 	H 	0.57290 0.94680 0.54860 0.08100
C 	C 	0.57348 0.91944 0.59270 0.06000
H 	H 	0.59220 0.92230 0.60220 0.02600
C 	C 	0.55730 0.90060 0.61060 -0.13600
C 	C 	0.52963 0.89643 0.59653 0.06000
H 	H 	0.51870 0.88370 0.60860 0.02400
C 	C 	0.51814 0.91110 0.56450 -0.13000
H 	H 	0.49940 0.90830 0.55500 0.07900
C 	C 	0.56987 0.88635 0.64470 0.36300
C 	C 	0.61760 0.16804 0.16020 0.38400
C 	C 	0.63167 0.18679 0.13340 -0.13200
C 	C 	0.61864 0.20860 0.11660 0.06400
H 	H 	0.60020 0.21290 0.12330 0.02400
C 	C 	0.63289 0.22408 0.08990 -0.13600
H 	H 	0.62410 0.23880 0.07850 0.08000
C 	C 	0.66017 0.21774 0.07994 0.08300
C 	C 	0.67319 0.19592 0.09680 -0.13100
H 	H 	0.69160 0.19160 0.09000 0.07800
C 	C 	0.65894 0.18045 0.12350 0.05800
H 	H 	0.66770 0.16570 0.13490 0.02600
C 	C 	0.67679 0.23249 0.05340 -0.02600
C 	C 	0.68895 0.24342 0.02850 -0.04000
C 	C 	0.70566 0.25552 0.99759 0.11800
C 	C 	0.70706 0.28225 0.99398 -0.17900
H 	H 	0.69750 0.29280 0.01190 0.09900
C 	C 	0.72262 0.29330 0.96381 0.12500
C 	C 	0.73679 0.27763 0.93725 -0.17900
H 	H 	0.74730 0.28510 0.91680 0.09700
C 	C 	0.73539 0.25090 0.94086 0.12200
C 	C 	0.71982 0.23985 0.97103 -0.17400
H 	H 	0.71890 0.22180 0.97350 0.09800
C 	C 	0.72504 0.31925 0.96060 -0.05200
C 	C 	0.72681 0.34436 0.95790 -0.02600
C 	C 	0.72807 0.37133 0.95680 0.08900
C 	C 	0.73160 0.38546 0.99255 -0.13900
H 	H 	0.73420 0.37690 0.01760 0.08200
C 	C 	0.73129 0.41231 0.99130 0.07000
H 	H 	0.73370 0.42190 0.01550 0.02300
C 	C 	0.72744 0.42502 0.95430 -0.14400
C 	C 	0.72391 0.41089 0.91858 0.06900
H 	H 	0.72130 0.41950 0.89360 0.02200
C 	C 	0.72422 0.38404 0.91984 -0.13900
H 	H 	0.72180 0.37450 0.89570 0.08200
C 	C 	0.72368 0.45226 0.95330 0.35900
C 	C 	0.75012 0.23408 0.91560 -0.04500
C 	C 	0.76151 0.21983 0.89270 -0.02100
C 	C 	0.77606 0.20271 0.86611 0.08300
C 	C 	0.80347 0.20817 0.85580 -0.13300
H 	H 	0.81290 0.22270 0.86700 0.08100
C 	C 	0.81696 0.19220 0.82890 0.06400
H 	H 	0.83550 0.19590 0.82200 0.02500
C 	C 	0.80304 0.17076 0.81236 -0.13700
C 	C 	0.77562 0.16530 0.82270 0.06400
H 	H 	0.76620 0.15080 0.81150 0.02300
C 	C 	0.76213 0.18127 0.84950 -0.13400
H 	H 	0.74360 0.17760 0.85650 0.08000
C 	C 	0.81720 0.15448 0.78340 0.37300
C 	C 	0.16538 0.00627 0.45460 0.37800
C 	C 	0.13593 0.01184 0.45680 -0.15300
C 	C 	0.12441 0.02053 0.49234 0.07500
H 	H 	0.13610 0.02310 0.51580 0.01900
C 	C 	0.09567 0.02543 0.49311 -0.14500
H 	H 	0.08790 0.03130 0.51710 0.08600
C 	C 	0.07844 0.02165 0.45840 0.09100
C 	C 	0.08996 0.01296 0.42285 -0.14000
H 	H 	0.07830 0.01040 0.39940 0.08300
C 	C 	0.11870 0.00806 0.42208 0.07100
H 	H 	0.12650 0.00220 0.39810 0.02100
C 	C 	0.04798 0.02351 0.46130 -0.02400
C 	C 	0.02394 0.02440 0.46130 -0.03600
C 	C 	0.99266 0.02329 0.46000 0.11300
C 	C 	0.97669 0.03725 0.48666 -0.17400
H 	H 	0.98560 0.04810 0.50610 0.09600
C 	C 	0.94748 0.03512 0.48453 0.12200
C 	C 	0.93425 0.01904 0.45575 -0.17600
H 	H 	0.91450 0.01760 0.45430 0.09800
C 	C 	0.95022 0.00508 0.42909 0.11400
C 	C 	0.97943 0.00720 0.43122 -0.17200
H 	H 	0.99020 0.99780 0.41320 0.09500
C 	C 	0.93246 0.04828 0.51390 -0.04900
C 	C 	0.91906 0.05836 0.53860 -0.01300
C 	C 	0.90313 0.07163 0.57048 0.07400
C 	C 	0.91470 0.09317 0.59017 -0.12300
H 	H 	0.93210 0.09980 0.58250 0.07600
C 	C 	0.90054 0.10491 0.62120 0.05100
H 	H 	0.90840 0.11950 0.63450 0.02900
C 	C 	0.87481 0.09511 0.63253 -0.11700
C 	C 	0.86325 0.07357 0.61283 0.05000
H 	H 	0.84590 0.06690 0.62050 0.03200
C 	C 	0.87741 0.06183 0.58181 -0.12300
H 	H 	0.86960 0.04730 0.56850 0.08300
C 	C 	0.85980 0.10668 0.66654 0.35100
C 	C 	0.93571 0.98725 0.40160 -0.04500
C 	C 	0.92425 0.97145 0.37970 -0.02400
C 	C 	0.90875 0.95386 0.35402 0.07900
C 	C 	0.88064 0.95793 0.34213 -0.12500
H 	H 	0.87100 0.97240 0.35180 0.07600
C 	C 	0.86670 0.94060 0.31598 0.04900
H 	H 	0.84770 0.94340 0.30790 0.02800
C 	C 	0.88089 0.91919 0.30172 -0.12300
C 	C 	0.90901 0.91512 0.31361 0.05700
H 	H 	0.91860 0.90060 0.30400 0.02600
C 	C 	0.92294 0.93245 0.33976 -0.12800
H 	H 	0.94200 0.92970 0.34780 0.07700
C 	C 	0.86350 0.90218 0.27660 0.33200
Cu	Cu	0.35992 0.64621 0.72791 0.90600
Cu	Cu	0.31788 0.61315 0.72343 0.91000
Cu	Cu	0.11164 0.62363 0.20855 0.91200
Cu	Cu	0.06786 0.65469 0.20432 0.90000
Cu	Cu	0.71612 0.49693 0.41485 0.90900
Cu	Cu	0.72171 0.49881 0.49455 0.90500
O 	O 	0.33333 0.66706 0.69318 -0.41000
O 	O 	0.30068 0.63636 0.68346 -0.39400
O 	O 	0.37747 0.38078 0.26277 -0.37200
O 	O 	0.33918 0.40666 0.26226 -0.41100
O 	O 	0.34198 0.66098 0.77387 -0.40700
O 	O 	0.30404 0.63636 0.76537 -0.40900
O 	O 	0.37259 0.62853 0.68151 -0.39400
O 	O 	0.33957 0.59698 0.68106 -0.41400
O 	O 	0.12288 0.64432 0.25619 -0.40700
O 	O 	0.08634 0.67264 0.25020 -0.39700
O 	O 	0.09399 0.39200 0.65984 -0.40300
O 	O 	0.05517 0.36796 0.65976 -0.40100
O 	O 	0.08816 0.60272 0.24149 -0.43000
O 	O 	0.05171 0.62981 0.24186 -0.37400
O 	O 	0.12839 0.64904 0.17471 -0.43500
O 	O 	0.09146 0.67476 0.16683 -0.39300
O 	O 	0.75582 0.49339 0.41616 -0.41500
O 	O 	0.76130 0.49198 0.48422 -0.39300
O 	O 	0.67620 0.50152 0.42228 -0.42100
O 	O 	0.68086 0.50659 0.48888 -0.39500
O 	O 	0.21128 0.95925 0.42529 -0.41000
O 	O 	0.21385 0.96213 0.49136 -0.41300
O 	O 	0.22039 0.96523 0.92013 -0.39400
O 	O 	0.22853 0.96463 0.98695 -0.39900
C 	C 	0.31071 0.65999 0.67710 0.36500
C 	C 	0.29239 0.67658 0.65342 -0.14300
C 	C 	0.29959 0.70251 0.65034 0.06400
H 	H 	0.31560 0.70890 0.66500 0.02400
C 	C 	0.28319 0.71894 0.62566 -0.13300
H 	H 	0.28810 0.73650 0.62360 0.08200
C 	C 	0.25958 0.70942 0.60404 0.08100
C 	C 	0.25238 0.68349 0.60711 -0.13300
H 	H 	0.23640 0.67710 0.59250 0.08000
C 	C 	0.26878 0.66706 0.63180 0.06600
H 	H 	0.26390 0.64950 0.63390 0.02400
C 	C 	0.24290 0.72617 0.57480 -0.01400
C 	C 	0.23027 0.73822 0.54960 -0.04900
C 	C 	0.21412 0.75107 0.51949 0.12300
C 	C 	0.19875 0.73641 0.49091 -0.17700
H 	H 	0.19920 0.71830 0.49240 0.09700
C 	C 	0.18269 0.74856 0.46016 0.11600
C 	C 	0.18201 0.77538 0.45799 -0.17300
H 	H 	0.17110 0.78360 0.43720 0.09700
C 	C 	0.19738 0.79004 0.48657 0.11500
C 	C 	0.21344 0.77789 0.51732 -0.17600
H 	H 	0.22380 0.78780 0.53660 0.09700
C 	C 	0.16940 0.73399 0.42810 -0.04500
C 	C 	0.15770 0.72130 0.39820 -0.02900
C 	C 	0.14444 0.70680 0.36704 0.08400
C 	C 	0.15656 0.68345 0.35650 -0.13200
H 	H 	0.17240 0.67720 0.37150 0.07900
C 	C 	0.14519 0.66937 0.32370 0.05800
H 	H 	0.15340 0.65360 0.31660 0.02600
C 	C 	0.12170 0.67864 0.30157 -0.12600
C 	C 	0.10958 0.70199 0.31210 0.05700
H 	H 	0.09370 0.70830 0.29720 0.02700
C 	C 	0.12094 0.71607 0.34490 -0.13100
H 	H 	0.11270 0.73190 0.35200 0.07800
C 	C 	0.11040 0.66442 0.26650 0.35100
C 	C 	0.19865 0.81769 0.48230 -0.03600
C 	C 	0.20001 0.84120 0.47590 -0.03300
C 	C 	0.20136 0.86770 0.47170 0.10000
C 	C 	0.20769 0.88283 0.50573 -0.14900
H 	H 	0.20980 0.87510 0.53150 0.08500
C 	C 	0.21084 0.90940 0.50168 0.08100
H 	H 	0.21510 0.91960 0.52470 0.01700
C 	C 	0.20766 0.92083 0.46358 -0.15800
C 	C 	0.20133 0.90569 0.42954 0.08100
H 	H 	0.19920 0.91340 0.40380 0.02000
C 	C 	0.19818 0.87912 0.43359 -0.14900
H 	H 	0.19390 0.86890 0.41060 0.09300
C 	C 	0.21117 0.94839 0.45900 0.39000
C 	C 	0.06700 0.60844 0.25694 0.35800
C 	C 	0.04955 0.59186 0.28142 -0.13200
C 	C 	0.06411 0.57011 0.29553 0.05600
H 	H 	0.08260 0.56710 0.28770 0.02600
C 	C 	0.05133 0.55283 0.32119 -0.13300
H 	H 	0.06120 0.53810 0.33070 0.07900
C 	C 	0.02398 0.55731 0.33274 0.09100
C 	C 	0.00942 0.57907 0.31863 -0.13800
H 	H 	0.99090 0.58210 0.32640 0.09000
C 	C 	0.02221 0.59635 0.29297 0.06800
H 	H 	0.01240 0.61110 0.28340 0.02700
C 	C 	0.01132 0.54020 0.35780 -0.03100
C 	C 	0.00083 0.52495 0.38250 -0.03500
C 	C 	0.98878 0.50639 0.41022 0.11300
C 	C 	0.95954 0.50563 0.41068 -0.17000
H 	H 	0.94860 0.51620 0.39290 0.09700
C 	C 	0.94648 0.48929 0.43747 0.11200
C 	C 	0.96265 0.47369 0.46380 -0.17300
H 	H 	0.95380 0.46260 0.48190 0.09500
C 	C 	0.99189 0.47445 0.46334 0.12100
C 	C 	0.00496 0.49079 0.43655 -0.17300
H 	H 	0.02470 0.49130 0.43620 0.09600
C 	C 	0.91590 0.48835 0.43910 -0.04200
C 	C 	0.89030 0.48824 0.44010 -0.02600
C 	C 	0.86044 0.48758 0.44150 0.08100
C 	C 	0.84278 0.48938 0.40674 -0.12700
H 	H 	0.85050 0.48990 0.38100 0.07700
C 	C 	0.81374 0.49039 0.41010 0.05100
H 	H 	0.80180 0.49160 0.38660 0.02800
C 	C 	0.80234 0.48959 0.44810 -0.12200
C 	C 	0.82000 0.48779 0.48285 0.05700
H 	H 	0.81230 0.48720 0.50860 0.02600
C 	C 	0.84905 0.48678 0.47950 -0.13000
H 	H 	0.86100 0.48560 0.50300 0.07800
C 	C 	0.77141 0.49155 0.44810 0.35200
C 	C 	0.00847 0.45987 0.49080 -0.04800
C 	C 	0.01991 0.44593 0.51390 -0.01400
C 	C 	0.03432 0.42994 0.54663 0.07900
C 	C 	0.06199 0.43411 0.56070 -0.13300
H 	H 	0.07290 0.44680 0.54860 0.08100
C 	C 	0.07348 0.41944 0.59270 0.06000
H 	H 	0.09220 0.42230 0.60220 0.02600
C 	C 	0.05730 0.40060 0.61060 -0.13600
C 	C 	0.02963 0.39643 0.59653 0.06000
H 	H 	0.01870 0.38370 0.60860 0.02400
C 	C 	0.01814 0.41110 0.56450 -0.13000
H 	H 	0.99940 0.40830 0.55500 0.07900
C 	C 	0.06987 0.38635 0.64470 0.36300
C 	C 	0.11760 0.66804 0.16020 0.38400
C 	C 	0.13167 0.68679 0.13340 -0.13200
C 	C 	0.11864 0.70860 0.11660 0.06400
H 	H 	0.10020 0.71290 0.12330 0.02400
C 	C 	0.13289 0.72408 0.08990 -0.13600
H 	H 	0.12410 0.73880 0.07850 0.08000
C 	C 	0.16017 0.71774 0.07994 0.08300
C 	C 	0.17319 0.69592 0.09680 -0.13100
H 	H 	0.19160 0.69160 0.09000 0.07800
C 	C 	0.15894 0.68045 0.12350 0.05800
H 	H 	0.16770 0.66570 0.13490 0.02600
C 	C 	0.17679 0.73249 0.05340 -0.02600
C 	C 	0.18895 0.74342 0.02850 -0.04000
C 	C 	0.20566 0.75552 0.99759 0.11800
C 	C 	0.20706 0.78225 0.99398 -0.17900
H 	H 	0.19750 0.79280 0.01190 0.09900
C 	C 	0.22262 0.79330 0.96381 0.12500
C 	C 	0.23679 0.77763 0.93725 -0.17900
H 	H 	0.24730 0.78510 0.91680 0.09700
C 	C 	0.23539 0.75090 0.94086 0.12200
C 	C 	0.21982 0.73985 0.97103 -0.17400
H 	H 	0.21890 0.72180 0.97350 0.09800
C 	C 	0.22504 0.81925 0.96060 -0.05200
C 	C 	0.22681 0.84436 0.95790 -0.02600
C 	C 	0.22807 0.87133 0.95680 0.08900
C 	C 	0.23160 0.88546 0.99255 -0.13900
H 	H 	0.23420 0.87690 0.01760 0.08200
C 	C 	0.23129 0.91231 0.99130 0.07000
H 	H 	0.23370 0.92190 0.01550 0.02300
C 	C 	0.22744 0.92502 0.95430 -0.14400
C 	C 	0.22391 0.91089 0.91858 0.06900
H 	H 	0.22130 0.91950 0.89360 0.02200
C 	C 	0.22422 0.88404 0.91984 -0.13900
H 	H 	0.22180 0.87450 0.89570 0.08200
C 	C 	0.22368 0.95226 0.95330 0.35900
C 	C 	0.25012 0.73408 0.91560 -0.04500
C 	C 	0.26151 0.71983 0.89270 -0.02100
C 	C 	0.27606 0.70271 0.86611 0.08300
C 	C 	0.30347 0.70817 0.85580 -0.13300
H 	H 	0.31290 0.72270 0.86700 0.08100
C 	C 	0.31696 0.69220 0.82890 0.06400
H 	H 	0.33550 0.69590 0.82200 0.02500
C 	C 	0.30304 0.67076 0.81236 -0.13700
C 	C 	0.27562 0.66530 0.82270 0.06400
H 	H 	0.26620 0.65080 0.81150 0.02300
C 	C 	0.26213 0.68127 0.84950 -0.13400
H 	H 	0.24360 0.67760 0.85650 0.08000
C 	C 	0.31720 0.65448 0.78340 0.37300
C 	C 	0.66538 0.50627 0.45460 0.37800
C 	C 	0.63593 0.51184 0.45680 -0.15300
C 	C 	0.62441 0.52053 0.49234 0.07500
H 	H 	0.63610 0.52310 0.51580 0.01900
C 	C 	0.59567 0.52543 0.49311 -0.14500
H 	H 	0.58790 0.53130 0.51710 0.08600
C 	C 	0.57844 0.52165 0.45840 0.09100
C 	C 	0.58996 0.51296 0.42285 -0.14000
H 	H 	0.57830 0.51040 0.39940 0.08300
C 	C 	0.61870 0.50806 0.42208 0.07100
H 	H 	0.62650 0.50220 0.39810 0.02100
C 	C 	0.54798 0.52351 0.46130 -0.02400
C 	C 	0.52394 0.52440 0.46130 -0.03600
C 	C 	0.49266 0.52329 0.46000 0.11300
C 	C 	0.47669 0.53725 0.48666 -0.17400
H 	H 	0.48560 0.54810 0.50610 0.09600
C 	C 	0.44748 0.53512 0.48453 0.12200
C 	C 	0.43425 0.51904 0.45575 -0.17600
H 	H 	0.41450 0.51760 0.45430 0.09800
C 	C 	0.45022 0.50508 0.42909 0.11400
C 	C 	0.47943 0.50720 0.43122 -0.17200
H 	H 	0.49020 0.49780 0.41320 0.09500
C 	C 	0.43246 0.54828 0.51390 -0.04900
C 	C 	0.41906 0.55836 0.53860 -0.01300
C 	C 	0.40313 0.57163 0.57048 0.07400
C 	C 	0.41470 0.59317 0.59017 -0.12300
H 	H 	0.43210 0.59980 0.58250 0.07600
C 	C 	0.40054 0.60491 0.62120 0.05100
H 	H 	0.40840 0.61950 0.63450 0.02900
C 	C 	0.37481 0.59511 0.63253 -0.11700
C 	C 	0.36325 0.57357 0.61283 0.05000
H 	H 	0.34590 0.56690 0.62050 0.03200
C 	C 	0.37741 0.56183 0.58181 -0.12300
H 	H 	0.36960 0.54730 0.56850 0.08300
C 	C 	0.35980 0.60668 0.66654 0.35100
C 	C 	0.43571 0.48725 0.40160 -0.04500
C 	C 	0.42425 0.47145 0.37970 -0.02400
C 	C 	0.40875 0.45386 0.35402 0.07900
C 	C 	0.38064 0.45793 0.34213 -0.12500
H 	H 	0.37100 0.47240 0.35180 0.07600
C 	C 	0.36670 0.44060 0.31598 0.04900
H 	H 	0.34770 0.44340 0.30790 0.02800
C 	C 	0.38089 0.41919 0.30172 -0.12300
C 	C 	0.40901 0.41512 0.31361 0.05700
H 	H 	0.41860 0.40060 0.30400 0.02600
C 	C 	0.42294 0.43245 0.33976 -0.12800
H 	H 	0.44200 0.42970 0.34780 0.07700
C 	C 	0.36350 0.40218 0.27660 0.33200
