data_crystal

_cell_length_a 10.20000
_cell_length_b 9.99800
_cell_length_c 10.44710
_cell_angle_alpha 90.00000
_cell_angle_beta  92.24200
_cell_angle_gamma 90.00000

_symmetry_space_group_name_	'P 1'
_symmetry_space_group_name_H-M	'P 1'

loop_
_symmetry_equiv_pos_as_xyz
  x,y,z

loop_
_atom_site_label
_atom_site_type_symbol
_atom_site_fract_x
_atom_site_fract_y
_atom_site_fract_z
_atom_site_charge
Zn	Zn	0.13720 0.42350 0.89270 1.23700
Zn	Zn	0.37240 0.09890 0.12110 1.23400
Zn	Zn	0.08300 0.15010 0.39880 1.23400
Zn	Zn	0.57920 0.81430 0.37500 1.23300
P 	P 	0.92820 0.67130 0.90580 0.54900
P 	P 	0.38410 0.06370 0.43130 0.56200
P 	P 	0.11440 0.39680 0.58780 0.56000
P 	P 	0.43270 0.35460 0.92930 0.55100
O 	O 	0.31940 0.45680 0.93090 -0.47000
O 	O 	0.05910 0.59730 0.91700 -0.43500
O 	O 	0.10090 0.34480 0.72420 -0.47100
O 	O 	0.06180 0.28670 0.99890 -0.42400
O 	O 	0.42970 0.26200 0.04590 -0.43700
O 	O 	0.40840 0.13020 0.30220 -0.47800
O 	O 	0.56310 0.42940 0.93840 -0.43700
O 	O 	0.81550 0.57420 0.93760 -0.44200
O 	O 	0.23670 0.05530 0.45660 -0.46400
O 	O 	0.07060 0.53970 0.57660 -0.44400
O 	O 	0.03270 0.30890 0.49670 -0.42300
O 	O 	0.90400 0.72970 0.77190 -0.46200
O 	O 	0.43450 0.92000 0.43450 -0.43100
O 	O 	0.42360 0.26940 0.80570 -0.46900
O 	O 	0.26100 0.39530 0.55270 -0.45600
O 	O 	0.45480 0.14370 0.53720 -0.41900
Zn	Zn	0.86280 0.92350 0.10730 1.23600
Zn	Zn	0.62760 0.59890 0.87890 1.23500
Zn	Zn	0.91700 0.65010 0.60120 1.23400
Zn	Zn	0.42080 0.31430 0.62500 1.23300
P 	P 	0.07180 0.17130 0.09420 0.54800
P 	P 	0.61590 0.56370 0.56870 0.56400
P 	P 	0.88560 0.89680 0.41220 0.55700
P 	P 	0.56730 0.85460 0.07070 0.55200
O 	O 	0.68060 0.95680 0.06910 -0.47000
O 	O 	0.94090 0.09730 0.08300 -0.43300
O 	O 	0.89910 0.84480 0.27580 -0.47100
O 	O 	0.93820 0.78670 0.00110 -0.42400
O 	O 	0.57030 0.76200 0.95410 -0.43800
O 	O 	0.59160 0.63020 0.69780 -0.47800
O 	O 	0.43690 0.92940 0.06160 -0.43500
O 	O 	0.18450 0.07420 0.06240 -0.44300
O 	O 	0.76330 0.55530 0.54340 -0.46300
O 	O 	0.92940 0.03970 0.42340 -0.44100
O 	O 	0.96730 0.80890 0.50330 -0.42300
O 	O 	0.09600 0.22970 0.22810 -0.46100
O 	O 	0.56550 0.42000 0.56550 -0.43400
O 	O 	0.57640 0.76940 0.19430 -0.46800
O 	O 	0.73900 0.89530 0.44730 -0.45600
O 	O 	0.54520 0.64370 0.46280 -0.41900
