data_crystal

_cell_length_a 25.29700
_cell_length_b 4.88610
_cell_length_c 24.26800
_cell_angle_alpha 90.00000
_cell_angle_beta  118.28500
_cell_angle_gamma 90.00000

_symmetry_space_group_name_	'P 1'
_symmetry_space_group_name_H-M	'P 1'

loop_
_symmetry_equiv_pos_as_xyz
  x,y,z

loop_
_atom_site_label
_atom_site_type_symbol
_atom_site_fract_x
_atom_site_fract_y
_atom_site_fract_z
_atom_site_charge
Be	Be	0.18225 0.32400 0.74803 1.48000
Be	Be	0.05909 0.33980 0.84070 1.48200
Be	Be	0.26266 0.48310 0.07207 1.48100
P 	P 	0.23952 0.83772 0.81549 0.68400
P 	P 	0.06601 0.51133 0.72543 0.73200
P 	P 	0.17740 0.52270 0.93460 0.69600
O 	O 	0.21750 0.53390 0.81191 -0.49500
O 	O 	0.26617 0.93040 0.88371 -0.52900
O 	O 	0.28771 0.85390 0.79629 -0.59100
O 	O 	0.18500 0.01330 0.77367 -0.59700
O 	O 	0.11361 0.41570 0.70884 -0.56000
O 	O 	0.06912 0.83320 0.73025 -0.44800
H 	H 	0.10420 0.88280 0.74500 0.30600
O 	O 	0.00388 0.46190 0.67146 -0.54500
O 	O 	0.07575 0.39370 0.78611 -0.59400
O 	O 	0.11163 0.45010 0.90621 -0.54000
O 	O 	0.20735 0.45920 0.00346 -0.59300
O 	O 	0.20933 0.34060 0.90469 -0.50300
O 	O 	0.18362 0.82090 0.92030 -0.57400
O 	O 	0.05656 0.00610 0.85164 -0.63700
H 	H 	0.05390 0.97960 0.88360 0.33700
Be	Be	0.68225 0.82400 0.74803 1.48100
Be	Be	0.55909 0.83980 0.84070 1.48300
Be	Be	0.76266 0.98310 0.07207 1.48100
P 	P 	0.73952 0.33772 0.81549 0.68300
P 	P 	0.56601 0.01133 0.72543 0.69600
P 	P 	0.67740 0.02270 0.93460 0.67500
O 	O 	0.71750 0.03390 0.81191 -0.50200
O 	O 	0.76617 0.43040 0.88371 -0.52800
O 	O 	0.78771 0.35390 0.79629 -0.59300
O 	O 	0.68500 0.51330 0.77367 -0.59500
O 	O 	0.61361 0.91570 0.70884 -0.54600
O 	O 	0.56912 0.33320 0.73025 -0.44300
H 	H 	0.60420 0.38280 0.74500 0.30300
O 	O 	0.50388 0.96190 0.67146 -0.52900
O 	O 	0.57575 0.89370 0.78611 -0.57800
O 	O 	0.61163 0.95010 0.90621 -0.52900
O 	O 	0.70735 0.95920 0.00346 -0.58600
O 	O 	0.70933 0.84060 0.90469 -0.49300
O 	O 	0.68362 0.32090 0.92030 -0.57100
O 	O 	0.55656 0.50610 0.85164 -0.64500
H 	H 	0.55390 0.47960 0.88360 0.34000
Be	Be	0.81775 0.32400 0.75197 1.48100
Be	Be	0.94091 0.33980 0.65930 1.48300
Be	Be	0.73734 0.48310 0.42793 1.48100
P 	P 	0.76048 0.83772 0.68451 0.68400
P 	P 	0.93399 0.51133 0.77457 0.73200
P 	P 	0.82260 0.52270 0.56540 0.69700
O 	O 	0.78250 0.53390 0.68809 -0.49500
O 	O 	0.73383 0.93040 0.61629 -0.53000
O 	O 	0.71229 0.85390 0.70371 -0.59100
O 	O 	0.81500 0.01330 0.72633 -0.59600
O 	O 	0.88639 0.41570 0.79116 -0.56000
O 	O 	0.93088 0.83320 0.76975 -0.44700
H 	H 	0.89580 0.88280 0.75500 0.30600
O 	O 	0.99612 0.46190 0.82854 -0.54400
O 	O 	0.92425 0.39370 0.71389 -0.59400
O 	O 	0.88837 0.45010 0.59379 -0.53900
O 	O 	0.79265 0.45920 0.49654 -0.59400
O 	O 	0.79067 0.34060 0.59531 -0.50300
O 	O 	0.81638 0.82090 0.57970 -0.57400
O 	O 	0.94344 0.00610 0.64836 -0.63500
H 	H 	0.94610 0.97960 0.61640 0.33700
Be	Be	0.31775 0.82400 0.75197 1.48100
Be	Be	0.44091 0.83980 0.65930 1.48300
Be	Be	0.23734 0.98310 0.42793 1.48100
P 	P 	0.26048 0.33772 0.68451 0.68300
P 	P 	0.43399 0.01133 0.77457 0.69500
P 	P 	0.32260 0.02270 0.56540 0.67500
O 	O 	0.28250 0.03390 0.68809 -0.50200
O 	O 	0.23383 0.43040 0.61629 -0.52800
O 	O 	0.21229 0.35390 0.70371 -0.59300
O 	O 	0.31500 0.51330 0.72633 -0.59500
O 	O 	0.38639 0.91570 0.79116 -0.54600
O 	O 	0.43088 0.33320 0.76975 -0.44300
H 	H 	0.39580 0.38280 0.75500 0.30300
O 	O 	0.49612 0.96190 0.82854 -0.52900
O 	O 	0.42425 0.89370 0.71389 -0.57800
O 	O 	0.38837 0.95010 0.59379 -0.52900
O 	O 	0.29265 0.95920 0.49654 -0.58500
O 	O 	0.29067 0.84060 0.59531 -0.49300
O 	O 	0.31638 0.32090 0.57970 -0.57100
O 	O 	0.44344 0.50610 0.64836 -0.64500
H 	H 	0.44610 0.47960 0.61640 0.34000
Be	Be	0.81775 0.67600 0.25197 1.48100
Be	Be	0.94091 0.66020 0.15930 1.48300
Be	Be	0.73734 0.51690 0.92793 1.48100
P 	P 	0.76048 0.16228 0.18451 0.68400
P 	P 	0.93399 0.48867 0.27457 0.73200
P 	P 	0.82260 0.47730 0.06540 0.69600
O 	O 	0.78250 0.46610 0.18809 -0.49500
O 	O 	0.73383 0.06960 0.11629 -0.52900
O 	O 	0.71229 0.14610 0.20371 -0.59100
O 	O 	0.81500 0.98670 0.22633 -0.59700
O 	O 	0.88639 0.58430 0.29116 -0.56000
O 	O 	0.93088 0.16680 0.26975 -0.44800
H 	H 	0.89580 0.11720 0.25500 0.30600
O 	O 	0.99612 0.53810 0.32854 -0.54500
O 	O 	0.92425 0.60630 0.21389 -0.59400
O 	O 	0.88837 0.54990 0.09379 -0.54000
O 	O 	0.79265 0.54080 0.99654 -0.59300
O 	O 	0.79067 0.65940 0.09531 -0.50300
O 	O 	0.81638 0.17910 0.07970 -0.57400
O 	O 	0.94344 0.99390 0.14836 -0.63700
H 	H 	0.94610 0.02040 0.11640 0.33700
Be	Be	0.31775 0.17600 0.25197 1.48100
Be	Be	0.44091 0.16020 0.15930 1.48300
Be	Be	0.23734 0.01690 0.92793 1.48100
P 	P 	0.26048 0.66228 0.18451 0.68300
P 	P 	0.43399 0.98867 0.27457 0.69600
P 	P 	0.32260 0.97730 0.06540 0.67500
O 	O 	0.28250 0.96610 0.18809 -0.50200
O 	O 	0.23383 0.56960 0.11629 -0.52800
O 	O 	0.21229 0.64610 0.20371 -0.59300
O 	O 	0.31500 0.48670 0.22633 -0.59500
O 	O 	0.38639 0.08430 0.29116 -0.54600
O 	O 	0.43088 0.66680 0.26975 -0.44300
H 	H 	0.39580 0.61720 0.25500 0.30300
O 	O 	0.49612 0.03810 0.32854 -0.52900
O 	O 	0.42425 0.10630 0.21389 -0.57800
O 	O 	0.38837 0.04990 0.09379 -0.52900
O 	O 	0.29265 0.04080 0.99654 -0.58600
O 	O 	0.29067 0.15940 0.09531 -0.49300
O 	O 	0.31638 0.67910 0.07970 -0.57100
O 	O 	0.44344 0.49390 0.14836 -0.64500
H 	H 	0.44610 0.52040 0.11640 0.34000
Be	Be	0.18225 0.67600 0.24803 1.48100
Be	Be	0.05909 0.66020 0.34070 1.48300
Be	Be	0.26266 0.51690 0.57207 1.48100
P 	P 	0.23952 0.16228 0.31549 0.68400
P 	P 	0.06601 0.48867 0.22543 0.73200
P 	P 	0.17740 0.47730 0.43460 0.69700
O 	O 	0.21750 0.46610 0.31191 -0.49500
O 	O 	0.26617 0.06960 0.38371 -0.53000
O 	O 	0.28771 0.14610 0.29629 -0.59100
O 	O 	0.18500 0.98670 0.27367 -0.59600
O 	O 	0.11361 0.58430 0.20884 -0.56000
O 	O 	0.06912 0.16680 0.23025 -0.44700
H 	H 	0.10420 0.11720 0.24500 0.30600
O 	O 	0.00388 0.53810 0.17146 -0.54400
O 	O 	0.07575 0.60630 0.28611 -0.59400
O 	O 	0.11163 0.54990 0.40621 -0.53900
O 	O 	0.20735 0.54080 0.50346 -0.59400
O 	O 	0.20933 0.65940 0.40469 -0.50300
O 	O 	0.18362 0.17910 0.42030 -0.57400
O 	O 	0.05656 0.99390 0.35164 -0.63500
H 	H 	0.05390 0.02040 0.38360 0.33700
Be	Be	0.68225 0.17600 0.24803 1.48100
Be	Be	0.55909 0.16020 0.34070 1.48300
Be	Be	0.76266 0.01690 0.57207 1.48100
P 	P 	0.73952 0.66228 0.31549 0.68300
P 	P 	0.56601 0.98867 0.22543 0.69500
P 	P 	0.67740 0.97730 0.43460 0.67500
O 	O 	0.71750 0.96610 0.31191 -0.50200
O 	O 	0.76617 0.56960 0.38371 -0.52800
O 	O 	0.78771 0.64610 0.29629 -0.59300
O 	O 	0.68500 0.48670 0.27367 -0.59500
O 	O 	0.61361 0.08430 0.20884 -0.54600
O 	O 	0.56912 0.66680 0.23025 -0.44300
H 	H 	0.60420 0.61720 0.24500 0.30300
O 	O 	0.50388 0.03810 0.17146 -0.52900
O 	O 	0.57575 0.10630 0.28611 -0.57800
O 	O 	0.61163 0.04990 0.40621 -0.52900
O 	O 	0.70735 0.04080 0.50346 -0.58500
O 	O 	0.70933 0.15940 0.40469 -0.49300
O 	O 	0.68362 0.67910 0.42030 -0.57100
O 	O 	0.55656 0.49390 0.35164 -0.64500
H 	H 	0.55390 0.52040 0.38360 0.34000
