data_crystal

_cell_length_a 21.93810
_cell_length_b 16.71980
_cell_length_c 25.50370
_cell_angle_alpha 90.00000
_cell_angle_beta  115.07400
_cell_angle_gamma 90.00000

_symmetry_space_group_name_	'P 1'
_symmetry_space_group_name_H-M	'P 1'

loop_
_symmetry_equiv_pos_as_xyz
  x,y,z

loop_
_atom_site_label
_atom_site_type_symbol
_atom_site_fract_x
_atom_site_fract_y
_atom_site_fract_z
_atom_site_charge
Ag	Ag	0.84424 0.04367 0.36665 0.50800
Ag	Ag	0.32144 0.24312 0.86622 0.51200
C 	C 	0.59750 0.02820 0.99860 0.10100
C 	C 	0.77630 0.86170 0.00730 -0.12500
H 	H 	0.79700 0.86540 0.04750 0.07000
C 	C 	0.05960 0.19970 0.46740 0.06000
C 	C 	0.29750 0.41720 0.50330 -0.13700
H 	H 	0.31930 0.41410 0.54340 0.08500
C 	C 	0.12300 0.24450 0.49980 0.10000
C 	C 	0.03260 0.19020 0.40880 -0.13600
H 	H 	0.05410 0.21140 0.38740 0.08000
C 	C 	0.50300 0.11470 0.99400 -0.13400
H 	H 	0.52240 0.11600 0.03430 0.08600
C 	C 	0.44340 0.15510 0.96220 0.08500
H 	H 	0.42380 0.18360 0.98240 -0.01200
C 	C 	0.24280 0.26320 0.64900 0.06400
C 	C 	0.68140 0.94760 0.00460 0.09700
C 	C 	0.71970 0.84710 0.89000 0.04500
H 	H 	0.70020 0.84240 0.84990 -0.01700
C 	C 	0.53280 0.07260 0.96470 0.06700
C 	C 	0.23500 0.37910 0.47230 0.06900
C 	C 	0.67860 0.04420 0.17900 -0.13300
H 	H 	0.63460 0.06210 0.15870 0.08100
C 	C 	0.20940 0.27430 0.58530 0.10100
C 	C 	0.71200 0.00800 0.14990 0.05600
C 	C 	0.71420 0.89900 0.97550 0.04600
C 	C 	0.02530 0.16630 0.49700 -0.14500
H 	H 	0.04210 0.17120 0.53700 0.07700
C 	C 	0.23560 0.43530 0.38700 0.08200
H 	H 	0.21440 0.44160 0.34710 -0.00800
C 	C 	0.20390 0.39100 0.41350 -0.13400
H 	H 	0.16160 0.36910 0.39180 0.08500
C 	C 	0.20450 0.32830 0.50250 0.10300
C 	C 	0.67990 0.99790 0.08570 0.09700
C 	C 	0.80620 0.81940 0.97780 0.06300
H 	H 	0.84720 0.79450 0.99920 -0.00600
C 	C 	0.68550 0.89000 0.91640 -0.11900
H 	H 	0.64360 0.91230 0.89410 0.07400
C 	C 	0.32470 0.45860 0.47270 0.09000
H 	H 	0.36720 0.48090 0.49300 -0.01300
C 	C 	0.96730 0.12690 0.46710 0.07200
H 	H 	0.94540 0.10410 0.48770 -0.01800
C 	C 	0.97260 0.14850 0.38140 0.06000
H 	H 	0.95490 0.14140 0.34150 -0.01400
C 	C 	0.80610 0.99490 0.24030 0.07500
H 	H 	0.84990 0.97700 0.26130 -0.02400
C 	C 	0.50110 0.07110 0.90490 -0.13800
H 	H 	0.51830 0.04090 0.88360 0.08000
C 	C 	0.71080 0.05350 0.23780 0.07000
H 	H 	0.68750 0.07720 0.25700 -0.01000
C 	C 	0.24570 0.20620 0.73480 0.08100
H 	H 	0.22710 0.17100 0.75230 -0.02000
C 	C 	0.21450 0.21320 0.67640 -0.14400
H 	H 	0.17510 0.18520 0.65500 0.07400
C 	C 	0.77750 0.98370 0.18160 -0.14500
H 	H 	0.80190 0.96020 0.16340 0.07500
C 	C 	0.44360 0.11540 0.87780 0.08100
H 	H 	0.42460 0.11760 0.83760 -0.00400
C 	C 	0.30220 0.30040 0.68260 -0.14000
H 	H 	0.32490 0.33120 0.66610 0.08400
C 	C 	0.32750 0.29030 0.74230 0.08200
H 	H 	0.36680 0.31760 0.76520 -0.01700
N 	N 	0.93950 0.11850 0.41020 -0.20900
N 	N 	0.29520 0.46950 0.41600 -0.19200
N 	N 	0.30010 0.24530 0.76870 -0.20000
N 	N 	0.15200 0.23450 0.55690 -0.14200
N 	N 	0.14750 0.29040 0.47040 -0.13800
N 	N 	0.23730 0.32290 0.56050 -0.13700
N 	N 	0.41280 0.15570 0.90510 -0.18800
N 	N 	0.77950 0.81250 0.92050 -0.20100
N 	N 	0.77530 0.02970 0.26930 -0.19500
N 	N 	0.62250 0.03720 0.05630 -0.13700
N 	N 	0.62480 0.98690 0.97070 -0.14200
N 	N 	0.71030 0.95080 0.06240 -0.15000
Ag	Ag	0.34424 0.54367 0.36665 0.50900
Ag	Ag	0.82144 0.74312 0.86622 0.51300
C 	C 	0.09750 0.52820 0.99860 0.10400
C 	C 	0.27630 0.36170 0.00730 -0.12800
H 	H 	0.29700 0.36540 0.04750 0.07300
C 	C 	0.55960 0.69970 0.46740 0.06100
C 	C 	0.79750 0.91720 0.50330 -0.13600
H 	H 	0.81930 0.91410 0.54340 0.08600
C 	C 	0.62300 0.74450 0.49980 0.10000
C 	C 	0.53260 0.69020 0.40880 -0.13600
H 	H 	0.55410 0.71140 0.38740 0.08000
C 	C 	0.00300 0.61470 0.99400 -0.12900
H 	H 	0.02240 0.61600 0.03430 0.08400
C 	C 	0.94340 0.65510 0.96220 0.08200
H 	H 	0.92380 0.68360 0.98240 -0.01100
C 	C 	0.74280 0.76320 0.64900 0.06400
C 	C 	0.18140 0.44760 0.00460 0.09500
C 	C 	0.21970 0.34710 0.89000 0.04600
H 	H 	0.20020 0.34240 0.84990 -0.01800
C 	C 	0.03280 0.57260 0.96470 0.06500
C 	C 	0.73500 0.87910 0.47230 0.06900
C 	C 	0.17860 0.54420 0.17900 -0.13300
H 	H 	0.13460 0.56210 0.15870 0.08100
C 	C 	0.70940 0.77430 0.58530 0.10100
C 	C 	0.21200 0.50800 0.14990 0.05600
C 	C 	0.21420 0.39900 0.97550 0.04900
C 	C 	0.52530 0.66630 0.49700 -0.14500
H 	H 	0.54210 0.67120 0.53700 0.07600
C 	C 	0.73560 0.93530 0.38700 0.08200
H 	H 	0.71440 0.94160 0.34710 -0.00800
C 	C 	0.70390 0.89100 0.41350 -0.13400
H 	H 	0.66160 0.86910 0.39180 0.08500
C 	C 	0.70450 0.82830 0.50250 0.10300
C 	C 	0.17990 0.49790 0.08570 0.09700
C 	C 	0.30620 0.31940 0.97780 0.06600
H 	H 	0.34720 0.29450 0.99920 -0.00600
C 	C 	0.18550 0.39000 0.91640 -0.12100
H 	H 	0.14360 0.41230 0.89410 0.07500
C 	C 	0.82470 0.95860 0.47270 0.09000
H 	H 	0.86720 0.98090 0.49300 -0.01300
C 	C 	0.46730 0.62690 0.46710 0.07200
H 	H 	0.44540 0.60410 0.48770 -0.01800
C 	C 	0.47260 0.64850 0.38140 0.05900
H 	H 	0.45490 0.64140 0.34150 -0.01400
C 	C 	0.30610 0.49490 0.24030 0.07500
H 	H 	0.34990 0.47700 0.26130 -0.02400
C 	C 	0.00110 0.57110 0.90490 -0.13500
H 	H 	0.01830 0.54090 0.88360 0.07900
C 	C 	0.21080 0.55350 0.23780 0.07000
H 	H 	0.18750 0.57720 0.25700 -0.01000
C 	C 	0.74570 0.70620 0.73480 0.08100
H 	H 	0.72710 0.67100 0.75230 -0.02000
C 	C 	0.71450 0.71320 0.67640 -0.14400
H 	H 	0.67510 0.68520 0.65500 0.07400
C 	C 	0.27750 0.48370 0.18160 -0.14500
H 	H 	0.30190 0.46020 0.16340 0.07500
C 	C 	0.94360 0.61540 0.87780 0.07900
H 	H 	0.92460 0.61760 0.83760 -0.00400
C 	C 	0.80220 0.80040 0.68260 -0.14000
H 	H 	0.82490 0.83120 0.66610 0.08400
C 	C 	0.82750 0.79030 0.74230 0.08200
H 	H 	0.86680 0.81760 0.76520 -0.01700
N 	N 	0.43950 0.61850 0.41020 -0.20900
N 	N 	0.79520 0.96950 0.41600 -0.19200
N 	N 	0.80010 0.74530 0.76870 -0.20000
N 	N 	0.65200 0.73450 0.55690 -0.14200
N 	N 	0.64750 0.79040 0.47040 -0.13800
N 	N 	0.73730 0.82290 0.56050 -0.13700
N 	N 	0.91280 0.65570 0.90510 -0.18700
N 	N 	0.27950 0.31250 0.92050 -0.20100
N 	N 	0.27530 0.52970 0.26930 -0.19500
N 	N 	0.12250 0.53720 0.05630 -0.13800
N 	N 	0.12480 0.48690 0.97070 -0.14200
N 	N 	0.21030 0.45080 0.06240 -0.15000
Ag	Ag	0.15576 0.04367 0.13335 0.50900
Ag	Ag	0.67856 0.24312 0.63378 0.51300
C 	C 	0.40250 0.02820 0.50140 0.10300
C 	C 	0.22370 0.86170 0.49270 -0.12600
H 	H 	0.20300 0.86540 0.45250 0.07200
C 	C 	0.94040 0.19970 0.03260 0.05800
C 	C 	0.70250 0.41720 0.99670 -0.13900
H 	H 	0.68070 0.41410 0.95660 0.08700
C 	C 	0.87700 0.24450 0.00020 0.10100
C 	C 	0.96740 0.19020 0.09120 -0.13300
H 	H 	0.94590 0.21140 0.11260 0.07900
C 	C 	0.49700 0.11470 0.50600 -0.13300
H 	H 	0.47760 0.11600 0.46570 0.08600
C 	C 	0.55660 0.15510 0.53780 0.08500
H 	H 	0.57620 0.18360 0.51760 -0.01200
C 	C 	0.75720 0.26320 0.85100 0.06400
C 	C 	0.31860 0.94760 0.49540 0.09600
C 	C 	0.28030 0.84710 0.61000 0.04600
H 	H 	0.29980 0.84240 0.65010 -0.01700
C 	C 	0.46720 0.07260 0.53530 0.06700
C 	C 	0.76500 0.37910 0.02770 0.07200
C 	C 	0.32140 0.04420 0.32100 -0.13300
H 	H 	0.36540 0.06210 0.34130 0.08100
C 	C 	0.79060 0.27430 0.91470 0.10100
C 	C 	0.28800 0.00800 0.35010 0.05600
C 	C 	0.28580 0.89900 0.52450 0.04700
C 	C 	0.97470 0.16630 0.00300 -0.14000
H 	H 	0.95790 0.17120 0.96300 0.07400
C 	C 	0.76440 0.43530 0.11300 0.08200
H 	H 	0.78560 0.44160 0.15290 -0.00800
C 	C 	0.79610 0.39100 0.08650 -0.13500
H 	H 	0.83840 0.36910 0.10820 0.08500
C 	C 	0.79550 0.32830 0.99750 0.10200
C 	C 	0.32010 0.99790 0.41430 0.09700
C 	C 	0.19380 0.81940 0.52220 0.06400
H 	H 	0.15280 0.79450 0.50080 -0.00600
C 	C 	0.31450 0.89000 0.58360 -0.12000
H 	H 	0.35640 0.91230 0.60590 0.07400
C 	C 	0.67530 0.45860 0.02730 0.09200
H 	H 	0.63280 0.48090 0.00700 -0.01400
C 	C 	0.03270 0.12690 0.03290 0.06800
H 	H 	0.05460 0.10410 0.01230 -0.01700
C 	C 	0.02740 0.14850 0.11860 0.05700
H 	H 	0.04510 0.14140 0.15850 -0.01300
C 	C 	0.19390 0.99490 0.25970 0.07500
H 	H 	0.15010 0.97700 0.23870 -0.02400
C 	C 	0.49890 0.07110 0.59510 -0.13800
H 	H 	0.48170 0.04090 0.61640 0.08000
C 	C 	0.28920 0.05350 0.26220 0.07000
H 	H 	0.31250 0.07720 0.24300 -0.01000
C 	C 	0.75430 0.20620 0.76520 0.08100
H 	H 	0.77290 0.17100 0.74770 -0.02000
C 	C 	0.78550 0.21320 0.82360 -0.14400
H 	H 	0.82490 0.18520 0.84500 0.07400
C 	C 	0.22250 0.98370 0.31840 -0.14500
H 	H 	0.19810 0.96020 0.33660 0.07500
C 	C 	0.55640 0.11540 0.62220 0.08100
H 	H 	0.57540 0.11760 0.66240 -0.00400
C 	C 	0.69780 0.30040 0.81740 -0.14000
H 	H 	0.67510 0.33120 0.83390 0.08400
C 	C 	0.67250 0.29030 0.75770 0.08200
H 	H 	0.63320 0.31760 0.73480 -0.01700
N 	N 	0.06050 0.11850 0.08980 -0.20800
N 	N 	0.70480 0.46950 0.08400 -0.19300
N 	N 	0.69990 0.24530 0.73130 -0.20000
N 	N 	0.84800 0.23450 0.94310 -0.14200
N 	N 	0.85250 0.29040 0.02960 -0.13800
N 	N 	0.76270 0.32290 0.93950 -0.13700
N 	N 	0.58720 0.15570 0.59490 -0.18800
N 	N 	0.22050 0.81250 0.57950 -0.20100
N 	N 	0.22470 0.02970 0.23070 -0.19500
N 	N 	0.37750 0.03720 0.44370 -0.13700
N 	N 	0.37520 0.98690 0.52930 -0.14200
N 	N 	0.28970 0.95080 0.43760 -0.15000
Ag	Ag	0.65576 0.54367 0.13335 0.50900
Ag	Ag	0.17856 0.74312 0.63378 0.51300
C 	C 	0.90250 0.52820 0.50140 0.10300
C 	C 	0.72370 0.36170 0.49270 -0.12600
H 	H 	0.70300 0.36540 0.45250 0.07200
C 	C 	0.44040 0.69970 0.03260 0.06100
C 	C 	0.20250 0.91720 0.99670 -0.13400
H 	H 	0.18070 0.91410 0.95660 0.08500
C 	C 	0.37700 0.74450 0.00020 0.09900
C 	C 	0.46740 0.69020 0.09120 -0.13600
H 	H 	0.44590 0.71140 0.11260 0.08000
C 	C 	0.99700 0.61470 0.50600 -0.13400
H 	H 	0.97760 0.61600 0.46570 0.08600
C 	C 	0.05660 0.65510 0.53780 0.08500
H 	H 	0.07620 0.68360 0.51760 -0.01200
C 	C 	0.25720 0.76320 0.85100 0.06400
C 	C 	0.81860 0.44760 0.49540 0.09600
C 	C 	0.78030 0.34710 0.61000 0.04500
H 	H 	0.79980 0.34240 0.65010 -0.01700
C 	C 	0.96720 0.57260 0.53530 0.06700
C 	C 	0.26500 0.87910 0.02770 0.06700
C 	C 	0.82140 0.54420 0.32100 -0.13300
H 	H 	0.86540 0.56210 0.34130 0.08100
C 	C 	0.29060 0.77430 0.91470 0.10100
C 	C 	0.78800 0.50800 0.35010 0.05600
C 	C 	0.78580 0.39900 0.52450 0.04700
C 	C 	0.47470 0.66630 0.00300 -0.14500
H 	H 	0.45790 0.67120 0.96300 0.07700
C 	C 	0.26440 0.93530 0.11300 0.08100
H 	H 	0.28560 0.94160 0.15290 -0.00800
C 	C 	0.29610 0.89100 0.08650 -0.13200
H 	H 	0.33840 0.86910 0.10820 0.08400
C 	C 	0.29550 0.82830 0.99750 0.10400
C 	C 	0.82010 0.49790 0.41430 0.09700
C 	C 	0.69380 0.31940 0.52220 0.06400
H 	H 	0.65280 0.29450 0.50080 -0.00600
C 	C 	0.81450 0.39000 0.58360 -0.12000
H 	H 	0.85640 0.41230 0.60590 0.07400
C 	C 	0.17530 0.95860 0.02730 0.08900
H 	H 	0.13280 0.98090 0.00700 -0.01300
C 	C 	0.53270 0.62690 0.03290 0.07200
H 	H 	0.55460 0.60410 0.01230 -0.01800
C 	C 	0.52740 0.64850 0.11860 0.06000
H 	H 	0.54510 0.64140 0.15850 -0.01400
C 	C 	0.69390 0.49490 0.25970 0.07500
H 	H 	0.65010 0.47700 0.23870 -0.02400
C 	C 	0.99890 0.57110 0.59510 -0.13800
H 	H 	0.98170 0.54090 0.61640 0.08000
C 	C 	0.78920 0.55350 0.26220 0.07000
H 	H 	0.81250 0.57720 0.24300 -0.01000
C 	C 	0.25430 0.70620 0.76520 0.08100
H 	H 	0.27290 0.67100 0.74770 -0.02000
C 	C 	0.28550 0.71320 0.82360 -0.14400
H 	H 	0.32490 0.68520 0.84500 0.07400
C 	C 	0.72250 0.48370 0.31840 -0.14500
H 	H 	0.69810 0.46020 0.33660 0.07500
C 	C 	0.05640 0.61540 0.62220 0.08200
H 	H 	0.07540 0.61760 0.66240 -0.00500
C 	C 	0.19780 0.80040 0.81740 -0.14000
H 	H 	0.17510 0.83120 0.83390 0.08400
C 	C 	0.17250 0.79030 0.75770 0.08200
H 	H 	0.13320 0.81760 0.73480 -0.01700
N 	N 	0.56050 0.61850 0.08980 -0.20900
N 	N 	0.20480 0.96950 0.08400 -0.19200
N 	N 	0.19990 0.74530 0.73130 -0.20000
N 	N 	0.34800 0.73450 0.94310 -0.14200
N 	N 	0.35250 0.79040 0.02960 -0.13900
N 	N 	0.26270 0.82290 0.93950 -0.13700
N 	N 	0.08720 0.65570 0.59490 -0.18800
N 	N 	0.72050 0.31250 0.57950 -0.20100
N 	N 	0.72470 0.52970 0.23070 -0.19500
N 	N 	0.87750 0.53720 0.44370 -0.13700
N 	N 	0.87520 0.48690 0.52930 -0.14200
N 	N 	0.78970 0.45080 0.43760 -0.15000
Ag	Ag	0.15576 0.95633 0.63335 0.50900
Ag	Ag	0.67856 0.75688 0.13378 0.51300
C 	C 	0.40250 0.97180 0.00140 0.10200
C 	C 	0.22370 0.13830 0.99270 -0.12400
H 	H 	0.20300 0.13460 0.95250 0.07100
C 	C 	0.94040 0.80030 0.53260 0.06100
C 	C 	0.70250 0.58280 0.49670 -0.13600
H 	H 	0.68070 0.58590 0.45660 0.08600
C 	C 	0.87700 0.75550 0.50020 0.10000
C 	C 	0.96740 0.80980 0.59120 -0.13600
H 	H 	0.94590 0.78860 0.61260 0.08000
C 	C 	0.49700 0.88530 0.00600 -0.13400
H 	H 	0.47760 0.88400 0.96570 0.08600
C 	C 	0.55660 0.84490 0.03780 0.08500
H 	H 	0.57620 0.81640 0.01760 -0.01200
C 	C 	0.75720 0.73680 0.35100 0.06400
C 	C 	0.31860 0.05240 0.99540 0.09700
C 	C 	0.28030 0.15290 0.11000 0.04500
H 	H 	0.29980 0.15760 0.15010 -0.01700
C 	C 	0.46720 0.92740 0.03530 0.06700
C 	C 	0.76500 0.62090 0.52770 0.06900
C 	C 	0.32140 0.95580 0.82100 -0.13300
H 	H 	0.36540 0.93790 0.84130 0.08100
C 	C 	0.79060 0.72570 0.41470 0.10100
C 	C 	0.28800 0.99200 0.85010 0.05600
C 	C 	0.28580 0.10100 0.02450 0.04600
C 	C 	0.97470 0.83370 0.50300 -0.14500
H 	H 	0.95790 0.82880 0.46300 0.07700
C 	C 	0.76440 0.56470 0.61300 0.08200
H 	H 	0.78560 0.55840 0.65290 -0.00800
C 	C 	0.79610 0.60900 0.58650 -0.13400
H 	H 	0.83840 0.63090 0.60820 0.08500
C 	C 	0.79550 0.67170 0.49750 0.10300
C 	C 	0.32010 0.00210 0.91430 0.09700
C 	C 	0.19380 0.18060 0.02220 0.06300
H 	H 	0.15280 0.20550 0.00080 -0.00600
C 	C 	0.31450 0.11000 0.08360 -0.11900
H 	H 	0.35640 0.08770 0.10590 0.07400
C 	C 	0.67530 0.54140 0.52730 0.09000
H 	H 	0.63280 0.51910 0.50700 -0.01300
C 	C 	0.03270 0.87310 0.53290 0.07200
H 	H 	0.05460 0.89590 0.51230 -0.01800
C 	C 	0.02740 0.85150 0.61860 0.06000
H 	H 	0.04510 0.85860 0.65850 -0.01400
C 	C 	0.19390 0.00510 0.75970 0.07500
H 	H 	0.15010 0.02300 0.73870 -0.02400
C 	C 	0.49890 0.92890 0.09510 -0.13800
H 	H 	0.48170 0.95910 0.11640 0.08000
C 	C 	0.28920 0.94650 0.76220 0.07000
H 	H 	0.31250 0.92280 0.74300 -0.01000
C 	C 	0.75430 0.79380 0.26520 0.08100
H 	H 	0.77290 0.82900 0.24770 -0.02000
C 	C 	0.78550 0.78680 0.32360 -0.14400
H 	H 	0.82490 0.81480 0.34500 0.07400
C 	C 	0.22250 0.01630 0.81840 -0.14500
H 	H 	0.19810 0.03980 0.83660 0.07500
C 	C 	0.55640 0.88460 0.12220 0.08100
H 	H 	0.57540 0.88240 0.16240 -0.00400
C 	C 	0.69780 0.69960 0.31740 -0.14000
H 	H 	0.67510 0.66880 0.33390 0.08400
C 	C 	0.67250 0.70970 0.25770 0.08200
H 	H 	0.63320 0.68240 0.23480 -0.01700
N 	N 	0.06050 0.88150 0.58980 -0.20900
N 	N 	0.70480 0.53050 0.58400 -0.19200
N 	N 	0.69990 0.75470 0.23130 -0.20000
N 	N 	0.84800 0.76550 0.44310 -0.14200
N 	N 	0.85250 0.70960 0.52960 -0.13800
N 	N 	0.76270 0.67710 0.43950 -0.13700
N 	N 	0.58720 0.84430 0.09490 -0.18800
N 	N 	0.22050 0.18750 0.07950 -0.20100
N 	N 	0.22470 0.97030 0.73070 -0.19500
N 	N 	0.37750 0.96280 0.94370 -0.13700
N 	N 	0.37520 0.01310 0.02930 -0.14200
N 	N 	0.28970 0.04920 0.93760 -0.15000
Ag	Ag	0.65576 0.45633 0.63335 0.50900
Ag	Ag	0.17856 0.25688 0.13378 0.51300
C 	C 	0.90250 0.47180 0.00140 0.10400
C 	C 	0.72370 0.63830 0.99270 -0.12800
H 	H 	0.70300 0.63460 0.95250 0.07300
C 	C 	0.44040 0.30030 0.53260 0.06100
C 	C 	0.20250 0.08280 0.49670 -0.13600
H 	H 	0.18070 0.08590 0.45660 0.08600
C 	C 	0.37700 0.25550 0.50020 0.10000
C 	C 	0.46740 0.30980 0.59120 -0.13600
H 	H 	0.44590 0.28860 0.61260 0.08000
C 	C 	0.99700 0.38530 0.00600 -0.12900
H 	H 	0.97760 0.38400 0.96570 0.08400
C 	C 	0.05660 0.34490 0.03780 0.08200
H 	H 	0.07620 0.31640 0.01760 -0.01100
C 	C 	0.25720 0.23680 0.35100 0.06400
C 	C 	0.81860 0.55240 0.99540 0.09500
C 	C 	0.78030 0.65290 0.11000 0.04600
H 	H 	0.79980 0.65760 0.15010 -0.01800
C 	C 	0.96720 0.42740 0.03530 0.06500
C 	C 	0.26500 0.12090 0.52770 0.06900
C 	C 	0.82140 0.45580 0.82100 -0.13300
H 	H 	0.86540 0.43790 0.84130 0.08100
C 	C 	0.29060 0.22570 0.41470 0.10100
C 	C 	0.78800 0.49200 0.85010 0.05600
C 	C 	0.78580 0.60100 0.02450 0.04900
C 	C 	0.47470 0.33370 0.50300 -0.14500
H 	H 	0.45790 0.32880 0.46300 0.07600
C 	C 	0.26440 0.06470 0.61300 0.08200
H 	H 	0.28560 0.05840 0.65290 -0.00800
C 	C 	0.29610 0.10900 0.58650 -0.13400
H 	H 	0.33840 0.13090 0.60820 0.08500
C 	C 	0.29550 0.17170 0.49750 0.10300
C 	C 	0.82010 0.50210 0.91430 0.09700
C 	C 	0.69380 0.68060 0.02220 0.06600
H 	H 	0.65280 0.70550 0.00080 -0.00600
C 	C 	0.81450 0.61000 0.08360 -0.12100
H 	H 	0.85640 0.58770 0.10590 0.07500
C 	C 	0.17530 0.04140 0.52730 0.09000
H 	H 	0.13280 0.01910 0.50700 -0.01300
C 	C 	0.53270 0.37310 0.53290 0.07200
H 	H 	0.55460 0.39590 0.51230 -0.01800
C 	C 	0.52740 0.35150 0.61860 0.05900
H 	H 	0.54510 0.35860 0.65850 -0.01400
C 	C 	0.69390 0.50510 0.75970 0.07500
H 	H 	0.65010 0.52300 0.73870 -0.02400
C 	C 	0.99890 0.42890 0.09510 -0.13500
H 	H 	0.98170 0.45910 0.11640 0.07900
C 	C 	0.78920 0.44650 0.76220 0.07000
H 	H 	0.81250 0.42280 0.74300 -0.01000
C 	C 	0.25430 0.29380 0.26520 0.08100
H 	H 	0.27290 0.32900 0.24770 -0.02000
C 	C 	0.28550 0.28680 0.32360 -0.14400
H 	H 	0.32490 0.31480 0.34500 0.07400
C 	C 	0.72250 0.51630 0.81840 -0.14500
H 	H 	0.69810 0.53980 0.83660 0.07500
C 	C 	0.05640 0.38460 0.12220 0.07900
H 	H 	0.07540 0.38240 0.16240 -0.00400
C 	C 	0.19780 0.19960 0.31740 -0.14000
H 	H 	0.17510 0.16880 0.33390 0.08400
C 	C 	0.17250 0.20970 0.25770 0.08200
H 	H 	0.13320 0.18240 0.23480 -0.01700
N 	N 	0.56050 0.38150 0.58980 -0.20900
N 	N 	0.20480 0.03050 0.58400 -0.19200
N 	N 	0.19990 0.25470 0.23130 -0.20000
N 	N 	0.34800 0.26550 0.44310 -0.14200
N 	N 	0.35250 0.20960 0.52960 -0.13800
N 	N 	0.26270 0.17710 0.43950 -0.13700
N 	N 	0.08720 0.34430 0.09490 -0.18700
N 	N 	0.72050 0.68750 0.07950 -0.20100
N 	N 	0.72470 0.47030 0.73070 -0.19500
N 	N 	0.87750 0.46280 0.94370 -0.13800
N 	N 	0.87520 0.51310 0.02930 -0.14200
N 	N 	0.78970 0.54920 0.93760 -0.15000
Ag	Ag	0.84424 0.95633 0.86665 0.50900
Ag	Ag	0.32144 0.75688 0.36622 0.51300
C 	C 	0.59750 0.97180 0.49860 0.10300
C 	C 	0.77630 0.13830 0.50730 -0.12600
H 	H 	0.79700 0.13460 0.54750 0.07200
C 	C 	0.05960 0.80030 0.96740 0.05800
C 	C 	0.29750 0.58280 0.00330 -0.13900
H 	H 	0.31930 0.58590 0.04340 0.08700
C 	C 	0.12300 0.75550 0.99980 0.10100
C 	C 	0.03260 0.80980 0.90880 -0.13300
H 	H 	0.05410 0.78860 0.88740 0.07900
C 	C 	0.50300 0.88530 0.49400 -0.13300
H 	H 	0.52240 0.88400 0.53430 0.08600
C 	C 	0.44340 0.84490 0.46220 0.08500
H 	H 	0.42380 0.81640 0.48240 -0.01200
C 	C 	0.24280 0.73680 0.14900 0.06400
C 	C 	0.68140 0.05240 0.50460 0.09600
C 	C 	0.71970 0.15290 0.39000 0.04600
H 	H 	0.70020 0.15760 0.34990 -0.01700
C 	C 	0.53280 0.92740 0.46470 0.06700
C 	C 	0.23500 0.62090 0.97230 0.07200
C 	C 	0.67860 0.95580 0.67900 -0.13300
H 	H 	0.63460 0.93790 0.65870 0.08100
C 	C 	0.20940 0.72570 0.08530 0.10100
C 	C 	0.71200 0.99200 0.64990 0.05600
C 	C 	0.71420 0.10100 0.47550 0.04700
C 	C 	0.02530 0.83370 0.99700 -0.14000
H 	H 	0.04210 0.82880 0.03700 0.07400
C 	C 	0.23560 0.56470 0.88700 0.08200
H 	H 	0.21440 0.55840 0.84710 -0.00800
C 	C 	0.20390 0.60900 0.91350 -0.13500
H 	H 	0.16160 0.63090 0.89180 0.08500
C 	C 	0.20450 0.67170 0.00250 0.10200
C 	C 	0.67990 0.00210 0.58570 0.09700
C 	C 	0.80620 0.18060 0.47780 0.06400
H 	H 	0.84720 0.20550 0.49920 -0.00600
C 	C 	0.68550 0.11000 0.41640 -0.12000
H 	H 	0.64360 0.08770 0.39410 0.07400
C 	C 	0.32470 0.54140 0.97270 0.09200
H 	H 	0.36720 0.51910 0.99300 -0.01400
C 	C 	0.96730 0.87310 0.96710 0.06800
H 	H 	0.94540 0.89590 0.98770 -0.01700
C 	C 	0.97260 0.85150 0.88140 0.05700
H 	H 	0.95490 0.85860 0.84150 -0.01300
C 	C 	0.80610 0.00510 0.74030 0.07500
H 	H 	0.84990 0.02300 0.76130 -0.02400
C 	C 	0.50110 0.92890 0.40490 -0.13800
H 	H 	0.51830 0.95910 0.38360 0.08000
C 	C 	0.71080 0.94650 0.73780 0.07000
H 	H 	0.68750 0.92280 0.75700 -0.01000
C 	C 	0.24570 0.79380 0.23480 0.08100
H 	H 	0.22710 0.82900 0.25230 -0.02000
C 	C 	0.21450 0.78680 0.17640 -0.14400
H 	H 	0.17510 0.81480 0.15500 0.07400
C 	C 	0.77750 0.01630 0.68160 -0.14500
H 	H 	0.80190 0.03980 0.66340 0.07500
C 	C 	0.44360 0.88460 0.37780 0.08100
H 	H 	0.42460 0.88240 0.33760 -0.00400
C 	C 	0.30220 0.69960 0.18260 -0.14000
H 	H 	0.32490 0.66880 0.16610 0.08400
C 	C 	0.32750 0.70970 0.24230 0.08200
H 	H 	0.36680 0.68240 0.26520 -0.01700
N 	N 	0.93950 0.88150 0.91020 -0.20800
N 	N 	0.29520 0.53050 0.91600 -0.19300
N 	N 	0.30010 0.75470 0.26870 -0.20000
N 	N 	0.15200 0.76550 0.05690 -0.14200
N 	N 	0.14750 0.70960 0.97040 -0.13800
N 	N 	0.23730 0.67710 0.06050 -0.13700
N 	N 	0.41280 0.84430 0.40510 -0.18800
N 	N 	0.77950 0.18750 0.42050 -0.20100
N 	N 	0.77530 0.97030 0.76930 -0.19500
N 	N 	0.62250 0.96280 0.55630 -0.13700
N 	N 	0.62480 0.01310 0.47070 -0.14200
N 	N 	0.71030 0.04920 0.56240 -0.15000
Ag	Ag	0.34424 0.45633 0.86665 0.50900
Ag	Ag	0.82144 0.25688 0.36622 0.51300
C 	C 	0.09750 0.47180 0.49860 0.10300
C 	C 	0.27630 0.63830 0.50730 -0.12600
H 	H 	0.29700 0.63460 0.54750 0.07200
C 	C 	0.55960 0.30030 0.96740 0.06100
C 	C 	0.79750 0.08280 0.00330 -0.13400
H 	H 	0.81930 0.08590 0.04340 0.08500
C 	C 	0.62300 0.25550 0.99980 0.09900
C 	C 	0.53260 0.30980 0.90880 -0.13600
H 	H 	0.55410 0.28860 0.88740 0.08000
C 	C 	0.00300 0.38530 0.49400 -0.13400
H 	H 	0.02240 0.38400 0.53430 0.08600
C 	C 	0.94340 0.34490 0.46220 0.08500
H 	H 	0.92380 0.31640 0.48240 -0.01200
C 	C 	0.74280 0.23680 0.14900 0.06400
C 	C 	0.18140 0.55240 0.50460 0.09600
C 	C 	0.21970 0.65290 0.39000 0.04500
H 	H 	0.20020 0.65760 0.34990 -0.01700
C 	C 	0.03280 0.42740 0.46470 0.06700
C 	C 	0.73500 0.12090 0.97230 0.06700
C 	C 	0.17860 0.45580 0.67900 -0.13300
H 	H 	0.13460 0.43790 0.65870 0.08100
C 	C 	0.70940 0.22570 0.08530 0.10100
C 	C 	0.21200 0.49200 0.64990 0.05600
C 	C 	0.21420 0.60100 0.47550 0.04700
C 	C 	0.52530 0.33370 0.99700 -0.14500
H 	H 	0.54210 0.32880 0.03700 0.07700
C 	C 	0.73560 0.06470 0.88700 0.08100
H 	H 	0.71440 0.05840 0.84710 -0.00800
C 	C 	0.70390 0.10900 0.91350 -0.13200
H 	H 	0.66160 0.13090 0.89180 0.08400
C 	C 	0.70450 0.17170 0.00250 0.10400
C 	C 	0.17990 0.50210 0.58570 0.09700
C 	C 	0.30620 0.68060 0.47780 0.06400
H 	H 	0.34720 0.70550 0.49920 -0.00600
C 	C 	0.18550 0.61000 0.41640 -0.12000
H 	H 	0.14360 0.58770 0.39410 0.07400
C 	C 	0.82470 0.04140 0.97270 0.08900
H 	H 	0.86720 0.01910 0.99300 -0.01300
C 	C 	0.46730 0.37310 0.96710 0.07200
H 	H 	0.44540 0.39590 0.98770 -0.01800
C 	C 	0.47260 0.35150 0.88140 0.06000
H 	H 	0.45490 0.35860 0.84150 -0.01400
C 	C 	0.30610 0.50510 0.74030 0.07500
H 	H 	0.34990 0.52300 0.76130 -0.02400
C 	C 	0.00110 0.42890 0.40490 -0.13800
H 	H 	0.01830 0.45910 0.38360 0.08000
C 	C 	0.21080 0.44650 0.73780 0.07000
H 	H 	0.18750 0.42280 0.75700 -0.01000
C 	C 	0.74570 0.29380 0.23480 0.08100
H 	H 	0.72710 0.32900 0.25230 -0.02000
C 	C 	0.71450 0.28680 0.17640 -0.14400
H 	H 	0.67510 0.31480 0.15500 0.07400
C 	C 	0.27750 0.51630 0.68160 -0.14500
H 	H 	0.30190 0.53980 0.66340 0.07500
C 	C 	0.94360 0.38460 0.37780 0.08200
H 	H 	0.92460 0.38240 0.33760 -0.00500
C 	C 	0.80220 0.19960 0.18260 -0.14000
H 	H 	0.82490 0.16880 0.16610 0.08400
C 	C 	0.82750 0.20970 0.24230 0.08200
H 	H 	0.86680 0.18240 0.26520 -0.01700
N 	N 	0.43950 0.38150 0.91020 -0.20900
N 	N 	0.79520 0.03050 0.91600 -0.19200
N 	N 	0.80010 0.25470 0.26870 -0.20000
N 	N 	0.65200 0.26550 0.05690 -0.14200
N 	N 	0.64750 0.20960 0.97040 -0.13900
N 	N 	0.73730 0.17710 0.06050 -0.13700
N 	N 	0.91280 0.34430 0.40510 -0.18800
N 	N 	0.27950 0.68750 0.42050 -0.20100
N 	N 	0.27530 0.47030 0.76930 -0.19500
N 	N 	0.12250 0.46280 0.55630 -0.13700
N 	N 	0.12480 0.51310 0.47070 -0.14200
N 	N 	0.21030 0.54920 0.56240 -0.15000
