data_crystal

_cell_length_a 21.93020
_cell_length_b 16.77950
_cell_length_c 25.48800
_cell_angle_alpha 90.00000
_cell_angle_beta  115.02900
_cell_angle_gamma 90.00000

_symmetry_space_group_name_	'P 1'
_symmetry_space_group_name_H-M	'P 1'

loop_
_symmetry_equiv_pos_as_xyz
  x,y,z

loop_
_atom_site_label
_atom_site_type_symbol
_atom_site_fract_x
_atom_site_fract_y
_atom_site_fract_z
_atom_site_charge
Ag	Ag	0.34423 0.45588 0.36631 0.50900
Ag	Ag	0.32111 0.75773 0.86597 0.51200
C 	C 	0.59760 0.97180 0.99860 0.10000
C 	C 	0.03240 0.80910 0.40820 -0.13700
H 	H 	0.05370 0.78780 0.38670 0.07900
C 	C 	0.77620 0.13870 0.00700 -0.12400
H 	H 	0.79690 0.13470 0.04720 0.07000
C 	C 	0.05970 0.79950 0.46710 0.05800
C 	C 	0.29730 0.58330 0.50290 -0.13200
H 	H 	0.31940 0.58730 0.54300 0.08300
C 	C 	0.12280 0.75560 0.49930 0.09700
C 	C 	0.50350 0.88570 0.99390 -0.13500
H 	H 	0.52320 0.88410 0.03410 0.08600
C 	C 	0.53260 0.92790 0.96440 0.06700
C 	C 	0.68150 0.05240 0.00440 0.09400
C 	C 	0.20930 0.72510 0.58510 0.10100
C 	C 	0.71370 0.10170 0.97500 0.04600
C 	C 	0.71960 0.15250 0.88980 0.04600
H 	H 	0.70030 0.15640 0.84970 -0.01800
C 	C 	0.44350 0.84500 0.96200 0.08300
H 	H 	0.42410 0.81610 0.98220 -0.01100
C 	C 	0.71170 0.99170 0.15000 0.05800
C 	C 	0.23480 0.62080 0.47200 0.06700
C 	C 	0.23570 0.56450 0.38670 0.07800
H 	H 	0.21470 0.55860 0.34670 -0.00700
C 	C 	0.24260 0.73630 0.64880 0.06300
C 	C 	0.67870 0.95540 0.17920 -0.13600
H 	H 	0.63490 0.93710 0.15890 0.08200
C 	C 	0.02490 0.83420 0.49660 -0.14500
H 	H 	0.04190 0.83080 0.53670 0.07600
C 	C 	0.80630 0.18120 0.97760 0.06100
H 	H 	0.84720 0.20630 0.99890 -0.00500
C 	C 	0.67940 0.00250 0.08480 0.09700
C 	C 	0.20410 0.60930 0.41330 -0.13000
H 	H 	0.16200 0.63150 0.39140 0.08300
C 	C 	0.20470 0.67120 0.50200 0.10300
C 	C 	0.68550 0.11050 0.91620 -0.12200
H 	H 	0.64360 0.08840 0.89390 0.07500
C 	C 	0.32490 0.54090 0.47250 0.08600
H 	H 	0.36720 0.51870 0.49290 -0.01200
C 	C 	0.50110 0.92860 0.90450 -0.13700
H 	H 	0.51890 0.95790 0.88330 0.08000
C 	C 	0.97250 0.85100 0.38090 0.06200
H 	H 	0.95490 0.85830 0.34100 -0.01400
C 	C 	0.80590 0.00460 0.24030 0.07100
H 	H 	0.84950 0.02310 0.26140 -0.02300
C 	C 	0.21350 0.78600 0.67560 -0.14100
H 	H 	0.17380 0.81310 0.65410 0.07400
C 	C 	0.96680 0.87230 0.46600 0.07500
H 	H 	0.94430 0.89450 0.48630 -0.02000
C 	C 	0.71070 0.94630 0.23790 0.07300
H 	H 	0.68730 0.92290 0.25690 -0.01000
C 	C 	0.24520 0.79370 0.73460 0.07500
H 	H 	0.22660 0.82840 0.75220 -0.01900
C 	C 	0.44310 0.88540 0.87700 0.08000
H 	H 	0.42380 0.88380 0.83670 -0.00400
C 	C 	0.77740 0.01520 0.18080 -0.14400
H 	H 	0.80200 0.03740 0.16230 0.07500
C 	C 	0.30200 0.69980 0.68200 -0.14100
H 	H 	0.32450 0.66880 0.66540 0.08400
C 	C 	0.32780 0.71080 0.74180 0.08400
H 	H 	0.36760 0.68450 0.76470 -0.01700
N 	N 	0.29510 0.52950 0.41580 -0.19000
N 	N 	0.93940 0.88070 0.40940 -0.21000
N 	N 	0.30040 0.75510 0.76800 -0.19800
N 	N 	0.23680 0.67730 0.56000 -0.13700
N 	N 	0.14760 0.70950 0.46970 -0.13700
N 	N 	0.15230 0.76550 0.55660 -0.14100
N 	N 	0.77920 0.18760 0.92010 -0.20000
N 	N 	0.41270 0.84530 0.90480 -0.18600
N 	N 	0.77510 0.96980 0.26950 -0.19500
N 	N 	0.62490 0.01350 0.97050 -0.14200
N 	N 	0.71070 0.04900 0.06250 -0.15000
N 	N 	0.62230 0.96230 0.05610 -0.13800
Ag	Ag	0.84423 0.95588 0.36631 0.51000
Ag	Ag	0.82111 0.25773 0.86597 0.51300
C 	C 	0.09760 0.47180 0.99860 0.10300
C 	C 	0.53240 0.30910 0.40820 -0.13600
H 	H 	0.55370 0.28780 0.38670 0.08000
C 	C 	0.27620 0.63870 0.00700 -0.12700
H 	H 	0.29690 0.63470 0.04720 0.07200
C 	C 	0.55970 0.29950 0.46710 0.05900
C 	C 	0.79730 0.08330 0.50290 -0.13100
H 	H 	0.81940 0.08730 0.54300 0.08400
C 	C 	0.62280 0.25560 0.49930 0.09800
C 	C 	0.00350 0.38570 0.99390 -0.12900
H 	H 	0.02320 0.38410 0.03410 0.08400
C 	C 	0.03260 0.42790 0.96440 0.06500
C 	C 	0.18150 0.55240 0.00440 0.09300
C 	C 	0.70930 0.22510 0.58510 0.10200
C 	C 	0.21370 0.60170 0.97500 0.05000
C 	C 	0.21960 0.65250 0.88980 0.04900
H 	H 	0.20030 0.65640 0.84970 -0.01800
C 	C 	0.94350 0.34500 0.96200 0.07900
H 	H 	0.92410 0.31610 0.98220 -0.01000
C 	C 	0.21170 0.49170 0.15000 0.05800
C 	C 	0.73480 0.12080 0.47200 0.06700
C 	C 	0.73570 0.06450 0.38670 0.07800
H 	H 	0.71470 0.05860 0.34670 -0.00700
C 	C 	0.74260 0.23630 0.64880 0.06300
C 	C 	0.17870 0.45540 0.17920 -0.13600
H 	H 	0.13490 0.43710 0.15890 0.08200
C 	C 	0.52490 0.33420 0.49660 -0.14500
H 	H 	0.54190 0.33080 0.53670 0.07600
C 	C 	0.30630 0.68120 0.97760 0.06400
H 	H 	0.34720 0.70630 0.99890 -0.00600
C 	C 	0.17940 0.50250 0.08480 0.09800
C 	C 	0.70410 0.10930 0.41330 -0.13000
H 	H 	0.66200 0.13150 0.39140 0.08300
C 	C 	0.70470 0.17120 0.50200 0.10300
C 	C 	0.18550 0.61050 0.91620 -0.12400
H 	H 	0.14360 0.58840 0.89390 0.07500
C 	C 	0.82490 0.04090 0.47250 0.08600
H 	H 	0.86720 0.01870 0.49290 -0.01200
C 	C 	0.00110 0.42860 0.90450 -0.13400
H 	H 	0.01890 0.45790 0.88330 0.07900
C 	C 	0.47250 0.35100 0.38090 0.06200
H 	H 	0.45490 0.35830 0.34100 -0.01400
C 	C 	0.30590 0.50460 0.24030 0.07100
H 	H 	0.34950 0.52310 0.26140 -0.02300
C 	C 	0.71350 0.28600 0.67560 -0.14100
H 	H 	0.67380 0.31310 0.65410 0.07400
C 	C 	0.46680 0.37230 0.46600 0.07400
H 	H 	0.44430 0.39450 0.48630 -0.02000
C 	C 	0.21070 0.44630 0.23790 0.07200
H 	H 	0.18730 0.42290 0.25690 -0.01000
C 	C 	0.74520 0.29370 0.73460 0.07500
H 	H 	0.72660 0.32840 0.75220 -0.01900
C 	C 	0.94310 0.38540 0.87700 0.07800
H 	H 	0.92380 0.38380 0.83670 -0.00300
C 	C 	0.27740 0.51520 0.18080 -0.14400
H 	H 	0.30200 0.53740 0.16230 0.07500
C 	C 	0.80200 0.19980 0.68200 -0.14100
H 	H 	0.82450 0.16880 0.66540 0.08400
C 	C 	0.82780 0.21080 0.74180 0.08400
H 	H 	0.86760 0.18450 0.76470 -0.01800
N 	N 	0.79510 0.02950 0.41580 -0.19000
N 	N 	0.43940 0.38070 0.40940 -0.21000
N 	N 	0.80040 0.25510 0.76800 -0.19800
N 	N 	0.73680 0.17730 0.56000 -0.13700
N 	N 	0.64760 0.20950 0.46970 -0.13700
N 	N 	0.65230 0.26550 0.55660 -0.14100
N 	N 	0.27920 0.68760 0.92010 -0.20100
N 	N 	0.91270 0.34530 0.90480 -0.18500
N 	N 	0.27510 0.46980 0.26950 -0.19500
N 	N 	0.12490 0.51350 0.97050 -0.14200
N 	N 	0.21070 0.54900 0.06250 -0.15000
N 	N 	0.12230 0.46230 0.05610 -0.13800
Ag	Ag	0.65577 0.45588 0.13369 0.51000
Ag	Ag	0.67889 0.75773 0.63403 0.51300
C 	C 	0.40240 0.97180 0.50140 0.10200
C 	C 	0.96760 0.80910 0.09180 -0.13300
H 	H 	0.94630 0.78780 0.11330 0.07900
C 	C 	0.22380 0.13870 0.49300 -0.12400
H 	H 	0.20310 0.13470 0.45280 0.07100
C 	C 	0.94030 0.79950 0.03290 0.05600
C 	C 	0.70270 0.58330 0.99710 -0.13400
H 	H 	0.68060 0.58730 0.95700 0.08500
C 	C 	0.87720 0.75560 0.00070 0.09900
C 	C 	0.49650 0.88570 0.50610 -0.13300
H 	H 	0.47680 0.88410 0.46590 0.08600
C 	C 	0.46740 0.92790 0.53560 0.06700
C 	C 	0.31850 0.05240 0.49560 0.09500
C 	C 	0.79070 0.72510 0.91490 0.10200
C 	C 	0.28630 0.10170 0.52500 0.04800
C 	C 	0.28040 0.15250 0.61020 0.04800
H 	H 	0.29970 0.15640 0.65030 -0.01800
C 	C 	0.55650 0.84500 0.53800 0.08200
H 	H 	0.57590 0.81610 0.51780 -0.01100
C 	C 	0.28830 0.99170 0.35000 0.05800
C 	C 	0.76520 0.62080 0.02800 0.06900
C 	C 	0.76430 0.56450 0.11330 0.07900
H 	H 	0.78530 0.55860 0.15330 -0.00700
C 	C 	0.75740 0.73630 0.85120 0.06400
C 	C 	0.32130 0.95540 0.32080 -0.13600
H 	H 	0.36510 0.93710 0.34110 0.08200
C 	C 	0.97510 0.83420 0.00340 -0.14000
H 	H 	0.95810 0.83080 0.96330 0.07400
C 	C 	0.19370 0.18120 0.52240 0.06200
H 	H 	0.15280 0.20630 0.50110 -0.00500
C 	C 	0.32060 0.00250 0.41520 0.09800
C 	C 	0.79590 0.60930 0.08670 -0.13100
H 	H 	0.83800 0.63150 0.10860 0.08400
C 	C 	0.79530 0.67120 0.99800 0.10100
C 	C 	0.31450 0.11050 0.58380 -0.12200
H 	H 	0.35640 0.08840 0.60610 0.07500
C 	C 	0.67510 0.54090 0.02750 0.08800
H 	H 	0.63280 0.51870 0.00710 -0.01200
C 	C 	0.49890 0.92860 0.59550 -0.13700
H 	H 	0.48110 0.95790 0.61670 0.08000
C 	C 	0.02750 0.85100 0.11910 0.05900
H 	H 	0.04510 0.85830 0.15900 -0.01400
C 	C 	0.19410 0.00460 0.25970 0.07100
H 	H 	0.15050 0.02310 0.23860 -0.02300
C 	C 	0.78650 0.78600 0.82440 -0.14100
H 	H 	0.82620 0.81310 0.84590 0.07400
C 	C 	0.03320 0.87230 0.03400 0.07100
H 	H 	0.05570 0.89450 0.01370 -0.01900
C 	C 	0.28930 0.94630 0.26210 0.07200
H 	H 	0.31270 0.92290 0.24310 -0.01000
C 	C 	0.75480 0.79370 0.76540 0.07500
H 	H 	0.77340 0.82840 0.74780 -0.01900
C 	C 	0.55690 0.88540 0.62300 0.08000
H 	H 	0.57620 0.88380 0.66330 -0.00400
C 	C 	0.22260 0.01520 0.31920 -0.14400
H 	H 	0.19800 0.03740 0.33770 0.07500
C 	C 	0.69800 0.69980 0.81800 -0.14100
H 	H 	0.67550 0.66880 0.83460 0.08400
C 	C 	0.67220 0.71080 0.75820 0.08400
H 	H 	0.63240 0.68450 0.73530 -0.01700
N 	N 	0.70490 0.52950 0.08420 -0.19100
N 	N 	0.06060 0.88070 0.09060 -0.20900
N 	N 	0.69960 0.75510 0.73200 -0.19800
N 	N 	0.76320 0.67730 0.94000 -0.13700
N 	N 	0.85240 0.70950 0.03030 -0.13700
N 	N 	0.84770 0.76550 0.94340 -0.14200
N 	N 	0.22080 0.18760 0.57990 -0.20000
N 	N 	0.58730 0.84530 0.59520 -0.18600
N 	N 	0.22490 0.96980 0.23050 -0.19500
N 	N 	0.37510 0.01350 0.52950 -0.14200
N 	N 	0.28930 0.04900 0.43750 -0.15000
N 	N 	0.37770 0.96230 0.44390 -0.13800
Ag	Ag	0.15577 0.95588 0.13369 0.51000
Ag	Ag	0.17889 0.25773 0.63403 0.51300
C 	C 	0.90240 0.47180 0.50140 0.10200
C 	C 	0.46760 0.30910 0.09180 -0.13600
H 	H 	0.44630 0.28780 0.11330 0.08000
C 	C 	0.72380 0.63870 0.49300 -0.12400
H 	H 	0.70310 0.63470 0.45280 0.07100
C 	C 	0.44030 0.29950 0.03290 0.05900
C 	C 	0.20270 0.08330 0.99710 -0.12900
H 	H 	0.18060 0.08730 0.95700 0.08300
C 	C 	0.37720 0.25560 0.00070 0.09700
C 	C 	0.99650 0.38570 0.50610 -0.13300
H 	H 	0.97680 0.38410 0.46590 0.08700
C 	C 	0.96740 0.42790 0.53560 0.06800
C 	C 	0.81850 0.55240 0.49560 0.09500
C 	C 	0.29070 0.22510 0.91490 0.10200
C 	C 	0.78630 0.60170 0.52500 0.04800
C 	C 	0.78040 0.65250 0.61020 0.04800
H 	H 	0.79970 0.65640 0.65030 -0.01800
C 	C 	0.05650 0.34500 0.53800 0.08200
H 	H 	0.07590 0.31610 0.51780 -0.01100
C 	C 	0.78830 0.49170 0.35000 0.05800
C 	C 	0.26520 0.12080 0.02800 0.06500
C 	C 	0.26430 0.06450 0.11330 0.07700
H 	H 	0.28530 0.05860 0.15330 -0.00600
C 	C 	0.25740 0.23630 0.85120 0.06400
C 	C 	0.82130 0.45540 0.32080 -0.13600
H 	H 	0.86510 0.43710 0.34110 0.08200
C 	C 	0.47510 0.33420 0.00340 -0.14500
H 	H 	0.45810 0.33080 0.96330 0.07600
C 	C 	0.69370 0.68120 0.52240 0.06200
H 	H 	0.65280 0.70630 0.50110 -0.00500
C 	C 	0.82060 0.50250 0.41520 0.09800
C 	C 	0.29590 0.10930 0.08670 -0.12900
H 	H 	0.33800 0.13150 0.10860 0.08300
C 	C 	0.29530 0.17120 0.99800 0.10400
C 	C 	0.81450 0.61050 0.58380 -0.12200
H 	H 	0.85640 0.58840 0.60610 0.07500
C 	C 	0.17510 0.04090 0.02750 0.08400
H 	H 	0.13280 0.01870 0.00710 -0.01200
C 	C 	0.99890 0.42860 0.59550 -0.13700
H 	H 	0.98110 0.45790 0.61670 0.08000
C 	C 	0.52750 0.35100 0.11910 0.06200
H 	H 	0.54510 0.35830 0.15900 -0.01400
C 	C 	0.69410 0.50460 0.25970 0.07100
H 	H 	0.65050 0.52310 0.23860 -0.02300
C 	C 	0.28650 0.28600 0.82440 -0.14100
H 	H 	0.32620 0.31310 0.84590 0.07400
C 	C 	0.53320 0.37230 0.03400 0.07500
H 	H 	0.55570 0.39450 0.01370 -0.02000
C 	C 	0.78930 0.44630 0.26210 0.07200
H 	H 	0.81270 0.42290 0.24310 -0.01000
C 	C 	0.25480 0.29370 0.76540 0.07500
H 	H 	0.27340 0.32840 0.74780 -0.01900
C 	C 	0.05690 0.38540 0.62300 0.08000
H 	H 	0.07620 0.38380 0.66330 -0.00400
C 	C 	0.72260 0.51520 0.31920 -0.14400
H 	H 	0.69800 0.53740 0.33770 0.07500
C 	C 	0.19800 0.19980 0.81800 -0.14100
H 	H 	0.17550 0.16880 0.83460 0.08400
C 	C 	0.17220 0.21080 0.75820 0.08400
H 	H 	0.13240 0.18450 0.73530 -0.01700
N 	N 	0.20490 0.02950 0.08420 -0.19000
N 	N 	0.56060 0.38070 0.09060 -0.21000
N 	N 	0.19960 0.25510 0.73200 -0.19800
N 	N 	0.26320 0.17730 0.94000 -0.13800
N 	N 	0.35240 0.20950 0.03030 -0.13700
N 	N 	0.34770 0.26550 0.94340 -0.14100
N 	N 	0.72080 0.68760 0.57990 -0.20000
N 	N 	0.08730 0.34530 0.59520 -0.18600
N 	N 	0.72490 0.46980 0.23050 -0.19500
N 	N 	0.87510 0.51350 0.52950 -0.14200
N 	N 	0.78930 0.54900 0.43750 -0.15000
N 	N 	0.87770 0.46230 0.44390 -0.13800
Ag	Ag	0.65577 0.54412 0.63369 0.51000
Ag	Ag	0.67889 0.24227 0.13403 0.51300
C 	C 	0.40240 0.02820 0.00140 0.10100
C 	C 	0.96760 0.19090 0.59180 -0.13600
H 	H 	0.94630 0.21220 0.61330 0.08000
C 	C 	0.22380 0.86130 0.99300 -0.12300
H 	H 	0.20310 0.86530 0.95280 0.07100
C 	C 	0.94030 0.20050 0.53290 0.05900
C 	C 	0.70270 0.41670 0.49710 -0.13100
H 	H 	0.68060 0.41270 0.45700 0.08400
C 	C 	0.87720 0.24440 0.50070 0.09800
C 	C 	0.49650 0.11430 0.00610 -0.13400
H 	H 	0.47680 0.11590 0.96590 0.08700
C 	C 	0.46740 0.07210 0.03560 0.06800
C 	C 	0.31850 0.94760 0.99560 0.09500
C 	C 	0.79070 0.27490 0.41490 0.10200
C 	C 	0.28630 0.89830 0.02500 0.04700
C 	C 	0.28040 0.84750 0.11020 0.04700
H 	H 	0.29970 0.84360 0.15030 -0.01800
C 	C 	0.55650 0.15500 0.03800 0.08300
H 	H 	0.57590 0.18390 0.01780 -0.01100
C 	C 	0.28830 0.00830 0.85000 0.05800
C 	C 	0.76520 0.37920 0.52800 0.06700
C 	C 	0.76430 0.43550 0.61330 0.07800
H 	H 	0.78530 0.44140 0.65330 -0.00700
C 	C 	0.75740 0.26370 0.35120 0.06300
C 	C 	0.32130 0.04460 0.82080 -0.13600
H 	H 	0.36510 0.06290 0.84110 0.08200
C 	C 	0.97510 0.16580 0.50340 -0.14500
H 	H 	0.95810 0.16920 0.46330 0.07600
C 	C 	0.19370 0.81880 0.02240 0.06100
H 	H 	0.15280 0.79370 0.00110 -0.00500
C 	C 	0.32060 0.99750 0.91520 0.09700
C 	C 	0.79590 0.39070 0.58670 -0.13000
H 	H 	0.83800 0.36850 0.60860 0.08300
C 	C 	0.79530 0.32880 0.49800 0.10300
C 	C 	0.31450 0.88950 0.08380 -0.12200
H 	H 	0.35640 0.91160 0.10610 0.07500
C 	C 	0.67510 0.45910 0.52750 0.08600
H 	H 	0.63280 0.48130 0.50710 -0.01200
C 	C 	0.49890 0.07140 0.09550 -0.13700
H 	H 	0.48110 0.04210 0.11670 0.08000
C 	C 	0.02750 0.14900 0.61910 0.06200
H 	H 	0.04510 0.14170 0.65900 -0.01400
C 	C 	0.19410 0.99540 0.75970 0.07100
H 	H 	0.15050 0.97690 0.73860 -0.02300
C 	C 	0.78650 0.21400 0.32440 -0.14100
H 	H 	0.82620 0.18690 0.34590 0.07400
C 	C 	0.03320 0.12770 0.53400 0.07500
H 	H 	0.05570 0.10550 0.51370 -0.02000
C 	C 	0.28930 0.05370 0.76210 0.07300
H 	H 	0.31270 0.07710 0.74310 -0.01000
C 	C 	0.75480 0.20630 0.26540 0.07500
H 	H 	0.77340 0.17160 0.24780 -0.01900
C 	C 	0.55690 0.11460 0.12300 0.08000
H 	H 	0.57620 0.11620 0.16330 -0.00400
C 	C 	0.22260 0.98480 0.81920 -0.14400
H 	H 	0.19800 0.96260 0.83770 0.07500
C 	C 	0.69800 0.30020 0.31800 -0.14100
H 	H 	0.67550 0.33120 0.33460 0.08400
C 	C 	0.67220 0.28920 0.25820 0.08400
H 	H 	0.63240 0.31550 0.23530 -0.01700
N 	N 	0.70490 0.47050 0.58420 -0.19000
N 	N 	0.06060 0.11930 0.59060 -0.21000
N 	N 	0.69960 0.24490 0.23200 -0.19800
N 	N 	0.76320 0.32270 0.44000 -0.13700
N 	N 	0.85240 0.29050 0.53030 -0.13700
N 	N 	0.84770 0.23450 0.44340 -0.14100
N 	N 	0.22080 0.81240 0.07990 -0.20000
N 	N 	0.58730 0.15470 0.09520 -0.18600
N 	N 	0.22490 0.03020 0.73050 -0.19500
N 	N 	0.37510 0.98650 0.02950 -0.14200
N 	N 	0.28930 0.95100 0.93750 -0.15000
N 	N 	0.37770 0.03770 0.94390 -0.13800
Ag	Ag	0.15577 0.04412 0.63369 0.51000
Ag	Ag	0.17889 0.74227 0.13403 0.51300
C 	C 	0.90240 0.52820 0.00140 0.10300
C 	C 	0.46760 0.69090 0.59180 -0.13600
H 	H 	0.44630 0.71220 0.61330 0.08000
C 	C 	0.72380 0.36130 0.99300 -0.12700
H 	H 	0.70310 0.36530 0.95280 0.07200
C 	C 	0.44030 0.70050 0.53290 0.05900
C 	C 	0.20270 0.91670 0.49710 -0.13100
H 	H 	0.18060 0.91270 0.45700 0.08400
C 	C 	0.37720 0.74440 0.50070 0.09800
C 	C 	0.99650 0.61430 0.00610 -0.12900
H 	H 	0.97680 0.61590 0.96590 0.08400
C 	C 	0.96740 0.57210 0.03560 0.06500
C 	C 	0.81850 0.44760 0.99560 0.09300
C 	C 	0.29070 0.77490 0.41490 0.10200
C 	C 	0.78630 0.39830 0.02500 0.05000
C 	C 	0.78040 0.34750 0.11020 0.04900
H 	H 	0.79970 0.34360 0.15030 -0.01800
C 	C 	0.05650 0.65500 0.03800 0.07900
H 	H 	0.07590 0.68390 0.01780 -0.01000
C 	C 	0.78830 0.50830 0.85000 0.05800
C 	C 	0.26520 0.87920 0.52800 0.06700
C 	C 	0.26430 0.93550 0.61330 0.07800
H 	H 	0.28530 0.94140 0.65330 -0.00700
C 	C 	0.25740 0.76370 0.35120 0.06300
C 	C 	0.82130 0.54460 0.82080 -0.13600
H 	H 	0.86510 0.56290 0.84110 0.08200
C 	C 	0.47510 0.66580 0.50340 -0.14500
H 	H 	0.45810 0.66920 0.46330 0.07600
C 	C 	0.69370 0.31880 0.02240 0.06400
H 	H 	0.65280 0.29370 0.00110 -0.00600
C 	C 	0.82060 0.49750 0.91520 0.09800
C 	C 	0.29590 0.89070 0.58670 -0.13000
H 	H 	0.33800 0.86850 0.60860 0.08300
C 	C 	0.29530 0.82880 0.49800 0.10300
C 	C 	0.81450 0.38950 0.08380 -0.12400
H 	H 	0.85640 0.41160 0.10610 0.07500
C 	C 	0.17510 0.95910 0.52750 0.08600
H 	H 	0.13280 0.98130 0.50710 -0.01200
C 	C 	0.99890 0.57140 0.09550 -0.13400
H 	H 	0.98110 0.54210 0.11670 0.07900
C 	C 	0.52750 0.64900 0.61910 0.06200
H 	H 	0.54510 0.64170 0.65900 -0.01400
C 	C 	0.69410 0.49540 0.75970 0.07100
H 	H 	0.65050 0.47690 0.73860 -0.02300
C 	C 	0.28650 0.71400 0.32440 -0.14100
H 	H 	0.32620 0.68690 0.34590 0.07400
C 	C 	0.53320 0.62770 0.53400 0.07400
H 	H 	0.55570 0.60550 0.51370 -0.02000
C 	C 	0.78930 0.55370 0.76210 0.07200
H 	H 	0.81270 0.57710 0.74310 -0.01000
C 	C 	0.25480 0.70630 0.26540 0.07500
H 	H 	0.27340 0.67160 0.24780 -0.01900
C 	C 	0.05690 0.61460 0.12300 0.07800
H 	H 	0.07620 0.61620 0.16330 -0.00300
C 	C 	0.72260 0.48480 0.81920 -0.14400
H 	H 	0.69800 0.46260 0.83770 0.07500
C 	C 	0.19800 0.80020 0.31800 -0.14100
H 	H 	0.17550 0.83120 0.33460 0.08400
C 	C 	0.17220 0.78920 0.25820 0.08400
H 	H 	0.13240 0.81550 0.23530 -0.01800
N 	N 	0.20490 0.97050 0.58420 -0.19000
N 	N 	0.56060 0.61930 0.59060 -0.21000
N 	N 	0.19960 0.74490 0.23200 -0.19800
N 	N 	0.26320 0.82270 0.44000 -0.13700
N 	N 	0.35240 0.79050 0.53030 -0.13700
N 	N 	0.34770 0.73450 0.44340 -0.14100
N 	N 	0.72080 0.31240 0.07990 -0.20100
N 	N 	0.08730 0.65470 0.09520 -0.18500
N 	N 	0.72490 0.53020 0.73050 -0.19500
N 	N 	0.87510 0.48650 0.02950 -0.14200
N 	N 	0.78930 0.45100 0.93750 -0.15000
N 	N 	0.87770 0.53770 0.94390 -0.13800
Ag	Ag	0.34423 0.54412 0.86631 0.51000
Ag	Ag	0.32111 0.24227 0.36597 0.51300
C 	C 	0.59760 0.02820 0.49860 0.10200
C 	C 	0.03240 0.19090 0.90820 -0.13300
H 	H 	0.05370 0.21220 0.88670 0.07900
C 	C 	0.77620 0.86130 0.50700 -0.12400
H 	H 	0.79690 0.86530 0.54720 0.07100
C 	C 	0.05970 0.20050 0.96710 0.05600
C 	C 	0.29730 0.41670 0.00290 -0.13400
H 	H 	0.31940 0.41270 0.04300 0.08500
C 	C 	0.12280 0.24440 0.99930 0.09900
C 	C 	0.50350 0.11430 0.49390 -0.13300
H 	H 	0.52320 0.11590 0.53410 0.08600
C 	C 	0.53260 0.07210 0.46440 0.06700
C 	C 	0.68150 0.94760 0.50440 0.09500
C 	C 	0.20930 0.27490 0.08510 0.10200
C 	C 	0.71370 0.89830 0.47500 0.04800
C 	C 	0.71960 0.84750 0.38980 0.04800
H 	H 	0.70030 0.84360 0.34970 -0.01800
C 	C 	0.44350 0.15500 0.46200 0.08200
H 	H 	0.42410 0.18390 0.48220 -0.01100
C 	C 	0.71170 0.00830 0.65000 0.05800
C 	C 	0.23480 0.37920 0.97200 0.06900
C 	C 	0.23570 0.43550 0.88670 0.07900
H 	H 	0.21470 0.44140 0.84670 -0.00700
C 	C 	0.24260 0.26370 0.14880 0.06400
C 	C 	0.67870 0.04460 0.67920 -0.13600
H 	H 	0.63490 0.06290 0.65890 0.08200
C 	C 	0.02490 0.16580 0.99660 -0.14000
H 	H 	0.04190 0.16920 0.03670 0.07400
C 	C 	0.80630 0.81880 0.47760 0.06200
H 	H 	0.84720 0.79370 0.49890 -0.00500
C 	C 	0.67940 0.99750 0.58480 0.09800
C 	C 	0.20410 0.39070 0.91330 -0.13100
H 	H 	0.16200 0.36850 0.89140 0.08400
C 	C 	0.20470 0.32880 0.00200 0.10100
C 	C 	0.68550 0.88950 0.41620 -0.12200
H 	H 	0.64360 0.91160 0.39390 0.07500
C 	C 	0.32490 0.45910 0.97250 0.08800
H 	H 	0.36720 0.48130 0.99290 -0.01200
C 	C 	0.50110 0.07140 0.40450 -0.13700
H 	H 	0.51890 0.04210 0.38330 0.08000
C 	C 	0.97250 0.14900 0.88090 0.05900
H 	H 	0.95490 0.14170 0.84100 -0.01400
C 	C 	0.80590 0.99540 0.74030 0.07100
H 	H 	0.84950 0.97690 0.76140 -0.02300
C 	C 	0.21350 0.21400 0.17560 -0.14100
H 	H 	0.17380 0.18690 0.15410 0.07400
C 	C 	0.96680 0.12770 0.96600 0.07100
H 	H 	0.94430 0.10550 0.98630 -0.01900
C 	C 	0.71070 0.05370 0.73790 0.07200
H 	H 	0.68730 0.07710 0.75690 -0.01000
C 	C 	0.24520 0.20630 0.23460 0.07500
H 	H 	0.22660 0.17160 0.25220 -0.01900
C 	C 	0.44310 0.11460 0.37700 0.08000
H 	H 	0.42380 0.11620 0.33670 -0.00400
C 	C 	0.77740 0.98480 0.68080 -0.14400
H 	H 	0.80200 0.96260 0.66230 0.07500
C 	C 	0.30200 0.30020 0.18200 -0.14100
H 	H 	0.32450 0.33120 0.16540 0.08400
C 	C 	0.32780 0.28920 0.24180 0.08400
H 	H 	0.36760 0.31550 0.26470 -0.01700
N 	N 	0.29510 0.47050 0.91580 -0.19100
N 	N 	0.93940 0.11930 0.90940 -0.20900
N 	N 	0.30040 0.24490 0.26800 -0.19800
N 	N 	0.23680 0.32270 0.06000 -0.13700
N 	N 	0.14760 0.29050 0.96970 -0.13700
N 	N 	0.15230 0.23450 0.05660 -0.14200
N 	N 	0.77920 0.81240 0.42010 -0.20000
N 	N 	0.41270 0.15470 0.40480 -0.18600
N 	N 	0.77510 0.03020 0.76950 -0.19500
N 	N 	0.62490 0.98650 0.47050 -0.14200
N 	N 	0.71070 0.95100 0.56250 -0.15000
N 	N 	0.62230 0.03770 0.55610 -0.13800
Ag	Ag	0.84423 0.04412 0.86631 0.51000
Ag	Ag	0.82111 0.74227 0.36597 0.51300
C 	C 	0.09760 0.52820 0.49860 0.10200
C 	C 	0.53240 0.69090 0.90820 -0.13600
H 	H 	0.55370 0.71220 0.88670 0.08000
C 	C 	0.27620 0.36130 0.50700 -0.12400
H 	H 	0.29690 0.36530 0.54720 0.07100
C 	C 	0.55970 0.70050 0.96710 0.05900
C 	C 	0.79730 0.91670 0.00290 -0.12900
H 	H 	0.81940 0.91270 0.04300 0.08300
C 	C 	0.62280 0.74440 0.99930 0.09700
C 	C 	0.00350 0.61430 0.49390 -0.13300
H 	H 	0.02320 0.61590 0.53410 0.08700
C 	C 	0.03260 0.57210 0.46440 0.06800
C 	C 	0.18150 0.44760 0.50440 0.09500
C 	C 	0.70930 0.77490 0.08510 0.10200
C 	C 	0.21370 0.39830 0.47500 0.04800
C 	C 	0.21960 0.34750 0.38980 0.04800
H 	H 	0.20030 0.34360 0.34970 -0.01800
C 	C 	0.94350 0.65500 0.46200 0.08200
H 	H 	0.92410 0.68390 0.48220 -0.01100
C 	C 	0.21170 0.50830 0.65000 0.05800
C 	C 	0.73480 0.87920 0.97200 0.06500
C 	C 	0.73570 0.93550 0.88670 0.07700
H 	H 	0.71470 0.94140 0.84670 -0.00600
C 	C 	0.74260 0.76370 0.14880 0.06400
C 	C 	0.17870 0.54460 0.67920 -0.13600
H 	H 	0.13490 0.56290 0.65890 0.08200
C 	C 	0.52490 0.66580 0.99660 -0.14500
H 	H 	0.54190 0.66920 0.03670 0.07600
C 	C 	0.30630 0.31880 0.47760 0.06200
H 	H 	0.34720 0.29370 0.49890 -0.00500
C 	C 	0.17940 0.49750 0.58480 0.09800
C 	C 	0.70410 0.89070 0.91330 -0.12900
H 	H 	0.66200 0.86850 0.89140 0.08300
C 	C 	0.70470 0.82880 0.00200 0.10400
C 	C 	0.18550 0.38950 0.41620 -0.12200
H 	H 	0.14360 0.41160 0.39390 0.07500
C 	C 	0.82490 0.95910 0.97250 0.08400
H 	H 	0.86720 0.98130 0.99290 -0.01200
C 	C 	0.00110 0.57140 0.40450 -0.13700
H 	H 	0.01890 0.54210 0.38330 0.08000
C 	C 	0.47250 0.64900 0.88090 0.06200
H 	H 	0.45490 0.64170 0.84100 -0.01400
C 	C 	0.30590 0.49540 0.74030 0.07100
H 	H 	0.34950 0.47690 0.76140 -0.02300
C 	C 	0.71350 0.71400 0.17560 -0.14100
H 	H 	0.67380 0.68690 0.15410 0.07400
C 	C 	0.46680 0.62770 0.96600 0.07500
H 	H 	0.44430 0.60550 0.98630 -0.02000
C 	C 	0.21070 0.55370 0.73790 0.07200
H 	H 	0.18730 0.57710 0.75690 -0.01000
C 	C 	0.74520 0.70630 0.23460 0.07500
H 	H 	0.72660 0.67160 0.25220 -0.01900
C 	C 	0.94310 0.61460 0.37700 0.08000
H 	H 	0.92380 0.61620 0.33670 -0.00400
C 	C 	0.27740 0.48480 0.68080 -0.14400
H 	H 	0.30200 0.46260 0.66230 0.07500
C 	C 	0.80200 0.80020 0.18200 -0.14100
H 	H 	0.82450 0.83120 0.16540 0.08400
C 	C 	0.82780 0.78920 0.24180 0.08400
H 	H 	0.86760 0.81550 0.26470 -0.01700
N 	N 	0.79510 0.97050 0.91580 -0.19000
N 	N 	0.43940 0.61930 0.90940 -0.21000
N 	N 	0.80040 0.74490 0.26800 -0.19800
N 	N 	0.73680 0.82270 0.06000 -0.13800
N 	N 	0.64760 0.79050 0.96970 -0.13700
N 	N 	0.65230 0.73450 0.05660 -0.14100
N 	N 	0.27920 0.31240 0.42010 -0.20000
N 	N 	0.91270 0.65470 0.40480 -0.18600
N 	N 	0.27510 0.53020 0.76950 -0.19500
N 	N 	0.12490 0.48650 0.47050 -0.14200
N 	N 	0.21070 0.45100 0.56250 -0.15000
N 	N 	0.12230 0.53770 0.55610 -0.13800
