data_crystal

_cell_length_a 22.07800
_cell_length_b 16.38170
_cell_length_c 25.63110
_cell_angle_alpha 90.00000
_cell_angle_beta  115.33400
_cell_angle_gamma 90.00000

_symmetry_space_group_name_	'P 1'
_symmetry_space_group_name_H-M	'P 1'

loop_
_symmetry_equiv_pos_as_xyz
  x,y,z

loop_
_atom_site_label
_atom_site_type_symbol
_atom_site_fract_x
_atom_site_fract_y
_atom_site_fract_z
_atom_site_charge
Ag	Ag	0.34412 0.54225 0.36793 0.51100
Ag	Ag	0.32288 0.24792 0.86728 0.51400
C 	C 	0.12410 0.24300 0.50248 0.10200
C 	C 	0.23510 0.43530 0.38860 0.07400
H 	H 	0.21280 0.44250 0.34880 -0.00500
C 	C 	0.03310 0.18730 0.41100 -0.13000
H 	H 	0.05480 0.20800 0.38980 0.07800
C 	C 	0.71980 0.84790 0.89210 0.04100
H 	H 	0.69960 0.84300 0.85210 -0.01500
C 	C 	0.06000 0.19800 0.47024 0.05400
C 	C 	0.59780 0.03020 0.00107 0.10400
C 	C 	0.77840 0.86210 0.00960 -0.10200
H 	H 	0.79950 0.86570 0.04960 0.06500
C 	C 	0.44400 0.15680 0.96510 0.08000
H 	H 	0.42390 0.18440 0.98520 -0.01000
C 	C 	0.02630 0.16420 0.50000 -0.13300
H 	H 	0.04370 0.16860 0.53990 0.07200
C 	C 	0.29800 0.41570 0.50490 -0.12400
H 	H 	0.32040 0.41140 0.54480 0.08200
C 	C 	0.50350 0.11670 0.99630 -0.13300
H 	H 	0.52340 0.11830 0.03650 0.08700
C 	C 	0.24350 0.26250 0.65138 0.05500
C 	C 	0.20970 0.27300 0.58766 0.10300
C 	C 	0.53320 0.07390 0.96689 0.06100
C 	C 	0.20540 0.32760 0.50521 0.10400
C 	C 	0.96700 0.12440 0.46960 0.05800
H 	H 	0.94470 0.10260 0.49010 -0.01300
C 	C 	0.68250 0.94810 0.00698 0.10500
C 	C 	0.67880 0.04470 0.18100 -0.12300
H 	H 	0.63490 0.06290 0.16100 0.07800
C 	C 	0.71580 0.89860 0.97800 0.03100
C 	C 	0.68020 0.99810 0.08838 0.09800
C 	C 	0.32600 0.45940 0.47410 0.07500
H 	H 	0.36800 0.48290 0.49440 -0.00700
C 	C 	0.80750 0.99490 0.24280 0.06400
H 	H 	0.85160 0.97810 0.26360 -0.02000
C 	C 	0.23600 0.37870 0.47480 0.06300
C 	C 	0.20400 0.38990 0.41530 -0.12500
H 	H 	0.16200 0.36700 0.39380 0.08200
C 	C 	0.97340 0.14510 0.38410 0.05500
H 	H 	0.95620 0.13720 0.34440 -0.01200
C 	C 	0.71230 0.00810 0.15180 0.04600
C 	C 	0.80800 0.82060 0.97940 0.04100
H 	H 	0.84950 0.79630 0.00030 0.00500
C 	C 	0.71200 0.05350 0.24070 0.06400
H 	H 	0.68910 0.07720 0.26000 -0.00800
C 	C 	0.30220 0.30250 0.68500 -0.13000
H 	H 	0.32370 0.33510 0.66840 0.08100
C 	C 	0.50250 0.07320 0.90710 -0.12800
H 	H 	0.52100 0.04430 0.88610 0.07700
C 	C 	0.44350 0.11670 0.87930 0.07100
H 	H 	0.42350 0.11730 0.83920 -0.00100
C 	C 	0.24570 0.20460 0.73750 0.06000
H 	H 	0.22690 0.16970 0.75520 -0.01100
C 	C 	0.21530 0.21060 0.67790 -0.12600
H 	H 	0.17690 0.18060 0.65610 0.06700
C 	C 	0.32840 0.29290 0.74440 0.07100
H 	H 	0.36770 0.32060 0.76690 -0.01400
C 	C 	0.68600 0.89070 0.91840 -0.11000
H 	H 	0.64420 0.91370 0.89640 0.07100
C 	C 	0.77840 0.98320 0.18350 -0.13300
H 	H 	0.80240 0.95920 0.16530 0.07200
N 	N 	0.93918 0.11510 0.41217 -0.20700
N 	N 	0.29562 0.46960 0.41668 -0.18800
N 	N 	0.30080 0.24650 0.77124 -0.19300
N 	N 	0.14809 0.28920 0.47259 -0.13900
N 	N 	0.23827 0.32240 0.56291 -0.13700
N 	N 	0.15301 0.23200 0.55938 -0.14300
N 	N 	0.41343 0.15840 0.90725 -0.18300
N 	N 	0.78020 0.81320 0.92145 -0.19600
N 	N 	0.77600 0.02910 0.27182 -0.19300
N 	N 	0.62631 0.98850 0.97299 -0.14400
N 	N 	0.71121 0.95040 0.06458 -0.15000
N 	N 	0.62279 0.03740 0.05894 -0.13700
Ag	Ag	0.84412 0.04225 0.36793 0.51000
Ag	Ag	0.82288 0.74792 0.86728 0.51300
C 	C 	0.62410 0.74300 0.50248 0.10200
C 	C 	0.73510 0.93530 0.38860 0.07400
H 	H 	0.71280 0.94250 0.34880 -0.00500
C 	C 	0.53310 0.68730 0.41100 -0.12900
H 	H 	0.55480 0.70800 0.38980 0.07800
C 	C 	0.21980 0.34790 0.89210 0.04400
H 	H 	0.19960 0.34300 0.85210 -0.01600
C 	C 	0.56000 0.69800 0.47024 0.05400
C 	C 	0.09780 0.53020 0.00107 0.10300
C 	C 	0.27840 0.36210 0.00960 -0.11000
H 	H 	0.29950 0.36570 0.04960 0.06800
C 	C 	0.94400 0.65680 0.96510 0.07800
H 	H 	0.92390 0.68440 0.98520 -0.00900
C 	C 	0.52630 0.66420 0.50000 -0.13300
H 	H 	0.54370 0.66860 0.53990 0.07200
C 	C 	0.79800 0.91570 0.50490 -0.12400
H 	H 	0.82040 0.91140 0.54480 0.08200
C 	C 	0.00350 0.61670 0.99630 -0.12900
H 	H 	0.02340 0.61830 0.03650 0.08500
C 	C 	0.74350 0.76250 0.65138 0.05500
C 	C 	0.70970 0.77300 0.58766 0.10300
C 	C 	0.03320 0.57390 0.96689 0.06000
C 	C 	0.70540 0.82760 0.50521 0.10400
C 	C 	0.46700 0.62440 0.46960 0.05800
H 	H 	0.44470 0.60260 0.49010 -0.01200
C 	C 	0.18250 0.44810 0.00698 0.10200
C 	C 	0.17880 0.54470 0.18100 -0.12300
H 	H 	0.13490 0.56290 0.16100 0.07800
C 	C 	0.21580 0.39860 0.97800 0.03800
C 	C 	0.18020 0.49810 0.08838 0.09700
C 	C 	0.82600 0.95940 0.47410 0.07500
H 	H 	0.86800 0.98290 0.49440 -0.00700
C 	C 	0.30750 0.49490 0.24280 0.06400
H 	H 	0.35160 0.47810 0.26360 -0.02000
C 	C 	0.73600 0.87870 0.47480 0.06400
C 	C 	0.70400 0.88990 0.41530 -0.12500
H 	H 	0.66200 0.86700 0.39380 0.08200
C 	C 	0.47340 0.64510 0.38410 0.05400
H 	H 	0.45620 0.63720 0.34440 -0.01200
C 	C 	0.21230 0.50810 0.15180 0.04700
C 	C 	0.30800 0.32060 0.97940 0.04800
H 	H 	0.34950 0.29630 0.00030 0.00100
C 	C 	0.21200 0.55350 0.24070 0.06400
H 	H 	0.18910 0.57720 0.26000 -0.00800
C 	C 	0.80220 0.80250 0.68500 -0.13000
H 	H 	0.82370 0.83510 0.66840 0.08100
C 	C 	0.00250 0.57320 0.90710 -0.12600
H 	H 	0.02100 0.54430 0.88610 0.07700
C 	C 	0.94350 0.61670 0.87930 0.07000
H 	H 	0.92350 0.61730 0.83920 -0.00000
C 	C 	0.74570 0.70460 0.73750 0.06000
H 	H 	0.72690 0.66970 0.75520 -0.01100
C 	C 	0.71530 0.71060 0.67790 -0.12600
H 	H 	0.67690 0.68060 0.65610 0.06700
C 	C 	0.82840 0.79290 0.74440 0.07100
H 	H 	0.86770 0.82060 0.76690 -0.01400
C 	C 	0.18600 0.39070 0.91840 -0.11400
H 	H 	0.14420 0.41370 0.89640 0.07200
C 	C 	0.27840 0.48320 0.18350 -0.13400
H 	H 	0.30240 0.45920 0.16530 0.07200
N 	N 	0.43918 0.61510 0.41217 -0.20700
N 	N 	0.79562 0.96960 0.41668 -0.18800
N 	N 	0.80080 0.74650 0.77124 -0.19300
N 	N 	0.64809 0.78920 0.47259 -0.13900
N 	N 	0.73827 0.82240 0.56291 -0.13700
N 	N 	0.65301 0.73200 0.55938 -0.14300
N 	N 	0.91343 0.65840 0.90725 -0.18200
N 	N 	0.28020 0.31320 0.92145 -0.19800
N 	N 	0.27600 0.52910 0.27182 -0.19300
N 	N 	0.12631 0.48850 0.97299 -0.14300
N 	N 	0.21121 0.45040 0.06458 -0.14900
N 	N 	0.12279 0.53740 0.05894 -0.13700
Ag	Ag	0.65588 0.54225 0.13207 0.51000
Ag	Ag	0.67712 0.24792 0.63272 0.51400
C 	C 	0.87590 0.24300 0.99752 0.09700
C 	C 	0.76490 0.43530 0.11140 0.07900
H 	H 	0.78720 0.44250 0.15120 -0.00600
C 	C 	0.96690 0.18730 0.08900 -0.12700
H 	H 	0.94520 0.20800 0.11020 0.07800
C 	C 	0.28020 0.84790 0.60790 0.04700
H 	H 	0.30040 0.84300 0.64790 -0.01700
C 	C 	0.94000 0.19800 0.02976 0.05300
C 	C 	0.40220 0.03020 0.49893 0.10000
C 	C 	0.22160 0.86210 0.49040 -0.12200
H 	H 	0.20050 0.86570 0.45040 0.07200
C 	C 	0.55600 0.15680 0.53490 0.07800
H 	H 	0.57610 0.18440 0.51480 -0.00800
C 	C 	0.97370 0.16420 -0.00000 -0.12300
H 	H 	0.95630 0.16860 0.96010 0.06700
C 	C 	0.70200 0.41570 0.99510 -0.13900
H 	H 	0.67960 0.41140 0.95520 0.08700
C 	C 	0.49650 0.11670 0.50370 -0.12800
H 	H 	0.47660 0.11830 0.46350 0.08400
C 	C 	0.75650 0.26250 0.84862 0.05500
C 	C 	0.79030 0.27300 0.91234 0.10200
C 	C 	0.46680 0.07390 0.53311 0.06200
C 	C 	0.79460 0.32760 0.99479 0.09600
C 	C 	0.03300 0.12440 0.03040 0.05200
H 	H 	0.05530 0.10260 0.00990 -0.01000
C 	C 	0.31750 0.94810 0.49302 0.09700
C 	C 	0.32120 0.04470 0.31900 -0.12300
H 	H 	0.36510 0.06290 0.33900 0.07800
C 	C 	0.28420 0.89860 0.52200 0.04600
C 	C 	0.31980 0.99810 0.41162 0.09700
C 	C 	0.67400 0.45940 0.02590 0.08500
H 	H 	0.63200 0.48290 0.00560 -0.01000
C 	C 	0.19250 0.99490 0.25720 0.06400
H 	H 	0.14840 0.97810 0.23640 -0.02000
C 	C 	0.76400 0.37870 0.02520 0.07600
C 	C 	0.79600 0.38990 0.08470 -0.13200
H 	H 	0.83800 0.36700 0.10620 0.08500
C 	C 	0.02660 0.14510 0.11590 0.05200
H 	H 	0.04380 0.13720 0.15560 -0.01200
C 	C 	0.28770 0.00810 0.34820 0.04700
C 	C 	0.19200 0.82060 0.52060 0.05900
H 	H 	0.15050 0.79630 0.49970 -0.00400
C 	C 	0.28800 0.05350 0.25930 0.06400
H 	H 	0.31090 0.07720 0.24000 -0.00800
C 	C 	0.69780 0.30250 0.81500 -0.13000
H 	H 	0.67630 0.33510 0.83160 0.08100
C 	C 	0.49750 0.07320 0.59290 -0.12800
H 	H 	0.47900 0.04430 0.61390 0.07700
C 	C 	0.55650 0.11670 0.62070 0.07100
H 	H 	0.57650 0.11730 0.66080 -0.00100
C 	C 	0.75430 0.20460 0.76250 0.06000
H 	H 	0.77310 0.16970 0.74480 -0.01100
C 	C 	0.78470 0.21060 0.82210 -0.12600
H 	H 	0.82310 0.18060 0.84390 0.06700
C 	C 	0.67160 0.29290 0.75560 0.07100
H 	H 	0.63230 0.32060 0.73310 -0.01400
C 	C 	0.31400 0.89070 0.58160 -0.11900
H 	H 	0.35580 0.91370 0.60360 0.07400
C 	C 	0.22160 0.98320 0.31650 -0.13300
H 	H 	0.19760 0.95920 0.33470 0.07200
N 	N 	0.06082 0.11510 0.08783 -0.20600
N 	N 	0.70438 0.46960 0.08332 -0.19000
N 	N 	0.69920 0.24650 0.72876 -0.19300
N 	N 	0.85191 0.28920 0.02741 -0.13500
N 	N 	0.76173 0.32240 0.93709 -0.13600
N 	N 	0.84699 0.23200 0.94062 -0.14200
N 	N 	0.58657 0.15840 0.59275 -0.18300
N 	N 	0.21980 0.81320 0.57855 -0.20000
N 	N 	0.22400 0.02910 0.22818 -0.19300
N 	N 	0.37369 0.98850 0.52701 -0.14000
N 	N 	0.28879 0.95040 0.43542 -0.14900
N 	N 	0.37721 0.03740 0.44106 -0.13700
Ag	Ag	0.15588 0.04225 0.13207 0.51000
Ag	Ag	0.17712 0.74792 0.63272 0.51400
C 	C 	0.37590 0.74300 0.99752 0.09800
C 	C 	0.26490 0.93530 0.11140 0.07700
H 	H 	0.28720 0.94250 0.15120 -0.00600
C 	C 	0.46690 0.68730 0.08900 -0.12900
H 	H 	0.44520 0.70800 0.11020 0.07800
C 	C 	0.78020 0.34790 0.60790 0.04700
H 	H 	0.80040 0.34300 0.64790 -0.01700
C 	C 	0.44000 0.69800 0.02976 0.05500
C 	C 	0.90220 0.53020 0.49893 0.10000
C 	C 	0.72160 0.36210 0.49040 -0.12200
H 	H 	0.70050 0.36570 0.45040 0.07200
C 	C 	0.05600 0.65680 0.53490 0.07800
H 	H 	0.07610 0.68440 0.51480 -0.00800
C 	C 	0.47370 0.66420 -0.00000 -0.12800
H 	H 	0.45630 0.66860 0.96010 0.06900
C 	C 	0.20200 0.91570 0.99510 -0.13500
H 	H 	0.17960 0.91140 0.95520 0.08500
C 	C 	0.99650 0.61670 0.50370 -0.12800
H 	H 	0.97660 0.61830 0.46350 0.08400
C 	C 	0.25650 0.76250 0.84862 0.05500
C 	C 	0.29030 0.77300 0.91234 0.10300
C 	C 	0.96680 0.57390 0.53311 0.06200
C 	C 	0.29460 0.82760 0.99479 0.09800
C 	C 	0.53300 0.62440 0.03040 0.05600
H 	H 	0.55530 0.60260 0.00990 -0.01100
C 	C 	0.81750 0.44810 0.49302 0.09700
C 	C 	0.82120 0.54470 0.31900 -0.12300
H 	H 	0.86510 0.56290 0.33900 0.07800
C 	C 	0.78420 0.39860 0.52200 0.04600
C 	C 	0.81980 0.49810 0.41162 0.09700
C 	C 	0.17400 0.95940 0.02590 0.08200
H 	H 	0.13200 0.98290 0.00560 -0.00900
C 	C 	0.69250 0.49490 0.25720 0.06400
H 	H 	0.64840 0.47810 0.23640 -0.02000
C 	C 	0.26400 0.87870 0.02520 0.07300
C 	C 	0.29600 0.88990 0.08470 -0.13000
H 	H 	0.33800 0.86700 0.10620 0.08400
C 	C 	0.52660 0.64510 0.11590 0.05500
H 	H 	0.54380 0.63720 0.15560 -0.01200
C 	C 	0.78770 0.50810 0.34820 0.04700
C 	C 	0.69200 0.32060 0.52060 0.05900
H 	H 	0.65050 0.29630 0.49970 -0.00400
C 	C 	0.78800 0.55350 0.25930 0.06400
H 	H 	0.81090 0.57720 0.24000 -0.00800
C 	C 	0.19780 0.80250 0.81500 -0.13000
H 	H 	0.17630 0.83510 0.83160 0.08100
C 	C 	0.99750 0.57320 0.59290 -0.12800
H 	H 	0.97900 0.54430 0.61390 0.07700
C 	C 	0.05650 0.61670 0.62070 0.07100
H 	H 	0.07650 0.61730 0.66080 -0.00100
C 	C 	0.25430 0.70460 0.76250 0.06000
H 	H 	0.27310 0.66970 0.74480 -0.01100
C 	C 	0.28470 0.71060 0.82210 -0.12600
H 	H 	0.32310 0.68060 0.84390 0.06700
C 	C 	0.17160 0.79290 0.75560 0.07100
H 	H 	0.13230 0.82060 0.73310 -0.01400
C 	C 	0.81400 0.39070 0.58160 -0.11900
H 	H 	0.85580 0.41370 0.60360 0.07400
C 	C 	0.72160 0.48320 0.31650 -0.13400
H 	H 	0.69760 0.45920 0.33470 0.07200
N 	N 	0.56082 0.61510 0.08783 -0.20600
N 	N 	0.20438 0.96960 0.08332 -0.19000
N 	N 	0.19920 0.74650 0.72876 -0.19300
N 	N 	0.35191 0.78920 0.02741 -0.13500
N 	N 	0.26173 0.82240 0.93709 -0.13700
N 	N 	0.34699 0.73200 0.94062 -0.14300
N 	N 	0.08657 0.65840 0.59275 -0.18300
N 	N 	0.71980 0.31320 0.57855 -0.20000
N 	N 	0.72400 0.52910 0.22818 -0.19300
N 	N 	0.87369 0.48850 0.52701 -0.14000
N 	N 	0.78879 0.45040 0.43542 -0.14900
N 	N 	0.87721 0.53740 0.44106 -0.13700
Ag	Ag	0.65588 0.45775 0.63207 0.51000
Ag	Ag	0.67712 0.75208 0.13272 0.51400
C 	C 	0.87590 0.75700 0.49752 0.10200
C 	C 	0.76490 0.56470 0.61140 0.07400
H 	H 	0.78720 0.55750 0.65120 -0.00500
C 	C 	0.96690 0.81270 0.58900 -0.12900
H 	H 	0.94520 0.79200 0.61020 0.07800
C 	C 	0.28020 0.15210 0.10790 0.05000
H 	H 	0.30040 0.15700 0.14790 -0.01800
C 	C 	0.94000 0.80200 0.52976 0.05300
C 	C 	0.40220 0.96980 0.99893 0.09700
C 	C 	0.22160 0.13790 0.99040 -0.13300
H 	H 	0.20050 0.13430 0.95040 0.07500
C 	C 	0.55600 0.84320 0.03490 0.07600
H 	H 	0.57610 0.81560 0.01480 -0.00700
C 	C 	0.97370 0.83580 0.50000 -0.13300
H 	H 	0.95630 0.83140 0.46010 0.07200
C 	C 	0.70200 0.58430 0.49510 -0.12400
H 	H 	0.67960 0.58860 0.45520 0.08200
C 	C 	0.49650 0.88330 0.00370 -0.12300
H 	H 	0.47660 0.88170 0.96350 0.08100
C 	C 	0.75650 0.73750 0.34862 0.05500
C 	C 	0.79030 0.72700 0.41234 0.10300
C 	C 	0.46680 0.92610 0.03311 0.06400
C 	C 	0.79460 0.67240 0.49479 0.10400
C 	C 	0.03300 0.87560 0.53040 0.05700
H 	H 	0.05530 0.89740 0.50990 -0.01200
C 	C 	0.31750 0.05190 0.99302 0.09200
C 	C 	0.32120 0.95530 0.81900 -0.12300
H 	H 	0.36510 0.93710 0.83900 0.07800
C 	C 	0.28420 0.10140 0.02200 0.05400
C 	C 	0.31980 0.00190 0.91162 0.09700
C 	C 	0.67400 0.54060 0.52590 0.07500
H 	H 	0.63200 0.51710 0.50560 -0.00700
C 	C 	0.19250 0.00510 0.75720 0.06400
H 	H 	0.14840 0.02190 0.73640 -0.02000
C 	C 	0.76400 0.62130 0.52520 0.06400
C 	C 	0.79600 0.61010 0.58470 -0.12500
H 	H 	0.83800 0.63300 0.60620 0.08200
C 	C 	0.02660 0.85490 0.61590 0.05400
H 	H 	0.04380 0.86280 0.65560 -0.01200
C 	C 	0.28770 0.99190 0.84820 0.04700
C 	C 	0.19200 0.17940 0.02060 0.06800
H 	H 	0.15050 0.20370 0.99970 -0.00800
C 	C 	0.28800 0.94650 0.75930 0.06400
H 	H 	0.31090 0.92280 0.74000 -0.00800
C 	C 	0.69780 0.69750 0.31500 -0.13000
H 	H 	0.67630 0.66490 0.33160 0.08100
C 	C 	0.49750 0.92680 0.09290 -0.12800
H 	H 	0.47900 0.95570 0.11390 0.07800
C 	C 	0.55650 0.88330 0.12070 0.07100
H 	H 	0.57650 0.88270 0.16080 -0.00100
C 	C 	0.75430 0.79540 0.26250 0.06000
H 	H 	0.77310 0.83030 0.24480 -0.01100
C 	C 	0.78470 0.78940 0.32210 -0.12600
H 	H 	0.82310 0.81940 0.34390 0.06700
C 	C 	0.67160 0.70710 0.25560 0.07100
H 	H 	0.63230 0.67940 0.23310 -0.01400
C 	C 	0.31400 0.10930 0.08160 -0.12400
H 	H 	0.35580 0.08630 0.10360 0.07600
C 	C 	0.22160 0.01680 0.81650 -0.13300
H 	H 	0.19760 0.04080 0.83470 0.07200
N 	N 	0.06082 0.88490 0.58783 -0.20700
N 	N 	0.70438 0.53040 0.58332 -0.18800
N 	N 	0.69920 0.75350 0.22876 -0.19300
N 	N 	0.85191 0.71080 0.52741 -0.13900
N 	N 	0.76173 0.67760 0.43709 -0.13700
N 	N 	0.84699 0.76800 0.44062 -0.14300
N 	N 	0.58657 0.84160 0.09275 -0.18200
N 	N 	0.21980 0.18680 0.07855 -0.20200
N 	N 	0.22400 0.97090 0.72818 -0.19300
N 	N 	0.37369 0.01150 0.02701 -0.13800
N 	N 	0.28879 0.04960 0.93542 -0.14800
N 	N 	0.37721 0.96260 0.94106 -0.13600
Ag	Ag	0.15588 0.95775 0.63207 0.51000
Ag	Ag	0.17712 0.25208 0.13272 0.51400
C 	C 	0.37590 0.25700 0.49752 0.10200
C 	C 	0.26490 0.06470 0.61140 0.07400
H 	H 	0.28720 0.05750 0.65120 -0.00500
C 	C 	0.46690 0.31270 0.58900 -0.12900
H 	H 	0.44520 0.29200 0.61020 0.07800
C 	C 	0.78020 0.65210 0.10790 0.05200
H 	H 	0.80040 0.65700 0.14790 -0.01800
C 	C 	0.44000 0.30200 0.52976 0.05400
C 	C 	0.90220 0.46980 0.99893 0.09600
C 	C 	0.72160 0.63790 0.99040 -0.14200
H 	H 	0.70050 0.63430 0.95040 0.07800
C 	C 	0.05600 0.34320 0.03490 0.07200
H 	H 	0.07610 0.31560 0.01480 -0.00600
C 	C 	0.47370 0.33580 0.50000 -0.13300
H 	H 	0.45630 0.33140 0.46010 0.07200
C 	C 	0.20200 0.08430 0.49510 -0.12400
H 	H 	0.17960 0.08860 0.45520 0.08200
C 	C 	0.99650 0.38330 0.00370 -0.11800
H 	H 	0.97660 0.38170 0.96350 0.07900
C 	C 	0.25650 0.23750 0.34862 0.05500
C 	C 	0.29030 0.22700 0.41234 0.10300
C 	C 	0.96680 0.42610 0.03311 0.06200
C 	C 	0.29460 0.17240 0.49479 0.10400
C 	C 	0.53300 0.37560 0.53040 0.05800
H 	H 	0.55530 0.39740 0.50990 -0.01200
C 	C 	0.81750 0.55190 0.99302 0.08800
C 	C 	0.82120 0.45530 0.81900 -0.12300
H 	H 	0.86510 0.43710 0.83900 0.07800
C 	C 	0.78420 0.60140 0.02200 0.06100
C 	C 	0.81980 0.50190 0.91162 0.09700
C 	C 	0.17400 0.04060 0.52590 0.07500
H 	H 	0.13200 0.01710 0.50560 -0.00700
C 	C 	0.69250 0.50510 0.75720 0.06400
H 	H 	0.64840 0.52190 0.73640 -0.02000
C 	C 	0.26400 0.12130 0.52520 0.06400
C 	C 	0.29600 0.11010 0.58470 -0.12500
H 	H 	0.33800 0.13300 0.60620 0.08200
C 	C 	0.52660 0.35490 0.61590 0.05400
H 	H 	0.54380 0.36280 0.65560 -0.01200
C 	C 	0.78770 0.49190 0.84820 0.04700
C 	C 	0.69200 0.67940 0.02060 0.07600
H 	H 	0.65050 0.70370 0.99970 -0.01200
C 	C 	0.78800 0.44650 0.75930 0.06400
H 	H 	0.81090 0.42280 0.74000 -0.00800
C 	C 	0.19780 0.19750 0.31500 -0.13000
H 	H 	0.17630 0.16490 0.33160 0.08100
C 	C 	0.99750 0.42680 0.09290 -0.12600
H 	H 	0.97900 0.45570 0.11390 0.07700
C 	C 	0.05650 0.38330 0.12070 0.06900
H 	H 	0.07650 0.38270 0.16080 -0.00000
C 	C 	0.25430 0.29540 0.26250 0.06000
H 	H 	0.27310 0.33030 0.24480 -0.01100
C 	C 	0.28470 0.28940 0.32210 -0.12600
H 	H 	0.32310 0.31940 0.34390 0.06700
C 	C 	0.17160 0.20710 0.25560 0.07100
H 	H 	0.13230 0.17940 0.23310 -0.01400
C 	C 	0.81400 0.60930 0.08160 -0.12800
H 	H 	0.85580 0.58630 0.10360 0.07700
C 	C 	0.72160 0.51680 0.81650 -0.13400
H 	H 	0.69760 0.54080 0.83470 0.07200
N 	N 	0.56082 0.38490 0.58783 -0.20700
N 	N 	0.20438 0.03040 0.58332 -0.18800
N 	N 	0.19920 0.25350 0.22876 -0.19300
N 	N 	0.35191 0.21080 0.52741 -0.13900
N 	N 	0.26173 0.17760 0.43709 -0.13700
N 	N 	0.34699 0.26800 0.44062 -0.14300
N 	N 	0.08657 0.34160 0.09275 -0.18100
N 	N 	0.71980 0.68680 0.07855 -0.20400
N 	N 	0.72400 0.47090 0.72818 -0.19300
N 	N 	0.87369 0.51150 0.02701 -0.13600
N 	N 	0.78879 0.54960 0.93542 -0.14700
N 	N 	0.87721 0.46260 0.94106 -0.13600
Ag	Ag	0.34412 0.45775 0.86793 0.51000
Ag	Ag	0.32288 0.75208 0.36728 0.51400
C 	C 	0.12410 0.75700 0.00248 0.10700
C 	C 	0.23510 0.56470 0.88860 0.07100
H 	H 	0.21280 0.55750 0.84880 -0.00400
C 	C 	0.03310 0.81270 0.91100 -0.12300
H 	H 	0.05480 0.79200 0.88980 0.07600
C 	C 	0.71980 0.15210 0.39210 0.04700
H 	H 	0.69960 0.15700 0.35210 -0.01700
C 	C 	0.06000 0.80200 0.97024 0.04500
C 	C 	0.59780 0.96980 0.50107 0.10000
C 	C 	0.77840 0.13790 0.50960 -0.12200
H 	H 	0.79950 0.13430 0.54960 0.07200
C 	C 	0.44400 0.84320 0.46510 0.07800
H 	H 	0.42390 0.81560 0.48520 -0.00800
C 	C 	0.02630 0.83580 -0.00000 -0.12200
H 	H 	0.04370 0.83140 0.03990 0.06900
C 	C 	0.29800 0.58430 0.00490 -0.11400
H 	H 	0.32040 0.58860 0.04480 0.07900
C 	C 	0.50350 0.88330 0.49630 -0.12800
H 	H 	0.52340 0.88170 0.53650 0.08400
C 	C 	0.24350 0.73750 0.15138 0.05500
C 	C 	0.20970 0.72700 0.08766 0.10300
C 	C 	0.53320 0.92610 0.46689 0.06200
C 	C 	0.20540 0.67240 0.00521 0.10900
C 	C 	0.96700 0.87560 0.96960 0.05000
H 	H 	0.94470 0.89740 0.99010 -0.01100
C 	C 	0.68250 0.05190 0.50698 0.09700
C 	C 	0.67880 0.95530 0.68100 -0.12400
H 	H 	0.63490 0.93710 0.66100 0.07800
C 	C 	0.71580 0.10140 0.47800 0.04600
C 	C 	0.68020 0.00190 0.58838 0.09700
C 	C 	0.32600 0.54060 0.97410 0.06800
H 	H 	0.36800 0.51710 0.99440 -0.00600
C 	C 	0.80750 0.00510 0.74280 0.06400
H 	H 	0.85160 0.02190 0.76360 -0.02000
C 	C 	0.23600 0.62130 0.97480 0.05500
C 	C 	0.20400 0.61010 0.91530 -0.12000
H 	H 	0.16200 0.63300 0.89380 0.08000
C 	C 	0.97340 0.85490 0.88410 0.05000
H 	H 	0.95620 0.86280 0.84440 -0.01100
C 	C 	0.71230 0.99190 0.65180 0.04800
C 	C 	0.80800 0.17940 0.47940 0.05900
H 	H 	0.84950 0.20370 0.50030 -0.00400
C 	C 	0.71200 0.94650 0.74070 0.06400
H 	H 	0.68910 0.92280 0.76000 -0.00800
C 	C 	0.30220 0.69750 0.18500 -0.13000
H 	H 	0.32370 0.66490 0.16840 0.08100
C 	C 	0.50250 0.92680 0.40710 -0.12800
H 	H 	0.52100 0.95570 0.38610 0.07700
C 	C 	0.44350 0.88330 0.37930 0.07100
H 	H 	0.42350 0.88270 0.33920 -0.00100
C 	C 	0.24570 0.79540 0.23750 0.06000
H 	H 	0.22690 0.83030 0.25520 -0.01100
C 	C 	0.21530 0.78940 0.17790 -0.12600
H 	H 	0.17690 0.81940 0.15610 0.06700
C 	C 	0.32840 0.70710 0.24440 0.07100
H 	H 	0.36770 0.67940 0.26690 -0.01400
C 	C 	0.68600 0.10930 0.41840 -0.11900
H 	H 	0.64420 0.08630 0.39640 0.07400
C 	C 	0.77840 0.01680 0.68350 -0.13400
H 	H 	0.80240 0.04080 0.66530 0.07200
N 	N 	0.93918 0.88490 0.91217 -0.20500
N 	N 	0.29562 0.53040 0.91668 -0.18600
N 	N 	0.30080 0.75350 0.27124 -0.19300
N 	N 	0.14809 0.71080 0.97259 -0.14100
N 	N 	0.23827 0.67760 0.06291 -0.13800
N 	N 	0.15301 0.76800 0.05938 -0.14400
N 	N 	0.41343 0.84160 0.40725 -0.18300
N 	N 	0.78020 0.18680 0.42145 -0.20000
N 	N 	0.77600 0.97090 0.77182 -0.19300
N 	N 	0.62631 0.01150 0.47299 -0.14000
N 	N 	0.71121 0.04960 0.56458 -0.14900
N 	N 	0.62279 0.96260 0.55894 -0.13700
Ag	Ag	0.84412 0.95775 0.86793 0.51000
Ag	Ag	0.82288 0.25208 0.36728 0.51400
C 	C 	0.62410 0.25700 0.00248 0.10800
C 	C 	0.73510 0.06470 0.88860 0.07000
H 	H 	0.71280 0.05750 0.84880 -0.00400
C 	C 	0.53310 0.31270 0.91100 -0.12300
H 	H 	0.55480 0.29200 0.88980 0.07600
C 	C 	0.21980 0.65210 0.39210 0.04700
H 	H 	0.19960 0.65700 0.35210 -0.01700
C 	C 	0.56000 0.30200 0.97024 0.04300
C 	C 	0.09780 0.46980 0.50107 0.10000
C 	C 	0.27840 0.63790 0.50960 -0.12200
H 	H 	0.29950 0.63430 0.54960 0.07200
C 	C 	0.94400 0.34320 0.46510 0.07900
H 	H 	0.92390 0.31560 0.48520 -0.00800
C 	C 	0.52630 0.33580 -0.00000 -0.12000
H 	H 	0.54370 0.33140 0.03990 0.06800
C 	C 	0.79800 0.08430 0.00490 -0.11000
H 	H 	0.82040 0.08860 0.04480 0.07800
C 	C 	0.00350 0.38330 0.49630 -0.12900
H 	H 	0.02340 0.38170 0.53650 0.08400
C 	C 	0.74350 0.23750 0.15138 0.05500
C 	C 	0.70970 0.22700 0.08766 0.10300
C 	C 	0.03320 0.42610 0.46689 0.06300
C 	C 	0.70540 0.17240 0.00521 0.11100
C 	C 	0.46700 0.37560 0.96960 0.04900
H 	H 	0.44470 0.39740 0.99010 -0.01000
C 	C 	0.18250 0.55190 0.50698 0.09700
C 	C 	0.17880 0.45530 0.68100 -0.12300
H 	H 	0.13490 0.43710 0.66100 0.07800
C 	C 	0.21580 0.60140 0.47800 0.04600
C 	C 	0.18020 0.50190 0.58838 0.09700
C 	C 	0.82600 0.04060 0.97410 0.06600
H 	H 	0.86800 0.01710 0.99440 -0.00500
C 	C 	0.30750 0.50510 0.74280 0.06400
H 	H 	0.35160 0.52190 0.76360 -0.02000
C 	C 	0.73600 0.12130 0.97480 0.05200
C 	C 	0.70400 0.11010 0.91530 -0.11800
H 	H 	0.66200 0.13300 0.89380 0.08000
C 	C 	0.47340 0.35490 0.88410 0.05100
H 	H 	0.45620 0.36280 0.84440 -0.01100
C 	C 	0.21230 0.49190 0.65180 0.04700
C 	C 	0.30800 0.67940 0.47940 0.05900
H 	H 	0.34950 0.70370 0.50030 -0.00400
C 	C 	0.21200 0.44650 0.74070 0.06400
H 	H 	0.18910 0.42280 0.76000 -0.00800
C 	C 	0.80220 0.19750 0.18500 -0.13000
H 	H 	0.82370 0.16490 0.16840 0.08100
C 	C 	0.00250 0.42680 0.40710 -0.12900
H 	H 	0.02100 0.45570 0.38610 0.07700
C 	C 	0.94350 0.38330 0.37930 0.07200
H 	H 	0.92350 0.38270 0.33920 -0.00100
C 	C 	0.74570 0.29540 0.23750 0.06000
H 	H 	0.72690 0.33030 0.25520 -0.01100
C 	C 	0.71530 0.28940 0.17790 -0.12600
H 	H 	0.67690 0.31940 0.15610 0.06700
C 	C 	0.82840 0.20710 0.24440 0.07100
H 	H 	0.86770 0.17940 0.26690 -0.01400
C 	C 	0.18600 0.60930 0.41840 -0.11900
H 	H 	0.14420 0.58630 0.39640 0.07400
C 	C 	0.27840 0.51680 0.68350 -0.13400
H 	H 	0.30240 0.54080 0.66530 0.07200
N 	N 	0.43918 0.38490 0.91217 -0.20500
N 	N 	0.79562 0.03040 0.91668 -0.18600
N 	N 	0.80080 0.25350 0.27124 -0.19300
N 	N 	0.64809 0.21080 0.97259 -0.14200
N 	N 	0.73827 0.17760 0.06291 -0.13900
N 	N 	0.65301 0.26800 0.05938 -0.14400
N 	N 	0.91343 0.34160 0.40725 -0.18300
N 	N 	0.28020 0.68680 0.42145 -0.20000
N 	N 	0.27600 0.47090 0.77182 -0.19300
N 	N 	0.12631 0.51150 0.47299 -0.14000
N 	N 	0.21121 0.54960 0.56458 -0.14900
N 	N 	0.12279 0.46260 0.55894 -0.13700
