data_crystal

_cell_length_a 22.09350
_cell_length_b 16.28970
_cell_length_c 25.63060
_cell_angle_alpha 90.00000
_cell_angle_beta  115.27700
_cell_angle_gamma 90.00000

_symmetry_space_group_name_	'P 1'
_symmetry_space_group_name_H-M	'P 1'

loop_
_symmetry_equiv_pos_as_xyz
  x,y,z

loop_
_atom_site_label
_atom_site_type_symbol
_atom_site_fract_x
_atom_site_fract_y
_atom_site_fract_z
_atom_site_charge
Ag	Ag	0.34389 0.54296 0.36775 0.51100
Ag	Ag	0.82289 0.74813 0.86721 0.51400
N 	N 	0.73840 0.82240 0.56321 -0.13700
N 	N 	0.27990 0.31310 0.92128 -0.20000
N 	N 	0.12260 0.53710 0.05882 -0.13500
N 	N 	0.43920 0.61580 0.41221 -0.20600
N 	N 	0.91320 0.65780 0.90741 -0.18200
C 	C 	0.62370 0.74280 0.50240 0.10100
N 	N 	0.12630 0.48890 0.97322 -0.14000
N 	N 	0.64810 0.78980 0.47281 -0.13800
C 	C 	0.73510 0.93510 0.38810 0.07000
H 	H 	0.71310 0.94220 0.34840 -0.00400
N 	N 	0.79580 0.96960 0.41668 -0.18700
N 	N 	0.21150 0.45010 0.06477 -0.14800
N 	N 	0.80040 0.74670 0.77130 -0.19300
C 	C 	0.27800 0.36230 0.00920 -0.12600
H 	H 	0.29890 0.36600 0.04920 0.07300
C 	C 	0.79840 0.91580 0.50500 -0.12400
H 	H 	0.82080 0.91130 0.54490 0.08200
C 	C 	0.21950 0.34830 0.89190 0.04800
H 	H 	0.19950 0.34410 0.85190 -0.01700
C 	C 	0.55980 0.69780 0.47020 0.05300
N 	N 	0.27580 0.52920 0.27180 -0.19400
C 	C 	0.09760 0.53040 0.00110 0.10000
N 	N 	0.65300 0.73200 0.55932 -0.14300
C 	C 	0.94360 0.65700 0.96510 0.07700
H 	H 	0.92360 0.68530 0.98520 -0.00800
C 	C 	0.53290 0.68800 0.41100 -0.12800
H 	H 	0.55450 0.70950 0.38980 0.07700
C 	C 	0.00310 0.61620 0.99640 -0.12600
H 	H 	0.02250 0.61710 0.03650 0.08300
C 	C 	0.74340 0.76280 0.65170 0.05500
C 	C 	0.18040 0.49780 0.08830 0.09600
C 	C 	0.17890 0.54380 0.18160 -0.12900
H 	H 	0.13480 0.56120 0.16180 0.07900
C 	C 	0.52600 0.66490 0.50020 -0.13100
H 	H 	0.54330 0.66970 0.54010 0.07200
C 	C 	0.21550 0.39870 0.97770 0.05000
C 	C 	0.82620 0.95910 0.47410 0.07600
H 	H 	0.86830 0.98220 0.49430 -0.00700
C 	C 	0.70950 0.77330 0.58760 0.10400
C 	C 	0.03310 0.57390 0.96700 0.06200
C 	C 	0.30780 0.32040 0.97920 0.06200
H 	H 	0.34930 0.29600 0.00020 -0.00500
C 	C 	0.73620 0.87910 0.47490 0.06200
C 	C 	0.94330 0.61660 0.87940 0.07200
H 	H 	0.92350 0.61760 0.83930 -0.00100
C 	C 	0.70560 0.82780 0.50520 0.10400
C 	C 	0.30780 0.49510 0.24290 0.06200
H 	H 	0.35200 0.47860 0.26370 -0.02000
C 	C 	0.18280 0.44850 0.00690 0.09400
C 	C 	0.18560 0.39050 0.91840 -0.12200
H 	H 	0.14360 0.41290 0.89660 0.07500
C 	C 	0.70390 0.88960 0.41520 -0.12200
H 	H 	0.66210 0.86620 0.39390 0.08100
C 	C 	0.47310 0.64560 0.38400 0.05500
H 	H 	0.45580 0.63750 0.34430 -0.01300
C 	C 	0.46650 0.62500 0.46970 0.05600
H 	H 	0.44390 0.60320 0.48990 -0.01200
C 	C 	0.82850 0.79330 0.74480 0.07000
H 	H 	0.86780 0.82100 0.76750 -0.01400
C 	C 	0.21220 0.50790 0.15200 0.05000
C 	C 	0.00230 0.57290 0.90730 -0.12800
H 	H 	0.02060 0.54360 0.88640 0.07800
C 	C 	0.80220 0.80280 0.68520 -0.12900
H 	H 	0.82380 0.83520 0.66850 0.08000
C 	C 	0.21220 0.55320 0.24060 0.07000
H 	H 	0.18940 0.57750 0.25990 -0.01000
C 	C 	0.71520 0.71060 0.67820 -0.12700
H 	H 	0.67710 0.68020 0.65640 0.06800
C 	C 	0.27830 0.48330 0.18340 -0.13400
H 	H 	0.30220 0.45950 0.16500 0.07200
C 	C 	0.74490 0.70500 0.73740 0.06100
H 	H 	0.72560 0.67050 0.75500 -0.01100
Ag	Ag	0.84389 0.04296 0.36775 0.51000
Ag	Ag	0.32289 0.24813 0.86722 0.51300
N 	N 	0.23840 0.32240 0.56321 -0.13800
N 	N 	0.77990 0.81310 0.92128 -0.20000
N 	N 	0.62260 0.03710 0.05882 -0.13700
N 	N 	0.93920 0.11580 0.41221 -0.20700
N 	N 	0.41320 0.15780 0.90741 -0.18300
C 	C 	0.12370 0.24280 0.50240 0.10100
N 	N 	0.62630 0.98890 0.97322 -0.14100
N 	N 	0.14810 0.28980 0.47281 -0.13800
C 	C 	0.23510 0.43510 0.38810 0.07000
H 	H 	0.21310 0.44220 0.34840 -0.00400
N 	N 	0.29580 0.46960 0.41668 -0.18700
N 	N 	0.71150 0.95010 0.06477 -0.14900
N 	N 	0.30040 0.24670 0.77130 -0.19300
C 	C 	0.77800 0.86230 0.00920 -0.11800
H 	H 	0.79890 0.86600 0.04920 0.07100
C 	C 	0.29840 0.41580 0.50500 -0.12400
H 	H 	0.32080 0.41130 0.54490 0.08200
C 	C 	0.71950 0.84830 0.89190 0.04600
H 	H 	0.69950 0.84410 0.85190 -0.01600
C 	C 	0.05980 0.19780 0.47020 0.05300
N 	N 	0.77580 0.02920 0.27180 -0.19400
C 	C 	0.59760 0.03040 0.00110 0.10100
N 	N 	0.15300 0.23200 0.55932 -0.14300
C 	C 	0.44360 0.15700 0.96510 0.07900
H 	H 	0.42360 0.18530 0.98520 -0.00800
C 	C 	0.03290 0.18800 0.41100 -0.12800
H 	H 	0.05450 0.20950 0.38980 0.07700
C 	C 	0.50310 0.11620 0.99640 -0.12800
H 	H 	0.52250 0.11710 0.03650 0.08400
C 	C 	0.24340 0.26280 0.65170 0.05500
C 	C 	0.68040 0.99780 0.08830 0.09700
C 	C 	0.67890 0.04380 0.18160 -0.12800
H 	H 	0.63480 0.06120 0.16180 0.07900
C 	C 	0.02600 0.16490 0.50020 -0.13100
H 	H 	0.04330 0.16970 0.54010 0.07200
C 	C 	0.71550 0.89870 0.97770 0.04400
C 	C 	0.32620 0.45910 0.47410 0.07600
H 	H 	0.36830 0.48220 0.49430 -0.00700
C 	C 	0.20950 0.27330 0.58760 0.10400
C 	C 	0.53310 0.07390 0.96700 0.06300
C 	C 	0.80780 0.82040 0.97920 0.05500
H 	H 	0.84930 0.79600 0.00020 -0.00200
C 	C 	0.23620 0.37910 0.47490 0.06200
C 	C 	0.44330 0.11660 0.87940 0.07300
H 	H 	0.42350 0.11760 0.83930 -0.00200
C 	C 	0.20560 0.32780 0.50520 0.10400
C 	C 	0.80780 0.99510 0.24290 0.06200
H 	H 	0.85200 0.97860 0.26370 -0.01900
C 	C 	0.68280 0.94850 0.00690 0.09700
C 	C 	0.68560 0.89050 0.91840 -0.11800
H 	H 	0.64360 0.91290 0.89660 0.07400
C 	C 	0.20390 0.38960 0.41520 -0.12200
H 	H 	0.16210 0.36620 0.39390 0.08100
C 	C 	0.97310 0.14560 0.38400 0.05500
H 	H 	0.95580 0.13750 0.34430 -0.01300
C 	C 	0.96650 0.12500 0.46970 0.05600
H 	H 	0.94390 0.10320 0.48990 -0.01200
C 	C 	0.32850 0.29330 0.74480 0.07000
H 	H 	0.36780 0.32100 0.76750 -0.01400
C 	C 	0.71220 0.00790 0.15200 0.04900
C 	C 	0.50230 0.07290 0.90730 -0.13000
H 	H 	0.52060 0.04360 0.88640 0.07800
C 	C 	0.30220 0.30280 0.68520 -0.12900
H 	H 	0.32380 0.33520 0.66850 0.08000
C 	C 	0.71220 0.05320 0.24060 0.07000
H 	H 	0.68940 0.07750 0.25990 -0.01000
C 	C 	0.21520 0.21060 0.67820 -0.12700
H 	H 	0.17710 0.18020 0.65640 0.06800
C 	C 	0.77830 0.98330 0.18340 -0.13300
H 	H 	0.80220 0.95950 0.16500 0.07200
C 	C 	0.24490 0.20500 0.73740 0.06100
H 	H 	0.22560 0.17050 0.75500 -0.01100
Ag	Ag	0.65611 0.54296 0.13225 0.51000
Ag	Ag	0.17711 0.74813 0.63278 0.51300
N 	N 	0.26160 0.82240 0.93679 -0.13800
N 	N 	0.72010 0.31310 0.57872 -0.20100
N 	N 	0.87740 0.53710 0.44118 -0.13600
N 	N 	0.56080 0.61580 0.08779 -0.20700
N 	N 	0.08680 0.65780 0.59259 -0.18300
C 	C 	0.37630 0.74280 0.99760 0.10100
N 	N 	0.87370 0.48890 0.52678 -0.14000
N 	N 	0.35190 0.78980 0.02719 -0.13800
C 	C 	0.26490 0.93510 0.11190 0.07000
H 	H 	0.28690 0.94220 0.15160 -0.00400
N 	N 	0.20420 0.96960 0.08332 -0.18700
N 	N 	0.78850 0.45010 0.43523 -0.14800
N 	N 	0.19960 0.74670 0.72870 -0.19300
C 	C 	0.72200 0.36230 0.49080 -0.12200
H 	H 	0.70110 0.36600 0.45080 0.07200
C 	C 	0.20160 0.91580 0.99500 -0.12300
H 	H 	0.17920 0.91130 0.95510 0.08200
C 	C 	0.78050 0.34830 0.60810 0.04700
H 	H 	0.80050 0.34410 0.64810 -0.01700
C 	C 	0.44020 0.69780 0.02980 0.05300
N 	N 	0.72420 0.52920 0.22820 -0.19400
C 	C 	0.90240 0.53040 0.49890 0.10100
N 	N 	0.34700 0.73200 0.94068 -0.14300
C 	C 	0.05640 0.65700 0.53490 0.07900
H 	H 	0.07640 0.68530 0.51480 -0.00900
C 	C 	0.46710 0.68800 0.08900 -0.12800
H 	H 	0.44550 0.70950 0.11020 0.07800
C 	C 	0.99690 0.61620 0.50360 -0.12900
H 	H 	0.97750 0.61710 0.46350 0.08500
C 	C 	0.25660 0.76280 0.84830 0.05500
C 	C 	0.81960 0.49780 0.41170 0.09600
C 	C 	0.82110 0.54380 0.31840 -0.12900
H 	H 	0.86520 0.56120 0.33820 0.07900
C 	C 	0.47400 0.66490 0.99980 -0.13200
H 	H 	0.45670 0.66970 0.95990 0.07200
C 	C 	0.78450 0.39870 0.52230 0.04800
C 	C 	0.17380 0.95910 0.02590 0.07500
H 	H 	0.13170 0.98220 0.00570 -0.00700
C 	C 	0.29050 0.77330 0.91240 0.10400
C 	C 	0.96690 0.57390 0.53300 0.06300
C 	C 	0.69220 0.32040 0.52080 0.05900
H 	H 	0.65070 0.29600 0.49980 -0.00400
C 	C 	0.26380 0.87910 0.02510 0.06200
C 	C 	0.05670 0.61660 0.62060 0.07300
H 	H 	0.07650 0.61760 0.66070 -0.00200
C 	C 	0.29440 0.82780 0.99480 0.10400
C 	C 	0.69220 0.49510 0.25710 0.06200
H 	H 	0.64800 0.47860 0.23630 -0.02000
C 	C 	0.81720 0.44850 0.49310 0.09600
C 	C 	0.81440 0.39050 0.58160 -0.12000
H 	H 	0.85640 0.41290 0.60340 0.07500
C 	C 	0.29610 0.88960 0.08480 -0.12100
H 	H 	0.33790 0.86620 0.10610 0.08100
C 	C 	0.52690 0.64560 0.11600 0.05500
H 	H 	0.54420 0.63750 0.15570 -0.01300
C 	C 	0.53350 0.62500 0.03030 0.05600
H 	H 	0.55610 0.60320 0.01010 -0.01200
C 	C 	0.17150 0.79330 0.75520 0.07000
H 	H 	0.13220 0.82100 0.73250 -0.01400
C 	C 	0.78780 0.50790 0.34800 0.05000
C 	C 	0.99770 0.57290 0.59270 -0.13000
H 	H 	0.97940 0.54360 0.61360 0.07800
C 	C 	0.19780 0.80280 0.81480 -0.12900
H 	H 	0.17620 0.83520 0.83150 0.08000
C 	C 	0.78780 0.55320 0.25940 0.07000
H 	H 	0.81060 0.57750 0.24010 -0.01000
C 	C 	0.28480 0.71060 0.82180 -0.12700
H 	H 	0.32290 0.68020 0.84360 0.06800
C 	C 	0.72170 0.48330 0.31660 -0.13400
H 	H 	0.69780 0.45950 0.33500 0.07200
C 	C 	0.25510 0.70500 0.76260 0.06100
H 	H 	0.27440 0.67050 0.74500 -0.01100
Ag	Ag	0.15611 0.04296 0.13225 0.51000
Ag	Ag	0.67711 0.24813 0.63278 0.51300
N 	N 	0.76160 0.32240 0.93679 -0.13700
N 	N 	0.22010 0.81310 0.57872 -0.20100
N 	N 	0.37740 0.03710 0.44118 -0.13600
N 	N 	0.06080 0.11580 0.08779 -0.20700
N 	N 	0.58680 0.15780 0.59259 -0.18300
C 	C 	0.87630 0.24280 0.99760 0.10000
N 	N 	0.37370 0.98890 0.52678 -0.14000
N 	N 	0.85190 0.28980 0.02719 -0.13800
C 	C 	0.76490 0.43510 0.11190 0.07100
H 	H 	0.78690 0.44220 0.15160 -0.00400
N 	N 	0.70420 0.46960 0.08332 -0.18700
N 	N 	0.28850 0.95010 0.43523 -0.14800
N 	N 	0.69960 0.24670 0.72870 -0.19300
C 	C 	0.22200 0.86230 0.49080 -0.12300
H 	H 	0.20110 0.86600 0.45080 0.07200
C 	C 	0.70160 0.41580 0.99500 -0.12600
H 	H 	0.67920 0.41130 0.95510 0.08200
C 	C 	0.28050 0.84830 0.60810 0.04700
H 	H 	0.30050 0.84410 0.64810 -0.01700
C 	C 	0.94020 0.19780 0.02980 0.05400
N 	N 	0.22420 0.02920 0.22820 -0.19400
C 	C 	0.40240 0.03040 0.49890 0.10100
N 	N 	0.84700 0.23200 0.94068 -0.14300
C 	C 	0.55640 0.15700 0.53490 0.07900
H 	H 	0.57640 0.18530 0.51480 -0.00800
C 	C 	0.96710 0.18800 0.08900 -0.12800
H 	H 	0.94550 0.20950 0.11020 0.07700
C 	C 	0.49690 0.11620 0.50360 -0.12900
H 	H 	0.47750 0.11710 0.46350 0.08500
C 	C 	0.75660 0.26280 0.84830 0.05500
C 	C 	0.31960 0.99780 0.41170 0.09700
C 	C 	0.32110 0.04380 0.31840 -0.12900
H 	H 	0.36520 0.06120 0.33820 0.07900
C 	C 	0.97400 0.16490 0.99980 -0.13200
H 	H 	0.95670 0.16970 0.95990 0.07200
C 	C 	0.28450 0.89870 0.52230 0.04800
C 	C 	0.67380 0.45910 0.02590 0.07700
H 	H 	0.63170 0.48220 0.00570 -0.00800
C 	C 	0.79050 0.27330 0.91240 0.10400
C 	C 	0.46690 0.07390 0.53300 0.06300
C 	C 	0.19220 0.82040 0.52080 0.05900
H 	H 	0.15070 0.79600 0.49980 -0.00400
C 	C 	0.76380 0.37910 0.02510 0.06400
C 	C 	0.55670 0.11660 0.62060 0.07300
H 	H 	0.57650 0.11760 0.66070 -0.00200
C 	C 	0.79440 0.32780 0.99480 0.10300
C 	C 	0.19220 0.99510 0.25710 0.06300
H 	H 	0.14800 0.97860 0.23630 -0.02000
C 	C 	0.31720 0.94850 0.49310 0.09600
C 	C 	0.31440 0.89050 0.58160 -0.12000
H 	H 	0.35640 0.91290 0.60340 0.07500
C 	C 	0.79610 0.38960 0.08480 -0.12300
H 	H 	0.83790 0.36620 0.10610 0.08100
C 	C 	0.02690 0.14560 0.11600 0.05400
H 	H 	0.04420 0.13750 0.15570 -0.01200
C 	C 	0.03350 0.12500 0.03030 0.05600
H 	H 	0.05610 0.10320 0.01010 -0.01200
C 	C 	0.67150 0.29330 0.75520 0.07000
H 	H 	0.63220 0.32100 0.73250 -0.01400
C 	C 	0.28780 0.00790 0.34800 0.04900
C 	C 	0.49770 0.07290 0.59270 -0.13000
H 	H 	0.47940 0.04360 0.61360 0.07800
C 	C 	0.69780 0.30280 0.81480 -0.12900
H 	H 	0.67620 0.33520 0.83150 0.08000
C 	C 	0.28780 0.05320 0.25940 0.07000
H 	H 	0.31060 0.07750 0.24010 -0.01000
C 	C 	0.78480 0.21060 0.82180 -0.12700
H 	H 	0.82290 0.18020 0.84360 0.06800
C 	C 	0.22170 0.98330 0.31660 -0.13400
H 	H 	0.19780 0.95950 0.33500 0.07200
C 	C 	0.75510 0.20500 0.76260 0.06100
H 	H 	0.77440 0.17050 0.74500 -0.01100
Ag	Ag	0.65611 0.45704 0.63225 0.51000
Ag	Ag	0.17711 0.25187 0.13278 0.51300
N 	N 	0.26160 0.17760 0.43679 -0.13800
N 	N 	0.72010 0.68690 0.07872 -0.20100
N 	N 	0.87740 0.46290 0.94118 -0.13600
N 	N 	0.56080 0.38420 0.58779 -0.20700
N 	N 	0.08680 0.34220 0.09259 -0.18200
C 	C 	0.37630 0.25720 0.49760 0.10100
N 	N 	0.87370 0.51110 0.02678 -0.14000
N 	N 	0.35190 0.21020 0.52719 -0.13800
C 	C 	0.26490 0.06490 0.61190 0.07000
H 	H 	0.28690 0.05780 0.65160 -0.00400
N 	N 	0.20420 0.03040 0.58332 -0.18700
N 	N 	0.78850 0.54990 0.93523 -0.14800
N 	N 	0.19960 0.25330 0.22870 -0.19300
C 	C 	0.72200 0.63770 0.99080 -0.12600
H 	H 	0.70110 0.63400 0.95080 0.07300
C 	C 	0.20160 0.08420 0.49500 -0.12400
H 	H 	0.17920 0.08870 0.45510 0.08200
C 	C 	0.78050 0.65170 0.10810 0.04800
H 	H 	0.80050 0.65590 0.14810 -0.01700
C 	C 	0.44020 0.30220 0.52980 0.05300
N 	N 	0.72420 0.47080 0.72820 -0.19400
C 	C 	0.90240 0.46960 0.99890 0.10000
N 	N 	0.34700 0.26800 0.44068 -0.14300
C 	C 	0.05640 0.34300 0.03490 0.07700
H 	H 	0.07640 0.31470 0.01480 -0.00800
C 	C 	0.46710 0.31200 0.58900 -0.12800
H 	H 	0.44550 0.29050 0.61020 0.07700
C 	C 	0.99690 0.38380 0.00360 -0.12600
H 	H 	0.97750 0.38290 0.96350 0.08300
C 	C 	0.25660 0.23720 0.34830 0.05500
C 	C 	0.81960 0.50220 0.91170 0.09600
C 	C 	0.82110 0.45620 0.81840 -0.12900
H 	H 	0.86520 0.43880 0.83820 0.07900
C 	C 	0.47400 0.33510 0.49980 -0.13100
H 	H 	0.45670 0.33030 0.45990 0.07200
C 	C 	0.78450 0.60130 0.02230 0.05000
C 	C 	0.17380 0.04090 0.52590 0.07600
H 	H 	0.13170 0.01780 0.50570 -0.00700
C 	C 	0.29050 0.22670 0.41240 0.10400
C 	C 	0.96690 0.42610 0.03300 0.06200
C 	C 	0.69220 0.67960 0.02080 0.06200
H 	H 	0.65070 0.70400 0.99980 -0.00500
C 	C 	0.26380 0.12090 0.52510 0.06200
C 	C 	0.05670 0.38340 0.12060 0.07200
H 	H 	0.07650 0.38240 0.16070 -0.00100
C 	C 	0.29440 0.17220 0.49480 0.10400
C 	C 	0.69220 0.50490 0.75710 0.06200
H 	H 	0.64800 0.52140 0.73630 -0.02000
C 	C 	0.81720 0.55150 0.99310 0.09400
C 	C 	0.81440 0.60950 0.08160 -0.12200
H 	H 	0.85640 0.58710 0.10340 0.07500
C 	C 	0.29610 0.11040 0.58480 -0.12200
H 	H 	0.33790 0.13380 0.60610 0.08100
C 	C 	0.52690 0.35440 0.61600 0.05500
H 	H 	0.54420 0.36250 0.65570 -0.01300
C 	C 	0.53350 0.37500 0.53030 0.05600
H 	H 	0.55610 0.39680 0.51010 -0.01200
C 	C 	0.17150 0.20670 0.25520 0.07000
H 	H 	0.13220 0.17900 0.23250 -0.01400
C 	C 	0.78780 0.49210 0.84800 0.05000
C 	C 	0.99770 0.42710 0.09270 -0.12800
H 	H 	0.97940 0.45640 0.11360 0.07800
C 	C 	0.19780 0.19720 0.31480 -0.12900
H 	H 	0.17620 0.16480 0.33150 0.08000
C 	C 	0.78780 0.44680 0.75940 0.07000
H 	H 	0.81060 0.42250 0.74010 -0.01000
C 	C 	0.28480 0.28940 0.32180 -0.12700
H 	H 	0.32290 0.31980 0.34360 0.06800
C 	C 	0.72170 0.51670 0.81660 -0.13400
H 	H 	0.69780 0.54050 0.83500 0.07200
C 	C 	0.25510 0.29500 0.26260 0.06100
H 	H 	0.27440 0.32950 0.24500 -0.01100
Ag	Ag	0.15611 0.95704 0.63225 0.51000
Ag	Ag	0.67711 0.75187 0.13278 0.51300
N 	N 	0.76160 0.67760 0.43679 -0.13800
N 	N 	0.22010 0.18690 0.07872 -0.20000
N 	N 	0.37740 0.96290 0.94118 -0.13700
N 	N 	0.06080 0.88420 0.58779 -0.20700
N 	N 	0.58680 0.84220 0.09259 -0.18300
C 	C 	0.87630 0.75720 0.49760 0.10100
N 	N 	0.37370 0.01110 0.02678 -0.14100
N 	N 	0.85190 0.71020 0.52719 -0.13800
C 	C 	0.76490 0.56490 0.61190 0.07000
H 	H 	0.78690 0.55780 0.65160 -0.00400
N 	N 	0.70420 0.53040 0.58332 -0.18700
N 	N 	0.28850 0.04990 0.93523 -0.14900
N 	N 	0.69960 0.75330 0.22870 -0.19300
C 	C 	0.22200 0.13770 0.99080 -0.11800
H 	H 	0.20110 0.13400 0.95080 0.07100
C 	C 	0.70160 0.58420 0.49500 -0.12400
H 	H 	0.67920 0.58870 0.45510 0.08200
C 	C 	0.28050 0.15170 0.10810 0.04600
H 	H 	0.30050 0.15590 0.14810 -0.01600
C 	C 	0.94020 0.80220 0.52980 0.05300
N 	N 	0.22420 0.97080 0.72820 -0.19400
C 	C 	0.40240 0.96960 0.99890 0.10100
N 	N 	0.84700 0.76800 0.44068 -0.14300
C 	C 	0.55640 0.84300 0.03490 0.07900
H 	H 	0.57640 0.81470 0.01480 -0.00800
C 	C 	0.96710 0.81200 0.58900 -0.12800
H 	H 	0.94550 0.79050 0.61020 0.07700
C 	C 	0.49690 0.88380 0.00360 -0.12800
H 	H 	0.47750 0.88290 0.96350 0.08400
C 	C 	0.75660 0.73720 0.34830 0.05500
C 	C 	0.31960 0.00220 0.91170 0.09700
C 	C 	0.32110 0.95620 0.81840 -0.12800
H 	H 	0.36520 0.93880 0.83820 0.07900
C 	C 	0.97400 0.83510 0.49980 -0.13100
H 	H 	0.95670 0.83030 0.45990 0.07200
C 	C 	0.28450 0.10130 0.02230 0.04400
C 	C 	0.67380 0.54090 0.52590 0.07600
H 	H 	0.63170 0.51780 0.50570 -0.00700
C 	C 	0.79050 0.72670 0.41240 0.10400
C 	C 	0.46690 0.92610 0.03300 0.06300
C 	C 	0.19220 0.17960 0.02080 0.05500
H 	H 	0.15070 0.20400 0.99980 -0.00200
C 	C 	0.76380 0.62090 0.52510 0.06200
C 	C 	0.55670 0.88340 0.12060 0.07300
H 	H 	0.57650 0.88240 0.16070 -0.00200
C 	C 	0.79440 0.67220 0.49480 0.10400
C 	C 	0.19220 0.00490 0.75710 0.06200
H 	H 	0.14800 0.02140 0.73630 -0.01900
C 	C 	0.31720 0.05150 0.99310 0.09700
C 	C 	0.31440 0.10950 0.08160 -0.11800
H 	H 	0.35640 0.08710 0.10340 0.07400
C 	C 	0.79610 0.61040 0.58480 -0.12200
H 	H 	0.83790 0.63380 0.60610 0.08100
C 	C 	0.02690 0.85440 0.61600 0.05500
H 	H 	0.04420 0.86250 0.65570 -0.01300
C 	C 	0.03350 0.87500 0.53030 0.05600
H 	H 	0.05610 0.89680 0.51010 -0.01200
C 	C 	0.67150 0.70670 0.25520 0.07000
H 	H 	0.63220 0.67900 0.23250 -0.01400
C 	C 	0.28780 0.99210 0.84800 0.04900
C 	C 	0.49770 0.92710 0.09270 -0.13000
H 	H 	0.47940 0.95640 0.11360 0.07800
C 	C 	0.69780 0.69720 0.31480 -0.12900
H 	H 	0.67620 0.66480 0.33150 0.08000
C 	C 	0.28780 0.94680 0.75940 0.07000
H 	H 	0.31060 0.92250 0.74010 -0.01000
C 	C 	0.78480 0.78940 0.32180 -0.12700
H 	H 	0.82290 0.81980 0.34360 0.06800
C 	C 	0.22170 0.01670 0.81660 -0.13300
H 	H 	0.19780 0.04050 0.83500 0.07200
C 	C 	0.75510 0.79500 0.26260 0.06100
H 	H 	0.77440 0.82950 0.24500 -0.01100
Ag	Ag	0.34389 0.45704 0.86775 0.51000
Ag	Ag	0.82289 0.25187 0.36722 0.51300
N 	N 	0.73840 0.17760 0.06321 -0.13800
N 	N 	0.27990 0.68690 0.42128 -0.20100
N 	N 	0.12260 0.46290 0.55882 -0.13600
N 	N 	0.43920 0.38420 0.91221 -0.20700
N 	N 	0.91320 0.34220 0.40741 -0.18300
C 	C 	0.62370 0.25720 0.00240 0.10100
N 	N 	0.12630 0.51110 0.47322 -0.14000
N 	N 	0.64810 0.21020 0.97281 -0.13800
C 	C 	0.73510 0.06490 0.88810 0.07000
H 	H 	0.71310 0.05780 0.84840 -0.00400
N 	N 	0.79580 0.03040 0.91668 -0.18700
N 	N 	0.21150 0.54990 0.56477 -0.14800
N 	N 	0.80040 0.25330 0.27130 -0.19300
C 	C 	0.27800 0.63770 0.50920 -0.12200
H 	H 	0.29890 0.63400 0.54920 0.07200
C 	C 	0.79840 0.08420 0.00500 -0.12300
H 	H 	0.82080 0.08870 0.04490 0.08200
C 	C 	0.21950 0.65170 0.39190 0.04700
H 	H 	0.19950 0.65590 0.35190 -0.01700
C 	C 	0.55980 0.30220 0.97020 0.05300
N 	N 	0.27580 0.47080 0.77180 -0.19400
C 	C 	0.09760 0.46960 0.50110 0.10100
N 	N 	0.65300 0.26800 0.05932 -0.14300
C 	C 	0.94360 0.34300 0.46510 0.07900
H 	H 	0.92360 0.31470 0.48520 -0.00900
C 	C 	0.53290 0.31200 0.91100 -0.12800
H 	H 	0.55450 0.29050 0.88980 0.07800
C 	C 	0.00310 0.38380 0.49640 -0.12900
H 	H 	0.02250 0.38290 0.53650 0.08500
C 	C 	0.74340 0.23720 0.15170 0.05500
C 	C 	0.18040 0.50220 0.58830 0.09600
C 	C 	0.17890 0.45620 0.68160 -0.12900
H 	H 	0.13480 0.43880 0.66180 0.07900
C 	C 	0.52600 0.33510 0.00020 -0.13200
H 	H 	0.54330 0.33030 0.04010 0.07200
C 	C 	0.21550 0.60130 0.47770 0.04800
C 	C 	0.82620 0.04090 0.97410 0.07500
H 	H 	0.86830 0.01780 0.99430 -0.00700
C 	C 	0.70950 0.22670 0.08760 0.10400
C 	C 	0.03310 0.42610 0.46700 0.06300
C 	C 	0.30780 0.67960 0.47920 0.05900
H 	H 	0.34930 0.70400 0.50020 -0.00400
C 	C 	0.73620 0.12090 0.97490 0.06200
C 	C 	0.94330 0.38340 0.37940 0.07300
H 	H 	0.92350 0.38240 0.33930 -0.00200
C 	C 	0.70560 0.17220 0.00520 0.10400
C 	C 	0.30780 0.50490 0.74290 0.06200
H 	H 	0.35200 0.52140 0.76370 -0.02000
C 	C 	0.18280 0.55150 0.50690 0.09600
C 	C 	0.18560 0.60950 0.41840 -0.12000
H 	H 	0.14360 0.58710 0.39660 0.07500
C 	C 	0.70390 0.11040 0.91520 -0.12100
H 	H 	0.66210 0.13380 0.89390 0.08100
C 	C 	0.47310 0.35440 0.88400 0.05500
H 	H 	0.45580 0.36250 0.84430 -0.01300
C 	C 	0.46650 0.37500 0.96970 0.05600
H 	H 	0.44390 0.39680 0.98990 -0.01200
C 	C 	0.82850 0.20670 0.24480 0.07000
H 	H 	0.86780 0.17900 0.26750 -0.01400
C 	C 	0.21220 0.49210 0.65200 0.05000
C 	C 	0.00230 0.42710 0.40730 -0.13000
H 	H 	0.02060 0.45640 0.38640 0.07800
C 	C 	0.80220 0.19720 0.18520 -0.12900
H 	H 	0.82380 0.16480 0.16850 0.08000
C 	C 	0.21220 0.44680 0.74060 0.07000
H 	H 	0.18940 0.42250 0.75990 -0.01000
C 	C 	0.71520 0.28940 0.17820 -0.12700
H 	H 	0.67710 0.31980 0.15640 0.06800
C 	C 	0.27830 0.51670 0.68340 -0.13400
H 	H 	0.30220 0.54050 0.66500 0.07200
C 	C 	0.74490 0.29500 0.23740 0.06100
H 	H 	0.72560 0.32950 0.25500 -0.01100
Ag	Ag	0.84389 0.95704 0.86775 0.51000
Ag	Ag	0.32289 0.75187 0.36722 0.51300
N 	N 	0.23840 0.67760 0.06321 -0.13700
N 	N 	0.77990 0.18690 0.42128 -0.20100
N 	N 	0.62260 0.96290 0.55882 -0.13600
N 	N 	0.93920 0.88420 0.91221 -0.20700
N 	N 	0.41320 0.84220 0.40741 -0.18300
C 	C 	0.12370 0.75720 0.00240 0.10000
N 	N 	0.62630 0.01110 0.47322 -0.14000
N 	N 	0.14810 0.71020 0.97281 -0.13800
C 	C 	0.23510 0.56490 0.88810 0.07100
H 	H 	0.21310 0.55780 0.84840 -0.00400
N 	N 	0.29580 0.53040 0.91668 -0.18700
N 	N 	0.71150 0.04990 0.56477 -0.14800
N 	N 	0.30040 0.75330 0.27130 -0.19300
C 	C 	0.77800 0.13770 0.50920 -0.12300
H 	H 	0.79890 0.13400 0.54920 0.07200
C 	C 	0.29840 0.58420 0.00500 -0.12600
H 	H 	0.32080 0.58870 0.04490 0.08200
C 	C 	0.71950 0.15170 0.39190 0.04700
H 	H 	0.69950 0.15590 0.35190 -0.01700
C 	C 	0.05980 0.80220 0.97020 0.05400
N 	N 	0.77580 0.97080 0.77180 -0.19400
C 	C 	0.59760 0.96960 0.50110 0.10100
N 	N 	0.15300 0.76800 0.05932 -0.14300
C 	C 	0.44360 0.84300 0.46510 0.07900
H 	H 	0.42360 0.81470 0.48520 -0.00800
C 	C 	0.03290 0.81200 0.91100 -0.12800
H 	H 	0.05450 0.79050 0.88980 0.07700
C 	C 	0.50310 0.88380 0.49640 -0.12900
H 	H 	0.52250 0.88290 0.53650 0.08500
C 	C 	0.24340 0.73720 0.15170 0.05500
C 	C 	0.68040 0.00220 0.58830 0.09700
C 	C 	0.67890 0.95620 0.68160 -0.12900
H 	H 	0.63480 0.93880 0.66180 0.07900
C 	C 	0.02600 0.83510 0.00020 -0.13200
H 	H 	0.04330 0.83030 0.04010 0.07200
C 	C 	0.71550 0.10130 0.47770 0.04800
C 	C 	0.32620 0.54090 0.97410 0.07700
H 	H 	0.36830 0.51780 0.99430 -0.00800
C 	C 	0.20950 0.72670 0.08760 0.10400
C 	C 	0.53310 0.92610 0.46700 0.06300
C 	C 	0.80780 0.17960 0.47920 0.05900
H 	H 	0.84930 0.20400 0.50020 -0.00400
C 	C 	0.23620 0.62090 0.97490 0.06400
C 	C 	0.44330 0.88340 0.37940 0.07300
H 	H 	0.42350 0.88240 0.33930 -0.00200
C 	C 	0.20560 0.67220 0.00520 0.10300
C 	C 	0.80780 0.00490 0.74290 0.06300
H 	H 	0.85200 0.02140 0.76370 -0.02000
C 	C 	0.68280 0.05150 0.50690 0.09600
C 	C 	0.68560 0.10950 0.41840 -0.12000
H 	H 	0.64360 0.08710 0.39660 0.07500
C 	C 	0.20390 0.61040 0.91520 -0.12300
H 	H 	0.16210 0.63380 0.89390 0.08100
C 	C 	0.97310 0.85440 0.88400 0.05400
H 	H 	0.95580 0.86250 0.84430 -0.01200
C 	C 	0.96650 0.87500 0.96970 0.05600
H 	H 	0.94390 0.89680 0.98990 -0.01200
C 	C 	0.32850 0.70670 0.24480 0.07000
H 	H 	0.36780 0.67900 0.26750 -0.01400
C 	C 	0.71220 0.99210 0.65200 0.04900
C 	C 	0.50230 0.92710 0.40730 -0.13000
H 	H 	0.52060 0.95640 0.38640 0.07800
C 	C 	0.30220 0.69720 0.18520 -0.12900
H 	H 	0.32380 0.66480 0.16850 0.08000
C 	C 	0.71220 0.94680 0.74060 0.07000
H 	H 	0.68940 0.92250 0.75990 -0.01000
C 	C 	0.21520 0.78940 0.17820 -0.12700
H 	H 	0.17710 0.81980 0.15640 0.06800
C 	C 	0.77830 0.01670 0.68340 -0.13400
H 	H 	0.80220 0.04050 0.66500 0.07200
C 	C 	0.24490 0.79500 0.23740 0.06100
H 	H 	0.22560 0.82950 0.25500 -0.01100
