data_crystal

_cell_length_a 22.05010
_cell_length_b 16.50790
_cell_length_c 25.59600
_cell_angle_alpha 90.00000
_cell_angle_beta  115.29100
_cell_angle_gamma 90.00000

_symmetry_space_group_name_	'P 1'
_symmetry_space_group_name_H-M	'P 1'

loop_
_symmetry_equiv_pos_as_xyz
  x,y,z

loop_
_atom_site_label
_atom_site_type_symbol
_atom_site_fract_x
_atom_site_fract_y
_atom_site_fract_z
_atom_site_charge
Ag	Ag	0.34423 0.54263 0.36755 0.50900
Ag	Ag	0.32266 0.24611 0.86700 0.51200
C 	C 	0.12380 0.24350 0.50140 0.10000
C 	C 	0.59800 0.02930 0.00020 0.10200
C 	C 	0.72030 0.84770 0.89170 0.05200
H 	H 	0.70060 0.84310 0.85160 -0.01900
C 	C 	0.03280 0.18850 0.41020 -0.13300
H 	H 	0.05430 0.20950 0.38880 0.07900
C 	C 	0.05970 0.19870 0.46920 0.05600
C 	C 	0.77780 0.86160 0.00900 -0.12000
H 	H 	0.79860 0.86500 0.04910 0.07100
C 	C 	0.44400 0.15580 0.96410 0.08100
H 	H 	0.42390 0.18350 0.98420 -0.01000
C 	C 	0.23520 0.43550 0.38820 0.07500
H 	H 	0.21340 0.44250 0.34830 -0.00600
C 	C 	0.29780 0.41600 0.50460 -0.12800
H 	H 	0.32000 0.41180 0.54460 0.08300
C 	C 	0.24300 0.26320 0.65060 0.05500
C 	C 	0.68240 0.94780 0.00610 0.09700
C 	C 	0.50360 0.11550 0.99580 -0.13000
H 	H 	0.52320 0.11670 0.03600 0.08500
C 	C 	0.20970 0.27390 0.58700 0.10300
C 	C 	0.02580 0.16490 0.49900 -0.13600
H 	H 	0.04310 0.16940 0.53900 0.07300
C 	C 	0.53350 0.07340 0.96610 0.06400
C 	C 	0.23570 0.37870 0.47400 0.06500
C 	C 	0.20540 0.32800 0.50440 0.10300
C 	C 	0.67920 0.04410 0.18060 -0.13000
H 	H 	0.63520 0.06190 0.16050 0.08000
C 	C 	0.20400 0.39030 0.41460 -0.12700
H 	H 	0.16200 0.36770 0.39300 0.08300
C 	C 	0.96690 0.12500 0.46860 0.06200
H 	H 	0.94470 0.10280 0.48900 -0.01400
C 	C 	0.71530 0.89810 0.97690 0.04600
C 	C 	0.68020 0.99790 0.08740 0.09700
C 	C 	0.71250 0.00830 0.15130 0.05300
C 	C 	0.80780 0.81990 0.97880 0.05900
H 	H 	0.84920 0.79550 0.99970 -0.00400
C 	C 	0.32530 0.45940 0.47340 0.08300
H 	H 	0.36740 0.48260 0.49380 -0.01000
C 	C 	0.97330 0.14640 0.38360 0.05900
H 	H 	0.95600 0.13870 0.34380 -0.01300
C 	C 	0.50200 0.07270 0.90650 -0.13400
H 	H 	0.51980 0.04330 0.88540 0.08000
C 	C 	0.80710 0.99510 0.24190 0.06900
H 	H 	0.85130 0.97850 0.26280 -0.02200
C 	C 	0.68630 0.89010 0.91750 -0.12300
H 	H 	0.64450 0.91270 0.89520 0.07500
C 	C 	0.71220 0.05330 0.24020 0.07100
H 	H 	0.68950 0.07740 0.25950 -0.01100
C 	C 	0.44390 0.11640 0.87890 0.07700
H 	H 	0.42440 0.11790 0.83880 -0.00300
C 	C 	0.24530 0.20470 0.73660 0.06100
H 	H 	0.22630 0.17000 0.75410 -0.01200
C 	C 	0.30230 0.30150 0.68440 -0.13200
H 	H 	0.32430 0.33320 0.66780 0.08100
C 	C 	0.32830 0.29200 0.74360 0.07300
H 	H 	0.36750 0.31970 0.76620 -0.01500
C 	C 	0.77810 0.98350 0.18290 -0.13900
H 	H 	0.80210 0.95950 0.16470 0.07400
C 	C 	0.21510 0.21130 0.67730 -0.12700
H 	H 	0.17670 0.18160 0.65540 0.06800
N 	N 	0.93920 0.11620 0.41140 -0.20800
N 	N 	0.29560 0.47000 0.41690 -0.19000
N 	N 	0.30080 0.24570 0.77040 -0.19300
N 	N 	0.14780 0.28960 0.47180 -0.13800
N 	N 	0.23800 0.32260 0.56214 -0.13700
N 	N 	0.15290 0.23280 0.55880 -0.14200
N 	N 	0.78000 0.81330 0.92130 -0.20100
N 	N 	0.41360 0.15720 0.90670 -0.18500
N 	N 	0.77540 0.02900 0.27080 -0.19500
N 	N 	0.62610 0.98790 0.97254 -0.14200
N 	N 	0.62290 0.03700 0.05800 -0.13700
N 	N 	0.71150 0.95050 0.06410 -0.14800
Ag	Ag	0.84423 0.04263 0.36755 0.51000
Ag	Ag	0.82266 0.74611 0.86700 0.51300
C 	C 	0.62380 0.74350 0.50140 0.10000
C 	C 	0.09800 0.52930 0.00020 0.10100
C 	C 	0.22030 0.34770 0.89170 0.05400
H 	H 	0.20060 0.34310 0.85160 -0.02000
C 	C 	0.53280 0.68850 0.41020 -0.13300
H 	H 	0.55430 0.70950 0.38880 0.07900
C 	C 	0.55970 0.69870 0.46920 0.05600
C 	C 	0.27780 0.36160 0.00900 -0.12800
H 	H 	0.29860 0.36500 0.04910 0.07300
C 	C 	0.94400 0.65580 0.96410 0.07700
H 	H 	0.92390 0.68350 0.98420 -0.00900
C 	C 	0.73520 0.93550 0.38820 0.07500
H 	H 	0.71340 0.94250 0.34830 -0.00600
C 	C 	0.79780 0.91600 0.50460 -0.12800
H 	H 	0.82000 0.91180 0.54460 0.08300
C 	C 	0.74300 0.76320 0.65060 0.05500
C 	C 	0.18240 0.44780 0.00610 0.09300
C 	C 	0.00360 0.61550 0.99580 -0.12500
H 	H 	0.02320 0.61670 0.03600 0.08200
C 	C 	0.70970 0.77390 0.58700 0.10300
C 	C 	0.52580 0.66490 0.49900 -0.13600
H 	H 	0.54310 0.66940 0.53900 0.07300
C 	C 	0.03350 0.57340 0.96610 0.06300
C 	C 	0.73570 0.87870 0.47400 0.06500
C 	C 	0.70540 0.82800 0.50440 0.10300
C 	C 	0.17920 0.54410 0.18060 -0.13100
H 	H 	0.13520 0.56190 0.16050 0.08000
C 	C 	0.70400 0.89030 0.41460 -0.12700
H 	H 	0.66200 0.86770 0.39300 0.08300
C 	C 	0.46690 0.62500 0.46860 0.06100
H 	H 	0.44470 0.60280 0.48900 -0.01400
C 	C 	0.21530 0.39810 0.97690 0.05200
C 	C 	0.18020 0.49790 0.08740 0.09600
C 	C 	0.21250 0.50830 0.15130 0.05300
C 	C 	0.30780 0.31990 0.97880 0.06400
H 	H 	0.34920 0.29550 0.99970 -0.00600
C 	C 	0.82530 0.95940 0.47340 0.08300
H 	H 	0.86740 0.98260 0.49380 -0.01000
C 	C 	0.47330 0.64640 0.38360 0.05800
H 	H 	0.45600 0.63870 0.34380 -0.01300
C 	C 	0.00200 0.57270 0.90650 -0.13100
H 	H 	0.01980 0.54330 0.88540 0.07900
C 	C 	0.30710 0.49510 0.24190 0.06900
H 	H 	0.35130 0.47850 0.26280 -0.02200
C 	C 	0.18630 0.39010 0.91750 -0.12700
H 	H 	0.14450 0.41270 0.89520 0.07600
C 	C 	0.21220 0.55330 0.24020 0.07200
H 	H 	0.18950 0.57740 0.25950 -0.01100
C 	C 	0.94390 0.61640 0.87890 0.07400
H 	H 	0.92440 0.61790 0.83880 -0.00200
C 	C 	0.74530 0.70470 0.73660 0.06100
H 	H 	0.72630 0.67000 0.75410 -0.01200
C 	C 	0.80230 0.80150 0.68440 -0.13200
H 	H 	0.82430 0.83320 0.66780 0.08100
C 	C 	0.82830 0.79200 0.74360 0.07300
H 	H 	0.86750 0.81970 0.76620 -0.01500
C 	C 	0.27810 0.48350 0.18290 -0.14000
H 	H 	0.30210 0.45950 0.16470 0.07400
C 	C 	0.71510 0.71130 0.67730 -0.12700
H 	H 	0.67670 0.68160 0.65540 0.06800
N 	N 	0.43920 0.61620 0.41140 -0.20800
N 	N 	0.79560 0.97000 0.41690 -0.19000
N 	N 	0.80080 0.74570 0.77040 -0.19300
N 	N 	0.64780 0.78960 0.47180 -0.13800
N 	N 	0.73800 0.82260 0.56214 -0.13700
N 	N 	0.65290 0.73280 0.55880 -0.14200
N 	N 	0.28000 0.31330 0.92130 -0.20200
N 	N 	0.91360 0.65720 0.90670 -0.18400
N 	N 	0.27540 0.52900 0.27080 -0.19500
N 	N 	0.12610 0.48790 0.97254 -0.14000
N 	N 	0.12290 0.53700 0.05800 -0.13700
N 	N 	0.21150 0.45050 0.06410 -0.14800
Ag	Ag	0.65577 0.54263 0.13245 0.51000
Ag	Ag	0.67734 0.24611 0.63300 0.51300
C 	C 	0.87620 0.24350 0.99860 0.09900
C 	C 	0.40200 0.02930 0.49980 0.10200
C 	C 	0.27970 0.84770 0.60830 0.05300
H 	H 	0.29940 0.84310 0.64840 -0.02000
C 	C 	0.96720 0.18850 0.08980 -0.13000
H 	H 	0.94570 0.20950 0.11120 0.07800
C 	C 	0.94030 0.19870 0.03080 0.05400
C 	C 	0.22220 0.86160 0.49100 -0.12400
H 	H 	0.20140 0.86500 0.45090 0.07200
C 	C 	0.55600 0.15580 0.53590 0.08100
H 	H 	0.57610 0.18350 0.51580 -0.01000
C 	C 	0.76480 0.43550 0.11180 0.07600
H 	H 	0.78660 0.44250 0.15170 -0.00600
C 	C 	0.70220 0.41600 0.99540 -0.13100
H 	H 	0.68000 0.41180 0.95540 0.08400
C 	C 	0.75700 0.26320 0.84940 0.05500
C 	C 	0.31760 0.94780 0.49390 0.09500
C 	C 	0.49640 0.11550 0.50420 -0.13000
H 	H 	0.47680 0.11670 0.46400 0.08500
C 	C 	0.79030 0.27390 0.91300 0.10300
C 	C 	0.97420 0.16490 0.00100 -0.13000
H 	H 	0.95690 0.16940 0.96100 0.07100
C 	C 	0.46650 0.07340 0.53390 0.06500
C 	C 	0.76430 0.37870 0.02600 0.06800
C 	C 	0.79460 0.32800 0.99560 0.10100
C 	C 	0.32080 0.04410 0.31940 -0.13100
H 	H 	0.36480 0.06190 0.33950 0.08000
C 	C 	0.79600 0.39030 0.08540 -0.12900
H 	H 	0.83800 0.36770 0.10700 0.08300
C 	C 	0.03310 0.12500 0.03140 0.05700
H 	H 	0.05530 0.10280 0.01100 -0.01300
C 	C 	0.28470 0.89810 0.52310 0.04900
C 	C 	0.31980 0.99790 0.41260 0.09600
C 	C 	0.28750 0.00830 0.34870 0.05300
C 	C 	0.19220 0.81990 0.52120 0.06200
H 	H 	0.15080 0.79550 0.50030 -0.00500
C 	C 	0.67470 0.45940 0.02660 0.08500
H 	H 	0.63260 0.48260 0.00620 -0.01100
C 	C 	0.02670 0.14640 0.11640 0.05600
H 	H 	0.04400 0.13870 0.15620 -0.01300
C 	C 	0.49800 0.07270 0.59350 -0.13400
H 	H 	0.48020 0.04330 0.61460 0.08000
C 	C 	0.19290 0.99510 0.25810 0.06900
H 	H 	0.14870 0.97850 0.23720 -0.02200
C 	C 	0.31370 0.89010 0.58250 -0.12500
H 	H 	0.35550 0.91270 0.60480 0.07600
C 	C 	0.28780 0.05330 0.25980 0.07200
H 	H 	0.31050 0.07740 0.24050 -0.01100
C 	C 	0.55610 0.11640 0.62110 0.07700
H 	H 	0.57560 0.11790 0.66120 -0.00300
C 	C 	0.75470 0.20470 0.76340 0.06100
H 	H 	0.77370 0.17000 0.74590 -0.01200
C 	C 	0.69770 0.30150 0.81560 -0.13200
H 	H 	0.67570 0.33320 0.83220 0.08100
C 	C 	0.67170 0.29200 0.75640 0.07300
H 	H 	0.63250 0.31970 0.73380 -0.01500
C 	C 	0.22190 0.98350 0.31710 -0.14000
H 	H 	0.19790 0.95950 0.33530 0.07400
C 	C 	0.78490 0.21130 0.82270 -0.12700
H 	H 	0.82330 0.18160 0.84460 0.06800
N 	N 	0.06080 0.11620 0.08860 -0.20700
N 	N 	0.70440 0.47000 0.08310 -0.19000
N 	N 	0.69920 0.24570 0.72960 -0.19300
N 	N 	0.85220 0.28960 0.02820 -0.13700
N 	N 	0.76200 0.32260 0.93786 -0.13700
N 	N 	0.84710 0.23280 0.94120 -0.14200
N 	N 	0.22000 0.81330 0.57870 -0.20200
N 	N 	0.58640 0.15720 0.59330 -0.18500
N 	N 	0.22460 0.02900 0.22920 -0.19500
N 	N 	0.37390 0.98790 0.52746 -0.14100
N 	N 	0.37710 0.03700 0.44200 -0.13700
N 	N 	0.28850 0.95050 0.43590 -0.14800
Ag	Ag	0.15577 0.04263 0.13245 0.51000
Ag	Ag	0.17734 0.74611 0.63300 0.51300
C 	C 	0.37620 0.74350 0.99860 0.10000
C 	C 	0.90200 0.52930 0.49980 0.10200
C 	C 	0.77970 0.34770 0.60830 0.05300
H 	H 	0.79940 0.34310 0.64840 -0.02000
C 	C 	0.46720 0.68850 0.08980 -0.13300
H 	H 	0.44570 0.70950 0.11120 0.07900
C 	C 	0.44030 0.69870 0.03080 0.05600
C 	C 	0.72220 0.36160 0.49100 -0.12400
H 	H 	0.70140 0.36500 0.45090 0.07200
C 	C 	0.05600 0.65580 0.53590 0.08200
H 	H 	0.07610 0.68350 0.51580 -0.01000
C 	C 	0.26480 0.93550 0.11180 0.07500
H 	H 	0.28660 0.94250 0.15170 -0.00500
C 	C 	0.20220 0.91600 0.99540 -0.12600
H 	H 	0.18000 0.91180 0.95540 0.08300
C 	C 	0.25700 0.76320 0.84940 0.05500
C 	C 	0.81760 0.44780 0.49390 0.09500
C 	C 	0.99640 0.61550 0.50420 -0.13100
H 	H 	0.97680 0.61670 0.46400 0.08500
C 	C 	0.29030 0.77390 0.91300 0.10300
C 	C 	0.47420 0.66490 0.00100 -0.13600
H 	H 	0.45690 0.66940 0.96100 0.07300
C 	C 	0.96650 0.57340 0.53390 0.06500
C 	C 	0.26430 0.87870 0.02600 0.06300
C 	C 	0.29460 0.82800 0.99560 0.10400
C 	C 	0.82080 0.54410 0.31940 -0.13100
H 	H 	0.86480 0.56190 0.33950 0.08000
C 	C 	0.29600 0.89030 0.08540 -0.12600
H 	H 	0.33800 0.86770 0.10700 0.08200
C 	C 	0.53310 0.62500 0.03140 0.06200
H 	H 	0.55530 0.60280 0.01100 -0.01400
C 	C 	0.78470 0.39810 0.52310 0.04900
C 	C 	0.81980 0.49790 0.41260 0.09600
C 	C 	0.78750 0.50830 0.34870 0.05300
C 	C 	0.69220 0.31990 0.52120 0.06200
H 	H 	0.65080 0.29550 0.50030 -0.00500
C 	C 	0.17470 0.95940 0.02660 0.08100
H 	H 	0.13260 0.98260 0.00620 -0.01000
C 	C 	0.52670 0.64640 0.11640 0.05800
H 	H 	0.54400 0.63870 0.15620 -0.01300
C 	C 	0.99800 0.57270 0.59350 -0.13500
H 	H 	0.98020 0.54330 0.61460 0.08000
C 	C 	0.69290 0.49510 0.25810 0.06900
H 	H 	0.64870 0.47850 0.23720 -0.02200
C 	C 	0.81370 0.39010 0.58250 -0.12500
H 	H 	0.85550 0.41270 0.60480 0.07600
C 	C 	0.78780 0.55330 0.25980 0.07200
H 	H 	0.81050 0.57740 0.24050 -0.01100
C 	C 	0.05610 0.61640 0.62110 0.07800
H 	H 	0.07560 0.61790 0.66120 -0.00300
C 	C 	0.25470 0.70470 0.76340 0.06100
H 	H 	0.27370 0.67000 0.74590 -0.01200
C 	C 	0.19770 0.80150 0.81560 -0.13200
H 	H 	0.17570 0.83320 0.83220 0.08100
C 	C 	0.17170 0.79200 0.75640 0.07300
H 	H 	0.13250 0.81970 0.73380 -0.01400
C 	C 	0.72190 0.48350 0.31710 -0.14000
H 	H 	0.69790 0.45950 0.33530 0.07400
C 	C 	0.28490 0.71130 0.82270 -0.12700
H 	H 	0.32330 0.68160 0.84460 0.06800
N 	N 	0.56080 0.61620 0.08860 -0.20800
N 	N 	0.20440 0.97000 0.08310 -0.18900
N 	N 	0.19920 0.74570 0.72960 -0.19300
N 	N 	0.35220 0.78960 0.02820 -0.13800
N 	N 	0.26200 0.82260 0.93786 -0.13800
N 	N 	0.34710 0.73280 0.94120 -0.14200
N 	N 	0.72000 0.31330 0.57870 -0.20200
N 	N 	0.08640 0.65720 0.59330 -0.18500
N 	N 	0.72460 0.52900 0.22920 -0.19500
N 	N 	0.87390 0.48790 0.52746 -0.14100
N 	N 	0.87710 0.53700 0.44200 -0.13700
N 	N 	0.78850 0.45050 0.43590 -0.14800
Ag	Ag	0.65577 0.45737 0.63245 0.51000
Ag	Ag	0.67734 0.75389 0.13300 0.51300
C 	C 	0.87620 0.75650 0.49860 0.10000
C 	C 	0.40200 0.97070 0.99980 0.10200
C 	C 	0.27970 0.15230 0.10830 0.05200
H 	H 	0.29940 0.15690 0.14840 -0.01900
C 	C 	0.96720 0.81150 0.58980 -0.13300
H 	H 	0.94570 0.79050 0.61120 0.07900
C 	C 	0.94030 0.80130 0.53080 0.05600
C 	C 	0.22220 0.13840 0.99100 -0.12000
H 	H 	0.20140 0.13500 0.95090 0.07100
C 	C 	0.55600 0.84420 0.03590 0.08100
H 	H 	0.57610 0.81650 0.01580 -0.01000
C 	C 	0.76480 0.56450 0.61180 0.07500
H 	H 	0.78660 0.55750 0.65170 -0.00600
C 	C 	0.70220 0.58400 0.49540 -0.12800
H 	H 	0.68000 0.58820 0.45540 0.08300
C 	C 	0.75700 0.73680 0.34940 0.05500
C 	C 	0.31760 0.05220 0.99390 0.09700
C 	C 	0.49640 0.88450 0.00420 -0.13000
H 	H 	0.47680 0.88330 0.96400 0.08500
C 	C 	0.79030 0.72610 0.41300 0.10300
C 	C 	0.97420 0.83510 0.50100 -0.13600
H 	H 	0.95690 0.83060 0.46100 0.07300
C 	C 	0.46650 0.92660 0.03390 0.06400
C 	C 	0.76430 0.62130 0.52600 0.06500
C 	C 	0.79460 0.67200 0.49560 0.10300
C 	C 	0.32080 0.95590 0.81940 -0.13000
H 	H 	0.36480 0.93810 0.83950 0.08000
C 	C 	0.79600 0.60970 0.58540 -0.12700
H 	H 	0.83800 0.63230 0.60700 0.08300
C 	C 	0.03310 0.87500 0.53140 0.06200
H 	H 	0.05530 0.89720 0.51100 -0.01400
C 	C 	0.28470 0.10190 0.02310 0.04600
C 	C 	0.31980 0.00210 0.91260 0.09700
C 	C 	0.28750 0.99170 0.84870 0.05300
C 	C 	0.19220 0.18010 0.02120 0.05900
H 	H 	0.15080 0.20450 0.00030 -0.00400
C 	C 	0.67470 0.54060 0.52660 0.08300
H 	H 	0.63260 0.51740 0.50620 -0.01000
C 	C 	0.02670 0.85360 0.61640 0.05900
H 	H 	0.04400 0.86130 0.65620 -0.01300
C 	C 	0.49800 0.92730 0.09350 -0.13400
H 	H 	0.48020 0.95670 0.11460 0.08000
C 	C 	0.19290 0.00490 0.75810 0.06900
H 	H 	0.14870 0.02150 0.73720 -0.02200
C 	C 	0.31370 0.10990 0.08250 -0.12300
H 	H 	0.35550 0.08730 0.10480 0.07500
C 	C 	0.28780 0.94670 0.75980 0.07100
H 	H 	0.31050 0.92260 0.74050 -0.01100
C 	C 	0.55610 0.88360 0.12110 0.07700
H 	H 	0.57560 0.88210 0.16120 -0.00300
C 	C 	0.75470 0.79530 0.26340 0.06100
H 	H 	0.77370 0.83000 0.24590 -0.01200
C 	C 	0.69770 0.69850 0.31560 -0.13200
H 	H 	0.67570 0.66680 0.33220 0.08100
C 	C 	0.67170 0.70800 0.25640 0.07300
H 	H 	0.63250 0.68030 0.23380 -0.01500
C 	C 	0.22190 0.01650 0.81710 -0.13900
H 	H 	0.19790 0.04050 0.83530 0.07400
C 	C 	0.78490 0.78870 0.32270 -0.12700
H 	H 	0.82330 0.81840 0.34460 0.06800
N 	N 	0.06080 0.88380 0.58860 -0.20800
N 	N 	0.70440 0.53000 0.58310 -0.19000
N 	N 	0.69920 0.75430 0.22960 -0.19300
N 	N 	0.85220 0.71040 0.52820 -0.13800
N 	N 	0.76200 0.67740 0.43786 -0.13700
N 	N 	0.84710 0.76720 0.44120 -0.14200
N 	N 	0.22000 0.18670 0.07870 -0.20100
N 	N 	0.58640 0.84280 0.09330 -0.18500
N 	N 	0.22460 0.97100 0.72920 -0.19500
N 	N 	0.37390 0.01210 0.02746 -0.14200
N 	N 	0.37710 0.96300 0.94200 -0.13700
N 	N 	0.28850 0.04950 0.93590 -0.14800
Ag	Ag	0.15577 0.95737 0.63245 0.51000
Ag	Ag	0.17734 0.25389 0.13300 0.51300
C 	C 	0.37620 0.25650 0.49860 0.10000
C 	C 	0.90200 0.47070 0.99980 0.10100
C 	C 	0.77970 0.65230 0.10830 0.05400
H 	H 	0.79940 0.65690 0.14840 -0.02000
C 	C 	0.46720 0.31150 0.58980 -0.13300
H 	H 	0.44570 0.29050 0.61120 0.07900
C 	C 	0.44030 0.30130 0.53080 0.05600
C 	C 	0.72220 0.63840 0.99100 -0.12800
H 	H 	0.70140 0.63500 0.95090 0.07300
C 	C 	0.05600 0.34420 0.03590 0.07700
H 	H 	0.07610 0.31650 0.01580 -0.00900
C 	C 	0.26480 0.06450 0.61180 0.07500
H 	H 	0.28660 0.05750 0.65170 -0.00600
C 	C 	0.20220 0.08400 0.49540 -0.12800
H 	H 	0.18000 0.08820 0.45540 0.08300
C 	C 	0.25700 0.23680 0.34940 0.05500
C 	C 	0.81760 0.55220 0.99390 0.09300
C 	C 	0.99640 0.38450 0.00420 -0.12500
H 	H 	0.97680 0.38330 0.96400 0.08200
C 	C 	0.29030 0.22610 0.41300 0.10300
C 	C 	0.47420 0.33510 0.50100 -0.13600
H 	H 	0.45690 0.33060 0.46100 0.07300
C 	C 	0.96650 0.42660 0.03390 0.06300
C 	C 	0.26430 0.12130 0.52600 0.06500
C 	C 	0.29460 0.17200 0.49560 0.10300
C 	C 	0.82080 0.45590 0.81940 -0.13100
H 	H 	0.86480 0.43810 0.83950 0.08000
C 	C 	0.29600 0.10970 0.58540 -0.12700
H 	H 	0.33800 0.13230 0.60700 0.08300
C 	C 	0.53310 0.37500 0.53140 0.06100
H 	H 	0.55530 0.39720 0.51100 -0.01400
C 	C 	0.78470 0.60190 0.02310 0.05200
C 	C 	0.81980 0.50210 0.91260 0.09600
C 	C 	0.78750 0.49170 0.84870 0.05300
C 	C 	0.69220 0.68010 0.02120 0.06400
H 	H 	0.65080 0.70450 0.00030 -0.00600
C 	C 	0.17470 0.04060 0.52660 0.08300
H 	H 	0.13260 0.01740 0.50620 -0.01000
C 	C 	0.52670 0.35360 0.61640 0.05800
H 	H 	0.54400 0.36130 0.65620 -0.01300
C 	C 	0.99800 0.42730 0.09350 -0.13100
H 	H 	0.98020 0.45670 0.11460 0.07900
C 	C 	0.69290 0.50490 0.75810 0.06900
H 	H 	0.64870 0.52150 0.73720 -0.02200
C 	C 	0.81370 0.60990 0.08250 -0.12700
H 	H 	0.85550 0.58730 0.10480 0.07600
C 	C 	0.78780 0.44670 0.75980 0.07200
H 	H 	0.81050 0.42260 0.74050 -0.01100
C 	C 	0.05610 0.38360 0.12110 0.07400
H 	H 	0.07560 0.38210 0.16120 -0.00200
C 	C 	0.25470 0.29530 0.26340 0.06100
H 	H 	0.27370 0.33000 0.24590 -0.01200
C 	C 	0.19770 0.19850 0.31560 -0.13200
H 	H 	0.17570 0.16680 0.33220 0.08100
C 	C 	0.17170 0.20800 0.25640 0.07300
H 	H 	0.13250 0.18030 0.23380 -0.01500
C 	C 	0.72190 0.51650 0.81710 -0.14000
H 	H 	0.69790 0.54050 0.83530 0.07400
C 	C 	0.28490 0.28870 0.32270 -0.12700
H 	H 	0.32330 0.31840 0.34460 0.06800
N 	N 	0.56080 0.38380 0.58860 -0.20800
N 	N 	0.20440 0.03000 0.58310 -0.19000
N 	N 	0.19920 0.25430 0.22960 -0.19300
N 	N 	0.35220 0.21040 0.52820 -0.13800
N 	N 	0.26200 0.17740 0.43786 -0.13700
N 	N 	0.34710 0.26720 0.44120 -0.14200
N 	N 	0.72000 0.68670 0.07870 -0.20200
N 	N 	0.08640 0.34280 0.09330 -0.18400
N 	N 	0.72460 0.47100 0.72920 -0.19500
N 	N 	0.87390 0.51210 0.02746 -0.14000
N 	N 	0.87710 0.46300 0.94200 -0.13700
N 	N 	0.78850 0.54950 0.93590 -0.14800
Ag	Ag	0.34423 0.45737 0.86755 0.51000
Ag	Ag	0.32266 0.75389 0.36700 0.51300
C 	C 	0.12380 0.75650 0.00140 0.09900
C 	C 	0.59800 0.97070 0.50020 0.10200
C 	C 	0.72030 0.15230 0.39170 0.05300
H 	H 	0.70060 0.15690 0.35160 -0.02000
C 	C 	0.03280 0.81150 0.91020 -0.13000
H 	H 	0.05430 0.79050 0.88880 0.07800
C 	C 	0.05970 0.80130 0.96920 0.05400
C 	C 	0.77780 0.13840 0.50900 -0.12400
H 	H 	0.79860 0.13500 0.54910 0.07200
C 	C 	0.44400 0.84420 0.46410 0.08100
H 	H 	0.42390 0.81650 0.48420 -0.01000
C 	C 	0.23520 0.56450 0.88820 0.07600
H 	H 	0.21340 0.55750 0.84830 -0.00600
C 	C 	0.29780 0.58400 0.00460 -0.13100
H 	H 	0.32000 0.58820 0.04460 0.08400
C 	C 	0.24300 0.73680 0.15060 0.05500
C 	C 	0.68240 0.05220 0.50610 0.09500
C 	C 	0.50360 0.88450 0.49580 -0.13000
H 	H 	0.52320 0.88330 0.53600 0.08500
C 	C 	0.20970 0.72610 0.08700 0.10300
C 	C 	0.02580 0.83510 0.99900 -0.13000
H 	H 	0.04310 0.83060 0.03900 0.07100
C 	C 	0.53350 0.92660 0.46610 0.06500
C 	C 	0.23570 0.62130 0.97400 0.06800
C 	C 	0.20540 0.67200 0.00440 0.10100
C 	C 	0.67920 0.95590 0.68060 -0.13100
H 	H 	0.63520 0.93810 0.66050 0.08000
C 	C 	0.20400 0.60970 0.91460 -0.12900
H 	H 	0.16200 0.63230 0.89300 0.08300
C 	C 	0.96690 0.87500 0.96860 0.05700
H 	H 	0.94470 0.89720 0.98900 -0.01300
C 	C 	0.71530 0.10190 0.47690 0.04900
C 	C 	0.68020 0.00210 0.58740 0.09600
C 	C 	0.71250 0.99170 0.65130 0.05300
C 	C 	0.80780 0.18010 0.47880 0.06200
H 	H 	0.84920 0.20450 0.49970 -0.00500
C 	C 	0.32530 0.54060 0.97340 0.08500
H 	H 	0.36740 0.51740 0.99380 -0.01100
C 	C 	0.97330 0.85360 0.88360 0.05600
H 	H 	0.95600 0.86130 0.84380 -0.01300
C 	C 	0.50200 0.92730 0.40650 -0.13400
H 	H 	0.51980 0.95670 0.38540 0.08000
C 	C 	0.80710 0.00490 0.74190 0.06900
H 	H 	0.85130 0.02150 0.76280 -0.02200
C 	C 	0.68630 0.10990 0.41750 -0.12500
H 	H 	0.64450 0.08730 0.39520 0.07600
C 	C 	0.71220 0.94670 0.74020 0.07200
H 	H 	0.68950 0.92260 0.75950 -0.01100
C 	C 	0.44390 0.88360 0.37890 0.07700
H 	H 	0.42440 0.88210 0.33880 -0.00300
C 	C 	0.24530 0.79530 0.23660 0.06100
H 	H 	0.22630 0.83000 0.25410 -0.01200
C 	C 	0.30230 0.69850 0.18440 -0.13200
H 	H 	0.32430 0.66680 0.16780 0.08100
C 	C 	0.32830 0.70800 0.24360 0.07300
H 	H 	0.36750 0.68030 0.26620 -0.01500
C 	C 	0.77810 0.01650 0.68290 -0.14000
H 	H 	0.80210 0.04050 0.66470 0.07400
C 	C 	0.21510 0.78870 0.17730 -0.12700
H 	H 	0.17670 0.81840 0.15540 0.06800
N 	N 	0.93920 0.88380 0.91140 -0.20700
N 	N 	0.29560 0.53000 0.91690 -0.19000
N 	N 	0.30080 0.75430 0.27040 -0.19300
N 	N 	0.14780 0.71040 0.97180 -0.13700
N 	N 	0.23800 0.67740 0.06214 -0.13700
N 	N 	0.15290 0.76720 0.05880 -0.14200
N 	N 	0.78000 0.18670 0.42130 -0.20200
N 	N 	0.41360 0.84280 0.40670 -0.18500
N 	N 	0.77540 0.97100 0.77080 -0.19500
N 	N 	0.62610 0.01210 0.47254 -0.14100
N 	N 	0.62290 0.96300 0.55800 -0.13700
N 	N 	0.71150 0.04950 0.56410 -0.14800
Ag	Ag	0.84423 0.95737 0.86755 0.51000
Ag	Ag	0.82266 0.25389 0.36700 0.51300
C 	C 	0.62380 0.25650 0.00140 0.10000
C 	C 	0.09800 0.47070 0.50020 0.10200
C 	C 	0.22030 0.65230 0.39170 0.05300
H 	H 	0.20060 0.65690 0.35160 -0.02000
C 	C 	0.53280 0.31150 0.91020 -0.13300
H 	H 	0.55430 0.29050 0.88880 0.07900
C 	C 	0.55970 0.30130 0.96920 0.05600
C 	C 	0.27780 0.63840 0.50900 -0.12400
H 	H 	0.29860 0.63500 0.54910 0.07200
C 	C 	0.94400 0.34420 0.46410 0.08200
H 	H 	0.92390 0.31650 0.48420 -0.01000
C 	C 	0.73520 0.06450 0.88820 0.07500
H 	H 	0.71340 0.05750 0.84830 -0.00500
C 	C 	0.79780 0.08400 0.00460 -0.12600
H 	H 	0.82000 0.08820 0.04460 0.08300
C 	C 	0.74300 0.23680 0.15060 0.05500
C 	C 	0.18240 0.55220 0.50610 0.09500
C 	C 	0.00360 0.38450 0.49580 -0.13100
H 	H 	0.02320 0.38330 0.53600 0.08500
C 	C 	0.70970 0.22610 0.08700 0.10300
C 	C 	0.52580 0.33510 0.99900 -0.13600
H 	H 	0.54310 0.33060 0.03900 0.07300
C 	C 	0.03350 0.42660 0.46610 0.06500
C 	C 	0.73570 0.12130 0.97400 0.06300
C 	C 	0.70540 0.17200 0.00440 0.10400
C 	C 	0.17920 0.45590 0.68060 -0.13100
H 	H 	0.13520 0.43810 0.66050 0.08000
C 	C 	0.70400 0.10970 0.91460 -0.12600
H 	H 	0.66200 0.13230 0.89300 0.08200
C 	C 	0.46690 0.37500 0.96860 0.06200
H 	H 	0.44470 0.39720 0.98900 -0.01400
C 	C 	0.21530 0.60190 0.47690 0.04900
C 	C 	0.18020 0.50210 0.58740 0.09600
C 	C 	0.21250 0.49170 0.65130 0.05300
C 	C 	0.30780 0.68010 0.47880 0.06200
H 	H 	0.34920 0.70450 0.49970 -0.00500
C 	C 	0.82530 0.04060 0.97340 0.08100
H 	H 	0.86740 0.01740 0.99380 -0.01000
C 	C 	0.47330 0.35360 0.88360 0.05800
H 	H 	0.45600 0.36130 0.84380 -0.01300
C 	C 	0.00200 0.42730 0.40650 -0.13500
H 	H 	0.01980 0.45670 0.38540 0.08000
C 	C 	0.30710 0.50490 0.74190 0.06900
H 	H 	0.35130 0.52150 0.76280 -0.02200
C 	C 	0.18630 0.60990 0.41750 -0.12500
H 	H 	0.14450 0.58730 0.39520 0.07600
C 	C 	0.21220 0.44670 0.74020 0.07200
H 	H 	0.18950 0.42260 0.75950 -0.01100
C 	C 	0.94390 0.38360 0.37890 0.07800
H 	H 	0.92440 0.38210 0.33880 -0.00300
C 	C 	0.74530 0.29530 0.23660 0.06100
H 	H 	0.72630 0.33000 0.25410 -0.01200
C 	C 	0.80230 0.19850 0.18440 -0.13200
H 	H 	0.82430 0.16680 0.16780 0.08100
C 	C 	0.82830 0.20800 0.24360 0.07300
H 	H 	0.86750 0.18030 0.26620 -0.01400
C 	C 	0.27810 0.51650 0.68290 -0.14000
H 	H 	0.30210 0.54050 0.66470 0.07400
C 	C 	0.71510 0.28870 0.17730 -0.12700
H 	H 	0.67670 0.31840 0.15540 0.06800
N 	N 	0.43920 0.38380 0.91140 -0.20800
N 	N 	0.79560 0.03000 0.91690 -0.18900
N 	N 	0.80080 0.25430 0.27040 -0.19300
N 	N 	0.64780 0.21040 0.97180 -0.13800
N 	N 	0.73800 0.17740 0.06214 -0.13800
N 	N 	0.65290 0.26720 0.05880 -0.14200
N 	N 	0.28000 0.68670 0.42130 -0.20200
N 	N 	0.91360 0.34280 0.40670 -0.18500
N 	N 	0.27540 0.47100 0.77080 -0.19500
N 	N 	0.12610 0.51210 0.47254 -0.14100
N 	N 	0.12290 0.46300 0.55800 -0.13700
N 	N 	0.21150 0.54950 0.56410 -0.14800
