data_crystal

_cell_length_a 22.02900
_cell_length_b 16.48610
_cell_length_c 25.58870
_cell_angle_alpha 90.00000
_cell_angle_beta  115.23300
_cell_angle_gamma 90.00000

_symmetry_space_group_name_	'P 1'
_symmetry_space_group_name_H-M	'P 1'

loop_
_symmetry_equiv_pos_as_xyz
  x,y,z

loop_
_atom_site_label
_atom_site_type_symbol
_atom_site_fract_x
_atom_site_fract_y
_atom_site_fract_z
_atom_site_charge
Ag	Ag	0.34427 0.04257 0.36763 0.51100
Ag	Ag	0.82266 0.24623 0.86705 0.51400
C 	C 	0.09770 0.02930 0.00030 0.10000
C 	C 	0.27750 0.86190 0.00870 -0.12600
H 	H 	0.29830 0.86540 0.04880 0.07300
C 	C 	0.62370 0.24320 0.50150 0.10000
C 	C 	0.55980 0.19830 0.46910 0.05800
C 	C 	0.73550 0.43560 0.38820 0.07700
H 	H 	0.71370 0.44270 0.34840 -0.00600
C 	C 	0.79780 0.41610 0.50470 -0.12600
H 	H 	0.82000 0.41210 0.54470 0.08300
C 	C 	0.94390 0.15630 0.96420 0.07400
H 	H 	0.92390 0.18430 0.98420 -0.00800
C 	C 	0.21990 0.84730 0.89170 0.05300
H 	H 	0.19990 0.84250 0.85170 -0.01900
C 	C 	0.53290 0.18810 0.41030 -0.13600
H 	H 	0.55440 0.20910 0.38890 0.08000
C 	C 	0.70980 0.27330 0.58680 0.10300
C 	C 	0.00360 0.11580 0.99580 -0.12200
H 	H 	0.02320 0.11710 0.03600 0.08200
C 	C 	0.74350 0.26330 0.65090 0.05800
C 	C 	0.18020 0.99770 0.08740 0.09500
C 	C 	0.18230 0.94820 0.00630 0.09500
C 	C 	0.17930 0.04390 0.18070 -0.13300
H 	H 	0.13540 0.06200 0.16070 0.08100
C 	C 	0.03340 0.07360 0.96610 0.06300
C 	C 	0.52610 0.16450 0.49910 -0.13700
H 	H 	0.54350 0.16880 0.53910 0.07300
C 	C 	0.73570 0.37890 0.47410 0.06400
C 	C 	0.21510 0.89850 0.97700 0.05100
C 	C 	0.70380 0.39020 0.41460 -0.12700
H 	H 	0.66180 0.36750 0.39300 0.08300
C 	C 	0.70540 0.32780 0.50460 0.10500
C 	C 	0.21230 0.00750 0.15140 0.05400
C 	C 	0.18610 0.88970 0.91800 -0.12600
H 	H 	0.14420 0.91210 0.89580 0.07600
C 	C 	0.82550 0.45920 0.47370 0.07900
H 	H 	0.86760 0.48210 0.49390 -0.00900
C 	C 	0.47340 0.14630 0.38360 0.06300
H 	H 	0.45610 0.13850 0.34390 -0.01500
C 	C 	0.30790 0.81980 0.97860 0.06200
H 	H 	0.34940 0.79550 0.99950 -0.00500
C 	C 	0.46700 0.12470 0.46850 0.06200
H 	H 	0.44480 0.10220 0.48890 -0.01500
C 	C 	0.00200 0.07250 0.90630 -0.13200
H 	H 	0.01950 0.04240 0.88530 0.07900
C 	C 	0.30700 0.99470 0.24170 0.06900
H 	H 	0.35120 0.97780 0.26260 -0.02100
C 	C 	0.80210 0.30150 0.68440 -0.13500
H 	H 	0.82400 0.33340 0.66780 0.08200
C 	C 	0.94420 0.11690 0.87890 0.07600
H 	H 	0.92530 0.11930 0.83880 -0.00300
C 	C 	0.74550 0.20490 0.73670 0.06300
H 	H 	0.72650 0.17010 0.75430 -0.01300
C 	C 	0.21190 0.05330 0.23960 0.07200
H 	H 	0.18900 0.07760 0.25870 -0.01100
C 	C 	0.27820 0.98320 0.18280 -0.14000
H 	H 	0.30240 0.95960 0.16460 0.07400
C 	C 	0.71500 0.21140 0.67720 -0.13000
H 	H 	0.67650 0.18200 0.65530 0.06900
C 	C 	0.82850 0.29190 0.74400 0.07600
H 	H 	0.86790 0.31930 0.76660 -0.01600
N 	N 	0.43940 0.11640 0.41130 -0.20900
N 	N 	0.79540 0.46980 0.41660 -0.19000
N 	N 	0.80080 0.24600 0.77040 -0.19400
N 	N 	0.65290 0.23270 0.55850 -0.14300
N 	N 	0.73780 0.32240 0.56210 -0.13800
N 	N 	0.64790 0.28970 0.47190 -0.13800
N 	N 	0.91350 0.15710 0.90640 -0.18300
N 	N 	0.27970 0.81300 0.92120 -0.20200
N 	N 	0.27560 0.02880 0.27100 -0.19500
N 	N 	0.12270 0.03730 0.05800 -0.13700
N 	N 	0.12610 0.98770 0.97260 -0.14000
N 	N 	0.21140 0.95010 0.06410 -0.14800
Ag	Ag	0.84427 0.54257 0.36763 0.51000
Ag	Ag	0.32266 0.74623 0.86705 0.51300
C 	C 	0.59770 0.52930 0.00030 0.10200
C 	C 	0.77750 0.36190 0.00870 -0.12000
H 	H 	0.79830 0.36540 0.04880 0.07100
C 	C 	0.12370 0.74320 0.50150 0.10000
C 	C 	0.05980 0.69830 0.46910 0.05800
C 	C 	0.23550 0.93560 0.38820 0.07700
H 	H 	0.21370 0.94270 0.34840 -0.00600
C 	C 	0.29780 0.91610 0.50470 -0.12600
H 	H 	0.32000 0.91210 0.54470 0.08300
C 	C 	0.44390 0.65630 0.96420 0.07800
H 	H 	0.42390 0.68430 0.98420 -0.00900
C 	C 	0.71990 0.34730 0.89170 0.05100
H 	H 	0.69990 0.34250 0.85170 -0.01900
C 	C 	0.03290 0.68810 0.41030 -0.13700
H 	H 	0.05440 0.70910 0.38890 0.08000
C 	C 	0.20980 0.77330 0.58680 0.10300
C 	C 	0.50360 0.61580 0.99580 -0.12900
H 	H 	0.52320 0.61710 0.03600 0.08500
C 	C 	0.24350 0.76330 0.65090 0.05800
C 	C 	0.68020 0.49770 0.08740 0.09500
C 	C 	0.68230 0.44820 0.00630 0.09800
C 	C 	0.67930 0.54390 0.18070 -0.13300
H 	H 	0.63540 0.56200 0.16070 0.08100
C 	C 	0.53340 0.57360 0.96610 0.06400
C 	C 	0.02610 0.66450 0.49910 -0.13700
H 	H 	0.04350 0.66880 0.53910 0.07400
C 	C 	0.23570 0.87890 0.47410 0.06400
C 	C 	0.71510 0.39850 0.97700 0.04700
C 	C 	0.20380 0.89020 0.41460 -0.12700
H 	H 	0.16180 0.86750 0.39300 0.08300
C 	C 	0.20540 0.82780 0.50460 0.10500
C 	C 	0.71230 0.50750 0.15140 0.05500
C 	C 	0.68610 0.38970 0.91800 -0.12300
H 	H 	0.64420 0.41210 0.89580 0.07500
C 	C 	0.32550 0.95920 0.47370 0.07900
H 	H 	0.36760 0.98210 0.49390 -0.00900
C 	C 	0.97340 0.64630 0.38360 0.06300
H 	H 	0.95610 0.63850 0.34390 -0.01500
C 	C 	0.80790 0.31980 0.97860 0.05900
H 	H 	0.84940 0.29550 0.99950 -0.00500
C 	C 	0.96700 0.62470 0.46850 0.06200
H 	H 	0.94480 0.60220 0.48890 -0.01500
C 	C 	0.50200 0.57250 0.90630 -0.13500
H 	H 	0.51950 0.54240 0.88530 0.08000
C 	C 	0.80700 0.49470 0.24170 0.06900
H 	H 	0.85120 0.47780 0.26260 -0.02100
C 	C 	0.30210 0.80150 0.68440 -0.13500
H 	H 	0.32400 0.83340 0.66780 0.08200
C 	C 	0.44420 0.61690 0.87890 0.07900
H 	H 	0.42530 0.61930 0.83880 -0.00400
C 	C 	0.24550 0.70490 0.73670 0.06300
H 	H 	0.22650 0.67010 0.75430 -0.01300
C 	C 	0.71190 0.55330 0.23960 0.07200
H 	H 	0.68900 0.57760 0.25870 -0.01100
C 	C 	0.77820 0.48320 0.18280 -0.14100
H 	H 	0.80240 0.45960 0.16460 0.07400
C 	C 	0.21500 0.71140 0.67720 -0.13000
H 	H 	0.17650 0.68200 0.65530 0.06900
C 	C 	0.32850 0.79190 0.74400 0.07600
H 	H 	0.36790 0.81930 0.76660 -0.01600
N 	N 	0.93940 0.61640 0.41130 -0.20900
N 	N 	0.29540 0.96980 0.41660 -0.19000
N 	N 	0.30080 0.74600 0.77040 -0.19400
N 	N 	0.15290 0.73270 0.55850 -0.14300
N 	N 	0.23780 0.82240 0.56210 -0.13800
N 	N 	0.14790 0.78970 0.47190 -0.13800
N 	N 	0.41350 0.65710 0.90640 -0.18400
N 	N 	0.77970 0.31300 0.92120 -0.20100
N 	N 	0.77560 0.52880 0.27100 -0.19500
N 	N 	0.62270 0.53730 0.05800 -0.13700
N 	N 	0.62610 0.48770 0.97260 -0.14200
N 	N 	0.71140 0.45010 0.06410 -0.14900
Ag	Ag	0.65573 0.04257 0.13237 0.51000
Ag	Ag	0.17734 0.24623 0.63295 0.51300
C 	C 	0.90230 0.02930 0.49970 0.10100
C 	C 	0.72250 0.86190 0.49130 -0.12300
H 	H 	0.70170 0.86540 0.45120 0.07200
C 	C 	0.37630 0.24320 0.99850 0.10100
C 	C 	0.44020 0.19830 0.03090 0.05700
C 	C 	0.26450 0.43560 0.11180 0.07600
H 	H 	0.28630 0.44270 0.15160 -0.00600
C 	C 	0.20220 0.41610 0.99530 -0.12300
H 	H 	0.18000 0.41210 0.95530 0.08200
C 	C 	0.05610 0.15630 0.53580 0.07800
H 	H 	0.07610 0.18430 0.51580 -0.00900
C 	C 	0.78010 0.84730 0.60830 0.05200
H 	H 	0.80010 0.84250 0.64830 -0.01900
C 	C 	0.46710 0.18810 0.08970 -0.13600
H 	H 	0.44560 0.20910 0.11110 0.08000
C 	C 	0.29020 0.27330 0.91320 0.10300
C 	C 	0.99640 0.11580 0.50420 -0.12900
H 	H 	0.97680 0.11710 0.46400 0.08500
C 	C 	0.25650 0.26330 0.84910 0.05800
C 	C 	0.81980 0.99770 0.41260 0.09500
C 	C 	0.81770 0.94820 0.49370 0.09700
C 	C 	0.82070 0.04390 0.31930 -0.13300
H 	H 	0.86460 0.06200 0.33930 0.08100
C 	C 	0.96660 0.07360 0.53390 0.06500
C 	C 	0.47390 0.16450 0.00090 -0.13700
H 	H 	0.45650 0.16880 0.96090 0.07400
C 	C 	0.26430 0.37890 0.02590 0.06100
C 	C 	0.78490 0.89850 0.52300 0.04900
C 	C 	0.29620 0.39020 0.08540 -0.12500
H 	H 	0.33820 0.36750 0.10700 0.08200
C 	C 	0.29460 0.32780 0.99540 0.10600
C 	C 	0.78770 0.00750 0.34860 0.05400
C 	C 	0.81390 0.88970 0.58200 -0.12400
H 	H 	0.85580 0.91210 0.60420 0.07600
C 	C 	0.17450 0.45920 0.02630 0.07700
H 	H 	0.13240 0.48210 0.00610 -0.00900
C 	C 	0.52660 0.14630 0.11640 0.06300
H 	H 	0.54390 0.13850 0.15610 -0.01500
C 	C 	0.69210 0.81980 0.52140 0.06100
H 	H 	0.65060 0.79550 0.50050 -0.00500
C 	C 	0.53300 0.12470 0.03150 0.06200
H 	H 	0.55520 0.10220 0.01110 -0.01500
C 	C 	0.99800 0.07250 0.59370 -0.13600
H 	H 	0.98050 0.04240 0.61470 0.08000
C 	C 	0.69300 0.99470 0.25830 0.06900
H 	H 	0.64880 0.97780 0.23740 -0.02100
C 	C 	0.19790 0.30150 0.81560 -0.13500
H 	H 	0.17600 0.33340 0.83220 0.08200
C 	C 	0.05580 0.11690 0.62110 0.07900
H 	H 	0.07470 0.11930 0.66120 -0.00400
C 	C 	0.25450 0.20490 0.76330 0.06300
H 	H 	0.27350 0.17010 0.74570 -0.01300
C 	C 	0.78810 0.05330 0.26040 0.07200
H 	H 	0.81100 0.07760 0.24130 -0.01100
C 	C 	0.72180 0.98320 0.31720 -0.14100
H 	H 	0.69760 0.95960 0.33540 0.07400
C 	C 	0.28500 0.21140 0.82280 -0.13000
H 	H 	0.32350 0.18200 0.84470 0.06900
C 	C 	0.17150 0.29190 0.75600 0.07600
H 	H 	0.13210 0.31930 0.73340 -0.01600
N 	N 	0.56060 0.11640 0.08870 -0.20900
N 	N 	0.20460 0.46980 0.08340 -0.18900
N 	N 	0.19920 0.24600 0.72960 -0.19400
N 	N 	0.34710 0.23270 0.94150 -0.14300
N 	N 	0.26220 0.32240 0.93790 -0.13900
N 	N 	0.35210 0.28970 0.02810 -0.13900
N 	N 	0.08650 0.15710 0.59360 -0.18500
N 	N 	0.72030 0.81300 0.57880 -0.20200
N 	N 	0.72440 0.02880 0.22900 -0.19500
N 	N 	0.87730 0.03730 0.44200 -0.13700
N 	N 	0.87390 0.98770 0.52740 -0.14200
N 	N 	0.78860 0.95010 0.43590 -0.14900
Ag	Ag	0.15573 0.54257 0.13237 0.51000
Ag	Ag	0.67734 0.74623 0.63295 0.51300
C 	C 	0.40230 0.52930 0.49970 0.10100
C 	C 	0.22250 0.36190 0.49130 -0.12300
H 	H 	0.20170 0.36540 0.45120 0.07200
C 	C 	0.87630 0.74320 0.99850 0.09900
C 	C 	0.94020 0.69830 0.03090 0.05600
C 	C 	0.76450 0.93560 0.11180 0.07800
H 	H 	0.78630 0.94270 0.15160 -0.00700
C 	C 	0.70220 0.91610 0.99530 -0.13100
H 	H 	0.68000 0.91210 0.95530 0.08400
C 	C 	0.55610 0.65630 0.53580 0.07800
H 	H 	0.57610 0.68430 0.51580 -0.00900
C 	C 	0.28010 0.34730 0.60830 0.05200
H 	H 	0.30010 0.34250 0.64830 -0.01900
C 	C 	0.96710 0.68810 0.08970 -0.13300
H 	H 	0.94560 0.70910 0.11110 0.07900
C 	C 	0.79020 0.77330 0.91320 0.10300
C 	C 	0.49640 0.61580 0.50420 -0.12800
H 	H 	0.47680 0.61710 0.46400 0.08400
C 	C 	0.75650 0.76330 0.84910 0.05800
C 	C 	0.31980 0.49770 0.41260 0.09500
C 	C 	0.31770 0.44820 0.49370 0.09700
C 	C 	0.32070 0.54390 0.31930 -0.13300
H 	H 	0.36460 0.56200 0.33930 0.08100
C 	C 	0.46660 0.57360 0.53390 0.06400
C 	C 	0.97390 0.66450 0.00090 -0.13100
H 	H 	0.95650 0.66880 0.96090 0.07100
C 	C 	0.76430 0.87890 0.02590 0.06800
C 	C 	0.28490 0.39850 0.52300 0.04900
C 	C 	0.79620 0.89020 0.08540 -0.12900
H 	H 	0.83820 0.86750 0.10700 0.08400
C 	C 	0.79460 0.82780 0.99540 0.10200
C 	C 	0.28770 0.50750 0.34860 0.05500
C 	C 	0.31390 0.38970 0.58200 -0.12400
H 	H 	0.35580 0.41210 0.60420 0.07600
C 	C 	0.67450 0.95920 0.02630 0.08200
H 	H 	0.63240 0.98210 0.00610 -0.01000
C 	C 	0.02660 0.64630 0.11640 0.06000
H 	H 	0.04390 0.63850 0.15610 -0.01400
C 	C 	0.19210 0.31980 0.52140 0.06100
H 	H 	0.15060 0.29550 0.50050 -0.00500
C 	C 	0.03300 0.62470 0.03150 0.05800
H 	H 	0.05520 0.60220 0.01110 -0.01300
C 	C 	0.49800 0.57250 0.59370 -0.13500
H 	H 	0.48050 0.54240 0.61470 0.08000
C 	C 	0.19300 0.49470 0.25830 0.06900
H 	H 	0.14880 0.47780 0.23740 -0.02200
C 	C 	0.69790 0.80150 0.81560 -0.13500
H 	H 	0.67600 0.83340 0.83220 0.08200
C 	C 	0.55580 0.61690 0.62110 0.07900
H 	H 	0.57470 0.61930 0.66120 -0.00400
C 	C 	0.75450 0.70490 0.76330 0.06300
H 	H 	0.77350 0.67010 0.74570 -0.01300
C 	C 	0.28810 0.55330 0.26040 0.07200
H 	H 	0.31100 0.57760 0.24130 -0.01100
C 	C 	0.22180 0.48320 0.31720 -0.14100
H 	H 	0.19760 0.45960 0.33540 0.07400
C 	C 	0.78500 0.71140 0.82280 -0.13000
H 	H 	0.82350 0.68200 0.84470 0.06900
C 	C 	0.67150 0.79190 0.75600 0.07600
H 	H 	0.63210 0.81930 0.73340 -0.01600
N 	N 	0.06060 0.61640 0.08870 -0.20800
N 	N 	0.70460 0.96980 0.08340 -0.19000
N 	N 	0.69920 0.74600 0.72960 -0.19400
N 	N 	0.84710 0.73270 0.94150 -0.14300
N 	N 	0.76220 0.82240 0.93790 -0.13800
N 	N 	0.85210 0.78970 0.02810 -0.13700
N 	N 	0.58650 0.65710 0.59360 -0.18400
N 	N 	0.22030 0.31300 0.57880 -0.20200
N 	N 	0.22440 0.52880 0.22900 -0.19500
N 	N 	0.37730 0.53730 0.44200 -0.13700
N 	N 	0.37390 0.48770 0.52740 -0.14200
N 	N 	0.28860 0.45010 0.43590 -0.14900
Ag	Ag	0.65573 0.95743 0.63237 0.51000
Ag	Ag	0.17734 0.75377 0.13295 0.51300
C 	C 	0.90230 0.97070 0.99970 0.10000
C 	C 	0.72250 0.13810 0.99130 -0.12600
H 	H 	0.70170 0.13460 0.95120 0.07300
C 	C 	0.37630 0.75680 0.49850 0.10000
C 	C 	0.44020 0.80170 0.53090 0.05800
C 	C 	0.26450 0.56440 0.61180 0.07700
H 	H 	0.28630 0.55730 0.65160 -0.00600
C 	C 	0.20220 0.58390 0.49530 -0.12600
H 	H 	0.18000 0.58790 0.45530 0.08300
C 	C 	0.05610 0.84370 0.03580 0.07400
H 	H 	0.07610 0.81570 0.01580 -0.00800
C 	C 	0.78010 0.15270 0.10830 0.05300
H 	H 	0.80010 0.15750 0.14830 -0.01900
C 	C 	0.46710 0.81190 0.58970 -0.13600
H 	H 	0.44560 0.79090 0.61110 0.08000
C 	C 	0.29020 0.72670 0.41320 0.10300
C 	C 	0.99640 0.88420 0.00420 -0.12200
H 	H 	0.97680 0.88290 0.96400 0.08200
C 	C 	0.25650 0.73670 0.34910 0.05800
C 	C 	0.81980 0.00230 0.91260 0.09500
C 	C 	0.81770 0.05180 0.99370 0.09500
C 	C 	0.82070 0.95610 0.81930 -0.13300
H 	H 	0.86460 0.93800 0.83930 0.08100
C 	C 	0.96660 0.92640 0.03390 0.06300
C 	C 	0.47390 0.83550 0.50090 -0.13700
H 	H 	0.45650 0.83120 0.46090 0.07300
C 	C 	0.26430 0.62110 0.52590 0.06400
C 	C 	0.78490 0.10150 0.02300 0.05100
C 	C 	0.29620 0.60980 0.58540 -0.12700
H 	H 	0.33820 0.63250 0.60700 0.08300
C 	C 	0.29460 0.67220 0.49540 0.10500
C 	C 	0.78770 0.99250 0.84860 0.05400
C 	C 	0.81390 0.11030 0.08200 -0.12600
H 	H 	0.85580 0.08790 0.10420 0.07600
C 	C 	0.17450 0.54080 0.52630 0.07900
H 	H 	0.13240 0.51790 0.50610 -0.00900
C 	C 	0.52660 0.85370 0.61640 0.06300
H 	H 	0.54390 0.86150 0.65610 -0.01500
C 	C 	0.69210 0.18020 0.02140 0.06200
H 	H 	0.65060 0.20450 0.00050 -0.00500
C 	C 	0.53300 0.87530 0.53150 0.06200
H 	H 	0.55520 0.89780 0.51110 -0.01500
C 	C 	0.99800 0.92750 0.09370 -0.13200
H 	H 	0.98050 0.95760 0.11470 0.07900
C 	C 	0.69300 0.00530 0.75830 0.06900
H 	H 	0.64880 0.02220 0.73740 -0.02100
C 	C 	0.19790 0.69850 0.31560 -0.13500
H 	H 	0.17600 0.66660 0.33220 0.08200
C 	C 	0.05580 0.88310 0.12110 0.07600
H 	H 	0.07470 0.88070 0.16120 -0.00300
C 	C 	0.25450 0.79510 0.26330 0.06300
H 	H 	0.27350 0.82990 0.24570 -0.01300
C 	C 	0.78810 0.94670 0.76040 0.07200
H 	H 	0.81100 0.92240 0.74130 -0.01100
C 	C 	0.72180 0.01680 0.81720 -0.14000
H 	H 	0.69760 0.04040 0.83540 0.07400
C 	C 	0.28500 0.78860 0.32280 -0.13000
H 	H 	0.32350 0.81800 0.34470 0.06900
C 	C 	0.17150 0.70810 0.25600 0.07600
H 	H 	0.13210 0.68070 0.23340 -0.01600
N 	N 	0.56060 0.88360 0.58870 -0.20900
N 	N 	0.20460 0.53020 0.58340 -0.19000
N 	N 	0.19920 0.75400 0.22960 -0.19400
N 	N 	0.34710 0.76730 0.44150 -0.14300
N 	N 	0.26220 0.67760 0.43790 -0.13800
N 	N 	0.35210 0.71030 0.52810 -0.13800
N 	N 	0.08650 0.84290 0.09360 -0.18300
N 	N 	0.72030 0.18700 0.07880 -0.20200
N 	N 	0.72440 0.97120 0.72900 -0.19500
N 	N 	0.87730 0.96270 0.94200 -0.13700
N 	N 	0.87390 0.01230 0.02740 -0.14000
N 	N 	0.78860 0.04990 0.93590 -0.14800
Ag	Ag	0.15573 0.45743 0.63237 0.51000
Ag	Ag	0.67734 0.25377 0.13295 0.51300
C 	C 	0.40230 0.47070 0.99970 0.10200
C 	C 	0.22250 0.63810 0.99130 -0.12000
H 	H 	0.20170 0.63460 0.95120 0.07100
C 	C 	0.87630 0.25680 0.49850 0.10000
C 	C 	0.94020 0.30170 0.53090 0.05800
C 	C 	0.76450 0.06440 0.61180 0.07700
H 	H 	0.78630 0.05730 0.65160 -0.00600
C 	C 	0.70220 0.08390 0.49530 -0.12600
H 	H 	0.68000 0.08790 0.45530 0.08300
C 	C 	0.55610 0.34370 0.03580 0.07800
H 	H 	0.57610 0.31570 0.01580 -0.00900
C 	C 	0.28010 0.65270 0.10830 0.05100
H 	H 	0.30010 0.65750 0.14830 -0.01900
C 	C 	0.96710 0.31190 0.58970 -0.13700
H 	H 	0.94560 0.29090 0.61110 0.08000
C 	C 	0.79020 0.22670 0.41320 0.10300
C 	C 	0.49640 0.38420 0.00420 -0.12900
H 	H 	0.47680 0.38290 0.96400 0.08500
C 	C 	0.75650 0.23670 0.34910 0.05800
C 	C 	0.31980 0.50230 0.91260 0.09500
C 	C 	0.31770 0.55180 0.99370 0.09800
C 	C 	0.32070 0.45610 0.81930 -0.13300
H 	H 	0.36460 0.43800 0.83930 0.08100
C 	C 	0.46660 0.42640 0.03390 0.06400
C 	C 	0.97390 0.33550 0.50090 -0.13700
H 	H 	0.95650 0.33120 0.46090 0.07400
C 	C 	0.76430 0.12110 0.52590 0.06400
C 	C 	0.28490 0.60150 0.02300 0.04700
C 	C 	0.79620 0.10980 0.58540 -0.12700
H 	H 	0.83820 0.13250 0.60700 0.08300
C 	C 	0.79460 0.17220 0.49540 0.10500
C 	C 	0.28770 0.49250 0.84860 0.05500
C 	C 	0.31390 0.61030 0.08200 -0.12300
H 	H 	0.35580 0.58790 0.10420 0.07500
C 	C 	0.67450 0.04080 0.52630 0.07900
H 	H 	0.63240 0.01790 0.50610 -0.00900
C 	C 	0.02660 0.35370 0.61640 0.06300
H 	H 	0.04390 0.36150 0.65610 -0.01500
C 	C 	0.19210 0.68020 0.02140 0.05900
H 	H 	0.15060 0.70450 0.00050 -0.00500
C 	C 	0.03300 0.37530 0.53150 0.06200
H 	H 	0.05520 0.39780 0.51110 -0.01500
C 	C 	0.49800 0.42750 0.09370 -0.13500
H 	H 	0.48050 0.45760 0.11470 0.08000
C 	C 	0.19300 0.50530 0.75830 0.06900
H 	H 	0.14880 0.52220 0.73740 -0.02100
C 	C 	0.69790 0.19850 0.31560 -0.13500
H 	H 	0.67600 0.16660 0.33220 0.08200
C 	C 	0.55580 0.38310 0.12110 0.07900
H 	H 	0.57470 0.38070 0.16120 -0.00400
C 	C 	0.75450 0.29510 0.26330 0.06300
H 	H 	0.77350 0.32990 0.24570 -0.01300
C 	C 	0.28810 0.44670 0.76040 0.07200
H 	H 	0.31100 0.42240 0.74130 -0.01100
C 	C 	0.22180 0.51680 0.81720 -0.14100
H 	H 	0.19760 0.54040 0.83540 0.07400
C 	C 	0.78500 0.28860 0.32280 -0.13000
H 	H 	0.82350 0.31800 0.34470 0.06900
C 	C 	0.67150 0.20810 0.25600 0.07600
H 	H 	0.63210 0.18070 0.23340 -0.01600
N 	N 	0.06060 0.38360 0.58870 -0.20900
N 	N 	0.70460 0.03020 0.58340 -0.19000
N 	N 	0.69920 0.25400 0.22960 -0.19400
N 	N 	0.84710 0.26730 0.44150 -0.14300
N 	N 	0.76220 0.17760 0.43790 -0.13800
N 	N 	0.85210 0.21030 0.52810 -0.13800
N 	N 	0.58650 0.34290 0.09360 -0.18400
N 	N 	0.22030 0.68700 0.07880 -0.20100
N 	N 	0.22440 0.47120 0.72900 -0.19500
N 	N 	0.37730 0.46270 0.94200 -0.13700
N 	N 	0.37390 0.51230 0.02740 -0.14200
N 	N 	0.28860 0.54990 0.93590 -0.14900
Ag	Ag	0.34427 0.95743 0.86763 0.51000
Ag	Ag	0.82266 0.75377 0.36705 0.51300
C 	C 	0.09770 0.97070 0.50030 0.10100
C 	C 	0.27750 0.13810 0.50870 -0.12300
H 	H 	0.29830 0.13460 0.54880 0.07200
C 	C 	0.62370 0.75680 0.00150 0.10100
C 	C 	0.55980 0.80170 0.96910 0.05700
C 	C 	0.73550 0.56440 0.88820 0.07600
H 	H 	0.71370 0.55730 0.84840 -0.00600
C 	C 	0.79780 0.58390 0.00470 -0.12300
H 	H 	0.82000 0.58790 0.04470 0.08200
C 	C 	0.94390 0.84370 0.46420 0.07800
H 	H 	0.92390 0.81570 0.48420 -0.00900
C 	C 	0.21990 0.15270 0.39170 0.05200
H 	H 	0.19990 0.15750 0.35170 -0.01900
C 	C 	0.53290 0.81190 0.91030 -0.13600
H 	H 	0.55440 0.79090 0.88890 0.08000
C 	C 	0.70980 0.72670 0.08680 0.10300
C 	C 	0.00360 0.88420 0.49580 -0.12900
H 	H 	0.02320 0.88290 0.53600 0.08500
C 	C 	0.74350 0.73670 0.15090 0.05800
C 	C 	0.18020 0.00230 0.58740 0.09500
C 	C 	0.18230 0.05180 0.50630 0.09700
C 	C 	0.17930 0.95610 0.68070 -0.13300
H 	H 	0.13540 0.93800 0.66070 0.08100
C 	C 	0.03340 0.92640 0.46610 0.06500
C 	C 	0.52610 0.83550 0.99910 -0.13700
H 	H 	0.54350 0.83120 0.03910 0.07400
C 	C 	0.73570 0.62110 0.97410 0.06100
C 	C 	0.21510 0.10150 0.47700 0.04900
C 	C 	0.70380 0.60980 0.91460 -0.12500
H 	H 	0.66180 0.63250 0.89300 0.08200
C 	C 	0.70540 0.67220 0.00460 0.10600
C 	C 	0.21230 0.99250 0.65140 0.05400
C 	C 	0.18610 0.11030 0.41800 -0.12400
H 	H 	0.14420 0.08790 0.39580 0.07600
C 	C 	0.82550 0.54080 0.97370 0.07700
H 	H 	0.86760 0.51790 0.99390 -0.00900
C 	C 	0.47340 0.85370 0.88360 0.06300
H 	H 	0.45610 0.86150 0.84390 -0.01500
C 	C 	0.30790 0.18020 0.47860 0.06100
H 	H 	0.34940 0.20450 0.49950 -0.00500
C 	C 	0.46700 0.87530 0.96850 0.06200
H 	H 	0.44480 0.89780 0.98890 -0.01500
C 	C 	0.00200 0.92750 0.40630 -0.13600
H 	H 	0.01950 0.95760 0.38530 0.08000
C 	C 	0.30700 0.00530 0.74170 0.06900
H 	H 	0.35120 0.02220 0.76260 -0.02100
C 	C 	0.80210 0.69850 0.18440 -0.13500
H 	H 	0.82400 0.66660 0.16780 0.08200
C 	C 	0.94420 0.88310 0.37890 0.07900
H 	H 	0.92530 0.88070 0.33880 -0.00400
C 	C 	0.74550 0.79510 0.23670 0.06300
H 	H 	0.72650 0.82990 0.25430 -0.01300
C 	C 	0.21190 0.94670 0.73960 0.07200
H 	H 	0.18900 0.92240 0.75870 -0.01100
C 	C 	0.27820 0.01680 0.68280 -0.14100
H 	H 	0.30240 0.04040 0.66460 0.07400
C 	C 	0.71500 0.78860 0.17720 -0.13000
H 	H 	0.67650 0.81800 0.15530 0.06900
C 	C 	0.82850 0.70810 0.24400 0.07600
H 	H 	0.86790 0.68070 0.26660 -0.01600
N 	N 	0.43940 0.88360 0.91130 -0.20900
N 	N 	0.79540 0.53020 0.91660 -0.18900
N 	N 	0.80080 0.75400 0.27040 -0.19400
N 	N 	0.65290 0.76730 0.05850 -0.14300
N 	N 	0.73780 0.67760 0.06210 -0.13900
N 	N 	0.64790 0.71030 0.97190 -0.13900
N 	N 	0.91350 0.84290 0.40640 -0.18500
N 	N 	0.27970 0.18700 0.42120 -0.20200
N 	N 	0.27560 0.97120 0.77100 -0.19500
N 	N 	0.12270 0.96270 0.55800 -0.13700
N 	N 	0.12610 0.01230 0.47260 -0.14200
N 	N 	0.21140 0.04990 0.56410 -0.14900
Ag	Ag	0.84427 0.45743 0.86763 0.51000
Ag	Ag	0.32266 0.25377 0.36705 0.51300
C 	C 	0.59770 0.47070 0.50030 0.10100
C 	C 	0.77750 0.63810 0.50870 -0.12300
H 	H 	0.79830 0.63460 0.54880 0.07200
C 	C 	0.12370 0.25680 0.00150 0.09900
C 	C 	0.05980 0.30170 0.96910 0.05600
C 	C 	0.23550 0.06440 0.88820 0.07800
H 	H 	0.21370 0.05730 0.84840 -0.00700
C 	C 	0.29780 0.08390 0.00470 -0.13100
H 	H 	0.32000 0.08790 0.04470 0.08400
C 	C 	0.44390 0.34370 0.46420 0.07800
H 	H 	0.42390 0.31570 0.48420 -0.00900
C 	C 	0.71990 0.65270 0.39170 0.05200
H 	H 	0.69990 0.65750 0.35170 -0.01900
C 	C 	0.03290 0.31190 0.91030 -0.13300
H 	H 	0.05440 0.29090 0.88890 0.07900
C 	C 	0.20980 0.22670 0.08680 0.10300
C 	C 	0.50360 0.38420 0.49580 -0.12800
H 	H 	0.52320 0.38290 0.53600 0.08400
C 	C 	0.24350 0.23670 0.15090 0.05800
C 	C 	0.68020 0.50230 0.58740 0.09500
C 	C 	0.68230 0.55180 0.50630 0.09700
C 	C 	0.67930 0.45610 0.68070 -0.13300
H 	H 	0.63540 0.43800 0.66070 0.08100
C 	C 	0.53340 0.42640 0.46610 0.06400
C 	C 	0.02610 0.33550 0.99910 -0.13100
H 	H 	0.04350 0.33120 0.03910 0.07100
C 	C 	0.23570 0.12110 0.97410 0.06800
C 	C 	0.71510 0.60150 0.47700 0.04900
C 	C 	0.20380 0.10980 0.91460 -0.12900
H 	H 	0.16180 0.13250 0.89300 0.08400
C 	C 	0.20540 0.17220 0.00460 0.10200
C 	C 	0.71230 0.49250 0.65140 0.05500
C 	C 	0.68610 0.61030 0.41800 -0.12400
H 	H 	0.64420 0.58790 0.39580 0.07600
C 	C 	0.32550 0.04080 0.97370 0.08200
H 	H 	0.36760 0.01790 0.99390 -0.01000
C 	C 	0.97340 0.35370 0.88360 0.06000
H 	H 	0.95610 0.36150 0.84390 -0.01400
C 	C 	0.80790 0.68020 0.47860 0.06100
H 	H 	0.84940 0.70450 0.49950 -0.00500
C 	C 	0.96700 0.37530 0.96850 0.05800
H 	H 	0.94480 0.39780 0.98890 -0.01300
C 	C 	0.50200 0.42750 0.40630 -0.13500
H 	H 	0.51950 0.45760 0.38530 0.08000
C 	C 	0.80700 0.50530 0.74170 0.06900
H 	H 	0.85120 0.52220 0.76260 -0.02200
C 	C 	0.30210 0.19850 0.18440 -0.13500
H 	H 	0.32400 0.16660 0.16780 0.08200
C 	C 	0.44420 0.38310 0.37890 0.07900
H 	H 	0.42530 0.38070 0.33880 -0.00400
C 	C 	0.24550 0.29510 0.23670 0.06300
H 	H 	0.22650 0.32990 0.25430 -0.01300
C 	C 	0.71190 0.44670 0.73960 0.07200
H 	H 	0.68900 0.42240 0.75870 -0.01100
C 	C 	0.77820 0.51680 0.68280 -0.14100
H 	H 	0.80240 0.54040 0.66460 0.07400
C 	C 	0.21500 0.28860 0.17720 -0.13000
H 	H 	0.17650 0.31800 0.15530 0.06900
C 	C 	0.32850 0.20810 0.24400 0.07600
H 	H 	0.36790 0.18070 0.26660 -0.01600
N 	N 	0.93940 0.38360 0.91130 -0.20800
N 	N 	0.29540 0.03020 0.91660 -0.19000
N 	N 	0.30080 0.25400 0.27040 -0.19400
N 	N 	0.15290 0.26730 0.05850 -0.14300
N 	N 	0.23780 0.17760 0.06210 -0.13800
N 	N 	0.14790 0.21030 0.97190 -0.13700
N 	N 	0.41350 0.34290 0.40640 -0.18400
N 	N 	0.77970 0.68700 0.42120 -0.20200
N 	N 	0.77560 0.47120 0.77100 -0.19500
N 	N 	0.62270 0.46270 0.55800 -0.13700
N 	N 	0.62610 0.51230 0.47260 -0.14200
N 	N 	0.71140 0.54990 0.56410 -0.14900
