data_crystal

_cell_length_a 22.11620
_cell_length_b 16.28310
_cell_length_c 25.64330
_cell_angle_alpha 90.00000
_cell_angle_beta  115.36600
_cell_angle_gamma 90.00000

_symmetry_space_group_name_	'P 1'
_symmetry_space_group_name_H-M	'P 1'

loop_
_symmetry_equiv_pos_as_xyz
  x,y,z

loop_
_atom_site_label
_atom_site_type_symbol
_atom_site_fract_x
_atom_site_fract_y
_atom_site_fract_z
_atom_site_charge
Ag	Ag	0.34378 0.04313 0.36771 0.51100
Ag	Ag	0.82279 0.24829 0.86718 0.51500
N 	N 	0.12260 0.03760 0.05920 -0.13600
N 	N 	0.28000 0.81330 0.92140 -0.19900
N 	N 	0.43890 0.11570 0.41220 -0.20600
N 	N 	0.73840 0.32260 0.56310 -0.13600
N 	N 	0.91280 0.15820 0.90740 -0.18200
C 	C 	0.73540 0.43470 0.38810 0.07100
H 	H 	0.71390 0.44050 0.34820 -0.00200
C 	C 	0.21940 0.84860 0.89210 0.04800
H 	H 	0.19930 0.84440 0.85210 -0.01600
N 	N 	0.21120 0.95070 0.06480 -0.14900
C 	C 	0.53310 0.18720 0.41100 -0.12800
H 	H 	0.55520 0.20710 0.38990 0.07800
N 	N 	0.79590 0.46970 0.41680 -0.18700
N 	N 	0.64790 0.28970 0.47260 -0.13700
N 	N 	0.80000 0.24710 0.77140 -0.19400
C 	C 	0.62390 0.24310 0.50250 0.10100
C 	C 	0.09760 0.02980 0.00130 0.10000
C 	C 	0.27780 0.86180 0.00920 -0.12100
H 	H 	0.29870 0.86540 0.04930 0.07100
N 	N 	0.12630 0.98890 0.97330 -0.14000
C 	C 	0.79830 0.41630 0.50500 -0.12100
H 	H 	0.82050 0.41230 0.54490 0.08100
N 	N 	0.27600 0.02910 0.27180 -0.19300
C 	C 	0.55960 0.19840 0.47020 0.05200
C 	C 	0.00310 0.11600 0.99640 -0.12400
H 	H 	0.02260 0.11710 0.03650 0.08200
C 	C 	0.94310 0.11670 0.87960 0.07200
H 	H 	0.92330 0.11770 0.83940 -0.00100
C 	C 	0.70950 0.27360 0.58770 0.10300
C 	C 	0.52530 0.16510 0.50020 -0.13100
H 	H 	0.54240 0.17000 0.54010 0.07200
N 	N 	0.65300 0.23170 0.55960 -0.14200
C 	C 	0.30770 0.99550 0.24300 0.06400
H 	H 	0.35200 0.97930 0.26370 -0.02000
C 	C 	0.74290 0.26300 0.65140 0.05300
C 	C 	0.17870 0.04410 0.18140 -0.12200
H 	H 	0.13460 0.06160 0.16130 0.07700
C 	C 	0.94300 0.15690 0.96490 0.07500
H 	H 	0.92290 0.18460 0.98500 -0.00800
C 	C 	0.47320 0.14590 0.38410 0.05400
H 	H 	0.45550 0.13860 0.34440 -0.01200
C 	C 	0.21250 0.00820 0.15210 0.04700
C 	C 	0.82640 0.45980 0.47400 0.07500
H 	H 	0.86850 0.48300 0.49420 -0.00700
C 	C 	0.00170 0.07320 0.90710 -0.12800
H 	H 	0.01990 0.04400 0.88600 0.07700
C 	C 	0.82840 0.29270 0.74510 0.07000
H 	H 	0.86830 0.31920 0.76790 -0.01400
C 	C 	0.03310 0.07390 0.96710 0.06200
C 	C 	0.21530 0.89840 0.97760 0.04800
C 	C 	0.18580 0.89080 0.91850 -0.12000
H 	H 	0.14390 0.91370 0.89660 0.07400
C 	C 	0.70400 0.39040 0.41560 -0.12100
H 	H 	0.66160 0.36860 0.39430 0.08100
C 	C 	0.70610 0.32780 0.50530 0.10300
C 	C 	0.21160 0.05350 0.24090 0.06200
H 	H 	0.18880 0.07730 0.26030 -0.00800
C 	C 	0.18010 0.99720 0.08820 0.09900
C 	C 	0.18250 0.94800 0.00710 0.09600
C 	C 	0.73560 0.37850 0.47450 0.06100
C 	C 	0.30800 0.81990 0.97910 0.05900
H 	H 	0.34940 0.79550 -0.00000 -0.00400
C 	C 	0.80190 0.30350 0.68530 -0.12800
H 	H 	0.82320 0.33670 0.66880 0.08000
C 	C 	0.46630 0.12530 0.46970 0.05700
H 	H 	0.44370 0.10360 0.49000 -0.01200
C 	C 	0.71480 0.21130 0.67790 -0.12500
H 	H 	0.67650 0.18110 0.65610 0.06700
C 	C 	0.74460 0.20530 0.73740 0.06000
H 	H 	0.72540 0.17060 0.75490 -0.01100
C 	C 	0.27800 0.98350 0.18350 -0.13300
H 	H 	0.30190 0.95930 0.16520 0.07100
Ag	Ag	0.84378 0.54313 0.36771 0.51000
Ag	Ag	0.32279 0.74829 0.86718 0.51400
N 	N 	0.62260 0.53760 0.05920 -0.13700
N 	N 	0.78000 0.31330 0.92140 -0.20000
N 	N 	0.93890 0.61570 0.41220 -0.20700
N 	N 	0.23840 0.82260 0.56310 -0.13700
N 	N 	0.41280 0.65820 0.90740 -0.18400
C 	C 	0.23540 0.93470 0.38810 0.07000
H 	H 	0.21390 0.94050 0.34820 -0.00300
C 	C 	0.71940 0.34860 0.89210 0.04600
H 	H 	0.69930 0.34440 0.85210 -0.01600
N 	N 	0.71120 0.45070 0.06480 -0.15000
C 	C 	0.03310 0.68720 0.41100 -0.12900
H 	H 	0.05520 0.70710 0.38990 0.07800
N 	N 	0.29590 0.96970 0.41680 -0.18700
N 	N 	0.14790 0.78970 0.47260 -0.13700
N 	N 	0.30000 0.74710 0.77140 -0.19400
C 	C 	0.12390 0.74310 0.50250 0.10100
C 	C 	0.59760 0.52980 0.00130 0.10100
C 	C 	0.77780 0.36180 0.00920 -0.11900
H 	H 	0.79870 0.36540 0.04930 0.07000
N 	N 	0.62630 0.48890 0.97330 -0.14100
C 	C 	0.29830 0.91630 0.50500 -0.12100
H 	H 	0.32050 0.91230 0.54490 0.08100
N 	N 	0.77600 0.52910 0.27180 -0.19300
C 	C 	0.05960 0.69840 0.47020 0.05200
C 	C 	0.50310 0.61600 0.99640 -0.12800
H 	H 	0.52260 0.61710 0.03650 0.08500
C 	C 	0.44310 0.61670 0.87960 0.07300
H 	H 	0.42330 0.61770 0.83940 -0.00200
C 	C 	0.20950 0.77360 0.58770 0.10300
C 	C 	0.02530 0.66510 0.50020 -0.13100
H 	H 	0.04240 0.67000 0.54010 0.07200
N 	N 	0.15300 0.73170 0.55960 -0.14200
C 	C 	0.80770 0.49550 0.24300 0.06400
H 	H 	0.85200 0.47930 0.26370 -0.02000
C 	C 	0.24290 0.76300 0.65140 0.05300
C 	C 	0.67870 0.54410 0.18140 -0.12300
H 	H 	0.63460 0.56160 0.16130 0.07700
C 	C 	0.44300 0.65690 0.96490 0.07800
H 	H 	0.42290 0.68460 0.98500 -0.00900
C 	C 	0.97320 0.64590 0.38410 0.05400
H 	H 	0.95550 0.63860 0.34440 -0.01200
C 	C 	0.71250 0.50820 0.15210 0.04800
C 	C 	0.32640 0.95980 0.47400 0.07500
H 	H 	0.36850 0.98300 0.49420 -0.00700
C 	C 	0.50170 0.57320 0.90710 -0.12900
H 	H 	0.51990 0.54400 0.88600 0.07800
C 	C 	0.32840 0.79270 0.74510 0.07000
H 	H 	0.36830 0.81920 0.76790 -0.01400
C 	C 	0.53310 0.57390 0.96710 0.06200
C 	C 	0.71530 0.39840 0.97760 0.04600
C 	C 	0.68580 0.39080 0.91850 -0.11900
H 	H 	0.64390 0.41370 0.89660 0.07400
C 	C 	0.20400 0.89040 0.41560 -0.12100
H 	H 	0.16160 0.86860 0.39430 0.08100
C 	C 	0.20610 0.82780 0.50530 0.10300
C 	C 	0.71160 0.55350 0.24090 0.06200
H 	H 	0.68880 0.57730 0.26030 -0.00800
C 	C 	0.68010 0.49720 0.08820 0.09800
C 	C 	0.68250 0.44800 0.00710 0.09700
C 	C 	0.23560 0.87850 0.47450 0.06100
C 	C 	0.80800 0.31990 0.97910 0.05700
H 	H 	0.84940 0.29550 -0.00000 -0.00300
C 	C 	0.30190 0.80350 0.68530 -0.12800
H 	H 	0.32320 0.83670 0.66880 0.08000
C 	C 	0.96630 0.62530 0.46970 0.05700
H 	H 	0.94370 0.60360 0.49000 -0.01200
C 	C 	0.21480 0.71130 0.67790 -0.12500
H 	H 	0.17650 0.68110 0.65610 0.06700
C 	C 	0.24460 0.70530 0.73740 0.06000
H 	H 	0.22540 0.67060 0.75490 -0.01100
C 	C 	0.77800 0.48350 0.18350 -0.13400
H 	H 	0.80190 0.45930 0.16520 0.07200
Ag	Ag	0.65622 0.04313 0.13229 0.51000
Ag	Ag	0.17721 0.24829 0.63282 0.51400
N 	N 	0.87740 0.03760 0.44080 -0.13700
N 	N 	0.72000 0.81330 0.57860 -0.20000
N 	N 	0.56110 0.11570 0.08780 -0.20700
N 	N 	0.26160 0.32260 0.93690 -0.13700
N 	N 	0.08720 0.15820 0.59260 -0.18400
C 	C 	0.26460 0.43470 0.11190 0.06900
H 	H 	0.28610 0.44050 0.15180 -0.00300
C 	C 	0.78060 0.84860 0.60790 0.04700
H 	H 	0.80070 0.84440 0.64790 -0.01700
N 	N 	0.78880 0.95070 0.43520 -0.14900
C 	C 	0.46690 0.18720 0.08900 -0.12800
H 	H 	0.44480 0.20710 0.11010 0.07800
N 	N 	0.20410 0.46970 0.08320 -0.18600
N 	N 	0.35210 0.28970 0.02740 -0.13800
N 	N 	0.20000 0.24710 0.72860 -0.19400
C 	C 	0.37610 0.24310 0.99750 0.10200
C 	C 	0.90240 0.02980 0.49870 0.10100
C 	C 	0.72220 0.86180 0.49080 -0.12100
H 	H 	0.70130 0.86540 0.45070 0.07100
N 	N 	0.87370 0.98890 0.52670 -0.14100
C 	C 	0.20170 0.41630 0.99500 -0.11900
H 	H 	0.17950 0.41230 0.95510 0.08000
N 	N 	0.72400 0.02910 0.22820 -0.19300
C 	C 	0.44040 0.19840 0.02980 0.05100
C 	C 	0.99690 0.11600 0.50360 -0.12800
H 	H 	0.97740 0.11710 0.46350 0.08400
C 	C 	0.05690 0.11670 0.62040 0.07400
H 	H 	0.07670 0.11770 0.66060 -0.00200
C 	C 	0.29050 0.27360 0.91230 0.10300
C 	C 	0.47470 0.16510 0.99980 -0.13000
H 	H 	0.45760 0.17000 0.95990 0.07100
N 	N 	0.34700 0.23170 0.94040 -0.14300
C 	C 	0.69230 0.99550 0.25700 0.06500
H 	H 	0.64800 0.97930 0.23630 -0.02000
C 	C 	0.25710 0.26300 0.84860 0.05400
C 	C 	0.82130 0.04410 0.31860 -0.12300
H 	H 	0.86540 0.06160 0.33870 0.07700
C 	C 	0.05700 0.15690 0.53510 0.07800
H 	H 	0.07710 0.18460 0.51500 -0.00800
C 	C 	0.52680 0.14590 0.11590 0.05400
H 	H 	0.54450 0.13860 0.15560 -0.01200
C 	C 	0.78750 0.00820 0.34790 0.04800
C 	C 	0.17360 0.45980 0.02600 0.07300
H 	H 	0.13150 0.48300 0.00580 -0.00700
C 	C 	0.99830 0.07320 0.59290 -0.13000
H 	H 	0.98010 0.04400 0.61400 0.07800
C 	C 	0.17160 0.29270 0.75490 0.07000
H 	H 	0.13170 0.31920 0.73210 -0.01400
C 	C 	0.96690 0.07390 0.53290 0.06300
C 	C 	0.78470 0.89840 0.52240 0.04700
C 	C 	0.81420 0.89080 0.58150 -0.12000
H 	H 	0.85610 0.91370 0.60340 0.07400
C 	C 	0.29600 0.39040 0.08440 -0.12000
H 	H 	0.33840 0.36860 0.10570 0.08100
C 	C 	0.29390 0.32780 0.99470 0.10400
C 	C 	0.78840 0.05350 0.25910 0.06200
H 	H 	0.81120 0.07730 0.23970 -0.00800
C 	C 	0.81990 0.99720 0.41180 0.09900
C 	C 	0.81750 0.94800 0.49290 0.09600
C 	C 	0.26440 0.37850 0.02550 0.05900
C 	C 	0.69200 0.81990 0.52090 0.05900
H 	H 	0.65060 0.79550 0.50000 -0.00400
C 	C 	0.19810 0.30350 0.81470 -0.12800
H 	H 	0.17680 0.33670 0.83120 0.08000
C 	C 	0.53370 0.12530 0.03030 0.05600
H 	H 	0.55630 0.10360 0.01000 -0.01200
C 	C 	0.28520 0.21130 0.82210 -0.12500
H 	H 	0.32350 0.18110 0.84390 0.06700
C 	C 	0.25540 0.20530 0.76260 0.06000
H 	H 	0.27460 0.17060 0.74510 -0.01100
C 	C 	0.72200 0.98350 0.31650 -0.13300
H 	H 	0.69810 0.95930 0.33480 0.07200
Ag	Ag	0.15622 0.54313 0.13229 0.51000
Ag	Ag	0.67721 0.74829 0.63282 0.51400
N 	N 	0.37740 0.53760 0.44080 -0.13600
N 	N 	0.22000 0.31330 0.57860 -0.20000
N 	N 	0.06110 0.61570 0.08780 -0.20700
N 	N 	0.76160 0.82260 0.93690 -0.13700
N 	N 	0.58720 0.65820 0.59260 -0.18400
C 	C 	0.76460 0.93470 0.11190 0.07100
H 	H 	0.78610 0.94050 0.15180 -0.00400
C 	C 	0.28060 0.34860 0.60790 0.04700
H 	H 	0.30070 0.34440 0.64790 -0.01600
N 	N 	0.28880 0.45070 0.43520 -0.14900
C 	C 	0.96690 0.68720 0.08900 -0.12900
H 	H 	0.94480 0.70710 0.11010 0.07800
N 	N 	0.70410 0.96970 0.08320 -0.18700
N 	N 	0.85210 0.78970 0.02740 -0.13600
N 	N 	0.70000 0.74710 0.72860 -0.19400
C 	C 	0.87610 0.74310 0.99750 0.09900
C 	C 	0.40240 0.52980 0.49870 0.10100
C 	C 	0.22220 0.36180 0.49080 -0.12100
H 	H 	0.20130 0.36540 0.45070 0.07100
N 	N 	0.37370 0.48890 0.52670 -0.14100
C 	C 	0.70170 0.91630 0.99500 -0.12500
H 	H 	0.67950 0.91230 0.95510 0.08200
N 	N 	0.22400 0.52910 0.22820 -0.19300
C 	C 	0.94040 0.69840 0.02980 0.05500
C 	C 	0.49690 0.61600 0.50360 -0.12800
H 	H 	0.47740 0.61710 0.46350 0.08400
C 	C 	0.55690 0.61670 0.62040 0.07300
H 	H 	0.57670 0.61770 0.66060 -0.00200
C 	C 	0.79050 0.77360 0.91230 0.10300
C 	C 	0.97470 0.66510 0.99980 -0.13400
H 	H 	0.95760 0.67000 0.95990 0.07300
N 	N 	0.84700 0.73170 0.94040 -0.14200
C 	C 	0.19230 0.49550 0.25700 0.06400
H 	H 	0.14800 0.47930 0.23630 -0.02000
C 	C 	0.75710 0.76300 0.84860 0.05300
C 	C 	0.32130 0.54410 0.31860 -0.12300
H 	H 	0.36540 0.56160 0.33870 0.07700
C 	C 	0.55700 0.65690 0.53510 0.07800
H 	H 	0.57710 0.68460 0.51500 -0.00800
C 	C 	0.02680 0.64590 0.11590 0.05400
H 	H 	0.04450 0.63860 0.15560 -0.01200
C 	C 	0.28750 0.50820 0.34790 0.04800
C 	C 	0.67360 0.95980 0.02600 0.07700
H 	H 	0.63150 0.98300 0.00580 -0.00800
C 	C 	0.49830 0.57320 0.59290 -0.12900
H 	H 	0.48010 0.54400 0.61400 0.07800
C 	C 	0.67160 0.79270 0.75490 0.07000
H 	H 	0.63170 0.81920 0.73210 -0.01400
C 	C 	0.46690 0.57390 0.53290 0.06200
C 	C 	0.28470 0.39840 0.52240 0.04700
C 	C 	0.31420 0.39080 0.58150 -0.12000
H 	H 	0.35610 0.41370 0.60340 0.07400
C 	C 	0.79600 0.89040 0.08440 -0.12300
H 	H 	0.83840 0.86860 0.10570 0.08200
C 	C 	0.79390 0.82780 0.99470 0.10100
C 	C 	0.28840 0.55350 0.25910 0.06200
H 	H 	0.31120 0.57730 0.23970 -0.00800
C 	C 	0.31990 0.49720 0.41180 0.09800
C 	C 	0.31750 0.44800 0.49290 0.09600
C 	C 	0.76440 0.87850 0.02550 0.06400
C 	C 	0.19200 0.31990 0.52090 0.05900
H 	H 	0.15060 0.29550 0.50000 -0.00400
C 	C 	0.69810 0.80350 0.81470 -0.12800
H 	H 	0.67680 0.83670 0.83120 0.08000
C 	C 	0.03370 0.62530 0.03030 0.05800
H 	H 	0.05630 0.60360 0.01000 -0.01300
C 	C 	0.78520 0.71130 0.82210 -0.12500
H 	H 	0.82350 0.68110 0.84390 0.06700
C 	C 	0.75540 0.70530 0.76260 0.06000
H 	H 	0.77460 0.67060 0.74510 -0.01100
C 	C 	0.22200 0.48350 0.31650 -0.13400
H 	H 	0.19810 0.45930 0.33480 0.07200
Ag	Ag	0.65622 0.95687 0.63229 0.51000
Ag	Ag	0.17721 0.75171 0.13282 0.51400
N 	N 	0.87740 0.96240 0.94080 -0.13700
N 	N 	0.72000 0.18670 0.07860 -0.20100
N 	N 	0.56110 0.88430 0.58780 -0.20700
N 	N 	0.26160 0.67740 0.43690 -0.13700
N 	N 	0.08720 0.84180 0.09260 -0.18300
C 	C 	0.26460 0.56530 0.61190 0.07000
H 	H 	0.28610 0.55950 0.65180 -0.00300
C 	C 	0.78060 0.15140 0.10790 0.04700
H 	H 	0.80070 0.15560 0.14790 -0.01700
N 	N 	0.78880 0.04930 0.93520 -0.14900
C 	C 	0.46690 0.81280 0.58900 -0.12800
H 	H 	0.44480 0.79290 0.61010 0.07800
N 	N 	0.20410 0.53030 0.58320 -0.18700
N 	N 	0.35210 0.71030 0.52740 -0.13700
N 	N 	0.20000 0.75290 0.22860 -0.19400
C 	C 	0.37610 0.75690 0.49750 0.10100
C 	C 	0.90240 0.97020 0.99870 0.10000
C 	C 	0.72220 0.13820 0.99080 -0.12200
H 	H 	0.70130 0.13460 0.95070 0.07200
N 	N 	0.87370 0.01110 0.02670 -0.14000
C 	C 	0.20170 0.58370 0.49500 -0.12100
H 	H 	0.17950 0.58770 0.45510 0.08100
N 	N 	0.72400 0.97090 0.72820 -0.19300
C 	C 	0.44040 0.80160 0.52980 0.05200
C 	C 	0.99690 0.88400 0.00360 -0.12400
H 	H 	0.97740 0.88290 0.96350 0.08200
C 	C 	0.05690 0.88330 0.12040 0.07200
H 	H 	0.07670 0.88230 0.16060 -0.00100
C 	C 	0.29050 0.72640 0.41230 0.10300
C 	C 	0.47470 0.83490 0.49980 -0.13100
H 	H 	0.45760 0.83000 0.45990 0.07200
N 	N 	0.34700 0.76830 0.44040 -0.14200
C 	C 	0.69230 0.00450 0.75700 0.06400
H 	H 	0.64800 0.02070 0.73630 -0.02000
C 	C 	0.25710 0.73700 0.34860 0.05300
C 	C 	0.82130 0.95590 0.81860 -0.12200
H 	H 	0.86540 0.93840 0.83870 0.07700
C 	C 	0.05700 0.84310 0.03510 0.07500
H 	H 	0.07710 0.81540 0.01500 -0.00800
C 	C 	0.52680 0.85410 0.61590 0.05400
H 	H 	0.54450 0.86140 0.65560 -0.01200
C 	C 	0.78750 0.99180 0.84790 0.04700
C 	C 	0.17360 0.54020 0.52600 0.07500
H 	H 	0.13150 0.51700 0.50580 -0.00700
C 	C 	0.99830 0.92680 0.09290 -0.12800
H 	H 	0.98010 0.95600 0.11400 0.07700
C 	C 	0.17160 0.70730 0.25490 0.07000
H 	H 	0.13170 0.68080 0.23210 -0.01400
C 	C 	0.96690 0.92610 0.03290 0.06200
C 	C 	0.78470 0.10160 0.02240 0.04800
C 	C 	0.81420 0.10920 0.08150 -0.12100
H 	H 	0.85610 0.08630 0.10340 0.07500
C 	C 	0.29600 0.60960 0.58440 -0.12100
H 	H 	0.33840 0.63140 0.60570 0.08100
C 	C 	0.29390 0.67220 0.49470 0.10300
C 	C 	0.78840 0.94650 0.75910 0.06200
H 	H 	0.81120 0.92270 0.73970 -0.00800
C 	C 	0.81990 0.00280 0.91180 0.09900
C 	C 	0.81750 0.05200 0.99290 0.09500
C 	C 	0.26440 0.62150 0.52550 0.06100
C 	C 	0.69200 0.18010 0.02090 0.05900
H 	H 	0.65060 0.20450 -0.00000 -0.00400
C 	C 	0.19810 0.69650 0.31470 -0.12800
H 	H 	0.17680 0.66330 0.33120 0.08000
C 	C 	0.53370 0.87470 0.53030 0.05700
H 	H 	0.55630 0.89640 0.51000 -0.01200
C 	C 	0.28520 0.78870 0.32210 -0.12500
H 	H 	0.32350 0.81890 0.34390 0.06700
C 	C 	0.25540 0.79470 0.26260 0.06000
H 	H 	0.27460 0.82940 0.24510 -0.01100
C 	C 	0.72200 0.01650 0.81650 -0.13300
H 	H 	0.69810 0.04070 0.83480 0.07100
Ag	Ag	0.15622 0.45687 0.63229 0.51000
Ag	Ag	0.67721 0.25171 0.13282 0.51400
N 	N 	0.37740 0.46240 0.94080 -0.13600
N 	N 	0.22000 0.68670 0.07860 -0.20000
N 	N 	0.06110 0.38430 0.58780 -0.20700
N 	N 	0.76160 0.17740 0.43690 -0.13700
N 	N 	0.58720 0.34180 0.09260 -0.18400
C 	C 	0.76460 0.06530 0.61190 0.07000
H 	H 	0.78610 0.05950 0.65180 -0.00300
C 	C 	0.28060 0.65140 0.10790 0.04700
H 	H 	0.30070 0.65560 0.14790 -0.01600
N 	N 	0.28880 0.54930 0.93520 -0.14900
C 	C 	0.96690 0.31280 0.58900 -0.12900
H 	H 	0.94480 0.29290 0.61010 0.07800
N 	N 	0.70410 0.03030 0.58320 -0.18700
N 	N 	0.85210 0.21030 0.52740 -0.13700
N 	N 	0.70000 0.25290 0.22860 -0.19400
C 	C 	0.87610 0.25690 0.49750 0.10100
C 	C 	0.40240 0.47020 0.99870 0.10100
C 	C 	0.22220 0.63820 0.99080 -0.12000
H 	H 	0.20130 0.63460 0.95070 0.07100
N 	N 	0.37370 0.51110 0.02670 -0.14100
C 	C 	0.70170 0.08370 0.49500 -0.12100
H 	H 	0.67950 0.08770 0.45510 0.08100
N 	N 	0.22400 0.47090 0.72820 -0.19300
C 	C 	0.94040 0.30160 0.52980 0.05200
C 	C 	0.49690 0.38400 0.00360 -0.12800
H 	H 	0.47740 0.38290 0.96350 0.08400
C 	C 	0.55690 0.38330 0.12040 0.07300
H 	H 	0.57670 0.38230 0.16060 -0.00200
C 	C 	0.79050 0.22640 0.41230 0.10300
C 	C 	0.97470 0.33490 0.49980 -0.13100
H 	H 	0.95760 0.33000 0.45990 0.07200
N 	N 	0.84700 0.26830 0.44040 -0.14200
C 	C 	0.19230 0.50450 0.75700 0.06400
H 	H 	0.14800 0.52070 0.73630 -0.02000
C 	C 	0.75710 0.23700 0.34860 0.05300
C 	C 	0.32130 0.45590 0.81860 -0.12300
H 	H 	0.36540 0.43840 0.83870 0.07700
C 	C 	0.55700 0.34310 0.03510 0.07800
H 	H 	0.57710 0.31540 0.01500 -0.00800
C 	C 	0.02680 0.35410 0.61590 0.05400
H 	H 	0.04450 0.36140 0.65560 -0.01200
C 	C 	0.28750 0.49180 0.84790 0.04800
C 	C 	0.67360 0.04020 0.52600 0.07500
H 	H 	0.63150 0.01700 0.50580 -0.00700
C 	C 	0.49830 0.42680 0.09290 -0.12900
H 	H 	0.48010 0.45600 0.11400 0.07800
C 	C 	0.67160 0.20730 0.25490 0.07000
H 	H 	0.63170 0.18080 0.23210 -0.01400
C 	C 	0.46690 0.42610 0.03290 0.06300
C 	C 	0.28470 0.60160 0.02240 0.04600
C 	C 	0.31420 0.60920 0.08150 -0.11900
H 	H 	0.35610 0.58630 0.10340 0.07400
C 	C 	0.79600 0.10960 0.58440 -0.12100
H 	H 	0.83840 0.13140 0.60570 0.08100
C 	C 	0.79390 0.17220 0.49470 0.10300
C 	C 	0.28840 0.44650 0.75910 0.06200
H 	H 	0.31120 0.42270 0.73970 -0.00800
C 	C 	0.31990 0.50280 0.91180 0.09800
C 	C 	0.31750 0.55200 0.99290 0.09600
C 	C 	0.76440 0.12150 0.52550 0.06100
C 	C 	0.19200 0.68010 0.02090 0.05800
H 	H 	0.15060 0.70450 -0.00000 -0.00400
C 	C 	0.69810 0.19650 0.31470 -0.12800
H 	H 	0.67680 0.16330 0.33120 0.08000
C 	C 	0.03370 0.37470 0.53030 0.05700
H 	H 	0.05630 0.39640 0.51000 -0.01200
C 	C 	0.78520 0.28870 0.32210 -0.12500
H 	H 	0.82350 0.31890 0.34390 0.06700
C 	C 	0.75540 0.29470 0.26260 0.06000
H 	H 	0.77460 0.32940 0.24510 -0.01100
C 	C 	0.22200 0.51650 0.81650 -0.13400
H 	H 	0.19810 0.54070 0.83480 0.07200
Ag	Ag	0.34378 0.95687 0.86771 0.51000
Ag	Ag	0.82279 0.75171 0.36718 0.51400
N 	N 	0.12260 0.96240 0.55920 -0.13700
N 	N 	0.28000 0.18670 0.42140 -0.20000
N 	N 	0.43890 0.88430 0.91220 -0.20600
N 	N 	0.73840 0.67740 0.06310 -0.13700
N 	N 	0.91280 0.84180 0.40740 -0.18400
C 	C 	0.73540 0.56530 0.88810 0.06900
H 	H 	0.71390 0.55950 0.84820 -0.00300
C 	C 	0.21940 0.15140 0.39210 0.04700
H 	H 	0.19930 0.15560 0.35210 -0.01700
N 	N 	0.21120 0.04930 0.56480 -0.14900
C 	C 	0.53310 0.81280 0.91100 -0.12700
H 	H 	0.55520 0.79290 0.88990 0.07700
N 	N 	0.79590 0.53030 0.91680 -0.18600
N 	N 	0.64790 0.71030 0.97260 -0.13800
N 	N 	0.80000 0.75290 0.27140 -0.19400
C 	C 	0.62390 0.75690 0.00250 0.10200
C 	C 	0.09760 0.97020 0.50130 0.10100
C 	C 	0.27780 0.13820 0.50920 -0.12100
H 	H 	0.29870 0.13460 0.54930 0.07100
N 	N 	0.12630 0.01110 0.47330 -0.14100
C 	C 	0.79830 0.58370 0.00500 -0.11800
H 	H 	0.82050 0.58770 0.04490 0.08000
N 	N 	0.27600 0.97090 0.77180 -0.19300
C 	C 	0.55960 0.80160 0.97020 0.05100
C 	C 	0.00310 0.88400 0.49640 -0.12800
H 	H 	0.02260 0.88290 0.53650 0.08400
C 	C 	0.94310 0.88330 0.37960 0.07400
H 	H 	0.92330 0.88230 0.33940 -0.00200
C 	C 	0.70950 0.72640 0.08770 0.10300
C 	C 	0.52530 0.83490 0.00020 -0.12900
H 	H 	0.54240 0.83000 0.04010 0.07100
N 	N 	0.65300 0.76830 0.05960 -0.14300
C 	C 	0.30770 0.00450 0.74300 0.06500
H 	H 	0.35200 0.02070 0.76370 -0.02000
C 	C 	0.74290 0.73700 0.15140 0.05400
C 	C 	0.17870 0.95590 0.68140 -0.12300
H 	H 	0.13460 0.93840 0.66130 0.07700
C 	C 	0.94300 0.84310 0.46490 0.07800
H 	H 	0.92290 0.81540 0.48500 -0.00800
C 	C 	0.47320 0.85410 0.88410 0.05400
H 	H 	0.45550 0.86140 0.84440 -0.01200
C 	C 	0.21250 0.99180 0.65210 0.04800
C 	C 	0.82640 0.54020 0.97400 0.07300
H 	H 	0.86850 0.51700 0.99420 -0.00700
C 	C 	0.00170 0.92680 0.40710 -0.13000
H 	H 	0.01990 0.95600 0.38600 0.07800
C 	C 	0.82840 0.70730 0.24510 0.07000
H 	H 	0.86830 0.68080 0.26790 -0.01400
C 	C 	0.03310 0.92610 0.46710 0.06300
C 	C 	0.21530 0.10160 0.47760 0.04700
C 	C 	0.18580 0.10920 0.41850 -0.12000
H 	H 	0.14390 0.08630 0.39660 0.07400
C 	C 	0.70400 0.60960 0.91560 -0.12000
H 	H 	0.66160 0.63140 0.89430 0.08000
C 	C 	0.70610 0.67220 0.00530 0.10400
C 	C 	0.21160 0.94650 0.74090 0.06200
H 	H 	0.18880 0.92270 0.76030 -0.00800
C 	C 	0.18010 0.00280 0.58820 0.09900
C 	C 	0.18250 0.05200 0.50710 0.09600
C 	C 	0.73560 0.62150 0.97450 0.05900
C 	C 	0.30800 0.18010 0.47910 0.05900
H 	H 	0.34940 0.20450 0.50000 -0.00400
C 	C 	0.80190 0.69650 0.18530 -0.12800
H 	H 	0.82320 0.66330 0.16880 0.08000
C 	C 	0.46630 0.87470 0.96970 0.05600
H 	H 	0.44370 0.89640 0.99000 -0.01200
C 	C 	0.71480 0.78870 0.17790 -0.12500
H 	H 	0.67650 0.81890 0.15610 0.06700
C 	C 	0.74460 0.79470 0.23740 0.06000
H 	H 	0.72540 0.82940 0.25490 -0.01100
C 	C 	0.27800 0.01650 0.68350 -0.13400
H 	H 	0.30190 0.04070 0.66520 0.07200
Ag	Ag	0.84378 0.45687 0.86771 0.51000
Ag	Ag	0.32279 0.25171 0.36718 0.51400
N 	N 	0.62260 0.46240 0.55920 -0.13600
N 	N 	0.78000 0.68670 0.42140 -0.20000
N 	N 	0.93890 0.38430 0.91220 -0.20700
N 	N 	0.23840 0.17740 0.06310 -0.13700
N 	N 	0.41280 0.34180 0.40740 -0.18400
C 	C 	0.23540 0.06530 0.88810 0.07100
H 	H 	0.21390 0.05950 0.84820 -0.00400
C 	C 	0.71940 0.65140 0.39210 0.04700
H 	H 	0.69930 0.65560 0.35210 -0.01600
N 	N 	0.71120 0.54930 0.56480 -0.14900
C 	C 	0.03310 0.31280 0.91100 -0.12800
H 	H 	0.05520 0.29290 0.88990 0.07800
N 	N 	0.29590 0.03030 0.91680 -0.18700
N 	N 	0.14790 0.21030 0.97260 -0.13600
N 	N 	0.30000 0.25290 0.27140 -0.19400
C 	C 	0.12390 0.25690 0.00250 0.09900
C 	C 	0.59760 0.47020 0.50130 0.10100
C 	C 	0.77780 0.63820 0.50920 -0.12100
H 	H 	0.79870 0.63460 0.54930 0.07100
N 	N 	0.62630 0.51110 0.47330 -0.14100
C 	C 	0.29830 0.08370 0.00500 -0.12400
H 	H 	0.32050 0.08770 0.04490 0.08200
N 	N 	0.77600 0.47090 0.77180 -0.19300
C 	C 	0.05960 0.30160 0.97020 0.05400
C 	C 	0.50310 0.38400 0.49640 -0.12800
H 	H 	0.52260 0.38290 0.53650 0.08400
C 	C 	0.44310 0.38330 0.37960 0.07300
H 	H 	0.42330 0.38230 0.33940 -0.00200
C 	C 	0.20950 0.22640 0.08770 0.10300
C 	C 	0.02530 0.33490 0.00020 -0.13300
H 	H 	0.04240 0.33000 0.04010 0.07200
N 	N 	0.15300 0.26830 0.05960 -0.14200
C 	C 	0.80770 0.50450 0.74300 0.06400
H 	H 	0.85200 0.52070 0.76370 -0.02000
C 	C 	0.24290 0.23700 0.15140 0.05300
C 	C 	0.67870 0.45590 0.68140 -0.12300
H 	H 	0.63460 0.43840 0.66130 0.07700
C 	C 	0.44300 0.34310 0.46490 0.07800
H 	H 	0.42290 0.31540 0.48500 -0.00800
C 	C 	0.97320 0.35410 0.88410 0.05400
H 	H 	0.95550 0.36140 0.84440 -0.01200
C 	C 	0.71250 0.49180 0.65210 0.04800
C 	C 	0.32640 0.04020 0.97400 0.07700
H 	H 	0.36850 0.01700 0.99420 -0.00800
C 	C 	0.50170 0.42680 0.40710 -0.12900
H 	H 	0.51990 0.45600 0.38600 0.07800
C 	C 	0.32840 0.20730 0.24510 0.07000
H 	H 	0.36830 0.18080 0.26790 -0.01400
C 	C 	0.53310 0.42610 0.46710 0.06200
C 	C 	0.71530 0.60160 0.47760 0.04700
C 	C 	0.68580 0.60920 0.41850 -0.12000
H 	H 	0.64390 0.58630 0.39660 0.07400
C 	C 	0.20400 0.10960 0.91560 -0.12300
H 	H 	0.16160 0.13140 0.89430 0.08200
C 	C 	0.20610 0.17220 0.00530 0.10100
C 	C 	0.71160 0.44650 0.74090 0.06200
H 	H 	0.68880 0.42270 0.76030 -0.00800
C 	C 	0.68010 0.50280 0.58820 0.09800
C 	C 	0.68250 0.55200 0.50710 0.09600
C 	C 	0.23560 0.12150 0.97450 0.06400
C 	C 	0.80800 0.68010 0.47910 0.05900
H 	H 	0.84940 0.70450 0.50000 -0.00400
C 	C 	0.30190 0.19650 0.18530 -0.12800
H 	H 	0.32320 0.16330 0.16880 0.08000
C 	C 	0.96630 0.37470 0.96970 0.05800
H 	H 	0.94370 0.39640 0.99000 -0.01300
C 	C 	0.21480 0.28870 0.17790 -0.12500
H 	H 	0.17650 0.31890 0.15610 0.06700
C 	C 	0.24460 0.29470 0.23740 0.06000
H 	H 	0.22540 0.32940 0.25490 -0.01100
C 	C 	0.77800 0.51650 0.68350 -0.13400
H 	H 	0.80190 0.54070 0.66520 0.07200
