data_crystal

_cell_length_a 22.02670
_cell_length_b 16.60610
_cell_length_c 25.57420
_cell_angle_alpha 90.00000
_cell_angle_beta  115.25000
_cell_angle_gamma 90.00000

_symmetry_space_group_name_	'P 1'
_symmetry_space_group_name_H-M	'P 1'

loop_
_symmetry_equiv_pos_as_xyz
  x,y,z

loop_
_atom_site_label
_atom_site_type_symbol
_atom_site_fract_x
_atom_site_fract_y
_atom_site_fract_z
_atom_site_charge
Ag	Ag	0.34424 0.95708 0.36726 0.51100
Ag	Ag	0.32227 0.25501 0.86675 0.51400
C 	C 	0.03270 0.31070 0.40960 -0.13200
H 	H 	0.05400 0.28970 0.38800 0.08000
C 	C 	0.12370 0.25590 0.50100 0.10300
C 	C 	0.59780 0.47130 0.99950 0.10300
C 	C 	0.05980 0.30090 0.46880 0.05600
C 	C 	0.29770 0.08350 0.50430 -0.12700
H 	H 	0.31990 0.08720 0.54440 0.08300
C 	C 	0.50390 0.38470 0.99540 -0.12900
H 	H 	0.52360 0.38330 0.03560 0.08500
C 	C 	0.20950 0.22610 0.58640 0.10200
C 	C 	0.72030 0.65250 0.89110 0.04800
H 	H 	0.70060 0.65720 0.85110 -0.01800
C 	C 	0.68200 0.55220 0.00560 0.09800
C 	C 	0.77750 0.63830 0.00860 -0.12000
H 	H 	0.79840 0.63450 0.04870 0.07100
C 	C 	0.53330 0.42720 0.96540 0.06400
C 	C 	0.44410 0.34440 0.96340 0.08000
H 	H 	0.42420 0.31640 0.98350 -0.01000
C 	C 	0.24280 0.23670 0.65040 0.06000
C 	C 	0.02600 0.33430 0.49860 -0.13600
H 	H 	0.04310 0.32970 0.53860 0.07400
C 	C 	0.23530 0.06430 0.38770 0.07300
H 	H 	0.21350 0.05720 0.34780 -0.00500
C 	C 	0.71480 0.60170 0.97650 0.04400
C 	C 	0.23540 0.12160 0.47350 0.06300
C 	C 	0.96700 0.37420 0.46790 0.06200
H 	H 	0.94500 0.39680 0.48830 -0.01500
C 	C 	0.67880 0.45610 0.17950 -0.13500
H 	H 	0.63480 0.43880 0.15920 0.08200
C 	C 	0.20410 0.10950 0.41430 -0.12500
H 	H 	0.16200 0.13190 0.39250 0.08200
C 	C 	0.68020 0.50210 0.08690 0.09600
C 	C 	0.71240 0.49140 0.15110 0.05800
C 	C 	0.68650 0.60990 0.91730 -0.12000
H 	H 	0.64490 0.58690 0.89490 0.07400
C 	C 	0.97310 0.35260 0.38310 0.06000
H 	H 	0.95560 0.36000 0.34330 -0.01400
C 	C 	0.80730 0.68010 0.97870 0.05900
H 	H 	0.84860 0.70460 0.99990 -0.00400
C 	C 	0.20530 0.17210 0.50380 0.10300
C 	C 	0.32480 0.04040 0.47310 0.08400
H 	H 	0.36680 0.01710 0.49350 -0.01100
C 	C 	0.50160 0.42790 0.90570 -0.13500
H 	H 	0.51910 0.45760 0.88460 0.08000
C 	C 	0.80660 0.50490 0.24130 0.07400
H 	H 	0.85060 0.52190 0.26240 -0.02400
C 	C 	0.71180 0.44640 0.23920 0.07200
H 	H 	0.68900 0.42220 0.25840 -0.01100
C 	C 	0.24490 0.29510 0.73590 0.06200
H 	H 	0.22600 0.32990 0.75340 -0.01300
C 	C 	0.44380 0.38400 0.87820 0.07800
H 	H 	0.42450 0.38240 0.83800 -0.00300
C 	C 	0.21440 0.28760 0.67680 -0.13100
H 	H 	0.17540 0.31620 0.65490 0.07000
C 	C 	0.32800 0.20860 0.74300 0.07900
H 	H 	0.36720 0.18090 0.76560 -0.01600
C 	C 	0.77800 0.51660 0.18220 -0.14600
H 	H 	0.80190 0.54060 0.16400 0.07600
C 	C 	0.30220 0.19930 0.68390 -0.13800
H 	H 	0.32450 0.16840 0.66720 0.08300
N 	N 	0.29570 0.03000 0.41670 -0.19000
N 	N 	0.93920 0.38290 0.41080 -0.20900
N 	N 	0.30080 0.25440 0.76970 -0.19400
N 	N 	0.14770 0.21040 0.47140 -0.13800
N 	N 	0.15260 0.26680 0.55810 -0.14300
N 	N 	0.23790 0.17750 0.56170 -0.13700
N 	N 	0.77990 0.68710 0.92110 -0.20000
N 	N 	0.41350 0.34320 0.90590 -0.18500
N 	N 	0.77530 0.47080 0.27000 -0.19600
N 	N 	0.62590 0.51270 0.97210 -0.14300
N 	N 	0.62290 0.46300 0.05750 -0.13700
N 	N 	0.71100 0.54910 0.06350 -0.14900
Ag	Ag	0.84424 0.45708 0.36726 0.51000
Ag	Ag	0.82227 0.75501 0.86675 0.51300
C 	C 	0.53270 0.81070 0.40960 -0.13300
H 	H 	0.55400 0.78970 0.38800 0.07900
C 	C 	0.62370 0.75590 0.50100 0.10200
C 	C 	0.09780 0.97130 0.99950 0.10300
C 	C 	0.55980 0.80090 0.46880 0.05600
C 	C 	0.79770 0.58350 0.50430 -0.12700
H 	H 	0.81990 0.58720 0.54440 0.08300
C 	C 	0.00390 0.88470 0.99540 -0.12400
H 	H 	0.02360 0.88330 0.03560 0.08200
C 	C 	0.70950 0.72610 0.58640 0.10100
C 	C 	0.22030 0.15250 0.89110 0.05000
H 	H 	0.20060 0.15720 0.85110 -0.01900
C 	C 	0.18200 0.05220 0.00560 0.09500
C 	C 	0.27750 0.13830 0.00860 -0.12600
H 	H 	0.29840 0.13450 0.04870 0.07200
C 	C 	0.03330 0.92720 0.96540 0.06100
C 	C 	0.94410 0.84440 0.96340 0.07600
H 	H 	0.92420 0.81640 0.98350 -0.00900
C 	C 	0.74280 0.73670 0.65040 0.06000
C 	C 	0.52600 0.83430 0.49860 -0.13600
H 	H 	0.54310 0.82970 0.53860 0.07300
C 	C 	0.73530 0.56430 0.38770 0.07300
H 	H 	0.71350 0.55720 0.34780 -0.00500
C 	C 	0.21480 0.10170 0.97650 0.04900
C 	C 	0.73540 0.62160 0.47350 0.06300
C 	C 	0.46700 0.87420 0.46790 0.06200
H 	H 	0.44500 0.89680 0.48830 -0.01500
C 	C 	0.17880 0.95610 0.17950 -0.13500
H 	H 	0.13480 0.93880 0.15920 0.08200
C 	C 	0.70410 0.60950 0.41430 -0.12500
H 	H 	0.66200 0.63190 0.39250 0.08200
C 	C 	0.18020 0.00210 0.08690 0.09600
C 	C 	0.21240 0.99140 0.15110 0.05800
C 	C 	0.18650 0.10990 0.91730 -0.12300
H 	H 	0.14490 0.08690 0.89490 0.07500
C 	C 	0.47310 0.85260 0.38310 0.06000
H 	H 	0.45560 0.86000 0.34330 -0.01400
C 	C 	0.30730 0.18010 0.97870 0.06300
H 	H 	0.34860 0.20460 0.99990 -0.00500
C 	C 	0.70530 0.67210 0.50380 0.10300
C 	C 	0.82480 0.54040 0.47310 0.08400
H 	H 	0.86680 0.51710 0.49350 -0.01100
C 	C 	0.00160 0.92790 0.90570 -0.13100
H 	H 	0.01910 0.95760 0.88460 0.07900
C 	C 	0.30660 0.00490 0.24130 0.07400
H 	H 	0.35060 0.02190 0.26240 -0.02400
C 	C 	0.21180 0.94640 0.23920 0.07200
H 	H 	0.18900 0.92220 0.25840 -0.01100
C 	C 	0.74490 0.79510 0.73590 0.06200
H 	H 	0.72600 0.82990 0.75340 -0.01300
C 	C 	0.94380 0.88400 0.87820 0.07500
H 	H 	0.92450 0.88240 0.83800 -0.00200
C 	C 	0.71440 0.78760 0.67680 -0.13100
H 	H 	0.67540 0.81620 0.65490 0.07000
C 	C 	0.82800 0.70860 0.74300 0.07900
H 	H 	0.86720 0.68090 0.76560 -0.01600
C 	C 	0.27800 0.01660 0.18220 -0.14600
H 	H 	0.30190 0.04060 0.16400 0.07600
C 	C 	0.80220 0.69930 0.68390 -0.13800
H 	H 	0.82450 0.66840 0.66720 0.08300
N 	N 	0.79570 0.53000 0.41670 -0.19000
N 	N 	0.43920 0.88290 0.41080 -0.20800
N 	N 	0.80080 0.75440 0.76970 -0.19400
N 	N 	0.64770 0.71040 0.47140 -0.13800
N 	N 	0.65260 0.76680 0.55810 -0.14300
N 	N 	0.73790 0.67750 0.56170 -0.13700
N 	N 	0.27990 0.18710 0.92110 -0.20100
N 	N 	0.91350 0.84320 0.90590 -0.18400
N 	N 	0.27530 0.97080 0.27000 -0.19600
N 	N 	0.12590 0.01270 0.97210 -0.14200
N 	N 	0.12290 0.96300 0.05750 -0.13700
N 	N 	0.21100 0.04910 0.06350 -0.14900
Ag	Ag	0.65576 0.95708 0.13274 0.51000
Ag	Ag	0.67773 0.25501 0.63325 0.51300
C 	C 	0.96730 0.31070 0.09040 -0.13000
H 	H 	0.94600 0.28970 0.11200 0.07800
C 	C 	0.87630 0.25590 0.99900 0.10100
C 	C 	0.40220 0.47130 0.50050 0.10200
C 	C 	0.94020 0.30090 0.03120 0.05500
C 	C 	0.70230 0.08350 0.99570 -0.13000
H 	H 	0.68010 0.08720 0.95560 0.08400
C 	C 	0.49610 0.38470 0.50460 -0.12900
H 	H 	0.47640 0.38330 0.46440 0.08500
C 	C 	0.79050 0.22610 0.91360 0.10100
C 	C 	0.27970 0.65250 0.60890 0.04900
H 	H 	0.29940 0.65720 0.64890 -0.01800
C 	C 	0.31800 0.55220 0.49440 0.09700
C 	C 	0.22250 0.63830 0.49140 -0.12300
H 	H 	0.20160 0.63450 0.45130 0.07100
C 	C 	0.46670 0.42720 0.53460 0.06400
C 	C 	0.55590 0.34440 0.53660 0.07900
H 	H 	0.57580 0.31640 0.51650 -0.00900
C 	C 	0.75720 0.23670 0.84960 0.06000
C 	C 	0.97400 0.33430 0.00140 -0.13200
H 	H 	0.95690 0.32970 0.96140 0.07100
C 	C 	0.76470 0.06430 0.11230 0.07400
H 	H 	0.78650 0.05720 0.15220 -0.00500
C 	C 	0.28520 0.60170 0.52350 0.04600
C 	C 	0.76460 0.12160 0.02650 0.06500
C 	C 	0.03300 0.37420 0.03210 0.05900
H 	H 	0.05500 0.39680 0.01170 -0.01400
C 	C 	0.32120 0.45610 0.32050 -0.13500
H 	H 	0.36520 0.43880 0.34080 0.08200
C 	C 	0.79590 0.10950 0.08570 -0.12600
H 	H 	0.83800 0.13190 0.10750 0.08200
C 	C 	0.31980 0.50210 0.41310 0.09600
C 	C 	0.28760 0.49140 0.34890 0.05800
C 	C 	0.31350 0.60990 0.58270 -0.12100
H 	H 	0.35510 0.58690 0.60510 0.07400
C 	C 	0.02690 0.35260 0.11690 0.05800
H 	H 	0.04440 0.36000 0.15670 -0.01300
C 	C 	0.19270 0.68010 0.52130 0.06100
H 	H 	0.15140 0.70460 0.50010 -0.00500
C 	C 	0.79470 0.17210 0.99620 0.10200
C 	C 	0.67520 0.04040 0.02690 0.08600
H 	H 	0.63320 0.01710 0.00650 -0.01100
C 	C 	0.49840 0.42790 0.59430 -0.13500
H 	H 	0.48090 0.45760 0.61540 0.08000
C 	C 	0.19340 0.50490 0.25870 0.07400
H 	H 	0.14940 0.52190 0.23760 -0.02400
C 	C 	0.28820 0.44640 0.26080 0.07200
H 	H 	0.31100 0.42220 0.24160 -0.01100
C 	C 	0.75510 0.29510 0.76410 0.06200
H 	H 	0.77400 0.32990 0.74660 -0.01300
C 	C 	0.55620 0.38400 0.62180 0.07800
H 	H 	0.57550 0.38240 0.66200 -0.00300
C 	C 	0.78560 0.28760 0.82320 -0.13100
H 	H 	0.82460 0.31620 0.84510 0.07000
C 	C 	0.67200 0.20860 0.75700 0.07900
H 	H 	0.63280 0.18090 0.73440 -0.01600
C 	C 	0.22200 0.51660 0.31780 -0.14600
H 	H 	0.19810 0.54060 0.33600 0.07600
C 	C 	0.69780 0.19930 0.81610 -0.13800
H 	H 	0.67550 0.16840 0.83280 0.08300
N 	N 	0.70430 0.03000 0.08330 -0.19000
N 	N 	0.06080 0.38290 0.08920 -0.20800
N 	N 	0.69920 0.25440 0.73030 -0.19400
N 	N 	0.85230 0.21040 0.02860 -0.13800
N 	N 	0.84740 0.26680 0.94190 -0.14200
N 	N 	0.76210 0.17750 0.93830 -0.13700
N 	N 	0.22010 0.68710 0.57890 -0.20100
N 	N 	0.58650 0.34320 0.59410 -0.18500
N 	N 	0.22470 0.47080 0.23000 -0.19600
N 	N 	0.37410 0.51270 0.52790 -0.14200
N 	N 	0.37710 0.46300 0.44250 -0.13700
N 	N 	0.28900 0.54910 0.43650 -0.14900
Ag	Ag	0.15576 0.45708 0.13274 0.51000
Ag	Ag	0.17773 0.75501 0.63325 0.51300
C 	C 	0.46730 0.81070 0.09040 -0.13300
H 	H 	0.44600 0.78970 0.11200 0.07900
C 	C 	0.37630 0.75590 0.99900 0.10200
C 	C 	0.90220 0.97130 0.50050 0.10200
C 	C 	0.44020 0.80090 0.03120 0.05600
C 	C 	0.20230 0.58350 0.99570 -0.12500
H 	H 	0.18010 0.58720 0.95560 0.08200
C 	C 	0.99610 0.88470 0.50460 -0.12900
H 	H 	0.97640 0.88330 0.46440 0.08500
C 	C 	0.29050 0.72610 0.91360 0.10200
C 	C 	0.77970 0.15250 0.60890 0.04900
H 	H 	0.79940 0.15720 0.64890 -0.01800
C 	C 	0.81800 0.05220 0.49440 0.09700
C 	C 	0.72250 0.13830 0.49140 -0.12300
H 	H 	0.70160 0.13450 0.45130 0.07100
C 	C 	0.96670 0.92720 0.53460 0.06400
C 	C 	0.05590 0.84440 0.53660 0.08000
H 	H 	0.07580 0.81640 0.51650 -0.01000
C 	C 	0.25720 0.73670 0.84960 0.06000
C 	C 	0.47400 0.83430 0.00140 -0.13600
H 	H 	0.45690 0.82970 0.96140 0.07300
C 	C 	0.26470 0.56430 0.11230 0.07200
H 	H 	0.28650 0.55720 0.15220 -0.00500
C 	C 	0.78520 0.10170 0.52350 0.04600
C 	C 	0.26460 0.62160 0.02650 0.06100
C 	C 	0.53300 0.87420 0.03210 0.06200
H 	H 	0.55500 0.89680 0.01170 -0.01500
C 	C 	0.82120 0.95610 0.32050 -0.13500
H 	H 	0.86520 0.93880 0.34080 0.08200
C 	C 	0.29590 0.60950 0.08570 -0.12300
H 	H 	0.33800 0.63190 0.10750 0.08100
C 	C 	0.81980 0.00210 0.41310 0.09600
C 	C 	0.78760 0.99140 0.34890 0.05800
C 	C 	0.81350 0.10990 0.58270 -0.12100
H 	H 	0.85510 0.08690 0.60510 0.07400
C 	C 	0.52690 0.85260 0.11690 0.06000
H 	H 	0.54440 0.86000 0.15670 -0.01400
C 	C 	0.69270 0.18010 0.52130 0.06100
H 	H 	0.65140 0.20460 0.50010 -0.00500
C 	C 	0.29470 0.67210 0.99620 0.10400
C 	C 	0.17520 0.54040 0.02690 0.08200
H 	H 	0.13320 0.51710 0.00650 -0.01100
C 	C 	0.99840 0.92790 0.59430 -0.13500
H 	H 	0.98090 0.95760 0.61540 0.08000
C 	C 	0.69340 0.00490 0.25870 0.07400
H 	H 	0.64940 0.02190 0.23760 -0.02400
C 	C 	0.78820 0.94640 0.26080 0.07200
H 	H 	0.81100 0.92220 0.24160 -0.01100
C 	C 	0.25510 0.79510 0.76410 0.06200
H 	H 	0.27400 0.82990 0.74660 -0.01300
C 	C 	0.05620 0.88400 0.62180 0.07800
H 	H 	0.07550 0.88240 0.66200 -0.00300
C 	C 	0.28560 0.78760 0.82320 -0.13100
H 	H 	0.32460 0.81620 0.84510 0.07000
C 	C 	0.17200 0.70860 0.75700 0.07900
H 	H 	0.13280 0.68090 0.73440 -0.01600
C 	C 	0.72200 0.01660 0.31780 -0.14600
H 	H 	0.69810 0.04060 0.33600 0.07600
C 	C 	0.19780 0.69930 0.81610 -0.13800
H 	H 	0.17550 0.66840 0.83280 0.08300
N 	N 	0.20430 0.53000 0.08330 -0.18900
N 	N 	0.56080 0.88290 0.08920 -0.20800
N 	N 	0.19920 0.75440 0.73030 -0.19400
N 	N 	0.35230 0.71040 0.02860 -0.13900
N 	N 	0.34740 0.76680 0.94190 -0.14300
N 	N 	0.26210 0.67750 0.93830 -0.13700
N 	N 	0.72010 0.18710 0.57890 -0.20100
N 	N 	0.08650 0.84320 0.59410 -0.18500
N 	N 	0.72470 0.97080 0.23000 -0.19600
N 	N 	0.87410 0.01270 0.52790 -0.14200
N 	N 	0.87710 0.96300 0.44250 -0.13700
N 	N 	0.78900 0.04910 0.43650 -0.14900
Ag	Ag	0.65576 0.04292 0.63274 0.51000
Ag	Ag	0.67773 0.74499 0.13325 0.51300
C 	C 	0.96730 0.68930 0.59040 -0.13300
H 	H 	0.94600 0.71030 0.61200 0.07900
C 	C 	0.87630 0.74410 0.49900 0.10200
C 	C 	0.40220 0.52870 0.00050 0.10200
C 	C 	0.94020 0.69910 0.53120 0.05600
C 	C 	0.70230 0.91650 0.49570 -0.12700
H 	H 	0.68010 0.91280 0.45560 0.08300
C 	C 	0.49610 0.61530 0.00460 -0.12900
H 	H 	0.47640 0.61670 0.96440 0.08500
C 	C 	0.79050 0.77390 0.41360 0.10200
C 	C 	0.27970 0.34750 0.10890 0.04800
H 	H 	0.29940 0.34280 0.14890 -0.01800
C 	C 	0.31800 0.44780 0.99440 0.09800
C 	C 	0.22250 0.36170 0.99140 -0.12000
H 	H 	0.20160 0.36550 0.95130 0.07100
C 	C 	0.46670 0.57280 0.03460 0.06400
C 	C 	0.55590 0.65560 0.03660 0.08000
H 	H 	0.57580 0.68360 0.01650 -0.01000
C 	C 	0.75720 0.76330 0.34960 0.06000
C 	C 	0.97400 0.66570 0.50140 -0.13600
H 	H 	0.95690 0.67030 0.46140 0.07400
C 	C 	0.76470 0.93570 0.61230 0.07300
H 	H 	0.78650 0.94280 0.65220 -0.00500
C 	C 	0.28520 0.39830 0.02350 0.04400
C 	C 	0.76460 0.87840 0.52650 0.06300
C 	C 	0.03300 0.62580 0.53210 0.06200
H 	H 	0.05500 0.60320 0.51170 -0.01500
C 	C 	0.32120 0.54390 0.82050 -0.13500
H 	H 	0.36520 0.56120 0.84080 0.08200
C 	C 	0.79590 0.89050 0.58570 -0.12500
H 	H 	0.83800 0.86810 0.60750 0.08200
C 	C 	0.31980 0.49790 0.91310 0.09600
C 	C 	0.28760 0.50860 0.84890 0.05800
C 	C 	0.31350 0.39010 0.08270 -0.12000
H 	H 	0.35510 0.41310 0.10510 0.07400
C 	C 	0.02690 0.64740 0.61690 0.06000
H 	H 	0.04440 0.64000 0.65670 -0.01400
C 	C 	0.19270 0.31990 0.02130 0.05900
H 	H 	0.15140 0.29540 0.00010 -0.00400
C 	C 	0.79470 0.82790 0.49620 0.10300
C 	C 	0.67520 0.95960 0.52690 0.08400
H 	H 	0.63320 0.98290 0.50650 -0.01100
C 	C 	0.49840 0.57210 0.09430 -0.13500
H 	H 	0.48090 0.54240 0.11540 0.08000
C 	C 	0.19340 0.49510 0.75870 0.07400
H 	H 	0.14940 0.47810 0.73760 -0.02400
C 	C 	0.28820 0.55360 0.76080 0.07200
H 	H 	0.31100 0.57780 0.74160 -0.01100
C 	C 	0.75510 0.70490 0.26410 0.06200
H 	H 	0.77400 0.67010 0.24660 -0.01300
C 	C 	0.55620 0.61600 0.12180 0.07800
H 	H 	0.57550 0.61760 0.16200 -0.00300
C 	C 	0.78560 0.71240 0.32320 -0.13100
H 	H 	0.82460 0.68380 0.34510 0.07000
C 	C 	0.67200 0.79140 0.25700 0.07900
H 	H 	0.63280 0.81910 0.23440 -0.01600
C 	C 	0.22200 0.48340 0.81780 -0.14600
H 	H 	0.19810 0.45940 0.83600 0.07600
C 	C 	0.69780 0.80070 0.31610 -0.13800
H 	H 	0.67550 0.83160 0.33280 0.08300
N 	N 	0.70430 0.97000 0.58330 -0.19000
N 	N 	0.06080 0.61710 0.58920 -0.20900
N 	N 	0.69920 0.74560 0.23030 -0.19400
N 	N 	0.85230 0.78960 0.52860 -0.13800
N 	N 	0.84740 0.73320 0.44190 -0.14300
N 	N 	0.76210 0.82250 0.43830 -0.13700
N 	N 	0.22010 0.31290 0.07890 -0.20000
N 	N 	0.58650 0.65680 0.09410 -0.18500
N 	N 	0.22470 0.52920 0.73000 -0.19600
N 	N 	0.37410 0.48730 0.02790 -0.14300
N 	N 	0.37710 0.53700 0.94250 -0.13700
N 	N 	0.28900 0.45090 0.93650 -0.14900
Ag	Ag	0.15576 0.54292 0.63274 0.51000
Ag	Ag	0.17773 0.24499 0.13325 0.51300
C 	C 	0.46730 0.18930 0.59040 -0.13300
H 	H 	0.44600 0.21030 0.61200 0.07900
C 	C 	0.37630 0.24410 0.49900 0.10200
C 	C 	0.90220 0.02870 0.00050 0.10300
C 	C 	0.44020 0.19910 0.53120 0.05600
C 	C 	0.20230 0.41650 0.49570 -0.12700
H 	H 	0.18010 0.41280 0.45560 0.08300
C 	C 	0.99610 0.11530 0.00460 -0.12400
H 	H 	0.97640 0.11670 0.96440 0.08200
C 	C 	0.29050 0.27390 0.41360 0.10100
C 	C 	0.77970 0.84750 0.10890 0.05000
H 	H 	0.79940 0.84280 0.14890 -0.01900
C 	C 	0.81800 0.94780 0.99440 0.09500
C 	C 	0.72250 0.86170 0.99140 -0.12600
H 	H 	0.70160 0.86550 0.95130 0.07200
C 	C 	0.96670 0.07280 0.03460 0.06100
C 	C 	0.05590 0.15560 0.03660 0.07600
H 	H 	0.07580 0.18360 0.01650 -0.00900
C 	C 	0.25720 0.26330 0.34960 0.06000
C 	C 	0.47400 0.16570 0.50140 -0.13600
H 	H 	0.45690 0.17030 0.46140 0.07300
C 	C 	0.26470 0.43570 0.61230 0.07300
H 	H 	0.28650 0.44280 0.65220 -0.00500
C 	C 	0.78520 0.89830 0.02350 0.04900
C 	C 	0.26460 0.37840 0.52650 0.06300
C 	C 	0.53300 0.12580 0.53210 0.06200
H 	H 	0.55500 0.10320 0.51170 -0.01500
C 	C 	0.82120 0.04390 0.82050 -0.13500
H 	H 	0.86520 0.06120 0.84080 0.08200
C 	C 	0.29590 0.39050 0.58570 -0.12500
H 	H 	0.33800 0.36810 0.60750 0.08200
C 	C 	0.81980 0.99790 0.91310 0.09600
C 	C 	0.78760 0.00860 0.84890 0.05800
C 	C 	0.81350 0.89010 0.08270 -0.12300
H 	H 	0.85510 0.91310 0.10510 0.07500
C 	C 	0.52690 0.14740 0.61690 0.06000
H 	H 	0.54440 0.14000 0.65670 -0.01400
C 	C 	0.69270 0.81990 0.02130 0.06300
H 	H 	0.65140 0.79540 0.00010 -0.00500
C 	C 	0.29470 0.32790 0.49620 0.10300
C 	C 	0.17520 0.45960 0.52690 0.08400
H 	H 	0.13320 0.48290 0.50650 -0.01100
C 	C 	0.99840 0.07210 0.09430 -0.13100
H 	H 	0.98090 0.04240 0.11540 0.07900
C 	C 	0.69340 0.99510 0.75870 0.07400
H 	H 	0.64940 0.97810 0.73760 -0.02400
C 	C 	0.78820 0.05360 0.76080 0.07200
H 	H 	0.81100 0.07780 0.74160 -0.01100
C 	C 	0.25510 0.20490 0.26410 0.06200
H 	H 	0.27400 0.17010 0.24660 -0.01300
C 	C 	0.05620 0.11600 0.12180 0.07500
H 	H 	0.07550 0.11760 0.16200 -0.00200
C 	C 	0.28560 0.21240 0.32320 -0.13100
H 	H 	0.32460 0.18380 0.34510 0.07000
C 	C 	0.17200 0.29140 0.25700 0.07900
H 	H 	0.13280 0.31910 0.23440 -0.01600
C 	C 	0.72200 0.98340 0.81780 -0.14600
H 	H 	0.69810 0.95940 0.83600 0.07600
C 	C 	0.19780 0.30070 0.31610 -0.13800
H 	H 	0.17550 0.33160 0.33280 0.08300
N 	N 	0.20430 0.47000 0.58330 -0.19000
N 	N 	0.56080 0.11710 0.58920 -0.20800
N 	N 	0.19920 0.24560 0.23030 -0.19400
N 	N 	0.35230 0.28960 0.52860 -0.13800
N 	N 	0.34740 0.23320 0.44190 -0.14300
N 	N 	0.26210 0.32250 0.43830 -0.13700
N 	N 	0.72010 0.81290 0.07890 -0.20100
N 	N 	0.08650 0.15680 0.09410 -0.18400
N 	N 	0.72470 0.02920 0.73000 -0.19600
N 	N 	0.87410 0.98730 0.02790 -0.14200
N 	N 	0.87710 0.03700 0.94250 -0.13700
N 	N 	0.78900 0.95090 0.93650 -0.14900
Ag	Ag	0.34424 0.04292 0.86726 0.51000
Ag	Ag	0.32227 0.74499 0.36675 0.51300
C 	C 	0.03270 0.68930 0.90960 -0.13000
H 	H 	0.05400 0.71030 0.88800 0.07800
C 	C 	0.12370 0.74410 0.00100 0.10100
C 	C 	0.59780 0.52870 0.49950 0.10200
C 	C 	0.05980 0.69910 0.96880 0.05500
C 	C 	0.29770 0.91650 0.00430 -0.13000
H 	H 	0.31990 0.91280 0.04440 0.08400
C 	C 	0.50390 0.61530 0.49540 -0.12900
H 	H 	0.52360 0.61670 0.53560 0.08500
C 	C 	0.20950 0.77390 0.08640 0.10100
C 	C 	0.72030 0.34750 0.39110 0.04900
H 	H 	0.70060 0.34280 0.35110 -0.01800
C 	C 	0.68200 0.44780 0.50560 0.09700
C 	C 	0.77750 0.36170 0.50860 -0.12300
H 	H 	0.79840 0.36550 0.54870 0.07100
C 	C 	0.53330 0.57280 0.46540 0.06400
C 	C 	0.44410 0.65560 0.46340 0.07900
H 	H 	0.42420 0.68360 0.48350 -0.00900
C 	C 	0.24280 0.76330 0.15040 0.06000
C 	C 	0.02600 0.66570 0.99860 -0.13200
H 	H 	0.04310 0.67030 0.03860 0.07100
C 	C 	0.23530 0.93570 0.88770 0.07400
H 	H 	0.21350 0.94280 0.84780 -0.00500
C 	C 	0.71480 0.39830 0.47650 0.04600
C 	C 	0.23540 0.87840 0.97350 0.06500
C 	C 	0.96700 0.62580 0.96790 0.05900
H 	H 	0.94500 0.60320 0.98830 -0.01400
C 	C 	0.67880 0.54390 0.67950 -0.13500
H 	H 	0.63480 0.56120 0.65920 0.08200
C 	C 	0.20410 0.89050 0.91430 -0.12600
H 	H 	0.16200 0.86810 0.89250 0.08200
C 	C 	0.68020 0.49790 0.58690 0.09600
C 	C 	0.71240 0.50860 0.65110 0.05800
C 	C 	0.68650 0.39010 0.41730 -0.12100
H 	H 	0.64490 0.41310 0.39490 0.07400
C 	C 	0.97310 0.64740 0.88310 0.05800
H 	H 	0.95560 0.64000 0.84330 -0.01300
C 	C 	0.80730 0.31990 0.47870 0.06100
H 	H 	0.84860 0.29540 0.49990 -0.00500
C 	C 	0.20530 0.82790 0.00380 0.10200
C 	C 	0.32480 0.95960 0.97310 0.08600
H 	H 	0.36680 0.98290 0.99350 -0.01100
C 	C 	0.50160 0.57210 0.40570 -0.13500
H 	H 	0.51910 0.54240 0.38460 0.08000
C 	C 	0.80660 0.49510 0.74130 0.07400
H 	H 	0.85060 0.47810 0.76240 -0.02400
C 	C 	0.71180 0.55360 0.73920 0.07200
H 	H 	0.68900 0.57780 0.75840 -0.01100
C 	C 	0.24490 0.70490 0.23590 0.06200
H 	H 	0.22600 0.67010 0.25340 -0.01300
C 	C 	0.44380 0.61600 0.37820 0.07800
H 	H 	0.42450 0.61760 0.33800 -0.00300
C 	C 	0.21440 0.71240 0.17680 -0.13100
H 	H 	0.17540 0.68380 0.15490 0.07000
C 	C 	0.32800 0.79140 0.24300 0.07900
H 	H 	0.36720 0.81910 0.26560 -0.01600
C 	C 	0.77800 0.48340 0.68220 -0.14600
H 	H 	0.80190 0.45940 0.66400 0.07600
C 	C 	0.30220 0.80070 0.18390 -0.13800
H 	H 	0.32450 0.83160 0.16720 0.08300
N 	N 	0.29570 0.97000 0.91670 -0.19000
N 	N 	0.93920 0.61710 0.91080 -0.20800
N 	N 	0.30080 0.74560 0.26970 -0.19400
N 	N 	0.14770 0.78960 0.97140 -0.13800
N 	N 	0.15260 0.73320 0.05810 -0.14200
N 	N 	0.23790 0.82250 0.06170 -0.13700
N 	N 	0.77990 0.31290 0.42110 -0.20100
N 	N 	0.41350 0.65680 0.40590 -0.18500
N 	N 	0.77530 0.52920 0.77000 -0.19600
N 	N 	0.62590 0.48730 0.47210 -0.14200
N 	N 	0.62290 0.53700 0.55750 -0.13700
N 	N 	0.71100 0.45090 0.56350 -0.14900
Ag	Ag	0.84424 0.54292 0.86726 0.51000
Ag	Ag	0.82227 0.24499 0.36675 0.51300
C 	C 	0.53270 0.18930 0.90960 -0.13300
H 	H 	0.55400 0.21030 0.88800 0.07900
C 	C 	0.62370 0.24410 0.00100 0.10200
C 	C 	0.09780 0.02870 0.49950 0.10200
C 	C 	0.55980 0.19910 0.96880 0.05600
C 	C 	0.79770 0.41650 0.00430 -0.12500
H 	H 	0.81990 0.41280 0.04440 0.08200
C 	C 	0.00390 0.11530 0.49540 -0.12900
H 	H 	0.02360 0.11670 0.53560 0.08500
C 	C 	0.70950 0.27390 0.08640 0.10200
C 	C 	0.22030 0.84750 0.39110 0.04900
H 	H 	0.20060 0.84280 0.35110 -0.01800
C 	C 	0.18200 0.94780 0.50560 0.09700
C 	C 	0.27750 0.86170 0.50860 -0.12300
H 	H 	0.29840 0.86550 0.54870 0.07100
C 	C 	0.03330 0.07280 0.46540 0.06400
C 	C 	0.94410 0.15560 0.46340 0.08000
H 	H 	0.92420 0.18360 0.48350 -0.01000
C 	C 	0.74280 0.26330 0.15040 0.06000
C 	C 	0.52600 0.16570 0.99860 -0.13600
H 	H 	0.54310 0.17030 0.03860 0.07300
C 	C 	0.73530 0.43570 0.88770 0.07200
H 	H 	0.71350 0.44280 0.84780 -0.00500
C 	C 	0.21480 0.89830 0.47650 0.04600
C 	C 	0.73540 0.37840 0.97350 0.06100
C 	C 	0.46700 0.12580 0.96790 0.06200
H 	H 	0.44500 0.10320 0.98830 -0.01500
C 	C 	0.17880 0.04390 0.67950 -0.13500
H 	H 	0.13480 0.06120 0.65920 0.08200
C 	C 	0.70410 0.39050 0.91430 -0.12300
H 	H 	0.66200 0.36810 0.89250 0.08100
C 	C 	0.18020 0.99790 0.58690 0.09600
C 	C 	0.21240 0.00860 0.65110 0.05800
C 	C 	0.18650 0.89010 0.41730 -0.12100
H 	H 	0.14490 0.91310 0.39490 0.07400
C 	C 	0.47310 0.14740 0.88310 0.06000
H 	H 	0.45560 0.14000 0.84330 -0.01400
C 	C 	0.30730 0.81990 0.47870 0.06100
H 	H 	0.34860 0.79540 0.49990 -0.00500
C 	C 	0.70530 0.32790 0.00380 0.10400
C 	C 	0.82480 0.45960 0.97310 0.08200
H 	H 	0.86680 0.48290 0.99350 -0.01100
C 	C 	0.00160 0.07210 0.40570 -0.13500
H 	H 	0.01910 0.04240 0.38460 0.08000
C 	C 	0.30660 0.99510 0.74130 0.07400
H 	H 	0.35060 0.97810 0.76240 -0.02400
C 	C 	0.21180 0.05360 0.73920 0.07200
H 	H 	0.18900 0.07780 0.75840 -0.01100
C 	C 	0.74490 0.20490 0.23590 0.06200
H 	H 	0.72600 0.17010 0.25340 -0.01300
C 	C 	0.94380 0.11600 0.37820 0.07800
H 	H 	0.92450 0.11760 0.33800 -0.00300
C 	C 	0.71440 0.21240 0.17680 -0.13100
H 	H 	0.67540 0.18380 0.15490 0.07000
C 	C 	0.82800 0.29140 0.24300 0.07900
H 	H 	0.86720 0.31910 0.26560 -0.01600
C 	C 	0.27800 0.98340 0.68220 -0.14600
H 	H 	0.30190 0.95940 0.66400 0.07600
C 	C 	0.80220 0.30070 0.18390 -0.13800
H 	H 	0.82450 0.33160 0.16720 0.08300
N 	N 	0.79570 0.47000 0.91670 -0.18900
N 	N 	0.43920 0.11710 0.91080 -0.20800
N 	N 	0.80080 0.24560 0.26970 -0.19400
N 	N 	0.64770 0.28960 0.97140 -0.13900
N 	N 	0.65260 0.23320 0.05810 -0.14300
N 	N 	0.73790 0.32250 0.06170 -0.13700
N 	N 	0.27990 0.81290 0.42110 -0.20100
N 	N 	0.91350 0.15680 0.40590 -0.18500
N 	N 	0.27530 0.02920 0.77000 -0.19600
N 	N 	0.12590 0.98730 0.47210 -0.14200
N 	N 	0.12290 0.03700 0.55750 -0.13700
N 	N 	0.21100 0.95090 0.56350 -0.14900
