data_crystal

_cell_length_a 22.07000
_cell_length_b 16.43280
_cell_length_c 25.61730
_cell_angle_alpha 90.00000
_cell_angle_beta  115.31500
_cell_angle_gamma 90.00000

_symmetry_space_group_name_	'P 1'
_symmetry_space_group_name_H-M	'P 1'

loop_
_symmetry_equiv_pos_as_xyz
  x,y,z

loop_
_atom_site_label
_atom_site_type_symbol
_atom_site_fract_x
_atom_site_fract_y
_atom_site_fract_z
_atom_site_charge
Ag	Ag	0.34417 0.95761 0.36780 0.50900
Ag	Ag	0.32282 0.25282 0.86720 0.51200
C 	C 	0.12390 0.25680 0.50186 0.10100
C 	C 	0.03320 0.31230 0.41090 -0.13100
H 	H 	0.05490 0.29140 0.38970 0.07800
C 	C 	0.44410 0.34350 0.96480 0.07600
H 	H 	0.42410 0.31560 0.98490 -0.00800
C 	C 	0.59780 0.47020 0.00070 0.10200
C 	C 	0.77800 0.63790 0.00920 -0.12100
H 	H 	0.79890 0.63420 0.04920 0.07100
C 	C 	0.06000 0.30180 0.46980 0.05300
C 	C 	0.23520 0.06460 0.38840 0.07500
H 	H 	0.21320 0.05750 0.34860 -0.00500
C 	C 	0.50360 0.38370 0.99630 -0.12600
H 	H 	0.52320 0.38230 0.03650 0.08300
C 	C 	0.72010 0.65210 0.89220 0.05100
H 	H 	0.69990 0.65660 0.85220 -0.01800
C 	C 	0.20970 0.22640 0.58730 0.10300
C 	C 	0.29790 0.08430 0.50470 -0.12600
H 	H 	0.32020 0.08880 0.54460 0.08300
C 	C 	0.53360 0.42640 0.96667 0.06000
C 	C 	0.02600 0.33530 0.49960 -0.13100
H 	H 	0.04340 0.33060 0.53960 0.07100
C 	C 	0.96690 0.37530 0.46940 0.05500
H 	H 	0.94460 0.39710 0.48980 -0.01200
C 	C 	0.24330 0.23710 0.65100 0.05600
C 	C 	0.68250 0.55180 0.00660 0.09600
C 	C 	0.71550 0.60150 0.97750 0.04700
C 	C 	0.68030 0.50220 0.08790 0.09600
C 	C 	0.67910 0.45590 0.18100 -0.12700
H 	H 	0.63500 0.43840 0.16090 0.07900
C 	C 	0.20540 0.17210 0.50510 0.10400
C 	C 	0.97340 0.35450 0.38390 0.05600
H 	H 	0.95620 0.36230 0.34410 -0.01200
C 	C 	0.80740 0.50490 0.24250 0.06700
H 	H 	0.85150 0.52160 0.26340 -0.02100
C 	C 	0.23590 0.12140 0.47440 0.06500
C 	C 	0.32560 0.04040 0.47380 0.07800
H 	H 	0.36760 0.01690 0.49410 -0.00900
C 	C 	0.20380 0.10990 0.41500 -0.12700
H 	H 	0.16180 0.13250 0.39340 0.08300
C 	C 	0.71240 0.49150 0.15170 0.05100
C 	C 	0.80790 0.67980 0.97900 0.05800
H 	H 	0.84930 0.70430 0.00010 -0.00300
C 	C 	0.68650 0.61000 0.91830 -0.12300
H 	H 	0.64460 0.58750 0.89620 0.07500
C 	C 	0.50240 0.42710 0.90700 -0.12800
H 	H 	0.52060 0.45630 0.88600 0.07700
C 	C 	0.44360 0.38350 0.87900 0.07200
H 	H 	0.42370 0.38270 0.83880 -0.00100
C 	C 	0.71190 0.44660 0.24040 0.06700
H 	H 	0.68900 0.42270 0.25960 -0.00900
C 	C 	0.21550 0.28860 0.67780 -0.12800
H 	H 	0.17700 0.31830 0.65610 0.06800
C 	C 	0.24580 0.29520 0.73720 0.06300
H 	H 	0.22690 0.33020 0.75470 -0.01300
C 	C 	0.30230 0.19780 0.68490 -0.13000
H 	H 	0.32410 0.16580 0.66820 0.08100
C 	C 	0.77830 0.51670 0.18330 -0.13700
H 	H 	0.80220 0.54090 0.16510 0.07300
C 	C 	0.32840 0.20720 0.74410 0.07100
H 	H 	0.36760 0.17920 0.76670 -0.01400
N 	N 	0.93922 0.38460 0.41173 -0.20700
N 	N 	0.29547 0.03020 0.41670 -0.18900
N 	N 	0.30080 0.25390 0.77089 -0.19300
N 	N 	0.15295 0.26800 0.55910 -0.14200
N 	N 	0.14800 0.21090 0.47237 -0.13900
N 	N 	0.23813 0.17760 0.56265 -0.13800
N 	N 	0.41350 0.34230 0.90683 -0.18200
N 	N 	0.78020 0.68680 0.92143 -0.20100
N 	N 	0.77580 0.47100 0.27145 -0.19400
N 	N 	0.62287 0.46240 0.05853 -0.13700
N 	N 	0.62625 0.51150 0.97295 -0.14100
N 	N 	0.71152 0.54950 0.06460 -0.14800
Ag	Ag	0.84417 0.45761 0.36780 0.51000
Ag	Ag	0.82282 0.75282 0.86720 0.51300
C 	C 	0.62390 0.75680 0.50186 0.10200
C 	C 	0.53320 0.81230 0.41090 -0.12900
H 	H 	0.55490 0.79140 0.38970 0.07800
C 	C 	0.94410 0.84350 0.96480 0.07200
H 	H 	0.92410 0.81560 0.98490 -0.00700
C 	C 	0.09780 0.97020 0.00070 0.10100
C 	C 	0.27800 0.13790 0.00920 -0.12800
H 	H 	0.29890 0.13420 0.04920 0.07400
C 	C 	0.56000 0.80180 0.46980 0.05300
C 	C 	0.73520 0.56460 0.38840 0.07500
H 	H 	0.71320 0.55750 0.34860 -0.00500
C 	C 	0.00360 0.88370 0.99630 -0.11900
H 	H 	0.02320 0.88230 0.03650 0.08000
C 	C 	0.22010 0.15210 0.89220 0.05300
H 	H 	0.19990 0.15660 0.85220 -0.01900
C 	C 	0.70970 0.72640 0.58730 0.10300
C 	C 	0.79790 0.58430 0.50470 -0.12600
H 	H 	0.82020 0.58880 0.54460 0.08300
C 	C 	0.03360 0.92640 0.96667 0.05900
C 	C 	0.52600 0.83530 0.49960 -0.13000
H 	H 	0.54340 0.83060 0.53960 0.07100
C 	C 	0.46690 0.87530 0.46940 0.05500
H 	H 	0.44460 0.89710 0.48980 -0.01200
C 	C 	0.74330 0.73710 0.65100 0.05600
C 	C 	0.18250 0.05180 0.00660 0.09300
C 	C 	0.21550 0.10150 0.97750 0.05200
C 	C 	0.18030 0.00220 0.08790 0.09700
C 	C 	0.17910 0.95590 0.18100 -0.12700
H 	H 	0.13500 0.93840 0.16090 0.07900
C 	C 	0.70540 0.67210 0.50510 0.10400
C 	C 	0.47340 0.85450 0.38390 0.05500
H 	H 	0.45620 0.86230 0.34410 -0.01200
C 	C 	0.30740 0.00490 0.24250 0.06700
H 	H 	0.35150 0.02160 0.26340 -0.02100
C 	C 	0.73590 0.62140 0.47440 0.06500
C 	C 	0.82560 0.54040 0.47380 0.07800
H 	H 	0.86760 0.51690 0.49410 -0.00900
C 	C 	0.70380 0.60990 0.41500 -0.12700
H 	H 	0.66180 0.63250 0.39340 0.08300
C 	C 	0.21240 0.99150 0.15170 0.05100
C 	C 	0.30790 0.17980 0.97900 0.06400
H 	H 	0.34930 0.20430 0.00010 -0.00600
C 	C 	0.18650 0.11000 0.91830 -0.12600
H 	H 	0.14460 0.08750 0.89620 0.07600
C 	C 	0.00240 0.92710 0.90700 -0.12500
H 	H 	0.02060 0.95630 0.88600 0.07700
C 	C 	0.94360 0.88350 0.87900 0.07000
H 	H 	0.92370 0.88270 0.83880 -0.00100
C 	C 	0.21190 0.94660 0.24040 0.06700
H 	H 	0.18900 0.92270 0.25960 -0.00900
C 	C 	0.71550 0.78860 0.67780 -0.12800
H 	H 	0.67700 0.81830 0.65610 0.06800
C 	C 	0.74580 0.79520 0.73720 0.06300
H 	H 	0.72690 0.83020 0.75470 -0.01300
C 	C 	0.80230 0.69780 0.68490 -0.13000
H 	H 	0.82410 0.66580 0.66820 0.08100
C 	C 	0.27830 0.01670 0.18330 -0.13700
H 	H 	0.30220 0.04090 0.16510 0.07300
C 	C 	0.82840 0.70720 0.74410 0.07100
H 	H 	0.86760 0.67920 0.76670 -0.01400
N 	N 	0.43922 0.88460 0.41173 -0.20600
N 	N 	0.79547 0.53020 0.41670 -0.18900
N 	N 	0.80080 0.75390 0.77089 -0.19400
N 	N 	0.65295 0.76800 0.55910 -0.14200
N 	N 	0.64800 0.71090 0.47237 -0.13900
N 	N 	0.73813 0.67760 0.56265 -0.13800
N 	N 	0.91350 0.84230 0.90683 -0.18100
N 	N 	0.28020 0.18680 0.92143 -0.20200
N 	N 	0.27580 0.97100 0.27145 -0.19400
N 	N 	0.12287 0.96240 0.05853 -0.13700
N 	N 	0.12625 0.01150 0.97295 -0.14000
N 	N 	0.21152 0.04950 0.06460 -0.14800
Ag	Ag	0.65583 0.95761 0.13220 0.51000
Ag	Ag	0.67718 0.25282 0.63280 0.51300
C 	C 	0.87610 0.25680 0.99814 0.10000
C 	C 	0.96680 0.31230 0.08910 -0.12600
H 	H 	0.94510 0.29140 0.11030 0.07700
C 	C 	0.55590 0.34350 0.53520 0.07600
H 	H 	0.57590 0.31560 0.51510 -0.00800
C 	C 	0.40220 0.47020 0.49930 0.10200
C 	C 	0.22200 0.63790 0.49080 -0.12500
H 	H 	0.20110 0.63420 0.45080 0.07200
C 	C 	0.94000 0.30180 0.03020 0.05100
C 	C 	0.76480 0.06460 0.11160 0.07600
H 	H 	0.78680 0.05750 0.15140 -0.00600
C 	C 	0.49640 0.38370 0.50370 -0.12500
H 	H 	0.47680 0.38230 0.46350 0.08300
C 	C 	0.27990 0.65210 0.60780 0.05200
H 	H 	0.30010 0.65660 0.64780 -0.01900
C 	C 	0.79030 0.22640 0.91270 0.10300
C 	C 	0.70210 0.08430 0.99530 -0.13000
H 	H 	0.67980 0.08880 0.95540 0.08400
C 	C 	0.46640 0.42640 0.53333 0.06000
C 	C 	0.97400 0.33530 0.00040 -0.12500
H 	H 	0.95660 0.33060 0.96040 0.06900
C 	C 	0.03310 0.37530 0.03060 0.05100
H 	H 	0.05540 0.39710 0.01020 -0.01100
C 	C 	0.75670 0.23710 0.84900 0.05600
C 	C 	0.31750 0.55180 0.49340 0.09500
C 	C 	0.28450 0.60150 0.52250 0.05000
C 	C 	0.31970 0.50220 0.41210 0.09600
C 	C 	0.32090 0.45590 0.31900 -0.12700
H 	H 	0.36500 0.43840 0.33910 0.07900
C 	C 	0.79460 0.17210 0.99490 0.10100
C 	C 	0.02660 0.35450 0.11610 0.05300
H 	H 	0.04380 0.36230 0.15590 -0.01200
C 	C 	0.19260 0.50490 0.25750 0.06700
H 	H 	0.14850 0.52160 0.23660 -0.02100
C 	C 	0.76410 0.12140 0.02560 0.06800
C 	C 	0.67440 0.04040 0.02620 0.08100
H 	H 	0.63240 0.01690 0.00590 -0.00900
C 	C 	0.79620 0.10990 0.08500 -0.12900
H 	H 	0.83820 0.13250 0.10660 0.08300
C 	C 	0.28760 0.49150 0.34830 0.05100
C 	C 	0.19210 0.67980 0.52100 0.06200
H 	H 	0.15070 0.70430 0.49990 -0.00500
C 	C 	0.31350 0.61000 0.58170 -0.12500
H 	H 	0.35540 0.58750 0.60380 0.07600
C 	C 	0.49760 0.42710 0.59300 -0.12800
H 	H 	0.47940 0.45630 0.61400 0.07700
C 	C 	0.55640 0.38350 0.62100 0.07200
H 	H 	0.57630 0.38270 0.66120 -0.00100
C 	C 	0.28810 0.44660 0.25960 0.06700
H 	H 	0.31100 0.42270 0.24040 -0.00900
C 	C 	0.78450 0.28860 0.82220 -0.12800
H 	H 	0.82300 0.31830 0.84390 0.06800
C 	C 	0.75420 0.29520 0.76280 0.06300
H 	H 	0.77310 0.33020 0.74530 -0.01300
C 	C 	0.69770 0.19780 0.81510 -0.13000
H 	H 	0.67590 0.16580 0.83180 0.08100
C 	C 	0.22170 0.51670 0.31670 -0.13700
H 	H 	0.19780 0.54090 0.33490 0.07300
C 	C 	0.67160 0.20720 0.75590 0.07100
H 	H 	0.63240 0.17920 0.73330 -0.01400
N 	N 	0.06078 0.38460 0.08827 -0.20500
N 	N 	0.70453 0.03020 0.08330 -0.19000
N 	N 	0.69920 0.25390 0.72911 -0.19300
N 	N 	0.84705 0.26800 0.94090 -0.14200
N 	N 	0.85200 0.21090 0.02763 -0.13700
N 	N 	0.76187 0.17760 0.93735 -0.13800
N 	N 	0.58650 0.34230 0.59317 -0.18200
N 	N 	0.21980 0.68680 0.57857 -0.20200
N 	N 	0.22420 0.47100 0.22855 -0.19400
N 	N 	0.37713 0.46240 0.44147 -0.13700
N 	N 	0.37375 0.51150 0.52705 -0.14100
N 	N 	0.28848 0.54950 0.43540 -0.14800
Ag	Ag	0.15583 0.45761 0.13220 0.51000
Ag	Ag	0.17718 0.75282 0.63280 0.51300
C 	C 	0.37610 0.75680 0.99814 0.10200
C 	C 	0.46680 0.81230 0.08910 -0.12900
H 	H 	0.44510 0.79140 0.11030 0.07800
C 	C 	0.05590 0.84350 0.53520 0.07600
H 	H 	0.07590 0.81560 0.51510 -0.00800
C 	C 	0.90220 0.97020 0.49930 0.10200
C 	C 	0.72200 0.13790 0.49080 -0.12500
H 	H 	0.70110 0.13420 0.45080 0.07300
C 	C 	0.44000 0.80180 0.03020 0.05300
C 	C 	0.26480 0.56460 0.11160 0.07400
H 	H 	0.28680 0.55750 0.15140 -0.00500
C 	C 	0.99640 0.88370 0.50370 -0.12600
H 	H 	0.97680 0.88230 0.46350 0.08300
C 	C 	0.77990 0.15210 0.60780 0.05200
H 	H 	0.80010 0.15660 0.64780 -0.01900
C 	C 	0.29030 0.72640 0.91270 0.10300
C 	C 	0.20210 0.58430 0.99530 -0.12300
H 	H 	0.17980 0.58880 0.95540 0.08200
C 	C 	0.96640 0.92640 0.53333 0.06100
C 	C 	0.47400 0.83530 0.00040 -0.13100
H 	H 	0.45660 0.83060 0.96040 0.07200
C 	C 	0.53310 0.87530 0.03060 0.05600
H 	H 	0.55540 0.89710 0.01020 -0.01200
C 	C 	0.25670 0.73710 0.84900 0.05600
C 	C 	0.81750 0.05180 0.49340 0.09500
C 	C 	0.78450 0.10150 0.52250 0.05000
C 	C 	0.81970 0.00220 0.41210 0.09600
C 	C 	0.82090 0.95590 0.31900 -0.12700
H 	H 	0.86500 0.93840 0.33910 0.07900
C 	C 	0.29460 0.67210 0.99490 0.10500
C 	C 	0.52660 0.85450 0.11610 0.05500
H 	H 	0.54380 0.86230 0.15590 -0.01200
C 	C 	0.69260 0.00490 0.25750 0.06700
H 	H 	0.64850 0.02160 0.23660 -0.02100
C 	C 	0.26410 0.62140 0.02560 0.06200
C 	C 	0.17440 0.54040 0.02620 0.07600
H 	H 	0.13240 0.51690 0.00590 -0.00800
C 	C 	0.29620 0.60990 0.08500 -0.12500
H 	H 	0.33820 0.63250 0.10660 0.08200
C 	C 	0.78760 0.99150 0.34830 0.05100
C 	C 	0.69210 0.17980 0.52100 0.06200
H 	H 	0.65070 0.20430 0.49990 -0.00500
C 	C 	0.81350 0.11000 0.58170 -0.12500
H 	H 	0.85540 0.08750 0.60380 0.07600
C 	C 	0.99760 0.92710 0.59300 -0.12900
H 	H 	0.97940 0.95630 0.61400 0.07800
C 	C 	0.05640 0.88350 0.62100 0.07300
H 	H 	0.07630 0.88270 0.66120 -0.00100
C 	C 	0.78810 0.94660 0.25960 0.06700
H 	H 	0.81100 0.92270 0.24040 -0.00900
C 	C 	0.28450 0.78860 0.82220 -0.12800
H 	H 	0.32300 0.81830 0.84390 0.06800
C 	C 	0.25420 0.79520 0.76280 0.06300
H 	H 	0.27310 0.83020 0.74530 -0.01300
C 	C 	0.19770 0.69780 0.81510 -0.13000
H 	H 	0.17590 0.66580 0.83180 0.08100
C 	C 	0.72170 0.01670 0.31670 -0.13700
H 	H 	0.69780 0.04090 0.33490 0.07300
C 	C 	0.17160 0.70720 0.75590 0.07100
H 	H 	0.13240 0.67920 0.73330 -0.01400
N 	N 	0.56078 0.88460 0.08827 -0.20600
N 	N 	0.20453 0.53020 0.08330 -0.18800
N 	N 	0.19920 0.75390 0.72911 -0.19300
N 	N 	0.34705 0.76800 0.94090 -0.14200
N 	N 	0.35200 0.71090 0.02763 -0.13900
N 	N 	0.26187 0.67760 0.93735 -0.13800
N 	N 	0.08650 0.84230 0.59317 -0.18200
N 	N 	0.71980 0.18680 0.57857 -0.20200
N 	N 	0.72420 0.97100 0.22855 -0.19400
N 	N 	0.87713 0.96240 0.44147 -0.13700
N 	N 	0.87375 0.01150 0.52705 -0.14100
N 	N 	0.78848 0.04950 0.43540 -0.14800
Ag	Ag	0.65583 0.04239 0.63220 0.51000
Ag	Ag	0.67718 0.74718 0.13280 0.51300
C 	C 	0.87610 0.74320 0.49814 0.10200
C 	C 	0.96680 0.68770 0.58910 -0.13000
H 	H 	0.94510 0.70860 0.61030 0.07800
C 	C 	0.55590 0.65650 0.03520 0.07600
H 	H 	0.57590 0.68440 0.01510 -0.00800
C 	C 	0.40220 0.52980 0.99930 0.10200
C 	C 	0.22200 0.36210 0.99080 -0.12100
H 	H 	0.20110 0.36580 0.95080 0.07100
C 	C 	0.94000 0.69820 0.53020 0.05300
C 	C 	0.76480 0.93540 0.61160 0.07500
H 	H 	0.78680 0.94250 0.65140 -0.00500
C 	C 	0.49640 0.61630 0.00370 -0.12600
H 	H 	0.47680 0.61770 0.96350 0.08300
C 	C 	0.27990 0.34790 0.10780 0.05100
H 	H 	0.30010 0.34340 0.14780 -0.01800
C 	C 	0.79030 0.77360 0.41270 0.10300
C 	C 	0.70210 0.91570 0.49530 -0.12600
H 	H 	0.67980 0.91120 0.45540 0.08300
C 	C 	0.46640 0.57360 0.03333 0.06000
C 	C 	0.97400 0.66470 0.50040 -0.13100
H 	H 	0.95660 0.66940 0.46040 0.07100
C 	C 	0.03310 0.62470 0.53060 0.05500
H 	H 	0.05540 0.60290 0.51020 -0.01200
C 	C 	0.75670 0.76290 0.34900 0.05600
C 	C 	0.31750 0.44820 0.99340 0.09600
C 	C 	0.28450 0.39850 0.02250 0.04700
C 	C 	0.31970 0.49780 0.91210 0.09600
C 	C 	0.32090 0.54410 0.81900 -0.12700
H 	H 	0.36500 0.56160 0.83910 0.07900
C 	C 	0.79460 0.82790 0.49490 0.10400
C 	C 	0.02660 0.64550 0.61610 0.05600
H 	H 	0.04380 0.63770 0.65590 -0.01200
C 	C 	0.19260 0.49510 0.75750 0.06700
H 	H 	0.14850 0.47840 0.73660 -0.02100
C 	C 	0.76410 0.87860 0.52560 0.06500
C 	C 	0.67440 0.95960 0.52620 0.07800
H 	H 	0.63240 0.98310 0.50590 -0.00900
C 	C 	0.79620 0.89010 0.58500 -0.12700
H 	H 	0.83820 0.86750 0.60660 0.08300
C 	C 	0.28760 0.50850 0.84830 0.05100
C 	C 	0.19210 0.32020 0.02100 0.05800
H 	H 	0.15070 0.29570 0.99990 -0.00300
C 	C 	0.31350 0.39000 0.08170 -0.12300
H 	H 	0.35540 0.41250 0.10380 0.07500
C 	C 	0.49760 0.57290 0.09300 -0.12800
H 	H 	0.47940 0.54370 0.11400 0.07700
C 	C 	0.55640 0.61650 0.12100 0.07200
H 	H 	0.57630 0.61730 0.16120 -0.00100
C 	C 	0.28810 0.55340 0.75960 0.06700
H 	H 	0.31100 0.57730 0.74040 -0.00900
C 	C 	0.78450 0.71140 0.32220 -0.12800
H 	H 	0.82300 0.68170 0.34390 0.06800
C 	C 	0.75420 0.70480 0.26280 0.06300
H 	H 	0.77310 0.66980 0.24530 -0.01300
C 	C 	0.69770 0.80220 0.31510 -0.13000
H 	H 	0.67590 0.83420 0.33180 0.08100
C 	C 	0.22170 0.48330 0.81670 -0.13700
H 	H 	0.19780 0.45910 0.83490 0.07300
C 	C 	0.67160 0.79280 0.25590 0.07100
H 	H 	0.63240 0.82080 0.23330 -0.01400
N 	N 	0.06078 0.61540 0.58827 -0.20700
N 	N 	0.70453 0.96980 0.58330 -0.18900
N 	N 	0.69920 0.74610 0.22911 -0.19300
N 	N 	0.84705 0.73200 0.44090 -0.14200
N 	N 	0.85200 0.78910 0.52763 -0.13900
N 	N 	0.76187 0.82240 0.43735 -0.13800
N 	N 	0.58650 0.65770 0.09317 -0.18200
N 	N 	0.21980 0.31320 0.07857 -0.20100
N 	N 	0.22420 0.52900 0.72855 -0.19400
N 	N 	0.37713 0.53760 0.94147 -0.13700
N 	N 	0.37375 0.48850 0.02705 -0.14100
N 	N 	0.28848 0.45050 0.93540 -0.14800
Ag	Ag	0.15583 0.54239 0.63220 0.51000
Ag	Ag	0.17718 0.24718 0.13280 0.51300
C 	C 	0.37610 0.24320 0.49814 0.10200
C 	C 	0.46680 0.18770 0.58910 -0.12900
H 	H 	0.44510 0.20860 0.61030 0.07800
C 	C 	0.05590 0.15650 0.03520 0.07200
H 	H 	0.07590 0.18440 0.01510 -0.00700
C 	C 	0.90220 0.02980 0.99930 0.10100
C 	C 	0.72200 0.86210 0.99080 -0.12800
H 	H 	0.70110 0.86580 0.95080 0.07400
C 	C 	0.44000 0.19820 0.53020 0.05300
C 	C 	0.26480 0.43540 0.61160 0.07500
H 	H 	0.28680 0.44250 0.65140 -0.00500
C 	C 	0.99640 0.11630 0.00370 -0.11900
H 	H 	0.97680 0.11770 0.96350 0.08000
C 	C 	0.77990 0.84790 0.10780 0.05300
H 	H 	0.80010 0.84340 0.14780 -0.01900
C 	C 	0.29030 0.27360 0.41270 0.10300
C 	C 	0.20210 0.41570 0.49530 -0.12600
H 	H 	0.17980 0.41120 0.45540 0.08300
C 	C 	0.96640 0.07360 0.03333 0.05900
C 	C 	0.47400 0.16470 0.50040 -0.13000
H 	H 	0.45660 0.16940 0.46040 0.07100
C 	C 	0.53310 0.12470 0.53060 0.05500
H 	H 	0.55540 0.10290 0.51020 -0.01200
C 	C 	0.25670 0.26290 0.34900 0.05600
C 	C 	0.81750 0.94820 0.99340 0.09300
C 	C 	0.78450 0.89850 0.02250 0.05200
C 	C 	0.81970 0.99780 0.91210 0.09700
C 	C 	0.82090 0.04410 0.81900 -0.12700
H 	H 	0.86500 0.06160 0.83910 0.07900
C 	C 	0.29460 0.32790 0.49490 0.10400
C 	C 	0.52660 0.14550 0.61610 0.05500
H 	H 	0.54380 0.13770 0.65590 -0.01200
C 	C 	0.69260 0.99510 0.75750 0.06700
H 	H 	0.64850 0.97840 0.73660 -0.02100
C 	C 	0.26410 0.37860 0.52560 0.06500
C 	C 	0.17440 0.45960 0.52620 0.07800
H 	H 	0.13240 0.48310 0.50590 -0.00900
C 	C 	0.29620 0.39010 0.58500 -0.12700
H 	H 	0.33820 0.36750 0.60660 0.08300
C 	C 	0.78760 0.00850 0.84830 0.05100
C 	C 	0.69210 0.82020 0.02100 0.06400
H 	H 	0.65070 0.79570 0.99990 -0.00600
C 	C 	0.81350 0.89000 0.08170 -0.12600
H 	H 	0.85540 0.91250 0.10380 0.07600
C 	C 	0.99760 0.07290 0.09300 -0.12500
H 	H 	0.97940 0.04370 0.11400 0.07700
C 	C 	0.05640 0.11650 0.12100 0.07000
H 	H 	0.07630 0.11730 0.16120 -0.00100
C 	C 	0.78810 0.05340 0.75960 0.06700
H 	H 	0.81100 0.07730 0.74040 -0.00900
C 	C 	0.28450 0.21140 0.32220 -0.12800
H 	H 	0.32300 0.18170 0.34390 0.06800
C 	C 	0.25420 0.20480 0.26280 0.06300
H 	H 	0.27310 0.16980 0.24530 -0.01300
C 	C 	0.19770 0.30220 0.31510 -0.13000
H 	H 	0.17590 0.33420 0.33180 0.08100
C 	C 	0.72170 0.98330 0.81670 -0.13700
H 	H 	0.69780 0.95910 0.83490 0.07300
C 	C 	0.17160 0.29280 0.25590 0.07100
H 	H 	0.13240 0.32080 0.23330 -0.01400
N 	N 	0.56078 0.11540 0.58827 -0.20600
N 	N 	0.20453 0.46980 0.58330 -0.18900
N 	N 	0.19920 0.24610 0.22911 -0.19400
N 	N 	0.34705 0.23200 0.44090 -0.14200
N 	N 	0.35200 0.28910 0.52763 -0.13900
N 	N 	0.26187 0.32240 0.43735 -0.13800
N 	N 	0.08650 0.15770 0.09317 -0.18100
N 	N 	0.71980 0.81320 0.07857 -0.20200
N 	N 	0.72420 0.02900 0.72855 -0.19400
N 	N 	0.87713 0.03760 0.94147 -0.13700
N 	N 	0.87375 0.98850 0.02705 -0.14000
N 	N 	0.78848 0.95050 0.93540 -0.14800
Ag	Ag	0.34417 0.04239 0.86780 0.51000
Ag	Ag	0.32282 0.74718 0.36720 0.51300
C 	C 	0.12390 0.74320 0.00186 0.10000
C 	C 	0.03320 0.68770 0.91090 -0.12600
H 	H 	0.05490 0.70860 0.88970 0.07700
C 	C 	0.44410 0.65650 0.46480 0.07600
H 	H 	0.42410 0.68440 0.48490 -0.00800
C 	C 	0.59780 0.52980 0.50070 0.10200
C 	C 	0.77800 0.36210 0.50920 -0.12500
H 	H 	0.79890 0.36580 0.54920 0.07200
C 	C 	0.06000 0.69820 0.96980 0.05100
C 	C 	0.23520 0.93540 0.88840 0.07600
H 	H 	0.21320 0.94250 0.84860 -0.00600
C 	C 	0.50360 0.61630 0.49630 -0.12500
H 	H 	0.52320 0.61770 0.53650 0.08300
C 	C 	0.72010 0.34790 0.39220 0.05200
H 	H 	0.69990 0.34340 0.35220 -0.01900
C 	C 	0.20970 0.77360 0.08730 0.10300
C 	C 	0.29790 0.91570 0.00470 -0.13000
H 	H 	0.32020 0.91120 0.04460 0.08400
C 	C 	0.53360 0.57360 0.46667 0.06000
C 	C 	0.02600 0.66470 0.99960 -0.12500
H 	H 	0.04340 0.66940 0.03960 0.06900
C 	C 	0.96690 0.62470 0.96940 0.05100
H 	H 	0.94460 0.60290 0.98980 -0.01100
C 	C 	0.24330 0.76290 0.15100 0.05600
C 	C 	0.68250 0.44820 0.50660 0.09500
C 	C 	0.71550 0.39850 0.47750 0.05000
C 	C 	0.68030 0.49780 0.58790 0.09600
C 	C 	0.67910 0.54410 0.68100 -0.12700
H 	H 	0.63500 0.56160 0.66090 0.07900
C 	C 	0.20540 0.82790 0.00510 0.10100
C 	C 	0.97340 0.64550 0.88390 0.05300
H 	H 	0.95620 0.63770 0.84410 -0.01200
C 	C 	0.80740 0.49510 0.74250 0.06700
H 	H 	0.85150 0.47840 0.76340 -0.02100
C 	C 	0.23590 0.87860 0.97440 0.06800
C 	C 	0.32560 0.95960 0.97380 0.08100
H 	H 	0.36760 0.98310 0.99410 -0.00900
C 	C 	0.20380 0.89010 0.91500 -0.12900
H 	H 	0.16180 0.86750 0.89340 0.08300
C 	C 	0.71240 0.50850 0.65170 0.05100
C 	C 	0.80790 0.32020 0.47900 0.06200
H 	H 	0.84930 0.29570 0.50010 -0.00500
C 	C 	0.68650 0.39000 0.41830 -0.12500
H 	H 	0.64460 0.41250 0.39620 0.07600
C 	C 	0.50240 0.57290 0.40700 -0.12800
H 	H 	0.52060 0.54370 0.38600 0.07700
C 	C 	0.44360 0.61650 0.37900 0.07200
H 	H 	0.42370 0.61730 0.33880 -0.00100
C 	C 	0.71190 0.55340 0.74040 0.06700
H 	H 	0.68900 0.57730 0.75960 -0.00900
C 	C 	0.21550 0.71140 0.17780 -0.12800
H 	H 	0.17700 0.68170 0.15610 0.06800
C 	C 	0.24580 0.70480 0.23720 0.06300
H 	H 	0.22690 0.66980 0.25470 -0.01300
C 	C 	0.30230 0.80220 0.18490 -0.13000
H 	H 	0.32410 0.83420 0.16820 0.08100
C 	C 	0.77830 0.48330 0.68330 -0.13700
H 	H 	0.80220 0.45910 0.66510 0.07300
C 	C 	0.32840 0.79280 0.24410 0.07100
H 	H 	0.36760 0.82080 0.26670 -0.01400
N 	N 	0.93922 0.61540 0.91173 -0.20500
N 	N 	0.29547 0.96980 0.91670 -0.19000
N 	N 	0.30080 0.74610 0.27089 -0.19300
N 	N 	0.15295 0.73200 0.05910 -0.14200
N 	N 	0.14800 0.78910 0.97237 -0.13700
N 	N 	0.23813 0.82240 0.06265 -0.13800
N 	N 	0.41350 0.65770 0.40683 -0.18200
N 	N 	0.78020 0.31320 0.42143 -0.20200
N 	N 	0.77580 0.52900 0.77145 -0.19400
N 	N 	0.62287 0.53760 0.55853 -0.13700
N 	N 	0.62625 0.48850 0.47295 -0.14100
N 	N 	0.71152 0.45050 0.56460 -0.14800
Ag	Ag	0.84417 0.54239 0.86780 0.51000
Ag	Ag	0.82282 0.24718 0.36720 0.51300
C 	C 	0.62390 0.24320 0.00186 0.10200
C 	C 	0.53320 0.18770 0.91090 -0.12900
H 	H 	0.55490 0.20860 0.88970 0.07800
C 	C 	0.94410 0.15650 0.46480 0.07600
H 	H 	0.92410 0.18440 0.48490 -0.00800
C 	C 	0.09780 0.02980 0.50070 0.10200
C 	C 	0.27800 0.86210 0.50920 -0.12500
H 	H 	0.29890 0.86580 0.54920 0.07300
C 	C 	0.56000 0.19820 0.96980 0.05300
C 	C 	0.73520 0.43540 0.88840 0.07400
H 	H 	0.71320 0.44250 0.84860 -0.00500
C 	C 	0.00360 0.11630 0.49630 -0.12600
H 	H 	0.02320 0.11770 0.53650 0.08300
C 	C 	0.22010 0.84790 0.39220 0.05200
H 	H 	0.19990 0.84340 0.35220 -0.01900
C 	C 	0.70970 0.27360 0.08730 0.10300
C 	C 	0.79790 0.41570 0.00470 -0.12300
H 	H 	0.82020 0.41120 0.04460 0.08200
C 	C 	0.03360 0.07360 0.46667 0.06100
C 	C 	0.52600 0.16470 0.99960 -0.13100
H 	H 	0.54340 0.16940 0.03960 0.07200
C 	C 	0.46690 0.12470 0.96940 0.05600
H 	H 	0.44460 0.10290 0.98980 -0.01200
C 	C 	0.74330 0.26290 0.15100 0.05600
C 	C 	0.18250 0.94820 0.50660 0.09500
C 	C 	0.21550 0.89850 0.47750 0.05000
C 	C 	0.18030 0.99780 0.58790 0.09600
C 	C 	0.17910 0.04410 0.68100 -0.12700
H 	H 	0.13500 0.06160 0.66090 0.07900
C 	C 	0.70540 0.32790 0.00510 0.10500
C 	C 	0.47340 0.14550 0.88390 0.05500
H 	H 	0.45620 0.13770 0.84410 -0.01200
C 	C 	0.30740 0.99510 0.74250 0.06700
H 	H 	0.35150 0.97840 0.76340 -0.02100
C 	C 	0.73590 0.37860 0.97440 0.06200
C 	C 	0.82560 0.45960 0.97380 0.07600
H 	H 	0.86760 0.48310 0.99410 -0.00800
C 	C 	0.70380 0.39010 0.91500 -0.12500
H 	H 	0.66180 0.36750 0.89340 0.08200
C 	C 	0.21240 0.00850 0.65170 0.05100
C 	C 	0.30790 0.82020 0.47900 0.06200
H 	H 	0.34930 0.79570 0.50010 -0.00500
C 	C 	0.18650 0.89000 0.41830 -0.12500
H 	H 	0.14460 0.91250 0.39620 0.07600
C 	C 	0.00240 0.07290 0.40700 -0.12900
H 	H 	0.02060 0.04370 0.38600 0.07800
C 	C 	0.94360 0.11650 0.37900 0.07300
H 	H 	0.92370 0.11730 0.33880 -0.00100
C 	C 	0.21190 0.05340 0.74040 0.06700
H 	H 	0.18900 0.07730 0.75960 -0.00900
C 	C 	0.71550 0.21140 0.17780 -0.12800
H 	H 	0.67700 0.18170 0.15610 0.06800
C 	C 	0.74580 0.20480 0.23720 0.06300
H 	H 	0.72690 0.16980 0.25470 -0.01300
C 	C 	0.80230 0.30220 0.18490 -0.13000
H 	H 	0.82410 0.33420 0.16820 0.08100
C 	C 	0.27830 0.98330 0.68330 -0.13700
H 	H 	0.30220 0.95910 0.66510 0.07300
C 	C 	0.82840 0.29280 0.24410 0.07100
H 	H 	0.86760 0.32080 0.26670 -0.01400
N 	N 	0.43922 0.11540 0.91173 -0.20600
N 	N 	0.79547 0.46980 0.91670 -0.18800
N 	N 	0.80080 0.24610 0.27089 -0.19300
N 	N 	0.65295 0.23200 0.05910 -0.14200
N 	N 	0.64800 0.28910 0.97237 -0.13900
N 	N 	0.73813 0.32240 0.06265 -0.13800
N 	N 	0.91350 0.15770 0.40683 -0.18200
N 	N 	0.28020 0.81320 0.42143 -0.20200
N 	N 	0.27580 0.02900 0.77145 -0.19400
N 	N 	0.12287 0.03760 0.55853 -0.13700
N 	N 	0.12625 0.98850 0.47295 -0.14100
N 	N 	0.21152 0.95050 0.56460 -0.14800
