data_crystal

_cell_length_a 22.08700
_cell_length_b 16.31720
_cell_length_c 25.62790
_cell_angle_alpha 90.00000
_cell_angle_beta  115.26500
_cell_angle_gamma 90.00000

_symmetry_space_group_name_	'P 1'
_symmetry_space_group_name_H-M	'P 1'

loop_
_symmetry_equiv_pos_as_xyz
  x,y,z

loop_
_atom_site_label
_atom_site_type_symbol
_atom_site_fract_x
_atom_site_fract_y
_atom_site_fract_z
_atom_site_charge
Ag	Ag	0.82296 0.25212 0.86723 0.51200
Ag	Ag	0.34397 0.45717 0.36776 0.50900
C 	C 	0.62370 0.25680 0.50240 0.10100
C 	C 	0.73530 0.06520 0.38820 0.07100
H 	H 	0.71340 0.05860 0.34840 -0.00500
C 	C 	0.27760 0.63770 0.00890 -0.12500
H 	H 	0.29850 0.63400 0.04890 0.07200
C 	C 	0.00330 0.38370 0.99650 -0.12600
H 	H 	0.02280 0.38220 0.03660 0.08200
C 	C 	0.94350 0.34330 0.96480 0.07500
H 	H 	0.92330 0.31520 0.98480 -0.00900
C 	C 	0.21960 0.65210 0.89190 0.04700
H 	H 	0.19960 0.65650 0.85190 -0.01800
C 	C 	0.53320 0.31210 0.41120 -0.12900
H 	H 	0.55500 0.29120 0.39000 0.07700
C 	C 	0.09770 0.46990 0.00100 0.09900
C 	C 	0.79810 0.08400 0.50490 -0.12300
H 	H 	0.82040 0.08830 0.54490 0.08200
C 	C 	0.55980 0.30190 0.47010 0.05400
C 	C 	0.17920 0.45630 0.18150 -0.12800
H 	H 	0.13520 0.43880 0.16160 0.07900
C 	C 	0.03340 0.42620 0.96710 0.06100
C 	C 	0.70980 0.22690 0.58760 0.10400
C 	C 	0.74330 0.23730 0.65140 0.05400
C 	C 	0.52590 0.33520 0.50010 -0.13300
H 	H 	0.54300 0.33050 0.54000 0.07200
C 	C 	0.18040 0.50230 0.08840 0.09600
C 	C 	0.18250 0.55170 0.00670 0.09300
C 	C 	0.82600 0.04080 0.47410 0.07500
H 	H 	0.86800 0.01760 0.49440 -0.00700
C 	C 	0.21510 0.60130 0.97740 0.05000
C 	C 	0.18550 0.60980 0.91820 -0.12200
H 	H 	0.14350 0.58750 0.89630 0.07500
C 	C 	0.73620 0.12090 0.47490 0.06300
C 	C 	0.30790 0.50480 0.24270 0.06200
H 	H 	0.35210 0.52120 0.26340 -0.01900
C 	C 	0.46660 0.37530 0.46930 0.05900
H 	H 	0.44430 0.39760 0.48960 -0.01300
C 	C 	0.70560 0.17210 0.50520 0.10300
C 	C 	0.30810 0.67970 0.97890 0.06100
H 	H 	0.34970 0.70360 0.99990 -0.00500
C 	C 	0.47280 0.35440 0.38400 0.05500
H 	H 	0.45530 0.36210 0.34430 -0.01300
C 	C 	0.94360 0.38350 0.87960 0.07400
H 	H 	0.92390 0.38240 0.83940 -0.00200
C 	C 	0.00230 0.42720 0.90710 -0.12900
H 	H 	0.02050 0.45650 0.88610 0.07800
C 	C 	0.70400 0.11030 0.41520 -0.12300
H 	H 	0.66210 0.13340 0.39390 0.08200
C 	C 	0.27820 0.51660 0.18330 -0.13300
H 	H 	0.30220 0.54020 0.16480 0.07200
C 	C 	0.21230 0.49240 0.15200 0.05000
C 	C 	0.82830 0.20710 0.74460 0.07000
H 	H 	0.86770 0.17950 0.76720 -0.01400
C 	C 	0.71540 0.28940 0.67810 -0.12700
H 	H 	0.67730 0.31980 0.65630 0.06800
C 	C 	0.80230 0.19750 0.68510 -0.12900
H 	H 	0.82400 0.16510 0.66850 0.08000
C 	C 	0.21190 0.44650 0.24040 0.06800
H 	H 	0.18900 0.42210 0.25950 -0.00900
C 	C 	0.74500 0.29530 0.73720 0.06100
H 	H 	0.72570 0.33000 0.75470 -0.01100
N 	N 	0.91330 0.34260 0.90722 -0.18300
N 	N 	0.28000 0.68720 0.92140 -0.20100
N 	N 	0.27590 0.47090 0.27170 -0.19300
N 	N 	0.12280 0.46270 0.05890 -0.13600
N 	N 	0.12630 0.51120 0.97315 -0.14000
N 	N 	0.21150 0.54990 0.06485 -0.14800
N 	N 	0.43900 0.38430 0.41210 -0.20800
N 	N 	0.79570 0.03030 0.41656 -0.18700
N 	N 	0.80040 0.25360 0.77130 -0.19300
N 	N 	0.64800 0.21050 0.47260 -0.13800
N 	N 	0.73820 0.17750 0.56314 -0.13700
N 	N 	0.65290 0.26810 0.55923 -0.14300
Ag	Ag	0.32296 0.75212 0.86723 0.51400
Ag	Ag	0.84397 0.95717 0.36776 0.51000
C 	C 	0.12370 0.75680 0.50240 0.10200
C 	C 	0.23530 0.56520 0.38820 0.07200
H 	H 	0.21340 0.55860 0.34840 -0.00400
C 	C 	0.77760 0.13770 0.00890 -0.11800
H 	H 	0.79850 0.13400 0.04890 0.07100
C 	C 	0.50330 0.88370 0.99650 -0.12700
H 	H 	0.52280 0.88220 0.03660 0.08400
C 	C 	0.44350 0.84330 0.96480 0.07800
H 	H 	0.42330 0.81520 0.98480 -0.00800
C 	C 	0.71960 0.15210 0.89190 0.04600
H 	H 	0.69960 0.15650 0.85190 -0.01600
C 	C 	0.03320 0.81210 0.41120 -0.12900
H 	H 	0.05500 0.79120 0.39000 0.07800
C 	C 	0.59770 0.96990 0.00100 0.10100
C 	C 	0.29810 0.58400 0.50490 -0.12400
H 	H 	0.32040 0.58830 0.54490 0.08200
C 	C 	0.05980 0.80190 0.47010 0.05400
C 	C 	0.67920 0.95630 0.18150 -0.12800
H 	H 	0.63520 0.93880 0.16160 0.07900
C 	C 	0.53340 0.92620 0.96710 0.06200
C 	C 	0.20980 0.72690 0.58760 0.10400
C 	C 	0.24330 0.73730 0.65140 0.05400
C 	C 	0.02590 0.83520 0.50010 -0.13300
H 	H 	0.04300 0.83050 0.54000 0.07200
C 	C 	0.68040 0.00230 0.08840 0.09700
C 	C 	0.68250 0.05170 0.00670 0.09700
C 	C 	0.32600 0.54080 0.47410 0.07500
H 	H 	0.36800 0.51760 0.49440 -0.00700
C 	C 	0.71510 0.10130 0.97740 0.04500
C 	C 	0.68550 0.10980 0.91820 -0.11900
H 	H 	0.64350 0.08750 0.89630 0.07400
C 	C 	0.23620 0.62090 0.47490 0.06300
C 	C 	0.80790 0.00480 0.24270 0.06200
H 	H 	0.85210 0.02120 0.26340 -0.01900
C 	C 	0.96660 0.87530 0.46930 0.05900
H 	H 	0.94430 0.89760 0.48960 -0.01300
C 	C 	0.20560 0.67210 0.50520 0.10300
C 	C 	0.80810 0.17970 0.97890 0.05700
H 	H 	0.84970 0.20360 0.99990 -0.00400
C 	C 	0.97280 0.85440 0.38400 0.05500
H 	H 	0.95530 0.86210 0.34430 -0.01300
C 	C 	0.44360 0.88350 0.87960 0.07600
H 	H 	0.42390 0.88240 0.83940 -0.00200
C 	C 	0.50230 0.92720 0.90710 -0.13100
H 	H 	0.52050 0.95650 0.88610 0.07800
C 	C 	0.20400 0.61030 0.41520 -0.12300
H 	H 	0.16210 0.63340 0.39390 0.08200
C 	C 	0.77820 0.01660 0.18330 -0.13200
H 	H 	0.80220 0.04020 0.16480 0.07100
C 	C 	0.71230 0.99240 0.15200 0.04900
C 	C 	0.32830 0.70710 0.74460 0.07000
H 	H 	0.36770 0.67950 0.76720 -0.01400
C 	C 	0.21540 0.78940 0.67810 -0.12700
H 	H 	0.17730 0.81980 0.65630 0.06800
C 	C 	0.30230 0.69750 0.68510 -0.12900
H 	H 	0.32400 0.66510 0.66850 0.08000
C 	C 	0.71190 0.94650 0.24040 0.06800
H 	H 	0.68900 0.92210 0.25950 -0.00900
C 	C 	0.24500 0.79530 0.73720 0.06100
H 	H 	0.22570 0.83000 0.75470 -0.01100
N 	N 	0.41330 0.84260 0.90722 -0.18400
N 	N 	0.78000 0.18720 0.92140 -0.20000
N 	N 	0.77590 0.97090 0.27170 -0.19300
N 	N 	0.62280 0.96270 0.05890 -0.13600
N 	N 	0.62630 0.01120 0.97315 -0.14100
N 	N 	0.71150 0.04990 0.06485 -0.14800
N 	N 	0.93900 0.88430 0.41210 -0.20800
N 	N 	0.29570 0.53030 0.41656 -0.18700
N 	N 	0.30040 0.75360 0.77130 -0.19300
N 	N 	0.14800 0.71050 0.47260 -0.13800
N 	N 	0.23820 0.67750 0.56314 -0.13700
N 	N 	0.15290 0.76810 0.55923 -0.14300
Ag	Ag	0.17704 0.25212 0.63277 0.51400
Ag	Ag	0.65603 0.45717 0.13224 0.51000
C 	C 	0.37630 0.25680 0.99760 0.10100
C 	C 	0.26470 0.06520 0.11180 0.07200
H 	H 	0.28660 0.05860 0.15160 -0.00400
C 	C 	0.72240 0.63770 0.49110 -0.12200
H 	H 	0.70150 0.63400 0.45110 0.07200
C 	C 	0.99670 0.38370 0.50350 -0.12800
H 	H 	0.97720 0.38220 0.46340 0.08400
C 	C 	0.05650 0.34330 0.53520 0.07800
H 	H 	0.07670 0.31520 0.51520 -0.00900
C 	C 	0.78040 0.65210 0.60810 0.04700
H 	H 	0.80040 0.65650 0.64810 -0.01700
C 	C 	0.46680 0.31210 0.08880 -0.12900
H 	H 	0.44500 0.29120 0.11000 0.07800
C 	C 	0.90230 0.46990 0.49900 0.10100
C 	C 	0.20190 0.08400 0.99510 -0.12300
H 	H 	0.17960 0.08830 0.95510 0.08100
C 	C 	0.44020 0.30190 0.02990 0.05400
C 	C 	0.82080 0.45630 0.31850 -0.12800
H 	H 	0.86480 0.43880 0.33840 0.07900
C 	C 	0.96660 0.42620 0.53290 0.06200
C 	C 	0.29020 0.22690 0.91240 0.10400
C 	C 	0.25670 0.23730 0.84860 0.05400
C 	C 	0.47410 0.33520 0.99990 -0.13400
H 	H 	0.45700 0.33050 0.96000 0.07300
C 	C 	0.81960 0.50230 0.41160 0.09600
C 	C 	0.81750 0.55170 0.49330 0.09500
C 	C 	0.17400 0.04080 0.02590 0.07500
H 	H 	0.13200 0.01760 0.00560 -0.00700
C 	C 	0.78490 0.60130 0.52260 0.04800
C 	C 	0.81450 0.60980 0.58180 -0.12000
H 	H 	0.85650 0.58750 0.60370 0.07400
C 	C 	0.26380 0.12090 0.02510 0.06300
C 	C 	0.69210 0.50480 0.25730 0.06200
H 	H 	0.64790 0.52120 0.23660 -0.01900
C 	C 	0.53340 0.37530 0.03070 0.05900
H 	H 	0.55570 0.39760 0.01040 -0.01300
C 	C 	0.29440 0.17210 0.99480 0.10300
C 	C 	0.69190 0.67970 0.52110 0.05900
H 	H 	0.65030 0.70360 0.50010 -0.00400
C 	C 	0.52720 0.35440 0.11600 0.05500
H 	H 	0.54470 0.36210 0.15570 -0.01300
C 	C 	0.05640 0.38350 0.62040 0.07600
H 	H 	0.07610 0.38240 0.66060 -0.00200
C 	C 	0.99770 0.42720 0.59290 -0.13100
H 	H 	0.97950 0.45650 0.61390 0.07800
C 	C 	0.29600 0.11030 0.08480 -0.12300
H 	H 	0.33790 0.13340 0.10610 0.08200
C 	C 	0.72180 0.51660 0.31670 -0.13300
H 	H 	0.69780 0.54020 0.33520 0.07200
C 	C 	0.78770 0.49240 0.34800 0.05000
C 	C 	0.17170 0.20710 0.75540 0.07000
H 	H 	0.13230 0.17950 0.73280 -0.01400
C 	C 	0.28460 0.28940 0.82190 -0.12700
H 	H 	0.32270 0.31980 0.84370 0.06800
C 	C 	0.19770 0.19750 0.81490 -0.12900
H 	H 	0.17600 0.16510 0.83150 0.08000
C 	C 	0.78810 0.44650 0.25960 0.06800
H 	H 	0.81100 0.42210 0.24050 -0.00900
C 	C 	0.25500 0.29530 0.76280 0.06100
H 	H 	0.27430 0.33000 0.74530 -0.01100
N 	N 	0.08670 0.34260 0.59278 -0.18400
N 	N 	0.72000 0.68720 0.57860 -0.20100
N 	N 	0.72410 0.47090 0.22830 -0.19300
N 	N 	0.87720 0.46270 0.44110 -0.13600
N 	N 	0.87370 0.51120 0.52685 -0.14100
N 	N 	0.78850 0.54990 0.43515 -0.14800
N 	N 	0.56100 0.38430 0.08790 -0.20800
N 	N 	0.20430 0.03030 0.08344 -0.18700
N 	N 	0.19960 0.25360 0.72870 -0.19300
N 	N 	0.35200 0.21050 0.02740 -0.13800
N 	N 	0.26180 0.17750 0.93686 -0.13700
N 	N 	0.34710 0.26810 0.94077 -0.14300
Ag	Ag	0.67704 0.75212 0.63277 0.51400
Ag	Ag	0.15603 0.95717 0.13224 0.51000
C 	C 	0.87630 0.75680 0.99760 0.10000
C 	C 	0.76470 0.56520 0.11180 0.07200
H 	H 	0.78660 0.55860 0.15160 -0.00400
C 	C 	0.22240 0.13770 0.49110 -0.12200
H 	H 	0.20150 0.13400 0.45110 0.07200
C 	C 	0.49670 0.88370 0.50350 -0.12800
H 	H 	0.47720 0.88220 0.46340 0.08400
C 	C 	0.55650 0.84330 0.53520 0.07800
H 	H 	0.57670 0.81520 0.51520 -0.00800
C 	C 	0.28040 0.15210 0.60810 0.04700
H 	H 	0.30040 0.15650 0.64810 -0.01700
C 	C 	0.96680 0.81210 0.08880 -0.12800
H 	H 	0.94500 0.79120 0.11000 0.07800
C 	C 	0.40230 0.96990 0.49900 0.10100
C 	C 	0.70190 0.58400 0.99510 -0.12500
H 	H 	0.67960 0.58830 0.95510 0.08200
C 	C 	0.94020 0.80190 0.02990 0.05500
C 	C 	0.32080 0.95630 0.31850 -0.12800
H 	H 	0.36480 0.93880 0.33840 0.07900
C 	C 	0.46660 0.92620 0.53290 0.06200
C 	C 	0.79020 0.72690 0.91240 0.10400
C 	C 	0.75670 0.73730 0.84860 0.05400
C 	C 	0.97410 0.83520 0.99990 -0.13400
H 	H 	0.95700 0.83050 0.96000 0.07300
C 	C 	0.31960 0.00230 0.41160 0.09600
C 	C 	0.31750 0.05170 0.49330 0.09500
C 	C 	0.67400 0.54080 0.02590 0.07600
H 	H 	0.63200 0.51760 0.00560 -0.00800
C 	C 	0.28490 0.10130 0.52260 0.04800
C 	C 	0.31450 0.10980 0.58180 -0.12000
H 	H 	0.35650 0.08750 0.60370 0.07400
C 	C 	0.76380 0.62090 0.02510 0.06500
C 	C 	0.19210 0.00480 0.25730 0.06200
H 	H 	0.14790 0.02120 0.23660 -0.01900
C 	C 	0.03340 0.87530 0.03070 0.05900
H 	H 	0.05570 0.89760 0.01040 -0.01300
C 	C 	0.79440 0.67210 0.99480 0.10200
C 	C 	0.19190 0.17970 0.52110 0.05900
H 	H 	0.15030 0.20360 0.50010 -0.00400
C 	C 	0.02720 0.85440 0.11600 0.05400
H 	H 	0.04470 0.86210 0.15570 -0.01300
C 	C 	0.55640 0.88350 0.62040 0.07600
H 	H 	0.57610 0.88240 0.66060 -0.00200
C 	C 	0.49770 0.92720 0.59290 -0.13100
H 	H 	0.47950 0.95650 0.61390 0.07800
C 	C 	0.79600 0.61030 0.08480 -0.12400
H 	H 	0.83790 0.63340 0.10610 0.08200
C 	C 	0.22180 0.01660 0.31670 -0.13300
H 	H 	0.19780 0.04020 0.33520 0.07200
C 	C 	0.28770 0.99240 0.34800 0.05000
C 	C 	0.67170 0.70710 0.75540 0.07000
H 	H 	0.63230 0.67950 0.73280 -0.01400
C 	C 	0.78460 0.78940 0.82190 -0.12700
H 	H 	0.82270 0.81980 0.84370 0.06800
C 	C 	0.69770 0.69750 0.81490 -0.12900
H 	H 	0.67600 0.66510 0.83150 0.08000
C 	C 	0.28810 0.94650 0.25960 0.06800
H 	H 	0.31100 0.92210 0.24050 -0.00900
C 	C 	0.75500 0.79530 0.76280 0.06100
H 	H 	0.77430 0.83000 0.74530 -0.01100
N 	N 	0.58670 0.84260 0.59278 -0.18400
N 	N 	0.22000 0.18720 0.57860 -0.20100
N 	N 	0.22410 0.97090 0.22830 -0.19300
N 	N 	0.37720 0.96270 0.44110 -0.13600
N 	N 	0.37370 0.01120 0.52685 -0.14100
N 	N 	0.28850 0.04990 0.43515 -0.14800
N 	N 	0.06100 0.88430 0.08790 -0.20800
N 	N 	0.70430 0.53030 0.08344 -0.18800
N 	N 	0.69960 0.75360 0.72870 -0.19300
N 	N 	0.85200 0.71050 0.02740 -0.13700
N 	N 	0.76180 0.67750 0.93686 -0.13700
N 	N 	0.84710 0.76810 0.94077 -0.14300
Ag	Ag	0.17704 0.74788 0.13277 0.51300
Ag	Ag	0.65603 0.54283 0.63224 0.51000
C 	C 	0.37630 0.74320 0.49760 0.10200
C 	C 	0.26470 0.93480 0.61180 0.07200
H 	H 	0.28660 0.94140 0.65160 -0.00400
C 	C 	0.72240 0.36230 0.99110 -0.12400
H 	H 	0.70150 0.36600 0.95110 0.07300
C 	C 	0.99670 0.61630 0.00350 -0.12500
H 	H 	0.97720 0.61780 0.96340 0.08300
C 	C 	0.05650 0.65670 0.03520 0.07600
H 	H 	0.07670 0.68480 0.01520 -0.00800
C 	C 	0.78040 0.34790 0.10810 0.04800
H 	H 	0.80040 0.34350 0.14810 -0.01700
C 	C 	0.46680 0.68790 0.58880 -0.12800
H 	H 	0.44500 0.70880 0.61000 0.07800
C 	C 	0.90230 0.53010 0.99900 0.10000
C 	C 	0.20190 0.91600 0.49510 -0.12300
H 	H 	0.17960 0.91170 0.45510 0.08200
C 	C 	0.44020 0.69810 0.52990 0.05400
C 	C 	0.82080 0.54370 0.81850 -0.12800
H 	H 	0.86480 0.56120 0.83840 0.07900
C 	C 	0.96660 0.57380 0.03290 0.06100
C 	C 	0.29020 0.77310 0.41240 0.10400
C 	C 	0.25670 0.76270 0.34860 0.05400
C 	C 	0.47410 0.66480 0.49990 -0.13300
H 	H 	0.45700 0.66950 0.46000 0.07200
C 	C 	0.81960 0.49770 0.91160 0.09600
C 	C 	0.81750 0.44830 0.99330 0.09300
C 	C 	0.17400 0.95920 0.52590 0.07500
H 	H 	0.13200 0.98240 0.50560 -0.00700
C 	C 	0.78490 0.39870 0.02260 0.05000
C 	C 	0.81450 0.39020 0.08180 -0.12200
H 	H 	0.85650 0.41250 0.10370 0.07500
C 	C 	0.26380 0.87910 0.52510 0.06300
C 	C 	0.69210 0.49520 0.75730 0.06200
H 	H 	0.64790 0.47880 0.73660 -0.01900
C 	C 	0.53340 0.62470 0.53070 0.05900
H 	H 	0.55570 0.60240 0.51040 -0.01300
C 	C 	0.29440 0.82790 0.49480 0.10300
C 	C 	0.69190 0.32030 0.02110 0.06100
H 	H 	0.65030 0.29640 0.00010 -0.00500
C 	C 	0.52720 0.64560 0.61600 0.05500
H 	H 	0.54470 0.63790 0.65570 -0.01300
C 	C 	0.05640 0.61650 0.12040 0.07400
H 	H 	0.07610 0.61760 0.16060 -0.00200
C 	C 	0.99770 0.57280 0.09290 -0.12900
H 	H 	0.97950 0.54350 0.11390 0.07800
C 	C 	0.29600 0.88970 0.58480 -0.12300
H 	H 	0.33790 0.86660 0.60610 0.08200
C 	C 	0.72180 0.48340 0.81670 -0.13300
H 	H 	0.69780 0.45980 0.83520 0.07200
C 	C 	0.78770 0.50760 0.84800 0.05000
C 	C 	0.17170 0.79290 0.25540 0.07000
H 	H 	0.13230 0.82050 0.23280 -0.01400
C 	C 	0.28460 0.71060 0.32190 -0.12700
H 	H 	0.32270 0.68020 0.34370 0.06800
C 	C 	0.19770 0.80250 0.31490 -0.12900
H 	H 	0.17600 0.83490 0.33150 0.08000
C 	C 	0.78810 0.55350 0.75960 0.06800
H 	H 	0.81100 0.57790 0.74050 -0.00900
C 	C 	0.25500 0.70470 0.26280 0.06100
H 	H 	0.27430 0.67000 0.24530 -0.01100
N 	N 	0.08670 0.65740 0.09278 -0.18300
N 	N 	0.72000 0.31280 0.07860 -0.20100
N 	N 	0.72410 0.52910 0.72830 -0.19300
N 	N 	0.87720 0.53730 0.94110 -0.13600
N 	N 	0.87370 0.48880 0.02685 -0.14000
N 	N 	0.78850 0.45010 0.93515 -0.14800
N 	N 	0.56100 0.61570 0.58790 -0.20800
N 	N 	0.20430 0.96970 0.58344 -0.18700
N 	N 	0.19960 0.74640 0.22870 -0.19300
N 	N 	0.35200 0.78950 0.52740 -0.13800
N 	N 	0.26180 0.82250 0.43686 -0.13700
N 	N 	0.34710 0.73190 0.44077 -0.14300
Ag	Ag	0.67704 0.24788 0.13277 0.51400
Ag	Ag	0.15603 0.04283 0.63224 0.51000
C 	C 	0.87630 0.24320 0.49760 0.10200
C 	C 	0.76470 0.43480 0.61180 0.07200
H 	H 	0.78660 0.44140 0.65160 -0.00400
C 	C 	0.22240 0.86230 0.99110 -0.11800
H 	H 	0.20150 0.86600 0.95110 0.07100
C 	C 	0.49670 0.11630 0.00350 -0.12700
H 	H 	0.47720 0.11780 0.96340 0.08400
C 	C 	0.55650 0.15670 0.03520 0.07800
H 	H 	0.57670 0.18480 0.01520 -0.00800
C 	C 	0.28040 0.84790 0.10810 0.04600
H 	H 	0.30040 0.84350 0.14810 -0.01600
C 	C 	0.96680 0.18790 0.58880 -0.12900
H 	H 	0.94500 0.20880 0.61000 0.07800
C 	C 	0.40230 0.03010 0.99900 0.10100
C 	C 	0.70190 0.41600 0.49510 -0.12400
H 	H 	0.67960 0.41170 0.45510 0.08200
C 	C 	0.94020 0.19810 0.52990 0.05400
C 	C 	0.32080 0.04370 0.81850 -0.12800
H 	H 	0.36480 0.06120 0.83840 0.07900
C 	C 	0.46660 0.07380 0.03290 0.06200
C 	C 	0.79020 0.27310 0.41240 0.10400
C 	C 	0.75670 0.26270 0.34860 0.05400
C 	C 	0.97410 0.16480 0.49990 -0.13300
H 	H 	0.95700 0.16950 0.46000 0.07200
C 	C 	0.31960 0.99770 0.91160 0.09700
C 	C 	0.31750 0.94830 0.99330 0.09700
C 	C 	0.67400 0.45920 0.52590 0.07500
H 	H 	0.63200 0.48240 0.50560 -0.00700
C 	C 	0.28490 0.89870 0.02260 0.04500
C 	C 	0.31450 0.89020 0.08180 -0.11900
H 	H 	0.35650 0.91250 0.10370 0.07400
C 	C 	0.76380 0.37910 0.52510 0.06300
C 	C 	0.19210 0.99520 0.75730 0.06200
H 	H 	0.14790 0.97880 0.73660 -0.01900
C 	C 	0.03340 0.12470 0.53070 0.05900
H 	H 	0.05570 0.10240 0.51040 -0.01300
C 	C 	0.79440 0.32790 0.49480 0.10300
C 	C 	0.19190 0.82030 0.02110 0.05700
H 	H 	0.15030 0.79640 0.00010 -0.00400
C 	C 	0.02720 0.14560 0.61600 0.05500
H 	H 	0.04470 0.13790 0.65570 -0.01300
C 	C 	0.55640 0.11650 0.12040 0.07600
H 	H 	0.57610 0.11760 0.16060 -0.00200
C 	C 	0.49770 0.07280 0.09290 -0.13100
H 	H 	0.47950 0.04350 0.11390 0.07800
C 	C 	0.79600 0.38970 0.58480 -0.12300
H 	H 	0.83790 0.36660 0.60610 0.08200
C 	C 	0.22180 0.98340 0.81670 -0.13200
H 	H 	0.19780 0.95980 0.83520 0.07100
C 	C 	0.28770 0.00760 0.84800 0.04900
C 	C 	0.67170 0.29290 0.25540 0.07000
H 	H 	0.63230 0.32050 0.23280 -0.01400
C 	C 	0.78460 0.21060 0.32190 -0.12700
H 	H 	0.82270 0.18020 0.34370 0.06800
C 	C 	0.69770 0.30250 0.31490 -0.12900
H 	H 	0.67600 0.33490 0.33150 0.08000
C 	C 	0.28810 0.05350 0.75960 0.06800
H 	H 	0.31100 0.07790 0.74050 -0.00900
C 	C 	0.75500 0.20470 0.26280 0.06100
H 	H 	0.77430 0.17000 0.24530 -0.01100
N 	N 	0.58670 0.15740 0.09278 -0.18400
N 	N 	0.22000 0.81280 0.07860 -0.20000
N 	N 	0.22410 0.02910 0.72830 -0.19300
N 	N 	0.37720 0.03730 0.94110 -0.13600
N 	N 	0.37370 0.98880 0.02685 -0.14100
N 	N 	0.28850 0.95010 0.93515 -0.14800
N 	N 	0.06100 0.11570 0.58790 -0.20800
N 	N 	0.70430 0.46970 0.58344 -0.18700
N 	N 	0.69960 0.24640 0.22870 -0.19300
N 	N 	0.85200 0.28950 0.52740 -0.13800
N 	N 	0.76180 0.32250 0.43686 -0.13700
N 	N 	0.84710 0.23190 0.44077 -0.14300
Ag	Ag	0.82296 0.74788 0.36723 0.51400
Ag	Ag	0.34397 0.54283 0.86776 0.51000
C 	C 	0.62370 0.74320 0.00240 0.10100
C 	C 	0.73530 0.93480 0.88820 0.07200
H 	H 	0.71340 0.94140 0.84840 -0.00400
C 	C 	0.27760 0.36230 0.50890 -0.12200
H 	H 	0.29850 0.36600 0.54890 0.07200
C 	C 	0.00330 0.61630 0.49650 -0.12800
H 	H 	0.02280 0.61780 0.53660 0.08400
C 	C 	0.94350 0.65670 0.46480 0.07800
H 	H 	0.92330 0.68480 0.48480 -0.00900
C 	C 	0.21960 0.34790 0.39190 0.04700
H 	H 	0.19960 0.34350 0.35190 -0.01700
C 	C 	0.53320 0.68790 0.91120 -0.12900
H 	H 	0.55500 0.70880 0.89000 0.07800
C 	C 	0.09770 0.53010 0.50100 0.10100
C 	C 	0.79810 0.91600 0.00490 -0.12300
H 	H 	0.82040 0.91170 0.04490 0.08100
C 	C 	0.55980 0.69810 0.97010 0.05400
C 	C 	0.17920 0.54370 0.68150 -0.12800
H 	H 	0.13520 0.56120 0.66160 0.07900
C 	C 	0.03340 0.57380 0.46710 0.06200
C 	C 	0.70980 0.77310 0.08760 0.10400
C 	C 	0.74330 0.76270 0.15140 0.05400
C 	C 	0.52590 0.66480 0.00010 -0.13400
H 	H 	0.54300 0.66950 0.04000 0.07300
C 	C 	0.18040 0.49770 0.58840 0.09600
C 	C 	0.18250 0.44830 0.50670 0.09500
C 	C 	0.82600 0.95920 0.97410 0.07500
H 	H 	0.86800 0.98240 0.99440 -0.00700
C 	C 	0.21510 0.39870 0.47740 0.04800
C 	C 	0.18550 0.39020 0.41820 -0.12000
H 	H 	0.14350 0.41250 0.39630 0.07400
C 	C 	0.73620 0.87910 0.97490 0.06300
C 	C 	0.30790 0.49520 0.74270 0.06200
H 	H 	0.35210 0.47880 0.76340 -0.01900
C 	C 	0.46660 0.62470 0.96930 0.05900
H 	H 	0.44430 0.60240 0.98960 -0.01300
C 	C 	0.70560 0.82790 0.00520 0.10300
C 	C 	0.30810 0.32030 0.47890 0.05900
H 	H 	0.34970 0.29640 0.49990 -0.00400
C 	C 	0.47280 0.64560 0.88400 0.05500
H 	H 	0.45530 0.63790 0.84430 -0.01300
C 	C 	0.94360 0.61650 0.37960 0.07600
H 	H 	0.92390 0.61760 0.33940 -0.00200
C 	C 	0.00230 0.57280 0.40710 -0.13100
H 	H 	0.02050 0.54350 0.38610 0.07800
C 	C 	0.70400 0.88970 0.91520 -0.12300
H 	H 	0.66210 0.86660 0.89390 0.08200
C 	C 	0.27820 0.48340 0.68330 -0.13300
H 	H 	0.30220 0.45980 0.66480 0.07200
C 	C 	0.21230 0.50760 0.65200 0.05000
C 	C 	0.82830 0.79290 0.24460 0.07000
H 	H 	0.86770 0.82050 0.26720 -0.01400
C 	C 	0.71540 0.71060 0.17810 -0.12700
H 	H 	0.67730 0.68020 0.15630 0.06800
C 	C 	0.80230 0.80250 0.18510 -0.12900
H 	H 	0.82400 0.83490 0.16850 0.08000
C 	C 	0.21190 0.55350 0.74040 0.06800
H 	H 	0.18900 0.57790 0.75950 -0.00900
C 	C 	0.74500 0.70470 0.23720 0.06100
H 	H 	0.72570 0.67000 0.25470 -0.01100
N 	N 	0.91330 0.65740 0.40722 -0.18400
N 	N 	0.28000 0.31280 0.42140 -0.20100
N 	N 	0.27590 0.52910 0.77170 -0.19300
N 	N 	0.12280 0.53730 0.55890 -0.13600
N 	N 	0.12630 0.48880 0.47315 -0.14100
N 	N 	0.21150 0.45010 0.56485 -0.14800
N 	N 	0.43900 0.61570 0.91210 -0.20800
N 	N 	0.79570 0.96970 0.91656 -0.18700
N 	N 	0.80040 0.74640 0.27130 -0.19300
N 	N 	0.64800 0.78950 0.97260 -0.13800
N 	N 	0.73820 0.82250 0.06314 -0.13700
N 	N 	0.65290 0.73190 0.05923 -0.14300
Ag	Ag	0.32296 0.24788 0.36723 0.51400
Ag	Ag	0.84397 0.04283 0.86776 0.51000
C 	C 	0.12370 0.24320 0.00240 0.10000
C 	C 	0.23530 0.43480 0.88820 0.07200
H 	H 	0.21340 0.44140 0.84840 -0.00400
C 	C 	0.77760 0.86230 0.50890 -0.12200
H 	H 	0.79850 0.86600 0.54890 0.07200
C 	C 	0.50330 0.11630 0.49650 -0.12800
H 	H 	0.52280 0.11780 0.53660 0.08400
C 	C 	0.44350 0.15670 0.46480 0.07800
H 	H 	0.42330 0.18480 0.48480 -0.00800
C 	C 	0.71960 0.84790 0.39190 0.04700
H 	H 	0.69960 0.84350 0.35190 -0.01700
C 	C 	0.03320 0.18790 0.91120 -0.12800
H 	H 	0.05500 0.20880 0.89000 0.07800
C 	C 	0.59770 0.03010 0.50100 0.10100
C 	C 	0.29810 0.41600 0.00490 -0.12500
H 	H 	0.32040 0.41170 0.04490 0.08200
C 	C 	0.05980 0.19810 0.97010 0.05500
C 	C 	0.67920 0.04370 0.68150 -0.12800
H 	H 	0.63520 0.06120 0.66160 0.07900
C 	C 	0.53340 0.07380 0.46710 0.06200
C 	C 	0.20980 0.27310 0.08760 0.10400
C 	C 	0.24330 0.26270 0.15140 0.05400
C 	C 	0.02590 0.16480 0.00010 -0.13400
H 	H 	0.04300 0.16950 0.04000 0.07300
C 	C 	0.68040 0.99770 0.58840 0.09600
C 	C 	0.68250 0.94830 0.50670 0.09500
C 	C 	0.32600 0.45920 0.97410 0.07600
H 	H 	0.36800 0.48240 0.99440 -0.00800
C 	C 	0.71510 0.89870 0.47740 0.04800
C 	C 	0.68550 0.89020 0.41820 -0.12000
H 	H 	0.64350 0.91250 0.39630 0.07400
C 	C 	0.23620 0.37910 0.97490 0.06500
C 	C 	0.80790 0.99520 0.74270 0.06200
H 	H 	0.85210 0.97880 0.76340 -0.01900
C 	C 	0.96660 0.12470 0.96930 0.05900
H 	H 	0.94430 0.10240 0.98960 -0.01300
C 	C 	0.20560 0.32790 0.00520 0.10200
C 	C 	0.80810 0.82030 0.47890 0.05900
H 	H 	0.84970 0.79640 0.49990 -0.00400
C 	C 	0.97280 0.14560 0.88400 0.05400
H 	H 	0.95530 0.13790 0.84430 -0.01300
C 	C 	0.44360 0.11650 0.37960 0.07600
H 	H 	0.42390 0.11760 0.33940 -0.00200
C 	C 	0.50230 0.07280 0.40710 -0.13100
H 	H 	0.52050 0.04350 0.38610 0.07800
C 	C 	0.20400 0.38970 0.91520 -0.12400
H 	H 	0.16210 0.36660 0.89390 0.08200
C 	C 	0.77820 0.98340 0.68330 -0.13300
H 	H 	0.80220 0.95980 0.66480 0.07200
C 	C 	0.71230 0.00760 0.65200 0.05000
C 	C 	0.32830 0.29290 0.24460 0.07000
H 	H 	0.36770 0.32050 0.26720 -0.01400
C 	C 	0.21540 0.21060 0.17810 -0.12700
H 	H 	0.17730 0.18020 0.15630 0.06800
C 	C 	0.30230 0.30250 0.18510 -0.12900
H 	H 	0.32400 0.33490 0.16850 0.08000
C 	C 	0.71190 0.05350 0.74040 0.06800
H 	H 	0.68900 0.07790 0.75950 -0.00900
C 	C 	0.24500 0.20470 0.23720 0.06100
H 	H 	0.22570 0.17000 0.25470 -0.01100
N 	N 	0.41330 0.15740 0.40722 -0.18400
N 	N 	0.78000 0.81280 0.42140 -0.20100
N 	N 	0.77590 0.02910 0.77170 -0.19300
N 	N 	0.62280 0.03730 0.55890 -0.13600
N 	N 	0.62630 0.98880 0.47315 -0.14100
N 	N 	0.71150 0.95010 0.56485 -0.14800
N 	N 	0.93900 0.11570 0.91210 -0.20800
N 	N 	0.29570 0.46970 0.91656 -0.18800
N 	N 	0.30040 0.24640 0.27130 -0.19300
N 	N 	0.14800 0.28950 0.97260 -0.13700
N 	N 	0.23820 0.32250 0.06314 -0.13700
N 	N 	0.15290 0.23190 0.05923 -0.14300
