data_crystal

_cell_length_a 22.00200
_cell_length_b 16.73560
_cell_length_c 25.56070
_cell_angle_alpha 90.00000
_cell_angle_beta  115.19900
_cell_angle_gamma 90.00000

_symmetry_space_group_name_	'P 1'
_symmetry_space_group_name_H-M	'P 1'

loop_
_symmetry_equiv_pos_as_xyz
  x,y,z

loop_
_atom_site_label
_atom_site_type_symbol
_atom_site_fract_x
_atom_site_fract_y
_atom_site_fract_z
_atom_site_charge
Ag	Ag	0.84423 0.95667 0.36683 0.51100
Ag	Ag	0.82171 0.25616 0.86644 0.51400
C 	C 	0.09760 0.47160 0.99910 0.10500
C 	C 	0.53260 0.31030 0.40900 -0.13400
H 	H 	0.55400 0.28960 0.38760 0.08000
C 	C 	0.62340 0.25570 0.50030 0.10000
C 	C 	0.00370 0.38500 0.99460 -0.12600
H 	H 	0.02350 0.38340 0.03480 0.08300
C 	C 	0.55970 0.30020 0.46800 0.05700
C 	C 	0.18170 0.55260 0.00530 0.09500
C 	C 	0.03310 0.42740 0.96500 0.06200
C 	C 	0.79750 0.08370 0.50370 -0.12800
H 	H 	0.81970 0.08770 0.54370 0.08300
C 	C 	0.70940 0.22510 0.58580 0.10200
C 	C 	0.94420 0.34480 0.96290 0.07800
H 	H 	0.92460 0.31690 0.98320 -0.00900
C 	C 	0.27700 0.63850 0.00830 -0.12300
H 	H 	0.29780 0.63480 0.04850 0.07100
C 	C 	0.22020 0.65270 0.89080 0.05100
H 	H 	0.20040 0.65740 0.85080 -0.01900
C 	C 	0.74270 0.23670 0.64950 0.06100
C 	C 	0.73520 0.12120 0.47300 0.06400
C 	C 	0.17880 0.45580 0.17900 -0.13600
H 	H 	0.13480 0.43800 0.15870 0.08200
C 	C 	0.21410 0.60150 0.97580 0.04800
C 	C 	0.73540 0.06430 0.38740 0.07500
H 	H 	0.71380 0.05730 0.34760 -0.00600
C 	C 	0.21210 0.49140 0.15060 0.05900
C 	C 	0.52580 0.33430 0.49760 -0.13800
H 	H 	0.54320 0.33040 0.53760 0.07400
C 	C 	0.46720 0.37350 0.46750 0.06200
H 	H 	0.44530 0.39590 0.48800 -0.01500
C 	C 	0.17990 0.50210 0.08620 0.09600
C 	C 	0.18630 0.60970 0.91710 -0.12300
H 	H 	0.14480 0.58670 0.89460 0.07500
C 	C 	0.30680 0.68070 0.97820 0.06000
H 	H 	0.34780 0.70550 0.99930 -0.00500
C 	C 	0.70380 0.10940 0.41370 -0.12700
H 	H 	0.66190 0.13170 0.39190 0.08300
C 	C 	0.70510 0.17180 0.50340 0.10500
C 	C 	0.47290 0.35190 0.38220 0.06100
H 	H 	0.45560 0.35940 0.34240 -0.01400
C 	C 	0.82500 0.04060 0.47290 0.08300
H 	H 	0.86700 0.01750 0.49340 -0.01100
C 	C 	0.00150 0.42770 0.90540 -0.13000
H 	H 	0.01920 0.45710 0.88420 0.07800
C 	C 	0.30560 0.50480 0.24050 0.07500
H 	H 	0.34950 0.52230 0.26150 -0.02400
C 	C 	0.21140 0.44680 0.23850 0.07300
H 	H 	0.18820 0.42320 0.25760 -0.01100
C 	C 	0.94380 0.38430 0.87780 0.07400
H 	H 	0.92450 0.38260 0.83760 -0.00200
C 	C 	0.74480 0.29480 0.73500 0.06400
H 	H 	0.72620 0.33000 0.75240 -0.01400
C 	C 	0.27770 0.51650 0.18180 -0.14800
H 	H 	0.30190 0.54030 0.16380 0.07600
C 	C 	0.71420 0.28690 0.67620 -0.13400
H 	H 	0.67490 0.31460 0.65440 0.07100
C 	C 	0.80250 0.19940 0.68360 -0.14300
H 	H 	0.82500 0.16830 0.66730 0.08500
C 	C 	0.82750 0.20980 0.74210 0.08600
H 	H 	0.86700 0.18300 0.76480 -0.01800
N 	N 	0.79550 0.03000 0.41630 -0.18900
N 	N 	0.43900 0.38170 0.41000 -0.20800
N 	N 	0.80060 0.25420 0.76900 -0.19600
N 	N 	0.64780 0.21010 0.47080 -0.13800
N 	N 	0.65250 0.26600 0.55740 -0.14200
N 	N 	0.73750 0.17740 0.56090 -0.13800
N 	N 	0.27930 0.68720 0.92060 -0.20100
N 	N 	0.91340 0.34370 0.90560 -0.18400
N 	N 	0.27490 0.47040 0.26980 -0.19600
N 	N 	0.12550 0.51290 0.97180 -0.14200
N 	N 	0.12300 0.46300 0.05690 -0.13800
N 	N 	0.21090 0.54900 0.06310 -0.14900
Ag	Ag	0.34423 0.45667 0.36683 0.51000
Ag	Ag	0.32171 0.75616 0.86644 0.51300
C 	C 	0.59760 0.97160 0.99910 0.10200
C 	C 	0.03260 0.81030 0.40900 -0.13600
H 	H 	0.05400 0.78960 0.38760 0.08000
C 	C 	0.12340 0.75570 0.50030 0.10000
C 	C 	0.50370 0.88500 0.99460 -0.13200
H 	H 	0.52350 0.88340 0.03480 0.08600
C 	C 	0.05970 0.80020 0.46800 0.05700
C 	C 	0.68170 0.05260 0.00530 0.09700
C 	C 	0.53310 0.92740 0.96500 0.06500
C 	C 	0.29750 0.58370 0.50370 -0.12800
H 	H 	0.31970 0.58770 0.54370 0.08300
C 	C 	0.20940 0.72510 0.58580 0.10200
C 	C 	0.44420 0.84480 0.96290 0.08200
H 	H 	0.42460 0.81690 0.98320 -0.01100
C 	C 	0.77700 0.13850 0.00830 -0.11800
H 	H 	0.79780 0.13480 0.04850 0.06900
C 	C 	0.72020 0.15270 0.89080 0.05000
H 	H 	0.70040 0.15740 0.85080 -0.01900
C 	C 	0.24270 0.73670 0.64950 0.06100
C 	C 	0.23520 0.62120 0.47300 0.06400
C 	C 	0.67880 0.95580 0.17900 -0.13600
H 	H 	0.63480 0.93800 0.15870 0.08200
C 	C 	0.71410 0.10150 0.97580 0.04400
C 	C 	0.23540 0.56430 0.38740 0.07500
H 	H 	0.21380 0.55730 0.34760 -0.00600
C 	C 	0.71210 0.99140 0.15060 0.05900
C 	C 	0.02580 0.83430 0.49760 -0.13800
H 	H 	0.04320 0.83040 0.53760 0.07400
C 	C 	0.96720 0.87350 0.46750 0.06300
H 	H 	0.94530 0.89590 0.48800 -0.01500
C 	C 	0.67990 0.00210 0.08620 0.09600
C 	C 	0.68630 0.10970 0.91710 -0.12100
H 	H 	0.64480 0.08670 0.89460 0.07400
C 	C 	0.80680 0.18070 0.97820 0.05700
H 	H 	0.84780 0.20550 0.99930 -0.00400
C 	C 	0.20380 0.60940 0.41370 -0.12700
H 	H 	0.16190 0.63170 0.39190 0.08300
C 	C 	0.20510 0.67180 0.50340 0.10500
C 	C 	0.97290 0.85190 0.38220 0.06100
H 	H 	0.95560 0.85940 0.34240 -0.01400
C 	C 	0.32500 0.54060 0.47290 0.08300
H 	H 	0.36700 0.51750 0.49340 -0.01100
C 	C 	0.50150 0.92770 0.90540 -0.13400
H 	H 	0.51920 0.95710 0.88420 0.07900
C 	C 	0.80560 0.00480 0.24050 0.07500
H 	H 	0.84950 0.02230 0.26150 -0.02400
C 	C 	0.71140 0.94680 0.23850 0.07400
H 	H 	0.68820 0.92320 0.25760 -0.01100
C 	C 	0.44380 0.88430 0.87780 0.07700
H 	H 	0.42450 0.88260 0.83760 -0.00300
C 	C 	0.24480 0.79480 0.73500 0.06400
H 	H 	0.22620 0.83000 0.75240 -0.01400
C 	C 	0.77770 0.01650 0.18180 -0.14800
H 	H 	0.80190 0.04030 0.16380 0.07600
C 	C 	0.21420 0.78690 0.67620 -0.13400
H 	H 	0.17490 0.81460 0.65440 0.07100
C 	C 	0.30250 0.69940 0.68360 -0.14300
H 	H 	0.32500 0.66830 0.66730 0.08500
C 	C 	0.32750 0.70980 0.74210 0.08600
H 	H 	0.36700 0.68300 0.76480 -0.01800
N 	N 	0.29550 0.53000 0.41630 -0.18900
N 	N 	0.93900 0.88170 0.41000 -0.20800
N 	N 	0.30060 0.75420 0.76900 -0.19600
N 	N 	0.14780 0.71010 0.47080 -0.13800
N 	N 	0.15250 0.76600 0.55740 -0.14200
N 	N 	0.23750 0.67740 0.56090 -0.13800
N 	N 	0.77930 0.18720 0.92060 -0.20000
N 	N 	0.41340 0.84370 0.90560 -0.18500
N 	N 	0.77490 0.97040 0.26980 -0.19600
N 	N 	0.62550 0.01290 0.97180 -0.14200
N 	N 	0.62300 0.96300 0.05690 -0.13700
N 	N 	0.71090 0.04900 0.06310 -0.14900
Ag	Ag	0.15577 0.95667 0.13317 0.51000
Ag	Ag	0.17829 0.25616 0.63356 0.51300
C 	C 	0.90240 0.47160 0.50090 0.10300
C 	C 	0.46740 0.31030 0.09100 -0.13500
H 	H 	0.44600 0.28960 0.11240 0.08000
C 	C 	0.37660 0.25570 0.99970 0.10100
C 	C 	0.99630 0.38500 0.50540 -0.13200
H 	H 	0.97650 0.38340 0.46520 0.08500
C 	C 	0.44030 0.30020 0.03200 0.05700
C 	C 	0.81830 0.55260 0.49470 0.09700
C 	C 	0.96690 0.42740 0.53500 0.06500
C 	C 	0.20250 0.08370 0.99630 -0.12500
H 	H 	0.18030 0.08770 0.95630 0.08200
C 	C 	0.29060 0.22510 0.91420 0.10200
C 	C 	0.05580 0.34480 0.53710 0.08200
H 	H 	0.07540 0.31690 0.51680 -0.01100
C 	C 	0.72300 0.63850 0.49170 -0.12000
H 	H 	0.70220 0.63480 0.45150 0.07000
C 	C 	0.77980 0.65270 0.60920 0.05000
H 	H 	0.79960 0.65740 0.64920 -0.01900
C 	C 	0.25730 0.23670 0.85050 0.06100
C 	C 	0.26480 0.12120 0.02700 0.06100
C 	C 	0.82120 0.45580 0.32100 -0.13600
H 	H 	0.86520 0.43800 0.34130 0.08200
C 	C 	0.78590 0.60150 0.52420 0.04600
C 	C 	0.26460 0.06430 0.11260 0.07400
H 	H 	0.28620 0.05730 0.15240 -0.00500
C 	C 	0.78790 0.49140 0.34940 0.05900
C 	C 	0.47420 0.33430 0.00240 -0.13800
H 	H 	0.45680 0.33040 0.96240 0.07400
C 	C 	0.53280 0.37350 0.03250 0.06300
H 	H 	0.55470 0.39590 0.01200 -0.01500
C 	C 	0.82010 0.50210 0.41380 0.09600
C 	C 	0.81370 0.60970 0.58290 -0.12200
H 	H 	0.85520 0.58670 0.60540 0.07400
C 	C 	0.69320 0.68070 0.52180 0.05900
H 	H 	0.65220 0.70550 0.50070 -0.00400
C 	C 	0.29620 0.10940 0.08630 -0.12500
H 	H 	0.33810 0.13170 0.10810 0.08200
C 	C 	0.29490 0.17180 0.99660 0.10600
C 	C 	0.52710 0.35190 0.11780 0.06100
H 	H 	0.54440 0.35940 0.15760 -0.01400
C 	C 	0.17500 0.04060 0.02710 0.08100
H 	H 	0.13300 0.01750 0.00660 -0.01000
C 	C 	0.99850 0.42770 0.59460 -0.13500
H 	H 	0.98080 0.45710 0.61580 0.07900
C 	C 	0.69440 0.50480 0.25950 0.07500
H 	H 	0.65050 0.52230 0.23850 -0.02400
C 	C 	0.78860 0.44680 0.26150 0.07300
H 	H 	0.81180 0.42320 0.24240 -0.01100
C 	C 	0.05620 0.38430 0.62220 0.07700
H 	H 	0.07550 0.38260 0.66240 -0.00300
C 	C 	0.25520 0.29480 0.76500 0.06400
H 	H 	0.27380 0.33000 0.74760 -0.01400
C 	C 	0.72230 0.51650 0.31820 -0.14800
H 	H 	0.69810 0.54030 0.33620 0.07600
C 	C 	0.28580 0.28690 0.82380 -0.13400
H 	H 	0.32510 0.31460 0.84560 0.07100
C 	C 	0.19750 0.19940 0.81640 -0.14300
H 	H 	0.17500 0.16830 0.83270 0.08500
C 	C 	0.17250 0.20980 0.75790 0.08600
H 	H 	0.13300 0.18300 0.73520 -0.01800
N 	N 	0.20450 0.03000 0.08370 -0.18900
N 	N 	0.56100 0.38170 0.09000 -0.20800
N 	N 	0.19940 0.25420 0.73100 -0.19600
N 	N 	0.35220 0.21010 0.02920 -0.13900
N 	N 	0.34750 0.26600 0.94260 -0.14200
N 	N 	0.26250 0.17740 0.93910 -0.13800
N 	N 	0.72070 0.68720 0.57940 -0.20000
N 	N 	0.08660 0.34370 0.59440 -0.18500
N 	N 	0.72510 0.47040 0.23020 -0.19600
N 	N 	0.87450 0.51290 0.52820 -0.14200
N 	N 	0.87700 0.46300 0.44310 -0.13800
N 	N 	0.78910 0.54900 0.43690 -0.14900
Ag	Ag	0.65577 0.45667 0.13317 0.51000
Ag	Ag	0.67829 0.75616 0.63356 0.51300
C 	C 	0.40240 0.97160 0.50090 0.10300
C 	C 	0.96740 0.81030 0.09100 -0.13300
H 	H 	0.94600 0.78960 0.11240 0.07900
C 	C 	0.87660 0.75570 0.99970 0.09900
C 	C 	0.49630 0.88500 0.50540 -0.13100
H 	H 	0.47650 0.88340 0.46520 0.08500
C 	C 	0.94030 0.80020 0.03200 0.05600
C 	C 	0.31830 0.05260 0.49470 0.09700
C 	C 	0.46690 0.92740 0.53500 0.06500
C 	C 	0.70250 0.58370 0.99630 -0.13100
H 	H 	0.68030 0.58770 0.95630 0.08400
C 	C 	0.79060 0.72510 0.91420 0.10200
C 	C 	0.55580 0.84480 0.53710 0.08200
H 	H 	0.57540 0.81690 0.51680 -0.01100
C 	C 	0.22300 0.13850 0.49170 -0.12000
H 	H 	0.20220 0.13480 0.45150 0.07000
C 	C 	0.27980 0.15270 0.60920 0.05000
H 	H 	0.29960 0.15740 0.64920 -0.01900
C 	C 	0.75730 0.73670 0.85050 0.06100
C 	C 	0.76480 0.62120 0.02700 0.06600
C 	C 	0.32120 0.95580 0.32100 -0.13600
H 	H 	0.36520 0.93800 0.34130 0.08200
C 	C 	0.28590 0.10150 0.52420 0.04600
C 	C 	0.76460 0.56430 0.11260 0.07600
H 	H 	0.78620 0.55730 0.15240 -0.00600
C 	C 	0.28790 0.99140 0.34940 0.05900
C 	C 	0.97420 0.83430 0.00240 -0.13300
H 	H 	0.95680 0.83040 0.96240 0.07200
C 	C 	0.03280 0.87350 0.03250 0.05900
H 	H 	0.05470 0.89590 0.01200 -0.01400
C 	C 	0.32010 0.00210 0.41380 0.09600
C 	C 	0.31370 0.10970 0.58290 -0.12200
H 	H 	0.35520 0.08670 0.60540 0.07500
C 	C 	0.19320 0.18070 0.52180 0.05900
H 	H 	0.15220 0.20550 0.50070 -0.00400
C 	C 	0.79620 0.60940 0.08630 -0.12800
H 	H 	0.83810 0.63170 0.10810 0.08300
C 	C 	0.79490 0.67180 0.99660 0.10300
C 	C 	0.02710 0.85190 0.11780 0.05900
H 	H 	0.04440 0.85940 0.15760 -0.01300
C 	C 	0.67500 0.54060 0.02710 0.08400
H 	H 	0.63300 0.51750 0.00660 -0.01100
C 	C 	0.49850 0.92770 0.59460 -0.13400
H 	H 	0.48080 0.95710 0.61580 0.07900
C 	C 	0.19440 0.00480 0.25950 0.07500
H 	H 	0.15050 0.02230 0.23850 -0.02400
C 	C 	0.28860 0.94680 0.26150 0.07400
H 	H 	0.31180 0.92320 0.24240 -0.01100
C 	C 	0.55620 0.88430 0.62220 0.07700
H 	H 	0.57550 0.88260 0.66240 -0.00300
C 	C 	0.75520 0.79480 0.76500 0.06400
H 	H 	0.77380 0.83000 0.74760 -0.01400
C 	C 	0.22230 0.01650 0.31820 -0.14800
H 	H 	0.19810 0.04030 0.33620 0.07600
C 	C 	0.78580 0.78690 0.82380 -0.13400
H 	H 	0.82510 0.81460 0.84560 0.07100
C 	C 	0.69750 0.69940 0.81640 -0.14300
H 	H 	0.67500 0.66830 0.83270 0.08500
C 	C 	0.67250 0.70980 0.75790 0.08600
H 	H 	0.63300 0.68300 0.73520 -0.01800
N 	N 	0.70450 0.53000 0.08370 -0.19000
N 	N 	0.06100 0.88170 0.09000 -0.20700
N 	N 	0.69940 0.75420 0.73100 -0.19600
N 	N 	0.85220 0.71010 0.02920 -0.13700
N 	N 	0.84750 0.76600 0.94260 -0.14200
N 	N 	0.76250 0.67740 0.93910 -0.13800
N 	N 	0.22070 0.18720 0.57940 -0.20000
N 	N 	0.58660 0.84370 0.59440 -0.18500
N 	N 	0.22510 0.97040 0.23020 -0.19600
N 	N 	0.37450 0.01290 0.52820 -0.14200
N 	N 	0.37700 0.96300 0.44310 -0.13800
N 	N 	0.28910 0.04900 0.43690 -0.14900
Ag	Ag	0.15577 0.04333 0.63317 0.51000
Ag	Ag	0.17829 0.74384 0.13356 0.51300
C 	C 	0.90240 0.52840 0.00090 0.10400
C 	C 	0.46740 0.68970 0.59100 -0.13500
H 	H 	0.44600 0.71040 0.61240 0.08000
C 	C 	0.37660 0.74430 0.49970 0.10000
C 	C 	0.99630 0.61500 0.00540 -0.12600
H 	H 	0.97650 0.61660 0.96520 0.08300
C 	C 	0.44030 0.69980 0.53200 0.05700
C 	C 	0.81830 0.44740 0.99470 0.09500
C 	C 	0.96690 0.57260 0.03500 0.06200
C 	C 	0.20250 0.91630 0.49630 -0.12800
H 	H 	0.18030 0.91230 0.45630 0.08300
C 	C 	0.29060 0.77490 0.41420 0.10200
C 	C 	0.05580 0.65520 0.03710 0.07800
H 	H 	0.07540 0.68310 0.01680 -0.00900
C 	C 	0.72300 0.36150 0.99170 -0.12300
H 	H 	0.70220 0.36520 0.95150 0.07100
C 	C 	0.77980 0.34730 0.10920 0.05100
H 	H 	0.79960 0.34260 0.14920 -0.01900
C 	C 	0.25730 0.76330 0.35050 0.06100
C 	C 	0.26480 0.87880 0.52700 0.06400
C 	C 	0.82120 0.54420 0.82100 -0.13600
H 	H 	0.86520 0.56200 0.84130 0.08200
C 	C 	0.78590 0.39850 0.02420 0.04800
C 	C 	0.26460 0.93570 0.61260 0.07500
H 	H 	0.28620 0.94270 0.65240 -0.00600
C 	C 	0.78790 0.50860 0.84940 0.05900
C 	C 	0.47420 0.66570 0.50240 -0.13800
H 	H 	0.45680 0.66960 0.46240 0.07400
C 	C 	0.53280 0.62650 0.53250 0.06200
H 	H 	0.55470 0.60410 0.51200 -0.01500
C 	C 	0.82010 0.49790 0.91380 0.09600
C 	C 	0.81370 0.39030 0.08290 -0.12300
H 	H 	0.85520 0.41330 0.10540 0.07500
C 	C 	0.69320 0.31930 0.02180 0.06000
H 	H 	0.65220 0.29450 0.00070 -0.00500
C 	C 	0.29620 0.89060 0.58630 -0.12700
H 	H 	0.33810 0.86830 0.60810 0.08300
C 	C 	0.29490 0.82820 0.49660 0.10500
C 	C 	0.52710 0.64810 0.61780 0.06100
H 	H 	0.54440 0.64060 0.65760 -0.01400
C 	C 	0.17500 0.95940 0.52710 0.08300
H 	H 	0.13300 0.98250 0.50660 -0.01100
C 	C 	0.99850 0.57230 0.09460 -0.13000
H 	H 	0.98080 0.54290 0.11580 0.07800
C 	C 	0.69440 0.49520 0.75950 0.07500
H 	H 	0.65050 0.47770 0.73850 -0.02400
C 	C 	0.78860 0.55320 0.76150 0.07300
H 	H 	0.81180 0.57680 0.74240 -0.01100
C 	C 	0.05620 0.61570 0.12220 0.07400
H 	H 	0.07550 0.61740 0.16240 -0.00200
C 	C 	0.25520 0.70520 0.26500 0.06400
H 	H 	0.27380 0.67000 0.24760 -0.01400
C 	C 	0.72230 0.48350 0.81820 -0.14800
H 	H 	0.69810 0.45970 0.83620 0.07600
C 	C 	0.28580 0.71310 0.32380 -0.13400
H 	H 	0.32510 0.68540 0.34560 0.07100
C 	C 	0.19750 0.80060 0.31640 -0.14300
H 	H 	0.17500 0.83170 0.33270 0.08500
C 	C 	0.17250 0.79020 0.25790 0.08600
H 	H 	0.13300 0.81700 0.23520 -0.01800
N 	N 	0.20450 0.97000 0.58370 -0.18900
N 	N 	0.56100 0.61830 0.59000 -0.20800
N 	N 	0.19940 0.74580 0.23100 -0.19600
N 	N 	0.35220 0.78990 0.52920 -0.13800
N 	N 	0.34750 0.73400 0.44260 -0.14200
N 	N 	0.26250 0.82260 0.43910 -0.13800
N 	N 	0.72070 0.31280 0.07940 -0.20100
N 	N 	0.08660 0.65630 0.09440 -0.18400
N 	N 	0.72510 0.52960 0.73020 -0.19600
N 	N 	0.87450 0.48710 0.02820 -0.14200
N 	N 	0.87700 0.53700 0.94310 -0.13800
N 	N 	0.78910 0.45100 0.93690 -0.14900
Ag	Ag	0.65577 0.54333 0.63317 0.51000
Ag	Ag	0.67829 0.24384 0.13356 0.51300
C 	C 	0.40240 0.02840 0.00090 0.10200
C 	C 	0.96740 0.18970 0.59100 -0.13600
H 	H 	0.94600 0.21040 0.61240 0.08000
C 	C 	0.87660 0.24430 0.49970 0.10000
C 	C 	0.49630 0.11500 0.00540 -0.13200
H 	H 	0.47650 0.11660 0.96520 0.08600
C 	C 	0.94030 0.19980 0.53200 0.05700
C 	C 	0.31830 0.94740 0.99470 0.09700
C 	C 	0.46690 0.07260 0.03500 0.06500
C 	C 	0.70250 0.41630 0.49630 -0.12800
H 	H 	0.68030 0.41230 0.45630 0.08300
C 	C 	0.79060 0.27490 0.41420 0.10200
C 	C 	0.55580 0.15520 0.03710 0.08200
H 	H 	0.57540 0.18310 0.01680 -0.01100
C 	C 	0.22300 0.86150 0.99170 -0.11800
H 	H 	0.20220 0.86520 0.95150 0.06900
C 	C 	0.27980 0.84730 0.10920 0.05000
H 	H 	0.29960 0.84260 0.14920 -0.01900
C 	C 	0.75730 0.26330 0.35050 0.06100
C 	C 	0.76480 0.37880 0.52700 0.06400
C 	C 	0.32120 0.04420 0.82100 -0.13600
H 	H 	0.36520 0.06200 0.84130 0.08200
C 	C 	0.28590 0.89850 0.02420 0.04400
C 	C 	0.76460 0.43570 0.61260 0.07500
H 	H 	0.78620 0.44270 0.65240 -0.00600
C 	C 	0.28790 0.00860 0.84940 0.05900
C 	C 	0.97420 0.16570 0.50240 -0.13800
H 	H 	0.95680 0.16960 0.46240 0.07400
C 	C 	0.03280 0.12650 0.53250 0.06300
H 	H 	0.05470 0.10410 0.51200 -0.01500
C 	C 	0.32010 0.99790 0.91380 0.09600
C 	C 	0.31370 0.89030 0.08290 -0.12100
H 	H 	0.35520 0.91330 0.10540 0.07400
C 	C 	0.19320 0.81930 0.02180 0.05700
H 	H 	0.15220 0.79450 0.00070 -0.00400
C 	C 	0.79620 0.39060 0.58630 -0.12700
H 	H 	0.83810 0.36830 0.60810 0.08300
C 	C 	0.79490 0.32820 0.49660 0.10500
C 	C 	0.02710 0.14810 0.61780 0.06100
H 	H 	0.04440 0.14060 0.65760 -0.01400
C 	C 	0.67500 0.45940 0.52710 0.08300
H 	H 	0.63300 0.48250 0.50660 -0.01100
C 	C 	0.49850 0.07230 0.09460 -0.13400
H 	H 	0.48080 0.04290 0.11580 0.07900
C 	C 	0.19440 0.99520 0.75950 0.07500
H 	H 	0.15050 0.97770 0.73850 -0.02400
C 	C 	0.28860 0.05320 0.76150 0.07400
H 	H 	0.31180 0.07680 0.74240 -0.01100
C 	C 	0.55620 0.11570 0.12220 0.07700
H 	H 	0.57550 0.11740 0.16240 -0.00300
C 	C 	0.75520 0.20520 0.26500 0.06400
H 	H 	0.77380 0.17000 0.24760 -0.01400
C 	C 	0.22230 0.98350 0.81820 -0.14800
H 	H 	0.19810 0.95970 0.83620 0.07600
C 	C 	0.78580 0.21310 0.32380 -0.13400
H 	H 	0.82510 0.18540 0.34560 0.07100
C 	C 	0.69750 0.30060 0.31640 -0.14300
H 	H 	0.67500 0.33170 0.33270 0.08500
C 	C 	0.67250 0.29020 0.25790 0.08600
H 	H 	0.63300 0.31700 0.23520 -0.01800
N 	N 	0.70450 0.47000 0.58370 -0.18900
N 	N 	0.06100 0.11830 0.59000 -0.20800
N 	N 	0.69940 0.24580 0.23100 -0.19600
N 	N 	0.85220 0.28990 0.52920 -0.13800
N 	N 	0.84750 0.23400 0.44260 -0.14200
N 	N 	0.76250 0.32260 0.43910 -0.13800
N 	N 	0.22070 0.81280 0.07940 -0.20000
N 	N 	0.58660 0.15630 0.09440 -0.18500
N 	N 	0.22510 0.02960 0.73020 -0.19600
N 	N 	0.37450 0.98710 0.02820 -0.14200
N 	N 	0.37700 0.03700 0.94310 -0.13700
N 	N 	0.28910 0.95100 0.93690 -0.14900
Ag	Ag	0.84423 0.04333 0.86683 0.51000
Ag	Ag	0.82171 0.74384 0.36644 0.51300
C 	C 	0.09760 0.52840 0.49910 0.10300
C 	C 	0.53260 0.68970 0.90900 -0.13500
H 	H 	0.55400 0.71040 0.88760 0.08000
C 	C 	0.62340 0.74430 0.00030 0.10100
C 	C 	0.00370 0.61500 0.49460 -0.13200
H 	H 	0.02350 0.61660 0.53480 0.08500
C 	C 	0.55970 0.69980 0.96800 0.05700
C 	C 	0.18170 0.44740 0.50530 0.09700
C 	C 	0.03310 0.57260 0.46500 0.06500
C 	C 	0.79750 0.91630 0.00370 -0.12500
H 	H 	0.81970 0.91230 0.04370 0.08200
C 	C 	0.70940 0.77490 0.08580 0.10200
C 	C 	0.94420 0.65520 0.46290 0.08200
H 	H 	0.92460 0.68310 0.48320 -0.01100
C 	C 	0.27700 0.36150 0.50830 -0.12000
H 	H 	0.29780 0.36520 0.54850 0.07000
C 	C 	0.22020 0.34730 0.39080 0.05000
H 	H 	0.20040 0.34260 0.35080 -0.01900
C 	C 	0.74270 0.76330 0.14950 0.06100
C 	C 	0.73520 0.87880 0.97300 0.06100
C 	C 	0.17880 0.54420 0.67900 -0.13600
H 	H 	0.13480 0.56200 0.65870 0.08200
C 	C 	0.21410 0.39850 0.47580 0.04600
C 	C 	0.73540 0.93570 0.88740 0.07400
H 	H 	0.71380 0.94270 0.84760 -0.00500
C 	C 	0.21210 0.50860 0.65060 0.05900
C 	C 	0.52580 0.66570 0.99760 -0.13800
H 	H 	0.54320 0.66960 0.03760 0.07400
C 	C 	0.46720 0.62650 0.96750 0.06300
H 	H 	0.44530 0.60410 0.98800 -0.01500
C 	C 	0.17990 0.49790 0.58620 0.09600
C 	C 	0.18630 0.39030 0.41710 -0.12200
H 	H 	0.14480 0.41330 0.39460 0.07400
C 	C 	0.30680 0.31930 0.47820 0.05900
H 	H 	0.34780 0.29450 0.49930 -0.00400
C 	C 	0.70380 0.89060 0.91370 -0.12500
H 	H 	0.66190 0.86830 0.89190 0.08200
C 	C 	0.70510 0.82820 0.00340 0.10600
C 	C 	0.47290 0.64810 0.88220 0.06100
H 	H 	0.45560 0.64060 0.84240 -0.01400
C 	C 	0.82500 0.95940 0.97290 0.08100
H 	H 	0.86700 0.98250 0.99340 -0.01000
C 	C 	0.00150 0.57230 0.40540 -0.13500
H 	H 	0.01920 0.54290 0.38420 0.07900
C 	C 	0.30560 0.49520 0.74050 0.07500
H 	H 	0.34950 0.47770 0.76150 -0.02400
C 	C 	0.21140 0.55320 0.73850 0.07300
H 	H 	0.18820 0.57680 0.75760 -0.01100
C 	C 	0.94380 0.61570 0.37780 0.07700
H 	H 	0.92450 0.61740 0.33760 -0.00300
C 	C 	0.74480 0.70520 0.23500 0.06400
H 	H 	0.72620 0.67000 0.25240 -0.01400
C 	C 	0.27770 0.48350 0.68180 -0.14800
H 	H 	0.30190 0.45970 0.66380 0.07600
C 	C 	0.71420 0.71310 0.17620 -0.13400
H 	H 	0.67490 0.68540 0.15440 0.07100
C 	C 	0.80250 0.80060 0.18360 -0.14300
H 	H 	0.82500 0.83170 0.16730 0.08500
C 	C 	0.82750 0.79020 0.24210 0.08600
H 	H 	0.86700 0.81700 0.26480 -0.01800
N 	N 	0.79550 0.97000 0.91630 -0.18900
N 	N 	0.43900 0.61830 0.91000 -0.20800
N 	N 	0.80060 0.74580 0.26900 -0.19600
N 	N 	0.64780 0.78990 0.97080 -0.13900
N 	N 	0.65250 0.73400 0.05740 -0.14200
N 	N 	0.73750 0.82260 0.06090 -0.13800
N 	N 	0.27930 0.31280 0.42060 -0.20000
N 	N 	0.91340 0.65630 0.40560 -0.18500
N 	N 	0.27490 0.52960 0.76980 -0.19600
N 	N 	0.12550 0.48710 0.47180 -0.14200
N 	N 	0.12300 0.53700 0.55690 -0.13800
N 	N 	0.21090 0.45100 0.56310 -0.14900
Ag	Ag	0.34423 0.54333 0.86683 0.51000
Ag	Ag	0.32171 0.24384 0.36644 0.51300
C 	C 	0.59760 0.02840 0.49910 0.10300
C 	C 	0.03260 0.18970 0.90900 -0.13300
H 	H 	0.05400 0.21040 0.88760 0.07900
C 	C 	0.12340 0.24430 0.00030 0.09900
C 	C 	0.50370 0.11500 0.49460 -0.13100
H 	H 	0.52350 0.11660 0.53480 0.08500
C 	C 	0.05970 0.19980 0.96800 0.05600
C 	C 	0.68170 0.94740 0.50530 0.09700
C 	C 	0.53310 0.07260 0.46500 0.06500
C 	C 	0.29750 0.41630 0.00370 -0.13100
H 	H 	0.31970 0.41230 0.04370 0.08400
C 	C 	0.20940 0.27490 0.08580 0.10200
C 	C 	0.44420 0.15520 0.46290 0.08200
H 	H 	0.42460 0.18310 0.48320 -0.01100
C 	C 	0.77700 0.86150 0.50830 -0.12000
H 	H 	0.79780 0.86520 0.54850 0.07000
C 	C 	0.72020 0.84730 0.39080 0.05000
H 	H 	0.70040 0.84260 0.35080 -0.01900
C 	C 	0.24270 0.26330 0.14950 0.06100
C 	C 	0.23520 0.37880 0.97300 0.06600
C 	C 	0.67880 0.04420 0.67900 -0.13600
H 	H 	0.63480 0.06200 0.65870 0.08200
C 	C 	0.71410 0.89850 0.47580 0.04600
C 	C 	0.23540 0.43570 0.88740 0.07600
H 	H 	0.21380 0.44270 0.84760 -0.00600
C 	C 	0.71210 0.00860 0.65060 0.05900
C 	C 	0.02580 0.16570 0.99760 -0.13300
H 	H 	0.04320 0.16960 0.03760 0.07200
C 	C 	0.96720 0.12650 0.96750 0.05900
H 	H 	0.94530 0.10410 0.98800 -0.01400
C 	C 	0.67990 0.99790 0.58620 0.09600
C 	C 	0.68630 0.89030 0.41710 -0.12200
H 	H 	0.64480 0.91330 0.39460 0.07500
C 	C 	0.80680 0.81930 0.47820 0.05900
H 	H 	0.84780 0.79450 0.49930 -0.00400
C 	C 	0.20380 0.39060 0.91370 -0.12800
H 	H 	0.16190 0.36830 0.89190 0.08300
C 	C 	0.20510 0.32820 0.00340 0.10300
C 	C 	0.97290 0.14810 0.88220 0.05900
H 	H 	0.95560 0.14060 0.84240 -0.01300
C 	C 	0.32500 0.45940 0.97290 0.08400
H 	H 	0.36700 0.48250 0.99340 -0.01100
C 	C 	0.50150 0.07230 0.40540 -0.13400
H 	H 	0.51920 0.04290 0.38420 0.07900
C 	C 	0.80560 0.99520 0.74050 0.07500
H 	H 	0.84950 0.97770 0.76150 -0.02400
C 	C 	0.71140 0.05320 0.73850 0.07400
H 	H 	0.68820 0.07680 0.75760 -0.01100
C 	C 	0.44380 0.11570 0.37780 0.07700
H 	H 	0.42450 0.11740 0.33760 -0.00300
C 	C 	0.24480 0.20520 0.23500 0.06400
H 	H 	0.22620 0.17000 0.25240 -0.01400
C 	C 	0.77770 0.98350 0.68180 -0.14800
H 	H 	0.80190 0.95970 0.66380 0.07600
C 	C 	0.21420 0.21310 0.17620 -0.13400
H 	H 	0.17490 0.18540 0.15440 0.07100
C 	C 	0.30250 0.30060 0.18360 -0.14300
H 	H 	0.32500 0.33170 0.16730 0.08500
C 	C 	0.32750 0.29020 0.24210 0.08600
H 	H 	0.36700 0.31700 0.26480 -0.01800
N 	N 	0.29550 0.47000 0.91630 -0.19000
N 	N 	0.93900 0.11830 0.91000 -0.20700
N 	N 	0.30060 0.24580 0.26900 -0.19600
N 	N 	0.14780 0.28990 0.97080 -0.13700
N 	N 	0.15250 0.23400 0.05740 -0.14200
N 	N 	0.23750 0.32260 0.06090 -0.13800
N 	N 	0.77930 0.81280 0.42060 -0.20000
N 	N 	0.41340 0.15630 0.40560 -0.18500
N 	N 	0.77490 0.02960 0.76980 -0.19600
N 	N 	0.62550 0.98710 0.47180 -0.14200
N 	N 	0.62300 0.03700 0.55690 -0.13800
N 	N 	0.71090 0.95100 0.56310 -0.14900
