data_crystal

_cell_length_a 21.94160
_cell_length_b 16.77340
_cell_length_c 25.55130
_cell_angle_alpha 90.00000
_cell_angle_beta  115.22500
_cell_angle_gamma 90.00000

_symmetry_space_group_name_	'P 1'
_symmetry_space_group_name_H-M	'P 1'

loop_
_symmetry_equiv_pos_as_xyz
  x,y,z

loop_
_atom_site_label
_atom_site_type_symbol
_atom_site_fract_x
_atom_site_fract_y
_atom_site_fract_z
_atom_site_charge
Ag	Ag	0.34426 0.04241 0.36722 0.51000
Ag	Ag	0.82144 0.24466 0.86681 0.51300
C 	C 	0.09710 0.02920 0.99940 0.10400
C 	C 	0.62380 0.24380 0.50070 0.10000
C 	C 	0.53280 0.18960 0.40970 -0.13900
H 	H 	0.55430 0.21040 0.38830 0.08100
C 	C 	0.55990 0.19950 0.46810 0.06200
C 	C 	0.00320 0.11530 0.99470 -0.12600
H 	H 	0.02270 0.11620 0.03500 0.08300
C 	C 	0.18120 0.94780 0.00550 0.09400
C 	C 	0.22000 0.84860 0.89140 0.05200
H 	H 	0.20040 0.84450 0.85130 -0.01900
C 	C 	0.79760 0.41650 0.50440 -0.13000
H 	H 	0.81950 0.41320 0.54450 0.08400
C 	C 	0.03290 0.07350 0.96520 0.06500
C 	C 	0.94370 0.15570 0.96330 0.07800
H 	H 	0.92400 0.18360 0.98360 -0.00900
C 	C 	0.70940 0.27460 0.58600 0.10200
C 	C 	0.27630 0.86200 0.00830 -0.13000
H 	H 	0.29680 0.86530 0.04850 0.07300
C 	C 	0.73580 0.43490 0.38790 0.07700
H 	H 	0.71420 0.44170 0.34810 -0.00700
C 	C 	0.74240 0.26370 0.64970 0.06000
C 	C 	0.17830 0.04350 0.17930 -0.13700
H 	H 	0.13420 0.06120 0.15910 0.08200
C 	C 	0.52520 0.16570 0.49760 -0.14600
H 	H 	0.54190 0.17030 0.53750 0.07700
C 	C 	0.21390 0.89860 0.97590 0.05400
C 	C 	0.21160 0.00800 0.15060 0.06000
C 	C 	0.17940 0.99850 0.08650 0.09500
C 	C 	0.70420 0.38960 0.41420 -0.12900
H 	H 	0.66220 0.36700 0.39220 0.08300
C 	C 	0.70500 0.32790 0.50360 0.10400
C 	C 	0.73540 0.37820 0.47320 0.06600
C 	C 	0.46720 0.12630 0.46700 0.07300
H 	H 	0.44530 0.10350 0.48750 -0.01900
C 	C 	0.30670 0.82050 0.97840 0.06700
H 	H 	0.34820 0.79640 0.99970 -0.00700
C 	C 	0.82490 0.45900 0.47330 0.08500
H 	H 	0.86700 0.48200 0.49380 -0.01100
C 	C 	0.18600 0.89090 0.91740 -0.12800
H 	H 	0.14440 0.91390 0.89500 0.07700
C 	C 	0.00120 0.07390 0.90610 -0.13600
H 	H 	0.01880 0.04460 0.88490 0.08000
C 	C 	0.47270 0.14820 0.38250 0.06400
H 	H 	0.45500 0.14160 0.34260 -0.01500
C 	C 	0.21100 0.05260 0.23870 0.07400
H 	H 	0.18790 0.07660 0.25780 -0.01100
C 	C 	0.30500 0.99430 0.24110 0.07900
H 	H 	0.34890 0.97640 0.26230 -0.02600
C 	C 	0.94360 0.11720 0.87810 0.08000
H 	H 	0.92460 0.11920 0.83790 -0.00400
C 	C 	0.27720 0.98310 0.18210 -0.14900
H 	H 	0.30170 0.95970 0.16410 0.07700
C 	C 	0.82650 0.29320 0.74230 0.08200
H 	H 	0.86530 0.32160 0.76480 -0.01700
C 	C 	0.74510 0.20560 0.73550 0.06300
H 	H 	0.72720 0.16970 0.75290 -0.01400
C 	C 	0.80140 0.30220 0.68350 -0.14000
H 	H 	0.82360 0.33350 0.66700 0.08400
C 	C 	0.71440 0.21340 0.67670 -0.13200
H 	H 	0.67520 0.18530 0.65490 0.07000
N 	N 	0.43930 0.11770 0.41030 -0.21100
N 	N 	0.79560 0.46940 0.41670 -0.19100
N 	N 	0.80030 0.24750 0.76960 -0.19500
N 	N 	0.64820 0.28930 0.47120 -0.13800
N 	N 	0.73760 0.32280 0.56160 -0.13800
N 	N 	0.65230 0.23400 0.55770 -0.14200
N 	N 	0.91310 0.15680 0.90570 -0.18500
N 	N 	0.27970 0.81340 0.92130 -0.20200
N 	N 	0.27450 0.02820 0.27000 -0.19800
N 	N 	0.12510 0.98780 0.97200 -0.14200
N 	N 	0.21030 0.95120 0.06310 -0.14900
N 	N 	0.12250 0.03780 0.05690 -0.13800
Ag	Ag	0.84426 0.54241 0.36722 0.51000
Ag	Ag	0.32144 0.74466 0.86681 0.51300
C 	C 	0.59710 0.52920 0.99940 0.10200
C 	C 	0.12380 0.74380 0.50070 0.10000
C 	C 	0.03280 0.68960 0.40970 -0.14000
H 	H 	0.05430 0.71040 0.38830 0.08200
C 	C 	0.05990 0.69950 0.46810 0.06200
C 	C 	0.50320 0.61530 0.99470 -0.13200
H 	H 	0.52270 0.61620 0.03500 0.08500
C 	C 	0.68120 0.44780 0.00550 0.09700
C 	C 	0.72000 0.34860 0.89140 0.05000
H 	H 	0.70040 0.34450 0.85130 -0.01900
C 	C 	0.29760 0.91650 0.50440 -0.13000
H 	H 	0.31950 0.91320 0.54450 0.08400
C 	C 	0.53290 0.57350 0.96520 0.06800
C 	C 	0.44370 0.65570 0.96330 0.08100
H 	H 	0.42400 0.68360 0.98360 -0.01100
C 	C 	0.20940 0.77460 0.58600 0.10200
C 	C 	0.77630 0.36200 0.00830 -0.12400
H 	H 	0.79680 0.36530 0.04850 0.07100
C 	C 	0.23580 0.93490 0.38790 0.07700
H 	H 	0.21420 0.94170 0.34810 -0.00700
C 	C 	0.24240 0.76370 0.64970 0.06000
C 	C 	0.67830 0.54350 0.17930 -0.13700
H 	H 	0.63420 0.56120 0.15910 0.08200
C 	C 	0.02520 0.66570 0.49760 -0.14600
H 	H 	0.04190 0.67030 0.53750 0.07700
C 	C 	0.71390 0.39860 0.97590 0.04800
C 	C 	0.71160 0.50800 0.15060 0.06000
C 	C 	0.67940 0.49850 0.08650 0.09500
C 	C 	0.20420 0.88960 0.41420 -0.12900
H 	H 	0.16220 0.86700 0.39220 0.08300
C 	C 	0.20500 0.82790 0.50360 0.10400
C 	C 	0.23540 0.87820 0.47320 0.06600
C 	C 	0.96720 0.62630 0.46700 0.07300
H 	H 	0.94530 0.60350 0.48750 -0.01900
C 	C 	0.80670 0.32050 0.97840 0.06300
H 	H 	0.84820 0.29640 0.99970 -0.00600
C 	C 	0.32490 0.95900 0.47330 0.08500
H 	H 	0.36700 0.98200 0.49380 -0.01100
C 	C 	0.68600 0.39090 0.91740 -0.12500
H 	H 	0.64440 0.41390 0.89500 0.07500
C 	C 	0.50120 0.57390 0.90610 -0.14000
H 	H 	0.51880 0.54460 0.88490 0.08100
C 	C 	0.97270 0.64820 0.38250 0.06500
H 	H 	0.95500 0.64160 0.34260 -0.01500
C 	C 	0.71100 0.55260 0.23870 0.07400
H 	H 	0.68790 0.57660 0.25780 -0.01100
C 	C 	0.80500 0.49430 0.24110 0.07900
H 	H 	0.84890 0.47640 0.26230 -0.02600
C 	C 	0.44360 0.61720 0.87810 0.08300
H 	H 	0.42460 0.61920 0.83790 -0.00500
C 	C 	0.77720 0.48310 0.18210 -0.14900
H 	H 	0.80170 0.45970 0.16410 0.07700
C 	C 	0.32650 0.79320 0.74230 0.08200
H 	H 	0.36530 0.82160 0.76480 -0.01700
C 	C 	0.24510 0.70560 0.73550 0.06300
H 	H 	0.22720 0.66970 0.75290 -0.01400
C 	C 	0.30140 0.80220 0.68350 -0.14000
H 	H 	0.32360 0.83350 0.66700 0.08400
C 	C 	0.21440 0.71340 0.67670 -0.13200
H 	H 	0.17520 0.68530 0.65490 0.07000
N 	N 	0.93930 0.61770 0.41030 -0.21100
N 	N 	0.29560 0.96940 0.41670 -0.19100
N 	N 	0.30030 0.74750 0.76960 -0.19500
N 	N 	0.14820 0.78930 0.47120 -0.13800
N 	N 	0.23760 0.82280 0.56160 -0.13800
N 	N 	0.15230 0.73400 0.55770 -0.14200
N 	N 	0.41310 0.65680 0.90570 -0.18600
N 	N 	0.77970 0.31340 0.92130 -0.20100
N 	N 	0.77450 0.52820 0.27000 -0.19800
N 	N 	0.62510 0.48780 0.97200 -0.14200
N 	N 	0.71030 0.45120 0.06310 -0.14900
N 	N 	0.62250 0.53780 0.05690 -0.13700
Ag	Ag	0.65574 0.04241 0.13278 0.51000
Ag	Ag	0.17856 0.24466 0.63319 0.51300
C 	C 	0.90290 0.02920 0.50060 0.10200
C 	C 	0.37620 0.24380 0.99930 0.10000
C 	C 	0.46720 0.18960 0.09030 -0.13900
H 	H 	0.44570 0.21040 0.11170 0.08100
C 	C 	0.44010 0.19950 0.03190 0.06200
C 	C 	0.99680 0.11530 0.50530 -0.13200
H 	H 	0.97730 0.11620 0.46500 0.08500
C 	C 	0.81880 0.94780 0.49450 0.09600
C 	C 	0.78000 0.84860 0.60860 0.05100
H 	H 	0.79960 0.84450 0.64870 -0.01900
C 	C 	0.20240 0.41650 0.99560 -0.12700
H 	H 	0.18050 0.41320 0.95550 0.08300
C 	C 	0.96710 0.07350 0.53480 0.06800
C 	C 	0.05630 0.15570 0.53670 0.08100
H 	H 	0.07600 0.18360 0.51640 -0.01100
C 	C 	0.29060 0.27460 0.91400 0.10200
C 	C 	0.72370 0.86200 0.49170 -0.12700
H 	H 	0.70320 0.86530 0.45150 0.07200
C 	C 	0.26420 0.43490 0.11210 0.07600
H 	H 	0.28580 0.44170 0.15190 -0.00600
C 	C 	0.25760 0.26370 0.85030 0.06000
C 	C 	0.82170 0.04350 0.32070 -0.13700
H 	H 	0.86580 0.06120 0.34090 0.08200
C 	C 	0.47480 0.16570 0.00240 -0.14600
H 	H 	0.45810 0.17030 0.96250 0.07700
C 	C 	0.78610 0.89860 0.52410 0.05100
C 	C 	0.78840 0.00800 0.34940 0.06000
C 	C 	0.82060 0.99850 0.41350 0.09500
C 	C 	0.29580 0.38960 0.08580 -0.12700
H 	H 	0.33780 0.36700 0.10780 0.08200
C 	C 	0.29500 0.32790 0.99640 0.10500
C 	C 	0.26460 0.37820 0.02680 0.06300
C 	C 	0.53280 0.12630 0.03300 0.07300
H 	H 	0.55470 0.10350 0.01250 -0.01900
C 	C 	0.69330 0.82050 0.52160 0.06500
H 	H 	0.65180 0.79640 0.50030 -0.00600
C 	C 	0.17510 0.45900 0.02670 0.08300
H 	H 	0.13300 0.48200 0.00620 -0.01100
C 	C 	0.81400 0.89090 0.58260 -0.12600
H 	H 	0.85560 0.91390 0.60500 0.07600
C 	C 	0.99880 0.07390 0.59390 -0.14000
H 	H 	0.98120 0.04460 0.61510 0.08100
C 	C 	0.52730 0.14820 0.11750 0.06400
H 	H 	0.54500 0.14160 0.15740 -0.01500
C 	C 	0.78900 0.05260 0.26130 0.07400
H 	H 	0.81210 0.07660 0.24220 -0.01100
C 	C 	0.69500 0.99430 0.25890 0.07900
H 	H 	0.65110 0.97640 0.23770 -0.02600
C 	C 	0.05640 0.11720 0.62190 0.08300
H 	H 	0.07540 0.11920 0.66210 -0.00500
C 	C 	0.72280 0.98310 0.31790 -0.14900
H 	H 	0.69830 0.95970 0.33590 0.07700
C 	C 	0.17350 0.29320 0.75770 0.08200
H 	H 	0.13470 0.32160 0.73520 -0.01700
C 	C 	0.25490 0.20560 0.76450 0.06300
H 	H 	0.27280 0.16970 0.74710 -0.01400
C 	C 	0.19860 0.30220 0.81650 -0.14000
H 	H 	0.17640 0.33350 0.83300 0.08400
C 	C 	0.28560 0.21340 0.82330 -0.13200
H 	H 	0.32480 0.18530 0.84510 0.07000
N 	N 	0.56070 0.11770 0.08970 -0.21100
N 	N 	0.20440 0.46940 0.08330 -0.19000
N 	N 	0.19970 0.24750 0.73040 -0.19500
N 	N 	0.35180 0.28930 0.02880 -0.13900
N 	N 	0.26240 0.32280 0.93840 -0.13800
N 	N 	0.34770 0.23400 0.94230 -0.14300
N 	N 	0.08690 0.15680 0.59430 -0.18600
N 	N 	0.72030 0.81340 0.57870 -0.20200
N 	N 	0.72550 0.02820 0.23000 -0.19800
N 	N 	0.87490 0.98780 0.52800 -0.14200
N 	N 	0.78970 0.95120 0.43690 -0.14900
N 	N 	0.87750 0.03780 0.44310 -0.13800
Ag	Ag	0.15574 0.54241 0.13278 0.51000
Ag	Ag	0.67856 0.74466 0.63319 0.51300
C 	C 	0.40290 0.52920 0.50060 0.10200
C 	C 	0.87620 0.74380 0.99930 0.09900
C 	C 	0.96720 0.68960 0.09030 -0.13700
H 	H 	0.94570 0.71040 0.11170 0.08100
C 	C 	0.94010 0.69950 0.03190 0.06000
C 	C 	0.49680 0.61530 0.50530 -0.13200
H 	H 	0.47730 0.61620 0.46500 0.08500
C 	C 	0.31880 0.44780 0.49450 0.09600
C 	C 	0.28000 0.34860 0.60860 0.05100
H 	H 	0.29960 0.34450 0.64870 -0.01900
C 	C 	0.70240 0.91650 0.99560 -0.13200
H 	H 	0.68050 0.91320 0.95550 0.08500
C 	C 	0.46710 0.57350 0.53480 0.06800
C 	C 	0.55630 0.65570 0.53670 0.08100
H 	H 	0.57600 0.68360 0.51640 -0.01000
C 	C 	0.79060 0.77460 0.91400 0.10200
C 	C 	0.22370 0.36200 0.49170 -0.12700
H 	H 	0.20320 0.36530 0.45150 0.07200
C 	C 	0.76420 0.93490 0.11210 0.07800
H 	H 	0.78580 0.94170 0.15190 -0.00700
C 	C 	0.75760 0.76370 0.85030 0.06000
C 	C 	0.32170 0.54350 0.32070 -0.13700
H 	H 	0.36580 0.56120 0.34090 0.08200
C 	C 	0.97480 0.66570 0.00240 -0.14100
H 	H 	0.95810 0.67030 0.96250 0.07500
C 	C 	0.28610 0.39860 0.52410 0.05100
C 	C 	0.28840 0.50800 0.34940 0.06000
C 	C 	0.32060 0.49850 0.41350 0.09500
C 	C 	0.79580 0.88960 0.08580 -0.13000
H 	H 	0.83780 0.86700 0.10780 0.08300
C 	C 	0.79500 0.82790 0.99640 0.10200
C 	C 	0.76460 0.87820 0.02680 0.06800
C 	C 	0.03280 0.62630 0.03300 0.06900
H 	H 	0.05470 0.60350 0.01250 -0.01800
C 	C 	0.19330 0.32050 0.52160 0.06500
H 	H 	0.15180 0.29640 0.50030 -0.00600
C 	C 	0.67510 0.95900 0.02670 0.08600
H 	H 	0.63300 0.98200 0.00620 -0.01200
C 	C 	0.31400 0.39090 0.58260 -0.12600
H 	H 	0.35560 0.41390 0.60500 0.07600
C 	C 	0.49880 0.57390 0.59390 -0.14000
H 	H 	0.48120 0.54460 0.61510 0.08100
C 	C 	0.02730 0.64820 0.11750 0.06200
H 	H 	0.04500 0.64160 0.15740 -0.01400
C 	C 	0.28900 0.55260 0.26130 0.07400
H 	H 	0.31210 0.57660 0.24220 -0.01100
C 	C 	0.19500 0.49430 0.25890 0.07900
H 	H 	0.15110 0.47640 0.23770 -0.02600
C 	C 	0.55640 0.61720 0.62190 0.08300
H 	H 	0.57540 0.61920 0.66210 -0.00500
C 	C 	0.22280 0.48310 0.31790 -0.14900
H 	H 	0.19830 0.45970 0.33590 0.07600
C 	C 	0.67350 0.79320 0.75770 0.08200
H 	H 	0.63470 0.82160 0.73520 -0.01700
C 	C 	0.75490 0.70560 0.76450 0.06300
H 	H 	0.77280 0.66970 0.74710 -0.01400
C 	C 	0.69860 0.80220 0.81650 -0.14000
H 	H 	0.67640 0.83350 0.83300 0.08400
C 	C 	0.78560 0.71340 0.82330 -0.13200
H 	H 	0.82480 0.68530 0.84510 0.07000
N 	N 	0.06070 0.61770 0.08970 -0.21000
N 	N 	0.70440 0.96940 0.08330 -0.19100
N 	N 	0.69970 0.74750 0.73040 -0.19500
N 	N 	0.85180 0.78930 0.02880 -0.13800
N 	N 	0.76240 0.82280 0.93840 -0.13800
N 	N 	0.84770 0.73400 0.94230 -0.14200
N 	N 	0.58690 0.65680 0.59430 -0.18600
N 	N 	0.22030 0.31340 0.57870 -0.20200
N 	N 	0.22550 0.52820 0.23000 -0.19800
N 	N 	0.37490 0.48780 0.52800 -0.14200
N 	N 	0.28970 0.45120 0.43690 -0.14900
N 	N 	0.37750 0.53780 0.44310 -0.13800
Ag	Ag	0.65574 0.95759 0.63278 0.51000
Ag	Ag	0.17856 0.75534 0.13319 0.51300
C 	C 	0.90290 0.97080 0.00060 0.10400
C 	C 	0.37620 0.75620 0.49930 0.10000
C 	C 	0.46720 0.81040 0.59030 -0.13900
H 	H 	0.44570 0.78960 0.61170 0.08100
C 	C 	0.44010 0.80050 0.53190 0.06200
C 	C 	0.99680 0.88470 0.00530 -0.12600
H 	H 	0.97730 0.88380 0.96500 0.08300
C 	C 	0.81880 0.05220 0.99450 0.09400
C 	C 	0.78000 0.15140 0.10860 0.05200
H 	H 	0.79960 0.15550 0.14870 -0.01900
C 	C 	0.20240 0.58350 0.49560 -0.13000
H 	H 	0.18050 0.58680 0.45550 0.08400
C 	C 	0.96710 0.92650 0.03480 0.06500
C 	C 	0.05630 0.84430 0.03670 0.07800
H 	H 	0.07600 0.81640 0.01640 -0.00900
C 	C 	0.29060 0.72540 0.41400 0.10200
C 	C 	0.72370 0.13800 0.99170 -0.13000
H 	H 	0.70320 0.13470 0.95150 0.07300
C 	C 	0.26420 0.56510 0.61210 0.07700
H 	H 	0.28580 0.55830 0.65190 -0.00700
C 	C 	0.25760 0.73630 0.35030 0.06000
C 	C 	0.82170 0.95650 0.82070 -0.13700
H 	H 	0.86580 0.93880 0.84090 0.08200
C 	C 	0.47480 0.83430 0.50240 -0.14600
H 	H 	0.45810 0.82970 0.46250 0.07700
C 	C 	0.78610 0.10140 0.02410 0.05400
C 	C 	0.78840 0.99200 0.84940 0.06000
C 	C 	0.82060 0.00150 0.91350 0.09500
C 	C 	0.29580 0.61040 0.58580 -0.12900
H 	H 	0.33780 0.63300 0.60780 0.08300
C 	C 	0.29500 0.67210 0.49640 0.10400
C 	C 	0.26460 0.62180 0.52680 0.06600
C 	C 	0.53280 0.87370 0.53300 0.07300
H 	H 	0.55470 0.89650 0.51250 -0.01900
C 	C 	0.69330 0.17950 0.02160 0.06700
H 	H 	0.65180 0.20360 0.00030 -0.00700
C 	C 	0.17510 0.54100 0.52670 0.08500
H 	H 	0.13300 0.51800 0.50620 -0.01100
C 	C 	0.81400 0.10910 0.08260 -0.12800
H 	H 	0.85560 0.08610 0.10500 0.07700
C 	C 	0.99880 0.92610 0.09390 -0.13600
H 	H 	0.98120 0.95540 0.11510 0.08000
C 	C 	0.52730 0.85180 0.61750 0.06400
H 	H 	0.54500 0.85840 0.65740 -0.01500
C 	C 	0.78900 0.94740 0.76130 0.07400
H 	H 	0.81210 0.92340 0.74220 -0.01100
C 	C 	0.69500 0.00570 0.75890 0.07900
H 	H 	0.65110 0.02360 0.73770 -0.02600
C 	C 	0.05640 0.88280 0.12190 0.08000
H 	H 	0.07540 0.88080 0.16210 -0.00400
C 	C 	0.72280 0.01690 0.81790 -0.14900
H 	H 	0.69830 0.04030 0.83590 0.07700
C 	C 	0.17350 0.70680 0.25770 0.08200
H 	H 	0.13470 0.67840 0.23520 -0.01700
C 	C 	0.25490 0.79440 0.26450 0.06300
H 	H 	0.27280 0.83030 0.24710 -0.01400
C 	C 	0.19860 0.69780 0.31650 -0.14000
H 	H 	0.17640 0.66650 0.33300 0.08400
C 	C 	0.28560 0.78660 0.32330 -0.13200
H 	H 	0.32480 0.81470 0.34510 0.07000
N 	N 	0.56070 0.88230 0.58970 -0.21100
N 	N 	0.20440 0.53060 0.58330 -0.19100
N 	N 	0.19970 0.75250 0.23040 -0.19500
N 	N 	0.35180 0.71070 0.52880 -0.13800
N 	N 	0.26240 0.67720 0.43840 -0.13800
N 	N 	0.34770 0.76600 0.44230 -0.14200
N 	N 	0.08690 0.84320 0.09430 -0.18500
N 	N 	0.72030 0.18660 0.07870 -0.20200
N 	N 	0.72550 0.97180 0.73000 -0.19800
N 	N 	0.87490 0.01220 0.02800 -0.14200
N 	N 	0.78970 0.04880 0.93690 -0.14900
N 	N 	0.87750 0.96220 0.94310 -0.13800
Ag	Ag	0.15574 0.45759 0.63278 0.51000
Ag	Ag	0.67856 0.25534 0.13319 0.51300
C 	C 	0.40290 0.47080 0.00060 0.10200
C 	C 	0.87620 0.25620 0.49930 0.10000
C 	C 	0.96720 0.31040 0.59030 -0.14000
H 	H 	0.94570 0.28960 0.61170 0.08200
C 	C 	0.94010 0.30050 0.53190 0.06200
C 	C 	0.49680 0.38470 0.00530 -0.13200
H 	H 	0.47730 0.38380 0.96500 0.08500
C 	C 	0.31880 0.55220 0.99450 0.09700
C 	C 	0.28000 0.65140 0.10860 0.05000
H 	H 	0.29960 0.65550 0.14870 -0.01900
C 	C 	0.70240 0.08350 0.49560 -0.13000
H 	H 	0.68050 0.08680 0.45550 0.08400
C 	C 	0.46710 0.42650 0.03480 0.06800
C 	C 	0.55630 0.34430 0.03670 0.08100
H 	H 	0.57600 0.31640 0.01640 -0.01100
C 	C 	0.79060 0.22540 0.41400 0.10200
C 	C 	0.22370 0.63800 0.99170 -0.12400
H 	H 	0.20320 0.63470 0.95150 0.07100
C 	C 	0.76420 0.06510 0.61210 0.07700
H 	H 	0.78580 0.05830 0.65190 -0.00700
C 	C 	0.75760 0.23630 0.35030 0.06000
C 	C 	0.32170 0.45650 0.82070 -0.13700
H 	H 	0.36580 0.43880 0.84090 0.08200
C 	C 	0.97480 0.33430 0.50240 -0.14600
H 	H 	0.95810 0.32970 0.46250 0.07700
C 	C 	0.28610 0.60140 0.02410 0.04800
C 	C 	0.28840 0.49200 0.84940 0.06000
C 	C 	0.32060 0.50150 0.91350 0.09500
C 	C 	0.79580 0.11040 0.58580 -0.12900
H 	H 	0.83780 0.13300 0.60780 0.08300
C 	C 	0.79500 0.17210 0.49640 0.10400
C 	C 	0.76460 0.12180 0.52680 0.06600
C 	C 	0.03280 0.37370 0.53300 0.07300
H 	H 	0.05470 0.39650 0.51250 -0.01900
C 	C 	0.19330 0.67950 0.02160 0.06300
H 	H 	0.15180 0.70360 0.00030 -0.00600
C 	C 	0.67510 0.04100 0.52670 0.08500
H 	H 	0.63300 0.01800 0.50620 -0.01100
C 	C 	0.31400 0.60910 0.08260 -0.12500
H 	H 	0.35560 0.58610 0.10500 0.07500
C 	C 	0.49880 0.42610 0.09390 -0.14000
H 	H 	0.48120 0.45540 0.11510 0.08100
C 	C 	0.02730 0.35180 0.61750 0.06500
H 	H 	0.04500 0.35840 0.65740 -0.01500
C 	C 	0.28900 0.44740 0.76130 0.07400
H 	H 	0.31210 0.42340 0.74220 -0.01100
C 	C 	0.19500 0.50570 0.75890 0.07900
H 	H 	0.15110 0.52360 0.73770 -0.02600
C 	C 	0.55640 0.38280 0.12190 0.08300
H 	H 	0.57540 0.38080 0.16210 -0.00500
C 	C 	0.22280 0.51690 0.81790 -0.14900
H 	H 	0.19830 0.54030 0.83590 0.07700
C 	C 	0.67350 0.20680 0.25770 0.08200
H 	H 	0.63470 0.17840 0.23520 -0.01700
C 	C 	0.75490 0.29440 0.26450 0.06300
H 	H 	0.77280 0.33030 0.24710 -0.01400
C 	C 	0.69860 0.19780 0.31650 -0.14000
H 	H 	0.67640 0.16650 0.33300 0.08400
C 	C 	0.78560 0.28660 0.32330 -0.13200
H 	H 	0.82480 0.31470 0.34510 0.07000
N 	N 	0.06070 0.38230 0.58970 -0.21100
N 	N 	0.70440 0.03060 0.58330 -0.19100
N 	N 	0.69970 0.25250 0.23040 -0.19500
N 	N 	0.85180 0.21070 0.52880 -0.13800
N 	N 	0.76240 0.17720 0.43840 -0.13800
N 	N 	0.84770 0.26600 0.44230 -0.14200
N 	N 	0.58690 0.34320 0.09430 -0.18600
N 	N 	0.22030 0.68660 0.07870 -0.20100
N 	N 	0.22550 0.47180 0.73000 -0.19800
N 	N 	0.37490 0.51220 0.02800 -0.14200
N 	N 	0.28970 0.54880 0.93690 -0.14900
N 	N 	0.37750 0.46220 0.94310 -0.13700
Ag	Ag	0.34426 0.95759 0.86722 0.51000
Ag	Ag	0.82144 0.75534 0.36681 0.51300
C 	C 	0.09710 0.97080 0.49940 0.10200
C 	C 	0.62380 0.75620 0.00070 0.10000
C 	C 	0.53280 0.81040 0.90970 -0.13900
H 	H 	0.55430 0.78960 0.88830 0.08100
C 	C 	0.55990 0.80050 0.96810 0.06200
C 	C 	0.00320 0.88470 0.49470 -0.13200
H 	H 	0.02270 0.88380 0.53500 0.08500
C 	C 	0.18120 0.05220 0.50550 0.09600
C 	C 	0.22000 0.15140 0.39140 0.05100
H 	H 	0.20040 0.15550 0.35130 -0.01900
C 	C 	0.79760 0.58350 0.00440 -0.12700
H 	H 	0.81950 0.58680 0.04450 0.08300
C 	C 	0.03290 0.92650 0.46520 0.06800
C 	C 	0.94370 0.84430 0.46330 0.08100
H 	H 	0.92400 0.81640 0.48360 -0.01100
C 	C 	0.70940 0.72540 0.08600 0.10200
C 	C 	0.27630 0.13800 0.50830 -0.12700
H 	H 	0.29680 0.13470 0.54850 0.07200
C 	C 	0.73580 0.56510 0.88790 0.07600
H 	H 	0.71420 0.55830 0.84810 -0.00600
C 	C 	0.74240 0.73630 0.14970 0.06000
C 	C 	0.17830 0.95650 0.67930 -0.13700
H 	H 	0.13420 0.93880 0.65910 0.08200
C 	C 	0.52520 0.83430 0.99760 -0.14600
H 	H 	0.54190 0.82970 0.03750 0.07700
C 	C 	0.21390 0.10140 0.47590 0.05100
C 	C 	0.21160 0.99200 0.65060 0.06000
C 	C 	0.17940 0.00150 0.58650 0.09500
C 	C 	0.70420 0.61040 0.91420 -0.12700
H 	H 	0.66220 0.63300 0.89220 0.08200
C 	C 	0.70500 0.67210 0.00360 0.10500
C 	C 	0.73540 0.62180 0.97320 0.06300
C 	C 	0.46720 0.87370 0.96700 0.07300
H 	H 	0.44530 0.89650 0.98750 -0.01900
C 	C 	0.30670 0.17950 0.47840 0.06500
H 	H 	0.34820 0.20360 0.49970 -0.00600
C 	C 	0.82490 0.54100 0.97330 0.08300
H 	H 	0.86700 0.51800 0.99380 -0.01100
C 	C 	0.18600 0.10910 0.41740 -0.12600
H 	H 	0.14440 0.08610 0.39500 0.07600
C 	C 	0.00120 0.92610 0.40610 -0.14000
H 	H 	0.01880 0.95540 0.38490 0.08100
C 	C 	0.47270 0.85180 0.88250 0.06400
H 	H 	0.45500 0.85840 0.84260 -0.01500
C 	C 	0.21100 0.94740 0.73870 0.07400
H 	H 	0.18790 0.92340 0.75780 -0.01100
C 	C 	0.30500 0.00570 0.74110 0.07900
H 	H 	0.34890 0.02360 0.76230 -0.02600
C 	C 	0.94360 0.88280 0.37810 0.08300
H 	H 	0.92460 0.88080 0.33790 -0.00500
C 	C 	0.27720 0.01690 0.68210 -0.14900
H 	H 	0.30170 0.04030 0.66410 0.07700
C 	C 	0.82650 0.70680 0.24230 0.08200
H 	H 	0.86530 0.67840 0.26480 -0.01700
C 	C 	0.74510 0.79440 0.23550 0.06300
H 	H 	0.72720 0.83030 0.25290 -0.01400
C 	C 	0.80140 0.69780 0.18350 -0.14000
H 	H 	0.82360 0.66650 0.16700 0.08400
C 	C 	0.71440 0.78660 0.17670 -0.13200
H 	H 	0.67520 0.81470 0.15490 0.07000
N 	N 	0.43930 0.88230 0.91030 -0.21100
N 	N 	0.79560 0.53060 0.91670 -0.19000
N 	N 	0.80030 0.75250 0.26960 -0.19500
N 	N 	0.64820 0.71070 0.97120 -0.13900
N 	N 	0.73760 0.67720 0.06160 -0.13800
N 	N 	0.65230 0.76600 0.05770 -0.14300
N 	N 	0.91310 0.84320 0.40570 -0.18600
N 	N 	0.27970 0.18660 0.42130 -0.20200
N 	N 	0.27450 0.97180 0.77000 -0.19800
N 	N 	0.12510 0.01220 0.47200 -0.14200
N 	N 	0.21030 0.04880 0.56310 -0.14900
N 	N 	0.12250 0.96220 0.55690 -0.13800
Ag	Ag	0.84426 0.45759 0.86722 0.51000
Ag	Ag	0.32144 0.25534 0.36681 0.51300
C 	C 	0.59710 0.47080 0.49940 0.10200
C 	C 	0.12380 0.25620 0.00070 0.09900
C 	C 	0.03280 0.31040 0.90970 -0.13700
H 	H 	0.05430 0.28960 0.88830 0.08100
C 	C 	0.05990 0.30050 0.96810 0.06000
C 	C 	0.50320 0.38470 0.49470 -0.13200
H 	H 	0.52270 0.38380 0.53500 0.08500
C 	C 	0.68120 0.55220 0.50550 0.09600
C 	C 	0.72000 0.65140 0.39140 0.05100
H 	H 	0.70040 0.65550 0.35130 -0.01900
C 	C 	0.29760 0.08350 0.00440 -0.13200
H 	H 	0.31950 0.08680 0.04450 0.08500
C 	C 	0.53290 0.42650 0.46520 0.06800
C 	C 	0.44370 0.34430 0.46330 0.08100
H 	H 	0.42400 0.31640 0.48360 -0.01000
C 	C 	0.20940 0.22540 0.08600 0.10200
C 	C 	0.77630 0.63800 0.50830 -0.12700
H 	H 	0.79680 0.63470 0.54850 0.07200
C 	C 	0.23580 0.06510 0.88790 0.07800
H 	H 	0.21420 0.05830 0.84810 -0.00700
C 	C 	0.24240 0.23630 0.14970 0.06000
C 	C 	0.67830 0.45650 0.67930 -0.13700
H 	H 	0.63420 0.43880 0.65910 0.08200
C 	C 	0.02520 0.33430 0.99760 -0.14100
H 	H 	0.04190 0.32970 0.03750 0.07500
C 	C 	0.71390 0.60140 0.47590 0.05100
C 	C 	0.71160 0.49200 0.65060 0.06000
C 	C 	0.67940 0.50150 0.58650 0.09500
C 	C 	0.20420 0.11040 0.91420 -0.13000
H 	H 	0.16220 0.13300 0.89220 0.08300
C 	C 	0.20500 0.17210 0.00360 0.10200
C 	C 	0.23540 0.12180 0.97320 0.06800
C 	C 	0.96720 0.37370 0.96700 0.06900
H 	H 	0.94530 0.39650 0.98750 -0.01800
C 	C 	0.80670 0.67950 0.47840 0.06500
H 	H 	0.84820 0.70360 0.49970 -0.00600
C 	C 	0.32490 0.04100 0.97330 0.08600
H 	H 	0.36700 0.01800 0.99380 -0.01200
C 	C 	0.68600 0.60910 0.41740 -0.12600
H 	H 	0.64440 0.58610 0.39500 0.07600
C 	C 	0.50120 0.42610 0.40610 -0.14000
H 	H 	0.51880 0.45540 0.38490 0.08100
C 	C 	0.97270 0.35180 0.88250 0.06200
H 	H 	0.95500 0.35840 0.84260 -0.01400
C 	C 	0.71100 0.44740 0.73870 0.07400
H 	H 	0.68790 0.42340 0.75780 -0.01100
C 	C 	0.80500 0.50570 0.74110 0.07900
H 	H 	0.84890 0.52360 0.76230 -0.02600
C 	C 	0.44360 0.38280 0.37810 0.08300
H 	H 	0.42460 0.38080 0.33790 -0.00500
C 	C 	0.77720 0.51690 0.68210 -0.14900
H 	H 	0.80170 0.54030 0.66410 0.07600
C 	C 	0.32650 0.20680 0.24230 0.08200
H 	H 	0.36530 0.17840 0.26480 -0.01700
C 	C 	0.24510 0.29440 0.23550 0.06300
H 	H 	0.22720 0.33030 0.25290 -0.01400
C 	C 	0.30140 0.19780 0.18350 -0.14000
H 	H 	0.32360 0.16650 0.16700 0.08400
C 	C 	0.21440 0.28660 0.17670 -0.13200
H 	H 	0.17520 0.31470 0.15490 0.07000
N 	N 	0.93930 0.38230 0.91030 -0.21000
N 	N 	0.29560 0.03060 0.91670 -0.19100
N 	N 	0.30030 0.25250 0.26960 -0.19500
N 	N 	0.14820 0.21070 0.97120 -0.13800
N 	N 	0.23760 0.17720 0.06160 -0.13800
N 	N 	0.15230 0.26600 0.05770 -0.14200
N 	N 	0.41310 0.34320 0.40570 -0.18600
N 	N 	0.77970 0.68660 0.42130 -0.20200
N 	N 	0.77450 0.47180 0.77000 -0.19800
N 	N 	0.62510 0.51220 0.47200 -0.14200
N 	N 	0.71030 0.54880 0.56310 -0.14900
N 	N 	0.62250 0.46220 0.55690 -0.13800
