data_crystal

_cell_length_a 22.06390
_cell_length_b 16.33820
_cell_length_c 25.61700
_cell_angle_alpha 90.00000
_cell_angle_beta  115.31100
_cell_angle_gamma 90.00000

_symmetry_space_group_name_	'P 1'
_symmetry_space_group_name_H-M	'P 1'

loop_
_symmetry_equiv_pos_as_xyz
  x,y,z

loop_
_atom_site_label
_atom_site_type_symbol
_atom_site_fract_x
_atom_site_fract_y
_atom_site_fract_z
_atom_site_charge
Ag	Ag	0.84407 0.45744 0.36783 0.51100
Ag	Ag	0.32296 0.25214 0.86725 0.51400
C 	C 	0.12370 0.25700 0.50240 0.10100
C 	C 	0.77800 0.63770 0.00920 -0.10100
H 	H 	0.79870 0.63410 0.04930 0.06600
C 	C 	0.23510 0.06500 0.38830 0.07600
H 	H 	0.21320 0.05830 0.34850 -0.00400
C 	C 	0.59780 0.47000 0.00100 0.10600
C 	C 	0.29810 0.08420 0.50490 -0.12500
H 	H 	0.32040 0.08860 0.54490 0.08300
C 	C 	0.03310 0.31220 0.41110 -0.13100
H 	H 	0.05450 0.29080 0.38990 0.08000
C 	C 	0.44370 0.34300 0.96490 0.08200
H 	H 	0.42360 0.31480 0.98480 -0.01000
C 	C 	0.50340 0.38350 0.99650 -0.13200
H 	H 	0.52300 0.38210 0.03670 0.08800
C 	C 	0.06000 0.30220 0.47020 0.05700
C 	C 	0.20990 0.22690 0.58770 0.10200
C 	C 	0.67890 0.45610 0.18130 -0.12800
H 	H 	0.63480 0.43850 0.16140 0.07900
C 	C 	0.71980 0.65200 0.89210 0.04200
H 	H 	0.69980 0.65630 0.85200 -0.01500
C 	C 	0.68250 0.55180 0.00680 0.10300
C 	C 	0.53340 0.42620 0.96710 0.06100
C 	C 	0.68050 0.50210 0.08830 0.09700
C 	C 	0.24360 0.23740 0.65170 0.05900
C 	C 	0.02610 0.33560 0.50000 -0.13500
H 	H 	0.04340 0.33090 0.53990 0.07300
C 	C 	0.71550 0.60110 0.97760 0.03300
C 	C 	0.32590 0.04090 0.47410 0.07800
H 	H 	0.36810 0.01770 0.49430 -0.00800
C 	C 	0.68570 0.60960 0.91850 -0.11100
H 	H 	0.64360 0.58740 0.89660 0.07100
C 	C 	0.80850 0.67970 0.97940 0.04200
H 	H 	0.85010 0.70360 0.00050 0.00400
C 	C 	0.97350 0.35470 0.38410 0.05700
H 	H 	0.95640 0.36290 0.34450 -0.01300
C 	C 	0.23590 0.12100 0.47450 0.06500
C 	C 	0.96680 0.37540 0.46960 0.05900
H 	H 	0.94430 0.39730 0.48990 -0.01300
C 	C 	0.20540 0.17210 0.50510 0.10400
C 	C 	0.20390 0.11010 0.41520 -0.12700
H 	H 	0.16180 0.13290 0.39390 0.08300
C 	C 	0.80760 0.50490 0.24250 0.06600
H 	H 	0.85190 0.52150 0.26320 -0.02100
C 	C 	0.50240 0.42690 0.90720 -0.13100
H 	H 	0.52050 0.45630 0.88620 0.07900
C 	C 	0.44380 0.38300 0.87960 0.07600
H 	H 	0.42430 0.38150 0.83950 -0.00300
C 	C 	0.21570 0.28910 0.67820 -0.13200
H 	H 	0.17750 0.31930 0.65640 0.06900
C 	C 	0.30230 0.19750 0.68490 -0.13400
H 	H 	0.32380 0.16500 0.66810 0.08200
C 	C 	0.32830 0.20740 0.74430 0.07500
H 	H 	0.36780 0.17980 0.76690 -0.01500
C 	C 	0.71230 0.49240 0.15200 0.05100
C 	C 	0.77810 0.51670 0.18320 -0.13700
H 	H 	0.80210 0.54050 0.16480 0.07300
C 	C 	0.71230 0.44670 0.24060 0.06900
H 	H 	0.68960 0.42250 0.26000 -0.01000
C 	C 	0.24540 0.29510 0.73740 0.06400
H 	H 	0.22610 0.32970 0.75490 -0.01300
N 	N 	0.93930 0.38470 0.41222 -0.20800
N 	N 	0.29550 0.03050 0.41677 -0.18800
N 	N 	0.30080 0.25360 0.77114 -0.19500
N 	N 	0.15310 0.26820 0.55928 -0.14300
N 	N 	0.14800 0.21010 0.47260 -0.13800
N 	N 	0.23830 0.17780 0.56306 -0.13700
N 	N 	0.41340 0.34230 0.90725 -0.18400
N 	N 	0.78020 0.68700 0.92163 -0.19600
N 	N 	0.77610 0.47110 0.27159 -0.19500
N 	N 	0.62280 0.46270 0.05881 -0.13700
N 	N 	0.62633 0.51130 0.97304 -0.14500
N 	N 	0.71150 0.54970 0.06481 -0.15000
Ag	Ag	0.34407 0.95744 0.36783 0.51000
Ag	Ag	0.82296 0.75214 0.86725 0.51300
C 	C 	0.62370 0.75700 0.50240 0.10000
C 	C 	0.27800 0.13770 0.00920 -0.10700
H 	H 	0.29870 0.13410 0.04930 0.06700
C 	C 	0.73510 0.56500 0.38830 0.07500
H 	H 	0.71320 0.55830 0.34850 -0.00500
C 	C 	0.09780 0.97000 0.00100 0.10300
C 	C 	0.79810 0.58420 0.50490 -0.12600
H 	H 	0.82040 0.58860 0.54490 0.08200
C 	C 	0.53310 0.81220 0.41110 -0.13200
H 	H 	0.55450 0.79080 0.38990 0.07900
C 	C 	0.94370 0.84300 0.96490 0.07800
H 	H 	0.92360 0.81480 0.98480 -0.01000
C 	C 	0.00340 0.88350 0.99650 -0.12800
H 	H 	0.02300 0.88210 0.03670 0.08500
C 	C 	0.56000 0.80220 0.47020 0.05500
C 	C 	0.70990 0.72690 0.58770 0.10200
C 	C 	0.17890 0.95610 0.18130 -0.12800
H 	H 	0.13480 0.93850 0.16140 0.07900
C 	C 	0.21980 0.15200 0.89210 0.04300
H 	H 	0.19980 0.15630 0.85200 -0.01600
C 	C 	0.18250 0.05180 0.00680 0.10100
C 	C 	0.03340 0.92620 0.96710 0.06100
C 	C 	0.18050 0.00210 0.08830 0.09700
C 	C 	0.74360 0.73740 0.65170 0.05900
C 	C 	0.52610 0.83560 0.50000 -0.13400
H 	H 	0.54340 0.83090 0.53990 0.07300
C 	C 	0.21550 0.10110 0.97760 0.03700
C 	C 	0.82590 0.54090 0.47410 0.07800
H 	H 	0.86810 0.51770 0.49430 -0.00800
C 	C 	0.18570 0.10960 0.91850 -0.11400
H 	H 	0.14360 0.08740 0.89660 0.07200
C 	C 	0.30850 0.17970 0.97940 0.04600
H 	H 	0.35010 0.20360 0.00050 0.00200
C 	C 	0.47350 0.85470 0.38410 0.05600
H 	H 	0.45640 0.86290 0.34450 -0.01300
C 	C 	0.73590 0.62100 0.47450 0.06500
C 	C 	0.46680 0.87540 0.46960 0.05900
H 	H 	0.44430 0.89730 0.48990 -0.01300
C 	C 	0.70540 0.67210 0.50510 0.10400
C 	C 	0.70390 0.61010 0.41520 -0.12700
H 	H 	0.66180 0.63290 0.39390 0.08300
C 	C 	0.30760 0.00490 0.24250 0.06600
H 	H 	0.35190 0.02150 0.26320 -0.02100
C 	C 	0.00240 0.92690 0.90720 -0.12900
H 	H 	0.02050 0.95630 0.88620 0.07800
C 	C 	0.94380 0.88300 0.87960 0.07400
H 	H 	0.92430 0.88150 0.83950 -0.00200
C 	C 	0.71570 0.78910 0.67820 -0.13200
H 	H 	0.67750 0.81930 0.65640 0.06900
C 	C 	0.80230 0.69750 0.68490 -0.13400
H 	H 	0.82380 0.66500 0.66810 0.08200
C 	C 	0.82830 0.70740 0.74430 0.07500
H 	H 	0.86780 0.67980 0.76690 -0.01500
C 	C 	0.21230 0.99240 0.15200 0.05000
C 	C 	0.27810 0.01670 0.18320 -0.13600
H 	H 	0.30210 0.04050 0.16480 0.07300
C 	C 	0.21230 0.94670 0.24060 0.06800
H 	H 	0.18960 0.92250 0.26000 -0.01000
C 	C 	0.74540 0.79510 0.73740 0.06400
H 	H 	0.72610 0.82970 0.75490 -0.01300
N 	N 	0.43930 0.88470 0.41222 -0.20800
N 	N 	0.79550 0.53050 0.41677 -0.18800
N 	N 	0.80080 0.75360 0.77114 -0.19500
N 	N 	0.65310 0.76820 0.55928 -0.14300
N 	N 	0.64800 0.71010 0.47260 -0.13800
N 	N 	0.73830 0.67780 0.56306 -0.13700
N 	N 	0.91340 0.84230 0.90725 -0.18400
N 	N 	0.28020 0.18700 0.92163 -0.19700
N 	N 	0.27610 0.97110 0.27159 -0.19500
N 	N 	0.12280 0.96270 0.05881 -0.13700
N 	N 	0.12633 0.01130 0.97304 -0.14300
N 	N 	0.21150 0.04970 0.06481 -0.14900
Ag	Ag	0.15593 0.45744 0.13217 0.51000
Ag	Ag	0.67704 0.25214 0.63275 0.51300
C 	C 	0.87630 0.25700 0.99760 0.09500
C 	C 	0.22200 0.63770 0.49080 -0.12100
H 	H 	0.20130 0.63410 0.45070 0.07100
C 	C 	0.76490 0.06500 0.11170 0.08000
H 	H 	0.78680 0.05830 0.15150 -0.00700
C 	C 	0.40220 0.47000 0.49900 0.10100
C 	C 	0.70190 0.08420 0.99510 -0.14300
H 	H 	0.67960 0.08860 0.95510 0.08800
C 	C 	0.96690 0.31220 0.08890 -0.12900
H 	H 	0.94550 0.29080 0.11010 0.07900
C 	C 	0.55630 0.34300 0.53510 0.07900
H 	H 	0.57640 0.31480 0.51520 -0.00900
C 	C 	0.49660 0.38350 0.50350 -0.12800
H 	H 	0.47700 0.38210 0.46330 0.08400
C 	C 	0.94000 0.30220 0.02980 0.05500
C 	C 	0.79010 0.22690 0.91230 0.10200
C 	C 	0.32110 0.45610 0.31870 -0.12800
H 	H 	0.36520 0.43850 0.33860 0.07900
C 	C 	0.28020 0.65200 0.60790 0.04700
H 	H 	0.30020 0.65630 0.64800 -0.01700
C 	C 	0.31750 0.55180 0.49320 0.09600
C 	C 	0.46660 0.42620 0.53290 0.06300
C 	C 	0.31950 0.50210 0.41170 0.09600
C 	C 	0.75640 0.23740 0.84830 0.05900
C 	C 	0.97390 0.33560 -0.00000 -0.12400
H 	H 	0.95660 0.33090 0.96010 0.06700
C 	C 	0.28450 0.60110 0.52240 0.04700
C 	C 	0.67410 0.04090 0.02590 0.08800
H 	H 	0.63190 0.01770 0.00570 -0.01100
C 	C 	0.31430 0.60960 0.58150 -0.12000
H 	H 	0.35640 0.58740 0.60340 0.07500
C 	C 	0.19150 0.67970 0.52060 0.05800
H 	H 	0.14990 0.70360 0.49950 -0.00400
C 	C 	0.02650 0.35470 0.11590 0.05400
H 	H 	0.04360 0.36290 0.15550 -0.01200
C 	C 	0.76410 0.12100 0.02550 0.07900
C 	C 	0.03320 0.37540 0.03040 0.05300
H 	H 	0.05570 0.39730 0.01010 -0.01100
C 	C 	0.79460 0.17210 0.99490 0.09500
C 	C 	0.79610 0.11010 0.08480 -0.13500
H 	H 	0.83820 0.13290 0.10610 0.08600
C 	C 	0.19240 0.50490 0.25750 0.06600
H 	H 	0.14810 0.52150 0.23680 -0.02100
C 	C 	0.49760 0.42690 0.59280 -0.13200
H 	H 	0.47950 0.45630 0.61380 0.07900
C 	C 	0.55620 0.38300 0.62040 0.07600
H 	H 	0.57570 0.38150 0.66050 -0.00300
C 	C 	0.78430 0.28910 0.82180 -0.13200
H 	H 	0.82250 0.31930 0.84360 0.06900
C 	C 	0.69770 0.19750 0.81510 -0.13400
H 	H 	0.67620 0.16500 0.83190 0.08200
C 	C 	0.67170 0.20740 0.75570 0.07500
H 	H 	0.63220 0.17980 0.73310 -0.01500
C 	C 	0.28770 0.49240 0.34800 0.05100
C 	C 	0.22190 0.51670 0.31680 -0.13700
H 	H 	0.19790 0.54050 0.33520 0.07300
C 	C 	0.28770 0.44670 0.25940 0.06900
H 	H 	0.31040 0.42250 0.24000 -0.01000
C 	C 	0.75460 0.29510 0.76260 0.06400
H 	H 	0.77390 0.32970 0.74510 -0.01300
N 	N 	0.06070 0.38470 0.08778 -0.20600
N 	N 	0.70450 0.03050 0.08323 -0.19100
N 	N 	0.69920 0.25360 0.72886 -0.19500
N 	N 	0.84690 0.26820 0.94072 -0.14200
N 	N 	0.85200 0.21010 0.02740 -0.13400
N 	N 	0.76170 0.17780 0.93694 -0.13600
N 	N 	0.58660 0.34230 0.59275 -0.18400
N 	N 	0.21980 0.68700 0.57837 -0.20000
N 	N 	0.22390 0.47110 0.22841 -0.19500
N 	N 	0.37720 0.46270 0.44119 -0.13600
N 	N 	0.37367 0.51130 0.52696 -0.14100
N 	N 	0.28850 0.54970 0.43519 -0.14800
Ag	Ag	0.65593 0.95744 0.13217 0.51000
Ag	Ag	0.17704 0.75214 0.63275 0.51300
C 	C 	0.37630 0.75700 0.99760 0.09700
C 	C 	0.72200 0.13770 0.49080 -0.12100
H 	H 	0.70130 0.13410 0.45070 0.07100
C 	C 	0.26490 0.56500 0.11170 0.07800
H 	H 	0.28680 0.55830 0.15150 -0.00600
C 	C 	0.90220 0.97000 0.49900 0.10100
C 	C 	0.20190 0.58420 0.99510 -0.13600
H 	H 	0.17960 0.58860 0.95510 0.08600
C 	C 	0.46690 0.81220 0.08890 -0.13200
H 	H 	0.44550 0.79080 0.11010 0.07900
C 	C 	0.05630 0.84300 0.53510 0.07900
H 	H 	0.07640 0.81480 0.51520 -0.00900
C 	C 	0.99660 0.88350 0.50350 -0.12800
H 	H 	0.97700 0.88210 0.46330 0.08400
C 	C 	0.44000 0.80220 0.02980 0.05600
C 	C 	0.29010 0.72690 0.91230 0.10200
C 	C 	0.82110 0.95610 0.31870 -0.12800
H 	H 	0.86520 0.93850 0.33860 0.07900
C 	C 	0.78020 0.15200 0.60790 0.04700
H 	H 	0.80020 0.15630 0.64800 -0.01700
C 	C 	0.81750 0.05180 0.49320 0.09600
C 	C 	0.96660 0.92620 0.53290 0.06300
C 	C 	0.81950 0.00210 0.41170 0.09700
C 	C 	0.25640 0.73740 0.84830 0.05900
C 	C 	0.47390 0.83560 -0.00000 -0.13000
H 	H 	0.45660 0.83090 0.96010 0.07000
C 	C 	0.78450 0.10110 0.52240 0.04700
C 	C 	0.17410 0.54090 0.02590 0.08400
H 	H 	0.13190 0.51770 0.00570 -0.01000
C 	C 	0.81430 0.10960 0.58150 -0.12000
H 	H 	0.85640 0.08740 0.60340 0.07400
C 	C 	0.69150 0.17970 0.52060 0.05800
H 	H 	0.64990 0.20360 0.49950 -0.00400
C 	C 	0.52650 0.85470 0.11590 0.05600
H 	H 	0.54360 0.86290 0.15550 -0.01300
C 	C 	0.26410 0.62100 0.02550 0.07300
C 	C 	0.53320 0.87540 0.03040 0.05700
H 	H 	0.55570 0.89730 0.01010 -0.01200
C 	C 	0.29460 0.67210 0.99490 0.09800
C 	C 	0.29610 0.61010 0.08480 -0.13200
H 	H 	0.33820 0.63290 0.10610 0.08400
C 	C 	0.69240 0.00490 0.25750 0.06600
H 	H 	0.64810 0.02150 0.23680 -0.02100
C 	C 	0.99760 0.92690 0.59280 -0.13200
H 	H 	0.97950 0.95630 0.61380 0.07900
C 	C 	0.05620 0.88300 0.62040 0.07600
H 	H 	0.07570 0.88150 0.66050 -0.00300
C 	C 	0.28430 0.78910 0.82180 -0.13200
H 	H 	0.32250 0.81930 0.84360 0.06900
C 	C 	0.19770 0.69750 0.81510 -0.13400
H 	H 	0.17620 0.66500 0.83190 0.08200
C 	C 	0.17170 0.70740 0.75570 0.07500
H 	H 	0.13220 0.67980 0.73310 -0.01500
C 	C 	0.78770 0.99240 0.34800 0.05100
C 	C 	0.72190 0.01670 0.31680 -0.13600
H 	H 	0.69790 0.04050 0.33520 0.07300
C 	C 	0.78770 0.94670 0.25940 0.06800
H 	H 	0.81040 0.92250 0.24000 -0.01000
C 	C 	0.25460 0.79510 0.76260 0.06400
H 	H 	0.27390 0.82970 0.74510 -0.01300
N 	N 	0.56070 0.88470 0.08778 -0.20700
N 	N 	0.20450 0.53050 0.08323 -0.19000
N 	N 	0.19920 0.75360 0.72886 -0.19500
N 	N 	0.34690 0.76820 0.94072 -0.14200
N 	N 	0.35200 0.71010 0.02740 -0.13500
N 	N 	0.26170 0.67780 0.93694 -0.13700
N 	N 	0.08660 0.84230 0.59275 -0.18400
N 	N 	0.71980 0.18700 0.57837 -0.20000
N 	N 	0.72390 0.97110 0.22841 -0.19500
N 	N 	0.87720 0.96270 0.44119 -0.13700
N 	N 	0.87367 0.01130 0.52696 -0.14100
N 	N 	0.78850 0.04970 0.43519 -0.14800
Ag	Ag	0.15593 0.54256 0.63217 0.51000
Ag	Ag	0.67704 0.74786 0.13275 0.51400
C 	C 	0.87630 0.74300 0.49760 0.10000
C 	C 	0.22200 0.36230 0.99080 -0.13400
H 	H 	0.20130 0.36590 0.95070 0.07500
C 	C 	0.76490 0.93500 0.61170 0.07500
H 	H 	0.78680 0.94170 0.65150 -0.00500
C 	C 	0.40220 0.53000 0.99900 0.09800
C 	C 	0.70190 0.91580 0.49510 -0.12600
H 	H 	0.67960 0.91140 0.45510 0.08200
C 	C 	0.96690 0.68780 0.58890 -0.13200
H 	H 	0.94550 0.70920 0.61010 0.07900
C 	C 	0.55630 0.65700 0.03510 0.07700
H 	H 	0.57640 0.68520 0.01520 -0.00700
C 	C 	0.49660 0.61650 0.00350 -0.12300
H 	H 	0.47700 0.61790 0.96330 0.08100
C 	C 	0.94000 0.69780 0.52980 0.05500
C 	C 	0.79010 0.77310 0.41230 0.10200
C 	C 	0.32110 0.54390 0.81870 -0.12800
H 	H 	0.36520 0.56150 0.83860 0.07900
C 	C 	0.28020 0.34800 0.10790 0.05000
H 	H 	0.30020 0.34370 0.14800 -0.01800
C 	C 	0.31750 0.44820 0.99320 0.09000
C 	C 	0.46660 0.57380 0.03290 0.06400
C 	C 	0.31950 0.49790 0.91170 0.09600
C 	C 	0.75640 0.76260 0.34830 0.05900
C 	C 	0.97390 0.66440 0.50000 -0.13400
H 	H 	0.95660 0.66910 0.46010 0.07300
C 	C 	0.28450 0.39890 0.02240 0.05700
C 	C 	0.67410 0.95910 0.52590 0.07800
H 	H 	0.63190 0.98230 0.50570 -0.00800
C 	C 	0.31430 0.39040 0.08150 -0.12600
H 	H 	0.35640 0.41260 0.10340 0.07700
C 	C 	0.19150 0.32030 0.02060 0.06900
H 	H 	0.14990 0.29640 0.99950 -0.00900
C 	C 	0.02650 0.64530 0.61590 0.05600
H 	H 	0.04360 0.63710 0.65550 -0.01300
C 	C 	0.76410 0.87900 0.52550 0.06500
C 	C 	0.03320 0.62460 0.53040 0.05900
H 	H 	0.05570 0.60270 0.51010 -0.01300
C 	C 	0.79460 0.82790 0.49490 0.10400
C 	C 	0.79610 0.88990 0.58480 -0.12700
H 	H 	0.83820 0.86710 0.60610 0.08300
C 	C 	0.19240 0.49510 0.75750 0.06600
H 	H 	0.14810 0.47850 0.73680 -0.02100
C 	C 	0.49760 0.57310 0.09280 -0.13200
H 	H 	0.47950 0.54370 0.11380 0.07900
C 	C 	0.55620 0.61700 0.12040 0.07600
H 	H 	0.57570 0.61850 0.16050 -0.00300
C 	C 	0.78430 0.71090 0.32180 -0.13100
H 	H 	0.82250 0.68070 0.34360 0.06900
C 	C 	0.69770 0.80250 0.31510 -0.13400
H 	H 	0.67620 0.83500 0.33190 0.08200
C 	C 	0.67170 0.79260 0.25570 0.07400
H 	H 	0.63220 0.82020 0.23310 -0.01500
C 	C 	0.28770 0.50760 0.84800 0.05100
C 	C 	0.22190 0.48330 0.81680 -0.13700
H 	H 	0.19790 0.45950 0.83520 0.07300
C 	C 	0.28770 0.55330 0.75940 0.06900
H 	H 	0.31040 0.57750 0.74000 -0.01000
C 	C 	0.75460 0.70490 0.26260 0.06400
H 	H 	0.77390 0.67030 0.24510 -0.01300
N 	N 	0.06070 0.61530 0.58778 -0.20800
N 	N 	0.70450 0.96950 0.58323 -0.18800
N 	N 	0.69920 0.74640 0.22886 -0.19500
N 	N 	0.84690 0.73180 0.44072 -0.14300
N 	N 	0.85200 0.78990 0.52740 -0.13800
N 	N 	0.76170 0.82220 0.43694 -0.13700
N 	N 	0.58660 0.65770 0.09275 -0.18400
N 	N 	0.21980 0.31300 0.07837 -0.20200
N 	N 	0.22390 0.52890 0.72841 -0.19500
N 	N 	0.37720 0.53730 0.94119 -0.13600
N 	N 	0.37367 0.48870 0.02696 -0.13800
N 	N 	0.28850 0.45030 0.93519 -0.14700
Ag	Ag	0.65593 0.04256 0.63217 0.51000
Ag	Ag	0.17704 0.24786 0.13275 0.51300
C 	C 	0.37630 0.24300 0.49760 0.10000
C 	C 	0.72200 0.86230 0.99080 -0.13800
H 	H 	0.70130 0.86590 0.95070 0.07700
C 	C 	0.26490 0.43500 0.61170 0.07500
H 	H 	0.28680 0.44170 0.65150 -0.00500
C 	C 	0.90220 0.03000 0.99900 0.09700
C 	C 	0.20190 0.41580 0.49510 -0.12600
H 	H 	0.17960 0.41140 0.45510 0.08200
C 	C 	0.46690 0.18780 0.58890 -0.13200
H 	H 	0.44550 0.20920 0.61010 0.07900
C 	C 	0.05630 0.15700 0.03510 0.07300
H 	H 	0.07640 0.18520 0.01520 -0.00600
C 	C 	0.99660 0.11650 0.00350 -0.11800
H 	H 	0.97700 0.11790 0.96330 0.07900
C 	C 	0.44000 0.19780 0.52980 0.05500
C 	C 	0.29010 0.27310 0.41230 0.10200
C 	C 	0.82110 0.04390 0.81870 -0.12800
H 	H 	0.86520 0.06150 0.83860 0.07900
C 	C 	0.78020 0.84800 0.10790 0.05200
H 	H 	0.80020 0.84370 0.14800 -0.01900
C 	C 	0.81750 0.94820 0.99320 0.08800
C 	C 	0.96660 0.07380 0.03290 0.06300
C 	C 	0.81950 0.99790 0.91170 0.09700
C 	C 	0.25640 0.26260 0.34830 0.05900
C 	C 	0.47390 0.16440 0.50000 -0.13400
H 	H 	0.45660 0.16910 0.46010 0.07300
C 	C 	0.78450 0.89890 0.02240 0.06100
C 	C 	0.17410 0.45910 0.52590 0.07800
H 	H 	0.13190 0.48230 0.50570 -0.00800
C 	C 	0.81430 0.89040 0.08150 -0.12900
H 	H 	0.85640 0.91260 0.10340 0.07800
C 	C 	0.69150 0.82030 0.02060 0.07300
H 	H 	0.64990 0.79640 0.99950 -0.01100
C 	C 	0.52650 0.14530 0.61590 0.05600
H 	H 	0.54360 0.13710 0.65550 -0.01300
C 	C 	0.26410 0.37900 0.52550 0.06500
C 	C 	0.53320 0.12460 0.53040 0.05900
H 	H 	0.55570 0.10270 0.51010 -0.01300
C 	C 	0.29460 0.32790 0.49490 0.10400
C 	C 	0.29610 0.38990 0.58480 -0.12700
H 	H 	0.33820 0.36710 0.60610 0.08300
C 	C 	0.69240 0.99510 0.75750 0.06600
H 	H 	0.64810 0.97850 0.73680 -0.02100
C 	C 	0.99760 0.07310 0.09280 -0.13000
H 	H 	0.97950 0.04370 0.11380 0.07800
C 	C 	0.05620 0.11700 0.12040 0.07400
H 	H 	0.07570 0.11850 0.16050 -0.00200
C 	C 	0.28430 0.21090 0.32180 -0.13200
H 	H 	0.32250 0.18070 0.34360 0.06900
C 	C 	0.19770 0.30250 0.31510 -0.13400
H 	H 	0.17620 0.33500 0.33190 0.08200
C 	C 	0.17170 0.29260 0.25570 0.07400
H 	H 	0.13220 0.32020 0.23310 -0.01500
C 	C 	0.78770 0.00760 0.84800 0.05100
C 	C 	0.72190 0.98330 0.81680 -0.13600
H 	H 	0.69790 0.95950 0.83520 0.07300
C 	C 	0.78770 0.05330 0.75940 0.06800
H 	H 	0.81040 0.07750 0.74000 -0.01000
C 	C 	0.25460 0.20490 0.26260 0.06400
H 	H 	0.27390 0.17030 0.24510 -0.01300
N 	N 	0.56070 0.11530 0.58778 -0.20800
N 	N 	0.20450 0.46950 0.58323 -0.18800
N 	N 	0.19920 0.24640 0.22886 -0.19500
N 	N 	0.34690 0.23180 0.44072 -0.14300
N 	N 	0.35200 0.28990 0.52740 -0.13800
N 	N 	0.26170 0.32220 0.43694 -0.13700
N 	N 	0.08660 0.15770 0.09275 -0.18300
N 	N 	0.71980 0.81300 0.07837 -0.20300
N 	N 	0.72390 0.02890 0.72841 -0.19500
N 	N 	0.87720 0.03730 0.94119 -0.13600
N 	N 	0.87367 0.98870 0.02696 -0.13700
N 	N 	0.78850 0.95030 0.93519 -0.14700
Ag	Ag	0.84407 0.54256 0.86783 0.51000
Ag	Ag	0.32296 0.74786 0.36725 0.51300
C 	C 	0.12370 0.74300 0.00240 0.10400
C 	C 	0.77800 0.36230 0.50920 -0.12100
H 	H 	0.79870 0.36590 0.54930 0.07100
C 	C 	0.23510 0.93500 0.88830 0.07200
H 	H 	0.21320 0.94170 0.84850 -0.00400
C 	C 	0.59780 0.53000 0.50100 0.10100
C 	C 	0.29810 0.91580 0.00490 -0.11700
H 	H 	0.32040 0.91140 0.04490 0.08000
C 	C 	0.03310 0.68780 0.91110 -0.12600
H 	H 	0.05450 0.70920 0.88990 0.07700
C 	C 	0.44370 0.65700 0.46490 0.07900
H 	H 	0.42360 0.68520 0.48480 -0.00900
C 	C 	0.50340 0.61650 0.49650 -0.12800
H 	H 	0.52300 0.61790 0.53670 0.08400
C 	C 	0.06000 0.69780 0.97020 0.04800
C 	C 	0.20990 0.77310 0.08770 0.10300
C 	C 	0.67890 0.54390 0.68130 -0.12800
H 	H 	0.63480 0.56150 0.66140 0.07900
C 	C 	0.71980 0.34800 0.39210 0.04700
H 	H 	0.69980 0.34370 0.35200 -0.01700
C 	C 	0.68250 0.44820 0.50680 0.09600
C 	C 	0.53340 0.57380 0.46710 0.06300
C 	C 	0.68050 0.49790 0.58830 0.09600
C 	C 	0.24360 0.76260 0.15170 0.05900
C 	C 	0.02610 0.66440 -0.00000 -0.12500
H 	H 	0.04340 0.66910 0.03990 0.07000
C 	C 	0.71550 0.39890 0.47760 0.04700
C 	C 	0.32590 0.95910 0.97410 0.07200
H 	H 	0.36810 0.98230 0.99430 -0.00700
C 	C 	0.68570 0.39040 0.41850 -0.12000
H 	H 	0.64360 0.41260 0.39660 0.07500
C 	C 	0.80850 0.32030 0.47940 0.05800
H 	H 	0.85010 0.29640 0.50050 -0.00400
C 	C 	0.97350 0.64530 0.88410 0.05200
H 	H 	0.95640 0.63710 0.84450 -0.01200
C 	C 	0.23590 0.87900 0.97450 0.05800
C 	C 	0.96680 0.62460 0.96960 0.05200
H 	H 	0.94430 0.60270 0.98990 -0.01200
C 	C 	0.20540 0.82790 0.00510 0.10800
C 	C 	0.20390 0.88990 0.91520 -0.12200
H 	H 	0.16180 0.86710 0.89390 0.08100
C 	C 	0.80760 0.49510 0.74250 0.06600
H 	H 	0.85190 0.47850 0.76320 -0.02100
C 	C 	0.50240 0.57310 0.40720 -0.13200
H 	H 	0.52050 0.54370 0.38620 0.07900
C 	C 	0.44380 0.61700 0.37960 0.07600
H 	H 	0.42430 0.61850 0.33950 -0.00300
C 	C 	0.21570 0.71090 0.17820 -0.13100
H 	H 	0.17750 0.68070 0.15640 0.06900
C 	C 	0.30230 0.80250 0.18490 -0.13400
H 	H 	0.32380 0.83500 0.16810 0.08200
C 	C 	0.32830 0.79260 0.24430 0.07500
H 	H 	0.36780 0.82020 0.26690 -0.01500
C 	C 	0.71230 0.50760 0.65200 0.05100
C 	C 	0.77810 0.48330 0.68320 -0.13700
H 	H 	0.80210 0.45950 0.66480 0.07300
C 	C 	0.71230 0.55330 0.74060 0.06900
H 	H 	0.68960 0.57750 0.76000 -0.01000
C 	C 	0.24540 0.70490 0.23740 0.06400
H 	H 	0.22610 0.67030 0.25490 -0.01300
N 	N 	0.93930 0.61530 0.91222 -0.20600
N 	N 	0.29550 0.96950 0.91677 -0.18700
N 	N 	0.30080 0.74640 0.27114 -0.19500
N 	N 	0.15310 0.73180 0.05928 -0.14300
N 	N 	0.14800 0.78990 0.97260 -0.14000
N 	N 	0.23830 0.82220 0.06306 -0.13800
N 	N 	0.41340 0.65770 0.40725 -0.18400
N 	N 	0.78020 0.31300 0.42163 -0.20000
N 	N 	0.77610 0.52890 0.77159 -0.19500
N 	N 	0.62280 0.53730 0.55881 -0.13600
N 	N 	0.62633 0.48870 0.47304 -0.14100
N 	N 	0.71150 0.45030 0.56481 -0.14800
Ag	Ag	0.34407 0.04256 0.86783 0.51000
Ag	Ag	0.82296 0.24786 0.36725 0.51300
C 	C 	0.62370 0.24300 0.00240 0.10800
C 	C 	0.27800 0.86230 0.50920 -0.12100
H 	H 	0.29870 0.86590 0.54930 0.07100
C 	C 	0.73510 0.43500 0.88830 0.07000
H 	H 	0.71320 0.44170 0.84850 -0.00400
C 	C 	0.09780 0.03000 0.50100 0.10100
C 	C 	0.79810 0.41580 0.00490 -0.11000
H 	H 	0.82040 0.41140 0.04490 0.07800
C 	C 	0.53310 0.18780 0.91110 -0.12400
H 	H 	0.55450 0.20920 0.88990 0.07600
C 	C 	0.94370 0.15700 0.46490 0.07900
H 	H 	0.92360 0.18520 0.48480 -0.00900
C 	C 	0.00340 0.11650 0.49650 -0.12800
H 	H 	0.02300 0.11790 0.53670 0.08400
C 	C 	0.56000 0.19780 0.97020 0.04300
C 	C 	0.70990 0.27310 0.08770 0.10300
C 	C 	0.17890 0.04390 0.68130 -0.12800
H 	H 	0.13480 0.06150 0.66140 0.07900
C 	C 	0.21980 0.84800 0.39210 0.04700
H 	H 	0.19980 0.84370 0.35200 -0.01700
C 	C 	0.18250 0.94820 0.50680 0.09600
C 	C 	0.03340 0.07380 0.46710 0.06300
C 	C 	0.18050 0.99790 0.58830 0.09700
C 	C 	0.74360 0.26260 0.15170 0.05900
C 	C 	0.52610 0.16440 -0.00000 -0.12000
H 	H 	0.54340 0.16910 0.03990 0.06800
C 	C 	0.21550 0.89890 0.47760 0.04700
C 	C 	0.82590 0.45910 0.97410 0.06700
H 	H 	0.86810 0.48230 0.99430 -0.00600
C 	C 	0.18570 0.89040 0.41850 -0.12000
H 	H 	0.14360 0.91260 0.39660 0.07400
C 	C 	0.30850 0.82030 0.47940 0.05800
H 	H 	0.35010 0.79640 0.50050 -0.00400
C 	C 	0.47350 0.14530 0.88410 0.05100
H 	H 	0.45640 0.13710 0.84450 -0.01100
C 	C 	0.73590 0.37900 0.97450 0.05200
C 	C 	0.46680 0.12460 0.96960 0.04900
H 	H 	0.44430 0.10270 0.98990 -0.01100
C 	C 	0.70540 0.32790 0.00510 0.11200
C 	C 	0.70390 0.38990 0.91520 -0.11900
H 	H 	0.66180 0.36710 0.89390 0.08000
C 	C 	0.30760 0.99510 0.74250 0.06600
H 	H 	0.35190 0.97850 0.76320 -0.02100
C 	C 	0.00240 0.07310 0.40720 -0.13300
H 	H 	0.02050 0.04370 0.38620 0.07900
C 	C 	0.94380 0.11700 0.37960 0.07700
H 	H 	0.92430 0.11850 0.33950 -0.00300
C 	C 	0.71570 0.21090 0.17820 -0.13100
H 	H 	0.67750 0.18070 0.15640 0.07000
C 	C 	0.80230 0.30250 0.18490 -0.13400
H 	H 	0.82380 0.33500 0.16810 0.08200
C 	C 	0.82830 0.29260 0.24430 0.07500
H 	H 	0.86780 0.32020 0.26690 -0.01500
C 	C 	0.21230 0.00760 0.65200 0.05100
C 	C 	0.27810 0.98330 0.68320 -0.13700
H 	H 	0.30210 0.95950 0.66480 0.07300
C 	C 	0.21230 0.05330 0.74060 0.06900
H 	H 	0.18960 0.07750 0.76000 -0.01000
C 	C 	0.74540 0.20490 0.23740 0.06400
H 	H 	0.72610 0.17030 0.25490 -0.01300
N 	N 	0.43930 0.11530 0.91222 -0.20500
N 	N 	0.79550 0.46950 0.91677 -0.18600
N 	N 	0.80080 0.24640 0.27114 -0.19500
N 	N 	0.65310 0.23180 0.05928 -0.14400
N 	N 	0.64800 0.28990 0.97260 -0.14200
N 	N 	0.73830 0.32220 0.06306 -0.13900
N 	N 	0.91340 0.15770 0.40725 -0.18400
N 	N 	0.28020 0.81300 0.42163 -0.20000
N 	N 	0.27610 0.02890 0.77159 -0.19500
N 	N 	0.12280 0.03730 0.55881 -0.13600
N 	N 	0.12633 0.98870 0.47304 -0.14100
N 	N 	0.21150 0.95030 0.56481 -0.14800
