data_crystal

_cell_length_a 21.95040
_cell_length_b 16.70950
_cell_length_c 25.61280
_cell_angle_alpha 90.00000
_cell_angle_beta  115.36600
_cell_angle_gamma 90.00000

_symmetry_space_group_name_	'P 1'
_symmetry_space_group_name_H-M	'P 1'

loop_
_symmetry_equiv_pos_as_xyz
  x,y,z

loop_
_atom_site_label
_atom_site_type_symbol
_atom_site_fract_x
_atom_site_fract_y
_atom_site_fract_z
_atom_site_charge
Ag	Ag	0.27363 0.20879 0.86794 0.50900
Ag	Ag	0.79557 0.50313 0.36744 0.51200
C 	C 	0.65310 0.71980 0.50030 0.10000
C 	C 	0.42220 0.89950 0.39190 0.04800
H 	H 	0.40140 0.90250 0.35180 -0.01900
C 	C 	0.62760 0.56110 0.91060 -0.14200
H 	H 	0.58490 0.53970 0.88920 0.08100
C 	C 	0.62750 0.50670 0.00170 0.10000
C 	C 	0.57460 0.80160 0.50600 0.09500
C 	C 	0.77070 0.59350 0.46460 0.08100
H 	H 	0.81080 0.56590 0.48480 -0.01100
C 	C 	0.48190 0.88730 0.50870 -0.12800
H 	H 	0.50130 0.88420 0.54880 0.07100
C 	C 	0.40290 0.31590 0.88880 0.07300
H 	H 	0.38470 0.30950 0.84890 -0.00600
C 	C 	0.74280 0.63390 0.49560 -0.13300
H 	H 	0.76340 0.63310 0.53580 0.08500
C 	C 	0.65890 0.55150 0.96900 0.06100
C 	C 	0.72240 0.58510 0.99820 -0.14400
H 	H 	0.74530 0.58040 0.03810 0.07600
C 	C 	0.68360 0.67590 0.46630 0.06600
C 	C 	0.62690 0.47530 0.08720 0.10200
C 	C 	0.65810 0.48580 0.15050 0.05600
C 	C 	0.48190 0.85840 0.41800 -0.12400
H 	H 	0.50160 0.83620 0.39570 0.07500
C 	C 	0.54960 0.42250 0.00460 0.10500
C 	C 	0.68990 0.74200 0.65150 0.06000
C 	C 	0.45720 0.33410 0.00530 -0.12600
H 	H 	0.47510 0.33760 0.04540 0.08200
C 	C 	0.75100 0.62480 0.96810 0.06700
H 	H 	0.79370 0.64650 0.98860 -0.01700
C 	C 	0.46070 0.36090 0.91490 -0.12500
H 	H 	0.48090 0.38330 0.89300 0.08200
C 	C 	0.75180 0.70710 0.68000 -0.13600
H 	H 	0.77580 0.68950 0.65980 0.08200
C 	C 	0.66050 0.60300 0.88420 0.06600
H 	H 	0.63820 0.60980 0.84440 -0.01500
C 	C 	0.77830 0.69820 0.73960 0.07300
H 	H 	0.82020 0.67380 0.75860 -0.01100
C 	C 	0.39900 0.29090 0.97430 0.08100
H 	H 	0.37770 0.26710 0.99490 -0.01000
C 	C 	0.65610 0.76770 0.68330 -0.14900
H 	H 	0.61400 0.79180 0.66540 0.07600
C 	C 	0.65830 0.75150 0.58720 0.09700
C 	C 	0.51240 0.85000 0.47690 0.04900
C 	C 	0.65500 0.67510 0.40700 -0.13400
H 	H 	0.61580 0.70390 0.38590 0.07900
C 	C 	0.68640 0.75670 0.74190 0.07800
H 	H 	0.66330 0.77400 0.76290 -0.02500
C 	C 	0.71240 0.53700 0.17730 -0.12800
H 	H 	0.72900 0.56670 0.15550 0.06900
C 	C 	0.48850 0.37250 0.97450 0.06300
C 	C 	0.42210 0.92910 0.47900 0.06600
H 	H 	0.40190 0.95360 0.50020 -0.00600
C 	C 	0.74150 0.54330 0.23660 0.06100
H 	H 	0.77760 0.57820 0.25400 -0.01300
C 	C 	0.63300 0.44600 0.18440 -0.13500
H 	H 	0.59440 0.41470 0.16810 0.08200
C 	C 	0.66770 0.45460 0.24380 0.07900
H 	H 	0.65260 0.42480 0.26670 -0.01700
C 	C 	0.68530 0.63100 0.37900 0.07700
H 	H 	0.66420 0.62860 0.33890 -0.00300
N 	N 	0.37150 0.28090 0.91750 -0.19000
N 	N 	0.72160 0.63450 0.91110 -0.21100
N 	N 	0.72030 0.50140 0.27060 -0.19400
N 	N 	0.57390 0.46100 0.97210 -0.13900
N 	N 	0.65570 0.51710 0.05830 -0.14200
N 	N 	0.57490 0.42720 0.06260 -0.13800
N 	N 	0.74360 0.59140 0.40680 -0.18500
N 	N 	0.74630 0.72320 0.77100 -0.19700
N 	N 	0.39220 0.93580 0.42200 -0.20100
N 	N 	0.59730 0.76110 0.47290 -0.14100
N 	N 	0.68580 0.71290 0.55830 -0.13800
N 	N 	0.60350 0.79880 0.56390 -0.14800
Ag	Ag	0.77363 0.70879 0.86794 0.51000
Ag	Ag	0.29557 0.00313 0.36744 0.51300
C 	C 	0.15310 0.21980 0.50030 0.10100
C 	C 	0.92220 0.39950 0.39190 0.04800
H 	H 	0.90140 0.40250 0.35180 -0.01800
C 	C 	0.12760 0.06110 0.91060 -0.14100
H 	H 	0.08490 0.03970 0.88920 0.08200
C 	C 	0.12750 0.00670 0.00170 0.09900
C 	C 	0.07460 0.30160 0.50600 0.09600
C 	C 	0.27070 0.09350 0.46460 0.08200
H 	H 	0.31080 0.06590 0.48480 -0.01000
C 	C 	0.98190 0.38730 0.50870 -0.12700
H 	H 	0.00130 0.38420 0.54880 0.07200
C 	C 	0.90290 0.81590 0.88880 0.07300
H 	H 	0.88470 0.80950 0.84890 -0.00500
C 	C 	0.24280 0.13390 0.49560 -0.13200
H 	H 	0.26340 0.13310 0.53580 0.08600
C 	C 	0.15890 0.05150 0.96900 0.06300
C 	C 	0.22240 0.08510 0.99820 -0.14200
H 	H 	0.24530 0.08040 0.03810 0.07500
C 	C 	0.18360 0.17590 0.46630 0.06600
C 	C 	0.12690 0.97530 0.08720 0.10200
C 	C 	0.15810 0.98580 0.15050 0.05700
C 	C 	0.98190 0.35840 0.41800 -0.12300
H 	H 	0.00160 0.33620 0.39570 0.07500
C 	C 	0.04960 0.92250 0.00460 0.10500
C 	C 	0.18990 0.24200 0.65150 0.06000
C 	C 	0.95720 0.83410 0.00530 -0.12300
H 	H 	0.97510 0.83760 0.04540 0.08100
C 	C 	0.25100 0.12480 0.96810 0.06600
H 	H 	0.29370 0.14650 0.98860 -0.01600
C 	C 	0.96070 0.86090 0.91490 -0.12400
H 	H 	0.98090 0.88330 0.89300 0.08100
C 	C 	0.25180 0.20710 0.68000 -0.13600
H 	H 	0.27580 0.18950 0.65980 0.08200
C 	C 	0.16050 0.10300 0.88420 0.06600
H 	H 	0.13820 0.10980 0.84440 -0.01500
C 	C 	0.27830 0.19820 0.73960 0.07300
H 	H 	0.32020 0.17380 0.75860 -0.01100
C 	C 	0.89900 0.79090 0.97430 0.07900
H 	H 	0.87770 0.76710 0.99490 -0.00900
C 	C 	0.15610 0.26770 0.68330 -0.14900
H 	H 	0.11400 0.29180 0.66540 0.07600
C 	C 	0.15830 0.25150 0.58720 0.09700
C 	C 	0.01240 0.35000 0.47690 0.04900
C 	C 	0.15500 0.17510 0.40700 -0.13400
H 	H 	0.11580 0.20390 0.38590 0.07900
C 	C 	0.18640 0.25670 0.74190 0.07800
H 	H 	0.16330 0.27400 0.76290 -0.02500
C 	C 	0.21240 0.03700 0.17730 -0.12800
H 	H 	0.22900 0.06670 0.15550 0.06900
C 	C 	0.98850 0.87250 0.97450 0.06000
C 	C 	0.92210 0.42910 0.47900 0.06600
H 	H 	0.90190 0.45360 0.50020 -0.00700
C 	C 	0.24150 0.04330 0.23660 0.06100
H 	H 	0.27760 0.07820 0.25400 -0.01300
C 	C 	0.13300 0.94600 0.18440 -0.13500
H 	H 	0.09440 0.91470 0.16810 0.08200
C 	C 	0.16770 0.95460 0.24380 0.07900
H 	H 	0.15260 0.92480 0.26670 -0.01700
C 	C 	0.18530 0.13100 0.37900 0.07700
H 	H 	0.16420 0.12860 0.33890 -0.00300
N 	N 	0.87150 0.78090 0.91750 -0.18900
N 	N 	0.22160 0.13450 0.91110 -0.21000
N 	N 	0.22030 0.00140 0.27060 -0.19400
N 	N 	0.07390 0.96100 0.97210 -0.13800
N 	N 	0.15570 0.01710 0.05830 -0.14200
N 	N 	0.07490 0.92720 0.06260 -0.13800
N 	N 	0.24360 0.09140 0.40680 -0.18500
N 	N 	0.24630 0.22320 0.77100 -0.19700
N 	N 	0.89220 0.43580 0.42200 -0.20100
N 	N 	0.09730 0.26110 0.47290 -0.14100
N 	N 	0.18580 0.21290 0.55830 -0.13800
N 	N 	0.10350 0.29880 0.56390 -0.14800
Ag	Ag	0.72637 0.20879 0.63206 0.51000
Ag	Ag	0.20443 0.50313 0.13256 0.51300
C 	C 	0.34690 0.71980 0.99970 0.10100
C 	C 	0.57780 0.89950 0.10810 0.04900
H 	H 	0.59860 0.90250 0.14820 -0.01800
C 	C 	0.37240 0.56110 0.58940 -0.14100
H 	H 	0.41510 0.53970 0.61080 0.08200
C 	C 	0.37250 0.50670 0.49830 0.10100
C 	C 	0.42540 0.80160 0.99400 0.09600
C 	C 	0.22930 0.59350 0.03540 0.08200
H 	H 	0.18920 0.56590 0.01520 -0.01100
C 	C 	0.51810 0.88730 0.99130 -0.12800
H 	H 	0.49870 0.88420 0.95120 0.07300
C 	C 	0.59710 0.31590 0.61120 0.07400
H 	H 	0.61530 0.30950 0.65110 -0.00500
C 	C 	0.25720 0.63390 0.00440 -0.13400
H 	H 	0.23660 0.63310 0.96420 0.08600
C 	C 	0.34110 0.55150 0.53100 0.06200
C 	C 	0.27760 0.58510 0.50180 -0.14200
H 	H 	0.25470 0.58040 0.46190 0.07500
C 	C 	0.31640 0.67590 0.03370 0.06600
C 	C 	0.37310 0.47530 0.41280 0.10200
C 	C 	0.34190 0.48580 0.34950 0.05600
C 	C 	0.51810 0.85840 0.08200 -0.12400
H 	H 	0.49840 0.83620 0.10430 0.07500
C 	C 	0.45040 0.42250 0.49540 0.10500
C 	C 	0.31010 0.74200 0.84850 0.06000
C 	C 	0.54280 0.33410 0.49470 -0.12600
H 	H 	0.52490 0.33760 0.45460 0.08200
C 	C 	0.24900 0.62480 0.53190 0.06600
H 	H 	0.20630 0.64650 0.51140 -0.01600
C 	C 	0.53930 0.36090 0.58510 -0.12500
H 	H 	0.51910 0.38330 0.60700 0.08200
C 	C 	0.24820 0.70710 0.82000 -0.13600
H 	H 	0.22420 0.68950 0.84020 0.08200
C 	C 	0.33950 0.60300 0.61580 0.06600
H 	H 	0.36180 0.60980 0.65560 -0.01500
C 	C 	0.22170 0.69820 0.76040 0.07300
H 	H 	0.17980 0.67380 0.74140 -0.01100
C 	C 	0.60100 0.29090 0.52570 0.08100
H 	H 	0.62230 0.26710 0.50510 -0.00900
C 	C 	0.34390 0.76770 0.81670 -0.14900
H 	H 	0.38600 0.79180 0.83460 0.07600
C 	C 	0.34170 0.75150 0.91280 0.09700
C 	C 	0.48760 0.85000 0.02310 0.05000
C 	C 	0.34500 0.67510 0.09300 -0.13400
H 	H 	0.38420 0.70390 0.11410 0.07900
C 	C 	0.31360 0.75670 0.75810 0.07800
H 	H 	0.33670 0.77400 0.73710 -0.02500
C 	C 	0.28760 0.53700 0.32270 -0.12800
H 	H 	0.27100 0.56670 0.34450 0.06900
C 	C 	0.51150 0.37250 0.52550 0.06200
C 	C 	0.57790 0.92910 0.02100 0.06700
H 	H 	0.59810 0.95360 0.99980 -0.00700
C 	C 	0.25850 0.54330 0.26340 0.06100
H 	H 	0.22240 0.57820 0.24600 -0.01300
C 	C 	0.36700 0.44600 0.31560 -0.13500
H 	H 	0.40560 0.41470 0.33190 0.08200
C 	C 	0.33230 0.45460 0.25620 0.07900
H 	H 	0.34740 0.42480 0.23330 -0.01700
C 	C 	0.31470 0.63100 0.12100 0.07700
H 	H 	0.33580 0.62860 0.16110 -0.00300
N 	N 	0.62850 0.28090 0.58250 -0.19000
N 	N 	0.27840 0.63450 0.58890 -0.21000
N 	N 	0.27970 0.50140 0.22940 -0.19400
N 	N 	0.42610 0.46100 0.52790 -0.13900
N 	N 	0.34430 0.51710 0.44170 -0.14200
N 	N 	0.42510 0.42720 0.43740 -0.13800
N 	N 	0.25640 0.59140 0.09320 -0.18500
N 	N 	0.25370 0.72320 0.72900 -0.19700
N 	N 	0.60780 0.93580 0.07800 -0.20100
N 	N 	0.40270 0.76110 0.02710 -0.14100
N 	N 	0.31420 0.71290 0.94170 -0.13800
N 	N 	0.39650 0.79880 0.93610 -0.14800
Ag	Ag	0.22637 0.70879 0.63206 0.51000
Ag	Ag	0.70443 0.00313 0.13256 0.51300
C 	C 	0.84690 0.21980 0.99970 0.10000
C 	C 	0.07780 0.39950 0.10810 0.04900
H 	H 	0.09860 0.40250 0.14820 -0.01800
C 	C 	0.87240 0.06110 0.58940 -0.14100
H 	H 	0.91510 0.03970 0.61080 0.08200
C 	C 	0.87250 0.00670 0.49830 0.10100
C 	C 	0.92540 0.30160 0.99400 0.09500
C 	C 	0.72930 0.09350 0.03540 0.08200
H 	H 	0.68920 0.06590 0.01520 -0.01000
C 	C 	0.01810 0.38730 0.99130 -0.12400
H 	H 	0.99870 0.38420 0.95120 0.07100
C 	C 	0.09710 0.81590 0.61120 0.07400
H 	H 	0.11530 0.80950 0.65110 -0.00500
C 	C 	0.75720 0.13390 0.00440 -0.13300
H 	H 	0.73660 0.13310 0.96420 0.08500
C 	C 	0.84110 0.05150 0.53100 0.06200
C 	C 	0.77760 0.08510 0.50180 -0.14200
H 	H 	0.75470 0.08040 0.46190 0.07500
C 	C 	0.81640 0.17590 0.03370 0.06700
C 	C 	0.87310 0.97530 0.41280 0.10200
C 	C 	0.84190 0.98580 0.34950 0.05700
C 	C 	0.01810 0.35840 0.08200 -0.12600
H 	H 	0.99840 0.33620 0.10430 0.07600
C 	C 	0.95040 0.92250 0.49540 0.10500
C 	C 	0.81010 0.24200 0.84850 0.06000
C 	C 	0.04280 0.83410 0.49470 -0.12600
H 	H 	0.02490 0.83760 0.45460 0.08200
C 	C 	0.74900 0.12480 0.53190 0.06600
H 	H 	0.70630 0.14650 0.51140 -0.01600
C 	C 	0.03930 0.86090 0.58510 -0.12500
H 	H 	0.01910 0.88330 0.60700 0.08200
C 	C 	0.74820 0.20710 0.82000 -0.13600
H 	H 	0.72420 0.18950 0.84020 0.08200
C 	C 	0.83950 0.10300 0.61580 0.06600
H 	H 	0.86180 0.10980 0.65560 -0.01500
C 	C 	0.72170 0.19820 0.76040 0.07300
H 	H 	0.67980 0.17380 0.74140 -0.01100
C 	C 	0.10100 0.79090 0.52570 0.08100
H 	H 	0.12230 0.76710 0.50510 -0.00900
C 	C 	0.84390 0.26770 0.81670 -0.14900
H 	H 	0.88600 0.29180 0.83460 0.07600
C 	C 	0.84170 0.25150 0.91280 0.09700
C 	C 	0.98760 0.35000 0.02310 0.05000
C 	C 	0.84500 0.17510 0.09300 -0.13400
H 	H 	0.88420 0.20390 0.11410 0.07900
C 	C 	0.81360 0.25670 0.75810 0.07800
H 	H 	0.83670 0.27400 0.73710 -0.02500
C 	C 	0.78760 0.03700 0.32270 -0.12800
H 	H 	0.77100 0.06670 0.34450 0.06900
C 	C 	0.01150 0.87250 0.52550 0.06200
C 	C 	0.07790 0.42910 0.02100 0.06300
H 	H 	0.09810 0.45360 0.99980 -0.00500
C 	C 	0.75850 0.04330 0.26340 0.06100
H 	H 	0.72240 0.07820 0.24600 -0.01300
C 	C 	0.86700 0.94600 0.31560 -0.13500
H 	H 	0.90560 0.91470 0.33190 0.08300
C 	C 	0.83230 0.95460 0.25620 0.07900
H 	H 	0.84740 0.92480 0.23330 -0.01700
C 	C 	0.81470 0.13100 0.12100 0.07700
H 	H 	0.83580 0.12860 0.16110 -0.00300
N 	N 	0.12850 0.78090 0.58250 -0.19000
N 	N 	0.77840 0.13450 0.58890 -0.21000
N 	N 	0.77970 0.00140 0.22940 -0.19400
N 	N 	0.92610 0.96100 0.52790 -0.13900
N 	N 	0.84430 0.01710 0.44170 -0.14200
N 	N 	0.92510 0.92720 0.43740 -0.13800
N 	N 	0.75640 0.09140 0.09320 -0.18500
N 	N 	0.75370 0.22320 0.72900 -0.19700
N 	N 	0.10780 0.43580 0.07800 -0.20100
N 	N 	0.90270 0.26110 0.02710 -0.14100
N 	N 	0.81420 0.21290 0.94170 -0.13800
N 	N 	0.89650 0.29880 0.93610 -0.14800
Ag	Ag	0.72637 0.79121 0.13206 0.51000
Ag	Ag	0.20443 0.49687 0.63256 0.51300
C 	C 	0.34690 0.28020 0.49970 0.10100
C 	C 	0.57780 0.10050 0.60810 0.04900
H 	H 	0.59860 0.09750 0.64820 -0.01800
C 	C 	0.37240 0.43890 0.08940 -0.14100
H 	H 	0.41510 0.46030 0.11080 0.08200
C 	C 	0.37250 0.49330 0.99830 0.10100
C 	C 	0.42540 0.19840 0.49400 0.09600
C 	C 	0.22930 0.40650 0.53540 0.08200
H 	H 	0.18920 0.43410 0.51520 -0.01000
C 	C 	0.51810 0.11270 0.49130 -0.12700
H 	H 	0.49870 0.11580 0.45120 0.07200
C 	C 	0.59710 0.68410 0.11120 0.07400
H 	H 	0.61530 0.69050 0.15110 -0.00500
C 	C 	0.25720 0.36610 0.50440 -0.13200
H 	H 	0.23660 0.36690 0.46420 0.08600
C 	C 	0.34110 0.44850 0.03100 0.06200
C 	C 	0.27760 0.41490 0.00180 -0.14400
H 	H 	0.25470 0.41960 0.96190 0.07600
C 	C 	0.31640 0.32410 0.53370 0.06600
C 	C 	0.37310 0.52470 0.91280 0.10200
C 	C 	0.34190 0.51420 0.84950 0.05600
C 	C 	0.51810 0.14160 0.58200 -0.12400
H 	H 	0.49840 0.16380 0.60430 0.07500
C 	C 	0.45040 0.57750 0.99540 0.10500
C 	C 	0.31010 0.25800 0.34850 0.06000
C 	C 	0.54280 0.66590 0.99470 -0.12600
H 	H 	0.52490 0.66240 0.95460 0.08200
C 	C 	0.24900 0.37520 0.03190 0.06700
H 	H 	0.20630 0.35350 0.01140 -0.01700
C 	C 	0.53930 0.63910 0.08510 -0.12500
H 	H 	0.51910 0.61670 0.10700 0.08200
C 	C 	0.24820 0.29290 0.32000 -0.13600
H 	H 	0.22420 0.31050 0.34020 0.08200
C 	C 	0.33950 0.39700 0.11580 0.06600
H 	H 	0.36180 0.39020 0.15560 -0.01500
C 	C 	0.22170 0.30180 0.26040 0.07300
H 	H 	0.17980 0.32620 0.24140 -0.01100
C 	C 	0.60100 0.70910 0.02570 0.08100
H 	H 	0.62230 0.73290 0.00510 -0.01000
C 	C 	0.34390 0.23230 0.31670 -0.14900
H 	H 	0.38600 0.20820 0.33460 0.07600
C 	C 	0.34170 0.24850 0.41280 0.09700
C 	C 	0.48760 0.15000 0.52310 0.04900
C 	C 	0.34500 0.32490 0.59300 -0.13400
H 	H 	0.38420 0.29610 0.61410 0.07900
C 	C 	0.31360 0.24330 0.25810 0.07800
H 	H 	0.33670 0.22600 0.23710 -0.02500
C 	C 	0.28760 0.46300 0.82270 -0.12800
H 	H 	0.27100 0.43330 0.84450 0.06900
C 	C 	0.51150 0.62750 0.02550 0.06300
C 	C 	0.57790 0.07090 0.52100 0.06600
H 	H 	0.59810 0.04640 0.49980 -0.00600
C 	C 	0.25850 0.45670 0.76340 0.06100
H 	H 	0.22240 0.42180 0.74600 -0.01300
C 	C 	0.36700 0.55400 0.81560 -0.13500
H 	H 	0.40560 0.58530 0.83190 0.08200
C 	C 	0.33230 0.54540 0.75620 0.07900
H 	H 	0.34740 0.57520 0.73330 -0.01700
C 	C 	0.31470 0.36900 0.62100 0.07700
H 	H 	0.33580 0.37140 0.66110 -0.00300
N 	N 	0.62850 0.71910 0.08250 -0.19000
N 	N 	0.27840 0.36550 0.08890 -0.21100
N 	N 	0.27970 0.49860 0.72940 -0.19400
N 	N 	0.42610 0.53900 0.02790 -0.13900
N 	N 	0.34430 0.48290 0.94170 -0.14200
N 	N 	0.42510 0.57280 0.93740 -0.13800
N 	N 	0.25640 0.40860 0.59320 -0.18500
N 	N 	0.25370 0.27680 0.22900 -0.19700
N 	N 	0.60780 0.06420 0.57800 -0.20100
N 	N 	0.40270 0.23890 0.52710 -0.14100
N 	N 	0.31420 0.28710 0.44170 -0.13800
N 	N 	0.39650 0.20120 0.43610 -0.14800
Ag	Ag	0.22637 0.29121 0.13206 0.51000
Ag	Ag	0.70443 0.99687 0.63256 0.51300
C 	C 	0.84690 0.78020 0.49970 0.10100
C 	C 	0.07780 0.60050 0.60810 0.04800
H 	H 	0.09860 0.59750 0.64820 -0.01800
C 	C 	0.87240 0.93890 0.08940 -0.14100
H 	H 	0.91510 0.96030 0.11080 0.08200
C 	C 	0.87250 0.99330 0.99830 0.09900
C 	C 	0.92540 0.69840 0.49400 0.09600
C 	C 	0.72930 0.90650 0.53540 0.08200
H 	H 	0.68920 0.93410 0.51520 -0.01000
C 	C 	0.01810 0.61270 0.49130 -0.12700
H 	H 	0.99870 0.61580 0.45120 0.07200
C 	C 	0.09710 0.18410 0.11120 0.07300
H 	H 	0.11530 0.19050 0.15110 -0.00500
C 	C 	0.75720 0.86610 0.50440 -0.13200
H 	H 	0.73660 0.86690 0.46420 0.08600
C 	C 	0.84110 0.94850 0.03100 0.06300
C 	C 	0.77760 0.91490 0.00180 -0.14200
H 	H 	0.75470 0.91960 0.96190 0.07500
C 	C 	0.81640 0.82410 0.53370 0.06600
C 	C 	0.87310 0.02470 0.91280 0.10200
C 	C 	0.84190 0.01420 0.84950 0.05700
C 	C 	0.01810 0.64160 0.58200 -0.12300
H 	H 	0.99840 0.66380 0.60430 0.07500
C 	C 	0.95040 0.07750 0.99540 0.10500
C 	C 	0.81010 0.75800 0.34850 0.06000
C 	C 	0.04280 0.16590 0.99470 -0.12300
H 	H 	0.02490 0.16240 0.95460 0.08100
C 	C 	0.74900 0.87520 0.03190 0.06600
H 	H 	0.70630 0.85350 0.01140 -0.01600
C 	C 	0.03930 0.13910 0.08510 -0.12400
H 	H 	0.01910 0.11670 0.10700 0.08100
C 	C 	0.74820 0.79290 0.32000 -0.13600
H 	H 	0.72420 0.81050 0.34020 0.08200
C 	C 	0.83950 0.89700 0.11580 0.06600
H 	H 	0.86180 0.89020 0.15560 -0.01500
C 	C 	0.72170 0.80180 0.26040 0.07300
H 	H 	0.67980 0.82620 0.24140 -0.01100
C 	C 	0.10100 0.20910 0.02570 0.07900
H 	H 	0.12230 0.23290 0.00510 -0.00900
C 	C 	0.84390 0.73230 0.31670 -0.14900
H 	H 	0.88600 0.70820 0.33460 0.07600
C 	C 	0.84170 0.74850 0.41280 0.09700
C 	C 	0.98760 0.65000 0.52310 0.04900
C 	C 	0.84500 0.82490 0.59300 -0.13400
H 	H 	0.88420 0.79610 0.61410 0.07900
C 	C 	0.81360 0.74330 0.25810 0.07800
H 	H 	0.83670 0.72600 0.23710 -0.02500
C 	C 	0.78760 0.96300 0.82270 -0.12800
H 	H 	0.77100 0.93330 0.84450 0.06900
C 	C 	0.01150 0.12750 0.02550 0.06000
C 	C 	0.07790 0.57090 0.52100 0.06600
H 	H 	0.09810 0.54640 0.49980 -0.00700
C 	C 	0.75850 0.95670 0.76340 0.06100
H 	H 	0.72240 0.92180 0.74600 -0.01300
C 	C 	0.86700 0.05400 0.81560 -0.13500
H 	H 	0.90560 0.08530 0.83190 0.08200
C 	C 	0.83230 0.04540 0.75620 0.07900
H 	H 	0.84740 0.07520 0.73330 -0.01700
C 	C 	0.81470 0.86900 0.62100 0.07700
H 	H 	0.83580 0.87140 0.66110 -0.00300
N 	N 	0.12850 0.21910 0.08250 -0.18900
N 	N 	0.77840 0.86550 0.08890 -0.21000
N 	N 	0.77970 0.99860 0.72940 -0.19400
N 	N 	0.92610 0.03900 0.02790 -0.13800
N 	N 	0.84430 0.98290 0.94170 -0.14200
N 	N 	0.92510 0.07280 0.93740 -0.13800
N 	N 	0.75640 0.90860 0.59320 -0.18500
N 	N 	0.75370 0.77680 0.22900 -0.19700
N 	N 	0.10780 0.56420 0.57800 -0.20100
N 	N 	0.90270 0.73890 0.52710 -0.14100
N 	N 	0.81420 0.78710 0.44170 -0.13800
N 	N 	0.89650 0.70120 0.43610 -0.14800
Ag	Ag	0.27363 0.79121 0.36794 0.51000
Ag	Ag	0.79557 0.49687 0.86744 0.51300
C 	C 	0.65310 0.28020 0.00030 0.10100
C 	C 	0.42220 0.10050 0.89190 0.04900
H 	H 	0.40140 0.09750 0.85180 -0.01800
C 	C 	0.62760 0.43890 0.41060 -0.14100
H 	H 	0.58490 0.46030 0.38920 0.08200
C 	C 	0.62750 0.49330 0.50170 0.10100
C 	C 	0.57460 0.19840 0.00600 0.09600
C 	C 	0.77070 0.40650 0.96460 0.08200
H 	H 	0.81080 0.43410 0.98480 -0.01100
C 	C 	0.48190 0.11270 0.00870 -0.12800
H 	H 	0.50130 0.11580 0.04880 0.07300
C 	C 	0.40290 0.68410 0.38880 0.07400
H 	H 	0.38470 0.69050 0.34890 -0.00500
C 	C 	0.74280 0.36610 0.99560 -0.13400
H 	H 	0.76340 0.36690 0.03580 0.08600
C 	C 	0.65890 0.44850 0.46900 0.06200
C 	C 	0.72240 0.41490 0.49820 -0.14200
H 	H 	0.74530 0.41960 0.53810 0.07500
C 	C 	0.68360 0.32410 0.96630 0.06600
C 	C 	0.62690 0.52470 0.58720 0.10200
C 	C 	0.65810 0.51420 0.65050 0.05600
C 	C 	0.48190 0.14160 0.91800 -0.12400
H 	H 	0.50160 0.16380 0.89570 0.07500
C 	C 	0.54960 0.57750 0.50460 0.10500
C 	C 	0.68990 0.25800 0.15150 0.06000
C 	C 	0.45720 0.66590 0.50530 -0.12600
H 	H 	0.47510 0.66240 0.54540 0.08200
C 	C 	0.75100 0.37520 0.46810 0.06600
H 	H 	0.79370 0.35350 0.48860 -0.01600
C 	C 	0.46070 0.63910 0.41490 -0.12500
H 	H 	0.48090 0.61670 0.39300 0.08200
C 	C 	0.75180 0.29290 0.18000 -0.13600
H 	H 	0.77580 0.31050 0.15980 0.08200
C 	C 	0.66050 0.39700 0.38420 0.06600
H 	H 	0.63820 0.39020 0.34440 -0.01500
C 	C 	0.77830 0.30180 0.23960 0.07300
H 	H 	0.82020 0.32620 0.25860 -0.01100
C 	C 	0.39900 0.70910 0.47430 0.08100
H 	H 	0.37770 0.73290 0.49490 -0.00900
C 	C 	0.65610 0.23230 0.18330 -0.14900
H 	H 	0.61400 0.20820 0.16540 0.07600
C 	C 	0.65830 0.24850 0.08720 0.09700
C 	C 	0.51240 0.15000 0.97690 0.05000
C 	C 	0.65500 0.32490 0.90700 -0.13400
H 	H 	0.61580 0.29610 0.88590 0.07900
C 	C 	0.68640 0.24330 0.24190 0.07800
H 	H 	0.66330 0.22600 0.26290 -0.02500
C 	C 	0.71240 0.46300 0.67730 -0.12800
H 	H 	0.72900 0.43330 0.65550 0.06900
C 	C 	0.48850 0.62750 0.47450 0.06200
C 	C 	0.42210 0.07090 0.97900 0.06700
H 	H 	0.40190 0.04640 0.00020 -0.00700
C 	C 	0.74150 0.45670 0.73660 0.06100
H 	H 	0.77760 0.42180 0.75400 -0.01300
C 	C 	0.63300 0.55400 0.68440 -0.13500
H 	H 	0.59440 0.58530 0.66810 0.08200
C 	C 	0.66770 0.54540 0.74380 0.07900
H 	H 	0.65260 0.57520 0.76670 -0.01700
C 	C 	0.68530 0.36900 0.87900 0.07700
H 	H 	0.66420 0.37140 0.83890 -0.00300
N 	N 	0.37150 0.71910 0.41750 -0.19000
N 	N 	0.72160 0.36550 0.41110 -0.21000
N 	N 	0.72030 0.49860 0.77060 -0.19400
N 	N 	0.57390 0.53900 0.47210 -0.13900
N 	N 	0.65570 0.48290 0.55830 -0.14200
N 	N 	0.57490 0.57280 0.56260 -0.13800
N 	N 	0.74360 0.40860 0.90680 -0.18500
N 	N 	0.74630 0.27680 0.27100 -0.19700
N 	N 	0.39220 0.06420 0.92200 -0.20100
N 	N 	0.59730 0.23890 0.97290 -0.14100
N 	N 	0.68580 0.28710 0.05830 -0.13800
N 	N 	0.60350 0.20120 0.06390 -0.14800
Ag	Ag	0.77363 0.29121 0.36794 0.51000
Ag	Ag	0.29557 0.99687 0.86744 0.51300
C 	C 	0.15310 0.78020 0.00030 0.10000
C 	C 	0.92220 0.60050 0.89190 0.04900
H 	H 	0.90140 0.59750 0.85180 -0.01800
C 	C 	0.12760 0.93890 0.41060 -0.14100
H 	H 	0.08490 0.96030 0.38920 0.08200
C 	C 	0.12750 0.99330 0.50170 0.10100
C 	C 	0.07460 0.69840 0.00600 0.09500
C 	C 	0.27070 0.90650 0.96460 0.08200
H 	H 	0.31080 0.93410 0.98480 -0.01000
C 	C 	0.98190 0.61270 0.00870 -0.12400
H 	H 	0.00130 0.61580 0.04880 0.07100
C 	C 	0.90290 0.18410 0.38880 0.07400
H 	H 	0.88470 0.19050 0.34890 -0.00500
C 	C 	0.24280 0.86610 0.99560 -0.13300
H 	H 	0.26340 0.86690 0.03580 0.08500
C 	C 	0.15890 0.94850 0.46900 0.06200
C 	C 	0.22240 0.91490 0.49820 -0.14200
H 	H 	0.24530 0.91960 0.53810 0.07500
C 	C 	0.18360 0.82410 0.96630 0.06700
C 	C 	0.12690 0.02470 0.58720 0.10200
C 	C 	0.15810 0.01420 0.65050 0.05700
C 	C 	0.98190 0.64160 0.91800 -0.12600
H 	H 	0.00160 0.66380 0.89570 0.07600
C 	C 	0.04960 0.07750 0.50460 0.10500
C 	C 	0.18990 0.75800 0.15150 0.06000
C 	C 	0.95720 0.16590 0.50530 -0.12600
H 	H 	0.97510 0.16240 0.54540 0.08200
C 	C 	0.25100 0.87520 0.46810 0.06600
H 	H 	0.29370 0.85350 0.48860 -0.01600
C 	C 	0.96070 0.13910 0.41490 -0.12500
H 	H 	0.98090 0.11670 0.39300 0.08200
C 	C 	0.25180 0.79290 0.18000 -0.13600
H 	H 	0.27580 0.81050 0.15980 0.08200
C 	C 	0.16050 0.89700 0.38420 0.06600
H 	H 	0.13820 0.89020 0.34440 -0.01500
C 	C 	0.27830 0.80180 0.23960 0.07300
H 	H 	0.32020 0.82620 0.25860 -0.01100
C 	C 	0.89900 0.20910 0.47430 0.08100
H 	H 	0.87770 0.23290 0.49490 -0.00900
C 	C 	0.15610 0.73230 0.18330 -0.14900
H 	H 	0.11400 0.70820 0.16540 0.07600
C 	C 	0.15830 0.74850 0.08720 0.09700
C 	C 	0.01240 0.65000 0.97690 0.05000
C 	C 	0.15500 0.82490 0.90700 -0.13400
H 	H 	0.11580 0.79610 0.88590 0.07900
C 	C 	0.18640 0.74330 0.24190 0.07800
H 	H 	0.16330 0.72600 0.26290 -0.02500
C 	C 	0.21240 0.96300 0.67730 -0.12800
H 	H 	0.22900 0.93330 0.65550 0.06900
C 	C 	0.98850 0.12750 0.47450 0.06200
C 	C 	0.92210 0.57090 0.97900 0.06300
H 	H 	0.90190 0.54640 0.00020 -0.00500
C 	C 	0.24150 0.95670 0.73660 0.06100
H 	H 	0.27760 0.92180 0.75400 -0.01300
C 	C 	0.13300 0.05400 0.68440 -0.13500
H 	H 	0.09440 0.08530 0.66810 0.08300
C 	C 	0.16770 0.04540 0.74380 0.07900
H 	H 	0.15260 0.07520 0.76670 -0.01700
C 	C 	0.18530 0.86900 0.87900 0.07700
H 	H 	0.16420 0.87140 0.83890 -0.00300
N 	N 	0.87150 0.21910 0.41750 -0.19000
N 	N 	0.22160 0.86550 0.41110 -0.21000
N 	N 	0.22030 0.99860 0.77060 -0.19400
N 	N 	0.07390 0.03900 0.47210 -0.13900
N 	N 	0.15570 0.98290 0.55830 -0.14200
N 	N 	0.07490 0.07280 0.56260 -0.13800
N 	N 	0.24360 0.90860 0.90680 -0.18500
N 	N 	0.24630 0.77680 0.27100 -0.19700
N 	N 	0.89220 0.56420 0.92200 -0.20100
N 	N 	0.09730 0.73890 0.97290 -0.14100
N 	N 	0.18580 0.78710 0.05830 -0.13800
N 	N 	0.10350 0.70120 0.06390 -0.14800
