data_crystal

_cell_length_a 21.93680
_cell_length_b 16.81550
_cell_length_c 25.49980
_cell_angle_alpha 90.00000
_cell_angle_beta  115.12100
_cell_angle_gamma 90.00000

_symmetry_space_group_name_	'P 1'
_symmetry_space_group_name_H-M	'P 1'

loop_
_symmetry_equiv_pos_as_xyz
  x,y,z

loop_
_atom_site_label
_atom_site_type_symbol
_atom_site_fract_x
_atom_site_fract_y
_atom_site_fract_z
_atom_site_charge
Ag	Ag	0.65577 0.45643 0.63345 0.50900
Ag	Ag	0.67883 0.75699 0.13374 0.51200
C 	C 	0.40260 0.97160 0.00170 0.10000
C 	C 	0.96780 0.80920 0.59140 -0.13600
H 	H 	0.94650 0.78790 0.61290 0.07900
C 	C 	0.87710 0.75570 0.50050 0.09900
C 	C 	0.94040 0.79950 0.53270 0.05700
C 	C 	0.70230 0.58340 0.49630 -0.13000
H 	H 	0.68030 0.58710 0.45610 0.08400
C 	C 	0.55600 0.84530 0.03730 0.08700
H 	H 	0.57570 0.81760 0.01700 -0.01200
C 	C 	0.49670 0.88480 0.00610 -0.13700
H 	H 	0.47670 0.88290 0.96580 0.08700
C 	C 	0.31950 0.05230 0.99580 0.09800
C 	C 	0.46730 0.92750 0.03560 0.07000
C 	C 	0.27990 0.15220 0.10940 0.05100
H 	H 	0.29950 0.15650 0.14950 -0.01900
C 	C 	0.22370 0.13900 0.99190 -0.12400
H 	H 	0.20340 0.13610 0.95170 0.07100
C 	C 	0.79030 0.72530 0.41450 0.10100
C 	C 	0.75770 0.73660 0.35100 0.06200
C 	C 	0.76450 0.56430 0.61280 0.07600
H 	H 	0.78580 0.55760 0.65270 -0.00600
C 	C 	0.28810 0.99140 0.85000 0.06200
C 	C 	0.76500 0.62100 0.52770 0.06500
C 	C 	0.28630 0.10130 0.02500 0.04800
C 	C 	0.97480 0.83400 0.50270 -0.14100
H 	H 	0.95780 0.83020 0.46260 0.07500
C 	C 	0.79620 0.60940 0.58660 -0.12900
H 	H 	0.83820 0.63180 0.60850 0.08300
C 	C 	0.32160 0.95560 0.82180 -0.14000
H 	H 	0.36540 0.93740 0.84220 0.08400
C 	C 	0.32020 0.00160 0.91390 0.09300
C 	C 	0.79490 0.67150 0.49700 0.10500
C 	C 	0.67520 0.54100 0.52740 0.08700
H 	H 	0.63280 0.51870 0.50710 -0.01200
C 	C 	0.19390 0.18080 0.02240 0.06300
H 	H 	0.15270 0.20550 0.00130 -0.00600
C 	C 	0.31380 0.10950 0.08330 -0.12500
H 	H 	0.35540 0.08660 0.10580 0.07600
C 	C 	0.03290 0.87270 0.53340 0.07000
H 	H 	0.05510 0.89480 0.51290 -0.01800
C 	C 	0.49890 0.92760 0.09520 -0.14400
H 	H 	0.48110 0.95620 0.11660 0.08300
C 	C 	0.02750 0.85120 0.61850 0.06100
H 	H 	0.04510 0.85820 0.65840 -0.01400
C 	C 	0.28870 0.94700 0.76190 0.07800
H 	H 	0.31210 0.92400 0.74280 -0.01200
C 	C 	0.19510 0.00500 0.75940 0.07600
H 	H 	0.15140 0.02330 0.73810 -0.02500
C 	C 	0.75550 0.79420 0.26560 0.06800
H 	H 	0.77390 0.82960 0.24830 -0.01600
C 	C 	0.22290 0.01690 0.81900 -0.14800
H 	H 	0.19860 0.04080 0.83710 0.07600
C 	C 	0.55640 0.88510 0.12210 0.08600
H 	H 	0.57620 0.88440 0.16230 -0.00600
C 	C 	0.78640 0.78550 0.32410 -0.13800
H 	H 	0.82630 0.81220 0.34580 0.07300
C 	C 	0.69750 0.69920 0.31700 -0.14400
H 	H 	0.67480 0.66850 0.33330 0.08500
C 	C 	0.67290 0.70920 0.25830 0.08600
H 	H 	0.63370 0.68190 0.23550 -0.01900
N 	N 	0.70460 0.52970 0.58370 -0.19100
N 	N 	0.06080 0.88170 0.59030 -0.20900
N 	N 	0.69970 0.75410 0.23150 -0.19700
N 	N 	0.76300 0.67710 0.43970 -0.13800
N 	N 	0.85240 0.70990 0.52980 -0.13800
N 	N 	0.84790 0.76550 0.44320 -0.14100
N 	N 	0.58670 0.84410 0.09470 -0.18800
N 	N 	0.22070 0.18720 0.07950 -0.20200
N 	N 	0.22550 0.97000 0.73070 -0.19800
N 	N 	0.37740 0.96230 0.94370 -0.13600
N 	N 	0.37520 0.01300 0.02910 -0.14300
N 	N 	0.29000 0.04930 0.93780 -0.14800
Ag	Ag	0.15577 0.95643 0.63345 0.51000
Ag	Ag	0.17883 0.25699 0.13374 0.51300
C 	C 	0.90260 0.47160 0.00170 0.10300
C 	C 	0.46780 0.30920 0.59140 -0.13500
H 	H 	0.44650 0.28790 0.61290 0.08000
C 	C 	0.37710 0.25570 0.50050 0.10000
C 	C 	0.44040 0.29950 0.53270 0.05700
C 	C 	0.20230 0.08340 0.49630 -0.13000
H 	H 	0.18030 0.08710 0.45610 0.08400
C 	C 	0.05600 0.34530 0.03730 0.08300
H 	H 	0.07570 0.31760 0.01700 -0.01100
C 	C 	0.99670 0.38480 0.00610 -0.13200
H 	H 	0.97670 0.38290 0.96580 0.08500
C 	C 	0.81950 0.55230 0.99580 0.09600
C 	C 	0.96730 0.42750 0.03560 0.06800
C 	C 	0.77990 0.65220 0.10940 0.05300
H 	H 	0.79950 0.65650 0.14950 -0.02000
C 	C 	0.72370 0.63900 0.99190 -0.12800
H 	H 	0.70340 0.63610 0.95170 0.07200
C 	C 	0.29030 0.22530 0.41450 0.10100
C 	C 	0.25770 0.23660 0.35100 0.06200
C 	C 	0.26450 0.06430 0.61280 0.07600
H 	H 	0.28580 0.05760 0.65270 -0.00600
C 	C 	0.78810 0.49140 0.85000 0.06200
C 	C 	0.26500 0.12100 0.52770 0.06500
C 	C 	0.78630 0.60130 0.02500 0.05100
C 	C 	0.47480 0.33400 0.50270 -0.14100
H 	H 	0.45780 0.33020 0.46260 0.07500
C 	C 	0.29620 0.10940 0.58660 -0.12900
H 	H 	0.33820 0.13180 0.60850 0.08300
C 	C 	0.82160 0.45560 0.82180 -0.14000
H 	H 	0.86540 0.43740 0.84220 0.08400
C 	C 	0.82020 0.50160 0.91390 0.09300
C 	C 	0.29490 0.17150 0.49700 0.10500
C 	C 	0.17520 0.04100 0.52740 0.08700
H 	H 	0.13280 0.01870 0.50710 -0.01200
C 	C 	0.69390 0.68080 0.02240 0.06600
H 	H 	0.65270 0.70550 0.00130 -0.00700
C 	C 	0.81380 0.60950 0.08330 -0.12700
H 	H 	0.85540 0.58660 0.10580 0.07600
C 	C 	0.53290 0.37270 0.53340 0.07000
H 	H 	0.55510 0.39480 0.51290 -0.01800
C 	C 	0.99890 0.42760 0.09520 -0.14000
H 	H 	0.98110 0.45620 0.11660 0.08200
C 	C 	0.52750 0.35120 0.61850 0.06000
H 	H 	0.54510 0.35820 0.65840 -0.01400
C 	C 	0.78870 0.44700 0.76190 0.07700
H 	H 	0.81210 0.42400 0.74280 -0.01200
C 	C 	0.69510 0.50500 0.75940 0.07600
H 	H 	0.65140 0.52330 0.73810 -0.02500
C 	C 	0.25550 0.29420 0.26560 0.06800
H 	H 	0.27390 0.32960 0.24830 -0.01600
C 	C 	0.72290 0.51690 0.81900 -0.14800
H 	H 	0.69860 0.54080 0.83710 0.07600
C 	C 	0.05640 0.38510 0.12210 0.08300
H 	H 	0.07620 0.38440 0.16230 -0.00500
C 	C 	0.28640 0.28550 0.32410 -0.13800
H 	H 	0.32630 0.31220 0.34580 0.07300
C 	C 	0.19750 0.19920 0.31700 -0.14400
H 	H 	0.17480 0.16850 0.33330 0.08500
C 	C 	0.17290 0.20920 0.25830 0.08600
H 	H 	0.13370 0.18190 0.23550 -0.01900
N 	N 	0.20460 0.02970 0.58370 -0.19100
N 	N 	0.56080 0.38170 0.59030 -0.20900
N 	N 	0.19970 0.25410 0.23150 -0.19700
N 	N 	0.26300 0.17710 0.43970 -0.13800
N 	N 	0.35240 0.20990 0.52980 -0.13800
N 	N 	0.34790 0.26550 0.44320 -0.14100
N 	N 	0.08670 0.34410 0.09470 -0.18700
N 	N 	0.72070 0.68720 0.07950 -0.20300
N 	N 	0.72550 0.47000 0.73070 -0.19800
N 	N 	0.87740 0.46230 0.94370 -0.13700
N 	N 	0.87520 0.51300 0.02910 -0.14300
N 	N 	0.79000 0.54930 0.93780 -0.14800
Ag	Ag	0.34423 0.45643 0.86655 0.51000
Ag	Ag	0.32117 0.75699 0.36626 0.51300
C 	C 	0.59740 0.97160 0.49830 0.10200
C 	C 	0.03220 0.80920 0.90860 -0.13200
H 	H 	0.05350 0.78790 0.88710 0.07900
C 	C 	0.12290 0.75570 0.99950 0.10100
C 	C 	0.05960 0.79950 0.96730 0.05500
C 	C 	0.29770 0.58340 0.00370 -0.13300
H 	H 	0.31970 0.58710 0.04390 0.08500
C 	C 	0.44400 0.84530 0.46270 0.08700
H 	H 	0.42430 0.81760 0.48300 -0.01200
C 	C 	0.50330 0.88480 0.49390 -0.13700
H 	H 	0.52330 0.88290 0.53420 0.08700
C 	C 	0.68050 0.05230 0.50420 0.09700
C 	C 	0.53270 0.92750 0.46440 0.07000
C 	C 	0.72010 0.15220 0.39060 0.05200
H 	H 	0.70050 0.15650 0.35050 -0.01900
C 	C 	0.77630 0.13900 0.50810 -0.12600
H 	H 	0.79660 0.13610 0.54830 0.07200
C 	C 	0.20970 0.72530 0.08550 0.10100
C 	C 	0.24230 0.73660 0.14900 0.06200
C 	C 	0.23550 0.56430 0.88720 0.07700
H 	H 	0.21420 0.55760 0.84730 -0.00700
C 	C 	0.71190 0.99140 0.65000 0.06200
C 	C 	0.23500 0.62100 0.97230 0.06700
C 	C 	0.71370 0.10130 0.47500 0.04900
C 	C 	0.02520 0.83400 0.99730 -0.13600
H 	H 	0.04220 0.83020 0.03740 0.07300
C 	C 	0.20380 0.60940 0.91340 -0.13100
H 	H 	0.16180 0.63180 0.89150 0.08400
C 	C 	0.67840 0.95560 0.67820 -0.14000
H 	H 	0.63460 0.93740 0.65780 0.08400
C 	C 	0.67980 0.00160 0.58610 0.09300
C 	C 	0.20510 0.67150 0.00300 0.10300
C 	C 	0.32480 0.54100 0.97260 0.08900
H 	H 	0.36720 0.51870 0.99290 -0.01300
C 	C 	0.80610 0.18080 0.47760 0.06400
H 	H 	0.84730 0.20550 0.49870 -0.00600
C 	C 	0.68620 0.10950 0.41670 -0.12600
H 	H 	0.64460 0.08660 0.39420 0.07600
C 	C 	0.96710 0.87270 0.96660 0.06600
H 	H 	0.94490 0.89480 0.98710 -0.01700
C 	C 	0.50110 0.92760 0.40480 -0.14300
H 	H 	0.51890 0.95620 0.38340 0.08300
C 	C 	0.97250 0.85120 0.88150 0.05800
H 	H 	0.95490 0.85820 0.84160 -0.01300
C 	C 	0.71130 0.94700 0.73810 0.07800
H 	H 	0.68790 0.92400 0.75720 -0.01200
C 	C 	0.80490 0.00500 0.74060 0.07600
H 	H 	0.84860 0.02330 0.76190 -0.02500
C 	C 	0.24450 0.79420 0.23440 0.06800
H 	H 	0.22610 0.82960 0.25170 -0.01600
C 	C 	0.77710 0.01690 0.68100 -0.14800
H 	H 	0.80140 0.04080 0.66290 0.07600
C 	C 	0.44360 0.88510 0.37790 0.08600
H 	H 	0.42380 0.88440 0.33770 -0.00600
C 	C 	0.21360 0.78550 0.17590 -0.13800
H 	H 	0.17370 0.81220 0.15420 0.07300
C 	C 	0.30250 0.69920 0.18300 -0.14400
H 	H 	0.32520 0.66850 0.16670 0.08500
C 	C 	0.32710 0.70920 0.24170 0.08600
H 	H 	0.36630 0.68190 0.26450 -0.01900
N 	N 	0.29540 0.52970 0.91630 -0.19100
N 	N 	0.93920 0.88170 0.90970 -0.20800
N 	N 	0.30030 0.75410 0.26850 -0.19700
N 	N 	0.23700 0.67710 0.06030 -0.13800
N 	N 	0.14760 0.70990 0.97020 -0.13700
N 	N 	0.15210 0.76550 0.05680 -0.14200
N 	N 	0.41330 0.84410 0.40530 -0.18800
N 	N 	0.77930 0.18720 0.42050 -0.20200
N 	N 	0.77450 0.97000 0.76930 -0.19800
N 	N 	0.62260 0.96230 0.55630 -0.13600
N 	N 	0.62480 0.01300 0.47090 -0.14300
N 	N 	0.71000 0.04930 0.56220 -0.14800
Ag	Ag	0.84423 0.95643 0.86655 0.51000
Ag	Ag	0.82117 0.25699 0.36626 0.51300
C 	C 	0.09740 0.47160 0.49830 0.10200
C 	C 	0.53220 0.30920 0.90860 -0.13500
H 	H 	0.55350 0.28790 0.88710 0.08000
C 	C 	0.62290 0.25570 0.99950 0.09900
C 	C 	0.55960 0.29950 0.96730 0.05700
C 	C 	0.79770 0.08340 0.00370 -0.12800
H 	H 	0.81970 0.08710 0.04390 0.08300
C 	C 	0.94400 0.34530 0.46270 0.08700
H 	H 	0.92430 0.31760 0.48300 -0.01200
C 	C 	0.00330 0.38480 0.49390 -0.13700
H 	H 	0.02330 0.38290 0.53420 0.08700
C 	C 	0.18050 0.55230 0.50420 0.09700
C 	C 	0.03270 0.42750 0.46440 0.07000
C 	C 	0.22010 0.65220 0.39060 0.05200
H 	H 	0.20050 0.65650 0.35050 -0.01900
C 	C 	0.27630 0.63900 0.50810 -0.12600
H 	H 	0.29660 0.63610 0.54830 0.07200
C 	C 	0.70970 0.22530 0.08550 0.10100
C 	C 	0.74230 0.23660 0.14900 0.06200
C 	C 	0.73550 0.06430 0.88720 0.07600
H 	H 	0.71420 0.05760 0.84730 -0.00600
C 	C 	0.21190 0.49140 0.65000 0.06200
C 	C 	0.73500 0.12100 0.97230 0.06300
C 	C 	0.21370 0.60130 0.47500 0.04900
C 	C 	0.52520 0.33400 0.99730 -0.14200
H 	H 	0.54220 0.33020 0.03740 0.07500
C 	C 	0.70380 0.10940 0.91340 -0.12800
H 	H 	0.66180 0.13180 0.89150 0.08300
C 	C 	0.17840 0.45560 0.67820 -0.14000
H 	H 	0.13460 0.43740 0.65780 0.08400
C 	C 	0.17980 0.50160 0.58610 0.09300
C 	C 	0.70510 0.17150 0.00300 0.10600
C 	C 	0.82480 0.04100 0.97260 0.08500
H 	H 	0.86720 0.01870 0.99290 -0.01200
C 	C 	0.30610 0.68080 0.47760 0.06400
H 	H 	0.34730 0.70550 0.49870 -0.00600
C 	C 	0.18620 0.60950 0.41670 -0.12600
H 	H 	0.14460 0.58660 0.39420 0.07600
C 	C 	0.46710 0.37270 0.96660 0.07000
H 	H 	0.44490 0.39480 0.98710 -0.01800
C 	C 	0.00110 0.42760 0.40480 -0.14400
H 	H 	0.01890 0.45620 0.38340 0.08300
C 	C 	0.47250 0.35120 0.88150 0.06000
H 	H 	0.45490 0.35820 0.84160 -0.01400
C 	C 	0.21130 0.44700 0.73810 0.07700
H 	H 	0.18790 0.42400 0.75720 -0.01200
C 	C 	0.30490 0.50500 0.74060 0.07600
H 	H 	0.34860 0.52330 0.76190 -0.02500
C 	C 	0.74450 0.29420 0.23440 0.06800
H 	H 	0.72610 0.32960 0.25170 -0.01600
C 	C 	0.27710 0.51690 0.68100 -0.14800
H 	H 	0.30140 0.54080 0.66290 0.07600
C 	C 	0.94360 0.38510 0.37790 0.08600
H 	H 	0.92380 0.38440 0.33770 -0.00600
C 	C 	0.71360 0.28550 0.17590 -0.13800
H 	H 	0.67370 0.31220 0.15420 0.07300
C 	C 	0.80250 0.19920 0.18300 -0.14400
H 	H 	0.82520 0.16850 0.16670 0.08500
C 	C 	0.82710 0.20920 0.24170 0.08600
H 	H 	0.86630 0.18190 0.26450 -0.01800
N 	N 	0.79540 0.02970 0.91630 -0.19000
N 	N 	0.43920 0.38170 0.90970 -0.20900
N 	N 	0.80030 0.25410 0.26850 -0.19700
N 	N 	0.73700 0.17710 0.06030 -0.13800
N 	N 	0.64760 0.20990 0.97020 -0.13800
N 	N 	0.65210 0.26550 0.05680 -0.14100
N 	N 	0.91330 0.34410 0.40530 -0.18800
N 	N 	0.27930 0.68720 0.42050 -0.20200
N 	N 	0.27450 0.47000 0.76930 -0.19800
N 	N 	0.12260 0.46230 0.55630 -0.13600
N 	N 	0.12480 0.51300 0.47090 -0.14300
N 	N 	0.21000 0.54930 0.56220 -0.14800
Ag	Ag	0.34423 0.54357 0.36655 0.51000
Ag	Ag	0.32117 0.24301 0.86626 0.51300
C 	C 	0.59740 0.02840 0.99830 0.10100
C 	C 	0.03220 0.19080 0.40860 -0.13500
H 	H 	0.05350 0.21210 0.38710 0.08000
C 	C 	0.12290 0.24430 0.49950 0.10000
C 	C 	0.05960 0.20050 0.46730 0.05700
C 	C 	0.29770 0.41660 0.50370 -0.13000
H 	H 	0.31970 0.41290 0.54390 0.08400
C 	C 	0.44400 0.15470 0.96270 0.08700
H 	H 	0.42430 0.18240 0.98300 -0.01200
C 	C 	0.50330 0.11520 0.99390 -0.13700
H 	H 	0.52330 0.11710 0.03420 0.08700
C 	C 	0.68050 0.94770 0.00420 0.09800
C 	C 	0.53270 0.07250 0.96440 0.07000
C 	C 	0.72010 0.84780 0.89060 0.05100
H 	H 	0.70050 0.84350 0.85050 -0.01900
C 	C 	0.77630 0.86100 0.00810 -0.12400
H 	H 	0.79660 0.86390 0.04830 0.07100
C 	C 	0.20970 0.27470 0.58550 0.10100
C 	C 	0.24230 0.26340 0.64900 0.06200
C 	C 	0.23550 0.43570 0.38720 0.07600
H 	H 	0.21420 0.44240 0.34730 -0.00600
C 	C 	0.71190 0.00860 0.15000 0.06200
C 	C 	0.23500 0.37900 0.47230 0.06500
C 	C 	0.71370 0.89870 0.97500 0.04800
C 	C 	0.02520 0.16600 0.49730 -0.14100
H 	H 	0.04220 0.16980 0.53740 0.07500
C 	C 	0.20380 0.39060 0.41340 -0.12900
H 	H 	0.16180 0.36820 0.39150 0.08300
C 	C 	0.67840 0.04440 0.17820 -0.14000
H 	H 	0.63460 0.06260 0.15780 0.08400
C 	C 	0.67980 0.99840 0.08610 0.09300
C 	C 	0.20510 0.32850 0.50300 0.10500
C 	C 	0.32480 0.45900 0.47260 0.08700
H 	H 	0.36720 0.48130 0.49290 -0.01200
C 	C 	0.80610 0.81920 0.97760 0.06300
H 	H 	0.84730 0.79450 0.99870 -0.00600
C 	C 	0.68620 0.89050 0.91670 -0.12500
H 	H 	0.64460 0.91340 0.89420 0.07600
C 	C 	0.96710 0.12730 0.46660 0.07000
H 	H 	0.94490 0.10520 0.48710 -0.01800
C 	C 	0.50110 0.07240 0.90480 -0.14400
H 	H 	0.51890 0.04380 0.88340 0.08300
C 	C 	0.97250 0.14880 0.38150 0.06100
H 	H 	0.95490 0.14180 0.34160 -0.01400
C 	C 	0.71130 0.05300 0.23810 0.07800
H 	H 	0.68790 0.07600 0.25720 -0.01200
C 	C 	0.80490 0.99500 0.24060 0.07600
H 	H 	0.84860 0.97670 0.26190 -0.02500
C 	C 	0.24450 0.20580 0.73440 0.06800
H 	H 	0.22610 0.17040 0.75170 -0.01600
C 	C 	0.77710 0.98310 0.18100 -0.14800
H 	H 	0.80140 0.95920 0.16290 0.07600
C 	C 	0.44360 0.11490 0.87790 0.08600
H 	H 	0.42380 0.11560 0.83770 -0.00600
C 	C 	0.21360 0.21450 0.67590 -0.13800
H 	H 	0.17370 0.18780 0.65420 0.07300
C 	C 	0.30250 0.30080 0.68300 -0.14400
H 	H 	0.32520 0.33150 0.66670 0.08500
C 	C 	0.32710 0.29080 0.74170 0.08600
H 	H 	0.36630 0.31810 0.76450 -0.01900
N 	N 	0.29540 0.47030 0.41630 -0.19100
N 	N 	0.93920 0.11830 0.40970 -0.20900
N 	N 	0.30030 0.24590 0.76850 -0.19700
N 	N 	0.23700 0.32290 0.56030 -0.13800
N 	N 	0.14760 0.29010 0.47020 -0.13800
N 	N 	0.15210 0.23450 0.55680 -0.14100
N 	N 	0.41330 0.15590 0.90530 -0.18800
N 	N 	0.77930 0.81280 0.92050 -0.20200
N 	N 	0.77450 0.03000 0.26930 -0.19800
N 	N 	0.62260 0.03770 0.05630 -0.13600
N 	N 	0.62480 0.98700 0.97090 -0.14300
N 	N 	0.71000 0.95070 0.06220 -0.14800
Ag	Ag	0.84423 0.04357 0.36655 0.51000
Ag	Ag	0.82117 0.74301 0.86626 0.51300
C 	C 	0.09740 0.52840 0.99830 0.10300
C 	C 	0.53220 0.69080 0.40860 -0.13500
H 	H 	0.55350 0.71210 0.38710 0.08000
C 	C 	0.62290 0.74430 0.49950 0.10000
C 	C 	0.55960 0.70050 0.46730 0.05700
C 	C 	0.79770 0.91660 0.50370 -0.13000
H 	H 	0.81970 0.91290 0.54390 0.08400
C 	C 	0.94400 0.65470 0.96270 0.08300
H 	H 	0.92430 0.68240 0.98300 -0.01100
C 	C 	0.00330 0.61520 0.99390 -0.13200
H 	H 	0.02330 0.61710 0.03420 0.08500
C 	C 	0.18050 0.44770 0.00420 0.09600
C 	C 	0.03270 0.57250 0.96440 0.06800
C 	C 	0.22010 0.34780 0.89060 0.05300
H 	H 	0.20050 0.34350 0.85050 -0.02000
C 	C 	0.27630 0.36100 0.00810 -0.12800
H 	H 	0.29660 0.36390 0.04830 0.07200
C 	C 	0.70970 0.77470 0.58550 0.10100
C 	C 	0.74230 0.76340 0.64900 0.06200
C 	C 	0.73550 0.93570 0.38720 0.07600
H 	H 	0.71420 0.94240 0.34730 -0.00600
C 	C 	0.21190 0.50860 0.15000 0.06200
C 	C 	0.73500 0.87900 0.47230 0.06500
C 	C 	0.21370 0.39870 0.97500 0.05100
C 	C 	0.52520 0.66600 0.49730 -0.14100
H 	H 	0.54220 0.66980 0.53740 0.07500
C 	C 	0.70380 0.89060 0.41340 -0.12900
H 	H 	0.66180 0.86820 0.39150 0.08300
C 	C 	0.17840 0.54440 0.17820 -0.14000
H 	H 	0.13460 0.56260 0.15780 0.08400
C 	C 	0.17980 0.49840 0.08610 0.09300
C 	C 	0.70510 0.82850 0.50300 0.10500
C 	C 	0.82480 0.95900 0.47260 0.08700
H 	H 	0.86720 0.98130 0.49290 -0.01200
C 	C 	0.30610 0.31920 0.97760 0.06600
H 	H 	0.34730 0.29450 0.99870 -0.00700
C 	C 	0.18620 0.39050 0.91670 -0.12700
H 	H 	0.14460 0.41340 0.89420 0.07600
C 	C 	0.46710 0.62730 0.46660 0.07000
H 	H 	0.44490 0.60520 0.48710 -0.01800
C 	C 	0.00110 0.57240 0.90480 -0.14000
H 	H 	0.01890 0.54380 0.88340 0.08200
C 	C 	0.47250 0.64880 0.38150 0.06000
H 	H 	0.45490 0.64180 0.34160 -0.01400
C 	C 	0.21130 0.55300 0.23810 0.07700
H 	H 	0.18790 0.57600 0.25720 -0.01200
C 	C 	0.30490 0.49500 0.24060 0.07600
H 	H 	0.34860 0.47670 0.26190 -0.02500
C 	C 	0.74450 0.70580 0.73440 0.06800
H 	H 	0.72610 0.67040 0.75170 -0.01600
C 	C 	0.27710 0.48310 0.18100 -0.14800
H 	H 	0.30140 0.45920 0.16290 0.07600
C 	C 	0.94360 0.61490 0.87790 0.08300
H 	H 	0.92380 0.61560 0.83770 -0.00500
C 	C 	0.71360 0.71450 0.67590 -0.13800
H 	H 	0.67370 0.68780 0.65420 0.07300
C 	C 	0.80250 0.80080 0.68300 -0.14400
H 	H 	0.82520 0.83150 0.66670 0.08500
C 	C 	0.82710 0.79080 0.74170 0.08600
H 	H 	0.86630 0.81810 0.76450 -0.01900
N 	N 	0.79540 0.97030 0.41630 -0.19100
N 	N 	0.43920 0.61830 0.40970 -0.20900
N 	N 	0.80030 0.74590 0.76850 -0.19700
N 	N 	0.73700 0.82290 0.56030 -0.13800
N 	N 	0.64760 0.79010 0.47020 -0.13800
N 	N 	0.65210 0.73450 0.55680 -0.14100
N 	N 	0.91330 0.65590 0.90530 -0.18700
N 	N 	0.27930 0.31280 0.92050 -0.20300
N 	N 	0.27450 0.53000 0.26930 -0.19800
N 	N 	0.12260 0.53770 0.05630 -0.13700
N 	N 	0.12480 0.48700 0.97090 -0.14300
N 	N 	0.21000 0.45070 0.06220 -0.14800
Ag	Ag	0.65577 0.54357 0.13345 0.51000
Ag	Ag	0.67883 0.24301 0.63374 0.51300
C 	C 	0.40260 0.02840 0.50170 0.10200
C 	C 	0.96780 0.19080 0.09140 -0.13200
H 	H 	0.94650 0.21210 0.11290 0.07900
C 	C 	0.87710 0.24430 0.00050 0.10100
C 	C 	0.94040 0.20050 0.03270 0.05500
C 	C 	0.70230 0.41660 0.99630 -0.13300
H 	H 	0.68030 0.41290 0.95610 0.08500
C 	C 	0.55600 0.15470 0.53730 0.08700
H 	H 	0.57570 0.18240 0.51700 -0.01200
C 	C 	0.49670 0.11520 0.50610 -0.13700
H 	H 	0.47670 0.11710 0.46580 0.08700
C 	C 	0.31950 0.94770 0.49580 0.09700
C 	C 	0.46730 0.07250 0.53560 0.07000
C 	C 	0.27990 0.84780 0.60940 0.05200
H 	H 	0.29950 0.84350 0.64950 -0.01900
C 	C 	0.22370 0.86100 0.49190 -0.12600
H 	H 	0.20340 0.86390 0.45170 0.07200
C 	C 	0.79030 0.27470 0.91450 0.10100
C 	C 	0.75770 0.26340 0.85100 0.06200
C 	C 	0.76450 0.43570 0.11280 0.07700
H 	H 	0.78580 0.44240 0.15270 -0.00700
C 	C 	0.28810 0.00860 0.35000 0.06200
C 	C 	0.76500 0.37900 0.02770 0.06700
C 	C 	0.28630 0.89870 0.52500 0.04900
C 	C 	0.97480 0.16600 0.00270 -0.13600
H 	H 	0.95780 0.16980 0.96260 0.07300
C 	C 	0.79620 0.39060 0.08660 -0.13100
H 	H 	0.83820 0.36820 0.10850 0.08400
C 	C 	0.32160 0.04440 0.32180 -0.14000
H 	H 	0.36540 0.06260 0.34220 0.08400
C 	C 	0.32020 0.99840 0.41390 0.09300
C 	C 	0.79490 0.32850 0.99700 0.10300
C 	C 	0.67520 0.45900 0.02740 0.08900
H 	H 	0.63280 0.48130 0.00710 -0.01300
C 	C 	0.19390 0.81920 0.52240 0.06400
H 	H 	0.15270 0.79450 0.50130 -0.00600
C 	C 	0.31380 0.89050 0.58330 -0.12600
H 	H 	0.35540 0.91340 0.60580 0.07600
C 	C 	0.03290 0.12730 0.03340 0.06600
H 	H 	0.05510 0.10520 0.01290 -0.01700
C 	C 	0.49890 0.07240 0.59520 -0.14300
H 	H 	0.48110 0.04380 0.61660 0.08300
C 	C 	0.02750 0.14880 0.11850 0.05800
H 	H 	0.04510 0.14180 0.15840 -0.01300
C 	C 	0.28870 0.05300 0.26190 0.07800
H 	H 	0.31210 0.07600 0.24280 -0.01200
C 	C 	0.19510 0.99500 0.25940 0.07600
H 	H 	0.15140 0.97670 0.23810 -0.02500
C 	C 	0.75550 0.20580 0.76560 0.06800
H 	H 	0.77390 0.17040 0.74830 -0.01600
C 	C 	0.22290 0.98310 0.31900 -0.14800
H 	H 	0.19860 0.95920 0.33710 0.07600
C 	C 	0.55640 0.11490 0.62210 0.08600
H 	H 	0.57620 0.11560 0.66230 -0.00600
C 	C 	0.78640 0.21450 0.82410 -0.13800
H 	H 	0.82630 0.18780 0.84580 0.07300
C 	C 	0.69750 0.30080 0.81700 -0.14400
H 	H 	0.67480 0.33150 0.83330 0.08500
C 	C 	0.67290 0.29080 0.75830 0.08600
H 	H 	0.63370 0.31810 0.73550 -0.01900
N 	N 	0.70460 0.47030 0.08370 -0.19100
N 	N 	0.06080 0.11830 0.09030 -0.20800
N 	N 	0.69970 0.24590 0.73150 -0.19700
N 	N 	0.76300 0.32290 0.93970 -0.13800
N 	N 	0.85240 0.29010 0.02980 -0.13700
N 	N 	0.84790 0.23450 0.94320 -0.14200
N 	N 	0.58670 0.15590 0.59470 -0.18800
N 	N 	0.22070 0.81280 0.57950 -0.20200
N 	N 	0.22550 0.03000 0.23070 -0.19800
N 	N 	0.37740 0.03770 0.44370 -0.13600
N 	N 	0.37520 0.98700 0.52910 -0.14300
N 	N 	0.29000 0.95070 0.43780 -0.14800
Ag	Ag	0.15577 0.04357 0.13345 0.51000
Ag	Ag	0.17883 0.74301 0.63374 0.51300
C 	C 	0.90260 0.52840 0.50170 0.10200
C 	C 	0.46780 0.69080 0.09140 -0.13500
H 	H 	0.44650 0.71210 0.11290 0.08000
C 	C 	0.37710 0.74430 0.00050 0.09900
C 	C 	0.44040 0.70050 0.03270 0.05700
C 	C 	0.20230 0.91660 0.99630 -0.12800
H 	H 	0.18030 0.91290 0.95610 0.08300
C 	C 	0.05600 0.65470 0.53730 0.08700
H 	H 	0.07570 0.68240 0.51700 -0.01200
C 	C 	0.99670 0.61520 0.50610 -0.13700
H 	H 	0.97670 0.61710 0.46580 0.08700
C 	C 	0.81950 0.44770 0.49580 0.09700
C 	C 	0.96730 0.57250 0.53560 0.07000
C 	C 	0.77990 0.34780 0.60940 0.05200
H 	H 	0.79950 0.34350 0.64950 -0.01900
C 	C 	0.72370 0.36100 0.49190 -0.12600
H 	H 	0.70340 0.36390 0.45170 0.07200
C 	C 	0.29030 0.77470 0.91450 0.10100
C 	C 	0.25770 0.76340 0.85100 0.06200
C 	C 	0.26450 0.93570 0.11280 0.07600
H 	H 	0.28580 0.94240 0.15270 -0.00600
C 	C 	0.78810 0.50860 0.35000 0.06200
C 	C 	0.26500 0.87900 0.02770 0.06300
C 	C 	0.78630 0.39870 0.52500 0.04900
C 	C 	0.47480 0.66600 0.00270 -0.14200
H 	H 	0.45780 0.66980 0.96260 0.07500
C 	C 	0.29620 0.89060 0.08660 -0.12800
H 	H 	0.33820 0.86820 0.10850 0.08300
C 	C 	0.82160 0.54440 0.32180 -0.14000
H 	H 	0.86540 0.56260 0.34220 0.08400
C 	C 	0.82020 0.49840 0.41390 0.09300
C 	C 	0.29490 0.82850 0.99700 0.10600
C 	C 	0.17520 0.95900 0.02740 0.08500
H 	H 	0.13280 0.98130 0.00710 -0.01200
C 	C 	0.69390 0.31920 0.52240 0.06400
H 	H 	0.65270 0.29450 0.50130 -0.00600
C 	C 	0.81380 0.39050 0.58330 -0.12600
H 	H 	0.85540 0.41340 0.60580 0.07600
C 	C 	0.53290 0.62730 0.03340 0.07000
H 	H 	0.55510 0.60520 0.01290 -0.01800
C 	C 	0.99890 0.57240 0.59520 -0.14400
H 	H 	0.98110 0.54380 0.61660 0.08300
C 	C 	0.52750 0.64880 0.11850 0.06000
H 	H 	0.54510 0.64180 0.15840 -0.01400
C 	C 	0.78870 0.55300 0.26190 0.07700
H 	H 	0.81210 0.57600 0.24280 -0.01200
C 	C 	0.69510 0.49500 0.25940 0.07600
H 	H 	0.65140 0.47670 0.23810 -0.02500
C 	C 	0.25550 0.70580 0.76560 0.06800
H 	H 	0.27390 0.67040 0.74830 -0.01600
C 	C 	0.72290 0.48310 0.31900 -0.14800
H 	H 	0.69860 0.45920 0.33710 0.07600
C 	C 	0.05640 0.61490 0.62210 0.08600
H 	H 	0.07620 0.61560 0.66230 -0.00600
C 	C 	0.28640 0.71450 0.82410 -0.13800
H 	H 	0.32630 0.68780 0.84580 0.07300
C 	C 	0.19750 0.80080 0.81700 -0.14400
H 	H 	0.17480 0.83150 0.83330 0.08500
C 	C 	0.17290 0.79080 0.75830 0.08600
H 	H 	0.13370 0.81810 0.73550 -0.01800
N 	N 	0.20460 0.97030 0.08370 -0.19000
N 	N 	0.56080 0.61830 0.09030 -0.20900
N 	N 	0.19970 0.74590 0.73150 -0.19700
N 	N 	0.26300 0.82290 0.93970 -0.13800
N 	N 	0.35240 0.79010 0.02980 -0.13800
N 	N 	0.34790 0.73450 0.94320 -0.14100
N 	N 	0.08670 0.65590 0.59470 -0.18800
N 	N 	0.72070 0.31280 0.57950 -0.20200
N 	N 	0.72550 0.53000 0.23070 -0.19800
N 	N 	0.87740 0.53770 0.44370 -0.13600
N 	N 	0.87520 0.48700 0.52910 -0.14300
N 	N 	0.79000 0.45070 0.43780 -0.14800
