data_crystal

_cell_length_a 21.94750
_cell_length_b 16.67410
_cell_length_c 25.52260
_cell_angle_alpha 90.00000
_cell_angle_beta  115.11900
_cell_angle_gamma 90.00000

_symmetry_space_group_name_	'P 1'
_symmetry_space_group_name_H-M	'P 1'

loop_
_symmetry_equiv_pos_as_xyz
  x,y,z

loop_
_atom_site_label
_atom_site_type_symbol
_atom_site_fract_x
_atom_site_fract_y
_atom_site_fract_z
_atom_site_charge
Ag	Ag	0.32170 0.74386 0.86643 0.51300
Ag	Ag	0.84425 0.54332 0.36689 0.50900
C 	C 	0.59750 0.52830 0.99890 0.10000
C 	C 	0.62340 0.24400 0.50040 0.09900
C 	C 	0.55970 0.19870 0.46800 0.06100
C 	C 	0.77640 0.36150 0.00810 -0.12100
H 	H 	0.79690 0.36460 0.04830 0.07100
C 	C 	0.50360 0.61500 0.99480 -0.13300
H 	H 	0.52330 0.61650 0.03500 0.08600
C 	C 	0.79750 0.41640 0.50380 -0.13100
H 	H 	0.81950 0.41230 0.54390 0.08400
C 	C 	0.53250 0.19040 0.40940 -0.13700
H 	H 	0.55350 0.21290 0.38800 0.08100
C 	C 	0.68140 0.44780 0.00500 0.09800
C 	C 	0.71980 0.34710 0.89050 0.05000
H 	H 	0.70040 0.34250 0.85040 -0.01900
C 	C 	0.44370 0.65510 0.96280 0.08300
H 	H 	0.42380 0.68330 0.98290 -0.01100
C 	C 	0.67900 0.54400 0.17940 -0.13300
H 	H 	0.63500 0.56180 0.15900 0.08100
C 	C 	0.70960 0.27400 0.58580 0.10100
C 	C 	0.53300 0.57270 0.96490 0.06700
C 	C 	0.74270 0.26370 0.64920 0.06100
C 	C 	0.73520 0.37910 0.47300 0.06700
C 	C 	0.67990 0.49800 0.08570 0.09700
C 	C 	0.71200 0.50760 0.15040 0.05700
C 	C 	0.73580 0.43510 0.38720 0.07600
H 	H 	0.71480 0.44120 0.34730 -0.00600
C 	C 	0.70380 0.39050 0.41380 -0.12900
H 	H 	0.66170 0.36840 0.39200 0.08300
C 	C 	0.70460 0.32780 0.50310 0.10400
C 	C 	0.71460 0.39900 0.97610 0.04500
C 	C 	0.52560 0.16500 0.49780 -0.14400
H 	H 	0.54280 0.16900 0.53790 0.07600
C 	C 	0.82520 0.45900 0.47340 0.08500
H 	H 	0.86740 0.48170 0.49380 -0.01100
C 	C 	0.68560 0.38940 0.91670 -0.12100
H 	H 	0.64340 0.41110 0.89440 0.07400
C 	C 	0.80650 0.31920 0.97790 0.06100
H 	H 	0.84760 0.29430 0.99910 -0.00500
C 	C 	0.80620 0.49490 0.24080 0.07400
H 	H 	0.85010 0.47720 0.26180 -0.02400
C 	C 	0.46690 0.12650 0.46730 0.07100
H 	H 	0.44430 0.10450 0.48760 -0.01800
C 	C 	0.47300 0.14790 0.38200 0.06100
H 	H 	0.45590 0.13980 0.34220 -0.01400
C 	C 	0.71110 0.55390 0.23840 0.07000
H 	H 	0.68810 0.57850 0.25740 -0.01000
C 	C 	0.74560 0.20580 0.73550 0.07000
H 	H 	0.72680 0.17100 0.75310 -0.01600
C 	C 	0.50150 0.57220 0.90530 -0.13700
H 	H 	0.51910 0.54250 0.88400 0.08000
C 	C 	0.44380 0.61630 0.87780 0.08100
H 	H 	0.42480 0.61880 0.83760 -0.00400
C 	C 	0.80200 0.30020 0.68280 -0.13900
H 	H 	0.82480 0.33080 0.66630 0.08300
C 	C 	0.71450 0.21290 0.67650 -0.13500
H 	H 	0.67530 0.18440 0.65490 0.07100
C 	C 	0.77770 0.48400 0.18160 -0.14500
H 	H 	0.80220 0.46140 0.16320 0.07500
C 	C 	0.82770 0.29050 0.74260 0.08100
H 	H 	0.86690 0.31820 0.76530 -0.01700
N 	N 	0.41320 0.65580 0.90550 -0.18700
N 	N 	0.77930 0.31290 0.92070 -0.20100
N 	N 	0.77530 0.52900 0.26990 -0.19500
N 	N 	0.62280 0.53720 0.05710 -0.13700
N 	N 	0.62520 0.48690 0.97110 -0.14300
N 	N 	0.71090 0.45020 0.06280 -0.15000
N 	N 	0.79550 0.46980 0.41660 -0.19000
N 	N 	0.43960 0.11820 0.41050 -0.20900
N 	N 	0.80080 0.24550 0.76920 -0.19700
N 	N 	0.73770 0.32290 0.56100 -0.13700
N 	N 	0.64760 0.29000 0.47060 -0.13800
N 	N 	0.65250 0.23370 0.55750 -0.14200
Ag	Ag	0.82170 0.24386 0.86643 0.51300
Ag	Ag	0.34425 0.04332 0.36689 0.50900
C 	C 	0.09750 0.02830 0.99890 0.10200
C 	C 	0.12340 0.74400 0.50040 0.09900
C 	C 	0.05970 0.69870 0.46800 0.06200
C 	C 	0.27640 0.86150 0.00810 -0.12700
H 	H 	0.29690 0.86460 0.04830 0.07300
C 	C 	0.00360 0.11500 0.99480 -0.12800
H 	H 	0.02330 0.11650 0.03500 0.08400
C 	C 	0.29750 0.91640 0.50380 -0.13100
H 	H 	0.31950 0.91230 0.54390 0.08400
C 	C 	0.03250 0.69040 0.40940 -0.13800
H 	H 	0.05350 0.71290 0.38800 0.08100
C 	C 	0.18140 0.94780 0.00500 0.09500
C 	C 	0.21980 0.84710 0.89050 0.05200
H 	H 	0.20040 0.84250 0.85040 -0.02000
C 	C 	0.94370 0.15510 0.96280 0.07900
H 	H 	0.92380 0.18330 0.98290 -0.01000
C 	C 	0.17900 0.04400 0.17940 -0.13300
H 	H 	0.13500 0.06180 0.15900 0.08100
C 	C 	0.20960 0.77400 0.58580 0.10100
C 	C 	0.03300 0.07270 0.96490 0.06400
C 	C 	0.24270 0.76370 0.64920 0.06100
C 	C 	0.23520 0.87910 0.47300 0.06700
C 	C 	0.17990 0.99800 0.08570 0.09600
C 	C 	0.21200 0.00760 0.15040 0.05700
C 	C 	0.23580 0.93510 0.38720 0.07600
H 	H 	0.21480 0.94120 0.34730 -0.00600
C 	C 	0.20380 0.89050 0.41380 -0.12900
H 	H 	0.16170 0.86840 0.39200 0.08300
C 	C 	0.20460 0.82780 0.50310 0.10400
C 	C 	0.21460 0.89900 0.97610 0.05000
C 	C 	0.02560 0.66500 0.49780 -0.14400
H 	H 	0.04280 0.66900 0.53790 0.07600
C 	C 	0.32520 0.95900 0.47340 0.08500
H 	H 	0.36740 0.98170 0.49380 -0.01100
C 	C 	0.18560 0.88940 0.91670 -0.12400
H 	H 	0.14340 0.91110 0.89440 0.07500
C 	C 	0.30650 0.81920 0.97790 0.06500
H 	H 	0.34760 0.79430 0.99910 -0.00600
C 	C 	0.30620 0.99490 0.24080 0.07400
H 	H 	0.35010 0.97720 0.26180 -0.02400
C 	C 	0.96690 0.62650 0.46730 0.07100
H 	H 	0.94430 0.60450 0.48760 -0.01800
C 	C 	0.97300 0.64790 0.38200 0.06100
H 	H 	0.95590 0.63980 0.34220 -0.01400
C 	C 	0.21110 0.05390 0.23840 0.07000
H 	H 	0.18810 0.07850 0.25740 -0.01000
C 	C 	0.24560 0.70580 0.73550 0.07000
H 	H 	0.22680 0.67100 0.75310 -0.01600
C 	C 	0.00150 0.07220 0.90530 -0.13300
H 	H 	0.01910 0.04250 0.88400 0.07900
C 	C 	0.94380 0.11630 0.87780 0.07800
H 	H 	0.92480 0.11880 0.83760 -0.00400
C 	C 	0.30200 0.80020 0.68280 -0.13900
H 	H 	0.32480 0.83080 0.66630 0.08300
C 	C 	0.21450 0.71290 0.67650 -0.13500
H 	H 	0.17530 0.68440 0.65490 0.07100
C 	C 	0.27770 0.98400 0.18160 -0.14500
H 	H 	0.30220 0.96140 0.16320 0.07500
C 	C 	0.32770 0.79050 0.74260 0.08100
H 	H 	0.36690 0.81820 0.76530 -0.01700
N 	N 	0.91320 0.15580 0.90550 -0.18600
N 	N 	0.27930 0.81290 0.92070 -0.20200
N 	N 	0.27530 0.02900 0.26990 -0.19500
N 	N 	0.12280 0.03720 0.05710 -0.13800
N 	N 	0.12520 0.98690 0.97110 -0.14200
N 	N 	0.21090 0.95020 0.06280 -0.15000
N 	N 	0.29550 0.96980 0.41660 -0.19000
N 	N 	0.93960 0.61820 0.41050 -0.21000
N 	N 	0.30080 0.74550 0.76920 -0.19700
N 	N 	0.23770 0.82290 0.56100 -0.13700
N 	N 	0.14760 0.79000 0.47060 -0.13800
N 	N 	0.15250 0.73370 0.55750 -0.14200
Ag	Ag	0.67830 0.74386 0.63357 0.51300
Ag	Ag	0.15575 0.54332 0.13311 0.50900
C 	C 	0.40250 0.52830 0.50110 0.10000
C 	C 	0.37660 0.24400 0.99960 0.09900
C 	C 	0.44030 0.19870 0.03200 0.06100
C 	C 	0.22360 0.36150 0.49190 -0.12400
H 	H 	0.20310 0.36460 0.45170 0.07100
C 	C 	0.49640 0.61500 0.50520 -0.13300
H 	H 	0.47670 0.61650 0.46500 0.08600
C 	C 	0.20250 0.41640 0.99620 -0.12800
H 	H 	0.18050 0.41230 0.95610 0.08400
C 	C 	0.46750 0.19040 0.09060 -0.13700
H 	H 	0.44650 0.21290 0.11200 0.08100
C 	C 	0.31860 0.44780 0.49500 0.09700
C 	C 	0.28020 0.34710 0.60950 0.05000
H 	H 	0.29960 0.34250 0.64960 -0.01900
C 	C 	0.55630 0.65510 0.53720 0.08300
H 	H 	0.57620 0.68330 0.51710 -0.01100
C 	C 	0.32100 0.54400 0.32060 -0.13300
H 	H 	0.36500 0.56180 0.34100 0.08100
C 	C 	0.29040 0.27400 0.91420 0.10100
C 	C 	0.46700 0.57270 0.53510 0.06700
C 	C 	0.25730 0.26370 0.85080 0.06100
C 	C 	0.26480 0.37910 0.02700 0.06500
C 	C 	0.32010 0.49800 0.41430 0.09700
C 	C 	0.28800 0.50760 0.34960 0.05700
C 	C 	0.26420 0.43510 0.11280 0.07500
H 	H 	0.28520 0.44120 0.15270 -0.00600
C 	C 	0.29620 0.39050 0.08620 -0.12700
H 	H 	0.33830 0.36840 0.10800 0.08300
C 	C 	0.29540 0.32780 0.99690 0.10500
C 	C 	0.28540 0.39900 0.52390 0.04700
C 	C 	0.47440 0.16500 0.00220 -0.14400
H 	H 	0.45720 0.16900 0.96210 0.07600
C 	C 	0.17480 0.45900 0.02660 0.08300
H 	H 	0.13260 0.48170 0.00620 -0.01100
C 	C 	0.31440 0.38940 0.58330 -0.12200
H 	H 	0.35660 0.41110 0.60560 0.07500
C 	C 	0.19350 0.31920 0.52210 0.06300
H 	H 	0.15240 0.29430 0.50090 -0.00500
C 	C 	0.19380 0.49490 0.25920 0.07400
H 	H 	0.14990 0.47720 0.23820 -0.02400
C 	C 	0.53310 0.12650 0.03270 0.07100
H 	H 	0.55570 0.10450 0.01240 -0.01800
C 	C 	0.52700 0.14790 0.11800 0.06100
H 	H 	0.54410 0.13980 0.15780 -0.01400
C 	C 	0.28890 0.55390 0.26160 0.07000
H 	H 	0.31190 0.57850 0.24260 -0.01000
C 	C 	0.25440 0.20580 0.76450 0.07000
H 	H 	0.27320 0.17100 0.74690 -0.01600
C 	C 	0.49850 0.57220 0.59470 -0.13700
H 	H 	0.48090 0.54250 0.61600 0.08000
C 	C 	0.55620 0.61630 0.62220 0.08100
H 	H 	0.57520 0.61880 0.66240 -0.00400
C 	C 	0.19800 0.30020 0.81720 -0.13900
H 	H 	0.17520 0.33080 0.83370 0.08300
C 	C 	0.28550 0.21290 0.82350 -0.13500
H 	H 	0.32470 0.18440 0.84510 0.07100
C 	C 	0.22230 0.48400 0.31840 -0.14500
H 	H 	0.19780 0.46140 0.33680 0.07500
C 	C 	0.17230 0.29050 0.75740 0.08100
H 	H 	0.13310 0.31820 0.73470 -0.01700
N 	N 	0.58680 0.65580 0.59450 -0.18700
N 	N 	0.22070 0.31290 0.57930 -0.20100
N 	N 	0.22470 0.52900 0.23010 -0.19500
N 	N 	0.37720 0.53720 0.44290 -0.13700
N 	N 	0.37480 0.48690 0.52890 -0.14200
N 	N 	0.28910 0.45020 0.43720 -0.15000
N 	N 	0.20450 0.46980 0.08340 -0.19000
N 	N 	0.56040 0.11820 0.08950 -0.20900
N 	N 	0.19920 0.24550 0.73080 -0.19700
N 	N 	0.26230 0.32290 0.93900 -0.13800
N 	N 	0.35240 0.29000 0.02940 -0.13900
N 	N 	0.34750 0.23370 0.94250 -0.14200
Ag	Ag	0.17830 0.24386 0.63357 0.51300
Ag	Ag	0.65575 0.04332 0.13311 0.50900
C 	C 	0.90250 0.02830 0.50110 0.10000
C 	C 	0.87660 0.74400 0.99960 0.09800
C 	C 	0.94030 0.69870 0.03200 0.06000
C 	C 	0.72360 0.86150 0.49190 -0.12400
H 	H 	0.70310 0.86460 0.45170 0.07200
C 	C 	0.99640 0.11500 0.50520 -0.13300
H 	H 	0.97670 0.11650 0.46500 0.08600
C 	C 	0.70250 0.91640 0.99620 -0.13400
H 	H 	0.68050 0.91230 0.95610 0.08500
C 	C 	0.96750 0.69040 0.09060 -0.13500
H 	H 	0.94650 0.71290 0.11200 0.08000
C 	C 	0.81860 0.94780 0.49500 0.09700
C 	C 	0.78020 0.84710 0.60950 0.05000
H 	H 	0.79960 0.84250 0.64960 -0.01900
C 	C 	0.05630 0.15510 0.53720 0.08300
H 	H 	0.07620 0.18330 0.51710 -0.01100
C 	C 	0.82100 0.04400 0.32060 -0.13300
H 	H 	0.86500 0.06180 0.34100 0.08100
C 	C 	0.79040 0.77400 0.91420 0.10100
C 	C 	0.96700 0.07270 0.53510 0.06700
C 	C 	0.75730 0.76370 0.85080 0.06100
C 	C 	0.76480 0.87910 0.02700 0.06900
C 	C 	0.82010 0.99800 0.41430 0.09700
C 	C 	0.78800 0.00760 0.34960 0.05700
C 	C 	0.76420 0.93510 0.11280 0.07700
H 	H 	0.78520 0.94120 0.15270 -0.00700
C 	C 	0.79620 0.89050 0.08620 -0.13000
H 	H 	0.83830 0.86840 0.10800 0.08400
C 	C 	0.79540 0.82780 0.99690 0.10300
C 	C 	0.78540 0.89900 0.52390 0.04700
C 	C 	0.97440 0.66500 0.00220 -0.13900
H 	H 	0.95720 0.66900 0.96210 0.07400
C 	C 	0.67480 0.95900 0.02660 0.08700
H 	H 	0.63260 0.98170 0.00620 -0.01200
C 	C 	0.81440 0.88940 0.58330 -0.12200
H 	H 	0.85660 0.91110 0.60560 0.07500
C 	C 	0.69350 0.81920 0.52210 0.06300
H 	H 	0.65240 0.79430 0.50090 -0.00500
C 	C 	0.69380 0.99490 0.25920 0.07400
H 	H 	0.64990 0.97720 0.23820 -0.02400
C 	C 	0.03310 0.62650 0.03270 0.06700
H 	H 	0.05570 0.60450 0.01240 -0.01700
C 	C 	0.02700 0.64790 0.11800 0.05900
H 	H 	0.04410 0.63980 0.15780 -0.01400
C 	C 	0.78890 0.05390 0.26160 0.07000
H 	H 	0.81190 0.07850 0.24260 -0.01000
C 	C 	0.75440 0.70580 0.76450 0.07000
H 	H 	0.77320 0.67100 0.74690 -0.01600
C 	C 	0.99850 0.07220 0.59470 -0.13700
H 	H 	0.98090 0.04250 0.61600 0.08000
C 	C 	0.05620 0.11630 0.62220 0.08100
H 	H 	0.07520 0.11880 0.66240 -0.00400
C 	C 	0.69800 0.80020 0.81720 -0.13900
H 	H 	0.67520 0.83080 0.83370 0.08300
C 	C 	0.78550 0.71290 0.82350 -0.13500
H 	H 	0.82470 0.68440 0.84510 0.07100
C 	C 	0.72230 0.98400 0.31840 -0.14500
H 	H 	0.69780 0.96140 0.33680 0.07500
C 	C 	0.67230 0.79050 0.75740 0.08100
H 	H 	0.63310 0.81820 0.73470 -0.01700
N 	N 	0.08680 0.15580 0.59450 -0.18700
N 	N 	0.72070 0.81290 0.57930 -0.20100
N 	N 	0.72470 0.02900 0.23010 -0.19500
N 	N 	0.87720 0.03720 0.44290 -0.13700
N 	N 	0.87480 0.98690 0.52890 -0.14200
N 	N 	0.78910 0.95020 0.43720 -0.15000
N 	N 	0.70450 0.96980 0.08340 -0.19000
N 	N 	0.06040 0.61820 0.08950 -0.20900
N 	N 	0.69920 0.74550 0.73080 -0.19700
N 	N 	0.76230 0.82290 0.93900 -0.13700
N 	N 	0.85240 0.79000 0.02940 -0.13800
N 	N 	0.84750 0.73370 0.94250 -0.14200
Ag	Ag	0.67830 0.25614 0.13357 0.51300
Ag	Ag	0.15575 0.45668 0.63311 0.50900
C 	C 	0.40250 0.47170 0.00110 0.10000
C 	C 	0.37660 0.75600 0.49960 0.09900
C 	C 	0.44030 0.80130 0.53200 0.06100
C 	C 	0.22360 0.63850 0.99190 -0.12100
H 	H 	0.20310 0.63540 0.95170 0.07100
C 	C 	0.49640 0.38500 0.00520 -0.13300
H 	H 	0.47670 0.38350 0.96500 0.08600
C 	C 	0.20250 0.58360 0.49620 -0.13100
H 	H 	0.18050 0.58770 0.45610 0.08400
C 	C 	0.46750 0.80960 0.59060 -0.13700
H 	H 	0.44650 0.78710 0.61200 0.08100
C 	C 	0.31860 0.55220 0.99500 0.09800
C 	C 	0.28020 0.65290 0.10950 0.05000
H 	H 	0.29960 0.65750 0.14960 -0.01900
C 	C 	0.55630 0.34490 0.03720 0.08300
H 	H 	0.57620 0.31670 0.01710 -0.01100
C 	C 	0.32100 0.45600 0.82060 -0.13300
H 	H 	0.36500 0.43820 0.84100 0.08100
C 	C 	0.29040 0.72600 0.41420 0.10100
C 	C 	0.46700 0.42730 0.03510 0.06700
C 	C 	0.25730 0.73630 0.35080 0.06100
C 	C 	0.26480 0.62090 0.52700 0.06700
C 	C 	0.32010 0.50200 0.91430 0.09700
C 	C 	0.28800 0.49240 0.84960 0.05700
C 	C 	0.26420 0.56490 0.61280 0.07600
H 	H 	0.28520 0.55880 0.65270 -0.00600
C 	C 	0.29620 0.60950 0.58620 -0.12900
H 	H 	0.33830 0.63160 0.60800 0.08300
C 	C 	0.29540 0.67220 0.49690 0.10400
C 	C 	0.28540 0.60100 0.02390 0.04500
C 	C 	0.47440 0.83500 0.50220 -0.14400
H 	H 	0.45720 0.83100 0.46210 0.07600
C 	C 	0.17480 0.54100 0.52660 0.08500
H 	H 	0.13260 0.51830 0.50620 -0.01100
C 	C 	0.31440 0.61060 0.08330 -0.12100
H 	H 	0.35660 0.58890 0.10560 0.07400
C 	C 	0.19350 0.68080 0.02210 0.06100
H 	H 	0.15240 0.70570 0.00090 -0.00500
C 	C 	0.19380 0.50510 0.75920 0.07400
H 	H 	0.14990 0.52280 0.73820 -0.02400
C 	C 	0.53310 0.87350 0.53270 0.07100
H 	H 	0.55570 0.89550 0.51240 -0.01800
C 	C 	0.52700 0.85210 0.61800 0.06100
H 	H 	0.54410 0.86020 0.65780 -0.01400
C 	C 	0.28890 0.44610 0.76160 0.07000
H 	H 	0.31190 0.42150 0.74260 -0.01000
C 	C 	0.25440 0.79420 0.26450 0.07000
H 	H 	0.27320 0.82900 0.24690 -0.01600
C 	C 	0.49850 0.42780 0.09470 -0.13700
H 	H 	0.48090 0.45750 0.11600 0.08000
C 	C 	0.55620 0.38370 0.12220 0.08100
H 	H 	0.57520 0.38120 0.16240 -0.00400
C 	C 	0.19800 0.69980 0.31720 -0.13900
H 	H 	0.17520 0.66920 0.33370 0.08300
C 	C 	0.28550 0.78710 0.32350 -0.13500
H 	H 	0.32470 0.81560 0.34510 0.07100
C 	C 	0.22230 0.51600 0.81840 -0.14500
H 	H 	0.19780 0.53860 0.83680 0.07500
C 	C 	0.17230 0.70950 0.25740 0.08100
H 	H 	0.13310 0.68180 0.23470 -0.01700
N 	N 	0.58680 0.34420 0.09450 -0.18700
N 	N 	0.22070 0.68710 0.07930 -0.20100
N 	N 	0.22470 0.47100 0.73010 -0.19500
N 	N 	0.37720 0.46280 0.94290 -0.13700
N 	N 	0.37480 0.51310 0.02890 -0.14300
N 	N 	0.28910 0.54980 0.93720 -0.15000
N 	N 	0.20450 0.53020 0.58340 -0.19000
N 	N 	0.56040 0.88180 0.58950 -0.20900
N 	N 	0.19920 0.75450 0.23080 -0.19700
N 	N 	0.26230 0.67710 0.43900 -0.13700
N 	N 	0.35240 0.71000 0.52940 -0.13800
N 	N 	0.34750 0.76630 0.44250 -0.14200
Ag	Ag	0.17830 0.75614 0.13357 0.51300
Ag	Ag	0.65575 0.95668 0.63311 0.50900
C 	C 	0.90250 0.97170 0.00110 0.10200
C 	C 	0.87660 0.25600 0.49960 0.09900
C 	C 	0.94030 0.30130 0.53200 0.06200
C 	C 	0.72360 0.13850 0.99190 -0.12700
H 	H 	0.70310 0.13540 0.95170 0.07300
C 	C 	0.99640 0.88500 0.00520 -0.12800
H 	H 	0.97670 0.88350 0.96500 0.08400
C 	C 	0.70250 0.08360 0.49620 -0.13100
H 	H 	0.68050 0.08770 0.45610 0.08400
C 	C 	0.96750 0.30960 0.59060 -0.13800
H 	H 	0.94650 0.28710 0.61200 0.08100
C 	C 	0.81860 0.05220 0.99500 0.09500
C 	C 	0.78020 0.15290 0.10950 0.05200
H 	H 	0.79960 0.15750 0.14960 -0.02000
C 	C 	0.05630 0.84490 0.03720 0.07900
H 	H 	0.07620 0.81670 0.01710 -0.01000
C 	C 	0.82100 0.95600 0.82060 -0.13300
H 	H 	0.86500 0.93820 0.84100 0.08100
C 	C 	0.79040 0.22600 0.41420 0.10100
C 	C 	0.96700 0.92730 0.03510 0.06400
C 	C 	0.75730 0.23630 0.35080 0.06100
C 	C 	0.76480 0.12090 0.52700 0.06700
C 	C 	0.82010 0.00200 0.91430 0.09600
C 	C 	0.78800 0.99240 0.84960 0.05700
C 	C 	0.76420 0.06490 0.61280 0.07600
H 	H 	0.78520 0.05880 0.65270 -0.00600
C 	C 	0.79620 0.10950 0.58620 -0.12900
H 	H 	0.83830 0.13160 0.60800 0.08300
C 	C 	0.79540 0.17220 0.49690 0.10400
C 	C 	0.78540 0.10100 0.02390 0.05000
C 	C 	0.97440 0.33500 0.50220 -0.14400
H 	H 	0.95720 0.33100 0.46210 0.07600
C 	C 	0.67480 0.04100 0.52660 0.08500
H 	H 	0.63260 0.01830 0.50620 -0.01100
C 	C 	0.81440 0.11060 0.08330 -0.12400
H 	H 	0.85660 0.08890 0.10560 0.07500
C 	C 	0.69350 0.18080 0.02210 0.06500
H 	H 	0.65240 0.20570 0.00090 -0.00600
C 	C 	0.69380 0.00510 0.75920 0.07400
H 	H 	0.64990 0.02280 0.73820 -0.02400
C 	C 	0.03310 0.37350 0.53270 0.07100
H 	H 	0.05570 0.39550 0.51240 -0.01800
C 	C 	0.02700 0.35210 0.61800 0.06100
H 	H 	0.04410 0.36020 0.65780 -0.01400
C 	C 	0.78890 0.94610 0.76160 0.07000
H 	H 	0.81190 0.92150 0.74260 -0.01000
C 	C 	0.75440 0.29420 0.26450 0.07000
H 	H 	0.77320 0.32900 0.24690 -0.01600
C 	C 	0.99850 0.92780 0.09470 -0.13300
H 	H 	0.98090 0.95750 0.11600 0.07900
C 	C 	0.05620 0.88370 0.12220 0.07800
H 	H 	0.07520 0.88120 0.16240 -0.00400
C 	C 	0.69800 0.19980 0.31720 -0.13900
H 	H 	0.67520 0.16920 0.33370 0.08300
C 	C 	0.78550 0.28710 0.32350 -0.13500
H 	H 	0.82470 0.31560 0.34510 0.07100
C 	C 	0.72230 0.01600 0.81840 -0.14500
H 	H 	0.69780 0.03860 0.83680 0.07500
C 	C 	0.67230 0.20950 0.25740 0.08100
H 	H 	0.63310 0.18180 0.23470 -0.01700
N 	N 	0.08680 0.84420 0.09450 -0.18600
N 	N 	0.72070 0.18710 0.07930 -0.20200
N 	N 	0.72470 0.97100 0.73010 -0.19500
N 	N 	0.87720 0.96280 0.94290 -0.13800
N 	N 	0.87480 0.01310 0.02890 -0.14200
N 	N 	0.78910 0.04980 0.93720 -0.15000
N 	N 	0.70450 0.03020 0.58340 -0.19000
N 	N 	0.06040 0.38180 0.58950 -0.21000
N 	N 	0.69920 0.25450 0.23080 -0.19700
N 	N 	0.76230 0.17710 0.43900 -0.13700
N 	N 	0.85240 0.21000 0.52940 -0.13800
N 	N 	0.84750 0.26630 0.44250 -0.14200
Ag	Ag	0.32170 0.25614 0.36643 0.51300
Ag	Ag	0.84425 0.45668 0.86689 0.50900
C 	C 	0.59750 0.47170 0.49890 0.10000
C 	C 	0.62340 0.75600 0.00040 0.09900
C 	C 	0.55970 0.80130 0.96800 0.06100
C 	C 	0.77640 0.63850 0.50810 -0.12400
H 	H 	0.79690 0.63540 0.54830 0.07100
C 	C 	0.50360 0.38500 0.49480 -0.13300
H 	H 	0.52330 0.38350 0.53500 0.08600
C 	C 	0.79750 0.58360 0.00380 -0.12800
H 	H 	0.81950 0.58770 0.04390 0.08400
C 	C 	0.53250 0.80960 0.90940 -0.13700
H 	H 	0.55350 0.78710 0.88800 0.08100
C 	C 	0.68140 0.55220 0.50500 0.09700
C 	C 	0.71980 0.65290 0.39050 0.05000
H 	H 	0.70040 0.65750 0.35040 -0.01900
C 	C 	0.44370 0.34490 0.46280 0.08300
H 	H 	0.42380 0.31670 0.48290 -0.01100
C 	C 	0.67900 0.45600 0.67940 -0.13300
H 	H 	0.63500 0.43820 0.65900 0.08100
C 	C 	0.70960 0.72600 0.08580 0.10100
C 	C 	0.53300 0.42730 0.46490 0.06700
C 	C 	0.74270 0.73630 0.14920 0.06100
C 	C 	0.73520 0.62090 0.97300 0.06500
C 	C 	0.67990 0.50200 0.58570 0.09700
C 	C 	0.71200 0.49240 0.65040 0.05700
C 	C 	0.73580 0.56490 0.88720 0.07500
H 	H 	0.71480 0.55880 0.84730 -0.00600
C 	C 	0.70380 0.60950 0.91380 -0.12700
H 	H 	0.66170 0.63160 0.89200 0.08300
C 	C 	0.70460 0.67220 0.00310 0.10500
C 	C 	0.71460 0.60100 0.47610 0.04700
C 	C 	0.52560 0.83500 0.99780 -0.14400
H 	H 	0.54280 0.83100 0.03790 0.07600
C 	C 	0.82520 0.54100 0.97340 0.08300
H 	H 	0.86740 0.51830 0.99380 -0.01100
C 	C 	0.68560 0.61060 0.41670 -0.12200
H 	H 	0.64340 0.58890 0.39440 0.07500
C 	C 	0.80650 0.68080 0.47790 0.06300
H 	H 	0.84760 0.70570 0.49910 -0.00500
C 	C 	0.80620 0.50510 0.74080 0.07400
H 	H 	0.85010 0.52280 0.76180 -0.02400
C 	C 	0.46690 0.87350 0.96730 0.07100
H 	H 	0.44430 0.89550 0.98760 -0.01800
C 	C 	0.47300 0.85210 0.88200 0.06100
H 	H 	0.45590 0.86020 0.84220 -0.01400
C 	C 	0.71110 0.44610 0.73840 0.07000
H 	H 	0.68810 0.42150 0.75740 -0.01000
C 	C 	0.74560 0.79420 0.23550 0.07000
H 	H 	0.72680 0.82900 0.25310 -0.01600
C 	C 	0.50150 0.42780 0.40530 -0.13700
H 	H 	0.51910 0.45750 0.38400 0.08000
C 	C 	0.44380 0.38370 0.37780 0.08100
H 	H 	0.42480 0.38120 0.33760 -0.00400
C 	C 	0.80200 0.69980 0.18280 -0.13900
H 	H 	0.82480 0.66920 0.16630 0.08300
C 	C 	0.71450 0.78710 0.17650 -0.13500
H 	H 	0.67530 0.81560 0.15490 0.07100
C 	C 	0.77770 0.51600 0.68160 -0.14500
H 	H 	0.80220 0.53860 0.66320 0.07500
C 	C 	0.82770 0.70950 0.24260 0.08100
H 	H 	0.86690 0.68180 0.26530 -0.01700
N 	N 	0.41320 0.34420 0.40550 -0.18700
N 	N 	0.77930 0.68710 0.42070 -0.20100
N 	N 	0.77530 0.47100 0.76990 -0.19500
N 	N 	0.62280 0.46280 0.55710 -0.13700
N 	N 	0.62520 0.51310 0.47110 -0.14200
N 	N 	0.71090 0.54980 0.56280 -0.15000
N 	N 	0.79550 0.53020 0.91660 -0.19000
N 	N 	0.43960 0.88180 0.91050 -0.20900
N 	N 	0.80080 0.75450 0.26920 -0.19700
N 	N 	0.73770 0.67710 0.06100 -0.13800
N 	N 	0.64760 0.71000 0.97060 -0.13900
N 	N 	0.65250 0.76630 0.05750 -0.14200
Ag	Ag	0.82170 0.75614 0.36643 0.51300
Ag	Ag	0.34425 0.95668 0.86689 0.50900
C 	C 	0.09750 0.97170 0.49890 0.10000
C 	C 	0.12340 0.25600 0.00040 0.09800
C 	C 	0.05970 0.30130 0.96800 0.06000
C 	C 	0.27640 0.13850 0.50810 -0.12400
H 	H 	0.29690 0.13540 0.54830 0.07200
C 	C 	0.00360 0.88500 0.49480 -0.13300
H 	H 	0.02330 0.88350 0.53500 0.08600
C 	C 	0.29750 0.08360 0.00380 -0.13400
H 	H 	0.31950 0.08770 0.04390 0.08500
C 	C 	0.03250 0.30960 0.90940 -0.13500
H 	H 	0.05350 0.28710 0.88800 0.08000
C 	C 	0.18140 0.05220 0.50500 0.09700
C 	C 	0.21980 0.15290 0.39050 0.05000
H 	H 	0.20040 0.15750 0.35040 -0.01900
C 	C 	0.94370 0.84490 0.46280 0.08300
H 	H 	0.92380 0.81670 0.48290 -0.01100
C 	C 	0.17900 0.95600 0.67940 -0.13300
H 	H 	0.13500 0.93820 0.65900 0.08100
C 	C 	0.20960 0.22600 0.08580 0.10100
C 	C 	0.03300 0.92730 0.46490 0.06700
C 	C 	0.24270 0.23630 0.14920 0.06100
C 	C 	0.23520 0.12090 0.97300 0.06900
C 	C 	0.17990 0.00200 0.58570 0.09700
C 	C 	0.21200 0.99240 0.65040 0.05700
C 	C 	0.23580 0.06490 0.88720 0.07700
H 	H 	0.21480 0.05880 0.84730 -0.00700
C 	C 	0.20380 0.10950 0.91380 -0.13000
H 	H 	0.16170 0.13160 0.89200 0.08400
C 	C 	0.20460 0.17220 0.00310 0.10300
C 	C 	0.21460 0.10100 0.47610 0.04700
C 	C 	0.02560 0.33500 0.99780 -0.13900
H 	H 	0.04280 0.33100 0.03790 0.07400
C 	C 	0.32520 0.04100 0.97340 0.08700
H 	H 	0.36740 0.01830 0.99380 -0.01200
C 	C 	0.18560 0.11060 0.41670 -0.12200
H 	H 	0.14340 0.08890 0.39440 0.07500
C 	C 	0.30650 0.18080 0.47790 0.06300
H 	H 	0.34760 0.20570 0.49910 -0.00500
C 	C 	0.30620 0.00510 0.74080 0.07400
H 	H 	0.35010 0.02280 0.76180 -0.02400
C 	C 	0.96690 0.37350 0.96730 0.06700
H 	H 	0.94430 0.39550 0.98760 -0.01700
C 	C 	0.97300 0.35210 0.88200 0.05900
H 	H 	0.95590 0.36020 0.84220 -0.01400
C 	C 	0.21110 0.94610 0.73840 0.07000
H 	H 	0.18810 0.92150 0.75740 -0.01000
C 	C 	0.24560 0.29420 0.23550 0.07000
H 	H 	0.22680 0.32900 0.25310 -0.01600
C 	C 	0.00150 0.92780 0.40530 -0.13700
H 	H 	0.01910 0.95750 0.38400 0.08000
C 	C 	0.94380 0.88370 0.37780 0.08100
H 	H 	0.92480 0.88120 0.33760 -0.00400
C 	C 	0.30200 0.19980 0.18280 -0.13900
H 	H 	0.32480 0.16920 0.16630 0.08300
C 	C 	0.21450 0.28710 0.17650 -0.13500
H 	H 	0.17530 0.31560 0.15490 0.07100
C 	C 	0.27770 0.01600 0.68160 -0.14500
H 	H 	0.30220 0.03860 0.66320 0.07500
C 	C 	0.32770 0.20950 0.24260 0.08100
H 	H 	0.36690 0.18180 0.26530 -0.01700
N 	N 	0.91320 0.84420 0.40550 -0.18700
N 	N 	0.27930 0.18710 0.42070 -0.20100
N 	N 	0.27530 0.97100 0.76990 -0.19500
N 	N 	0.12280 0.96280 0.55710 -0.13700
N 	N 	0.12520 0.01310 0.47110 -0.14200
N 	N 	0.21090 0.04980 0.56280 -0.15000
N 	N 	0.29550 0.03020 0.91660 -0.19000
N 	N 	0.93960 0.38180 0.91050 -0.20900
N 	N 	0.30080 0.25450 0.26920 -0.19700
N 	N 	0.23770 0.17710 0.06100 -0.13700
N 	N 	0.14760 0.21000 0.97060 -0.13800
N 	N 	0.15250 0.26630 0.05750 -0.14200
