data_crystal

_cell_length_a 22.07650
_cell_length_b 16.31580
_cell_length_c 25.68000
_cell_angle_alpha 90.00000
_cell_angle_beta  115.41600
_cell_angle_gamma 90.00000

_symmetry_space_group_name_	'P 1'
_symmetry_space_group_name_H-M	'P 1'

loop_
_symmetry_equiv_pos_as_xyz
  x,y,z

loop_
_atom_site_label
_atom_site_type_symbol
_atom_site_fract_x
_atom_site_fract_y
_atom_site_fract_z
_atom_site_charge
Ag	Ag	0.82280 0.24959 0.86741 0.51200
Ag	Ag	0.34348 0.45725 0.36767 0.50800
C 	C 	0.00206 0.38270 0.99671 -0.12500
H 	H 	0.02150 0.38180 0.03680 0.08200
C 	C 	0.03290 0.81200 0.41119 -0.13000
H 	H 	0.05440 0.79050 0.39000 0.07700
C 	C 	0.12390 0.75750 0.50268 0.09900
C 	C 	0.05978 0.80210 0.47046 0.05200
C 	C 	0.27750 0.63690 0.00955 -0.12500
H 	H 	0.29830 0.63380 0.04960 0.07100
C 	C 	0.23588 0.56670 0.38856 0.07100
H 	H 	0.21400 0.56040 0.34880 -0.00500
C 	C 	0.21950 0.65050 0.89247 0.05100
H 	H 	0.19930 0.65530 0.85250 -0.02000
C 	C 	0.94266 0.34240 0.96551 0.07400
H 	H 	0.92230 0.31520 0.98560 -0.00800
C 	C 	0.09703 0.46860 0.00150 0.10000
C 	C 	0.02603 0.83620 0.50012 -0.13100
H 	H 	0.04360 0.83200 0.54000 0.07000
C 	C 	0.20969 0.72630 0.58792 0.10200
C 	C 	0.96628 0.87610 0.46948 0.05200
H 	H 	0.94370 0.89790 0.48960 -0.01200
C 	C 	0.03248 0.42470 0.96740 0.06000
C 	C 	0.30580 0.50690 0.24289 0.06400
H 	H 	0.34980 0.52430 0.26380 -0.02100
C 	C 	0.21522 0.59980 0.97813 0.04800
C 	C 	0.17740 0.45670 0.18173 -0.12800
H 	H 	0.13340 0.43860 0.16180 0.07800
C 	C 	0.00162 0.42450 0.90749 -0.12800
H 	H 	0.02020 0.45320 0.88660 0.07700
C 	C 	0.32611 0.54060 0.47437 0.07500
H 	H 	0.36780 0.51640 0.49480 -0.00800
C 	C 	0.24281 0.73610 0.65192 0.05500
C 	C 	0.32660 0.70250 0.74469 0.07100
H 	H 	0.36530 0.67340 0.76720 -0.01500
C 	C 	0.30760 0.67870 0.97963 0.06000
H 	H 	0.34900 0.70340 0.00060 -0.00400
C 	C 	0.29848 0.58440 0.50512 -0.12300
H 	H 	0.32090 0.58860 0.54500 0.08200
C 	C 	0.97348 0.85450 0.38442 0.05600
H 	H 	0.95640 0.86250 0.34480 -0.01200
C 	C 	0.17909 0.50210 0.08844 0.09700
C 	C 	0.20600 0.67270 0.50572 0.10400
C 	C 	0.94273 0.38100 0.87967 0.07200
H 	H 	0.92300 0.37980 0.83960 -0.00100
C 	C 	0.27680 0.51770 0.18374 -0.13500
H 	H 	0.30100 0.54120 0.16550 0.07200
C 	C 	0.18585 0.60800 0.91853 -0.12300
H 	H 	0.14400 0.58510 0.89640 0.07500
C 	C 	0.18198 0.55040 0.00718 0.09500
C 	C 	0.21020 0.44820 0.24074 0.06900
H 	H 	0.18730 0.42450 0.26000 -0.00900
C 	C 	0.23636 0.62200 0.47502 0.06200
C 	C 	0.21073 0.49280 0.15211 0.04900
C 	C 	0.20471 0.61170 0.41534 -0.12300
H 	H 	0.16290 0.63510 0.39380 0.08100
C 	C 	0.21510 0.78780 0.67851 -0.12700
H 	H 	0.17730 0.81880 0.65670 0.06800
C 	C 	0.24440 0.79290 0.73784 0.06100
H 	H 	0.22550 0.82800 0.75530 -0.01100
C 	C 	0.30120 0.69450 0.68564 -0.13100
H 	H 	0.32270 0.66210 0.66890 0.08100
N 	N 	0.91234 0.34010 0.90746 -0.18200
N 	N 	0.27410 0.47260 0.27180 -0.19400
N 	N 	0.27963 0.68523 0.92160 -0.20100
N 	N 	0.12583 0.50940 0.97338 -0.14000
N 	N 	0.12131 0.46200 0.05897 -0.13600
N 	N 	0.21046 0.54880 0.06488 -0.14800
N 	N 	0.29632 0.53110 0.41691 -0.18700
N 	N 	0.93886 0.88510 0.41184 -0.20700
N 	N 	0.29904 0.74940 0.77171 -0.19400
N 	N 	0.14806 0.71050 0.47292 -0.13800
N 	N 	0.15314 0.76830 0.55984 -0.14200
N 	N 	0.23848 0.67730 0.56333 -0.13800
Ag	Ag	0.32280 0.74959 0.86741 0.51300
Ag	Ag	0.84348 0.95725 0.36767 0.50900
C 	C 	0.50206 0.88270 0.99671 -0.12700
H 	H 	0.52150 0.88180 0.03680 0.08400
C 	C 	0.53290 0.31200 0.41119 -0.12900
H 	H 	0.55440 0.29050 0.39000 0.07800
C 	C 	0.62390 0.25750 0.50268 0.10000
C 	C 	0.55978 0.30210 0.47046 0.05300
C 	C 	0.77750 0.13690 0.00955 -0.11600
H 	H 	0.79830 0.13380 0.04960 0.07000
C 	C 	0.73588 0.06670 0.38856 0.07200
H 	H 	0.71400 0.06040 0.34880 -0.00400
C 	C 	0.71950 0.15050 0.89247 0.05000
H 	H 	0.69930 0.15530 0.85250 -0.01800
C 	C 	0.44266 0.84240 0.96551 0.07700
H 	H 	0.42230 0.81520 0.98560 -0.00700
C 	C 	0.59703 0.96860 0.00150 0.10200
C 	C 	0.52603 0.33620 0.50012 -0.12900
H 	H 	0.54360 0.33200 0.54000 0.07100
C 	C 	0.70969 0.22630 0.58792 0.10300
C 	C 	0.46628 0.37610 0.46948 0.05300
H 	H 	0.44370 0.39790 0.48960 -0.01100
C 	C 	0.53248 0.92470 0.96740 0.06200
C 	C 	0.80580 0.00690 0.24289 0.06400
H 	H 	0.84980 0.02430 0.26380 -0.02000
C 	C 	0.71522 0.09980 0.97813 0.04300
C 	C 	0.67740 0.95670 0.18173 -0.12700
H 	H 	0.63340 0.93860 0.16180 0.07900
C 	C 	0.50162 0.92450 0.90749 -0.12900
H 	H 	0.52020 0.95320 0.88660 0.07800
C 	C 	0.82611 0.04060 0.47437 0.07600
H 	H 	0.86780 0.01640 0.49480 -0.00700
C 	C 	0.74281 0.23610 0.65192 0.05600
C 	C 	0.82660 0.20250 0.74469 0.07200
H 	H 	0.86530 0.17340 0.76720 -0.01500
C 	C 	0.80760 0.17870 0.97963 0.05300
H 	H 	0.84900 0.20340 0.00060 -0.00100
C 	C 	0.79848 0.08440 0.50512 -0.12300
H 	H 	0.82090 0.08860 0.54500 0.08200
C 	C 	0.47348 0.35450 0.38442 0.05600
H 	H 	0.45640 0.36250 0.34480 -0.01200
C 	C 	0.67909 0.00210 0.08844 0.09800
C 	C 	0.70600 0.17270 0.50572 0.10400
C 	C 	0.44273 0.88100 0.87967 0.07300
H 	H 	0.42300 0.87980 0.83960 -0.00200
C 	C 	0.77680 0.01770 0.18374 -0.13400
H 	H 	0.80100 0.04120 0.16550 0.07200
C 	C 	0.68585 0.10800 0.91853 -0.11900
H 	H 	0.64400 0.08510 0.89640 0.07400
C 	C 	0.68198 0.05040 0.00718 0.09800
C 	C 	0.71020 0.94820 0.24074 0.06800
H 	H 	0.68730 0.92450 0.26000 -0.00900
C 	C 	0.73636 0.12200 0.47502 0.06200
C 	C 	0.71073 0.99280 0.15211 0.04900
C 	C 	0.70471 0.11170 0.41534 -0.12300
H 	H 	0.66290 0.13510 0.39380 0.08100
C 	C 	0.71510 0.28780 0.67851 -0.12700
H 	H 	0.67730 0.31880 0.65670 0.06800
C 	C 	0.74440 0.29290 0.73784 0.06100
H 	H 	0.72550 0.32800 0.75530 -0.01100
C 	C 	0.80120 0.19450 0.68564 -0.13100
H 	H 	0.82270 0.16210 0.66890 0.08100
N 	N 	0.41234 0.84010 0.90746 -0.18300
N 	N 	0.77410 0.97260 0.27180 -0.19400
N 	N 	0.77963 0.18523 0.92160 -0.20000
N 	N 	0.62583 0.00940 0.97338 -0.14100
N 	N 	0.62131 0.96200 0.05897 -0.13700
N 	N 	0.71046 0.04880 0.06488 -0.14900
N 	N 	0.79632 0.03110 0.41691 -0.18700
N 	N 	0.43886 0.38510 0.41184 -0.20700
N 	N 	0.79904 0.24940 0.77171 -0.19400
N 	N 	0.64806 0.21050 0.47292 -0.13800
N 	N 	0.65314 0.26830 0.55984 -0.14200
N 	N 	0.73848 0.17730 0.56333 -0.13800
Ag	Ag	0.17720 0.24959 0.63259 0.51300
Ag	Ag	0.65652 0.45725 0.13233 0.50900
C 	C 	0.99794 0.38270 0.50329 -0.12700
H 	H 	0.97850 0.38180 0.46320 0.08400
C 	C 	0.96710 0.81200 0.08881 -0.12900
H 	H 	0.94560 0.79050 0.11000 0.07800
C 	C 	0.87610 0.75750 0.99732 0.09900
C 	C 	0.94022 0.80210 0.02954 0.05400
C 	C 	0.72250 0.63690 0.49045 -0.12000
H 	H 	0.70170 0.63380 0.45040 0.07100
C 	C 	0.76412 0.56670 0.11144 0.07200
H 	H 	0.78600 0.56040 0.15120 -0.00400
C 	C 	0.78050 0.65050 0.60753 0.05100
H 	H 	0.80070 0.65530 0.64750 -0.01800
C 	C 	0.05734 0.34240 0.53449 0.07700
H 	H 	0.07770 0.31520 0.51440 -0.00800
C 	C 	0.90297 0.46860 0.49850 0.10200
C 	C 	0.97397 0.83620 0.99988 -0.13100
H 	H 	0.95640 0.83200 0.96000 0.07200
C 	C 	0.79031 0.72630 0.91208 0.10300
C 	C 	0.03372 0.87610 0.03052 0.05400
H 	H 	0.05630 0.89790 0.01040 -0.01100
C 	C 	0.96752 0.42470 0.53260 0.06200
C 	C 	0.69420 0.50690 0.25711 0.06500
H 	H 	0.65020 0.52430 0.23620 -0.02000
C 	C 	0.78478 0.59980 0.52187 0.04700
C 	C 	0.82260 0.45670 0.31827 -0.12700
H 	H 	0.86660 0.43860 0.33820 0.07900
C 	C 	0.99838 0.42450 0.59251 -0.12900
H 	H 	0.97980 0.45320 0.61340 0.07800
C 	C 	0.67389 0.54060 0.02563 0.07700
H 	H 	0.63220 0.51640 0.00520 -0.00800
C 	C 	0.75719 0.73610 0.84808 0.05600
C 	C 	0.67340 0.70250 0.75531 0.07200
H 	H 	0.63470 0.67340 0.73280 -0.01500
C 	C 	0.69240 0.67870 0.52037 0.05700
H 	H 	0.65100 0.70340 0.49940 -0.00300
C 	C 	0.70152 0.58440 0.99488 -0.12500
H 	H 	0.67910 0.58860 0.95500 0.08200
C 	C 	0.02652 0.85450 0.11558 0.05500
H 	H 	0.04360 0.86250 0.15520 -0.01200
C 	C 	0.82091 0.50210 0.41156 0.09700
C 	C 	0.79400 0.67270 0.99428 0.10300
C 	C 	0.05727 0.38100 0.62033 0.07300
H 	H 	0.07700 0.37980 0.66040 -0.00200
C 	C 	0.72320 0.51770 0.31626 -0.13500
H 	H 	0.69900 0.54120 0.33450 0.07200
C 	C 	0.81415 0.60800 0.58147 -0.12100
H 	H 	0.85600 0.58510 0.60360 0.07500
C 	C 	0.81802 0.55040 0.49282 0.09600
C 	C 	0.78980 0.44820 0.25926 0.06900
H 	H 	0.81270 0.42450 0.24000 -0.00900
C 	C 	0.76364 0.62200 0.02498 0.06400
C 	C 	0.78927 0.49280 0.34789 0.04900
C 	C 	0.79529 0.61170 0.08466 -0.12400
H 	H 	0.83710 0.63510 0.10620 0.08200
C 	C 	0.78490 0.78780 0.82149 -0.12700
H 	H 	0.82270 0.81880 0.84330 0.06800
C 	C 	0.75560 0.79290 0.76216 0.06100
H 	H 	0.77450 0.82800 0.74470 -0.01100
C 	C 	0.69880 0.69450 0.81436 -0.13100
H 	H 	0.67730 0.66210 0.83110 0.08100
N 	N 	0.08766 0.34010 0.59254 -0.18300
N 	N 	0.72590 0.47260 0.22820 -0.19400
N 	N 	0.72037 0.68523 0.57840 -0.20100
N 	N 	0.87417 0.50940 0.52662 -0.14000
N 	N 	0.87869 0.46200 0.44103 -0.13700
N 	N 	0.78954 0.54880 0.43512 -0.14800
N 	N 	0.70368 0.53110 0.08309 -0.18800
N 	N 	0.06114 0.88510 0.08816 -0.20700
N 	N 	0.70096 0.74940 0.72829 -0.19400
N 	N 	0.85194 0.71050 0.02708 -0.13700
N 	N 	0.84686 0.76830 0.94016 -0.14200
N 	N 	0.76152 0.67730 0.93667 -0.13800
Ag	Ag	0.67720 0.74959 0.63259 0.51300
Ag	Ag	0.15652 0.95725 0.13233 0.50900
C 	C 	0.49794 0.88270 0.50329 -0.12700
H 	H 	0.47850 0.88180 0.46320 0.08400
C 	C 	0.46710 0.31200 0.08881 -0.12900
H 	H 	0.44560 0.29050 0.11000 0.07800
C 	C 	0.37610 0.25750 0.99732 0.10000
C 	C 	0.44022 0.30210 0.02954 0.05300
C 	C 	0.22250 0.13690 0.49045 -0.12000
H 	H 	0.20170 0.13380 0.45040 0.07100
C 	C 	0.26412 0.06670 0.11144 0.07100
H 	H 	0.28600 0.06040 0.15120 -0.00400
C 	C 	0.28050 0.15050 0.60753 0.05100
H 	H 	0.30070 0.15530 0.64750 -0.01800
C 	C 	0.55734 0.84240 0.53449 0.07700
H 	H 	0.57770 0.81520 0.51440 -0.00800
C 	C 	0.40297 0.96860 0.49850 0.10200
C 	C 	0.47397 0.33620 0.99988 -0.13000
H 	H 	0.45640 0.33200 0.96000 0.07200
C 	C 	0.29031 0.22630 0.91208 0.10300
C 	C 	0.53372 0.37610 0.03052 0.05400
H 	H 	0.55630 0.39790 0.01040 -0.01100
C 	C 	0.46752 0.92470 0.53260 0.06200
C 	C 	0.19420 0.00690 0.25711 0.06500
H 	H 	0.15020 0.02430 0.23620 -0.02000
C 	C 	0.28478 0.09980 0.52187 0.04700
C 	C 	0.32260 0.95670 0.31827 -0.12700
H 	H 	0.36660 0.93860 0.33820 0.07900
C 	C 	0.49838 0.92450 0.59251 -0.12900
H 	H 	0.47980 0.95320 0.61340 0.07800
C 	C 	0.17389 0.04060 0.02563 0.07500
H 	H 	0.13220 0.01640 0.00520 -0.00700
C 	C 	0.25719 0.23610 0.84808 0.05600
C 	C 	0.17340 0.20250 0.75531 0.07200
H 	H 	0.13470 0.17340 0.73280 -0.01500
C 	C 	0.19240 0.17870 0.52037 0.05700
H 	H 	0.15100 0.20340 0.49940 -0.00300
C 	C 	0.20152 0.08440 0.99488 -0.12300
H 	H 	0.17910 0.08860 0.95500 0.08200
C 	C 	0.52652 0.35450 0.11558 0.05600
H 	H 	0.54360 0.36250 0.15520 -0.01200
C 	C 	0.32091 0.00210 0.41156 0.09700
C 	C 	0.29400 0.17270 0.99428 0.10400
C 	C 	0.55727 0.88100 0.62033 0.07300
H 	H 	0.57700 0.87980 0.66040 -0.00200
C 	C 	0.22320 0.01770 0.31626 -0.13400
H 	H 	0.19900 0.04120 0.33450 0.07200
C 	C 	0.31415 0.10800 0.58147 -0.12100
H 	H 	0.35600 0.08510 0.60360 0.07500
C 	C 	0.31802 0.05040 0.49282 0.09600
C 	C 	0.28980 0.94820 0.25926 0.06900
H 	H 	0.31270 0.92450 0.24000 -0.00900
C 	C 	0.26364 0.12200 0.02498 0.06200
C 	C 	0.28927 0.99280 0.34789 0.04900
C 	C 	0.29529 0.11170 0.08466 -0.12300
H 	H 	0.33710 0.13510 0.10620 0.08100
C 	C 	0.28490 0.28780 0.82149 -0.12700
H 	H 	0.32270 0.31880 0.84330 0.06800
C 	C 	0.25560 0.29290 0.76216 0.06100
H 	H 	0.27450 0.32800 0.74470 -0.01100
C 	C 	0.19880 0.19450 0.81436 -0.13100
H 	H 	0.17730 0.16210 0.83110 0.08100
N 	N 	0.58766 0.84010 0.59254 -0.18300
N 	N 	0.22590 0.97260 0.22820 -0.19400
N 	N 	0.22037 0.18523 0.57840 -0.20100
N 	N 	0.37417 0.00940 0.52662 -0.14000
N 	N 	0.37869 0.96200 0.44103 -0.13700
N 	N 	0.28954 0.04880 0.43512 -0.14800
N 	N 	0.20368 0.03110 0.08309 -0.18700
N 	N 	0.56114 0.38510 0.08816 -0.20700
N 	N 	0.20096 0.24940 0.72829 -0.19400
N 	N 	0.35194 0.21050 0.02708 -0.13800
N 	N 	0.34686 0.26830 0.94016 -0.14200
N 	N 	0.26152 0.17730 0.93667 -0.13800
Ag	Ag	0.17720 0.75041 0.13259 0.51300
Ag	Ag	0.65652 0.54275 0.63233 0.50900
C 	C 	0.99794 0.61730 0.00329 -0.12400
H 	H 	0.97850 0.61820 0.96320 0.08300
C 	C 	0.96710 0.18800 0.58881 -0.12900
H 	H 	0.94560 0.20950 0.61000 0.07800
C 	C 	0.87610 0.24250 0.49732 0.10000
C 	C 	0.94022 0.19790 0.52954 0.05300
C 	C 	0.72250 0.36310 0.99045 -0.12400
H 	H 	0.70170 0.36620 0.95040 0.07200
C 	C 	0.76412 0.43330 0.61144 0.07200
H 	H 	0.78600 0.43960 0.65120 -0.00400
C 	C 	0.78050 0.34950 0.10753 0.05200
H 	H 	0.80070 0.34470 0.14750 -0.01900
C 	C 	0.05734 0.65760 0.03449 0.07500
H 	H 	0.07770 0.68480 0.01440 -0.00700
C 	C 	0.90297 0.53140 0.99850 0.10100
C 	C 	0.97397 0.16380 0.49988 -0.13000
H 	H 	0.95640 0.16800 0.46000 0.07100
C 	C 	0.79031 0.27370 0.41208 0.10300
C 	C 	0.03372 0.12390 0.53052 0.05300
H 	H 	0.05630 0.10210 0.51040 -0.01100
C 	C 	0.96752 0.57530 0.03260 0.06100
C 	C 	0.69420 0.49310 0.75711 0.06500
H 	H 	0.65020 0.47570 0.73620 -0.02000
C 	C 	0.78478 0.40020 0.02187 0.04900
C 	C 	0.82260 0.54330 0.81827 -0.12700
H 	H 	0.86660 0.56140 0.83820 0.07900
C 	C 	0.99838 0.57550 0.09251 -0.12700
H 	H 	0.97980 0.54680 0.11340 0.07800
C 	C 	0.67389 0.45940 0.52563 0.07600
H 	H 	0.63220 0.48360 0.50520 -0.00700
C 	C 	0.75719 0.26390 0.34808 0.05600
C 	C 	0.67340 0.29750 0.25531 0.07200
H 	H 	0.63470 0.32660 0.23280 -0.01500
C 	C 	0.69240 0.32130 0.02037 0.06000
H 	H 	0.65100 0.29660 0.99940 -0.00400
C 	C 	0.70152 0.41560 0.49488 -0.12300
H 	H 	0.67910 0.41140 0.45500 0.08200
C 	C 	0.02652 0.14550 0.61558 0.05600
H 	H 	0.04360 0.13750 0.65520 -0.01200
C 	C 	0.82091 0.49790 0.91156 0.09700
C 	C 	0.79400 0.32730 0.49428 0.10400
C 	C 	0.05727 0.61900 0.12033 0.07200
H 	H 	0.07700 0.62020 0.16040 -0.00100
C 	C 	0.72320 0.48230 0.81626 -0.13500
H 	H 	0.69900 0.45880 0.83450 0.07200
C 	C 	0.81415 0.39200 0.08147 -0.12300
H 	H 	0.85600 0.41490 0.10360 0.07500
C 	C 	0.81802 0.44960 0.99282 0.09500
C 	C 	0.78980 0.55180 0.75926 0.06900
H 	H 	0.81270 0.57550 0.74000 -0.00900
C 	C 	0.76364 0.37800 0.52498 0.06200
C 	C 	0.78927 0.50720 0.84789 0.04900
C 	C 	0.79529 0.38830 0.58466 -0.12300
H 	H 	0.83710 0.36490 0.60620 0.08100
C 	C 	0.78490 0.21220 0.32149 -0.12700
H 	H 	0.82270 0.18120 0.34330 0.06800
C 	C 	0.75560 0.20710 0.26216 0.06100
H 	H 	0.77450 0.17200 0.24470 -0.01100
C 	C 	0.69880 0.30550 0.31436 -0.13100
H 	H 	0.67730 0.33790 0.33110 0.08100
N 	N 	0.08766 0.65990 0.09254 -0.18200
N 	N 	0.72590 0.52740 0.72820 -0.19400
N 	N 	0.72037 0.31477 0.07840 -0.20100
N 	N 	0.87417 0.49060 0.02662 -0.14000
N 	N 	0.87869 0.53800 0.94103 -0.13600
N 	N 	0.78954 0.45120 0.93512 -0.14800
N 	N 	0.70368 0.46890 0.58309 -0.18700
N 	N 	0.06114 0.11490 0.58816 -0.20700
N 	N 	0.70096 0.25060 0.22829 -0.19400
N 	N 	0.85194 0.28950 0.52708 -0.13800
N 	N 	0.84686 0.23170 0.44016 -0.14200
N 	N 	0.76152 0.32270 0.43667 -0.13800
Ag	Ag	0.67720 0.25041 0.13259 0.51300
Ag	Ag	0.15652 0.04275 0.63233 0.50900
C 	C 	0.49794 0.11730 0.00329 -0.12700
H 	H 	0.47850 0.11820 0.96320 0.08400
C 	C 	0.46710 0.68800 0.58881 -0.12900
H 	H 	0.44560 0.70950 0.61000 0.07800
C 	C 	0.37610 0.74250 0.49732 0.10000
C 	C 	0.44022 0.69790 0.52954 0.05300
C 	C 	0.22250 0.86310 0.99045 -0.11600
H 	H 	0.20170 0.86620 0.95040 0.07000
C 	C 	0.26412 0.93330 0.61144 0.07200
H 	H 	0.28600 0.93960 0.65120 -0.00400
C 	C 	0.28050 0.84950 0.10753 0.05000
H 	H 	0.30070 0.84470 0.14750 -0.01800
C 	C 	0.55734 0.15760 0.03449 0.07700
H 	H 	0.57770 0.18480 0.01440 -0.00700
C 	C 	0.40297 0.03140 0.99850 0.10200
C 	C 	0.47397 0.66380 0.49988 -0.12900
H 	H 	0.45640 0.66800 0.46000 0.07100
C 	C 	0.29031 0.77370 0.41208 0.10300
C 	C 	0.53372 0.62390 0.53052 0.05300
H 	H 	0.55630 0.60210 0.51040 -0.01100
C 	C 	0.46752 0.07530 0.03260 0.06200
C 	C 	0.19420 0.99310 0.75711 0.06400
H 	H 	0.15020 0.97570 0.73620 -0.02000
C 	C 	0.28478 0.90020 0.02187 0.04300
C 	C 	0.32260 0.04330 0.81827 -0.12700
H 	H 	0.36660 0.06140 0.83820 0.07900
C 	C 	0.49838 0.07550 0.09251 -0.12900
H 	H 	0.47980 0.04680 0.11340 0.07800
C 	C 	0.17389 0.95940 0.52563 0.07600
H 	H 	0.13220 0.98360 0.50520 -0.00700
C 	C 	0.25719 0.76390 0.34808 0.05600
C 	C 	0.17340 0.79750 0.25531 0.07200
H 	H 	0.13470 0.82660 0.23280 -0.01500
C 	C 	0.19240 0.82130 0.02037 0.05300
H 	H 	0.15100 0.79660 0.99940 -0.00100
C 	C 	0.20152 0.91560 0.49488 -0.12300
H 	H 	0.17910 0.91140 0.45500 0.08200
C 	C 	0.52652 0.64550 0.61558 0.05600
H 	H 	0.54360 0.63750 0.65520 -0.01200
C 	C 	0.32091 0.99790 0.91156 0.09800
C 	C 	0.29400 0.82730 0.49428 0.10400
C 	C 	0.55727 0.11900 0.12033 0.07300
H 	H 	0.57700 0.12020 0.16040 -0.00200
C 	C 	0.22320 0.98230 0.81626 -0.13400
H 	H 	0.19900 0.95880 0.83450 0.07200
C 	C 	0.31415 0.89200 0.08147 -0.11900
H 	H 	0.35600 0.91490 0.10360 0.07400
C 	C 	0.31802 0.94960 0.99282 0.09800
C 	C 	0.28980 0.05180 0.75926 0.06800
H 	H 	0.31270 0.07550 0.74000 -0.00900
C 	C 	0.26364 0.87800 0.52498 0.06200
C 	C 	0.28927 0.00720 0.84789 0.04900
C 	C 	0.29529 0.88830 0.58466 -0.12300
H 	H 	0.33710 0.86490 0.60620 0.08100
C 	C 	0.28490 0.71220 0.32149 -0.12700
H 	H 	0.32270 0.68120 0.34330 0.06800
C 	C 	0.25560 0.70710 0.26216 0.06100
H 	H 	0.27450 0.67200 0.24470 -0.01100
C 	C 	0.19880 0.80550 0.31436 -0.13100
H 	H 	0.17730 0.83790 0.33110 0.08100
N 	N 	0.58766 0.15990 0.09254 -0.18300
N 	N 	0.22590 0.02740 0.72820 -0.19400
N 	N 	0.22037 0.81477 0.07840 -0.20000
N 	N 	0.37417 0.99060 0.02662 -0.14100
N 	N 	0.37869 0.03800 0.94103 -0.13700
N 	N 	0.28954 0.95120 0.93512 -0.14900
N 	N 	0.20368 0.96890 0.58309 -0.18700
N 	N 	0.56114 0.61490 0.58816 -0.20700
N 	N 	0.20096 0.75060 0.22829 -0.19400
N 	N 	0.35194 0.78950 0.52708 -0.13800
N 	N 	0.34686 0.73170 0.44016 -0.14200
N 	N 	0.26152 0.82270 0.43667 -0.13800
Ag	Ag	0.82280 0.75041 0.36741 0.51300
Ag	Ag	0.34348 0.54275 0.86767 0.50900
C 	C 	0.00206 0.61730 0.49671 -0.12700
H 	H 	0.02150 0.61820 0.53680 0.08400
C 	C 	0.03290 0.18800 0.91119 -0.12900
H 	H 	0.05440 0.20950 0.89000 0.07800
C 	C 	0.12390 0.24250 0.00268 0.09900
C 	C 	0.05978 0.19790 0.97046 0.05400
C 	C 	0.27750 0.36310 0.50955 -0.12000
H 	H 	0.29830 0.36620 0.54960 0.07100
C 	C 	0.23588 0.43330 0.88856 0.07200
H 	H 	0.21400 0.43960 0.84880 -0.00400
C 	C 	0.21950 0.34950 0.39247 0.05100
H 	H 	0.19930 0.34470 0.35250 -0.01800
C 	C 	0.94266 0.65760 0.46551 0.07700
H 	H 	0.92230 0.68480 0.48560 -0.00800
C 	C 	0.09703 0.53140 0.50150 0.10200
C 	C 	0.02603 0.16380 0.00012 -0.13100
H 	H 	0.04360 0.16800 0.04000 0.07200
C 	C 	0.20969 0.27370 0.08792 0.10300
C 	C 	0.96628 0.12390 0.96948 0.05400
H 	H 	0.94370 0.10210 0.98960 -0.01100
C 	C 	0.03248 0.57530 0.46740 0.06200
C 	C 	0.30580 0.49310 0.74289 0.06500
H 	H 	0.34980 0.47570 0.76380 -0.02000
C 	C 	0.21522 0.40020 0.47813 0.04700
C 	C 	0.17740 0.54330 0.68173 -0.12700
H 	H 	0.13340 0.56140 0.66180 0.07900
C 	C 	0.00162 0.57550 0.40749 -0.12900
H 	H 	0.02020 0.54680 0.38660 0.07800
C 	C 	0.32611 0.45940 0.97437 0.07700
H 	H 	0.36780 0.48360 0.99480 -0.00800
C 	C 	0.24281 0.26390 0.15192 0.05600
C 	C 	0.32660 0.29750 0.24469 0.07200
H 	H 	0.36530 0.32660 0.26720 -0.01500
C 	C 	0.30760 0.32130 0.47963 0.05700
H 	H 	0.34900 0.29660 0.50060 -0.00300
C 	C 	0.29848 0.41560 0.00512 -0.12500
H 	H 	0.32090 0.41140 0.04500 0.08200
C 	C 	0.97348 0.14550 0.88442 0.05500
H 	H 	0.95640 0.13750 0.84480 -0.01200
C 	C 	0.17909 0.49790 0.58844 0.09700
C 	C 	0.20600 0.32730 0.00572 0.10300
C 	C 	0.94273 0.61900 0.37967 0.07300
H 	H 	0.92300 0.62020 0.33960 -0.00200
C 	C 	0.27680 0.48230 0.68374 -0.13500
H 	H 	0.30100 0.45880 0.66550 0.07200
C 	C 	0.18585 0.39200 0.41853 -0.12100
H 	H 	0.14400 0.41490 0.39640 0.07500
C 	C 	0.18198 0.44960 0.50718 0.09600
C 	C 	0.21020 0.55180 0.74074 0.06900
H 	H 	0.18730 0.57550 0.76000 -0.00900
C 	C 	0.23636 0.37800 0.97502 0.06400
C 	C 	0.21073 0.50720 0.65211 0.04900
C 	C 	0.20471 0.38830 0.91534 -0.12400
H 	H 	0.16290 0.36490 0.89380 0.08200
C 	C 	0.21510 0.21220 0.17851 -0.12700
H 	H 	0.17730 0.18120 0.15670 0.06800
C 	C 	0.24440 0.20710 0.23784 0.06100
H 	H 	0.22550 0.17200 0.25530 -0.01100
C 	C 	0.30120 0.30550 0.18564 -0.13100
H 	H 	0.32270 0.33790 0.16890 0.08100
N 	N 	0.91234 0.65990 0.40746 -0.18300
N 	N 	0.27410 0.52740 0.77180 -0.19400
N 	N 	0.27963 0.31477 0.42160 -0.20100
N 	N 	0.12583 0.49060 0.47338 -0.14000
N 	N 	0.12131 0.53800 0.55897 -0.13700
N 	N 	0.21046 0.45120 0.56488 -0.14800
N 	N 	0.29632 0.46890 0.91691 -0.18800
N 	N 	0.93886 0.11490 0.91184 -0.20700
N 	N 	0.29904 0.25060 0.27171 -0.19400
N 	N 	0.14806 0.28950 0.97292 -0.13700
N 	N 	0.15314 0.23170 0.05984 -0.14200
N 	N 	0.23848 0.32270 0.06333 -0.13800
Ag	Ag	0.32280 0.25041 0.36741 0.51300
Ag	Ag	0.84348 0.04275 0.86767 0.50900
C 	C 	0.50206 0.11730 0.49671 -0.12700
H 	H 	0.52150 0.11820 0.53680 0.08400
C 	C 	0.53290 0.68800 0.91119 -0.12900
H 	H 	0.55440 0.70950 0.89000 0.07800
C 	C 	0.62390 0.74250 0.00268 0.10000
C 	C 	0.55978 0.69790 0.97046 0.05300
C 	C 	0.77750 0.86310 0.50955 -0.12000
H 	H 	0.79830 0.86620 0.54960 0.07100
C 	C 	0.73588 0.93330 0.88856 0.07100
H 	H 	0.71400 0.93960 0.84880 -0.00400
C 	C 	0.71950 0.84950 0.39247 0.05100
H 	H 	0.69930 0.84470 0.35250 -0.01800
C 	C 	0.44266 0.15760 0.46551 0.07700
H 	H 	0.42230 0.18480 0.48560 -0.00800
C 	C 	0.59703 0.03140 0.50150 0.10200
C 	C 	0.52603 0.66380 0.00012 -0.13000
H 	H 	0.54360 0.66800 0.04000 0.07200
C 	C 	0.70969 0.77370 0.08792 0.10300
C 	C 	0.46628 0.62390 0.96948 0.05400
H 	H 	0.44370 0.60210 0.98960 -0.01100
C 	C 	0.53248 0.07530 0.46740 0.06200
C 	C 	0.80580 0.99310 0.74289 0.06500
H 	H 	0.84980 0.97570 0.76380 -0.02000
C 	C 	0.71522 0.90020 0.47813 0.04700
C 	C 	0.67740 0.04330 0.68173 -0.12700
H 	H 	0.63340 0.06140 0.66180 0.07900
C 	C 	0.50162 0.07550 0.40749 -0.12900
H 	H 	0.52020 0.04680 0.38660 0.07800
C 	C 	0.82611 0.95940 0.97437 0.07500
H 	H 	0.86780 0.98360 0.99480 -0.00700
C 	C 	0.74281 0.76390 0.15192 0.05600
C 	C 	0.82660 0.79750 0.24469 0.07200
H 	H 	0.86530 0.82660 0.26720 -0.01500
C 	C 	0.80760 0.82130 0.47963 0.05700
H 	H 	0.84900 0.79660 0.50060 -0.00300
C 	C 	0.79848 0.91560 0.00512 -0.12300
H 	H 	0.82090 0.91140 0.04500 0.08200
C 	C 	0.47348 0.64550 0.88442 0.05600
H 	H 	0.45640 0.63750 0.84480 -0.01200
C 	C 	0.67909 0.99790 0.58844 0.09700
C 	C 	0.70600 0.82730 0.00572 0.10400
C 	C 	0.44273 0.11900 0.37967 0.07300
H 	H 	0.42300 0.12020 0.33960 -0.00200
C 	C 	0.77680 0.98230 0.68374 -0.13400
H 	H 	0.80100 0.95880 0.66550 0.07200
C 	C 	0.68585 0.89200 0.41853 -0.12100
H 	H 	0.64400 0.91490 0.39640 0.07500
C 	C 	0.68198 0.94960 0.50718 0.09600
C 	C 	0.71020 0.05180 0.74074 0.06900
H 	H 	0.68730 0.07550 0.76000 -0.00900
C 	C 	0.73636 0.87800 0.97502 0.06200
C 	C 	0.71073 0.00720 0.65211 0.04900
C 	C 	0.70471 0.88830 0.91534 -0.12300
H 	H 	0.66290 0.86490 0.89380 0.08100
C 	C 	0.71510 0.71220 0.17851 -0.12700
H 	H 	0.67730 0.68120 0.15670 0.06800
C 	C 	0.74440 0.70710 0.23784 0.06100
H 	H 	0.72550 0.67200 0.25530 -0.01100
C 	C 	0.80120 0.80550 0.18564 -0.13100
H 	H 	0.82270 0.83790 0.16890 0.08100
N 	N 	0.41234 0.15990 0.40746 -0.18300
N 	N 	0.77410 0.02740 0.77180 -0.19400
N 	N 	0.77963 0.81477 0.42160 -0.20100
N 	N 	0.62583 0.99060 0.47338 -0.14000
N 	N 	0.62131 0.03800 0.55897 -0.13700
N 	N 	0.71046 0.95120 0.56488 -0.14800
N 	N 	0.79632 0.96890 0.91691 -0.18700
N 	N 	0.43886 0.61490 0.91184 -0.20700
N 	N 	0.79904 0.75060 0.27171 -0.19400
N 	N 	0.64806 0.78950 0.97292 -0.13800
N 	N 	0.65314 0.73170 0.05984 -0.14200
N 	N 	0.73848 0.82270 0.06333 -0.13800
