data_crystal

_cell_length_a 22.06000
_cell_length_b 16.34720
_cell_length_c 25.67700
_cell_angle_alpha 90.00000
_cell_angle_beta  115.39200
_cell_angle_gamma 90.00000

_symmetry_space_group_name_	'P 1'
_symmetry_space_group_name_H-M	'P 1'

loop_
_symmetry_equiv_pos_as_xyz
  x,y,z

loop_
_atom_site_label
_atom_site_type_symbol
_atom_site_fract_x
_atom_site_fract_y
_atom_site_fract_z
_atom_site_charge
Ag	Ag	0.34370 0.04236 0.36783 0.50800
N 	N 	0.43914 0.11500 0.41198 -0.20700
N 	N 	0.79628 0.46908 0.41715 -0.18700
N 	N 	0.27458 0.02700 0.27197 -0.19500
C 	C 	0.46659 0.12370 0.46983 0.05100
C 	C 	0.47336 0.14550 0.38451 0.05600
C 	C 	0.52626 0.16400 0.50017 -0.12800
H 	H 	0.44420 0.10160 0.49010 -0.01000
C 	C 	0.53309 0.18840 0.41143 -0.12900
H 	H 	0.45620 0.13760 0.34490 -0.01300
C 	C 	0.55995 0.19780 0.47058 0.05300
H 	H 	0.54380 0.16850 0.54010 0.07100
H 	H 	0.55450 0.21020 0.39030 0.07800
C 	C 	0.62415 0.24300 0.50266 0.10200
N 	N 	0.64795 0.28910 0.47297 -0.13800
N 	N 	0.65326 0.23140 0.55986 -0.14200
C 	C 	0.70614 0.32740 0.50561 0.10300
C 	C 	0.70980 0.27350 0.58774 0.10300
C 	C 	0.73629 0.37780 0.47503 0.06200
N 	N 	0.73850 0.32277 0.56330 -0.13700
C 	C 	0.74292 0.26330 0.65184 0.05600
C 	C 	0.79854 0.41590 0.50537 -0.12400
C 	C 	0.70468 0.38880 0.41552 -0.12300
C 	C 	0.71527 0.21180 0.67860 -0.12900
C 	C 	0.80145 0.30550 0.68546 -0.13000
H 	H 	0.82080 0.41210 0.54530 0.08200
C 	C 	0.82601 0.45920 0.47437 0.07700
C 	C 	0.73576 0.43320 0.38850 0.07000
H 	H 	0.66260 0.36610 0.39410 0.08100
H 	H 	0.67730 0.18110 0.65690 0.06900
C 	C 	0.74494 0.20680 0.73787 0.06300
C 	C 	0.82680 0.29710 0.74475 0.07100
H 	H 	0.82280 0.33820 0.66880 0.08100
H 	H 	0.86790 0.48310 0.49470 -0.00800
H 	H 	0.71410 0.43880 0.34860 -0.00400
H 	H 	0.72630 0.17140 0.75540 -0.01200
N 	N 	0.79922 0.25030 0.77162 -0.19400
H 	H 	0.86560 0.32590 0.76740 -0.01500
Ag	Ag	0.82292 0.25016 0.86749 0.51300
N 	N 	0.91278 0.15970 0.90782 -0.18200
N 	N 	0.27981 0.81458 0.92177 -0.20200
C 	C 	0.94293 0.15770 0.96580 0.07400
C 	C 	0.94299 0.11900 0.87972 0.07100
C 	C 	0.00229 0.11720 0.99677 -0.12400
H 	H 	0.92260 0.18500 0.98590 -0.00700
C 	C 	0.00189 0.07510 0.90760 -0.12700
H 	H 	0.92330 0.12040 0.83960 -0.00100
H 	H 	0.02190 0.11800 0.03690 0.08200
C 	C 	0.03250 0.07520 0.96725 0.06200
H 	H 	0.02040 0.04620 0.88670 0.07700
C 	C 	0.09719 0.03080 0.00141 0.09900
N 	N 	0.12602 0.99040 0.97325 -0.14000
N 	N 	0.12166 0.03776 0.05930 -0.13600
C 	C 	0.18197 0.94930 0.00724 0.09600
C 	C 	0.17946 0.99790 0.08865 0.09600
C 	C 	0.21506 0.90000 0.97804 0.04900
N 	N 	0.21071 0.95090 0.06479 -0.14800
C 	C 	0.21098 0.00730 0.15224 0.05100
C 	C 	0.27766 0.86260 0.00950 -0.12500
C 	C 	0.18613 0.89190 0.91859 -0.12400
C 	C 	0.17763 0.04290 0.18162 -0.12900
C 	C 	0.27721 0.98180 0.18392 -0.13800
H 	H 	0.29850 0.86530 0.04950 0.07300
C 	C 	0.30755 0.82170 0.97951 0.06200
C 	C 	0.21942 0.84960 0.89267 0.05200
H 	H 	0.14440 0.91490 0.89640 0.07600
H 	H 	0.13360 0.06060 0.16170 0.08000
C 	C 	0.21051 0.05160 0.24065 0.06900
C 	C 	0.30583 0.99320 0.24288 0.06900
H 	H 	0.30130 0.95790 0.16580 0.07300
H 	H 	0.34920 0.79770 0.00050 -0.00500
H 	H 	0.19910 0.84500 0.85270 -0.01800
H 	H 	0.18760 0.07550 0.25980 -0.00900
H 	H 	0.35000 0.97610 0.26380 -0.02200
Ag	Ag	0.84370 0.54236 0.36783 0.50900
N 	N 	0.93914 0.61500 0.41198 -0.20600
N 	N 	0.29628 0.96908 0.41715 -0.18700
N 	N 	0.77458 0.52700 0.27197 -0.19500
C 	C 	0.96659 0.62370 0.46983 0.05100
C 	C 	0.97336 0.64550 0.38451 0.05700
C 	C 	0.02626 0.66400 0.50017 -0.12800
H 	H 	0.94420 0.60160 0.49010 -0.01000
C 	C 	0.03309 0.68840 0.41143 -0.13000
H 	H 	0.95620 0.63760 0.34490 -0.01300
C 	C 	0.05995 0.69780 0.47058 0.05300
H 	H 	0.04380 0.66850 0.54010 0.07100
H 	H 	0.05450 0.71020 0.39030 0.07800
C 	C 	0.12415 0.74300 0.50266 0.10100
N 	N 	0.14795 0.78910 0.47297 -0.13800
N 	N 	0.15326 0.73140 0.55986 -0.14200
C 	C 	0.20614 0.82740 0.50561 0.10300
C 	C 	0.20980 0.77350 0.58774 0.10300
C 	C 	0.23629 0.87780 0.47503 0.06200
N 	N 	0.23850 0.82277 0.56330 -0.13700
C 	C 	0.24292 0.76330 0.65184 0.05600
C 	C 	0.29854 0.91590 0.50537 -0.12300
C 	C 	0.20468 0.88880 0.41552 -0.12300
C 	C 	0.21527 0.71180 0.67860 -0.12900
C 	C 	0.30145 0.80550 0.68546 -0.13000
H 	H 	0.32080 0.91210 0.54530 0.08200
C 	C 	0.32601 0.95920 0.47437 0.07700
C 	C 	0.23576 0.93320 0.38850 0.07000
H 	H 	0.16260 0.86610 0.39410 0.08100
H 	H 	0.17730 0.68110 0.65690 0.06900
C 	C 	0.24494 0.70680 0.73787 0.06300
C 	C 	0.32680 0.79710 0.74475 0.07100
H 	H 	0.32280 0.83820 0.66880 0.08100
H 	H 	0.36790 0.98310 0.49470 -0.00800
H 	H 	0.21410 0.93880 0.34860 -0.00400
H 	H 	0.22630 0.67140 0.75540 -0.01200
N 	N 	0.29922 0.75030 0.77162 -0.19400
H 	H 	0.36560 0.82590 0.76740 -0.01500
Ag	Ag	0.32292 0.75016 0.86749 0.51300
N 	N 	0.41278 0.65970 0.90782 -0.18300
N 	N 	0.77981 0.31458 0.92177 -0.20100
C 	C 	0.44293 0.65770 0.96580 0.07700
C 	C 	0.44299 0.61900 0.87972 0.07200
C 	C 	0.50229 0.61720 0.99677 -0.12800
H 	H 	0.42260 0.68500 0.98590 -0.00800
C 	C 	0.50189 0.57510 0.90760 -0.12900
H 	H 	0.42330 0.62040 0.83960 -0.00200
H 	H 	0.52190 0.61800 0.03690 0.08400
C 	C 	0.53250 0.57520 0.96725 0.06300
H 	H 	0.52040 0.54620 0.88670 0.07800
C 	C 	0.59719 0.53080 0.00141 0.10000
N 	N 	0.62602 0.49040 0.97325 -0.14100
N 	N 	0.62166 0.53776 0.05930 -0.13600
C 	C 	0.68197 0.44930 0.00724 0.09700
C 	C 	0.67946 0.49790 0.08865 0.09500
C 	C 	0.71506 0.40000 0.97804 0.04700
N 	N 	0.71071 0.45090 0.06479 -0.14800
C 	C 	0.71098 0.50730 0.15224 0.05200
C 	C 	0.77766 0.36260 0.00950 -0.12200
C 	C 	0.68613 0.39190 0.91859 -0.12200
C 	C 	0.67763 0.54290 0.18162 -0.13000
C 	C 	0.77721 0.48180 0.18392 -0.13900
H 	H 	0.79850 0.36530 0.04950 0.07200
C 	C 	0.80755 0.32170 0.97951 0.06000
C 	C 	0.71942 0.34960 0.89267 0.05100
H 	H 	0.64440 0.41490 0.89640 0.07500
H 	H 	0.63360 0.56060 0.16170 0.08000
C 	C 	0.71051 0.55160 0.24065 0.06900
C 	C 	0.80583 0.49320 0.24288 0.06900
H 	H 	0.80130 0.45790 0.16580 0.07400
H 	H 	0.84920 0.29770 0.00050 -0.00400
H 	H 	0.69910 0.34500 0.85270 -0.01800
H 	H 	0.68760 0.57550 0.25980 -0.00900
H 	H 	0.85000 0.47610 0.26380 -0.02200
Ag	Ag	0.65630 0.04236 0.13217 0.50900
N 	N 	0.56086 0.11500 0.08802 -0.20600
N 	N 	0.20372 0.46908 0.08285 -0.18700
N 	N 	0.72542 0.02700 0.22803 -0.19500
C 	C 	0.53341 0.12370 0.03017 0.05000
C 	C 	0.52664 0.14550 0.11549 0.05600
C 	C 	0.47374 0.16400 0.99983 -0.12700
H 	H 	0.55580 0.10160 0.00990 -0.01000
C 	C 	0.46691 0.18840 0.08857 -0.12900
H 	H 	0.54380 0.13760 0.15510 -0.01300
C 	C 	0.44005 0.19780 0.02942 0.05200
H 	H 	0.45620 0.16850 0.95990 0.07000
H 	H 	0.44550 0.21020 0.10970 0.07800
C 	C 	0.37585 0.24300 0.99734 0.10200
N 	N 	0.35205 0.28910 0.02703 -0.13900
N 	N 	0.34674 0.23140 0.94014 -0.14300
C 	C 	0.29386 0.32740 0.99439 0.10400
C 	C 	0.29020 0.27350 0.91226 0.10300
C 	C 	0.26371 0.37780 0.02497 0.06000
N 	N 	0.26150 0.32277 0.93670 -0.13800
C 	C 	0.25708 0.26330 0.84816 0.05600
C 	C 	0.20146 0.41590 0.99463 -0.12100
C 	C 	0.29532 0.38880 0.08448 -0.12100
C 	C 	0.28473 0.21180 0.82140 -0.12900
C 	C 	0.19855 0.30550 0.81454 -0.13000
H 	H 	0.17920 0.41210 0.95470 0.08100
C 	C 	0.17399 0.45920 0.02563 0.07600
C 	C 	0.26424 0.43320 0.11150 0.07000
H 	H 	0.33740 0.36610 0.10590 0.08100
H 	H 	0.32270 0.18110 0.84310 0.06900
C 	C 	0.25506 0.20680 0.76213 0.06300
C 	C 	0.17320 0.29710 0.75525 0.07100
H 	H 	0.17720 0.33820 0.83120 0.08100
H 	H 	0.13210 0.48310 0.00530 -0.00700
H 	H 	0.28590 0.43880 0.15140 -0.00300
H 	H 	0.27370 0.17140 0.74460 -0.01200
N 	N 	0.20078 0.25030 0.72838 -0.19400
H 	H 	0.13440 0.32590 0.73260 -0.01500
Ag	Ag	0.17708 0.25016 0.63251 0.51300
N 	N 	0.08722 0.15970 0.59218 -0.18300
N 	N 	0.72019 0.81458 0.57823 -0.20200
C 	C 	0.05707 0.15770 0.53420 0.07700
C 	C 	0.05701 0.11900 0.62028 0.07300
C 	C 	0.99771 0.11720 0.50323 -0.12800
H 	H 	0.07740 0.18500 0.51410 -0.00800
C 	C 	0.99811 0.07510 0.59240 -0.12900
H 	H 	0.07670 0.12040 0.66040 -0.00200
H 	H 	0.97810 0.11800 0.46310 0.08400
C 	C 	0.96750 0.07520 0.53275 0.06300
H 	H 	0.97960 0.04620 0.61330 0.07800
C 	C 	0.90281 0.03080 0.49859 0.10000
N 	N 	0.87398 0.99040 0.52675 -0.14000
N 	N 	0.87834 0.03776 0.44070 -0.13600
C 	C 	0.81803 0.94930 0.49276 0.09600
C 	C 	0.82054 0.99790 0.41135 0.09500
C 	C 	0.78494 0.90000 0.52196 0.04800
N 	N 	0.78929 0.95090 0.43521 -0.14800
C 	C 	0.78902 0.00730 0.34776 0.05200
C 	C 	0.72234 0.86260 0.49050 -0.12400
C 	C 	0.81387 0.89190 0.58141 -0.12300
C 	C 	0.82237 0.04290 0.31838 -0.13000
C 	C 	0.72279 0.98180 0.31608 -0.13900
H 	H 	0.70150 0.86530 0.45050 0.07200
C 	C 	0.69245 0.82170 0.52049 0.06200
C 	C 	0.78058 0.84960 0.60733 0.05200
H 	H 	0.85560 0.91490 0.60360 0.07500
H 	H 	0.86640 0.06060 0.33830 0.08000
C 	C 	0.78949 0.05160 0.25935 0.06900
C 	C 	0.69417 0.99320 0.25712 0.06900
H 	H 	0.69870 0.95790 0.33420 0.07400
H 	H 	0.65080 0.79770 0.49950 -0.00500
H 	H 	0.80090 0.84500 0.64730 -0.01800
H 	H 	0.81240 0.07550 0.24020 -0.00900
H 	H 	0.65000 0.97610 0.23620 -0.02200
Ag	Ag	0.15630 0.54236 0.13217 0.50900
N 	N 	0.06086 0.61500 0.08802 -0.20700
N 	N 	0.70372 0.96908 0.08285 -0.18800
N 	N 	0.22542 0.52700 0.22803 -0.19500
C 	C 	0.03341 0.62370 0.03017 0.05300
C 	C 	0.02664 0.64550 0.11549 0.05600
C 	C 	0.97374 0.66400 0.99983 -0.13100
H 	H 	0.05580 0.60160 0.00990 -0.01100
C 	C 	0.96691 0.68840 0.08857 -0.13000
H 	H 	0.04380 0.63760 0.15510 -0.01300
C 	C 	0.94005 0.69780 0.02942 0.05600
H 	H 	0.95620 0.66850 0.95990 0.07200
H 	H 	0.94550 0.71020 0.10970 0.07900
C 	C 	0.87585 0.74300 0.99734 0.09900
N 	N 	0.85205 0.78910 0.02703 -0.13700
N 	N 	0.84674 0.73140 0.94014 -0.14200
C 	C 	0.79386 0.82740 0.99439 0.10100
C 	C 	0.79020 0.77350 0.91226 0.10300
C 	C 	0.76371 0.87780 0.02497 0.06500
N 	N 	0.76150 0.82277 0.93670 -0.13700
C 	C 	0.75708 0.76330 0.84816 0.05600
C 	C 	0.70146 0.91590 0.99463 -0.12700
C 	C 	0.79532 0.88880 0.08448 -0.12400
C 	C 	0.78473 0.71180 0.82140 -0.12900
C 	C 	0.69855 0.80550 0.81454 -0.13000
H 	H 	0.67920 0.91210 0.95470 0.08300
C 	C 	0.67399 0.95920 0.02563 0.08000
C 	C 	0.76424 0.93320 0.11150 0.07100
H 	H 	0.83740 0.86610 0.10590 0.08200
H 	H 	0.82270 0.68110 0.84310 0.06900
C 	C 	0.75506 0.70680 0.76213 0.06300
C 	C 	0.67320 0.79710 0.75525 0.07100
H 	H 	0.67720 0.83820 0.83120 0.08100
H 	H 	0.63210 0.98310 0.00530 -0.00800
H 	H 	0.78590 0.93880 0.15140 -0.00400
H 	H 	0.77370 0.67140 0.74460 -0.01200
N 	N 	0.70078 0.75030 0.72838 -0.19400
H 	H 	0.63440 0.82590 0.73260 -0.01500
Ag	Ag	0.67708 0.75016 0.63251 0.51300
N 	N 	0.58722 0.65970 0.59218 -0.18300
N 	N 	0.22019 0.31458 0.57823 -0.20200
C 	C 	0.55707 0.65770 0.53420 0.07700
C 	C 	0.55701 0.61900 0.62028 0.07200
C 	C 	0.49771 0.61720 0.50323 -0.12700
H 	H 	0.57740 0.68500 0.51410 -0.00800
C 	C 	0.49811 0.57510 0.59240 -0.12900
H 	H 	0.57670 0.62040 0.66040 -0.00200
H 	H 	0.47810 0.61800 0.46310 0.08400
C 	C 	0.46750 0.57520 0.53275 0.06300
H 	H 	0.47960 0.54620 0.61330 0.07800
C 	C 	0.40281 0.53080 0.49859 0.10000
N 	N 	0.37398 0.49040 0.52675 -0.14000
N 	N 	0.37834 0.53776 0.44070 -0.13600
C 	C 	0.31803 0.44930 0.49276 0.09600
C 	C 	0.32054 0.49790 0.41135 0.09500
C 	C 	0.28494 0.40000 0.52196 0.04800
N 	N 	0.28929 0.45090 0.43521 -0.14800
C 	C 	0.28902 0.50730 0.34776 0.05200
C 	C 	0.22234 0.36260 0.49050 -0.12400
C 	C 	0.31387 0.39190 0.58141 -0.12300
C 	C 	0.32237 0.54290 0.31838 -0.13000
C 	C 	0.22279 0.48180 0.31608 -0.13900
H 	H 	0.20150 0.36530 0.45050 0.07200
C 	C 	0.19245 0.32170 0.52049 0.06200
C 	C 	0.28058 0.34960 0.60733 0.05200
H 	H 	0.35560 0.41490 0.60360 0.07500
H 	H 	0.36640 0.56060 0.33830 0.08000
C 	C 	0.28949 0.55160 0.25935 0.06900
C 	C 	0.19417 0.49320 0.25712 0.06900
H 	H 	0.19870 0.45790 0.33420 0.07400
H 	H 	0.15080 0.29770 0.49950 -0.00500
H 	H 	0.30090 0.34500 0.64730 -0.01800
H 	H 	0.31240 0.57550 0.24020 -0.00900
H 	H 	0.15000 0.47610 0.23620 -0.02200
Ag	Ag	0.65630 0.95764 0.63217 0.50900
N 	N 	0.56086 0.88500 0.58802 -0.20600
N 	N 	0.20372 0.53092 0.58285 -0.18700
N 	N 	0.72542 0.97300 0.72803 -0.19500
C 	C 	0.53341 0.87630 0.53017 0.05100
C 	C 	0.52664 0.85450 0.61549 0.05600
C 	C 	0.47374 0.83600 0.49983 -0.12800
H 	H 	0.55580 0.89840 0.50990 -0.01000
C 	C 	0.46691 0.81160 0.58857 -0.12900
H 	H 	0.54380 0.86240 0.65510 -0.01300
C 	C 	0.44005 0.80220 0.52942 0.05300
H 	H 	0.45620 0.83150 0.45990 0.07100
H 	H 	0.44550 0.78980 0.60970 0.07800
C 	C 	0.37585 0.75700 0.49734 0.10200
N 	N 	0.35205 0.71090 0.52703 -0.13800
N 	N 	0.34674 0.76860 0.44014 -0.14200
C 	C 	0.29386 0.67260 0.49439 0.10300
C 	C 	0.29020 0.72650 0.41226 0.10300
C 	C 	0.26371 0.62220 0.52497 0.06200
N 	N 	0.26150 0.67723 0.43670 -0.13700
C 	C 	0.25708 0.73670 0.34816 0.05600
C 	C 	0.20146 0.58410 0.49463 -0.12400
C 	C 	0.29532 0.61120 0.58448 -0.12300
C 	C 	0.28473 0.78820 0.32140 -0.12900
C 	C 	0.19855 0.69450 0.31454 -0.13000
H 	H 	0.17920 0.58790 0.45470 0.08200
C 	C 	0.17399 0.54080 0.52563 0.07700
C 	C 	0.26424 0.56680 0.61150 0.07000
H 	H 	0.33740 0.63390 0.60590 0.08100
H 	H 	0.32270 0.81890 0.34310 0.06900
C 	C 	0.25506 0.79320 0.26213 0.06300
C 	C 	0.17320 0.70290 0.25525 0.07100
H 	H 	0.17720 0.66180 0.33120 0.08100
H 	H 	0.13210 0.51690 0.50530 -0.00800
H 	H 	0.28590 0.56120 0.65140 -0.00400
H 	H 	0.27370 0.82860 0.24460 -0.01200
N 	N 	0.20078 0.74970 0.22838 -0.19400
H 	H 	0.13440 0.67410 0.23260 -0.01500
Ag	Ag	0.17708 0.74984 0.13251 0.51300
N 	N 	0.08722 0.84030 0.09218 -0.18200
N 	N 	0.72019 0.18542 0.07823 -0.20200
C 	C 	0.05707 0.84230 0.03420 0.07400
C 	C 	0.05701 0.88100 0.12028 0.07100
C 	C 	0.99771 0.88280 0.00323 -0.12400
H 	H 	0.07740 0.81500 0.01410 -0.00700
C 	C 	0.99811 0.92490 0.09240 -0.12700
H 	H 	0.07670 0.87960 0.16040 -0.00100
H 	H 	0.97810 0.88200 0.96310 0.08200
C 	C 	0.96750 0.92480 0.03275 0.06200
H 	H 	0.97960 0.95380 0.11330 0.07700
C 	C 	0.90281 0.96920 0.99859 0.09900
N 	N 	0.87398 0.00960 0.02675 -0.14000
N 	N 	0.87834 0.96224 0.94070 -0.13600
C 	C 	0.81803 0.05070 0.99276 0.09600
C 	C 	0.82054 0.00210 0.91135 0.09600
C 	C 	0.78494 0.10000 0.02196 0.04900
N 	N 	0.78929 0.04910 0.93521 -0.14800
C 	C 	0.78902 0.99270 0.84776 0.05100
C 	C 	0.72234 0.13740 0.99050 -0.12500
C 	C 	0.81387 0.10810 0.08141 -0.12400
C 	C 	0.82237 0.95710 0.81838 -0.12900
C 	C 	0.72279 0.01820 0.81608 -0.13800
H 	H 	0.70150 0.13470 0.95050 0.07300
C 	C 	0.69245 0.17830 0.02049 0.06200
C 	C 	0.78058 0.15040 0.10733 0.05200
H 	H 	0.85560 0.08510 0.10360 0.07600
H 	H 	0.86640 0.93940 0.83830 0.08000
C 	C 	0.78949 0.94840 0.75935 0.06900
C 	C 	0.69417 0.00680 0.75712 0.06900
H 	H 	0.69870 0.04210 0.83420 0.07300
H 	H 	0.65080 0.20230 0.99950 -0.00500
H 	H 	0.80090 0.15500 0.14730 -0.01800
H 	H 	0.81240 0.92450 0.74020 -0.00900
H 	H 	0.65000 0.02390 0.73620 -0.02200
Ag	Ag	0.15630 0.45764 0.63217 0.50900
N 	N 	0.06086 0.38500 0.58802 -0.20600
N 	N 	0.70372 0.03092 0.58285 -0.18700
N 	N 	0.22542 0.47300 0.72803 -0.19500
C 	C 	0.03341 0.37630 0.53017 0.05100
C 	C 	0.02664 0.35450 0.61549 0.05700
C 	C 	0.97374 0.33600 0.49983 -0.12800
H 	H 	0.05580 0.39840 0.50990 -0.01000
C 	C 	0.96691 0.31160 0.58857 -0.13000
H 	H 	0.04380 0.36240 0.65510 -0.01300
C 	C 	0.94005 0.30220 0.52942 0.05300
H 	H 	0.95620 0.33150 0.45990 0.07100
H 	H 	0.94550 0.28980 0.60970 0.07800
C 	C 	0.87585 0.25700 0.49734 0.10100
N 	N 	0.85205 0.21090 0.52703 -0.13800
N 	N 	0.84674 0.26860 0.44014 -0.14200
C 	C 	0.79386 0.17260 0.49439 0.10300
C 	C 	0.79020 0.22650 0.41226 0.10300
C 	C 	0.76371 0.12220 0.52497 0.06200
N 	N 	0.76150 0.17723 0.43670 -0.13700
C 	C 	0.75708 0.23670 0.34816 0.05600
C 	C 	0.70146 0.08410 0.49463 -0.12300
C 	C 	0.79532 0.11120 0.58448 -0.12300
C 	C 	0.78473 0.28820 0.32140 -0.12900
C 	C 	0.69855 0.19450 0.31454 -0.13000
H 	H 	0.67920 0.08790 0.45470 0.08200
C 	C 	0.67399 0.04080 0.52563 0.07700
C 	C 	0.76424 0.06680 0.61150 0.07000
H 	H 	0.83740 0.13390 0.60590 0.08100
H 	H 	0.82270 0.31890 0.34310 0.06900
C 	C 	0.75506 0.29320 0.26213 0.06300
C 	C 	0.67320 0.20290 0.25525 0.07100
H 	H 	0.67720 0.16180 0.33120 0.08100
H 	H 	0.63210 0.01690 0.50530 -0.00800
H 	H 	0.78590 0.06120 0.65140 -0.00400
H 	H 	0.77370 0.32860 0.24460 -0.01200
N 	N 	0.70078 0.24970 0.22838 -0.19400
H 	H 	0.63440 0.17410 0.23260 -0.01500
Ag	Ag	0.67708 0.24984 0.13251 0.51300
N 	N 	0.58722 0.34030 0.09218 -0.18300
N 	N 	0.22019 0.68542 0.07823 -0.20100
C 	C 	0.55707 0.34230 0.03420 0.07700
C 	C 	0.55701 0.38100 0.12028 0.07200
C 	C 	0.49771 0.38280 0.00323 -0.12800
H 	H 	0.57740 0.31500 0.01410 -0.00800
C 	C 	0.49811 0.42490 0.09240 -0.12900
H 	H 	0.57670 0.37960 0.16040 -0.00200
H 	H 	0.47810 0.38200 0.96310 0.08400
C 	C 	0.46750 0.42480 0.03275 0.06300
H 	H 	0.47960 0.45380 0.11330 0.07800
C 	C 	0.40281 0.46920 0.99859 0.10000
N 	N 	0.37398 0.50960 0.02675 -0.14100
N 	N 	0.37834 0.46224 0.94070 -0.13600
C 	C 	0.31803 0.55070 0.99276 0.09700
C 	C 	0.32054 0.50210 0.91135 0.09500
C 	C 	0.28494 0.60000 0.02196 0.04700
N 	N 	0.28929 0.54910 0.93521 -0.14800
C 	C 	0.28902 0.49270 0.84776 0.05200
C 	C 	0.22234 0.63740 0.99050 -0.12200
C 	C 	0.31387 0.60810 0.08141 -0.12200
C 	C 	0.32237 0.45710 0.81838 -0.13000
C 	C 	0.22279 0.51820 0.81608 -0.13900
H 	H 	0.20150 0.63470 0.95050 0.07200
C 	C 	0.19245 0.67830 0.02049 0.06000
C 	C 	0.28058 0.65040 0.10733 0.05100
H 	H 	0.35560 0.58510 0.10360 0.07500
H 	H 	0.36640 0.43940 0.83830 0.08000
C 	C 	0.28949 0.44840 0.75935 0.06900
C 	C 	0.19417 0.50680 0.75712 0.06900
H 	H 	0.19870 0.54210 0.83420 0.07400
H 	H 	0.15080 0.70230 0.99950 -0.00400
H 	H 	0.30090 0.65500 0.14730 -0.01800
H 	H 	0.31240 0.42450 0.74020 -0.00900
H 	H 	0.15000 0.52390 0.73620 -0.02200
Ag	Ag	0.34370 0.95764 0.86783 0.50900
N 	N 	0.43914 0.88500 0.91198 -0.20600
N 	N 	0.79628 0.53092 0.91715 -0.18700
N 	N 	0.27458 0.97300 0.77197 -0.19500
C 	C 	0.46659 0.87630 0.96983 0.05000
C 	C 	0.47336 0.85450 0.88451 0.05600
C 	C 	0.52626 0.83600 0.00017 -0.12700
H 	H 	0.44420 0.89840 0.99010 -0.01000
C 	C 	0.53309 0.81160 0.91143 -0.12900
H 	H 	0.45620 0.86240 0.84490 -0.01300
C 	C 	0.55995 0.80220 0.97058 0.05200
H 	H 	0.54380 0.83150 0.04010 0.07000
H 	H 	0.55450 0.78980 0.89030 0.07800
C 	C 	0.62415 0.75700 0.00266 0.10200
N 	N 	0.64795 0.71090 0.97297 -0.13900
N 	N 	0.65326 0.76860 0.05986 -0.14300
C 	C 	0.70614 0.67260 0.00561 0.10400
C 	C 	0.70980 0.72650 0.08774 0.10300
C 	C 	0.73629 0.62220 0.97503 0.06000
N 	N 	0.73850 0.67723 0.06330 -0.13800
C 	C 	0.74292 0.73670 0.15184 0.05600
C 	C 	0.79854 0.58410 0.00537 -0.12100
C 	C 	0.70468 0.61120 0.91552 -0.12100
C 	C 	0.71527 0.78820 0.17860 -0.12900
C 	C 	0.80145 0.69450 0.18546 -0.13000
H 	H 	0.82080 0.58790 0.04530 0.08100
C 	C 	0.82601 0.54080 0.97437 0.07600
C 	C 	0.73576 0.56680 0.88850 0.07000
H 	H 	0.66260 0.63390 0.89410 0.08100
H 	H 	0.67730 0.81890 0.15690 0.06900
C 	C 	0.74494 0.79320 0.23787 0.06300
C 	C 	0.82680 0.70290 0.24475 0.07100
H 	H 	0.82280 0.66180 0.16880 0.08100
H 	H 	0.86790 0.51690 0.99470 -0.00700
H 	H 	0.71410 0.56120 0.84860 -0.00300
H 	H 	0.72630 0.82860 0.25540 -0.01200
N 	N 	0.79922 0.74970 0.27162 -0.19400
H 	H 	0.86560 0.67410 0.26740 -0.01500
Ag	Ag	0.82292 0.74984 0.36749 0.51300
N 	N 	0.91278 0.84030 0.40782 -0.18300
N 	N 	0.27981 0.18542 0.42177 -0.20200
C 	C 	0.94293 0.84230 0.46580 0.07700
C 	C 	0.94299 0.88100 0.37972 0.07300
C 	C 	0.00229 0.88280 0.49677 -0.12800
H 	H 	0.92260 0.81500 0.48590 -0.00800
C 	C 	0.00189 0.92490 0.40760 -0.12900
H 	H 	0.92330 0.87960 0.33960 -0.00200
H 	H 	0.02190 0.88200 0.53690 0.08400
C 	C 	0.03250 0.92480 0.46725 0.06300
H 	H 	0.02040 0.95380 0.38670 0.07800
C 	C 	0.09719 0.96920 0.50141 0.10000
N 	N 	0.12602 0.00960 0.47325 -0.14000
N 	N 	0.12166 0.96224 0.55930 -0.13600
C 	C 	0.18197 0.05070 0.50724 0.09600
C 	C 	0.17946 0.00210 0.58865 0.09500
C 	C 	0.21506 0.10000 0.47804 0.04800
N 	N 	0.21071 0.04910 0.56479 -0.14800
C 	C 	0.21098 0.99270 0.65224 0.05200
C 	C 	0.27766 0.13740 0.50950 -0.12400
C 	C 	0.18613 0.10810 0.41859 -0.12300
C 	C 	0.17763 0.95710 0.68162 -0.13000
C 	C 	0.27721 0.01820 0.68392 -0.13900
H 	H 	0.29850 0.13470 0.54950 0.07200
C 	C 	0.30755 0.17830 0.47951 0.06200
C 	C 	0.21942 0.15040 0.39267 0.05200
H 	H 	0.14440 0.08510 0.39640 0.07500
H 	H 	0.13360 0.93940 0.66170 0.08000
C 	C 	0.21051 0.94840 0.74065 0.06900
C 	C 	0.30583 0.00680 0.74288 0.06900
H 	H 	0.30130 0.04210 0.66580 0.07400
H 	H 	0.34920 0.20230 0.50050 -0.00500
H 	H 	0.19910 0.15500 0.35270 -0.01800
H 	H 	0.18760 0.92450 0.75980 -0.00900
H 	H 	0.35000 0.02390 0.76380 -0.02200
Ag	Ag	0.84370 0.45764 0.86783 0.50900
N 	N 	0.93914 0.38500 0.91198 -0.20700
N 	N 	0.29628 0.03092 0.91715 -0.18800
N 	N 	0.77458 0.47300 0.77197 -0.19500
C 	C 	0.96659 0.37630 0.96983 0.05300
C 	C 	0.97336 0.35450 0.88451 0.05600
C 	C 	0.02626 0.33600 0.00017 -0.13100
H 	H 	0.94420 0.39840 0.99010 -0.01100
C 	C 	0.03309 0.31160 0.91143 -0.13000
H 	H 	0.95620 0.36240 0.84490 -0.01300
C 	C 	0.05995 0.30220 0.97058 0.05600
H 	H 	0.04380 0.33150 0.04010 0.07200
H 	H 	0.05450 0.28980 0.89030 0.07900
C 	C 	0.12415 0.25700 0.00266 0.09900
N 	N 	0.14795 0.21090 0.97297 -0.13700
N 	N 	0.15326 0.26860 0.05986 -0.14200
C 	C 	0.20614 0.17260 0.00561 0.10100
C 	C 	0.20980 0.22650 0.08774 0.10300
C 	C 	0.23629 0.12220 0.97503 0.06500
N 	N 	0.23850 0.17723 0.06330 -0.13700
C 	C 	0.24292 0.23670 0.15184 0.05600
C 	C 	0.29854 0.08410 0.00537 -0.12700
C 	C 	0.20468 0.11120 0.91552 -0.12400
C 	C 	0.21527 0.28820 0.17860 -0.12900
C 	C 	0.30145 0.19450 0.18546 -0.13000
H 	H 	0.32080 0.08790 0.04530 0.08300
C 	C 	0.32601 0.04080 0.97437 0.08000
C 	C 	0.23576 0.06680 0.88850 0.07100
H 	H 	0.16260 0.13390 0.89410 0.08200
H 	H 	0.17730 0.31890 0.15690 0.06900
C 	C 	0.24494 0.29320 0.23787 0.06300
C 	C 	0.32680 0.20290 0.24475 0.07100
H 	H 	0.32280 0.16180 0.16880 0.08100
H 	H 	0.36790 0.01690 0.99470 -0.00800
H 	H 	0.21410 0.06120 0.84860 -0.00400
H 	H 	0.22630 0.32860 0.25540 -0.01200
N 	N 	0.29922 0.24970 0.27162 -0.19400
H 	H 	0.36560 0.17410 0.26740 -0.01500
Ag	Ag	0.32292 0.24984 0.36749 0.51300
N 	N 	0.41278 0.34030 0.40782 -0.18300
N 	N 	0.77981 0.68542 0.42177 -0.20200
C 	C 	0.44293 0.34230 0.46580 0.07700
C 	C 	0.44299 0.38100 0.37972 0.07200
C 	C 	0.50229 0.38280 0.49677 -0.12700
H 	H 	0.42260 0.31500 0.48590 -0.00800
C 	C 	0.50189 0.42490 0.40760 -0.12900
H 	H 	0.42330 0.37960 0.33960 -0.00200
H 	H 	0.52190 0.38200 0.53690 0.08400
C 	C 	0.53250 0.42480 0.46725 0.06300
H 	H 	0.52040 0.45380 0.38670 0.07800
C 	C 	0.59719 0.46920 0.50141 0.10000
N 	N 	0.62602 0.50960 0.47325 -0.14000
N 	N 	0.62166 0.46224 0.55930 -0.13600
C 	C 	0.68197 0.55070 0.50724 0.09600
C 	C 	0.67946 0.50210 0.58865 0.09500
C 	C 	0.71506 0.60000 0.47804 0.04800
N 	N 	0.71071 0.54910 0.56479 -0.14800
C 	C 	0.71098 0.49270 0.65224 0.05200
C 	C 	0.77766 0.63740 0.50950 -0.12400
C 	C 	0.68613 0.60810 0.41859 -0.12300
C 	C 	0.67763 0.45710 0.68162 -0.13000
C 	C 	0.77721 0.51820 0.68392 -0.13900
H 	H 	0.79850 0.63470 0.54950 0.07200
C 	C 	0.80755 0.67830 0.47951 0.06200
C 	C 	0.71942 0.65040 0.39267 0.05200
H 	H 	0.64440 0.58510 0.39640 0.07500
H 	H 	0.63360 0.43940 0.66170 0.08000
C 	C 	0.71051 0.44840 0.74065 0.06900
C 	C 	0.80583 0.50680 0.74288 0.06900
H 	H 	0.80130 0.54210 0.66580 0.07400
H 	H 	0.84920 0.70230 0.50050 -0.00500
H 	H 	0.69910 0.65500 0.35270 -0.01800
H 	H 	0.68760 0.42450 0.75980 -0.00900
H 	H 	0.85000 0.52390 0.76380 -0.02200
