data_crystal

_cell_length_a 22.05320
_cell_length_b 16.38280
_cell_length_c 25.68090
_cell_angle_alpha 90.00000
_cell_angle_beta  115.39100
_cell_angle_gamma 90.00000

_symmetry_space_group_name_	'P 1'
_symmetry_space_group_name_H-M	'P 1'

loop_
_symmetry_equiv_pos_as_xyz
  x,y,z

loop_
_atom_site_label
_atom_site_type_symbol
_atom_site_fract_x
_atom_site_fract_y
_atom_site_fract_z
_atom_site_charge
Ag	Ag	0.34389 0.45794 0.36796 0.50900
Ag	Ag	0.82301 0.25006 0.86755 0.51200
C 	C 	0.62426 0.25730 0.50269 0.10000
C 	C 	0.00246 0.38280 0.99685 -0.12700
H 	H 	0.02180 0.38200 0.03690 0.08300
C 	C 	0.53329 0.31160 0.41154 -0.13000
H 	H 	0.55470 0.28980 0.39040 0.07800
C 	C 	0.27767 0.63710 0.00952 -0.12800
H 	H 	0.29850 0.63390 0.04950 0.07400
C 	C 	0.73574 0.06670 0.38882 0.07200
H 	H 	0.71400 0.06090 0.34900 -0.00400
C 	C 	0.56003 0.30250 0.47056 0.05500
C 	C 	0.09731 0.46910 0.00160 0.10000
C 	C 	0.21965 0.65060 0.89287 0.05300
H 	H 	0.19930 0.65580 0.85300 -0.01900
C 	C 	0.71001 0.22650 0.58794 0.10200
C 	C 	0.94336 0.34240 0.96570 0.07700
H 	H 	0.92320 0.31490 0.98580 -0.00800
C 	C 	0.52662 0.33590 0.50049 -0.13100
H 	H 	0.54390 0.33100 0.54030 0.07200
C 	C 	0.74322 0.23680 0.65183 0.05600
C 	C 	0.17820 0.45720 0.18188 -0.12900
H 	H 	0.13410 0.43950 0.16200 0.07900
C 	C 	0.30610 0.50680 0.24296 0.06800
H 	H 	0.35030 0.52370 0.26380 -0.02100
C 	C 	0.21544 0.60030 0.97815 0.05200
C 	C 	0.46710 0.37650 0.46970 0.05400
H 	H 	0.44490 0.39910 0.49000 -0.01100
C 	C 	0.17955 0.50240 0.08870 0.09600
C 	C 	0.03272 0.42480 0.96747 0.06300
C 	C 	0.82586 0.04070 0.47462 0.07800
H 	H 	0.86760 0.01640 0.49500 -0.00800
C 	C 	0.82700 0.20280 0.74480 0.07200
H 	H 	0.86550 0.17360 0.76740 -0.01500
C 	C 	0.18608 0.60800 0.91861 -0.12600
H 	H 	0.14440 0.58470 0.89650 0.07600
C 	C 	0.79855 0.08420 0.50551 -0.12500
H 	H 	0.82090 0.08840 0.54540 0.08200
C 	C 	0.70600 0.17250 0.50584 0.10400
C 	C 	0.18210 0.55090 0.00720 0.09300
C 	C 	0.30779 0.67840 0.97975 0.06400
H 	H 	0.34930 0.70260 0.00080 -0.00600
C 	C 	0.47327 0.35450 0.38447 0.05500
H 	H 	0.45590 0.36200 0.34480 -0.01200
C 	C 	0.21077 0.44840 0.24078 0.06900
H 	H 	0.18780 0.42450 0.25990 -0.01000
C 	C 	0.00208 0.42470 0.90778 -0.12800
H 	H 	0.02080 0.45320 0.88690 0.07800
C 	C 	0.27737 0.51830 0.18389 -0.13800
H 	H 	0.30140 0.54250 0.16580 0.07300
C 	C 	0.70463 0.11110 0.41562 -0.12500
H 	H 	0.66260 0.13390 0.39420 0.08200
C 	C 	0.94299 0.38130 0.87979 0.07200
H 	H 	0.92310 0.38030 0.83970 -0.00100
C 	C 	0.21120 0.49250 0.15223 0.05100
C 	C 	0.73634 0.12190 0.47507 0.06400
C 	C 	0.74520 0.29350 0.73782 0.06100
H 	H 	0.72660 0.32860 0.75540 -0.01200
C 	C 	0.71564 0.28840 0.67849 -0.12800
H 	H 	0.67780 0.31930 0.65680 0.06800
C 	C 	0.80146 0.19460 0.68548 -0.13100
H 	H 	0.82270 0.16180 0.66880 0.08100
N 	N 	0.43924 0.38540 0.41206 -0.20700
N 	N 	0.79631 0.03108 0.41731 -0.18800
N 	N 	0.79971 0.25010 0.77150 -0.19400
N 	N 	0.64818 0.21080 0.47294 -0.13800
N 	N 	0.73866 0.17717 0.56336 -0.13700
N 	N 	0.65333 0.26830 0.55991 -0.14200
N 	N 	0.91294 0.34040 0.90776 -0.18300
N 	N 	0.28001 0.68530 0.92195 -0.20200
N 	N 	0.27483 0.47310 0.27201 -0.19500
N 	N 	0.12603 0.50990 0.97341 -0.13900
N 	N 	0.21081 0.54910 0.06505 -0.14700
N 	N 	0.12185 0.46240 0.05918 -0.13600
Ag	Ag	0.84389 0.95794 0.36796 0.51000
Ag	Ag	0.32301 0.75006 0.86755 0.51300
C 	C 	0.12426 0.75730 0.50269 0.10000
C 	C 	0.50246 0.88280 0.99685 -0.12900
H 	H 	0.52180 0.88200 0.03690 0.08500
C 	C 	0.03329 0.81160 0.41154 -0.13000
H 	H 	0.05470 0.78980 0.39040 0.07800
C 	C 	0.77767 0.13710 0.00952 -0.12000
H 	H 	0.79850 0.13390 0.04950 0.07100
C 	C 	0.23574 0.56670 0.38882 0.07200
H 	H 	0.21400 0.56090 0.34900 -0.00400
C 	C 	0.06003 0.80250 0.47056 0.05500
C 	C 	0.59731 0.96910 0.00160 0.10100
C 	C 	0.71965 0.15060 0.89287 0.05100
H 	H 	0.69930 0.15580 0.85300 -0.01800
C 	C 	0.21001 0.72650 0.58794 0.10200
C 	C 	0.44336 0.84240 0.96570 0.07900
H 	H 	0.42320 0.81490 0.98580 -0.00800
C 	C 	0.02662 0.83590 0.50049 -0.13100
H 	H 	0.04390 0.83100 0.54030 0.07200
C 	C 	0.24322 0.73680 0.65183 0.05600
C 	C 	0.67820 0.95720 0.18188 -0.12900
H 	H 	0.63410 0.93950 0.16200 0.07900
C 	C 	0.80610 0.00680 0.24296 0.06800
H 	H 	0.85030 0.02370 0.26380 -0.02100
C 	C 	0.71544 0.10030 0.97815 0.04600
C 	C 	0.96710 0.87650 0.46970 0.05400
H 	H 	0.94490 0.89910 0.49000 -0.01100
C 	C 	0.67955 0.00240 0.08870 0.09700
C 	C 	0.53272 0.92480 0.96747 0.06400
C 	C 	0.32586 0.54070 0.47462 0.07800
H 	H 	0.36760 0.51640 0.49500 -0.00800
C 	C 	0.32700 0.70280 0.74480 0.07200
H 	H 	0.36550 0.67360 0.76740 -0.01500
C 	C 	0.68608 0.10800 0.91861 -0.12200
H 	H 	0.64440 0.08470 0.89650 0.07500
C 	C 	0.29855 0.58420 0.50551 -0.12500
H 	H 	0.32090 0.58840 0.54540 0.08200
C 	C 	0.20600 0.67250 0.50584 0.10400
C 	C 	0.68210 0.05090 0.00720 0.09600
C 	C 	0.80779 0.17840 0.97975 0.05700
H 	H 	0.84930 0.20260 0.00080 -0.00200
C 	C 	0.97327 0.85450 0.38447 0.05500
H 	H 	0.95590 0.86200 0.34480 -0.01200
C 	C 	0.71077 0.94840 0.24078 0.06800
H 	H 	0.68780 0.92450 0.25990 -0.00900
C 	C 	0.50208 0.92470 0.90778 -0.13000
H 	H 	0.52080 0.95320 0.88690 0.07800
C 	C 	0.77737 0.01830 0.18389 -0.13700
H 	H 	0.80140 0.04250 0.16580 0.07300
C 	C 	0.20463 0.61110 0.41562 -0.12500
H 	H 	0.16260 0.63390 0.39420 0.08200
C 	C 	0.44299 0.88130 0.87979 0.07300
H 	H 	0.42310 0.88030 0.83970 -0.00200
C 	C 	0.71120 0.99250 0.15223 0.05000
C 	C 	0.23634 0.62190 0.47507 0.06400
C 	C 	0.24520 0.79350 0.73782 0.06100
H 	H 	0.22660 0.82860 0.75540 -0.01200
C 	C 	0.21564 0.78840 0.67849 -0.12800
H 	H 	0.17780 0.81930 0.65680 0.06800
C 	C 	0.30146 0.69460 0.68548 -0.13000
H 	H 	0.32270 0.66180 0.66880 0.08100
N 	N 	0.93924 0.88540 0.41206 -0.20700
N 	N 	0.29631 0.53108 0.41731 -0.18800
N 	N 	0.29971 0.75010 0.77150 -0.19400
N 	N 	0.14818 0.71080 0.47294 -0.13800
N 	N 	0.23866 0.67717 0.56336 -0.13700
N 	N 	0.15333 0.76830 0.55991 -0.14200
N 	N 	0.41294 0.84040 0.90776 -0.18300
N 	N 	0.78001 0.18530 0.92195 -0.20100
N 	N 	0.77483 0.97310 0.27201 -0.19500
N 	N 	0.62603 0.00990 0.97341 -0.14100
N 	N 	0.71081 0.04910 0.06505 -0.14800
N 	N 	0.62185 0.96240 0.05918 -0.13600
Ag	Ag	0.65611 0.45794 0.13204 0.51000
Ag	Ag	0.17699 0.25006 0.63245 0.51300
C 	C 	0.37574 0.25730 0.99731 0.10000
C 	C 	0.99754 0.38280 0.50315 -0.13000
H 	H 	0.97820 0.38200 0.46310 0.08500
C 	C 	0.46671 0.31160 0.08846 -0.13000
H 	H 	0.44530 0.28980 0.10960 0.07900
C 	C 	0.72233 0.63710 0.49048 -0.12500
H 	H 	0.70150 0.63390 0.45050 0.07300
C 	C 	0.26426 0.06670 0.11118 0.07200
H 	H 	0.28600 0.06090 0.15100 -0.00400
C 	C 	0.43997 0.30250 0.02944 0.05500
C 	C 	0.90269 0.46910 0.49840 0.10100
C 	C 	0.78035 0.65060 0.60713 0.05200
H 	H 	0.80070 0.65580 0.64700 -0.01900
C 	C 	0.28999 0.22650 0.91206 0.10200
C 	C 	0.05664 0.34240 0.53430 0.07900
H 	H 	0.07680 0.31490 0.51420 -0.00800
C 	C 	0.47338 0.33590 0.99951 -0.13200
H 	H 	0.45610 0.33100 0.95970 0.07200
C 	C 	0.25678 0.23680 0.84817 0.05600
C 	C 	0.82180 0.45720 0.31812 -0.12900
H 	H 	0.86590 0.43950 0.33800 0.08000
C 	C 	0.69390 0.50680 0.25704 0.06800
H 	H 	0.64970 0.52370 0.23620 -0.02100
C 	C 	0.78456 0.60030 0.52185 0.05000
C 	C 	0.53290 0.37650 0.03030 0.05400
H 	H 	0.55510 0.39910 0.01000 -0.01100
C 	C 	0.82045 0.50240 0.41130 0.09600
C 	C 	0.96728 0.42480 0.53253 0.06400
C 	C 	0.17414 0.04070 0.02538 0.07800
H 	H 	0.13240 0.01640 0.00500 -0.00800
C 	C 	0.17300 0.20280 0.75520 0.07200
H 	H 	0.13450 0.17360 0.73260 -0.01500
C 	C 	0.81392 0.60800 0.58139 -0.12400
H 	H 	0.85560 0.58470 0.60350 0.07600
C 	C 	0.20145 0.08420 0.99449 -0.12500
H 	H 	0.17910 0.08840 0.95460 0.08200
C 	C 	0.29400 0.17250 0.99416 0.10400
C 	C 	0.81790 0.55090 0.49280 0.09500
C 	C 	0.69221 0.67840 0.52025 0.06100
H 	H 	0.65070 0.70260 0.49920 -0.00400
C 	C 	0.52673 0.35450 0.11553 0.05500
H 	H 	0.54410 0.36200 0.15520 -0.01200
C 	C 	0.78923 0.44840 0.25922 0.06900
H 	H 	0.81220 0.42450 0.24010 -0.00900
C 	C 	0.99792 0.42470 0.59222 -0.13000
H 	H 	0.97920 0.45320 0.61310 0.07800
C 	C 	0.72263 0.51830 0.31611 -0.13800
H 	H 	0.69860 0.54250 0.33420 0.07300
C 	C 	0.29537 0.11110 0.08438 -0.12500
H 	H 	0.33740 0.13390 0.10580 0.08200
C 	C 	0.05701 0.38130 0.62021 0.07400
H 	H 	0.07690 0.38030 0.66030 -0.00200
C 	C 	0.78880 0.49250 0.34777 0.05100
C 	C 	0.26366 0.12190 0.02493 0.06300
C 	C 	0.25480 0.29350 0.76218 0.06100
H 	H 	0.27340 0.32860 0.74460 -0.01200
C 	C 	0.28436 0.28840 0.82151 -0.12800
H 	H 	0.32220 0.31930 0.84320 0.06800
C 	C 	0.19854 0.19460 0.81452 -0.13100
H 	H 	0.17730 0.16180 0.83120 0.08100
N 	N 	0.56076 0.38540 0.08794 -0.20700
N 	N 	0.20369 0.03108 0.08269 -0.18800
N 	N 	0.20029 0.25010 0.72850 -0.19400
N 	N 	0.35182 0.21080 0.02706 -0.13800
N 	N 	0.26134 0.17717 0.93664 -0.13700
N 	N 	0.34667 0.26830 0.94009 -0.14200
N 	N 	0.08706 0.34040 0.59224 -0.18300
N 	N 	0.71999 0.68530 0.57805 -0.20200
N 	N 	0.72517 0.47310 0.22799 -0.19500
N 	N 	0.87397 0.50990 0.52659 -0.14000
N 	N 	0.78919 0.54910 0.43495 -0.14800
N 	N 	0.87815 0.46240 0.44082 -0.13600
Ag	Ag	0.15611 0.95794 0.13204 0.50900
Ag	Ag	0.67699 0.75006 0.63245 0.51300
C 	C 	0.87574 0.75730 0.99731 0.09900
C 	C 	0.49754 0.88280 0.50315 -0.13000
H 	H 	0.47820 0.88200 0.46310 0.08500
C 	C 	0.96671 0.81160 0.08846 -0.12900
H 	H 	0.94530 0.78980 0.10960 0.07800
C 	C 	0.22233 0.13710 0.49048 -0.12500
H 	H 	0.20150 0.13390 0.45050 0.07300
C 	C 	0.76426 0.56670 0.11118 0.07300
H 	H 	0.78600 0.56090 0.15100 -0.00400
C 	C 	0.93997 0.80250 0.02944 0.05600
C 	C 	0.40269 0.96910 0.49840 0.10100
C 	C 	0.28035 0.15060 0.60713 0.05200
H 	H 	0.30070 0.15580 0.64700 -0.01900
C 	C 	0.78999 0.72650 0.91206 0.10200
C 	C 	0.55664 0.84240 0.53430 0.07900
H 	H 	0.57680 0.81490 0.51420 -0.00800
C 	C 	0.97338 0.83590 0.99951 -0.13300
H 	H 	0.95610 0.83100 0.95970 0.07200
C 	C 	0.75678 0.73680 0.84817 0.05600
C 	C 	0.32180 0.95720 0.31812 -0.12900
H 	H 	0.36590 0.93950 0.33800 0.07900
C 	C 	0.19390 0.00680 0.25704 0.06800
H 	H 	0.14970 0.02370 0.23620 -0.02100
C 	C 	0.28456 0.10030 0.52185 0.05000
C 	C 	0.03290 0.87650 0.03030 0.05400
H 	H 	0.05510 0.89910 0.01000 -0.01100
C 	C 	0.32045 0.00240 0.41130 0.09600
C 	C 	0.46728 0.92480 0.53253 0.06300
C 	C 	0.67414 0.54070 0.02538 0.07900
H 	H 	0.63240 0.51640 0.00500 -0.00800
C 	C 	0.67300 0.70280 0.75520 0.07200
H 	H 	0.63450 0.67360 0.73260 -0.01500
C 	C 	0.31392 0.10800 0.58139 -0.12400
H 	H 	0.35560 0.08470 0.60350 0.07600
C 	C 	0.70145 0.58420 0.99449 -0.12700
H 	H 	0.67910 0.58840 0.95460 0.08300
C 	C 	0.79400 0.67250 0.99416 0.10300
C 	C 	0.31790 0.05090 0.49280 0.09500
C 	C 	0.19221 0.17840 0.52025 0.06100
H 	H 	0.15070 0.20260 0.49920 -0.00400
C 	C 	0.02673 0.85450 0.11553 0.05400
H 	H 	0.04410 0.86200 0.15520 -0.01200
C 	C 	0.28923 0.94840 0.25922 0.06800
H 	H 	0.31220 0.92450 0.24010 -0.01000
C 	C 	0.49792 0.92470 0.59222 -0.13000
H 	H 	0.47920 0.95320 0.61310 0.07800
C 	C 	0.22263 0.01830 0.31611 -0.13700
H 	H 	0.19860 0.04250 0.33420 0.07300
C 	C 	0.79537 0.61110 0.08438 -0.12600
H 	H 	0.83740 0.63390 0.10580 0.08200
C 	C 	0.55701 0.88130 0.62021 0.07300
H 	H 	0.57690 0.88030 0.66030 -0.00200
C 	C 	0.28880 0.99250 0.34777 0.05100
C 	C 	0.76366 0.62190 0.02493 0.06500
C 	C 	0.75480 0.79350 0.76218 0.06100
H 	H 	0.77340 0.82860 0.74460 -0.01200
C 	C 	0.78436 0.78840 0.82151 -0.12800
H 	H 	0.82220 0.81930 0.84320 0.06800
C 	C 	0.69854 0.69460 0.81452 -0.13000
H 	H 	0.67730 0.66180 0.83120 0.08100
N 	N 	0.06076 0.88540 0.08794 -0.20700
N 	N 	0.70369 0.53108 0.08269 -0.18800
N 	N 	0.70029 0.75010 0.72850 -0.19400
N 	N 	0.85182 0.71080 0.02706 -0.13700
N 	N 	0.76134 0.67717 0.93664 -0.13700
N 	N 	0.84667 0.76830 0.94009 -0.14200
N 	N 	0.58706 0.84040 0.59224 -0.18300
N 	N 	0.21999 0.18530 0.57805 -0.20200
N 	N 	0.22517 0.97310 0.22799 -0.19500
N 	N 	0.37397 0.00990 0.52659 -0.14000
N 	N 	0.28919 0.04910 0.43495 -0.14800
N 	N 	0.37815 0.96240 0.44082 -0.13600
Ag	Ag	0.65611 0.54206 0.63204 0.51000
Ag	Ag	0.17699 0.74994 0.13245 0.51300
C 	C 	0.37574 0.74270 0.49731 0.10000
C 	C 	0.99754 0.61720 0.00315 -0.12700
H 	H 	0.97820 0.61800 0.96310 0.08300
C 	C 	0.46671 0.68840 0.58846 -0.13000
H 	H 	0.44530 0.71020 0.60960 0.07800
C 	C 	0.72233 0.36290 0.99048 -0.12800
H 	H 	0.70150 0.36610 0.95050 0.07400
C 	C 	0.26426 0.93330 0.61118 0.07200
H 	H 	0.28600 0.93910 0.65100 -0.00400
C 	C 	0.43997 0.69750 0.52944 0.05500
C 	C 	0.90269 0.53090 0.99840 0.10000
C 	C 	0.78035 0.34940 0.10713 0.05300
H 	H 	0.80070 0.34420 0.14700 -0.01900
C 	C 	0.28999 0.77350 0.41206 0.10200
C 	C 	0.05664 0.65760 0.03430 0.07700
H 	H 	0.07680 0.68510 0.01420 -0.00800
C 	C 	0.47338 0.66410 0.49951 -0.13100
H 	H 	0.45610 0.66900 0.45970 0.07200
C 	C 	0.25678 0.76320 0.34817 0.05600
C 	C 	0.82180 0.54280 0.81812 -0.12900
H 	H 	0.86590 0.56050 0.83800 0.07900
C 	C 	0.69390 0.49320 0.75704 0.06800
H 	H 	0.64970 0.47630 0.73620 -0.02100
C 	C 	0.78456 0.39970 0.02185 0.05200
C 	C 	0.53290 0.62350 0.53030 0.05400
H 	H 	0.55510 0.60090 0.51000 -0.01100
C 	C 	0.82045 0.49760 0.91130 0.09600
C 	C 	0.96728 0.57520 0.03253 0.06300
C 	C 	0.17414 0.95930 0.52538 0.07800
H 	H 	0.13240 0.98360 0.50500 -0.00800
C 	C 	0.17300 0.79720 0.25520 0.07200
H 	H 	0.13450 0.82640 0.23260 -0.01500
C 	C 	0.81392 0.39200 0.08139 -0.12600
H 	H 	0.85560 0.41530 0.10350 0.07600
C 	C 	0.20145 0.91580 0.49449 -0.12500
H 	H 	0.17910 0.91160 0.45460 0.08200
C 	C 	0.29400 0.82750 0.49416 0.10400
C 	C 	0.81790 0.44910 0.99280 0.09300
C 	C 	0.69221 0.32160 0.02025 0.06400
H 	H 	0.65070 0.29740 0.99920 -0.00600
C 	C 	0.52673 0.64550 0.61553 0.05500
H 	H 	0.54410 0.63800 0.65520 -0.01200
C 	C 	0.78923 0.55160 0.75922 0.06900
H 	H 	0.81220 0.57550 0.74010 -0.01000
C 	C 	0.99792 0.57530 0.09222 -0.12800
H 	H 	0.97920 0.54680 0.11310 0.07800
C 	C 	0.72263 0.48170 0.81611 -0.13800
H 	H 	0.69860 0.45750 0.83420 0.07300
C 	C 	0.29537 0.88890 0.58438 -0.12500
H 	H 	0.33740 0.86610 0.60580 0.08200
C 	C 	0.05701 0.61870 0.12021 0.07200
H 	H 	0.07690 0.61970 0.16030 -0.00100
C 	C 	0.78880 0.50750 0.84777 0.05100
C 	C 	0.26366 0.87810 0.52493 0.06400
C 	C 	0.25480 0.70650 0.26218 0.06100
H 	H 	0.27340 0.67140 0.24460 -0.01200
C 	C 	0.28436 0.71160 0.32151 -0.12800
H 	H 	0.32220 0.68070 0.34320 0.06800
C 	C 	0.19854 0.80540 0.31452 -0.13100
H 	H 	0.17730 0.83820 0.33120 0.08100
N 	N 	0.56076 0.61460 0.58794 -0.20700
N 	N 	0.20369 0.96892 0.58269 -0.18800
N 	N 	0.20029 0.74990 0.22850 -0.19400
N 	N 	0.35182 0.78920 0.52706 -0.13800
N 	N 	0.26134 0.82283 0.43664 -0.13700
N 	N 	0.34667 0.73170 0.44009 -0.14200
N 	N 	0.08706 0.65960 0.09224 -0.18300
N 	N 	0.71999 0.31470 0.07805 -0.20200
N 	N 	0.72517 0.52690 0.72799 -0.19500
N 	N 	0.87397 0.49010 0.02659 -0.13900
N 	N 	0.78919 0.45090 0.93495 -0.14700
N 	N 	0.87815 0.53760 0.94082 -0.13600
Ag	Ag	0.15611 0.04206 0.63204 0.51000
Ag	Ag	0.67699 0.24994 0.13245 0.51300
C 	C 	0.87574 0.24270 0.49731 0.10000
C 	C 	0.49754 0.11720 0.00315 -0.12900
H 	H 	0.47820 0.11800 0.96310 0.08500
C 	C 	0.96671 0.18840 0.58846 -0.13000
H 	H 	0.94530 0.21020 0.60960 0.07800
C 	C 	0.22233 0.86290 0.99048 -0.12000
H 	H 	0.20150 0.86610 0.95050 0.07100
C 	C 	0.76426 0.43330 0.61118 0.07200
H 	H 	0.78600 0.43910 0.65100 -0.00400
C 	C 	0.93997 0.19750 0.52944 0.05500
C 	C 	0.40269 0.03090 0.99840 0.10100
C 	C 	0.28035 0.84940 0.10713 0.05100
H 	H 	0.30070 0.84420 0.14700 -0.01800
C 	C 	0.78999 0.27350 0.41206 0.10200
C 	C 	0.55664 0.15760 0.03430 0.07900
H 	H 	0.57680 0.18510 0.01420 -0.00800
C 	C 	0.97338 0.16410 0.49951 -0.13100
H 	H 	0.95610 0.16900 0.45970 0.07200
C 	C 	0.75678 0.26320 0.34817 0.05600
C 	C 	0.32180 0.04280 0.81812 -0.12900
H 	H 	0.36590 0.06050 0.83800 0.07900
C 	C 	0.19390 0.99320 0.75704 0.06800
H 	H 	0.14970 0.97630 0.73620 -0.02100
C 	C 	0.28456 0.89970 0.02185 0.04600
C 	C 	0.03290 0.12350 0.53030 0.05400
H 	H 	0.05510 0.10090 0.51000 -0.01100
C 	C 	0.32045 0.99760 0.91130 0.09700
C 	C 	0.46728 0.07520 0.03253 0.06400
C 	C 	0.67414 0.45930 0.52538 0.07800
H 	H 	0.63240 0.48360 0.50500 -0.00800
C 	C 	0.67300 0.29720 0.25520 0.07200
H 	H 	0.63450 0.32640 0.23260 -0.01500
C 	C 	0.31392 0.89200 0.08139 -0.12200
H 	H 	0.35560 0.91530 0.10350 0.07500
C 	C 	0.70145 0.41580 0.49449 -0.12500
H 	H 	0.67910 0.41160 0.45460 0.08200
C 	C 	0.79400 0.32750 0.49416 0.10400
C 	C 	0.31790 0.94910 0.99280 0.09600
C 	C 	0.19221 0.82160 0.02025 0.05700
H 	H 	0.15070 0.79740 0.99920 -0.00200
C 	C 	0.02673 0.14550 0.61553 0.05500
H 	H 	0.04410 0.13800 0.65520 -0.01200
C 	C 	0.28923 0.05160 0.75922 0.06800
H 	H 	0.31220 0.07550 0.74010 -0.00900
C 	C 	0.49792 0.07530 0.09222 -0.13000
H 	H 	0.47920 0.04680 0.11310 0.07800
C 	C 	0.22263 0.98170 0.81611 -0.13700
H 	H 	0.19860 0.95750 0.83420 0.07300
C 	C 	0.79537 0.38890 0.58438 -0.12500
H 	H 	0.83740 0.36610 0.60580 0.08200
C 	C 	0.55701 0.11870 0.12021 0.07300
H 	H 	0.57690 0.11970 0.16030 -0.00200
C 	C 	0.28880 0.00750 0.84777 0.05000
C 	C 	0.76366 0.37810 0.52493 0.06400
C 	C 	0.75480 0.20650 0.26218 0.06100
H 	H 	0.77340 0.17140 0.24460 -0.01200
C 	C 	0.78436 0.21160 0.32151 -0.12800
H 	H 	0.82220 0.18070 0.34320 0.06800
C 	C 	0.69854 0.30540 0.31452 -0.13000
H 	H 	0.67730 0.33820 0.33120 0.08100
N 	N 	0.06076 0.11460 0.58794 -0.20700
N 	N 	0.70369 0.46892 0.58269 -0.18800
N 	N 	0.70029 0.24990 0.22850 -0.19400
N 	N 	0.85182 0.28920 0.52706 -0.13800
N 	N 	0.76134 0.32283 0.43664 -0.13700
N 	N 	0.84667 0.23170 0.44009 -0.14200
N 	N 	0.58706 0.15960 0.09224 -0.18300
N 	N 	0.21999 0.81470 0.07805 -0.20100
N 	N 	0.22517 0.02690 0.72799 -0.19500
N 	N 	0.37397 0.99010 0.02659 -0.14100
N 	N 	0.28919 0.95090 0.93495 -0.14800
N 	N 	0.37815 0.03760 0.94082 -0.13600
Ag	Ag	0.34389 0.54206 0.86796 0.51000
Ag	Ag	0.82301 0.74994 0.36755 0.51300
C 	C 	0.62426 0.74270 0.00269 0.10000
C 	C 	0.00246 0.61720 0.49685 -0.13000
H 	H 	0.02180 0.61800 0.53690 0.08500
C 	C 	0.53329 0.68840 0.91154 -0.13000
H 	H 	0.55470 0.71020 0.89040 0.07900
C 	C 	0.27767 0.36290 0.50952 -0.12500
H 	H 	0.29850 0.36610 0.54950 0.07300
C 	C 	0.73574 0.93330 0.88882 0.07200
H 	H 	0.71400 0.93910 0.84900 -0.00400
C 	C 	0.56003 0.69750 0.97056 0.05500
C 	C 	0.09731 0.53090 0.50160 0.10100
C 	C 	0.21965 0.34940 0.39287 0.05200
H 	H 	0.19930 0.34420 0.35300 -0.01900
C 	C 	0.71001 0.77350 0.08794 0.10200
C 	C 	0.94336 0.65760 0.46570 0.07900
H 	H 	0.92320 0.68510 0.48580 -0.00800
C 	C 	0.52662 0.66410 0.00049 -0.13200
H 	H 	0.54390 0.66900 0.04030 0.07200
C 	C 	0.74322 0.76320 0.15183 0.05600
C 	C 	0.17820 0.54280 0.68188 -0.12900
H 	H 	0.13410 0.56050 0.66200 0.08000
C 	C 	0.30610 0.49320 0.74296 0.06800
H 	H 	0.35030 0.47630 0.76380 -0.02100
C 	C 	0.21544 0.39970 0.47815 0.05000
C 	C 	0.46710 0.62350 0.96970 0.05400
H 	H 	0.44490 0.60090 0.99000 -0.01100
C 	C 	0.17955 0.49760 0.58870 0.09600
C 	C 	0.03272 0.57520 0.46747 0.06400
C 	C 	0.82586 0.95930 0.97462 0.07800
H 	H 	0.86760 0.98360 0.99500 -0.00800
C 	C 	0.82700 0.79720 0.24480 0.07200
H 	H 	0.86550 0.82640 0.26740 -0.01500
C 	C 	0.18608 0.39200 0.41861 -0.12400
H 	H 	0.14440 0.41530 0.39650 0.07600
C 	C 	0.79855 0.91580 0.00551 -0.12500
H 	H 	0.82090 0.91160 0.04540 0.08200
C 	C 	0.70600 0.82750 0.00584 0.10400
C 	C 	0.18210 0.44910 0.50720 0.09500
C 	C 	0.30779 0.32160 0.47975 0.06100
H 	H 	0.34930 0.29740 0.50080 -0.00400
C 	C 	0.47327 0.64550 0.88447 0.05500
H 	H 	0.45590 0.63800 0.84480 -0.01200
C 	C 	0.21077 0.55160 0.74078 0.06900
H 	H 	0.18780 0.57550 0.75990 -0.00900
C 	C 	0.00208 0.57530 0.40778 -0.13000
H 	H 	0.02080 0.54680 0.38690 0.07800
C 	C 	0.27737 0.48170 0.68389 -0.13800
H 	H 	0.30140 0.45750 0.66580 0.07300
C 	C 	0.70463 0.88890 0.91562 -0.12500
H 	H 	0.66260 0.86610 0.89420 0.08200
C 	C 	0.94299 0.61870 0.37979 0.07400
H 	H 	0.92310 0.61970 0.33970 -0.00200
C 	C 	0.21120 0.50750 0.65223 0.05100
C 	C 	0.73634 0.87810 0.97507 0.06300
C 	C 	0.74520 0.70650 0.23782 0.06100
H 	H 	0.72660 0.67140 0.25540 -0.01200
C 	C 	0.71564 0.71160 0.17849 -0.12800
H 	H 	0.67780 0.68070 0.15680 0.06800
C 	C 	0.80146 0.80540 0.18548 -0.13100
H 	H 	0.82270 0.83820 0.16880 0.08100
N 	N 	0.43924 0.61460 0.91206 -0.20700
N 	N 	0.79631 0.96892 0.91731 -0.18800
N 	N 	0.79971 0.74990 0.27150 -0.19400
N 	N 	0.64818 0.78920 0.97294 -0.13800
N 	N 	0.73866 0.82283 0.06336 -0.13700
N 	N 	0.65333 0.73170 0.05991 -0.14200
N 	N 	0.91294 0.65960 0.40776 -0.18300
N 	N 	0.28001 0.31470 0.42195 -0.20200
N 	N 	0.27483 0.52690 0.77201 -0.19500
N 	N 	0.12603 0.49010 0.47341 -0.14000
N 	N 	0.21081 0.45090 0.56505 -0.14800
N 	N 	0.12185 0.53760 0.55918 -0.13600
Ag	Ag	0.84389 0.04206 0.86796 0.50900
Ag	Ag	0.32301 0.24994 0.36755 0.51300
C 	C 	0.12426 0.24270 0.00269 0.09900
C 	C 	0.50246 0.11720 0.49685 -0.13000
H 	H 	0.52180 0.11800 0.53690 0.08500
C 	C 	0.03329 0.18840 0.91154 -0.12900
H 	H 	0.05470 0.21020 0.89040 0.07800
C 	C 	0.77767 0.86290 0.50952 -0.12500
H 	H 	0.79850 0.86610 0.54950 0.07300
C 	C 	0.23574 0.43330 0.88882 0.07300
H 	H 	0.21400 0.43910 0.84900 -0.00400
C 	C 	0.06003 0.19750 0.97056 0.05600
C 	C 	0.59731 0.03090 0.50160 0.10100
C 	C 	0.71965 0.84940 0.39287 0.05200
H 	H 	0.69930 0.84420 0.35300 -0.01900
C 	C 	0.21001 0.27350 0.08794 0.10200
C 	C 	0.44336 0.15760 0.46570 0.07900
H 	H 	0.42320 0.18510 0.48580 -0.00800
C 	C 	0.02662 0.16410 0.00049 -0.13300
H 	H 	0.04390 0.16900 0.04030 0.07200
C 	C 	0.24322 0.26320 0.15183 0.05600
C 	C 	0.67820 0.04280 0.68188 -0.12900
H 	H 	0.63410 0.06050 0.66200 0.07900
C 	C 	0.80610 0.99320 0.74296 0.06800
H 	H 	0.85030 0.97630 0.76380 -0.02100
C 	C 	0.71544 0.89970 0.47815 0.05000
C 	C 	0.96710 0.12350 0.96970 0.05400
H 	H 	0.94490 0.10090 0.99000 -0.01100
C 	C 	0.67955 0.99760 0.58870 0.09600
C 	C 	0.53272 0.07520 0.46747 0.06300
C 	C 	0.32586 0.45930 0.97462 0.07900
H 	H 	0.36760 0.48360 0.99500 -0.00800
C 	C 	0.32700 0.29720 0.24480 0.07200
H 	H 	0.36550 0.32640 0.26740 -0.01500
C 	C 	0.68608 0.89200 0.41861 -0.12400
H 	H 	0.64440 0.91530 0.39650 0.07600
C 	C 	0.29855 0.41580 0.00551 -0.12700
H 	H 	0.32090 0.41160 0.04540 0.08300
C 	C 	0.20600 0.32750 0.00584 0.10300
C 	C 	0.68210 0.94910 0.50720 0.09500
C 	C 	0.80779 0.82160 0.47975 0.06100
H 	H 	0.84930 0.79740 0.50080 -0.00400
C 	C 	0.97327 0.14550 0.88447 0.05400
H 	H 	0.95590 0.13800 0.84480 -0.01200
C 	C 	0.71077 0.05160 0.74078 0.06800
H 	H 	0.68780 0.07550 0.75990 -0.01000
C 	C 	0.50208 0.07530 0.40778 -0.13000
H 	H 	0.52080 0.04680 0.38690 0.07800
C 	C 	0.77737 0.98170 0.68389 -0.13700
H 	H 	0.80140 0.95750 0.66580 0.07300
C 	C 	0.20463 0.38890 0.91562 -0.12600
H 	H 	0.16260 0.36610 0.89420 0.08200
C 	C 	0.44299 0.11870 0.37979 0.07300
H 	H 	0.42310 0.11970 0.33970 -0.00200
C 	C 	0.71120 0.00750 0.65223 0.05100
C 	C 	0.23634 0.37810 0.97507 0.06500
C 	C 	0.24520 0.20650 0.23782 0.06100
H 	H 	0.22660 0.17140 0.25540 -0.01200
C 	C 	0.21564 0.21160 0.17849 -0.12800
H 	H 	0.17780 0.18070 0.15680 0.06800
C 	C 	0.30146 0.30540 0.18548 -0.13000
H 	H 	0.32270 0.33820 0.16880 0.08100
N 	N 	0.93924 0.11460 0.91206 -0.20700
N 	N 	0.29631 0.46892 0.91731 -0.18800
N 	N 	0.29971 0.24990 0.27150 -0.19400
N 	N 	0.14818 0.28920 0.97294 -0.13700
N 	N 	0.23866 0.32283 0.06336 -0.13700
N 	N 	0.15333 0.23170 0.05991 -0.14200
N 	N 	0.41294 0.15960 0.40776 -0.18300
N 	N 	0.78001 0.81470 0.42195 -0.20200
N 	N 	0.77483 0.02690 0.77201 -0.19500
N 	N 	0.62603 0.99010 0.47341 -0.14000
N 	N 	0.71081 0.95090 0.56505 -0.14800
N 	N 	0.62185 0.03760 0.55918 -0.13600
