data_crystal

_cell_length_a 22.03660
_cell_length_b 16.45320
_cell_length_c 25.68050
_cell_angle_alpha 90.00000
_cell_angle_beta  115.39700
_cell_angle_gamma 90.00000

_symmetry_space_group_name_	'P 1'
_symmetry_space_group_name_H-M	'P 1'

loop_
_symmetry_equiv_pos_as_xyz
  x,y,z

loop_
_atom_site_label
_atom_site_type_symbol
_atom_site_fract_x
_atom_site_fract_y
_atom_site_fract_z
_atom_site_charge
Ag	Ag	0.27404 0.70856 0.86820 0.51100
Ag	Ag	0.79465 0.00021 0.36768 0.51400
C 	C 	0.62836 0.06210 0.91179 -0.12900
H 	H 	0.58580 0.04040 0.89060 0.07900
C 	C 	0.42295 0.40000 0.39285 0.05000
H 	H 	0.40330 0.40430 0.35290 -0.01800
C 	C 	0.62842 0.00750 0.00282 0.10100
C 	C 	0.65412 0.21900 0.50174 0.10000
C 	C 	0.48163 0.38690 0.50950 -0.12400
H 	H 	0.50060 0.38360 0.54950 0.07200
C 	C 	0.40311 0.81660 0.88888 0.07100
H 	H 	0.38500 0.81080 0.84900 -0.00400
C 	C 	0.74388 0.13310 0.49673 -0.13000
H 	H 	0.76470 0.13280 0.53680 0.08500
C 	C 	0.72318 0.08640 0.00014 -0.13000
H 	H 	0.74550 0.08210 0.04000 0.07100
C 	C 	0.57523 0.30090 0.50731 0.09600
C 	C 	0.66041 0.05250 0.97072 0.05400
C 	C 	0.62810 0.97640 0.08825 0.10100
C 	C 	0.77212 0.09250 0.46566 0.07900
H 	H 	0.81250 0.06520 0.48580 -0.00800
C 	C 	0.46113 0.86090 0.91585 -0.12300
H 	H 	0.48180 0.88350 0.89440 0.08100
C 	C 	0.78000 0.19830 0.74082 0.06700
H 	H 	0.82210 0.17460 0.75990 -0.00900
C 	C 	0.65853 0.98690 0.15185 0.05500
C 	C 	0.69090 0.24270 0.65244 0.05100
C 	C 	0.75254 0.12710 0.96965 0.05300
H 	H 	0.79510 0.14940 0.98990 -0.01100
C 	C 	0.55014 0.92260 0.00605 0.10400
C 	C 	0.66106 0.10510 0.88467 0.05600
H 	H 	0.63870 0.11270 0.84500 -0.01300
C 	C 	0.71218 0.03860 0.17865 -0.12700
H 	H 	0.72800 0.06980 0.15690 0.06800
C 	C 	0.48236 0.35800 0.41910 -0.12300
H 	H 	0.50210 0.33510 0.39700 0.07500
C 	C 	0.68425 0.17440 0.46749 0.06500
C 	C 	0.45688 0.83410 0.00548 -0.12600
H 	H 	0.47440 0.83790 0.04540 0.08200
C 	C 	0.75343 0.20730 0.68173 -0.12800
H 	H 	0.77750 0.18960 0.66170 0.07900
C 	C 	0.68690 0.25690 0.74328 0.06700
H 	H 	0.66390 0.27420 0.76430 -0.02100
C 	C 	0.65630 0.26830 0.68386 -0.13700
H 	H 	0.61410 0.29230 0.66570 0.07300
C 	C 	0.51278 0.35000 0.47833 0.04900
C 	C 	0.65893 0.25250 0.58855 0.09700
C 	C 	0.74210 0.04380 0.23781 0.05900
H 	H 	0.77830 0.07890 0.25530 -0.01100
C 	C 	0.39894 0.79090 0.97480 0.07900
H 	H 	0.37760 0.76690 0.99520 -0.00800
C 	C 	0.65563 0.17470 0.40809 -0.13100
H 	H 	0.61630 0.20360 0.38730 0.07900
C 	C 	0.63376 0.94490 0.18561 -0.13000
H 	H 	0.59570 0.91230 0.16890 0.08100
C 	C 	0.66740 0.95310 0.24475 0.07300
H 	H 	0.65140 0.92390 0.26730 -0.01500
C 	C 	0.42193 0.42860 0.47980 0.06100
H 	H 	0.40170 0.45320 0.50090 -0.00400
C 	C 	0.48905 0.87220 0.97533 0.06300
C 	C 	0.68672 0.13120 0.38001 0.07400
H 	H 	0.66650 0.13030 0.33990 -0.00200
N 	N 	0.37117 0.78101 0.91746 -0.18800
N 	N 	0.72246 0.13590 0.91219 -0.20600
N 	N 	0.72127 0.00010 0.27168 -0.19300
N 	N 	0.57480 0.96111 0.97307 -0.13800
N 	N 	0.65627 0.01856 0.05975 -0.14200
N 	N 	0.57485 0.92718 0.06336 -0.13700
N 	N 	0.74459 0.09010 0.40779 -0.18300
N 	N 	0.39180 0.43528 0.42208 -0.20100
N 	N 	0.74691 0.22280 0.77201 -0.19400
N 	N 	0.59747 0.26002 0.47353 -0.14000
N 	N 	0.60422 0.29900 0.56492 -0.14900
N 	N 	0.68724 0.21254 0.55933 -0.13700
Ag	Ag	0.77404 0.20856 0.86820 0.51000
Ag	Ag	0.29465 0.50021 0.36768 0.51300
C 	C 	0.12836 0.56210 0.91179 -0.13200
H 	H 	0.08580 0.54040 0.89060 0.07900
C 	C 	0.92295 0.90000 0.39285 0.05000
H 	H 	0.90330 0.90430 0.35290 -0.01800
C 	C 	0.12842 0.50750 0.00282 0.09900
C 	C 	0.15412 0.71900 0.50174 0.10000
C 	C 	0.98163 0.88690 0.50950 -0.12400
H 	H 	0.00060 0.88360 0.54950 0.07200
C 	C 	0.90311 0.31660 0.88888 0.07000
H 	H 	0.88500 0.31080 0.84900 -0.00400
C 	C 	0.24388 0.63310 0.49673 -0.13000
H 	H 	0.26470 0.63280 0.53680 0.08500
C 	C 	0.22318 0.58640 0.00014 -0.13400
H 	H 	0.24550 0.58210 0.04000 0.07300
C 	C 	0.07523 0.80090 0.50731 0.09600
C 	C 	0.16041 0.55250 0.97072 0.05700
C 	C 	0.12810 0.47640 0.08825 0.10100
C 	C 	0.27212 0.59250 0.46566 0.07900
H 	H 	0.31250 0.56520 0.48580 -0.00800
C 	C 	0.96113 0.36090 0.91585 -0.12200
H 	H 	0.98180 0.38350 0.89440 0.08100
C 	C 	0.28000 0.69830 0.74082 0.06700
H 	H 	0.32210 0.67460 0.75990 -0.00900
C 	C 	0.15853 0.48690 0.15185 0.05500
C 	C 	0.19090 0.74270 0.65244 0.05100
C 	C 	0.25254 0.62710 0.96965 0.05600
H 	H 	0.29510 0.64940 0.98990 -0.01200
C 	C 	0.05014 0.42260 0.00605 0.10500
C 	C 	0.16106 0.60510 0.88467 0.05800
H 	H 	0.13870 0.61270 0.84500 -0.01300
C 	C 	0.21218 0.53860 0.17865 -0.12700
H 	H 	0.22800 0.56980 0.15690 0.06800
C 	C 	0.98236 0.85800 0.41910 -0.12200
H 	H 	0.00210 0.83510 0.39700 0.07500
C 	C 	0.18425 0.67440 0.46749 0.06500
C 	C 	0.95688 0.33410 0.00548 -0.12200
H 	H 	0.97440 0.33790 0.04540 0.08100
C 	C 	0.25343 0.70730 0.68173 -0.12800
H 	H 	0.27750 0.68960 0.66170 0.07900
C 	C 	0.18690 0.75690 0.74328 0.06700
H 	H 	0.16390 0.77420 0.76430 -0.02100
C 	C 	0.15630 0.76830 0.68386 -0.13700
H 	H 	0.11410 0.79230 0.66570 0.07300
C 	C 	0.01278 0.85000 0.47833 0.04800
C 	C 	0.15893 0.75250 0.58855 0.09700
C 	C 	0.24210 0.54380 0.23781 0.05900
H 	H 	0.27830 0.57890 0.25530 -0.01100
C 	C 	0.89894 0.29090 0.97480 0.07600
H 	H 	0.87760 0.26690 0.99520 -0.00800
C 	C 	0.15563 0.67470 0.40809 -0.13100
H 	H 	0.11630 0.70360 0.38730 0.07800
C 	C 	0.13376 0.44490 0.18561 -0.13000
H 	H 	0.09570 0.41230 0.16890 0.08100
C 	C 	0.16740 0.45310 0.24475 0.07300
H 	H 	0.15140 0.42390 0.26730 -0.01500
C 	C 	0.92193 0.92860 0.47980 0.06100
H 	H 	0.90170 0.95320 0.50090 -0.00400
C 	C 	0.98905 0.37220 0.97533 0.06000
C 	C 	0.18672 0.63120 0.38001 0.07300
H 	H 	0.16650 0.63030 0.33990 -0.00200
N 	N 	0.87117 0.28101 0.91746 -0.18700
N 	N 	0.22246 0.63590 0.91219 -0.20700
N 	N 	0.22127 0.50010 0.27168 -0.19300
N 	N 	0.07480 0.46111 0.97307 -0.13700
N 	N 	0.15627 0.51856 0.05975 -0.14200
N 	N 	0.07485 0.42718 0.06336 -0.13800
N 	N 	0.24459 0.59010 0.40779 -0.18300
N 	N 	0.89180 0.93528 0.42208 -0.20100
N 	N 	0.24691 0.72280 0.77201 -0.19400
N 	N 	0.09747 0.76002 0.47353 -0.14000
N 	N 	0.10422 0.79900 0.56492 -0.14900
N 	N 	0.18724 0.71254 0.55933 -0.13700
Ag	Ag	0.72596 0.70856 0.63180 0.51000
Ag	Ag	0.20535 0.00021 0.13232 0.51300
C 	C 	0.37164 0.06210 0.58821 -0.13100
H 	H 	0.41420 0.04040 0.60940 0.07900
C 	C 	0.57705 0.40000 0.10715 0.05000
H 	H 	0.59670 0.40430 0.14710 -0.01800
C 	C 	0.37158 0.00750 0.49718 0.10100
C 	C 	0.34588 0.21900 0.99826 0.10000
C 	C 	0.51837 0.38690 0.99050 -0.12400
H 	H 	0.49940 0.38360 0.95050 0.07200
C 	C 	0.59689 0.81660 0.61112 0.07100
H 	H 	0.61500 0.81080 0.65100 -0.00400
C 	C 	0.25612 0.13310 0.00327 -0.13100
H 	H 	0.23530 0.13280 0.96320 0.08600
C 	C 	0.27682 0.08640 0.49986 -0.13100
H 	H 	0.25450 0.08210 0.46000 0.07200
C 	C 	0.42477 0.30090 0.99269 0.09600
C 	C 	0.33959 0.05250 0.52928 0.05500
C 	C 	0.37190 0.97640 0.41175 0.10100
C 	C 	0.22788 0.09250 0.03434 0.07900
H 	H 	0.18750 0.06520 0.01420 -0.00900
C 	C 	0.53887 0.86090 0.58415 -0.12300
H 	H 	0.51820 0.88350 0.60560 0.08100
C 	C 	0.22000 0.19830 0.75918 0.06700
H 	H 	0.17790 0.17460 0.74010 -0.00900
C 	C 	0.34147 0.98690 0.34815 0.05500
C 	C 	0.30910 0.24270 0.84756 0.05100
C 	C 	0.24746 0.12710 0.53035 0.05400
H 	H 	0.20490 0.14940 0.51010 -0.01200
C 	C 	0.44986 0.92260 0.49395 0.10500
C 	C 	0.33894 0.10510 0.61533 0.05700
H 	H 	0.36130 0.11270 0.65500 -0.01300
C 	C 	0.28782 0.03860 0.32135 -0.12700
H 	H 	0.27200 0.06980 0.34310 0.06800
C 	C 	0.51764 0.35800 0.08090 -0.12300
H 	H 	0.49790 0.33510 0.10300 0.07500
C 	C 	0.31575 0.17440 0.03251 0.06500
C 	C 	0.54312 0.83410 0.49452 -0.12400
H 	H 	0.52560 0.83790 0.45460 0.08200
C 	C 	0.24657 0.20730 0.81827 -0.12800
H 	H 	0.22250 0.18960 0.83830 0.07900
C 	C 	0.31310 0.25690 0.75672 0.06700
H 	H 	0.33610 0.27420 0.73570 -0.02100
C 	C 	0.34370 0.26830 0.81614 -0.13700
H 	H 	0.38590 0.29230 0.83430 0.07300
C 	C 	0.48722 0.35000 0.02167 0.04900
C 	C 	0.34107 0.25250 0.91145 0.09700
C 	C 	0.25790 0.04380 0.26219 0.05900
H 	H 	0.22170 0.07890 0.24470 -0.01100
C 	C 	0.60106 0.79090 0.52520 0.07800
H 	H 	0.62240 0.76690 0.50480 -0.00800
C 	C 	0.34437 0.17470 0.09191 -0.13100
H 	H 	0.38370 0.20360 0.11270 0.07900
C 	C 	0.36624 0.94490 0.31439 -0.13000
H 	H 	0.40430 0.91230 0.33110 0.08100
C 	C 	0.33260 0.95310 0.25525 0.07300
H 	H 	0.34860 0.92390 0.23270 -0.01500
C 	C 	0.57807 0.42860 0.02020 0.06100
H 	H 	0.59830 0.45320 0.99910 -0.00500
C 	C 	0.51095 0.87220 0.52467 0.06200
C 	C 	0.31328 0.13120 0.11999 0.07400
H 	H 	0.33350 0.13030 0.16010 -0.00200
N 	N 	0.62883 0.78101 0.58254 -0.18800
N 	N 	0.27754 0.13590 0.58781 -0.20700
N 	N 	0.27873 0.00010 0.22832 -0.19300
N 	N 	0.42520 0.96111 0.52693 -0.13800
N 	N 	0.34373 0.01856 0.44025 -0.14200
N 	N 	0.42515 0.92718 0.43664 -0.13800
N 	N 	0.25541 0.09010 0.09221 -0.18400
N 	N 	0.60820 0.43528 0.07792 -0.20100
N 	N 	0.25309 0.22280 0.72799 -0.19400
N 	N 	0.40253 0.26002 0.02647 -0.14100
N 	N 	0.39578 0.29900 0.93508 -0.14900
N 	N 	0.31276 0.21254 0.94067 -0.13700
Ag	Ag	0.22596 0.20856 0.63180 0.51000
Ag	Ag	0.70535 0.50021 0.13232 0.51300
C 	C 	0.87164 0.56210 0.58821 -0.13100
H 	H 	0.91420 0.54040 0.60940 0.07900
C 	C 	0.07705 0.90000 0.10715 0.05100
H 	H 	0.09670 0.90430 0.14710 -0.01800
C 	C 	0.87158 0.50750 0.49718 0.10100
C 	C 	0.84588 0.71900 0.99826 0.09900
C 	C 	0.01837 0.88690 0.99050 -0.12100
H 	H 	0.99940 0.88360 0.95050 0.07000
C 	C 	0.09689 0.31660 0.61112 0.07100
H 	H 	0.11500 0.31080 0.65100 -0.00400
C 	C 	0.75612 0.63310 0.00327 -0.13000
H 	H 	0.73530 0.63280 0.96320 0.08500
C 	C 	0.77682 0.58640 0.49986 -0.13100
H 	H 	0.75450 0.58210 0.46000 0.07200
C 	C 	0.92477 0.80090 0.99269 0.09500
C 	C 	0.83959 0.55250 0.52928 0.05500
C 	C 	0.87190 0.47640 0.41175 0.10100
C 	C 	0.72788 0.59250 0.03434 0.07900
H 	H 	0.68750 0.56520 0.01420 -0.00800
C 	C 	0.03887 0.36090 0.58415 -0.12300
H 	H 	0.01820 0.38350 0.60560 0.08100
C 	C 	0.72000 0.69830 0.75918 0.06700
H 	H 	0.67790 0.67460 0.74010 -0.00900
C 	C 	0.84147 0.48690 0.34815 0.05500
C 	C 	0.80910 0.74270 0.84756 0.05100
C 	C 	0.74746 0.62710 0.53035 0.05400
H 	H 	0.70490 0.64940 0.51010 -0.01200
C 	C 	0.94986 0.42260 0.49395 0.10500
C 	C 	0.83894 0.60510 0.61533 0.05700
H 	H 	0.86130 0.61270 0.65500 -0.01300
C 	C 	0.78782 0.53860 0.32135 -0.12700
H 	H 	0.77200 0.56980 0.34310 0.06800
C 	C 	0.01764 0.85800 0.08090 -0.12500
H 	H 	0.99790 0.83510 0.10300 0.07600
C 	C 	0.81575 0.67440 0.03251 0.06500
C 	C 	0.04312 0.33410 0.49452 -0.12400
H 	H 	0.02560 0.33790 0.45460 0.08200
C 	C 	0.74657 0.70730 0.81827 -0.12800
H 	H 	0.72250 0.68960 0.83830 0.07900
C 	C 	0.81310 0.75690 0.75672 0.06700
H 	H 	0.83610 0.77420 0.73570 -0.02100
C 	C 	0.84370 0.76830 0.81614 -0.13700
H 	H 	0.88590 0.79230 0.83430 0.07300
C 	C 	0.98722 0.85000 0.02167 0.04900
C 	C 	0.84107 0.75250 0.91145 0.09700
C 	C 	0.75790 0.54380 0.26219 0.05900
H 	H 	0.72170 0.57890 0.24470 -0.01100
C 	C 	0.10106 0.29090 0.52520 0.07800
H 	H 	0.12240 0.26690 0.50480 -0.00800
C 	C 	0.84437 0.67470 0.09191 -0.13100
H 	H 	0.88370 0.70360 0.11270 0.07900
C 	C 	0.86624 0.44490 0.31439 -0.13000
H 	H 	0.90430 0.41230 0.33110 0.08100
C 	C 	0.83260 0.45310 0.25525 0.07300
H 	H 	0.84860 0.42390 0.23270 -0.01500
C 	C 	0.07807 0.92860 0.02020 0.05800
H 	H 	0.09830 0.95320 0.99910 -0.00300
C 	C 	0.01095 0.37220 0.52467 0.06200
C 	C 	0.81328 0.63120 0.11999 0.07400
H 	H 	0.83350 0.63030 0.16010 -0.00200
N 	N 	0.12883 0.28101 0.58254 -0.18800
N 	N 	0.77754 0.63590 0.58781 -0.20700
N 	N 	0.77873 0.50010 0.22832 -0.19300
N 	N 	0.92520 0.46111 0.52693 -0.13800
N 	N 	0.84373 0.51856 0.44025 -0.14200
N 	N 	0.92515 0.42718 0.43664 -0.13800
N 	N 	0.75541 0.59010 0.09221 -0.18300
N 	N 	0.10820 0.93528 0.07792 -0.20100
N 	N 	0.75309 0.72280 0.72799 -0.19400
N 	N 	0.90253 0.76002 0.02647 -0.14000
N 	N 	0.89578 0.79900 0.93508 -0.14800
N 	N 	0.81276 0.71254 0.94067 -0.13700
Ag	Ag	0.72596 0.29144 0.13180 0.51000
Ag	Ag	0.20535 0.99979 0.63232 0.51300
C 	C 	0.37164 0.93790 0.08821 -0.13000
H 	H 	0.41420 0.95960 0.10940 0.07800
C 	C 	0.57705 0.60000 0.60715 0.05000
H 	H 	0.59670 0.59570 0.64710 -0.01800
C 	C 	0.37158 0.99250 0.99718 0.10100
C 	C 	0.34588 0.78100 0.49826 0.10000
C 	C 	0.51837 0.61310 0.49050 -0.12400
H 	H 	0.49940 0.61640 0.45050 0.07200
C 	C 	0.59689 0.18340 0.11112 0.07100
H 	H 	0.61500 0.18920 0.15100 -0.00400
C 	C 	0.25612 0.86690 0.50327 -0.13000
H 	H 	0.23530 0.86720 0.46320 0.08500
C 	C 	0.27682 0.91360 0.99986 -0.13000
H 	H 	0.25450 0.91790 0.96000 0.07100
C 	C 	0.42477 0.69910 0.49269 0.09600
C 	C 	0.33959 0.94750 0.02928 0.05400
C 	C 	0.37190 0.02360 0.91175 0.10100
C 	C 	0.22788 0.90750 0.53434 0.07900
H 	H 	0.18750 0.93480 0.51420 -0.00800
C 	C 	0.53887 0.13910 0.08415 -0.12300
H 	H 	0.51820 0.11650 0.10560 0.08100
C 	C 	0.22000 0.80170 0.25918 0.06700
H 	H 	0.17790 0.82540 0.24010 -0.00900
C 	C 	0.34147 0.01310 0.84815 0.05500
C 	C 	0.30910 0.75730 0.34756 0.05100
C 	C 	0.24746 0.87290 0.03035 0.05300
H 	H 	0.20490 0.85060 0.01010 -0.01100
C 	C 	0.44986 0.07740 0.99395 0.10400
C 	C 	0.33894 0.89490 0.11533 0.05600
H 	H 	0.36130 0.88730 0.15500 -0.01300
C 	C 	0.28782 0.96140 0.82135 -0.12700
H 	H 	0.27200 0.93020 0.84310 0.06800
C 	C 	0.51764 0.64200 0.58090 -0.12300
H 	H 	0.49790 0.66490 0.60300 0.07500
C 	C 	0.31575 0.82560 0.53251 0.06500
C 	C 	0.54312 0.16590 0.99452 -0.12600
H 	H 	0.52560 0.16210 0.95460 0.08200
C 	C 	0.24657 0.79270 0.31827 -0.12800
H 	H 	0.22250 0.81040 0.33830 0.07900
C 	C 	0.31310 0.74310 0.25672 0.06700
H 	H 	0.33610 0.72580 0.23570 -0.02100
C 	C 	0.34370 0.73170 0.31614 -0.13700
H 	H 	0.38590 0.70770 0.33430 0.07300
C 	C 	0.48722 0.65000 0.52167 0.04900
C 	C 	0.34107 0.74750 0.41145 0.09700
C 	C 	0.25790 0.95620 0.76219 0.05900
H 	H 	0.22170 0.92110 0.74470 -0.01100
C 	C 	0.60106 0.20910 0.02520 0.07900
H 	H 	0.62240 0.23310 0.00480 -0.00800
C 	C 	0.34437 0.82530 0.59191 -0.13100
H 	H 	0.38370 0.79640 0.61270 0.07900
C 	C 	0.36624 0.05510 0.81439 -0.13000
H 	H 	0.40430 0.08770 0.83110 0.08100
C 	C 	0.33260 0.04690 0.75525 0.07300
H 	H 	0.34860 0.07610 0.73270 -0.01500
C 	C 	0.57807 0.57140 0.52020 0.06100
H 	H 	0.59830 0.54680 0.49910 -0.00400
C 	C 	0.51095 0.12780 0.02467 0.06300
C 	C 	0.31328 0.86880 0.61999 0.07400
H 	H 	0.33350 0.86970 0.66010 -0.00200
N 	N 	0.62883 0.21899 0.08254 -0.18800
N 	N 	0.27754 0.86410 0.08781 -0.20600
N 	N 	0.27873 0.99990 0.72832 -0.19300
N 	N 	0.42520 0.03889 0.02693 -0.13800
N 	N 	0.34373 0.98144 0.94025 -0.14200
N 	N 	0.42515 0.07282 0.93664 -0.13700
N 	N 	0.25541 0.90990 0.59221 -0.18300
N 	N 	0.60820 0.56472 0.57792 -0.20100
N 	N 	0.25309 0.77720 0.22799 -0.19400
N 	N 	0.40253 0.73998 0.52647 -0.14000
N 	N 	0.39578 0.70100 0.43508 -0.14900
N 	N 	0.31276 0.78746 0.44067 -0.13700
Ag	Ag	0.22596 0.79144 0.13180 0.51000
Ag	Ag	0.70535 0.49979 0.63232 0.51300
C 	C 	0.87164 0.43790 0.08821 -0.13200
H 	H 	0.91420 0.45960 0.10940 0.07900
C 	C 	0.07705 0.10000 0.60715 0.05000
H 	H 	0.09670 0.09570 0.64710 -0.01800
C 	C 	0.87158 0.49250 0.99718 0.09900
C 	C 	0.84588 0.28100 0.49826 0.10000
C 	C 	0.01837 0.11310 0.49050 -0.12400
H 	H 	0.99940 0.11640 0.45050 0.07200
C 	C 	0.09689 0.68340 0.11112 0.07000
H 	H 	0.11500 0.68920 0.15100 -0.00400
C 	C 	0.75612 0.36690 0.50327 -0.13000
H 	H 	0.73530 0.36720 0.46320 0.08500
C 	C 	0.77682 0.41360 0.99986 -0.13400
H 	H 	0.75450 0.41790 0.96000 0.07300
C 	C 	0.92477 0.19910 0.49269 0.09600
C 	C 	0.83959 0.44750 0.02928 0.05700
C 	C 	0.87190 0.52360 0.91175 0.10100
C 	C 	0.72788 0.40750 0.53434 0.07900
H 	H 	0.68750 0.43480 0.51420 -0.00800
C 	C 	0.03887 0.63910 0.08415 -0.12200
H 	H 	0.01820 0.61650 0.10560 0.08100
C 	C 	0.72000 0.30170 0.25918 0.06700
H 	H 	0.67790 0.32540 0.24010 -0.00900
C 	C 	0.84147 0.51310 0.84815 0.05500
C 	C 	0.80910 0.25730 0.34756 0.05100
C 	C 	0.74746 0.37290 0.03035 0.05600
H 	H 	0.70490 0.35060 0.01010 -0.01200
C 	C 	0.94986 0.57740 0.99395 0.10500
C 	C 	0.83894 0.39490 0.11533 0.05800
H 	H 	0.86130 0.38730 0.15500 -0.01300
C 	C 	0.78782 0.46140 0.82135 -0.12700
H 	H 	0.77200 0.43020 0.84310 0.06800
C 	C 	0.01764 0.14200 0.58090 -0.12200
H 	H 	0.99790 0.16490 0.60300 0.07500
C 	C 	0.81575 0.32560 0.53251 0.06500
C 	C 	0.04312 0.66590 0.99452 -0.12200
H 	H 	0.02560 0.66210 0.95460 0.08100
C 	C 	0.74657 0.29270 0.31827 -0.12800
H 	H 	0.72250 0.31040 0.33830 0.07900
C 	C 	0.81310 0.24310 0.25672 0.06700
H 	H 	0.83610 0.22580 0.23570 -0.02100
C 	C 	0.84370 0.23170 0.31614 -0.13700
H 	H 	0.88590 0.20770 0.33430 0.07300
C 	C 	0.98722 0.15000 0.52167 0.04800
C 	C 	0.84107 0.24750 0.41145 0.09700
C 	C 	0.75790 0.45620 0.76219 0.05900
H 	H 	0.72170 0.42110 0.74470 -0.01100
C 	C 	0.10106 0.70910 0.02520 0.07600
H 	H 	0.12240 0.73310 0.00480 -0.00800
C 	C 	0.84437 0.32530 0.59191 -0.13100
H 	H 	0.88370 0.29640 0.61270 0.07800
C 	C 	0.86624 0.55510 0.81439 -0.13000
H 	H 	0.90430 0.58770 0.83110 0.08100
C 	C 	0.83260 0.54690 0.75525 0.07300
H 	H 	0.84860 0.57610 0.73270 -0.01500
C 	C 	0.07807 0.07140 0.52020 0.06100
H 	H 	0.09830 0.04680 0.49910 -0.00400
C 	C 	0.01095 0.62780 0.02467 0.06000
C 	C 	0.81328 0.36880 0.61999 0.07300
H 	H 	0.83350 0.36970 0.66010 -0.00200
N 	N 	0.12883 0.71899 0.08254 -0.18700
N 	N 	0.77754 0.36410 0.08781 -0.20700
N 	N 	0.77873 0.49990 0.72832 -0.19300
N 	N 	0.92520 0.53889 0.02693 -0.13700
N 	N 	0.84373 0.48144 0.94025 -0.14200
N 	N 	0.92515 0.57282 0.93664 -0.13800
N 	N 	0.75541 0.40990 0.59221 -0.18300
N 	N 	0.10820 0.06472 0.57792 -0.20100
N 	N 	0.75309 0.27720 0.22799 -0.19400
N 	N 	0.90253 0.23998 0.52647 -0.14000
N 	N 	0.89578 0.20100 0.43508 -0.14900
N 	N 	0.81276 0.28746 0.44067 -0.13700
Ag	Ag	0.27404 0.29144 0.36820 0.51000
Ag	Ag	0.79465 0.99979 0.86768 0.51300
C 	C 	0.62836 0.93790 0.41179 -0.13100
H 	H 	0.58580 0.95960 0.39060 0.07900
C 	C 	0.42295 0.60000 0.89285 0.05000
H 	H 	0.40330 0.59570 0.85290 -0.01800
C 	C 	0.62842 0.99250 0.50282 0.10100
C 	C 	0.65412 0.78100 0.00174 0.10000
C 	C 	0.48163 0.61310 0.00950 -0.12400
H 	H 	0.50060 0.61640 0.04950 0.07200
C 	C 	0.40311 0.18340 0.38888 0.07100
H 	H 	0.38500 0.18920 0.34900 -0.00400
C 	C 	0.74388 0.86690 0.99673 -0.13100
H 	H 	0.76470 0.86720 0.03680 0.08600
C 	C 	0.72318 0.91360 0.50014 -0.13100
H 	H 	0.74550 0.91790 0.54000 0.07200
C 	C 	0.57523 0.69910 0.00731 0.09600
C 	C 	0.66041 0.94750 0.47072 0.05500
C 	C 	0.62810 0.02360 0.58825 0.10100
C 	C 	0.77212 0.90750 0.96566 0.07900
H 	H 	0.81250 0.93480 0.98580 -0.00900
C 	C 	0.46113 0.13910 0.41585 -0.12300
H 	H 	0.48180 0.11650 0.39440 0.08100
C 	C 	0.78000 0.80170 0.24082 0.06700
H 	H 	0.82210 0.82540 0.25990 -0.00900
C 	C 	0.65853 0.01310 0.65185 0.05500
C 	C 	0.69090 0.75730 0.15244 0.05100
C 	C 	0.75254 0.87290 0.46965 0.05400
H 	H 	0.79510 0.85060 0.48990 -0.01200
C 	C 	0.55014 0.07740 0.50605 0.10500
C 	C 	0.66106 0.89490 0.38467 0.05700
H 	H 	0.63870 0.88730 0.34500 -0.01300
C 	C 	0.71218 0.96140 0.67865 -0.12700
H 	H 	0.72800 0.93020 0.65690 0.06800
C 	C 	0.48236 0.64200 0.91910 -0.12300
H 	H 	0.50210 0.66490 0.89700 0.07500
C 	C 	0.68425 0.82560 0.96749 0.06500
C 	C 	0.45688 0.16590 0.50548 -0.12400
H 	H 	0.47440 0.16210 0.54540 0.08200
C 	C 	0.75343 0.79270 0.18173 -0.12800
H 	H 	0.77750 0.81040 0.16170 0.07900
C 	C 	0.68690 0.74310 0.24328 0.06700
H 	H 	0.66390 0.72580 0.26430 -0.02100
C 	C 	0.65630 0.73170 0.18386 -0.13700
H 	H 	0.61410 0.70770 0.16570 0.07300
C 	C 	0.51278 0.65000 0.97833 0.04900
C 	C 	0.65893 0.74750 0.08855 0.09700
C 	C 	0.74210 0.95620 0.73781 0.05900
H 	H 	0.77830 0.92110 0.75530 -0.01100
C 	C 	0.39894 0.20910 0.47480 0.07800
H 	H 	0.37760 0.23310 0.49520 -0.00800
C 	C 	0.65563 0.82530 0.90809 -0.13100
H 	H 	0.61630 0.79640 0.88730 0.07900
C 	C 	0.63376 0.05510 0.68561 -0.13000
H 	H 	0.59570 0.08770 0.66890 0.08100
C 	C 	0.66740 0.04690 0.74475 0.07300
H 	H 	0.65140 0.07610 0.76730 -0.01500
C 	C 	0.42193 0.57140 0.97980 0.06100
H 	H 	0.40170 0.54680 0.00090 -0.00500
C 	C 	0.48905 0.12780 0.47533 0.06200
C 	C 	0.68672 0.86880 0.88001 0.07400
H 	H 	0.66650 0.86970 0.83990 -0.00200
N 	N 	0.37117 0.21899 0.41746 -0.18800
N 	N 	0.72246 0.86410 0.41219 -0.20700
N 	N 	0.72127 0.99990 0.77168 -0.19300
N 	N 	0.57480 0.03889 0.47307 -0.13800
N 	N 	0.65627 0.98144 0.55975 -0.14200
N 	N 	0.57485 0.07282 0.56336 -0.13800
N 	N 	0.74459 0.90990 0.90779 -0.18400
N 	N 	0.39180 0.56472 0.92208 -0.20100
N 	N 	0.74691 0.77720 0.27201 -0.19400
N 	N 	0.59747 0.73998 0.97353 -0.14100
N 	N 	0.60422 0.70100 0.06492 -0.14900
N 	N 	0.68724 0.78746 0.05933 -0.13700
Ag	Ag	0.77404 0.79144 0.36820 0.51000
Ag	Ag	0.29465 0.49979 0.86768 0.51300
C 	C 	0.12836 0.43790 0.41179 -0.13100
H 	H 	0.08580 0.45960 0.39060 0.07900
C 	C 	0.92295 0.10000 0.89285 0.05100
H 	H 	0.90330 0.09570 0.85290 -0.01800
C 	C 	0.12842 0.49250 0.50282 0.10100
C 	C 	0.15412 0.28100 0.00174 0.09900
C 	C 	0.98163 0.11310 0.00950 -0.12100
H 	H 	0.00060 0.11640 0.04950 0.07000
C 	C 	0.90311 0.68340 0.38888 0.07100
H 	H 	0.88500 0.68920 0.34900 -0.00400
C 	C 	0.24388 0.36690 0.99673 -0.13000
H 	H 	0.26470 0.36720 0.03680 0.08500
C 	C 	0.22318 0.41360 0.50014 -0.13100
H 	H 	0.24550 0.41790 0.54000 0.07200
C 	C 	0.07523 0.19910 0.00731 0.09500
C 	C 	0.16041 0.44750 0.47072 0.05500
C 	C 	0.12810 0.52360 0.58825 0.10100
C 	C 	0.27212 0.40750 0.96566 0.07900
H 	H 	0.31250 0.43480 0.98580 -0.00800
C 	C 	0.96113 0.63910 0.41585 -0.12300
H 	H 	0.98180 0.61650 0.39440 0.08100
C 	C 	0.28000 0.30170 0.24082 0.06700
H 	H 	0.32210 0.32540 0.25990 -0.00900
C 	C 	0.15853 0.51310 0.65185 0.05500
C 	C 	0.19090 0.25730 0.15244 0.05100
C 	C 	0.25254 0.37290 0.46965 0.05400
H 	H 	0.29510 0.35060 0.48990 -0.01200
C 	C 	0.05014 0.57740 0.50605 0.10500
C 	C 	0.16106 0.39490 0.38467 0.05700
H 	H 	0.13870 0.38730 0.34500 -0.01300
C 	C 	0.21218 0.46140 0.67865 -0.12700
H 	H 	0.22800 0.43020 0.65690 0.06800
C 	C 	0.98236 0.14200 0.91910 -0.12500
H 	H 	0.00210 0.16490 0.89700 0.07600
C 	C 	0.18425 0.32560 0.96749 0.06500
C 	C 	0.95688 0.66590 0.50548 -0.12400
H 	H 	0.97440 0.66210 0.54540 0.08200
C 	C 	0.25343 0.29270 0.18173 -0.12800
H 	H 	0.27750 0.31040 0.16170 0.07900
C 	C 	0.18690 0.24310 0.24328 0.06700
H 	H 	0.16390 0.22580 0.26430 -0.02100
C 	C 	0.15630 0.23170 0.18386 -0.13700
H 	H 	0.11410 0.20770 0.16570 0.07300
C 	C 	0.01278 0.15000 0.97833 0.04900
C 	C 	0.15893 0.24750 0.08855 0.09700
C 	C 	0.24210 0.45620 0.73781 0.05900
H 	H 	0.27830 0.42110 0.75530 -0.01100
C 	C 	0.89894 0.70910 0.47480 0.07800
H 	H 	0.87760 0.73310 0.49520 -0.00800
C 	C 	0.15563 0.32530 0.90809 -0.13100
H 	H 	0.11630 0.29640 0.88730 0.07900
C 	C 	0.13376 0.55510 0.68561 -0.13000
H 	H 	0.09570 0.58770 0.66890 0.08100
C 	C 	0.16740 0.54690 0.74475 0.07300
H 	H 	0.15140 0.57610 0.76730 -0.01500
C 	C 	0.92193 0.07140 0.97980 0.05800
H 	H 	0.90170 0.04680 0.00090 -0.00300
C 	C 	0.98905 0.62780 0.47533 0.06200
C 	C 	0.18672 0.36880 0.88001 0.07400
H 	H 	0.16650 0.36970 0.83990 -0.00200
N 	N 	0.87117 0.71899 0.41746 -0.18800
N 	N 	0.22246 0.36410 0.41219 -0.20700
N 	N 	0.22127 0.49990 0.77168 -0.19300
N 	N 	0.07480 0.53889 0.47307 -0.13800
N 	N 	0.15627 0.48144 0.55975 -0.14200
N 	N 	0.07485 0.57282 0.56336 -0.13800
N 	N 	0.24459 0.40990 0.90779 -0.18300
N 	N 	0.89180 0.06472 0.92208 -0.20100
N 	N 	0.24691 0.27720 0.27201 -0.19400
N 	N 	0.09747 0.23998 0.97353 -0.14000
N 	N 	0.10422 0.20100 0.06492 -0.14800
N 	N 	0.18724 0.28746 0.05933 -0.13700
