data_crystal

_cell_length_a 22.01210
_cell_length_b 16.53010
_cell_length_c 25.66410
_cell_angle_alpha 90.00000
_cell_angle_beta  115.38600
_cell_angle_gamma 90.00000

_symmetry_space_group_name_	'P 1'
_symmetry_space_group_name_H-M	'P 1'

loop_
_symmetry_equiv_pos_as_xyz
  x,y,z

loop_
_atom_site_label
_atom_site_type_symbol
_atom_site_fract_x
_atom_site_fract_y
_atom_site_fract_z
_atom_site_charge
Ag	Ag	0.77392 0.70883 0.36825 0.50900
Ag	Ag	0.29482 0.00096 0.86769 0.51300
C 	C 	0.92314 0.40050 0.89264 0.05000
H 	H 	0.90380 0.40560 0.85270 -0.01800
C 	C 	0.12800 0.06180 0.41127 -0.13100
H 	H 	0.08560 0.03980 0.39000 0.07900
C 	C 	0.15399 0.21930 0.00136 0.10000
C 	C 	0.12825 0.00720 0.50256 0.10100
C 	C 	0.90320 0.81670 0.38908 0.07200
H 	H 	0.88510 0.81060 0.34920 -0.00400
C 	C 	0.98160 0.38720 0.00948 -0.12300
H 	H 	0.00070 0.38420 0.04950 0.07100
C 	C 	0.07521 0.30080 0.00726 0.09600
C 	C 	0.15995 0.05260 0.47042 0.05500
C 	C 	0.24355 0.13350 0.99678 -0.12800
H 	H 	0.26420 0.13320 0.03690 0.08400
C 	C 	0.22330 0.08630 0.49984 -0.13300
H 	H 	0.24610 0.08170 0.53970 0.07200
C 	C 	0.15821 0.98670 0.65163 0.05500
C 	C 	0.96090 0.86160 0.41588 -0.12500
H 	H 	0.98100 0.88510 0.39420 0.08200
C 	C 	0.12806 0.97630 0.58826 0.10100
C 	C 	0.27190 0.09260 0.96567 0.07700
H 	H 	0.31210 0.06510 0.98590 -0.00800
C 	C 	0.25200 0.12640 0.46950 0.05700
H 	H 	0.29450 0.14870 0.48980 -0.01300
C 	C 	0.05010 0.92270 0.50587 0.10500
C 	C 	0.27960 0.19830 0.24060 0.06800
H 	H 	0.32160 0.17430 0.25970 -0.00900
C 	C 	0.18403 0.17490 0.96727 0.06400
C 	C 	0.19040 0.24260 0.15193 0.05200
C 	C 	0.98206 0.35820 0.91884 -0.12600
H 	H 	0.00150 0.33490 0.89670 0.07700
C 	C 	0.15897 0.25250 0.08851 0.09600
C 	C 	0.16070 0.10480 0.38433 0.05700
H 	H 	0.13830 0.11270 0.34470 -0.01300
C 	C 	0.18670 0.25730 0.24280 0.07000
H 	H 	0.16370 0.27480 0.26380 -0.02200
C 	C 	0.95710 0.83390 0.50536 -0.12600
H 	H 	0.97470 0.83780 0.54530 0.08200
C 	C 	0.25290 0.20720 0.18124 -0.12900
H 	H 	0.27690 0.18940 0.16120 0.08000
C 	C 	0.21210 0.03790 0.67840 -0.12600
H 	H 	0.22840 0.06830 0.65660 0.06800
C 	C 	0.01259 0.35010 0.97803 0.05000
C 	C 	0.24170 0.04370 0.73760 0.05800
H 	H 	0.27750 0.07930 0.75490 -0.01100
C 	C 	0.15650 0.26830 0.18410 -0.13900
H 	H 	0.11430 0.29230 0.16620 0.07300
C 	C 	0.89900 0.79070 0.47471 0.08000
H 	H 	0.87760 0.76690 0.49520 -0.00900
C 	C 	0.92210 0.42840 0.97970 0.06000
H 	H 	0.90190 0.45290 0.00090 -0.00400
C 	C 	0.13370 0.94500 0.68550 -0.13200
H 	H 	0.09590 0.91210 0.66890 0.08100
C 	C 	0.98914 0.87200 0.47483 0.06300
C 	C 	0.15530 0.17460 0.90776 -0.13100
H 	H 	0.11590 0.20310 0.88680 0.07900
C 	C 	0.16680 0.95350 0.74420 0.07300
H 	H 	0.15040 0.92480 0.76660 -0.01500
C 	C 	0.18640 0.13100 0.87999 0.07400
H 	H 	0.16590 0.12960 0.83990 -0.00200
N 	N 	0.87141 0.78090 0.41769 -0.18800
N 	N 	0.22223 0.13540 0.41198 -0.20700
N 	N 	0.22110 0.00020 0.77175 -0.19300
N 	N 	0.07457 0.96080 0.47277 -0.13800
N 	N 	0.15590 0.01840 0.55942 -0.14200
N 	N 	0.07492 0.92760 0.56312 -0.13800
N 	N 	0.24452 0.09050 0.90771 -0.18300
N 	N 	0.24695 0.22320 0.27181 -0.19400
N 	N 	0.89169 0.43540 0.92207 -0.20100
N 	N 	0.09757 0.26050 0.97338 -0.14000
N 	N 	0.18686 0.21270 0.05897 -0.13600
N 	N 	0.10392 0.29900 0.06458 -0.14800
Ag	Ag	0.27392 0.20883 0.36825 0.51000
Ag	Ag	0.79482 0.50096 0.86769 0.51300
C 	C 	0.42314 0.90050 0.89264 0.04900
H 	H 	0.40380 0.90560 0.85270 -0.01700
C 	C 	0.62800 0.56180 0.41127 -0.13100
H 	H 	0.58560 0.53980 0.39000 0.07900
C 	C 	0.65399 0.71930 0.00136 0.10100
C 	C 	0.62825 0.50720 0.50256 0.10100
C 	C 	0.40320 0.31670 0.38908 0.07200
H 	H 	0.38510 0.31060 0.34920 -0.00400
C 	C 	0.48160 0.88720 0.00948 -0.12700
H 	H 	0.50070 0.88420 0.04950 0.07300
C 	C 	0.57521 0.80080 0.00726 0.09700
C 	C 	0.65995 0.55260 0.47042 0.05500
C 	C 	0.74355 0.63350 0.99678 -0.12900
H 	H 	0.76420 0.63320 0.03690 0.08500
C 	C 	0.72330 0.58630 0.49984 -0.13300
H 	H 	0.74610 0.58170 0.53970 0.07200
C 	C 	0.65821 0.48670 0.65163 0.05500
C 	C 	0.46090 0.36160 0.41588 -0.12500
H 	H 	0.48100 0.38510 0.39420 0.08200
C 	C 	0.62806 0.47630 0.58826 0.10100
C 	C 	0.77190 0.59260 0.96567 0.07700
H 	H 	0.81210 0.56510 0.98590 -0.00800
C 	C 	0.75200 0.62640 0.46950 0.05700
H 	H 	0.79450 0.64870 0.48980 -0.01300
C 	C 	0.55010 0.42270 0.50587 0.10500
C 	C 	0.77960 0.69830 0.24060 0.06800
H 	H 	0.82160 0.67430 0.25970 -0.00900
C 	C 	0.68403 0.67490 0.96727 0.06400
C 	C 	0.69040 0.74260 0.15193 0.05200
C 	C 	0.48206 0.85820 0.91884 -0.12400
H 	H 	0.50150 0.83490 0.89670 0.07600
C 	C 	0.65897 0.75250 0.08851 0.09600
C 	C 	0.66070 0.60480 0.38433 0.05700
H 	H 	0.63830 0.61270 0.34470 -0.01300
C 	C 	0.68670 0.75730 0.24280 0.07000
H 	H 	0.66370 0.77480 0.26380 -0.02200
C 	C 	0.45710 0.33390 0.50536 -0.12600
H 	H 	0.47470 0.33780 0.54530 0.08200
C 	C 	0.75290 0.70720 0.18124 -0.12900
H 	H 	0.77690 0.68940 0.16120 0.08000
C 	C 	0.71210 0.53790 0.67840 -0.12600
H 	H 	0.72840 0.56830 0.65660 0.06800
C 	C 	0.51259 0.85010 0.97803 0.04900
C 	C 	0.74170 0.54370 0.73760 0.05800
H 	H 	0.77750 0.57930 0.75490 -0.01100
C 	C 	0.65650 0.76830 0.18410 -0.13900
H 	H 	0.61430 0.79230 0.16620 0.07300
C 	C 	0.39900 0.29070 0.47471 0.08000
H 	H 	0.37760 0.26690 0.49520 -0.00900
C 	C 	0.42210 0.92840 0.97970 0.06400
H 	H 	0.40190 0.95290 0.00090 -0.00600
C 	C 	0.63370 0.44500 0.68550 -0.13200
H 	H 	0.59590 0.41210 0.66890 0.08100
C 	C 	0.48914 0.37200 0.47483 0.06300
C 	C 	0.65530 0.67460 0.90776 -0.13100
H 	H 	0.61590 0.70310 0.88680 0.07900
C 	C 	0.66680 0.45350 0.74420 0.07300
H 	H 	0.65040 0.42480 0.76660 -0.01500
C 	C 	0.68640 0.63100 0.87999 0.07400
H 	H 	0.66590 0.62960 0.83990 -0.00200
N 	N 	0.37141 0.28090 0.41769 -0.18800
N 	N 	0.72223 0.63540 0.41198 -0.20700
N 	N 	0.72110 0.50020 0.77175 -0.19300
N 	N 	0.57457 0.46080 0.47277 -0.13800
N 	N 	0.65590 0.51840 0.55942 -0.14200
N 	N 	0.57492 0.42760 0.56312 -0.13800
N 	N 	0.74452 0.59050 0.90771 -0.18300
N 	N 	0.74695 0.72320 0.27181 -0.19400
N 	N 	0.39169 0.93540 0.92207 -0.20100
N 	N 	0.59757 0.76050 0.97338 -0.14100
N 	N 	0.68686 0.71270 0.05897 -0.13700
N 	N 	0.60392 0.79900 0.06458 -0.14800
Ag	Ag	0.22608 0.70883 0.13175 0.51000
Ag	Ag	0.70518 0.00096 0.63231 0.51400
C 	C 	0.07686 0.40050 0.60736 0.04900
H 	H 	0.09620 0.40560 0.64730 -0.01700
C 	C 	0.87200 0.06180 0.08873 -0.13100
H 	H 	0.91440 0.03980 0.11000 0.07900
C 	C 	0.84601 0.21930 0.49864 0.10100
C 	C 	0.87175 0.00720 0.99744 0.10000
C 	C 	0.09680 0.81670 0.11092 0.07100
H 	H 	0.11490 0.81060 0.15080 -0.00400
C 	C 	0.01840 0.38720 0.49052 -0.12500
H 	H 	0.99930 0.38420 0.45050 0.07200
C 	C 	0.92479 0.30080 0.49274 0.09700
C 	C 	0.84005 0.05260 0.02958 0.05600
C 	C 	0.75645 0.13350 0.50322 -0.12800
H 	H 	0.73580 0.13320 0.46310 0.08400
C 	C 	0.77670 0.08630 0.00016 -0.13300
H 	H 	0.75390 0.08170 0.96030 0.07200
C 	C 	0.84179 0.98670 0.84837 0.05500
C 	C 	0.03910 0.86160 0.08412 -0.12300
H 	H 	0.01900 0.88510 0.10580 0.08100
C 	C 	0.87194 0.97630 0.91174 0.10100
C 	C 	0.72810 0.09260 0.53433 0.07700
H 	H 	0.68790 0.06510 0.51410 -0.00800
C 	C 	0.74800 0.12640 0.03050 0.05700
H 	H 	0.70550 0.14870 0.01020 -0.01300
C 	C 	0.94990 0.92270 0.99413 0.10500
C 	C 	0.72040 0.19830 0.25940 0.06800
H 	H 	0.67840 0.17430 0.24030 -0.00900
C 	C 	0.81597 0.17490 0.53273 0.06300
C 	C 	0.80960 0.24260 0.34807 0.05200
C 	C 	0.01794 0.35820 0.58116 -0.12300
H 	H 	0.99850 0.33490 0.60330 0.07500
C 	C 	0.84103 0.25250 0.41149 0.09600
C 	C 	0.83930 0.10480 0.11567 0.05700
H 	H 	0.86170 0.11270 0.15530 -0.01300
C 	C 	0.81330 0.25730 0.25720 0.07000
H 	H 	0.83630 0.27480 0.23620 -0.02200
C 	C 	0.04290 0.83390 0.99464 -0.12300
H 	H 	0.02530 0.83780 0.95470 0.08200
C 	C 	0.74710 0.20720 0.31876 -0.12900
H 	H 	0.72310 0.18940 0.33880 0.08000
C 	C 	0.78790 0.03790 0.82160 -0.12600
H 	H 	0.77160 0.06830 0.84340 0.06800
C 	C 	0.98741 0.35010 0.52197 0.04800
C 	C 	0.75830 0.04370 0.76240 0.05800
H 	H 	0.72250 0.07930 0.74510 -0.01100
C 	C 	0.84350 0.26830 0.31590 -0.13900
H 	H 	0.88570 0.29230 0.33380 0.07300
C 	C 	0.10100 0.79070 0.02529 0.07800
H 	H 	0.12240 0.76690 0.00480 -0.00800
C 	C 	0.07790 0.42840 0.52030 0.06300
H 	H 	0.09810 0.45290 0.49910 -0.00500
C 	C 	0.86630 0.94500 0.81450 -0.13200
H 	H 	0.90410 0.91210 0.83110 0.08100
C 	C 	0.01086 0.87200 0.02517 0.06100
C 	C 	0.84470 0.17460 0.59224 -0.13100
H 	H 	0.88410 0.20310 0.61320 0.07900
C 	C 	0.83320 0.95350 0.75580 0.07300
H 	H 	0.84960 0.92480 0.73340 -0.01500
C 	C 	0.81360 0.13100 0.62001 0.07400
H 	H 	0.83410 0.12960 0.66010 -0.00200
N 	N 	0.12859 0.78090 0.08231 -0.18800
N 	N 	0.77777 0.13540 0.08802 -0.20700
N 	N 	0.77890 0.00020 0.72825 -0.19300
N 	N 	0.92543 0.96080 0.02723 -0.13800
N 	N 	0.84410 0.01840 0.94058 -0.14200
N 	N 	0.92508 0.92760 0.93688 -0.13800
N 	N 	0.75548 0.09050 0.59229 -0.18300
N 	N 	0.75305 0.22320 0.22819 -0.19400
N 	N 	0.10831 0.43540 0.57793 -0.20100
N 	N 	0.90243 0.26050 0.52662 -0.14100
N 	N 	0.81314 0.21270 0.44103 -0.13700
N 	N 	0.89608 0.29900 0.43542 -0.14900
Ag	Ag	0.72608 0.20883 0.13175 0.51000
Ag	Ag	0.20518 0.50096 0.63231 0.51400
C 	C 	0.57686 0.90050 0.60736 0.04900
H 	H 	0.59620 0.90560 0.64730 -0.01700
C 	C 	0.37200 0.56180 0.08873 -0.13100
H 	H 	0.41440 0.53980 0.11000 0.07900
C 	C 	0.34601 0.71930 0.49864 0.10100
C 	C 	0.37175 0.50720 0.99744 0.10100
C 	C 	0.59680 0.31670 0.11092 0.07200
H 	H 	0.61490 0.31060 0.15080 -0.00400
C 	C 	0.51840 0.88720 0.49052 -0.12500
H 	H 	0.49930 0.88420 0.45050 0.07200
C 	C 	0.42479 0.80080 0.49274 0.09700
C 	C 	0.34005 0.55260 0.02958 0.05500
C 	C 	0.25645 0.63350 0.50322 -0.12800
H 	H 	0.23580 0.63320 0.46310 0.08400
C 	C 	0.27670 0.58630 0.00016 -0.13500
H 	H 	0.25390 0.58170 0.96030 0.07300
C 	C 	0.34179 0.48670 0.84837 0.05500
C 	C 	0.53910 0.36160 0.08412 -0.12500
H 	H 	0.51900 0.38510 0.10580 0.08200
C 	C 	0.37194 0.47630 0.91174 0.10100
C 	C 	0.22810 0.59260 0.53433 0.07700
H 	H 	0.18790 0.56510 0.51410 -0.00800
C 	C 	0.24800 0.62640 0.03050 0.05800
H 	H 	0.20550 0.64870 0.01020 -0.01300
C 	C 	0.44990 0.42270 0.99413 0.10500
C 	C 	0.22040 0.69830 0.25940 0.06800
H 	H 	0.17840 0.67430 0.24030 -0.00900
C 	C 	0.31597 0.67490 0.53273 0.06400
C 	C 	0.30960 0.74260 0.34807 0.05200
C 	C 	0.51794 0.85820 0.58116 -0.12300
H 	H 	0.49850 0.83490 0.60330 0.07500
C 	C 	0.34103 0.75250 0.41149 0.09600
C 	C 	0.33930 0.60480 0.11567 0.05700
H 	H 	0.36170 0.61270 0.15530 -0.01300
C 	C 	0.31330 0.75730 0.25720 0.07000
H 	H 	0.33630 0.77480 0.23620 -0.02200
C 	C 	0.54290 0.33390 0.99464 -0.12700
H 	H 	0.52530 0.33780 0.95470 0.08300
C 	C 	0.24710 0.70720 0.31876 -0.12900
H 	H 	0.22310 0.68940 0.33880 0.08000
C 	C 	0.28790 0.53790 0.82160 -0.12600
H 	H 	0.27160 0.56830 0.84340 0.06800
C 	C 	0.48741 0.85010 0.52197 0.04900
C 	C 	0.25830 0.54370 0.76240 0.05800
H 	H 	0.22250 0.57930 0.74510 -0.01100
C 	C 	0.34350 0.76830 0.31590 -0.13900
H 	H 	0.38570 0.79230 0.33380 0.07300
C 	C 	0.60100 0.29070 0.02529 0.08000
H 	H 	0.62240 0.26690 0.00480 -0.00900
C 	C 	0.57790 0.92840 0.52030 0.06300
H 	H 	0.59810 0.95290 0.49910 -0.00500
C 	C 	0.36630 0.44500 0.81450 -0.13200
H 	H 	0.40410 0.41210 0.83110 0.08100
C 	C 	0.51086 0.37200 0.02517 0.06400
C 	C 	0.34470 0.67460 0.59224 -0.13100
H 	H 	0.38410 0.70310 0.61320 0.07900
C 	C 	0.33320 0.45350 0.75580 0.07300
H 	H 	0.34960 0.42480 0.73340 -0.01500
C 	C 	0.31360 0.63100 0.62001 0.07400
H 	H 	0.33410 0.62960 0.66010 -0.00200
N 	N 	0.62859 0.28090 0.08231 -0.18900
N 	N 	0.27777 0.63540 0.08802 -0.20700
N 	N 	0.27890 0.50020 0.72825 -0.19300
N 	N 	0.42543 0.46080 0.02723 -0.13800
N 	N 	0.34410 0.51840 0.94058 -0.14200
N 	N 	0.42508 0.42760 0.93688 -0.13800
N 	N 	0.25548 0.59050 0.59229 -0.18300
N 	N 	0.25305 0.72320 0.22819 -0.19400
N 	N 	0.60831 0.93540 0.57793 -0.20100
N 	N 	0.40243 0.76050 0.52662 -0.14100
N 	N 	0.31314 0.71270 0.44103 -0.13700
N 	N 	0.39608 0.79900 0.43542 -0.14900
Ag	Ag	0.22608 0.29117 0.63175 0.51000
Ag	Ag	0.70518 0.99904 0.13231 0.51400
C 	C 	0.07686 0.59950 0.10736 0.05000
H 	H 	0.09620 0.59440 0.14730 -0.01800
C 	C 	0.87200 0.93820 0.58873 -0.13100
H 	H 	0.91440 0.96020 0.61000 0.07900
C 	C 	0.84601 0.78070 0.99864 0.10000
C 	C 	0.87175 0.99280 0.49744 0.10100
C 	C 	0.09680 0.18330 0.61092 0.07200
H 	H 	0.11490 0.18940 0.65080 -0.00400
C 	C 	0.01840 0.61280 0.99052 -0.12300
H 	H 	0.99930 0.61580 0.95050 0.07100
C 	C 	0.92479 0.69920 0.99274 0.09600
C 	C 	0.84005 0.94740 0.52958 0.05500
C 	C 	0.75645 0.86650 0.00322 -0.12800
H 	H 	0.73580 0.86680 0.96310 0.08400
C 	C 	0.77670 0.91370 0.50016 -0.13300
H 	H 	0.75390 0.91830 0.46030 0.07200
C 	C 	0.84179 0.01330 0.34837 0.05500
C 	C 	0.03910 0.13840 0.58412 -0.12500
H 	H 	0.01900 0.11490 0.60580 0.08200
C 	C 	0.87194 0.02370 0.41174 0.10100
C 	C 	0.72810 0.90740 0.03433 0.07700
H 	H 	0.68790 0.93490 0.01410 -0.00800
C 	C 	0.74800 0.87360 0.53050 0.05700
H 	H 	0.70550 0.85130 0.51020 -0.01300
C 	C 	0.94990 0.07730 0.49413 0.10500
C 	C 	0.72040 0.80170 0.75940 0.06800
H 	H 	0.67840 0.82570 0.74030 -0.00900
C 	C 	0.81597 0.82510 0.03273 0.06400
C 	C 	0.80960 0.75740 0.84807 0.05200
C 	C 	0.01794 0.64180 0.08116 -0.12600
H 	H 	0.99850 0.66510 0.10330 0.07700
C 	C 	0.84103 0.74750 0.91149 0.09600
C 	C 	0.83930 0.89520 0.61567 0.05700
H 	H 	0.86170 0.88730 0.65530 -0.01300
C 	C 	0.81330 0.74270 0.75720 0.07000
H 	H 	0.83630 0.72520 0.73620 -0.02200
C 	C 	0.04290 0.16610 0.49464 -0.12600
H 	H 	0.02530 0.16220 0.45470 0.08200
C 	C 	0.74710 0.79280 0.81876 -0.12900
H 	H 	0.72310 0.81060 0.83880 0.08000
C 	C 	0.78790 0.96210 0.32160 -0.12600
H 	H 	0.77160 0.93170 0.34340 0.06800
C 	C 	0.98741 0.64990 0.02197 0.05000
C 	C 	0.75830 0.95630 0.26240 0.05800
H 	H 	0.72250 0.92070 0.24510 -0.01100
C 	C 	0.84350 0.73170 0.81590 -0.13900
H 	H 	0.88570 0.70770 0.83380 0.07300
C 	C 	0.10100 0.20930 0.52529 0.08000
H 	H 	0.12240 0.23310 0.50480 -0.00900
C 	C 	0.07790 0.57160 0.02030 0.06000
H 	H 	0.09810 0.54710 0.99910 -0.00400
C 	C 	0.86630 0.05500 0.31450 -0.13200
H 	H 	0.90410 0.08790 0.33110 0.08100
C 	C 	0.01086 0.12800 0.52517 0.06300
C 	C 	0.84470 0.82540 0.09224 -0.13100
H 	H 	0.88410 0.79690 0.11320 0.07900
C 	C 	0.83320 0.04650 0.25580 0.07300
H 	H 	0.84960 0.07520 0.23340 -0.01500
C 	C 	0.81360 0.86900 0.12001 0.07400
H 	H 	0.83410 0.87040 0.16010 -0.00200
N 	N 	0.12859 0.21910 0.58231 -0.18800
N 	N 	0.77777 0.86460 0.58802 -0.20700
N 	N 	0.77890 0.99980 0.22825 -0.19300
N 	N 	0.92543 0.03920 0.52723 -0.13800
N 	N 	0.84410 0.98160 0.44058 -0.14200
N 	N 	0.92508 0.07240 0.43688 -0.13800
N 	N 	0.75548 0.90950 0.09229 -0.18300
N 	N 	0.75305 0.77680 0.72819 -0.19400
N 	N 	0.10831 0.56460 0.07793 -0.20100
N 	N 	0.90243 0.73950 0.02662 -0.14000
N 	N 	0.81314 0.78730 0.94103 -0.13600
N 	N 	0.89608 0.70100 0.93542 -0.14800
Ag	Ag	0.72608 0.79117 0.63175 0.51000
Ag	Ag	0.20518 0.49904 0.13231 0.51300
C 	C 	0.57686 0.09950 0.10736 0.04900
H 	H 	0.59620 0.09440 0.14730 -0.01700
C 	C 	0.37200 0.43820 0.58873 -0.13100
H 	H 	0.41440 0.46020 0.61000 0.07900
C 	C 	0.34601 0.28070 0.99864 0.10100
C 	C 	0.37175 0.49280 0.49744 0.10100
C 	C 	0.59680 0.68330 0.61092 0.07200
H 	H 	0.61490 0.68940 0.65080 -0.00400
C 	C 	0.51840 0.11280 0.99052 -0.12700
H 	H 	0.49930 0.11580 0.95050 0.07300
C 	C 	0.42479 0.19920 0.99274 0.09700
C 	C 	0.34005 0.44740 0.52958 0.05500
C 	C 	0.25645 0.36650 0.00322 -0.12900
H 	H 	0.23580 0.36680 0.96310 0.08500
C 	C 	0.27670 0.41370 0.50016 -0.13300
H 	H 	0.25390 0.41830 0.46030 0.07200
C 	C 	0.34179 0.51330 0.34837 0.05500
C 	C 	0.53910 0.63840 0.58412 -0.12500
H 	H 	0.51900 0.61490 0.60580 0.08200
C 	C 	0.37194 0.52370 0.41174 0.10100
C 	C 	0.22810 0.40740 0.03433 0.07700
H 	H 	0.18790 0.43490 0.01410 -0.00800
C 	C 	0.24800 0.37360 0.53050 0.05700
H 	H 	0.20550 0.35130 0.51020 -0.01300
C 	C 	0.44990 0.57730 0.49413 0.10500
C 	C 	0.22040 0.30170 0.75940 0.06800
H 	H 	0.17840 0.32570 0.74030 -0.00900
C 	C 	0.31597 0.32510 0.03273 0.06400
C 	C 	0.30960 0.25740 0.84807 0.05200
C 	C 	0.51794 0.14180 0.08116 -0.12400
H 	H 	0.49850 0.16510 0.10330 0.07600
C 	C 	0.34103 0.24750 0.91149 0.09600
C 	C 	0.33930 0.39520 0.61567 0.05700
H 	H 	0.36170 0.38730 0.65530 -0.01300
C 	C 	0.31330 0.24270 0.75720 0.07000
H 	H 	0.33630 0.22520 0.73620 -0.02200
C 	C 	0.54290 0.66610 0.49464 -0.12600
H 	H 	0.52530 0.66220 0.45470 0.08200
C 	C 	0.24710 0.29280 0.81876 -0.12900
H 	H 	0.22310 0.31060 0.83880 0.08000
C 	C 	0.28790 0.46210 0.32160 -0.12600
H 	H 	0.27160 0.43170 0.34340 0.06800
C 	C 	0.48741 0.14990 0.02197 0.04900
C 	C 	0.25830 0.45630 0.26240 0.05800
H 	H 	0.22250 0.42070 0.24510 -0.01100
C 	C 	0.34350 0.23170 0.81590 -0.13900
H 	H 	0.38570 0.20770 0.83380 0.07300
C 	C 	0.60100 0.70930 0.52529 0.08000
H 	H 	0.62240 0.73310 0.50480 -0.00900
C 	C 	0.57790 0.07160 0.02030 0.06400
H 	H 	0.59810 0.04710 0.99910 -0.00600
C 	C 	0.36630 0.55500 0.31450 -0.13200
H 	H 	0.40410 0.58790 0.33110 0.08100
C 	C 	0.51086 0.62800 0.52517 0.06300
C 	C 	0.34470 0.32540 0.09224 -0.13100
H 	H 	0.38410 0.29690 0.11320 0.07900
C 	C 	0.33320 0.54650 0.25580 0.07300
H 	H 	0.34960 0.57520 0.23340 -0.01500
C 	C 	0.31360 0.36900 0.12001 0.07400
H 	H 	0.33410 0.37040 0.16010 -0.00200
N 	N 	0.62859 0.71910 0.58231 -0.18800
N 	N 	0.27777 0.36460 0.58802 -0.20700
N 	N 	0.27890 0.49980 0.22825 -0.19300
N 	N 	0.42543 0.53920 0.52723 -0.13800
N 	N 	0.34410 0.48160 0.44058 -0.14200
N 	N 	0.42508 0.57240 0.43688 -0.13800
N 	N 	0.25548 0.40950 0.09229 -0.18300
N 	N 	0.25305 0.27680 0.72819 -0.19400
N 	N 	0.60831 0.06460 0.07793 -0.20100
N 	N 	0.40243 0.23950 0.02662 -0.14100
N 	N 	0.31314 0.28730 0.94103 -0.13700
N 	N 	0.39608 0.20100 0.93542 -0.14800
Ag	Ag	0.77392 0.29117 0.86825 0.51000
Ag	Ag	0.29482 0.99904 0.36769 0.51400
C 	C 	0.92314 0.59950 0.39264 0.04900
H 	H 	0.90380 0.59440 0.35270 -0.01700
C 	C 	0.12800 0.93820 0.91127 -0.13100
H 	H 	0.08560 0.96020 0.89000 0.07900
C 	C 	0.15399 0.78070 0.50136 0.10100
C 	C 	0.12825 0.99280 0.00256 0.10000
C 	C 	0.90320 0.18330 0.88908 0.07100
H 	H 	0.88510 0.18940 0.84920 -0.00400
C 	C 	0.98160 0.61280 0.50948 -0.12500
H 	H 	0.00070 0.61580 0.54950 0.07200
C 	C 	0.07521 0.69920 0.50726 0.09700
C 	C 	0.15995 0.94740 0.97042 0.05600
C 	C 	0.24355 0.86650 0.49678 -0.12800
H 	H 	0.26420 0.86680 0.53690 0.08400
C 	C 	0.22330 0.91370 0.99984 -0.13300
H 	H 	0.24610 0.91830 0.03970 0.07200
C 	C 	0.15821 0.01330 0.15163 0.05500
C 	C 	0.96090 0.13840 0.91588 -0.12300
H 	H 	0.98100 0.11490 0.89420 0.08100
C 	C 	0.12806 0.02370 0.08826 0.10100
C 	C 	0.27190 0.90740 0.46567 0.07700
H 	H 	0.31210 0.93490 0.48590 -0.00800
C 	C 	0.25200 0.87360 0.96950 0.05700
H 	H 	0.29450 0.85130 0.98980 -0.01300
C 	C 	0.05010 0.07730 0.00587 0.10500
C 	C 	0.27960 0.80170 0.74060 0.06800
H 	H 	0.32160 0.82570 0.75970 -0.00900
C 	C 	0.18403 0.82510 0.46727 0.06300
C 	C 	0.19040 0.75740 0.65193 0.05200
C 	C 	0.98206 0.64180 0.41884 -0.12300
H 	H 	0.00150 0.66510 0.39670 0.07500
C 	C 	0.15897 0.74750 0.58851 0.09600
C 	C 	0.16070 0.89520 0.88433 0.05700
H 	H 	0.13830 0.88730 0.84470 -0.01300
C 	C 	0.18670 0.74270 0.74280 0.07000
H 	H 	0.16370 0.72520 0.76380 -0.02200
C 	C 	0.95710 0.16610 0.00536 -0.12300
H 	H 	0.97470 0.16220 0.04530 0.08200
C 	C 	0.25290 0.79280 0.68124 -0.12900
H 	H 	0.27690 0.81060 0.66120 0.08000
C 	C 	0.21210 0.96210 0.17840 -0.12600
H 	H 	0.22840 0.93170 0.15660 0.06800
C 	C 	0.01259 0.64990 0.47803 0.04800
C 	C 	0.24170 0.95630 0.23760 0.05800
H 	H 	0.27750 0.92070 0.25490 -0.01100
C 	C 	0.15650 0.73170 0.68410 -0.13900
H 	H 	0.11430 0.70770 0.66620 0.07300
C 	C 	0.89900 0.20930 0.97471 0.07800
H 	H 	0.87760 0.23310 0.99520 -0.00800
C 	C 	0.92210 0.57160 0.47970 0.06300
H 	H 	0.90190 0.54710 0.50090 -0.00500
C 	C 	0.13370 0.05500 0.18550 -0.13200
H 	H 	0.09590 0.08790 0.16890 0.08100
C 	C 	0.98914 0.12800 0.97483 0.06100
C 	C 	0.15530 0.82540 0.40776 -0.13100
H 	H 	0.11590 0.79690 0.38680 0.07900
C 	C 	0.16680 0.04650 0.24420 0.07300
H 	H 	0.15040 0.07520 0.26660 -0.01500
C 	C 	0.18640 0.86900 0.37999 0.07400
H 	H 	0.16590 0.87040 0.33990 -0.00200
N 	N 	0.87141 0.21910 0.91769 -0.18800
N 	N 	0.22223 0.86460 0.91198 -0.20700
N 	N 	0.22110 0.99980 0.27175 -0.19300
N 	N 	0.07457 0.03920 0.97277 -0.13800
N 	N 	0.15590 0.98160 0.05942 -0.14200
N 	N 	0.07492 0.07240 0.06312 -0.13800
N 	N 	0.24452 0.90950 0.40771 -0.18300
N 	N 	0.24695 0.77680 0.77181 -0.19400
N 	N 	0.89169 0.56460 0.42207 -0.20100
N 	N 	0.09757 0.73950 0.47338 -0.14100
N 	N 	0.18686 0.78730 0.55897 -0.13700
N 	N 	0.10392 0.70100 0.56458 -0.14900
Ag	Ag	0.27392 0.79117 0.86825 0.51000
Ag	Ag	0.79482 0.49904 0.36769 0.51400
C 	C 	0.42314 0.09950 0.39264 0.04900
H 	H 	0.40380 0.09440 0.35270 -0.01700
C 	C 	0.62800 0.43820 0.91127 -0.13100
H 	H 	0.58560 0.46020 0.89000 0.07900
C 	C 	0.65399 0.28070 0.50136 0.10100
C 	C 	0.62825 0.49280 0.00256 0.10100
C 	C 	0.40320 0.68330 0.88908 0.07200
H 	H 	0.38510 0.68940 0.84920 -0.00400
C 	C 	0.48160 0.11280 0.50948 -0.12500
H 	H 	0.50070 0.11580 0.54950 0.07200
C 	C 	0.57521 0.19920 0.50726 0.09700
C 	C 	0.65995 0.44740 0.97042 0.05500
C 	C 	0.74355 0.36650 0.49678 -0.12800
H 	H 	0.76420 0.36680 0.53690 0.08400
C 	C 	0.72330 0.41370 0.99984 -0.13500
H 	H 	0.74610 0.41830 0.03970 0.07300
C 	C 	0.65821 0.51330 0.15163 0.05500
C 	C 	0.46090 0.63840 0.91588 -0.12500
H 	H 	0.48100 0.61490 0.89420 0.08200
C 	C 	0.62806 0.52370 0.08826 0.10100
C 	C 	0.77190 0.40740 0.46567 0.07700
H 	H 	0.81210 0.43490 0.48590 -0.00800
C 	C 	0.75200 0.37360 0.96950 0.05800
H 	H 	0.79450 0.35130 0.98980 -0.01300
C 	C 	0.55010 0.57730 0.00587 0.10500
C 	C 	0.77960 0.30170 0.74060 0.06800
H 	H 	0.82160 0.32570 0.75970 -0.00900
C 	C 	0.68403 0.32510 0.46727 0.06400
C 	C 	0.69040 0.25740 0.65193 0.05200
C 	C 	0.48206 0.14180 0.41884 -0.12300
H 	H 	0.50150 0.16510 0.39670 0.07500
C 	C 	0.65897 0.24750 0.58851 0.09600
C 	C 	0.66070 0.39520 0.88433 0.05700
H 	H 	0.63830 0.38730 0.84470 -0.01300
C 	C 	0.68670 0.24270 0.74280 0.07000
H 	H 	0.66370 0.22520 0.76380 -0.02200
C 	C 	0.45710 0.66610 0.00536 -0.12700
H 	H 	0.47470 0.66220 0.04530 0.08300
C 	C 	0.75290 0.29280 0.68124 -0.12900
H 	H 	0.77690 0.31060 0.66120 0.08000
C 	C 	0.71210 0.46210 0.17840 -0.12600
H 	H 	0.72840 0.43170 0.15660 0.06800
C 	C 	0.51259 0.14990 0.47803 0.04900
C 	C 	0.74170 0.45630 0.23760 0.05800
H 	H 	0.77750 0.42070 0.25490 -0.01100
C 	C 	0.65650 0.23170 0.68410 -0.13900
H 	H 	0.61430 0.20770 0.66620 0.07300
C 	C 	0.39900 0.70930 0.97471 0.08000
H 	H 	0.37760 0.73310 0.99520 -0.00900
C 	C 	0.42210 0.07160 0.47970 0.06300
H 	H 	0.40190 0.04710 0.50090 -0.00500
C 	C 	0.63370 0.55500 0.18550 -0.13200
H 	H 	0.59590 0.58790 0.16890 0.08100
C 	C 	0.48914 0.62800 0.97483 0.06400
C 	C 	0.65530 0.32540 0.40776 -0.13100
H 	H 	0.61590 0.29690 0.38680 0.07900
C 	C 	0.66680 0.54650 0.24420 0.07300
H 	H 	0.65040 0.57520 0.26660 -0.01500
C 	C 	0.68640 0.36900 0.37999 0.07400
H 	H 	0.66590 0.37040 0.33990 -0.00200
N 	N 	0.37141 0.71910 0.91769 -0.18900
N 	N 	0.72223 0.36460 0.91198 -0.20700
N 	N 	0.72110 0.49980 0.27175 -0.19300
N 	N 	0.57457 0.53920 0.97277 -0.13800
N 	N 	0.65590 0.48160 0.05942 -0.14200
N 	N 	0.57492 0.57240 0.06312 -0.13800
N 	N 	0.74452 0.40950 0.40771 -0.18300
N 	N 	0.74695 0.27680 0.77181 -0.19400
N 	N 	0.39169 0.06460 0.42207 -0.20100
N 	N 	0.59757 0.23950 0.47338 -0.14100
N 	N 	0.68686 0.28730 0.55897 -0.13700
N 	N 	0.60392 0.20100 0.56458 -0.14900
