data_crystal

_cell_length_a 22.03830
_cell_length_b 16.41510
_cell_length_c 25.67900
_cell_angle_alpha 90.00000
_cell_angle_beta  115.40400
_cell_angle_gamma 90.00000

_symmetry_space_group_name_	'P 1'
_symmetry_space_group_name_H-M	'P 1'

loop_
_symmetry_equiv_pos_as_xyz
  x,y,z

loop_
_atom_site_label
_atom_site_type_symbol
_atom_site_fract_x
_atom_site_fract_y
_atom_site_fract_z
_atom_site_charge
Ag	Ag	0.34404 0.04164 0.36811 0.51100
Ag	Ag	0.82305 0.24999 0.86765 0.51400
C 	C 	0.62428 0.24250 0.50295 0.10200
C 	C 	0.73570 0.43330 0.38904 0.07500
H 	H 	0.71390 0.43910 0.34920 -0.00400
C 	C 	0.00281 0.11700 0.99680 -0.12300
H 	H 	0.02220 0.11730 0.03690 0.08300
C 	C 	0.09731 0.03090 0.00158 0.10000
C 	C 	0.56013 0.19750 0.47065 0.05400
C 	C 	0.53320 0.18810 0.41130 -0.12800
H 	H 	0.55440 0.21010 0.39010 0.07800
C 	C 	0.21976 0.84990 0.89295 0.05200
H 	H 	0.19950 0.84560 0.85300 -0.01800
C 	C 	0.27780 0.86300 0.00976 -0.12400
H 	H 	0.29860 0.86600 0.04980 0.07200
C 	C 	0.52672 0.16340 0.50030 -0.13100
H 	H 	0.54420 0.16770 0.54020 0.07100
C 	C 	0.94347 0.15810 0.96589 0.07300
H 	H 	0.92340 0.18580 0.98600 -0.00700
C 	C 	0.74307 0.26350 0.65187 0.05500
C 	C 	0.17813 0.04310 0.18178 -0.12900
H 	H 	0.13420 0.06150 0.16170 0.07900
C 	C 	0.71035 0.27340 0.58824 0.10200
C 	C 	0.18211 0.94950 0.00736 0.09600
C 	C 	0.79856 0.41580 0.50549 -0.12600
H 	H 	0.82110 0.41190 0.54540 0.08300
C 	C 	0.17975 0.99740 0.08896 0.09500
C 	C 	0.30641 0.99300 0.24341 0.06900
H 	H 	0.35050 0.97600 0.26450 -0.02200
C 	C 	0.70578 0.32720 0.50573 0.10400
C 	C 	0.21538 0.90000 0.97817 0.04900
C 	C 	0.46693 0.12300 0.46955 0.05500
H 	H 	0.44460 0.10060 0.48970 -0.01200
C 	C 	0.03298 0.07540 0.96759 0.06300
C 	C 	0.30787 0.82180 0.97987 0.06100
H 	H 	0.34950 0.79770 0.00090 -0.00400
C 	C 	0.82562 0.45920 0.47431 0.08000
H 	H 	0.86740 0.48330 0.49460 -0.00900
C 	C 	0.74570 0.20670 0.73784 0.06100
H 	H 	0.72710 0.17140 0.75540 -0.01100
C 	C 	0.47349 0.14480 0.38455 0.05600
H 	H 	0.45630 0.13660 0.34490 -0.01300
C 	C 	0.21054 0.05140 0.24062 0.06800
H 	H 	0.18740 0.07480 0.25980 -0.00900
C 	C 	0.00230 0.07550 0.90795 -0.12900
H 	H 	0.02090 0.04690 0.88700 0.07800
C 	C 	0.21131 0.00740 0.15250 0.05100
C 	C 	0.73623 0.37800 0.47519 0.06400
C 	C 	0.82724 0.29690 0.74460 0.07300
H 	H 	0.86590 0.32590 0.76720 -0.01500
C 	C 	0.27757 0.98170 0.18415 -0.13700
H 	H 	0.30160 0.95760 0.16600 0.07300
C 	C 	0.18635 0.89170 0.91899 -0.12400
H 	H 	0.14440 0.91440 0.89690 0.07600
C 	C 	0.70461 0.38890 0.41566 -0.12600
H 	H 	0.66260 0.36610 0.39410 0.08200
C 	C 	0.80199 0.30530 0.68565 -0.13100
H 	H 	0.82350 0.33780 0.66900 0.08100
C 	C 	0.71602 0.21160 0.67845 -0.12800
H 	H 	0.67840 0.18040 0.65670 0.06800
C 	C 	0.94322 0.11910 0.88008 0.07400
H 	H 	0.92340 0.12020 0.84000 -0.00200
N 	N 	0.43951 0.11428 0.41219 -0.20700
N 	N 	0.79617 0.46893 0.41734 -0.18900
N 	N 	0.80019 0.25020 0.77175 -0.19400
N 	N 	0.64811 0.28904 0.47305 -0.13800
N 	N 	0.73846 0.32270 0.56327 -0.13700
N 	N 	0.65352 0.23159 0.55984 -0.14200
N 	N 	0.91322 0.15980 0.90774 -0.18200
N 	N 	0.28014 0.81468 0.92206 -0.20100
N 	N 	0.27477 0.02680 0.27187 -0.19400
N 	N 	0.12590 0.99018 0.97340 -0.14000
N 	N 	0.21091 0.95088 0.06483 -0.14800
N 	N 	0.12201 0.03761 0.05936 -0.13600
Ag	Ag	0.84404 0.54164 0.36811 0.51000
Ag	Ag	0.32305 0.74999 0.86765 0.51300
C 	C 	0.12428 0.74250 0.50295 0.10100
C 	C 	0.23570 0.93330 0.38904 0.07400
H 	H 	0.21390 0.93910 0.34920 -0.00500
C 	C 	0.50281 0.61700 0.99680 -0.12800
H 	H 	0.52220 0.61730 0.03690 0.08400
C 	C 	0.59731 0.53090 0.00158 0.10000
C 	C 	0.06013 0.69750 0.47065 0.05300
C 	C 	0.03320 0.68810 0.41130 -0.13000
H 	H 	0.05440 0.71010 0.39010 0.07800
C 	C 	0.71976 0.34990 0.89295 0.05100
H 	H 	0.69950 0.34560 0.85300 -0.01800
C 	C 	0.77780 0.36300 0.00976 -0.12200
H 	H 	0.79860 0.36600 0.04980 0.07100
C 	C 	0.02672 0.66340 0.50030 -0.13100
H 	H 	0.04420 0.66770 0.54020 0.07100
C 	C 	0.44347 0.65810 0.96589 0.07600
H 	H 	0.42340 0.68580 0.98600 -0.00800
C 	C 	0.24307 0.76350 0.65187 0.05500
C 	C 	0.67813 0.54310 0.18178 -0.13000
H 	H 	0.63420 0.56150 0.16170 0.08000
C 	C 	0.21035 0.77340 0.58824 0.10200
C 	C 	0.68211 0.44950 0.00736 0.09700
C 	C 	0.29856 0.91580 0.50549 -0.12600
H 	H 	0.32110 0.91190 0.54540 0.08300
C 	C 	0.67975 0.49740 0.08896 0.09400
C 	C 	0.80641 0.49300 0.24341 0.06900
H 	H 	0.85050 0.47600 0.26450 -0.02200
C 	C 	0.20578 0.82720 0.50573 0.10400
C 	C 	0.71538 0.40000 0.97817 0.04700
C 	C 	0.96693 0.62300 0.46955 0.05500
H 	H 	0.94460 0.60060 0.48970 -0.01200
C 	C 	0.53298 0.57540 0.96759 0.06400
C 	C 	0.80787 0.32180 0.97987 0.05800
H 	H 	0.84950 0.29770 0.00090 -0.00300
C 	C 	0.32562 0.95920 0.47431 0.08000
H 	H 	0.36740 0.98330 0.49460 -0.00900
C 	C 	0.24570 0.70670 0.73784 0.06100
H 	H 	0.22710 0.67140 0.75540 -0.01100
C 	C 	0.97349 0.64480 0.38455 0.05600
H 	H 	0.95630 0.63660 0.34490 -0.01300
C 	C 	0.71054 0.55140 0.24062 0.06900
H 	H 	0.68740 0.57480 0.25980 -0.00900
C 	C 	0.50230 0.57550 0.90795 -0.13100
H 	H 	0.52090 0.54690 0.88700 0.07800
C 	C 	0.71131 0.50740 0.15250 0.05200
C 	C 	0.23623 0.87800 0.47519 0.06400
C 	C 	0.32724 0.79690 0.74460 0.07300
H 	H 	0.36590 0.82590 0.76720 -0.01500
C 	C 	0.77757 0.48170 0.18415 -0.13800
H 	H 	0.80160 0.45760 0.16600 0.07300
C 	C 	0.68635 0.39170 0.91899 -0.12300
H 	H 	0.64440 0.41440 0.89690 0.07500
C 	C 	0.20461 0.88890 0.41566 -0.12600
H 	H 	0.16260 0.86610 0.39410 0.08200
C 	C 	0.30199 0.80530 0.68565 -0.13100
H 	H 	0.32350 0.83780 0.66900 0.08100
C 	C 	0.21602 0.71160 0.67845 -0.12800
H 	H 	0.17840 0.68040 0.65670 0.06800
C 	C 	0.44322 0.61910 0.88008 0.07600
H 	H 	0.42340 0.62020 0.84000 -0.00300
N 	N 	0.93951 0.61428 0.41219 -0.20700
N 	N 	0.29617 0.96893 0.41734 -0.18900
N 	N 	0.30019 0.75020 0.77175 -0.19400
N 	N 	0.14811 0.78904 0.47305 -0.13800
N 	N 	0.23846 0.82270 0.56327 -0.13700
N 	N 	0.15352 0.73159 0.55984 -0.14200
N 	N 	0.41322 0.65980 0.90774 -0.18300
N 	N 	0.78014 0.31468 0.92206 -0.20100
N 	N 	0.77477 0.52680 0.27187 -0.19400
N 	N 	0.62590 0.49018 0.97340 -0.14100
N 	N 	0.71091 0.45088 0.06483 -0.14800
N 	N 	0.62201 0.53761 0.05936 -0.13600
Ag	Ag	0.65596 0.04164 0.13189 0.50900
Ag	Ag	0.17695 0.24999 0.63235 0.51300
C 	C 	0.37572 0.24250 0.99705 0.10200
C 	C 	0.26430 0.43330 0.11096 0.07300
H 	H 	0.28610 0.43910 0.15080 -0.00500
C 	C 	0.99719 0.11700 0.50320 -0.12800
H 	H 	0.97780 0.11730 0.46310 0.08400
C 	C 	0.90269 0.03090 0.49842 0.10000
C 	C 	0.43987 0.19750 0.02935 0.05200
C 	C 	0.46680 0.18810 0.08870 -0.12900
H 	H 	0.44560 0.21010 0.10990 0.07800
C 	C 	0.78024 0.84990 0.60705 0.05100
H 	H 	0.80050 0.84560 0.64700 -0.01800
C 	C 	0.72220 0.86300 0.49024 -0.12300
H 	H 	0.70140 0.86600 0.45020 0.07200
C 	C 	0.47328 0.16340 0.99970 -0.12900
H 	H 	0.45580 0.16770 0.95980 0.07100
C 	C 	0.05653 0.15810 0.53411 0.07600
H 	H 	0.07660 0.18580 0.51400 -0.00800
C 	C 	0.25693 0.26350 0.84813 0.05500
C 	C 	0.82187 0.04310 0.31822 -0.13000
H 	H 	0.86580 0.06150 0.33830 0.08000
C 	C 	0.28965 0.27340 0.91176 0.10200
C 	C 	0.81789 0.94950 0.49264 0.09600
C 	C 	0.20144 0.41580 0.99451 -0.12400
H 	H 	0.17890 0.41190 0.95460 0.08200
C 	C 	0.82025 0.99740 0.41104 0.09500
C 	C 	0.69359 0.99300 0.25659 0.06900
H 	H 	0.64950 0.97600 0.23550 -0.02200
C 	C 	0.29422 0.32720 0.99427 0.10500
C 	C 	0.78462 0.90000 0.52183 0.04900
C 	C 	0.53307 0.12300 0.03045 0.05400
H 	H 	0.55540 0.10060 0.01030 -0.01200
C 	C 	0.96702 0.07540 0.53241 0.06400
C 	C 	0.69213 0.82180 0.52013 0.06000
H 	H 	0.65050 0.79770 0.49910 -0.00400
C 	C 	0.17438 0.45920 0.02569 0.07900
H 	H 	0.13260 0.48330 0.00540 -0.00900
C 	C 	0.25430 0.20670 0.76216 0.06100
H 	H 	0.27290 0.17140 0.74460 -0.01100
C 	C 	0.52651 0.14480 0.11545 0.05500
H 	H 	0.54370 0.13660 0.15510 -0.01200
C 	C 	0.78946 0.05140 0.25938 0.06900
H 	H 	0.81260 0.07480 0.24020 -0.00900
C 	C 	0.99770 0.07550 0.59205 -0.13100
H 	H 	0.97910 0.04690 0.61300 0.07900
C 	C 	0.78869 0.00740 0.34750 0.05200
C 	C 	0.26377 0.37800 0.02481 0.06200
C 	C 	0.17276 0.29690 0.75540 0.07300
H 	H 	0.13410 0.32590 0.73280 -0.01500
C 	C 	0.72243 0.98170 0.31585 -0.13700
H 	H 	0.69840 0.95760 0.33400 0.07300
C 	C 	0.81365 0.89170 0.58101 -0.12400
H 	H 	0.85560 0.91440 0.60310 0.07500
C 	C 	0.29539 0.38890 0.08434 -0.12500
H 	H 	0.33740 0.36610 0.10590 0.08200
C 	C 	0.19801 0.30530 0.81435 -0.13100
H 	H 	0.17650 0.33780 0.83100 0.08100
C 	C 	0.28398 0.21160 0.82155 -0.12800
H 	H 	0.32160 0.18040 0.84330 0.06800
C 	C 	0.05678 0.11910 0.61992 0.07600
H 	H 	0.07660 0.12020 0.66000 -0.00300
N 	N 	0.56049 0.11428 0.08781 -0.20700
N 	N 	0.20383 0.46893 0.08266 -0.18900
N 	N 	0.19981 0.25020 0.72825 -0.19400
N 	N 	0.35189 0.28904 0.02695 -0.13900
N 	N 	0.26154 0.32270 0.93673 -0.13800
N 	N 	0.34648 0.23159 0.94016 -0.14200
N 	N 	0.08678 0.15980 0.59226 -0.18300
N 	N 	0.71986 0.81468 0.57794 -0.20100
N 	N 	0.72523 0.02680 0.22813 -0.19400
N 	N 	0.87410 0.99018 0.52660 -0.14000
N 	N 	0.78909 0.95088 0.43517 -0.14800
N 	N 	0.87799 0.03761 0.44064 -0.13600
Ag	Ag	0.15596 0.54164 0.13189 0.51000
Ag	Ag	0.67695 0.74999 0.63235 0.51300
C 	C 	0.87572 0.74250 0.99705 0.09900
C 	C 	0.76430 0.93330 0.11096 0.07500
H 	H 	0.78610 0.93910 0.15080 -0.00500
C 	C 	0.49719 0.61700 0.50320 -0.12800
H 	H 	0.47780 0.61730 0.46310 0.08400
C 	C 	0.40269 0.53090 0.49842 0.10000
C 	C 	0.93987 0.69750 0.02935 0.05600
C 	C 	0.96680 0.68810 0.08870 -0.13000
H 	H 	0.94560 0.71010 0.10990 0.07900
C 	C 	0.28024 0.34990 0.60705 0.05100
H 	H 	0.30050 0.34560 0.64700 -0.01800
C 	C 	0.22220 0.36300 0.49024 -0.12300
H 	H 	0.20140 0.36600 0.45020 0.07200
C 	C 	0.97328 0.66340 0.99970 -0.13300
H 	H 	0.95580 0.66770 0.95980 0.07200
C 	C 	0.55653 0.65810 0.53411 0.07600
H 	H 	0.57660 0.68580 0.51400 -0.00700
C 	C 	0.75693 0.76350 0.84813 0.05500
C 	C 	0.32187 0.54310 0.31822 -0.13000
H 	H 	0.36580 0.56150 0.33830 0.08000
C 	C 	0.78965 0.77340 0.91176 0.10200
C 	C 	0.31789 0.44950 0.49264 0.09600
C 	C 	0.70144 0.91580 0.99451 -0.13000
H 	H 	0.67890 0.91190 0.95460 0.08400
C 	C 	0.32025 0.49740 0.41104 0.09400
C 	C 	0.19359 0.49300 0.25659 0.06900
H 	H 	0.14950 0.47600 0.23550 -0.02200
C 	C 	0.79422 0.82720 0.99427 0.10200
C 	C 	0.28462 0.40000 0.52183 0.04900
C 	C 	0.03307 0.62300 0.03045 0.05600
H 	H 	0.05540 0.60060 0.01030 -0.01200
C 	C 	0.46702 0.57540 0.53241 0.06400
C 	C 	0.19213 0.32180 0.52013 0.06000
H 	H 	0.15050 0.29770 0.49910 -0.00400
C 	C 	0.67438 0.95920 0.02569 0.08200
H 	H 	0.63260 0.98330 0.00540 -0.00900
C 	C 	0.75430 0.70670 0.76216 0.06000
H 	H 	0.77290 0.67140 0.74460 -0.01100
C 	C 	0.02651 0.64480 0.11545 0.05500
H 	H 	0.04370 0.63660 0.15510 -0.01300
C 	C 	0.28946 0.55140 0.25938 0.06900
H 	H 	0.31260 0.57480 0.24020 -0.00900
C 	C 	0.49770 0.57550 0.59205 -0.13100
H 	H 	0.47910 0.54690 0.61300 0.07800
C 	C 	0.28869 0.50740 0.34750 0.05200
C 	C 	0.76377 0.87800 0.02481 0.06700
C 	C 	0.67276 0.79690 0.75540 0.07300
H 	H 	0.63410 0.82590 0.73280 -0.01500
C 	C 	0.22243 0.48170 0.31585 -0.13800
H 	H 	0.19840 0.45760 0.33400 0.07300
C 	C 	0.31365 0.39170 0.58101 -0.12400
H 	H 	0.35560 0.41440 0.60310 0.07500
C 	C 	0.79539 0.88890 0.08434 -0.12800
H 	H 	0.83740 0.86610 0.10590 0.08300
C 	C 	0.69801 0.80530 0.81435 -0.13100
H 	H 	0.67650 0.83780 0.83100 0.08100
C 	C 	0.78398 0.71160 0.82155 -0.12800
H 	H 	0.82160 0.68040 0.84330 0.06800
C 	C 	0.55678 0.61910 0.61992 0.07600
H 	H 	0.57660 0.62020 0.66000 -0.00300
N 	N 	0.06049 0.61428 0.08781 -0.20700
N 	N 	0.70383 0.96893 0.08266 -0.19000
N 	N 	0.69981 0.75020 0.72825 -0.19400
N 	N 	0.85189 0.78904 0.02695 -0.13700
N 	N 	0.76154 0.82270 0.93673 -0.13700
N 	N 	0.84648 0.73159 0.94016 -0.14200
N 	N 	0.58678 0.65980 0.59226 -0.18300
N 	N 	0.21986 0.31468 0.57794 -0.20100
N 	N 	0.22523 0.52680 0.22813 -0.19400
N 	N 	0.37410 0.49018 0.52660 -0.14000
N 	N 	0.28909 0.45088 0.43517 -0.14800
N 	N 	0.37799 0.53761 0.44064 -0.13600
Ag	Ag	0.65596 0.95836 0.63189 0.51000
Ag	Ag	0.17695 0.75001 0.13235 0.51300
C 	C 	0.37572 0.75750 0.49705 0.10100
C 	C 	0.26430 0.56670 0.61096 0.07400
H 	H 	0.28610 0.56090 0.65080 -0.00500
C 	C 	0.99719 0.88300 0.00320 -0.12400
H 	H 	0.97780 0.88270 0.96310 0.08200
C 	C 	0.90269 0.96910 0.99842 0.09900
C 	C 	0.43987 0.80250 0.52935 0.05300
C 	C 	0.46680 0.81190 0.58870 -0.12900
H 	H 	0.44560 0.78990 0.60990 0.07800
C 	C 	0.78024 0.15010 0.10705 0.05200
H 	H 	0.80050 0.15440 0.14700 -0.01800
C 	C 	0.72220 0.13700 0.99024 -0.12400
H 	H 	0.70140 0.13400 0.95020 0.07200
C 	C 	0.47328 0.83660 0.49970 -0.13100
H 	H 	0.45580 0.83230 0.45980 0.07100
C 	C 	0.05653 0.84190 0.03411 0.07300
H 	H 	0.07660 0.81420 0.01400 -0.00700
C 	C 	0.25693 0.73650 0.34813 0.05500
C 	C 	0.82187 0.95690 0.81822 -0.12900
H 	H 	0.86580 0.93850 0.83830 0.07900
C 	C 	0.28965 0.72660 0.41176 0.10200
C 	C 	0.81789 0.05050 0.99264 0.09600
C 	C 	0.20144 0.58420 0.49451 -0.12600
H 	H 	0.17890 0.58810 0.45460 0.08300
C 	C 	0.82025 0.00260 0.91104 0.09500
C 	C 	0.69359 0.00700 0.75659 0.06900
H 	H 	0.64950 0.02400 0.73550 -0.02200
C 	C 	0.29422 0.67280 0.49427 0.10400
C 	C 	0.78462 0.10000 0.02183 0.04900
C 	C 	0.53307 0.87700 0.53045 0.05500
H 	H 	0.55540 0.89940 0.51030 -0.01200
C 	C 	0.96702 0.92460 0.03241 0.06300
C 	C 	0.69213 0.17820 0.02013 0.06100
H 	H 	0.65050 0.20230 0.99910 -0.00400
C 	C 	0.17438 0.54080 0.52569 0.08000
H 	H 	0.13260 0.51670 0.50540 -0.00900
C 	C 	0.25430 0.79330 0.26216 0.06100
H 	H 	0.27290 0.82860 0.24460 -0.01100
C 	C 	0.52651 0.85520 0.61545 0.05600
H 	H 	0.54370 0.86340 0.65510 -0.01300
C 	C 	0.78946 0.94860 0.75938 0.06800
H 	H 	0.81260 0.92520 0.74020 -0.00900
C 	C 	0.99770 0.92450 0.09205 -0.12900
H 	H 	0.97910 0.95310 0.11300 0.07800
C 	C 	0.78869 0.99260 0.84750 0.05100
C 	C 	0.26377 0.62200 0.52481 0.06400
C 	C 	0.17276 0.70310 0.25540 0.07300
H 	H 	0.13410 0.67410 0.23280 -0.01500
C 	C 	0.72243 0.01830 0.81585 -0.13700
H 	H 	0.69840 0.04240 0.83400 0.07300
C 	C 	0.81365 0.10830 0.08101 -0.12400
H 	H 	0.85560 0.08560 0.10310 0.07600
C 	C 	0.29539 0.61110 0.58434 -0.12600
H 	H 	0.33740 0.63390 0.60590 0.08200
C 	C 	0.19801 0.69470 0.31435 -0.13100
H 	H 	0.17650 0.66220 0.33100 0.08100
C 	C 	0.28398 0.78840 0.32155 -0.12800
H 	H 	0.32160 0.81960 0.34330 0.06800
C 	C 	0.05678 0.88090 0.11992 0.07400
H 	H 	0.07660 0.87980 0.16000 -0.00200
N 	N 	0.56049 0.88572 0.58781 -0.20700
N 	N 	0.20383 0.53107 0.58266 -0.18900
N 	N 	0.19981 0.74980 0.22825 -0.19400
N 	N 	0.35189 0.71096 0.52695 -0.13800
N 	N 	0.26154 0.67730 0.43673 -0.13700
N 	N 	0.34648 0.76841 0.44016 -0.14200
N 	N 	0.08678 0.84020 0.09226 -0.18200
N 	N 	0.71986 0.18532 0.07794 -0.20100
N 	N 	0.72523 0.97320 0.72813 -0.19400
N 	N 	0.87410 0.00982 0.02660 -0.14000
N 	N 	0.78909 0.04912 0.93517 -0.14800
N 	N 	0.87799 0.96239 0.94064 -0.13600
Ag	Ag	0.15596 0.45836 0.63189 0.51000
Ag	Ag	0.67695 0.25001 0.13235 0.51300
C 	C 	0.87572 0.25750 0.49705 0.10100
C 	C 	0.76430 0.06670 0.61096 0.07400
H 	H 	0.78610 0.06090 0.65080 -0.00500
C 	C 	0.49719 0.38300 0.00320 -0.12800
H 	H 	0.47780 0.38270 0.96310 0.08400
C 	C 	0.40269 0.46910 0.99842 0.10000
C 	C 	0.93987 0.30250 0.52935 0.05300
C 	C 	0.96680 0.31190 0.58870 -0.13000
H 	H 	0.94560 0.28990 0.60990 0.07800
C 	C 	0.28024 0.65010 0.10705 0.05100
H 	H 	0.30050 0.65440 0.14700 -0.01800
C 	C 	0.22220 0.63700 0.99024 -0.12200
H 	H 	0.20140 0.63400 0.95020 0.07100
C 	C 	0.97328 0.33660 0.49970 -0.13100
H 	H 	0.95580 0.33230 0.45980 0.07100
C 	C 	0.55653 0.34190 0.03411 0.07600
H 	H 	0.57660 0.31420 0.01400 -0.00800
C 	C 	0.75693 0.23650 0.34813 0.05500
C 	C 	0.32187 0.45690 0.81822 -0.13000
H 	H 	0.36580 0.43850 0.83830 0.08000
C 	C 	0.78965 0.22660 0.41176 0.10200
C 	C 	0.31789 0.55050 0.99264 0.09700
C 	C 	0.70144 0.08420 0.49451 -0.12600
H 	H 	0.67890 0.08810 0.45460 0.08300
C 	C 	0.32025 0.50260 0.91104 0.09400
C 	C 	0.19359 0.50700 0.75659 0.06900
H 	H 	0.14950 0.52400 0.73550 -0.02200
C 	C 	0.79422 0.17280 0.49427 0.10400
C 	C 	0.28462 0.60000 0.02183 0.04700
C 	C 	0.03307 0.37700 0.53045 0.05500
H 	H 	0.05540 0.39940 0.51030 -0.01200
C 	C 	0.46702 0.42460 0.03241 0.06400
C 	C 	0.19213 0.67820 0.02013 0.05800
H 	H 	0.15050 0.70230 0.99910 -0.00300
C 	C 	0.67438 0.04080 0.52569 0.08000
H 	H 	0.63260 0.01670 0.50540 -0.00900
C 	C 	0.75430 0.29330 0.26216 0.06100
H 	H 	0.77290 0.32860 0.24460 -0.01100
C 	C 	0.02651 0.35520 0.61545 0.05600
H 	H 	0.04370 0.36340 0.65510 -0.01300
C 	C 	0.28946 0.44860 0.75938 0.06900
H 	H 	0.31260 0.42520 0.74020 -0.00900
C 	C 	0.49770 0.42450 0.09205 -0.13100
H 	H 	0.47910 0.45310 0.11300 0.07800
C 	C 	0.28869 0.49260 0.84750 0.05200
C 	C 	0.76377 0.12200 0.52481 0.06400
C 	C 	0.67276 0.20310 0.25540 0.07300
H 	H 	0.63410 0.17410 0.23280 -0.01500
C 	C 	0.22243 0.51830 0.81585 -0.13800
H 	H 	0.19840 0.54240 0.83400 0.07300
C 	C 	0.31365 0.60830 0.08101 -0.12300
H 	H 	0.35560 0.58560 0.10310 0.07500
C 	C 	0.79539 0.11110 0.58434 -0.12600
H 	H 	0.83740 0.13390 0.60590 0.08200
C 	C 	0.69801 0.19470 0.31435 -0.13100
H 	H 	0.67650 0.16220 0.33100 0.08100
C 	C 	0.78398 0.28840 0.32155 -0.12800
H 	H 	0.82160 0.31960 0.34330 0.06800
C 	C 	0.55678 0.38090 0.11992 0.07600
H 	H 	0.57660 0.37980 0.16000 -0.00300
N 	N 	0.06049 0.38572 0.58781 -0.20700
N 	N 	0.70383 0.03107 0.58266 -0.18900
N 	N 	0.69981 0.24980 0.22825 -0.19400
N 	N 	0.85189 0.21096 0.52695 -0.13800
N 	N 	0.76154 0.17730 0.43673 -0.13700
N 	N 	0.84648 0.26841 0.44016 -0.14200
N 	N 	0.58678 0.34020 0.09226 -0.18300
N 	N 	0.21986 0.68532 0.07794 -0.20100
N 	N 	0.22523 0.47320 0.72813 -0.19400
N 	N 	0.37410 0.50982 0.02660 -0.14100
N 	N 	0.28909 0.54912 0.93517 -0.14800
N 	N 	0.37799 0.46239 0.94064 -0.13600
Ag	Ag	0.34404 0.95836 0.86811 0.50900
Ag	Ag	0.82305 0.75001 0.36765 0.51300
C 	C 	0.62428 0.75750 0.00295 0.10200
C 	C 	0.73570 0.56670 0.88904 0.07300
H 	H 	0.71390 0.56090 0.84920 -0.00500
C 	C 	0.00281 0.88300 0.49680 -0.12800
H 	H 	0.02220 0.88270 0.53690 0.08400
C 	C 	0.09731 0.96910 0.50158 0.10000
C 	C 	0.56013 0.80250 0.97065 0.05200
C 	C 	0.53320 0.81190 0.91130 -0.12900
H 	H 	0.55440 0.78990 0.89010 0.07800
C 	C 	0.21976 0.15010 0.39295 0.05100
H 	H 	0.19950 0.15440 0.35300 -0.01800
C 	C 	0.27780 0.13700 0.50976 -0.12300
H 	H 	0.29860 0.13400 0.54980 0.07200
C 	C 	0.52672 0.83660 0.00030 -0.12900
H 	H 	0.54420 0.83230 0.04020 0.07100
C 	C 	0.94347 0.84190 0.46589 0.07600
H 	H 	0.92340 0.81420 0.48600 -0.00800
C 	C 	0.74307 0.73650 0.15187 0.05500
C 	C 	0.17813 0.95690 0.68178 -0.13000
H 	H 	0.13420 0.93850 0.66170 0.08000
C 	C 	0.71035 0.72660 0.08824 0.10200
C 	C 	0.18211 0.05050 0.50736 0.09600
C 	C 	0.79856 0.58420 0.00549 -0.12400
H 	H 	0.82110 0.58810 0.04540 0.08200
C 	C 	0.17975 0.00260 0.58896 0.09500
C 	C 	0.30641 0.00700 0.74341 0.06900
H 	H 	0.35050 0.02400 0.76450 -0.02200
C 	C 	0.70578 0.67280 0.00573 0.10500
C 	C 	0.21538 0.10000 0.47817 0.04900
C 	C 	0.46693 0.87700 0.96955 0.05400
H 	H 	0.44460 0.89940 0.98970 -0.01200
C 	C 	0.03298 0.92460 0.46759 0.06400
C 	C 	0.30787 0.17820 0.47987 0.06000
H 	H 	0.34950 0.20230 0.50090 -0.00400
C 	C 	0.82562 0.54080 0.97431 0.07900
H 	H 	0.86740 0.51670 0.99460 -0.00900
C 	C 	0.74570 0.79330 0.23784 0.06100
H 	H 	0.72710 0.82860 0.25540 -0.01100
C 	C 	0.47349 0.85520 0.88455 0.05500
H 	H 	0.45630 0.86340 0.84490 -0.01200
C 	C 	0.21054 0.94860 0.74062 0.06900
H 	H 	0.18740 0.92520 0.75980 -0.00900
C 	C 	0.00230 0.92450 0.40795 -0.13100
H 	H 	0.02090 0.95310 0.38700 0.07900
C 	C 	0.21131 0.99260 0.65250 0.05200
C 	C 	0.73623 0.62200 0.97519 0.06200
C 	C 	0.82724 0.70310 0.24460 0.07300
H 	H 	0.86590 0.67410 0.26720 -0.01500
C 	C 	0.27757 0.01830 0.68415 -0.13700
H 	H 	0.30160 0.04240 0.66600 0.07300
C 	C 	0.18635 0.10830 0.41899 -0.12400
H 	H 	0.14440 0.08560 0.39690 0.07500
C 	C 	0.70461 0.61110 0.91566 -0.12500
H 	H 	0.66260 0.63390 0.89410 0.08200
C 	C 	0.80199 0.69470 0.18565 -0.13100
H 	H 	0.82350 0.66220 0.16900 0.08100
C 	C 	0.71602 0.78840 0.17845 -0.12800
H 	H 	0.67840 0.81960 0.15670 0.06800
C 	C 	0.94322 0.88090 0.38008 0.07600
H 	H 	0.92340 0.87980 0.34000 -0.00300
N 	N 	0.43951 0.88572 0.91219 -0.20700
N 	N 	0.79617 0.53107 0.91734 -0.18900
N 	N 	0.80019 0.74980 0.27175 -0.19400
N 	N 	0.64811 0.71096 0.97305 -0.13900
N 	N 	0.73846 0.67730 0.06327 -0.13800
N 	N 	0.65352 0.76841 0.05984 -0.14200
N 	N 	0.91322 0.84020 0.40774 -0.18300
N 	N 	0.28014 0.18532 0.42206 -0.20100
N 	N 	0.27477 0.97320 0.77187 -0.19400
N 	N 	0.12590 0.00982 0.47340 -0.14000
N 	N 	0.21091 0.04912 0.56483 -0.14800
N 	N 	0.12201 0.96239 0.55936 -0.13600
Ag	Ag	0.84404 0.45836 0.86811 0.51000
Ag	Ag	0.32305 0.25001 0.36765 0.51300
C 	C 	0.12428 0.25750 0.00295 0.09900
C 	C 	0.23570 0.06670 0.88904 0.07500
H 	H 	0.21390 0.06090 0.84920 -0.00500
C 	C 	0.50281 0.38300 0.49680 -0.12800
H 	H 	0.52220 0.38270 0.53690 0.08400
C 	C 	0.59731 0.46910 0.50158 0.10000
C 	C 	0.06013 0.30250 0.97065 0.05600
C 	C 	0.03320 0.31190 0.91130 -0.13000
H 	H 	0.05440 0.28990 0.89010 0.07900
C 	C 	0.71976 0.65010 0.39295 0.05100
H 	H 	0.69950 0.65440 0.35300 -0.01800
C 	C 	0.77780 0.63700 0.50976 -0.12300
H 	H 	0.79860 0.63400 0.54980 0.07200
C 	C 	0.02672 0.33660 0.00030 -0.13300
H 	H 	0.04420 0.33230 0.04020 0.07200
C 	C 	0.44347 0.34190 0.46589 0.07600
H 	H 	0.42340 0.31420 0.48600 -0.00700
C 	C 	0.24307 0.23650 0.15187 0.05500
C 	C 	0.67813 0.45690 0.68178 -0.13000
H 	H 	0.63420 0.43850 0.66170 0.08000
C 	C 	0.21035 0.22660 0.08824 0.10200
C 	C 	0.68211 0.55050 0.50736 0.09600
C 	C 	0.29856 0.08420 0.00549 -0.13000
H 	H 	0.32110 0.08810 0.04540 0.08400
C 	C 	0.67975 0.50260 0.58896 0.09400
C 	C 	0.80641 0.50700 0.74341 0.06900
H 	H 	0.85050 0.52400 0.76450 -0.02200
C 	C 	0.20578 0.17280 0.00573 0.10200
C 	C 	0.71538 0.60000 0.47817 0.04900
C 	C 	0.96693 0.37700 0.96955 0.05600
H 	H 	0.94460 0.39940 0.98970 -0.01200
C 	C 	0.53298 0.42460 0.46759 0.06400
C 	C 	0.80787 0.67820 0.47987 0.06000
H 	H 	0.84950 0.70230 0.50090 -0.00400
C 	C 	0.32562 0.04080 0.97431 0.08200
H 	H 	0.36740 0.01670 0.99460 -0.00900
C 	C 	0.24570 0.29330 0.23784 0.06000
H 	H 	0.22710 0.32860 0.25540 -0.01100
C 	C 	0.97349 0.35520 0.88455 0.05500
H 	H 	0.95630 0.36340 0.84490 -0.01300
C 	C 	0.71054 0.44860 0.74062 0.06900
H 	H 	0.68740 0.42520 0.75980 -0.00900
C 	C 	0.50230 0.42450 0.40795 -0.13100
H 	H 	0.52090 0.45310 0.38700 0.07800
C 	C 	0.71131 0.49260 0.65250 0.05200
C 	C 	0.23623 0.12200 0.97519 0.06700
C 	C 	0.32724 0.20310 0.24460 0.07300
H 	H 	0.36590 0.17410 0.26720 -0.01500
C 	C 	0.77757 0.51830 0.68415 -0.13800
H 	H 	0.80160 0.54240 0.66600 0.07300
C 	C 	0.68635 0.60830 0.41899 -0.12400
H 	H 	0.64440 0.58560 0.39690 0.07500
C 	C 	0.20461 0.11110 0.91566 -0.12800
H 	H 	0.16260 0.13390 0.89410 0.08300
C 	C 	0.30199 0.19470 0.18565 -0.13100
H 	H 	0.32350 0.16220 0.16900 0.08100
C 	C 	0.21602 0.28840 0.17845 -0.12800
H 	H 	0.17840 0.31960 0.15670 0.06800
C 	C 	0.44322 0.38090 0.38008 0.07600
H 	H 	0.42340 0.37980 0.34000 -0.00300
N 	N 	0.93951 0.38572 0.91219 -0.20700
N 	N 	0.29617 0.03107 0.91734 -0.19000
N 	N 	0.30019 0.24980 0.27175 -0.19400
N 	N 	0.14811 0.21096 0.97305 -0.13700
N 	N 	0.23846 0.17730 0.06327 -0.13700
N 	N 	0.15352 0.26841 0.05984 -0.14200
N 	N 	0.41322 0.34020 0.40774 -0.18300
N 	N 	0.78014 0.68532 0.42206 -0.20100
N 	N 	0.77477 0.47320 0.77187 -0.19400
N 	N 	0.62590 0.50982 0.47340 -0.14000
N 	N 	0.71091 0.54912 0.56483 -0.14800
N 	N 	0.62201 0.46239 0.55936 -0.13600
