data_crystal

_cell_length_a 22.02480
_cell_length_b 16.49330
_cell_length_c 25.67660
_cell_angle_alpha 90.00000
_cell_angle_beta  115.38500
_cell_angle_gamma 90.00000

_symmetry_space_group_name_	'P 1'
_symmetry_space_group_name_H-M	'P 1'

loop_
_symmetry_equiv_pos_as_xyz
  x,y,z

loop_
_atom_site_label
_atom_site_type_symbol
_atom_site_fract_x
_atom_site_fract_y
_atom_site_fract_z
_atom_site_charge
Ag	Ag	0.27396 0.70871 0.86825 0.50900
Ag	Ag	0.79472 0.00057 0.36770 0.51200
C 	C 	0.62799 0.06220 0.91131 -0.13100
H 	H 	0.58530 0.04080 0.89000 0.07900
C 	C 	0.42269 0.40000 0.39269 0.04800
H 	H 	0.40300 0.40430 0.35270 -0.01700
C 	C 	0.65417 0.21910 0.50159 0.10000
C 	C 	0.62828 0.00720 0.00273 0.10100
C 	C 	0.48185 0.38690 0.50967 -0.12400
H 	H 	0.50110 0.38390 0.54970 0.07200
C 	C 	0.40318 0.81640 0.88927 0.07300
H 	H 	0.38510 0.81050 0.84940 -0.00500
C 	C 	0.74352 0.13320 0.49657 -0.12900
H 	H 	0.76410 0.13270 0.53670 0.08500
C 	C 	0.57522 0.30100 0.50741 0.09600
C 	C 	0.72338 0.08670 0.00010 -0.13200
H 	H 	0.74590 0.08250 0.04000 0.07200
C 	C 	0.77208 0.09230 0.46552 0.07900
H 	H 	0.81230 0.06480 0.48570 -0.00900
C 	C 	0.62797 0.97670 0.08817 0.10200
C 	C 	0.66035 0.05240 0.97060 0.05400
C 	C 	0.46102 0.86120 0.91594 -0.12400
H 	H 	0.48130 0.88420 0.89430 0.08200
C 	C 	0.75200 0.12690 0.96949 0.05700
H 	H 	0.79440 0.14940 0.98970 -0.01300
C 	C 	0.68396 0.17500 0.46714 0.06400
C 	C 	0.65826 0.98660 0.15177 0.05400
C 	C 	0.45707 0.83410 0.00551 -0.12500
H 	H 	0.47460 0.83810 0.04540 0.08200
C 	C 	0.77980 0.19860 0.74071 0.06800
H 	H 	0.82190 0.17460 0.75980 -0.00900
C 	C 	0.71230 0.03840 0.17844 -0.12600
H 	H 	0.72850 0.06890 0.15670 0.06800
C 	C 	0.48227 0.35780 0.41911 -0.12200
H 	H 	0.50200 0.33480 0.39700 0.07500
C 	C 	0.69074 0.24270 0.65224 0.05200
C 	C 	0.66105 0.10470 0.88475 0.05900
H 	H 	0.63890 0.11210 0.84510 -0.01300
C 	C 	0.54988 0.92270 0.00579 0.10500
C 	C 	0.75340 0.20740 0.68172 -0.12900
H 	H 	0.77750 0.18980 0.66170 0.08000
C 	C 	0.65660 0.26810 0.68412 -0.13800
H 	H 	0.61440 0.29210 0.66610 0.07300
C 	C 	0.68680 0.25710 0.74319 0.06900
H 	H 	0.66370 0.27420 0.76410 -0.02200
C 	C 	0.74170 0.04390 0.23765 0.05800
H 	H 	0.77750 0.07950 0.25510 -0.01000
C 	C 	0.39890 0.79060 0.97492 0.07700
H 	H 	0.37760 0.76660 0.99540 -0.00800
C 	C 	0.51252 0.34990 0.47817 0.04900
C 	C 	0.65874 0.25240 0.58861 0.09600
C 	C 	0.65560 0.17460 0.40785 -0.13200
H 	H 	0.61620 0.20310 0.38680 0.07900
C 	C 	0.63350 0.94450 0.18542 -0.13100
H 	H 	0.59570 0.91170 0.16880 0.08100
C 	C 	0.42210 0.42830 0.47993 0.06000
H 	H 	0.40190 0.45280 0.50110 -0.00400
C 	C 	0.48923 0.87200 0.97531 0.06300
C 	C 	0.66720 0.95330 0.24440 0.07300
H 	H 	0.65110 0.92420 0.26690 -0.01500
C 	C 	0.68670 0.13110 0.38010 0.07400
H 	H 	0.66650 0.12990 0.34000 -0.00200
N 	N 	0.37125 0.78079 0.91762 -0.18800
N 	N 	0.72237 0.13560 0.91218 -0.20800
N 	N 	0.72120 0.00020 0.27180 -0.19300
N 	N 	0.57468 0.96100 0.97300 -0.13800
N 	N 	0.65627 0.01850 0.05984 -0.14200
N 	N 	0.57488 0.92750 0.06315 -0.13800
N 	N 	0.74471 0.09020 0.40804 -0.18400
N 	N 	0.74701 0.22330 0.77197 -0.19400
N 	N 	0.39173 0.43520 0.42212 -0.20000
N 	N 	0.59751 0.26020 0.47349 -0.14000
N 	N 	0.68699 0.21260 0.55933 -0.13600
N 	N 	0.60405 0.29930 0.56481 -0.14900
Ag	Ag	0.77396 0.20871 0.86825 0.51000
Ag	Ag	0.29472 0.50057 0.36770 0.51300
C 	C 	0.12799 0.56220 0.91131 -0.13300
H 	H 	0.08530 0.54080 0.89000 0.08000
C 	C 	0.92269 0.90000 0.39269 0.04800
H 	H 	0.90300 0.90430 0.35270 -0.01700
C 	C 	0.15417 0.71910 0.50159 0.10000
C 	C 	0.12828 0.50720 0.00273 0.09900
C 	C 	0.98185 0.88690 0.50967 -0.12400
H 	H 	0.00110 0.88390 0.54970 0.07200
C 	C 	0.90318 0.31640 0.88927 0.07200
H 	H 	0.88510 0.31050 0.84940 -0.00400
C 	C 	0.24352 0.63320 0.49657 -0.12900
H 	H 	0.26410 0.63270 0.53670 0.08500
C 	C 	0.07522 0.80100 0.50741 0.09600
C 	C 	0.22338 0.58670 0.00010 -0.13700
H 	H 	0.24590 0.58250 0.04000 0.07300
C 	C 	0.27208 0.59230 0.46552 0.07900
H 	H 	0.31230 0.56480 0.48570 -0.00900
C 	C 	0.12797 0.47670 0.08817 0.10200
C 	C 	0.16035 0.55240 0.97060 0.05800
C 	C 	0.96102 0.36120 0.91594 -0.12300
H 	H 	0.98130 0.38420 0.89430 0.08100
C 	C 	0.25200 0.62690 0.96949 0.06000
H 	H 	0.29440 0.64940 0.98970 -0.01400
C 	C 	0.18396 0.67500 0.46714 0.06400
C 	C 	0.15826 0.48660 0.15177 0.05400
C 	C 	0.95707 0.33410 0.00551 -0.12100
H 	H 	0.97460 0.33810 0.04540 0.08100
C 	C 	0.27980 0.69860 0.74071 0.06800
H 	H 	0.32190 0.67460 0.75980 -0.00900
C 	C 	0.21230 0.53840 0.17844 -0.12600
H 	H 	0.22850 0.56890 0.15670 0.06800
C 	C 	0.98227 0.85780 0.41911 -0.12100
H 	H 	0.00200 0.83480 0.39700 0.07400
C 	C 	0.19074 0.74270 0.65224 0.05200
C 	C 	0.16105 0.60470 0.88475 0.06000
H 	H 	0.13890 0.61210 0.84510 -0.01400
C 	C 	0.04988 0.42270 0.00579 0.10500
C 	C 	0.25340 0.70740 0.68172 -0.12900
H 	H 	0.27750 0.68980 0.66170 0.08000
C 	C 	0.15660 0.76810 0.68412 -0.13800
H 	H 	0.11440 0.79210 0.66610 0.07300
C 	C 	0.18680 0.75710 0.74319 0.06900
H 	H 	0.16370 0.77420 0.76410 -0.02200
C 	C 	0.24170 0.54390 0.23765 0.05800
H 	H 	0.27750 0.57950 0.25510 -0.01000
C 	C 	0.89890 0.29060 0.97492 0.07500
H 	H 	0.87760 0.26660 0.99540 -0.00700
C 	C 	0.01252 0.84990 0.47817 0.04800
C 	C 	0.15874 0.75240 0.58861 0.09600
C 	C 	0.15560 0.67460 0.40785 -0.13200
H 	H 	0.11620 0.70310 0.38680 0.07900
C 	C 	0.13350 0.44450 0.18542 -0.13100
H 	H 	0.09570 0.41170 0.16880 0.08100
C 	C 	0.92210 0.92830 0.47993 0.06000
H 	H 	0.90190 0.95280 0.50110 -0.00400
C 	C 	0.98923 0.37200 0.97531 0.06000
C 	C 	0.16720 0.45330 0.24440 0.07300
H 	H 	0.15110 0.42420 0.26690 -0.01500
C 	C 	0.18670 0.63110 0.38010 0.07400
H 	H 	0.16650 0.62990 0.34000 -0.00200
N 	N 	0.87125 0.28079 0.91762 -0.18800
N 	N 	0.22237 0.63560 0.91218 -0.20800
N 	N 	0.22120 0.50020 0.27180 -0.19300
N 	N 	0.07468 0.46100 0.97300 -0.13800
N 	N 	0.15627 0.51850 0.05984 -0.14200
N 	N 	0.07488 0.42750 0.06315 -0.13800
N 	N 	0.24471 0.59020 0.40804 -0.18400
N 	N 	0.24701 0.72330 0.77197 -0.19400
N 	N 	0.89173 0.93520 0.42212 -0.20000
N 	N 	0.09751 0.76020 0.47349 -0.14000
N 	N 	0.18699 0.71260 0.55933 -0.13600
N 	N 	0.10405 0.79930 0.56481 -0.14900
Ag	Ag	0.72604 0.70871 0.63175 0.51000
Ag	Ag	0.20528 0.00057 0.13230 0.51300
C 	C 	0.37201 0.06220 0.58869 -0.13200
H 	H 	0.41470 0.04080 0.61000 0.07900
C 	C 	0.57731 0.40000 0.10731 0.04800
H 	H 	0.59700 0.40430 0.14730 -0.01700
C 	C 	0.34583 0.21910 0.99841 0.10000
C 	C 	0.37172 0.00720 0.49727 0.10100
C 	C 	0.51815 0.38690 0.99033 -0.12500
H 	H 	0.49890 0.38390 0.95030 0.07200
C 	C 	0.59682 0.81640 0.61073 0.07200
H 	H 	0.61490 0.81050 0.65060 -0.00400
C 	C 	0.25648 0.13320 0.00343 -0.13000
H 	H 	0.23590 0.13270 0.96330 0.08500
C 	C 	0.42478 0.30100 0.99259 0.09600
C 	C 	0.27662 0.08670 0.49990 -0.13400
H 	H 	0.25410 0.08250 0.46000 0.07200
C 	C 	0.22792 0.09230 0.03448 0.08000
H 	H 	0.18770 0.06480 0.01430 -0.00900
C 	C 	0.37203 0.97670 0.41183 0.10200
C 	C 	0.33965 0.05240 0.52940 0.05500
C 	C 	0.53898 0.86120 0.58406 -0.12400
H 	H 	0.51870 0.88420 0.60570 0.08200
C 	C 	0.24800 0.12690 0.53051 0.05800
H 	H 	0.20560 0.14940 0.51030 -0.01300
C 	C 	0.31604 0.17500 0.03286 0.06500
C 	C 	0.34174 0.98660 0.34823 0.05400
C 	C 	0.54293 0.83410 0.49449 -0.12400
H 	H 	0.52540 0.83810 0.45460 0.08200
C 	C 	0.22020 0.19860 0.75929 0.06800
H 	H 	0.17810 0.17460 0.74020 -0.00900
C 	C 	0.28770 0.03840 0.32156 -0.12600
H 	H 	0.27150 0.06890 0.34330 0.06800
C 	C 	0.51773 0.35780 0.08089 -0.12200
H 	H 	0.49800 0.33480 0.10300 0.07500
C 	C 	0.30926 0.24270 0.84776 0.05200
C 	C 	0.33895 0.10470 0.61525 0.05900
H 	H 	0.36110 0.11210 0.65490 -0.01400
C 	C 	0.45012 0.92270 0.49421 0.10500
C 	C 	0.24660 0.20740 0.81828 -0.12900
H 	H 	0.22250 0.18980 0.83830 0.08000
C 	C 	0.34340 0.26810 0.81588 -0.13800
H 	H 	0.38560 0.29210 0.83390 0.07300
C 	C 	0.31320 0.25710 0.75681 0.06900
H 	H 	0.33630 0.27420 0.73590 -0.02200
C 	C 	0.25830 0.04390 0.26235 0.05800
H 	H 	0.22250 0.07950 0.24490 -0.01000
C 	C 	0.60110 0.79060 0.52508 0.07700
H 	H 	0.62240 0.76660 0.50460 -0.00800
C 	C 	0.48748 0.34990 0.02183 0.04900
C 	C 	0.34126 0.25240 0.91139 0.09600
C 	C 	0.34440 0.17460 0.09215 -0.13200
H 	H 	0.38380 0.20310 0.11320 0.07900
C 	C 	0.36650 0.94450 0.31458 -0.13100
H 	H 	0.40430 0.91170 0.33120 0.08100
C 	C 	0.57790 0.42830 0.02007 0.06100
H 	H 	0.59810 0.45280 0.99890 -0.00400
C 	C 	0.51077 0.87200 0.52469 0.06200
C 	C 	0.33280 0.95330 0.25560 0.07300
H 	H 	0.34890 0.92420 0.23310 -0.01500
C 	C 	0.31330 0.13110 0.11990 0.07500
H 	H 	0.33350 0.12990 0.16000 -0.00200
N 	N 	0.62875 0.78079 0.58238 -0.18800
N 	N 	0.27763 0.13560 0.58782 -0.20800
N 	N 	0.27880 0.00020 0.22820 -0.19300
N 	N 	0.42532 0.96100 0.52700 -0.13800
N 	N 	0.34373 0.01850 0.44016 -0.14200
N 	N 	0.42512 0.92750 0.43685 -0.13800
N 	N 	0.25529 0.09020 0.09196 -0.18400
N 	N 	0.25299 0.22330 0.72803 -0.19400
N 	N 	0.60827 0.43520 0.07788 -0.20100
N 	N 	0.40249 0.26020 0.02651 -0.14000
N 	N 	0.31301 0.21260 0.94067 -0.13600
N 	N 	0.39595 0.29930 0.93519 -0.14900
Ag	Ag	0.22604 0.20871 0.63175 0.51000
Ag	Ag	0.70528 0.50057 0.13230 0.51300
C 	C 	0.87201 0.56220 0.58869 -0.13200
H 	H 	0.91470 0.54080 0.61000 0.07900
C 	C 	0.07731 0.90000 0.10731 0.04900
H 	H 	0.09700 0.90430 0.14730 -0.01800
C 	C 	0.84583 0.71910 0.99841 0.09900
C 	C 	0.87172 0.50720 0.49727 0.10000
C 	C 	0.01815 0.88690 0.99033 -0.12100
H 	H 	0.99890 0.88390 0.95030 0.07000
C 	C 	0.09682 0.31640 0.61073 0.07200
H 	H 	0.11490 0.31050 0.65060 -0.00400
C 	C 	0.75648 0.63320 0.00343 -0.12900
H 	H 	0.73590 0.63270 0.96330 0.08400
C 	C 	0.92478 0.80100 0.99259 0.09500
C 	C 	0.77662 0.58670 0.49990 -0.13400
H 	H 	0.75410 0.58250 0.46000 0.07200
C 	C 	0.72792 0.59230 0.03448 0.07900
H 	H 	0.68770 0.56480 0.01430 -0.00900
C 	C 	0.87203 0.47670 0.41183 0.10200
C 	C 	0.83965 0.55240 0.52940 0.05500
C 	C 	0.03898 0.36120 0.58406 -0.12400
H 	H 	0.01870 0.38420 0.60570 0.08200
C 	C 	0.74800 0.62690 0.53051 0.05800
H 	H 	0.70560 0.64940 0.51030 -0.01300
C 	C 	0.81604 0.67500 0.03286 0.06500
C 	C 	0.84174 0.48660 0.34823 0.05400
C 	C 	0.04293 0.33410 0.49449 -0.12400
H 	H 	0.02540 0.33810 0.45460 0.08200
C 	C 	0.72020 0.69860 0.75929 0.06800
H 	H 	0.67810 0.67460 0.74020 -0.00900
C 	C 	0.78770 0.53840 0.32156 -0.12600
H 	H 	0.77150 0.56890 0.34330 0.06800
C 	C 	0.01773 0.85780 0.08089 -0.12400
H 	H 	0.99800 0.83480 0.10300 0.07600
C 	C 	0.80926 0.74270 0.84776 0.05200
C 	C 	0.83895 0.60470 0.61525 0.05900
H 	H 	0.86110 0.61210 0.65490 -0.01400
C 	C 	0.95012 0.42270 0.49421 0.10500
C 	C 	0.74660 0.70740 0.81828 -0.12900
H 	H 	0.72250 0.68980 0.83830 0.08000
C 	C 	0.84340 0.76810 0.81588 -0.13800
H 	H 	0.88560 0.79210 0.83390 0.07300
C 	C 	0.81320 0.75710 0.75681 0.06900
H 	H 	0.83630 0.77420 0.73590 -0.02200
C 	C 	0.75830 0.54390 0.26235 0.05800
H 	H 	0.72250 0.57950 0.24490 -0.01000
C 	C 	0.10110 0.29060 0.52508 0.07700
H 	H 	0.12240 0.26660 0.50460 -0.00800
C 	C 	0.98748 0.84990 0.02183 0.04900
C 	C 	0.84126 0.75240 0.91139 0.09600
C 	C 	0.84440 0.67460 0.09215 -0.13200
H 	H 	0.88380 0.70310 0.11320 0.07900
C 	C 	0.86650 0.44450 0.31458 -0.13100
H 	H 	0.90430 0.41170 0.33120 0.08100
C 	C 	0.07790 0.92830 0.02007 0.05700
H 	H 	0.09810 0.95280 0.99890 -0.00200
C 	C 	0.01077 0.37200 0.52469 0.06200
C 	C 	0.83280 0.45330 0.25560 0.07300
H 	H 	0.84890 0.42420 0.23310 -0.01500
C 	C 	0.81330 0.63110 0.11990 0.07500
H 	H 	0.83350 0.62990 0.16000 -0.00200
N 	N 	0.12875 0.28079 0.58238 -0.18800
N 	N 	0.77763 0.63560 0.58782 -0.20800
N 	N 	0.77880 0.50020 0.22820 -0.19300
N 	N 	0.92532 0.46100 0.52700 -0.13800
N 	N 	0.84373 0.51850 0.44016 -0.14200
N 	N 	0.92512 0.42750 0.43685 -0.13800
N 	N 	0.75529 0.59020 0.09196 -0.18400
N 	N 	0.75299 0.72330 0.72803 -0.19400
N 	N 	0.10827 0.93520 0.07788 -0.20000
N 	N 	0.90249 0.76020 0.02651 -0.13900
N 	N 	0.81301 0.71260 0.94067 -0.13600
N 	N 	0.89595 0.79930 0.93519 -0.14800
Ag	Ag	0.72604 0.29129 0.13175 0.51000
Ag	Ag	0.20528 0.99943 0.63230 0.51300
C 	C 	0.37201 0.93780 0.08869 -0.13100
H 	H 	0.41470 0.95920 0.11000 0.07900
C 	C 	0.57731 0.60000 0.60731 0.04800
H 	H 	0.59700 0.59570 0.64730 -0.01700
C 	C 	0.34583 0.78090 0.49841 0.10000
C 	C 	0.37172 0.99280 0.99727 0.10100
C 	C 	0.51815 0.61310 0.49033 -0.12400
H 	H 	0.49890 0.61610 0.45030 0.07200
C 	C 	0.59682 0.18360 0.11073 0.07300
H 	H 	0.61490 0.18950 0.15060 -0.00500
C 	C 	0.25648 0.86680 0.50343 -0.12900
H 	H 	0.23590 0.86730 0.46330 0.08500
C 	C 	0.42478 0.69900 0.49259 0.09600
C 	C 	0.27662 0.91330 0.99990 -0.13200
H 	H 	0.25410 0.91750 0.96000 0.07200
C 	C 	0.22792 0.90770 0.53448 0.07900
H 	H 	0.18770 0.93520 0.51430 -0.00900
C 	C 	0.37203 0.02330 0.91183 0.10200
C 	C 	0.33965 0.94760 0.02940 0.05400
C 	C 	0.53898 0.13880 0.08406 -0.12400
H 	H 	0.51870 0.11580 0.10570 0.08200
C 	C 	0.24800 0.87310 0.03051 0.05700
H 	H 	0.20560 0.85060 0.01030 -0.01300
C 	C 	0.31604 0.82500 0.53286 0.06400
C 	C 	0.34174 0.01340 0.84823 0.05400
C 	C 	0.54293 0.16590 0.99449 -0.12500
H 	H 	0.52540 0.16190 0.95460 0.08200
C 	C 	0.22020 0.80140 0.25929 0.06800
H 	H 	0.17810 0.82540 0.24020 -0.00900
C 	C 	0.28770 0.96160 0.82156 -0.12600
H 	H 	0.27150 0.93110 0.84330 0.06800
C 	C 	0.51773 0.64220 0.58089 -0.12200
H 	H 	0.49800 0.66520 0.60300 0.07500
C 	C 	0.30926 0.75730 0.34776 0.05200
C 	C 	0.33895 0.89530 0.11525 0.05900
H 	H 	0.36110 0.88790 0.15490 -0.01300
C 	C 	0.45012 0.07730 0.99421 0.10500
C 	C 	0.24660 0.79260 0.31828 -0.12900
H 	H 	0.22250 0.81020 0.33830 0.08000
C 	C 	0.34340 0.73190 0.31588 -0.13800
H 	H 	0.38560 0.70790 0.33390 0.07300
C 	C 	0.31320 0.74290 0.25681 0.06900
H 	H 	0.33630 0.72580 0.23590 -0.02200
C 	C 	0.25830 0.95610 0.76235 0.05800
H 	H 	0.22250 0.92050 0.74490 -0.01000
C 	C 	0.60110 0.20940 0.02508 0.07700
H 	H 	0.62240 0.23340 0.00460 -0.00800
C 	C 	0.48748 0.65010 0.52183 0.04900
C 	C 	0.34126 0.74760 0.41139 0.09600
C 	C 	0.34440 0.82540 0.59215 -0.13200
H 	H 	0.38380 0.79690 0.61320 0.07900
C 	C 	0.36650 0.05550 0.81458 -0.13100
H 	H 	0.40430 0.08830 0.83120 0.08100
C 	C 	0.57790 0.57170 0.52007 0.06000
H 	H 	0.59810 0.54720 0.49890 -0.00400
C 	C 	0.51077 0.12800 0.02469 0.06300
C 	C 	0.33280 0.04670 0.75560 0.07300
H 	H 	0.34890 0.07580 0.73310 -0.01500
C 	C 	0.31330 0.86890 0.61990 0.07400
H 	H 	0.33350 0.87010 0.66000 -0.00200
N 	N 	0.62875 0.21921 0.08238 -0.18800
N 	N 	0.27763 0.86440 0.08782 -0.20800
N 	N 	0.27880 0.99980 0.72820 -0.19300
N 	N 	0.42532 0.03900 0.02700 -0.13800
N 	N 	0.34373 0.98150 0.94016 -0.14200
N 	N 	0.42512 0.07250 0.93685 -0.13800
N 	N 	0.25529 0.90980 0.59196 -0.18400
N 	N 	0.25299 0.77670 0.22803 -0.19400
N 	N 	0.60827 0.56480 0.57788 -0.20000
N 	N 	0.40249 0.73980 0.52651 -0.14000
N 	N 	0.31301 0.78740 0.44067 -0.13600
N 	N 	0.39595 0.70070 0.43519 -0.14900
Ag	Ag	0.22604 0.79129 0.13175 0.51000
Ag	Ag	0.70528 0.49943 0.63230 0.51300
C 	C 	0.87201 0.43780 0.08869 -0.13300
H 	H 	0.91470 0.45920 0.11000 0.08000
C 	C 	0.07731 0.10000 0.60731 0.04800
H 	H 	0.09700 0.09570 0.64730 -0.01700
C 	C 	0.84583 0.28090 0.49841 0.10000
C 	C 	0.87172 0.49280 0.99727 0.09900
C 	C 	0.01815 0.11310 0.49033 -0.12400
H 	H 	0.99890 0.11610 0.45030 0.07200
C 	C 	0.09682 0.68360 0.11073 0.07200
H 	H 	0.11490 0.68950 0.15060 -0.00400
C 	C 	0.75648 0.36680 0.50343 -0.12900
H 	H 	0.73590 0.36730 0.46330 0.08500
C 	C 	0.92478 0.19900 0.49259 0.09600
C 	C 	0.77662 0.41330 0.99990 -0.13700
H 	H 	0.75410 0.41750 0.96000 0.07300
C 	C 	0.72792 0.40770 0.53448 0.07900
H 	H 	0.68770 0.43520 0.51430 -0.00900
C 	C 	0.87203 0.52330 0.91183 0.10200
C 	C 	0.83965 0.44760 0.02940 0.05800
C 	C 	0.03898 0.63880 0.08406 -0.12300
H 	H 	0.01870 0.61580 0.10570 0.08100
C 	C 	0.74800 0.37310 0.03051 0.06000
H 	H 	0.70560 0.35060 0.01030 -0.01400
C 	C 	0.81604 0.32500 0.53286 0.06400
C 	C 	0.84174 0.51340 0.84823 0.05400
C 	C 	0.04293 0.66590 0.99449 -0.12100
H 	H 	0.02540 0.66190 0.95460 0.08100
C 	C 	0.72020 0.30140 0.25929 0.06800
H 	H 	0.67810 0.32540 0.24020 -0.00900
C 	C 	0.78770 0.46160 0.82156 -0.12600
H 	H 	0.77150 0.43110 0.84330 0.06800
C 	C 	0.01773 0.14220 0.58089 -0.12100
H 	H 	0.99800 0.16520 0.60300 0.07400
C 	C 	0.80926 0.25730 0.34776 0.05200
C 	C 	0.83895 0.39530 0.11525 0.06000
H 	H 	0.86110 0.38790 0.15490 -0.01400
C 	C 	0.95012 0.57730 0.99421 0.10500
C 	C 	0.74660 0.29260 0.31828 -0.12900
H 	H 	0.72250 0.31020 0.33830 0.08000
C 	C 	0.84340 0.23190 0.31588 -0.13800
H 	H 	0.88560 0.20790 0.33390 0.07300
C 	C 	0.81320 0.24290 0.25681 0.06900
H 	H 	0.83630 0.22580 0.23590 -0.02200
C 	C 	0.75830 0.45610 0.76235 0.05800
H 	H 	0.72250 0.42050 0.74490 -0.01000
C 	C 	0.10110 0.70940 0.02508 0.07500
H 	H 	0.12240 0.73340 0.00460 -0.00700
C 	C 	0.98748 0.15010 0.52183 0.04800
C 	C 	0.84126 0.24760 0.41139 0.09600
C 	C 	0.84440 0.32540 0.59215 -0.13200
H 	H 	0.88380 0.29690 0.61320 0.07900
C 	C 	0.86650 0.55550 0.81458 -0.13100
H 	H 	0.90430 0.58830 0.83120 0.08100
C 	C 	0.07790 0.07170 0.52007 0.06000
H 	H 	0.09810 0.04720 0.49890 -0.00400
C 	C 	0.01077 0.62800 0.02469 0.06000
C 	C 	0.83280 0.54670 0.75560 0.07300
H 	H 	0.84890 0.57580 0.73310 -0.01500
C 	C 	0.81330 0.36890 0.61990 0.07400
H 	H 	0.83350 0.37010 0.66000 -0.00200
N 	N 	0.12875 0.71921 0.08238 -0.18800
N 	N 	0.77763 0.36440 0.08782 -0.20800
N 	N 	0.77880 0.49980 0.72820 -0.19300
N 	N 	0.92532 0.53900 0.02700 -0.13800
N 	N 	0.84373 0.48150 0.94016 -0.14200
N 	N 	0.92512 0.57250 0.93685 -0.13800
N 	N 	0.75529 0.40980 0.59196 -0.18400
N 	N 	0.75299 0.27670 0.22803 -0.19400
N 	N 	0.10827 0.06480 0.57788 -0.20000
N 	N 	0.90249 0.23980 0.52651 -0.14000
N 	N 	0.81301 0.28740 0.44067 -0.13600
N 	N 	0.89595 0.20070 0.43519 -0.14900
Ag	Ag	0.27396 0.29129 0.36825 0.51000
Ag	Ag	0.79472 0.99943 0.86770 0.51300
C 	C 	0.62799 0.93780 0.41131 -0.13200
H 	H 	0.58530 0.95920 0.39000 0.07900
C 	C 	0.42269 0.60000 0.89269 0.04800
H 	H 	0.40300 0.59570 0.85270 -0.01700
C 	C 	0.65417 0.78090 0.00159 0.10000
C 	C 	0.62828 0.99280 0.50273 0.10100
C 	C 	0.48185 0.61310 0.00967 -0.12500
H 	H 	0.50110 0.61610 0.04970 0.07200
C 	C 	0.40318 0.18360 0.38927 0.07200
H 	H 	0.38510 0.18950 0.34940 -0.00400
C 	C 	0.74352 0.86680 0.99657 -0.13000
H 	H 	0.76410 0.86730 0.03670 0.08500
C 	C 	0.57522 0.69900 0.00741 0.09600
C 	C 	0.72338 0.91330 0.50010 -0.13400
H 	H 	0.74590 0.91750 0.54000 0.07200
C 	C 	0.77208 0.90770 0.96552 0.08000
H 	H 	0.81230 0.93520 0.98570 -0.00900
C 	C 	0.62797 0.02330 0.58817 0.10200
C 	C 	0.66035 0.94760 0.47060 0.05500
C 	C 	0.46102 0.13880 0.41594 -0.12400
H 	H 	0.48130 0.11580 0.39430 0.08200
C 	C 	0.75200 0.87310 0.46949 0.05800
H 	H 	0.79440 0.85060 0.48970 -0.01300
C 	C 	0.68396 0.82500 0.96714 0.06500
C 	C 	0.65826 0.01340 0.65177 0.05400
C 	C 	0.45707 0.16590 0.50551 -0.12400
H 	H 	0.47460 0.16190 0.54540 0.08200
C 	C 	0.77980 0.80140 0.24071 0.06800
H 	H 	0.82190 0.82540 0.25980 -0.00900
C 	C 	0.71230 0.96160 0.67844 -0.12600
H 	H 	0.72850 0.93110 0.65670 0.06800
C 	C 	0.48227 0.64220 0.91911 -0.12200
H 	H 	0.50200 0.66520 0.89700 0.07500
C 	C 	0.69074 0.75730 0.15224 0.05200
C 	C 	0.66105 0.89530 0.38475 0.05900
H 	H 	0.63890 0.88790 0.34510 -0.01400
C 	C 	0.54988 0.07730 0.50579 0.10500
C 	C 	0.75340 0.79260 0.18172 -0.12900
H 	H 	0.77750 0.81020 0.16170 0.08000
C 	C 	0.65660 0.73190 0.18412 -0.13800
H 	H 	0.61440 0.70790 0.16610 0.07300
C 	C 	0.68680 0.74290 0.24319 0.06900
H 	H 	0.66370 0.72580 0.26410 -0.02200
C 	C 	0.74170 0.95610 0.73765 0.05800
H 	H 	0.77750 0.92050 0.75510 -0.01000
C 	C 	0.39890 0.20940 0.47492 0.07700
H 	H 	0.37760 0.23340 0.49540 -0.00800
C 	C 	0.51252 0.65010 0.97817 0.04900
C 	C 	0.65874 0.74760 0.08861 0.09600
C 	C 	0.65560 0.82540 0.90785 -0.13200
H 	H 	0.61620 0.79690 0.88680 0.07900
C 	C 	0.63350 0.05550 0.68542 -0.13100
H 	H 	0.59570 0.08830 0.66880 0.08100
C 	C 	0.42210 0.57170 0.97993 0.06100
H 	H 	0.40190 0.54720 0.00110 -0.00400
C 	C 	0.48923 0.12800 0.47531 0.06200
C 	C 	0.66720 0.04670 0.74440 0.07300
H 	H 	0.65110 0.07580 0.76690 -0.01500
C 	C 	0.68670 0.86890 0.88010 0.07500
H 	H 	0.66650 0.87010 0.84000 -0.00200
N 	N 	0.37125 0.21921 0.41762 -0.18800
N 	N 	0.72237 0.86440 0.41218 -0.20800
N 	N 	0.72120 0.99980 0.77180 -0.19300
N 	N 	0.57468 0.03900 0.47300 -0.13800
N 	N 	0.65627 0.98150 0.55984 -0.14200
N 	N 	0.57488 0.07250 0.56315 -0.13800
N 	N 	0.74471 0.90980 0.90804 -0.18400
N 	N 	0.74701 0.77670 0.27197 -0.19400
N 	N 	0.39173 0.56480 0.92212 -0.20100
N 	N 	0.59751 0.73980 0.97349 -0.14000
N 	N 	0.68699 0.78740 0.05933 -0.13600
N 	N 	0.60405 0.70070 0.06481 -0.14900
Ag	Ag	0.77396 0.79129 0.36825 0.51000
Ag	Ag	0.29472 0.49943 0.86770 0.51300
C 	C 	0.12799 0.43780 0.41131 -0.13200
H 	H 	0.08530 0.45920 0.39000 0.07900
C 	C 	0.92269 0.10000 0.89269 0.04900
H 	H 	0.90300 0.09570 0.85270 -0.01800
C 	C 	0.15417 0.28090 0.00159 0.09900
C 	C 	0.12828 0.49280 0.50273 0.10000
C 	C 	0.98185 0.11310 0.00967 -0.12100
H 	H 	0.00110 0.11610 0.04970 0.07000
C 	C 	0.90318 0.68360 0.38927 0.07200
H 	H 	0.88510 0.68950 0.34940 -0.00400
C 	C 	0.24352 0.36680 0.99657 -0.12900
H 	H 	0.26410 0.36730 0.03670 0.08400
C 	C 	0.07522 0.19900 0.00741 0.09500
C 	C 	0.22338 0.41330 0.50010 -0.13400
H 	H 	0.24590 0.41750 0.54000 0.07200
C 	C 	0.27208 0.40770 0.96552 0.07900
H 	H 	0.31230 0.43520 0.98570 -0.00900
C 	C 	0.12797 0.52330 0.58817 0.10200
C 	C 	0.16035 0.44760 0.47060 0.05500
C 	C 	0.96102 0.63880 0.41594 -0.12400
H 	H 	0.98130 0.61580 0.39430 0.08200
C 	C 	0.25200 0.37310 0.46949 0.05800
H 	H 	0.29440 0.35060 0.48970 -0.01300
C 	C 	0.18396 0.32500 0.96714 0.06500
C 	C 	0.15826 0.51340 0.65177 0.05400
C 	C 	0.95707 0.66590 0.50551 -0.12400
H 	H 	0.97460 0.66190 0.54540 0.08200
C 	C 	0.27980 0.30140 0.24071 0.06800
H 	H 	0.32190 0.32540 0.25980 -0.00900
C 	C 	0.21230 0.46160 0.67844 -0.12600
H 	H 	0.22850 0.43110 0.65670 0.06800
C 	C 	0.98227 0.14220 0.91911 -0.12400
H 	H 	0.00200 0.16520 0.89700 0.07600
C 	C 	0.19074 0.25730 0.15224 0.05200
C 	C 	0.16105 0.39530 0.38475 0.05900
H 	H 	0.13890 0.38790 0.34510 -0.01400
C 	C 	0.04988 0.57730 0.50579 0.10500
C 	C 	0.25340 0.29260 0.18172 -0.12900
H 	H 	0.27750 0.31020 0.16170 0.08000
C 	C 	0.15660 0.23190 0.18412 -0.13800
H 	H 	0.11440 0.20790 0.16610 0.07300
C 	C 	0.18680 0.24290 0.24319 0.06900
H 	H 	0.16370 0.22580 0.26410 -0.02200
C 	C 	0.24170 0.45610 0.73765 0.05800
H 	H 	0.27750 0.42050 0.75510 -0.01000
C 	C 	0.89890 0.70940 0.47492 0.07700
H 	H 	0.87760 0.73340 0.49540 -0.00800
C 	C 	0.01252 0.15010 0.97817 0.04900
C 	C 	0.15874 0.24760 0.08861 0.09600
C 	C 	0.15560 0.32540 0.90785 -0.13200
H 	H 	0.11620 0.29690 0.88680 0.07900
C 	C 	0.13350 0.55550 0.68542 -0.13100
H 	H 	0.09570 0.58830 0.66880 0.08100
C 	C 	0.92210 0.07170 0.97993 0.05700
H 	H 	0.90190 0.04720 0.00110 -0.00200
C 	C 	0.98923 0.62800 0.47531 0.06200
C 	C 	0.16720 0.54670 0.74440 0.07300
H 	H 	0.15110 0.57580 0.76690 -0.01500
C 	C 	0.18670 0.36890 0.88010 0.07500
H 	H 	0.16650 0.37010 0.84000 -0.00200
N 	N 	0.87125 0.71921 0.41762 -0.18800
N 	N 	0.22237 0.36440 0.41218 -0.20800
N 	N 	0.22120 0.49980 0.77180 -0.19300
N 	N 	0.07468 0.53900 0.47300 -0.13800
N 	N 	0.15627 0.48150 0.55984 -0.14200
N 	N 	0.07488 0.57250 0.56315 -0.13800
N 	N 	0.24471 0.40980 0.90804 -0.18400
N 	N 	0.24701 0.27670 0.27197 -0.19400
N 	N 	0.89173 0.06480 0.92212 -0.20000
N 	N 	0.09751 0.23980 0.97349 -0.13900
N 	N 	0.18699 0.28740 0.05933 -0.13600
N 	N 	0.10405 0.20070 0.06481 -0.14800
