data_crystal

_cell_length_a 22.04660
_cell_length_b 16.42500
_cell_length_c 25.59310
_cell_angle_alpha 90.00000
_cell_angle_beta  115.29300
_cell_angle_gamma 90.00000

_symmetry_space_group_name_	'P 1'
_symmetry_space_group_name_H-M	'P 1'

loop_
_symmetry_equiv_pos_as_xyz
  x,y,z

loop_
_atom_site_label
_atom_site_type_symbol
_atom_site_fract_x
_atom_site_fract_y
_atom_site_fract_z
_atom_site_charge
Ag	Ag	0.84424 0.45767 0.36785 0.51100
Ag	Ag	0.32285 0.25273 0.86721 0.51400
C 	C 	0.77790 0.63760 0.00910 -0.11900
H 	H 	0.79880 0.63380 0.04920 0.07200
C 	C 	0.12370 0.25690 0.50210 0.10100
C 	C 	0.59770 0.47040 0.00060 0.10100
C 	C 	0.06000 0.30220 0.46990 0.05700
C 	C 	0.29770 0.08420 0.50460 -0.12700
H 	H 	0.32000 0.08860 0.54460 0.08400
C 	C 	0.23510 0.06480 0.38820 0.07600
H 	H 	0.21320 0.05780 0.34840 -0.00500
C 	C 	0.44390 0.34320 0.96440 0.08400
H 	H 	0.42410 0.31480 0.98440 -0.01000
C 	C 	0.03310 0.31170 0.41090 -0.13000
H 	H 	0.05440 0.29000 0.38960 0.08000
C 	C 	0.53310 0.42650 0.96670 0.06800
C 	C 	0.50350 0.38400 0.99600 -0.13200
H 	H 	0.52300 0.38270 0.03620 0.08700
C 	C 	0.68260 0.55200 0.00660 0.09700
C 	C 	0.71990 0.65190 0.89200 0.04900
H 	H 	0.69990 0.65600 0.85190 -0.01600
C 	C 	0.21000 0.22690 0.58780 0.10300
C 	C 	0.67930 0.45610 0.18100 -0.12800
H 	H 	0.63540 0.43820 0.16090 0.08100
C 	C 	0.68010 0.50210 0.08790 0.09800
C 	C 	0.71540 0.60140 0.97740 0.04700
C 	C 	0.02600 0.33560 0.49960 -0.13500
H 	H 	0.04310 0.33080 0.53960 0.07400
C 	C 	0.24340 0.23740 0.65120 0.05800
C 	C 	0.68600 0.60990 0.91840 -0.12000
H 	H 	0.64390 0.58770 0.89640 0.07500
C 	C 	0.20540 0.17230 0.50480 0.10400
C 	C 	0.23590 0.12090 0.47440 0.06800
C 	C 	0.97330 0.35450 0.38370 0.05600
H 	H 	0.95610 0.36260 0.34400 -0.01200
C 	C 	0.96700 0.37560 0.46910 0.06200
H 	H 	0.94470 0.39780 0.48950 -0.01400
C 	C 	0.32570 0.04100 0.47410 0.07900
H 	H 	0.36790 0.01800 0.49440 -0.00900
C 	C 	0.80800 0.67940 0.97900 0.05700
H 	H 	0.84970 0.70330 0.00010 -0.00300
C 	C 	0.20380 0.11010 0.41510 -0.12800
H 	H 	0.16180 0.13300 0.39360 0.08300
C 	C 	0.71230 0.49240 0.15170 0.05100
C 	C 	0.80750 0.50470 0.24250 0.06600
H 	H 	0.85180 0.52100 0.26340 -0.02100
C 	C 	0.50210 0.42720 0.90690 -0.13600
H 	H 	0.52020 0.45650 0.88590 0.08000
C 	C 	0.44390 0.38340 0.87950 0.07900
H 	H 	0.42420 0.38220 0.83930 -0.00400
C 	C 	0.77820 0.51690 0.18320 -0.13600
H 	H 	0.80230 0.54090 0.16490 0.07200
C 	C 	0.32840 0.20750 0.74410 0.07400
H 	H 	0.36790 0.18020 0.76680 -0.01500
C 	C 	0.21570 0.28930 0.67800 -0.13300
H 	H 	0.17740 0.31950 0.65630 0.07000
C 	C 	0.30230 0.19730 0.68500 -0.13400
H 	H 	0.32370 0.16450 0.66840 0.08200
C 	C 	0.24590 0.29500 0.73700 0.06900
H 	H 	0.22690 0.32990 0.75460 -0.01400
C 	C 	0.71180 0.44650 0.24020 0.06700
H 	H 	0.68880 0.42230 0.25930 -0.00900
N 	N 	0.93940 0.38480 0.41199 -0.20800
N 	N 	0.29540 0.03050 0.41671 -0.18900
N 	N 	0.30060 0.25390 0.77070 -0.19500
N 	N 	0.15320 0.26790 0.55916 -0.14200
N 	N 	0.14790 0.21030 0.47215 -0.13700
N 	N 	0.23820 0.17770 0.56275 -0.13700
N 	N 	0.41360 0.34230 0.90708 -0.18600
N 	N 	0.78010 0.68710 0.92142 -0.20000
N 	N 	0.77590 0.47110 0.27150 -0.19400
N 	N 	0.62280 0.46270 0.05860 -0.13700
N 	N 	0.62620 0.51160 0.97294 -0.14100
N 	N 	0.71140 0.54960 0.06446 -0.14800
Ag	Ag	0.34424 0.95767 0.36784 0.51000
Ag	Ag	0.82285 0.75273 0.86721 0.51300
C 	C 	0.27790 0.13760 0.00910 -0.12700
H 	H 	0.29880 0.13380 0.04920 0.07300
C 	C 	0.62370 0.75690 0.50210 0.10000
C 	C 	0.09770 0.97040 0.00060 0.09900
C 	C 	0.56000 0.80220 0.46990 0.05600
C 	C 	0.79770 0.58420 0.50460 -0.12800
H 	H 	0.82000 0.58860 0.54460 0.08300
C 	C 	0.73510 0.56480 0.38820 0.07500
H 	H 	0.71320 0.55780 0.34840 -0.00600
C 	C 	0.94390 0.84320 0.96440 0.07900
H 	H 	0.92410 0.81480 0.98440 -0.01000
C 	C 	0.53310 0.81170 0.41090 -0.13000
H 	H 	0.55440 0.79000 0.38960 0.07900
C 	C 	0.03310 0.92650 0.96670 0.06500
C 	C 	0.00350 0.88400 0.99600 -0.12700
H 	H 	0.02300 0.88270 0.03620 0.08300
C 	C 	0.18260 0.05200 0.00660 0.09300
C 	C 	0.21990 0.15190 0.89200 0.05000
H 	H 	0.19990 0.15600 0.85190 -0.01800
C 	C 	0.71000 0.72690 0.58780 0.10200
C 	C 	0.17930 0.95610 0.18100 -0.12800
H 	H 	0.13540 0.93820 0.16090 0.07900
C 	C 	0.18010 0.00210 0.08790 0.09700
C 	C 	0.21540 0.10140 0.97740 0.05200
C 	C 	0.52600 0.83560 0.49960 -0.13600
H 	H 	0.54310 0.83080 0.53960 0.07300
C 	C 	0.74340 0.73740 0.65120 0.05700
C 	C 	0.18600 0.10990 0.91840 -0.12400
H 	H 	0.14390 0.08770 0.89640 0.07600
C 	C 	0.70540 0.67230 0.50480 0.10300
C 	C 	0.73590 0.62090 0.47440 0.06700
C 	C 	0.47330 0.85450 0.38370 0.05400
H 	H 	0.45610 0.86260 0.34400 -0.01200
C 	C 	0.46700 0.87560 0.46910 0.06200
H 	H 	0.44470 0.89780 0.48950 -0.01400
C 	C 	0.82570 0.54100 0.47410 0.07900
H 	H 	0.86790 0.51800 0.49440 -0.00900
C 	C 	0.30800 0.17940 0.97900 0.06300
H 	H 	0.34970 0.20330 0.00010 -0.00600
C 	C 	0.70380 0.61010 0.41510 -0.12800
H 	H 	0.66180 0.63300 0.39360 0.08300
C 	C 	0.21230 0.99240 0.15170 0.05100
C 	C 	0.30750 0.00470 0.24250 0.06600
H 	H 	0.35180 0.02100 0.26340 -0.02100
C 	C 	0.00210 0.92720 0.90690 -0.13300
H 	H 	0.02020 0.95650 0.88590 0.08000
C 	C 	0.94390 0.88340 0.87950 0.07600
H 	H 	0.92420 0.88220 0.83930 -0.00300
C 	C 	0.27820 0.01690 0.18320 -0.13600
H 	H 	0.30230 0.04090 0.16490 0.07200
C 	C 	0.82840 0.70750 0.74410 0.07400
H 	H 	0.86790 0.68020 0.76680 -0.01500
C 	C 	0.71570 0.78930 0.67800 -0.13300
H 	H 	0.67740 0.81950 0.65630 0.07000
C 	C 	0.80230 0.69730 0.68500 -0.13400
H 	H 	0.82370 0.66450 0.66840 0.08200
C 	C 	0.74590 0.79500 0.73700 0.06900
H 	H 	0.72690 0.82990 0.75460 -0.01400
C 	C 	0.21180 0.94650 0.24020 0.06700
H 	H 	0.18880 0.92230 0.25930 -0.00900
N 	N 	0.43940 0.88480 0.41199 -0.20800
N 	N 	0.79540 0.53050 0.41671 -0.18900
N 	N 	0.80060 0.75390 0.77070 -0.19600
N 	N 	0.65320 0.76790 0.55916 -0.14200
N 	N 	0.64790 0.71030 0.47215 -0.13800
N 	N 	0.73820 0.67770 0.56275 -0.13700
N 	N 	0.91360 0.84230 0.90708 -0.18500
N 	N 	0.28010 0.18710 0.92142 -0.20200
N 	N 	0.27590 0.97110 0.27150 -0.19400
N 	N 	0.12280 0.96270 0.05860 -0.13700
N 	N 	0.12620 0.01160 0.97294 -0.14000
N 	N 	0.21140 0.04960 0.06446 -0.14800
Ag	Ag	0.15576 0.45767 0.13216 0.51000
Ag	Ag	0.67715 0.25273 0.63279 0.51300
C 	C 	0.22210 0.63760 0.49090 -0.12400
H 	H 	0.20120 0.63380 0.45080 0.07200
C 	C 	0.87630 0.25690 0.99790 0.09800
C 	C 	0.40230 0.47040 0.49940 0.10000
C 	C 	0.94000 0.30220 0.03010 0.05400
C 	C 	0.70230 0.08420 0.99540 -0.13300
H 	H 	0.68000 0.08860 0.95540 0.08500
C 	C 	0.76490 0.06480 0.11180 0.07700
H 	H 	0.78680 0.05780 0.15160 -0.00600
C 	C 	0.55610 0.34320 0.53560 0.08300
H 	H 	0.57590 0.31480 0.51560 -0.01100
C 	C 	0.96690 0.31170 0.08910 -0.12700
H 	H 	0.94560 0.29000 0.11040 0.07800
C 	C 	0.46690 0.42650 0.53330 0.06700
C 	C 	0.49650 0.38400 0.50400 -0.13300
H 	H 	0.47700 0.38270 0.46380 0.08600
C 	C 	0.31740 0.55200 0.49340 0.09500
C 	C 	0.28010 0.65190 0.60800 0.04900
H 	H 	0.30010 0.65600 0.64810 -0.01800
C 	C 	0.79000 0.22690 0.91220 0.10100
C 	C 	0.32070 0.45610 0.31900 -0.12900
H 	H 	0.36460 0.43820 0.33910 0.08000
C 	C 	0.31990 0.50210 0.41210 0.09700
C 	C 	0.28460 0.60140 0.52260 0.04900
C 	C 	0.97400 0.33560 0.00040 -0.13000
H 	H 	0.95690 0.33080 0.96040 0.07000
C 	C 	0.75660 0.23740 0.84880 0.05700
C 	C 	0.31400 0.60990 0.58160 -0.12300
H 	H 	0.35610 0.58770 0.60360 0.07500
C 	C 	0.79460 0.17230 0.99520 0.10000
C 	C 	0.76410 0.12090 0.02560 0.07100
C 	C 	0.02670 0.35450 0.11630 0.05100
H 	H 	0.04390 0.36260 0.15600 -0.01100
C 	C 	0.03300 0.37560 0.03090 0.05700
H 	H 	0.05530 0.39780 0.01050 -0.01300
C 	C 	0.67430 0.04100 0.02590 0.08200
H 	H 	0.63210 0.01800 0.00560 -0.01000
C 	C 	0.19200 0.67940 0.52100 0.06100
H 	H 	0.15030 0.70330 0.49990 -0.00500
C 	C 	0.79620 0.11010 0.08490 -0.13000
H 	H 	0.83820 0.13300 0.10640 0.08400
C 	C 	0.28770 0.49240 0.34830 0.05100
C 	C 	0.19250 0.50470 0.25750 0.06600
H 	H 	0.14820 0.52100 0.23660 -0.02100
C 	C 	0.49790 0.42720 0.59310 -0.13600
H 	H 	0.47980 0.45650 0.61410 0.08000
C 	C 	0.55610 0.38340 0.62050 0.07900
H 	H 	0.57580 0.38220 0.66070 -0.00400
C 	C 	0.22180 0.51690 0.31680 -0.13600
H 	H 	0.19770 0.54090 0.33510 0.07200
C 	C 	0.67160 0.20750 0.75590 0.07400
H 	H 	0.63210 0.18020 0.73320 -0.01500
C 	C 	0.78430 0.28930 0.82200 -0.13300
H 	H 	0.82260 0.31950 0.84370 0.07000
C 	C 	0.69770 0.19730 0.81500 -0.13400
H 	H 	0.67630 0.16450 0.83160 0.08200
C 	C 	0.75410 0.29500 0.76300 0.06900
H 	H 	0.77310 0.32990 0.74540 -0.01400
C 	C 	0.28820 0.44650 0.25980 0.06700
H 	H 	0.31120 0.42230 0.24070 -0.00900
N 	N 	0.06060 0.38480 0.08801 -0.20700
N 	N 	0.70460 0.03050 0.08329 -0.18900
N 	N 	0.69940 0.25390 0.72930 -0.19500
N 	N 	0.84680 0.26790 0.94084 -0.14200
N 	N 	0.85210 0.21030 0.02785 -0.13600
N 	N 	0.76180 0.17770 0.93725 -0.13600
N 	N 	0.58640 0.34230 0.59292 -0.18600
N 	N 	0.21990 0.68710 0.57858 -0.20100
N 	N 	0.22410 0.47110 0.22850 -0.19400
N 	N 	0.37720 0.46270 0.44140 -0.13700
N 	N 	0.37380 0.51160 0.52706 -0.14100
N 	N 	0.28860 0.54960 0.43554 -0.14800
Ag	Ag	0.65576 0.95767 0.13216 0.51000
Ag	Ag	0.17715 0.75273 0.63279 0.51300
C 	C 	0.72210 0.13760 0.49090 -0.12400
H 	H 	0.70120 0.13380 0.45080 0.07200
C 	C 	0.37630 0.75690 0.99790 0.10000
C 	C 	0.90230 0.97040 0.49940 0.10000
C 	C 	0.44000 0.80220 0.03010 0.05500
C 	C 	0.20230 0.58420 0.99540 -0.12500
H 	H 	0.18000 0.58860 0.95540 0.08200
C 	C 	0.26490 0.56480 0.11180 0.07400
H 	H 	0.28680 0.55780 0.15160 -0.00500
C 	C 	0.05610 0.84320 0.53560 0.08300
H 	H 	0.07590 0.81480 0.51560 -0.01100
C 	C 	0.46690 0.81170 0.08910 -0.13000
H 	H 	0.44560 0.79000 0.11040 0.07800
C 	C 	0.96690 0.92650 0.53330 0.06700
C 	C 	0.99650 0.88400 0.50400 -0.13300
H 	H 	0.97700 0.88270 0.46380 0.08600
C 	C 	0.81740 0.05200 0.49340 0.09500
C 	C 	0.78010 0.15190 0.60800 0.04900
H 	H 	0.80010 0.15600 0.64810 -0.01800
C 	C 	0.29000 0.72690 0.91220 0.10200
C 	C 	0.82070 0.95610 0.31900 -0.12900
H 	H 	0.86460 0.93820 0.33910 0.08000
C 	C 	0.81990 0.00210 0.41210 0.09700
C 	C 	0.78460 0.10140 0.52260 0.04900
C 	C 	0.47400 0.83560 0.00040 -0.13600
H 	H 	0.45690 0.83080 0.96040 0.07300
C 	C 	0.25660 0.73740 0.84880 0.05700
C 	C 	0.81400 0.10990 0.58160 -0.12300
H 	H 	0.85610 0.08770 0.60360 0.07500
C 	C 	0.29460 0.67230 0.99520 0.10400
C 	C 	0.26410 0.62090 0.02560 0.06400
C 	C 	0.52670 0.85450 0.11630 0.05400
H 	H 	0.54390 0.86260 0.15600 -0.01200
C 	C 	0.53300 0.87560 0.03090 0.06200
H 	H 	0.55530 0.89780 0.01050 -0.01400
C 	C 	0.17430 0.54100 0.02590 0.07600
H 	H 	0.13210 0.51800 0.00560 -0.00800
C 	C 	0.69200 0.17940 0.52100 0.06100
H 	H 	0.65030 0.20330 0.49990 -0.00500
C 	C 	0.29620 0.61010 0.08490 -0.12600
H 	H 	0.33820 0.63300 0.10640 0.08200
C 	C 	0.78770 0.99240 0.34830 0.05100
C 	C 	0.69250 0.00470 0.25750 0.06700
H 	H 	0.64820 0.02100 0.23660 -0.02100
C 	C 	0.99790 0.92720 0.59310 -0.13700
H 	H 	0.97980 0.95650 0.61410 0.08000
C 	C 	0.05610 0.88340 0.62050 0.08000
H 	H 	0.07580 0.88220 0.66070 -0.00400
C 	C 	0.72180 0.01690 0.31680 -0.13600
H 	H 	0.69770 0.04090 0.33510 0.07200
C 	C 	0.17160 0.70750 0.75590 0.07400
H 	H 	0.13210 0.68020 0.73320 -0.01500
C 	C 	0.28430 0.78930 0.82200 -0.13300
H 	H 	0.32260 0.81950 0.84370 0.07000
C 	C 	0.19770 0.69730 0.81500 -0.13400
H 	H 	0.17630 0.66450 0.83160 0.08200
C 	C 	0.25410 0.79500 0.76300 0.06900
H 	H 	0.27310 0.82990 0.74540 -0.01400
C 	C 	0.78820 0.94650 0.25980 0.06700
H 	H 	0.81120 0.92230 0.24070 -0.00900
N 	N 	0.56060 0.88480 0.08801 -0.20800
N 	N 	0.20460 0.53050 0.08329 -0.18800
N 	N 	0.19940 0.75390 0.72930 -0.19500
N 	N 	0.34680 0.76790 0.94084 -0.14200
N 	N 	0.35210 0.71030 0.02785 -0.13800
N 	N 	0.26180 0.67770 0.93725 -0.13700
N 	N 	0.08640 0.84230 0.59292 -0.18600
N 	N 	0.71990 0.18710 0.57858 -0.20100
N 	N 	0.72410 0.97110 0.22850 -0.19400
N 	N 	0.87720 0.96270 0.44140 -0.13700
N 	N 	0.87380 0.01160 0.52706 -0.14100
N 	N 	0.78860 0.04960 0.43554 -0.14800
Ag	Ag	0.15576 0.54233 0.63216 0.51000
Ag	Ag	0.67715 0.74727 0.13279 0.51300
C 	C 	0.22210 0.36240 0.99090 -0.12000
H 	H 	0.20120 0.36620 0.95080 0.07100
C 	C 	0.87630 0.74310 0.49790 0.10000
C 	C 	0.40230 0.52960 0.99940 0.10000
C 	C 	0.94000 0.69780 0.53010 0.05600
C 	C 	0.70230 0.91580 0.49540 -0.12800
H 	H 	0.68000 0.91140 0.45540 0.08300
C 	C 	0.76490 0.93520 0.61180 0.07500
H 	H 	0.78680 0.94220 0.65160 -0.00600
C 	C 	0.55610 0.65680 0.03560 0.08300
H 	H 	0.57590 0.68520 0.01560 -0.01100
C 	C 	0.96690 0.68830 0.58910 -0.13100
H 	H 	0.94560 0.71000 0.61040 0.07900
C 	C 	0.46690 0.57350 0.03330 0.06700
C 	C 	0.49650 0.61600 0.00400 -0.13300
H 	H 	0.47700 0.61730 0.96380 0.08600
C 	C 	0.31740 0.44800 0.99340 0.09600
C 	C 	0.28010 0.34810 0.10800 0.04800
H 	H 	0.30010 0.34400 0.14810 -0.01700
C 	C 	0.79000 0.77310 0.41220 0.10200
C 	C 	0.32070 0.54390 0.81900 -0.12900
H 	H 	0.36460 0.56180 0.83910 0.08000
C 	C 	0.31990 0.49790 0.91210 0.09700
C 	C 	0.28460 0.39860 0.02260 0.04600
C 	C 	0.97400 0.66440 0.50040 -0.13600
H 	H 	0.95690 0.66920 0.46040 0.07300
C 	C 	0.75660 0.76260 0.34880 0.05700
C 	C 	0.31400 0.39010 0.08160 -0.12100
H 	H 	0.35610 0.41230 0.10360 0.07400
C 	C 	0.79460 0.82770 0.49520 0.10300
C 	C 	0.76410 0.87910 0.52560 0.06700
C 	C 	0.02670 0.64550 0.61630 0.05500
H 	H 	0.04390 0.63740 0.65600 -0.01200
C 	C 	0.03300 0.62440 0.53090 0.06200
H 	H 	0.05530 0.60220 0.51050 -0.01400
C 	C 	0.67430 0.95900 0.52590 0.07900
H 	H 	0.63210 0.98200 0.50560 -0.00900
C 	C 	0.19200 0.32060 0.02100 0.05700
H 	H 	0.15030 0.29670 0.99990 -0.00300
C 	C 	0.79620 0.88990 0.58490 -0.12800
H 	H 	0.83820 0.86700 0.60640 0.08300
C 	C 	0.28770 0.50760 0.84830 0.05100
C 	C 	0.19250 0.49530 0.75750 0.06600
H 	H 	0.14820 0.47900 0.73660 -0.02100
C 	C 	0.49790 0.57280 0.09310 -0.13600
H 	H 	0.47980 0.54350 0.11410 0.08000
C 	C 	0.55610 0.61660 0.12050 0.07900
H 	H 	0.57580 0.61780 0.16070 -0.00400
C 	C 	0.22180 0.48310 0.81680 -0.13600
H 	H 	0.19770 0.45910 0.83510 0.07200
C 	C 	0.67160 0.79250 0.25590 0.07400
H 	H 	0.63210 0.81980 0.23320 -0.01500
C 	C 	0.78430 0.71070 0.32200 -0.13300
H 	H 	0.82260 0.68050 0.34370 0.07000
C 	C 	0.69770 0.80270 0.31500 -0.13400
H 	H 	0.67630 0.83550 0.33160 0.08200
C 	C 	0.75410 0.70500 0.26300 0.06900
H 	H 	0.77310 0.67010 0.24540 -0.01400
C 	C 	0.28820 0.55350 0.75980 0.06700
H 	H 	0.31120 0.57770 0.74070 -0.00900
N 	N 	0.06060 0.61520 0.58801 -0.20800
N 	N 	0.70460 0.96950 0.58329 -0.18900
N 	N 	0.69940 0.74610 0.22930 -0.19500
N 	N 	0.84680 0.73210 0.44084 -0.14200
N 	N 	0.85210 0.78970 0.52785 -0.13700
N 	N 	0.76180 0.82230 0.43725 -0.13700
N 	N 	0.58640 0.65770 0.09292 -0.18600
N 	N 	0.21990 0.31290 0.07858 -0.20000
N 	N 	0.22410 0.52890 0.72850 -0.19400
N 	N 	0.37720 0.53730 0.94140 -0.13700
N 	N 	0.37380 0.48840 0.02706 -0.14100
N 	N 	0.28860 0.45040 0.93554 -0.14800
Ag	Ag	0.65576 0.04233 0.63216 0.51000
Ag	Ag	0.17715 0.24727 0.13279 0.51300
C 	C 	0.72210 0.86240 0.99090 -0.12700
H 	H 	0.70120 0.86620 0.95080 0.07300
C 	C 	0.37630 0.24310 0.49790 0.10000
C 	C 	0.90230 0.02960 0.99940 0.09900
C 	C 	0.44000 0.19780 0.53010 0.05600
C 	C 	0.20230 0.41580 0.49540 -0.12800
H 	H 	0.18000 0.41140 0.45540 0.08300
C 	C 	0.26490 0.43520 0.61180 0.07500
H 	H 	0.28680 0.44220 0.65160 -0.00600
C 	C 	0.05610 0.15680 0.03560 0.07900
H 	H 	0.07590 0.18520 0.01560 -0.01000
C 	C 	0.46690 0.18830 0.58910 -0.13000
H 	H 	0.44560 0.21000 0.61040 0.07900
C 	C 	0.96690 0.07350 0.03330 0.06500
C 	C 	0.99650 0.11600 0.00400 -0.12700
H 	H 	0.97700 0.11730 0.96380 0.08300
C 	C 	0.81740 0.94800 0.99340 0.09300
C 	C 	0.78010 0.84810 0.10800 0.05000
H 	H 	0.80010 0.84400 0.14810 -0.01800
C 	C 	0.29000 0.27310 0.41220 0.10200
C 	C 	0.82070 0.04390 0.81900 -0.12800
H 	H 	0.86460 0.06180 0.83910 0.07900
C 	C 	0.81990 0.99790 0.91210 0.09700
C 	C 	0.78460 0.89860 0.02260 0.05200
C 	C 	0.47400 0.16440 0.50040 -0.13600
H 	H 	0.45690 0.16920 0.46040 0.07300
C 	C 	0.25660 0.26260 0.34880 0.05700
C 	C 	0.81400 0.89010 0.08160 -0.12400
H 	H 	0.85610 0.91230 0.10360 0.07600
C 	C 	0.29460 0.32770 0.49520 0.10300
C 	C 	0.26410 0.37910 0.52560 0.06700
C 	C 	0.52670 0.14550 0.61630 0.05400
H 	H 	0.54390 0.13740 0.65600 -0.01200
C 	C 	0.53300 0.12440 0.53090 0.06200
H 	H 	0.55530 0.10220 0.51050 -0.01400
C 	C 	0.17430 0.45900 0.52590 0.07900
H 	H 	0.13210 0.48200 0.50560 -0.00900
C 	C 	0.69200 0.82060 0.02100 0.06300
H 	H 	0.65030 0.79670 0.99990 -0.00600
C 	C 	0.29620 0.38990 0.58490 -0.12800
H 	H 	0.33820 0.36700 0.60640 0.08300
C 	C 	0.78770 0.00760 0.84830 0.05100
C 	C 	0.69250 0.99530 0.75750 0.06600
H 	H 	0.64820 0.97900 0.73660 -0.02100
C 	C 	0.99790 0.07280 0.09310 -0.13300
H 	H 	0.97980 0.04350 0.11410 0.08000
C 	C 	0.05610 0.11660 0.12050 0.07600
H 	H 	0.07580 0.11780 0.16070 -0.00300
C 	C 	0.72180 0.98310 0.81680 -0.13600
H 	H 	0.69770 0.95910 0.83510 0.07200
C 	C 	0.17160 0.29250 0.25590 0.07400
H 	H 	0.13210 0.31980 0.23320 -0.01500
C 	C 	0.28430 0.21070 0.32200 -0.13300
H 	H 	0.32260 0.18050 0.34370 0.07000
C 	C 	0.19770 0.30270 0.31500 -0.13400
H 	H 	0.17630 0.33550 0.33160 0.08200
C 	C 	0.25410 0.20500 0.26300 0.06900
H 	H 	0.27310 0.17010 0.24540 -0.01400
C 	C 	0.78820 0.05350 0.75980 0.06700
H 	H 	0.81120 0.07770 0.74070 -0.00900
N 	N 	0.56060 0.11520 0.58801 -0.20800
N 	N 	0.20460 0.46950 0.58329 -0.18900
N 	N 	0.19940 0.24610 0.22930 -0.19600
N 	N 	0.34680 0.23210 0.44084 -0.14200
N 	N 	0.35210 0.28970 0.52785 -0.13800
N 	N 	0.26180 0.32230 0.43725 -0.13700
N 	N 	0.08640 0.15770 0.09292 -0.18500
N 	N 	0.71990 0.81290 0.07858 -0.20200
N 	N 	0.72410 0.02890 0.72850 -0.19400
N 	N 	0.87720 0.03730 0.94140 -0.13700
N 	N 	0.87380 0.98840 0.02706 -0.14000
N 	N 	0.78860 0.95040 0.93554 -0.14800
Ag	Ag	0.84424 0.54233 0.86785 0.51000
Ag	Ag	0.32285 0.74727 0.36721 0.51300
C 	C 	0.77790 0.36240 0.50910 -0.12400
H 	H 	0.79880 0.36620 0.54920 0.07200
C 	C 	0.12370 0.74310 0.00210 0.09800
C 	C 	0.59770 0.52960 0.50060 0.10000
C 	C 	0.06000 0.69780 0.96990 0.05400
C 	C 	0.29770 0.91580 0.00460 -0.13300
H 	H 	0.32000 0.91140 0.04460 0.08500
C 	C 	0.23510 0.93520 0.88820 0.07700
H 	H 	0.21320 0.94220 0.84840 -0.00600
C 	C 	0.44390 0.65680 0.46440 0.08300
H 	H 	0.42410 0.68520 0.48440 -0.01100
C 	C 	0.03310 0.68830 0.91090 -0.12700
H 	H 	0.05440 0.71000 0.88960 0.07800
C 	C 	0.53310 0.57350 0.46670 0.06700
C 	C 	0.50350 0.61600 0.49600 -0.13300
H 	H 	0.52300 0.61730 0.53620 0.08600
C 	C 	0.68260 0.44800 0.50660 0.09500
C 	C 	0.71990 0.34810 0.39200 0.04900
H 	H 	0.69990 0.34400 0.35190 -0.01800
C 	C 	0.21000 0.77310 0.08780 0.10100
C 	C 	0.67930 0.54390 0.68100 -0.12900
H 	H 	0.63540 0.56180 0.66090 0.08000
C 	C 	0.68010 0.49790 0.58790 0.09700
C 	C 	0.71540 0.39860 0.47740 0.04900
C 	C 	0.02600 0.66440 0.99960 -0.13000
H 	H 	0.04310 0.66920 0.03960 0.07000
C 	C 	0.24340 0.76260 0.15120 0.05700
C 	C 	0.68600 0.39010 0.41840 -0.12300
H 	H 	0.64390 0.41230 0.39640 0.07500
C 	C 	0.20540 0.82770 0.00480 0.10000
C 	C 	0.23590 0.87910 0.97440 0.07100
C 	C 	0.97330 0.64550 0.88370 0.05100
H 	H 	0.95610 0.63740 0.84400 -0.01100
C 	C 	0.96700 0.62440 0.96910 0.05700
H 	H 	0.94470 0.60220 0.98950 -0.01300
C 	C 	0.32570 0.95900 0.97410 0.08200
H 	H 	0.36790 0.98200 0.99440 -0.01000
C 	C 	0.80800 0.32060 0.47900 0.06100
H 	H 	0.84970 0.29670 0.50010 -0.00500
C 	C 	0.20380 0.88990 0.91510 -0.13000
H 	H 	0.16180 0.86700 0.89360 0.08400
C 	C 	0.71230 0.50760 0.65170 0.05100
C 	C 	0.80750 0.49530 0.74250 0.06600
H 	H 	0.85180 0.47900 0.76340 -0.02100
C 	C 	0.50210 0.57280 0.40690 -0.13600
H 	H 	0.52020 0.54350 0.38590 0.08000
C 	C 	0.44390 0.61660 0.37950 0.07900
H 	H 	0.42420 0.61780 0.33930 -0.00400
C 	C 	0.77820 0.48310 0.68320 -0.13600
H 	H 	0.80230 0.45910 0.66490 0.07200
C 	C 	0.32840 0.79250 0.24410 0.07400
H 	H 	0.36790 0.81980 0.26680 -0.01500
C 	C 	0.21570 0.71070 0.17800 -0.13300
H 	H 	0.17740 0.68050 0.15630 0.07000
C 	C 	0.30230 0.80270 0.18500 -0.13400
H 	H 	0.32370 0.83550 0.16840 0.08200
C 	C 	0.24590 0.70500 0.23700 0.06900
H 	H 	0.22690 0.67010 0.25460 -0.01400
C 	C 	0.71180 0.55350 0.74020 0.06700
H 	H 	0.68880 0.57770 0.75930 -0.00900
N 	N 	0.93940 0.61520 0.91199 -0.20700
N 	N 	0.29540 0.96950 0.91671 -0.18900
N 	N 	0.30060 0.74610 0.27070 -0.19500
N 	N 	0.15320 0.73210 0.05916 -0.14200
N 	N 	0.14790 0.78970 0.97215 -0.13600
N 	N 	0.23820 0.82230 0.06275 -0.13600
N 	N 	0.41360 0.65770 0.40708 -0.18600
N 	N 	0.78010 0.31290 0.42142 -0.20100
N 	N 	0.77590 0.52890 0.77150 -0.19400
N 	N 	0.62280 0.53730 0.55860 -0.13700
N 	N 	0.62620 0.48840 0.47294 -0.14100
N 	N 	0.71140 0.45040 0.56446 -0.14800
Ag	Ag	0.34424 0.04233 0.86785 0.51000
Ag	Ag	0.82285 0.24727 0.36721 0.51300
C 	C 	0.27790 0.86240 0.50910 -0.12400
H 	H 	0.29880 0.86620 0.54920 0.07200
C 	C 	0.62370 0.24310 0.00210 0.10000
C 	C 	0.09770 0.02960 0.50060 0.10000
C 	C 	0.56000 0.19780 0.96990 0.05500
C 	C 	0.79770 0.41580 0.00460 -0.12500
H 	H 	0.82000 0.41140 0.04460 0.08200
C 	C 	0.73510 0.43520 0.88820 0.07400
H 	H 	0.71320 0.44220 0.84840 -0.00500
C 	C 	0.94390 0.15680 0.46440 0.08300
H 	H 	0.92410 0.18520 0.48440 -0.01100
C 	C 	0.53310 0.18830 0.91090 -0.13000
H 	H 	0.55440 0.21000 0.88960 0.07800
C 	C 	0.03310 0.07350 0.46670 0.06700
C 	C 	0.00350 0.11600 0.49600 -0.13300
H 	H 	0.02300 0.11730 0.53620 0.08600
C 	C 	0.18260 0.94800 0.50660 0.09500
C 	C 	0.21990 0.84810 0.39200 0.04900
H 	H 	0.19990 0.84400 0.35190 -0.01800
C 	C 	0.71000 0.27310 0.08780 0.10200
C 	C 	0.17930 0.04390 0.68100 -0.12900
H 	H 	0.13540 0.06180 0.66090 0.08000
C 	C 	0.18010 0.99790 0.58790 0.09700
C 	C 	0.21540 0.89860 0.47740 0.04900
C 	C 	0.52600 0.16440 0.99960 -0.13600
H 	H 	0.54310 0.16920 0.03960 0.07300
C 	C 	0.74340 0.26260 0.15120 0.05700
C 	C 	0.18600 0.89010 0.41840 -0.12300
H 	H 	0.14390 0.91230 0.39640 0.07500
C 	C 	0.70540 0.32770 0.00480 0.10400
C 	C 	0.73590 0.37910 0.97440 0.06400
C 	C 	0.47330 0.14550 0.88370 0.05400
H 	H 	0.45610 0.13740 0.84400 -0.01200
C 	C 	0.46700 0.12440 0.96910 0.06200
H 	H 	0.44470 0.10220 0.98950 -0.01400
C 	C 	0.82570 0.45900 0.97410 0.07600
H 	H 	0.86790 0.48200 0.99440 -0.00800
C 	C 	0.30800 0.82060 0.47900 0.06100
H 	H 	0.34970 0.79670 0.50010 -0.00500
C 	C 	0.70380 0.38990 0.91510 -0.12600
H 	H 	0.66180 0.36700 0.89360 0.08200
C 	C 	0.21230 0.00760 0.65170 0.05100
C 	C 	0.30750 0.99530 0.74250 0.06700
H 	H 	0.35180 0.97900 0.76340 -0.02100
C 	C 	0.00210 0.07280 0.40690 -0.13700
H 	H 	0.02020 0.04350 0.38590 0.08000
C 	C 	0.94390 0.11660 0.37950 0.08000
H 	H 	0.92420 0.11780 0.33930 -0.00400
C 	C 	0.27820 0.98310 0.68320 -0.13600
H 	H 	0.30230 0.95910 0.66490 0.07200
C 	C 	0.82840 0.29250 0.24410 0.07400
H 	H 	0.86790 0.31980 0.26680 -0.01500
C 	C 	0.71570 0.21070 0.17800 -0.13300
H 	H 	0.67740 0.18050 0.15630 0.07000
C 	C 	0.80230 0.30270 0.18500 -0.13400
H 	H 	0.82370 0.33550 0.16840 0.08200
C 	C 	0.74590 0.20500 0.23700 0.06900
H 	H 	0.72690 0.17010 0.25460 -0.01400
C 	C 	0.21180 0.05350 0.74020 0.06700
H 	H 	0.18880 0.07770 0.75930 -0.00900
N 	N 	0.43940 0.11520 0.91199 -0.20800
N 	N 	0.79540 0.46950 0.91671 -0.18800
N 	N 	0.80060 0.24610 0.27070 -0.19500
N 	N 	0.65320 0.23210 0.05916 -0.14200
N 	N 	0.64790 0.28970 0.97215 -0.13800
N 	N 	0.73820 0.32230 0.06275 -0.13700
N 	N 	0.91360 0.15770 0.40708 -0.18600
N 	N 	0.28010 0.81290 0.42142 -0.20100
N 	N 	0.27590 0.02890 0.77150 -0.19400
N 	N 	0.12280 0.03730 0.55860 -0.13700
N 	N 	0.12620 0.98840 0.47294 -0.14100
N 	N 	0.21140 0.95040 0.56446 -0.14800
