data_crystal

_cell_length_a 22.05720
_cell_length_b 16.38930
_cell_length_c 25.60300
_cell_angle_alpha 90.00000
_cell_angle_beta  115.30500
_cell_angle_gamma 90.00000

_symmetry_space_group_name_	'P 1'
_symmetry_space_group_name_H-M	'P 1'

loop_
_symmetry_equiv_pos_as_xyz
  x,y,z

loop_
_atom_site_label
_atom_site_type_symbol
_atom_site_fract_x
_atom_site_fract_y
_atom_site_fract_z
_atom_site_charge
Ag	Ag	0.84414 0.45773 0.36791 0.50900
Ag	Ag	0.32294 0.25223 0.86728 0.51200
C 	C 	0.12400 0.25730 0.50250 0.09900
C 	C 	0.77800 0.63770 0.00930 -0.12000
H 	H 	0.79890 0.63380 0.04930 0.07000
C 	C 	0.59760 0.46970 0.00090 0.10000
C 	C 	0.23490 0.06470 0.38830 0.07400
H 	H 	0.21280 0.05740 0.34850 -0.00500
C 	C 	0.29790 0.08440 0.50490 -0.12500
H 	H 	0.32030 0.08900 0.54490 0.08200
C 	C 	0.03330 0.31220 0.41110 -0.13400
H 	H 	0.05480 0.29080 0.38990 0.08000
C 	C 	0.06000 0.30240 0.47010 0.05800
C 	C 	0.44360 0.34310 0.96480 0.08000
H 	H 	0.42340 0.31530 0.98480 -0.00900
C 	C 	0.50340 0.38350 0.99640 -0.12900
H 	H 	0.52310 0.38190 0.03660 0.08500
C 	C 	0.71970 0.65200 0.89220 0.04600
H 	H 	0.69950 0.65670 0.85210 -0.01600
C 	C 	0.20990 0.22710 0.58760 0.10400
C 	C 	0.53320 0.42640 0.96690 0.06300
C 	C 	0.67920 0.45620 0.18150 -0.13200
H 	H 	0.63520 0.43830 0.16160 0.08100
C 	C 	0.24330 0.23770 0.65140 0.05600
C 	C 	0.02620 0.33550 0.49980 -0.13700
H 	H 	0.04350 0.33070 0.53970 0.07400
C 	C 	0.68230 0.55190 0.00670 0.09600
C 	C 	0.68020 0.50200 0.08810 0.09600
C 	C 	0.71540 0.60140 0.97750 0.04600
C 	C 	0.68610 0.60940 0.91860 -0.12000
H 	H 	0.64420 0.58660 0.89660 0.07400
C 	C 	0.97360 0.35470 0.38420 0.05800
H 	H 	0.95630 0.36260 0.34440 -0.01300
C 	C 	0.32570 0.04080 0.47400 0.07700
H 	H 	0.36780 0.01760 0.49430 -0.00800
C 	C 	0.96700 0.37550 0.46950 0.06000
H 	H 	0.94460 0.39720 0.48990 -0.01300
C 	C 	0.80830 0.67960 0.97960 0.05500
H 	H 	0.84990 0.70370 0.00070 -0.00200
C 	C 	0.20560 0.17240 0.50520 0.10400
C 	C 	0.23580 0.12090 0.47460 0.06400
C 	C 	0.80730 0.50490 0.24270 0.06900
H 	H 	0.85160 0.52140 0.26350 -0.02200
C 	C 	0.20370 0.11030 0.41500 -0.12600
H 	H 	0.16190 0.13350 0.39360 0.08300
C 	C 	0.50230 0.42670 0.90710 -0.13300
H 	H 	0.52050 0.45570 0.88600 0.07900
C 	C 	0.71230 0.49240 0.15190 0.05300
C 	C 	0.21580 0.28930 0.67810 -0.13000
H 	H 	0.17770 0.31960 0.65630 0.06900
C 	C 	0.77810 0.51680 0.18340 -0.14000
H 	H 	0.80220 0.54060 0.16520 0.07400
C 	C 	0.44380 0.38300 0.87970 0.07800
H 	H 	0.42400 0.38190 0.83950 -0.00300
C 	C 	0.30230 0.19740 0.68500 -0.13100
H 	H 	0.32360 0.16470 0.66820 0.08100
C 	C 	0.32870 0.20720 0.74430 0.07100
H 	H 	0.36820 0.17980 0.76700 -0.01400
C 	C 	0.24580 0.29530 0.73740 0.06500
H 	H 	0.22680 0.33000 0.75500 -0.01300
C 	C 	0.71210 0.44710 0.24030 0.07200
H 	H 	0.68910 0.42320 0.25950 -0.01100
N 	N 	0.93951 0.38510 0.41209 -0.20800
N 	N 	0.29548 0.03030 0.41670 -0.18800
N 	N 	0.30070 0.25370 0.77100 -0.19400
N 	N 	0.15324 0.26780 0.55939 -0.14300
N 	N 	0.14786 0.21020 0.47242 -0.13800
N 	N 	0.23824 0.17800 0.56282 -0.13800
N 	N 	0.41356 0.34210 0.90728 -0.18500
N 	N 	0.78030 0.68700 0.92164 -0.19900
N 	N 	0.77590 0.47120 0.27169 -0.19600
N 	N 	0.62276 0.46260 0.05861 -0.13700
N 	N 	0.62621 0.51140 0.97300 -0.14100
N 	N 	0.71159 0.54960 0.06475 -0.14800
Ag	Ag	0.34414 0.95773 0.36791 0.51000
Ag	Ag	0.82294 0.75223 0.86728 0.51300
C 	C 	0.62400 0.75730 0.50250 0.10000
C 	C 	0.27800 0.13770 0.00930 -0.12600
H 	H 	0.29890 0.13380 0.04930 0.07300
C 	C 	0.09760 0.96970 0.00090 0.09900
C 	C 	0.73490 0.56470 0.38830 0.07400
H 	H 	0.71280 0.55740 0.34850 -0.00500
C 	C 	0.79790 0.58440 0.50490 -0.12500
H 	H 	0.82030 0.58900 0.54490 0.08200
C 	C 	0.53330 0.81220 0.41110 -0.13300
H 	H 	0.55480 0.79080 0.38990 0.08000
C 	C 	0.56000 0.80240 0.47010 0.05700
C 	C 	0.94360 0.84310 0.96480 0.07600
H 	H 	0.92340 0.81530 0.98480 -0.00800
C 	C 	0.00340 0.88350 0.99640 -0.12300
H 	H 	0.02310 0.88190 0.03660 0.08200
C 	C 	0.21970 0.15200 0.89220 0.04800
H 	H 	0.19950 0.15670 0.85210 -0.01700
C 	C 	0.70990 0.72710 0.58760 0.10400
C 	C 	0.03320 0.92640 0.96690 0.06200
C 	C 	0.17920 0.95620 0.18150 -0.13200
H 	H 	0.13520 0.93830 0.16160 0.08000
C 	C 	0.74330 0.73770 0.65140 0.05600
C 	C 	0.52620 0.83550 0.49980 -0.13600
H 	H 	0.54350 0.83070 0.53970 0.07400
C 	C 	0.18230 0.05190 0.00670 0.09300
C 	C 	0.18020 0.00200 0.08810 0.09600
C 	C 	0.21540 0.10140 0.97750 0.05200
C 	C 	0.18610 0.10940 0.91860 -0.12300
H 	H 	0.14420 0.08660 0.89660 0.07600
C 	C 	0.47360 0.85470 0.38420 0.05700
H 	H 	0.45630 0.86260 0.34440 -0.01300
C 	C 	0.82570 0.54080 0.47400 0.07700
H 	H 	0.86780 0.51760 0.49430 -0.00800
C 	C 	0.46700 0.87550 0.46950 0.06000
H 	H 	0.44460 0.89720 0.48990 -0.01300
C 	C 	0.30830 0.17960 0.97960 0.06200
H 	H 	0.34990 0.20370 0.00070 -0.00500
C 	C 	0.70560 0.67240 0.50520 0.10400
C 	C 	0.73580 0.62090 0.47460 0.06400
C 	C 	0.30730 0.00490 0.24270 0.06900
H 	H 	0.35160 0.02140 0.26350 -0.02200
C 	C 	0.70370 0.61030 0.41500 -0.12600
H 	H 	0.66190 0.63350 0.39360 0.08300
C 	C 	0.00230 0.92670 0.90710 -0.13000
H 	H 	0.02050 0.95570 0.88600 0.07900
C 	C 	0.21230 0.99240 0.15190 0.05300
C 	C 	0.71580 0.78930 0.67810 -0.13000
H 	H 	0.67770 0.81960 0.65630 0.06900
C 	C 	0.27810 0.01680 0.18340 -0.13900
H 	H 	0.30220 0.04060 0.16520 0.07400
C 	C 	0.94380 0.88300 0.87970 0.07500
H 	H 	0.92400 0.88190 0.83950 -0.00200
C 	C 	0.80230 0.69740 0.68500 -0.13100
H 	H 	0.82360 0.66470 0.66820 0.08100
C 	C 	0.82870 0.70720 0.74430 0.07100
H 	H 	0.86820 0.67980 0.76700 -0.01400
C 	C 	0.74580 0.79530 0.73740 0.06500
H 	H 	0.72680 0.83000 0.75500 -0.01300
C 	C 	0.21210 0.94710 0.24030 0.07200
H 	H 	0.18910 0.92320 0.25950 -0.01100
N 	N 	0.43951 0.88510 0.41209 -0.20800
N 	N 	0.79548 0.53030 0.41670 -0.18800
N 	N 	0.80070 0.75370 0.77100 -0.19400
N 	N 	0.65324 0.76780 0.55939 -0.14300
N 	N 	0.64786 0.71020 0.47242 -0.13800
N 	N 	0.73824 0.67800 0.56282 -0.13800
N 	N 	0.91356 0.84210 0.90728 -0.18400
N 	N 	0.28030 0.18700 0.92164 -0.20100
N 	N 	0.27590 0.97120 0.27169 -0.19600
N 	N 	0.12276 0.96260 0.05861 -0.13700
N 	N 	0.12621 0.01140 0.97300 -0.13900
N 	N 	0.21159 0.04960 0.06475 -0.14800
Ag	Ag	0.15586 0.45773 0.13209 0.51000
Ag	Ag	0.67706 0.25223 0.63272 0.51300
C 	C 	0.87600 0.25730 0.99750 0.09800
C 	C 	0.22200 0.63770 0.49070 -0.12300
H 	H 	0.20110 0.63380 0.45070 0.07200
C 	C 	0.40240 0.46970 0.49910 0.10100
C 	C 	0.76510 0.06470 0.11170 0.07500
H 	H 	0.78720 0.05740 0.15150 -0.00500
C 	C 	0.70210 0.08440 0.99510 -0.13000
H 	H 	0.67970 0.08900 0.95510 0.08400
C 	C 	0.96670 0.31220 0.08890 -0.13000
H 	H 	0.94520 0.29080 0.11010 0.07900
C 	C 	0.94000 0.30240 0.02990 0.05600
C 	C 	0.55640 0.34310 0.53520 0.08000
H 	H 	0.57660 0.31530 0.51520 -0.00900
C 	C 	0.49660 0.38350 0.50360 -0.12900
H 	H 	0.47690 0.38190 0.46340 0.08400
C 	C 	0.28030 0.65200 0.60780 0.04700
H 	H 	0.30050 0.65670 0.64790 -0.01700
C 	C 	0.79010 0.22710 0.91240 0.10400
C 	C 	0.46680 0.42640 0.53310 0.06400
C 	C 	0.32080 0.45620 0.31850 -0.13200
H 	H 	0.36480 0.43830 0.33840 0.08100
C 	C 	0.75670 0.23770 0.84860 0.05600
C 	C 	0.97380 0.33550 0.00020 -0.13000
H 	H 	0.95650 0.33070 0.96030 0.07100
C 	C 	0.31770 0.55190 0.49330 0.09500
C 	C 	0.31980 0.50200 0.41190 0.09600
C 	C 	0.28460 0.60140 0.52250 0.04900
C 	C 	0.31390 0.60940 0.58140 -0.12200
H 	H 	0.35580 0.58660 0.60340 0.07500
C 	C 	0.02640 0.35470 0.11580 0.05500
H 	H 	0.04370 0.36260 0.15560 -0.01200
C 	C 	0.67430 0.04080 0.02600 0.08000
H 	H 	0.63220 0.01760 0.00570 -0.00900
C 	C 	0.03300 0.37550 0.03050 0.05500
H 	H 	0.05540 0.39720 0.01010 -0.01200
C 	C 	0.19170 0.67960 0.52040 0.05900
H 	H 	0.15010 0.70370 0.49930 -0.00400
C 	C 	0.79440 0.17240 0.99480 0.10200
C 	C 	0.76420 0.12090 0.02540 0.06800
C 	C 	0.19270 0.50490 0.25730 0.06900
H 	H 	0.14840 0.52140 0.23650 -0.02200
C 	C 	0.79630 0.11030 0.08500 -0.12800
H 	H 	0.83810 0.13350 0.10640 0.08300
C 	C 	0.49770 0.42670 0.59290 -0.13300
H 	H 	0.47950 0.45570 0.61400 0.07900
C 	C 	0.28770 0.49240 0.34810 0.05300
C 	C 	0.78420 0.28930 0.82190 -0.13100
H 	H 	0.82230 0.31960 0.84370 0.06900
C 	C 	0.22190 0.51680 0.31660 -0.14000
H 	H 	0.19780 0.54060 0.33480 0.07400
C 	C 	0.55620 0.38300 0.62030 0.07800
H 	H 	0.57600 0.38190 0.66050 -0.00300
C 	C 	0.69770 0.19740 0.81500 -0.13100
H 	H 	0.67640 0.16470 0.83180 0.08100
C 	C 	0.67130 0.20720 0.75570 0.07100
H 	H 	0.63180 0.17980 0.73300 -0.01400
C 	C 	0.75420 0.29530 0.76260 0.06500
H 	H 	0.77320 0.33000 0.74500 -0.01300
C 	C 	0.28790 0.44710 0.25970 0.07200
H 	H 	0.31090 0.42320 0.24050 -0.01100
N 	N 	0.06049 0.38510 0.08791 -0.20700
N 	N 	0.70452 0.03030 0.08330 -0.18900
N 	N 	0.69930 0.25370 0.72900 -0.19400
N 	N 	0.84676 0.26780 0.94061 -0.14300
N 	N 	0.85214 0.21020 0.02758 -0.13600
N 	N 	0.76176 0.17800 0.93718 -0.13800
N 	N 	0.58644 0.34210 0.59272 -0.18500
N 	N 	0.21970 0.68700 0.57836 -0.20000
N 	N 	0.22410 0.47120 0.22831 -0.19600
N 	N 	0.37724 0.46260 0.44139 -0.13700
N 	N 	0.37379 0.51140 0.52700 -0.14000
N 	N 	0.28841 0.54960 0.43525 -0.14800
Ag	Ag	0.65586 0.95773 0.13209 0.51000
Ag	Ag	0.17706 0.75223 0.63272 0.51300
C 	C 	0.37600 0.75730 0.99750 0.10000
C 	C 	0.72200 0.13770 0.49070 -0.12300
H 	H 	0.70110 0.13380 0.45070 0.07200
C 	C 	0.90240 0.96970 0.49910 0.10100
C 	C 	0.26510 0.56470 0.11170 0.07300
H 	H 	0.28720 0.55740 0.15150 -0.00500
C 	C 	0.20210 0.58440 0.99510 -0.12200
H 	H 	0.17970 0.58900 0.95510 0.08100
C 	C 	0.46670 0.81220 0.08890 -0.13300
H 	H 	0.44520 0.79080 0.11010 0.07900
C 	C 	0.44000 0.80240 0.02990 0.05700
C 	C 	0.05640 0.84310 0.53520 0.08000
H 	H 	0.07660 0.81530 0.51520 -0.00900
C 	C 	0.99660 0.88350 0.50360 -0.12900
H 	H 	0.97690 0.88190 0.46340 0.08500
C 	C 	0.78030 0.15200 0.60780 0.04700
H 	H 	0.80050 0.15670 0.64790 -0.01700
C 	C 	0.29010 0.72710 0.91240 0.10400
C 	C 	0.96680 0.92640 0.53310 0.06400
C 	C 	0.82080 0.95620 0.31850 -0.13200
H 	H 	0.86480 0.93830 0.33840 0.08100
C 	C 	0.25670 0.73770 0.84860 0.05600
C 	C 	0.47380 0.83550 0.00020 -0.13700
H 	H 	0.45650 0.83070 0.96030 0.07400
C 	C 	0.81770 0.05190 0.49330 0.09500
C 	C 	0.81980 0.00200 0.41190 0.09600
C 	C 	0.78460 0.10140 0.52250 0.04900
C 	C 	0.81390 0.10940 0.58140 -0.12200
H 	H 	0.85580 0.08660 0.60340 0.07500
C 	C 	0.52640 0.85470 0.11580 0.05700
H 	H 	0.54370 0.86260 0.15560 -0.01300
C 	C 	0.17430 0.54080 0.02600 0.07400
H 	H 	0.13220 0.51760 0.00570 -0.00800
C 	C 	0.53300 0.87550 0.03050 0.06000
H 	H 	0.55540 0.89720 0.01010 -0.01400
C 	C 	0.69170 0.17960 0.52040 0.05900
H 	H 	0.65010 0.20370 0.49930 -0.00400
C 	C 	0.29440 0.67240 0.99480 0.10600
C 	C 	0.26420 0.62090 0.02540 0.06100
C 	C 	0.69270 0.00490 0.25730 0.06900
H 	H 	0.64840 0.02140 0.23650 -0.02200
C 	C 	0.29630 0.61030 0.08500 -0.12400
H 	H 	0.33810 0.63350 0.10640 0.08200
C 	C 	0.99770 0.92670 0.59290 -0.13400
H 	H 	0.97950 0.95570 0.61400 0.07900
C 	C 	0.78770 0.99240 0.34810 0.05300
C 	C 	0.28420 0.78930 0.82190 -0.13000
H 	H 	0.32230 0.81960 0.84370 0.06900
C 	C 	0.72190 0.01680 0.31660 -0.13900
H 	H 	0.69780 0.04060 0.33480 0.07400
C 	C 	0.05620 0.88300 0.62030 0.07800
H 	H 	0.07600 0.88190 0.66050 -0.00300
C 	C 	0.19770 0.69740 0.81500 -0.13100
H 	H 	0.17640 0.66470 0.83180 0.08100
C 	C 	0.17130 0.70720 0.75570 0.07100
H 	H 	0.13180 0.67980 0.73300 -0.01400
C 	C 	0.25420 0.79530 0.76260 0.06500
H 	H 	0.27320 0.83000 0.74500 -0.01300
C 	C 	0.78790 0.94710 0.25970 0.07200
H 	H 	0.81090 0.92320 0.24050 -0.01100
N 	N 	0.56049 0.88510 0.08791 -0.20800
N 	N 	0.20452 0.53030 0.08330 -0.18800
N 	N 	0.19930 0.75370 0.72900 -0.19400
N 	N 	0.34676 0.76780 0.94061 -0.14300
N 	N 	0.35214 0.71020 0.02758 -0.13800
N 	N 	0.26176 0.67800 0.93718 -0.13800
N 	N 	0.08644 0.84210 0.59272 -0.18500
N 	N 	0.71970 0.18700 0.57836 -0.20000
N 	N 	0.72410 0.97120 0.22831 -0.19600
N 	N 	0.87724 0.96260 0.44139 -0.13700
N 	N 	0.87379 0.01140 0.52700 -0.14000
N 	N 	0.78841 0.04960 0.43525 -0.14800
Ag	Ag	0.15586 0.54227 0.63209 0.51000
Ag	Ag	0.67706 0.74777 0.13272 0.51300
C 	C 	0.87600 0.74270 0.49750 0.10000
C 	C 	0.22200 0.36230 0.99070 -0.11900
H 	H 	0.20110 0.36620 0.95070 0.07100
C 	C 	0.40240 0.53030 0.99910 0.10100
C 	C 	0.76510 0.93530 0.61170 0.07400
H 	H 	0.78720 0.94260 0.65150 -0.00500
C 	C 	0.70210 0.91560 0.49510 -0.12500
H 	H 	0.67970 0.91100 0.45510 0.08200
C 	C 	0.96670 0.68780 0.58890 -0.13400
H 	H 	0.94520 0.70920 0.61010 0.08000
C 	C 	0.94000 0.69760 0.52990 0.05800
C 	C 	0.55640 0.65690 0.03520 0.08000
H 	H 	0.57660 0.68470 0.01520 -0.00900
C 	C 	0.49660 0.61650 0.00360 -0.12900
H 	H 	0.47690 0.61810 0.96340 0.08500
C 	C 	0.28030 0.34800 0.10780 0.04600
H 	H 	0.30050 0.34330 0.14790 -0.01600
C 	C 	0.79010 0.77290 0.41240 0.10400
C 	C 	0.46680 0.57360 0.03310 0.06300
C 	C 	0.32080 0.54380 0.81850 -0.13200
H 	H 	0.36480 0.56170 0.83840 0.08100
C 	C 	0.75670 0.76230 0.34860 0.05600
C 	C 	0.97380 0.66450 0.50020 -0.13700
H 	H 	0.95650 0.66930 0.46030 0.07400
C 	C 	0.31770 0.44810 0.99330 0.09600
C 	C 	0.31980 0.49800 0.91190 0.09600
C 	C 	0.28460 0.39860 0.02250 0.04600
C 	C 	0.31390 0.39060 0.08140 -0.12000
H 	H 	0.35580 0.41340 0.10340 0.07400
C 	C 	0.02640 0.64530 0.61580 0.05800
H 	H 	0.04370 0.63740 0.65560 -0.01300
C 	C 	0.67430 0.95920 0.52600 0.07700
H 	H 	0.63220 0.98240 0.50570 -0.00800
C 	C 	0.03300 0.62450 0.53050 0.06000
H 	H 	0.05540 0.60280 0.51010 -0.01300
C 	C 	0.19170 0.32040 0.02040 0.05500
H 	H 	0.15010 0.29630 0.99930 -0.00200
C 	C 	0.79440 0.82760 0.49480 0.10400
C 	C 	0.76420 0.87910 0.52540 0.06400
C 	C 	0.19270 0.49510 0.75730 0.06900
H 	H 	0.14840 0.47860 0.73650 -0.02200
C 	C 	0.79630 0.88970 0.58500 -0.12600
H 	H 	0.83810 0.86650 0.60640 0.08300
C 	C 	0.49770 0.57330 0.09290 -0.13300
H 	H 	0.47950 0.54430 0.11400 0.07900
C 	C 	0.28770 0.50760 0.84810 0.05300
C 	C 	0.78420 0.71070 0.32190 -0.13000
H 	H 	0.82230 0.68040 0.34370 0.06900
C 	C 	0.22190 0.48320 0.81660 -0.14000
H 	H 	0.19780 0.45940 0.83480 0.07400
C 	C 	0.55620 0.61700 0.12030 0.07800
H 	H 	0.57600 0.61810 0.16050 -0.00300
C 	C 	0.69770 0.80260 0.31500 -0.13100
H 	H 	0.67640 0.83530 0.33180 0.08100
C 	C 	0.67130 0.79280 0.25570 0.07100
H 	H 	0.63180 0.82020 0.23300 -0.01400
C 	C 	0.75420 0.70470 0.26260 0.06500
H 	H 	0.77320 0.67000 0.24500 -0.01300
C 	C 	0.28790 0.55290 0.75970 0.07200
H 	H 	0.31090 0.57680 0.74050 -0.01100
N 	N 	0.06049 0.61490 0.58791 -0.20800
N 	N 	0.70452 0.96970 0.58330 -0.18800
N 	N 	0.69930 0.74630 0.22900 -0.19400
N 	N 	0.84676 0.73220 0.44061 -0.14300
N 	N 	0.85214 0.78980 0.52758 -0.13800
N 	N 	0.76176 0.82200 0.43718 -0.13800
N 	N 	0.58644 0.65790 0.09272 -0.18500
N 	N 	0.21970 0.31300 0.07836 -0.19900
N 	N 	0.22410 0.52880 0.72831 -0.19600
N 	N 	0.37724 0.53740 0.94139 -0.13700
N 	N 	0.37379 0.48860 0.02700 -0.14100
N 	N 	0.28841 0.45040 0.93525 -0.14800
Ag	Ag	0.65586 0.04227 0.63209 0.51000
Ag	Ag	0.17706 0.24777 0.13272 0.51300
C 	C 	0.37600 0.24270 0.49750 0.10000
C 	C 	0.72200 0.86230 0.99070 -0.12600
H 	H 	0.70110 0.86620 0.95070 0.07300
C 	C 	0.90240 0.03030 0.99910 0.09900
C 	C 	0.26510 0.43530 0.61170 0.07400
H 	H 	0.28720 0.44260 0.65150 -0.00500
C 	C 	0.20210 0.41560 0.49510 -0.12500
H 	H 	0.17970 0.41100 0.45510 0.08200
C 	C 	0.46670 0.18780 0.58890 -0.13300
H 	H 	0.44520 0.20920 0.61010 0.08000
C 	C 	0.44000 0.19760 0.52990 0.05700
C 	C 	0.05640 0.15690 0.03520 0.07600
H 	H 	0.07660 0.18470 0.01520 -0.00800
C 	C 	0.99660 0.11650 0.00360 -0.12300
H 	H 	0.97690 0.11810 0.96340 0.08200
C 	C 	0.78030 0.84800 0.10780 0.04800
H 	H 	0.80050 0.84330 0.14790 -0.01700
C 	C 	0.29010 0.27290 0.41240 0.10400
C 	C 	0.96680 0.07360 0.03310 0.06200
C 	C 	0.82080 0.04380 0.81850 -0.13200
H 	H 	0.86480 0.06170 0.83840 0.08000
C 	C 	0.25670 0.26230 0.34860 0.05600
C 	C 	0.47380 0.16450 0.50020 -0.13600
H 	H 	0.45650 0.16930 0.46030 0.07400
C 	C 	0.81770 0.94810 0.99330 0.09300
C 	C 	0.81980 0.99800 0.91190 0.09600
C 	C 	0.78460 0.89860 0.02250 0.05200
C 	C 	0.81390 0.89060 0.08140 -0.12300
H 	H 	0.85580 0.91340 0.10340 0.07600
C 	C 	0.52640 0.14530 0.61580 0.05700
H 	H 	0.54370 0.13740 0.65560 -0.01300
C 	C 	0.17430 0.45920 0.52600 0.07700
H 	H 	0.13220 0.48240 0.50570 -0.00800
C 	C 	0.53300 0.12450 0.53050 0.06000
H 	H 	0.55540 0.10280 0.51010 -0.01300
C 	C 	0.69170 0.82040 0.02040 0.06200
H 	H 	0.65010 0.79630 0.99930 -0.00500
C 	C 	0.29440 0.32760 0.49480 0.10400
C 	C 	0.26420 0.37910 0.52540 0.06400
C 	C 	0.69270 0.99510 0.75730 0.06900
H 	H 	0.64840 0.97860 0.73650 -0.02200
C 	C 	0.29630 0.38970 0.58500 -0.12600
H 	H 	0.33810 0.36650 0.60640 0.08300
C 	C 	0.99770 0.07330 0.09290 -0.13000
H 	H 	0.97950 0.04430 0.11400 0.07900
C 	C 	0.78770 0.00760 0.84810 0.05300
C 	C 	0.28420 0.21070 0.32190 -0.13000
H 	H 	0.32230 0.18040 0.34370 0.06900
C 	C 	0.72190 0.98320 0.81660 -0.13900
H 	H 	0.69780 0.95940 0.83480 0.07400
C 	C 	0.05620 0.11700 0.12030 0.07500
H 	H 	0.07600 0.11810 0.16050 -0.00200
C 	C 	0.19770 0.30260 0.31500 -0.13100
H 	H 	0.17640 0.33530 0.33180 0.08100
C 	C 	0.17130 0.29280 0.25570 0.07100
H 	H 	0.13180 0.32020 0.23300 -0.01400
C 	C 	0.25420 0.20470 0.26260 0.06500
H 	H 	0.27320 0.17000 0.24500 -0.01300
C 	C 	0.78790 0.05290 0.75970 0.07200
H 	H 	0.81090 0.07680 0.74050 -0.01100
N 	N 	0.56049 0.11490 0.58791 -0.20800
N 	N 	0.20452 0.46970 0.58330 -0.18800
N 	N 	0.19930 0.24630 0.22900 -0.19400
N 	N 	0.34676 0.23220 0.44061 -0.14300
N 	N 	0.35214 0.28980 0.52758 -0.13800
N 	N 	0.26176 0.32200 0.43718 -0.13800
N 	N 	0.08644 0.15790 0.09272 -0.18400
N 	N 	0.71970 0.81300 0.07836 -0.20100
N 	N 	0.72410 0.02880 0.72831 -0.19600
N 	N 	0.87724 0.03740 0.94139 -0.13700
N 	N 	0.87379 0.98860 0.02700 -0.13900
N 	N 	0.78841 0.95040 0.93525 -0.14800
Ag	Ag	0.84414 0.54227 0.86791 0.51000
Ag	Ag	0.32294 0.74777 0.36728 0.51300
C 	C 	0.12400 0.74270 0.00250 0.09800
C 	C 	0.77800 0.36230 0.50930 -0.12300
H 	H 	0.79890 0.36620 0.54930 0.07200
C 	C 	0.59760 0.53030 0.50090 0.10100
C 	C 	0.23490 0.93530 0.88830 0.07500
H 	H 	0.21280 0.94260 0.84850 -0.00500
C 	C 	0.29790 0.91560 0.00490 -0.13000
H 	H 	0.32030 0.91100 0.04490 0.08400
C 	C 	0.03330 0.68780 0.91110 -0.13000
H 	H 	0.05480 0.70920 0.88990 0.07900
C 	C 	0.06000 0.69760 0.97010 0.05600
C 	C 	0.44360 0.65690 0.46480 0.08000
H 	H 	0.42340 0.68470 0.48480 -0.00900
C 	C 	0.50340 0.61650 0.49640 -0.12900
H 	H 	0.52310 0.61810 0.53660 0.08400
C 	C 	0.71970 0.34800 0.39220 0.04700
H 	H 	0.69950 0.34330 0.35210 -0.01700
C 	C 	0.20990 0.77290 0.08760 0.10400
C 	C 	0.53320 0.57360 0.46690 0.06400
C 	C 	0.67920 0.54380 0.68150 -0.13200
H 	H 	0.63520 0.56170 0.66160 0.08100
C 	C 	0.24330 0.76230 0.15140 0.05600
C 	C 	0.02620 0.66450 0.99980 -0.13000
H 	H 	0.04350 0.66930 0.03970 0.07100
C 	C 	0.68230 0.44810 0.50670 0.09500
C 	C 	0.68020 0.49800 0.58810 0.09600
C 	C 	0.71540 0.39860 0.47750 0.04900
C 	C 	0.68610 0.39060 0.41860 -0.12200
H 	H 	0.64420 0.41340 0.39660 0.07500
C 	C 	0.97360 0.64530 0.88420 0.05500
H 	H 	0.95630 0.63740 0.84440 -0.01200
C 	C 	0.32570 0.95920 0.97400 0.08000
H 	H 	0.36780 0.98240 0.99430 -0.00900
C 	C 	0.96700 0.62450 0.96950 0.05500
H 	H 	0.94460 0.60280 0.98990 -0.01200
C 	C 	0.80830 0.32040 0.47960 0.05900
H 	H 	0.84990 0.29630 0.50070 -0.00400
C 	C 	0.20560 0.82760 0.00520 0.10200
C 	C 	0.23580 0.87910 0.97460 0.06800
C 	C 	0.80730 0.49510 0.74270 0.06900
H 	H 	0.85160 0.47860 0.76350 -0.02200
C 	C 	0.20370 0.88970 0.91500 -0.12800
H 	H 	0.16190 0.86650 0.89360 0.08300
C 	C 	0.50230 0.57330 0.40710 -0.13300
H 	H 	0.52050 0.54430 0.38600 0.07900
C 	C 	0.71230 0.50760 0.65190 0.05300
C 	C 	0.21580 0.71070 0.17810 -0.13100
H 	H 	0.17770 0.68040 0.15630 0.06900
C 	C 	0.77810 0.48320 0.68340 -0.14000
H 	H 	0.80220 0.45940 0.66520 0.07400
C 	C 	0.44380 0.61700 0.37970 0.07800
H 	H 	0.42400 0.61810 0.33950 -0.00300
C 	C 	0.30230 0.80260 0.18500 -0.13100
H 	H 	0.32360 0.83530 0.16820 0.08100
C 	C 	0.32870 0.79280 0.24430 0.07100
H 	H 	0.36820 0.82020 0.26700 -0.01400
C 	C 	0.24580 0.70470 0.23740 0.06500
H 	H 	0.22680 0.67000 0.25500 -0.01300
C 	C 	0.71210 0.55290 0.74030 0.07200
H 	H 	0.68910 0.57680 0.75950 -0.01100
N 	N 	0.93951 0.61490 0.91209 -0.20700
N 	N 	0.29548 0.96970 0.91670 -0.18900
N 	N 	0.30070 0.74630 0.27100 -0.19400
N 	N 	0.15324 0.73220 0.05939 -0.14300
N 	N 	0.14786 0.78980 0.97242 -0.13600
N 	N 	0.23824 0.82200 0.06282 -0.13800
N 	N 	0.41356 0.65790 0.40728 -0.18500
N 	N 	0.78030 0.31300 0.42164 -0.20000
N 	N 	0.77590 0.52880 0.77169 -0.19600
N 	N 	0.62276 0.53740 0.55861 -0.13700
N 	N 	0.62621 0.48860 0.47300 -0.14000
N 	N 	0.71159 0.45040 0.56475 -0.14800
Ag	Ag	0.34414 0.04227 0.86791 0.51000
Ag	Ag	0.82294 0.24777 0.36728 0.51300
C 	C 	0.62400 0.24270 0.00250 0.10000
C 	C 	0.27800 0.86230 0.50930 -0.12300
H 	H 	0.29890 0.86620 0.54930 0.07200
C 	C 	0.09760 0.03030 0.50090 0.10100
C 	C 	0.73490 0.43530 0.88830 0.07300
H 	H 	0.71280 0.44260 0.84850 -0.00500
C 	C 	0.79790 0.41560 0.00490 -0.12200
H 	H 	0.82030 0.41100 0.04490 0.08100
C 	C 	0.53330 0.18780 0.91110 -0.13300
H 	H 	0.55480 0.20920 0.88990 0.07900
C 	C 	0.56000 0.19760 0.97010 0.05700
C 	C 	0.94360 0.15690 0.46480 0.08000
H 	H 	0.92340 0.18470 0.48480 -0.00900
C 	C 	0.00340 0.11650 0.49640 -0.12900
H 	H 	0.02310 0.11810 0.53660 0.08500
C 	C 	0.21970 0.84800 0.39220 0.04700
H 	H 	0.19950 0.84330 0.35210 -0.01700
C 	C 	0.70990 0.27290 0.08760 0.10400
C 	C 	0.03320 0.07360 0.46690 0.06400
C 	C 	0.17920 0.04380 0.68150 -0.13200
H 	H 	0.13520 0.06170 0.66160 0.08100
C 	C 	0.74330 0.26230 0.15140 0.05600
C 	C 	0.52620 0.16450 0.99980 -0.13700
H 	H 	0.54350 0.16930 0.03970 0.07400
C 	C 	0.18230 0.94810 0.50670 0.09500
C 	C 	0.18020 0.99800 0.58810 0.09600
C 	C 	0.21540 0.89860 0.47750 0.04900
C 	C 	0.18610 0.89060 0.41860 -0.12200
H 	H 	0.14420 0.91340 0.39660 0.07500
C 	C 	0.47360 0.14530 0.88420 0.05700
H 	H 	0.45630 0.13740 0.84440 -0.01300
C 	C 	0.82570 0.45920 0.97400 0.07400
H 	H 	0.86780 0.48240 0.99430 -0.00800
C 	C 	0.46700 0.12450 0.96950 0.06000
H 	H 	0.44460 0.10280 0.98990 -0.01400
C 	C 	0.30830 0.82040 0.47960 0.05900
H 	H 	0.34990 0.79630 0.50070 -0.00400
C 	C 	0.70560 0.32760 0.00520 0.10600
C 	C 	0.73580 0.37910 0.97460 0.06100
C 	C 	0.30730 0.99510 0.74270 0.06900
H 	H 	0.35160 0.97860 0.76350 -0.02200
C 	C 	0.70370 0.38970 0.91500 -0.12400
H 	H 	0.66190 0.36650 0.89360 0.08200
C 	C 	0.00230 0.07330 0.40710 -0.13400
H 	H 	0.02050 0.04430 0.38600 0.07900
C 	C 	0.21230 0.00760 0.65190 0.05300
C 	C 	0.71580 0.21070 0.17810 -0.13000
H 	H 	0.67770 0.18040 0.15630 0.06900
C 	C 	0.27810 0.98320 0.68340 -0.13900
H 	H 	0.30220 0.95940 0.66520 0.07400
C 	C 	0.94380 0.11700 0.37970 0.07800
H 	H 	0.92400 0.11810 0.33950 -0.00300
C 	C 	0.80230 0.30260 0.18500 -0.13100
H 	H 	0.82360 0.33530 0.16820 0.08100
C 	C 	0.82870 0.29280 0.24430 0.07100
H 	H 	0.86820 0.32020 0.26700 -0.01400
C 	C 	0.74580 0.20470 0.23740 0.06500
H 	H 	0.72680 0.17000 0.25500 -0.01300
C 	C 	0.21210 0.05290 0.74030 0.07200
H 	H 	0.18910 0.07680 0.75950 -0.01100
N 	N 	0.43951 0.11490 0.91209 -0.20800
N 	N 	0.79548 0.46970 0.91670 -0.18800
N 	N 	0.80070 0.24630 0.27100 -0.19400
N 	N 	0.65324 0.23220 0.05939 -0.14300
N 	N 	0.64786 0.28980 0.97242 -0.13800
N 	N 	0.73824 0.32200 0.06282 -0.13800
N 	N 	0.91356 0.15790 0.40728 -0.18500
N 	N 	0.28030 0.81300 0.42164 -0.20000
N 	N 	0.27590 0.02880 0.77169 -0.19600
N 	N 	0.12276 0.03740 0.55861 -0.13700
N 	N 	0.12621 0.98860 0.47300 -0.14000
N 	N 	0.21159 0.95040 0.56475 -0.14800
