data_crystal

_cell_length_a 21.97770
_cell_length_b 16.61110
_cell_length_c 25.63440
_cell_angle_alpha 90.00000
_cell_angle_beta  115.35100
_cell_angle_gamma 90.00000

_symmetry_space_group_name_	'P 1'
_symmetry_space_group_name_H-M	'P 1'

loop_
_symmetry_equiv_pos_as_xyz
  x,y,z

loop_
_atom_site_label
_atom_site_type_symbol
_atom_site_fract_x
_atom_site_fract_y
_atom_site_fract_z
_atom_site_charge
Ag	Ag	0.77386 0.20904 0.36821 0.51100
Ag	Ag	0.29517 0.50170 0.86765 0.51400
C 	C 	0.15340 0.71990 0.00110 0.10300
C 	C 	0.92300 0.90020 0.89250 0.05200
H 	H 	0.90330 0.90500 0.85250 -0.01700
C 	C 	0.12810 0.50710 0.50240 0.10200
C 	C 	0.12790 0.56170 0.41110 -0.13200
H 	H 	0.08540 0.53970 0.38990 0.08000
C 	C 	0.90310 0.31690 0.38910 0.07600
H 	H 	0.88470 0.31110 0.34910 -0.00400
C 	C 	0.07530 0.80140 0.00700 0.09500
C 	C 	0.98230 0.88750 0.00950 -0.12400
H 	H 	0.00160 0.88480 0.04950 0.07100
C 	C 	0.15980 0.55270 0.47020 0.05700
C 	C 	0.24310 0.63370 0.99630 -0.12800
H 	H 	0.26370 0.63320 0.03650 0.08400
C 	C 	0.22290 0.58610 0.49930 -0.13800
H 	H 	0.24570 0.58130 0.53920 0.07400
C 	C 	0.15810 0.48570 0.65140 0.05900
C 	C 	0.12760 0.47600 0.58780 0.10000
C 	C 	0.27160 0.59280 0.96530 0.07700
H 	H 	0.31180 0.56540 0.98560 -0.00800
C 	C 	0.96090 0.36130 0.41550 -0.12600
H 	H 	0.98120 0.38390 0.39380 0.08200
C 	C 	0.18380 0.67550 0.96681 0.06500
C 	C 	0.19040 0.74260 0.15200 0.05400
C 	C 	0.95720 0.33410 0.50540 -0.12600
H 	H 	0.97500 0.33750 0.54540 0.08200
C 	C 	0.25270 0.70740 0.18100 -0.13100
H 	H 	0.27670 0.68970 0.16080 0.08000
C 	C 	0.25140 0.62660 0.46880 0.06300
H 	H 	0.29370 0.64930 0.48910 -0.01500
C 	C 	0.05010 0.42290 0.50540 0.10700
C 	C 	0.98240 0.85770 0.91860 -0.12600
H 	H 	0.00190 0.83440 0.89640 0.07700
C 	C 	0.15840 0.75220 0.08800 0.09700
C 	C 	0.27950 0.69850 0.24040 0.07000
H 	H 	0.32150 0.67440 0.25950 -0.01000
C 	C 	0.18670 0.75750 0.24280 0.07000
H 	H 	0.16380 0.77540 0.26380 -0.02300
C 	C 	0.15630 0.76750 0.18370 -0.14100
H 	H 	0.11380 0.79070 0.16550 0.07400
C 	C 	0.16050 0.60430 0.38400 0.05800
H 	H 	0.13830 0.61170 0.34430 -0.01300
C 	C 	0.21180 0.53730 0.67800 -0.13100
H 	H 	0.22780 0.56770 0.65610 0.07000
C 	C 	0.89900 0.29100 0.47460 0.08100
H 	H 	0.87760 0.26730 0.49510 -0.00900
C 	C 	0.24130 0.54340 0.73720 0.06200
H 	H 	0.27720 0.57880 0.75450 -0.01200
C 	C 	0.01270 0.85000 0.97790 0.05100
C 	C 	0.98900 0.37240 0.47510 0.06300
C 	C 	0.15540 0.67490 0.90740 -0.13300
H 	H 	0.11610 0.70350 0.88620 0.07900
C 	C 	0.92220 0.92910 0.97940 0.06100
H 	H 	0.90210 0.95410 0.00050 -0.00400
C 	C 	0.13370 0.44520 0.68530 -0.13600
H 	H 	0.09560 0.41300 0.66870 0.08300
C 	C 	0.16720 0.45360 0.74430 0.07700
H 	H 	0.15110 0.42460 0.76680 -0.01600
C 	C 	0.18630 0.63100 0.87980 0.07600
H 	H 	0.16570 0.62930 0.83970 -0.00300
N 	N 	0.87162 0.28130 0.41768 -0.18900
N 	N 	0.22200 0.63510 0.41183 -0.20800
N 	N 	0.22080 0.50030 0.77132 -0.19400
N 	N 	0.07450 0.46070 0.47287 -0.13900
N 	N 	0.15623 0.51750 0.55929 -0.14200
N 	N 	0.07486 0.42710 0.56287 -0.13800
N 	N 	0.24420 0.59050 0.90745 -0.18400
N 	N 	0.24680 0.72340 0.27139 -0.19500
N 	N 	0.89220 0.93500 0.92209 -0.20100
N 	N 	0.09769 0.76070 0.97311 -0.14100
N 	N 	0.18629 0.71260 0.05876 -0.13800
N 	N 	0.10390 0.79890 0.06457 -0.14900
Ag	Ag	0.27386 0.70904 0.36821 0.51000
Ag	Ag	0.79517 0.00170 0.86765 0.51300
C 	C 	0.65340 0.21990 0.00110 0.10300
C 	C 	0.42300 0.40020 0.89250 0.05000
H 	H 	0.40330 0.40500 0.85250 -0.01800
C 	C 	0.62810 0.00710 0.50240 0.10100
C 	C 	0.62790 0.06170 0.41110 -0.13300
H 	H 	0.58540 0.03970 0.38990 0.07900
C 	C 	0.40310 0.81690 0.38910 0.07500
H 	H 	0.38470 0.81110 0.34910 -0.00500
C 	C 	0.57530 0.30140 0.00700 0.09500
C 	C 	0.48230 0.38750 0.00950 -0.12600
H 	H 	0.50160 0.38480 0.04950 0.07300
C 	C 	0.65980 0.05270 0.47020 0.05700
C 	C 	0.74310 0.13370 0.99630 -0.13000
H 	H 	0.76370 0.13320 0.03650 0.08500
C 	C 	0.72290 0.08610 0.49930 -0.13800
H 	H 	0.74570 0.08130 0.53920 0.07400
C 	C 	0.65810 0.98570 0.65140 0.05900
C 	C 	0.62760 0.97600 0.58780 0.10000
C 	C 	0.77160 0.09280 0.96530 0.07800
H 	H 	0.81180 0.06540 0.98560 -0.00900
C 	C 	0.46090 0.86130 0.41550 -0.12600
H 	H 	0.48120 0.88390 0.39380 0.08200
C 	C 	0.68380 0.17550 0.96681 0.06400
C 	C 	0.69040 0.24260 0.15200 0.05400
C 	C 	0.45720 0.83410 0.50540 -0.12600
H 	H 	0.47500 0.83750 0.54540 0.08200
C 	C 	0.75270 0.20740 0.18100 -0.13100
H 	H 	0.77670 0.18970 0.16080 0.08000
C 	C 	0.75140 0.12660 0.46880 0.06300
H 	H 	0.79370 0.14930 0.48910 -0.01500
C 	C 	0.55010 0.92290 0.50540 0.10700
C 	C 	0.48240 0.35770 0.91860 -0.12300
H 	H 	0.50190 0.33440 0.89640 0.07500
C 	C 	0.65840 0.25220 0.08800 0.09700
C 	C 	0.77950 0.19850 0.24040 0.07000
H 	H 	0.82150 0.17440 0.25950 -0.01000
C 	C 	0.68670 0.25750 0.24280 0.07000
H 	H 	0.66380 0.27540 0.26380 -0.02300
C 	C 	0.65630 0.26750 0.18370 -0.14100
H 	H 	0.61380 0.29070 0.16550 0.07400
C 	C 	0.66050 0.10430 0.38400 0.05800
H 	H 	0.63830 0.11170 0.34430 -0.01300
C 	C 	0.71180 0.03730 0.67800 -0.13100
H 	H 	0.72780 0.06770 0.65610 0.07000
C 	C 	0.39900 0.79100 0.47460 0.08100
H 	H 	0.37760 0.76730 0.49510 -0.00900
C 	C 	0.74130 0.04340 0.73720 0.06200
H 	H 	0.77720 0.07880 0.75450 -0.01200
C 	C 	0.51270 0.35000 0.97790 0.04900
C 	C 	0.48900 0.87240 0.47510 0.06300
C 	C 	0.65540 0.17490 0.90740 -0.13300
H 	H 	0.61610 0.20350 0.88620 0.07900
C 	C 	0.42220 0.42910 0.97940 0.06400
H 	H 	0.40210 0.45410 0.00050 -0.00600
C 	C 	0.63370 0.94520 0.68530 -0.13600
H 	H 	0.59560 0.91300 0.66870 0.08300
C 	C 	0.66720 0.95360 0.74430 0.07700
H 	H 	0.65110 0.92460 0.76680 -0.01600
C 	C 	0.68630 0.13100 0.87980 0.07600
H 	H 	0.66570 0.12930 0.83970 -0.00300
N 	N 	0.37162 0.78130 0.41768 -0.18900
N 	N 	0.72200 0.13510 0.41183 -0.20800
N 	N 	0.72080 0.00030 0.77132 -0.19400
N 	N 	0.57450 0.96070 0.47287 -0.13900
N 	N 	0.65623 0.01750 0.55929 -0.14200
N 	N 	0.57486 0.92710 0.56287 -0.13800
N 	N 	0.74420 0.09050 0.90745 -0.18400
N 	N 	0.74680 0.22340 0.27139 -0.19500
N 	N 	0.39220 0.43500 0.92209 -0.20100
N 	N 	0.59769 0.26070 0.97311 -0.14200
N 	N 	0.68629 0.21260 0.05876 -0.13800
N 	N 	0.60390 0.29890 0.06457 -0.14900
Ag	Ag	0.22614 0.20904 0.13179 0.50900
Ag	Ag	0.70483 0.50170 0.63235 0.51300
C 	C 	0.84660 0.71990 0.49890 0.10300
C 	C 	0.07700 0.90020 0.60750 0.05000
H 	H 	0.09670 0.90500 0.64750 -0.01800
C 	C 	0.87190 0.50710 0.99760 0.09900
C 	C 	0.87210 0.56170 0.08890 -0.13300
H 	H 	0.91460 0.53970 0.11010 0.07900
C 	C 	0.09690 0.31690 0.11090 0.07400
H 	H 	0.11530 0.31110 0.15090 -0.00500
C 	C 	0.92470 0.80140 0.49300 0.09600
C 	C 	0.01770 0.88750 0.49050 -0.12600
H 	H 	0.99840 0.88480 0.45050 0.07200
C 	C 	0.84020 0.55270 0.02980 0.05800
C 	C 	0.75690 0.63370 0.50370 -0.12800
H 	H 	0.73630 0.63320 0.46350 0.08400
C 	C 	0.77710 0.58610 0.00070 -0.13700
H 	H 	0.75430 0.58130 0.96080 0.07300
C 	C 	0.84190 0.48570 0.84860 0.05900
C 	C 	0.87240 0.47600 0.91220 0.10000
C 	C 	0.72840 0.59280 0.53470 0.07700
H 	H 	0.68820 0.56540 0.51440 -0.00800
C 	C 	0.03910 0.36130 0.08450 -0.12500
H 	H 	0.01880 0.38390 0.10620 0.08200
C 	C 	0.81620 0.67550 0.53319 0.06400
C 	C 	0.80960 0.74260 0.34800 0.05400
C 	C 	0.04280 0.33410 0.99460 -0.12400
H 	H 	0.02500 0.33750 0.95460 0.08200
C 	C 	0.74730 0.70740 0.31900 -0.13100
H 	H 	0.72330 0.68970 0.33920 0.08000
C 	C 	0.74860 0.62660 0.03120 0.06300
H 	H 	0.70630 0.64930 0.01090 -0.01500
C 	C 	0.94990 0.42290 0.99460 0.10700
C 	C 	0.01760 0.85770 0.58140 -0.12300
H 	H 	0.99810 0.83440 0.60360 0.07500
C 	C 	0.84160 0.75220 0.41200 0.09700
C 	C 	0.72050 0.69850 0.25960 0.07000
H 	H 	0.67850 0.67440 0.24050 -0.01000
C 	C 	0.81330 0.75750 0.25720 0.07000
H 	H 	0.83620 0.77540 0.23620 -0.02300
C 	C 	0.84370 0.76750 0.31630 -0.14100
H 	H 	0.88620 0.79070 0.33450 0.07400
C 	C 	0.83950 0.60430 0.11600 0.05800
H 	H 	0.86170 0.61170 0.15570 -0.01300
C 	C 	0.78820 0.53730 0.82200 -0.13100
H 	H 	0.77220 0.56770 0.84390 0.07000
C 	C 	0.10100 0.29100 0.02540 0.07900
H 	H 	0.12240 0.26730 0.00490 -0.00900
C 	C 	0.75870 0.54340 0.76280 0.06200
H 	H 	0.72280 0.57880 0.74550 -0.01200
C 	C 	0.98730 0.85000 0.52210 0.04900
C 	C 	0.01100 0.37240 0.02490 0.06100
C 	C 	0.84460 0.67490 0.59260 -0.13300
H 	H 	0.88390 0.70350 0.61380 0.07900
C 	C 	0.07780 0.92910 0.52060 0.06300
H 	H 	0.09790 0.95410 0.49950 -0.00500
C 	C 	0.86630 0.44520 0.81470 -0.13600
H 	H 	0.90440 0.41300 0.83130 0.08300
C 	C 	0.83280 0.45360 0.75570 0.07700
H 	H 	0.84890 0.42460 0.73320 -0.01600
C 	C 	0.81370 0.63100 0.62020 0.07600
H 	H 	0.83430 0.62930 0.66030 -0.00300
N 	N 	0.12838 0.28130 0.08232 -0.18900
N 	N 	0.77800 0.63510 0.08817 -0.20800
N 	N 	0.77920 0.50030 0.72868 -0.19400
N 	N 	0.92550 0.46070 0.02713 -0.13900
N 	N 	0.84377 0.51750 0.94071 -0.14200
N 	N 	0.92514 0.42710 0.93713 -0.13800
N 	N 	0.75580 0.59050 0.59255 -0.18400
N 	N 	0.75320 0.72340 0.22861 -0.19500
N 	N 	0.10780 0.93500 0.57791 -0.20100
N 	N 	0.90231 0.76070 0.52689 -0.14200
N 	N 	0.81371 0.71260 0.44124 -0.13800
N 	N 	0.89610 0.79890 0.43543 -0.14900
Ag	Ag	0.72614 0.70904 0.13179 0.51000
Ag	Ag	0.20483 0.00170 0.63235 0.51300
C 	C 	0.34660 0.21990 0.49890 0.10300
C 	C 	0.57700 0.40020 0.60750 0.05000
H 	H 	0.59670 0.40500 0.64750 -0.01800
C 	C 	0.37190 0.00710 0.99760 0.10000
C 	C 	0.37210 0.06170 0.08890 -0.13300
H 	H 	0.41460 0.03970 0.11010 0.07900
C 	C 	0.59690 0.81690 0.11090 0.07500
H 	H 	0.61530 0.81110 0.15090 -0.00500
C 	C 	0.42470 0.30140 0.49300 0.09500
C 	C 	0.51770 0.38750 0.49050 -0.12600
H 	H 	0.49840 0.38480 0.45050 0.07200
C 	C 	0.34020 0.05270 0.02980 0.05800
C 	C 	0.25690 0.13370 0.50370 -0.12800
H 	H 	0.23630 0.13320 0.46350 0.08400
C 	C 	0.27710 0.08610 0.00070 -0.13900
H 	H 	0.25430 0.08130 0.96080 0.07400
C 	C 	0.34190 0.98570 0.84860 0.05900
C 	C 	0.37240 0.97600 0.91220 0.10000
C 	C 	0.22840 0.09280 0.53470 0.07700
H 	H 	0.18820 0.06540 0.51440 -0.00800
C 	C 	0.53910 0.86130 0.08450 -0.12600
H 	H 	0.51880 0.88390 0.10620 0.08200
C 	C 	0.31620 0.17550 0.53319 0.06400
C 	C 	0.30960 0.24260 0.34800 0.05400
C 	C 	0.54280 0.83410 0.99460 -0.12600
H 	H 	0.52500 0.83750 0.95460 0.08200
C 	C 	0.24730 0.20740 0.31900 -0.13100
H 	H 	0.22330 0.18970 0.33920 0.08000
C 	C 	0.24860 0.12660 0.03120 0.06300
H 	H 	0.20630 0.14930 0.01090 -0.01500
C 	C 	0.44990 0.92290 0.99460 0.10700
C 	C 	0.51760 0.35770 0.58140 -0.12300
H 	H 	0.49810 0.33440 0.60360 0.07500
C 	C 	0.34160 0.25220 0.41200 0.09700
C 	C 	0.22050 0.19850 0.25960 0.07000
H 	H 	0.17850 0.17440 0.24050 -0.01000
C 	C 	0.31330 0.25750 0.25720 0.07000
H 	H 	0.33620 0.27540 0.23620 -0.02300
C 	C 	0.34370 0.26750 0.31630 -0.14100
H 	H 	0.38620 0.29070 0.33450 0.07400
C 	C 	0.33950 0.10430 0.11600 0.05800
H 	H 	0.36170 0.11170 0.15570 -0.01300
C 	C 	0.28820 0.03730 0.82200 -0.13100
H 	H 	0.27220 0.06770 0.84390 0.07000
C 	C 	0.60100 0.79100 0.02540 0.08100
H 	H 	0.62240 0.76730 0.00490 -0.00900
C 	C 	0.25870 0.04340 0.76280 0.06200
H 	H 	0.22280 0.07880 0.74550 -0.01200
C 	C 	0.48730 0.35000 0.52210 0.04900
C 	C 	0.51100 0.87240 0.02490 0.06300
C 	C 	0.34460 0.17490 0.59260 -0.13300
H 	H 	0.38390 0.20350 0.61380 0.07900
C 	C 	0.57780 0.42910 0.52060 0.06300
H 	H 	0.59790 0.45410 0.49950 -0.00600
C 	C 	0.36630 0.94520 0.81470 -0.13700
H 	H 	0.40440 0.91300 0.83130 0.08300
C 	C 	0.33280 0.95360 0.75570 0.07700
H 	H 	0.34890 0.92460 0.73320 -0.01600
C 	C 	0.31370 0.13100 0.62020 0.07600
H 	H 	0.33430 0.12930 0.66030 -0.00300
N 	N 	0.62838 0.78130 0.08232 -0.18900
N 	N 	0.27800 0.13510 0.08817 -0.20800
N 	N 	0.27920 0.00030 0.72868 -0.19400
N 	N 	0.42550 0.96070 0.02713 -0.14000
N 	N 	0.34377 0.01750 0.94071 -0.14200
N 	N 	0.42514 0.92710 0.93713 -0.13800
N 	N 	0.25580 0.09050 0.59255 -0.18400
N 	N 	0.25320 0.22340 0.22861 -0.19500
N 	N 	0.60780 0.43500 0.57791 -0.20100
N 	N 	0.40231 0.26070 0.52689 -0.14200
N 	N 	0.31371 0.21260 0.44124 -0.13800
N 	N 	0.39610 0.29890 0.43543 -0.14900
Ag	Ag	0.22614 0.79096 0.63179 0.51000
Ag	Ag	0.70483 0.49830 0.13235 0.51300
C 	C 	0.84660 0.28010 0.99890 0.10200
C 	C 	0.07700 0.09980 0.10750 0.05100
H 	H 	0.09670 0.09500 0.14750 -0.01800
C 	C 	0.87190 0.49290 0.49760 0.10100
C 	C 	0.87210 0.43830 0.58890 -0.13300
H 	H 	0.91460 0.46030 0.61010 0.07900
C 	C 	0.09690 0.68310 0.61090 0.07500
H 	H 	0.11530 0.68890 0.65090 -0.00500
C 	C 	0.92470 0.19860 0.99300 0.09400
C 	C 	0.01770 0.11250 0.99050 -0.12500
H 	H 	0.99840 0.11520 0.95050 0.07100
C 	C 	0.84020 0.44730 0.52980 0.05700
C 	C 	0.75690 0.36630 0.00370 -0.12800
H 	H 	0.73630 0.36680 0.96350 0.08400
C 	C 	0.77710 0.41390 0.50070 -0.13800
H 	H 	0.75430 0.41870 0.46080 0.07400
C 	C 	0.84190 0.51430 0.34860 0.05900
C 	C 	0.87240 0.52400 0.41220 0.10000
C 	C 	0.72840 0.40720 0.03470 0.07700
H 	H 	0.68820 0.43460 0.01440 -0.00800
C 	C 	0.03910 0.63870 0.58450 -0.12600
H 	H 	0.01880 0.61610 0.60620 0.08200
C 	C 	0.81620 0.32450 0.03319 0.06500
C 	C 	0.80960 0.25740 0.84800 0.05400
C 	C 	0.04280 0.66590 0.49460 -0.12600
H 	H 	0.02500 0.66250 0.45460 0.08200
C 	C 	0.74730 0.29260 0.81900 -0.13100
H 	H 	0.72330 0.31030 0.83920 0.08000
C 	C 	0.74860 0.37340 0.53120 0.06300
H 	H 	0.70630 0.35070 0.51090 -0.01500
C 	C 	0.94990 0.57710 0.49460 0.10700
C 	C 	0.01760 0.14230 0.08140 -0.12600
H 	H 	0.99810 0.16560 0.10360 0.07700
C 	C 	0.84160 0.24780 0.91200 0.09700
C 	C 	0.72050 0.30150 0.75960 0.07000
H 	H 	0.67850 0.32560 0.74050 -0.01000
C 	C 	0.81330 0.24250 0.75720 0.07000
H 	H 	0.83620 0.22460 0.73620 -0.02300
C 	C 	0.84370 0.23250 0.81630 -0.14100
H 	H 	0.88620 0.20930 0.83450 0.07400
C 	C 	0.83950 0.39570 0.61600 0.05800
H 	H 	0.86170 0.38830 0.65570 -0.01300
C 	C 	0.78820 0.46270 0.32200 -0.13100
H 	H 	0.77220 0.43230 0.34390 0.07000
C 	C 	0.10100 0.70900 0.52540 0.08100
H 	H 	0.12240 0.73270 0.50490 -0.00900
C 	C 	0.75870 0.45660 0.26280 0.06200
H 	H 	0.72280 0.42120 0.24550 -0.01200
C 	C 	0.98730 0.15000 0.02210 0.05100
C 	C 	0.01100 0.62760 0.52490 0.06300
C 	C 	0.84460 0.32510 0.09260 -0.13300
H 	H 	0.88390 0.29650 0.11380 0.07900
C 	C 	0.07780 0.07090 0.02060 0.06100
H 	H 	0.09790 0.04590 0.99950 -0.00400
C 	C 	0.86630 0.55480 0.31470 -0.13600
H 	H 	0.90440 0.58700 0.33130 0.08300
C 	C 	0.83280 0.54640 0.25570 0.07700
H 	H 	0.84890 0.57540 0.23320 -0.01600
C 	C 	0.81370 0.36900 0.12020 0.07600
H 	H 	0.83430 0.37070 0.16030 -0.00300
N 	N 	0.12838 0.71870 0.58232 -0.18900
N 	N 	0.77800 0.36490 0.58817 -0.20800
N 	N 	0.77920 0.49970 0.22868 -0.19400
N 	N 	0.92550 0.53930 0.52713 -0.13900
N 	N 	0.84377 0.48250 0.44071 -0.14200
N 	N 	0.92514 0.57290 0.43713 -0.13800
N 	N 	0.75580 0.40950 0.09255 -0.18400
N 	N 	0.75320 0.27660 0.72861 -0.19500
N 	N 	0.10780 0.06500 0.07791 -0.20100
N 	N 	0.90231 0.23930 0.02689 -0.14100
N 	N 	0.81371 0.28740 0.94124 -0.13800
N 	N 	0.89610 0.20110 0.93543 -0.14900
Ag	Ag	0.72614 0.29096 0.63179 0.51000
Ag	Ag	0.20483 0.99830 0.13235 0.51300
C 	C 	0.34660 0.78010 0.99890 0.10300
C 	C 	0.57700 0.59980 0.10750 0.05000
H 	H 	0.59670 0.59500 0.14750 -0.01800
C 	C 	0.37190 0.99290 0.49760 0.10100
C 	C 	0.37210 0.93830 0.58890 -0.13300
H 	H 	0.41460 0.96030 0.61010 0.07900
C 	C 	0.59690 0.18310 0.61090 0.07500
H 	H 	0.61530 0.18890 0.65090 -0.00500
C 	C 	0.42470 0.69860 0.99300 0.09500
C 	C 	0.51770 0.61250 0.99050 -0.12600
H 	H 	0.49840 0.61520 0.95050 0.07300
C 	C 	0.34020 0.94730 0.52980 0.05700
C 	C 	0.25690 0.86630 0.00370 -0.13000
H 	H 	0.23630 0.86680 0.96350 0.08500
C 	C 	0.27710 0.91390 0.50070 -0.13800
H 	H 	0.25430 0.91870 0.46080 0.07400
C 	C 	0.34190 0.01430 0.34860 0.05900
C 	C 	0.37240 0.02400 0.41220 0.10000
C 	C 	0.22840 0.90720 0.03470 0.07800
H 	H 	0.18820 0.93460 0.01440 -0.00900
C 	C 	0.53910 0.13870 0.58450 -0.12600
H 	H 	0.51880 0.11610 0.60620 0.08200
C 	C 	0.31620 0.82450 0.03319 0.06400
C 	C 	0.30960 0.75740 0.84800 0.05400
C 	C 	0.54280 0.16590 0.49460 -0.12600
H 	H 	0.52500 0.16250 0.45460 0.08200
C 	C 	0.24730 0.79260 0.81900 -0.13100
H 	H 	0.22330 0.81030 0.83920 0.08000
C 	C 	0.24860 0.87340 0.53120 0.06300
H 	H 	0.20630 0.85070 0.51090 -0.01500
C 	C 	0.44990 0.07710 0.49460 0.10700
C 	C 	0.51760 0.64230 0.08140 -0.12300
H 	H 	0.49810 0.66560 0.10360 0.07500
C 	C 	0.34160 0.74780 0.91200 0.09700
C 	C 	0.22050 0.80150 0.75960 0.07000
H 	H 	0.17850 0.82560 0.74050 -0.01000
C 	C 	0.31330 0.74250 0.75720 0.07000
H 	H 	0.33620 0.72460 0.73620 -0.02300
C 	C 	0.34370 0.73250 0.81630 -0.14100
H 	H 	0.38620 0.70930 0.83450 0.07400
C 	C 	0.33950 0.89570 0.61600 0.05800
H 	H 	0.36170 0.88830 0.65570 -0.01300
C 	C 	0.28820 0.96270 0.32200 -0.13100
H 	H 	0.27220 0.93230 0.34390 0.07000
C 	C 	0.60100 0.20900 0.52540 0.08100
H 	H 	0.62240 0.23270 0.50490 -0.00900
C 	C 	0.25870 0.95660 0.26280 0.06200
H 	H 	0.22280 0.92120 0.24550 -0.01200
C 	C 	0.48730 0.65000 0.02210 0.04900
C 	C 	0.51100 0.12760 0.52490 0.06300
C 	C 	0.34460 0.82510 0.09260 -0.13300
H 	H 	0.38390 0.79650 0.11380 0.07900
C 	C 	0.57780 0.57090 0.02060 0.06400
H 	H 	0.59790 0.54590 0.99950 -0.00600
C 	C 	0.36630 0.05480 0.31470 -0.13600
H 	H 	0.40440 0.08700 0.33130 0.08300
C 	C 	0.33280 0.04640 0.25570 0.07700
H 	H 	0.34890 0.07540 0.23320 -0.01600
C 	C 	0.31370 0.86900 0.12020 0.07600
H 	H 	0.33430 0.87070 0.16030 -0.00300
N 	N 	0.62838 0.21870 0.58232 -0.18900
N 	N 	0.27800 0.86490 0.58817 -0.20800
N 	N 	0.27920 0.99970 0.22868 -0.19400
N 	N 	0.42550 0.03930 0.52713 -0.13900
N 	N 	0.34377 0.98250 0.44071 -0.14200
N 	N 	0.42514 0.07290 0.43713 -0.13800
N 	N 	0.25580 0.90950 0.09255 -0.18400
N 	N 	0.25320 0.77660 0.72861 -0.19500
N 	N 	0.60780 0.56500 0.07791 -0.20100
N 	N 	0.40231 0.73930 0.02689 -0.14200
N 	N 	0.31371 0.78740 0.94124 -0.13800
N 	N 	0.39610 0.70110 0.93543 -0.14900
Ag	Ag	0.77386 0.79096 0.86821 0.50900
Ag	Ag	0.29517 0.49830 0.36765 0.51300
C 	C 	0.15340 0.28010 0.50110 0.10300
C 	C 	0.92300 0.09980 0.39250 0.05000
H 	H 	0.90330 0.09500 0.35250 -0.01800
C 	C 	0.12810 0.49290 0.00240 0.09900
C 	C 	0.12790 0.43830 0.91110 -0.13300
H 	H 	0.08540 0.46030 0.88990 0.07900
C 	C 	0.90310 0.68310 0.88910 0.07400
H 	H 	0.88470 0.68890 0.84910 -0.00500
C 	C 	0.07530 0.19860 0.50700 0.09600
C 	C 	0.98230 0.11250 0.50950 -0.12600
H 	H 	0.00160 0.11520 0.54950 0.07200
C 	C 	0.15980 0.44730 0.97020 0.05800
C 	C 	0.24310 0.36630 0.49630 -0.12800
H 	H 	0.26370 0.36680 0.53650 0.08400
C 	C 	0.22290 0.41390 0.99930 -0.13700
H 	H 	0.24570 0.41870 0.03920 0.07300
C 	C 	0.15810 0.51430 0.15140 0.05900
C 	C 	0.12760 0.52400 0.08780 0.10000
C 	C 	0.27160 0.40720 0.46530 0.07700
H 	H 	0.31180 0.43460 0.48560 -0.00800
C 	C 	0.96090 0.63870 0.91550 -0.12500
H 	H 	0.98120 0.61610 0.89380 0.08200
C 	C 	0.18380 0.32450 0.46681 0.06400
C 	C 	0.19040 0.25740 0.65200 0.05400
C 	C 	0.95720 0.66590 0.00540 -0.12400
H 	H 	0.97500 0.66250 0.04540 0.08200
C 	C 	0.25270 0.29260 0.68100 -0.13100
H 	H 	0.27670 0.31030 0.66080 0.08000
C 	C 	0.25140 0.37340 0.96880 0.06300
H 	H 	0.29370 0.35070 0.98910 -0.01500
C 	C 	0.05010 0.57710 0.00540 0.10700
C 	C 	0.98240 0.14230 0.41860 -0.12300
H 	H 	0.00190 0.16560 0.39640 0.07500
C 	C 	0.15840 0.24780 0.58800 0.09700
C 	C 	0.27950 0.30150 0.74040 0.07000
H 	H 	0.32150 0.32560 0.75950 -0.01000
C 	C 	0.18670 0.24250 0.74280 0.07000
H 	H 	0.16380 0.22460 0.76380 -0.02300
C 	C 	0.15630 0.23250 0.68370 -0.14100
H 	H 	0.11380 0.20930 0.66550 0.07400
C 	C 	0.16050 0.39570 0.88400 0.05800
H 	H 	0.13830 0.38830 0.84430 -0.01300
C 	C 	0.21180 0.46270 0.17800 -0.13100
H 	H 	0.22780 0.43230 0.15610 0.07000
C 	C 	0.89900 0.70900 0.97460 0.07900
H 	H 	0.87760 0.73270 0.99510 -0.00900
C 	C 	0.24130 0.45660 0.23720 0.06200
H 	H 	0.27720 0.42120 0.25450 -0.01200
C 	C 	0.01270 0.15000 0.47790 0.04900
C 	C 	0.98900 0.62760 0.97510 0.06100
C 	C 	0.15540 0.32510 0.40740 -0.13300
H 	H 	0.11610 0.29650 0.38620 0.07900
C 	C 	0.92220 0.07090 0.47940 0.06300
H 	H 	0.90210 0.04590 0.50050 -0.00500
C 	C 	0.13370 0.55480 0.18530 -0.13600
H 	H 	0.09560 0.58700 0.16870 0.08300
C 	C 	0.16720 0.54640 0.24430 0.07700
H 	H 	0.15110 0.57540 0.26680 -0.01600
C 	C 	0.18630 0.36900 0.37980 0.07600
H 	H 	0.16570 0.37070 0.33970 -0.00300
N 	N 	0.87162 0.71870 0.91768 -0.18900
N 	N 	0.22200 0.36490 0.91183 -0.20800
N 	N 	0.22080 0.49970 0.27132 -0.19400
N 	N 	0.07450 0.53930 0.97287 -0.13900
N 	N 	0.15623 0.48250 0.05929 -0.14200
N 	N 	0.07486 0.57290 0.06287 -0.13800
N 	N 	0.24420 0.40950 0.40745 -0.18400
N 	N 	0.24680 0.27660 0.77139 -0.19500
N 	N 	0.89220 0.06500 0.42209 -0.20100
N 	N 	0.09769 0.23930 0.47311 -0.14200
N 	N 	0.18629 0.28740 0.55876 -0.13800
N 	N 	0.10390 0.20110 0.56457 -0.14900
Ag	Ag	0.27386 0.29096 0.86821 0.51000
Ag	Ag	0.79517 0.99830 0.36765 0.51300
C 	C 	0.65340 0.78010 0.50110 0.10300
C 	C 	0.42300 0.59980 0.39250 0.05000
H 	H 	0.40330 0.59500 0.35250 -0.01800
C 	C 	0.62810 0.99290 0.00240 0.10000
C 	C 	0.62790 0.93830 0.91110 -0.13300
H 	H 	0.58540 0.96030 0.88990 0.07900
C 	C 	0.40310 0.18310 0.88910 0.07500
H 	H 	0.38470 0.18890 0.84910 -0.00500
C 	C 	0.57530 0.69860 0.50700 0.09500
C 	C 	0.48230 0.61250 0.50950 -0.12600
H 	H 	0.50160 0.61520 0.54950 0.07200
C 	C 	0.65980 0.94730 0.97020 0.05800
C 	C 	0.74310 0.86630 0.49630 -0.12800
H 	H 	0.76370 0.86680 0.53650 0.08400
C 	C 	0.72290 0.91390 0.99930 -0.13900
H 	H 	0.74570 0.91870 0.03920 0.07400
C 	C 	0.65810 0.01430 0.15140 0.05900
C 	C 	0.62760 0.02400 0.08780 0.10000
C 	C 	0.77160 0.90720 0.46530 0.07700
H 	H 	0.81180 0.93460 0.48560 -0.00800
C 	C 	0.46090 0.13870 0.91550 -0.12600
H 	H 	0.48120 0.11610 0.89380 0.08200
C 	C 	0.68380 0.82450 0.46681 0.06400
C 	C 	0.69040 0.75740 0.65200 0.05400
C 	C 	0.45720 0.16590 0.00540 -0.12600
H 	H 	0.47500 0.16250 0.04540 0.08200
C 	C 	0.75270 0.79260 0.68100 -0.13100
H 	H 	0.77670 0.81030 0.66080 0.08000
C 	C 	0.75140 0.87340 0.96880 0.06300
H 	H 	0.79370 0.85070 0.98910 -0.01500
C 	C 	0.55010 0.07710 0.00540 0.10700
C 	C 	0.48240 0.64230 0.41860 -0.12300
H 	H 	0.50190 0.66560 0.39640 0.07500
C 	C 	0.65840 0.74780 0.58800 0.09700
C 	C 	0.77950 0.80150 0.74040 0.07000
H 	H 	0.82150 0.82560 0.75950 -0.01000
C 	C 	0.68670 0.74250 0.74280 0.07000
H 	H 	0.66380 0.72460 0.76380 -0.02300
C 	C 	0.65630 0.73250 0.68370 -0.14100
H 	H 	0.61380 0.70930 0.66550 0.07400
C 	C 	0.66050 0.89570 0.88400 0.05800
H 	H 	0.63830 0.88830 0.84430 -0.01300
C 	C 	0.71180 0.96270 0.17800 -0.13100
H 	H 	0.72780 0.93230 0.15610 0.07000
C 	C 	0.39900 0.20900 0.97460 0.08100
H 	H 	0.37760 0.23270 0.99510 -0.00900
C 	C 	0.74130 0.95660 0.23720 0.06200
H 	H 	0.77720 0.92120 0.25450 -0.01200
C 	C 	0.51270 0.65000 0.47790 0.04900
C 	C 	0.48900 0.12760 0.97510 0.06300
C 	C 	0.65540 0.82510 0.40740 -0.13300
H 	H 	0.61610 0.79650 0.38620 0.07900
C 	C 	0.42220 0.57090 0.47940 0.06300
H 	H 	0.40210 0.54590 0.50050 -0.00600
C 	C 	0.63370 0.05480 0.18530 -0.13700
H 	H 	0.59560 0.08700 0.16870 0.08300
C 	C 	0.66720 0.04640 0.24430 0.07700
H 	H 	0.65110 0.07540 0.26680 -0.01600
C 	C 	0.68630 0.86900 0.37980 0.07600
H 	H 	0.66570 0.87070 0.33970 -0.00300
N 	N 	0.37162 0.21870 0.91768 -0.18900
N 	N 	0.72200 0.86490 0.91183 -0.20800
N 	N 	0.72080 0.99970 0.27132 -0.19400
N 	N 	0.57450 0.03930 0.97287 -0.14000
N 	N 	0.65623 0.98250 0.05929 -0.14200
N 	N 	0.57486 0.07290 0.06287 -0.13800
N 	N 	0.74420 0.90950 0.40745 -0.18400
N 	N 	0.74680 0.77660 0.77139 -0.19500
N 	N 	0.39220 0.56500 0.42209 -0.20100
N 	N 	0.59769 0.73930 0.47311 -0.14200
N 	N 	0.68629 0.78740 0.55876 -0.13800
N 	N 	0.60390 0.70110 0.56457 -0.14900
