data_crystal

_cell_length_a 21.99430
_cell_length_b 16.57730
_cell_length_c 25.55800
_cell_angle_alpha 90.00000
_cell_angle_beta  115.20300
_cell_angle_gamma 90.00000

_symmetry_space_group_name_	'P 1'
_symmetry_space_group_name_H-M	'P 1'

loop_
_symmetry_equiv_pos_as_xyz
  x,y,z

loop_
_atom_site_label
_atom_site_type_symbol
_atom_site_fract_x
_atom_site_fract_y
_atom_site_fract_z
_atom_site_charge
Ag	Ag	0.84427 0.45714 0.36730 0.51000
Ag	Ag	0.82228 0.75492 0.86677 0.51400
C 	C 	0.09780 0.97080 0.99960 0.10200
C 	C 	0.79750 0.58410 0.50420 -0.13100
H 	H 	0.81970 0.58820 0.54420 0.08600
C 	C 	0.00340 0.88460 0.99520 -0.12600
H 	H 	0.02290 0.88340 0.03540 0.08400
C 	C 	0.27730 0.13780 0.00860 -0.12600
H 	H 	0.29830 0.13380 0.04870 0.07300
C 	C 	0.18170 0.05220 0.00570 0.09500
C 	C 	0.70980 0.72640 0.58640 0.10100
C 	C 	0.55980 0.80140 0.46830 0.06200
C 	C 	0.53300 0.81120 0.41020 -0.13900
H 	H 	0.55460 0.79010 0.38900 0.08100
C 	C 	0.62330 0.75630 0.50090 0.09800
C 	C 	0.94400 0.84410 0.96350 0.07800
H 	H 	0.92420 0.81550 0.98350 -0.00900
C 	C 	0.03310 0.92720 0.96540 0.06400
C 	C 	0.21990 0.15320 0.89110 0.05100
H 	H 	0.20020 0.15810 0.85110 -0.01900
C 	C 	0.17910 0.95630 0.18000 -0.13500
H 	H 	0.13500 0.93880 0.15990 0.08200
C 	C 	0.73540 0.56440 0.38770 0.07700
H 	H 	0.71380 0.55750 0.34780 -0.00700
C 	C 	0.74320 0.73690 0.65050 0.06200
C 	C 	0.18010 0.00200 0.08660 0.09600
C 	C 	0.21490 0.10130 0.97680 0.05000
C 	C 	0.73570 0.62100 0.47370 0.06800
C 	C 	0.52560 0.83560 0.49800 -0.14300
H 	H 	0.54310 0.83190 0.53810 0.07500
C 	C 	0.21220 0.99200 0.15110 0.05900
C 	C 	0.18590 0.11070 0.91730 -0.12300
H 	H 	0.14390 0.08860 0.89500 0.07500
C 	C 	0.70400 0.60930 0.41420 -0.13000
H 	H 	0.66190 0.63160 0.39250 0.08300
C 	C 	0.30730 0.18050 0.97850 0.06400
H 	H 	0.34850 0.20540 0.99960 -0.00600
C 	C 	0.70500 0.67210 0.50380 0.10300
C 	C 	0.47320 0.85290 0.38270 0.06100
H 	H 	0.45590 0.86040 0.34290 -0.01400
C 	C 	0.82510 0.54110 0.47340 0.08500
H 	H 	0.86720 0.51810 0.49390 -0.01100
C 	C 	0.46680 0.87420 0.46780 0.07000
H 	H 	0.44440 0.89600 0.48820 -0.01800
C 	C 	0.00200 0.92760 0.90590 -0.13500
H 	H 	0.01980 0.95700 0.88470 0.08000
C 	C 	0.30670 0.00530 0.24140 0.07100
H 	H 	0.35080 0.02250 0.26220 -0.02200
C 	C 	0.94400 0.88370 0.87860 0.08000
H 	H 	0.92470 0.88190 0.83840 -0.00400
C 	C 	0.21170 0.94660 0.23920 0.07200
H 	H 	0.18880 0.92190 0.25830 -0.01100
C 	C 	0.71490 0.78820 0.67710 -0.13500
H 	H 	0.67630 0.81750 0.65530 0.07100
C 	C 	0.74540 0.79460 0.73640 0.06800
H 	H 	0.72630 0.82880 0.75410 -0.01500
C 	C 	0.27760 0.01630 0.18180 -0.14400
H 	H 	0.30160 0.03950 0.16330 0.07500
C 	C 	0.82830 0.70890 0.74330 0.08200
H 	H 	0.86780 0.68170 0.76590 -0.01800
C 	C 	0.80220 0.69940 0.68410 -0.14100
H 	H 	0.82430 0.66810 0.66740 0.08400
N 	N 	0.79560 0.53040 0.41670 -0.19100
N 	N 	0.43940 0.88270 0.41100 -0.21000
N 	N 	0.80080 0.75430 0.76970 -0.19600
N 	N 	0.73780 0.67730 0.56180 -0.13700
N 	N 	0.64780 0.71000 0.47120 -0.13800
N 	N 	0.65250 0.76660 0.55800 -0.14200
N 	N 	0.91350 0.84360 0.90590 -0.18500
N 	N 	0.27530 0.97150 0.27030 -0.19500
N 	N 	0.27970 0.18710 0.92130 -0.20200
N 	N 	0.12570 0.01270 0.97180 -0.14100
N 	N 	0.12290 0.96320 0.05770 -0.13700
N 	N 	0.21110 0.04980 0.06360 -0.14900
Ag	Ag	0.34427 0.95714 0.36730 0.50900
Ag	Ag	0.32228 0.25492 0.86677 0.51300
C 	C 	0.59780 0.47080 0.99960 0.09900
C 	C 	0.29750 0.08410 0.50420 -0.13200
H 	H 	0.31970 0.08820 0.54420 0.08500
C 	C 	0.50340 0.38460 0.99520 -0.13200
H 	H 	0.52290 0.38340 0.03540 0.08600
C 	C 	0.77730 0.63780 0.00860 -0.12000
H 	H 	0.79830 0.63380 0.04870 0.07100
C 	C 	0.68170 0.55220 0.00570 0.09800
C 	C 	0.20980 0.22640 0.58640 0.10100
C 	C 	0.05980 0.30140 0.46830 0.06200
C 	C 	0.03300 0.31120 0.41020 -0.13900
H 	H 	0.05460 0.29010 0.38900 0.08100
C 	C 	0.12330 0.25630 0.50090 0.09800
C 	C 	0.44400 0.34410 0.96350 0.08200
H 	H 	0.42420 0.31550 0.98350 -0.01000
C 	C 	0.53310 0.42720 0.96540 0.06700
C 	C 	0.71990 0.65320 0.89110 0.04900
H 	H 	0.70020 0.65810 0.85110 -0.01900
C 	C 	0.67910 0.45630 0.18000 -0.13500
H 	H 	0.63500 0.43880 0.15990 0.08200
C 	C 	0.23540 0.06440 0.38770 0.07700
H 	H 	0.21380 0.05750 0.34780 -0.00700
C 	C 	0.24320 0.23690 0.65050 0.06200
C 	C 	0.68010 0.50200 0.08660 0.09600
C 	C 	0.71490 0.60130 0.97680 0.04500
C 	C 	0.23570 0.12100 0.47370 0.06800
C 	C 	0.02560 0.33560 0.49800 -0.14300
H 	H 	0.04310 0.33190 0.53810 0.07600
C 	C 	0.71220 0.49200 0.15110 0.05800
C 	C 	0.68590 0.61070 0.91730 -0.12000
H 	H 	0.64390 0.58860 0.89500 0.07400
C 	C 	0.20400 0.10930 0.41420 -0.13000
H 	H 	0.16190 0.13160 0.39250 0.08300
C 	C 	0.80730 0.68050 0.97850 0.06000
H 	H 	0.84850 0.70540 0.99960 -0.00500
C 	C 	0.20500 0.17210 0.50380 0.10300
C 	C 	0.97320 0.35290 0.38270 0.06100
H 	H 	0.95590 0.36040 0.34290 -0.01400
C 	C 	0.32510 0.04110 0.47340 0.08500
H 	H 	0.36720 0.01810 0.49390 -0.01100
C 	C 	0.96680 0.37420 0.46780 0.07000
H 	H 	0.94440 0.39600 0.48820 -0.01800
C 	C 	0.50200 0.42760 0.90590 -0.13800
H 	H 	0.51980 0.45700 0.88470 0.08100
C 	C 	0.80670 0.50530 0.24140 0.07100
H 	H 	0.85080 0.52250 0.26220 -0.02200
C 	C 	0.44400 0.38370 0.87860 0.08200
H 	H 	0.42470 0.38190 0.83840 -0.00500
C 	C 	0.71170 0.44660 0.23920 0.07200
H 	H 	0.68880 0.42190 0.25830 -0.01100
C 	C 	0.21490 0.28820 0.67710 -0.13500
H 	H 	0.17630 0.31750 0.65530 0.07100
C 	C 	0.24540 0.29460 0.73640 0.06800
H 	H 	0.22630 0.32880 0.75410 -0.01500
C 	C 	0.77760 0.51630 0.18180 -0.14400
H 	H 	0.80160 0.53950 0.16330 0.07600
C 	C 	0.32830 0.20890 0.74330 0.08200
H 	H 	0.36780 0.18170 0.76590 -0.01800
C 	C 	0.30220 0.19940 0.68410 -0.14100
H 	H 	0.32430 0.16810 0.66740 0.08400
N 	N 	0.29560 0.03040 0.41670 -0.19100
N 	N 	0.93940 0.38270 0.41100 -0.21000
N 	N 	0.30080 0.25430 0.76970 -0.19600
N 	N 	0.23780 0.17730 0.56180 -0.13700
N 	N 	0.14780 0.21000 0.47120 -0.13800
N 	N 	0.15250 0.26660 0.55800 -0.14200
N 	N 	0.41350 0.34360 0.90590 -0.18600
N 	N 	0.77530 0.47150 0.27030 -0.19500
N 	N 	0.77970 0.68710 0.92130 -0.20100
N 	N 	0.62570 0.51270 0.97180 -0.14200
N 	N 	0.62290 0.46320 0.05770 -0.13700
N 	N 	0.71110 0.54980 0.06360 -0.15000
Ag	Ag	0.15573 0.45714 0.13270 0.50900
Ag	Ag	0.17772 0.75492 0.63323 0.51300
C 	C 	0.90220 0.97080 0.50040 0.10000
C 	C 	0.20250 0.58410 0.99580 -0.13000
H 	H 	0.18030 0.58820 0.95580 0.08400
C 	C 	0.99660 0.88460 0.50480 -0.13200
H 	H 	0.97710 0.88340 0.46460 0.08600
C 	C 	0.72270 0.13780 0.49140 -0.12300
H 	H 	0.70170 0.13380 0.45130 0.07100
C 	C 	0.81830 0.05220 0.49430 0.09700
C 	C 	0.29020 0.72640 0.91360 0.10100
C 	C 	0.44020 0.80140 0.03170 0.06200
C 	C 	0.46700 0.81120 0.08980 -0.13900
H 	H 	0.44540 0.79010 0.11100 0.08100
C 	C 	0.37670 0.75630 0.99910 0.09800
C 	C 	0.05600 0.84410 0.53650 0.08200
H 	H 	0.07580 0.81550 0.51650 -0.01000
C 	C 	0.96690 0.92720 0.53460 0.06700
C 	C 	0.78010 0.15320 0.60890 0.05000
H 	H 	0.79980 0.15810 0.64890 -0.01900
C 	C 	0.82090 0.95630 0.32000 -0.13500
H 	H 	0.86500 0.93880 0.34010 0.08200
C 	C 	0.26460 0.56440 0.11230 0.07700
H 	H 	0.28620 0.55750 0.15220 -0.00600
C 	C 	0.25680 0.73690 0.84950 0.06200
C 	C 	0.81990 0.00200 0.41340 0.09600
C 	C 	0.78510 0.10130 0.52320 0.04700
C 	C 	0.26430 0.62100 0.02630 0.06600
C 	C 	0.47440 0.83560 0.00200 -0.14300
H 	H 	0.45690 0.83190 0.96190 0.07500
C 	C 	0.78780 0.99200 0.34890 0.05800
C 	C 	0.81410 0.11070 0.58270 -0.12100
H 	H 	0.85610 0.08860 0.60500 0.07400
C 	C 	0.29600 0.60930 0.08580 -0.12800
H 	H 	0.33810 0.63160 0.10750 0.08300
C 	C 	0.69270 0.18050 0.52150 0.06200
H 	H 	0.65150 0.20540 0.50040 -0.00500
C 	C 	0.29500 0.67210 0.99620 0.10400
C 	C 	0.52680 0.85290 0.11730 0.06100
H 	H 	0.54410 0.86040 0.15710 -0.01400
C 	C 	0.17490 0.54110 0.02660 0.08300
H 	H 	0.13280 0.51810 0.00610 -0.01100
C 	C 	0.53320 0.87420 0.03220 0.07000
H 	H 	0.55560 0.89600 0.01180 -0.01800
C 	C 	0.99800 0.92760 0.59410 -0.13900
H 	H 	0.98020 0.95700 0.61530 0.08100
C 	C 	0.69330 0.00530 0.25860 0.07100
H 	H 	0.64920 0.02250 0.23780 -0.02200
C 	C 	0.05600 0.88370 0.62140 0.08300
H 	H 	0.07530 0.88190 0.66160 -0.00500
C 	C 	0.78830 0.94660 0.26080 0.07200
H 	H 	0.81120 0.92190 0.24170 -0.01100
C 	C 	0.28510 0.78820 0.82290 -0.13500
H 	H 	0.32370 0.81750 0.84470 0.07100
C 	C 	0.25460 0.79460 0.76360 0.06800
H 	H 	0.27370 0.82880 0.74590 -0.01500
C 	C 	0.72240 0.01630 0.31820 -0.14400
H 	H 	0.69840 0.03950 0.33670 0.07500
C 	C 	0.17170 0.70890 0.75670 0.08200
H 	H 	0.13220 0.68170 0.73410 -0.01800
C 	C 	0.19780 0.69940 0.81590 -0.14100
H 	H 	0.17570 0.66810 0.83260 0.08400
N 	N 	0.20440 0.53040 0.08330 -0.19000
N 	N 	0.56060 0.88270 0.08900 -0.21000
N 	N 	0.19920 0.75430 0.73030 -0.19600
N 	N 	0.26220 0.67730 0.93820 -0.13700
N 	N 	0.35220 0.71000 0.02880 -0.13800
N 	N 	0.34750 0.76660 0.94200 -0.14200
N 	N 	0.08650 0.84360 0.59410 -0.18600
N 	N 	0.72470 0.97150 0.22970 -0.19500
N 	N 	0.72030 0.18710 0.57870 -0.20100
N 	N 	0.87430 0.01270 0.52820 -0.14200
N 	N 	0.87710 0.96320 0.44230 -0.13700
N 	N 	0.78890 0.04980 0.43640 -0.14900
Ag	Ag	0.65573 0.95714 0.13270 0.50900
Ag	Ag	0.67772 0.25492 0.63323 0.51300
C 	C 	0.40220 0.47080 0.50040 0.10000
C 	C 	0.70250 0.08410 0.99580 -0.13500
H 	H 	0.68030 0.08820 0.95580 0.08600
C 	C 	0.49660 0.38460 0.50480 -0.13200
H 	H 	0.47710 0.38340 0.46460 0.08600
C 	C 	0.22270 0.63780 0.49140 -0.12300
H 	H 	0.20170 0.63380 0.45130 0.07100
C 	C 	0.31830 0.55220 0.49430 0.09700
C 	C 	0.79020 0.22640 0.91360 0.10100
C 	C 	0.94020 0.30140 0.03170 0.06000
C 	C 	0.96700 0.31120 0.08980 -0.13600
H 	H 	0.94540 0.29010 0.11100 0.08100
C 	C 	0.87670 0.25630 0.99910 0.09700
C 	C 	0.55600 0.34410 0.53650 0.08100
H 	H 	0.57580 0.31550 0.51650 -0.01000
C 	C 	0.46690 0.42720 0.53460 0.06700
C 	C 	0.28010 0.65320 0.60890 0.05000
H 	H 	0.29980 0.65810 0.64890 -0.01900
C 	C 	0.32090 0.45630 0.32000 -0.13500
H 	H 	0.36500 0.43880 0.34010 0.08200
C 	C 	0.76460 0.06440 0.11230 0.07800
H 	H 	0.78620 0.05750 0.15220 -0.00700
C 	C 	0.75680 0.23690 0.84950 0.06200
C 	C 	0.31990 0.50200 0.41340 0.09600
C 	C 	0.28510 0.60130 0.52320 0.04700
C 	C 	0.76430 0.12100 0.02630 0.07000
C 	C 	0.97440 0.33560 0.00200 -0.13800
H 	H 	0.95690 0.33190 0.96190 0.07300
C 	C 	0.28780 0.49200 0.34890 0.05800
C 	C 	0.31410 0.61070 0.58270 -0.12100
H 	H 	0.35610 0.58860 0.60500 0.07500
C 	C 	0.79600 0.10930 0.08580 -0.13100
H 	H 	0.83810 0.13160 0.10750 0.08400
C 	C 	0.19270 0.68050 0.52150 0.06200
H 	H 	0.15150 0.70540 0.50040 -0.00500
C 	C 	0.79500 0.17210 0.99620 0.10100
C 	C 	0.02680 0.35290 0.11730 0.05900
H 	H 	0.04410 0.36040 0.15710 -0.01400
C 	C 	0.67490 0.04110 0.02660 0.08700
H 	H 	0.63280 0.01810 0.00610 -0.01200
C 	C 	0.03320 0.37420 0.03220 0.06600
H 	H 	0.05560 0.39600 0.01180 -0.01700
C 	C 	0.49800 0.42760 0.59410 -0.13800
H 	H 	0.48020 0.45700 0.61530 0.08100
C 	C 	0.19330 0.50530 0.25860 0.07100
H 	H 	0.14920 0.52250 0.23780 -0.02300
C 	C 	0.55600 0.38370 0.62140 0.08200
H 	H 	0.57530 0.38190 0.66160 -0.00500
C 	C 	0.28830 0.44660 0.26080 0.07200
H 	H 	0.31120 0.42190 0.24170 -0.01100
C 	C 	0.78510 0.28820 0.82290 -0.13500
H 	H 	0.82370 0.31750 0.84470 0.07100
C 	C 	0.75460 0.29460 0.76360 0.06800
H 	H 	0.77370 0.32880 0.74590 -0.01500
C 	C 	0.22240 0.51630 0.31820 -0.14400
H 	H 	0.19840 0.53950 0.33670 0.07500
C 	C 	0.67170 0.20890 0.75670 0.08200
H 	H 	0.63220 0.18170 0.73410 -0.01800
C 	C 	0.69780 0.19940 0.81590 -0.14100
H 	H 	0.67570 0.16810 0.83260 0.08400
N 	N 	0.70440 0.03040 0.08330 -0.19100
N 	N 	0.06060 0.38270 0.08900 -0.20900
N 	N 	0.69920 0.25430 0.73030 -0.19600
N 	N 	0.76220 0.17730 0.93820 -0.13700
N 	N 	0.85220 0.21000 0.02880 -0.13700
N 	N 	0.84750 0.26660 0.94200 -0.14200
N 	N 	0.58650 0.34360 0.59410 -0.18600
N 	N 	0.22470 0.47150 0.22970 -0.19500
N 	N 	0.22030 0.68710 0.57870 -0.20100
N 	N 	0.37430 0.51270 0.52820 -0.14200
N 	N 	0.37710 0.46320 0.44230 -0.13700
N 	N 	0.28890 0.54980 0.43640 -0.15000
Ag	Ag	0.15573 0.54286 0.63270 0.50900
Ag	Ag	0.17772 0.24508 0.13323 0.51300
C 	C 	0.90220 0.02920 0.00040 0.10100
C 	C 	0.20250 0.41590 0.49580 -0.13200
H 	H 	0.18030 0.41180 0.45580 0.08500
C 	C 	0.99660 0.11540 0.00480 -0.12700
H 	H 	0.97710 0.11660 0.96460 0.08300
C 	C 	0.72270 0.86220 0.99140 -0.12700
H 	H 	0.70170 0.86620 0.95130 0.07300
C 	C 	0.81830 0.94780 0.99430 0.09500
C 	C 	0.29020 0.27360 0.41360 0.10100
C 	C 	0.44020 0.19860 0.53170 0.06200
C 	C 	0.46700 0.18880 0.58980 -0.13900
H 	H 	0.44540 0.20990 0.61100 0.08100
C 	C 	0.37670 0.24370 0.49910 0.09800
C 	C 	0.05600 0.15590 0.03650 0.07800
H 	H 	0.07580 0.18450 0.01650 -0.00900
C 	C 	0.96690 0.07280 0.03460 0.06400
C 	C 	0.78010 0.84680 0.10890 0.05100
H 	H 	0.79980 0.84190 0.14890 -0.01900
C 	C 	0.82090 0.04370 0.82000 -0.13500
H 	H 	0.86500 0.06120 0.84010 0.08200
C 	C 	0.26460 0.43560 0.61230 0.07700
H 	H 	0.28620 0.44250 0.65220 -0.00700
C 	C 	0.25680 0.26310 0.34950 0.06200
C 	C 	0.81990 0.99800 0.91340 0.09600
C 	C 	0.78510 0.89870 0.02320 0.05000
C 	C 	0.26430 0.37900 0.52630 0.06800
C 	C 	0.47440 0.16440 0.50200 -0.14300
H 	H 	0.45690 0.16810 0.46190 0.07500
C 	C 	0.78780 0.00800 0.84890 0.05900
C 	C 	0.81410 0.88930 0.08270 -0.12300
H 	H 	0.85610 0.91140 0.10500 0.07500
C 	C 	0.29600 0.39070 0.58580 -0.13000
H 	H 	0.33810 0.36840 0.60750 0.08300
C 	C 	0.69270 0.81950 0.02150 0.06400
H 	H 	0.65150 0.79460 0.00040 -0.00600
C 	C 	0.29500 0.32790 0.49620 0.10300
C 	C 	0.52680 0.14710 0.61730 0.06100
H 	H 	0.54410 0.13960 0.65710 -0.01400
C 	C 	0.17490 0.45890 0.52660 0.08500
H 	H 	0.13280 0.48190 0.50610 -0.01100
C 	C 	0.53320 0.12580 0.53220 0.07000
H 	H 	0.55560 0.10400 0.51180 -0.01800
C 	C 	0.99800 0.07240 0.09410 -0.13500
H 	H 	0.98020 0.04300 0.11530 0.08000
C 	C 	0.69330 0.99470 0.75860 0.07100
H 	H 	0.64920 0.97750 0.73780 -0.02200
C 	C 	0.05600 0.11630 0.12140 0.08000
H 	H 	0.07530 0.11810 0.16160 -0.00400
C 	C 	0.78830 0.05340 0.76080 0.07200
H 	H 	0.81120 0.07810 0.74170 -0.01100
C 	C 	0.28510 0.21180 0.32290 -0.13500
H 	H 	0.32370 0.18250 0.34470 0.07100
C 	C 	0.25460 0.20540 0.26360 0.06800
H 	H 	0.27370 0.17120 0.24590 -0.01500
C 	C 	0.72240 0.98370 0.81820 -0.14400
H 	H 	0.69840 0.96050 0.83670 0.07500
C 	C 	0.17170 0.29110 0.25670 0.08200
H 	H 	0.13220 0.31830 0.23410 -0.01800
C 	C 	0.19780 0.30060 0.31590 -0.14100
H 	H 	0.17570 0.33190 0.33260 0.08400
N 	N 	0.20440 0.46960 0.58330 -0.19100
N 	N 	0.56060 0.11730 0.58900 -0.21000
N 	N 	0.19920 0.24570 0.23030 -0.19600
N 	N 	0.26220 0.32270 0.43820 -0.13700
N 	N 	0.35220 0.29000 0.52880 -0.13800
N 	N 	0.34750 0.23340 0.44200 -0.14200
N 	N 	0.08650 0.15640 0.09410 -0.18500
N 	N 	0.72470 0.02850 0.72970 -0.19500
N 	N 	0.72030 0.81290 0.07870 -0.20200
N 	N 	0.87430 0.98730 0.02820 -0.14100
N 	N 	0.87710 0.03680 0.94230 -0.13700
N 	N 	0.78890 0.95020 0.93640 -0.14900
Ag	Ag	0.65573 0.04286 0.63270 0.50900
Ag	Ag	0.67772 0.74508 0.13323 0.51300
C 	C 	0.40220 0.52920 0.00040 0.09900
C 	C 	0.70250 0.91590 0.49580 -0.13200
H 	H 	0.68030 0.91180 0.45580 0.08500
C 	C 	0.49660 0.61540 0.00480 -0.13200
H 	H 	0.47710 0.61660 0.96460 0.08600
C 	C 	0.22270 0.36220 0.99140 -0.12000
H 	H 	0.20170 0.36620 0.95130 0.07100
C 	C 	0.31830 0.44780 0.99430 0.09800
C 	C 	0.79020 0.77360 0.41360 0.10100
C 	C 	0.94020 0.69860 0.53170 0.06200
C 	C 	0.96700 0.68880 0.58980 -0.13900
H 	H 	0.94540 0.70990 0.61100 0.08100
C 	C 	0.87670 0.74370 0.49910 0.09800
C 	C 	0.55600 0.65590 0.03650 0.08200
H 	H 	0.57580 0.68450 0.01650 -0.01000
C 	C 	0.46690 0.57280 0.03460 0.06700
C 	C 	0.28010 0.34680 0.10890 0.04900
H 	H 	0.29980 0.34190 0.14890 -0.01900
C 	C 	0.32090 0.54370 0.82000 -0.13500
H 	H 	0.36500 0.56120 0.84010 0.08200
C 	C 	0.76460 0.93560 0.61230 0.07700
H 	H 	0.78620 0.94250 0.65220 -0.00700
C 	C 	0.75680 0.76310 0.34950 0.06200
C 	C 	0.31990 0.49800 0.91340 0.09600
C 	C 	0.28510 0.39870 0.02320 0.04500
C 	C 	0.76430 0.87900 0.52630 0.06800
C 	C 	0.97440 0.66440 0.50200 -0.14300
H 	H 	0.95690 0.66810 0.46190 0.07600
C 	C 	0.28780 0.50800 0.84890 0.05800
C 	C 	0.31410 0.38930 0.08270 -0.12000
H 	H 	0.35610 0.41140 0.10500 0.07400
C 	C 	0.79600 0.89070 0.58580 -0.13000
H 	H 	0.83810 0.86840 0.60750 0.08300
C 	C 	0.19270 0.31950 0.02150 0.06000
H 	H 	0.15150 0.29460 0.00040 -0.00500
C 	C 	0.79500 0.82790 0.49620 0.10300
C 	C 	0.02680 0.64710 0.61730 0.06100
H 	H 	0.04410 0.63960 0.65710 -0.01400
C 	C 	0.67490 0.95890 0.52660 0.08500
H 	H 	0.63280 0.98190 0.50610 -0.01100
C 	C 	0.03320 0.62580 0.53220 0.07000
H 	H 	0.05560 0.60400 0.51180 -0.01800
C 	C 	0.49800 0.57240 0.09410 -0.13800
H 	H 	0.48020 0.54300 0.11530 0.08100
C 	C 	0.19330 0.49470 0.75860 0.07100
H 	H 	0.14920 0.47750 0.73780 -0.02200
C 	C 	0.55600 0.61630 0.12140 0.08200
H 	H 	0.57530 0.61810 0.16160 -0.00500
C 	C 	0.28830 0.55340 0.76080 0.07200
H 	H 	0.31120 0.57810 0.74170 -0.01100
C 	C 	0.78510 0.71180 0.32290 -0.13500
H 	H 	0.82370 0.68250 0.34470 0.07100
C 	C 	0.75460 0.70540 0.26360 0.06800
H 	H 	0.77370 0.67120 0.24590 -0.01500
C 	C 	0.22240 0.48370 0.81820 -0.14400
H 	H 	0.19840 0.46050 0.83670 0.07600
C 	C 	0.67170 0.79110 0.25670 0.08200
H 	H 	0.63220 0.81830 0.23410 -0.01800
C 	C 	0.69780 0.80060 0.31590 -0.14100
H 	H 	0.67570 0.83190 0.33260 0.08400
N 	N 	0.70440 0.96960 0.58330 -0.19100
N 	N 	0.06060 0.61730 0.58900 -0.21000
N 	N 	0.69920 0.74570 0.23030 -0.19600
N 	N 	0.76220 0.82270 0.43820 -0.13700
N 	N 	0.85220 0.79000 0.52880 -0.13800
N 	N 	0.84750 0.73340 0.44200 -0.14200
N 	N 	0.58650 0.65640 0.09410 -0.18600
N 	N 	0.22470 0.52850 0.72970 -0.19500
N 	N 	0.22030 0.31290 0.07870 -0.20100
N 	N 	0.37430 0.48730 0.02820 -0.14200
N 	N 	0.37710 0.53680 0.94230 -0.13700
N 	N 	0.28890 0.45020 0.93640 -0.15000
Ag	Ag	0.84427 0.54286 0.86730 0.50900
Ag	Ag	0.82228 0.24508 0.36677 0.51300
C 	C 	0.09780 0.02920 0.49960 0.10000
C 	C 	0.79750 0.41590 0.00420 -0.13000
H 	H 	0.81970 0.41180 0.04420 0.08400
C 	C 	0.00340 0.11540 0.49520 -0.13200
H 	H 	0.02290 0.11660 0.53540 0.08600
C 	C 	0.27730 0.86220 0.50860 -0.12300
H 	H 	0.29830 0.86620 0.54870 0.07100
C 	C 	0.18170 0.94780 0.50570 0.09700
C 	C 	0.70980 0.27360 0.08640 0.10100
C 	C 	0.55980 0.19860 0.96830 0.06200
C 	C 	0.53300 0.18880 0.91020 -0.13900
H 	H 	0.55460 0.20990 0.88900 0.08100
C 	C 	0.62330 0.24370 0.00090 0.09800
C 	C 	0.94400 0.15590 0.46350 0.08200
H 	H 	0.92420 0.18450 0.48350 -0.01000
C 	C 	0.03310 0.07280 0.46540 0.06700
C 	C 	0.21990 0.84680 0.39110 0.05000
H 	H 	0.20020 0.84190 0.35110 -0.01900
C 	C 	0.17910 0.04370 0.68000 -0.13500
H 	H 	0.13500 0.06120 0.65990 0.08200
C 	C 	0.73540 0.43560 0.88770 0.07700
H 	H 	0.71380 0.44250 0.84780 -0.00600
C 	C 	0.74320 0.26310 0.15050 0.06200
C 	C 	0.18010 0.99800 0.58660 0.09600
C 	C 	0.21490 0.89870 0.47680 0.04700
C 	C 	0.73570 0.37900 0.97370 0.06600
C 	C 	0.52560 0.16440 0.99800 -0.14300
H 	H 	0.54310 0.16810 0.03810 0.07500
C 	C 	0.21220 0.00800 0.65110 0.05800
C 	C 	0.18590 0.88930 0.41730 -0.12100
H 	H 	0.14390 0.91140 0.39500 0.07400
C 	C 	0.70400 0.39070 0.91420 -0.12800
H 	H 	0.66190 0.36840 0.89250 0.08300
C 	C 	0.30730 0.81950 0.47850 0.06200
H 	H 	0.34850 0.79460 0.49960 -0.00500
C 	C 	0.70500 0.32790 0.00380 0.10400
C 	C 	0.47320 0.14710 0.88270 0.06100
H 	H 	0.45590 0.13960 0.84290 -0.01400
C 	C 	0.82510 0.45890 0.97340 0.08300
H 	H 	0.86720 0.48190 0.99390 -0.01100
C 	C 	0.46680 0.12580 0.96780 0.07000
H 	H 	0.44440 0.10400 0.98820 -0.01800
C 	C 	0.00200 0.07240 0.40590 -0.13900
H 	H 	0.01980 0.04300 0.38470 0.08100
C 	C 	0.30670 0.99470 0.74140 0.07100
H 	H 	0.35080 0.97750 0.76220 -0.02200
C 	C 	0.94400 0.11630 0.37860 0.08300
H 	H 	0.92470 0.11810 0.33840 -0.00500
C 	C 	0.21170 0.05340 0.73920 0.07200
H 	H 	0.18880 0.07810 0.75830 -0.01100
C 	C 	0.71490 0.21180 0.17710 -0.13500
H 	H 	0.67630 0.18250 0.15530 0.07100
C 	C 	0.74540 0.20540 0.23640 0.06800
H 	H 	0.72630 0.17120 0.25410 -0.01500
C 	C 	0.27760 0.98370 0.68180 -0.14400
H 	H 	0.30160 0.96050 0.66330 0.07500
C 	C 	0.82830 0.29110 0.24330 0.08200
H 	H 	0.86780 0.31830 0.26590 -0.01800
C 	C 	0.80220 0.30060 0.18410 -0.14100
H 	H 	0.82430 0.33190 0.16740 0.08400
N 	N 	0.79560 0.46960 0.91670 -0.19000
N 	N 	0.43940 0.11730 0.91100 -0.21000
N 	N 	0.80080 0.24570 0.26970 -0.19600
N 	N 	0.73780 0.32270 0.06180 -0.13700
N 	N 	0.64780 0.29000 0.97120 -0.13800
N 	N 	0.65250 0.23340 0.05800 -0.14200
N 	N 	0.91350 0.15640 0.40590 -0.18600
N 	N 	0.27530 0.02850 0.77030 -0.19500
N 	N 	0.27970 0.81290 0.42130 -0.20100
N 	N 	0.12570 0.98730 0.47180 -0.14200
N 	N 	0.12290 0.03680 0.55770 -0.13700
N 	N 	0.21110 0.95020 0.56360 -0.14900
Ag	Ag	0.34427 0.04286 0.86730 0.50900
Ag	Ag	0.32228 0.74508 0.36677 0.51300
C 	C 	0.59780 0.52920 0.49960 0.10000
C 	C 	0.29750 0.91590 0.00420 -0.13500
H 	H 	0.31970 0.91180 0.04420 0.08600
C 	C 	0.50340 0.61540 0.49520 -0.13200
H 	H 	0.52290 0.61660 0.53540 0.08600
C 	C 	0.77730 0.36220 0.50860 -0.12300
H 	H 	0.79830 0.36620 0.54870 0.07100
C 	C 	0.68170 0.44780 0.50570 0.09700
C 	C 	0.20980 0.77360 0.08640 0.10100
C 	C 	0.05980 0.69860 0.96830 0.06000
C 	C 	0.03300 0.68880 0.91020 -0.13600
H 	H 	0.05460 0.70990 0.88900 0.08100
C 	C 	0.12330 0.74370 0.00090 0.09700
C 	C 	0.44400 0.65590 0.46350 0.08100
H 	H 	0.42420 0.68450 0.48350 -0.01000
C 	C 	0.53310 0.57280 0.46540 0.06700
C 	C 	0.71990 0.34680 0.39110 0.05000
H 	H 	0.70020 0.34190 0.35110 -0.01900
C 	C 	0.67910 0.54370 0.68000 -0.13500
H 	H 	0.63500 0.56120 0.65990 0.08200
C 	C 	0.23540 0.93560 0.88770 0.07800
H 	H 	0.21380 0.94250 0.84780 -0.00700
C 	C 	0.24320 0.76310 0.15050 0.06200
C 	C 	0.68010 0.49800 0.58660 0.09600
C 	C 	0.71490 0.39870 0.47680 0.04700
C 	C 	0.23570 0.87900 0.97370 0.07000
C 	C 	0.02560 0.66440 0.99800 -0.13800
H 	H 	0.04310 0.66810 0.03810 0.07300
C 	C 	0.71220 0.50800 0.65110 0.05800
C 	C 	0.68590 0.38930 0.41730 -0.12100
H 	H 	0.64390 0.41140 0.39500 0.07500
C 	C 	0.20400 0.89070 0.91420 -0.13100
H 	H 	0.16190 0.86840 0.89250 0.08400
C 	C 	0.80730 0.31950 0.47850 0.06200
H 	H 	0.84850 0.29460 0.49960 -0.00500
C 	C 	0.20500 0.82790 0.00380 0.10100
C 	C 	0.97320 0.64710 0.88270 0.05900
H 	H 	0.95590 0.63960 0.84290 -0.01400
C 	C 	0.32510 0.95890 0.97340 0.08700
H 	H 	0.36720 0.98190 0.99390 -0.01200
C 	C 	0.96680 0.62580 0.96780 0.06600
H 	H 	0.94440 0.60400 0.98820 -0.01700
C 	C 	0.50200 0.57240 0.40590 -0.13800
H 	H 	0.51980 0.54300 0.38470 0.08100
C 	C 	0.80670 0.49470 0.74140 0.07100
H 	H 	0.85080 0.47750 0.76220 -0.02300
C 	C 	0.44400 0.61630 0.37860 0.08200
H 	H 	0.42470 0.61810 0.33840 -0.00500
C 	C 	0.71170 0.55340 0.73920 0.07200
H 	H 	0.68880 0.57810 0.75830 -0.01100
C 	C 	0.21490 0.71180 0.17710 -0.13500
H 	H 	0.17630 0.68250 0.15530 0.07100
C 	C 	0.24540 0.70540 0.23640 0.06800
H 	H 	0.22630 0.67120 0.25410 -0.01500
C 	C 	0.77760 0.48370 0.68180 -0.14400
H 	H 	0.80160 0.46050 0.66330 0.07500
C 	C 	0.32830 0.79110 0.24330 0.08200
H 	H 	0.36780 0.81830 0.26590 -0.01800
C 	C 	0.30220 0.80060 0.18410 -0.14100
H 	H 	0.32430 0.83190 0.16740 0.08400
N 	N 	0.29560 0.96960 0.91670 -0.19100
N 	N 	0.93940 0.61730 0.91100 -0.20900
N 	N 	0.30080 0.74570 0.26970 -0.19600
N 	N 	0.23780 0.82270 0.06180 -0.13700
N 	N 	0.14780 0.79000 0.97120 -0.13700
N 	N 	0.15250 0.73340 0.05800 -0.14200
N 	N 	0.41350 0.65640 0.40590 -0.18600
N 	N 	0.77530 0.52850 0.77030 -0.19500
N 	N 	0.77970 0.31290 0.42130 -0.20100
N 	N 	0.62570 0.48730 0.47180 -0.14200
N 	N 	0.62290 0.53680 0.55770 -0.13700
N 	N 	0.71110 0.45020 0.56360 -0.15000
