data_crystal

_cell_length_a 21.96600
_cell_length_b 16.62880
_cell_length_c 25.53150
_cell_angle_alpha 90.00000
_cell_angle_beta  115.15800
_cell_angle_gamma 90.00000

_symmetry_space_group_name_	'P 1'
_symmetry_space_group_name_H-M	'P 1'

loop_
_symmetry_equiv_pos_as_xyz
  x,y,z

loop_
_atom_site_label
_atom_site_type_symbol
_atom_site_fract_x
_atom_site_fract_y
_atom_site_fract_z
_atom_site_charge
Ag	Ag	0.34423 0.95693 0.36706 0.51100
Ag	Ag	0.32195 0.25558 0.86659 0.51400
C 	C 	0.59760 0.47100 0.99930 0.10000
C 	C 	0.77710 0.63820 0.00850 -0.12100
H 	H 	0.79800 0.63460 0.04860 0.07100
C 	C 	0.29740 0.08420 0.50400 -0.12900
H 	H 	0.31960 0.08840 0.54400 0.08400
C 	C 	0.12330 0.25650 0.50070 0.09800
C 	C 	0.50340 0.38480 0.99480 -0.13400
H 	H 	0.52290 0.38350 0.03500 0.08700
C 	C 	0.03280 0.31030 0.40960 -0.14200
H 	H 	0.05400 0.28860 0.38820 0.08200
C 	C 	0.05960 0.30140 0.46820 0.06300
C 	C 	0.68160 0.55240 0.00560 0.09800
C 	C 	0.20940 0.22600 0.58600 0.10200
C 	C 	0.44420 0.34440 0.96320 0.08400
H 	H 	0.42460 0.31580 0.98340 -0.01100
C 	C 	0.53330 0.42720 0.96540 0.06700
C 	C 	0.24260 0.23660 0.64970 0.06200
C 	C 	0.71990 0.65320 0.89070 0.04800
H 	H 	0.70000 0.65830 0.85070 -0.01800
C 	C 	0.67930 0.45650 0.17980 -0.13700
H 	H 	0.63500 0.43950 0.15970 0.08200
C 	C 	0.23550 0.12130 0.47370 0.06400
C 	C 	0.23550 0.06440 0.38750 0.07500
H 	H 	0.21420 0.05750 0.34750 -0.00600
C 	C 	0.71450 0.60110 0.97640 0.04400
C 	C 	0.02560 0.33500 0.49800 -0.14600
H 	H 	0.04280 0.33080 0.53810 0.07600
C 	C 	0.20480 0.17240 0.50330 0.10500
C 	C 	0.67970 0.50210 0.08620 0.09600
C 	C 	0.71220 0.49180 0.15060 0.06000
C 	C 	0.20390 0.10950 0.41380 -0.12500
H 	H 	0.16180 0.13200 0.39200 0.08200
C 	C 	0.68610 0.61000 0.91720 -0.12000
H 	H 	0.64440 0.58720 0.89480 0.07400
C 	C 	0.32520 0.04120 0.47330 0.08300
H 	H 	0.36750 0.01870 0.49380 -0.01000
C 	C 	0.97310 0.35260 0.38280 0.06500
H 	H 	0.95590 0.36050 0.34300 -0.01600
C 	C 	0.96720 0.37380 0.46770 0.07100
H 	H 	0.94500 0.39610 0.48810 -0.01800
C 	C 	0.80610 0.50480 0.24100 0.07900
H 	H 	0.85030 0.52160 0.26190 -0.02500
C 	C 	0.80660 0.68060 0.97810 0.06000
H 	H 	0.84770 0.70560 0.99920 -0.00500
C 	C 	0.50220 0.42800 0.90570 -0.13600
H 	H 	0.51990 0.45770 0.88460 0.08000
C 	C 	0.77790 0.51610 0.18200 -0.15000
H 	H 	0.80230 0.53950 0.16390 0.07700
C 	C 	0.44430 0.38350 0.87820 0.07900
H 	H 	0.42540 0.38080 0.83800 -0.00400
C 	C 	0.71180 0.44620 0.23880 0.07400
H 	H 	0.68910 0.42080 0.25770 -0.01100
C 	C 	0.24500 0.29440 0.73560 0.07000
H 	H 	0.22570 0.32890 0.75300 -0.01600
C 	C 	0.30210 0.19900 0.68320 -0.14000
H 	H 	0.32460 0.16790 0.66670 0.08400
C 	C 	0.21460 0.28710 0.67650 -0.13700
H 	H 	0.17570 0.31580 0.65470 0.07200
C 	C 	0.32740 0.20920 0.74250 0.08100
H 	H 	0.36660 0.18160 0.76530 -0.01700
N 	N 	0.29550 0.03000 0.41660 -0.19000
N 	N 	0.93940 0.38230 0.41070 -0.21100
N 	N 	0.30050 0.25470 0.76930 -0.19700
N 	N 	0.23750 0.17700 0.56130 -0.13800
N 	N 	0.14780 0.21030 0.47110 -0.13800
N 	N 	0.15250 0.26640 0.55780 -0.14200
N 	N 	0.41340 0.34390 0.90580 -0.18600
N 	N 	0.77530 0.47180 0.27010 -0.19800
N 	N 	0.77960 0.68730 0.92070 -0.20100
N 	N 	0.62540 0.51280 0.97160 -0.14200
N 	N 	0.62260 0.46310 0.05730 -0.13700
N 	N 	0.71110 0.54950 0.06340 -0.15000
Ag	Ag	0.84423 0.45693 0.36706 0.51000
Ag	Ag	0.82195 0.75558 0.86659 0.51300
C 	C 	0.09760 0.97100 0.99930 0.10200
C 	C 	0.27710 0.13820 0.00850 -0.12700
H 	H 	0.29800 0.13460 0.04860 0.07300
C 	C 	0.79740 0.58420 0.50400 -0.12900
H 	H 	0.81960 0.58840 0.54400 0.08400
C 	C 	0.62330 0.75650 0.50070 0.09800
C 	C 	0.00340 0.88480 0.99480 -0.12800
H 	H 	0.02290 0.88350 0.03500 0.08400
C 	C 	0.53280 0.81030 0.40960 -0.14100
H 	H 	0.55400 0.78860 0.38820 0.08200
C 	C 	0.55960 0.80140 0.46820 0.06300
C 	C 	0.18160 0.05240 0.00560 0.09500
C 	C 	0.70940 0.72600 0.58600 0.10200
C 	C 	0.94420 0.84440 0.96320 0.08000
H 	H 	0.92460 0.81580 0.98340 -0.01000
C 	C 	0.03330 0.92720 0.96540 0.06400
C 	C 	0.74260 0.73660 0.64970 0.06200
C 	C 	0.21990 0.15320 0.89070 0.05000
H 	H 	0.20000 0.15830 0.85070 -0.01900
C 	C 	0.17930 0.95650 0.17980 -0.13700
H 	H 	0.13500 0.93950 0.15970 0.08200
C 	C 	0.73550 0.62130 0.47370 0.06400
C 	C 	0.73550 0.56440 0.38750 0.07500
H 	H 	0.71420 0.55750 0.34750 -0.00600
C 	C 	0.21450 0.10110 0.97640 0.05000
C 	C 	0.52560 0.83500 0.49800 -0.14500
H 	H 	0.54280 0.83080 0.53810 0.07600
C 	C 	0.70480 0.67240 0.50330 0.10500
C 	C 	0.17970 0.00210 0.08620 0.09600
C 	C 	0.21220 0.99180 0.15060 0.06000
C 	C 	0.70390 0.60950 0.41380 -0.12500
H 	H 	0.66180 0.63200 0.39200 0.08200
C 	C 	0.18610 0.11000 0.91720 -0.12300
H 	H 	0.14440 0.08720 0.89480 0.07500
C 	C 	0.82520 0.54120 0.47330 0.08300
H 	H 	0.86750 0.51870 0.49380 -0.01000
C 	C 	0.47310 0.85260 0.38280 0.06500
H 	H 	0.45590 0.86050 0.34300 -0.01600
C 	C 	0.46720 0.87380 0.46770 0.07100
H 	H 	0.44500 0.89610 0.48810 -0.01800
C 	C 	0.30610 0.00480 0.24100 0.07900
H 	H 	0.35030 0.02160 0.26190 -0.02600
C 	C 	0.30660 0.18060 0.97810 0.06400
H 	H 	0.34770 0.20560 0.99920 -0.00600
C 	C 	0.00220 0.92800 0.90570 -0.13300
H 	H 	0.01990 0.95770 0.88460 0.07900
C 	C 	0.27790 0.01610 0.18200 -0.15000
H 	H 	0.30230 0.03950 0.16390 0.07700
C 	C 	0.94430 0.88350 0.87820 0.07600
H 	H 	0.92540 0.88080 0.83800 -0.00300
C 	C 	0.21180 0.94620 0.23880 0.07400
H 	H 	0.18910 0.92080 0.25770 -0.01200
C 	C 	0.74500 0.79440 0.73560 0.07000
H 	H 	0.72570 0.82890 0.75300 -0.01600
C 	C 	0.80210 0.69900 0.68320 -0.14000
H 	H 	0.82460 0.66790 0.66670 0.08400
C 	C 	0.71460 0.78710 0.67650 -0.13700
H 	H 	0.67570 0.81580 0.65470 0.07200
C 	C 	0.82740 0.70920 0.74250 0.08100
H 	H 	0.86660 0.68160 0.76530 -0.01700
N 	N 	0.79550 0.53000 0.41660 -0.19000
N 	N 	0.43940 0.88230 0.41070 -0.21100
N 	N 	0.80050 0.75470 0.76930 -0.19700
N 	N 	0.73750 0.67700 0.56130 -0.13800
N 	N 	0.64780 0.71030 0.47110 -0.13800
N 	N 	0.65250 0.76640 0.55780 -0.14200
N 	N 	0.91340 0.84390 0.90580 -0.18500
N 	N 	0.27530 0.97180 0.27010 -0.19800
N 	N 	0.27960 0.18730 0.92070 -0.20200
N 	N 	0.12540 0.01280 0.97160 -0.14100
N 	N 	0.12260 0.96310 0.05730 -0.13800
N 	N 	0.21110 0.04950 0.06340 -0.14900
Ag	Ag	0.65577 0.95693 0.13294 0.51000
Ag	Ag	0.67805 0.25558 0.63341 0.51300
C 	C 	0.40240 0.47100 0.50070 0.10100
C 	C 	0.22290 0.63820 0.49150 -0.12300
H 	H 	0.20200 0.63460 0.45140 0.07200
C 	C 	0.70260 0.08420 0.99600 -0.13200
H 	H 	0.68040 0.08840 0.95600 0.08500
C 	C 	0.87670 0.25650 0.99930 0.09700
C 	C 	0.49660 0.38480 0.50520 -0.13400
H 	H 	0.47710 0.38350 0.46500 0.08600
C 	C 	0.96720 0.31030 0.09040 -0.13800
H 	H 	0.94600 0.28860 0.11180 0.08100
C 	C 	0.94040 0.30140 0.03180 0.06100
C 	C 	0.31840 0.55240 0.49440 0.09700
C 	C 	0.79060 0.22600 0.91400 0.10100
C 	C 	0.55580 0.34440 0.53680 0.08400
H 	H 	0.57540 0.31580 0.51660 -0.01100
C 	C 	0.46670 0.42720 0.53460 0.06700
C 	C 	0.75740 0.23660 0.85030 0.06200
C 	C 	0.28010 0.65320 0.60930 0.04900
H 	H 	0.30000 0.65830 0.64930 -0.01800
C 	C 	0.32070 0.45650 0.32020 -0.13700
H 	H 	0.36500 0.43950 0.34030 0.08200
C 	C 	0.76450 0.12130 0.02630 0.06600
C 	C 	0.76450 0.06440 0.11250 0.07600
H 	H 	0.78580 0.05750 0.15250 -0.00600
C 	C 	0.28550 0.60110 0.52360 0.04700
C 	C 	0.97440 0.33500 0.00200 -0.14100
H 	H 	0.95720 0.33080 0.96190 0.07400
C 	C 	0.79520 0.17240 0.99670 0.10300
C 	C 	0.32030 0.50210 0.41380 0.09600
C 	C 	0.28780 0.49180 0.34940 0.06000
C 	C 	0.79610 0.10950 0.08620 -0.12700
H 	H 	0.83820 0.13200 0.10800 0.08200
C 	C 	0.31390 0.61000 0.58280 -0.12100
H 	H 	0.35560 0.58720 0.60520 0.07400
C 	C 	0.67480 0.04120 0.02670 0.08500
H 	H 	0.63250 0.01870 0.00620 -0.01100
C 	C 	0.02690 0.35260 0.11720 0.06300
H 	H 	0.04410 0.36050 0.15700 -0.01500
C 	C 	0.03280 0.37380 0.03230 0.06800
H 	H 	0.05500 0.39610 0.01190 -0.01700
C 	C 	0.19390 0.50480 0.25900 0.07900
H 	H 	0.14970 0.52160 0.23810 -0.02600
C 	C 	0.19340 0.68060 0.52190 0.06200
H 	H 	0.15230 0.70560 0.50080 -0.00500
C 	C 	0.49780 0.42800 0.59430 -0.13600
H 	H 	0.48010 0.45770 0.61540 0.08000
C 	C 	0.22210 0.51610 0.31800 -0.15000
H 	H 	0.19770 0.53950 0.33610 0.07700
C 	C 	0.55570 0.38350 0.62180 0.07900
H 	H 	0.57460 0.38080 0.66200 -0.00400
C 	C 	0.28820 0.44620 0.26120 0.07400
H 	H 	0.31090 0.42080 0.24230 -0.01200
C 	C 	0.75500 0.29440 0.76440 0.07000
H 	H 	0.77430 0.32890 0.74700 -0.01600
C 	C 	0.69790 0.19900 0.81680 -0.14000
H 	H 	0.67540 0.16790 0.83330 0.08400
C 	C 	0.78540 0.28710 0.82350 -0.13700
H 	H 	0.82430 0.31580 0.84530 0.07200
C 	C 	0.67260 0.20920 0.75750 0.08100
H 	H 	0.63340 0.18160 0.73470 -0.01700
N 	N 	0.70450 0.03000 0.08340 -0.19000
N 	N 	0.06060 0.38230 0.08930 -0.21000
N 	N 	0.69950 0.25470 0.73070 -0.19700
N 	N 	0.76250 0.17700 0.93870 -0.13700
N 	N 	0.85220 0.21030 0.02890 -0.13700
N 	N 	0.84750 0.26640 0.94220 -0.14200
N 	N 	0.58660 0.34390 0.59420 -0.18600
N 	N 	0.22470 0.47180 0.22990 -0.19800
N 	N 	0.22040 0.68730 0.57930 -0.20100
N 	N 	0.37460 0.51280 0.52840 -0.14200
N 	N 	0.37740 0.46310 0.44270 -0.13700
N 	N 	0.28890 0.54950 0.43660 -0.14900
Ag	Ag	0.15577 0.45693 0.13294 0.51000
Ag	Ag	0.17805 0.75558 0.63341 0.51300
C 	C 	0.90240 0.97100 0.50070 0.10100
C 	C 	0.72290 0.13820 0.49150 -0.12300
H 	H 	0.70200 0.13460 0.45140 0.07200
C 	C 	0.20260 0.58420 0.99600 -0.12600
H 	H 	0.18040 0.58840 0.95600 0.08300
C 	C 	0.37670 0.75650 0.99930 0.09800
C 	C 	0.99660 0.88480 0.50520 -0.13400
H 	H 	0.97710 0.88350 0.46500 0.08700
C 	C 	0.46720 0.81030 0.09040 -0.14100
H 	H 	0.44600 0.78860 0.11180 0.08200
C 	C 	0.44040 0.80140 0.03180 0.06300
C 	C 	0.81840 0.05240 0.49440 0.09700
C 	C 	0.29060 0.72600 0.91400 0.10200
C 	C 	0.05580 0.84440 0.53680 0.08400
H 	H 	0.07540 0.81580 0.51660 -0.01100
C 	C 	0.96670 0.92720 0.53460 0.06700
C 	C 	0.25740 0.73660 0.85030 0.06200
C 	C 	0.78010 0.15320 0.60930 0.04900
H 	H 	0.80000 0.15830 0.64930 -0.01800
C 	C 	0.82070 0.95650 0.32020 -0.13700
H 	H 	0.86500 0.93950 0.34030 0.08200
C 	C 	0.26450 0.62130 0.02630 0.06200
C 	C 	0.26450 0.56440 0.11250 0.07400
H 	H 	0.28580 0.55750 0.15250 -0.00600
C 	C 	0.78550 0.10110 0.52360 0.04700
C 	C 	0.47440 0.83500 0.00200 -0.14600
H 	H 	0.45720 0.83080 0.96190 0.07600
C 	C 	0.29520 0.67240 0.99670 0.10600
C 	C 	0.82030 0.00210 0.41380 0.09600
C 	C 	0.78780 0.99180 0.34940 0.06000
C 	C 	0.29610 0.60950 0.08620 -0.12400
H 	H 	0.33820 0.63200 0.10800 0.08100
C 	C 	0.81390 0.11000 0.58280 -0.12100
H 	H 	0.85560 0.08720 0.60520 0.07400
C 	C 	0.17480 0.54120 0.02670 0.08100
H 	H 	0.13250 0.51870 0.00620 -0.01000
C 	C 	0.52690 0.85260 0.11720 0.06500
H 	H 	0.54410 0.86050 0.15700 -0.01600
C 	C 	0.53280 0.87380 0.03230 0.07100
H 	H 	0.55500 0.89610 0.01190 -0.01800
C 	C 	0.69390 0.00480 0.25900 0.07900
H 	H 	0.64970 0.02160 0.23810 -0.02500
C 	C 	0.69340 0.18060 0.52190 0.06200
H 	H 	0.65230 0.20560 0.50080 -0.00500
C 	C 	0.99780 0.92800 0.59430 -0.13600
H 	H 	0.98010 0.95770 0.61540 0.08000
C 	C 	0.72210 0.01610 0.31800 -0.15000
H 	H 	0.69770 0.03950 0.33610 0.07700
C 	C 	0.05570 0.88350 0.62180 0.07900
H 	H 	0.07460 0.88080 0.66200 -0.00400
C 	C 	0.78820 0.94620 0.26120 0.07400
H 	H 	0.81090 0.92080 0.24230 -0.01100
C 	C 	0.25500 0.79440 0.76440 0.07000
H 	H 	0.27430 0.82890 0.74700 -0.01600
C 	C 	0.19790 0.69900 0.81680 -0.14000
H 	H 	0.17540 0.66790 0.83330 0.08400
C 	C 	0.28540 0.78710 0.82350 -0.13700
H 	H 	0.32430 0.81580 0.84530 0.07200
C 	C 	0.17260 0.70920 0.75750 0.08100
H 	H 	0.13340 0.68160 0.73470 -0.01700
N 	N 	0.20450 0.53000 0.08340 -0.18900
N 	N 	0.56060 0.88230 0.08930 -0.21100
N 	N 	0.19950 0.75470 0.73070 -0.19700
N 	N 	0.26250 0.67700 0.93870 -0.13800
N 	N 	0.35220 0.71030 0.02890 -0.13900
N 	N 	0.34750 0.76640 0.94220 -0.14200
N 	N 	0.08660 0.84390 0.59420 -0.18600
N 	N 	0.72470 0.97180 0.22990 -0.19800
N 	N 	0.72040 0.18730 0.57930 -0.20100
N 	N 	0.87460 0.01280 0.52840 -0.14200
N 	N 	0.87740 0.96310 0.44270 -0.13700
N 	N 	0.78890 0.04950 0.43660 -0.14900
Ag	Ag	0.65577 0.04307 0.63294 0.51000
Ag	Ag	0.67805 0.74442 0.13341 0.51300
C 	C 	0.40240 0.52900 0.00070 0.10000
C 	C 	0.22290 0.36180 0.99150 -0.12100
H 	H 	0.20200 0.36540 0.95140 0.07100
C 	C 	0.70260 0.91580 0.49600 -0.12900
H 	H 	0.68040 0.91160 0.45600 0.08400
C 	C 	0.87670 0.74350 0.49930 0.09800
C 	C 	0.49660 0.61520 0.00520 -0.13400
H 	H 	0.47710 0.61650 0.96500 0.08700
C 	C 	0.96720 0.68970 0.59040 -0.14200
H 	H 	0.94600 0.71140 0.61180 0.08200
C 	C 	0.94040 0.69860 0.53180 0.06300
C 	C 	0.31840 0.44760 0.99440 0.09800
C 	C 	0.79060 0.77400 0.41400 0.10200
C 	C 	0.55580 0.65560 0.03680 0.08400
H 	H 	0.57540 0.68420 0.01660 -0.01100
C 	C 	0.46670 0.57280 0.03460 0.06700
C 	C 	0.75740 0.76340 0.35030 0.06200
C 	C 	0.28010 0.34680 0.10930 0.04800
H 	H 	0.30000 0.34170 0.14930 -0.01800
C 	C 	0.32070 0.54350 0.82020 -0.13700
H 	H 	0.36500 0.56050 0.84030 0.08200
C 	C 	0.76450 0.87870 0.52630 0.06400
C 	C 	0.76450 0.93560 0.61250 0.07500
H 	H 	0.78580 0.94250 0.65250 -0.00600
C 	C 	0.28550 0.39890 0.02360 0.04400
C 	C 	0.97440 0.66500 0.50200 -0.14600
H 	H 	0.95720 0.66920 0.46190 0.07600
C 	C 	0.79520 0.82760 0.49670 0.10500
C 	C 	0.32030 0.49790 0.91380 0.09600
C 	C 	0.28780 0.50820 0.84940 0.06000
C 	C 	0.79610 0.89050 0.58620 -0.12500
H 	H 	0.83820 0.86800 0.60800 0.08200
C 	C 	0.31390 0.39000 0.08280 -0.12000
H 	H 	0.35560 0.41280 0.10520 0.07400
C 	C 	0.67480 0.95880 0.52670 0.08300
H 	H 	0.63250 0.98130 0.50620 -0.01000
C 	C 	0.02690 0.64740 0.61720 0.06500
H 	H 	0.04410 0.63950 0.65700 -0.01600
C 	C 	0.03280 0.62620 0.53230 0.07100
H 	H 	0.05500 0.60390 0.51190 -0.01800
C 	C 	0.19390 0.49520 0.75900 0.07900
H 	H 	0.14970 0.47840 0.73810 -0.02500
C 	C 	0.19340 0.31940 0.02190 0.06000
H 	H 	0.15230 0.29440 0.00080 -0.00500
C 	C 	0.49780 0.57200 0.09430 -0.13600
H 	H 	0.48010 0.54230 0.11540 0.08000
C 	C 	0.22210 0.48390 0.81800 -0.15000
H 	H 	0.19770 0.46050 0.83610 0.07700
C 	C 	0.55570 0.61650 0.12180 0.07900
H 	H 	0.57460 0.61920 0.16200 -0.00400
C 	C 	0.28820 0.55380 0.76120 0.07400
H 	H 	0.31090 0.57920 0.74230 -0.01100
C 	C 	0.75500 0.70560 0.26440 0.07000
H 	H 	0.77430 0.67110 0.24700 -0.01600
C 	C 	0.69790 0.80100 0.31680 -0.14000
H 	H 	0.67540 0.83210 0.33330 0.08400
C 	C 	0.78540 0.71290 0.32350 -0.13700
H 	H 	0.82430 0.68420 0.34530 0.07200
C 	C 	0.67260 0.79080 0.25750 0.08100
H 	H 	0.63340 0.81840 0.23470 -0.01700
N 	N 	0.70450 0.97000 0.58340 -0.19000
N 	N 	0.06060 0.61770 0.58930 -0.21100
N 	N 	0.69950 0.74530 0.23070 -0.19700
N 	N 	0.76250 0.82300 0.43870 -0.13800
N 	N 	0.85220 0.78970 0.52890 -0.13800
N 	N 	0.84750 0.73360 0.44220 -0.14200
N 	N 	0.58660 0.65610 0.09420 -0.18600
N 	N 	0.22470 0.52820 0.72990 -0.19800
N 	N 	0.22040 0.31270 0.07930 -0.20100
N 	N 	0.37460 0.48720 0.02840 -0.14200
N 	N 	0.37740 0.53690 0.94270 -0.13700
N 	N 	0.28890 0.45050 0.93660 -0.15000
Ag	Ag	0.15577 0.54307 0.63294 0.51000
Ag	Ag	0.17805 0.24442 0.13341 0.51300
C 	C 	0.90240 0.02900 0.00070 0.10200
C 	C 	0.72290 0.86180 0.99150 -0.12700
H 	H 	0.70200 0.86540 0.95140 0.07300
C 	C 	0.20260 0.41580 0.49600 -0.12900
H 	H 	0.18040 0.41160 0.45600 0.08400
C 	C 	0.37670 0.24350 0.49930 0.09800
C 	C 	0.99660 0.11520 0.00520 -0.12800
H 	H 	0.97710 0.11650 0.96500 0.08400
C 	C 	0.46720 0.18970 0.59040 -0.14100
H 	H 	0.44600 0.21140 0.61180 0.08200
C 	C 	0.44040 0.19860 0.53180 0.06300
C 	C 	0.81840 0.94760 0.99440 0.09500
C 	C 	0.29060 0.27400 0.41400 0.10200
C 	C 	0.05580 0.15560 0.03680 0.08000
H 	H 	0.07540 0.18420 0.01660 -0.01000
C 	C 	0.96670 0.07280 0.03460 0.06400
C 	C 	0.25740 0.26340 0.35030 0.06200
C 	C 	0.78010 0.84680 0.10930 0.05000
H 	H 	0.80000 0.84170 0.14930 -0.01900
C 	C 	0.82070 0.04350 0.82020 -0.13700
H 	H 	0.86500 0.06050 0.84030 0.08200
C 	C 	0.26450 0.37870 0.52630 0.06400
C 	C 	0.26450 0.43560 0.61250 0.07500
H 	H 	0.28580 0.44250 0.65250 -0.00600
C 	C 	0.78550 0.89890 0.02360 0.05000
C 	C 	0.47440 0.16500 0.50200 -0.14500
H 	H 	0.45720 0.16920 0.46190 0.07600
C 	C 	0.29520 0.32760 0.49670 0.10500
C 	C 	0.82030 0.99790 0.91380 0.09600
C 	C 	0.78780 0.00820 0.84940 0.06000
C 	C 	0.29610 0.39050 0.58620 -0.12500
H 	H 	0.33820 0.36800 0.60800 0.08200
C 	C 	0.81390 0.89000 0.08280 -0.12300
H 	H 	0.85560 0.91280 0.10520 0.07500
C 	C 	0.17480 0.45880 0.52670 0.08300
H 	H 	0.13250 0.48130 0.50620 -0.01000
C 	C 	0.52690 0.14740 0.61720 0.06500
H 	H 	0.54410 0.13950 0.65700 -0.01600
C 	C 	0.53280 0.12620 0.53230 0.07100
H 	H 	0.55500 0.10390 0.51190 -0.01800
C 	C 	0.69390 0.99520 0.75900 0.07900
H 	H 	0.64970 0.97840 0.73810 -0.02600
C 	C 	0.69340 0.81940 0.02190 0.06400
H 	H 	0.65230 0.79440 0.00080 -0.00600
C 	C 	0.99780 0.07200 0.09430 -0.13300
H 	H 	0.98010 0.04230 0.11540 0.07900
C 	C 	0.72210 0.98390 0.81800 -0.15000
H 	H 	0.69770 0.96050 0.83610 0.07700
C 	C 	0.05570 0.11650 0.12180 0.07600
H 	H 	0.07460 0.11920 0.16200 -0.00300
C 	C 	0.78820 0.05380 0.76120 0.07400
H 	H 	0.81090 0.07920 0.74230 -0.01200
C 	C 	0.25500 0.20560 0.26440 0.07000
H 	H 	0.27430 0.17110 0.24700 -0.01600
C 	C 	0.19790 0.30100 0.31680 -0.14000
H 	H 	0.17540 0.33210 0.33330 0.08400
C 	C 	0.28540 0.21290 0.32350 -0.13700
H 	H 	0.32430 0.18420 0.34530 0.07200
C 	C 	0.17260 0.29080 0.25750 0.08100
H 	H 	0.13340 0.31840 0.23470 -0.01700
N 	N 	0.20450 0.47000 0.58340 -0.19000
N 	N 	0.56060 0.11770 0.58930 -0.21100
N 	N 	0.19950 0.24530 0.23070 -0.19700
N 	N 	0.26250 0.32300 0.43870 -0.13800
N 	N 	0.35220 0.28970 0.52890 -0.13800
N 	N 	0.34750 0.23360 0.44220 -0.14200
N 	N 	0.08660 0.15610 0.09420 -0.18500
N 	N 	0.72470 0.02820 0.72990 -0.19800
N 	N 	0.72040 0.81270 0.07930 -0.20200
N 	N 	0.87460 0.98720 0.02840 -0.14100
N 	N 	0.87740 0.03690 0.94270 -0.13800
N 	N 	0.78890 0.95050 0.93660 -0.14900
Ag	Ag	0.34423 0.04307 0.86706 0.51000
Ag	Ag	0.32195 0.74442 0.36659 0.51300
C 	C 	0.59760 0.52900 0.49930 0.10100
C 	C 	0.77710 0.36180 0.50850 -0.12300
H 	H 	0.79800 0.36540 0.54860 0.07200
C 	C 	0.29740 0.91580 0.00400 -0.13200
H 	H 	0.31960 0.91160 0.04400 0.08500
C 	C 	0.12330 0.74350 0.00070 0.09700
C 	C 	0.50340 0.61520 0.49480 -0.13400
H 	H 	0.52290 0.61650 0.53500 0.08600
C 	C 	0.03280 0.68970 0.90960 -0.13800
H 	H 	0.05400 0.71140 0.88820 0.08100
C 	C 	0.05960 0.69860 0.96820 0.06100
C 	C 	0.68160 0.44760 0.50560 0.09700
C 	C 	0.20940 0.77400 0.08600 0.10100
C 	C 	0.44420 0.65560 0.46320 0.08400
H 	H 	0.42460 0.68420 0.48340 -0.01100
C 	C 	0.53330 0.57280 0.46540 0.06700
C 	C 	0.24260 0.76340 0.14970 0.06200
C 	C 	0.71990 0.34680 0.39070 0.04900
H 	H 	0.70000 0.34170 0.35070 -0.01800
C 	C 	0.67930 0.54350 0.67980 -0.13700
H 	H 	0.63500 0.56050 0.65970 0.08200
C 	C 	0.23550 0.87870 0.97370 0.06600
C 	C 	0.23550 0.93560 0.88750 0.07600
H 	H 	0.21420 0.94250 0.84750 -0.00600
C 	C 	0.71450 0.39890 0.47640 0.04700
C 	C 	0.02560 0.66500 0.99800 -0.14100
H 	H 	0.04280 0.66920 0.03810 0.07400
C 	C 	0.20480 0.82760 0.00330 0.10300
C 	C 	0.67970 0.49790 0.58620 0.09600
C 	C 	0.71220 0.50820 0.65060 0.06000
C 	C 	0.20390 0.89050 0.91380 -0.12700
H 	H 	0.16180 0.86800 0.89200 0.08200
C 	C 	0.68610 0.39000 0.41720 -0.12100
H 	H 	0.64440 0.41280 0.39480 0.07400
C 	C 	0.32520 0.95880 0.97330 0.08500
H 	H 	0.36750 0.98130 0.99380 -0.01100
C 	C 	0.97310 0.64740 0.88280 0.06300
H 	H 	0.95590 0.63950 0.84300 -0.01500
C 	C 	0.96720 0.62620 0.96770 0.06800
H 	H 	0.94500 0.60390 0.98810 -0.01700
C 	C 	0.80610 0.49520 0.74100 0.07900
H 	H 	0.85030 0.47840 0.76190 -0.02600
C 	C 	0.80660 0.31940 0.47810 0.06200
H 	H 	0.84770 0.29440 0.49920 -0.00500
C 	C 	0.50220 0.57200 0.40570 -0.13600
H 	H 	0.51990 0.54230 0.38460 0.08000
C 	C 	0.77790 0.48390 0.68200 -0.15000
H 	H 	0.80230 0.46050 0.66390 0.07700
C 	C 	0.44430 0.61650 0.37820 0.07900
H 	H 	0.42540 0.61920 0.33800 -0.00400
C 	C 	0.71180 0.55380 0.73880 0.07400
H 	H 	0.68910 0.57920 0.75770 -0.01200
C 	C 	0.24500 0.70560 0.23560 0.07000
H 	H 	0.22570 0.67110 0.25300 -0.01600
C 	C 	0.30210 0.80100 0.18320 -0.14000
H 	H 	0.32460 0.83210 0.16670 0.08400
C 	C 	0.21460 0.71290 0.17650 -0.13700
H 	H 	0.17570 0.68420 0.15470 0.07200
C 	C 	0.32740 0.79080 0.24250 0.08100
H 	H 	0.36660 0.81840 0.26530 -0.01700
N 	N 	0.29550 0.97000 0.91660 -0.19000
N 	N 	0.93940 0.61770 0.91070 -0.21000
N 	N 	0.30050 0.74530 0.26930 -0.19700
N 	N 	0.23750 0.82300 0.06130 -0.13700
N 	N 	0.14780 0.78970 0.97110 -0.13700
N 	N 	0.15250 0.73360 0.05780 -0.14200
N 	N 	0.41340 0.65610 0.40580 -0.18600
N 	N 	0.77530 0.52820 0.77010 -0.19800
N 	N 	0.77960 0.31270 0.42070 -0.20100
N 	N 	0.62540 0.48720 0.47160 -0.14200
N 	N 	0.62260 0.53690 0.55730 -0.13700
N 	N 	0.71110 0.45050 0.56340 -0.14900
Ag	Ag	0.84423 0.54307 0.86706 0.51000
Ag	Ag	0.82195 0.24442 0.36659 0.51300
C 	C 	0.09760 0.02900 0.49930 0.10100
C 	C 	0.27710 0.86180 0.50850 -0.12300
H 	H 	0.29800 0.86540 0.54860 0.07200
C 	C 	0.79740 0.41580 0.00400 -0.12600
H 	H 	0.81960 0.41160 0.04400 0.08300
C 	C 	0.62330 0.24350 0.00070 0.09800
C 	C 	0.00340 0.11520 0.49480 -0.13400
H 	H 	0.02290 0.11650 0.53500 0.08700
C 	C 	0.53280 0.18970 0.90960 -0.14100
H 	H 	0.55400 0.21140 0.88820 0.08200
C 	C 	0.55960 0.19860 0.96820 0.06300
C 	C 	0.18160 0.94760 0.50560 0.09700
C 	C 	0.70940 0.27400 0.08600 0.10200
C 	C 	0.94420 0.15560 0.46320 0.08400
H 	H 	0.92460 0.18420 0.48340 -0.01100
C 	C 	0.03330 0.07280 0.46540 0.06700
C 	C 	0.74260 0.26340 0.14970 0.06200
C 	C 	0.21990 0.84680 0.39070 0.04900
H 	H 	0.20000 0.84170 0.35070 -0.01800
C 	C 	0.17930 0.04350 0.67980 -0.13700
H 	H 	0.13500 0.06050 0.65970 0.08200
C 	C 	0.73550 0.37870 0.97370 0.06200
C 	C 	0.73550 0.43560 0.88750 0.07400
H 	H 	0.71420 0.44250 0.84750 -0.00600
C 	C 	0.21450 0.89890 0.47640 0.04700
C 	C 	0.52560 0.16500 0.99800 -0.14600
H 	H 	0.54280 0.16920 0.03810 0.07600
C 	C 	0.70480 0.32760 0.00330 0.10600
C 	C 	0.17970 0.99790 0.58620 0.09600
C 	C 	0.21220 0.00820 0.65060 0.06000
C 	C 	0.70390 0.39050 0.91380 -0.12400
H 	H 	0.66180 0.36800 0.89200 0.08100
C 	C 	0.18610 0.89000 0.41720 -0.12100
H 	H 	0.14440 0.91280 0.39480 0.07400
C 	C 	0.82520 0.45880 0.97330 0.08100
H 	H 	0.86750 0.48130 0.99380 -0.01000
C 	C 	0.47310 0.14740 0.88280 0.06500
H 	H 	0.45590 0.13950 0.84300 -0.01600
C 	C 	0.46720 0.12620 0.96770 0.07100
H 	H 	0.44500 0.10390 0.98810 -0.01800
C 	C 	0.30610 0.99520 0.74100 0.07900
H 	H 	0.35030 0.97840 0.76190 -0.02500
C 	C 	0.30660 0.81940 0.47810 0.06200
H 	H 	0.34770 0.79440 0.49920 -0.00500
C 	C 	0.00220 0.07200 0.40570 -0.13600
H 	H 	0.01990 0.04230 0.38460 0.08000
C 	C 	0.27790 0.98390 0.68200 -0.15000
H 	H 	0.30230 0.96050 0.66390 0.07700
C 	C 	0.94430 0.11650 0.37820 0.07900
H 	H 	0.92540 0.11920 0.33800 -0.00400
C 	C 	0.21180 0.05380 0.73880 0.07400
H 	H 	0.18910 0.07920 0.75770 -0.01100
C 	C 	0.74500 0.20560 0.23560 0.07000
H 	H 	0.72570 0.17110 0.25300 -0.01600
C 	C 	0.80210 0.30100 0.18320 -0.14000
H 	H 	0.82460 0.33210 0.16670 0.08400
C 	C 	0.71460 0.21290 0.17650 -0.13700
H 	H 	0.67570 0.18420 0.15470 0.07200
C 	C 	0.82740 0.29080 0.24250 0.08100
H 	H 	0.86660 0.31840 0.26530 -0.01700
N 	N 	0.79550 0.47000 0.91660 -0.18900
N 	N 	0.43940 0.11770 0.91070 -0.21100
N 	N 	0.80050 0.24530 0.26930 -0.19700
N 	N 	0.73750 0.32300 0.06130 -0.13800
N 	N 	0.64780 0.28970 0.97110 -0.13900
N 	N 	0.65250 0.23360 0.05780 -0.14200
N 	N 	0.91340 0.15610 0.40580 -0.18600
N 	N 	0.27530 0.02820 0.77010 -0.19800
N 	N 	0.27960 0.81270 0.42070 -0.20100
N 	N 	0.12540 0.98720 0.47160 -0.14200
N 	N 	0.12260 0.03690 0.55730 -0.13700
N 	N 	0.21110 0.95050 0.56340 -0.14900
