data_crystal

_cell_length_a 21.98480
_cell_length_b 16.56170
_cell_length_c 25.64430
_cell_angle_alpha 90.00000
_cell_angle_beta  115.36600
_cell_angle_gamma 90.00000

_symmetry_space_group_name_	'P 1'
_symmetry_space_group_name_H-M	'P 1'

loop_
_symmetry_equiv_pos_as_xyz
  x,y,z

loop_
_atom_site_label
_atom_site_type_symbol
_atom_site_fract_x
_atom_site_fract_y
_atom_site_fract_z
_atom_site_charge
Ag	Ag	0.27390 0.20897 0.86825 0.51100
Ag	Ag	0.79500 0.50132 0.36769 0.51400
C 	C 	0.62780 0.47600 0.08782 0.10300
C 	C 	0.42270 0.90040 0.39260 0.05000
H 	H 	0.40290 0.90500 0.35260 -0.01700
C 	C 	0.65380 0.71970 0.50129 0.10200
C 	C 	0.62800 0.56160 0.91130 -0.13200
H 	H 	0.58550 0.53980 0.89000 0.08100
C 	C 	0.62800 0.50700 0.00244 0.10100
C 	C 	0.48210 0.88720 0.50940 -0.12400
H 	H 	0.50140 0.88420 0.54950 0.07200
C 	C 	0.40310 0.31690 0.88920 0.07600
H 	H 	0.38460 0.31130 0.84930 -0.00600
C 	C 	0.74340 0.63350 0.49629 -0.13000
H 	H 	0.76390 0.63300 0.53640 0.08500
C 	C 	0.57530 0.80070 0.50720 0.09700
C 	C 	0.65990 0.55230 0.97032 0.05700
C 	C 	0.72290 0.58650 0.99940 -0.13600
H 	H 	0.74550 0.58210 0.03940 0.07300
C 	C 	0.77190 0.59270 0.46560 0.07800
H 	H 	0.81220 0.56540 0.48580 -0.00800
C 	C 	0.75170 0.62660 0.96920 0.06000
H 	H 	0.79420 0.64900 0.98960 -0.01400
C 	C 	0.45730 0.33410 0.00560 -0.12600
H 	H 	0.47500 0.33800 0.04560 0.08200
C 	C 	0.65830 0.48620 0.15180 0.05800
C 	C 	0.46090 0.36100 0.91560 -0.12700
H 	H 	0.48130 0.38360 0.89390 0.08300
C 	C 	0.68370 0.67510 0.46686 0.06500
C 	C 	0.69020 0.74260 0.65190 0.05400
C 	C 	0.48230 0.85760 0.41865 -0.12300
H 	H 	0.50160 0.83410 0.39640 0.07500
C 	C 	0.54980 0.42280 0.00565 0.10400
C 	C 	0.77930 0.69870 0.74030 0.07000
H 	H 	0.82150 0.67500 0.75940 -0.01000
C 	C 	0.75270 0.70700 0.68110 -0.13100
H 	H 	0.77670 0.68890 0.66100 0.08000
C 	C 	0.66100 0.60420 0.88440 0.05900
H 	H 	0.63880 0.61120 0.84460 -0.01400
C 	C 	0.65650 0.76800 0.68410 -0.14200
H 	H 	0.61420 0.79180 0.66620 0.07400
C 	C 	0.71220 0.53800 0.17830 -0.13100
H 	H 	0.72840 0.56860 0.15660 0.07000
C 	C 	0.68690 0.75730 0.74290 0.07300
H 	H 	0.66400 0.77500 0.76400 -0.02400
C 	C 	0.39890 0.29060 0.97470 0.07900
H 	H 	0.37760 0.26640 0.99510 -0.00900
C 	C 	0.65830 0.75220 0.58790 0.09800
C 	C 	0.74140 0.54340 0.23770 0.06400
H 	H 	0.77730 0.57880 0.25530 -0.01300
C 	C 	0.51270 0.85020 0.47797 0.04900
C 	C 	0.65560 0.67460 0.40750 -0.13500
H 	H 	0.61630 0.70330 0.38640 0.08000
C 	C 	0.48910 0.37200 0.97511 0.06400
C 	C 	0.63350 0.44500 0.18530 -0.13500
H 	H 	0.59530 0.41270 0.16870 0.08200
C 	C 	0.42230 0.92860 0.47970 0.06300
H 	H 	0.40210 0.95300 0.50100 -0.00500
C 	C 	0.66750 0.45350 0.24450 0.07700
H 	H 	0.65180 0.42430 0.26710 -0.01700
C 	C 	0.68640 0.63120 0.37990 0.07900
H 	H 	0.66600 0.62990 0.33980 -0.00400
N 	N 	0.37154 0.28130 0.91767 -0.18900
N 	N 	0.72209 0.63560 0.91184 -0.20800
N 	N 	0.72090 0.50030 0.27143 -0.19500
N 	N 	0.57474 0.46100 0.97288 -0.13900
N 	N 	0.65628 0.51820 0.05968 -0.14200
N 	N 	0.57504 0.42750 0.06315 -0.13800
N 	N 	0.74411 0.59050 0.40749 -0.18400
N 	N 	0.74680 0.72340 0.77159 -0.19600
N 	N 	0.39200 0.93550 0.42218 -0.20100
N 	N 	0.59761 0.76040 0.47329 -0.14100
N 	N 	0.68682 0.71240 0.55894 -0.13700
N 	N 	0.60415 0.79890 0.56459 -0.15000
Ag	Ag	0.77390 0.70897 0.86825 0.51000
Ag	Ag	0.29500 0.00132 0.36769 0.51300
C 	C 	0.12780 0.97600 0.08782 0.10200
C 	C 	0.92270 0.40040 0.39260 0.04900
H 	H 	0.90290 0.40500 0.35260 -0.01800
C 	C 	0.15380 0.21970 0.50129 0.10100
C 	C 	0.12800 0.06160 0.91130 -0.13300
H 	H 	0.08550 0.03980 0.89000 0.08000
C 	C 	0.12800 0.00700 0.00244 0.09900
C 	C 	0.98210 0.38720 0.50940 -0.12500
H 	H 	0.00140 0.38420 0.54950 0.07200
C 	C 	0.90310 0.81690 0.88920 0.07500
H 	H 	0.88460 0.81130 0.84930 -0.00600
C 	C 	0.24340 0.13350 0.49629 -0.13000
H 	H 	0.26390 0.13300 0.53640 0.08500
C 	C 	0.07530 0.30070 0.50720 0.09700
C 	C 	0.15990 0.05230 0.97032 0.05800
C 	C 	0.22290 0.08650 0.99940 -0.13400
H 	H 	0.24550 0.08210 0.03940 0.07200
C 	C 	0.27190 0.09270 0.46560 0.07800
H 	H 	0.31220 0.06540 0.48580 -0.00800
C 	C 	0.25170 0.12660 0.96920 0.05900
H 	H 	0.29420 0.14900 0.98960 -0.01400
C 	C 	0.95730 0.83410 0.00560 -0.12200
H 	H 	0.97500 0.83800 0.04560 0.08100
C 	C 	0.15830 0.98620 0.15180 0.05800
C 	C 	0.96090 0.86100 0.91560 -0.12600
H 	H 	0.98130 0.88360 0.89390 0.08200
C 	C 	0.18370 0.17510 0.46686 0.06500
C 	C 	0.19020 0.24260 0.65190 0.05400
C 	C 	0.98230 0.35760 0.41865 -0.12200
H 	H 	0.00160 0.33410 0.39640 0.07500
C 	C 	0.04980 0.92280 0.00565 0.10400
C 	C 	0.27930 0.19870 0.74030 0.07000
H 	H 	0.32150 0.17500 0.75940 -0.01000
C 	C 	0.25270 0.20700 0.68110 -0.13100
H 	H 	0.27670 0.18890 0.66100 0.08000
C 	C 	0.16100 0.10420 0.88440 0.05900
H 	H 	0.13880 0.11120 0.84460 -0.01300
C 	C 	0.15650 0.26800 0.68410 -0.14200
H 	H 	0.11420 0.29180 0.66620 0.07400
C 	C 	0.21220 0.03800 0.17830 -0.13100
H 	H 	0.22840 0.06860 0.15660 0.07000
C 	C 	0.18690 0.25730 0.74290 0.07300
H 	H 	0.16400 0.27500 0.76400 -0.02300
C 	C 	0.89890 0.79060 0.97470 0.07700
H 	H 	0.87760 0.76640 0.99510 -0.00800
C 	C 	0.15830 0.25220 0.58790 0.09800
C 	C 	0.24140 0.04340 0.23770 0.06400
H 	H 	0.27730 0.07880 0.25530 -0.01300
C 	C 	0.01270 0.35020 0.47797 0.04900
C 	C 	0.15560 0.17460 0.40750 -0.13500
H 	H 	0.11630 0.20330 0.38640 0.08000
C 	C 	0.98910 0.87200 0.97511 0.06100
C 	C 	0.13350 0.94500 0.18530 -0.13500
H 	H 	0.09530 0.91270 0.16870 0.08200
C 	C 	0.92230 0.42860 0.47970 0.06300
H 	H 	0.90210 0.45300 0.50100 -0.00500
C 	C 	0.16750 0.95350 0.24450 0.07700
H 	H 	0.15180 0.92430 0.26710 -0.01700
C 	C 	0.18640 0.13120 0.37990 0.07900
H 	H 	0.16600 0.12990 0.33980 -0.00400
N 	N 	0.87154 0.78130 0.91767 -0.18900
N 	N 	0.22209 0.13560 0.91184 -0.20800
N 	N 	0.22090 0.00030 0.27143 -0.19500
N 	N 	0.07474 0.96100 0.97288 -0.13800
N 	N 	0.15628 0.01820 0.05968 -0.14200
N 	N 	0.07504 0.92750 0.06315 -0.13800
N 	N 	0.24411 0.09050 0.40749 -0.18400
N 	N 	0.24680 0.22340 0.77159 -0.19600
N 	N 	0.89200 0.43550 0.42218 -0.20100
N 	N 	0.09761 0.26040 0.47329 -0.14200
N 	N 	0.18682 0.21240 0.55894 -0.13700
N 	N 	0.10415 0.29890 0.56459 -0.15000
Ag	Ag	0.72610 0.20897 0.63175 0.51000
Ag	Ag	0.20500 0.50132 0.13231 0.51300
C 	C 	0.37220 0.47600 0.41218 0.10200
C 	C 	0.57730 0.90040 0.10740 0.04900
H 	H 	0.59710 0.90500 0.14740 -0.01800
C 	C 	0.34620 0.71970 0.99871 0.10100
C 	C 	0.37200 0.56160 0.58870 -0.13300
H 	H 	0.41450 0.53980 0.61000 0.07900
C 	C 	0.37200 0.50700 0.49756 0.10100
C 	C 	0.51790 0.88720 0.99060 -0.12700
H 	H 	0.49860 0.88420 0.95050 0.07300
C 	C 	0.59690 0.31690 0.61080 0.07600
H 	H 	0.61540 0.31130 0.65070 -0.00600
C 	C 	0.25660 0.63350 0.00371 -0.13100
H 	H 	0.23610 0.63300 0.96360 0.08600
C 	C 	0.42470 0.80070 0.99280 0.09700
C 	C 	0.34010 0.55230 0.52968 0.05700
C 	C 	0.27710 0.58650 0.50060 -0.13500
H 	H 	0.25450 0.58210 0.46060 0.07300
C 	C 	0.22810 0.59270 0.03440 0.07800
H 	H 	0.18780 0.56540 0.01420 -0.00900
C 	C 	0.24830 0.62660 0.53080 0.05900
H 	H 	0.20580 0.64900 0.51040 -0.01400
C 	C 	0.54270 0.33410 0.49440 -0.12500
H 	H 	0.52500 0.33800 0.45440 0.08200
C 	C 	0.34170 0.48620 0.34820 0.05800
C 	C 	0.53910 0.36100 0.58440 -0.12700
H 	H 	0.51870 0.38360 0.60610 0.08200
C 	C 	0.31630 0.67510 0.03314 0.06600
C 	C 	0.30980 0.74260 0.84810 0.05400
C 	C 	0.51770 0.85760 0.08135 -0.12300
H 	H 	0.49840 0.83410 0.10360 0.07500
C 	C 	0.45020 0.42280 0.49435 0.10400
C 	C 	0.22070 0.69870 0.75970 0.07000
H 	H 	0.17850 0.67500 0.74060 -0.01000
C 	C 	0.24730 0.70700 0.81890 -0.13100
H 	H 	0.22330 0.68890 0.83900 0.08000
C 	C 	0.33900 0.60420 0.61560 0.05900
H 	H 	0.36120 0.61120 0.65540 -0.01300
C 	C 	0.34350 0.76800 0.81590 -0.14200
H 	H 	0.38580 0.79180 0.83380 0.07400
C 	C 	0.28780 0.53800 0.32170 -0.13100
H 	H 	0.27160 0.56860 0.34340 0.07000
C 	C 	0.31310 0.75730 0.75710 0.07300
H 	H 	0.33600 0.77500 0.73600 -0.02400
C 	C 	0.60110 0.29060 0.52530 0.07900
H 	H 	0.62240 0.26640 0.50490 -0.00900
C 	C 	0.34170 0.75220 0.91210 0.09800
C 	C 	0.25860 0.54340 0.26230 0.06400
H 	H 	0.22270 0.57880 0.24470 -0.01300
C 	C 	0.48730 0.85020 0.02203 0.05000
C 	C 	0.34440 0.67460 0.09250 -0.13500
H 	H 	0.38370 0.70330 0.11360 0.08000
C 	C 	0.51090 0.37200 0.52489 0.06300
C 	C 	0.36650 0.44500 0.31470 -0.13500
H 	H 	0.40470 0.41270 0.33130 0.08200
C 	C 	0.57770 0.92860 0.02030 0.06400
H 	H 	0.59790 0.95300 0.99900 -0.00600
C 	C 	0.33250 0.45350 0.25550 0.07700
H 	H 	0.34820 0.42430 0.23290 -0.01700
C 	C 	0.31360 0.63120 0.12010 0.07900
H 	H 	0.33400 0.62990 0.16020 -0.00400
N 	N 	0.62846 0.28130 0.58233 -0.18900
N 	N 	0.27791 0.63560 0.58816 -0.20800
N 	N 	0.27910 0.50030 0.22857 -0.19500
N 	N 	0.42526 0.46100 0.52712 -0.13900
N 	N 	0.34372 0.51820 0.44032 -0.14200
N 	N 	0.42496 0.42750 0.43685 -0.13800
N 	N 	0.25589 0.59050 0.09251 -0.18400
N 	N 	0.25320 0.72340 0.72841 -0.19600
N 	N 	0.60800 0.93550 0.07782 -0.20100
N 	N 	0.40239 0.76040 0.02671 -0.14200
N 	N 	0.31318 0.71240 0.94106 -0.13700
N 	N 	0.39585 0.79890 0.93541 -0.15000
Ag	Ag	0.22610 0.70897 0.63175 0.51000
Ag	Ag	0.70500 0.00132 0.13231 0.51300
C 	C 	0.87220 0.97600 0.41218 0.10200
C 	C 	0.07730 0.40040 0.10740 0.05000
H 	H 	0.09710 0.40500 0.14740 -0.01800
C 	C 	0.84620 0.21970 0.99871 0.10000
C 	C 	0.87200 0.06160 0.58870 -0.13300
H 	H 	0.91450 0.03980 0.61000 0.07900
C 	C 	0.87200 0.00700 0.49756 0.10100
C 	C 	0.01790 0.38720 0.99060 -0.12300
H 	H 	0.99860 0.38420 0.95050 0.07100
C 	C 	0.09690 0.81690 0.61080 0.07600
H 	H 	0.11540 0.81130 0.65070 -0.00600
C 	C 	0.75660 0.13350 0.00371 -0.13000
H 	H 	0.73610 0.13300 0.96360 0.08500
C 	C 	0.92470 0.30070 0.99280 0.09600
C 	C 	0.84010 0.05230 0.52968 0.05700
C 	C 	0.77710 0.08650 0.50060 -0.13500
H 	H 	0.75450 0.08210 0.46060 0.07300
C 	C 	0.72810 0.09270 0.03440 0.07800
H 	H 	0.68780 0.06540 0.01420 -0.00800
C 	C 	0.74830 0.12660 0.53080 0.05900
H 	H 	0.70580 0.14900 0.51040 -0.01400
C 	C 	0.04270 0.83410 0.49440 -0.12500
H 	H 	0.02500 0.83800 0.45440 0.08200
C 	C 	0.84170 0.98620 0.34820 0.05800
C 	C 	0.03910 0.86100 0.58440 -0.12700
H 	H 	0.01870 0.88360 0.60610 0.08200
C 	C 	0.81630 0.17510 0.03314 0.06600
C 	C 	0.80980 0.24260 0.84810 0.05400
C 	C 	0.01770 0.35760 0.08135 -0.12500
H 	H 	0.99840 0.33410 0.10360 0.07600
C 	C 	0.95020 0.92280 0.49435 0.10400
C 	C 	0.72070 0.19870 0.75970 0.07000
H 	H 	0.67850 0.17500 0.74060 -0.01000
C 	C 	0.74730 0.20700 0.81890 -0.13100
H 	H 	0.72330 0.18890 0.83900 0.08000
C 	C 	0.83900 0.10420 0.61560 0.05900
H 	H 	0.86120 0.11120 0.65540 -0.01300
C 	C 	0.84350 0.26800 0.81590 -0.14200
H 	H 	0.88580 0.29180 0.83380 0.07400
C 	C 	0.78780 0.03800 0.32170 -0.13100
H 	H 	0.77160 0.06860 0.34340 0.07000
C 	C 	0.81310 0.25730 0.75710 0.07300
H 	H 	0.83600 0.27500 0.73600 -0.02400
C 	C 	0.10110 0.79060 0.52530 0.07900
H 	H 	0.12240 0.76640 0.50490 -0.00900
C 	C 	0.84170 0.25220 0.91210 0.09800
C 	C 	0.75860 0.04340 0.26230 0.06400
H 	H 	0.72270 0.07880 0.24470 -0.01300
C 	C 	0.98730 0.35020 0.02203 0.05000
C 	C 	0.84440 0.17460 0.09250 -0.13500
H 	H 	0.88370 0.20330 0.11360 0.08000
C 	C 	0.01090 0.87200 0.52489 0.06300
C 	C 	0.86650 0.94500 0.31470 -0.13500
H 	H 	0.90470 0.91270 0.33130 0.08200
C 	C 	0.07770 0.42860 0.02030 0.06000
H 	H 	0.09790 0.45300 0.99900 -0.00400
C 	C 	0.83250 0.95350 0.25550 0.07700
H 	H 	0.84820 0.92430 0.23290 -0.01700
C 	C 	0.81360 0.13120 0.12010 0.07900
H 	H 	0.83400 0.12990 0.16020 -0.00400
N 	N 	0.12846 0.78130 0.58233 -0.18900
N 	N 	0.77791 0.13560 0.58816 -0.20800
N 	N 	0.77910 0.00030 0.22857 -0.19500
N 	N 	0.92526 0.96100 0.52712 -0.13900
N 	N 	0.84372 0.01820 0.44032 -0.14200
N 	N 	0.92496 0.92750 0.43685 -0.13800
N 	N 	0.75589 0.09050 0.09251 -0.18400
N 	N 	0.75320 0.22340 0.72841 -0.19600
N 	N 	0.10800 0.43550 0.07782 -0.20100
N 	N 	0.90239 0.26040 0.02671 -0.14100
N 	N 	0.81318 0.21240 0.94106 -0.13700
N 	N 	0.89585 0.29890 0.93541 -0.15000
Ag	Ag	0.72610 0.79103 0.13175 0.51000
Ag	Ag	0.20500 0.49868 0.63231 0.51300
C 	C 	0.37220 0.52400 0.91218 0.10200
C 	C 	0.57730 0.09960 0.60740 0.04900
H 	H 	0.59710 0.09500 0.64740 -0.01800
C 	C 	0.34620 0.28030 0.49871 0.10100
C 	C 	0.37200 0.43840 0.08870 -0.13300
H 	H 	0.41450 0.46020 0.11000 0.08000
C 	C 	0.37200 0.49300 0.99756 0.10000
C 	C 	0.51790 0.11280 0.49060 -0.12500
H 	H 	0.49860 0.11580 0.45050 0.07200
C 	C 	0.59690 0.68310 0.11080 0.07600
H 	H 	0.61540 0.68870 0.15070 -0.00600
C 	C 	0.25660 0.36650 0.50371 -0.13000
H 	H 	0.23610 0.36700 0.46360 0.08500
C 	C 	0.42470 0.19930 0.49280 0.09700
C 	C 	0.34010 0.44770 0.02968 0.05700
C 	C 	0.27710 0.41350 0.00060 -0.13600
H 	H 	0.25450 0.41790 0.96060 0.07300
C 	C 	0.22810 0.40730 0.53440 0.07800
H 	H 	0.18780 0.43460 0.51420 -0.00800
C 	C 	0.24830 0.37340 0.03080 0.06000
H 	H 	0.20580 0.35100 0.01040 -0.01400
C 	C 	0.54270 0.66590 0.99440 -0.12600
H 	H 	0.52500 0.66200 0.95440 0.08200
C 	C 	0.34170 0.51380 0.84820 0.05800
C 	C 	0.53910 0.63900 0.08440 -0.12700
H 	H 	0.51870 0.61640 0.10610 0.08300
C 	C 	0.31630 0.32490 0.53314 0.06500
C 	C 	0.30980 0.25740 0.34810 0.05400
C 	C 	0.51770 0.14240 0.58135 -0.12300
H 	H 	0.49840 0.16590 0.60360 0.07500
C 	C 	0.45020 0.57720 0.99435 0.10400
C 	C 	0.22070 0.30130 0.25970 0.07000
H 	H 	0.17850 0.32500 0.24060 -0.01000
C 	C 	0.24730 0.29300 0.31890 -0.13100
H 	H 	0.22330 0.31110 0.33900 0.08000
C 	C 	0.33900 0.39580 0.11560 0.05900
H 	H 	0.36120 0.38880 0.15540 -0.01400
C 	C 	0.34350 0.23200 0.31590 -0.14200
H 	H 	0.38580 0.20820 0.33380 0.07400
C 	C 	0.28780 0.46200 0.82170 -0.13100
H 	H 	0.27160 0.43140 0.84340 0.07000
C 	C 	0.31310 0.24270 0.25710 0.07300
H 	H 	0.33600 0.22500 0.23600 -0.02400
C 	C 	0.60110 0.70940 0.02530 0.07900
H 	H 	0.62240 0.73360 0.00490 -0.00900
C 	C 	0.34170 0.24780 0.41210 0.09800
C 	C 	0.25860 0.45660 0.76230 0.06400
H 	H 	0.22270 0.42120 0.74470 -0.01300
C 	C 	0.48730 0.14980 0.52203 0.04900
C 	C 	0.34440 0.32540 0.59250 -0.13500
H 	H 	0.38370 0.29670 0.61360 0.08000
C 	C 	0.51090 0.62800 0.02489 0.06400
C 	C 	0.36650 0.55500 0.81470 -0.13500
H 	H 	0.40470 0.58730 0.83130 0.08200
C 	C 	0.57770 0.07140 0.52030 0.06300
H 	H 	0.59790 0.04700 0.49900 -0.00500
C 	C 	0.33250 0.54650 0.75550 0.07700
H 	H 	0.34820 0.57570 0.73290 -0.01700
C 	C 	0.31360 0.36880 0.62010 0.07900
H 	H 	0.33400 0.37010 0.66020 -0.00400
N 	N 	0.62846 0.71870 0.08233 -0.18900
N 	N 	0.27791 0.36440 0.08816 -0.20800
N 	N 	0.27910 0.49970 0.72857 -0.19500
N 	N 	0.42526 0.53900 0.02712 -0.13900
N 	N 	0.34372 0.48180 0.94032 -0.14200
N 	N 	0.42496 0.57250 0.93685 -0.13800
N 	N 	0.25589 0.40950 0.59251 -0.18400
N 	N 	0.25320 0.27660 0.22841 -0.19600
N 	N 	0.60800 0.06450 0.57782 -0.20100
N 	N 	0.40239 0.23960 0.52671 -0.14100
N 	N 	0.31318 0.28760 0.44106 -0.13700
N 	N 	0.39585 0.20110 0.43541 -0.15000
Ag	Ag	0.22610 0.29103 0.13175 0.51000
Ag	Ag	0.70500 0.99868 0.63231 0.51300
C 	C 	0.87220 0.02400 0.91218 0.10200
C 	C 	0.07730 0.59960 0.60740 0.04900
H 	H 	0.09710 0.59500 0.64740 -0.01800
C 	C 	0.84620 0.78030 0.49871 0.10100
C 	C 	0.87200 0.93840 0.08870 -0.13300
H 	H 	0.91450 0.96020 0.11000 0.08000
C 	C 	0.87200 0.99300 0.99756 0.09900
C 	C 	0.01790 0.61280 0.49060 -0.12500
H 	H 	0.99860 0.61580 0.45050 0.07200
C 	C 	0.09690 0.18310 0.11080 0.07500
H 	H 	0.11540 0.18870 0.15070 -0.00600
C 	C 	0.75660 0.86650 0.50371 -0.13000
H 	H 	0.73610 0.86700 0.46360 0.08500
C 	C 	0.92470 0.69930 0.49280 0.09700
C 	C 	0.84010 0.94770 0.02968 0.05800
C 	C 	0.77710 0.91350 0.00060 -0.13400
H 	H 	0.75450 0.91790 0.96060 0.07200
C 	C 	0.72810 0.90730 0.53440 0.07800
H 	H 	0.68780 0.93460 0.51420 -0.00800
C 	C 	0.74830 0.87340 0.03080 0.05900
H 	H 	0.70580 0.85100 0.01040 -0.01400
C 	C 	0.04270 0.16590 0.99440 -0.12200
H 	H 	0.02500 0.16200 0.95440 0.08100
C 	C 	0.84170 0.01380 0.84820 0.05800
C 	C 	0.03910 0.13900 0.08440 -0.12600
H 	H 	0.01870 0.11640 0.10610 0.08200
C 	C 	0.81630 0.82490 0.53314 0.06500
C 	C 	0.80980 0.75740 0.34810 0.05400
C 	C 	0.01770 0.64240 0.58135 -0.12200
H 	H 	0.99840 0.66590 0.60360 0.07500
C 	C 	0.95020 0.07720 0.99435 0.10400
C 	C 	0.72070 0.80130 0.25970 0.07000
H 	H 	0.67850 0.82500 0.24060 -0.01000
C 	C 	0.74730 0.79300 0.31890 -0.13100
H 	H 	0.72330 0.81110 0.33900 0.08000
C 	C 	0.83900 0.89580 0.11560 0.05900
H 	H 	0.86120 0.88880 0.15540 -0.01300
C 	C 	0.84350 0.73200 0.31590 -0.14200
H 	H 	0.88580 0.70820 0.33380 0.07400
C 	C 	0.78780 0.96200 0.82170 -0.13100
H 	H 	0.77160 0.93140 0.84340 0.07000
C 	C 	0.81310 0.74270 0.25710 0.07300
H 	H 	0.83600 0.72500 0.23600 -0.02300
C 	C 	0.10110 0.20940 0.02530 0.07700
H 	H 	0.12240 0.23360 0.00490 -0.00800
C 	C 	0.84170 0.74780 0.41210 0.09800
C 	C 	0.75860 0.95660 0.76230 0.06400
H 	H 	0.72270 0.92120 0.74470 -0.01300
C 	C 	0.98730 0.64980 0.52203 0.04900
C 	C 	0.84440 0.82540 0.59250 -0.13500
H 	H 	0.88370 0.79670 0.61360 0.08000
C 	C 	0.01090 0.12800 0.02489 0.06100
C 	C 	0.86650 0.05500 0.81470 -0.13500
H 	H 	0.90470 0.08730 0.83130 0.08200
C 	C 	0.07770 0.57140 0.52030 0.06300
H 	H 	0.09790 0.54700 0.49900 -0.00500
C 	C 	0.83250 0.04650 0.75550 0.07700
H 	H 	0.84820 0.07570 0.73290 -0.01700
C 	C 	0.81360 0.86880 0.62010 0.07900
H 	H 	0.83400 0.87010 0.66020 -0.00400
N 	N 	0.12846 0.21870 0.08233 -0.18900
N 	N 	0.77791 0.86440 0.08816 -0.20800
N 	N 	0.77910 0.99970 0.72857 -0.19500
N 	N 	0.92526 0.03900 0.02712 -0.13800
N 	N 	0.84372 0.98180 0.94032 -0.14200
N 	N 	0.92496 0.07250 0.93685 -0.13800
N 	N 	0.75589 0.90950 0.59251 -0.18400
N 	N 	0.75320 0.77660 0.22841 -0.19600
N 	N 	0.10800 0.56450 0.57782 -0.20100
N 	N 	0.90239 0.73960 0.52671 -0.14200
N 	N 	0.81318 0.78760 0.44106 -0.13700
N 	N 	0.89585 0.70110 0.43541 -0.15000
Ag	Ag	0.27390 0.79103 0.36825 0.51000
Ag	Ag	0.79500 0.49868 0.86769 0.51300
C 	C 	0.62780 0.52400 0.58782 0.10200
C 	C 	0.42270 0.09960 0.89260 0.04900
H 	H 	0.40290 0.09500 0.85260 -0.01800
C 	C 	0.65380 0.28030 0.00129 0.10100
C 	C 	0.62800 0.43840 0.41130 -0.13300
H 	H 	0.58550 0.46020 0.39000 0.07900
C 	C 	0.62800 0.49300 0.50244 0.10100
C 	C 	0.48210 0.11280 0.00940 -0.12700
H 	H 	0.50140 0.11580 0.04950 0.07300
C 	C 	0.40310 0.68310 0.38920 0.07600
H 	H 	0.38460 0.68870 0.34930 -0.00600
C 	C 	0.74340 0.36650 0.99629 -0.13100
H 	H 	0.76390 0.36700 0.03640 0.08600
C 	C 	0.57530 0.19930 0.00720 0.09700
C 	C 	0.65990 0.44770 0.47032 0.05700
C 	C 	0.72290 0.41350 0.49940 -0.13500
H 	H 	0.74550 0.41790 0.53940 0.07300
C 	C 	0.77190 0.40730 0.96560 0.07800
H 	H 	0.81220 0.43460 0.98580 -0.00900
C 	C 	0.75170 0.37340 0.46920 0.05900
H 	H 	0.79420 0.35100 0.48960 -0.01400
C 	C 	0.45730 0.66590 0.50560 -0.12500
H 	H 	0.47500 0.66200 0.54560 0.08200
C 	C 	0.65830 0.51380 0.65180 0.05800
C 	C 	0.46090 0.63900 0.41560 -0.12700
H 	H 	0.48130 0.61640 0.39390 0.08200
C 	C 	0.68370 0.32490 0.96686 0.06600
C 	C 	0.69020 0.25740 0.15190 0.05400
C 	C 	0.48230 0.14240 0.91865 -0.12300
H 	H 	0.50160 0.16590 0.89640 0.07500
C 	C 	0.54980 0.57720 0.50565 0.10400
C 	C 	0.77930 0.30130 0.24030 0.07000
H 	H 	0.82150 0.32500 0.25940 -0.01000
C 	C 	0.75270 0.29300 0.18110 -0.13100
H 	H 	0.77670 0.31110 0.16100 0.08000
C 	C 	0.66100 0.39580 0.38440 0.05900
H 	H 	0.63880 0.38880 0.34460 -0.01300
C 	C 	0.65650 0.23200 0.18410 -0.14200
H 	H 	0.61420 0.20820 0.16620 0.07400
C 	C 	0.71220 0.46200 0.67830 -0.13100
H 	H 	0.72840 0.43140 0.65660 0.07000
C 	C 	0.68690 0.24270 0.24290 0.07300
H 	H 	0.66400 0.22500 0.26400 -0.02400
C 	C 	0.39890 0.70940 0.47470 0.07900
H 	H 	0.37760 0.73360 0.49510 -0.00900
C 	C 	0.65830 0.24780 0.08790 0.09800
C 	C 	0.74140 0.45660 0.73770 0.06400
H 	H 	0.77730 0.42120 0.75530 -0.01300
C 	C 	0.51270 0.14980 0.97797 0.05000
C 	C 	0.65560 0.32540 0.90750 -0.13500
H 	H 	0.61630 0.29670 0.88640 0.08000
C 	C 	0.48910 0.62800 0.47511 0.06300
C 	C 	0.63350 0.55500 0.68530 -0.13500
H 	H 	0.59530 0.58730 0.66870 0.08200
C 	C 	0.42230 0.07140 0.97970 0.06400
H 	H 	0.40210 0.04700 0.00100 -0.00600
C 	C 	0.66750 0.54650 0.74450 0.07700
H 	H 	0.65180 0.57570 0.76710 -0.01700
C 	C 	0.68640 0.36880 0.87990 0.07900
H 	H 	0.66600 0.37010 0.83980 -0.00400
N 	N 	0.37154 0.71870 0.41767 -0.18900
N 	N 	0.72209 0.36440 0.41184 -0.20800
N 	N 	0.72090 0.49970 0.77143 -0.19500
N 	N 	0.57474 0.53900 0.47288 -0.13900
N 	N 	0.65628 0.48180 0.55968 -0.14200
N 	N 	0.57504 0.57250 0.56315 -0.13800
N 	N 	0.74411 0.40950 0.90749 -0.18400
N 	N 	0.74680 0.27660 0.27159 -0.19600
N 	N 	0.39200 0.06450 0.92218 -0.20100
N 	N 	0.59761 0.23960 0.97329 -0.14200
N 	N 	0.68682 0.28760 0.05894 -0.13700
N 	N 	0.60415 0.20110 0.06459 -0.15000
Ag	Ag	0.77390 0.29103 0.36825 0.51000
Ag	Ag	0.29500 0.99868 0.86769 0.51300
C 	C 	0.12780 0.02400 0.58782 0.10200
C 	C 	0.92270 0.59960 0.89260 0.05000
H 	H 	0.90290 0.59500 0.85260 -0.01800
C 	C 	0.15380 0.78030 0.00129 0.10000
C 	C 	0.12800 0.93840 0.41130 -0.13300
H 	H 	0.08550 0.96020 0.39000 0.07900
C 	C 	0.12800 0.99300 0.50244 0.10100
C 	C 	0.98210 0.61280 0.00940 -0.12300
H 	H 	0.00140 0.61580 0.04950 0.07100
C 	C 	0.90310 0.18310 0.38920 0.07600
H 	H 	0.88460 0.18870 0.34930 -0.00600
C 	C 	0.24340 0.86650 0.99629 -0.13000
H 	H 	0.26390 0.86700 0.03640 0.08500
C 	C 	0.07530 0.69930 0.00720 0.09600
C 	C 	0.15990 0.94770 0.47032 0.05700
C 	C 	0.22290 0.91350 0.49940 -0.13500
H 	H 	0.24550 0.91790 0.53940 0.07300
C 	C 	0.27190 0.90730 0.96560 0.07800
H 	H 	0.31220 0.93460 0.98580 -0.00800
C 	C 	0.25170 0.87340 0.46920 0.05900
H 	H 	0.29420 0.85100 0.48960 -0.01400
C 	C 	0.95730 0.16590 0.50560 -0.12500
H 	H 	0.97500 0.16200 0.54560 0.08200
C 	C 	0.15830 0.01380 0.65180 0.05800
C 	C 	0.96090 0.13900 0.41560 -0.12700
H 	H 	0.98130 0.11640 0.39390 0.08200
C 	C 	0.18370 0.82490 0.96686 0.06600
C 	C 	0.19020 0.75740 0.15190 0.05400
C 	C 	0.98230 0.64240 0.91865 -0.12500
H 	H 	0.00160 0.66590 0.89640 0.07600
C 	C 	0.04980 0.07720 0.50565 0.10400
C 	C 	0.27930 0.80130 0.24030 0.07000
H 	H 	0.32150 0.82500 0.25940 -0.01000
C 	C 	0.25270 0.79300 0.18110 -0.13100
H 	H 	0.27670 0.81110 0.16100 0.08000
C 	C 	0.16100 0.89580 0.38440 0.05900
H 	H 	0.13880 0.88880 0.34460 -0.01300
C 	C 	0.15650 0.73200 0.18410 -0.14200
H 	H 	0.11420 0.70820 0.16620 0.07400
C 	C 	0.21220 0.96200 0.67830 -0.13100
H 	H 	0.22840 0.93140 0.65660 0.07000
C 	C 	0.18690 0.74270 0.24290 0.07300
H 	H 	0.16400 0.72500 0.26400 -0.02400
C 	C 	0.89890 0.20940 0.47470 0.07900
H 	H 	0.87760 0.23360 0.49510 -0.00900
C 	C 	0.15830 0.74780 0.08790 0.09800
C 	C 	0.24140 0.95660 0.73770 0.06400
H 	H 	0.27730 0.92120 0.75530 -0.01300
C 	C 	0.01270 0.64980 0.97797 0.05000
C 	C 	0.15560 0.82540 0.90750 -0.13500
H 	H 	0.11630 0.79670 0.88640 0.08000
C 	C 	0.98910 0.12800 0.47511 0.06300
C 	C 	0.13350 0.05500 0.68530 -0.13500
H 	H 	0.09530 0.08730 0.66870 0.08200
C 	C 	0.92230 0.57140 0.97970 0.06000
H 	H 	0.90210 0.54700 0.00100 -0.00400
C 	C 	0.16750 0.04650 0.74450 0.07700
H 	H 	0.15180 0.07570 0.76710 -0.01700
C 	C 	0.18640 0.86880 0.87990 0.07900
H 	H 	0.16600 0.87010 0.83980 -0.00400
N 	N 	0.87154 0.21870 0.41767 -0.18900
N 	N 	0.22209 0.86440 0.41184 -0.20800
N 	N 	0.22090 0.99970 0.77143 -0.19500
N 	N 	0.07474 0.03900 0.47288 -0.13900
N 	N 	0.15628 0.98180 0.55968 -0.14200
N 	N 	0.07504 0.07250 0.56315 -0.13800
N 	N 	0.24411 0.90950 0.90749 -0.18400
N 	N 	0.24680 0.77660 0.27159 -0.19600
N 	N 	0.89200 0.56450 0.92218 -0.20100
N 	N 	0.09761 0.73960 0.97329 -0.14100
N 	N 	0.18682 0.78760 0.05894 -0.13700
N 	N 	0.10415 0.70110 0.06459 -0.15000
