data_crystal

_cell_length_a 21.98670
_cell_length_b 16.59160
_cell_length_c 25.55200
_cell_angle_alpha 90.00000
_cell_angle_beta  115.20300
_cell_angle_gamma 90.00000

_symmetry_space_group_name_	'P 1'
_symmetry_space_group_name_H-M	'P 1'

loop_
_symmetry_equiv_pos_as_xyz
  x,y,z

loop_
_atom_site_label
_atom_site_type_symbol
_atom_site_fract_x
_atom_site_fract_y
_atom_site_fract_z
_atom_site_charge
Ag	Ag	0.84427 0.45709 0.36725 0.50900
Ag	Ag	0.82221 0.75508 0.86674 0.51200
C 	C 	0.09780 0.97050 0.99940 0.10200
C 	C 	0.62370 0.75590 0.50120 0.09800
C 	C 	0.27720 0.13840 0.00840 -0.12800
H 	H 	0.29790 0.13500 0.04850 0.07200
C 	C 	0.55960 0.80140 0.46840 0.06200
C 	C 	0.18180 0.05250 0.00550 0.09300
C 	C 	0.00380 0.88470 0.99510 -0.12400
H 	H 	0.02370 0.88310 0.03530 0.08100
C 	C 	0.79740 0.58360 0.50390 -0.13200
H 	H 	0.81940 0.58750 0.54400 0.08300
C 	C 	0.53290 0.81100 0.41010 -0.13900
H 	H 	0.55450 0.78980 0.38880 0.08000
C 	C 	0.71000 0.72620 0.58640 0.10000
C 	C 	0.94410 0.84420 0.96360 0.07300
H 	H 	0.92410 0.81620 0.98370 -0.00900
C 	C 	0.22010 0.15300 0.89120 0.05100
H 	H 	0.20040 0.15810 0.85110 -0.02100
C 	C 	0.18010 0.00230 0.08670 0.09400
C 	C 	0.17890 0.95590 0.17980 -0.13500
H 	H 	0.13490 0.93810 0.15960 0.08100
C 	C 	0.74310 0.73640 0.65020 0.06000
C 	C 	0.03330 0.92750 0.96550 0.05900
C 	C 	0.73560 0.56480 0.38780 0.08000
H 	H 	0.71430 0.55850 0.34780 -0.00700
C 	C 	0.73550 0.62090 0.47330 0.06800
C 	C 	0.52560 0.83510 0.49800 -0.14300
H 	H 	0.54290 0.83080 0.53810 0.07600
C 	C 	0.21470 0.10130 0.97660 0.05000
C 	C 	0.70390 0.60950 0.41400 -0.13200
H 	H 	0.66180 0.63180 0.39230 0.08400
C 	C 	0.21230 0.99180 0.15100 0.05700
C 	C 	0.18600 0.11030 0.91720 -0.12400
H 	H 	0.14420 0.08780 0.89470 0.07600
C 	C 	0.70500 0.67230 0.50360 0.10400
C 	C 	0.47330 0.85280 0.38280 0.06100
H 	H 	0.45590 0.86030 0.34300 -0.01400
C 	C 	0.46700 0.87440 0.46790 0.06900
H 	H 	0.44480 0.89680 0.48840 -0.01700
C 	C 	0.82530 0.54100 0.47340 0.08400
H 	H 	0.86760 0.51840 0.49390 -0.01100
C 	C 	0.30740 0.18070 0.97830 0.06500
H 	H 	0.34870 0.20540 0.99930 -0.00600
C 	C 	0.00200 0.92800 0.90570 -0.13000
H 	H 	0.01970 0.95770 0.88460 0.07800
C 	C 	0.30680 0.00500 0.24160 0.07200
H 	H 	0.35110 0.02160 0.26260 -0.02300
C 	C 	0.71450 0.78800 0.67670 -0.13600
H 	H 	0.67580 0.81720 0.65500 0.07200
C 	C 	0.94410 0.88370 0.87810 0.07500
H 	H 	0.92480 0.88170 0.83790 -0.00200
C 	C 	0.21140 0.94660 0.23900 0.07200
H 	H 	0.18850 0.92220 0.25810 -0.01100
C 	C 	0.27780 0.01680 0.18250 -0.14400
H 	H 	0.30180 0.04090 0.16430 0.07500
C 	C 	0.74550 0.79420 0.73600 0.07200
H 	H 	0.72650 0.82870 0.75360 -0.01600
C 	C 	0.82810 0.70850 0.74320 0.07700
H 	H 	0.86730 0.68080 0.76590 -0.01600
C 	C 	0.80210 0.69910 0.68400 -0.13800
H 	H 	0.82440 0.66780 0.66750 0.08300
N 	N 	0.79540 0.53020 0.41650 -0.19100
N 	N 	0.43940 0.88270 0.41100 -0.21000
N 	N 	0.80050 0.75490 0.76970 -0.19600
N 	N 	0.73760 0.67730 0.56150 -0.13800
N 	N 	0.64790 0.71010 0.47130 -0.13800
N 	N 	0.65270 0.76690 0.55820 -0.14200
N 	N 	0.91370 0.84330 0.90580 -0.18300
N 	N 	0.27510 0.97140 0.27030 -0.19500
N 	N 	0.27980 0.18700 0.92120 -0.20200
N 	N 	0.12560 0.01270 0.97180 -0.14100
N 	N 	0.12270 0.96330 0.05730 -0.13700
N 	N 	0.21110 0.04990 0.06350 -0.14900
Ag	Ag	0.34427 0.95709 0.36725 0.51000
Ag	Ag	0.32221 0.25508 0.86674 0.51300
C 	C 	0.59780 0.47050 0.99940 0.10200
C 	C 	0.12370 0.25590 0.50120 0.09900
C 	C 	0.77720 0.63840 0.00840 -0.12100
H 	H 	0.79790 0.63500 0.04850 0.07100
C 	C 	0.05960 0.30140 0.46840 0.06300
C 	C 	0.68180 0.55250 0.00550 0.09700
C 	C 	0.50380 0.38470 0.99510 -0.12800
H 	H 	0.52370 0.38310 0.03530 0.08500
C 	C 	0.29740 0.08360 0.50390 -0.13100
H 	H 	0.31940 0.08750 0.54400 0.08400
C 	C 	0.03290 0.31100 0.41010 -0.13900
H 	H 	0.05450 0.28980 0.38880 0.08100
C 	C 	0.21000 0.22620 0.58640 0.10100
C 	C 	0.44410 0.34420 0.96360 0.07800
H 	H 	0.42410 0.31620 0.98370 -0.00900
C 	C 	0.72010 0.65300 0.89120 0.05000
H 	H 	0.70040 0.65810 0.85110 -0.01900
C 	C 	0.68010 0.50230 0.08670 0.09600
C 	C 	0.67890 0.45590 0.17980 -0.13400
H 	H 	0.63490 0.43810 0.15960 0.08200
C 	C 	0.24310 0.23640 0.65020 0.06100
C 	C 	0.53330 0.42750 0.96550 0.06300
C 	C 	0.23560 0.06480 0.38780 0.08000
H 	H 	0.21430 0.05850 0.34780 -0.00700
C 	C 	0.23550 0.12090 0.47330 0.06800
C 	C 	0.02560 0.33510 0.49800 -0.14400
H 	H 	0.04290 0.33080 0.53810 0.07600
C 	C 	0.71470 0.60130 0.97660 0.04500
C 	C 	0.20390 0.10950 0.41400 -0.13200
H 	H 	0.16180 0.13180 0.39230 0.08400
C 	C 	0.71230 0.49180 0.15100 0.05700
C 	C 	0.68600 0.61030 0.91720 -0.12100
H 	H 	0.64420 0.58780 0.89470 0.07400
C 	C 	0.20500 0.17230 0.50360 0.10400
C 	C 	0.97330 0.35280 0.38280 0.06200
H 	H 	0.95590 0.36030 0.34300 -0.01400
C 	C 	0.96700 0.37440 0.46790 0.07000
H 	H 	0.94480 0.39680 0.48840 -0.01700
C 	C 	0.32530 0.04100 0.47340 0.08400
H 	H 	0.36760 0.01840 0.49390 -0.01100
C 	C 	0.80740 0.68070 0.97830 0.06100
H 	H 	0.84870 0.70540 0.99930 -0.00500
C 	C 	0.50200 0.42800 0.90570 -0.13300
H 	H 	0.51970 0.45770 0.88460 0.07900
C 	C 	0.80680 0.50500 0.24160 0.07200
H 	H 	0.85110 0.52160 0.26260 -0.02300
C 	C 	0.21450 0.28800 0.67670 -0.13600
H 	H 	0.17580 0.31720 0.65500 0.07200
C 	C 	0.44410 0.38370 0.87810 0.07700
H 	H 	0.42480 0.38170 0.83790 -0.00300
C 	C 	0.71140 0.44660 0.23900 0.07200
H 	H 	0.68850 0.42220 0.25810 -0.01100
C 	C 	0.77780 0.51680 0.18250 -0.14400
H 	H 	0.80180 0.54090 0.16430 0.07500
C 	C 	0.24550 0.29420 0.73600 0.07200
H 	H 	0.22650 0.32870 0.75360 -0.01600
C 	C 	0.32810 0.20850 0.74320 0.07700
H 	H 	0.36730 0.18080 0.76590 -0.01600
C 	C 	0.30210 0.19910 0.68400 -0.13800
H 	H 	0.32440 0.16780 0.66750 0.08300
N 	N 	0.29540 0.03020 0.41650 -0.19100
N 	N 	0.93940 0.38270 0.41100 -0.21000
N 	N 	0.30050 0.25490 0.76970 -0.19600
N 	N 	0.23760 0.17730 0.56150 -0.13800
N 	N 	0.14790 0.21010 0.47130 -0.13800
N 	N 	0.15270 0.26690 0.55820 -0.14200
N 	N 	0.41370 0.34330 0.90580 -0.18400
N 	N 	0.77510 0.47140 0.27030 -0.19500
N 	N 	0.77980 0.68700 0.92120 -0.20100
N 	N 	0.62560 0.51270 0.97180 -0.14200
N 	N 	0.62270 0.46330 0.05730 -0.13700
N 	N 	0.71110 0.54990 0.06350 -0.14900
Ag	Ag	0.15573 0.45709 0.13275 0.51000
Ag	Ag	0.17779 0.75508 0.63326 0.51300
C 	C 	0.90220 0.97050 0.50060 0.10200
C 	C 	0.37630 0.75590 0.99880 0.09900
C 	C 	0.72280 0.13840 0.49160 -0.12400
H 	H 	0.70210 0.13500 0.45150 0.07200
C 	C 	0.44040 0.80140 0.03160 0.06300
C 	C 	0.81820 0.05250 0.49450 0.09600
C 	C 	0.99620 0.88470 0.50490 -0.12800
H 	H 	0.97630 0.88310 0.46470 0.08500
C 	C 	0.20260 0.58360 0.99610 -0.12900
H 	H 	0.18060 0.58750 0.95600 0.08300
C 	C 	0.46710 0.81100 0.08990 -0.13800
H 	H 	0.44550 0.78980 0.11120 0.08100
C 	C 	0.29000 0.72620 0.91360 0.10100
C 	C 	0.05590 0.84420 0.53640 0.07800
H 	H 	0.07590 0.81620 0.51630 -0.00900
C 	C 	0.77990 0.15300 0.60880 0.05100
H 	H 	0.79960 0.15810 0.64890 -0.01900
C 	C 	0.81990 0.00230 0.41330 0.09600
C 	C 	0.82110 0.95590 0.32020 -0.13400
H 	H 	0.86510 0.93810 0.34040 0.08200
C 	C 	0.25690 0.73640 0.84980 0.06100
C 	C 	0.96670 0.92750 0.53450 0.06300
C 	C 	0.26440 0.56480 0.11220 0.07900
H 	H 	0.28570 0.55850 0.15220 -0.00700
C 	C 	0.26450 0.62090 0.02670 0.06600
C 	C 	0.47440 0.83510 0.00200 -0.14400
H 	H 	0.45710 0.83080 0.96190 0.07600
C 	C 	0.78530 0.10130 0.52340 0.04700
C 	C 	0.29610 0.60950 0.08600 -0.13100
H 	H 	0.33820 0.63180 0.10770 0.08400
C 	C 	0.78770 0.99180 0.34900 0.05700
C 	C 	0.81400 0.11030 0.58280 -0.12200
H 	H 	0.85580 0.08780 0.60530 0.07500
C 	C 	0.29500 0.67230 0.99640 0.10500
C 	C 	0.52670 0.85280 0.11720 0.06100
H 	H 	0.54410 0.86030 0.15700 -0.01400
C 	C 	0.53300 0.87440 0.03210 0.06900
H 	H 	0.55520 0.89680 0.01160 -0.01700
C 	C 	0.17470 0.54100 0.02660 0.08200
H 	H 	0.13240 0.51840 0.00610 -0.01000
C 	C 	0.69260 0.18070 0.52170 0.06300
H 	H 	0.65130 0.20540 0.50070 -0.00600
C 	C 	0.99800 0.92800 0.59430 -0.13300
H 	H 	0.98030 0.95770 0.61540 0.07900
C 	C 	0.69320 0.00500 0.25840 0.07200
H 	H 	0.64890 0.02160 0.23740 -0.02300
C 	C 	0.28550 0.78800 0.82330 -0.13600
H 	H 	0.32420 0.81720 0.84500 0.07100
C 	C 	0.05590 0.88370 0.62190 0.07700
H 	H 	0.07520 0.88170 0.66210 -0.00300
C 	C 	0.78860 0.94660 0.26100 0.07200
H 	H 	0.81150 0.92220 0.24190 -0.01100
C 	C 	0.72220 0.01680 0.31750 -0.14400
H 	H 	0.69820 0.04090 0.33570 0.07500
C 	C 	0.25450 0.79420 0.76400 0.07200
H 	H 	0.27350 0.82870 0.74640 -0.01600
C 	C 	0.17190 0.70850 0.75680 0.07700
H 	H 	0.13270 0.68080 0.73410 -0.01600
C 	C 	0.19790 0.69910 0.81600 -0.13800
H 	H 	0.17560 0.66780 0.83250 0.08300
N 	N 	0.20460 0.53020 0.08350 -0.19000
N 	N 	0.56060 0.88270 0.08900 -0.21000
N 	N 	0.19950 0.75490 0.73030 -0.19600
N 	N 	0.26240 0.67730 0.93850 -0.13800
N 	N 	0.35210 0.71010 0.02870 -0.13900
N 	N 	0.34730 0.76690 0.94180 -0.14200
N 	N 	0.08630 0.84330 0.59420 -0.18400
N 	N 	0.72490 0.97140 0.22970 -0.19500
N 	N 	0.72020 0.18700 0.57880 -0.20200
N 	N 	0.87440 0.01270 0.52820 -0.14200
N 	N 	0.87730 0.96330 0.44270 -0.13700
N 	N 	0.78890 0.04990 0.43650 -0.14900
Ag	Ag	0.65573 0.95709 0.13275 0.51000
Ag	Ag	0.67779 0.25508 0.63326 0.51300
C 	C 	0.40220 0.47050 0.50060 0.10200
C 	C 	0.87630 0.25590 0.99880 0.09800
C 	C 	0.22280 0.63840 0.49160 -0.12400
H 	H 	0.20210 0.63500 0.45150 0.07200
C 	C 	0.94040 0.30140 0.03160 0.06100
C 	C 	0.31820 0.55250 0.49450 0.09600
C 	C 	0.49620 0.38470 0.50490 -0.12800
H 	H 	0.47630 0.38310 0.46470 0.08400
C 	C 	0.70260 0.08360 0.99610 -0.13400
H 	H 	0.68060 0.08750 0.95600 0.08500
C 	C 	0.96710 0.31100 0.08990 -0.13600
H 	H 	0.94550 0.28980 0.11120 0.08000
C 	C 	0.79000 0.22620 0.91360 0.10100
C 	C 	0.55590 0.34420 0.53640 0.07800
H 	H 	0.57590 0.31620 0.51630 -0.00900
C 	C 	0.27990 0.65300 0.60880 0.05100
H 	H 	0.29960 0.65810 0.64890 -0.01900
C 	C 	0.31990 0.50230 0.41330 0.09600
C 	C 	0.32110 0.45590 0.32020 -0.13400
H 	H 	0.36510 0.43810 0.34040 0.08200
C 	C 	0.75690 0.23640 0.84980 0.06100
C 	C 	0.46670 0.42750 0.53450 0.06300
C 	C 	0.76440 0.06480 0.11220 0.08100
H 	H 	0.78570 0.05850 0.15220 -0.00700
C 	C 	0.76450 0.12090 0.02670 0.07000
C 	C 	0.97440 0.33510 0.00200 -0.13900
H 	H 	0.95710 0.33080 0.96190 0.07300
C 	C 	0.28530 0.60130 0.52340 0.04700
C 	C 	0.79610 0.10950 0.08600 -0.13300
H 	H 	0.83820 0.13180 0.10770 0.08500
C 	C 	0.28770 0.49180 0.34900 0.05700
C 	C 	0.31400 0.61030 0.58280 -0.12200
H 	H 	0.35580 0.58780 0.60530 0.07500
C 	C 	0.79500 0.17230 0.99640 0.10200
C 	C 	0.02670 0.35280 0.11720 0.05900
H 	H 	0.04410 0.36030 0.15700 -0.01400
C 	C 	0.03300 0.37440 0.03210 0.06600
H 	H 	0.05520 0.39680 0.01160 -0.01600
C 	C 	0.67470 0.04100 0.02660 0.08500
H 	H 	0.63240 0.01840 0.00610 -0.01100
C 	C 	0.19260 0.68070 0.52170 0.06300
H 	H 	0.15130 0.70540 0.50070 -0.00600
C 	C 	0.49800 0.42800 0.59430 -0.13300
H 	H 	0.48030 0.45770 0.61540 0.07900
C 	C 	0.19320 0.50500 0.25840 0.07200
H 	H 	0.14890 0.52160 0.23740 -0.02300
C 	C 	0.78550 0.28800 0.82330 -0.13600
H 	H 	0.82420 0.31720 0.84500 0.07200
C 	C 	0.55590 0.38370 0.62190 0.07700
H 	H 	0.57520 0.38170 0.66210 -0.00300
C 	C 	0.28860 0.44660 0.26100 0.07200
H 	H 	0.31150 0.42220 0.24190 -0.01100
C 	C 	0.22220 0.51680 0.31750 -0.14400
H 	H 	0.19820 0.54090 0.33570 0.07500
C 	C 	0.75450 0.29420 0.76400 0.07200
H 	H 	0.77350 0.32870 0.74640 -0.01600
C 	C 	0.67190 0.20850 0.75680 0.07700
H 	H 	0.63270 0.18080 0.73410 -0.01600
C 	C 	0.69790 0.19910 0.81600 -0.13800
H 	H 	0.67560 0.16780 0.83250 0.08300
N 	N 	0.70460 0.03020 0.08350 -0.19100
N 	N 	0.06060 0.38270 0.08900 -0.20900
N 	N 	0.69950 0.25490 0.73030 -0.19600
N 	N 	0.76240 0.17730 0.93850 -0.13700
N 	N 	0.85210 0.21010 0.02870 -0.13800
N 	N 	0.84730 0.26690 0.94180 -0.14200
N 	N 	0.58630 0.34330 0.59420 -0.18400
N 	N 	0.22490 0.47140 0.22970 -0.19500
N 	N 	0.22020 0.68700 0.57880 -0.20200
N 	N 	0.37440 0.51270 0.52820 -0.14200
N 	N 	0.37730 0.46330 0.44270 -0.13700
N 	N 	0.28890 0.54990 0.43650 -0.14900
Ag	Ag	0.15573 0.54291 0.63275 0.51000
Ag	Ag	0.17779 0.24492 0.13326 0.51300
C 	C 	0.90220 0.02950 0.00060 0.10300
C 	C 	0.37630 0.24410 0.49880 0.09900
C 	C 	0.72280 0.86160 0.99160 -0.12700
H 	H 	0.70210 0.86500 0.95150 0.07300
C 	C 	0.44040 0.19860 0.53160 0.06300
C 	C 	0.81820 0.94750 0.99450 0.09400
C 	C 	0.99620 0.11530 0.00490 -0.12300
H 	H 	0.97630 0.11690 0.96470 0.08200
C 	C 	0.20260 0.41640 0.49610 -0.13100
H 	H 	0.18060 0.41250 0.45600 0.08400
C 	C 	0.46710 0.18900 0.58990 -0.13800
H 	H 	0.44550 0.21020 0.61120 0.08100
C 	C 	0.29000 0.27380 0.41360 0.10100
C 	C 	0.05590 0.15580 0.03640 0.07400
H 	H 	0.07590 0.18380 0.01630 -0.00800
C 	C 	0.77990 0.84700 0.10880 0.05200
H 	H 	0.79960 0.84190 0.14890 -0.02000
C 	C 	0.81990 0.99770 0.91330 0.09500
C 	C 	0.82110 0.04410 0.82020 -0.13400
H 	H 	0.86510 0.06190 0.84040 0.08200
C 	C 	0.25690 0.26360 0.34980 0.06100
C 	C 	0.96670 0.07250 0.03450 0.06000
C 	C 	0.26440 0.43520 0.61220 0.08000
H 	H 	0.28570 0.44150 0.65220 -0.00700
C 	C 	0.26450 0.37910 0.52670 0.06800
C 	C 	0.47440 0.16490 0.50200 -0.14300
H 	H 	0.45710 0.16920 0.46190 0.07600
C 	C 	0.78530 0.89870 0.02340 0.05000
C 	C 	0.29610 0.39050 0.58600 -0.13200
H 	H 	0.33820 0.36820 0.60770 0.08400
C 	C 	0.78770 0.00820 0.84900 0.05700
C 	C 	0.81400 0.88970 0.08280 -0.12400
H 	H 	0.85580 0.91220 0.10530 0.07600
C 	C 	0.29500 0.32770 0.49640 0.10400
C 	C 	0.52670 0.14720 0.61720 0.06100
H 	H 	0.54410 0.13970 0.65700 -0.01400
C 	C 	0.53300 0.12560 0.53210 0.06900
H 	H 	0.55520 0.10320 0.51160 -0.01700
C 	C 	0.17470 0.45900 0.52660 0.08400
H 	H 	0.13240 0.48160 0.50610 -0.01100
C 	C 	0.69260 0.81930 0.02170 0.06500
H 	H 	0.65130 0.79460 0.00070 -0.00600
C 	C 	0.99800 0.07200 0.09430 -0.13000
H 	H 	0.98030 0.04230 0.11540 0.07800
C 	C 	0.69320 0.99500 0.75840 0.07200
H 	H 	0.64890 0.97840 0.73740 -0.02300
C 	C 	0.28550 0.21200 0.32330 -0.13600
H 	H 	0.32420 0.18280 0.34500 0.07200
C 	C 	0.05590 0.11630 0.12190 0.07500
H 	H 	0.07520 0.11830 0.16210 -0.00200
C 	C 	0.78860 0.05340 0.76100 0.07200
H 	H 	0.81150 0.07780 0.74190 -0.01100
C 	C 	0.72220 0.98320 0.81750 -0.14400
H 	H 	0.69820 0.95910 0.83570 0.07500
C 	C 	0.25450 0.20580 0.26400 0.07200
H 	H 	0.27350 0.17130 0.24640 -0.01600
C 	C 	0.17190 0.29150 0.25680 0.07700
H 	H 	0.13270 0.31920 0.23410 -0.01600
C 	C 	0.19790 0.30090 0.31600 -0.13800
H 	H 	0.17560 0.33220 0.33250 0.08300
N 	N 	0.20460 0.46980 0.58350 -0.19100
N 	N 	0.56060 0.11730 0.58900 -0.21000
N 	N 	0.19950 0.24510 0.23030 -0.19600
N 	N 	0.26240 0.32270 0.43850 -0.13800
N 	N 	0.35210 0.28990 0.52870 -0.13800
N 	N 	0.34730 0.23310 0.44180 -0.14200
N 	N 	0.08630 0.15670 0.09420 -0.18300
N 	N 	0.72490 0.02860 0.72970 -0.19500
N 	N 	0.72020 0.81300 0.07880 -0.20200
N 	N 	0.87440 0.98730 0.02820 -0.14100
N 	N 	0.87730 0.03670 0.94270 -0.13700
N 	N 	0.78890 0.95010 0.93650 -0.14900
Ag	Ag	0.65573 0.04291 0.63275 0.51000
Ag	Ag	0.67779 0.74492 0.13326 0.51300
C 	C 	0.40220 0.52950 0.00060 0.10200
C 	C 	0.87630 0.74410 0.49880 0.09900
C 	C 	0.22280 0.36160 0.99160 -0.12100
H 	H 	0.20210 0.36500 0.95150 0.07100
C 	C 	0.94040 0.69860 0.53160 0.06300
C 	C 	0.31820 0.44750 0.99450 0.09700
C 	C 	0.49620 0.61530 0.00490 -0.12800
H 	H 	0.47630 0.61690 0.96470 0.08500
C 	C 	0.70260 0.91640 0.49610 -0.13100
H 	H 	0.68060 0.91250 0.45600 0.08400
C 	C 	0.96710 0.68900 0.58990 -0.13900
H 	H 	0.94550 0.71020 0.61120 0.08100
C 	C 	0.79000 0.77380 0.41360 0.10100
C 	C 	0.55590 0.65580 0.03640 0.07800
H 	H 	0.57590 0.68380 0.01630 -0.00900
C 	C 	0.27990 0.34700 0.10880 0.05000
H 	H 	0.29960 0.34190 0.14890 -0.01900
C 	C 	0.31990 0.49770 0.91330 0.09600
C 	C 	0.32110 0.54410 0.82020 -0.13400
H 	H 	0.36510 0.56190 0.84040 0.08200
C 	C 	0.75690 0.76360 0.34980 0.06100
C 	C 	0.46670 0.57250 0.03450 0.06300
C 	C 	0.76440 0.93520 0.61220 0.08000
H 	H 	0.78570 0.94150 0.65220 -0.00700
C 	C 	0.76450 0.87910 0.52670 0.06800
C 	C 	0.97440 0.66490 0.50200 -0.14400
H 	H 	0.95710 0.66920 0.46190 0.07600
C 	C 	0.28530 0.39870 0.02340 0.04500
C 	C 	0.79610 0.89050 0.58600 -0.13200
H 	H 	0.83820 0.86820 0.60770 0.08400
C 	C 	0.28770 0.50820 0.84900 0.05700
C 	C 	0.31400 0.38970 0.08280 -0.12100
H 	H 	0.35580 0.41220 0.10530 0.07400
C 	C 	0.79500 0.82770 0.49640 0.10400
C 	C 	0.02670 0.64720 0.61720 0.06200
H 	H 	0.04410 0.63970 0.65700 -0.01400
C 	C 	0.03300 0.62560 0.53210 0.07000
H 	H 	0.05520 0.60320 0.51160 -0.01700
C 	C 	0.67470 0.95900 0.52660 0.08400
H 	H 	0.63240 0.98160 0.50610 -0.01100
C 	C 	0.19260 0.31930 0.02170 0.06100
H 	H 	0.15130 0.29460 0.00070 -0.00500
C 	C 	0.49800 0.57200 0.09430 -0.13300
H 	H 	0.48030 0.54230 0.11540 0.07900
C 	C 	0.19320 0.49500 0.75840 0.07200
H 	H 	0.14890 0.47840 0.73740 -0.02300
C 	C 	0.78550 0.71200 0.32330 -0.13600
H 	H 	0.82420 0.68280 0.34500 0.07200
C 	C 	0.55590 0.61630 0.12190 0.07700
H 	H 	0.57520 0.61830 0.16210 -0.00300
C 	C 	0.28860 0.55340 0.76100 0.07200
H 	H 	0.31150 0.57780 0.74190 -0.01100
C 	C 	0.22220 0.48320 0.81750 -0.14400
H 	H 	0.19820 0.45910 0.83570 0.07500
C 	C 	0.75450 0.70580 0.26400 0.07200
H 	H 	0.77350 0.67130 0.24640 -0.01600
C 	C 	0.67190 0.79150 0.25680 0.07700
H 	H 	0.63270 0.81920 0.23410 -0.01600
C 	C 	0.69790 0.80090 0.31600 -0.13800
H 	H 	0.67560 0.83220 0.33250 0.08300
N 	N 	0.70460 0.96980 0.58350 -0.19100
N 	N 	0.06060 0.61730 0.58900 -0.21000
N 	N 	0.69950 0.74510 0.23030 -0.19600
N 	N 	0.76240 0.82270 0.43850 -0.13800
N 	N 	0.85210 0.78990 0.52870 -0.13800
N 	N 	0.84730 0.73310 0.44180 -0.14200
N 	N 	0.58630 0.65670 0.09420 -0.18400
N 	N 	0.22490 0.52860 0.72970 -0.19500
N 	N 	0.22020 0.31300 0.07880 -0.20100
N 	N 	0.37440 0.48730 0.02820 -0.14200
N 	N 	0.37730 0.53670 0.94270 -0.13700
N 	N 	0.28890 0.45010 0.93650 -0.14900
Ag	Ag	0.84427 0.54291 0.86725 0.51000
Ag	Ag	0.82221 0.24492 0.36674 0.51300
C 	C 	0.09780 0.02950 0.49940 0.10200
C 	C 	0.62370 0.24410 0.00120 0.09900
C 	C 	0.27720 0.86160 0.50840 -0.12400
H 	H 	0.29790 0.86500 0.54850 0.07200
C 	C 	0.55960 0.19860 0.96840 0.06300
C 	C 	0.18180 0.94750 0.50550 0.09600
C 	C 	0.00380 0.11530 0.49510 -0.12800
H 	H 	0.02370 0.11690 0.53530 0.08500
C 	C 	0.79740 0.41640 0.00390 -0.12900
H 	H 	0.81940 0.41250 0.04400 0.08300
C 	C 	0.53290 0.18900 0.91010 -0.13800
H 	H 	0.55450 0.21020 0.88880 0.08100
C 	C 	0.71000 0.27380 0.08640 0.10100
C 	C 	0.94410 0.15580 0.46360 0.07800
H 	H 	0.92410 0.18380 0.48370 -0.00900
C 	C 	0.22010 0.84700 0.39120 0.05100
H 	H 	0.20040 0.84190 0.35110 -0.01900
C 	C 	0.18010 0.99770 0.58670 0.09600
C 	C 	0.17890 0.04410 0.67980 -0.13400
H 	H 	0.13490 0.06190 0.65960 0.08200
C 	C 	0.74310 0.26360 0.15020 0.06100
C 	C 	0.03330 0.07250 0.46550 0.06300
C 	C 	0.73560 0.43520 0.88780 0.07900
H 	H 	0.71430 0.44150 0.84780 -0.00700
C 	C 	0.73550 0.37910 0.97330 0.06600
C 	C 	0.52560 0.16490 0.99800 -0.14400
H 	H 	0.54290 0.16920 0.03810 0.07600
C 	C 	0.21470 0.89870 0.47660 0.04700
C 	C 	0.70390 0.39050 0.91400 -0.13100
H 	H 	0.66180 0.36820 0.89230 0.08400
C 	C 	0.21230 0.00820 0.65100 0.05700
C 	C 	0.18600 0.88970 0.41720 -0.12200
H 	H 	0.14420 0.91220 0.39470 0.07500
C 	C 	0.70500 0.32770 0.00360 0.10500
C 	C 	0.47330 0.14720 0.88280 0.06100
H 	H 	0.45590 0.13970 0.84300 -0.01400
C 	C 	0.46700 0.12560 0.96790 0.06900
H 	H 	0.44480 0.10320 0.98840 -0.01700
C 	C 	0.82530 0.45900 0.97340 0.08200
H 	H 	0.86760 0.48160 0.99390 -0.01000
C 	C 	0.30740 0.81930 0.47830 0.06300
H 	H 	0.34870 0.79460 0.49930 -0.00600
C 	C 	0.00200 0.07200 0.40570 -0.13300
H 	H 	0.01970 0.04230 0.38460 0.07900
C 	C 	0.30680 0.99500 0.74160 0.07200
H 	H 	0.35110 0.97840 0.76260 -0.02300
C 	C 	0.71450 0.21200 0.17670 -0.13600
H 	H 	0.67580 0.18280 0.15500 0.07100
C 	C 	0.94410 0.11630 0.37810 0.07700
H 	H 	0.92480 0.11830 0.33790 -0.00300
C 	C 	0.21140 0.05340 0.73900 0.07200
H 	H 	0.18850 0.07780 0.75810 -0.01100
C 	C 	0.27780 0.98320 0.68250 -0.14400
H 	H 	0.30180 0.95910 0.66430 0.07500
C 	C 	0.74550 0.20580 0.23600 0.07200
H 	H 	0.72650 0.17130 0.25360 -0.01600
C 	C 	0.82810 0.29150 0.24320 0.07700
H 	H 	0.86730 0.31920 0.26590 -0.01600
C 	C 	0.80210 0.30090 0.18400 -0.13800
H 	H 	0.82440 0.33220 0.16750 0.08300
N 	N 	0.79540 0.46980 0.91650 -0.19000
N 	N 	0.43940 0.11730 0.91100 -0.21000
N 	N 	0.80050 0.24510 0.26970 -0.19600
N 	N 	0.73760 0.32270 0.06150 -0.13800
N 	N 	0.64790 0.28990 0.97130 -0.13900
N 	N 	0.65270 0.23310 0.05820 -0.14200
N 	N 	0.91370 0.15670 0.40580 -0.18400
N 	N 	0.27510 0.02860 0.77030 -0.19500
N 	N 	0.27980 0.81300 0.42120 -0.20200
N 	N 	0.12560 0.98730 0.47180 -0.14200
N 	N 	0.12270 0.03670 0.55730 -0.13700
N 	N 	0.21110 0.95010 0.56350 -0.14900
Ag	Ag	0.34427 0.04291 0.86725 0.51000
Ag	Ag	0.32221 0.74492 0.36674 0.51300
C 	C 	0.59780 0.52950 0.49940 0.10200
C 	C 	0.12370 0.74410 0.00120 0.09800
C 	C 	0.77720 0.36160 0.50840 -0.12400
H 	H 	0.79790 0.36500 0.54850 0.07200
C 	C 	0.05960 0.69860 0.96840 0.06100
C 	C 	0.68180 0.44750 0.50550 0.09600
C 	C 	0.50380 0.61530 0.49510 -0.12800
H 	H 	0.52370 0.61690 0.53530 0.08400
C 	C 	0.29740 0.91640 0.00390 -0.13400
H 	H 	0.31940 0.91250 0.04400 0.08500
C 	C 	0.03290 0.68900 0.91010 -0.13600
H 	H 	0.05450 0.71020 0.88880 0.08000
C 	C 	0.21000 0.77380 0.08640 0.10100
C 	C 	0.44410 0.65580 0.46360 0.07800
H 	H 	0.42410 0.68380 0.48370 -0.00900
C 	C 	0.72010 0.34700 0.39120 0.05100
H 	H 	0.70040 0.34190 0.35110 -0.01900
C 	C 	0.68010 0.49770 0.58670 0.09600
C 	C 	0.67890 0.54410 0.67980 -0.13400
H 	H 	0.63490 0.56190 0.65960 0.08200
C 	C 	0.24310 0.76360 0.15020 0.06100
C 	C 	0.53330 0.57250 0.46550 0.06300
C 	C 	0.23560 0.93520 0.88780 0.08100
H 	H 	0.21430 0.94150 0.84780 -0.00700
C 	C 	0.23550 0.87910 0.97330 0.07000
C 	C 	0.02560 0.66490 0.99800 -0.13900
H 	H 	0.04290 0.66920 0.03810 0.07300
C 	C 	0.71470 0.39870 0.47660 0.04700
C 	C 	0.20390 0.89050 0.91400 -0.13300
H 	H 	0.16180 0.86820 0.89230 0.08500
C 	C 	0.71230 0.50820 0.65100 0.05700
C 	C 	0.68600 0.38970 0.41720 -0.12200
H 	H 	0.64420 0.41220 0.39470 0.07500
C 	C 	0.20500 0.82770 0.00360 0.10200
C 	C 	0.97330 0.64720 0.88280 0.05900
H 	H 	0.95590 0.63970 0.84300 -0.01400
C 	C 	0.96700 0.62560 0.96790 0.06600
H 	H 	0.94480 0.60320 0.98840 -0.01600
C 	C 	0.32530 0.95900 0.97340 0.08500
H 	H 	0.36760 0.98160 0.99390 -0.01100
C 	C 	0.80740 0.31930 0.47830 0.06300
H 	H 	0.84870 0.29460 0.49930 -0.00600
C 	C 	0.50200 0.57200 0.40570 -0.13300
H 	H 	0.51970 0.54230 0.38460 0.07900
C 	C 	0.80680 0.49500 0.74160 0.07200
H 	H 	0.85110 0.47840 0.76260 -0.02300
C 	C 	0.21450 0.71200 0.17670 -0.13600
H 	H 	0.17580 0.68280 0.15500 0.07200
C 	C 	0.44410 0.61630 0.37810 0.07700
H 	H 	0.42480 0.61830 0.33790 -0.00300
C 	C 	0.71140 0.55340 0.73900 0.07200
H 	H 	0.68850 0.57780 0.75810 -0.01100
C 	C 	0.77780 0.48320 0.68250 -0.14400
H 	H 	0.80180 0.45910 0.66430 0.07500
C 	C 	0.24550 0.70580 0.23600 0.07200
H 	H 	0.22650 0.67130 0.25360 -0.01600
C 	C 	0.32810 0.79150 0.24320 0.07700
H 	H 	0.36730 0.81920 0.26590 -0.01600
C 	C 	0.30210 0.80090 0.18400 -0.13800
H 	H 	0.32440 0.83220 0.16750 0.08300
N 	N 	0.29540 0.96980 0.91650 -0.19100
N 	N 	0.93940 0.61730 0.91100 -0.20900
N 	N 	0.30050 0.74510 0.26970 -0.19600
N 	N 	0.23760 0.82270 0.06150 -0.13700
N 	N 	0.14790 0.78990 0.97130 -0.13800
N 	N 	0.15270 0.73310 0.05820 -0.14200
N 	N 	0.41370 0.65670 0.40580 -0.18400
N 	N 	0.77510 0.52860 0.77030 -0.19500
N 	N 	0.77980 0.31300 0.42120 -0.20200
N 	N 	0.62560 0.48730 0.47180 -0.14200
N 	N 	0.62270 0.53670 0.55730 -0.13700
N 	N 	0.71110 0.45010 0.56350 -0.14900
