data_crystal

_cell_length_a 22.01010
_cell_length_b 16.52660
_cell_length_c 25.56840
_cell_angle_alpha 90.00000
_cell_angle_beta  115.23400
_cell_angle_gamma 90.00000

_symmetry_space_group_name_	'P 1'
_symmetry_space_group_name_H-M	'P 1'

loop_
_symmetry_equiv_pos_as_xyz
  x,y,z

loop_
_atom_site_label
_atom_site_type_symbol
_atom_site_fract_x
_atom_site_fract_y
_atom_site_fract_z
_atom_site_charge
Ag	Ag	0.34427 0.95731 0.36747 0.51100
Ag	Ag	0.32249 0.25433 0.86691 0.51400
C 	C 	0.59770 0.47100 0.99990 0.10100
C 	C 	0.77730 0.63810 0.00870 -0.12000
H 	H 	0.79800 0.63480 0.04890 0.07100
C 	C 	0.29780 0.08390 0.50460 -0.12900
H 	H 	0.31990 0.08780 0.54460 0.08400
C 	C 	0.12350 0.25670 0.50100 0.09800
C 	C 	0.05970 0.30160 0.46880 0.06100
C 	C 	0.50320 0.38430 0.99530 -0.13500
H 	H 	0.52260 0.38330 0.03550 0.08700
C 	C 	0.44410 0.34420 0.96390 0.08500
H 	H 	0.42410 0.31640 0.98410 -0.01100
C 	C 	0.20970 0.22620 0.58670 0.10200
C 	C 	0.03270 0.31130 0.41010 -0.14000
H 	H 	0.05420 0.29010 0.38880 0.08200
C 	C 	0.68200 0.55260 0.00600 0.09700
C 	C 	0.53340 0.42620 0.96590 0.06700
C 	C 	0.23550 0.06430 0.38820 0.07900
H 	H 	0.21380 0.05680 0.34840 -0.00700
C 	C 	0.72030 0.65290 0.89160 0.05200
H 	H 	0.70040 0.65780 0.85150 -0.01900
C 	C 	0.24310 0.23710 0.65050 0.05900
C 	C 	0.67900 0.45630 0.18040 -0.13000
H 	H 	0.63480 0.43910 0.16020 0.08000
C 	C 	0.68020 0.50190 0.08700 0.09700
C 	C 	0.71490 0.60120 0.97680 0.04600
C 	C 	0.23520 0.12110 0.47360 0.06600
C 	C 	0.02590 0.33510 0.49880 -0.14100
H 	H 	0.04320 0.33070 0.53880 0.07500
C 	C 	0.20380 0.11000 0.41420 -0.13000
H 	H 	0.16210 0.13310 0.39230 0.08400
C 	C 	0.68640 0.61000 0.91790 -0.12300
H 	H 	0.64450 0.58750 0.89560 0.07500
C 	C 	0.20500 0.17200 0.50410 0.10400
C 	C 	0.71240 0.49190 0.15120 0.05300
C 	C 	0.97330 0.35300 0.38340 0.06500
H 	H 	0.95580 0.36020 0.34360 -0.01500
C 	C 	0.32540 0.04130 0.47340 0.08300
H 	H 	0.36790 0.01900 0.49360 -0.01000
C 	C 	0.80760 0.68020 0.97850 0.06000
H 	H 	0.84910 0.70450 0.99950 -0.00500
C 	C 	0.96690 0.37480 0.46810 0.06600
H 	H 	0.94450 0.39700 0.48840 -0.01600
C 	C 	0.80680 0.50520 0.24190 0.07000
H 	H 	0.85080 0.52240 0.26280 -0.02200
C 	C 	0.50180 0.42790 0.90630 -0.13500
H 	H 	0.51920 0.45840 0.88530 0.08000
C 	C 	0.44390 0.38330 0.87850 0.07800
H 	H 	0.42470 0.38110 0.83840 -0.00300
C 	C 	0.21530 0.28840 0.67740 -0.13400
H 	H 	0.17670 0.31780 0.65570 0.07000
C 	C 	0.24550 0.29490 0.73620 0.06800
H 	H 	0.22660 0.32990 0.75370 -0.01500
C 	C 	0.71160 0.44660 0.23960 0.06800
H 	H 	0.68860 0.42230 0.25870 -0.00900
C 	C 	0.77810 0.51670 0.18260 -0.14000
H 	H 	0.80240 0.54030 0.16440 0.07400
C 	C 	0.32850 0.20810 0.74360 0.07600
H 	H 	0.36800 0.18090 0.76630 -0.01600
C 	C 	0.30230 0.19850 0.68430 -0.13600
H 	H 	0.32410 0.16670 0.66760 0.08200
N 	N 	0.29540 0.03020 0.41680 -0.19100
N 	N 	0.93940 0.38360 0.41110 -0.21000
N 	N 	0.30070 0.25400 0.77010 -0.19500
N 	N 	0.23790 0.17720 0.56210 -0.13700
N 	N 	0.14820 0.21050 0.47160 -0.13800
N 	N 	0.15270 0.26690 0.55830 -0.14200
N 	N 	0.41380 0.34270 0.90650 -0.18600
N 	N 	0.77570 0.47120 0.27090 -0.19500
N 	N 	0.77980 0.68690 0.92130 -0.20200
N 	N 	0.62300 0.46280 0.05790 -0.13700
N 	N 	0.71130 0.54960 0.06390 -0.14900
N 	N 	0.62610 0.51220 0.97240 -0.14200
Ag	Ag	0.84427 0.45731 0.36747 0.51000
Ag	Ag	0.82249 0.75433 0.86691 0.51300
C 	C 	0.09770 0.97100 0.99990 0.10200
C 	C 	0.27730 0.13810 0.00870 -0.12700
H 	H 	0.29800 0.13480 0.04890 0.07300
C 	C 	0.79780 0.58390 0.50460 -0.12900
H 	H 	0.81990 0.58780 0.54460 0.08400
C 	C 	0.62350 0.75670 0.50100 0.09800
C 	C 	0.55970 0.80160 0.46880 0.06000
C 	C 	0.00320 0.88430 0.99530 -0.12900
H 	H 	0.02260 0.88330 0.03550 0.08400
C 	C 	0.94410 0.84420 0.96390 0.08100
H 	H 	0.92410 0.81640 0.98410 -0.01000
C 	C 	0.70970 0.72620 0.58670 0.10200
C 	C 	0.53270 0.81130 0.41010 -0.13900
H 	H 	0.55420 0.79010 0.38880 0.08100
C 	C 	0.18200 0.05260 0.00600 0.09400
C 	C 	0.03340 0.92620 0.96590 0.06400
C 	C 	0.73550 0.56430 0.38820 0.07900
H 	H 	0.71380 0.55680 0.34840 -0.00700
C 	C 	0.22030 0.15290 0.89160 0.05400
H 	H 	0.20040 0.15780 0.85150 -0.02000
C 	C 	0.74310 0.73710 0.65050 0.05900
C 	C 	0.17900 0.95630 0.18040 -0.13000
H 	H 	0.13480 0.93910 0.16020 0.08000
C 	C 	0.18020 0.00190 0.08700 0.09700
C 	C 	0.21490 0.10120 0.97680 0.05200
C 	C 	0.73520 0.62110 0.47360 0.06600
C 	C 	0.52590 0.83510 0.49880 -0.14000
H 	H 	0.54320 0.83070 0.53880 0.07500
C 	C 	0.70380 0.61000 0.41420 -0.13000
H 	H 	0.66210 0.63310 0.39230 0.08400
C 	C 	0.18640 0.11000 0.91790 -0.12600
H 	H 	0.14450 0.08750 0.89560 0.07600
C 	C 	0.70500 0.67200 0.50410 0.10400
C 	C 	0.21240 0.99190 0.15120 0.05300
C 	C 	0.47330 0.85300 0.38340 0.06400
H 	H 	0.45580 0.86020 0.34360 -0.01500
C 	C 	0.82540 0.54130 0.47340 0.08300
H 	H 	0.86790 0.51900 0.49360 -0.01100
C 	C 	0.30760 0.18020 0.97850 0.06400
H 	H 	0.34910 0.20450 0.99950 -0.00600
C 	C 	0.46690 0.87480 0.46810 0.06500
H 	H 	0.44450 0.89700 0.48840 -0.01600
C 	C 	0.30680 0.00520 0.24190 0.07000
H 	H 	0.35080 0.02240 0.26280 -0.02200
C 	C 	0.00180 0.92790 0.90630 -0.13200
H 	H 	0.01920 0.95840 0.88530 0.07900
C 	C 	0.94390 0.88330 0.87850 0.07500
H 	H 	0.92470 0.88110 0.83840 -0.00300
C 	C 	0.71530 0.78840 0.67740 -0.13400
H 	H 	0.67670 0.81780 0.65570 0.07000
C 	C 	0.74550 0.79490 0.73620 0.06800
H 	H 	0.72660 0.82990 0.75370 -0.01500
C 	C 	0.21160 0.94660 0.23960 0.06800
H 	H 	0.18860 0.92230 0.25870 -0.00900
C 	C 	0.27810 0.01670 0.18260 -0.14000
H 	H 	0.30240 0.04030 0.16440 0.07400
C 	C 	0.82850 0.70810 0.74360 0.07600
H 	H 	0.86800 0.68090 0.76630 -0.01600
C 	C 	0.80230 0.69850 0.68430 -0.13600
H 	H 	0.82410 0.66670 0.66760 0.08200
N 	N 	0.79540 0.53020 0.41680 -0.19100
N 	N 	0.43940 0.88360 0.41110 -0.21000
N 	N 	0.80070 0.75400 0.77010 -0.19500
N 	N 	0.73790 0.67720 0.56210 -0.13700
N 	N 	0.64820 0.71050 0.47160 -0.13800
N 	N 	0.65270 0.76690 0.55830 -0.14200
N 	N 	0.91380 0.84270 0.90650 -0.18500
N 	N 	0.27570 0.97120 0.27090 -0.19500
N 	N 	0.27980 0.18690 0.92130 -0.20300
N 	N 	0.12300 0.96280 0.05790 -0.13800
N 	N 	0.21130 0.04960 0.06390 -0.14900
N 	N 	0.12610 0.01220 0.97240 -0.14100
Ag	Ag	0.65573 0.95731 0.13253 0.51000
Ag	Ag	0.67751 0.25433 0.63309 0.51300
C 	C 	0.40230 0.47100 0.50010 0.10100
C 	C 	0.22270 0.63810 0.49130 -0.12300
H 	H 	0.20200 0.63480 0.45110 0.07100
C 	C 	0.70220 0.08390 0.99540 -0.13200
H 	H 	0.68010 0.08780 0.95540 0.08500
C 	C 	0.87650 0.25670 0.99900 0.09800
C 	C 	0.94030 0.30160 0.03120 0.05900
C 	C 	0.49680 0.38430 0.50470 -0.13500
H 	H 	0.47740 0.38330 0.46450 0.08700
C 	C 	0.55590 0.34420 0.53610 0.08500
H 	H 	0.57590 0.31640 0.51590 -0.01100
C 	C 	0.79030 0.22620 0.91330 0.10200
C 	C 	0.96730 0.31130 0.08990 -0.13700
H 	H 	0.94580 0.29010 0.11120 0.08100
C 	C 	0.31800 0.55260 0.49400 0.09600
C 	C 	0.46660 0.42620 0.53410 0.06700
C 	C 	0.76450 0.06430 0.11180 0.08000
H 	H 	0.78620 0.05680 0.15160 -0.00700
C 	C 	0.27970 0.65290 0.60840 0.05300
H 	H 	0.29960 0.65780 0.64850 -0.02000
C 	C 	0.75690 0.23710 0.84950 0.05900
C 	C 	0.32100 0.45630 0.31960 -0.13000
H 	H 	0.36520 0.43910 0.33980 0.08000
C 	C 	0.31980 0.50190 0.41300 0.09700
C 	C 	0.28510 0.60120 0.52320 0.04900
C 	C 	0.76480 0.12110 0.02640 0.06800
C 	C 	0.97410 0.33510 0.00120 -0.13600
H 	H 	0.95680 0.33070 0.96120 0.07300
C 	C 	0.79620 0.11000 0.08580 -0.13100
H 	H 	0.83790 0.13310 0.10770 0.08400
C 	C 	0.31360 0.61000 0.58210 -0.12400
H 	H 	0.35550 0.58750 0.60440 0.07500
C 	C 	0.79500 0.17200 0.99590 0.10300
C 	C 	0.28760 0.49190 0.34880 0.05300
C 	C 	0.02670 0.35300 0.11660 0.06200
H 	H 	0.04420 0.36020 0.15640 -0.01500
C 	C 	0.67460 0.04130 0.02660 0.08500
H 	H 	0.63210 0.01900 0.00640 -0.01100
C 	C 	0.19240 0.68020 0.52150 0.06200
H 	H 	0.15090 0.70450 0.50050 -0.00500
C 	C 	0.03310 0.37480 0.03190 0.06200
H 	H 	0.05550 0.39700 0.01160 -0.01500
C 	C 	0.19320 0.50520 0.25810 0.07000
H 	H 	0.14920 0.52240 0.23720 -0.02200
C 	C 	0.49820 0.42790 0.59370 -0.13500
H 	H 	0.48080 0.45840 0.61470 0.08000
C 	C 	0.55610 0.38330 0.62150 0.07700
H 	H 	0.57530 0.38110 0.66160 -0.00300
C 	C 	0.78470 0.28840 0.82260 -0.13400
H 	H 	0.82330 0.31780 0.84430 0.07000
C 	C 	0.75450 0.29490 0.76380 0.06800
H 	H 	0.77340 0.32990 0.74630 -0.01500
C 	C 	0.28840 0.44660 0.26040 0.06800
H 	H 	0.31140 0.42230 0.24130 -0.00900
C 	C 	0.22190 0.51670 0.31740 -0.14000
H 	H 	0.19760 0.54030 0.33560 0.07400
C 	C 	0.67150 0.20810 0.75640 0.07600
H 	H 	0.63200 0.18090 0.73370 -0.01600
C 	C 	0.69770 0.19850 0.81570 -0.13600
H 	H 	0.67590 0.16670 0.83240 0.08200
N 	N 	0.70460 0.03020 0.08320 -0.19100
N 	N 	0.06060 0.38360 0.08890 -0.20900
N 	N 	0.69930 0.25400 0.72990 -0.19500
N 	N 	0.76210 0.17720 0.93790 -0.13700
N 	N 	0.85180 0.21050 0.02840 -0.13700
N 	N 	0.84730 0.26690 0.94170 -0.14200
N 	N 	0.58620 0.34270 0.59350 -0.18600
N 	N 	0.22430 0.47120 0.22910 -0.19500
N 	N 	0.22020 0.68690 0.57870 -0.20200
N 	N 	0.37700 0.46280 0.44210 -0.13700
N 	N 	0.28870 0.54960 0.43610 -0.14900
N 	N 	0.37390 0.51220 0.52760 -0.14200
Ag	Ag	0.15573 0.45731 0.13253 0.51000
Ag	Ag	0.17751 0.75433 0.63309 0.51300
C 	C 	0.90230 0.97100 0.50010 0.10100
C 	C 	0.72270 0.13810 0.49130 -0.12300
H 	H 	0.70200 0.13480 0.45110 0.07100
C 	C 	0.20220 0.58390 0.99540 -0.12700
H 	H 	0.18010 0.58780 0.95540 0.08300
C 	C 	0.37650 0.75670 0.99900 0.09900
C 	C 	0.44030 0.80160 0.03120 0.06000
C 	C 	0.99680 0.88430 0.50470 -0.13500
H 	H 	0.97740 0.88330 0.46450 0.08700
C 	C 	0.05590 0.84420 0.53610 0.08500
H 	H 	0.07590 0.81640 0.51590 -0.01100
C 	C 	0.29030 0.72620 0.91330 0.10200
C 	C 	0.46730 0.81130 0.08990 -0.13900
H 	H 	0.44580 0.79010 0.11120 0.08100
C 	C 	0.81800 0.05260 0.49400 0.09600
C 	C 	0.96660 0.92620 0.53410 0.06700
C 	C 	0.26450 0.56430 0.11180 0.07800
H 	H 	0.28620 0.55680 0.15160 -0.00700
C 	C 	0.77970 0.15290 0.60840 0.05300
H 	H 	0.79960 0.15780 0.64850 -0.02000
C 	C 	0.25690 0.73710 0.84950 0.05900
C 	C 	0.82100 0.95630 0.31960 -0.13000
H 	H 	0.86520 0.93910 0.33980 0.08000
C 	C 	0.81980 0.00190 0.41300 0.09700
C 	C 	0.78510 0.10120 0.52320 0.04900
C 	C 	0.26480 0.62110 0.02640 0.06400
C 	C 	0.47410 0.83510 0.00120 -0.14100
H 	H 	0.45680 0.83070 0.96120 0.07500
C 	C 	0.29620 0.61000 0.08580 -0.12900
H 	H 	0.33790 0.63310 0.10770 0.08300
C 	C 	0.81360 0.11000 0.58210 -0.12400
H 	H 	0.85550 0.08750 0.60440 0.07500
C 	C 	0.29500 0.67200 0.99590 0.10500
C 	C 	0.78760 0.99190 0.34880 0.05300
C 	C 	0.52670 0.85300 0.11660 0.06400
H 	H 	0.54420 0.86020 0.15640 -0.01500
C 	C 	0.17460 0.54130 0.02660 0.08200
H 	H 	0.13210 0.51900 0.00640 -0.01000
C 	C 	0.69240 0.18020 0.52150 0.06200
H 	H 	0.65090 0.20450 0.50050 -0.00500
C 	C 	0.53310 0.87480 0.03190 0.06600
H 	H 	0.55550 0.89700 0.01160 -0.01600
C 	C 	0.69320 0.00520 0.25810 0.07000
H 	H 	0.64920 0.02240 0.23720 -0.02200
C 	C 	0.99820 0.92790 0.59370 -0.13500
H 	H 	0.98080 0.95840 0.61470 0.08000
C 	C 	0.05610 0.88330 0.62150 0.07800
H 	H 	0.07530 0.88110 0.66160 -0.00300
C 	C 	0.28470 0.78840 0.82260 -0.13400
H 	H 	0.32330 0.81780 0.84430 0.07000
C 	C 	0.25450 0.79490 0.76380 0.06800
H 	H 	0.27340 0.82990 0.74630 -0.01500
C 	C 	0.78840 0.94660 0.26040 0.06800
H 	H 	0.81140 0.92230 0.24130 -0.00900
C 	C 	0.72190 0.01670 0.31740 -0.14000
H 	H 	0.69760 0.04030 0.33560 0.07400
C 	C 	0.17150 0.70810 0.75640 0.07600
H 	H 	0.13200 0.68090 0.73370 -0.01600
C 	C 	0.19770 0.69850 0.81570 -0.13600
H 	H 	0.17590 0.66670 0.83240 0.08200
N 	N 	0.20460 0.53020 0.08320 -0.19100
N 	N 	0.56060 0.88360 0.08890 -0.21000
N 	N 	0.19930 0.75400 0.72990 -0.19500
N 	N 	0.26210 0.67720 0.93790 -0.13800
N 	N 	0.35180 0.71050 0.02840 -0.13800
N 	N 	0.34730 0.76690 0.94170 -0.14200
N 	N 	0.08620 0.84270 0.59350 -0.18600
N 	N 	0.72430 0.97120 0.22910 -0.19500
N 	N 	0.72020 0.18690 0.57870 -0.20200
N 	N 	0.87700 0.96280 0.44210 -0.13700
N 	N 	0.78870 0.04960 0.43610 -0.14900
N 	N 	0.87390 0.01220 0.52760 -0.14200
Ag	Ag	0.65573 0.04269 0.63253 0.51000
Ag	Ag	0.67751 0.74567 0.13309 0.51300
C 	C 	0.40230 0.52900 0.00010 0.10000
C 	C 	0.22270 0.36190 0.99130 -0.12100
H 	H 	0.20200 0.36520 0.95110 0.07100
C 	C 	0.70220 0.91610 0.49540 -0.12900
H 	H 	0.68010 0.91220 0.45540 0.08400
C 	C 	0.87650 0.74330 0.49900 0.09800
C 	C 	0.94030 0.69840 0.53120 0.06100
C 	C 	0.49680 0.61570 0.00470 -0.13500
H 	H 	0.47740 0.61670 0.96450 0.08700
C 	C 	0.55590 0.65580 0.03610 0.08500
H 	H 	0.57590 0.68360 0.01590 -0.01100
C 	C 	0.79030 0.77380 0.41330 0.10200
C 	C 	0.96730 0.68870 0.58990 -0.14000
H 	H 	0.94580 0.70990 0.61120 0.08200
C 	C 	0.31800 0.44740 0.99400 0.09700
C 	C 	0.46660 0.57380 0.03410 0.06700
C 	C 	0.76450 0.93570 0.61180 0.07900
H 	H 	0.78620 0.94320 0.65160 -0.00700
C 	C 	0.27970 0.34710 0.10840 0.05200
H 	H 	0.29960 0.34220 0.14850 -0.01900
C 	C 	0.75690 0.76290 0.34950 0.05900
C 	C 	0.32100 0.54370 0.81960 -0.13000
H 	H 	0.36520 0.56090 0.83980 0.08000
C 	C 	0.31980 0.49810 0.91300 0.09700
C 	C 	0.28510 0.39880 0.02320 0.04600
C 	C 	0.76480 0.87890 0.52640 0.06600
C 	C 	0.97410 0.66490 0.50120 -0.14100
H 	H 	0.95680 0.66930 0.46120 0.07500
C 	C 	0.79620 0.89000 0.58580 -0.13000
H 	H 	0.83790 0.86690 0.60770 0.08400
C 	C 	0.31360 0.39000 0.08210 -0.12300
H 	H 	0.35550 0.41250 0.10440 0.07500
C 	C 	0.79500 0.82800 0.49590 0.10400
C 	C 	0.28760 0.50810 0.84880 0.05300
C 	C 	0.02670 0.64700 0.61660 0.06500
H 	H 	0.04420 0.63980 0.65640 -0.01500
C 	C 	0.67460 0.95870 0.52660 0.08300
H 	H 	0.63210 0.98100 0.50640 -0.01000
C 	C 	0.19240 0.31980 0.02150 0.06000
H 	H 	0.15090 0.29550 0.00050 -0.00500
C 	C 	0.03310 0.62520 0.53190 0.06600
H 	H 	0.05550 0.60300 0.51160 -0.01600
C 	C 	0.19320 0.49480 0.75810 0.07000
H 	H 	0.14920 0.47760 0.73720 -0.02200
C 	C 	0.49820 0.57210 0.09370 -0.13500
H 	H 	0.48080 0.54160 0.11470 0.08000
C 	C 	0.55610 0.61670 0.12150 0.07800
H 	H 	0.57530 0.61890 0.16160 -0.00300
C 	C 	0.78470 0.71160 0.32260 -0.13400
H 	H 	0.82330 0.68220 0.34430 0.07000
C 	C 	0.75450 0.70510 0.26380 0.06800
H 	H 	0.77340 0.67010 0.24630 -0.01500
C 	C 	0.28840 0.55340 0.76040 0.06800
H 	H 	0.31140 0.57770 0.74130 -0.00900
C 	C 	0.22190 0.48330 0.81740 -0.14000
H 	H 	0.19760 0.45970 0.83560 0.07400
C 	C 	0.67150 0.79190 0.25640 0.07600
H 	H 	0.63200 0.81910 0.23370 -0.01600
C 	C 	0.69770 0.80150 0.31570 -0.13600
H 	H 	0.67590 0.83330 0.33240 0.08200
N 	N 	0.70460 0.96980 0.58320 -0.19100
N 	N 	0.06060 0.61640 0.58890 -0.21000
N 	N 	0.69930 0.74600 0.22990 -0.19500
N 	N 	0.76210 0.82280 0.43790 -0.13700
N 	N 	0.85180 0.78950 0.52840 -0.13800
N 	N 	0.84730 0.73310 0.44170 -0.14200
N 	N 	0.58620 0.65730 0.09350 -0.18600
N 	N 	0.22430 0.52880 0.72910 -0.19500
N 	N 	0.22020 0.31310 0.07870 -0.20200
N 	N 	0.37700 0.53720 0.94210 -0.13700
N 	N 	0.28870 0.45040 0.93610 -0.14900
N 	N 	0.37390 0.48780 0.02760 -0.14200
Ag	Ag	0.15573 0.54269 0.63253 0.51000
Ag	Ag	0.17751 0.24567 0.13309 0.51300
C 	C 	0.90230 0.02900 0.00010 0.10200
C 	C 	0.72270 0.86190 0.99130 -0.12700
H 	H 	0.70200 0.86520 0.95110 0.07300
C 	C 	0.20220 0.41610 0.49540 -0.12900
H 	H 	0.18010 0.41220 0.45540 0.08400
C 	C 	0.37650 0.24330 0.49900 0.09800
C 	C 	0.44030 0.19840 0.53120 0.06000
C 	C 	0.99680 0.11570 0.00470 -0.12900
H 	H 	0.97740 0.11670 0.96450 0.08400
C 	C 	0.05590 0.15580 0.03610 0.08100
H 	H 	0.07590 0.18360 0.01590 -0.01000
C 	C 	0.29030 0.27380 0.41330 0.10200
C 	C 	0.46730 0.18870 0.58990 -0.13900
H 	H 	0.44580 0.20990 0.61120 0.08100
C 	C 	0.81800 0.94740 0.99400 0.09400
C 	C 	0.96660 0.07380 0.03410 0.06400
C 	C 	0.26450 0.43570 0.61180 0.07900
H 	H 	0.28620 0.44320 0.65160 -0.00700
C 	C 	0.77970 0.84710 0.10840 0.05400
H 	H 	0.79960 0.84220 0.14850 -0.02000
C 	C 	0.25690 0.26290 0.34950 0.05900
C 	C 	0.82100 0.04370 0.81960 -0.13000
H 	H 	0.86520 0.06090 0.83980 0.08000
C 	C 	0.81980 0.99810 0.91300 0.09700
C 	C 	0.78510 0.89880 0.02320 0.05200
C 	C 	0.26480 0.37890 0.52640 0.06600
C 	C 	0.47410 0.16490 0.50120 -0.14000
H 	H 	0.45680 0.16930 0.46120 0.07500
C 	C 	0.29620 0.39000 0.58580 -0.13000
H 	H 	0.33790 0.36690 0.60770 0.08400
C 	C 	0.81360 0.89000 0.08210 -0.12600
H 	H 	0.85550 0.91250 0.10440 0.07600
C 	C 	0.29500 0.32800 0.49590 0.10400
C 	C 	0.78760 0.00810 0.84880 0.05300
C 	C 	0.52670 0.14700 0.61660 0.06400
H 	H 	0.54420 0.13980 0.65640 -0.01500
C 	C 	0.17460 0.45870 0.52660 0.08300
H 	H 	0.13210 0.48100 0.50640 -0.01100
C 	C 	0.69240 0.81980 0.02150 0.06400
H 	H 	0.65090 0.79550 0.00050 -0.00600
C 	C 	0.53310 0.12520 0.53190 0.06500
H 	H 	0.55550 0.10300 0.51160 -0.01600
C 	C 	0.69320 0.99480 0.75810 0.07000
H 	H 	0.64920 0.97760 0.73720 -0.02200
C 	C 	0.99820 0.07210 0.09370 -0.13200
H 	H 	0.98080 0.04160 0.11470 0.07900
C 	C 	0.05610 0.11670 0.12150 0.07500
H 	H 	0.07530 0.11890 0.16160 -0.00300
C 	C 	0.28470 0.21160 0.32260 -0.13400
H 	H 	0.32330 0.18220 0.34430 0.07000
C 	C 	0.25450 0.20510 0.26380 0.06800
H 	H 	0.27340 0.17010 0.24630 -0.01500
C 	C 	0.78840 0.05340 0.76040 0.06800
H 	H 	0.81140 0.07770 0.74130 -0.00900
C 	C 	0.72190 0.98330 0.81740 -0.14000
H 	H 	0.69760 0.95970 0.83560 0.07400
C 	C 	0.17150 0.29190 0.25640 0.07600
H 	H 	0.13200 0.31910 0.23370 -0.01600
C 	C 	0.19770 0.30150 0.31570 -0.13600
H 	H 	0.17590 0.33330 0.33240 0.08200
N 	N 	0.20460 0.46980 0.58320 -0.19100
N 	N 	0.56060 0.11640 0.58890 -0.21000
N 	N 	0.19930 0.24600 0.22990 -0.19500
N 	N 	0.26210 0.32280 0.43790 -0.13700
N 	N 	0.35180 0.28950 0.52840 -0.13800
N 	N 	0.34730 0.23310 0.44170 -0.14200
N 	N 	0.08620 0.15730 0.09350 -0.18500
N 	N 	0.72430 0.02880 0.72910 -0.19500
N 	N 	0.72020 0.81310 0.07870 -0.20300
N 	N 	0.87700 0.03720 0.94210 -0.13800
N 	N 	0.78870 0.95040 0.93610 -0.14900
N 	N 	0.87390 0.98780 0.02760 -0.14100
Ag	Ag	0.34427 0.04269 0.86747 0.51000
Ag	Ag	0.32249 0.74567 0.36691 0.51300
C 	C 	0.59770 0.52900 0.49990 0.10100
C 	C 	0.77730 0.36190 0.50870 -0.12300
H 	H 	0.79800 0.36520 0.54890 0.07100
C 	C 	0.29780 0.91610 0.00460 -0.13200
H 	H 	0.31990 0.91220 0.04460 0.08500
C 	C 	0.12350 0.74330 0.00100 0.09800
C 	C 	0.05970 0.69840 0.96880 0.05900
C 	C 	0.50320 0.61570 0.49530 -0.13500
H 	H 	0.52260 0.61670 0.53550 0.08700
C 	C 	0.44410 0.65580 0.46390 0.08500
H 	H 	0.42410 0.68360 0.48410 -0.01100
C 	C 	0.20970 0.77380 0.08670 0.10200
C 	C 	0.03270 0.68870 0.91010 -0.13700
H 	H 	0.05420 0.70990 0.88880 0.08100
C 	C 	0.68200 0.44740 0.50600 0.09600
C 	C 	0.53340 0.57380 0.46590 0.06700
C 	C 	0.23550 0.93570 0.88820 0.08000
H 	H 	0.21380 0.94320 0.84840 -0.00700
C 	C 	0.72030 0.34710 0.39160 0.05300
H 	H 	0.70040 0.34220 0.35150 -0.02000
C 	C 	0.24310 0.76290 0.15050 0.05900
C 	C 	0.67900 0.54370 0.68040 -0.13000
H 	H 	0.63480 0.56090 0.66020 0.08000
C 	C 	0.68020 0.49810 0.58700 0.09700
C 	C 	0.71490 0.39880 0.47680 0.04900
C 	C 	0.23520 0.87890 0.97360 0.06800
C 	C 	0.02590 0.66490 0.99880 -0.13600
H 	H 	0.04320 0.66930 0.03880 0.07300
C 	C 	0.20380 0.89000 0.91420 -0.13100
H 	H 	0.16210 0.86690 0.89230 0.08400
C 	C 	0.68640 0.39000 0.41790 -0.12400
H 	H 	0.64450 0.41250 0.39560 0.07500
C 	C 	0.20500 0.82800 0.00410 0.10300
C 	C 	0.71240 0.50810 0.65120 0.05300
C 	C 	0.97330 0.64700 0.88340 0.06200
H 	H 	0.95580 0.63980 0.84360 -0.01500
C 	C 	0.32540 0.95870 0.97340 0.08500
H 	H 	0.36790 0.98100 0.99360 -0.01100
C 	C 	0.80760 0.31980 0.47850 0.06200
H 	H 	0.84910 0.29550 0.49950 -0.00500
C 	C 	0.96690 0.62520 0.96810 0.06200
H 	H 	0.94450 0.60300 0.98840 -0.01500
C 	C 	0.80680 0.49480 0.74190 0.07000
H 	H 	0.85080 0.47760 0.76280 -0.02200
C 	C 	0.50180 0.57210 0.40630 -0.13500
H 	H 	0.51920 0.54160 0.38530 0.08000
C 	C 	0.44390 0.61670 0.37850 0.07700
H 	H 	0.42470 0.61890 0.33840 -0.00300
C 	C 	0.21530 0.71160 0.17740 -0.13400
H 	H 	0.17670 0.68220 0.15570 0.07000
C 	C 	0.24550 0.70510 0.23620 0.06800
H 	H 	0.22660 0.67010 0.25370 -0.01500
C 	C 	0.71160 0.55340 0.73960 0.06800
H 	H 	0.68860 0.57770 0.75870 -0.00900
C 	C 	0.77810 0.48330 0.68260 -0.14000
H 	H 	0.80240 0.45970 0.66440 0.07400
C 	C 	0.32850 0.79190 0.24360 0.07600
H 	H 	0.36800 0.81910 0.26630 -0.01600
C 	C 	0.30230 0.80150 0.18430 -0.13600
H 	H 	0.32410 0.83330 0.16760 0.08200
N 	N 	0.29540 0.96980 0.91680 -0.19100
N 	N 	0.93940 0.61640 0.91110 -0.20900
N 	N 	0.30070 0.74600 0.27010 -0.19500
N 	N 	0.23790 0.82280 0.06210 -0.13700
N 	N 	0.14820 0.78950 0.97160 -0.13700
N 	N 	0.15270 0.73310 0.05830 -0.14200
N 	N 	0.41380 0.65730 0.40650 -0.18600
N 	N 	0.77570 0.52880 0.77090 -0.19500
N 	N 	0.77980 0.31310 0.42130 -0.20200
N 	N 	0.62300 0.53720 0.55790 -0.13700
N 	N 	0.71130 0.45040 0.56390 -0.14900
N 	N 	0.62610 0.48780 0.47240 -0.14200
Ag	Ag	0.84427 0.54269 0.86747 0.51000
Ag	Ag	0.82249 0.24567 0.36691 0.51300
C 	C 	0.09770 0.02900 0.49990 0.10100
C 	C 	0.27730 0.86190 0.50870 -0.12300
H 	H 	0.29800 0.86520 0.54890 0.07100
C 	C 	0.79780 0.41610 0.00460 -0.12700
H 	H 	0.81990 0.41220 0.04460 0.08300
C 	C 	0.62350 0.24330 0.00100 0.09900
C 	C 	0.55970 0.19840 0.96880 0.06000
C 	C 	0.00320 0.11570 0.49530 -0.13500
H 	H 	0.02260 0.11670 0.53550 0.08700
C 	C 	0.94410 0.15580 0.46390 0.08500
H 	H 	0.92410 0.18360 0.48410 -0.01100
C 	C 	0.70970 0.27380 0.08670 0.10200
C 	C 	0.53270 0.18870 0.91010 -0.13900
H 	H 	0.55420 0.20990 0.88880 0.08100
C 	C 	0.18200 0.94740 0.50600 0.09600
C 	C 	0.03340 0.07380 0.46590 0.06700
C 	C 	0.73550 0.43570 0.88820 0.07800
H 	H 	0.71380 0.44320 0.84840 -0.00700
C 	C 	0.22030 0.84710 0.39160 0.05300
H 	H 	0.20040 0.84220 0.35150 -0.02000
C 	C 	0.74310 0.26290 0.15050 0.05900
C 	C 	0.17900 0.04370 0.68040 -0.13000
H 	H 	0.13480 0.06090 0.66020 0.08000
C 	C 	0.18020 0.99810 0.58700 0.09700
C 	C 	0.21490 0.89880 0.47680 0.04900
C 	C 	0.73520 0.37890 0.97360 0.06400
C 	C 	0.52590 0.16490 0.99880 -0.14100
H 	H 	0.54320 0.16930 0.03880 0.07500
C 	C 	0.70380 0.39000 0.91420 -0.12900
H 	H 	0.66210 0.36690 0.89230 0.08300
C 	C 	0.18640 0.89000 0.41790 -0.12400
H 	H 	0.14450 0.91250 0.39560 0.07500
C 	C 	0.70500 0.32800 0.00410 0.10500
C 	C 	0.21240 0.00810 0.65120 0.05300
C 	C 	0.47330 0.14700 0.88340 0.06400
H 	H 	0.45580 0.13980 0.84360 -0.01500
C 	C 	0.82540 0.45870 0.97340 0.08200
H 	H 	0.86790 0.48100 0.99360 -0.01000
C 	C 	0.30760 0.81980 0.47850 0.06200
H 	H 	0.34910 0.79550 0.49950 -0.00500
C 	C 	0.46690 0.12520 0.96810 0.06600
H 	H 	0.44450 0.10300 0.98840 -0.01600
C 	C 	0.30680 0.99480 0.74190 0.07000
H 	H 	0.35080 0.97760 0.76280 -0.02200
C 	C 	0.00180 0.07210 0.40630 -0.13500
H 	H 	0.01920 0.04160 0.38530 0.08000
C 	C 	0.94390 0.11670 0.37850 0.07800
H 	H 	0.92470 0.11890 0.33840 -0.00300
C 	C 	0.71530 0.21160 0.17740 -0.13400
H 	H 	0.67670 0.18220 0.15570 0.07000
C 	C 	0.74550 0.20510 0.23620 0.06800
H 	H 	0.72660 0.17010 0.25370 -0.01500
C 	C 	0.21160 0.05340 0.73960 0.06800
H 	H 	0.18860 0.07770 0.75870 -0.00900
C 	C 	0.27810 0.98330 0.68260 -0.14000
H 	H 	0.30240 0.95970 0.66440 0.07400
C 	C 	0.82850 0.29190 0.24360 0.07600
H 	H 	0.86800 0.31910 0.26630 -0.01600
C 	C 	0.80230 0.30150 0.18430 -0.13600
H 	H 	0.82410 0.33330 0.16760 0.08200
N 	N 	0.79540 0.46980 0.91680 -0.19100
N 	N 	0.43940 0.11640 0.91110 -0.21000
N 	N 	0.80070 0.24600 0.27010 -0.19500
N 	N 	0.73790 0.32280 0.06210 -0.13800
N 	N 	0.64820 0.28950 0.97160 -0.13800
N 	N 	0.65270 0.23310 0.05830 -0.14200
N 	N 	0.91380 0.15730 0.40650 -0.18600
N 	N 	0.27570 0.02880 0.77090 -0.19500
N 	N 	0.27980 0.81310 0.42130 -0.20200
N 	N 	0.12300 0.03720 0.55790 -0.13700
N 	N 	0.21130 0.95040 0.56390 -0.14900
N 	N 	0.12610 0.98780 0.47240 -0.14200
