data_crystal

_cell_length_a 21.93620
_cell_length_b 16.73290
_cell_length_c 25.57150
_cell_angle_alpha 90.00000
_cell_angle_beta  115.32400
_cell_angle_gamma 90.00000

_symmetry_space_group_name_	'P 1'
_symmetry_space_group_name_H-M	'P 1'

loop_
_symmetry_equiv_pos_as_xyz
  x,y,z

loop_
_atom_site_label
_atom_site_type_symbol
_atom_site_fract_x
_atom_site_fract_y
_atom_site_fract_z
_atom_site_charge
Ag	Ag	0.34428 0.95836 0.36767 0.50900
Ag	Ag	0.32166 0.25405 0.86719 0.51200
C 	C 	0.59740 0.47050 -0.00000 0.09700
C 	C 	0.12350 0.25630 0.50100 0.09800
C 	C 	0.03290 0.31090 0.41010 -0.14100
H 	H 	0.05410 0.28970 0.38860 0.08100
C 	C 	0.72010 0.65030 0.89170 0.05800
H 	H 	0.70060 0.65400 0.85150 -0.02300
C 	C 	0.06020 0.30140 0.46870 0.06000
C 	C 	0.50270 0.38440 0.99530 -0.13200
H 	H 	0.52220 0.38370 0.03550 0.08300
C 	C 	0.53270 0.42610 0.96590 0.06900
C 	C 	0.29780 0.08390 0.50500 -0.12800
H 	H 	0.31990 0.08750 0.54510 0.08200
C 	C 	0.44350 0.34380 0.96420 0.08200
H 	H 	0.42360 0.31630 0.98450 -0.01100
C 	C 	0.68130 0.55150 0.00580 0.08900
C 	C 	0.20970 0.22530 0.58660 0.10100
C 	C 	0.77670 0.63760 0.00880 -0.14000
H 	H 	0.79750 0.63480 0.04890 0.07700
C 	C 	0.23610 0.06580 0.38880 0.07800
H 	H 	0.21450 0.05910 0.34890 -0.00700
C 	C 	0.71130 0.49290 0.15110 0.06000
C 	C 	0.24260 0.23590 0.65020 0.06100
C 	C 	0.02560 0.33470 0.49820 -0.14300
H 	H 	0.04230 0.32950 0.53810 0.07600
C 	C 	0.96720 0.37450 0.46790 0.06800
H 	H 	0.94530 0.39700 0.48840 -0.01700
C 	C 	0.67920 0.50170 0.08680 0.09600
C 	C 	0.71440 0.60060 0.97670 0.06000
C 	C 	0.20540 0.17250 0.50450 0.10400
C 	C 	0.67820 0.45720 0.17980 -0.13800
H 	H 	0.63420 0.43920 0.15960 0.08300
C 	C 	0.23560 0.12190 0.47410 0.06400
C 	C 	0.32540 0.04100 0.47430 0.08100
H 	H 	0.36750 0.01770 0.49480 -0.01000
C 	C 	0.68660 0.60840 0.91770 -0.13400
H 	H 	0.64500 0.58540 0.89520 0.07900
C 	C 	0.97320 0.35240 0.38340 0.06500
H 	H 	0.95540 0.35920 0.34350 -0.01500
C 	C 	0.20440 0.11120 0.41450 -0.12900
H 	H 	0.16260 0.13440 0.39250 0.08300
C 	C 	0.50160 0.42540 0.90660 -0.13900
H 	H 	0.51970 0.45390 0.88540 0.08100
C 	C 	0.80520 0.50620 0.24170 0.08000
H 	H 	0.84920 0.52380 0.26290 -0.02600
C 	C 	0.80650 0.67900 0.97810 0.07600
H 	H 	0.84810 0.70320 0.99910 -0.01000
C 	C 	0.71090 0.44820 0.23920 0.07500
H 	H 	0.68780 0.42440 0.25830 -0.01100
C 	C 	0.77710 0.51760 0.18260 -0.15000
H 	H 	0.80160 0.54110 0.16470 0.07700
C 	C 	0.44350 0.38190 0.87890 0.08100
H 	H 	0.42400 0.38010 0.83870 -0.00500
C 	C 	0.21500 0.28680 0.67670 -0.13100
H 	H 	0.17640 0.31610 0.65480 0.07000
C 	C 	0.30110 0.19650 0.68430 -0.14100
H 	H 	0.32290 0.16430 0.66790 0.08400
C 	C 	0.32670 0.20570 0.74310 0.08400
H 	H 	0.36590 0.17790 0.76560 -0.01800
C 	C 	0.24530 0.29350 0.73610 0.06200
H 	H 	0.22710 0.32910 0.75360 -0.01300
N 	N 	0.29580 0.03080 0.41730 -0.19000
N 	N 	0.93940 0.38340 0.41090 -0.21000
N 	N 	0.30020 0.25090 0.77020 -0.19500
N 	N 	0.14800 0.21100 0.47170 -0.13800
N 	N 	0.15270 0.26690 0.55820 -0.14200
N 	N 	0.23770 0.17710 0.56210 -0.13800
N 	N 	0.77940 0.68570 0.92160 -0.20600
N 	N 	0.41340 0.34200 0.90680 -0.18600
N 	N 	0.77460 0.47250 0.27040 -0.19800
N 	N 	0.62520 0.51160 0.97230 -0.13900
N 	N 	0.62240 0.46260 0.05780 -0.13700
N 	N 	0.71040 0.54920 0.06370 -0.14800
Ag	Ag	0.84428 0.45836 0.36767 0.51000
Ag	Ag	0.82166 0.75405 0.86719 0.51300
C 	C 	0.09740 0.97050 -0.00000 0.09700
C 	C 	0.62350 0.75630 0.50100 0.10000
C 	C 	0.53290 0.81090 0.41010 -0.13900
H 	H 	0.55410 0.78970 0.38860 0.08100
C 	C 	0.22010 0.15030 0.89170 0.06100
H 	H 	0.20060 0.15400 0.85150 -0.02200
C 	C 	0.56020 0.80140 0.46870 0.06100
C 	C 	0.00270 0.88440 0.99530 -0.12500
H 	H 	0.02220 0.88370 0.03550 0.08100
C 	C 	0.03270 0.92610 0.96590 0.06800
C 	C 	0.79780 0.58390 0.50500 -0.12800
H 	H 	0.81990 0.58750 0.54510 0.08300
C 	C 	0.94350 0.84380 0.96420 0.07900
H 	H 	0.92360 0.81630 0.98450 -0.00900
C 	C 	0.18130 0.05150 0.00580 0.08700
C 	C 	0.70970 0.72530 0.58660 0.10100
C 	C 	0.27670 0.13760 0.00880 -0.14500
H 	H 	0.29750 0.13480 0.04890 0.07800
C 	C 	0.73610 0.56580 0.38880 0.07800
H 	H 	0.71450 0.55910 0.34890 -0.00700
C 	C 	0.21130 0.99290 0.15110 0.06000
C 	C 	0.74260 0.73590 0.65020 0.06100
C 	C 	0.52560 0.83470 0.49820 -0.14200
H 	H 	0.54230 0.82950 0.53810 0.07600
C 	C 	0.46720 0.87450 0.46790 0.06800
H 	H 	0.44530 0.89700 0.48840 -0.01700
C 	C 	0.17920 0.00170 0.08680 0.09600
C 	C 	0.21440 0.10060 0.97670 0.06500
C 	C 	0.70540 0.67250 0.50450 0.10400
C 	C 	0.17820 0.95720 0.17980 -0.13800
H 	H 	0.13420 0.93920 0.15960 0.08300
C 	C 	0.73560 0.62190 0.47410 0.06400
C 	C 	0.82540 0.54100 0.47430 0.08100
H 	H 	0.86750 0.51770 0.49480 -0.01000
C 	C 	0.18660 0.10840 0.91770 -0.13700
H 	H 	0.14500 0.08540 0.89520 0.08000
C 	C 	0.47320 0.85240 0.38340 0.06400
H 	H 	0.45540 0.85920 0.34350 -0.01500
C 	C 	0.70440 0.61120 0.41450 -0.12900
H 	H 	0.66260 0.63440 0.39250 0.08300
C 	C 	0.00160 0.92540 0.90660 -0.13600
H 	H 	0.01970 0.95390 0.88540 0.08100
C 	C 	0.30520 0.00620 0.24170 0.08000
H 	H 	0.34920 0.02380 0.26290 -0.02600
C 	C 	0.30650 0.17900 0.97810 0.08000
H 	H 	0.34810 0.20320 0.99910 -0.01100
C 	C 	0.21090 0.94820 0.23920 0.07500
H 	H 	0.18780 0.92440 0.25830 -0.01200
C 	C 	0.27710 0.01760 0.18260 -0.15000
H 	H 	0.30160 0.04110 0.16470 0.07700
C 	C 	0.94350 0.88190 0.87890 0.07900
H 	H 	0.92400 0.88010 0.83870 -0.00400
C 	C 	0.71500 0.78680 0.67670 -0.13100
H 	H 	0.67640 0.81610 0.65480 0.07000
C 	C 	0.80110 0.69650 0.68430 -0.14100
H 	H 	0.82290 0.66430 0.66790 0.08400
C 	C 	0.82670 0.70570 0.74310 0.08400
H 	H 	0.86590 0.67790 0.76560 -0.01800
C 	C 	0.74530 0.79350 0.73610 0.06100
H 	H 	0.72710 0.82910 0.75360 -0.01300
N 	N 	0.79580 0.53080 0.41730 -0.19000
N 	N 	0.43940 0.88340 0.41090 -0.21000
N 	N 	0.80020 0.75090 0.77020 -0.19500
N 	N 	0.64800 0.71100 0.47170 -0.13800
N 	N 	0.65270 0.76690 0.55820 -0.14200
N 	N 	0.73770 0.67710 0.56210 -0.13800
N 	N 	0.27940 0.18570 0.92160 -0.20700
N 	N 	0.91340 0.84200 0.90680 -0.18500
N 	N 	0.27460 0.97250 0.27040 -0.19800
N 	N 	0.12520 0.01160 0.97230 -0.13800
N 	N 	0.12240 0.96260 0.05780 -0.13700
N 	N 	0.21040 0.04920 0.06370 -0.14700
Ag	Ag	0.65572 0.95836 0.13233 0.51000
Ag	Ag	0.67834 0.25405 0.63281 0.51300
C 	C 	0.40260 0.47050 0.50000 0.10100
C 	C 	0.87650 0.25630 0.99900 0.10200
C 	C 	0.96710 0.31090 0.08990 -0.13600
H 	H 	0.94590 0.28970 0.11140 0.08000
C 	C 	0.27990 0.65030 0.60830 0.05600
H 	H 	0.29940 0.65400 0.64850 -0.02100
C 	C 	0.93980 0.30140 0.03130 0.05800
C 	C 	0.49730 0.38440 0.50470 -0.13500
H 	H 	0.47780 0.38370 0.46450 0.08700
C 	C 	0.46730 0.42610 0.53410 0.06900
C 	C 	0.70220 0.08390 0.99500 -0.11900
H 	H 	0.68010 0.08750 0.95490 0.08000
C 	C 	0.55650 0.34380 0.53580 0.08500
H 	H 	0.57640 0.31630 0.51550 -0.01100
C 	C 	0.31870 0.55150 0.49420 0.09500
C 	C 	0.79030 0.22530 0.91340 0.10200
C 	C 	0.22330 0.63760 0.49120 -0.13100
H 	H 	0.20250 0.63480 0.45110 0.07400
C 	C 	0.76390 0.06580 0.11120 0.07600
H 	H 	0.78550 0.05910 0.15110 -0.00600
C 	C 	0.28870 0.49290 0.34890 0.06000
C 	C 	0.75740 0.23590 0.84980 0.06100
C 	C 	0.97440 0.33470 0.00180 -0.14100
H 	H 	0.95770 0.32950 0.96190 0.07600
C 	C 	0.03280 0.37450 0.03210 0.06600
H 	H 	0.05470 0.39700 0.01160 -0.01700
C 	C 	0.32080 0.50170 0.41320 0.09600
C 	C 	0.28560 0.60060 0.52330 0.05300
C 	C 	0.79460 0.17250 0.99550 0.10800
C 	C 	0.32180 0.45720 0.32020 -0.13800
H 	H 	0.36580 0.43920 0.34040 0.08300
C 	C 	0.76440 0.12190 0.02590 0.05800
C 	C 	0.67460 0.04100 0.02570 0.07600
H 	H 	0.63250 0.01770 0.00520 -0.00900
C 	C 	0.31340 0.60840 0.58230 -0.12900
H 	H 	0.35500 0.58540 0.60480 0.07700
C 	C 	0.02680 0.35240 0.11660 0.06100
H 	H 	0.04460 0.35920 0.15650 -0.01400
C 	C 	0.79560 0.11120 0.08550 -0.12500
H 	H 	0.83740 0.13440 0.10750 0.08200
C 	C 	0.49840 0.42540 0.59340 -0.13900
H 	H 	0.48030 0.45390 0.61460 0.08100
C 	C 	0.19480 0.50620 0.25830 0.08000
H 	H 	0.15080 0.52380 0.23710 -0.02600
C 	C 	0.19350 0.67900 0.52190 0.07000
H 	H 	0.15190 0.70320 0.50090 -0.00800
C 	C 	0.28910 0.44820 0.26080 0.07500
H 	H 	0.31220 0.42440 0.24170 -0.01200
C 	C 	0.22290 0.51760 0.31740 -0.15000
H 	H 	0.19840 0.54110 0.33530 0.07700
C 	C 	0.55650 0.38190 0.62110 0.08100
H 	H 	0.57600 0.38010 0.66130 -0.00500
C 	C 	0.78500 0.28680 0.82330 -0.13100
H 	H 	0.82360 0.31610 0.84520 0.07000
C 	C 	0.69890 0.19650 0.81570 -0.14100
H 	H 	0.67710 0.16430 0.83210 0.08400
C 	C 	0.67330 0.20570 0.75690 0.08400
H 	H 	0.63410 0.17790 0.73440 -0.01800
C 	C 	0.75470 0.29350 0.76390 0.06100
H 	H 	0.77290 0.32910 0.74640 -0.01300
N 	N 	0.70420 0.03080 0.08270 -0.18900
N 	N 	0.06060 0.38340 0.08910 -0.20900
N 	N 	0.69980 0.25090 0.72980 -0.19500
N 	N 	0.85200 0.21100 0.02830 -0.14000
N 	N 	0.84730 0.26690 0.94180 -0.14200
N 	N 	0.76230 0.17710 0.93790 -0.13900
N 	N 	0.22060 0.68570 0.57840 -0.20400
N 	N 	0.58660 0.34200 0.59320 -0.18700
N 	N 	0.22540 0.47250 0.22960 -0.19800
N 	N 	0.37480 0.51160 0.52770 -0.14200
N 	N 	0.37760 0.46260 0.44220 -0.13800
N 	N 	0.28960 0.54920 0.43630 -0.14900
Ag	Ag	0.15572 0.45836 0.13233 0.51000
Ag	Ag	0.17834 0.75405 0.63281 0.51300
C 	C 	0.90260 0.97050 0.50000 0.10100
C 	C 	0.37650 0.75630 0.99900 0.10400
C 	C 	0.46710 0.81090 0.08990 -0.13900
H 	H 	0.44590 0.78970 0.11140 0.08100
C 	C 	0.77990 0.15030 0.60830 0.05600
H 	H 	0.79940 0.15400 0.64850 -0.02100
C 	C 	0.43980 0.80140 0.03130 0.05900
C 	C 	0.99730 0.88440 0.50470 -0.13500
H 	H 	0.97780 0.88370 0.46450 0.08700
C 	C 	0.96730 0.92610 0.53410 0.06900
C 	C 	0.20220 0.58390 0.99500 -0.11300
H 	H 	0.18010 0.58750 0.95490 0.07800
C 	C 	0.05650 0.84380 0.53580 0.08500
H 	H 	0.07640 0.81630 0.51550 -0.01200
C 	C 	0.81870 0.05150 0.49420 0.09500
C 	C 	0.29030 0.72530 0.91340 0.10200
C 	C 	0.72330 0.13760 0.49120 -0.13100
H 	H 	0.70250 0.13480 0.45110 0.07400
C 	C 	0.26390 0.56580 0.11120 0.07400
H 	H 	0.28550 0.55910 0.15110 -0.00600
C 	C 	0.78870 0.99290 0.34890 0.06000
C 	C 	0.25740 0.73590 0.84980 0.06100
C 	C 	0.47440 0.83470 0.00180 -0.14700
H 	H 	0.45770 0.82950 0.96190 0.07900
C 	C 	0.53280 0.87450 0.03210 0.07000
H 	H 	0.55470 0.89700 0.01160 -0.01900
C 	C 	0.82080 0.00170 0.41320 0.09600
C 	C 	0.78560 0.10060 0.52330 0.05300
C 	C 	0.29460 0.67250 0.99550 0.11200
C 	C 	0.82180 0.95720 0.32020 -0.13800
H 	H 	0.86580 0.93920 0.34040 0.08300
C 	C 	0.26440 0.62190 0.02590 0.05200
C 	C 	0.17460 0.54100 0.02570 0.07100
H 	H 	0.13250 0.51770 0.00520 -0.00800
C 	C 	0.81340 0.10840 0.58230 -0.12900
H 	H 	0.85500 0.08540 0.60480 0.07700
C 	C 	0.52680 0.85240 0.11660 0.06400
H 	H 	0.54460 0.85920 0.15650 -0.01500
C 	C 	0.29560 0.61120 0.08550 -0.12100
H 	H 	0.33740 0.63440 0.10750 0.08000
C 	C 	0.99840 0.92540 0.59340 -0.13900
H 	H 	0.98030 0.95390 0.61460 0.08100
C 	C 	0.69480 0.00620 0.25830 0.08000
H 	H 	0.65080 0.02380 0.23710 -0.02600
C 	C 	0.69350 0.17900 0.52190 0.07000
H 	H 	0.65190 0.20320 0.50090 -0.00800
C 	C 	0.78910 0.94820 0.26080 0.07500
H 	H 	0.81220 0.92440 0.24170 -0.01100
C 	C 	0.72290 0.01760 0.31740 -0.15000
H 	H 	0.69840 0.04110 0.33530 0.07700
C 	C 	0.05650 0.88190 0.62110 0.08200
H 	H 	0.07600 0.88010 0.66130 -0.00500
C 	C 	0.28500 0.78680 0.82330 -0.13100
H 	H 	0.32360 0.81610 0.84520 0.07000
C 	C 	0.19890 0.69650 0.81570 -0.14100
H 	H 	0.17710 0.66430 0.83210 0.08400
C 	C 	0.17330 0.70570 0.75690 0.08400
H 	H 	0.13410 0.67790 0.73440 -0.01800
C 	C 	0.25470 0.79350 0.76390 0.06200
H 	H 	0.27290 0.82910 0.74640 -0.01300
N 	N 	0.20420 0.53080 0.08270 -0.18800
N 	N 	0.56060 0.88340 0.08910 -0.21000
N 	N 	0.19980 0.75090 0.72980 -0.19500
N 	N 	0.35200 0.71100 0.02830 -0.14200
N 	N 	0.34730 0.76690 0.94180 -0.14200
N 	N 	0.26230 0.67710 0.93790 -0.14000
N 	N 	0.72060 0.18570 0.57840 -0.20400
N 	N 	0.08660 0.84200 0.59320 -0.18700
N 	N 	0.72540 0.97250 0.22960 -0.19800
N 	N 	0.87480 0.01160 0.52770 -0.14200
N 	N 	0.87760 0.96260 0.44220 -0.13800
N 	N 	0.78960 0.04920 0.43630 -0.14900
Ag	Ag	0.65572 0.04164 0.63233 0.51000
Ag	Ag	0.67834 0.74595 0.13281 0.51300
C 	C 	0.40260 0.52950 -0.00000 0.09700
C 	C 	0.87650 0.74370 0.49900 0.09900
C 	C 	0.96710 0.68910 0.58990 -0.14000
H 	H 	0.94590 0.71030 0.61140 0.08200
C 	C 	0.27990 0.34970 0.10830 0.05100
H 	H 	0.29940 0.34600 0.14850 -0.01900
C 	C 	0.93980 0.69860 0.53130 0.06100
C 	C 	0.49730 0.61560 0.00470 -0.14300
H 	H 	0.47780 0.61630 0.96450 0.09100
C 	C 	0.46730 0.57390 0.03410 0.07300
C 	C 	0.70220 0.91610 0.49500 -0.12700
H 	H 	0.68010 0.91250 0.45490 0.08300
C 	C 	0.55650 0.65620 0.03580 0.08900
H 	H 	0.57640 0.68370 0.01550 -0.01300
C 	C 	0.31870 0.44850 0.99420 0.10200
C 	C 	0.79030 0.77470 0.41340 0.10100
C 	C 	0.22330 0.36240 0.99120 -0.11700
H 	H 	0.20250 0.36520 0.95110 0.06900
C 	C 	0.76390 0.93420 0.61120 0.07800
H 	H 	0.78550 0.94090 0.65110 -0.00700
C 	C 	0.28870 0.50710 0.84890 0.06000
C 	C 	0.75740 0.76410 0.34980 0.06100
C 	C 	0.97440 0.66530 0.50180 -0.14200
H 	H 	0.95770 0.67050 0.46190 0.07600
C 	C 	0.03280 0.62550 0.53210 0.06800
H 	H 	0.05470 0.60300 0.51160 -0.01700
C 	C 	0.32080 0.49830 0.91320 0.09600
C 	C 	0.28560 0.39940 0.02330 0.04100
C 	C 	0.79460 0.82750 0.49550 0.10400
C 	C 	0.32180 0.54280 0.82020 -0.13800
H 	H 	0.36580 0.56080 0.84040 0.08300
C 	C 	0.76440 0.87810 0.52590 0.06400
C 	C 	0.67460 0.95900 0.52570 0.08100
H 	H 	0.63250 0.98230 0.50520 -0.01000
C 	C 	0.31340 0.39160 0.08230 -0.12200
H 	H 	0.35500 0.41460 0.10480 0.07400
C 	C 	0.02680 0.64760 0.61660 0.06500
H 	H 	0.04460 0.64080 0.65650 -0.01500
C 	C 	0.79560 0.88880 0.58550 -0.12900
H 	H 	0.83740 0.86560 0.60750 0.08300
C 	C 	0.49840 0.57460 0.09340 -0.14100
H 	H 	0.48030 0.54610 0.11460 0.08200
C 	C 	0.19480 0.49380 0.75830 0.08000
H 	H 	0.15080 0.47620 0.73710 -0.02600
C 	C 	0.19350 0.32100 0.02190 0.06100
H 	H 	0.15190 0.29680 0.00090 -0.00600
C 	C 	0.28910 0.55180 0.76080 0.07500
H 	H 	0.31220 0.57560 0.74170 -0.01100
C 	C 	0.22290 0.48240 0.81740 -0.15000
H 	H 	0.19840 0.45890 0.83530 0.07700
C 	C 	0.55650 0.61810 0.12110 0.08300
H 	H 	0.57600 0.61990 0.16130 -0.00500
C 	C 	0.78500 0.71320 0.32330 -0.13100
H 	H 	0.82360 0.68390 0.34520 0.07000
C 	C 	0.69890 0.80350 0.31570 -0.14100
H 	H 	0.67710 0.83570 0.33210 0.08400
C 	C 	0.67330 0.79430 0.25690 0.08400
H 	H 	0.63410 0.82210 0.23440 -0.01800
C 	C 	0.75470 0.70650 0.26390 0.06200
H 	H 	0.77290 0.67090 0.24640 -0.01300
N 	N 	0.70420 0.96920 0.58270 -0.19000
N 	N 	0.06060 0.61660 0.58910 -0.21000
N 	N 	0.69980 0.74910 0.22980 -0.19500
N 	N 	0.85200 0.78900 0.52830 -0.13800
N 	N 	0.84730 0.73310 0.44180 -0.14200
N 	N 	0.76230 0.82290 0.43790 -0.13800
N 	N 	0.22060 0.31430 0.07840 -0.20200
N 	N 	0.58660 0.65800 0.09320 -0.18800
N 	N 	0.22540 0.52750 0.72960 -0.19800
N 	N 	0.37480 0.48840 0.02770 -0.14300
N 	N 	0.37760 0.53740 0.94220 -0.13600
N 	N 	0.28960 0.45080 0.93630 -0.14900
Ag	Ag	0.15572 0.54164 0.63233 0.51000
Ag	Ag	0.17834 0.24595 0.13281 0.51300
C 	C 	0.90260 0.02950 -0.00000 0.10000
C 	C 	0.37650 0.24370 0.49900 0.10000
C 	C 	0.46710 0.18910 0.58990 -0.13900
H 	H 	0.44590 0.21030 0.61140 0.08100
C 	C 	0.77990 0.84970 0.10830 0.05300
H 	H 	0.79940 0.84600 0.14850 -0.02000
C 	C 	0.43980 0.19860 0.53130 0.06100
C 	C 	0.99730 0.11560 0.00470 -0.13600
H 	H 	0.97780 0.11630 0.96450 0.08700
C 	C 	0.96730 0.07390 0.03410 0.06900
C 	C 	0.20220 0.41610 0.49500 -0.12800
H 	H 	0.18010 0.41250 0.45490 0.08300
C 	C 	0.05650 0.15620 0.03580 0.08400
H 	H 	0.07640 0.18370 0.01550 -0.01200
C 	C 	0.81870 0.94850 0.99420 0.09900
C 	C 	0.29030 0.27470 0.41340 0.10100
C 	C 	0.72330 0.86240 0.99120 -0.12300
H 	H 	0.70250 0.86520 0.95110 0.07100
C 	C 	0.26390 0.43420 0.61120 0.07800
H 	H 	0.28550 0.44090 0.65110 -0.00700
C 	C 	0.78870 0.00710 0.84890 0.06000
C 	C 	0.25740 0.26410 0.34980 0.06100
C 	C 	0.47440 0.16530 0.50180 -0.14200
H 	H 	0.45770 0.17050 0.46190 0.07500
C 	C 	0.53280 0.12550 0.53210 0.06800
H 	H 	0.55470 0.10300 0.51160 -0.01700
C 	C 	0.82080 0.99830 0.91320 0.09600
C 	C 	0.78560 0.89940 0.02330 0.04600
C 	C 	0.29460 0.32750 0.49550 0.10400
C 	C 	0.82180 0.04280 0.82020 -0.13800
H 	H 	0.86580 0.06080 0.84040 0.08300
C 	C 	0.26440 0.37810 0.52590 0.06400
C 	C 	0.17460 0.45900 0.52570 0.08100
H 	H 	0.13250 0.48230 0.50520 -0.01000
C 	C 	0.81340 0.89160 0.08230 -0.12500
H 	H 	0.85500 0.91460 0.10480 0.07600
C 	C 	0.52680 0.14760 0.61660 0.06400
H 	H 	0.54460 0.14080 0.65650 -0.01500
C 	C 	0.29560 0.38880 0.58550 -0.12900
H 	H 	0.33740 0.36560 0.60750 0.08300
C 	C 	0.99840 0.07460 0.09340 -0.13700
H 	H 	0.98030 0.04610 0.11460 0.08100
C 	C 	0.69480 0.99380 0.75830 0.08000
H 	H 	0.65080 0.97620 0.73710 -0.02600
C 	C 	0.69350 0.82100 0.02190 0.06500
H 	H 	0.65190 0.79680 0.00090 -0.00700
C 	C 	0.78910 0.05180 0.76080 0.07500
H 	H 	0.81220 0.07560 0.74170 -0.01100
C 	C 	0.72290 0.98240 0.81740 -0.15000
H 	H 	0.69840 0.95890 0.83530 0.07700
C 	C 	0.05650 0.11810 0.12110 0.08000
H 	H 	0.07600 0.11990 0.16130 -0.00400
C 	C 	0.28500 0.21320 0.32330 -0.13100
H 	H 	0.32360 0.18390 0.34520 0.07000
C 	C 	0.19890 0.30350 0.31570 -0.14100
H 	H 	0.17710 0.33570 0.33210 0.08400
C 	C 	0.17330 0.29430 0.25690 0.08400
H 	H 	0.13410 0.32210 0.23440 -0.01800
C 	C 	0.25470 0.20650 0.26390 0.06100
H 	H 	0.27290 0.17090 0.24640 -0.01300
N 	N 	0.20420 0.46920 0.58270 -0.19000
N 	N 	0.56060 0.11660 0.58910 -0.21000
N 	N 	0.19980 0.24910 0.22980 -0.19500
N 	N 	0.35200 0.28900 0.52830 -0.13800
N 	N 	0.34730 0.23310 0.44180 -0.14200
N 	N 	0.26230 0.32290 0.43790 -0.13800
N 	N 	0.72060 0.81430 0.07840 -0.20300
N 	N 	0.08660 0.15800 0.09320 -0.18600
N 	N 	0.72540 0.02750 0.72960 -0.19800
N 	N 	0.87480 0.98840 0.02770 -0.14300
N 	N 	0.87760 0.03740 0.94220 -0.13700
N 	N 	0.78960 0.95080 0.93630 -0.14900
Ag	Ag	0.34428 0.04164 0.86767 0.51000
Ag	Ag	0.32166 0.74595 0.36719 0.51300
C 	C 	0.59740 0.52950 0.50000 0.10100
C 	C 	0.12350 0.74370 0.00100 0.09500
C 	C 	0.03290 0.68910 0.91010 -0.13700
H 	H 	0.05410 0.71030 0.88860 0.08100
C 	C 	0.72010 0.34970 0.39170 0.05600
H 	H 	0.70060 0.34600 0.35150 -0.02100
C 	C 	0.06020 0.69860 0.96870 0.06000
C 	C 	0.50270 0.61560 0.49530 -0.13500
H 	H 	0.52220 0.61630 0.53550 0.08700
C 	C 	0.53270 0.57390 0.46590 0.06900
C 	C 	0.29780 0.91610 0.00500 -0.14300
H 	H 	0.31990 0.91250 0.04510 0.08800
C 	C 	0.44350 0.65620 0.46420 0.08500
H 	H 	0.42360 0.68370 0.48450 -0.01100
C 	C 	0.68130 0.44850 0.50580 0.09500
C 	C 	0.20970 0.77470 0.08660 0.10100
C 	C 	0.77670 0.36240 0.50880 -0.13100
H 	H 	0.79750 0.36520 0.54890 0.07400
C 	C 	0.23610 0.93420 0.88880 0.08300
H 	H 	0.21450 0.94090 0.84890 -0.00900
C 	C 	0.71130 0.50710 0.65110 0.06000
C 	C 	0.24260 0.76410 0.15020 0.06100
C 	C 	0.02560 0.66530 0.99820 -0.13200
H 	H 	0.04230 0.67050 0.03810 0.07000
C 	C 	0.96720 0.62550 0.96790 0.06100
H 	H 	0.94530 0.60300 0.98840 -0.01400
C 	C 	0.67920 0.49830 0.58680 0.09600
C 	C 	0.71440 0.39940 0.47670 0.05300
C 	C 	0.20540 0.82750 0.00450 0.09600
C 	C 	0.67820 0.54280 0.67980 -0.13800
H 	H 	0.63420 0.56080 0.65960 0.08300
C 	C 	0.23560 0.87810 0.97410 0.07700
C 	C 	0.32540 0.95900 0.97430 0.09100
H 	H 	0.36750 0.98230 0.99480 -0.01200
C 	C 	0.68660 0.39160 0.41770 -0.12900
H 	H 	0.64500 0.41460 0.39520 0.07700
C 	C 	0.97320 0.64760 0.88340 0.06200
H 	H 	0.95540 0.64080 0.84350 -0.01400
C 	C 	0.20440 0.88880 0.91450 -0.13600
H 	H 	0.16260 0.86560 0.89250 0.08600
C 	C 	0.50160 0.57460 0.40660 -0.13900
H 	H 	0.51970 0.54610 0.38540 0.08100
C 	C 	0.80520 0.49380 0.74170 0.08000
H 	H 	0.84920 0.47620 0.76290 -0.02600
C 	C 	0.80650 0.32100 0.47810 0.07000
H 	H 	0.84810 0.29680 0.49910 -0.00800
C 	C 	0.71090 0.55180 0.73920 0.07500
H 	H 	0.68780 0.57560 0.75830 -0.01100
C 	C 	0.77710 0.48240 0.68260 -0.15000
H 	H 	0.80160 0.45890 0.66470 0.07700
C 	C 	0.44350 0.61810 0.37890 0.08100
H 	H 	0.42400 0.61990 0.33870 -0.00500
C 	C 	0.21500 0.71320 0.17670 -0.13100
H 	H 	0.17640 0.68390 0.15480 0.07000
C 	C 	0.30110 0.80350 0.18430 -0.14100
H 	H 	0.32290 0.83570 0.16790 0.08400
C 	C 	0.32670 0.79430 0.24310 0.08400
H 	H 	0.36590 0.82210 0.26560 -0.01800
C 	C 	0.24530 0.70650 0.23610 0.06100
H 	H 	0.22710 0.67090 0.25360 -0.01300
N 	N 	0.29580 0.96920 0.91730 -0.19300
N 	N 	0.93940 0.61660 0.91090 -0.20800
N 	N 	0.30020 0.74910 0.27020 -0.19500
N 	N 	0.14800 0.78900 0.97170 -0.13400
N 	N 	0.15270 0.73310 0.05820 -0.14100
N 	N 	0.23770 0.82290 0.06210 -0.13700
N 	N 	0.77940 0.31430 0.42160 -0.20400
N 	N 	0.41340 0.65800 0.40680 -0.18700
N 	N 	0.77460 0.52750 0.77040 -0.19800
N 	N 	0.62520 0.48840 0.47230 -0.14200
N 	N 	0.62240 0.53740 0.55780 -0.13800
N 	N 	0.71040 0.45080 0.56370 -0.14900
Ag	Ag	0.84428 0.54164 0.86767 0.51000
Ag	Ag	0.82166 0.24595 0.36719 0.51300
C 	C 	0.09740 0.02950 0.50000 0.10100
C 	C 	0.62350 0.24370 0.00100 0.09600
C 	C 	0.53290 0.18910 0.91010 -0.14000
H 	H 	0.55410 0.21030 0.88860 0.08200
C 	C 	0.22010 0.84970 0.39170 0.05600
H 	H 	0.20060 0.84600 0.35150 -0.02100
C 	C 	0.56020 0.19860 0.96870 0.06100
C 	C 	0.00270 0.11560 0.49530 -0.13600
H 	H 	0.02220 0.11630 0.53550 0.08700
C 	C 	0.03270 0.07390 0.46590 0.06900
C 	C 	0.79780 0.41610 0.00500 -0.13600
H 	H 	0.81990 0.41250 0.04510 0.08600
C 	C 	0.94350 0.15620 0.46420 0.08500
H 	H 	0.92360 0.18370 0.48450 -0.01200
C 	C 	0.18130 0.94850 0.50580 0.09500
C 	C 	0.70970 0.27470 0.08660 0.10100
C 	C 	0.27670 0.86240 0.50880 -0.13100
H 	H 	0.29750 0.86520 0.54890 0.07400
C 	C 	0.73610 0.43420 0.88880 0.08100
H 	H 	0.71450 0.44090 0.84890 -0.00800
C 	C 	0.21130 0.00710 0.65110 0.06000
C 	C 	0.74260 0.26410 0.15020 0.06100
C 	C 	0.52560 0.16530 0.99820 -0.13800
H 	H 	0.54230 0.17050 0.03810 0.07300
C 	C 	0.46720 0.12550 0.96790 0.06600
H 	H 	0.44530 0.10300 0.98840 -0.01600
C 	C 	0.17920 0.99830 0.58680 0.09600
C 	C 	0.21440 0.89940 0.47670 0.05300
C 	C 	0.70540 0.32750 0.00450 0.10000
C 	C 	0.17820 0.04280 0.67980 -0.13800
H 	H 	0.13420 0.06080 0.65960 0.08300
C 	C 	0.73560 0.37810 0.97410 0.07100
C 	C 	0.82540 0.45900 0.97430 0.08700
H 	H 	0.86750 0.48230 0.99480 -0.01100
C 	C 	0.18660 0.89160 0.41770 -0.12900
H 	H 	0.14500 0.91460 0.39520 0.07700
C 	C 	0.47320 0.14760 0.88340 0.06400
H 	H 	0.45540 0.14080 0.84350 -0.01500
C 	C 	0.70440 0.38880 0.91450 -0.13300
H 	H 	0.66260 0.36560 0.89250 0.08500
C 	C 	0.00160 0.07460 0.40660 -0.14000
H 	H 	0.01970 0.04610 0.38540 0.08100
C 	C 	0.30520 0.99380 0.74170 0.08000
H 	H 	0.34920 0.97620 0.76290 -0.02600
C 	C 	0.30650 0.82100 0.47810 0.07000
H 	H 	0.34810 0.79680 0.49910 -0.00800
C 	C 	0.21090 0.05180 0.73920 0.07500
H 	H 	0.18780 0.07560 0.75830 -0.01100
C 	C 	0.27710 0.98240 0.68260 -0.15000
H 	H 	0.30160 0.95890 0.66470 0.07700
C 	C 	0.94350 0.11810 0.37890 0.08200
H 	H 	0.92400 0.11990 0.33870 -0.00500
C 	C 	0.71500 0.21320 0.17670 -0.13100
H 	H 	0.67640 0.18390 0.15480 0.07000
C 	C 	0.80110 0.30350 0.18430 -0.14100
H 	H 	0.82290 0.33570 0.16790 0.08400
C 	C 	0.82670 0.29430 0.24310 0.08400
H 	H 	0.86590 0.32210 0.26560 -0.01800
C 	C 	0.74530 0.20650 0.23610 0.06200
H 	H 	0.72710 0.17090 0.25360 -0.01300
N 	N 	0.79580 0.46920 0.91730 -0.19200
N 	N 	0.43940 0.11660 0.91090 -0.21000
N 	N 	0.80020 0.24910 0.27020 -0.19500
N 	N 	0.64800 0.28900 0.97170 -0.13600
N 	N 	0.65270 0.23310 0.05820 -0.14100
N 	N 	0.73770 0.32290 0.06210 -0.13800
N 	N 	0.27940 0.81430 0.42160 -0.20400
N 	N 	0.91340 0.15800 0.40680 -0.18700
N 	N 	0.27460 0.02750 0.77040 -0.19800
N 	N 	0.12520 0.98840 0.47230 -0.14200
N 	N 	0.12240 0.03740 0.55780 -0.13800
N 	N 	0.21040 0.95080 0.56370 -0.14900
