data_crystal

_cell_length_a 21.97170
_cell_length_b 16.66920
_cell_length_c 25.62890
_cell_angle_alpha 90.00000
_cell_angle_beta  115.34400
_cell_angle_gamma 90.00000

_symmetry_space_group_name_	'P 1'
_symmetry_space_group_name_H-M	'P 1'

loop_
_symmetry_equiv_pos_as_xyz
  x,y,z

loop_
_atom_site_label
_atom_site_type_symbol
_atom_site_fract_x
_atom_site_fract_y
_atom_site_fract_z
_atom_site_charge
Ag	Ag	0.27371 0.20896 0.86808 0.50900
Ag	Ag	0.29539 0.00244 0.36756 0.51200
C 	C 	0.92210 0.39970 0.39200 0.04700
H 	H 	0.90170 0.40340 0.35190 -0.01900
C 	C 	0.15350 0.22000 0.50080 0.10000
C 	C 	0.12760 0.06140 0.91090 -0.14100
H 	H 	0.08490 0.04010 0.88960 0.08100
C 	C 	0.12800 0.00720 0.00190 0.09500
C 	C 	0.98170 0.38700 0.50900 -0.12600
H 	H 	0.00090 0.38360 0.54910 0.07100
C 	C 	0.90300 0.81540 0.88890 0.07300
H 	H 	0.88530 0.80830 0.84910 -0.00500
C 	C 	0.07480 0.30150 0.50630 0.09600
C 	C 	0.24340 0.13340 0.49650 -0.13100
H 	H 	0.26370 0.13230 0.53670 0.08500
C 	C 	0.27110 0.09320 0.46480 0.08100
H 	H 	0.31130 0.06580 0.48480 -0.01000
C 	C 	0.22280 0.08500 0.99900 -0.14400
H 	H 	0.24600 0.07990 0.03880 0.07600
C 	C 	0.15960 0.05170 0.96950 0.06400
C 	C 	0.12740 0.97590 0.08750 0.10100
C 	C 	0.15830 0.98560 0.15120 0.05700
C 	C 	0.96060 0.86130 0.91530 -0.12300
H 	H 	0.98040 0.88440 0.89340 0.08100
C 	C 	0.18390 0.17570 0.46630 0.06600
C 	C 	0.19000 0.24240 0.65140 0.05500
C 	C 	0.25070 0.12590 0.96780 0.07000
H 	H 	0.29280 0.14900 0.98810 -0.01800
C 	C 	0.98210 0.35800 0.41830 -0.12200
H 	H 	0.00170 0.33550 0.39600 0.07500
C 	C 	0.95720 0.83380 0.00510 -0.12200
H 	H 	0.97500 0.83710 0.04520 0.08100
C 	C 	0.25200 0.20730 0.68050 -0.13100
H 	H 	0.27590 0.18960 0.66020 0.08000
C 	C 	0.04950 0.92280 0.00510 0.10500
C 	C 	0.27910 0.19820 0.73990 0.07000
H 	H 	0.32110 0.17430 0.75890 -0.01000
C 	C 	0.16060 0.10390 0.88430 0.06300
H 	H 	0.13820 0.11140 0.84460 -0.01500
C 	C 	0.01260 0.34990 0.47700 0.04800
C 	C 	0.15580 0.26820 0.68320 -0.14400
H 	H 	0.11360 0.29210 0.66540 0.07500
C 	C 	0.15830 0.25160 0.58740 0.09600
C 	C 	0.89900 0.79070 0.97430 0.07800
H 	H 	0.87770 0.76690 0.99490 -0.00900
C 	C 	0.18710 0.25660 0.74240 0.07600
H 	H 	0.16430 0.27410 0.76370 -0.02400
C 	C 	0.15520 0.17520 0.40700 -0.13500
H 	H 	0.11600 0.20400 0.38600 0.08000
C 	C 	0.92220 0.42860 0.47930 0.06400
H 	H 	0.90220 0.45340 0.50050 -0.00600
C 	C 	0.24120 0.04390 0.23680 0.05800
H 	H 	0.27670 0.07960 0.25420 -0.01100
C 	C 	0.21180 0.03770 0.17740 -0.12700
H 	H 	0.22770 0.06800 0.15540 0.06800
C 	C 	0.13330 0.94490 0.18460 -0.13300
H 	H 	0.09510 0.91280 0.16800 0.08200
C 	C 	0.98880 0.87270 0.97470 0.06000
C 	C 	0.16740 0.95380 0.24420 0.07600
H 	H 	0.15160 0.92490 0.26700 -0.01600
C 	C 	0.18590 0.13120 0.37950 0.07800
H 	H 	0.16520 0.12920 0.33940 -0.00400
N 	N 	0.22200 0.13460 0.91160 -0.21100
N 	N 	0.87140 0.78080 0.91750 -0.18900
N 	N 	0.22060 0.00020 0.27090 -0.19300
N 	N 	0.07400 0.96070 0.97210 -0.13700
N 	N 	0.07470 0.92740 0.06260 -0.13800
N 	N 	0.15580 0.01750 0.05870 -0.14100
N 	N 	0.24380 0.09100 0.40720 -0.18500
N 	N 	0.89200 0.43520 0.42200 -0.20100
N 	N 	0.24640 0.22300 0.77110 -0.19600
N 	N 	0.09710 0.26080 0.47270 -0.14100
N 	N 	0.10360 0.29930 0.56400 -0.14800
N 	N 	0.18610 0.21260 0.55840 -0.13800
Ag	Ag	0.77371 0.70896 0.86808 0.51000
Ag	Ag	0.79539 0.50244 0.36756 0.51300
C 	C 	0.42210 0.89970 0.39200 0.04800
H 	H 	0.40170 0.90340 0.35190 -0.01800
C 	C 	0.65350 0.72000 0.50080 0.10100
C 	C 	0.62760 0.56140 0.91090 -0.14000
H 	H 	0.58490 0.54010 0.88960 0.08200
C 	C 	0.62800 0.50720 0.00190 0.09800
C 	C 	0.48170 0.88700 0.50900 -0.12500
H 	H 	0.50090 0.88360 0.54910 0.07200
C 	C 	0.40300 0.31540 0.88890 0.07400
H 	H 	0.38530 0.30830 0.84910 -0.00500
C 	C 	0.57480 0.80150 0.50630 0.09600
C 	C 	0.74340 0.63340 0.49650 -0.13100
H 	H 	0.76370 0.63230 0.53670 0.08500
C 	C 	0.77110 0.59320 0.46480 0.08100
H 	H 	0.81130 0.56580 0.48480 -0.01000
C 	C 	0.72280 0.58500 0.99900 -0.14600
H 	H 	0.74600 0.57990 0.03880 0.07700
C 	C 	0.65960 0.55170 0.96950 0.06300
C 	C 	0.62740 0.47590 0.08750 0.10100
C 	C 	0.65830 0.48560 0.15120 0.05600
C 	C 	0.46060 0.36130 0.91530 -0.12500
H 	H 	0.48040 0.38440 0.89340 0.08200
C 	C 	0.68390 0.67570 0.46630 0.06600
C 	C 	0.69000 0.74240 0.65140 0.05500
C 	C 	0.75070 0.62590 0.96780 0.07000
H 	H 	0.79280 0.64900 0.98810 -0.01800
C 	C 	0.48210 0.85800 0.41830 -0.12200
H 	H 	0.50170 0.83550 0.39600 0.07500
C 	C 	0.45720 0.33380 0.00510 -0.12600
H 	H 	0.47500 0.33710 0.04520 0.08200
C 	C 	0.75200 0.70730 0.68050 -0.13100
H 	H 	0.77590 0.68960 0.66020 0.08000
C 	C 	0.54950 0.42280 0.00510 0.10500
C 	C 	0.77910 0.69820 0.73990 0.07000
H 	H 	0.82110 0.67430 0.75890 -0.01000
C 	C 	0.66060 0.60390 0.88430 0.06300
H 	H 	0.63820 0.61140 0.84460 -0.01500
C 	C 	0.51260 0.84990 0.47700 0.04800
C 	C 	0.65580 0.76820 0.68320 -0.14400
H 	H 	0.61360 0.79210 0.66540 0.07500
C 	C 	0.65830 0.75160 0.58740 0.09600
C 	C 	0.39900 0.29070 0.97430 0.08100
H 	H 	0.37770 0.26690 0.99490 -0.00900
C 	C 	0.68710 0.75660 0.74240 0.07600
H 	H 	0.66430 0.77410 0.76370 -0.02400
C 	C 	0.65520 0.67520 0.40700 -0.13500
H 	H 	0.61600 0.70400 0.38600 0.08000
C 	C 	0.42220 0.92860 0.47930 0.06400
H 	H 	0.40220 0.95340 0.50050 -0.00600
C 	C 	0.74120 0.54390 0.23680 0.05800
H 	H 	0.77670 0.57960 0.25420 -0.01100
C 	C 	0.71180 0.53770 0.17740 -0.12700
H 	H 	0.72770 0.56800 0.15540 0.06800
C 	C 	0.63330 0.44490 0.18460 -0.13300
H 	H 	0.59510 0.41280 0.16800 0.08200
C 	C 	0.48880 0.37270 0.97470 0.06200
C 	C 	0.66740 0.45380 0.24420 0.07600
H 	H 	0.65160 0.42490 0.26700 -0.01600
C 	C 	0.68590 0.63120 0.37950 0.07800
H 	H 	0.66520 0.62920 0.33940 -0.00400
N 	N 	0.72200 0.63460 0.91160 -0.21100
N 	N 	0.37140 0.28080 0.91750 -0.19000
N 	N 	0.72060 0.50020 0.27090 -0.19300
N 	N 	0.57400 0.46070 0.97210 -0.13700
N 	N 	0.57470 0.42740 0.06260 -0.13800
N 	N 	0.65580 0.51750 0.05870 -0.14100
N 	N 	0.74380 0.59100 0.40720 -0.18500
N 	N 	0.39200 0.93520 0.42200 -0.20100
N 	N 	0.74640 0.72300 0.77110 -0.19600
N 	N 	0.59710 0.76080 0.47270 -0.14100
N 	N 	0.60360 0.79930 0.56400 -0.14800
N 	N 	0.68610 0.71260 0.55840 -0.13800
Ag	Ag	0.72629 0.20896 0.63192 0.51000
Ag	Ag	0.70461 0.00244 0.13244 0.51300
C 	C 	0.07790 0.39970 0.10800 0.04900
H 	H 	0.09830 0.40340 0.14810 -0.01800
C 	C 	0.84650 0.22000 0.99920 0.10000
C 	C 	0.87240 0.06140 0.58910 -0.13900
H 	H 	0.91510 0.04010 0.61040 0.08200
C 	C 	0.87200 0.00720 0.49810 0.09800
C 	C 	0.01830 0.38700 0.99100 -0.12200
H 	H 	0.99910 0.38360 0.95090 0.07000
C 	C 	0.09700 0.81540 0.61110 0.07400
H 	H 	0.11470 0.80830 0.65090 -0.00500
C 	C 	0.92520 0.30150 0.99370 0.09500
C 	C 	0.75660 0.13340 0.00350 -0.13100
H 	H 	0.73630 0.13230 0.96330 0.08500
C 	C 	0.72890 0.09320 0.03520 0.08100
H 	H 	0.68870 0.06580 0.01520 -0.01000
C 	C 	0.77720 0.08500 0.50100 -0.14400
H 	H 	0.75400 0.07990 0.46120 0.07600
C 	C 	0.84040 0.05170 0.53050 0.06300
C 	C 	0.87260 0.97590 0.41250 0.10100
C 	C 	0.84170 0.98560 0.34880 0.05700
C 	C 	0.03940 0.86130 0.58470 -0.12500
H 	H 	0.01960 0.88440 0.60660 0.08200
C 	C 	0.81610 0.17570 0.03370 0.06700
C 	C 	0.81000 0.24240 0.84860 0.05500
C 	C 	0.74930 0.12590 0.53220 0.07000
H 	H 	0.70720 0.14900 0.51190 -0.01800
C 	C 	0.01790 0.35800 0.08170 -0.12500
H 	H 	0.99830 0.33550 0.10400 0.07600
C 	C 	0.04280 0.83380 0.49490 -0.12500
H 	H 	0.02500 0.83710 0.45480 0.08200
C 	C 	0.74800 0.20730 0.81950 -0.13100
H 	H 	0.72410 0.18960 0.83980 0.08000
C 	C 	0.95050 0.92280 0.49490 0.10500
C 	C 	0.72090 0.19820 0.76010 0.07000
H 	H 	0.67890 0.17430 0.74110 -0.01000
C 	C 	0.83940 0.10390 0.61570 0.06300
H 	H 	0.86180 0.11140 0.65540 -0.01500
C 	C 	0.98740 0.34990 0.02300 0.04900
C 	C 	0.84420 0.26820 0.81680 -0.14400
H 	H 	0.88640 0.29210 0.83460 0.07500
C 	C 	0.84170 0.25160 0.91260 0.09600
C 	C 	0.10100 0.79070 0.52570 0.08100
H 	H 	0.12230 0.76690 0.50510 -0.00900
C 	C 	0.81290 0.25660 0.75760 0.07600
H 	H 	0.83570 0.27410 0.73630 -0.02400
C 	C 	0.84480 0.17520 0.09300 -0.13600
H 	H 	0.88400 0.20400 0.11400 0.08000
C 	C 	0.07780 0.42860 0.02070 0.06100
H 	H 	0.09780 0.45340 0.99950 -0.00400
C 	C 	0.75880 0.04390 0.26320 0.05800
H 	H 	0.72330 0.07960 0.24580 -0.01100
C 	C 	0.78820 0.03770 0.32260 -0.12700
H 	H 	0.77230 0.06800 0.34460 0.06800
C 	C 	0.86670 0.94490 0.31540 -0.13300
H 	H 	0.90490 0.91280 0.33200 0.08200
C 	C 	0.01120 0.87270 0.52530 0.06200
C 	C 	0.83260 0.95380 0.25580 0.07600
H 	H 	0.84840 0.92490 0.23300 -0.01600
C 	C 	0.81410 0.13120 0.12050 0.07900
H 	H 	0.83480 0.12920 0.16060 -0.00400
N 	N 	0.77800 0.13460 0.58840 -0.21100
N 	N 	0.12860 0.78080 0.58250 -0.19000
N 	N 	0.77940 0.00020 0.22910 -0.19300
N 	N 	0.92600 0.96070 0.52790 -0.13700
N 	N 	0.92530 0.92740 0.43740 -0.13800
N 	N 	0.84420 0.01750 0.44130 -0.14100
N 	N 	0.75620 0.09100 0.09280 -0.18500
N 	N 	0.10800 0.43520 0.07800 -0.20000
N 	N 	0.75360 0.22300 0.72890 -0.19600
N 	N 	0.90290 0.26080 0.02730 -0.14000
N 	N 	0.89640 0.29930 0.93600 -0.14800
N 	N 	0.81390 0.21260 0.94160 -0.13800
Ag	Ag	0.22629 0.70896 0.63192 0.51000
Ag	Ag	0.20461 0.50244 0.13244 0.51300
C 	C 	0.57790 0.89970 0.10800 0.04800
H 	H 	0.59830 0.90340 0.14810 -0.01800
C 	C 	0.34650 0.72000 0.99920 0.10100
C 	C 	0.37240 0.56140 0.58910 -0.13900
H 	H 	0.41510 0.54010 0.61040 0.08200
C 	C 	0.37200 0.50720 0.49810 0.09800
C 	C 	0.51830 0.88700 0.99100 -0.12600
H 	H 	0.49910 0.88360 0.95090 0.07200
C 	C 	0.59700 0.31540 0.61110 0.07400
H 	H 	0.61470 0.30830 0.65090 -0.00500
C 	C 	0.42520 0.80150 0.99370 0.09600
C 	C 	0.25660 0.63340 0.00350 -0.13200
H 	H 	0.23630 0.63230 0.96330 0.08600
C 	C 	0.22890 0.59320 0.03520 0.08100
H 	H 	0.18870 0.56580 0.01520 -0.01000
C 	C 	0.27720 0.58500 0.50100 -0.14400
H 	H 	0.25400 0.57990 0.46120 0.07600
C 	C 	0.34040 0.55170 0.53050 0.06300
C 	C 	0.37260 0.47590 0.41250 0.10100
C 	C 	0.34170 0.48560 0.34880 0.05600
C 	C 	0.53940 0.36130 0.58470 -0.12500
H 	H 	0.51960 0.38440 0.60660 0.08200
C 	C 	0.31610 0.67570 0.03370 0.06600
C 	C 	0.31000 0.74240 0.84860 0.05500
C 	C 	0.24930 0.62590 0.53220 0.07000
H 	H 	0.20720 0.64900 0.51190 -0.01800
C 	C 	0.51790 0.85800 0.08170 -0.12300
H 	H 	0.49830 0.83550 0.10400 0.07500
C 	C 	0.54280 0.33380 0.49490 -0.12500
H 	H 	0.52500 0.33710 0.45480 0.08200
C 	C 	0.24800 0.70730 0.81950 -0.13100
H 	H 	0.22410 0.68960 0.83980 0.08000
C 	C 	0.45050 0.42280 0.49490 0.10500
C 	C 	0.22090 0.69820 0.76010 0.07000
H 	H 	0.17890 0.67430 0.74110 -0.01000
C 	C 	0.33940 0.60390 0.61570 0.06300
H 	H 	0.36180 0.61140 0.65540 -0.01400
C 	C 	0.48740 0.84990 0.02300 0.04900
C 	C 	0.34420 0.76820 0.81680 -0.14400
H 	H 	0.38640 0.79210 0.83460 0.07500
C 	C 	0.34170 0.75160 0.91260 0.09600
C 	C 	0.60100 0.29070 0.52570 0.08100
H 	H 	0.62230 0.26690 0.50510 -0.00900
C 	C 	0.31290 0.75660 0.75760 0.07600
H 	H 	0.33570 0.77410 0.73630 -0.02400
C 	C 	0.34480 0.67520 0.09300 -0.13600
H 	H 	0.38400 0.70400 0.11400 0.08000
C 	C 	0.57780 0.92860 0.02070 0.06500
H 	H 	0.59780 0.95340 0.99950 -0.00600
C 	C 	0.25880 0.54390 0.26320 0.05800
H 	H 	0.22330 0.57960 0.24580 -0.01100
C 	C 	0.28820 0.53770 0.32260 -0.12700
H 	H 	0.27230 0.56800 0.34460 0.06800
C 	C 	0.36670 0.44490 0.31540 -0.13300
H 	H 	0.40490 0.41280 0.33200 0.08200
C 	C 	0.51120 0.37270 0.52530 0.06200
C 	C 	0.33260 0.45380 0.25580 0.07600
H 	H 	0.34840 0.42490 0.23300 -0.01600
C 	C 	0.31410 0.63120 0.12050 0.07900
H 	H 	0.33480 0.62920 0.16060 -0.00400
N 	N 	0.27800 0.63460 0.58840 -0.21100
N 	N 	0.62860 0.28080 0.58250 -0.19000
N 	N 	0.27940 0.50020 0.22910 -0.19300
N 	N 	0.42600 0.46070 0.52790 -0.13700
N 	N 	0.42530 0.42740 0.43740 -0.13800
N 	N 	0.34420 0.51750 0.44130 -0.14100
N 	N 	0.25620 0.59100 0.09280 -0.18500
N 	N 	0.60800 0.93520 0.07800 -0.20100
N 	N 	0.25360 0.72300 0.72890 -0.19600
N 	N 	0.40290 0.76080 0.02730 -0.14100
N 	N 	0.39640 0.79930 0.93600 -0.14800
N 	N 	0.31390 0.71260 0.94160 -0.13800
Ag	Ag	0.72629 0.79104 0.13192 0.51000
Ag	Ag	0.70461 0.99756 0.63244 0.51300
C 	C 	0.07790 0.60030 0.60800 0.04800
H 	H 	0.09830 0.59660 0.64810 -0.01800
C 	C 	0.84650 0.78000 0.49920 0.10100
C 	C 	0.87240 0.93860 0.08910 -0.14000
H 	H 	0.91510 0.95990 0.11040 0.08200
C 	C 	0.87200 0.99280 0.99810 0.09600
C 	C 	0.01830 0.61300 0.49100 -0.12500
H 	H 	0.99910 0.61640 0.45090 0.07200
C 	C 	0.09700 0.18460 0.11110 0.07300
H 	H 	0.11470 0.19170 0.15090 -0.00500
C 	C 	0.92520 0.69850 0.49370 0.09600
C 	C 	0.75660 0.86660 0.50350 -0.13100
H 	H 	0.73630 0.86770 0.46330 0.08500
C 	C 	0.72890 0.90680 0.53520 0.08100
H 	H 	0.68870 0.93420 0.51520 -0.01000
C 	C 	0.77720 0.91500 0.00100 -0.14400
H 	H 	0.75400 0.92010 0.96120 0.07600
C 	C 	0.84040 0.94830 0.03050 0.06400
C 	C 	0.87260 0.02410 0.91250 0.10100
C 	C 	0.84170 0.01440 0.84880 0.05700
C 	C 	0.03940 0.13870 0.08470 -0.12300
H 	H 	0.01960 0.11560 0.10660 0.08100
C 	C 	0.81610 0.82430 0.53370 0.06600
C 	C 	0.81000 0.75760 0.34860 0.05500
C 	C 	0.74930 0.87410 0.03220 0.07000
H 	H 	0.70720 0.85100 0.01190 -0.01800
C 	C 	0.01790 0.64200 0.58170 -0.12200
H 	H 	0.99830 0.66450 0.60400 0.07500
C 	C 	0.04280 0.16620 0.99490 -0.12200
H 	H 	0.02500 0.16290 0.95480 0.08100
C 	C 	0.74800 0.79270 0.31950 -0.13100
H 	H 	0.72410 0.81040 0.33980 0.08000
C 	C 	0.95050 0.07720 0.99490 0.10500
C 	C 	0.72090 0.80180 0.26010 0.07000
H 	H 	0.67890 0.82570 0.24110 -0.01000
C 	C 	0.83940 0.89610 0.11570 0.06300
H 	H 	0.86180 0.88860 0.15540 -0.01500
C 	C 	0.98740 0.65010 0.52300 0.04800
C 	C 	0.84420 0.73180 0.31680 -0.14400
H 	H 	0.88640 0.70790 0.33460 0.07500
C 	C 	0.84170 0.74840 0.41260 0.09600
C 	C 	0.10100 0.20930 0.02570 0.07800
H 	H 	0.12230 0.23310 0.00510 -0.00900
C 	C 	0.81290 0.74340 0.25760 0.07600
H 	H 	0.83570 0.72590 0.23630 -0.02400
C 	C 	0.84480 0.82480 0.59300 -0.13500
H 	H 	0.88400 0.79600 0.61400 0.08000
C 	C 	0.07780 0.57140 0.52070 0.06400
H 	H 	0.09780 0.54660 0.49950 -0.00600
C 	C 	0.75880 0.95610 0.76320 0.05800
H 	H 	0.72330 0.92040 0.74580 -0.01100
C 	C 	0.78820 0.96230 0.82260 -0.12700
H 	H 	0.77230 0.93200 0.84460 0.06800
C 	C 	0.86670 0.05510 0.81540 -0.13300
H 	H 	0.90490 0.08720 0.83200 0.08200
C 	C 	0.01120 0.12730 0.02530 0.06000
C 	C 	0.83260 0.04620 0.75580 0.07600
H 	H 	0.84840 0.07510 0.73300 -0.01600
C 	C 	0.81410 0.86880 0.62050 0.07800
H 	H 	0.83480 0.87080 0.66060 -0.00400
N 	N 	0.77800 0.86540 0.08840 -0.21100
N 	N 	0.12860 0.21920 0.08250 -0.18900
N 	N 	0.77940 0.99980 0.72910 -0.19300
N 	N 	0.92600 0.03930 0.02790 -0.13700
N 	N 	0.92530 0.07260 0.93740 -0.13800
N 	N 	0.84420 0.98250 0.94130 -0.14100
N 	N 	0.75620 0.90900 0.59280 -0.18500
N 	N 	0.10800 0.56480 0.57800 -0.20100
N 	N 	0.75360 0.77700 0.22890 -0.19600
N 	N 	0.90290 0.73920 0.52730 -0.14100
N 	N 	0.89640 0.70070 0.43600 -0.14800
N 	N 	0.81390 0.78740 0.44160 -0.13800
Ag	Ag	0.22629 0.29104 0.13192 0.51000
Ag	Ag	0.20461 0.49756 0.63244 0.51300
C 	C 	0.57790 0.10030 0.60800 0.04800
H 	H 	0.59830 0.09660 0.64810 -0.01800
C 	C 	0.34650 0.28000 0.49920 0.10100
C 	C 	0.37240 0.43860 0.08910 -0.14000
H 	H 	0.41510 0.45990 0.11040 0.08200
C 	C 	0.37200 0.49280 0.99810 0.09800
C 	C 	0.51830 0.11300 0.49100 -0.12500
H 	H 	0.49910 0.11640 0.45090 0.07200
C 	C 	0.59700 0.68460 0.11110 0.07400
H 	H 	0.61470 0.69170 0.15090 -0.00500
C 	C 	0.42520 0.19850 0.49370 0.09600
C 	C 	0.25660 0.36660 0.50350 -0.13100
H 	H 	0.23630 0.36770 0.46330 0.08500
C 	C 	0.22890 0.40680 0.53520 0.08100
H 	H 	0.18870 0.43420 0.51520 -0.01000
C 	C 	0.27720 0.41500 0.00100 -0.14600
H 	H 	0.25400 0.42010 0.96120 0.07700
C 	C 	0.34040 0.44830 0.03050 0.06300
C 	C 	0.37260 0.52410 0.91250 0.10100
C 	C 	0.34170 0.51440 0.84880 0.05600
C 	C 	0.53940 0.63870 0.08470 -0.12500
H 	H 	0.51960 0.61560 0.10660 0.08200
C 	C 	0.31610 0.32430 0.53370 0.06600
C 	C 	0.31000 0.25760 0.34860 0.05500
C 	C 	0.24930 0.37410 0.03220 0.07000
H 	H 	0.20720 0.35100 0.01190 -0.01800
C 	C 	0.51790 0.14200 0.58170 -0.12200
H 	H 	0.49830 0.16450 0.60400 0.07500
C 	C 	0.54280 0.66620 0.99490 -0.12600
H 	H 	0.52500 0.66290 0.95480 0.08200
C 	C 	0.24800 0.29270 0.31950 -0.13100
H 	H 	0.22410 0.31040 0.33980 0.08000
C 	C 	0.45050 0.57720 0.99490 0.10500
C 	C 	0.22090 0.30180 0.26010 0.07000
H 	H 	0.17890 0.32570 0.24110 -0.01000
C 	C 	0.33940 0.39610 0.11570 0.06300
H 	H 	0.36180 0.38860 0.15540 -0.01500
C 	C 	0.48740 0.15010 0.52300 0.04800
C 	C 	0.34420 0.23180 0.31680 -0.14400
H 	H 	0.38640 0.20790 0.33460 0.07500
C 	C 	0.34170 0.24840 0.41260 0.09600
C 	C 	0.60100 0.70930 0.02570 0.08100
H 	H 	0.62230 0.73310 0.00510 -0.00900
C 	C 	0.31290 0.24340 0.25760 0.07600
H 	H 	0.33570 0.22590 0.23630 -0.02400
C 	C 	0.34480 0.32480 0.59300 -0.13500
H 	H 	0.38400 0.29600 0.61400 0.08000
C 	C 	0.57780 0.07140 0.52070 0.06400
H 	H 	0.59780 0.04660 0.49950 -0.00600
C 	C 	0.25880 0.45610 0.76320 0.05800
H 	H 	0.22330 0.42040 0.74580 -0.01100
C 	C 	0.28820 0.46230 0.82260 -0.12700
H 	H 	0.27230 0.43200 0.84460 0.06800
C 	C 	0.36670 0.55510 0.81540 -0.13300
H 	H 	0.40490 0.58720 0.83200 0.08200
C 	C 	0.51120 0.62730 0.02530 0.06200
C 	C 	0.33260 0.54620 0.75580 0.07600
H 	H 	0.34840 0.57510 0.73300 -0.01600
C 	C 	0.31410 0.36880 0.62050 0.07800
H 	H 	0.33480 0.37080 0.66060 -0.00400
N 	N 	0.27800 0.36540 0.08840 -0.21100
N 	N 	0.62860 0.71920 0.08250 -0.19000
N 	N 	0.27940 0.49980 0.72910 -0.19300
N 	N 	0.42600 0.53930 0.02790 -0.13700
N 	N 	0.42530 0.57260 0.93740 -0.13800
N 	N 	0.34420 0.48250 0.94130 -0.14100
N 	N 	0.25620 0.40900 0.59280 -0.18500
N 	N 	0.60800 0.06480 0.57800 -0.20100
N 	N 	0.25360 0.27700 0.22890 -0.19600
N 	N 	0.40290 0.23920 0.52730 -0.14100
N 	N 	0.39640 0.20070 0.43600 -0.14800
N 	N 	0.31390 0.28740 0.44160 -0.13800
Ag	Ag	0.27371 0.79104 0.36808 0.51000
Ag	Ag	0.29539 0.99756 0.86756 0.51300
C 	C 	0.92210 0.60030 0.89200 0.04900
H 	H 	0.90170 0.59660 0.85190 -0.01800
C 	C 	0.15350 0.78000 0.00080 0.10000
C 	C 	0.12760 0.93860 0.41090 -0.13900
H 	H 	0.08490 0.95990 0.38960 0.08200
C 	C 	0.12800 0.99280 0.50190 0.09800
C 	C 	0.98170 0.61300 0.00900 -0.12200
H 	H 	0.00090 0.61640 0.04910 0.07000
C 	C 	0.90300 0.18460 0.38890 0.07400
H 	H 	0.88530 0.19170 0.34910 -0.00500
C 	C 	0.07480 0.69850 0.00630 0.09500
C 	C 	0.24340 0.86660 0.99650 -0.13100
H 	H 	0.26370 0.86770 0.03670 0.08500
C 	C 	0.27110 0.90680 0.96480 0.08100
H 	H 	0.31130 0.93420 0.98480 -0.01000
C 	C 	0.22280 0.91500 0.49900 -0.14400
H 	H 	0.24600 0.92010 0.53880 0.07600
C 	C 	0.15960 0.94830 0.46950 0.06300
C 	C 	0.12740 0.02410 0.58750 0.10100
C 	C 	0.15830 0.01440 0.65120 0.05700
C 	C 	0.96060 0.13870 0.41530 -0.12500
H 	H 	0.98040 0.11560 0.39340 0.08200
C 	C 	0.18390 0.82430 0.96630 0.06700
C 	C 	0.19000 0.75760 0.15140 0.05500
C 	C 	0.25070 0.87410 0.46780 0.07000
H 	H 	0.29280 0.85100 0.48810 -0.01800
C 	C 	0.98210 0.64200 0.91830 -0.12500
H 	H 	0.00170 0.66450 0.89600 0.07600
C 	C 	0.95720 0.16620 0.50510 -0.12500
H 	H 	0.97500 0.16290 0.54520 0.08200
C 	C 	0.25200 0.79270 0.18050 -0.13100
H 	H 	0.27590 0.81040 0.16020 0.08000
C 	C 	0.04950 0.07720 0.50510 0.10500
C 	C 	0.27910 0.80180 0.23990 0.07000
H 	H 	0.32110 0.82570 0.25890 -0.01000
C 	C 	0.16060 0.89610 0.38430 0.06300
H 	H 	0.13820 0.88860 0.34460 -0.01500
C 	C 	0.01260 0.65010 0.97700 0.04900
C 	C 	0.15580 0.73180 0.18320 -0.14400
H 	H 	0.11360 0.70790 0.16540 0.07500
C 	C 	0.15830 0.74840 0.08740 0.09600
C 	C 	0.89900 0.20930 0.47430 0.08100
H 	H 	0.87770 0.23310 0.49490 -0.00900
C 	C 	0.18710 0.74340 0.24240 0.07600
H 	H 	0.16430 0.72590 0.26370 -0.02400
C 	C 	0.15520 0.82480 0.90700 -0.13600
H 	H 	0.11600 0.79600 0.88600 0.08000
C 	C 	0.92220 0.57140 0.97930 0.06100
H 	H 	0.90220 0.54660 0.00050 -0.00400
C 	C 	0.24120 0.95610 0.73680 0.05800
H 	H 	0.27670 0.92040 0.75420 -0.01100
C 	C 	0.21180 0.96230 0.67740 -0.12700
H 	H 	0.22770 0.93200 0.65540 0.06800
C 	C 	0.13330 0.05510 0.68460 -0.13300
H 	H 	0.09510 0.08720 0.66800 0.08200
C 	C 	0.98880 0.12730 0.47470 0.06200
C 	C 	0.16740 0.04620 0.74420 0.07600
H 	H 	0.15160 0.07510 0.76700 -0.01600
C 	C 	0.18590 0.86880 0.87950 0.07900
H 	H 	0.16520 0.87080 0.83940 -0.00400
N 	N 	0.22200 0.86540 0.41160 -0.21100
N 	N 	0.87140 0.21920 0.41750 -0.19000
N 	N 	0.22060 0.99980 0.77090 -0.19300
N 	N 	0.07400 0.03930 0.47210 -0.13700
N 	N 	0.07470 0.07260 0.56260 -0.13800
N 	N 	0.15580 0.98250 0.55870 -0.14100
N 	N 	0.24380 0.90900 0.90720 -0.18500
N 	N 	0.89200 0.56480 0.92200 -0.20000
N 	N 	0.24640 0.77700 0.27110 -0.19600
N 	N 	0.09710 0.73920 0.97270 -0.14000
N 	N 	0.10360 0.70070 0.06400 -0.14800
N 	N 	0.18610 0.78740 0.05840 -0.13800
Ag	Ag	0.77371 0.29104 0.36808 0.51000
Ag	Ag	0.79539 0.49756 0.86756 0.51300
C 	C 	0.42210 0.10030 0.89200 0.04800
H 	H 	0.40170 0.09660 0.85190 -0.01800
C 	C 	0.65350 0.28000 0.00080 0.10100
C 	C 	0.62760 0.43860 0.41090 -0.13900
H 	H 	0.58490 0.45990 0.38960 0.08200
C 	C 	0.62800 0.49280 0.50190 0.09800
C 	C 	0.48170 0.11300 0.00900 -0.12600
H 	H 	0.50090 0.11640 0.04910 0.07200
C 	C 	0.40300 0.68460 0.38890 0.07400
H 	H 	0.38530 0.69170 0.34910 -0.00500
C 	C 	0.57480 0.19850 0.00630 0.09600
C 	C 	0.74340 0.36660 0.99650 -0.13200
H 	H 	0.76370 0.36770 0.03670 0.08600
C 	C 	0.77110 0.40680 0.96480 0.08100
H 	H 	0.81130 0.43420 0.98480 -0.01000
C 	C 	0.72280 0.41500 0.49900 -0.14400
H 	H 	0.74600 0.42010 0.53880 0.07600
C 	C 	0.65960 0.44830 0.46950 0.06300
C 	C 	0.62740 0.52410 0.58750 0.10100
C 	C 	0.65830 0.51440 0.65120 0.05600
C 	C 	0.46060 0.63870 0.41530 -0.12500
H 	H 	0.48040 0.61560 0.39340 0.08200
C 	C 	0.68390 0.32430 0.96630 0.06600
C 	C 	0.69000 0.25760 0.15140 0.05500
C 	C 	0.75070 0.37410 0.46780 0.07000
H 	H 	0.79280 0.35100 0.48810 -0.01800
C 	C 	0.48210 0.14200 0.91830 -0.12300
H 	H 	0.50170 0.16450 0.89600 0.07500
C 	C 	0.45720 0.66620 0.50510 -0.12500
H 	H 	0.47500 0.66290 0.54520 0.08200
C 	C 	0.75200 0.29270 0.18050 -0.13100
H 	H 	0.77590 0.31040 0.16020 0.08000
C 	C 	0.54950 0.57720 0.50510 0.10500
C 	C 	0.77910 0.30180 0.23990 0.07000
H 	H 	0.82110 0.32570 0.25890 -0.01000
C 	C 	0.66060 0.39610 0.38430 0.06300
H 	H 	0.63820 0.38860 0.34460 -0.01400
C 	C 	0.51260 0.15010 0.97700 0.04900
C 	C 	0.65580 0.23180 0.18320 -0.14400
H 	H 	0.61360 0.20790 0.16540 0.07500
C 	C 	0.65830 0.24840 0.08740 0.09600
C 	C 	0.39900 0.70930 0.47430 0.08100
H 	H 	0.37770 0.73310 0.49490 -0.00900
C 	C 	0.68710 0.24340 0.24240 0.07600
H 	H 	0.66430 0.22590 0.26370 -0.02400
C 	C 	0.65520 0.32480 0.90700 -0.13600
H 	H 	0.61600 0.29600 0.88600 0.08000
C 	C 	0.42220 0.07140 0.97930 0.06500
H 	H 	0.40220 0.04660 0.00050 -0.00600
C 	C 	0.74120 0.45610 0.73680 0.05800
H 	H 	0.77670 0.42040 0.75420 -0.01100
C 	C 	0.71180 0.46230 0.67740 -0.12700
H 	H 	0.72770 0.43200 0.65540 0.06800
C 	C 	0.63330 0.55510 0.68460 -0.13300
H 	H 	0.59510 0.58720 0.66800 0.08200
C 	C 	0.48880 0.62730 0.47470 0.06200
C 	C 	0.66740 0.54620 0.74420 0.07600
H 	H 	0.65160 0.57510 0.76700 -0.01600
C 	C 	0.68590 0.36880 0.87950 0.07900
H 	H 	0.66520 0.37080 0.83940 -0.00400
N 	N 	0.72200 0.36540 0.41160 -0.21100
N 	N 	0.37140 0.71920 0.41750 -0.19000
N 	N 	0.72060 0.49980 0.77090 -0.19300
N 	N 	0.57400 0.53930 0.47210 -0.13700
N 	N 	0.57470 0.57260 0.56260 -0.13800
N 	N 	0.65580 0.48250 0.55870 -0.14100
N 	N 	0.74380 0.40900 0.90720 -0.18500
N 	N 	0.39200 0.06480 0.92200 -0.20100
N 	N 	0.74640 0.27700 0.27110 -0.19600
N 	N 	0.59710 0.23920 0.97270 -0.14100
N 	N 	0.60360 0.20070 0.06400 -0.14800
N 	N 	0.68610 0.28740 0.05840 -0.13800
