data_crystal

_cell_length_a 21.99440
_cell_length_b 16.66210
_cell_length_c 25.63630
_cell_angle_alpha 90.00000
_cell_angle_beta  115.34000
_cell_angle_gamma 90.00000

_symmetry_space_group_name_	'P 1'
_symmetry_space_group_name_H-M	'P 1'

loop_
_symmetry_equiv_pos_as_xyz
  x,y,z

loop_
_atom_site_label
_atom_site_type_symbol
_atom_site_fract_x
_atom_site_fract_y
_atom_site_fract_z
_atom_site_charge
Ag	Ag	0.77378 0.70901 0.36815 0.51100
Ag	Ag	0.29535 0.00221 0.86757 0.51400
C 	C 	0.15370 0.22000 0.00100 0.10300
C 	C 	0.12790 0.00720 0.50190 0.09900
C 	C 	0.92230 0.39980 0.89220 0.05300
H 	H 	0.90210 0.40360 0.85220 -0.01800
C 	C 	0.12780 0.06170 0.41090 -0.13800
H 	H 	0.08520 0.04040 0.38960 0.08300
C 	C 	0.90310 0.81660 0.38890 0.07300
H 	H 	0.88500 0.81030 0.34910 -0.00400
C 	C 	0.98190 0.38700 0.00950 -0.12100
H 	H 	0.00080 0.38340 0.04950 0.07100
C 	C 	0.07480 0.30140 0.00670 0.09600
C 	C 	0.15940 0.05200 0.46940 0.06300
C 	C 	0.15850 0.98590 0.65120 0.05900
C 	C 	0.24340 0.13350 0.99650 -0.12900
H 	H 	0.26400 0.13260 0.03660 0.08600
C 	C 	0.27110 0.09320 0.96470 0.08200
H 	H 	0.31140 0.06600 0.98470 -0.00900
C 	C 	0.22280 0.08580 0.49880 -0.14000
H 	H 	0.24550 0.08130 0.53870 0.07600
C 	C 	0.04970 0.92270 0.50510 0.10600
C 	C 	0.18390 0.17540 0.96660 0.06500
C 	C 	0.96070 0.86160 0.41530 -0.12400
H 	H 	0.98090 0.88440 0.39350 0.08100
C 	C 	0.25130 0.12570 0.46830 0.06600
H 	H 	0.29380 0.14770 0.48860 -0.01700
C 	C 	0.12770 0.97540 0.58760 0.10100
C 	C 	0.95730 0.83400 0.50540 -0.12500
H 	H 	0.97510 0.83740 0.54540 0.08200
C 	C 	0.19030 0.24310 0.15190 0.05600
C 	C 	0.25240 0.20690 0.18090 -0.13400
H 	H 	0.27590 0.18800 0.16060 0.08100
C 	C 	0.15820 0.25180 0.08770 0.09600
C 	C 	0.16050 0.10370 0.38430 0.06400
H 	H 	0.13830 0.11080 0.34450 -0.01500
C 	C 	0.98210 0.35790 0.91830 -0.12600
H 	H 	0.00150 0.33510 0.89600 0.07700
C 	C 	0.98870 0.87260 0.47480 0.06200
C 	C 	0.01270 0.35020 0.97740 0.04900
C 	C 	0.21190 0.03760 0.67770 -0.13100
H 	H 	0.22800 0.06800 0.65590 0.06900
C 	C 	0.18690 0.25710 0.24250 0.07500
H 	H 	0.16410 0.27480 0.26370 -0.02400
C 	C 	0.89910 0.79070 0.47440 0.08000
H 	H 	0.87800 0.76640 0.49500 -0.00900
C 	C 	0.27900 0.19920 0.24000 0.07300
H 	H 	0.32140 0.17620 0.25920 -0.01100
C 	C 	0.92220 0.42880 0.97910 0.05900
H 	H 	0.90210 0.45380 0.00020 -0.00400
C 	C 	0.15620 0.26790 0.18340 -0.14500
H 	H 	0.11380 0.29130 0.16540 0.07500
C 	C 	0.15540 0.17530 0.90730 -0.13300
H 	H 	0.11640 0.20430 0.88630 0.07900
C 	C 	0.13350 0.94530 0.68500 -0.13600
H 	H 	0.09530 0.91330 0.66850 0.08300
C 	C 	0.24100 0.04360 0.73690 0.06200
H 	H 	0.27640 0.07950 0.75440 -0.01300
C 	C 	0.16730 0.95390 0.74410 0.07800
H 	H 	0.15140 0.92520 0.76680 -0.01700
C 	C 	0.18570 0.13140 0.87930 0.07400
H 	H 	0.16510 0.12980 0.83910 -0.00200
N 	N 	0.87140 0.78130 0.41750 -0.18900
N 	N 	0.22190 0.13480 0.41160 -0.21000
N 	N 	0.22070 0.00010 0.77080 -0.19400
N 	N 	0.07410 0.96100 0.47230 -0.13800
N 	N 	0.15600 0.01750 0.55910 -0.14100
N 	N 	0.07480 0.92730 0.56280 -0.13800
N 	N 	0.24380 0.09060 0.90720 -0.18400
N 	N 	0.24650 0.22340 0.27120 -0.19600
N 	N 	0.89200 0.43510 0.92170 -0.20100
N 	N 	0.18620 0.21290 0.05850 -0.13800
N 	N 	0.10370 0.29900 0.06410 -0.14900
N 	N 	0.09760 0.26060 0.97320 -0.14000
Ag	Ag	0.27378 0.20901 0.36815 0.51000
Ag	Ag	0.79535 0.50221 0.86757 0.51300
C 	C 	0.65370 0.72000 0.00100 0.10300
C 	C 	0.62790 0.50720 0.50190 0.09800
C 	C 	0.42230 0.89980 0.89220 0.05100
H 	H 	0.40210 0.90360 0.85220 -0.01900
C 	C 	0.62780 0.56170 0.41090 -0.13900
H 	H 	0.58520 0.54040 0.38960 0.08200
C 	C 	0.40310 0.31660 0.38890 0.07300
H 	H 	0.38500 0.31030 0.34910 -0.00500
C 	C 	0.48190 0.88700 0.00950 -0.12500
H 	H 	0.50080 0.88340 0.04950 0.07200
C 	C 	0.57480 0.80140 0.00670 0.09600
C 	C 	0.65940 0.55200 0.46940 0.06200
C 	C 	0.65850 0.48590 0.65120 0.05800
C 	C 	0.74340 0.63350 0.99650 -0.13200
H 	H 	0.76400 0.63260 0.03660 0.08600
C 	C 	0.77110 0.59320 0.96470 0.08100
H 	H 	0.81140 0.56600 0.98470 -0.01000
C 	C 	0.72280 0.58580 0.49880 -0.14100
H 	H 	0.74550 0.58130 0.53870 0.07500
C 	C 	0.54970 0.42270 0.50510 0.10500
C 	C 	0.68390 0.67540 0.96660 0.06500
C 	C 	0.46070 0.36160 0.41530 -0.12400
H 	H 	0.48090 0.38440 0.39350 0.08100
C 	C 	0.75130 0.62570 0.46830 0.06600
H 	H 	0.79380 0.64770 0.48860 -0.01700
C 	C 	0.62770 0.47540 0.58760 0.10100
C 	C 	0.45730 0.33400 0.50540 -0.12500
H 	H 	0.47510 0.33740 0.54540 0.08200
C 	C 	0.69030 0.74310 0.15190 0.05600
C 	C 	0.75240 0.70690 0.18090 -0.13400
H 	H 	0.77590 0.68800 0.16060 0.08100
C 	C 	0.65820 0.75180 0.08770 0.09600
C 	C 	0.66050 0.60370 0.38430 0.06400
H 	H 	0.63830 0.61080 0.34450 -0.01500
C 	C 	0.48210 0.85790 0.91830 -0.12400
H 	H 	0.50150 0.83510 0.89600 0.07500
C 	C 	0.48870 0.37260 0.47480 0.06200
C 	C 	0.51270 0.85020 0.97740 0.04800
C 	C 	0.71190 0.53760 0.67770 -0.13000
H 	H 	0.72800 0.56800 0.65590 0.06900
C 	C 	0.68690 0.75710 0.24250 0.07500
H 	H 	0.66410 0.77480 0.26370 -0.02400
C 	C 	0.39910 0.29070 0.47440 0.08000
H 	H 	0.37800 0.26640 0.49500 -0.00900
C 	C 	0.77900 0.69920 0.24000 0.07300
H 	H 	0.82140 0.67620 0.25920 -0.01100
C 	C 	0.42220 0.92880 0.97910 0.06300
H 	H 	0.40210 0.95380 0.00020 -0.00600
C 	C 	0.65620 0.76790 0.18340 -0.14500
H 	H 	0.61380 0.79130 0.16540 0.07500
C 	C 	0.65540 0.67530 0.90730 -0.13200
H 	H 	0.61640 0.70430 0.88630 0.07900
C 	C 	0.63350 0.44530 0.68500 -0.13600
H 	H 	0.59530 0.41330 0.66850 0.08200
C 	C 	0.74100 0.54360 0.73690 0.06200
H 	H 	0.77640 0.57950 0.75440 -0.01300
C 	C 	0.66730 0.45390 0.74410 0.07800
H 	H 	0.65140 0.42520 0.76680 -0.01700
C 	C 	0.68570 0.63140 0.87930 0.07400
H 	H 	0.66510 0.62980 0.83910 -0.00200
N 	N 	0.37140 0.28130 0.41750 -0.18900
N 	N 	0.72190 0.63480 0.41160 -0.21000
N 	N 	0.72070 0.50010 0.77080 -0.19400
N 	N 	0.57410 0.46100 0.47230 -0.13800
N 	N 	0.65600 0.51750 0.55910 -0.14100
N 	N 	0.57480 0.42730 0.56280 -0.13800
N 	N 	0.74380 0.59060 0.90720 -0.18400
N 	N 	0.74650 0.72340 0.27120 -0.19600
N 	N 	0.39200 0.93510 0.92170 -0.20100
N 	N 	0.68620 0.71290 0.05850 -0.13800
N 	N 	0.60370 0.79900 0.06410 -0.14900
N 	N 	0.59760 0.76060 0.97320 -0.14100
Ag	Ag	0.22622 0.70901 0.13185 0.51000
Ag	Ag	0.70465 0.00221 0.63243 0.51300
C 	C 	0.84630 0.22000 0.49900 0.10300
C 	C 	0.87210 0.00720 0.99810 0.09600
C 	C 	0.07770 0.39980 0.60780 0.05100
H 	H 	0.09790 0.40360 0.64780 -0.01800
C 	C 	0.87220 0.06170 0.08910 -0.14000
H 	H 	0.91480 0.04040 0.11040 0.08200
C 	C 	0.09690 0.81660 0.11110 0.07200
H 	H 	0.11500 0.81030 0.15090 -0.00500
C 	C 	0.01810 0.38700 0.49050 -0.12400
H 	H 	0.99920 0.38340 0.45050 0.07200
C 	C 	0.92520 0.30140 0.49330 0.09700
C 	C 	0.84060 0.05200 0.03060 0.06200
C 	C 	0.84150 0.98590 0.84880 0.05800
C 	C 	0.75660 0.13350 0.50350 -0.13000
H 	H 	0.73600 0.13260 0.46340 0.08500
C 	C 	0.72890 0.09320 0.53530 0.08100
H 	H 	0.68860 0.06600 0.51530 -0.01000
C 	C 	0.77720 0.08580 0.00120 -0.14100
H 	H 	0.75450 0.08130 0.96130 0.07500
C 	C 	0.95030 0.92270 0.99490 0.10500
C 	C 	0.81610 0.17540 0.53340 0.06400
C 	C 	0.03930 0.86160 0.08470 -0.12300
H 	H 	0.01910 0.88440 0.10650 0.08100
C 	C 	0.74870 0.12570 0.03170 0.06600
H 	H 	0.70620 0.14770 0.01140 -0.01600
C 	C 	0.87230 0.97540 0.91240 0.10100
C 	C 	0.04270 0.83400 0.99460 -0.12200
H 	H 	0.02490 0.83740 0.95460 0.08100
C 	C 	0.80970 0.24310 0.34810 0.05600
C 	C 	0.74760 0.20690 0.31910 -0.13400
H 	H 	0.72410 0.18800 0.33940 0.08100
C 	C 	0.84180 0.25180 0.41230 0.09600
C 	C 	0.83950 0.10370 0.11570 0.06400
H 	H 	0.86170 0.11080 0.15550 -0.01500
C 	C 	0.01790 0.35790 0.58170 -0.12300
H 	H 	0.99850 0.33510 0.60400 0.07500
C 	C 	0.01130 0.87260 0.02520 0.06000
C 	C 	0.98730 0.35020 0.52260 0.04700
C 	C 	0.78810 0.03760 0.82230 -0.13100
H 	H 	0.77200 0.06800 0.84410 0.06900
C 	C 	0.81310 0.25710 0.25750 0.07500
H 	H 	0.83590 0.27480 0.23630 -0.02400
C 	C 	0.10090 0.79070 0.02560 0.07700
H 	H 	0.12200 0.76640 0.00500 -0.00900
C 	C 	0.72100 0.19920 0.26000 0.07300
H 	H 	0.67860 0.17620 0.24080 -0.01100
C 	C 	0.07780 0.42880 0.52090 0.06200
H 	H 	0.09790 0.45380 0.49980 -0.00500
C 	C 	0.84380 0.26790 0.31660 -0.14500
H 	H 	0.88620 0.29130 0.33460 0.07500
C 	C 	0.84460 0.17530 0.59270 -0.13200
H 	H 	0.88360 0.20430 0.61370 0.07900
C 	C 	0.86650 0.94530 0.81500 -0.13600
H 	H 	0.90470 0.91330 0.83150 0.08200
C 	C 	0.75900 0.04360 0.76310 0.06200
H 	H 	0.72360 0.07950 0.74560 -0.01300
C 	C 	0.83270 0.95390 0.75590 0.07800
H 	H 	0.84860 0.92520 0.73320 -0.01700
C 	C 	0.81430 0.13140 0.62070 0.07400
H 	H 	0.83490 0.12980 0.66090 -0.00200
N 	N 	0.12860 0.78130 0.08250 -0.18800
N 	N 	0.77810 0.13480 0.08840 -0.21000
N 	N 	0.77930 0.00010 0.72920 -0.19400
N 	N 	0.92590 0.96100 0.02770 -0.13700
N 	N 	0.84400 0.01750 0.94090 -0.14100
N 	N 	0.92520 0.92730 0.93720 -0.13800
N 	N 	0.75620 0.09060 0.59280 -0.18400
N 	N 	0.75350 0.22340 0.22880 -0.19600
N 	N 	0.10800 0.43510 0.57830 -0.20100
N 	N 	0.81380 0.21290 0.44150 -0.13800
N 	N 	0.89630 0.29900 0.43590 -0.14900
N 	N 	0.90240 0.26060 0.52680 -0.14100
Ag	Ag	0.72622 0.20901 0.13185 0.51000
Ag	Ag	0.20465 0.50221 0.63243 0.51300
C 	C 	0.34630 0.72000 0.49900 0.10300
C 	C 	0.37210 0.50720 0.99810 0.09700
C 	C 	0.57770 0.89980 0.60780 0.05100
H 	H 	0.59790 0.90360 0.64780 -0.01900
C 	C 	0.37220 0.56170 0.08910 -0.14000
H 	H 	0.41480 0.54040 0.11040 0.08200
C 	C 	0.59690 0.31660 0.11110 0.07300
H 	H 	0.61500 0.31030 0.15090 -0.00500
C 	C 	0.51810 0.88700 0.49050 -0.12400
H 	H 	0.49920 0.88340 0.45050 0.07200
C 	C 	0.42520 0.80140 0.49330 0.09700
C 	C 	0.34060 0.55200 0.03060 0.06200
C 	C 	0.34150 0.48590 0.84880 0.05800
C 	C 	0.25660 0.63350 0.50350 -0.13000
H 	H 	0.23600 0.63260 0.46340 0.08500
C 	C 	0.22890 0.59320 0.53530 0.08000
H 	H 	0.18860 0.56600 0.51530 -0.01000
C 	C 	0.27720 0.58580 0.00120 -0.14300
H 	H 	0.25450 0.58130 0.96130 0.07600
C 	C 	0.45030 0.42270 0.99490 0.10500
C 	C 	0.31610 0.67540 0.53340 0.06400
C 	C 	0.53930 0.36160 0.08470 -0.12400
H 	H 	0.51910 0.38440 0.10650 0.08100
C 	C 	0.24870 0.62570 0.03170 0.06700
H 	H 	0.20620 0.64770 0.01140 -0.01700
C 	C 	0.37230 0.47540 0.91240 0.10100
C 	C 	0.54270 0.33400 0.99460 -0.12600
H 	H 	0.52490 0.33740 0.95460 0.08200
C 	C 	0.30970 0.74310 0.34810 0.05600
C 	C 	0.24760 0.70690 0.31910 -0.13400
H 	H 	0.22410 0.68800 0.33940 0.08100
C 	C 	0.34180 0.75180 0.41230 0.09600
C 	C 	0.33950 0.60370 0.11570 0.06400
H 	H 	0.36170 0.61080 0.15550 -0.01500
C 	C 	0.51790 0.85790 0.58170 -0.12400
H 	H 	0.49850 0.83510 0.60400 0.07500
C 	C 	0.51130 0.37260 0.02520 0.06300
C 	C 	0.48730 0.85020 0.52260 0.04700
C 	C 	0.28810 0.53760 0.82230 -0.13000
H 	H 	0.27200 0.56800 0.84410 0.06900
C 	C 	0.31310 0.75710 0.25750 0.07500
H 	H 	0.33590 0.77480 0.23630 -0.02400
C 	C 	0.60090 0.29070 0.02560 0.08000
H 	H 	0.62200 0.26640 0.00500 -0.00900
C 	C 	0.22100 0.69920 0.26000 0.07300
H 	H 	0.17860 0.67620 0.24080 -0.01100
C 	C 	0.57780 0.92880 0.52090 0.06200
H 	H 	0.59790 0.95380 0.49980 -0.00500
C 	C 	0.34380 0.76790 0.31660 -0.14500
H 	H 	0.38620 0.79130 0.33460 0.07500
C 	C 	0.34460 0.67530 0.59270 -0.13200
H 	H 	0.38360 0.70430 0.61370 0.07900
C 	C 	0.36650 0.44530 0.81500 -0.13600
H 	H 	0.40470 0.41330 0.83150 0.08200
C 	C 	0.25900 0.54360 0.76310 0.06200
H 	H 	0.22360 0.57950 0.74560 -0.01200
C 	C 	0.33270 0.45390 0.75590 0.07800
H 	H 	0.34860 0.42520 0.73320 -0.01700
C 	C 	0.31430 0.63140 0.62070 0.07400
H 	H 	0.33490 0.62980 0.66090 -0.00200
N 	N 	0.62860 0.28130 0.08250 -0.18900
N 	N 	0.27810 0.63480 0.08840 -0.21000
N 	N 	0.27930 0.50010 0.72920 -0.19400
N 	N 	0.42590 0.46100 0.02770 -0.13800
N 	N 	0.34400 0.51750 0.94090 -0.14100
N 	N 	0.42520 0.42730 0.93720 -0.13800
N 	N 	0.25620 0.59060 0.59280 -0.18400
N 	N 	0.25350 0.72340 0.22880 -0.19600
N 	N 	0.60800 0.93510 0.57830 -0.20100
N 	N 	0.31380 0.71290 0.44150 -0.13800
N 	N 	0.39630 0.79900 0.43590 -0.14900
N 	N 	0.40240 0.76060 0.52680 -0.14100
Ag	Ag	0.22622 0.29099 0.63185 0.51000
Ag	Ag	0.70465 0.99779 0.13243 0.51300
C 	C 	0.84630 0.78000 0.99900 0.10200
C 	C 	0.87210 0.99280 0.49810 0.09800
C 	C 	0.07770 0.60020 0.10780 0.05200
H 	H 	0.09790 0.59640 0.14780 -0.01900
C 	C 	0.87220 0.93830 0.58910 -0.13900
H 	H 	0.91480 0.95960 0.61040 0.08200
C 	C 	0.09690 0.18340 0.61110 0.07200
H 	H 	0.11500 0.18970 0.65090 -0.00500
C 	C 	0.01810 0.61300 0.99050 -0.12200
H 	H 	0.99920 0.61660 0.95050 0.07000
C 	C 	0.92520 0.69860 0.99330 0.09500
C 	C 	0.84060 0.94800 0.53060 0.06200
C 	C 	0.84150 0.01410 0.34880 0.05800
C 	C 	0.75660 0.86650 0.00350 -0.13000
H 	H 	0.73600 0.86740 0.96340 0.08500
C 	C 	0.72890 0.90680 0.03530 0.08100
H 	H 	0.68860 0.93400 0.01530 -0.01000
C 	C 	0.77720 0.91420 0.50120 -0.14100
H 	H 	0.75450 0.91870 0.46130 0.07500
C 	C 	0.95030 0.07730 0.49490 0.10500
C 	C 	0.81610 0.82460 0.03340 0.06500
C 	C 	0.03930 0.13840 0.58470 -0.12400
H 	H 	0.01910 0.11560 0.60650 0.08100
C 	C 	0.74870 0.87430 0.53170 0.06600
H 	H 	0.70620 0.85230 0.51140 -0.01700
C 	C 	0.87230 0.02460 0.41240 0.10100
C 	C 	0.04270 0.16600 0.49460 -0.12500
H 	H 	0.02490 0.16260 0.45460 0.08200
C 	C 	0.80970 0.75690 0.84810 0.05600
C 	C 	0.74760 0.79310 0.81910 -0.13400
H 	H 	0.72410 0.81200 0.83940 0.08100
C 	C 	0.84180 0.74820 0.91230 0.09600
C 	C 	0.83950 0.89630 0.61570 0.06400
H 	H 	0.86170 0.88920 0.65550 -0.01500
C 	C 	0.01790 0.64210 0.08170 -0.12600
H 	H 	0.99850 0.66490 0.10400 0.07700
C 	C 	0.01130 0.12740 0.52520 0.06200
C 	C 	0.98730 0.64980 0.02260 0.04900
C 	C 	0.78810 0.96240 0.32230 -0.13100
H 	H 	0.77200 0.93200 0.34410 0.06900
C 	C 	0.81310 0.74290 0.75750 0.07500
H 	H 	0.83590 0.72520 0.73630 -0.02400
C 	C 	0.10090 0.20930 0.52560 0.08000
H 	H 	0.12200 0.23360 0.50500 -0.00900
C 	C 	0.72100 0.80080 0.76000 0.07300
H 	H 	0.67860 0.82380 0.74080 -0.01100
C 	C 	0.07780 0.57120 0.02090 0.05900
H 	H 	0.09790 0.54620 0.99980 -0.00400
C 	C 	0.84380 0.73210 0.81660 -0.14500
H 	H 	0.88620 0.70870 0.83460 0.07500
C 	C 	0.84460 0.82470 0.09270 -0.13300
H 	H 	0.88360 0.79570 0.11370 0.07900
C 	C 	0.86650 0.05470 0.31500 -0.13600
H 	H 	0.90470 0.08670 0.33150 0.08300
C 	C 	0.75900 0.95640 0.26310 0.06200
H 	H 	0.72360 0.92050 0.24560 -0.01300
C 	C 	0.83270 0.04610 0.25590 0.07800
H 	H 	0.84860 0.07480 0.23320 -0.01700
C 	C 	0.81430 0.86860 0.12070 0.07400
H 	H 	0.83490 0.87020 0.16090 -0.00200
N 	N 	0.12860 0.21870 0.58250 -0.18900
N 	N 	0.77810 0.86520 0.58840 -0.21000
N 	N 	0.77930 0.99990 0.22920 -0.19400
N 	N 	0.92590 0.03900 0.52770 -0.13800
N 	N 	0.84400 0.98250 0.44090 -0.14100
N 	N 	0.92520 0.07270 0.43720 -0.13800
N 	N 	0.75620 0.90940 0.09280 -0.18400
N 	N 	0.75350 0.77660 0.72880 -0.19600
N 	N 	0.10800 0.56490 0.07830 -0.20100
N 	N 	0.81380 0.78710 0.94150 -0.13800
N 	N 	0.89630 0.70100 0.93590 -0.14900
N 	N 	0.90240 0.73940 0.02680 -0.14000
Ag	Ag	0.72622 0.79099 0.63185 0.51000
Ag	Ag	0.20465 0.49779 0.13243 0.51300
C 	C 	0.34630 0.28000 0.99900 0.10300
C 	C 	0.37210 0.49280 0.49810 0.09800
C 	C 	0.57770 0.10020 0.10780 0.05100
H 	H 	0.59790 0.09640 0.14780 -0.01900
C 	C 	0.37220 0.43830 0.58910 -0.13900
H 	H 	0.41480 0.45960 0.61040 0.08200
C 	C 	0.59690 0.68340 0.61110 0.07300
H 	H 	0.61500 0.68970 0.65090 -0.00500
C 	C 	0.51810 0.11300 0.99050 -0.12500
H 	H 	0.49920 0.11660 0.95050 0.07200
C 	C 	0.42520 0.19860 0.99330 0.09600
C 	C 	0.34060 0.44800 0.53060 0.06200
C 	C 	0.34150 0.51410 0.34880 0.05800
C 	C 	0.25660 0.36650 0.00350 -0.13200
H 	H 	0.23600 0.36740 0.96340 0.08600
C 	C 	0.22890 0.40680 0.03530 0.08100
H 	H 	0.18860 0.43400 0.01530 -0.01000
C 	C 	0.27720 0.41420 0.50120 -0.14100
H 	H 	0.25450 0.41870 0.46130 0.07500
C 	C 	0.45030 0.57730 0.49490 0.10500
C 	C 	0.31610 0.32460 0.03340 0.06500
C 	C 	0.53930 0.63840 0.58470 -0.12400
H 	H 	0.51910 0.61560 0.60650 0.08100
C 	C 	0.24870 0.37430 0.53170 0.06600
H 	H 	0.20620 0.35230 0.51140 -0.01700
C 	C 	0.37230 0.52460 0.41240 0.10100
C 	C 	0.54270 0.66600 0.49460 -0.12500
H 	H 	0.52490 0.66260 0.45460 0.08200
C 	C 	0.30970 0.25690 0.84810 0.05600
C 	C 	0.24760 0.29310 0.81910 -0.13400
H 	H 	0.22410 0.31200 0.83940 0.08100
C 	C 	0.34180 0.24820 0.91230 0.09600
C 	C 	0.33950 0.39630 0.61570 0.06400
H 	H 	0.36170 0.38920 0.65550 -0.01500
C 	C 	0.51790 0.14210 0.08170 -0.12400
H 	H 	0.49850 0.16490 0.10400 0.07500
C 	C 	0.51130 0.62740 0.52520 0.06200
C 	C 	0.48730 0.14980 0.02260 0.04800
C 	C 	0.28810 0.46240 0.32230 -0.13000
H 	H 	0.27200 0.43200 0.34410 0.06900
C 	C 	0.31310 0.24290 0.75750 0.07500
H 	H 	0.33590 0.22520 0.73630 -0.02400
C 	C 	0.60090 0.70930 0.52560 0.08000
H 	H 	0.62200 0.73360 0.50500 -0.00900
C 	C 	0.22100 0.30080 0.76000 0.07300
H 	H 	0.17860 0.32380 0.74080 -0.01100
C 	C 	0.57780 0.07120 0.02090 0.06300
H 	H 	0.59790 0.04620 0.99980 -0.00600
C 	C 	0.34380 0.23210 0.81660 -0.14500
H 	H 	0.38620 0.20870 0.83460 0.07500
C 	C 	0.34460 0.32470 0.09270 -0.13200
H 	H 	0.38360 0.29570 0.11370 0.07900
C 	C 	0.36650 0.55470 0.31500 -0.13600
H 	H 	0.40470 0.58670 0.33150 0.08200
C 	C 	0.25900 0.45640 0.26310 0.06200
H 	H 	0.22360 0.42050 0.24560 -0.01300
C 	C 	0.33270 0.54610 0.25590 0.07800
H 	H 	0.34860 0.57480 0.23320 -0.01700
C 	C 	0.31430 0.36860 0.12070 0.07400
H 	H 	0.33490 0.37020 0.16090 -0.00200
N 	N 	0.62860 0.71870 0.58250 -0.18900
N 	N 	0.27810 0.36520 0.58840 -0.21000
N 	N 	0.27930 0.49990 0.22920 -0.19400
N 	N 	0.42590 0.53900 0.52770 -0.13800
N 	N 	0.34400 0.48250 0.44090 -0.14100
N 	N 	0.42520 0.57270 0.43720 -0.13800
N 	N 	0.25620 0.40940 0.09280 -0.18400
N 	N 	0.25350 0.27660 0.72880 -0.19600
N 	N 	0.60800 0.06490 0.07830 -0.20100
N 	N 	0.31380 0.28710 0.94150 -0.13800
N 	N 	0.39630 0.20100 0.93590 -0.14900
N 	N 	0.40240 0.23940 0.02680 -0.14100
Ag	Ag	0.77378 0.29099 0.86815 0.51000
Ag	Ag	0.29535 0.99779 0.36757 0.51300
C 	C 	0.15370 0.78000 0.50100 0.10300
C 	C 	0.12790 0.99280 0.00190 0.09600
C 	C 	0.92230 0.60020 0.39220 0.05100
H 	H 	0.90210 0.59640 0.35220 -0.01800
C 	C 	0.12780 0.93830 0.91090 -0.14000
H 	H 	0.08520 0.95960 0.88960 0.08200
C 	C 	0.90310 0.18340 0.88890 0.07200
H 	H 	0.88500 0.18970 0.84910 -0.00500
C 	C 	0.98190 0.61300 0.50950 -0.12400
H 	H 	0.00080 0.61660 0.54950 0.07200
C 	C 	0.07480 0.69860 0.50670 0.09700
C 	C 	0.15940 0.94800 0.96940 0.06200
C 	C 	0.15850 0.01410 0.15120 0.05800
C 	C 	0.24340 0.86650 0.49650 -0.13000
H 	H 	0.26400 0.86740 0.53660 0.08500
C 	C 	0.27110 0.90680 0.46470 0.08100
H 	H 	0.31140 0.93400 0.48470 -0.01000
C 	C 	0.22280 0.91420 0.99880 -0.14100
H 	H 	0.24550 0.91870 0.03870 0.07500
C 	C 	0.04970 0.07730 0.00510 0.10500
C 	C 	0.18390 0.82460 0.46660 0.06400
C 	C 	0.96070 0.13840 0.91530 -0.12300
H 	H 	0.98090 0.11560 0.89350 0.08100
C 	C 	0.25130 0.87430 0.96830 0.06600
H 	H 	0.29380 0.85230 0.98860 -0.01600
C 	C 	0.12770 0.02460 0.08760 0.10100
C 	C 	0.95730 0.16600 0.00540 -0.12200
H 	H 	0.97510 0.16260 0.04540 0.08100
C 	C 	0.19030 0.75690 0.65190 0.05600
C 	C 	0.25240 0.79310 0.68090 -0.13400
H 	H 	0.27590 0.81200 0.66060 0.08100
C 	C 	0.15820 0.74820 0.58770 0.09600
C 	C 	0.16050 0.89630 0.88430 0.06400
H 	H 	0.13830 0.88920 0.84450 -0.01500
C 	C 	0.98210 0.64210 0.41830 -0.12300
H 	H 	0.00150 0.66490 0.39600 0.07500
C 	C 	0.98870 0.12740 0.97480 0.06000
C 	C 	0.01270 0.64980 0.47740 0.04700
C 	C 	0.21190 0.96240 0.17770 -0.13100
H 	H 	0.22800 0.93200 0.15590 0.06900
C 	C 	0.18690 0.74290 0.74250 0.07500
H 	H 	0.16410 0.72520 0.76370 -0.02400
C 	C 	0.89910 0.20930 0.97440 0.07700
H 	H 	0.87800 0.23360 0.99500 -0.00900
C 	C 	0.27900 0.80080 0.74000 0.07300
H 	H 	0.32140 0.82380 0.75920 -0.01100
C 	C 	0.92220 0.57120 0.47910 0.06200
H 	H 	0.90210 0.54620 0.50020 -0.00500
C 	C 	0.15620 0.73210 0.68340 -0.14500
H 	H 	0.11380 0.70870 0.66540 0.07500
C 	C 	0.15540 0.82470 0.40730 -0.13200
H 	H 	0.11640 0.79570 0.38630 0.07900
C 	C 	0.13350 0.05470 0.18500 -0.13600
H 	H 	0.09530 0.08670 0.16850 0.08200
C 	C 	0.24100 0.95640 0.23690 0.06200
H 	H 	0.27640 0.92050 0.25440 -0.01300
C 	C 	0.16730 0.04610 0.24410 0.07800
H 	H 	0.15140 0.07480 0.26680 -0.01700
C 	C 	0.18570 0.86860 0.37930 0.07400
H 	H 	0.16510 0.87020 0.33910 -0.00200
N 	N 	0.87140 0.21870 0.91750 -0.18800
N 	N 	0.22190 0.86520 0.91160 -0.21000
N 	N 	0.22070 0.99990 0.27080 -0.19400
N 	N 	0.07410 0.03900 0.97230 -0.13700
N 	N 	0.15600 0.98250 0.05910 -0.14100
N 	N 	0.07480 0.07270 0.06280 -0.13800
N 	N 	0.24380 0.90940 0.40720 -0.18400
N 	N 	0.24650 0.77660 0.77120 -0.19600
N 	N 	0.89200 0.56490 0.42170 -0.20100
N 	N 	0.18620 0.78710 0.55850 -0.13800
N 	N 	0.10370 0.70100 0.56410 -0.14900
N 	N 	0.09760 0.73940 0.47320 -0.14100
Ag	Ag	0.27378 0.79099 0.86815 0.51000
Ag	Ag	0.79535 0.49779 0.36757 0.51300
C 	C 	0.65370 0.28000 0.50100 0.10300
C 	C 	0.62790 0.49280 0.00190 0.09700
C 	C 	0.42230 0.10020 0.39220 0.05100
H 	H 	0.40210 0.09640 0.35220 -0.01900
C 	C 	0.62780 0.43830 0.91090 -0.14000
H 	H 	0.58520 0.45960 0.88960 0.08200
C 	C 	0.40310 0.68340 0.88890 0.07300
H 	H 	0.38500 0.68970 0.84910 -0.00500
C 	C 	0.48190 0.11300 0.50950 -0.12400
H 	H 	0.50080 0.11660 0.54950 0.07200
C 	C 	0.57480 0.19860 0.50670 0.09700
C 	C 	0.65940 0.44800 0.96940 0.06200
C 	C 	0.65850 0.51410 0.15120 0.05800
C 	C 	0.74340 0.36650 0.49650 -0.13000
H 	H 	0.76400 0.36740 0.53660 0.08500
C 	C 	0.77110 0.40680 0.46470 0.08000
H 	H 	0.81140 0.43400 0.48470 -0.01000
C 	C 	0.72280 0.41420 0.99880 -0.14300
H 	H 	0.74550 0.41870 0.03870 0.07600
C 	C 	0.54970 0.57730 0.00510 0.10500
C 	C 	0.68390 0.32460 0.46660 0.06400
C 	C 	0.46070 0.63840 0.91530 -0.12400
H 	H 	0.48090 0.61560 0.89350 0.08100
C 	C 	0.75130 0.37430 0.96830 0.06700
H 	H 	0.79380 0.35230 0.98860 -0.01700
C 	C 	0.62770 0.52460 0.08760 0.10100
C 	C 	0.45730 0.66600 0.00540 -0.12600
H 	H 	0.47510 0.66260 0.04540 0.08200
C 	C 	0.69030 0.25690 0.65190 0.05600
C 	C 	0.75240 0.29310 0.68090 -0.13400
H 	H 	0.77590 0.31200 0.66060 0.08100
C 	C 	0.65820 0.24820 0.58770 0.09600
C 	C 	0.66050 0.39630 0.88430 0.06400
H 	H 	0.63830 0.38920 0.84450 -0.01500
C 	C 	0.48210 0.14210 0.41830 -0.12400
H 	H 	0.50150 0.16490 0.39600 0.07500
C 	C 	0.48870 0.62740 0.97480 0.06300
C 	C 	0.51270 0.14980 0.47740 0.04700
C 	C 	0.71190 0.46240 0.17770 -0.13000
H 	H 	0.72800 0.43200 0.15590 0.06900
C 	C 	0.68690 0.24290 0.74250 0.07500
H 	H 	0.66410 0.22520 0.76370 -0.02400
C 	C 	0.39910 0.70930 0.97440 0.08000
H 	H 	0.37800 0.73360 0.99500 -0.00900
C 	C 	0.77900 0.30080 0.74000 0.07300
H 	H 	0.82140 0.32380 0.75920 -0.01100
C 	C 	0.42220 0.07120 0.47910 0.06200
H 	H 	0.40210 0.04620 0.50020 -0.00500
C 	C 	0.65620 0.23210 0.68340 -0.14500
H 	H 	0.61380 0.20870 0.66540 0.07500
C 	C 	0.65540 0.32470 0.40730 -0.13200
H 	H 	0.61640 0.29570 0.38630 0.07900
C 	C 	0.63350 0.55470 0.18500 -0.13600
H 	H 	0.59530 0.58670 0.16850 0.08200
C 	C 	0.74100 0.45640 0.23690 0.06200
H 	H 	0.77640 0.42050 0.25440 -0.01200
C 	C 	0.66730 0.54610 0.24410 0.07800
H 	H 	0.65140 0.57480 0.26680 -0.01700
C 	C 	0.68570 0.36860 0.37930 0.07400
H 	H 	0.66510 0.37020 0.33910 -0.00200
N 	N 	0.37140 0.71870 0.91750 -0.18900
N 	N 	0.72190 0.36520 0.91160 -0.21000
N 	N 	0.72070 0.49990 0.27080 -0.19400
N 	N 	0.57410 0.53900 0.97230 -0.13800
N 	N 	0.65600 0.48250 0.05910 -0.14100
N 	N 	0.57480 0.57270 0.06280 -0.13800
N 	N 	0.74380 0.40940 0.40720 -0.18400
N 	N 	0.74650 0.27660 0.77120 -0.19600
N 	N 	0.39200 0.06490 0.42170 -0.20100
N 	N 	0.68620 0.28710 0.55850 -0.13800
N 	N 	0.60370 0.20100 0.56410 -0.14900
N 	N 	0.59760 0.23940 0.47320 -0.14100
