data_crystal

_cell_length_a 15.72110
_cell_length_b 15.72110
_cell_length_c 15.72110
_cell_angle_alpha 70.10620
_cell_angle_beta  71.37060
_cell_angle_gamma 109.89400

_symmetry_space_group_name_	'P 1'
_symmetry_space_group_name_H-M	'P 1'

loop_
_symmetry_equiv_pos_as_xyz
  x,y,z

loop_
_atom_site_label
_atom_site_type_symbol
_atom_site_fract_x
_atom_site_fract_y
_atom_site_fract_z
_atom_site_charge
Cu	Cu	0.90079 0.04940 0.53577 0.88600
Cu	Cu	0.96423 0.56344 0.58517 0.88700
Cu	Cu	0.35139 0.93656 0.59921 0.88700
Cu	Cu	0.91483 0.45060 0.14861 0.88600
Cu	Cu	0.08517 0.54940 0.85139 0.88600
Cu	Cu	0.64861 0.06344 0.40079 0.88700
Cu	Cu	0.03577 0.43656 0.41483 0.88700
Cu	Cu	0.09921 0.95060 0.46423 0.88600
H 	H 	0.71470 0.39440 0.11830 0.01600
H 	H 	0.38170 0.16700 0.51270 0.01600
H 	H 	0.98730 0.10560 0.67970 0.01200
H 	H 	0.61830 0.83300 0.48730 0.01600
H 	H 	0.27730 0.56550 0.05180 0.04700
H 	H 	0.21180 0.82910 0.22270 0.04800
H 	H 	0.01270 0.89440 0.32030 0.01200
H 	H 	0.82030 0.33300 0.78530 0.01500
H 	H 	0.44820 0.67090 0.61730 0.04800
H 	H 	0.28530 0.60560 0.88170 0.01600
H 	H 	0.11730 0.06550 0.71180 0.05000
H 	H 	0.72270 0.43450 0.94820 0.04700
H 	H 	0.88270 0.93450 0.28820 0.05000
H 	H 	0.17970 0.66700 0.21470 0.01500
H 	H 	0.55180 0.32910 0.38270 0.04800
H 	H 	0.78820 0.17090 0.77730 0.04800
C 	C 	0.27990 0.72360 0.69030 0.31500
C 	C 	0.09230 0.05430 0.66820 -0.05900
C 	C 	0.19030 0.97020 0.58610 0.31100
C 	C 	0.55600 0.83040 0.52040 0.02500
C 	C 	0.60780 0.22540 0.38120 -0.04500
C 	C 	0.89340 0.27460 0.61760 -0.04500
C 	C 	0.44400 0.16960 0.47960 0.02500
C 	C 	0.77750 0.44570 0.96200 -0.05400
C 	C 	0.90770 0.94570 0.33180 -0.05900
C 	C 	0.85080 0.33040 0.72560 0.02500
C 	C 	0.97960 0.92360 0.35080 0.03100
C 	C 	0.11880 0.01100 0.60660 -0.04200
C 	C 	0.22250 0.55430 0.03800 -0.05400
C 	C 	0.10660 0.72540 0.38240 -0.04500
C 	C 	0.11760 0.51100 0.10780 -0.04600
C 	C 	0.16820 0.76050 0.27750 -0.05500
C 	C 	0.53800 0.26050 0.40770 -0.05500
C 	C 	0.91390 0.22360 0.55630 0.31500
C 	C 	0.08610 0.77640 0.44370 0.31500
C 	C 	0.46200 0.73950 0.59230 -0.05500
C 	C 	0.80970 0.02980 0.41390 0.31100
C 	C 	0.02040 0.07640 0.64920 0.03100
C 	C 	0.94370 0.52980 0.77990 0.31600
C 	C 	0.83180 0.23950 0.72250 -0.05500
C 	C 	0.22560 0.57640 0.94400 0.02400
C 	C 	0.77440 0.42360 0.05600 0.02400
C 	C 	0.88240 0.48900 0.89220 -0.04600
C 	C 	0.72010 0.27640 0.30970 0.31500
C 	C 	0.88120 0.98900 0.39340 -0.04200
C 	C 	0.05630 0.47020 0.22010 0.31600
C 	C 	0.39220 0.77460 0.61880 -0.04500
C 	C 	0.14920 0.66960 0.27440 0.02500
N 	N 	0.12940 0.54960 0.95520 -0.19500
N 	N 	0.55630 0.11900 0.43490 -0.19200
N 	N 	0.05390 0.61900 0.43730 -0.19200
N 	N 	0.00480 0.04960 0.57980 -0.19500
N 	N 	0.93730 0.49120 0.94370 -0.19200
N 	N 	0.54480 0.91540 0.50480 -0.19500
N 	N 	0.06510 0.00880 0.55390 -0.19200
N 	N 	0.99520 0.95040 0.42020 -0.19500
N 	N 	0.87060 0.45040 0.04480 -0.19500
N 	N 	0.07980 0.58460 0.37060 -0.19500
N 	N 	0.06270 0.50880 0.05630 -0.19200
N 	N 	0.45520 0.08460 0.49520 -0.19500
N 	N 	0.93490 0.99120 0.44610 -0.19200
N 	N 	0.94610 0.38100 0.56270 -0.19200
N 	N 	0.92020 0.41540 0.62940 -0.19500
N 	N 	0.44370 0.88100 0.56510 -0.19200
O 	O 	0.24227 0.97170 0.63253 -0.39800
O 	O 	0.80446 0.05990 0.47864 -0.40400
O 	O 	0.10423 0.47170 0.27057 -0.39800
O 	O 	0.75773 0.02830 0.36747 -0.39800
O 	O 	0.02136 0.71690 0.53854 -0.40500
O 	O 	0.19554 0.94010 0.52136 -0.40400
O 	O 	0.96146 0.44010 0.25544 -0.40500
O 	O 	0.13253 0.87480 0.39577 -0.39800
O 	O 	0.24456 0.78310 0.69554 -0.40500
O 	O 	0.03854 0.55990 0.74456 -0.40500
O 	O 	0.75544 0.21690 0.30446 -0.40500
O 	O 	0.97864 0.28310 0.46146 -0.40500
O 	O 	0.77057 0.37480 0.25773 -0.39800
O 	O 	0.22943 0.62520 0.74227 -0.39800
O 	O 	0.89577 0.52830 0.72943 -0.39800
O 	O 	0.86747 0.12520 0.60423 -0.39800
