data_crystal

_cell_length_a 30.88000
_cell_length_b 30.88000
_cell_length_c 33.78100
_cell_angle_alpha 90.00000
_cell_angle_beta  90.00000
_cell_angle_gamma 90.00000

_symmetry_space_group_name_	'P 1'
_symmetry_space_group_name_H-M	'P 1'

loop_
_symmetry_equiv_pos_as_xyz
  x,y,z

loop_
_atom_site_label
_atom_site_type_symbol
_atom_site_fract_x
_atom_site_fract_y
_atom_site_fract_z
_atom_site_charge
Zn	Zn	0.29172 0.15594 0.21571 1.17300
Zn	Zn	0.47942 0.18601 0.22450 1.17000
Zn	Zn	0.38369 0.24752 0.08733 1.19100
N 	N 	0.34730 0.16940 0.24400 -0.27200
N 	N 	0.42050 0.17870 0.25040 -0.26300
C 	C 	0.38990 0.16460 0.22660 -0.00500
C 	C 	0.35810 0.19040 0.28020 0.03600
C 	C 	0.32740 0.20570 0.31230 -0.04600
C 	C 	0.42100 0.21570 0.31920 -0.04100
C 	C 	0.40350 0.19670 0.28860 0.01800
N 	N 	0.47130 0.22070 0.17420 -0.27700
N 	N 	0.43420 0.24630 0.12360 -0.26600
C 	C 	0.44010 0.21420 0.14900 0.03600
C 	C 	0.48870 0.26100 0.16730 0.04700
C 	C 	0.52070 0.28570 0.18340 -0.05700
C 	C 	0.52690 0.33230 0.16900 0.01000
C 	C 	0.49900 0.35500 0.13800 0.00400
C 	C 	0.47640 0.32620 0.12030 -0.02900
C 	C 	0.46610 0.28380 0.13450 0.01200
C 	C 	0.56000 0.35880 0.18730 -0.00700
C 	C 	0.51640 0.39830 0.12140 -0.00500
N 	N 	0.34140 0.20430 0.11180 -0.25500
N 	N 	0.30510 0.17060 0.15930 -0.28100
C 	C 	0.32940 0.20570 0.14940 0.03100
C 	C 	0.33870 0.16000 0.09580 0.02100
C 	C 	0.34780 0.14430 0.06000 -0.05500
C 	C 	0.33200 0.09900 0.04900 0.00100
C 	C 	0.30980 0.08040 0.08490 -0.00200
C 	C 	0.29550 0.09830 0.12050 -0.03600
C 	C 	0.31240 0.13910 0.12680 0.00200
C 	C 	0.29980 0.17430 0.09160 -0.00200
C 	C 	0.28470 0.16970 0.05310 -0.01400
C 	C 	0.24700 0.14580 0.04570 -0.00100
C 	C 	0.22530 0.12640 0.07700 0.00800
C 	C 	0.24040 0.13100 0.11500 -0.03800
C 	C 	0.27900 0.16600 0.13000 0.04600
N 	N 	0.24100 0.18850 0.23520 -0.27300
C 	C 	0.21770 0.18180 0.27290 0.03100
C 	C 	0.22310 0.15730 0.30580 -0.05200
C 	C 	0.19810 0.16410 0.33630 0.01300
C 	C 	0.20480 0.13760 0.37200 -0.01000
N 	N 	0.40480 0.23130 0.03300 -0.27200
C 	C 	0.44000 0.20780 0.02350 0.07300
C 	C 	0.47200 0.19060 0.04100 -0.06200
C 	C 	0.50050 0.16800 0.02200 0.01400
C 	C 	0.53700 0.14590 0.04330 -0.01400
C 	C 	0.46400 0.23620 0.02900 -0.03800
N 	N 	0.49770 0.12600 0.21350 -0.28600
N 	N 	0.50370 0.05320 0.22070 -0.30500
C 	C 	0.48510 0.08740 0.23150 0.04200
C 	C 	0.53020 0.11330 0.18880 0.01800
C 	C 	0.55630 0.13530 0.16240 -0.06300
C 	C 	0.58570 0.11330 0.14200 0.00400
C 	C 	0.59000 0.06600 0.14420 0.01100
C 	C 	0.55920 0.04610 0.17420 -0.09700
C 	C 	0.53180 0.06690 0.19370 0.07400
C 	C 	0.62360 0.04100 0.11980 -0.02500
N 	N 	0.35260 0.29970 0.07190 -0.26800
C 	C 	0.36620 0.33200 0.04500 -0.05100
C 	C 	0.40330 0.33640 0.02090 -0.00600
C 	C 	0.44800 0.38020 0.97240 -0.00800
N 	N 	0.35840 0.30880 0.10680 -0.27400
C 	C 	0.35240 0.31940 0.14610 0.02400
C 	C 	0.37170 0.31170 0.18640 -0.04300
C 	C 	0.35440 0.31370 0.21820 0.00000
C 	C 	0.37350 0.30540 0.25600 -0.02200
N 	N 	0.52680 0.20990 0.25880 -0.27800
N 	N 	0.59370 0.22090 0.27640 -0.28900
C 	C 	0.56620 0.19470 0.25950 0.04500
C 	C 	0.52730 0.25080 0.27400 0.02400
C 	C 	0.57000 0.25460 0.28660 0.06500
C 	C 	0.58700 0.29520 0.29520 -0.05700
C 	C 	0.56140 0.33200 0.29120 0.01400
C 	C 	0.51870 0.32810 0.27860 0.01000
C 	C 	0.50170 0.28750 0.27000 -0.05000
C 	C 	0.57200 0.38180 0.29910 -0.00500
C 	C 	0.48980 0.37170 0.27400 -0.00400
C 	C 	0.59200 0.29000 0.33050 -0.01800
C 	C 	0.53100 0.32010 0.33060 -0.00300
C 	C 	0.49010 0.28070 0.30410 -0.00500
Zn	Zn	0.70828 0.84406 0.21571 1.17400
Zn	Zn	0.52058 0.81399 0.22450 1.17100
Zn	Zn	0.61631 0.75248 0.08733 1.19200
N 	N 	0.65270 0.83060 0.24400 -0.27000
N 	N 	0.57950 0.82130 0.25040 -0.26200
C 	C 	0.61010 0.83540 0.22660 -0.00300
C 	C 	0.64190 0.80960 0.28020 0.03700
C 	C 	0.67260 0.79430 0.31230 -0.04500
C 	C 	0.57900 0.78430 0.31920 -0.04000
C 	C 	0.59650 0.80330 0.28860 0.01900
N 	N 	0.52870 0.77930 0.17420 -0.27600
N 	N 	0.56580 0.75370 0.12360 -0.26500
C 	C 	0.55990 0.78580 0.14900 0.03700
C 	C 	0.51130 0.73900 0.16730 0.04800
C 	C 	0.47930 0.71430 0.18340 -0.05600
C 	C 	0.47310 0.66770 0.16900 0.01100
C 	C 	0.50100 0.64500 0.13800 0.00500
C 	C 	0.52360 0.67380 0.12030 -0.02800
C 	C 	0.53390 0.71620 0.13450 0.01300
C 	C 	0.44000 0.64120 0.18730 -0.00600
C 	C 	0.48360 0.60170 0.12140 -0.00400
N 	N 	0.65860 0.79570 0.11180 -0.25400
N 	N 	0.69490 0.82940 0.15930 -0.28000
C 	C 	0.67060 0.79430 0.14940 0.03200
C 	C 	0.66130 0.84000 0.09580 0.02300
C 	C 	0.65220 0.85570 0.06000 -0.05400
C 	C 	0.66800 0.90100 0.04900 0.00400
C 	C 	0.69020 0.91960 0.08490 0.00200
C 	C 	0.70450 0.90170 0.12050 -0.03500
C 	C 	0.68760 0.86090 0.12680 0.00200
C 	C 	0.70020 0.82570 0.09160 -0.00200
C 	C 	0.71530 0.83030 0.05310 -0.01400
C 	C 	0.75300 0.85420 0.04570 -0.00200
C 	C 	0.77470 0.87360 0.07700 0.01000
C 	C 	0.75960 0.86900 0.11500 -0.03800
C 	C 	0.72100 0.83400 0.13000 0.04600
N 	N 	0.75900 0.81150 0.23520 -0.27300
C 	C 	0.78230 0.81820 0.27290 0.03100
C 	C 	0.77690 0.84270 0.30580 -0.05200
C 	C 	0.80190 0.83590 0.33630 0.01300
C 	C 	0.79520 0.86240 0.37200 -0.00800
N 	N 	0.59520 0.76870 0.03300 -0.27200
C 	C 	0.56000 0.79220 0.02350 0.07400
C 	C 	0.52800 0.80940 0.04100 -0.06100
C 	C 	0.49950 0.83200 0.02200 0.01400
C 	C 	0.46300 0.85410 0.04330 -0.01200
C 	C 	0.53600 0.76380 0.02900 -0.03900
N 	N 	0.50230 0.87400 0.21350 -0.28600
N 	N 	0.49630 0.94680 0.22070 -0.30200
C 	C 	0.51490 0.91260 0.23150 0.04400
C 	C 	0.46980 0.88670 0.18880 0.01900
C 	C 	0.44370 0.86470 0.16240 -0.06400
C 	C 	0.41430 0.88670 0.14200 0.00500
C 	C 	0.41000 0.93400 0.14420 0.01000
C 	C 	0.44080 0.95390 0.17420 -0.09100
C 	C 	0.46820 0.93310 0.19370 0.07300
C 	C 	0.37640 0.95900 0.11980 -0.01800
N 	N 	0.64740 0.70030 0.07190 -0.26800
C 	C 	0.63380 0.66800 0.04500 -0.05100
C 	C 	0.59670 0.66360 0.02090 -0.00600
C 	C 	0.55200 0.61980 0.97240 -0.00800
N 	N 	0.64160 0.69120 0.10680 -0.27400
C 	C 	0.64760 0.68060 0.14610 0.02400
C 	C 	0.62830 0.68830 0.18640 -0.04300
C 	C 	0.64560 0.68630 0.21820 0.00000
C 	C 	0.62650 0.69460 0.25600 -0.02200
N 	N 	0.47320 0.79010 0.25880 -0.27800
N 	N 	0.40630 0.77910 0.27640 -0.28900
C 	C 	0.43380 0.80530 0.25950 0.04500
C 	C 	0.47270 0.74920 0.27400 0.02400
C 	C 	0.43000 0.74540 0.28660 0.06500
C 	C 	0.41300 0.70480 0.29520 -0.05700
C 	C 	0.43860 0.66800 0.29120 0.01400
C 	C 	0.48130 0.67190 0.27860 0.01000
C 	C 	0.49830 0.71250 0.27000 -0.05000
C 	C 	0.42800 0.61820 0.29910 -0.00500
C 	C 	0.51020 0.62830 0.27400 -0.00400
C 	C 	0.40800 0.71000 0.33050 -0.01800
C 	C 	0.46900 0.67990 0.33060 -0.00300
C 	C 	0.50990 0.71930 0.30410 -0.00500
Zn	Zn	0.34406 0.79172 0.71571 1.17400
Zn	Zn	0.31399 0.97942 0.72450 1.17200
Zn	Zn	0.25248 0.88369 0.58733 1.19200
N 	N 	0.33060 0.84730 0.74400 -0.27000
N 	N 	0.32130 0.92050 0.75040 -0.26100
C 	C 	0.33540 0.88990 0.72660 -0.00400
C 	C 	0.30960 0.85810 0.78020 0.03700
C 	C 	0.29430 0.82740 0.81230 -0.04500
C 	C 	0.28430 0.92100 0.81920 -0.03800
C 	C 	0.30330 0.90350 0.78860 0.01900
N 	N 	0.27930 0.97130 0.67420 -0.27600
N 	N 	0.25370 0.93420 0.62360 -0.26500
C 	C 	0.28580 0.94010 0.64900 0.03800
C 	C 	0.23900 0.98870 0.66730 0.05700
C 	C 	0.21430 0.02070 0.68340 -0.06300
C 	C 	0.16770 0.02690 0.66900 0.00400
C 	C 	0.14500 0.99900 0.63800 0.01900
C 	C 	0.17380 0.97640 0.62030 -0.03000
C 	C 	0.21620 0.96610 0.63450 0.01400
C 	C 	0.14120 0.06000 0.68730 -0.00600
C 	C 	0.10170 0.01640 0.62140 -0.01500
N 	N 	0.29570 0.84140 0.61180 -0.25400
N 	N 	0.32940 0.80510 0.65930 -0.28000
C 	C 	0.29430 0.82940 0.64940 0.03200
C 	C 	0.34000 0.83870 0.59580 0.02200
C 	C 	0.35570 0.84780 0.56000 -0.05400
C 	C 	0.40100 0.83200 0.54900 0.00400
C 	C 	0.41960 0.80980 0.58490 0.00100
C 	C 	0.40170 0.79550 0.62050 -0.03500
C 	C 	0.36090 0.81240 0.62680 0.00200
C 	C 	0.32570 0.79980 0.59160 -0.00200
C 	C 	0.33030 0.78470 0.55310 -0.01300
C 	C 	0.35420 0.74700 0.54570 -0.00200
C 	C 	0.37360 0.72530 0.57700 0.00900
C 	C 	0.36900 0.74040 0.61500 -0.03800
C 	C 	0.33400 0.77900 0.63000 0.04600
N 	N 	0.31150 0.74100 0.73520 -0.27300
C 	C 	0.31820 0.71770 0.77290 0.03100
C 	C 	0.34270 0.72310 0.80580 -0.05200
C 	C 	0.33590 0.69810 0.83630 0.01300
C 	C 	0.36240 0.70480 0.87200 -0.00900
N 	N 	0.26870 0.90480 0.53300 -0.27200
C 	C 	0.29220 0.94000 0.52350 0.07200
C 	C 	0.30940 0.97200 0.54100 -0.05100
C 	C 	0.33200 0.00050 0.52200 0.00600
C 	C 	0.35410 0.03700 0.54330 -0.01400
C 	C 	0.26380 0.96400 0.52900 -0.03700
N 	N 	0.37400 0.99770 0.71350 -0.28200
N 	N 	0.44680 0.00370 0.72070 -0.31000
C 	C 	0.41260 0.98510 0.73150 0.05100
C 	C 	0.38670 0.03020 0.68880 0.01100
C 	C 	0.36470 0.05630 0.66240 -0.06300
C 	C 	0.38670 0.08570 0.64200 0.00400
C 	C 	0.43400 0.09000 0.64420 0.01100
C 	C 	0.45390 0.05920 0.67420 -0.09600
C 	C 	0.43310 0.03180 0.69370 0.07400
C 	C 	0.45900 0.12360 0.61980 -0.02200
N 	N 	0.20030 0.85260 0.57190 -0.26700
C 	C 	0.16800 0.86620 0.54500 -0.05100
C 	C 	0.16360 0.90330 0.52090 -0.00500
C 	C 	0.11980 0.94800 0.47240 -0.00700
N 	N 	0.19120 0.85840 0.60680 -0.27400
C 	C 	0.18060 0.85240 0.64610 0.02400
C 	C 	0.18830 0.87170 0.68640 -0.04200
C 	C 	0.18630 0.85440 0.71820 0.00000
C 	C 	0.19460 0.87350 0.75600 -0.02100
N 	N 	0.29010 0.02680 0.75880 -0.28000
N 	N 	0.27910 0.09370 0.77640 -0.28900
C 	C 	0.30530 0.06620 0.75950 0.04400
C 	C 	0.24920 0.02730 0.77400 0.02300
C 	C 	0.24540 0.07000 0.78660 0.06500
C 	C 	0.20480 0.08700 0.79520 -0.05800
C 	C 	0.16800 0.06140 0.79120 0.01700
C 	C 	0.17190 0.01870 0.77860 0.00500
C 	C 	0.21250 0.00170 0.77000 -0.06200
C 	C 	0.11820 0.07200 0.79910 -0.00800
C 	C 	0.12830 0.98980 0.77400 0.00300
C 	C 	0.21000 0.09200 0.83050 -0.01800
C 	C 	0.17990 0.03100 0.83060 -0.00900
C 	C 	0.21930 0.99010 0.80410 0.01000
Zn	Zn	0.65594 0.20828 0.71571 1.17400
Zn	Zn	0.68601 0.02058 0.72450 1.16900
Zn	Zn	0.74752 0.11631 0.58733 1.19200
N 	N 	0.66940 0.15270 0.74400 -0.27000
N 	N 	0.67870 0.07950 0.75040 -0.26200
C 	C 	0.66460 0.11010 0.72660 -0.00400
C 	C 	0.69040 0.14190 0.78020 0.03700
C 	C 	0.70570 0.17260 0.81230 -0.04500
C 	C 	0.71570 0.07900 0.81920 -0.04100
C 	C 	0.69670 0.09650 0.78860 0.01900
N 	N 	0.72070 0.02870 0.67420 -0.27600
N 	N 	0.74630 0.06580 0.62360 -0.26500
C 	C 	0.71420 0.05990 0.64900 0.03600
C 	C 	0.76100 0.01130 0.66730 0.03900
C 	C 	0.78570 0.97930 0.68340 -0.04900
C 	C 	0.83230 0.97310 0.66900 0.01900
C 	C 	0.85500 0.00100 0.63800 -0.01000
C 	C 	0.82620 0.02360 0.62030 -0.02500
C 	C 	0.78380 0.03390 0.63450 0.01200
C 	C 	0.85880 0.94000 0.68730 -0.00600
C 	C 	0.89830 0.98360 0.62140 0.00900
N 	N 	0.70430 0.15860 0.61180 -0.25400
N 	N 	0.67060 0.19490 0.65930 -0.28000
C 	C 	0.70570 0.17060 0.64940 0.03200
C 	C 	0.66000 0.16130 0.59580 0.02200
C 	C 	0.64430 0.15220 0.56000 -0.05500
C 	C 	0.59900 0.16800 0.54900 0.00300
C 	C 	0.58040 0.19020 0.58490 0.00000
C 	C 	0.59830 0.20450 0.62050 -0.03600
C 	C 	0.63910 0.18760 0.62680 0.00200
C 	C 	0.67430 0.20020 0.59160 -0.00200
C 	C 	0.66970 0.21530 0.55310 -0.01300
C 	C 	0.64580 0.25300 0.54570 -0.00200
C 	C 	0.62640 0.27470 0.57700 0.00900
C 	C 	0.63100 0.25960 0.61500 -0.03800
C 	C 	0.66600 0.22100 0.63000 0.04600
N 	N 	0.68850 0.25900 0.73520 -0.27300
C 	C 	0.68180 0.28230 0.77290 0.03100
C 	C 	0.65730 0.27690 0.80580 -0.05200
C 	C 	0.66410 0.30190 0.83630 0.01300
C 	C 	0.63760 0.29520 0.87200 -0.00900
N 	N 	0.73130 0.09520 0.53300 -0.27300
C 	C 	0.70780 0.06000 0.52350 0.07700
C 	C 	0.69060 0.02800 0.54100 -0.07300
C 	C 	0.66800 0.99950 0.52200 0.02400
C 	C 	0.64590 0.96300 0.54330 -0.01200
C 	C 	0.73620 0.03600 0.52900 -0.04000
N 	N 	0.62600 0.00230 0.71350 -0.29000
N 	N 	0.55320 0.99630 0.72070 -0.29700
C 	C 	0.58740 0.01490 0.73150 0.03500
C 	C 	0.61330 0.96980 0.68880 0.02600
C 	C 	0.63530 0.94370 0.66240 -0.06400
C 	C 	0.61330 0.91430 0.64200 0.00600
C 	C 	0.56600 0.91000 0.64420 0.01100
C 	C 	0.54610 0.94080 0.67420 -0.09200
C 	C 	0.56690 0.96820 0.69370 0.07200
C 	C 	0.54100 0.87640 0.61980 -0.02000
N 	N 	0.79970 0.14740 0.57190 -0.26800
C 	C 	0.83200 0.13380 0.54500 -0.05000
C 	C 	0.83640 0.09670 0.52090 -0.00600
C 	C 	0.88020 0.05200 0.47240 -0.01000
N 	N 	0.80880 0.14160 0.60680 -0.27400
C 	C 	0.81940 0.14760 0.64610 0.02400
C 	C 	0.81170 0.12830 0.68640 -0.04300
C 	C 	0.81370 0.14560 0.71820 0.00100
C 	C 	0.80540 0.12650 0.75600 -0.02200
N 	N 	0.70990 0.97320 0.75880 -0.27500
N 	N 	0.72090 0.90630 0.77640 -0.28900
C 	C 	0.69470 0.93380 0.75950 0.04700
C 	C 	0.75080 0.97270 0.77400 0.02500
C 	C 	0.75460 0.93000 0.78660 0.06500
C 	C 	0.79520 0.91300 0.79520 -0.05700
C 	C 	0.83200 0.93860 0.79120 0.01200
C 	C 	0.82810 0.98130 0.77860 0.01400
C 	C 	0.78750 0.99830 0.77000 -0.03700
C 	C 	0.88180 0.92800 0.79910 -0.00100
C 	C 	0.87170 0.01020 0.77400 -0.01200
C 	C 	0.79000 0.90800 0.83050 -0.01700
C 	C 	0.82010 0.96900 0.83060 0.00400
C 	C 	0.78070 0.00990 0.80410 -0.02100
Zn	Zn	0.20828 0.65594 0.28429 1.17400
Zn	Zn	0.02058 0.68601 0.27550 1.16900
Zn	Zn	0.11631 0.74752 0.41267 1.19200
N 	N 	0.15270 0.66940 0.25600 -0.27000
N 	N 	0.07950 0.67870 0.24960 -0.26200
C 	C 	0.11010 0.66460 0.27340 -0.00400
C 	C 	0.14190 0.69040 0.21980 0.03700
C 	C 	0.17260 0.70570 0.18770 -0.04500
C 	C 	0.07900 0.71570 0.18080 -0.04100
C 	C 	0.09650 0.69670 0.21140 0.01900
N 	N 	0.02870 0.72070 0.32580 -0.27600
N 	N 	0.06580 0.74630 0.37640 -0.26500
C 	C 	0.05990 0.71420 0.35100 0.03600
C 	C 	0.01130 0.76100 0.33270 0.03900
C 	C 	0.97930 0.78570 0.31660 -0.04900
C 	C 	0.97310 0.83230 0.33100 0.01900
C 	C 	0.00100 0.85500 0.36200 -0.01000
C 	C 	0.02360 0.82620 0.37970 -0.02500
C 	C 	0.03390 0.78380 0.36550 0.01200
C 	C 	0.94000 0.85880 0.31270 -0.00600
C 	C 	0.98360 0.89830 0.37860 0.00900
N 	N 	0.15860 0.70430 0.38820 -0.25400
N 	N 	0.19490 0.67060 0.34070 -0.28000
C 	C 	0.17060 0.70570 0.35060 0.03200
C 	C 	0.16130 0.66000 0.40420 0.02200
C 	C 	0.15220 0.64430 0.44000 -0.05500
C 	C 	0.16800 0.59900 0.45100 0.00300
C 	C 	0.19020 0.58040 0.41510 0.00000
C 	C 	0.20450 0.59830 0.37950 -0.03600
C 	C 	0.18760 0.63910 0.37320 0.00200
C 	C 	0.20020 0.67430 0.40840 -0.00200
C 	C 	0.21530 0.66970 0.44690 -0.01300
C 	C 	0.25300 0.64580 0.45430 -0.00200
C 	C 	0.27470 0.62640 0.42300 0.00900
C 	C 	0.25960 0.63100 0.38500 -0.03800
C 	C 	0.22100 0.66600 0.37000 0.04600
N 	N 	0.25900 0.68850 0.26480 -0.27300
C 	C 	0.28230 0.68180 0.22710 0.03100
C 	C 	0.27690 0.65730 0.19420 -0.05200
C 	C 	0.30190 0.66410 0.16370 0.01300
C 	C 	0.29520 0.63760 0.12800 -0.00900
N 	N 	0.09520 0.73130 0.46700 -0.27300
C 	C 	0.06000 0.70780 0.47650 0.07700
C 	C 	0.02800 0.69060 0.45900 -0.07300
C 	C 	0.99950 0.66800 0.47800 0.02400
C 	C 	0.96300 0.64590 0.45670 -0.01200
C 	C 	0.03600 0.73620 0.47100 -0.04000
N 	N 	0.00230 0.62600 0.28650 -0.29000
N 	N 	0.99630 0.55320 0.27930 -0.29700
C 	C 	0.01490 0.58740 0.26850 0.03500
C 	C 	0.96980 0.61330 0.31120 0.02600
C 	C 	0.94370 0.63530 0.33760 -0.06400
C 	C 	0.91430 0.61330 0.35800 0.00600
C 	C 	0.91000 0.56600 0.35580 0.01100
C 	C 	0.94080 0.54610 0.32580 -0.09200
C 	C 	0.96820 0.56690 0.30630 0.07200
C 	C 	0.87640 0.54100 0.38020 -0.02000
N 	N 	0.14740 0.79970 0.42810 -0.26800
C 	C 	0.13380 0.83200 0.45500 -0.05000
C 	C 	0.09670 0.83640 0.47910 -0.00600
C 	C 	0.05200 0.88020 0.52760 -0.01000
N 	N 	0.14160 0.80880 0.39320 -0.27400
C 	C 	0.14760 0.81940 0.35390 0.02400
C 	C 	0.12830 0.81170 0.31360 -0.04300
C 	C 	0.14560 0.81370 0.28180 0.00100
C 	C 	0.12650 0.80540 0.24400 -0.02200
N 	N 	0.97320 0.70990 0.24120 -0.27500
N 	N 	0.90630 0.72090 0.22360 -0.28900
C 	C 	0.93380 0.69470 0.24050 0.04700
C 	C 	0.97270 0.75080 0.22600 0.02500
C 	C 	0.93000 0.75460 0.21340 0.06500
C 	C 	0.91300 0.79520 0.20480 -0.05700
C 	C 	0.93860 0.83200 0.20880 0.01200
C 	C 	0.98130 0.82810 0.22140 0.01400
C 	C 	0.99830 0.78750 0.23000 -0.03700
C 	C 	0.92800 0.88180 0.20090 -0.00100
C 	C 	0.01020 0.87170 0.22600 -0.01200
C 	C 	0.90800 0.79000 0.16950 -0.01700
C 	C 	0.96900 0.82010 0.16940 0.00400
C 	C 	0.00990 0.78070 0.19590 -0.02100
Zn	Zn	0.79172 0.34406 0.28429 1.17400
Zn	Zn	0.97942 0.31399 0.27550 1.17200
Zn	Zn	0.88369 0.25248 0.41267 1.19200
N 	N 	0.84730 0.33060 0.25600 -0.27000
N 	N 	0.92050 0.32130 0.24960 -0.26100
C 	C 	0.88990 0.33540 0.27340 -0.00400
C 	C 	0.85810 0.30960 0.21980 0.03700
C 	C 	0.82740 0.29430 0.18770 -0.04500
C 	C 	0.92100 0.28430 0.18080 -0.03900
C 	C 	0.90350 0.30330 0.21140 0.01900
N 	N 	0.97130 0.27930 0.32580 -0.27600
N 	N 	0.93420 0.25370 0.37640 -0.26500
C 	C 	0.94010 0.28580 0.35100 0.03800
C 	C 	0.98870 0.23900 0.33270 0.05700
C 	C 	0.02070 0.21430 0.31660 -0.06300
C 	C 	0.02690 0.16770 0.33100 0.00400
C 	C 	0.99900 0.14500 0.36200 0.01900
C 	C 	0.97640 0.17380 0.37970 -0.03000
C 	C 	0.96610 0.21620 0.36550 0.01400
C 	C 	0.06000 0.14120 0.31270 -0.00600
C 	C 	0.01640 0.10170 0.37860 -0.01500
N 	N 	0.84140 0.29570 0.38820 -0.25400
N 	N 	0.80510 0.32940 0.34070 -0.28000
C 	C 	0.82940 0.29430 0.35060 0.03200
C 	C 	0.83870 0.34000 0.40420 0.02200
C 	C 	0.84780 0.35570 0.44000 -0.05400
C 	C 	0.83200 0.40100 0.45100 0.00400
C 	C 	0.80980 0.41960 0.41510 0.00100
C 	C 	0.79550 0.40170 0.37950 -0.03500
C 	C 	0.81240 0.36090 0.37320 0.00200
C 	C 	0.79980 0.32570 0.40840 -0.00200
C 	C 	0.78470 0.33030 0.44690 -0.01300
C 	C 	0.74700 0.35420 0.45430 -0.00200
C 	C 	0.72530 0.37360 0.42300 0.00900
C 	C 	0.74040 0.36900 0.38500 -0.03800
C 	C 	0.77900 0.33400 0.37000 0.04600
N 	N 	0.74100 0.31150 0.26480 -0.27300
C 	C 	0.71770 0.31820 0.22710 0.03100
C 	C 	0.72310 0.34270 0.19420 -0.05200
C 	C 	0.69810 0.33590 0.16370 0.01300
C 	C 	0.70480 0.36240 0.12800 -0.00900
N 	N 	0.90480 0.26870 0.46700 -0.27200
C 	C 	0.94000 0.29220 0.47650 0.07200
C 	C 	0.97200 0.30940 0.45900 -0.05100
C 	C 	0.00050 0.33200 0.47800 0.00600
C 	C 	0.03700 0.35410 0.45670 -0.01400
C 	C 	0.96400 0.26380 0.47100 -0.03700
N 	N 	0.99770 0.37400 0.28650 -0.28200
N 	N 	0.00370 0.44680 0.27930 -0.31000
C 	C 	0.98510 0.41260 0.26850 0.05100
C 	C 	0.03020 0.38670 0.31120 0.01100
C 	C 	0.05630 0.36470 0.33760 -0.06300
C 	C 	0.08570 0.38670 0.35800 0.00400
C 	C 	0.09000 0.43400 0.35580 0.01100
C 	C 	0.05920 0.45390 0.32580 -0.09600
C 	C 	0.03180 0.43310 0.30630 0.07400
C 	C 	0.12360 0.45900 0.38020 -0.02200
N 	N 	0.85260 0.20030 0.42810 -0.26700
C 	C 	0.86620 0.16800 0.45500 -0.05100
C 	C 	0.90330 0.16360 0.47910 -0.00500
C 	C 	0.94800 0.11980 0.52760 -0.00700
N 	N 	0.85840 0.19120 0.39320 -0.27400
C 	C 	0.85240 0.18060 0.35390 0.02400
C 	C 	0.87170 0.18830 0.31360 -0.04200
C 	C 	0.85440 0.18630 0.28180 0.00000
C 	C 	0.87350 0.19460 0.24400 -0.02100
N 	N 	0.02680 0.29010 0.24120 -0.28000
N 	N 	0.09370 0.27910 0.22360 -0.28900
C 	C 	0.06620 0.30530 0.24050 0.04400
C 	C 	0.02730 0.24920 0.22600 0.02300
C 	C 	0.07000 0.24540 0.21340 0.06500
C 	C 	0.08700 0.20480 0.20480 -0.05800
C 	C 	0.06140 0.16800 0.20880 0.01700
C 	C 	0.01870 0.17190 0.22140 0.00600
C 	C 	0.00170 0.21250 0.23000 -0.06200
C 	C 	0.07200 0.11820 0.20090 -0.00800
C 	C 	0.98980 0.12830 0.22600 0.00300
C 	C 	0.09200 0.21000 0.16950 -0.01800
C 	C 	0.03100 0.17990 0.16940 -0.00900
C 	C 	0.99010 0.21930 0.19590 0.01000
Zn	Zn	0.15594 0.29172 0.78429 1.17400
Zn	Zn	0.18601 0.47942 0.77550 1.17100
Zn	Zn	0.24752 0.38369 0.91267 1.19200
N 	N 	0.16940 0.34730 0.75600 -0.27100
N 	N 	0.17870 0.42050 0.74960 -0.26200
C 	C 	0.16460 0.38990 0.77340 -0.00400
C 	C 	0.19040 0.35810 0.71980 0.03700
C 	C 	0.20570 0.32740 0.68770 -0.04500
C 	C 	0.21570 0.42100 0.68080 -0.04000
C 	C 	0.19670 0.40350 0.71140 0.01900
N 	N 	0.22070 0.47130 0.82580 -0.27600
N 	N 	0.24630 0.43420 0.87640 -0.26500
C 	C 	0.21420 0.44010 0.85100 0.03700
C 	C 	0.26100 0.48870 0.83270 0.04800
C 	C 	0.28570 0.52070 0.81660 -0.05600
C 	C 	0.33230 0.52690 0.83100 0.01100
C 	C 	0.35500 0.49900 0.86200 0.00400
C 	C 	0.32620 0.47640 0.87970 -0.02800
C 	C 	0.28380 0.46610 0.86550 0.01300
C 	C 	0.35880 0.56000 0.81270 -0.00600
C 	C 	0.39830 0.51640 0.87860 -0.00400
N 	N 	0.20430 0.34140 0.88820 -0.25400
N 	N 	0.17060 0.30510 0.84070 -0.28000
C 	C 	0.20570 0.32940 0.85060 0.03200
C 	C 	0.16000 0.33870 0.90420 0.02200
C 	C 	0.14430 0.34780 0.94000 -0.05400
C 	C 	0.09900 0.33200 0.95100 0.00200
C 	C 	0.08040 0.30980 0.91510 -0.00100
C 	C 	0.09830 0.29550 0.87950 -0.03600
C 	C 	0.13910 0.31240 0.87320 0.00200
C 	C 	0.17430 0.29980 0.90840 -0.00200
C 	C 	0.16970 0.28470 0.94690 -0.01300
C 	C 	0.14580 0.24700 0.95430 -0.00100
C 	C 	0.12640 0.22530 0.92300 0.00800
C 	C 	0.13100 0.24040 0.88500 -0.03800
C 	C 	0.16600 0.27900 0.87000 0.04600
N 	N 	0.18850 0.24100 0.76480 -0.27300
C 	C 	0.18180 0.21770 0.72710 0.03100
C 	C 	0.15730 0.22310 0.69420 -0.05200
C 	C 	0.16410 0.19810 0.66370 0.01300
C 	C 	0.13760 0.20480 0.62800 -0.01000
N 	N 	0.23130 0.40480 0.96700 -0.27200
C 	C 	0.20780 0.44000 0.97650 0.07500
C 	C 	0.19060 0.47200 0.95900 -0.06300
C 	C 	0.16800 0.50050 0.97800 0.01600
C 	C 	0.14590 0.53700 0.95670 -0.01400
C 	C 	0.23620 0.46400 0.97100 -0.03800
N 	N 	0.12600 0.49770 0.78650 -0.28600
N 	N 	0.05320 0.50370 0.77930 -0.30500
C 	C 	0.08740 0.48510 0.76850 0.04200
C 	C 	0.11330 0.53020 0.81120 0.01800
C 	C 	0.13530 0.55630 0.83760 -0.06300
C 	C 	0.11330 0.58570 0.85800 0.00400
C 	C 	0.06600 0.59000 0.85580 0.01100
C 	C 	0.04610 0.55920 0.82580 -0.09700
C 	C 	0.06690 0.53180 0.80630 0.07400
C 	C 	0.04100 0.62360 0.88020 -0.02500
N 	N 	0.29970 0.35260 0.92810 -0.26700
C 	C 	0.33200 0.36620 0.95500 -0.05100
C 	C 	0.33640 0.40330 0.97910 -0.00500
C 	C 	0.38020 0.44800 0.02760 -0.00900
N 	N 	0.30880 0.35840 0.89320 -0.27400
C 	C 	0.31940 0.35240 0.85390 0.02400
C 	C 	0.31170 0.37170 0.81360 -0.04300
C 	C 	0.31370 0.35440 0.78180 0.00000
C 	C 	0.30540 0.37350 0.74400 -0.02200
N 	N 	0.20990 0.52680 0.74120 -0.27800
N 	N 	0.22090 0.59370 0.72360 -0.28900
C 	C 	0.19470 0.56620 0.74050 0.04500
C 	C 	0.25080 0.52730 0.72600 0.02400
C 	C 	0.25460 0.57000 0.71340 0.06500
C 	C 	0.29520 0.58700 0.70480 -0.05700
C 	C 	0.33200 0.56140 0.70880 0.01400
C 	C 	0.32810 0.51870 0.72140 0.01000
C 	C 	0.28750 0.50170 0.73000 -0.05000
C 	C 	0.38180 0.57200 0.70090 -0.00500
C 	C 	0.37170 0.48980 0.72600 -0.00400
C 	C 	0.29000 0.59200 0.66950 -0.01800
C 	C 	0.32010 0.53100 0.66940 -0.00300
C 	C 	0.28070 0.49010 0.69590 -0.00500
Zn	Zn	0.84406 0.70828 0.78429 1.17400
Zn	Zn	0.81399 0.52058 0.77550 1.17100
Zn	Zn	0.75248 0.61631 0.91267 1.19200
N 	N 	0.83060 0.65270 0.75600 -0.27000
N 	N 	0.82130 0.57950 0.74960 -0.26200
C 	C 	0.83540 0.61010 0.77340 -0.00300
C 	C 	0.80960 0.64190 0.71980 0.03700
C 	C 	0.79430 0.67260 0.68770 -0.04500
C 	C 	0.78430 0.57900 0.68080 -0.04000
C 	C 	0.80330 0.59650 0.71140 0.01900
N 	N 	0.77930 0.52870 0.82580 -0.27600
N 	N 	0.75370 0.56580 0.87640 -0.26500
C 	C 	0.78580 0.55990 0.85100 0.03700
C 	C 	0.73900 0.51130 0.83270 0.04800
C 	C 	0.71430 0.47930 0.81660 -0.05600
C 	C 	0.66770 0.47310 0.83100 0.01100
C 	C 	0.64500 0.50100 0.86200 0.00400
C 	C 	0.67380 0.52360 0.87970 -0.02800
C 	C 	0.71620 0.53390 0.86550 0.01300
C 	C 	0.64120 0.44000 0.81270 -0.00600
C 	C 	0.60170 0.48360 0.87860 -0.00400
N 	N 	0.79570 0.65860 0.88820 -0.25400
N 	N 	0.82940 0.69490 0.84070 -0.28000
C 	C 	0.79430 0.67060 0.85060 0.03200
C 	C 	0.84000 0.66130 0.90420 0.02300
C 	C 	0.85570 0.65220 0.94000 -0.05400
C 	C 	0.90100 0.66800 0.95100 0.00500
C 	C 	0.91960 0.69020 0.91510 0.00200
C 	C 	0.90170 0.70450 0.87950 -0.03500
C 	C 	0.86090 0.68760 0.87320 0.00200
C 	C 	0.82570 0.70020 0.90840 -0.00200
C 	C 	0.83030 0.71530 0.94690 -0.01300
C 	C 	0.85420 0.75300 0.95430 -0.00100
C 	C 	0.87360 0.77470 0.92300 0.01000
C 	C 	0.86900 0.75960 0.88500 -0.03800
C 	C 	0.83400 0.72100 0.87000 0.04600
N 	N 	0.81150 0.75900 0.76480 -0.27300
C 	C 	0.81820 0.78230 0.72710 0.03100
C 	C 	0.84270 0.77690 0.69420 -0.05200
C 	C 	0.83590 0.80190 0.66370 0.01300
C 	C 	0.86240 0.79520 0.62800 -0.00800
N 	N 	0.76870 0.59520 0.96700 -0.27200
C 	C 	0.79220 0.56000 0.97650 0.07500
C 	C 	0.80940 0.52800 0.95900 -0.06200
C 	C 	0.83200 0.49950 0.97800 0.01600
C 	C 	0.85410 0.46300 0.95670 -0.01200
C 	C 	0.76380 0.53600 0.97100 -0.03800
N 	N 	0.87400 0.50230 0.78650 -0.28600
N 	N 	0.94680 0.49630 0.77930 -0.30200
C 	C 	0.91260 0.51490 0.76850 0.04400
C 	C 	0.88670 0.46980 0.81120 0.01900
C 	C 	0.86470 0.44370 0.83760 -0.06400
C 	C 	0.88670 0.41430 0.85800 0.00600
C 	C 	0.93400 0.41000 0.85580 0.01000
C 	C 	0.95390 0.44080 0.82580 -0.09100
C 	C 	0.93310 0.46820 0.80630 0.07300
C 	C 	0.95900 0.37640 0.88020 -0.01800
N 	N 	0.70030 0.64740 0.92810 -0.26700
C 	C 	0.66800 0.63380 0.95500 -0.05100
C 	C 	0.66360 0.59670 0.97910 -0.00500
C 	C 	0.61980 0.55200 0.02760 -0.00900
N 	N 	0.69120 0.64160 0.89320 -0.27400
C 	C 	0.68060 0.64760 0.85390 0.02400
C 	C 	0.68830 0.62830 0.81360 -0.04300
C 	C 	0.68630 0.64560 0.78180 0.00000
C 	C 	0.69460 0.62650 0.74400 -0.02200
N 	N 	0.79010 0.47320 0.74120 -0.27800
N 	N 	0.77910 0.40630 0.72360 -0.28900
C 	C 	0.80530 0.43380 0.74050 0.04500
C 	C 	0.74920 0.47270 0.72600 0.02400
C 	C 	0.74540 0.43000 0.71340 0.06500
C 	C 	0.70480 0.41300 0.70480 -0.05700
C 	C 	0.66800 0.43860 0.70880 0.01400
C 	C 	0.67190 0.48130 0.72140 0.01000
C 	C 	0.71250 0.49830 0.73000 -0.05000
C 	C 	0.61820 0.42800 0.70090 -0.00500
C 	C 	0.62830 0.51020 0.72600 -0.00400
C 	C 	0.71000 0.40800 0.66950 -0.01800
C 	C 	0.67990 0.46900 0.66940 -0.00300
C 	C 	0.71930 0.50990 0.69590 -0.00500
Zn	Zn	0.70828 0.84406 0.78429 1.17400
Zn	Zn	0.52058 0.81399 0.77550 1.17100
Zn	Zn	0.61631 0.75248 0.91267 1.19200
N 	N 	0.65270 0.83060 0.75600 -0.27000
N 	N 	0.57950 0.82130 0.74960 -0.26200
C 	C 	0.61010 0.83540 0.77340 -0.00300
C 	C 	0.64190 0.80960 0.71980 0.03700
C 	C 	0.67260 0.79430 0.68770 -0.04500
C 	C 	0.57900 0.78430 0.68080 -0.04000
C 	C 	0.59650 0.80330 0.71140 0.01900
N 	N 	0.52870 0.77930 0.82580 -0.27600
N 	N 	0.56580 0.75370 0.87640 -0.26500
C 	C 	0.55990 0.78580 0.85100 0.03700
C 	C 	0.51130 0.73900 0.83270 0.04800
C 	C 	0.47930 0.71430 0.81660 -0.05600
C 	C 	0.47310 0.66770 0.83100 0.01100
C 	C 	0.50100 0.64500 0.86200 0.00400
C 	C 	0.52360 0.67380 0.87970 -0.02800
C 	C 	0.53390 0.71620 0.86550 0.01300
C 	C 	0.44000 0.64120 0.81270 -0.00600
C 	C 	0.48360 0.60170 0.87860 -0.00400
N 	N 	0.65860 0.79570 0.88820 -0.25400
N 	N 	0.69490 0.82940 0.84070 -0.28000
C 	C 	0.67060 0.79430 0.85060 0.03200
C 	C 	0.66130 0.84000 0.90420 0.02300
C 	C 	0.65220 0.85570 0.94000 -0.05400
C 	C 	0.66800 0.90100 0.95100 0.00500
C 	C 	0.69020 0.91960 0.91510 0.00200
C 	C 	0.70450 0.90170 0.87950 -0.03500
C 	C 	0.68760 0.86090 0.87320 0.00200
C 	C 	0.70020 0.82570 0.90840 -0.00200
C 	C 	0.71530 0.83030 0.94690 -0.01300
C 	C 	0.75300 0.85420 0.95430 -0.00100
C 	C 	0.77470 0.87360 0.92300 0.01000
C 	C 	0.75960 0.86900 0.88500 -0.03800
C 	C 	0.72100 0.83400 0.87000 0.04600
N 	N 	0.75900 0.81150 0.76480 -0.27300
C 	C 	0.78230 0.81820 0.72710 0.03100
C 	C 	0.77690 0.84270 0.69420 -0.05200
C 	C 	0.80190 0.83590 0.66370 0.01300
C 	C 	0.79520 0.86240 0.62800 -0.00800
N 	N 	0.59520 0.76870 0.96700 -0.27200
C 	C 	0.56000 0.79220 0.97650 0.07500
C 	C 	0.52800 0.80940 0.95900 -0.06200
C 	C 	0.49950 0.83200 0.97800 0.01600
C 	C 	0.46300 0.85410 0.95670 -0.01200
C 	C 	0.53600 0.76380 0.97100 -0.03800
N 	N 	0.50230 0.87400 0.78650 -0.28600
N 	N 	0.49630 0.94680 0.77930 -0.30200
C 	C 	0.51490 0.91260 0.76850 0.04400
C 	C 	0.46980 0.88670 0.81120 0.01900
C 	C 	0.44370 0.86470 0.83760 -0.06400
C 	C 	0.41430 0.88670 0.85800 0.00600
C 	C 	0.41000 0.93400 0.85580 0.01000
C 	C 	0.44080 0.95390 0.82580 -0.09100
C 	C 	0.46820 0.93310 0.80630 0.07300
C 	C 	0.37640 0.95900 0.88020 -0.01800
N 	N 	0.64740 0.70030 0.92810 -0.26700
C 	C 	0.63380 0.66800 0.95500 -0.05100
C 	C 	0.59670 0.66360 0.97910 -0.00500
C 	C 	0.55200 0.61980 0.02760 -0.00900
N 	N 	0.64160 0.69120 0.89320 -0.27400
C 	C 	0.64760 0.68060 0.85390 0.02400
C 	C 	0.62830 0.68830 0.81360 -0.04300
C 	C 	0.64560 0.68630 0.78180 0.00000
C 	C 	0.62650 0.69460 0.74400 -0.02200
N 	N 	0.47320 0.79010 0.74120 -0.27800
N 	N 	0.40630 0.77910 0.72360 -0.28900
C 	C 	0.43380 0.80530 0.74050 0.04500
C 	C 	0.47270 0.74920 0.72600 0.02400
C 	C 	0.43000 0.74540 0.71340 0.06500
C 	C 	0.41300 0.70480 0.70480 -0.05700
C 	C 	0.43860 0.66800 0.70880 0.01400
C 	C 	0.48130 0.67190 0.72140 0.01000
C 	C 	0.49830 0.71250 0.73000 -0.05000
C 	C 	0.42800 0.61820 0.70090 -0.00500
C 	C 	0.51020 0.62830 0.72600 -0.00400
C 	C 	0.40800 0.71000 0.66950 -0.01800
C 	C 	0.46900 0.67990 0.66940 -0.00300
C 	C 	0.50990 0.71930 0.69590 -0.00500
Zn	Zn	0.29172 0.15594 0.78429 1.17400
Zn	Zn	0.47942 0.18601 0.77550 1.17100
Zn	Zn	0.38369 0.24752 0.91267 1.19200
N 	N 	0.34730 0.16940 0.75600 -0.27100
N 	N 	0.42050 0.17870 0.74960 -0.26200
C 	C 	0.38990 0.16460 0.77340 -0.00400
C 	C 	0.35810 0.19040 0.71980 0.03700
C 	C 	0.32740 0.20570 0.68770 -0.04500
C 	C 	0.42100 0.21570 0.68080 -0.04000
C 	C 	0.40350 0.19670 0.71140 0.01900
N 	N 	0.47130 0.22070 0.82580 -0.27600
N 	N 	0.43420 0.24630 0.87640 -0.26500
C 	C 	0.44010 0.21420 0.85100 0.03700
C 	C 	0.48870 0.26100 0.83270 0.04800
C 	C 	0.52070 0.28570 0.81660 -0.05600
C 	C 	0.52690 0.33230 0.83100 0.01100
C 	C 	0.49900 0.35500 0.86200 0.00400
C 	C 	0.47640 0.32620 0.87970 -0.02800
C 	C 	0.46610 0.28380 0.86550 0.01300
C 	C 	0.56000 0.35880 0.81270 -0.00600
C 	C 	0.51640 0.39830 0.87860 -0.00400
N 	N 	0.34140 0.20430 0.88820 -0.25400
N 	N 	0.30510 0.17060 0.84070 -0.28000
C 	C 	0.32940 0.20570 0.85060 0.03200
C 	C 	0.33870 0.16000 0.90420 0.02200
C 	C 	0.34780 0.14430 0.94000 -0.05400
C 	C 	0.33200 0.09900 0.95100 0.00200
C 	C 	0.30980 0.08040 0.91510 -0.00100
C 	C 	0.29550 0.09830 0.87950 -0.03600
C 	C 	0.31240 0.13910 0.87320 0.00200
C 	C 	0.29980 0.17430 0.90840 -0.00200
C 	C 	0.28470 0.16970 0.94690 -0.01300
C 	C 	0.24700 0.14580 0.95430 -0.00100
C 	C 	0.22530 0.12640 0.92300 0.00800
C 	C 	0.24040 0.13100 0.88500 -0.03800
C 	C 	0.27900 0.16600 0.87000 0.04600
N 	N 	0.24100 0.18850 0.76480 -0.27300
C 	C 	0.21770 0.18180 0.72710 0.03100
C 	C 	0.22310 0.15730 0.69420 -0.05200
C 	C 	0.19810 0.16410 0.66370 0.01300
C 	C 	0.20480 0.13760 0.62800 -0.01000
N 	N 	0.40480 0.23130 0.96700 -0.27200
C 	C 	0.44000 0.20780 0.97650 0.07500
C 	C 	0.47200 0.19060 0.95900 -0.06300
C 	C 	0.50050 0.16800 0.97800 0.01600
C 	C 	0.53700 0.14590 0.95670 -0.01400
C 	C 	0.46400 0.23620 0.97100 -0.03800
N 	N 	0.49770 0.12600 0.78650 -0.28600
N 	N 	0.50370 0.05320 0.77930 -0.30500
C 	C 	0.48510 0.08740 0.76850 0.04200
C 	C 	0.53020 0.11330 0.81120 0.01800
C 	C 	0.55630 0.13530 0.83760 -0.06300
C 	C 	0.58570 0.11330 0.85800 0.00400
C 	C 	0.59000 0.06600 0.85580 0.01100
C 	C 	0.55920 0.04610 0.82580 -0.09700
C 	C 	0.53180 0.06690 0.80630 0.07400
C 	C 	0.62360 0.04100 0.88020 -0.02500
N 	N 	0.35260 0.29970 0.92810 -0.26700
C 	C 	0.36620 0.33200 0.95500 -0.05100
C 	C 	0.40330 0.33640 0.97910 -0.00500
C 	C 	0.44800 0.38020 0.02760 -0.00900
N 	N 	0.35840 0.30880 0.89320 -0.27400
C 	C 	0.35240 0.31940 0.85390 0.02400
C 	C 	0.37170 0.31170 0.81360 -0.04300
C 	C 	0.35440 0.31370 0.78180 0.00000
C 	C 	0.37350 0.30540 0.74400 -0.02200
N 	N 	0.52680 0.20990 0.74120 -0.27800
N 	N 	0.59370 0.22090 0.72360 -0.28900
C 	C 	0.56620 0.19470 0.74050 0.04500
C 	C 	0.52730 0.25080 0.72600 0.02400
C 	C 	0.57000 0.25460 0.71340 0.06500
C 	C 	0.58700 0.29520 0.70480 -0.05700
C 	C 	0.56140 0.33200 0.70880 0.01400
C 	C 	0.51870 0.32810 0.72140 0.01000
C 	C 	0.50170 0.28750 0.73000 -0.05000
C 	C 	0.57200 0.38180 0.70090 -0.00500
C 	C 	0.48980 0.37170 0.72600 -0.00400
C 	C 	0.59200 0.29000 0.66950 -0.01800
C 	C 	0.53100 0.32010 0.66940 -0.00300
C 	C 	0.49010 0.28070 0.69590 -0.00500
Zn	Zn	0.65594 0.20828 0.28429 1.17400
Zn	Zn	0.68601 0.02058 0.27550 1.16900
Zn	Zn	0.74752 0.11631 0.41267 1.19200
N 	N 	0.66940 0.15270 0.25600 -0.27000
N 	N 	0.67870 0.07950 0.24960 -0.26200
C 	C 	0.66460 0.11010 0.27340 -0.00400
C 	C 	0.69040 0.14190 0.21980 0.03700
C 	C 	0.70570 0.17260 0.18770 -0.04500
C 	C 	0.71570 0.07900 0.18080 -0.04100
C 	C 	0.69670 0.09650 0.21140 0.01900
N 	N 	0.72070 0.02870 0.32580 -0.27600
N 	N 	0.74630 0.06580 0.37640 -0.26500
C 	C 	0.71420 0.05990 0.35100 0.03600
C 	C 	0.76100 0.01130 0.33270 0.03900
C 	C 	0.78570 0.97930 0.31660 -0.04900
C 	C 	0.83230 0.97310 0.33100 0.01900
C 	C 	0.85500 0.00100 0.36200 -0.01000
C 	C 	0.82620 0.02360 0.37970 -0.02500
C 	C 	0.78380 0.03390 0.36550 0.01200
C 	C 	0.85880 0.94000 0.31270 -0.00600
C 	C 	0.89830 0.98360 0.37860 0.00900
N 	N 	0.70430 0.15860 0.38820 -0.25400
N 	N 	0.67060 0.19490 0.34070 -0.28000
C 	C 	0.70570 0.17060 0.35060 0.03200
C 	C 	0.66000 0.16130 0.40420 0.02200
C 	C 	0.64430 0.15220 0.44000 -0.05500
C 	C 	0.59900 0.16800 0.45100 0.00300
C 	C 	0.58040 0.19020 0.41510 0.00000
C 	C 	0.59830 0.20450 0.37950 -0.03600
C 	C 	0.63910 0.18760 0.37320 0.00200
C 	C 	0.67430 0.20020 0.40840 -0.00200
C 	C 	0.66970 0.21530 0.44690 -0.01300
C 	C 	0.64580 0.25300 0.45430 -0.00200
C 	C 	0.62640 0.27470 0.42300 0.00900
C 	C 	0.63100 0.25960 0.38500 -0.03800
C 	C 	0.66600 0.22100 0.37000 0.04600
N 	N 	0.68850 0.25900 0.26480 -0.27300
C 	C 	0.68180 0.28230 0.22710 0.03100
C 	C 	0.65730 0.27690 0.19420 -0.05200
C 	C 	0.66410 0.30190 0.16370 0.01300
C 	C 	0.63760 0.29520 0.12800 -0.00900
N 	N 	0.73130 0.09520 0.46700 -0.27300
C 	C 	0.70780 0.06000 0.47650 0.07700
C 	C 	0.69060 0.02800 0.45900 -0.07300
C 	C 	0.66800 0.99950 0.47800 0.02400
C 	C 	0.64590 0.96300 0.45670 -0.01200
C 	C 	0.73620 0.03600 0.47100 -0.04000
N 	N 	0.62600 0.00230 0.28650 -0.29000
N 	N 	0.55320 0.99630 0.27930 -0.29700
C 	C 	0.58740 0.01490 0.26850 0.03500
C 	C 	0.61330 0.96980 0.31120 0.02600
C 	C 	0.63530 0.94370 0.33760 -0.06400
C 	C 	0.61330 0.91430 0.35800 0.00600
C 	C 	0.56600 0.91000 0.35580 0.01100
C 	C 	0.54610 0.94080 0.32580 -0.09200
C 	C 	0.56690 0.96820 0.30630 0.07200
C 	C 	0.54100 0.87640 0.38020 -0.02000
N 	N 	0.79970 0.14740 0.42810 -0.26800
C 	C 	0.83200 0.13380 0.45500 -0.05000
C 	C 	0.83640 0.09670 0.47910 -0.00600
C 	C 	0.88020 0.05200 0.52760 -0.01000
N 	N 	0.80880 0.14160 0.39320 -0.27400
C 	C 	0.81940 0.14760 0.35390 0.02400
C 	C 	0.81170 0.12830 0.31360 -0.04300
C 	C 	0.81370 0.14560 0.28180 0.00100
C 	C 	0.80540 0.12650 0.24400 -0.02200
N 	N 	0.70990 0.97320 0.24120 -0.27500
N 	N 	0.72090 0.90630 0.22360 -0.28900
C 	C 	0.69470 0.93380 0.24050 0.04700
C 	C 	0.75080 0.97270 0.22600 0.02500
C 	C 	0.75460 0.93000 0.21340 0.06500
C 	C 	0.79520 0.91300 0.20480 -0.05700
C 	C 	0.83200 0.93860 0.20880 0.01200
C 	C 	0.82810 0.98130 0.22140 0.01400
C 	C 	0.78750 0.99830 0.23000 -0.03700
C 	C 	0.88180 0.92800 0.20090 -0.00100
C 	C 	0.87170 0.01020 0.22600 -0.01200
C 	C 	0.79000 0.90800 0.16950 -0.01700
C 	C 	0.82010 0.96900 0.16940 0.00400
C 	C 	0.78070 0.00990 0.19590 -0.02100
Zn	Zn	0.34406 0.79172 0.28429 1.17400
Zn	Zn	0.31399 0.97942 0.27550 1.17200
Zn	Zn	0.25248 0.88369 0.41267 1.19200
N 	N 	0.33060 0.84730 0.25600 -0.27000
N 	N 	0.32130 0.92050 0.24960 -0.26100
C 	C 	0.33540 0.88990 0.27340 -0.00400
C 	C 	0.30960 0.85810 0.21980 0.03700
C 	C 	0.29430 0.82740 0.18770 -0.04500
C 	C 	0.28430 0.92100 0.18080 -0.03900
C 	C 	0.30330 0.90350 0.21140 0.01900
N 	N 	0.27930 0.97130 0.32580 -0.27600
N 	N 	0.25370 0.93420 0.37640 -0.26500
C 	C 	0.28580 0.94010 0.35100 0.03800
C 	C 	0.23900 0.98870 0.33270 0.05700
C 	C 	0.21430 0.02070 0.31660 -0.06300
C 	C 	0.16770 0.02690 0.33100 0.00400
C 	C 	0.14500 0.99900 0.36200 0.01900
C 	C 	0.17380 0.97640 0.37970 -0.03000
C 	C 	0.21620 0.96610 0.36550 0.01400
C 	C 	0.14120 0.06000 0.31270 -0.00600
C 	C 	0.10170 0.01640 0.37860 -0.01500
N 	N 	0.29570 0.84140 0.38820 -0.25400
N 	N 	0.32940 0.80510 0.34070 -0.28000
C 	C 	0.29430 0.82940 0.35060 0.03200
C 	C 	0.34000 0.83870 0.40420 0.02200
C 	C 	0.35570 0.84780 0.44000 -0.05400
C 	C 	0.40100 0.83200 0.45100 0.00400
C 	C 	0.41960 0.80980 0.41510 0.00100
C 	C 	0.40170 0.79550 0.37950 -0.03500
C 	C 	0.36090 0.81240 0.37320 0.00200
C 	C 	0.32570 0.79980 0.40840 -0.00200
C 	C 	0.33030 0.78470 0.44690 -0.01300
C 	C 	0.35420 0.74700 0.45430 -0.00200
C 	C 	0.37360 0.72530 0.42300 0.00900
C 	C 	0.36900 0.74040 0.38500 -0.03800
C 	C 	0.33400 0.77900 0.37000 0.04600
N 	N 	0.31150 0.74100 0.26480 -0.27300
C 	C 	0.31820 0.71770 0.22710 0.03100
C 	C 	0.34270 0.72310 0.19420 -0.05200
C 	C 	0.33590 0.69810 0.16370 0.01300
C 	C 	0.36240 0.70480 0.12800 -0.00900
N 	N 	0.26870 0.90480 0.46700 -0.27200
C 	C 	0.29220 0.94000 0.47650 0.07200
C 	C 	0.30940 0.97200 0.45900 -0.05100
C 	C 	0.33200 0.00050 0.47800 0.00600
C 	C 	0.35410 0.03700 0.45670 -0.01400
C 	C 	0.26380 0.96400 0.47100 -0.03700
N 	N 	0.37400 0.99770 0.28650 -0.28200
N 	N 	0.44680 0.00370 0.27930 -0.31000
C 	C 	0.41260 0.98510 0.26850 0.05100
C 	C 	0.38670 0.03020 0.31120 0.01100
C 	C 	0.36470 0.05630 0.33760 -0.06300
C 	C 	0.38670 0.08570 0.35800 0.00400
C 	C 	0.43400 0.09000 0.35580 0.01100
C 	C 	0.45390 0.05920 0.32580 -0.09600
C 	C 	0.43310 0.03180 0.30630 0.07400
C 	C 	0.45900 0.12360 0.38020 -0.02200
N 	N 	0.20030 0.85260 0.42810 -0.26700
C 	C 	0.16800 0.86620 0.45500 -0.05100
C 	C 	0.16360 0.90330 0.47910 -0.00500
C 	C 	0.11980 0.94800 0.52760 -0.00700
N 	N 	0.19120 0.85840 0.39320 -0.27400
C 	C 	0.18060 0.85240 0.35390 0.02400
C 	C 	0.18830 0.87170 0.31360 -0.04200
C 	C 	0.18630 0.85440 0.28180 0.00000
C 	C 	0.19460 0.87350 0.24400 -0.02100
N 	N 	0.29010 0.02680 0.24120 -0.28000
N 	N 	0.27910 0.09370 0.22360 -0.28900
C 	C 	0.30530 0.06620 0.24050 0.04400
C 	C 	0.24920 0.02730 0.22600 0.02300
C 	C 	0.24540 0.07000 0.21340 0.06500
C 	C 	0.20480 0.08700 0.20480 -0.05800
C 	C 	0.16800 0.06140 0.20880 0.01700
C 	C 	0.17190 0.01870 0.22140 0.00600
C 	C 	0.21250 0.00170 0.23000 -0.06200
C 	C 	0.11820 0.07200 0.20090 -0.00800
C 	C 	0.12830 0.98980 0.22600 0.00300
C 	C 	0.21000 0.09200 0.16950 -0.01800
C 	C 	0.17990 0.03100 0.16940 -0.00900
C 	C 	0.21930 0.99010 0.19590 0.01000
Zn	Zn	0.79172 0.34406 0.71571 1.17400
Zn	Zn	0.97942 0.31399 0.72450 1.17200
Zn	Zn	0.88369 0.25248 0.58733 1.19200
N 	N 	0.84730 0.33060 0.74400 -0.27000
N 	N 	0.92050 0.32130 0.75040 -0.26100
C 	C 	0.88990 0.33540 0.72660 -0.00400
C 	C 	0.85810 0.30960 0.78020 0.03700
C 	C 	0.82740 0.29430 0.81230 -0.04500
C 	C 	0.92100 0.28430 0.81920 -0.03800
C 	C 	0.90350 0.30330 0.78860 0.01900
N 	N 	0.97130 0.27930 0.67420 -0.27600
N 	N 	0.93420 0.25370 0.62360 -0.26500
C 	C 	0.94010 0.28580 0.64900 0.03800
C 	C 	0.98870 0.23900 0.66730 0.05700
C 	C 	0.02070 0.21430 0.68340 -0.06300
C 	C 	0.02690 0.16770 0.66900 0.00400
C 	C 	0.99900 0.14500 0.63800 0.01900
C 	C 	0.97640 0.17380 0.62030 -0.03000
C 	C 	0.96610 0.21620 0.63450 0.01400
C 	C 	0.06000 0.14120 0.68730 -0.00600
C 	C 	0.01640 0.10170 0.62140 -0.01500
N 	N 	0.84140 0.29570 0.61180 -0.25400
N 	N 	0.80510 0.32940 0.65930 -0.28000
C 	C 	0.82940 0.29430 0.64940 0.03200
C 	C 	0.83870 0.34000 0.59580 0.02200
C 	C 	0.84780 0.35570 0.56000 -0.05400
C 	C 	0.83200 0.40100 0.54900 0.00400
C 	C 	0.80980 0.41960 0.58490 0.00100
C 	C 	0.79550 0.40170 0.62050 -0.03500
C 	C 	0.81240 0.36090 0.62680 0.00200
C 	C 	0.79980 0.32570 0.59160 -0.00200
C 	C 	0.78470 0.33030 0.55310 -0.01300
C 	C 	0.74700 0.35420 0.54570 -0.00200
C 	C 	0.72530 0.37360 0.57700 0.00900
C 	C 	0.74040 0.36900 0.61500 -0.03800
C 	C 	0.77900 0.33400 0.63000 0.04600
N 	N 	0.74100 0.31150 0.73520 -0.27300
C 	C 	0.71770 0.31820 0.77290 0.03100
C 	C 	0.72310 0.34270 0.80580 -0.05200
C 	C 	0.69810 0.33590 0.83630 0.01300
C 	C 	0.70480 0.36240 0.87200 -0.00900
N 	N 	0.90480 0.26870 0.53300 -0.27200
C 	C 	0.94000 0.29220 0.52350 0.07200
C 	C 	0.97200 0.30940 0.54100 -0.05100
C 	C 	0.00050 0.33200 0.52200 0.00600
C 	C 	0.03700 0.35410 0.54330 -0.01400
C 	C 	0.96400 0.26380 0.52900 -0.03700
N 	N 	0.99770 0.37400 0.71350 -0.28200
N 	N 	0.00370 0.44680 0.72070 -0.31000
C 	C 	0.98510 0.41260 0.73150 0.05100
C 	C 	0.03020 0.38670 0.68880 0.01100
C 	C 	0.05630 0.36470 0.66240 -0.06300
C 	C 	0.08570 0.38670 0.64200 0.00400
C 	C 	0.09000 0.43400 0.64420 0.01100
C 	C 	0.05920 0.45390 0.67420 -0.09600
C 	C 	0.03180 0.43310 0.69370 0.07400
C 	C 	0.12360 0.45900 0.61980 -0.02200
N 	N 	0.85260 0.20030 0.57190 -0.26700
C 	C 	0.86620 0.16800 0.54500 -0.05100
C 	C 	0.90330 0.16360 0.52090 -0.00500
C 	C 	0.94800 0.11980 0.47240 -0.00700
N 	N 	0.85840 0.19120 0.60680 -0.27400
C 	C 	0.85240 0.18060 0.64610 0.02400
C 	C 	0.87170 0.18830 0.68640 -0.04200
C 	C 	0.85440 0.18630 0.71820 0.00000
C 	C 	0.87350 0.19460 0.75600 -0.02100
N 	N 	0.02680 0.29010 0.75880 -0.28000
N 	N 	0.09370 0.27910 0.77640 -0.28900
C 	C 	0.06620 0.30530 0.75950 0.04400
C 	C 	0.02730 0.24920 0.77400 0.02300
C 	C 	0.07000 0.24540 0.78660 0.06500
C 	C 	0.08700 0.20480 0.79520 -0.05800
C 	C 	0.06140 0.16800 0.79120 0.01700
C 	C 	0.01870 0.17190 0.77860 0.00500
C 	C 	0.00170 0.21250 0.77000 -0.06200
C 	C 	0.07200 0.11820 0.79910 -0.00800
C 	C 	0.98980 0.12830 0.77400 0.00300
C 	C 	0.09200 0.21000 0.83050 -0.01800
C 	C 	0.03100 0.17990 0.83060 -0.00900
C 	C 	0.99010 0.21930 0.80410 0.01000
Zn	Zn	0.20828 0.65594 0.71571 1.17400
Zn	Zn	0.02058 0.68601 0.72450 1.16900
Zn	Zn	0.11631 0.74752 0.58733 1.19200
N 	N 	0.15270 0.66940 0.74400 -0.27000
N 	N 	0.07950 0.67870 0.75040 -0.26200
C 	C 	0.11010 0.66460 0.72660 -0.00400
C 	C 	0.14190 0.69040 0.78020 0.03700
C 	C 	0.17260 0.70570 0.81230 -0.04500
C 	C 	0.07900 0.71570 0.81920 -0.04100
C 	C 	0.09650 0.69670 0.78860 0.01900
N 	N 	0.02870 0.72070 0.67420 -0.27600
N 	N 	0.06580 0.74630 0.62360 -0.26500
C 	C 	0.05990 0.71420 0.64900 0.03600
C 	C 	0.01130 0.76100 0.66730 0.03900
C 	C 	0.97930 0.78570 0.68340 -0.04900
C 	C 	0.97310 0.83230 0.66900 0.01900
C 	C 	0.00100 0.85500 0.63800 -0.01000
C 	C 	0.02360 0.82620 0.62030 -0.02500
C 	C 	0.03390 0.78380 0.63450 0.01200
C 	C 	0.94000 0.85880 0.68730 -0.00600
C 	C 	0.98360 0.89830 0.62140 0.00900
N 	N 	0.15860 0.70430 0.61180 -0.25400
N 	N 	0.19490 0.67060 0.65930 -0.28000
C 	C 	0.17060 0.70570 0.64940 0.03200
C 	C 	0.16130 0.66000 0.59580 0.02200
C 	C 	0.15220 0.64430 0.56000 -0.05500
C 	C 	0.16800 0.59900 0.54900 0.00300
C 	C 	0.19020 0.58040 0.58490 0.00000
C 	C 	0.20450 0.59830 0.62050 -0.03600
C 	C 	0.18760 0.63910 0.62680 0.00200
C 	C 	0.20020 0.67430 0.59160 -0.00200
C 	C 	0.21530 0.66970 0.55310 -0.01300
C 	C 	0.25300 0.64580 0.54570 -0.00200
C 	C 	0.27470 0.62640 0.57700 0.00900
C 	C 	0.25960 0.63100 0.61500 -0.03800
C 	C 	0.22100 0.66600 0.63000 0.04600
N 	N 	0.25900 0.68850 0.73520 -0.27300
C 	C 	0.28230 0.68180 0.77290 0.03100
C 	C 	0.27690 0.65730 0.80580 -0.05200
C 	C 	0.30190 0.66410 0.83630 0.01300
C 	C 	0.29520 0.63760 0.87200 -0.00900
N 	N 	0.09520 0.73130 0.53300 -0.27300
C 	C 	0.06000 0.70780 0.52350 0.07700
C 	C 	0.02800 0.69060 0.54100 -0.07300
C 	C 	0.99950 0.66800 0.52200 0.02400
C 	C 	0.96300 0.64590 0.54330 -0.01200
C 	C 	0.03600 0.73620 0.52900 -0.04000
N 	N 	0.00230 0.62600 0.71350 -0.29000
N 	N 	0.99630 0.55320 0.72070 -0.29700
C 	C 	0.01490 0.58740 0.73150 0.03500
C 	C 	0.96980 0.61330 0.68880 0.02600
C 	C 	0.94370 0.63530 0.66240 -0.06400
C 	C 	0.91430 0.61330 0.64200 0.00600
C 	C 	0.91000 0.56600 0.64420 0.01100
C 	C 	0.94080 0.54610 0.67420 -0.09200
C 	C 	0.96820 0.56690 0.69370 0.07200
C 	C 	0.87640 0.54100 0.61980 -0.02000
N 	N 	0.14740 0.79970 0.57190 -0.26800
C 	C 	0.13380 0.83200 0.54500 -0.05000
C 	C 	0.09670 0.83640 0.52090 -0.00600
C 	C 	0.05200 0.88020 0.47240 -0.01000
N 	N 	0.14160 0.80880 0.60680 -0.27400
C 	C 	0.14760 0.81940 0.64610 0.02400
C 	C 	0.12830 0.81170 0.68640 -0.04300
C 	C 	0.14560 0.81370 0.71820 0.00100
C 	C 	0.12650 0.80540 0.75600 -0.02200
N 	N 	0.97320 0.70990 0.75880 -0.27500
N 	N 	0.90630 0.72090 0.77640 -0.28900
C 	C 	0.93380 0.69470 0.75950 0.04700
C 	C 	0.97270 0.75080 0.77400 0.02500
C 	C 	0.93000 0.75460 0.78660 0.06500
C 	C 	0.91300 0.79520 0.79520 -0.05700
C 	C 	0.93860 0.83200 0.79120 0.01200
C 	C 	0.98130 0.82810 0.77860 0.01400
C 	C 	0.99830 0.78750 0.77000 -0.03700
C 	C 	0.92800 0.88180 0.79910 -0.00100
C 	C 	0.01020 0.87170 0.77400 -0.01200
C 	C 	0.90800 0.79000 0.83050 -0.01700
C 	C 	0.96900 0.82010 0.83060 0.00400
C 	C 	0.00990 0.78070 0.80410 -0.02100
Zn	Zn	0.84406 0.70828 0.21571 1.17400
Zn	Zn	0.81399 0.52058 0.22450 1.17100
Zn	Zn	0.75248 0.61631 0.08733 1.19200
N 	N 	0.83060 0.65270 0.24400 -0.27000
N 	N 	0.82130 0.57950 0.25040 -0.26200
C 	C 	0.83540 0.61010 0.22660 -0.00300
C 	C 	0.80960 0.64190 0.28020 0.03700
C 	C 	0.79430 0.67260 0.31230 -0.04500
C 	C 	0.78430 0.57900 0.31920 -0.04000
C 	C 	0.80330 0.59650 0.28860 0.01900
N 	N 	0.77930 0.52870 0.17420 -0.27600
N 	N 	0.75370 0.56580 0.12360 -0.26500
C 	C 	0.78580 0.55990 0.14900 0.03700
C 	C 	0.73900 0.51130 0.16730 0.04800
C 	C 	0.71430 0.47930 0.18340 -0.05600
C 	C 	0.66770 0.47310 0.16900 0.01100
C 	C 	0.64500 0.50100 0.13800 0.00500
C 	C 	0.67380 0.52360 0.12030 -0.02800
C 	C 	0.71620 0.53390 0.13450 0.01300
C 	C 	0.64120 0.44000 0.18730 -0.00600
C 	C 	0.60170 0.48360 0.12140 -0.00400
N 	N 	0.79570 0.65860 0.11180 -0.25400
N 	N 	0.82940 0.69490 0.15930 -0.28000
C 	C 	0.79430 0.67060 0.14940 0.03200
C 	C 	0.84000 0.66130 0.09580 0.02300
C 	C 	0.85570 0.65220 0.06000 -0.05400
C 	C 	0.90100 0.66800 0.04900 0.00400
C 	C 	0.91960 0.69020 0.08490 0.00200
C 	C 	0.90170 0.70450 0.12050 -0.03500
C 	C 	0.86090 0.68760 0.12680 0.00200
C 	C 	0.82570 0.70020 0.09160 -0.00200
C 	C 	0.83030 0.71530 0.05310 -0.01400
C 	C 	0.85420 0.75300 0.04570 -0.00200
C 	C 	0.87360 0.77470 0.07700 0.01000
C 	C 	0.86900 0.75960 0.11500 -0.03800
C 	C 	0.83400 0.72100 0.13000 0.04600
N 	N 	0.81150 0.75900 0.23520 -0.27300
C 	C 	0.81820 0.78230 0.27290 0.03100
C 	C 	0.84270 0.77690 0.30580 -0.05200
C 	C 	0.83590 0.80190 0.33630 0.01300
C 	C 	0.86240 0.79520 0.37200 -0.00800
N 	N 	0.76870 0.59520 0.03300 -0.27200
C 	C 	0.79220 0.56000 0.02350 0.07400
C 	C 	0.80940 0.52800 0.04100 -0.06100
C 	C 	0.83200 0.49950 0.02200 0.01400
C 	C 	0.85410 0.46300 0.04330 -0.01200
C 	C 	0.76380 0.53600 0.02900 -0.03900
N 	N 	0.87400 0.50230 0.21350 -0.28600
N 	N 	0.94680 0.49630 0.22070 -0.30200
C 	C 	0.91260 0.51490 0.23150 0.04400
C 	C 	0.88670 0.46980 0.18880 0.01900
C 	C 	0.86470 0.44370 0.16240 -0.06400
C 	C 	0.88670 0.41430 0.14200 0.00500
C 	C 	0.93400 0.41000 0.14420 0.01000
C 	C 	0.95390 0.44080 0.17420 -0.09100
C 	C 	0.93310 0.46820 0.19370 0.07300
C 	C 	0.95900 0.37640 0.11980 -0.01800
N 	N 	0.70030 0.64740 0.07190 -0.26800
C 	C 	0.66800 0.63380 0.04500 -0.05100
C 	C 	0.66360 0.59670 0.02090 -0.00600
C 	C 	0.61980 0.55200 0.97240 -0.00800
N 	N 	0.69120 0.64160 0.10680 -0.27400
C 	C 	0.68060 0.64760 0.14610 0.02400
C 	C 	0.68830 0.62830 0.18640 -0.04300
C 	C 	0.68630 0.64560 0.21820 0.00000
C 	C 	0.69460 0.62650 0.25600 -0.02200
N 	N 	0.79010 0.47320 0.25880 -0.27800
N 	N 	0.77910 0.40630 0.27640 -0.28900
C 	C 	0.80530 0.43380 0.25950 0.04500
C 	C 	0.74920 0.47270 0.27400 0.02400
C 	C 	0.74540 0.43000 0.28660 0.06500
C 	C 	0.70480 0.41300 0.29520 -0.05700
C 	C 	0.66800 0.43860 0.29120 0.01400
C 	C 	0.67190 0.48130 0.27860 0.01000
C 	C 	0.71250 0.49830 0.27000 -0.05000
C 	C 	0.61820 0.42800 0.29910 -0.00500
C 	C 	0.62830 0.51020 0.27400 -0.00400
C 	C 	0.71000 0.40800 0.33050 -0.01800
C 	C 	0.67990 0.46900 0.33060 -0.00300
C 	C 	0.71930 0.50990 0.30410 -0.00500
Zn	Zn	0.15594 0.29172 0.21571 1.17400
Zn	Zn	0.18601 0.47942 0.22450 1.17100
Zn	Zn	0.24752 0.38369 0.08733 1.19200
N 	N 	0.16940 0.34730 0.24400 -0.27100
N 	N 	0.17870 0.42050 0.25040 -0.26200
C 	C 	0.16460 0.38990 0.22660 -0.00400
C 	C 	0.19040 0.35810 0.28020 0.03700
C 	C 	0.20570 0.32740 0.31230 -0.04500
C 	C 	0.21570 0.42100 0.31920 -0.04000
C 	C 	0.19670 0.40350 0.28860 0.01900
N 	N 	0.22070 0.47130 0.17420 -0.27600
N 	N 	0.24630 0.43420 0.12360 -0.26500
C 	C 	0.21420 0.44010 0.14900 0.03700
C 	C 	0.26100 0.48870 0.16730 0.04800
C 	C 	0.28570 0.52070 0.18340 -0.05600
C 	C 	0.33230 0.52690 0.16900 0.01100
C 	C 	0.35500 0.49900 0.13800 0.00500
C 	C 	0.32620 0.47640 0.12030 -0.02800
C 	C 	0.28380 0.46610 0.13450 0.01300
C 	C 	0.35880 0.56000 0.18730 -0.00600
C 	C 	0.39830 0.51640 0.12140 -0.00400
N 	N 	0.20430 0.34140 0.11180 -0.25400
N 	N 	0.17060 0.30510 0.15930 -0.28000
C 	C 	0.20570 0.32940 0.14940 0.03200
C 	C 	0.16000 0.33870 0.09580 0.02200
C 	C 	0.14430 0.34780 0.06000 -0.05400
C 	C 	0.09900 0.33200 0.04900 0.00200
C 	C 	0.08040 0.30980 0.08490 -0.00100
C 	C 	0.09830 0.29550 0.12050 -0.03600
C 	C 	0.13910 0.31240 0.12680 0.00200
C 	C 	0.17430 0.29980 0.09160 -0.00200
C 	C 	0.16970 0.28470 0.05310 -0.01400
C 	C 	0.14580 0.24700 0.04570 -0.00100
C 	C 	0.12640 0.22530 0.07700 0.00800
C 	C 	0.13100 0.24040 0.11500 -0.03800
C 	C 	0.16600 0.27900 0.13000 0.04600
N 	N 	0.18850 0.24100 0.23520 -0.27300
C 	C 	0.18180 0.21770 0.27290 0.03100
C 	C 	0.15730 0.22310 0.30580 -0.05200
C 	C 	0.16410 0.19810 0.33630 0.01300
C 	C 	0.13760 0.20480 0.37200 -0.01000
N 	N 	0.23130 0.40480 0.03300 -0.27200
C 	C 	0.20780 0.44000 0.02350 0.07300
C 	C 	0.19060 0.47200 0.04100 -0.06200
C 	C 	0.16800 0.50050 0.02200 0.01400
C 	C 	0.14590 0.53700 0.04330 -0.01400
C 	C 	0.23620 0.46400 0.02900 -0.03800
N 	N 	0.12600 0.49770 0.21350 -0.28600
N 	N 	0.05320 0.50370 0.22070 -0.30500
C 	C 	0.08740 0.48510 0.23150 0.04200
C 	C 	0.11330 0.53020 0.18880 0.01800
C 	C 	0.13530 0.55630 0.16240 -0.06300
C 	C 	0.11330 0.58570 0.14200 0.00400
C 	C 	0.06600 0.59000 0.14420 0.01100
C 	C 	0.04610 0.55920 0.17420 -0.09700
C 	C 	0.06690 0.53180 0.19370 0.07400
C 	C 	0.04100 0.62360 0.11980 -0.02500
N 	N 	0.29970 0.35260 0.07190 -0.26800
C 	C 	0.33200 0.36620 0.04500 -0.05100
C 	C 	0.33640 0.40330 0.02090 -0.00600
C 	C 	0.38020 0.44800 0.97240 -0.00800
N 	N 	0.30880 0.35840 0.10680 -0.27400
C 	C 	0.31940 0.35240 0.14610 0.02400
C 	C 	0.31170 0.37170 0.18640 -0.04300
C 	C 	0.31370 0.35440 0.21820 0.00000
C 	C 	0.30540 0.37350 0.25600 -0.02200
N 	N 	0.20990 0.52680 0.25880 -0.27800
N 	N 	0.22090 0.59370 0.27640 -0.28900
C 	C 	0.19470 0.56620 0.25950 0.04500
C 	C 	0.25080 0.52730 0.27400 0.02400
C 	C 	0.25460 0.57000 0.28660 0.06500
C 	C 	0.29520 0.58700 0.29520 -0.05700
C 	C 	0.33200 0.56140 0.29120 0.01400
C 	C 	0.32810 0.51870 0.27860 0.01000
C 	C 	0.28750 0.50170 0.27000 -0.05000
C 	C 	0.38180 0.57200 0.29910 -0.00500
C 	C 	0.37170 0.48980 0.27400 -0.00400
C 	C 	0.29000 0.59200 0.33050 -0.01800
C 	C 	0.32010 0.53100 0.33060 -0.00300
C 	C 	0.28070 0.49010 0.30410 -0.00500
Zn	Zn	0.50000 0.00000 0.25000 1.18300
Zn	Zn	0.50000 0.00000 0.75000 1.18300
Zn	Zn	0.00000 0.50000 0.25000 1.18300
Zn	Zn	0.00000 0.50000 0.75000 1.18300
C 	C 	0.23980 0.13490 -0.00000 -0.00500
C 	C 	0.38160 0.23860 -0.00000 0.06200
C 	C 	0.40780 0.37530 -0.00000 0.00500
C 	C 	0.76020 0.86510 -0.00000 -0.00300
C 	C 	0.61840 0.76140 -0.00000 0.06200
C 	C 	0.59220 0.62470 -0.00000 0.00500
C 	C 	0.36510 0.73980 0.50000 -0.00300
C 	C 	0.26140 0.88160 0.50000 0.06300
C 	C 	0.12470 0.90780 0.50000 0.00400
C 	C 	0.63490 0.26020 0.50000 -0.00300
C 	C 	0.73860 0.11840 0.50000 0.06300
C 	C 	0.87530 0.09220 0.50000 0.00700
C 	C 	0.26020 0.63490 0.50000 -0.00300
C 	C 	0.11840 0.73860 0.50000 0.06300
C 	C 	0.09220 0.87530 0.50000 0.00700
C 	C 	0.73980 0.36510 0.50000 -0.00300
C 	C 	0.88160 0.26140 0.50000 0.06300
C 	C 	0.90780 0.12470 0.50000 0.00400
C 	C 	0.13490 0.23980 -0.00000 -0.00500
C 	C 	0.23860 0.38160 -0.00000 0.06200
C 	C 	0.37530 0.40780 -0.00000 0.00500
C 	C 	0.86510 0.76020 -0.00000 -0.00300
C 	C 	0.76140 0.61840 -0.00000 0.06200
C 	C 	0.62470 0.59220 -0.00000 0.00500
C 	C 	0.22350 0.22350 0.21560 0.01900
C 	C 	0.31260 0.31260 0.08740 -0.47900
C 	C 	0.33170 0.33170 0.08650 0.83300
C 	C 	0.77650 0.77650 0.21560 0.01900
C 	C 	0.68740 0.68740 0.08740 -0.47900
C 	C 	0.66830 0.66830 0.08650 0.83300
C 	C 	0.27650 0.72350 0.71560 0.01900
C 	C 	0.18740 0.81260 0.58740 -0.47900
C 	C 	0.16830 0.83170 0.58650 0.83300
C 	C 	0.72350 0.27650 0.71560 0.01900
C 	C 	0.81260 0.18740 0.58740 -0.47900
C 	C 	0.83170 0.16830 0.58650 0.83300
C 	C 	0.27650 0.72350 0.28440 0.01900
C 	C 	0.18740 0.81260 0.41260 -0.47900
C 	C 	0.16830 0.83170 0.41350 0.83300
C 	C 	0.72350 0.27650 0.28440 0.01900
C 	C 	0.81260 0.18740 0.41260 -0.47900
C 	C 	0.83170 0.16830 0.41350 0.83300
C 	C 	0.22350 0.22350 0.78440 0.01900
C 	C 	0.31260 0.31260 0.91260 -0.47900
C 	C 	0.33170 0.33170 0.91350 0.83300
C 	C 	0.77650 0.77650 0.78440 0.01900
C 	C 	0.68740 0.68740 0.91260 -0.47900
C 	C 	0.66830 0.66830 0.91350 0.83300
