data_crystal

_cell_length_a 13.71700
_cell_length_b 14.78780
_cell_length_c 21.02820
_cell_angle_alpha 90.00000
_cell_angle_beta  90.00000
_cell_angle_gamma 90.00000

_symmetry_space_group_name_	'P 1'
_symmetry_space_group_name_H-M	'P 1'

loop_
_symmetry_equiv_pos_as_xyz
  x,y,z

loop_
_atom_site_label
_atom_site_type_symbol
_atom_site_fract_x
_atom_site_fract_y
_atom_site_fract_z
_atom_site_charge
Co	Co	0.53092 0.90024 0.56194 1.17000
Co	Co	0.46908 0.40024 0.93806 1.17100
Co	Co	0.46908 0.09976 0.43806 1.17000
Co	Co	0.53092 0.59976 0.06194 1.17100
H 	H 	0.34890 0.96770 0.63380 -0.00500
H 	H 	0.18280 0.97070 0.62920 0.09400
H 	H 	0.19720 0.82500 0.46770 0.10500
H 	H 	0.36320 0.82510 0.47770 -0.00700
H 	H 	0.69300 0.97160 0.64880 0.00700
H 	H 	0.85880 0.98210 0.65860 0.08700
H 	H 	0.88400 0.85830 0.48910 0.09400
H 	H 	0.71760 0.85220 0.48420 0.00700
H 	H 	0.03890 0.86750 0.50340 0.08700
H 	H 	0.02210 0.95560 0.61850 0.04500
H 	H 	0.51710 0.63770 0.67740 0.10000
H 	H 	0.53030 0.77710 0.76490 0.05300
H 	H 	0.52950 0.73070 0.87510 0.13700
H 	H 	0.50790 0.58880 0.79100 0.02200
H 	H 	0.65110 0.46770 0.86620 -0.00300
H 	H 	0.81720 0.47070 0.87080 0.09300
H 	H 	0.80280 0.32500 0.03230 0.10100
H 	H 	0.63680 0.32510 0.02230 -0.00700
H 	H 	0.30700 0.47160 0.85120 0.00500
H 	H 	0.14120 0.48210 0.84140 0.08800
H 	H 	0.11600 0.35830 0.01090 0.09700
H 	H 	0.28240 0.35220 0.01580 0.00500
H 	H 	0.96110 0.36750 0.99660 0.08200
H 	H 	0.97790 0.45560 0.88150 0.05700
H 	H 	0.48290 0.13770 0.82260 0.10100
H 	H 	0.46970 0.27710 0.73510 0.05300
H 	H 	0.47050 0.23070 0.62490 0.13700
H 	H 	0.49210 0.08880 0.70900 0.02300
H 	H 	0.65110 0.03230 0.36620 -0.00500
H 	H 	0.81720 0.02930 0.37080 0.09400
H 	H 	0.80280 0.17500 0.53230 0.10500
H 	H 	0.63680 0.17490 0.52230 -0.00700
H 	H 	0.30700 0.02840 0.35120 0.00700
H 	H 	0.14120 0.01790 0.34140 0.08700
H 	H 	0.11600 0.14170 0.51090 0.09400
H 	H 	0.28240 0.14780 0.51580 0.00700
H 	H 	0.96110 0.13250 0.49660 0.08700
H 	H 	0.97790 0.04440 0.38150 0.04500
H 	H 	0.48290 0.36230 0.32260 0.10000
H 	H 	0.46970 0.22290 0.23510 0.05300
H 	H 	0.47050 0.26930 0.12490 0.13700
H 	H 	0.49210 0.41120 0.20900 0.02200
H 	H 	0.34890 0.53230 0.13380 -0.00300
H 	H 	0.18280 0.52930 0.12920 0.09300
H 	H 	0.19720 0.67500 0.96770 0.10100
H 	H 	0.36320 0.67490 0.97770 -0.00700
H 	H 	0.69300 0.52840 0.14880 0.00500
H 	H 	0.85880 0.51790 0.15860 0.08800
H 	H 	0.88400 0.64170 0.98910 0.09700
H 	H 	0.71760 0.64780 0.98420 0.00500
H 	H 	0.03890 0.63250 0.00340 0.08200
H 	H 	0.02210 0.54440 0.11850 0.05700
H 	H 	0.51710 0.86230 0.17740 0.10100
H 	H 	0.53030 0.72290 0.26490 0.05300
H 	H 	0.52950 0.76930 0.37510 0.13700
H 	H 	0.50790 0.91120 0.29100 0.02300
C 	C 	0.31790 0.93860 0.59960 0.10200
C 	C 	0.21820 0.94060 0.59730 -0.18200
C 	C 	0.16910 0.89780 0.54750 0.14400
C 	C 	0.22640 0.85470 0.50230 -0.18600
C 	C 	0.32620 0.85570 0.50860 0.10300
C 	C 	0.73220 0.94790 0.61610 0.09200
C 	C 	0.83170 0.95470 0.62230 -0.15800
C 	C 	0.89240 0.92110 0.57480 0.10600
C 	C 	0.84670 0.88210 0.52270 -0.15900
C 	C 	0.74660 0.87830 0.52030 0.08900
C 	C 	0.06340 0.89470 0.54050 -0.12300
C 	C 	0.99810 0.92690 0.58190 -0.05300
C 	C 	0.52640 0.76940 0.64120 0.33400
C 	C 	0.52170 0.69830 0.69040 -0.18400
C 	C 	0.52360 0.71630 0.75270 -0.01600
C 	C 	0.51180 0.60200 0.91590 0.46200
C 	C 	0.52050 0.66980 0.86370 -0.27200
C 	C 	0.51620 0.64970 0.80260 0.07000
C 	C 	0.68210 0.43860 0.90040 0.09900
C 	C 	0.78180 0.44060 0.90270 -0.17600
C 	C 	0.83090 0.39780 0.95250 0.13400
C 	C 	0.77360 0.35470 0.99770 -0.17700
C 	C 	0.67380 0.35570 0.99140 0.10000
C 	C 	0.26780 0.44790 0.88390 0.09500
C 	C 	0.16830 0.45470 0.87770 -0.16500
C 	C 	0.10760 0.42110 0.92520 0.11800
C 	C 	0.15330 0.38210 0.97730 -0.16800
C 	C 	0.25340 0.37830 0.97970 0.09400
C 	C 	0.93660 0.39470 0.95950 -0.10200
C 	C 	0.00190 0.42690 0.91810 -0.08000
C 	C 	0.47360 0.26940 0.85880 0.33400
C 	C 	0.47830 0.19830 0.80960 -0.18400
C 	C 	0.47640 0.21630 0.74730 -0.01500
C 	C 	0.48820 0.10200 0.58410 0.46200
C 	C 	0.47950 0.16980 0.63630 -0.27100
C 	C 	0.48380 0.14970 0.69740 0.07000
C 	C 	0.68210 0.06140 0.40040 0.10200
C 	C 	0.78180 0.05940 0.40270 -0.18200
C 	C 	0.83090 0.10220 0.45250 0.14400
C 	C 	0.77360 0.14530 0.49770 -0.18600
C 	C 	0.67380 0.14430 0.49140 0.10300
C 	C 	0.26780 0.05210 0.38390 0.09200
C 	C 	0.16830 0.04530 0.37770 -0.15800
C 	C 	0.10760 0.07890 0.42520 0.10600
C 	C 	0.15330 0.11790 0.47730 -0.15900
C 	C 	0.25340 0.12170 0.47970 0.08900
C 	C 	0.93660 0.10530 0.45950 -0.12300
C 	C 	0.00190 0.07310 0.41810 -0.05300
C 	C 	0.47360 0.23060 0.35880 0.33400
C 	C 	0.47830 0.30170 0.30960 -0.18400
C 	C 	0.47640 0.28370 0.24730 -0.01600
C 	C 	0.48820 0.39800 0.08410 0.46200
C 	C 	0.47950 0.33020 0.13630 -0.27200
C 	C 	0.48380 0.35030 0.19740 0.07000
C 	C 	0.31790 0.56140 0.09960 0.09900
C 	C 	0.21820 0.55940 0.09730 -0.17600
C 	C 	0.16910 0.60220 0.04750 0.13400
C 	C 	0.22640 0.64530 0.00230 -0.17700
C 	C 	0.32620 0.64430 0.00860 0.10000
C 	C 	0.73220 0.55210 0.11610 0.09500
C 	C 	0.83170 0.54530 0.12230 -0.16500
C 	C 	0.89240 0.57890 0.07480 0.11800
C 	C 	0.84670 0.61790 0.02270 -0.16800
C 	C 	0.74660 0.62170 0.02030 0.09400
C 	C 	0.06340 0.60530 0.04050 -0.10200
C 	C 	0.99810 0.57310 0.08190 -0.08000
C 	C 	0.52640 0.73060 0.14120 0.33400
C 	C 	0.52170 0.80170 0.19040 -0.18400
C 	C 	0.52360 0.78370 0.25270 -0.01500
C 	C 	0.51180 0.89800 0.41590 0.46200
C 	C 	0.52050 0.83020 0.36370 -0.27100
C 	C 	0.51620 0.85030 0.30260 0.07000
N 	N 	0.37430 0.89750 0.55577 -0.24100
N 	N 	0.68790 0.90960 0.56612 -0.22600
N 	N 	0.62570 0.39750 0.94423 -0.23900
N 	N 	0.31210 0.40960 0.93388 -0.22800
N 	N 	0.62570 0.10250 0.44423 -0.24100
N 	N 	0.31210 0.09040 0.43388 -0.22600
N 	N 	0.37430 0.60250 0.05577 -0.23900
N 	N 	0.68790 0.59040 0.06612 -0.22800
O 	O 	0.52590 0.85230 0.65760 -0.37700
O 	O 	0.52950 0.74890 0.58352 -0.37200
O 	O 	0.54440 0.62710 0.96885 -0.48000
O 	O 	0.47350 0.52790 0.90312 -0.47100
O 	O 	0.47410 0.35230 0.84240 -0.37700
O 	O 	0.47050 0.24890 0.91648 -0.37100
O 	O 	0.45560 0.12710 0.53115 -0.48000
O 	O 	0.52650 0.02790 0.59688 -0.47100
O 	O 	0.47410 0.14770 0.34240 -0.37700
O 	O 	0.47050 0.25110 0.41648 -0.37200
O 	O 	0.45560 0.37290 0.03115 -0.48000
O 	O 	0.52650 0.47210 0.09688 -0.47100
O 	O 	0.52590 0.64770 0.15760 -0.37700
O 	O 	0.52950 0.75110 0.08352 -0.37100
O 	O 	0.54440 0.87290 0.46885 -0.48000
O 	O 	0.47350 0.97210 0.40312 -0.47100
Co	Co	0.96908 0.09976 0.06194 1.16800
Co	Co	0.03092 0.59976 0.43806 1.17000
Co	Co	0.03092 0.90024 0.93806 1.16800
Co	Co	0.96908 0.40024 0.56194 1.17000
H 	H 	0.15110 0.03230 0.13380 -0.00300
H 	H 	0.31720 0.02930 0.12920 0.09300
H 	H 	0.30280 0.17500 0.96770 0.10500
H 	H 	0.13680 0.17490 0.97770 -0.00500
H 	H 	0.80700 0.02840 0.14880 0.00400
H 	H 	0.64120 0.01790 0.15860 0.08700
H 	H 	0.61600 0.14170 0.98910 0.09800
H 	H 	0.78240 0.14780 0.98420 0.00800
H 	H 	0.46110 0.13250 0.00340 0.08200
H 	H 	0.47790 0.04440 0.11850 0.05600
H 	H 	0.98290 0.36230 0.17740 0.10100
H 	H 	0.96970 0.22290 0.26490 0.05300
H 	H 	0.97050 0.26930 0.37510 0.13600
H 	H 	0.99210 0.41120 0.29100 0.02300
H 	H 	0.84890 0.53230 0.36620 -0.00300
H 	H 	0.68280 0.52930 0.37080 0.09300
H 	H 	0.69720 0.67500 0.53230 0.10300
H 	H 	0.86320 0.67490 0.52230 -0.00600
H 	H 	0.19300 0.52840 0.35120 0.00600
H 	H 	0.35880 0.51790 0.34140 0.08800
H 	H 	0.38400 0.64170 0.51090 0.09600
H 	H 	0.21760 0.64780 0.51580 0.00600
H 	H 	0.53890 0.63250 0.49660 0.08200
H 	H 	0.52210 0.54440 0.38150 0.05500
H 	H 	0.01710 0.86230 0.32260 0.10000
H 	H 	0.03030 0.72290 0.23510 0.05300
H 	H 	0.02950 0.76930 0.12490 0.13600
H 	H 	0.00790 0.91120 0.20900 0.02200
H 	H 	0.84890 0.96770 0.86620 -0.00300
H 	H 	0.68280 0.97070 0.87080 0.09300
H 	H 	0.69720 0.82500 0.03230 0.10500
H 	H 	0.86320 0.82510 0.02230 -0.00500
H 	H 	0.19300 0.97160 0.85120 0.00400
H 	H 	0.35880 0.98210 0.84140 0.08700
H 	H 	0.38400 0.85830 0.01090 0.09800
H 	H 	0.21760 0.85220 0.01580 0.00800
H 	H 	0.53890 0.86750 0.99660 0.08200
H 	H 	0.52210 0.95560 0.88150 0.05600
H 	H 	0.01710 0.63770 0.82260 0.10100
H 	H 	0.03030 0.77710 0.73510 0.05300
H 	H 	0.02950 0.73070 0.62490 0.13600
H 	H 	0.00790 0.58880 0.70900 0.02300
H 	H 	0.15110 0.46770 0.63380 -0.00300
H 	H 	0.31720 0.47070 0.62920 0.09300
H 	H 	0.30280 0.32500 0.46770 0.10300
H 	H 	0.13680 0.32510 0.47770 -0.00600
H 	H 	0.80700 0.47160 0.64880 0.00600
H 	H 	0.64120 0.48210 0.65860 0.08800
H 	H 	0.61600 0.35830 0.48910 0.09600
H 	H 	0.78240 0.35220 0.48420 0.00600
H 	H 	0.46110 0.36750 0.50340 0.08200
H 	H 	0.47790 0.45560 0.61850 0.05500
H 	H 	0.98290 0.13770 0.67740 0.10000
H 	H 	0.96970 0.27710 0.76490 0.05300
H 	H 	0.97050 0.23070 0.87510 0.13600
H 	H 	0.99210 0.08880 0.79100 0.02200
C 	C 	0.18210 0.06140 0.09960 0.10000
C 	C 	0.28180 0.05940 0.09730 -0.17700
C 	C 	0.33090 0.10220 0.04750 0.13600
C 	C 	0.27360 0.14530 0.00230 -0.18100
C 	C 	0.17380 0.14430 0.00860 0.10000
C 	C 	0.76780 0.05210 0.11610 0.09400
C 	C 	0.66830 0.04530 0.12230 -0.16500
C 	C 	0.60760 0.07890 0.07480 0.11700
C 	C 	0.65330 0.11790 0.02270 -0.16800
C 	C 	0.75340 0.12170 0.02030 0.08900
C 	C 	0.43660 0.10530 0.04050 -0.10400
C 	C 	0.50190 0.07310 0.08190 -0.07800
C 	C 	0.97360 0.23060 0.14120 0.33400
C 	C 	0.97830 0.30170 0.19040 -0.18500
C 	C 	0.97640 0.28370 0.25270 -0.01500
C 	C 	0.98820 0.39800 0.41590 0.46100
C 	C 	0.97950 0.33020 0.36370 -0.27100
C 	C 	0.98380 0.35030 0.30260 0.06900
C 	C 	0.81790 0.56140 0.40040 0.09900
C 	C 	0.71820 0.55940 0.40270 -0.17700
C 	C 	0.66910 0.60220 0.45250 0.13600
C 	C 	0.72640 0.64530 0.49770 -0.18000
C 	C 	0.82620 0.64430 0.49140 0.10000
C 	C 	0.23220 0.55210 0.38390 0.09500
C 	C 	0.33170 0.54530 0.37770 -0.16400
C 	C 	0.39240 0.57890 0.42520 0.11600
C 	C 	0.34670 0.61790 0.47730 -0.16600
C 	C 	0.24660 0.62170 0.47970 0.09200
C 	C 	0.56340 0.60530 0.45950 -0.10400
C 	C 	0.49810 0.57310 0.41810 -0.07700
C 	C 	0.02640 0.73060 0.35880 0.33400
C 	C 	0.02170 0.80170 0.30960 -0.18500
C 	C 	0.02360 0.78370 0.24730 -0.01500
C 	C 	0.01180 0.89800 0.08410 0.45600
C 	C 	0.02050 0.83020 0.13630 -0.26900
C 	C 	0.01620 0.85030 0.19740 0.06800
C 	C 	0.81790 0.93860 0.90040 0.10000
C 	C 	0.71820 0.94060 0.90270 -0.17700
C 	C 	0.66910 0.89780 0.95250 0.13600
C 	C 	0.72640 0.85470 0.99770 -0.18100
C 	C 	0.82620 0.85570 0.99140 0.10000
C 	C 	0.23220 0.94790 0.88390 0.09400
C 	C 	0.33170 0.95470 0.87770 -0.16500
C 	C 	0.39240 0.92110 0.92520 0.11700
C 	C 	0.34670 0.88210 0.97730 -0.16800
C 	C 	0.24660 0.87830 0.97970 0.08900
C 	C 	0.56340 0.89470 0.95950 -0.10400
C 	C 	0.49810 0.92690 0.91810 -0.07800
C 	C 	0.02640 0.76940 0.85880 0.33400
C 	C 	0.02170 0.69830 0.80960 -0.18500
C 	C 	0.02360 0.71630 0.74730 -0.01500
C 	C 	0.01180 0.60200 0.58410 0.46100
C 	C 	0.02050 0.66980 0.63630 -0.27100
C 	C 	0.01620 0.64970 0.69740 0.06900
C 	C 	0.18210 0.43860 0.59960 0.09900
C 	C 	0.28180 0.44060 0.59730 -0.17700
C 	C 	0.33090 0.39780 0.54750 0.13600
C 	C 	0.27360 0.35470 0.50230 -0.18000
C 	C 	0.17380 0.35570 0.50860 0.10000
C 	C 	0.76780 0.44790 0.61610 0.09500
C 	C 	0.66830 0.45470 0.62230 -0.16400
C 	C 	0.60760 0.42110 0.57480 0.11600
C 	C 	0.65330 0.38210 0.52270 -0.16600
C 	C 	0.75340 0.37830 0.52030 0.09200
C 	C 	0.43660 0.39470 0.54050 -0.10400
C 	C 	0.50190 0.42690 0.58190 -0.07700
C 	C 	0.97360 0.26940 0.64120 0.33400
C 	C 	0.97830 0.19830 0.69040 -0.18500
C 	C 	0.97640 0.21630 0.75270 -0.01500
C 	C 	0.98820 0.10200 0.91590 0.45600
C 	C 	0.97950 0.16980 0.86370 -0.26900
C 	C 	0.98380 0.14970 0.80260 0.06800
N 	N 	0.12570 0.10250 0.05577 -0.23800
N 	N 	0.81210 0.09040 0.06612 -0.22800
N 	N 	0.87430 0.60250 0.44423 -0.23900
N 	N 	0.18790 0.59040 0.43388 -0.22700
N 	N 	0.87430 0.89750 0.94423 -0.23800
N 	N 	0.18790 0.90960 0.93388 -0.22800
N 	N 	0.12570 0.39750 0.55577 -0.23900
N 	N 	0.81210 0.40960 0.56612 -0.22700
O 	O 	0.97410 0.14770 0.15760 -0.37900
O 	O 	0.97050 0.25110 0.08352 -0.37300
O 	O 	0.95560 0.37290 0.46885 -0.48000
O 	O 	0.02650 0.47210 0.40312 -0.46900
O 	O 	0.02590 0.64770 0.34240 -0.37700
O 	O 	0.02950 0.75110 0.41648 -0.37300
O 	O 	0.04440 0.87290 0.03115 -0.47800
O 	O 	0.97350 0.97210 0.09688 -0.46400
O 	O 	0.02590 0.85230 0.84240 -0.37900
O 	O 	0.02950 0.74890 0.91648 -0.37300
O 	O 	0.04440 0.62710 0.53115 -0.48000
O 	O 	0.97350 0.52790 0.59688 -0.46900
O 	O 	0.97410 0.35230 0.65760 -0.37700
O 	O 	0.97050 0.24890 0.58352 -0.37300
O 	O 	0.95560 0.12710 0.96885 -0.47800
O 	O 	0.02650 0.02790 0.90312 -0.46400
