data_crystal

_cell_length_a 7.51060
_cell_length_b 31.19590
_cell_length_c 10.55370
_cell_angle_alpha 90.00000
_cell_angle_beta  118.65800
_cell_angle_gamma 90.00000

_symmetry_space_group_name_	'P 1'
_symmetry_space_group_name_H-M	'P 1'

loop_
_symmetry_equiv_pos_as_xyz
  x,y,z

loop_
_atom_site_label
_atom_site_type_symbol
_atom_site_fract_x
_atom_site_fract_y
_atom_site_fract_z
_atom_site_charge
C 	C 	0.95360 0.08703 0.52480 0.01100
C 	C 	0.84840 0.04976 0.49970 -0.01400
H 	H 	0.73120 0.04300 0.41120 0.02700
C 	C 	0.09320 0.04461 0.71930 0.16100
C 	C 	0.23420 0.03310 0.86220 -0.20300
H 	H 	0.22700 0.00590 0.89980 0.10100
C 	C 	0.37970 0.06157 0.94440 0.10500
H 	H 	0.47680 0.05410 0.04030 -0.00100
C 	C 	0.38900 0.10178 0.89010 -0.14700
H 	H 	0.49080 0.12150 0.95060 0.06600
C 	C 	0.25650 0.11323 0.75360 0.08800
H 	H 	0.26330 0.14080 0.71800 -0.00900
C 	C 	0.32740 0.92205 0.26950 -0.16300
C 	C 	0.19580 0.93404 0.12750 0.06700
H 	H 	0.20520 0.96200 0.09550 0.01500
C 	C 	0.05060 0.90556 0.03200 -0.13300
C 	C 	0.03670 0.86496 0.08060 0.05300
H 	H 	0.93590 0.84560 0.01700 0.00000
C 	C 	0.16960 0.85237 0.22230 -0.15000
C 	C 	0.31740 0.88064 0.31570 0.07800
H 	H 	0.41130 0.87180 0.41080 0.02300
C 	C 	0.47880 0.95327 0.37100 0.37700
C 	C 	0.15380 0.80854 0.27490 0.31200
C 	C 	0.03410 0.17914 0.32980 0.06900
H 	H 	0.14340 0.19510 0.33230 -0.04200
C 	C 	0.07720 0.14618 0.42510 -0.15400
H 	H 	0.21420 0.13890 0.48970 0.09000
C 	C 	0.91910 0.12316 0.42720 0.07100
C 	C 	0.71940 0.13426 0.32610 -0.15100
H 	H 	0.60730 0.11920 0.32280 0.09600
C 	C 	0.68980 0.16755 0.23170 0.06800
H 	H 	0.55450 0.17490 0.16320 -0.04000
C 	C 	0.90610 0.91875 0.87970 0.34800
N 	N 	0.93050 0.02327 0.61590 -0.26900
N 	N 	0.11030 0.08398 0.66620 -0.14000
N 	N 	0.84180 0.19006 0.23160 -0.30900
O 	O 	0.62930 0.93786 0.48190 -0.46500
O 	O 	0.44910 0.99294 0.34470 -0.48300
O 	O 	0.96440 0.95180 0.83640 -0.47100
O 	O 	0.74890 0.89870 0.80660 -0.32000
O 	O 	0.28300 0.79757 0.40240 -0.49500
O 	O 	0.01390 0.78353 0.19430 -0.42400
Zn	Zn	0.78098 0.97494 0.65010 1.22000
Zn	Zn	0.19596 0.73785 0.40921 1.13700
C 	C 	0.04640 0.58703 0.97520 -0.00000
C 	C 	0.15160 0.54976 0.00030 -0.00400
H 	H 	0.26880 0.54300 0.08880 0.02400
C 	C 	0.90680 0.54461 0.78070 0.16300
C 	C 	0.76580 0.53310 0.63780 -0.20200
H 	H 	0.77300 0.50590 0.60020 0.10100
C 	C 	0.62030 0.56157 0.55560 0.10200
H 	H 	0.52320 0.55410 0.45970 0.00100
C 	C 	0.61100 0.60178 0.60990 -0.14500
H 	H 	0.50920 0.62150 0.54940 0.06500
C 	C 	0.74350 0.61323 0.74640 0.08700
H 	H 	0.73670 0.64080 0.78200 -0.00800
C 	C 	0.67260 0.42205 0.23050 -0.16400
C 	C 	0.80420 0.43404 0.37250 0.06700
H 	H 	0.79480 0.46200 0.40450 0.01500
C 	C 	0.94940 0.40556 0.46800 -0.13500
C 	C 	0.96330 0.36496 0.41940 0.05000
H 	H 	0.06410 0.34560 0.48300 0.00200
C 	C 	0.83040 0.35237 0.27770 -0.15000
C 	C 	0.68260 0.38064 0.18430 0.07700
H 	H 	0.58870 0.37180 0.08920 0.02300
C 	C 	0.52120 0.45327 0.12900 0.37700
C 	C 	0.84620 0.30854 0.22510 0.31200
C 	C 	0.96590 0.67914 0.17020 0.07100
H 	H 	0.85660 0.69510 0.16770 -0.04200
C 	C 	0.92280 0.64618 0.07490 -0.16100
H 	H 	0.78580 0.63890 0.01030 0.09300
C 	C 	0.08090 0.62316 0.07280 0.08200
C 	C 	0.28060 0.63426 0.17390 -0.15500
H 	H 	0.39270 0.61920 0.17720 0.09800
C 	C 	0.31020 0.66755 0.26830 0.07100
H 	H 	0.44550 0.67490 0.33680 -0.04100
C 	C 	0.09390 0.41875 0.62030 0.34900
N 	N 	0.06950 0.52327 0.88410 -0.27200
N 	N 	0.88970 0.58398 0.83380 -0.13700
N 	N 	0.15820 0.69006 0.26840 -0.30800
O 	O 	0.37070 0.43786 0.01810 -0.46500
O 	O 	0.55090 0.49294 0.15530 -0.48300
O 	O 	0.03560 0.45180 0.66360 -0.47200
O 	O 	0.25110 0.39870 0.69340 -0.32000
O 	O 	0.71700 0.29757 0.09760 -0.49600
O 	O 	0.98610 0.28353 0.30570 -0.42600
Zn	Zn	0.21902 0.47494 0.84990 1.22000
Zn	Zn	0.80404 0.23785 0.09079 1.13600
C 	C 	0.04640 0.91297 0.47520 0.01100
C 	C 	0.15160 0.95024 0.50030 -0.01400
H 	H 	0.26880 0.95700 0.58880 0.02700
C 	C 	0.90680 0.95539 0.28070 0.16100
C 	C 	0.76580 0.96690 0.13780 -0.20300
H 	H 	0.77300 0.99410 0.10020 0.10100
C 	C 	0.62030 0.93843 0.05560 0.10500
H 	H 	0.52320 0.94590 0.95970 -0.00100
C 	C 	0.61100 0.89822 0.10990 -0.14700
H 	H 	0.50920 0.87850 0.04940 0.06600
C 	C 	0.74350 0.88677 0.24640 0.08800
H 	H 	0.73670 0.85920 0.28200 -0.00900
C 	C 	0.67260 0.07795 0.73050 -0.16300
C 	C 	0.80420 0.06596 0.87250 0.06700
H 	H 	0.79480 0.03800 0.90450 0.01500
C 	C 	0.94940 0.09444 0.96800 -0.13300
C 	C 	0.96330 0.13504 0.91940 0.05300
H 	H 	0.06410 0.15440 0.98300 0.00000
C 	C 	0.83040 0.14763 0.77770 -0.15000
C 	C 	0.68260 0.11936 0.68430 0.07800
H 	H 	0.58870 0.12820 0.58920 0.02300
C 	C 	0.52120 0.04673 0.62900 0.37700
C 	C 	0.84620 0.19146 0.72510 0.31200
C 	C 	0.96590 0.82086 0.67020 0.06900
H 	H 	0.85660 0.80490 0.66770 -0.04200
C 	C 	0.92280 0.85382 0.57490 -0.15400
H 	H 	0.78580 0.86110 0.51030 0.09000
C 	C 	0.08090 0.87684 0.57280 0.07100
C 	C 	0.28060 0.86574 0.67390 -0.15100
H 	H 	0.39270 0.88080 0.67720 0.09600
C 	C 	0.31020 0.83245 0.76830 0.06800
H 	H 	0.44550 0.82510 0.83680 -0.04000
C 	C 	0.09390 0.08125 0.12030 0.34800
N 	N 	0.06950 0.97673 0.38410 -0.26900
N 	N 	0.88970 0.91602 0.33380 -0.14000
N 	N 	0.15820 0.80994 0.76840 -0.30900
O 	O 	0.37070 0.06214 0.51810 -0.46500
O 	O 	0.55090 0.00706 0.65530 -0.48300
O 	O 	0.03560 0.04820 0.16360 -0.47100
O 	O 	0.25110 0.10130 0.19340 -0.32000
O 	O 	0.71700 0.20243 0.59760 -0.49500
O 	O 	0.98610 0.21647 0.80570 -0.42400
Zn	Zn	0.21902 0.02506 0.34990 1.22000
Zn	Zn	0.80404 0.26215 0.59079 1.13700
C 	C 	0.95360 0.41297 0.02480 -0.00000
C 	C 	0.84840 0.45024 0.99970 -0.00400
H 	H 	0.73120 0.45700 0.91120 0.02400
C 	C 	0.09320 0.45539 0.21930 0.16300
C 	C 	0.23420 0.46690 0.36220 -0.20200
H 	H 	0.22700 0.49410 0.39980 0.10100
C 	C 	0.37970 0.43843 0.44440 0.10200
H 	H 	0.47680 0.44590 0.54030 0.00100
C 	C 	0.38900 0.39822 0.39010 -0.14500
H 	H 	0.49080 0.37850 0.45060 0.06500
C 	C 	0.25650 0.38677 0.25360 0.08700
H 	H 	0.26330 0.35920 0.21800 -0.00800
C 	C 	0.32740 0.57795 0.76950 -0.16400
C 	C 	0.19580 0.56596 0.62750 0.06700
H 	H 	0.20520 0.53800 0.59550 0.01500
C 	C 	0.05060 0.59444 0.53200 -0.13500
C 	C 	0.03670 0.63504 0.58060 0.05000
H 	H 	0.93590 0.65440 0.51700 0.00200
C 	C 	0.16960 0.64763 0.72230 -0.15000
C 	C 	0.31740 0.61936 0.81570 0.07700
H 	H 	0.41130 0.62820 0.91080 0.02300
C 	C 	0.47880 0.54673 0.87100 0.37700
C 	C 	0.15380 0.69146 0.77490 0.31200
C 	C 	0.03410 0.32086 0.82980 0.07100
H 	H 	0.14340 0.30490 0.83230 -0.04200
C 	C 	0.07720 0.35382 0.92510 -0.16100
H 	H 	0.21420 0.36110 0.98970 0.09300
C 	C 	0.91910 0.37684 0.92720 0.08200
C 	C 	0.71940 0.36574 0.82610 -0.15500
H 	H 	0.60730 0.38080 0.82280 0.09800
C 	C 	0.68980 0.33245 0.73170 0.07100
H 	H 	0.55450 0.32510 0.66320 -0.04100
C 	C 	0.90610 0.58125 0.37970 0.34900
N 	N 	0.93050 0.47673 0.11590 -0.27200
N 	N 	0.11030 0.41602 0.16620 -0.13700
N 	N 	0.84180 0.30994 0.73160 -0.30800
O 	O 	0.62930 0.56214 0.98190 -0.46500
O 	O 	0.44910 0.50706 0.84470 -0.48300
O 	O 	0.96440 0.54820 0.33640 -0.47200
O 	O 	0.74890 0.60130 0.30660 -0.32000
O 	O 	0.28300 0.70243 0.90240 -0.49600
O 	O 	0.01390 0.71647 0.69430 -0.42600
Zn	Zn	0.78098 0.52506 0.15010 1.22000
Zn	Zn	0.19596 0.76215 0.90921 1.13600
