data_crystal

_cell_length_a 13.09000
_cell_length_b 14.74400
_cell_length_c 15.57500
_cell_angle_alpha 90.00000
_cell_angle_beta  91.64100
_cell_angle_gamma 90.00000

_symmetry_space_group_name_	'P 1'
_symmetry_space_group_name_H-M	'P 1'

loop_
_symmetry_equiv_pos_as_xyz
  x,y,z

loop_
_atom_site_label
_atom_site_type_symbol
_atom_site_fract_x
_atom_site_fract_y
_atom_site_fract_z
_atom_site_charge
Cu	Cu	0.97853 0.20445 0.10106 0.86900
C 	C 	0.60910 0.31120 0.75540 0.12100
H 	H 	0.58390 0.37010 0.75440 -0.01200
C 	C 	0.67700 0.28900 0.82070 -0.15800
H 	H 	0.69520 0.33110 0.86290 0.10200
C 	C 	0.71760 0.20330 0.82250 0.08200
C 	C 	0.68560 0.14440 0.75660 -0.14800
H 	H 	0.70990 0.08520 0.75560 0.09000
C 	C 	0.61930 0.17360 0.69440 0.09700
H 	H 	0.60200 0.13460 0.64930 -0.02700
C 	C 	0.79190 0.17350 0.88800 0.09500
C 	C 	0.34110 0.23610 0.73180 0.09500
H 	H 	0.36710 0.28830 0.75790 -0.00700
C 	C 	0.27590 0.18400 0.77700 -0.15200
H 	H 	0.25880 0.20070 0.83230 0.10000
C 	C 	0.23520 0.10620 0.74050 0.07700
C 	C 	0.26520 0.08490 0.65780 -0.15000
H 	H 	0.24020 0.03310 0.63040 0.07600
C 	C 	0.33260 0.14170 0.61700 0.09000
H 	H 	0.35260 0.12630 0.56210 -0.02100
C 	C 	0.16660 0.04720 0.78750 0.05900
N 	N 	0.57730 0.25720 0.69540 -0.24300
N 	N 	0.83810 0.09330 0.88750 -0.08800
N 	N 	0.89870 0.09450 0.95790 -0.13000
N 	N 	0.88800 0.17170 0.99810 -0.13500
N 	N 	0.82050 0.22320 0.95640 -0.08500
N 	N 	0.37010 0.21720 0.65270 -0.23800
N 	N 	0.12440 0.07600 0.86090 -0.08500
N 	N 	0.07150 0.00530 0.88620 -0.16100
N 	N 	0.08210 0.93660 0.83300 -0.09900
N 	N 	0.14180 0.96280 0.76890 -0.06900
N 	N 	0.08370 0.12400 0.05260 -0.26800
N 	N 	0.16960 0.13840 0.05610 -0.04400
N 	N 	0.25570 0.15330 0.05930 -0.09000
Cu	Cu	0.52147 0.70445 0.39894 0.86500
C 	C 	0.89090 0.81120 0.74460 0.11800
H 	H 	0.91610 0.87010 0.74560 0.00200
C 	C 	0.82300 0.78900 0.67930 -0.15000
H 	H 	0.80480 0.83110 0.63710 0.10100
C 	C 	0.78240 0.70330 0.67750 0.08000
C 	C 	0.81440 0.64440 0.74340 -0.14200
H 	H 	0.79010 0.58520 0.74440 0.09800
C 	C 	0.88070 0.67360 0.80560 0.10000
H 	H 	0.89800 0.63460 0.85070 -0.00800
C 	C 	0.70810 0.67350 0.61200 0.09500
C 	C 	0.15890 0.73610 0.76820 0.09300
H 	H 	0.13290 0.78830 0.74210 -0.01000
C 	C 	0.22410 0.68400 0.72300 -0.14400
H 	H 	0.24120 0.70070 0.66770 0.09500
C 	C 	0.26480 0.60620 0.75950 0.07100
C 	C 	0.23480 0.58490 0.84220 -0.14000
H 	H 	0.25980 0.53310 0.86960 0.09100
C 	C 	0.16740 0.64170 0.88300 0.09000
H 	H 	0.14740 0.62630 0.93790 -0.00900
C 	C 	0.33340 0.54720 0.71250 0.09300
N 	N 	0.92270 0.75720 0.80460 -0.22900
N 	N 	0.66190 0.59330 0.61250 -0.08600
N 	N 	0.60130 0.59450 0.54210 -0.14600
N 	N 	0.61200 0.67170 0.50190 -0.15300
N 	N 	0.67950 0.72320 0.54360 -0.09200
N 	N 	0.12990 0.71720 0.84730 -0.23600
N 	N 	0.37560 0.57600 0.63910 -0.08900
N 	N 	0.42850 0.50530 0.61380 -0.14700
N 	N 	0.41790 0.43660 0.66700 -0.11000
N 	N 	0.35820 0.46280 0.73110 -0.09000
N 	N 	0.41630 0.62400 0.44740 -0.24300
N 	N 	0.33040 0.63840 0.44390 -0.03600
N 	N 	0.24430 0.65330 0.44070 -0.07500
Cu	Cu	0.02147 0.79555 0.89894 0.85800
C 	C 	0.39090 0.68880 0.24460 0.11400
H 	H 	0.41610 0.62990 0.24560 -0.01700
C 	C 	0.32300 0.71100 0.17930 -0.15700
H 	H 	0.30480 0.66890 0.13710 0.08600
C 	C 	0.28240 0.79670 0.17750 0.07500
C 	C 	0.31440 0.85560 0.24340 -0.14700
H 	H 	0.29010 0.91480 0.24440 0.09800
C 	C 	0.38070 0.82640 0.30560 0.09600
H 	H 	0.39800 0.86540 0.35070 -0.01800
C 	C 	0.20810 0.82650 0.11200 0.08700
C 	C 	0.65890 0.76390 0.26820 0.09000
H 	H 	0.63290 0.71170 0.24210 -0.00700
C 	C 	0.72410 0.81600 0.22300 -0.13300
H 	H 	0.74120 0.79930 0.16770 0.08800
C 	C 	0.76480 0.89380 0.25950 0.06100
C 	C 	0.73480 0.91510 0.34220 -0.13000
H 	H 	0.75980 0.96690 0.36960 0.09700
C 	C 	0.66740 0.85830 0.38300 0.08900
H 	H 	0.64740 0.87370 0.43790 -0.00800
C 	C 	0.83340 0.95280 0.21250 0.13100
N 	N 	0.42270 0.74280 0.30460 -0.24200
N 	N 	0.16190 0.90670 0.11250 -0.08500
N 	N 	0.10130 0.90550 0.04210 -0.14800
N 	N 	0.11200 0.82830 0.00190 -0.16900
N 	N 	0.17950 0.77680 0.04360 -0.10500
N 	N 	0.62990 0.78280 0.34730 -0.23400
N 	N 	0.87560 0.92400 0.13910 -0.09300
N 	N 	0.92850 0.99470 0.11380 -0.11800
N 	N 	0.91790 0.06340 0.16700 -0.12400
N 	N 	0.85820 0.03720 0.23110 -0.11500
N 	N 	0.91630 0.87600 0.94740 -0.20700
N 	N 	0.83040 0.86160 0.94390 -0.02700
N 	N 	0.74430 0.84670 0.94070 -0.05300
Cu	Cu	0.47853 0.29555 0.60106 0.86300
C 	C 	0.10910 0.18880 0.25540 0.11400
H 	H 	0.08390 0.12990 0.25440 -0.03100
C 	C 	0.17700 0.21100 0.32070 -0.16400
H 	H 	0.19520 0.16890 0.36290 0.08600
C 	C 	0.21760 0.29670 0.32250 0.07500
C 	C 	0.18560 0.35560 0.25660 -0.15300
H 	H 	0.20990 0.41480 0.25560 0.08900
C 	C 	0.11930 0.32640 0.19440 0.09300
H 	H 	0.10200 0.36540 0.14930 -0.03600
C 	C 	0.29190 0.32650 0.38800 0.08600
C 	C 	0.84110 0.26390 0.23180 0.09200
H 	H 	0.86710 0.21170 0.25790 -0.00400
C 	C 	0.77590 0.31600 0.27700 -0.14200
H 	H 	0.75880 0.29930 0.33230 0.09400
C 	C 	0.73520 0.39380 0.24050 0.06800
C 	C 	0.76520 0.41510 0.15780 -0.14100
H 	H 	0.74020 0.46690 0.13040 0.08200
C 	C 	0.83260 0.35830 0.11700 0.08800
H 	H 	0.85260 0.37370 0.06210 -0.02100
C 	C 	0.66660 0.45280 0.28750 0.09300
N 	N 	0.07730 0.24280 0.19540 -0.25400
N 	N 	0.33810 0.40670 0.38750 -0.09000
N 	N 	0.39870 0.40550 0.45790 -0.14800
N 	N 	0.38800 0.32830 0.49810 -0.15600
N 	N 	0.32050 0.27680 0.45640 -0.09900
N 	N 	0.87010 0.28280 0.15270 -0.23700
N 	N 	0.62440 0.42400 0.36090 -0.09000
N 	N 	0.57150 0.49470 0.38620 -0.14700
N 	N 	0.58210 0.56340 0.33300 -0.11000
N 	N 	0.64180 0.53720 0.26890 -0.09100
N 	N 	0.58370 0.37600 0.55260 -0.24200
N 	N 	0.66960 0.36160 0.55610 -0.03500
N 	N 	0.75570 0.34670 0.55930 -0.06700
Cu	Cu	-0.00000 0.00000 -0.00000 0.82600
Cu	Cu	0.50000 0.50000 0.50000 0.87600
