data_crystal

_cell_length_a 11.16070
_cell_length_b 11.16070
_cell_length_c 21.97800
_cell_angle_alpha 90.00000
_cell_angle_beta  90.00000
_cell_angle_gamma 90.00000

_symmetry_space_group_name_	'P 1'
_symmetry_space_group_name_H-M	'P 1'

loop_
_symmetry_equiv_pos_as_xyz
  x,y,z

loop_
_atom_site_label
_atom_site_type_symbol
_atom_site_fract_x
_atom_site_fract_y
_atom_site_fract_z
_atom_site_charge
O 	O 	0.59290 0.14540 0.26015 -0.43700
N 	N 	0.74210 0.12550 0.19070 -0.33900
H 	H 	0.71790 0.05320 0.18060 0.08800
H 	H 	0.80510 0.15710 0.17260 0.13800
C 	C 	0.72350 0.30480 0.24900 -0.23800
N 	N 	0.88790 0.40730 0.18797 -0.22700
C 	C 	0.81530 0.36230 0.21696 0.16700
N 	N 	0.61060 0.41490 0.33300 -0.28100
C 	C 	0.66280 0.36710 0.29490 0.16900
C 	C 	0.68370 0.18720 0.23310 0.31400
O 	O 	0.09290 0.64540 0.76015 -0.47100
N 	N 	0.24210 0.62550 0.69070 -0.34600
H 	H 	0.21790 0.55320 0.68060 0.13200
H 	H 	0.30510 0.65710 0.67260 0.12600
C 	C 	0.22350 0.80480 0.74900 -0.25100
N 	N 	0.38790 0.90730 0.68797 -0.23400
C 	C 	0.31530 0.86230 0.71696 0.17600
N 	N 	0.11060 0.91490 0.83300 -0.25200
C 	C 	0.16280 0.86710 0.79490 0.17100
C 	C 	0.18370 0.68720 0.73310 0.32700
O 	O 	0.40710 0.85460 0.26015 -0.34900
N 	N 	0.25790 0.87450 0.19070 -0.35400
H 	H 	0.28210 0.94680 0.18060 0.21700
H 	H 	0.19490 0.84290 0.17260 0.13400
C 	C 	0.27650 0.69520 0.24900 -0.25000
N 	N 	0.11210 0.59270 0.18797 -0.32200
C 	C 	0.18470 0.63770 0.21696 0.12600
N 	N 	0.38940 0.58510 0.33300 -0.27900
C 	C 	0.33720 0.63290 0.29490 0.16400
C 	C 	0.31630 0.81280 0.23310 0.33700
O 	O 	0.90710 0.35460 0.76015 -0.31000
N 	N 	0.75790 0.37450 0.69070 -0.34100
H 	H 	0.78210 0.44680 0.68060 0.16500
H 	H 	0.69490 0.34290 0.67260 0.13200
C 	C 	0.77650 0.19520 0.74900 -0.22800
N 	N 	0.61210 0.09270 0.68797 -0.31500
C 	C 	0.68470 0.13770 0.71696 0.11600
N 	N 	0.88940 0.08510 0.83300 -0.24900
C 	C 	0.83720 0.13290 0.79490 0.15700
C 	C 	0.81630 0.31280 0.73310 0.32000
O 	O 	0.14540 0.40710 0.73985 -0.43800
N 	N 	0.12550 0.25790 0.80930 -0.32600
H 	H 	0.05320 0.28210 0.81940 0.07400
H 	H 	0.15710 0.19490 0.82740 0.08300
C 	C 	0.30480 0.27650 0.75100 -0.24800
N 	N 	0.40730 0.11210 0.81203 -0.32100
C 	C 	0.36230 0.18470 0.78304 0.11100
N 	N 	0.41490 0.38940 0.66700 -0.28100
C 	C 	0.36710 0.33720 0.70510 0.14800
C 	C 	0.18720 0.31630 0.76690 0.28700
O 	O 	0.64540 0.90710 0.23985 -0.30700
N 	N 	0.62550 0.75790 0.30930 -0.34300
H 	H 	0.55320 0.78210 0.31940 0.16600
H 	H 	0.65710 0.69490 0.32740 0.13500
C 	C 	0.80480 0.77650 0.25100 -0.22400
N 	N 	0.90730 0.61210 0.31203 -0.23100
C 	C 	0.86230 0.68470 0.28304 0.19100
N 	N 	0.91490 0.88940 0.16700 -0.16300
C 	C 	0.86710 0.83720 0.20510 0.23800
C 	C 	0.68720 0.81630 0.26690 0.33200
O 	O 	0.85460 0.59290 0.73985 -0.34900
N 	N 	0.87450 0.74210 0.80930 -0.36600
H 	H 	0.94680 0.71790 0.81940 0.23300
H 	H 	0.84290 0.80510 0.82740 0.18800
C 	C 	0.69520 0.72350 0.75100 -0.24100
N 	N 	0.59270 0.88790 0.81203 -0.22700
C 	C 	0.63770 0.81530 0.78304 0.18100
N 	N 	0.58510 0.61060 0.66700 -0.27800
C 	C 	0.63290 0.66280 0.70510 0.18500
C 	C 	0.81280 0.68370 0.76690 0.36500
O 	O 	0.35460 0.09290 0.23985 -0.48000
N 	N 	0.37450 0.24210 0.30930 -0.34500
H 	H 	0.44680 0.21790 0.31940 0.13200
H 	H 	0.34290 0.30510 0.32740 0.12300
C 	C 	0.19520 0.22350 0.25100 -0.25600
N 	N 	0.09270 0.38790 0.31203 -0.31800
C 	C 	0.13770 0.31530 0.28304 0.09800
N 	N 	0.08510 0.11060 0.16700 -0.34600
C 	C 	0.13290 0.16280 0.20510 0.08500
C 	C 	0.31280 0.18370 0.26690 0.31400
O 	O 	0.90710 0.14540 0.48985 -0.33500
N 	N 	0.75790 0.12550 0.55930 -0.32800
H 	H 	0.78210 0.05320 0.56940 0.09900
H 	H 	0.69490 0.15710 0.57740 0.11100
C 	C 	0.77650 0.30480 0.50100 -0.22700
N 	N 	0.61210 0.40730 0.56203 -0.28700
C 	C 	0.68470 0.36230 0.53304 0.14700
N 	N 	0.88940 0.41490 0.41700 -0.22000
C 	C 	0.83720 0.36710 0.45510 0.19000
C 	C 	0.81630 0.18720 0.51690 0.29900
O 	O 	0.40710 0.64540 0.98985 -0.37600
N 	N 	0.25790 0.62550 0.05930 -0.33500
H 	H 	0.28210 0.55320 0.06940 0.13700
H 	H 	0.19490 0.65710 0.07740 0.10600
C 	C 	0.27650 0.80480 0.00100 -0.26900
N 	N 	0.11210 0.90730 0.06203 -0.26900
C 	C 	0.18470 0.86230 0.03304 0.15500
N 	N 	0.38940 0.91490 0.91700 -0.22600
C 	C 	0.33720 0.86710 0.95510 0.22800
C 	C 	0.31630 0.68720 0.01690 0.29500
O 	O 	0.09290 0.85460 0.48985 -0.41400
N 	N 	0.24210 0.87450 0.55930 -0.36000
H 	H 	0.21790 0.94680 0.56940 0.21000
H 	H 	0.30510 0.84290 0.57740 0.15300
C 	C 	0.22350 0.69520 0.50100 -0.25700
N 	N 	0.38790 0.59270 0.56203 -0.29100
C 	C 	0.31530 0.63770 0.53304 0.14400
N 	N 	0.11060 0.58510 0.41700 -0.31200
C 	C 	0.16280 0.63290 0.45510 0.13600
C 	C 	0.18370 0.81280 0.51690 0.34500
O 	O 	0.59290 0.35460 0.98985 -0.38300
N 	N 	0.74210 0.37450 0.05930 -0.34700
H 	H 	0.71790 0.44680 0.06940 0.15300
H 	H 	0.80510 0.34290 0.07740 0.15700
C 	C 	0.72350 0.19520 0.00100 -0.26300
N 	N 	0.88790 0.09270 0.06203 -0.25700
C 	C 	0.81530 0.13770 0.03304 0.13400
N 	N 	0.61060 0.08510 0.91700 -0.31700
C 	C 	0.66280 0.13290 0.95510 0.16400
C 	C 	0.68370 0.31280 0.01690 0.31000
O 	O 	0.35460 0.40710 0.01015 -0.43800
N 	N 	0.37450 0.25790 0.94070 -0.34400
H 	H 	0.44680 0.28210 0.93060 0.14400
H 	H 	0.34290 0.19490 0.92260 0.10600
C 	C 	0.19520 0.27650 0.99900 -0.22400
N 	N 	0.09270 0.11210 0.93797 -0.34400
C 	C 	0.13770 0.18470 0.96696 0.08300
N 	N 	0.08510 0.38940 0.08300 -0.30700
C 	C 	0.13290 0.33720 0.04490 0.08500
C 	C 	0.31280 0.31630 0.98310 0.33100
O 	O 	0.85460 0.90710 0.51015 -0.25100
N 	N 	0.87450 0.75790 0.44070 -0.35600
H 	H 	0.94680 0.78210 0.43060 0.24100
H 	H 	0.84290 0.69490 0.42260 0.16100
C 	C 	0.69520 0.77650 0.49900 -0.23000
N 	N 	0.59270 0.61210 0.43797 -0.28800
C 	C 	0.63770 0.68470 0.46696 0.16100
N 	N 	0.58510 0.88940 0.58300 -0.21800
C 	C 	0.63290 0.83720 0.54490 0.20500
C 	C 	0.81280 0.81630 0.48310 0.34900
O 	O 	0.64540 0.59290 0.01015 -0.43200
N 	N 	0.62550 0.74210 0.94070 -0.35800
H 	H 	0.55320 0.71790 0.93060 0.16100
H 	H 	0.65710 0.80510 0.92260 0.16400
C 	C 	0.80480 0.72350 0.99900 -0.21100
N 	N 	0.90730 0.88790 0.93797 -0.17000
C 	C 	0.86230 0.81530 0.96696 0.21300
N 	N 	0.91490 0.61060 0.08300 -0.21400
C 	C 	0.86710 0.66280 0.04490 0.18900
C 	C 	0.68720 0.68370 0.98310 0.37100
O 	O 	0.14540 0.09290 0.51015 -0.50500
N 	N 	0.12550 0.24210 0.44070 -0.33200
H 	H 	0.05320 0.21790 0.43060 0.06400
H 	H 	0.15710 0.30510 0.42260 0.10200
C 	C 	0.30480 0.22350 0.49900 -0.25500
N 	N 	0.40730 0.38790 0.43797 -0.29000
C 	C 	0.36230 0.31530 0.46696 0.13000
N 	N 	0.41490 0.11060 0.58300 -0.31500
C 	C 	0.36710 0.16280 0.54490 0.11900
C 	C 	0.18720 0.18370 0.48310 0.29400
Cu	Cu	0.50000 0.50000 0.38882 0.86500
Cu	Cu	0.00000 0.00000 0.88882 0.70600
Cu	Cu	0.50000 0.50000 0.61118 0.86600
Cu	Cu	-0.00000 -0.00000 0.11118 0.70200
Cu	Cu	-0.00000 0.50000 0.36118 0.78400
Cu	Cu	0.50000 0.00000 0.86118 0.78500
Cu	Cu	-0.00000 0.50000 0.13882 0.78300
Cu	Cu	0.50000 -0.00000 0.63882 0.78400
Cu	Cu	0.50000 0.00000 0.25000 0.84000
Cu	Cu	-0.00000 0.50000 0.75000 0.84100
Cu	Cu	-0.00000 0.00000 0.50000 0.75700
Cu	Cu	0.50000 0.50000 -0.00000 0.91200
