data_crystal

_cell_length_a 9.78210
_cell_length_b 19.91600
_cell_length_c 16.10470
_cell_angle_alpha 90.00000
_cell_angle_beta  93.58100
_cell_angle_gamma 90.00000

_symmetry_space_group_name_	'P 1'
_symmetry_space_group_name_H-M	'P 1'

loop_
_symmetry_equiv_pos_as_xyz
  x,y,z

loop_
_atom_site_label
_atom_site_type_symbol
_atom_site_fract_x
_atom_site_fract_y
_atom_site_fract_z
_atom_site_charge
N 	N 	0.44590 0.08970 0.41550 -0.23500
N 	N 	0.94740 0.41250 0.91430 -0.18800
O 	O 	0.14520 0.43060 0.06220 -0.48600
O 	O 	0.35440 0.47450 0.09130 -0.45600
O 	O 	0.63530 0.06810 0.56780 -0.45900
O 	O 	0.84990 0.03010 0.58740 -0.46500
C 	C 	0.26280 0.43000 0.09690 0.39400
C 	C 	0.29900 0.37050 0.15140 -0.15200
C 	C 	0.25280 0.30630 0.12900 0.04700
H 	H 	0.19740 0.30030 0.07890 -0.01100
C 	C 	0.28630 0.25160 0.17820 -0.12200
H 	H 	0.25900 0.20800 0.15980 0.04300
C 	C 	0.35980 0.25910 0.25460 0.03600
C 	C 	0.40420 0.32280 0.27700 -0.11600
H 	H 	0.45400 0.32930 0.32890 0.06700
C 	C 	0.37780 0.37730 0.22540 0.05400
H 	H 	0.41420 0.42000 0.24100 0.01900
C 	C 	0.42330 0.08220 0.33290 0.06000
H 	H 	0.42640 0.03820 0.31040 -0.03300
C 	C 	0.39580 0.13510 0.27920 -0.12800
H 	H 	0.38180 0.12690 0.22120 0.04700
C 	C 	0.38830 0.20050 0.30970 0.03900
C 	C 	0.41240 0.20760 0.39620 -0.12200
H 	H 	0.40890 0.25080 0.42100 0.06700
C 	C 	0.44110 0.15220 0.44520 0.06600
H 	H 	0.45850 0.15870 0.50330 0.00300
C 	C 	0.75750 0.07200 0.59610 0.38300
C 	C 	0.79270 0.13390 0.64830 -0.06900
C 	C 	0.69440 0.18220 0.66070 -0.02000
H 	H 	0.60520 0.17770 0.63440 0.05100
C 	C 	0.72530 0.23750 0.71170 -0.02200
H 	H 	0.65640 0.27000 0.72000 0.03900
C 	C 	0.85500 0.24590 0.75030 -0.06700
C 	C 	0.95530 0.19750 0.73380 0.08200
H 	H 	0.04590 0.20250 0.75790 -0.02600
C 	C 	0.92390 0.14360 0.68350 -0.06300
H 	H 	0.99350 0.11220 0.67260 0.08100
C 	C 	0.81980 0.39220 0.89550 0.13000
H 	H 	0.74750 0.41580 0.91920 0.00200
C 	C 	0.78610 0.33900 0.84360 -0.18600
H 	H 	0.69290 0.32640 0.83330 0.10300
C 	C 	0.88730 0.30390 0.80680 0.18500
C 	C 	0.02110 0.32500 0.82680 -0.23300
H 	H 	0.09570 0.30250 0.80410 0.10600
C 	C 	0.04460 0.37830 0.87920 0.08400
H 	H 	0.13680 0.39170 0.89130 0.01200
N 	N 	0.55410 0.58970 0.08450 -0.19600
N 	N 	0.05260 0.91250 0.58570 -0.22800
O 	O 	0.85480 0.93060 0.43780 -0.38000
O 	O 	0.64560 0.97450 0.40870 -0.37300
O 	O 	0.36470 0.56810 0.93220 -0.41400
O 	O 	0.15010 0.53010 0.91260 -0.43100
C 	C 	0.73720 0.93000 0.40310 0.37800
C 	C 	0.70100 0.87050 0.34860 -0.11700
C 	C 	0.74720 0.80630 0.37100 0.04400
H 	H 	0.80260 0.80030 0.42110 0.03100
C 	C 	0.71370 0.75160 0.32180 -0.11600
H 	H 	0.74100 0.70800 0.34020 0.07100
C 	C 	0.64020 0.75910 0.24540 0.05200
C 	C 	0.59580 0.82280 0.22300 -0.11200
H 	H 	0.54600 0.82930 0.17110 0.06500
C 	C 	0.62220 0.87730 0.27460 0.04500
H 	H 	0.58580 0.92000 0.25900 0.04100
C 	C 	0.57670 0.58220 0.16710 0.04500
H 	H 	0.57360 0.53820 0.18960 0.01400
C 	C 	0.60420 0.63510 0.22080 -0.08700
H 	H 	0.61820 0.62690 0.27880 0.05900
C 	C 	0.61170 0.70050 0.19030 -0.00600
C 	C 	0.58760 0.70760 0.10380 -0.01400
H 	H 	0.59110 0.75080 0.07900 0.01400
C 	C 	0.55890 0.65220 0.05480 -0.14500
H 	H 	0.54150 0.65870 0.99670 0.13700
C 	C 	0.24250 0.57200 0.90390 0.42600
C 	C 	0.20730 0.63390 0.85170 -0.18200
C 	C 	0.30560 0.68220 0.83930 0.10500
H 	H 	0.39480 0.67770 0.86560 0.01600
C 	C 	0.27470 0.73750 0.78830 -0.16400
H 	H 	0.34360 0.77000 0.78000 0.09500
C 	C 	0.14500 0.74590 0.74970 0.12600
C 	C 	0.04470 0.69750 0.76620 -0.26700
H 	H 	0.95410 0.70250 0.74210 0.15600
C 	C 	0.07610 0.64360 0.81650 0.14500
H 	H 	0.00650 0.61220 0.82740 -0.01900
C 	C 	0.18020 0.89220 0.60450 0.05600
H 	H 	0.25250 0.91580 0.58080 0.02500
C 	C 	0.21390 0.83900 0.65640 -0.07700
H 	H 	0.30710 0.82640 0.66670 0.06300
C 	C 	0.11270 0.80390 0.69320 -0.03800
C 	C 	0.97890 0.82500 0.67320 -0.03600
H 	H 	0.90430 0.80250 0.69590 0.05600
C 	C 	0.95540 0.87830 0.62080 0.10600
H 	H 	0.86320 0.89170 0.60870 0.01700
N 	N 	0.55410 0.91030 0.58450 -0.20200
N 	N 	0.05260 0.58750 0.08570 -0.26600
O 	O 	0.85480 0.56940 0.93780 -0.37300
O 	O 	0.64560 0.52550 0.90870 -0.40400
O 	O 	0.36470 0.93190 0.43220 -0.41300
O 	O 	0.15010 0.96990 0.41260 -0.40700
C 	C 	0.73720 0.57000 0.90310 0.38000
C 	C 	0.70100 0.62950 0.84860 -0.11300
C 	C 	0.74720 0.69370 0.87100 0.03800
H 	H 	0.80260 0.69970 0.92110 0.05600
C 	C 	0.71370 0.74840 0.82180 -0.09800
H 	H 	0.74100 0.79200 0.84020 0.08200
C 	C 	0.64020 0.74090 0.74540 0.03100
C 	C 	0.59580 0.67720 0.72300 -0.10000
H 	H 	0.54600 0.67070 0.67110 0.06200
C 	C 	0.62220 0.62270 0.77460 0.03900
H 	H 	0.58580 0.58000 0.75900 0.02700
C 	C 	0.57670 0.91780 0.66710 0.07800
H 	H 	0.57360 0.96180 0.68960 0.04600
C 	C 	0.60420 0.86490 0.72080 -0.12000
H 	H 	0.61820 0.87310 0.77880 0.09100
C 	C 	0.61170 0.79950 0.69030 0.05100
C 	C 	0.58760 0.79240 0.60380 -0.12400
H 	H 	0.59110 0.74920 0.57900 0.07000
C 	C 	0.55890 0.84780 0.55480 0.06900
H 	H 	0.54150 0.84130 0.49670 0.00600
C 	C 	0.24250 0.92800 0.40390 0.41700
C 	C 	0.20730 0.86610 0.35170 -0.17900
C 	C 	0.30560 0.81780 0.33930 0.09400
H 	H 	0.39480 0.82230 0.36560 0.01300
C 	C 	0.27470 0.76250 0.28830 -0.16600
H 	H 	0.34360 0.73000 0.28000 0.08600
C 	C 	0.14500 0.75410 0.24970 0.11600
C 	C 	0.04470 0.80250 0.26620 -0.26700
H 	H 	0.95410 0.79750 0.24210 0.15500
C 	C 	0.07610 0.85640 0.31650 0.13700
H 	H 	0.00650 0.88780 0.32740 -0.01300
C 	C 	0.18020 0.60780 0.10450 0.04500
H 	H 	0.25250 0.58420 0.08080 -0.01100
C 	C 	0.21390 0.66100 0.15640 -0.09300
H 	H 	0.30710 0.67360 0.16670 0.06000
C 	C 	0.11270 0.69610 0.19320 -0.04500
C 	C 	0.97890 0.67500 0.17320 -0.04600
H 	H 	0.90430 0.69750 0.19590 0.05300
C 	C 	0.95540 0.62170 0.12080 0.09500
H 	H 	0.86320 0.60830 0.10870 -0.00700
N 	N 	0.44590 0.41030 0.91550 -0.24100
N 	N 	0.94740 0.08750 0.41430 -0.22100
O 	O 	0.14520 0.06940 0.56220 -0.47700
O 	O 	0.35440 0.02550 0.59130 -0.48500
O 	O 	0.63530 0.43190 0.06780 -0.46000
O 	O 	0.84990 0.46990 0.08740 -0.44300
C 	C 	0.26280 0.07000 0.59690 0.39600
C 	C 	0.29900 0.12950 0.65140 -0.14800
C 	C 	0.25280 0.19370 0.62900 0.04100
H 	H 	0.19740 0.19970 0.57890 0.01500
C 	C 	0.28630 0.24840 0.67820 -0.10300
H 	H 	0.25900 0.29200 0.65980 0.05500
C 	C 	0.35980 0.24090 0.75460 0.01500
C 	C 	0.40420 0.17720 0.77700 -0.10400
H 	H 	0.45400 0.17070 0.82890 0.06400
C 	C 	0.37780 0.12270 0.72540 0.04800
H 	H 	0.41420 0.08000 0.74100 0.00700
C 	C 	0.42330 0.41780 0.83290 0.09300
H 	H 	0.42640 0.46180 0.81040 -0.00000
C 	C 	0.39580 0.36490 0.77920 -0.16100
H 	H 	0.38180 0.37310 0.72120 0.07900
C 	C 	0.38830 0.29950 0.80970 0.09700
C 	C 	0.41240 0.29240 0.89620 -0.23300
H 	H 	0.40890 0.24920 0.92100 0.12400
C 	C 	0.44110 0.34780 0.94520 0.28200
H 	H 	0.45850 0.34130 0.00330 -0.12800
C 	C 	0.75750 0.42800 0.09610 0.37400
C 	C 	0.79270 0.36610 0.14830 -0.06500
C 	C 	0.69440 0.31780 0.16070 -0.03300
H 	H 	0.60520 0.32230 0.13440 0.04900
C 	C 	0.72530 0.26250 0.21170 -0.02000
H 	H 	0.65640 0.23000 0.22000 0.02900
C 	C 	0.85500 0.25410 0.25030 -0.08200
C 	C 	0.95530 0.30250 0.23380 0.09000
H 	H 	0.04590 0.29750 0.25790 -0.03300
C 	C 	0.92390 0.35640 0.18350 -0.07600
H 	H 	0.99350 0.38780 0.17260 0.08900
C 	C 	0.81980 0.10780 0.39550 0.12200
H 	H 	0.74750 0.08420 0.41920 -0.03400
C 	C 	0.78610 0.16100 0.34360 -0.20500
H 	H 	0.69290 0.17360 0.33330 0.10100
C 	C 	0.88730 0.19610 0.30680 0.18700
C 	C 	0.02110 0.17500 0.32680 -0.25000
H 	H 	0.09570 0.19750 0.30410 0.10400
C 	C 	0.04460 0.12170 0.37920 0.06800
H 	H 	0.13680 0.10830 0.39130 -0.01200
Mn	Mn	0.50000 0.00000 0.50000 1.26100
Mn	Mn	0.50000 0.50000 -0.00000 1.26500
Mn	Mn	-0.00000 0.50000 -0.00000 1.24300
Mn	Mn	0.00000 0.00000 0.50000 1.23900
