data_crystal

_cell_length_a 9.84570
_cell_length_b 19.49370
_cell_length_c 16.74550
_cell_angle_alpha 90.00000
_cell_angle_beta  94.34800
_cell_angle_gamma 90.00000

_symmetry_space_group_name_	'P 1'
_symmetry_space_group_name_H-M	'P 1'

loop_
_symmetry_equiv_pos_as_xyz
  x,y,z

loop_
_atom_site_label
_atom_site_type_symbol
_atom_site_fract_x
_atom_site_fract_y
_atom_site_fract_z
_atom_site_charge
N 	N 	0.44500 0.08905 0.41420 -0.24100
N 	N 	0.94540 0.41340 0.91220 -0.19000
O 	O 	0.14410 0.42745 0.05820 -0.49200
O 	O 	0.35230 0.47094 0.08453 -0.47000
O 	O 	0.63540 0.07037 0.56497 -0.46300
O 	O 	0.84980 0.03341 0.58026 -0.46800
C 	C 	0.26210 0.42670 0.09130 0.40700
C 	C 	0.29680 0.36670 0.14620 -0.17200
C 	C 	0.25560 0.30100 0.12640 0.06100
H 	H 	0.20560 0.29320 0.07790 -0.02200
C 	C 	0.28690 0.24640 0.17700 -0.13900
H 	H 	0.26090 0.20230 0.16110 0.04900
C 	C 	0.35630 0.25620 0.25110 0.04100
C 	C 	0.39660 0.32310 0.27160 -0.13100
H 	H 	0.44190 0.33150 0.32140 0.07400
C 	C 	0.37020 0.37660 0.21930 0.06800
H 	H 	0.40220 0.42030 0.23310 0.01300
C 	C 	0.42670 0.07940 0.33540 0.07500
H 	H 	0.43330 0.03490 0.31590 -0.04000
C 	C 	0.39840 0.13160 0.28130 -0.14800
H 	H 	0.38740 0.12190 0.22690 0.05400
C 	C 	0.38620 0.19840 0.30760 0.05100
C 	C 	0.40380 0.20840 0.38980 -0.14000
H 	H 	0.39540 0.25210 0.41110 0.07500
C 	C 	0.43380 0.15320 0.43980 0.07900
H 	H 	0.44700 0.16140 0.49450 -0.00300
C 	C 	0.75620 0.07460 0.59210 0.39100
C 	C 	0.79100 0.13560 0.64590 -0.06900
C 	C 	0.69230 0.18170 0.66370 -0.02600
H 	H 	0.60350 0.17580 0.64170 0.05400
C 	C 	0.72320 0.23670 0.71420 -0.01700
H 	H 	0.65490 0.26750 0.72530 0.03800
C 	C 	0.85350 0.24660 0.74830 -0.07700
C 	C 	0.95290 0.20170 0.72760 0.08700
H 	H 	0.04220 0.20850 0.74820 -0.02800
C 	C 	0.92310 0.14660 0.67670 -0.07100
H 	H 	0.99220 0.11720 0.66340 0.08300
C 	C 	0.81870 0.39220 0.89450 0.14300
H 	H 	0.74850 0.41450 0.91810 -0.00100
C 	C 	0.78610 0.33880 0.84290 -0.20500
H 	H 	0.69570 0.32530 0.83370 0.11300
C 	C 	0.88590 0.30490 0.80460 0.19800
C 	C 	0.01740 0.32740 0.82360 -0.24800
H 	H 	0.08940 0.30650 0.80020 0.11500
C 	C 	0.04280 0.38060 0.87710 0.09400
H 	H 	0.13270 0.39400 0.88910 0.00900
N 	N 	0.55500 0.58905 0.08580 -0.24300
N 	N 	0.05460 0.91340 0.58780 -0.22200
O 	O 	0.85590 0.92745 0.44180 -0.38200
O 	O 	0.64770 0.97094 0.41547 -0.38000
O 	O 	0.36460 0.57037 0.93503 -0.40500
O 	O 	0.15020 0.53341 0.91974 -0.42700
C 	C 	0.73790 0.92670 0.40870 0.38800
C 	C 	0.70320 0.86670 0.35380 -0.11300
C 	C 	0.74440 0.80100 0.37360 0.03900
H 	H 	0.79440 0.79320 0.42210 0.03000
C 	C 	0.71310 0.74640 0.32300 -0.10500
H 	H 	0.73910 0.70230 0.33890 0.06800
C 	C 	0.64370 0.75620 0.24890 0.02000
C 	C 	0.60340 0.82310 0.22840 -0.09800
H 	H 	0.55810 0.83150 0.17860 0.06100
C 	C 	0.62980 0.87660 0.28070 0.03600
H 	H 	0.59780 0.92030 0.26690 0.04300
C 	C 	0.57330 0.57940 0.16460 0.08800
H 	H 	0.56670 0.53490 0.18410 -0.00200
C 	C 	0.60160 0.63160 0.21870 -0.15300
H 	H 	0.61260 0.62190 0.27310 0.08200
C 	C 	0.61380 0.69840 0.19240 0.06900
C 	C 	0.59620 0.70840 0.11020 -0.15800
H 	H 	0.60460 0.75210 0.08890 0.07000
C 	C 	0.56620 0.65320 0.06020 0.08200
H 	H 	0.55300 0.66140 0.00550 -0.04400
C 	C 	0.24380 0.57460 0.90790 0.44000
C 	C 	0.20900 0.63560 0.85410 -0.20200
C 	C 	0.30770 0.68170 0.83630 0.13700
H 	H 	0.39650 0.67580 0.85830 0.01300
C 	C 	0.27680 0.73670 0.78580 -0.20200
H 	H 	0.34510 0.76750 0.77470 0.11100
C 	C 	0.14650 0.74660 0.75170 0.16000
C 	C 	0.04710 0.70170 0.77240 -0.30100
H 	H 	0.95780 0.70850 0.75180 0.17000
C 	C 	0.07690 0.64660 0.82330 0.17200
H 	H 	0.00780 0.61720 0.83660 -0.02800
C 	C 	0.18130 0.89220 0.60550 0.05700
H 	H 	0.25150 0.91450 0.58190 0.02600
C 	C 	0.21390 0.83880 0.65710 -0.07600
H 	H 	0.30430 0.82530 0.66630 0.06300
C 	C 	0.11410 0.80490 0.69540 -0.04600
C 	C 	0.98260 0.82740 0.67640 -0.03200
H 	H 	0.91060 0.80650 0.69980 0.05500
C 	C 	0.95720 0.88060 0.62290 0.09800
H 	H 	0.86730 0.89400 0.61090 0.01900
N 	N 	0.55500 0.91095 0.58580 -0.20700
N 	N 	0.05460 0.58660 0.08780 -0.26200
O 	O 	0.85590 0.57255 0.94180 -0.37000
O 	O 	0.64770 0.52906 0.91547 -0.40300
O 	O 	0.36460 0.92963 0.43503 -0.41900
O 	O 	0.15020 0.96659 0.41974 -0.41200
C 	C 	0.73790 0.57330 0.90870 0.39700
C 	C 	0.70320 0.63330 0.85380 -0.11400
C 	C 	0.74440 0.69900 0.87360 0.05100
H 	H 	0.79440 0.70680 0.92210 0.05600
C 	C 	0.71310 0.75360 0.82300 -0.10700
H 	H 	0.73910 0.79770 0.83890 0.08900
C 	C 	0.64370 0.74380 0.74890 0.03200
C 	C 	0.60340 0.67690 0.72840 -0.10800
H 	H 	0.55810 0.66850 0.67860 0.06600
C 	C 	0.62980 0.62340 0.78070 0.04500
H 	H 	0.59780 0.57970 0.76690 0.02400
C 	C 	0.57330 0.92060 0.66460 0.09200
H 	H 	0.56670 0.96510 0.68410 0.04100
C 	C 	0.60160 0.86840 0.71870 -0.14100
H 	H 	0.61260 0.87810 0.77310 0.10200
C 	C 	0.61380 0.80160 0.69240 0.06600
C 	C 	0.59620 0.79160 0.61020 -0.14400
H 	H 	0.60460 0.74790 0.58890 0.07900
C 	C 	0.56620 0.84680 0.56020 0.08300
H 	H 	0.55300 0.83860 0.50550 0.00000
C 	C 	0.24380 0.92540 0.40790 0.43600
C 	C 	0.20900 0.86440 0.35410 -0.20700
C 	C 	0.30770 0.81830 0.33630 0.13300
H 	H 	0.39650 0.82420 0.35830 0.00000
C 	C 	0.27680 0.76330 0.28580 -0.21000
H 	H 	0.34510 0.73250 0.27470 0.10300
C 	C 	0.14650 0.75340 0.25170 0.15300
C 	C 	0.04710 0.79830 0.27240 -0.30600
H 	H 	0.95780 0.79150 0.25180 0.17000
C 	C 	0.07690 0.85340 0.32330 0.16900
H 	H 	0.00780 0.88280 0.33660 -0.02500
C 	C 	0.18130 0.60780 0.10550 0.04500
H 	H 	0.25150 0.58550 0.08190 -0.01200
C 	C 	0.21390 0.66120 0.15710 -0.09200
H 	H 	0.30430 0.67470 0.16630 0.05900
C 	C 	0.11410 0.69510 0.19540 -0.05500
C 	C 	0.98260 0.67260 0.17640 -0.04200
H 	H 	0.91060 0.69350 0.19980 0.05000
C 	C 	0.95720 0.61940 0.12290 0.08700
H 	H 	0.86730 0.60600 0.11090 -0.00800
N 	N 	0.44500 0.41095 0.91420 -0.20300
N 	N 	0.94540 0.08660 0.41220 -0.22600
O 	O 	0.14410 0.07255 0.55820 -0.48000
O 	O 	0.35230 0.02906 0.58453 -0.49400
O 	O 	0.63540 0.42963 0.06497 -0.47600
O 	O 	0.84980 0.46659 0.08026 -0.45300
C 	C 	0.26210 0.07330 0.59130 0.41700
C 	C 	0.29680 0.13330 0.64620 -0.17300
C 	C 	0.25560 0.19900 0.62640 0.07300
H 	H 	0.20560 0.20680 0.57790 0.00400
C 	C 	0.28690 0.25360 0.67700 -0.14100
H 	H 	0.26090 0.29770 0.66110 0.07100
C 	C 	0.35630 0.24380 0.75110 0.05200
C 	C 	0.39660 0.17690 0.77160 -0.14200
H 	H 	0.44190 0.16850 0.82140 0.07900
C 	C 	0.37020 0.12340 0.71930 0.07700
H 	H 	0.40220 0.07970 0.73310 -0.00600
C 	C 	0.42670 0.42060 0.83540 0.07900
H 	H 	0.43330 0.46510 0.81590 0.00300
C 	C 	0.39840 0.36840 0.78130 -0.13600
H 	H 	0.38740 0.37810 0.72690 0.07400
C 	C 	0.38620 0.30160 0.80760 0.04900
C 	C 	0.40380 0.29160 0.88980 -0.12600
H 	H 	0.39540 0.24790 0.91110 0.08500
C 	C 	0.43380 0.34680 0.93980 0.08000
H 	H 	0.44700 0.33860 0.99450 0.04200
C 	C 	0.75620 0.42540 0.09210 0.38600
C 	C 	0.79100 0.36440 0.14590 -0.07000
C 	C 	0.69230 0.31830 0.16370 -0.03400
H 	H 	0.60350 0.32420 0.14170 0.04300
C 	C 	0.72320 0.26330 0.21420 -0.01900
H 	H 	0.65490 0.23250 0.22530 0.02800
C 	C 	0.85350 0.25340 0.24830 -0.09100
C 	C 	0.95290 0.29830 0.22760 0.09300
H 	H 	0.04220 0.29150 0.24820 -0.03400
C 	C 	0.92310 0.35340 0.17670 -0.08100
H 	H 	0.99220 0.38280 0.16340 0.08900
C 	C 	0.81870 0.10780 0.39450 0.13500
H 	H 	0.74850 0.08550 0.41810 -0.03900
C 	C 	0.78610 0.16120 0.34290 -0.22600
H 	H 	0.69570 0.17470 0.33370 0.11100
C 	C 	0.88590 0.19510 0.30460 0.19800
C 	C 	0.01740 0.17260 0.32360 -0.26600
H 	H 	0.08940 0.19350 0.30020 0.11200
C 	C 	0.04280 0.11940 0.37710 0.07900
H 	H 	0.13270 0.10600 0.38910 -0.01800
Mn	Mn	0.50000 0.00000 0.50000 1.26100
Mn	Mn	0.50000 0.50000 -0.00000 1.25900
Mn	Mn	-0.00000 0.50000 -0.00000 1.24100
Mn	Mn	0.00000 0.00000 0.50000 1.24100
