data_crystal

_cell_length_a 10.63200
_cell_length_b 13.86200
_cell_length_c 19.49800
_cell_angle_alpha 90.00000
_cell_angle_beta  99.98000
_cell_angle_gamma 90.00000

_symmetry_space_group_name_	'P 1'
_symmetry_space_group_name_H-M	'P 1'

loop_
_symmetry_equiv_pos_as_xyz
  x,y,z

loop_
_atom_site_label
_atom_site_type_symbol
_atom_site_fract_x
_atom_site_fract_y
_atom_site_fract_z
_atom_site_charge
O 	O 	0.78400 0.42360 0.87866 -0.40300
Er	Er	0.15502 0.06708 0.55591 1.56300
Cu	Cu	0.75657 0.06790 0.78942 0.89500
N 	N 	0.87100 0.17980 0.77960 -0.21500
C 	C 	0.84890 0.26070 0.81240 0.05500
H 	H 	0.78390 0.26050 0.83880 0.00500
O 	O 	0.94250 0.50830 0.84891 -0.36600
C 	C 	0.91710 0.34470 0.80930 -0.09000
N 	N 	0.35830 0.45530 0.70600 -0.21500
O 	O 	0.19590 0.43910 0.82397 -0.29400
C 	C 	0.01810 0.34460 0.77210 -0.00800
O 	O 	0.10070 0.47610 0.71587 -0.37400
C 	C 	0.03960 0.26110 0.73750 -0.07000
H 	H 	0.10490 0.25920 0.71130 0.07600
O 	O 	0.28670 0.13290 0.65912 -0.36900
C 	C 	0.96480 0.18030 0.74130 0.04500
H 	H 	0.97960 0.12510 0.71670 0.03500
C 	C 	0.87960 0.43130 0.84750 0.30000
O 	O 	0.26990 0.22280 0.56410 -0.38700
C 	C 	0.11090 0.42770 0.77240 0.30700
O 	O 	0.61160 0.15840 0.78135 -0.38400
C 	C 	0.31500 0.37900 0.66690 0.06000
H 	H 	0.23940 0.38570 0.63510 0.00900
O 	O 	0.58620 0.15260 0.66500 -0.31100
O 	O 	0.92030 0.06100 0.51863 -0.64300
C 	C 	0.37590 0.29150 0.67100 -0.07700
O 	O 	0.00290 0.19130 0.57095 -0.49900
C 	C 	0.49080 0.28130 0.71660 -0.00700
C 	C 	0.53880 0.36060 0.75590 -0.08600
H 	H 	0.61650 0.35640 0.78610 0.07900
C 	C 	0.47050 0.44560 0.75000 0.05800
H 	H 	0.50280 0.49810 0.77730 0.02100
C 	C 	0.56790 0.18880 0.71910 0.31000
C 	C 	0.30860 0.20990 0.62800 0.30800
C 	C 	0.77390 0.18620 0.53800 -1.27100
H 	H 	0.73980 0.20170 0.49040 0.40000
H 	H 	0.77790 0.24360 0.56580 0.41900
H 	H 	0.71970 0.13970 0.55490 0.40500
C 	C 	0.90510 0.14510 0.54240 0.71900
O 	O 	0.21600 0.92360 0.62134 -0.40400
Er	Er	0.84498 0.56708 0.94409 1.55800
Cu	Cu	0.24343 0.56790 0.71058 0.89500
N 	N 	0.12900 0.67980 0.72040 -0.21600
C 	C 	0.15110 0.76070 0.68760 0.05400
H 	H 	0.21610 0.76050 0.66120 0.00400
O 	O 	0.05750 0.00830 0.65109 -0.36400
C 	C 	0.08290 0.84470 0.69070 -0.08800
N 	N 	0.64170 0.95530 0.79400 -0.21400
O 	O 	0.80410 0.93910 0.67603 -0.29400
C 	C 	0.98190 0.84460 0.72790 -0.00800
O 	O 	0.89930 0.97610 0.78413 -0.37300
C 	C 	0.96040 0.76110 0.76250 -0.07500
H 	H 	0.89510 0.75920 0.78870 0.07700
O 	O 	0.71330 0.63290 0.84088 -0.36900
C 	C 	0.03520 0.68030 0.75870 0.05000
H 	H 	0.02040 0.62510 0.78330 0.03500
C 	C 	0.12040 0.93130 0.65250 0.29900
O 	O 	0.73010 0.72280 0.93590 -0.38600
C 	C 	0.88910 0.92770 0.72760 0.30600
O 	O 	0.38840 0.65840 0.71865 -0.38400
C 	C 	0.68500 0.87900 0.83310 0.06000
H 	H 	0.76060 0.88570 0.86490 0.01000
O 	O 	0.41380 0.65260 0.83500 -0.31000
O 	O 	0.07970 0.56100 0.98137 -0.64000
C 	C 	0.62410 0.79150 0.82900 -0.07700
O 	O 	0.99710 0.69130 0.92905 -0.50100
C 	C 	0.50920 0.78130 0.78340 -0.00700
C 	C 	0.46120 0.86060 0.74410 -0.08600
H 	H 	0.38350 0.85640 0.71390 0.07900
C 	C 	0.52950 0.94560 0.75000 0.05800
H 	H 	0.49720 0.99810 0.72270 0.02100
C 	C 	0.43210 0.68880 0.78090 0.31000
C 	C 	0.69140 0.70990 0.87200 0.30800
C 	C 	0.22610 0.68620 0.96200 -1.26200
H 	H 	0.26020 0.70170 0.00960 0.39600
H 	H 	0.22210 0.74360 0.93420 0.41800
H 	H 	0.28030 0.63970 0.94510 0.40300
C 	C 	0.09490 0.64510 0.95760 0.72000
O 	O 	0.21600 0.57640 0.12134 -0.40400
Er	Er	0.84498 0.93292 0.44409 1.56200
Cu	Cu	0.24343 0.93210 0.21058 0.89400
N 	N 	0.12900 0.82020 0.22040 -0.21600
C 	C 	0.15110 0.73930 0.18760 0.05400
H 	H 	0.21610 0.73950 0.16120 0.00400
O 	O 	0.05750 0.49170 0.15109 -0.36600
C 	C 	0.08290 0.65530 0.19070 -0.09000
N 	N 	0.64170 0.54470 0.29400 -0.21500
O 	O 	0.80410 0.56090 0.17603 -0.29400
C 	C 	0.98190 0.65540 0.22790 -0.00800
O 	O 	0.89930 0.52390 0.28413 -0.37400
C 	C 	0.96040 0.73890 0.26250 -0.07000
H 	H 	0.89510 0.74080 0.28870 0.07600
O 	O 	0.71330 0.86710 0.34088 -0.36900
C 	C 	0.03520 0.81970 0.25870 0.04500
H 	H 	0.02040 0.87490 0.28330 0.03500
C 	C 	0.12040 0.56870 0.15250 0.30000
O 	O 	0.73010 0.77720 0.43590 -0.38700
C 	C 	0.88910 0.57230 0.22760 0.30700
O 	O 	0.38840 0.84160 0.21865 -0.38400
C 	C 	0.68500 0.62100 0.33310 0.06000
H 	H 	0.76060 0.61430 0.36490 0.00900
O 	O 	0.41380 0.84740 0.33500 -0.31100
O 	O 	0.07970 0.93900 0.48137 -0.64300
C 	C 	0.62410 0.70850 0.32900 -0.07700
O 	O 	0.99710 0.80870 0.42905 -0.49900
C 	C 	0.50920 0.71870 0.28340 -0.00700
C 	C 	0.46120 0.63940 0.24410 -0.08600
H 	H 	0.38350 0.64360 0.21390 0.07900
C 	C 	0.52950 0.55440 0.25000 0.05800
H 	H 	0.49720 0.50190 0.22270 0.02100
C 	C 	0.43210 0.81120 0.28090 0.31000
C 	C 	0.69140 0.79010 0.37200 0.30800
C 	C 	0.22610 0.81380 0.46200 -1.27100
H 	H 	0.26020 0.79830 0.50960 0.40000
H 	H 	0.22210 0.75640 0.43420 0.41900
H 	H 	0.28030 0.86030 0.44510 0.40500
C 	C 	0.09490 0.85490 0.45760 0.71900
O 	O 	0.78400 0.07640 0.37866 -0.40400
Er	Er	0.15502 0.43292 0.05591 1.55800
Cu	Cu	0.75657 0.43210 0.28942 0.89500
N 	N 	0.87100 0.32020 0.27960 -0.21600
C 	C 	0.84890 0.23930 0.31240 0.05400
H 	H 	0.78390 0.23950 0.33880 0.00400
O 	O 	0.94250 0.99170 0.34891 -0.36400
C 	C 	0.91710 0.15530 0.30930 -0.08800
N 	N 	0.35830 0.04470 0.20600 -0.21400
O 	O 	0.19590 0.06090 0.32397 -0.29400
C 	C 	0.01810 0.15540 0.27210 -0.00800
O 	O 	0.10070 0.02390 0.21587 -0.37300
C 	C 	0.03960 0.23890 0.23750 -0.07500
H 	H 	0.10490 0.24080 0.21130 0.07700
O 	O 	0.28670 0.36710 0.15912 -0.36900
C 	C 	0.96480 0.31970 0.24130 0.05000
H 	H 	0.97960 0.37490 0.21670 0.03500
C 	C 	0.87960 0.06870 0.34750 0.29900
O 	O 	0.26990 0.27720 0.06410 -0.38600
C 	C 	0.11090 0.07230 0.27240 0.30600
O 	O 	0.61160 0.34160 0.28135 -0.38400
C 	C 	0.31500 0.12100 0.16690 0.06000
H 	H 	0.23940 0.11430 0.13510 0.01000
O 	O 	0.58620 0.34740 0.16500 -0.31000
O 	O 	0.92030 0.43900 0.01863 -0.64000
C 	C 	0.37590 0.20850 0.17100 -0.07700
O 	O 	0.00290 0.30870 0.07095 -0.50100
C 	C 	0.49080 0.21870 0.21660 -0.00700
C 	C 	0.53880 0.13940 0.25590 -0.08600
H 	H 	0.61650 0.14360 0.28610 0.07900
C 	C 	0.47050 0.05440 0.25000 0.05800
H 	H 	0.50280 0.00190 0.27730 0.02100
C 	C 	0.56790 0.31120 0.21910 0.31000
C 	C 	0.30860 0.29010 0.12800 0.30800
C 	C 	0.77390 0.31380 0.03800 -1.26200
H 	H 	0.73980 0.29830 0.99040 0.39600
H 	H 	0.77790 0.25640 0.06580 0.41800
H 	H 	0.71970 0.36030 0.05490 0.40300
C 	C 	0.90510 0.35490 0.04240 0.72000
