data_crystal

_cell_length_a 17.63560
_cell_length_b 48.06440
_cell_length_c 24.55390
_cell_angle_alpha 90.00000
_cell_angle_beta  90.00000
_cell_angle_gamma 90.00000

_symmetry_space_group_name_	'P 1'
_symmetry_space_group_name_H-M	'P 1'

loop_
_symmetry_equiv_pos_as_xyz
  x,y,z

loop_
_atom_site_label
_atom_site_type_symbol
_atom_site_fract_x
_atom_site_fract_y
_atom_site_fract_z
_atom_site_charge
Zn	Zn	0.43144 0.31068 0.19066 1.17700
Zn	Zn	0.37310 0.41909 0.09006 1.17400
Zn	Zn	0.43122 0.52716 0.19597 1.16800
Zn	Zn	0.74393 0.52447 0.10564 1.17000
Zn	Zn	0.68835 0.41684 0.99938 1.17100
Zn	Zn	0.74858 0.31082 0.10569 1.17400
N 	N 	0.37140 0.34120 0.15740 -0.28000
N 	N 	0.34620 0.38270 0.12350 -0.28200
N 	N 	0.34430 0.45340 0.12890 -0.28300
N 	N 	0.36760 0.49520 0.16840 -0.28000
N 	N 	0.53990 0.51490 0.18850 -0.27300
N 	N 	0.65590 0.51280 0.15570 -0.25700
N 	N 	0.77020 0.49390 0.05260 -0.27300
N 	N 	0.74170 0.45280 0.01590 -0.26300
N 	N 	0.73850 0.38070 0.01290 -0.27500
N 	N 	0.76670 0.33880 0.04960 -0.28500
N 	N 	0.65880 0.32200 0.15080 -0.27300
N 	N 	0.53890 0.32140 0.18280 -0.27600
N 	N 	0.48740 0.41910 0.08760 -0.27600
N 	N 	0.60150 0.41680 0.05490 -0.26800
N 	N 	0.41990 0.27340 0.15950 -0.28800
N 	N 	0.59230 0.44100 0.85540 -0.27500
N 	N 	0.64250 0.42010 0.92730 -0.29400
N 	N 	0.40480 0.53630 0.27450 -0.26300
N 	N 	0.33130 0.53420 0.34550 -0.27300
N 	N 	0.28620 0.44410 0.93930 -0.29000
N 	N 	0.33110 0.42230 0.01470 -0.28100
N 	N 	0.33570 0.30750 0.34600 -0.28900
N 	N 	0.72650 0.27350 0.07520 -0.28100
N 	N 	0.40550 0.30760 0.26860 -0.28400
C 	C 	0.40140 0.36450 0.13860 0.03200
C 	C 	0.29400 0.34360 0.15210 0.03000
C 	C 	0.23510 0.32460 0.15760 -0.06800
C 	C 	0.16220 0.33180 0.14120 -0.01000
C 	C 	0.14830 0.35800 0.11940 0.01900
C 	C 	0.20720 0.37700 0.11390 -0.06900
C 	C 	0.28010 0.36980 0.13030 0.05500
C 	C 	0.06760 0.36260 0.08940 -0.03200
C 	C 	0.39860 0.47060 0.14740 0.01000
C 	C 	0.27840 0.46680 0.13620 0.03900
C 	C 	0.20450 0.46080 0.12030 -0.06500
C 	C 	0.14720 0.48020 0.12880 0.01300
C 	C 	0.16370 0.50550 0.15330 -0.00600
C 	C 	0.23760 0.51150 0.16920 -0.08100
C 	C 	0.29490 0.49220 0.16070 0.05400
C 	C 	0.06230 0.47630 0.10440 -0.03600
C 	C 	0.58880 0.52880 0.15260 -0.01600
C 	C 	0.58700 0.49420 0.21010 0.06600
C 	C 	0.55500 0.47480 0.24530 -0.07700
C 	C 	0.59500 0.45100 0.25960 0.01300
C 	C 	0.66800 0.44660 0.23870 0.00700
C 	C 	0.69960 0.46600 0.20360 -0.05500
C 	C 	0.65900 0.48980 0.18930 0.00300
C 	C 	0.71600 0.41890 0.25100 -0.03200
C 	C 	0.72370 0.47220 0.05540 0.00600
C 	C 	0.81300 0.46100 0.97600 -0.05300
C 	C 	0.82110 0.48610 0.00890 0.03400
C 	C 	0.72250 0.36050 0.05020 0.03300
C 	C 	0.79900 0.37060 0.98100 -0.02100
C 	C 	0.81480 0.34680 0.00280 0.01900
C 	C 	0.58600 0.30820 0.14790 0.01000
C 	C 	0.57370 0.34390 0.20790 0.02900
C 	C 	0.54880 0.36510 0.24200 -0.06500
C 	C 	0.59800 0.38640 0.25670 0.01200
C 	C 	0.67200 0.38650 0.23740 0.00600
C 	C 	0.69690 0.36530 0.20330 -0.06700
C 	C 	0.64780 0.34400 0.18860 0.03500
C 	C 	0.57600 0.41380 0.29210 -0.02000
C 	C 	0.52530 0.41800 0.04140 0.01600
C 	C 	0.53620 0.41810 0.12990 0.04000
C 	C 	0.52400 0.41830 0.18580 -0.07200
C 	C 	0.58500 0.41680 0.22140 0.00900
C 	C 	0.65860 0.41530 0.20100 0.01700
C 	C 	0.67080 0.41510 0.14510 -0.07400
C 	C 	0.60960 0.41650 0.10950 0.03300
C 	C 	0.41200 0.26540 0.11080 0.06000
C 	C 	0.39200 0.27860 0.05200 -0.02600
C 	C 	0.63430 0.44400 0.89950 0.02500
C 	C 	0.60360 0.40120 0.89890 0.05500
C 	C 	0.58800 0.37390 0.91350 -0.08200
C 	C 	0.53600 0.35840 0.88300 0.00600
C 	C 	0.50000 0.37030 0.83900 0.00600
C 	C 	0.51600 0.39760 0.82430 -0.05700
C 	C 	0.56700 0.41310 0.85430 0.01600
C 	C 	0.43600 0.35900 0.79900 -0.01500
C 	C 	0.34430 0.52490 0.29380 0.02600
C 	C 	0.45200 0.55350 0.31400 -0.02000
C 	C 	0.39300 0.55280 0.35410 0.01300
C 	C 	0.30640 0.44680 0.99140 0.01600
C 	C 	0.32570 0.40370 0.97490 0.04900
C 	C 	0.35970 0.37760 0.97140 -0.07600
C 	C 	0.36600 0.36440 0.92100 0.01300
C 	C 	0.33800 0.37710 0.87460 0.00600
C 	C 	0.30400 0.40320 0.87800 -0.06800
C 	C 	0.29790 0.41640 0.92810 0.03500
C 	C 	0.40700 0.33510 0.91600 -0.01900
C 	C 	0.35500 0.35800 0.82300 -0.01500
C 	C 	0.33820 0.31070 0.29300 0.04600
C 	C 	0.40900 0.30060 0.36070 -0.00900
C 	C 	0.44930 0.29880 0.31090 0.00400
C 	C 	0.67630 0.26430 0.03450 0.03100
C 	C 	0.62100 0.27920 0.00200 -0.05700
C 	C 	0.56500 0.26230 0.97200 0.00200
C 	C 	0.46000 0.27800 0.07200 -0.06600
Zn	Zn	0.06856 0.68932 0.69066 1.17600
Zn	Zn	0.12690 0.58091 0.59006 1.17300
Zn	Zn	0.06878 0.47284 0.69597 1.16700
Zn	Zn	0.75607 0.47553 0.60564 1.16900
Zn	Zn	0.81165 0.58316 0.49938 1.17100
Zn	Zn	0.75142 0.68918 0.60569 1.17400
N 	N 	0.12860 0.65880 0.65740 -0.28000
N 	N 	0.15380 0.61730 0.62350 -0.28200
N 	N 	0.15570 0.54660 0.62890 -0.28300
N 	N 	0.13240 0.50480 0.66840 -0.28000
N 	N 	0.96010 0.48510 0.68850 -0.27300
N 	N 	0.84410 0.48720 0.65570 -0.25700
N 	N 	0.72980 0.50610 0.55260 -0.27300
N 	N 	0.75830 0.54720 0.51590 -0.26300
N 	N 	0.76150 0.61930 0.51290 -0.27500
N 	N 	0.73330 0.66120 0.54960 -0.28500
N 	N 	0.84120 0.67800 0.65080 -0.27300
N 	N 	0.96110 0.67860 0.68280 -0.27500
N 	N 	0.01260 0.58090 0.58760 -0.27700
N 	N 	0.89850 0.58320 0.55490 -0.26800
N 	N 	0.08010 0.72660 0.65950 -0.28800
N 	N 	0.90770 0.55900 0.35540 -0.27500
N 	N 	0.85750 0.57990 0.42730 -0.29400
N 	N 	0.09520 0.46370 0.77450 -0.26300
N 	N 	0.16870 0.46580 0.84550 -0.27300
N 	N 	0.21380 0.55590 0.43930 -0.29000
N 	N 	0.16890 0.57770 0.51470 -0.28100
N 	N 	0.16430 0.69250 0.84600 -0.28900
N 	N 	0.77350 0.72650 0.57520 -0.28000
N 	N 	0.09450 0.69240 0.76860 -0.28400
C 	C 	0.09860 0.63550 0.63860 0.03200
C 	C 	0.20600 0.65640 0.65210 0.03000
C 	C 	0.26490 0.67540 0.65760 -0.06800
C 	C 	0.33780 0.66820 0.64120 -0.01000
C 	C 	0.35170 0.64200 0.61940 0.01900
C 	C 	0.29280 0.62300 0.61390 -0.06900
C 	C 	0.21990 0.63020 0.63030 0.05500
C 	C 	0.43240 0.63740 0.58940 -0.03200
C 	C 	0.10140 0.52940 0.64740 0.01000
C 	C 	0.22160 0.53320 0.63620 0.03900
C 	C 	0.29550 0.53920 0.62030 -0.06500
C 	C 	0.35280 0.51980 0.62880 0.01300
C 	C 	0.33630 0.49450 0.65330 -0.00600
C 	C 	0.26240 0.48850 0.66920 -0.08100
C 	C 	0.20510 0.50780 0.66070 0.05400
C 	C 	0.43770 0.52370 0.60440 -0.03600
C 	C 	0.91120 0.47120 0.65260 -0.01600
C 	C 	0.91300 0.50580 0.71010 0.06600
C 	C 	0.94500 0.52520 0.74530 -0.07700
C 	C 	0.90500 0.54900 0.75960 0.01300
C 	C 	0.83200 0.55340 0.73870 0.00700
C 	C 	0.80040 0.53400 0.70360 -0.05500
C 	C 	0.84100 0.51020 0.68930 0.00300
C 	C 	0.78400 0.58110 0.75100 -0.03200
C 	C 	0.77630 0.52780 0.55540 0.00600
C 	C 	0.68700 0.53900 0.47600 -0.05300
C 	C 	0.67890 0.51390 0.50890 0.03400
C 	C 	0.77750 0.63950 0.55020 0.03300
C 	C 	0.70100 0.62940 0.48100 -0.02000
C 	C 	0.68520 0.65320 0.50280 0.01900
C 	C 	0.91400 0.69180 0.64790 0.01000
C 	C 	0.92630 0.65610 0.70790 0.03000
C 	C 	0.95120 0.63490 0.74200 -0.06400
C 	C 	0.90200 0.61360 0.75670 0.01200
C 	C 	0.82800 0.61350 0.73740 0.00600
C 	C 	0.80310 0.63470 0.70330 -0.06700
C 	C 	0.85220 0.65600 0.68860 0.03500
C 	C 	0.92400 0.58620 0.79210 -0.02000
C 	C 	0.97470 0.58200 0.54140 0.01600
C 	C 	0.96380 0.58190 0.62990 0.04100
C 	C 	0.97600 0.58170 0.68580 -0.07200
C 	C 	0.91500 0.58320 0.72140 0.00900
C 	C 	0.84140 0.58470 0.70100 0.01700
C 	C 	0.82920 0.58490 0.64510 -0.07400
C 	C 	0.89040 0.58350 0.60950 0.03300
C 	C 	0.08800 0.73460 0.61080 0.06000
C 	C 	0.10800 0.72140 0.55200 -0.02600
C 	C 	0.86570 0.55600 0.39950 0.02500
C 	C 	0.89640 0.59880 0.39890 0.05600
C 	C 	0.91200 0.62610 0.41350 -0.08200
C 	C 	0.96400 0.64160 0.38300 0.00800
C 	C 	-0.00000 0.62970 0.33900 0.00400
C 	C 	0.98400 0.60240 0.32430 -0.05500
C 	C 	0.93300 0.58690 0.35430 0.01600
C 	C 	0.06400 0.64100 0.29900 -0.01500
C 	C 	0.15570 0.47510 0.79380 0.02600
C 	C 	0.04800 0.44650 0.81400 -0.02000
C 	C 	0.10700 0.44720 0.85410 0.01400
C 	C 	0.19360 0.55320 0.49140 0.01600
C 	C 	0.17430 0.59630 0.47490 0.05000
C 	C 	0.14030 0.62240 0.47140 -0.07600
C 	C 	0.13400 0.63560 0.42100 0.01300
C 	C 	0.16200 0.62290 0.37460 0.00600
C 	C 	0.19600 0.59680 0.37800 -0.06800
C 	C 	0.20210 0.58360 0.42810 0.03500
C 	C 	0.09300 0.66490 0.41600 -0.01900
C 	C 	0.14500 0.64200 0.32300 -0.01500
C 	C 	0.16180 0.68930 0.79300 0.04600
C 	C 	0.09100 0.69940 0.86070 -0.00900
C 	C 	0.05070 0.70120 0.81090 0.00400
C 	C 	0.82370 0.73570 0.53450 0.03100
C 	C 	0.87900 0.72080 0.50200 -0.05700
C 	C 	0.93500 0.73770 0.47200 0.00300
C 	C 	0.04000 0.72200 0.57200 -0.06700
Zn	Zn	0.56856 0.81068 0.80934 1.17600
Zn	Zn	0.62690 0.91909 0.90994 1.17300
Zn	Zn	0.56878 0.02716 0.80403 1.16700
Zn	Zn	0.25607 0.02447 0.89436 1.16900
Zn	Zn	0.31165 0.91684 0.00062 1.17100
Zn	Zn	0.25142 0.81082 0.89431 1.17400
N 	N 	0.62860 0.84120 0.84260 -0.28000
N 	N 	0.65380 0.88270 0.87650 -0.28200
N 	N 	0.65570 0.95340 0.87110 -0.28300
N 	N 	0.63240 0.99520 0.83160 -0.28000
N 	N 	0.46010 0.01490 0.81150 -0.27300
N 	N 	0.34410 0.01280 0.84430 -0.25700
N 	N 	0.22980 0.99390 0.94740 -0.27300
N 	N 	0.25830 0.95280 0.98410 -0.26300
N 	N 	0.26150 0.88070 0.98710 -0.27500
N 	N 	0.23330 0.83880 0.95040 -0.28500
N 	N 	0.34120 0.82200 0.84920 -0.27300
N 	N 	0.46110 0.82140 0.81720 -0.27600
N 	N 	0.51260 0.91910 0.91240 -0.27600
N 	N 	0.39850 0.91680 0.94510 -0.26800
N 	N 	0.58010 0.77340 0.84050 -0.28800
N 	N 	0.40770 0.94100 0.14460 -0.27500
N 	N 	0.35750 0.92010 0.07270 -0.29400
N 	N 	0.59520 0.03630 0.72550 -0.26300
N 	N 	0.66870 0.03420 0.65450 -0.27300
N 	N 	0.71380 0.94410 0.06070 -0.29000
N 	N 	0.66890 0.92230 0.98530 -0.28100
N 	N 	0.66430 0.80750 0.65400 -0.28900
N 	N 	0.27350 0.77350 0.92480 -0.28100
N 	N 	0.59450 0.80760 0.73140 -0.28400
C 	C 	0.59860 0.86450 0.86140 0.03200
C 	C 	0.70600 0.84360 0.84790 0.03000
C 	C 	0.76490 0.82460 0.84240 -0.06800
C 	C 	0.83780 0.83180 0.85880 -0.01000
C 	C 	0.85170 0.85800 0.88060 0.01900
C 	C 	0.79280 0.87700 0.88610 -0.06900
C 	C 	0.71990 0.86980 0.86970 0.05500
C 	C 	0.93240 0.86260 0.91060 -0.03200
C 	C 	0.60140 0.97060 0.85260 0.01000
C 	C 	0.72160 0.96680 0.86380 0.03900
C 	C 	0.79550 0.96080 0.87970 -0.06500
C 	C 	0.85280 0.98020 0.87120 0.01300
C 	C 	0.83630 0.00550 0.84670 -0.00600
C 	C 	0.76240 0.01150 0.83080 -0.08100
C 	C 	0.70510 0.99220 0.83930 0.05400
C 	C 	0.93770 0.97630 0.89560 -0.03600
C 	C 	0.41120 0.02880 0.84740 -0.01600
C 	C 	0.41300 0.99420 0.78990 0.06600
C 	C 	0.44500 0.97480 0.75470 -0.07700
C 	C 	0.40500 0.95100 0.74040 0.01300
C 	C 	0.33200 0.94660 0.76130 0.00700
C 	C 	0.30040 0.96600 0.79640 -0.05500
C 	C 	0.34100 0.98980 0.81070 0.00300
C 	C 	0.28400 0.91890 0.74900 -0.03200
C 	C 	0.27630 0.97220 0.94460 0.00600
C 	C 	0.18700 0.96100 0.02400 -0.05300
C 	C 	0.17890 0.98610 0.99110 0.03400
C 	C 	0.27750 0.86050 0.94980 0.03300
C 	C 	0.20100 0.87060 0.01900 -0.02100
C 	C 	0.18520 0.84680 0.99720 0.01900
C 	C 	0.41400 0.80820 0.85210 0.01000
C 	C 	0.42630 0.84390 0.79210 0.02900
C 	C 	0.45120 0.86510 0.75800 -0.06500
C 	C 	0.40200 0.88640 0.74330 0.01200
C 	C 	0.32800 0.88650 0.76260 0.00600
C 	C 	0.30310 0.86530 0.79670 -0.06700
C 	C 	0.35220 0.84400 0.81140 0.03500
C 	C 	0.42400 0.91380 0.70790 -0.02000
C 	C 	0.47470 0.91800 0.95860 0.01600
C 	C 	0.46380 0.91810 0.87010 0.04000
C 	C 	0.47600 0.91830 0.81420 -0.07200
C 	C 	0.41500 0.91680 0.77860 0.00900
C 	C 	0.34140 0.91530 0.79900 0.01700
C 	C 	0.32920 0.91510 0.85490 -0.07400
C 	C 	0.39040 0.91650 0.89050 0.03300
C 	C 	0.58800 0.76540 0.88920 0.06000
C 	C 	0.60800 0.77860 0.94800 -0.02600
C 	C 	0.36570 0.94400 0.10050 0.02500
C 	C 	0.39640 0.90120 0.10110 0.05500
C 	C 	0.41200 0.87390 0.08650 -0.08200
C 	C 	0.46400 0.85840 0.11700 0.00600
C 	C 	0.50000 0.87030 0.16100 0.00600
C 	C 	0.48400 0.89760 0.17570 -0.05700
C 	C 	0.43300 0.91310 0.14570 0.01600
C 	C 	0.56400 0.85900 0.20100 -0.01500
C 	C 	0.65570 0.02490 0.70620 0.02600
C 	C 	0.54800 0.05350 0.68600 -0.02000
C 	C 	0.60700 0.05280 0.64590 0.01300
C 	C 	0.69360 0.94680 0.00860 0.01600
C 	C 	0.67430 0.90370 0.02510 0.04900
C 	C 	0.64030 0.87760 0.02860 -0.07600
C 	C 	0.63400 0.86440 0.07900 0.01300
C 	C 	0.66200 0.87710 0.12540 0.00600
C 	C 	0.69600 0.90320 0.12200 -0.06800
C 	C 	0.70210 0.91640 0.07190 0.03500
C 	C 	0.59300 0.83510 0.08400 -0.01900
C 	C 	0.64500 0.85800 0.17700 -0.01500
C 	C 	0.66180 0.81070 0.70700 0.04600
C 	C 	0.59100 0.80060 0.63930 -0.00900
C 	C 	0.55070 0.79880 0.68910 0.00400
C 	C 	0.32370 0.76430 0.96550 0.03100
C 	C 	0.37900 0.77920 0.99800 -0.05700
C 	C 	0.43500 0.76230 0.02800 0.00200
C 	C 	0.54000 0.77800 0.92800 -0.06600
Zn	Zn	0.93144 0.18932 0.30934 1.17600
Zn	Zn	0.87310 0.08091 0.40994 1.17300
Zn	Zn	0.93122 0.97284 0.30403 1.16700
Zn	Zn	0.24393 0.97553 0.39436 1.16900
Zn	Zn	0.18835 0.08316 0.50062 1.17100
Zn	Zn	0.24858 0.18918 0.39431 1.17400
N 	N 	0.87140 0.15880 0.34260 -0.28000
N 	N 	0.84620 0.11730 0.37650 -0.28200
N 	N 	0.84430 0.04660 0.37110 -0.28300
N 	N 	0.86760 0.00480 0.33160 -0.28000
N 	N 	0.03990 0.98510 0.31150 -0.27300
N 	N 	0.15590 0.98720 0.34430 -0.25700
N 	N 	0.27020 0.00610 0.44740 -0.27300
N 	N 	0.24170 0.04720 0.48410 -0.26300
N 	N 	0.23850 0.11930 0.48710 -0.27500
N 	N 	0.26670 0.16120 0.45040 -0.28500
N 	N 	0.15880 0.17800 0.34920 -0.27300
N 	N 	0.03890 0.17860 0.31720 -0.27500
N 	N 	0.98740 0.08090 0.41240 -0.27700
N 	N 	0.10150 0.08320 0.44510 -0.26800
N 	N 	0.91990 0.22660 0.34050 -0.28800
N 	N 	0.09230 0.05900 0.64460 -0.27500
N 	N 	0.14250 0.07990 0.57270 -0.29400
N 	N 	0.90480 0.96370 0.22550 -0.26300
N 	N 	0.83130 0.96580 0.15450 -0.27300
N 	N 	0.78620 0.05590 0.56070 -0.29000
N 	N 	0.83110 0.07770 0.48530 -0.28100
N 	N 	0.83570 0.19250 0.15400 -0.28900
N 	N 	0.22650 0.22650 0.42480 -0.28000
N 	N 	0.90550 0.19240 0.23140 -0.28400
C 	C 	0.90140 0.13550 0.36140 0.03200
C 	C 	0.79400 0.15640 0.34790 0.03000
C 	C 	0.73510 0.17540 0.34240 -0.06800
C 	C 	0.66220 0.16820 0.35880 -0.01000
C 	C 	0.64830 0.14200 0.38060 0.01900
C 	C 	0.70720 0.12300 0.38610 -0.06900
C 	C 	0.78010 0.13020 0.36970 0.05500
C 	C 	0.56760 0.13740 0.41060 -0.03200
C 	C 	0.89860 0.02940 0.35260 0.01000
C 	C 	0.77840 0.03320 0.36380 0.03900
C 	C 	0.70450 0.03920 0.37970 -0.06500
C 	C 	0.64720 0.01980 0.37120 0.01300
C 	C 	0.66370 0.99450 0.34670 -0.00600
C 	C 	0.73760 0.98850 0.33080 -0.08100
C 	C 	0.79490 0.00780 0.33930 0.05400
C 	C 	0.56230 0.02370 0.39560 -0.03600
C 	C 	0.08880 0.97120 0.34740 -0.01600
C 	C 	0.08700 0.00580 0.28990 0.06600
C 	C 	0.05500 0.02520 0.25470 -0.07700
C 	C 	0.09500 0.04900 0.24040 0.01300
C 	C 	0.16800 0.05340 0.26130 0.00700
C 	C 	0.19960 0.03400 0.29640 -0.05500
C 	C 	0.15900 0.01020 0.31070 0.00300
C 	C 	0.21600 0.08110 0.24900 -0.03200
C 	C 	0.22370 0.02780 0.44460 0.00600
C 	C 	0.31300 0.03900 0.52400 -0.05300
C 	C 	0.32110 0.01390 0.49110 0.03400
C 	C 	0.22250 0.13950 0.44980 0.03300
C 	C 	0.29900 0.12940 0.51900 -0.02000
C 	C 	0.31480 0.15320 0.49720 0.01900
C 	C 	0.08600 0.19180 0.35210 0.01000
C 	C 	0.07370 0.15610 0.29210 0.03000
C 	C 	0.04880 0.13490 0.25800 -0.06400
C 	C 	0.09800 0.11360 0.24330 0.01200
C 	C 	0.17200 0.11350 0.26260 0.00600
C 	C 	0.19690 0.13470 0.29670 -0.06700
C 	C 	0.14780 0.15600 0.31140 0.03500
C 	C 	0.07600 0.08620 0.20790 -0.02000
C 	C 	0.02530 0.08200 0.45860 0.01600
C 	C 	0.03620 0.08190 0.37010 0.04100
C 	C 	0.02400 0.08170 0.31420 -0.07200
C 	C 	0.08500 0.08320 0.27860 0.00900
C 	C 	0.15860 0.08470 0.29900 0.01700
C 	C 	0.17080 0.08490 0.35490 -0.07400
C 	C 	0.10960 0.08350 0.39050 0.03300
C 	C 	0.91200 0.23460 0.38920 0.06000
C 	C 	0.89200 0.22140 0.44800 -0.02600
C 	C 	0.13430 0.05600 0.60050 0.02500
C 	C 	0.10360 0.09880 0.60110 0.05500
C 	C 	0.08800 0.12610 0.58650 -0.08200
C 	C 	0.03600 0.14160 0.61700 0.00600
C 	C 	-0.00000 0.12970 0.66100 0.00700
C 	C 	0.01600 0.10240 0.67570 -0.05700
C 	C 	0.06700 0.08690 0.64570 0.01600
C 	C 	0.93600 0.14100 0.70100 -0.01600
C 	C 	0.84430 0.97510 0.20620 0.02600
C 	C 	0.95200 0.94650 0.18600 -0.02000
C 	C 	0.89300 0.94720 0.14590 0.01400
C 	C 	0.80640 0.05320 0.50860 0.01600
C 	C 	0.82570 0.09630 0.52510 0.05000
C 	C 	0.85970 0.12240 0.52860 -0.07600
C 	C 	0.86600 0.13560 0.57900 0.01300
C 	C 	0.83800 0.12290 0.62540 0.00600
C 	C 	0.80400 0.09680 0.62200 -0.06800
C 	C 	0.79790 0.08360 0.57190 0.03500
C 	C 	0.90700 0.16490 0.58400 -0.01900
C 	C 	0.85500 0.14200 0.67700 -0.01500
C 	C 	0.83820 0.18930 0.20700 0.04600
C 	C 	0.90900 0.19940 0.13930 -0.00900
C 	C 	0.94930 0.20120 0.18910 0.00400
C 	C 	0.17630 0.23570 0.46550 0.03100
C 	C 	0.12100 0.22080 0.49800 -0.05700
C 	C 	0.06500 0.23770 0.52800 0.00300
C 	C 	0.96000 0.22200 0.42800 -0.06700
Zn	Zn	0.56856 0.68932 0.80934 1.17600
Zn	Zn	0.62690 0.58091 0.90994 1.17300
Zn	Zn	0.56878 0.47284 0.80403 1.16700
Zn	Zn	0.25607 0.47553 0.89436 1.16900
Zn	Zn	0.31165 0.58316 0.00062 1.17100
Zn	Zn	0.25142 0.68918 0.89431 1.17400
N 	N 	0.62860 0.65880 0.84260 -0.28000
N 	N 	0.65380 0.61730 0.87650 -0.28200
N 	N 	0.65570 0.54660 0.87110 -0.28300
N 	N 	0.63240 0.50480 0.83160 -0.28000
N 	N 	0.46010 0.48510 0.81150 -0.27300
N 	N 	0.34410 0.48720 0.84430 -0.25700
N 	N 	0.22980 0.50610 0.94740 -0.27300
N 	N 	0.25830 0.54720 0.98410 -0.26300
N 	N 	0.26150 0.61930 0.98710 -0.27500
N 	N 	0.23330 0.66120 0.95040 -0.28500
N 	N 	0.34120 0.67800 0.84920 -0.27300
N 	N 	0.46110 0.67860 0.81720 -0.27600
N 	N 	0.51260 0.58090 0.91240 -0.27600
N 	N 	0.39850 0.58320 0.94510 -0.26800
N 	N 	0.58010 0.72660 0.84050 -0.28800
N 	N 	0.40770 0.55900 0.14460 -0.27500
N 	N 	0.35750 0.57990 0.07270 -0.29400
N 	N 	0.59520 0.46370 0.72550 -0.26300
N 	N 	0.66870 0.46580 0.65450 -0.27300
N 	N 	0.71380 0.55590 0.06070 -0.29000
N 	N 	0.66890 0.57770 0.98530 -0.28100
N 	N 	0.66430 0.69250 0.65400 -0.28900
N 	N 	0.27350 0.72650 0.92480 -0.28100
N 	N 	0.59450 0.69240 0.73140 -0.28400
C 	C 	0.59860 0.63550 0.86140 0.03200
C 	C 	0.70600 0.65640 0.84790 0.03000
C 	C 	0.76490 0.67540 0.84240 -0.06800
C 	C 	0.83780 0.66820 0.85880 -0.01000
C 	C 	0.85170 0.64200 0.88060 0.01900
C 	C 	0.79280 0.62300 0.88610 -0.06900
C 	C 	0.71990 0.63020 0.86970 0.05500
C 	C 	0.93240 0.63740 0.91060 -0.03200
C 	C 	0.60140 0.52940 0.85260 0.01000
C 	C 	0.72160 0.53320 0.86380 0.03900
C 	C 	0.79550 0.53920 0.87970 -0.06500
C 	C 	0.85280 0.51980 0.87120 0.01300
C 	C 	0.83630 0.49450 0.84670 -0.00600
C 	C 	0.76240 0.48850 0.83080 -0.08100
C 	C 	0.70510 0.50780 0.83930 0.05400
C 	C 	0.93770 0.52370 0.89560 -0.03600
C 	C 	0.41120 0.47120 0.84740 -0.01600
C 	C 	0.41300 0.50580 0.78990 0.06600
C 	C 	0.44500 0.52520 0.75470 -0.07700
C 	C 	0.40500 0.54900 0.74040 0.01300
C 	C 	0.33200 0.55340 0.76130 0.00700
C 	C 	0.30040 0.53400 0.79640 -0.05500
C 	C 	0.34100 0.51020 0.81070 0.00300
C 	C 	0.28400 0.58110 0.74900 -0.03200
C 	C 	0.27630 0.52780 0.94460 0.00600
C 	C 	0.18700 0.53900 0.02400 -0.05300
C 	C 	0.17890 0.51390 0.99110 0.03400
C 	C 	0.27750 0.63950 0.94980 0.03300
C 	C 	0.20100 0.62940 0.01900 -0.02100
C 	C 	0.18520 0.65320 0.99720 0.01900
C 	C 	0.41400 0.69180 0.85210 0.01000
C 	C 	0.42630 0.65610 0.79210 0.02900
C 	C 	0.45120 0.63490 0.75800 -0.06500
C 	C 	0.40200 0.61360 0.74330 0.01200
C 	C 	0.32800 0.61350 0.76260 0.00600
C 	C 	0.30310 0.63470 0.79670 -0.06700
C 	C 	0.35220 0.65600 0.81140 0.03500
C 	C 	0.42400 0.58620 0.70790 -0.02000
C 	C 	0.47470 0.58200 0.95860 0.01600
C 	C 	0.46380 0.58190 0.87010 0.04000
C 	C 	0.47600 0.58170 0.81420 -0.07200
C 	C 	0.41500 0.58320 0.77860 0.00900
C 	C 	0.34140 0.58470 0.79900 0.01700
C 	C 	0.32920 0.58490 0.85490 -0.07400
C 	C 	0.39040 0.58350 0.89050 0.03300
C 	C 	0.58800 0.73460 0.88920 0.06000
C 	C 	0.60800 0.72140 0.94800 -0.02600
C 	C 	0.36570 0.55600 0.10050 0.02500
C 	C 	0.39640 0.59880 0.10110 0.05500
C 	C 	0.41200 0.62610 0.08650 -0.08200
C 	C 	0.46400 0.64160 0.11700 0.00600
C 	C 	0.50000 0.62970 0.16100 0.00600
C 	C 	0.48400 0.60240 0.17570 -0.05700
C 	C 	0.43300 0.58690 0.14570 0.01600
C 	C 	0.56400 0.64100 0.20100 -0.01500
C 	C 	0.65570 0.47510 0.70620 0.02600
C 	C 	0.54800 0.44650 0.68600 -0.02000
C 	C 	0.60700 0.44720 0.64590 0.01300
C 	C 	0.69360 0.55320 0.00860 0.01600
C 	C 	0.67430 0.59630 0.02510 0.04900
C 	C 	0.64030 0.62240 0.02860 -0.07600
C 	C 	0.63400 0.63560 0.07900 0.01300
C 	C 	0.66200 0.62290 0.12540 0.00600
C 	C 	0.69600 0.59680 0.12200 -0.06800
C 	C 	0.70210 0.58360 0.07190 0.03500
C 	C 	0.59300 0.66490 0.08400 -0.01900
C 	C 	0.64500 0.64200 0.17700 -0.01500
C 	C 	0.66180 0.68930 0.70700 0.04600
C 	C 	0.59100 0.69940 0.63930 -0.00900
C 	C 	0.55070 0.70120 0.68910 0.00400
C 	C 	0.32370 0.73570 0.96550 0.03100
C 	C 	0.37900 0.72080 0.99800 -0.05700
C 	C 	0.43500 0.73770 0.02800 0.00200
C 	C 	0.54000 0.72200 0.92800 -0.06600
Zn	Zn	0.93144 0.31068 0.30934 1.17600
Zn	Zn	0.87310 0.41909 0.40994 1.17300
Zn	Zn	0.93122 0.52716 0.30403 1.16700
Zn	Zn	0.24393 0.52447 0.39436 1.16900
Zn	Zn	0.18835 0.41684 0.50062 1.17100
Zn	Zn	0.24858 0.31082 0.39431 1.17400
N 	N 	0.87140 0.34120 0.34260 -0.28000
N 	N 	0.84620 0.38270 0.37650 -0.28200
N 	N 	0.84430 0.45340 0.37110 -0.28300
N 	N 	0.86760 0.49520 0.33160 -0.28000
N 	N 	0.03990 0.51490 0.31150 -0.27300
N 	N 	0.15590 0.51280 0.34430 -0.25700
N 	N 	0.27020 0.49390 0.44740 -0.27300
N 	N 	0.24170 0.45280 0.48410 -0.26300
N 	N 	0.23850 0.38070 0.48710 -0.27500
N 	N 	0.26670 0.33880 0.45040 -0.28500
N 	N 	0.15880 0.32200 0.34920 -0.27300
N 	N 	0.03890 0.32140 0.31720 -0.27500
N 	N 	0.98740 0.41910 0.41240 -0.27700
N 	N 	0.10150 0.41680 0.44510 -0.26800
N 	N 	0.91990 0.27340 0.34050 -0.28800
N 	N 	0.09230 0.44100 0.64460 -0.27500
N 	N 	0.14250 0.42010 0.57270 -0.29400
N 	N 	0.90480 0.53630 0.22550 -0.26300
N 	N 	0.83130 0.53420 0.15450 -0.27300
N 	N 	0.78620 0.44410 0.56070 -0.29000
N 	N 	0.83110 0.42230 0.48530 -0.28100
N 	N 	0.83570 0.30750 0.15400 -0.28900
N 	N 	0.22650 0.27350 0.42480 -0.28000
N 	N 	0.90550 0.30760 0.23140 -0.28400
C 	C 	0.90140 0.36450 0.36140 0.03200
C 	C 	0.79400 0.34360 0.34790 0.03000
C 	C 	0.73510 0.32460 0.34240 -0.06800
C 	C 	0.66220 0.33180 0.35880 -0.01000
C 	C 	0.64830 0.35800 0.38060 0.01900
C 	C 	0.70720 0.37700 0.38610 -0.06900
C 	C 	0.78010 0.36980 0.36970 0.05500
C 	C 	0.56760 0.36260 0.41060 -0.03200
C 	C 	0.89860 0.47060 0.35260 0.01000
C 	C 	0.77840 0.46680 0.36380 0.03900
C 	C 	0.70450 0.46080 0.37970 -0.06500
C 	C 	0.64720 0.48020 0.37120 0.01300
C 	C 	0.66370 0.50550 0.34670 -0.00600
C 	C 	0.73760 0.51150 0.33080 -0.08100
C 	C 	0.79490 0.49220 0.33930 0.05400
C 	C 	0.56230 0.47630 0.39560 -0.03600
C 	C 	0.08880 0.52880 0.34740 -0.01600
C 	C 	0.08700 0.49420 0.28990 0.06600
C 	C 	0.05500 0.47480 0.25470 -0.07700
C 	C 	0.09500 0.45100 0.24040 0.01300
C 	C 	0.16800 0.44660 0.26130 0.00700
C 	C 	0.19960 0.46600 0.29640 -0.05500
C 	C 	0.15900 0.48980 0.31070 0.00300
C 	C 	0.21600 0.41890 0.24900 -0.03200
C 	C 	0.22370 0.47220 0.44460 0.00600
C 	C 	0.31300 0.46100 0.52400 -0.05300
C 	C 	0.32110 0.48610 0.49110 0.03400
C 	C 	0.22250 0.36050 0.44980 0.03300
C 	C 	0.29900 0.37060 0.51900 -0.02000
C 	C 	0.31480 0.34680 0.49720 0.01900
C 	C 	0.08600 0.30820 0.35210 0.01000
C 	C 	0.07370 0.34390 0.29210 0.03000
C 	C 	0.04880 0.36510 0.25800 -0.06400
C 	C 	0.09800 0.38640 0.24330 0.01200
C 	C 	0.17200 0.38650 0.26260 0.00600
C 	C 	0.19690 0.36530 0.29670 -0.06700
C 	C 	0.14780 0.34400 0.31140 0.03500
C 	C 	0.07600 0.41380 0.20790 -0.02000
C 	C 	0.02530 0.41800 0.45860 0.01600
C 	C 	0.03620 0.41810 0.37010 0.04100
C 	C 	0.02400 0.41830 0.31420 -0.07200
C 	C 	0.08500 0.41680 0.27860 0.00900
C 	C 	0.15860 0.41530 0.29900 0.01700
C 	C 	0.17080 0.41510 0.35490 -0.07400
C 	C 	0.10960 0.41650 0.39050 0.03300
C 	C 	0.91200 0.26540 0.38920 0.06000
C 	C 	0.89200 0.27860 0.44800 -0.02600
C 	C 	0.13430 0.44400 0.60050 0.02500
C 	C 	0.10360 0.40120 0.60110 0.05500
C 	C 	0.08800 0.37390 0.58650 -0.08200
C 	C 	0.03600 0.35840 0.61700 0.00600
C 	C 	0.00000 0.37030 0.66100 0.00700
C 	C 	0.01600 0.39760 0.67570 -0.05700
C 	C 	0.06700 0.41310 0.64570 0.01600
C 	C 	0.93600 0.35900 0.70100 -0.01600
C 	C 	0.84430 0.52490 0.20620 0.02600
C 	C 	0.95200 0.55350 0.18600 -0.02000
C 	C 	0.89300 0.55280 0.14590 0.01400
C 	C 	0.80640 0.44680 0.50860 0.01600
C 	C 	0.82570 0.40370 0.52510 0.05000
C 	C 	0.85970 0.37760 0.52860 -0.07600
C 	C 	0.86600 0.36440 0.57900 0.01300
C 	C 	0.83800 0.37710 0.62540 0.00600
C 	C 	0.80400 0.40320 0.62200 -0.06800
C 	C 	0.79790 0.41640 0.57190 0.03500
C 	C 	0.90700 0.33510 0.58400 -0.01900
C 	C 	0.85500 0.35800 0.67700 -0.01500
C 	C 	0.83820 0.31070 0.20700 0.04600
C 	C 	0.90900 0.30060 0.13930 -0.00900
C 	C 	0.94930 0.29880 0.18910 0.00400
C 	C 	0.17630 0.26430 0.46550 0.03100
C 	C 	0.12100 0.27920 0.49800 -0.05700
C 	C 	0.06500 0.26230 0.52800 0.00300
C 	C 	0.96000 0.27800 0.42800 -0.06700
Zn	Zn	0.43144 0.18932 0.19066 1.17600
Zn	Zn	0.37310 0.08091 0.09006 1.17300
Zn	Zn	0.43122 0.97284 0.19597 1.16700
Zn	Zn	0.74393 0.97553 0.10564 1.16900
Zn	Zn	0.68835 0.08316 0.99938 1.17100
Zn	Zn	0.74858 0.18918 0.10569 1.17400
N 	N 	0.37140 0.15880 0.15740 -0.28000
N 	N 	0.34620 0.11730 0.12350 -0.28200
N 	N 	0.34430 0.04660 0.12890 -0.28300
N 	N 	0.36760 0.00480 0.16840 -0.28000
N 	N 	0.53990 0.98510 0.18850 -0.27300
N 	N 	0.65590 0.98720 0.15570 -0.25700
N 	N 	0.77020 0.00610 0.05260 -0.27300
N 	N 	0.74170 0.04720 0.01590 -0.26300
N 	N 	0.73850 0.11930 0.01290 -0.27500
N 	N 	0.76670 0.16120 0.04960 -0.28500
N 	N 	0.65880 0.17800 0.15080 -0.27300
N 	N 	0.53890 0.17860 0.18280 -0.27600
N 	N 	0.48740 0.08090 0.08760 -0.27600
N 	N 	0.60150 0.08320 0.05490 -0.26800
N 	N 	0.41990 0.22660 0.15950 -0.28800
N 	N 	0.59230 0.05900 0.85540 -0.27500
N 	N 	0.64250 0.07990 0.92730 -0.29400
N 	N 	0.40480 0.96370 0.27450 -0.26300
N 	N 	0.33130 0.96580 0.34550 -0.27300
N 	N 	0.28620 0.05590 0.93930 -0.29000
N 	N 	0.33110 0.07770 0.01470 -0.28100
N 	N 	0.33570 0.19250 0.34600 -0.28900
N 	N 	0.72650 0.22650 0.07520 -0.28100
N 	N 	0.40550 0.19240 0.26860 -0.28400
C 	C 	0.40140 0.13550 0.13860 0.03200
C 	C 	0.29400 0.15640 0.15210 0.03000
C 	C 	0.23510 0.17540 0.15760 -0.06800
C 	C 	0.16220 0.16820 0.14120 -0.01000
C 	C 	0.14830 0.14200 0.11940 0.01900
C 	C 	0.20720 0.12300 0.11390 -0.06900
C 	C 	0.28010 0.13020 0.13030 0.05500
C 	C 	0.06760 0.13740 0.08940 -0.03200
C 	C 	0.39860 0.02940 0.14740 0.01000
C 	C 	0.27840 0.03320 0.13620 0.03900
C 	C 	0.20450 0.03920 0.12030 -0.06500
C 	C 	0.14720 0.01980 0.12880 0.01300
C 	C 	0.16370 0.99450 0.15330 -0.00600
C 	C 	0.23760 0.98850 0.16920 -0.08100
C 	C 	0.29490 0.00780 0.16070 0.05400
C 	C 	0.06230 0.02370 0.10440 -0.03600
C 	C 	0.58880 0.97120 0.15260 -0.01600
C 	C 	0.58700 0.00580 0.21010 0.06600
C 	C 	0.55500 0.02520 0.24530 -0.07700
C 	C 	0.59500 0.04900 0.25960 0.01300
C 	C 	0.66800 0.05340 0.23870 0.00700
C 	C 	0.69960 0.03400 0.20360 -0.05500
C 	C 	0.65900 0.01020 0.18930 0.00300
C 	C 	0.71600 0.08110 0.25100 -0.03200
C 	C 	0.72370 0.02780 0.05540 0.00600
C 	C 	0.81300 0.03900 0.97600 -0.05300
C 	C 	0.82110 0.01390 0.00890 0.03500
C 	C 	0.72250 0.13950 0.05020 0.03300
C 	C 	0.79900 0.12940 0.98100 -0.02100
C 	C 	0.81480 0.15320 0.00280 0.01900
C 	C 	0.58600 0.19180 0.14790 0.01000
C 	C 	0.57370 0.15610 0.20790 0.02900
C 	C 	0.54880 0.13490 0.24200 -0.06500
C 	C 	0.59800 0.11360 0.25670 0.01200
C 	C 	0.67200 0.11350 0.23740 0.00600
C 	C 	0.69690 0.13470 0.20330 -0.06700
C 	C 	0.64780 0.15600 0.18860 0.03500
C 	C 	0.57600 0.08620 0.29210 -0.02000
C 	C 	0.52530 0.08200 0.04140 0.01600
C 	C 	0.53620 0.08190 0.12990 0.04000
C 	C 	0.52400 0.08170 0.18580 -0.07200
C 	C 	0.58500 0.08320 0.22140 0.00900
C 	C 	0.65860 0.08470 0.20100 0.01700
C 	C 	0.67080 0.08490 0.14510 -0.07400
C 	C 	0.60960 0.08350 0.10950 0.03300
C 	C 	0.41200 0.23460 0.11080 0.06000
C 	C 	0.39200 0.22140 0.05200 -0.02600
C 	C 	0.63430 0.05600 0.89950 0.02500
C 	C 	0.60360 0.09880 0.89890 0.05500
C 	C 	0.58800 0.12610 0.91350 -0.08200
C 	C 	0.53600 0.14160 0.88300 0.00600
C 	C 	0.50000 0.12970 0.83900 0.00600
C 	C 	0.51600 0.10240 0.82430 -0.05700
C 	C 	0.56700 0.08690 0.85430 0.01600
C 	C 	0.43600 0.14100 0.79900 -0.01500
C 	C 	0.34430 0.97510 0.29380 0.02600
C 	C 	0.45200 0.94650 0.31400 -0.02000
C 	C 	0.39300 0.94720 0.35410 0.01300
C 	C 	0.30640 0.05320 0.99140 0.01600
C 	C 	0.32570 0.09630 0.97490 0.04900
C 	C 	0.35970 0.12240 0.97140 -0.07600
C 	C 	0.36600 0.13560 0.92100 0.01300
C 	C 	0.33800 0.12290 0.87460 0.00600
C 	C 	0.30400 0.09680 0.87800 -0.06800
C 	C 	0.29790 0.08360 0.92810 0.03500
C 	C 	0.40700 0.16490 0.91600 -0.01900
C 	C 	0.35500 0.14200 0.82300 -0.01500
C 	C 	0.33820 0.18930 0.29300 0.04600
C 	C 	0.40900 0.19940 0.36070 -0.00900
C 	C 	0.44930 0.20120 0.31090 0.00400
C 	C 	0.67630 0.23570 0.03450 0.03100
C 	C 	0.62100 0.22080 0.00200 -0.05700
C 	C 	0.56500 0.23770 0.97200 0.00200
C 	C 	0.46000 0.22200 0.07200 -0.06600
Zn	Zn	0.06856 0.81068 0.69066 1.17600
Zn	Zn	0.12690 0.91909 0.59006 1.17300
Zn	Zn	0.06878 0.02716 0.69597 1.16700
Zn	Zn	0.75607 0.02447 0.60564 1.16900
Zn	Zn	0.81165 0.91684 0.49938 1.17100
Zn	Zn	0.75142 0.81082 0.60569 1.17400
N 	N 	0.12860 0.84120 0.65740 -0.28000
N 	N 	0.15380 0.88270 0.62350 -0.28200
N 	N 	0.15570 0.95340 0.62890 -0.28300
N 	N 	0.13240 0.99520 0.66840 -0.28000
N 	N 	0.96010 0.01490 0.68850 -0.27300
N 	N 	0.84410 0.01280 0.65570 -0.25700
N 	N 	0.72980 0.99390 0.55260 -0.27300
N 	N 	0.75830 0.95280 0.51590 -0.26300
N 	N 	0.76150 0.88070 0.51290 -0.27500
N 	N 	0.73330 0.83880 0.54960 -0.28500
N 	N 	0.84120 0.82200 0.65080 -0.27300
N 	N 	0.96110 0.82140 0.68280 -0.27500
N 	N 	0.01260 0.91910 0.58760 -0.27700
N 	N 	0.89850 0.91680 0.55490 -0.26800
N 	N 	0.08010 0.77340 0.65950 -0.28800
N 	N 	0.90770 0.94100 0.35540 -0.27500
N 	N 	0.85750 0.92010 0.42730 -0.29400
N 	N 	0.09520 0.03630 0.77450 -0.26300
N 	N 	0.16870 0.03420 0.84550 -0.27300
N 	N 	0.21380 0.94410 0.43930 -0.29000
N 	N 	0.16890 0.92230 0.51470 -0.28100
N 	N 	0.16430 0.80750 0.84600 -0.28900
N 	N 	0.77350 0.77350 0.57520 -0.28000
N 	N 	0.09450 0.80760 0.76860 -0.28400
C 	C 	0.09860 0.86450 0.63860 0.03200
C 	C 	0.20600 0.84360 0.65210 0.03000
C 	C 	0.26490 0.82460 0.65760 -0.06800
C 	C 	0.33780 0.83180 0.64120 -0.01000
C 	C 	0.35170 0.85800 0.61940 0.01900
C 	C 	0.29280 0.87700 0.61390 -0.06900
C 	C 	0.21990 0.86980 0.63030 0.05500
C 	C 	0.43240 0.86260 0.58940 -0.03200
C 	C 	0.10140 0.97060 0.64740 0.01000
C 	C 	0.22160 0.96680 0.63620 0.03800
C 	C 	0.29550 0.96080 0.62030 -0.06500
C 	C 	0.35280 0.98020 0.62880 0.01300
C 	C 	0.33630 0.00550 0.65330 -0.00600
C 	C 	0.26240 0.01150 0.66920 -0.08100
C 	C 	0.20510 0.99220 0.66070 0.05400
C 	C 	0.43770 0.97630 0.60440 -0.03600
C 	C 	0.91120 0.02880 0.65260 -0.01600
C 	C 	0.91300 0.99420 0.71010 0.06600
C 	C 	0.94500 0.97480 0.74530 -0.07700
C 	C 	0.90500 0.95100 0.75960 0.01300
C 	C 	0.83200 0.94660 0.73870 0.00700
C 	C 	0.80040 0.96600 0.70360 -0.05500
C 	C 	0.84100 0.98980 0.68930 0.00300
C 	C 	0.78400 0.91890 0.75100 -0.03200
C 	C 	0.77630 0.97220 0.55540 0.00600
C 	C 	0.68700 0.96100 0.47600 -0.05300
C 	C 	0.67890 0.98610 0.50890 0.03400
C 	C 	0.77750 0.86050 0.55020 0.03300
C 	C 	0.70100 0.87060 0.48100 -0.02000
C 	C 	0.68520 0.84680 0.50280 0.01900
C 	C 	0.91400 0.80820 0.64790 0.01000
C 	C 	0.92630 0.84390 0.70790 0.03000
C 	C 	0.95120 0.86510 0.74200 -0.06400
C 	C 	0.90200 0.88640 0.75670 0.01200
C 	C 	0.82800 0.88650 0.73740 0.00600
C 	C 	0.80310 0.86530 0.70330 -0.06700
C 	C 	0.85220 0.84400 0.68860 0.03500
C 	C 	0.92400 0.91380 0.79210 -0.02000
C 	C 	0.97470 0.91800 0.54140 0.01600
C 	C 	0.96380 0.91810 0.62990 0.04100
C 	C 	0.97600 0.91830 0.68580 -0.07200
C 	C 	0.91500 0.91680 0.72140 0.00900
C 	C 	0.84140 0.91530 0.70100 0.01700
C 	C 	0.82920 0.91510 0.64510 -0.07400
C 	C 	0.89040 0.91650 0.60950 0.03300
C 	C 	0.08800 0.76540 0.61080 0.06000
C 	C 	0.10800 0.77860 0.55200 -0.02600
C 	C 	0.86570 0.94400 0.39950 0.02500
C 	C 	0.89640 0.90120 0.39890 0.05600
C 	C 	0.91200 0.87390 0.41350 -0.08200
C 	C 	0.96400 0.85840 0.38300 0.00800
C 	C 	-0.00000 0.87030 0.33900 0.00400
C 	C 	0.98400 0.89760 0.32430 -0.05500
C 	C 	0.93300 0.91310 0.35430 0.01600
C 	C 	0.06400 0.85900 0.29900 -0.01600
C 	C 	0.15570 0.02490 0.79380 0.02600
C 	C 	0.04800 0.05350 0.81400 -0.02000
C 	C 	0.10700 0.05280 0.85410 0.01300
C 	C 	0.19360 0.94680 0.49140 0.01600
C 	C 	0.17430 0.90370 0.47490 0.05000
C 	C 	0.14030 0.87760 0.47140 -0.07600
C 	C 	0.13400 0.86440 0.42100 0.01300
C 	C 	0.16200 0.87710 0.37460 0.00600
C 	C 	0.19600 0.90320 0.37800 -0.06800
C 	C 	0.20210 0.91640 0.42810 0.03500
C 	C 	0.09300 0.83510 0.41600 -0.01900
C 	C 	0.14500 0.85800 0.32300 -0.01500
C 	C 	0.16180 0.81070 0.79300 0.04600
C 	C 	0.09100 0.80060 0.86070 -0.00900
C 	C 	0.05070 0.79880 0.81090 0.00400
C 	C 	0.82370 0.76430 0.53450 0.03100
C 	C 	0.87900 0.77920 0.50200 -0.05700
C 	C 	0.93500 0.76230 0.47200 0.00300
C 	C 	0.04000 0.77800 0.57200 -0.06700
C 	C 	0.42100 0.25000 0.19250 -0.00200
C 	C 	0.75350 0.25000 0.09730 0.01700
C 	C 	0.07900 0.75000 0.69250 -0.00200
C 	C 	0.74650 0.75000 0.59730 0.01700
C 	C 	0.57900 0.75000 0.80750 -0.00200
C 	C 	0.24650 0.75000 0.90270 0.01700
C 	C 	0.92100 0.25000 0.30750 -0.00200
C 	C 	0.25350 0.25000 0.40270 0.01700
