data_crystal

_cell_length_a 27.83420
_cell_length_b 27.83420
_cell_length_c 6.24210
_cell_angle_alpha 90.00000
_cell_angle_beta  90.00000
_cell_angle_gamma 120.00000

_symmetry_space_group_name_	'P 1'
_symmetry_space_group_name_H-M	'P 1'

loop_
_symmetry_equiv_pos_as_xyz
  x,y,z

loop_
_atom_site_label
_atom_site_type_symbol
_atom_site_fract_x
_atom_site_fract_y
_atom_site_fract_z
_atom_site_charge
Ni	Ni	0.30346 0.02706 0.71921 1.06900
P 	P 	0.29402 0.05095 0.23750 0.39900
O 	O 	0.24067 0.05063 0.18310 -0.24700
O 	O 	0.32394 0.04578 0.04960 -0.51700
N 	N 	0.32491 0.11125 0.62300 -0.18600
C 	C 	0.27810 0.11980 0.64500 0.01500
O 	O 	0.28276 0.00262 0.39790 -0.50200
C 	C 	0.37743 0.15730 0.74490 0.01400
C 	C 	0.34670 0.11700 0.39490 -0.05300
Ni	Ni	0.97013 0.36039 0.05254 1.06900
P 	P 	0.96069 0.38428 0.57083 0.40000
O 	O 	0.90734 0.38396 0.51643 -0.24600
O 	O 	0.99061 0.37911 0.38293 -0.51600
N 	N 	0.99158 0.44458 0.95633 -0.18500
C 	C 	0.94477 0.45313 0.97833 0.01700
O 	O 	0.94943 0.33595 0.73123 -0.50100
C 	C 	0.04410 0.49063 0.07823 0.01500
C 	C 	0.01337 0.45033 0.72823 -0.05200
Ni	Ni	0.63679 0.69373 0.38588 1.07000
P 	P 	0.62735 0.71762 0.90417 0.39900
O 	O 	0.57400 0.71730 0.84977 -0.24700
O 	O 	0.65727 0.71245 0.71627 -0.51600
N 	N 	0.65824 0.77792 0.28967 -0.18500
C 	C 	0.61143 0.78647 0.31167 0.01600
O 	O 	0.61609 0.66929 0.06457 -0.50100
C 	C 	0.71076 0.82397 0.41157 0.01400
C 	C 	0.68003 0.78367 0.06157 -0.05100
Ni	Ni	0.97294 0.27640 0.71921 1.07000
P 	P 	0.94905 0.24307 0.23750 0.40000
O 	O 	0.94937 0.19004 0.18310 -0.24700
O 	O 	0.95422 0.27816 0.04960 -0.51600
N 	N 	0.88875 0.21366 0.62300 -0.18500
C 	C 	0.88020 0.15830 0.64500 0.01600
O 	O 	0.99738 0.28014 0.39790 -0.50100
C 	C 	0.84270 0.22013 0.74490 0.01500
C 	C 	0.88300 0.22970 0.39490 -0.05200
Ni	Ni	0.63961 0.60973 0.05254 1.07000
P 	P 	0.61572 0.57640 0.57083 0.40000
O 	O 	0.61604 0.52337 0.51643 -0.24600
O 	O 	0.62089 0.61149 0.38293 -0.51600
N 	N 	0.55542 0.54699 0.95633 -0.18500
C 	C 	0.54687 0.49163 0.97833 0.01600
O 	O 	0.66405 0.61347 0.73123 -0.50100
C 	C 	0.50937 0.55346 0.07823 0.01500
C 	C 	0.54967 0.56303 0.72823 -0.05200
Ni	Ni	0.30627 0.94307 0.38588 1.07000
P 	P 	0.28238 0.90974 0.90417 0.39900
O 	O 	0.28270 0.85671 0.84977 -0.24700
O 	O 	0.28755 0.94483 0.71627 -0.51600
N 	N 	0.22208 0.88033 0.28967 -0.18500
C 	C 	0.21353 0.82497 0.31167 0.01600
O 	O 	0.33071 0.94681 0.06457 -0.50000
C 	C 	0.17603 0.88680 0.41157 0.01400
C 	C 	0.21633 0.89637 0.06157 -0.05100
Ni	Ni	0.72360 0.69654 0.71921 1.07000
P 	P 	0.75693 0.70598 0.23750 0.40000
O 	O 	0.80996 0.75933 0.18310 -0.24600
O 	O 	0.72184 0.67606 0.04960 -0.51600
N 	N 	0.78634 0.67509 0.62300 -0.18500
C 	C 	0.84170 0.72190 0.64500 0.01600
O 	O 	0.71986 0.71724 0.39790 -0.50100
C 	C 	0.77987 0.62257 0.74490 0.01500
C 	C 	0.77030 0.65330 0.39490 -0.05200
Ni	Ni	0.39027 0.02987 0.05254 1.07000
P 	P 	0.42360 0.03931 0.57083 0.40000
O 	O 	0.47663 0.09266 0.51643 -0.24600
O 	O 	0.38851 0.00939 0.38293 -0.51600
N 	N 	0.45301 0.00842 0.95633 -0.18500
C 	C 	0.50837 0.05523 0.97833 0.01700
O 	O 	0.38653 0.05057 0.73123 -0.50100
C 	C 	0.44654 0.95590 0.07823 0.01500
C 	C 	0.43697 0.98663 0.72823 -0.05200
Ni	Ni	0.05693 0.36321 0.38588 1.07000
P 	P 	0.09026 0.37265 0.90417 0.39900
O 	O 	0.14329 0.42600 0.84977 -0.24700
O 	O 	0.05517 0.34273 0.71627 -0.51600
N 	N 	0.11967 0.34176 0.28967 -0.18500
C 	C 	0.17503 0.38857 0.31167 0.01600
O 	O 	0.05319 0.38391 0.06457 -0.50100
C 	C 	0.11320 0.28924 0.41157 0.01400
C 	C 	0.10363 0.31997 0.06157 -0.05100
Ni	Ni	0.69654 0.97294 0.28079 1.07000
P 	P 	0.70598 0.94905 0.76250 0.40000
O 	O 	0.75933 0.94937 0.81690 -0.24600
O 	O 	0.67606 0.95422 0.95040 -0.51600
N 	N 	0.67509 0.88875 0.37700 -0.18500
C 	C 	0.72190 0.88020 0.35500 0.01600
O 	O 	0.71724 0.99738 0.60210 -0.50100
C 	C 	0.62257 0.84270 0.25510 0.01500
C 	C 	0.65330 0.88300 0.60510 -0.05200
Ni	Ni	0.36321 0.30627 0.61412 1.07000
P 	P 	0.37265 0.28238 0.09583 0.39900
O 	O 	0.42600 0.28270 0.15023 -0.24700
O 	O 	0.34273 0.28755 0.28373 -0.51600
N 	N 	0.34176 0.22208 0.71033 -0.18500
C 	C 	0.38857 0.21353 0.68833 0.01600
O 	O 	0.38391 0.33071 0.93543 -0.50100
C 	C 	0.28924 0.17603 0.58843 0.01400
C 	C 	0.31997 0.21633 0.93843 -0.05100
Ni	Ni	0.02987 0.63961 0.94746 1.07000
P 	P 	0.03931 0.61572 0.42917 0.40000
O 	O 	0.09266 0.61604 0.48357 -0.24600
O 	O 	0.00939 0.62089 0.61707 -0.51600
N 	N 	0.00842 0.55542 0.04367 -0.18500
C 	C 	0.05523 0.54687 0.02167 0.01700
O 	O 	0.05057 0.66405 0.26877 -0.50100
C 	C 	0.95590 0.50937 0.92177 0.01500
C 	C 	0.98663 0.54967 0.27177 -0.05200
Ni	Ni	0.02706 0.72360 0.28079 1.07000
P 	P 	0.05095 0.75693 0.76250 0.40000
O 	O 	0.05063 0.80996 0.81690 -0.24700
O 	O 	0.04578 0.72184 0.95040 -0.51600
N 	N 	0.11125 0.78634 0.37700 -0.18500
C 	C 	0.11980 0.84170 0.35500 0.01600
O 	O 	0.00262 0.71986 0.60210 -0.50100
C 	C 	0.15730 0.77987 0.25510 0.01500
C 	C 	0.11700 0.77030 0.60510 -0.05200
Ni	Ni	0.69373 0.05693 0.61412 1.07000
P 	P 	0.71762 0.09026 0.09583 0.39900
O 	O 	0.71730 0.14329 0.15023 -0.24700
O 	O 	0.71245 0.05517 0.28373 -0.51600
N 	N 	0.77792 0.11967 0.71033 -0.18500
C 	C 	0.78647 0.17503 0.68833 0.01600
O 	O 	0.66929 0.05319 0.93543 -0.50000
C 	C 	0.82397 0.11320 0.58843 0.01400
C 	C 	0.78367 0.10363 0.93843 -0.05100
Ni	Ni	0.36039 0.39027 0.94746 1.07000
P 	P 	0.38428 0.42360 0.42917 0.40000
O 	O 	0.38396 0.47663 0.48357 -0.24600
O 	O 	0.37911 0.38851 0.61707 -0.51600
N 	N 	0.44458 0.45301 0.04367 -0.18500
C 	C 	0.45313 0.50837 0.02167 0.01600
O 	O 	0.33595 0.38653 0.26877 -0.50100
C 	C 	0.49063 0.44654 0.92177 0.01500
C 	C 	0.45033 0.43697 0.27177 -0.05200
Ni	Ni	0.27640 0.30346 0.28079 1.07000
P 	P 	0.24307 0.29402 0.76250 0.40000
O 	O 	0.19004 0.24067 0.81690 -0.24600
O 	O 	0.27816 0.32394 0.95040 -0.51600
N 	N 	0.21366 0.32491 0.37700 -0.18500
C 	C 	0.15830 0.27810 0.35500 0.01600
O 	O 	0.28014 0.28276 0.60210 -0.50100
C 	C 	0.22013 0.37743 0.25510 0.01500
C 	C 	0.22970 0.34670 0.60510 -0.05200
Ni	Ni	0.94307 0.63679 0.61412 1.07000
P 	P 	0.90974 0.62735 0.09583 0.39900
O 	O 	0.85671 0.57400 0.15023 -0.24700
O 	O 	0.94483 0.65727 0.28373 -0.51600
N 	N 	0.88033 0.65824 0.71033 -0.18500
C 	C 	0.82497 0.61143 0.68833 0.01600
O 	O 	0.94681 0.61609 0.93543 -0.50100
C 	C 	0.88680 0.71076 0.58843 0.01400
C 	C 	0.89637 0.68003 0.93843 -0.05100
Ni	Ni	0.60973 0.97013 0.94746 1.07000
P 	P 	0.57640 0.96069 0.42917 0.40000
O 	O 	0.52337 0.90734 0.48357 -0.24600
O 	O 	0.61149 0.99061 0.61707 -0.51600
N 	N 	0.54699 0.99158 0.04367 -0.18500
C 	C 	0.49163 0.94477 0.02167 0.01700
O 	O 	0.61347 0.94943 0.26877 -0.50100
C 	C 	0.55346 0.04410 0.92177 0.01500
C 	C 	0.56303 0.01337 0.27177 -0.05200
