data_crystal

_cell_length_a 19.56390
_cell_length_b 19.56390
_cell_length_c 26.87320
_cell_angle_alpha 90.00000
_cell_angle_beta  90.00000
_cell_angle_gamma 120.00000

_symmetry_space_group_name_	'P 1'
_symmetry_space_group_name_H-M	'P 1'

loop_
_symmetry_equiv_pos_as_xyz
  x,y,z

loop_
_atom_site_label
_atom_site_type_symbol
_atom_site_fract_x
_atom_site_fract_y
_atom_site_fract_z
_atom_site_charge
Cd	Cd	0.28993 0.01014 0.36144 1.20300
C 	C 	0.99950 0.92530 0.37434 -0.04000
H 	H 	0.99950 0.92230 0.33830 0.05100
H 	H 	0.99930 0.87910 0.38750 0.05200
C 	C 	0.07450 0.99960 0.39157 -0.13300
H 	H 	0.07400 0.99960 0.42800 0.07100
C 	C 	0.14810 0.99810 0.37529 0.30200
C 	C 	0.38170 0.08850 0.56840 0.22800
C 	C 	0.45610 0.09790 0.56760 -0.29200
H 	H 	0.48350 0.10660 0.53790 0.13400
C 	C 	0.48920 0.09410 0.61247 0.22800
C 	C 	0.44960 0.08190 0.65666 -0.29400
H 	H 	0.47260 0.07960 0.68640 0.13200
C 	C 	0.37490 0.07320 0.65621 0.22800
C 	C 	0.33960 0.07690 0.61224 -0.29400
H 	H 	0.28980 0.07190 0.61220 0.14500
C 	C 	0.28660 0.10750 0.51495 -0.00400
H 	H 	0.26710 0.12890 0.53800 0.03600
C 	C 	0.26580 0.09060 0.46703 0.00500
H 	H 	0.22830 0.09900 0.45130 0.02300
C 	C 	0.35350 0.05760 0.47880 0.09700
H 	H 	0.38870 0.03940 0.47410 -0.02100
C 	C 	0.62910 0.14840 0.58140 -0.00000
H 	H 	0.63410 0.18850 0.56050 0.03000
C 	C 	0.68300 0.12460 0.58900 0.00500
H 	H 	0.73220 0.14680 0.57380 0.01400
C 	C 	0.58220 0.04830 0.63170 0.10400
H 	H 	0.54700 0.00560 0.65100 -0.02900
C 	C 	0.24120 0.00320 0.70040 0.00300
H 	H 	0.20820 0.98460 0.67280 0.03500
C 	C 	0.22070 0.98870 0.74870 -0.04600
H 	H 	0.16960 0.95820 0.76100 0.04000
C 	C 	0.34700 0.04590 0.74649 0.13700
H 	H 	0.39490 0.04940 0.75450 -0.03700
C 	C 	0.61780 0.36610 0.32230 -0.28900
H 	H 	0.58530 0.38810 0.32090 0.13400
C 	C 	0.58600 0.28550 0.32330 0.23400
C 	C 	0.44830 0.25320 0.30550 0.01300
H 	H 	0.45720 0.29860 0.28890 0.02400
C 	C 	0.37670 0.18800 0.31770 -0.00300
H 	H 	0.32780 0.18420 0.31340 0.02700
C 	C 	0.46420 0.16100 0.33800 0.11600
H 	H 	0.48890 0.13330 0.34820 -0.03300
N 	N 	0.30720 0.05930 0.44402 -0.22300
N 	N 	0.34310 0.08600 0.52248 -0.15800
N 	N 	0.65480 0.06460 0.62154 -0.25200
N 	N 	0.56520 0.09980 0.61142 -0.16300
N 	N 	0.29440 0.03030 0.77921 -0.23900
N 	N 	0.33040 0.05670 0.70088 -0.16900
N 	N 	0.38800 0.13020 0.33680 -0.24500
N 	N 	0.50340 0.23570 0.32340 -0.16900
O 	O 	0.20255 0.05852 0.35486 -0.39000
O 	O 	0.15295 0.93704 0.38453 -0.38700
C 	C 	0.28200 0.09120 0.71170 -0.01500
H 	H 	0.26800 0.11910 0.68990 0.02900
C 	C 	0.26150 0.07450 0.75960 0.01100
H 	H 	0.23040 0.08970 0.77730 0.01500
Cd	Cd	0.98986 0.27979 0.36144 1.20400
C 	C 	0.07470 0.07420 0.37434 -0.03900
H 	H 	0.07770 0.07720 0.33830 0.05200
H 	H 	0.12090 0.12020 0.38750 0.05300
C 	C 	0.00040 0.07490 0.39157 -0.13400
H 	H 	0.00040 0.07440 0.42800 0.07200
C 	C 	0.00190 0.15000 0.37529 0.30200
C 	C 	0.91150 0.29320 0.56840 0.22900
C 	C 	0.90210 0.35820 0.56760 -0.29100
H 	H 	0.89340 0.37690 0.53790 0.13500
C 	C 	0.90590 0.39510 0.61247 0.22900
C 	C 	0.91810 0.36770 0.65666 -0.29300
H 	H 	0.92040 0.39300 0.68640 0.13300
C 	C 	0.92680 0.30170 0.65621 0.23000
C 	C 	0.92310 0.26270 0.61224 -0.29300
H 	H 	0.92810 0.21790 0.61220 0.14600
C 	C 	0.89250 0.17910 0.51495 -0.00300
H 	H 	0.87110 0.13820 0.53800 0.03700
C 	C 	0.90940 0.17520 0.46703 0.00600
H 	H 	0.90100 0.12930 0.45130 0.02400
C 	C 	0.94240 0.29590 0.47880 0.09800
H 	H 	0.96060 0.34930 0.47410 -0.02000
C 	C 	0.85160 0.48070 0.58140 -0.00000
H 	H 	0.81150 0.44560 0.56050 0.03000
C 	C 	0.87540 0.55840 0.58900 0.00500
H 	H 	0.85320 0.58540 0.57380 0.01400
C 	C 	0.95170 0.53390 0.63170 0.10400
H 	H 	0.99440 0.54140 0.65100 -0.02900
C 	C 	0.99680 0.23800 0.70040 0.00600
H 	H 	0.01540 0.22360 0.67280 0.03300
C 	C 	0.01130 0.23200 0.74870 -0.04900
H 	H 	0.04180 0.21140 0.76100 0.04200
C 	C 	0.95410 0.30110 0.74649 0.13700
H 	H 	0.95060 0.34550 0.75450 -0.03700
C 	C 	0.63390 0.25170 0.32230 -0.28900
H 	H 	0.61190 0.19720 0.32090 0.13400
C 	C 	0.71450 0.30050 0.32330 0.23400
C 	C 	0.74680 0.19510 0.30550 0.01300
H 	H 	0.70140 0.15860 0.28890 0.02400
C 	C 	0.81200 0.18870 0.31770 -0.00300
H 	H 	0.81580 0.14360 0.31340 0.02700
C 	C 	0.83900 0.30320 0.33800 0.11600
H 	H 	0.86670 0.35560 0.34820 -0.03300
N 	N 	0.94070 0.24790 0.44402 -0.22300
N 	N 	0.91400 0.25710 0.52248 -0.15800
N 	N 	0.93540 0.59020 0.62154 -0.25200
N 	N 	0.90020 0.46540 0.61142 -0.16300
N 	N 	0.96970 0.26410 0.77921 -0.23900
N 	N 	0.94330 0.27370 0.70088 -0.16900
N 	N 	0.86980 0.25780 0.33680 -0.24500
N 	N 	0.76430 0.26770 0.32340 -0.16900
O 	O 	0.94148 0.14403 0.35486 -0.39000
O 	O 	0.06296 0.21591 0.38453 -0.38700
C 	C 	0.90880 0.19080 0.71170 -0.01700
H 	H 	0.88090 0.14890 0.68990 0.03000
C 	C 	0.92550 0.18700 0.75960 0.01300
H 	H 	0.91030 0.14070 0.77730 0.01400
Cd	Cd	0.72021 0.71007 0.36144 1.20500
C 	C 	0.92580 0.00050 0.37434 -0.03800
H 	H 	0.92280 0.00050 0.33830 0.05200
H 	H 	0.87980 0.00070 0.38750 0.05300
C 	C 	0.92510 0.92550 0.39157 -0.13400
H 	H 	0.92560 0.92600 0.42800 0.07200
C 	C 	0.85000 0.85190 0.37529 0.30100
C 	C 	0.70680 0.61830 0.56840 0.22900
C 	C 	0.64180 0.54390 0.56760 -0.29100
H 	H 	0.62310 0.51650 0.53790 0.13500
C 	C 	0.60490 0.51080 0.61247 0.22900
C 	C 	0.63230 0.55040 0.65666 -0.29300
H 	H 	0.60700 0.52740 0.68640 0.13300
C 	C 	0.69830 0.62510 0.65621 0.22900
C 	C 	0.73730 0.66040 0.61224 -0.29300
H 	H 	0.78210 0.71020 0.61220 0.14600
C 	C 	0.82090 0.71340 0.51495 -0.00300
H 	H 	0.86180 0.73290 0.53800 0.03700
C 	C 	0.82480 0.73420 0.46703 0.00600
H 	H 	0.87070 0.77170 0.45130 0.02400
C 	C 	0.70410 0.64650 0.47880 0.09800
H 	H 	0.65070 0.61130 0.47410 -0.02000
C 	C 	0.51930 0.37090 0.58140 -0.00000
H 	H 	0.55440 0.36590 0.56050 0.03000
C 	C 	0.44160 0.31700 0.58900 0.00500
H 	H 	0.41460 0.26780 0.57380 0.01400
C 	C 	0.46610 0.41780 0.63170 0.10400
H 	H 	0.45860 0.45300 0.65100 -0.02900
C 	C 	0.76200 0.75880 0.70040 -0.00100
H 	H 	0.77640 0.79180 0.67280 0.03600
C 	C 	0.76800 0.77930 0.74870 -0.04200
H 	H 	0.78860 0.83040 0.76100 0.03900
C 	C 	0.69890 0.65300 0.74649 0.13600
H 	H 	0.65450 0.60510 0.75450 -0.03700
C 	C 	0.74830 0.38220 0.32230 -0.28900
H 	H 	0.80280 0.41470 0.32090 0.13400
C 	C 	0.69950 0.41400 0.32330 0.23400
C 	C 	0.80490 0.55170 0.30550 0.01200
H 	H 	0.84140 0.54280 0.28890 0.02400
C 	C 	0.81130 0.62330 0.31770 -0.00300
H 	H 	0.85640 0.67220 0.31340 0.02700
C 	C 	0.69680 0.53580 0.33800 0.11600
H 	H 	0.64440 0.51110 0.34820 -0.03300
N 	N 	0.75210 0.69280 0.44402 -0.22300
N 	N 	0.74290 0.65690 0.52248 -0.15800
N 	N 	0.40980 0.34520 0.62154 -0.25200
N 	N 	0.53460 0.43480 0.61142 -0.16300
N 	N 	0.73590 0.70560 0.77921 -0.23900
N 	N 	0.72630 0.66960 0.70088 -0.16900
N 	N 	0.74220 0.61200 0.33680 -0.24500
N 	N 	0.73230 0.49660 0.32340 -0.16900
O 	O 	0.85597 0.79745 0.35486 -0.38900
O 	O 	0.78409 0.84705 0.38453 -0.38700
C 	C 	0.80920 0.71800 0.71170 -0.01200
H 	H 	0.85110 0.73200 0.68990 0.02900
C 	C 	0.81300 0.73850 0.75960 0.00800
H 	H 	0.85930 0.76960 0.77730 0.01600
Cd	Cd	0.98986 0.71007 0.13856 1.20400
C 	C 	0.07470 0.00050 0.12566 -0.04200
H 	H 	0.07770 0.00050 0.16170 0.05300
H 	H 	0.12090 0.00070 0.11250 0.05300
C 	C 	0.00040 0.92550 0.10843 -0.12900
H 	H 	0.00040 0.92600 0.07200 0.07200
C 	C 	0.00190 0.85190 0.12471 0.30300
C 	C 	0.91150 0.61830 0.93160 0.22900
C 	C 	0.90210 0.54390 0.93240 -0.29100
H 	H 	0.89340 0.51650 0.96210 0.13500
C 	C 	0.90590 0.51080 0.88753 0.22900
C 	C 	0.91810 0.55040 0.84334 -0.29300
H 	H 	0.92040 0.52740 0.81360 0.13300
C 	C 	0.92680 0.62510 0.84379 0.23000
C 	C 	0.92310 0.66040 0.88776 -0.29300
H 	H 	0.92810 0.71020 0.88780 0.14600
C 	C 	0.89250 0.71340 0.98505 -0.00100
H 	H 	0.87110 0.73290 0.96200 0.03700
C 	C 	0.90940 0.73420 0.03297 0.00400
H 	H 	0.90100 0.77170 0.04870 0.02500
C 	C 	0.94240 0.64650 0.02120 0.09600
H 	H 	0.96060 0.61130 0.02590 -0.02000
C 	C 	0.85160 0.37090 0.91860 -0.00000
H 	H 	0.81150 0.36590 0.93950 0.03000
C 	C 	0.87540 0.31700 0.91100 0.00500
H 	H 	0.85320 0.26780 0.92620 0.01400
C 	C 	0.95170 0.41780 0.86830 0.10400
H 	H 	0.99440 0.45300 0.84900 -0.02900
C 	C 	0.99680 0.75880 0.79960 0.00500
H 	H 	0.01540 0.79180 0.82720 0.03300
C 	C 	0.01130 0.77930 0.75130 -0.04700
H 	H 	0.04180 0.83040 0.73900 0.04100
C 	C 	0.95410 0.65300 0.75351 0.13700
H 	H 	0.95060 0.60510 0.74550 -0.03700
C 	C 	0.63390 0.38220 0.17770 -0.28900
H 	H 	0.61190 0.41470 0.17910 0.13400
C 	C 	0.71450 0.41400 0.17670 0.23400
C 	C 	0.74680 0.55170 0.19450 0.01200
H 	H 	0.70140 0.54280 0.21110 0.02400
C 	C 	0.81200 0.62330 0.18230 -0.00300
H 	H 	0.81580 0.67220 0.18660 0.02700
C 	C 	0.83900 0.53580 0.16200 0.11600
H 	H 	0.86670 0.51110 0.15180 -0.03300
N 	N 	0.94070 0.69280 0.05598 -0.22300
N 	N 	0.91400 0.65690 0.97752 -0.15800
N 	N 	0.93540 0.34520 0.87846 -0.25200
N 	N 	0.90020 0.43480 0.88858 -0.16300
N 	N 	0.96970 0.70560 0.72079 -0.23900
N 	N 	0.94330 0.66960 0.79912 -0.16900
N 	N 	0.86980 0.61200 0.16320 -0.24500
N 	N 	0.76430 0.49660 0.17660 -0.16900
O 	O 	0.94148 0.79745 0.14514 -0.39100
O 	O 	0.06296 0.84705 0.11547 -0.38600
C 	C 	0.90880 0.71800 0.78830 -0.01600
H 	H 	0.88090 0.73200 0.81010 0.03000
C 	C 	0.92550 0.73850 0.74040 0.01200
H 	H 	0.91030 0.76960 0.72270 0.01400
Cd	Cd	0.72021 0.01014 0.13856 1.20400
C 	C 	0.92580 0.92530 0.12566 -0.04200
H 	H 	0.92280 0.92230 0.16170 0.05300
H 	H 	0.87980 0.87910 0.11250 0.05400
C 	C 	0.92510 0.99960 0.10843 -0.13100
H 	H 	0.92560 0.99960 0.07200 0.07200
C 	C 	0.85000 0.99810 0.12471 0.30200
C 	C 	0.70680 0.08850 0.93160 0.22900
C 	C 	0.64180 0.09790 0.93240 -0.29100
H 	H 	0.62310 0.10660 0.96210 0.13500
C 	C 	0.60490 0.09410 0.88753 0.22900
C 	C 	0.63230 0.08190 0.84334 -0.29300
H 	H 	0.60700 0.07960 0.81360 0.13300
C 	C 	0.69830 0.07320 0.84379 0.23000
C 	C 	0.73730 0.07690 0.88776 -0.29300
H 	H 	0.78210 0.07190 0.88780 0.14600
C 	C 	0.82090 0.10750 0.98505 0.00300
H 	H 	0.86180 0.12890 0.96200 0.03600
C 	C 	0.82480 0.09060 0.03297 -0.00000
H 	H 	0.87070 0.09900 0.04870 0.02600
C 	C 	0.70410 0.05760 0.02120 0.09500
H 	H 	0.65070 0.03940 0.02590 -0.02000
C 	C 	0.51930 0.14840 0.91860 -0.00000
H 	H 	0.55440 0.18850 0.93950 0.03000
C 	C 	0.44160 0.12460 0.91100 0.00500
H 	H 	0.41460 0.14680 0.92620 0.01400
C 	C 	0.46610 0.04830 0.86830 0.10400
H 	H 	0.45860 0.00560 0.84900 -0.02900
C 	C 	0.76200 0.00320 0.79960 0.00800
H 	H 	0.77640 0.98460 0.82720 0.03200
C 	C 	0.76800 0.98870 0.75130 -0.05100
H 	H 	0.78860 0.95820 0.73900 0.04200
C 	C 	0.69890 0.04590 0.75351 0.13700
H 	H 	0.65450 0.04940 0.74550 -0.03700
C 	C 	0.74830 0.36610 0.17770 -0.28900
H 	H 	0.80280 0.38810 0.17910 0.13400
C 	C 	0.69950 0.28550 0.17670 0.23400
C 	C 	0.80490 0.25320 0.19450 0.01200
H 	H 	0.84140 0.29860 0.21110 0.02400
C 	C 	0.81130 0.18800 0.18230 -0.00300
H 	H 	0.85640 0.18420 0.18660 0.02700
C 	C 	0.69680 0.16100 0.16200 0.11600
H 	H 	0.64440 0.13330 0.15180 -0.03300
N 	N 	0.75210 0.05930 0.05598 -0.22200
N 	N 	0.74290 0.08600 0.97752 -0.15800
N 	N 	0.40980 0.06460 0.87846 -0.25200
N 	N 	0.53460 0.09980 0.88858 -0.16300
N 	N 	0.73590 0.03030 0.72079 -0.23900
N 	N 	0.72630 0.05670 0.79912 -0.16900
N 	N 	0.74220 0.13020 0.16320 -0.24500
N 	N 	0.73230 0.23570 0.17660 -0.16900
O 	O 	0.85597 0.05852 0.14514 -0.39000
O 	O 	0.78409 0.93704 0.11547 -0.38600
C 	C 	0.80920 0.09120 0.78830 -0.01800
H 	H 	0.85110 0.11910 0.81010 0.03100
C 	C 	0.81300 0.07450 0.74040 0.01400
H 	H 	0.85930 0.08970 0.72270 0.01400
Cd	Cd	0.28993 0.27979 0.13856 1.20500
C 	C 	0.99950 0.07420 0.12566 -0.04200
H 	H 	0.99950 0.07720 0.16170 0.05300
H 	H 	0.99930 0.12020 0.11250 0.05300
C 	C 	0.07450 0.07490 0.10843 -0.13100
H 	H 	0.07400 0.07440 0.07200 0.07100
C 	C 	0.14810 0.15000 0.12471 0.30100
C 	C 	0.38170 0.29320 0.93160 0.22900
C 	C 	0.45610 0.35820 0.93240 -0.29100
H 	H 	0.48350 0.37690 0.96210 0.13500
C 	C 	0.48920 0.39510 0.88753 0.22900
C 	C 	0.44960 0.36770 0.84334 -0.29300
H 	H 	0.47260 0.39300 0.81360 0.13300
C 	C 	0.37490 0.30170 0.84379 0.22900
C 	C 	0.33960 0.26270 0.88776 -0.29300
H 	H 	0.28980 0.21790 0.88780 0.14600
C 	C 	0.28660 0.17910 0.98505 -0.00200
H 	H 	0.26710 0.13820 0.96200 0.03700
C 	C 	0.26580 0.17520 0.03297 0.00500
H 	H 	0.22830 0.12930 0.04870 0.02500
C 	C 	0.35350 0.29590 0.02120 0.09700
H 	H 	0.38870 0.34930 0.02590 -0.02000
C 	C 	0.62910 0.48070 0.91860 -0.00000
H 	H 	0.63410 0.44560 0.93950 0.03000
C 	C 	0.68300 0.55840 0.91100 0.00500
H 	H 	0.73220 0.58540 0.92620 0.01400
C 	C 	0.58220 0.53390 0.86830 0.10400
H 	H 	0.54700 0.54140 0.84900 -0.02900
C 	C 	0.24120 0.23800 0.79960 -0.00100
H 	H 	0.20820 0.22360 0.82720 0.03600
C 	C 	0.22070 0.23200 0.75130 -0.04200
H 	H 	0.16960 0.21140 0.73900 0.03900
C 	C 	0.34700 0.30110 0.75351 0.13600
H 	H 	0.39490 0.34550 0.74550 -0.03700
C 	C 	0.61780 0.25170 0.17770 -0.28900
H 	H 	0.58530 0.19720 0.17910 0.13400
C 	C 	0.58600 0.30050 0.17670 0.23400
C 	C 	0.44830 0.19510 0.19450 0.01200
H 	H 	0.45720 0.15860 0.21110 0.02400
C 	C 	0.37670 0.18870 0.18230 -0.00300
H 	H 	0.32780 0.14360 0.18660 0.02700
C 	C 	0.46420 0.30320 0.16200 0.11600
H 	H 	0.48890 0.35560 0.15180 -0.03300
N 	N 	0.30720 0.24790 0.05598 -0.22300
N 	N 	0.34310 0.25710 0.97752 -0.15800
N 	N 	0.65480 0.59020 0.87846 -0.25200
N 	N 	0.56520 0.46540 0.88858 -0.16300
N 	N 	0.29440 0.26410 0.72079 -0.23900
N 	N 	0.33040 0.27370 0.79912 -0.16900
N 	N 	0.38800 0.25780 0.16320 -0.24500
N 	N 	0.50340 0.26770 0.17660 -0.16900
O 	O 	0.20255 0.14403 0.14514 -0.38900
O 	O 	0.15295 0.21591 0.11547 -0.38600
C 	C 	0.28200 0.19080 0.78830 -0.01200
H 	H 	0.26800 0.14890 0.81010 0.02900
C 	C 	0.26150 0.18700 0.74040 0.00800
H 	H 	0.23040 0.14070 0.72270 0.01600
Cd	Cd	0.71007 0.98986 0.63856 1.20400
C 	C 	0.00050 0.07470 0.62566 -0.03900
H 	H 	0.00050 0.07770 0.66170 0.05200
H 	H 	0.00070 0.12090 0.61250 0.05300
C 	C 	0.92550 0.00040 0.60843 -0.13200
H 	H 	0.92600 0.00040 0.57200 0.07200
C 	C 	0.85190 0.00190 0.62471 0.30300
C 	C 	0.61830 0.91150 0.43160 0.22900
C 	C 	0.54390 0.90210 0.43240 -0.29100
H 	H 	0.51650 0.89340 0.46210 0.13500
C 	C 	0.51080 0.90590 0.38753 0.22900
C 	C 	0.55040 0.91810 0.34334 -0.29300
H 	H 	0.52740 0.92040 0.31360 0.13300
C 	C 	0.62510 0.92680 0.34379 0.22900
C 	C 	0.66040 0.92310 0.38776 -0.29300
H 	H 	0.71020 0.92810 0.38780 0.14600
C 	C 	0.71340 0.89250 0.48505 -0.00300
H 	H 	0.73290 0.87110 0.46200 0.03700
C 	C 	0.73420 0.90940 0.53297 0.00600
H 	H 	0.77170 0.90100 0.54870 0.02400
C 	C 	0.64650 0.94240 0.52120 0.09800
H 	H 	0.61130 0.96060 0.52590 -0.02000
C 	C 	0.37090 0.85160 0.41860 -0.00000
H 	H 	0.36590 0.81150 0.43950 0.03000
C 	C 	0.31700 0.87540 0.41100 0.00500
H 	H 	0.26780 0.85320 0.42620 0.01400
C 	C 	0.41780 0.95170 0.36830 0.10400
H 	H 	0.45300 0.99440 0.34900 -0.02900
C 	C 	0.75880 0.99680 0.29960 0.00300
H 	H 	0.79180 0.01540 0.32720 0.03500
C 	C 	0.77930 0.01130 0.25130 -0.04600
H 	H 	0.83040 0.04180 0.23900 0.04000
C 	C 	0.65300 0.95410 0.25351 0.13700
H 	H 	0.60510 0.95060 0.24550 -0.03700
C 	C 	0.38220 0.63390 0.67770 -0.28900
H 	H 	0.41470 0.61190 0.67910 0.13400
C 	C 	0.41400 0.71450 0.67670 0.23400
C 	C 	0.55170 0.74680 0.69450 0.01300
H 	H 	0.54280 0.70140 0.71110 0.02400
C 	C 	0.62330 0.81200 0.68230 -0.00300
H 	H 	0.67220 0.81580 0.68660 0.02700
C 	C 	0.53580 0.83900 0.66200 0.11600
H 	H 	0.51110 0.86670 0.65180 -0.03300
N 	N 	0.69280 0.94070 0.55598 -0.22300
N 	N 	0.65690 0.91400 0.47752 -0.15800
N 	N 	0.34520 0.93540 0.37846 -0.25200
N 	N 	0.43480 0.90020 0.38858 -0.16300
N 	N 	0.70560 0.96970 0.22079 -0.23900
N 	N 	0.66960 0.94330 0.29912 -0.16900
N 	N 	0.61200 0.86980 0.66320 -0.24500
N 	N 	0.49660 0.76430 0.67660 -0.16900
O 	O 	0.79745 0.94148 0.64514 -0.39000
O 	O 	0.84705 0.06296 0.61547 -0.38700
C 	C 	0.71800 0.90880 0.28830 -0.01500
H 	H 	0.73200 0.88090 0.31010 0.02900
C 	C 	0.73850 0.92550 0.24040 0.01100
H 	H 	0.76960 0.91030 0.22270 0.01500
Cd	Cd	0.01014 0.72021 0.63856 1.20400
C 	C 	0.92530 0.92580 0.62566 -0.03900
H 	H 	0.92230 0.92280 0.66170 0.05200
H 	H 	0.87910 0.87980 0.61250 0.05300
C 	C 	0.99960 0.92510 0.60843 -0.13400
H 	H 	0.99960 0.92560 0.57200 0.07200
C 	C 	0.99810 0.85000 0.62471 0.30200
C 	C 	0.08850 0.70680 0.43160 0.22900
C 	C 	0.09790 0.64180 0.43240 -0.29100
H 	H 	0.10660 0.62310 0.46210 0.13500
C 	C 	0.09410 0.60490 0.38753 0.22900
C 	C 	0.08190 0.63230 0.34334 -0.29300
H 	H 	0.07960 0.60700 0.31360 0.13300
C 	C 	0.07320 0.69830 0.34379 0.23000
C 	C 	0.07690 0.73730 0.38776 -0.29300
H 	H 	0.07190 0.78210 0.38780 0.14600
C 	C 	0.10750 0.82090 0.48505 -0.00300
H 	H 	0.12890 0.86180 0.46200 0.03700
C 	C 	0.09060 0.82480 0.53297 0.00600
H 	H 	0.09900 0.87070 0.54870 0.02400
C 	C 	0.05760 0.70410 0.52120 0.09800
H 	H 	0.03940 0.65070 0.52590 -0.02000
C 	C 	0.14840 0.51930 0.41860 -0.00000
H 	H 	0.18850 0.55440 0.43950 0.03000
C 	C 	0.12460 0.44160 0.41100 0.00500
H 	H 	0.14680 0.41460 0.42620 0.01400
C 	C 	0.04830 0.46610 0.36830 0.10400
H 	H 	0.00560 0.45860 0.34900 -0.02900
C 	C 	0.00320 0.76200 0.29960 0.00600
H 	H 	0.98460 0.77640 0.32720 0.03300
C 	C 	0.98870 0.76800 0.25130 -0.04900
H 	H 	0.95820 0.78860 0.23900 0.04200
C 	C 	0.04590 0.69890 0.25351 0.13700
H 	H 	0.04940 0.65450 0.24550 -0.03700
C 	C 	0.36610 0.74830 0.67770 -0.28900
H 	H 	0.38810 0.80280 0.67910 0.13400
C 	C 	0.28550 0.69950 0.67670 0.23400
C 	C 	0.25320 0.80490 0.69450 0.01300
H 	H 	0.29860 0.84140 0.71110 0.02400
C 	C 	0.18800 0.81130 0.68230 -0.00300
H 	H 	0.18420 0.85640 0.68660 0.02700
C 	C 	0.16100 0.69680 0.66200 0.11600
H 	H 	0.13330 0.64440 0.65180 -0.03300
N 	N 	0.05930 0.75210 0.55598 -0.22300
N 	N 	0.08600 0.74290 0.47752 -0.15800
N 	N 	0.06460 0.40980 0.37846 -0.25200
N 	N 	0.09980 0.53460 0.38858 -0.16300
N 	N 	0.03030 0.73590 0.22079 -0.23900
N 	N 	0.05670 0.72630 0.29912 -0.16900
N 	N 	0.13020 0.74220 0.66320 -0.24500
N 	N 	0.23570 0.73230 0.67660 -0.16900
O 	O 	0.05852 0.85597 0.64514 -0.39000
O 	O 	0.93704 0.78409 0.61547 -0.38700
C 	C 	0.09120 0.80920 0.28830 -0.01700
H 	H 	0.11910 0.85110 0.31010 0.03000
C 	C 	0.07450 0.81300 0.24040 0.01300
H 	H 	0.08970 0.85930 0.22270 0.01400
Cd	Cd	0.27979 0.28993 0.63856 1.20500
C 	C 	0.07420 0.99950 0.62566 -0.03800
H 	H 	0.07720 0.99950 0.66170 0.05200
H 	H 	0.12020 0.99930 0.61250 0.05300
C 	C 	0.07490 0.07450 0.60843 -0.13400
H 	H 	0.07440 0.07400 0.57200 0.07200
C 	C 	0.15000 0.14810 0.62471 0.30100
C 	C 	0.29320 0.38170 0.43160 0.22900
C 	C 	0.35820 0.45610 0.43240 -0.29100
H 	H 	0.37690 0.48350 0.46210 0.13500
C 	C 	0.39510 0.48920 0.38753 0.22900
C 	C 	0.36770 0.44960 0.34334 -0.29300
H 	H 	0.39300 0.47260 0.31360 0.13300
C 	C 	0.30170 0.37490 0.34379 0.22900
C 	C 	0.26270 0.33960 0.38776 -0.29300
H 	H 	0.21790 0.28980 0.38780 0.14600
C 	C 	0.17910 0.28660 0.48505 -0.00300
H 	H 	0.13820 0.26710 0.46200 0.03700
C 	C 	0.17520 0.26580 0.53297 0.00600
H 	H 	0.12930 0.22830 0.54870 0.02400
C 	C 	0.29590 0.35350 0.52120 0.09800
H 	H 	0.34930 0.38870 0.52590 -0.02000
C 	C 	0.48070 0.62910 0.41860 -0.00000
H 	H 	0.44560 0.63410 0.43950 0.03000
C 	C 	0.55840 0.68300 0.41100 0.00500
H 	H 	0.58540 0.73220 0.42620 0.01400
C 	C 	0.53390 0.58220 0.36830 0.10400
H 	H 	0.54140 0.54700 0.34900 -0.02900
C 	C 	0.23800 0.24120 0.29960 -0.00100
H 	H 	0.22360 0.20820 0.32720 0.03600
C 	C 	0.23200 0.22070 0.25130 -0.04200
H 	H 	0.21140 0.16960 0.23900 0.03900
C 	C 	0.30110 0.34700 0.25351 0.13600
H 	H 	0.34550 0.39490 0.24550 -0.03700
C 	C 	0.25170 0.61780 0.67770 -0.28900
H 	H 	0.19720 0.58530 0.67910 0.13400
C 	C 	0.30050 0.58600 0.67670 0.23400
C 	C 	0.19510 0.44830 0.69450 0.01200
H 	H 	0.15860 0.45720 0.71110 0.02400
C 	C 	0.18870 0.37670 0.68230 -0.00300
H 	H 	0.14360 0.32780 0.68660 0.02700
C 	C 	0.30320 0.46420 0.66200 0.11600
H 	H 	0.35560 0.48890 0.65180 -0.03300
N 	N 	0.24790 0.30720 0.55598 -0.22300
N 	N 	0.25710 0.34310 0.47752 -0.15800
N 	N 	0.59020 0.65480 0.37846 -0.25200
N 	N 	0.46540 0.56520 0.38858 -0.16300
N 	N 	0.26410 0.29440 0.22079 -0.23900
N 	N 	0.27370 0.33040 0.29912 -0.16900
N 	N 	0.25780 0.38800 0.66320 -0.24500
N 	N 	0.26770 0.50340 0.67660 -0.16900
O 	O 	0.14403 0.20255 0.64514 -0.38900
O 	O 	0.21591 0.15295 0.61547 -0.38700
C 	C 	0.19080 0.28200 0.28830 -0.01200
H 	H 	0.14890 0.26800 0.31010 0.02900
C 	C 	0.18700 0.26150 0.24040 0.00800
H 	H 	0.14070 0.23040 0.22270 0.01600
Cd	Cd	0.01014 0.28993 0.86144 1.20400
C 	C 	0.92530 0.99950 0.87434 -0.04200
H 	H 	0.92230 0.99950 0.83830 0.05300
H 	H 	0.87910 0.99930 0.88750 0.05300
C 	C 	0.99960 0.07450 0.89157 -0.12900
H 	H 	0.99960 0.07400 0.92800 0.07200
C 	C 	0.99810 0.14810 0.87529 0.30300
C 	C 	0.08850 0.38170 0.06840 0.22900
C 	C 	0.09790 0.45610 0.06760 -0.29100
H 	H 	0.10660 0.48350 0.03790 0.13500
C 	C 	0.09410 0.48920 0.11247 0.22900
C 	C 	0.08190 0.44960 0.15666 -0.29300
H 	H 	0.07960 0.47260 0.18640 0.13300
C 	C 	0.07320 0.37490 0.15621 0.23000
C 	C 	0.07690 0.33960 0.11224 -0.29300
H 	H 	0.07190 0.28980 0.11220 0.14600
C 	C 	0.10750 0.28660 0.01495 -0.00100
H 	H 	0.12890 0.26710 0.03800 0.03700
C 	C 	0.09060 0.26580 0.96703 0.00400
H 	H 	0.09900 0.22830 0.95130 0.02500
C 	C 	0.05760 0.35350 0.97880 0.09600
H 	H 	0.03940 0.38870 0.97410 -0.02000
C 	C 	0.14840 0.62910 0.08140 -0.00000
H 	H 	0.18850 0.63410 0.06050 0.03000
C 	C 	0.12460 0.68300 0.08900 0.00500
H 	H 	0.14680 0.73220 0.07380 0.01400
C 	C 	0.04830 0.58220 0.13170 0.10400
H 	H 	0.00560 0.54700 0.15100 -0.02900
C 	C 	0.00320 0.24120 0.20040 0.00500
H 	H 	0.98460 0.20820 0.17280 0.03300
C 	C 	0.98870 0.22070 0.24870 -0.04700
H 	H 	0.95820 0.16960 0.26100 0.04100
C 	C 	0.04590 0.34700 0.24649 0.13700
H 	H 	0.04940 0.39490 0.25450 -0.03700
C 	C 	0.36610 0.61780 0.82230 -0.28900
H 	H 	0.38810 0.58530 0.82090 0.13400
C 	C 	0.28550 0.58600 0.82330 0.23400
C 	C 	0.25320 0.44830 0.80550 0.01200
H 	H 	0.29860 0.45720 0.78890 0.02400
C 	C 	0.18800 0.37670 0.81770 -0.00300
H 	H 	0.18420 0.32780 0.81340 0.02700
C 	C 	0.16100 0.46420 0.83800 0.11600
H 	H 	0.13330 0.48890 0.84820 -0.03300
N 	N 	0.05930 0.30720 0.94402 -0.22300
N 	N 	0.08600 0.34310 0.02248 -0.15800
N 	N 	0.06460 0.65480 0.12154 -0.25200
N 	N 	0.09980 0.56520 0.11142 -0.16300
N 	N 	0.03030 0.29440 0.27921 -0.23900
N 	N 	0.05670 0.33040 0.20088 -0.16900
N 	N 	0.13020 0.38800 0.83680 -0.24500
N 	N 	0.23570 0.50340 0.82340 -0.16900
O 	O 	0.05852 0.20255 0.85486 -0.39100
O 	O 	0.93704 0.15295 0.88453 -0.38600
C 	C 	0.09120 0.28200 0.21170 -0.01600
H 	H 	0.11910 0.26800 0.18990 0.03000
C 	C 	0.07450 0.26150 0.25960 0.01200
H 	H 	0.08970 0.23040 0.27730 0.01400
Cd	Cd	0.27979 0.98986 0.86144 1.20400
C 	C 	0.07420 0.07470 0.87434 -0.04200
H 	H 	0.07720 0.07770 0.83830 0.05300
H 	H 	0.12020 0.12090 0.88750 0.05400
C 	C 	0.07490 0.00040 0.89157 -0.13100
H 	H 	0.07440 0.00040 0.92800 0.07200
C 	C 	0.15000 0.00190 0.87529 0.30200
C 	C 	0.29320 0.91150 0.06840 0.22900
C 	C 	0.35820 0.90210 0.06760 -0.29100
H 	H 	0.37690 0.89340 0.03790 0.13500
C 	C 	0.39510 0.90590 0.11247 0.22900
C 	C 	0.36770 0.91810 0.15666 -0.29300
H 	H 	0.39300 0.92040 0.18640 0.13300
C 	C 	0.30170 0.92680 0.15621 0.23000
C 	C 	0.26270 0.92310 0.11224 -0.29300
H 	H 	0.21790 0.92810 0.11220 0.14600
C 	C 	0.17910 0.89250 0.01495 0.00300
H 	H 	0.13820 0.87110 0.03800 0.03600
C 	C 	0.17520 0.90940 0.96703 -0.00000
H 	H 	0.12930 0.90100 0.95130 0.02600
C 	C 	0.29590 0.94240 0.97880 0.09500
H 	H 	0.34930 0.96060 0.97410 -0.02000
C 	C 	0.48070 0.85160 0.08140 -0.00000
H 	H 	0.44560 0.81150 0.06050 0.03000
C 	C 	0.55840 0.87540 0.08900 0.00500
H 	H 	0.58540 0.85320 0.07380 0.01400
C 	C 	0.53390 0.95170 0.13170 0.10400
H 	H 	0.54140 0.99440 0.15100 -0.02900
C 	C 	0.23800 0.99680 0.20040 0.00800
H 	H 	0.22360 0.01540 0.17280 0.03200
C 	C 	0.23200 0.01130 0.24870 -0.05100
H 	H 	0.21140 0.04180 0.26100 0.04200
C 	C 	0.30110 0.95410 0.24649 0.13700
H 	H 	0.34550 0.95060 0.25450 -0.03700
C 	C 	0.25170 0.63390 0.82230 -0.28900
H 	H 	0.19720 0.61190 0.82090 0.13400
C 	C 	0.30050 0.71450 0.82330 0.23400
C 	C 	0.19510 0.74680 0.80550 0.01200
H 	H 	0.15860 0.70140 0.78890 0.02400
C 	C 	0.18870 0.81200 0.81770 -0.00300
H 	H 	0.14360 0.81580 0.81340 0.02700
C 	C 	0.30320 0.83900 0.83800 0.11600
H 	H 	0.35560 0.86670 0.84820 -0.03300
N 	N 	0.24790 0.94070 0.94402 -0.22200
N 	N 	0.25710 0.91400 0.02248 -0.15800
N 	N 	0.59020 0.93540 0.12154 -0.25200
N 	N 	0.46540 0.90020 0.11142 -0.16300
N 	N 	0.26410 0.96970 0.27921 -0.23900
N 	N 	0.27370 0.94330 0.20088 -0.16900
N 	N 	0.25780 0.86980 0.83680 -0.24500
N 	N 	0.26770 0.76430 0.82340 -0.16900
O 	O 	0.14403 0.94148 0.85486 -0.39000
O 	O 	0.21591 0.06296 0.88453 -0.38600
C 	C 	0.19080 0.90880 0.21170 -0.01800
H 	H 	0.14890 0.88090 0.18990 0.03100
C 	C 	0.18700 0.92550 0.25960 0.01400
H 	H 	0.14070 0.91030 0.27730 0.01400
Cd	Cd	0.71007 0.72021 0.86144 1.20500
C 	C 	0.00050 0.92580 0.87434 -0.04200
H 	H 	0.00050 0.92280 0.83830 0.05300
H 	H 	0.00070 0.87980 0.88750 0.05300
C 	C 	0.92550 0.92510 0.89157 -0.13100
H 	H 	0.92600 0.92560 0.92800 0.07100
C 	C 	0.85190 0.85000 0.87529 0.30100
C 	C 	0.61830 0.70680 0.06840 0.22900
C 	C 	0.54390 0.64180 0.06760 -0.29100
H 	H 	0.51650 0.62310 0.03790 0.13500
C 	C 	0.51080 0.60490 0.11247 0.22900
C 	C 	0.55040 0.63230 0.15666 -0.29300
H 	H 	0.52740 0.60700 0.18640 0.13300
C 	C 	0.62510 0.69830 0.15621 0.22900
C 	C 	0.66040 0.73730 0.11224 -0.29300
H 	H 	0.71020 0.78210 0.11220 0.14600
C 	C 	0.71340 0.82090 0.01495 -0.00200
H 	H 	0.73290 0.86180 0.03800 0.03700
C 	C 	0.73420 0.82480 0.96703 0.00500
H 	H 	0.77170 0.87070 0.95130 0.02500
C 	C 	0.64650 0.70410 0.97880 0.09700
H 	H 	0.61130 0.65070 0.97410 -0.02000
C 	C 	0.37090 0.51930 0.08140 -0.00000
H 	H 	0.36590 0.55440 0.06050 0.03000
C 	C 	0.31700 0.44160 0.08900 0.00500
H 	H 	0.26780 0.41460 0.07380 0.01400
C 	C 	0.41780 0.46610 0.13170 0.10400
H 	H 	0.45300 0.45860 0.15100 -0.02900
C 	C 	0.75880 0.76200 0.20040 -0.00100
H 	H 	0.79180 0.77640 0.17280 0.03600
C 	C 	0.77930 0.76800 0.24870 -0.04200
H 	H 	0.83040 0.78860 0.26100 0.03900
C 	C 	0.65300 0.69890 0.24649 0.13600
H 	H 	0.60510 0.65450 0.25450 -0.03700
C 	C 	0.38220 0.74830 0.82230 -0.28900
H 	H 	0.41470 0.80280 0.82090 0.13400
C 	C 	0.41400 0.69950 0.82330 0.23400
C 	C 	0.55170 0.80490 0.80550 0.01200
H 	H 	0.54280 0.84140 0.78890 0.02400
C 	C 	0.62330 0.81130 0.81770 -0.00300
H 	H 	0.67220 0.85640 0.81340 0.02700
C 	C 	0.53580 0.69680 0.83800 0.11600
H 	H 	0.51110 0.64440 0.84820 -0.03300
N 	N 	0.69280 0.75210 0.94402 -0.22300
N 	N 	0.65690 0.74290 0.02248 -0.15800
N 	N 	0.34520 0.40980 0.12154 -0.25200
N 	N 	0.43480 0.53460 0.11142 -0.16300
N 	N 	0.70560 0.73590 0.27921 -0.23900
N 	N 	0.66960 0.72630 0.20088 -0.16900
N 	N 	0.61200 0.74220 0.83680 -0.24500
N 	N 	0.49660 0.73230 0.82340 -0.16900
O 	O 	0.79745 0.85597 0.85486 -0.38900
O 	O 	0.84705 0.78409 0.88453 -0.38600
C 	C 	0.71800 0.80920 0.21170 -0.01200
H 	H 	0.73200 0.85110 0.18990 0.02900
C 	C 	0.73850 0.81300 0.25960 0.00800
H 	H 	0.76960 0.85930 0.27730 0.01600
