data_crystal

_cell_length_a 19.23950
_cell_length_b 15.16420
_cell_length_c 6.68120
_cell_angle_alpha 90.00000
_cell_angle_beta  84.08420
_cell_angle_gamma 90.00000

_symmetry_space_group_name_	'P 1'
_symmetry_space_group_name_H-M	'P 1'

loop_
_symmetry_equiv_pos_as_xyz
  x,y,z

loop_
_atom_site_label
_atom_site_type_symbol
_atom_site_fract_x
_atom_site_fract_y
_atom_site_fract_z
_atom_site_charge
Ga	Ga	0.49568 0.25396 0.51928 2.08200
H 	H 	0.78732 0.09372 0.58149 0.02300
H 	H 	0.66881 0.12474 0.55727 0.03200
H 	H 	0.70824 0.14273 0.94831 0.10300
H 	H 	0.82676 0.11171 0.97252 0.10500
H 	H 	0.28082 0.17689 0.56010 0.05000
H 	H 	0.16320 0.14363 0.52772 -0.00900
H 	H 	0.21599 0.06812 0.94732 0.06500
H 	H 	0.33361 0.10139 0.97970 0.09900
C 	C 	0.81687 0.10014 0.27902 -0.11500
C 	C 	0.77083 0.10394 0.44947 -0.01600
C 	C 	0.70174 0.12202 0.43535 -0.03000
C 	C 	0.67869 0.13631 0.25078 -0.10600
C 	C 	0.72473 0.13251 0.08033 -0.10500
C 	C 	0.79382 0.11442 0.09445 -0.10300
C 	C 	0.89151 0.08060 0.29427 0.43500
C 	C 	0.60405 0.15584 0.23553 0.40700
C 	C 	0.31697 0.14190 0.27259 -0.09100
C 	C 	0.26730 0.15421 0.43233 -0.05300
C 	C 	0.19873 0.13482 0.41345 0.01300
C 	C 	0.17984 0.10312 0.23483 -0.18000
C 	C 	0.22951 0.09080 0.07509 -0.07500
C 	C 	0.29808 0.11019 0.09397 -0.13300
C 	C 	0.39104 0.16285 0.29299 0.41500
C 	C 	0.10577 0.08217 0.21443 0.45400
O 	O 	0.49900 0.18900 0.77180 -0.90400
O 	O 	0.99990 0.06360 0.74650 -0.74400
O 	O 	0.91268 0.06603 0.46508 -0.53200
O 	O 	0.93439 0.07842 0.13655 -0.56300
O 	O 	0.56103 0.15703 0.39300 -0.57900
O 	O 	0.58303 0.17142 0.06497 -0.58400
O 	O 	0.40855 0.19231 0.45851 -0.59000
O 	O 	0.43710 0.15135 0.14496 -0.64300
O 	O 	0.05926 0.09747 0.35933 -0.76400
O 	O 	0.08871 0.04890 0.05204 -0.79400
H 	H 	0.99990 0.37046 0.24650 0.31400
H 	H 	0.49900 0.12306 0.77180 0.23600
Ga	Ga	0.50432 0.75396 0.98072 2.09600
H 	H 	0.21268 0.59372 0.91851 0.11500
H 	H 	0.33119 0.62474 0.94273 0.11200
H 	H 	0.29176 0.64273 0.55169 0.05000
H 	H 	0.17324 0.61171 0.52748 0.05100
H 	H 	0.71918 0.67689 0.93990 0.10100
H 	H 	0.83680 0.64363 0.97228 0.15900
H 	H 	0.78401 0.56812 0.55268 0.07300
H 	H 	0.66639 0.60139 0.52030 0.04200
C 	C 	0.18313 0.60014 0.22098 -0.11200
C 	C 	0.22917 0.60394 0.05053 -0.08100
C 	C 	0.29826 0.62202 0.06465 -0.08600
C 	C 	0.32131 0.63631 0.24922 -0.08800
C 	C 	0.27527 0.63251 0.41967 -0.01400
C 	C 	0.20618 0.61442 0.40555 0.00100
C 	C 	0.10849 0.58060 0.20573 0.46300
C 	C 	0.39595 0.65584 0.26447 0.41800
C 	C 	0.68303 0.64190 0.22741 -0.12200
C 	C 	0.73270 0.65421 0.06767 -0.03600
C 	C 	0.80127 0.63482 0.08655 -0.13100
C 	C 	0.82016 0.60312 0.26517 -0.02500
C 	C 	0.77049 0.59080 0.42491 -0.04700
C 	C 	0.70192 0.61019 0.40603 0.02700
C 	C 	0.60896 0.66285 0.20701 0.44800
C 	C 	0.89423 0.58217 0.28557 0.36800
O 	O 	0.50100 0.68900 0.72820 -0.91000
O 	O 	0.00010 0.56360 0.75350 -1.00800
O 	O 	0.08732 0.56603 0.03492 -0.68200
O 	O 	0.06561 0.57842 0.36345 -0.72200
O 	O 	0.43897 0.65703 0.10700 -0.58500
O 	O 	0.41697 0.67142 0.43503 -0.53100
O 	O 	0.59145 0.69231 0.04149 -0.61600
O 	O 	0.56290 0.65135 0.35504 -0.59400
O 	O 	0.94074 0.59747 0.14067 -0.40400
O 	O 	0.91129 0.54890 0.44796 -0.46000
H 	H 	0.00010 0.87046 0.25350 0.15100
H 	H 	0.50100 0.62306 0.72820 0.27100
Ga	Ga	0.50432 0.74604 0.48072 2.08500
H 	H 	0.21268 0.90628 0.41851 0.07200
H 	H 	0.33119 0.87526 0.44273 0.06000
H 	H 	0.29176 0.85727 0.05169 -0.00500
H 	H 	0.17324 0.88829 0.02748 0.00300
H 	H 	0.71918 0.82311 0.43990 0.04000
H 	H 	0.83680 0.85637 0.47228 0.10000
H 	H 	0.78401 0.93188 0.05268 0.04800
H 	H 	0.66639 0.89861 0.02030 -0.00000
C 	C 	0.18313 0.89986 0.72098 -0.11200
C 	C 	0.22917 0.89606 0.55053 0.02500
C 	C 	0.29826 0.87798 0.56465 0.02200
C 	C 	0.32131 0.86369 0.74922 -0.11000
C 	C 	0.27527 0.86749 0.91967 0.09300
C 	C 	0.20618 0.88558 0.90555 0.10700
C 	C 	0.10849 0.91940 0.70573 0.48800
C 	C 	0.39595 0.84416 0.76447 0.45000
C 	C 	0.68303 0.85810 0.72741 -0.14500
C 	C 	0.73270 0.84579 0.56767 0.06500
C 	C 	0.80127 0.86518 0.58655 -0.03100
C 	C 	0.82016 0.89688 0.76517 -0.02600
C 	C 	0.77049 0.90920 0.92491 0.04400
C 	C 	0.70192 0.88981 0.90603 0.13100
C 	C 	0.60896 0.83715 0.70701 0.48000
C 	C 	0.89423 0.91783 0.78557 0.39300
O 	O 	0.50100 0.81100 0.22820 -0.93300
O 	O 	0.00010 0.93640 0.25350 -0.91700
O 	O 	0.08732 0.93397 0.53492 -0.56400
O 	O 	0.06561 0.92158 0.86345 -0.60900
O 	O 	0.43897 0.84297 0.60700 -0.53200
O 	O 	0.41697 0.82858 0.93503 -0.48400
O 	O 	0.59145 0.80769 0.54149 -0.57000
O 	O 	0.56290 0.84865 0.85504 -0.54400
O 	O 	0.94074 0.90253 0.64067 -0.33100
O 	O 	0.91129 0.95110 0.94796 -0.33800
H 	H 	0.00010 0.62954 0.75350 0.18900
H 	H 	0.50100 0.87694 0.22820 0.29000
Ga	Ga	0.49568 0.24604 0.01928 2.07000
H 	H 	0.78732 0.40628 0.08149 -0.02100
H 	H 	0.66881 0.37526 0.05727 -0.02200
H 	H 	0.70824 0.35727 0.44831 0.04300
H 	H 	0.82676 0.38829 0.47252 0.05200
H 	H 	0.28082 0.32311 0.06010 -0.01800
H 	H 	0.16320 0.35637 0.02772 -0.07800
H 	H 	0.21599 0.43188 0.44732 0.02900
H 	H 	0.33361 0.39861 0.47970 0.04700
C 	C 	0.81687 0.39986 0.77902 -0.12300
C 	C 	0.77083 0.39606 0.94947 0.08800
C 	C 	0.70174 0.37798 0.93535 0.08100
C 	C 	0.67869 0.36369 0.75078 -0.13100
C 	C 	0.72473 0.36749 0.58033 0.00700
C 	C 	0.79382 0.38558 0.59445 0.00700
C 	C 	0.89151 0.41940 0.79427 0.47000
C 	C 	0.60405 0.34416 0.73553 0.44000
C 	C 	0.31697 0.35810 0.77259 -0.11700
C 	C 	0.26730 0.34579 0.93233 0.05600
C 	C 	0.19873 0.36518 0.91345 0.12900
C 	C 	0.17984 0.39688 0.73483 -0.18900
C 	C 	0.22951 0.40920 0.57509 0.03600
C 	C 	0.29808 0.38981 0.59397 -0.01700
C 	C 	0.39104 0.33715 0.79299 0.44900
C 	C 	0.10577 0.41783 0.71443 0.48900
O 	O 	0.49900 0.31100 0.27180 -0.93000
O 	O 	0.99990 0.43640 0.24650 -0.69300
O 	O 	0.91268 0.43397 0.96508 -0.43700
O 	O 	0.93439 0.42158 0.63655 -0.48300
O 	O 	0.56103 0.34297 0.89300 -0.52500
O 	O 	0.58303 0.32858 0.56497 -0.53400
O 	O 	0.40855 0.30769 0.95851 -0.54000
O 	O 	0.43710 0.34865 0.64496 -0.58900
O 	O 	0.05926 0.40253 0.85933 -0.69000
O 	O 	0.08871 0.45110 0.55204 -0.67600
H 	H 	0.99990 0.12954 0.74650 0.34700
H 	H 	0.49900 0.37694 0.27180 0.25300
Ga	Ga	-0.00000 0.00000 -0.00000 1.97200
Ga	Ga	-0.00000 0.50000 0.50000 2.02900
Ga	Ga	-0.00000 0.00000 0.50000 1.97300
Ga	Ga	0.00000 0.50000 -0.00000 2.00000
