data_crystal

_cell_length_a 26.96800
_cell_length_b 26.96800
_cell_length_c 26.96800
_cell_angle_alpha 90.00000
_cell_angle_beta  90.00000
_cell_angle_gamma 90.00000

_symmetry_space_group_name_	'P 1'
_symmetry_space_group_name_H-M	'P 1'

loop_
_symmetry_equiv_pos_as_xyz
  x,y,z

loop_
_atom_site_label
_atom_site_type_symbol
_atom_site_fract_x
_atom_site_fract_y
_atom_site_fract_z
_atom_site_charge
O 	O 	0.44750 0.05035 0.14882 -0.43100
O 	O 	0.44848 0.04907 0.23106 -0.43400
C 	C 	0.29440 0.14540 0.19750 0.03900
C 	C 	0.43050 0.06200 0.19030 0.38100
C 	C 	0.35980 0.10670 0.14920 0.04100
H 	H 	0.37300 0.09820 0.11850 0.01800
C 	C 	0.31970 0.12980 0.24120 -0.11900
H 	H 	0.30640 0.13690 0.27220 0.07500
C 	C 	0.31520 0.13380 0.15160 -0.11600
H 	H 	0.29960 0.14400 0.12250 0.05900
C 	C 	0.36410 0.10420 0.23760 0.04700
H 	H 	0.38060 0.09490 0.26650 0.02700
C 	C 	0.21660 0.16960 0.24150 -0.11000
H 	H 	0.22090 0.14260 0.26250 0.06500
C 	C 	0.38440 0.09240 0.19230 -0.13100
C 	C 	0.24950 0.17710 0.20230 0.03900
O 	O 	0.55250 0.94965 0.14882 -0.38800
O 	O 	0.55152 0.95093 0.23106 -0.39100
C 	C 	0.70560 0.85460 0.19750 0.03800
C 	C 	0.56950 0.93800 0.19030 0.37600
C 	C 	0.64020 0.89330 0.14920 0.03700
H 	H 	0.62700 0.90180 0.11850 0.03500
C 	C 	0.68030 0.87020 0.24120 -0.10300
H 	H 	0.69360 0.86310 0.27220 0.07600
C 	C 	0.68480 0.86620 0.15160 -0.10100
H 	H 	0.70040 0.85600 0.12250 0.06600
C 	C 	0.63590 0.89580 0.23760 0.04100
H 	H 	0.61940 0.90510 0.26650 0.04100
C 	C 	0.78340 0.83040 0.24150 -0.11600
H 	H 	0.77910 0.85740 0.26250 0.07800
C 	C 	0.61560 0.90760 0.19230 -0.10800
C 	C 	0.75050 0.82290 0.20230 0.05200
O 	O 	0.55250 0.05035 0.85118 -0.41900
O 	O 	0.55152 0.04907 0.76894 -0.43300
C 	C 	0.70560 0.14540 0.80250 0.03900
C 	C 	0.56950 0.06200 0.80970 0.37700
C 	C 	0.64020 0.10670 0.85080 0.04000
H 	H 	0.62700 0.09820 0.88150 0.03300
C 	C 	0.68030 0.12980 0.75880 -0.11600
H 	H 	0.69360 0.13690 0.72780 0.07300
C 	C 	0.68480 0.13380 0.84840 -0.11000
H 	H 	0.70040 0.14400 0.87750 0.07400
C 	C 	0.63590 0.10420 0.76240 0.04400
H 	H 	0.61940 0.09490 0.73350 0.02700
C 	C 	0.78340 0.16960 0.75850 -0.11500
H 	H 	0.77910 0.14260 0.73750 0.07000
C 	C 	0.61560 0.09240 0.80770 -0.12400
C 	C 	0.75050 0.17710 0.79770 0.05000
O 	O 	0.44750 0.94965 0.85118 -0.37600
O 	O 	0.44848 0.95093 0.76894 -0.39100
C 	C 	0.29440 0.85460 0.80250 0.03700
C 	C 	0.43050 0.93800 0.80970 0.37200
C 	C 	0.35980 0.89330 0.85080 0.03500
H 	H 	0.37300 0.90180 0.88150 0.04800
C 	C 	0.31970 0.87020 0.75880 -0.10200
H 	H 	0.30640 0.86310 0.72780 0.07400
C 	C 	0.31520 0.86620 0.84840 -0.09700
H 	H 	0.29960 0.85600 0.87750 0.07600
C 	C 	0.36410 0.89580 0.76240 0.03800
H 	H 	0.38060 0.90510 0.73350 0.04200
C 	C 	0.21660 0.83040 0.75850 -0.11500
H 	H 	0.22090 0.85740 0.73750 0.07700
C 	C 	0.38440 0.90760 0.80770 -0.10200
C 	C 	0.24950 0.82290 0.79770 0.05400
O 	O 	0.14882 0.44750 0.05035 -0.43200
O 	O 	0.23106 0.44848 0.04907 -0.43500
C 	C 	0.19750 0.29440 0.14540 0.03800
C 	C 	0.19030 0.43050 0.06200 0.38000
C 	C 	0.14920 0.35980 0.10670 0.04000
H 	H 	0.11850 0.37300 0.09820 0.01700
C 	C 	0.24120 0.31970 0.12980 -0.12000
H 	H 	0.27220 0.30640 0.13690 0.07400
C 	C 	0.15160 0.31520 0.13380 -0.11700
H 	H 	0.12250 0.29960 0.14400 0.05800
C 	C 	0.23760 0.36410 0.10420 0.04600
H 	H 	0.26650 0.38060 0.09490 0.02600
C 	C 	0.24150 0.21660 0.16960 -0.11100
H 	H 	0.26250 0.22090 0.14260 0.06400
C 	C 	0.19230 0.38440 0.09240 -0.13200
C 	C 	0.20230 0.24950 0.17710 0.03800
O 	O 	0.14882 0.55250 0.94965 -0.38900
O 	O 	0.23106 0.55152 0.95093 -0.39200
C 	C 	0.19750 0.70560 0.85460 0.03700
C 	C 	0.19030 0.56950 0.93800 0.37500
C 	C 	0.14920 0.64020 0.89330 0.03600
H 	H 	0.11850 0.62700 0.90180 0.03400
C 	C 	0.24120 0.68030 0.87020 -0.10400
H 	H 	0.27220 0.69360 0.86310 0.07500
C 	C 	0.15160 0.68480 0.86620 -0.10100
H 	H 	0.12250 0.70040 0.85600 0.06600
C 	C 	0.23760 0.63590 0.89580 0.04100
H 	H 	0.26650 0.61940 0.90510 0.04100
C 	C 	0.24150 0.78340 0.83040 -0.11600
H 	H 	0.26250 0.77910 0.85740 0.07800
C 	C 	0.19230 0.61560 0.90760 -0.10800
C 	C 	0.20230 0.75050 0.82290 0.05200
O 	O 	0.85118 0.55250 0.05035 -0.41900
O 	O 	0.76894 0.55152 0.04907 -0.43300
C 	C 	0.80250 0.70560 0.14540 0.03900
C 	C 	0.80970 0.56950 0.06200 0.37700
C 	C 	0.85080 0.64020 0.10670 0.04000
H 	H 	0.88150 0.62700 0.09820 0.03300
C 	C 	0.75880 0.68030 0.12980 -0.11600
H 	H 	0.72780 0.69360 0.13690 0.07300
C 	C 	0.84840 0.68480 0.13380 -0.11000
H 	H 	0.87750 0.70040 0.14400 0.07400
C 	C 	0.76240 0.63590 0.10420 0.04400
H 	H 	0.73350 0.61940 0.09490 0.02700
C 	C 	0.75850 0.78340 0.16960 -0.11500
H 	H 	0.73750 0.77910 0.14260 0.07000
C 	C 	0.80770 0.61560 0.09240 -0.12400
C 	C 	0.79770 0.75050 0.17710 0.05000
O 	O 	0.85118 0.44750 0.94965 -0.37600
O 	O 	0.76894 0.44848 0.95093 -0.39100
C 	C 	0.80250 0.29440 0.85460 0.03700
C 	C 	0.80970 0.43050 0.93800 0.37200
C 	C 	0.85080 0.35980 0.89330 0.03500
H 	H 	0.88150 0.37300 0.90180 0.04800
C 	C 	0.75880 0.31970 0.87020 -0.10200
H 	H 	0.72780 0.30640 0.86310 0.07400
C 	C 	0.84840 0.31520 0.86620 -0.09700
H 	H 	0.87750 0.29960 0.85600 0.07600
C 	C 	0.76240 0.36410 0.89580 0.03800
H 	H 	0.73350 0.38060 0.90510 0.04200
C 	C 	0.75850 0.21660 0.83040 -0.11500
H 	H 	0.73750 0.22090 0.85740 0.07700
C 	C 	0.80770 0.38440 0.90760 -0.10200
C 	C 	0.79770 0.24950 0.82290 0.05400
O 	O 	0.05035 0.14882 0.44750 -0.43200
O 	O 	0.04907 0.23106 0.44848 -0.43500
C 	C 	0.14540 0.19750 0.29440 0.03800
C 	C 	0.06200 0.19030 0.43050 0.38000
C 	C 	0.10670 0.14920 0.35980 0.04000
H 	H 	0.09820 0.11850 0.37300 0.01700
C 	C 	0.12980 0.24120 0.31970 -0.12000
H 	H 	0.13690 0.27220 0.30640 0.07400
C 	C 	0.13380 0.15160 0.31520 -0.11700
H 	H 	0.14400 0.12250 0.29960 0.05800
C 	C 	0.10420 0.23760 0.36410 0.04600
H 	H 	0.09490 0.26650 0.38060 0.02600
C 	C 	0.16960 0.24150 0.21660 -0.11100
H 	H 	0.14260 0.26250 0.22090 0.06400
C 	C 	0.09240 0.19230 0.38440 -0.13200
C 	C 	0.17710 0.20230 0.24950 0.03800
O 	O 	0.94965 0.14882 0.55250 -0.38900
O 	O 	0.95093 0.23106 0.55152 -0.39200
C 	C 	0.85460 0.19750 0.70560 0.03700
C 	C 	0.93800 0.19030 0.56950 0.37500
C 	C 	0.89330 0.14920 0.64020 0.03600
H 	H 	0.90180 0.11850 0.62700 0.03400
C 	C 	0.87020 0.24120 0.68030 -0.10400
H 	H 	0.86310 0.27220 0.69360 0.07500
C 	C 	0.86620 0.15160 0.68480 -0.10100
H 	H 	0.85600 0.12250 0.70040 0.06600
C 	C 	0.89580 0.23760 0.63590 0.04100
H 	H 	0.90510 0.26650 0.61940 0.04100
C 	C 	0.83040 0.24150 0.78340 -0.11600
H 	H 	0.85740 0.26250 0.77910 0.07800
C 	C 	0.90760 0.19230 0.61560 -0.10800
C 	C 	0.82290 0.20230 0.75050 0.05200
O 	O 	0.05035 0.85118 0.55250 -0.41900
O 	O 	0.04907 0.76894 0.55152 -0.43300
C 	C 	0.14540 0.80250 0.70560 0.03900
C 	C 	0.06200 0.80970 0.56950 0.37700
C 	C 	0.10670 0.85080 0.64020 0.04000
H 	H 	0.09820 0.88150 0.62700 0.03300
C 	C 	0.12980 0.75880 0.68030 -0.11600
H 	H 	0.13690 0.72780 0.69360 0.07300
C 	C 	0.13380 0.84840 0.68480 -0.11000
H 	H 	0.14400 0.87750 0.70040 0.07400
C 	C 	0.10420 0.76240 0.63590 0.04400
H 	H 	0.09490 0.73350 0.61940 0.02700
C 	C 	0.16960 0.75850 0.78340 -0.11500
H 	H 	0.14260 0.73750 0.77910 0.07000
C 	C 	0.09240 0.80770 0.61560 -0.12400
C 	C 	0.17710 0.79770 0.75050 0.05000
O 	O 	0.94965 0.85118 0.44750 -0.37600
O 	O 	0.95093 0.76894 0.44848 -0.39100
C 	C 	0.85460 0.80250 0.29440 0.03700
C 	C 	0.93800 0.80970 0.43050 0.37200
C 	C 	0.89330 0.85080 0.35980 0.03500
H 	H 	0.90180 0.88150 0.37300 0.04800
C 	C 	0.87020 0.75880 0.31970 -0.10200
H 	H 	0.86310 0.72780 0.30640 0.07400
C 	C 	0.86620 0.84840 0.31520 -0.09700
H 	H 	0.85600 0.87750 0.29960 0.07600
C 	C 	0.89580 0.76240 0.36410 0.03800
H 	H 	0.90510 0.73350 0.38060 0.04200
C 	C 	0.83040 0.75850 0.21660 -0.11500
H 	H 	0.85740 0.73750 0.22090 0.07700
C 	C 	0.90760 0.80770 0.38440 -0.10200
C 	C 	0.82290 0.79770 0.24950 0.05400
O 	O 	0.55250 0.94965 0.85118 -0.37600
O 	O 	0.55152 0.95093 0.76894 -0.39100
C 	C 	0.70560 0.85460 0.80250 0.03800
C 	C 	0.56950 0.93800 0.80970 0.37200
C 	C 	0.64020 0.89330 0.85080 0.03500
H 	H 	0.62700 0.90180 0.88150 0.04900
C 	C 	0.68030 0.87020 0.75880 -0.10100
H 	H 	0.69360 0.86310 0.72780 0.07400
C 	C 	0.68480 0.86620 0.84840 -0.09600
H 	H 	0.70040 0.85600 0.87750 0.07900
C 	C 	0.63590 0.89580 0.76240 0.03900
H 	H 	0.61940 0.90510 0.73350 0.04200
C 	C 	0.78340 0.83040 0.75850 -0.11800
H 	H 	0.77910 0.85740 0.73750 0.08000
C 	C 	0.61560 0.90760 0.80770 -0.10200
C 	C 	0.75050 0.82290 0.79770 0.05900
O 	O 	0.44750 0.05035 0.85118 -0.41900
O 	O 	0.44848 0.04907 0.76894 -0.43400
C 	C 	0.29440 0.14540 0.80250 0.03800
C 	C 	0.43050 0.06200 0.80970 0.37700
C 	C 	0.35980 0.10670 0.85080 0.03900
H 	H 	0.37300 0.09820 0.88150 0.03200
C 	C 	0.31970 0.12980 0.75880 -0.11700
H 	H 	0.30640 0.13690 0.72780 0.07300
C 	C 	0.31520 0.13380 0.84840 -0.11100
H 	H 	0.29960 0.14400 0.87750 0.07100
C 	C 	0.36410 0.10420 0.76240 0.04400
H 	H 	0.38060 0.09490 0.73350 0.02700
C 	C 	0.21660 0.16960 0.75850 -0.11200
H 	H 	0.22090 0.14260 0.73750 0.06700
C 	C 	0.38440 0.09240 0.80770 -0.12500
C 	C 	0.24950 0.17710 0.79770 0.04500
O 	O 	0.44750 0.94965 0.14882 -0.38900
O 	O 	0.44848 0.95093 0.23106 -0.39200
C 	C 	0.29440 0.85460 0.19750 0.03700
C 	C 	0.43050 0.93800 0.19030 0.37500
C 	C 	0.35980 0.89330 0.14920 0.03500
H 	H 	0.37300 0.90180 0.11850 0.03300
C 	C 	0.31970 0.87020 0.24120 -0.10500
H 	H 	0.30640 0.86310 0.27220 0.07500
C 	C 	0.31520 0.86620 0.15160 -0.10200
H 	H 	0.29960 0.85600 0.12250 0.06300
C 	C 	0.36410 0.89580 0.23760 0.04100
H 	H 	0.38060 0.90510 0.26650 0.04000
C 	C 	0.21660 0.83040 0.24150 -0.11400
H 	H 	0.22090 0.85740 0.26250 0.07400
C 	C 	0.38440 0.90760 0.19230 -0.10900
C 	C 	0.24950 0.82290 0.20230 0.04700
O 	O 	0.55250 0.05035 0.14882 -0.43100
O 	O 	0.55152 0.04907 0.23106 -0.43500
C 	C 	0.70560 0.14540 0.19750 0.03900
C 	C 	0.56950 0.06200 0.19030 0.38000
C 	C 	0.64020 0.10670 0.14920 0.04100
H 	H 	0.62700 0.09820 0.11850 0.01800
C 	C 	0.68030 0.12980 0.24120 -0.11900
H 	H 	0.69360 0.13690 0.27220 0.07400
C 	C 	0.68480 0.13380 0.15160 -0.11600
H 	H 	0.70040 0.14400 0.12250 0.06100
C 	C 	0.63590 0.10420 0.23760 0.04700
H 	H 	0.61940 0.09490 0.26650 0.02600
C 	C 	0.78340 0.16960 0.24150 -0.11300
H 	H 	0.77910 0.14260 0.26250 0.06800
C 	C 	0.61560 0.09240 0.19230 -0.13100
C 	C 	0.75050 0.17710 0.20230 0.04300
O 	O 	0.85118 0.55250 0.94965 -0.37600
O 	O 	0.76894 0.55152 0.95093 -0.39100
C 	C 	0.80250 0.70560 0.85460 0.03800
C 	C 	0.80970 0.56950 0.93800 0.37200
C 	C 	0.85080 0.64020 0.89330 0.03500
H 	H 	0.88150 0.62700 0.90180 0.04900
C 	C 	0.75880 0.68030 0.87020 -0.10100
H 	H 	0.72780 0.69360 0.86310 0.07400
C 	C 	0.84840 0.68480 0.86620 -0.09600
H 	H 	0.87750 0.70040 0.85600 0.07900
C 	C 	0.76240 0.63590 0.89580 0.03900
H 	H 	0.73350 0.61940 0.90510 0.04200
C 	C 	0.75850 0.78340 0.83040 -0.11800
H 	H 	0.73750 0.77910 0.85740 0.08000
C 	C 	0.80770 0.61560 0.90760 -0.10200
C 	C 	0.79770 0.75050 0.82290 0.05900
O 	O 	0.85118 0.44750 0.05035 -0.41900
O 	O 	0.76894 0.44848 0.04907 -0.43400
C 	C 	0.80250 0.29440 0.14540 0.03800
C 	C 	0.80970 0.43050 0.06200 0.37700
C 	C 	0.85080 0.35980 0.10670 0.03900
H 	H 	0.88150 0.37300 0.09820 0.03200
C 	C 	0.75880 0.31970 0.12980 -0.11700
H 	H 	0.72780 0.30640 0.13690 0.07300
C 	C 	0.84840 0.31520 0.13380 -0.11100
H 	H 	0.87750 0.29960 0.14400 0.07100
C 	C 	0.76240 0.36410 0.10420 0.04400
H 	H 	0.73350 0.38060 0.09490 0.02700
C 	C 	0.75850 0.21660 0.16960 -0.11200
H 	H 	0.73750 0.22090 0.14260 0.06700
C 	C 	0.80770 0.38440 0.09240 -0.12500
C 	C 	0.79770 0.24950 0.17710 0.04500
O 	O 	0.14882 0.44750 0.94965 -0.38900
O 	O 	0.23106 0.44848 0.95093 -0.39200
C 	C 	0.19750 0.29440 0.85460 0.03700
C 	C 	0.19030 0.43050 0.93800 0.37500
C 	C 	0.14920 0.35980 0.89330 0.03500
H 	H 	0.11850 0.37300 0.90180 0.03300
C 	C 	0.24120 0.31970 0.87020 -0.10500
H 	H 	0.27220 0.30640 0.86310 0.07500
C 	C 	0.15160 0.31520 0.86620 -0.10200
H 	H 	0.12250 0.29960 0.85600 0.06300
C 	C 	0.23760 0.36410 0.89580 0.04100
H 	H 	0.26650 0.38060 0.90510 0.04000
C 	C 	0.24150 0.21660 0.83040 -0.11400
H 	H 	0.26250 0.22090 0.85740 0.07400
C 	C 	0.19230 0.38440 0.90760 -0.10900
C 	C 	0.20230 0.24950 0.82290 0.04700
O 	O 	0.14882 0.55250 0.05035 -0.43100
O 	O 	0.23106 0.55152 0.04907 -0.43500
C 	C 	0.19750 0.70560 0.14540 0.03900
C 	C 	0.19030 0.56950 0.06200 0.38000
C 	C 	0.14920 0.64020 0.10670 0.04100
H 	H 	0.11850 0.62700 0.09820 0.01800
C 	C 	0.24120 0.68030 0.12980 -0.11900
H 	H 	0.27220 0.69360 0.13690 0.07400
C 	C 	0.15160 0.68480 0.13380 -0.11600
H 	H 	0.12250 0.70040 0.14400 0.06100
C 	C 	0.23760 0.63590 0.10420 0.04700
H 	H 	0.26650 0.61940 0.09490 0.02600
C 	C 	0.24150 0.78340 0.16960 -0.11300
H 	H 	0.26250 0.77910 0.14260 0.06800
C 	C 	0.19230 0.61560 0.09240 -0.13100
C 	C 	0.20230 0.75050 0.17710 0.04300
O 	O 	0.94965 0.85118 0.55250 -0.37600
O 	O 	0.95093 0.76894 0.55152 -0.39100
C 	C 	0.85460 0.80250 0.70560 0.03800
C 	C 	0.93800 0.80970 0.56950 0.37200
C 	C 	0.89330 0.85080 0.64020 0.03500
H 	H 	0.90180 0.88150 0.62700 0.04900
C 	C 	0.87020 0.75880 0.68030 -0.10100
H 	H 	0.86310 0.72780 0.69360 0.07400
C 	C 	0.86620 0.84840 0.68480 -0.09600
H 	H 	0.85600 0.87750 0.70040 0.07900
C 	C 	0.89580 0.76240 0.63590 0.03900
H 	H 	0.90510 0.73350 0.61940 0.04200
C 	C 	0.83040 0.75850 0.78340 -0.11800
H 	H 	0.85740 0.73750 0.77910 0.08000
C 	C 	0.90760 0.80770 0.61560 -0.10200
C 	C 	0.82290 0.79770 0.75050 0.05900
O 	O 	0.05035 0.85118 0.44750 -0.41900
O 	O 	0.04907 0.76894 0.44848 -0.43400
C 	C 	0.14540 0.80250 0.29440 0.03800
C 	C 	0.06200 0.80970 0.43050 0.37700
C 	C 	0.10670 0.85080 0.35980 0.03900
H 	H 	0.09820 0.88150 0.37300 0.03200
C 	C 	0.12980 0.75880 0.31970 -0.11700
H 	H 	0.13690 0.72780 0.30640 0.07300
C 	C 	0.13380 0.84840 0.31520 -0.11100
H 	H 	0.14400 0.87750 0.29960 0.07100
C 	C 	0.10420 0.76240 0.36410 0.04400
H 	H 	0.09490 0.73350 0.38060 0.02700
C 	C 	0.16960 0.75850 0.21660 -0.11200
H 	H 	0.14260 0.73750 0.22090 0.06700
C 	C 	0.09240 0.80770 0.38440 -0.12500
C 	C 	0.17710 0.79770 0.24950 0.04500
O 	O 	0.94965 0.14882 0.44750 -0.38900
O 	O 	0.95093 0.23106 0.44848 -0.39200
C 	C 	0.85460 0.19750 0.29440 0.03700
C 	C 	0.93800 0.19030 0.43050 0.37500
C 	C 	0.89330 0.14920 0.35980 0.03500
H 	H 	0.90180 0.11850 0.37300 0.03300
C 	C 	0.87020 0.24120 0.31970 -0.10500
H 	H 	0.86310 0.27220 0.30640 0.07500
C 	C 	0.86620 0.15160 0.31520 -0.10200
H 	H 	0.85600 0.12250 0.29960 0.06300
C 	C 	0.89580 0.23760 0.36410 0.04100
H 	H 	0.90510 0.26650 0.38060 0.04000
C 	C 	0.83040 0.24150 0.21660 -0.11400
H 	H 	0.85740 0.26250 0.22090 0.07400
C 	C 	0.90760 0.19230 0.38440 -0.10900
C 	C 	0.82290 0.20230 0.24950 0.04700
O 	O 	0.05035 0.14882 0.55250 -0.43100
O 	O 	0.04907 0.23106 0.55152 -0.43500
C 	C 	0.14540 0.19750 0.70560 0.03900
C 	C 	0.06200 0.19030 0.56950 0.38000
C 	C 	0.10670 0.14920 0.64020 0.04100
H 	H 	0.09820 0.11850 0.62700 0.01800
C 	C 	0.12980 0.24120 0.68030 -0.11900
H 	H 	0.13690 0.27220 0.69360 0.07400
C 	C 	0.13380 0.15160 0.68480 -0.11600
H 	H 	0.14400 0.12250 0.70040 0.06100
C 	C 	0.10420 0.23760 0.63590 0.04700
H 	H 	0.09490 0.26650 0.61940 0.02600
C 	C 	0.16960 0.24150 0.78340 -0.11300
H 	H 	0.14260 0.26250 0.77910 0.06800
C 	C 	0.09240 0.19230 0.61560 -0.13100
C 	C 	0.17710 0.20230 0.75050 0.04300
Cu	Cu	0.50000 0.00000 0.14397 0.87400
Cu	Cu	0.50000 0.00000 0.24010 0.88300
Cu	Cu	0.50000 0.00000 0.85603 0.88000
Cu	Cu	0.50000 -0.00000 0.75990 0.88300
Cu	Cu	0.14397 0.50000 -0.00000 0.87400
Cu	Cu	0.24010 0.50000 -0.00000 0.88300
Cu	Cu	0.85603 0.50000 -0.00000 0.88000
Cu	Cu	0.75990 0.50000 -0.00000 0.88300
Cu	Cu	-0.00000 0.14397 0.50000 0.87400
Cu	Cu	-0.00000 0.24010 0.50000 0.88300
Cu	Cu	-0.00000 0.85603 0.50000 0.88000
Cu	Cu	-0.00000 0.75990 0.50000 0.88300
O 	O 	0.94750 0.55035 0.64882 -0.38200
O 	O 	0.94848 0.54907 0.73106 -0.38900
C 	C 	0.79440 0.64540 0.69750 0.03300
C 	C 	0.93050 0.56200 0.69030 0.37000
C 	C 	0.85980 0.60670 0.64920 0.03100
H 	H 	0.87300 0.59820 0.61850 0.03900
C 	C 	0.81970 0.62980 0.74120 -0.10300
H 	H 	0.80640 0.63690 0.77220 0.07200
C 	C 	0.81520 0.63380 0.65160 -0.10000
H 	H 	0.79960 0.64400 0.62250 0.06700
C 	C 	0.86410 0.60420 0.73760 0.03600
H 	H 	0.88060 0.59490 0.76650 0.04200
C 	C 	0.71660 0.66960 0.74150 -0.11800
H 	H 	0.72090 0.64260 0.76250 0.07400
C 	C 	0.88440 0.59240 0.69230 -0.10500
C 	C 	0.74950 0.67710 0.70230 0.05200
O 	O 	0.05250 0.44965 0.64882 -0.42600
O 	O 	0.05152 0.45093 0.73106 -0.43400
C 	C 	0.20560 0.35460 0.69750 0.04100
C 	C 	0.06950 0.43800 0.69030 0.38000
C 	C 	0.14020 0.39330 0.64920 0.04200
H 	H 	0.12700 0.40180 0.61850 0.02700
C 	C 	0.18030 0.37020 0.74120 -0.11500
H 	H 	0.19360 0.36310 0.77220 0.07500
C 	C 	0.18480 0.36620 0.65160 -0.11100
H 	H 	0.20040 0.35600 0.62250 0.06900
C 	C 	0.13590 0.39580 0.73760 0.04700
H 	H 	0.11940 0.40510 0.76650 0.02800
C 	C 	0.28340 0.33040 0.74150 -0.11300
H 	H 	0.27910 0.35740 0.76250 0.07200
C 	C 	0.11560 0.40760 0.69230 -0.12600
C 	C 	0.25050 0.32290 0.70230 0.04700
O 	O 	0.05250 0.55035 0.35118 -0.42600
O 	O 	0.05152 0.54907 0.26894 -0.43600
C 	C 	0.20560 0.64540 0.30250 0.04200
C 	C 	0.06950 0.56200 0.30970 0.38100
C 	C 	0.14020 0.60670 0.35080 0.04300
H 	H 	0.12700 0.59820 0.38150 0.02700
C 	C 	0.18030 0.62980 0.25880 -0.11700
H 	H 	0.19360 0.63690 0.22780 0.07600
C 	C 	0.18480 0.63380 0.34840 -0.11200
H 	H 	0.20040 0.64400 0.37750 0.06900
C 	C 	0.13590 0.60420 0.26240 0.04900
H 	H 	0.11940 0.59490 0.23350 0.02600
C 	C 	0.28340 0.66960 0.25850 -0.11200
H 	H 	0.27910 0.64260 0.23750 0.07100
C 	C 	0.11560 0.59240 0.30770 -0.12800
C 	C 	0.25050 0.67710 0.29770 0.04600
O 	O 	0.94750 0.44965 0.35118 -0.38200
O 	O 	0.94848 0.45093 0.26894 -0.39200
C 	C 	0.79440 0.35460 0.30250 0.03500
C 	C 	0.93050 0.43800 0.30970 0.37100
C 	C 	0.85980 0.39330 0.35080 0.03300
H 	H 	0.87300 0.40180 0.38150 0.03900
C 	C 	0.81970 0.37020 0.25880 -0.10600
H 	H 	0.80640 0.36310 0.22780 0.07300
C 	C 	0.81520 0.36620 0.34840 -0.10200
H 	H 	0.79960 0.35600 0.37750 0.06800
C 	C 	0.86410 0.39580 0.26240 0.03800
H 	H 	0.88060 0.40510 0.23350 0.03900
C 	C 	0.71660 0.33040 0.25850 -0.11300
H 	H 	0.72090 0.35740 0.23750 0.07200
C 	C 	0.88440 0.40760 0.30770 -0.10700
C 	C 	0.74950 0.32290 0.29770 0.04900
O 	O 	0.64882 0.94750 0.55035 -0.38200
O 	O 	0.73106 0.94848 0.54907 -0.38900
C 	C 	0.69750 0.79440 0.64540 0.03300
C 	C 	0.69030 0.93050 0.56200 0.37000
C 	C 	0.64920 0.85980 0.60670 0.03100
H 	H 	0.61850 0.87300 0.59820 0.03900
C 	C 	0.74120 0.81970 0.62980 -0.10300
H 	H 	0.77220 0.80640 0.63690 0.07200
C 	C 	0.65160 0.81520 0.63380 -0.10000
H 	H 	0.62250 0.79960 0.64400 0.06700
C 	C 	0.73760 0.86410 0.60420 0.03600
H 	H 	0.76650 0.88060 0.59490 0.04200
C 	C 	0.74150 0.71660 0.66960 -0.11800
H 	H 	0.76250 0.72090 0.64260 0.07400
C 	C 	0.69230 0.88440 0.59240 -0.10500
C 	C 	0.70230 0.74950 0.67710 0.05200
O 	O 	0.64882 0.05250 0.44965 -0.42600
O 	O 	0.73106 0.05152 0.45093 -0.43400
C 	C 	0.69750 0.20560 0.35460 0.04100
C 	C 	0.69030 0.06950 0.43800 0.38000
C 	C 	0.64920 0.14020 0.39330 0.04200
H 	H 	0.61850 0.12700 0.40180 0.02700
C 	C 	0.74120 0.18030 0.37020 -0.11500
H 	H 	0.77220 0.19360 0.36310 0.07500
C 	C 	0.65160 0.18480 0.36620 -0.11100
H 	H 	0.62250 0.20040 0.35600 0.06900
C 	C 	0.73760 0.13590 0.39580 0.04700
H 	H 	0.76650 0.11940 0.40510 0.02800
C 	C 	0.74150 0.28340 0.33040 -0.11300
H 	H 	0.76250 0.27910 0.35740 0.07200
C 	C 	0.69230 0.11560 0.40760 -0.12600
C 	C 	0.70230 0.25050 0.32290 0.04700
O 	O 	0.35118 0.05250 0.55035 -0.42600
O 	O 	0.26894 0.05152 0.54907 -0.43600
C 	C 	0.30250 0.20560 0.64540 0.04200
C 	C 	0.30970 0.06950 0.56200 0.38100
C 	C 	0.35080 0.14020 0.60670 0.04300
H 	H 	0.38150 0.12700 0.59820 0.02700
C 	C 	0.25880 0.18030 0.62980 -0.11700
H 	H 	0.22780 0.19360 0.63690 0.07600
C 	C 	0.34840 0.18480 0.63380 -0.11200
H 	H 	0.37750 0.20040 0.64400 0.06900
C 	C 	0.26240 0.13590 0.60420 0.04900
H 	H 	0.23350 0.11940 0.59490 0.02600
C 	C 	0.25850 0.28340 0.66960 -0.11200
H 	H 	0.23750 0.27910 0.64260 0.07100
C 	C 	0.30770 0.11560 0.59240 -0.12800
C 	C 	0.29770 0.25050 0.67710 0.04600
O 	O 	0.35118 0.94750 0.44965 -0.38200
O 	O 	0.26894 0.94848 0.45093 -0.39200
C 	C 	0.30250 0.79440 0.35460 0.03500
C 	C 	0.30970 0.93050 0.43800 0.37100
C 	C 	0.35080 0.85980 0.39330 0.03300
H 	H 	0.38150 0.87300 0.40180 0.03900
C 	C 	0.25880 0.81970 0.37020 -0.10600
H 	H 	0.22780 0.80640 0.36310 0.07300
C 	C 	0.34840 0.81520 0.36620 -0.10200
H 	H 	0.37750 0.79960 0.35600 0.06800
C 	C 	0.26240 0.86410 0.39580 0.03800
H 	H 	0.23350 0.88060 0.40510 0.03900
C 	C 	0.25850 0.71660 0.33040 -0.11300
H 	H 	0.23750 0.72090 0.35740 0.07200
C 	C 	0.30770 0.88440 0.40760 -0.10700
C 	C 	0.29770 0.74950 0.32290 0.04900
O 	O 	0.55035 0.64882 0.94750 -0.38200
O 	O 	0.54907 0.73106 0.94848 -0.38900
C 	C 	0.64540 0.69750 0.79440 0.03300
C 	C 	0.56200 0.69030 0.93050 0.37000
C 	C 	0.60670 0.64920 0.85980 0.03100
H 	H 	0.59820 0.61850 0.87300 0.03900
C 	C 	0.62980 0.74120 0.81970 -0.10300
H 	H 	0.63690 0.77220 0.80640 0.07200
C 	C 	0.63380 0.65160 0.81520 -0.10000
H 	H 	0.64400 0.62250 0.79960 0.06700
C 	C 	0.60420 0.73760 0.86410 0.03600
H 	H 	0.59490 0.76650 0.88060 0.04200
C 	C 	0.66960 0.74150 0.71660 -0.11800
H 	H 	0.64260 0.76250 0.72090 0.07400
C 	C 	0.59240 0.69230 0.88440 -0.10500
C 	C 	0.67710 0.70230 0.74950 0.05200
O 	O 	0.44965 0.64882 0.05250 -0.42600
O 	O 	0.45093 0.73106 0.05152 -0.43400
C 	C 	0.35460 0.69750 0.20560 0.04100
C 	C 	0.43800 0.69030 0.06950 0.38000
C 	C 	0.39330 0.64920 0.14020 0.04200
H 	H 	0.40180 0.61850 0.12700 0.02700
C 	C 	0.37020 0.74120 0.18030 -0.11500
H 	H 	0.36310 0.77220 0.19360 0.07500
C 	C 	0.36620 0.65160 0.18480 -0.11100
H 	H 	0.35600 0.62250 0.20040 0.06900
C 	C 	0.39580 0.73760 0.13590 0.04700
H 	H 	0.40510 0.76650 0.11940 0.02800
C 	C 	0.33040 0.74150 0.28340 -0.11300
H 	H 	0.35740 0.76250 0.27910 0.07200
C 	C 	0.40760 0.69230 0.11560 -0.12600
C 	C 	0.32290 0.70230 0.25050 0.04700
O 	O 	0.55035 0.35118 0.05250 -0.42600
O 	O 	0.54907 0.26894 0.05152 -0.43600
C 	C 	0.64540 0.30250 0.20560 0.04200
C 	C 	0.56200 0.30970 0.06950 0.38100
C 	C 	0.60670 0.35080 0.14020 0.04300
H 	H 	0.59820 0.38150 0.12700 0.02700
C 	C 	0.62980 0.25880 0.18030 -0.11700
H 	H 	0.63690 0.22780 0.19360 0.07600
C 	C 	0.63380 0.34840 0.18480 -0.11200
H 	H 	0.64400 0.37750 0.20040 0.06900
C 	C 	0.60420 0.26240 0.13590 0.04900
H 	H 	0.59490 0.23350 0.11940 0.02600
C 	C 	0.66960 0.25850 0.28340 -0.11200
H 	H 	0.64260 0.23750 0.27910 0.07100
C 	C 	0.59240 0.30770 0.11560 -0.12800
C 	C 	0.67710 0.29770 0.25050 0.04600
O 	O 	0.44965 0.35118 0.94750 -0.38200
O 	O 	0.45093 0.26894 0.94848 -0.39200
C 	C 	0.35460 0.30250 0.79440 0.03500
C 	C 	0.43800 0.30970 0.93050 0.37100
C 	C 	0.39330 0.35080 0.85980 0.03300
H 	H 	0.40180 0.38150 0.87300 0.03900
C 	C 	0.37020 0.25880 0.81970 -0.10600
H 	H 	0.36310 0.22780 0.80640 0.07300
C 	C 	0.36620 0.34840 0.81520 -0.10200
H 	H 	0.35600 0.37750 0.79960 0.06800
C 	C 	0.39580 0.26240 0.86410 0.03800
H 	H 	0.40510 0.23350 0.88060 0.03900
C 	C 	0.33040 0.25850 0.71660 -0.11300
H 	H 	0.35740 0.23750 0.72090 0.07200
C 	C 	0.40760 0.30770 0.88440 -0.10700
C 	C 	0.32290 0.29770 0.74950 0.04900
O 	O 	0.05250 0.44965 0.35118 -0.42600
O 	O 	0.05152 0.45093 0.26894 -0.43600
C 	C 	0.20560 0.35460 0.30250 0.04300
C 	C 	0.06950 0.43800 0.30970 0.38100
C 	C 	0.14020 0.39330 0.35080 0.04400
H 	H 	0.12700 0.40180 0.38150 0.02600
C 	C 	0.18030 0.37020 0.25880 -0.11800
H 	H 	0.19360 0.36310 0.22780 0.07600
C 	C 	0.18480 0.36620 0.34840 -0.11300
H 	H 	0.20040 0.35600 0.37750 0.07000
C 	C 	0.13590 0.39580 0.26240 0.04900
H 	H 	0.11940 0.40510 0.23350 0.02600
C 	C 	0.28340 0.33040 0.25850 -0.11000
H 	H 	0.27910 0.35740 0.23750 0.07100
C 	C 	0.11560 0.40760 0.30770 -0.12800
C 	C 	0.25050 0.32290 0.29770 0.04500
O 	O 	0.94750 0.55035 0.35118 -0.38200
O 	O 	0.94848 0.54907 0.26894 -0.39200
C 	C 	0.79440 0.64540 0.30250 0.03500
C 	C 	0.93050 0.56200 0.30970 0.37100
C 	C 	0.85980 0.60670 0.35080 0.03300
H 	H 	0.87300 0.59820 0.38150 0.03900
C 	C 	0.81970 0.62980 0.25880 -0.10500
H 	H 	0.80640 0.63690 0.22780 0.07300
C 	C 	0.81520 0.63380 0.34840 -0.10100
H 	H 	0.79960 0.64400 0.37750 0.06800
C 	C 	0.86410 0.60420 0.26240 0.03800
H 	H 	0.88060 0.59490 0.23350 0.03900
C 	C 	0.71660 0.66960 0.25850 -0.11500
H 	H 	0.72090 0.64260 0.23750 0.07200
C 	C 	0.88440 0.59240 0.30770 -0.10700
C 	C 	0.74950 0.67710 0.29770 0.05000
O 	O 	0.94750 0.44965 0.64882 -0.38200
O 	O 	0.94848 0.45093 0.73106 -0.39000
C 	C 	0.79440 0.35460 0.69750 0.03400
C 	C 	0.93050 0.43800 0.69030 0.37000
C 	C 	0.85980 0.39330 0.64920 0.03200
H 	H 	0.87300 0.40180 0.61850 0.03900
C 	C 	0.81970 0.37020 0.74120 -0.10300
H 	H 	0.80640 0.36310 0.77220 0.07200
C 	C 	0.81520 0.36620 0.65160 -0.10000
H 	H 	0.79960 0.35600 0.62250 0.06700
C 	C 	0.86410 0.39580 0.73760 0.03600
H 	H 	0.88060 0.40510 0.76650 0.04100
C 	C 	0.71660 0.33040 0.74150 -0.11600
H 	H 	0.72090 0.35740 0.76250 0.07300
C 	C 	0.88440 0.40760 0.69230 -0.10500
C 	C 	0.74950 0.32290 0.70230 0.05000
O 	O 	0.05250 0.55035 0.64882 -0.42600
O 	O 	0.05152 0.54907 0.73106 -0.43300
C 	C 	0.20560 0.64540 0.69750 0.04000
C 	C 	0.06950 0.56200 0.69030 0.38000
C 	C 	0.14020 0.60670 0.64920 0.04200
H 	H 	0.12700 0.59820 0.61850 0.02700
C 	C 	0.18030 0.62980 0.74120 -0.11500
H 	H 	0.19360 0.63690 0.77220 0.07500
C 	C 	0.18480 0.63380 0.65160 -0.11100
H 	H 	0.20040 0.64400 0.62250 0.06900
C 	C 	0.13590 0.60420 0.73760 0.04700
H 	H 	0.11940 0.59490 0.76650 0.02900
C 	C 	0.28340 0.66960 0.74150 -0.11500
H 	H 	0.27910 0.64260 0.76250 0.07300
C 	C 	0.11560 0.59240 0.69230 -0.12600
C 	C 	0.25050 0.67710 0.70230 0.04800
O 	O 	0.35118 0.05250 0.44965 -0.42600
O 	O 	0.26894 0.05152 0.45093 -0.43600
C 	C 	0.30250 0.20560 0.35460 0.04300
C 	C 	0.30970 0.06950 0.43800 0.38100
C 	C 	0.35080 0.14020 0.39330 0.04400
H 	H 	0.38150 0.12700 0.40180 0.02600
C 	C 	0.25880 0.18030 0.37020 -0.11800
H 	H 	0.22780 0.19360 0.36310 0.07600
C 	C 	0.34840 0.18480 0.36620 -0.11300
H 	H 	0.37750 0.20040 0.35600 0.07000
C 	C 	0.26240 0.13590 0.39580 0.04900
H 	H 	0.23350 0.11940 0.40510 0.02600
C 	C 	0.25850 0.28340 0.33040 -0.11000
H 	H 	0.23750 0.27910 0.35740 0.07100
C 	C 	0.30770 0.11560 0.40760 -0.12800
C 	C 	0.29770 0.25050 0.32290 0.04500
O 	O 	0.35118 0.94750 0.55035 -0.38200
O 	O 	0.26894 0.94848 0.54907 -0.39200
C 	C 	0.30250 0.79440 0.64540 0.03500
C 	C 	0.30970 0.93050 0.56200 0.37100
C 	C 	0.35080 0.85980 0.60670 0.03300
H 	H 	0.38150 0.87300 0.59820 0.03900
C 	C 	0.25880 0.81970 0.62980 -0.10500
H 	H 	0.22780 0.80640 0.63690 0.07300
C 	C 	0.34840 0.81520 0.63380 -0.10100
H 	H 	0.37750 0.79960 0.64400 0.06800
C 	C 	0.26240 0.86410 0.60420 0.03800
H 	H 	0.23350 0.88060 0.59490 0.03900
C 	C 	0.25850 0.71660 0.66960 -0.11500
H 	H 	0.23750 0.72090 0.64260 0.07200
C 	C 	0.30770 0.88440 0.59240 -0.10700
C 	C 	0.29770 0.74950 0.67710 0.05000
O 	O 	0.64882 0.94750 0.44965 -0.38200
O 	O 	0.73106 0.94848 0.45093 -0.39000
C 	C 	0.69750 0.79440 0.35460 0.03400
C 	C 	0.69030 0.93050 0.43800 0.37000
C 	C 	0.64920 0.85980 0.39330 0.03200
H 	H 	0.61850 0.87300 0.40180 0.03900
C 	C 	0.74120 0.81970 0.37020 -0.10300
H 	H 	0.77220 0.80640 0.36310 0.07200
C 	C 	0.65160 0.81520 0.36620 -0.10000
H 	H 	0.62250 0.79960 0.35600 0.06700
C 	C 	0.73760 0.86410 0.39580 0.03600
H 	H 	0.76650 0.88060 0.40510 0.04100
C 	C 	0.74150 0.71660 0.33040 -0.11600
H 	H 	0.76250 0.72090 0.35740 0.07300
C 	C 	0.69230 0.88440 0.40760 -0.10500
C 	C 	0.70230 0.74950 0.32290 0.05000
O 	O 	0.64882 0.05250 0.55035 -0.42600
O 	O 	0.73106 0.05152 0.54907 -0.43300
C 	C 	0.69750 0.20560 0.64540 0.04000
C 	C 	0.69030 0.06950 0.56200 0.38000
C 	C 	0.64920 0.14020 0.60670 0.04200
H 	H 	0.61850 0.12700 0.59820 0.02700
C 	C 	0.74120 0.18030 0.62980 -0.11500
H 	H 	0.77220 0.19360 0.63690 0.07500
C 	C 	0.65160 0.18480 0.63380 -0.11100
H 	H 	0.62250 0.20040 0.64400 0.06900
C 	C 	0.73760 0.13590 0.60420 0.04700
H 	H 	0.76650 0.11940 0.59490 0.02900
C 	C 	0.74150 0.28340 0.66960 -0.11500
H 	H 	0.76250 0.27910 0.64260 0.07300
C 	C 	0.69230 0.11560 0.59240 -0.12600
C 	C 	0.70230 0.25050 0.67710 0.04800
O 	O 	0.44965 0.35118 0.05250 -0.42600
O 	O 	0.45093 0.26894 0.05152 -0.43600
C 	C 	0.35460 0.30250 0.20560 0.04300
C 	C 	0.43800 0.30970 0.06950 0.38100
C 	C 	0.39330 0.35080 0.14020 0.04400
H 	H 	0.40180 0.38150 0.12700 0.02600
C 	C 	0.37020 0.25880 0.18030 -0.11800
H 	H 	0.36310 0.22780 0.19360 0.07600
C 	C 	0.36620 0.34840 0.18480 -0.11300
H 	H 	0.35600 0.37750 0.20040 0.07000
C 	C 	0.39580 0.26240 0.13590 0.04900
H 	H 	0.40510 0.23350 0.11940 0.02600
C 	C 	0.33040 0.25850 0.28340 -0.11000
H 	H 	0.35740 0.23750 0.27910 0.07100
C 	C 	0.40760 0.30770 0.11560 -0.12800
C 	C 	0.32290 0.29770 0.25050 0.04500
O 	O 	0.55035 0.35118 0.94750 -0.38200
O 	O 	0.54907 0.26894 0.94848 -0.39200
C 	C 	0.64540 0.30250 0.79440 0.03500
C 	C 	0.56200 0.30970 0.93050 0.37100
C 	C 	0.60670 0.35080 0.85980 0.03300
H 	H 	0.59820 0.38150 0.87300 0.03900
C 	C 	0.62980 0.25880 0.81970 -0.10500
H 	H 	0.63690 0.22780 0.80640 0.07300
C 	C 	0.63380 0.34840 0.81520 -0.10100
H 	H 	0.64400 0.37750 0.79960 0.06800
C 	C 	0.60420 0.26240 0.86410 0.03800
H 	H 	0.59490 0.23350 0.88060 0.03900
C 	C 	0.66960 0.25850 0.71660 -0.11500
H 	H 	0.64260 0.23750 0.72090 0.07200
C 	C 	0.59240 0.30770 0.88440 -0.10700
C 	C 	0.67710 0.29770 0.74950 0.05000
O 	O 	0.44965 0.64882 0.94750 -0.38200
O 	O 	0.45093 0.73106 0.94848 -0.39000
C 	C 	0.35460 0.69750 0.79440 0.03400
C 	C 	0.43800 0.69030 0.93050 0.37000
C 	C 	0.39330 0.64920 0.85980 0.03200
H 	H 	0.40180 0.61850 0.87300 0.03900
C 	C 	0.37020 0.74120 0.81970 -0.10300
H 	H 	0.36310 0.77220 0.80640 0.07200
C 	C 	0.36620 0.65160 0.81520 -0.10000
H 	H 	0.35600 0.62250 0.79960 0.06700
C 	C 	0.39580 0.73760 0.86410 0.03600
H 	H 	0.40510 0.76650 0.88060 0.04100
C 	C 	0.33040 0.74150 0.71660 -0.11600
H 	H 	0.35740 0.76250 0.72090 0.07300
C 	C 	0.40760 0.69230 0.88440 -0.10500
C 	C 	0.32290 0.70230 0.74950 0.05000
O 	O 	0.55035 0.64882 0.05250 -0.42600
O 	O 	0.54907 0.73106 0.05152 -0.43300
C 	C 	0.64540 0.69750 0.20560 0.04000
C 	C 	0.56200 0.69030 0.06950 0.38000
C 	C 	0.60670 0.64920 0.14020 0.04200
H 	H 	0.59820 0.61850 0.12700 0.02700
C 	C 	0.62980 0.74120 0.18030 -0.11500
H 	H 	0.63690 0.77220 0.19360 0.07500
C 	C 	0.63380 0.65160 0.18480 -0.11100
H 	H 	0.64400 0.62250 0.20040 0.06900
C 	C 	0.60420 0.73760 0.13590 0.04700
H 	H 	0.59490 0.76650 0.11940 0.02900
C 	C 	0.66960 0.74150 0.28340 -0.11500
H 	H 	0.64260 0.76250 0.27910 0.07300
C 	C 	0.59240 0.69230 0.11560 -0.12600
C 	C 	0.67710 0.70230 0.25050 0.04800
Cu	Cu	-0.00000 0.50000 0.64397 0.87700
Cu	Cu	-0.00000 0.50000 0.74010 0.88400
Cu	Cu	-0.00000 0.50000 0.35603 0.87700
Cu	Cu	-0.00000 0.50000 0.25990 0.88200
Cu	Cu	0.64397 -0.00000 0.50000 0.87700
Cu	Cu	0.74010 -0.00000 0.50000 0.88400
Cu	Cu	0.35603 -0.00000 0.50000 0.87700
Cu	Cu	0.25990 -0.00000 0.50000 0.88200
Cu	Cu	0.50000 0.64397 -0.00000 0.87700
Cu	Cu	0.50000 0.74010 -0.00000 0.88400
Cu	Cu	0.50000 0.35603 -0.00000 0.87700
Cu	Cu	0.50000 0.25990 -0.00000 0.88200
