data_crystal

_cell_length_a 26.99100
_cell_length_b 26.99100
_cell_length_c 26.99100
_cell_angle_alpha 90.00000
_cell_angle_beta  90.00000
_cell_angle_gamma 90.00000

_symmetry_space_group_name_	'P 1'
_symmetry_space_group_name_H-M	'P 1'

loop_
_symmetry_equiv_pos_as_xyz
  x,y,z

loop_
_atom_site_label
_atom_site_type_symbol
_atom_site_fract_x
_atom_site_fract_y
_atom_site_fract_z
_atom_site_charge
O 	O 	0.44770 0.05012 0.14885 -0.42700
O 	O 	0.44846 0.04949 0.23158 -0.43100
C 	C 	0.29494 0.14610 0.19809 0.02900
C 	C 	0.43074 0.06227 0.19080 0.36400
C 	C 	0.36036 0.10734 0.14953 0.02800
H 	H 	0.37410 0.09900 0.11820 0.02100
C 	C 	0.31973 0.13020 0.24134 -0.10400
H 	H 	0.30590 0.13740 0.27290 0.06700
C 	C 	0.31581 0.13446 0.15208 -0.10300
H 	H 	0.29990 0.14490 0.12250 0.05200
C 	C 	0.36396 0.10428 0.23833 0.03200
H 	H 	0.38050 0.09440 0.26780 0.03100
C 	C 	0.21687 0.17033 0.24212 -0.10500
H 	H 	0.22150 0.14310 0.26390 0.06100
C 	C 	0.38425 0.09275 0.19261 -0.11700
C 	C 	0.24977 0.17751 0.20261 0.03600
O 	O 	0.55230 0.94988 0.14885 -0.38300
O 	O 	0.55154 0.95051 0.23158 -0.38800
C 	C 	0.70506 0.85390 0.19809 0.03000
C 	C 	0.56926 0.93773 0.19080 0.36000
C 	C 	0.63964 0.89266 0.14953 0.02600
H 	H 	0.62590 0.90100 0.11820 0.03700
C 	C 	0.68027 0.86980 0.24134 -0.09000
H 	H 	0.69410 0.86260 0.27290 0.06800
C 	C 	0.68419 0.86554 0.15208 -0.08900
H 	H 	0.70010 0.85510 0.12250 0.06000
C 	C 	0.63604 0.89572 0.23833 0.02900
H 	H 	0.61950 0.90560 0.26780 0.04500
C 	C 	0.78313 0.82967 0.24212 -0.10900
H 	H 	0.77850 0.85690 0.26390 0.07300
C 	C 	0.61575 0.90725 0.19261 -0.09500
C 	C 	0.75023 0.82249 0.20261 0.05000
O 	O 	0.55230 0.05012 0.85115 -0.41300
O 	O 	0.55154 0.04949 0.76842 -0.42900
C 	C 	0.70506 0.14610 0.80191 0.03200
C 	C 	0.56926 0.06227 0.80920 0.36200
C 	C 	0.63964 0.10734 0.85047 0.02900
H 	H 	0.62590 0.09900 0.88180 0.03700
C 	C 	0.68027 0.13020 0.75866 -0.10100
H 	H 	0.69410 0.13740 0.72710 0.06700
C 	C 	0.68419 0.13446 0.84792 -0.09700
H 	H 	0.70010 0.14490 0.87750 0.06900
C 	C 	0.63604 0.10428 0.76167 0.03100
H 	H 	0.61950 0.09440 0.73220 0.03200
C 	C 	0.78313 0.17033 0.75788 -0.10800
H 	H 	0.77850 0.14310 0.73610 0.06600
C 	C 	0.61575 0.09275 0.80739 -0.11000
C 	C 	0.75023 0.17751 0.79739 0.04700
O 	O 	0.44770 0.94988 0.85115 -0.37100
O 	O 	0.44846 0.95051 0.76842 -0.38700
C 	C 	0.29494 0.85390 0.80191 0.03000
C 	C 	0.43074 0.93773 0.80920 0.35800
C 	C 	0.36036 0.89266 0.85047 0.02500
H 	H 	0.37410 0.90100 0.88180 0.05100
C 	C 	0.31973 0.86980 0.75866 -0.08900
H 	H 	0.30590 0.86260 0.72710 0.06800
C 	C 	0.31581 0.86554 0.84792 -0.08500
H 	H 	0.29990 0.85510 0.87750 0.07100
C 	C 	0.36396 0.89572 0.76167 0.02700
H 	H 	0.38050 0.90560 0.73220 0.04600
C 	C 	0.21687 0.82967 0.75788 -0.10800
H 	H 	0.22150 0.85690 0.73610 0.07300
C 	C 	0.38425 0.90725 0.80739 -0.09000
C 	C 	0.24977 0.82249 0.79739 0.05200
O 	O 	0.14885 0.44770 0.05012 -0.42600
O 	O 	0.23158 0.44846 0.04949 -0.43000
C 	C 	0.19809 0.29494 0.14610 0.03000
C 	C 	0.19080 0.43074 0.06227 0.36400
C 	C 	0.14953 0.36036 0.10734 0.02800
H 	H 	0.11820 0.37410 0.09900 0.02100
C 	C 	0.24134 0.31973 0.13020 -0.10400
H 	H 	0.27290 0.30590 0.13740 0.06700
C 	C 	0.15208 0.31581 0.13446 -0.10300
H 	H 	0.12250 0.29990 0.14490 0.05200
C 	C 	0.23833 0.36396 0.10428 0.03200
H 	H 	0.26780 0.38050 0.09440 0.03100
C 	C 	0.24212 0.21687 0.17033 -0.10500
H 	H 	0.26390 0.22150 0.14310 0.06100
C 	C 	0.19261 0.38425 0.09275 -0.11700
C 	C 	0.20261 0.24977 0.17751 0.03600
O 	O 	0.14885 0.55230 0.94988 -0.38300
O 	O 	0.23158 0.55154 0.95051 -0.38800
C 	C 	0.19809 0.70506 0.85390 0.03000
C 	C 	0.19080 0.56926 0.93773 0.36000
C 	C 	0.14953 0.63964 0.89266 0.02600
H 	H 	0.11820 0.62590 0.90100 0.03700
C 	C 	0.24134 0.68027 0.86980 -0.09000
H 	H 	0.27290 0.69410 0.86260 0.06800
C 	C 	0.15208 0.68419 0.86554 -0.08900
H 	H 	0.12250 0.70010 0.85510 0.06000
C 	C 	0.23833 0.63604 0.89572 0.02900
H 	H 	0.26780 0.61950 0.90560 0.04500
C 	C 	0.24212 0.78313 0.82967 -0.10900
H 	H 	0.26390 0.77850 0.85690 0.07300
C 	C 	0.19261 0.61575 0.90725 -0.09500
C 	C 	0.20261 0.75023 0.82249 0.05000
O 	O 	0.85115 0.55230 0.05012 -0.41300
O 	O 	0.76842 0.55154 0.04949 -0.42900
C 	C 	0.80191 0.70506 0.14610 0.03200
C 	C 	0.80920 0.56926 0.06227 0.36200
C 	C 	0.85047 0.63964 0.10734 0.02900
H 	H 	0.88180 0.62590 0.09900 0.03700
C 	C 	0.75866 0.68027 0.13020 -0.10100
H 	H 	0.72710 0.69410 0.13740 0.06700
C 	C 	0.84792 0.68419 0.13446 -0.09700
H 	H 	0.87750 0.70010 0.14490 0.06900
C 	C 	0.76167 0.63604 0.10428 0.03100
H 	H 	0.73220 0.61950 0.09440 0.03200
C 	C 	0.75788 0.78313 0.17033 -0.10800
H 	H 	0.73610 0.77850 0.14310 0.06600
C 	C 	0.80739 0.61575 0.09275 -0.11000
C 	C 	0.79739 0.75023 0.17751 0.04700
O 	O 	0.85115 0.44770 0.94988 -0.37100
O 	O 	0.76842 0.44846 0.95051 -0.38700
C 	C 	0.80191 0.29494 0.85390 0.03000
C 	C 	0.80920 0.43074 0.93773 0.35800
C 	C 	0.85047 0.36036 0.89266 0.02500
H 	H 	0.88180 0.37410 0.90100 0.05100
C 	C 	0.75866 0.31973 0.86980 -0.08900
H 	H 	0.72710 0.30590 0.86260 0.06800
C 	C 	0.84792 0.31581 0.86554 -0.08500
H 	H 	0.87750 0.29990 0.85510 0.07100
C 	C 	0.76167 0.36396 0.89572 0.02700
H 	H 	0.73220 0.38050 0.90560 0.04600
C 	C 	0.75788 0.21687 0.82967 -0.10800
H 	H 	0.73610 0.22150 0.85690 0.07300
C 	C 	0.80739 0.38425 0.90725 -0.09000
C 	C 	0.79739 0.24977 0.82249 0.05200
O 	O 	0.05012 0.14885 0.44770 -0.42600
O 	O 	0.04949 0.23158 0.44846 -0.43000
C 	C 	0.14610 0.19809 0.29494 0.03000
C 	C 	0.06227 0.19080 0.43074 0.36400
C 	C 	0.10734 0.14953 0.36036 0.02800
H 	H 	0.09900 0.11820 0.37410 0.02100
C 	C 	0.13020 0.24134 0.31973 -0.10400
H 	H 	0.13740 0.27290 0.30590 0.06700
C 	C 	0.13446 0.15208 0.31581 -0.10300
H 	H 	0.14490 0.12250 0.29990 0.05200
C 	C 	0.10428 0.23833 0.36396 0.03200
H 	H 	0.09440 0.26780 0.38050 0.03100
C 	C 	0.17033 0.24212 0.21687 -0.10500
H 	H 	0.14310 0.26390 0.22150 0.06100
C 	C 	0.09275 0.19261 0.38425 -0.11700
C 	C 	0.17751 0.20261 0.24977 0.03600
O 	O 	0.94988 0.14885 0.55230 -0.38300
O 	O 	0.95051 0.23158 0.55154 -0.38800
C 	C 	0.85390 0.19809 0.70506 0.03000
C 	C 	0.93773 0.19080 0.56926 0.36000
C 	C 	0.89266 0.14953 0.63964 0.02600
H 	H 	0.90100 0.11820 0.62590 0.03700
C 	C 	0.86980 0.24134 0.68027 -0.09000
H 	H 	0.86260 0.27290 0.69410 0.06800
C 	C 	0.86554 0.15208 0.68419 -0.08900
H 	H 	0.85510 0.12250 0.70010 0.06000
C 	C 	0.89572 0.23833 0.63604 0.02900
H 	H 	0.90560 0.26780 0.61950 0.04500
C 	C 	0.82967 0.24212 0.78313 -0.10900
H 	H 	0.85690 0.26390 0.77850 0.07300
C 	C 	0.90725 0.19261 0.61575 -0.09500
C 	C 	0.82249 0.20261 0.75023 0.05000
O 	O 	0.05012 0.85115 0.55230 -0.41300
O 	O 	0.04949 0.76842 0.55154 -0.42900
C 	C 	0.14610 0.80191 0.70506 0.03200
C 	C 	0.06227 0.80920 0.56926 0.36200
C 	C 	0.10734 0.85047 0.63964 0.02900
H 	H 	0.09900 0.88180 0.62590 0.03700
C 	C 	0.13020 0.75866 0.68027 -0.10100
H 	H 	0.13740 0.72710 0.69410 0.06700
C 	C 	0.13446 0.84792 0.68419 -0.09700
H 	H 	0.14490 0.87750 0.70010 0.06900
C 	C 	0.10428 0.76167 0.63604 0.03100
H 	H 	0.09440 0.73220 0.61950 0.03200
C 	C 	0.17033 0.75788 0.78313 -0.10800
H 	H 	0.14310 0.73610 0.77850 0.06600
C 	C 	0.09275 0.80739 0.61575 -0.11000
C 	C 	0.17751 0.79739 0.75023 0.04700
O 	O 	0.94988 0.85115 0.44770 -0.37100
O 	O 	0.95051 0.76842 0.44846 -0.38700
C 	C 	0.85390 0.80191 0.29494 0.03000
C 	C 	0.93773 0.80920 0.43074 0.35800
C 	C 	0.89266 0.85047 0.36036 0.02500
H 	H 	0.90100 0.88180 0.37410 0.05100
C 	C 	0.86980 0.75866 0.31973 -0.08900
H 	H 	0.86260 0.72710 0.30590 0.06800
C 	C 	0.86554 0.84792 0.31581 -0.08500
H 	H 	0.85510 0.87750 0.29990 0.07100
C 	C 	0.89572 0.76167 0.36396 0.02700
H 	H 	0.90560 0.73220 0.38050 0.04600
C 	C 	0.82967 0.75788 0.21687 -0.10800
H 	H 	0.85690 0.73610 0.22150 0.07300
C 	C 	0.90725 0.80739 0.38425 -0.09000
C 	C 	0.82249 0.79739 0.24977 0.05200
O 	O 	0.55230 0.94988 0.85115 -0.37000
O 	O 	0.55154 0.95051 0.76842 -0.38700
C 	C 	0.70506 0.85390 0.80191 0.03100
C 	C 	0.56926 0.93773 0.80920 0.35800
C 	C 	0.63964 0.89266 0.85047 0.02600
H 	H 	0.62590 0.90100 0.88180 0.05200
C 	C 	0.68027 0.86980 0.75866 -0.08800
H 	H 	0.69410 0.86260 0.72710 0.06800
C 	C 	0.68419 0.86554 0.84792 -0.08400
H 	H 	0.70010 0.85510 0.87750 0.07400
C 	C 	0.63604 0.89572 0.76167 0.02700
H 	H 	0.61950 0.90560 0.73220 0.04600
C 	C 	0.78313 0.82967 0.75788 -0.11000
H 	H 	0.77850 0.85690 0.73610 0.07600
C 	C 	0.61575 0.90725 0.80739 -0.08900
C 	C 	0.75023 0.82249 0.79739 0.05600
O 	O 	0.44770 0.05012 0.85115 -0.41300
O 	O 	0.44846 0.04949 0.76842 -0.42900
C 	C 	0.29494 0.14610 0.80191 0.03100
C 	C 	0.43074 0.06227 0.80920 0.36200
C 	C 	0.36036 0.10734 0.85047 0.02800
H 	H 	0.37410 0.09900 0.88180 0.03600
C 	C 	0.31973 0.13020 0.75866 -0.10200
H 	H 	0.30590 0.13740 0.72710 0.06600
C 	C 	0.31581 0.13446 0.84792 -0.09800
H 	H 	0.29990 0.14490 0.87750 0.06600
C 	C 	0.36396 0.10428 0.76167 0.03000
H 	H 	0.38050 0.09440 0.73220 0.03200
C 	C 	0.21687 0.17033 0.75788 -0.10600
H 	H 	0.22150 0.14310 0.73610 0.06300
C 	C 	0.38425 0.09275 0.80739 -0.11100
C 	C 	0.24977 0.17751 0.79739 0.04300
O 	O 	0.44770 0.94988 0.14885 -0.38300
O 	O 	0.44846 0.95051 0.23158 -0.38800
C 	C 	0.29494 0.85390 0.19809 0.03000
C 	C 	0.43074 0.93773 0.19080 0.36000
C 	C 	0.36036 0.89266 0.14953 0.02500
H 	H 	0.37410 0.90100 0.11820 0.03600
C 	C 	0.31973 0.86980 0.24134 -0.09100
H 	H 	0.30590 0.86260 0.27290 0.06800
C 	C 	0.31581 0.86554 0.15208 -0.09000
H 	H 	0.29990 0.85510 0.12250 0.05700
C 	C 	0.36396 0.89572 0.23833 0.02900
H 	H 	0.38050 0.90560 0.26780 0.04500
C 	C 	0.21687 0.82967 0.24212 -0.10700
H 	H 	0.22150 0.85690 0.26390 0.07000
C 	C 	0.38425 0.90725 0.19261 -0.09600
C 	C 	0.24977 0.82249 0.20261 0.04500
O 	O 	0.55230 0.05012 0.14885 -0.42500
O 	O 	0.55154 0.04949 0.23158 -0.43000
C 	C 	0.70506 0.14610 0.19809 0.03100
C 	C 	0.56926 0.06227 0.19080 0.36400
C 	C 	0.63964 0.10734 0.14953 0.02900
H 	H 	0.62590 0.09900 0.11820 0.02200
C 	C 	0.68027 0.13020 0.24134 -0.10400
H 	H 	0.69410 0.13740 0.27290 0.06700
C 	C 	0.68419 0.13446 0.15208 -0.10200
H 	H 	0.70010 0.14490 0.12250 0.05500
C 	C 	0.63604 0.10428 0.23833 0.03200
H 	H 	0.61950 0.09440 0.26780 0.03100
C 	C 	0.78313 0.17033 0.24212 -0.10700
H 	H 	0.77850 0.14310 0.26390 0.06400
C 	C 	0.61575 0.09275 0.19261 -0.11600
C 	C 	0.75023 0.17751 0.20261 0.04100
O 	O 	0.85115 0.55230 0.94988 -0.37000
O 	O 	0.76842 0.55154 0.95051 -0.38700
C 	C 	0.80191 0.70506 0.85390 0.03100
C 	C 	0.80920 0.56926 0.93773 0.35800
C 	C 	0.85047 0.63964 0.89266 0.02600
H 	H 	0.88180 0.62590 0.90100 0.05200
C 	C 	0.75866 0.68027 0.86980 -0.08800
H 	H 	0.72710 0.69410 0.86260 0.06800
C 	C 	0.84792 0.68419 0.86554 -0.08400
H 	H 	0.87750 0.70010 0.85510 0.07400
C 	C 	0.76167 0.63604 0.89572 0.02700
H 	H 	0.73220 0.61950 0.90560 0.04600
C 	C 	0.75788 0.78313 0.82967 -0.11000
H 	H 	0.73610 0.77850 0.85690 0.07600
C 	C 	0.80739 0.61575 0.90725 -0.08900
C 	C 	0.79739 0.75023 0.82249 0.05600
O 	O 	0.85115 0.44770 0.05012 -0.41300
O 	O 	0.76842 0.44846 0.04949 -0.42900
C 	C 	0.80191 0.29494 0.14610 0.03100
C 	C 	0.80920 0.43074 0.06227 0.36200
C 	C 	0.85047 0.36036 0.10734 0.02800
H 	H 	0.88180 0.37410 0.09900 0.03600
C 	C 	0.75866 0.31973 0.13020 -0.10200
H 	H 	0.72710 0.30590 0.13740 0.06600
C 	C 	0.84792 0.31581 0.13446 -0.09800
H 	H 	0.87750 0.29990 0.14490 0.06600
C 	C 	0.76167 0.36396 0.10428 0.03000
H 	H 	0.73220 0.38050 0.09440 0.03200
C 	C 	0.75788 0.21687 0.17033 -0.10600
H 	H 	0.73610 0.22150 0.14310 0.06300
C 	C 	0.80739 0.38425 0.09275 -0.11100
C 	C 	0.79739 0.24977 0.17751 0.04300
O 	O 	0.14885 0.44770 0.94988 -0.38300
O 	O 	0.23158 0.44846 0.95051 -0.38800
C 	C 	0.19809 0.29494 0.85390 0.03000
C 	C 	0.19080 0.43074 0.93773 0.36000
C 	C 	0.14953 0.36036 0.89266 0.02500
H 	H 	0.11820 0.37410 0.90100 0.03600
C 	C 	0.24134 0.31973 0.86980 -0.09100
H 	H 	0.27290 0.30590 0.86260 0.06800
C 	C 	0.15208 0.31581 0.86554 -0.09000
H 	H 	0.12250 0.29990 0.85510 0.05700
C 	C 	0.23833 0.36396 0.89572 0.02900
H 	H 	0.26780 0.38050 0.90560 0.04500
C 	C 	0.24212 0.21687 0.82967 -0.10700
H 	H 	0.26390 0.22150 0.85690 0.07000
C 	C 	0.19261 0.38425 0.90725 -0.09600
C 	C 	0.20261 0.24977 0.82249 0.04500
O 	O 	0.14885 0.55230 0.05012 -0.42500
O 	O 	0.23158 0.55154 0.04949 -0.43000
C 	C 	0.19809 0.70506 0.14610 0.03100
C 	C 	0.19080 0.56926 0.06227 0.36400
C 	C 	0.14953 0.63964 0.10734 0.02900
H 	H 	0.11820 0.62590 0.09900 0.02200
C 	C 	0.24134 0.68027 0.13020 -0.10400
H 	H 	0.27290 0.69410 0.13740 0.06700
C 	C 	0.15208 0.68419 0.13446 -0.10200
H 	H 	0.12250 0.70010 0.14490 0.05500
C 	C 	0.23833 0.63604 0.10428 0.03200
H 	H 	0.26780 0.61950 0.09440 0.03100
C 	C 	0.24212 0.78313 0.17033 -0.10700
H 	H 	0.26390 0.77850 0.14310 0.06400
C 	C 	0.19261 0.61575 0.09275 -0.11600
C 	C 	0.20261 0.75023 0.17751 0.04100
O 	O 	0.94988 0.85115 0.55230 -0.37000
O 	O 	0.95051 0.76842 0.55154 -0.38700
C 	C 	0.85390 0.80191 0.70506 0.03100
C 	C 	0.93773 0.80920 0.56926 0.35800
C 	C 	0.89266 0.85047 0.63964 0.02600
H 	H 	0.90100 0.88180 0.62590 0.05200
C 	C 	0.86980 0.75866 0.68027 -0.08800
H 	H 	0.86260 0.72710 0.69410 0.06800
C 	C 	0.86554 0.84792 0.68419 -0.08400
H 	H 	0.85510 0.87750 0.70010 0.07400
C 	C 	0.89572 0.76167 0.63604 0.02700
H 	H 	0.90560 0.73220 0.61950 0.04600
C 	C 	0.82967 0.75788 0.78313 -0.11000
H 	H 	0.85690 0.73610 0.77850 0.07600
C 	C 	0.90725 0.80739 0.61575 -0.08900
C 	C 	0.82249 0.79739 0.75023 0.05600
O 	O 	0.05012 0.85115 0.44770 -0.41300
O 	O 	0.04949 0.76842 0.44846 -0.42900
C 	C 	0.14610 0.80191 0.29494 0.03100
C 	C 	0.06227 0.80920 0.43074 0.36200
C 	C 	0.10734 0.85047 0.36036 0.02800
H 	H 	0.09900 0.88180 0.37410 0.03600
C 	C 	0.13020 0.75866 0.31973 -0.10200
H 	H 	0.13740 0.72710 0.30590 0.06600
C 	C 	0.13446 0.84792 0.31581 -0.09800
H 	H 	0.14490 0.87750 0.29990 0.06600
C 	C 	0.10428 0.76167 0.36396 0.03000
H 	H 	0.09440 0.73220 0.38050 0.03200
C 	C 	0.17033 0.75788 0.21687 -0.10600
H 	H 	0.14310 0.73610 0.22150 0.06300
C 	C 	0.09275 0.80739 0.38425 -0.11100
C 	C 	0.17751 0.79739 0.24977 0.04300
O 	O 	0.94988 0.14885 0.44770 -0.38300
O 	O 	0.95051 0.23158 0.44846 -0.38800
C 	C 	0.85390 0.19809 0.29494 0.03000
C 	C 	0.93773 0.19080 0.43074 0.36000
C 	C 	0.89266 0.14953 0.36036 0.02500
H 	H 	0.90100 0.11820 0.37410 0.03600
C 	C 	0.86980 0.24134 0.31973 -0.09100
H 	H 	0.86260 0.27290 0.30590 0.06800
C 	C 	0.86554 0.15208 0.31581 -0.09000
H 	H 	0.85510 0.12250 0.29990 0.05700
C 	C 	0.89572 0.23833 0.36396 0.02900
H 	H 	0.90560 0.26780 0.38050 0.04500
C 	C 	0.82967 0.24212 0.21687 -0.10700
H 	H 	0.85690 0.26390 0.22150 0.07000
C 	C 	0.90725 0.19261 0.38425 -0.09600
C 	C 	0.82249 0.20261 0.24977 0.04500
O 	O 	0.05012 0.14885 0.55230 -0.42500
O 	O 	0.04949 0.23158 0.55154 -0.43000
C 	C 	0.14610 0.19809 0.70506 0.03100
C 	C 	0.06227 0.19080 0.56926 0.36400
C 	C 	0.10734 0.14953 0.63964 0.02900
H 	H 	0.09900 0.11820 0.62590 0.02200
C 	C 	0.13020 0.24134 0.68027 -0.10400
H 	H 	0.13740 0.27290 0.69410 0.06700
C 	C 	0.13446 0.15208 0.68419 -0.10200
H 	H 	0.14490 0.12250 0.70010 0.05500
C 	C 	0.10428 0.23833 0.63604 0.03200
H 	H 	0.09440 0.26780 0.61950 0.03100
C 	C 	0.17033 0.24212 0.78313 -0.10700
H 	H 	0.14310 0.26390 0.77850 0.06400
C 	C 	0.09275 0.19261 0.61575 -0.11600
C 	C 	0.17751 0.20261 0.75023 0.04100
Cu	Cu	0.50000 0.00000 0.14440 0.87400
Cu	Cu	0.50000 0.00000 0.24029 0.88000
Cu	Cu	0.50000 0.00000 0.85560 0.88000
Cu	Cu	0.50000 0.00000 0.75971 0.88000
Cu	Cu	0.14440 0.50000 -0.00000 0.87400
Cu	Cu	0.24029 0.50000 -0.00000 0.88000
Cu	Cu	0.85560 0.50000 -0.00000 0.88000
Cu	Cu	0.75971 0.50000 -0.00000 0.88000
Cu	Cu	0.00000 0.14440 0.50000 0.87400
Cu	Cu	0.00000 0.24029 0.50000 0.88000
Cu	Cu	0.00000 0.85560 0.50000 0.88000
Cu	Cu	0.00000 0.75971 0.50000 0.88000
O 	O 	0.94770 0.55012 0.64885 -0.37600
O 	O 	0.94846 0.54949 0.73158 -0.38600
C 	C 	0.79494 0.64610 0.69809 0.02700
C 	C 	0.93074 0.56227 0.69080 0.35700
C 	C 	0.86036 0.60734 0.64953 0.02200
H 	H 	0.87410 0.59900 0.61820 0.04200
C 	C 	0.81973 0.63020 0.74134 -0.09000
H 	H 	0.80590 0.63740 0.77290 0.06600
C 	C 	0.81581 0.63446 0.65208 -0.08900
H 	H 	0.79990 0.64490 0.62250 0.06200
C 	C 	0.86396 0.60428 0.73833 0.02400
H 	H 	0.88050 0.59440 0.76780 0.04500
C 	C 	0.71687 0.67033 0.74212 -0.11000
H 	H 	0.72150 0.64310 0.76390 0.06900
C 	C 	0.88425 0.59275 0.69261 -0.09300
C 	C 	0.74977 0.67751 0.70261 0.04900
O 	O 	0.05230 0.44988 0.64885 -0.42000
O 	O 	0.05154 0.45051 0.73158 -0.42900
C 	C 	0.20506 0.35390 0.69809 0.03300
C 	C 	0.06926 0.43773 0.69080 0.36500
C 	C 	0.13964 0.39266 0.64953 0.03100
H 	H 	0.12590 0.40100 0.61820 0.03100
C 	C 	0.18027 0.36980 0.74134 -0.10000
H 	H 	0.19410 0.36260 0.77290 0.06800
C 	C 	0.18419 0.36554 0.65208 -0.09800
H 	H 	0.20010 0.35510 0.62250 0.06300
C 	C 	0.13604 0.39572 0.73833 0.03300
H 	H 	0.11950 0.40560 0.76780 0.03300
C 	C 	0.28313 0.32967 0.74212 -0.10700
H 	H 	0.27850 0.35690 0.76390 0.06800
C 	C 	0.11575 0.40725 0.69261 -0.11200
C 	C 	0.25023 0.32249 0.70261 0.04500
O 	O 	0.05230 0.55012 0.35115 -0.42000
O 	O 	0.05154 0.54949 0.26842 -0.43100
C 	C 	0.20506 0.64610 0.30191 0.03400
C 	C 	0.06926 0.56227 0.30920 0.36500
C 	C 	0.13964 0.60734 0.35047 0.03200
H 	H 	0.12590 0.59900 0.38180 0.03000
C 	C 	0.18027 0.63020 0.25866 -0.10200
H 	H 	0.19410 0.63740 0.22710 0.06900
C 	C 	0.18419 0.63446 0.34792 -0.09900
H 	H 	0.20010 0.64490 0.37750 0.06300
C 	C 	0.13604 0.60428 0.26167 0.03400
H 	H 	0.11950 0.59440 0.23220 0.03100
C 	C 	0.28313 0.67033 0.25788 -0.10600
H 	H 	0.27850 0.64310 0.23610 0.06700
C 	C 	0.11575 0.59275 0.30739 -0.11300
C 	C 	0.25023 0.67751 0.29739 0.04500
O 	O 	0.94770 0.44988 0.35115 -0.37700
O 	O 	0.94846 0.45051 0.26842 -0.38800
C 	C 	0.79494 0.35390 0.30191 0.02900
C 	C 	0.93074 0.43773 0.30920 0.35700
C 	C 	0.86036 0.39266 0.35047 0.02400
H 	H 	0.87410 0.40100 0.38180 0.04200
C 	C 	0.81973 0.36980 0.25866 -0.09300
H 	H 	0.80590 0.36260 0.22710 0.06700
C 	C 	0.81581 0.36554 0.34792 -0.09000
H 	H 	0.79990 0.35510 0.37750 0.06300
C 	C 	0.86396 0.39572 0.26167 0.02600
H 	H 	0.88050 0.40560 0.23220 0.04300
C 	C 	0.71687 0.32967 0.25788 -0.10600
H 	H 	0.72150 0.35690 0.23610 0.06800
C 	C 	0.88425 0.40725 0.30739 -0.09500
C 	C 	0.74977 0.32249 0.29739 0.04700
O 	O 	0.64885 0.94770 0.55012 -0.37600
O 	O 	0.73158 0.94846 0.54949 -0.38600
C 	C 	0.69809 0.79494 0.64610 0.02700
C 	C 	0.69080 0.93074 0.56227 0.35700
C 	C 	0.64953 0.86036 0.60734 0.02200
H 	H 	0.61820 0.87410 0.59900 0.04200
C 	C 	0.74134 0.81973 0.63020 -0.09000
H 	H 	0.77290 0.80590 0.63740 0.06600
C 	C 	0.65208 0.81581 0.63446 -0.08900
H 	H 	0.62250 0.79990 0.64490 0.06200
C 	C 	0.73833 0.86396 0.60428 0.02400
H 	H 	0.76780 0.88050 0.59440 0.04500
C 	C 	0.74212 0.71687 0.67033 -0.11000
H 	H 	0.76390 0.72150 0.64310 0.06900
C 	C 	0.69261 0.88425 0.59275 -0.09300
C 	C 	0.70261 0.74977 0.67751 0.04900
O 	O 	0.64885 0.05230 0.44988 -0.42000
O 	O 	0.73158 0.05154 0.45051 -0.42900
C 	C 	0.69809 0.20506 0.35390 0.03300
C 	C 	0.69080 0.06926 0.43773 0.36500
C 	C 	0.64953 0.13964 0.39266 0.03100
H 	H 	0.61820 0.12590 0.40100 0.03100
C 	C 	0.74134 0.18027 0.36980 -0.10000
H 	H 	0.77290 0.19410 0.36260 0.06800
C 	C 	0.65208 0.18419 0.36554 -0.09800
H 	H 	0.62250 0.20010 0.35510 0.06300
C 	C 	0.73833 0.13604 0.39572 0.03300
H 	H 	0.76780 0.11950 0.40560 0.03300
C 	C 	0.74212 0.28313 0.32967 -0.10700
H 	H 	0.76390 0.27850 0.35690 0.06800
C 	C 	0.69261 0.11575 0.40725 -0.11200
C 	C 	0.70261 0.25023 0.32249 0.04500
O 	O 	0.35115 0.05230 0.55012 -0.42000
O 	O 	0.26842 0.05154 0.54949 -0.43100
C 	C 	0.30191 0.20506 0.64610 0.03400
C 	C 	0.30920 0.06926 0.56227 0.36500
C 	C 	0.35047 0.13964 0.60734 0.03200
H 	H 	0.38180 0.12590 0.59900 0.03000
C 	C 	0.25866 0.18027 0.63020 -0.10200
H 	H 	0.22710 0.19410 0.63740 0.06900
C 	C 	0.34792 0.18419 0.63446 -0.09900
H 	H 	0.37750 0.20010 0.64490 0.06300
C 	C 	0.26167 0.13604 0.60428 0.03400
H 	H 	0.23220 0.11950 0.59440 0.03100
C 	C 	0.25788 0.28313 0.67033 -0.10600
H 	H 	0.23610 0.27850 0.64310 0.06700
C 	C 	0.30739 0.11575 0.59275 -0.11300
C 	C 	0.29739 0.25023 0.67751 0.04500
O 	O 	0.35115 0.94770 0.44988 -0.37700
O 	O 	0.26842 0.94846 0.45051 -0.38800
C 	C 	0.30191 0.79494 0.35390 0.02900
C 	C 	0.30920 0.93074 0.43773 0.35700
C 	C 	0.35047 0.86036 0.39266 0.02400
H 	H 	0.38180 0.87410 0.40100 0.04200
C 	C 	0.25866 0.81973 0.36980 -0.09300
H 	H 	0.22710 0.80590 0.36260 0.06700
C 	C 	0.34792 0.81581 0.36554 -0.09000
H 	H 	0.37750 0.79990 0.35510 0.06300
C 	C 	0.26167 0.86396 0.39572 0.02600
H 	H 	0.23220 0.88050 0.40560 0.04300
C 	C 	0.25788 0.71687 0.32967 -0.10600
H 	H 	0.23610 0.72150 0.35690 0.06800
C 	C 	0.30739 0.88425 0.40725 -0.09500
C 	C 	0.29739 0.74977 0.32249 0.04700
O 	O 	0.55012 0.64885 0.94770 -0.37600
O 	O 	0.54949 0.73158 0.94846 -0.38600
C 	C 	0.64610 0.69809 0.79494 0.02700
C 	C 	0.56227 0.69080 0.93074 0.35700
C 	C 	0.60734 0.64953 0.86036 0.02200
H 	H 	0.59900 0.61820 0.87410 0.04200
C 	C 	0.63020 0.74134 0.81973 -0.09000
H 	H 	0.63740 0.77290 0.80590 0.06600
C 	C 	0.63446 0.65208 0.81581 -0.08900
H 	H 	0.64490 0.62250 0.79990 0.06200
C 	C 	0.60428 0.73833 0.86396 0.02400
H 	H 	0.59440 0.76780 0.88050 0.04500
C 	C 	0.67033 0.74212 0.71687 -0.11000
H 	H 	0.64310 0.76390 0.72150 0.06900
C 	C 	0.59275 0.69261 0.88425 -0.09300
C 	C 	0.67751 0.70261 0.74977 0.04900
O 	O 	0.44988 0.64885 0.05230 -0.42000
O 	O 	0.45051 0.73158 0.05154 -0.42900
C 	C 	0.35390 0.69809 0.20506 0.03300
C 	C 	0.43773 0.69080 0.06926 0.36500
C 	C 	0.39266 0.64953 0.13964 0.03100
H 	H 	0.40100 0.61820 0.12590 0.03100
C 	C 	0.36980 0.74134 0.18027 -0.10000
H 	H 	0.36260 0.77290 0.19410 0.06800
C 	C 	0.36554 0.65208 0.18419 -0.09800
H 	H 	0.35510 0.62250 0.20010 0.06300
C 	C 	0.39572 0.73833 0.13604 0.03300
H 	H 	0.40560 0.76780 0.11950 0.03300
C 	C 	0.32967 0.74212 0.28313 -0.10700
H 	H 	0.35690 0.76390 0.27850 0.06800
C 	C 	0.40725 0.69261 0.11575 -0.11200
C 	C 	0.32249 0.70261 0.25023 0.04500
O 	O 	0.55012 0.35115 0.05230 -0.42000
O 	O 	0.54949 0.26842 0.05154 -0.43100
C 	C 	0.64610 0.30191 0.20506 0.03400
C 	C 	0.56227 0.30920 0.06926 0.36500
C 	C 	0.60734 0.35047 0.13964 0.03200
H 	H 	0.59900 0.38180 0.12590 0.03000
C 	C 	0.63020 0.25866 0.18027 -0.10200
H 	H 	0.63740 0.22710 0.19410 0.06900
C 	C 	0.63446 0.34792 0.18419 -0.09900
H 	H 	0.64490 0.37750 0.20010 0.06300
C 	C 	0.60428 0.26167 0.13604 0.03400
H 	H 	0.59440 0.23220 0.11950 0.03100
C 	C 	0.67033 0.25788 0.28313 -0.10600
H 	H 	0.64310 0.23610 0.27850 0.06700
C 	C 	0.59275 0.30739 0.11575 -0.11300
C 	C 	0.67751 0.29739 0.25023 0.04500
O 	O 	0.44988 0.35115 0.94770 -0.37700
O 	O 	0.45051 0.26842 0.94846 -0.38800
C 	C 	0.35390 0.30191 0.79494 0.02900
C 	C 	0.43773 0.30920 0.93074 0.35700
C 	C 	0.39266 0.35047 0.86036 0.02400
H 	H 	0.40100 0.38180 0.87410 0.04200
C 	C 	0.36980 0.25866 0.81973 -0.09300
H 	H 	0.36260 0.22710 0.80590 0.06700
C 	C 	0.36554 0.34792 0.81581 -0.09000
H 	H 	0.35510 0.37750 0.79990 0.06300
C 	C 	0.39572 0.26167 0.86396 0.02600
H 	H 	0.40560 0.23220 0.88050 0.04300
C 	C 	0.32967 0.25788 0.71687 -0.10600
H 	H 	0.35690 0.23610 0.72150 0.06800
C 	C 	0.40725 0.30739 0.88425 -0.09500
C 	C 	0.32249 0.29739 0.74977 0.04700
O 	O 	0.05230 0.44988 0.35115 -0.42000
O 	O 	0.05154 0.45051 0.26842 -0.43100
C 	C 	0.20506 0.35390 0.30191 0.03400
C 	C 	0.06926 0.43773 0.30920 0.36500
C 	C 	0.13964 0.39266 0.35047 0.03200
H 	H 	0.12590 0.40100 0.38180 0.03000
C 	C 	0.18027 0.36980 0.25866 -0.10200
H 	H 	0.19410 0.36260 0.22710 0.06900
C 	C 	0.18419 0.36554 0.34792 -0.09900
H 	H 	0.20010 0.35510 0.37750 0.06400
C 	C 	0.13604 0.39572 0.26167 0.03500
H 	H 	0.11950 0.40560 0.23220 0.03100
C 	C 	0.28313 0.32967 0.25788 -0.10400
H 	H 	0.27850 0.35690 0.23610 0.06700
C 	C 	0.11575 0.40725 0.30739 -0.11300
C 	C 	0.25023 0.32249 0.29739 0.04400
O 	O 	0.94770 0.55012 0.35115 -0.37700
O 	O 	0.94846 0.54949 0.26842 -0.38800
C 	C 	0.79494 0.64610 0.30191 0.02800
C 	C 	0.93074 0.56227 0.30920 0.35700
C 	C 	0.86036 0.60734 0.35047 0.02300
H 	H 	0.87410 0.59900 0.38180 0.04200
C 	C 	0.81973 0.63020 0.25866 -0.09200
H 	H 	0.80590 0.63740 0.22710 0.06700
C 	C 	0.81581 0.63446 0.34792 -0.09000
H 	H 	0.79990 0.64490 0.37750 0.06200
C 	C 	0.86396 0.60428 0.26167 0.02600
H 	H 	0.88050 0.59440 0.23220 0.04300
C 	C 	0.71687 0.67033 0.25788 -0.10800
H 	H 	0.72150 0.64310 0.23610 0.06800
C 	C 	0.88425 0.59275 0.30739 -0.09400
C 	C 	0.74977 0.67751 0.29739 0.04800
O 	O 	0.94770 0.44988 0.64885 -0.37600
O 	O 	0.94846 0.45051 0.73158 -0.38600
C 	C 	0.79494 0.35390 0.69809 0.02800
C 	C 	0.93074 0.43773 0.69080 0.35700
C 	C 	0.86036 0.39266 0.64953 0.02300
H 	H 	0.87410 0.40100 0.61820 0.04200
C 	C 	0.81973 0.36980 0.74134 -0.09100
H 	H 	0.80590 0.36260 0.77290 0.06600
C 	C 	0.81581 0.36554 0.65208 -0.08900
H 	H 	0.79990 0.35510 0.62250 0.06200
C 	C 	0.86396 0.39572 0.73833 0.02500
H 	H 	0.88050 0.40560 0.76780 0.04500
C 	C 	0.71687 0.32967 0.74212 -0.10900
H 	H 	0.72150 0.35690 0.76390 0.06900
C 	C 	0.88425 0.40725 0.69261 -0.09300
C 	C 	0.74977 0.32249 0.70261 0.04800
O 	O 	0.05230 0.55012 0.64885 -0.41900
O 	O 	0.05154 0.54949 0.73158 -0.42900
C 	C 	0.20506 0.64610 0.69809 0.03200
C 	C 	0.06926 0.56227 0.69080 0.36500
C 	C 	0.13964 0.60734 0.64953 0.03000
H 	H 	0.12590 0.59900 0.61820 0.03100
C 	C 	0.18027 0.63020 0.74134 -0.10000
H 	H 	0.19410 0.63740 0.77290 0.06800
C 	C 	0.18419 0.63446 0.65208 -0.09800
H 	H 	0.20010 0.64490 0.62250 0.06300
C 	C 	0.13604 0.60428 0.73833 0.03300
H 	H 	0.11950 0.59440 0.76780 0.03400
C 	C 	0.28313 0.67033 0.74212 -0.10800
H 	H 	0.27850 0.64310 0.76390 0.06800
C 	C 	0.11575 0.59275 0.69261 -0.11100
C 	C 	0.25023 0.67751 0.70261 0.04600
O 	O 	0.35115 0.05230 0.44988 -0.42000
O 	O 	0.26842 0.05154 0.45051 -0.43100
C 	C 	0.30191 0.20506 0.35390 0.03400
C 	C 	0.30920 0.06926 0.43773 0.36500
C 	C 	0.35047 0.13964 0.39266 0.03200
H 	H 	0.38180 0.12590 0.40100 0.03000
C 	C 	0.25866 0.18027 0.36980 -0.10200
H 	H 	0.22710 0.19410 0.36260 0.06900
C 	C 	0.34792 0.18419 0.36554 -0.09900
H 	H 	0.37750 0.20010 0.35510 0.06400
C 	C 	0.26167 0.13604 0.39572 0.03500
H 	H 	0.23220 0.11950 0.40560 0.03100
C 	C 	0.25788 0.28313 0.32967 -0.10400
H 	H 	0.23610 0.27850 0.35690 0.06700
C 	C 	0.30739 0.11575 0.40725 -0.11300
C 	C 	0.29739 0.25023 0.32249 0.04400
O 	O 	0.35115 0.94770 0.55012 -0.37700
O 	O 	0.26842 0.94846 0.54949 -0.38800
C 	C 	0.30191 0.79494 0.64610 0.02800
C 	C 	0.30920 0.93074 0.56227 0.35700
C 	C 	0.35047 0.86036 0.60734 0.02300
H 	H 	0.38180 0.87410 0.59900 0.04200
C 	C 	0.25866 0.81973 0.63020 -0.09200
H 	H 	0.22710 0.80590 0.63740 0.06700
C 	C 	0.34792 0.81581 0.63446 -0.09000
H 	H 	0.37750 0.79990 0.64490 0.06200
C 	C 	0.26167 0.86396 0.60428 0.02600
H 	H 	0.23220 0.88050 0.59440 0.04300
C 	C 	0.25788 0.71687 0.67033 -0.10800
H 	H 	0.23610 0.72150 0.64310 0.06800
C 	C 	0.30739 0.88425 0.59275 -0.09400
C 	C 	0.29739 0.74977 0.67751 0.04800
O 	O 	0.64885 0.94770 0.44988 -0.37600
O 	O 	0.73158 0.94846 0.45051 -0.38600
C 	C 	0.69809 0.79494 0.35390 0.02800
C 	C 	0.69080 0.93074 0.43773 0.35700
C 	C 	0.64953 0.86036 0.39266 0.02300
H 	H 	0.61820 0.87410 0.40100 0.04200
C 	C 	0.74134 0.81973 0.36980 -0.09100
H 	H 	0.77290 0.80590 0.36260 0.06600
C 	C 	0.65208 0.81581 0.36554 -0.08900
H 	H 	0.62250 0.79990 0.35510 0.06200
C 	C 	0.73833 0.86396 0.39572 0.02500
H 	H 	0.76780 0.88050 0.40560 0.04500
C 	C 	0.74212 0.71687 0.32967 -0.10900
H 	H 	0.76390 0.72150 0.35690 0.06900
C 	C 	0.69261 0.88425 0.40725 -0.09300
C 	C 	0.70261 0.74977 0.32249 0.04800
O 	O 	0.64885 0.05230 0.55012 -0.41900
O 	O 	0.73158 0.05154 0.54949 -0.42900
C 	C 	0.69809 0.20506 0.64610 0.03200
C 	C 	0.69080 0.06926 0.56227 0.36500
C 	C 	0.64953 0.13964 0.60734 0.03000
H 	H 	0.61820 0.12590 0.59900 0.03100
C 	C 	0.74134 0.18027 0.63020 -0.10000
H 	H 	0.77290 0.19410 0.63740 0.06800
C 	C 	0.65208 0.18419 0.63446 -0.09800
H 	H 	0.62250 0.20010 0.64490 0.06300
C 	C 	0.73833 0.13604 0.60428 0.03300
H 	H 	0.76780 0.11950 0.59440 0.03400
C 	C 	0.74212 0.28313 0.67033 -0.10800
H 	H 	0.76390 0.27850 0.64310 0.06800
C 	C 	0.69261 0.11575 0.59275 -0.11100
C 	C 	0.70261 0.25023 0.67751 0.04600
O 	O 	0.44988 0.35115 0.05230 -0.42000
O 	O 	0.45051 0.26842 0.05154 -0.43100
C 	C 	0.35390 0.30191 0.20506 0.03400
C 	C 	0.43773 0.30920 0.06926 0.36500
C 	C 	0.39266 0.35047 0.13964 0.03200
H 	H 	0.40100 0.38180 0.12590 0.03000
C 	C 	0.36980 0.25866 0.18027 -0.10200
H 	H 	0.36260 0.22710 0.19410 0.06900
C 	C 	0.36554 0.34792 0.18419 -0.09900
H 	H 	0.35510 0.37750 0.20010 0.06400
C 	C 	0.39572 0.26167 0.13604 0.03500
H 	H 	0.40560 0.23220 0.11950 0.03100
C 	C 	0.32967 0.25788 0.28313 -0.10400
H 	H 	0.35690 0.23610 0.27850 0.06700
C 	C 	0.40725 0.30739 0.11575 -0.11300
C 	C 	0.32249 0.29739 0.25023 0.04400
O 	O 	0.55012 0.35115 0.94770 -0.37700
O 	O 	0.54949 0.26842 0.94846 -0.38800
C 	C 	0.64610 0.30191 0.79494 0.02800
C 	C 	0.56227 0.30920 0.93074 0.35700
C 	C 	0.60734 0.35047 0.86036 0.02300
H 	H 	0.59900 0.38180 0.87410 0.04200
C 	C 	0.63020 0.25866 0.81973 -0.09200
H 	H 	0.63740 0.22710 0.80590 0.06700
C 	C 	0.63446 0.34792 0.81581 -0.09000
H 	H 	0.64490 0.37750 0.79990 0.06200
C 	C 	0.60428 0.26167 0.86396 0.02600
H 	H 	0.59440 0.23220 0.88050 0.04300
C 	C 	0.67033 0.25788 0.71687 -0.10800
H 	H 	0.64310 0.23610 0.72150 0.06800
C 	C 	0.59275 0.30739 0.88425 -0.09400
C 	C 	0.67751 0.29739 0.74977 0.04800
O 	O 	0.44988 0.64885 0.94770 -0.37600
O 	O 	0.45051 0.73158 0.94846 -0.38600
C 	C 	0.35390 0.69809 0.79494 0.02800
C 	C 	0.43773 0.69080 0.93074 0.35700
C 	C 	0.39266 0.64953 0.86036 0.02300
H 	H 	0.40100 0.61820 0.87410 0.04200
C 	C 	0.36980 0.74134 0.81973 -0.09100
H 	H 	0.36260 0.77290 0.80590 0.06600
C 	C 	0.36554 0.65208 0.81581 -0.08900
H 	H 	0.35510 0.62250 0.79990 0.06200
C 	C 	0.39572 0.73833 0.86396 0.02500
H 	H 	0.40560 0.76780 0.88050 0.04500
C 	C 	0.32967 0.74212 0.71687 -0.10900
H 	H 	0.35690 0.76390 0.72150 0.06900
C 	C 	0.40725 0.69261 0.88425 -0.09300
C 	C 	0.32249 0.70261 0.74977 0.04800
O 	O 	0.55012 0.64885 0.05230 -0.41900
O 	O 	0.54949 0.73158 0.05154 -0.42900
C 	C 	0.64610 0.69809 0.20506 0.03200
C 	C 	0.56227 0.69080 0.06926 0.36500
C 	C 	0.60734 0.64953 0.13964 0.03000
H 	H 	0.59900 0.61820 0.12590 0.03100
C 	C 	0.63020 0.74134 0.18027 -0.10000
H 	H 	0.63740 0.77290 0.19410 0.06800
C 	C 	0.63446 0.65208 0.18419 -0.09800
H 	H 	0.64490 0.62250 0.20010 0.06300
C 	C 	0.60428 0.73833 0.13604 0.03300
H 	H 	0.59440 0.76780 0.11950 0.03400
C 	C 	0.67033 0.74212 0.28313 -0.10800
H 	H 	0.64310 0.76390 0.27850 0.06800
C 	C 	0.59275 0.69261 0.11575 -0.11100
C 	C 	0.67751 0.70261 0.25023 0.04600
Cu	Cu	0.00000 0.50000 0.64440 0.87700
Cu	Cu	0.00000 0.50000 0.74029 0.88000
Cu	Cu	-0.00000 0.50000 0.35560 0.87700
Cu	Cu	0.00000 0.50000 0.25971 0.87900
Cu	Cu	0.64440 0.00000 0.50000 0.87700
Cu	Cu	0.74029 0.00000 0.50000 0.88000
Cu	Cu	0.35560 0.00000 0.50000 0.87700
Cu	Cu	0.25971 0.00000 0.50000 0.87900
Cu	Cu	0.50000 0.64440 -0.00000 0.87700
Cu	Cu	0.50000 0.74029 -0.00000 0.88000
Cu	Cu	0.50000 0.35560 -0.00000 0.87700
Cu	Cu	0.50000 0.25971 -0.00000 0.87900
