data_crystal

_cell_length_a 26.99000
_cell_length_b 26.99000
_cell_length_c 26.99000
_cell_angle_alpha 90.00000
_cell_angle_beta  90.00000
_cell_angle_gamma 90.00000

_symmetry_space_group_name_	'P 1'
_symmetry_space_group_name_H-M	'P 1'

loop_
_symmetry_equiv_pos_as_xyz
  x,y,z

loop_
_atom_site_label
_atom_site_type_symbol
_atom_site_fract_x
_atom_site_fract_y
_atom_site_fract_z
_atom_site_charge
O 	O 	0.44767 0.05004 0.14888 -0.42700
O 	O 	0.44838 0.04942 0.23157 -0.43200
C 	C 	0.29478 0.14593 0.19801 0.02900
C 	C 	0.43070 0.06229 0.19082 0.36400
C 	C 	0.36022 0.10730 0.14943 0.02800
H 	H 	0.37380 0.09890 0.11810 0.01900
C 	C 	0.31965 0.13005 0.24140 -0.10500
H 	H 	0.30580 0.13720 0.27300 0.06600
C 	C 	0.31578 0.13444 0.15198 -0.10500
H 	H 	0.30000 0.14500 0.12240 0.05100
C 	C 	0.36397 0.10423 0.23836 0.03100
H 	H 	0.38050 0.09440 0.26780 0.03000
C 	C 	0.21677 0.17034 0.24204 -0.10400
H 	H 	0.22140 0.14310 0.26390 0.06000
C 	C 	0.38432 0.09268 0.19248 -0.11800
C 	C 	0.24967 0.17739 0.20255 0.03600
O 	O 	0.55233 0.94996 0.14888 -0.38300
O 	O 	0.55162 0.95058 0.23157 -0.38800
C 	C 	0.70522 0.85407 0.19801 0.03000
C 	C 	0.56930 0.93771 0.19082 0.36100
C 	C 	0.63978 0.89270 0.14943 0.02700
H 	H 	0.62620 0.90110 0.11810 0.03700
C 	C 	0.68035 0.86995 0.24140 -0.09000
H 	H 	0.69420 0.86280 0.27300 0.06800
C 	C 	0.68422 0.86556 0.15198 -0.09000
H 	H 	0.70000 0.85500 0.12240 0.06000
C 	C 	0.63603 0.89577 0.23836 0.02800
H 	H 	0.61950 0.90560 0.26780 0.04500
C 	C 	0.78323 0.82966 0.24204 -0.10800
H 	H 	0.77860 0.85690 0.26390 0.07300
C 	C 	0.61568 0.90732 0.19248 -0.09600
C 	C 	0.75033 0.82261 0.20255 0.05000
O 	O 	0.55233 0.05004 0.85112 -0.41300
O 	O 	0.55162 0.04942 0.76843 -0.42900
C 	C 	0.70522 0.14593 0.80199 0.03100
C 	C 	0.56930 0.06229 0.80918 0.36300
C 	C 	0.63978 0.10730 0.85057 0.03000
H 	H 	0.62620 0.09890 0.88190 0.03700
C 	C 	0.68035 0.13005 0.75860 -0.10000
H 	H 	0.69420 0.13720 0.72700 0.06600
C 	C 	0.68422 0.13444 0.84802 -0.09800
H 	H 	0.70000 0.14500 0.87760 0.06900
C 	C 	0.63603 0.10423 0.76164 0.03000
H 	H 	0.61950 0.09440 0.73220 0.03200
C 	C 	0.78323 0.17034 0.75796 -0.10700
H 	H 	0.77860 0.14310 0.73610 0.06600
C 	C 	0.61568 0.09268 0.80752 -0.11100
C 	C 	0.75033 0.17739 0.79745 0.04700
O 	O 	0.44767 0.94996 0.85112 -0.37100
O 	O 	0.44838 0.95058 0.76843 -0.38700
C 	C 	0.29478 0.85407 0.80199 0.03000
C 	C 	0.43070 0.93771 0.80918 0.35800
C 	C 	0.36022 0.89270 0.85057 0.02600
H 	H 	0.37380 0.90110 0.88190 0.05100
C 	C 	0.31965 0.86995 0.75860 -0.08800
H 	H 	0.30580 0.86280 0.72700 0.06700
C 	C 	0.31578 0.86556 0.84802 -0.08600
H 	H 	0.30000 0.85500 0.87760 0.07100
C 	C 	0.36397 0.89577 0.76164 0.02600
H 	H 	0.38050 0.90560 0.73220 0.04600
C 	C 	0.21677 0.82966 0.75796 -0.10700
H 	H 	0.22140 0.85690 0.73610 0.07200
C 	C 	0.38432 0.90732 0.80752 -0.09000
C 	C 	0.24967 0.82261 0.79745 0.05200
O 	O 	0.14888 0.44767 0.05004 -0.42600
O 	O 	0.23157 0.44838 0.04942 -0.43100
C 	C 	0.19801 0.29478 0.14593 0.03000
C 	C 	0.19082 0.43070 0.06229 0.36500
C 	C 	0.14943 0.36022 0.10730 0.02900
H 	H 	0.11810 0.37380 0.09890 0.02000
C 	C 	0.24140 0.31965 0.13005 -0.10400
H 	H 	0.27300 0.30580 0.13720 0.06700
C 	C 	0.15198 0.31578 0.13444 -0.10400
H 	H 	0.12240 0.30000 0.14500 0.05200
C 	C 	0.23836 0.36397 0.10423 0.03200
H 	H 	0.26780 0.38050 0.09440 0.03100
C 	C 	0.24204 0.21677 0.17034 -0.10400
H 	H 	0.26390 0.22140 0.14310 0.06000
C 	C 	0.19248 0.38432 0.09268 -0.11800
C 	C 	0.20255 0.24967 0.17739 0.03600
O 	O 	0.14888 0.55233 0.94996 -0.38300
O 	O 	0.23157 0.55162 0.95058 -0.38800
C 	C 	0.19801 0.70522 0.85407 0.03000
C 	C 	0.19082 0.56930 0.93771 0.36100
C 	C 	0.14943 0.63978 0.89270 0.02700
H 	H 	0.11810 0.62620 0.90110 0.03700
C 	C 	0.24140 0.68035 0.86995 -0.09000
H 	H 	0.27300 0.69420 0.86280 0.06800
C 	C 	0.15198 0.68422 0.86556 -0.09000
H 	H 	0.12240 0.70000 0.85500 0.06000
C 	C 	0.23836 0.63603 0.89577 0.02800
H 	H 	0.26780 0.61950 0.90560 0.04500
C 	C 	0.24204 0.78323 0.82966 -0.10800
H 	H 	0.26390 0.77860 0.85690 0.07300
C 	C 	0.19248 0.61568 0.90732 -0.09600
C 	C 	0.20255 0.75033 0.82261 0.05000
O 	O 	0.85112 0.55233 0.05004 -0.41300
O 	O 	0.76843 0.55162 0.04942 -0.42900
C 	C 	0.80199 0.70522 0.14593 0.03100
C 	C 	0.80918 0.56930 0.06229 0.36300
C 	C 	0.85057 0.63978 0.10730 0.03000
H 	H 	0.88190 0.62620 0.09890 0.03700
C 	C 	0.75860 0.68035 0.13005 -0.10000
H 	H 	0.72700 0.69420 0.13720 0.06600
C 	C 	0.84802 0.68422 0.13444 -0.09800
H 	H 	0.87760 0.70000 0.14500 0.06900
C 	C 	0.76164 0.63603 0.10423 0.03000
H 	H 	0.73220 0.61950 0.09440 0.03200
C 	C 	0.75796 0.78323 0.17034 -0.10700
H 	H 	0.73610 0.77860 0.14310 0.06600
C 	C 	0.80752 0.61568 0.09268 -0.11100
C 	C 	0.79745 0.75033 0.17739 0.04700
O 	O 	0.85112 0.44767 0.94996 -0.37100
O 	O 	0.76843 0.44838 0.95058 -0.38700
C 	C 	0.80199 0.29478 0.85407 0.03000
C 	C 	0.80918 0.43070 0.93771 0.35800
C 	C 	0.85057 0.36022 0.89270 0.02600
H 	H 	0.88190 0.37380 0.90110 0.05100
C 	C 	0.75860 0.31965 0.86995 -0.08800
H 	H 	0.72700 0.30580 0.86280 0.06700
C 	C 	0.84802 0.31578 0.86556 -0.08600
H 	H 	0.87760 0.30000 0.85500 0.07100
C 	C 	0.76164 0.36397 0.89577 0.02600
H 	H 	0.73220 0.38050 0.90560 0.04600
C 	C 	0.75796 0.21677 0.82966 -0.10700
H 	H 	0.73610 0.22140 0.85690 0.07200
C 	C 	0.80752 0.38432 0.90732 -0.09000
C 	C 	0.79745 0.24967 0.82261 0.05200
O 	O 	0.05004 0.14888 0.44767 -0.42600
O 	O 	0.04942 0.23157 0.44838 -0.43100
C 	C 	0.14593 0.19801 0.29478 0.03000
C 	C 	0.06229 0.19082 0.43070 0.36500
C 	C 	0.10730 0.14943 0.36022 0.02900
H 	H 	0.09890 0.11810 0.37380 0.02000
C 	C 	0.13005 0.24140 0.31965 -0.10400
H 	H 	0.13720 0.27300 0.30580 0.06700
C 	C 	0.13444 0.15198 0.31578 -0.10400
H 	H 	0.14500 0.12240 0.30000 0.05200
C 	C 	0.10423 0.23836 0.36397 0.03200
H 	H 	0.09440 0.26780 0.38050 0.03100
C 	C 	0.17034 0.24204 0.21677 -0.10400
H 	H 	0.14310 0.26390 0.22140 0.06000
C 	C 	0.09268 0.19248 0.38432 -0.11800
C 	C 	0.17739 0.20255 0.24967 0.03600
O 	O 	0.94996 0.14888 0.55233 -0.38300
O 	O 	0.95058 0.23157 0.55162 -0.38800
C 	C 	0.85407 0.19801 0.70522 0.03000
C 	C 	0.93771 0.19082 0.56930 0.36100
C 	C 	0.89270 0.14943 0.63978 0.02700
H 	H 	0.90110 0.11810 0.62620 0.03700
C 	C 	0.86995 0.24140 0.68035 -0.09000
H 	H 	0.86280 0.27300 0.69420 0.06800
C 	C 	0.86556 0.15198 0.68422 -0.09000
H 	H 	0.85500 0.12240 0.70000 0.06000
C 	C 	0.89577 0.23836 0.63603 0.02800
H 	H 	0.90560 0.26780 0.61950 0.04500
C 	C 	0.82966 0.24204 0.78323 -0.10800
H 	H 	0.85690 0.26390 0.77860 0.07300
C 	C 	0.90732 0.19248 0.61568 -0.09600
C 	C 	0.82261 0.20255 0.75033 0.05000
O 	O 	0.05004 0.85112 0.55233 -0.41300
O 	O 	0.04942 0.76843 0.55162 -0.42900
C 	C 	0.14593 0.80199 0.70522 0.03100
C 	C 	0.06229 0.80918 0.56930 0.36300
C 	C 	0.10730 0.85057 0.63978 0.03000
H 	H 	0.09890 0.88190 0.62620 0.03700
C 	C 	0.13005 0.75860 0.68035 -0.10000
H 	H 	0.13720 0.72700 0.69420 0.06600
C 	C 	0.13444 0.84802 0.68422 -0.09800
H 	H 	0.14500 0.87760 0.70000 0.06900
C 	C 	0.10423 0.76164 0.63603 0.03000
H 	H 	0.09440 0.73220 0.61950 0.03200
C 	C 	0.17034 0.75796 0.78323 -0.10700
H 	H 	0.14310 0.73610 0.77860 0.06600
C 	C 	0.09268 0.80752 0.61568 -0.11100
C 	C 	0.17739 0.79745 0.75033 0.04700
O 	O 	0.94996 0.85112 0.44767 -0.37100
O 	O 	0.95058 0.76843 0.44838 -0.38700
C 	C 	0.85407 0.80199 0.29478 0.03000
C 	C 	0.93771 0.80918 0.43070 0.35800
C 	C 	0.89270 0.85057 0.36022 0.02600
H 	H 	0.90110 0.88190 0.37380 0.05100
C 	C 	0.86995 0.75860 0.31965 -0.08800
H 	H 	0.86280 0.72700 0.30580 0.06700
C 	C 	0.86556 0.84802 0.31578 -0.08600
H 	H 	0.85500 0.87760 0.30000 0.07100
C 	C 	0.89577 0.76164 0.36397 0.02600
H 	H 	0.90560 0.73220 0.38050 0.04600
C 	C 	0.82966 0.75796 0.21677 -0.10700
H 	H 	0.85690 0.73610 0.22140 0.07200
C 	C 	0.90732 0.80752 0.38432 -0.09000
C 	C 	0.82261 0.79745 0.24967 0.05200
O 	O 	0.55233 0.94996 0.85112 -0.37100
O 	O 	0.55162 0.95058 0.76843 -0.38700
C 	C 	0.70522 0.85407 0.80199 0.03100
C 	C 	0.56930 0.93771 0.80918 0.35900
C 	C 	0.63978 0.89270 0.85057 0.02700
H 	H 	0.62620 0.90110 0.88190 0.05200
C 	C 	0.68035 0.86995 0.75860 -0.08700
H 	H 	0.69420 0.86280 0.72700 0.06800
C 	C 	0.68422 0.86556 0.84802 -0.08500
H 	H 	0.70000 0.85500 0.87760 0.07400
C 	C 	0.63603 0.89577 0.76164 0.02700
H 	H 	0.61950 0.90560 0.73220 0.04600
C 	C 	0.78323 0.82966 0.75796 -0.10900
H 	H 	0.77860 0.85690 0.73610 0.07500
C 	C 	0.61568 0.90732 0.80752 -0.09000
C 	C 	0.75033 0.82261 0.79745 0.05600
O 	O 	0.44767 0.05004 0.85112 -0.41300
O 	O 	0.44838 0.04942 0.76843 -0.42900
C 	C 	0.29478 0.14593 0.80199 0.03100
C 	C 	0.43070 0.06229 0.80918 0.36300
C 	C 	0.36022 0.10730 0.85057 0.02900
H 	H 	0.37380 0.09890 0.88190 0.03600
C 	C 	0.31965 0.13005 0.75860 -0.10100
H 	H 	0.30580 0.13720 0.72700 0.06600
C 	C 	0.31578 0.13444 0.84802 -0.09900
H 	H 	0.30000 0.14500 0.87760 0.06600
C 	C 	0.36397 0.10423 0.76164 0.03000
H 	H 	0.38050 0.09440 0.73220 0.03200
C 	C 	0.21677 0.17034 0.75796 -0.10500
H 	H 	0.22140 0.14310 0.73610 0.06300
C 	C 	0.38432 0.09268 0.80752 -0.11200
C 	C 	0.24967 0.17739 0.79745 0.04300
O 	O 	0.44767 0.94996 0.14888 -0.38300
O 	O 	0.44838 0.95058 0.23157 -0.38800
C 	C 	0.29478 0.85407 0.19801 0.03000
C 	C 	0.43070 0.93771 0.19082 0.36100
C 	C 	0.36022 0.89270 0.14943 0.02600
H 	H 	0.37380 0.90110 0.11810 0.03500
C 	C 	0.31965 0.86995 0.24140 -0.09100
H 	H 	0.30580 0.86280 0.27300 0.06800
C 	C 	0.31578 0.86556 0.15198 -0.09100
H 	H 	0.30000 0.85500 0.12240 0.05800
C 	C 	0.36397 0.89577 0.23836 0.02800
H 	H 	0.38050 0.90560 0.26780 0.04500
C 	C 	0.21677 0.82966 0.24204 -0.10600
H 	H 	0.22140 0.85690 0.26390 0.07000
C 	C 	0.38432 0.90732 0.19248 -0.09600
C 	C 	0.24967 0.82261 0.20255 0.04500
O 	O 	0.55233 0.05004 0.14888 -0.42500
O 	O 	0.55162 0.04942 0.23157 -0.43000
C 	C 	0.70522 0.14593 0.19801 0.03100
C 	C 	0.56930 0.06229 0.19082 0.36600
C 	C 	0.63978 0.10730 0.14943 0.03000
H 	H 	0.62620 0.09890 0.11810 0.02100
C 	C 	0.68035 0.13005 0.24140 -0.10300
H 	H 	0.69420 0.13720 0.27300 0.06700
C 	C 	0.68422 0.13444 0.15198 -0.10300
H 	H 	0.70000 0.14500 0.12240 0.05500
C 	C 	0.63603 0.10423 0.23836 0.03200
H 	H 	0.61950 0.09440 0.26780 0.03100
C 	C 	0.78323 0.17034 0.24204 -0.10600
H 	H 	0.77860 0.14310 0.26390 0.06400
C 	C 	0.61568 0.09268 0.19248 -0.11700
C 	C 	0.75033 0.17739 0.20255 0.04100
O 	O 	0.85112 0.55233 0.94996 -0.37100
O 	O 	0.76843 0.55162 0.95058 -0.38700
C 	C 	0.80199 0.70522 0.85407 0.03100
C 	C 	0.80918 0.56930 0.93771 0.35900
C 	C 	0.85057 0.63978 0.89270 0.02700
H 	H 	0.88190 0.62620 0.90110 0.05200
C 	C 	0.75860 0.68035 0.86995 -0.08700
H 	H 	0.72700 0.69420 0.86280 0.06800
C 	C 	0.84802 0.68422 0.86556 -0.08500
H 	H 	0.87760 0.70000 0.85500 0.07400
C 	C 	0.76164 0.63603 0.89577 0.02700
H 	H 	0.73220 0.61950 0.90560 0.04600
C 	C 	0.75796 0.78323 0.82966 -0.10900
H 	H 	0.73610 0.77860 0.85690 0.07500
C 	C 	0.80752 0.61568 0.90732 -0.09000
C 	C 	0.79745 0.75033 0.82261 0.05600
O 	O 	0.85112 0.44767 0.05004 -0.41300
O 	O 	0.76843 0.44838 0.04942 -0.42900
C 	C 	0.80199 0.29478 0.14593 0.03100
C 	C 	0.80918 0.43070 0.06229 0.36300
C 	C 	0.85057 0.36022 0.10730 0.02900
H 	H 	0.88190 0.37380 0.09890 0.03600
C 	C 	0.75860 0.31965 0.13005 -0.10100
H 	H 	0.72700 0.30580 0.13720 0.06600
C 	C 	0.84802 0.31578 0.13444 -0.09900
H 	H 	0.87760 0.30000 0.14500 0.06600
C 	C 	0.76164 0.36397 0.10423 0.03000
H 	H 	0.73220 0.38050 0.09440 0.03200
C 	C 	0.75796 0.21677 0.17034 -0.10500
H 	H 	0.73610 0.22140 0.14310 0.06300
C 	C 	0.80752 0.38432 0.09268 -0.11200
C 	C 	0.79745 0.24967 0.17739 0.04300
O 	O 	0.14888 0.44767 0.94996 -0.38300
O 	O 	0.23157 0.44838 0.95058 -0.38800
C 	C 	0.19801 0.29478 0.85407 0.03000
C 	C 	0.19082 0.43070 0.93771 0.36100
C 	C 	0.14943 0.36022 0.89270 0.02600
H 	H 	0.11810 0.37380 0.90110 0.03500
C 	C 	0.24140 0.31965 0.86995 -0.09100
H 	H 	0.27300 0.30580 0.86280 0.06800
C 	C 	0.15198 0.31578 0.86556 -0.09100
H 	H 	0.12240 0.30000 0.85500 0.05800
C 	C 	0.23836 0.36397 0.89577 0.02800
H 	H 	0.26780 0.38050 0.90560 0.04500
C 	C 	0.24204 0.21677 0.82966 -0.10600
H 	H 	0.26390 0.22140 0.85690 0.07000
C 	C 	0.19248 0.38432 0.90732 -0.09600
C 	C 	0.20255 0.24967 0.82261 0.04500
O 	O 	0.14888 0.55233 0.05004 -0.42500
O 	O 	0.23157 0.55162 0.04942 -0.43000
C 	C 	0.19801 0.70522 0.14593 0.03100
C 	C 	0.19082 0.56930 0.06229 0.36600
C 	C 	0.14943 0.63978 0.10730 0.03000
H 	H 	0.11810 0.62620 0.09890 0.02100
C 	C 	0.24140 0.68035 0.13005 -0.10300
H 	H 	0.27300 0.69420 0.13720 0.06700
C 	C 	0.15198 0.68422 0.13444 -0.10300
H 	H 	0.12240 0.70000 0.14500 0.05500
C 	C 	0.23836 0.63603 0.10423 0.03200
H 	H 	0.26780 0.61950 0.09440 0.03100
C 	C 	0.24204 0.78323 0.17034 -0.10600
H 	H 	0.26390 0.77860 0.14310 0.06400
C 	C 	0.19248 0.61568 0.09268 -0.11700
C 	C 	0.20255 0.75033 0.17739 0.04100
O 	O 	0.94996 0.85112 0.55233 -0.37100
O 	O 	0.95058 0.76843 0.55162 -0.38700
C 	C 	0.85407 0.80199 0.70522 0.03100
C 	C 	0.93771 0.80918 0.56930 0.35900
C 	C 	0.89270 0.85057 0.63978 0.02700
H 	H 	0.90110 0.88190 0.62620 0.05200
C 	C 	0.86995 0.75860 0.68035 -0.08700
H 	H 	0.86280 0.72700 0.69420 0.06800
C 	C 	0.86556 0.84802 0.68422 -0.08500
H 	H 	0.85500 0.87760 0.70000 0.07400
C 	C 	0.89577 0.76164 0.63603 0.02700
H 	H 	0.90560 0.73220 0.61950 0.04600
C 	C 	0.82966 0.75796 0.78323 -0.10900
H 	H 	0.85690 0.73610 0.77860 0.07500
C 	C 	0.90732 0.80752 0.61568 -0.09000
C 	C 	0.82261 0.79745 0.75033 0.05600
O 	O 	0.05004 0.85112 0.44767 -0.41300
O 	O 	0.04942 0.76843 0.44838 -0.42900
C 	C 	0.14593 0.80199 0.29478 0.03100
C 	C 	0.06229 0.80918 0.43070 0.36300
C 	C 	0.10730 0.85057 0.36022 0.02900
H 	H 	0.09890 0.88190 0.37380 0.03600
C 	C 	0.13005 0.75860 0.31965 -0.10100
H 	H 	0.13720 0.72700 0.30580 0.06600
C 	C 	0.13444 0.84802 0.31578 -0.09900
H 	H 	0.14500 0.87760 0.30000 0.06600
C 	C 	0.10423 0.76164 0.36397 0.03000
H 	H 	0.09440 0.73220 0.38050 0.03200
C 	C 	0.17034 0.75796 0.21677 -0.10500
H 	H 	0.14310 0.73610 0.22140 0.06300
C 	C 	0.09268 0.80752 0.38432 -0.11200
C 	C 	0.17739 0.79745 0.24967 0.04300
O 	O 	0.94996 0.14888 0.44767 -0.38300
O 	O 	0.95058 0.23157 0.44838 -0.38800
C 	C 	0.85407 0.19801 0.29478 0.03000
C 	C 	0.93771 0.19082 0.43070 0.36100
C 	C 	0.89270 0.14943 0.36022 0.02600
H 	H 	0.90110 0.11810 0.37380 0.03500
C 	C 	0.86995 0.24140 0.31965 -0.09100
H 	H 	0.86280 0.27300 0.30580 0.06800
C 	C 	0.86556 0.15198 0.31578 -0.09100
H 	H 	0.85500 0.12240 0.30000 0.05800
C 	C 	0.89577 0.23836 0.36397 0.02800
H 	H 	0.90560 0.26780 0.38050 0.04500
C 	C 	0.82966 0.24204 0.21677 -0.10600
H 	H 	0.85690 0.26390 0.22140 0.07000
C 	C 	0.90732 0.19248 0.38432 -0.09600
C 	C 	0.82261 0.20255 0.24967 0.04500
O 	O 	0.05004 0.14888 0.55233 -0.42500
O 	O 	0.04942 0.23157 0.55162 -0.43000
C 	C 	0.14593 0.19801 0.70522 0.03100
C 	C 	0.06229 0.19082 0.56930 0.36600
C 	C 	0.10730 0.14943 0.63978 0.03000
H 	H 	0.09890 0.11810 0.62620 0.02100
C 	C 	0.13005 0.24140 0.68035 -0.10300
H 	H 	0.13720 0.27300 0.69420 0.06700
C 	C 	0.13444 0.15198 0.68422 -0.10300
H 	H 	0.14500 0.12240 0.70000 0.05500
C 	C 	0.10423 0.23836 0.63603 0.03200
H 	H 	0.09440 0.26780 0.61950 0.03100
C 	C 	0.17034 0.24204 0.78323 -0.10600
H 	H 	0.14310 0.26390 0.77860 0.06400
C 	C 	0.09268 0.19248 0.61568 -0.11700
C 	C 	0.17739 0.20255 0.75033 0.04100
Cu	Cu	0.50000 -0.00000 0.14438 0.87400
Cu	Cu	0.50000 -0.00000 0.24026 0.88000
Cu	Cu	0.50000 0.00000 0.85562 0.88000
Cu	Cu	0.50000 0.00000 0.75974 0.88000
Cu	Cu	0.14438 0.50000 -0.00000 0.87400
Cu	Cu	0.24026 0.50000 -0.00000 0.88000
Cu	Cu	0.85562 0.50000 -0.00000 0.88000
Cu	Cu	0.75974 0.50000 -0.00000 0.88000
Cu	Cu	-0.00000 0.14438 0.50000 0.87400
Cu	Cu	-0.00000 0.24026 0.50000 0.88000
Cu	Cu	0.00000 0.85562 0.50000 0.88000
Cu	Cu	-0.00000 0.75974 0.50000 0.88000
O 	O 	0.94767 0.55004 0.64888 -0.37600
O 	O 	0.94838 0.54942 0.73157 -0.38600
C 	C 	0.79478 0.64593 0.69801 0.02700
C 	C 	0.93070 0.56229 0.69082 0.35800
C 	C 	0.86022 0.60730 0.64943 0.02300
H 	H 	0.87380 0.59890 0.61810 0.04200
C 	C 	0.81965 0.63005 0.74140 -0.09000
H 	H 	0.80580 0.63720 0.77300 0.06500
C 	C 	0.81578 0.63444 0.65198 -0.08900
H 	H 	0.80000 0.64500 0.62240 0.06200
C 	C 	0.86397 0.60423 0.73836 0.02400
H 	H 	0.88050 0.59440 0.76780 0.04500
C 	C 	0.71677 0.67034 0.74204 -0.10900
H 	H 	0.72140 0.64310 0.76390 0.06900
C 	C 	0.88432 0.59268 0.69248 -0.09300
C 	C 	0.74967 0.67739 0.70255 0.04900
O 	O 	0.05233 0.44996 0.64888 -0.42000
O 	O 	0.05162 0.45058 0.73157 -0.42900
C 	C 	0.20522 0.35407 0.69801 0.03300
C 	C 	0.06930 0.43771 0.69082 0.36600
C 	C 	0.13978 0.39270 0.64943 0.03100
H 	H 	0.12620 0.40110 0.61810 0.03000
C 	C 	0.18035 0.36995 0.74140 -0.10000
H 	H 	0.19420 0.36280 0.77300 0.06800
C 	C 	0.18422 0.36556 0.65198 -0.09800
H 	H 	0.20000 0.35500 0.62240 0.06300
C 	C 	0.13603 0.39577 0.73836 0.03300
H 	H 	0.11950 0.40560 0.76780 0.03300
C 	C 	0.28323 0.32966 0.74204 -0.10600
H 	H 	0.27860 0.35690 0.76390 0.06800
C 	C 	0.11568 0.40732 0.69248 -0.11200
C 	C 	0.25033 0.32261 0.70255 0.04500
O 	O 	0.05233 0.55004 0.35112 -0.42000
O 	O 	0.05162 0.54942 0.26843 -0.43100
C 	C 	0.20522 0.64593 0.30199 0.03400
C 	C 	0.06930 0.56229 0.30918 0.36600
C 	C 	0.13978 0.60730 0.35057 0.03200
H 	H 	0.12620 0.59890 0.38190 0.03000
C 	C 	0.18035 0.63005 0.25860 -0.10100
H 	H 	0.19420 0.63720 0.22700 0.06900
C 	C 	0.18422 0.63444 0.34802 -0.09900
H 	H 	0.20000 0.64500 0.37760 0.06400
C 	C 	0.13603 0.60423 0.26164 0.03400
H 	H 	0.11950 0.59440 0.23220 0.03200
C 	C 	0.28323 0.67034 0.25796 -0.10500
H 	H 	0.27860 0.64310 0.23610 0.06700
C 	C 	0.11568 0.59268 0.30752 -0.11400
C 	C 	0.25033 0.67739 0.29745 0.04500
O 	O 	0.94767 0.44996 0.35112 -0.37700
O 	O 	0.94838 0.45058 0.26843 -0.38900
C 	C 	0.79478 0.35407 0.30199 0.02900
C 	C 	0.93070 0.43771 0.30918 0.35800
C 	C 	0.86022 0.39270 0.35057 0.02400
H 	H 	0.87380 0.40110 0.38190 0.04100
C 	C 	0.81965 0.36995 0.25860 -0.09200
H 	H 	0.80580 0.36280 0.22700 0.06700
C 	C 	0.81578 0.36556 0.34802 -0.09100
H 	H 	0.80000 0.35500 0.37760 0.06300
C 	C 	0.86397 0.39577 0.26164 0.02600
H 	H 	0.88050 0.40560 0.23220 0.04300
C 	C 	0.71677 0.32966 0.25796 -0.10600
H 	H 	0.72140 0.35690 0.23610 0.06700
C 	C 	0.88432 0.40732 0.30752 -0.09600
C 	C 	0.74967 0.32261 0.29745 0.04600
O 	O 	0.64888 0.94767 0.55004 -0.37600
O 	O 	0.73157 0.94838 0.54942 -0.38600
C 	C 	0.69801 0.79478 0.64593 0.02700
C 	C 	0.69082 0.93070 0.56229 0.35800
C 	C 	0.64943 0.86022 0.60730 0.02300
H 	H 	0.61810 0.87380 0.59890 0.04200
C 	C 	0.74140 0.81965 0.63005 -0.09000
H 	H 	0.77300 0.80580 0.63720 0.06500
C 	C 	0.65198 0.81578 0.63444 -0.08900
H 	H 	0.62240 0.80000 0.64500 0.06200
C 	C 	0.73836 0.86397 0.60423 0.02400
H 	H 	0.76780 0.88050 0.59440 0.04500
C 	C 	0.74204 0.71677 0.67034 -0.10900
H 	H 	0.76390 0.72140 0.64310 0.06900
C 	C 	0.69248 0.88432 0.59268 -0.09300
C 	C 	0.70255 0.74967 0.67739 0.04900
O 	O 	0.64888 0.05233 0.44996 -0.42000
O 	O 	0.73157 0.05162 0.45058 -0.42900
C 	C 	0.69801 0.20522 0.35407 0.03300
C 	C 	0.69082 0.06930 0.43771 0.36600
C 	C 	0.64943 0.13978 0.39270 0.03100
H 	H 	0.61810 0.12620 0.40110 0.03000
C 	C 	0.74140 0.18035 0.36995 -0.10000
H 	H 	0.77300 0.19420 0.36280 0.06800
C 	C 	0.65198 0.18422 0.36556 -0.09800
H 	H 	0.62240 0.20000 0.35500 0.06300
C 	C 	0.73836 0.13603 0.39577 0.03300
H 	H 	0.76780 0.11950 0.40560 0.03300
C 	C 	0.74204 0.28323 0.32966 -0.10600
H 	H 	0.76390 0.27860 0.35690 0.06800
C 	C 	0.69248 0.11568 0.40732 -0.11200
C 	C 	0.70255 0.25033 0.32261 0.04500
O 	O 	0.35112 0.05233 0.55004 -0.42000
O 	O 	0.26843 0.05162 0.54942 -0.43100
C 	C 	0.30199 0.20522 0.64593 0.03400
C 	C 	0.30918 0.06930 0.56229 0.36600
C 	C 	0.35057 0.13978 0.60730 0.03200
H 	H 	0.38190 0.12620 0.59890 0.03000
C 	C 	0.25860 0.18035 0.63005 -0.10100
H 	H 	0.22700 0.19420 0.63720 0.06900
C 	C 	0.34802 0.18422 0.63444 -0.09900
H 	H 	0.37760 0.20000 0.64500 0.06400
C 	C 	0.26164 0.13603 0.60423 0.03400
H 	H 	0.23220 0.11950 0.59440 0.03200
C 	C 	0.25796 0.28323 0.67034 -0.10500
H 	H 	0.23610 0.27860 0.64310 0.06700
C 	C 	0.30752 0.11568 0.59268 -0.11400
C 	C 	0.29745 0.25033 0.67739 0.04500
O 	O 	0.35112 0.94767 0.44996 -0.37700
O 	O 	0.26843 0.94838 0.45058 -0.38900
C 	C 	0.30199 0.79478 0.35407 0.02900
C 	C 	0.30918 0.93070 0.43771 0.35800
C 	C 	0.35057 0.86022 0.39270 0.02400
H 	H 	0.38190 0.87380 0.40110 0.04100
C 	C 	0.25860 0.81965 0.36995 -0.09200
H 	H 	0.22700 0.80580 0.36280 0.06700
C 	C 	0.34802 0.81578 0.36556 -0.09100
H 	H 	0.37760 0.80000 0.35500 0.06300
C 	C 	0.26164 0.86397 0.39577 0.02600
H 	H 	0.23220 0.88050 0.40560 0.04300
C 	C 	0.25796 0.71677 0.32966 -0.10600
H 	H 	0.23610 0.72140 0.35690 0.06700
C 	C 	0.30752 0.88432 0.40732 -0.09600
C 	C 	0.29745 0.74967 0.32261 0.04600
O 	O 	0.55004 0.64888 0.94767 -0.37600
O 	O 	0.54942 0.73157 0.94838 -0.38600
C 	C 	0.64593 0.69801 0.79478 0.02700
C 	C 	0.56229 0.69082 0.93070 0.35800
C 	C 	0.60730 0.64943 0.86022 0.02300
H 	H 	0.59890 0.61810 0.87380 0.04200
C 	C 	0.63005 0.74140 0.81965 -0.09000
H 	H 	0.63720 0.77300 0.80580 0.06500
C 	C 	0.63444 0.65198 0.81578 -0.08900
H 	H 	0.64500 0.62240 0.80000 0.06200
C 	C 	0.60423 0.73836 0.86397 0.02400
H 	H 	0.59440 0.76780 0.88050 0.04500
C 	C 	0.67034 0.74204 0.71677 -0.10900
H 	H 	0.64310 0.76390 0.72140 0.06900
C 	C 	0.59268 0.69248 0.88432 -0.09300
C 	C 	0.67739 0.70255 0.74967 0.04900
O 	O 	0.44996 0.64888 0.05233 -0.42000
O 	O 	0.45058 0.73157 0.05162 -0.42900
C 	C 	0.35407 0.69801 0.20522 0.03300
C 	C 	0.43771 0.69082 0.06930 0.36600
C 	C 	0.39270 0.64943 0.13978 0.03100
H 	H 	0.40110 0.61810 0.12620 0.03000
C 	C 	0.36995 0.74140 0.18035 -0.10000
H 	H 	0.36280 0.77300 0.19420 0.06800
C 	C 	0.36556 0.65198 0.18422 -0.09800
H 	H 	0.35500 0.62240 0.20000 0.06300
C 	C 	0.39577 0.73836 0.13603 0.03300
H 	H 	0.40560 0.76780 0.11950 0.03300
C 	C 	0.32966 0.74204 0.28323 -0.10600
H 	H 	0.35690 0.76390 0.27860 0.06800
C 	C 	0.40732 0.69248 0.11568 -0.11200
C 	C 	0.32261 0.70255 0.25033 0.04500
O 	O 	0.55004 0.35112 0.05233 -0.42000
O 	O 	0.54942 0.26843 0.05162 -0.43100
C 	C 	0.64593 0.30199 0.20522 0.03400
C 	C 	0.56229 0.30918 0.06930 0.36600
C 	C 	0.60730 0.35057 0.13978 0.03200
H 	H 	0.59890 0.38190 0.12620 0.03000
C 	C 	0.63005 0.25860 0.18035 -0.10100
H 	H 	0.63720 0.22700 0.19420 0.06900
C 	C 	0.63444 0.34802 0.18422 -0.09900
H 	H 	0.64500 0.37760 0.20000 0.06400
C 	C 	0.60423 0.26164 0.13603 0.03400
H 	H 	0.59440 0.23220 0.11950 0.03200
C 	C 	0.67034 0.25796 0.28323 -0.10500
H 	H 	0.64310 0.23610 0.27860 0.06700
C 	C 	0.59268 0.30752 0.11568 -0.11400
C 	C 	0.67739 0.29745 0.25033 0.04500
O 	O 	0.44996 0.35112 0.94767 -0.37700
O 	O 	0.45058 0.26843 0.94838 -0.38900
C 	C 	0.35407 0.30199 0.79478 0.02900
C 	C 	0.43771 0.30918 0.93070 0.35800
C 	C 	0.39270 0.35057 0.86022 0.02400
H 	H 	0.40110 0.38190 0.87380 0.04100
C 	C 	0.36995 0.25860 0.81965 -0.09200
H 	H 	0.36280 0.22700 0.80580 0.06700
C 	C 	0.36556 0.34802 0.81578 -0.09100
H 	H 	0.35500 0.37760 0.80000 0.06300
C 	C 	0.39577 0.26164 0.86397 0.02600
H 	H 	0.40560 0.23220 0.88050 0.04300
C 	C 	0.32966 0.25796 0.71677 -0.10600
H 	H 	0.35690 0.23610 0.72140 0.06700
C 	C 	0.40732 0.30752 0.88432 -0.09600
C 	C 	0.32261 0.29745 0.74967 0.04600
O 	O 	0.05233 0.44996 0.35112 -0.42000
O 	O 	0.05162 0.45058 0.26843 -0.43200
C 	C 	0.20522 0.35407 0.30199 0.03400
C 	C 	0.06930 0.43771 0.30918 0.36600
C 	C 	0.13978 0.39270 0.35057 0.03300
H 	H 	0.12620 0.40110 0.38190 0.03000
C 	C 	0.18035 0.36995 0.25860 -0.10100
H 	H 	0.19420 0.36280 0.22700 0.06900
C 	C 	0.18422 0.36556 0.34802 -0.09900
H 	H 	0.20000 0.35500 0.37760 0.06400
C 	C 	0.13603 0.39577 0.26164 0.03400
H 	H 	0.11950 0.40560 0.23220 0.03100
C 	C 	0.28323 0.32966 0.25796 -0.10400
H 	H 	0.27860 0.35690 0.23610 0.06700
C 	C 	0.11568 0.40732 0.30752 -0.11400
C 	C 	0.25033 0.32261 0.29745 0.04400
O 	O 	0.94767 0.55004 0.35112 -0.37700
O 	O 	0.94838 0.54942 0.26843 -0.38800
C 	C 	0.79478 0.64593 0.30199 0.02800
C 	C 	0.93070 0.56229 0.30918 0.35800
C 	C 	0.86022 0.60730 0.35057 0.02400
H 	H 	0.87380 0.59890 0.38190 0.04200
C 	C 	0.81965 0.63005 0.25860 -0.09100
H 	H 	0.80580 0.63720 0.22700 0.06600
C 	C 	0.81578 0.63444 0.34802 -0.09000
H 	H 	0.80000 0.64500 0.37760 0.06300
C 	C 	0.86397 0.60423 0.26164 0.02500
H 	H 	0.88050 0.59440 0.23220 0.04300
C 	C 	0.71677 0.67034 0.25796 -0.10700
H 	H 	0.72140 0.64310 0.23610 0.06800
C 	C 	0.88432 0.59268 0.30752 -0.09500
C 	C 	0.74967 0.67739 0.29745 0.04700
O 	O 	0.94767 0.44996 0.64888 -0.37700
O 	O 	0.94838 0.45058 0.73157 -0.38600
C 	C 	0.79478 0.35407 0.69801 0.02700
C 	C 	0.93070 0.43771 0.69082 0.35800
C 	C 	0.86022 0.39270 0.64943 0.02300
H 	H 	0.87380 0.40110 0.61810 0.04200
C 	C 	0.81965 0.36995 0.74140 -0.09000
H 	H 	0.80580 0.36280 0.77300 0.06600
C 	C 	0.81578 0.36556 0.65198 -0.08900
H 	H 	0.80000 0.35500 0.62240 0.06200
C 	C 	0.86397 0.39577 0.73836 0.02400
H 	H 	0.88050 0.40560 0.76780 0.04500
C 	C 	0.71677 0.32966 0.74204 -0.10800
H 	H 	0.72140 0.35690 0.76390 0.06800
C 	C 	0.88432 0.40732 0.69248 -0.09400
C 	C 	0.74967 0.32261 0.70255 0.04800
O 	O 	0.05233 0.55004 0.64888 -0.42000
O 	O 	0.05162 0.54942 0.73157 -0.42900
C 	C 	0.20522 0.64593 0.69801 0.03200
C 	C 	0.06930 0.56229 0.69082 0.36600
C 	C 	0.13978 0.60730 0.64943 0.03100
H 	H 	0.12620 0.59890 0.61810 0.03000
C 	C 	0.18035 0.63005 0.74140 -0.09900
H 	H 	0.19420 0.63720 0.77300 0.06700
C 	C 	0.18422 0.63444 0.65198 -0.09800
H 	H 	0.20000 0.64500 0.62240 0.06300
C 	C 	0.13603 0.60423 0.73836 0.03200
H 	H 	0.11950 0.59440 0.76780 0.03400
C 	C 	0.28323 0.67034 0.74204 -0.10700
H 	H 	0.27860 0.64310 0.76390 0.06800
C 	C 	0.11568 0.59268 0.69248 -0.11200
C 	C 	0.25033 0.67739 0.70255 0.04600
O 	O 	0.35112 0.05233 0.44996 -0.42000
O 	O 	0.26843 0.05162 0.45058 -0.43200
C 	C 	0.30199 0.20522 0.35407 0.03400
C 	C 	0.30918 0.06930 0.43771 0.36600
C 	C 	0.35057 0.13978 0.39270 0.03300
H 	H 	0.38190 0.12620 0.40110 0.03000
C 	C 	0.25860 0.18035 0.36995 -0.10100
H 	H 	0.22700 0.19420 0.36280 0.06900
C 	C 	0.34802 0.18422 0.36556 -0.09900
H 	H 	0.37760 0.20000 0.35500 0.06400
C 	C 	0.26164 0.13603 0.39577 0.03400
H 	H 	0.23220 0.11950 0.40560 0.03100
C 	C 	0.25796 0.28323 0.32966 -0.10400
H 	H 	0.23610 0.27860 0.35690 0.06700
C 	C 	0.30752 0.11568 0.40732 -0.11400
C 	C 	0.29745 0.25033 0.32261 0.04400
O 	O 	0.35112 0.94767 0.55004 -0.37700
O 	O 	0.26843 0.94838 0.54942 -0.38800
C 	C 	0.30199 0.79478 0.64593 0.02800
C 	C 	0.30918 0.93070 0.56229 0.35800
C 	C 	0.35057 0.86022 0.60730 0.02400
H 	H 	0.38190 0.87380 0.59890 0.04200
C 	C 	0.25860 0.81965 0.63005 -0.09100
H 	H 	0.22700 0.80580 0.63720 0.06600
C 	C 	0.34802 0.81578 0.63444 -0.09000
H 	H 	0.37760 0.80000 0.64500 0.06300
C 	C 	0.26164 0.86397 0.60423 0.02500
H 	H 	0.23220 0.88050 0.59440 0.04300
C 	C 	0.25796 0.71677 0.67034 -0.10700
H 	H 	0.23610 0.72140 0.64310 0.06800
C 	C 	0.30752 0.88432 0.59268 -0.09500
C 	C 	0.29745 0.74967 0.67739 0.04700
O 	O 	0.64888 0.94767 0.44996 -0.37700
O 	O 	0.73157 0.94838 0.45058 -0.38600
C 	C 	0.69801 0.79478 0.35407 0.02700
C 	C 	0.69082 0.93070 0.43771 0.35800
C 	C 	0.64943 0.86022 0.39270 0.02300
H 	H 	0.61810 0.87380 0.40110 0.04200
C 	C 	0.74140 0.81965 0.36995 -0.09000
H 	H 	0.77300 0.80580 0.36280 0.06600
C 	C 	0.65198 0.81578 0.36556 -0.08900
H 	H 	0.62240 0.80000 0.35500 0.06200
C 	C 	0.73836 0.86397 0.39577 0.02400
H 	H 	0.76780 0.88050 0.40560 0.04500
C 	C 	0.74204 0.71677 0.32966 -0.10800
H 	H 	0.76390 0.72140 0.35690 0.06800
C 	C 	0.69248 0.88432 0.40732 -0.09400
C 	C 	0.70255 0.74967 0.32261 0.04800
O 	O 	0.64888 0.05233 0.55004 -0.42000
O 	O 	0.73157 0.05162 0.54942 -0.42900
C 	C 	0.69801 0.20522 0.64593 0.03200
C 	C 	0.69082 0.06930 0.56229 0.36600
C 	C 	0.64943 0.13978 0.60730 0.03100
H 	H 	0.61810 0.12620 0.59890 0.03000
C 	C 	0.74140 0.18035 0.63005 -0.09900
H 	H 	0.77300 0.19420 0.63720 0.06700
C 	C 	0.65198 0.18422 0.63444 -0.09800
H 	H 	0.62240 0.20000 0.64500 0.06300
C 	C 	0.73836 0.13603 0.60423 0.03200
H 	H 	0.76780 0.11950 0.59440 0.03400
C 	C 	0.74204 0.28323 0.67034 -0.10700
H 	H 	0.76390 0.27860 0.64310 0.06800
C 	C 	0.69248 0.11568 0.59268 -0.11200
C 	C 	0.70255 0.25033 0.67739 0.04600
O 	O 	0.44996 0.35112 0.05233 -0.42000
O 	O 	0.45058 0.26843 0.05162 -0.43200
C 	C 	0.35407 0.30199 0.20522 0.03400
C 	C 	0.43771 0.30918 0.06930 0.36600
C 	C 	0.39270 0.35057 0.13978 0.03300
H 	H 	0.40110 0.38190 0.12620 0.03000
C 	C 	0.36995 0.25860 0.18035 -0.10100
H 	H 	0.36280 0.22700 0.19420 0.06900
C 	C 	0.36556 0.34802 0.18422 -0.09900
H 	H 	0.35500 0.37760 0.20000 0.06400
C 	C 	0.39577 0.26164 0.13603 0.03400
H 	H 	0.40560 0.23220 0.11950 0.03100
C 	C 	0.32966 0.25796 0.28323 -0.10400
H 	H 	0.35690 0.23610 0.27860 0.06700
C 	C 	0.40732 0.30752 0.11568 -0.11400
C 	C 	0.32261 0.29745 0.25033 0.04400
O 	O 	0.55004 0.35112 0.94767 -0.37700
O 	O 	0.54942 0.26843 0.94838 -0.38800
C 	C 	0.64593 0.30199 0.79478 0.02800
C 	C 	0.56229 0.30918 0.93070 0.35800
C 	C 	0.60730 0.35057 0.86022 0.02400
H 	H 	0.59890 0.38190 0.87380 0.04200
C 	C 	0.63005 0.25860 0.81965 -0.09100
H 	H 	0.63720 0.22700 0.80580 0.06600
C 	C 	0.63444 0.34802 0.81578 -0.09000
H 	H 	0.64500 0.37760 0.80000 0.06300
C 	C 	0.60423 0.26164 0.86397 0.02500
H 	H 	0.59440 0.23220 0.88050 0.04300
C 	C 	0.67034 0.25796 0.71677 -0.10700
H 	H 	0.64310 0.23610 0.72140 0.06800
C 	C 	0.59268 0.30752 0.88432 -0.09500
C 	C 	0.67739 0.29745 0.74967 0.04700
O 	O 	0.44996 0.64888 0.94767 -0.37700
O 	O 	0.45058 0.73157 0.94838 -0.38600
C 	C 	0.35407 0.69801 0.79478 0.02700
C 	C 	0.43771 0.69082 0.93070 0.35800
C 	C 	0.39270 0.64943 0.86022 0.02300
H 	H 	0.40110 0.61810 0.87380 0.04200
C 	C 	0.36995 0.74140 0.81965 -0.09000
H 	H 	0.36280 0.77300 0.80580 0.06600
C 	C 	0.36556 0.65198 0.81578 -0.08900
H 	H 	0.35500 0.62240 0.80000 0.06200
C 	C 	0.39577 0.73836 0.86397 0.02400
H 	H 	0.40560 0.76780 0.88050 0.04500
C 	C 	0.32966 0.74204 0.71677 -0.10800
H 	H 	0.35690 0.76390 0.72140 0.06800
C 	C 	0.40732 0.69248 0.88432 -0.09400
C 	C 	0.32261 0.70255 0.74967 0.04800
O 	O 	0.55004 0.64888 0.05233 -0.42000
O 	O 	0.54942 0.73157 0.05162 -0.42900
C 	C 	0.64593 0.69801 0.20522 0.03200
C 	C 	0.56229 0.69082 0.06930 0.36600
C 	C 	0.60730 0.64943 0.13978 0.03100
H 	H 	0.59890 0.61810 0.12620 0.03000
C 	C 	0.63005 0.74140 0.18035 -0.09900
H 	H 	0.63720 0.77300 0.19420 0.06700
C 	C 	0.63444 0.65198 0.18422 -0.09800
H 	H 	0.64500 0.62240 0.20000 0.06300
C 	C 	0.60423 0.73836 0.13603 0.03200
H 	H 	0.59440 0.76780 0.11950 0.03400
C 	C 	0.67034 0.74204 0.28323 -0.10700
H 	H 	0.64310 0.76390 0.27860 0.06800
C 	C 	0.59268 0.69248 0.11568 -0.11200
C 	C 	0.67739 0.70255 0.25033 0.04600
Cu	Cu	0.00000 0.50000 0.64438 0.87700
Cu	Cu	-0.00000 0.50000 0.74026 0.88100
Cu	Cu	0.00000 0.50000 0.35562 0.87700
Cu	Cu	-0.00000 0.50000 0.25974 0.87900
Cu	Cu	0.64438 0.00000 0.50000 0.87700
Cu	Cu	0.74026 0.00000 0.50000 0.88100
Cu	Cu	0.35562 0.00000 0.50000 0.87700
Cu	Cu	0.25974 0.00000 0.50000 0.87900
Cu	Cu	0.50000 0.64438 -0.00000 0.87700
Cu	Cu	0.50000 0.74026 -0.00000 0.88100
Cu	Cu	0.50000 0.35562 -0.00000 0.87700
Cu	Cu	0.50000 0.25974 -0.00000 0.87900
