data_crystal

_cell_length_a 26.98100
_cell_length_b 26.98100
_cell_length_c 26.98100
_cell_angle_alpha 90.00000
_cell_angle_beta  90.00000
_cell_angle_gamma 90.00000

_symmetry_space_group_name_	'P 1'
_symmetry_space_group_name_H-M	'P 1'

loop_
_symmetry_equiv_pos_as_xyz
  x,y,z

loop_
_atom_site_label
_atom_site_type_symbol
_atom_site_fract_x
_atom_site_fract_y
_atom_site_fract_z
_atom_site_charge
O 	O 	0.44758 0.05017 0.14885 -0.42600
O 	O 	0.44845 0.04924 0.23140 -0.43100
C 	C 	0.29470 0.14573 0.19784 0.03500
C 	C 	0.43056 0.06214 0.19069 0.37100
C 	C 	0.36014 0.10708 0.14940 0.03500
H 	H 	0.37370 0.09890 0.11840 0.02000
C 	C 	0.31963 0.13002 0.24125 -0.11100
H 	H 	0.30600 0.13710 0.27250 0.07100
C 	C 	0.31543 0.13400 0.15189 -0.10900
H 	H 	0.29960 0.14420 0.12260 0.05600
C 	C 	0.36390 0.10425 0.23807 0.03900
H 	H 	0.38030 0.09460 0.26720 0.03000
C 	C 	0.21665 0.17007 0.24191 -0.10600
H 	H 	0.22120 0.14300 0.26340 0.06300
C 	C 	0.38429 0.09257 0.19237 -0.12200
C 	C 	0.24962 0.17733 0.20248 0.03700
O 	O 	0.55242 0.94983 0.14885 -0.38400
O 	O 	0.55155 0.95076 0.23140 -0.39000
C 	C 	0.70530 0.85427 0.19784 0.03400
C 	C 	0.56944 0.93786 0.19069 0.36500
C 	C 	0.63986 0.89292 0.14940 0.03100
H 	H 	0.62630 0.90110 0.11840 0.03500
C 	C 	0.68037 0.86998 0.24125 -0.09700
H 	H 	0.69400 0.86290 0.27250 0.07100
C 	C 	0.68457 0.86600 0.15189 -0.09500
H 	H 	0.70040 0.85580 0.12260 0.06300
C 	C 	0.63610 0.89575 0.23807 0.03300
H 	H 	0.61970 0.90540 0.26720 0.04300
C 	C 	0.78335 0.82993 0.24191 -0.11200
H 	H 	0.77880 0.85700 0.26340 0.07500
C 	C 	0.61571 0.90743 0.19237 -0.10100
C 	C 	0.75038 0.82267 0.20248 0.05100
O 	O 	0.55242 0.05017 0.85115 -0.41400
O 	O 	0.55155 0.04924 0.76860 -0.43100
C 	C 	0.70530 0.14573 0.80216 0.03600
C 	C 	0.56944 0.06214 0.80931 0.36700
C 	C 	0.63986 0.10708 0.85060 0.03400
H 	H 	0.62630 0.09890 0.88160 0.03500
C 	C 	0.68037 0.13002 0.75875 -0.10800
H 	H 	0.69400 0.13710 0.72750 0.07000
C 	C 	0.68457 0.13400 0.84811 -0.10400
H 	H 	0.70040 0.14420 0.87740 0.07200
C 	C 	0.63610 0.10425 0.76193 0.03600
H 	H 	0.61970 0.09460 0.73280 0.03000
C 	C 	0.78335 0.17007 0.75809 -0.11100
H 	H 	0.77880 0.14300 0.73660 0.06800
C 	C 	0.61571 0.09257 0.80763 -0.11600
C 	C 	0.75038 0.17733 0.79752 0.04800
O 	O 	0.44758 0.94983 0.85115 -0.37200
O 	O 	0.44845 0.95076 0.76860 -0.38800
C 	C 	0.29470 0.85427 0.80216 0.03400
C 	C 	0.43056 0.93786 0.80931 0.36200
C 	C 	0.36014 0.89292 0.85060 0.03000
H 	H 	0.37370 0.90110 0.88160 0.05000
C 	C 	0.31963 0.86998 0.75875 -0.09500
H 	H 	0.30600 0.86290 0.72750 0.07100
C 	C 	0.31543 0.86600 0.84811 -0.09100
H 	H 	0.29960 0.85580 0.87740 0.07400
C 	C 	0.36390 0.89575 0.76193 0.03100
H 	H 	0.38030 0.90540 0.73280 0.04400
C 	C 	0.21665 0.82993 0.75809 -0.11100
H 	H 	0.22120 0.85700 0.73660 0.07400
C 	C 	0.38429 0.90743 0.80763 -0.09500
C 	C 	0.24962 0.82267 0.79752 0.05300
O 	O 	0.14885 0.44758 0.05017 -0.42700
O 	O 	0.23140 0.44845 0.04924 -0.43200
C 	C 	0.19784 0.29470 0.14573 0.03400
C 	C 	0.19069 0.43056 0.06214 0.37000
C 	C 	0.14940 0.36014 0.10708 0.03400
H 	H 	0.11840 0.37370 0.09890 0.01900
C 	C 	0.24125 0.31963 0.13002 -0.11200
H 	H 	0.27250 0.30600 0.13710 0.07000
C 	C 	0.15189 0.31543 0.13400 -0.11000
H 	H 	0.12260 0.29960 0.14420 0.05500
C 	C 	0.23807 0.36390 0.10425 0.03800
H 	H 	0.26720 0.38030 0.09460 0.02900
C 	C 	0.24191 0.21665 0.17007 -0.10700
H 	H 	0.26340 0.22120 0.14300 0.06200
C 	C 	0.19237 0.38429 0.09257 -0.12300
C 	C 	0.20248 0.24962 0.17733 0.03700
O 	O 	0.14885 0.55242 0.94983 -0.38400
O 	O 	0.23140 0.55155 0.95076 -0.39000
C 	C 	0.19784 0.70530 0.85427 0.03400
C 	C 	0.19069 0.56944 0.93786 0.36500
C 	C 	0.14940 0.63986 0.89292 0.03100
H 	H 	0.11840 0.62630 0.90110 0.03500
C 	C 	0.24125 0.68037 0.86998 -0.09700
H 	H 	0.27250 0.69400 0.86290 0.07100
C 	C 	0.15189 0.68457 0.86600 -0.09500
H 	H 	0.12260 0.70040 0.85580 0.06300
C 	C 	0.23807 0.63610 0.89575 0.03300
H 	H 	0.26720 0.61970 0.90540 0.04300
C 	C 	0.24191 0.78335 0.82993 -0.11200
H 	H 	0.26340 0.77880 0.85700 0.07500
C 	C 	0.19237 0.61571 0.90743 -0.10100
C 	C 	0.20248 0.75038 0.82267 0.05100
O 	O 	0.85115 0.55242 0.05017 -0.41400
O 	O 	0.76860 0.55155 0.04924 -0.43100
C 	C 	0.80216 0.70530 0.14573 0.03600
C 	C 	0.80931 0.56944 0.06214 0.36700
C 	C 	0.85060 0.63986 0.10708 0.03400
H 	H 	0.88160 0.62630 0.09890 0.03500
C 	C 	0.75875 0.68037 0.13002 -0.10800
H 	H 	0.72750 0.69400 0.13710 0.07000
C 	C 	0.84811 0.68457 0.13400 -0.10400
H 	H 	0.87740 0.70040 0.14420 0.07200
C 	C 	0.76193 0.63610 0.10425 0.03600
H 	H 	0.73280 0.61970 0.09460 0.03000
C 	C 	0.75809 0.78335 0.17007 -0.11100
H 	H 	0.73660 0.77880 0.14300 0.06800
C 	C 	0.80763 0.61571 0.09257 -0.11600
C 	C 	0.79752 0.75038 0.17733 0.04800
O 	O 	0.85115 0.44758 0.94983 -0.37200
O 	O 	0.76860 0.44845 0.95076 -0.38800
C 	C 	0.80216 0.29470 0.85427 0.03400
C 	C 	0.80931 0.43056 0.93786 0.36200
C 	C 	0.85060 0.36014 0.89292 0.03000
H 	H 	0.88160 0.37370 0.90110 0.05000
C 	C 	0.75875 0.31963 0.86998 -0.09500
H 	H 	0.72750 0.30600 0.86290 0.07100
C 	C 	0.84811 0.31543 0.86600 -0.09100
H 	H 	0.87740 0.29960 0.85580 0.07400
C 	C 	0.76193 0.36390 0.89575 0.03100
H 	H 	0.73280 0.38030 0.90540 0.04400
C 	C 	0.75809 0.21665 0.82993 -0.11100
H 	H 	0.73660 0.22120 0.85700 0.07400
C 	C 	0.80763 0.38429 0.90743 -0.09500
C 	C 	0.79752 0.24962 0.82267 0.05300
O 	O 	0.05017 0.14885 0.44758 -0.42700
O 	O 	0.04924 0.23140 0.44845 -0.43200
C 	C 	0.14573 0.19784 0.29470 0.03400
C 	C 	0.06214 0.19069 0.43056 0.37000
C 	C 	0.10708 0.14940 0.36014 0.03400
H 	H 	0.09890 0.11840 0.37370 0.01900
C 	C 	0.13002 0.24125 0.31963 -0.11200
H 	H 	0.13710 0.27250 0.30600 0.07000
C 	C 	0.13400 0.15189 0.31543 -0.11000
H 	H 	0.14420 0.12260 0.29960 0.05500
C 	C 	0.10425 0.23807 0.36390 0.03800
H 	H 	0.09460 0.26720 0.38030 0.02900
C 	C 	0.17007 0.24191 0.21665 -0.10700
H 	H 	0.14300 0.26340 0.22120 0.06200
C 	C 	0.09257 0.19237 0.38429 -0.12300
C 	C 	0.17733 0.20248 0.24962 0.03700
O 	O 	0.94983 0.14885 0.55242 -0.38400
O 	O 	0.95076 0.23140 0.55155 -0.39000
C 	C 	0.85427 0.19784 0.70530 0.03400
C 	C 	0.93786 0.19069 0.56944 0.36500
C 	C 	0.89292 0.14940 0.63986 0.03100
H 	H 	0.90110 0.11840 0.62630 0.03500
C 	C 	0.86998 0.24125 0.68037 -0.09700
H 	H 	0.86290 0.27250 0.69400 0.07100
C 	C 	0.86600 0.15189 0.68457 -0.09500
H 	H 	0.85580 0.12260 0.70040 0.06300
C 	C 	0.89575 0.23807 0.63610 0.03300
H 	H 	0.90540 0.26720 0.61970 0.04300
C 	C 	0.82993 0.24191 0.78335 -0.11200
H 	H 	0.85700 0.26340 0.77880 0.07500
C 	C 	0.90743 0.19237 0.61571 -0.10100
C 	C 	0.82267 0.20248 0.75038 0.05100
O 	O 	0.05017 0.85115 0.55242 -0.41400
O 	O 	0.04924 0.76860 0.55155 -0.43100
C 	C 	0.14573 0.80216 0.70530 0.03600
C 	C 	0.06214 0.80931 0.56944 0.36700
C 	C 	0.10708 0.85060 0.63986 0.03400
H 	H 	0.09890 0.88160 0.62630 0.03500
C 	C 	0.13002 0.75875 0.68037 -0.10800
H 	H 	0.13710 0.72750 0.69400 0.07000
C 	C 	0.13400 0.84811 0.68457 -0.10400
H 	H 	0.14420 0.87740 0.70040 0.07200
C 	C 	0.10425 0.76193 0.63610 0.03600
H 	H 	0.09460 0.73280 0.61970 0.03000
C 	C 	0.17007 0.75809 0.78335 -0.11100
H 	H 	0.14300 0.73660 0.77880 0.06800
C 	C 	0.09257 0.80763 0.61571 -0.11600
C 	C 	0.17733 0.79752 0.75038 0.04800
O 	O 	0.94983 0.85115 0.44758 -0.37200
O 	O 	0.95076 0.76860 0.44845 -0.38800
C 	C 	0.85427 0.80216 0.29470 0.03400
C 	C 	0.93786 0.80931 0.43056 0.36200
C 	C 	0.89292 0.85060 0.36014 0.03000
H 	H 	0.90110 0.88160 0.37370 0.05000
C 	C 	0.86998 0.75875 0.31963 -0.09500
H 	H 	0.86290 0.72750 0.30600 0.07100
C 	C 	0.86600 0.84811 0.31543 -0.09100
H 	H 	0.85580 0.87740 0.29960 0.07400
C 	C 	0.89575 0.76193 0.36390 0.03100
H 	H 	0.90540 0.73280 0.38030 0.04400
C 	C 	0.82993 0.75809 0.21665 -0.11100
H 	H 	0.85700 0.73660 0.22120 0.07400
C 	C 	0.90743 0.80763 0.38429 -0.09500
C 	C 	0.82267 0.79752 0.24962 0.05300
O 	O 	0.55242 0.94983 0.85115 -0.37200
O 	O 	0.55155 0.95076 0.76860 -0.38800
C 	C 	0.70530 0.85427 0.80216 0.03500
C 	C 	0.56944 0.93786 0.80931 0.36200
C 	C 	0.63986 0.89292 0.85060 0.03100
H 	H 	0.62630 0.90110 0.88160 0.05100
C 	C 	0.68037 0.86998 0.75875 -0.09400
H 	H 	0.69400 0.86290 0.72750 0.07100
C 	C 	0.68457 0.86600 0.84811 -0.09000
H 	H 	0.70040 0.85580 0.87740 0.07700
C 	C 	0.63610 0.89575 0.76193 0.03100
H 	H 	0.61970 0.90540 0.73280 0.04400
C 	C 	0.78335 0.82993 0.75809 -0.11300
H 	H 	0.77880 0.85700 0.73660 0.07800
C 	C 	0.61571 0.90743 0.80763 -0.09400
C 	C 	0.75038 0.82267 0.79752 0.05800
O 	O 	0.44758 0.05017 0.85115 -0.41500
O 	O 	0.44845 0.04924 0.76860 -0.43100
C 	C 	0.29470 0.14573 0.80216 0.03500
C 	C 	0.43056 0.06214 0.80931 0.36700
C 	C 	0.36014 0.10708 0.85060 0.03300
H 	H 	0.37370 0.09890 0.88160 0.03400
C 	C 	0.31963 0.13002 0.75875 -0.10900
H 	H 	0.30600 0.13710 0.72750 0.07000
C 	C 	0.31543 0.13400 0.84811 -0.10500
H 	H 	0.29960 0.14420 0.87740 0.06900
C 	C 	0.36390 0.10425 0.76193 0.03500
H 	H 	0.38030 0.09460 0.73280 0.03000
C 	C 	0.21665 0.17007 0.75809 -0.10800
H 	H 	0.22120 0.14300 0.73660 0.06500
C 	C 	0.38429 0.09257 0.80763 -0.11700
C 	C 	0.24962 0.17733 0.79752 0.04300
O 	O 	0.44758 0.94983 0.14885 -0.38500
O 	O 	0.44845 0.95076 0.23140 -0.39000
C 	C 	0.29470 0.85427 0.19784 0.03300
C 	C 	0.43056 0.93786 0.19069 0.36500
C 	C 	0.36014 0.89292 0.14940 0.03000
H 	H 	0.37370 0.90110 0.11840 0.03400
C 	C 	0.31963 0.86998 0.24125 -0.09800
H 	H 	0.30600 0.86290 0.27250 0.07100
C 	C 	0.31543 0.86600 0.15189 -0.09600
H 	H 	0.29960 0.85580 0.12260 0.06000
C 	C 	0.36390 0.89575 0.23807 0.03300
H 	H 	0.38030 0.90540 0.26720 0.04300
C 	C 	0.21665 0.82993 0.24191 -0.11000
H 	H 	0.22120 0.85700 0.26340 0.07200
C 	C 	0.38429 0.90743 0.19237 -0.10100
C 	C 	0.24962 0.82267 0.20248 0.04600
O 	O 	0.55242 0.05017 0.14885 -0.42700
O 	O 	0.55155 0.04924 0.23140 -0.43200
C 	C 	0.70530 0.14573 0.19784 0.03500
C 	C 	0.56944 0.06214 0.19069 0.37000
C 	C 	0.63986 0.10708 0.14940 0.03500
H 	H 	0.62630 0.09890 0.11840 0.02000
C 	C 	0.68037 0.13002 0.24125 -0.11100
H 	H 	0.69400 0.13710 0.27250 0.07000
C 	C 	0.68457 0.13400 0.15189 -0.10900
H 	H 	0.70040 0.14420 0.12260 0.05800
C 	C 	0.63610 0.10425 0.23807 0.03800
H 	H 	0.61970 0.09460 0.26720 0.02900
C 	C 	0.78335 0.17007 0.24191 -0.10900
H 	H 	0.77880 0.14300 0.26340 0.06500
C 	C 	0.61571 0.09257 0.19237 -0.12200
C 	C 	0.75038 0.17733 0.20248 0.04100
O 	O 	0.85115 0.55242 0.94983 -0.37200
O 	O 	0.76860 0.55155 0.95076 -0.38800
C 	C 	0.80216 0.70530 0.85427 0.03500
C 	C 	0.80931 0.56944 0.93786 0.36200
C 	C 	0.85060 0.63986 0.89292 0.03100
H 	H 	0.88160 0.62630 0.90110 0.05100
C 	C 	0.75875 0.68037 0.86998 -0.09400
H 	H 	0.72750 0.69400 0.86290 0.07100
C 	C 	0.84811 0.68457 0.86600 -0.09000
H 	H 	0.87740 0.70040 0.85580 0.07700
C 	C 	0.76193 0.63610 0.89575 0.03100
H 	H 	0.73280 0.61970 0.90540 0.04400
C 	C 	0.75809 0.78335 0.82993 -0.11300
H 	H 	0.73660 0.77880 0.85700 0.07800
C 	C 	0.80763 0.61571 0.90743 -0.09400
C 	C 	0.79752 0.75038 0.82267 0.05800
O 	O 	0.85115 0.44758 0.05017 -0.41500
O 	O 	0.76860 0.44845 0.04924 -0.43100
C 	C 	0.80216 0.29470 0.14573 0.03500
C 	C 	0.80931 0.43056 0.06214 0.36700
C 	C 	0.85060 0.36014 0.10708 0.03300
H 	H 	0.88160 0.37370 0.09890 0.03400
C 	C 	0.75875 0.31963 0.13002 -0.10900
H 	H 	0.72750 0.30600 0.13710 0.07000
C 	C 	0.84811 0.31543 0.13400 -0.10500
H 	H 	0.87740 0.29960 0.14420 0.06900
C 	C 	0.76193 0.36390 0.10425 0.03500
H 	H 	0.73280 0.38030 0.09460 0.03000
C 	C 	0.75809 0.21665 0.17007 -0.10800
H 	H 	0.73660 0.22120 0.14300 0.06500
C 	C 	0.80763 0.38429 0.09257 -0.11700
C 	C 	0.79752 0.24962 0.17733 0.04300
O 	O 	0.14885 0.44758 0.94983 -0.38500
O 	O 	0.23140 0.44845 0.95076 -0.39000
C 	C 	0.19784 0.29470 0.85427 0.03300
C 	C 	0.19069 0.43056 0.93786 0.36500
C 	C 	0.14940 0.36014 0.89292 0.03000
H 	H 	0.11840 0.37370 0.90110 0.03400
C 	C 	0.24125 0.31963 0.86998 -0.09800
H 	H 	0.27250 0.30600 0.86290 0.07100
C 	C 	0.15189 0.31543 0.86600 -0.09600
H 	H 	0.12260 0.29960 0.85580 0.06000
C 	C 	0.23807 0.36390 0.89575 0.03300
H 	H 	0.26720 0.38030 0.90540 0.04300
C 	C 	0.24191 0.21665 0.82993 -0.11000
H 	H 	0.26340 0.22120 0.85700 0.07200
C 	C 	0.19237 0.38429 0.90743 -0.10100
C 	C 	0.20248 0.24962 0.82267 0.04600
O 	O 	0.14885 0.55242 0.05017 -0.42700
O 	O 	0.23140 0.55155 0.04924 -0.43200
C 	C 	0.19784 0.70530 0.14573 0.03500
C 	C 	0.19069 0.56944 0.06214 0.37000
C 	C 	0.14940 0.63986 0.10708 0.03500
H 	H 	0.11840 0.62630 0.09890 0.02000
C 	C 	0.24125 0.68037 0.13002 -0.11100
H 	H 	0.27250 0.69400 0.13710 0.07000
C 	C 	0.15189 0.68457 0.13400 -0.10900
H 	H 	0.12260 0.70040 0.14420 0.05800
C 	C 	0.23807 0.63610 0.10425 0.03800
H 	H 	0.26720 0.61970 0.09460 0.02900
C 	C 	0.24191 0.78335 0.17007 -0.10900
H 	H 	0.26340 0.77880 0.14300 0.06500
C 	C 	0.19237 0.61571 0.09257 -0.12200
C 	C 	0.20248 0.75038 0.17733 0.04100
O 	O 	0.94983 0.85115 0.55242 -0.37200
O 	O 	0.95076 0.76860 0.55155 -0.38800
C 	C 	0.85427 0.80216 0.70530 0.03500
C 	C 	0.93786 0.80931 0.56944 0.36200
C 	C 	0.89292 0.85060 0.63986 0.03100
H 	H 	0.90110 0.88160 0.62630 0.05100
C 	C 	0.86998 0.75875 0.68037 -0.09400
H 	H 	0.86290 0.72750 0.69400 0.07100
C 	C 	0.86600 0.84811 0.68457 -0.09000
H 	H 	0.85580 0.87740 0.70040 0.07700
C 	C 	0.89575 0.76193 0.63610 0.03100
H 	H 	0.90540 0.73280 0.61970 0.04400
C 	C 	0.82993 0.75809 0.78335 -0.11300
H 	H 	0.85700 0.73660 0.77880 0.07800
C 	C 	0.90743 0.80763 0.61571 -0.09400
C 	C 	0.82267 0.79752 0.75038 0.05800
O 	O 	0.05017 0.85115 0.44758 -0.41500
O 	O 	0.04924 0.76860 0.44845 -0.43100
C 	C 	0.14573 0.80216 0.29470 0.03500
C 	C 	0.06214 0.80931 0.43056 0.36700
C 	C 	0.10708 0.85060 0.36014 0.03300
H 	H 	0.09890 0.88160 0.37370 0.03400
C 	C 	0.13002 0.75875 0.31963 -0.10900
H 	H 	0.13710 0.72750 0.30600 0.07000
C 	C 	0.13400 0.84811 0.31543 -0.10500
H 	H 	0.14420 0.87740 0.29960 0.06900
C 	C 	0.10425 0.76193 0.36390 0.03500
H 	H 	0.09460 0.73280 0.38030 0.03000
C 	C 	0.17007 0.75809 0.21665 -0.10800
H 	H 	0.14300 0.73660 0.22120 0.06500
C 	C 	0.09257 0.80763 0.38429 -0.11700
C 	C 	0.17733 0.79752 0.24962 0.04300
O 	O 	0.94983 0.14885 0.44758 -0.38500
O 	O 	0.95076 0.23140 0.44845 -0.39000
C 	C 	0.85427 0.19784 0.29470 0.03300
C 	C 	0.93786 0.19069 0.43056 0.36500
C 	C 	0.89292 0.14940 0.36014 0.03000
H 	H 	0.90110 0.11840 0.37370 0.03400
C 	C 	0.86998 0.24125 0.31963 -0.09800
H 	H 	0.86290 0.27250 0.30600 0.07100
C 	C 	0.86600 0.15189 0.31543 -0.09600
H 	H 	0.85580 0.12260 0.29960 0.06000
C 	C 	0.89575 0.23807 0.36390 0.03300
H 	H 	0.90540 0.26720 0.38030 0.04300
C 	C 	0.82993 0.24191 0.21665 -0.11000
H 	H 	0.85700 0.26340 0.22120 0.07200
C 	C 	0.90743 0.19237 0.38429 -0.10100
C 	C 	0.82267 0.20248 0.24962 0.04600
O 	O 	0.05017 0.14885 0.55242 -0.42700
O 	O 	0.04924 0.23140 0.55155 -0.43200
C 	C 	0.14573 0.19784 0.70530 0.03500
C 	C 	0.06214 0.19069 0.56944 0.37000
C 	C 	0.10708 0.14940 0.63986 0.03500
H 	H 	0.09890 0.11840 0.62630 0.02000
C 	C 	0.13002 0.24125 0.68037 -0.11100
H 	H 	0.13710 0.27250 0.69400 0.07000
C 	C 	0.13400 0.15189 0.68457 -0.10900
H 	H 	0.14420 0.12260 0.70040 0.05800
C 	C 	0.10425 0.23807 0.63610 0.03800
H 	H 	0.09460 0.26720 0.61970 0.02900
C 	C 	0.17007 0.24191 0.78335 -0.10900
H 	H 	0.14300 0.26340 0.77880 0.06500
C 	C 	0.09257 0.19237 0.61571 -0.12200
C 	C 	0.17733 0.20248 0.75038 0.04100
Cu	Cu	0.50000 0.00000 0.14436 0.87400
Cu	Cu	0.50000 0.00000 0.24021 0.88100
Cu	Cu	0.50000 -0.00000 0.85564 0.88000
Cu	Cu	0.50000 0.00000 0.75979 0.88100
Cu	Cu	0.14436 0.50000 -0.00000 0.87400
Cu	Cu	0.24021 0.50000 -0.00000 0.88100
Cu	Cu	0.85564 0.50000 -0.00000 0.88000
Cu	Cu	0.75979 0.50000 -0.00000 0.88100
Cu	Cu	0.00000 0.14436 0.50000 0.87400
Cu	Cu	0.00000 0.24021 0.50000 0.88100
Cu	Cu	-0.00000 0.85564 0.50000 0.88000
Cu	Cu	0.00000 0.75979 0.50000 0.88100
O 	O 	0.94758 0.55017 0.64885 -0.37700
O 	O 	0.94845 0.54924 0.73140 -0.38700
C 	C 	0.79470 0.64573 0.69784 0.03000
C 	C 	0.93056 0.56214 0.69069 0.36100
C 	C 	0.86014 0.60708 0.64940 0.02700
H 	H 	0.87370 0.59890 0.61840 0.04100
C 	C 	0.81963 0.63002 0.74125 -0.09600
H 	H 	0.80600 0.63710 0.77250 0.06800
C 	C 	0.81543 0.63400 0.65189 -0.09400
H 	H 	0.79960 0.64420 0.62260 0.06500
C 	C 	0.86390 0.60425 0.73807 0.02900
H 	H 	0.88030 0.59460 0.76720 0.04400
C 	C 	0.71665 0.67007 0.74191 -0.11300
H 	H 	0.72120 0.64300 0.76340 0.07100
C 	C 	0.88429 0.59257 0.69237 -0.09800
C 	C 	0.74962 0.67733 0.70248 0.05000
O 	O 	0.05242 0.44983 0.64885 -0.42100
O 	O 	0.05155 0.45076 0.73140 -0.43100
C 	C 	0.20530 0.35427 0.69784 0.03700
C 	C 	0.06944 0.43786 0.69069 0.37000
C 	C 	0.13986 0.39292 0.64940 0.03600
H 	H 	0.12630 0.40110 0.61840 0.02900
C 	C 	0.18037 0.36998 0.74125 -0.10700
H 	H 	0.19400 0.36290 0.77250 0.07100
C 	C 	0.18457 0.36600 0.65189 -0.10500
H 	H 	0.20040 0.35580 0.62260 0.06600
C 	C 	0.13610 0.39575 0.73807 0.03900
H 	H 	0.11970 0.40540 0.76720 0.03100
C 	C 	0.28335 0.32993 0.74191 -0.10900
H 	H 	0.27880 0.35700 0.76340 0.07000
C 	C 	0.11571 0.40743 0.69237 -0.11800
C 	C 	0.25038 0.32267 0.70248 0.04500
O 	O 	0.05242 0.55017 0.35115 -0.42100
O 	O 	0.05155 0.54924 0.26860 -0.43300
C 	C 	0.20530 0.64573 0.30216 0.03800
C 	C 	0.06944 0.56214 0.30931 0.37100
C 	C 	0.13986 0.60708 0.35060 0.03700
H 	H 	0.12630 0.59890 0.38160 0.02900
C 	C 	0.18037 0.63002 0.25875 -0.10900
H 	H 	0.19400 0.63710 0.22750 0.07200
C 	C 	0.18457 0.63400 0.34811 -0.10600
H 	H 	0.20040 0.64420 0.37740 0.06700
C 	C 	0.13610 0.60425 0.26193 0.04000
H 	H 	0.11970 0.59460 0.23280 0.02900
C 	C 	0.28335 0.67007 0.25809 -0.10800
H 	H 	0.27880 0.64300 0.23660 0.06900
C 	C 	0.11571 0.59257 0.30763 -0.11900
C 	C 	0.25038 0.67733 0.29752 0.04500
O 	O 	0.94758 0.44983 0.35115 -0.37800
O 	O 	0.94845 0.45076 0.26860 -0.39000
C 	C 	0.79470 0.35427 0.30216 0.03200
C 	C 	0.93056 0.43786 0.30931 0.36200
C 	C 	0.86014 0.39292 0.35060 0.02800
H 	H 	0.87370 0.40110 0.38160 0.04000
C 	C 	0.81963 0.36998 0.25875 -0.09900
H 	H 	0.80600 0.36290 0.22750 0.07000
C 	C 	0.81543 0.36600 0.34811 -0.09600
H 	H 	0.79960 0.35580 0.37740 0.06500
C 	C 	0.86390 0.39575 0.26193 0.03100
H 	H 	0.88030 0.40540 0.23280 0.04100
C 	C 	0.71665 0.32993 0.25809 -0.10900
H 	H 	0.72120 0.35700 0.23660 0.06900
C 	C 	0.88429 0.40743 0.30763 -0.10000
C 	C 	0.74962 0.32267 0.29752 0.04700
O 	O 	0.64885 0.94758 0.55017 -0.37700
O 	O 	0.73140 0.94845 0.54924 -0.38700
C 	C 	0.69784 0.79470 0.64573 0.03000
C 	C 	0.69069 0.93056 0.56214 0.36100
C 	C 	0.64940 0.86014 0.60708 0.02700
H 	H 	0.61840 0.87370 0.59890 0.04100
C 	C 	0.74125 0.81963 0.63002 -0.09600
H 	H 	0.77250 0.80600 0.63710 0.06800
C 	C 	0.65189 0.81543 0.63400 -0.09400
H 	H 	0.62260 0.79960 0.64420 0.06500
C 	C 	0.73807 0.86390 0.60425 0.02900
H 	H 	0.76720 0.88030 0.59460 0.04400
C 	C 	0.74191 0.71665 0.67007 -0.11300
H 	H 	0.76340 0.72120 0.64300 0.07100
C 	C 	0.69237 0.88429 0.59257 -0.09800
C 	C 	0.70248 0.74962 0.67733 0.05000
O 	O 	0.64885 0.05242 0.44983 -0.42100
O 	O 	0.73140 0.05155 0.45076 -0.43100
C 	C 	0.69784 0.20530 0.35427 0.03700
C 	C 	0.69069 0.06944 0.43786 0.37000
C 	C 	0.64940 0.13986 0.39292 0.03600
H 	H 	0.61840 0.12630 0.40110 0.02900
C 	C 	0.74125 0.18037 0.36998 -0.10700
H 	H 	0.77250 0.19400 0.36290 0.07100
C 	C 	0.65189 0.18457 0.36600 -0.10500
H 	H 	0.62260 0.20040 0.35580 0.06600
C 	C 	0.73807 0.13610 0.39575 0.03900
H 	H 	0.76720 0.11970 0.40540 0.03100
C 	C 	0.74191 0.28335 0.32993 -0.10900
H 	H 	0.76340 0.27880 0.35700 0.07000
C 	C 	0.69237 0.11571 0.40743 -0.11800
C 	C 	0.70248 0.25038 0.32267 0.04500
O 	O 	0.35115 0.05242 0.55017 -0.42100
O 	O 	0.26860 0.05155 0.54924 -0.43300
C 	C 	0.30216 0.20530 0.64573 0.03800
C 	C 	0.30931 0.06944 0.56214 0.37100
C 	C 	0.35060 0.13986 0.60708 0.03700
H 	H 	0.38160 0.12630 0.59890 0.02900
C 	C 	0.25875 0.18037 0.63002 -0.10900
H 	H 	0.22750 0.19400 0.63710 0.07200
C 	C 	0.34811 0.18457 0.63400 -0.10600
H 	H 	0.37740 0.20040 0.64420 0.06700
C 	C 	0.26193 0.13610 0.60425 0.04000
H 	H 	0.23280 0.11970 0.59460 0.02900
C 	C 	0.25809 0.28335 0.67007 -0.10800
H 	H 	0.23660 0.27880 0.64300 0.06900
C 	C 	0.30763 0.11571 0.59257 -0.11900
C 	C 	0.29752 0.25038 0.67733 0.04500
O 	O 	0.35115 0.94758 0.44983 -0.37800
O 	O 	0.26860 0.94845 0.45076 -0.39000
C 	C 	0.30216 0.79470 0.35427 0.03200
C 	C 	0.30931 0.93056 0.43786 0.36200
C 	C 	0.35060 0.86014 0.39292 0.02800
H 	H 	0.38160 0.87370 0.40110 0.04000
C 	C 	0.25875 0.81963 0.36998 -0.09900
H 	H 	0.22750 0.80600 0.36290 0.07000
C 	C 	0.34811 0.81543 0.36600 -0.09600
H 	H 	0.37740 0.79960 0.35580 0.06500
C 	C 	0.26193 0.86390 0.39575 0.03100
H 	H 	0.23280 0.88030 0.40540 0.04100
C 	C 	0.25809 0.71665 0.32993 -0.10900
H 	H 	0.23660 0.72120 0.35700 0.06900
C 	C 	0.30763 0.88429 0.40743 -0.10000
C 	C 	0.29752 0.74962 0.32267 0.04700
O 	O 	0.55017 0.64885 0.94758 -0.37700
O 	O 	0.54924 0.73140 0.94845 -0.38700
C 	C 	0.64573 0.69784 0.79470 0.03000
C 	C 	0.56214 0.69069 0.93056 0.36100
C 	C 	0.60708 0.64940 0.86014 0.02700
H 	H 	0.59890 0.61840 0.87370 0.04100
C 	C 	0.63002 0.74125 0.81963 -0.09600
H 	H 	0.63710 0.77250 0.80600 0.06800
C 	C 	0.63400 0.65189 0.81543 -0.09400
H 	H 	0.64420 0.62260 0.79960 0.06500
C 	C 	0.60425 0.73807 0.86390 0.02900
H 	H 	0.59460 0.76720 0.88030 0.04400
C 	C 	0.67007 0.74191 0.71665 -0.11300
H 	H 	0.64300 0.76340 0.72120 0.07100
C 	C 	0.59257 0.69237 0.88429 -0.09800
C 	C 	0.67733 0.70248 0.74962 0.05000
O 	O 	0.44983 0.64885 0.05242 -0.42100
O 	O 	0.45076 0.73140 0.05155 -0.43100
C 	C 	0.35427 0.69784 0.20530 0.03700
C 	C 	0.43786 0.69069 0.06944 0.37000
C 	C 	0.39292 0.64940 0.13986 0.03600
H 	H 	0.40110 0.61840 0.12630 0.02900
C 	C 	0.36998 0.74125 0.18037 -0.10700
H 	H 	0.36290 0.77250 0.19400 0.07100
C 	C 	0.36600 0.65189 0.18457 -0.10500
H 	H 	0.35580 0.62260 0.20040 0.06600
C 	C 	0.39575 0.73807 0.13610 0.03900
H 	H 	0.40540 0.76720 0.11970 0.03100
C 	C 	0.32993 0.74191 0.28335 -0.10900
H 	H 	0.35700 0.76340 0.27880 0.07000
C 	C 	0.40743 0.69237 0.11571 -0.11800
C 	C 	0.32267 0.70248 0.25038 0.04500
O 	O 	0.55017 0.35115 0.05242 -0.42100
O 	O 	0.54924 0.26860 0.05155 -0.43300
C 	C 	0.64573 0.30216 0.20530 0.03800
C 	C 	0.56214 0.30931 0.06944 0.37100
C 	C 	0.60708 0.35060 0.13986 0.03700
H 	H 	0.59890 0.38160 0.12630 0.02900
C 	C 	0.63002 0.25875 0.18037 -0.10900
H 	H 	0.63710 0.22750 0.19400 0.07200
C 	C 	0.63400 0.34811 0.18457 -0.10600
H 	H 	0.64420 0.37740 0.20040 0.06700
C 	C 	0.60425 0.26193 0.13610 0.04000
H 	H 	0.59460 0.23280 0.11970 0.02900
C 	C 	0.67007 0.25809 0.28335 -0.10800
H 	H 	0.64300 0.23660 0.27880 0.06900
C 	C 	0.59257 0.30763 0.11571 -0.11900
C 	C 	0.67733 0.29752 0.25038 0.04500
O 	O 	0.44983 0.35115 0.94758 -0.37800
O 	O 	0.45076 0.26860 0.94845 -0.39000
C 	C 	0.35427 0.30216 0.79470 0.03200
C 	C 	0.43786 0.30931 0.93056 0.36200
C 	C 	0.39292 0.35060 0.86014 0.02800
H 	H 	0.40110 0.38160 0.87370 0.04000
C 	C 	0.36998 0.25875 0.81963 -0.09900
H 	H 	0.36290 0.22750 0.80600 0.07000
C 	C 	0.36600 0.34811 0.81543 -0.09600
H 	H 	0.35580 0.37740 0.79960 0.06500
C 	C 	0.39575 0.26193 0.86390 0.03100
H 	H 	0.40540 0.23280 0.88030 0.04100
C 	C 	0.32993 0.25809 0.71665 -0.10900
H 	H 	0.35700 0.23660 0.72120 0.06900
C 	C 	0.40743 0.30763 0.88429 -0.10000
C 	C 	0.32267 0.29752 0.74962 0.04700
O 	O 	0.05242 0.44983 0.35115 -0.42100
O 	O 	0.05155 0.45076 0.26860 -0.43300
C 	C 	0.20530 0.35427 0.30216 0.03900
C 	C 	0.06944 0.43786 0.30931 0.37100
C 	C 	0.13986 0.39292 0.35060 0.03800
H 	H 	0.12630 0.40110 0.38160 0.02800
C 	C 	0.18037 0.36998 0.25875 -0.10900
H 	H 	0.19400 0.36290 0.22750 0.07300
C 	C 	0.18457 0.36600 0.34811 -0.10600
H 	H 	0.20040 0.35580 0.37740 0.06700
C 	C 	0.13610 0.39575 0.26193 0.04000
H 	H 	0.11970 0.40540 0.23280 0.02900
C 	C 	0.28335 0.32993 0.25809 -0.10700
H 	H 	0.27880 0.35700 0.23660 0.06900
C 	C 	0.11571 0.40743 0.30763 -0.12000
C 	C 	0.25038 0.32267 0.29752 0.04400
O 	O 	0.94758 0.55017 0.35115 -0.37800
O 	O 	0.94845 0.54924 0.26860 -0.39000
C 	C 	0.79470 0.64573 0.30216 0.03200
C 	C 	0.93056 0.56214 0.30931 0.36200
C 	C 	0.86014 0.60708 0.35060 0.02800
H 	H 	0.87370 0.59890 0.38160 0.04000
C 	C 	0.81963 0.63002 0.25875 -0.09800
H 	H 	0.80600 0.63710 0.22750 0.07000
C 	C 	0.81543 0.63400 0.34811 -0.09600
H 	H 	0.79960 0.64420 0.37740 0.06500
C 	C 	0.86390 0.60425 0.26193 0.03000
H 	H 	0.88030 0.59460 0.23280 0.04200
C 	C 	0.71665 0.67007 0.25809 -0.11100
H 	H 	0.72120 0.64300 0.23660 0.07000
C 	C 	0.88429 0.59257 0.30763 -0.09900
C 	C 	0.74962 0.67733 0.29752 0.04900
O 	O 	0.94758 0.44983 0.64885 -0.37800
O 	O 	0.94845 0.45076 0.73140 -0.38700
C 	C 	0.79470 0.35427 0.69784 0.03100
C 	C 	0.93056 0.43786 0.69069 0.36100
C 	C 	0.86014 0.39292 0.64940 0.02700
H 	H 	0.87370 0.40110 0.61840 0.04100
C 	C 	0.81963 0.36998 0.74125 -0.09700
H 	H 	0.80600 0.36290 0.77250 0.06900
C 	C 	0.81543 0.36600 0.65189 -0.09500
H 	H 	0.79960 0.35580 0.62260 0.06500
C 	C 	0.86390 0.39575 0.73807 0.02900
H 	H 	0.88030 0.40540 0.76720 0.04300
C 	C 	0.71665 0.32993 0.74191 -0.11200
H 	H 	0.72120 0.35700 0.76340 0.07100
C 	C 	0.88429 0.40743 0.69237 -0.09800
C 	C 	0.74962 0.32267 0.70248 0.04900
O 	O 	0.05242 0.55017 0.64885 -0.42100
O 	O 	0.05155 0.54924 0.73140 -0.43100
C 	C 	0.20530 0.64573 0.69784 0.03600
C 	C 	0.06944 0.56214 0.69069 0.37000
C 	C 	0.13986 0.60708 0.64940 0.03600
H 	H 	0.12630 0.59890 0.61840 0.02900
C 	C 	0.18037 0.63002 0.74125 -0.10700
H 	H 	0.19400 0.63710 0.77250 0.07100
C 	C 	0.18457 0.63400 0.65189 -0.10400
H 	H 	0.20040 0.64420 0.62260 0.06600
C 	C 	0.13610 0.60425 0.73807 0.03800
H 	H 	0.11970 0.59460 0.76720 0.03200
C 	C 	0.28335 0.67007 0.74191 -0.11100
H 	H 	0.27880 0.64300 0.76340 0.07000
C 	C 	0.11571 0.59257 0.69237 -0.11700
C 	C 	0.25038 0.67733 0.70248 0.04700
O 	O 	0.35115 0.05242 0.44983 -0.42100
O 	O 	0.26860 0.05155 0.45076 -0.43300
C 	C 	0.30216 0.20530 0.35427 0.03900
C 	C 	0.30931 0.06944 0.43786 0.37100
C 	C 	0.35060 0.13986 0.39292 0.03800
H 	H 	0.38160 0.12630 0.40110 0.02800
C 	C 	0.25875 0.18037 0.36998 -0.10900
H 	H 	0.22750 0.19400 0.36290 0.07300
C 	C 	0.34811 0.18457 0.36600 -0.10600
H 	H 	0.37740 0.20040 0.35580 0.06700
C 	C 	0.26193 0.13610 0.39575 0.04000
H 	H 	0.23280 0.11970 0.40540 0.02900
C 	C 	0.25809 0.28335 0.32993 -0.10700
H 	H 	0.23660 0.27880 0.35700 0.06900
C 	C 	0.30763 0.11571 0.40743 -0.12000
C 	C 	0.29752 0.25038 0.32267 0.04400
O 	O 	0.35115 0.94758 0.55017 -0.37800
O 	O 	0.26860 0.94845 0.54924 -0.39000
C 	C 	0.30216 0.79470 0.64573 0.03200
C 	C 	0.30931 0.93056 0.56214 0.36200
C 	C 	0.35060 0.86014 0.60708 0.02800
H 	H 	0.38160 0.87370 0.59890 0.04000
C 	C 	0.25875 0.81963 0.63002 -0.09800
H 	H 	0.22750 0.80600 0.63710 0.07000
C 	C 	0.34811 0.81543 0.63400 -0.09600
H 	H 	0.37740 0.79960 0.64420 0.06500
C 	C 	0.26193 0.86390 0.60425 0.03000
H 	H 	0.23280 0.88030 0.59460 0.04200
C 	C 	0.25809 0.71665 0.67007 -0.11100
H 	H 	0.23660 0.72120 0.64300 0.07000
C 	C 	0.30763 0.88429 0.59257 -0.09900
C 	C 	0.29752 0.74962 0.67733 0.04900
O 	O 	0.64885 0.94758 0.44983 -0.37800
O 	O 	0.73140 0.94845 0.45076 -0.38700
C 	C 	0.69784 0.79470 0.35427 0.03100
C 	C 	0.69069 0.93056 0.43786 0.36100
C 	C 	0.64940 0.86014 0.39292 0.02700
H 	H 	0.61840 0.87370 0.40110 0.04100
C 	C 	0.74125 0.81963 0.36998 -0.09700
H 	H 	0.77250 0.80600 0.36290 0.06900
C 	C 	0.65189 0.81543 0.36600 -0.09500
H 	H 	0.62260 0.79960 0.35580 0.06500
C 	C 	0.73807 0.86390 0.39575 0.02900
H 	H 	0.76720 0.88030 0.40540 0.04300
C 	C 	0.74191 0.71665 0.32993 -0.11200
H 	H 	0.76340 0.72120 0.35700 0.07100
C 	C 	0.69237 0.88429 0.40743 -0.09800
C 	C 	0.70248 0.74962 0.32267 0.04900
O 	O 	0.64885 0.05242 0.55017 -0.42100
O 	O 	0.73140 0.05155 0.54924 -0.43100
C 	C 	0.69784 0.20530 0.64573 0.03600
C 	C 	0.69069 0.06944 0.56214 0.37000
C 	C 	0.64940 0.13986 0.60708 0.03600
H 	H 	0.61840 0.12630 0.59890 0.02900
C 	C 	0.74125 0.18037 0.63002 -0.10700
H 	H 	0.77250 0.19400 0.63710 0.07100
C 	C 	0.65189 0.18457 0.63400 -0.10400
H 	H 	0.62260 0.20040 0.64420 0.06600
C 	C 	0.73807 0.13610 0.60425 0.03800
H 	H 	0.76720 0.11970 0.59460 0.03200
C 	C 	0.74191 0.28335 0.67007 -0.11100
H 	H 	0.76340 0.27880 0.64300 0.07000
C 	C 	0.69237 0.11571 0.59257 -0.11700
C 	C 	0.70248 0.25038 0.67733 0.04700
O 	O 	0.44983 0.35115 0.05242 -0.42100
O 	O 	0.45076 0.26860 0.05155 -0.43300
C 	C 	0.35427 0.30216 0.20530 0.03900
C 	C 	0.43786 0.30931 0.06944 0.37100
C 	C 	0.39292 0.35060 0.13986 0.03800
H 	H 	0.40110 0.38160 0.12630 0.02800
C 	C 	0.36998 0.25875 0.18037 -0.10900
H 	H 	0.36290 0.22750 0.19400 0.07300
C 	C 	0.36600 0.34811 0.18457 -0.10600
H 	H 	0.35580 0.37740 0.20040 0.06700
C 	C 	0.39575 0.26193 0.13610 0.04000
H 	H 	0.40540 0.23280 0.11970 0.02900
C 	C 	0.32993 0.25809 0.28335 -0.10700
H 	H 	0.35700 0.23660 0.27880 0.06900
C 	C 	0.40743 0.30763 0.11571 -0.12000
C 	C 	0.32267 0.29752 0.25038 0.04400
O 	O 	0.55017 0.35115 0.94758 -0.37800
O 	O 	0.54924 0.26860 0.94845 -0.39000
C 	C 	0.64573 0.30216 0.79470 0.03200
C 	C 	0.56214 0.30931 0.93056 0.36200
C 	C 	0.60708 0.35060 0.86014 0.02800
H 	H 	0.59890 0.38160 0.87370 0.04000
C 	C 	0.63002 0.25875 0.81963 -0.09800
H 	H 	0.63710 0.22750 0.80600 0.07000
C 	C 	0.63400 0.34811 0.81543 -0.09600
H 	H 	0.64420 0.37740 0.79960 0.06500
C 	C 	0.60425 0.26193 0.86390 0.03000
H 	H 	0.59460 0.23280 0.88030 0.04200
C 	C 	0.67007 0.25809 0.71665 -0.11100
H 	H 	0.64300 0.23660 0.72120 0.07000
C 	C 	0.59257 0.30763 0.88429 -0.09900
C 	C 	0.67733 0.29752 0.74962 0.04900
O 	O 	0.44983 0.64885 0.94758 -0.37800
O 	O 	0.45076 0.73140 0.94845 -0.38700
C 	C 	0.35427 0.69784 0.79470 0.03100
C 	C 	0.43786 0.69069 0.93056 0.36100
C 	C 	0.39292 0.64940 0.86014 0.02700
H 	H 	0.40110 0.61840 0.87370 0.04100
C 	C 	0.36998 0.74125 0.81963 -0.09700
H 	H 	0.36290 0.77250 0.80600 0.06900
C 	C 	0.36600 0.65189 0.81543 -0.09500
H 	H 	0.35580 0.62260 0.79960 0.06500
C 	C 	0.39575 0.73807 0.86390 0.02900
H 	H 	0.40540 0.76720 0.88030 0.04300
C 	C 	0.32993 0.74191 0.71665 -0.11200
H 	H 	0.35700 0.76340 0.72120 0.07100
C 	C 	0.40743 0.69237 0.88429 -0.09800
C 	C 	0.32267 0.70248 0.74962 0.04900
O 	O 	0.55017 0.64885 0.05242 -0.42100
O 	O 	0.54924 0.73140 0.05155 -0.43100
C 	C 	0.64573 0.69784 0.20530 0.03600
C 	C 	0.56214 0.69069 0.06944 0.37000
C 	C 	0.60708 0.64940 0.13986 0.03600
H 	H 	0.59890 0.61840 0.12630 0.02900
C 	C 	0.63002 0.74125 0.18037 -0.10700
H 	H 	0.63710 0.77250 0.19400 0.07100
C 	C 	0.63400 0.65189 0.18457 -0.10400
H 	H 	0.64420 0.62260 0.20040 0.06600
C 	C 	0.60425 0.73807 0.13610 0.03800
H 	H 	0.59460 0.76720 0.11970 0.03200
C 	C 	0.67007 0.74191 0.28335 -0.11100
H 	H 	0.64300 0.76340 0.27880 0.07000
C 	C 	0.59257 0.69237 0.11571 -0.11700
C 	C 	0.67733 0.70248 0.25038 0.04700
Cu	Cu	0.00000 0.50000 0.64436 0.87700
Cu	Cu	-0.00000 0.50000 0.74021 0.88200
Cu	Cu	-0.00000 0.50000 0.35564 0.87700
Cu	Cu	-0.00000 0.50000 0.25979 0.88100
Cu	Cu	0.64436 0.00000 0.50000 0.87700
Cu	Cu	0.74021 0.00000 0.50000 0.88200
Cu	Cu	0.35564 0.00000 0.50000 0.87700
Cu	Cu	0.25979 0.00000 0.50000 0.88100
Cu	Cu	0.50000 0.64436 -0.00000 0.87700
Cu	Cu	0.50000 0.74021 -0.00000 0.88200
Cu	Cu	0.50000 0.35564 -0.00000 0.87700
Cu	Cu	0.50000 0.25979 -0.00000 0.88100
