data_crystal

_cell_length_a 26.95600
_cell_length_b 26.95600
_cell_length_c 26.95600
_cell_angle_alpha 90.00000
_cell_angle_beta  90.00000
_cell_angle_gamma 90.00000

_symmetry_space_group_name_	'P 1'
_symmetry_space_group_name_H-M	'P 1'

loop_
_symmetry_equiv_pos_as_xyz
  x,y,z

loop_
_atom_site_label
_atom_site_type_symbol
_atom_site_fract_x
_atom_site_fract_y
_atom_site_fract_z
_atom_site_charge
O 	O 	0.44749 0.05040 0.14882 -0.43400
O 	O 	0.44842 0.04913 0.23091 -0.43700
C 	C 	0.29420 0.14530 0.19730 0.03800
C 	C 	0.43040 0.06190 0.19020 0.38300
C 	C 	0.35980 0.10650 0.14920 0.04100
H 	H 	0.37300 0.09790 0.11850 0.01500
C 	C 	0.31970 0.12970 0.24110 -0.12200
H 	H 	0.30640 0.13690 0.27210 0.07300
C 	C 	0.31500 0.13380 0.15140 -0.12000
H 	H 	0.29960 0.14400 0.12240 0.06000
C 	C 	0.36390 0.10420 0.23780 0.04700
H 	H 	0.38030 0.09470 0.26660 0.02500
C 	C 	0.21650 0.16950 0.24140 -0.11000
H 	H 	0.22080 0.14250 0.26250 0.06400
C 	C 	0.38430 0.09240 0.19210 -0.13300
C 	C 	0.24930 0.17700 0.20230 0.03700
O 	O 	0.55251 0.94960 0.14882 -0.39000
O 	O 	0.55158 0.95087 0.23091 -0.39300
C 	C 	0.70580 0.85470 0.19730 0.03800
C 	C 	0.56960 0.93810 0.19020 0.37900
C 	C 	0.64020 0.89350 0.14920 0.03800
H 	H 	0.62700 0.90210 0.11850 0.03300
C 	C 	0.68030 0.87030 0.24110 -0.10400
H 	H 	0.69360 0.86310 0.27210 0.07500
C 	C 	0.68500 0.86620 0.15140 -0.10400
H 	H 	0.70040 0.85600 0.12240 0.06700
C 	C 	0.63610 0.89580 0.23780 0.04200
H 	H 	0.61970 0.90530 0.26660 0.04000
C 	C 	0.78350 0.83050 0.24140 -0.11600
H 	H 	0.77920 0.85750 0.26250 0.07800
C 	C 	0.61570 0.90760 0.19210 -0.11000
C 	C 	0.75070 0.82300 0.20230 0.05200
O 	O 	0.55251 0.05040 0.85118 -0.42000
O 	O 	0.55158 0.04913 0.76909 -0.43500
C 	C 	0.70580 0.14530 0.80270 0.04000
C 	C 	0.56960 0.06190 0.80980 0.38100
C 	C 	0.64020 0.10650 0.85080 0.04200
H 	H 	0.62700 0.09790 0.88150 0.03300
C 	C 	0.68030 0.12970 0.75890 -0.11600
H 	H 	0.69360 0.13690 0.72790 0.07400
C 	C 	0.68500 0.13380 0.84860 -0.11300
H 	H 	0.70040 0.14400 0.87760 0.07600
C 	C 	0.63610 0.10420 0.76220 0.04500
H 	H 	0.61970 0.09470 0.73340 0.02700
C 	C 	0.78350 0.16950 0.75860 -0.11400
H 	H 	0.77920 0.14250 0.73750 0.07000
C 	C 	0.61570 0.09240 0.80790 -0.12600
C 	C 	0.75070 0.17700 0.79770 0.04900
O 	O 	0.44749 0.94960 0.85118 -0.37800
O 	O 	0.44842 0.95087 0.76909 -0.39200
C 	C 	0.29420 0.85470 0.80270 0.03800
C 	C 	0.43040 0.93810 0.80980 0.37600
C 	C 	0.35980 0.89350 0.85080 0.03700
H 	H 	0.37300 0.90210 0.88150 0.04800
C 	C 	0.31970 0.87030 0.75890 -0.10200
H 	H 	0.30640 0.86310 0.72790 0.07400
C 	C 	0.31500 0.86620 0.84860 -0.09900
H 	H 	0.29960 0.85600 0.87760 0.07700
C 	C 	0.36390 0.89580 0.76220 0.03900
H 	H 	0.38030 0.90530 0.73340 0.04100
C 	C 	0.21650 0.83050 0.75860 -0.11500
H 	H 	0.22080 0.85750 0.73750 0.07700
C 	C 	0.38430 0.90760 0.80790 -0.10400
C 	C 	0.24930 0.82300 0.79770 0.05400
O 	O 	0.14882 0.44749 0.05040 -0.43300
O 	O 	0.23091 0.44842 0.04913 -0.43600
C 	C 	0.19730 0.29420 0.14530 0.03900
C 	C 	0.19020 0.43040 0.06190 0.38400
C 	C 	0.14920 0.35980 0.10650 0.04200
H 	H 	0.11850 0.37300 0.09790 0.01600
C 	C 	0.24110 0.31970 0.12970 -0.12100
H 	H 	0.27210 0.30640 0.13690 0.07400
C 	C 	0.15140 0.31500 0.13380 -0.11900
H 	H 	0.12240 0.29960 0.14400 0.06000
C 	C 	0.23780 0.36390 0.10420 0.04700
H 	H 	0.26660 0.38030 0.09470 0.02500
C 	C 	0.24140 0.21650 0.16950 -0.11000
H 	H 	0.26250 0.22080 0.14250 0.06400
C 	C 	0.19210 0.38430 0.09240 -0.13300
C 	C 	0.20230 0.24930 0.17700 0.03700
O 	O 	0.14882 0.55251 0.94960 -0.39000
O 	O 	0.23091 0.55158 0.95087 -0.39300
C 	C 	0.19730 0.70580 0.85470 0.03800
C 	C 	0.19020 0.56960 0.93810 0.37900
C 	C 	0.14920 0.64020 0.89350 0.03800
H 	H 	0.11850 0.62700 0.90210 0.03300
C 	C 	0.24110 0.68030 0.87030 -0.10400
H 	H 	0.27210 0.69360 0.86310 0.07500
C 	C 	0.15140 0.68500 0.86620 -0.10400
H 	H 	0.12240 0.70040 0.85600 0.06700
C 	C 	0.23780 0.63610 0.89580 0.04200
H 	H 	0.26660 0.61970 0.90530 0.04000
C 	C 	0.24140 0.78350 0.83050 -0.11600
H 	H 	0.26250 0.77920 0.85750 0.07800
C 	C 	0.19210 0.61570 0.90760 -0.11000
C 	C 	0.20230 0.75070 0.82300 0.05200
O 	O 	0.85118 0.55251 0.05040 -0.42000
O 	O 	0.76909 0.55158 0.04913 -0.43500
C 	C 	0.80270 0.70580 0.14530 0.04000
C 	C 	0.80980 0.56960 0.06190 0.38100
C 	C 	0.85080 0.64020 0.10650 0.04200
H 	H 	0.88150 0.62700 0.09790 0.03300
C 	C 	0.75890 0.68030 0.12970 -0.11600
H 	H 	0.72790 0.69360 0.13690 0.07400
C 	C 	0.84860 0.68500 0.13380 -0.11300
H 	H 	0.87760 0.70040 0.14400 0.07600
C 	C 	0.76220 0.63610 0.10420 0.04500
H 	H 	0.73340 0.61970 0.09470 0.02700
C 	C 	0.75860 0.78350 0.16950 -0.11400
H 	H 	0.73750 0.77920 0.14250 0.07000
C 	C 	0.80790 0.61570 0.09240 -0.12600
C 	C 	0.79770 0.75070 0.17700 0.04900
O 	O 	0.85118 0.44749 0.94960 -0.37800
O 	O 	0.76909 0.44842 0.95087 -0.39200
C 	C 	0.80270 0.29420 0.85470 0.03800
C 	C 	0.80980 0.43040 0.93810 0.37600
C 	C 	0.85080 0.35980 0.89350 0.03700
H 	H 	0.88150 0.37300 0.90210 0.04800
C 	C 	0.75890 0.31970 0.87030 -0.10200
H 	H 	0.72790 0.30640 0.86310 0.07400
C 	C 	0.84860 0.31500 0.86620 -0.09900
H 	H 	0.87760 0.29960 0.85600 0.07700
C 	C 	0.76220 0.36390 0.89580 0.03900
H 	H 	0.73340 0.38030 0.90530 0.04100
C 	C 	0.75860 0.21650 0.83050 -0.11500
H 	H 	0.73750 0.22080 0.85750 0.07700
C 	C 	0.80790 0.38430 0.90760 -0.10400
C 	C 	0.79770 0.24930 0.82300 0.05400
O 	O 	0.05040 0.14882 0.44749 -0.43300
O 	O 	0.04913 0.23091 0.44842 -0.43600
C 	C 	0.14530 0.19730 0.29420 0.03900
C 	C 	0.06190 0.19020 0.43040 0.38400
C 	C 	0.10650 0.14920 0.35980 0.04200
H 	H 	0.09790 0.11850 0.37300 0.01600
C 	C 	0.12970 0.24110 0.31970 -0.12100
H 	H 	0.13690 0.27210 0.30640 0.07400
C 	C 	0.13380 0.15140 0.31500 -0.11900
H 	H 	0.14400 0.12240 0.29960 0.06000
C 	C 	0.10420 0.23780 0.36390 0.04700
H 	H 	0.09470 0.26660 0.38030 0.02500
C 	C 	0.16950 0.24140 0.21650 -0.11000
H 	H 	0.14250 0.26250 0.22080 0.06400
C 	C 	0.09240 0.19210 0.38430 -0.13300
C 	C 	0.17700 0.20230 0.24930 0.03700
O 	O 	0.94960 0.14882 0.55251 -0.39000
O 	O 	0.95087 0.23091 0.55158 -0.39300
C 	C 	0.85470 0.19730 0.70580 0.03800
C 	C 	0.93810 0.19020 0.56960 0.37900
C 	C 	0.89350 0.14920 0.64020 0.03800
H 	H 	0.90210 0.11850 0.62700 0.03300
C 	C 	0.87030 0.24110 0.68030 -0.10400
H 	H 	0.86310 0.27210 0.69360 0.07500
C 	C 	0.86620 0.15140 0.68500 -0.10400
H 	H 	0.85600 0.12240 0.70040 0.06700
C 	C 	0.89580 0.23780 0.63610 0.04200
H 	H 	0.90530 0.26660 0.61970 0.04000
C 	C 	0.83050 0.24140 0.78350 -0.11600
H 	H 	0.85750 0.26250 0.77920 0.07800
C 	C 	0.90760 0.19210 0.61570 -0.11000
C 	C 	0.82300 0.20230 0.75070 0.05200
O 	O 	0.05040 0.85118 0.55251 -0.42000
O 	O 	0.04913 0.76909 0.55158 -0.43500
C 	C 	0.14530 0.80270 0.70580 0.04000
C 	C 	0.06190 0.80980 0.56960 0.38100
C 	C 	0.10650 0.85080 0.64020 0.04200
H 	H 	0.09790 0.88150 0.62700 0.03300
C 	C 	0.12970 0.75890 0.68030 -0.11600
H 	H 	0.13690 0.72790 0.69360 0.07400
C 	C 	0.13380 0.84860 0.68500 -0.11300
H 	H 	0.14400 0.87760 0.70040 0.07600
C 	C 	0.10420 0.76220 0.63610 0.04500
H 	H 	0.09470 0.73340 0.61970 0.02700
C 	C 	0.16950 0.75860 0.78350 -0.11400
H 	H 	0.14250 0.73750 0.77920 0.07000
C 	C 	0.09240 0.80790 0.61570 -0.12600
C 	C 	0.17700 0.79770 0.75070 0.04900
O 	O 	0.94960 0.85118 0.44749 -0.37800
O 	O 	0.95087 0.76909 0.44842 -0.39200
C 	C 	0.85470 0.80270 0.29420 0.03800
C 	C 	0.93810 0.80980 0.43040 0.37600
C 	C 	0.89350 0.85080 0.35980 0.03700
H 	H 	0.90210 0.88150 0.37300 0.04800
C 	C 	0.87030 0.75890 0.31970 -0.10200
H 	H 	0.86310 0.72790 0.30640 0.07400
C 	C 	0.86620 0.84860 0.31500 -0.09900
H 	H 	0.85600 0.87760 0.29960 0.07700
C 	C 	0.89580 0.76220 0.36390 0.03900
H 	H 	0.90530 0.73340 0.38030 0.04100
C 	C 	0.83050 0.75860 0.21650 -0.11500
H 	H 	0.85750 0.73750 0.22080 0.07700
C 	C 	0.90760 0.80790 0.38430 -0.10400
C 	C 	0.82300 0.79770 0.24930 0.05400
O 	O 	0.55251 0.94960 0.85118 -0.37800
O 	O 	0.55158 0.95087 0.76909 -0.39200
C 	C 	0.70580 0.85470 0.80270 0.03900
C 	C 	0.56960 0.93810 0.80980 0.37600
C 	C 	0.64020 0.89350 0.85080 0.03800
H 	H 	0.62700 0.90210 0.88150 0.04900
C 	C 	0.68030 0.87030 0.75890 -0.10100
H 	H 	0.69360 0.86310 0.72790 0.07400
C 	C 	0.68500 0.86620 0.84860 -0.09800
H 	H 	0.70040 0.85600 0.87760 0.08000
C 	C 	0.63610 0.89580 0.76220 0.03900
H 	H 	0.61970 0.90530 0.73340 0.04200
C 	C 	0.78350 0.83050 0.75860 -0.11700
H 	H 	0.77920 0.85750 0.73750 0.08000
C 	C 	0.61570 0.90760 0.80790 -0.10300
C 	C 	0.75070 0.82300 0.79770 0.05900
O 	O 	0.44749 0.05040 0.85118 -0.42100
O 	O 	0.44842 0.04913 0.76909 -0.43500
C 	C 	0.29420 0.14530 0.80270 0.04000
C 	C 	0.43040 0.06190 0.80980 0.38100
C 	C 	0.35980 0.10650 0.85080 0.04100
H 	H 	0.37300 0.09790 0.88150 0.03100
C 	C 	0.31970 0.12970 0.75890 -0.11700
H 	H 	0.30640 0.13690 0.72790 0.07400
C 	C 	0.31500 0.13380 0.84860 -0.11400
H 	H 	0.29960 0.14400 0.87760 0.07300
C 	C 	0.36390 0.10420 0.76220 0.04500
H 	H 	0.38030 0.09470 0.73340 0.02700
C 	C 	0.21650 0.16950 0.75860 -0.11200
H 	H 	0.22080 0.14250 0.73750 0.06600
C 	C 	0.38430 0.09240 0.80790 -0.12700
C 	C 	0.24930 0.17700 0.79770 0.04400
O 	O 	0.44749 0.94960 0.14882 -0.39100
O 	O 	0.44842 0.95087 0.23091 -0.39300
C 	C 	0.29420 0.85470 0.19730 0.03700
C 	C 	0.43040 0.93810 0.19020 0.37900
C 	C 	0.35980 0.89350 0.14920 0.03700
H 	H 	0.37300 0.90210 0.11850 0.03200
C 	C 	0.31970 0.87030 0.24110 -0.10500
H 	H 	0.30640 0.86310 0.27210 0.07500
C 	C 	0.31500 0.86620 0.15140 -0.10500
H 	H 	0.29960 0.85600 0.12240 0.06400
C 	C 	0.36390 0.89580 0.23780 0.04100
H 	H 	0.38030 0.90530 0.26660 0.04000
C 	C 	0.21650 0.83050 0.24140 -0.11300
H 	H 	0.22080 0.85750 0.26250 0.07400
C 	C 	0.38430 0.90760 0.19210 -0.11000
C 	C 	0.24930 0.82300 0.20230 0.04700
O 	O 	0.55251 0.05040 0.14882 -0.43300
O 	O 	0.55158 0.04913 0.23091 -0.43600
C 	C 	0.70580 0.14530 0.19730 0.04000
C 	C 	0.56960 0.06190 0.19020 0.38400
C 	C 	0.64020 0.10650 0.14920 0.04300
H 	H 	0.62700 0.09790 0.11850 0.01700
C 	C 	0.68030 0.12970 0.24110 -0.12000
H 	H 	0.69360 0.13690 0.27210 0.07500
C 	C 	0.68500 0.13380 0.15140 -0.11800
H 	H 	0.70040 0.14400 0.12240 0.06200
C 	C 	0.63610 0.10420 0.23780 0.04700
H 	H 	0.61970 0.09470 0.26660 0.02500
C 	C 	0.78350 0.16950 0.24140 -0.11300
H 	H 	0.77920 0.14250 0.26250 0.06700
C 	C 	0.61570 0.09240 0.19210 -0.13300
C 	C 	0.75070 0.17700 0.20230 0.04200
O 	O 	0.85118 0.55251 0.94960 -0.37800
O 	O 	0.76909 0.55158 0.95087 -0.39200
C 	C 	0.80270 0.70580 0.85470 0.03900
C 	C 	0.80980 0.56960 0.93810 0.37600
C 	C 	0.85080 0.64020 0.89350 0.03800
H 	H 	0.88150 0.62700 0.90210 0.04900
C 	C 	0.75890 0.68030 0.87030 -0.10100
H 	H 	0.72790 0.69360 0.86310 0.07400
C 	C 	0.84860 0.68500 0.86620 -0.09800
H 	H 	0.87760 0.70040 0.85600 0.08000
C 	C 	0.76220 0.63610 0.89580 0.03900
H 	H 	0.73340 0.61970 0.90530 0.04200
C 	C 	0.75860 0.78350 0.83050 -0.11700
H 	H 	0.73750 0.77920 0.85750 0.08000
C 	C 	0.80790 0.61570 0.90760 -0.10300
C 	C 	0.79770 0.75070 0.82300 0.05900
O 	O 	0.85118 0.44749 0.05040 -0.42100
O 	O 	0.76909 0.44842 0.04913 -0.43500
C 	C 	0.80270 0.29420 0.14530 0.04000
C 	C 	0.80980 0.43040 0.06190 0.38100
C 	C 	0.85080 0.35980 0.10650 0.04100
H 	H 	0.88150 0.37300 0.09790 0.03100
C 	C 	0.75890 0.31970 0.12970 -0.11700
H 	H 	0.72790 0.30640 0.13690 0.07400
C 	C 	0.84860 0.31500 0.13380 -0.11400
H 	H 	0.87760 0.29960 0.14400 0.07300
C 	C 	0.76220 0.36390 0.10420 0.04500
H 	H 	0.73340 0.38030 0.09470 0.02700
C 	C 	0.75860 0.21650 0.16950 -0.11200
H 	H 	0.73750 0.22080 0.14250 0.06600
C 	C 	0.80790 0.38430 0.09240 -0.12700
C 	C 	0.79770 0.24930 0.17700 0.04400
O 	O 	0.14882 0.44749 0.94960 -0.39100
O 	O 	0.23091 0.44842 0.95087 -0.39300
C 	C 	0.19730 0.29420 0.85470 0.03700
C 	C 	0.19020 0.43040 0.93810 0.37900
C 	C 	0.14920 0.35980 0.89350 0.03700
H 	H 	0.11850 0.37300 0.90210 0.03200
C 	C 	0.24110 0.31970 0.87030 -0.10500
H 	H 	0.27210 0.30640 0.86310 0.07500
C 	C 	0.15140 0.31500 0.86620 -0.10500
H 	H 	0.12240 0.29960 0.85600 0.06400
C 	C 	0.23780 0.36390 0.89580 0.04100
H 	H 	0.26660 0.38030 0.90530 0.04000
C 	C 	0.24140 0.21650 0.83050 -0.11300
H 	H 	0.26250 0.22080 0.85750 0.07400
C 	C 	0.19210 0.38430 0.90760 -0.11000
C 	C 	0.20230 0.24930 0.82300 0.04700
O 	O 	0.14882 0.55251 0.05040 -0.43300
O 	O 	0.23091 0.55158 0.04913 -0.43600
C 	C 	0.19730 0.70580 0.14530 0.04000
C 	C 	0.19020 0.56960 0.06190 0.38400
C 	C 	0.14920 0.64020 0.10650 0.04300
H 	H 	0.11850 0.62700 0.09790 0.01700
C 	C 	0.24110 0.68030 0.12970 -0.12000
H 	H 	0.27210 0.69360 0.13690 0.07500
C 	C 	0.15140 0.68500 0.13380 -0.11800
H 	H 	0.12240 0.70040 0.14400 0.06200
C 	C 	0.23780 0.63610 0.10420 0.04700
H 	H 	0.26660 0.61970 0.09470 0.02500
C 	C 	0.24140 0.78350 0.16950 -0.11300
H 	H 	0.26250 0.77920 0.14250 0.06700
C 	C 	0.19210 0.61570 0.09240 -0.13300
C 	C 	0.20230 0.75070 0.17700 0.04200
O 	O 	0.94960 0.85118 0.55251 -0.37800
O 	O 	0.95087 0.76909 0.55158 -0.39200
C 	C 	0.85470 0.80270 0.70580 0.03900
C 	C 	0.93810 0.80980 0.56960 0.37600
C 	C 	0.89350 0.85080 0.64020 0.03800
H 	H 	0.90210 0.88150 0.62700 0.04900
C 	C 	0.87030 0.75890 0.68030 -0.10100
H 	H 	0.86310 0.72790 0.69360 0.07400
C 	C 	0.86620 0.84860 0.68500 -0.09800
H 	H 	0.85600 0.87760 0.70040 0.08000
C 	C 	0.89580 0.76220 0.63610 0.03900
H 	H 	0.90530 0.73340 0.61970 0.04200
C 	C 	0.83050 0.75860 0.78350 -0.11700
H 	H 	0.85750 0.73750 0.77920 0.08000
C 	C 	0.90760 0.80790 0.61570 -0.10300
C 	C 	0.82300 0.79770 0.75070 0.05900
O 	O 	0.05040 0.85118 0.44749 -0.42100
O 	O 	0.04913 0.76909 0.44842 -0.43500
C 	C 	0.14530 0.80270 0.29420 0.04000
C 	C 	0.06190 0.80980 0.43040 0.38100
C 	C 	0.10650 0.85080 0.35980 0.04100
H 	H 	0.09790 0.88150 0.37300 0.03100
C 	C 	0.12970 0.75890 0.31970 -0.11700
H 	H 	0.13690 0.72790 0.30640 0.07400
C 	C 	0.13380 0.84860 0.31500 -0.11400
H 	H 	0.14400 0.87760 0.29960 0.07300
C 	C 	0.10420 0.76220 0.36390 0.04500
H 	H 	0.09470 0.73340 0.38030 0.02700
C 	C 	0.16950 0.75860 0.21650 -0.11200
H 	H 	0.14250 0.73750 0.22080 0.06600
C 	C 	0.09240 0.80790 0.38430 -0.12700
C 	C 	0.17700 0.79770 0.24930 0.04400
O 	O 	0.94960 0.14882 0.44749 -0.39100
O 	O 	0.95087 0.23091 0.44842 -0.39300
C 	C 	0.85470 0.19730 0.29420 0.03700
C 	C 	0.93810 0.19020 0.43040 0.37900
C 	C 	0.89350 0.14920 0.35980 0.03700
H 	H 	0.90210 0.11850 0.37300 0.03200
C 	C 	0.87030 0.24110 0.31970 -0.10500
H 	H 	0.86310 0.27210 0.30640 0.07500
C 	C 	0.86620 0.15140 0.31500 -0.10500
H 	H 	0.85600 0.12240 0.29960 0.06400
C 	C 	0.89580 0.23780 0.36390 0.04100
H 	H 	0.90530 0.26660 0.38030 0.04000
C 	C 	0.83050 0.24140 0.21650 -0.11300
H 	H 	0.85750 0.26250 0.22080 0.07400
C 	C 	0.90760 0.19210 0.38430 -0.11000
C 	C 	0.82300 0.20230 0.24930 0.04700
O 	O 	0.05040 0.14882 0.55251 -0.43300
O 	O 	0.04913 0.23091 0.55158 -0.43600
C 	C 	0.14530 0.19730 0.70580 0.04000
C 	C 	0.06190 0.19020 0.56960 0.38400
C 	C 	0.10650 0.14920 0.64020 0.04300
H 	H 	0.09790 0.11850 0.62700 0.01700
C 	C 	0.12970 0.24110 0.68030 -0.12000
H 	H 	0.13690 0.27210 0.69360 0.07500
C 	C 	0.13380 0.15140 0.68500 -0.11800
H 	H 	0.14400 0.12240 0.70040 0.06200
C 	C 	0.10420 0.23780 0.63610 0.04700
H 	H 	0.09470 0.26660 0.61970 0.02500
C 	C 	0.16950 0.24140 0.78350 -0.11300
H 	H 	0.14250 0.26250 0.77920 0.06700
C 	C 	0.09240 0.19210 0.61570 -0.13300
C 	C 	0.17700 0.20230 0.75070 0.04200
Cu	Cu	0.50000 0.00000 0.14396 0.87400
Cu	Cu	0.50000 0.00000 0.24020 0.88300
Cu	Cu	0.50000 0.00000 0.85604 0.88000
Cu	Cu	0.50000 0.00000 0.75980 0.88200
Cu	Cu	0.14396 0.50000 -0.00000 0.87400
Cu	Cu	0.24020 0.50000 -0.00000 0.88300
Cu	Cu	0.85604 0.50000 -0.00000 0.88000
Cu	Cu	0.75980 0.50000 -0.00000 0.88200
Cu	Cu	0.00000 0.14396 0.50000 0.87400
Cu	Cu	0.00000 0.24020 0.50000 0.88300
Cu	Cu	0.00000 0.85604 0.50000 0.88000
Cu	Cu	0.00000 0.75980 0.50000 0.88200
O 	O 	0.94749 0.55040 0.64882 -0.38300
O 	O 	0.94842 0.54913 0.73091 -0.39100
C 	C 	0.79420 0.64530 0.69730 0.03400
C 	C 	0.93040 0.56190 0.69020 0.37400
C 	C 	0.85980 0.60650 0.64920 0.03300
H 	H 	0.87300 0.59790 0.61850 0.03900
C 	C 	0.81970 0.62970 0.74110 -0.10300
H 	H 	0.80640 0.63690 0.77210 0.07200
C 	C 	0.81500 0.63380 0.65140 -0.10200
H 	H 	0.79960 0.64400 0.62240 0.06800
C 	C 	0.86390 0.60420 0.73780 0.03600
H 	H 	0.88030 0.59470 0.76660 0.04100
C 	C 	0.71650 0.66950 0.74140 -0.11800
H 	H 	0.72080 0.64250 0.76250 0.07300
C 	C 	0.88430 0.59240 0.69210 -0.10600
C 	C 	0.74930 0.67700 0.70230 0.05200
O 	O 	0.05251 0.44960 0.64882 -0.42800
O 	O 	0.05158 0.45087 0.73091 -0.43500
C 	C 	0.20580 0.35470 0.69730 0.04200
C 	C 	0.06960 0.43810 0.69020 0.38500
C 	C 	0.14020 0.39350 0.64920 0.04500
H 	H 	0.12700 0.40210 0.61850 0.02600
C 	C 	0.18030 0.37030 0.74110 -0.11600
H 	H 	0.19360 0.36310 0.77210 0.07500
C 	C 	0.18500 0.36620 0.65140 -0.11400
H 	H 	0.20040 0.35600 0.62240 0.07100
C 	C 	0.13610 0.39580 0.73780 0.04800
H 	H 	0.11970 0.40530 0.76660 0.02800
C 	C 	0.28350 0.33050 0.74140 -0.11300
H 	H 	0.27920 0.35750 0.76250 0.07200
C 	C 	0.11570 0.40760 0.69210 -0.12800
C 	C 	0.25070 0.32300 0.70230 0.04600
O 	O 	0.05251 0.55040 0.35118 -0.42800
O 	O 	0.05158 0.54913 0.26909 -0.43700
C 	C 	0.20580 0.64530 0.30270 0.04300
C 	C 	0.06960 0.56190 0.30980 0.38600
C 	C 	0.14020 0.60650 0.35080 0.04600
H 	H 	0.12700 0.59790 0.38150 0.02600
C 	C 	0.18030 0.62970 0.25890 -0.11800
H 	H 	0.19360 0.63690 0.22790 0.07600
C 	C 	0.18500 0.63380 0.34860 -0.11500
H 	H 	0.20040 0.64400 0.37760 0.07100
C 	C 	0.13610 0.60420 0.26220 0.05000
H 	H 	0.11970 0.59470 0.23340 0.02600
C 	C 	0.28350 0.66950 0.25860 -0.11200
H 	H 	0.27920 0.64250 0.23750 0.07100
C 	C 	0.11570 0.59240 0.30790 -0.13000
C 	C 	0.25070 0.67700 0.29770 0.04600
O 	O 	0.94749 0.44960 0.35118 -0.38400
O 	O 	0.94842 0.45087 0.26909 -0.39300
C 	C 	0.79420 0.35470 0.30270 0.03600
C 	C 	0.93040 0.43810 0.30980 0.37500
C 	C 	0.85980 0.39350 0.35080 0.03500
H 	H 	0.87300 0.40210 0.38150 0.03800
C 	C 	0.81970 0.37030 0.25890 -0.10600
H 	H 	0.80640 0.36310 0.22790 0.07400
C 	C 	0.81500 0.36620 0.34860 -0.10400
H 	H 	0.79960 0.35600 0.37760 0.06900
C 	C 	0.86390 0.39580 0.26220 0.03900
H 	H 	0.88030 0.40530 0.23340 0.03900
C 	C 	0.71650 0.33050 0.25860 -0.11300
H 	H 	0.72080 0.35750 0.23750 0.07200
C 	C 	0.88430 0.40760 0.30790 -0.10900
C 	C 	0.74930 0.32300 0.29770 0.04900
O 	O 	0.64882 0.94749 0.55040 -0.38300
O 	O 	0.73091 0.94842 0.54913 -0.39100
C 	C 	0.69730 0.79420 0.64530 0.03400
C 	C 	0.69020 0.93040 0.56190 0.37400
C 	C 	0.64920 0.85980 0.60650 0.03300
H 	H 	0.61850 0.87300 0.59790 0.03900
C 	C 	0.74110 0.81970 0.62970 -0.10300
H 	H 	0.77210 0.80640 0.63690 0.07200
C 	C 	0.65140 0.81500 0.63380 -0.10200
H 	H 	0.62240 0.79960 0.64400 0.06800
C 	C 	0.73780 0.86390 0.60420 0.03600
H 	H 	0.76660 0.88030 0.59470 0.04100
C 	C 	0.74140 0.71650 0.66950 -0.11800
H 	H 	0.76250 0.72080 0.64250 0.07300
C 	C 	0.69210 0.88430 0.59240 -0.10600
C 	C 	0.70230 0.74930 0.67700 0.05200
O 	O 	0.64882 0.05251 0.44960 -0.42800
O 	O 	0.73091 0.05158 0.45087 -0.43500
C 	C 	0.69730 0.20580 0.35470 0.04200
C 	C 	0.69020 0.06960 0.43810 0.38500
C 	C 	0.64920 0.14020 0.39350 0.04500
H 	H 	0.61850 0.12700 0.40210 0.02600
C 	C 	0.74110 0.18030 0.37030 -0.11600
H 	H 	0.77210 0.19360 0.36310 0.07500
C 	C 	0.65140 0.18500 0.36620 -0.11400
H 	H 	0.62240 0.20040 0.35600 0.07100
C 	C 	0.73780 0.13610 0.39580 0.04800
H 	H 	0.76660 0.11970 0.40530 0.02800
C 	C 	0.74140 0.28350 0.33050 -0.11300
H 	H 	0.76250 0.27920 0.35750 0.07200
C 	C 	0.69210 0.11570 0.40760 -0.12800
C 	C 	0.70230 0.25070 0.32300 0.04600
O 	O 	0.35118 0.05251 0.55040 -0.42800
O 	O 	0.26909 0.05158 0.54913 -0.43700
C 	C 	0.30270 0.20580 0.64530 0.04300
C 	C 	0.30980 0.06960 0.56190 0.38600
C 	C 	0.35080 0.14020 0.60650 0.04600
H 	H 	0.38150 0.12700 0.59790 0.02600
C 	C 	0.25890 0.18030 0.62970 -0.11800
H 	H 	0.22790 0.19360 0.63690 0.07600
C 	C 	0.34860 0.18500 0.63380 -0.11500
H 	H 	0.37760 0.20040 0.64400 0.07100
C 	C 	0.26220 0.13610 0.60420 0.05000
H 	H 	0.23340 0.11970 0.59470 0.02600
C 	C 	0.25860 0.28350 0.66950 -0.11200
H 	H 	0.23750 0.27920 0.64250 0.07100
C 	C 	0.30790 0.11570 0.59240 -0.13000
C 	C 	0.29770 0.25070 0.67700 0.04600
O 	O 	0.35118 0.94749 0.44960 -0.38400
O 	O 	0.26909 0.94842 0.45087 -0.39300
C 	C 	0.30270 0.79420 0.35470 0.03600
C 	C 	0.30980 0.93040 0.43810 0.37500
C 	C 	0.35080 0.85980 0.39350 0.03500
H 	H 	0.38150 0.87300 0.40210 0.03800
C 	C 	0.25890 0.81970 0.37030 -0.10600
H 	H 	0.22790 0.80640 0.36310 0.07400
C 	C 	0.34860 0.81500 0.36620 -0.10400
H 	H 	0.37760 0.79960 0.35600 0.06900
C 	C 	0.26220 0.86390 0.39580 0.03900
H 	H 	0.23340 0.88030 0.40530 0.03900
C 	C 	0.25860 0.71650 0.33050 -0.11300
H 	H 	0.23750 0.72080 0.35750 0.07200
C 	C 	0.30790 0.88430 0.40760 -0.10900
C 	C 	0.29770 0.74930 0.32300 0.04900
O 	O 	0.55040 0.64882 0.94749 -0.38300
O 	O 	0.54913 0.73091 0.94842 -0.39100
C 	C 	0.64530 0.69730 0.79420 0.03400
C 	C 	0.56190 0.69020 0.93040 0.37400
C 	C 	0.60650 0.64920 0.85980 0.03300
H 	H 	0.59790 0.61850 0.87300 0.03900
C 	C 	0.62970 0.74110 0.81970 -0.10300
H 	H 	0.63690 0.77210 0.80640 0.07200
C 	C 	0.63380 0.65140 0.81500 -0.10200
H 	H 	0.64400 0.62240 0.79960 0.06800
C 	C 	0.60420 0.73780 0.86390 0.03600
H 	H 	0.59470 0.76660 0.88030 0.04100
C 	C 	0.66950 0.74140 0.71650 -0.11800
H 	H 	0.64250 0.76250 0.72080 0.07300
C 	C 	0.59240 0.69210 0.88430 -0.10600
C 	C 	0.67700 0.70230 0.74930 0.05200
O 	O 	0.44960 0.64882 0.05251 -0.42800
O 	O 	0.45087 0.73091 0.05158 -0.43500
C 	C 	0.35470 0.69730 0.20580 0.04200
C 	C 	0.43810 0.69020 0.06960 0.38500
C 	C 	0.39350 0.64920 0.14020 0.04500
H 	H 	0.40210 0.61850 0.12700 0.02600
C 	C 	0.37030 0.74110 0.18030 -0.11600
H 	H 	0.36310 0.77210 0.19360 0.07500
C 	C 	0.36620 0.65140 0.18500 -0.11400
H 	H 	0.35600 0.62240 0.20040 0.07100
C 	C 	0.39580 0.73780 0.13610 0.04800
H 	H 	0.40530 0.76660 0.11970 0.02800
C 	C 	0.33050 0.74140 0.28350 -0.11300
H 	H 	0.35750 0.76250 0.27920 0.07200
C 	C 	0.40760 0.69210 0.11570 -0.12800
C 	C 	0.32300 0.70230 0.25070 0.04600
O 	O 	0.55040 0.35118 0.05251 -0.42800
O 	O 	0.54913 0.26909 0.05158 -0.43700
C 	C 	0.64530 0.30270 0.20580 0.04300
C 	C 	0.56190 0.30980 0.06960 0.38600
C 	C 	0.60650 0.35080 0.14020 0.04600
H 	H 	0.59790 0.38150 0.12700 0.02600
C 	C 	0.62970 0.25890 0.18030 -0.11800
H 	H 	0.63690 0.22790 0.19360 0.07600
C 	C 	0.63380 0.34860 0.18500 -0.11500
H 	H 	0.64400 0.37760 0.20040 0.07100
C 	C 	0.60420 0.26220 0.13610 0.05000
H 	H 	0.59470 0.23340 0.11970 0.02600
C 	C 	0.66950 0.25860 0.28350 -0.11200
H 	H 	0.64250 0.23750 0.27920 0.07100
C 	C 	0.59240 0.30790 0.11570 -0.13000
C 	C 	0.67700 0.29770 0.25070 0.04600
O 	O 	0.44960 0.35118 0.94749 -0.38400
O 	O 	0.45087 0.26909 0.94842 -0.39300
C 	C 	0.35470 0.30270 0.79420 0.03600
C 	C 	0.43810 0.30980 0.93040 0.37500
C 	C 	0.39350 0.35080 0.85980 0.03500
H 	H 	0.40210 0.38150 0.87300 0.03800
C 	C 	0.37030 0.25890 0.81970 -0.10600
H 	H 	0.36310 0.22790 0.80640 0.07400
C 	C 	0.36620 0.34860 0.81500 -0.10400
H 	H 	0.35600 0.37760 0.79960 0.06900
C 	C 	0.39580 0.26220 0.86390 0.03900
H 	H 	0.40530 0.23340 0.88030 0.03900
C 	C 	0.33050 0.25860 0.71650 -0.11300
H 	H 	0.35750 0.23750 0.72080 0.07200
C 	C 	0.40760 0.30790 0.88430 -0.10900
C 	C 	0.32300 0.29770 0.74930 0.04900
O 	O 	0.05251 0.44960 0.35118 -0.42800
O 	O 	0.05158 0.45087 0.26909 -0.43800
C 	C 	0.20580 0.35470 0.30270 0.04400
C 	C 	0.06960 0.43810 0.30980 0.38600
C 	C 	0.14020 0.39350 0.35080 0.04600
H 	H 	0.12700 0.40210 0.38150 0.02600
C 	C 	0.18030 0.37030 0.25890 -0.11800
H 	H 	0.19360 0.36310 0.22790 0.07700
C 	C 	0.18500 0.36620 0.34860 -0.11600
H 	H 	0.20040 0.35600 0.37760 0.07100
C 	C 	0.13610 0.39580 0.26220 0.05000
H 	H 	0.11970 0.40530 0.23340 0.02600
C 	C 	0.28350 0.33050 0.25860 -0.11000
H 	H 	0.27920 0.35750 0.23750 0.07000
C 	C 	0.11570 0.40760 0.30790 -0.13000
C 	C 	0.25070 0.32300 0.29770 0.04500
O 	O 	0.94749 0.55040 0.35118 -0.38400
O 	O 	0.94842 0.54913 0.26909 -0.39300
C 	C 	0.79420 0.64530 0.30270 0.03500
C 	C 	0.93040 0.56190 0.30980 0.37500
C 	C 	0.85980 0.60650 0.35080 0.03500
H 	H 	0.87300 0.59790 0.38150 0.03800
C 	C 	0.81970 0.62970 0.25890 -0.10600
H 	H 	0.80640 0.63690 0.22790 0.07300
C 	C 	0.81500 0.63380 0.34860 -0.10400
H 	H 	0.79960 0.64400 0.37760 0.06900
C 	C 	0.86390 0.60420 0.26220 0.03800
H 	H 	0.88030 0.59470 0.23340 0.03900
C 	C 	0.71650 0.66950 0.25860 -0.11500
H 	H 	0.72080 0.64250 0.23750 0.07200
C 	C 	0.88430 0.59240 0.30790 -0.10800
C 	C 	0.74930 0.67700 0.29770 0.05000
O 	O 	0.94749 0.44960 0.64882 -0.38300
O 	O 	0.94842 0.45087 0.73091 -0.39100
C 	C 	0.79420 0.35470 0.69730 0.03500
C 	C 	0.93040 0.43810 0.69020 0.37400
C 	C 	0.85980 0.39350 0.64920 0.03400
H 	H 	0.87300 0.40210 0.61850 0.03800
C 	C 	0.81970 0.37030 0.74110 -0.10400
H 	H 	0.80640 0.36310 0.77210 0.07200
C 	C 	0.81500 0.36620 0.65140 -0.10300
H 	H 	0.79960 0.35600 0.62240 0.06900
C 	C 	0.86390 0.39580 0.73780 0.03700
H 	H 	0.88030 0.40530 0.76660 0.04100
C 	C 	0.71650 0.33050 0.74140 -0.11600
H 	H 	0.72080 0.35750 0.76250 0.07300
C 	C 	0.88430 0.40760 0.69210 -0.10700
C 	C 	0.74930 0.32300 0.70230 0.05000
O 	O 	0.05251 0.55040 0.64882 -0.42700
O 	O 	0.05158 0.54913 0.73091 -0.43500
C 	C 	0.20580 0.64530 0.69730 0.04100
C 	C 	0.06960 0.56190 0.69020 0.38500
C 	C 	0.14020 0.60650 0.64920 0.04400
H 	H 	0.12700 0.59790 0.61850 0.02600
C 	C 	0.18030 0.62970 0.74110 -0.11500
H 	H 	0.19360 0.63690 0.77210 0.07500
C 	C 	0.18500 0.63380 0.65140 -0.11300
H 	H 	0.20040 0.64400 0.62240 0.07000
C 	C 	0.13610 0.60420 0.73780 0.04800
H 	H 	0.11970 0.59470 0.76660 0.02800
C 	C 	0.28350 0.66950 0.74140 -0.11500
H 	H 	0.27920 0.64250 0.76250 0.07200
C 	C 	0.11570 0.59240 0.69210 -0.12800
C 	C 	0.25070 0.67700 0.70230 0.04800
O 	O 	0.35118 0.05251 0.44960 -0.42800
O 	O 	0.26909 0.05158 0.45087 -0.43800
C 	C 	0.30270 0.20580 0.35470 0.04400
C 	C 	0.30980 0.06960 0.43810 0.38600
C 	C 	0.35080 0.14020 0.39350 0.04600
H 	H 	0.38150 0.12700 0.40210 0.02600
C 	C 	0.25890 0.18030 0.37030 -0.11800
H 	H 	0.22790 0.19360 0.36310 0.07700
C 	C 	0.34860 0.18500 0.36620 -0.11600
H 	H 	0.37760 0.20040 0.35600 0.07100
C 	C 	0.26220 0.13610 0.39580 0.05000
H 	H 	0.23340 0.11970 0.40530 0.02600
C 	C 	0.25860 0.28350 0.33050 -0.11000
H 	H 	0.23750 0.27920 0.35750 0.07000
C 	C 	0.30790 0.11570 0.40760 -0.13000
C 	C 	0.29770 0.25070 0.32300 0.04500
O 	O 	0.35118 0.94749 0.55040 -0.38400
O 	O 	0.26909 0.94842 0.54913 -0.39300
C 	C 	0.30270 0.79420 0.64530 0.03500
C 	C 	0.30980 0.93040 0.56190 0.37500
C 	C 	0.35080 0.85980 0.60650 0.03500
H 	H 	0.38150 0.87300 0.59790 0.03800
C 	C 	0.25890 0.81970 0.62970 -0.10600
H 	H 	0.22790 0.80640 0.63690 0.07300
C 	C 	0.34860 0.81500 0.63380 -0.10400
H 	H 	0.37760 0.79960 0.64400 0.06900
C 	C 	0.26220 0.86390 0.60420 0.03800
H 	H 	0.23340 0.88030 0.59470 0.03900
C 	C 	0.25860 0.71650 0.66950 -0.11500
H 	H 	0.23750 0.72080 0.64250 0.07200
C 	C 	0.30790 0.88430 0.59240 -0.10800
C 	C 	0.29770 0.74930 0.67700 0.05000
O 	O 	0.64882 0.94749 0.44960 -0.38300
O 	O 	0.73091 0.94842 0.45087 -0.39100
C 	C 	0.69730 0.79420 0.35470 0.03500
C 	C 	0.69020 0.93040 0.43810 0.37400
C 	C 	0.64920 0.85980 0.39350 0.03400
H 	H 	0.61850 0.87300 0.40210 0.03800
C 	C 	0.74110 0.81970 0.37030 -0.10400
H 	H 	0.77210 0.80640 0.36310 0.07200
C 	C 	0.65140 0.81500 0.36620 -0.10300
H 	H 	0.62240 0.79960 0.35600 0.06900
C 	C 	0.73780 0.86390 0.39580 0.03700
H 	H 	0.76660 0.88030 0.40530 0.04100
C 	C 	0.74140 0.71650 0.33050 -0.11600
H 	H 	0.76250 0.72080 0.35750 0.07300
C 	C 	0.69210 0.88430 0.40760 -0.10700
C 	C 	0.70230 0.74930 0.32300 0.05000
O 	O 	0.64882 0.05251 0.55040 -0.42700
O 	O 	0.73091 0.05158 0.54913 -0.43500
C 	C 	0.69730 0.20580 0.64530 0.04100
C 	C 	0.69020 0.06960 0.56190 0.38500
C 	C 	0.64920 0.14020 0.60650 0.04400
H 	H 	0.61850 0.12700 0.59790 0.02600
C 	C 	0.74110 0.18030 0.62970 -0.11500
H 	H 	0.77210 0.19360 0.63690 0.07500
C 	C 	0.65140 0.18500 0.63380 -0.11300
H 	H 	0.62240 0.20040 0.64400 0.07000
C 	C 	0.73780 0.13610 0.60420 0.04800
H 	H 	0.76660 0.11970 0.59470 0.02800
C 	C 	0.74140 0.28350 0.66950 -0.11500
H 	H 	0.76250 0.27920 0.64250 0.07200
C 	C 	0.69210 0.11570 0.59240 -0.12800
C 	C 	0.70230 0.25070 0.67700 0.04800
O 	O 	0.44960 0.35118 0.05251 -0.42800
O 	O 	0.45087 0.26909 0.05158 -0.43800
C 	C 	0.35470 0.30270 0.20580 0.04400
C 	C 	0.43810 0.30980 0.06960 0.38600
C 	C 	0.39350 0.35080 0.14020 0.04600
H 	H 	0.40210 0.38150 0.12700 0.02600
C 	C 	0.37030 0.25890 0.18030 -0.11800
H 	H 	0.36310 0.22790 0.19360 0.07700
C 	C 	0.36620 0.34860 0.18500 -0.11600
H 	H 	0.35600 0.37760 0.20040 0.07100
C 	C 	0.39580 0.26220 0.13610 0.05000
H 	H 	0.40530 0.23340 0.11970 0.02600
C 	C 	0.33050 0.25860 0.28350 -0.11000
H 	H 	0.35750 0.23750 0.27920 0.07000
C 	C 	0.40760 0.30790 0.11570 -0.13000
C 	C 	0.32300 0.29770 0.25070 0.04500
O 	O 	0.55040 0.35118 0.94749 -0.38400
O 	O 	0.54913 0.26909 0.94842 -0.39300
C 	C 	0.64530 0.30270 0.79420 0.03500
C 	C 	0.56190 0.30980 0.93040 0.37500
C 	C 	0.60650 0.35080 0.85980 0.03500
H 	H 	0.59790 0.38150 0.87300 0.03800
C 	C 	0.62970 0.25890 0.81970 -0.10600
H 	H 	0.63690 0.22790 0.80640 0.07300
C 	C 	0.63380 0.34860 0.81500 -0.10400
H 	H 	0.64400 0.37760 0.79960 0.06900
C 	C 	0.60420 0.26220 0.86390 0.03800
H 	H 	0.59470 0.23340 0.88030 0.03900
C 	C 	0.66950 0.25860 0.71650 -0.11500
H 	H 	0.64250 0.23750 0.72080 0.07200
C 	C 	0.59240 0.30790 0.88430 -0.10800
C 	C 	0.67700 0.29770 0.74930 0.05000
O 	O 	0.44960 0.64882 0.94749 -0.38300
O 	O 	0.45087 0.73091 0.94842 -0.39100
C 	C 	0.35470 0.69730 0.79420 0.03500
C 	C 	0.43810 0.69020 0.93040 0.37400
C 	C 	0.39350 0.64920 0.85980 0.03400
H 	H 	0.40210 0.61850 0.87300 0.03800
C 	C 	0.37030 0.74110 0.81970 -0.10400
H 	H 	0.36310 0.77210 0.80640 0.07200
C 	C 	0.36620 0.65140 0.81500 -0.10300
H 	H 	0.35600 0.62240 0.79960 0.06900
C 	C 	0.39580 0.73780 0.86390 0.03700
H 	H 	0.40530 0.76660 0.88030 0.04100
C 	C 	0.33050 0.74140 0.71650 -0.11600
H 	H 	0.35750 0.76250 0.72080 0.07300
C 	C 	0.40760 0.69210 0.88430 -0.10700
C 	C 	0.32300 0.70230 0.74930 0.05000
O 	O 	0.55040 0.64882 0.05251 -0.42700
O 	O 	0.54913 0.73091 0.05158 -0.43500
C 	C 	0.64530 0.69730 0.20580 0.04100
C 	C 	0.56190 0.69020 0.06960 0.38500
C 	C 	0.60650 0.64920 0.14020 0.04400
H 	H 	0.59790 0.61850 0.12700 0.02600
C 	C 	0.62970 0.74110 0.18030 -0.11500
H 	H 	0.63690 0.77210 0.19360 0.07500
C 	C 	0.63380 0.65140 0.18500 -0.11300
H 	H 	0.64400 0.62240 0.20040 0.07000
C 	C 	0.60420 0.73780 0.13610 0.04800
H 	H 	0.59470 0.76660 0.11970 0.02800
C 	C 	0.66950 0.74140 0.28350 -0.11500
H 	H 	0.64250 0.76250 0.27920 0.07200
C 	C 	0.59240 0.69210 0.11570 -0.12800
C 	C 	0.67700 0.70230 0.25070 0.04800
Cu	Cu	0.00000 0.50000 0.64396 0.87700
Cu	Cu	0.00000 0.50000 0.74020 0.88300
Cu	Cu	0.00000 0.50000 0.35604 0.87700
Cu	Cu	0.00000 0.50000 0.25980 0.88200
Cu	Cu	0.64396 0.00000 0.50000 0.87700
Cu	Cu	0.74020 0.00000 0.50000 0.88300
Cu	Cu	0.35604 0.00000 0.50000 0.87700
Cu	Cu	0.25980 0.00000 0.50000 0.88200
Cu	Cu	0.50000 0.64396 -0.00000 0.87700
Cu	Cu	0.50000 0.74020 -0.00000 0.88300
Cu	Cu	0.50000 0.35604 -0.00000 0.87700
Cu	Cu	0.50000 0.25980 -0.00000 0.88200
