data_crystal

_cell_length_a 26.92500
_cell_length_b 26.92500
_cell_length_c 26.92500
_cell_angle_alpha 90.00000
_cell_angle_beta  90.00000
_cell_angle_gamma 90.00000

_symmetry_space_group_name_	'P 1'
_symmetry_space_group_name_H-M	'P 1'

loop_
_symmetry_equiv_pos_as_xyz
  x,y,z

loop_
_atom_site_label
_atom_site_type_symbol
_atom_site_fract_x
_atom_site_fract_y
_atom_site_fract_z
_atom_site_charge
O 	O 	0.44746 0.05035 0.14880 -0.43600
O 	O 	0.44860 0.04880 0.23110 -0.43600
C 	C 	0.29400 0.14470 0.19700 0.03800
C 	C 	0.43060 0.06200 0.19000 0.38200
C 	C 	0.36000 0.10640 0.14910 0.04100
H 	H 	0.37360 0.09800 0.11850 0.01500
C 	C 	0.31940 0.12910 0.24090 -0.12300
H 	H 	0.30590 0.13600 0.27190 0.07400
C 	C 	0.31500 0.13370 0.15090 -0.11900
H 	H 	0.29970 0.14410 0.12170 0.05800
C 	C 	0.36370 0.10390 0.23750 0.04800
H 	H 	0.38030 0.09470 0.26640 0.02300
C 	C 	0.21640 0.16940 0.24120 -0.11200
H 	H 	0.22110 0.14260 0.26250 0.06300
C 	C 	0.38400 0.09200 0.19210 -0.13500
C 	C 	0.24910 0.17670 0.20190 0.03700
O 	O 	0.55254 0.94965 0.14880 -0.39200
O 	O 	0.55140 0.95120 0.23110 -0.39300
C 	C 	0.70600 0.85530 0.19700 0.03700
C 	C 	0.56940 0.93800 0.19000 0.37600
C 	C 	0.64000 0.89360 0.14910 0.03600
H 	H 	0.62640 0.90200 0.11850 0.03300
C 	C 	0.68060 0.87090 0.24090 -0.10600
H 	H 	0.69410 0.86400 0.27190 0.07400
C 	C 	0.68500 0.86630 0.15090 -0.10300
H 	H 	0.70030 0.85590 0.12170 0.06500
C 	C 	0.63630 0.89610 0.23750 0.04200
H 	H 	0.61970 0.90530 0.26640 0.04000
C 	C 	0.78360 0.83060 0.24120 -0.11700
H 	H 	0.77890 0.85740 0.26250 0.07800
C 	C 	0.61600 0.90800 0.19210 -0.10900
C 	C 	0.75090 0.82330 0.20190 0.05300
O 	O 	0.55254 0.05035 0.85120 -0.42100
O 	O 	0.55140 0.04880 0.76890 -0.43400
C 	C 	0.70600 0.14470 0.80300 0.04000
C 	C 	0.56940 0.06200 0.81000 0.38000
C 	C 	0.64000 0.10640 0.85090 0.04200
H 	H 	0.62640 0.09800 0.88150 0.03300
C 	C 	0.68060 0.12910 0.75910 -0.11800
H 	H 	0.69410 0.13600 0.72810 0.07400
C 	C 	0.68500 0.13370 0.84910 -0.11100
H 	H 	0.70030 0.14410 0.87830 0.07500
C 	C 	0.63630 0.10390 0.76250 0.04700
H 	H 	0.61970 0.09470 0.73360 0.02600
C 	C 	0.78360 0.16940 0.75880 -0.11500
H 	H 	0.77890 0.14260 0.73750 0.07000
C 	C 	0.61600 0.09200 0.80790 -0.12700
C 	C 	0.75090 0.17670 0.79810 0.05000
O 	O 	0.44746 0.94965 0.85120 -0.37900
O 	O 	0.44860 0.95120 0.76890 -0.39000
C 	C 	0.29400 0.85530 0.80300 0.03700
C 	C 	0.43060 0.93800 0.81000 0.37300
C 	C 	0.36000 0.89360 0.85090 0.03600
H 	H 	0.37360 0.90200 0.88150 0.04800
C 	C 	0.31940 0.87090 0.75910 -0.10300
H 	H 	0.30590 0.86400 0.72810 0.07400
C 	C 	0.31500 0.86630 0.84910 -0.09700
H 	H 	0.29970 0.85590 0.87830 0.07700
C 	C 	0.36370 0.89610 0.76250 0.04000
H 	H 	0.38030 0.90530 0.73360 0.04100
C 	C 	0.21640 0.83060 0.75880 -0.11600
H 	H 	0.22110 0.85740 0.73750 0.07700
C 	C 	0.38400 0.90800 0.80790 -0.10300
C 	C 	0.24910 0.82330 0.79810 0.05500
O 	O 	0.14880 0.44746 0.05035 -0.43500
O 	O 	0.23110 0.44860 0.04880 -0.43500
C 	C 	0.19700 0.29400 0.14470 0.03900
C 	C 	0.19000 0.43060 0.06200 0.38300
C 	C 	0.14910 0.36000 0.10640 0.04200
H 	H 	0.11850 0.37360 0.09800 0.01600
C 	C 	0.24090 0.31940 0.12910 -0.12200
H 	H 	0.27190 0.30590 0.13600 0.07500
C 	C 	0.15090 0.31500 0.13370 -0.11800
H 	H 	0.12170 0.29970 0.14410 0.05900
C 	C 	0.23750 0.36370 0.10390 0.04900
H 	H 	0.26640 0.38030 0.09470 0.02400
C 	C 	0.24120 0.21640 0.16940 -0.11100
H 	H 	0.26250 0.22110 0.14260 0.06400
C 	C 	0.19210 0.38400 0.09200 -0.13400
C 	C 	0.20190 0.24910 0.17670 0.03800
O 	O 	0.14880 0.55254 0.94965 -0.39100
O 	O 	0.23110 0.55140 0.95120 -0.39200
C 	C 	0.19700 0.70600 0.85530 0.03800
C 	C 	0.19000 0.56940 0.93800 0.37700
C 	C 	0.14910 0.64000 0.89360 0.03700
H 	H 	0.11850 0.62640 0.90200 0.03400
C 	C 	0.24090 0.68060 0.87090 -0.10500
H 	H 	0.27190 0.69410 0.86400 0.07500
C 	C 	0.15090 0.68500 0.86630 -0.10200
H 	H 	0.12170 0.70030 0.85590 0.06600
C 	C 	0.23750 0.63630 0.89610 0.04300
H 	H 	0.26640 0.61970 0.90530 0.04000
C 	C 	0.24120 0.78360 0.83060 -0.11700
H 	H 	0.26250 0.77890 0.85740 0.07800
C 	C 	0.19210 0.61600 0.90800 -0.10900
C 	C 	0.20190 0.75090 0.82330 0.05300
O 	O 	0.85120 0.55254 0.05035 -0.42100
O 	O 	0.76890 0.55140 0.04880 -0.43400
C 	C 	0.80300 0.70600 0.14470 0.04000
C 	C 	0.81000 0.56940 0.06200 0.38000
C 	C 	0.85090 0.64000 0.10640 0.04200
H 	H 	0.88150 0.62640 0.09800 0.03300
C 	C 	0.75910 0.68060 0.12910 -0.11800
H 	H 	0.72810 0.69410 0.13600 0.07400
C 	C 	0.84910 0.68500 0.13370 -0.11100
H 	H 	0.87830 0.70030 0.14410 0.07500
C 	C 	0.76250 0.63630 0.10390 0.04700
H 	H 	0.73360 0.61970 0.09470 0.02600
C 	C 	0.75880 0.78360 0.16940 -0.11500
H 	H 	0.73750 0.77890 0.14260 0.07000
C 	C 	0.80790 0.61600 0.09200 -0.12700
C 	C 	0.79810 0.75090 0.17670 0.05000
O 	O 	0.85120 0.44746 0.94965 -0.37900
O 	O 	0.76890 0.44860 0.95120 -0.39000
C 	C 	0.80300 0.29400 0.85530 0.03700
C 	C 	0.81000 0.43060 0.93800 0.37300
C 	C 	0.85090 0.36000 0.89360 0.03600
H 	H 	0.88150 0.37360 0.90200 0.04800
C 	C 	0.75910 0.31940 0.87090 -0.10300
H 	H 	0.72810 0.30590 0.86400 0.07400
C 	C 	0.84910 0.31500 0.86630 -0.09700
H 	H 	0.87830 0.29970 0.85590 0.07700
C 	C 	0.76250 0.36370 0.89610 0.04000
H 	H 	0.73360 0.38030 0.90530 0.04100
C 	C 	0.75880 0.21640 0.83060 -0.11600
H 	H 	0.73750 0.22110 0.85740 0.07700
C 	C 	0.80790 0.38400 0.90800 -0.10300
C 	C 	0.79810 0.24910 0.82330 0.05500
O 	O 	0.05035 0.14880 0.44746 -0.43500
O 	O 	0.04880 0.23110 0.44860 -0.43500
C 	C 	0.14470 0.19700 0.29400 0.03900
C 	C 	0.06200 0.19000 0.43060 0.38300
C 	C 	0.10640 0.14910 0.36000 0.04200
H 	H 	0.09800 0.11850 0.37360 0.01600
C 	C 	0.12910 0.24090 0.31940 -0.12200
H 	H 	0.13600 0.27190 0.30590 0.07500
C 	C 	0.13370 0.15090 0.31500 -0.11800
H 	H 	0.14410 0.12170 0.29970 0.05900
C 	C 	0.10390 0.23750 0.36370 0.04900
H 	H 	0.09470 0.26640 0.38030 0.02400
C 	C 	0.16940 0.24120 0.21640 -0.11100
H 	H 	0.14260 0.26250 0.22110 0.06400
C 	C 	0.09200 0.19210 0.38400 -0.13400
C 	C 	0.17670 0.20190 0.24910 0.03800
O 	O 	0.94965 0.14880 0.55254 -0.39100
O 	O 	0.95120 0.23110 0.55140 -0.39200
C 	C 	0.85530 0.19700 0.70600 0.03800
C 	C 	0.93800 0.19000 0.56940 0.37700
C 	C 	0.89360 0.14910 0.64000 0.03700
H 	H 	0.90200 0.11850 0.62640 0.03400
C 	C 	0.87090 0.24090 0.68060 -0.10500
H 	H 	0.86400 0.27190 0.69410 0.07500
C 	C 	0.86630 0.15090 0.68500 -0.10200
H 	H 	0.85590 0.12170 0.70030 0.06600
C 	C 	0.89610 0.23750 0.63630 0.04300
H 	H 	0.90530 0.26640 0.61970 0.04000
C 	C 	0.83060 0.24120 0.78360 -0.11700
H 	H 	0.85740 0.26250 0.77890 0.07800
C 	C 	0.90800 0.19210 0.61600 -0.10900
C 	C 	0.82330 0.20190 0.75090 0.05300
O 	O 	0.05035 0.85120 0.55254 -0.42100
O 	O 	0.04880 0.76890 0.55140 -0.43400
C 	C 	0.14470 0.80300 0.70600 0.04000
C 	C 	0.06200 0.81000 0.56940 0.38000
C 	C 	0.10640 0.85090 0.64000 0.04200
H 	H 	0.09800 0.88150 0.62640 0.03300
C 	C 	0.12910 0.75910 0.68060 -0.11800
H 	H 	0.13600 0.72810 0.69410 0.07400
C 	C 	0.13370 0.84910 0.68500 -0.11100
H 	H 	0.14410 0.87830 0.70030 0.07500
C 	C 	0.10390 0.76250 0.63630 0.04700
H 	H 	0.09470 0.73360 0.61970 0.02600
C 	C 	0.16940 0.75880 0.78360 -0.11500
H 	H 	0.14260 0.73750 0.77890 0.07000
C 	C 	0.09200 0.80790 0.61600 -0.12700
C 	C 	0.17670 0.79810 0.75090 0.05000
O 	O 	0.94965 0.85120 0.44746 -0.37900
O 	O 	0.95120 0.76890 0.44860 -0.39000
C 	C 	0.85530 0.80300 0.29400 0.03700
C 	C 	0.93800 0.81000 0.43060 0.37300
C 	C 	0.89360 0.85090 0.36000 0.03600
H 	H 	0.90200 0.88150 0.37360 0.04800
C 	C 	0.87090 0.75910 0.31940 -0.10300
H 	H 	0.86400 0.72810 0.30590 0.07400
C 	C 	0.86630 0.84910 0.31500 -0.09700
H 	H 	0.85590 0.87830 0.29970 0.07700
C 	C 	0.89610 0.76250 0.36370 0.04000
H 	H 	0.90530 0.73360 0.38030 0.04100
C 	C 	0.83060 0.75880 0.21640 -0.11600
H 	H 	0.85740 0.73750 0.22110 0.07700
C 	C 	0.90800 0.80790 0.38400 -0.10300
C 	C 	0.82330 0.79810 0.24910 0.05500
O 	O 	0.55254 0.94965 0.85120 -0.37800
O 	O 	0.55140 0.95120 0.76890 -0.39000
C 	C 	0.70600 0.85530 0.80300 0.03800
C 	C 	0.56940 0.93800 0.81000 0.37400
C 	C 	0.64000 0.89360 0.85090 0.03600
H 	H 	0.62640 0.90200 0.88150 0.04900
C 	C 	0.68060 0.87090 0.75910 -0.10200
H 	H 	0.69410 0.86400 0.72810 0.07400
C 	C 	0.68500 0.86630 0.84910 -0.09600
H 	H 	0.70030 0.85590 0.87830 0.08000
C 	C 	0.63630 0.89610 0.76250 0.04000
H 	H 	0.61970 0.90530 0.73360 0.04100
C 	C 	0.78360 0.83060 0.75880 -0.11800
H 	H 	0.77890 0.85740 0.73750 0.08000
C 	C 	0.61600 0.90800 0.80790 -0.10300
C 	C 	0.75090 0.82330 0.79810 0.06000
O 	O 	0.44746 0.05035 0.85120 -0.42200
O 	O 	0.44860 0.04880 0.76890 -0.43400
C 	C 	0.29400 0.14470 0.80300 0.03900
C 	C 	0.43060 0.06200 0.81000 0.38000
C 	C 	0.36000 0.10640 0.85090 0.04100
H 	H 	0.37360 0.09800 0.88150 0.03200
C 	C 	0.31940 0.12910 0.75910 -0.11900
H 	H 	0.30590 0.13600 0.72810 0.07400
C 	C 	0.31500 0.13370 0.84910 -0.11200
H 	H 	0.29970 0.14410 0.87830 0.07200
C 	C 	0.36370 0.10390 0.76250 0.04700
H 	H 	0.38030 0.09470 0.73360 0.02600
C 	C 	0.21640 0.16940 0.75880 -0.11300
H 	H 	0.22110 0.14260 0.73750 0.06700
C 	C 	0.38400 0.09200 0.80790 -0.12700
C 	C 	0.24910 0.17670 0.79810 0.04500
O 	O 	0.44746 0.94965 0.14880 -0.39100
O 	O 	0.44860 0.95120 0.23110 -0.39200
C 	C 	0.29400 0.85530 0.19700 0.03700
C 	C 	0.43060 0.93800 0.19000 0.37700
C 	C 	0.36000 0.89360 0.14910 0.03600
H 	H 	0.37360 0.90200 0.11850 0.03300
C 	C 	0.31940 0.87090 0.24090 -0.10600
H 	H 	0.30590 0.86400 0.27190 0.07500
C 	C 	0.31500 0.86630 0.15090 -0.10300
H 	H 	0.29970 0.85590 0.12170 0.06300
C 	C 	0.36370 0.89610 0.23750 0.04300
H 	H 	0.38030 0.90530 0.26640 0.03900
C 	C 	0.21640 0.83060 0.24120 -0.11400
H 	H 	0.22110 0.85740 0.26250 0.07400
C 	C 	0.38400 0.90800 0.19210 -0.11000
C 	C 	0.24910 0.82330 0.20190 0.04800
O 	O 	0.55254 0.05035 0.14880 -0.43400
O 	O 	0.55140 0.04880 0.23110 -0.43500
C 	C 	0.70600 0.14470 0.19700 0.03900
C 	C 	0.56940 0.06200 0.19000 0.38300
C 	C 	0.64000 0.10640 0.14910 0.04200
H 	H 	0.62640 0.09800 0.11850 0.01700
C 	C 	0.68060 0.12910 0.24090 -0.12100
H 	H 	0.69410 0.13600 0.27190 0.07500
C 	C 	0.68500 0.13370 0.15090 -0.11700
H 	H 	0.70030 0.14410 0.12170 0.06200
C 	C 	0.63630 0.10390 0.23750 0.05000
H 	H 	0.61970 0.09470 0.26640 0.02500
C 	C 	0.78360 0.16940 0.24120 -0.11300
H 	H 	0.77890 0.14260 0.26250 0.06800
C 	C 	0.61600 0.09200 0.19210 -0.13300
C 	C 	0.75090 0.17670 0.20190 0.04300
O 	O 	0.85120 0.55254 0.94965 -0.37800
O 	O 	0.76890 0.55140 0.95120 -0.39000
C 	C 	0.80300 0.70600 0.85530 0.03800
C 	C 	0.81000 0.56940 0.93800 0.37400
C 	C 	0.85090 0.64000 0.89360 0.03600
H 	H 	0.88150 0.62640 0.90200 0.04900
C 	C 	0.75910 0.68060 0.87090 -0.10200
H 	H 	0.72810 0.69410 0.86400 0.07400
C 	C 	0.84910 0.68500 0.86630 -0.09600
H 	H 	0.87830 0.70030 0.85590 0.08000
C 	C 	0.76250 0.63630 0.89610 0.04000
H 	H 	0.73360 0.61970 0.90530 0.04100
C 	C 	0.75880 0.78360 0.83060 -0.11800
H 	H 	0.73750 0.77890 0.85740 0.08000
C 	C 	0.80790 0.61600 0.90800 -0.10300
C 	C 	0.79810 0.75090 0.82330 0.06000
O 	O 	0.85120 0.44746 0.05035 -0.42200
O 	O 	0.76890 0.44860 0.04880 -0.43400
C 	C 	0.80300 0.29400 0.14470 0.03900
C 	C 	0.81000 0.43060 0.06200 0.38000
C 	C 	0.85090 0.36000 0.10640 0.04100
H 	H 	0.88150 0.37360 0.09800 0.03200
C 	C 	0.75910 0.31940 0.12910 -0.11900
H 	H 	0.72810 0.30590 0.13600 0.07400
C 	C 	0.84910 0.31500 0.13370 -0.11200
H 	H 	0.87830 0.29970 0.14410 0.07200
C 	C 	0.76250 0.36370 0.10390 0.04700
H 	H 	0.73360 0.38030 0.09470 0.02600
C 	C 	0.75880 0.21640 0.16940 -0.11300
H 	H 	0.73750 0.22110 0.14260 0.06700
C 	C 	0.80790 0.38400 0.09200 -0.12700
C 	C 	0.79810 0.24910 0.17670 0.04500
O 	O 	0.14880 0.44746 0.94965 -0.39100
O 	O 	0.23110 0.44860 0.95120 -0.39200
C 	C 	0.19700 0.29400 0.85530 0.03700
C 	C 	0.19000 0.43060 0.93800 0.37700
C 	C 	0.14910 0.36000 0.89360 0.03600
H 	H 	0.11850 0.37360 0.90200 0.03300
C 	C 	0.24090 0.31940 0.87090 -0.10600
H 	H 	0.27190 0.30590 0.86400 0.07500
C 	C 	0.15090 0.31500 0.86630 -0.10300
H 	H 	0.12170 0.29970 0.85590 0.06300
C 	C 	0.23750 0.36370 0.89610 0.04300
H 	H 	0.26640 0.38030 0.90530 0.03900
C 	C 	0.24120 0.21640 0.83060 -0.11400
H 	H 	0.26250 0.22110 0.85740 0.07400
C 	C 	0.19210 0.38400 0.90800 -0.11000
C 	C 	0.20190 0.24910 0.82330 0.04800
O 	O 	0.14880 0.55254 0.05035 -0.43400
O 	O 	0.23110 0.55140 0.04880 -0.43500
C 	C 	0.19700 0.70600 0.14470 0.03900
C 	C 	0.19000 0.56940 0.06200 0.38300
C 	C 	0.14910 0.64000 0.10640 0.04200
H 	H 	0.11850 0.62640 0.09800 0.01700
C 	C 	0.24090 0.68060 0.12910 -0.12100
H 	H 	0.27190 0.69410 0.13600 0.07500
C 	C 	0.15090 0.68500 0.13370 -0.11700
H 	H 	0.12170 0.70030 0.14410 0.06200
C 	C 	0.23750 0.63630 0.10390 0.05000
H 	H 	0.26640 0.61970 0.09470 0.02500
C 	C 	0.24120 0.78360 0.16940 -0.11300
H 	H 	0.26250 0.77890 0.14260 0.06800
C 	C 	0.19210 0.61600 0.09200 -0.13300
C 	C 	0.20190 0.75090 0.17670 0.04300
O 	O 	0.94965 0.85120 0.55254 -0.37800
O 	O 	0.95120 0.76890 0.55140 -0.39000
C 	C 	0.85530 0.80300 0.70600 0.03800
C 	C 	0.93800 0.81000 0.56940 0.37400
C 	C 	0.89360 0.85090 0.64000 0.03600
H 	H 	0.90200 0.88150 0.62640 0.04900
C 	C 	0.87090 0.75910 0.68060 -0.10200
H 	H 	0.86400 0.72810 0.69410 0.07400
C 	C 	0.86630 0.84910 0.68500 -0.09600
H 	H 	0.85590 0.87830 0.70030 0.08000
C 	C 	0.89610 0.76250 0.63630 0.04000
H 	H 	0.90530 0.73360 0.61970 0.04100
C 	C 	0.83060 0.75880 0.78360 -0.11800
H 	H 	0.85740 0.73750 0.77890 0.08000
C 	C 	0.90800 0.80790 0.61600 -0.10300
C 	C 	0.82330 0.79810 0.75090 0.06000
O 	O 	0.05035 0.85120 0.44746 -0.42200
O 	O 	0.04880 0.76890 0.44860 -0.43400
C 	C 	0.14470 0.80300 0.29400 0.03900
C 	C 	0.06200 0.81000 0.43060 0.38000
C 	C 	0.10640 0.85090 0.36000 0.04100
H 	H 	0.09800 0.88150 0.37360 0.03200
C 	C 	0.12910 0.75910 0.31940 -0.11900
H 	H 	0.13600 0.72810 0.30590 0.07400
C 	C 	0.13370 0.84910 0.31500 -0.11200
H 	H 	0.14410 0.87830 0.29970 0.07200
C 	C 	0.10390 0.76250 0.36370 0.04700
H 	H 	0.09470 0.73360 0.38030 0.02600
C 	C 	0.16940 0.75880 0.21640 -0.11300
H 	H 	0.14260 0.73750 0.22110 0.06700
C 	C 	0.09200 0.80790 0.38400 -0.12700
C 	C 	0.17670 0.79810 0.24910 0.04500
O 	O 	0.94965 0.14880 0.44746 -0.39100
O 	O 	0.95120 0.23110 0.44860 -0.39200
C 	C 	0.85530 0.19700 0.29400 0.03700
C 	C 	0.93800 0.19000 0.43060 0.37700
C 	C 	0.89360 0.14910 0.36000 0.03600
H 	H 	0.90200 0.11850 0.37360 0.03300
C 	C 	0.87090 0.24090 0.31940 -0.10600
H 	H 	0.86400 0.27190 0.30590 0.07500
C 	C 	0.86630 0.15090 0.31500 -0.10300
H 	H 	0.85590 0.12170 0.29970 0.06300
C 	C 	0.89610 0.23750 0.36370 0.04300
H 	H 	0.90530 0.26640 0.38030 0.03900
C 	C 	0.83060 0.24120 0.21640 -0.11400
H 	H 	0.85740 0.26250 0.22110 0.07400
C 	C 	0.90800 0.19210 0.38400 -0.11000
C 	C 	0.82330 0.20190 0.24910 0.04800
O 	O 	0.05035 0.14880 0.55254 -0.43400
O 	O 	0.04880 0.23110 0.55140 -0.43500
C 	C 	0.14470 0.19700 0.70600 0.03900
C 	C 	0.06200 0.19000 0.56940 0.38300
C 	C 	0.10640 0.14910 0.64000 0.04200
H 	H 	0.09800 0.11850 0.62640 0.01700
C 	C 	0.12910 0.24090 0.68060 -0.12100
H 	H 	0.13600 0.27190 0.69410 0.07500
C 	C 	0.13370 0.15090 0.68500 -0.11700
H 	H 	0.14410 0.12170 0.70030 0.06200
C 	C 	0.10390 0.23750 0.63630 0.05000
H 	H 	0.09470 0.26640 0.61970 0.02500
C 	C 	0.16940 0.24120 0.78360 -0.11300
H 	H 	0.14260 0.26250 0.77890 0.06800
C 	C 	0.09200 0.19210 0.61600 -0.13300
C 	C 	0.17670 0.20190 0.75090 0.04300
Cu	Cu	0.50000 -0.00000 0.14413 0.87600
Cu	Cu	0.50000 0.00000 0.24070 0.88500
Cu	Cu	0.50000 0.00000 0.85587 0.88200
Cu	Cu	0.50000 -0.00000 0.75930 0.88500
Cu	Cu	0.14413 0.50000 -0.00000 0.87600
Cu	Cu	0.24070 0.50000 -0.00000 0.88500
Cu	Cu	0.85587 0.50000 -0.00000 0.88200
Cu	Cu	0.75930 0.50000 -0.00000 0.88500
Cu	Cu	0.00000 0.14413 0.50000 0.87600
Cu	Cu	0.00000 0.24070 0.50000 0.88500
Cu	Cu	0.00000 0.85587 0.50000 0.88200
Cu	Cu	0.00000 0.75930 0.50000 0.88500
O 	O 	0.94746 0.55035 0.64880 -0.38400
O 	O 	0.94860 0.54880 0.73110 -0.38900
C 	C 	0.79400 0.64470 0.69700 0.03300
C 	C 	0.93060 0.56200 0.69000 0.37300
C 	C 	0.86000 0.60640 0.64910 0.03200
H 	H 	0.87360 0.59800 0.61850 0.03900
C 	C 	0.81940 0.62910 0.74090 -0.10400
H 	H 	0.80590 0.63600 0.77190 0.07200
C 	C 	0.81500 0.63370 0.65090 -0.10100
H 	H 	0.79970 0.64410 0.62170 0.06800
C 	C 	0.86370 0.60390 0.73750 0.03800
H 	H 	0.88030 0.59470 0.76640 0.04000
C 	C 	0.71640 0.66940 0.74120 -0.11800
H 	H 	0.72110 0.64260 0.76250 0.07400
C 	C 	0.88400 0.59200 0.69210 -0.10600
C 	C 	0.74910 0.67670 0.70190 0.05300
O 	O 	0.05254 0.44965 0.64880 -0.42900
O 	O 	0.05140 0.45120 0.73110 -0.43400
C 	C 	0.20600 0.35530 0.69700 0.04200
C 	C 	0.06940 0.43800 0.69000 0.38300
C 	C 	0.14000 0.39360 0.64910 0.04400
H 	H 	0.12640 0.40200 0.61850 0.02700
C 	C 	0.18060 0.37090 0.74090 -0.11700
H 	H 	0.19410 0.36400 0.77190 0.07600
C 	C 	0.18500 0.36630 0.65090 -0.11200
H 	H 	0.20030 0.35590 0.62170 0.07000
C 	C 	0.13630 0.39610 0.73750 0.05000
H 	H 	0.11970 0.40530 0.76640 0.02700
C 	C 	0.28360 0.33060 0.74120 -0.11400
H 	H 	0.27890 0.35740 0.76250 0.07200
C 	C 	0.11600 0.40800 0.69210 -0.12800
C 	C 	0.25090 0.32330 0.70190 0.04700
O 	O 	0.05254 0.55035 0.35120 -0.42900
O 	O 	0.05140 0.54880 0.26890 -0.43600
C 	C 	0.20600 0.64470 0.30300 0.04200
C 	C 	0.06940 0.56200 0.31000 0.38400
C 	C 	0.14000 0.60640 0.35090 0.04500
H 	H 	0.12640 0.59800 0.38150 0.02600
C 	C 	0.18060 0.62910 0.25910 -0.11900
H 	H 	0.19410 0.63600 0.22810 0.07700
C 	C 	0.18500 0.63370 0.34910 -0.11300
H 	H 	0.20030 0.64410 0.37830 0.07000
C 	C 	0.13630 0.60390 0.26250 0.05200
H 	H 	0.11970 0.59470 0.23360 0.02500
C 	C 	0.28360 0.66940 0.25880 -0.11300
H 	H 	0.27890 0.64260 0.23750 0.07100
C 	C 	0.11600 0.59200 0.30790 -0.13000
C 	C 	0.25090 0.67670 0.29810 0.04700
O 	O 	0.94746 0.44965 0.35120 -0.38500
O 	O 	0.94860 0.45120 0.26890 -0.39200
C 	C 	0.79400 0.35530 0.30300 0.03600
C 	C 	0.93060 0.43800 0.31000 0.37400
C 	C 	0.86000 0.39360 0.35090 0.03400
H 	H 	0.87360 0.40200 0.38150 0.03900
C 	C 	0.81940 0.37090 0.25910 -0.10700
H 	H 	0.80590 0.36400 0.22810 0.07400
C 	C 	0.81500 0.36630 0.34910 -0.10300
H 	H 	0.79970 0.35590 0.37830 0.06800
C 	C 	0.86370 0.39610 0.26250 0.04000
H 	H 	0.88030 0.40530 0.23360 0.03800
C 	C 	0.71640 0.33060 0.25880 -0.11400
H 	H 	0.72110 0.35740 0.23750 0.07200
C 	C 	0.88400 0.40800 0.30790 -0.10900
C 	C 	0.74910 0.32330 0.29810 0.04900
O 	O 	0.64880 0.94746 0.55035 -0.38400
O 	O 	0.73110 0.94860 0.54880 -0.38900
C 	C 	0.69700 0.79400 0.64470 0.03300
C 	C 	0.69000 0.93060 0.56200 0.37300
C 	C 	0.64910 0.86000 0.60640 0.03200
H 	H 	0.61850 0.87360 0.59800 0.03900
C 	C 	0.74090 0.81940 0.62910 -0.10400
H 	H 	0.77190 0.80590 0.63600 0.07200
C 	C 	0.65090 0.81500 0.63370 -0.10100
H 	H 	0.62170 0.79970 0.64410 0.06800
C 	C 	0.73750 0.86370 0.60390 0.03800
H 	H 	0.76640 0.88030 0.59470 0.04000
C 	C 	0.74120 0.71640 0.66940 -0.11800
H 	H 	0.76250 0.72110 0.64260 0.07400
C 	C 	0.69210 0.88400 0.59200 -0.10600
C 	C 	0.70190 0.74910 0.67670 0.05300
O 	O 	0.64880 0.05254 0.44965 -0.42900
O 	O 	0.73110 0.05140 0.45120 -0.43400
C 	C 	0.69700 0.20600 0.35530 0.04200
C 	C 	0.69000 0.06940 0.43800 0.38300
C 	C 	0.64910 0.14000 0.39360 0.04400
H 	H 	0.61850 0.12640 0.40200 0.02700
C 	C 	0.74090 0.18060 0.37090 -0.11700
H 	H 	0.77190 0.19410 0.36400 0.07600
C 	C 	0.65090 0.18500 0.36630 -0.11200
H 	H 	0.62170 0.20030 0.35590 0.07000
C 	C 	0.73750 0.13630 0.39610 0.05000
H 	H 	0.76640 0.11970 0.40530 0.02700
C 	C 	0.74120 0.28360 0.33060 -0.11400
H 	H 	0.76250 0.27890 0.35740 0.07200
C 	C 	0.69210 0.11600 0.40800 -0.12800
C 	C 	0.70190 0.25090 0.32330 0.04700
O 	O 	0.35120 0.05254 0.55035 -0.42900
O 	O 	0.26890 0.05140 0.54880 -0.43600
C 	C 	0.30300 0.20600 0.64470 0.04200
C 	C 	0.31000 0.06940 0.56200 0.38400
C 	C 	0.35090 0.14000 0.60640 0.04500
H 	H 	0.38150 0.12640 0.59800 0.02600
C 	C 	0.25910 0.18060 0.62910 -0.11900
H 	H 	0.22810 0.19410 0.63600 0.07700
C 	C 	0.34910 0.18500 0.63370 -0.11300
H 	H 	0.37830 0.20030 0.64410 0.07000
C 	C 	0.26250 0.13630 0.60390 0.05200
H 	H 	0.23360 0.11970 0.59470 0.02500
C 	C 	0.25880 0.28360 0.66940 -0.11300
H 	H 	0.23750 0.27890 0.64260 0.07100
C 	C 	0.30790 0.11600 0.59200 -0.13000
C 	C 	0.29810 0.25090 0.67670 0.04700
O 	O 	0.35120 0.94746 0.44965 -0.38500
O 	O 	0.26890 0.94860 0.45120 -0.39200
C 	C 	0.30300 0.79400 0.35530 0.03600
C 	C 	0.31000 0.93060 0.43800 0.37400
C 	C 	0.35090 0.86000 0.39360 0.03400
H 	H 	0.38150 0.87360 0.40200 0.03900
C 	C 	0.25910 0.81940 0.37090 -0.10700
H 	H 	0.22810 0.80590 0.36400 0.07400
C 	C 	0.34910 0.81500 0.36630 -0.10300
H 	H 	0.37830 0.79970 0.35590 0.06800
C 	C 	0.26250 0.86370 0.39610 0.04000
H 	H 	0.23360 0.88030 0.40530 0.03800
C 	C 	0.25880 0.71640 0.33060 -0.11400
H 	H 	0.23750 0.72110 0.35740 0.07200
C 	C 	0.30790 0.88400 0.40800 -0.10900
C 	C 	0.29810 0.74910 0.32330 0.04900
O 	O 	0.55035 0.64880 0.94746 -0.38400
O 	O 	0.54880 0.73110 0.94860 -0.38900
C 	C 	0.64470 0.69700 0.79400 0.03300
C 	C 	0.56200 0.69000 0.93060 0.37300
C 	C 	0.60640 0.64910 0.86000 0.03200
H 	H 	0.59800 0.61850 0.87360 0.03900
C 	C 	0.62910 0.74090 0.81940 -0.10400
H 	H 	0.63600 0.77190 0.80590 0.07200
C 	C 	0.63370 0.65090 0.81500 -0.10100
H 	H 	0.64410 0.62170 0.79970 0.06800
C 	C 	0.60390 0.73750 0.86370 0.03800
H 	H 	0.59470 0.76640 0.88030 0.04000
C 	C 	0.66940 0.74120 0.71640 -0.11800
H 	H 	0.64260 0.76250 0.72110 0.07400
C 	C 	0.59200 0.69210 0.88400 -0.10600
C 	C 	0.67670 0.70190 0.74910 0.05300
O 	O 	0.44965 0.64880 0.05254 -0.42900
O 	O 	0.45120 0.73110 0.05140 -0.43400
C 	C 	0.35530 0.69700 0.20600 0.04200
C 	C 	0.43800 0.69000 0.06940 0.38300
C 	C 	0.39360 0.64910 0.14000 0.04400
H 	H 	0.40200 0.61850 0.12640 0.02700
C 	C 	0.37090 0.74090 0.18060 -0.11700
H 	H 	0.36400 0.77190 0.19410 0.07600
C 	C 	0.36630 0.65090 0.18500 -0.11200
H 	H 	0.35590 0.62170 0.20030 0.07000
C 	C 	0.39610 0.73750 0.13630 0.05000
H 	H 	0.40530 0.76640 0.11970 0.02700
C 	C 	0.33060 0.74120 0.28360 -0.11400
H 	H 	0.35740 0.76250 0.27890 0.07200
C 	C 	0.40800 0.69210 0.11600 -0.12800
C 	C 	0.32330 0.70190 0.25090 0.04700
O 	O 	0.55035 0.35120 0.05254 -0.42900
O 	O 	0.54880 0.26890 0.05140 -0.43600
C 	C 	0.64470 0.30300 0.20600 0.04200
C 	C 	0.56200 0.31000 0.06940 0.38400
C 	C 	0.60640 0.35090 0.14000 0.04500
H 	H 	0.59800 0.38150 0.12640 0.02600
C 	C 	0.62910 0.25910 0.18060 -0.11900
H 	H 	0.63600 0.22810 0.19410 0.07700
C 	C 	0.63370 0.34910 0.18500 -0.11300
H 	H 	0.64410 0.37830 0.20030 0.07000
C 	C 	0.60390 0.26250 0.13630 0.05200
H 	H 	0.59470 0.23360 0.11970 0.02500
C 	C 	0.66940 0.25880 0.28360 -0.11300
H 	H 	0.64260 0.23750 0.27890 0.07100
C 	C 	0.59200 0.30790 0.11600 -0.13000
C 	C 	0.67670 0.29810 0.25090 0.04700
O 	O 	0.44965 0.35120 0.94746 -0.38500
O 	O 	0.45120 0.26890 0.94860 -0.39200
C 	C 	0.35530 0.30300 0.79400 0.03600
C 	C 	0.43800 0.31000 0.93060 0.37400
C 	C 	0.39360 0.35090 0.86000 0.03400
H 	H 	0.40200 0.38150 0.87360 0.03900
C 	C 	0.37090 0.25910 0.81940 -0.10700
H 	H 	0.36400 0.22810 0.80590 0.07400
C 	C 	0.36630 0.34910 0.81500 -0.10300
H 	H 	0.35590 0.37830 0.79970 0.06800
C 	C 	0.39610 0.26250 0.86370 0.04000
H 	H 	0.40530 0.23360 0.88030 0.03800
C 	C 	0.33060 0.25880 0.71640 -0.11400
H 	H 	0.35740 0.23750 0.72110 0.07200
C 	C 	0.40800 0.30790 0.88400 -0.10900
C 	C 	0.32330 0.29810 0.74910 0.04900
O 	O 	0.05254 0.44965 0.35120 -0.42900
O 	O 	0.05140 0.45120 0.26890 -0.43600
C 	C 	0.20600 0.35530 0.30300 0.04300
C 	C 	0.06940 0.43800 0.31000 0.38400
C 	C 	0.14000 0.39360 0.35090 0.04500
H 	H 	0.12640 0.40200 0.38150 0.02600
C 	C 	0.18060 0.37090 0.25910 -0.12000
H 	H 	0.19410 0.36400 0.22810 0.07700
C 	C 	0.18500 0.36630 0.34910 -0.11400
H 	H 	0.20030 0.35590 0.37830 0.07000
C 	C 	0.13630 0.39610 0.26250 0.05200
H 	H 	0.11970 0.40530 0.23360 0.02500
C 	C 	0.28360 0.33060 0.25880 -0.11100
H 	H 	0.27890 0.35740 0.23750 0.07100
C 	C 	0.11600 0.40800 0.30790 -0.13000
C 	C 	0.25090 0.32330 0.29810 0.04600
O 	O 	0.94746 0.55035 0.35120 -0.38400
O 	O 	0.94860 0.54880 0.26890 -0.39200
C 	C 	0.79400 0.64470 0.30300 0.03500
C 	C 	0.93060 0.56200 0.31000 0.37300
C 	C 	0.86000 0.60640 0.35090 0.03400
H 	H 	0.87360 0.59800 0.38150 0.03900
C 	C 	0.81940 0.62910 0.25910 -0.10700
H 	H 	0.80590 0.63600 0.22810 0.07300
C 	C 	0.81500 0.63370 0.34910 -0.10200
H 	H 	0.79970 0.64410 0.37830 0.06800
C 	C 	0.86370 0.60390 0.26250 0.04000
H 	H 	0.88030 0.59470 0.23360 0.03800
C 	C 	0.71640 0.66940 0.25880 -0.11500
H 	H 	0.72110 0.64260 0.23750 0.07200
C 	C 	0.88400 0.59200 0.30790 -0.10800
C 	C 	0.74910 0.67670 0.29810 0.05100
O 	O 	0.94746 0.44965 0.64880 -0.38400
O 	O 	0.94860 0.45120 0.73110 -0.39000
C 	C 	0.79400 0.35530 0.69700 0.03400
C 	C 	0.93060 0.43800 0.69000 0.37300
C 	C 	0.86000 0.39360 0.64910 0.03300
H 	H 	0.87360 0.40200 0.61850 0.03900
C 	C 	0.81940 0.37090 0.74090 -0.10500
H 	H 	0.80590 0.36400 0.77190 0.07300
C 	C 	0.81500 0.36630 0.65090 -0.10100
H 	H 	0.79970 0.35590 0.62170 0.06800
C 	C 	0.86370 0.39610 0.73750 0.03800
H 	H 	0.88030 0.40530 0.76640 0.04000
C 	C 	0.71640 0.33060 0.74120 -0.11700
H 	H 	0.72110 0.35740 0.76250 0.07300
C 	C 	0.88400 0.40800 0.69210 -0.10700
C 	C 	0.74910 0.32330 0.70190 0.05100
O 	O 	0.05254 0.55035 0.64880 -0.42800
O 	O 	0.05140 0.54880 0.73110 -0.43400
C 	C 	0.20600 0.64470 0.69700 0.04100
C 	C 	0.06940 0.56200 0.69000 0.38300
C 	C 	0.14000 0.60640 0.64910 0.04300
H 	H 	0.12640 0.59800 0.61850 0.02700
C 	C 	0.18060 0.62910 0.74090 -0.11700
H 	H 	0.19410 0.63600 0.77190 0.07500
C 	C 	0.18500 0.63370 0.65090 -0.11200
H 	H 	0.20030 0.64410 0.62170 0.06900
C 	C 	0.13630 0.60390 0.73750 0.05000
H 	H 	0.11970 0.59470 0.76640 0.02800
C 	C 	0.28360 0.66940 0.74120 -0.11600
H 	H 	0.27890 0.64260 0.76250 0.07300
C 	C 	0.11600 0.59200 0.69210 -0.12800
C 	C 	0.25090 0.67670 0.70190 0.04900
O 	O 	0.35120 0.05254 0.44965 -0.42900
O 	O 	0.26890 0.05140 0.45120 -0.43600
C 	C 	0.30300 0.20600 0.35530 0.04300
C 	C 	0.31000 0.06940 0.43800 0.38400
C 	C 	0.35090 0.14000 0.39360 0.04500
H 	H 	0.38150 0.12640 0.40200 0.02600
C 	C 	0.25910 0.18060 0.37090 -0.12000
H 	H 	0.22810 0.19410 0.36400 0.07700
C 	C 	0.34910 0.18500 0.36630 -0.11400
H 	H 	0.37830 0.20030 0.35590 0.07000
C 	C 	0.26250 0.13630 0.39610 0.05200
H 	H 	0.23360 0.11970 0.40530 0.02500
C 	C 	0.25880 0.28360 0.33060 -0.11100
H 	H 	0.23750 0.27890 0.35740 0.07100
C 	C 	0.30790 0.11600 0.40800 -0.13000
C 	C 	0.29810 0.25090 0.32330 0.04600
O 	O 	0.35120 0.94746 0.55035 -0.38400
O 	O 	0.26890 0.94860 0.54880 -0.39200
C 	C 	0.30300 0.79400 0.64470 0.03500
C 	C 	0.31000 0.93060 0.56200 0.37300
C 	C 	0.35090 0.86000 0.60640 0.03400
H 	H 	0.38150 0.87360 0.59800 0.03900
C 	C 	0.25910 0.81940 0.62910 -0.10700
H 	H 	0.22810 0.80590 0.63600 0.07300
C 	C 	0.34910 0.81500 0.63370 -0.10200
H 	H 	0.37830 0.79970 0.64410 0.06800
C 	C 	0.26250 0.86370 0.60390 0.04000
H 	H 	0.23360 0.88030 0.59470 0.03800
C 	C 	0.25880 0.71640 0.66940 -0.11500
H 	H 	0.23750 0.72110 0.64260 0.07200
C 	C 	0.30790 0.88400 0.59200 -0.10800
C 	C 	0.29810 0.74910 0.67670 0.05100
O 	O 	0.64880 0.94746 0.44965 -0.38400
O 	O 	0.73110 0.94860 0.45120 -0.39000
C 	C 	0.69700 0.79400 0.35530 0.03400
C 	C 	0.69000 0.93060 0.43800 0.37300
C 	C 	0.64910 0.86000 0.39360 0.03300
H 	H 	0.61850 0.87360 0.40200 0.03900
C 	C 	0.74090 0.81940 0.37090 -0.10500
H 	H 	0.77190 0.80590 0.36400 0.07300
C 	C 	0.65090 0.81500 0.36630 -0.10100
H 	H 	0.62170 0.79970 0.35590 0.06800
C 	C 	0.73750 0.86370 0.39610 0.03800
H 	H 	0.76640 0.88030 0.40530 0.04000
C 	C 	0.74120 0.71640 0.33060 -0.11700
H 	H 	0.76250 0.72110 0.35740 0.07300
C 	C 	0.69210 0.88400 0.40800 -0.10700
C 	C 	0.70190 0.74910 0.32330 0.05100
O 	O 	0.64880 0.05254 0.55035 -0.42800
O 	O 	0.73110 0.05140 0.54880 -0.43400
C 	C 	0.69700 0.20600 0.64470 0.04100
C 	C 	0.69000 0.06940 0.56200 0.38300
C 	C 	0.64910 0.14000 0.60640 0.04300
H 	H 	0.61850 0.12640 0.59800 0.02700
C 	C 	0.74090 0.18060 0.62910 -0.11700
H 	H 	0.77190 0.19410 0.63600 0.07500
C 	C 	0.65090 0.18500 0.63370 -0.11200
H 	H 	0.62170 0.20030 0.64410 0.06900
C 	C 	0.73750 0.13630 0.60390 0.05000
H 	H 	0.76640 0.11970 0.59470 0.02800
C 	C 	0.74120 0.28360 0.66940 -0.11600
H 	H 	0.76250 0.27890 0.64260 0.07300
C 	C 	0.69210 0.11600 0.59200 -0.12800
C 	C 	0.70190 0.25090 0.67670 0.04900
O 	O 	0.44965 0.35120 0.05254 -0.42900
O 	O 	0.45120 0.26890 0.05140 -0.43600
C 	C 	0.35530 0.30300 0.20600 0.04300
C 	C 	0.43800 0.31000 0.06940 0.38400
C 	C 	0.39360 0.35090 0.14000 0.04500
H 	H 	0.40200 0.38150 0.12640 0.02600
C 	C 	0.37090 0.25910 0.18060 -0.12000
H 	H 	0.36400 0.22810 0.19410 0.07700
C 	C 	0.36630 0.34910 0.18500 -0.11400
H 	H 	0.35590 0.37830 0.20030 0.07000
C 	C 	0.39610 0.26250 0.13630 0.05200
H 	H 	0.40530 0.23360 0.11970 0.02500
C 	C 	0.33060 0.25880 0.28360 -0.11100
H 	H 	0.35740 0.23750 0.27890 0.07100
C 	C 	0.40800 0.30790 0.11600 -0.13000
C 	C 	0.32330 0.29810 0.25090 0.04600
O 	O 	0.55035 0.35120 0.94746 -0.38400
O 	O 	0.54880 0.26890 0.94860 -0.39200
C 	C 	0.64470 0.30300 0.79400 0.03500
C 	C 	0.56200 0.31000 0.93060 0.37300
C 	C 	0.60640 0.35090 0.86000 0.03400
H 	H 	0.59800 0.38150 0.87360 0.03900
C 	C 	0.62910 0.25910 0.81940 -0.10700
H 	H 	0.63600 0.22810 0.80590 0.07300
C 	C 	0.63370 0.34910 0.81500 -0.10200
H 	H 	0.64410 0.37830 0.79970 0.06800
C 	C 	0.60390 0.26250 0.86370 0.04000
H 	H 	0.59470 0.23360 0.88030 0.03800
C 	C 	0.66940 0.25880 0.71640 -0.11500
H 	H 	0.64260 0.23750 0.72110 0.07200
C 	C 	0.59200 0.30790 0.88400 -0.10800
C 	C 	0.67670 0.29810 0.74910 0.05100
O 	O 	0.44965 0.64880 0.94746 -0.38400
O 	O 	0.45120 0.73110 0.94860 -0.39000
C 	C 	0.35530 0.69700 0.79400 0.03400
C 	C 	0.43800 0.69000 0.93060 0.37300
C 	C 	0.39360 0.64910 0.86000 0.03300
H 	H 	0.40200 0.61850 0.87360 0.03900
C 	C 	0.37090 0.74090 0.81940 -0.10500
H 	H 	0.36400 0.77190 0.80590 0.07300
C 	C 	0.36630 0.65090 0.81500 -0.10100
H 	H 	0.35590 0.62170 0.79970 0.06800
C 	C 	0.39610 0.73750 0.86370 0.03800
H 	H 	0.40530 0.76640 0.88030 0.04000
C 	C 	0.33060 0.74120 0.71640 -0.11700
H 	H 	0.35740 0.76250 0.72110 0.07300
C 	C 	0.40800 0.69210 0.88400 -0.10700
C 	C 	0.32330 0.70190 0.74910 0.05100
O 	O 	0.55035 0.64880 0.05254 -0.42800
O 	O 	0.54880 0.73110 0.05140 -0.43400
C 	C 	0.64470 0.69700 0.20600 0.04100
C 	C 	0.56200 0.69000 0.06940 0.38300
C 	C 	0.60640 0.64910 0.14000 0.04300
H 	H 	0.59800 0.61850 0.12640 0.02700
C 	C 	0.62910 0.74090 0.18060 -0.11700
H 	H 	0.63600 0.77190 0.19410 0.07500
C 	C 	0.63370 0.65090 0.18500 -0.11200
H 	H 	0.64410 0.62170 0.20030 0.06900
C 	C 	0.60390 0.73750 0.13630 0.05000
H 	H 	0.59470 0.76640 0.11970 0.02800
C 	C 	0.66940 0.74120 0.28360 -0.11600
H 	H 	0.64260 0.76250 0.27890 0.07300
C 	C 	0.59200 0.69210 0.11600 -0.12800
C 	C 	0.67670 0.70190 0.25090 0.04900
Cu	Cu	-0.00000 0.50000 0.64413 0.87900
Cu	Cu	0.00000 0.50000 0.74070 0.88600
Cu	Cu	0.00000 0.50000 0.35587 0.87900
Cu	Cu	0.00000 0.50000 0.25930 0.88400
Cu	Cu	0.64413 0.00000 0.50000 0.87900
Cu	Cu	0.74070 0.00000 0.50000 0.88600
Cu	Cu	0.35587 0.00000 0.50000 0.87900
Cu	Cu	0.25930 0.00000 0.50000 0.88400
Cu	Cu	0.50000 0.64413 -0.00000 0.87900
Cu	Cu	0.50000 0.74070 -0.00000 0.88600
Cu	Cu	0.50000 0.35587 -0.00000 0.87900
Cu	Cu	0.50000 0.25930 -0.00000 0.88400
