data_crystal

_cell_length_a 26.98500
_cell_length_b 26.98500
_cell_length_c 26.98500
_cell_angle_alpha 90.00000
_cell_angle_beta  90.00000
_cell_angle_gamma 90.00000

_symmetry_space_group_name_	'P 1'
_symmetry_space_group_name_H-M	'P 1'

loop_
_symmetry_equiv_pos_as_xyz
  x,y,z

loop_
_atom_site_label
_atom_site_type_symbol
_atom_site_fract_x
_atom_site_fract_y
_atom_site_fract_z
_atom_site_charge
O 	O 	0.44764 0.05013 0.14894 -0.42600
O 	O 	0.44841 0.04932 0.23146 -0.43100
C 	C 	0.29470 0.14578 0.19793 0.03200
C 	C 	0.43065 0.06221 0.19081 0.37000
C 	C 	0.36024 0.10707 0.14947 0.03000
H 	H 	0.37390 0.09870 0.11810 0.02100
C 	C 	0.31955 0.13006 0.24131 -0.10500
H 	H 	0.30570 0.13730 0.27290 0.06700
C 	C 	0.31558 0.13431 0.15198 -0.10400
H 	H 	0.29970 0.14480 0.12240 0.05300
C 	C 	0.36398 0.10418 0.23828 0.03300
H 	H 	0.38060 0.09440 0.26770 0.03000
C 	C 	0.21669 0.17021 0.24202 -0.10300
H 	H 	0.22140 0.14300 0.26390 0.06000
C 	C 	0.38415 0.09259 0.19255 -0.11900
C 	C 	0.24963 0.17732 0.20245 0.03500
O 	O 	0.55236 0.94987 0.14894 -0.38400
O 	O 	0.55159 0.95068 0.23146 -0.39000
C 	C 	0.70530 0.85422 0.19793 0.03100
C 	C 	0.56935 0.93779 0.19081 0.36400
C 	C 	0.63976 0.89293 0.14947 0.02800
H 	H 	0.62610 0.90130 0.11810 0.03600
C 	C 	0.68045 0.86994 0.24131 -0.09100
H 	H 	0.69430 0.86270 0.27290 0.06800
C 	C 	0.68442 0.86569 0.15198 -0.09000
H 	H 	0.70030 0.85520 0.12240 0.06100
C 	C 	0.63602 0.89582 0.23828 0.03000
H 	H 	0.61940 0.90560 0.26770 0.04400
C 	C 	0.78331 0.82979 0.24202 -0.10700
H 	H 	0.77860 0.85700 0.26390 0.07300
C 	C 	0.61585 0.90741 0.19255 -0.09700
C 	C 	0.75037 0.82268 0.20245 0.04900
O 	O 	0.55236 0.05013 0.85106 -0.41400
O 	O 	0.55159 0.04932 0.76854 -0.43100
C 	C 	0.70530 0.14578 0.80207 0.03300
C 	C 	0.56935 0.06221 0.80919 0.36600
C 	C 	0.63976 0.10707 0.85053 0.03000
H 	H 	0.62610 0.09870 0.88190 0.03700
C 	C 	0.68045 0.13006 0.75869 -0.10100
H 	H 	0.69430 0.13730 0.72710 0.06700
C 	C 	0.68442 0.13431 0.84802 -0.09800
H 	H 	0.70030 0.14480 0.87760 0.06900
C 	C 	0.63602 0.10418 0.76172 0.03100
H 	H 	0.61940 0.09440 0.73230 0.03100
C 	C 	0.78331 0.17021 0.75798 -0.10600
H 	H 	0.77860 0.14300 0.73610 0.06600
C 	C 	0.61585 0.09259 0.80745 -0.11300
C 	C 	0.75037 0.17732 0.79755 0.04600
O 	O 	0.44764 0.94987 0.85106 -0.37200
O 	O 	0.44841 0.95068 0.76854 -0.38900
C 	C 	0.29470 0.85422 0.80207 0.03100
C 	C 	0.43065 0.93779 0.80919 0.36100
C 	C 	0.36024 0.89293 0.85053 0.02700
H 	H 	0.37390 0.90130 0.88190 0.05100
C 	C 	0.31955 0.86994 0.75869 -0.08900
H 	H 	0.30570 0.86270 0.72710 0.06800
C 	C 	0.31558 0.86569 0.84802 -0.08600
H 	H 	0.29970 0.85520 0.87760 0.07100
C 	C 	0.36398 0.89582 0.76172 0.02700
H 	H 	0.38060 0.90560 0.73230 0.04500
C 	C 	0.21669 0.82979 0.75798 -0.10600
H 	H 	0.22140 0.85700 0.73610 0.07200
C 	C 	0.38415 0.90741 0.80745 -0.09200
C 	C 	0.24963 0.82268 0.79755 0.05100
O 	O 	0.14894 0.44764 0.05013 -0.42700
O 	O 	0.23146 0.44841 0.04932 -0.43200
C 	C 	0.19793 0.29470 0.14578 0.03100
C 	C 	0.19081 0.43065 0.06221 0.36900
C 	C 	0.14947 0.36024 0.10707 0.02900
H 	H 	0.11810 0.37390 0.09870 0.02000
C 	C 	0.24131 0.31955 0.13006 -0.10500
H 	H 	0.27290 0.30570 0.13730 0.06700
C 	C 	0.15198 0.31558 0.13431 -0.10400
H 	H 	0.12240 0.29970 0.14480 0.05300
C 	C 	0.23828 0.36398 0.10418 0.03300
H 	H 	0.26770 0.38060 0.09440 0.03000
C 	C 	0.24202 0.21669 0.17021 -0.10300
H 	H 	0.26390 0.22140 0.14300 0.06000
C 	C 	0.19255 0.38415 0.09259 -0.11900
C 	C 	0.20245 0.24963 0.17732 0.03500
O 	O 	0.14894 0.55236 0.94987 -0.38400
O 	O 	0.23146 0.55159 0.95068 -0.39000
C 	C 	0.19793 0.70530 0.85422 0.03100
C 	C 	0.19081 0.56935 0.93779 0.36400
C 	C 	0.14947 0.63976 0.89293 0.02800
H 	H 	0.11810 0.62610 0.90130 0.03600
C 	C 	0.24131 0.68045 0.86994 -0.09100
H 	H 	0.27290 0.69430 0.86270 0.06800
C 	C 	0.15198 0.68442 0.86569 -0.09000
H 	H 	0.12240 0.70030 0.85520 0.06100
C 	C 	0.23828 0.63602 0.89582 0.03000
H 	H 	0.26770 0.61940 0.90560 0.04400
C 	C 	0.24202 0.78331 0.82979 -0.10700
H 	H 	0.26390 0.77860 0.85700 0.07300
C 	C 	0.19255 0.61585 0.90741 -0.09700
C 	C 	0.20245 0.75037 0.82268 0.04900
O 	O 	0.85106 0.55236 0.05013 -0.41400
O 	O 	0.76854 0.55159 0.04932 -0.43100
C 	C 	0.80207 0.70530 0.14578 0.03300
C 	C 	0.80919 0.56935 0.06221 0.36600
C 	C 	0.85053 0.63976 0.10707 0.03000
H 	H 	0.88190 0.62610 0.09870 0.03700
C 	C 	0.75869 0.68045 0.13006 -0.10100
H 	H 	0.72710 0.69430 0.13730 0.06700
C 	C 	0.84802 0.68442 0.13431 -0.09800
H 	H 	0.87760 0.70030 0.14480 0.06900
C 	C 	0.76172 0.63602 0.10418 0.03100
H 	H 	0.73230 0.61940 0.09440 0.03100
C 	C 	0.75798 0.78331 0.17021 -0.10600
H 	H 	0.73610 0.77860 0.14300 0.06600
C 	C 	0.80745 0.61585 0.09259 -0.11300
C 	C 	0.79755 0.75037 0.17732 0.04600
O 	O 	0.85106 0.44764 0.94987 -0.37200
O 	O 	0.76854 0.44841 0.95068 -0.38900
C 	C 	0.80207 0.29470 0.85422 0.03100
C 	C 	0.80919 0.43065 0.93779 0.36100
C 	C 	0.85053 0.36024 0.89293 0.02700
H 	H 	0.88190 0.37390 0.90130 0.05100
C 	C 	0.75869 0.31955 0.86994 -0.08900
H 	H 	0.72710 0.30570 0.86270 0.06800
C 	C 	0.84802 0.31558 0.86569 -0.08600
H 	H 	0.87760 0.29970 0.85520 0.07100
C 	C 	0.76172 0.36398 0.89582 0.02700
H 	H 	0.73230 0.38060 0.90560 0.04500
C 	C 	0.75798 0.21669 0.82979 -0.10600
H 	H 	0.73610 0.22140 0.85700 0.07200
C 	C 	0.80745 0.38415 0.90741 -0.09200
C 	C 	0.79755 0.24963 0.82268 0.05100
O 	O 	0.05013 0.14894 0.44764 -0.42700
O 	O 	0.04932 0.23146 0.44841 -0.43200
C 	C 	0.14578 0.19793 0.29470 0.03100
C 	C 	0.06221 0.19081 0.43065 0.36900
C 	C 	0.10707 0.14947 0.36024 0.02900
H 	H 	0.09870 0.11810 0.37390 0.02000
C 	C 	0.13006 0.24131 0.31955 -0.10500
H 	H 	0.13730 0.27290 0.30570 0.06700
C 	C 	0.13431 0.15198 0.31558 -0.10400
H 	H 	0.14480 0.12240 0.29970 0.05300
C 	C 	0.10418 0.23828 0.36398 0.03300
H 	H 	0.09440 0.26770 0.38060 0.03000
C 	C 	0.17021 0.24202 0.21669 -0.10300
H 	H 	0.14300 0.26390 0.22140 0.06000
C 	C 	0.09259 0.19255 0.38415 -0.11900
C 	C 	0.17732 0.20245 0.24963 0.03500
O 	O 	0.94987 0.14894 0.55236 -0.38400
O 	O 	0.95068 0.23146 0.55159 -0.39000
C 	C 	0.85422 0.19793 0.70530 0.03100
C 	C 	0.93779 0.19081 0.56935 0.36400
C 	C 	0.89293 0.14947 0.63976 0.02800
H 	H 	0.90130 0.11810 0.62610 0.03600
C 	C 	0.86994 0.24131 0.68045 -0.09100
H 	H 	0.86270 0.27290 0.69430 0.06800
C 	C 	0.86569 0.15198 0.68442 -0.09000
H 	H 	0.85520 0.12240 0.70030 0.06100
C 	C 	0.89582 0.23828 0.63602 0.03000
H 	H 	0.90560 0.26770 0.61940 0.04400
C 	C 	0.82979 0.24202 0.78331 -0.10700
H 	H 	0.85700 0.26390 0.77860 0.07300
C 	C 	0.90741 0.19255 0.61585 -0.09700
C 	C 	0.82268 0.20245 0.75037 0.04900
O 	O 	0.05013 0.85106 0.55236 -0.41400
O 	O 	0.04932 0.76854 0.55159 -0.43100
C 	C 	0.14578 0.80207 0.70530 0.03300
C 	C 	0.06221 0.80919 0.56935 0.36600
C 	C 	0.10707 0.85053 0.63976 0.03000
H 	H 	0.09870 0.88190 0.62610 0.03700
C 	C 	0.13006 0.75869 0.68045 -0.10100
H 	H 	0.13730 0.72710 0.69430 0.06700
C 	C 	0.13431 0.84802 0.68442 -0.09800
H 	H 	0.14480 0.87760 0.70030 0.06900
C 	C 	0.10418 0.76172 0.63602 0.03100
H 	H 	0.09440 0.73230 0.61940 0.03100
C 	C 	0.17021 0.75798 0.78331 -0.10600
H 	H 	0.14300 0.73610 0.77860 0.06600
C 	C 	0.09259 0.80745 0.61585 -0.11300
C 	C 	0.17732 0.79755 0.75037 0.04600
O 	O 	0.94987 0.85106 0.44764 -0.37200
O 	O 	0.95068 0.76854 0.44841 -0.38900
C 	C 	0.85422 0.80207 0.29470 0.03100
C 	C 	0.93779 0.80919 0.43065 0.36100
C 	C 	0.89293 0.85053 0.36024 0.02700
H 	H 	0.90130 0.88190 0.37390 0.05100
C 	C 	0.86994 0.75869 0.31955 -0.08900
H 	H 	0.86270 0.72710 0.30570 0.06800
C 	C 	0.86569 0.84802 0.31558 -0.08600
H 	H 	0.85520 0.87760 0.29970 0.07100
C 	C 	0.89582 0.76172 0.36398 0.02700
H 	H 	0.90560 0.73230 0.38060 0.04500
C 	C 	0.82979 0.75798 0.21669 -0.10600
H 	H 	0.85700 0.73610 0.22140 0.07200
C 	C 	0.90741 0.80745 0.38415 -0.09200
C 	C 	0.82268 0.79755 0.24963 0.05100
O 	O 	0.55236 0.94987 0.85106 -0.37200
O 	O 	0.55159 0.95068 0.76854 -0.38900
C 	C 	0.70530 0.85422 0.80207 0.03200
C 	C 	0.56935 0.93779 0.80919 0.36200
C 	C 	0.63976 0.89293 0.85053 0.02800
H 	H 	0.62610 0.90130 0.88190 0.05200
C 	C 	0.68045 0.86994 0.75869 -0.08800
H 	H 	0.69430 0.86270 0.72710 0.06800
C 	C 	0.68442 0.86569 0.84802 -0.08500
H 	H 	0.70030 0.85520 0.87760 0.07400
C 	C 	0.63602 0.89582 0.76172 0.02800
H 	H 	0.61940 0.90560 0.73230 0.04500
C 	C 	0.78331 0.82979 0.75798 -0.10800
H 	H 	0.77860 0.85700 0.73610 0.07500
C 	C 	0.61585 0.90741 0.80745 -0.09100
C 	C 	0.75037 0.82268 0.79755 0.05500
O 	O 	0.44764 0.05013 0.85106 -0.41500
O 	O 	0.44841 0.04932 0.76854 -0.43100
C 	C 	0.29470 0.14578 0.80207 0.03200
C 	C 	0.43065 0.06221 0.80919 0.36600
C 	C 	0.36024 0.10707 0.85053 0.03000
H 	H 	0.37390 0.09870 0.88190 0.03500
C 	C 	0.31955 0.13006 0.75869 -0.10200
H 	H 	0.30570 0.13730 0.72710 0.06600
C 	C 	0.31558 0.13431 0.84802 -0.09900
H 	H 	0.29970 0.14480 0.87760 0.06600
C 	C 	0.36398 0.10418 0.76172 0.03100
H 	H 	0.38060 0.09440 0.73230 0.03100
C 	C 	0.21669 0.17021 0.75798 -0.10400
H 	H 	0.22140 0.14300 0.73610 0.06200
C 	C 	0.38415 0.09259 0.80745 -0.11300
C 	C 	0.24963 0.17732 0.79755 0.04200
O 	O 	0.44764 0.94987 0.14894 -0.38400
O 	O 	0.44841 0.95068 0.23146 -0.39000
C 	C 	0.29470 0.85422 0.19793 0.03100
C 	C 	0.43065 0.93779 0.19081 0.36400
C 	C 	0.36024 0.89293 0.14947 0.02700
H 	H 	0.37390 0.90130 0.11810 0.03500
C 	C 	0.31955 0.86994 0.24131 -0.09200
H 	H 	0.30570 0.86270 0.27290 0.06800
C 	C 	0.31558 0.86569 0.15198 -0.09100
H 	H 	0.29970 0.85520 0.12240 0.05800
C 	C 	0.36398 0.89582 0.23828 0.02900
H 	H 	0.38060 0.90560 0.26770 0.04400
C 	C 	0.21669 0.82979 0.24202 -0.10500
H 	H 	0.22140 0.85700 0.26390 0.07000
C 	C 	0.38415 0.90741 0.19255 -0.09800
C 	C 	0.24963 0.82268 0.20245 0.04400
O 	O 	0.55236 0.05013 0.14894 -0.42600
O 	O 	0.55159 0.04932 0.23146 -0.43200
C 	C 	0.70530 0.14578 0.19793 0.03200
C 	C 	0.56935 0.06221 0.19081 0.36900
C 	C 	0.63976 0.10707 0.14947 0.03000
H 	H 	0.62610 0.09870 0.11810 0.02100
C 	C 	0.68045 0.13006 0.24131 -0.10400
H 	H 	0.69430 0.13730 0.27290 0.06700
C 	C 	0.68442 0.13431 0.15198 -0.10300
H 	H 	0.70030 0.14480 0.12240 0.05500
C 	C 	0.63602 0.10418 0.23828 0.03300
H 	H 	0.61940 0.09440 0.26770 0.03000
C 	C 	0.78331 0.17021 0.24202 -0.10500
H 	H 	0.77860 0.14300 0.26390 0.06300
C 	C 	0.61585 0.09259 0.19255 -0.11900
C 	C 	0.75037 0.17732 0.20245 0.04000
O 	O 	0.85106 0.55236 0.94987 -0.37200
O 	O 	0.76854 0.55159 0.95068 -0.38900
C 	C 	0.80207 0.70530 0.85422 0.03200
C 	C 	0.80919 0.56935 0.93779 0.36200
C 	C 	0.85053 0.63976 0.89293 0.02800
H 	H 	0.88190 0.62610 0.90130 0.05200
C 	C 	0.75869 0.68045 0.86994 -0.08800
H 	H 	0.72710 0.69430 0.86270 0.06800
C 	C 	0.84802 0.68442 0.86569 -0.08500
H 	H 	0.87760 0.70030 0.85520 0.07400
C 	C 	0.76172 0.63602 0.89582 0.02800
H 	H 	0.73230 0.61940 0.90560 0.04500
C 	C 	0.75798 0.78331 0.82979 -0.10800
H 	H 	0.73610 0.77860 0.85700 0.07500
C 	C 	0.80745 0.61585 0.90741 -0.09100
C 	C 	0.79755 0.75037 0.82268 0.05500
O 	O 	0.85106 0.44764 0.05013 -0.41500
O 	O 	0.76854 0.44841 0.04932 -0.43100
C 	C 	0.80207 0.29470 0.14578 0.03200
C 	C 	0.80919 0.43065 0.06221 0.36600
C 	C 	0.85053 0.36024 0.10707 0.03000
H 	H 	0.88190 0.37390 0.09870 0.03500
C 	C 	0.75869 0.31955 0.13006 -0.10200
H 	H 	0.72710 0.30570 0.13730 0.06600
C 	C 	0.84802 0.31558 0.13431 -0.09900
H 	H 	0.87760 0.29970 0.14480 0.06600
C 	C 	0.76172 0.36398 0.10418 0.03100
H 	H 	0.73230 0.38060 0.09440 0.03100
C 	C 	0.75798 0.21669 0.17021 -0.10400
H 	H 	0.73610 0.22140 0.14300 0.06200
C 	C 	0.80745 0.38415 0.09259 -0.11300
C 	C 	0.79755 0.24963 0.17732 0.04200
O 	O 	0.14894 0.44764 0.94987 -0.38400
O 	O 	0.23146 0.44841 0.95068 -0.39000
C 	C 	0.19793 0.29470 0.85422 0.03100
C 	C 	0.19081 0.43065 0.93779 0.36400
C 	C 	0.14947 0.36024 0.89293 0.02700
H 	H 	0.11810 0.37390 0.90130 0.03500
C 	C 	0.24131 0.31955 0.86994 -0.09200
H 	H 	0.27290 0.30570 0.86270 0.06800
C 	C 	0.15198 0.31558 0.86569 -0.09100
H 	H 	0.12240 0.29970 0.85520 0.05800
C 	C 	0.23828 0.36398 0.89582 0.02900
H 	H 	0.26770 0.38060 0.90560 0.04400
C 	C 	0.24202 0.21669 0.82979 -0.10500
H 	H 	0.26390 0.22140 0.85700 0.07000
C 	C 	0.19255 0.38415 0.90741 -0.09800
C 	C 	0.20245 0.24963 0.82268 0.04400
O 	O 	0.14894 0.55236 0.05013 -0.42600
O 	O 	0.23146 0.55159 0.04932 -0.43200
C 	C 	0.19793 0.70530 0.14578 0.03200
C 	C 	0.19081 0.56935 0.06221 0.36900
C 	C 	0.14947 0.63976 0.10707 0.03000
H 	H 	0.11810 0.62610 0.09870 0.02100
C 	C 	0.24131 0.68045 0.13006 -0.10400
H 	H 	0.27290 0.69430 0.13730 0.06700
C 	C 	0.15198 0.68442 0.13431 -0.10300
H 	H 	0.12240 0.70030 0.14480 0.05500
C 	C 	0.23828 0.63602 0.10418 0.03300
H 	H 	0.26770 0.61940 0.09440 0.03000
C 	C 	0.24202 0.78331 0.17021 -0.10500
H 	H 	0.26390 0.77860 0.14300 0.06300
C 	C 	0.19255 0.61585 0.09259 -0.11900
C 	C 	0.20245 0.75037 0.17732 0.04000
O 	O 	0.94987 0.85106 0.55236 -0.37200
O 	O 	0.95068 0.76854 0.55159 -0.38900
C 	C 	0.85422 0.80207 0.70530 0.03200
C 	C 	0.93779 0.80919 0.56935 0.36200
C 	C 	0.89293 0.85053 0.63976 0.02800
H 	H 	0.90130 0.88190 0.62610 0.05200
C 	C 	0.86994 0.75869 0.68045 -0.08800
H 	H 	0.86270 0.72710 0.69430 0.06800
C 	C 	0.86569 0.84802 0.68442 -0.08500
H 	H 	0.85520 0.87760 0.70030 0.07400
C 	C 	0.89582 0.76172 0.63602 0.02800
H 	H 	0.90560 0.73230 0.61940 0.04500
C 	C 	0.82979 0.75798 0.78331 -0.10800
H 	H 	0.85700 0.73610 0.77860 0.07500
C 	C 	0.90741 0.80745 0.61585 -0.09100
C 	C 	0.82268 0.79755 0.75037 0.05500
O 	O 	0.05013 0.85106 0.44764 -0.41500
O 	O 	0.04932 0.76854 0.44841 -0.43100
C 	C 	0.14578 0.80207 0.29470 0.03200
C 	C 	0.06221 0.80919 0.43065 0.36600
C 	C 	0.10707 0.85053 0.36024 0.03000
H 	H 	0.09870 0.88190 0.37390 0.03500
C 	C 	0.13006 0.75869 0.31955 -0.10200
H 	H 	0.13730 0.72710 0.30570 0.06600
C 	C 	0.13431 0.84802 0.31558 -0.09900
H 	H 	0.14480 0.87760 0.29970 0.06600
C 	C 	0.10418 0.76172 0.36398 0.03100
H 	H 	0.09440 0.73230 0.38060 0.03100
C 	C 	0.17021 0.75798 0.21669 -0.10400
H 	H 	0.14300 0.73610 0.22140 0.06200
C 	C 	0.09259 0.80745 0.38415 -0.11300
C 	C 	0.17732 0.79755 0.24963 0.04200
O 	O 	0.94987 0.14894 0.44764 -0.38400
O 	O 	0.95068 0.23146 0.44841 -0.39000
C 	C 	0.85422 0.19793 0.29470 0.03100
C 	C 	0.93779 0.19081 0.43065 0.36400
C 	C 	0.89293 0.14947 0.36024 0.02700
H 	H 	0.90130 0.11810 0.37390 0.03500
C 	C 	0.86994 0.24131 0.31955 -0.09200
H 	H 	0.86270 0.27290 0.30570 0.06800
C 	C 	0.86569 0.15198 0.31558 -0.09100
H 	H 	0.85520 0.12240 0.29970 0.05800
C 	C 	0.89582 0.23828 0.36398 0.02900
H 	H 	0.90560 0.26770 0.38060 0.04400
C 	C 	0.82979 0.24202 0.21669 -0.10500
H 	H 	0.85700 0.26390 0.22140 0.07000
C 	C 	0.90741 0.19255 0.38415 -0.09800
C 	C 	0.82268 0.20245 0.24963 0.04400
O 	O 	0.05013 0.14894 0.55236 -0.42600
O 	O 	0.04932 0.23146 0.55159 -0.43200
C 	C 	0.14578 0.19793 0.70530 0.03200
C 	C 	0.06221 0.19081 0.56935 0.36900
C 	C 	0.10707 0.14947 0.63976 0.03000
H 	H 	0.09870 0.11810 0.62610 0.02100
C 	C 	0.13006 0.24131 0.68045 -0.10400
H 	H 	0.13730 0.27290 0.69430 0.06700
C 	C 	0.13431 0.15198 0.68442 -0.10300
H 	H 	0.14480 0.12240 0.70030 0.05500
C 	C 	0.10418 0.23828 0.63602 0.03300
H 	H 	0.09440 0.26770 0.61940 0.03000
C 	C 	0.17021 0.24202 0.78331 -0.10500
H 	H 	0.14300 0.26390 0.77860 0.06300
C 	C 	0.09259 0.19255 0.61585 -0.11900
C 	C 	0.17732 0.20245 0.75037 0.04000
Cu	Cu	0.50000 -0.00000 0.14440 0.87400
Cu	Cu	0.50000 0.00000 0.24026 0.88100
Cu	Cu	0.50000 0.00000 0.85560 0.88000
Cu	Cu	0.50000 -0.00000 0.75974 0.88100
Cu	Cu	0.14440 0.50000 -0.00000 0.87400
Cu	Cu	0.24026 0.50000 -0.00000 0.88100
Cu	Cu	0.85560 0.50000 -0.00000 0.88000
Cu	Cu	0.75974 0.50000 -0.00000 0.88100
Cu	Cu	-0.00000 0.14440 0.50000 0.87400
Cu	Cu	0.00000 0.24026 0.50000 0.88100
Cu	Cu	-0.00000 0.85560 0.50000 0.88000
Cu	Cu	-0.00000 0.75974 0.50000 0.88100
O 	O 	0.94764 0.55013 0.64894 -0.37800
O 	O 	0.94841 0.54932 0.73146 -0.38700
C 	C 	0.79470 0.64578 0.69793 0.02800
C 	C 	0.93065 0.56221 0.69081 0.36000
C 	C 	0.86024 0.60707 0.64947 0.02400
H 	H 	0.87390 0.59870 0.61810 0.04200
C 	C 	0.81955 0.63006 0.74131 -0.09100
H 	H 	0.80570 0.63730 0.77290 0.06600
C 	C 	0.81558 0.63431 0.65198 -0.09000
H 	H 	0.79970 0.64480 0.62240 0.06200
C 	C 	0.86398 0.60418 0.73828 0.02500
H 	H 	0.88060 0.59440 0.76770 0.04500
C 	C 	0.71669 0.67021 0.74202 -0.10900
H 	H 	0.72140 0.64300 0.76390 0.06900
C 	C 	0.88415 0.59259 0.69255 -0.09500
C 	C 	0.74963 0.67732 0.70245 0.04800
O 	O 	0.05236 0.44987 0.64894 -0.42100
O 	O 	0.05159 0.45068 0.73146 -0.43100
C 	C 	0.20530 0.35422 0.69793 0.03400
C 	C 	0.06935 0.43779 0.69081 0.36900
C 	C 	0.13976 0.39293 0.64947 0.03200
H 	H 	0.12610 0.40130 0.61810 0.03000
C 	C 	0.18045 0.36994 0.74131 -0.10100
H 	H 	0.19430 0.36270 0.77290 0.06800
C 	C 	0.18442 0.36569 0.65198 -0.09900
H 	H 	0.20030 0.35520 0.62240 0.06400
C 	C 	0.13602 0.39582 0.73828 0.03400
H 	H 	0.11940 0.40560 0.76770 0.03300
C 	C 	0.28331 0.32979 0.74202 -0.10500
H 	H 	0.27860 0.35700 0.76390 0.06700
C 	C 	0.11585 0.40741 0.69255 -0.11400
C 	C 	0.25037 0.32268 0.70245 0.04400
O 	O 	0.05236 0.55013 0.35106 -0.42100
O 	O 	0.05159 0.54932 0.26854 -0.43300
C 	C 	0.20530 0.64578 0.30207 0.03500
C 	C 	0.06935 0.56221 0.30919 0.37000
C 	C 	0.13976 0.60707 0.35053 0.03300
H 	H 	0.12610 0.59870 0.38190 0.03000
C 	C 	0.18045 0.63006 0.25869 -0.10200
H 	H 	0.19430 0.63730 0.22710 0.06900
C 	C 	0.18442 0.63431 0.34802 -0.10000
H 	H 	0.20030 0.64480 0.37760 0.06400
C 	C 	0.13602 0.60418 0.26172 0.03500
H 	H 	0.11940 0.59440 0.23230 0.03100
C 	C 	0.28331 0.67021 0.25798 -0.10400
H 	H 	0.27860 0.64300 0.23610 0.06700
C 	C 	0.11585 0.59259 0.30745 -0.11500
C 	C 	0.25037 0.67732 0.29755 0.04300
O 	O 	0.94764 0.44987 0.35106 -0.37800
O 	O 	0.94841 0.45068 0.26854 -0.39000
C 	C 	0.79470 0.35422 0.30207 0.03000
C 	C 	0.93065 0.43779 0.30919 0.36100
C 	C 	0.86024 0.39293 0.35053 0.02500
H 	H 	0.87390 0.40130 0.38190 0.04100
C 	C 	0.81955 0.36994 0.25869 -0.09300
H 	H 	0.80570 0.36270 0.22710 0.06700
C 	C 	0.81558 0.36569 0.34802 -0.09100
H 	H 	0.79970 0.35520 0.37760 0.06300
C 	C 	0.86398 0.39582 0.26172 0.02700
H 	H 	0.88060 0.40560 0.23230 0.04200
C 	C 	0.71669 0.32979 0.25798 -0.10500
H 	H 	0.72140 0.35700 0.23610 0.06700
C 	C 	0.88415 0.40741 0.30745 -0.09700
C 	C 	0.74963 0.32268 0.29755 0.04500
O 	O 	0.64894 0.94764 0.55013 -0.37800
O 	O 	0.73146 0.94841 0.54932 -0.38700
C 	C 	0.69793 0.79470 0.64578 0.02800
C 	C 	0.69081 0.93065 0.56221 0.36000
C 	C 	0.64947 0.86024 0.60707 0.02400
H 	H 	0.61810 0.87390 0.59870 0.04200
C 	C 	0.74131 0.81955 0.63006 -0.09100
H 	H 	0.77290 0.80570 0.63730 0.06600
C 	C 	0.65198 0.81558 0.63431 -0.09000
H 	H 	0.62240 0.79970 0.64480 0.06200
C 	C 	0.73828 0.86398 0.60418 0.02500
H 	H 	0.76770 0.88060 0.59440 0.04500
C 	C 	0.74202 0.71669 0.67021 -0.10900
H 	H 	0.76390 0.72140 0.64300 0.06900
C 	C 	0.69255 0.88415 0.59259 -0.09500
C 	C 	0.70245 0.74963 0.67732 0.04800
O 	O 	0.64894 0.05236 0.44987 -0.42100
O 	O 	0.73146 0.05159 0.45068 -0.43100
C 	C 	0.69793 0.20530 0.35422 0.03400
C 	C 	0.69081 0.06935 0.43779 0.36900
C 	C 	0.64947 0.13976 0.39293 0.03200
H 	H 	0.61810 0.12610 0.40130 0.03000
C 	C 	0.74131 0.18045 0.36994 -0.10100
H 	H 	0.77290 0.19430 0.36270 0.06800
C 	C 	0.65198 0.18442 0.36569 -0.09900
H 	H 	0.62240 0.20030 0.35520 0.06400
C 	C 	0.73828 0.13602 0.39582 0.03400
H 	H 	0.76770 0.11940 0.40560 0.03300
C 	C 	0.74202 0.28331 0.32979 -0.10500
H 	H 	0.76390 0.27860 0.35700 0.06700
C 	C 	0.69255 0.11585 0.40741 -0.11400
C 	C 	0.70245 0.25037 0.32268 0.04400
O 	O 	0.35106 0.05236 0.55013 -0.42100
O 	O 	0.26854 0.05159 0.54932 -0.43300
C 	C 	0.30207 0.20530 0.64578 0.03500
C 	C 	0.30919 0.06935 0.56221 0.37000
C 	C 	0.35053 0.13976 0.60707 0.03300
H 	H 	0.38190 0.12610 0.59870 0.03000
C 	C 	0.25869 0.18045 0.63006 -0.10200
H 	H 	0.22710 0.19430 0.63730 0.06900
C 	C 	0.34802 0.18442 0.63431 -0.10000
H 	H 	0.37760 0.20030 0.64480 0.06400
C 	C 	0.26172 0.13602 0.60418 0.03500
H 	H 	0.23230 0.11940 0.59440 0.03100
C 	C 	0.25798 0.28331 0.67021 -0.10400
H 	H 	0.23610 0.27860 0.64300 0.06700
C 	C 	0.30745 0.11585 0.59259 -0.11500
C 	C 	0.29755 0.25037 0.67732 0.04300
O 	O 	0.35106 0.94764 0.44987 -0.37800
O 	O 	0.26854 0.94841 0.45068 -0.39000
C 	C 	0.30207 0.79470 0.35422 0.03000
C 	C 	0.30919 0.93065 0.43779 0.36100
C 	C 	0.35053 0.86024 0.39293 0.02500
H 	H 	0.38190 0.87390 0.40130 0.04100
C 	C 	0.25869 0.81955 0.36994 -0.09300
H 	H 	0.22710 0.80570 0.36270 0.06700
C 	C 	0.34802 0.81558 0.36569 -0.09100
H 	H 	0.37760 0.79970 0.35520 0.06300
C 	C 	0.26172 0.86398 0.39582 0.02700
H 	H 	0.23230 0.88060 0.40560 0.04200
C 	C 	0.25798 0.71669 0.32979 -0.10500
H 	H 	0.23610 0.72140 0.35700 0.06700
C 	C 	0.30745 0.88415 0.40741 -0.09700
C 	C 	0.29755 0.74963 0.32268 0.04500
O 	O 	0.55013 0.64894 0.94764 -0.37800
O 	O 	0.54932 0.73146 0.94841 -0.38700
C 	C 	0.64578 0.69793 0.79470 0.02800
C 	C 	0.56221 0.69081 0.93065 0.36000
C 	C 	0.60707 0.64947 0.86024 0.02400
H 	H 	0.59870 0.61810 0.87390 0.04200
C 	C 	0.63006 0.74131 0.81955 -0.09100
H 	H 	0.63730 0.77290 0.80570 0.06600
C 	C 	0.63431 0.65198 0.81558 -0.09000
H 	H 	0.64480 0.62240 0.79970 0.06200
C 	C 	0.60418 0.73828 0.86398 0.02500
H 	H 	0.59440 0.76770 0.88060 0.04500
C 	C 	0.67021 0.74202 0.71669 -0.10900
H 	H 	0.64300 0.76390 0.72140 0.06900
C 	C 	0.59259 0.69255 0.88415 -0.09500
C 	C 	0.67732 0.70245 0.74963 0.04800
O 	O 	0.44987 0.64894 0.05236 -0.42100
O 	O 	0.45068 0.73146 0.05159 -0.43100
C 	C 	0.35422 0.69793 0.20530 0.03400
C 	C 	0.43779 0.69081 0.06935 0.36900
C 	C 	0.39293 0.64947 0.13976 0.03200
H 	H 	0.40130 0.61810 0.12610 0.03000
C 	C 	0.36994 0.74131 0.18045 -0.10100
H 	H 	0.36270 0.77290 0.19430 0.06800
C 	C 	0.36569 0.65198 0.18442 -0.09900
H 	H 	0.35520 0.62240 0.20030 0.06400
C 	C 	0.39582 0.73828 0.13602 0.03400
H 	H 	0.40560 0.76770 0.11940 0.03300
C 	C 	0.32979 0.74202 0.28331 -0.10500
H 	H 	0.35700 0.76390 0.27860 0.06700
C 	C 	0.40741 0.69255 0.11585 -0.11400
C 	C 	0.32268 0.70245 0.25037 0.04400
O 	O 	0.55013 0.35106 0.05236 -0.42100
O 	O 	0.54932 0.26854 0.05159 -0.43300
C 	C 	0.64578 0.30207 0.20530 0.03500
C 	C 	0.56221 0.30919 0.06935 0.37000
C 	C 	0.60707 0.35053 0.13976 0.03300
H 	H 	0.59870 0.38190 0.12610 0.03000
C 	C 	0.63006 0.25869 0.18045 -0.10200
H 	H 	0.63730 0.22710 0.19430 0.06900
C 	C 	0.63431 0.34802 0.18442 -0.10000
H 	H 	0.64480 0.37760 0.20030 0.06400
C 	C 	0.60418 0.26172 0.13602 0.03500
H 	H 	0.59440 0.23230 0.11940 0.03100
C 	C 	0.67021 0.25798 0.28331 -0.10400
H 	H 	0.64300 0.23610 0.27860 0.06700
C 	C 	0.59259 0.30745 0.11585 -0.11500
C 	C 	0.67732 0.29755 0.25037 0.04300
O 	O 	0.44987 0.35106 0.94764 -0.37800
O 	O 	0.45068 0.26854 0.94841 -0.39000
C 	C 	0.35422 0.30207 0.79470 0.03000
C 	C 	0.43779 0.30919 0.93065 0.36100
C 	C 	0.39293 0.35053 0.86024 0.02500
H 	H 	0.40130 0.38190 0.87390 0.04100
C 	C 	0.36994 0.25869 0.81955 -0.09300
H 	H 	0.36270 0.22710 0.80570 0.06700
C 	C 	0.36569 0.34802 0.81558 -0.09100
H 	H 	0.35520 0.37760 0.79970 0.06300
C 	C 	0.39582 0.26172 0.86398 0.02700
H 	H 	0.40560 0.23230 0.88060 0.04200
C 	C 	0.32979 0.25798 0.71669 -0.10500
H 	H 	0.35700 0.23610 0.72140 0.06700
C 	C 	0.40741 0.30745 0.88415 -0.09700
C 	C 	0.32268 0.29755 0.74963 0.04500
O 	O 	0.05236 0.44987 0.35106 -0.42100
O 	O 	0.05159 0.45068 0.26854 -0.43300
C 	C 	0.20530 0.35422 0.30207 0.03500
C 	C 	0.06935 0.43779 0.30919 0.37000
C 	C 	0.13976 0.39293 0.35053 0.03300
H 	H 	0.12610 0.40130 0.38190 0.03000
C 	C 	0.18045 0.36994 0.25869 -0.10200
H 	H 	0.19430 0.36270 0.22710 0.06900
C 	C 	0.18442 0.36569 0.34802 -0.10000
H 	H 	0.20030 0.35520 0.37760 0.06400
C 	C 	0.13602 0.39582 0.26172 0.03500
H 	H 	0.11940 0.40560 0.23230 0.03100
C 	C 	0.28331 0.32979 0.25798 -0.10300
H 	H 	0.27860 0.35700 0.23610 0.06600
C 	C 	0.11585 0.40741 0.30745 -0.11600
C 	C 	0.25037 0.32268 0.29755 0.04200
O 	O 	0.94764 0.55013 0.35106 -0.37800
O 	O 	0.94841 0.54932 0.26854 -0.39000
C 	C 	0.79470 0.64578 0.30207 0.02900
C 	C 	0.93065 0.56221 0.30919 0.36100
C 	C 	0.86024 0.60707 0.35053 0.02500
H 	H 	0.87390 0.59870 0.38190 0.04100
C 	C 	0.81955 0.63006 0.25869 -0.09200
H 	H 	0.80570 0.63730 0.22710 0.06700
C 	C 	0.81558 0.63431 0.34802 -0.09100
H 	H 	0.79970 0.64480 0.37760 0.06300
C 	C 	0.86398 0.60418 0.26172 0.02700
H 	H 	0.88060 0.59440 0.23230 0.04300
C 	C 	0.71669 0.67021 0.25798 -0.10600
H 	H 	0.72140 0.64300 0.23610 0.06800
C 	C 	0.88415 0.59259 0.30745 -0.09700
C 	C 	0.74963 0.67732 0.29755 0.04600
O 	O 	0.94764 0.44987 0.64894 -0.37800
O 	O 	0.94841 0.45068 0.73146 -0.38800
C 	C 	0.79470 0.35422 0.69793 0.02800
C 	C 	0.93065 0.43779 0.69081 0.36100
C 	C 	0.86024 0.39293 0.64947 0.02400
H 	H 	0.87390 0.40130 0.61810 0.04200
C 	C 	0.81955 0.36994 0.74131 -0.09100
H 	H 	0.80570 0.36270 0.77290 0.06600
C 	C 	0.81558 0.36569 0.65198 -0.09000
H 	H 	0.79970 0.35520 0.62240 0.06300
C 	C 	0.86398 0.39582 0.73828 0.02500
H 	H 	0.88060 0.40560 0.76770 0.04500
C 	C 	0.71669 0.32979 0.74202 -0.10700
H 	H 	0.72140 0.35700 0.76390 0.06800
C 	C 	0.88415 0.40741 0.69255 -0.09500
C 	C 	0.74963 0.32268 0.70245 0.04700
O 	O 	0.05236 0.55013 0.64894 -0.42100
O 	O 	0.05159 0.54932 0.73146 -0.43100
C 	C 	0.20530 0.64578 0.69793 0.03300
C 	C 	0.06935 0.56221 0.69081 0.36900
C 	C 	0.13976 0.60707 0.64947 0.03200
H 	H 	0.12610 0.59870 0.61810 0.03000
C 	C 	0.18045 0.63006 0.74131 -0.10000
H 	H 	0.19430 0.63730 0.77290 0.06800
C 	C 	0.18442 0.63431 0.65198 -0.09900
H 	H 	0.20030 0.64480 0.62240 0.06300
C 	C 	0.13602 0.60418 0.73828 0.03400
H 	H 	0.11940 0.59440 0.76770 0.03300
C 	C 	0.28331 0.67021 0.74202 -0.10700
H 	H 	0.27860 0.64300 0.76390 0.06800
C 	C 	0.11585 0.59259 0.69255 -0.11400
C 	C 	0.25037 0.67732 0.70245 0.04500
O 	O 	0.35106 0.05236 0.44987 -0.42100
O 	O 	0.26854 0.05159 0.45068 -0.43300
C 	C 	0.30207 0.20530 0.35422 0.03500
C 	C 	0.30919 0.06935 0.43779 0.37000
C 	C 	0.35053 0.13976 0.39293 0.03300
H 	H 	0.38190 0.12610 0.40130 0.03000
C 	C 	0.25869 0.18045 0.36994 -0.10200
H 	H 	0.22710 0.19430 0.36270 0.06900
C 	C 	0.34802 0.18442 0.36569 -0.10000
H 	H 	0.37760 0.20030 0.35520 0.06400
C 	C 	0.26172 0.13602 0.39582 0.03500
H 	H 	0.23230 0.11940 0.40560 0.03100
C 	C 	0.25798 0.28331 0.32979 -0.10300
H 	H 	0.23610 0.27860 0.35700 0.06600
C 	C 	0.30745 0.11585 0.40741 -0.11600
C 	C 	0.29755 0.25037 0.32268 0.04200
O 	O 	0.35106 0.94764 0.55013 -0.37800
O 	O 	0.26854 0.94841 0.54932 -0.39000
C 	C 	0.30207 0.79470 0.64578 0.02900
C 	C 	0.30919 0.93065 0.56221 0.36100
C 	C 	0.35053 0.86024 0.60707 0.02500
H 	H 	0.38190 0.87390 0.59870 0.04100
C 	C 	0.25869 0.81955 0.63006 -0.09200
H 	H 	0.22710 0.80570 0.63730 0.06700
C 	C 	0.34802 0.81558 0.63431 -0.09100
H 	H 	0.37760 0.79970 0.64480 0.06300
C 	C 	0.26172 0.86398 0.60418 0.02700
H 	H 	0.23230 0.88060 0.59440 0.04300
C 	C 	0.25798 0.71669 0.67021 -0.10600
H 	H 	0.23610 0.72140 0.64300 0.06800
C 	C 	0.30745 0.88415 0.59259 -0.09700
C 	C 	0.29755 0.74963 0.67732 0.04600
O 	O 	0.64894 0.94764 0.44987 -0.37800
O 	O 	0.73146 0.94841 0.45068 -0.38800
C 	C 	0.69793 0.79470 0.35422 0.02800
C 	C 	0.69081 0.93065 0.43779 0.36100
C 	C 	0.64947 0.86024 0.39293 0.02400
H 	H 	0.61810 0.87390 0.40130 0.04200
C 	C 	0.74131 0.81955 0.36994 -0.09100
H 	H 	0.77290 0.80570 0.36270 0.06600
C 	C 	0.65198 0.81558 0.36569 -0.09000
H 	H 	0.62240 0.79970 0.35520 0.06300
C 	C 	0.73828 0.86398 0.39582 0.02500
H 	H 	0.76770 0.88060 0.40560 0.04500
C 	C 	0.74202 0.71669 0.32979 -0.10700
H 	H 	0.76390 0.72140 0.35700 0.06800
C 	C 	0.69255 0.88415 0.40741 -0.09500
C 	C 	0.70245 0.74963 0.32268 0.04700
O 	O 	0.64894 0.05236 0.55013 -0.42100
O 	O 	0.73146 0.05159 0.54932 -0.43100
C 	C 	0.69793 0.20530 0.64578 0.03300
C 	C 	0.69081 0.06935 0.56221 0.36900
C 	C 	0.64947 0.13976 0.60707 0.03200
H 	H 	0.61810 0.12610 0.59870 0.03000
C 	C 	0.74131 0.18045 0.63006 -0.10000
H 	H 	0.77290 0.19430 0.63730 0.06800
C 	C 	0.65198 0.18442 0.63431 -0.09900
H 	H 	0.62240 0.20030 0.64480 0.06300
C 	C 	0.73828 0.13602 0.60418 0.03400
H 	H 	0.76770 0.11940 0.59440 0.03300
C 	C 	0.74202 0.28331 0.67021 -0.10700
H 	H 	0.76390 0.27860 0.64300 0.06800
C 	C 	0.69255 0.11585 0.59259 -0.11400
C 	C 	0.70245 0.25037 0.67732 0.04500
O 	O 	0.44987 0.35106 0.05236 -0.42100
O 	O 	0.45068 0.26854 0.05159 -0.43300
C 	C 	0.35422 0.30207 0.20530 0.03500
C 	C 	0.43779 0.30919 0.06935 0.37000
C 	C 	0.39293 0.35053 0.13976 0.03300
H 	H 	0.40130 0.38190 0.12610 0.03000
C 	C 	0.36994 0.25869 0.18045 -0.10200
H 	H 	0.36270 0.22710 0.19430 0.06900
C 	C 	0.36569 0.34802 0.18442 -0.10000
H 	H 	0.35520 0.37760 0.20030 0.06400
C 	C 	0.39582 0.26172 0.13602 0.03500
H 	H 	0.40560 0.23230 0.11940 0.03100
C 	C 	0.32979 0.25798 0.28331 -0.10300
H 	H 	0.35700 0.23610 0.27860 0.06600
C 	C 	0.40741 0.30745 0.11585 -0.11600
C 	C 	0.32268 0.29755 0.25037 0.04200
O 	O 	0.55013 0.35106 0.94764 -0.37800
O 	O 	0.54932 0.26854 0.94841 -0.39000
C 	C 	0.64578 0.30207 0.79470 0.02900
C 	C 	0.56221 0.30919 0.93065 0.36100
C 	C 	0.60707 0.35053 0.86024 0.02500
H 	H 	0.59870 0.38190 0.87390 0.04100
C 	C 	0.63006 0.25869 0.81955 -0.09200
H 	H 	0.63730 0.22710 0.80570 0.06700
C 	C 	0.63431 0.34802 0.81558 -0.09100
H 	H 	0.64480 0.37760 0.79970 0.06300
C 	C 	0.60418 0.26172 0.86398 0.02700
H 	H 	0.59440 0.23230 0.88060 0.04300
C 	C 	0.67021 0.25798 0.71669 -0.10600
H 	H 	0.64300 0.23610 0.72140 0.06800
C 	C 	0.59259 0.30745 0.88415 -0.09700
C 	C 	0.67732 0.29755 0.74963 0.04600
O 	O 	0.44987 0.64894 0.94764 -0.37800
O 	O 	0.45068 0.73146 0.94841 -0.38800
C 	C 	0.35422 0.69793 0.79470 0.02800
C 	C 	0.43779 0.69081 0.93065 0.36100
C 	C 	0.39293 0.64947 0.86024 0.02400
H 	H 	0.40130 0.61810 0.87390 0.04200
C 	C 	0.36994 0.74131 0.81955 -0.09100
H 	H 	0.36270 0.77290 0.80570 0.06600
C 	C 	0.36569 0.65198 0.81558 -0.09000
H 	H 	0.35520 0.62240 0.79970 0.06300
C 	C 	0.39582 0.73828 0.86398 0.02500
H 	H 	0.40560 0.76770 0.88060 0.04500
C 	C 	0.32979 0.74202 0.71669 -0.10700
H 	H 	0.35700 0.76390 0.72140 0.06800
C 	C 	0.40741 0.69255 0.88415 -0.09500
C 	C 	0.32268 0.70245 0.74963 0.04700
O 	O 	0.55013 0.64894 0.05236 -0.42100
O 	O 	0.54932 0.73146 0.05159 -0.43100
C 	C 	0.64578 0.69793 0.20530 0.03300
C 	C 	0.56221 0.69081 0.06935 0.36900
C 	C 	0.60707 0.64947 0.13976 0.03200
H 	H 	0.59870 0.61810 0.12610 0.03000
C 	C 	0.63006 0.74131 0.18045 -0.10000
H 	H 	0.63730 0.77290 0.19430 0.06800
C 	C 	0.63431 0.65198 0.18442 -0.09900
H 	H 	0.64480 0.62240 0.20030 0.06300
C 	C 	0.60418 0.73828 0.13602 0.03400
H 	H 	0.59440 0.76770 0.11940 0.03300
C 	C 	0.67021 0.74202 0.28331 -0.10700
H 	H 	0.64300 0.76390 0.27860 0.06800
C 	C 	0.59259 0.69255 0.11585 -0.11400
C 	C 	0.67732 0.70245 0.25037 0.04500
Cu	Cu	-0.00000 0.50000 0.64440 0.87700
Cu	Cu	-0.00000 0.50000 0.74026 0.88100
Cu	Cu	-0.00000 0.50000 0.35560 0.87700
Cu	Cu	0.00000 0.50000 0.25974 0.88000
Cu	Cu	0.64440 0.00000 0.50000 0.87700
Cu	Cu	0.74026 0.00000 0.50000 0.88100
Cu	Cu	0.35560 0.00000 0.50000 0.87700
Cu	Cu	0.25974 0.00000 0.50000 0.88000
Cu	Cu	0.50000 0.64440 -0.00000 0.87700
Cu	Cu	0.50000 0.74026 -0.00000 0.88100
Cu	Cu	0.50000 0.35560 -0.00000 0.87700
Cu	Cu	0.50000 0.25974 -0.00000 0.88000
