data_crystal

_cell_length_a 26.94300
_cell_length_b 26.94300
_cell_length_c 26.94300
_cell_angle_alpha 90.00000
_cell_angle_beta  90.00000
_cell_angle_gamma 90.00000

_symmetry_space_group_name_	'P 1'
_symmetry_space_group_name_H-M	'P 1'

loop_
_symmetry_equiv_pos_as_xyz
  x,y,z

loop_
_atom_site_label
_atom_site_type_symbol
_atom_site_fract_x
_atom_site_fract_y
_atom_site_fract_z
_atom_site_charge
O 	O 	0.44750 0.05041 0.14884 -0.43400
O 	O 	0.44850 0.04890 0.23110 -0.43700
C 	C 	0.29410 0.14510 0.19720 0.03600
C 	C 	0.43060 0.06200 0.19020 0.38000
C 	C 	0.35980 0.10650 0.14910 0.03800
H 	H 	0.37320 0.09810 0.11840 0.01600
C 	C 	0.31950 0.12940 0.24130 -0.12000
H 	H 	0.30610 0.13640 0.27230 0.07300
C 	C 	0.31490 0.13370 0.15120 -0.11700
H 	H 	0.29940 0.14400 0.12210 0.05700
C 	C 	0.36380 0.10400 0.23770 0.04500
H 	H 	0.38030 0.09450 0.26650 0.02500
C 	C 	0.21640 0.16950 0.24140 -0.11100
H 	H 	0.22070 0.14250 0.26250 0.06300
C 	C 	0.38410 0.09220 0.19230 -0.13200
C 	C 	0.24940 0.17680 0.20230 0.03700
O 	O 	0.55250 0.94959 0.14884 -0.39100
O 	O 	0.55150 0.95110 0.23110 -0.39300
C 	C 	0.70590 0.85490 0.19720 0.03500
C 	C 	0.56940 0.93800 0.19020 0.37500
C 	C 	0.64020 0.89350 0.14910 0.03400
H 	H 	0.62680 0.90190 0.11840 0.03300
C 	C 	0.68050 0.87060 0.24130 -0.10400
H 	H 	0.69390 0.86360 0.27230 0.07400
C 	C 	0.68510 0.86630 0.15120 -0.10100
H 	H 	0.70060 0.85600 0.12210 0.06400
C 	C 	0.63620 0.89600 0.23770 0.03900
H 	H 	0.61970 0.90550 0.26650 0.04100
C 	C 	0.78360 0.83050 0.24140 -0.11600
H 	H 	0.77930 0.85750 0.26250 0.07800
C 	C 	0.61590 0.90780 0.19230 -0.10700
C 	C 	0.75060 0.82320 0.20230 0.05200
O 	O 	0.55250 0.05041 0.85116 -0.42000
O 	O 	0.55150 0.04890 0.76890 -0.43400
C 	C 	0.70590 0.14510 0.80280 0.03800
C 	C 	0.56940 0.06200 0.80980 0.37800
C 	C 	0.64020 0.10650 0.85090 0.03900
H 	H 	0.62680 0.09810 0.88160 0.03400
C 	C 	0.68050 0.12940 0.75870 -0.11500
H 	H 	0.69390 0.13640 0.72770 0.07300
C 	C 	0.68510 0.13370 0.84880 -0.10900
H 	H 	0.70060 0.14400 0.87790 0.07400
C 	C 	0.63620 0.10400 0.76230 0.04400
H 	H 	0.61970 0.09450 0.73350 0.02700
C 	C 	0.78360 0.16950 0.75860 -0.11400
H 	H 	0.77930 0.14250 0.73750 0.07000
C 	C 	0.61590 0.09220 0.80770 -0.12400
C 	C 	0.75060 0.17680 0.79770 0.05000
O 	O 	0.44750 0.94959 0.85116 -0.37800
O 	O 	0.44850 0.95110 0.76890 -0.39100
C 	C 	0.29410 0.85490 0.80280 0.03600
C 	C 	0.43060 0.93800 0.80980 0.37200
C 	C 	0.35980 0.89350 0.85090 0.03300
H 	H 	0.37320 0.90190 0.88160 0.04900
C 	C 	0.31950 0.87060 0.75870 -0.10100
H 	H 	0.30610 0.86360 0.72770 0.07400
C 	C 	0.31490 0.86630 0.84880 -0.09600
H 	H 	0.29940 0.85600 0.87790 0.07600
C 	C 	0.36380 0.89600 0.76230 0.03800
H 	H 	0.38030 0.90550 0.73350 0.04200
C 	C 	0.21640 0.83050 0.75860 -0.11500
H 	H 	0.22070 0.85750 0.73750 0.07700
C 	C 	0.38410 0.90780 0.80770 -0.10100
C 	C 	0.24940 0.82320 0.79770 0.05400
O 	O 	0.14884 0.44750 0.05041 -0.43300
O 	O 	0.23110 0.44850 0.04890 -0.43600
C 	C 	0.19720 0.29410 0.14510 0.03700
C 	C 	0.19020 0.43060 0.06200 0.38100
C 	C 	0.14910 0.35980 0.10650 0.03900
H 	H 	0.11840 0.37320 0.09810 0.01700
C 	C 	0.24130 0.31950 0.12940 -0.11900
H 	H 	0.27230 0.30610 0.13640 0.07400
C 	C 	0.15120 0.31490 0.13370 -0.11600
H 	H 	0.12210 0.29940 0.14400 0.05800
C 	C 	0.23770 0.36380 0.10400 0.04600
H 	H 	0.26650 0.38030 0.09450 0.02600
C 	C 	0.24140 0.21640 0.16950 -0.11000
H 	H 	0.26250 0.22070 0.14250 0.06400
C 	C 	0.19230 0.38410 0.09220 -0.13100
C 	C 	0.20230 0.24940 0.17680 0.03800
O 	O 	0.14884 0.55250 0.94959 -0.39000
O 	O 	0.23110 0.55150 0.95110 -0.39200
C 	C 	0.19720 0.70590 0.85490 0.03600
C 	C 	0.19020 0.56940 0.93800 0.37600
C 	C 	0.14910 0.64020 0.89350 0.03500
H 	H 	0.11840 0.62680 0.90190 0.03400
C 	C 	0.24130 0.68050 0.87060 -0.10300
H 	H 	0.27230 0.69390 0.86360 0.07500
C 	C 	0.15120 0.68510 0.86630 -0.10000
H 	H 	0.12210 0.70060 0.85600 0.06500
C 	C 	0.23770 0.63620 0.89600 0.04000
H 	H 	0.26650 0.61970 0.90550 0.04100
C 	C 	0.24140 0.78360 0.83050 -0.11600
H 	H 	0.26250 0.77930 0.85750 0.07800
C 	C 	0.19230 0.61590 0.90780 -0.10700
C 	C 	0.20230 0.75060 0.82320 0.05200
O 	O 	0.85116 0.55250 0.05041 -0.42000
O 	O 	0.76890 0.55150 0.04890 -0.43400
C 	C 	0.80280 0.70590 0.14510 0.03800
C 	C 	0.80980 0.56940 0.06200 0.37800
C 	C 	0.85090 0.64020 0.10650 0.03900
H 	H 	0.88160 0.62680 0.09810 0.03400
C 	C 	0.75870 0.68050 0.12940 -0.11500
H 	H 	0.72770 0.69390 0.13640 0.07300
C 	C 	0.84880 0.68510 0.13370 -0.10900
H 	H 	0.87790 0.70060 0.14400 0.07400
C 	C 	0.76230 0.63620 0.10400 0.04400
H 	H 	0.73350 0.61970 0.09450 0.02700
C 	C 	0.75860 0.78360 0.16950 -0.11400
H 	H 	0.73750 0.77930 0.14250 0.07000
C 	C 	0.80770 0.61590 0.09220 -0.12400
C 	C 	0.79770 0.75060 0.17680 0.05000
O 	O 	0.85116 0.44750 0.94959 -0.37800
O 	O 	0.76890 0.44850 0.95110 -0.39100
C 	C 	0.80280 0.29410 0.85490 0.03600
C 	C 	0.80980 0.43060 0.93800 0.37200
C 	C 	0.85090 0.35980 0.89350 0.03300
H 	H 	0.88160 0.37320 0.90190 0.04900
C 	C 	0.75870 0.31950 0.87060 -0.10100
H 	H 	0.72770 0.30610 0.86360 0.07400
C 	C 	0.84880 0.31490 0.86630 -0.09600
H 	H 	0.87790 0.29940 0.85600 0.07600
C 	C 	0.76230 0.36380 0.89600 0.03800
H 	H 	0.73350 0.38030 0.90550 0.04200
C 	C 	0.75860 0.21640 0.83050 -0.11500
H 	H 	0.73750 0.22070 0.85750 0.07700
C 	C 	0.80770 0.38410 0.90780 -0.10100
C 	C 	0.79770 0.24940 0.82320 0.05400
O 	O 	0.05041 0.14884 0.44750 -0.43300
O 	O 	0.04890 0.23110 0.44850 -0.43600
C 	C 	0.14510 0.19720 0.29410 0.03700
C 	C 	0.06200 0.19020 0.43060 0.38100
C 	C 	0.10650 0.14910 0.35980 0.03900
H 	H 	0.09810 0.11840 0.37320 0.01700
C 	C 	0.12940 0.24130 0.31950 -0.11900
H 	H 	0.13640 0.27230 0.30610 0.07400
C 	C 	0.13370 0.15120 0.31490 -0.11600
H 	H 	0.14400 0.12210 0.29940 0.05800
C 	C 	0.10400 0.23770 0.36380 0.04600
H 	H 	0.09450 0.26650 0.38030 0.02600
C 	C 	0.16950 0.24140 0.21640 -0.11000
H 	H 	0.14250 0.26250 0.22070 0.06400
C 	C 	0.09220 0.19230 0.38410 -0.13100
C 	C 	0.17680 0.20230 0.24940 0.03800
O 	O 	0.94959 0.14884 0.55250 -0.39000
O 	O 	0.95110 0.23110 0.55150 -0.39200
C 	C 	0.85490 0.19720 0.70590 0.03600
C 	C 	0.93800 0.19020 0.56940 0.37600
C 	C 	0.89350 0.14910 0.64020 0.03500
H 	H 	0.90190 0.11840 0.62680 0.03400
C 	C 	0.87060 0.24130 0.68050 -0.10300
H 	H 	0.86360 0.27230 0.69390 0.07500
C 	C 	0.86630 0.15120 0.68510 -0.10000
H 	H 	0.85600 0.12210 0.70060 0.06500
C 	C 	0.89600 0.23770 0.63620 0.04000
H 	H 	0.90550 0.26650 0.61970 0.04100
C 	C 	0.83050 0.24140 0.78360 -0.11600
H 	H 	0.85750 0.26250 0.77930 0.07800
C 	C 	0.90780 0.19230 0.61590 -0.10700
C 	C 	0.82320 0.20230 0.75060 0.05200
O 	O 	0.05041 0.85116 0.55250 -0.42000
O 	O 	0.04890 0.76890 0.55150 -0.43400
C 	C 	0.14510 0.80280 0.70590 0.03800
C 	C 	0.06200 0.80980 0.56940 0.37800
C 	C 	0.10650 0.85090 0.64020 0.03900
H 	H 	0.09810 0.88160 0.62680 0.03400
C 	C 	0.12940 0.75870 0.68050 -0.11500
H 	H 	0.13640 0.72770 0.69390 0.07300
C 	C 	0.13370 0.84880 0.68510 -0.10900
H 	H 	0.14400 0.87790 0.70060 0.07400
C 	C 	0.10400 0.76230 0.63620 0.04400
H 	H 	0.09450 0.73350 0.61970 0.02700
C 	C 	0.16950 0.75860 0.78360 -0.11400
H 	H 	0.14250 0.73750 0.77930 0.07000
C 	C 	0.09220 0.80770 0.61590 -0.12400
C 	C 	0.17680 0.79770 0.75060 0.05000
O 	O 	0.94959 0.85116 0.44750 -0.37800
O 	O 	0.95110 0.76890 0.44850 -0.39100
C 	C 	0.85490 0.80280 0.29410 0.03600
C 	C 	0.93800 0.80980 0.43060 0.37200
C 	C 	0.89350 0.85090 0.35980 0.03300
H 	H 	0.90190 0.88160 0.37320 0.04900
C 	C 	0.87060 0.75870 0.31950 -0.10100
H 	H 	0.86360 0.72770 0.30610 0.07400
C 	C 	0.86630 0.84880 0.31490 -0.09600
H 	H 	0.85600 0.87790 0.29940 0.07600
C 	C 	0.89600 0.76230 0.36380 0.03800
H 	H 	0.90550 0.73350 0.38030 0.04200
C 	C 	0.83050 0.75860 0.21640 -0.11500
H 	H 	0.85750 0.73750 0.22070 0.07700
C 	C 	0.90780 0.80770 0.38410 -0.10100
C 	C 	0.82320 0.79770 0.24940 0.05400
O 	O 	0.55250 0.94959 0.85116 -0.37700
O 	O 	0.55150 0.95110 0.76890 -0.39100
C 	C 	0.70590 0.85490 0.80280 0.03700
C 	C 	0.56940 0.93800 0.80980 0.37300
C 	C 	0.64020 0.89350 0.85090 0.03400
H 	H 	0.62680 0.90190 0.88160 0.05000
C 	C 	0.68050 0.87060 0.75870 -0.10000
H 	H 	0.69390 0.86360 0.72770 0.07400
C 	C 	0.68510 0.86630 0.84880 -0.09500
H 	H 	0.70060 0.85600 0.87790 0.07900
C 	C 	0.63620 0.89600 0.76230 0.03800
H 	H 	0.61970 0.90550 0.73350 0.04200
C 	C 	0.78360 0.83050 0.75860 -0.11700
H 	H 	0.77930 0.85750 0.73750 0.08000
C 	C 	0.61590 0.90780 0.80770 -0.10000
C 	C 	0.75060 0.82320 0.79770 0.05900
O 	O 	0.44750 0.05041 0.85116 -0.42100
O 	O 	0.44850 0.04890 0.76890 -0.43400
C 	C 	0.29410 0.14510 0.80280 0.03800
C 	C 	0.43060 0.06200 0.80980 0.37800
C 	C 	0.35980 0.10650 0.85090 0.03800
H 	H 	0.37320 0.09810 0.88160 0.03300
C 	C 	0.31950 0.12940 0.75870 -0.11600
H 	H 	0.30610 0.13640 0.72770 0.07300
C 	C 	0.31490 0.13370 0.84880 -0.11100
H 	H 	0.29940 0.14400 0.87790 0.07100
C 	C 	0.36380 0.10400 0.76230 0.04400
H 	H 	0.38030 0.09450 0.73350 0.02700
C 	C 	0.21640 0.16950 0.75860 -0.11200
H 	H 	0.22070 0.14250 0.73750 0.06600
C 	C 	0.38410 0.09220 0.80770 -0.12400
C 	C 	0.24940 0.17680 0.79770 0.04500
O 	O 	0.44750 0.94959 0.14884 -0.39000
O 	O 	0.44850 0.95110 0.23110 -0.39200
C 	C 	0.29410 0.85490 0.19720 0.03600
C 	C 	0.43060 0.93800 0.19020 0.37500
C 	C 	0.35980 0.89350 0.14910 0.03400
H 	H 	0.37320 0.90190 0.11840 0.03300
C 	C 	0.31950 0.87060 0.24130 -0.10400
H 	H 	0.30610 0.86360 0.27230 0.07500
C 	C 	0.31490 0.86630 0.15120 -0.10100
H 	H 	0.29940 0.85600 0.12210 0.06300
C 	C 	0.36380 0.89600 0.23770 0.04000
H 	H 	0.38030 0.90550 0.26650 0.04100
C 	C 	0.21640 0.83050 0.24140 -0.11300
H 	H 	0.22070 0.85750 0.26250 0.07400
C 	C 	0.38410 0.90780 0.19230 -0.10700
C 	C 	0.24940 0.82320 0.20230 0.04800
O 	O 	0.55250 0.05041 0.14884 -0.43300
O 	O 	0.55150 0.04890 0.23110 -0.43600
C 	C 	0.70590 0.14510 0.19720 0.03800
C 	C 	0.56940 0.06200 0.19020 0.38100
C 	C 	0.64020 0.10650 0.14910 0.04000
H 	H 	0.62680 0.09810 0.11840 0.01800
C 	C 	0.68050 0.12940 0.24130 -0.11900
H 	H 	0.69390 0.13640 0.27230 0.07400
C 	C 	0.68510 0.13370 0.15120 -0.11500
H 	H 	0.70060 0.14400 0.12210 0.06100
C 	C 	0.63620 0.10400 0.23770 0.04700
H 	H 	0.61970 0.09450 0.26650 0.02600
C 	C 	0.78360 0.16950 0.24140 -0.11300
H 	H 	0.77930 0.14250 0.26250 0.06700
C 	C 	0.61590 0.09220 0.19230 -0.13000
C 	C 	0.75060 0.17680 0.20230 0.04300
O 	O 	0.85116 0.55250 0.94959 -0.37700
O 	O 	0.76890 0.55150 0.95110 -0.39100
C 	C 	0.80280 0.70590 0.85490 0.03700
C 	C 	0.80980 0.56940 0.93800 0.37300
C 	C 	0.85090 0.64020 0.89350 0.03400
H 	H 	0.88160 0.62680 0.90190 0.05000
C 	C 	0.75870 0.68050 0.87060 -0.10000
H 	H 	0.72770 0.69390 0.86360 0.07400
C 	C 	0.84880 0.68510 0.86630 -0.09500
H 	H 	0.87790 0.70060 0.85600 0.07900
C 	C 	0.76230 0.63620 0.89600 0.03800
H 	H 	0.73350 0.61970 0.90550 0.04200
C 	C 	0.75860 0.78360 0.83050 -0.11700
H 	H 	0.73750 0.77930 0.85750 0.08000
C 	C 	0.80770 0.61590 0.90780 -0.10000
C 	C 	0.79770 0.75060 0.82320 0.05900
O 	O 	0.85116 0.44750 0.05041 -0.42100
O 	O 	0.76890 0.44850 0.04890 -0.43400
C 	C 	0.80280 0.29410 0.14510 0.03800
C 	C 	0.80980 0.43060 0.06200 0.37800
C 	C 	0.85090 0.35980 0.10650 0.03800
H 	H 	0.88160 0.37320 0.09810 0.03300
C 	C 	0.75870 0.31950 0.12940 -0.11600
H 	H 	0.72770 0.30610 0.13640 0.07300
C 	C 	0.84880 0.31490 0.13370 -0.11100
H 	H 	0.87790 0.29940 0.14400 0.07100
C 	C 	0.76230 0.36380 0.10400 0.04400
H 	H 	0.73350 0.38030 0.09450 0.02700
C 	C 	0.75860 0.21640 0.16950 -0.11200
H 	H 	0.73750 0.22070 0.14250 0.06600
C 	C 	0.80770 0.38410 0.09220 -0.12400
C 	C 	0.79770 0.24940 0.17680 0.04500
O 	O 	0.14884 0.44750 0.94959 -0.39000
O 	O 	0.23110 0.44850 0.95110 -0.39200
C 	C 	0.19720 0.29410 0.85490 0.03600
C 	C 	0.19020 0.43060 0.93800 0.37500
C 	C 	0.14910 0.35980 0.89350 0.03400
H 	H 	0.11840 0.37320 0.90190 0.03300
C 	C 	0.24130 0.31950 0.87060 -0.10400
H 	H 	0.27230 0.30610 0.86360 0.07500
C 	C 	0.15120 0.31490 0.86630 -0.10100
H 	H 	0.12210 0.29940 0.85600 0.06300
C 	C 	0.23770 0.36380 0.89600 0.04000
H 	H 	0.26650 0.38030 0.90550 0.04100
C 	C 	0.24140 0.21640 0.83050 -0.11300
H 	H 	0.26250 0.22070 0.85750 0.07400
C 	C 	0.19230 0.38410 0.90780 -0.10700
C 	C 	0.20230 0.24940 0.82320 0.04800
O 	O 	0.14884 0.55250 0.05041 -0.43300
O 	O 	0.23110 0.55150 0.04890 -0.43600
C 	C 	0.19720 0.70590 0.14510 0.03800
C 	C 	0.19020 0.56940 0.06200 0.38100
C 	C 	0.14910 0.64020 0.10650 0.04000
H 	H 	0.11840 0.62680 0.09810 0.01800
C 	C 	0.24130 0.68050 0.12940 -0.11900
H 	H 	0.27230 0.69390 0.13640 0.07400
C 	C 	0.15120 0.68510 0.13370 -0.11500
H 	H 	0.12210 0.70060 0.14400 0.06100
C 	C 	0.23770 0.63620 0.10400 0.04700
H 	H 	0.26650 0.61970 0.09450 0.02600
C 	C 	0.24140 0.78360 0.16950 -0.11300
H 	H 	0.26250 0.77930 0.14250 0.06700
C 	C 	0.19230 0.61590 0.09220 -0.13000
C 	C 	0.20230 0.75060 0.17680 0.04300
O 	O 	0.94959 0.85116 0.55250 -0.37700
O 	O 	0.95110 0.76890 0.55150 -0.39100
C 	C 	0.85490 0.80280 0.70590 0.03700
C 	C 	0.93800 0.80980 0.56940 0.37300
C 	C 	0.89350 0.85090 0.64020 0.03400
H 	H 	0.90190 0.88160 0.62680 0.05000
C 	C 	0.87060 0.75870 0.68050 -0.10000
H 	H 	0.86360 0.72770 0.69390 0.07400
C 	C 	0.86630 0.84880 0.68510 -0.09500
H 	H 	0.85600 0.87790 0.70060 0.07900
C 	C 	0.89600 0.76230 0.63620 0.03800
H 	H 	0.90550 0.73350 0.61970 0.04200
C 	C 	0.83050 0.75860 0.78360 -0.11700
H 	H 	0.85750 0.73750 0.77930 0.08000
C 	C 	0.90780 0.80770 0.61590 -0.10000
C 	C 	0.82320 0.79770 0.75060 0.05900
O 	O 	0.05041 0.85116 0.44750 -0.42100
O 	O 	0.04890 0.76890 0.44850 -0.43400
C 	C 	0.14510 0.80280 0.29410 0.03800
C 	C 	0.06200 0.80980 0.43060 0.37800
C 	C 	0.10650 0.85090 0.35980 0.03800
H 	H 	0.09810 0.88160 0.37320 0.03300
C 	C 	0.12940 0.75870 0.31950 -0.11600
H 	H 	0.13640 0.72770 0.30610 0.07300
C 	C 	0.13370 0.84880 0.31490 -0.11100
H 	H 	0.14400 0.87790 0.29940 0.07100
C 	C 	0.10400 0.76230 0.36380 0.04400
H 	H 	0.09450 0.73350 0.38030 0.02700
C 	C 	0.16950 0.75860 0.21640 -0.11200
H 	H 	0.14250 0.73750 0.22070 0.06600
C 	C 	0.09220 0.80770 0.38410 -0.12400
C 	C 	0.17680 0.79770 0.24940 0.04500
O 	O 	0.94959 0.14884 0.44750 -0.39000
O 	O 	0.95110 0.23110 0.44850 -0.39200
C 	C 	0.85490 0.19720 0.29410 0.03600
C 	C 	0.93800 0.19020 0.43060 0.37500
C 	C 	0.89350 0.14910 0.35980 0.03400
H 	H 	0.90190 0.11840 0.37320 0.03300
C 	C 	0.87060 0.24130 0.31950 -0.10400
H 	H 	0.86360 0.27230 0.30610 0.07500
C 	C 	0.86630 0.15120 0.31490 -0.10100
H 	H 	0.85600 0.12210 0.29940 0.06300
C 	C 	0.89600 0.23770 0.36380 0.04000
H 	H 	0.90550 0.26650 0.38030 0.04100
C 	C 	0.83050 0.24140 0.21640 -0.11300
H 	H 	0.85750 0.26250 0.22070 0.07400
C 	C 	0.90780 0.19230 0.38410 -0.10700
C 	C 	0.82320 0.20230 0.24940 0.04800
O 	O 	0.05041 0.14884 0.55250 -0.43300
O 	O 	0.04890 0.23110 0.55150 -0.43600
C 	C 	0.14510 0.19720 0.70590 0.03800
C 	C 	0.06200 0.19020 0.56940 0.38100
C 	C 	0.10650 0.14910 0.64020 0.04000
H 	H 	0.09810 0.11840 0.62680 0.01800
C 	C 	0.12940 0.24130 0.68050 -0.11900
H 	H 	0.13640 0.27230 0.69390 0.07400
C 	C 	0.13370 0.15120 0.68510 -0.11500
H 	H 	0.14400 0.12210 0.70060 0.06100
C 	C 	0.10400 0.23770 0.63620 0.04700
H 	H 	0.09450 0.26650 0.61970 0.02600
C 	C 	0.16950 0.24140 0.78360 -0.11300
H 	H 	0.14250 0.26250 0.77930 0.06700
C 	C 	0.09220 0.19230 0.61590 -0.13000
C 	C 	0.17680 0.20230 0.75060 0.04300
Cu	Cu	0.50000 0.00000 0.14409 0.87500
Cu	Cu	0.50000 0.00000 0.24049 0.88400
Cu	Cu	0.50000 0.00000 0.85591 0.88100
Cu	Cu	0.50000 0.00000 0.75951 0.88400
Cu	Cu	0.14409 0.50000 -0.00000 0.87500
Cu	Cu	0.24049 0.50000 -0.00000 0.88400
Cu	Cu	0.85591 0.50000 -0.00000 0.88100
Cu	Cu	0.75951 0.50000 -0.00000 0.88400
Cu	Cu	0.00000 0.14409 0.50000 0.87500
Cu	Cu	0.00000 0.24049 0.50000 0.88400
Cu	Cu	0.00000 0.85591 0.50000 0.88100
Cu	Cu	0.00000 0.75951 0.50000 0.88400
O 	O 	0.94750 0.55041 0.64884 -0.38300
O 	O 	0.94850 0.54890 0.73110 -0.39000
C 	C 	0.79410 0.64510 0.69720 0.03200
C 	C 	0.93060 0.56200 0.69020 0.37200
C 	C 	0.85980 0.60650 0.64910 0.03000
H 	H 	0.87320 0.59810 0.61840 0.04000
C 	C 	0.81950 0.62940 0.74130 -0.10200
H 	H 	0.80610 0.63640 0.77230 0.07200
C 	C 	0.81490 0.63370 0.65120 -0.09900
H 	H 	0.79940 0.64400 0.62210 0.06700
C 	C 	0.86380 0.60400 0.73770 0.03500
H 	H 	0.88030 0.59450 0.76650 0.04200
C 	C 	0.71640 0.66950 0.74140 -0.11700
H 	H 	0.72070 0.64250 0.76250 0.07300
C 	C 	0.88410 0.59220 0.69230 -0.10400
C 	C 	0.74940 0.67680 0.70230 0.05200
O 	O 	0.05250 0.44959 0.64884 -0.42700
O 	O 	0.05150 0.45110 0.73110 -0.43400
C 	C 	0.20590 0.35490 0.69720 0.04000
C 	C 	0.06940 0.43800 0.69020 0.38200
C 	C 	0.14020 0.39350 0.64910 0.04100
H 	H 	0.12680 0.40190 0.61840 0.02700
C 	C 	0.18050 0.37060 0.74130 -0.11500
H 	H 	0.19390 0.36360 0.77230 0.07500
C 	C 	0.18510 0.36630 0.65120 -0.11000
H 	H 	0.20060 0.35600 0.62210 0.06900
C 	C 	0.13620 0.39600 0.73770 0.04700
H 	H 	0.11970 0.40550 0.76650 0.02800
C 	C 	0.28360 0.33050 0.74140 -0.11300
H 	H 	0.27930 0.35750 0.76250 0.07200
C 	C 	0.11590 0.40780 0.69230 -0.12500
C 	C 	0.25060 0.32320 0.70230 0.04700
O 	O 	0.05250 0.55041 0.35116 -0.42700
O 	O 	0.05150 0.54890 0.26890 -0.43600
C 	C 	0.20590 0.64510 0.30280 0.04100
C 	C 	0.06940 0.56200 0.30980 0.38200
C 	C 	0.14020 0.60650 0.35090 0.04200
H 	H 	0.12680 0.59810 0.38160 0.02700
C 	C 	0.18050 0.62940 0.25870 -0.11600
H 	H 	0.19390 0.63640 0.22770 0.07600
C 	C 	0.18510 0.63370 0.34880 -0.11100
H 	H 	0.20060 0.64400 0.37790 0.06900
C 	C 	0.13620 0.60400 0.26230 0.04800
H 	H 	0.11970 0.59450 0.23350 0.02600
C 	C 	0.28360 0.66950 0.25860 -0.11200
H 	H 	0.27930 0.64250 0.23750 0.07100
C 	C 	0.11590 0.59220 0.30770 -0.12700
C 	C 	0.25060 0.67680 0.29770 0.04600
O 	O 	0.94750 0.44959 0.35116 -0.38300
O 	O 	0.94850 0.45110 0.26890 -0.39300
C 	C 	0.79410 0.35490 0.30280 0.03500
C 	C 	0.93060 0.43800 0.30980 0.37300
C 	C 	0.85980 0.39350 0.35090 0.03200
H 	H 	0.87320 0.40190 0.38160 0.03900
C 	C 	0.81950 0.37060 0.25870 -0.10500
H 	H 	0.80610 0.36360 0.22770 0.07300
C 	C 	0.81490 0.36630 0.34880 -0.10100
H 	H 	0.79940 0.35600 0.37790 0.06800
C 	C 	0.86380 0.39600 0.26230 0.03800
H 	H 	0.88030 0.40550 0.23350 0.03900
C 	C 	0.71640 0.33050 0.25860 -0.11300
H 	H 	0.72070 0.35750 0.23750 0.07200
C 	C 	0.88410 0.40780 0.30770 -0.10600
C 	C 	0.74940 0.32320 0.29770 0.04900
O 	O 	0.64884 0.94750 0.55041 -0.38300
O 	O 	0.73110 0.94850 0.54890 -0.39000
C 	C 	0.69720 0.79410 0.64510 0.03200
C 	C 	0.69020 0.93060 0.56200 0.37200
C 	C 	0.64910 0.85980 0.60650 0.03000
H 	H 	0.61840 0.87320 0.59810 0.04000
C 	C 	0.74130 0.81950 0.62940 -0.10200
H 	H 	0.77230 0.80610 0.63640 0.07200
C 	C 	0.65120 0.81490 0.63370 -0.09900
H 	H 	0.62210 0.79940 0.64400 0.06700
C 	C 	0.73770 0.86380 0.60400 0.03500
H 	H 	0.76650 0.88030 0.59450 0.04200
C 	C 	0.74140 0.71640 0.66950 -0.11700
H 	H 	0.76250 0.72070 0.64250 0.07300
C 	C 	0.69230 0.88410 0.59220 -0.10400
C 	C 	0.70230 0.74940 0.67680 0.05200
O 	O 	0.64884 0.05250 0.44959 -0.42700
O 	O 	0.73110 0.05150 0.45110 -0.43400
C 	C 	0.69720 0.20590 0.35490 0.04000
C 	C 	0.69020 0.06940 0.43800 0.38200
C 	C 	0.64910 0.14020 0.39350 0.04100
H 	H 	0.61840 0.12680 0.40190 0.02700
C 	C 	0.74130 0.18050 0.37060 -0.11500
H 	H 	0.77230 0.19390 0.36360 0.07500
C 	C 	0.65120 0.18510 0.36630 -0.11000
H 	H 	0.62210 0.20060 0.35600 0.06900
C 	C 	0.73770 0.13620 0.39600 0.04700
H 	H 	0.76650 0.11970 0.40550 0.02800
C 	C 	0.74140 0.28360 0.33050 -0.11300
H 	H 	0.76250 0.27930 0.35750 0.07200
C 	C 	0.69230 0.11590 0.40780 -0.12500
C 	C 	0.70230 0.25060 0.32320 0.04700
O 	O 	0.35116 0.05250 0.55041 -0.42700
O 	O 	0.26890 0.05150 0.54890 -0.43600
C 	C 	0.30280 0.20590 0.64510 0.04100
C 	C 	0.30980 0.06940 0.56200 0.38200
C 	C 	0.35090 0.14020 0.60650 0.04200
H 	H 	0.38160 0.12680 0.59810 0.02700
C 	C 	0.25870 0.18050 0.62940 -0.11600
H 	H 	0.22770 0.19390 0.63640 0.07600
C 	C 	0.34880 0.18510 0.63370 -0.11100
H 	H 	0.37790 0.20060 0.64400 0.06900
C 	C 	0.26230 0.13620 0.60400 0.04800
H 	H 	0.23350 0.11970 0.59450 0.02600
C 	C 	0.25860 0.28360 0.66950 -0.11200
H 	H 	0.23750 0.27930 0.64250 0.07100
C 	C 	0.30770 0.11590 0.59220 -0.12700
C 	C 	0.29770 0.25060 0.67680 0.04600
O 	O 	0.35116 0.94750 0.44959 -0.38300
O 	O 	0.26890 0.94850 0.45110 -0.39300
C 	C 	0.30280 0.79410 0.35490 0.03500
C 	C 	0.30980 0.93060 0.43800 0.37300
C 	C 	0.35090 0.85980 0.39350 0.03200
H 	H 	0.38160 0.87320 0.40190 0.03900
C 	C 	0.25870 0.81950 0.37060 -0.10500
H 	H 	0.22770 0.80610 0.36360 0.07300
C 	C 	0.34880 0.81490 0.36630 -0.10100
H 	H 	0.37790 0.79940 0.35600 0.06800
C 	C 	0.26230 0.86380 0.39600 0.03800
H 	H 	0.23350 0.88030 0.40550 0.03900
C 	C 	0.25860 0.71640 0.33050 -0.11300
H 	H 	0.23750 0.72070 0.35750 0.07200
C 	C 	0.30770 0.88410 0.40780 -0.10600
C 	C 	0.29770 0.74940 0.32320 0.04900
O 	O 	0.55041 0.64884 0.94750 -0.38300
O 	O 	0.54890 0.73110 0.94850 -0.39000
C 	C 	0.64510 0.69720 0.79410 0.03200
C 	C 	0.56200 0.69020 0.93060 0.37200
C 	C 	0.60650 0.64910 0.85980 0.03000
H 	H 	0.59810 0.61840 0.87320 0.04000
C 	C 	0.62940 0.74130 0.81950 -0.10200
H 	H 	0.63640 0.77230 0.80610 0.07200
C 	C 	0.63370 0.65120 0.81490 -0.09900
H 	H 	0.64400 0.62210 0.79940 0.06700
C 	C 	0.60400 0.73770 0.86380 0.03500
H 	H 	0.59450 0.76650 0.88030 0.04200
C 	C 	0.66950 0.74140 0.71640 -0.11700
H 	H 	0.64250 0.76250 0.72070 0.07300
C 	C 	0.59220 0.69230 0.88410 -0.10400
C 	C 	0.67680 0.70230 0.74940 0.05200
O 	O 	0.44959 0.64884 0.05250 -0.42700
O 	O 	0.45110 0.73110 0.05150 -0.43400
C 	C 	0.35490 0.69720 0.20590 0.04000
C 	C 	0.43800 0.69020 0.06940 0.38200
C 	C 	0.39350 0.64910 0.14020 0.04100
H 	H 	0.40190 0.61840 0.12680 0.02700
C 	C 	0.37060 0.74130 0.18050 -0.11500
H 	H 	0.36360 0.77230 0.19390 0.07500
C 	C 	0.36630 0.65120 0.18510 -0.11000
H 	H 	0.35600 0.62210 0.20060 0.06900
C 	C 	0.39600 0.73770 0.13620 0.04700
H 	H 	0.40550 0.76650 0.11970 0.02800
C 	C 	0.33050 0.74140 0.28360 -0.11300
H 	H 	0.35750 0.76250 0.27930 0.07200
C 	C 	0.40780 0.69230 0.11590 -0.12500
C 	C 	0.32320 0.70230 0.25060 0.04700
O 	O 	0.55041 0.35116 0.05250 -0.42700
O 	O 	0.54890 0.26890 0.05150 -0.43600
C 	C 	0.64510 0.30280 0.20590 0.04100
C 	C 	0.56200 0.30980 0.06940 0.38200
C 	C 	0.60650 0.35090 0.14020 0.04200
H 	H 	0.59810 0.38160 0.12680 0.02700
C 	C 	0.62940 0.25870 0.18050 -0.11600
H 	H 	0.63640 0.22770 0.19390 0.07600
C 	C 	0.63370 0.34880 0.18510 -0.11100
H 	H 	0.64400 0.37790 0.20060 0.06900
C 	C 	0.60400 0.26230 0.13620 0.04800
H 	H 	0.59450 0.23350 0.11970 0.02600
C 	C 	0.66950 0.25860 0.28360 -0.11200
H 	H 	0.64250 0.23750 0.27930 0.07100
C 	C 	0.59220 0.30770 0.11590 -0.12700
C 	C 	0.67680 0.29770 0.25060 0.04600
O 	O 	0.44959 0.35116 0.94750 -0.38300
O 	O 	0.45110 0.26890 0.94850 -0.39300
C 	C 	0.35490 0.30280 0.79410 0.03500
C 	C 	0.43800 0.30980 0.93060 0.37300
C 	C 	0.39350 0.35090 0.85980 0.03200
H 	H 	0.40190 0.38160 0.87320 0.03900
C 	C 	0.37060 0.25870 0.81950 -0.10500
H 	H 	0.36360 0.22770 0.80610 0.07300
C 	C 	0.36630 0.34880 0.81490 -0.10100
H 	H 	0.35600 0.37790 0.79940 0.06800
C 	C 	0.39600 0.26230 0.86380 0.03800
H 	H 	0.40550 0.23350 0.88030 0.03900
C 	C 	0.33050 0.25860 0.71640 -0.11300
H 	H 	0.35750 0.23750 0.72070 0.07200
C 	C 	0.40780 0.30770 0.88410 -0.10600
C 	C 	0.32320 0.29770 0.74940 0.04900
O 	O 	0.05250 0.44959 0.35116 -0.42800
O 	O 	0.05150 0.45110 0.26890 -0.43700
C 	C 	0.20590 0.35490 0.30280 0.04200
C 	C 	0.06940 0.43800 0.30980 0.38200
C 	C 	0.14020 0.39350 0.35090 0.04300
H 	H 	0.12680 0.40190 0.38160 0.02700
C 	C 	0.18050 0.37060 0.25870 -0.11700
H 	H 	0.19390 0.36360 0.22770 0.07600
C 	C 	0.18510 0.36630 0.34880 -0.11200
H 	H 	0.20060 0.35600 0.37790 0.07000
C 	C 	0.13620 0.39600 0.26230 0.04900
H 	H 	0.11970 0.40550 0.23350 0.02600
C 	C 	0.28360 0.33050 0.25860 -0.11000
H 	H 	0.27930 0.35750 0.23750 0.07100
C 	C 	0.11590 0.40780 0.30770 -0.12700
C 	C 	0.25060 0.32320 0.29770 0.04500
O 	O 	0.94750 0.55041 0.35116 -0.38300
O 	O 	0.94850 0.54890 0.26890 -0.39200
C 	C 	0.79410 0.64510 0.30280 0.03400
C 	C 	0.93060 0.56200 0.30980 0.37200
C 	C 	0.85980 0.60650 0.35090 0.03200
H 	H 	0.87320 0.59810 0.38160 0.03900
C 	C 	0.81950 0.62940 0.25870 -0.10500
H 	H 	0.80610 0.63640 0.22770 0.07300
C 	C 	0.81490 0.63370 0.34880 -0.10000
H 	H 	0.79940 0.64400 0.37790 0.06800
C 	C 	0.86380 0.60400 0.26230 0.03700
H 	H 	0.88030 0.59450 0.23350 0.03900
C 	C 	0.71640 0.66950 0.25860 -0.11400
H 	H 	0.72070 0.64250 0.23750 0.07200
C 	C 	0.88410 0.59220 0.30770 -0.10600
C 	C 	0.74940 0.67680 0.29770 0.05000
O 	O 	0.94750 0.44959 0.64884 -0.38300
O 	O 	0.94850 0.45110 0.73110 -0.39000
C 	C 	0.79410 0.35490 0.69720 0.03300
C 	C 	0.93060 0.43800 0.69020 0.37200
C 	C 	0.85980 0.39350 0.64910 0.03100
H 	H 	0.87320 0.40190 0.61840 0.04000
C 	C 	0.81950 0.37060 0.74130 -0.10300
H 	H 	0.80610 0.36360 0.77230 0.07200
C 	C 	0.81490 0.36630 0.65120 -0.10000
H 	H 	0.79940 0.35600 0.62210 0.06700
C 	C 	0.86380 0.39600 0.73770 0.03600
H 	H 	0.88030 0.40550 0.76650 0.04100
C 	C 	0.71640 0.33050 0.74140 -0.11500
H 	H 	0.72070 0.35750 0.76250 0.07300
C 	C 	0.88410 0.40780 0.69230 -0.10400
C 	C 	0.74940 0.32320 0.70230 0.05000
O 	O 	0.05250 0.55041 0.64884 -0.42700
O 	O 	0.05150 0.54890 0.73110 -0.43400
C 	C 	0.20590 0.64510 0.69720 0.03900
C 	C 	0.06940 0.56200 0.69020 0.38100
C 	C 	0.14020 0.60650 0.64910 0.04100
H 	H 	0.12680 0.59810 0.61840 0.02800
C 	C 	0.18050 0.62940 0.74130 -0.11400
H 	H 	0.19390 0.63640 0.77230 0.07500
C 	C 	0.18510 0.63370 0.65120 -0.11000
H 	H 	0.20060 0.64400 0.62210 0.06900
C 	C 	0.13620 0.60400 0.73770 0.04700
H 	H 	0.11970 0.59450 0.76650 0.02900
C 	C 	0.28360 0.66950 0.74140 -0.11500
H 	H 	0.27930 0.64250 0.76250 0.07200
C 	C 	0.11590 0.59220 0.69230 -0.12500
C 	C 	0.25060 0.67680 0.70230 0.04800
O 	O 	0.35116 0.05250 0.44959 -0.42800
O 	O 	0.26890 0.05150 0.45110 -0.43700
C 	C 	0.30280 0.20590 0.35490 0.04200
C 	C 	0.30980 0.06940 0.43800 0.38200
C 	C 	0.35090 0.14020 0.39350 0.04300
H 	H 	0.38160 0.12680 0.40190 0.02700
C 	C 	0.25870 0.18050 0.37060 -0.11700
H 	H 	0.22770 0.19390 0.36360 0.07600
C 	C 	0.34880 0.18510 0.36630 -0.11200
H 	H 	0.37790 0.20060 0.35600 0.07000
C 	C 	0.26230 0.13620 0.39600 0.04900
H 	H 	0.23350 0.11970 0.40550 0.02600
C 	C 	0.25860 0.28360 0.33050 -0.11000
H 	H 	0.23750 0.27930 0.35750 0.07100
C 	C 	0.30770 0.11590 0.40780 -0.12700
C 	C 	0.29770 0.25060 0.32320 0.04500
O 	O 	0.35116 0.94750 0.55041 -0.38300
O 	O 	0.26890 0.94850 0.54890 -0.39200
C 	C 	0.30280 0.79410 0.64510 0.03400
C 	C 	0.30980 0.93060 0.56200 0.37200
C 	C 	0.35090 0.85980 0.60650 0.03200
H 	H 	0.38160 0.87320 0.59810 0.03900
C 	C 	0.25870 0.81950 0.62940 -0.10500
H 	H 	0.22770 0.80610 0.63640 0.07300
C 	C 	0.34880 0.81490 0.63370 -0.10000
H 	H 	0.37790 0.79940 0.64400 0.06800
C 	C 	0.26230 0.86380 0.60400 0.03700
H 	H 	0.23350 0.88030 0.59450 0.03900
C 	C 	0.25860 0.71640 0.66950 -0.11400
H 	H 	0.23750 0.72070 0.64250 0.07200
C 	C 	0.30770 0.88410 0.59220 -0.10600
C 	C 	0.29770 0.74940 0.67680 0.05000
O 	O 	0.64884 0.94750 0.44959 -0.38300
O 	O 	0.73110 0.94850 0.45110 -0.39000
C 	C 	0.69720 0.79410 0.35490 0.03300
C 	C 	0.69020 0.93060 0.43800 0.37200
C 	C 	0.64910 0.85980 0.39350 0.03100
H 	H 	0.61840 0.87320 0.40190 0.04000
C 	C 	0.74130 0.81950 0.37060 -0.10300
H 	H 	0.77230 0.80610 0.36360 0.07200
C 	C 	0.65120 0.81490 0.36630 -0.10000
H 	H 	0.62210 0.79940 0.35600 0.06700
C 	C 	0.73770 0.86380 0.39600 0.03600
H 	H 	0.76650 0.88030 0.40550 0.04100
C 	C 	0.74140 0.71640 0.33050 -0.11500
H 	H 	0.76250 0.72070 0.35750 0.07300
C 	C 	0.69230 0.88410 0.40780 -0.10400
C 	C 	0.70230 0.74940 0.32320 0.05000
O 	O 	0.64884 0.05250 0.55041 -0.42700
O 	O 	0.73110 0.05150 0.54890 -0.43400
C 	C 	0.69720 0.20590 0.64510 0.03900
C 	C 	0.69020 0.06940 0.56200 0.38100
C 	C 	0.64910 0.14020 0.60650 0.04100
H 	H 	0.61840 0.12680 0.59810 0.02800
C 	C 	0.74130 0.18050 0.62940 -0.11400
H 	H 	0.77230 0.19390 0.63640 0.07500
C 	C 	0.65120 0.18510 0.63370 -0.11000
H 	H 	0.62210 0.20060 0.64400 0.06900
C 	C 	0.73770 0.13620 0.60400 0.04700
H 	H 	0.76650 0.11970 0.59450 0.02900
C 	C 	0.74140 0.28360 0.66950 -0.11500
H 	H 	0.76250 0.27930 0.64250 0.07200
C 	C 	0.69230 0.11590 0.59220 -0.12500
C 	C 	0.70230 0.25060 0.67680 0.04800
O 	O 	0.44959 0.35116 0.05250 -0.42800
O 	O 	0.45110 0.26890 0.05150 -0.43700
C 	C 	0.35490 0.30280 0.20590 0.04200
C 	C 	0.43800 0.30980 0.06940 0.38200
C 	C 	0.39350 0.35090 0.14020 0.04300
H 	H 	0.40190 0.38160 0.12680 0.02700
C 	C 	0.37060 0.25870 0.18050 -0.11700
H 	H 	0.36360 0.22770 0.19390 0.07600
C 	C 	0.36630 0.34880 0.18510 -0.11200
H 	H 	0.35600 0.37790 0.20060 0.07000
C 	C 	0.39600 0.26230 0.13620 0.04900
H 	H 	0.40550 0.23350 0.11970 0.02600
C 	C 	0.33050 0.25860 0.28360 -0.11000
H 	H 	0.35750 0.23750 0.27930 0.07100
C 	C 	0.40780 0.30770 0.11590 -0.12700
C 	C 	0.32320 0.29770 0.25060 0.04500
O 	O 	0.55041 0.35116 0.94750 -0.38300
O 	O 	0.54890 0.26890 0.94850 -0.39200
C 	C 	0.64510 0.30280 0.79410 0.03400
C 	C 	0.56200 0.30980 0.93060 0.37200
C 	C 	0.60650 0.35090 0.85980 0.03200
H 	H 	0.59810 0.38160 0.87320 0.03900
C 	C 	0.62940 0.25870 0.81950 -0.10500
H 	H 	0.63640 0.22770 0.80610 0.07300
C 	C 	0.63370 0.34880 0.81490 -0.10000
H 	H 	0.64400 0.37790 0.79940 0.06800
C 	C 	0.60400 0.26230 0.86380 0.03700
H 	H 	0.59450 0.23350 0.88030 0.03900
C 	C 	0.66950 0.25860 0.71640 -0.11400
H 	H 	0.64250 0.23750 0.72070 0.07200
C 	C 	0.59220 0.30770 0.88410 -0.10600
C 	C 	0.67680 0.29770 0.74940 0.05000
O 	O 	0.44959 0.64884 0.94750 -0.38300
O 	O 	0.45110 0.73110 0.94850 -0.39000
C 	C 	0.35490 0.69720 0.79410 0.03300
C 	C 	0.43800 0.69020 0.93060 0.37200
C 	C 	0.39350 0.64910 0.85980 0.03100
H 	H 	0.40190 0.61840 0.87320 0.04000
C 	C 	0.37060 0.74130 0.81950 -0.10300
H 	H 	0.36360 0.77230 0.80610 0.07200
C 	C 	0.36630 0.65120 0.81490 -0.10000
H 	H 	0.35600 0.62210 0.79940 0.06700
C 	C 	0.39600 0.73770 0.86380 0.03600
H 	H 	0.40550 0.76650 0.88030 0.04100
C 	C 	0.33050 0.74140 0.71640 -0.11500
H 	H 	0.35750 0.76250 0.72070 0.07300
C 	C 	0.40780 0.69230 0.88410 -0.10400
C 	C 	0.32320 0.70230 0.74940 0.05000
O 	O 	0.55041 0.64884 0.05250 -0.42700
O 	O 	0.54890 0.73110 0.05150 -0.43400
C 	C 	0.64510 0.69720 0.20590 0.03900
C 	C 	0.56200 0.69020 0.06940 0.38100
C 	C 	0.60650 0.64910 0.14020 0.04100
H 	H 	0.59810 0.61840 0.12680 0.02800
C 	C 	0.62940 0.74130 0.18050 -0.11400
H 	H 	0.63640 0.77230 0.19390 0.07500
C 	C 	0.63370 0.65120 0.18510 -0.11000
H 	H 	0.64400 0.62210 0.20060 0.06900
C 	C 	0.60400 0.73770 0.13620 0.04700
H 	H 	0.59450 0.76650 0.11970 0.02900
C 	C 	0.66950 0.74140 0.28360 -0.11500
H 	H 	0.64250 0.76250 0.27930 0.07200
C 	C 	0.59220 0.69230 0.11590 -0.12500
C 	C 	0.67680 0.70230 0.25060 0.04800
Cu	Cu	0.00000 0.50000 0.64409 0.87800
Cu	Cu	0.00000 0.50000 0.74049 0.88500
Cu	Cu	0.00000 0.50000 0.35591 0.87800
Cu	Cu	0.00000 0.50000 0.25951 0.88300
Cu	Cu	0.64409 0.00000 0.50000 0.87800
Cu	Cu	0.74049 0.00000 0.50000 0.88500
Cu	Cu	0.35591 0.00000 0.50000 0.87800
Cu	Cu	0.25951 0.00000 0.50000 0.88300
Cu	Cu	0.50000 0.64409 -0.00000 0.87800
Cu	Cu	0.50000 0.74049 -0.00000 0.88500
Cu	Cu	0.50000 0.35591 -0.00000 0.87800
Cu	Cu	0.50000 0.25951 -0.00000 0.88300
