data_crystal

_cell_length_a 26.98800
_cell_length_b 26.98800
_cell_length_c 26.98800
_cell_angle_alpha 90.00000
_cell_angle_beta  90.00000
_cell_angle_gamma 90.00000

_symmetry_space_group_name_	'P 1'
_symmetry_space_group_name_H-M	'P 1'

loop_
_symmetry_equiv_pos_as_xyz
  x,y,z

loop_
_atom_site_label
_atom_site_type_symbol
_atom_site_fract_x
_atom_site_fract_y
_atom_site_fract_z
_atom_site_charge
O 	O 	0.44767 0.05016 0.14889 -0.42700
O 	O 	0.44844 0.04938 0.23154 -0.43200
C 	C 	0.29480 0.14588 0.19801 0.03000
C 	C 	0.43063 0.06219 0.19078 0.36500
C 	C 	0.36024 0.10724 0.14941 0.02800
H 	H 	0.37390 0.09890 0.11800 0.01900
C 	C 	0.31960 0.13011 0.24129 -0.10600
H 	H 	0.30570 0.13730 0.27280 0.06600
C 	C 	0.31568 0.13430 0.15206 -0.10500
H 	H 	0.29970 0.14470 0.12250 0.05300
C 	C 	0.36392 0.10427 0.23836 0.03200
H 	H 	0.38040 0.09450 0.26780 0.03000
C 	C 	0.21677 0.17031 0.24202 -0.10300
H 	H 	0.22150 0.14310 0.26390 0.06000
C 	C 	0.38429 0.09265 0.19245 -0.11800
C 	C 	0.24965 0.17734 0.20255 0.03500
O 	O 	0.55233 0.94984 0.14889 -0.38300
O 	O 	0.55156 0.95062 0.23154 -0.38800
C 	C 	0.70520 0.85412 0.19801 0.03100
C 	C 	0.56937 0.93781 0.19078 0.36200
C 	C 	0.63976 0.89276 0.14941 0.02800
H 	H 	0.62610 0.90110 0.11800 0.03600
C 	C 	0.68040 0.86989 0.24129 -0.09100
H 	H 	0.69430 0.86270 0.27280 0.06900
C 	C 	0.68432 0.86570 0.15206 -0.09000
H 	H 	0.70030 0.85530 0.12250 0.06100
C 	C 	0.63608 0.89573 0.23836 0.02900
H 	H 	0.61960 0.90550 0.26780 0.04400
C 	C 	0.78323 0.82969 0.24202 -0.10700
H 	H 	0.77850 0.85690 0.26390 0.07300
C 	C 	0.61571 0.90735 0.19245 -0.09700
C 	C 	0.75035 0.82266 0.20255 0.04900
O 	O 	0.55233 0.05016 0.85111 -0.41300
O 	O 	0.55156 0.04938 0.76846 -0.42900
C 	C 	0.70520 0.14588 0.80199 0.03300
C 	C 	0.56937 0.06219 0.80922 0.36400
C 	C 	0.63976 0.10724 0.85059 0.03000
H 	H 	0.62610 0.09890 0.88200 0.03700
C 	C 	0.68040 0.13011 0.75871 -0.10200
H 	H 	0.69430 0.13730 0.72720 0.06700
C 	C 	0.68432 0.13430 0.84794 -0.09800
H 	H 	0.70030 0.14470 0.87750 0.06900
C 	C 	0.63608 0.10427 0.76164 0.03100
H 	H 	0.61960 0.09450 0.73220 0.03200
C 	C 	0.78323 0.17031 0.75798 -0.10600
H 	H 	0.77850 0.14310 0.73610 0.06600
C 	C 	0.61571 0.09265 0.80755 -0.11200
C 	C 	0.75035 0.17734 0.79745 0.04600
O 	O 	0.44767 0.94984 0.85111 -0.37100
O 	O 	0.44844 0.95062 0.76846 -0.38700
C 	C 	0.29480 0.85412 0.80199 0.03200
C 	C 	0.43063 0.93781 0.80922 0.35900
C 	C 	0.36024 0.89276 0.85059 0.02700
H 	H 	0.37390 0.90110 0.88200 0.05100
C 	C 	0.31960 0.86989 0.75871 -0.08900
H 	H 	0.30570 0.86270 0.72720 0.06800
C 	C 	0.31568 0.86570 0.84794 -0.08700
H 	H 	0.29970 0.85530 0.87750 0.07100
C 	C 	0.36392 0.89573 0.76164 0.02700
H 	H 	0.38040 0.90550 0.73220 0.04500
C 	C 	0.21677 0.82969 0.75798 -0.10600
H 	H 	0.22150 0.85690 0.73610 0.07200
C 	C 	0.38429 0.90735 0.80755 -0.09100
C 	C 	0.24965 0.82266 0.79745 0.05100
O 	O 	0.14889 0.44767 0.05016 -0.42600
O 	O 	0.23154 0.44844 0.04938 -0.43100
C 	C 	0.19801 0.29480 0.14588 0.03100
C 	C 	0.19078 0.43063 0.06219 0.36600
C 	C 	0.14941 0.36024 0.10724 0.02900
H 	H 	0.11800 0.37390 0.09890 0.02000
C 	C 	0.24129 0.31960 0.13011 -0.10500
H 	H 	0.27280 0.30570 0.13730 0.06700
C 	C 	0.15206 0.31568 0.13430 -0.10400
H 	H 	0.12250 0.29970 0.14470 0.05300
C 	C 	0.23836 0.36392 0.10427 0.03200
H 	H 	0.26780 0.38040 0.09450 0.03000
C 	C 	0.24202 0.21677 0.17031 -0.10300
H 	H 	0.26390 0.22150 0.14310 0.06000
C 	C 	0.19245 0.38429 0.09265 -0.11800
C 	C 	0.20255 0.24965 0.17734 0.03500
O 	O 	0.14889 0.55233 0.94984 -0.38300
O 	O 	0.23154 0.55156 0.95062 -0.38800
C 	C 	0.19801 0.70520 0.85412 0.03100
C 	C 	0.19078 0.56937 0.93781 0.36200
C 	C 	0.14941 0.63976 0.89276 0.02800
H 	H 	0.11800 0.62610 0.90110 0.03600
C 	C 	0.24129 0.68040 0.86989 -0.09100
H 	H 	0.27280 0.69430 0.86270 0.06900
C 	C 	0.15206 0.68432 0.86570 -0.09000
H 	H 	0.12250 0.70030 0.85530 0.06100
C 	C 	0.23836 0.63608 0.89573 0.02900
H 	H 	0.26780 0.61960 0.90550 0.04400
C 	C 	0.24202 0.78323 0.82969 -0.10700
H 	H 	0.26390 0.77850 0.85690 0.07300
C 	C 	0.19245 0.61571 0.90735 -0.09700
C 	C 	0.20255 0.75035 0.82266 0.04900
O 	O 	0.85111 0.55233 0.05016 -0.41300
O 	O 	0.76846 0.55156 0.04938 -0.42900
C 	C 	0.80199 0.70520 0.14588 0.03300
C 	C 	0.80922 0.56937 0.06219 0.36400
C 	C 	0.85059 0.63976 0.10724 0.03000
H 	H 	0.88200 0.62610 0.09890 0.03700
C 	C 	0.75871 0.68040 0.13011 -0.10200
H 	H 	0.72720 0.69430 0.13730 0.06700
C 	C 	0.84794 0.68432 0.13430 -0.09800
H 	H 	0.87750 0.70030 0.14470 0.06900
C 	C 	0.76164 0.63608 0.10427 0.03100
H 	H 	0.73220 0.61960 0.09450 0.03200
C 	C 	0.75798 0.78323 0.17031 -0.10600
H 	H 	0.73610 0.77850 0.14310 0.06600
C 	C 	0.80755 0.61571 0.09265 -0.11200
C 	C 	0.79745 0.75035 0.17734 0.04600
O 	O 	0.85111 0.44767 0.94984 -0.37100
O 	O 	0.76846 0.44844 0.95062 -0.38700
C 	C 	0.80199 0.29480 0.85412 0.03200
C 	C 	0.80922 0.43063 0.93781 0.35900
C 	C 	0.85059 0.36024 0.89276 0.02700
H 	H 	0.88200 0.37390 0.90110 0.05100
C 	C 	0.75871 0.31960 0.86989 -0.08900
H 	H 	0.72720 0.30570 0.86270 0.06800
C 	C 	0.84794 0.31568 0.86570 -0.08700
H 	H 	0.87750 0.29970 0.85530 0.07100
C 	C 	0.76164 0.36392 0.89573 0.02700
H 	H 	0.73220 0.38040 0.90550 0.04500
C 	C 	0.75798 0.21677 0.82969 -0.10600
H 	H 	0.73610 0.22150 0.85690 0.07200
C 	C 	0.80755 0.38429 0.90735 -0.09100
C 	C 	0.79745 0.24965 0.82266 0.05100
O 	O 	0.05016 0.14889 0.44767 -0.42600
O 	O 	0.04938 0.23154 0.44844 -0.43100
C 	C 	0.14588 0.19801 0.29480 0.03100
C 	C 	0.06219 0.19078 0.43063 0.36600
C 	C 	0.10724 0.14941 0.36024 0.02900
H 	H 	0.09890 0.11800 0.37390 0.02000
C 	C 	0.13011 0.24129 0.31960 -0.10500
H 	H 	0.13730 0.27280 0.30570 0.06700
C 	C 	0.13430 0.15206 0.31568 -0.10400
H 	H 	0.14470 0.12250 0.29970 0.05300
C 	C 	0.10427 0.23836 0.36392 0.03200
H 	H 	0.09450 0.26780 0.38040 0.03000
C 	C 	0.17031 0.24202 0.21677 -0.10300
H 	H 	0.14310 0.26390 0.22150 0.06000
C 	C 	0.09265 0.19245 0.38429 -0.11800
C 	C 	0.17734 0.20255 0.24965 0.03500
O 	O 	0.94984 0.14889 0.55233 -0.38300
O 	O 	0.95062 0.23154 0.55156 -0.38800
C 	C 	0.85412 0.19801 0.70520 0.03100
C 	C 	0.93781 0.19078 0.56937 0.36200
C 	C 	0.89276 0.14941 0.63976 0.02800
H 	H 	0.90110 0.11800 0.62610 0.03600
C 	C 	0.86989 0.24129 0.68040 -0.09100
H 	H 	0.86270 0.27280 0.69430 0.06900
C 	C 	0.86570 0.15206 0.68432 -0.09000
H 	H 	0.85530 0.12250 0.70030 0.06100
C 	C 	0.89573 0.23836 0.63608 0.02900
H 	H 	0.90550 0.26780 0.61960 0.04400
C 	C 	0.82969 0.24202 0.78323 -0.10700
H 	H 	0.85690 0.26390 0.77850 0.07300
C 	C 	0.90735 0.19245 0.61571 -0.09700
C 	C 	0.82266 0.20255 0.75035 0.04900
O 	O 	0.05016 0.85111 0.55233 -0.41300
O 	O 	0.04938 0.76846 0.55156 -0.42900
C 	C 	0.14588 0.80199 0.70520 0.03300
C 	C 	0.06219 0.80922 0.56937 0.36400
C 	C 	0.10724 0.85059 0.63976 0.03000
H 	H 	0.09890 0.88200 0.62610 0.03700
C 	C 	0.13011 0.75871 0.68040 -0.10200
H 	H 	0.13730 0.72720 0.69430 0.06700
C 	C 	0.13430 0.84794 0.68432 -0.09800
H 	H 	0.14470 0.87750 0.70030 0.06900
C 	C 	0.10427 0.76164 0.63608 0.03100
H 	H 	0.09450 0.73220 0.61960 0.03200
C 	C 	0.17031 0.75798 0.78323 -0.10600
H 	H 	0.14310 0.73610 0.77850 0.06600
C 	C 	0.09265 0.80755 0.61571 -0.11200
C 	C 	0.17734 0.79745 0.75035 0.04600
O 	O 	0.94984 0.85111 0.44767 -0.37100
O 	O 	0.95062 0.76846 0.44844 -0.38700
C 	C 	0.85412 0.80199 0.29480 0.03200
C 	C 	0.93781 0.80922 0.43063 0.35900
C 	C 	0.89276 0.85059 0.36024 0.02700
H 	H 	0.90110 0.88200 0.37390 0.05100
C 	C 	0.86989 0.75871 0.31960 -0.08900
H 	H 	0.86270 0.72720 0.30570 0.06800
C 	C 	0.86570 0.84794 0.31568 -0.08700
H 	H 	0.85530 0.87750 0.29970 0.07100
C 	C 	0.89573 0.76164 0.36392 0.02700
H 	H 	0.90550 0.73220 0.38040 0.04500
C 	C 	0.82969 0.75798 0.21677 -0.10600
H 	H 	0.85690 0.73610 0.22150 0.07200
C 	C 	0.90735 0.80755 0.38429 -0.09100
C 	C 	0.82266 0.79745 0.24965 0.05100
O 	O 	0.55233 0.94984 0.85111 -0.37100
O 	O 	0.55156 0.95062 0.76846 -0.38700
C 	C 	0.70520 0.85412 0.80199 0.03200
C 	C 	0.56937 0.93781 0.80922 0.35900
C 	C 	0.63976 0.89276 0.85059 0.02800
H 	H 	0.62610 0.90110 0.88200 0.05200
C 	C 	0.68040 0.86989 0.75871 -0.08900
H 	H 	0.69430 0.86270 0.72720 0.06800
C 	C 	0.68432 0.86570 0.84794 -0.08600
H 	H 	0.70030 0.85530 0.87750 0.07400
C 	C 	0.63608 0.89573 0.76164 0.02800
H 	H 	0.61960 0.90550 0.73220 0.04600
C 	C 	0.78323 0.82969 0.75798 -0.10800
H 	H 	0.77850 0.85690 0.73610 0.07500
C 	C 	0.61571 0.90735 0.80755 -0.09100
C 	C 	0.75035 0.82266 0.79745 0.05500
O 	O 	0.44767 0.05016 0.85111 -0.41400
O 	O 	0.44844 0.04938 0.76846 -0.43000
C 	C 	0.29480 0.14588 0.80199 0.03200
C 	C 	0.43063 0.06219 0.80922 0.36400
C 	C 	0.36024 0.10724 0.85059 0.03000
H 	H 	0.37390 0.09890 0.88200 0.03500
C 	C 	0.31960 0.13011 0.75871 -0.10200
H 	H 	0.30570 0.13730 0.72720 0.06700
C 	C 	0.31568 0.13430 0.84794 -0.09900
H 	H 	0.29970 0.14470 0.87750 0.06600
C 	C 	0.36392 0.10427 0.76164 0.03000
H 	H 	0.38040 0.09450 0.73220 0.03100
C 	C 	0.21677 0.17031 0.75798 -0.10400
H 	H 	0.22150 0.14310 0.73610 0.06200
C 	C 	0.38429 0.09265 0.80755 -0.11200
C 	C 	0.24965 0.17734 0.79745 0.04200
O 	O 	0.44767 0.94984 0.14889 -0.38400
O 	O 	0.44844 0.95062 0.23154 -0.38900
C 	C 	0.29480 0.85412 0.19801 0.03100
C 	C 	0.43063 0.93781 0.19078 0.36200
C 	C 	0.36024 0.89276 0.14941 0.02700
H 	H 	0.37390 0.90110 0.11800 0.03500
C 	C 	0.31960 0.86989 0.24129 -0.09200
H 	H 	0.30570 0.86270 0.27280 0.06900
C 	C 	0.31568 0.86570 0.15206 -0.09200
H 	H 	0.29970 0.85530 0.12250 0.05800
C 	C 	0.36392 0.89573 0.23836 0.02900
H 	H 	0.38040 0.90550 0.26780 0.04400
C 	C 	0.21677 0.82969 0.24202 -0.10500
H 	H 	0.22150 0.85690 0.26390 0.07000
C 	C 	0.38429 0.90735 0.19245 -0.09700
C 	C 	0.24965 0.82266 0.20255 0.04400
O 	O 	0.55233 0.05016 0.14889 -0.42600
O 	O 	0.55156 0.04938 0.23154 -0.43100
C 	C 	0.70520 0.14588 0.19801 0.03200
C 	C 	0.56937 0.06219 0.19078 0.36600
C 	C 	0.63976 0.10724 0.14941 0.03000
H 	H 	0.62610 0.09890 0.11800 0.02100
C 	C 	0.68040 0.13011 0.24129 -0.10400
H 	H 	0.69430 0.13730 0.27280 0.06700
C 	C 	0.68432 0.13430 0.15206 -0.10300
H 	H 	0.70030 0.14470 0.12250 0.05500
C 	C 	0.63608 0.10427 0.23836 0.03300
H 	H 	0.61960 0.09450 0.26780 0.03100
C 	C 	0.78323 0.17031 0.24202 -0.10500
H 	H 	0.77850 0.14310 0.26390 0.06300
C 	C 	0.61571 0.09265 0.19245 -0.11800
C 	C 	0.75035 0.17734 0.20255 0.04000
O 	O 	0.85111 0.55233 0.94984 -0.37100
O 	O 	0.76846 0.55156 0.95062 -0.38700
C 	C 	0.80199 0.70520 0.85412 0.03200
C 	C 	0.80922 0.56937 0.93781 0.35900
C 	C 	0.85059 0.63976 0.89276 0.02800
H 	H 	0.88200 0.62610 0.90110 0.05200
C 	C 	0.75871 0.68040 0.86989 -0.08900
H 	H 	0.72720 0.69430 0.86270 0.06800
C 	C 	0.84794 0.68432 0.86570 -0.08600
H 	H 	0.87750 0.70030 0.85530 0.07400
C 	C 	0.76164 0.63608 0.89573 0.02800
H 	H 	0.73220 0.61960 0.90550 0.04600
C 	C 	0.75798 0.78323 0.82969 -0.10800
H 	H 	0.73610 0.77850 0.85690 0.07500
C 	C 	0.80755 0.61571 0.90735 -0.09100
C 	C 	0.79745 0.75035 0.82266 0.05500
O 	O 	0.85111 0.44767 0.05016 -0.41400
O 	O 	0.76846 0.44844 0.04938 -0.43000
C 	C 	0.80199 0.29480 0.14588 0.03200
C 	C 	0.80922 0.43063 0.06219 0.36400
C 	C 	0.85059 0.36024 0.10724 0.03000
H 	H 	0.88200 0.37390 0.09890 0.03500
C 	C 	0.75871 0.31960 0.13011 -0.10200
H 	H 	0.72720 0.30570 0.13730 0.06700
C 	C 	0.84794 0.31568 0.13430 -0.09900
H 	H 	0.87750 0.29970 0.14470 0.06600
C 	C 	0.76164 0.36392 0.10427 0.03000
H 	H 	0.73220 0.38040 0.09450 0.03100
C 	C 	0.75798 0.21677 0.17031 -0.10400
H 	H 	0.73610 0.22150 0.14310 0.06200
C 	C 	0.80755 0.38429 0.09265 -0.11200
C 	C 	0.79745 0.24965 0.17734 0.04200
O 	O 	0.14889 0.44767 0.94984 -0.38400
O 	O 	0.23154 0.44844 0.95062 -0.38900
C 	C 	0.19801 0.29480 0.85412 0.03100
C 	C 	0.19078 0.43063 0.93781 0.36200
C 	C 	0.14941 0.36024 0.89276 0.02700
H 	H 	0.11800 0.37390 0.90110 0.03500
C 	C 	0.24129 0.31960 0.86989 -0.09200
H 	H 	0.27280 0.30570 0.86270 0.06900
C 	C 	0.15206 0.31568 0.86570 -0.09200
H 	H 	0.12250 0.29970 0.85530 0.05800
C 	C 	0.23836 0.36392 0.89573 0.02900
H 	H 	0.26780 0.38040 0.90550 0.04400
C 	C 	0.24202 0.21677 0.82969 -0.10500
H 	H 	0.26390 0.22150 0.85690 0.07000
C 	C 	0.19245 0.38429 0.90735 -0.09700
C 	C 	0.20255 0.24965 0.82266 0.04400
O 	O 	0.14889 0.55233 0.05016 -0.42600
O 	O 	0.23154 0.55156 0.04938 -0.43100
C 	C 	0.19801 0.70520 0.14588 0.03200
C 	C 	0.19078 0.56937 0.06219 0.36600
C 	C 	0.14941 0.63976 0.10724 0.03000
H 	H 	0.11800 0.62610 0.09890 0.02100
C 	C 	0.24129 0.68040 0.13011 -0.10400
H 	H 	0.27280 0.69430 0.13730 0.06700
C 	C 	0.15206 0.68432 0.13430 -0.10300
H 	H 	0.12250 0.70030 0.14470 0.05500
C 	C 	0.23836 0.63608 0.10427 0.03300
H 	H 	0.26780 0.61960 0.09450 0.03100
C 	C 	0.24202 0.78323 0.17031 -0.10500
H 	H 	0.26390 0.77850 0.14310 0.06300
C 	C 	0.19245 0.61571 0.09265 -0.11800
C 	C 	0.20255 0.75035 0.17734 0.04000
O 	O 	0.94984 0.85111 0.55233 -0.37100
O 	O 	0.95062 0.76846 0.55156 -0.38700
C 	C 	0.85412 0.80199 0.70520 0.03200
C 	C 	0.93781 0.80922 0.56937 0.35900
C 	C 	0.89276 0.85059 0.63976 0.02800
H 	H 	0.90110 0.88200 0.62610 0.05200
C 	C 	0.86989 0.75871 0.68040 -0.08900
H 	H 	0.86270 0.72720 0.69430 0.06800
C 	C 	0.86570 0.84794 0.68432 -0.08600
H 	H 	0.85530 0.87750 0.70030 0.07400
C 	C 	0.89573 0.76164 0.63608 0.02800
H 	H 	0.90550 0.73220 0.61960 0.04600
C 	C 	0.82969 0.75798 0.78323 -0.10800
H 	H 	0.85690 0.73610 0.77850 0.07500
C 	C 	0.90735 0.80755 0.61571 -0.09100
C 	C 	0.82266 0.79745 0.75035 0.05500
O 	O 	0.05016 0.85111 0.44767 -0.41400
O 	O 	0.04938 0.76846 0.44844 -0.43000
C 	C 	0.14588 0.80199 0.29480 0.03200
C 	C 	0.06219 0.80922 0.43063 0.36400
C 	C 	0.10724 0.85059 0.36024 0.03000
H 	H 	0.09890 0.88200 0.37390 0.03500
C 	C 	0.13011 0.75871 0.31960 -0.10200
H 	H 	0.13730 0.72720 0.30570 0.06700
C 	C 	0.13430 0.84794 0.31568 -0.09900
H 	H 	0.14470 0.87750 0.29970 0.06600
C 	C 	0.10427 0.76164 0.36392 0.03000
H 	H 	0.09450 0.73220 0.38040 0.03100
C 	C 	0.17031 0.75798 0.21677 -0.10400
H 	H 	0.14310 0.73610 0.22150 0.06200
C 	C 	0.09265 0.80755 0.38429 -0.11200
C 	C 	0.17734 0.79745 0.24965 0.04200
O 	O 	0.94984 0.14889 0.44767 -0.38400
O 	O 	0.95062 0.23154 0.44844 -0.38900
C 	C 	0.85412 0.19801 0.29480 0.03100
C 	C 	0.93781 0.19078 0.43063 0.36200
C 	C 	0.89276 0.14941 0.36024 0.02700
H 	H 	0.90110 0.11800 0.37390 0.03500
C 	C 	0.86989 0.24129 0.31960 -0.09200
H 	H 	0.86270 0.27280 0.30570 0.06900
C 	C 	0.86570 0.15206 0.31568 -0.09200
H 	H 	0.85530 0.12250 0.29970 0.05800
C 	C 	0.89573 0.23836 0.36392 0.02900
H 	H 	0.90550 0.26780 0.38040 0.04400
C 	C 	0.82969 0.24202 0.21677 -0.10500
H 	H 	0.85690 0.26390 0.22150 0.07000
C 	C 	0.90735 0.19245 0.38429 -0.09700
C 	C 	0.82266 0.20255 0.24965 0.04400
O 	O 	0.05016 0.14889 0.55233 -0.42600
O 	O 	0.04938 0.23154 0.55156 -0.43100
C 	C 	0.14588 0.19801 0.70520 0.03200
C 	C 	0.06219 0.19078 0.56937 0.36600
C 	C 	0.10724 0.14941 0.63976 0.03000
H 	H 	0.09890 0.11800 0.62610 0.02100
C 	C 	0.13011 0.24129 0.68040 -0.10400
H 	H 	0.13730 0.27280 0.69430 0.06700
C 	C 	0.13430 0.15206 0.68432 -0.10300
H 	H 	0.14470 0.12250 0.70030 0.05500
C 	C 	0.10427 0.23836 0.63608 0.03300
H 	H 	0.09450 0.26780 0.61960 0.03100
C 	C 	0.17031 0.24202 0.78323 -0.10500
H 	H 	0.14310 0.26390 0.77850 0.06300
C 	C 	0.09265 0.19245 0.61571 -0.11800
C 	C 	0.17734 0.20255 0.75035 0.04000
Cu	Cu	0.50000 0.00000 0.14441 0.87400
Cu	Cu	0.50000 0.00000 0.24028 0.88000
Cu	Cu	0.50000 0.00000 0.85559 0.88000
Cu	Cu	0.50000 0.00000 0.75972 0.88000
Cu	Cu	0.14441 0.50000 -0.00000 0.87400
Cu	Cu	0.24028 0.50000 -0.00000 0.88000
Cu	Cu	0.85559 0.50000 -0.00000 0.88000
Cu	Cu	0.75972 0.50000 -0.00000 0.88000
Cu	Cu	0.00000 0.14441 0.50000 0.87400
Cu	Cu	-0.00000 0.24028 0.50000 0.88000
Cu	Cu	0.00000 0.85559 0.50000 0.88000
Cu	Cu	0.00000 0.75972 0.50000 0.88000
O 	O 	0.94767 0.55016 0.64889 -0.37700
O 	O 	0.94844 0.54938 0.73154 -0.38600
C 	C 	0.79480 0.64588 0.69801 0.02800
C 	C 	0.93063 0.56219 0.69078 0.35800
C 	C 	0.86024 0.60724 0.64941 0.02400
H 	H 	0.87390 0.59890 0.61800 0.04200
C 	C 	0.81960 0.63011 0.74129 -0.09100
H 	H 	0.80570 0.63730 0.77280 0.06600
C 	C 	0.81568 0.63430 0.65206 -0.09000
H 	H 	0.79970 0.64470 0.62250 0.06200
C 	C 	0.86392 0.60427 0.73836 0.02500
H 	H 	0.88040 0.59450 0.76780 0.04500
C 	C 	0.71677 0.67031 0.74202 -0.10900
H 	H 	0.72150 0.64310 0.76390 0.06900
C 	C 	0.88429 0.59265 0.69245 -0.09400
C 	C 	0.74965 0.67734 0.70255 0.04800
O 	O 	0.05233 0.44984 0.64889 -0.42000
O 	O 	0.05156 0.45062 0.73154 -0.43000
C 	C 	0.20520 0.35412 0.69801 0.03400
C 	C 	0.06937 0.43781 0.69078 0.36700
C 	C 	0.13976 0.39276 0.64941 0.03200
H 	H 	0.12610 0.40110 0.61800 0.03000
C 	C 	0.18040 0.36989 0.74129 -0.10100
H 	H 	0.19430 0.36270 0.77280 0.06800
C 	C 	0.18432 0.36570 0.65206 -0.09900
H 	H 	0.20030 0.35530 0.62250 0.06400
C 	C 	0.13608 0.39573 0.73836 0.03300
H 	H 	0.11960 0.40550 0.76780 0.03300
C 	C 	0.28323 0.32969 0.74202 -0.10500
H 	H 	0.27850 0.35690 0.76390 0.06700
C 	C 	0.11571 0.40735 0.69245 -0.11300
C 	C 	0.25035 0.32266 0.70255 0.04400
O 	O 	0.05233 0.55016 0.35111 -0.42000
O 	O 	0.05156 0.54938 0.26846 -0.43200
C 	C 	0.20520 0.64588 0.30199 0.03500
C 	C 	0.06937 0.56219 0.30922 0.36700
C 	C 	0.13976 0.60724 0.35059 0.03300
H 	H 	0.12610 0.59890 0.38200 0.03000
C 	C 	0.18040 0.63011 0.25871 -0.10200
H 	H 	0.19430 0.63730 0.22720 0.06900
C 	C 	0.18432 0.63430 0.34794 -0.10000
H 	H 	0.20030 0.64470 0.37750 0.06400
C 	C 	0.13608 0.60427 0.26164 0.03500
H 	H 	0.11960 0.59450 0.23220 0.03100
C 	C 	0.28323 0.67031 0.25798 -0.10400
H 	H 	0.27850 0.64310 0.23610 0.06700
C 	C 	0.11571 0.59265 0.30755 -0.11400
C 	C 	0.25035 0.67734 0.29745 0.04300
O 	O 	0.94767 0.44984 0.35111 -0.37700
O 	O 	0.94844 0.45062 0.26846 -0.38900
C 	C 	0.79480 0.35412 0.30199 0.03000
C 	C 	0.93063 0.43781 0.30922 0.35900
C 	C 	0.86024 0.39276 0.35059 0.02500
H 	H 	0.87390 0.40110 0.38200 0.04100
C 	C 	0.81960 0.36989 0.25871 -0.09300
H 	H 	0.80570 0.36270 0.22720 0.06700
C 	C 	0.81568 0.36570 0.34794 -0.09100
H 	H 	0.79970 0.35530 0.37750 0.06300
C 	C 	0.86392 0.39573 0.26164 0.02600
H 	H 	0.88040 0.40550 0.23220 0.04300
C 	C 	0.71677 0.32969 0.25798 -0.10500
H 	H 	0.72150 0.35690 0.23610 0.06700
C 	C 	0.88429 0.40735 0.30755 -0.09600
C 	C 	0.74965 0.32266 0.29745 0.04500
O 	O 	0.64889 0.94767 0.55016 -0.37700
O 	O 	0.73154 0.94844 0.54938 -0.38600
C 	C 	0.69801 0.79480 0.64588 0.02800
C 	C 	0.69078 0.93063 0.56219 0.35800
C 	C 	0.64941 0.86024 0.60724 0.02400
H 	H 	0.61800 0.87390 0.59890 0.04200
C 	C 	0.74129 0.81960 0.63011 -0.09100
H 	H 	0.77280 0.80570 0.63730 0.06600
C 	C 	0.65206 0.81568 0.63430 -0.09000
H 	H 	0.62250 0.79970 0.64470 0.06200
C 	C 	0.73836 0.86392 0.60427 0.02500
H 	H 	0.76780 0.88040 0.59450 0.04500
C 	C 	0.74202 0.71677 0.67031 -0.10900
H 	H 	0.76390 0.72150 0.64310 0.06900
C 	C 	0.69245 0.88429 0.59265 -0.09400
C 	C 	0.70255 0.74965 0.67734 0.04800
O 	O 	0.64889 0.05233 0.44984 -0.42000
O 	O 	0.73154 0.05156 0.45062 -0.43000
C 	C 	0.69801 0.20520 0.35412 0.03400
C 	C 	0.69078 0.06937 0.43781 0.36700
C 	C 	0.64941 0.13976 0.39276 0.03200
H 	H 	0.61800 0.12610 0.40110 0.03000
C 	C 	0.74129 0.18040 0.36989 -0.10100
H 	H 	0.77280 0.19430 0.36270 0.06800
C 	C 	0.65206 0.18432 0.36570 -0.09900
H 	H 	0.62250 0.20030 0.35530 0.06400
C 	C 	0.73836 0.13608 0.39573 0.03300
H 	H 	0.76780 0.11960 0.40550 0.03300
C 	C 	0.74202 0.28323 0.32969 -0.10500
H 	H 	0.76390 0.27850 0.35690 0.06700
C 	C 	0.69245 0.11571 0.40735 -0.11300
C 	C 	0.70255 0.25035 0.32266 0.04400
O 	O 	0.35111 0.05233 0.55016 -0.42000
O 	O 	0.26846 0.05156 0.54938 -0.43200
C 	C 	0.30199 0.20520 0.64588 0.03500
C 	C 	0.30922 0.06937 0.56219 0.36700
C 	C 	0.35059 0.13976 0.60724 0.03300
H 	H 	0.38200 0.12610 0.59890 0.03000
C 	C 	0.25871 0.18040 0.63011 -0.10200
H 	H 	0.22720 0.19430 0.63730 0.06900
C 	C 	0.34794 0.18432 0.63430 -0.10000
H 	H 	0.37750 0.20030 0.64470 0.06400
C 	C 	0.26164 0.13608 0.60427 0.03500
H 	H 	0.23220 0.11960 0.59450 0.03100
C 	C 	0.25798 0.28323 0.67031 -0.10400
H 	H 	0.23610 0.27850 0.64310 0.06700
C 	C 	0.30755 0.11571 0.59265 -0.11400
C 	C 	0.29745 0.25035 0.67734 0.04300
O 	O 	0.35111 0.94767 0.44984 -0.37700
O 	O 	0.26846 0.94844 0.45062 -0.38900
C 	C 	0.30199 0.79480 0.35412 0.03000
C 	C 	0.30922 0.93063 0.43781 0.35900
C 	C 	0.35059 0.86024 0.39276 0.02500
H 	H 	0.38200 0.87390 0.40110 0.04100
C 	C 	0.25871 0.81960 0.36989 -0.09300
H 	H 	0.22720 0.80570 0.36270 0.06700
C 	C 	0.34794 0.81568 0.36570 -0.09100
H 	H 	0.37750 0.79970 0.35530 0.06300
C 	C 	0.26164 0.86392 0.39573 0.02600
H 	H 	0.23220 0.88040 0.40550 0.04300
C 	C 	0.25798 0.71677 0.32969 -0.10500
H 	H 	0.23610 0.72150 0.35690 0.06700
C 	C 	0.30755 0.88429 0.40735 -0.09600
C 	C 	0.29745 0.74965 0.32266 0.04500
O 	O 	0.55016 0.64889 0.94767 -0.37700
O 	O 	0.54938 0.73154 0.94844 -0.38600
C 	C 	0.64588 0.69801 0.79480 0.02800
C 	C 	0.56219 0.69078 0.93063 0.35800
C 	C 	0.60724 0.64941 0.86024 0.02400
H 	H 	0.59890 0.61800 0.87390 0.04200
C 	C 	0.63011 0.74129 0.81960 -0.09100
H 	H 	0.63730 0.77280 0.80570 0.06600
C 	C 	0.63430 0.65206 0.81568 -0.09000
H 	H 	0.64470 0.62250 0.79970 0.06200
C 	C 	0.60427 0.73836 0.86392 0.02500
H 	H 	0.59450 0.76780 0.88040 0.04500
C 	C 	0.67031 0.74202 0.71677 -0.10900
H 	H 	0.64310 0.76390 0.72150 0.06900
C 	C 	0.59265 0.69245 0.88429 -0.09400
C 	C 	0.67734 0.70255 0.74965 0.04800
O 	O 	0.44984 0.64889 0.05233 -0.42000
O 	O 	0.45062 0.73154 0.05156 -0.43000
C 	C 	0.35412 0.69801 0.20520 0.03400
C 	C 	0.43781 0.69078 0.06937 0.36700
C 	C 	0.39276 0.64941 0.13976 0.03200
H 	H 	0.40110 0.61800 0.12610 0.03000
C 	C 	0.36989 0.74129 0.18040 -0.10100
H 	H 	0.36270 0.77280 0.19430 0.06800
C 	C 	0.36570 0.65206 0.18432 -0.09900
H 	H 	0.35530 0.62250 0.20030 0.06400
C 	C 	0.39573 0.73836 0.13608 0.03300
H 	H 	0.40550 0.76780 0.11960 0.03300
C 	C 	0.32969 0.74202 0.28323 -0.10500
H 	H 	0.35690 0.76390 0.27850 0.06700
C 	C 	0.40735 0.69245 0.11571 -0.11300
C 	C 	0.32266 0.70255 0.25035 0.04400
O 	O 	0.55016 0.35111 0.05233 -0.42000
O 	O 	0.54938 0.26846 0.05156 -0.43200
C 	C 	0.64588 0.30199 0.20520 0.03500
C 	C 	0.56219 0.30922 0.06937 0.36700
C 	C 	0.60724 0.35059 0.13976 0.03300
H 	H 	0.59890 0.38200 0.12610 0.03000
C 	C 	0.63011 0.25871 0.18040 -0.10200
H 	H 	0.63730 0.22720 0.19430 0.06900
C 	C 	0.63430 0.34794 0.18432 -0.10000
H 	H 	0.64470 0.37750 0.20030 0.06400
C 	C 	0.60427 0.26164 0.13608 0.03500
H 	H 	0.59450 0.23220 0.11960 0.03100
C 	C 	0.67031 0.25798 0.28323 -0.10400
H 	H 	0.64310 0.23610 0.27850 0.06700
C 	C 	0.59265 0.30755 0.11571 -0.11400
C 	C 	0.67734 0.29745 0.25035 0.04300
O 	O 	0.44984 0.35111 0.94767 -0.37700
O 	O 	0.45062 0.26846 0.94844 -0.38900
C 	C 	0.35412 0.30199 0.79480 0.03000
C 	C 	0.43781 0.30922 0.93063 0.35900
C 	C 	0.39276 0.35059 0.86024 0.02500
H 	H 	0.40110 0.38200 0.87390 0.04100
C 	C 	0.36989 0.25871 0.81960 -0.09300
H 	H 	0.36270 0.22720 0.80570 0.06700
C 	C 	0.36570 0.34794 0.81568 -0.09100
H 	H 	0.35530 0.37750 0.79970 0.06300
C 	C 	0.39573 0.26164 0.86392 0.02600
H 	H 	0.40550 0.23220 0.88040 0.04300
C 	C 	0.32969 0.25798 0.71677 -0.10500
H 	H 	0.35690 0.23610 0.72150 0.06700
C 	C 	0.40735 0.30755 0.88429 -0.09600
C 	C 	0.32266 0.29745 0.74965 0.04500
O 	O 	0.05233 0.44984 0.35111 -0.42000
O 	O 	0.05156 0.45062 0.26846 -0.43200
C 	C 	0.20520 0.35412 0.30199 0.03600
C 	C 	0.06937 0.43781 0.30922 0.36700
C 	C 	0.13976 0.39276 0.35059 0.03300
H 	H 	0.12610 0.40110 0.38200 0.03000
C 	C 	0.18040 0.36989 0.25871 -0.10300
H 	H 	0.19430 0.36270 0.22720 0.06900
C 	C 	0.18432 0.36570 0.34794 -0.10000
H 	H 	0.20030 0.35530 0.37750 0.06400
C 	C 	0.13608 0.39573 0.26164 0.03500
H 	H 	0.11960 0.40550 0.23220 0.03100
C 	C 	0.28323 0.32969 0.25798 -0.10300
H 	H 	0.27850 0.35690 0.23610 0.06600
C 	C 	0.11571 0.40735 0.30755 -0.11500
C 	C 	0.25035 0.32266 0.29745 0.04200
O 	O 	0.94767 0.55016 0.35111 -0.37700
O 	O 	0.94844 0.54938 0.26846 -0.38800
C 	C 	0.79480 0.64588 0.30199 0.02900
C 	C 	0.93063 0.56219 0.30922 0.35900
C 	C 	0.86024 0.60724 0.35059 0.02500
H 	H 	0.87390 0.59890 0.38200 0.04100
C 	C 	0.81960 0.63011 0.25871 -0.09300
H 	H 	0.80570 0.63730 0.22720 0.06700
C 	C 	0.81568 0.63430 0.34794 -0.09100
H 	H 	0.79970 0.64470 0.37750 0.06300
C 	C 	0.86392 0.60427 0.26164 0.02600
H 	H 	0.88040 0.59450 0.23220 0.04300
C 	C 	0.71677 0.67031 0.25798 -0.10600
H 	H 	0.72150 0.64310 0.23610 0.06700
C 	C 	0.88429 0.59265 0.30755 -0.09600
C 	C 	0.74965 0.67734 0.29745 0.04600
O 	O 	0.94767 0.44984 0.64889 -0.37700
O 	O 	0.94844 0.45062 0.73154 -0.38600
C 	C 	0.79480 0.35412 0.69801 0.02900
C 	C 	0.93063 0.43781 0.69078 0.35800
C 	C 	0.86024 0.39276 0.64941 0.02400
H 	H 	0.87390 0.40110 0.61800 0.04200
C 	C 	0.81960 0.36989 0.74129 -0.09100
H 	H 	0.80570 0.36270 0.77280 0.06600
C 	C 	0.81568 0.36570 0.65206 -0.09000
H 	H 	0.79970 0.35530 0.62250 0.06300
C 	C 	0.86392 0.39573 0.73836 0.02500
H 	H 	0.88040 0.40550 0.76780 0.04500
C 	C 	0.71677 0.32969 0.74202 -0.10700
H 	H 	0.72150 0.35690 0.76390 0.06800
C 	C 	0.88429 0.40735 0.69245 -0.09500
C 	C 	0.74965 0.32266 0.70255 0.04700
O 	O 	0.05233 0.55016 0.64889 -0.42000
O 	O 	0.05156 0.54938 0.73154 -0.42900
C 	C 	0.20520 0.64588 0.69801 0.03400
C 	C 	0.06937 0.56219 0.69078 0.36700
C 	C 	0.13976 0.60724 0.64941 0.03200
H 	H 	0.12610 0.59890 0.61800 0.03000
C 	C 	0.18040 0.63011 0.74129 -0.10100
H 	H 	0.19430 0.63730 0.77280 0.06800
C 	C 	0.18432 0.63430 0.65206 -0.09900
H 	H 	0.20030 0.64470 0.62250 0.06300
C 	C 	0.13608 0.60427 0.73836 0.03300
H 	H 	0.11960 0.59450 0.76780 0.03300
C 	C 	0.28323 0.67031 0.74202 -0.10700
H 	H 	0.27850 0.64310 0.76390 0.06800
C 	C 	0.11571 0.59265 0.69245 -0.11300
C 	C 	0.25035 0.67734 0.70255 0.04500
O 	O 	0.35111 0.05233 0.44984 -0.42000
O 	O 	0.26846 0.05156 0.45062 -0.43200
C 	C 	0.30199 0.20520 0.35412 0.03600
C 	C 	0.30922 0.06937 0.43781 0.36700
C 	C 	0.35059 0.13976 0.39276 0.03300
H 	H 	0.38200 0.12610 0.40110 0.03000
C 	C 	0.25871 0.18040 0.36989 -0.10300
H 	H 	0.22720 0.19430 0.36270 0.06900
C 	C 	0.34794 0.18432 0.36570 -0.10000
H 	H 	0.37750 0.20030 0.35530 0.06400
C 	C 	0.26164 0.13608 0.39573 0.03500
H 	H 	0.23220 0.11960 0.40550 0.03100
C 	C 	0.25798 0.28323 0.32969 -0.10300
H 	H 	0.23610 0.27850 0.35690 0.06600
C 	C 	0.30755 0.11571 0.40735 -0.11500
C 	C 	0.29745 0.25035 0.32266 0.04200
O 	O 	0.35111 0.94767 0.55016 -0.37700
O 	O 	0.26846 0.94844 0.54938 -0.38800
C 	C 	0.30199 0.79480 0.64588 0.02900
C 	C 	0.30922 0.93063 0.56219 0.35900
C 	C 	0.35059 0.86024 0.60724 0.02500
H 	H 	0.38200 0.87390 0.59890 0.04100
C 	C 	0.25871 0.81960 0.63011 -0.09300
H 	H 	0.22720 0.80570 0.63730 0.06700
C 	C 	0.34794 0.81568 0.63430 -0.09100
H 	H 	0.37750 0.79970 0.64470 0.06300
C 	C 	0.26164 0.86392 0.60427 0.02600
H 	H 	0.23220 0.88040 0.59450 0.04300
C 	C 	0.25798 0.71677 0.67031 -0.10600
H 	H 	0.23610 0.72150 0.64310 0.06700
C 	C 	0.30755 0.88429 0.59265 -0.09600
C 	C 	0.29745 0.74965 0.67734 0.04600
O 	O 	0.64889 0.94767 0.44984 -0.37700
O 	O 	0.73154 0.94844 0.45062 -0.38600
C 	C 	0.69801 0.79480 0.35412 0.02900
C 	C 	0.69078 0.93063 0.43781 0.35800
C 	C 	0.64941 0.86024 0.39276 0.02400
H 	H 	0.61800 0.87390 0.40110 0.04200
C 	C 	0.74129 0.81960 0.36989 -0.09100
H 	H 	0.77280 0.80570 0.36270 0.06600
C 	C 	0.65206 0.81568 0.36570 -0.09000
H 	H 	0.62250 0.79970 0.35530 0.06300
C 	C 	0.73836 0.86392 0.39573 0.02500
H 	H 	0.76780 0.88040 0.40550 0.04500
C 	C 	0.74202 0.71677 0.32969 -0.10700
H 	H 	0.76390 0.72150 0.35690 0.06800
C 	C 	0.69245 0.88429 0.40735 -0.09500
C 	C 	0.70255 0.74965 0.32266 0.04700
O 	O 	0.64889 0.05233 0.55016 -0.42000
O 	O 	0.73154 0.05156 0.54938 -0.42900
C 	C 	0.69801 0.20520 0.64588 0.03400
C 	C 	0.69078 0.06937 0.56219 0.36700
C 	C 	0.64941 0.13976 0.60724 0.03200
H 	H 	0.61800 0.12610 0.59890 0.03000
C 	C 	0.74129 0.18040 0.63011 -0.10100
H 	H 	0.77280 0.19430 0.63730 0.06800
C 	C 	0.65206 0.18432 0.63430 -0.09900
H 	H 	0.62250 0.20030 0.64470 0.06300
C 	C 	0.73836 0.13608 0.60427 0.03300
H 	H 	0.76780 0.11960 0.59450 0.03300
C 	C 	0.74202 0.28323 0.67031 -0.10700
H 	H 	0.76390 0.27850 0.64310 0.06800
C 	C 	0.69245 0.11571 0.59265 -0.11300
C 	C 	0.70255 0.25035 0.67734 0.04500
O 	O 	0.44984 0.35111 0.05233 -0.42000
O 	O 	0.45062 0.26846 0.05156 -0.43200
C 	C 	0.35412 0.30199 0.20520 0.03600
C 	C 	0.43781 0.30922 0.06937 0.36700
C 	C 	0.39276 0.35059 0.13976 0.03300
H 	H 	0.40110 0.38200 0.12610 0.03000
C 	C 	0.36989 0.25871 0.18040 -0.10300
H 	H 	0.36270 0.22720 0.19430 0.06900
C 	C 	0.36570 0.34794 0.18432 -0.10000
H 	H 	0.35530 0.37750 0.20030 0.06400
C 	C 	0.39573 0.26164 0.13608 0.03500
H 	H 	0.40550 0.23220 0.11960 0.03100
C 	C 	0.32969 0.25798 0.28323 -0.10300
H 	H 	0.35690 0.23610 0.27850 0.06600
C 	C 	0.40735 0.30755 0.11571 -0.11500
C 	C 	0.32266 0.29745 0.25035 0.04200
O 	O 	0.55016 0.35111 0.94767 -0.37700
O 	O 	0.54938 0.26846 0.94844 -0.38800
C 	C 	0.64588 0.30199 0.79480 0.02900
C 	C 	0.56219 0.30922 0.93063 0.35900
C 	C 	0.60724 0.35059 0.86024 0.02500
H 	H 	0.59890 0.38200 0.87390 0.04100
C 	C 	0.63011 0.25871 0.81960 -0.09300
H 	H 	0.63730 0.22720 0.80570 0.06700
C 	C 	0.63430 0.34794 0.81568 -0.09100
H 	H 	0.64470 0.37750 0.79970 0.06300
C 	C 	0.60427 0.26164 0.86392 0.02600
H 	H 	0.59450 0.23220 0.88040 0.04300
C 	C 	0.67031 0.25798 0.71677 -0.10600
H 	H 	0.64310 0.23610 0.72150 0.06700
C 	C 	0.59265 0.30755 0.88429 -0.09600
C 	C 	0.67734 0.29745 0.74965 0.04600
O 	O 	0.44984 0.64889 0.94767 -0.37700
O 	O 	0.45062 0.73154 0.94844 -0.38600
C 	C 	0.35412 0.69801 0.79480 0.02900
C 	C 	0.43781 0.69078 0.93063 0.35800
C 	C 	0.39276 0.64941 0.86024 0.02400
H 	H 	0.40110 0.61800 0.87390 0.04200
C 	C 	0.36989 0.74129 0.81960 -0.09100
H 	H 	0.36270 0.77280 0.80570 0.06600
C 	C 	0.36570 0.65206 0.81568 -0.09000
H 	H 	0.35530 0.62250 0.79970 0.06300
C 	C 	0.39573 0.73836 0.86392 0.02500
H 	H 	0.40550 0.76780 0.88040 0.04500
C 	C 	0.32969 0.74202 0.71677 -0.10700
H 	H 	0.35690 0.76390 0.72150 0.06800
C 	C 	0.40735 0.69245 0.88429 -0.09500
C 	C 	0.32266 0.70255 0.74965 0.04700
O 	O 	0.55016 0.64889 0.05233 -0.42000
O 	O 	0.54938 0.73154 0.05156 -0.42900
C 	C 	0.64588 0.69801 0.20520 0.03400
C 	C 	0.56219 0.69078 0.06937 0.36700
C 	C 	0.60724 0.64941 0.13976 0.03200
H 	H 	0.59890 0.61800 0.12610 0.03000
C 	C 	0.63011 0.74129 0.18040 -0.10100
H 	H 	0.63730 0.77280 0.19430 0.06800
C 	C 	0.63430 0.65206 0.18432 -0.09900
H 	H 	0.64470 0.62250 0.20030 0.06300
C 	C 	0.60427 0.73836 0.13608 0.03300
H 	H 	0.59450 0.76780 0.11960 0.03300
C 	C 	0.67031 0.74202 0.28323 -0.10700
H 	H 	0.64310 0.76390 0.27850 0.06800
C 	C 	0.59265 0.69245 0.11571 -0.11300
C 	C 	0.67734 0.70255 0.25035 0.04500
Cu	Cu	0.00000 0.50000 0.64441 0.87700
Cu	Cu	0.00000 0.50000 0.74028 0.88100
Cu	Cu	0.00000 0.50000 0.35559 0.87700
Cu	Cu	0.00000 0.50000 0.25972 0.88000
Cu	Cu	0.64441 -0.00000 0.50000 0.87700
Cu	Cu	0.74028 -0.00000 0.50000 0.88100
Cu	Cu	0.35559 -0.00000 0.50000 0.87700
Cu	Cu	0.25972 -0.00000 0.50000 0.88000
Cu	Cu	0.50000 0.64441 -0.00000 0.87700
Cu	Cu	0.50000 0.74028 -0.00000 0.88100
Cu	Cu	0.50000 0.35559 -0.00000 0.87700
Cu	Cu	0.50000 0.25972 -0.00000 0.88000
