data_crystal

_cell_length_a 26.97300
_cell_length_b 26.97300
_cell_length_c 26.97300
_cell_angle_alpha 90.00000
_cell_angle_beta  90.00000
_cell_angle_gamma 90.00000

_symmetry_space_group_name_	'P 1'
_symmetry_space_group_name_H-M	'P 1'

loop_
_symmetry_equiv_pos_as_xyz
  x,y,z

loop_
_atom_site_label
_atom_site_type_symbol
_atom_site_fract_x
_atom_site_fract_y
_atom_site_fract_z
_atom_site_charge
O 	O 	0.44761 0.05033 0.14877 -0.43000
O 	O 	0.44835 0.04910 0.23118 -0.43400
C 	C 	0.29450 0.14559 0.19750 0.03400
C 	C 	0.43047 0.06206 0.19040 0.37400
C 	C 	0.35980 0.10670 0.14920 0.03500
H 	H 	0.37300 0.09810 0.11810 0.01800
C 	C 	0.31960 0.12980 0.24120 -0.11200
H 	H 	0.30590 0.13680 0.27250 0.07000
C 	C 	0.31530 0.13390 0.15180 -0.11100
H 	H 	0.29950 0.14410 0.12250 0.05600
C 	C 	0.36410 0.10420 0.23790 0.03900
H 	H 	0.38070 0.09470 0.26700 0.02800
C 	C 	0.21655 0.16990 0.24170 -0.10500
H 	H 	0.22100 0.14280 0.26320 0.06200
C 	C 	0.38438 0.09251 0.19228 -0.12600
C 	C 	0.24960 0.17710 0.20233 0.03500
O 	O 	0.55239 0.94967 0.14877 -0.38600
O 	O 	0.55165 0.95090 0.23118 -0.39000
C 	C 	0.70550 0.85441 0.19750 0.03500
C 	C 	0.56953 0.93794 0.19040 0.36900
C 	C 	0.64020 0.89330 0.14920 0.03300
H 	H 	0.62700 0.90190 0.11810 0.03500
C 	C 	0.68040 0.87020 0.24120 -0.09700
H 	H 	0.69410 0.86320 0.27250 0.07200
C 	C 	0.68470 0.86610 0.15180 -0.09700
H 	H 	0.70050 0.85590 0.12250 0.06400
C 	C 	0.63590 0.89580 0.23790 0.03500
H 	H 	0.61930 0.90530 0.26700 0.04300
C 	C 	0.78345 0.83010 0.24170 -0.11000
H 	H 	0.77900 0.85720 0.26320 0.07500
C 	C 	0.61562 0.90749 0.19228 -0.10300
C 	C 	0.75040 0.82290 0.20233 0.04900
O 	O 	0.55239 0.05033 0.85123 -0.41600
O 	O 	0.55165 0.04910 0.76882 -0.43200
C 	C 	0.70550 0.14559 0.80250 0.03600
C 	C 	0.56953 0.06206 0.80960 0.37100
C 	C 	0.64020 0.10670 0.85080 0.03600
H 	H 	0.62700 0.09810 0.88190 0.03500
C 	C 	0.68040 0.12980 0.75880 -0.10800
H 	H 	0.69410 0.13680 0.72750 0.07000
C 	C 	0.68470 0.13390 0.84820 -0.10500
H 	H 	0.70050 0.14410 0.87750 0.07200
C 	C 	0.63590 0.10420 0.76210 0.03700
H 	H 	0.61930 0.09470 0.73300 0.03000
C 	C 	0.78345 0.16990 0.75830 -0.10800
H 	H 	0.77900 0.14280 0.73680 0.06700
C 	C 	0.61562 0.09251 0.80772 -0.11900
C 	C 	0.75040 0.17710 0.79767 0.04600
O 	O 	0.44761 0.94967 0.85123 -0.37400
O 	O 	0.44835 0.95090 0.76882 -0.38900
C 	C 	0.29450 0.85441 0.80250 0.03500
C 	C 	0.43047 0.93794 0.80960 0.36600
C 	C 	0.35980 0.89330 0.85080 0.03200
H 	H 	0.37300 0.90190 0.88190 0.04900
C 	C 	0.31960 0.87020 0.75880 -0.09500
H 	H 	0.30590 0.86320 0.72750 0.07100
C 	C 	0.31530 0.86610 0.84820 -0.09300
H 	H 	0.29950 0.85590 0.87750 0.07400
C 	C 	0.36410 0.89580 0.76210 0.03300
H 	H 	0.38070 0.90530 0.73300 0.04400
C 	C 	0.21655 0.83010 0.75830 -0.10900
H 	H 	0.22100 0.85720 0.73680 0.07400
C 	C 	0.38438 0.90749 0.80772 -0.09800
C 	C 	0.24960 0.82290 0.79767 0.05100
O 	O 	0.14877 0.44761 0.05033 -0.42900
O 	O 	0.23118 0.44835 0.04910 -0.43300
C 	C 	0.19750 0.29450 0.14559 0.03500
C 	C 	0.19040 0.43047 0.06206 0.37400
C 	C 	0.14920 0.35980 0.10670 0.03500
H 	H 	0.11810 0.37300 0.09810 0.01800
C 	C 	0.24120 0.31960 0.12980 -0.11200
H 	H 	0.27250 0.30590 0.13680 0.07000
C 	C 	0.15180 0.31530 0.13390 -0.11100
H 	H 	0.12250 0.29950 0.14410 0.05600
C 	C 	0.23790 0.36410 0.10420 0.03900
H 	H 	0.26700 0.38070 0.09470 0.02800
C 	C 	0.24170 0.21655 0.16990 -0.10500
H 	H 	0.26320 0.22100 0.14280 0.06200
C 	C 	0.19228 0.38438 0.09251 -0.12600
C 	C 	0.20233 0.24960 0.17710 0.03500
O 	O 	0.14877 0.55239 0.94967 -0.38600
O 	O 	0.23118 0.55165 0.95090 -0.39000
C 	C 	0.19750 0.70550 0.85441 0.03500
C 	C 	0.19040 0.56953 0.93794 0.36900
C 	C 	0.14920 0.64020 0.89330 0.03300
H 	H 	0.11810 0.62700 0.90190 0.03500
C 	C 	0.24120 0.68040 0.87020 -0.09700
H 	H 	0.27250 0.69410 0.86320 0.07200
C 	C 	0.15180 0.68470 0.86610 -0.09700
H 	H 	0.12250 0.70050 0.85590 0.06400
C 	C 	0.23790 0.63590 0.89580 0.03500
H 	H 	0.26700 0.61930 0.90530 0.04300
C 	C 	0.24170 0.78345 0.83010 -0.11000
H 	H 	0.26320 0.77900 0.85720 0.07500
C 	C 	0.19228 0.61562 0.90749 -0.10300
C 	C 	0.20233 0.75040 0.82290 0.04900
O 	O 	0.85123 0.55239 0.05033 -0.41600
O 	O 	0.76882 0.55165 0.04910 -0.43200
C 	C 	0.80250 0.70550 0.14559 0.03600
C 	C 	0.80960 0.56953 0.06206 0.37100
C 	C 	0.85080 0.64020 0.10670 0.03600
H 	H 	0.88190 0.62700 0.09810 0.03500
C 	C 	0.75880 0.68040 0.12980 -0.10800
H 	H 	0.72750 0.69410 0.13680 0.07000
C 	C 	0.84820 0.68470 0.13390 -0.10500
H 	H 	0.87750 0.70050 0.14410 0.07200
C 	C 	0.76210 0.63590 0.10420 0.03700
H 	H 	0.73300 0.61930 0.09470 0.03000
C 	C 	0.75830 0.78345 0.16990 -0.10800
H 	H 	0.73680 0.77900 0.14280 0.06700
C 	C 	0.80772 0.61562 0.09251 -0.11900
C 	C 	0.79767 0.75040 0.17710 0.04600
O 	O 	0.85123 0.44761 0.94967 -0.37400
O 	O 	0.76882 0.44835 0.95090 -0.38900
C 	C 	0.80250 0.29450 0.85441 0.03500
C 	C 	0.80960 0.43047 0.93794 0.36600
C 	C 	0.85080 0.35980 0.89330 0.03200
H 	H 	0.88190 0.37300 0.90190 0.04900
C 	C 	0.75880 0.31960 0.87020 -0.09500
H 	H 	0.72750 0.30590 0.86320 0.07100
C 	C 	0.84820 0.31530 0.86610 -0.09300
H 	H 	0.87750 0.29950 0.85590 0.07400
C 	C 	0.76210 0.36410 0.89580 0.03300
H 	H 	0.73300 0.38070 0.90530 0.04400
C 	C 	0.75830 0.21655 0.83010 -0.10900
H 	H 	0.73680 0.22100 0.85720 0.07400
C 	C 	0.80772 0.38438 0.90749 -0.09800
C 	C 	0.79767 0.24960 0.82290 0.05100
O 	O 	0.05033 0.14877 0.44761 -0.42900
O 	O 	0.04910 0.23118 0.44835 -0.43300
C 	C 	0.14559 0.19750 0.29450 0.03500
C 	C 	0.06206 0.19040 0.43047 0.37400
C 	C 	0.10670 0.14920 0.35980 0.03500
H 	H 	0.09810 0.11810 0.37300 0.01800
C 	C 	0.12980 0.24120 0.31960 -0.11200
H 	H 	0.13680 0.27250 0.30590 0.07000
C 	C 	0.13390 0.15180 0.31530 -0.11100
H 	H 	0.14410 0.12250 0.29950 0.05600
C 	C 	0.10420 0.23790 0.36410 0.03900
H 	H 	0.09470 0.26700 0.38070 0.02800
C 	C 	0.16990 0.24170 0.21655 -0.10500
H 	H 	0.14280 0.26320 0.22100 0.06200
C 	C 	0.09251 0.19228 0.38438 -0.12600
C 	C 	0.17710 0.20233 0.24960 0.03500
O 	O 	0.94967 0.14877 0.55239 -0.38600
O 	O 	0.95090 0.23118 0.55165 -0.39000
C 	C 	0.85441 0.19750 0.70550 0.03500
C 	C 	0.93794 0.19040 0.56953 0.36900
C 	C 	0.89330 0.14920 0.64020 0.03300
H 	H 	0.90190 0.11810 0.62700 0.03500
C 	C 	0.87020 0.24120 0.68040 -0.09700
H 	H 	0.86320 0.27250 0.69410 0.07200
C 	C 	0.86610 0.15180 0.68470 -0.09700
H 	H 	0.85590 0.12250 0.70050 0.06400
C 	C 	0.89580 0.23790 0.63590 0.03500
H 	H 	0.90530 0.26700 0.61930 0.04300
C 	C 	0.83010 0.24170 0.78345 -0.11000
H 	H 	0.85720 0.26320 0.77900 0.07500
C 	C 	0.90749 0.19228 0.61562 -0.10300
C 	C 	0.82290 0.20233 0.75040 0.04900
O 	O 	0.05033 0.85123 0.55239 -0.41600
O 	O 	0.04910 0.76882 0.55165 -0.43200
C 	C 	0.14559 0.80250 0.70550 0.03600
C 	C 	0.06206 0.80960 0.56953 0.37100
C 	C 	0.10670 0.85080 0.64020 0.03600
H 	H 	0.09810 0.88190 0.62700 0.03500
C 	C 	0.12980 0.75880 0.68040 -0.10800
H 	H 	0.13680 0.72750 0.69410 0.07000
C 	C 	0.13390 0.84820 0.68470 -0.10500
H 	H 	0.14410 0.87750 0.70050 0.07200
C 	C 	0.10420 0.76210 0.63590 0.03700
H 	H 	0.09470 0.73300 0.61930 0.03000
C 	C 	0.16990 0.75830 0.78345 -0.10800
H 	H 	0.14280 0.73680 0.77900 0.06700
C 	C 	0.09251 0.80772 0.61562 -0.11900
C 	C 	0.17710 0.79767 0.75040 0.04600
O 	O 	0.94967 0.85123 0.44761 -0.37400
O 	O 	0.95090 0.76882 0.44835 -0.38900
C 	C 	0.85441 0.80250 0.29450 0.03500
C 	C 	0.93794 0.80960 0.43047 0.36600
C 	C 	0.89330 0.85080 0.35980 0.03200
H 	H 	0.90190 0.88190 0.37300 0.04900
C 	C 	0.87020 0.75880 0.31960 -0.09500
H 	H 	0.86320 0.72750 0.30590 0.07100
C 	C 	0.86610 0.84820 0.31530 -0.09300
H 	H 	0.85590 0.87750 0.29950 0.07400
C 	C 	0.89580 0.76210 0.36410 0.03300
H 	H 	0.90530 0.73300 0.38070 0.04400
C 	C 	0.83010 0.75830 0.21655 -0.10900
H 	H 	0.85720 0.73680 0.22100 0.07400
C 	C 	0.90749 0.80772 0.38438 -0.09800
C 	C 	0.82290 0.79767 0.24960 0.05100
O 	O 	0.55239 0.94967 0.85123 -0.37400
O 	O 	0.55165 0.95090 0.76882 -0.38900
C 	C 	0.70550 0.85441 0.80250 0.03600
C 	C 	0.56953 0.93794 0.80960 0.36600
C 	C 	0.64020 0.89330 0.85080 0.03300
H 	H 	0.62700 0.90190 0.88190 0.05000
C 	C 	0.68040 0.87020 0.75880 -0.09400
H 	H 	0.69410 0.86320 0.72750 0.07100
C 	C 	0.68470 0.86610 0.84820 -0.09200
H 	H 	0.70050 0.85590 0.87750 0.07700
C 	C 	0.63590 0.89580 0.76210 0.03300
H 	H 	0.61930 0.90530 0.73300 0.04400
C 	C 	0.78345 0.83010 0.75830 -0.11100
H 	H 	0.77900 0.85720 0.73680 0.07700
C 	C 	0.61562 0.90749 0.80772 -0.09700
C 	C 	0.75040 0.82290 0.79767 0.05600
O 	O 	0.44761 0.05033 0.85123 -0.41700
O 	O 	0.44835 0.04910 0.76882 -0.43200
C 	C 	0.29450 0.14559 0.80250 0.03600
C 	C 	0.43047 0.06206 0.80960 0.37100
C 	C 	0.35980 0.10670 0.85080 0.03500
H 	H 	0.37300 0.09810 0.88190 0.03400
C 	C 	0.31960 0.12980 0.75880 -0.10900
H 	H 	0.30590 0.13680 0.72750 0.07000
C 	C 	0.31530 0.13390 0.84820 -0.10600
H 	H 	0.29950 0.14410 0.87750 0.06900
C 	C 	0.36410 0.10420 0.76210 0.03700
H 	H 	0.38070 0.09470 0.73300 0.02900
C 	C 	0.21655 0.16990 0.75830 -0.10600
H 	H 	0.22100 0.14280 0.73680 0.06400
C 	C 	0.38438 0.09251 0.80772 -0.11900
C 	C 	0.24960 0.17710 0.79767 0.04200
O 	O 	0.44761 0.94967 0.14877 -0.38700
O 	O 	0.44835 0.95090 0.23118 -0.39000
C 	C 	0.29450 0.85441 0.19750 0.03400
C 	C 	0.43047 0.93794 0.19040 0.36900
C 	C 	0.35980 0.89330 0.14920 0.03200
H 	H 	0.37300 0.90190 0.11810 0.03400
C 	C 	0.31960 0.87020 0.24120 -0.09800
H 	H 	0.30590 0.86320 0.27250 0.07100
C 	C 	0.31530 0.86610 0.15180 -0.09800
H 	H 	0.29950 0.85590 0.12250 0.06100
C 	C 	0.36410 0.89580 0.23790 0.03500
H 	H 	0.38070 0.90530 0.26700 0.04200
C 	C 	0.21655 0.83010 0.24170 -0.10800
H 	H 	0.22100 0.85720 0.26320 0.07100
C 	C 	0.38438 0.90749 0.19228 -0.10400
C 	C 	0.24960 0.82290 0.20233 0.04400
O 	O 	0.55239 0.05033 0.14877 -0.42900
O 	O 	0.55165 0.04910 0.23118 -0.43300
C 	C 	0.70550 0.14559 0.19750 0.03600
C 	C 	0.56953 0.06206 0.19040 0.37400
C 	C 	0.64020 0.10670 0.14920 0.03600
H 	H 	0.62700 0.09810 0.11810 0.01900
C 	C 	0.68040 0.12980 0.24120 -0.11100
H 	H 	0.69410 0.13680 0.27250 0.07000
C 	C 	0.68470 0.13390 0.15180 -0.11000
H 	H 	0.70050 0.14410 0.12250 0.05900
C 	C 	0.63590 0.10420 0.23790 0.03900
H 	H 	0.61930 0.09470 0.26700 0.02900
C 	C 	0.78345 0.16990 0.24170 -0.10700
H 	H 	0.77900 0.14280 0.26320 0.06500
C 	C 	0.61562 0.09251 0.19228 -0.12500
C 	C 	0.75040 0.17710 0.20233 0.04000
O 	O 	0.85123 0.55239 0.94967 -0.37400
O 	O 	0.76882 0.55165 0.95090 -0.38900
C 	C 	0.80250 0.70550 0.85441 0.03600
C 	C 	0.80960 0.56953 0.93794 0.36600
C 	C 	0.85080 0.64020 0.89330 0.03300
H 	H 	0.88190 0.62700 0.90190 0.05000
C 	C 	0.75880 0.68040 0.87020 -0.09400
H 	H 	0.72750 0.69410 0.86320 0.07100
C 	C 	0.84820 0.68470 0.86610 -0.09200
H 	H 	0.87750 0.70050 0.85590 0.07700
C 	C 	0.76210 0.63590 0.89580 0.03300
H 	H 	0.73300 0.61930 0.90530 0.04400
C 	C 	0.75830 0.78345 0.83010 -0.11100
H 	H 	0.73680 0.77900 0.85720 0.07700
C 	C 	0.80772 0.61562 0.90749 -0.09700
C 	C 	0.79767 0.75040 0.82290 0.05600
O 	O 	0.85123 0.44761 0.05033 -0.41700
O 	O 	0.76882 0.44835 0.04910 -0.43200
C 	C 	0.80250 0.29450 0.14559 0.03600
C 	C 	0.80960 0.43047 0.06206 0.37100
C 	C 	0.85080 0.35980 0.10670 0.03500
H 	H 	0.88190 0.37300 0.09810 0.03400
C 	C 	0.75880 0.31960 0.12980 -0.10900
H 	H 	0.72750 0.30590 0.13680 0.07000
C 	C 	0.84820 0.31530 0.13390 -0.10600
H 	H 	0.87750 0.29950 0.14410 0.06900
C 	C 	0.76210 0.36410 0.10420 0.03700
H 	H 	0.73300 0.38070 0.09470 0.02900
C 	C 	0.75830 0.21655 0.16990 -0.10600
H 	H 	0.73680 0.22100 0.14280 0.06400
C 	C 	0.80772 0.38438 0.09251 -0.11900
C 	C 	0.79767 0.24960 0.17710 0.04200
O 	O 	0.14877 0.44761 0.94967 -0.38700
O 	O 	0.23118 0.44835 0.95090 -0.39000
C 	C 	0.19750 0.29450 0.85441 0.03400
C 	C 	0.19040 0.43047 0.93794 0.36900
C 	C 	0.14920 0.35980 0.89330 0.03200
H 	H 	0.11810 0.37300 0.90190 0.03400
C 	C 	0.24120 0.31960 0.87020 -0.09800
H 	H 	0.27250 0.30590 0.86320 0.07100
C 	C 	0.15180 0.31530 0.86610 -0.09800
H 	H 	0.12250 0.29950 0.85590 0.06100
C 	C 	0.23790 0.36410 0.89580 0.03500
H 	H 	0.26700 0.38070 0.90530 0.04200
C 	C 	0.24170 0.21655 0.83010 -0.10800
H 	H 	0.26320 0.22100 0.85720 0.07100
C 	C 	0.19228 0.38438 0.90749 -0.10400
C 	C 	0.20233 0.24960 0.82290 0.04400
O 	O 	0.14877 0.55239 0.05033 -0.42900
O 	O 	0.23118 0.55165 0.04910 -0.43300
C 	C 	0.19750 0.70550 0.14559 0.03600
C 	C 	0.19040 0.56953 0.06206 0.37400
C 	C 	0.14920 0.64020 0.10670 0.03600
H 	H 	0.11810 0.62700 0.09810 0.01900
C 	C 	0.24120 0.68040 0.12980 -0.11100
H 	H 	0.27250 0.69410 0.13680 0.07000
C 	C 	0.15180 0.68470 0.13390 -0.11000
H 	H 	0.12250 0.70050 0.14410 0.05900
C 	C 	0.23790 0.63590 0.10420 0.03900
H 	H 	0.26700 0.61930 0.09470 0.02900
C 	C 	0.24170 0.78345 0.16990 -0.10700
H 	H 	0.26320 0.77900 0.14280 0.06500
C 	C 	0.19228 0.61562 0.09251 -0.12500
C 	C 	0.20233 0.75040 0.17710 0.04000
O 	O 	0.94967 0.85123 0.55239 -0.37400
O 	O 	0.95090 0.76882 0.55165 -0.38900
C 	C 	0.85441 0.80250 0.70550 0.03600
C 	C 	0.93794 0.80960 0.56953 0.36600
C 	C 	0.89330 0.85080 0.64020 0.03300
H 	H 	0.90190 0.88190 0.62700 0.05000
C 	C 	0.87020 0.75880 0.68040 -0.09400
H 	H 	0.86320 0.72750 0.69410 0.07100
C 	C 	0.86610 0.84820 0.68470 -0.09200
H 	H 	0.85590 0.87750 0.70050 0.07700
C 	C 	0.89580 0.76210 0.63590 0.03300
H 	H 	0.90530 0.73300 0.61930 0.04400
C 	C 	0.83010 0.75830 0.78345 -0.11100
H 	H 	0.85720 0.73680 0.77900 0.07700
C 	C 	0.90749 0.80772 0.61562 -0.09700
C 	C 	0.82290 0.79767 0.75040 0.05600
O 	O 	0.05033 0.85123 0.44761 -0.41700
O 	O 	0.04910 0.76882 0.44835 -0.43200
C 	C 	0.14559 0.80250 0.29450 0.03600
C 	C 	0.06206 0.80960 0.43047 0.37100
C 	C 	0.10670 0.85080 0.35980 0.03500
H 	H 	0.09810 0.88190 0.37300 0.03400
C 	C 	0.12980 0.75880 0.31960 -0.10900
H 	H 	0.13680 0.72750 0.30590 0.07000
C 	C 	0.13390 0.84820 0.31530 -0.10600
H 	H 	0.14410 0.87750 0.29950 0.06900
C 	C 	0.10420 0.76210 0.36410 0.03700
H 	H 	0.09470 0.73300 0.38070 0.02900
C 	C 	0.16990 0.75830 0.21655 -0.10600
H 	H 	0.14280 0.73680 0.22100 0.06400
C 	C 	0.09251 0.80772 0.38438 -0.11900
C 	C 	0.17710 0.79767 0.24960 0.04200
O 	O 	0.94967 0.14877 0.44761 -0.38700
O 	O 	0.95090 0.23118 0.44835 -0.39000
C 	C 	0.85441 0.19750 0.29450 0.03400
C 	C 	0.93794 0.19040 0.43047 0.36900
C 	C 	0.89330 0.14920 0.35980 0.03200
H 	H 	0.90190 0.11810 0.37300 0.03400
C 	C 	0.87020 0.24120 0.31960 -0.09800
H 	H 	0.86320 0.27250 0.30590 0.07100
C 	C 	0.86610 0.15180 0.31530 -0.09800
H 	H 	0.85590 0.12250 0.29950 0.06100
C 	C 	0.89580 0.23790 0.36410 0.03500
H 	H 	0.90530 0.26700 0.38070 0.04200
C 	C 	0.83010 0.24170 0.21655 -0.10800
H 	H 	0.85720 0.26320 0.22100 0.07100
C 	C 	0.90749 0.19228 0.38438 -0.10400
C 	C 	0.82290 0.20233 0.24960 0.04400
O 	O 	0.05033 0.14877 0.55239 -0.42900
O 	O 	0.04910 0.23118 0.55165 -0.43300
C 	C 	0.14559 0.19750 0.70550 0.03600
C 	C 	0.06206 0.19040 0.56953 0.37400
C 	C 	0.10670 0.14920 0.64020 0.03600
H 	H 	0.09810 0.11810 0.62700 0.01900
C 	C 	0.12980 0.24120 0.68040 -0.11100
H 	H 	0.13680 0.27250 0.69410 0.07000
C 	C 	0.13390 0.15180 0.68470 -0.11000
H 	H 	0.14410 0.12250 0.70050 0.05900
C 	C 	0.10420 0.23790 0.63590 0.03900
H 	H 	0.09470 0.26700 0.61930 0.02900
C 	C 	0.16990 0.24170 0.78345 -0.10700
H 	H 	0.14280 0.26320 0.77900 0.06500
C 	C 	0.09251 0.19228 0.61562 -0.12500
C 	C 	0.17710 0.20233 0.75040 0.04000
Cu	Cu	0.50000 0.00000 0.14412 0.87400
Cu	Cu	0.50000 -0.00000 0.24011 0.88200
Cu	Cu	0.50000 0.00000 0.85588 0.88000
Cu	Cu	0.50000 0.00000 0.75989 0.88100
Cu	Cu	0.14412 0.50000 -0.00000 0.87400
Cu	Cu	0.24011 0.50000 -0.00000 0.88200
Cu	Cu	0.85588 0.50000 -0.00000 0.88000
Cu	Cu	0.75989 0.50000 -0.00000 0.88100
Cu	Cu	0.00000 0.14412 0.50000 0.87400
Cu	Cu	-0.00000 0.24011 0.50000 0.88200
Cu	Cu	-0.00000 0.85588 0.50000 0.88000
Cu	Cu	-0.00000 0.75989 0.50000 0.88100
O 	O 	0.94761 0.55033 0.64877 -0.37900
O 	O 	0.94835 0.54910 0.73118 -0.38800
C 	C 	0.79450 0.64559 0.69750 0.03100
C 	C 	0.93047 0.56206 0.69040 0.36500
C 	C 	0.85980 0.60670 0.64920 0.02800
H 	H 	0.87300 0.59810 0.61810 0.04000
C 	C 	0.81960 0.62980 0.74120 -0.09600
H 	H 	0.80590 0.63680 0.77250 0.06900
C 	C 	0.81530 0.63390 0.65180 -0.09600
H 	H 	0.79950 0.64410 0.62250 0.06500
C 	C 	0.86410 0.60420 0.73790 0.03000
H 	H 	0.88070 0.59470 0.76700 0.04300
C 	C 	0.71655 0.66990 0.74170 -0.11100
H 	H 	0.72100 0.64280 0.76320 0.07000
C 	C 	0.88438 0.59251 0.69228 -0.10000
C 	C 	0.74960 0.67710 0.70233 0.04800
O 	O 	0.05239 0.44967 0.64877 -0.42300
O 	O 	0.05165 0.45090 0.73118 -0.43200
C 	C 	0.20550 0.35441 0.69750 0.03800
C 	C 	0.06953 0.43794 0.69040 0.37500
C 	C 	0.14020 0.39330 0.64920 0.03800
H 	H 	0.12700 0.40190 0.61810 0.02800
C 	C 	0.18040 0.37020 0.74120 -0.10800
H 	H 	0.19410 0.36320 0.77250 0.07100
C 	C 	0.18470 0.36610 0.65180 -0.10600
H 	H 	0.20050 0.35590 0.62250 0.06700
C 	C 	0.13590 0.39580 0.73790 0.04000
H 	H 	0.11930 0.40530 0.76700 0.03100
C 	C 	0.28345 0.33010 0.74170 -0.10700
H 	H 	0.27900 0.35720 0.76320 0.06900
C 	C 	0.11562 0.40749 0.69228 -0.12100
C 	C 	0.25040 0.32290 0.70233 0.04400
O 	O 	0.05239 0.55033 0.35123 -0.42400
O 	O 	0.05165 0.54910 0.26882 -0.43400
C 	C 	0.20550 0.64559 0.30250 0.03900
C 	C 	0.06953 0.56206 0.30960 0.37500
C 	C 	0.14020 0.60670 0.35080 0.03900
H 	H 	0.12700 0.59810 0.38190 0.02800
C 	C 	0.18040 0.62980 0.25880 -0.10900
H 	H 	0.19410 0.63680 0.22750 0.07200
C 	C 	0.18470 0.63390 0.34820 -0.10700
H 	H 	0.20050 0.64410 0.37750 0.06700
C 	C 	0.13590 0.60420 0.26210 0.04200
H 	H 	0.11930 0.59470 0.23300 0.02900
C 	C 	0.28345 0.66990 0.25830 -0.10600
H 	H 	0.27900 0.64280 0.23680 0.06800
C 	C 	0.11562 0.59251 0.30772 -0.12200
C 	C 	0.25040 0.67710 0.29767 0.04300
O 	O 	0.94761 0.44967 0.35123 -0.38000
O 	O 	0.94835 0.45090 0.26882 -0.39100
C 	C 	0.79450 0.35441 0.30250 0.03300
C 	C 	0.93047 0.43794 0.30960 0.36600
C 	C 	0.85980 0.39330 0.35080 0.03000
H 	H 	0.87300 0.40190 0.38190 0.04000
C 	C 	0.81960 0.37020 0.25880 -0.09900
H 	H 	0.80590 0.36320 0.22750 0.07000
C 	C 	0.81530 0.36610 0.34820 -0.09700
H 	H 	0.79950 0.35590 0.37750 0.06600
C 	C 	0.86410 0.39580 0.26210 0.03200
H 	H 	0.88070 0.40530 0.23300 0.04100
C 	C 	0.71655 0.33010 0.25830 -0.10700
H 	H 	0.72100 0.35720 0.23680 0.06900
C 	C 	0.88438 0.40749 0.30772 -0.10300
C 	C 	0.74960 0.32290 0.29767 0.04600
O 	O 	0.64877 0.94761 0.55033 -0.37900
O 	O 	0.73118 0.94835 0.54910 -0.38800
C 	C 	0.69750 0.79450 0.64559 0.03100
C 	C 	0.69040 0.93047 0.56206 0.36500
C 	C 	0.64920 0.85980 0.60670 0.02800
H 	H 	0.61810 0.87300 0.59810 0.04000
C 	C 	0.74120 0.81960 0.62980 -0.09600
H 	H 	0.77250 0.80590 0.63680 0.06900
C 	C 	0.65180 0.81530 0.63390 -0.09600
H 	H 	0.62250 0.79950 0.64410 0.06500
C 	C 	0.73790 0.86410 0.60420 0.03000
H 	H 	0.76700 0.88070 0.59470 0.04300
C 	C 	0.74170 0.71655 0.66990 -0.11100
H 	H 	0.76320 0.72100 0.64280 0.07000
C 	C 	0.69228 0.88438 0.59251 -0.10000
C 	C 	0.70233 0.74960 0.67710 0.04800
O 	O 	0.64877 0.05239 0.44967 -0.42300
O 	O 	0.73118 0.05165 0.45090 -0.43200
C 	C 	0.69750 0.20550 0.35441 0.03800
C 	C 	0.69040 0.06953 0.43794 0.37500
C 	C 	0.64920 0.14020 0.39330 0.03800
H 	H 	0.61810 0.12700 0.40190 0.02800
C 	C 	0.74120 0.18040 0.37020 -0.10800
H 	H 	0.77250 0.19410 0.36320 0.07100
C 	C 	0.65180 0.18470 0.36610 -0.10600
H 	H 	0.62250 0.20050 0.35590 0.06700
C 	C 	0.73790 0.13590 0.39580 0.04000
H 	H 	0.76700 0.11930 0.40530 0.03100
C 	C 	0.74170 0.28345 0.33010 -0.10700
H 	H 	0.76320 0.27900 0.35720 0.06900
C 	C 	0.69228 0.11562 0.40749 -0.12100
C 	C 	0.70233 0.25040 0.32290 0.04400
O 	O 	0.35123 0.05239 0.55033 -0.42400
O 	O 	0.26882 0.05165 0.54910 -0.43400
C 	C 	0.30250 0.20550 0.64559 0.03900
C 	C 	0.30960 0.06953 0.56206 0.37500
C 	C 	0.35080 0.14020 0.60670 0.03900
H 	H 	0.38190 0.12700 0.59810 0.02800
C 	C 	0.25880 0.18040 0.62980 -0.10900
H 	H 	0.22750 0.19410 0.63680 0.07200
C 	C 	0.34820 0.18470 0.63390 -0.10700
H 	H 	0.37750 0.20050 0.64410 0.06700
C 	C 	0.26210 0.13590 0.60420 0.04200
H 	H 	0.23300 0.11930 0.59470 0.02900
C 	C 	0.25830 0.28345 0.66990 -0.10600
H 	H 	0.23680 0.27900 0.64280 0.06800
C 	C 	0.30772 0.11562 0.59251 -0.12200
C 	C 	0.29767 0.25040 0.67710 0.04300
O 	O 	0.35123 0.94761 0.44967 -0.38000
O 	O 	0.26882 0.94835 0.45090 -0.39100
C 	C 	0.30250 0.79450 0.35441 0.03300
C 	C 	0.30960 0.93047 0.43794 0.36600
C 	C 	0.35080 0.85980 0.39330 0.03000
H 	H 	0.38190 0.87300 0.40190 0.04000
C 	C 	0.25880 0.81960 0.37020 -0.09900
H 	H 	0.22750 0.80590 0.36320 0.07000
C 	C 	0.34820 0.81530 0.36610 -0.09700
H 	H 	0.37750 0.79950 0.35590 0.06600
C 	C 	0.26210 0.86410 0.39580 0.03200
H 	H 	0.23300 0.88070 0.40530 0.04100
C 	C 	0.25830 0.71655 0.33010 -0.10700
H 	H 	0.23680 0.72100 0.35720 0.06900
C 	C 	0.30772 0.88438 0.40749 -0.10300
C 	C 	0.29767 0.74960 0.32290 0.04600
O 	O 	0.55033 0.64877 0.94761 -0.37900
O 	O 	0.54910 0.73118 0.94835 -0.38800
C 	C 	0.64559 0.69750 0.79450 0.03100
C 	C 	0.56206 0.69040 0.93047 0.36500
C 	C 	0.60670 0.64920 0.85980 0.02800
H 	H 	0.59810 0.61810 0.87300 0.04000
C 	C 	0.62980 0.74120 0.81960 -0.09600
H 	H 	0.63680 0.77250 0.80590 0.06900
C 	C 	0.63390 0.65180 0.81530 -0.09600
H 	H 	0.64410 0.62250 0.79950 0.06500
C 	C 	0.60420 0.73790 0.86410 0.03000
H 	H 	0.59470 0.76700 0.88070 0.04300
C 	C 	0.66990 0.74170 0.71655 -0.11100
H 	H 	0.64280 0.76320 0.72100 0.07000
C 	C 	0.59251 0.69228 0.88438 -0.10000
C 	C 	0.67710 0.70233 0.74960 0.04800
O 	O 	0.44967 0.64877 0.05239 -0.42300
O 	O 	0.45090 0.73118 0.05165 -0.43200
C 	C 	0.35441 0.69750 0.20550 0.03800
C 	C 	0.43794 0.69040 0.06953 0.37500
C 	C 	0.39330 0.64920 0.14020 0.03800
H 	H 	0.40190 0.61810 0.12700 0.02800
C 	C 	0.37020 0.74120 0.18040 -0.10800
H 	H 	0.36320 0.77250 0.19410 0.07100
C 	C 	0.36610 0.65180 0.18470 -0.10600
H 	H 	0.35590 0.62250 0.20050 0.06700
C 	C 	0.39580 0.73790 0.13590 0.04000
H 	H 	0.40530 0.76700 0.11930 0.03100
C 	C 	0.33010 0.74170 0.28345 -0.10700
H 	H 	0.35720 0.76320 0.27900 0.06900
C 	C 	0.40749 0.69228 0.11562 -0.12100
C 	C 	0.32290 0.70233 0.25040 0.04400
O 	O 	0.55033 0.35123 0.05239 -0.42400
O 	O 	0.54910 0.26882 0.05165 -0.43400
C 	C 	0.64559 0.30250 0.20550 0.03900
C 	C 	0.56206 0.30960 0.06953 0.37500
C 	C 	0.60670 0.35080 0.14020 0.03900
H 	H 	0.59810 0.38190 0.12700 0.02800
C 	C 	0.62980 0.25880 0.18040 -0.10900
H 	H 	0.63680 0.22750 0.19410 0.07200
C 	C 	0.63390 0.34820 0.18470 -0.10700
H 	H 	0.64410 0.37750 0.20050 0.06700
C 	C 	0.60420 0.26210 0.13590 0.04200
H 	H 	0.59470 0.23300 0.11930 0.02900
C 	C 	0.66990 0.25830 0.28345 -0.10600
H 	H 	0.64280 0.23680 0.27900 0.06800
C 	C 	0.59251 0.30772 0.11562 -0.12200
C 	C 	0.67710 0.29767 0.25040 0.04300
O 	O 	0.44967 0.35123 0.94761 -0.38000
O 	O 	0.45090 0.26882 0.94835 -0.39100
C 	C 	0.35441 0.30250 0.79450 0.03300
C 	C 	0.43794 0.30960 0.93047 0.36600
C 	C 	0.39330 0.35080 0.85980 0.03000
H 	H 	0.40190 0.38190 0.87300 0.04000
C 	C 	0.37020 0.25880 0.81960 -0.09900
H 	H 	0.36320 0.22750 0.80590 0.07000
C 	C 	0.36610 0.34820 0.81530 -0.09700
H 	H 	0.35590 0.37750 0.79950 0.06600
C 	C 	0.39580 0.26210 0.86410 0.03200
H 	H 	0.40530 0.23300 0.88070 0.04100
C 	C 	0.33010 0.25830 0.71655 -0.10700
H 	H 	0.35720 0.23680 0.72100 0.06900
C 	C 	0.40749 0.30772 0.88438 -0.10300
C 	C 	0.32290 0.29767 0.74960 0.04600
O 	O 	0.05239 0.44967 0.35123 -0.42400
O 	O 	0.05165 0.45090 0.26882 -0.43400
C 	C 	0.20550 0.35441 0.30250 0.04000
C 	C 	0.06953 0.43794 0.30960 0.37500
C 	C 	0.14020 0.39330 0.35080 0.03900
H 	H 	0.12700 0.40190 0.38190 0.02800
C 	C 	0.18040 0.37020 0.25880 -0.11000
H 	H 	0.19410 0.36320 0.22750 0.07300
C 	C 	0.18470 0.36610 0.34820 -0.10800
H 	H 	0.20050 0.35590 0.37750 0.06700
C 	C 	0.13590 0.39580 0.26210 0.04200
H 	H 	0.11930 0.40530 0.23300 0.02900
C 	C 	0.28345 0.33010 0.25830 -0.10500
H 	H 	0.27900 0.35720 0.23680 0.06800
C 	C 	0.11562 0.40749 0.30772 -0.12300
C 	C 	0.25040 0.32290 0.29767 0.04200
O 	O 	0.94761 0.55033 0.35123 -0.38000
O 	O 	0.94835 0.54910 0.26882 -0.39000
C 	C 	0.79450 0.64559 0.30250 0.03200
C 	C 	0.93047 0.56206 0.30960 0.36600
C 	C 	0.85980 0.60670 0.35080 0.03000
H 	H 	0.87300 0.59810 0.38190 0.04000
C 	C 	0.81960 0.62980 0.25880 -0.09800
H 	H 	0.80590 0.63680 0.22750 0.07000
C 	C 	0.81530 0.63390 0.34820 -0.09700
H 	H 	0.79950 0.64410 0.37750 0.06600
C 	C 	0.86410 0.60420 0.26210 0.03200
H 	H 	0.88070 0.59470 0.23300 0.04100
C 	C 	0.71655 0.66990 0.25830 -0.10900
H 	H 	0.72100 0.64280 0.23680 0.06900
C 	C 	0.88438 0.59251 0.30772 -0.10200
C 	C 	0.74960 0.67710 0.29767 0.04700
O 	O 	0.94761 0.44967 0.64877 -0.38000
O 	O 	0.94835 0.45090 0.73118 -0.38800
C 	C 	0.79450 0.35441 0.69750 0.03200
C 	C 	0.93047 0.43794 0.69040 0.36500
C 	C 	0.85980 0.39330 0.64920 0.02900
H 	H 	0.87300 0.40190 0.61810 0.04000
C 	C 	0.81960 0.37020 0.74120 -0.09700
H 	H 	0.80590 0.36320 0.77250 0.06900
C 	C 	0.81530 0.36610 0.65180 -0.09600
H 	H 	0.79950 0.35590 0.62250 0.06500
C 	C 	0.86410 0.39580 0.73790 0.03000
H 	H 	0.88070 0.40530 0.76700 0.04300
C 	C 	0.71655 0.33010 0.74170 -0.11000
H 	H 	0.72100 0.35720 0.76320 0.07000
C 	C 	0.88438 0.40749 0.69228 -0.10100
C 	C 	0.74960 0.32290 0.70233 0.04700
O 	O 	0.05239 0.55033 0.64877 -0.42300
O 	O 	0.05165 0.54910 0.73118 -0.43100
C 	C 	0.20550 0.64559 0.69750 0.03700
C 	C 	0.06953 0.56206 0.69040 0.37400
C 	C 	0.14020 0.60670 0.64920 0.03800
H 	H 	0.12700 0.59810 0.61810 0.02800
C 	C 	0.18040 0.62980 0.74120 -0.10700
H 	H 	0.19410 0.63680 0.77250 0.07100
C 	C 	0.18470 0.63390 0.65180 -0.10600
H 	H 	0.20050 0.64410 0.62250 0.06700
C 	C 	0.13590 0.60420 0.73790 0.04000
H 	H 	0.11930 0.59470 0.76700 0.03100
C 	C 	0.28345 0.66990 0.74170 -0.10900
H 	H 	0.27900 0.64280 0.76320 0.06900
C 	C 	0.11562 0.59251 0.69228 -0.12000
C 	C 	0.25040 0.67710 0.70233 0.04500
O 	O 	0.35123 0.05239 0.44967 -0.42400
O 	O 	0.26882 0.05165 0.45090 -0.43400
C 	C 	0.30250 0.20550 0.35441 0.04000
C 	C 	0.30960 0.06953 0.43794 0.37500
C 	C 	0.35080 0.14020 0.39330 0.03900
H 	H 	0.38190 0.12700 0.40190 0.02800
C 	C 	0.25880 0.18040 0.37020 -0.11000
H 	H 	0.22750 0.19410 0.36320 0.07300
C 	C 	0.34820 0.18470 0.36610 -0.10800
H 	H 	0.37750 0.20050 0.35590 0.06700
C 	C 	0.26210 0.13590 0.39580 0.04200
H 	H 	0.23300 0.11930 0.40530 0.02900
C 	C 	0.25830 0.28345 0.33010 -0.10500
H 	H 	0.23680 0.27900 0.35720 0.06800
C 	C 	0.30772 0.11562 0.40749 -0.12300
C 	C 	0.29767 0.25040 0.32290 0.04200
O 	O 	0.35123 0.94761 0.55033 -0.38000
O 	O 	0.26882 0.94835 0.54910 -0.39000
C 	C 	0.30250 0.79450 0.64559 0.03200
C 	C 	0.30960 0.93047 0.56206 0.36600
C 	C 	0.35080 0.85980 0.60670 0.03000
H 	H 	0.38190 0.87300 0.59810 0.04000
C 	C 	0.25880 0.81960 0.62980 -0.09800
H 	H 	0.22750 0.80590 0.63680 0.07000
C 	C 	0.34820 0.81530 0.63390 -0.09700
H 	H 	0.37750 0.79950 0.64410 0.06600
C 	C 	0.26210 0.86410 0.60420 0.03200
H 	H 	0.23300 0.88070 0.59470 0.04100
C 	C 	0.25830 0.71655 0.66990 -0.10900
H 	H 	0.23680 0.72100 0.64280 0.06900
C 	C 	0.30772 0.88438 0.59251 -0.10200
C 	C 	0.29767 0.74960 0.67710 0.04700
O 	O 	0.64877 0.94761 0.44967 -0.38000
O 	O 	0.73118 0.94835 0.45090 -0.38800
C 	C 	0.69750 0.79450 0.35441 0.03200
C 	C 	0.69040 0.93047 0.43794 0.36500
C 	C 	0.64920 0.85980 0.39330 0.02900
H 	H 	0.61810 0.87300 0.40190 0.04000
C 	C 	0.74120 0.81960 0.37020 -0.09700
H 	H 	0.77250 0.80590 0.36320 0.06900
C 	C 	0.65180 0.81530 0.36610 -0.09600
H 	H 	0.62250 0.79950 0.35590 0.06500
C 	C 	0.73790 0.86410 0.39580 0.03000
H 	H 	0.76700 0.88070 0.40530 0.04300
C 	C 	0.74170 0.71655 0.33010 -0.11000
H 	H 	0.76320 0.72100 0.35720 0.07000
C 	C 	0.69228 0.88438 0.40749 -0.10100
C 	C 	0.70233 0.74960 0.32290 0.04700
O 	O 	0.64877 0.05239 0.55033 -0.42300
O 	O 	0.73118 0.05165 0.54910 -0.43100
C 	C 	0.69750 0.20550 0.64559 0.03700
C 	C 	0.69040 0.06953 0.56206 0.37400
C 	C 	0.64920 0.14020 0.60670 0.03800
H 	H 	0.61810 0.12700 0.59810 0.02800
C 	C 	0.74120 0.18040 0.62980 -0.10700
H 	H 	0.77250 0.19410 0.63680 0.07100
C 	C 	0.65180 0.18470 0.63390 -0.10600
H 	H 	0.62250 0.20050 0.64410 0.06700
C 	C 	0.73790 0.13590 0.60420 0.04000
H 	H 	0.76700 0.11930 0.59470 0.03100
C 	C 	0.74170 0.28345 0.66990 -0.10900
H 	H 	0.76320 0.27900 0.64280 0.06900
C 	C 	0.69228 0.11562 0.59251 -0.12000
C 	C 	0.70233 0.25040 0.67710 0.04500
O 	O 	0.44967 0.35123 0.05239 -0.42400
O 	O 	0.45090 0.26882 0.05165 -0.43400
C 	C 	0.35441 0.30250 0.20550 0.04000
C 	C 	0.43794 0.30960 0.06953 0.37500
C 	C 	0.39330 0.35080 0.14020 0.03900
H 	H 	0.40190 0.38190 0.12700 0.02800
C 	C 	0.37020 0.25880 0.18040 -0.11000
H 	H 	0.36320 0.22750 0.19410 0.07300
C 	C 	0.36610 0.34820 0.18470 -0.10800
H 	H 	0.35590 0.37750 0.20050 0.06700
C 	C 	0.39580 0.26210 0.13590 0.04200
H 	H 	0.40530 0.23300 0.11930 0.02900
C 	C 	0.33010 0.25830 0.28345 -0.10500
H 	H 	0.35720 0.23680 0.27900 0.06800
C 	C 	0.40749 0.30772 0.11562 -0.12300
C 	C 	0.32290 0.29767 0.25040 0.04200
O 	O 	0.55033 0.35123 0.94761 -0.38000
O 	O 	0.54910 0.26882 0.94835 -0.39000
C 	C 	0.64559 0.30250 0.79450 0.03200
C 	C 	0.56206 0.30960 0.93047 0.36600
C 	C 	0.60670 0.35080 0.85980 0.03000
H 	H 	0.59810 0.38190 0.87300 0.04000
C 	C 	0.62980 0.25880 0.81960 -0.09800
H 	H 	0.63680 0.22750 0.80590 0.07000
C 	C 	0.63390 0.34820 0.81530 -0.09700
H 	H 	0.64410 0.37750 0.79950 0.06600
C 	C 	0.60420 0.26210 0.86410 0.03200
H 	H 	0.59470 0.23300 0.88070 0.04100
C 	C 	0.66990 0.25830 0.71655 -0.10900
H 	H 	0.64280 0.23680 0.72100 0.06900
C 	C 	0.59251 0.30772 0.88438 -0.10200
C 	C 	0.67710 0.29767 0.74960 0.04700
O 	O 	0.44967 0.64877 0.94761 -0.38000
O 	O 	0.45090 0.73118 0.94835 -0.38800
C 	C 	0.35441 0.69750 0.79450 0.03200
C 	C 	0.43794 0.69040 0.93047 0.36500
C 	C 	0.39330 0.64920 0.85980 0.02900
H 	H 	0.40190 0.61810 0.87300 0.04000
C 	C 	0.37020 0.74120 0.81960 -0.09700
H 	H 	0.36320 0.77250 0.80590 0.06900
C 	C 	0.36610 0.65180 0.81530 -0.09600
H 	H 	0.35590 0.62250 0.79950 0.06500
C 	C 	0.39580 0.73790 0.86410 0.03000
H 	H 	0.40530 0.76700 0.88070 0.04300
C 	C 	0.33010 0.74170 0.71655 -0.11000
H 	H 	0.35720 0.76320 0.72100 0.07000
C 	C 	0.40749 0.69228 0.88438 -0.10100
C 	C 	0.32290 0.70233 0.74960 0.04700
O 	O 	0.55033 0.64877 0.05239 -0.42300
O 	O 	0.54910 0.73118 0.05165 -0.43100
C 	C 	0.64559 0.69750 0.20550 0.03700
C 	C 	0.56206 0.69040 0.06953 0.37400
C 	C 	0.60670 0.64920 0.14020 0.03800
H 	H 	0.59810 0.61810 0.12700 0.02800
C 	C 	0.62980 0.74120 0.18040 -0.10700
H 	H 	0.63680 0.77250 0.19410 0.07100
C 	C 	0.63390 0.65180 0.18470 -0.10600
H 	H 	0.64410 0.62250 0.20050 0.06700
C 	C 	0.60420 0.73790 0.13590 0.04000
H 	H 	0.59470 0.76700 0.11930 0.03100
C 	C 	0.66990 0.74170 0.28345 -0.10900
H 	H 	0.64280 0.76320 0.27900 0.06900
C 	C 	0.59251 0.69228 0.11562 -0.12000
C 	C 	0.67710 0.70233 0.25040 0.04500
Cu	Cu	-0.00000 0.50000 0.64412 0.87700
Cu	Cu	-0.00000 0.50000 0.74011 0.88200
Cu	Cu	-0.00000 0.50000 0.35588 0.87700
Cu	Cu	-0.00000 0.50000 0.25989 0.88100
Cu	Cu	0.64412 0.00000 0.50000 0.87700
Cu	Cu	0.74011 0.00000 0.50000 0.88200
Cu	Cu	0.35588 0.00000 0.50000 0.87700
Cu	Cu	0.25989 0.00000 0.50000 0.88100
Cu	Cu	0.50000 0.64412 -0.00000 0.87700
Cu	Cu	0.50000 0.74011 -0.00000 0.88200
Cu	Cu	0.50000 0.35588 -0.00000 0.87700
Cu	Cu	0.50000 0.25989 -0.00000 0.88100
