data_crystal

_cell_length_a 26.97700
_cell_length_b 26.97700
_cell_length_c 26.97700
_cell_angle_alpha 90.00000
_cell_angle_beta  90.00000
_cell_angle_gamma 90.00000

_symmetry_space_group_name_	'P 1'
_symmetry_space_group_name_H-M	'P 1'

loop_
_symmetry_equiv_pos_as_xyz
  x,y,z

loop_
_atom_site_label
_atom_site_type_symbol
_atom_site_fract_x
_atom_site_fract_y
_atom_site_fract_z
_atom_site_charge
O 	O 	0.44763 0.05023 0.14886 -0.42900
O 	O 	0.44845 0.04926 0.23116 -0.43300
C 	C 	0.29460 0.14551 0.19780 0.03600
C 	C 	0.43057 0.06203 0.19050 0.37600
C 	C 	0.36000 0.10690 0.14930 0.03600
H 	H 	0.37330 0.09840 0.11830 0.01900
C 	C 	0.31960 0.12990 0.24120 -0.11100
H 	H 	0.30600 0.13710 0.27250 0.07100
C 	C 	0.31540 0.13410 0.15180 -0.11000
H 	H 	0.29980 0.14460 0.12250 0.05700
C 	C 	0.36400 0.10430 0.23800 0.03900
H 	H 	0.38050 0.09470 0.26720 0.02900
C 	C 	0.21668 0.16990 0.24176 -0.10600
H 	H 	0.22130 0.14300 0.26330 0.06400
C 	C 	0.38425 0.09268 0.19225 -0.12300
C 	C 	0.24951 0.17705 0.20234 0.03700
O 	O 	0.55237 0.94977 0.14886 -0.38600
O 	O 	0.55155 0.95074 0.23116 -0.39000
C 	C 	0.70540 0.85449 0.19780 0.03500
C 	C 	0.56943 0.93797 0.19050 0.37100
C 	C 	0.64000 0.89310 0.14930 0.03300
H 	H 	0.62670 0.90160 0.11830 0.03600
C 	C 	0.68040 0.87010 0.24120 -0.09600
H 	H 	0.69400 0.86290 0.27250 0.07200
C 	C 	0.68460 0.86590 0.15180 -0.09600
H 	H 	0.70020 0.85540 0.12250 0.06300
C 	C 	0.63600 0.89570 0.23800 0.03400
H 	H 	0.61950 0.90530 0.26720 0.04300
C 	C 	0.78332 0.83010 0.24176 -0.11200
H 	H 	0.77870 0.85700 0.26330 0.07600
C 	C 	0.61575 0.90732 0.19225 -0.10200
C 	C 	0.75049 0.82295 0.20234 0.05100
O 	O 	0.55237 0.05023 0.85114 -0.41700
O 	O 	0.55155 0.04926 0.76884 -0.43300
C 	C 	0.70540 0.14551 0.80220 0.03600
C 	C 	0.56943 0.06203 0.80950 0.37200
C 	C 	0.64000 0.10690 0.85070 0.03500
H 	H 	0.62670 0.09840 0.88170 0.03500
C 	C 	0.68040 0.12990 0.75880 -0.10800
H 	H 	0.69400 0.13710 0.72750 0.07000
C 	C 	0.68460 0.13410 0.84820 -0.10400
H 	H 	0.70020 0.14460 0.87750 0.07200
C 	C 	0.63600 0.10430 0.76200 0.03600
H 	H 	0.61950 0.09470 0.73280 0.03000
C 	C 	0.78332 0.16990 0.75824 -0.11100
H 	H 	0.77870 0.14300 0.73670 0.06800
C 	C 	0.61575 0.09268 0.80775 -0.11700
C 	C 	0.75049 0.17705 0.79766 0.04800
O 	O 	0.44763 0.94977 0.85114 -0.37500
O 	O 	0.44845 0.95074 0.76884 -0.39000
C 	C 	0.29460 0.85449 0.80220 0.03400
C 	C 	0.43057 0.93797 0.80950 0.36700
C 	C 	0.36000 0.89310 0.85070 0.03000
H 	H 	0.37330 0.90160 0.88170 0.05000
C 	C 	0.31960 0.87010 0.75880 -0.09500
H 	H 	0.30600 0.86290 0.72750 0.07100
C 	C 	0.31540 0.86590 0.84820 -0.09200
H 	H 	0.29980 0.85540 0.87750 0.07400
C 	C 	0.36400 0.89570 0.76200 0.03200
H 	H 	0.38050 0.90530 0.73280 0.04400
C 	C 	0.21668 0.83010 0.75824 -0.11100
H 	H 	0.22130 0.85700 0.73670 0.07500
C 	C 	0.38425 0.90732 0.80775 -0.09600
C 	C 	0.24951 0.82295 0.79766 0.05300
O 	O 	0.14886 0.44763 0.05023 -0.43000
O 	O 	0.23116 0.44845 0.04926 -0.43400
C 	C 	0.19780 0.29460 0.14551 0.03500
C 	C 	0.19050 0.43057 0.06203 0.37500
C 	C 	0.14930 0.36000 0.10690 0.03500
H 	H 	0.11830 0.37330 0.09840 0.01800
C 	C 	0.24120 0.31960 0.12990 -0.11200
H 	H 	0.27250 0.30600 0.13710 0.07000
C 	C 	0.15180 0.31540 0.13410 -0.11100
H 	H 	0.12250 0.29980 0.14460 0.05600
C 	C 	0.23800 0.36400 0.10430 0.03800
H 	H 	0.26720 0.38050 0.09470 0.02800
C 	C 	0.24176 0.21668 0.16990 -0.10700
H 	H 	0.26330 0.22130 0.14300 0.06300
C 	C 	0.19225 0.38425 0.09268 -0.12400
C 	C 	0.20234 0.24951 0.17705 0.03600
O 	O 	0.14886 0.55237 0.94977 -0.38700
O 	O 	0.23116 0.55155 0.95074 -0.39100
C 	C 	0.19780 0.70540 0.85449 0.03400
C 	C 	0.19050 0.56943 0.93797 0.37000
C 	C 	0.14930 0.64000 0.89310 0.03200
H 	H 	0.11830 0.62670 0.90160 0.03500
C 	C 	0.24120 0.68040 0.87010 -0.09700
H 	H 	0.27250 0.69400 0.86290 0.07100
C 	C 	0.15180 0.68460 0.86590 -0.09600
H 	H 	0.12250 0.70020 0.85540 0.06300
C 	C 	0.23800 0.63600 0.89570 0.03400
H 	H 	0.26720 0.61950 0.90530 0.04300
C 	C 	0.24176 0.78332 0.83010 -0.11200
H 	H 	0.26330 0.77870 0.85700 0.07600
C 	C 	0.19225 0.61575 0.90732 -0.10200
C 	C 	0.20234 0.75049 0.82295 0.05100
O 	O 	0.85114 0.55237 0.05023 -0.41700
O 	O 	0.76884 0.55155 0.04926 -0.43300
C 	C 	0.80220 0.70540 0.14551 0.03600
C 	C 	0.80950 0.56943 0.06203 0.37200
C 	C 	0.85070 0.64000 0.10690 0.03500
H 	H 	0.88170 0.62670 0.09840 0.03500
C 	C 	0.75880 0.68040 0.12990 -0.10800
H 	H 	0.72750 0.69400 0.13710 0.07000
C 	C 	0.84820 0.68460 0.13410 -0.10400
H 	H 	0.87750 0.70020 0.14460 0.07200
C 	C 	0.76200 0.63600 0.10430 0.03600
H 	H 	0.73280 0.61950 0.09470 0.03000
C 	C 	0.75824 0.78332 0.16990 -0.11100
H 	H 	0.73670 0.77870 0.14300 0.06800
C 	C 	0.80775 0.61575 0.09268 -0.11700
C 	C 	0.79766 0.75049 0.17705 0.04800
O 	O 	0.85114 0.44763 0.94977 -0.37500
O 	O 	0.76884 0.44845 0.95074 -0.39000
C 	C 	0.80220 0.29460 0.85449 0.03400
C 	C 	0.80950 0.43057 0.93797 0.36700
C 	C 	0.85070 0.36000 0.89310 0.03000
H 	H 	0.88170 0.37330 0.90160 0.05000
C 	C 	0.75880 0.31960 0.87010 -0.09500
H 	H 	0.72750 0.30600 0.86290 0.07100
C 	C 	0.84820 0.31540 0.86590 -0.09200
H 	H 	0.87750 0.29980 0.85540 0.07400
C 	C 	0.76200 0.36400 0.89570 0.03200
H 	H 	0.73280 0.38050 0.90530 0.04400
C 	C 	0.75824 0.21668 0.83010 -0.11100
H 	H 	0.73670 0.22130 0.85700 0.07500
C 	C 	0.80775 0.38425 0.90732 -0.09600
C 	C 	0.79766 0.24951 0.82295 0.05300
O 	O 	0.05023 0.14886 0.44763 -0.43000
O 	O 	0.04926 0.23116 0.44845 -0.43400
C 	C 	0.14551 0.19780 0.29460 0.03500
C 	C 	0.06203 0.19050 0.43057 0.37500
C 	C 	0.10690 0.14930 0.36000 0.03500
H 	H 	0.09840 0.11830 0.37330 0.01800
C 	C 	0.12990 0.24120 0.31960 -0.11200
H 	H 	0.13710 0.27250 0.30600 0.07000
C 	C 	0.13410 0.15180 0.31540 -0.11100
H 	H 	0.14460 0.12250 0.29980 0.05600
C 	C 	0.10430 0.23800 0.36400 0.03800
H 	H 	0.09470 0.26720 0.38050 0.02800
C 	C 	0.16990 0.24176 0.21668 -0.10700
H 	H 	0.14300 0.26330 0.22130 0.06300
C 	C 	0.09268 0.19225 0.38425 -0.12400
C 	C 	0.17705 0.20234 0.24951 0.03600
O 	O 	0.94977 0.14886 0.55237 -0.38700
O 	O 	0.95074 0.23116 0.55155 -0.39100
C 	C 	0.85449 0.19780 0.70540 0.03400
C 	C 	0.93797 0.19050 0.56943 0.37000
C 	C 	0.89310 0.14930 0.64000 0.03200
H 	H 	0.90160 0.11830 0.62670 0.03500
C 	C 	0.87010 0.24120 0.68040 -0.09700
H 	H 	0.86290 0.27250 0.69400 0.07100
C 	C 	0.86590 0.15180 0.68460 -0.09600
H 	H 	0.85540 0.12250 0.70020 0.06300
C 	C 	0.89570 0.23800 0.63600 0.03400
H 	H 	0.90530 0.26720 0.61950 0.04300
C 	C 	0.83010 0.24176 0.78332 -0.11200
H 	H 	0.85700 0.26330 0.77870 0.07600
C 	C 	0.90732 0.19225 0.61575 -0.10200
C 	C 	0.82295 0.20234 0.75049 0.05100
O 	O 	0.05023 0.85114 0.55237 -0.41700
O 	O 	0.04926 0.76884 0.55155 -0.43300
C 	C 	0.14551 0.80220 0.70540 0.03600
C 	C 	0.06203 0.80950 0.56943 0.37200
C 	C 	0.10690 0.85070 0.64000 0.03500
H 	H 	0.09840 0.88170 0.62670 0.03500
C 	C 	0.12990 0.75880 0.68040 -0.10800
H 	H 	0.13710 0.72750 0.69400 0.07000
C 	C 	0.13410 0.84820 0.68460 -0.10400
H 	H 	0.14460 0.87750 0.70020 0.07200
C 	C 	0.10430 0.76200 0.63600 0.03600
H 	H 	0.09470 0.73280 0.61950 0.03000
C 	C 	0.16990 0.75824 0.78332 -0.11100
H 	H 	0.14300 0.73670 0.77870 0.06800
C 	C 	0.09268 0.80775 0.61575 -0.11700
C 	C 	0.17705 0.79766 0.75049 0.04800
O 	O 	0.94977 0.85114 0.44763 -0.37500
O 	O 	0.95074 0.76884 0.44845 -0.39000
C 	C 	0.85449 0.80220 0.29460 0.03400
C 	C 	0.93797 0.80950 0.43057 0.36700
C 	C 	0.89310 0.85070 0.36000 0.03000
H 	H 	0.90160 0.88170 0.37330 0.05000
C 	C 	0.87010 0.75880 0.31960 -0.09500
H 	H 	0.86290 0.72750 0.30600 0.07100
C 	C 	0.86590 0.84820 0.31540 -0.09200
H 	H 	0.85540 0.87750 0.29980 0.07400
C 	C 	0.89570 0.76200 0.36400 0.03200
H 	H 	0.90530 0.73280 0.38050 0.04400
C 	C 	0.83010 0.75824 0.21668 -0.11100
H 	H 	0.85700 0.73670 0.22130 0.07500
C 	C 	0.90732 0.80775 0.38425 -0.09600
C 	C 	0.82295 0.79766 0.24951 0.05300
O 	O 	0.55237 0.94977 0.85114 -0.37400
O 	O 	0.55155 0.95074 0.76884 -0.39000
C 	C 	0.70540 0.85449 0.80220 0.03500
C 	C 	0.56943 0.93797 0.80950 0.36700
C 	C 	0.64000 0.89310 0.85070 0.03100
H 	H 	0.62670 0.90160 0.88170 0.05100
C 	C 	0.68040 0.87010 0.75880 -0.09400
H 	H 	0.69400 0.86290 0.72750 0.07100
C 	C 	0.68460 0.86590 0.84820 -0.09100
H 	H 	0.70020 0.85540 0.87750 0.07700
C 	C 	0.63600 0.89570 0.76200 0.03200
H 	H 	0.61950 0.90530 0.73280 0.04400
C 	C 	0.78332 0.83010 0.75824 -0.11300
H 	H 	0.77870 0.85700 0.73670 0.07800
C 	C 	0.61575 0.90732 0.80775 -0.09500
C 	C 	0.75049 0.82295 0.79766 0.05800
O 	O 	0.44763 0.05023 0.85114 -0.41700
O 	O 	0.44845 0.04926 0.76884 -0.43300
C 	C 	0.29460 0.14551 0.80220 0.03500
C 	C 	0.43057 0.06203 0.80950 0.37200
C 	C 	0.36000 0.10690 0.85070 0.03400
H 	H 	0.37330 0.09840 0.88170 0.03400
C 	C 	0.31960 0.12990 0.75880 -0.10900
H 	H 	0.30600 0.13710 0.72750 0.07000
C 	C 	0.31540 0.13410 0.84820 -0.10600
H 	H 	0.29980 0.14460 0.87750 0.06900
C 	C 	0.36400 0.10430 0.76200 0.03600
H 	H 	0.38050 0.09470 0.73280 0.03000
C 	C 	0.21668 0.16990 0.75824 -0.10900
H 	H 	0.22130 0.14300 0.73670 0.06500
C 	C 	0.38425 0.09268 0.80775 -0.11800
C 	C 	0.24951 0.17705 0.79766 0.04300
O 	O 	0.44763 0.94977 0.14886 -0.38700
O 	O 	0.44845 0.95074 0.23116 -0.39200
C 	C 	0.29460 0.85449 0.19780 0.03400
C 	C 	0.43057 0.93797 0.19050 0.37000
C 	C 	0.36000 0.89310 0.14930 0.03100
H 	H 	0.37330 0.90160 0.11830 0.03400
C 	C 	0.31960 0.87010 0.24120 -0.09800
H 	H 	0.30600 0.86290 0.27250 0.07100
C 	C 	0.31540 0.86590 0.15180 -0.09700
H 	H 	0.29980 0.85540 0.12250 0.06000
C 	C 	0.36400 0.89570 0.23800 0.03400
H 	H 	0.38050 0.90530 0.26720 0.04300
C 	C 	0.21668 0.83010 0.24176 -0.11000
H 	H 	0.22130 0.85700 0.26330 0.07200
C 	C 	0.38425 0.90732 0.19225 -0.10200
C 	C 	0.24951 0.82295 0.20234 0.04600
O 	O 	0.55237 0.05023 0.14886 -0.42900
O 	O 	0.55155 0.04926 0.23116 -0.43400
C 	C 	0.70540 0.14551 0.19780 0.03500
C 	C 	0.56943 0.06203 0.19050 0.37500
C 	C 	0.64000 0.10690 0.14930 0.03500
H 	H 	0.62670 0.09840 0.11830 0.01900
C 	C 	0.68040 0.12990 0.24120 -0.11100
H 	H 	0.69400 0.13710 0.27250 0.07000
C 	C 	0.68460 0.13410 0.15180 -0.11000
H 	H 	0.70020 0.14460 0.12250 0.05800
C 	C 	0.63600 0.10430 0.23800 0.03900
H 	H 	0.61950 0.09470 0.26720 0.02900
C 	C 	0.78332 0.16990 0.24176 -0.10900
H 	H 	0.77870 0.14300 0.26330 0.06600
C 	C 	0.61575 0.09268 0.19225 -0.12400
C 	C 	0.75049 0.17705 0.20234 0.04100
O 	O 	0.85114 0.55237 0.94977 -0.37400
O 	O 	0.76884 0.55155 0.95074 -0.39000
C 	C 	0.80220 0.70540 0.85449 0.03500
C 	C 	0.80950 0.56943 0.93797 0.36700
C 	C 	0.85070 0.64000 0.89310 0.03100
H 	H 	0.88170 0.62670 0.90160 0.05100
C 	C 	0.75880 0.68040 0.87010 -0.09400
H 	H 	0.72750 0.69400 0.86290 0.07100
C 	C 	0.84820 0.68460 0.86590 -0.09100
H 	H 	0.87750 0.70020 0.85540 0.07700
C 	C 	0.76200 0.63600 0.89570 0.03200
H 	H 	0.73280 0.61950 0.90530 0.04400
C 	C 	0.75824 0.78332 0.83010 -0.11300
H 	H 	0.73670 0.77870 0.85700 0.07800
C 	C 	0.80775 0.61575 0.90732 -0.09500
C 	C 	0.79766 0.75049 0.82295 0.05800
O 	O 	0.85114 0.44763 0.05023 -0.41700
O 	O 	0.76884 0.44845 0.04926 -0.43300
C 	C 	0.80220 0.29460 0.14551 0.03500
C 	C 	0.80950 0.43057 0.06203 0.37200
C 	C 	0.85070 0.36000 0.10690 0.03400
H 	H 	0.88170 0.37330 0.09840 0.03400
C 	C 	0.75880 0.31960 0.12990 -0.10900
H 	H 	0.72750 0.30600 0.13710 0.07000
C 	C 	0.84820 0.31540 0.13410 -0.10600
H 	H 	0.87750 0.29980 0.14460 0.06900
C 	C 	0.76200 0.36400 0.10430 0.03600
H 	H 	0.73280 0.38050 0.09470 0.03000
C 	C 	0.75824 0.21668 0.16990 -0.10900
H 	H 	0.73670 0.22130 0.14300 0.06500
C 	C 	0.80775 0.38425 0.09268 -0.11800
C 	C 	0.79766 0.24951 0.17705 0.04300
O 	O 	0.14886 0.44763 0.94977 -0.38700
O 	O 	0.23116 0.44845 0.95074 -0.39200
C 	C 	0.19780 0.29460 0.85449 0.03400
C 	C 	0.19050 0.43057 0.93797 0.37000
C 	C 	0.14930 0.36000 0.89310 0.03100
H 	H 	0.11830 0.37330 0.90160 0.03400
C 	C 	0.24120 0.31960 0.87010 -0.09800
H 	H 	0.27250 0.30600 0.86290 0.07100
C 	C 	0.15180 0.31540 0.86590 -0.09700
H 	H 	0.12250 0.29980 0.85540 0.06000
C 	C 	0.23800 0.36400 0.89570 0.03400
H 	H 	0.26720 0.38050 0.90530 0.04300
C 	C 	0.24176 0.21668 0.83010 -0.11000
H 	H 	0.26330 0.22130 0.85700 0.07200
C 	C 	0.19225 0.38425 0.90732 -0.10200
C 	C 	0.20234 0.24951 0.82295 0.04600
O 	O 	0.14886 0.55237 0.05023 -0.42900
O 	O 	0.23116 0.55155 0.04926 -0.43400
C 	C 	0.19780 0.70540 0.14551 0.03500
C 	C 	0.19050 0.56943 0.06203 0.37500
C 	C 	0.14930 0.64000 0.10690 0.03500
H 	H 	0.11830 0.62670 0.09840 0.01900
C 	C 	0.24120 0.68040 0.12990 -0.11100
H 	H 	0.27250 0.69400 0.13710 0.07000
C 	C 	0.15180 0.68460 0.13410 -0.11000
H 	H 	0.12250 0.70020 0.14460 0.05800
C 	C 	0.23800 0.63600 0.10430 0.03900
H 	H 	0.26720 0.61950 0.09470 0.02900
C 	C 	0.24176 0.78332 0.16990 -0.10900
H 	H 	0.26330 0.77870 0.14300 0.06600
C 	C 	0.19225 0.61575 0.09268 -0.12400
C 	C 	0.20234 0.75049 0.17705 0.04100
O 	O 	0.94977 0.85114 0.55237 -0.37400
O 	O 	0.95074 0.76884 0.55155 -0.39000
C 	C 	0.85449 0.80220 0.70540 0.03500
C 	C 	0.93797 0.80950 0.56943 0.36700
C 	C 	0.89310 0.85070 0.64000 0.03100
H 	H 	0.90160 0.88170 0.62670 0.05100
C 	C 	0.87010 0.75880 0.68040 -0.09400
H 	H 	0.86290 0.72750 0.69400 0.07100
C 	C 	0.86590 0.84820 0.68460 -0.09100
H 	H 	0.85540 0.87750 0.70020 0.07700
C 	C 	0.89570 0.76200 0.63600 0.03200
H 	H 	0.90530 0.73280 0.61950 0.04400
C 	C 	0.83010 0.75824 0.78332 -0.11300
H 	H 	0.85700 0.73670 0.77870 0.07800
C 	C 	0.90732 0.80775 0.61575 -0.09500
C 	C 	0.82295 0.79766 0.75049 0.05800
O 	O 	0.05023 0.85114 0.44763 -0.41700
O 	O 	0.04926 0.76884 0.44845 -0.43300
C 	C 	0.14551 0.80220 0.29460 0.03500
C 	C 	0.06203 0.80950 0.43057 0.37200
C 	C 	0.10690 0.85070 0.36000 0.03400
H 	H 	0.09840 0.88170 0.37330 0.03400
C 	C 	0.12990 0.75880 0.31960 -0.10900
H 	H 	0.13710 0.72750 0.30600 0.07000
C 	C 	0.13410 0.84820 0.31540 -0.10600
H 	H 	0.14460 0.87750 0.29980 0.06900
C 	C 	0.10430 0.76200 0.36400 0.03600
H 	H 	0.09470 0.73280 0.38050 0.03000
C 	C 	0.16990 0.75824 0.21668 -0.10900
H 	H 	0.14300 0.73670 0.22130 0.06500
C 	C 	0.09268 0.80775 0.38425 -0.11800
C 	C 	0.17705 0.79766 0.24951 0.04300
O 	O 	0.94977 0.14886 0.44763 -0.38700
O 	O 	0.95074 0.23116 0.44845 -0.39200
C 	C 	0.85449 0.19780 0.29460 0.03400
C 	C 	0.93797 0.19050 0.43057 0.37000
C 	C 	0.89310 0.14930 0.36000 0.03100
H 	H 	0.90160 0.11830 0.37330 0.03400
C 	C 	0.87010 0.24120 0.31960 -0.09800
H 	H 	0.86290 0.27250 0.30600 0.07100
C 	C 	0.86590 0.15180 0.31540 -0.09700
H 	H 	0.85540 0.12250 0.29980 0.06000
C 	C 	0.89570 0.23800 0.36400 0.03400
H 	H 	0.90530 0.26720 0.38050 0.04300
C 	C 	0.83010 0.24176 0.21668 -0.11000
H 	H 	0.85700 0.26330 0.22130 0.07200
C 	C 	0.90732 0.19225 0.38425 -0.10200
C 	C 	0.82295 0.20234 0.24951 0.04600
O 	O 	0.05023 0.14886 0.55237 -0.42900
O 	O 	0.04926 0.23116 0.55155 -0.43400
C 	C 	0.14551 0.19780 0.70540 0.03500
C 	C 	0.06203 0.19050 0.56943 0.37500
C 	C 	0.10690 0.14930 0.64000 0.03500
H 	H 	0.09840 0.11830 0.62670 0.01900
C 	C 	0.12990 0.24120 0.68040 -0.11100
H 	H 	0.13710 0.27250 0.69400 0.07000
C 	C 	0.13410 0.15180 0.68460 -0.11000
H 	H 	0.14460 0.12250 0.70020 0.05800
C 	C 	0.10430 0.23800 0.63600 0.03900
H 	H 	0.09470 0.26720 0.61950 0.02900
C 	C 	0.16990 0.24176 0.78332 -0.10900
H 	H 	0.14300 0.26330 0.77870 0.06600
C 	C 	0.09268 0.19225 0.61575 -0.12400
C 	C 	0.17705 0.20234 0.75049 0.04100
Cu	Cu	0.50000 0.00000 0.14425 0.87400
Cu	Cu	0.50000 0.00000 0.24014 0.88200
Cu	Cu	0.50000 0.00000 0.85575 0.88000
Cu	Cu	0.50000 0.00000 0.75986 0.88100
Cu	Cu	0.14425 0.50000 -0.00000 0.87400
Cu	Cu	0.24014 0.50000 -0.00000 0.88200
Cu	Cu	0.85575 0.50000 -0.00000 0.88000
Cu	Cu	0.75986 0.50000 -0.00000 0.88100
Cu	Cu	0.00000 0.14425 0.50000 0.87400
Cu	Cu	0.00000 0.24014 0.50000 0.88200
Cu	Cu	0.00000 0.85575 0.50000 0.88000
Cu	Cu	0.00000 0.75986 0.50000 0.88100
O 	O 	0.94763 0.55023 0.64886 -0.38000
O 	O 	0.94845 0.54926 0.73116 -0.38900
C 	C 	0.79460 0.64551 0.69780 0.03000
C 	C 	0.93057 0.56203 0.69050 0.36600
C 	C 	0.86000 0.60690 0.64930 0.02700
H 	H 	0.87330 0.59840 0.61830 0.04100
C 	C 	0.81960 0.62990 0.74120 -0.09600
H 	H 	0.80600 0.63710 0.77250 0.06800
C 	C 	0.81540 0.63410 0.65180 -0.09500
H 	H 	0.79980 0.64460 0.62250 0.06500
C 	C 	0.86400 0.60430 0.73800 0.02900
H 	H 	0.88050 0.59470 0.76720 0.04400
C 	C 	0.71668 0.66990 0.74176 -0.11400
H 	H 	0.72130 0.64300 0.76330 0.07100
C 	C 	0.88425 0.59268 0.69225 -0.09900
C 	C 	0.74951 0.67705 0.70234 0.05000
O 	O 	0.05237 0.44977 0.64886 -0.42400
O 	O 	0.05155 0.45074 0.73116 -0.43300
C 	C 	0.20540 0.35449 0.69780 0.03800
C 	C 	0.06943 0.43797 0.69050 0.37500
C 	C 	0.14000 0.39310 0.64930 0.03700
H 	H 	0.12670 0.40160 0.61830 0.02900
C 	C 	0.18040 0.37010 0.74120 -0.10700
H 	H 	0.19400 0.36290 0.77250 0.07100
C 	C 	0.18460 0.36590 0.65180 -0.10500
H 	H 	0.20020 0.35540 0.62250 0.06600
C 	C 	0.13600 0.39570 0.73800 0.03900
H 	H 	0.11950 0.40530 0.76720 0.03100
C 	C 	0.28332 0.33010 0.74176 -0.11000
H 	H 	0.27870 0.35700 0.76330 0.07000
C 	C 	0.11575 0.40732 0.69225 -0.11900
C 	C 	0.25049 0.32295 0.70234 0.04500
O 	O 	0.05237 0.55023 0.35114 -0.42400
O 	O 	0.05155 0.54926 0.26884 -0.43500
C 	C 	0.20540 0.64551 0.30220 0.03800
C 	C 	0.06943 0.56203 0.30950 0.37600
C 	C 	0.14000 0.60690 0.35070 0.03800
H 	H 	0.12670 0.59840 0.38170 0.02800
C 	C 	0.18040 0.62990 0.25880 -0.10900
H 	H 	0.19400 0.63710 0.22750 0.07200
C 	C 	0.18460 0.63410 0.34820 -0.10600
H 	H 	0.20020 0.64460 0.37750 0.06700
C 	C 	0.13600 0.60430 0.26200 0.04100
H 	H 	0.11950 0.59470 0.23280 0.02900
C 	C 	0.28332 0.66990 0.25824 -0.10900
H 	H 	0.27870 0.64300 0.23670 0.06900
C 	C 	0.11575 0.59268 0.30775 -0.12000
C 	C 	0.25049 0.67705 0.29766 0.04500
O 	O 	0.94763 0.44977 0.35114 -0.38000
O 	O 	0.94845 0.45074 0.26884 -0.39200
C 	C 	0.79460 0.35449 0.30220 0.03300
C 	C 	0.93057 0.43797 0.30950 0.36700
C 	C 	0.86000 0.39310 0.35070 0.02900
H 	H 	0.87330 0.40160 0.38170 0.04000
C 	C 	0.81960 0.37010 0.25880 -0.09900
H 	H 	0.80600 0.36290 0.22750 0.07000
C 	C 	0.81540 0.36590 0.34820 -0.09700
H 	H 	0.79980 0.35540 0.37750 0.06600
C 	C 	0.86400 0.39570 0.26200 0.03100
H 	H 	0.88050 0.40530 0.23280 0.04100
C 	C 	0.71668 0.33010 0.25824 -0.11000
H 	H 	0.72130 0.35700 0.23670 0.07000
C 	C 	0.88425 0.40732 0.30775 -0.10100
C 	C 	0.74951 0.32295 0.29766 0.04700
O 	O 	0.64886 0.94763 0.55023 -0.38000
O 	O 	0.73116 0.94845 0.54926 -0.38900
C 	C 	0.69780 0.79460 0.64551 0.03000
C 	C 	0.69050 0.93057 0.56203 0.36600
C 	C 	0.64930 0.86000 0.60690 0.02700
H 	H 	0.61830 0.87330 0.59840 0.04100
C 	C 	0.74120 0.81960 0.62990 -0.09600
H 	H 	0.77250 0.80600 0.63710 0.06800
C 	C 	0.65180 0.81540 0.63410 -0.09500
H 	H 	0.62250 0.79980 0.64460 0.06500
C 	C 	0.73800 0.86400 0.60430 0.02900
H 	H 	0.76720 0.88050 0.59470 0.04400
C 	C 	0.74176 0.71668 0.66990 -0.11400
H 	H 	0.76330 0.72130 0.64300 0.07100
C 	C 	0.69225 0.88425 0.59268 -0.09900
C 	C 	0.70234 0.74951 0.67705 0.05000
O 	O 	0.64886 0.05237 0.44977 -0.42400
O 	O 	0.73116 0.05155 0.45074 -0.43300
C 	C 	0.69780 0.20540 0.35449 0.03800
C 	C 	0.69050 0.06943 0.43797 0.37500
C 	C 	0.64930 0.14000 0.39310 0.03700
H 	H 	0.61830 0.12670 0.40160 0.02900
C 	C 	0.74120 0.18040 0.37010 -0.10700
H 	H 	0.77250 0.19400 0.36290 0.07100
C 	C 	0.65180 0.18460 0.36590 -0.10500
H 	H 	0.62250 0.20020 0.35540 0.06600
C 	C 	0.73800 0.13600 0.39570 0.03900
H 	H 	0.76720 0.11950 0.40530 0.03100
C 	C 	0.74176 0.28332 0.33010 -0.11000
H 	H 	0.76330 0.27870 0.35700 0.07000
C 	C 	0.69225 0.11575 0.40732 -0.11900
C 	C 	0.70234 0.25049 0.32295 0.04500
O 	O 	0.35114 0.05237 0.55023 -0.42400
O 	O 	0.26884 0.05155 0.54926 -0.43500
C 	C 	0.30220 0.20540 0.64551 0.03800
C 	C 	0.30950 0.06943 0.56203 0.37600
C 	C 	0.35070 0.14000 0.60690 0.03800
H 	H 	0.38170 0.12670 0.59840 0.02800
C 	C 	0.25880 0.18040 0.62990 -0.10900
H 	H 	0.22750 0.19400 0.63710 0.07200
C 	C 	0.34820 0.18460 0.63410 -0.10600
H 	H 	0.37750 0.20020 0.64460 0.06700
C 	C 	0.26200 0.13600 0.60430 0.04100
H 	H 	0.23280 0.11950 0.59470 0.02900
C 	C 	0.25824 0.28332 0.66990 -0.10900
H 	H 	0.23670 0.27870 0.64300 0.06900
C 	C 	0.30775 0.11575 0.59268 -0.12000
C 	C 	0.29766 0.25049 0.67705 0.04500
O 	O 	0.35114 0.94763 0.44977 -0.38000
O 	O 	0.26884 0.94845 0.45074 -0.39200
C 	C 	0.30220 0.79460 0.35449 0.03300
C 	C 	0.30950 0.93057 0.43797 0.36700
C 	C 	0.35070 0.86000 0.39310 0.02900
H 	H 	0.38170 0.87330 0.40160 0.04000
C 	C 	0.25880 0.81960 0.37010 -0.09900
H 	H 	0.22750 0.80600 0.36290 0.07000
C 	C 	0.34820 0.81540 0.36590 -0.09700
H 	H 	0.37750 0.79980 0.35540 0.06600
C 	C 	0.26200 0.86400 0.39570 0.03100
H 	H 	0.23280 0.88050 0.40530 0.04100
C 	C 	0.25824 0.71668 0.33010 -0.11000
H 	H 	0.23670 0.72130 0.35700 0.07000
C 	C 	0.30775 0.88425 0.40732 -0.10100
C 	C 	0.29766 0.74951 0.32295 0.04700
O 	O 	0.55023 0.64886 0.94763 -0.38000
O 	O 	0.54926 0.73116 0.94845 -0.38900
C 	C 	0.64551 0.69780 0.79460 0.03000
C 	C 	0.56203 0.69050 0.93057 0.36600
C 	C 	0.60690 0.64930 0.86000 0.02700
H 	H 	0.59840 0.61830 0.87330 0.04100
C 	C 	0.62990 0.74120 0.81960 -0.09600
H 	H 	0.63710 0.77250 0.80600 0.06800
C 	C 	0.63410 0.65180 0.81540 -0.09500
H 	H 	0.64460 0.62250 0.79980 0.06500
C 	C 	0.60430 0.73800 0.86400 0.02900
H 	H 	0.59470 0.76720 0.88050 0.04400
C 	C 	0.66990 0.74176 0.71668 -0.11400
H 	H 	0.64300 0.76330 0.72130 0.07100
C 	C 	0.59268 0.69225 0.88425 -0.09900
C 	C 	0.67705 0.70234 0.74951 0.05000
O 	O 	0.44977 0.64886 0.05237 -0.42400
O 	O 	0.45074 0.73116 0.05155 -0.43300
C 	C 	0.35449 0.69780 0.20540 0.03800
C 	C 	0.43797 0.69050 0.06943 0.37500
C 	C 	0.39310 0.64930 0.14000 0.03700
H 	H 	0.40160 0.61830 0.12670 0.02900
C 	C 	0.37010 0.74120 0.18040 -0.10700
H 	H 	0.36290 0.77250 0.19400 0.07100
C 	C 	0.36590 0.65180 0.18460 -0.10500
H 	H 	0.35540 0.62250 0.20020 0.06600
C 	C 	0.39570 0.73800 0.13600 0.03900
H 	H 	0.40530 0.76720 0.11950 0.03100
C 	C 	0.33010 0.74176 0.28332 -0.11000
H 	H 	0.35700 0.76330 0.27870 0.07000
C 	C 	0.40732 0.69225 0.11575 -0.11900
C 	C 	0.32295 0.70234 0.25049 0.04500
O 	O 	0.55023 0.35114 0.05237 -0.42400
O 	O 	0.54926 0.26884 0.05155 -0.43500
C 	C 	0.64551 0.30220 0.20540 0.03800
C 	C 	0.56203 0.30950 0.06943 0.37600
C 	C 	0.60690 0.35070 0.14000 0.03800
H 	H 	0.59840 0.38170 0.12670 0.02800
C 	C 	0.62990 0.25880 0.18040 -0.10900
H 	H 	0.63710 0.22750 0.19400 0.07200
C 	C 	0.63410 0.34820 0.18460 -0.10600
H 	H 	0.64460 0.37750 0.20020 0.06700
C 	C 	0.60430 0.26200 0.13600 0.04100
H 	H 	0.59470 0.23280 0.11950 0.02900
C 	C 	0.66990 0.25824 0.28332 -0.10900
H 	H 	0.64300 0.23670 0.27870 0.06900
C 	C 	0.59268 0.30775 0.11575 -0.12000
C 	C 	0.67705 0.29766 0.25049 0.04500
O 	O 	0.44977 0.35114 0.94763 -0.38000
O 	O 	0.45074 0.26884 0.94845 -0.39200
C 	C 	0.35449 0.30220 0.79460 0.03300
C 	C 	0.43797 0.30950 0.93057 0.36700
C 	C 	0.39310 0.35070 0.86000 0.02900
H 	H 	0.40160 0.38170 0.87330 0.04000
C 	C 	0.37010 0.25880 0.81960 -0.09900
H 	H 	0.36290 0.22750 0.80600 0.07000
C 	C 	0.36590 0.34820 0.81540 -0.09700
H 	H 	0.35540 0.37750 0.79980 0.06600
C 	C 	0.39570 0.26200 0.86400 0.03100
H 	H 	0.40530 0.23280 0.88050 0.04100
C 	C 	0.33010 0.25824 0.71668 -0.11000
H 	H 	0.35700 0.23670 0.72130 0.07000
C 	C 	0.40732 0.30775 0.88425 -0.10100
C 	C 	0.32295 0.29766 0.74951 0.04700
O 	O 	0.05237 0.44977 0.35114 -0.42400
O 	O 	0.05155 0.45074 0.26884 -0.43500
C 	C 	0.20540 0.35449 0.30220 0.03900
C 	C 	0.06943 0.43797 0.30950 0.37600
C 	C 	0.14000 0.39310 0.35070 0.03800
H 	H 	0.12670 0.40160 0.38170 0.02800
C 	C 	0.18040 0.37010 0.25880 -0.10900
H 	H 	0.19400 0.36290 0.22750 0.07200
C 	C 	0.18460 0.36590 0.34820 -0.10700
H 	H 	0.20020 0.35540 0.37750 0.06700
C 	C 	0.13600 0.39570 0.26200 0.04100
H 	H 	0.11950 0.40530 0.23280 0.02900
C 	C 	0.28332 0.33010 0.25824 -0.10700
H 	H 	0.27870 0.35700 0.23670 0.06900
C 	C 	0.11575 0.40732 0.30775 -0.12100
C 	C 	0.25049 0.32295 0.29766 0.04400
O 	O 	0.94763 0.55023 0.35114 -0.38000
O 	O 	0.94845 0.54926 0.26884 -0.39100
C 	C 	0.79460 0.64551 0.30220 0.03200
C 	C 	0.93057 0.56203 0.30950 0.36700
C 	C 	0.86000 0.60690 0.35070 0.02800
H 	H 	0.87330 0.59840 0.38170 0.04000
C 	C 	0.81960 0.62990 0.25880 -0.09800
H 	H 	0.80600 0.63710 0.22750 0.06900
C 	C 	0.81540 0.63410 0.34820 -0.09600
H 	H 	0.79980 0.64460 0.37750 0.06500
C 	C 	0.86400 0.60430 0.26200 0.03100
H 	H 	0.88050 0.59470 0.23280 0.04100
C 	C 	0.71668 0.66990 0.25824 -0.11100
H 	H 	0.72130 0.64300 0.23670 0.07000
C 	C 	0.88425 0.59268 0.30775 -0.10100
C 	C 	0.74951 0.67705 0.29766 0.04800
O 	O 	0.94763 0.44977 0.64886 -0.38000
O 	O 	0.94845 0.45074 0.73116 -0.38900
C 	C 	0.79460 0.35449 0.69780 0.03100
C 	C 	0.93057 0.43797 0.69050 0.36600
C 	C 	0.86000 0.39310 0.64930 0.02800
H 	H 	0.87330 0.40160 0.61830 0.04000
C 	C 	0.81960 0.37010 0.74120 -0.09700
H 	H 	0.80600 0.36290 0.77250 0.06900
C 	C 	0.81540 0.36590 0.65180 -0.09500
H 	H 	0.79980 0.35540 0.62250 0.06500
C 	C 	0.86400 0.39570 0.73800 0.03000
H 	H 	0.88050 0.40530 0.76720 0.04300
C 	C 	0.71668 0.33010 0.74176 -0.11200
H 	H 	0.72130 0.35700 0.76330 0.07100
C 	C 	0.88425 0.40732 0.69225 -0.09900
C 	C 	0.74951 0.32295 0.70234 0.04900
O 	O 	0.05237 0.55023 0.64886 -0.42400
O 	O 	0.05155 0.54926 0.73116 -0.43300
C 	C 	0.20540 0.64551 0.69780 0.03700
C 	C 	0.06943 0.56203 0.69050 0.37500
C 	C 	0.14000 0.60690 0.64930 0.03700
H 	H 	0.12670 0.59840 0.61830 0.02900
C 	C 	0.18040 0.62990 0.74120 -0.10700
H 	H 	0.19400 0.63710 0.77250 0.07100
C 	C 	0.18460 0.63410 0.65180 -0.10500
H 	H 	0.20020 0.64460 0.62250 0.06600
C 	C 	0.13600 0.60430 0.73800 0.03900
H 	H 	0.11950 0.59470 0.76720 0.03100
C 	C 	0.28332 0.66990 0.74176 -0.11100
H 	H 	0.27870 0.64300 0.76330 0.07000
C 	C 	0.11575 0.59268 0.69225 -0.11900
C 	C 	0.25049 0.67705 0.70234 0.04700
O 	O 	0.35114 0.05237 0.44977 -0.42400
O 	O 	0.26884 0.05155 0.45074 -0.43500
C 	C 	0.30220 0.20540 0.35449 0.03900
C 	C 	0.30950 0.06943 0.43797 0.37600
C 	C 	0.35070 0.14000 0.39310 0.03800
H 	H 	0.38170 0.12670 0.40160 0.02800
C 	C 	0.25880 0.18040 0.37010 -0.10900
H 	H 	0.22750 0.19400 0.36290 0.07200
C 	C 	0.34820 0.18460 0.36590 -0.10700
H 	H 	0.37750 0.20020 0.35540 0.06700
C 	C 	0.26200 0.13600 0.39570 0.04100
H 	H 	0.23280 0.11950 0.40530 0.02900
C 	C 	0.25824 0.28332 0.33010 -0.10700
H 	H 	0.23670 0.27870 0.35700 0.06900
C 	C 	0.30775 0.11575 0.40732 -0.12100
C 	C 	0.29766 0.25049 0.32295 0.04400
O 	O 	0.35114 0.94763 0.55023 -0.38000
O 	O 	0.26884 0.94845 0.54926 -0.39100
C 	C 	0.30220 0.79460 0.64551 0.03200
C 	C 	0.30950 0.93057 0.56203 0.36700
C 	C 	0.35070 0.86000 0.60690 0.02800
H 	H 	0.38170 0.87330 0.59840 0.04000
C 	C 	0.25880 0.81960 0.62990 -0.09800
H 	H 	0.22750 0.80600 0.63710 0.06900
C 	C 	0.34820 0.81540 0.63410 -0.09600
H 	H 	0.37750 0.79980 0.64460 0.06500
C 	C 	0.26200 0.86400 0.60430 0.03100
H 	H 	0.23280 0.88050 0.59470 0.04100
C 	C 	0.25824 0.71668 0.66990 -0.11100
H 	H 	0.23670 0.72130 0.64300 0.07000
C 	C 	0.30775 0.88425 0.59268 -0.10100
C 	C 	0.29766 0.74951 0.67705 0.04800
O 	O 	0.64886 0.94763 0.44977 -0.38000
O 	O 	0.73116 0.94845 0.45074 -0.38900
C 	C 	0.69780 0.79460 0.35449 0.03100
C 	C 	0.69050 0.93057 0.43797 0.36600
C 	C 	0.64930 0.86000 0.39310 0.02800
H 	H 	0.61830 0.87330 0.40160 0.04000
C 	C 	0.74120 0.81960 0.37010 -0.09700
H 	H 	0.77250 0.80600 0.36290 0.06900
C 	C 	0.65180 0.81540 0.36590 -0.09500
H 	H 	0.62250 0.79980 0.35540 0.06500
C 	C 	0.73800 0.86400 0.39570 0.03000
H 	H 	0.76720 0.88050 0.40530 0.04300
C 	C 	0.74176 0.71668 0.33010 -0.11200
H 	H 	0.76330 0.72130 0.35700 0.07100
C 	C 	0.69225 0.88425 0.40732 -0.09900
C 	C 	0.70234 0.74951 0.32295 0.04900
O 	O 	0.64886 0.05237 0.55023 -0.42400
O 	O 	0.73116 0.05155 0.54926 -0.43300
C 	C 	0.69780 0.20540 0.64551 0.03700
C 	C 	0.69050 0.06943 0.56203 0.37500
C 	C 	0.64930 0.14000 0.60690 0.03700
H 	H 	0.61830 0.12670 0.59840 0.02900
C 	C 	0.74120 0.18040 0.62990 -0.10700
H 	H 	0.77250 0.19400 0.63710 0.07100
C 	C 	0.65180 0.18460 0.63410 -0.10500
H 	H 	0.62250 0.20020 0.64460 0.06600
C 	C 	0.73800 0.13600 0.60430 0.03900
H 	H 	0.76720 0.11950 0.59470 0.03100
C 	C 	0.74176 0.28332 0.66990 -0.11100
H 	H 	0.76330 0.27870 0.64300 0.07000
C 	C 	0.69225 0.11575 0.59268 -0.11900
C 	C 	0.70234 0.25049 0.67705 0.04700
O 	O 	0.44977 0.35114 0.05237 -0.42400
O 	O 	0.45074 0.26884 0.05155 -0.43500
C 	C 	0.35449 0.30220 0.20540 0.03900
C 	C 	0.43797 0.30950 0.06943 0.37600
C 	C 	0.39310 0.35070 0.14000 0.03800
H 	H 	0.40160 0.38170 0.12670 0.02800
C 	C 	0.37010 0.25880 0.18040 -0.10900
H 	H 	0.36290 0.22750 0.19400 0.07200
C 	C 	0.36590 0.34820 0.18460 -0.10700
H 	H 	0.35540 0.37750 0.20020 0.06700
C 	C 	0.39570 0.26200 0.13600 0.04100
H 	H 	0.40530 0.23280 0.11950 0.02900
C 	C 	0.33010 0.25824 0.28332 -0.10700
H 	H 	0.35700 0.23670 0.27870 0.06900
C 	C 	0.40732 0.30775 0.11575 -0.12100
C 	C 	0.32295 0.29766 0.25049 0.04400
O 	O 	0.55023 0.35114 0.94763 -0.38000
O 	O 	0.54926 0.26884 0.94845 -0.39100
C 	C 	0.64551 0.30220 0.79460 0.03200
C 	C 	0.56203 0.30950 0.93057 0.36700
C 	C 	0.60690 0.35070 0.86000 0.02800
H 	H 	0.59840 0.38170 0.87330 0.04000
C 	C 	0.62990 0.25880 0.81960 -0.09800
H 	H 	0.63710 0.22750 0.80600 0.06900
C 	C 	0.63410 0.34820 0.81540 -0.09600
H 	H 	0.64460 0.37750 0.79980 0.06500
C 	C 	0.60430 0.26200 0.86400 0.03100
H 	H 	0.59470 0.23280 0.88050 0.04100
C 	C 	0.66990 0.25824 0.71668 -0.11100
H 	H 	0.64300 0.23670 0.72130 0.07000
C 	C 	0.59268 0.30775 0.88425 -0.10100
C 	C 	0.67705 0.29766 0.74951 0.04800
O 	O 	0.44977 0.64886 0.94763 -0.38000
O 	O 	0.45074 0.73116 0.94845 -0.38900
C 	C 	0.35449 0.69780 0.79460 0.03100
C 	C 	0.43797 0.69050 0.93057 0.36600
C 	C 	0.39310 0.64930 0.86000 0.02800
H 	H 	0.40160 0.61830 0.87330 0.04000
C 	C 	0.37010 0.74120 0.81960 -0.09700
H 	H 	0.36290 0.77250 0.80600 0.06900
C 	C 	0.36590 0.65180 0.81540 -0.09500
H 	H 	0.35540 0.62250 0.79980 0.06500
C 	C 	0.39570 0.73800 0.86400 0.03000
H 	H 	0.40530 0.76720 0.88050 0.04300
C 	C 	0.33010 0.74176 0.71668 -0.11200
H 	H 	0.35700 0.76330 0.72130 0.07100
C 	C 	0.40732 0.69225 0.88425 -0.09900
C 	C 	0.32295 0.70234 0.74951 0.04900
O 	O 	0.55023 0.64886 0.05237 -0.42400
O 	O 	0.54926 0.73116 0.05155 -0.43300
C 	C 	0.64551 0.69780 0.20540 0.03700
C 	C 	0.56203 0.69050 0.06943 0.37500
C 	C 	0.60690 0.64930 0.14000 0.03700
H 	H 	0.59840 0.61830 0.12670 0.02900
C 	C 	0.62990 0.74120 0.18040 -0.10700
H 	H 	0.63710 0.77250 0.19400 0.07100
C 	C 	0.63410 0.65180 0.18460 -0.10500
H 	H 	0.64460 0.62250 0.20020 0.06600
C 	C 	0.60430 0.73800 0.13600 0.03900
H 	H 	0.59470 0.76720 0.11950 0.03100
C 	C 	0.66990 0.74176 0.28332 -0.11100
H 	H 	0.64300 0.76330 0.27870 0.07000
C 	C 	0.59268 0.69225 0.11575 -0.11900
C 	C 	0.67705 0.70234 0.25049 0.04700
Cu	Cu	0.00000 0.50000 0.64425 0.87700
Cu	Cu	-0.00000 0.50000 0.74014 0.88200
Cu	Cu	0.00000 0.50000 0.35575 0.87700
Cu	Cu	-0.00000 0.50000 0.25986 0.88100
Cu	Cu	0.64425 0.00000 0.50000 0.87700
Cu	Cu	0.74014 0.00000 0.50000 0.88200
Cu	Cu	0.35575 0.00000 0.50000 0.87700
Cu	Cu	0.25986 0.00000 0.50000 0.88100
Cu	Cu	0.50000 0.64425 -0.00000 0.87700
Cu	Cu	0.50000 0.74014 -0.00000 0.88200
Cu	Cu	0.50000 0.35575 -0.00000 0.87700
Cu	Cu	0.50000 0.25986 -0.00000 0.88100
