data_crystal

_cell_length_a 34.07400
_cell_length_b 16.22110
_cell_length_c 28.27800
_cell_angle_alpha 90.00000
_cell_angle_beta  124.74300
_cell_angle_gamma 90.00000

_symmetry_space_group_name_	'P 1'
_symmetry_space_group_name_H-M	'P 1'

loop_
_symmetry_equiv_pos_as_xyz
  x,y,z

loop_
_atom_site_label
_atom_site_type_symbol
_atom_site_fract_x
_atom_site_fract_y
_atom_site_fract_z
_atom_site_charge
U 	U 	0.05624 0.27184 0.56129 0.00900
U 	U 	0.27433 0.37983 0.91234 0.01300
U 	U 	0.20866 0.14399 0.86225 0.01000
U 	U 	0.11978 0.50386 0.61115 0.01600
I 	I 	0.09800 0.17183 0.70752 0.14600
I 	I 	0.18518 0.50641 0.77507 0.17300
O 	O 	0.01500 0.34070 0.55960 -0.12300
O 	O 	0.09960 0.38010 0.55640 -0.04500
O 	O 	0.15030 0.21370 0.77250 -0.13600
O 	O 	0.12140 0.35860 0.61770 -0.08500
O 	O 	0.27290 0.23500 0.90830 -0.05300
O 	O 	0.02830 0.31130 0.46380 -0.21600
O 	O 	0.06270 0.51160 0.59790 -0.11100
O 	O 	0.23800 0.26790 0.85000 -0.09500
O 	O 	0.16560 0.18070 0.99530 -0.23000
O 	O 	0.91830 0.39740 0.55830 -0.35400
O 	O 	0.02070 0.16420 0.58680 -0.20800
O 	O 	0.91630 0.46730 0.48850 -0.22000
O 	O 	0.85540 0.38960 0.31480 -0.18500
O 	O 	0.09210 0.25850 0.66380 -0.14200
O 	O 	0.05260 0.19760 0.71870 -0.16700
O 	O 	0.23150 0.37920 0.92920 -0.11800
O 	O 	0.27300 0.09520 0.95500 -0.21800
O 	O 	0.13370 0.06670 0.79770 -0.16400
O 	O 	0.32220 0.00170 0.01770 -0.23800
O 	O 	0.09210 0.18490 0.91390 -0.30400
O 	O 	0.15300 0.45270 0.70730 -0.12900
O 	O 	0.24300 0.97120 0.10410 -0.17200
O 	O 	0.98920 0.03800 0.57320 -0.20500
O 	O 	0.21610 0.41380 0.81350 -0.13900
O 	O 	0.18050 0.18890 0.89350 -0.11500
O 	O 	0.14020 0.50850 0.78860 -0.10500
O 	O 	0.99840 0.28400 0.37390 -0.24600
O 	O 	0.81500 0.27440 0.26850 -0.20600
O 	O 	0.22050 0.83900 0.08770 -0.19100
O 	O 	0.09930 0.94950 0.74460 -0.16300
N 	N 	0.98300 0.18540 0.47420 -0.08700
N 	N 	0.16970 0.01570 -0.00000 -0.08400
N 	N 	0.20240 0.98960 0.89040 -0.08400
N 	N 	0.87920 0.33910 0.41580 -0.08400
C 	C 	0.99960 0.09740 0.55700 0.27500
C 	C 	0.87270 0.34000 0.46280 -0.00500
C 	C 	0.28510 0.02080 0.97070 0.27500
C 	C 	0.92630 0.30600 0.43330 0.07000
C 	C 	0.83870 0.29680 0.36570 0.02000
C 	C 	0.93480 0.21700 0.45610 0.04400
C 	C 	0.98750 0.09920 0.49400 0.02800
C 	C 	0.90510 0.40490 0.50650 0.27500
C 	C 	0.12660 0.14670 0.95520 0.28700
C 	C 	0.98730 0.18210 0.42520 0.02900
C 	C 	0.00530 0.26460 0.41930 0.28400
C 	C 	0.25200 0.95520 0.93030 0.01500
C 	C 	0.12120 0.05410 0.96250 0.01800
C 	C 	0.19750 0.01700 0.97190 0.07300
C 	C 	0.83710 0.32440 0.31250 0.26800
C 	C 	0.17710 0.94110 0.83580 0.02800
C 	C 	0.16520 0.93710 0.01910 0.03100
C 	C 	0.21380 0.91470 0.07610 0.27000
C 	C 	0.17300 0.97230 0.91300 0.05800
C 	C 	0.13250 0.98990 0.79150 0.24500
K 	K 	0.15850 0.32592 0.93719 0.66600
K 	K 	0.98413 0.28740 0.63093 0.66400
K 	K 	0.19686 0.29650 0.73157 0.66700
K 	K 	0.98173 0.53830 0.59460 0.66600
O 	O 	0.04800 0.41890 0.68400 -0.18900
U 	U 	0.55624 0.77184 0.56129 0.00800
U 	U 	0.77433 0.87983 0.91234 0.01200
U 	U 	0.70866 0.64399 0.86225 0.00900
U 	U 	0.61978 0.00386 0.61115 0.01500
I 	I 	0.59800 0.67183 0.70752 0.14500
I 	I 	0.68518 0.00641 0.77507 0.17200
O 	O 	0.51500 0.84070 0.55960 -0.12400
O 	O 	0.59960 0.88010 0.55640 -0.04600
O 	O 	0.65030 0.71370 0.77250 -0.13700
O 	O 	0.62140 0.85860 0.61770 -0.08600
O 	O 	0.77290 0.73500 0.90830 -0.05400
O 	O 	0.52830 0.81130 0.46380 -0.21700
O 	O 	0.56270 0.01160 0.59790 -0.11200
O 	O 	0.73800 0.76790 0.85000 -0.09600
O 	O 	0.66560 0.68070 0.99530 -0.23000
O 	O 	0.41830 0.89740 0.55830 -0.35500
O 	O 	0.52070 0.66420 0.58680 -0.20800
O 	O 	0.41630 0.96730 0.48850 -0.22100
O 	O 	0.35540 0.88960 0.31480 -0.18500
O 	O 	0.59210 0.75850 0.66380 -0.14200
O 	O 	0.55260 0.69760 0.71870 -0.16700
O 	O 	0.73150 0.87920 0.92920 -0.11700
O 	O 	0.77300 0.59520 0.95500 -0.21800
O 	O 	0.63370 0.56670 0.79770 -0.16400
O 	O 	0.82220 0.50170 0.01770 -0.24000
O 	O 	0.59210 0.68490 0.91390 -0.30400
O 	O 	0.65300 0.95270 0.70730 -0.12900
O 	O 	0.74300 0.47120 0.10410 -0.17200
O 	O 	0.48920 0.53800 0.57320 -0.20600
O 	O 	0.71610 0.91380 0.81350 -0.13800
O 	O 	0.68050 0.68890 0.89350 -0.11500
O 	O 	0.64020 0.00850 0.78860 -0.10500
O 	O 	0.49840 0.78400 0.37390 -0.24600
O 	O 	0.31500 0.77440 0.26850 -0.20600
O 	O 	0.72050 0.33900 0.08770 -0.19100
O 	O 	0.59930 0.44950 0.74460 -0.16300
N 	N 	0.48300 0.68540 0.47420 -0.08700
N 	N 	0.66970 0.51570 -0.00000 -0.08600
N 	N 	0.70240 0.48960 0.89040 -0.08400
N 	N 	0.37920 0.83910 0.41580 -0.08400
C 	C 	0.49960 0.59740 0.55700 0.27400
C 	C 	0.37270 0.84000 0.46280 -0.00500
C 	C 	0.78510 0.52080 0.97070 0.27800
C 	C 	0.42630 0.80600 0.43330 0.07000
C 	C 	0.33870 0.79680 0.36570 0.02000
C 	C 	0.43480 0.71700 0.45610 0.04400
C 	C 	0.48750 0.59920 0.49400 0.02700
C 	C 	0.40510 0.90490 0.50650 0.27500
C 	C 	0.62660 0.64670 0.95520 0.28700
C 	C 	0.48730 0.68210 0.42520 0.02900
C 	C 	0.50530 0.76460 0.41930 0.28300
C 	C 	0.75200 0.45520 0.93030 0.01500
C 	C 	0.62120 0.55410 0.96250 0.02000
C 	C 	0.69750 0.51700 0.97190 0.07500
C 	C 	0.33710 0.82440 0.31250 0.26800
C 	C 	0.67710 0.44110 0.83580 0.02800
C 	C 	0.66520 0.43710 0.01910 0.03100
C 	C 	0.71380 0.41470 0.07610 0.27000
C 	C 	0.67300 0.47230 0.91300 0.05800
C 	C 	0.63250 0.48990 0.79150 0.24500
K 	K 	0.65850 0.82592 0.93719 0.66600
K 	K 	0.48413 0.78740 0.63093 0.66400
K 	K 	0.69686 0.79650 0.73157 0.66700
K 	K 	0.48173 0.03830 0.59460 0.66600
O 	O 	0.54800 0.91890 0.68400 -0.18900
U 	U 	0.94376 0.27184 0.93871 0.00700
U 	U 	0.72567 0.37983 0.58766 0.01300
U 	U 	0.79134 0.14399 0.63775 0.00900
U 	U 	0.88022 0.50386 0.88885 0.01500
I 	I 	0.90200 0.17183 0.79248 0.14500
I 	I 	0.81482 0.50641 0.72493 0.17200
O 	O 	0.98500 0.34070 0.94040 -0.12400
O 	O 	0.90040 0.38010 0.94360 -0.04600
O 	O 	0.84970 0.21370 0.72750 -0.13700
O 	O 	0.87860 0.35860 0.88230 -0.08600
O 	O 	0.72710 0.23500 0.59170 -0.05300
O 	O 	0.97170 0.31130 0.03620 -0.21600
O 	O 	0.93730 0.51160 0.90210 -0.11200
O 	O 	0.76200 0.26790 0.65000 -0.09600
O 	O 	0.83440 0.18070 0.50470 -0.22900
O 	O 	0.08170 0.39740 0.94170 -0.35400
O 	O 	0.97930 0.16420 0.91320 -0.20600
O 	O 	0.08370 0.46730 0.01150 -0.21500
O 	O 	0.14460 0.38960 0.18520 -0.18500
O 	O 	0.90790 0.25850 0.83620 -0.14200
O 	O 	0.94740 0.19760 0.78130 -0.16600
O 	O 	0.76850 0.37920 0.57080 -0.11700
O 	O 	0.72700 0.09520 0.54500 -0.21800
O 	O 	0.86630 0.06670 0.70230 -0.16400
O 	O 	0.67780 0.00170 0.48230 -0.24200
O 	O 	0.90790 0.18490 0.58610 -0.30300
O 	O 	0.84700 0.45270 0.79270 -0.12900
O 	O 	0.75700 0.97120 0.39590 -0.17300
O 	O 	0.01080 0.03800 0.92680 -0.20600
O 	O 	0.78390 0.41380 0.68650 -0.13900
O 	O 	0.81950 0.18890 0.60650 -0.11500
O 	O 	0.85980 0.50850 0.71140 -0.10400
O 	O 	0.00160 0.28400 0.12610 -0.24300
O 	O 	0.18500 0.27440 0.23150 -0.20600
O 	O 	0.77950 0.83900 0.41230 -0.19200
O 	O 	0.90070 0.94950 0.75540 -0.16300
N 	N 	0.01700 0.18540 0.02580 -0.08700
N 	N 	0.83030 0.01570 0.50000 -0.08800
N 	N 	0.79760 0.98960 0.60960 -0.08400
N 	N 	0.12080 0.33910 0.08420 -0.08400
C 	C 	0.00040 0.09740 0.94300 0.26800
C 	C 	0.12730 0.34000 0.03720 0.00100
C 	C 	0.71490 0.02080 0.52930 0.28100
C 	C 	0.07370 0.30600 0.06670 0.07100
C 	C 	0.16130 0.29680 0.13430 0.02000
C 	C 	0.06520 0.21700 0.04390 0.04500
C 	C 	0.01250 0.09920 0.00600 0.03300
C 	C 	0.09490 0.40490 0.99350 0.26500
C 	C 	0.87340 0.14670 0.54480 0.28700
C 	C 	0.01270 0.18210 0.07480 0.03100
C 	C 	0.99470 0.26460 0.08070 0.28000
C 	C 	0.74800 0.95520 0.56970 0.01500
C 	C 	0.87880 0.05410 0.53750 0.02200
C 	C 	0.80250 0.01700 0.52810 0.07700
C 	C 	0.16290 0.32440 0.18750 0.26800
C 	C 	0.82290 0.94110 0.66420 0.02900
C 	C 	0.83480 0.93710 0.48090 0.02900
C 	C 	0.78620 0.91470 0.42390 0.27000
C 	C 	0.82700 0.97230 0.58700 0.05800
C 	C 	0.86750 0.98990 0.70850 0.24500
K 	K 	0.84150 0.32592 0.56281 0.66600
K 	K 	0.01587 0.28740 0.86907 0.66400
K 	K 	0.80314 0.29650 0.76843 0.66700
K 	K 	0.01827 0.53830 0.90540 0.66500
O 	O 	0.95200 0.41890 0.81600 -0.18800
U 	U 	0.44376 0.77184 0.93871 0.00700
U 	U 	0.22567 0.87983 0.58766 0.01300
U 	U 	0.29134 0.64399 0.63775 0.00900
U 	U 	0.38022 0.00386 0.88885 0.01400
I 	I 	0.40200 0.67183 0.79248 0.14500
I 	I 	0.31482 0.00641 0.72493 0.17200
O 	O 	0.48500 0.84070 0.94040 -0.12500
O 	O 	0.40040 0.88010 0.94360 -0.04700
O 	O 	0.34970 0.71370 0.72750 -0.13700
O 	O 	0.37860 0.85860 0.88230 -0.08600
O 	O 	0.22710 0.73500 0.59170 -0.05300
O 	O 	0.47170 0.81130 0.03620 -0.21600
O 	O 	0.43730 0.01160 0.90210 -0.11200
O 	O 	0.26200 0.76790 0.65000 -0.09600
O 	O 	0.33440 0.68070 0.50470 -0.22900
O 	O 	0.58170 0.89740 0.94170 -0.35400
O 	O 	0.47930 0.66420 0.91320 -0.20800
O 	O 	0.58370 0.96730 0.01150 -0.21800
O 	O 	0.64460 0.88960 0.18520 -0.18500
O 	O 	0.40790 0.75850 0.83620 -0.14200
O 	O 	0.44740 0.69760 0.78130 -0.16700
O 	O 	0.26850 0.87920 0.57080 -0.11700
O 	O 	0.22700 0.59520 0.54500 -0.21800
O 	O 	0.36630 0.56670 0.70230 -0.16400
O 	O 	0.17780 0.50170 0.48230 -0.24200
O 	O 	0.40790 0.68490 0.58610 -0.30300
O 	O 	0.34700 0.95270 0.79270 -0.12900
O 	O 	0.25700 0.47120 0.39590 -0.17200
O 	O 	0.51080 0.53800 0.92680 -0.20600
O 	O 	0.28390 0.91380 0.68650 -0.13900
O 	O 	0.31950 0.68890 0.60650 -0.11500
O 	O 	0.35980 0.00850 0.71140 -0.10500
O 	O 	0.50160 0.78400 0.12610 -0.24500
O 	O 	0.68500 0.77440 0.23150 -0.20600
O 	O 	0.27950 0.33900 0.41230 -0.19200
O 	O 	0.40070 0.44950 0.75540 -0.16300
N 	N 	0.51700 0.68540 0.02580 -0.08700
N 	N 	0.33030 0.51570 0.50000 -0.08800
N 	N 	0.29760 0.48960 0.60960 -0.08400
N 	N 	0.62080 0.83910 0.08420 -0.08400
C 	C 	0.50040 0.59740 0.94300 0.27200
C 	C 	0.62730 0.84000 0.03720 -0.00200
C 	C 	0.21490 0.52080 0.52930 0.28100
C 	C 	0.57370 0.80600 0.06670 0.07100
C 	C 	0.66130 0.79680 0.13430 0.02000
C 	C 	0.56520 0.71700 0.04390 0.04500
C 	C 	0.51250 0.59920 0.00600 0.03000
C 	C 	0.59490 0.90490 0.99350 0.27000
C 	C 	0.37340 0.64670 0.54480 0.28700
C 	C 	0.51270 0.68210 0.07480 0.02900
C 	C 	0.49470 0.76460 0.08070 0.28300
C 	C 	0.24800 0.45520 0.56970 0.01500
C 	C 	0.37880 0.55410 0.53750 0.02200
C 	C 	0.30250 0.51700 0.52810 0.07700
C 	C 	0.66290 0.82440 0.18750 0.26800
C 	C 	0.32290 0.44110 0.66420 0.02900
C 	C 	0.33480 0.43710 0.48090 0.02900
C 	C 	0.28620 0.41470 0.42390 0.27000
C 	C 	0.32700 0.47230 0.58700 0.05800
C 	C 	0.36750 0.48990 0.70850 0.24500
K 	K 	0.34150 0.82592 0.56281 0.66600
K 	K 	0.51587 0.78740 0.86907 0.66400
K 	K 	0.30314 0.79650 0.76843 0.66700
K 	K 	0.51827 0.03830 0.90540 0.66500
O 	O 	0.45200 0.91890 0.81600 -0.18900
U 	U 	0.94376 0.72816 0.43871 0.00800
U 	U 	0.72567 0.62017 0.08766 0.01300
U 	U 	0.79134 0.85601 0.13775 0.00900
U 	U 	0.88022 0.49614 0.38885 0.01500
I 	I 	0.90200 0.82817 0.29248 0.14500
I 	I 	0.81482 0.49359 0.22493 0.17200
O 	O 	0.98500 0.65930 0.44040 -0.12400
O 	O 	0.90040 0.61990 0.44360 -0.04600
O 	O 	0.84970 0.78630 0.22750 -0.13700
O 	O 	0.87860 0.64140 0.38230 -0.08600
O 	O 	0.72710 0.76500 0.09170 -0.05300
O 	O 	0.97170 0.68870 0.53620 -0.21700
O 	O 	0.93730 0.48840 0.40210 -0.11200
O 	O 	0.76200 0.73210 0.15000 -0.09600
O 	O 	0.83440 0.81930 0.00470 -0.22800
O 	O 	0.08170 0.60260 0.44170 -0.35500
O 	O 	0.97930 0.83580 0.41320 -0.20800
O 	O 	0.08370 0.53270 0.51150 -0.22100
O 	O 	0.14460 0.61040 0.68520 -0.18500
O 	O 	0.90790 0.74150 0.33620 -0.14200
O 	O 	0.94740 0.80240 0.28130 -0.16700
O 	O 	0.76850 0.62080 0.07080 -0.11600
O 	O 	0.72700 0.90480 0.04500 -0.21800
O 	O 	0.86630 0.93330 0.20230 -0.16400
O 	O 	0.67780 0.99830 0.98230 -0.24400
O 	O 	0.90790 0.81510 0.08610 -0.30300
O 	O 	0.84700 0.54730 0.29270 -0.12900
O 	O 	0.75700 0.02880 0.89590 -0.17300
O 	O 	0.01080 0.96200 0.42680 -0.20600
O 	O 	0.78390 0.58620 0.18650 -0.13900
O 	O 	0.81950 0.81110 0.10650 -0.11500
O 	O 	0.85980 0.49150 0.21140 -0.10400
O 	O 	0.00160 0.71600 0.62610 -0.24600
O 	O 	0.18500 0.72560 0.73150 -0.20600
O 	O 	0.77950 0.16100 0.91230 -0.19200
O 	O 	0.90070 0.05050 0.25540 -0.16300
N 	N 	0.01700 0.81460 0.52580 -0.08700
N 	N 	0.83030 0.98430 -0.00000 -0.08700
N 	N 	0.79760 0.01040 0.10960 -0.08400
N 	N 	0.12080 0.66090 0.58420 -0.08400
C 	C 	0.00040 0.90260 0.44300 0.27500
C 	C 	0.12730 0.66000 0.53720 -0.00500
C 	C 	0.71490 0.97920 0.02930 0.28200
C 	C 	0.07370 0.69400 0.56670 0.07000
C 	C 	0.16130 0.70320 0.63430 0.02000
C 	C 	0.06520 0.78300 0.54390 0.04400
C 	C 	0.01250 0.90080 0.50600 0.02700
C 	C 	0.09490 0.59510 0.49350 0.27500
C 	C 	0.87340 0.85330 0.04480 0.28600
C 	C 	0.01270 0.81790 0.57480 0.02800
C 	C 	0.99470 0.73540 0.58070 0.28500
C 	C 	0.74800 0.04480 0.06970 0.01500
C 	C 	0.87880 0.94590 0.03750 0.02300
C 	C 	0.80250 0.98300 0.02810 0.07700
C 	C 	0.16290 0.67560 0.68750 0.26800
C 	C 	0.82290 0.05890 0.16420 0.02900
C 	C 	0.83480 0.06290 0.98090 0.02700
C 	C 	0.78620 0.08530 0.92390 0.27000
C 	C 	0.82700 0.02770 0.08700 0.05900
C 	C 	0.86750 0.01010 0.20850 0.24600
K 	K 	0.84150 0.67408 0.06281 0.66700
K 	K 	0.01587 0.71260 0.36907 0.66400
K 	K 	0.80314 0.70350 0.26843 0.66700
K 	K 	0.01827 0.46170 0.40540 0.66600
O 	O 	0.95200 0.58110 0.31600 -0.18900
U 	U 	0.44376 0.22816 0.43871 0.00800
U 	U 	0.22567 0.12017 0.08766 0.01400
U 	U 	0.29134 0.35601 0.13775 0.00900
U 	U 	0.38022 0.99614 0.38885 0.01400
I 	I 	0.40200 0.32817 0.29248 0.14500
I 	I 	0.31482 0.99359 0.22493 0.17200
O 	O 	0.48500 0.15930 0.44040 -0.12400
O 	O 	0.40040 0.11990 0.44360 -0.04600
O 	O 	0.34970 0.28630 0.22750 -0.13700
O 	O 	0.37860 0.14140 0.38230 -0.08600
O 	O 	0.22710 0.26500 0.09170 -0.05200
O 	O 	0.47170 0.18870 0.53620 -0.21700
O 	O 	0.43730 0.98840 0.40210 -0.11200
O 	O 	0.26200 0.23210 0.15000 -0.09600
O 	O 	0.33440 0.31930 0.00470 -0.22700
O 	O 	0.58170 0.10260 0.44170 -0.35500
O 	O 	0.47930 0.33580 0.41320 -0.20800
O 	O 	0.58370 0.03270 0.51150 -0.22100
O 	O 	0.64460 0.11040 0.68520 -0.18500
O 	O 	0.40790 0.24150 0.33620 -0.14200
O 	O 	0.44740 0.30240 0.28130 -0.16700
O 	O 	0.26850 0.12080 0.07080 -0.11500
O 	O 	0.22700 0.40480 0.04500 -0.21800
O 	O 	0.36630 0.43330 0.20230 -0.16400
O 	O 	0.17780 0.49830 0.98230 -0.24700
O 	O 	0.40790 0.31510 0.08610 -0.30300
O 	O 	0.34700 0.04730 0.29270 -0.12900
O 	O 	0.25700 0.52880 0.89590 -0.17300
O 	O 	0.51080 0.46200 0.42680 -0.20600
O 	O 	0.28390 0.08620 0.18650 -0.13800
O 	O 	0.31950 0.31110 0.10650 -0.11500
O 	O 	0.35980 0.99150 0.21140 -0.10500
O 	O 	0.50160 0.21600 0.62610 -0.24600
O 	O 	0.68500 0.22560 0.73150 -0.20600
O 	O 	0.27950 0.66100 0.91230 -0.19300
O 	O 	0.40070 0.55050 0.25540 -0.16300
N 	N 	0.51700 0.31460 0.52580 -0.08700
N 	N 	0.33030 0.48430 -0.00000 -0.08600
N 	N 	0.29760 0.51040 0.10960 -0.08400
N 	N 	0.62080 0.16090 0.58420 -0.08400
C 	C 	0.50040 0.40260 0.44300 0.27400
C 	C 	0.62730 0.16000 0.53720 -0.00500
C 	C 	0.21490 0.47920 0.02930 0.28600
C 	C 	0.57370 0.19400 0.56670 0.07000
C 	C 	0.66130 0.20320 0.63430 0.02000
C 	C 	0.56520 0.28300 0.54390 0.04400
C 	C 	0.51250 0.40080 0.50600 0.02700
C 	C 	0.59490 0.09510 0.49350 0.27500
C 	C 	0.37340 0.35330 0.04480 0.28600
C 	C 	0.51270 0.31790 0.57480 0.02800
C 	C 	0.49470 0.23540 0.58070 0.28300
C 	C 	0.24800 0.54480 0.06970 0.01500
C 	C 	0.37880 0.44590 0.03750 0.02400
C 	C 	0.30250 0.48300 0.02810 0.07900
C 	C 	0.66290 0.17560 0.68750 0.26800
C 	C 	0.32290 0.55890 0.16420 0.02900
C 	C 	0.33480 0.56290 0.98090 0.02600
C 	C 	0.28620 0.58530 0.92390 0.27000
C 	C 	0.32700 0.52770 0.08700 0.05900
C 	C 	0.36750 0.51010 0.20850 0.24500
K 	K 	0.34150 0.17408 0.06281 0.66700
K 	K 	0.51587 0.21260 0.36907 0.66400
K 	K 	0.30314 0.20350 0.26843 0.66700
K 	K 	0.51827 0.96170 0.40540 0.66600
O 	O 	0.45200 0.08110 0.31600 -0.18900
U 	U 	0.05624 0.72816 0.06129 0.00900
U 	U 	0.27433 0.62017 0.41234 0.01300
U 	U 	0.20866 0.85601 0.36225 0.00900
U 	U 	0.11978 0.49614 0.11115 0.01500
I 	I 	0.09800 0.82817 0.20752 0.14500
I 	I 	0.18518 0.49359 0.27507 0.17200
O 	O 	0.01500 0.65930 0.05960 -0.12300
O 	O 	0.09960 0.61990 0.05640 -0.04500
O 	O 	0.15030 0.78630 0.27250 -0.13700
O 	O 	0.12140 0.64140 0.11770 -0.08600
O 	O 	0.27290 0.76500 0.40830 -0.05300
O 	O 	0.02830 0.68870 0.96380 -0.21900
O 	O 	0.06270 0.48840 0.09790 -0.11100
O 	O 	0.23800 0.73210 0.35000 -0.09600
O 	O 	0.16560 0.81930 0.49530 -0.22900
O 	O 	0.91830 0.60260 0.05830 -0.35600
O 	O 	0.02070 0.83580 0.08680 -0.20700
O 	O 	0.91630 0.53270 0.98850 -0.22300
O 	O 	0.85540 0.61040 0.81480 -0.18500
O 	O 	0.09210 0.74150 0.16380 -0.14200
O 	O 	0.05260 0.80240 0.21870 -0.16600
O 	O 	0.23150 0.62080 0.42920 -0.11700
O 	O 	0.27300 0.90480 0.45500 -0.21800
O 	O 	0.13370 0.93330 0.29770 -0.16400
O 	O 	0.32220 0.99830 0.51770 -0.24200
O 	O 	0.09210 0.81510 0.41390 -0.30300
O 	O 	0.15300 0.54730 0.20730 -0.12900
O 	O 	0.24300 0.02880 0.60410 -0.17200
O 	O 	0.98920 0.96200 0.07320 -0.20600
O 	O 	0.21610 0.58620 0.31350 -0.13900
O 	O 	0.18050 0.81110 0.39350 -0.11500
O 	O 	0.14020 0.49150 0.28860 -0.10400
O 	O 	0.99840 0.71600 0.87390 -0.24300
O 	O 	0.81500 0.72560 0.76850 -0.20600
O 	O 	0.22050 0.16100 0.58770 -0.19200
O 	O 	0.09930 0.05050 0.24460 -0.16300
N 	N 	0.98300 0.81460 0.97420 -0.08700
N 	N 	0.16970 0.98430 0.50000 -0.08800
N 	N 	0.20240 0.01040 0.39040 -0.08400
N 	N 	0.87920 0.66090 0.91580 -0.08400
C 	C 	0.99960 0.90260 0.05700 0.27400
C 	C 	0.87270 0.66000 0.96280 -0.00700
C 	C 	0.28510 0.97920 0.47070 0.28000
C 	C 	0.92630 0.69400 0.93330 0.07000
C 	C 	0.83870 0.70320 0.86570 0.02000
C 	C 	0.93480 0.78300 0.95610 0.04400
C 	C 	0.98750 0.90080 0.99400 0.02700
C 	C 	0.90510 0.59510 0.00650 0.27800
C 	C 	0.12660 0.85330 0.45520 0.28700
C 	C 	0.98730 0.81790 0.92520 0.03000
C 	C 	0.00530 0.73540 0.91930 0.28000
C 	C 	0.25200 0.04480 0.43030 0.01500
C 	C 	0.12120 0.94590 0.46250 0.02200
C 	C 	0.19750 0.98300 0.47190 0.07700
C 	C 	0.83710 0.67560 0.81250 0.26800
C 	C 	0.17710 0.05890 0.33580 0.02900
C 	C 	0.16520 0.06290 0.51910 0.02900
C 	C 	0.21380 0.08530 0.57610 0.27000
C 	C 	0.17300 0.02770 0.41300 0.05800
C 	C 	0.13250 0.01010 0.29150 0.24500
K 	K 	0.15850 0.67408 0.43719 0.66600
K 	K 	0.98413 0.71260 0.13093 0.66400
K 	K 	0.19686 0.70350 0.23157 0.66700
K 	K 	0.98173 0.46170 0.09460 0.66600
O 	O 	0.04800 0.58110 0.18400 -0.18800
U 	U 	0.55624 0.22816 0.06129 0.00900
U 	U 	0.77433 0.12017 0.41234 0.01300
U 	U 	0.70866 0.35601 0.36225 0.00900
U 	U 	0.61978 0.99614 0.11115 0.01400
I 	I 	0.59800 0.32817 0.20752 0.14500
I 	I 	0.68518 0.99359 0.27507 0.17200
O 	O 	0.51500 0.15930 0.05960 -0.12300
O 	O 	0.59960 0.11990 0.05640 -0.04500
O 	O 	0.65030 0.28630 0.27250 -0.13700
O 	O 	0.62140 0.14140 0.11770 -0.08600
O 	O 	0.77290 0.26500 0.40830 -0.05300
O 	O 	0.52830 0.18870 0.96380 -0.21900
O 	O 	0.56270 0.98840 0.09790 -0.11200
O 	O 	0.73800 0.23210 0.35000 -0.09600
O 	O 	0.66560 0.31930 0.49530 -0.22900
O 	O 	0.41830 0.10260 0.05830 -0.35600
O 	O 	0.52070 0.33580 0.08680 -0.20800
O 	O 	0.41630 0.03270 0.98850 -0.22600
O 	O 	0.35540 0.11040 0.81480 -0.18500
O 	O 	0.59210 0.24150 0.16380 -0.14200
O 	O 	0.55260 0.30240 0.21870 -0.16700
O 	O 	0.73150 0.12080 0.42920 -0.11700
O 	O 	0.77300 0.40480 0.45500 -0.21800
O 	O 	0.63370 0.43330 0.29770 -0.16400
O 	O 	0.82220 0.49830 0.51770 -0.24200
O 	O 	0.59210 0.31510 0.41390 -0.30300
O 	O 	0.65300 0.04730 0.20730 -0.12800
O 	O 	0.74300 0.52880 0.60410 -0.17200
O 	O 	0.48920 0.46200 0.07320 -0.20600
O 	O 	0.71610 0.08620 0.31350 -0.13800
O 	O 	0.68050 0.31110 0.39350 -0.11500
O 	O 	0.64020 0.99150 0.28860 -0.10500
O 	O 	0.49840 0.21600 0.87390 -0.24600
O 	O 	0.31500 0.22560 0.76850 -0.20600
O 	O 	0.72050 0.66100 0.58770 -0.19200
O 	O 	0.59930 0.55050 0.24460 -0.16300
N 	N 	0.48300 0.31460 0.97420 -0.08700
N 	N 	0.66970 0.48430 0.50000 -0.08800
N 	N 	0.70240 0.51040 0.39040 -0.08400
N 	N 	0.37920 0.16090 0.91580 -0.08300
C 	C 	0.49960 0.40260 0.05700 0.27700
C 	C 	0.37270 0.16000 0.96280 -0.01000
C 	C 	0.78510 0.47920 0.47070 0.28100
C 	C 	0.42630 0.19400 0.93330 0.07000
C 	C 	0.33870 0.20320 0.86570 0.01900
C 	C 	0.43480 0.28300 0.95610 0.04300
C 	C 	0.48750 0.40080 0.99400 0.02400
C 	C 	0.40510 0.09510 0.00650 0.28300
C 	C 	0.62660 0.35330 0.45520 0.28700
C 	C 	0.48730 0.31790 0.92520 0.02800
C 	C 	0.50530 0.23540 0.91930 0.28300
C 	C 	0.75200 0.54480 0.43030 0.01500
C 	C 	0.62120 0.44590 0.46250 0.02200
C 	C 	0.69750 0.48300 0.47190 0.07700
C 	C 	0.33710 0.17560 0.81250 0.26800
C 	C 	0.67710 0.55890 0.33580 0.02900
C 	C 	0.66520 0.56290 0.51910 0.02900
C 	C 	0.71380 0.58530 0.57610 0.27000
C 	C 	0.67300 0.52770 0.41300 0.05800
C 	C 	0.63250 0.51010 0.29150 0.24500
K 	K 	0.65850 0.17408 0.43719 0.66600
K 	K 	0.48413 0.21260 0.13093 0.66400
K 	K 	0.69686 0.20350 0.23157 0.66700
K 	K 	0.48173 0.96170 0.09460 0.66600
O 	O 	0.54800 0.08110 0.18400 -0.18900
