data_crystal

_cell_length_a 12.01600
_cell_length_b 12.16700
_cell_length_c 13.85000
_cell_angle_alpha 90.00000
_cell_angle_beta  90.00000
_cell_angle_gamma 90.00000

_symmetry_space_group_name_	'P 1'
_symmetry_space_group_name_H-M	'P 1'

loop_
_symmetry_equiv_pos_as_xyz
  x,y,z

loop_
_atom_site_label
_atom_site_type_symbol
_atom_site_fract_x
_atom_site_fract_y
_atom_site_fract_z
_atom_site_charge
Cu	Cu	0.53088 0.33357 0.11720 0.85700
Cu	Cu	0.75941 0.24733 0.25195 0.84400
Cu	Cu	0.46912 0.66643 0.11720 0.85700
Cu	Cu	0.24059 0.75267 0.25195 0.84400
Cu	Cu	0.96912 0.83357 0.38280 0.85500
Cu	Cu	0.74059 0.74733 0.24805 0.84300
Cu	Cu	0.03088 0.16643 0.38280 0.85500
Cu	Cu	0.25941 0.25267 0.24805 0.84300
Cu	Cu	0.46912 0.66643 0.88280 0.84500
Cu	Cu	0.24059 0.75267 0.74805 0.84000
Cu	Cu	0.53088 0.33357 0.88280 0.84500
Cu	Cu	0.75941 0.24733 0.74805 0.84000
Cu	Cu	0.03088 0.16643 0.61720 0.85300
Cu	Cu	0.25941 0.25267 0.75195 0.84100
Cu	Cu	0.96912 0.83357 0.61720 0.85300
Cu	Cu	0.74059 0.74733 0.75195 0.84100
H 	H 	0.16950 0.49500 0.30690 -0.04000
H 	H 	0.40540 0.12880 0.40840 -0.02300
H 	H 	0.83050 0.50500 0.30690 -0.04000
H 	H 	0.59460 0.87120 0.40840 -0.02300
H 	H 	0.33050 0.99500 0.19310 -0.03800
H 	H 	0.09460 0.62880 0.09160 -0.01600
H 	H 	0.66950 0.00500 0.19310 -0.03800
H 	H 	0.90540 0.37120 0.09160 -0.01600
H 	H 	0.83050 0.50500 0.69310 -0.04000
H 	H 	0.59460 0.87120 0.59160 -0.02300
H 	H 	0.16950 0.49500 0.69310 -0.04000
H 	H 	0.40540 0.12880 0.59160 -0.02300
H 	H 	0.66950 0.00500 0.80690 -0.04400
H 	H 	0.90540 0.37120 0.90840 -0.03200
H 	H 	0.33050 0.99500 0.80690 -0.04400
H 	H 	0.09460 0.62880 0.90840 -0.03200
H 	H 	0.18440 0.16370 -0.00000 -0.01600
H 	H 	0.61080 0.45830 -0.00000 0.29100
H 	H 	0.81560 0.83630 -0.00000 -0.01600
H 	H 	0.38920 0.54170 -0.00000 0.29100
H 	H 	0.31560 0.66370 0.50000 -0.01300
H 	H 	0.88920 0.95830 0.50000 0.28600
H 	H 	0.68440 0.33630 0.50000 -0.01300
H 	H 	0.11080 0.04170 0.50000 0.28600
C 	C 	0.23340 0.49950 0.26920 0.11200
C 	C 	0.45250 0.16100 0.36330 0.09100
C 	C 	0.76660 0.50050 0.26920 0.11200
C 	C 	0.54750 0.83900 0.36330 0.09100
C 	C 	0.26660 0.99950 0.23080 0.11400
C 	C 	0.04750 0.66100 0.13670 0.09400
C 	C 	0.73340 0.00050 0.23080 0.11400
C 	C 	0.95250 0.33900 0.13670 0.09400
C 	C 	0.76660 0.50050 0.73080 0.11000
C 	C 	0.54750 0.83900 0.63670 0.09100
C 	C 	0.23340 0.49950 0.73080 0.11000
C 	C 	0.45250 0.16100 0.63670 0.09100
C 	C 	0.73340 0.00050 0.76920 0.11100
C 	C 	0.95250 0.33900 0.86330 0.09000
C 	C 	0.26660 0.99950 0.76920 0.11100
C 	C 	0.04750 0.66100 0.86330 0.09000
C 	C 	0.25530 0.19430 -0.00000 0.14300
C 	C 	0.74470 0.80570 -0.00000 0.14300
C 	C 	0.24470 0.69430 0.50000 0.10400
C 	C 	0.75530 0.30570 0.50000 0.10400
N 	N 	0.29140 0.41420 0.23760 -0.20800
N 	N 	0.37590 0.45390 0.18620 -0.11000
N 	N 	0.36860 0.56090 0.18730 -0.16600
N 	N 	0.28010 0.59270 0.23910 -0.21300
N 	N 	0.59710 0.21320 0.28910 -0.16200
N 	N 	0.51090 0.24790 0.24050 -0.17100
N 	N 	0.41840 0.21730 0.28590 -0.20400
N 	N 	0.56340 0.15730 0.36700 -0.09900
N 	N 	0.40690 0.25670 0.04810 -0.15800
N 	N 	0.31050 0.21810 0.08010 -0.16400
N 	N 	0.70860 0.58580 0.23760 -0.20800
N 	N 	0.62410 0.54610 0.18620 -0.11000
N 	N 	0.63140 0.43910 0.18730 -0.16600
N 	N 	0.71990 0.40730 0.23910 -0.21300
N 	N 	0.40290 0.78680 0.28910 -0.16200
N 	N 	0.48910 0.75210 0.24050 -0.17100
N 	N 	0.58160 0.78270 0.28590 -0.20400
N 	N 	0.43660 0.84270 0.36700 -0.09900
N 	N 	0.59310 0.74330 0.04810 -0.15800
N 	N 	0.68950 0.78190 0.08010 -0.16400
N 	N 	0.20860 0.91420 0.26240 -0.20800
N 	N 	0.12410 0.95390 0.31380 -0.10900
N 	N 	0.13140 0.06090 0.31270 -0.16800
N 	N 	0.21990 0.09270 0.26090 -0.21400
N 	N 	0.90290 0.71320 0.21090 -0.16200
N 	N 	0.98910 0.74790 0.25950 -0.17200
N 	N 	0.08160 0.71730 0.21410 -0.20200
N 	N 	0.93660 0.65730 0.13300 -0.09500
N 	N 	0.09310 0.75670 0.45190 -0.17100
N 	N 	0.18950 0.71810 0.41990 -0.16000
N 	N 	0.79140 0.08580 0.26240 -0.20800
N 	N 	0.87590 0.04610 0.31380 -0.10900
N 	N 	0.86860 0.93910 0.31270 -0.16800
N 	N 	0.78010 0.90730 0.26090 -0.21400
N 	N 	0.09710 0.28680 0.21090 -0.16200
N 	N 	0.01090 0.25210 0.25950 -0.17200
N 	N 	0.91840 0.28270 0.21410 -0.20200
N 	N 	0.06340 0.34270 0.13300 -0.09500
N 	N 	0.90690 0.24330 0.45190 -0.17100
N 	N 	0.81050 0.28190 0.41990 -0.16000
N 	N 	0.70860 0.58580 0.76240 -0.21000
N 	N 	0.62410 0.54610 0.81380 -0.11500
N 	N 	0.63140 0.43910 0.81270 -0.17100
N 	N 	0.71990 0.40730 0.76090 -0.21500
N 	N 	0.40290 0.78680 0.71090 -0.16400
N 	N 	0.48910 0.75210 0.75950 -0.17300
N 	N 	0.58160 0.78270 0.71410 -0.20400
N 	N 	0.43660 0.84270 0.63300 -0.09900
N 	N 	0.59310 0.74330 0.95190 -0.19000
N 	N 	0.68950 0.78190 0.91990 -0.18100
N 	N 	0.29140 0.41420 0.76240 -0.21000
N 	N 	0.37590 0.45390 0.81380 -0.11500
N 	N 	0.36860 0.56090 0.81270 -0.17100
N 	N 	0.28010 0.59270 0.76090 -0.21500
N 	N 	0.59710 0.21320 0.71090 -0.16400
N 	N 	0.51090 0.24790 0.75950 -0.17300
N 	N 	0.41840 0.21730 0.71410 -0.20400
N 	N 	0.56340 0.15730 0.63300 -0.09900
N 	N 	0.40690 0.25670 0.95190 -0.19000
N 	N 	0.31050 0.21810 0.91990 -0.18100
N 	N 	0.79140 0.08580 0.73760 -0.21100
N 	N 	0.87590 0.04610 0.68620 -0.11100
N 	N 	0.86860 0.93910 0.68730 -0.16900
N 	N 	0.78010 0.90730 0.73910 -0.21600
N 	N 	0.09710 0.28680 0.78910 -0.16500
N 	N 	0.01090 0.25210 0.74050 -0.17300
N 	N 	0.91840 0.28270 0.78590 -0.20500
N 	N 	0.06340 0.34270 0.86700 -0.10600
N 	N 	0.90690 0.24330 0.54810 -0.17100
N 	N 	0.81050 0.28190 0.58010 -0.16000
N 	N 	0.20860 0.91420 0.73760 -0.21100
N 	N 	0.12410 0.95390 0.68620 -0.11100
N 	N 	0.13140 0.06090 0.68730 -0.16900
N 	N 	0.21990 0.09270 0.73910 -0.21600
N 	N 	0.90290 0.71320 0.78910 -0.16500
N 	N 	0.98910 0.74790 0.74050 -0.17300
N 	N 	0.08160 0.71730 0.78590 -0.20500
N 	N 	0.93660 0.65730 0.86700 -0.10600
N 	N 	0.09310 0.75670 0.54810 -0.17100
N 	N 	0.18950 0.71810 0.58010 -0.16000
O 	O 	0.56150 0.41060 -0.00000 -0.69500
O 	O 	0.43850 0.58940 -0.00000 -0.69500
O 	O 	0.93850 0.91060 0.50000 -0.71000
O 	O 	0.06150 0.08940 0.50000 -0.71000
