data_crystal

_cell_length_a 15.52590
_cell_length_b 11.86700
_cell_length_c 9.41290
_cell_angle_alpha 90.00000
_cell_angle_beta  113.08900
_cell_angle_gamma 90.00000

_symmetry_space_group_name_	'P 1'
_symmetry_space_group_name_H-M	'P 1'

loop_
_symmetry_equiv_pos_as_xyz
  x,y,z

loop_
_atom_site_label
_atom_site_type_symbol
_atom_site_fract_x
_atom_site_fract_y
_atom_site_fract_z
_atom_site_charge
O 	O 	0.78430 0.87420 0.86860 -0.32300
O 	O 	0.92320 0.87910 0.84850 -0.28900
O 	O 	0.75370 0.61650 0.85280 -0.33700
O 	O 	0.60770 0.67180 0.71720 -0.27400
H 	H 	0.92160 0.05710 0.18410 0.49200
C 	C 	0.82180 0.82700 0.53150 -0.01100
H 	H 	0.87050 0.87840 0.55280 0.07700
C 	C 	0.79490 0.79350 0.64930 -0.02400
C 	C 	0.72280 0.71520 0.61890 -0.03300
C 	C 	0.83800 0.85350 0.80280 0.35600
C 	C 	0.69340 0.66610 0.74140 0.33000
O 	O 	0.28430 0.37420 0.86860 -0.35400
O 	O 	0.42320 0.37910 0.84850 -0.34100
O 	O 	0.25370 0.11650 0.85280 -0.36000
O 	O 	0.10770 0.17180 0.71720 -0.30700
H 	H 	0.42160 0.55710 0.18410 0.45200
C 	C 	0.32180 0.32700 0.53150 -0.01300
H 	H 	0.37050 0.37840 0.55280 0.05600
C 	C 	0.29490 0.29350 0.64930 -0.04000
C 	C 	0.22280 0.21520 0.61890 -0.04900
C 	C 	0.33800 0.35350 0.80280 0.36100
C 	C 	0.19340 0.16610 0.74140 0.33300
O 	O 	0.21570 0.87420 0.13140 -0.42700
O 	O 	0.07680 0.87910 0.15150 -0.40700
O 	O 	0.24630 0.61650 0.14720 -0.40600
O 	O 	0.39230 0.67180 0.28280 -0.30100
H 	H 	0.07840 0.05710 0.81590 0.46100
C 	C 	0.17820 0.82700 0.46850 0.00300
H 	H 	0.12950 0.87840 0.44720 0.05400
C 	C 	0.20510 0.79350 0.35070 -0.06000
C 	C 	0.27720 0.71520 0.38110 -0.03300
C 	C 	0.16200 0.85350 0.19720 0.38500
C 	C 	0.30660 0.66610 0.25860 0.33300
O 	O 	0.71570 0.37420 0.13140 -0.45000
O 	O 	0.57680 0.37910 0.15150 -0.41700
O 	O 	0.74630 0.11650 0.14720 -0.41500
O 	O 	0.89230 0.17180 0.28280 -0.29900
H 	H 	0.57840 0.55710 0.81590 0.43700
C 	C 	0.67820 0.32700 0.46850 0.00100
H 	H 	0.62950 0.37840 0.44720 0.05000
C 	C 	0.70510 0.29350 0.35070 -0.06300
C 	C 	0.77720 0.21520 0.38110 -0.03300
C 	C 	0.66200 0.35350 0.19720 0.38300
C 	C 	0.80660 0.16610 0.25860 0.32800
O 	O 	0.21570 0.12580 0.13140 -0.46600
O 	O 	0.07680 0.12090 0.15150 -0.44300
O 	O 	0.24630 0.38350 0.14720 -0.40600
O 	O 	0.39230 0.32820 0.28280 -0.31100
H 	H 	0.07840 0.94290 0.81590 0.51500
C 	C 	0.17820 0.17300 0.46850 0.00800
H 	H 	0.12950 0.12160 0.44720 0.02600
C 	C 	0.20510 0.20650 0.35070 -0.07800
C 	C 	0.27720 0.28480 0.38110 -0.03200
C 	C 	0.16200 0.14650 0.19720 0.38500
C 	C 	0.30660 0.33390 0.25860 0.33000
O 	O 	0.71570 0.62580 0.13140 -0.44900
O 	O 	0.57680 0.62090 0.15150 -0.41200
O 	O 	0.74630 0.88350 0.14720 -0.37200
O 	O 	0.89230 0.82820 0.28280 -0.28700
H 	H 	0.57840 0.44290 0.81590 0.43600
C 	C 	0.67820 0.67300 0.46850 0.01000
H 	H 	0.62950 0.62160 0.44720 0.05000
C 	C 	0.70510 0.70650 0.35070 -0.06300
C 	C 	0.77720 0.78480 0.38110 -0.01600
C 	C 	0.66200 0.64650 0.19720 0.38700
C 	C 	0.80660 0.83390 0.25860 0.32600
O 	O 	0.78430 0.12580 0.86860 -0.35500
O 	O 	0.92320 0.12090 0.84850 -0.31600
O 	O 	0.75370 0.38350 0.85280 -0.33600
O 	O 	0.60770 0.32820 0.71720 -0.28300
H 	H 	0.92160 0.94290 0.18410 0.54200
C 	C 	0.82180 0.17300 0.53150 -0.00800
H 	H 	0.87050 0.12160 0.55280 0.05200
C 	C 	0.79490 0.20650 0.64930 -0.04000
C 	C 	0.72280 0.28480 0.61890 -0.03300
C 	C 	0.83800 0.14650 0.80280 0.35500
C 	C 	0.69340 0.33390 0.74140 0.32800
O 	O 	0.28430 0.62580 0.86860 -0.35500
O 	O 	0.42320 0.62090 0.84850 -0.33700
O 	O 	0.25370 0.88350 0.85280 -0.31900
O 	O 	0.10770 0.82820 0.71720 -0.29300
H 	H 	0.42160 0.44290 0.18410 0.45100
C 	C 	0.32180 0.67300 0.53150 -0.00300
H 	H 	0.37050 0.62160 0.55280 0.05500
C 	C 	0.29490 0.70650 0.64930 -0.04200
C 	C 	0.22280 0.78480 0.61890 -0.03000
C 	C 	0.33800 0.64650 0.80280 0.36600
C 	C 	0.19340 0.83390 0.74140 0.33200
Ni	Ni	0.77296 0.00000 0.00569 1.06400
O 	O 	0.91690 0.00000 0.13000 -1.18900
Ni	Ni	0.27296 0.50000 0.00569 1.08400
O 	O 	0.41690 0.50000 0.13000 -1.08100
Ni	Ni	0.22704 0.00000 0.99431 1.14800
O 	O 	0.08310 0.00000 0.87000 -1.11600
Ni	Ni	0.72704 0.50000 0.99431 1.17200
O 	O 	0.58310 0.50000 0.87000 -0.98500
Ni	Ni	-0.00000 0.00000 -0.00000 1.08400
Ni	Ni	0.50000 0.50000 -0.00000 1.12400
