data_crystal

_cell_length_a 52.62300
_cell_length_b 52.62300
_cell_length_c 52.62300
_cell_angle_alpha 90.00000
_cell_angle_beta  90.00000
_cell_angle_gamma 90.00000

_symmetry_space_group_name_	'P 1'
_symmetry_space_group_name_H-M	'P 1'

loop_
_symmetry_equiv_pos_as_xyz
  x,y,z

loop_
_atom_site_label
_atom_site_type_symbol
_atom_site_fract_x
_atom_site_fract_y
_atom_site_fract_z
_atom_site_charge
Zn	Zn	0.21976 0.37890 0.87599 1.22200
Zn	Zn	0.27720 0.37437 0.88053 1.21700
Zn	Zn	0.24899 0.42790 0.87944 1.22000
Zn	Zn	0.24980 0.39437 0.92958 1.22100
Zn	Zn	0.11862 0.37313 0.76855 1.21900
Zn	Zn	0.11224 0.38376 0.70935 1.22100
Zn	Zn	0.09781 0.42855 0.74644 1.22100
Zn	Zn	0.06424 0.37974 0.74368 1.22100
O 	O 	0.24089 0.38302 0.83831 -0.46100
O 	O 	0.34290 0.37023 0.78185 -0.46900
O 	O 	0.33466 0.38467 0.74299 -0.41100
O 	O 	0.15573 0.37604 0.75524 -0.44300
O 	O 	0.14911 0.39310 0.71670 -0.45800
O 	O 	0.25271 0.38646 0.66219 -0.47700
O 	O 	0.21180 0.37960 0.65316 -0.47700
O 	O 	0.19440 0.40102 0.85969 -0.45900
O 	O 	0.21654 0.43710 0.86345 -0.48600
O 	O 	0.12692 0.40207 0.79365 -0.46200
O 	O 	0.11558 0.43939 0.77680 -0.48600
O 	O 	0.11475 0.55246 0.78107 -0.47100
O 	O 	0.18700 0.58122 0.87288 -0.45400
O 	O 	0.21523 0.55170 0.86070 -0.47600
O 	O 	0.19694 0.37479 0.90851 -0.45800
O 	O 	0.22069 0.37793 0.94362 -0.48800
O 	O 	0.13900 0.27657 0.94078 -0.48400
O 	O 	0.13026 0.30355 0.90919 -0.40900
O 	O 	0.19874 0.36438 0.09392 -0.47800
O 	O 	0.21882 0.37745 0.05812 -0.48600
O 	O 	0.13746 0.27334 0.05211 -0.48600
O 	O 	0.13733 0.29439 0.08841 -0.45700
O 	O 	0.04068 0.40836 0.74330 -0.50600
O 	O 	0.06346 0.44336 0.74781 -0.49500
O 	O 	0.95119 0.40782 0.74678 -0.49200
O 	O 	0.92865 0.44378 0.75155 -0.48400
O 	O 	0.09821 0.39243 0.74300 -0.92300
O 	O 	0.24912 0.39401 0.89306 -0.94700
C 	C 	0.26170 0.37580 0.83172 0.39300
C 	C 	0.26830 0.37670 0.80378 -0.08700
C 	C 	0.29380 0.37580 0.79671 0.03100
H 	H 	0.30670 0.37420 0.80930 0.05600
C 	C 	0.30026 0.37730 0.77135 -0.08300
C 	C 	0.32818 0.37780 0.76490 0.37000
C 	C 	0.28140 0.37890 0.75301 -0.01400
H 	H 	0.28600 0.37960 0.73560 0.05400
C 	C 	0.24958 0.37880 0.78524 -0.01300
H 	H 	0.23230 0.37990 0.79020 0.05500
C 	C 	0.25573 0.37940 0.75966 0.00700
C 	C 	0.23546 0.38050 0.73980 -0.00400
C 	C 	0.24142 0.38190 0.71433 -0.00200
H 	H 	0.25880 0.38210 0.70940 0.04900
C 	C 	0.20955 0.38070 0.74590 -0.00400
H 	H 	0.20450 0.37910 0.76320 0.04900
C 	C 	0.19107 0.38300 0.72730 -0.09800
C 	C 	0.16320 0.38340 0.73370 0.37300
C 	C 	0.19780 0.38450 0.70260 0.05000
H 	H 	0.18510 0.38670 0.68990 0.04200
C 	C 	0.22295 0.38300 0.69569 -0.10400
C 	C 	0.22990 0.38360 0.66802 0.39100
C 	C 	0.19782 0.42453 0.85589 0.38800
C 	C 	0.17762 0.43866 0.84154 -0.09500
C 	C 	0.16109 0.42548 0.82584 0.04300
H 	H 	0.16140 0.40740 0.82520 0.04800
C 	C 	0.14411 0.43927 0.81099 -0.10100
C 	C 	0.12749 0.42571 0.79229 0.40100
C 	C 	0.14289 0.46546 0.81291 -0.00600
H 	H 	0.13080 0.47460 0.80310 0.05300
C 	C 	0.17666 0.46505 0.84303 -0.00900
H 	H 	0.18820 0.47380 0.85380 0.05300
C 	C 	0.15920 0.47850 0.82904 0.00200
C 	C 	0.15759 0.50731 0.83082 -0.00300
C 	C 	0.13979 0.52100 0.81695 -0.00300
H 	H 	0.12850 0.51220 0.80590 0.05000
C 	C 	0.13819 0.54744 0.81887 -0.09800
O 	O 	0.11170 0.58271 0.81034 -0.45700
C 	C 	0.15457 0.56039 0.83470 0.05000
H 	H 	0.15300 0.57830 0.83680 0.03700
C 	C 	0.17320 0.54711 0.84740 -0.10100
C 	C 	0.19280 0.56120 0.86200 0.38000
C 	C 	0.17470 0.52124 0.84530 -0.00000
H 	H 	0.18790 0.51250 0.85400 0.04900
C 	C 	0.20120 0.37050 0.93100 0.38500
C 	C 	0.18310 0.35330 0.94510 -0.09100
C 	C 	0.16780 0.33690 0.93122 0.03100
H 	H 	0.16680 0.33810 0.91320 0.04700
C 	C 	0.15400 0.31850 0.94433 -0.08500
C 	C 	0.13950 0.29850 0.93015 0.36300
C 	C 	0.15490 0.31790 0.97095 -0.01500
H 	H 	0.14530 0.30540 0.97970 0.05300
C 	C 	0.18380 0.35218 0.97182 -0.01500
H 	H 	0.19450 0.36350 0.98090 0.05300
C 	C 	0.16920 0.33501 0.98495 0.00600
C 	C 	0.16970 0.33356 0.01376 -0.00500
C 	C 	0.18423 0.35022 0.02835 -0.00400
H 	H 	0.19410 0.36290 0.02000 0.04900
C 	C 	0.18472 0.34884 0.05464 -0.09800
C 	C 	0.20220 0.36515 0.06979 0.38200
C 	C 	0.17039 0.33080 0.06715 0.04200
H 	H 	0.17000 0.33020 0.08520 0.04700
C 	C 	0.15639 0.31338 0.05246 -0.10000
C 	C 	0.14259 0.29214 0.06586 0.40600
C 	C 	0.15650 0.31468 0.02626 -0.00300
H 	H 	0.14730 0.30240 0.01670 0.05100
C 	C 	0.04304 0.43151 0.74630 0.42000
C 	C 	0.01866 0.44624 0.74720 -0.11400
C 	C 	0.99579 0.43314 0.74750 0.05300
H 	H 	0.99560 0.41510 0.74660 0.04700
C 	C 	0.97357 0.44632 0.74900 -0.10900
C 	C 	0.94931 0.43162 0.74920 0.38700
C 	C 	0.97338 0.47250 0.75000 -0.00200
H 	H 	0.95770 0.48130 0.75140 0.04900
C 	C 	0.99617 0.48598 0.74900 -0.00500
C 	C 	0.01882 0.47240 0.74840 0.00100
H 	H 	0.03460 0.48120 0.74890 0.04900
O 	O 	0.27918 0.36707 0.84533 -0.48600
C 	C 	0.11995 0.56176 0.80220 0.38700
Zn	Zn	0.71976 0.87890 0.37599 1.22100
Zn	Zn	0.77720 0.87437 0.38053 1.21600
Zn	Zn	0.74899 0.92790 0.37944 1.21900
Zn	Zn	0.74980 0.89437 0.42958 1.22000
Zn	Zn	0.61862 0.87313 0.26855 1.21800
Zn	Zn	0.61224 0.88376 0.20935 1.22000
Zn	Zn	0.59781 0.92855 0.24644 1.22000
Zn	Zn	0.56424 0.87974 0.24368 1.22000
O 	O 	0.74089 0.88302 0.33831 -0.46200
O 	O 	0.84290 0.87023 0.28185 -0.47000
O 	O 	0.83466 0.88467 0.24299 -0.41200
O 	O 	0.65573 0.87604 0.25524 -0.44400
O 	O 	0.64911 0.89310 0.21670 -0.45900
O 	O 	0.75271 0.88646 0.16219 -0.47800
O 	O 	0.71180 0.87960 0.15316 -0.47800
O 	O 	0.69440 0.90102 0.35969 -0.46000
O 	O 	0.71654 0.93710 0.36345 -0.48700
O 	O 	0.62692 0.90207 0.29365 -0.46300
O 	O 	0.61558 0.93939 0.27680 -0.48700
O 	O 	0.61475 0.05246 0.28107 -0.47200
O 	O 	0.68700 0.08122 0.37288 -0.45500
O 	O 	0.71523 0.05170 0.36070 -0.47700
O 	O 	0.69694 0.87479 0.40851 -0.45900
O 	O 	0.72069 0.87793 0.44362 -0.48900
O 	O 	0.63900 0.77657 0.44078 -0.48500
O 	O 	0.63026 0.80355 0.40919 -0.41000
O 	O 	0.69874 0.86438 0.59392 -0.47900
O 	O 	0.71882 0.87745 0.55812 -0.48700
O 	O 	0.63746 0.77334 0.55211 -0.48700
O 	O 	0.63733 0.79439 0.58841 -0.45800
O 	O 	0.54068 0.90836 0.24330 -0.50700
O 	O 	0.56346 0.94336 0.24781 -0.49600
O 	O 	0.45119 0.90782 0.24678 -0.49300
O 	O 	0.42865 0.94378 0.25155 -0.48500
O 	O 	0.59821 0.89243 0.24300 -0.92400
O 	O 	0.74912 0.89401 0.39306 -0.94800
C 	C 	0.76170 0.87580 0.33172 0.39200
C 	C 	0.76830 0.87670 0.30378 -0.08800
C 	C 	0.79380 0.87580 0.29671 0.03000
H 	H 	0.80670 0.87420 0.30930 0.05500
C 	C 	0.80026 0.87730 0.27135 -0.08400
C 	C 	0.82818 0.87780 0.26490 0.36900
C 	C 	0.78140 0.87890 0.25301 -0.01500
H 	H 	0.78600 0.87960 0.23560 0.05300
C 	C 	0.74958 0.87880 0.28524 -0.01400
H 	H 	0.73230 0.87990 0.29020 0.05400
C 	C 	0.75573 0.87940 0.25966 0.00600
C 	C 	0.73546 0.88050 0.23980 -0.00500
C 	C 	0.74142 0.88190 0.21433 -0.00200
H 	H 	0.75880 0.88210 0.20940 0.04900
C 	C 	0.70955 0.88070 0.24590 -0.00400
H 	H 	0.70450 0.87910 0.26320 0.04900
C 	C 	0.69107 0.88300 0.22730 -0.09800
C 	C 	0.66320 0.88340 0.23370 0.37300
C 	C 	0.69780 0.88450 0.20260 0.05000
H 	H 	0.68510 0.88670 0.18990 0.04200
C 	C 	0.72295 0.88300 0.19569 -0.10400
C 	C 	0.72990 0.88360 0.16802 0.39100
C 	C 	0.69782 0.92453 0.35589 0.38800
C 	C 	0.67762 0.93866 0.34154 -0.09500
C 	C 	0.66109 0.92548 0.32584 0.04300
H 	H 	0.66140 0.90740 0.32520 0.04800
C 	C 	0.64411 0.93927 0.31099 -0.10100
C 	C 	0.62749 0.92571 0.29229 0.40100
C 	C 	0.64289 0.96546 0.31291 -0.00600
H 	H 	0.63080 0.97460 0.30310 0.05300
C 	C 	0.67666 0.96505 0.34303 -0.00900
H 	H 	0.68820 0.97380 0.35380 0.05300
C 	C 	0.65920 0.97850 0.32904 0.00200
C 	C 	0.65759 0.00731 0.33082 -0.00300
C 	C 	0.63979 0.02100 0.31695 -0.00300
H 	H 	0.62850 0.01220 0.30590 0.05000
C 	C 	0.63819 0.04744 0.31887 -0.09800
O 	O 	0.61170 0.08271 0.31034 -0.45700
C 	C 	0.65457 0.06039 0.33470 0.05000
H 	H 	0.65300 0.07830 0.33680 0.03700
C 	C 	0.67320 0.04711 0.34740 -0.10100
C 	C 	0.69280 0.06120 0.36200 0.38000
C 	C 	0.67470 0.02124 0.34530 -0.00000
H 	H 	0.68790 0.01250 0.35400 0.04900
C 	C 	0.70120 0.87050 0.43100 0.38500
C 	C 	0.68310 0.85330 0.44510 -0.09100
C 	C 	0.66780 0.83690 0.43122 0.03100
H 	H 	0.66680 0.83810 0.41320 0.04700
C 	C 	0.65400 0.81850 0.44433 -0.08500
C 	C 	0.63950 0.79850 0.43015 0.36300
C 	C 	0.65490 0.81790 0.47095 -0.01500
H 	H 	0.64530 0.80540 0.47970 0.05300
C 	C 	0.68380 0.85218 0.47182 -0.01500
H 	H 	0.69450 0.86350 0.48090 0.05300
C 	C 	0.66920 0.83501 0.48495 0.00600
C 	C 	0.66970 0.83356 0.51376 -0.00500
C 	C 	0.68423 0.85022 0.52835 -0.00400
H 	H 	0.69410 0.86290 0.52000 0.04900
C 	C 	0.68472 0.84884 0.55464 -0.09800
C 	C 	0.70220 0.86515 0.56979 0.38200
C 	C 	0.67039 0.83080 0.56715 0.04200
H 	H 	0.67000 0.83020 0.58520 0.04700
C 	C 	0.65639 0.81338 0.55246 -0.10000
C 	C 	0.64259 0.79214 0.56586 0.40600
C 	C 	0.65650 0.81468 0.52626 -0.00300
H 	H 	0.64730 0.80240 0.51670 0.05100
C 	C 	0.54304 0.93151 0.24630 0.42000
C 	C 	0.51866 0.94624 0.24720 -0.11400
C 	C 	0.49579 0.93314 0.24750 0.05300
H 	H 	0.49560 0.91510 0.24660 0.04700
C 	C 	0.47357 0.94632 0.24900 -0.10900
C 	C 	0.44931 0.93162 0.24920 0.38700
C 	C 	0.47338 0.97250 0.25000 -0.00200
H 	H 	0.45770 0.98130 0.25140 0.04900
C 	C 	0.49617 0.98598 0.24900 -0.00500
C 	C 	0.51882 0.97240 0.24840 0.00100
H 	H 	0.53460 0.98120 0.24890 0.04900
O 	O 	0.77918 0.86707 0.34533 -0.48600
C 	C 	0.61995 0.06176 0.30220 0.38700
Zn	Zn	0.28024 0.62110 0.37599 1.22100
Zn	Zn	0.22280 0.62563 0.38053 1.21600
Zn	Zn	0.25101 0.57210 0.37944 1.21900
Zn	Zn	0.25020 0.60563 0.42958 1.22000
Zn	Zn	0.38138 0.62687 0.26855 1.21800
Zn	Zn	0.38776 0.61624 0.20935 1.22000
Zn	Zn	0.40219 0.57145 0.24644 1.22000
Zn	Zn	0.43576 0.62026 0.24368 1.22000
O 	O 	0.25911 0.61698 0.33831 -0.46200
O 	O 	0.15710 0.62977 0.28185 -0.47000
O 	O 	0.16534 0.61533 0.24299 -0.41200
O 	O 	0.34427 0.62396 0.25524 -0.44400
O 	O 	0.35089 0.60690 0.21670 -0.45900
O 	O 	0.24729 0.61354 0.16219 -0.47800
O 	O 	0.28820 0.62040 0.15316 -0.47800
O 	O 	0.30560 0.59898 0.35969 -0.46000
O 	O 	0.28346 0.56290 0.36345 -0.48700
O 	O 	0.37308 0.59793 0.29365 -0.46300
O 	O 	0.38442 0.56061 0.27680 -0.48700
O 	O 	0.38525 0.44754 0.28107 -0.47200
O 	O 	0.31300 0.41878 0.37288 -0.45500
O 	O 	0.28477 0.44830 0.36070 -0.47700
O 	O 	0.30306 0.62521 0.40851 -0.45900
O 	O 	0.27931 0.62207 0.44362 -0.48900
O 	O 	0.36100 0.72343 0.44078 -0.48500
O 	O 	0.36974 0.69645 0.40919 -0.41000
O 	O 	0.30126 0.63562 0.59392 -0.47900
O 	O 	0.28118 0.62255 0.55812 -0.48700
O 	O 	0.36254 0.72666 0.55211 -0.48700
O 	O 	0.36267 0.70561 0.58841 -0.45800
O 	O 	0.45932 0.59164 0.24330 -0.50700
O 	O 	0.43654 0.55664 0.24781 -0.49600
O 	O 	0.54881 0.59218 0.24678 -0.49300
O 	O 	0.57135 0.55622 0.25155 -0.48500
O 	O 	0.40179 0.60757 0.24300 -0.92400
O 	O 	0.25088 0.60599 0.39306 -0.94800
C 	C 	0.23830 0.62420 0.33172 0.39200
C 	C 	0.23170 0.62330 0.30378 -0.08800
C 	C 	0.20620 0.62420 0.29671 0.03000
H 	H 	0.19330 0.62580 0.30930 0.05500
C 	C 	0.19974 0.62270 0.27135 -0.08400
C 	C 	0.17182 0.62220 0.26490 0.36900
C 	C 	0.21860 0.62110 0.25301 -0.01500
H 	H 	0.21400 0.62040 0.23560 0.05300
C 	C 	0.25042 0.62120 0.28524 -0.01400
H 	H 	0.26770 0.62010 0.29020 0.05400
C 	C 	0.24427 0.62060 0.25966 0.00600
C 	C 	0.26454 0.61950 0.23980 -0.00500
C 	C 	0.25858 0.61810 0.21433 -0.00200
H 	H 	0.24120 0.61790 0.20940 0.04900
C 	C 	0.29045 0.61930 0.24590 -0.00400
H 	H 	0.29550 0.62090 0.26320 0.04900
C 	C 	0.30893 0.61700 0.22730 -0.09800
C 	C 	0.33680 0.61660 0.23370 0.37300
C 	C 	0.30220 0.61550 0.20260 0.05000
H 	H 	0.31490 0.61330 0.18990 0.04200
C 	C 	0.27705 0.61700 0.19569 -0.10400
C 	C 	0.27010 0.61640 0.16802 0.39100
C 	C 	0.30218 0.57547 0.35589 0.38800
C 	C 	0.32238 0.56134 0.34154 -0.09500
C 	C 	0.33891 0.57452 0.32584 0.04300
H 	H 	0.33860 0.59260 0.32520 0.04800
C 	C 	0.35589 0.56073 0.31099 -0.10100
C 	C 	0.37251 0.57429 0.29229 0.40100
C 	C 	0.35711 0.53454 0.31291 -0.00600
H 	H 	0.36920 0.52540 0.30310 0.05300
C 	C 	0.32334 0.53495 0.34303 -0.00900
H 	H 	0.31180 0.52620 0.35380 0.05300
C 	C 	0.34080 0.52150 0.32904 0.00200
C 	C 	0.34241 0.49269 0.33082 -0.00300
C 	C 	0.36021 0.47900 0.31695 -0.00300
H 	H 	0.37150 0.48780 0.30590 0.05000
C 	C 	0.36181 0.45256 0.31887 -0.09800
O 	O 	0.38830 0.41729 0.31034 -0.45700
C 	C 	0.34543 0.43961 0.33470 0.05000
H 	H 	0.34700 0.42170 0.33680 0.03700
C 	C 	0.32680 0.45289 0.34740 -0.10100
C 	C 	0.30720 0.43880 0.36200 0.38000
C 	C 	0.32530 0.47876 0.34530 -0.00000
H 	H 	0.31210 0.48750 0.35400 0.04900
C 	C 	0.29880 0.62950 0.43100 0.38500
C 	C 	0.31690 0.64670 0.44510 -0.09100
C 	C 	0.33220 0.66310 0.43122 0.03100
H 	H 	0.33320 0.66190 0.41320 0.04700
C 	C 	0.34600 0.68150 0.44433 -0.08500
C 	C 	0.36050 0.70150 0.43015 0.36300
C 	C 	0.34510 0.68210 0.47095 -0.01500
H 	H 	0.35470 0.69460 0.47970 0.05300
C 	C 	0.31620 0.64782 0.47182 -0.01500
H 	H 	0.30550 0.63650 0.48090 0.05300
C 	C 	0.33080 0.66499 0.48495 0.00600
C 	C 	0.33030 0.66644 0.51376 -0.00500
C 	C 	0.31577 0.64978 0.52835 -0.00400
H 	H 	0.30590 0.63710 0.52000 0.04900
C 	C 	0.31528 0.65116 0.55464 -0.09800
C 	C 	0.29780 0.63485 0.56979 0.38200
C 	C 	0.32961 0.66920 0.56715 0.04200
H 	H 	0.33000 0.66980 0.58520 0.04700
C 	C 	0.34361 0.68662 0.55246 -0.10000
C 	C 	0.35741 0.70786 0.56586 0.40600
C 	C 	0.34350 0.68532 0.52626 -0.00300
H 	H 	0.35270 0.69760 0.51670 0.05100
C 	C 	0.45696 0.56849 0.24630 0.42000
C 	C 	0.48134 0.55376 0.24720 -0.11400
C 	C 	0.50421 0.56686 0.24750 0.05300
H 	H 	0.50440 0.58490 0.24660 0.04700
C 	C 	0.52643 0.55368 0.24900 -0.10900
C 	C 	0.55069 0.56838 0.24920 0.38700
C 	C 	0.52662 0.52750 0.25000 -0.00200
H 	H 	0.54230 0.51870 0.25140 0.04900
C 	C 	0.50383 0.51402 0.24900 -0.00500
C 	C 	0.48118 0.52760 0.24840 0.00100
H 	H 	0.46540 0.51880 0.24890 0.04900
O 	O 	0.22082 0.63293 0.34533 -0.48600
C 	C 	0.38005 0.43824 0.30220 0.38700
Zn	Zn	0.78024 0.12110 0.87599 1.22100
Zn	Zn	0.72280 0.12563 0.88053 1.21600
Zn	Zn	0.75101 0.07210 0.87944 1.21900
Zn	Zn	0.75020 0.10563 0.92958 1.22000
Zn	Zn	0.88138 0.12687 0.76855 1.21800
Zn	Zn	0.88776 0.11624 0.70935 1.22000
Zn	Zn	0.90219 0.07145 0.74644 1.22000
Zn	Zn	0.93576 0.12026 0.74368 1.22000
O 	O 	0.75911 0.11698 0.83831 -0.46200
O 	O 	0.65710 0.12977 0.78185 -0.47000
O 	O 	0.66534 0.11533 0.74299 -0.41200
O 	O 	0.84427 0.12396 0.75524 -0.44400
O 	O 	0.85089 0.10690 0.71670 -0.45900
O 	O 	0.74729 0.11354 0.66219 -0.47800
O 	O 	0.78820 0.12040 0.65316 -0.47800
O 	O 	0.80560 0.09898 0.85969 -0.46000
O 	O 	0.78346 0.06290 0.86345 -0.48700
O 	O 	0.87308 0.09793 0.79365 -0.46300
O 	O 	0.88442 0.06061 0.77680 -0.48700
O 	O 	0.88525 0.94754 0.78107 -0.47200
O 	O 	0.81300 0.91878 0.87288 -0.45500
O 	O 	0.78477 0.94830 0.86070 -0.47700
O 	O 	0.80306 0.12521 0.90851 -0.45900
O 	O 	0.77931 0.12207 0.94362 -0.48900
O 	O 	0.86100 0.22343 0.94078 -0.48500
O 	O 	0.86974 0.19645 0.90919 -0.41000
O 	O 	0.80126 0.13562 0.09392 -0.47900
O 	O 	0.78118 0.12255 0.05812 -0.48700
O 	O 	0.86254 0.22666 0.05211 -0.48700
O 	O 	0.86267 0.20561 0.08841 -0.45800
O 	O 	0.95932 0.09164 0.74330 -0.50700
O 	O 	0.93654 0.05664 0.74781 -0.49600
O 	O 	0.04881 0.09218 0.74678 -0.49300
O 	O 	0.07135 0.05622 0.75155 -0.48500
O 	O 	0.90179 0.10757 0.74300 -0.92400
O 	O 	0.75088 0.10599 0.89306 -0.94800
C 	C 	0.73830 0.12420 0.83172 0.39200
C 	C 	0.73170 0.12330 0.80378 -0.08800
C 	C 	0.70620 0.12420 0.79671 0.03000
H 	H 	0.69330 0.12580 0.80930 0.05500
C 	C 	0.69974 0.12270 0.77135 -0.08400
C 	C 	0.67182 0.12220 0.76490 0.36900
C 	C 	0.71860 0.12110 0.75301 -0.01500
H 	H 	0.71400 0.12040 0.73560 0.05300
C 	C 	0.75042 0.12120 0.78524 -0.01400
H 	H 	0.76770 0.12010 0.79020 0.05400
C 	C 	0.74427 0.12060 0.75966 0.00600
C 	C 	0.76454 0.11950 0.73980 -0.00500
C 	C 	0.75858 0.11810 0.71433 -0.00200
H 	H 	0.74120 0.11790 0.70940 0.04900
C 	C 	0.79045 0.11930 0.74590 -0.00400
H 	H 	0.79550 0.12090 0.76320 0.04900
C 	C 	0.80893 0.11700 0.72730 -0.09800
C 	C 	0.83680 0.11660 0.73370 0.37300
C 	C 	0.80220 0.11550 0.70260 0.05000
H 	H 	0.81490 0.11330 0.68990 0.04200
C 	C 	0.77705 0.11700 0.69569 -0.10400
C 	C 	0.77010 0.11640 0.66802 0.39100
C 	C 	0.80218 0.07547 0.85589 0.38800
C 	C 	0.82238 0.06134 0.84154 -0.09500
C 	C 	0.83891 0.07452 0.82584 0.04300
H 	H 	0.83860 0.09260 0.82520 0.04800
C 	C 	0.85589 0.06073 0.81099 -0.10100
C 	C 	0.87251 0.07429 0.79229 0.40100
C 	C 	0.85711 0.03454 0.81291 -0.00600
H 	H 	0.86920 0.02540 0.80310 0.05300
C 	C 	0.82334 0.03495 0.84303 -0.00900
H 	H 	0.81180 0.02620 0.85380 0.05300
C 	C 	0.84080 0.02150 0.82904 0.00200
C 	C 	0.84241 0.99269 0.83082 -0.00300
C 	C 	0.86021 0.97900 0.81695 -0.00300
H 	H 	0.87150 0.98780 0.80590 0.05000
C 	C 	0.86181 0.95256 0.81887 -0.09800
O 	O 	0.88830 0.91729 0.81034 -0.45700
C 	C 	0.84543 0.93961 0.83470 0.05000
H 	H 	0.84700 0.92170 0.83680 0.03700
C 	C 	0.82680 0.95289 0.84740 -0.10100
C 	C 	0.80720 0.93880 0.86200 0.38000
C 	C 	0.82530 0.97876 0.84530 -0.00000
H 	H 	0.81210 0.98750 0.85400 0.04900
C 	C 	0.79880 0.12950 0.93100 0.38500
C 	C 	0.81690 0.14670 0.94510 -0.09100
C 	C 	0.83220 0.16310 0.93122 0.03100
H 	H 	0.83320 0.16190 0.91320 0.04700
C 	C 	0.84600 0.18150 0.94433 -0.08500
C 	C 	0.86050 0.20150 0.93015 0.36300
C 	C 	0.84510 0.18210 0.97095 -0.01500
H 	H 	0.85470 0.19460 0.97970 0.05300
C 	C 	0.81620 0.14782 0.97182 -0.01500
H 	H 	0.80550 0.13650 0.98090 0.05300
C 	C 	0.83080 0.16499 0.98495 0.00600
C 	C 	0.83030 0.16644 0.01376 -0.00500
C 	C 	0.81577 0.14978 0.02835 -0.00400
H 	H 	0.80590 0.13710 0.02000 0.04900
C 	C 	0.81528 0.15116 0.05464 -0.09800
C 	C 	0.79780 0.13485 0.06979 0.38200
C 	C 	0.82961 0.16920 0.06715 0.04200
H 	H 	0.83000 0.16980 0.08520 0.04700
C 	C 	0.84361 0.18662 0.05246 -0.10000
C 	C 	0.85741 0.20786 0.06586 0.40600
C 	C 	0.84350 0.18532 0.02626 -0.00300
H 	H 	0.85270 0.19760 0.01670 0.05100
C 	C 	0.95696 0.06849 0.74630 0.42000
C 	C 	0.98134 0.05376 0.74720 -0.11400
C 	C 	0.00421 0.06686 0.74750 0.05300
H 	H 	0.00440 0.08490 0.74660 0.04700
C 	C 	0.02643 0.05368 0.74900 -0.10900
C 	C 	0.05069 0.06838 0.74920 0.38700
C 	C 	0.02662 0.02750 0.75000 -0.00200
H 	H 	0.04230 0.01870 0.75140 0.04900
C 	C 	0.00383 0.01402 0.74900 -0.00500
C 	C 	0.98118 0.02760 0.74840 0.00100
H 	H 	0.96540 0.01880 0.74890 0.04900
O 	O 	0.72082 0.13293 0.84533 -0.48600
C 	C 	0.88005 0.93824 0.80220 0.38700
Zn	Zn	0.78024 0.87890 0.62401 1.22100
Zn	Zn	0.72280 0.87437 0.61947 1.21600
Zn	Zn	0.75101 0.92790 0.62056 1.21900
Zn	Zn	0.75020 0.89437 0.57042 1.22000
Zn	Zn	0.88138 0.87313 0.73145 1.21800
Zn	Zn	0.88776 0.88376 0.79065 1.22000
Zn	Zn	0.90219 0.92855 0.75356 1.22000
Zn	Zn	0.93576 0.87974 0.75632 1.22000
O 	O 	0.75911 0.88302 0.66169 -0.46200
O 	O 	0.65710 0.87023 0.71815 -0.47000
O 	O 	0.66534 0.88467 0.75701 -0.41200
O 	O 	0.84427 0.87604 0.74476 -0.44400
O 	O 	0.85089 0.89310 0.78330 -0.45900
O 	O 	0.74729 0.88646 0.83781 -0.47800
O 	O 	0.78820 0.87960 0.84684 -0.47800
O 	O 	0.80560 0.90102 0.64031 -0.46000
O 	O 	0.78346 0.93710 0.63655 -0.48700
O 	O 	0.87308 0.90207 0.70635 -0.46300
O 	O 	0.88442 0.93939 0.72320 -0.48700
O 	O 	0.88525 0.05246 0.71893 -0.47200
O 	O 	0.81300 0.08122 0.62712 -0.45500
O 	O 	0.78477 0.05170 0.63930 -0.47700
O 	O 	0.80306 0.87479 0.59149 -0.45900
O 	O 	0.77931 0.87793 0.55638 -0.48900
O 	O 	0.86100 0.77657 0.55922 -0.48500
O 	O 	0.86974 0.80355 0.59081 -0.41000
O 	O 	0.80126 0.86438 0.40608 -0.47900
O 	O 	0.78118 0.87745 0.44188 -0.48700
O 	O 	0.86254 0.77334 0.44789 -0.48700
O 	O 	0.86267 0.79439 0.41159 -0.45800
O 	O 	0.95932 0.90836 0.75670 -0.50700
O 	O 	0.93654 0.94336 0.75219 -0.49600
O 	O 	0.04881 0.90782 0.75322 -0.49300
O 	O 	0.07135 0.94378 0.74845 -0.48500
O 	O 	0.90179 0.89243 0.75700 -0.92400
O 	O 	0.75088 0.89401 0.60694 -0.94800
C 	C 	0.73830 0.87580 0.66828 0.39200
C 	C 	0.73170 0.87670 0.69622 -0.08800
C 	C 	0.70620 0.87580 0.70329 0.03000
H 	H 	0.69330 0.87420 0.69070 0.05500
C 	C 	0.69974 0.87730 0.72865 -0.08400
C 	C 	0.67182 0.87780 0.73510 0.36900
C 	C 	0.71860 0.87890 0.74699 -0.01500
H 	H 	0.71400 0.87960 0.76440 0.05300
C 	C 	0.75042 0.87880 0.71476 -0.01400
H 	H 	0.76770 0.87990 0.70980 0.05400
C 	C 	0.74427 0.87940 0.74034 0.00600
C 	C 	0.76454 0.88050 0.76020 -0.00500
C 	C 	0.75858 0.88190 0.78567 -0.00200
H 	H 	0.74120 0.88210 0.79060 0.04900
C 	C 	0.79045 0.88070 0.75410 -0.00400
H 	H 	0.79550 0.87910 0.73680 0.04900
C 	C 	0.80893 0.88300 0.77270 -0.09800
C 	C 	0.83680 0.88340 0.76630 0.37300
C 	C 	0.80220 0.88450 0.79740 0.05000
H 	H 	0.81490 0.88670 0.81010 0.04200
C 	C 	0.77705 0.88300 0.80431 -0.10400
C 	C 	0.77010 0.88360 0.83198 0.39100
C 	C 	0.80218 0.92453 0.64411 0.38800
C 	C 	0.82238 0.93866 0.65846 -0.09500
C 	C 	0.83891 0.92548 0.67416 0.04300
H 	H 	0.83860 0.90740 0.67480 0.04800
C 	C 	0.85589 0.93927 0.68901 -0.10100
C 	C 	0.87251 0.92571 0.70771 0.40100
C 	C 	0.85711 0.96546 0.68709 -0.00600
H 	H 	0.86920 0.97460 0.69690 0.05300
C 	C 	0.82334 0.96505 0.65697 -0.00900
H 	H 	0.81180 0.97380 0.64620 0.05300
C 	C 	0.84080 0.97850 0.67096 0.00200
C 	C 	0.84241 0.00731 0.66918 -0.00300
C 	C 	0.86021 0.02100 0.68305 -0.00300
H 	H 	0.87150 0.01220 0.69410 0.05000
C 	C 	0.86181 0.04744 0.68113 -0.09800
O 	O 	0.88830 0.08271 0.68966 -0.45700
C 	C 	0.84543 0.06039 0.66530 0.05000
H 	H 	0.84700 0.07830 0.66320 0.03700
C 	C 	0.82680 0.04711 0.65260 -0.10100
C 	C 	0.80720 0.06120 0.63800 0.38000
C 	C 	0.82530 0.02124 0.65470 -0.00000
H 	H 	0.81210 0.01250 0.64600 0.04900
C 	C 	0.79880 0.87050 0.56900 0.38500
C 	C 	0.81690 0.85330 0.55490 -0.09100
C 	C 	0.83220 0.83690 0.56878 0.03100
H 	H 	0.83320 0.83810 0.58680 0.04700
C 	C 	0.84600 0.81850 0.55567 -0.08500
C 	C 	0.86050 0.79850 0.56985 0.36300
C 	C 	0.84510 0.81790 0.52905 -0.01500
H 	H 	0.85470 0.80540 0.52030 0.05300
C 	C 	0.81620 0.85218 0.52818 -0.01500
H 	H 	0.80550 0.86350 0.51910 0.05300
C 	C 	0.83080 0.83501 0.51505 0.00600
C 	C 	0.83030 0.83356 0.48624 -0.00500
C 	C 	0.81577 0.85022 0.47165 -0.00400
H 	H 	0.80590 0.86290 0.48000 0.04900
C 	C 	0.81528 0.84884 0.44536 -0.09800
C 	C 	0.79780 0.86515 0.43021 0.38200
C 	C 	0.82961 0.83080 0.43285 0.04200
H 	H 	0.83000 0.83020 0.41480 0.04700
C 	C 	0.84361 0.81338 0.44754 -0.10000
C 	C 	0.85741 0.79214 0.43414 0.40600
C 	C 	0.84350 0.81468 0.47374 -0.00300
H 	H 	0.85270 0.80240 0.48330 0.05100
C 	C 	0.95696 0.93151 0.75370 0.42000
C 	C 	0.98134 0.94624 0.75280 -0.11400
C 	C 	0.00421 0.93314 0.75250 0.05300
H 	H 	0.00440 0.91510 0.75340 0.04700
C 	C 	0.02643 0.94632 0.75100 -0.10900
C 	C 	0.05069 0.93162 0.75080 0.38700
C 	C 	0.02662 0.97250 0.75000 -0.00200
H 	H 	0.04230 0.98130 0.74860 0.04900
C 	C 	0.00383 0.98598 0.75100 -0.00500
C 	C 	0.98118 0.97240 0.75160 0.00100
H 	H 	0.96540 0.98120 0.75110 0.04900
O 	O 	0.72082 0.86707 0.65467 -0.48600
C 	C 	0.88005 0.06176 0.69780 0.38700
Zn	Zn	0.28024 0.37890 0.12401 1.22100
Zn	Zn	0.22280 0.37437 0.11947 1.21600
Zn	Zn	0.25101 0.42790 0.12056 1.21900
Zn	Zn	0.25020 0.39437 0.07042 1.22000
Zn	Zn	0.38138 0.37313 0.23145 1.21800
Zn	Zn	0.38776 0.38376 0.29065 1.22000
Zn	Zn	0.40219 0.42855 0.25356 1.22000
Zn	Zn	0.43576 0.37974 0.25632 1.22000
O 	O 	0.25911 0.38302 0.16169 -0.46200
O 	O 	0.15710 0.37023 0.21815 -0.47000
O 	O 	0.16534 0.38467 0.25701 -0.41200
O 	O 	0.34427 0.37604 0.24476 -0.44400
O 	O 	0.35089 0.39310 0.28330 -0.45900
O 	O 	0.24729 0.38646 0.33781 -0.47800
O 	O 	0.28820 0.37960 0.34684 -0.47800
O 	O 	0.30560 0.40102 0.14031 -0.46000
O 	O 	0.28346 0.43710 0.13655 -0.48700
O 	O 	0.37308 0.40207 0.20635 -0.46300
O 	O 	0.38442 0.43939 0.22320 -0.48700
O 	O 	0.38525 0.55246 0.21893 -0.47200
O 	O 	0.31300 0.58122 0.12712 -0.45500
O 	O 	0.28477 0.55170 0.13930 -0.47700
O 	O 	0.30306 0.37479 0.09149 -0.45900
O 	O 	0.27931 0.37793 0.05638 -0.48900
O 	O 	0.36100 0.27657 0.05922 -0.48500
O 	O 	0.36974 0.30355 0.09081 -0.41000
O 	O 	0.30126 0.36438 0.90608 -0.47900
O 	O 	0.28118 0.37745 0.94188 -0.48700
O 	O 	0.36254 0.27334 0.94789 -0.48700
O 	O 	0.36267 0.29439 0.91159 -0.45800
O 	O 	0.45932 0.40836 0.25670 -0.50700
O 	O 	0.43654 0.44336 0.25219 -0.49600
O 	O 	0.54881 0.40782 0.25322 -0.49300
O 	O 	0.57135 0.44378 0.24845 -0.48500
O 	O 	0.40179 0.39243 0.25700 -0.92400
O 	O 	0.25088 0.39401 0.10694 -0.94800
C 	C 	0.23830 0.37580 0.16828 0.39200
C 	C 	0.23170 0.37670 0.19622 -0.08800
C 	C 	0.20620 0.37580 0.20329 0.03000
H 	H 	0.19330 0.37420 0.19070 0.05500
C 	C 	0.19974 0.37730 0.22865 -0.08400
C 	C 	0.17182 0.37780 0.23510 0.36900
C 	C 	0.21860 0.37890 0.24699 -0.01500
H 	H 	0.21400 0.37960 0.26440 0.05300
C 	C 	0.25042 0.37880 0.21476 -0.01400
H 	H 	0.26770 0.37990 0.20980 0.05400
C 	C 	0.24427 0.37940 0.24034 0.00600
C 	C 	0.26454 0.38050 0.26020 -0.00500
C 	C 	0.25858 0.38190 0.28567 -0.00200
H 	H 	0.24120 0.38210 0.29060 0.04900
C 	C 	0.29045 0.38070 0.25410 -0.00400
H 	H 	0.29550 0.37910 0.23680 0.04900
C 	C 	0.30893 0.38300 0.27270 -0.09800
C 	C 	0.33680 0.38340 0.26630 0.37300
C 	C 	0.30220 0.38450 0.29740 0.05000
H 	H 	0.31490 0.38670 0.31010 0.04200
C 	C 	0.27705 0.38300 0.30431 -0.10400
C 	C 	0.27010 0.38360 0.33198 0.39100
C 	C 	0.30218 0.42453 0.14411 0.38800
C 	C 	0.32238 0.43866 0.15846 -0.09500
C 	C 	0.33891 0.42548 0.17416 0.04300
H 	H 	0.33860 0.40740 0.17480 0.04800
C 	C 	0.35589 0.43927 0.18901 -0.10100
C 	C 	0.37251 0.42571 0.20771 0.40100
C 	C 	0.35711 0.46546 0.18709 -0.00600
H 	H 	0.36920 0.47460 0.19690 0.05300
C 	C 	0.32334 0.46505 0.15697 -0.00900
H 	H 	0.31180 0.47380 0.14620 0.05300
C 	C 	0.34080 0.47850 0.17096 0.00200
C 	C 	0.34241 0.50731 0.16918 -0.00300
C 	C 	0.36021 0.52100 0.18305 -0.00300
H 	H 	0.37150 0.51220 0.19410 0.05000
C 	C 	0.36181 0.54744 0.18113 -0.09800
O 	O 	0.38830 0.58271 0.18966 -0.45700
C 	C 	0.34543 0.56039 0.16530 0.05000
H 	H 	0.34700 0.57830 0.16320 0.03700
C 	C 	0.32680 0.54711 0.15260 -0.10100
C 	C 	0.30720 0.56120 0.13800 0.38000
C 	C 	0.32530 0.52124 0.15470 -0.00000
H 	H 	0.31210 0.51250 0.14600 0.04900
C 	C 	0.29880 0.37050 0.06900 0.38500
C 	C 	0.31690 0.35330 0.05490 -0.09100
C 	C 	0.33220 0.33690 0.06878 0.03100
H 	H 	0.33320 0.33810 0.08680 0.04700
C 	C 	0.34600 0.31850 0.05567 -0.08500
C 	C 	0.36050 0.29850 0.06985 0.36300
C 	C 	0.34510 0.31790 0.02905 -0.01500
H 	H 	0.35470 0.30540 0.02030 0.05300
C 	C 	0.31620 0.35218 0.02818 -0.01500
H 	H 	0.30550 0.36350 0.01910 0.05300
C 	C 	0.33080 0.33501 0.01505 0.00600
C 	C 	0.33030 0.33356 0.98624 -0.00500
C 	C 	0.31577 0.35022 0.97165 -0.00400
H 	H 	0.30590 0.36290 0.98000 0.04900
C 	C 	0.31528 0.34884 0.94536 -0.09800
C 	C 	0.29780 0.36515 0.93021 0.38200
C 	C 	0.32961 0.33080 0.93285 0.04200
H 	H 	0.33000 0.33020 0.91480 0.04700
C 	C 	0.34361 0.31338 0.94754 -0.10000
C 	C 	0.35741 0.29214 0.93414 0.40600
C 	C 	0.34350 0.31468 0.97374 -0.00300
H 	H 	0.35270 0.30240 0.98330 0.05100
C 	C 	0.45696 0.43151 0.25370 0.42000
C 	C 	0.48134 0.44624 0.25280 -0.11400
C 	C 	0.50421 0.43314 0.25250 0.05300
H 	H 	0.50440 0.41510 0.25340 0.04700
C 	C 	0.52643 0.44632 0.25100 -0.10900
C 	C 	0.55069 0.43162 0.25080 0.38700
C 	C 	0.52662 0.47250 0.25000 -0.00200
H 	H 	0.54230 0.48130 0.24860 0.04900
C 	C 	0.50383 0.48598 0.25100 -0.00500
C 	C 	0.48118 0.47240 0.25160 0.00100
H 	H 	0.46540 0.48120 0.25110 0.04900
O 	O 	0.22082 0.36707 0.15467 -0.48600
C 	C 	0.38005 0.56176 0.19780 0.38700
Zn	Zn	0.71976 0.12110 0.12401 1.22100
Zn	Zn	0.77720 0.12563 0.11947 1.21600
Zn	Zn	0.74899 0.07210 0.12056 1.21900
Zn	Zn	0.74980 0.10563 0.07042 1.22000
Zn	Zn	0.61862 0.12687 0.23145 1.21800
Zn	Zn	0.61224 0.11624 0.29065 1.22000
Zn	Zn	0.59781 0.07145 0.25356 1.22000
Zn	Zn	0.56424 0.12026 0.25632 1.22000
O 	O 	0.74089 0.11698 0.16169 -0.46200
O 	O 	0.84290 0.12977 0.21815 -0.47000
O 	O 	0.83466 0.11533 0.25701 -0.41200
O 	O 	0.65573 0.12396 0.24476 -0.44400
O 	O 	0.64911 0.10690 0.28330 -0.45900
O 	O 	0.75271 0.11354 0.33781 -0.47800
O 	O 	0.71180 0.12040 0.34684 -0.47800
O 	O 	0.69440 0.09898 0.14031 -0.46000
O 	O 	0.71654 0.06290 0.13655 -0.48700
O 	O 	0.62692 0.09793 0.20635 -0.46300
O 	O 	0.61558 0.06061 0.22320 -0.48700
O 	O 	0.61475 0.94754 0.21893 -0.47200
O 	O 	0.68700 0.91878 0.12712 -0.45500
O 	O 	0.71523 0.94830 0.13930 -0.47700
O 	O 	0.69694 0.12521 0.09149 -0.45900
O 	O 	0.72069 0.12207 0.05638 -0.48900
O 	O 	0.63900 0.22343 0.05922 -0.48500
O 	O 	0.63026 0.19645 0.09081 -0.41000
O 	O 	0.69874 0.13562 0.90608 -0.47900
O 	O 	0.71882 0.12255 0.94188 -0.48700
O 	O 	0.63746 0.22666 0.94789 -0.48700
O 	O 	0.63733 0.20561 0.91159 -0.45800
O 	O 	0.54068 0.09164 0.25670 -0.50700
O 	O 	0.56346 0.05664 0.25219 -0.49600
O 	O 	0.45119 0.09218 0.25322 -0.49300
O 	O 	0.42865 0.05622 0.24845 -0.48500
O 	O 	0.59821 0.10757 0.25700 -0.92400
O 	O 	0.74912 0.10599 0.10694 -0.94800
C 	C 	0.76170 0.12420 0.16828 0.39200
C 	C 	0.76830 0.12330 0.19622 -0.08800
C 	C 	0.79380 0.12420 0.20329 0.03000
H 	H 	0.80670 0.12580 0.19070 0.05500
C 	C 	0.80026 0.12270 0.22865 -0.08400
C 	C 	0.82818 0.12220 0.23510 0.36900
C 	C 	0.78140 0.12110 0.24699 -0.01500
H 	H 	0.78600 0.12040 0.26440 0.05300
C 	C 	0.74958 0.12120 0.21476 -0.01400
H 	H 	0.73230 0.12010 0.20980 0.05400
C 	C 	0.75573 0.12060 0.24034 0.00600
C 	C 	0.73546 0.11950 0.26020 -0.00500
C 	C 	0.74142 0.11810 0.28567 -0.00200
H 	H 	0.75880 0.11790 0.29060 0.04900
C 	C 	0.70955 0.11930 0.25410 -0.00400
H 	H 	0.70450 0.12090 0.23680 0.04900
C 	C 	0.69107 0.11700 0.27270 -0.09800
C 	C 	0.66320 0.11660 0.26630 0.37300
C 	C 	0.69780 0.11550 0.29740 0.05000
H 	H 	0.68510 0.11330 0.31010 0.04200
C 	C 	0.72295 0.11700 0.30431 -0.10400
C 	C 	0.72990 0.11640 0.33198 0.39100
C 	C 	0.69782 0.07547 0.14411 0.38800
C 	C 	0.67762 0.06134 0.15846 -0.09500
C 	C 	0.66109 0.07452 0.17416 0.04300
H 	H 	0.66140 0.09260 0.17480 0.04800
C 	C 	0.64411 0.06073 0.18901 -0.10100
C 	C 	0.62749 0.07429 0.20771 0.40100
C 	C 	0.64289 0.03454 0.18709 -0.00600
H 	H 	0.63080 0.02540 0.19690 0.05300
C 	C 	0.67666 0.03495 0.15697 -0.00900
H 	H 	0.68820 0.02620 0.14620 0.05300
C 	C 	0.65920 0.02150 0.17096 0.00200
C 	C 	0.65759 0.99269 0.16918 -0.00300
C 	C 	0.63979 0.97900 0.18305 -0.00300
H 	H 	0.62850 0.98780 0.19410 0.05000
C 	C 	0.63819 0.95256 0.18113 -0.09800
O 	O 	0.61170 0.91729 0.18966 -0.45700
C 	C 	0.65457 0.93961 0.16530 0.05000
H 	H 	0.65300 0.92170 0.16320 0.03700
C 	C 	0.67320 0.95289 0.15260 -0.10100
C 	C 	0.69280 0.93880 0.13800 0.38000
C 	C 	0.67470 0.97876 0.15470 -0.00000
H 	H 	0.68790 0.98750 0.14600 0.04900
C 	C 	0.70120 0.12950 0.06900 0.38500
C 	C 	0.68310 0.14670 0.05490 -0.09100
C 	C 	0.66780 0.16310 0.06878 0.03100
H 	H 	0.66680 0.16190 0.08680 0.04700
C 	C 	0.65400 0.18150 0.05567 -0.08500
C 	C 	0.63950 0.20150 0.06985 0.36300
C 	C 	0.65490 0.18210 0.02905 -0.01500
H 	H 	0.64530 0.19460 0.02030 0.05300
C 	C 	0.68380 0.14782 0.02818 -0.01500
H 	H 	0.69450 0.13650 0.01910 0.05300
C 	C 	0.66920 0.16499 0.01505 0.00600
C 	C 	0.66970 0.16644 0.98624 -0.00500
C 	C 	0.68423 0.14978 0.97165 -0.00400
H 	H 	0.69410 0.13710 0.98000 0.04900
C 	C 	0.68472 0.15116 0.94536 -0.09800
C 	C 	0.70220 0.13485 0.93021 0.38200
C 	C 	0.67039 0.16920 0.93285 0.04200
H 	H 	0.67000 0.16980 0.91480 0.04700
C 	C 	0.65639 0.18662 0.94754 -0.10000
C 	C 	0.64259 0.20786 0.93414 0.40600
C 	C 	0.65650 0.18532 0.97374 -0.00300
H 	H 	0.64730 0.19760 0.98330 0.05100
C 	C 	0.54304 0.06849 0.25370 0.42000
C 	C 	0.51866 0.05376 0.25280 -0.11400
C 	C 	0.49579 0.06686 0.25250 0.05300
H 	H 	0.49560 0.08490 0.25340 0.04700
C 	C 	0.47357 0.05368 0.25100 -0.10900
C 	C 	0.44931 0.06838 0.25080 0.38700
C 	C 	0.47338 0.02750 0.25000 -0.00200
H 	H 	0.45770 0.01870 0.24860 0.04900
C 	C 	0.49617 0.01402 0.25100 -0.00500
C 	C 	0.51882 0.02760 0.25160 0.00100
H 	H 	0.53460 0.01880 0.25110 0.04900
O 	O 	0.77918 0.13293 0.15467 -0.48600
C 	C 	0.61995 0.93824 0.19780 0.38700
Zn	Zn	0.21976 0.62110 0.62401 1.22100
Zn	Zn	0.27720 0.62563 0.61947 1.21600
Zn	Zn	0.24899 0.57210 0.62056 1.21900
Zn	Zn	0.24980 0.60563 0.57042 1.22000
Zn	Zn	0.11862 0.62687 0.73145 1.21800
Zn	Zn	0.11224 0.61624 0.79065 1.22000
Zn	Zn	0.09781 0.57145 0.75356 1.22000
Zn	Zn	0.06424 0.62026 0.75632 1.22000
O 	O 	0.24089 0.61698 0.66169 -0.46200
O 	O 	0.34290 0.62977 0.71815 -0.47000
O 	O 	0.33466 0.61533 0.75701 -0.41200
O 	O 	0.15573 0.62396 0.74476 -0.44400
O 	O 	0.14911 0.60690 0.78330 -0.45900
O 	O 	0.25271 0.61354 0.83781 -0.47800
O 	O 	0.21180 0.62040 0.84684 -0.47800
O 	O 	0.19440 0.59898 0.64031 -0.46000
O 	O 	0.21654 0.56290 0.63655 -0.48700
O 	O 	0.12692 0.59793 0.70635 -0.46300
O 	O 	0.11558 0.56061 0.72320 -0.48700
O 	O 	0.11475 0.44754 0.71893 -0.47200
O 	O 	0.18700 0.41878 0.62712 -0.45500
O 	O 	0.21523 0.44830 0.63930 -0.47700
O 	O 	0.19694 0.62521 0.59149 -0.45900
O 	O 	0.22069 0.62207 0.55638 -0.48900
O 	O 	0.13900 0.72343 0.55922 -0.48500
O 	O 	0.13026 0.69645 0.59081 -0.41000
O 	O 	0.19874 0.63562 0.40608 -0.47900
O 	O 	0.21882 0.62255 0.44188 -0.48700
O 	O 	0.13746 0.72666 0.44789 -0.48700
O 	O 	0.13733 0.70561 0.41159 -0.45800
O 	O 	0.04068 0.59164 0.75670 -0.50700
O 	O 	0.06346 0.55664 0.75219 -0.49600
O 	O 	0.95119 0.59218 0.75322 -0.49300
O 	O 	0.92865 0.55622 0.74845 -0.48500
O 	O 	0.09821 0.60757 0.75700 -0.92400
O 	O 	0.24912 0.60599 0.60694 -0.94800
C 	C 	0.26170 0.62420 0.66828 0.39200
C 	C 	0.26830 0.62330 0.69622 -0.08800
C 	C 	0.29380 0.62420 0.70329 0.03000
H 	H 	0.30670 0.62580 0.69070 0.05500
C 	C 	0.30026 0.62270 0.72865 -0.08400
C 	C 	0.32818 0.62220 0.73510 0.36900
C 	C 	0.28140 0.62110 0.74699 -0.01500
H 	H 	0.28600 0.62040 0.76440 0.05300
C 	C 	0.24958 0.62120 0.71476 -0.01400
H 	H 	0.23230 0.62010 0.70980 0.05400
C 	C 	0.25573 0.62060 0.74034 0.00600
C 	C 	0.23546 0.61950 0.76020 -0.00500
C 	C 	0.24142 0.61810 0.78567 -0.00200
H 	H 	0.25880 0.61790 0.79060 0.04900
C 	C 	0.20955 0.61930 0.75410 -0.00400
H 	H 	0.20450 0.62090 0.73680 0.04900
C 	C 	0.19107 0.61700 0.77270 -0.09800
C 	C 	0.16320 0.61660 0.76630 0.37300
C 	C 	0.19780 0.61550 0.79740 0.05000
H 	H 	0.18510 0.61330 0.81010 0.04200
C 	C 	0.22295 0.61700 0.80431 -0.10400
C 	C 	0.22990 0.61640 0.83198 0.39100
C 	C 	0.19782 0.57547 0.64411 0.38800
C 	C 	0.17762 0.56134 0.65846 -0.09500
C 	C 	0.16109 0.57452 0.67416 0.04300
H 	H 	0.16140 0.59260 0.67480 0.04800
C 	C 	0.14411 0.56073 0.68901 -0.10100
C 	C 	0.12749 0.57429 0.70771 0.40100
C 	C 	0.14289 0.53454 0.68709 -0.00600
H 	H 	0.13080 0.52540 0.69690 0.05300
C 	C 	0.17666 0.53495 0.65697 -0.00900
H 	H 	0.18820 0.52620 0.64620 0.05300
C 	C 	0.15920 0.52150 0.67096 0.00200
C 	C 	0.15759 0.49269 0.66918 -0.00300
C 	C 	0.13979 0.47900 0.68305 -0.00300
H 	H 	0.12850 0.48780 0.69410 0.05000
C 	C 	0.13819 0.45256 0.68113 -0.09800
O 	O 	0.11170 0.41729 0.68966 -0.45700
C 	C 	0.15457 0.43961 0.66530 0.05000
H 	H 	0.15300 0.42170 0.66320 0.03700
C 	C 	0.17320 0.45289 0.65260 -0.10100
C 	C 	0.19280 0.43880 0.63800 0.38000
C 	C 	0.17470 0.47876 0.65470 -0.00000
H 	H 	0.18790 0.48750 0.64600 0.04900
C 	C 	0.20120 0.62950 0.56900 0.38500
C 	C 	0.18310 0.64670 0.55490 -0.09100
C 	C 	0.16780 0.66310 0.56878 0.03100
H 	H 	0.16680 0.66190 0.58680 0.04700
C 	C 	0.15400 0.68150 0.55567 -0.08500
C 	C 	0.13950 0.70150 0.56985 0.36300
C 	C 	0.15490 0.68210 0.52905 -0.01500
H 	H 	0.14530 0.69460 0.52030 0.05300
C 	C 	0.18380 0.64782 0.52818 -0.01500
H 	H 	0.19450 0.63650 0.51910 0.05300
C 	C 	0.16920 0.66499 0.51505 0.00600
C 	C 	0.16970 0.66644 0.48624 -0.00500
C 	C 	0.18423 0.64978 0.47165 -0.00400
H 	H 	0.19410 0.63710 0.48000 0.04900
C 	C 	0.18472 0.65116 0.44536 -0.09800
C 	C 	0.20220 0.63485 0.43021 0.38200
C 	C 	0.17039 0.66920 0.43285 0.04200
H 	H 	0.17000 0.66980 0.41480 0.04700
C 	C 	0.15639 0.68662 0.44754 -0.10000
C 	C 	0.14259 0.70786 0.43414 0.40600
C 	C 	0.15650 0.68532 0.47374 -0.00300
H 	H 	0.14730 0.69760 0.48330 0.05100
C 	C 	0.04304 0.56849 0.75370 0.42000
C 	C 	0.01866 0.55376 0.75280 -0.11400
C 	C 	0.99579 0.56686 0.75250 0.05300
H 	H 	0.99560 0.58490 0.75340 0.04700
C 	C 	0.97357 0.55368 0.75100 -0.10900
C 	C 	0.94931 0.56838 0.75080 0.38700
C 	C 	0.97338 0.52750 0.75000 -0.00200
H 	H 	0.95770 0.51870 0.74860 0.04900
C 	C 	0.99617 0.51402 0.75100 -0.00500
C 	C 	0.01882 0.52760 0.75160 0.00100
H 	H 	0.03460 0.51880 0.75110 0.04900
O 	O 	0.27918 0.63293 0.65467 -0.48600
C 	C 	0.11995 0.43824 0.69780 0.38700
Zn	Zn	0.87599 0.21976 0.37890 1.22100
Zn	Zn	0.88053 0.27720 0.37437 1.21600
Zn	Zn	0.87944 0.24899 0.42790 1.21900
Zn	Zn	0.92958 0.24980 0.39437 1.22000
Zn	Zn	0.76855 0.11862 0.37313 1.21800
Zn	Zn	0.70935 0.11224 0.38376 1.22000
Zn	Zn	0.74644 0.09781 0.42855 1.22000
Zn	Zn	0.74368 0.06424 0.37974 1.22000
O 	O 	0.83831 0.24089 0.38302 -0.46200
O 	O 	0.78185 0.34290 0.37023 -0.47000
O 	O 	0.74299 0.33466 0.38467 -0.41200
O 	O 	0.75524 0.15573 0.37604 -0.44400
O 	O 	0.71670 0.14911 0.39310 -0.45900
O 	O 	0.66219 0.25271 0.38646 -0.47800
O 	O 	0.65316 0.21180 0.37960 -0.47800
O 	O 	0.85969 0.19440 0.40102 -0.46000
O 	O 	0.86345 0.21654 0.43710 -0.48700
O 	O 	0.79365 0.12692 0.40207 -0.46300
O 	O 	0.77680 0.11558 0.43939 -0.48700
O 	O 	0.78107 0.11475 0.55246 -0.47200
O 	O 	0.87288 0.18700 0.58122 -0.45500
O 	O 	0.86070 0.21523 0.55170 -0.47700
O 	O 	0.90851 0.19694 0.37479 -0.45900
O 	O 	0.94362 0.22069 0.37793 -0.48900
O 	O 	0.94078 0.13900 0.27657 -0.48500
O 	O 	0.90919 0.13026 0.30355 -0.41000
O 	O 	0.09392 0.19874 0.36438 -0.47900
O 	O 	0.05812 0.21882 0.37745 -0.48700
O 	O 	0.05211 0.13746 0.27334 -0.48700
O 	O 	0.08841 0.13733 0.29439 -0.45800
O 	O 	0.74330 0.04068 0.40836 -0.50700
O 	O 	0.74781 0.06346 0.44336 -0.49600
O 	O 	0.74678 0.95119 0.40782 -0.49300
O 	O 	0.75155 0.92865 0.44378 -0.48500
O 	O 	0.74300 0.09821 0.39243 -0.92400
O 	O 	0.89306 0.24912 0.39401 -0.94800
C 	C 	0.83172 0.26170 0.37580 0.39200
C 	C 	0.80378 0.26830 0.37670 -0.08800
C 	C 	0.79671 0.29380 0.37580 0.03000
H 	H 	0.80930 0.30670 0.37420 0.05500
C 	C 	0.77135 0.30026 0.37730 -0.08400
C 	C 	0.76490 0.32818 0.37780 0.36900
C 	C 	0.75301 0.28140 0.37890 -0.01500
H 	H 	0.73560 0.28600 0.37960 0.05300
C 	C 	0.78524 0.24958 0.37880 -0.01400
H 	H 	0.79020 0.23230 0.37990 0.05400
C 	C 	0.75966 0.25573 0.37940 0.00600
C 	C 	0.73980 0.23546 0.38050 -0.00500
C 	C 	0.71433 0.24142 0.38190 -0.00200
H 	H 	0.70940 0.25880 0.38210 0.04900
C 	C 	0.74590 0.20955 0.38070 -0.00400
H 	H 	0.76320 0.20450 0.37910 0.04900
C 	C 	0.72730 0.19107 0.38300 -0.09800
C 	C 	0.73370 0.16320 0.38340 0.37300
C 	C 	0.70260 0.19780 0.38450 0.05000
H 	H 	0.68990 0.18510 0.38670 0.04200
C 	C 	0.69569 0.22295 0.38300 -0.10400
C 	C 	0.66802 0.22990 0.38360 0.39100
C 	C 	0.85589 0.19782 0.42453 0.38800
C 	C 	0.84154 0.17762 0.43866 -0.09500
C 	C 	0.82584 0.16109 0.42548 0.04300
H 	H 	0.82520 0.16140 0.40740 0.04800
C 	C 	0.81099 0.14411 0.43927 -0.10100
C 	C 	0.79229 0.12749 0.42571 0.40100
C 	C 	0.81291 0.14289 0.46546 -0.00600
H 	H 	0.80310 0.13080 0.47460 0.05300
C 	C 	0.84303 0.17666 0.46505 -0.00900
H 	H 	0.85380 0.18820 0.47380 0.05300
C 	C 	0.82904 0.15920 0.47850 0.00200
C 	C 	0.83082 0.15759 0.50731 -0.00300
C 	C 	0.81695 0.13979 0.52100 -0.00300
H 	H 	0.80590 0.12850 0.51220 0.05000
C 	C 	0.81887 0.13819 0.54744 -0.09800
O 	O 	0.81034 0.11170 0.58271 -0.45700
C 	C 	0.83470 0.15457 0.56039 0.05000
H 	H 	0.83680 0.15300 0.57830 0.03700
C 	C 	0.84740 0.17320 0.54711 -0.10100
C 	C 	0.86200 0.19280 0.56120 0.38000
C 	C 	0.84530 0.17470 0.52124 -0.00000
H 	H 	0.85400 0.18790 0.51250 0.04900
C 	C 	0.93100 0.20120 0.37050 0.38500
C 	C 	0.94510 0.18310 0.35330 -0.09100
C 	C 	0.93122 0.16780 0.33690 0.03100
H 	H 	0.91320 0.16680 0.33810 0.04700
C 	C 	0.94433 0.15400 0.31850 -0.08500
C 	C 	0.93015 0.13950 0.29850 0.36300
C 	C 	0.97095 0.15490 0.31790 -0.01500
H 	H 	0.97970 0.14530 0.30540 0.05300
C 	C 	0.97182 0.18380 0.35218 -0.01500
H 	H 	0.98090 0.19450 0.36350 0.05300
C 	C 	0.98495 0.16920 0.33501 0.00600
C 	C 	0.01376 0.16970 0.33356 -0.00500
C 	C 	0.02835 0.18423 0.35022 -0.00400
H 	H 	0.02000 0.19410 0.36290 0.04900
C 	C 	0.05464 0.18472 0.34884 -0.09800
C 	C 	0.06979 0.20220 0.36515 0.38200
C 	C 	0.06715 0.17039 0.33080 0.04200
H 	H 	0.08520 0.17000 0.33020 0.04700
C 	C 	0.05246 0.15639 0.31338 -0.10000
C 	C 	0.06586 0.14259 0.29214 0.40600
C 	C 	0.02626 0.15650 0.31468 -0.00300
H 	H 	0.01670 0.14730 0.30240 0.05100
C 	C 	0.74630 0.04304 0.43151 0.42000
C 	C 	0.74720 0.01866 0.44624 -0.11400
C 	C 	0.74750 0.99579 0.43314 0.05300
H 	H 	0.74660 0.99560 0.41510 0.04700
C 	C 	0.74900 0.97357 0.44632 -0.10900
C 	C 	0.74920 0.94931 0.43162 0.38700
C 	C 	0.75000 0.97338 0.47250 -0.00200
H 	H 	0.75140 0.95770 0.48130 0.04900
C 	C 	0.74900 0.99617 0.48598 -0.00500
C 	C 	0.74840 0.01882 0.47240 0.00100
H 	H 	0.74890 0.03460 0.48120 0.04900
O 	O 	0.84533 0.27918 0.36707 -0.48600
C 	C 	0.80220 0.11995 0.56176 0.38700
Zn	Zn	0.37599 0.71976 0.87890 1.22100
Zn	Zn	0.38053 0.77720 0.87437 1.21600
Zn	Zn	0.37944 0.74899 0.92790 1.21900
Zn	Zn	0.42958 0.74980 0.89437 1.22000
Zn	Zn	0.26855 0.61862 0.87313 1.21800
Zn	Zn	0.20935 0.61224 0.88376 1.22000
Zn	Zn	0.24644 0.59781 0.92855 1.22000
Zn	Zn	0.24368 0.56424 0.87974 1.22000
O 	O 	0.33831 0.74089 0.88302 -0.46200
O 	O 	0.28185 0.84290 0.87023 -0.47000
O 	O 	0.24299 0.83466 0.88467 -0.41200
O 	O 	0.25524 0.65573 0.87604 -0.44400
O 	O 	0.21670 0.64911 0.89310 -0.45900
O 	O 	0.16219 0.75271 0.88646 -0.47800
O 	O 	0.15316 0.71180 0.87960 -0.47800
O 	O 	0.35969 0.69440 0.90102 -0.46000
O 	O 	0.36345 0.71654 0.93710 -0.48700
O 	O 	0.29365 0.62692 0.90207 -0.46300
O 	O 	0.27680 0.61558 0.93939 -0.48700
O 	O 	0.28107 0.61475 0.05246 -0.47200
O 	O 	0.37288 0.68700 0.08122 -0.45500
O 	O 	0.36070 0.71523 0.05170 -0.47700
O 	O 	0.40851 0.69694 0.87479 -0.45900
O 	O 	0.44362 0.72069 0.87793 -0.48900
O 	O 	0.44078 0.63900 0.77657 -0.48500
O 	O 	0.40919 0.63026 0.80355 -0.41000
O 	O 	0.59392 0.69874 0.86438 -0.47900
O 	O 	0.55812 0.71882 0.87745 -0.48700
O 	O 	0.55211 0.63746 0.77334 -0.48700
O 	O 	0.58841 0.63733 0.79439 -0.45800
O 	O 	0.24330 0.54068 0.90836 -0.50700
O 	O 	0.24781 0.56346 0.94336 -0.49600
O 	O 	0.24678 0.45119 0.90782 -0.49300
O 	O 	0.25155 0.42865 0.94378 -0.48500
O 	O 	0.24300 0.59821 0.89243 -0.92400
O 	O 	0.39306 0.74912 0.89401 -0.94800
C 	C 	0.33172 0.76170 0.87580 0.39200
C 	C 	0.30378 0.76830 0.87670 -0.08800
C 	C 	0.29671 0.79380 0.87580 0.03000
H 	H 	0.30930 0.80670 0.87420 0.05500
C 	C 	0.27135 0.80026 0.87730 -0.08400
C 	C 	0.26490 0.82818 0.87780 0.36900
C 	C 	0.25301 0.78140 0.87890 -0.01500
H 	H 	0.23560 0.78600 0.87960 0.05300
C 	C 	0.28524 0.74958 0.87880 -0.01400
H 	H 	0.29020 0.73230 0.87990 0.05400
C 	C 	0.25966 0.75573 0.87940 0.00600
C 	C 	0.23980 0.73546 0.88050 -0.00500
C 	C 	0.21433 0.74142 0.88190 -0.00200
H 	H 	0.20940 0.75880 0.88210 0.04900
C 	C 	0.24590 0.70955 0.88070 -0.00400
H 	H 	0.26320 0.70450 0.87910 0.04900
C 	C 	0.22730 0.69107 0.88300 -0.09800
C 	C 	0.23370 0.66320 0.88340 0.37300
C 	C 	0.20260 0.69780 0.88450 0.05000
H 	H 	0.18990 0.68510 0.88670 0.04200
C 	C 	0.19569 0.72295 0.88300 -0.10400
C 	C 	0.16802 0.72990 0.88360 0.39100
C 	C 	0.35589 0.69782 0.92453 0.38800
C 	C 	0.34154 0.67762 0.93866 -0.09500
C 	C 	0.32584 0.66109 0.92548 0.04300
H 	H 	0.32520 0.66140 0.90740 0.04800
C 	C 	0.31099 0.64411 0.93927 -0.10100
C 	C 	0.29229 0.62749 0.92571 0.40100
C 	C 	0.31291 0.64289 0.96546 -0.00600
H 	H 	0.30310 0.63080 0.97460 0.05300
C 	C 	0.34303 0.67666 0.96505 -0.00900
H 	H 	0.35380 0.68820 0.97380 0.05300
C 	C 	0.32904 0.65920 0.97850 0.00200
C 	C 	0.33082 0.65759 0.00731 -0.00300
C 	C 	0.31695 0.63979 0.02100 -0.00300
H 	H 	0.30590 0.62850 0.01220 0.05000
C 	C 	0.31887 0.63819 0.04744 -0.09800
O 	O 	0.31034 0.61170 0.08271 -0.45700
C 	C 	0.33470 0.65457 0.06039 0.05000
H 	H 	0.33680 0.65300 0.07830 0.03700
C 	C 	0.34740 0.67320 0.04711 -0.10100
C 	C 	0.36200 0.69280 0.06120 0.38000
C 	C 	0.34530 0.67470 0.02124 -0.00000
H 	H 	0.35400 0.68790 0.01250 0.04900
C 	C 	0.43100 0.70120 0.87050 0.38500
C 	C 	0.44510 0.68310 0.85330 -0.09100
C 	C 	0.43122 0.66780 0.83690 0.03100
H 	H 	0.41320 0.66680 0.83810 0.04700
C 	C 	0.44433 0.65400 0.81850 -0.08500
C 	C 	0.43015 0.63950 0.79850 0.36300
C 	C 	0.47095 0.65490 0.81790 -0.01500
H 	H 	0.47970 0.64530 0.80540 0.05300
C 	C 	0.47182 0.68380 0.85218 -0.01500
H 	H 	0.48090 0.69450 0.86350 0.05300
C 	C 	0.48495 0.66920 0.83501 0.00600
C 	C 	0.51376 0.66970 0.83356 -0.00500
C 	C 	0.52835 0.68423 0.85022 -0.00400
H 	H 	0.52000 0.69410 0.86290 0.04900
C 	C 	0.55464 0.68472 0.84884 -0.09800
C 	C 	0.56979 0.70220 0.86515 0.38200
C 	C 	0.56715 0.67039 0.83080 0.04200
H 	H 	0.58520 0.67000 0.83020 0.04700
C 	C 	0.55246 0.65639 0.81338 -0.10000
C 	C 	0.56586 0.64259 0.79214 0.40600
C 	C 	0.52626 0.65650 0.81468 -0.00300
H 	H 	0.51670 0.64730 0.80240 0.05100
C 	C 	0.24630 0.54304 0.93151 0.42000
C 	C 	0.24720 0.51866 0.94624 -0.11400
C 	C 	0.24750 0.49579 0.93314 0.05300
H 	H 	0.24660 0.49560 0.91510 0.04700
C 	C 	0.24900 0.47357 0.94632 -0.10900
C 	C 	0.24920 0.44931 0.93162 0.38700
C 	C 	0.25000 0.47338 0.97250 -0.00200
H 	H 	0.25140 0.45770 0.98130 0.04900
C 	C 	0.24900 0.49617 0.98598 -0.00500
C 	C 	0.24840 0.51882 0.97240 0.00100
H 	H 	0.24890 0.53460 0.98120 0.04900
O 	O 	0.34533 0.77918 0.86707 -0.48600
C 	C 	0.30220 0.61995 0.06176 0.38700
Zn	Zn	0.37599 0.28024 0.62110 1.22100
Zn	Zn	0.38053 0.22280 0.62563 1.21600
Zn	Zn	0.37944 0.25101 0.57210 1.21900
Zn	Zn	0.42958 0.25020 0.60563 1.22000
Zn	Zn	0.26855 0.38138 0.62687 1.21800
Zn	Zn	0.20935 0.38776 0.61624 1.22000
Zn	Zn	0.24644 0.40219 0.57145 1.22000
Zn	Zn	0.24368 0.43576 0.62026 1.22000
O 	O 	0.33831 0.25911 0.61698 -0.46200
O 	O 	0.28185 0.15710 0.62977 -0.47000
O 	O 	0.24299 0.16534 0.61533 -0.41200
O 	O 	0.25524 0.34427 0.62396 -0.44400
O 	O 	0.21670 0.35089 0.60690 -0.45900
O 	O 	0.16219 0.24729 0.61354 -0.47800
O 	O 	0.15316 0.28820 0.62040 -0.47800
O 	O 	0.35969 0.30560 0.59898 -0.46000
O 	O 	0.36345 0.28346 0.56290 -0.48700
O 	O 	0.29365 0.37308 0.59793 -0.46300
O 	O 	0.27680 0.38442 0.56061 -0.48700
O 	O 	0.28107 0.38525 0.44754 -0.47200
O 	O 	0.37288 0.31300 0.41878 -0.45500
O 	O 	0.36070 0.28477 0.44830 -0.47700
O 	O 	0.40851 0.30306 0.62521 -0.45900
O 	O 	0.44362 0.27931 0.62207 -0.48900
O 	O 	0.44078 0.36100 0.72343 -0.48500
O 	O 	0.40919 0.36974 0.69645 -0.41000
O 	O 	0.59392 0.30126 0.63562 -0.47900
O 	O 	0.55812 0.28118 0.62255 -0.48700
O 	O 	0.55211 0.36254 0.72666 -0.48700
O 	O 	0.58841 0.36267 0.70561 -0.45800
O 	O 	0.24330 0.45932 0.59164 -0.50700
O 	O 	0.24781 0.43654 0.55664 -0.49600
O 	O 	0.24678 0.54881 0.59218 -0.49300
O 	O 	0.25155 0.57135 0.55622 -0.48500
O 	O 	0.24300 0.40179 0.60757 -0.92400
O 	O 	0.39306 0.25088 0.60599 -0.94800
C 	C 	0.33172 0.23830 0.62420 0.39200
C 	C 	0.30378 0.23170 0.62330 -0.08800
C 	C 	0.29671 0.20620 0.62420 0.03000
H 	H 	0.30930 0.19330 0.62580 0.05500
C 	C 	0.27135 0.19974 0.62270 -0.08400
C 	C 	0.26490 0.17182 0.62220 0.36900
C 	C 	0.25301 0.21860 0.62110 -0.01500
H 	H 	0.23560 0.21400 0.62040 0.05300
C 	C 	0.28524 0.25042 0.62120 -0.01400
H 	H 	0.29020 0.26770 0.62010 0.05400
C 	C 	0.25966 0.24427 0.62060 0.00600
C 	C 	0.23980 0.26454 0.61950 -0.00500
C 	C 	0.21433 0.25858 0.61810 -0.00200
H 	H 	0.20940 0.24120 0.61790 0.04900
C 	C 	0.24590 0.29045 0.61930 -0.00400
H 	H 	0.26320 0.29550 0.62090 0.04900
C 	C 	0.22730 0.30893 0.61700 -0.09800
C 	C 	0.23370 0.33680 0.61660 0.37300
C 	C 	0.20260 0.30220 0.61550 0.05000
H 	H 	0.18990 0.31490 0.61330 0.04200
C 	C 	0.19569 0.27705 0.61700 -0.10400
C 	C 	0.16802 0.27010 0.61640 0.39100
C 	C 	0.35589 0.30218 0.57547 0.38800
C 	C 	0.34154 0.32238 0.56134 -0.09500
C 	C 	0.32584 0.33891 0.57452 0.04300
H 	H 	0.32520 0.33860 0.59260 0.04800
C 	C 	0.31099 0.35589 0.56073 -0.10100
C 	C 	0.29229 0.37251 0.57429 0.40100
C 	C 	0.31291 0.35711 0.53454 -0.00600
H 	H 	0.30310 0.36920 0.52540 0.05300
C 	C 	0.34303 0.32334 0.53495 -0.00900
H 	H 	0.35380 0.31180 0.52620 0.05300
C 	C 	0.32904 0.34080 0.52150 0.00200
C 	C 	0.33082 0.34241 0.49269 -0.00300
C 	C 	0.31695 0.36021 0.47900 -0.00300
H 	H 	0.30590 0.37150 0.48780 0.05000
C 	C 	0.31887 0.36181 0.45256 -0.09800
O 	O 	0.31034 0.38830 0.41729 -0.45700
C 	C 	0.33470 0.34543 0.43961 0.05000
H 	H 	0.33680 0.34700 0.42170 0.03700
C 	C 	0.34740 0.32680 0.45289 -0.10100
C 	C 	0.36200 0.30720 0.43880 0.38000
C 	C 	0.34530 0.32530 0.47876 -0.00000
H 	H 	0.35400 0.31210 0.48750 0.04900
C 	C 	0.43100 0.29880 0.62950 0.38500
C 	C 	0.44510 0.31690 0.64670 -0.09100
C 	C 	0.43122 0.33220 0.66310 0.03100
H 	H 	0.41320 0.33320 0.66190 0.04700
C 	C 	0.44433 0.34600 0.68150 -0.08500
C 	C 	0.43015 0.36050 0.70150 0.36300
C 	C 	0.47095 0.34510 0.68210 -0.01500
H 	H 	0.47970 0.35470 0.69460 0.05300
C 	C 	0.47182 0.31620 0.64782 -0.01500
H 	H 	0.48090 0.30550 0.63650 0.05300
C 	C 	0.48495 0.33080 0.66499 0.00600
C 	C 	0.51376 0.33030 0.66644 -0.00500
C 	C 	0.52835 0.31577 0.64978 -0.00400
H 	H 	0.52000 0.30590 0.63710 0.04900
C 	C 	0.55464 0.31528 0.65116 -0.09800
C 	C 	0.56979 0.29780 0.63485 0.38200
C 	C 	0.56715 0.32961 0.66920 0.04200
H 	H 	0.58520 0.33000 0.66980 0.04700
C 	C 	0.55246 0.34361 0.68662 -0.10000
C 	C 	0.56586 0.35741 0.70786 0.40600
C 	C 	0.52626 0.34350 0.68532 -0.00300
H 	H 	0.51670 0.35270 0.69760 0.05100
C 	C 	0.24630 0.45696 0.56849 0.42000
C 	C 	0.24720 0.48134 0.55376 -0.11400
C 	C 	0.24750 0.50421 0.56686 0.05300
H 	H 	0.24660 0.50440 0.58490 0.04700
C 	C 	0.24900 0.52643 0.55368 -0.10900
C 	C 	0.24920 0.55069 0.56838 0.38700
C 	C 	0.25000 0.52662 0.52750 -0.00200
H 	H 	0.25140 0.54230 0.51870 0.04900
C 	C 	0.24900 0.50383 0.51402 -0.00500
C 	C 	0.24840 0.48118 0.52760 0.00100
H 	H 	0.24890 0.46540 0.51880 0.04900
O 	O 	0.34533 0.22082 0.63293 -0.48600
C 	C 	0.30220 0.38005 0.43824 0.38700
Zn	Zn	0.87599 0.78024 0.12110 1.22100
Zn	Zn	0.88053 0.72280 0.12563 1.21600
Zn	Zn	0.87944 0.75101 0.07210 1.21900
Zn	Zn	0.92958 0.75020 0.10563 1.22000
Zn	Zn	0.76855 0.88138 0.12687 1.21800
Zn	Zn	0.70935 0.88776 0.11624 1.22000
Zn	Zn	0.74644 0.90219 0.07145 1.22000
Zn	Zn	0.74368 0.93576 0.12026 1.22000
O 	O 	0.83831 0.75911 0.11698 -0.46200
O 	O 	0.78185 0.65710 0.12977 -0.47000
O 	O 	0.74299 0.66534 0.11533 -0.41200
O 	O 	0.75524 0.84427 0.12396 -0.44400
O 	O 	0.71670 0.85089 0.10690 -0.45900
O 	O 	0.66219 0.74729 0.11354 -0.47800
O 	O 	0.65316 0.78820 0.12040 -0.47800
O 	O 	0.85969 0.80560 0.09898 -0.46000
O 	O 	0.86345 0.78346 0.06290 -0.48700
O 	O 	0.79365 0.87308 0.09793 -0.46300
O 	O 	0.77680 0.88442 0.06061 -0.48700
O 	O 	0.78107 0.88525 0.94754 -0.47200
O 	O 	0.87288 0.81300 0.91878 -0.45500
O 	O 	0.86070 0.78477 0.94830 -0.47700
O 	O 	0.90851 0.80306 0.12521 -0.45900
O 	O 	0.94362 0.77931 0.12207 -0.48900
O 	O 	0.94078 0.86100 0.22343 -0.48500
O 	O 	0.90919 0.86974 0.19645 -0.41000
O 	O 	0.09392 0.80126 0.13562 -0.47900
O 	O 	0.05812 0.78118 0.12255 -0.48700
O 	O 	0.05211 0.86254 0.22666 -0.48700
O 	O 	0.08841 0.86267 0.20561 -0.45800
O 	O 	0.74330 0.95932 0.09164 -0.50700
O 	O 	0.74781 0.93654 0.05664 -0.49600
O 	O 	0.74678 0.04881 0.09218 -0.49300
O 	O 	0.75155 0.07135 0.05622 -0.48500
O 	O 	0.74300 0.90179 0.10757 -0.92400
O 	O 	0.89306 0.75088 0.10599 -0.94800
C 	C 	0.83172 0.73830 0.12420 0.39200
C 	C 	0.80378 0.73170 0.12330 -0.08800
C 	C 	0.79671 0.70620 0.12420 0.03000
H 	H 	0.80930 0.69330 0.12580 0.05500
C 	C 	0.77135 0.69974 0.12270 -0.08400
C 	C 	0.76490 0.67182 0.12220 0.36900
C 	C 	0.75301 0.71860 0.12110 -0.01500
H 	H 	0.73560 0.71400 0.12040 0.05300
C 	C 	0.78524 0.75042 0.12120 -0.01400
H 	H 	0.79020 0.76770 0.12010 0.05400
C 	C 	0.75966 0.74427 0.12060 0.00600
C 	C 	0.73980 0.76454 0.11950 -0.00500
C 	C 	0.71433 0.75858 0.11810 -0.00200
H 	H 	0.70940 0.74120 0.11790 0.04900
C 	C 	0.74590 0.79045 0.11930 -0.00400
H 	H 	0.76320 0.79550 0.12090 0.04900
C 	C 	0.72730 0.80893 0.11700 -0.09800
C 	C 	0.73370 0.83680 0.11660 0.37300
C 	C 	0.70260 0.80220 0.11550 0.05000
H 	H 	0.68990 0.81490 0.11330 0.04200
C 	C 	0.69569 0.77705 0.11700 -0.10400
C 	C 	0.66802 0.77010 0.11640 0.39100
C 	C 	0.85589 0.80218 0.07547 0.38800
C 	C 	0.84154 0.82238 0.06134 -0.09500
C 	C 	0.82584 0.83891 0.07452 0.04300
H 	H 	0.82520 0.83860 0.09260 0.04800
C 	C 	0.81099 0.85589 0.06073 -0.10100
C 	C 	0.79229 0.87251 0.07429 0.40100
C 	C 	0.81291 0.85711 0.03454 -0.00600
H 	H 	0.80310 0.86920 0.02540 0.05300
C 	C 	0.84303 0.82334 0.03495 -0.00900
H 	H 	0.85380 0.81180 0.02620 0.05300
C 	C 	0.82904 0.84080 0.02150 0.00200
C 	C 	0.83082 0.84241 0.99269 -0.00300
C 	C 	0.81695 0.86021 0.97900 -0.00300
H 	H 	0.80590 0.87150 0.98780 0.05000
C 	C 	0.81887 0.86181 0.95256 -0.09800
O 	O 	0.81034 0.88830 0.91729 -0.45700
C 	C 	0.83470 0.84543 0.93961 0.05000
H 	H 	0.83680 0.84700 0.92170 0.03700
C 	C 	0.84740 0.82680 0.95289 -0.10100
C 	C 	0.86200 0.80720 0.93880 0.38000
C 	C 	0.84530 0.82530 0.97876 -0.00000
H 	H 	0.85400 0.81210 0.98750 0.04900
C 	C 	0.93100 0.79880 0.12950 0.38500
C 	C 	0.94510 0.81690 0.14670 -0.09100
C 	C 	0.93122 0.83220 0.16310 0.03100
H 	H 	0.91320 0.83320 0.16190 0.04700
C 	C 	0.94433 0.84600 0.18150 -0.08500
C 	C 	0.93015 0.86050 0.20150 0.36300
C 	C 	0.97095 0.84510 0.18210 -0.01500
H 	H 	0.97970 0.85470 0.19460 0.05300
C 	C 	0.97182 0.81620 0.14782 -0.01500
H 	H 	0.98090 0.80550 0.13650 0.05300
C 	C 	0.98495 0.83080 0.16499 0.00600
C 	C 	0.01376 0.83030 0.16644 -0.00500
C 	C 	0.02835 0.81577 0.14978 -0.00400
H 	H 	0.02000 0.80590 0.13710 0.04900
C 	C 	0.05464 0.81528 0.15116 -0.09800
C 	C 	0.06979 0.79780 0.13485 0.38200
C 	C 	0.06715 0.82961 0.16920 0.04200
H 	H 	0.08520 0.83000 0.16980 0.04700
C 	C 	0.05246 0.84361 0.18662 -0.10000
C 	C 	0.06586 0.85741 0.20786 0.40600
C 	C 	0.02626 0.84350 0.18532 -0.00300
H 	H 	0.01670 0.85270 0.19760 0.05100
C 	C 	0.74630 0.95696 0.06849 0.42000
C 	C 	0.74720 0.98134 0.05376 -0.11400
C 	C 	0.74750 0.00421 0.06686 0.05300
H 	H 	0.74660 0.00440 0.08490 0.04700
C 	C 	0.74900 0.02643 0.05368 -0.10900
C 	C 	0.74920 0.05069 0.06838 0.38700
C 	C 	0.75000 0.02662 0.02750 -0.00200
H 	H 	0.75140 0.04230 0.01870 0.04900
C 	C 	0.74900 0.00383 0.01402 -0.00500
C 	C 	0.74840 0.98118 0.02760 0.00100
H 	H 	0.74890 0.96540 0.01880 0.04900
O 	O 	0.84533 0.72082 0.13293 -0.48600
C 	C 	0.80220 0.88005 0.93824 0.38700
Zn	Zn	0.62401 0.78024 0.87890 1.22100
Zn	Zn	0.61947 0.72280 0.87437 1.21600
Zn	Zn	0.62056 0.75101 0.92790 1.21900
Zn	Zn	0.57042 0.75020 0.89437 1.22000
Zn	Zn	0.73145 0.88138 0.87313 1.21800
Zn	Zn	0.79065 0.88776 0.88376 1.22000
Zn	Zn	0.75356 0.90219 0.92855 1.22000
Zn	Zn	0.75632 0.93576 0.87974 1.22000
O 	O 	0.66169 0.75911 0.88302 -0.46200
O 	O 	0.71815 0.65710 0.87023 -0.47000
O 	O 	0.75701 0.66534 0.88467 -0.41200
O 	O 	0.74476 0.84427 0.87604 -0.44400
O 	O 	0.78330 0.85089 0.89310 -0.45900
O 	O 	0.83781 0.74729 0.88646 -0.47800
O 	O 	0.84684 0.78820 0.87960 -0.47800
O 	O 	0.64031 0.80560 0.90102 -0.46000
O 	O 	0.63655 0.78346 0.93710 -0.48700
O 	O 	0.70635 0.87308 0.90207 -0.46300
O 	O 	0.72320 0.88442 0.93939 -0.48700
O 	O 	0.71893 0.88525 0.05246 -0.47200
O 	O 	0.62712 0.81300 0.08122 -0.45500
O 	O 	0.63930 0.78477 0.05170 -0.47700
O 	O 	0.59149 0.80306 0.87479 -0.45900
O 	O 	0.55638 0.77931 0.87793 -0.48900
O 	O 	0.55922 0.86100 0.77657 -0.48500
O 	O 	0.59081 0.86974 0.80355 -0.41000
O 	O 	0.40608 0.80126 0.86438 -0.47900
O 	O 	0.44188 0.78118 0.87745 -0.48700
O 	O 	0.44789 0.86254 0.77334 -0.48700
O 	O 	0.41159 0.86267 0.79439 -0.45800
O 	O 	0.75670 0.95932 0.90836 -0.50700
O 	O 	0.75219 0.93654 0.94336 -0.49600
O 	O 	0.75322 0.04881 0.90782 -0.49300
O 	O 	0.74845 0.07135 0.94378 -0.48500
O 	O 	0.75700 0.90179 0.89243 -0.92400
O 	O 	0.60694 0.75088 0.89401 -0.94800
C 	C 	0.66828 0.73830 0.87580 0.39200
C 	C 	0.69622 0.73170 0.87670 -0.08800
C 	C 	0.70329 0.70620 0.87580 0.03000
H 	H 	0.69070 0.69330 0.87420 0.05500
C 	C 	0.72865 0.69974 0.87730 -0.08400
C 	C 	0.73510 0.67182 0.87780 0.36900
C 	C 	0.74699 0.71860 0.87890 -0.01500
H 	H 	0.76440 0.71400 0.87960 0.05300
C 	C 	0.71476 0.75042 0.87880 -0.01400
H 	H 	0.70980 0.76770 0.87990 0.05400
C 	C 	0.74034 0.74427 0.87940 0.00600
C 	C 	0.76020 0.76454 0.88050 -0.00500
C 	C 	0.78567 0.75858 0.88190 -0.00200
H 	H 	0.79060 0.74120 0.88210 0.04900
C 	C 	0.75410 0.79045 0.88070 -0.00400
H 	H 	0.73680 0.79550 0.87910 0.04900
C 	C 	0.77270 0.80893 0.88300 -0.09800
C 	C 	0.76630 0.83680 0.88340 0.37300
C 	C 	0.79740 0.80220 0.88450 0.05000
H 	H 	0.81010 0.81490 0.88670 0.04200
C 	C 	0.80431 0.77705 0.88300 -0.10400
C 	C 	0.83198 0.77010 0.88360 0.39100
C 	C 	0.64411 0.80218 0.92453 0.38800
C 	C 	0.65846 0.82238 0.93866 -0.09500
C 	C 	0.67416 0.83891 0.92548 0.04300
H 	H 	0.67480 0.83860 0.90740 0.04800
C 	C 	0.68901 0.85589 0.93927 -0.10100
C 	C 	0.70771 0.87251 0.92571 0.40100
C 	C 	0.68709 0.85711 0.96546 -0.00600
H 	H 	0.69690 0.86920 0.97460 0.05300
C 	C 	0.65697 0.82334 0.96505 -0.00900
H 	H 	0.64620 0.81180 0.97380 0.05300
C 	C 	0.67096 0.84080 0.97850 0.00200
C 	C 	0.66918 0.84241 0.00731 -0.00300
C 	C 	0.68305 0.86021 0.02100 -0.00300
H 	H 	0.69410 0.87150 0.01220 0.05000
C 	C 	0.68113 0.86181 0.04744 -0.09800
O 	O 	0.68966 0.88830 0.08271 -0.45700
C 	C 	0.66530 0.84543 0.06039 0.05000
H 	H 	0.66320 0.84700 0.07830 0.03700
C 	C 	0.65260 0.82680 0.04711 -0.10100
C 	C 	0.63800 0.80720 0.06120 0.38000
C 	C 	0.65470 0.82530 0.02124 -0.00000
H 	H 	0.64600 0.81210 0.01250 0.04900
C 	C 	0.56900 0.79880 0.87050 0.38500
C 	C 	0.55490 0.81690 0.85330 -0.09100
C 	C 	0.56878 0.83220 0.83690 0.03100
H 	H 	0.58680 0.83320 0.83810 0.04700
C 	C 	0.55567 0.84600 0.81850 -0.08500
C 	C 	0.56985 0.86050 0.79850 0.36300
C 	C 	0.52905 0.84510 0.81790 -0.01500
H 	H 	0.52030 0.85470 0.80540 0.05300
C 	C 	0.52818 0.81620 0.85218 -0.01500
H 	H 	0.51910 0.80550 0.86350 0.05300
C 	C 	0.51505 0.83080 0.83501 0.00600
C 	C 	0.48624 0.83030 0.83356 -0.00500
C 	C 	0.47165 0.81577 0.85022 -0.00400
H 	H 	0.48000 0.80590 0.86290 0.04900
C 	C 	0.44536 0.81528 0.84884 -0.09800
C 	C 	0.43021 0.79780 0.86515 0.38200
C 	C 	0.43285 0.82961 0.83080 0.04200
H 	H 	0.41480 0.83000 0.83020 0.04700
C 	C 	0.44754 0.84361 0.81338 -0.10000
C 	C 	0.43414 0.85741 0.79214 0.40600
C 	C 	0.47374 0.84350 0.81468 -0.00300
H 	H 	0.48330 0.85270 0.80240 0.05100
C 	C 	0.75370 0.95696 0.93151 0.42000
C 	C 	0.75280 0.98134 0.94624 -0.11400
C 	C 	0.75250 0.00421 0.93314 0.05300
H 	H 	0.75340 0.00440 0.91510 0.04700
C 	C 	0.75100 0.02643 0.94632 -0.10900
C 	C 	0.75080 0.05069 0.93162 0.38700
C 	C 	0.75000 0.02662 0.97250 -0.00200
H 	H 	0.74860 0.04230 0.98130 0.04900
C 	C 	0.75100 0.00383 0.98598 -0.00500
C 	C 	0.75160 0.98118 0.97240 0.00100
H 	H 	0.75110 0.96540 0.98120 0.04900
O 	O 	0.65467 0.72082 0.86707 -0.48600
C 	C 	0.69780 0.88005 0.06176 0.38700
Zn	Zn	0.12401 0.28024 0.37890 1.22100
Zn	Zn	0.11947 0.22280 0.37437 1.21600
Zn	Zn	0.12056 0.25101 0.42790 1.21900
Zn	Zn	0.07042 0.25020 0.39437 1.22000
Zn	Zn	0.23145 0.38138 0.37313 1.21800
Zn	Zn	0.29065 0.38776 0.38376 1.22000
Zn	Zn	0.25356 0.40219 0.42855 1.22000
Zn	Zn	0.25632 0.43576 0.37974 1.22000
O 	O 	0.16169 0.25911 0.38302 -0.46200
O 	O 	0.21815 0.15710 0.37023 -0.47000
O 	O 	0.25701 0.16534 0.38467 -0.41200
O 	O 	0.24476 0.34427 0.37604 -0.44400
O 	O 	0.28330 0.35089 0.39310 -0.45900
O 	O 	0.33781 0.24729 0.38646 -0.47800
O 	O 	0.34684 0.28820 0.37960 -0.47800
O 	O 	0.14031 0.30560 0.40102 -0.46000
O 	O 	0.13655 0.28346 0.43710 -0.48700
O 	O 	0.20635 0.37308 0.40207 -0.46300
O 	O 	0.22320 0.38442 0.43939 -0.48700
O 	O 	0.21893 0.38525 0.55246 -0.47200
O 	O 	0.12712 0.31300 0.58122 -0.45500
O 	O 	0.13930 0.28477 0.55170 -0.47700
O 	O 	0.09149 0.30306 0.37479 -0.45900
O 	O 	0.05638 0.27931 0.37793 -0.48900
O 	O 	0.05922 0.36100 0.27657 -0.48500
O 	O 	0.09081 0.36974 0.30355 -0.41000
O 	O 	0.90608 0.30126 0.36438 -0.47900
O 	O 	0.94188 0.28118 0.37745 -0.48700
O 	O 	0.94789 0.36254 0.27334 -0.48700
O 	O 	0.91159 0.36267 0.29439 -0.45800
O 	O 	0.25670 0.45932 0.40836 -0.50700
O 	O 	0.25219 0.43654 0.44336 -0.49600
O 	O 	0.25322 0.54881 0.40782 -0.49300
O 	O 	0.24845 0.57135 0.44378 -0.48500
O 	O 	0.25700 0.40179 0.39243 -0.92400
O 	O 	0.10694 0.25088 0.39401 -0.94800
C 	C 	0.16828 0.23830 0.37580 0.39200
C 	C 	0.19622 0.23170 0.37670 -0.08800
C 	C 	0.20329 0.20620 0.37580 0.03000
H 	H 	0.19070 0.19330 0.37420 0.05500
C 	C 	0.22865 0.19974 0.37730 -0.08400
C 	C 	0.23510 0.17182 0.37780 0.36900
C 	C 	0.24699 0.21860 0.37890 -0.01500
H 	H 	0.26440 0.21400 0.37960 0.05300
C 	C 	0.21476 0.25042 0.37880 -0.01400
H 	H 	0.20980 0.26770 0.37990 0.05400
C 	C 	0.24034 0.24427 0.37940 0.00600
C 	C 	0.26020 0.26454 0.38050 -0.00500
C 	C 	0.28567 0.25858 0.38190 -0.00200
H 	H 	0.29060 0.24120 0.38210 0.04900
C 	C 	0.25410 0.29045 0.38070 -0.00400
H 	H 	0.23680 0.29550 0.37910 0.04900
C 	C 	0.27270 0.30893 0.38300 -0.09800
C 	C 	0.26630 0.33680 0.38340 0.37300
C 	C 	0.29740 0.30220 0.38450 0.05000
H 	H 	0.31010 0.31490 0.38670 0.04200
C 	C 	0.30431 0.27705 0.38300 -0.10400
C 	C 	0.33198 0.27010 0.38360 0.39100
C 	C 	0.14411 0.30218 0.42453 0.38800
C 	C 	0.15846 0.32238 0.43866 -0.09500
C 	C 	0.17416 0.33891 0.42548 0.04300
H 	H 	0.17480 0.33860 0.40740 0.04800
C 	C 	0.18901 0.35589 0.43927 -0.10100
C 	C 	0.20771 0.37251 0.42571 0.40100
C 	C 	0.18709 0.35711 0.46546 -0.00600
H 	H 	0.19690 0.36920 0.47460 0.05300
C 	C 	0.15697 0.32334 0.46505 -0.00900
H 	H 	0.14620 0.31180 0.47380 0.05300
C 	C 	0.17096 0.34080 0.47850 0.00200
C 	C 	0.16918 0.34241 0.50731 -0.00300
C 	C 	0.18305 0.36021 0.52100 -0.00300
H 	H 	0.19410 0.37150 0.51220 0.05000
C 	C 	0.18113 0.36181 0.54744 -0.09800
O 	O 	0.18966 0.38830 0.58271 -0.45700
C 	C 	0.16530 0.34543 0.56039 0.05000
H 	H 	0.16320 0.34700 0.57830 0.03700
C 	C 	0.15260 0.32680 0.54711 -0.10100
C 	C 	0.13800 0.30720 0.56120 0.38000
C 	C 	0.15470 0.32530 0.52124 -0.00000
H 	H 	0.14600 0.31210 0.51250 0.04900
C 	C 	0.06900 0.29880 0.37050 0.38500
C 	C 	0.05490 0.31690 0.35330 -0.09100
C 	C 	0.06878 0.33220 0.33690 0.03100
H 	H 	0.08680 0.33320 0.33810 0.04700
C 	C 	0.05567 0.34600 0.31850 -0.08500
C 	C 	0.06985 0.36050 0.29850 0.36300
C 	C 	0.02905 0.34510 0.31790 -0.01500
H 	H 	0.02030 0.35470 0.30540 0.05300
C 	C 	0.02818 0.31620 0.35218 -0.01500
H 	H 	0.01910 0.30550 0.36350 0.05300
C 	C 	0.01505 0.33080 0.33501 0.00600
C 	C 	0.98624 0.33030 0.33356 -0.00500
C 	C 	0.97165 0.31577 0.35022 -0.00400
H 	H 	0.98000 0.30590 0.36290 0.04900
C 	C 	0.94536 0.31528 0.34884 -0.09800
C 	C 	0.93021 0.29780 0.36515 0.38200
C 	C 	0.93285 0.32961 0.33080 0.04200
H 	H 	0.91480 0.33000 0.33020 0.04700
C 	C 	0.94754 0.34361 0.31338 -0.10000
C 	C 	0.93414 0.35741 0.29214 0.40600
C 	C 	0.97374 0.34350 0.31468 -0.00300
H 	H 	0.98330 0.35270 0.30240 0.05100
C 	C 	0.25370 0.45696 0.43151 0.42000
C 	C 	0.25280 0.48134 0.44624 -0.11400
C 	C 	0.25250 0.50421 0.43314 0.05300
H 	H 	0.25340 0.50440 0.41510 0.04700
C 	C 	0.25100 0.52643 0.44632 -0.10900
C 	C 	0.25080 0.55069 0.43162 0.38700
C 	C 	0.25000 0.52662 0.47250 -0.00200
H 	H 	0.24860 0.54230 0.48130 0.04900
C 	C 	0.25100 0.50383 0.48598 -0.00500
C 	C 	0.25160 0.48118 0.47240 0.00100
H 	H 	0.25110 0.46540 0.48120 0.04900
O 	O 	0.15467 0.22082 0.36707 -0.48600
C 	C 	0.19780 0.38005 0.56176 0.38700
Zn	Zn	0.12401 0.71976 0.12110 1.22100
Zn	Zn	0.11947 0.77720 0.12563 1.21600
Zn	Zn	0.12056 0.74899 0.07210 1.21900
Zn	Zn	0.07042 0.74980 0.10563 1.22000
Zn	Zn	0.23145 0.61862 0.12687 1.21800
Zn	Zn	0.29065 0.61224 0.11624 1.22000
Zn	Zn	0.25356 0.59781 0.07145 1.22000
Zn	Zn	0.25632 0.56424 0.12026 1.22000
O 	O 	0.16169 0.74089 0.11698 -0.46200
O 	O 	0.21815 0.84290 0.12977 -0.47000
O 	O 	0.25701 0.83466 0.11533 -0.41200
O 	O 	0.24476 0.65573 0.12396 -0.44400
O 	O 	0.28330 0.64911 0.10690 -0.45900
O 	O 	0.33781 0.75271 0.11354 -0.47800
O 	O 	0.34684 0.71180 0.12040 -0.47800
O 	O 	0.14031 0.69440 0.09898 -0.46000
O 	O 	0.13655 0.71654 0.06290 -0.48700
O 	O 	0.20635 0.62692 0.09793 -0.46300
O 	O 	0.22320 0.61558 0.06061 -0.48700
O 	O 	0.21893 0.61475 0.94754 -0.47200
O 	O 	0.12712 0.68700 0.91878 -0.45500
O 	O 	0.13930 0.71523 0.94830 -0.47700
O 	O 	0.09149 0.69694 0.12521 -0.45900
O 	O 	0.05638 0.72069 0.12207 -0.48900
O 	O 	0.05922 0.63900 0.22343 -0.48500
O 	O 	0.09081 0.63026 0.19645 -0.41000
O 	O 	0.90608 0.69874 0.13562 -0.47900
O 	O 	0.94188 0.71882 0.12255 -0.48700
O 	O 	0.94789 0.63746 0.22666 -0.48700
O 	O 	0.91159 0.63733 0.20561 -0.45800
O 	O 	0.25670 0.54068 0.09164 -0.50700
O 	O 	0.25219 0.56346 0.05664 -0.49600
O 	O 	0.25322 0.45119 0.09218 -0.49300
O 	O 	0.24845 0.42865 0.05622 -0.48500
O 	O 	0.25700 0.59821 0.10757 -0.92400
O 	O 	0.10694 0.74912 0.10599 -0.94800
C 	C 	0.16828 0.76170 0.12420 0.39200
C 	C 	0.19622 0.76830 0.12330 -0.08800
C 	C 	0.20329 0.79380 0.12420 0.03000
H 	H 	0.19070 0.80670 0.12580 0.05500
C 	C 	0.22865 0.80026 0.12270 -0.08400
C 	C 	0.23510 0.82818 0.12220 0.36900
C 	C 	0.24699 0.78140 0.12110 -0.01500
H 	H 	0.26440 0.78600 0.12040 0.05300
C 	C 	0.21476 0.74958 0.12120 -0.01400
H 	H 	0.20980 0.73230 0.12010 0.05400
C 	C 	0.24034 0.75573 0.12060 0.00600
C 	C 	0.26020 0.73546 0.11950 -0.00500
C 	C 	0.28567 0.74142 0.11810 -0.00200
H 	H 	0.29060 0.75880 0.11790 0.04900
C 	C 	0.25410 0.70955 0.11930 -0.00400
H 	H 	0.23680 0.70450 0.12090 0.04900
C 	C 	0.27270 0.69107 0.11700 -0.09800
C 	C 	0.26630 0.66320 0.11660 0.37300
C 	C 	0.29740 0.69780 0.11550 0.05000
H 	H 	0.31010 0.68510 0.11330 0.04200
C 	C 	0.30431 0.72295 0.11700 -0.10400
C 	C 	0.33198 0.72990 0.11640 0.39100
C 	C 	0.14411 0.69782 0.07547 0.38800
C 	C 	0.15846 0.67762 0.06134 -0.09500
C 	C 	0.17416 0.66109 0.07452 0.04300
H 	H 	0.17480 0.66140 0.09260 0.04800
C 	C 	0.18901 0.64411 0.06073 -0.10100
C 	C 	0.20771 0.62749 0.07429 0.40100
C 	C 	0.18709 0.64289 0.03454 -0.00600
H 	H 	0.19690 0.63080 0.02540 0.05300
C 	C 	0.15697 0.67666 0.03495 -0.00900
H 	H 	0.14620 0.68820 0.02620 0.05300
C 	C 	0.17096 0.65920 0.02150 0.00200
C 	C 	0.16918 0.65759 0.99269 -0.00300
C 	C 	0.18305 0.63979 0.97900 -0.00300
H 	H 	0.19410 0.62850 0.98780 0.05000
C 	C 	0.18113 0.63819 0.95256 -0.09800
O 	O 	0.18966 0.61170 0.91729 -0.45700
C 	C 	0.16530 0.65457 0.93961 0.05000
H 	H 	0.16320 0.65300 0.92170 0.03700
C 	C 	0.15260 0.67320 0.95289 -0.10100
C 	C 	0.13800 0.69280 0.93880 0.38000
C 	C 	0.15470 0.67470 0.97876 -0.00000
H 	H 	0.14600 0.68790 0.98750 0.04900
C 	C 	0.06900 0.70120 0.12950 0.38500
C 	C 	0.05490 0.68310 0.14670 -0.09100
C 	C 	0.06878 0.66780 0.16310 0.03100
H 	H 	0.08680 0.66680 0.16190 0.04700
C 	C 	0.05567 0.65400 0.18150 -0.08500
C 	C 	0.06985 0.63950 0.20150 0.36300
C 	C 	0.02905 0.65490 0.18210 -0.01500
H 	H 	0.02030 0.64530 0.19460 0.05300
C 	C 	0.02818 0.68380 0.14782 -0.01500
H 	H 	0.01910 0.69450 0.13650 0.05300
C 	C 	0.01505 0.66920 0.16499 0.00600
C 	C 	0.98624 0.66970 0.16644 -0.00500
C 	C 	0.97165 0.68423 0.14978 -0.00400
H 	H 	0.98000 0.69410 0.13710 0.04900
C 	C 	0.94536 0.68472 0.15116 -0.09800
C 	C 	0.93021 0.70220 0.13485 0.38200
C 	C 	0.93285 0.67039 0.16920 0.04200
H 	H 	0.91480 0.67000 0.16980 0.04700
C 	C 	0.94754 0.65639 0.18662 -0.10000
C 	C 	0.93414 0.64259 0.20786 0.40600
C 	C 	0.97374 0.65650 0.18532 -0.00300
H 	H 	0.98330 0.64730 0.19760 0.05100
C 	C 	0.25370 0.54304 0.06849 0.42000
C 	C 	0.25280 0.51866 0.05376 -0.11400
C 	C 	0.25250 0.49579 0.06686 0.05300
H 	H 	0.25340 0.49560 0.08490 0.04700
C 	C 	0.25100 0.47357 0.05368 -0.10900
C 	C 	0.25080 0.44931 0.06838 0.38700
C 	C 	0.25000 0.47338 0.02750 -0.00200
H 	H 	0.24860 0.45770 0.01870 0.04900
C 	C 	0.25100 0.49617 0.01402 -0.00500
C 	C 	0.25160 0.51882 0.02760 0.00100
H 	H 	0.25110 0.53460 0.01880 0.04900
O 	O 	0.15467 0.77918 0.13293 -0.48600
C 	C 	0.19780 0.61995 0.93824 0.38700
Zn	Zn	0.62401 0.21976 0.62110 1.22100
Zn	Zn	0.61947 0.27720 0.62563 1.21600
Zn	Zn	0.62056 0.24899 0.57210 1.21900
Zn	Zn	0.57042 0.24980 0.60563 1.22000
Zn	Zn	0.73145 0.11862 0.62687 1.21800
Zn	Zn	0.79065 0.11224 0.61624 1.22000
Zn	Zn	0.75356 0.09781 0.57145 1.22000
Zn	Zn	0.75632 0.06424 0.62026 1.22000
O 	O 	0.66169 0.24089 0.61698 -0.46200
O 	O 	0.71815 0.34290 0.62977 -0.47000
O 	O 	0.75701 0.33466 0.61533 -0.41200
O 	O 	0.74476 0.15573 0.62396 -0.44400
O 	O 	0.78330 0.14911 0.60690 -0.45900
O 	O 	0.83781 0.25271 0.61354 -0.47800
O 	O 	0.84684 0.21180 0.62040 -0.47800
O 	O 	0.64031 0.19440 0.59898 -0.46000
O 	O 	0.63655 0.21654 0.56290 -0.48700
O 	O 	0.70635 0.12692 0.59793 -0.46300
O 	O 	0.72320 0.11558 0.56061 -0.48700
O 	O 	0.71893 0.11475 0.44754 -0.47200
O 	O 	0.62712 0.18700 0.41878 -0.45500
O 	O 	0.63930 0.21523 0.44830 -0.47700
O 	O 	0.59149 0.19694 0.62521 -0.45900
O 	O 	0.55638 0.22069 0.62207 -0.48900
O 	O 	0.55922 0.13900 0.72343 -0.48500
O 	O 	0.59081 0.13026 0.69645 -0.41000
O 	O 	0.40608 0.19874 0.63562 -0.47900
O 	O 	0.44188 0.21882 0.62255 -0.48700
O 	O 	0.44789 0.13746 0.72666 -0.48700
O 	O 	0.41159 0.13733 0.70561 -0.45800
O 	O 	0.75670 0.04068 0.59164 -0.50700
O 	O 	0.75219 0.06346 0.55664 -0.49600
O 	O 	0.75322 0.95119 0.59218 -0.49300
O 	O 	0.74845 0.92865 0.55622 -0.48500
O 	O 	0.75700 0.09821 0.60757 -0.92400
O 	O 	0.60694 0.24912 0.60599 -0.94800
C 	C 	0.66828 0.26170 0.62420 0.39200
C 	C 	0.69622 0.26830 0.62330 -0.08800
C 	C 	0.70329 0.29380 0.62420 0.03000
H 	H 	0.69070 0.30670 0.62580 0.05500
C 	C 	0.72865 0.30026 0.62270 -0.08400
C 	C 	0.73510 0.32818 0.62220 0.36900
C 	C 	0.74699 0.28140 0.62110 -0.01500
H 	H 	0.76440 0.28600 0.62040 0.05300
C 	C 	0.71476 0.24958 0.62120 -0.01400
H 	H 	0.70980 0.23230 0.62010 0.05400
C 	C 	0.74034 0.25573 0.62060 0.00600
C 	C 	0.76020 0.23546 0.61950 -0.00500
C 	C 	0.78567 0.24142 0.61810 -0.00200
H 	H 	0.79060 0.25880 0.61790 0.04900
C 	C 	0.75410 0.20955 0.61930 -0.00400
H 	H 	0.73680 0.20450 0.62090 0.04900
C 	C 	0.77270 0.19107 0.61700 -0.09800
C 	C 	0.76630 0.16320 0.61660 0.37300
C 	C 	0.79740 0.19780 0.61550 0.05000
H 	H 	0.81010 0.18510 0.61330 0.04200
C 	C 	0.80431 0.22295 0.61700 -0.10400
C 	C 	0.83198 0.22990 0.61640 0.39100
C 	C 	0.64411 0.19782 0.57547 0.38800
C 	C 	0.65846 0.17762 0.56134 -0.09500
C 	C 	0.67416 0.16109 0.57452 0.04300
H 	H 	0.67480 0.16140 0.59260 0.04800
C 	C 	0.68901 0.14411 0.56073 -0.10100
C 	C 	0.70771 0.12749 0.57429 0.40100
C 	C 	0.68709 0.14289 0.53454 -0.00600
H 	H 	0.69690 0.13080 0.52540 0.05300
C 	C 	0.65697 0.17666 0.53495 -0.00900
H 	H 	0.64620 0.18820 0.52620 0.05300
C 	C 	0.67096 0.15920 0.52150 0.00200
C 	C 	0.66918 0.15759 0.49269 -0.00300
C 	C 	0.68305 0.13979 0.47900 -0.00300
H 	H 	0.69410 0.12850 0.48780 0.05000
C 	C 	0.68113 0.13819 0.45256 -0.09800
O 	O 	0.68966 0.11170 0.41729 -0.45700
C 	C 	0.66530 0.15457 0.43961 0.05000
H 	H 	0.66320 0.15300 0.42170 0.03700
C 	C 	0.65260 0.17320 0.45289 -0.10100
C 	C 	0.63800 0.19280 0.43880 0.38000
C 	C 	0.65470 0.17470 0.47876 -0.00000
H 	H 	0.64600 0.18790 0.48750 0.04900
C 	C 	0.56900 0.20120 0.62950 0.38500
C 	C 	0.55490 0.18310 0.64670 -0.09100
C 	C 	0.56878 0.16780 0.66310 0.03100
H 	H 	0.58680 0.16680 0.66190 0.04700
C 	C 	0.55567 0.15400 0.68150 -0.08500
C 	C 	0.56985 0.13950 0.70150 0.36300
C 	C 	0.52905 0.15490 0.68210 -0.01500
H 	H 	0.52030 0.14530 0.69460 0.05300
C 	C 	0.52818 0.18380 0.64782 -0.01500
H 	H 	0.51910 0.19450 0.63650 0.05300
C 	C 	0.51505 0.16920 0.66499 0.00600
C 	C 	0.48624 0.16970 0.66644 -0.00500
C 	C 	0.47165 0.18423 0.64978 -0.00400
H 	H 	0.48000 0.19410 0.63710 0.04900
C 	C 	0.44536 0.18472 0.65116 -0.09800
C 	C 	0.43021 0.20220 0.63485 0.38200
C 	C 	0.43285 0.17039 0.66920 0.04200
H 	H 	0.41480 0.17000 0.66980 0.04700
C 	C 	0.44754 0.15639 0.68662 -0.10000
C 	C 	0.43414 0.14259 0.70786 0.40600
C 	C 	0.47374 0.15650 0.68532 -0.00300
H 	H 	0.48330 0.14730 0.69760 0.05100
C 	C 	0.75370 0.04304 0.56849 0.42000
C 	C 	0.75280 0.01866 0.55376 -0.11400
C 	C 	0.75250 0.99579 0.56686 0.05300
H 	H 	0.75340 0.99560 0.58490 0.04700
C 	C 	0.75100 0.97357 0.55368 -0.10900
C 	C 	0.75080 0.94931 0.56838 0.38700
C 	C 	0.75000 0.97338 0.52750 -0.00200
H 	H 	0.74860 0.95770 0.51870 0.04900
C 	C 	0.75100 0.99617 0.51402 -0.00500
C 	C 	0.75160 0.01882 0.52760 0.00100
H 	H 	0.75110 0.03460 0.51880 0.04900
O 	O 	0.65467 0.27918 0.63293 -0.48600
C 	C 	0.69780 0.11995 0.43824 0.38700
Zn	Zn	0.37890 0.87599 0.21976 1.22100
Zn	Zn	0.37437 0.88053 0.27720 1.21600
Zn	Zn	0.42790 0.87944 0.24899 1.21900
Zn	Zn	0.39437 0.92958 0.24980 1.22000
Zn	Zn	0.37313 0.76855 0.11862 1.21800
Zn	Zn	0.38376 0.70935 0.11224 1.22000
Zn	Zn	0.42855 0.74644 0.09781 1.22000
Zn	Zn	0.37974 0.74368 0.06424 1.22000
O 	O 	0.38302 0.83831 0.24089 -0.46200
O 	O 	0.37023 0.78185 0.34290 -0.47000
O 	O 	0.38467 0.74299 0.33466 -0.41200
O 	O 	0.37604 0.75524 0.15573 -0.44400
O 	O 	0.39310 0.71670 0.14911 -0.45900
O 	O 	0.38646 0.66219 0.25271 -0.47800
O 	O 	0.37960 0.65316 0.21180 -0.47800
O 	O 	0.40102 0.85969 0.19440 -0.46000
O 	O 	0.43710 0.86345 0.21654 -0.48700
O 	O 	0.40207 0.79365 0.12692 -0.46300
O 	O 	0.43939 0.77680 0.11558 -0.48700
O 	O 	0.55246 0.78107 0.11475 -0.47200
O 	O 	0.58122 0.87288 0.18700 -0.45500
O 	O 	0.55170 0.86070 0.21523 -0.47700
O 	O 	0.37479 0.90851 0.19694 -0.45900
O 	O 	0.37793 0.94362 0.22069 -0.48900
O 	O 	0.27657 0.94078 0.13900 -0.48500
O 	O 	0.30355 0.90919 0.13026 -0.41000
O 	O 	0.36438 0.09392 0.19874 -0.47900
O 	O 	0.37745 0.05812 0.21882 -0.48700
O 	O 	0.27334 0.05211 0.13746 -0.48700
O 	O 	0.29439 0.08841 0.13733 -0.45800
O 	O 	0.40836 0.74330 0.04068 -0.50700
O 	O 	0.44336 0.74781 0.06346 -0.49600
O 	O 	0.40782 0.74678 0.95119 -0.49300
O 	O 	0.44378 0.75155 0.92865 -0.48500
O 	O 	0.39243 0.74300 0.09821 -0.92400
O 	O 	0.39401 0.89306 0.24912 -0.94800
C 	C 	0.37580 0.83172 0.26170 0.39200
C 	C 	0.37670 0.80378 0.26830 -0.08800
C 	C 	0.37580 0.79671 0.29380 0.03000
H 	H 	0.37420 0.80930 0.30670 0.05500
C 	C 	0.37730 0.77135 0.30026 -0.08400
C 	C 	0.37780 0.76490 0.32818 0.36900
C 	C 	0.37890 0.75301 0.28140 -0.01500
H 	H 	0.37960 0.73560 0.28600 0.05300
C 	C 	0.37880 0.78524 0.24958 -0.01400
H 	H 	0.37990 0.79020 0.23230 0.05400
C 	C 	0.37940 0.75966 0.25573 0.00600
C 	C 	0.38050 0.73980 0.23546 -0.00500
C 	C 	0.38190 0.71433 0.24142 -0.00200
H 	H 	0.38210 0.70940 0.25880 0.04900
C 	C 	0.38070 0.74590 0.20955 -0.00400
H 	H 	0.37910 0.76320 0.20450 0.04900
C 	C 	0.38300 0.72730 0.19107 -0.09800
C 	C 	0.38340 0.73370 0.16320 0.37300
C 	C 	0.38450 0.70260 0.19780 0.05000
H 	H 	0.38670 0.68990 0.18510 0.04200
C 	C 	0.38300 0.69569 0.22295 -0.10400
C 	C 	0.38360 0.66802 0.22990 0.39100
C 	C 	0.42453 0.85589 0.19782 0.38800
C 	C 	0.43866 0.84154 0.17762 -0.09500
C 	C 	0.42548 0.82584 0.16109 0.04300
H 	H 	0.40740 0.82520 0.16140 0.04800
C 	C 	0.43927 0.81099 0.14411 -0.10100
C 	C 	0.42571 0.79229 0.12749 0.40100
C 	C 	0.46546 0.81291 0.14289 -0.00600
H 	H 	0.47460 0.80310 0.13080 0.05300
C 	C 	0.46505 0.84303 0.17666 -0.00900
H 	H 	0.47380 0.85380 0.18820 0.05300
C 	C 	0.47850 0.82904 0.15920 0.00200
C 	C 	0.50731 0.83082 0.15759 -0.00300
C 	C 	0.52100 0.81695 0.13979 -0.00300
H 	H 	0.51220 0.80590 0.12850 0.05000
C 	C 	0.54744 0.81887 0.13819 -0.09800
O 	O 	0.58271 0.81034 0.11170 -0.45700
C 	C 	0.56039 0.83470 0.15457 0.05000
H 	H 	0.57830 0.83680 0.15300 0.03700
C 	C 	0.54711 0.84740 0.17320 -0.10100
C 	C 	0.56120 0.86200 0.19280 0.38000
C 	C 	0.52124 0.84530 0.17470 -0.00000
H 	H 	0.51250 0.85400 0.18790 0.04900
C 	C 	0.37050 0.93100 0.20120 0.38500
C 	C 	0.35330 0.94510 0.18310 -0.09100
C 	C 	0.33690 0.93122 0.16780 0.03100
H 	H 	0.33810 0.91320 0.16680 0.04700
C 	C 	0.31850 0.94433 0.15400 -0.08500
C 	C 	0.29850 0.93015 0.13950 0.36300
C 	C 	0.31790 0.97095 0.15490 -0.01500
H 	H 	0.30540 0.97970 0.14530 0.05300
C 	C 	0.35218 0.97182 0.18380 -0.01500
H 	H 	0.36350 0.98090 0.19450 0.05300
C 	C 	0.33501 0.98495 0.16920 0.00600
C 	C 	0.33356 0.01376 0.16970 -0.00500
C 	C 	0.35022 0.02835 0.18423 -0.00400
H 	H 	0.36290 0.02000 0.19410 0.04900
C 	C 	0.34884 0.05464 0.18472 -0.09800
C 	C 	0.36515 0.06979 0.20220 0.38200
C 	C 	0.33080 0.06715 0.17039 0.04200
H 	H 	0.33020 0.08520 0.17000 0.04700
C 	C 	0.31338 0.05246 0.15639 -0.10000
C 	C 	0.29214 0.06586 0.14259 0.40600
C 	C 	0.31468 0.02626 0.15650 -0.00300
H 	H 	0.30240 0.01670 0.14730 0.05100
C 	C 	0.43151 0.74630 0.04304 0.42000
C 	C 	0.44624 0.74720 0.01866 -0.11400
C 	C 	0.43314 0.74750 0.99579 0.05300
H 	H 	0.41510 0.74660 0.99560 0.04700
C 	C 	0.44632 0.74900 0.97357 -0.10900
C 	C 	0.43162 0.74920 0.94931 0.38700
C 	C 	0.47250 0.75000 0.97338 -0.00200
H 	H 	0.48130 0.75140 0.95770 0.04900
C 	C 	0.48598 0.74900 0.99617 -0.00500
C 	C 	0.47240 0.74840 0.01882 0.00100
H 	H 	0.48120 0.74890 0.03460 0.04900
O 	O 	0.36707 0.84533 0.27918 -0.48600
C 	C 	0.56176 0.80220 0.11995 0.38700
Zn	Zn	0.87890 0.37599 0.71976 1.22100
Zn	Zn	0.87437 0.38053 0.77720 1.21600
Zn	Zn	0.92790 0.37944 0.74899 1.21900
Zn	Zn	0.89437 0.42958 0.74980 1.22000
Zn	Zn	0.87313 0.26855 0.61862 1.21800
Zn	Zn	0.88376 0.20935 0.61224 1.22000
Zn	Zn	0.92855 0.24644 0.59781 1.22000
Zn	Zn	0.87974 0.24368 0.56424 1.22000
O 	O 	0.88302 0.33831 0.74089 -0.46200
O 	O 	0.87023 0.28185 0.84290 -0.47000
O 	O 	0.88467 0.24299 0.83466 -0.41200
O 	O 	0.87604 0.25524 0.65573 -0.44400
O 	O 	0.89310 0.21670 0.64911 -0.45900
O 	O 	0.88646 0.16219 0.75271 -0.47800
O 	O 	0.87960 0.15316 0.71180 -0.47800
O 	O 	0.90102 0.35969 0.69440 -0.46000
O 	O 	0.93710 0.36345 0.71654 -0.48700
O 	O 	0.90207 0.29365 0.62692 -0.46300
O 	O 	0.93939 0.27680 0.61558 -0.48700
O 	O 	0.05246 0.28107 0.61475 -0.47200
O 	O 	0.08122 0.37288 0.68700 -0.45500
O 	O 	0.05170 0.36070 0.71523 -0.47700
O 	O 	0.87479 0.40851 0.69694 -0.45900
O 	O 	0.87793 0.44362 0.72069 -0.48900
O 	O 	0.77657 0.44078 0.63900 -0.48500
O 	O 	0.80355 0.40919 0.63026 -0.41000
O 	O 	0.86438 0.59392 0.69874 -0.47900
O 	O 	0.87745 0.55812 0.71882 -0.48700
O 	O 	0.77334 0.55211 0.63746 -0.48700
O 	O 	0.79439 0.58841 0.63733 -0.45800
O 	O 	0.90836 0.24330 0.54068 -0.50700
O 	O 	0.94336 0.24781 0.56346 -0.49600
O 	O 	0.90782 0.24678 0.45119 -0.49300
O 	O 	0.94378 0.25155 0.42865 -0.48500
O 	O 	0.89243 0.24300 0.59821 -0.92400
O 	O 	0.89401 0.39306 0.74912 -0.94800
C 	C 	0.87580 0.33172 0.76170 0.39200
C 	C 	0.87670 0.30378 0.76830 -0.08800
C 	C 	0.87580 0.29671 0.79380 0.03000
H 	H 	0.87420 0.30930 0.80670 0.05500
C 	C 	0.87730 0.27135 0.80026 -0.08400
C 	C 	0.87780 0.26490 0.82818 0.36900
C 	C 	0.87890 0.25301 0.78140 -0.01500
H 	H 	0.87960 0.23560 0.78600 0.05300
C 	C 	0.87880 0.28524 0.74958 -0.01400
H 	H 	0.87990 0.29020 0.73230 0.05400
C 	C 	0.87940 0.25966 0.75573 0.00600
C 	C 	0.88050 0.23980 0.73546 -0.00500
C 	C 	0.88190 0.21433 0.74142 -0.00200
H 	H 	0.88210 0.20940 0.75880 0.04900
C 	C 	0.88070 0.24590 0.70955 -0.00400
H 	H 	0.87910 0.26320 0.70450 0.04900
C 	C 	0.88300 0.22730 0.69107 -0.09800
C 	C 	0.88340 0.23370 0.66320 0.37300
C 	C 	0.88450 0.20260 0.69780 0.05000
H 	H 	0.88670 0.18990 0.68510 0.04200
C 	C 	0.88300 0.19569 0.72295 -0.10400
C 	C 	0.88360 0.16802 0.72990 0.39100
C 	C 	0.92453 0.35589 0.69782 0.38800
C 	C 	0.93866 0.34154 0.67762 -0.09500
C 	C 	0.92548 0.32584 0.66109 0.04300
H 	H 	0.90740 0.32520 0.66140 0.04800
C 	C 	0.93927 0.31099 0.64411 -0.10100
C 	C 	0.92571 0.29229 0.62749 0.40100
C 	C 	0.96546 0.31291 0.64289 -0.00600
H 	H 	0.97460 0.30310 0.63080 0.05300
C 	C 	0.96505 0.34303 0.67666 -0.00900
H 	H 	0.97380 0.35380 0.68820 0.05300
C 	C 	0.97850 0.32904 0.65920 0.00200
C 	C 	0.00731 0.33082 0.65759 -0.00300
C 	C 	0.02100 0.31695 0.63979 -0.00300
H 	H 	0.01220 0.30590 0.62850 0.05000
C 	C 	0.04744 0.31887 0.63819 -0.09800
O 	O 	0.08271 0.31034 0.61170 -0.45700
C 	C 	0.06039 0.33470 0.65457 0.05000
H 	H 	0.07830 0.33680 0.65300 0.03700
C 	C 	0.04711 0.34740 0.67320 -0.10100
C 	C 	0.06120 0.36200 0.69280 0.38000
C 	C 	0.02124 0.34530 0.67470 -0.00000
H 	H 	0.01250 0.35400 0.68790 0.04900
C 	C 	0.87050 0.43100 0.70120 0.38500
C 	C 	0.85330 0.44510 0.68310 -0.09100
C 	C 	0.83690 0.43122 0.66780 0.03100
H 	H 	0.83810 0.41320 0.66680 0.04700
C 	C 	0.81850 0.44433 0.65400 -0.08500
C 	C 	0.79850 0.43015 0.63950 0.36300
C 	C 	0.81790 0.47095 0.65490 -0.01500
H 	H 	0.80540 0.47970 0.64530 0.05300
C 	C 	0.85218 0.47182 0.68380 -0.01500
H 	H 	0.86350 0.48090 0.69450 0.05300
C 	C 	0.83501 0.48495 0.66920 0.00600
C 	C 	0.83356 0.51376 0.66970 -0.00500
C 	C 	0.85022 0.52835 0.68423 -0.00400
H 	H 	0.86290 0.52000 0.69410 0.04900
C 	C 	0.84884 0.55464 0.68472 -0.09800
C 	C 	0.86515 0.56979 0.70220 0.38200
C 	C 	0.83080 0.56715 0.67039 0.04200
H 	H 	0.83020 0.58520 0.67000 0.04700
C 	C 	0.81338 0.55246 0.65639 -0.10000
C 	C 	0.79214 0.56586 0.64259 0.40600
C 	C 	0.81468 0.52626 0.65650 -0.00300
H 	H 	0.80240 0.51670 0.64730 0.05100
C 	C 	0.93151 0.24630 0.54304 0.42000
C 	C 	0.94624 0.24720 0.51866 -0.11400
C 	C 	0.93314 0.24750 0.49579 0.05300
H 	H 	0.91510 0.24660 0.49560 0.04700
C 	C 	0.94632 0.24900 0.47357 -0.10900
C 	C 	0.93162 0.24920 0.44931 0.38700
C 	C 	0.97250 0.25000 0.47338 -0.00200
H 	H 	0.98130 0.25140 0.45770 0.04900
C 	C 	0.98598 0.24900 0.49617 -0.00500
C 	C 	0.97240 0.24840 0.51882 0.00100
H 	H 	0.98120 0.24890 0.53460 0.04900
O 	O 	0.86707 0.34533 0.77918 -0.48600
C 	C 	0.06176 0.30220 0.61995 0.38700
Zn	Zn	0.62110 0.37599 0.28024 1.22100
Zn	Zn	0.62563 0.38053 0.22280 1.21600
Zn	Zn	0.57210 0.37944 0.25101 1.21900
Zn	Zn	0.60563 0.42958 0.25020 1.22000
Zn	Zn	0.62687 0.26855 0.38138 1.21800
Zn	Zn	0.61624 0.20935 0.38776 1.22000
Zn	Zn	0.57145 0.24644 0.40219 1.22000
Zn	Zn	0.62026 0.24368 0.43576 1.22000
O 	O 	0.61698 0.33831 0.25911 -0.46200
O 	O 	0.62977 0.28185 0.15710 -0.47000
O 	O 	0.61533 0.24299 0.16534 -0.41200
O 	O 	0.62396 0.25524 0.34427 -0.44400
O 	O 	0.60690 0.21670 0.35089 -0.45900
O 	O 	0.61354 0.16219 0.24729 -0.47800
O 	O 	0.62040 0.15316 0.28820 -0.47800
O 	O 	0.59898 0.35969 0.30560 -0.46000
O 	O 	0.56290 0.36345 0.28346 -0.48700
O 	O 	0.59793 0.29365 0.37308 -0.46300
O 	O 	0.56061 0.27680 0.38442 -0.48700
O 	O 	0.44754 0.28107 0.38525 -0.47200
O 	O 	0.41878 0.37288 0.31300 -0.45500
O 	O 	0.44830 0.36070 0.28477 -0.47700
O 	O 	0.62521 0.40851 0.30306 -0.45900
O 	O 	0.62207 0.44362 0.27931 -0.48900
O 	O 	0.72343 0.44078 0.36100 -0.48500
O 	O 	0.69645 0.40919 0.36974 -0.41000
O 	O 	0.63562 0.59392 0.30126 -0.47900
O 	O 	0.62255 0.55812 0.28118 -0.48700
O 	O 	0.72666 0.55211 0.36254 -0.48700
O 	O 	0.70561 0.58841 0.36267 -0.45800
O 	O 	0.59164 0.24330 0.45932 -0.50700
O 	O 	0.55664 0.24781 0.43654 -0.49600
O 	O 	0.59218 0.24678 0.54881 -0.49300
O 	O 	0.55622 0.25155 0.57135 -0.48500
O 	O 	0.60757 0.24300 0.40179 -0.92400
O 	O 	0.60599 0.39306 0.25088 -0.94800
C 	C 	0.62420 0.33172 0.23830 0.39200
C 	C 	0.62330 0.30378 0.23170 -0.08800
C 	C 	0.62420 0.29671 0.20620 0.03000
H 	H 	0.62580 0.30930 0.19330 0.05500
C 	C 	0.62270 0.27135 0.19974 -0.08400
C 	C 	0.62220 0.26490 0.17182 0.36900
C 	C 	0.62110 0.25301 0.21860 -0.01500
H 	H 	0.62040 0.23560 0.21400 0.05300
C 	C 	0.62120 0.28524 0.25042 -0.01400
H 	H 	0.62010 0.29020 0.26770 0.05400
C 	C 	0.62060 0.25966 0.24427 0.00600
C 	C 	0.61950 0.23980 0.26454 -0.00500
C 	C 	0.61810 0.21433 0.25858 -0.00200
H 	H 	0.61790 0.20940 0.24120 0.04900
C 	C 	0.61930 0.24590 0.29045 -0.00400
H 	H 	0.62090 0.26320 0.29550 0.04900
C 	C 	0.61700 0.22730 0.30893 -0.09800
C 	C 	0.61660 0.23370 0.33680 0.37300
C 	C 	0.61550 0.20260 0.30220 0.05000
H 	H 	0.61330 0.18990 0.31490 0.04200
C 	C 	0.61700 0.19569 0.27705 -0.10400
C 	C 	0.61640 0.16802 0.27010 0.39100
C 	C 	0.57547 0.35589 0.30218 0.38800
C 	C 	0.56134 0.34154 0.32238 -0.09500
C 	C 	0.57452 0.32584 0.33891 0.04300
H 	H 	0.59260 0.32520 0.33860 0.04800
C 	C 	0.56073 0.31099 0.35589 -0.10100
C 	C 	0.57429 0.29229 0.37251 0.40100
C 	C 	0.53454 0.31291 0.35711 -0.00600
H 	H 	0.52540 0.30310 0.36920 0.05300
C 	C 	0.53495 0.34303 0.32334 -0.00900
H 	H 	0.52620 0.35380 0.31180 0.05300
C 	C 	0.52150 0.32904 0.34080 0.00200
C 	C 	0.49269 0.33082 0.34241 -0.00300
C 	C 	0.47900 0.31695 0.36021 -0.00300
H 	H 	0.48780 0.30590 0.37150 0.05000
C 	C 	0.45256 0.31887 0.36181 -0.09800
O 	O 	0.41729 0.31034 0.38830 -0.45700
C 	C 	0.43961 0.33470 0.34543 0.05000
H 	H 	0.42170 0.33680 0.34700 0.03700
C 	C 	0.45289 0.34740 0.32680 -0.10100
C 	C 	0.43880 0.36200 0.30720 0.38000
C 	C 	0.47876 0.34530 0.32530 -0.00000
H 	H 	0.48750 0.35400 0.31210 0.04900
C 	C 	0.62950 0.43100 0.29880 0.38500
C 	C 	0.64670 0.44510 0.31690 -0.09100
C 	C 	0.66310 0.43122 0.33220 0.03100
H 	H 	0.66190 0.41320 0.33320 0.04700
C 	C 	0.68150 0.44433 0.34600 -0.08500
C 	C 	0.70150 0.43015 0.36050 0.36300
C 	C 	0.68210 0.47095 0.34510 -0.01500
H 	H 	0.69460 0.47970 0.35470 0.05300
C 	C 	0.64782 0.47182 0.31620 -0.01500
H 	H 	0.63650 0.48090 0.30550 0.05300
C 	C 	0.66499 0.48495 0.33080 0.00600
C 	C 	0.66644 0.51376 0.33030 -0.00500
C 	C 	0.64978 0.52835 0.31577 -0.00400
H 	H 	0.63710 0.52000 0.30590 0.04900
C 	C 	0.65116 0.55464 0.31528 -0.09800
C 	C 	0.63485 0.56979 0.29780 0.38200
C 	C 	0.66920 0.56715 0.32961 0.04200
H 	H 	0.66980 0.58520 0.33000 0.04700
C 	C 	0.68662 0.55246 0.34361 -0.10000
C 	C 	0.70786 0.56586 0.35741 0.40600
C 	C 	0.68532 0.52626 0.34350 -0.00300
H 	H 	0.69760 0.51670 0.35270 0.05100
C 	C 	0.56849 0.24630 0.45696 0.42000
C 	C 	0.55376 0.24720 0.48134 -0.11400
C 	C 	0.56686 0.24750 0.50421 0.05300
H 	H 	0.58490 0.24660 0.50440 0.04700
C 	C 	0.55368 0.24900 0.52643 -0.10900
C 	C 	0.56838 0.24920 0.55069 0.38700
C 	C 	0.52750 0.25000 0.52662 -0.00200
H 	H 	0.51870 0.25140 0.54230 0.04900
C 	C 	0.51402 0.24900 0.50383 -0.00500
C 	C 	0.52760 0.24840 0.48118 0.00100
H 	H 	0.51880 0.24890 0.46540 0.04900
O 	O 	0.63293 0.34533 0.22082 -0.48600
C 	C 	0.43824 0.30220 0.38005 0.38700
Zn	Zn	0.12110 0.87599 0.78024 1.22100
Zn	Zn	0.12563 0.88053 0.72280 1.21600
Zn	Zn	0.07210 0.87944 0.75101 1.21900
Zn	Zn	0.10563 0.92958 0.75020 1.22000
Zn	Zn	0.12687 0.76855 0.88138 1.21800
Zn	Zn	0.11624 0.70935 0.88776 1.22000
Zn	Zn	0.07145 0.74644 0.90219 1.22000
Zn	Zn	0.12026 0.74368 0.93576 1.22000
O 	O 	0.11698 0.83831 0.75911 -0.46200
O 	O 	0.12977 0.78185 0.65710 -0.47000
O 	O 	0.11533 0.74299 0.66534 -0.41200
O 	O 	0.12396 0.75524 0.84427 -0.44400
O 	O 	0.10690 0.71670 0.85089 -0.45900
O 	O 	0.11354 0.66219 0.74729 -0.47800
O 	O 	0.12040 0.65316 0.78820 -0.47800
O 	O 	0.09898 0.85969 0.80560 -0.46000
O 	O 	0.06290 0.86345 0.78346 -0.48700
O 	O 	0.09793 0.79365 0.87308 -0.46300
O 	O 	0.06061 0.77680 0.88442 -0.48700
O 	O 	0.94754 0.78107 0.88525 -0.47200
O 	O 	0.91878 0.87288 0.81300 -0.45500
O 	O 	0.94830 0.86070 0.78477 -0.47700
O 	O 	0.12521 0.90851 0.80306 -0.45900
O 	O 	0.12207 0.94362 0.77931 -0.48900
O 	O 	0.22343 0.94078 0.86100 -0.48500
O 	O 	0.19645 0.90919 0.86974 -0.41000
O 	O 	0.13562 0.09392 0.80126 -0.47900
O 	O 	0.12255 0.05812 0.78118 -0.48700
O 	O 	0.22666 0.05211 0.86254 -0.48700
O 	O 	0.20561 0.08841 0.86267 -0.45800
O 	O 	0.09164 0.74330 0.95932 -0.50700
O 	O 	0.05664 0.74781 0.93654 -0.49600
O 	O 	0.09218 0.74678 0.04881 -0.49300
O 	O 	0.05622 0.75155 0.07135 -0.48500
O 	O 	0.10757 0.74300 0.90179 -0.92400
O 	O 	0.10599 0.89306 0.75088 -0.94800
C 	C 	0.12420 0.83172 0.73830 0.39200
C 	C 	0.12330 0.80378 0.73170 -0.08800
C 	C 	0.12420 0.79671 0.70620 0.03000
H 	H 	0.12580 0.80930 0.69330 0.05500
C 	C 	0.12270 0.77135 0.69974 -0.08400
C 	C 	0.12220 0.76490 0.67182 0.36900
C 	C 	0.12110 0.75301 0.71860 -0.01500
H 	H 	0.12040 0.73560 0.71400 0.05300
C 	C 	0.12120 0.78524 0.75042 -0.01400
H 	H 	0.12010 0.79020 0.76770 0.05400
C 	C 	0.12060 0.75966 0.74427 0.00600
C 	C 	0.11950 0.73980 0.76454 -0.00500
C 	C 	0.11810 0.71433 0.75858 -0.00200
H 	H 	0.11790 0.70940 0.74120 0.04900
C 	C 	0.11930 0.74590 0.79045 -0.00400
H 	H 	0.12090 0.76320 0.79550 0.04900
C 	C 	0.11700 0.72730 0.80893 -0.09800
C 	C 	0.11660 0.73370 0.83680 0.37300
C 	C 	0.11550 0.70260 0.80220 0.05000
H 	H 	0.11330 0.68990 0.81490 0.04200
C 	C 	0.11700 0.69569 0.77705 -0.10400
C 	C 	0.11640 0.66802 0.77010 0.39100
C 	C 	0.07547 0.85589 0.80218 0.38800
C 	C 	0.06134 0.84154 0.82238 -0.09500
C 	C 	0.07452 0.82584 0.83891 0.04300
H 	H 	0.09260 0.82520 0.83860 0.04800
C 	C 	0.06073 0.81099 0.85589 -0.10100
C 	C 	0.07429 0.79229 0.87251 0.40100
C 	C 	0.03454 0.81291 0.85711 -0.00600
H 	H 	0.02540 0.80310 0.86920 0.05300
C 	C 	0.03495 0.84303 0.82334 -0.00900
H 	H 	0.02620 0.85380 0.81180 0.05300
C 	C 	0.02150 0.82904 0.84080 0.00200
C 	C 	0.99269 0.83082 0.84241 -0.00300
C 	C 	0.97900 0.81695 0.86021 -0.00300
H 	H 	0.98780 0.80590 0.87150 0.05000
C 	C 	0.95256 0.81887 0.86181 -0.09800
O 	O 	0.91729 0.81034 0.88830 -0.45700
C 	C 	0.93961 0.83470 0.84543 0.05000
H 	H 	0.92170 0.83680 0.84700 0.03700
C 	C 	0.95289 0.84740 0.82680 -0.10100
C 	C 	0.93880 0.86200 0.80720 0.38000
C 	C 	0.97876 0.84530 0.82530 -0.00000
H 	H 	0.98750 0.85400 0.81210 0.04900
C 	C 	0.12950 0.93100 0.79880 0.38500
C 	C 	0.14670 0.94510 0.81690 -0.09100
C 	C 	0.16310 0.93122 0.83220 0.03100
H 	H 	0.16190 0.91320 0.83320 0.04700
C 	C 	0.18150 0.94433 0.84600 -0.08500
C 	C 	0.20150 0.93015 0.86050 0.36300
C 	C 	0.18210 0.97095 0.84510 -0.01500
H 	H 	0.19460 0.97970 0.85470 0.05300
C 	C 	0.14782 0.97182 0.81620 -0.01500
H 	H 	0.13650 0.98090 0.80550 0.05300
C 	C 	0.16499 0.98495 0.83080 0.00600
C 	C 	0.16644 0.01376 0.83030 -0.00500
C 	C 	0.14978 0.02835 0.81577 -0.00400
H 	H 	0.13710 0.02000 0.80590 0.04900
C 	C 	0.15116 0.05464 0.81528 -0.09800
C 	C 	0.13485 0.06979 0.79780 0.38200
C 	C 	0.16920 0.06715 0.82961 0.04200
H 	H 	0.16980 0.08520 0.83000 0.04700
C 	C 	0.18662 0.05246 0.84361 -0.10000
C 	C 	0.20786 0.06586 0.85741 0.40600
C 	C 	0.18532 0.02626 0.84350 -0.00300
H 	H 	0.19760 0.01670 0.85270 0.05100
C 	C 	0.06849 0.74630 0.95696 0.42000
C 	C 	0.05376 0.74720 0.98134 -0.11400
C 	C 	0.06686 0.74750 0.00421 0.05300
H 	H 	0.08490 0.74660 0.00440 0.04700
C 	C 	0.05368 0.74900 0.02643 -0.10900
C 	C 	0.06838 0.74920 0.05069 0.38700
C 	C 	0.02750 0.75000 0.02662 -0.00200
H 	H 	0.01870 0.75140 0.04230 0.04900
C 	C 	0.01402 0.74900 0.00383 -0.00500
C 	C 	0.02760 0.74840 0.98118 0.00100
H 	H 	0.01880 0.74890 0.96540 0.04900
O 	O 	0.13293 0.84533 0.72082 -0.48600
C 	C 	0.93824 0.80220 0.88005 0.38700
Zn	Zn	0.87890 0.62401 0.78024 1.22100
Zn	Zn	0.87437 0.61947 0.72280 1.21600
Zn	Zn	0.92790 0.62056 0.75101 1.21900
Zn	Zn	0.89437 0.57042 0.75020 1.22000
Zn	Zn	0.87313 0.73145 0.88138 1.21800
Zn	Zn	0.88376 0.79065 0.88776 1.22000
Zn	Zn	0.92855 0.75356 0.90219 1.22000
Zn	Zn	0.87974 0.75632 0.93576 1.22000
O 	O 	0.88302 0.66169 0.75911 -0.46200
O 	O 	0.87023 0.71815 0.65710 -0.47000
O 	O 	0.88467 0.75701 0.66534 -0.41200
O 	O 	0.87604 0.74476 0.84427 -0.44400
O 	O 	0.89310 0.78330 0.85089 -0.45900
O 	O 	0.88646 0.83781 0.74729 -0.47800
O 	O 	0.87960 0.84684 0.78820 -0.47800
O 	O 	0.90102 0.64031 0.80560 -0.46000
O 	O 	0.93710 0.63655 0.78346 -0.48700
O 	O 	0.90207 0.70635 0.87308 -0.46300
O 	O 	0.93939 0.72320 0.88442 -0.48700
O 	O 	0.05246 0.71893 0.88525 -0.47200
O 	O 	0.08122 0.62712 0.81300 -0.45500
O 	O 	0.05170 0.63930 0.78477 -0.47700
O 	O 	0.87479 0.59149 0.80306 -0.45900
O 	O 	0.87793 0.55638 0.77931 -0.48900
O 	O 	0.77657 0.55922 0.86100 -0.48500
O 	O 	0.80355 0.59081 0.86974 -0.41000
O 	O 	0.86438 0.40608 0.80126 -0.47900
O 	O 	0.87745 0.44188 0.78118 -0.48700
O 	O 	0.77334 0.44789 0.86254 -0.48700
O 	O 	0.79439 0.41159 0.86267 -0.45800
O 	O 	0.90836 0.75670 0.95932 -0.50700
O 	O 	0.94336 0.75219 0.93654 -0.49600
O 	O 	0.90782 0.75322 0.04881 -0.49300
O 	O 	0.94378 0.74845 0.07135 -0.48500
O 	O 	0.89243 0.75700 0.90179 -0.92400
O 	O 	0.89401 0.60694 0.75088 -0.94800
C 	C 	0.87580 0.66828 0.73830 0.39200
C 	C 	0.87670 0.69622 0.73170 -0.08800
C 	C 	0.87580 0.70329 0.70620 0.03000
H 	H 	0.87420 0.69070 0.69330 0.05500
C 	C 	0.87730 0.72865 0.69974 -0.08400
C 	C 	0.87780 0.73510 0.67182 0.36900
C 	C 	0.87890 0.74699 0.71860 -0.01500
H 	H 	0.87960 0.76440 0.71400 0.05300
C 	C 	0.87880 0.71476 0.75042 -0.01400
H 	H 	0.87990 0.70980 0.76770 0.05400
C 	C 	0.87940 0.74034 0.74427 0.00600
C 	C 	0.88050 0.76020 0.76454 -0.00500
C 	C 	0.88190 0.78567 0.75858 -0.00200
H 	H 	0.88210 0.79060 0.74120 0.04900
C 	C 	0.88070 0.75410 0.79045 -0.00400
H 	H 	0.87910 0.73680 0.79550 0.04900
C 	C 	0.88300 0.77270 0.80893 -0.09800
C 	C 	0.88340 0.76630 0.83680 0.37300
C 	C 	0.88450 0.79740 0.80220 0.05000
H 	H 	0.88670 0.81010 0.81490 0.04200
C 	C 	0.88300 0.80431 0.77705 -0.10400
C 	C 	0.88360 0.83198 0.77010 0.39100
C 	C 	0.92453 0.64411 0.80218 0.38800
C 	C 	0.93866 0.65846 0.82238 -0.09500
C 	C 	0.92548 0.67416 0.83891 0.04300
H 	H 	0.90740 0.67480 0.83860 0.04800
C 	C 	0.93927 0.68901 0.85589 -0.10100
C 	C 	0.92571 0.70771 0.87251 0.40100
C 	C 	0.96546 0.68709 0.85711 -0.00600
H 	H 	0.97460 0.69690 0.86920 0.05300
C 	C 	0.96505 0.65697 0.82334 -0.00900
H 	H 	0.97380 0.64620 0.81180 0.05300
C 	C 	0.97850 0.67096 0.84080 0.00200
C 	C 	0.00731 0.66918 0.84241 -0.00300
C 	C 	0.02100 0.68305 0.86021 -0.00300
H 	H 	0.01220 0.69410 0.87150 0.05000
C 	C 	0.04744 0.68113 0.86181 -0.09800
O 	O 	0.08271 0.68966 0.88830 -0.45700
C 	C 	0.06039 0.66530 0.84543 0.05000
H 	H 	0.07830 0.66320 0.84700 0.03700
C 	C 	0.04711 0.65260 0.82680 -0.10100
C 	C 	0.06120 0.63800 0.80720 0.38000
C 	C 	0.02124 0.65470 0.82530 -0.00000
H 	H 	0.01250 0.64600 0.81210 0.04900
C 	C 	0.87050 0.56900 0.79880 0.38500
C 	C 	0.85330 0.55490 0.81690 -0.09100
C 	C 	0.83690 0.56878 0.83220 0.03100
H 	H 	0.83810 0.58680 0.83320 0.04700
C 	C 	0.81850 0.55567 0.84600 -0.08500
C 	C 	0.79850 0.56985 0.86050 0.36300
C 	C 	0.81790 0.52905 0.84510 -0.01500
H 	H 	0.80540 0.52030 0.85470 0.05300
C 	C 	0.85218 0.52818 0.81620 -0.01500
H 	H 	0.86350 0.51910 0.80550 0.05300
C 	C 	0.83501 0.51505 0.83080 0.00600
C 	C 	0.83356 0.48624 0.83030 -0.00500
C 	C 	0.85022 0.47165 0.81577 -0.00400
H 	H 	0.86290 0.48000 0.80590 0.04900
C 	C 	0.84884 0.44536 0.81528 -0.09800
C 	C 	0.86515 0.43021 0.79780 0.38200
C 	C 	0.83080 0.43285 0.82961 0.04200
H 	H 	0.83020 0.41480 0.83000 0.04700
C 	C 	0.81338 0.44754 0.84361 -0.10000
C 	C 	0.79214 0.43414 0.85741 0.40600
C 	C 	0.81468 0.47374 0.84350 -0.00300
H 	H 	0.80240 0.48330 0.85270 0.05100
C 	C 	0.93151 0.75370 0.95696 0.42000
C 	C 	0.94624 0.75280 0.98134 -0.11400
C 	C 	0.93314 0.75250 0.00421 0.05300
H 	H 	0.91510 0.75340 0.00440 0.04700
C 	C 	0.94632 0.75100 0.02643 -0.10900
C 	C 	0.93162 0.75080 0.05069 0.38700
C 	C 	0.97250 0.75000 0.02662 -0.00200
H 	H 	0.98130 0.74860 0.04230 0.04900
C 	C 	0.98598 0.75100 0.00383 -0.00500
C 	C 	0.97240 0.75160 0.98118 0.00100
H 	H 	0.98120 0.75110 0.96540 0.04900
O 	O 	0.86707 0.65467 0.72082 -0.48600
C 	C 	0.06176 0.69780 0.88005 0.38700
Zn	Zn	0.37890 0.12401 0.28024 1.22100
Zn	Zn	0.37437 0.11947 0.22280 1.21600
Zn	Zn	0.42790 0.12056 0.25101 1.21900
Zn	Zn	0.39437 0.07042 0.25020 1.22000
Zn	Zn	0.37313 0.23145 0.38138 1.21800
Zn	Zn	0.38376 0.29065 0.38776 1.22000
Zn	Zn	0.42855 0.25356 0.40219 1.22000
Zn	Zn	0.37974 0.25632 0.43576 1.22000
O 	O 	0.38302 0.16169 0.25911 -0.46200
O 	O 	0.37023 0.21815 0.15710 -0.47000
O 	O 	0.38467 0.25701 0.16534 -0.41200
O 	O 	0.37604 0.24476 0.34427 -0.44400
O 	O 	0.39310 0.28330 0.35089 -0.45900
O 	O 	0.38646 0.33781 0.24729 -0.47800
O 	O 	0.37960 0.34684 0.28820 -0.47800
O 	O 	0.40102 0.14031 0.30560 -0.46000
O 	O 	0.43710 0.13655 0.28346 -0.48700
O 	O 	0.40207 0.20635 0.37308 -0.46300
O 	O 	0.43939 0.22320 0.38442 -0.48700
O 	O 	0.55246 0.21893 0.38525 -0.47200
O 	O 	0.58122 0.12712 0.31300 -0.45500
O 	O 	0.55170 0.13930 0.28477 -0.47700
O 	O 	0.37479 0.09149 0.30306 -0.45900
O 	O 	0.37793 0.05638 0.27931 -0.48900
O 	O 	0.27657 0.05922 0.36100 -0.48500
O 	O 	0.30355 0.09081 0.36974 -0.41000
O 	O 	0.36438 0.90608 0.30126 -0.47900
O 	O 	0.37745 0.94188 0.28118 -0.48700
O 	O 	0.27334 0.94789 0.36254 -0.48700
O 	O 	0.29439 0.91159 0.36267 -0.45800
O 	O 	0.40836 0.25670 0.45932 -0.50700
O 	O 	0.44336 0.25219 0.43654 -0.49600
O 	O 	0.40782 0.25322 0.54881 -0.49300
O 	O 	0.44378 0.24845 0.57135 -0.48500
O 	O 	0.39243 0.25700 0.40179 -0.92400
O 	O 	0.39401 0.10694 0.25088 -0.94800
C 	C 	0.37580 0.16828 0.23830 0.39200
C 	C 	0.37670 0.19622 0.23170 -0.08800
C 	C 	0.37580 0.20329 0.20620 0.03000
H 	H 	0.37420 0.19070 0.19330 0.05500
C 	C 	0.37730 0.22865 0.19974 -0.08400
C 	C 	0.37780 0.23510 0.17182 0.36900
C 	C 	0.37890 0.24699 0.21860 -0.01500
H 	H 	0.37960 0.26440 0.21400 0.05300
C 	C 	0.37880 0.21476 0.25042 -0.01400
H 	H 	0.37990 0.20980 0.26770 0.05400
C 	C 	0.37940 0.24034 0.24427 0.00600
C 	C 	0.38050 0.26020 0.26454 -0.00500
C 	C 	0.38190 0.28567 0.25858 -0.00200
H 	H 	0.38210 0.29060 0.24120 0.04900
C 	C 	0.38070 0.25410 0.29045 -0.00400
H 	H 	0.37910 0.23680 0.29550 0.04900
C 	C 	0.38300 0.27270 0.30893 -0.09800
C 	C 	0.38340 0.26630 0.33680 0.37300
C 	C 	0.38450 0.29740 0.30220 0.05000
H 	H 	0.38670 0.31010 0.31490 0.04200
C 	C 	0.38300 0.30431 0.27705 -0.10400
C 	C 	0.38360 0.33198 0.27010 0.39100
C 	C 	0.42453 0.14411 0.30218 0.38800
C 	C 	0.43866 0.15846 0.32238 -0.09500
C 	C 	0.42548 0.17416 0.33891 0.04300
H 	H 	0.40740 0.17480 0.33860 0.04800
C 	C 	0.43927 0.18901 0.35589 -0.10100
C 	C 	0.42571 0.20771 0.37251 0.40100
C 	C 	0.46546 0.18709 0.35711 -0.00600
H 	H 	0.47460 0.19690 0.36920 0.05300
C 	C 	0.46505 0.15697 0.32334 -0.00900
H 	H 	0.47380 0.14620 0.31180 0.05300
C 	C 	0.47850 0.17096 0.34080 0.00200
C 	C 	0.50731 0.16918 0.34241 -0.00300
C 	C 	0.52100 0.18305 0.36021 -0.00300
H 	H 	0.51220 0.19410 0.37150 0.05000
C 	C 	0.54744 0.18113 0.36181 -0.09800
O 	O 	0.58271 0.18966 0.38830 -0.45700
C 	C 	0.56039 0.16530 0.34543 0.05000
H 	H 	0.57830 0.16320 0.34700 0.03700
C 	C 	0.54711 0.15260 0.32680 -0.10100
C 	C 	0.56120 0.13800 0.30720 0.38000
C 	C 	0.52124 0.15470 0.32530 -0.00000
H 	H 	0.51250 0.14600 0.31210 0.04900
C 	C 	0.37050 0.06900 0.29880 0.38500
C 	C 	0.35330 0.05490 0.31690 -0.09100
C 	C 	0.33690 0.06878 0.33220 0.03100
H 	H 	0.33810 0.08680 0.33320 0.04700
C 	C 	0.31850 0.05567 0.34600 -0.08500
C 	C 	0.29850 0.06985 0.36050 0.36300
C 	C 	0.31790 0.02905 0.34510 -0.01500
H 	H 	0.30540 0.02030 0.35470 0.05300
C 	C 	0.35218 0.02818 0.31620 -0.01500
H 	H 	0.36350 0.01910 0.30550 0.05300
C 	C 	0.33501 0.01505 0.33080 0.00600
C 	C 	0.33356 0.98624 0.33030 -0.00500
C 	C 	0.35022 0.97165 0.31577 -0.00400
H 	H 	0.36290 0.98000 0.30590 0.04900
C 	C 	0.34884 0.94536 0.31528 -0.09800
C 	C 	0.36515 0.93021 0.29780 0.38200
C 	C 	0.33080 0.93285 0.32961 0.04200
H 	H 	0.33020 0.91480 0.33000 0.04700
C 	C 	0.31338 0.94754 0.34361 -0.10000
C 	C 	0.29214 0.93414 0.35741 0.40600
C 	C 	0.31468 0.97374 0.34350 -0.00300
H 	H 	0.30240 0.98330 0.35270 0.05100
C 	C 	0.43151 0.25370 0.45696 0.42000
C 	C 	0.44624 0.25280 0.48134 -0.11400
C 	C 	0.43314 0.25250 0.50421 0.05300
H 	H 	0.41510 0.25340 0.50440 0.04700
C 	C 	0.44632 0.25100 0.52643 -0.10900
C 	C 	0.43162 0.25080 0.55069 0.38700
C 	C 	0.47250 0.25000 0.52662 -0.00200
H 	H 	0.48130 0.24860 0.54230 0.04900
C 	C 	0.48598 0.25100 0.50383 -0.00500
C 	C 	0.47240 0.25160 0.48118 0.00100
H 	H 	0.48120 0.25110 0.46540 0.04900
O 	O 	0.36707 0.15467 0.22082 -0.48600
C 	C 	0.56176 0.19780 0.38005 0.38700
Zn	Zn	0.12110 0.12401 0.71976 1.22100
Zn	Zn	0.12563 0.11947 0.77720 1.21600
Zn	Zn	0.07210 0.12056 0.74899 1.21900
Zn	Zn	0.10563 0.07042 0.74980 1.22000
Zn	Zn	0.12687 0.23145 0.61862 1.21800
Zn	Zn	0.11624 0.29065 0.61224 1.22000
Zn	Zn	0.07145 0.25356 0.59781 1.22000
Zn	Zn	0.12026 0.25632 0.56424 1.22000
O 	O 	0.11698 0.16169 0.74089 -0.46200
O 	O 	0.12977 0.21815 0.84290 -0.47000
O 	O 	0.11533 0.25701 0.83466 -0.41200
O 	O 	0.12396 0.24476 0.65573 -0.44400
O 	O 	0.10690 0.28330 0.64911 -0.45900
O 	O 	0.11354 0.33781 0.75271 -0.47800
O 	O 	0.12040 0.34684 0.71180 -0.47800
O 	O 	0.09898 0.14031 0.69440 -0.46000
O 	O 	0.06290 0.13655 0.71654 -0.48700
O 	O 	0.09793 0.20635 0.62692 -0.46300
O 	O 	0.06061 0.22320 0.61558 -0.48700
O 	O 	0.94754 0.21893 0.61475 -0.47200
O 	O 	0.91878 0.12712 0.68700 -0.45500
O 	O 	0.94830 0.13930 0.71523 -0.47700
O 	O 	0.12521 0.09149 0.69694 -0.45900
O 	O 	0.12207 0.05638 0.72069 -0.48900
O 	O 	0.22343 0.05922 0.63900 -0.48500
O 	O 	0.19645 0.09081 0.63026 -0.41000
O 	O 	0.13562 0.90608 0.69874 -0.47900
O 	O 	0.12255 0.94188 0.71882 -0.48700
O 	O 	0.22666 0.94789 0.63746 -0.48700
O 	O 	0.20561 0.91159 0.63733 -0.45800
O 	O 	0.09164 0.25670 0.54068 -0.50700
O 	O 	0.05664 0.25219 0.56346 -0.49600
O 	O 	0.09218 0.25322 0.45119 -0.49300
O 	O 	0.05622 0.24845 0.42865 -0.48500
O 	O 	0.10757 0.25700 0.59821 -0.92400
O 	O 	0.10599 0.10694 0.74912 -0.94800
C 	C 	0.12420 0.16828 0.76170 0.39200
C 	C 	0.12330 0.19622 0.76830 -0.08800
C 	C 	0.12420 0.20329 0.79380 0.03000
H 	H 	0.12580 0.19070 0.80670 0.05500
C 	C 	0.12270 0.22865 0.80026 -0.08400
C 	C 	0.12220 0.23510 0.82818 0.36900
C 	C 	0.12110 0.24699 0.78140 -0.01500
H 	H 	0.12040 0.26440 0.78600 0.05300
C 	C 	0.12120 0.21476 0.74958 -0.01400
H 	H 	0.12010 0.20980 0.73230 0.05400
C 	C 	0.12060 0.24034 0.75573 0.00600
C 	C 	0.11950 0.26020 0.73546 -0.00500
C 	C 	0.11810 0.28567 0.74142 -0.00200
H 	H 	0.11790 0.29060 0.75880 0.04900
C 	C 	0.11930 0.25410 0.70955 -0.00400
H 	H 	0.12090 0.23680 0.70450 0.04900
C 	C 	0.11700 0.27270 0.69107 -0.09800
C 	C 	0.11660 0.26630 0.66320 0.37300
C 	C 	0.11550 0.29740 0.69780 0.05000
H 	H 	0.11330 0.31010 0.68510 0.04200
C 	C 	0.11700 0.30431 0.72295 -0.10400
C 	C 	0.11640 0.33198 0.72990 0.39100
C 	C 	0.07547 0.14411 0.69782 0.38800
C 	C 	0.06134 0.15846 0.67762 -0.09500
C 	C 	0.07452 0.17416 0.66109 0.04300
H 	H 	0.09260 0.17480 0.66140 0.04800
C 	C 	0.06073 0.18901 0.64411 -0.10100
C 	C 	0.07429 0.20771 0.62749 0.40100
C 	C 	0.03454 0.18709 0.64289 -0.00600
H 	H 	0.02540 0.19690 0.63080 0.05300
C 	C 	0.03495 0.15697 0.67666 -0.00900
H 	H 	0.02620 0.14620 0.68820 0.05300
C 	C 	0.02150 0.17096 0.65920 0.00200
C 	C 	0.99269 0.16918 0.65759 -0.00300
C 	C 	0.97900 0.18305 0.63979 -0.00300
H 	H 	0.98780 0.19410 0.62850 0.05000
C 	C 	0.95256 0.18113 0.63819 -0.09800
O 	O 	0.91729 0.18966 0.61170 -0.45700
C 	C 	0.93961 0.16530 0.65457 0.05000
H 	H 	0.92170 0.16320 0.65300 0.03700
C 	C 	0.95289 0.15260 0.67320 -0.10100
C 	C 	0.93880 0.13800 0.69280 0.38000
C 	C 	0.97876 0.15470 0.67470 -0.00000
H 	H 	0.98750 0.14600 0.68790 0.04900
C 	C 	0.12950 0.06900 0.70120 0.38500
C 	C 	0.14670 0.05490 0.68310 -0.09100
C 	C 	0.16310 0.06878 0.66780 0.03100
H 	H 	0.16190 0.08680 0.66680 0.04700
C 	C 	0.18150 0.05567 0.65400 -0.08500
C 	C 	0.20150 0.06985 0.63950 0.36300
C 	C 	0.18210 0.02905 0.65490 -0.01500
H 	H 	0.19460 0.02030 0.64530 0.05300
C 	C 	0.14782 0.02818 0.68380 -0.01500
H 	H 	0.13650 0.01910 0.69450 0.05300
C 	C 	0.16499 0.01505 0.66920 0.00600
C 	C 	0.16644 0.98624 0.66970 -0.00500
C 	C 	0.14978 0.97165 0.68423 -0.00400
H 	H 	0.13710 0.98000 0.69410 0.04900
C 	C 	0.15116 0.94536 0.68472 -0.09800
C 	C 	0.13485 0.93021 0.70220 0.38200
C 	C 	0.16920 0.93285 0.67039 0.04200
H 	H 	0.16980 0.91480 0.67000 0.04700
C 	C 	0.18662 0.94754 0.65639 -0.10000
C 	C 	0.20786 0.93414 0.64259 0.40600
C 	C 	0.18532 0.97374 0.65650 -0.00300
H 	H 	0.19760 0.98330 0.64730 0.05100
C 	C 	0.06849 0.25370 0.54304 0.42000
C 	C 	0.05376 0.25280 0.51866 -0.11400
C 	C 	0.06686 0.25250 0.49579 0.05300
H 	H 	0.08490 0.25340 0.49560 0.04700
C 	C 	0.05368 0.25100 0.47357 -0.10900
C 	C 	0.06838 0.25080 0.44931 0.38700
C 	C 	0.02750 0.25000 0.47338 -0.00200
H 	H 	0.01870 0.24860 0.45770 0.04900
C 	C 	0.01402 0.25100 0.49617 -0.00500
C 	C 	0.02760 0.25160 0.51882 0.00100
H 	H 	0.01880 0.25110 0.53460 0.04900
O 	O 	0.13293 0.15467 0.77918 -0.48600
C 	C 	0.93824 0.19780 0.61995 0.38700
Zn	Zn	0.62110 0.62401 0.21976 1.22100
Zn	Zn	0.62563 0.61947 0.27720 1.21600
Zn	Zn	0.57210 0.62056 0.24899 1.21900
Zn	Zn	0.60563 0.57042 0.24980 1.22000
Zn	Zn	0.62687 0.73145 0.11862 1.21800
Zn	Zn	0.61624 0.79065 0.11224 1.22000
Zn	Zn	0.57145 0.75356 0.09781 1.22000
Zn	Zn	0.62026 0.75632 0.06424 1.22000
O 	O 	0.61698 0.66169 0.24089 -0.46200
O 	O 	0.62977 0.71815 0.34290 -0.47000
O 	O 	0.61533 0.75701 0.33466 -0.41200
O 	O 	0.62396 0.74476 0.15573 -0.44400
O 	O 	0.60690 0.78330 0.14911 -0.45900
O 	O 	0.61354 0.83781 0.25271 -0.47800
O 	O 	0.62040 0.84684 0.21180 -0.47800
O 	O 	0.59898 0.64031 0.19440 -0.46000
O 	O 	0.56290 0.63655 0.21654 -0.48700
O 	O 	0.59793 0.70635 0.12692 -0.46300
O 	O 	0.56061 0.72320 0.11558 -0.48700
O 	O 	0.44754 0.71893 0.11475 -0.47200
O 	O 	0.41878 0.62712 0.18700 -0.45500
O 	O 	0.44830 0.63930 0.21523 -0.47700
O 	O 	0.62521 0.59149 0.19694 -0.45900
O 	O 	0.62207 0.55638 0.22069 -0.48900
O 	O 	0.72343 0.55922 0.13900 -0.48500
O 	O 	0.69645 0.59081 0.13026 -0.41000
O 	O 	0.63562 0.40608 0.19874 -0.47900
O 	O 	0.62255 0.44188 0.21882 -0.48700
O 	O 	0.72666 0.44789 0.13746 -0.48700
O 	O 	0.70561 0.41159 0.13733 -0.45800
O 	O 	0.59164 0.75670 0.04068 -0.50700
O 	O 	0.55664 0.75219 0.06346 -0.49600
O 	O 	0.59218 0.75322 0.95119 -0.49300
O 	O 	0.55622 0.74845 0.92865 -0.48500
O 	O 	0.60757 0.75700 0.09821 -0.92400
O 	O 	0.60599 0.60694 0.24912 -0.94800
C 	C 	0.62420 0.66828 0.26170 0.39200
C 	C 	0.62330 0.69622 0.26830 -0.08800
C 	C 	0.62420 0.70329 0.29380 0.03000
H 	H 	0.62580 0.69070 0.30670 0.05500
C 	C 	0.62270 0.72865 0.30026 -0.08400
C 	C 	0.62220 0.73510 0.32818 0.36900
C 	C 	0.62110 0.74699 0.28140 -0.01500
H 	H 	0.62040 0.76440 0.28600 0.05300
C 	C 	0.62120 0.71476 0.24958 -0.01400
H 	H 	0.62010 0.70980 0.23230 0.05400
C 	C 	0.62060 0.74034 0.25573 0.00600
C 	C 	0.61950 0.76020 0.23546 -0.00500
C 	C 	0.61810 0.78567 0.24142 -0.00200
H 	H 	0.61790 0.79060 0.25880 0.04900
C 	C 	0.61930 0.75410 0.20955 -0.00400
H 	H 	0.62090 0.73680 0.20450 0.04900
C 	C 	0.61700 0.77270 0.19107 -0.09800
C 	C 	0.61660 0.76630 0.16320 0.37300
C 	C 	0.61550 0.79740 0.19780 0.05000
H 	H 	0.61330 0.81010 0.18510 0.04200
C 	C 	0.61700 0.80431 0.22295 -0.10400
C 	C 	0.61640 0.83198 0.22990 0.39100
C 	C 	0.57547 0.64411 0.19782 0.38800
C 	C 	0.56134 0.65846 0.17762 -0.09500
C 	C 	0.57452 0.67416 0.16109 0.04300
H 	H 	0.59260 0.67480 0.16140 0.04800
C 	C 	0.56073 0.68901 0.14411 -0.10100
C 	C 	0.57429 0.70771 0.12749 0.40100
C 	C 	0.53454 0.68709 0.14289 -0.00600
H 	H 	0.52540 0.69690 0.13080 0.05300
C 	C 	0.53495 0.65697 0.17666 -0.00900
H 	H 	0.52620 0.64620 0.18820 0.05300
C 	C 	0.52150 0.67096 0.15920 0.00200
C 	C 	0.49269 0.66918 0.15759 -0.00300
C 	C 	0.47900 0.68305 0.13979 -0.00300
H 	H 	0.48780 0.69410 0.12850 0.05000
C 	C 	0.45256 0.68113 0.13819 -0.09800
O 	O 	0.41729 0.68966 0.11170 -0.45700
C 	C 	0.43961 0.66530 0.15457 0.05000
H 	H 	0.42170 0.66320 0.15300 0.03700
C 	C 	0.45289 0.65260 0.17320 -0.10100
C 	C 	0.43880 0.63800 0.19280 0.38000
C 	C 	0.47876 0.65470 0.17470 -0.00000
H 	H 	0.48750 0.64600 0.18790 0.04900
C 	C 	0.62950 0.56900 0.20120 0.38500
C 	C 	0.64670 0.55490 0.18310 -0.09100
C 	C 	0.66310 0.56878 0.16780 0.03100
H 	H 	0.66190 0.58680 0.16680 0.04700
C 	C 	0.68150 0.55567 0.15400 -0.08500
C 	C 	0.70150 0.56985 0.13950 0.36300
C 	C 	0.68210 0.52905 0.15490 -0.01500
H 	H 	0.69460 0.52030 0.14530 0.05300
C 	C 	0.64782 0.52818 0.18380 -0.01500
H 	H 	0.63650 0.51910 0.19450 0.05300
C 	C 	0.66499 0.51505 0.16920 0.00600
C 	C 	0.66644 0.48624 0.16970 -0.00500
C 	C 	0.64978 0.47165 0.18423 -0.00400
H 	H 	0.63710 0.48000 0.19410 0.04900
C 	C 	0.65116 0.44536 0.18472 -0.09800
C 	C 	0.63485 0.43021 0.20220 0.38200
C 	C 	0.66920 0.43285 0.17039 0.04200
H 	H 	0.66980 0.41480 0.17000 0.04700
C 	C 	0.68662 0.44754 0.15639 -0.10000
C 	C 	0.70786 0.43414 0.14259 0.40600
C 	C 	0.68532 0.47374 0.15650 -0.00300
H 	H 	0.69760 0.48330 0.14730 0.05100
C 	C 	0.56849 0.75370 0.04304 0.42000
C 	C 	0.55376 0.75280 0.01866 -0.11400
C 	C 	0.56686 0.75250 0.99579 0.05300
H 	H 	0.58490 0.75340 0.99560 0.04700
C 	C 	0.55368 0.75100 0.97357 -0.10900
C 	C 	0.56838 0.75080 0.94931 0.38700
C 	C 	0.52750 0.75000 0.97338 -0.00200
H 	H 	0.51870 0.74860 0.95770 0.04900
C 	C 	0.51402 0.75100 0.99617 -0.00500
C 	C 	0.52760 0.75160 0.01882 0.00100
H 	H 	0.51880 0.75110 0.03460 0.04900
O 	O 	0.63293 0.65467 0.27918 -0.48600
C 	C 	0.43824 0.69780 0.11995 0.38700
Zn	Zn	0.78024 0.62110 0.12401 1.22100
Zn	Zn	0.72280 0.62563 0.11947 1.21600
Zn	Zn	0.75101 0.57210 0.12056 1.21900
Zn	Zn	0.75020 0.60563 0.07042 1.22000
Zn	Zn	0.88138 0.62687 0.23145 1.21800
Zn	Zn	0.88776 0.61624 0.29065 1.22000
Zn	Zn	0.90219 0.57145 0.25356 1.22000
Zn	Zn	0.93576 0.62026 0.25632 1.22000
O 	O 	0.75911 0.61698 0.16169 -0.46200
O 	O 	0.65710 0.62977 0.21815 -0.47000
O 	O 	0.66534 0.61533 0.25701 -0.41200
O 	O 	0.84427 0.62396 0.24476 -0.44400
O 	O 	0.85089 0.60690 0.28330 -0.45900
O 	O 	0.74729 0.61354 0.33781 -0.47800
O 	O 	0.78820 0.62040 0.34684 -0.47800
O 	O 	0.80560 0.59898 0.14031 -0.46000
O 	O 	0.78346 0.56290 0.13655 -0.48700
O 	O 	0.87308 0.59793 0.20635 -0.46300
O 	O 	0.88442 0.56061 0.22320 -0.48700
O 	O 	0.88525 0.44754 0.21893 -0.47200
O 	O 	0.81300 0.41878 0.12712 -0.45500
O 	O 	0.78477 0.44830 0.13930 -0.47700
O 	O 	0.80306 0.62521 0.09149 -0.45900
O 	O 	0.77931 0.62207 0.05638 -0.48900
O 	O 	0.86100 0.72343 0.05922 -0.48500
O 	O 	0.86974 0.69645 0.09081 -0.41000
O 	O 	0.80126 0.63562 0.90608 -0.47900
O 	O 	0.78118 0.62255 0.94188 -0.48700
O 	O 	0.86254 0.72666 0.94789 -0.48700
O 	O 	0.86267 0.70561 0.91159 -0.45800
O 	O 	0.95932 0.59164 0.25670 -0.50700
O 	O 	0.93654 0.55664 0.25219 -0.49600
O 	O 	0.04881 0.59218 0.25322 -0.49300
O 	O 	0.07135 0.55622 0.24845 -0.48500
O 	O 	0.90179 0.60757 0.25700 -0.92400
O 	O 	0.75088 0.60599 0.10694 -0.94800
C 	C 	0.73830 0.62420 0.16828 0.39200
C 	C 	0.73170 0.62330 0.19622 -0.08800
C 	C 	0.70620 0.62420 0.20329 0.03000
H 	H 	0.69330 0.62580 0.19070 0.05500
C 	C 	0.69974 0.62270 0.22865 -0.08400
C 	C 	0.67182 0.62220 0.23510 0.36900
C 	C 	0.71860 0.62110 0.24699 -0.01500
H 	H 	0.71400 0.62040 0.26440 0.05300
C 	C 	0.75042 0.62120 0.21476 -0.01400
H 	H 	0.76770 0.62010 0.20980 0.05400
C 	C 	0.74427 0.62060 0.24034 0.00600
C 	C 	0.76454 0.61950 0.26020 -0.00500
C 	C 	0.75858 0.61810 0.28567 -0.00200
H 	H 	0.74120 0.61790 0.29060 0.04900
C 	C 	0.79045 0.61930 0.25410 -0.00400
H 	H 	0.79550 0.62090 0.23680 0.04900
C 	C 	0.80893 0.61700 0.27270 -0.09800
C 	C 	0.83680 0.61660 0.26630 0.37300
C 	C 	0.80220 0.61550 0.29740 0.05000
H 	H 	0.81490 0.61330 0.31010 0.04200
C 	C 	0.77705 0.61700 0.30431 -0.10400
C 	C 	0.77010 0.61640 0.33198 0.39100
C 	C 	0.80218 0.57547 0.14411 0.38800
C 	C 	0.82238 0.56134 0.15846 -0.09500
C 	C 	0.83891 0.57452 0.17416 0.04300
H 	H 	0.83860 0.59260 0.17480 0.04800
C 	C 	0.85589 0.56073 0.18901 -0.10100
C 	C 	0.87251 0.57429 0.20771 0.40100
C 	C 	0.85711 0.53454 0.18709 -0.00600
H 	H 	0.86920 0.52540 0.19690 0.05300
C 	C 	0.82334 0.53495 0.15697 -0.00900
H 	H 	0.81180 0.52620 0.14620 0.05300
C 	C 	0.84080 0.52150 0.17096 0.00200
C 	C 	0.84241 0.49269 0.16918 -0.00300
C 	C 	0.86021 0.47900 0.18305 -0.00300
H 	H 	0.87150 0.48780 0.19410 0.05000
C 	C 	0.86181 0.45256 0.18113 -0.09800
O 	O 	0.88830 0.41729 0.18966 -0.45700
C 	C 	0.84543 0.43961 0.16530 0.05000
H 	H 	0.84700 0.42170 0.16320 0.03700
C 	C 	0.82680 0.45289 0.15260 -0.10100
C 	C 	0.80720 0.43880 0.13800 0.38000
C 	C 	0.82530 0.47876 0.15470 -0.00000
H 	H 	0.81210 0.48750 0.14600 0.04900
C 	C 	0.79880 0.62950 0.06900 0.38500
C 	C 	0.81690 0.64670 0.05490 -0.09100
C 	C 	0.83220 0.66310 0.06878 0.03100
H 	H 	0.83320 0.66190 0.08680 0.04700
C 	C 	0.84600 0.68150 0.05567 -0.08500
C 	C 	0.86050 0.70150 0.06985 0.36300
C 	C 	0.84510 0.68210 0.02905 -0.01500
H 	H 	0.85470 0.69460 0.02030 0.05300
C 	C 	0.81620 0.64782 0.02818 -0.01500
H 	H 	0.80550 0.63650 0.01910 0.05300
C 	C 	0.83080 0.66499 0.01505 0.00600
C 	C 	0.83030 0.66644 0.98624 -0.00500
C 	C 	0.81577 0.64978 0.97165 -0.00400
H 	H 	0.80590 0.63710 0.98000 0.04900
C 	C 	0.81528 0.65116 0.94536 -0.09800
C 	C 	0.79780 0.63485 0.93021 0.38200
C 	C 	0.82961 0.66920 0.93285 0.04200
H 	H 	0.83000 0.66980 0.91480 0.04700
C 	C 	0.84361 0.68662 0.94754 -0.10000
C 	C 	0.85741 0.70786 0.93414 0.40600
C 	C 	0.84350 0.68532 0.97374 -0.00300
H 	H 	0.85270 0.69760 0.98330 0.05100
C 	C 	0.95696 0.56849 0.25370 0.42000
C 	C 	0.98134 0.55376 0.25280 -0.11400
C 	C 	0.00421 0.56686 0.25250 0.05300
H 	H 	0.00440 0.58490 0.25340 0.04700
C 	C 	0.02643 0.55368 0.25100 -0.10900
C 	C 	0.05069 0.56838 0.25080 0.38700
C 	C 	0.02662 0.52750 0.25000 -0.00200
H 	H 	0.04230 0.51870 0.24860 0.04900
C 	C 	0.00383 0.51402 0.25100 -0.00500
C 	C 	0.98118 0.52760 0.25160 0.00100
H 	H 	0.96540 0.51880 0.25110 0.04900
O 	O 	0.72082 0.63293 0.15467 -0.48600
C 	C 	0.88005 0.43824 0.19780 0.38700
Zn	Zn	0.28024 0.12110 0.62401 1.22100
Zn	Zn	0.22280 0.12563 0.61947 1.21600
Zn	Zn	0.25101 0.07210 0.62056 1.21900
Zn	Zn	0.25020 0.10563 0.57042 1.22000
Zn	Zn	0.38138 0.12687 0.73145 1.21800
Zn	Zn	0.38776 0.11624 0.79065 1.22000
Zn	Zn	0.40219 0.07145 0.75356 1.22000
Zn	Zn	0.43576 0.12026 0.75632 1.22000
O 	O 	0.25911 0.11698 0.66169 -0.46200
O 	O 	0.15710 0.12977 0.71815 -0.47000
O 	O 	0.16534 0.11533 0.75701 -0.41200
O 	O 	0.34427 0.12396 0.74476 -0.44400
O 	O 	0.35089 0.10690 0.78330 -0.45900
O 	O 	0.24729 0.11354 0.83781 -0.47800
O 	O 	0.28820 0.12040 0.84684 -0.47800
O 	O 	0.30560 0.09898 0.64031 -0.46000
O 	O 	0.28346 0.06290 0.63655 -0.48700
O 	O 	0.37308 0.09793 0.70635 -0.46300
O 	O 	0.38442 0.06061 0.72320 -0.48700
O 	O 	0.38525 0.94754 0.71893 -0.47200
O 	O 	0.31300 0.91878 0.62712 -0.45500
O 	O 	0.28477 0.94830 0.63930 -0.47700
O 	O 	0.30306 0.12521 0.59149 -0.45900
O 	O 	0.27931 0.12207 0.55638 -0.48900
O 	O 	0.36100 0.22343 0.55922 -0.48500
O 	O 	0.36974 0.19645 0.59081 -0.41000
O 	O 	0.30126 0.13562 0.40608 -0.47900
O 	O 	0.28118 0.12255 0.44188 -0.48700
O 	O 	0.36254 0.22666 0.44789 -0.48700
O 	O 	0.36267 0.20561 0.41159 -0.45800
O 	O 	0.45932 0.09164 0.75670 -0.50700
O 	O 	0.43654 0.05664 0.75219 -0.49600
O 	O 	0.54881 0.09218 0.75322 -0.49300
O 	O 	0.57135 0.05622 0.74845 -0.48500
O 	O 	0.40179 0.10757 0.75700 -0.92400
O 	O 	0.25088 0.10599 0.60694 -0.94800
C 	C 	0.23830 0.12420 0.66828 0.39200
C 	C 	0.23170 0.12330 0.69622 -0.08800
C 	C 	0.20620 0.12420 0.70329 0.03000
H 	H 	0.19330 0.12580 0.69070 0.05500
C 	C 	0.19974 0.12270 0.72865 -0.08400
C 	C 	0.17182 0.12220 0.73510 0.36900
C 	C 	0.21860 0.12110 0.74699 -0.01500
H 	H 	0.21400 0.12040 0.76440 0.05300
C 	C 	0.25042 0.12120 0.71476 -0.01400
H 	H 	0.26770 0.12010 0.70980 0.05400
C 	C 	0.24427 0.12060 0.74034 0.00600
C 	C 	0.26454 0.11950 0.76020 -0.00500
C 	C 	0.25858 0.11810 0.78567 -0.00200
H 	H 	0.24120 0.11790 0.79060 0.04900
C 	C 	0.29045 0.11930 0.75410 -0.00400
H 	H 	0.29550 0.12090 0.73680 0.04900
C 	C 	0.30893 0.11700 0.77270 -0.09800
C 	C 	0.33680 0.11660 0.76630 0.37300
C 	C 	0.30220 0.11550 0.79740 0.05000
H 	H 	0.31490 0.11330 0.81010 0.04200
C 	C 	0.27705 0.11700 0.80431 -0.10400
C 	C 	0.27010 0.11640 0.83198 0.39100
C 	C 	0.30218 0.07547 0.64411 0.38800
C 	C 	0.32238 0.06134 0.65846 -0.09500
C 	C 	0.33891 0.07452 0.67416 0.04300
H 	H 	0.33860 0.09260 0.67480 0.04800
C 	C 	0.35589 0.06073 0.68901 -0.10100
C 	C 	0.37251 0.07429 0.70771 0.40100
C 	C 	0.35711 0.03454 0.68709 -0.00600
H 	H 	0.36920 0.02540 0.69690 0.05300
C 	C 	0.32334 0.03495 0.65697 -0.00900
H 	H 	0.31180 0.02620 0.64620 0.05300
C 	C 	0.34080 0.02150 0.67096 0.00200
C 	C 	0.34241 0.99269 0.66918 -0.00300
C 	C 	0.36021 0.97900 0.68305 -0.00300
H 	H 	0.37150 0.98780 0.69410 0.05000
C 	C 	0.36181 0.95256 0.68113 -0.09800
O 	O 	0.38830 0.91729 0.68966 -0.45700
C 	C 	0.34543 0.93961 0.66530 0.05000
H 	H 	0.34700 0.92170 0.66320 0.03700
C 	C 	0.32680 0.95289 0.65260 -0.10100
C 	C 	0.30720 0.93880 0.63800 0.38000
C 	C 	0.32530 0.97876 0.65470 -0.00000
H 	H 	0.31210 0.98750 0.64600 0.04900
C 	C 	0.29880 0.12950 0.56900 0.38500
C 	C 	0.31690 0.14670 0.55490 -0.09100
C 	C 	0.33220 0.16310 0.56878 0.03100
H 	H 	0.33320 0.16190 0.58680 0.04700
C 	C 	0.34600 0.18150 0.55567 -0.08500
C 	C 	0.36050 0.20150 0.56985 0.36300
C 	C 	0.34510 0.18210 0.52905 -0.01500
H 	H 	0.35470 0.19460 0.52030 0.05300
C 	C 	0.31620 0.14782 0.52818 -0.01500
H 	H 	0.30550 0.13650 0.51910 0.05300
C 	C 	0.33080 0.16499 0.51505 0.00600
C 	C 	0.33030 0.16644 0.48624 -0.00500
C 	C 	0.31577 0.14978 0.47165 -0.00400
H 	H 	0.30590 0.13710 0.48000 0.04900
C 	C 	0.31528 0.15116 0.44536 -0.09800
C 	C 	0.29780 0.13485 0.43021 0.38200
C 	C 	0.32961 0.16920 0.43285 0.04200
H 	H 	0.33000 0.16980 0.41480 0.04700
C 	C 	0.34361 0.18662 0.44754 -0.10000
C 	C 	0.35741 0.20786 0.43414 0.40600
C 	C 	0.34350 0.18532 0.47374 -0.00300
H 	H 	0.35270 0.19760 0.48330 0.05100
C 	C 	0.45696 0.06849 0.75370 0.42000
C 	C 	0.48134 0.05376 0.75280 -0.11400
C 	C 	0.50421 0.06686 0.75250 0.05300
H 	H 	0.50440 0.08490 0.75340 0.04700
C 	C 	0.52643 0.05368 0.75100 -0.10900
C 	C 	0.55069 0.06838 0.75080 0.38700
C 	C 	0.52662 0.02750 0.75000 -0.00200
H 	H 	0.54230 0.01870 0.74860 0.04900
C 	C 	0.50383 0.01402 0.75100 -0.00500
C 	C 	0.48118 0.02760 0.75160 0.00100
H 	H 	0.46540 0.01880 0.75110 0.04900
O 	O 	0.22082 0.13293 0.65467 -0.48600
C 	C 	0.38005 0.93824 0.69780 0.38700
Zn	Zn	0.71976 0.37890 0.62401 1.22100
Zn	Zn	0.77720 0.37437 0.61947 1.21600
Zn	Zn	0.74899 0.42790 0.62056 1.21900
Zn	Zn	0.74980 0.39437 0.57042 1.22000
Zn	Zn	0.61862 0.37313 0.73145 1.21800
Zn	Zn	0.61224 0.38376 0.79065 1.22000
Zn	Zn	0.59781 0.42855 0.75356 1.22000
Zn	Zn	0.56424 0.37974 0.75632 1.22000
O 	O 	0.74089 0.38302 0.66169 -0.46200
O 	O 	0.84290 0.37023 0.71815 -0.47000
O 	O 	0.83466 0.38467 0.75701 -0.41200
O 	O 	0.65573 0.37604 0.74476 -0.44400
O 	O 	0.64911 0.39310 0.78330 -0.45900
O 	O 	0.75271 0.38646 0.83781 -0.47800
O 	O 	0.71180 0.37960 0.84684 -0.47800
O 	O 	0.69440 0.40102 0.64031 -0.46000
O 	O 	0.71654 0.43710 0.63655 -0.48700
O 	O 	0.62692 0.40207 0.70635 -0.46300
O 	O 	0.61558 0.43939 0.72320 -0.48700
O 	O 	0.61475 0.55246 0.71893 -0.47200
O 	O 	0.68700 0.58122 0.62712 -0.45500
O 	O 	0.71523 0.55170 0.63930 -0.47700
O 	O 	0.69694 0.37479 0.59149 -0.45900
O 	O 	0.72069 0.37793 0.55638 -0.48900
O 	O 	0.63900 0.27657 0.55922 -0.48500
O 	O 	0.63026 0.30355 0.59081 -0.41000
O 	O 	0.69874 0.36438 0.40608 -0.47900
O 	O 	0.71882 0.37745 0.44188 -0.48700
O 	O 	0.63746 0.27334 0.44789 -0.48700
O 	O 	0.63733 0.29439 0.41159 -0.45800
O 	O 	0.54068 0.40836 0.75670 -0.50700
O 	O 	0.56346 0.44336 0.75219 -0.49600
O 	O 	0.45119 0.40782 0.75322 -0.49300
O 	O 	0.42865 0.44378 0.74845 -0.48500
O 	O 	0.59821 0.39243 0.75700 -0.92400
O 	O 	0.74912 0.39401 0.60694 -0.94800
C 	C 	0.76170 0.37580 0.66828 0.39200
C 	C 	0.76830 0.37670 0.69622 -0.08800
C 	C 	0.79380 0.37580 0.70329 0.03000
H 	H 	0.80670 0.37420 0.69070 0.05500
C 	C 	0.80026 0.37730 0.72865 -0.08400
C 	C 	0.82818 0.37780 0.73510 0.36900
C 	C 	0.78140 0.37890 0.74699 -0.01500
H 	H 	0.78600 0.37960 0.76440 0.05300
C 	C 	0.74958 0.37880 0.71476 -0.01400
H 	H 	0.73230 0.37990 0.70980 0.05400
C 	C 	0.75573 0.37940 0.74034 0.00600
C 	C 	0.73546 0.38050 0.76020 -0.00500
C 	C 	0.74142 0.38190 0.78567 -0.00200
H 	H 	0.75880 0.38210 0.79060 0.04900
C 	C 	0.70955 0.38070 0.75410 -0.00400
H 	H 	0.70450 0.37910 0.73680 0.04900
C 	C 	0.69107 0.38300 0.77270 -0.09800
C 	C 	0.66320 0.38340 0.76630 0.37300
C 	C 	0.69780 0.38450 0.79740 0.05000
H 	H 	0.68510 0.38670 0.81010 0.04200
C 	C 	0.72295 0.38300 0.80431 -0.10400
C 	C 	0.72990 0.38360 0.83198 0.39100
C 	C 	0.69782 0.42453 0.64411 0.38800
C 	C 	0.67762 0.43866 0.65846 -0.09500
C 	C 	0.66109 0.42548 0.67416 0.04300
H 	H 	0.66140 0.40740 0.67480 0.04800
C 	C 	0.64411 0.43927 0.68901 -0.10100
C 	C 	0.62749 0.42571 0.70771 0.40100
C 	C 	0.64289 0.46546 0.68709 -0.00600
H 	H 	0.63080 0.47460 0.69690 0.05300
C 	C 	0.67666 0.46505 0.65697 -0.00900
H 	H 	0.68820 0.47380 0.64620 0.05300
C 	C 	0.65920 0.47850 0.67096 0.00200
C 	C 	0.65759 0.50731 0.66918 -0.00300
C 	C 	0.63979 0.52100 0.68305 -0.00300
H 	H 	0.62850 0.51220 0.69410 0.05000
C 	C 	0.63819 0.54744 0.68113 -0.09800
O 	O 	0.61170 0.58271 0.68966 -0.45700
C 	C 	0.65457 0.56039 0.66530 0.05000
H 	H 	0.65300 0.57830 0.66320 0.03700
C 	C 	0.67320 0.54711 0.65260 -0.10100
C 	C 	0.69280 0.56120 0.63800 0.38000
C 	C 	0.67470 0.52124 0.65470 -0.00000
H 	H 	0.68790 0.51250 0.64600 0.04900
C 	C 	0.70120 0.37050 0.56900 0.38500
C 	C 	0.68310 0.35330 0.55490 -0.09100
C 	C 	0.66780 0.33690 0.56878 0.03100
H 	H 	0.66680 0.33810 0.58680 0.04700
C 	C 	0.65400 0.31850 0.55567 -0.08500
C 	C 	0.63950 0.29850 0.56985 0.36300
C 	C 	0.65490 0.31790 0.52905 -0.01500
H 	H 	0.64530 0.30540 0.52030 0.05300
C 	C 	0.68380 0.35218 0.52818 -0.01500
H 	H 	0.69450 0.36350 0.51910 0.05300
C 	C 	0.66920 0.33501 0.51505 0.00600
C 	C 	0.66970 0.33356 0.48624 -0.00500
C 	C 	0.68423 0.35022 0.47165 -0.00400
H 	H 	0.69410 0.36290 0.48000 0.04900
C 	C 	0.68472 0.34884 0.44536 -0.09800
C 	C 	0.70220 0.36515 0.43021 0.38200
C 	C 	0.67039 0.33080 0.43285 0.04200
H 	H 	0.67000 0.33020 0.41480 0.04700
C 	C 	0.65639 0.31338 0.44754 -0.10000
C 	C 	0.64259 0.29214 0.43414 0.40600
C 	C 	0.65650 0.31468 0.47374 -0.00300
H 	H 	0.64730 0.30240 0.48330 0.05100
C 	C 	0.54304 0.43151 0.75370 0.42000
C 	C 	0.51866 0.44624 0.75280 -0.11400
C 	C 	0.49579 0.43314 0.75250 0.05300
H 	H 	0.49560 0.41510 0.75340 0.04700
C 	C 	0.47357 0.44632 0.75100 -0.10900
C 	C 	0.44931 0.43162 0.75080 0.38700
C 	C 	0.47338 0.47250 0.75000 -0.00200
H 	H 	0.45770 0.48130 0.74860 0.04900
C 	C 	0.49617 0.48598 0.75100 -0.00500
C 	C 	0.51882 0.47240 0.75160 0.00100
H 	H 	0.53460 0.48120 0.75110 0.04900
O 	O 	0.77918 0.36707 0.65467 -0.48600
C 	C 	0.61995 0.56176 0.69780 0.38700
Zn	Zn	0.21976 0.87890 0.12401 1.22100
Zn	Zn	0.27720 0.87437 0.11947 1.21600
Zn	Zn	0.24899 0.92790 0.12056 1.21900
Zn	Zn	0.24980 0.89437 0.07042 1.22000
Zn	Zn	0.11862 0.87313 0.23145 1.21800
Zn	Zn	0.11224 0.88376 0.29065 1.22000
Zn	Zn	0.09781 0.92855 0.25356 1.22000
Zn	Zn	0.06424 0.87974 0.25632 1.22000
O 	O 	0.24089 0.88302 0.16169 -0.46200
O 	O 	0.34290 0.87023 0.21815 -0.47000
O 	O 	0.33466 0.88467 0.25701 -0.41200
O 	O 	0.15573 0.87604 0.24476 -0.44400
O 	O 	0.14911 0.89310 0.28330 -0.45900
O 	O 	0.25271 0.88646 0.33781 -0.47800
O 	O 	0.21180 0.87960 0.34684 -0.47800
O 	O 	0.19440 0.90102 0.14031 -0.46000
O 	O 	0.21654 0.93710 0.13655 -0.48700
O 	O 	0.12692 0.90207 0.20635 -0.46300
O 	O 	0.11558 0.93939 0.22320 -0.48700
O 	O 	0.11475 0.05246 0.21893 -0.47200
O 	O 	0.18700 0.08122 0.12712 -0.45500
O 	O 	0.21523 0.05170 0.13930 -0.47700
O 	O 	0.19694 0.87479 0.09149 -0.45900
O 	O 	0.22069 0.87793 0.05638 -0.48900
O 	O 	0.13900 0.77657 0.05922 -0.48500
O 	O 	0.13026 0.80355 0.09081 -0.41000
O 	O 	0.19874 0.86438 0.90608 -0.47900
O 	O 	0.21882 0.87745 0.94188 -0.48700
O 	O 	0.13746 0.77334 0.94789 -0.48700
O 	O 	0.13733 0.79439 0.91159 -0.45800
O 	O 	0.04068 0.90836 0.25670 -0.50700
O 	O 	0.06346 0.94336 0.25219 -0.49600
O 	O 	0.95119 0.90782 0.25322 -0.49300
O 	O 	0.92865 0.94378 0.24845 -0.48500
O 	O 	0.09821 0.89243 0.25700 -0.92400
O 	O 	0.24912 0.89401 0.10694 -0.94800
C 	C 	0.26170 0.87580 0.16828 0.39200
C 	C 	0.26830 0.87670 0.19622 -0.08800
C 	C 	0.29380 0.87580 0.20329 0.03000
H 	H 	0.30670 0.87420 0.19070 0.05500
C 	C 	0.30026 0.87730 0.22865 -0.08400
C 	C 	0.32818 0.87780 0.23510 0.36900
C 	C 	0.28140 0.87890 0.24699 -0.01500
H 	H 	0.28600 0.87960 0.26440 0.05300
C 	C 	0.24958 0.87880 0.21476 -0.01400
H 	H 	0.23230 0.87990 0.20980 0.05400
C 	C 	0.25573 0.87940 0.24034 0.00600
C 	C 	0.23546 0.88050 0.26020 -0.00500
C 	C 	0.24142 0.88190 0.28567 -0.00200
H 	H 	0.25880 0.88210 0.29060 0.04900
C 	C 	0.20955 0.88070 0.25410 -0.00400
H 	H 	0.20450 0.87910 0.23680 0.04900
C 	C 	0.19107 0.88300 0.27270 -0.09800
C 	C 	0.16320 0.88340 0.26630 0.37300
C 	C 	0.19780 0.88450 0.29740 0.05000
H 	H 	0.18510 0.88670 0.31010 0.04200
C 	C 	0.22295 0.88300 0.30431 -0.10400
C 	C 	0.22990 0.88360 0.33198 0.39100
C 	C 	0.19782 0.92453 0.14411 0.38800
C 	C 	0.17762 0.93866 0.15846 -0.09500
C 	C 	0.16109 0.92548 0.17416 0.04300
H 	H 	0.16140 0.90740 0.17480 0.04800
C 	C 	0.14411 0.93927 0.18901 -0.10100
C 	C 	0.12749 0.92571 0.20771 0.40100
C 	C 	0.14289 0.96546 0.18709 -0.00600
H 	H 	0.13080 0.97460 0.19690 0.05300
C 	C 	0.17666 0.96505 0.15697 -0.00900
H 	H 	0.18820 0.97380 0.14620 0.05300
C 	C 	0.15920 0.97850 0.17096 0.00200
C 	C 	0.15759 0.00731 0.16918 -0.00300
C 	C 	0.13979 0.02100 0.18305 -0.00300
H 	H 	0.12850 0.01220 0.19410 0.05000
C 	C 	0.13819 0.04744 0.18113 -0.09800
O 	O 	0.11170 0.08271 0.18966 -0.45700
C 	C 	0.15457 0.06039 0.16530 0.05000
H 	H 	0.15300 0.07830 0.16320 0.03700
C 	C 	0.17320 0.04711 0.15260 -0.10100
C 	C 	0.19280 0.06120 0.13800 0.38000
C 	C 	0.17470 0.02124 0.15470 -0.00000
H 	H 	0.18790 0.01250 0.14600 0.04900
C 	C 	0.20120 0.87050 0.06900 0.38500
C 	C 	0.18310 0.85330 0.05490 -0.09100
C 	C 	0.16780 0.83690 0.06878 0.03100
H 	H 	0.16680 0.83810 0.08680 0.04700
C 	C 	0.15400 0.81850 0.05567 -0.08500
C 	C 	0.13950 0.79850 0.06985 0.36300
C 	C 	0.15490 0.81790 0.02905 -0.01500
H 	H 	0.14530 0.80540 0.02030 0.05300
C 	C 	0.18380 0.85218 0.02818 -0.01500
H 	H 	0.19450 0.86350 0.01910 0.05300
C 	C 	0.16920 0.83501 0.01505 0.00600
C 	C 	0.16970 0.83356 0.98624 -0.00500
C 	C 	0.18423 0.85022 0.97165 -0.00400
H 	H 	0.19410 0.86290 0.98000 0.04900
C 	C 	0.18472 0.84884 0.94536 -0.09800
C 	C 	0.20220 0.86515 0.93021 0.38200
C 	C 	0.17039 0.83080 0.93285 0.04200
H 	H 	0.17000 0.83020 0.91480 0.04700
C 	C 	0.15639 0.81338 0.94754 -0.10000
C 	C 	0.14259 0.79214 0.93414 0.40600
C 	C 	0.15650 0.81468 0.97374 -0.00300
H 	H 	0.14730 0.80240 0.98330 0.05100
C 	C 	0.04304 0.93151 0.25370 0.42000
C 	C 	0.01866 0.94624 0.25280 -0.11400
C 	C 	0.99579 0.93314 0.25250 0.05300
H 	H 	0.99560 0.91510 0.25340 0.04700
C 	C 	0.97357 0.94632 0.25100 -0.10900
C 	C 	0.94931 0.93162 0.25080 0.38700
C 	C 	0.97338 0.97250 0.25000 -0.00200
H 	H 	0.95770 0.98130 0.24860 0.04900
C 	C 	0.99617 0.98598 0.25100 -0.00500
C 	C 	0.01882 0.97240 0.25160 0.00100
H 	H 	0.03460 0.98120 0.25110 0.04900
O 	O 	0.27918 0.86707 0.15467 -0.48600
C 	C 	0.11995 0.06176 0.19780 0.38700
Zn	Zn	0.21976 0.12110 0.37599 1.22100
Zn	Zn	0.27720 0.12563 0.38053 1.21600
Zn	Zn	0.24899 0.07210 0.37944 1.21900
Zn	Zn	0.24980 0.10563 0.42958 1.22000
Zn	Zn	0.11862 0.12687 0.26855 1.21800
Zn	Zn	0.11224 0.11624 0.20935 1.22000
Zn	Zn	0.09781 0.07145 0.24644 1.22000
Zn	Zn	0.06424 0.12026 0.24368 1.22000
O 	O 	0.24089 0.11698 0.33831 -0.46200
O 	O 	0.34290 0.12977 0.28185 -0.47000
O 	O 	0.33466 0.11533 0.24299 -0.41200
O 	O 	0.15573 0.12396 0.25524 -0.44400
O 	O 	0.14911 0.10690 0.21670 -0.45900
O 	O 	0.25271 0.11354 0.16219 -0.47800
O 	O 	0.21180 0.12040 0.15316 -0.47800
O 	O 	0.19440 0.09898 0.35969 -0.46000
O 	O 	0.21654 0.06290 0.36345 -0.48700
O 	O 	0.12692 0.09793 0.29365 -0.46300
O 	O 	0.11558 0.06061 0.27680 -0.48700
O 	O 	0.11475 0.94754 0.28107 -0.47200
O 	O 	0.18700 0.91878 0.37288 -0.45500
O 	O 	0.21523 0.94830 0.36070 -0.47700
O 	O 	0.19694 0.12521 0.40851 -0.45900
O 	O 	0.22069 0.12207 0.44362 -0.48900
O 	O 	0.13900 0.22343 0.44078 -0.48500
O 	O 	0.13026 0.19645 0.40919 -0.41000
O 	O 	0.19874 0.13562 0.59392 -0.47900
O 	O 	0.21882 0.12255 0.55812 -0.48700
O 	O 	0.13746 0.22666 0.55211 -0.48700
O 	O 	0.13733 0.20561 0.58841 -0.45800
O 	O 	0.04068 0.09164 0.24330 -0.50700
O 	O 	0.06346 0.05664 0.24781 -0.49600
O 	O 	0.95119 0.09218 0.24678 -0.49300
O 	O 	0.92865 0.05622 0.25155 -0.48500
O 	O 	0.09821 0.10757 0.24300 -0.92400
O 	O 	0.24912 0.10599 0.39306 -0.94800
C 	C 	0.26170 0.12420 0.33172 0.39200
C 	C 	0.26830 0.12330 0.30378 -0.08800
C 	C 	0.29380 0.12420 0.29671 0.03000
H 	H 	0.30670 0.12580 0.30930 0.05500
C 	C 	0.30026 0.12270 0.27135 -0.08400
C 	C 	0.32818 0.12220 0.26490 0.36900
C 	C 	0.28140 0.12110 0.25301 -0.01500
H 	H 	0.28600 0.12040 0.23560 0.05300
C 	C 	0.24958 0.12120 0.28524 -0.01400
H 	H 	0.23230 0.12010 0.29020 0.05400
C 	C 	0.25573 0.12060 0.25966 0.00600
C 	C 	0.23546 0.11950 0.23980 -0.00500
C 	C 	0.24142 0.11810 0.21433 -0.00200
H 	H 	0.25880 0.11790 0.20940 0.04900
C 	C 	0.20955 0.11930 0.24590 -0.00400
H 	H 	0.20450 0.12090 0.26320 0.04900
C 	C 	0.19107 0.11700 0.22730 -0.09800
C 	C 	0.16320 0.11660 0.23370 0.37300
C 	C 	0.19780 0.11550 0.20260 0.05000
H 	H 	0.18510 0.11330 0.18990 0.04200
C 	C 	0.22295 0.11700 0.19569 -0.10400
C 	C 	0.22990 0.11640 0.16802 0.39100
C 	C 	0.19782 0.07547 0.35589 0.38800
C 	C 	0.17762 0.06134 0.34154 -0.09500
C 	C 	0.16109 0.07452 0.32584 0.04300
H 	H 	0.16140 0.09260 0.32520 0.04800
C 	C 	0.14411 0.06073 0.31099 -0.10100
C 	C 	0.12749 0.07429 0.29229 0.40100
C 	C 	0.14289 0.03454 0.31291 -0.00600
H 	H 	0.13080 0.02540 0.30310 0.05300
C 	C 	0.17666 0.03495 0.34303 -0.00900
H 	H 	0.18820 0.02620 0.35380 0.05300
C 	C 	0.15920 0.02150 0.32904 0.00200
C 	C 	0.15759 0.99269 0.33082 -0.00300
C 	C 	0.13979 0.97900 0.31695 -0.00300
H 	H 	0.12850 0.98780 0.30590 0.05000
C 	C 	0.13819 0.95256 0.31887 -0.09800
O 	O 	0.11170 0.91729 0.31034 -0.45700
C 	C 	0.15457 0.93961 0.33470 0.05000
H 	H 	0.15300 0.92170 0.33680 0.03700
C 	C 	0.17320 0.95289 0.34740 -0.10100
C 	C 	0.19280 0.93880 0.36200 0.38000
C 	C 	0.17470 0.97876 0.34530 -0.00000
H 	H 	0.18790 0.98750 0.35400 0.04900
C 	C 	0.20120 0.12950 0.43100 0.38500
C 	C 	0.18310 0.14670 0.44510 -0.09100
C 	C 	0.16780 0.16310 0.43122 0.03100
H 	H 	0.16680 0.16190 0.41320 0.04700
C 	C 	0.15400 0.18150 0.44433 -0.08500
C 	C 	0.13950 0.20150 0.43015 0.36300
C 	C 	0.15490 0.18210 0.47095 -0.01500
H 	H 	0.14530 0.19460 0.47970 0.05300
C 	C 	0.18380 0.14782 0.47182 -0.01500
H 	H 	0.19450 0.13650 0.48090 0.05300
C 	C 	0.16920 0.16499 0.48495 0.00600
C 	C 	0.16970 0.16644 0.51376 -0.00500
C 	C 	0.18423 0.14978 0.52835 -0.00400
H 	H 	0.19410 0.13710 0.52000 0.04900
C 	C 	0.18472 0.15116 0.55464 -0.09800
C 	C 	0.20220 0.13485 0.56979 0.38200
C 	C 	0.17039 0.16920 0.56715 0.04200
H 	H 	0.17000 0.16980 0.58520 0.04700
C 	C 	0.15639 0.18662 0.55246 -0.10000
C 	C 	0.14259 0.20786 0.56586 0.40600
C 	C 	0.15650 0.18532 0.52626 -0.00300
H 	H 	0.14730 0.19760 0.51670 0.05100
C 	C 	0.04304 0.06849 0.24630 0.42000
C 	C 	0.01866 0.05376 0.24720 -0.11400
C 	C 	0.99579 0.06686 0.24750 0.05300
H 	H 	0.99560 0.08490 0.24660 0.04700
C 	C 	0.97357 0.05368 0.24900 -0.10900
C 	C 	0.94931 0.06838 0.24920 0.38700
C 	C 	0.97338 0.02750 0.25000 -0.00200
H 	H 	0.95770 0.01870 0.25140 0.04900
C 	C 	0.99617 0.01402 0.24900 -0.00500
C 	C 	0.01882 0.02760 0.24840 0.00100
H 	H 	0.03460 0.01880 0.24890 0.04900
O 	O 	0.27918 0.13293 0.34533 -0.48600
C 	C 	0.11995 0.93824 0.30220 0.38700
Zn	Zn	0.71976 0.62110 0.87599 1.22100
Zn	Zn	0.77720 0.62563 0.88053 1.21600
Zn	Zn	0.74899 0.57210 0.87944 1.21900
Zn	Zn	0.74980 0.60563 0.92958 1.22000
Zn	Zn	0.61862 0.62687 0.76855 1.21800
Zn	Zn	0.61224 0.61624 0.70935 1.22000
Zn	Zn	0.59781 0.57145 0.74644 1.22000
Zn	Zn	0.56424 0.62026 0.74368 1.22000
O 	O 	0.74089 0.61698 0.83831 -0.46200
O 	O 	0.84290 0.62977 0.78185 -0.47000
O 	O 	0.83466 0.61533 0.74299 -0.41200
O 	O 	0.65573 0.62396 0.75524 -0.44400
O 	O 	0.64911 0.60690 0.71670 -0.45900
O 	O 	0.75271 0.61354 0.66219 -0.47800
O 	O 	0.71180 0.62040 0.65316 -0.47800
O 	O 	0.69440 0.59898 0.85969 -0.46000
O 	O 	0.71654 0.56290 0.86345 -0.48700
O 	O 	0.62692 0.59793 0.79365 -0.46300
O 	O 	0.61558 0.56061 0.77680 -0.48700
O 	O 	0.61475 0.44754 0.78107 -0.47200
O 	O 	0.68700 0.41878 0.87288 -0.45500
O 	O 	0.71523 0.44830 0.86070 -0.47700
O 	O 	0.69694 0.62521 0.90851 -0.45900
O 	O 	0.72069 0.62207 0.94362 -0.48900
O 	O 	0.63900 0.72343 0.94078 -0.48500
O 	O 	0.63026 0.69645 0.90919 -0.41000
O 	O 	0.69874 0.63562 0.09392 -0.47900
O 	O 	0.71882 0.62255 0.05812 -0.48700
O 	O 	0.63746 0.72666 0.05211 -0.48700
O 	O 	0.63733 0.70561 0.08841 -0.45800
O 	O 	0.54068 0.59164 0.74330 -0.50700
O 	O 	0.56346 0.55664 0.74781 -0.49600
O 	O 	0.45119 0.59218 0.74678 -0.49300
O 	O 	0.42865 0.55622 0.75155 -0.48500
O 	O 	0.59821 0.60757 0.74300 -0.92400
O 	O 	0.74912 0.60599 0.89306 -0.94800
C 	C 	0.76170 0.62420 0.83172 0.39200
C 	C 	0.76830 0.62330 0.80378 -0.08800
C 	C 	0.79380 0.62420 0.79671 0.03000
H 	H 	0.80670 0.62580 0.80930 0.05500
C 	C 	0.80026 0.62270 0.77135 -0.08400
C 	C 	0.82818 0.62220 0.76490 0.36900
C 	C 	0.78140 0.62110 0.75301 -0.01500
H 	H 	0.78600 0.62040 0.73560 0.05300
C 	C 	0.74958 0.62120 0.78524 -0.01400
H 	H 	0.73230 0.62010 0.79020 0.05400
C 	C 	0.75573 0.62060 0.75966 0.00600
C 	C 	0.73546 0.61950 0.73980 -0.00500
C 	C 	0.74142 0.61810 0.71433 -0.00200
H 	H 	0.75880 0.61790 0.70940 0.04900
C 	C 	0.70955 0.61930 0.74590 -0.00400
H 	H 	0.70450 0.62090 0.76320 0.04900
C 	C 	0.69107 0.61700 0.72730 -0.09800
C 	C 	0.66320 0.61660 0.73370 0.37300
C 	C 	0.69780 0.61550 0.70260 0.05000
H 	H 	0.68510 0.61330 0.68990 0.04200
C 	C 	0.72295 0.61700 0.69569 -0.10400
C 	C 	0.72990 0.61640 0.66802 0.39100
C 	C 	0.69782 0.57547 0.85589 0.38800
C 	C 	0.67762 0.56134 0.84154 -0.09500
C 	C 	0.66109 0.57452 0.82584 0.04300
H 	H 	0.66140 0.59260 0.82520 0.04800
C 	C 	0.64411 0.56073 0.81099 -0.10100
C 	C 	0.62749 0.57429 0.79229 0.40100
C 	C 	0.64289 0.53454 0.81291 -0.00600
H 	H 	0.63080 0.52540 0.80310 0.05300
C 	C 	0.67666 0.53495 0.84303 -0.00900
H 	H 	0.68820 0.52620 0.85380 0.05300
C 	C 	0.65920 0.52150 0.82904 0.00200
C 	C 	0.65759 0.49269 0.83082 -0.00300
C 	C 	0.63979 0.47900 0.81695 -0.00300
H 	H 	0.62850 0.48780 0.80590 0.05000
C 	C 	0.63819 0.45256 0.81887 -0.09800
O 	O 	0.61170 0.41729 0.81034 -0.45700
C 	C 	0.65457 0.43961 0.83470 0.05000
H 	H 	0.65300 0.42170 0.83680 0.03700
C 	C 	0.67320 0.45289 0.84740 -0.10100
C 	C 	0.69280 0.43880 0.86200 0.38000
C 	C 	0.67470 0.47876 0.84530 -0.00000
H 	H 	0.68790 0.48750 0.85400 0.04900
C 	C 	0.70120 0.62950 0.93100 0.38500
C 	C 	0.68310 0.64670 0.94510 -0.09100
C 	C 	0.66780 0.66310 0.93122 0.03100
H 	H 	0.66680 0.66190 0.91320 0.04700
C 	C 	0.65400 0.68150 0.94433 -0.08500
C 	C 	0.63950 0.70150 0.93015 0.36300
C 	C 	0.65490 0.68210 0.97095 -0.01500
H 	H 	0.64530 0.69460 0.97970 0.05300
C 	C 	0.68380 0.64782 0.97182 -0.01500
H 	H 	0.69450 0.63650 0.98090 0.05300
C 	C 	0.66920 0.66499 0.98495 0.00600
C 	C 	0.66970 0.66644 0.01376 -0.00500
C 	C 	0.68423 0.64978 0.02835 -0.00400
H 	H 	0.69410 0.63710 0.02000 0.04900
C 	C 	0.68472 0.65116 0.05464 -0.09800
C 	C 	0.70220 0.63485 0.06979 0.38200
C 	C 	0.67039 0.66920 0.06715 0.04200
H 	H 	0.67000 0.66980 0.08520 0.04700
C 	C 	0.65639 0.68662 0.05246 -0.10000
C 	C 	0.64259 0.70786 0.06586 0.40600
C 	C 	0.65650 0.68532 0.02626 -0.00300
H 	H 	0.64730 0.69760 0.01670 0.05100
C 	C 	0.54304 0.56849 0.74630 0.42000
C 	C 	0.51866 0.55376 0.74720 -0.11400
C 	C 	0.49579 0.56686 0.74750 0.05300
H 	H 	0.49560 0.58490 0.74660 0.04700
C 	C 	0.47357 0.55368 0.74900 -0.10900
C 	C 	0.44931 0.56838 0.74920 0.38700
C 	C 	0.47338 0.52750 0.75000 -0.00200
H 	H 	0.45770 0.51870 0.75140 0.04900
C 	C 	0.49617 0.51402 0.74900 -0.00500
C 	C 	0.51882 0.52760 0.74840 0.00100
H 	H 	0.53460 0.51880 0.74890 0.04900
O 	O 	0.77918 0.63293 0.84533 -0.48600
C 	C 	0.61995 0.43824 0.80220 0.38700
Zn	Zn	0.28024 0.87890 0.87599 1.22100
Zn	Zn	0.22280 0.87437 0.88053 1.21600
Zn	Zn	0.25101 0.92790 0.87944 1.21900
Zn	Zn	0.25020 0.89437 0.92958 1.22000
Zn	Zn	0.38138 0.87313 0.76855 1.21800
Zn	Zn	0.38776 0.88376 0.70935 1.22000
Zn	Zn	0.40219 0.92855 0.74644 1.22000
Zn	Zn	0.43576 0.87974 0.74368 1.22000
O 	O 	0.25911 0.88302 0.83831 -0.46200
O 	O 	0.15710 0.87023 0.78185 -0.47000
O 	O 	0.16534 0.88467 0.74299 -0.41200
O 	O 	0.34427 0.87604 0.75524 -0.44400
O 	O 	0.35089 0.89310 0.71670 -0.45900
O 	O 	0.24729 0.88646 0.66219 -0.47800
O 	O 	0.28820 0.87960 0.65316 -0.47800
O 	O 	0.30560 0.90102 0.85969 -0.46000
O 	O 	0.28346 0.93710 0.86345 -0.48700
O 	O 	0.37308 0.90207 0.79365 -0.46300
O 	O 	0.38442 0.93939 0.77680 -0.48700
O 	O 	0.38525 0.05246 0.78107 -0.47200
O 	O 	0.31300 0.08122 0.87288 -0.45500
O 	O 	0.28477 0.05170 0.86070 -0.47700
O 	O 	0.30306 0.87479 0.90851 -0.45900
O 	O 	0.27931 0.87793 0.94362 -0.48900
O 	O 	0.36100 0.77657 0.94078 -0.48500
O 	O 	0.36974 0.80355 0.90919 -0.41000
O 	O 	0.30126 0.86438 0.09392 -0.47900
O 	O 	0.28118 0.87745 0.05812 -0.48700
O 	O 	0.36254 0.77334 0.05211 -0.48700
O 	O 	0.36267 0.79439 0.08841 -0.45800
O 	O 	0.45932 0.90836 0.74330 -0.50700
O 	O 	0.43654 0.94336 0.74781 -0.49600
O 	O 	0.54881 0.90782 0.74678 -0.49300
O 	O 	0.57135 0.94378 0.75155 -0.48500
O 	O 	0.40179 0.89243 0.74300 -0.92400
O 	O 	0.25088 0.89401 0.89306 -0.94800
C 	C 	0.23830 0.87580 0.83172 0.39200
C 	C 	0.23170 0.87670 0.80378 -0.08800
C 	C 	0.20620 0.87580 0.79671 0.03000
H 	H 	0.19330 0.87420 0.80930 0.05500
C 	C 	0.19974 0.87730 0.77135 -0.08400
C 	C 	0.17182 0.87780 0.76490 0.36900
C 	C 	0.21860 0.87890 0.75301 -0.01500
H 	H 	0.21400 0.87960 0.73560 0.05300
C 	C 	0.25042 0.87880 0.78524 -0.01400
H 	H 	0.26770 0.87990 0.79020 0.05400
C 	C 	0.24427 0.87940 0.75966 0.00600
C 	C 	0.26454 0.88050 0.73980 -0.00500
C 	C 	0.25858 0.88190 0.71433 -0.00200
H 	H 	0.24120 0.88210 0.70940 0.04900
C 	C 	0.29045 0.88070 0.74590 -0.00400
H 	H 	0.29550 0.87910 0.76320 0.04900
C 	C 	0.30893 0.88300 0.72730 -0.09800
C 	C 	0.33680 0.88340 0.73370 0.37300
C 	C 	0.30220 0.88450 0.70260 0.05000
H 	H 	0.31490 0.88670 0.68990 0.04200
C 	C 	0.27705 0.88300 0.69569 -0.10400
C 	C 	0.27010 0.88360 0.66802 0.39100
C 	C 	0.30218 0.92453 0.85589 0.38800
C 	C 	0.32238 0.93866 0.84154 -0.09500
C 	C 	0.33891 0.92548 0.82584 0.04300
H 	H 	0.33860 0.90740 0.82520 0.04800
C 	C 	0.35589 0.93927 0.81099 -0.10100
C 	C 	0.37251 0.92571 0.79229 0.40100
C 	C 	0.35711 0.96546 0.81291 -0.00600
H 	H 	0.36920 0.97460 0.80310 0.05300
C 	C 	0.32334 0.96505 0.84303 -0.00900
H 	H 	0.31180 0.97380 0.85380 0.05300
C 	C 	0.34080 0.97850 0.82904 0.00200
C 	C 	0.34241 0.00731 0.83082 -0.00300
C 	C 	0.36021 0.02100 0.81695 -0.00300
H 	H 	0.37150 0.01220 0.80590 0.05000
C 	C 	0.36181 0.04744 0.81887 -0.09800
O 	O 	0.38830 0.08271 0.81034 -0.45700
C 	C 	0.34543 0.06039 0.83470 0.05000
H 	H 	0.34700 0.07830 0.83680 0.03700
C 	C 	0.32680 0.04711 0.84740 -0.10100
C 	C 	0.30720 0.06120 0.86200 0.38000
C 	C 	0.32530 0.02124 0.84530 -0.00000
H 	H 	0.31210 0.01250 0.85400 0.04900
C 	C 	0.29880 0.87050 0.93100 0.38500
C 	C 	0.31690 0.85330 0.94510 -0.09100
C 	C 	0.33220 0.83690 0.93122 0.03100
H 	H 	0.33320 0.83810 0.91320 0.04700
C 	C 	0.34600 0.81850 0.94433 -0.08500
C 	C 	0.36050 0.79850 0.93015 0.36300
C 	C 	0.34510 0.81790 0.97095 -0.01500
H 	H 	0.35470 0.80540 0.97970 0.05300
C 	C 	0.31620 0.85218 0.97182 -0.01500
H 	H 	0.30550 0.86350 0.98090 0.05300
C 	C 	0.33080 0.83501 0.98495 0.00600
C 	C 	0.33030 0.83356 0.01376 -0.00500
C 	C 	0.31577 0.85022 0.02835 -0.00400
H 	H 	0.30590 0.86290 0.02000 0.04900
C 	C 	0.31528 0.84884 0.05464 -0.09800
C 	C 	0.29780 0.86515 0.06979 0.38200
C 	C 	0.32961 0.83080 0.06715 0.04200
H 	H 	0.33000 0.83020 0.08520 0.04700
C 	C 	0.34361 0.81338 0.05246 -0.10000
C 	C 	0.35741 0.79214 0.06586 0.40600
C 	C 	0.34350 0.81468 0.02626 -0.00300
H 	H 	0.35270 0.80240 0.01670 0.05100
C 	C 	0.45696 0.93151 0.74630 0.42000
C 	C 	0.48134 0.94624 0.74720 -0.11400
C 	C 	0.50421 0.93314 0.74750 0.05300
H 	H 	0.50440 0.91510 0.74660 0.04700
C 	C 	0.52643 0.94632 0.74900 -0.10900
C 	C 	0.55069 0.93162 0.74920 0.38700
C 	C 	0.52662 0.97250 0.75000 -0.00200
H 	H 	0.54230 0.98130 0.75140 0.04900
C 	C 	0.50383 0.98598 0.74900 -0.00500
C 	C 	0.48118 0.97240 0.74840 0.00100
H 	H 	0.46540 0.98120 0.74890 0.04900
O 	O 	0.22082 0.86707 0.84533 -0.48600
C 	C 	0.38005 0.06176 0.80220 0.38700
Zn	Zn	0.78024 0.37890 0.37599 1.22100
Zn	Zn	0.72280 0.37437 0.38053 1.21600
Zn	Zn	0.75101 0.42790 0.37944 1.21900
Zn	Zn	0.75020 0.39437 0.42958 1.22000
Zn	Zn	0.88138 0.37313 0.26855 1.21800
Zn	Zn	0.88776 0.38376 0.20935 1.22000
Zn	Zn	0.90219 0.42855 0.24644 1.22000
Zn	Zn	0.93576 0.37974 0.24368 1.22000
O 	O 	0.75911 0.38302 0.33831 -0.46200
O 	O 	0.65710 0.37023 0.28185 -0.47000
O 	O 	0.66534 0.38467 0.24299 -0.41200
O 	O 	0.84427 0.37604 0.25524 -0.44400
O 	O 	0.85089 0.39310 0.21670 -0.45900
O 	O 	0.74729 0.38646 0.16219 -0.47800
O 	O 	0.78820 0.37960 0.15316 -0.47800
O 	O 	0.80560 0.40102 0.35969 -0.46000
O 	O 	0.78346 0.43710 0.36345 -0.48700
O 	O 	0.87308 0.40207 0.29365 -0.46300
O 	O 	0.88442 0.43939 0.27680 -0.48700
O 	O 	0.88525 0.55246 0.28107 -0.47200
O 	O 	0.81300 0.58122 0.37288 -0.45500
O 	O 	0.78477 0.55170 0.36070 -0.47700
O 	O 	0.80306 0.37479 0.40851 -0.45900
O 	O 	0.77931 0.37793 0.44362 -0.48900
O 	O 	0.86100 0.27657 0.44078 -0.48500
O 	O 	0.86974 0.30355 0.40919 -0.41000
O 	O 	0.80126 0.36438 0.59392 -0.47900
O 	O 	0.78118 0.37745 0.55812 -0.48700
O 	O 	0.86254 0.27334 0.55211 -0.48700
O 	O 	0.86267 0.29439 0.58841 -0.45800
O 	O 	0.95932 0.40836 0.24330 -0.50700
O 	O 	0.93654 0.44336 0.24781 -0.49600
O 	O 	0.04881 0.40782 0.24678 -0.49300
O 	O 	0.07135 0.44378 0.25155 -0.48500
O 	O 	0.90179 0.39243 0.24300 -0.92400
O 	O 	0.75088 0.39401 0.39306 -0.94800
C 	C 	0.73830 0.37580 0.33172 0.39200
C 	C 	0.73170 0.37670 0.30378 -0.08800
C 	C 	0.70620 0.37580 0.29671 0.03000
H 	H 	0.69330 0.37420 0.30930 0.05500
C 	C 	0.69974 0.37730 0.27135 -0.08400
C 	C 	0.67182 0.37780 0.26490 0.36900
C 	C 	0.71860 0.37890 0.25301 -0.01500
H 	H 	0.71400 0.37960 0.23560 0.05300
C 	C 	0.75042 0.37880 0.28524 -0.01400
H 	H 	0.76770 0.37990 0.29020 0.05400
C 	C 	0.74427 0.37940 0.25966 0.00600
C 	C 	0.76454 0.38050 0.23980 -0.00500
C 	C 	0.75858 0.38190 0.21433 -0.00200
H 	H 	0.74120 0.38210 0.20940 0.04900
C 	C 	0.79045 0.38070 0.24590 -0.00400
H 	H 	0.79550 0.37910 0.26320 0.04900
C 	C 	0.80893 0.38300 0.22730 -0.09800
C 	C 	0.83680 0.38340 0.23370 0.37300
C 	C 	0.80220 0.38450 0.20260 0.05000
H 	H 	0.81490 0.38670 0.18990 0.04200
C 	C 	0.77705 0.38300 0.19569 -0.10400
C 	C 	0.77010 0.38360 0.16802 0.39100
C 	C 	0.80218 0.42453 0.35589 0.38800
C 	C 	0.82238 0.43866 0.34154 -0.09500
C 	C 	0.83891 0.42548 0.32584 0.04300
H 	H 	0.83860 0.40740 0.32520 0.04800
C 	C 	0.85589 0.43927 0.31099 -0.10100
C 	C 	0.87251 0.42571 0.29229 0.40100
C 	C 	0.85711 0.46546 0.31291 -0.00600
H 	H 	0.86920 0.47460 0.30310 0.05300
C 	C 	0.82334 0.46505 0.34303 -0.00900
H 	H 	0.81180 0.47380 0.35380 0.05300
C 	C 	0.84080 0.47850 0.32904 0.00200
C 	C 	0.84241 0.50731 0.33082 -0.00300
C 	C 	0.86021 0.52100 0.31695 -0.00300
H 	H 	0.87150 0.51220 0.30590 0.05000
C 	C 	0.86181 0.54744 0.31887 -0.09800
O 	O 	0.88830 0.58271 0.31034 -0.45700
C 	C 	0.84543 0.56039 0.33470 0.05000
H 	H 	0.84700 0.57830 0.33680 0.03700
C 	C 	0.82680 0.54711 0.34740 -0.10100
C 	C 	0.80720 0.56120 0.36200 0.38000
C 	C 	0.82530 0.52124 0.34530 -0.00000
H 	H 	0.81210 0.51250 0.35400 0.04900
C 	C 	0.79880 0.37050 0.43100 0.38500
C 	C 	0.81690 0.35330 0.44510 -0.09100
C 	C 	0.83220 0.33690 0.43122 0.03100
H 	H 	0.83320 0.33810 0.41320 0.04700
C 	C 	0.84600 0.31850 0.44433 -0.08500
C 	C 	0.86050 0.29850 0.43015 0.36300
C 	C 	0.84510 0.31790 0.47095 -0.01500
H 	H 	0.85470 0.30540 0.47970 0.05300
C 	C 	0.81620 0.35218 0.47182 -0.01500
H 	H 	0.80550 0.36350 0.48090 0.05300
C 	C 	0.83080 0.33501 0.48495 0.00600
C 	C 	0.83030 0.33356 0.51376 -0.00500
C 	C 	0.81577 0.35022 0.52835 -0.00400
H 	H 	0.80590 0.36290 0.52000 0.04900
C 	C 	0.81528 0.34884 0.55464 -0.09800
C 	C 	0.79780 0.36515 0.56979 0.38200
C 	C 	0.82961 0.33080 0.56715 0.04200
H 	H 	0.83000 0.33020 0.58520 0.04700
C 	C 	0.84361 0.31338 0.55246 -0.10000
C 	C 	0.85741 0.29214 0.56586 0.40600
C 	C 	0.84350 0.31468 0.52626 -0.00300
H 	H 	0.85270 0.30240 0.51670 0.05100
C 	C 	0.95696 0.43151 0.24630 0.42000
C 	C 	0.98134 0.44624 0.24720 -0.11400
C 	C 	0.00421 0.43314 0.24750 0.05300
H 	H 	0.00440 0.41510 0.24660 0.04700
C 	C 	0.02643 0.44632 0.24900 -0.10900
C 	C 	0.05069 0.43162 0.24920 0.38700
C 	C 	0.02662 0.47250 0.25000 -0.00200
H 	H 	0.04230 0.48130 0.25140 0.04900
C 	C 	0.00383 0.48598 0.24900 -0.00500
C 	C 	0.98118 0.47240 0.24840 0.00100
H 	H 	0.96540 0.48120 0.24890 0.04900
O 	O 	0.72082 0.36707 0.34533 -0.48600
C 	C 	0.88005 0.56176 0.30220 0.38700
Zn	Zn	0.12401 0.78024 0.62110 1.22100
Zn	Zn	0.11947 0.72280 0.62563 1.21600
Zn	Zn	0.12056 0.75101 0.57210 1.21900
Zn	Zn	0.07042 0.75020 0.60563 1.22000
Zn	Zn	0.23145 0.88138 0.62687 1.21800
Zn	Zn	0.29065 0.88776 0.61624 1.22000
Zn	Zn	0.25356 0.90219 0.57145 1.22000
Zn	Zn	0.25632 0.93576 0.62026 1.22000
O 	O 	0.16169 0.75911 0.61698 -0.46200
O 	O 	0.21815 0.65710 0.62977 -0.47000
O 	O 	0.25701 0.66534 0.61533 -0.41200
O 	O 	0.24476 0.84427 0.62396 -0.44400
O 	O 	0.28330 0.85089 0.60690 -0.45900
O 	O 	0.33781 0.74729 0.61354 -0.47800
O 	O 	0.34684 0.78820 0.62040 -0.47800
O 	O 	0.14031 0.80560 0.59898 -0.46000
O 	O 	0.13655 0.78346 0.56290 -0.48700
O 	O 	0.20635 0.87308 0.59793 -0.46300
O 	O 	0.22320 0.88442 0.56061 -0.48700
O 	O 	0.21893 0.88525 0.44754 -0.47200
O 	O 	0.12712 0.81300 0.41878 -0.45500
O 	O 	0.13930 0.78477 0.44830 -0.47700
O 	O 	0.09149 0.80306 0.62521 -0.45900
O 	O 	0.05638 0.77931 0.62207 -0.48900
O 	O 	0.05922 0.86100 0.72343 -0.48500
O 	O 	0.09081 0.86974 0.69645 -0.41000
O 	O 	0.90608 0.80126 0.63562 -0.47900
O 	O 	0.94188 0.78118 0.62255 -0.48700
O 	O 	0.94789 0.86254 0.72666 -0.48700
O 	O 	0.91159 0.86267 0.70561 -0.45800
O 	O 	0.25670 0.95932 0.59164 -0.50700
O 	O 	0.25219 0.93654 0.55664 -0.49600
O 	O 	0.25322 0.04881 0.59218 -0.49300
O 	O 	0.24845 0.07135 0.55622 -0.48500
O 	O 	0.25700 0.90179 0.60757 -0.92400
O 	O 	0.10694 0.75088 0.60599 -0.94800
C 	C 	0.16828 0.73830 0.62420 0.39200
C 	C 	0.19622 0.73170 0.62330 -0.08800
C 	C 	0.20329 0.70620 0.62420 0.03000
H 	H 	0.19070 0.69330 0.62580 0.05500
C 	C 	0.22865 0.69974 0.62270 -0.08400
C 	C 	0.23510 0.67182 0.62220 0.36900
C 	C 	0.24699 0.71860 0.62110 -0.01500
H 	H 	0.26440 0.71400 0.62040 0.05300
C 	C 	0.21476 0.75042 0.62120 -0.01400
H 	H 	0.20980 0.76770 0.62010 0.05400
C 	C 	0.24034 0.74427 0.62060 0.00600
C 	C 	0.26020 0.76454 0.61950 -0.00500
C 	C 	0.28567 0.75858 0.61810 -0.00200
H 	H 	0.29060 0.74120 0.61790 0.04900
C 	C 	0.25410 0.79045 0.61930 -0.00400
H 	H 	0.23680 0.79550 0.62090 0.04900
C 	C 	0.27270 0.80893 0.61700 -0.09800
C 	C 	0.26630 0.83680 0.61660 0.37300
C 	C 	0.29740 0.80220 0.61550 0.05000
H 	H 	0.31010 0.81490 0.61330 0.04200
C 	C 	0.30431 0.77705 0.61700 -0.10400
C 	C 	0.33198 0.77010 0.61640 0.39100
C 	C 	0.14411 0.80218 0.57547 0.38800
C 	C 	0.15846 0.82238 0.56134 -0.09500
C 	C 	0.17416 0.83891 0.57452 0.04300
H 	H 	0.17480 0.83860 0.59260 0.04800
C 	C 	0.18901 0.85589 0.56073 -0.10100
C 	C 	0.20771 0.87251 0.57429 0.40100
C 	C 	0.18709 0.85711 0.53454 -0.00600
H 	H 	0.19690 0.86920 0.52540 0.05300
C 	C 	0.15697 0.82334 0.53495 -0.00900
H 	H 	0.14620 0.81180 0.52620 0.05300
C 	C 	0.17096 0.84080 0.52150 0.00200
C 	C 	0.16918 0.84241 0.49269 -0.00300
C 	C 	0.18305 0.86021 0.47900 -0.00300
H 	H 	0.19410 0.87150 0.48780 0.05000
C 	C 	0.18113 0.86181 0.45256 -0.09800
O 	O 	0.18966 0.88830 0.41729 -0.45700
C 	C 	0.16530 0.84543 0.43961 0.05000
H 	H 	0.16320 0.84700 0.42170 0.03700
C 	C 	0.15260 0.82680 0.45289 -0.10100
C 	C 	0.13800 0.80720 0.43880 0.38000
C 	C 	0.15470 0.82530 0.47876 -0.00000
H 	H 	0.14600 0.81210 0.48750 0.04900
C 	C 	0.06900 0.79880 0.62950 0.38500
C 	C 	0.05490 0.81690 0.64670 -0.09100
C 	C 	0.06878 0.83220 0.66310 0.03100
H 	H 	0.08680 0.83320 0.66190 0.04700
C 	C 	0.05567 0.84600 0.68150 -0.08500
C 	C 	0.06985 0.86050 0.70150 0.36300
C 	C 	0.02905 0.84510 0.68210 -0.01500
H 	H 	0.02030 0.85470 0.69460 0.05300
C 	C 	0.02818 0.81620 0.64782 -0.01500
H 	H 	0.01910 0.80550 0.63650 0.05300
C 	C 	0.01505 0.83080 0.66499 0.00600
C 	C 	0.98624 0.83030 0.66644 -0.00500
C 	C 	0.97165 0.81577 0.64978 -0.00400
H 	H 	0.98000 0.80590 0.63710 0.04900
C 	C 	0.94536 0.81528 0.65116 -0.09800
C 	C 	0.93021 0.79780 0.63485 0.38200
C 	C 	0.93285 0.82961 0.66920 0.04200
H 	H 	0.91480 0.83000 0.66980 0.04700
C 	C 	0.94754 0.84361 0.68662 -0.10000
C 	C 	0.93414 0.85741 0.70786 0.40600
C 	C 	0.97374 0.84350 0.68532 -0.00300
H 	H 	0.98330 0.85270 0.69760 0.05100
C 	C 	0.25370 0.95696 0.56849 0.42000
C 	C 	0.25280 0.98134 0.55376 -0.11400
C 	C 	0.25250 0.00421 0.56686 0.05300
H 	H 	0.25340 0.00440 0.58490 0.04700
C 	C 	0.25100 0.02643 0.55368 -0.10900
C 	C 	0.25080 0.05069 0.56838 0.38700
C 	C 	0.25000 0.02662 0.52750 -0.00200
H 	H 	0.24860 0.04230 0.51870 0.04900
C 	C 	0.25100 0.00383 0.51402 -0.00500
C 	C 	0.25160 0.98118 0.52760 0.00100
H 	H 	0.25110 0.96540 0.51880 0.04900
O 	O 	0.15467 0.72082 0.63293 -0.48600
C 	C 	0.19780 0.88005 0.43824 0.38700
Zn	Zn	0.62401 0.28024 0.12110 1.22100
Zn	Zn	0.61947 0.22280 0.12563 1.21600
Zn	Zn	0.62056 0.25101 0.07210 1.21900
Zn	Zn	0.57042 0.25020 0.10563 1.22000
Zn	Zn	0.73145 0.38138 0.12687 1.21800
Zn	Zn	0.79065 0.38776 0.11624 1.22000
Zn	Zn	0.75356 0.40219 0.07145 1.22000
Zn	Zn	0.75632 0.43576 0.12026 1.22000
O 	O 	0.66169 0.25911 0.11698 -0.46200
O 	O 	0.71815 0.15710 0.12977 -0.47000
O 	O 	0.75701 0.16534 0.11533 -0.41200
O 	O 	0.74476 0.34427 0.12396 -0.44400
O 	O 	0.78330 0.35089 0.10690 -0.45900
O 	O 	0.83781 0.24729 0.11354 -0.47800
O 	O 	0.84684 0.28820 0.12040 -0.47800
O 	O 	0.64031 0.30560 0.09898 -0.46000
O 	O 	0.63655 0.28346 0.06290 -0.48700
O 	O 	0.70635 0.37308 0.09793 -0.46300
O 	O 	0.72320 0.38442 0.06061 -0.48700
O 	O 	0.71893 0.38525 0.94754 -0.47200
O 	O 	0.62712 0.31300 0.91878 -0.45500
O 	O 	0.63930 0.28477 0.94830 -0.47700
O 	O 	0.59149 0.30306 0.12521 -0.45900
O 	O 	0.55638 0.27931 0.12207 -0.48900
O 	O 	0.55922 0.36100 0.22343 -0.48500
O 	O 	0.59081 0.36974 0.19645 -0.41000
O 	O 	0.40608 0.30126 0.13562 -0.47900
O 	O 	0.44188 0.28118 0.12255 -0.48700
O 	O 	0.44789 0.36254 0.22666 -0.48700
O 	O 	0.41159 0.36267 0.20561 -0.45800
O 	O 	0.75670 0.45932 0.09164 -0.50700
O 	O 	0.75219 0.43654 0.05664 -0.49600
O 	O 	0.75322 0.54881 0.09218 -0.49300
O 	O 	0.74845 0.57135 0.05622 -0.48500
O 	O 	0.75700 0.40179 0.10757 -0.92400
O 	O 	0.60694 0.25088 0.10599 -0.94800
C 	C 	0.66828 0.23830 0.12420 0.39200
C 	C 	0.69622 0.23170 0.12330 -0.08800
C 	C 	0.70329 0.20620 0.12420 0.03000
H 	H 	0.69070 0.19330 0.12580 0.05500
C 	C 	0.72865 0.19974 0.12270 -0.08400
C 	C 	0.73510 0.17182 0.12220 0.36900
C 	C 	0.74699 0.21860 0.12110 -0.01500
H 	H 	0.76440 0.21400 0.12040 0.05300
C 	C 	0.71476 0.25042 0.12120 -0.01400
H 	H 	0.70980 0.26770 0.12010 0.05400
C 	C 	0.74034 0.24427 0.12060 0.00600
C 	C 	0.76020 0.26454 0.11950 -0.00500
C 	C 	0.78567 0.25858 0.11810 -0.00200
H 	H 	0.79060 0.24120 0.11790 0.04900
C 	C 	0.75410 0.29045 0.11930 -0.00400
H 	H 	0.73680 0.29550 0.12090 0.04900
C 	C 	0.77270 0.30893 0.11700 -0.09800
C 	C 	0.76630 0.33680 0.11660 0.37300
C 	C 	0.79740 0.30220 0.11550 0.05000
H 	H 	0.81010 0.31490 0.11330 0.04200
C 	C 	0.80431 0.27705 0.11700 -0.10400
C 	C 	0.83198 0.27010 0.11640 0.39100
C 	C 	0.64411 0.30218 0.07547 0.38800
C 	C 	0.65846 0.32238 0.06134 -0.09500
C 	C 	0.67416 0.33891 0.07452 0.04300
H 	H 	0.67480 0.33860 0.09260 0.04800
C 	C 	0.68901 0.35589 0.06073 -0.10100
C 	C 	0.70771 0.37251 0.07429 0.40100
C 	C 	0.68709 0.35711 0.03454 -0.00600
H 	H 	0.69690 0.36920 0.02540 0.05300
C 	C 	0.65697 0.32334 0.03495 -0.00900
H 	H 	0.64620 0.31180 0.02620 0.05300
C 	C 	0.67096 0.34080 0.02150 0.00200
C 	C 	0.66918 0.34241 0.99269 -0.00300
C 	C 	0.68305 0.36021 0.97900 -0.00300
H 	H 	0.69410 0.37150 0.98780 0.05000
C 	C 	0.68113 0.36181 0.95256 -0.09800
O 	O 	0.68966 0.38830 0.91729 -0.45700
C 	C 	0.66530 0.34543 0.93961 0.05000
H 	H 	0.66320 0.34700 0.92170 0.03700
C 	C 	0.65260 0.32680 0.95289 -0.10100
C 	C 	0.63800 0.30720 0.93880 0.38000
C 	C 	0.65470 0.32530 0.97876 -0.00000
H 	H 	0.64600 0.31210 0.98750 0.04900
C 	C 	0.56900 0.29880 0.12950 0.38500
C 	C 	0.55490 0.31690 0.14670 -0.09100
C 	C 	0.56878 0.33220 0.16310 0.03100
H 	H 	0.58680 0.33320 0.16190 0.04700
C 	C 	0.55567 0.34600 0.18150 -0.08500
C 	C 	0.56985 0.36050 0.20150 0.36300
C 	C 	0.52905 0.34510 0.18210 -0.01500
H 	H 	0.52030 0.35470 0.19460 0.05300
C 	C 	0.52818 0.31620 0.14782 -0.01500
H 	H 	0.51910 0.30550 0.13650 0.05300
C 	C 	0.51505 0.33080 0.16499 0.00600
C 	C 	0.48624 0.33030 0.16644 -0.00500
C 	C 	0.47165 0.31577 0.14978 -0.00400
H 	H 	0.48000 0.30590 0.13710 0.04900
C 	C 	0.44536 0.31528 0.15116 -0.09800
C 	C 	0.43021 0.29780 0.13485 0.38200
C 	C 	0.43285 0.32961 0.16920 0.04200
H 	H 	0.41480 0.33000 0.16980 0.04700
C 	C 	0.44754 0.34361 0.18662 -0.10000
C 	C 	0.43414 0.35741 0.20786 0.40600
C 	C 	0.47374 0.34350 0.18532 -0.00300
H 	H 	0.48330 0.35270 0.19760 0.05100
C 	C 	0.75370 0.45696 0.06849 0.42000
C 	C 	0.75280 0.48134 0.05376 -0.11400
C 	C 	0.75250 0.50421 0.06686 0.05300
H 	H 	0.75340 0.50440 0.08490 0.04700
C 	C 	0.75100 0.52643 0.05368 -0.10900
C 	C 	0.75080 0.55069 0.06838 0.38700
C 	C 	0.75000 0.52662 0.02750 -0.00200
H 	H 	0.74860 0.54230 0.01870 0.04900
C 	C 	0.75100 0.50383 0.01402 -0.00500
C 	C 	0.75160 0.48118 0.02760 0.00100
H 	H 	0.75110 0.46540 0.01880 0.04900
O 	O 	0.65467 0.22082 0.13293 -0.48600
C 	C 	0.69780 0.38005 0.93824 0.38700
Zn	Zn	0.62401 0.71976 0.37890 1.22100
Zn	Zn	0.61947 0.77720 0.37437 1.21600
Zn	Zn	0.62056 0.74899 0.42790 1.21900
Zn	Zn	0.57042 0.74980 0.39437 1.22000
Zn	Zn	0.73145 0.61862 0.37313 1.21800
Zn	Zn	0.79065 0.61224 0.38376 1.22000
Zn	Zn	0.75356 0.59781 0.42855 1.22000
Zn	Zn	0.75632 0.56424 0.37974 1.22000
O 	O 	0.66169 0.74089 0.38302 -0.46200
O 	O 	0.71815 0.84290 0.37023 -0.47000
O 	O 	0.75701 0.83466 0.38467 -0.41200
O 	O 	0.74476 0.65573 0.37604 -0.44400
O 	O 	0.78330 0.64911 0.39310 -0.45900
O 	O 	0.83781 0.75271 0.38646 -0.47800
O 	O 	0.84684 0.71180 0.37960 -0.47800
O 	O 	0.64031 0.69440 0.40102 -0.46000
O 	O 	0.63655 0.71654 0.43710 -0.48700
O 	O 	0.70635 0.62692 0.40207 -0.46300
O 	O 	0.72320 0.61558 0.43939 -0.48700
O 	O 	0.71893 0.61475 0.55246 -0.47200
O 	O 	0.62712 0.68700 0.58122 -0.45500
O 	O 	0.63930 0.71523 0.55170 -0.47700
O 	O 	0.59149 0.69694 0.37479 -0.45900
O 	O 	0.55638 0.72069 0.37793 -0.48900
O 	O 	0.55922 0.63900 0.27657 -0.48500
O 	O 	0.59081 0.63026 0.30355 -0.41000
O 	O 	0.40608 0.69874 0.36438 -0.47900
O 	O 	0.44188 0.71882 0.37745 -0.48700
O 	O 	0.44789 0.63746 0.27334 -0.48700
O 	O 	0.41159 0.63733 0.29439 -0.45800
O 	O 	0.75670 0.54068 0.40836 -0.50700
O 	O 	0.75219 0.56346 0.44336 -0.49600
O 	O 	0.75322 0.45119 0.40782 -0.49300
O 	O 	0.74845 0.42865 0.44378 -0.48500
O 	O 	0.75700 0.59821 0.39243 -0.92400
O 	O 	0.60694 0.74912 0.39401 -0.94800
C 	C 	0.66828 0.76170 0.37580 0.39200
C 	C 	0.69622 0.76830 0.37670 -0.08800
C 	C 	0.70329 0.79380 0.37580 0.03000
H 	H 	0.69070 0.80670 0.37420 0.05500
C 	C 	0.72865 0.80026 0.37730 -0.08400
C 	C 	0.73510 0.82818 0.37780 0.36900
C 	C 	0.74699 0.78140 0.37890 -0.01500
H 	H 	0.76440 0.78600 0.37960 0.05300
C 	C 	0.71476 0.74958 0.37880 -0.01400
H 	H 	0.70980 0.73230 0.37990 0.05400
C 	C 	0.74034 0.75573 0.37940 0.00600
C 	C 	0.76020 0.73546 0.38050 -0.00500
C 	C 	0.78567 0.74142 0.38190 -0.00200
H 	H 	0.79060 0.75880 0.38210 0.04900
C 	C 	0.75410 0.70955 0.38070 -0.00400
H 	H 	0.73680 0.70450 0.37910 0.04900
C 	C 	0.77270 0.69107 0.38300 -0.09800
C 	C 	0.76630 0.66320 0.38340 0.37300
C 	C 	0.79740 0.69780 0.38450 0.05000
H 	H 	0.81010 0.68510 0.38670 0.04200
C 	C 	0.80431 0.72295 0.38300 -0.10400
C 	C 	0.83198 0.72990 0.38360 0.39100
C 	C 	0.64411 0.69782 0.42453 0.38800
C 	C 	0.65846 0.67762 0.43866 -0.09500
C 	C 	0.67416 0.66109 0.42548 0.04300
H 	H 	0.67480 0.66140 0.40740 0.04800
C 	C 	0.68901 0.64411 0.43927 -0.10100
C 	C 	0.70771 0.62749 0.42571 0.40100
C 	C 	0.68709 0.64289 0.46546 -0.00600
H 	H 	0.69690 0.63080 0.47460 0.05300
C 	C 	0.65697 0.67666 0.46505 -0.00900
H 	H 	0.64620 0.68820 0.47380 0.05300
C 	C 	0.67096 0.65920 0.47850 0.00200
C 	C 	0.66918 0.65759 0.50731 -0.00300
C 	C 	0.68305 0.63979 0.52100 -0.00300
H 	H 	0.69410 0.62850 0.51220 0.05000
C 	C 	0.68113 0.63819 0.54744 -0.09800
O 	O 	0.68966 0.61170 0.58271 -0.45700
C 	C 	0.66530 0.65457 0.56039 0.05000
H 	H 	0.66320 0.65300 0.57830 0.03700
C 	C 	0.65260 0.67320 0.54711 -0.10100
C 	C 	0.63800 0.69280 0.56120 0.38000
C 	C 	0.65470 0.67470 0.52124 -0.00000
H 	H 	0.64600 0.68790 0.51250 0.04900
C 	C 	0.56900 0.70120 0.37050 0.38500
C 	C 	0.55490 0.68310 0.35330 -0.09100
C 	C 	0.56878 0.66780 0.33690 0.03100
H 	H 	0.58680 0.66680 0.33810 0.04700
C 	C 	0.55567 0.65400 0.31850 -0.08500
C 	C 	0.56985 0.63950 0.29850 0.36300
C 	C 	0.52905 0.65490 0.31790 -0.01500
H 	H 	0.52030 0.64530 0.30540 0.05300
C 	C 	0.52818 0.68380 0.35218 -0.01500
H 	H 	0.51910 0.69450 0.36350 0.05300
C 	C 	0.51505 0.66920 0.33501 0.00600
C 	C 	0.48624 0.66970 0.33356 -0.00500
C 	C 	0.47165 0.68423 0.35022 -0.00400
H 	H 	0.48000 0.69410 0.36290 0.04900
C 	C 	0.44536 0.68472 0.34884 -0.09800
C 	C 	0.43021 0.70220 0.36515 0.38200
C 	C 	0.43285 0.67039 0.33080 0.04200
H 	H 	0.41480 0.67000 0.33020 0.04700
C 	C 	0.44754 0.65639 0.31338 -0.10000
C 	C 	0.43414 0.64259 0.29214 0.40600
C 	C 	0.47374 0.65650 0.31468 -0.00300
H 	H 	0.48330 0.64730 0.30240 0.05100
C 	C 	0.75370 0.54304 0.43151 0.42000
C 	C 	0.75280 0.51866 0.44624 -0.11400
C 	C 	0.75250 0.49579 0.43314 0.05300
H 	H 	0.75340 0.49560 0.41510 0.04700
C 	C 	0.75100 0.47357 0.44632 -0.10900
C 	C 	0.75080 0.44931 0.43162 0.38700
C 	C 	0.75000 0.47338 0.47250 -0.00200
H 	H 	0.74860 0.45770 0.48130 0.04900
C 	C 	0.75100 0.49617 0.48598 -0.00500
C 	C 	0.75160 0.51882 0.47240 0.00100
H 	H 	0.75110 0.53460 0.48120 0.04900
O 	O 	0.65467 0.77918 0.36707 -0.48600
C 	C 	0.69780 0.61995 0.56176 0.38700
Zn	Zn	0.12401 0.21976 0.87890 1.22100
Zn	Zn	0.11947 0.27720 0.87437 1.21600
Zn	Zn	0.12056 0.24899 0.92790 1.21900
Zn	Zn	0.07042 0.24980 0.89437 1.22000
Zn	Zn	0.23145 0.11862 0.87313 1.21800
Zn	Zn	0.29065 0.11224 0.88376 1.22000
Zn	Zn	0.25356 0.09781 0.92855 1.22000
Zn	Zn	0.25632 0.06424 0.87974 1.22000
O 	O 	0.16169 0.24089 0.88302 -0.46200
O 	O 	0.21815 0.34290 0.87023 -0.47000
O 	O 	0.25701 0.33466 0.88467 -0.41200
O 	O 	0.24476 0.15573 0.87604 -0.44400
O 	O 	0.28330 0.14911 0.89310 -0.45900
O 	O 	0.33781 0.25271 0.88646 -0.47800
O 	O 	0.34684 0.21180 0.87960 -0.47800
O 	O 	0.14031 0.19440 0.90102 -0.46000
O 	O 	0.13655 0.21654 0.93710 -0.48700
O 	O 	0.20635 0.12692 0.90207 -0.46300
O 	O 	0.22320 0.11558 0.93939 -0.48700
O 	O 	0.21893 0.11475 0.05246 -0.47200
O 	O 	0.12712 0.18700 0.08122 -0.45500
O 	O 	0.13930 0.21523 0.05170 -0.47700
O 	O 	0.09149 0.19694 0.87479 -0.45900
O 	O 	0.05638 0.22069 0.87793 -0.48900
O 	O 	0.05922 0.13900 0.77657 -0.48500
O 	O 	0.09081 0.13026 0.80355 -0.41000
O 	O 	0.90608 0.19874 0.86438 -0.47900
O 	O 	0.94188 0.21882 0.87745 -0.48700
O 	O 	0.94789 0.13746 0.77334 -0.48700
O 	O 	0.91159 0.13733 0.79439 -0.45800
O 	O 	0.25670 0.04068 0.90836 -0.50700
O 	O 	0.25219 0.06346 0.94336 -0.49600
O 	O 	0.25322 0.95119 0.90782 -0.49300
O 	O 	0.24845 0.92865 0.94378 -0.48500
O 	O 	0.25700 0.09821 0.89243 -0.92400
O 	O 	0.10694 0.24912 0.89401 -0.94800
C 	C 	0.16828 0.26170 0.87580 0.39200
C 	C 	0.19622 0.26830 0.87670 -0.08800
C 	C 	0.20329 0.29380 0.87580 0.03000
H 	H 	0.19070 0.30670 0.87420 0.05500
C 	C 	0.22865 0.30026 0.87730 -0.08400
C 	C 	0.23510 0.32818 0.87780 0.36900
C 	C 	0.24699 0.28140 0.87890 -0.01500
H 	H 	0.26440 0.28600 0.87960 0.05300
C 	C 	0.21476 0.24958 0.87880 -0.01400
H 	H 	0.20980 0.23230 0.87990 0.05400
C 	C 	0.24034 0.25573 0.87940 0.00600
C 	C 	0.26020 0.23546 0.88050 -0.00500
C 	C 	0.28567 0.24142 0.88190 -0.00200
H 	H 	0.29060 0.25880 0.88210 0.04900
C 	C 	0.25410 0.20955 0.88070 -0.00400
H 	H 	0.23680 0.20450 0.87910 0.04900
C 	C 	0.27270 0.19107 0.88300 -0.09800
C 	C 	0.26630 0.16320 0.88340 0.37300
C 	C 	0.29740 0.19780 0.88450 0.05000
H 	H 	0.31010 0.18510 0.88670 0.04200
C 	C 	0.30431 0.22295 0.88300 -0.10400
C 	C 	0.33198 0.22990 0.88360 0.39100
C 	C 	0.14411 0.19782 0.92453 0.38800
C 	C 	0.15846 0.17762 0.93866 -0.09500
C 	C 	0.17416 0.16109 0.92548 0.04300
H 	H 	0.17480 0.16140 0.90740 0.04800
C 	C 	0.18901 0.14411 0.93927 -0.10100
C 	C 	0.20771 0.12749 0.92571 0.40100
C 	C 	0.18709 0.14289 0.96546 -0.00600
H 	H 	0.19690 0.13080 0.97460 0.05300
C 	C 	0.15697 0.17666 0.96505 -0.00900
H 	H 	0.14620 0.18820 0.97380 0.05300
C 	C 	0.17096 0.15920 0.97850 0.00200
C 	C 	0.16918 0.15759 0.00731 -0.00300
C 	C 	0.18305 0.13979 0.02100 -0.00300
H 	H 	0.19410 0.12850 0.01220 0.05000
C 	C 	0.18113 0.13819 0.04744 -0.09800
O 	O 	0.18966 0.11170 0.08271 -0.45700
C 	C 	0.16530 0.15457 0.06039 0.05000
H 	H 	0.16320 0.15300 0.07830 0.03700
C 	C 	0.15260 0.17320 0.04711 -0.10100
C 	C 	0.13800 0.19280 0.06120 0.38000
C 	C 	0.15470 0.17470 0.02124 -0.00000
H 	H 	0.14600 0.18790 0.01250 0.04900
C 	C 	0.06900 0.20120 0.87050 0.38500
C 	C 	0.05490 0.18310 0.85330 -0.09100
C 	C 	0.06878 0.16780 0.83690 0.03100
H 	H 	0.08680 0.16680 0.83810 0.04700
C 	C 	0.05567 0.15400 0.81850 -0.08500
C 	C 	0.06985 0.13950 0.79850 0.36300
C 	C 	0.02905 0.15490 0.81790 -0.01500
H 	H 	0.02030 0.14530 0.80540 0.05300
C 	C 	0.02818 0.18380 0.85218 -0.01500
H 	H 	0.01910 0.19450 0.86350 0.05300
C 	C 	0.01505 0.16920 0.83501 0.00600
C 	C 	0.98624 0.16970 0.83356 -0.00500
C 	C 	0.97165 0.18423 0.85022 -0.00400
H 	H 	0.98000 0.19410 0.86290 0.04900
C 	C 	0.94536 0.18472 0.84884 -0.09800
C 	C 	0.93021 0.20220 0.86515 0.38200
C 	C 	0.93285 0.17039 0.83080 0.04200
H 	H 	0.91480 0.17000 0.83020 0.04700
C 	C 	0.94754 0.15639 0.81338 -0.10000
C 	C 	0.93414 0.14259 0.79214 0.40600
C 	C 	0.97374 0.15650 0.81468 -0.00300
H 	H 	0.98330 0.14730 0.80240 0.05100
C 	C 	0.25370 0.04304 0.93151 0.42000
C 	C 	0.25280 0.01866 0.94624 -0.11400
C 	C 	0.25250 0.99579 0.93314 0.05300
H 	H 	0.25340 0.99560 0.91510 0.04700
C 	C 	0.25100 0.97357 0.94632 -0.10900
C 	C 	0.25080 0.94931 0.93162 0.38700
C 	C 	0.25000 0.97338 0.97250 -0.00200
H 	H 	0.24860 0.95770 0.98130 0.04900
C 	C 	0.25100 0.99617 0.98598 -0.00500
C 	C 	0.25160 0.01882 0.97240 0.00100
H 	H 	0.25110 0.03460 0.98120 0.04900
O 	O 	0.15467 0.27918 0.86707 -0.48600
C 	C 	0.19780 0.11995 0.06176 0.38700
Zn	Zn	0.37599 0.21976 0.12110 1.22100
Zn	Zn	0.38053 0.27720 0.12563 1.21600
Zn	Zn	0.37944 0.24899 0.07210 1.21900
Zn	Zn	0.42958 0.24980 0.10563 1.22000
Zn	Zn	0.26855 0.11862 0.12687 1.21800
Zn	Zn	0.20935 0.11224 0.11624 1.22000
Zn	Zn	0.24644 0.09781 0.07145 1.22000
Zn	Zn	0.24368 0.06424 0.12026 1.22000
O 	O 	0.33831 0.24089 0.11698 -0.46200
O 	O 	0.28185 0.34290 0.12977 -0.47000
O 	O 	0.24299 0.33466 0.11533 -0.41200
O 	O 	0.25524 0.15573 0.12396 -0.44400
O 	O 	0.21670 0.14911 0.10690 -0.45900
O 	O 	0.16219 0.25271 0.11354 -0.47800
O 	O 	0.15316 0.21180 0.12040 -0.47800
O 	O 	0.35969 0.19440 0.09898 -0.46000
O 	O 	0.36345 0.21654 0.06290 -0.48700
O 	O 	0.29365 0.12692 0.09793 -0.46300
O 	O 	0.27680 0.11558 0.06061 -0.48700
O 	O 	0.28107 0.11475 0.94754 -0.47200
O 	O 	0.37288 0.18700 0.91878 -0.45500
O 	O 	0.36070 0.21523 0.94830 -0.47700
O 	O 	0.40851 0.19694 0.12521 -0.45900
O 	O 	0.44362 0.22069 0.12207 -0.48900
O 	O 	0.44078 0.13900 0.22343 -0.48500
O 	O 	0.40919 0.13026 0.19645 -0.41000
O 	O 	0.59392 0.19874 0.13562 -0.47900
O 	O 	0.55812 0.21882 0.12255 -0.48700
O 	O 	0.55211 0.13746 0.22666 -0.48700
O 	O 	0.58841 0.13733 0.20561 -0.45800
O 	O 	0.24330 0.04068 0.09164 -0.50700
O 	O 	0.24781 0.06346 0.05664 -0.49600
O 	O 	0.24678 0.95119 0.09218 -0.49300
O 	O 	0.25155 0.92865 0.05622 -0.48500
O 	O 	0.24300 0.09821 0.10757 -0.92400
O 	O 	0.39306 0.24912 0.10599 -0.94800
C 	C 	0.33172 0.26170 0.12420 0.39200
C 	C 	0.30378 0.26830 0.12330 -0.08800
C 	C 	0.29671 0.29380 0.12420 0.03000
H 	H 	0.30930 0.30670 0.12580 0.05500
C 	C 	0.27135 0.30026 0.12270 -0.08400
C 	C 	0.26490 0.32818 0.12220 0.36900
C 	C 	0.25301 0.28140 0.12110 -0.01500
H 	H 	0.23560 0.28600 0.12040 0.05300
C 	C 	0.28524 0.24958 0.12120 -0.01400
H 	H 	0.29020 0.23230 0.12010 0.05400
C 	C 	0.25966 0.25573 0.12060 0.00600
C 	C 	0.23980 0.23546 0.11950 -0.00500
C 	C 	0.21433 0.24142 0.11810 -0.00200
H 	H 	0.20940 0.25880 0.11790 0.04900
C 	C 	0.24590 0.20955 0.11930 -0.00400
H 	H 	0.26320 0.20450 0.12090 0.04900
C 	C 	0.22730 0.19107 0.11700 -0.09800
C 	C 	0.23370 0.16320 0.11660 0.37300
C 	C 	0.20260 0.19780 0.11550 0.05000
H 	H 	0.18990 0.18510 0.11330 0.04200
C 	C 	0.19569 0.22295 0.11700 -0.10400
C 	C 	0.16802 0.22990 0.11640 0.39100
C 	C 	0.35589 0.19782 0.07547 0.38800
C 	C 	0.34154 0.17762 0.06134 -0.09500
C 	C 	0.32584 0.16109 0.07452 0.04300
H 	H 	0.32520 0.16140 0.09260 0.04800
C 	C 	0.31099 0.14411 0.06073 -0.10100
C 	C 	0.29229 0.12749 0.07429 0.40100
C 	C 	0.31291 0.14289 0.03454 -0.00600
H 	H 	0.30310 0.13080 0.02540 0.05300
C 	C 	0.34303 0.17666 0.03495 -0.00900
H 	H 	0.35380 0.18820 0.02620 0.05300
C 	C 	0.32904 0.15920 0.02150 0.00200
C 	C 	0.33082 0.15759 0.99269 -0.00300
C 	C 	0.31695 0.13979 0.97900 -0.00300
H 	H 	0.30590 0.12850 0.98780 0.05000
C 	C 	0.31887 0.13819 0.95256 -0.09800
O 	O 	0.31034 0.11170 0.91729 -0.45700
C 	C 	0.33470 0.15457 0.93961 0.05000
H 	H 	0.33680 0.15300 0.92170 0.03700
C 	C 	0.34740 0.17320 0.95289 -0.10100
C 	C 	0.36200 0.19280 0.93880 0.38000
C 	C 	0.34530 0.17470 0.97876 -0.00000
H 	H 	0.35400 0.18790 0.98750 0.04900
C 	C 	0.43100 0.20120 0.12950 0.38500
C 	C 	0.44510 0.18310 0.14670 -0.09100
C 	C 	0.43122 0.16780 0.16310 0.03100
H 	H 	0.41320 0.16680 0.16190 0.04700
C 	C 	0.44433 0.15400 0.18150 -0.08500
C 	C 	0.43015 0.13950 0.20150 0.36300
C 	C 	0.47095 0.15490 0.18210 -0.01500
H 	H 	0.47970 0.14530 0.19460 0.05300
C 	C 	0.47182 0.18380 0.14782 -0.01500
H 	H 	0.48090 0.19450 0.13650 0.05300
C 	C 	0.48495 0.16920 0.16499 0.00600
C 	C 	0.51376 0.16970 0.16644 -0.00500
C 	C 	0.52835 0.18423 0.14978 -0.00400
H 	H 	0.52000 0.19410 0.13710 0.04900
C 	C 	0.55464 0.18472 0.15116 -0.09800
C 	C 	0.56979 0.20220 0.13485 0.38200
C 	C 	0.56715 0.17039 0.16920 0.04200
H 	H 	0.58520 0.17000 0.16980 0.04700
C 	C 	0.55246 0.15639 0.18662 -0.10000
C 	C 	0.56586 0.14259 0.20786 0.40600
C 	C 	0.52626 0.15650 0.18532 -0.00300
H 	H 	0.51670 0.14730 0.19760 0.05100
C 	C 	0.24630 0.04304 0.06849 0.42000
C 	C 	0.24720 0.01866 0.05376 -0.11400
C 	C 	0.24750 0.99579 0.06686 0.05300
H 	H 	0.24660 0.99560 0.08490 0.04700
C 	C 	0.24900 0.97357 0.05368 -0.10900
C 	C 	0.24920 0.94931 0.06838 0.38700
C 	C 	0.25000 0.97338 0.02750 -0.00200
H 	H 	0.25140 0.95770 0.01870 0.04900
C 	C 	0.24900 0.99617 0.01402 -0.00500
C 	C 	0.24840 0.01882 0.02760 0.00100
H 	H 	0.24890 0.03460 0.01880 0.04900
O 	O 	0.34533 0.27918 0.13293 -0.48600
C 	C 	0.30220 0.11995 0.93824 0.38700
Zn	Zn	0.87599 0.71976 0.62110 1.22100
Zn	Zn	0.88053 0.77720 0.62563 1.21600
Zn	Zn	0.87944 0.74899 0.57210 1.21900
Zn	Zn	0.92958 0.74980 0.60563 1.22000
Zn	Zn	0.76855 0.61862 0.62687 1.21800
Zn	Zn	0.70935 0.61224 0.61624 1.22000
Zn	Zn	0.74644 0.59781 0.57145 1.22000
Zn	Zn	0.74368 0.56424 0.62026 1.22000
O 	O 	0.83831 0.74089 0.61698 -0.46200
O 	O 	0.78185 0.84290 0.62977 -0.47000
O 	O 	0.74299 0.83466 0.61533 -0.41200
O 	O 	0.75524 0.65573 0.62396 -0.44400
O 	O 	0.71670 0.64911 0.60690 -0.45900
O 	O 	0.66219 0.75271 0.61354 -0.47800
O 	O 	0.65316 0.71180 0.62040 -0.47800
O 	O 	0.85969 0.69440 0.59898 -0.46000
O 	O 	0.86345 0.71654 0.56290 -0.48700
O 	O 	0.79365 0.62692 0.59793 -0.46300
O 	O 	0.77680 0.61558 0.56061 -0.48700
O 	O 	0.78107 0.61475 0.44754 -0.47200
O 	O 	0.87288 0.68700 0.41878 -0.45500
O 	O 	0.86070 0.71523 0.44830 -0.47700
O 	O 	0.90851 0.69694 0.62521 -0.45900
O 	O 	0.94362 0.72069 0.62207 -0.48900
O 	O 	0.94078 0.63900 0.72343 -0.48500
O 	O 	0.90919 0.63026 0.69645 -0.41000
O 	O 	0.09392 0.69874 0.63562 -0.47900
O 	O 	0.05812 0.71882 0.62255 -0.48700
O 	O 	0.05211 0.63746 0.72666 -0.48700
O 	O 	0.08841 0.63733 0.70561 -0.45800
O 	O 	0.74330 0.54068 0.59164 -0.50700
O 	O 	0.74781 0.56346 0.55664 -0.49600
O 	O 	0.74678 0.45119 0.59218 -0.49300
O 	O 	0.75155 0.42865 0.55622 -0.48500
O 	O 	0.74300 0.59821 0.60757 -0.92400
O 	O 	0.89306 0.74912 0.60599 -0.94800
C 	C 	0.83172 0.76170 0.62420 0.39200
C 	C 	0.80378 0.76830 0.62330 -0.08800
C 	C 	0.79671 0.79380 0.62420 0.03000
H 	H 	0.80930 0.80670 0.62580 0.05500
C 	C 	0.77135 0.80026 0.62270 -0.08400
C 	C 	0.76490 0.82818 0.62220 0.36900
C 	C 	0.75301 0.78140 0.62110 -0.01500
H 	H 	0.73560 0.78600 0.62040 0.05300
C 	C 	0.78524 0.74958 0.62120 -0.01400
H 	H 	0.79020 0.73230 0.62010 0.05400
C 	C 	0.75966 0.75573 0.62060 0.00600
C 	C 	0.73980 0.73546 0.61950 -0.00500
C 	C 	0.71433 0.74142 0.61810 -0.00200
H 	H 	0.70940 0.75880 0.61790 0.04900
C 	C 	0.74590 0.70955 0.61930 -0.00400
H 	H 	0.76320 0.70450 0.62090 0.04900
C 	C 	0.72730 0.69107 0.61700 -0.09800
C 	C 	0.73370 0.66320 0.61660 0.37300
C 	C 	0.70260 0.69780 0.61550 0.05000
H 	H 	0.68990 0.68510 0.61330 0.04200
C 	C 	0.69569 0.72295 0.61700 -0.10400
C 	C 	0.66802 0.72990 0.61640 0.39100
C 	C 	0.85589 0.69782 0.57547 0.38800
C 	C 	0.84154 0.67762 0.56134 -0.09500
C 	C 	0.82584 0.66109 0.57452 0.04300
H 	H 	0.82520 0.66140 0.59260 0.04800
C 	C 	0.81099 0.64411 0.56073 -0.10100
C 	C 	0.79229 0.62749 0.57429 0.40100
C 	C 	0.81291 0.64289 0.53454 -0.00600
H 	H 	0.80310 0.63080 0.52540 0.05300
C 	C 	0.84303 0.67666 0.53495 -0.00900
H 	H 	0.85380 0.68820 0.52620 0.05300
C 	C 	0.82904 0.65920 0.52150 0.00200
C 	C 	0.83082 0.65759 0.49269 -0.00300
C 	C 	0.81695 0.63979 0.47900 -0.00300
H 	H 	0.80590 0.62850 0.48780 0.05000
C 	C 	0.81887 0.63819 0.45256 -0.09800
O 	O 	0.81034 0.61170 0.41729 -0.45700
C 	C 	0.83470 0.65457 0.43961 0.05000
H 	H 	0.83680 0.65300 0.42170 0.03700
C 	C 	0.84740 0.67320 0.45289 -0.10100
C 	C 	0.86200 0.69280 0.43880 0.38000
C 	C 	0.84530 0.67470 0.47876 -0.00000
H 	H 	0.85400 0.68790 0.48750 0.04900
C 	C 	0.93100 0.70120 0.62950 0.38500
C 	C 	0.94510 0.68310 0.64670 -0.09100
C 	C 	0.93122 0.66780 0.66310 0.03100
H 	H 	0.91320 0.66680 0.66190 0.04700
C 	C 	0.94433 0.65400 0.68150 -0.08500
C 	C 	0.93015 0.63950 0.70150 0.36300
C 	C 	0.97095 0.65490 0.68210 -0.01500
H 	H 	0.97970 0.64530 0.69460 0.05300
C 	C 	0.97182 0.68380 0.64782 -0.01500
H 	H 	0.98090 0.69450 0.63650 0.05300
C 	C 	0.98495 0.66920 0.66499 0.00600
C 	C 	0.01376 0.66970 0.66644 -0.00500
C 	C 	0.02835 0.68423 0.64978 -0.00400
H 	H 	0.02000 0.69410 0.63710 0.04900
C 	C 	0.05464 0.68472 0.65116 -0.09800
C 	C 	0.06979 0.70220 0.63485 0.38200
C 	C 	0.06715 0.67039 0.66920 0.04200
H 	H 	0.08520 0.67000 0.66980 0.04700
C 	C 	0.05246 0.65639 0.68662 -0.10000
C 	C 	0.06586 0.64259 0.70786 0.40600
C 	C 	0.02626 0.65650 0.68532 -0.00300
H 	H 	0.01670 0.64730 0.69760 0.05100
C 	C 	0.74630 0.54304 0.56849 0.42000
C 	C 	0.74720 0.51866 0.55376 -0.11400
C 	C 	0.74750 0.49579 0.56686 0.05300
H 	H 	0.74660 0.49560 0.58490 0.04700
C 	C 	0.74900 0.47357 0.55368 -0.10900
C 	C 	0.74920 0.44931 0.56838 0.38700
C 	C 	0.75000 0.47338 0.52750 -0.00200
H 	H 	0.75140 0.45770 0.51870 0.04900
C 	C 	0.74900 0.49617 0.51402 -0.00500
C 	C 	0.74840 0.51882 0.52760 0.00100
H 	H 	0.74890 0.53460 0.51880 0.04900
O 	O 	0.84533 0.77918 0.63293 -0.48600
C 	C 	0.80220 0.61995 0.43824 0.38700
Zn	Zn	0.87599 0.28024 0.87890 1.22100
Zn	Zn	0.88053 0.22280 0.87437 1.21600
Zn	Zn	0.87944 0.25101 0.92790 1.21900
Zn	Zn	0.92958 0.25020 0.89437 1.22000
Zn	Zn	0.76855 0.38138 0.87313 1.21800
Zn	Zn	0.70935 0.38776 0.88376 1.22000
Zn	Zn	0.74644 0.40219 0.92855 1.22000
Zn	Zn	0.74368 0.43576 0.87974 1.22000
O 	O 	0.83831 0.25911 0.88302 -0.46200
O 	O 	0.78185 0.15710 0.87023 -0.47000
O 	O 	0.74299 0.16534 0.88467 -0.41200
O 	O 	0.75524 0.34427 0.87604 -0.44400
O 	O 	0.71670 0.35089 0.89310 -0.45900
O 	O 	0.66219 0.24729 0.88646 -0.47800
O 	O 	0.65316 0.28820 0.87960 -0.47800
O 	O 	0.85969 0.30560 0.90102 -0.46000
O 	O 	0.86345 0.28346 0.93710 -0.48700
O 	O 	0.79365 0.37308 0.90207 -0.46300
O 	O 	0.77680 0.38442 0.93939 -0.48700
O 	O 	0.78107 0.38525 0.05246 -0.47200
O 	O 	0.87288 0.31300 0.08122 -0.45500
O 	O 	0.86070 0.28477 0.05170 -0.47700
O 	O 	0.90851 0.30306 0.87479 -0.45900
O 	O 	0.94362 0.27931 0.87793 -0.48900
O 	O 	0.94078 0.36100 0.77657 -0.48500
O 	O 	0.90919 0.36974 0.80355 -0.41000
O 	O 	0.09392 0.30126 0.86438 -0.47900
O 	O 	0.05812 0.28118 0.87745 -0.48700
O 	O 	0.05211 0.36254 0.77334 -0.48700
O 	O 	0.08841 0.36267 0.79439 -0.45800
O 	O 	0.74330 0.45932 0.90836 -0.50700
O 	O 	0.74781 0.43654 0.94336 -0.49600
O 	O 	0.74678 0.54881 0.90782 -0.49300
O 	O 	0.75155 0.57135 0.94378 -0.48500
O 	O 	0.74300 0.40179 0.89243 -0.92400
O 	O 	0.89306 0.25088 0.89401 -0.94800
C 	C 	0.83172 0.23830 0.87580 0.39200
C 	C 	0.80378 0.23170 0.87670 -0.08800
C 	C 	0.79671 0.20620 0.87580 0.03000
H 	H 	0.80930 0.19330 0.87420 0.05500
C 	C 	0.77135 0.19974 0.87730 -0.08400
C 	C 	0.76490 0.17182 0.87780 0.36900
C 	C 	0.75301 0.21860 0.87890 -0.01500
H 	H 	0.73560 0.21400 0.87960 0.05300
C 	C 	0.78524 0.25042 0.87880 -0.01400
H 	H 	0.79020 0.26770 0.87990 0.05400
C 	C 	0.75966 0.24427 0.87940 0.00600
C 	C 	0.73980 0.26454 0.88050 -0.00500
C 	C 	0.71433 0.25858 0.88190 -0.00200
H 	H 	0.70940 0.24120 0.88210 0.04900
C 	C 	0.74590 0.29045 0.88070 -0.00400
H 	H 	0.76320 0.29550 0.87910 0.04900
C 	C 	0.72730 0.30893 0.88300 -0.09800
C 	C 	0.73370 0.33680 0.88340 0.37300
C 	C 	0.70260 0.30220 0.88450 0.05000
H 	H 	0.68990 0.31490 0.88670 0.04200
C 	C 	0.69569 0.27705 0.88300 -0.10400
C 	C 	0.66802 0.27010 0.88360 0.39100
C 	C 	0.85589 0.30218 0.92453 0.38800
C 	C 	0.84154 0.32238 0.93866 -0.09500
C 	C 	0.82584 0.33891 0.92548 0.04300
H 	H 	0.82520 0.33860 0.90740 0.04800
C 	C 	0.81099 0.35589 0.93927 -0.10100
C 	C 	0.79229 0.37251 0.92571 0.40100
C 	C 	0.81291 0.35711 0.96546 -0.00600
H 	H 	0.80310 0.36920 0.97460 0.05300
C 	C 	0.84303 0.32334 0.96505 -0.00900
H 	H 	0.85380 0.31180 0.97380 0.05300
C 	C 	0.82904 0.34080 0.97850 0.00200
C 	C 	0.83082 0.34241 0.00731 -0.00300
C 	C 	0.81695 0.36021 0.02100 -0.00300
H 	H 	0.80590 0.37150 0.01220 0.05000
C 	C 	0.81887 0.36181 0.04744 -0.09800
O 	O 	0.81034 0.38830 0.08271 -0.45700
C 	C 	0.83470 0.34543 0.06039 0.05000
H 	H 	0.83680 0.34700 0.07830 0.03700
C 	C 	0.84740 0.32680 0.04711 -0.10100
C 	C 	0.86200 0.30720 0.06120 0.38000
C 	C 	0.84530 0.32530 0.02124 -0.00000
H 	H 	0.85400 0.31210 0.01250 0.04900
C 	C 	0.93100 0.29880 0.87050 0.38500
C 	C 	0.94510 0.31690 0.85330 -0.09100
C 	C 	0.93122 0.33220 0.83690 0.03100
H 	H 	0.91320 0.33320 0.83810 0.04700
C 	C 	0.94433 0.34600 0.81850 -0.08500
C 	C 	0.93015 0.36050 0.79850 0.36300
C 	C 	0.97095 0.34510 0.81790 -0.01500
H 	H 	0.97970 0.35470 0.80540 0.05300
C 	C 	0.97182 0.31620 0.85218 -0.01500
H 	H 	0.98090 0.30550 0.86350 0.05300
C 	C 	0.98495 0.33080 0.83501 0.00600
C 	C 	0.01376 0.33030 0.83356 -0.00500
C 	C 	0.02835 0.31577 0.85022 -0.00400
H 	H 	0.02000 0.30590 0.86290 0.04900
C 	C 	0.05464 0.31528 0.84884 -0.09800
C 	C 	0.06979 0.29780 0.86515 0.38200
C 	C 	0.06715 0.32961 0.83080 0.04200
H 	H 	0.08520 0.33000 0.83020 0.04700
C 	C 	0.05246 0.34361 0.81338 -0.10000
C 	C 	0.06586 0.35741 0.79214 0.40600
C 	C 	0.02626 0.34350 0.81468 -0.00300
H 	H 	0.01670 0.35270 0.80240 0.05100
C 	C 	0.74630 0.45696 0.93151 0.42000
C 	C 	0.74720 0.48134 0.94624 -0.11400
C 	C 	0.74750 0.50421 0.93314 0.05300
H 	H 	0.74660 0.50440 0.91510 0.04700
C 	C 	0.74900 0.52643 0.94632 -0.10900
C 	C 	0.74920 0.55069 0.93162 0.38700
C 	C 	0.75000 0.52662 0.97250 -0.00200
H 	H 	0.75140 0.54230 0.98130 0.04900
C 	C 	0.74900 0.50383 0.98598 -0.00500
C 	C 	0.74840 0.48118 0.97240 0.00100
H 	H 	0.74890 0.46540 0.98120 0.04900
O 	O 	0.84533 0.22082 0.86707 -0.48600
C 	C 	0.80220 0.38005 0.06176 0.38700
Zn	Zn	0.37599 0.78024 0.37890 1.22100
Zn	Zn	0.38053 0.72280 0.37437 1.21600
Zn	Zn	0.37944 0.75101 0.42790 1.21900
Zn	Zn	0.42958 0.75020 0.39437 1.22000
Zn	Zn	0.26855 0.88138 0.37313 1.21800
Zn	Zn	0.20935 0.88776 0.38376 1.22000
Zn	Zn	0.24644 0.90219 0.42855 1.22000
Zn	Zn	0.24368 0.93576 0.37974 1.22000
O 	O 	0.33831 0.75911 0.38302 -0.46200
O 	O 	0.28185 0.65710 0.37023 -0.47000
O 	O 	0.24299 0.66534 0.38467 -0.41200
O 	O 	0.25524 0.84427 0.37604 -0.44400
O 	O 	0.21670 0.85089 0.39310 -0.45900
O 	O 	0.16219 0.74729 0.38646 -0.47800
O 	O 	0.15316 0.78820 0.37960 -0.47800
O 	O 	0.35969 0.80560 0.40102 -0.46000
O 	O 	0.36345 0.78346 0.43710 -0.48700
O 	O 	0.29365 0.87308 0.40207 -0.46300
O 	O 	0.27680 0.88442 0.43939 -0.48700
O 	O 	0.28107 0.88525 0.55246 -0.47200
O 	O 	0.37288 0.81300 0.58122 -0.45500
O 	O 	0.36070 0.78477 0.55170 -0.47700
O 	O 	0.40851 0.80306 0.37479 -0.45900
O 	O 	0.44362 0.77931 0.37793 -0.48900
O 	O 	0.44078 0.86100 0.27657 -0.48500
O 	O 	0.40919 0.86974 0.30355 -0.41000
O 	O 	0.59392 0.80126 0.36438 -0.47900
O 	O 	0.55812 0.78118 0.37745 -0.48700
O 	O 	0.55211 0.86254 0.27334 -0.48700
O 	O 	0.58841 0.86267 0.29439 -0.45800
O 	O 	0.24330 0.95932 0.40836 -0.50700
O 	O 	0.24781 0.93654 0.44336 -0.49600
O 	O 	0.24678 0.04881 0.40782 -0.49300
O 	O 	0.25155 0.07135 0.44378 -0.48500
O 	O 	0.24300 0.90179 0.39243 -0.92400
O 	O 	0.39306 0.75088 0.39401 -0.94800
C 	C 	0.33172 0.73830 0.37580 0.39200
C 	C 	0.30378 0.73170 0.37670 -0.08800
C 	C 	0.29671 0.70620 0.37580 0.03000
H 	H 	0.30930 0.69330 0.37420 0.05500
C 	C 	0.27135 0.69974 0.37730 -0.08400
C 	C 	0.26490 0.67182 0.37780 0.36900
C 	C 	0.25301 0.71860 0.37890 -0.01500
H 	H 	0.23560 0.71400 0.37960 0.05300
C 	C 	0.28524 0.75042 0.37880 -0.01400
H 	H 	0.29020 0.76770 0.37990 0.05400
C 	C 	0.25966 0.74427 0.37940 0.00600
C 	C 	0.23980 0.76454 0.38050 -0.00500
C 	C 	0.21433 0.75858 0.38190 -0.00200
H 	H 	0.20940 0.74120 0.38210 0.04900
C 	C 	0.24590 0.79045 0.38070 -0.00400
H 	H 	0.26320 0.79550 0.37910 0.04900
C 	C 	0.22730 0.80893 0.38300 -0.09800
C 	C 	0.23370 0.83680 0.38340 0.37300
C 	C 	0.20260 0.80220 0.38450 0.05000
H 	H 	0.18990 0.81490 0.38670 0.04200
C 	C 	0.19569 0.77705 0.38300 -0.10400
C 	C 	0.16802 0.77010 0.38360 0.39100
C 	C 	0.35589 0.80218 0.42453 0.38800
C 	C 	0.34154 0.82238 0.43866 -0.09500
C 	C 	0.32584 0.83891 0.42548 0.04300
H 	H 	0.32520 0.83860 0.40740 0.04800
C 	C 	0.31099 0.85589 0.43927 -0.10100
C 	C 	0.29229 0.87251 0.42571 0.40100
C 	C 	0.31291 0.85711 0.46546 -0.00600
H 	H 	0.30310 0.86920 0.47460 0.05300
C 	C 	0.34303 0.82334 0.46505 -0.00900
H 	H 	0.35380 0.81180 0.47380 0.05300
C 	C 	0.32904 0.84080 0.47850 0.00200
C 	C 	0.33082 0.84241 0.50731 -0.00300
C 	C 	0.31695 0.86021 0.52100 -0.00300
H 	H 	0.30590 0.87150 0.51220 0.05000
C 	C 	0.31887 0.86181 0.54744 -0.09800
O 	O 	0.31034 0.88830 0.58271 -0.45700
C 	C 	0.33470 0.84543 0.56039 0.05000
H 	H 	0.33680 0.84700 0.57830 0.03700
C 	C 	0.34740 0.82680 0.54711 -0.10100
C 	C 	0.36200 0.80720 0.56120 0.38000
C 	C 	0.34530 0.82530 0.52124 -0.00000
H 	H 	0.35400 0.81210 0.51250 0.04900
C 	C 	0.43100 0.79880 0.37050 0.38500
C 	C 	0.44510 0.81690 0.35330 -0.09100
C 	C 	0.43122 0.83220 0.33690 0.03100
H 	H 	0.41320 0.83320 0.33810 0.04700
C 	C 	0.44433 0.84600 0.31850 -0.08500
C 	C 	0.43015 0.86050 0.29850 0.36300
C 	C 	0.47095 0.84510 0.31790 -0.01500
H 	H 	0.47970 0.85470 0.30540 0.05300
C 	C 	0.47182 0.81620 0.35218 -0.01500
H 	H 	0.48090 0.80550 0.36350 0.05300
C 	C 	0.48495 0.83080 0.33501 0.00600
C 	C 	0.51376 0.83030 0.33356 -0.00500
C 	C 	0.52835 0.81577 0.35022 -0.00400
H 	H 	0.52000 0.80590 0.36290 0.04900
C 	C 	0.55464 0.81528 0.34884 -0.09800
C 	C 	0.56979 0.79780 0.36515 0.38200
C 	C 	0.56715 0.82961 0.33080 0.04200
H 	H 	0.58520 0.83000 0.33020 0.04700
C 	C 	0.55246 0.84361 0.31338 -0.10000
C 	C 	0.56586 0.85741 0.29214 0.40600
C 	C 	0.52626 0.84350 0.31468 -0.00300
H 	H 	0.51670 0.85270 0.30240 0.05100
C 	C 	0.24630 0.95696 0.43151 0.42000
C 	C 	0.24720 0.98134 0.44624 -0.11400
C 	C 	0.24750 0.00421 0.43314 0.05300
H 	H 	0.24660 0.00440 0.41510 0.04700
C 	C 	0.24900 0.02643 0.44632 -0.10900
C 	C 	0.24920 0.05069 0.43162 0.38700
C 	C 	0.25000 0.02662 0.47250 -0.00200
H 	H 	0.25140 0.04230 0.48130 0.04900
C 	C 	0.24900 0.00383 0.48598 -0.00500
C 	C 	0.24840 0.98118 0.47240 0.00100
H 	H 	0.24890 0.96540 0.48120 0.04900
O 	O 	0.34533 0.72082 0.36707 -0.48600
C 	C 	0.30220 0.88005 0.56176 0.38700
Zn	Zn	0.62110 0.12401 0.78024 1.22100
Zn	Zn	0.62563 0.11947 0.72280 1.21600
Zn	Zn	0.57210 0.12056 0.75101 1.21900
Zn	Zn	0.60563 0.07042 0.75020 1.22000
Zn	Zn	0.62687 0.23145 0.88138 1.21800
Zn	Zn	0.61624 0.29065 0.88776 1.22000
Zn	Zn	0.57145 0.25356 0.90219 1.22000
Zn	Zn	0.62026 0.25632 0.93576 1.22000
O 	O 	0.61698 0.16169 0.75911 -0.46200
O 	O 	0.62977 0.21815 0.65710 -0.47000
O 	O 	0.61533 0.25701 0.66534 -0.41200
O 	O 	0.62396 0.24476 0.84427 -0.44400
O 	O 	0.60690 0.28330 0.85089 -0.45900
O 	O 	0.61354 0.33781 0.74729 -0.47800
O 	O 	0.62040 0.34684 0.78820 -0.47800
O 	O 	0.59898 0.14031 0.80560 -0.46000
O 	O 	0.56290 0.13655 0.78346 -0.48700
O 	O 	0.59793 0.20635 0.87308 -0.46300
O 	O 	0.56061 0.22320 0.88442 -0.48700
O 	O 	0.44754 0.21893 0.88525 -0.47200
O 	O 	0.41878 0.12712 0.81300 -0.45500
O 	O 	0.44830 0.13930 0.78477 -0.47700
O 	O 	0.62521 0.09149 0.80306 -0.45900
O 	O 	0.62207 0.05638 0.77931 -0.48900
O 	O 	0.72343 0.05922 0.86100 -0.48500
O 	O 	0.69645 0.09081 0.86974 -0.41000
O 	O 	0.63562 0.90608 0.80126 -0.47900
O 	O 	0.62255 0.94188 0.78118 -0.48700
O 	O 	0.72666 0.94789 0.86254 -0.48700
O 	O 	0.70561 0.91159 0.86267 -0.45800
O 	O 	0.59164 0.25670 0.95932 -0.50700
O 	O 	0.55664 0.25219 0.93654 -0.49600
O 	O 	0.59218 0.25322 0.04881 -0.49300
O 	O 	0.55622 0.24845 0.07135 -0.48500
O 	O 	0.60757 0.25700 0.90179 -0.92400
O 	O 	0.60599 0.10694 0.75088 -0.94800
C 	C 	0.62420 0.16828 0.73830 0.39200
C 	C 	0.62330 0.19622 0.73170 -0.08800
C 	C 	0.62420 0.20329 0.70620 0.03000
H 	H 	0.62580 0.19070 0.69330 0.05500
C 	C 	0.62270 0.22865 0.69974 -0.08400
C 	C 	0.62220 0.23510 0.67182 0.36900
C 	C 	0.62110 0.24699 0.71860 -0.01500
H 	H 	0.62040 0.26440 0.71400 0.05300
C 	C 	0.62120 0.21476 0.75042 -0.01400
H 	H 	0.62010 0.20980 0.76770 0.05400
C 	C 	0.62060 0.24034 0.74427 0.00600
C 	C 	0.61950 0.26020 0.76454 -0.00500
C 	C 	0.61810 0.28567 0.75858 -0.00200
H 	H 	0.61790 0.29060 0.74120 0.04900
C 	C 	0.61930 0.25410 0.79045 -0.00400
H 	H 	0.62090 0.23680 0.79550 0.04900
C 	C 	0.61700 0.27270 0.80893 -0.09800
C 	C 	0.61660 0.26630 0.83680 0.37300
C 	C 	0.61550 0.29740 0.80220 0.05000
H 	H 	0.61330 0.31010 0.81490 0.04200
C 	C 	0.61700 0.30431 0.77705 -0.10400
C 	C 	0.61640 0.33198 0.77010 0.39100
C 	C 	0.57547 0.14411 0.80218 0.38800
C 	C 	0.56134 0.15846 0.82238 -0.09500
C 	C 	0.57452 0.17416 0.83891 0.04300
H 	H 	0.59260 0.17480 0.83860 0.04800
C 	C 	0.56073 0.18901 0.85589 -0.10100
C 	C 	0.57429 0.20771 0.87251 0.40100
C 	C 	0.53454 0.18709 0.85711 -0.00600
H 	H 	0.52540 0.19690 0.86920 0.05300
C 	C 	0.53495 0.15697 0.82334 -0.00900
H 	H 	0.52620 0.14620 0.81180 0.05300
C 	C 	0.52150 0.17096 0.84080 0.00200
C 	C 	0.49269 0.16918 0.84241 -0.00300
C 	C 	0.47900 0.18305 0.86021 -0.00300
H 	H 	0.48780 0.19410 0.87150 0.05000
C 	C 	0.45256 0.18113 0.86181 -0.09800
O 	O 	0.41729 0.18966 0.88830 -0.45700
C 	C 	0.43961 0.16530 0.84543 0.05000
H 	H 	0.42170 0.16320 0.84700 0.03700
C 	C 	0.45289 0.15260 0.82680 -0.10100
C 	C 	0.43880 0.13800 0.80720 0.38000
C 	C 	0.47876 0.15470 0.82530 -0.00000
H 	H 	0.48750 0.14600 0.81210 0.04900
C 	C 	0.62950 0.06900 0.79880 0.38500
C 	C 	0.64670 0.05490 0.81690 -0.09100
C 	C 	0.66310 0.06878 0.83220 0.03100
H 	H 	0.66190 0.08680 0.83320 0.04700
C 	C 	0.68150 0.05567 0.84600 -0.08500
C 	C 	0.70150 0.06985 0.86050 0.36300
C 	C 	0.68210 0.02905 0.84510 -0.01500
H 	H 	0.69460 0.02030 0.85470 0.05300
C 	C 	0.64782 0.02818 0.81620 -0.01500
H 	H 	0.63650 0.01910 0.80550 0.05300
C 	C 	0.66499 0.01505 0.83080 0.00600
C 	C 	0.66644 0.98624 0.83030 -0.00500
C 	C 	0.64978 0.97165 0.81577 -0.00400
H 	H 	0.63710 0.98000 0.80590 0.04900
C 	C 	0.65116 0.94536 0.81528 -0.09800
C 	C 	0.63485 0.93021 0.79780 0.38200
C 	C 	0.66920 0.93285 0.82961 0.04200
H 	H 	0.66980 0.91480 0.83000 0.04700
C 	C 	0.68662 0.94754 0.84361 -0.10000
C 	C 	0.70786 0.93414 0.85741 0.40600
C 	C 	0.68532 0.97374 0.84350 -0.00300
H 	H 	0.69760 0.98330 0.85270 0.05100
C 	C 	0.56849 0.25370 0.95696 0.42000
C 	C 	0.55376 0.25280 0.98134 -0.11400
C 	C 	0.56686 0.25250 0.00421 0.05300
H 	H 	0.58490 0.25340 0.00440 0.04700
C 	C 	0.55368 0.25100 0.02643 -0.10900
C 	C 	0.56838 0.25080 0.05069 0.38700
C 	C 	0.52750 0.25000 0.02662 -0.00200
H 	H 	0.51870 0.24860 0.04230 0.04900
C 	C 	0.51402 0.25100 0.00383 -0.00500
C 	C 	0.52760 0.25160 0.98118 0.00100
H 	H 	0.51880 0.25110 0.96540 0.04900
O 	O 	0.63293 0.15467 0.72082 -0.48600
C 	C 	0.43824 0.19780 0.88005 0.38700
Zn	Zn	0.12110 0.62401 0.28024 1.22100
Zn	Zn	0.12563 0.61947 0.22280 1.21600
Zn	Zn	0.07210 0.62056 0.25101 1.21900
Zn	Zn	0.10563 0.57042 0.25020 1.22000
Zn	Zn	0.12687 0.73145 0.38138 1.21800
Zn	Zn	0.11624 0.79065 0.38776 1.22000
Zn	Zn	0.07145 0.75356 0.40219 1.22000
Zn	Zn	0.12026 0.75632 0.43576 1.22000
O 	O 	0.11698 0.66169 0.25911 -0.46200
O 	O 	0.12977 0.71815 0.15710 -0.47000
O 	O 	0.11533 0.75701 0.16534 -0.41200
O 	O 	0.12396 0.74476 0.34427 -0.44400
O 	O 	0.10690 0.78330 0.35089 -0.45900
O 	O 	0.11354 0.83781 0.24729 -0.47800
O 	O 	0.12040 0.84684 0.28820 -0.47800
O 	O 	0.09898 0.64031 0.30560 -0.46000
O 	O 	0.06290 0.63655 0.28346 -0.48700
O 	O 	0.09793 0.70635 0.37308 -0.46300
O 	O 	0.06061 0.72320 0.38442 -0.48700
O 	O 	0.94754 0.71893 0.38525 -0.47200
O 	O 	0.91878 0.62712 0.31300 -0.45500
O 	O 	0.94830 0.63930 0.28477 -0.47700
O 	O 	0.12521 0.59149 0.30306 -0.45900
O 	O 	0.12207 0.55638 0.27931 -0.48900
O 	O 	0.22343 0.55922 0.36100 -0.48500
O 	O 	0.19645 0.59081 0.36974 -0.41000
O 	O 	0.13562 0.40608 0.30126 -0.47900
O 	O 	0.12255 0.44188 0.28118 -0.48700
O 	O 	0.22666 0.44789 0.36254 -0.48700
O 	O 	0.20561 0.41159 0.36267 -0.45800
O 	O 	0.09164 0.75670 0.45932 -0.50700
O 	O 	0.05664 0.75219 0.43654 -0.49600
O 	O 	0.09218 0.75322 0.54881 -0.49300
O 	O 	0.05622 0.74845 0.57135 -0.48500
O 	O 	0.10757 0.75700 0.40179 -0.92400
O 	O 	0.10599 0.60694 0.25088 -0.94800
C 	C 	0.12420 0.66828 0.23830 0.39200
C 	C 	0.12330 0.69622 0.23170 -0.08800
C 	C 	0.12420 0.70329 0.20620 0.03000
H 	H 	0.12580 0.69070 0.19330 0.05500
C 	C 	0.12270 0.72865 0.19974 -0.08400
C 	C 	0.12220 0.73510 0.17182 0.36900
C 	C 	0.12110 0.74699 0.21860 -0.01500
H 	H 	0.12040 0.76440 0.21400 0.05300
C 	C 	0.12120 0.71476 0.25042 -0.01400
H 	H 	0.12010 0.70980 0.26770 0.05400
C 	C 	0.12060 0.74034 0.24427 0.00600
C 	C 	0.11950 0.76020 0.26454 -0.00500
C 	C 	0.11810 0.78567 0.25858 -0.00200
H 	H 	0.11790 0.79060 0.24120 0.04900
C 	C 	0.11930 0.75410 0.29045 -0.00400
H 	H 	0.12090 0.73680 0.29550 0.04900
C 	C 	0.11700 0.77270 0.30893 -0.09800
C 	C 	0.11660 0.76630 0.33680 0.37300
C 	C 	0.11550 0.79740 0.30220 0.05000
H 	H 	0.11330 0.81010 0.31490 0.04200
C 	C 	0.11700 0.80431 0.27705 -0.10400
C 	C 	0.11640 0.83198 0.27010 0.39100
C 	C 	0.07547 0.64411 0.30218 0.38800
C 	C 	0.06134 0.65846 0.32238 -0.09500
C 	C 	0.07452 0.67416 0.33891 0.04300
H 	H 	0.09260 0.67480 0.33860 0.04800
C 	C 	0.06073 0.68901 0.35589 -0.10100
C 	C 	0.07429 0.70771 0.37251 0.40100
C 	C 	0.03454 0.68709 0.35711 -0.00600
H 	H 	0.02540 0.69690 0.36920 0.05300
C 	C 	0.03495 0.65697 0.32334 -0.00900
H 	H 	0.02620 0.64620 0.31180 0.05300
C 	C 	0.02150 0.67096 0.34080 0.00200
C 	C 	0.99269 0.66918 0.34241 -0.00300
C 	C 	0.97900 0.68305 0.36021 -0.00300
H 	H 	0.98780 0.69410 0.37150 0.05000
C 	C 	0.95256 0.68113 0.36181 -0.09800
O 	O 	0.91729 0.68966 0.38830 -0.45700
C 	C 	0.93961 0.66530 0.34543 0.05000
H 	H 	0.92170 0.66320 0.34700 0.03700
C 	C 	0.95289 0.65260 0.32680 -0.10100
C 	C 	0.93880 0.63800 0.30720 0.38000
C 	C 	0.97876 0.65470 0.32530 -0.00000
H 	H 	0.98750 0.64600 0.31210 0.04900
C 	C 	0.12950 0.56900 0.29880 0.38500
C 	C 	0.14670 0.55490 0.31690 -0.09100
C 	C 	0.16310 0.56878 0.33220 0.03100
H 	H 	0.16190 0.58680 0.33320 0.04700
C 	C 	0.18150 0.55567 0.34600 -0.08500
C 	C 	0.20150 0.56985 0.36050 0.36300
C 	C 	0.18210 0.52905 0.34510 -0.01500
H 	H 	0.19460 0.52030 0.35470 0.05300
C 	C 	0.14782 0.52818 0.31620 -0.01500
H 	H 	0.13650 0.51910 0.30550 0.05300
C 	C 	0.16499 0.51505 0.33080 0.00600
C 	C 	0.16644 0.48624 0.33030 -0.00500
C 	C 	0.14978 0.47165 0.31577 -0.00400
H 	H 	0.13710 0.48000 0.30590 0.04900
C 	C 	0.15116 0.44536 0.31528 -0.09800
C 	C 	0.13485 0.43021 0.29780 0.38200
C 	C 	0.16920 0.43285 0.32961 0.04200
H 	H 	0.16980 0.41480 0.33000 0.04700
C 	C 	0.18662 0.44754 0.34361 -0.10000
C 	C 	0.20786 0.43414 0.35741 0.40600
C 	C 	0.18532 0.47374 0.34350 -0.00300
H 	H 	0.19760 0.48330 0.35270 0.05100
C 	C 	0.06849 0.75370 0.45696 0.42000
C 	C 	0.05376 0.75280 0.48134 -0.11400
C 	C 	0.06686 0.75250 0.50421 0.05300
H 	H 	0.08490 0.75340 0.50440 0.04700
C 	C 	0.05368 0.75100 0.52643 -0.10900
C 	C 	0.06838 0.75080 0.55069 0.38700
C 	C 	0.02750 0.75000 0.52662 -0.00200
H 	H 	0.01870 0.74860 0.54230 0.04900
C 	C 	0.01402 0.75100 0.50383 -0.00500
C 	C 	0.02760 0.75160 0.48118 0.00100
H 	H 	0.01880 0.75110 0.46540 0.04900
O 	O 	0.13293 0.65467 0.22082 -0.48600
C 	C 	0.93824 0.69780 0.38005 0.38700
Zn	Zn	0.37890 0.62401 0.71976 1.22100
Zn	Zn	0.37437 0.61947 0.77720 1.21600
Zn	Zn	0.42790 0.62056 0.74899 1.21900
Zn	Zn	0.39437 0.57042 0.74980 1.22000
Zn	Zn	0.37313 0.73145 0.61862 1.21800
Zn	Zn	0.38376 0.79065 0.61224 1.22000
Zn	Zn	0.42855 0.75356 0.59781 1.22000
Zn	Zn	0.37974 0.75632 0.56424 1.22000
O 	O 	0.38302 0.66169 0.74089 -0.46200
O 	O 	0.37023 0.71815 0.84290 -0.47000
O 	O 	0.38467 0.75701 0.83466 -0.41200
O 	O 	0.37604 0.74476 0.65573 -0.44400
O 	O 	0.39310 0.78330 0.64911 -0.45900
O 	O 	0.38646 0.83781 0.75271 -0.47800
O 	O 	0.37960 0.84684 0.71180 -0.47800
O 	O 	0.40102 0.64031 0.69440 -0.46000
O 	O 	0.43710 0.63655 0.71654 -0.48700
O 	O 	0.40207 0.70635 0.62692 -0.46300
O 	O 	0.43939 0.72320 0.61558 -0.48700
O 	O 	0.55246 0.71893 0.61475 -0.47200
O 	O 	0.58122 0.62712 0.68700 -0.45500
O 	O 	0.55170 0.63930 0.71523 -0.47700
O 	O 	0.37479 0.59149 0.69694 -0.45900
O 	O 	0.37793 0.55638 0.72069 -0.48900
O 	O 	0.27657 0.55922 0.63900 -0.48500
O 	O 	0.30355 0.59081 0.63026 -0.41000
O 	O 	0.36438 0.40608 0.69874 -0.47900
O 	O 	0.37745 0.44188 0.71882 -0.48700
O 	O 	0.27334 0.44789 0.63746 -0.48700
O 	O 	0.29439 0.41159 0.63733 -0.45800
O 	O 	0.40836 0.75670 0.54068 -0.50700
O 	O 	0.44336 0.75219 0.56346 -0.49600
O 	O 	0.40782 0.75322 0.45119 -0.49300
O 	O 	0.44378 0.74845 0.42865 -0.48500
O 	O 	0.39243 0.75700 0.59821 -0.92400
O 	O 	0.39401 0.60694 0.74912 -0.94800
C 	C 	0.37580 0.66828 0.76170 0.39200
C 	C 	0.37670 0.69622 0.76830 -0.08800
C 	C 	0.37580 0.70329 0.79380 0.03000
H 	H 	0.37420 0.69070 0.80670 0.05500
C 	C 	0.37730 0.72865 0.80026 -0.08400
C 	C 	0.37780 0.73510 0.82818 0.36900
C 	C 	0.37890 0.74699 0.78140 -0.01500
H 	H 	0.37960 0.76440 0.78600 0.05300
C 	C 	0.37880 0.71476 0.74958 -0.01400
H 	H 	0.37990 0.70980 0.73230 0.05400
C 	C 	0.37940 0.74034 0.75573 0.00600
C 	C 	0.38050 0.76020 0.73546 -0.00500
C 	C 	0.38190 0.78567 0.74142 -0.00200
H 	H 	0.38210 0.79060 0.75880 0.04900
C 	C 	0.38070 0.75410 0.70955 -0.00400
H 	H 	0.37910 0.73680 0.70450 0.04900
C 	C 	0.38300 0.77270 0.69107 -0.09800
C 	C 	0.38340 0.76630 0.66320 0.37300
C 	C 	0.38450 0.79740 0.69780 0.05000
H 	H 	0.38670 0.81010 0.68510 0.04200
C 	C 	0.38300 0.80431 0.72295 -0.10400
C 	C 	0.38360 0.83198 0.72990 0.39100
C 	C 	0.42453 0.64411 0.69782 0.38800
C 	C 	0.43866 0.65846 0.67762 -0.09500
C 	C 	0.42548 0.67416 0.66109 0.04300
H 	H 	0.40740 0.67480 0.66140 0.04800
C 	C 	0.43927 0.68901 0.64411 -0.10100
C 	C 	0.42571 0.70771 0.62749 0.40100
C 	C 	0.46546 0.68709 0.64289 -0.00600
H 	H 	0.47460 0.69690 0.63080 0.05300
C 	C 	0.46505 0.65697 0.67666 -0.00900
H 	H 	0.47380 0.64620 0.68820 0.05300
C 	C 	0.47850 0.67096 0.65920 0.00200
C 	C 	0.50731 0.66918 0.65759 -0.00300
C 	C 	0.52100 0.68305 0.63979 -0.00300
H 	H 	0.51220 0.69410 0.62850 0.05000
C 	C 	0.54744 0.68113 0.63819 -0.09800
O 	O 	0.58271 0.68966 0.61170 -0.45700
C 	C 	0.56039 0.66530 0.65457 0.05000
H 	H 	0.57830 0.66320 0.65300 0.03700
C 	C 	0.54711 0.65260 0.67320 -0.10100
C 	C 	0.56120 0.63800 0.69280 0.38000
C 	C 	0.52124 0.65470 0.67470 -0.00000
H 	H 	0.51250 0.64600 0.68790 0.04900
C 	C 	0.37050 0.56900 0.70120 0.38500
C 	C 	0.35330 0.55490 0.68310 -0.09100
C 	C 	0.33690 0.56878 0.66780 0.03100
H 	H 	0.33810 0.58680 0.66680 0.04700
C 	C 	0.31850 0.55567 0.65400 -0.08500
C 	C 	0.29850 0.56985 0.63950 0.36300
C 	C 	0.31790 0.52905 0.65490 -0.01500
H 	H 	0.30540 0.52030 0.64530 0.05300
C 	C 	0.35218 0.52818 0.68380 -0.01500
H 	H 	0.36350 0.51910 0.69450 0.05300
C 	C 	0.33501 0.51505 0.66920 0.00600
C 	C 	0.33356 0.48624 0.66970 -0.00500
C 	C 	0.35022 0.47165 0.68423 -0.00400
H 	H 	0.36290 0.48000 0.69410 0.04900
C 	C 	0.34884 0.44536 0.68472 -0.09800
C 	C 	0.36515 0.43021 0.70220 0.38200
C 	C 	0.33080 0.43285 0.67039 0.04200
H 	H 	0.33020 0.41480 0.67000 0.04700
C 	C 	0.31338 0.44754 0.65639 -0.10000
C 	C 	0.29214 0.43414 0.64259 0.40600
C 	C 	0.31468 0.47374 0.65650 -0.00300
H 	H 	0.30240 0.48330 0.64730 0.05100
C 	C 	0.43151 0.75370 0.54304 0.42000
C 	C 	0.44624 0.75280 0.51866 -0.11400
C 	C 	0.43314 0.75250 0.49579 0.05300
H 	H 	0.41510 0.75340 0.49560 0.04700
C 	C 	0.44632 0.75100 0.47357 -0.10900
C 	C 	0.43162 0.75080 0.44931 0.38700
C 	C 	0.47250 0.75000 0.47338 -0.00200
H 	H 	0.48130 0.74860 0.45770 0.04900
C 	C 	0.48598 0.75100 0.49617 -0.00500
C 	C 	0.47240 0.75160 0.51882 0.00100
H 	H 	0.48120 0.75110 0.53460 0.04900
O 	O 	0.36707 0.65467 0.77918 -0.48600
C 	C 	0.56176 0.69780 0.61995 0.38700
Zn	Zn	0.87890 0.12401 0.21976 1.22100
Zn	Zn	0.87437 0.11947 0.27720 1.21600
Zn	Zn	0.92790 0.12056 0.24899 1.21900
Zn	Zn	0.89437 0.07042 0.24980 1.22000
Zn	Zn	0.87313 0.23145 0.11862 1.21800
Zn	Zn	0.88376 0.29065 0.11224 1.22000
Zn	Zn	0.92855 0.25356 0.09781 1.22000
Zn	Zn	0.87974 0.25632 0.06424 1.22000
O 	O 	0.88302 0.16169 0.24089 -0.46200
O 	O 	0.87023 0.21815 0.34290 -0.47000
O 	O 	0.88467 0.25701 0.33466 -0.41200
O 	O 	0.87604 0.24476 0.15573 -0.44400
O 	O 	0.89310 0.28330 0.14911 -0.45900
O 	O 	0.88646 0.33781 0.25271 -0.47800
O 	O 	0.87960 0.34684 0.21180 -0.47800
O 	O 	0.90102 0.14031 0.19440 -0.46000
O 	O 	0.93710 0.13655 0.21654 -0.48700
O 	O 	0.90207 0.20635 0.12692 -0.46300
O 	O 	0.93939 0.22320 0.11558 -0.48700
O 	O 	0.05246 0.21893 0.11475 -0.47200
O 	O 	0.08122 0.12712 0.18700 -0.45500
O 	O 	0.05170 0.13930 0.21523 -0.47700
O 	O 	0.87479 0.09149 0.19694 -0.45900
O 	O 	0.87793 0.05638 0.22069 -0.48900
O 	O 	0.77657 0.05922 0.13900 -0.48500
O 	O 	0.80355 0.09081 0.13026 -0.41000
O 	O 	0.86438 0.90608 0.19874 -0.47900
O 	O 	0.87745 0.94188 0.21882 -0.48700
O 	O 	0.77334 0.94789 0.13746 -0.48700
O 	O 	0.79439 0.91159 0.13733 -0.45800
O 	O 	0.90836 0.25670 0.04068 -0.50700
O 	O 	0.94336 0.25219 0.06346 -0.49600
O 	O 	0.90782 0.25322 0.95119 -0.49300
O 	O 	0.94378 0.24845 0.92865 -0.48500
O 	O 	0.89243 0.25700 0.09821 -0.92400
O 	O 	0.89401 0.10694 0.24912 -0.94800
C 	C 	0.87580 0.16828 0.26170 0.39200
C 	C 	0.87670 0.19622 0.26830 -0.08800
C 	C 	0.87580 0.20329 0.29380 0.03000
H 	H 	0.87420 0.19070 0.30670 0.05500
C 	C 	0.87730 0.22865 0.30026 -0.08400
C 	C 	0.87780 0.23510 0.32818 0.36900
C 	C 	0.87890 0.24699 0.28140 -0.01500
H 	H 	0.87960 0.26440 0.28600 0.05300
C 	C 	0.87880 0.21476 0.24958 -0.01400
H 	H 	0.87990 0.20980 0.23230 0.05400
C 	C 	0.87940 0.24034 0.25573 0.00600
C 	C 	0.88050 0.26020 0.23546 -0.00500
C 	C 	0.88190 0.28567 0.24142 -0.00200
H 	H 	0.88210 0.29060 0.25880 0.04900
C 	C 	0.88070 0.25410 0.20955 -0.00400
H 	H 	0.87910 0.23680 0.20450 0.04900
C 	C 	0.88300 0.27270 0.19107 -0.09800
C 	C 	0.88340 0.26630 0.16320 0.37300
C 	C 	0.88450 0.29740 0.19780 0.05000
H 	H 	0.88670 0.31010 0.18510 0.04200
C 	C 	0.88300 0.30431 0.22295 -0.10400
C 	C 	0.88360 0.33198 0.22990 0.39100
C 	C 	0.92453 0.14411 0.19782 0.38800
C 	C 	0.93866 0.15846 0.17762 -0.09500
C 	C 	0.92548 0.17416 0.16109 0.04300
H 	H 	0.90740 0.17480 0.16140 0.04800
C 	C 	0.93927 0.18901 0.14411 -0.10100
C 	C 	0.92571 0.20771 0.12749 0.40100
C 	C 	0.96546 0.18709 0.14289 -0.00600
H 	H 	0.97460 0.19690 0.13080 0.05300
C 	C 	0.96505 0.15697 0.17666 -0.00900
H 	H 	0.97380 0.14620 0.18820 0.05300
C 	C 	0.97850 0.17096 0.15920 0.00200
C 	C 	0.00731 0.16918 0.15759 -0.00300
C 	C 	0.02100 0.18305 0.13979 -0.00300
H 	H 	0.01220 0.19410 0.12850 0.05000
C 	C 	0.04744 0.18113 0.13819 -0.09800
O 	O 	0.08271 0.18966 0.11170 -0.45700
C 	C 	0.06039 0.16530 0.15457 0.05000
H 	H 	0.07830 0.16320 0.15300 0.03700
C 	C 	0.04711 0.15260 0.17320 -0.10100
C 	C 	0.06120 0.13800 0.19280 0.38000
C 	C 	0.02124 0.15470 0.17470 -0.00000
H 	H 	0.01250 0.14600 0.18790 0.04900
C 	C 	0.87050 0.06900 0.20120 0.38500
C 	C 	0.85330 0.05490 0.18310 -0.09100
C 	C 	0.83690 0.06878 0.16780 0.03100
H 	H 	0.83810 0.08680 0.16680 0.04700
C 	C 	0.81850 0.05567 0.15400 -0.08500
C 	C 	0.79850 0.06985 0.13950 0.36300
C 	C 	0.81790 0.02905 0.15490 -0.01500
H 	H 	0.80540 0.02030 0.14530 0.05300
C 	C 	0.85218 0.02818 0.18380 -0.01500
H 	H 	0.86350 0.01910 0.19450 0.05300
C 	C 	0.83501 0.01505 0.16920 0.00600
C 	C 	0.83356 0.98624 0.16970 -0.00500
C 	C 	0.85022 0.97165 0.18423 -0.00400
H 	H 	0.86290 0.98000 0.19410 0.04900
C 	C 	0.84884 0.94536 0.18472 -0.09800
C 	C 	0.86515 0.93021 0.20220 0.38200
C 	C 	0.83080 0.93285 0.17039 0.04200
H 	H 	0.83020 0.91480 0.17000 0.04700
C 	C 	0.81338 0.94754 0.15639 -0.10000
C 	C 	0.79214 0.93414 0.14259 0.40600
C 	C 	0.81468 0.97374 0.15650 -0.00300
H 	H 	0.80240 0.98330 0.14730 0.05100
C 	C 	0.93151 0.25370 0.04304 0.42000
C 	C 	0.94624 0.25280 0.01866 -0.11400
C 	C 	0.93314 0.25250 0.99579 0.05300
H 	H 	0.91510 0.25340 0.99560 0.04700
C 	C 	0.94632 0.25100 0.97357 -0.10900
C 	C 	0.93162 0.25080 0.94931 0.38700
C 	C 	0.97250 0.25000 0.97338 -0.00200
H 	H 	0.98130 0.24860 0.95770 0.04900
C 	C 	0.98598 0.25100 0.99617 -0.00500
C 	C 	0.97240 0.25160 0.01882 0.00100
H 	H 	0.98120 0.25110 0.03460 0.04900
O 	O 	0.86707 0.15467 0.27918 -0.48600
C 	C 	0.06176 0.19780 0.11995 0.38700
Zn	Zn	0.12110 0.37599 0.21976 1.22100
Zn	Zn	0.12563 0.38053 0.27720 1.21600
Zn	Zn	0.07210 0.37944 0.24899 1.21900
Zn	Zn	0.10563 0.42958 0.24980 1.22000
Zn	Zn	0.12687 0.26855 0.11862 1.21800
Zn	Zn	0.11624 0.20935 0.11224 1.22000
Zn	Zn	0.07145 0.24644 0.09781 1.22000
Zn	Zn	0.12026 0.24368 0.06424 1.22000
O 	O 	0.11698 0.33831 0.24089 -0.46200
O 	O 	0.12977 0.28185 0.34290 -0.47000
O 	O 	0.11533 0.24299 0.33466 -0.41200
O 	O 	0.12396 0.25524 0.15573 -0.44400
O 	O 	0.10690 0.21670 0.14911 -0.45900
O 	O 	0.11354 0.16219 0.25271 -0.47800
O 	O 	0.12040 0.15316 0.21180 -0.47800
O 	O 	0.09898 0.35969 0.19440 -0.46000
O 	O 	0.06290 0.36345 0.21654 -0.48700
O 	O 	0.09793 0.29365 0.12692 -0.46300
O 	O 	0.06061 0.27680 0.11558 -0.48700
O 	O 	0.94754 0.28107 0.11475 -0.47200
O 	O 	0.91878 0.37288 0.18700 -0.45500
O 	O 	0.94830 0.36070 0.21523 -0.47700
O 	O 	0.12521 0.40851 0.19694 -0.45900
O 	O 	0.12207 0.44362 0.22069 -0.48900
O 	O 	0.22343 0.44078 0.13900 -0.48500
O 	O 	0.19645 0.40919 0.13026 -0.41000
O 	O 	0.13562 0.59392 0.19874 -0.47900
O 	O 	0.12255 0.55812 0.21882 -0.48700
O 	O 	0.22666 0.55211 0.13746 -0.48700
O 	O 	0.20561 0.58841 0.13733 -0.45800
O 	O 	0.09164 0.24330 0.04068 -0.50700
O 	O 	0.05664 0.24781 0.06346 -0.49600
O 	O 	0.09218 0.24678 0.95119 -0.49300
O 	O 	0.05622 0.25155 0.92865 -0.48500
O 	O 	0.10757 0.24300 0.09821 -0.92400
O 	O 	0.10599 0.39306 0.24912 -0.94800
C 	C 	0.12420 0.33172 0.26170 0.39200
C 	C 	0.12330 0.30378 0.26830 -0.08800
C 	C 	0.12420 0.29671 0.29380 0.03000
H 	H 	0.12580 0.30930 0.30670 0.05500
C 	C 	0.12270 0.27135 0.30026 -0.08400
C 	C 	0.12220 0.26490 0.32818 0.36900
C 	C 	0.12110 0.25301 0.28140 -0.01500
H 	H 	0.12040 0.23560 0.28600 0.05300
C 	C 	0.12120 0.28524 0.24958 -0.01400
H 	H 	0.12010 0.29020 0.23230 0.05400
C 	C 	0.12060 0.25966 0.25573 0.00600
C 	C 	0.11950 0.23980 0.23546 -0.00500
C 	C 	0.11810 0.21433 0.24142 -0.00200
H 	H 	0.11790 0.20940 0.25880 0.04900
C 	C 	0.11930 0.24590 0.20955 -0.00400
H 	H 	0.12090 0.26320 0.20450 0.04900
C 	C 	0.11700 0.22730 0.19107 -0.09800
C 	C 	0.11660 0.23370 0.16320 0.37300
C 	C 	0.11550 0.20260 0.19780 0.05000
H 	H 	0.11330 0.18990 0.18510 0.04200
C 	C 	0.11700 0.19569 0.22295 -0.10400
C 	C 	0.11640 0.16802 0.22990 0.39100
C 	C 	0.07547 0.35589 0.19782 0.38800
C 	C 	0.06134 0.34154 0.17762 -0.09500
C 	C 	0.07452 0.32584 0.16109 0.04300
H 	H 	0.09260 0.32520 0.16140 0.04800
C 	C 	0.06073 0.31099 0.14411 -0.10100
C 	C 	0.07429 0.29229 0.12749 0.40100
C 	C 	0.03454 0.31291 0.14289 -0.00600
H 	H 	0.02540 0.30310 0.13080 0.05300
C 	C 	0.03495 0.34303 0.17666 -0.00900
H 	H 	0.02620 0.35380 0.18820 0.05300
C 	C 	0.02150 0.32904 0.15920 0.00200
C 	C 	0.99269 0.33082 0.15759 -0.00300
C 	C 	0.97900 0.31695 0.13979 -0.00300
H 	H 	0.98780 0.30590 0.12850 0.05000
C 	C 	0.95256 0.31887 0.13819 -0.09800
O 	O 	0.91729 0.31034 0.11170 -0.45700
C 	C 	0.93961 0.33470 0.15457 0.05000
H 	H 	0.92170 0.33680 0.15300 0.03700
C 	C 	0.95289 0.34740 0.17320 -0.10100
C 	C 	0.93880 0.36200 0.19280 0.38000
C 	C 	0.97876 0.34530 0.17470 -0.00000
H 	H 	0.98750 0.35400 0.18790 0.04900
C 	C 	0.12950 0.43100 0.20120 0.38500
C 	C 	0.14670 0.44510 0.18310 -0.09100
C 	C 	0.16310 0.43122 0.16780 0.03100
H 	H 	0.16190 0.41320 0.16680 0.04700
C 	C 	0.18150 0.44433 0.15400 -0.08500
C 	C 	0.20150 0.43015 0.13950 0.36300
C 	C 	0.18210 0.47095 0.15490 -0.01500
H 	H 	0.19460 0.47970 0.14530 0.05300
C 	C 	0.14782 0.47182 0.18380 -0.01500
H 	H 	0.13650 0.48090 0.19450 0.05300
C 	C 	0.16499 0.48495 0.16920 0.00600
C 	C 	0.16644 0.51376 0.16970 -0.00500
C 	C 	0.14978 0.52835 0.18423 -0.00400
H 	H 	0.13710 0.52000 0.19410 0.04900
C 	C 	0.15116 0.55464 0.18472 -0.09800
C 	C 	0.13485 0.56979 0.20220 0.38200
C 	C 	0.16920 0.56715 0.17039 0.04200
H 	H 	0.16980 0.58520 0.17000 0.04700
C 	C 	0.18662 0.55246 0.15639 -0.10000
C 	C 	0.20786 0.56586 0.14259 0.40600
C 	C 	0.18532 0.52626 0.15650 -0.00300
H 	H 	0.19760 0.51670 0.14730 0.05100
C 	C 	0.06849 0.24630 0.04304 0.42000
C 	C 	0.05376 0.24720 0.01866 -0.11400
C 	C 	0.06686 0.24750 0.99579 0.05300
H 	H 	0.08490 0.24660 0.99560 0.04700
C 	C 	0.05368 0.24900 0.97357 -0.10900
C 	C 	0.06838 0.24920 0.94931 0.38700
C 	C 	0.02750 0.25000 0.97338 -0.00200
H 	H 	0.01870 0.25140 0.95770 0.04900
C 	C 	0.01402 0.24900 0.99617 -0.00500
C 	C 	0.02760 0.24840 0.01882 0.00100
H 	H 	0.01880 0.24890 0.03460 0.04900
O 	O 	0.13293 0.34533 0.27918 -0.48600
C 	C 	0.93824 0.30220 0.11995 0.38700
Zn	Zn	0.62110 0.87599 0.71976 1.22100
Zn	Zn	0.62563 0.88053 0.77720 1.21600
Zn	Zn	0.57210 0.87944 0.74899 1.21900
Zn	Zn	0.60563 0.92958 0.74980 1.22000
Zn	Zn	0.62687 0.76855 0.61862 1.21800
Zn	Zn	0.61624 0.70935 0.61224 1.22000
Zn	Zn	0.57145 0.74644 0.59781 1.22000
Zn	Zn	0.62026 0.74368 0.56424 1.22000
O 	O 	0.61698 0.83831 0.74089 -0.46200
O 	O 	0.62977 0.78185 0.84290 -0.47000
O 	O 	0.61533 0.74299 0.83466 -0.41200
O 	O 	0.62396 0.75524 0.65573 -0.44400
O 	O 	0.60690 0.71670 0.64911 -0.45900
O 	O 	0.61354 0.66219 0.75271 -0.47800
O 	O 	0.62040 0.65316 0.71180 -0.47800
O 	O 	0.59898 0.85969 0.69440 -0.46000
O 	O 	0.56290 0.86345 0.71654 -0.48700
O 	O 	0.59793 0.79365 0.62692 -0.46300
O 	O 	0.56061 0.77680 0.61558 -0.48700
O 	O 	0.44754 0.78107 0.61475 -0.47200
O 	O 	0.41878 0.87288 0.68700 -0.45500
O 	O 	0.44830 0.86070 0.71523 -0.47700
O 	O 	0.62521 0.90851 0.69694 -0.45900
O 	O 	0.62207 0.94362 0.72069 -0.48900
O 	O 	0.72343 0.94078 0.63900 -0.48500
O 	O 	0.69645 0.90919 0.63026 -0.41000
O 	O 	0.63562 0.09392 0.69874 -0.47900
O 	O 	0.62255 0.05812 0.71882 -0.48700
O 	O 	0.72666 0.05211 0.63746 -0.48700
O 	O 	0.70561 0.08841 0.63733 -0.45800
O 	O 	0.59164 0.74330 0.54068 -0.50700
O 	O 	0.55664 0.74781 0.56346 -0.49600
O 	O 	0.59218 0.74678 0.45119 -0.49300
O 	O 	0.55622 0.75155 0.42865 -0.48500
O 	O 	0.60757 0.74300 0.59821 -0.92400
O 	O 	0.60599 0.89306 0.74912 -0.94800
C 	C 	0.62420 0.83172 0.76170 0.39200
C 	C 	0.62330 0.80378 0.76830 -0.08800
C 	C 	0.62420 0.79671 0.79380 0.03000
H 	H 	0.62580 0.80930 0.80670 0.05500
C 	C 	0.62270 0.77135 0.80026 -0.08400
C 	C 	0.62220 0.76490 0.82818 0.36900
C 	C 	0.62110 0.75301 0.78140 -0.01500
H 	H 	0.62040 0.73560 0.78600 0.05300
C 	C 	0.62120 0.78524 0.74958 -0.01400
H 	H 	0.62010 0.79020 0.73230 0.05400
C 	C 	0.62060 0.75966 0.75573 0.00600
C 	C 	0.61950 0.73980 0.73546 -0.00500
C 	C 	0.61810 0.71433 0.74142 -0.00200
H 	H 	0.61790 0.70940 0.75880 0.04900
C 	C 	0.61930 0.74590 0.70955 -0.00400
H 	H 	0.62090 0.76320 0.70450 0.04900
C 	C 	0.61700 0.72730 0.69107 -0.09800
C 	C 	0.61660 0.73370 0.66320 0.37300
C 	C 	0.61550 0.70260 0.69780 0.05000
H 	H 	0.61330 0.68990 0.68510 0.04200
C 	C 	0.61700 0.69569 0.72295 -0.10400
C 	C 	0.61640 0.66802 0.72990 0.39100
C 	C 	0.57547 0.85589 0.69782 0.38800
C 	C 	0.56134 0.84154 0.67762 -0.09500
C 	C 	0.57452 0.82584 0.66109 0.04300
H 	H 	0.59260 0.82520 0.66140 0.04800
C 	C 	0.56073 0.81099 0.64411 -0.10100
C 	C 	0.57429 0.79229 0.62749 0.40100
C 	C 	0.53454 0.81291 0.64289 -0.00600
H 	H 	0.52540 0.80310 0.63080 0.05300
C 	C 	0.53495 0.84303 0.67666 -0.00900
H 	H 	0.52620 0.85380 0.68820 0.05300
C 	C 	0.52150 0.82904 0.65920 0.00200
C 	C 	0.49269 0.83082 0.65759 -0.00300
C 	C 	0.47900 0.81695 0.63979 -0.00300
H 	H 	0.48780 0.80590 0.62850 0.05000
C 	C 	0.45256 0.81887 0.63819 -0.09800
O 	O 	0.41729 0.81034 0.61170 -0.45700
C 	C 	0.43961 0.83470 0.65457 0.05000
H 	H 	0.42170 0.83680 0.65300 0.03700
C 	C 	0.45289 0.84740 0.67320 -0.10100
C 	C 	0.43880 0.86200 0.69280 0.38000
C 	C 	0.47876 0.84530 0.67470 -0.00000
H 	H 	0.48750 0.85400 0.68790 0.04900
C 	C 	0.62950 0.93100 0.70120 0.38500
C 	C 	0.64670 0.94510 0.68310 -0.09100
C 	C 	0.66310 0.93122 0.66780 0.03100
H 	H 	0.66190 0.91320 0.66680 0.04700
C 	C 	0.68150 0.94433 0.65400 -0.08500
C 	C 	0.70150 0.93015 0.63950 0.36300
C 	C 	0.68210 0.97095 0.65490 -0.01500
H 	H 	0.69460 0.97970 0.64530 0.05300
C 	C 	0.64782 0.97182 0.68380 -0.01500
H 	H 	0.63650 0.98090 0.69450 0.05300
C 	C 	0.66499 0.98495 0.66920 0.00600
C 	C 	0.66644 0.01376 0.66970 -0.00500
C 	C 	0.64978 0.02835 0.68423 -0.00400
H 	H 	0.63710 0.02000 0.69410 0.04900
C 	C 	0.65116 0.05464 0.68472 -0.09800
C 	C 	0.63485 0.06979 0.70220 0.38200
C 	C 	0.66920 0.06715 0.67039 0.04200
H 	H 	0.66980 0.08520 0.67000 0.04700
C 	C 	0.68662 0.05246 0.65639 -0.10000
C 	C 	0.70786 0.06586 0.64259 0.40600
C 	C 	0.68532 0.02626 0.65650 -0.00300
H 	H 	0.69760 0.01670 0.64730 0.05100
C 	C 	0.56849 0.74630 0.54304 0.42000
C 	C 	0.55376 0.74720 0.51866 -0.11400
C 	C 	0.56686 0.74750 0.49579 0.05300
H 	H 	0.58490 0.74660 0.49560 0.04700
C 	C 	0.55368 0.74900 0.47357 -0.10900
C 	C 	0.56838 0.74920 0.44931 0.38700
C 	C 	0.52750 0.75000 0.47338 -0.00200
H 	H 	0.51870 0.75140 0.45770 0.04900
C 	C 	0.51402 0.74900 0.49617 -0.00500
C 	C 	0.52760 0.74840 0.51882 0.00100
H 	H 	0.51880 0.74890 0.53460 0.04900
O 	O 	0.63293 0.84533 0.77918 -0.48600
C 	C 	0.43824 0.80220 0.61995 0.38700
Zn	Zn	0.87890 0.87599 0.28024 1.22100
Zn	Zn	0.87437 0.88053 0.22280 1.21600
Zn	Zn	0.92790 0.87944 0.25101 1.21900
Zn	Zn	0.89437 0.92958 0.25020 1.22000
Zn	Zn	0.87313 0.76855 0.38138 1.21800
Zn	Zn	0.88376 0.70935 0.38776 1.22000
Zn	Zn	0.92855 0.74644 0.40219 1.22000
Zn	Zn	0.87974 0.74368 0.43576 1.22000
O 	O 	0.88302 0.83831 0.25911 -0.46200
O 	O 	0.87023 0.78185 0.15710 -0.47000
O 	O 	0.88467 0.74299 0.16534 -0.41200
O 	O 	0.87604 0.75524 0.34427 -0.44400
O 	O 	0.89310 0.71670 0.35089 -0.45900
O 	O 	0.88646 0.66219 0.24729 -0.47800
O 	O 	0.87960 0.65316 0.28820 -0.47800
O 	O 	0.90102 0.85969 0.30560 -0.46000
O 	O 	0.93710 0.86345 0.28346 -0.48700
O 	O 	0.90207 0.79365 0.37308 -0.46300
O 	O 	0.93939 0.77680 0.38442 -0.48700
O 	O 	0.05246 0.78107 0.38525 -0.47200
O 	O 	0.08122 0.87288 0.31300 -0.45500
O 	O 	0.05170 0.86070 0.28477 -0.47700
O 	O 	0.87479 0.90851 0.30306 -0.45900
O 	O 	0.87793 0.94362 0.27931 -0.48900
O 	O 	0.77657 0.94078 0.36100 -0.48500
O 	O 	0.80355 0.90919 0.36974 -0.41000
O 	O 	0.86438 0.09392 0.30126 -0.47900
O 	O 	0.87745 0.05812 0.28118 -0.48700
O 	O 	0.77334 0.05211 0.36254 -0.48700
O 	O 	0.79439 0.08841 0.36267 -0.45800
O 	O 	0.90836 0.74330 0.45932 -0.50700
O 	O 	0.94336 0.74781 0.43654 -0.49600
O 	O 	0.90782 0.74678 0.54881 -0.49300
O 	O 	0.94378 0.75155 0.57135 -0.48500
O 	O 	0.89243 0.74300 0.40179 -0.92400
O 	O 	0.89401 0.89306 0.25088 -0.94800
C 	C 	0.87580 0.83172 0.23830 0.39200
C 	C 	0.87670 0.80378 0.23170 -0.08800
C 	C 	0.87580 0.79671 0.20620 0.03000
H 	H 	0.87420 0.80930 0.19330 0.05500
C 	C 	0.87730 0.77135 0.19974 -0.08400
C 	C 	0.87780 0.76490 0.17182 0.36900
C 	C 	0.87890 0.75301 0.21860 -0.01500
H 	H 	0.87960 0.73560 0.21400 0.05300
C 	C 	0.87880 0.78524 0.25042 -0.01400
H 	H 	0.87990 0.79020 0.26770 0.05400
C 	C 	0.87940 0.75966 0.24427 0.00600
C 	C 	0.88050 0.73980 0.26454 -0.00500
C 	C 	0.88190 0.71433 0.25858 -0.00200
H 	H 	0.88210 0.70940 0.24120 0.04900
C 	C 	0.88070 0.74590 0.29045 -0.00400
H 	H 	0.87910 0.76320 0.29550 0.04900
C 	C 	0.88300 0.72730 0.30893 -0.09800
C 	C 	0.88340 0.73370 0.33680 0.37300
C 	C 	0.88450 0.70260 0.30220 0.05000
H 	H 	0.88670 0.68990 0.31490 0.04200
C 	C 	0.88300 0.69569 0.27705 -0.10400
C 	C 	0.88360 0.66802 0.27010 0.39100
C 	C 	0.92453 0.85589 0.30218 0.38800
C 	C 	0.93866 0.84154 0.32238 -0.09500
C 	C 	0.92548 0.82584 0.33891 0.04300
H 	H 	0.90740 0.82520 0.33860 0.04800
C 	C 	0.93927 0.81099 0.35589 -0.10100
C 	C 	0.92571 0.79229 0.37251 0.40100
C 	C 	0.96546 0.81291 0.35711 -0.00600
H 	H 	0.97460 0.80310 0.36920 0.05300
C 	C 	0.96505 0.84303 0.32334 -0.00900
H 	H 	0.97380 0.85380 0.31180 0.05300
C 	C 	0.97850 0.82904 0.34080 0.00200
C 	C 	0.00731 0.83082 0.34241 -0.00300
C 	C 	0.02100 0.81695 0.36021 -0.00300
H 	H 	0.01220 0.80590 0.37150 0.05000
C 	C 	0.04744 0.81887 0.36181 -0.09800
O 	O 	0.08271 0.81034 0.38830 -0.45700
C 	C 	0.06039 0.83470 0.34543 0.05000
H 	H 	0.07830 0.83680 0.34700 0.03700
C 	C 	0.04711 0.84740 0.32680 -0.10100
C 	C 	0.06120 0.86200 0.30720 0.38000
C 	C 	0.02124 0.84530 0.32530 -0.00000
H 	H 	0.01250 0.85400 0.31210 0.04900
C 	C 	0.87050 0.93100 0.29880 0.38500
C 	C 	0.85330 0.94510 0.31690 -0.09100
C 	C 	0.83690 0.93122 0.33220 0.03100
H 	H 	0.83810 0.91320 0.33320 0.04700
C 	C 	0.81850 0.94433 0.34600 -0.08500
C 	C 	0.79850 0.93015 0.36050 0.36300
C 	C 	0.81790 0.97095 0.34510 -0.01500
H 	H 	0.80540 0.97970 0.35470 0.05300
C 	C 	0.85218 0.97182 0.31620 -0.01500
H 	H 	0.86350 0.98090 0.30550 0.05300
C 	C 	0.83501 0.98495 0.33080 0.00600
C 	C 	0.83356 0.01376 0.33030 -0.00500
C 	C 	0.85022 0.02835 0.31577 -0.00400
H 	H 	0.86290 0.02000 0.30590 0.04900
C 	C 	0.84884 0.05464 0.31528 -0.09800
C 	C 	0.86515 0.06979 0.29780 0.38200
C 	C 	0.83080 0.06715 0.32961 0.04200
H 	H 	0.83020 0.08520 0.33000 0.04700
C 	C 	0.81338 0.05246 0.34361 -0.10000
C 	C 	0.79214 0.06586 0.35741 0.40600
C 	C 	0.81468 0.02626 0.34350 -0.00300
H 	H 	0.80240 0.01670 0.35270 0.05100
C 	C 	0.93151 0.74630 0.45696 0.42000
C 	C 	0.94624 0.74720 0.48134 -0.11400
C 	C 	0.93314 0.74750 0.50421 0.05300
H 	H 	0.91510 0.74660 0.50440 0.04700
C 	C 	0.94632 0.74900 0.52643 -0.10900
C 	C 	0.93162 0.74920 0.55069 0.38700
C 	C 	0.97250 0.75000 0.52662 -0.00200
H 	H 	0.98130 0.75140 0.54230 0.04900
C 	C 	0.98598 0.74900 0.50383 -0.00500
C 	C 	0.97240 0.74840 0.48118 0.00100
H 	H 	0.98120 0.74890 0.46540 0.04900
O 	O 	0.86707 0.84533 0.22082 -0.48600
C 	C 	0.06176 0.80220 0.38005 0.38700
Zn	Zn	0.37890 0.37599 0.78024 1.22100
Zn	Zn	0.37437 0.38053 0.72280 1.21600
Zn	Zn	0.42790 0.37944 0.75101 1.21900
Zn	Zn	0.39437 0.42958 0.75020 1.22000
Zn	Zn	0.37313 0.26855 0.88138 1.21800
Zn	Zn	0.38376 0.20935 0.88776 1.22000
Zn	Zn	0.42855 0.24644 0.90219 1.22000
Zn	Zn	0.37974 0.24368 0.93576 1.22000
O 	O 	0.38302 0.33831 0.75911 -0.46200
O 	O 	0.37023 0.28185 0.65710 -0.47000
O 	O 	0.38467 0.24299 0.66534 -0.41200
O 	O 	0.37604 0.25524 0.84427 -0.44400
O 	O 	0.39310 0.21670 0.85089 -0.45900
O 	O 	0.38646 0.16219 0.74729 -0.47800
O 	O 	0.37960 0.15316 0.78820 -0.47800
O 	O 	0.40102 0.35969 0.80560 -0.46000
O 	O 	0.43710 0.36345 0.78346 -0.48700
O 	O 	0.40207 0.29365 0.87308 -0.46300
O 	O 	0.43939 0.27680 0.88442 -0.48700
O 	O 	0.55246 0.28107 0.88525 -0.47200
O 	O 	0.58122 0.37288 0.81300 -0.45500
O 	O 	0.55170 0.36070 0.78477 -0.47700
O 	O 	0.37479 0.40851 0.80306 -0.45900
O 	O 	0.37793 0.44362 0.77931 -0.48900
O 	O 	0.27657 0.44078 0.86100 -0.48500
O 	O 	0.30355 0.40919 0.86974 -0.41000
O 	O 	0.36438 0.59392 0.80126 -0.47900
O 	O 	0.37745 0.55812 0.78118 -0.48700
O 	O 	0.27334 0.55211 0.86254 -0.48700
O 	O 	0.29439 0.58841 0.86267 -0.45800
O 	O 	0.40836 0.24330 0.95932 -0.50700
O 	O 	0.44336 0.24781 0.93654 -0.49600
O 	O 	0.40782 0.24678 0.04881 -0.49300
O 	O 	0.44378 0.25155 0.07135 -0.48500
O 	O 	0.39243 0.24300 0.90179 -0.92400
O 	O 	0.39401 0.39306 0.75088 -0.94800
C 	C 	0.37580 0.33172 0.73830 0.39200
C 	C 	0.37670 0.30378 0.73170 -0.08800
C 	C 	0.37580 0.29671 0.70620 0.03000
H 	H 	0.37420 0.30930 0.69330 0.05500
C 	C 	0.37730 0.27135 0.69974 -0.08400
C 	C 	0.37780 0.26490 0.67182 0.36900
C 	C 	0.37890 0.25301 0.71860 -0.01500
H 	H 	0.37960 0.23560 0.71400 0.05300
C 	C 	0.37880 0.28524 0.75042 -0.01400
H 	H 	0.37990 0.29020 0.76770 0.05400
C 	C 	0.37940 0.25966 0.74427 0.00600
C 	C 	0.38050 0.23980 0.76454 -0.00500
C 	C 	0.38190 0.21433 0.75858 -0.00200
H 	H 	0.38210 0.20940 0.74120 0.04900
C 	C 	0.38070 0.24590 0.79045 -0.00400
H 	H 	0.37910 0.26320 0.79550 0.04900
C 	C 	0.38300 0.22730 0.80893 -0.09800
C 	C 	0.38340 0.23370 0.83680 0.37300
C 	C 	0.38450 0.20260 0.80220 0.05000
H 	H 	0.38670 0.18990 0.81490 0.04200
C 	C 	0.38300 0.19569 0.77705 -0.10400
C 	C 	0.38360 0.16802 0.77010 0.39100
C 	C 	0.42453 0.35589 0.80218 0.38800
C 	C 	0.43866 0.34154 0.82238 -0.09500
C 	C 	0.42548 0.32584 0.83891 0.04300
H 	H 	0.40740 0.32520 0.83860 0.04800
C 	C 	0.43927 0.31099 0.85589 -0.10100
C 	C 	0.42571 0.29229 0.87251 0.40100
C 	C 	0.46546 0.31291 0.85711 -0.00600
H 	H 	0.47460 0.30310 0.86920 0.05300
C 	C 	0.46505 0.34303 0.82334 -0.00900
H 	H 	0.47380 0.35380 0.81180 0.05300
C 	C 	0.47850 0.32904 0.84080 0.00200
C 	C 	0.50731 0.33082 0.84241 -0.00300
C 	C 	0.52100 0.31695 0.86021 -0.00300
H 	H 	0.51220 0.30590 0.87150 0.05000
C 	C 	0.54744 0.31887 0.86181 -0.09800
O 	O 	0.58271 0.31034 0.88830 -0.45700
C 	C 	0.56039 0.33470 0.84543 0.05000
H 	H 	0.57830 0.33680 0.84700 0.03700
C 	C 	0.54711 0.34740 0.82680 -0.10100
C 	C 	0.56120 0.36200 0.80720 0.38000
C 	C 	0.52124 0.34530 0.82530 -0.00000
H 	H 	0.51250 0.35400 0.81210 0.04900
C 	C 	0.37050 0.43100 0.79880 0.38500
C 	C 	0.35330 0.44510 0.81690 -0.09100
C 	C 	0.33690 0.43122 0.83220 0.03100
H 	H 	0.33810 0.41320 0.83320 0.04700
C 	C 	0.31850 0.44433 0.84600 -0.08500
C 	C 	0.29850 0.43015 0.86050 0.36300
C 	C 	0.31790 0.47095 0.84510 -0.01500
H 	H 	0.30540 0.47970 0.85470 0.05300
C 	C 	0.35218 0.47182 0.81620 -0.01500
H 	H 	0.36350 0.48090 0.80550 0.05300
C 	C 	0.33501 0.48495 0.83080 0.00600
C 	C 	0.33356 0.51376 0.83030 -0.00500
C 	C 	0.35022 0.52835 0.81577 -0.00400
H 	H 	0.36290 0.52000 0.80590 0.04900
C 	C 	0.34884 0.55464 0.81528 -0.09800
C 	C 	0.36515 0.56979 0.79780 0.38200
C 	C 	0.33080 0.56715 0.82961 0.04200
H 	H 	0.33020 0.58520 0.83000 0.04700
C 	C 	0.31338 0.55246 0.84361 -0.10000
C 	C 	0.29214 0.56586 0.85741 0.40600
C 	C 	0.31468 0.52626 0.84350 -0.00300
H 	H 	0.30240 0.51670 0.85270 0.05100
C 	C 	0.43151 0.24630 0.95696 0.42000
C 	C 	0.44624 0.24720 0.98134 -0.11400
C 	C 	0.43314 0.24750 0.00421 0.05300
H 	H 	0.41510 0.24660 0.00440 0.04700
C 	C 	0.44632 0.24900 0.02643 -0.10900
C 	C 	0.43162 0.24920 0.05069 0.38700
C 	C 	0.47250 0.25000 0.02662 -0.00200
H 	H 	0.48130 0.25140 0.04230 0.04900
C 	C 	0.48598 0.24900 0.00383 -0.00500
C 	C 	0.47240 0.24840 0.98118 0.00100
H 	H 	0.48120 0.24890 0.96540 0.04900
O 	O 	0.36707 0.34533 0.72082 -0.48600
C 	C 	0.56176 0.30220 0.88005 0.38700
