data_crystal

_cell_length_a 24.92390
_cell_length_b 24.92390
_cell_length_c 24.92390
_cell_angle_alpha 90.00000
_cell_angle_beta  90.00000
_cell_angle_gamma 90.00000

_symmetry_space_group_name_	'P 1'
_symmetry_space_group_name_H-M	'P 1'

loop_
_symmetry_equiv_pos_as_xyz
  x,y,z

loop_
_atom_site_label
_atom_site_type_symbol
_atom_site_fract_x
_atom_site_fract_y
_atom_site_fract_z
_atom_site_charge
Ni	Ni	0.08048 0.08987 0.17319 1.10400
Ni	Ni	0.16717 0.00013 0.18467 1.08300
Ni	Ni	0.12929 0.07022 0.43545 1.08400
Ni	Ni	0.02773 0.00438 0.40357 1.10300
W 	W 	0.14632 0.94559 0.05344 0.95000
W 	W 	0.05262 0.94290 0.95188 0.98600
W 	W 	0.15408 0.03758 0.95338 0.96800
W 	W 	0.97485 0.10682 0.64431 0.99300
W 	W 	0.08992 0.09962 0.56866 0.94400
W 	W 	0.05022 0.99048 0.63998 0.96300
W 	W 	0.10507 0.04908 0.29943 1.11700
O 	O 	0.16800 0.99820 0.09850 -0.58200
O 	O 	0.10465 0.99192 0.42658 -0.57000
O 	O 	0.08060 0.09760 0.25380 -0.52400
O 	O 	0.16100 0.08002 0.16962 -0.57000
O 	O 	0.08250 0.00600 0.17530 -0.59200
O 	O 	0.08580 0.01070 0.01630 -0.36600
O 	O 	0.08650 0.93000 0.10010 -0.45400
O 	O 	0.04590 0.08238 0.42430 -0.59200
O 	O 	0.11090 0.05290 0.51690 -0.58800
O 	O 	0.10030 0.04920 0.62390 -0.44700
O 	O 	0.94030 0.14340 0.58750 -0.44800
O 	O 	0.99900 0.92970 0.00540 -0.44600
O 	O 	0.98470 0.95260 0.63890 -0.45600
O 	O 	0.18220 0.97750 0.99350 -0.44700
O 	O 	0.13780 0.08340 0.35290 -0.51000
O 	O 	0.04020 0.13430 0.62200 -0.44000
O 	O 	0.01100 0.04880 0.67760 -0.42900
O 	O 	0.10300 0.90810 0.99650 -0.43000
O 	O 	0.05160 0.01100 0.32470 -0.52700
O 	O 	0.10920 0.98060 0.91790 -0.42600
O 	O 	0.15390 0.00810 0.26750 -0.51700
O 	O 	0.00770 0.04600 0.57310 -0.36800
N 	N 	0.17540 0.91740 0.19400 -0.36100
H 	H 	0.15360 0.90580 0.22030 0.09600
H 	H 	0.16620 0.90060 0.16340 0.08100
N 	N 	0.25000 0.99860 0.18570 -0.30700
H 	H 	0.26320 0.02060 0.16030 0.11200
H 	H 	0.26230 0.00950 0.21790 0.09600
N 	N 	0.20930 0.05420 0.44450 -0.26800
H 	H 	0.21440 0.02910 0.46990 0.09800
H 	H 	0.22340 0.04230 0.41350 0.09000
N 	N 	0.15330 0.14950 0.44900 -0.40000
H 	H 	0.14380 0.17030 0.42110 0.10600
H 	H 	0.13730 0.16230 0.47870 0.08200
C 	C 	0.23200 0.90530 0.20760 0.22000
H 	H 	0.23770 0.91230 0.24580 -0.05800
C 	C 	0.26680 0.94300 0.17540 -0.21200
H 	H 	0.30410 0.93850 0.18550 0.07900
H 	H 	0.26340 0.93510 0.13740 0.05700
C 	C 	0.24550 0.84680 0.19620 -0.64400
H 	H 	0.22420 0.82410 0.21880 0.19300
H 	H 	0.28290 0.84070 0.20330 0.18900
H 	H 	0.23800 0.83890 0.15920 0.18100
C 	C 	0.21100 0.15010 0.45560 0.43800
H 	H 	0.21840 0.15330 0.41710 -0.09400
C 	C 	0.23460 0.10470 0.46030 -0.44700
H 	H 	0.24430 0.10110 0.49780 0.12400
H 	H 	0.26790 0.10730 0.44040 0.15400
C 	C 	0.23670 0.20260 0.46970 -0.90600
H 	H 	0.27480 0.19800 0.47230 0.26500
H 	H 	0.22280 0.21500 0.50340 0.25500
H 	H 	0.22880 0.22850 0.44220 0.26800
Ni	Ni	0.41952 0.91013 0.67319 1.10300
Ni	Ni	0.33283 0.99987 0.68467 1.08200
Ni	Ni	0.37071 0.92978 0.93545 1.08300
Ni	Ni	0.47227 0.99562 0.90357 1.10100
W 	W 	0.35368 0.05441 0.55344 0.94900
W 	W 	0.44738 0.05710 0.45188 0.98500
W 	W 	0.34592 0.96242 0.45338 0.96600
W 	W 	0.52515 0.89318 0.14431 0.99200
W 	W 	0.41008 0.90038 0.06866 0.94300
W 	W 	0.44978 0.00952 0.13998 0.96100
W 	W 	0.39493 0.95092 0.79943 1.11600
O 	O 	0.33200 0.00180 0.59850 -0.58200
O 	O 	0.39535 0.00808 0.92658 -0.57000
O 	O 	0.41940 0.90240 0.75380 -0.52400
O 	O 	0.33900 0.91998 0.66962 -0.57000
O 	O 	0.41750 0.99400 0.67530 -0.59100
O 	O 	0.41420 0.98930 0.51630 -0.36600
O 	O 	0.41350 0.07000 0.60010 -0.45400
O 	O 	0.45410 0.91762 0.92430 -0.59200
O 	O 	0.38910 0.94710 0.01690 -0.58800
O 	O 	0.39970 0.95080 0.12390 -0.44700
O 	O 	0.55970 0.85660 0.08750 -0.44800
O 	O 	0.50100 0.07030 0.50540 -0.44500
O 	O 	0.51530 0.04740 0.13890 -0.45600
O 	O 	0.31780 0.02250 0.49350 -0.44700
O 	O 	0.36220 0.91660 0.85290 -0.51000
O 	O 	0.45980 0.86570 0.12200 -0.43900
O 	O 	0.48900 0.95120 0.17760 -0.42900
O 	O 	0.39700 0.09190 0.49650 -0.43000
O 	O 	0.44840 0.98900 0.82470 -0.52700
O 	O 	0.39080 0.01940 0.41790 -0.42600
O 	O 	0.34610 0.99190 0.76750 -0.51700
O 	O 	0.49230 0.95400 0.07310 -0.36700
N 	N 	0.32460 0.08260 0.69400 -0.36100
H 	H 	0.34640 0.09420 0.72030 0.09600
H 	H 	0.33380 0.09940 0.66340 0.08100
N 	N 	0.25000 0.00140 0.68570 -0.30700
H 	H 	0.23680 0.97940 0.66030 0.11200
H 	H 	0.23770 0.99050 0.71790 0.09600
N 	N 	0.29070 0.94580 0.94450 -0.26800
H 	H 	0.28560 0.97090 0.96990 0.09800
H 	H 	0.27660 0.95770 0.91350 0.09000
N 	N 	0.34670 0.85050 0.94900 -0.40000
H 	H 	0.35620 0.82970 0.92110 0.10600
H 	H 	0.36270 0.83770 0.97870 0.08200
C 	C 	0.26800 0.09470 0.70760 0.22000
H 	H 	0.26230 0.08770 0.74580 -0.05800
C 	C 	0.23320 0.05700 0.67540 -0.21200
H 	H 	0.19590 0.06150 0.68550 0.07900
H 	H 	0.23660 0.06490 0.63740 0.05700
C 	C 	0.25450 0.15320 0.69620 -0.64400
H 	H 	0.27580 0.17590 0.71880 0.19300
H 	H 	0.21710 0.15930 0.70330 0.18900
H 	H 	0.26200 0.16110 0.65920 0.18100
C 	C 	0.28900 0.84990 0.95560 0.43800
H 	H 	0.28160 0.84670 0.91710 -0.09400
C 	C 	0.26540 0.89530 0.96030 -0.44700
H 	H 	0.25570 0.89890 0.99780 0.12400
H 	H 	0.23210 0.89270 0.94040 0.15400
C 	C 	0.26330 0.79740 0.96970 -0.90700
H 	H 	0.22520 0.80200 0.97230 0.26500
H 	H 	0.27720 0.78500 0.00340 0.25500
H 	H 	0.27120 0.77150 0.94220 0.26900
Ni	Ni	0.91952 0.58987 0.32681 1.10300
Ni	Ni	0.83283 0.50013 0.31533 1.08300
Ni	Ni	0.87071 0.57022 0.06455 1.08300
Ni	Ni	0.97227 0.50438 0.09643 1.10200
W 	W 	0.85368 0.44559 0.44656 0.94900
W 	W 	0.94738 0.44290 0.54811 0.98500
W 	W 	0.84592 0.53758 0.54662 0.96600
W 	W 	0.02515 0.60682 0.85569 0.99300
W 	W 	0.91008 0.59962 0.93134 0.94300
W 	W 	0.94978 0.49048 0.86002 0.96200
W 	W 	0.89493 0.54908 0.20057 1.11600
O 	O 	0.83200 0.49820 0.40150 -0.58200
O 	O 	0.89535 0.49192 0.07342 -0.57000
O 	O 	0.91940 0.59760 0.24620 -0.52400
O 	O 	0.83900 0.58002 0.33038 -0.57000
O 	O 	0.91750 0.50600 0.32470 -0.59100
O 	O 	0.91420 0.51070 0.48370 -0.36600
O 	O 	0.91350 0.43000 0.39990 -0.45400
O 	O 	0.95410 0.58238 0.07570 -0.59200
O 	O 	0.88910 0.55290 0.98310 -0.58800
O 	O 	0.89970 0.54920 0.87610 -0.44700
O 	O 	0.05970 0.64340 0.91250 -0.44800
O 	O 	0.00100 0.42970 0.49460 -0.44600
O 	O 	0.01530 0.45260 0.86110 -0.45500
O 	O 	0.81780 0.47750 0.50650 -0.44600
O 	O 	0.86220 0.58340 0.14710 -0.51000
O 	O 	0.95980 0.63430 0.87800 -0.44000
O 	O 	0.98900 0.54880 0.82240 -0.43000
O 	O 	0.89700 0.40810 0.50350 -0.43000
O 	O 	0.94840 0.51100 0.17530 -0.52700
O 	O 	0.89080 0.48060 0.58210 -0.42600
O 	O 	0.84610 0.50810 0.23250 -0.51600
O 	O 	0.99230 0.54600 0.92690 -0.36800
N 	N 	0.82460 0.41740 0.30600 -0.36100
H 	H 	0.84640 0.40580 0.27970 0.09600
H 	H 	0.83380 0.40060 0.33660 0.08100
N 	N 	0.75000 0.49860 0.31430 -0.30800
H 	H 	0.73680 0.52060 0.33970 0.11200
H 	H 	0.73770 0.50950 0.28210 0.09600
N 	N 	0.79070 0.55420 0.05550 -0.26800
H 	H 	0.78560 0.52910 0.03010 0.09800
H 	H 	0.77660 0.54230 0.08650 0.09000
N 	N 	0.84670 0.64950 0.05100 -0.39900
H 	H 	0.85620 0.67030 0.07890 0.10600
H 	H 	0.86270 0.66230 0.02130 0.08200
C 	C 	0.76800 0.40530 0.29240 0.22000
H 	H 	0.76230 0.41230 0.25420 -0.05800
C 	C 	0.73320 0.44300 0.32460 -0.21200
H 	H 	0.69590 0.43850 0.31450 0.07900
H 	H 	0.73660 0.43510 0.36260 0.05700
C 	C 	0.75450 0.34680 0.30380 -0.64400
H 	H 	0.77580 0.32410 0.28120 0.19300
H 	H 	0.71710 0.34070 0.29670 0.18900
H 	H 	0.76200 0.33890 0.34080 0.18100
C 	C 	0.78900 0.65010 0.04440 0.43600
H 	H 	0.78160 0.65330 0.08290 -0.09400
C 	C 	0.76540 0.60470 0.03970 -0.44500
H 	H 	0.75570 0.60110 0.00220 0.12400
H 	H 	0.73210 0.60730 0.05960 0.15300
C 	C 	0.76330 0.70260 0.03030 -0.90200
H 	H 	0.72520 0.69800 0.02770 0.26400
H 	H 	0.77720 0.71500 0.99660 0.25300
H 	H 	0.77120 0.72850 0.05780 0.26700
Ni	Ni	0.58048 0.41013 0.82681 1.10300
Ni	Ni	0.66717 0.49987 0.81533 1.08300
Ni	Ni	0.62929 0.42978 0.56455 1.08300
Ni	Ni	0.52773 0.49562 0.59643 1.10200
W 	W 	0.64632 0.55441 0.94656 0.94900
W 	W 	0.55262 0.55710 0.04811 0.98500
W 	W 	0.65408 0.46242 0.04662 0.96600
W 	W 	0.47485 0.39318 0.35569 0.99200
W 	W 	0.58992 0.40038 0.43134 0.94300
W 	W 	0.55022 0.50952 0.36002 0.96200
W 	W 	0.60507 0.45092 0.70057 1.11600
O 	O 	0.66800 0.50180 0.90150 -0.58200
O 	O 	0.60465 0.50808 0.57342 -0.57000
O 	O 	0.58060 0.40240 0.74620 -0.52400
O 	O 	0.66100 0.41998 0.83038 -0.57000
O 	O 	0.58250 0.49400 0.82470 -0.59100
O 	O 	0.58580 0.48930 0.98370 -0.36600
O 	O 	0.58650 0.57000 0.89990 -0.45400
O 	O 	0.54590 0.41762 0.57570 -0.59200
O 	O 	0.61090 0.44710 0.48310 -0.58800
O 	O 	0.60030 0.45080 0.37610 -0.44700
O 	O 	0.44030 0.35660 0.41250 -0.44800
O 	O 	0.49900 0.57030 0.99460 -0.44600
O 	O 	0.48470 0.54740 0.36110 -0.45600
O 	O 	0.68220 0.52250 0.00650 -0.44600
O 	O 	0.63780 0.41660 0.64710 -0.51000
O 	O 	0.54020 0.36570 0.37800 -0.43900
O 	O 	0.51100 0.45120 0.32240 -0.42900
O 	O 	0.60300 0.59190 0.00350 -0.43000
O 	O 	0.55160 0.48900 0.67530 -0.52700
O 	O 	0.60920 0.51940 0.08210 -0.42600
O 	O 	0.65390 0.49190 0.73250 -0.51600
O 	O 	0.50770 0.45400 0.42690 -0.36700
N 	N 	0.67540 0.58260 0.80600 -0.36100
H 	H 	0.65360 0.59420 0.77970 0.09600
H 	H 	0.66620 0.59940 0.83660 0.08100
N 	N 	0.75000 0.50140 0.81430 -0.30800
H 	H 	0.76320 0.47940 0.83970 0.11200
H 	H 	0.76230 0.49050 0.78210 0.09600
N 	N 	0.70930 0.44580 0.55550 -0.26800
H 	H 	0.71440 0.47090 0.53010 0.09800
H 	H 	0.72340 0.45770 0.58650 0.09000
N 	N 	0.65330 0.35050 0.55100 -0.40000
H 	H 	0.64380 0.32970 0.57890 0.10600
H 	H 	0.63730 0.33770 0.52130 0.08200
C 	C 	0.73200 0.59470 0.79240 0.22000
H 	H 	0.73770 0.58770 0.75420 -0.05800
C 	C 	0.76680 0.55700 0.82460 -0.21200
H 	H 	0.80410 0.56150 0.81450 0.07900
H 	H 	0.76340 0.56490 0.86260 0.05700
C 	C 	0.74550 0.65320 0.80380 -0.64300
H 	H 	0.72420 0.67590 0.78120 0.19300
H 	H 	0.78290 0.65930 0.79670 0.18900
H 	H 	0.73800 0.66110 0.84080 0.18100
C 	C 	0.71100 0.34990 0.54440 0.43800
H 	H 	0.71840 0.34670 0.58290 -0.09400
C 	C 	0.73460 0.39530 0.53970 -0.44700
H 	H 	0.74430 0.39890 0.50220 0.12400
H 	H 	0.76790 0.39270 0.55960 0.15400
C 	C 	0.73670 0.29740 0.53030 -0.90600
H 	H 	0.77480 0.30200 0.52770 0.26500
H 	H 	0.72280 0.28500 0.49660 0.25500
H 	H 	0.72880 0.27150 0.55780 0.26800
Ni	Ni	0.17319 0.08048 0.08987 1.10300
Ni	Ni	0.18467 0.16717 0.00013 1.08200
Ni	Ni	0.43545 0.12929 0.07022 1.08300
Ni	Ni	0.40357 0.02773 0.00438 1.10200
W 	W 	0.05344 0.14632 0.94559 0.94900
W 	W 	0.95188 0.05262 0.94290 0.98500
W 	W 	0.95338 0.15408 0.03758 0.96700
W 	W 	0.64431 0.97485 0.10682 0.99200
W 	W 	0.56866 0.08992 0.09962 0.94300
W 	W 	0.63998 0.05022 0.99048 0.96200
W 	W 	0.29943 0.10507 0.04908 1.11600
O 	O 	0.09850 0.16800 0.99820 -0.58200
O 	O 	0.42658 0.10465 0.99192 -0.57000
O 	O 	0.25380 0.08060 0.09760 -0.52400
O 	O 	0.16962 0.16100 0.08002 -0.57000
O 	O 	0.17530 0.08250 0.00600 -0.59200
O 	O 	0.01630 0.08580 0.01070 -0.36600
O 	O 	0.10010 0.08650 0.93000 -0.45400
O 	O 	0.42430 0.04590 0.08238 -0.59200
O 	O 	0.51690 0.11090 0.05290 -0.58800
O 	O 	0.62390 0.10030 0.04920 -0.44700
O 	O 	0.58750 0.94030 0.14340 -0.44800
O 	O 	0.00540 0.99900 0.92970 -0.44600
O 	O 	0.63890 0.98470 0.95260 -0.45600
O 	O 	0.99350 0.18220 0.97750 -0.44700
O 	O 	0.35290 0.13780 0.08340 -0.51000
O 	O 	0.62200 0.04020 0.13430 -0.44000
O 	O 	0.67760 0.01100 0.04880 -0.42900
O 	O 	0.99650 0.10300 0.90810 -0.43000
O 	O 	0.32470 0.05160 0.01100 -0.52700
O 	O 	0.91790 0.10920 0.98060 -0.42600
O 	O 	0.26750 0.15390 0.00810 -0.51700
O 	O 	0.57310 0.00770 0.04600 -0.36800
N 	N 	0.19400 0.17540 0.91740 -0.36100
H 	H 	0.22030 0.15360 0.90580 0.09600
H 	H 	0.16340 0.16620 0.90060 0.08100
N 	N 	0.18570 0.25000 0.99860 -0.30700
H 	H 	0.16030 0.26320 0.02060 0.11200
H 	H 	0.21790 0.26230 0.00950 0.09600
N 	N 	0.44450 0.20930 0.05420 -0.26800
H 	H 	0.46990 0.21440 0.02910 0.09800
H 	H 	0.41350 0.22340 0.04230 0.09000
N 	N 	0.44900 0.15330 0.14950 -0.40000
H 	H 	0.42110 0.14380 0.17030 0.10600
H 	H 	0.47870 0.13730 0.16230 0.08200
C 	C 	0.20760 0.23200 0.90530 0.22000
H 	H 	0.24580 0.23770 0.91230 -0.05800
C 	C 	0.17540 0.26680 0.94300 -0.21200
H 	H 	0.18550 0.30410 0.93850 0.07900
H 	H 	0.13740 0.26340 0.93510 0.05700
C 	C 	0.19620 0.24550 0.84680 -0.64400
H 	H 	0.21880 0.22420 0.82410 0.19300
H 	H 	0.20330 0.28290 0.84070 0.18900
H 	H 	0.15920 0.23800 0.83890 0.18100
C 	C 	0.45560 0.21100 0.15010 0.43800
H 	H 	0.41710 0.21840 0.15330 -0.09400
C 	C 	0.46030 0.23460 0.10470 -0.44700
H 	H 	0.49780 0.24430 0.10110 0.12400
H 	H 	0.44040 0.26790 0.10730 0.15400
C 	C 	0.46970 0.23670 0.20260 -0.90600
H 	H 	0.47230 0.27480 0.19800 0.26500
H 	H 	0.50340 0.22280 0.21500 0.25500
H 	H 	0.44220 0.22880 0.22850 0.26800
Ni	Ni	0.67319 0.41952 0.91013 1.10300
Ni	Ni	0.68467 0.33283 0.99987 1.08200
Ni	Ni	0.93545 0.37071 0.92978 1.08300
Ni	Ni	0.90357 0.47227 0.99562 1.10100
W 	W 	0.55344 0.35368 0.05441 0.94900
W 	W 	0.45189 0.44738 0.05710 0.98500
W 	W 	0.45338 0.34592 0.96242 0.96600
W 	W 	0.14431 0.52515 0.89318 0.99200
W 	W 	0.06866 0.41008 0.90038 0.94300
W 	W 	0.13998 0.44978 0.00952 0.96100
W 	W 	0.79943 0.39493 0.95092 1.11600
O 	O 	0.59850 0.33200 0.00180 -0.58200
O 	O 	0.92658 0.39535 0.00808 -0.57000
O 	O 	0.75380 0.41940 0.90240 -0.52400
O 	O 	0.66962 0.33900 0.91998 -0.57000
O 	O 	0.67530 0.41750 0.99400 -0.59100
O 	O 	0.51630 0.41420 0.98930 -0.36600
O 	O 	0.60010 0.41350 0.07000 -0.45400
O 	O 	0.92430 0.45410 0.91762 -0.59200
O 	O 	0.01690 0.38910 0.94710 -0.58800
O 	O 	0.12390 0.39970 0.95080 -0.44700
O 	O 	0.08750 0.55970 0.85660 -0.44800
O 	O 	0.50540 0.50100 0.07030 -0.44500
O 	O 	0.13890 0.51530 0.04740 -0.45600
O 	O 	0.49350 0.31780 0.02250 -0.44700
O 	O 	0.85290 0.36220 0.91660 -0.51000
O 	O 	0.12200 0.45980 0.86570 -0.43900
O 	O 	0.17760 0.48900 0.95120 -0.42900
O 	O 	0.49650 0.39700 0.09190 -0.43000
O 	O 	0.82470 0.44840 0.98900 -0.52700
O 	O 	0.41790 0.39080 0.01940 -0.42600
O 	O 	0.76750 0.34610 0.99190 -0.51700
O 	O 	0.07310 0.49230 0.95400 -0.36700
N 	N 	0.69400 0.32460 0.08260 -0.36100
H 	H 	0.72030 0.34640 0.09420 0.09600
H 	H 	0.66340 0.33380 0.09940 0.08100
N 	N 	0.68570 0.25000 0.00140 -0.30700
H 	H 	0.66030 0.23680 0.97940 0.11200
H 	H 	0.71790 0.23770 0.99050 0.09600
N 	N 	0.94450 0.29070 0.94580 -0.26800
H 	H 	0.96990 0.28560 0.97090 0.09800
H 	H 	0.91350 0.27660 0.95770 0.09000
N 	N 	0.94900 0.34670 0.85050 -0.40000
H 	H 	0.92110 0.35620 0.82970 0.10600
H 	H 	0.97870 0.36270 0.83770 0.08200
C 	C 	0.70760 0.26800 0.09470 0.22000
H 	H 	0.74580 0.26230 0.08770 -0.05800
C 	C 	0.67540 0.23320 0.05700 -0.21200
H 	H 	0.68550 0.19590 0.06150 0.07900
H 	H 	0.63740 0.23660 0.06490 0.05700
C 	C 	0.69620 0.25450 0.15320 -0.64400
H 	H 	0.71880 0.27580 0.17590 0.19300
H 	H 	0.70330 0.21710 0.15930 0.18900
H 	H 	0.65920 0.26200 0.16110 0.18100
C 	C 	0.95560 0.28900 0.84990 0.43800
H 	H 	0.91710 0.28160 0.84670 -0.09400
C 	C 	0.96030 0.26540 0.89530 -0.44700
H 	H 	0.99780 0.25570 0.89890 0.12400
H 	H 	0.94040 0.23210 0.89270 0.15400
C 	C 	0.96970 0.26330 0.79740 -0.90700
H 	H 	0.97230 0.22520 0.80200 0.26500
H 	H 	0.00340 0.27720 0.78500 0.25500
H 	H 	0.94220 0.27120 0.77150 0.26900
Ni	Ni	0.32681 0.91952 0.58987 1.10300
Ni	Ni	0.31533 0.83283 0.50013 1.08300
Ni	Ni	0.06455 0.87071 0.57022 1.08300
Ni	Ni	0.09643 0.97227 0.50438 1.10200
W 	W 	0.44656 0.85368 0.44559 0.94900
W 	W 	0.54811 0.94738 0.44290 0.98500
W 	W 	0.54662 0.84592 0.53758 0.96600
W 	W 	0.85569 0.02515 0.60682 0.99300
W 	W 	0.93134 0.91008 0.59962 0.94300
W 	W 	0.86002 0.94978 0.49048 0.96200
W 	W 	0.20057 0.89493 0.54908 1.11600
O 	O 	0.40150 0.83200 0.49820 -0.58200
O 	O 	0.07342 0.89535 0.49192 -0.57000
O 	O 	0.24620 0.91940 0.59760 -0.52400
O 	O 	0.33038 0.83900 0.58002 -0.57000
O 	O 	0.32470 0.91750 0.50600 -0.59100
O 	O 	0.48370 0.91420 0.51070 -0.36600
O 	O 	0.39990 0.91350 0.43000 -0.45400
O 	O 	0.07570 0.95410 0.58238 -0.59200
O 	O 	0.98310 0.88910 0.55290 -0.58800
O 	O 	0.87610 0.89970 0.54920 -0.44700
O 	O 	0.91250 0.05970 0.64340 -0.44800
O 	O 	0.49460 0.00100 0.42970 -0.44600
O 	O 	0.86110 0.01530 0.45260 -0.45500
O 	O 	0.50650 0.81780 0.47750 -0.44600
O 	O 	0.14710 0.86220 0.58340 -0.51000
O 	O 	0.87800 0.95980 0.63430 -0.44000
O 	O 	0.82240 0.98900 0.54880 -0.43000
O 	O 	0.50350 0.89700 0.40810 -0.43000
O 	O 	0.17530 0.94840 0.51100 -0.52700
O 	O 	0.58210 0.89080 0.48060 -0.42600
O 	O 	0.23250 0.84610 0.50810 -0.51600
O 	O 	0.92690 0.99230 0.54600 -0.36800
N 	N 	0.30600 0.82460 0.41740 -0.36100
H 	H 	0.27970 0.84640 0.40580 0.09600
H 	H 	0.33660 0.83380 0.40060 0.08100
N 	N 	0.31430 0.75000 0.49860 -0.30800
H 	H 	0.33970 0.73680 0.52060 0.11200
H 	H 	0.28210 0.73770 0.50950 0.09600
N 	N 	0.05550 0.79070 0.55420 -0.26800
H 	H 	0.03010 0.78560 0.52910 0.09800
H 	H 	0.08650 0.77660 0.54230 0.09000
N 	N 	0.05100 0.84670 0.64950 -0.39900
H 	H 	0.07890 0.85620 0.67030 0.10600
H 	H 	0.02130 0.86270 0.66230 0.08200
C 	C 	0.29240 0.76800 0.40530 0.22000
H 	H 	0.25420 0.76230 0.41230 -0.05800
C 	C 	0.32460 0.73320 0.44300 -0.21200
H 	H 	0.31450 0.69590 0.43850 0.07900
H 	H 	0.36260 0.73660 0.43510 0.05700
C 	C 	0.30380 0.75450 0.34680 -0.64400
H 	H 	0.28120 0.77580 0.32410 0.19300
H 	H 	0.29670 0.71710 0.34070 0.18900
H 	H 	0.34080 0.76200 0.33890 0.18100
C 	C 	0.04440 0.78900 0.65010 0.43600
H 	H 	0.08290 0.78160 0.65330 -0.09400
C 	C 	0.03970 0.76540 0.60470 -0.44500
H 	H 	0.00220 0.75570 0.60110 0.12400
H 	H 	0.05960 0.73210 0.60730 0.15300
C 	C 	0.03030 0.76330 0.70260 -0.90200
H 	H 	0.02770 0.72520 0.69800 0.26400
H 	H 	0.99660 0.77720 0.71500 0.25300
H 	H 	0.05780 0.77120 0.72850 0.26700
Ni	Ni	0.82681 0.58048 0.41013 1.10300
Ni	Ni	0.81533 0.66717 0.49987 1.08300
Ni	Ni	0.56455 0.62929 0.42978 1.08300
Ni	Ni	0.59643 0.52773 0.49562 1.10200
W 	W 	0.94656 0.64632 0.55441 0.94900
W 	W 	0.04811 0.55262 0.55710 0.98500
W 	W 	0.04662 0.65408 0.46242 0.96600
W 	W 	0.35569 0.47485 0.39318 0.99200
W 	W 	0.43134 0.58992 0.40038 0.94300
W 	W 	0.36002 0.55022 0.50952 0.96200
W 	W 	0.70057 0.60507 0.45092 1.11600
O 	O 	0.90150 0.66800 0.50180 -0.58200
O 	O 	0.57342 0.60465 0.50808 -0.57000
O 	O 	0.74620 0.58060 0.40240 -0.52400
O 	O 	0.83038 0.66100 0.41998 -0.57000
O 	O 	0.82470 0.58250 0.49400 -0.59100
O 	O 	0.98370 0.58580 0.48930 -0.36600
O 	O 	0.89990 0.58650 0.57000 -0.45400
O 	O 	0.57570 0.54590 0.41762 -0.59200
O 	O 	0.48310 0.61090 0.44710 -0.58800
O 	O 	0.37610 0.60030 0.45080 -0.44700
O 	O 	0.41250 0.44030 0.35660 -0.44800
O 	O 	0.99460 0.49900 0.57030 -0.44600
O 	O 	0.36110 0.48470 0.54740 -0.45600
O 	O 	0.00650 0.68220 0.52250 -0.44600
O 	O 	0.64710 0.63780 0.41660 -0.51000
O 	O 	0.37800 0.54020 0.36570 -0.43900
O 	O 	0.32240 0.51100 0.45120 -0.42900
O 	O 	0.00350 0.60300 0.59190 -0.43000
O 	O 	0.67530 0.55160 0.48900 -0.52700
O 	O 	0.08210 0.60920 0.51940 -0.42600
O 	O 	0.73250 0.65390 0.49190 -0.51600
O 	O 	0.42690 0.50770 0.45400 -0.36700
N 	N 	0.80600 0.67540 0.58260 -0.36100
H 	H 	0.77970 0.65360 0.59420 0.09600
H 	H 	0.83660 0.66620 0.59940 0.08100
N 	N 	0.81430 0.75000 0.50140 -0.30800
H 	H 	0.83970 0.76320 0.47940 0.11200
H 	H 	0.78210 0.76230 0.49050 0.09600
N 	N 	0.55550 0.70930 0.44580 -0.26800
H 	H 	0.53010 0.71440 0.47090 0.09800
H 	H 	0.58650 0.72340 0.45770 0.09000
N 	N 	0.55100 0.65330 0.35050 -0.40000
H 	H 	0.57890 0.64380 0.32970 0.10600
H 	H 	0.52130 0.63730 0.33770 0.08200
C 	C 	0.79240 0.73200 0.59470 0.22000
H 	H 	0.75420 0.73770 0.58770 -0.05800
C 	C 	0.82460 0.76680 0.55700 -0.21200
H 	H 	0.81450 0.80410 0.56150 0.07900
H 	H 	0.86260 0.76340 0.56490 0.05700
C 	C 	0.80380 0.74550 0.65320 -0.64300
H 	H 	0.78120 0.72420 0.67590 0.19300
H 	H 	0.79670 0.78290 0.65930 0.18900
H 	H 	0.84080 0.73800 0.66110 0.18100
C 	C 	0.54440 0.71100 0.34990 0.43800
H 	H 	0.58290 0.71840 0.34670 -0.09400
C 	C 	0.53970 0.73460 0.39530 -0.44700
H 	H 	0.50220 0.74430 0.39890 0.12400
H 	H 	0.55960 0.76790 0.39270 0.15400
C 	C 	0.53030 0.73670 0.29740 -0.90600
H 	H 	0.52770 0.77480 0.30200 0.26500
H 	H 	0.49660 0.72280 0.28500 0.25500
H 	H 	0.55780 0.72880 0.27150 0.26800
Ni	Ni	0.08987 0.17319 0.08048 1.10300
Ni	Ni	0.00013 0.18467 0.16717 1.08200
Ni	Ni	0.07022 0.43545 0.12929 1.08300
Ni	Ni	0.00438 0.40357 0.02773 1.10200
W 	W 	0.94559 0.05344 0.14632 0.94900
W 	W 	0.94290 0.95188 0.05262 0.98500
W 	W 	0.03758 0.95338 0.15408 0.96700
W 	W 	0.10682 0.64431 0.97485 0.99200
W 	W 	0.09962 0.56866 0.08992 0.94300
W 	W 	0.99048 0.63998 0.05022 0.96200
W 	W 	0.04908 0.29943 0.10507 1.11600
O 	O 	0.99820 0.09850 0.16800 -0.58200
O 	O 	0.99192 0.42658 0.10465 -0.57000
O 	O 	0.09760 0.25380 0.08060 -0.52400
O 	O 	0.08002 0.16962 0.16100 -0.57000
O 	O 	0.00600 0.17530 0.08250 -0.59200
O 	O 	0.01070 0.01630 0.08580 -0.36600
O 	O 	0.93000 0.10010 0.08650 -0.45400
O 	O 	0.08238 0.42430 0.04590 -0.59200
O 	O 	0.05290 0.51690 0.11090 -0.58800
O 	O 	0.04920 0.62390 0.10030 -0.44700
O 	O 	0.14340 0.58750 0.94030 -0.44800
O 	O 	0.92970 0.00540 0.99900 -0.44600
O 	O 	0.95260 0.63890 0.98470 -0.45600
O 	O 	0.97750 0.99350 0.18220 -0.44700
O 	O 	0.08340 0.35290 0.13780 -0.51000
O 	O 	0.13430 0.62200 0.04020 -0.44000
O 	O 	0.04880 0.67760 0.01100 -0.42900
O 	O 	0.90810 0.99650 0.10300 -0.43000
O 	O 	0.01100 0.32470 0.05160 -0.52700
O 	O 	0.98060 0.91790 0.10920 -0.42600
O 	O 	0.00810 0.26750 0.15390 -0.51700
O 	O 	0.04600 0.57310 0.00770 -0.36800
N 	N 	0.91740 0.19400 0.17540 -0.36100
H 	H 	0.90580 0.22030 0.15360 0.09600
H 	H 	0.90060 0.16340 0.16620 0.08100
N 	N 	0.99860 0.18570 0.25000 -0.30700
H 	H 	0.02060 0.16030 0.26320 0.11200
H 	H 	0.00950 0.21790 0.26230 0.09600
N 	N 	0.05420 0.44450 0.20930 -0.26800
H 	H 	0.02910 0.46990 0.21440 0.09800
H 	H 	0.04230 0.41350 0.22340 0.09000
N 	N 	0.14950 0.44900 0.15330 -0.40000
H 	H 	0.17030 0.42110 0.14380 0.10600
H 	H 	0.16230 0.47870 0.13730 0.08200
C 	C 	0.90530 0.20760 0.23200 0.22000
H 	H 	0.91230 0.24580 0.23770 -0.05800
C 	C 	0.94300 0.17540 0.26680 -0.21200
H 	H 	0.93850 0.18550 0.30410 0.07900
H 	H 	0.93510 0.13740 0.26340 0.05700
C 	C 	0.84680 0.19620 0.24550 -0.64400
H 	H 	0.82410 0.21880 0.22420 0.19300
H 	H 	0.84070 0.20330 0.28290 0.18900
H 	H 	0.83890 0.15920 0.23800 0.18100
C 	C 	0.15010 0.45560 0.21100 0.43800
H 	H 	0.15330 0.41710 0.21840 -0.09400
C 	C 	0.10470 0.46030 0.23460 -0.44700
H 	H 	0.10110 0.49780 0.24430 0.12400
H 	H 	0.10730 0.44040 0.26790 0.15400
C 	C 	0.20260 0.46970 0.23670 -0.90600
H 	H 	0.19800 0.47230 0.27480 0.26500
H 	H 	0.21500 0.50340 0.22280 0.25500
H 	H 	0.22850 0.44220 0.22880 0.26800
Ni	Ni	0.91013 0.67319 0.41952 1.10300
Ni	Ni	0.99987 0.68467 0.33283 1.08200
Ni	Ni	0.92978 0.93545 0.37071 1.08300
Ni	Ni	0.99562 0.90357 0.47227 1.10100
W 	W 	0.05441 0.55344 0.35368 0.94900
W 	W 	0.05710 0.45188 0.44738 0.98500
W 	W 	0.96242 0.45338 0.34592 0.96600
W 	W 	0.89318 0.14431 0.52515 0.99200
W 	W 	0.90038 0.06866 0.41008 0.94300
W 	W 	0.00952 0.13998 0.44978 0.96100
W 	W 	0.95092 0.79943 0.39493 1.11600
O 	O 	0.00180 0.59850 0.33200 -0.58200
O 	O 	0.00808 0.92658 0.39535 -0.57000
O 	O 	0.90240 0.75380 0.41940 -0.52400
O 	O 	0.91998 0.66962 0.33900 -0.57000
O 	O 	0.99400 0.67530 0.41750 -0.59100
O 	O 	0.98930 0.51630 0.41420 -0.36600
O 	O 	0.07000 0.60010 0.41350 -0.45400
O 	O 	0.91762 0.92430 0.45410 -0.59200
O 	O 	0.94710 0.01690 0.38910 -0.58800
O 	O 	0.95080 0.12390 0.39970 -0.44700
O 	O 	0.85660 0.08750 0.55970 -0.44800
O 	O 	0.07030 0.50540 0.50100 -0.44500
O 	O 	0.04740 0.13890 0.51530 -0.45600
O 	O 	0.02250 0.49350 0.31780 -0.44700
O 	O 	0.91660 0.85290 0.36220 -0.51000
O 	O 	0.86570 0.12200 0.45980 -0.43900
O 	O 	0.95120 0.17760 0.48900 -0.42900
O 	O 	0.09190 0.49650 0.39700 -0.43000
O 	O 	0.98900 0.82470 0.44840 -0.52700
O 	O 	0.01940 0.41790 0.39080 -0.42600
O 	O 	0.99190 0.76750 0.34610 -0.51700
O 	O 	0.95400 0.07310 0.49230 -0.36700
N 	N 	0.08260 0.69400 0.32460 -0.36100
H 	H 	0.09420 0.72030 0.34640 0.09600
H 	H 	0.09940 0.66340 0.33380 0.08100
N 	N 	0.00140 0.68570 0.25000 -0.30700
H 	H 	0.97940 0.66030 0.23680 0.11200
H 	H 	0.99050 0.71790 0.23770 0.09600
N 	N 	0.94580 0.94450 0.29070 -0.26800
H 	H 	0.97090 0.96990 0.28560 0.09800
H 	H 	0.95770 0.91350 0.27660 0.09000
N 	N 	0.85050 0.94900 0.34670 -0.40000
H 	H 	0.82970 0.92110 0.35620 0.10600
H 	H 	0.83770 0.97870 0.36270 0.08200
C 	C 	0.09470 0.70760 0.26800 0.22000
H 	H 	0.08770 0.74580 0.26230 -0.05800
C 	C 	0.05700 0.67540 0.23320 -0.21200
H 	H 	0.06150 0.68550 0.19590 0.07900
H 	H 	0.06490 0.63740 0.23660 0.05700
C 	C 	0.15320 0.69620 0.25450 -0.64400
H 	H 	0.17590 0.71880 0.27580 0.19300
H 	H 	0.15930 0.70330 0.21710 0.18900
H 	H 	0.16110 0.65920 0.26200 0.18100
C 	C 	0.84990 0.95560 0.28900 0.43800
H 	H 	0.84670 0.91710 0.28160 -0.09400
C 	C 	0.89530 0.96030 0.26540 -0.44700
H 	H 	0.89890 0.99780 0.25570 0.12400
H 	H 	0.89270 0.94040 0.23210 0.15400
C 	C 	0.79740 0.96970 0.26330 -0.90700
H 	H 	0.80200 0.97230 0.22520 0.26500
H 	H 	0.78500 0.00340 0.27720 0.25500
H 	H 	0.77150 0.94220 0.27120 0.26900
Ni	Ni	0.58987 0.32681 0.91952 1.10300
Ni	Ni	0.50013 0.31533 0.83283 1.08300
Ni	Ni	0.57022 0.06455 0.87071 1.08300
Ni	Ni	0.50438 0.09643 0.97227 1.10200
W 	W 	0.44559 0.44656 0.85368 0.94900
W 	W 	0.44290 0.54811 0.94738 0.98500
W 	W 	0.53758 0.54662 0.84592 0.96600
W 	W 	0.60682 0.85569 0.02515 0.99300
W 	W 	0.59962 0.93134 0.91008 0.94300
W 	W 	0.49048 0.86002 0.94978 0.96200
W 	W 	0.54908 0.20057 0.89493 1.11600
O 	O 	0.49820 0.40150 0.83200 -0.58200
O 	O 	0.49192 0.07342 0.89535 -0.57000
O 	O 	0.59760 0.24620 0.91940 -0.52400
O 	O 	0.58002 0.33038 0.83900 -0.57000
O 	O 	0.50600 0.32470 0.91750 -0.59100
O 	O 	0.51070 0.48370 0.91420 -0.36600
O 	O 	0.43000 0.39990 0.91350 -0.45400
O 	O 	0.58238 0.07570 0.95410 -0.59200
O 	O 	0.55290 0.98310 0.88910 -0.58800
O 	O 	0.54920 0.87610 0.89970 -0.44700
O 	O 	0.64340 0.91250 0.05970 -0.44800
O 	O 	0.42970 0.49460 0.00100 -0.44600
O 	O 	0.45260 0.86110 0.01530 -0.45500
O 	O 	0.47750 0.50650 0.81780 -0.44600
O 	O 	0.58340 0.14710 0.86220 -0.51000
O 	O 	0.63430 0.87800 0.95980 -0.44000
O 	O 	0.54880 0.82240 0.98900 -0.43000
O 	O 	0.40810 0.50350 0.89700 -0.43000
O 	O 	0.51100 0.17530 0.94840 -0.52700
O 	O 	0.48060 0.58210 0.89080 -0.42600
O 	O 	0.50810 0.23250 0.84610 -0.51600
O 	O 	0.54600 0.92690 0.99230 -0.36800
N 	N 	0.41740 0.30600 0.82460 -0.36100
H 	H 	0.40580 0.27970 0.84640 0.09600
H 	H 	0.40060 0.33660 0.83380 0.08100
N 	N 	0.49860 0.31430 0.75000 -0.30800
H 	H 	0.52060 0.33970 0.73680 0.11200
H 	H 	0.50950 0.28210 0.73770 0.09600
N 	N 	0.55420 0.05550 0.79070 -0.26800
H 	H 	0.52910 0.03010 0.78560 0.09800
H 	H 	0.54230 0.08650 0.77660 0.09000
N 	N 	0.64950 0.05100 0.84670 -0.39900
H 	H 	0.67030 0.07890 0.85620 0.10600
H 	H 	0.66230 0.02130 0.86270 0.08200
C 	C 	0.40530 0.29240 0.76800 0.22000
H 	H 	0.41230 0.25420 0.76230 -0.05800
C 	C 	0.44300 0.32460 0.73320 -0.21200
H 	H 	0.43850 0.31450 0.69590 0.07900
H 	H 	0.43510 0.36260 0.73660 0.05700
C 	C 	0.34680 0.30380 0.75450 -0.64400
H 	H 	0.32410 0.28120 0.77580 0.19300
H 	H 	0.34070 0.29670 0.71710 0.18900
H 	H 	0.33890 0.34080 0.76200 0.18100
C 	C 	0.65010 0.04440 0.78900 0.43600
H 	H 	0.65330 0.08290 0.78160 -0.09400
C 	C 	0.60470 0.03970 0.76540 -0.44500
H 	H 	0.60110 0.00220 0.75570 0.12400
H 	H 	0.60730 0.05960 0.73210 0.15300
C 	C 	0.70260 0.03030 0.76330 -0.90200
H 	H 	0.69800 0.02770 0.72520 0.26400
H 	H 	0.71500 0.99660 0.77720 0.25300
H 	H 	0.72850 0.05780 0.77120 0.26700
Ni	Ni	0.41013 0.82681 0.58048 1.10300
Ni	Ni	0.49987 0.81533 0.66717 1.08300
Ni	Ni	0.42978 0.56455 0.62929 1.08300
Ni	Ni	0.49562 0.59643 0.52773 1.10200
W 	W 	0.55441 0.94656 0.64632 0.94900
W 	W 	0.55710 0.04811 0.55262 0.98500
W 	W 	0.46242 0.04662 0.65408 0.96600
W 	W 	0.39318 0.35569 0.47485 0.99200
W 	W 	0.40038 0.43134 0.58992 0.94300
W 	W 	0.50952 0.36002 0.55022 0.96200
W 	W 	0.45092 0.70057 0.60507 1.11600
O 	O 	0.50180 0.90150 0.66800 -0.58200
O 	O 	0.50808 0.57342 0.60465 -0.57000
O 	O 	0.40240 0.74620 0.58060 -0.52400
O 	O 	0.41998 0.83038 0.66100 -0.57000
O 	O 	0.49400 0.82470 0.58250 -0.59100
O 	O 	0.48930 0.98370 0.58580 -0.36600
O 	O 	0.57000 0.89990 0.58650 -0.45400
O 	O 	0.41762 0.57570 0.54590 -0.59200
O 	O 	0.44710 0.48310 0.61090 -0.58800
O 	O 	0.45080 0.37610 0.60030 -0.44700
O 	O 	0.35660 0.41250 0.44030 -0.44800
O 	O 	0.57030 0.99460 0.49900 -0.44600
O 	O 	0.54740 0.36110 0.48470 -0.45600
O 	O 	0.52250 0.00650 0.68220 -0.44600
O 	O 	0.41660 0.64710 0.63780 -0.51000
O 	O 	0.36570 0.37800 0.54020 -0.43900
O 	O 	0.45120 0.32240 0.51100 -0.42900
O 	O 	0.59190 0.00350 0.60300 -0.43000
O 	O 	0.48900 0.67530 0.55160 -0.52700
O 	O 	0.51940 0.08210 0.60920 -0.42600
O 	O 	0.49190 0.73250 0.65390 -0.51600
O 	O 	0.45400 0.42690 0.50770 -0.36700
N 	N 	0.58260 0.80600 0.67540 -0.36100
H 	H 	0.59420 0.77970 0.65360 0.09600
H 	H 	0.59940 0.83660 0.66620 0.08100
N 	N 	0.50140 0.81430 0.75000 -0.30800
H 	H 	0.47940 0.83970 0.76320 0.11200
H 	H 	0.49050 0.78210 0.76230 0.09600
N 	N 	0.44580 0.55550 0.70930 -0.26800
H 	H 	0.47090 0.53010 0.71440 0.09800
H 	H 	0.45770 0.58650 0.72340 0.09000
N 	N 	0.35050 0.55100 0.65330 -0.40000
H 	H 	0.32970 0.57890 0.64380 0.10600
H 	H 	0.33770 0.52130 0.63730 0.08200
C 	C 	0.59470 0.79240 0.73200 0.22000
H 	H 	0.58770 0.75420 0.73770 -0.05800
C 	C 	0.55700 0.82460 0.76680 -0.21200
H 	H 	0.56150 0.81450 0.80410 0.07900
H 	H 	0.56490 0.86260 0.76340 0.05700
C 	C 	0.65320 0.80380 0.74550 -0.64300
H 	H 	0.67590 0.78120 0.72420 0.19300
H 	H 	0.65930 0.79670 0.78290 0.18900
H 	H 	0.66110 0.84080 0.73800 0.18100
C 	C 	0.34990 0.54440 0.71100 0.43800
H 	H 	0.34670 0.58290 0.71840 -0.09400
C 	C 	0.39530 0.53970 0.73460 -0.44700
H 	H 	0.39890 0.50220 0.74430 0.12400
H 	H 	0.39270 0.55960 0.76790 0.15400
C 	C 	0.29740 0.53030 0.73670 -0.90600
H 	H 	0.30200 0.52770 0.77480 0.26500
H 	H 	0.28500 0.49660 0.72280 0.25500
H 	H 	0.27150 0.55780 0.72880 0.26800
P 	P 	0.05054 0.05054 0.05054 0.50700
O 	O 	0.08700 0.08700 0.08700 -0.59100
P 	P 	0.44946 0.94946 0.55054 0.50700
O 	O 	0.41300 0.91300 0.58700 -0.59000
P 	P 	0.94946 0.55054 0.44946 0.50700
O 	O 	0.91300 0.58700 0.41300 -0.59000
P 	P 	0.55054 0.44946 0.94946 0.50700
O 	O 	0.58700 0.41300 0.91300 -0.59000
P 	P 	0.97601 0.02399 0.52399 0.53600
O 	O 	0.01163 0.98837 0.48837 -0.58800
P 	P 	0.52399 0.97601 0.02399 0.53600
O 	O 	0.48837 0.01163 0.98837 -0.58800
P 	P 	0.02399 0.52399 0.97601 0.53600
O 	O 	0.98837 0.48837 0.01163 -0.58800
P 	P 	0.47601 0.47601 0.47601 0.53500
O 	O 	0.51163 0.51163 0.51163 -0.58800
