data_crystal

_cell_length_a 12.79050
_cell_length_b 25.91520
_cell_length_c 10.63290
_cell_angle_alpha 90.00000
_cell_angle_beta  92.47200
_cell_angle_gamma 90.00000

_symmetry_space_group_name_	'P 1'
_symmetry_space_group_name_H-M	'P 1'

loop_
_symmetry_equiv_pos_as_xyz
  x,y,z

loop_
_atom_site_label
_atom_site_type_symbol
_atom_site_fract_x
_atom_site_fract_y
_atom_site_fract_z
_atom_site_charge
Fe	Fe	0.81432 0.10255 0.18721 1.24900
Na	Na	0.30866 0.29398 0.31686 0.60000
Na	Na	0.34799 0.31174 0.02611 0.59600
C 	C 	0.60538 0.22032 0.25230 0.09600
Cl	Cl	0.64844 0.25465 0.38370 -0.23900
C 	C 	0.51368 0.23698 0.18310 0.10500
O 	O 	0.46183 0.27583 0.20590 -0.23300
C 	C 	0.47437 0.20395 0.06880 0.12100
O 	O 	0.39816 0.22084 0.00642 -0.26100
C 	C 	0.52897 0.15775 0.04150 0.09300
Cl	Cl	0.48633 0.12087 0.91402 -0.25100
C 	C 	0.62203 0.14560 0.10500 0.10600
O 	O 	0.68314 0.10870 0.07655 -0.26700
C 	C 	0.65885 0.17699 0.21880 0.09400
O 	O 	0.74069 0.15923 0.27764 -0.26600
C 	C 	0.04474 0.20670 0.09450 0.10500
Cl	Cl	0.01225 0.23579 0.95197 -0.23400
C 	C 	0.98178 0.16857 0.13950 0.10500
O 	O 	0.89659 0.15190 0.08507 -0.26100
C 	C 	0.01033 0.14233 0.26370 0.11300
O 	O 	0.94417 0.10876 0.29916 -0.26200
C 	C 	0.10228 0.15478 0.32860 0.09700
Cl	Cl	0.13611 0.12364 0.46854 -0.24800
C 	C 	0.16762 0.19508 0.28830 0.13000
O 	O 	0.24837 0.20978 0.34559 -0.27000
C 	C 	0.13646 0.22418 0.16450 0.11300
O 	O 	0.19298 0.26010 0.13470 -0.21200
C 	C 	0.28110 0.45935 0.18050 0.09600
Cl	Cl	0.35072 0.46692 0.04576 -0.20800
C 	C 	0.23866 0.50192 0.23710 0.10400
O 	O 	0.24442 0.54828 0.19630 -0.26100
C 	C 	0.18098 0.49612 0.35820 0.09800
O 	O 	0.14826 0.53871 0.40415 -0.26000
C 	C 	0.16701 0.44814 0.40920 0.11000
Cl	Cl	0.09637 0.44203 0.54340 -0.22900
C 	C 	0.20992 0.40292 0.35520 0.10400
O 	O 	0.20177 0.35901 0.39732 -0.17600
C 	C 	0.27217 0.40913 0.23320 0.14300
O 	O 	0.30997 0.36947 0.18911 -0.24000
Fe	Fe	0.18568 0.60255 0.31279 1.24800
Na	Na	0.69134 0.79398 0.18314 0.59900
Na	Na	0.65201 0.81174 0.47389 0.59500
C 	C 	0.39462 0.72032 0.24770 0.09500
Cl	Cl	0.35156 0.75465 0.11630 -0.23900
C 	C 	0.48632 0.73698 0.31690 0.10400
O 	O 	0.53817 0.77583 0.29410 -0.23300
C 	C 	0.52563 0.70395 0.43120 0.12100
O 	O 	0.60184 0.72084 0.49358 -0.26000
C 	C 	0.47103 0.65775 0.45850 0.09500
Cl	Cl	0.51367 0.62087 0.58598 -0.25100
C 	C 	0.37797 0.64560 0.39500 0.10600
O 	O 	0.31686 0.60870 0.42345 -0.26600
C 	C 	0.34115 0.67699 0.28120 0.09500
O 	O 	0.25931 0.65923 0.22236 -0.26600
C 	C 	0.95526 0.70670 0.40550 0.10700
Cl	Cl	0.98775 0.73579 0.54803 -0.23600
C 	C 	0.01822 0.66857 0.36050 0.10300
O 	O 	0.10341 0.65190 0.41493 -0.26000
C 	C 	0.98967 0.64233 0.23630 0.11400
O 	O 	0.05583 0.60876 0.20084 -0.26200
C 	C 	0.89772 0.65478 0.17140 0.09700
Cl	Cl	0.86389 0.62364 0.03146 -0.24700
C 	C 	0.83238 0.69508 0.21170 0.13100
O 	O 	0.75163 0.70978 0.15441 -0.26900
C 	C 	0.86354 0.72418 0.33550 0.11300
O 	O 	0.80702 0.76010 0.36530 -0.21200
C 	C 	0.71890 0.95935 0.31950 0.09600
Cl	Cl	0.64928 0.96692 0.45424 -0.20800
C 	C 	0.76134 0.00192 0.26290 0.10300
O 	O 	0.75558 0.04828 0.30370 -0.26100
C 	C 	0.81902 0.99612 0.14180 0.09900
O 	O 	0.85174 0.03871 0.09585 -0.26000
C 	C 	0.83299 0.94814 0.09080 0.11100
Cl	Cl	0.90363 0.94203 0.95660 -0.23000
C 	C 	0.79008 0.90292 0.14480 0.10400
O 	O 	0.79823 0.85901 0.10268 -0.17600
C 	C 	0.72783 0.90913 0.26680 0.14300
O 	O 	0.69003 0.86947 0.31089 -0.24000
Fe	Fe	0.18568 0.89745 0.81279 1.24800
Na	Na	0.69134 0.70602 0.68314 0.59900
Na	Na	0.65201 0.68826 0.97389 0.59500
C 	C 	0.39462 0.77968 0.74770 0.09500
Cl	Cl	0.35156 0.74535 0.61630 -0.24000
C 	C 	0.48632 0.76302 0.81690 0.10400
O 	O 	0.53817 0.72417 0.79410 -0.23300
C 	C 	0.52563 0.79605 0.93120 0.12100
O 	O 	0.60184 0.77916 0.99358 -0.26100
C 	C 	0.47103 0.84225 0.95850 0.09300
Cl	Cl	0.51367 0.87913 0.08598 -0.25100
C 	C 	0.37797 0.85440 0.89500 0.10600
O 	O 	0.31686 0.89130 0.92345 -0.26700
C 	C 	0.34115 0.82301 0.78120 0.09400
O 	O 	0.25931 0.84077 0.72236 -0.26600
C 	C 	0.95526 0.79330 0.90550 0.10500
Cl	Cl	0.98775 0.76421 0.04803 -0.23400
C 	C 	0.01822 0.83143 0.86050 0.10500
O 	O 	0.10341 0.84810 0.91493 -0.26100
C 	C 	0.98967 0.85767 0.73630 0.11300
O 	O 	0.05583 0.89124 0.70084 -0.26200
C 	C 	0.89772 0.84522 0.67140 0.09700
Cl	Cl	0.86389 0.87636 0.53146 -0.24800
C 	C 	0.83238 0.80492 0.71170 0.13000
O 	O 	0.75163 0.79022 0.65441 -0.27000
C 	C 	0.86354 0.77582 0.83550 0.11300
O 	O 	0.80702 0.73990 0.86530 -0.21200
C 	C 	0.71890 0.54065 0.81950 0.09600
Cl	Cl	0.64928 0.53308 0.95424 -0.20800
C 	C 	0.76134 0.49808 0.76290 0.10400
O 	O 	0.75558 0.45172 0.80370 -0.26100
C 	C 	0.81902 0.50388 0.64180 0.09800
O 	O 	0.85174 0.46129 0.59585 -0.26000
C 	C 	0.83299 0.55186 0.59080 0.11000
Cl	Cl	0.90363 0.55797 0.45660 -0.22900
C 	C 	0.79008 0.59708 0.64480 0.10400
O 	O 	0.79823 0.64099 0.60268 -0.17600
C 	C 	0.72783 0.59087 0.76680 0.14300
O 	O 	0.69003 0.63053 0.81089 -0.24000
Fe	Fe	0.81432 0.39745 0.68721 1.24800
Na	Na	0.30866 0.20602 0.81686 0.59900
Na	Na	0.34799 0.18826 0.52611 0.59500
C 	C 	0.60538 0.27968 0.75230 0.09500
Cl	Cl	0.64844 0.24535 0.88370 -0.23900
C 	C 	0.51368 0.26302 0.68310 0.10400
O 	O 	0.46183 0.22417 0.70590 -0.23300
C 	C 	0.47437 0.29605 0.56880 0.12100
O 	O 	0.39816 0.27916 0.50642 -0.26000
C 	C 	0.52897 0.34225 0.54150 0.09500
Cl	Cl	0.48633 0.37913 0.41402 -0.25100
C 	C 	0.62203 0.35440 0.60500 0.10600
O 	O 	0.68314 0.39130 0.57655 -0.26600
C 	C 	0.65885 0.32301 0.71880 0.09500
O 	O 	0.74069 0.34077 0.77764 -0.26600
C 	C 	0.04474 0.29330 0.59450 0.10700
Cl	Cl	0.01225 0.26421 0.45197 -0.23600
C 	C 	0.98178 0.33143 0.63950 0.10300
O 	O 	0.89659 0.34810 0.58507 -0.26000
C 	C 	0.01033 0.35767 0.76370 0.11400
O 	O 	0.94417 0.39124 0.79916 -0.26200
C 	C 	0.10228 0.34522 0.82860 0.09700
Cl	Cl	0.13611 0.37636 0.96854 -0.24700
C 	C 	0.16762 0.30492 0.78830 0.13100
O 	O 	0.24837 0.29022 0.84559 -0.26900
C 	C 	0.13646 0.27582 0.66450 0.11300
O 	O 	0.19298 0.23990 0.63470 -0.21200
C 	C 	0.28110 0.04065 0.68050 0.09600
Cl	Cl	0.35072 0.03308 0.54576 -0.20800
C 	C 	0.23866 0.99808 0.73710 0.10300
O 	O 	0.24442 0.95172 0.69630 -0.26100
C 	C 	0.18098 0.00388 0.85820 0.09900
O 	O 	0.14826 0.96129 0.90415 -0.26000
C 	C 	0.16701 0.05186 0.90920 0.11100
Cl	Cl	0.09637 0.05797 0.04340 -0.23000
C 	C 	0.20992 0.09708 0.85520 0.10400
O 	O 	0.20177 0.14099 0.89732 -0.17600
C 	C 	0.27217 0.09087 0.73320 0.14300
O 	O 	0.30997 0.13053 0.68911 -0.24000
