data_crystal

_cell_length_a 27.65200
_cell_length_b 27.65200
_cell_length_c 20.02800
_cell_angle_alpha 90.00000
_cell_angle_beta  90.00000
_cell_angle_gamma 120.00000

_symmetry_space_group_name_	'P 1'
_symmetry_space_group_name_H-M	'P 1'

loop_
_symmetry_equiv_pos_as_xyz
  x,y,z

loop_
_atom_site_label
_atom_site_type_symbol
_atom_site_fract_x
_atom_site_fract_y
_atom_site_fract_z
_atom_site_charge
O 	O 	0.23460 0.95040 0.44670 -0.40500
O 	O 	0.41200 0.99870 0.61670 -0.46100
O 	O 	0.28780 0.94210 0.57770 -0.94400
O 	O 	0.34701 0.95045 0.45780 -0.55800
O 	O 	0.21750 0.98200 0.39010 -0.13600
O 	O 	0.64370 0.18860 0.40380 -0.20300
O 	O 	0.57350 0.21640 0.43200 -0.00400
O 	O 	0.55570 0.14800 0.35440 -0.16800
O 	O 	0.07160 0.83920 0.14110 -0.30900
C 	C 	0.17100 0.91360 0.28650 -0.03500
H 	H 	0.19760 0.94500 0.26390 0.09400
C 	C 	0.50790 0.10360 0.50250 0.08700
H 	H 	0.48640 0.11870 0.48790 0.03700
C 	C 	0.42750 0.03470 0.57110 0.34400
C 	C 	0.48700 0.06070 0.54910 -0.14300
C 	C 	0.17680 0.90920 0.35420 0.02900
C 	C 	0.23820 0.94550 0.38040 0.29200
H 	H 	0.27560 0.91090 0.56160 0.39600
O 	O 	0.71730 0.68180 0.65710 -0.29400
O 	O 	0.90127 0.28373 0.78003 -0.42300
O 	O 	0.07867 0.33203 0.95003 -0.52200
O 	O 	0.95447 0.27543 0.91103 -0.94500
O 	O 	0.01368 0.28378 0.79113 -0.59000
O 	O 	0.88417 0.31533 0.72343 -0.15900
O 	O 	0.31037 0.52193 0.73713 -0.21100
O 	O 	0.24017 0.54973 0.76533 0.01200
O 	O 	0.22237 0.48133 0.68773 -0.16900
O 	O 	0.73827 0.17253 0.47443 -0.28200
C 	C 	0.83767 0.24693 0.61983 -0.02800
H 	H 	0.86427 0.27833 0.59723 0.07500
C 	C 	0.17457 0.43693 0.83583 0.11900
H 	H 	0.15307 0.45203 0.82123 0.03300
C 	C 	0.09417 0.36803 0.90443 0.46000
C 	C 	0.15367 0.39403 0.88243 -0.16100
C 	C 	0.84347 0.24253 0.68753 0.02100
C 	C 	0.90487 0.27883 0.71373 0.30800
H 	H 	0.94227 0.24423 0.89493 0.41100
O 	O 	0.38397 0.01513 0.99043 -0.19500
O 	O 	0.56793 0.61707 0.11337 -0.46500
O 	O 	0.74533 0.66537 0.28337 -0.55200
O 	O 	0.62113 0.60877 0.24437 -0.98000
O 	O 	0.68034 0.61712 0.12447 -0.56900
O 	O 	0.55083 0.64867 0.05677 -0.19400
O 	O 	0.97703 0.85527 0.07047 -0.20400
O 	O 	0.90683 0.88307 0.09867 0.01400
O 	O 	0.88903 0.81467 0.02107 -0.18700
O 	O 	0.40493 0.50587 0.80777 -0.29400
C 	C 	0.50433 0.58027 0.95317 0.28400
H 	H 	0.53093 0.61167 0.93057 -0.01200
C 	C 	0.84123 0.77027 0.16917 0.11900
H 	H 	0.81973 0.78537 0.15457 0.02800
C 	C 	0.76083 0.70137 0.23777 0.45600
C 	C 	0.82033 0.72737 0.21577 -0.17000
C 	C 	0.51013 0.57587 0.02087 -0.26500
C 	C 	0.57153 0.61217 0.04707 0.47300
H 	H 	0.60893 0.57757 0.22827 0.40300
O 	O 	0.05063 0.34847 0.32377 -0.30400
O 	O 	0.04960 0.28420 0.44670 -0.44900
O 	O 	0.00130 0.41330 0.61670 -0.62400
O 	O 	0.05790 0.34570 0.57770 -1.00600
O 	O 	0.04955 0.39656 0.45780 -0.54900
O 	O 	0.01800 0.23550 0.39010 -0.19900
O 	O 	0.81140 0.45510 0.40380 -0.20200
O 	O 	0.78360 0.35710 0.43200 -0.00900
O 	O 	0.85200 0.40770 0.35440 -0.16600
O 	O 	0.16080 0.23240 0.14110 -0.29900
C 	C 	0.08640 0.25740 0.28650 -0.01500
H 	H 	0.05500 0.25260 0.26390 0.05300
C 	C 	0.89640 0.40430 0.50250 0.14800
H 	H 	0.88130 0.36770 0.48790 0.01800
C 	C 	0.96530 0.39280 0.57110 0.54400
C 	C 	0.93930 0.42630 0.54910 -0.20300
C 	C 	0.09080 0.26760 0.35420 0.00300
C 	C 	0.05450 0.29270 0.38040 0.31800
H 	H 	0.08910 0.36470 0.56160 0.41000
O 	O 	0.31820 0.03550 0.65710 -0.33100
O 	O 	0.71627 0.61753 0.78003 -0.43100
O 	O 	0.66797 0.74663 0.95003 -0.51500
O 	O 	0.72457 0.67903 0.91103 -0.96400
O 	O 	0.71622 0.72989 0.79113 -0.55400
O 	O 	0.68467 0.56883 0.72343 -0.16600
O 	O 	0.47807 0.78843 0.73713 -0.21000
O 	O 	0.45027 0.69043 0.76533 0.01200
O 	O 	0.51867 0.74103 0.68773 -0.16900
O 	O 	0.82747 0.56573 0.47443 -0.27800
C 	C 	0.75307 0.59073 0.61983 -0.02800
H 	H 	0.72167 0.58593 0.59723 0.07400
C 	C 	0.56307 0.73763 0.83583 0.11600
H 	H 	0.54797 0.70103 0.82123 0.03300
C 	C 	0.63197 0.72613 0.90443 0.45400
C 	C 	0.60597 0.75963 0.88243 -0.15900
C 	C 	0.75747 0.60093 0.68753 0.02100
C 	C 	0.72117 0.62603 0.71373 0.30400
H 	H 	0.75577 0.69803 0.89493 0.40800
O 	O 	0.98487 0.36883 0.99043 0.21200
O 	O 	0.38293 0.95087 0.11337 -0.42400
O 	O 	0.33463 0.07997 0.28337 -0.56700
O 	O 	0.39123 0.01237 0.24437 -1.01900
O 	O 	0.38288 0.06323 0.12447 -0.58900
O 	O 	0.35133 0.90217 0.05677 -0.19200
O 	O 	0.14473 0.12177 0.07047 -0.19100
O 	O 	0.11693 0.02377 0.09867 -0.10700
O 	O 	0.18533 0.07437 0.02107 -0.20100
O 	O 	0.49413 0.89907 0.80777 -0.28800
C 	C 	0.41973 0.92407 0.95317 0.25000
H 	H 	0.38833 0.91927 0.93057 0.00400
C 	C 	0.22973 0.07097 0.16917 0.13800
H 	H 	0.21463 0.03437 0.15457 -0.00300
C 	C 	0.29863 0.05947 0.23777 0.46300
C 	C 	0.27263 0.09297 0.21577 -0.20200
C 	C 	0.42413 0.93427 0.02087 -0.20500
C 	C 	0.38783 0.95937 0.04707 0.40000
H 	H 	0.42243 0.03137 0.22827 0.40700
O 	O 	0.65153 0.70217 0.32377 -0.30000
O 	O 	0.71580 0.76540 0.44670 -0.42700
O 	O 	0.58670 0.58800 0.61670 -0.55300
O 	O 	0.65430 0.71220 0.57770 -0.98000
O 	O 	0.60344 0.65299 0.45780 -0.55600
O 	O 	0.76450 0.78250 0.39010 -0.15800
O 	O 	0.54490 0.35630 0.40380 -0.20200
O 	O 	0.64290 0.42650 0.43200 -0.00700
O 	O 	0.59230 0.44430 0.35440 -0.16700
O 	O 	0.76760 0.92840 0.14110 -0.26200
C 	C 	0.74260 0.82900 0.28650 -0.03700
H 	H 	0.74740 0.80240 0.26390 0.07900
C 	C 	0.59570 0.49210 0.50250 0.12100
H 	H 	0.63230 0.51360 0.48790 0.02700
C 	C 	0.60720 0.57250 0.57110 0.45600
C 	C 	0.57370 0.51300 0.54910 -0.17700
C 	C 	0.73240 0.82320 0.35420 0.03400
C 	C 	0.70730 0.76180 0.38040 0.29700
H 	H 	0.63530 0.72440 0.56160 0.40500
O 	O 	0.96450 0.28270 0.65710 -0.27300
O 	O 	0.38247 0.09873 0.78003 -0.43900
O 	O 	0.25337 0.92133 0.95003 -0.49600
O 	O 	0.32097 0.04553 0.91103 -0.98100
O 	O 	0.27011 0.98632 0.79113 -0.50900
O 	O 	0.43117 0.11583 0.72343 -0.17600
O 	O 	0.21157 0.68963 0.73713 -0.21100
O 	O 	0.30957 0.75983 0.76533 0.01200
O 	O 	0.25897 0.77763 0.68773 -0.16900
O 	O 	0.43427 0.26173 0.47443 -0.28000
C 	C 	0.40927 0.16233 0.61983 -0.03000
H 	H 	0.41407 0.13573 0.59723 0.07400
C 	C 	0.26237 0.82543 0.83583 0.11500
H 	H 	0.29897 0.84693 0.82123 0.03300
C 	C 	0.27387 0.90583 0.90443 0.44700
C 	C 	0.24037 0.84633 0.88243 -0.15700
C 	C 	0.39907 0.15653 0.68753 0.02600
C 	C 	0.37397 0.09513 0.71373 0.29700
H 	H 	0.30197 0.05773 0.89493 0.40200
O 	O 	0.63117 0.61603 0.99043 0.02800
O 	O 	0.04913 0.43207 0.11337 -0.49900
O 	O 	0.92003 0.25467 0.28337 -0.54300
O 	O 	0.98763 0.37887 0.24437 -0.94700
O 	O 	0.93677 0.31966 0.12447 -0.54900
O 	O 	0.09783 0.44917 0.05677 -0.19700
O 	O 	0.87823 0.02297 0.07047 -0.22600
O 	O 	0.97623 0.09317 0.09867 -0.03600
O 	O 	0.92563 0.11097 0.02107 -0.17400
O 	O 	0.10093 0.59507 0.80777 -0.30000
C 	C 	0.07593 0.49567 0.95317 0.32000
H 	H 	0.08073 0.46907 0.93057 -0.02600
C 	C 	0.92903 0.15877 0.16917 0.12200
H 	H 	0.96563 0.18027 0.15457 0.04000
C 	C 	0.94053 0.23917 0.23777 0.45400
C 	C 	0.90703 0.17967 0.21577 -0.17100
C 	C 	0.06573 0.48987 0.02087 -0.32000
C 	C 	0.04063 0.42847 0.04707 0.53300
H 	H 	0.96863 0.39107 0.22827 0.40100
O 	O 	0.29783 0.94937 0.32377 -0.28900
O 	O 	0.95040 0.23460 0.55330 -0.41200
O 	O 	0.99870 0.41200 0.38330 -0.47800
O 	O 	0.94210 0.28780 0.42230 -0.95100
O 	O 	0.95045 0.34701 0.54220 -0.55700
O 	O 	0.98200 0.21750 0.60990 -0.14300
O 	O 	0.18860 0.64370 0.59620 -0.20200
O 	O 	0.21640 0.57350 0.56800 -0.00500
O 	O 	0.14800 0.55570 0.64560 -0.16700
O 	O 	0.83920 0.07160 0.85890 -0.29100
C 	C 	0.91360 0.17100 0.71350 -0.03000
H 	H 	0.94500 0.19760 0.73610 0.08800
C 	C 	0.10360 0.50790 0.49750 0.09300
H 	H 	0.11870 0.48640 0.51210 0.03500
C 	C 	0.03470 0.42750 0.42890 0.36400
C 	C 	0.06070 0.48700 0.45090 -0.14900
C 	C 	0.90920 0.17680 0.64580 0.02400
C 	C 	0.94550 0.23820 0.61960 0.29600
H 	H 	0.91090 0.27560 0.43840 0.39700
O 	O 	0.68180 0.71730 0.34290 -0.29300
O 	O 	0.61707 0.56793 0.88663 -0.39700
O 	O 	0.66537 0.74533 0.71663 -0.55100
O 	O 	0.60877 0.62113 0.75563 -0.98200
O 	O 	0.61712 0.68034 0.87553 -0.54100
O 	O 	0.64867 0.55083 0.94323 -0.14000
O 	O 	0.85527 0.97703 0.92953 -0.19200
O 	O 	0.88307 0.90683 0.90133 0.08300
O 	O 	0.81467 0.88903 0.97893 -0.14700
O 	O 	0.50587 0.40493 0.19223 -0.26600
C 	C 	0.58027 0.50433 0.04683 -0.33700
H 	H 	0.61167 0.53093 0.06943 0.15900
C 	C 	0.77027 0.84123 0.83083 0.10900
H 	H 	0.78537 0.81973 0.84543 0.03700
C 	C 	0.70137 0.76083 0.76223 0.45300
C 	C 	0.72737 0.82033 0.78423 -0.16300
C 	C 	0.57587 0.51013 0.97913 0.30500
C 	C 	0.61217 0.57153 0.95293 0.13500
H 	H 	0.57757 0.60893 0.77173 0.40500
O 	O 	0.34847 0.05063 0.67623 -0.30500
O 	O 	0.28373 0.90127 0.21997 -0.42300
O 	O 	0.33203 0.07867 0.04997 -0.59500
O 	O 	0.27543 0.95447 0.08897 -0.96500
O 	O 	0.28378 0.01368 0.20887 -0.60100
O 	O 	0.31533 0.88417 0.27657 -0.15800
O 	O 	0.52193 0.31037 0.26287 -0.19300
O 	O 	0.54973 0.24017 0.23467 -0.02500
O 	O 	0.48133 0.22237 0.31227 -0.16500
O 	O 	0.17253 0.73827 0.52557 -0.28100
C 	C 	0.24693 0.83767 0.38017 -0.02600
H 	H 	0.27833 0.86427 0.40277 0.07400
C 	C 	0.43693 0.17457 0.16417 0.12700
H 	H 	0.45203 0.15307 0.17877 0.02000
C 	C 	0.36803 0.09417 0.09557 0.46300
C 	C 	0.39403 0.15367 0.11757 -0.19500
C 	C 	0.24253 0.84347 0.31247 0.01600
C 	C 	0.27883 0.90487 0.28627 0.31100
H 	H 	0.24423 0.94227 0.10507 0.40400
O 	O 	0.01513 0.38397 0.00957 -0.80400
O 	O 	0.28420 0.04960 0.55330 -0.45300
O 	O 	0.41330 0.00130 0.38330 -0.64300
O 	O 	0.34570 0.05790 0.42230 -1.01200
O 	O 	0.39656 0.04955 0.54220 -0.54700
O 	O 	0.23550 0.01800 0.60990 -0.20400
O 	O 	0.45510 0.81140 0.59620 -0.20100
O 	O 	0.35710 0.78360 0.56800 -0.01000
O 	O 	0.40770 0.85200 0.64560 -0.16500
O 	O 	0.23240 0.16080 0.85890 -0.27400
C 	C 	0.25740 0.08640 0.71350 -0.01300
H 	H 	0.25260 0.05500 0.73610 0.05000
C 	C 	0.40430 0.89640 0.49750 0.15400
H 	H 	0.36770 0.88130 0.51210 0.01600
C 	C 	0.39280 0.96530 0.42890 0.56700
C 	C 	0.42630 0.93930 0.45090 -0.21000
C 	C 	0.26760 0.09080 0.64580 0.00200
C 	C 	0.29270 0.05450 0.61960 0.32100
H 	H 	0.36470 0.08910 0.43840 0.41200
O 	O 	0.03550 0.31820 0.34290 -0.32500
O 	O 	0.95087 0.38293 0.88663 -0.36500
O 	O 	0.07997 0.33463 0.71663 -0.56400
O 	O 	0.01237 0.39123 0.75563 -1.01200
O 	O 	0.06323 0.38288 0.87553 -0.55500
O 	O 	0.90217 0.35133 0.94323 -0.13700
O 	O 	0.12177 0.14473 0.92953 -0.18300
O 	O 	0.02377 0.11693 0.90133 -0.02900
O 	O 	0.07437 0.18533 0.97893 -0.15500
O 	O 	0.89907 0.49413 0.19223 -0.26100
C 	C 	0.92407 0.41973 0.04683 -0.34800
H 	H 	0.91927 0.38833 0.06943 0.16700
C 	C 	0.07097 0.22973 0.83083 0.12600
H 	H 	0.03437 0.21463 0.84543 0.01200
C 	C 	0.05947 0.29863 0.76223 0.45900
C 	C 	0.09297 0.27263 0.78423 -0.19100
C 	C 	0.93427 0.42413 0.97913 0.34100
C 	C 	0.95937 0.38783 0.95293 0.07800
H 	H 	0.03137 0.42243 0.77173 0.40800
O 	O 	0.70217 0.65153 0.67623 -0.30000
O 	O 	0.61753 0.71627 0.21997 -0.43300
O 	O 	0.74663 0.66797 0.04997 -0.58300
O 	O 	0.67903 0.72457 0.08897 -0.99000
O 	O 	0.72989 0.71622 0.20887 -0.55500
O 	O 	0.56883 0.68467 0.27657 -0.16800
O 	O 	0.78843 0.47807 0.26287 -0.19300
O 	O 	0.69043 0.45027 0.23467 -0.02500
O 	O 	0.74103 0.51867 0.31227 -0.16400
O 	O 	0.56573 0.82747 0.52557 -0.27800
C 	C 	0.59073 0.75307 0.38017 -0.02600
H 	H 	0.58593 0.72167 0.40277 0.07300
C 	C 	0.73763 0.56307 0.16417 0.12300
H 	H 	0.70103 0.54797 0.17877 0.02100
C 	C 	0.72613 0.63197 0.09557 0.45500
C 	C 	0.75963 0.60597 0.11757 -0.19200
C 	C 	0.60093 0.75747 0.31247 0.01700
C 	C 	0.62603 0.72117 0.28627 0.30600
H 	H 	0.69803 0.75577 0.10507 0.39900
O 	O 	0.36883 0.98487 0.00957 -0.39400
O 	O 	0.76540 0.71580 0.55330 -0.42700
O 	O 	0.58800 0.58670 0.38330 -0.55300
O 	O 	0.71220 0.65430 0.42230 -0.98000
O 	O 	0.65299 0.60344 0.54220 -0.55600
O 	O 	0.78250 0.76450 0.60990 -0.15800
O 	O 	0.35630 0.54490 0.59620 -0.20100
O 	O 	0.42650 0.64290 0.56800 -0.00800
O 	O 	0.44430 0.59230 0.64560 -0.16600
O 	O 	0.92840 0.76760 0.85890 -0.24400
C 	C 	0.82900 0.74260 0.71350 -0.03600
H 	H 	0.80240 0.74740 0.73610 0.07900
C 	C 	0.49210 0.59570 0.49750 0.12100
H 	H 	0.51360 0.63230 0.51210 0.02700
C 	C 	0.57250 0.60720 0.42890 0.45600
C 	C 	0.51300 0.57370 0.45090 -0.17700
C 	C 	0.82320 0.73240 0.64580 0.03300
C 	C 	0.76180 0.70730 0.61960 0.29700
H 	H 	0.72440 0.63530 0.43840 0.40500
O 	O 	0.28270 0.96450 0.34290 -0.26500
O 	O 	0.43207 0.04913 0.88663 -0.43700
O 	O 	0.25467 0.92003 0.71663 -0.54100
O 	O 	0.37887 0.98763 0.75563 -0.94300
O 	O 	0.31966 0.93677 0.87553 -0.51900
O 	O 	0.44917 0.09783 0.94323 -0.14200
O 	O 	0.02297 0.87823 0.92953 -0.21700
O 	O 	0.09317 0.97623 0.90133 0.04800
O 	O 	0.11097 0.92563 0.97893 -0.13000
O 	O 	0.59507 0.10093 0.19223 -0.27300
C 	C 	0.49567 0.07593 0.04683 -0.30100
H 	H 	0.46907 0.08073 0.06943 0.14300
C 	C 	0.15877 0.92903 0.83083 0.10900
H 	H 	0.18027 0.96563 0.84543 0.05400
C 	C 	0.23917 0.94053 0.76223 0.45000
C 	C 	0.17967 0.90703 0.78423 -0.16000
C 	C 	0.48987 0.06573 0.97913 0.24400
C 	C 	0.42847 0.04063 0.95293 0.20800
H 	H 	0.39107 0.96863 0.77173 0.40200
O 	O 	0.94937 0.29783 0.67623 -0.29000
O 	O 	0.09873 0.38247 0.21997 -0.44000
O 	O 	0.92133 0.25337 0.04997 -0.56700
O 	O 	0.04553 0.32097 0.08897 -1.00600
O 	O 	0.98632 0.27011 0.20887 -0.51700
O 	O 	0.11583 0.43117 0.27657 -0.17600
O 	O 	0.68963 0.21157 0.26287 -0.19400
O 	O 	0.75983 0.30957 0.23467 -0.02500
O 	O 	0.77763 0.25897 0.31227 -0.16400
O 	O 	0.26173 0.43427 0.52557 -0.28000
C 	C 	0.16233 0.40927 0.38017 -0.02800
H 	H 	0.13573 0.41407 0.40277 0.07300
C 	C 	0.82543 0.26237 0.16417 0.12300
H 	H 	0.84693 0.29897 0.17877 0.02100
C 	C 	0.90583 0.27387 0.09557 0.44900
C 	C 	0.84633 0.24037 0.11757 -0.19000
C 	C 	0.15653 0.39907 0.31247 0.02100
C 	C 	0.09513 0.37397 0.28627 0.30000
H 	H 	0.05773 0.30197 0.10507 0.39400
O 	O 	0.61603 0.63117 0.00957 -0.62000
O 	O 	0.76540 0.04960 0.55330 -0.44900
O 	O 	0.58800 0.00130 0.38330 -0.64300
O 	O 	0.71220 0.05790 0.42230 -1.01100
O 	O 	0.65299 0.04955 0.54220 -0.54700
O 	O 	0.78250 0.01800 0.60990 -0.19700
O 	O 	0.35630 0.81140 0.59620 -0.20100
O 	O 	0.42650 0.78360 0.56800 -0.01000
O 	O 	0.44430 0.85200 0.64560 -0.16500
O 	O 	0.92840 0.16080 0.85890 -0.25200
C 	C 	0.82900 0.08640 0.71350 -0.02100
H 	H 	0.80240 0.05500 0.73610 0.05400
C 	C 	0.49210 0.89640 0.49750 0.15400
H 	H 	0.51360 0.88130 0.51210 0.01600
C 	C 	0.57250 0.96530 0.42890 0.56600
C 	C 	0.51300 0.93930 0.45090 -0.21000
C 	C 	0.82320 0.09080 0.64580 0.01300
C 	C 	0.76180 0.05450 0.61960 0.31500
H 	H 	0.72440 0.08910 0.43840 0.41200
O 	O 	0.28270 0.31820 0.34290 -0.30100
O 	O 	0.43207 0.38293 0.88663 -0.39600
O 	O 	0.25467 0.33463 0.71663 -0.55500
O 	O 	0.37887 0.39123 0.75563 -0.98200
O 	O 	0.31966 0.38288 0.87553 -0.54000
O 	O 	0.44917 0.35133 0.94323 -0.13900
O 	O 	0.02297 0.14473 0.92953 -0.20000
O 	O 	0.09317 0.11693 0.90133 -0.02300
O 	O 	0.11097 0.18533 0.97893 -0.14400
O 	O 	0.59507 0.49413 0.19223 -0.26600
C 	C 	0.49567 0.41973 0.04683 -0.33800
H 	H 	0.46907 0.38833 0.06943 0.15900
C 	C 	0.15877 0.22973 0.83083 0.12200
H 	H 	0.18027 0.21463 0.84543 0.02700
C 	C 	0.23917 0.29863 0.76223 0.45600
C 	C 	0.17967 0.27263 0.78423 -0.18200
C 	C 	0.48987 0.42413 0.97913 0.30700
C 	C 	0.42847 0.38783 0.95293 0.13300
H 	H 	0.39107 0.42243 0.77173 0.40500
O 	O 	0.94937 0.65153 0.67623 -0.29300
O 	O 	0.09873 0.71627 0.21997 -0.44000
O 	O 	0.92133 0.66797 0.04997 -0.56800
O 	O 	0.04553 0.72457 0.08897 -1.00600
O 	O 	0.98632 0.71622 0.20887 -0.51700
O 	O 	0.11583 0.68467 0.27657 -0.17600
O 	O 	0.68963 0.47807 0.26287 -0.19300
O 	O 	0.75983 0.45027 0.23467 -0.02500
O 	O 	0.77763 0.51867 0.31227 -0.16400
O 	O 	0.26173 0.82747 0.52557 -0.27800
C 	C 	0.16233 0.75307 0.38017 -0.02700
H 	H 	0.13573 0.72167 0.40277 0.07300
C 	C 	0.82543 0.56307 0.16417 0.12200
H 	H 	0.84693 0.54797 0.17877 0.02200
C 	C 	0.90583 0.63197 0.09557 0.44800
C 	C 	0.84633 0.60597 0.11757 -0.19000
C 	C 	0.15653 0.75747 0.31247 0.02000
C 	C 	0.09513 0.72117 0.28627 0.30100
H 	H 	0.05773 0.75577 0.10507 0.39400
O 	O 	0.61603 0.98487 0.00957 -0.38700
O 	O 	0.95040 0.71580 0.55330 -0.40800
O 	O 	0.99870 0.58670 0.38330 -0.47900
O 	O 	0.94210 0.65430 0.42230 -0.95000
O 	O 	0.95045 0.60344 0.54220 -0.55700
O 	O 	0.98200 0.76450 0.60990 -0.13400
O 	O 	0.18860 0.54490 0.59620 -0.20200
O 	O 	0.21640 0.64290 0.56800 -0.00500
O 	O 	0.14800 0.59230 0.64560 -0.16700
O 	O 	0.83920 0.76760 0.85890 -0.26100
C 	C 	0.91360 0.74260 0.71350 -0.04000
H 	H 	0.94500 0.74740 0.73610 0.09400
C 	C 	0.10360 0.59570 0.49750 0.09300
H 	H 	0.11870 0.63230 0.51210 0.03500
C 	C 	0.03470 0.60720 0.42890 0.36500
C 	C 	0.06070 0.57370 0.45090 -0.14900
C 	C 	0.90920 0.73240 0.64580 0.03800
C 	C 	0.94550 0.70730 0.61960 0.28900
H 	H 	0.91090 0.63530 0.43840 0.39800
O 	O 	0.68180 0.96450 0.34290 -0.26200
O 	O 	0.61707 0.04913 0.88663 -0.43800
O 	O 	0.66537 0.92003 0.71663 -0.53900
O 	O 	0.60877 0.98763 0.75563 -0.94300
O 	O 	0.61712 0.93677 0.87553 -0.51900
O 	O 	0.64867 0.09783 0.94323 -0.14300
O 	O 	0.85527 0.87823 0.92953 -0.21400
O 	O 	0.88307 0.97623 0.90133 0.09200
O 	O 	0.81467 0.92563 0.97893 -0.13300
O 	O 	0.50587 0.10093 0.19223 -0.27200
C 	C 	0.58027 0.07593 0.04683 -0.30000
H 	H 	0.61167 0.08073 0.06943 0.14300
C 	C 	0.77027 0.92903 0.83083 0.10400
H 	H 	0.78537 0.96563 0.84543 0.05700
C 	C 	0.70137 0.94053 0.76223 0.44900
C 	C 	0.72737 0.90703 0.78423 -0.15200
C 	C 	0.57587 0.06573 0.97913 0.24200
C 	C 	0.61217 0.04063 0.95293 0.21100
H 	H 	0.57757 0.96863 0.77173 0.40200
O 	O 	0.34847 0.29783 0.67623 -0.29400
O 	O 	0.28373 0.38247 0.21997 -0.43200
O 	O 	0.33203 0.25337 0.04997 -0.58500
O 	O 	0.27543 0.32097 0.08897 -0.99000
O 	O 	0.28378 0.27011 0.20887 -0.55700
O 	O 	0.31533 0.43117 0.27657 -0.16800
O 	O 	0.52193 0.21157 0.26287 -0.19400
O 	O 	0.54973 0.30957 0.23467 -0.02500
O 	O 	0.48133 0.25897 0.31227 -0.16400
O 	O 	0.17253 0.43427 0.52557 -0.28200
C 	C 	0.24693 0.40927 0.38017 -0.02800
H 	H 	0.27833 0.41407 0.40277 0.07400
C 	C 	0.43693 0.26237 0.16417 0.12600
H 	H 	0.45203 0.29897 0.17877 0.02000
C 	C 	0.36803 0.27387 0.09557 0.45600
C 	C 	0.39403 0.24037 0.11757 -0.19400
C 	C 	0.24253 0.39907 0.31247 0.02000
C 	C 	0.27883 0.37397 0.28627 0.30400
H 	H 	0.24423 0.30197 0.10507 0.39900
O 	O 	0.01513 0.63117 0.00957 -0.80400
O 	O 	0.28420 0.23460 0.55330 -0.43500
O 	O 	0.41330 0.41200 0.38330 -0.55300
O 	O 	0.34570 0.28780 0.42230 -0.98200
O 	O 	0.39656 0.34701 0.54220 -0.55600
O 	O 	0.23550 0.21750 0.60990 -0.17500
O 	O 	0.45510 0.64370 0.59620 -0.20100
O 	O 	0.35710 0.57350 0.56800 -0.00800
O 	O 	0.40770 0.55570 0.64560 -0.16600
O 	O 	0.23240 0.07160 0.85890 -0.29600
C 	C 	0.25740 0.17100 0.71350 -0.01900
H 	H 	0.25260 0.19760 0.73610 0.06800
C 	C 	0.40430 0.50790 0.49750 0.12100
H 	H 	0.36770 0.48640 0.51210 0.02700
C 	C 	0.39280 0.42750 0.42890 0.45600
C 	C 	0.42630 0.48700 0.45090 -0.17700
C 	C 	0.26760 0.17680 0.64580 0.00800
C 	C 	0.29270 0.23820 0.61960 0.31100
H 	H 	0.36470 0.27560 0.43840 0.40400
O 	O 	0.03550 0.71730 0.34290 -0.32000
O 	O 	0.95087 0.56793 0.88663 -0.36500
O 	O 	0.07997 0.74533 0.71663 -0.56200
O 	O 	0.01237 0.62113 0.75563 -1.01200
O 	O 	0.06323 0.68034 0.87553 -0.55500
O 	O 	0.90217 0.55083 0.94323 -0.13700
O 	O 	0.12177 0.97703 0.92953 -0.17800
O 	O 	0.02377 0.90683 0.90133 0.03200
O 	O 	0.07437 0.88903 0.97893 -0.15600
O 	O 	0.89907 0.40493 0.19223 -0.26100
C 	C 	0.92407 0.50433 0.04683 -0.34900
H 	H 	0.91927 0.53093 0.06943 0.16700
C 	C 	0.07097 0.84123 0.83083 0.11800
H 	H 	0.03437 0.81973 0.84543 0.01800
C 	C 	0.05947 0.76083 0.76223 0.45700
C 	C 	0.09297 0.82033 0.78423 -0.18000
C 	C 	0.93427 0.51013 0.97913 0.34100
C 	C 	0.95937 0.57153 0.95293 0.07800
H 	H 	0.03137 0.60893 0.77173 0.40800
O 	O 	0.70217 0.05063 0.67623 -0.30700
O 	O 	0.61753 0.90127 0.21997 -0.42300
O 	O 	0.74663 0.07867 0.04997 -0.59400
O 	O 	0.67903 0.95447 0.08897 -0.96500
O 	O 	0.72989 0.01368 0.20887 -0.60100
O 	O 	0.56883 0.88417 0.27657 -0.15800
O 	O 	0.78843 0.31037 0.26287 -0.19300
O 	O 	0.69043 0.24017 0.23467 -0.02500
O 	O 	0.74103 0.22237 0.31227 -0.16500
O 	O 	0.56573 0.73827 0.52557 -0.28000
C 	C 	0.59073 0.83767 0.38017 -0.02500
H 	H 	0.58593 0.86427 0.40277 0.07400
C 	C 	0.73763 0.17457 0.16417 0.12500
H 	H 	0.70103 0.15307 0.17877 0.02100
C 	C 	0.72613 0.09417 0.09557 0.46200
C 	C 	0.75963 0.15367 0.11757 -0.19400
C 	C 	0.60093 0.84347 0.31247 0.01500
C 	C 	0.62603 0.90487 0.28627 0.31200
H 	H 	0.69803 0.94227 0.10507 0.40400
O 	O 	0.36883 0.38397 0.00957 -0.62700
O 	O 	0.04960 0.76540 0.44670 -0.44500
O 	O 	0.00130 0.58800 0.61670 -0.62400
O 	O 	0.05790 0.71220 0.57770 -1.00500
O 	O 	0.04955 0.65299 0.45780 -0.54900
O 	O 	0.01800 0.78250 0.39010 -0.19000
O 	O 	0.81140 0.35630 0.40380 -0.20200
O 	O 	0.78360 0.42650 0.43200 -0.00900
O 	O 	0.85200 0.44430 0.35440 -0.16600
O 	O 	0.16080 0.92840 0.14110 -0.26800
C 	C 	0.08640 0.82900 0.28650 -0.02500
H 	H 	0.05500 0.80240 0.26390 0.05900
C 	C 	0.89640 0.49210 0.50250 0.14800
H 	H 	0.88130 0.51360 0.48790 0.01800
C 	C 	0.96530 0.57250 0.57110 0.54400
C 	C 	0.93930 0.51300 0.54910 -0.20300
C 	C 	0.09080 0.82320 0.35420 0.01800
C 	C 	0.05450 0.76180 0.38040 0.31100
H 	H 	0.08910 0.72440 0.56160 0.41000
O 	O 	0.31820 0.28270 0.65710 -0.30200
O 	O 	0.71627 0.09873 0.78003 -0.43900
O 	O 	0.66797 0.92133 0.95003 -0.49800
O 	O 	0.72457 0.04553 0.91103 -0.98200
O 	O 	0.71622 0.98632 0.79113 -0.50900
O 	O 	0.68467 0.11583 0.72343 -0.17600
O 	O 	0.47807 0.68963 0.73713 -0.21100
O 	O 	0.45027 0.75983 0.76533 0.01100
O 	O 	0.51867 0.77763 0.68773 -0.16900
O 	O 	0.82747 0.26173 0.47443 -0.27800
C 	C 	0.75307 0.16233 0.61983 -0.03000
H 	H 	0.72167 0.13573 0.59723 0.07300
C 	C 	0.56307 0.82543 0.83583 0.11400
H 	H 	0.54797 0.84693 0.82123 0.03300
C 	C 	0.63197 0.90583 0.90443 0.44700
C 	C 	0.60597 0.84633 0.88243 -0.15700
C 	C 	0.75747 0.15653 0.68753 0.02400
C 	C 	0.72117 0.09513 0.71373 0.29800
H 	H 	0.75577 0.05773 0.89493 0.40100
O 	O 	0.98487 0.61603 0.99043 0.21200
O 	O 	0.38293 0.43207 0.11337 -0.46600
O 	O 	0.33463 0.25467 0.28337 -0.55500
O 	O 	0.39123 0.37887 0.24437 -0.98000
O 	O 	0.38288 0.31966 0.12447 -0.56900
O 	O 	0.35133 0.44917 0.05677 -0.19500
O 	O 	0.14473 0.02297 0.07047 -0.21200
O 	O 	0.11693 0.09317 0.09867 -0.09800
O 	O 	0.18533 0.11097 0.02107 -0.18700
O 	O 	0.49413 0.59507 0.80777 -0.29400
C 	C 	0.41973 0.49567 0.95317 0.28500
H 	H 	0.38833 0.46907 0.93057 -0.01200
C 	C 	0.22973 0.15877 0.16917 0.13300
H 	H 	0.21463 0.18027 0.15457 0.01600
C 	C 	0.29863 0.23917 0.23777 0.46000
C 	C 	0.27263 0.17967 0.21577 -0.19100
C 	C 	0.42413 0.48987 0.02087 -0.26700
C 	C 	0.38783 0.42847 0.04707 0.47500
H 	H 	0.42243 0.39107 0.22827 0.40400
O 	O 	0.65153 0.94937 0.32377 -0.29100
O 	O 	0.71580 0.95040 0.44670 -0.40300
O 	O 	0.58670 0.99870 0.61670 -0.46200
O 	O 	0.65430 0.94210 0.57770 -0.94300
O 	O 	0.60344 0.95045 0.45780 -0.55800
O 	O 	0.76450 0.98200 0.39010 -0.12800
O 	O 	0.54490 0.18860 0.40380 -0.20300
O 	O 	0.64290 0.21640 0.43200 -0.00400
O 	O 	0.59230 0.14800 0.35440 -0.16800
O 	O 	0.76760 0.83920 0.14110 -0.28400
C 	C 	0.74260 0.91360 0.28650 -0.04200
H 	H 	0.74740 0.94500 0.26390 0.09800
C 	C 	0.59570 0.10360 0.50250 0.08700
H 	H 	0.63230 0.11870 0.48790 0.03700
C 	C 	0.60720 0.03470 0.57110 0.34400
C 	C 	0.57370 0.06070 0.54910 -0.14300
C 	C 	0.73240 0.90920 0.35420 0.04000
C 	C 	0.70730 0.94550 0.38040 0.28600
H 	H 	0.63530 0.91090 0.56160 0.39600
O 	O 	0.96450 0.68180 0.65710 -0.26900
O 	O 	0.38247 0.28373 0.78003 -0.43000
O 	O 	0.25337 0.33203 0.95003 -0.51400
O 	O 	0.32097 0.27543 0.91103 -0.96300
O 	O 	0.27011 0.28378 0.79113 -0.55600
O 	O 	0.43117 0.31533 0.72343 -0.16600
O 	O 	0.21157 0.52193 0.73713 -0.21100
O 	O 	0.30957 0.54973 0.76533 0.01200
O 	O 	0.25897 0.48133 0.68773 -0.16900
O 	O 	0.43427 0.17253 0.47443 -0.28200
C 	C 	0.40927 0.24693 0.61983 -0.03000
H 	H 	0.41407 0.27833 0.59723 0.07400
C 	C 	0.26237 0.43693 0.83583 0.11800
H 	H 	0.29897 0.45203 0.82123 0.03200
C 	C 	0.27387 0.36803 0.90443 0.45600
C 	C 	0.24037 0.39403 0.88243 -0.16000
C 	C 	0.39907 0.24253 0.68753 0.02400
C 	C 	0.37397 0.27883 0.71373 0.30200
H 	H 	0.30197 0.24423 0.89493 0.40800
O 	O 	0.63117 0.01513 0.99043 -0.20200
O 	O 	0.04913 0.61707 0.11337 -0.49900
O 	O 	0.92003 0.66537 0.28337 -0.54200
O 	O 	0.98763 0.60877 0.24437 -0.94700
O 	O 	0.93677 0.61712 0.12447 -0.55000
O 	O 	0.09783 0.64867 0.05677 -0.19700
O 	O 	0.87823 0.85527 0.07047 -0.22200
O 	O 	0.97623 0.88307 0.09867 0.02200
O 	O 	0.92563 0.81467 0.02107 -0.17500
O 	O 	0.10093 0.50587 0.80777 -0.30000
C 	C 	0.07593 0.58027 0.95317 0.31900
H 	H 	0.08073 0.61167 0.93057 -0.02600
C 	C 	0.92903 0.77027 0.16917 0.11500
H 	H 	0.96563 0.78537 0.15457 0.04500
C 	C 	0.94053 0.70137 0.23777 0.45200
C 	C 	0.90703 0.72737 0.21577 -0.16100
C 	C 	0.06573 0.57587 0.02087 -0.32000
C 	C 	0.04063 0.61217 0.04707 0.53300
H 	H 	0.96863 0.57757 0.22827 0.40100
O 	O 	0.29783 0.34847 0.32377 -0.29500
O 	O 	0.23460 0.28420 0.44670 -0.43500
O 	O 	0.41200 0.41330 0.61670 -0.55300
O 	O 	0.28780 0.34570 0.57770 -0.98200
O 	O 	0.34701 0.39656 0.45780 -0.55600
O 	O 	0.21750 0.23550 0.39010 -0.17600
O 	O 	0.64370 0.45510 0.40380 -0.20200
O 	O 	0.57350 0.35710 0.43200 -0.00700
O 	O 	0.55570 0.40770 0.35440 -0.16700
O 	O 	0.07160 0.23240 0.14110 -0.31800
C 	C 	0.17100 0.25740 0.28650 -0.02000
H 	H 	0.19760 0.25260 0.26390 0.06900
C 	C 	0.50790 0.40430 0.50250 0.12100
H 	H 	0.48640 0.36770 0.48790 0.02700
C 	C 	0.42750 0.39280 0.57110 0.45600
C 	C 	0.48700 0.42630 0.54910 -0.17700
C 	C 	0.17680 0.26760 0.35420 0.00900
C 	C 	0.23820 0.29270 0.38040 0.31100
H 	H 	0.27560 0.36470 0.56160 0.40400
O 	O 	0.71730 0.03550 0.65710 -0.32700
O 	O 	0.90127 0.61753 0.78003 -0.42400
O 	O 	0.07867 0.74663 0.95003 -0.52100
O 	O 	0.95447 0.67903 0.91103 -0.94500
O 	O 	0.01368 0.72989 0.79113 -0.58900
O 	O 	0.88417 0.56883 0.72343 -0.15900
O 	O 	0.31037 0.78843 0.73713 -0.21100
O 	O 	0.24017 0.69043 0.76533 0.01200
O 	O 	0.22237 0.74103 0.68773 -0.16900
O 	O 	0.73827 0.56573 0.47443 -0.28000
C 	C 	0.83767 0.59073 0.61983 -0.02700
H 	H 	0.86427 0.58593 0.59723 0.07500
C 	C 	0.17457 0.73763 0.83583 0.11700
H 	H 	0.15307 0.70103 0.82123 0.03300
C 	C 	0.09417 0.72613 0.90443 0.46000
C 	C 	0.15367 0.75963 0.88243 -0.16000
C 	C 	0.84347 0.60093 0.68753 0.02000
C 	C 	0.90487 0.62603 0.71373 0.30900
H 	H 	0.94227 0.69803 0.89493 0.41100
O 	O 	0.38397 0.36883 0.99043 0.03600
O 	O 	0.56793 0.95087 0.11337 -0.42400
O 	O 	0.74533 0.07997 0.28337 -0.56500
O 	O 	0.62113 0.01237 0.24437 -1.01900
O 	O 	0.68034 0.06323 0.12447 -0.58800
O 	O 	0.55083 0.90217 0.05677 -0.19100
O 	O 	0.97703 0.12177 0.07047 -0.18700
O 	O 	0.90683 0.02377 0.09867 -0.05400
O 	O 	0.88903 0.07437 0.02107 -0.20000
O 	O 	0.40493 0.89907 0.80777 -0.28800
C 	C 	0.50433 0.92407 0.95317 0.24800
H 	H 	0.53093 0.91927 0.93057 0.00400
C 	C 	0.84123 0.07097 0.16917 0.13100
H 	H 	0.81973 0.03437 0.15457 0.00200
C 	C 	0.76083 0.05947 0.23777 0.46100
C 	C 	0.82033 0.09297 0.21577 -0.19200
C 	C 	0.51013 0.93427 0.02087 -0.20300
C 	C 	0.57153 0.95937 0.04707 0.39700
H 	H 	0.60893 0.03137 0.22827 0.40700
O 	O 	0.05063 0.70217 0.32377 -0.30700
In	In	0.31108 0.00000 0.50000 1.99200
In	In	0.97775 0.33333 0.83333 2.02500
In	In	0.64441 0.66667 0.16667 2.01300
In	In	0.00000 0.31108 0.50000 1.99600
In	In	0.66667 0.64441 0.83333 2.01100
In	In	0.33333 0.97775 0.16667 2.03100
In	In	0.68892 0.68892 0.50000 2.01200
In	In	0.35559 0.02225 0.83333 1.99400
In	In	0.02225 0.35559 0.16667 1.99800
In	In	0.68892 0.00000 0.50000 1.99200
In	In	0.35559 0.33333 0.83333 2.01100
In	In	0.02225 0.66667 0.16667 1.99800
In	In	-0.00000 0.68892 0.50000 1.99600
In	In	0.66667 0.02225 0.83333 1.99400
In	In	0.33333 0.35559 0.16667 2.01300
In	In	0.31108 0.31108 0.50000 2.01200
In	In	0.97775 0.64441 0.83333 2.02500
In	In	0.64441 0.97775 0.16667 2.03100
In	In	0.33333 0.96430 0.66667 2.01000
In	In	-0.00000 0.29763 -0.00000 1.96500
In	In	0.03570 0.36904 0.66667 1.99700
In	In	0.70237 0.70237 -0.00000 1.98200
In	In	0.63096 0.66667 0.66667 2.00300
In	In	0.29763 0.00000 -0.00000 1.96200
In	In	0.96430 0.33333 0.33333 2.00900
In	In	0.36904 0.03570 0.33333 1.99600
In	In	0.66667 0.63096 0.33333 2.00300
In	In	0.66667 0.03570 0.33333 1.99600
In	In	0.96430 0.63096 0.33333 2.00900
In	In	0.36904 0.33333 0.33333 2.00300
In	In	0.03570 0.66667 0.66667 1.99700
In	In	0.70237 0.00000 -0.00000 1.96300
In	In	0.63096 0.96430 0.66667 2.01000
In	In	0.29763 0.29763 -0.00000 1.98200
In	In	0.33333 0.36904 0.66667 2.00300
In	In	-0.00000 0.70237 -0.00000 1.96500
S 	S 	0.12528 0.87472 0.16224 0.53000
O 	O 	0.15530 0.84470 0.13770 -0.25900
C 	C 	0.12715 0.87285 0.25200 -0.04600
C 	C 	0.13545 0.86455 0.38760 -0.05300
H 	H 	0.13775 0.86225 0.43370 0.10800
S 	S 	0.60310 0.39690 0.45170 -0.22800
S 	S 	0.79195 0.20805 0.49557 0.52900
O 	O 	0.82197 0.17803 0.47103 -0.24600
C 	C 	0.79382 0.20618 0.58533 -0.04800
C 	C 	0.80212 0.19788 0.72093 -0.05300
H 	H 	0.80442 0.19558 0.76703 0.10900
S 	S 	0.26977 0.73023 0.78503 -0.25600
S 	S 	0.45861 0.54139 0.82891 0.60700
O 	O 	0.48863 0.51137 0.80437 -0.26200
C 	C 	0.46048 0.53952 0.91867 -0.24800
C 	C 	0.46878 0.53122 0.05427 0.19200
H 	H 	0.47108 0.52892 0.10037 0.02200
S 	S 	0.93643 0.06357 0.11837 -0.16700
S 	S 	0.12528 0.25056 0.16224 0.53700
O 	O 	0.15530 0.31060 0.13770 -0.26100
C 	C 	0.12715 0.25430 0.25200 -0.06700
C 	C 	0.13545 0.27090 0.38760 -0.04300
H 	H 	0.13775 0.27550 0.43370 0.09800
S 	S 	0.60310 0.20620 0.45170 -0.23100
S 	S 	0.79195 0.58389 0.49557 0.52800
O 	O 	0.82197 0.64393 0.47103 -0.24200
C 	C 	0.79382 0.58763 0.58533 -0.04800
C 	C 	0.80212 0.60423 0.72093 -0.05100
H 	H 	0.80442 0.60883 0.76703 0.10800
S 	S 	0.26977 0.53953 0.78503 -0.25600
S 	S 	0.45861 0.91723 0.82891 0.59300
O 	O 	0.48863 0.97727 0.80437 -0.22700
C 	C 	0.46048 0.92097 0.91867 -0.20900
C 	C 	0.46878 0.93757 0.05427 0.14600
H 	H 	0.47108 0.94217 0.10037 0.05500
S 	S 	0.93643 0.87287 0.11837 -0.23300
S 	S 	0.74944 0.87472 0.16224 0.52400
O 	O 	0.68940 0.84470 0.13770 -0.25700
C 	C 	0.74570 0.87285 0.25200 -0.03000
C 	C 	0.72910 0.86455 0.38760 -0.06100
H 	H 	0.72450 0.86225 0.43370 0.11500
S 	S 	0.79380 0.39690 0.45170 -0.22500
S 	S 	0.41611 0.20805 0.49557 0.53000
O 	O 	0.35607 0.17803 0.47103 -0.25000
C 	C 	0.41237 0.20618 0.58533 -0.04800
C 	C 	0.39577 0.19788 0.72093 -0.05500
H 	H 	0.39117 0.19558 0.76703 0.11000
S 	S 	0.46047 0.73023 0.78503 -0.25500
S 	S 	0.08277 0.54139 0.82891 0.62000
O 	O 	0.02273 0.51137 0.80437 -0.28900
C 	C 	0.07903 0.53952 0.91867 -0.28300
C 	C 	0.06243 0.53122 0.05427 0.23300
H 	H 	0.05783 0.52892 0.10037 -0.00600
S 	S 	0.12713 0.06357 0.11837 -0.10500
S 	S 	0.87472 0.12528 0.83776 0.52800
O 	O 	0.84470 0.15530 0.86230 -0.23300
C 	C 	0.87285 0.12715 0.74800 -0.05200
C 	C 	0.86455 0.13545 0.61240 -0.05000
H 	H 	0.86225 0.13775 0.56630 0.10500
S 	S 	0.39690 0.60310 0.54830 -0.22700
S 	S 	0.54139 0.45861 0.17109 0.45200
O 	O 	0.51137 0.48863 0.19563 -0.23000
C 	C 	0.53952 0.46048 0.08133 0.14900
C 	C 	0.53122 0.46878 0.94573 -0.29400
H 	H 	0.52892 0.47108 0.89963 0.19000
S 	S 	0.06357 0.93643 0.88163 -0.30200
S 	S 	0.20805 0.79195 0.50443 0.52900
O 	O 	0.17803 0.82197 0.52897 -0.24500
C 	C 	0.20618 0.79382 0.41467 -0.05000
C 	C 	0.19788 0.80212 0.27907 -0.05000
H 	H 	0.19558 0.80442 0.23297 0.10300
S 	S 	0.73023 0.26977 0.21497 -0.20100
S 	S 	0.25056 0.12528 0.83776 0.53400
O 	O 	0.31060 0.15530 0.86230 -0.23400
C 	C 	0.25430 0.12715 0.74800 -0.06700
C 	C 	0.27090 0.13545 0.61240 -0.04200
H 	H 	0.27550 0.13775 0.56630 0.09700
S 	S 	0.20620 0.60310 0.54830 -0.23000
S 	S 	0.91723 0.45861 0.17109 0.44500
O 	O 	0.97727 0.48863 0.19563 -0.20100
C 	C 	0.92097 0.46048 0.08133 0.17000
C 	C 	0.93757 0.46878 0.94573 -0.31900
H 	H 	0.94217 0.47108 0.89963 0.21100
S 	S 	0.87287 0.93643 0.88163 -0.35000
S 	S 	0.58389 0.79195 0.50443 0.52800
O 	O 	0.64393 0.82197 0.52897 -0.24100
C 	C 	0.58763 0.79382 0.41467 -0.05000
C 	C 	0.60423 0.80212 0.27907 -0.04800
H 	H 	0.60883 0.80442 0.23297 0.10200
S 	S 	0.53953 0.26977 0.21497 -0.20000
S 	S 	0.87472 0.74944 0.83776 0.52200
O 	O 	0.84470 0.68940 0.86230 -0.23100
C 	C 	0.87285 0.74570 0.74800 -0.03200
C 	C 	0.86455 0.72910 0.61240 -0.06000
H 	H 	0.86225 0.72450 0.56630 0.11400
S 	S 	0.39690 0.79380 0.54830 -0.22400
S 	S 	0.54139 0.08277 0.17109 0.46600
O 	O 	0.51137 0.02273 0.19563 -0.26500
C 	C 	0.53952 0.07903 0.08133 0.10900
C 	C 	0.53122 0.06243 0.94573 -0.24700
H 	H 	0.52892 0.05783 0.89963 0.15600
S 	S 	0.06357 0.12713 0.88163 -0.23200
S 	S 	0.20805 0.41611 0.50443 0.53100
O 	O 	0.17803 0.35607 0.52897 -0.25000
C 	C 	0.20618 0.41237 0.41467 -0.05000
C 	C 	0.19788 0.39577 0.27907 -0.05200
H 	H 	0.19558 0.39117 0.23297 0.10400
S 	S 	0.73023 0.46047 0.21497 -0.20100
S 	S 	0.58633 0.17266 0.41313 0.80200
C 	C 	0.51979 0.03958 0.57240 0.07500
H 	H 	0.50550 0.01100 0.60380 0.01300
C 	C 	0.56160 0.12320 0.47820 -0.15000
S 	S 	0.25300 0.50599 0.74646 0.82600
C 	C 	0.18646 0.37291 0.90573 0.12200
H 	H 	0.17217 0.34433 0.93713 0.04800
C 	C 	0.22827 0.45653 0.81153 -0.16000
S 	S 	0.91966 0.83933 0.07980 0.81300
C 	C 	0.85312 0.70625 0.23907 0.12200
H 	H 	0.83883 0.67767 0.27047 0.03600
C 	C 	0.89493 0.78987 0.14487 -0.15900
S 	S 	0.82734 0.41367 0.41313 0.81100
C 	C 	0.96042 0.48021 0.57240 0.16800
H 	H 	0.98900 0.49450 0.60380 0.04800
C 	C 	0.87680 0.43840 0.47820 -0.18000
S 	S 	0.49401 0.74700 0.74646 0.82500
C 	C 	0.62709 0.81354 0.90573 0.11700
H 	H 	0.65567 0.82783 0.93713 0.04900
C 	C 	0.54347 0.77173 0.81153 -0.15800
S 	S 	0.16067 0.08034 0.07980 0.76800
C 	C 	0.29375 0.14688 0.23907 0.13900
H 	H 	0.32233 0.16117 0.27047 0.02600
C 	C 	0.21013 0.10507 0.14487 -0.19500
S 	S 	0.58633 0.41367 0.41313 0.80700
C 	C 	0.51979 0.48021 0.57240 0.12700
H 	H 	0.50550 0.49450 0.60380 0.03200
C 	C 	0.56160 0.43840 0.47820 -0.16700
S 	S 	0.25300 0.74700 0.74646 0.82600
C 	C 	0.18646 0.81354 0.90573 0.11800
H 	H 	0.17217 0.82783 0.93713 0.04900
C 	C 	0.22827 0.77173 0.81153 -0.15900
S 	S 	0.91966 0.08034 0.07980 0.79000
C 	C 	0.85312 0.14688 0.23907 0.13100
H 	H 	0.83883 0.16117 0.27047 0.03100
C 	C 	0.89493 0.10507 0.14487 -0.17700
S 	S 	0.17266 0.58633 0.58687 0.80200
C 	C 	0.03958 0.51979 0.42760 0.08400
H 	H 	0.01100 0.50550 0.39620 0.01700
C 	C 	0.12320 0.56160 0.52180 -0.15400
S 	S 	0.83933 0.91966 0.92020 0.84700
C 	C 	0.70625 0.85312 0.76093 0.11500
H 	H 	0.67767 0.83883 0.72953 0.03800
C 	C 	0.78987 0.89493 0.85513 -0.13900
S 	S 	0.50599 0.25300 0.25354 0.78900
C 	C 	0.37291 0.18646 0.09427 0.13600
H 	H 	0.34433 0.17217 0.06287 0.01600
C 	C 	0.45653 0.22827 0.18847 -0.17500
S 	S 	0.41367 0.82734 0.58687 0.81100
C 	C 	0.48021 0.96042 0.42760 0.17800
H 	H 	0.49450 0.98900 0.39620 0.05200
C 	C 	0.43840 0.87680 0.52180 -0.18300
S 	S 	0.08034 0.16067 0.92020 0.80400
C 	C 	0.14688 0.29375 0.76093 0.13100
H 	H 	0.16117 0.32233 0.72953 0.02900
C 	C 	0.10507 0.21013 0.85513 -0.17300
S 	S 	0.74700 0.49401 0.25354 0.78800
C 	C 	0.81354 0.62709 0.09427 0.13000
H 	H 	0.82783 0.65567 0.06287 0.01900
C 	C 	0.77173 0.54347 0.18847 -0.17300
S 	S 	0.41367 0.58633 0.58687 0.80600
C 	C 	0.48021 0.51979 0.42760 0.12700
H 	H 	0.49450 0.50550 0.39620 0.03200
C 	C 	0.43840 0.56160 0.52180 -0.16700
S 	S 	0.08034 0.91966 0.92020 0.82900
C 	C 	0.14688 0.85312 0.76093 0.12100
H 	H 	0.16117 0.83883 0.72953 0.03400
C 	C 	0.10507 0.89493 0.85513 -0.15300
S 	S 	0.74700 0.25300 0.25354 0.78900
C 	C 	0.81354 0.18646 0.09427 0.13200
H 	H 	0.82783 0.17217 0.06287 0.01800
C 	C 	0.77173 0.22827 0.18847 -0.17400
