data_crystal

_cell_length_a 8.11600
_cell_length_b 17.19460
_cell_length_c 17.19460
_cell_angle_alpha 62.42770
_cell_angle_beta  80.94760
_cell_angle_gamma 99.05240

_symmetry_space_group_name_	'P 1'
_symmetry_space_group_name_H-M	'P 1'

loop_
_symmetry_equiv_pos_as_xyz
  x,y,z

loop_
_atom_site_label
_atom_site_type_symbol
_atom_site_fract_x
_atom_site_fract_y
_atom_site_fract_z
_atom_site_charge
In	In	0.07595 0.29999 0.26869 2.00000
In	In	0.34464 0.26869 0.43132 2.00100
In	In	0.77596 0.43132 0.29999 2.00100
In	In	0.92405 0.70001 0.73131 2.00000
In	In	0.65536 0.73131 0.56868 2.00200
In	In	0.22404 0.56868 0.70001 2.00200
H 	H 	0.94380 0.72850 0.86290 0.12700
H 	H 	0.09910 0.80130 0.79800 0.15300
H 	H 	0.75150 0.26180 0.36670 0.30600
H 	H 	0.37750 0.55050 0.03290 0.03900
H 	H 	0.36650 0.74390 0.78650 0.05400
H 	H 	0.93420 0.61700 0.99170 0.06900
H 	H 	0.80670 0.86290 0.40860 0.13000
H 	H 	0.89710 0.79800 0.40070 0.15300
H 	H 	0.11820 0.36670 0.37150 0.30600
H 	H 	0.41040 0.03290 0.41660 0.04100
H 	H 	0.15300 0.78650 0.46960 0.05500
H 	H 	0.92590 0.99170 0.39130 0.07400
H 	H 	0.21530 0.40860 0.72850 0.13000
H 	H 	0.29780 0.40070 0.80130 0.15400
H 	H 	0.48970 0.37150 0.26180 0.30600
H 	H 	0.82700 0.41660 0.55050 0.04300
H 	H 	0.62260 0.46960 0.74390 0.05600
H 	H 	0.31720 0.39130 0.61700 0.07700
H 	H 	0.05620 0.27150 0.13710 0.12700
H 	H 	0.90090 0.19870 0.20200 0.15300
H 	H 	0.24850 0.73820 0.63330 0.30600
H 	H 	0.62250 0.44950 0.96710 0.03900
H 	H 	0.63350 0.25610 0.21350 0.05400
H 	H 	0.06580 0.38300 0.00830 0.06900
H 	H 	0.19330 0.13710 0.59140 0.13000
H 	H 	0.10290 0.20200 0.59930 0.15300
H 	H 	0.88180 0.63330 0.62850 0.30600
H 	H 	0.58960 0.96710 0.58340 0.04100
H 	H 	0.84700 0.21350 0.53040 0.05500
H 	H 	0.07410 0.00830 0.60870 0.07400
H 	H 	0.78470 0.59140 0.27150 0.13000
H 	H 	0.70220 0.59930 0.19870 0.15400
H 	H 	0.51030 0.62850 0.73820 0.30600
H 	H 	0.17300 0.58340 0.44950 0.04300
H 	H 	0.37740 0.53040 0.25610 0.05600
H 	H 	0.68280 0.60870 0.38300 0.07700
C 	C 	0.05022 0.49814 0.12208 0.41600
C 	C 	0.14194 0.57068 0.02626 -0.09700
C 	C 	0.31685 0.58505 0.99440 0.03400
C 	C 	0.40283 0.65023 0.90574 -0.08300
C 	C 	0.59570 0.66860 0.87380 0.36800
C 	C 	0.31093 0.70193 0.84704 -0.08100
C 	C 	0.13680 0.68931 0.88071 0.06500
C 	C 	0.05116 0.62456 0.96968 -0.05800
C 	C 	0.17230 0.12208 0.37978 0.41700
C 	C 	0.16820 0.02626 0.40306 -0.09100
C 	C 	0.31125 0.99440 0.42055 0.02700
C 	C 	0.30857 0.90574 0.44403 -0.08000
C 	C 	0.46950 0.87380 0.45760 0.36700
C 	C 	0.15797 0.84704 0.45103 -0.08500
C 	C 	0.01751 0.88071 0.42998 0.07000
C 	C 	0.02084 0.96968 0.40576 -0.06700
C 	C 	0.55208 0.37978 0.49814 0.41500
C 	C 	0.57126 0.40306 0.57068 -0.08400
C 	C 	0.73180 0.42055 0.58505 0.02100
C 	C 	0.75260 0.44403 0.65023 -0.07600
C 	C 	0.92710 0.45760 0.66860 0.36500
C 	C 	0.60900 0.45103 0.70193 -0.08800
C 	C 	0.44749 0.42998 0.68931 0.07200
C 	C 	0.42660 0.40576 0.62456 -0.07500
C 	C 	0.94978 0.50186 0.87792 0.41600
C 	C 	0.85806 0.42932 0.97374 -0.09700
C 	C 	0.68315 0.41495 0.00560 0.03400
C 	C 	0.59717 0.34977 0.09426 -0.08300
C 	C 	0.40430 0.33140 0.12620 0.36800
C 	C 	0.68907 0.29807 0.15296 -0.08100
C 	C 	0.86320 0.31069 0.11929 0.06500
C 	C 	0.94884 0.37544 0.03032 -0.05800
C 	C 	0.82770 0.87792 0.62022 0.41700
C 	C 	0.83180 0.97374 0.59694 -0.09100
C 	C 	0.68875 0.00560 0.57945 0.02700
C 	C 	0.69143 0.09426 0.55597 -0.08000
C 	C 	0.53050 0.12620 0.54240 0.36700
C 	C 	0.84203 0.15296 0.54897 -0.08500
C 	C 	0.98249 0.11929 0.57002 0.07000
C 	C 	0.97916 0.03032 0.59424 -0.06700
C 	C 	0.44792 0.62022 0.50186 0.41500
C 	C 	0.42874 0.59694 0.42932 -0.08400
C 	C 	0.26820 0.57945 0.41495 0.02100
C 	C 	0.24740 0.55597 0.34977 -0.07600
C 	C 	0.07290 0.54240 0.33140 0.36500
C 	C 	0.39100 0.54897 0.29807 -0.08800
C 	C 	0.55251 0.57002 0.31069 0.07200
C 	C 	0.57340 0.59424 0.37544 -0.07500
N 	N 	0.04154 0.74468 0.82166 -0.42200
N 	N 	0.86320 0.82166 0.43366 -0.42600
N 	N 	0.29686 0.43366 0.74468 -0.42600
N 	N 	0.95846 0.25532 0.17834 -0.42200
N 	N 	0.13680 0.17834 0.56634 -0.42600
N 	N 	0.70314 0.56634 0.25532 -0.42600
O 	O 	0.13050 0.44138 0.16408 -0.56100
O 	O 	0.89887 0.49875 0.15584 -0.54700
O 	O 	0.65554 0.68320 0.79378 -0.54900
O 	O 	0.68466 0.66806 0.92558 -0.32200
O 	O 	0.83245 0.30868 0.32103 -0.91100
O 	O 	0.29458 0.16408 0.39454 -0.56100
O 	O 	0.05471 0.15584 0.34541 -0.55000
O 	O 	0.44932 0.79378 0.52302 -0.54900
O 	O 	0.61024 0.92558 0.40636 -0.32200
O 	O 	0.15348 0.32103 0.37029 -0.91200
O 	O 	0.68912 0.39454 0.44138 -0.56000
O 	O 	0.40012 0.34541 0.49875 -0.54800
O 	O 	0.97234 0.52302 0.68320 -0.54900
O 	O 	0.01660 0.40636 0.66806 -0.32100
O 	O 	0.52377 0.37029 0.30868 -0.91200
O 	O 	0.86950 0.55862 0.83592 -0.56100
O 	O 	0.10113 0.50125 0.84416 -0.54700
O 	O 	0.34446 0.31680 0.20622 -0.54900
O 	O 	0.31534 0.33194 0.07442 -0.32200
O 	O 	0.16755 0.69132 0.67897 -0.91100
O 	O 	0.70542 0.83592 0.60546 -0.56100
O 	O 	0.94529 0.84416 0.65459 -0.55000
O 	O 	0.55068 0.20622 0.47698 -0.54900
O 	O 	0.38976 0.07442 0.59364 -0.32200
O 	O 	0.84652 0.67897 0.62971 -0.91200
O 	O 	0.31088 0.60546 0.55862 -0.56000
O 	O 	0.59988 0.65459 0.50125 -0.54800
O 	O 	0.02766 0.47698 0.31680 -0.54900
O 	O 	0.98340 0.59364 0.33194 -0.32100
O 	O 	0.47623 0.62971 0.69132 -0.91200
