data_crystal

_cell_length_a 24.50630
_cell_length_b 24.50630
_cell_length_c 24.50630
_cell_angle_alpha 90.00000
_cell_angle_beta  90.00000
_cell_angle_gamma 90.00000

_symmetry_space_group_name_	'P 1'
_symmetry_space_group_name_H-M	'P 1'

loop_
_symmetry_equiv_pos_as_xyz
  x,y,z

loop_
_atom_site_label
_atom_site_type_symbol
_atom_site_fract_x
_atom_site_fract_y
_atom_site_fract_z
_atom_site_charge
Co	Co	0.89611 0.02906 0.06681 1.21800
C 	C 	0.81340 0.11150 0.10580 0.06700
H 	H 	0.79060 0.09100 0.08210 0.00400
C 	C 	0.79050 0.15510 0.13260 -0.11200
H 	H 	0.75270 0.16310 0.12910 0.06300
C 	C 	0.82490 0.18770 0.16550 0.03500
C 	C 	0.87840 0.17190 0.17090 -0.10400
H 	H 	0.90250 0.19230 0.19330 0.06700
C 	C 	0.89710 0.12610 0.14380 0.06600
H 	H 	0.93410 0.11560 0.14860 0.03300
C 	C 	0.79350 0.96130 0.04200 0.07600
H 	H 	0.80710 0.96230 0.00580 0.03100
C 	C 	0.74540 0.93470 0.05150 -0.11300
H 	H 	0.72620 0.91840 0.02210 0.07000
C 	C 	0.72480 0.93160 0.10320 0.04200
C 	C 	0.75380 0.95690 0.14430 -0.11000
H 	H 	0.74060 0.95660 0.18080 0.07000
C 	C 	0.80210 0.98250 0.13180 0.07100
H 	H 	0.82210 0.99860 0.16090 0.02000
C 	C 	0.80230 0.23630 0.19260 0.08800
C 	C 	0.67490 0.90080 0.11570 0.08700
N 	N 	0.82280 0.98620 0.08170 -0.20600
N 	N 	0.86520 0.09580 0.11080 -0.21700
F 	F 	0.86540 0.06370 0.99780 -0.61000
F 	F 	0.93280 0.96170 0.03160 -0.66800
C 	C 	0.75620 0.26140 0.17200 -0.14000
C 	C 	0.64430 0.91500 0.16050 -0.13800
H 	H 	0.73840 0.24710 0.14070 0.07300
H 	H 	0.65420 0.94590 0.18170 0.07700
N 	N 	0.82800 0.25620 0.23860 -0.18600
N 	N 	0.66050 0.85570 0.08500 -0.18600
Co	Co	0.60389 0.97094 0.56681 1.24100
C 	C 	0.68660 0.88850 0.60580 0.07200
H 	H 	0.70940 0.90900 0.58210 0.02100
C 	C 	0.70950 0.84490 0.63260 -0.10800
H 	H 	0.74730 0.83690 0.62910 0.07200
C 	C 	0.67510 0.81230 0.66550 0.03600
C 	C 	0.62160 0.82810 0.67090 -0.10100
H 	H 	0.59750 0.80770 0.69330 0.06700
C 	C 	0.60290 0.87390 0.64380 0.06900
H 	H 	0.56590 0.88440 0.64860 0.03500
C 	C 	0.70650 0.03870 0.54200 0.07200
H 	H 	0.69290 0.03770 0.50580 0.02200
C 	C 	0.75460 0.06530 0.55150 -0.11800
H 	H 	0.77380 0.08160 0.52210 0.06900
C 	C 	0.77520 0.06840 0.60320 0.04100
C 	C 	0.74620 0.04310 0.64430 -0.11500
H 	H 	0.75940 0.04340 0.68080 0.06600
C 	C 	0.69790 0.01750 0.63180 0.06600
H 	H 	0.67790 0.00140 0.66090 0.00300
C 	C 	0.69770 0.76370 0.69260 0.09300
C 	C 	0.82510 0.09920 0.61570 0.08500
N 	N 	0.67720 0.01380 0.58170 -0.22200
N 	N 	0.63480 0.90420 0.61080 -0.20900
F 	F 	0.63460 0.93630 0.49780 -0.61700
F 	F 	0.56720 0.03830 0.53160 -0.69500
C 	C 	0.74380 0.73860 0.67200 -0.14000
C 	C 	0.85570 0.08500 0.66050 -0.13800
H 	H 	0.76160 0.75290 0.64070 0.07800
H 	H 	0.84580 0.05410 0.68170 0.07300
N 	N 	0.67200 0.74380 0.73860 -0.18600
N 	N 	0.83950 0.14430 0.58500 -0.18600
Co	Co	0.10389 0.52906 0.43319 1.23000
C 	C 	0.18660 0.61150 0.39420 0.06900
H 	H 	0.20940 0.59100 0.41790 0.01300
C 	C 	0.20950 0.65510 0.36740 -0.11200
H 	H 	0.24730 0.66310 0.37090 0.06700
C 	C 	0.17510 0.68770 0.33450 0.03400
C 	C 	0.12160 0.67190 0.32910 -0.10500
H 	H 	0.09750 0.69230 0.30670 0.06200
C 	C 	0.10290 0.62610 0.35620 0.06600
H 	H 	0.06590 0.61560 0.35140 0.02600
C 	C 	0.20650 0.46130 0.45800 0.07400
H 	H 	0.19290 0.46230 0.49420 0.02800
C 	C 	0.25460 0.43470 0.44850 -0.11600
H 	H 	0.27380 0.41840 0.47790 0.07000
C 	C 	0.27520 0.43160 0.39680 0.04100
C 	C 	0.24620 0.45690 0.35570 -0.11300
H 	H 	0.25940 0.45660 0.31920 0.06600
C 	C 	0.19790 0.48250 0.36820 0.06900
H 	H 	0.17790 0.49860 0.33910 0.00900
C 	C 	0.19770 0.73630 0.30740 0.08800
C 	C 	0.32510 0.40080 0.38430 0.08600
N 	N 	0.17720 0.48620 0.41830 -0.21300
N 	N 	0.13480 0.59580 0.38920 -0.21300
F 	F 	0.13460 0.56370 0.50220 -0.62500
F 	F 	0.06720 0.46170 0.46840 -0.68900
C 	C 	0.24380 0.76140 0.32800 -0.14000
C 	C 	0.35570 0.41500 0.33950 -0.13700
H 	H 	0.26160 0.74710 0.35930 0.07500
H 	H 	0.34580 0.44590 0.31830 0.07400
N 	N 	0.17200 0.75620 0.26140 -0.18600
N 	N 	0.33950 0.35570 0.41500 -0.18500
Co	Co	0.39611 0.47094 0.93319 1.23600
C 	C 	0.31340 0.38850 0.89420 0.06900
H 	H 	0.29060 0.40900 0.91790 0.01700
C 	C 	0.29050 0.34490 0.86740 -0.11000
H 	H 	0.25270 0.33690 0.87090 0.06700
C 	C 	0.32490 0.31230 0.83450 0.03400
C 	C 	0.37840 0.32810 0.82910 -0.10300
H 	H 	0.40250 0.30770 0.80670 0.06500
C 	C 	0.39710 0.37390 0.85620 0.06600
H 	H 	0.43410 0.38440 0.85140 0.03300
C 	C 	0.29350 0.53870 0.95800 0.07500
H 	H 	0.30710 0.53770 0.99420 0.03700
C 	C 	0.24540 0.56530 0.94850 -0.11400
H 	H 	0.22620 0.58160 0.97790 0.07500
C 	C 	0.22480 0.56840 0.89680 0.04100
C 	C 	0.25380 0.54310 0.85570 -0.11200
H 	H 	0.24060 0.54340 0.81920 0.06600
C 	C 	0.30210 0.51750 0.86820 0.06900
H 	H 	0.32210 0.50140 0.83910 0.01100
C 	C 	0.30230 0.26370 0.80740 0.08900
C 	C 	0.17490 0.59920 0.88430 0.08700
N 	N 	0.32280 0.51380 0.91830 -0.21100
N 	N 	0.36520 0.40420 0.88920 -0.21000
F 	F 	0.36540 0.43630 0.00220 -0.64500
F 	F 	0.43280 0.53830 0.96840 -0.67300
C 	C 	0.25620 0.23860 0.82800 -0.14100
C 	C 	0.14430 0.58500 0.83950 -0.13700
H 	H 	0.23840 0.25290 0.85930 0.07500
H 	H 	0.15420 0.55410 0.81830 0.07400
N 	N 	0.32800 0.24380 0.76140 -0.18600
N 	N 	0.16050 0.64430 0.91500 -0.18600
Co	Co	0.06681 0.89611 0.02906 1.21700
C 	C 	0.10580 0.81340 0.11150 0.06300
H 	H 	0.08210 0.79060 0.09100 0.00400
C 	C 	0.13260 0.79050 0.15510 -0.10800
H 	H 	0.12910 0.75270 0.16310 0.06000
C 	C 	0.16550 0.82490 0.18770 0.02700
C 	C 	0.17090 0.87840 0.17190 -0.10100
H 	H 	0.19330 0.90250 0.19230 0.06400
C 	C 	0.14380 0.89710 0.12610 0.06300
H 	H 	0.14860 0.93410 0.11560 0.03200
C 	C 	0.04200 0.79350 0.96130 0.07200
H 	H 	0.00580 0.80710 0.96230 0.03100
C 	C 	0.05150 0.74540 0.93470 -0.10900
H 	H 	0.02210 0.72620 0.91840 0.06700
C 	C 	0.10320 0.72480 0.93160 0.03400
C 	C 	0.14430 0.75380 0.95690 -0.10400
H 	H 	0.18080 0.74060 0.95660 0.06700
C 	C 	0.13180 0.80210 0.98250 0.06800
H 	H 	0.16090 0.82210 0.99860 0.02200
C 	C 	0.19260 0.80230 0.23630 0.10500
C 	C 	0.11570 0.67490 0.90080 0.10500
N 	N 	0.08170 0.82280 0.98620 -0.20500
N 	N 	0.11080 0.86520 0.09580 -0.21600
F 	F 	0.99780 0.86540 0.06370 -0.61000
F 	F 	0.03160 0.93280 0.96170 -0.66800
H 	H 	0.14070 0.73840 0.24710 0.09400
H 	H 	0.18170 0.65420 0.94590 0.09900
N 	N 	0.23860 0.82800 0.25620 -0.18600
N 	N 	0.08500 0.66050 0.85570 -0.18500
Co	Co	0.56681 0.60389 0.97094 1.24100
C 	C 	0.60580 0.68660 0.88850 0.06900
H 	H 	0.58210 0.70940 0.90900 0.02200
C 	C 	0.63260 0.70950 0.84490 -0.10300
H 	H 	0.62910 0.74730 0.83690 0.07000
C 	C 	0.66550 0.67510 0.81230 0.02900
C 	C 	0.67090 0.62160 0.82810 -0.09700
H 	H 	0.69330 0.59750 0.80770 0.06500
C 	C 	0.64380 0.60290 0.87390 0.06600
H 	H 	0.64860 0.56590 0.88440 0.03600
C 	C 	0.54200 0.70650 0.03870 0.06900
H 	H 	0.50580 0.69290 0.03770 0.02300
C 	C 	0.55150 0.75460 0.06530 -0.11300
H 	H 	0.52210 0.77380 0.08160 0.06700
C 	C 	0.60320 0.77520 0.06840 0.03300
C 	C 	0.64430 0.74620 0.04310 -0.10900
H 	H 	0.68080 0.75940 0.04340 0.06300
C 	C 	0.63180 0.69790 0.01750 0.06300
H 	H 	0.66090 0.67790 0.00140 0.00400
C 	C 	0.69260 0.69770 0.76370 0.10900
C 	C 	0.61570 0.82510 0.09920 0.10300
N 	N 	0.58170 0.67720 0.01380 -0.22100
N 	N 	0.61080 0.63480 0.90420 -0.20800
F 	F 	0.49780 0.63460 0.93630 -0.61700
F 	F 	0.53160 0.56720 0.03830 -0.69500
H 	H 	0.64070 0.76160 0.75290 0.09900
H 	H 	0.68170 0.84580 0.05410 0.09500
N 	N 	0.73860 0.67200 0.74380 -0.18700
N 	N 	0.58500 0.83950 0.14430 -0.18600
Co	Co	0.43319 0.10389 0.52906 1.23000
C 	C 	0.39420 0.18660 0.61150 0.06500
H 	H 	0.41790 0.20940 0.59100 0.01400
C 	C 	0.36740 0.20950 0.65510 -0.10600
H 	H 	0.37090 0.24730 0.66310 0.06500
C 	C 	0.33450 0.17510 0.68770 0.02800
C 	C 	0.32910 0.12160 0.67190 -0.10100
H 	H 	0.30670 0.09750 0.69230 0.06100
C 	C 	0.35620 0.10290 0.62610 0.06400
H 	H 	0.35140 0.06590 0.61560 0.02700
C 	C 	0.45800 0.20650 0.46130 0.07200
H 	H 	0.49420 0.19290 0.46230 0.02900
C 	C 	0.44850 0.25460 0.43470 -0.11100
H 	H 	0.47790 0.27380 0.41840 0.06800
C 	C 	0.39680 0.27520 0.43160 0.03400
C 	C 	0.35570 0.24620 0.45690 -0.10700
H 	H 	0.31920 0.25940 0.45660 0.06400
C 	C 	0.36820 0.19790 0.48250 0.06600
H 	H 	0.33910 0.17790 0.49860 0.01000
C 	C 	0.30740 0.19770 0.73630 0.10500
C 	C 	0.38430 0.32510 0.40080 0.10400
N 	N 	0.41830 0.17720 0.48620 -0.21200
N 	N 	0.38920 0.13480 0.59580 -0.21200
F 	F 	0.50220 0.13460 0.56370 -0.62500
F 	F 	0.46840 0.06720 0.46170 -0.68900
H 	H 	0.35930 0.26160 0.74710 0.09700
H 	H 	0.31830 0.34580 0.44590 0.09600
N 	N 	0.26140 0.17200 0.75620 -0.18600
N 	N 	0.41500 0.33950 0.35570 -0.18500
Co	Co	0.93319 0.39611 0.47094 1.23600
C 	C 	0.89420 0.31340 0.38850 0.06600
H 	H 	0.91790 0.29060 0.40900 0.01800
C 	C 	0.86740 0.29050 0.34490 -0.10500
H 	H 	0.87090 0.25270 0.33690 0.06500
C 	C 	0.83450 0.32490 0.31230 0.02700
C 	C 	0.82910 0.37840 0.32810 -0.09900
H 	H 	0.80670 0.40250 0.30770 0.06400
C 	C 	0.85620 0.39710 0.37390 0.06400
H 	H 	0.85140 0.43410 0.38440 0.03300
C 	C 	0.95800 0.29350 0.53870 0.07200
H 	H 	0.99420 0.30710 0.53770 0.03800
C 	C 	0.94850 0.24540 0.56530 -0.10900
H 	H 	0.97790 0.22620 0.58160 0.07300
C 	C 	0.89680 0.22480 0.56840 0.03400
C 	C 	0.85570 0.25380 0.54310 -0.10600
H 	H 	0.81920 0.24060 0.54340 0.06400
C 	C 	0.86820 0.30210 0.51750 0.06500
H 	H 	0.83910 0.32210 0.50140 0.01200
C 	C 	0.80740 0.30230 0.26370 0.10600
C 	C 	0.88430 0.17490 0.59920 0.10500
N 	N 	0.91830 0.32280 0.51380 -0.21000
N 	N 	0.88920 0.36520 0.40420 -0.20900
F 	F 	0.00220 0.36540 0.43630 -0.64500
F 	F 	0.96840 0.43280 0.53830 -0.67300
H 	H 	0.85930 0.23840 0.25290 0.09600
H 	H 	0.81830 0.15420 0.55410 0.09600
N 	N 	0.76140 0.32800 0.24380 -0.18600
N 	N 	0.91500 0.16050 0.64430 -0.18600
Co	Co	0.02906 0.06681 0.89611 1.21700
C 	C 	0.11150 0.10580 0.81340 0.06500
H 	H 	0.09100 0.08210 0.79060 0.00300
C 	C 	0.15510 0.13260 0.79050 -0.11200
H 	H 	0.16310 0.12910 0.75270 0.06200
C 	C 	0.18770 0.16550 0.82490 0.03400
C 	C 	0.17190 0.17090 0.87840 -0.10600
H 	H 	0.19230 0.19330 0.90250 0.06700
C 	C 	0.12610 0.14380 0.89710 0.06600
H 	H 	0.11560 0.14860 0.93410 0.03100
C 	C 	0.96130 0.04200 0.79350 0.07600
H 	H 	0.96230 0.00580 0.80710 0.03000
C 	C 	0.93470 0.05150 0.74540 -0.11500
H 	H 	0.91840 0.02210 0.72620 0.07000
C 	C 	0.93160 0.10320 0.72480 0.04100
C 	C 	0.95690 0.14430 0.75380 -0.10800
H 	H 	0.95660 0.18080 0.74060 0.06900
C 	C 	0.98250 0.13180 0.80210 0.07000
H 	H 	0.99860 0.16090 0.82210 0.02100
C 	C 	0.23630 0.19260 0.80230 0.08800
C 	C 	0.90080 0.11570 0.67490 0.08800
N 	N 	0.98620 0.08170 0.82280 -0.20600
N 	N 	0.09580 0.11080 0.86520 -0.21700
F 	F 	0.06370 0.99780 0.86540 -0.61000
F 	F 	0.96170 0.03160 0.93280 -0.66800
H 	H 	0.24710 0.14070 0.73840 0.09400
H 	H 	0.94590 0.18170 0.65420 0.09900
Co	Co	0.97094 0.56681 0.60389 1.24100
C 	C 	0.88850 0.60580 0.68660 0.07100
H 	H 	0.90900 0.58210 0.70940 0.02100
C 	C 	0.84490 0.63260 0.70950 -0.10700
H 	H 	0.83690 0.62910 0.74730 0.07100
C 	C 	0.81230 0.66550 0.67510 0.03600
C 	C 	0.82810 0.67090 0.62160 -0.10300
H 	H 	0.80770 0.69330 0.59750 0.06800
C 	C 	0.87390 0.64380 0.60290 0.07000
H 	H 	0.88440 0.64860 0.56590 0.03500
C 	C 	0.03870 0.54200 0.70650 0.07300
H 	H 	0.03770 0.50580 0.69290 0.02200
C 	C 	0.06530 0.55150 0.75460 -0.11900
H 	H 	0.08160 0.52210 0.77380 0.06900
C 	C 	0.06840 0.60320 0.77520 0.04000
C 	C 	0.04310 0.64430 0.74620 -0.11300
H 	H 	0.04340 0.68080 0.75940 0.06500
C 	C 	0.01750 0.63180 0.69790 0.06500
H 	H 	0.00140 0.66090 0.67790 0.00300
C 	C 	0.76370 0.69260 0.69770 0.09300
C 	C 	0.09920 0.61570 0.82510 0.08600
N 	N 	0.01380 0.58170 0.67720 -0.22200
N 	N 	0.90420 0.61080 0.63480 -0.20900
F 	F 	0.93630 0.49780 0.63460 -0.61700
F 	F 	0.03830 0.53160 0.56720 -0.69500
H 	H 	0.75290 0.64070 0.76160 0.09900
H 	H 	0.05410 0.68170 0.84580 0.09500
Co	Co	0.52906 0.43319 0.10389 1.23000
C 	C 	0.61150 0.39420 0.18660 0.06800
H 	H 	0.59100 0.41790 0.20940 0.01400
C 	C 	0.65510 0.36740 0.20950 -0.11000
H 	H 	0.66310 0.37090 0.24730 0.06600
C 	C 	0.68770 0.33450 0.17510 0.03400
C 	C 	0.67190 0.32910 0.12160 -0.10700
H 	H 	0.69230 0.30670 0.09750 0.06300
C 	C 	0.62610 0.35620 0.10290 0.06700
H 	H 	0.61560 0.35140 0.06590 0.02600
C 	C 	0.46130 0.45800 0.20650 0.07500
H 	H 	0.46230 0.49420 0.19290 0.02800
C 	C 	0.43470 0.44850 0.25460 -0.11700
H 	H 	0.41840 0.47790 0.27380 0.07100
C 	C 	0.43160 0.39680 0.27520 0.04100
C 	C 	0.45690 0.35570 0.24620 -0.11100
H 	H 	0.45660 0.31920 0.25940 0.06600
C 	C 	0.48250 0.36820 0.19790 0.06800
H 	H 	0.49860 0.33910 0.17790 0.00900
C 	C 	0.73630 0.30740 0.19770 0.08800
C 	C 	0.40080 0.38430 0.32510 0.08700
N 	N 	0.48620 0.41830 0.17720 -0.21300
N 	N 	0.59580 0.38920 0.13480 -0.21300
F 	F 	0.56370 0.50220 0.13460 -0.62500
F 	F 	0.46170 0.46840 0.06720 -0.68900
H 	H 	0.74710 0.35930 0.26160 0.09600
H 	H 	0.44590 0.31830 0.34580 0.09600
Co	Co	0.47094 0.93319 0.39611 1.23600
C 	C 	0.38850 0.89420 0.31340 0.06800
H 	H 	0.40900 0.91790 0.29060 0.01700
C 	C 	0.34490 0.86740 0.29050 -0.10900
H 	H 	0.33690 0.87090 0.25270 0.06600
C 	C 	0.31230 0.83450 0.32490 0.03400
C 	C 	0.32810 0.82910 0.37840 -0.10500
H 	H 	0.30770 0.80670 0.40250 0.06600
C 	C 	0.37390 0.85620 0.39710 0.06700
H 	H 	0.38440 0.85140 0.43410 0.03200
C 	C 	0.53870 0.95800 0.29350 0.07600
H 	H 	0.53770 0.99420 0.30710 0.03700
C 	C 	0.56530 0.94850 0.24540 -0.11500
H 	H 	0.58160 0.97790 0.22620 0.07500
C 	C 	0.56840 0.89680 0.22480 0.04100
C 	C 	0.54310 0.85570 0.25380 -0.11000
H 	H 	0.54340 0.81920 0.24060 0.06600
C 	C 	0.51750 0.86820 0.30210 0.06700
H 	H 	0.50140 0.83910 0.32210 0.01100
C 	C 	0.26370 0.80740 0.30230 0.08900
C 	C 	0.59920 0.88430 0.17490 0.08800
N 	N 	0.51380 0.91830 0.32280 -0.21100
N 	N 	0.40420 0.88920 0.36520 -0.21000
F 	F 	0.43630 0.00220 0.36540 -0.64500
F 	F 	0.53830 0.96840 0.43280 -0.67300
H 	H 	0.25290 0.85930 0.23840 0.09600
H 	H 	0.55410 0.81830 0.15420 0.09600
Co	Co	0.10389 0.97094 0.93319 1.24600
C 	C 	0.18660 0.88850 0.89420 0.07200
H 	H 	0.20940 0.90900 0.91790 0.02400
C 	C 	0.20950 0.84490 0.86740 -0.10800
H 	H 	0.24730 0.83690 0.87090 0.07100
C 	C 	0.17510 0.81230 0.83450 0.03500
C 	C 	0.12160 0.82810 0.82910 -0.10300
H 	H 	0.09750 0.80770 0.80670 0.06500
C 	C 	0.10290 0.87390 0.85620 0.06800
H 	H 	0.06590 0.88440 0.85140 0.03200
C 	C 	0.20650 0.03870 0.95800 0.07300
H 	H 	0.19290 0.03770 0.99420 0.02900
C 	C 	0.25460 0.06530 0.94850 -0.11700
H 	H 	0.27380 0.08160 0.97790 0.07300
C 	C 	0.27520 0.06840 0.89680 0.04100
C 	C 	0.24620 0.04310 0.85570 -0.11500
H 	H 	0.25940 0.04340 0.81920 0.06400
C 	C 	0.19790 0.01750 0.86820 0.06700
H 	H 	0.17790 0.00140 0.83910 0.00100
C 	C 	0.19770 0.76370 0.80740 0.09100
C 	C 	0.32510 0.09920 0.88430 0.08600
N 	N 	0.17720 0.01380 0.91830 -0.22000
N 	N 	0.13480 0.90420 0.88920 -0.20700
F 	F 	0.13460 0.93630 0.00220 -0.63700
F 	F 	0.06720 0.03830 0.96840 -0.68800
C 	C 	0.24380 0.73860 0.82800 -0.14100
C 	C 	0.35570 0.08500 0.83950 -0.13700
H 	H 	0.26160 0.75290 0.85930 0.07700
H 	H 	0.34580 0.05410 0.81830 0.07200
N 	N 	0.17200 0.74380 0.76140 -0.18600
N 	N 	0.33950 0.14430 0.91500 -0.18600
Co	Co	0.39611 0.02906 0.43319 1.22000
C 	C 	0.31340 0.11150 0.39420 0.06600
H 	H 	0.29060 0.09100 0.41790 0.00600
C 	C 	0.29050 0.15510 0.36740 -0.11400
H 	H 	0.25270 0.16310 0.37090 0.06200
C 	C 	0.32490 0.18770 0.33450 0.03300
C 	C 	0.37840 0.17190 0.32910 -0.10600
H 	H 	0.40250 0.19230 0.30670 0.06300
C 	C 	0.39710 0.12610 0.35620 0.06400
H 	H 	0.43410 0.11560 0.35140 0.02800
C 	C 	0.29350 0.96130 0.45800 0.07600
H 	H 	0.30710 0.96230 0.49420 0.03600
C 	C 	0.24540 0.93470 0.44850 -0.11300
H 	H 	0.22620 0.91840 0.47790 0.07200
C 	C 	0.22480 0.93160 0.39680 0.04200
C 	C 	0.25380 0.95690 0.35570 -0.11000
H 	H 	0.24060 0.95660 0.31920 0.06800
C 	C 	0.30210 0.98250 0.36820 0.07200
H 	H 	0.32210 0.99860 0.33910 0.01900
C 	C 	0.30230 0.23630 0.30740 0.08600
C 	C 	0.17490 0.90080 0.38430 0.08700
N 	N 	0.32280 0.98620 0.41830 -0.20400
N 	N 	0.36520 0.09580 0.38920 -0.21600
F 	F 	0.36540 0.06370 0.50220 -0.63200
F 	F 	0.43280 0.96170 0.46840 -0.66900
C 	C 	0.25620 0.26140 0.32800 -0.14000
C 	C 	0.14430 0.91500 0.33950 -0.13800
H 	H 	0.23840 0.24710 0.35930 0.07200
H 	H 	0.15420 0.94590 0.31830 0.07600
N 	N 	0.32800 0.25620 0.26140 -0.18600
N 	N 	0.16050 0.85570 0.41500 -0.18600
Co	Co	0.89611 0.47094 0.56681 1.23200
C 	C 	0.81340 0.38850 0.60580 0.06900
H 	H 	0.79060 0.40900 0.58210 0.01400
C 	C 	0.79050 0.34490 0.63260 -0.11000
H 	H 	0.75270 0.33690 0.62910 0.06700
C 	C 	0.82490 0.31230 0.66550 0.03500
C 	C 	0.87840 0.32810 0.67090 -0.10200
H 	H 	0.90250 0.30770 0.69330 0.06800
C 	C 	0.89710 0.37390 0.64380 0.06700
H 	H 	0.93410 0.38440 0.64860 0.03700
C 	C 	0.79350 0.53870 0.54200 0.07400
H 	H 	0.80710 0.53770 0.50580 0.03100
C 	C 	0.74540 0.56530 0.55150 -0.11500
H 	H 	0.72620 0.58160 0.52210 0.07100
C 	C 	0.72480 0.56840 0.60320 0.04100
C 	C 	0.75380 0.54310 0.64430 -0.11200
H 	H 	0.74060 0.54340 0.68080 0.06800
C 	C 	0.80210 0.51750 0.63180 0.06800
H 	H 	0.82210 0.50140 0.66090 0.01300
C 	C 	0.80230 0.26370 0.69260 0.09100
C 	C 	0.67490 0.59920 0.61570 0.08700
N 	N 	0.82280 0.51380 0.58170 -0.21300
N 	N 	0.86520 0.40420 0.61080 -0.21100
F 	F 	0.86540 0.43630 0.49780 -0.62400
F 	F 	0.93280 0.53830 0.53160 -0.67500
C 	C 	0.75620 0.23860 0.67200 -0.14000
C 	C 	0.64430 0.58500 0.66050 -0.13800
H 	H 	0.73840 0.25290 0.64070 0.07500
H 	H 	0.65420 0.55410 0.68170 0.07500
N 	N 	0.82800 0.24380 0.73860 -0.18700
N 	N 	0.66050 0.64430 0.58500 -0.18600
Co	Co	0.60389 0.52906 0.06681 1.22600
C 	C 	0.68660 0.61150 0.10580 0.06900
H 	H 	0.70940 0.59100 0.08210 0.01000
C 	C 	0.70950 0.65510 0.13260 -0.11100
H 	H 	0.74730 0.66310 0.12910 0.06700
C 	C 	0.67510 0.68770 0.16550 0.03500
C 	C 	0.62160 0.67190 0.17090 -0.10400
H 	H 	0.59750 0.69230 0.19330 0.06500
C 	C 	0.60290 0.62610 0.14380 0.06700
H 	H 	0.56590 0.61560 0.14860 0.03000
C 	C 	0.70650 0.46130 0.04200 0.07300
H 	H 	0.69290 0.46230 0.00580 0.02100
C 	C 	0.75460 0.43470 0.05150 -0.11700
H 	H 	0.77380 0.41840 0.02210 0.06700
C 	C 	0.77520 0.43160 0.10320 0.04100
C 	C 	0.74620 0.45690 0.14430 -0.11300
H 	H 	0.75940 0.45660 0.18080 0.06700
C 	C 	0.69790 0.48250 0.13180 0.06900
H 	H 	0.67790 0.49860 0.16090 0.01100
C 	C 	0.69770 0.73630 0.19260 0.09000
C 	C 	0.82510 0.40080 0.11570 0.08600
N 	N 	0.67720 0.48620 0.08170 -0.21500
N 	N 	0.63480 0.59580 0.11080 -0.21400
F 	F 	0.63460 0.56370 0.99780 -0.60400
F 	F 	0.56720 0.46170 0.03160 -0.69200
C 	C 	0.74380 0.76140 0.17200 -0.14000
C 	C 	0.85570 0.41500 0.16050 -0.13800
H 	H 	0.76160 0.74710 0.14070 0.07500
H 	H 	0.84580 0.44590 0.18170 0.07500
N 	N 	0.67200 0.75620 0.23860 -0.18600
N 	N 	0.83950 0.35570 0.08500 -0.18500
Co	Co	0.93319 0.10389 0.97094 1.24600
C 	C 	0.89420 0.18660 0.88850 0.06900
H 	H 	0.91790 0.20940 0.90900 0.02500
C 	C 	0.86740 0.20950 0.84490 -0.10300
H 	H 	0.87090 0.24730 0.83690 0.06900
C 	C 	0.83450 0.17510 0.81230 0.02900
C 	C 	0.82910 0.12160 0.82810 -0.09900
H 	H 	0.80670 0.09750 0.80770 0.06300
C 	C 	0.85620 0.10290 0.87390 0.06600
H 	H 	0.85140 0.06590 0.88440 0.03200
C 	C 	0.95800 0.20650 0.03870 0.07000
H 	H 	0.99420 0.19290 0.03770 0.03000
C 	C 	0.94850 0.25460 0.06530 -0.11200
H 	H 	0.97790 0.27380 0.08160 0.07100
C 	C 	0.89680 0.27520 0.06840 0.03300
C 	C 	0.85570 0.24620 0.04310 -0.10900
H 	H 	0.81920 0.25940 0.04340 0.06200
C 	C 	0.86820 0.19790 0.01750 0.06300
H 	H 	0.83910 0.17790 0.00140 0.00200
C 	C 	0.80740 0.19770 0.76370 0.10800
C 	C 	0.88430 0.32510 0.09920 0.10400
N 	N 	0.91830 0.17720 0.01380 -0.21900
N 	N 	0.88920 0.13480 0.90420 -0.20600
F 	F 	0.00220 0.13460 0.93630 -0.63700
F 	F 	0.96840 0.06720 0.03830 -0.68800
H 	H 	0.85930 0.26160 0.75290 0.09900
H 	H 	0.81830 0.34580 0.05410 0.09400
N 	N 	0.76140 0.17200 0.74380 -0.18600
N 	N 	0.91500 0.33950 0.14430 -0.18600
Co	Co	0.43319 0.39611 0.02906 1.22000
C 	C 	0.39420 0.31340 0.11150 0.06200
H 	H 	0.41790 0.29060 0.09100 0.00600
C 	C 	0.36740 0.29050 0.15510 -0.10800
H 	H 	0.37090 0.25270 0.16310 0.06000
C 	C 	0.33450 0.32490 0.18770 0.02600
C 	C 	0.32910 0.37840 0.17190 -0.10200
H 	H 	0.30670 0.40250 0.19230 0.06200
C 	C 	0.35620 0.39710 0.12610 0.06200
H 	H 	0.35140 0.43410 0.11560 0.02800
C 	C 	0.45800 0.29350 0.96130 0.07400
H 	H 	0.49420 0.30710 0.96230 0.03700
C 	C 	0.44850 0.24540 0.93470 -0.10800
H 	H 	0.47790 0.22620 0.91840 0.07100
C 	C 	0.39680 0.22480 0.93160 0.03400
C 	C 	0.35570 0.25380 0.95690 -0.10400
H 	H 	0.31920 0.24060 0.95660 0.06600
C 	C 	0.36820 0.30210 0.98250 0.06800
H 	H 	0.33910 0.32210 0.99860 0.02000
C 	C 	0.30740 0.30230 0.23630 0.10300
C 	C 	0.38430 0.17490 0.90080 0.10600
N 	N 	0.41830 0.32280 0.98620 -0.20300
N 	N 	0.38920 0.36520 0.09580 -0.21500
F 	F 	0.50220 0.36540 0.06370 -0.63200
F 	F 	0.46840 0.43280 0.96170 -0.66900
H 	H 	0.35930 0.23840 0.24710 0.09400
H 	H 	0.31830 0.15420 0.94590 0.09900
N 	N 	0.26140 0.32800 0.25620 -0.18600
N 	N 	0.41500 0.16050 0.85570 -0.18600
Co	Co	0.56681 0.89611 0.47094 1.23100
C 	C 	0.60580 0.81340 0.38850 0.06600
H 	H 	0.58210 0.79060 0.40900 0.01500
C 	C 	0.63260 0.79050 0.34490 -0.10500
H 	H 	0.62910 0.75270 0.33690 0.06500
C 	C 	0.66550 0.82490 0.31230 0.02800
C 	C 	0.67090 0.87840 0.32810 -0.09800
H 	H 	0.69330 0.90250 0.30770 0.06600
C 	C 	0.64380 0.89710 0.37390 0.06500
H 	H 	0.64860 0.93410 0.38440 0.03700
C 	C 	0.54200 0.79350 0.53870 0.07100
H 	H 	0.50580 0.80710 0.53770 0.03100
C 	C 	0.55150 0.74540 0.56530 -0.11000
H 	H 	0.52210 0.72620 0.58160 0.06900
C 	C 	0.60320 0.72480 0.56840 0.03300
C 	C 	0.64430 0.75380 0.54310 -0.10600
H 	H 	0.68080 0.74060 0.54340 0.06600
C 	C 	0.63180 0.80210 0.51750 0.06500
H 	H 	0.66090 0.82210 0.50140 0.01400
C 	C 	0.69260 0.80230 0.26370 0.10700
C 	C 	0.61570 0.67490 0.59920 0.10500
N 	N 	0.58170 0.82280 0.51380 -0.21200
N 	N 	0.61080 0.86520 0.40420 -0.21000
F 	F 	0.49780 0.86540 0.43630 -0.62400
F 	F 	0.53160 0.93280 0.53830 -0.67500
H 	H 	0.64070 0.73840 0.25290 0.09700
H 	H 	0.68170 0.65420 0.55410 0.09700
N 	N 	0.73860 0.82800 0.24380 -0.18700
N 	N 	0.58500 0.66050 0.64430 -0.18600
Co	Co	0.06681 0.60389 0.52906 1.22600
C 	C 	0.10580 0.68660 0.61150 0.06600
H 	H 	0.08210 0.70940 0.59100 0.01100
C 	C 	0.13260 0.70950 0.65510 -0.10600
H 	H 	0.12910 0.74730 0.66310 0.06500
C 	C 	0.16550 0.67510 0.68770 0.02800
C 	C 	0.17090 0.62160 0.67190 -0.10000
H 	H 	0.19330 0.59750 0.69230 0.06400
C 	C 	0.14380 0.60290 0.62610 0.06500
H 	H 	0.14860 0.56590 0.61560 0.03100
C 	C 	0.04200 0.70650 0.46130 0.07100
H 	H 	0.00580 0.69290 0.46230 0.02200
C 	C 	0.05150 0.75460 0.43470 -0.11200
H 	H 	0.02210 0.77380 0.41840 0.06500
C 	C 	0.10320 0.77520 0.43160 0.03300
C 	C 	0.14430 0.74620 0.45690 -0.10700
H 	H 	0.18080 0.75940 0.45660 0.06500
C 	C 	0.13180 0.69790 0.48250 0.06600
H 	H 	0.16090 0.67790 0.49860 0.01200
C 	C 	0.19260 0.69770 0.73630 0.10700
C 	C 	0.11570 0.82510 0.40080 0.10400
N 	N 	0.08170 0.67720 0.48620 -0.21400
N 	N 	0.11080 0.63480 0.59580 -0.21300
F 	F 	0.99780 0.63460 0.56370 -0.60400
F 	F 	0.03160 0.56720 0.46170 -0.69200
H 	H 	0.14070 0.76160 0.74710 0.09700
H 	H 	0.18170 0.84580 0.44590 0.09700
N 	N 	0.23860 0.67200 0.75620 -0.18600
N 	N 	0.08500 0.83950 0.35570 -0.18500
Co	Co	0.97094 0.93319 0.10389 1.24600
C 	C 	0.88850 0.89420 0.18660 0.07100
H 	H 	0.90900 0.91790 0.20940 0.02500
C 	C 	0.84490 0.86740 0.20950 -0.10700
H 	H 	0.83690 0.87090 0.24730 0.07100
C 	C 	0.81230 0.83450 0.17510 0.03500
C 	C 	0.82810 0.82910 0.12160 -0.10500
H 	H 	0.80770 0.80670 0.09750 0.06500
C 	C 	0.87390 0.85620 0.10290 0.06900
H 	H 	0.88440 0.85140 0.06590 0.03100
C 	C 	0.03870 0.95800 0.20650 0.07400
H 	H 	0.03770 0.99420 0.19290 0.02900
C 	C 	0.06530 0.94850 0.25460 -0.11800
H 	H 	0.08160 0.97790 0.27380 0.07300
C 	C 	0.06840 0.89680 0.27520 0.04100
C 	C 	0.04310 0.85570 0.24620 -0.11300
H 	H 	0.04340 0.81920 0.25940 0.06400
C 	C 	0.01750 0.86820 0.19790 0.06500
H 	H 	0.00140 0.83910 0.17790 0.00100
C 	C 	0.76370 0.80740 0.19770 0.09100
C 	C 	0.09920 0.88430 0.32510 0.08600
N 	N 	0.01380 0.91830 0.17720 -0.22000
N 	N 	0.90420 0.88920 0.13480 -0.20700
F 	F 	0.93630 0.00220 0.13460 -0.63700
F 	F 	0.03830 0.96840 0.06720 -0.68800
H 	H 	0.75290 0.85930 0.26160 0.09900
H 	H 	0.05410 0.81830 0.34580 0.09400
Co	Co	0.02906 0.43319 0.39611 1.22000
C 	C 	0.11150 0.39420 0.31340 0.06500
H 	H 	0.09100 0.41790 0.29060 0.00600
C 	C 	0.15510 0.36740 0.29050 -0.11200
H 	H 	0.16310 0.37090 0.25270 0.06100
C 	C 	0.18770 0.33450 0.32490 0.03300
C 	C 	0.17190 0.32910 0.37840 -0.10800
H 	H 	0.19230 0.30670 0.40250 0.06400
C 	C 	0.12610 0.35620 0.39710 0.06500
H 	H 	0.11560 0.35140 0.43410 0.02700
C 	C 	0.96130 0.45800 0.29350 0.07700
H 	H 	0.96230 0.49420 0.30710 0.03600
C 	C 	0.93470 0.44850 0.24540 -0.11400
H 	H 	0.91840 0.47790 0.22620 0.07300
C 	C 	0.93160 0.39680 0.22480 0.04100
C 	C 	0.95690 0.35570 0.25380 -0.10800
H 	H 	0.95660 0.31920 0.24060 0.06800
C 	C 	0.98250 0.36820 0.30210 0.07000
H 	H 	0.99860 0.33910 0.32210 0.01900
C 	C 	0.23630 0.30740 0.30230 0.08600
C 	C 	0.90080 0.38430 0.17490 0.08800
N 	N 	0.98620 0.41830 0.32280 -0.20400
N 	N 	0.09580 0.38920 0.36520 -0.21600
F 	F 	0.06370 0.50220 0.36540 -0.63200
F 	F 	0.96170 0.46840 0.43280 -0.66900
H 	H 	0.24710 0.35930 0.23840 0.09400
H 	H 	0.94590 0.31830 0.15420 0.09900
Co	Co	0.47094 0.56681 0.89611 1.23200
C 	C 	0.38850 0.60580 0.81340 0.06800
H 	H 	0.40900 0.58210 0.79060 0.01400
C 	C 	0.34490 0.63260 0.79050 -0.10800
H 	H 	0.33690 0.62910 0.75270 0.06700
C 	C 	0.31230 0.66550 0.82490 0.03500
C 	C 	0.32810 0.67090 0.87840 -0.10400
H 	H 	0.30770 0.69330 0.90250 0.06800
C 	C 	0.37390 0.64380 0.89710 0.06800
H 	H 	0.38440 0.64860 0.93410 0.03600
C 	C 	0.53870 0.54200 0.79350 0.07500
H 	H 	0.53770 0.50580 0.80710 0.03000
C 	C 	0.56530 0.55150 0.74540 -0.11600
H 	H 	0.58160 0.52210 0.72620 0.07200
C 	C 	0.56840 0.60320 0.72480 0.04000
C 	C 	0.54310 0.64430 0.75380 -0.11000
H 	H 	0.54340 0.68080 0.74060 0.06700
C 	C 	0.51750 0.63180 0.80210 0.06700
H 	H 	0.50140 0.66090 0.82210 0.01300
C 	C 	0.26370 0.69260 0.80230 0.09100
C 	C 	0.59920 0.61570 0.67490 0.08700
N 	N 	0.51380 0.58170 0.82280 -0.21300
N 	N 	0.40420 0.61080 0.86520 -0.21100
F 	F 	0.43630 0.49780 0.86540 -0.62400
F 	F 	0.53830 0.53160 0.93280 -0.67500
H 	H 	0.25290 0.64070 0.73840 0.09700
H 	H 	0.55410 0.68170 0.65420 0.09700
Co	Co	0.52906 0.06681 0.60389 1.22600
C 	C 	0.61150 0.10580 0.68660 0.06800
H 	H 	0.59100 0.08210 0.70940 0.01100
C 	C 	0.65510 0.13260 0.70950 -0.11000
H 	H 	0.66310 0.12910 0.74730 0.06700
C 	C 	0.68770 0.16550 0.67510 0.03500
C 	C 	0.67190 0.17090 0.62160 -0.10600
H 	H 	0.69230 0.19330 0.59750 0.06600
C 	C 	0.62610 0.14380 0.60290 0.06800
H 	H 	0.61560 0.14860 0.56590 0.03000
C 	C 	0.46130 0.04200 0.70650 0.07400
H 	H 	0.46230 0.00580 0.69290 0.02100
C 	C 	0.43470 0.05150 0.75460 -0.11800
H 	H 	0.41840 0.02210 0.77380 0.06700
C 	C 	0.43160 0.10320 0.77520 0.04100
C 	C 	0.45690 0.14430 0.74620 -0.11100
H 	H 	0.45660 0.18080 0.75940 0.06700
C 	C 	0.48250 0.13180 0.69790 0.06800
H 	H 	0.49860 0.16090 0.67790 0.01100
C 	C 	0.73630 0.19260 0.69770 0.09000
C 	C 	0.40080 0.11570 0.82510 0.08600
N 	N 	0.48620 0.08170 0.67720 -0.21500
N 	N 	0.59580 0.11080 0.63480 -0.21400
F 	F 	0.56370 0.99780 0.63460 -0.60400
F 	F 	0.46170 0.03160 0.56720 -0.69200
H 	H 	0.74710 0.14070 0.76160 0.09700
H 	H 	0.44590 0.18170 0.84580 0.09700
Co	Co	-0.00000 0.00000 -0.00000 1.23400
Co	Co	0.50000 -0.00000 0.50000 1.26300
Co	Co	-0.00000 0.50000 0.50000 1.26300
Co	Co	0.50000 0.50000 -0.00000 1.26300
