data_crystal

_cell_length_a 17.24710
_cell_length_b 18.93200
_cell_length_c 21.34000
_cell_angle_alpha 88.58800
_cell_angle_beta  73.43100
_cell_angle_gamma 66.75900

_symmetry_space_group_name_	'P 1'
_symmetry_space_group_name_H-M	'P 1'

loop_
_symmetry_equiv_pos_as_xyz
  x,y,z

loop_
_atom_site_label
_atom_site_type_symbol
_atom_site_fract_x
_atom_site_fract_y
_atom_site_fract_z
_atom_site_charge
O 	O 	0.45150 0.91430 0.52240 -0.41200
O 	O 	0.50990 0.98710 0.40280 -0.45400
O 	O 	0.37210 0.07970 0.52620 -0.42900
C 	C 	0.40150 0.88730 0.50780 0.36700
Zn	Zn	0.41288 0.96403 0.39277 1.21800
N 	N 	0.54450 0.01770 0.35260 0.05000
C 	C 	0.37120 0.83490 0.55380 -0.10800
O 	O 	0.37970 0.89850 0.45410 -0.47500
N 	N 	0.33920 0.97680 0.33270 -0.23500
O 	O 	0.31150 0.05990 0.44960 -0.45900
O 	O 	0.51270 0.03170 0.30330 -0.20000
O 	O 	0.59490 0.05160 0.35840 -0.12700
C 	C 	0.31860 0.80240 0.53770 0.04800
C 	C 	0.39970 0.81610 0.60880 0.04300
C 	C 	0.29940 0.74920 0.57840 -0.13300
H 	H 	0.29790 0.81650 0.50120 0.02800
C 	C 	0.37280 0.76610 0.64970 -0.12400
H 	H 	0.43550 0.83800 0.61790 0.05400
C 	C 	0.32060 0.73130 0.63630 0.09200
H 	H 	0.26970 0.72330 0.56600 0.07700
H 	H 	0.39180 0.75420 0.68690 0.07600
C 	C 	0.29910 0.67410 0.67060 -0.06500
C 	C 	0.28430 0.62000 0.69840 0.01600
C 	C 	0.26820 0.55920 0.72510 -0.03200
C 	C 	0.26970 0.54010 0.78840 0.01800
C 	C 	0.24320 0.51590 0.68820 0.01400
C 	C 	0.28620 0.58270 0.83790 -0.08500
C 	C 	0.24290 0.48260 0.81510 0.01400
C 	C 	0.24430 0.52370 0.61590 -0.08100
C 	C 	0.21950 0.45670 0.71410 0.01800
C 	C 	0.35930 0.52110 0.85780 0.02900
C 	C 	0.20450 0.61030 0.89630 0.02400
H 	H 	0.30180 0.62510 0.81920 0.05900
C 	C 	0.24400 0.47390 0.88820 -0.08600
C 	C 	0.21840 0.43880 0.77810 -0.03600
C 	C 	0.30780 0.44240 0.58130 0.02500
C 	C 	0.15590 0.53110 0.61250 0.02200
H 	H 	0.26060 0.56610 0.59820 0.05700
C 	C 	0.19970 0.41250 0.66580 -0.08900
C 	C 	0.33950 0.45940 0.88450 0.02400
C 	C 	0.44330 0.51950 0.85120 -0.08000
C 	C 	0.18430 0.54960 0.92410 0.03500
C 	C 	0.15520 0.68540 0.92640 -0.06400
H 	H 	0.22900 0.43110 0.90680 0.05800
C 	C 	0.20090 0.37560 0.80340 0.02200
C 	C 	0.28370 0.38340 0.60770 0.02600
C 	C 	0.38350 0.42410 0.52700 -0.07500
C 	C 	0.13320 0.47210 0.64070 0.03400
C 	C 	0.10030 0.59260 0.58690 -0.06500
H 	H 	0.18220 0.37130 0.68470 0.05800
C 	C 	0.39580 0.39810 0.90920 -0.07200
C 	C 	0.49800 0.45880 0.87750 -0.02500
H 	H 	0.45960 0.55840 0.83220 0.06000
C 	C 	0.10930 0.56510 0.97840 -0.08500
C 	C 	0.07660 0.70510 0.97780 -0.03900
H 	H 	0.17140 0.72480 0.90850 0.06100
C 	C 	0.18450 0.32140 0.82580 -0.08000
C 	C 	0.33760 0.30700 0.58270 -0.07000
C 	C 	0.43510 0.34700 0.50250 -0.02400
H 	H 	0.40160 0.46260 0.50940 0.06000
C 	C 	0.05220 0.47090 0.64140 -0.08300
C 	C 	0.02050 0.59200 0.58450 -0.04200
H 	H 	0.11740 0.63150 0.56850 0.05100
C 	C 	0.47680 0.39980 0.90840 -0.03700
H 	H 	0.38190 0.35660 0.92390 0.05200
H 	H 	0.55400 0.45700 0.87360 0.04200
C 	C 	0.05730 0.64280 0.00220 -0.01600
H 	H 	0.09580 0.52510 0.99740 0.06400
H 	H 	0.04080 0.75580 0.99590 0.05500
C 	C 	0.15720 0.26470 0.85320 0.11800
C 	C 	0.41000 0.28820 0.52720 -0.03300
H 	H 	0.32300 0.26740 0.60260 0.05500
H 	H 	0.48650 0.33390 0.46710 0.04400
C 	C 	0.00080 0.53180 0.61340 -0.01900
H 	H 	0.03460 0.43240 0.66030 0.06100
H 	H 	0.98210 0.63060 0.56660 0.04500
H 	H 	0.51380 0.36280 0.92830 0.04000
H 	H 	0.00730 0.65360 0.03810 0.04100
C 	C 	0.11430 0.23380 0.82160 -0.16600
C 	C 	0.17730 0.23330 0.90930 -0.17100
H 	H 	0.44390 0.23710 0.50850 0.05000
H 	H 	0.94800 0.53080 0.61160 0.04100
C 	C 	0.08970 0.17560 0.85080 0.09000
H 	H 	0.10290 0.25170 0.78280 0.08500
C 	C 	0.14530 0.17990 0.93930 0.08900
H 	H 	0.21170 0.24810 0.92790 0.08900
C 	C 	0.09910 0.15060 0.91070 -0.16900
H 	H 	0.06410 0.15360 0.82840 0.01300
H 	H 	0.15530 0.16250 0.97880 0.01000
C 	C 	0.06080 0.09510 0.94370 0.46700
O 	O 	0.03490 0.06450 0.90880 -0.49700
O 	O 	0.05590 0.09110 0.00060 -0.51000
Zn	Zn	0.98277 0.98473 0.94109 1.21700
N 	N 	0.92780 0.97680 0.87150 -0.22600
O 	O 	0.10900 0.90440 0.91170 -0.47300
O 	O 	0.86500 0.07330 0.99950 -0.50400
C 	C 	0.92900 0.02340 0.82040 0.03800
C 	C 	0.87710 0.93380 0.88080 0.04700
C 	C 	0.15620 0.89250 0.94820 0.45400
C 	C 	0.88060 0.03180 0.77640 -0.12500
H 	H 	0.96430 0.05110 0.81570 0.01200
C 	C 	0.82580 0.94370 0.83750 -0.09700
H 	H 	0.87660 0.89990 0.91340 0.01900
C 	C 	0.25280 0.83910 0.92100 -0.14400
C 	C 	0.82840 0.98940 0.78540 0.04700
H 	H 	0.88360 0.06450 0.74300 0.07100
H 	H 	0.78800 0.91810 0.84400 0.06900
C 	C 	0.30730 0.82660 0.96130 0.06200
C 	C 	0.28360 0.79950 0.85810 0.06600
C 	C 	0.77400 0.99940 0.74360 0.10300
C 	C 	0.39630 0.77330 0.93830 -0.14100
H 	H 	0.28600 0.85720 0.00160 0.02800
C 	C 	0.37200 0.74680 0.83620 -0.14200
H 	H 	0.24720 0.81000 0.83080 0.02600
C 	C 	0.80330 0.00540 0.67700 -0.16000
C 	C 	0.68600 0.00720 0.77040 -0.15300
C 	C 	0.42780 0.73490 0.87520 0.10100
H 	H 	0.43360 0.76240 0.96510 0.08000
H 	H 	0.39330 0.71810 0.79550 0.07800
C 	C 	0.74700 0.01680 0.63830 0.06800
H 	H 	0.86050 0.00310 0.65840 0.08100
C 	C 	0.62750 0.01740 0.73400 0.05600
H 	H 	0.66560 0.00470 0.81560 0.07600
C 	C 	0.51460 0.67750 0.85070 -0.06400
H 	H 	0.76710 0.02010 0.59290 0.00100
H 	H 	0.57060 0.01870 0.75170 -0.00700
C 	C 	0.58690 0.62260 0.82210 0.01600
C 	C 	0.66530 0.55970 0.78850 -0.03200
C 	C 	0.68330 0.54610 0.72060 0.01700
C 	C 	0.73160 0.51600 0.81600 0.01700
C 	C 	0.62000 0.58820 0.67940 -0.09000
C 	C 	0.75990 0.48560 0.68260 0.01600
C 	C 	0.72650 0.52600 0.88710 -0.08400
C 	C 	0.81000 0.45700 0.77730 0.01700
C 	C 	0.60700 0.53160 0.64500 0.03700
C 	C 	0.67470 0.62080 0.62690 0.03300
H 	H 	0.56420 0.62940 0.70580 0.05900
C 	C 	0.76470 0.48290 0.61120 -0.08100
C 	C 	0.82530 0.44050 0.71060 -0.03300
C 	C 	0.74200 0.44000 0.90790 0.02300
C 	C 	0.80750 0.53640 0.88840 0.02800
H 	H 	0.67180 0.56630 0.91440 0.06000
C 	C 	0.87210 0.41240 0.81620 -0.08400
C 	C 	0.68330 0.46950 0.60840 0.01800
C 	C 	0.52510 0.53110 0.64720 -0.08500
C 	C 	0.75260 0.56040 0.59120 0.02400
C 	C 	0.65200 0.69960 0.62060 -0.07900
H 	H 	0.82030 0.44170 0.58450 0.05700
C 	C 	0.90530 0.37900 0.67110 0.01900
C 	C 	0.81960 0.38170 0.86860 0.03100
C 	C 	0.68390 0.42280 0.96030 -0.07300
C 	C 	0.88530 0.47570 0.85140 0.02500
C 	C 	0.81250 0.59870 0.91840 -0.07200
H 	H 	0.92810 0.37170 0.78930 0.05700
C 	C 	0.68060 0.41040 0.57230 -0.06400
C 	C 	0.52320 0.47090 0.61220 -0.01900
H 	H 	0.47260 0.57080 0.67190 0.06000
C 	C 	0.80580 0.58580 0.54220 -0.06700
C 	C 	0.71160 0.72030 0.57240 -0.01800
H 	H 	0.59870 0.73680 0.64630 0.06600
C 	C 	0.96930 0.32640 0.64160 -0.07000
C 	C 	0.84050 0.30450 0.87940 -0.07500
C 	C 	0.70610 0.34590 0.97290 -0.02900
H 	H 	0.63360 0.46140 0.98720 0.06000
C 	C 	0.96720 0.47750 0.84660 -0.07400
C 	C 	0.89420 0.60000 0.91480 -0.03200
H 	H 	0.76000 0.63760 0.94440 0.05300
C 	C 	0.59890 0.40990 0.57390 -0.04400
H 	H 	0.73290 0.37170 0.54610 0.04900
H 	H 	0.46850 0.47190 0.61300 0.03900
C 	C 	0.78900 0.66330 0.53150 -0.03600
H 	H 	0.85860 0.54780 0.51610 0.05700
H 	H 	0.69940 0.77200 0.56710 0.04500
C 	C 	0.05040 0.26760 0.60650 0.09700
C 	C 	0.78250 0.28810 0.93260 -0.02600
H 	H 	0.89200 0.26560 0.85290 0.06000
H 	H 	0.66870 0.33390 0.00800 0.04400
C 	C 	0.97150 0.53770 0.88000 -0.02900
H 	H 	0.01860 0.43870 0.82110 0.05900
H 	H 	0.89580 0.64150 0.93620 0.04100
H 	H 	0.59580 0.37000 0.55140 0.04400
H 	H 	0.82630 0.67710 0.49800 0.04800
C 	C 	0.12050 0.24300 0.63310 -0.14000
C 	C 	0.06600 0.23150 0.54540 -0.14600
H 	H 	0.79350 0.23700 0.94070 0.04500
H 	H 	0.02590 0.53810 0.87830 0.04500
C 	C 	0.20440 0.18750 0.59860 0.05500
H 	H 	0.11120 0.26440 0.67490 0.07400
C 	C 	0.14800 0.17380 0.51210 0.05600
H 	H 	0.02050 0.24800 0.52620 0.07900
C 	C 	0.21910 0.15090 0.53800 -0.12500
H 	H 	0.25190 0.17510 0.61570 0.02600
H 	H 	0.15580 0.14840 0.47230 0.02200
C 	C 	0.31040 0.09440 0.49890 0.38000
O 	O 	0.54850 0.08570 0.47760 -0.42400
O 	O 	0.49010 0.01290 0.59720 -0.49300
O 	O 	0.62790 0.92030 0.47380 -0.41300
C 	C 	0.59850 0.11270 0.49220 0.36600
Zn	Zn	0.58712 0.03597 0.60723 1.21000
N 	N 	0.45550 0.98230 0.64740 0.07200
C 	C 	0.62880 0.16510 0.44620 -0.11200
O 	O 	0.62030 0.10150 0.54590 -0.48200
N 	N 	0.66080 0.02320 0.66730 -0.26100
O 	O 	0.68850 0.94010 0.55040 -0.43200
O 	O 	0.48730 0.96830 0.69670 -0.17800
O 	O 	0.40510 0.94840 0.64160 -0.11500
C 	C 	0.68140 0.19760 0.46230 0.04700
C 	C 	0.60030 0.18390 0.39120 0.04200
C 	C 	0.70060 0.25080 0.42160 -0.13600
H 	H 	0.70210 0.18350 0.49880 0.02500
C 	C 	0.62720 0.23390 0.35030 -0.12600
H 	H 	0.56450 0.16200 0.38210 0.05300
C 	C 	0.67940 0.26870 0.36370 0.09100
H 	H 	0.73030 0.27670 0.43400 0.07700
H 	H 	0.60820 0.24580 0.31310 0.07500
C 	C 	0.70090 0.32590 0.32940 -0.06600
C 	C 	0.71570 0.38000 0.30160 0.01600
C 	C 	0.73180 0.44080 0.27490 -0.03200
C 	C 	0.73030 0.45990 0.21160 0.01700
C 	C 	0.75680 0.48410 0.31180 0.01300
C 	C 	0.71380 0.41730 0.16210 -0.08500
C 	C 	0.75710 0.51740 0.18490 0.01400
C 	C 	0.75570 0.47630 0.38410 -0.08100
C 	C 	0.78050 0.54330 0.28590 0.01800
C 	C 	0.64070 0.47890 0.14220 0.02900
C 	C 	0.79550 0.38970 0.10370 0.02400
H 	H 	0.69820 0.37490 0.18080 0.05900
C 	C 	0.75600 0.52610 0.11180 -0.08600
C 	C 	0.78160 0.56120 0.22190 -0.03600
C 	C 	0.69220 0.55760 0.41870 0.02500
C 	C 	0.84410 0.46890 0.38750 0.02200
H 	H 	0.73940 0.43390 0.40180 0.05700
C 	C 	0.80030 0.58750 0.33420 -0.08900
C 	C 	0.66050 0.54060 0.11550 0.02500
C 	C 	0.55670 0.48050 0.14880 -0.07900
C 	C 	0.81570 0.45040 0.07590 0.03500
C 	C 	0.84480 0.31460 0.07360 -0.06400
H 	H 	0.77100 0.56890 0.09320 0.05900
C 	C 	0.79910 0.62440 0.19660 0.02200
C 	C 	0.71630 0.61660 0.39230 0.02700
C 	C 	0.61650 0.57590 0.47300 -0.07400
C 	C 	0.86680 0.52790 0.35930 0.03400
C 	C 	0.89970 0.40740 0.41310 -0.06600
H 	H 	0.81780 0.62870 0.31530 0.05900
C 	C 	0.60420 0.60190 0.09080 -0.07300
C 	C 	0.50200 0.54120 0.12250 -0.02500
H 	H 	0.54040 0.44160 0.16780 0.06000
C 	C 	0.89070 0.43490 0.02160 -0.08500
C 	C 	0.92340 0.29490 0.02220 -0.04000
H 	H 	0.82860 0.27520 0.09150 0.06100
C 	C 	0.81550 0.67860 0.17420 -0.07800
C 	C 	0.66240 0.69300 0.41730 -0.07000
C 	C 	0.56490 0.65300 0.49750 -0.02400
H 	H 	0.59840 0.53740 0.49060 0.06000
C 	C 	0.94780 0.52910 0.35860 -0.08400
C 	C 	0.97950 0.40800 0.41550 -0.04000
H 	H 	0.88260 0.36850 0.43150 0.05000
C 	C 	0.52320 0.60020 0.09160 -0.03600
H 	H 	0.61810 0.64340 0.07610 0.05400
H 	H 	0.44600 0.54300 0.12640 0.04200
C 	C 	0.94270 0.35720 0.99780 -0.01500
H 	H 	0.90420 0.47490 0.00260 0.06400
H 	H 	0.95920 0.24420 0.00410 0.05700
C 	C 	0.84280 0.73530 0.14680 0.11700
C 	C 	0.59000 0.71180 0.47280 -0.03200
H 	H 	0.67700 0.73260 0.39740 0.05600
H 	H 	0.51350 0.66610 0.53290 0.04400
C 	C 	0.99920 0.46820 0.38660 -0.01700
H 	H 	0.96540 0.56760 0.33970 0.06200
H 	H 	0.01790 0.36940 0.43340 0.04100
H 	H 	0.48620 0.63720 0.07170 0.04100
H 	H 	0.99270 0.34640 0.96190 0.04100
C 	C 	0.88570 0.76620 0.17840 -0.16100
C 	C 	0.82270 0.76670 0.09070 -0.16700
H 	H 	0.55610 0.76290 0.49150 0.05000
H 	H 	0.05200 0.46920 0.38840 0.03800
C 	C 	0.91030 0.82440 0.14920 0.08900
H 	H 	0.89710 0.74830 0.21720 0.08500
C 	C 	0.85470 0.82010 0.06070 0.08800
H 	H 	0.78830 0.75190 0.07210 0.09000
C 	C 	0.90090 0.84940 0.08930 -0.16200
H 	H 	0.93590 0.84640 0.17160 0.01800
H 	H 	0.84470 0.83750 0.02120 0.01500
C 	C 	0.93920 0.90490 0.05630 0.46600
O 	O 	0.96510 0.93550 0.09120 -0.47800
O 	O 	0.94410 0.90890 0.99940 -0.50100
Zn	Zn	0.01723 0.01527 0.05891 1.20500
N 	N 	0.07220 0.02320 0.12850 -0.25400
O 	O 	0.89100 0.09560 0.08830 -0.48500
O 	O 	0.13500 0.92670 0.00050 -0.48500
C 	C 	0.07100 0.97660 0.17960 0.07900
C 	C 	0.12290 0.06620 0.11920 0.04300
C 	C 	0.84380 0.10750 0.05180 0.46000
C 	C 	0.11940 0.96820 0.22360 -0.09900
H 	H 	0.03570 0.94890 0.18430 0.00700
C 	C 	0.17420 0.05630 0.16250 -0.11600
H 	H 	0.12340 0.10010 0.08660 0.01600
C 	C 	0.74720 0.16090 0.07900 -0.15400
C 	C 	0.17160 0.01060 0.21460 0.04500
H 	H 	0.11640 0.93550 0.25700 0.07200
H 	H 	0.21200 0.08190 0.15600 0.06700
C 	C 	0.69270 0.17340 0.03870 0.06600
C 	C 	0.71640 0.20050 0.14190 0.07000
C 	C 	0.22600 0.00060 0.25640 -0.04000
C 	C 	0.60370 0.22670 0.06170 -0.14700
H 	H 	0.71400 0.14280 0.99840 0.02100
C 	C 	0.62800 0.25320 0.16380 -0.14800
H 	H 	0.75280 0.19000 0.16920 0.02100
C 	C 	0.19670 0.99460 0.32300 -0.03500
C 	C 	0.31400 0.99280 0.22960 -0.03000
C 	C 	0.57220 0.26510 0.12480 0.10300
H 	H 	0.56640 0.23760 0.03490 0.07900
H 	H 	0.60670 0.28190 0.20450 0.07900
C 	C 	0.25300 0.98320 0.36170 0.01900
H 	H 	0.13950 0.99690 0.34160 0.05200
C 	C 	0.37250 0.98260 0.26600 0.00600
H 	H 	0.33440 0.99530 0.18440 0.05200
C 	C 	0.48540 0.32250 0.14930 -0.06700
H 	H 	0.23290 0.97990 0.40710 0.02900
H 	H 	0.42940 0.98130 0.24830 0.02400
C 	C 	0.41310 0.37740 0.17790 0.01500
C 	C 	0.33470 0.44030 0.21150 -0.03200
C 	C 	0.31670 0.45390 0.27940 0.01600
C 	C 	0.26840 0.48400 0.18400 0.01700
C 	C 	0.38000 0.41180 0.32060 -0.09000
C 	C 	0.24010 0.51440 0.31740 0.01600
C 	C 	0.27350 0.47400 0.11290 -0.08400
C 	C 	0.19000 0.54300 0.22270 0.01700
C 	C 	0.39300 0.46840 0.35500 0.03700
C 	C 	0.32530 0.37920 0.37310 0.03300
H 	H 	0.43580 0.37060 0.29420 0.05900
C 	C 	0.23530 0.51710 0.38880 -0.08100
C 	C 	0.17470 0.55950 0.28940 -0.03400
C 	C 	0.25800 0.56000 0.09210 0.02300
C 	C 	0.19250 0.46360 0.11160 0.02700
H 	H 	0.32820 0.43370 0.08560 0.05900
C 	C 	0.12790 0.58760 0.18380 -0.08500
C 	C 	0.31670 0.53050 0.39160 0.01900
C 	C 	0.47490 0.46890 0.35280 -0.08400
C 	C 	0.24740 0.43960 0.40880 0.02400
C 	C 	0.34800 0.30040 0.37940 -0.08000
H 	H 	0.17970 0.55830 0.41550 0.05800
C 	C 	0.09470 0.62100 0.32890 0.02000
C 	C 	0.18040 0.61830 0.13140 0.03100
C 	C 	0.31610 0.57720 0.03970 -0.07300
C 	C 	0.11470 0.52430 0.14860 0.02600
C 	C 	0.18750 0.40130 0.08160 -0.07300
H 	H 	0.07190 0.62830 0.21070 0.05700
C 	C 	0.31940 0.58960 0.42770 -0.06400
C 	C 	0.47680 0.52910 0.38780 -0.01900
H 	H 	0.52740 0.42920 0.32810 0.06000
C 	C 	0.19420 0.41420 0.45780 -0.06700
C 	C 	0.28840 0.27970 0.42760 -0.01900
H 	H 	0.40130 0.26320 0.35370 0.06500
C 	C 	0.03070 0.67360 0.35840 -0.07200
C 	C 	0.15950 0.69550 0.12060 -0.07500
C 	C 	0.29390 0.65410 0.02710 -0.02900
H 	H 	0.36640 0.53860 0.01280 0.06000
C 	C 	0.03280 0.52250 0.15340 -0.07600
C 	C 	0.10580 0.40000 0.08520 -0.03200
H 	H 	0.24000 0.36240 0.05560 0.05200
C 	C 	0.40110 0.59010 0.42610 -0.04300
H 	H 	0.26710 0.62830 0.45390 0.05000
H 	H 	0.53150 0.52810 0.38700 0.04000
C 	C 	0.21100 0.33670 0.46850 -0.03700
H 	H 	0.14140 0.45220 0.48390 0.05700
H 	H 	0.30060 0.22800 0.43290 0.04400
C 	C 	0.94960 0.73240 0.39350 0.09800
C 	C 	0.21750 0.71190 0.06740 -0.02600
H 	H 	0.10800 0.73440 0.14710 0.06000
H 	H 	0.33130 0.66610 0.99200 0.04400
C 	C 	0.02850 0.46230 0.12000 -0.03200
H 	H 	0.98140 0.56130 0.17890 0.06100
H 	H 	0.10420 0.35850 0.06380 0.03900
H 	H 	0.40420 0.63000 0.44860 0.04500
H 	H 	0.17370 0.32290 0.50200 0.04800
C 	C 	0.87950 0.75700 0.36690 -0.13700
C 	C 	0.93400 0.76850 0.45460 -0.14100
H 	H 	0.20650 0.76300 0.05930 0.04600
H 	H 	0.97410 0.46190 0.12170 0.04700
C 	C 	0.79560 0.81250 0.40140 0.05200
H 	H 	0.88880 0.73560 0.32510 0.07400
C 	C 	0.85200 0.82620 0.48790 0.05300
H 	H 	0.97950 0.75200 0.47380 0.08100
C 	C 	0.78090 0.84910 0.46200 -0.11500
H 	H 	0.74810 0.82490 0.38430 0.03000
H 	H 	0.84420 0.85160 0.52770 0.03100
C 	C 	0.68960 0.90560 0.50110 0.37600
Zn	Zn	0.50000 0.00000 0.50000 1.24200
