data_crystal

_cell_length_a 26.07290
_cell_length_b 26.07290
_cell_length_c 26.07290
_cell_angle_alpha 90.00000
_cell_angle_beta  90.00000
_cell_angle_gamma 90.00000

_symmetry_space_group_name_	'P 1'
_symmetry_space_group_name_H-M	'P 1'

loop_
_symmetry_equiv_pos_as_xyz
  x,y,z

loop_
_atom_site_label
_atom_site_type_symbol
_atom_site_fract_x
_atom_site_fract_y
_atom_site_fract_z
_atom_site_charge
Zr	Zr	0.98470 0.40759 0.98687 3.24700
O 	O 	0.93170 0.46440 0.94950 0.93000
C 	C 	0.98600 0.31957 0.13527 0.07900
C 	C 	0.99375 0.36352 0.10039 0.40400
O 	O 	0.00641 0.40551 0.12166 -0.66400
O 	O 	0.98735 0.35497 0.05292 -0.65600
C 	C 	0.96350 0.13380 0.32180 -0.14500
C 	C 	0.96720 0.09846 0.36590 0.49500
O 	O 	0.96810 0.12041 0.40977 -0.69300
O 	O 	0.96915 0.05116 0.35666 -0.66900
C 	C 	0.97310 0.24160 0.20330 -0.22700
C 	C 	0.96750 0.20150 0.24270 0.09800
C 	C 	0.98760 0.22810 0.15050 -4.98500
H 	H 	0.99690 0.19510 0.14070 1.75200
C 	C 	0.98590 0.26990 0.11640 -2.89100
H 	H 	0.98480 0.26420 0.08120 1.07400
C 	C 	0.98500 0.32850 0.18950 0.13500
H 	H 	0.99210 0.36100 0.20250 -0.05000
C 	C 	0.96730 0.14740 0.23160 -0.20500
H 	H 	0.96740 0.13570 0.19790 0.12000
C 	C 	0.96710 0.11640 0.26820 -0.05300
H 	H 	0.96930 0.08150 0.26150 0.07700
C 	C 	0.96460 0.18580 0.32860 0.05700
H 	H 	0.96330 0.19890 0.36170 -0.00800
N 	N 	0.97370 0.28960 0.22140 -0.63600
N 	N 	0.96750 0.21750 0.29010 0.01600
Co	Co	0.96813 0.29983 0.30084 0.73200
Cl	Cl	0.01620 0.29490 0.38680 -0.06200
Cl	Cl	0.03020 0.37810 0.29220 -0.33800
Co	Co	0.00250 0.29575 0.29950 0.86900
C 	C 	0.95790 0.23280 0.15160 5.08400
H 	H 	0.94480 0.20130 0.14110 -1.50400
C 	C 	0.96360 0.27320 0.11790 2.60200
H 	H 	0.95280 0.27000 0.08400 -0.97500
C 	C 	0.00300 0.32260 0.18470 -0.20000
H 	H 	0.02060 0.35190 0.19480 0.14500
C 	C 	0.94570 0.15420 0.23500 0.07600
H 	H 	0.93000 0.14660 0.20390 0.00800
C 	C 	0.94720 0.11730 0.27450 0.11600
H 	H 	0.93760 0.08340 0.26880 0.01900
C 	C 	0.98140 0.18380 0.32930 -0.01100
H 	H 	0.99230 0.19300 0.36200 0.06100
N 	N 	0.99550 0.28620 0.21860 0.42900
N 	N 	0.98420 0.22150 0.29010 -0.28200
O 	O 	0.94860 0.47360 0.96210 -1.97200
Cl	Cl	0.04140 0.29030 0.35110 -0.61300
Cl	Cl	0.96240 0.38670 0.30090 -0.43500
Zr	Zr	0.51530 0.59241 0.48687 3.24600
O 	O 	0.56830 0.53560 0.44950 0.92600
C 	C 	0.51400 0.68043 0.63527 0.07900
C 	C 	0.50625 0.63648 0.60039 0.40100
O 	O 	0.49359 0.59449 0.62166 -0.66300
O 	O 	0.51265 0.64503 0.55292 -0.65700
C 	C 	0.53650 0.86620 0.82180 -0.14500
C 	C 	0.53280 0.90154 0.86590 0.49500
O 	O 	0.53190 0.87959 0.90977 -0.69400
O 	O 	0.53085 0.94884 0.85666 -0.67000
C 	C 	0.52690 0.75840 0.70330 -0.22700
C 	C 	0.53250 0.79850 0.74270 0.09400
C 	C 	0.51240 0.77190 0.65050 -5.01800
H 	H 	0.50310 0.80490 0.64070 1.76400
C 	C 	0.51410 0.73010 0.61640 -2.91000
H 	H 	0.51520 0.73580 0.58120 1.08100
C 	C 	0.51500 0.67150 0.68950 0.14200
H 	H 	0.50790 0.63900 0.70250 -0.05300
C 	C 	0.53270 0.85260 0.73160 -0.20800
H 	H 	0.53260 0.86430 0.69790 0.12200
C 	C 	0.53290 0.88360 0.76820 -0.05600
H 	H 	0.53070 0.91850 0.76150 0.07800
C 	C 	0.53540 0.81420 0.82860 0.06100
H 	H 	0.53670 0.80110 0.86170 -0.01000
N 	N 	0.52630 0.71040 0.72140 -0.64000
N 	N 	0.53250 0.78250 0.79010 0.04500
Co	Co	0.53187 0.70017 0.80084 0.73100
Cl	Cl	0.48380 0.70510 0.88680 -0.06200
Cl	Cl	0.46980 0.62190 0.79220 -0.33700
Co	Co	0.49750 0.70425 0.79950 0.87100
C 	C 	0.54210 0.76720 0.65160 5.11800
H 	H 	0.55520 0.79870 0.64110 -1.51400
C 	C 	0.53640 0.72680 0.61790 2.62000
H 	H 	0.54720 0.73000 0.58400 -0.98200
C 	C 	0.49700 0.67740 0.68470 -0.20600
H 	H 	0.47940 0.64810 0.69480 0.14900
C 	C 	0.55430 0.84580 0.73500 0.08100
H 	H 	0.57000 0.85340 0.70390 0.00600
C 	C 	0.55280 0.88270 0.77450 0.11800
H 	H 	0.56240 0.91660 0.76880 0.01800
C 	C 	0.51860 0.81620 0.82930 -0.01800
H 	H 	0.50770 0.80700 0.86200 0.06400
N 	N 	0.50450 0.71380 0.71860 0.43400
N 	N 	0.51580 0.77850 0.79010 -0.30900
O 	O 	0.55140 0.52640 0.46210 -1.96800
Cl	Cl	0.45860 0.70970 0.85110 -0.61200
Cl	Cl	0.53760 0.61330 0.80090 -0.43600
Zr	Zr	0.01530 0.90759 0.51313 3.24600
O 	O 	0.06830 0.96440 0.55050 0.92500
C 	C 	0.01400 0.81957 0.36473 0.08200
C 	C 	0.00625 0.86352 0.39961 0.40100
O 	O 	0.99359 0.90551 0.37834 -0.66400
O 	O 	0.01265 0.85497 0.44708 -0.65700
C 	C 	0.03650 0.63380 0.17820 -0.14400
C 	C 	0.03280 0.59846 0.13410 0.49400
O 	O 	0.03190 0.62041 0.09023 -0.69400
O 	O 	0.03085 0.55116 0.14334 -0.66900
C 	C 	0.02690 0.74160 0.29670 -0.22800
C 	C 	0.03250 0.70150 0.25730 0.08900
C 	C 	0.01240 0.72810 0.34950 -5.08500
H 	H 	0.00310 0.69510 0.35930 1.78700
C 	C 	0.01410 0.76990 0.38360 -2.94900
H 	H 	0.01520 0.76420 0.41880 1.09500
C 	C 	0.01500 0.82850 0.31050 0.14100
H 	H 	0.00790 0.86100 0.29750 -0.05300
C 	C 	0.03270 0.64740 0.26840 -0.21200
H 	H 	0.03260 0.63570 0.30210 0.12300
C 	C 	0.03290 0.61640 0.23180 -0.06000
H 	H 	0.03070 0.58150 0.23850 0.08000
C 	C 	0.03540 0.68580 0.17140 0.06900
H 	H 	0.03670 0.69890 0.13830 -0.01300
N 	N 	0.02630 0.78960 0.27860 -0.64600
N 	N 	0.03250 0.71750 0.20990 0.09400
Co	Co	0.03187 0.79983 0.19916 0.73100
Cl	Cl	0.98380 0.79490 0.11320 -0.06300
Cl	Cl	0.96980 0.87810 0.20780 -0.33700
Co	Co	0.99750 0.79575 0.20050 0.87200
C 	C 	0.04210 0.73280 0.34840 5.18600
H 	H 	0.05520 0.70130 0.35890 -1.53500
C 	C 	0.03640 0.77320 0.38210 2.65400
H 	H 	0.04720 0.77000 0.41600 -0.99500
C 	C 	0.99700 0.82260 0.31530 -0.20700
H 	H 	0.97940 0.85190 0.30520 0.14900
C 	C 	0.05430 0.65420 0.26500 0.08700
H 	H 	0.07000 0.64660 0.29610 0.00400
C 	C 	0.05280 0.61730 0.22550 0.12100
H 	H 	0.06240 0.58340 0.23120 0.01700
C 	C 	0.01860 0.68380 0.17070 -0.03200
H 	H 	0.00770 0.69300 0.13800 0.07000
N 	N 	0.00450 0.78620 0.28140 0.44100
N 	N 	0.01580 0.72150 0.20990 -0.35600
O 	O 	0.05140 0.97360 0.53790 -1.96600
Cl	Cl	0.95860 0.79030 0.14890 -0.61000
Cl	Cl	0.03760 0.88670 0.19910 -0.43500
Zr	Zr	0.48470 0.09241 0.01313 3.24600
O 	O 	0.43170 0.03560 0.05050 0.92500
C 	C 	0.48600 0.18043 0.86473 0.08100
C 	C 	0.49375 0.13648 0.89961 0.40000
O 	O 	0.50641 0.09449 0.87834 -0.66300
O 	O 	0.48735 0.14503 0.94708 -0.65600
C 	C 	0.46350 0.36620 0.67820 -0.14400
C 	C 	0.46720 0.40154 0.63410 0.49400
O 	O 	0.46810 0.37959 0.59023 -0.69300
O 	O 	0.46915 0.44884 0.64334 -0.66900
C 	C 	0.47310 0.25840 0.79670 -0.22800
C 	C 	0.46750 0.29850 0.75730 0.09200
C 	C 	0.48760 0.27190 0.84950 -5.05400
H 	H 	0.49690 0.30490 0.85930 1.77600
C 	C 	0.48590 0.23010 0.88360 -2.93100
H 	H 	0.48480 0.23580 0.91880 1.08900
C 	C 	0.48500 0.17150 0.81050 0.14200
H 	H 	0.49210 0.13900 0.79750 -0.05400
C 	C 	0.46730 0.35260 0.76840 -0.20900
H 	H 	0.46740 0.36430 0.80210 0.12200
C 	C 	0.46710 0.38360 0.73180 -0.05700
H 	H 	0.46930 0.41850 0.73850 0.07900
C 	C 	0.46460 0.31420 0.67140 0.06400
H 	H 	0.46330 0.30110 0.63830 -0.01100
N 	N 	0.47370 0.21040 0.77860 -0.64400
N 	N 	0.46750 0.28250 0.70990 0.06400
Co	Co	0.46813 0.20017 0.69916 0.73100
Cl	Cl	0.51620 0.20510 0.61320 -0.06200
Cl	Cl	0.53020 0.12190 0.70780 -0.33600
Co	Co	0.50250 0.20425 0.70050 0.87100
C 	C 	0.45790 0.26720 0.84840 5.15500
H 	H 	0.44480 0.29870 0.85890 -1.52500
C 	C 	0.46360 0.22680 0.88210 2.63800
H 	H 	0.45280 0.23000 0.91600 -0.98900
C 	C 	0.50300 0.17740 0.81530 -0.20800
H 	H 	0.52060 0.14810 0.80520 0.15000
C 	C 	0.44570 0.34580 0.76500 0.08300
H 	H 	0.43000 0.35340 0.79610 0.00600
C 	C 	0.44720 0.38270 0.72550 0.11900
H 	H 	0.43760 0.41660 0.73120 0.01800
C 	C 	0.48140 0.31620 0.67070 -0.02300
H 	H 	0.49230 0.30700 0.63800 0.06600
N 	N 	0.49550 0.21380 0.78140 0.43800
N 	N 	0.48420 0.27850 0.70990 -0.32700
O 	O 	0.44860 0.02640 0.03790 -1.96800
Cl	Cl	0.54140 0.20970 0.64890 -0.61100
Cl	Cl	0.46240 0.11330 0.69910 -0.43600
Zr	Zr	0.98687 0.98470 0.40759 3.24600
O 	O 	0.94950 0.93170 0.46440 0.92900
C 	C 	0.13527 0.98600 0.31957 0.07800
C 	C 	0.10039 0.99375 0.36352 0.40300
O 	O 	0.12166 0.00641 0.40551 -0.66500
O 	O 	0.05292 0.98735 0.35497 -0.65700
C 	C 	0.32180 0.96350 0.13380 -0.14500
C 	C 	0.36590 0.96720 0.09846 0.49500
O 	O 	0.40977 0.96810 0.12041 -0.69300
O 	O 	0.35666 0.96915 0.05116 -0.66900
C 	C 	0.20330 0.97310 0.24160 -0.22700
C 	C 	0.24270 0.96750 0.20150 0.09800
C 	C 	0.15050 0.98760 0.22810 -4.98500
H 	H 	0.14070 0.99690 0.19510 1.75200
C 	C 	0.11640 0.98590 0.26990 -2.89100
H 	H 	0.08120 0.98480 0.26420 1.07400
C 	C 	0.18950 0.98500 0.32850 0.13500
H 	H 	0.20250 0.99210 0.36100 -0.05000
C 	C 	0.23160 0.96730 0.14740 -0.20500
H 	H 	0.19790 0.96740 0.13570 0.12000
C 	C 	0.26820 0.96710 0.11640 -0.05300
H 	H 	0.26150 0.96930 0.08150 0.07700
C 	C 	0.32860 0.96460 0.18580 0.05700
H 	H 	0.36170 0.96330 0.19890 -0.00800
N 	N 	0.22140 0.97370 0.28960 -0.63600
N 	N 	0.29010 0.96750 0.21750 0.01600
Co	Co	0.30084 0.96813 0.29983 0.73200
Cl	Cl	0.38680 0.01620 0.29490 -0.06200
Cl	Cl	0.29220 0.03020 0.37810 -0.33800
Co	Co	0.29950 0.00250 0.29575 0.86900
C 	C 	0.15160 0.95790 0.23280 5.08400
H 	H 	0.14110 0.94480 0.20130 -1.50400
C 	C 	0.11790 0.96360 0.27320 2.60200
H 	H 	0.08400 0.95280 0.27000 -0.97500
C 	C 	0.18470 0.00300 0.32260 -0.20000
H 	H 	0.19480 0.02060 0.35190 0.14500
C 	C 	0.23500 0.94570 0.15420 0.07600
H 	H 	0.20390 0.93000 0.14660 0.00800
C 	C 	0.27450 0.94720 0.11730 0.11600
H 	H 	0.26880 0.93760 0.08340 0.01900
C 	C 	0.32930 0.98140 0.18380 -0.01100
H 	H 	0.36200 0.99230 0.19300 0.06100
N 	N 	0.21860 0.99550 0.28620 0.42900
N 	N 	0.29010 0.98420 0.22150 -0.28200
O 	O 	0.96210 0.94860 0.47360 -1.97200
Cl	Cl	0.35110 0.04140 0.29030 -0.61300
Cl	Cl	0.30090 0.96240 0.38670 -0.43500
Zr	Zr	0.48687 0.51530 0.59241 3.24600
O 	O 	0.44950 0.56830 0.53560 0.92600
C 	C 	0.63527 0.51400 0.68043 0.07900
C 	C 	0.60039 0.50625 0.63648 0.40100
O 	O 	0.62166 0.49359 0.59449 -0.66300
O 	O 	0.55292 0.51265 0.64503 -0.65700
C 	C 	0.82180 0.53650 0.86620 -0.14500
C 	C 	0.86590 0.53280 0.90154 0.49500
O 	O 	0.90977 0.53190 0.87959 -0.69400
O 	O 	0.85666 0.53085 0.94884 -0.67000
C 	C 	0.70330 0.52690 0.75840 -0.22700
C 	C 	0.74270 0.53250 0.79850 0.09400
C 	C 	0.65050 0.51240 0.77190 -5.01800
H 	H 	0.64070 0.50310 0.80490 1.76400
C 	C 	0.61640 0.51410 0.73010 -2.91000
H 	H 	0.58120 0.51520 0.73580 1.08100
C 	C 	0.68950 0.51500 0.67150 0.14200
H 	H 	0.70250 0.50790 0.63900 -0.05300
C 	C 	0.73160 0.53270 0.85260 -0.20800
H 	H 	0.69790 0.53260 0.86430 0.12200
C 	C 	0.76820 0.53290 0.88360 -0.05600
H 	H 	0.76150 0.53070 0.91850 0.07800
C 	C 	0.82860 0.53540 0.81420 0.06100
H 	H 	0.86170 0.53670 0.80110 -0.01000
N 	N 	0.72140 0.52630 0.71040 -0.64000
N 	N 	0.79010 0.53250 0.78250 0.04500
Co	Co	0.80084 0.53187 0.70017 0.73100
Cl	Cl	0.88680 0.48380 0.70510 -0.06200
Cl	Cl	0.79220 0.46980 0.62190 -0.33700
Co	Co	0.79950 0.49750 0.70425 0.87100
C 	C 	0.65160 0.54210 0.76720 5.11800
H 	H 	0.64110 0.55520 0.79870 -1.51400
C 	C 	0.61790 0.53640 0.72680 2.62000
H 	H 	0.58400 0.54720 0.73000 -0.98200
C 	C 	0.68470 0.49700 0.67740 -0.20600
H 	H 	0.69480 0.47940 0.64810 0.14900
C 	C 	0.73500 0.55430 0.84580 0.08100
H 	H 	0.70390 0.57000 0.85340 0.00600
C 	C 	0.77450 0.55280 0.88270 0.11800
H 	H 	0.76880 0.56240 0.91660 0.01800
C 	C 	0.82930 0.51860 0.81620 -0.01800
H 	H 	0.86200 0.50770 0.80700 0.06400
N 	N 	0.71860 0.50450 0.71380 0.43400
N 	N 	0.79010 0.51580 0.77850 -0.30900
O 	O 	0.46210 0.55140 0.52640 -1.96800
Cl	Cl	0.85110 0.45860 0.70970 -0.61200
Cl	Cl	0.80090 0.53760 0.61330 -0.43600
Zr	Zr	0.51313 0.01530 0.90759 3.24600
O 	O 	0.55050 0.06830 0.96440 0.92500
C 	C 	0.36473 0.01400 0.81957 0.08200
C 	C 	0.39961 0.00625 0.86352 0.40100
O 	O 	0.37834 0.99359 0.90551 -0.66400
O 	O 	0.44708 0.01265 0.85497 -0.65700
C 	C 	0.17820 0.03650 0.63380 -0.14400
C 	C 	0.13410 0.03280 0.59846 0.49400
O 	O 	0.09023 0.03190 0.62041 -0.69400
O 	O 	0.14334 0.03085 0.55116 -0.66900
C 	C 	0.29670 0.02690 0.74160 -0.22800
C 	C 	0.25730 0.03250 0.70150 0.08900
C 	C 	0.34950 0.01240 0.72810 -5.08500
H 	H 	0.35930 0.00310 0.69510 1.78700
C 	C 	0.38360 0.01410 0.76990 -2.94900
H 	H 	0.41880 0.01520 0.76420 1.09500
C 	C 	0.31050 0.01500 0.82850 0.14100
H 	H 	0.29750 0.00790 0.86100 -0.05300
C 	C 	0.26840 0.03270 0.64740 -0.21200
H 	H 	0.30210 0.03260 0.63570 0.12300
C 	C 	0.23180 0.03290 0.61640 -0.06000
H 	H 	0.23850 0.03070 0.58150 0.08000
C 	C 	0.17140 0.03540 0.68580 0.06900
H 	H 	0.13830 0.03670 0.69890 -0.01300
N 	N 	0.27860 0.02630 0.78960 -0.64600
N 	N 	0.20990 0.03250 0.71750 0.09400
Co	Co	0.19916 0.03187 0.79983 0.73100
Cl	Cl	0.11320 0.98380 0.79490 -0.06300
Cl	Cl	0.20780 0.96980 0.87810 -0.33700
Co	Co	0.20050 0.99750 0.79575 0.87200
C 	C 	0.34840 0.04210 0.73280 5.18600
H 	H 	0.35890 0.05520 0.70130 -1.53500
C 	C 	0.38210 0.03640 0.77320 2.65400
H 	H 	0.41600 0.04720 0.77000 -0.99500
C 	C 	0.31530 0.99700 0.82260 -0.20700
H 	H 	0.30520 0.97940 0.85190 0.14900
C 	C 	0.26500 0.05430 0.65420 0.08700
H 	H 	0.29610 0.07000 0.64660 0.00400
C 	C 	0.22550 0.05280 0.61730 0.12100
H 	H 	0.23120 0.06240 0.58340 0.01700
C 	C 	0.17070 0.01860 0.68380 -0.03200
H 	H 	0.13800 0.00770 0.69300 0.07000
N 	N 	0.28140 0.00450 0.78620 0.44100
N 	N 	0.20990 0.01580 0.72150 -0.35600
O 	O 	0.53790 0.05140 0.97360 -1.96600
Cl	Cl	0.14890 0.95860 0.79030 -0.61000
Cl	Cl	0.19910 0.03760 0.88670 -0.43500
Zr	Zr	0.01313 0.48470 0.09241 3.24600
O 	O 	0.05050 0.43170 0.03560 0.92500
C 	C 	0.86473 0.48600 0.18043 0.08100
C 	C 	0.89961 0.49375 0.13648 0.40000
O 	O 	0.87834 0.50641 0.09449 -0.66300
O 	O 	0.94708 0.48735 0.14503 -0.65600
C 	C 	0.67820 0.46350 0.36620 -0.14400
C 	C 	0.63410 0.46720 0.40154 0.49400
O 	O 	0.59023 0.46810 0.37959 -0.69300
O 	O 	0.64334 0.46915 0.44884 -0.66900
C 	C 	0.79670 0.47310 0.25840 -0.22800
C 	C 	0.75730 0.46750 0.29850 0.09200
C 	C 	0.84950 0.48760 0.27190 -5.05400
H 	H 	0.85930 0.49690 0.30490 1.77600
C 	C 	0.88360 0.48590 0.23010 -2.93100
H 	H 	0.91880 0.48480 0.23580 1.08900
C 	C 	0.81050 0.48500 0.17150 0.14200
H 	H 	0.79750 0.49210 0.13900 -0.05400
C 	C 	0.76840 0.46730 0.35260 -0.20900
H 	H 	0.80210 0.46740 0.36430 0.12200
C 	C 	0.73180 0.46710 0.38360 -0.05700
H 	H 	0.73850 0.46930 0.41850 0.07900
C 	C 	0.67140 0.46460 0.31420 0.06400
H 	H 	0.63830 0.46330 0.30110 -0.01100
N 	N 	0.77860 0.47370 0.21040 -0.64400
N 	N 	0.70990 0.46750 0.28250 0.06400
Co	Co	0.69916 0.46813 0.20017 0.73100
Cl	Cl	0.61320 0.51620 0.20510 -0.06200
Cl	Cl	0.70780 0.53020 0.12190 -0.33600
Co	Co	0.70050 0.50250 0.20425 0.87100
C 	C 	0.84840 0.45790 0.26720 5.15500
H 	H 	0.85890 0.44480 0.29870 -1.52500
C 	C 	0.88210 0.46360 0.22680 2.63800
H 	H 	0.91600 0.45280 0.23000 -0.98900
C 	C 	0.81530 0.50300 0.17740 -0.20800
H 	H 	0.80520 0.52060 0.14810 0.15000
C 	C 	0.76500 0.44570 0.34580 0.08300
H 	H 	0.79610 0.43000 0.35340 0.00600
C 	C 	0.72550 0.44720 0.38270 0.11900
H 	H 	0.73120 0.43760 0.41660 0.01800
C 	C 	0.67070 0.48140 0.31620 -0.02300
H 	H 	0.63800 0.49230 0.30700 0.06600
N 	N 	0.78140 0.49550 0.21380 0.43800
N 	N 	0.70990 0.48420 0.27850 -0.32700
O 	O 	0.03790 0.44860 0.02640 -1.96800
Cl	Cl	0.64890 0.54140 0.20970 -0.61100
Cl	Cl	0.69910 0.46240 0.11330 -0.43600
Zr	Zr	0.40759 0.98687 0.98470 3.24600
O 	O 	0.46440 0.94950 0.93170 0.92900
C 	C 	0.31957 0.13527 0.98600 0.07800
C 	C 	0.36352 0.10039 0.99375 0.40300
O 	O 	0.40551 0.12166 0.00641 -0.66500
O 	O 	0.35497 0.05292 0.98735 -0.65700
C 	C 	0.13380 0.32180 0.96350 -0.14500
C 	C 	0.09846 0.36590 0.96720 0.49500
O 	O 	0.12041 0.40977 0.96810 -0.69300
O 	O 	0.05116 0.35666 0.96915 -0.66900
C 	C 	0.24160 0.20330 0.97310 -0.22700
C 	C 	0.20150 0.24270 0.96750 0.09800
C 	C 	0.22810 0.15050 0.98760 -4.98500
H 	H 	0.19510 0.14070 0.99690 1.75200
C 	C 	0.26990 0.11640 0.98590 -2.89100
H 	H 	0.26420 0.08120 0.98480 1.07400
C 	C 	0.32850 0.18950 0.98500 0.13500
H 	H 	0.36100 0.20250 0.99210 -0.05000
C 	C 	0.14740 0.23160 0.96730 -0.20500
H 	H 	0.13570 0.19790 0.96740 0.12000
C 	C 	0.11640 0.26820 0.96710 -0.05300
H 	H 	0.08150 0.26150 0.96930 0.07700
C 	C 	0.18580 0.32860 0.96460 0.05700
H 	H 	0.19890 0.36170 0.96330 -0.00800
N 	N 	0.28960 0.22140 0.97370 -0.63600
N 	N 	0.21750 0.29010 0.96750 0.01600
Co	Co	0.29983 0.30084 0.96813 0.73200
Cl	Cl	0.29490 0.38680 0.01620 -0.06200
Cl	Cl	0.37810 0.29220 0.03020 -0.33800
Co	Co	0.29575 0.29950 0.00250 0.86900
C 	C 	0.23280 0.15160 0.95790 5.08400
H 	H 	0.20130 0.14110 0.94480 -1.50400
C 	C 	0.27320 0.11790 0.96360 2.60200
H 	H 	0.27000 0.08400 0.95280 -0.97500
C 	C 	0.32260 0.18470 0.00300 -0.20000
H 	H 	0.35190 0.19480 0.02060 0.14500
C 	C 	0.15420 0.23500 0.94570 0.07600
H 	H 	0.14660 0.20390 0.93000 0.00800
C 	C 	0.11730 0.27450 0.94720 0.11600
H 	H 	0.08340 0.26880 0.93760 0.01900
C 	C 	0.18380 0.32930 0.98140 -0.01100
H 	H 	0.19300 0.36200 0.99230 0.06100
N 	N 	0.28620 0.21860 0.99550 0.42900
N 	N 	0.22150 0.29010 0.98420 -0.28200
O 	O 	0.47360 0.96210 0.94860 -1.97200
Cl	Cl	0.29030 0.35110 0.04140 -0.61300
Cl	Cl	0.38670 0.30090 0.96240 -0.43500
Zr	Zr	0.59241 0.48687 0.51530 3.24600
O 	O 	0.53560 0.44950 0.56830 0.92600
C 	C 	0.68043 0.63527 0.51400 0.07900
C 	C 	0.63648 0.60039 0.50625 0.40100
O 	O 	0.59449 0.62166 0.49359 -0.66300
O 	O 	0.64503 0.55292 0.51265 -0.65700
C 	C 	0.86620 0.82180 0.53650 -0.14500
C 	C 	0.90154 0.86590 0.53280 0.49500
O 	O 	0.87959 0.90977 0.53190 -0.69400
O 	O 	0.94884 0.85666 0.53085 -0.67000
C 	C 	0.75840 0.70330 0.52690 -0.22700
C 	C 	0.79850 0.74270 0.53250 0.09400
C 	C 	0.77190 0.65050 0.51240 -5.01800
H 	H 	0.80490 0.64070 0.50310 1.76400
C 	C 	0.73010 0.61640 0.51410 -2.91000
H 	H 	0.73580 0.58120 0.51520 1.08100
C 	C 	0.67150 0.68950 0.51500 0.14200
H 	H 	0.63900 0.70250 0.50790 -0.05300
C 	C 	0.85260 0.73160 0.53270 -0.20800
H 	H 	0.86430 0.69790 0.53260 0.12200
C 	C 	0.88360 0.76820 0.53290 -0.05600
H 	H 	0.91850 0.76150 0.53070 0.07800
C 	C 	0.81420 0.82860 0.53540 0.06100
H 	H 	0.80110 0.86170 0.53670 -0.01000
N 	N 	0.71040 0.72140 0.52630 -0.64000
N 	N 	0.78250 0.79010 0.53250 0.04500
Co	Co	0.70017 0.80084 0.53187 0.73100
Cl	Cl	0.70510 0.88680 0.48380 -0.06200
Cl	Cl	0.62190 0.79220 0.46980 -0.33700
Co	Co	0.70425 0.79950 0.49750 0.87100
C 	C 	0.76720 0.65160 0.54210 5.11800
H 	H 	0.79870 0.64110 0.55520 -1.51400
C 	C 	0.72680 0.61790 0.53640 2.62000
H 	H 	0.73000 0.58400 0.54720 -0.98200
C 	C 	0.67740 0.68470 0.49700 -0.20600
H 	H 	0.64810 0.69480 0.47940 0.14900
C 	C 	0.84580 0.73500 0.55430 0.08100
H 	H 	0.85340 0.70390 0.57000 0.00600
C 	C 	0.88270 0.77450 0.55280 0.11800
H 	H 	0.91660 0.76880 0.56240 0.01800
C 	C 	0.81620 0.82930 0.51860 -0.01800
H 	H 	0.80700 0.86200 0.50770 0.06400
N 	N 	0.71380 0.71860 0.50450 0.43400
N 	N 	0.77850 0.79010 0.51580 -0.30900
O 	O 	0.52640 0.46210 0.55140 -1.96800
Cl	Cl	0.70970 0.85110 0.45860 -0.61200
Cl	Cl	0.61330 0.80090 0.53760 -0.43600
Zr	Zr	0.90759 0.51313 0.01530 3.24600
O 	O 	0.96440 0.55050 0.06830 0.92500
C 	C 	0.81957 0.36473 0.01400 0.08200
C 	C 	0.86352 0.39961 0.00625 0.40100
O 	O 	0.90551 0.37834 0.99359 -0.66400
O 	O 	0.85497 0.44708 0.01265 -0.65700
C 	C 	0.63380 0.17820 0.03650 -0.14400
C 	C 	0.59846 0.13410 0.03280 0.49400
O 	O 	0.62041 0.09023 0.03190 -0.69400
O 	O 	0.55116 0.14334 0.03085 -0.66900
C 	C 	0.74160 0.29670 0.02690 -0.22800
C 	C 	0.70150 0.25730 0.03250 0.08900
C 	C 	0.72810 0.34950 0.01240 -5.08500
H 	H 	0.69510 0.35930 0.00310 1.78700
C 	C 	0.76990 0.38360 0.01410 -2.94900
H 	H 	0.76420 0.41880 0.01520 1.09500
C 	C 	0.82850 0.31050 0.01500 0.14100
H 	H 	0.86100 0.29750 0.00790 -0.05300
C 	C 	0.64740 0.26840 0.03270 -0.21200
H 	H 	0.63570 0.30210 0.03260 0.12300
C 	C 	0.61640 0.23180 0.03290 -0.06000
H 	H 	0.58150 0.23850 0.03070 0.08000
C 	C 	0.68580 0.17140 0.03540 0.06900
H 	H 	0.69890 0.13830 0.03670 -0.01300
N 	N 	0.78960 0.27860 0.02630 -0.64600
N 	N 	0.71750 0.20990 0.03250 0.09400
Co	Co	0.79983 0.19916 0.03187 0.73100
Cl	Cl	0.79490 0.11320 0.98380 -0.06300
Cl	Cl	0.87810 0.20780 0.96980 -0.33700
Co	Co	0.79575 0.20050 0.99750 0.87200
C 	C 	0.73280 0.34840 0.04210 5.18600
H 	H 	0.70130 0.35890 0.05520 -1.53500
C 	C 	0.77320 0.38210 0.03640 2.65400
H 	H 	0.77000 0.41600 0.04720 -0.99500
C 	C 	0.82260 0.31530 0.99700 -0.20700
H 	H 	0.85190 0.30520 0.97940 0.14900
C 	C 	0.65420 0.26500 0.05430 0.08700
H 	H 	0.64660 0.29610 0.07000 0.00400
C 	C 	0.61730 0.22550 0.05280 0.12100
H 	H 	0.58340 0.23120 0.06240 0.01700
C 	C 	0.68380 0.17070 0.01860 -0.03200
H 	H 	0.69300 0.13800 0.00770 0.07000
N 	N 	0.78620 0.28140 0.00450 0.44100
N 	N 	0.72150 0.20990 0.01580 -0.35600
O 	O 	0.97360 0.53790 0.05140 -1.96600
Cl	Cl	0.79030 0.14890 0.95860 -0.61000
Cl	Cl	0.88670 0.19910 0.03760 -0.43500
Zr	Zr	0.09241 0.01313 0.48470 3.24600
O 	O 	0.03560 0.05050 0.43170 0.92500
C 	C 	0.18043 0.86473 0.48600 0.08100
C 	C 	0.13648 0.89961 0.49375 0.40000
O 	O 	0.09449 0.87834 0.50641 -0.66300
O 	O 	0.14503 0.94708 0.48735 -0.65600
C 	C 	0.36620 0.67820 0.46350 -0.14400
C 	C 	0.40154 0.63410 0.46720 0.49400
O 	O 	0.37959 0.59023 0.46810 -0.69300
O 	O 	0.44884 0.64334 0.46915 -0.66900
C 	C 	0.25840 0.79670 0.47310 -0.22800
C 	C 	0.29850 0.75730 0.46750 0.09200
C 	C 	0.27190 0.84950 0.48760 -5.05400
H 	H 	0.30490 0.85930 0.49690 1.77600
C 	C 	0.23010 0.88360 0.48590 -2.93100
H 	H 	0.23580 0.91880 0.48480 1.08900
C 	C 	0.17150 0.81050 0.48500 0.14200
H 	H 	0.13900 0.79750 0.49210 -0.05400
C 	C 	0.35260 0.76840 0.46730 -0.20900
H 	H 	0.36430 0.80210 0.46740 0.12200
C 	C 	0.38360 0.73180 0.46710 -0.05700
H 	H 	0.41850 0.73850 0.46930 0.07900
C 	C 	0.31420 0.67140 0.46460 0.06400
H 	H 	0.30110 0.63830 0.46330 -0.01100
N 	N 	0.21040 0.77860 0.47370 -0.64400
N 	N 	0.28250 0.70990 0.46750 0.06400
Co	Co	0.20017 0.69916 0.46813 0.73100
Cl	Cl	0.20510 0.61320 0.51620 -0.06200
Cl	Cl	0.12190 0.70780 0.53020 -0.33600
Co	Co	0.20425 0.70050 0.50250 0.87100
C 	C 	0.26720 0.84840 0.45790 5.15500
H 	H 	0.29870 0.85890 0.44480 -1.52500
C 	C 	0.22680 0.88210 0.46360 2.63800
H 	H 	0.23000 0.91600 0.45280 -0.98900
C 	C 	0.17740 0.81530 0.50300 -0.20800
H 	H 	0.14810 0.80520 0.52060 0.15000
C 	C 	0.34580 0.76500 0.44570 0.08300
H 	H 	0.35340 0.79610 0.43000 0.00600
C 	C 	0.38270 0.72550 0.44720 0.11900
H 	H 	0.41660 0.73120 0.43760 0.01800
C 	C 	0.31620 0.67070 0.48140 -0.02300
H 	H 	0.30700 0.63800 0.49230 0.06600
N 	N 	0.21380 0.78140 0.49550 0.43800
N 	N 	0.27850 0.70990 0.48420 -0.32700
O 	O 	0.02640 0.03790 0.44860 -1.96800
Cl	Cl	0.20970 0.64890 0.54140 -0.61100
Cl	Cl	0.11330 0.69910 0.46240 -0.43600
Zr	Zr	0.01530 0.59241 0.01313 3.24600
O 	O 	0.06830 0.53560 0.05050 0.92900
C 	C 	0.01400 0.68043 0.86473 0.07800
C 	C 	0.00625 0.63648 0.89961 0.40300
O 	O 	0.99359 0.59449 0.87834 -0.66500
O 	O 	0.01265 0.64503 0.94708 -0.65700
C 	C 	0.03650 0.86620 0.67820 -0.14500
C 	C 	0.03280 0.90154 0.63410 0.49500
O 	O 	0.03190 0.87959 0.59023 -0.69300
O 	O 	0.03085 0.94884 0.64334 -0.66900
C 	C 	0.02690 0.75840 0.79670 -0.22700
C 	C 	0.03250 0.79850 0.75730 0.09800
C 	C 	0.01240 0.77190 0.84950 -4.98500
H 	H 	0.00310 0.80490 0.85930 1.75200
C 	C 	0.01410 0.73010 0.88360 -2.89100
H 	H 	0.01520 0.73580 0.91880 1.07400
C 	C 	0.01500 0.67150 0.81050 0.13500
H 	H 	0.00790 0.63900 0.79750 -0.05000
C 	C 	0.03270 0.85260 0.76840 -0.20500
H 	H 	0.03260 0.86430 0.80210 0.12000
C 	C 	0.03290 0.88360 0.73180 -0.05300
H 	H 	0.03070 0.91850 0.73850 0.07700
C 	C 	0.03540 0.81420 0.67140 0.05700
H 	H 	0.03670 0.80110 0.63830 -0.00800
N 	N 	0.02630 0.71040 0.77860 -0.63600
N 	N 	0.03250 0.78250 0.70990 0.01600
Co	Co	0.03187 0.70017 0.69916 0.73200
Cl	Cl	0.98380 0.70510 0.61320 -0.06200
Cl	Cl	0.96980 0.62190 0.70780 -0.33800
Co	Co	0.99750 0.70425 0.70050 0.86900
C 	C 	0.04210 0.76720 0.84840 5.08400
H 	H 	0.05520 0.79870 0.85890 -1.50400
C 	C 	0.03640 0.72680 0.88210 2.60200
H 	H 	0.04720 0.73000 0.91600 -0.97500
C 	C 	0.99700 0.67740 0.81530 -0.20000
H 	H 	0.97940 0.64810 0.80520 0.14500
C 	C 	0.05430 0.84580 0.76500 0.07600
H 	H 	0.07000 0.85340 0.79610 0.00800
C 	C 	0.05280 0.88270 0.72550 0.11600
H 	H 	0.06240 0.91660 0.73120 0.01900
C 	C 	0.01860 0.81620 0.67070 -0.01100
H 	H 	0.00770 0.80700 0.63800 0.06100
N 	N 	0.00450 0.71380 0.78140 0.42900
N 	N 	0.01580 0.77850 0.70990 -0.28200
O 	O 	0.05140 0.52640 0.03790 -1.97200
Cl	Cl	0.95860 0.70970 0.64890 -0.61300
Cl	Cl	0.03760 0.61330 0.69910 -0.43500
Zr	Zr	0.48470 0.40759 0.51313 3.24600
O 	O 	0.43170 0.46440 0.55050 0.92600
C 	C 	0.48600 0.31957 0.36473 0.07900
C 	C 	0.49375 0.36352 0.39961 0.40100
O 	O 	0.50641 0.40551 0.37834 -0.66300
O 	O 	0.48735 0.35497 0.44708 -0.65700
C 	C 	0.46350 0.13380 0.17820 -0.14500
C 	C 	0.46720 0.09846 0.13410 0.49500
O 	O 	0.46810 0.12041 0.09023 -0.69400
O 	O 	0.46915 0.05116 0.14334 -0.67000
C 	C 	0.47310 0.24160 0.29670 -0.22700
C 	C 	0.46750 0.20150 0.25730 0.09400
C 	C 	0.48760 0.22810 0.34950 -5.01800
H 	H 	0.49690 0.19510 0.35930 1.76400
C 	C 	0.48590 0.26990 0.38360 -2.91000
H 	H 	0.48480 0.26420 0.41880 1.08100
C 	C 	0.48500 0.32850 0.31050 0.14200
H 	H 	0.49210 0.36100 0.29750 -0.05300
C 	C 	0.46730 0.14740 0.26840 -0.20800
H 	H 	0.46740 0.13570 0.30210 0.12200
C 	C 	0.46710 0.11640 0.23180 -0.05600
H 	H 	0.46930 0.08150 0.23850 0.07800
C 	C 	0.46460 0.18580 0.17140 0.06100
H 	H 	0.46330 0.19890 0.13830 -0.01000
N 	N 	0.47370 0.28960 0.27860 -0.64000
N 	N 	0.46750 0.21750 0.20990 0.04500
Co	Co	0.46813 0.29983 0.19916 0.73100
Cl	Cl	0.51620 0.29490 0.11320 -0.06200
Cl	Cl	0.53020 0.37810 0.20780 -0.33700
Co	Co	0.50250 0.29575 0.20050 0.87100
C 	C 	0.45790 0.23280 0.34840 5.11800
H 	H 	0.44480 0.20130 0.35890 -1.51400
C 	C 	0.46360 0.27320 0.38210 2.62000
H 	H 	0.45280 0.27000 0.41600 -0.98200
C 	C 	0.50300 0.32260 0.31530 -0.20600
H 	H 	0.52060 0.35190 0.30520 0.14900
C 	C 	0.44570 0.15420 0.26500 0.08100
H 	H 	0.43000 0.14660 0.29610 0.00600
C 	C 	0.44720 0.11730 0.22550 0.11800
H 	H 	0.43760 0.08340 0.23120 0.01800
C 	C 	0.48140 0.18380 0.17070 -0.01800
H 	H 	0.49230 0.19300 0.13800 0.06400
N 	N 	0.49550 0.28620 0.28140 0.43400
N 	N 	0.48420 0.22150 0.20990 -0.30900
O 	O 	0.44860 0.47360 0.53790 -1.96800
Cl	Cl	0.54140 0.29030 0.14890 -0.61200
Cl	Cl	0.46240 0.38670 0.19910 -0.43600
Zr	Zr	0.98470 0.09241 0.48687 3.24600
O 	O 	0.93170 0.03560 0.44950 0.92500
C 	C 	0.98600 0.18043 0.63527 0.08200
C 	C 	0.99375 0.13648 0.60039 0.40100
O 	O 	0.00641 0.09449 0.62166 -0.66400
O 	O 	0.98735 0.14503 0.55292 -0.65700
C 	C 	0.96350 0.36620 0.82180 -0.14400
C 	C 	0.96720 0.40154 0.86590 0.49400
O 	O 	0.96810 0.37959 0.90977 -0.69400
O 	O 	0.96915 0.44884 0.85666 -0.66900
C 	C 	0.97310 0.25840 0.70330 -0.22800
C 	C 	0.96750 0.29850 0.74270 0.08900
C 	C 	0.98760 0.27190 0.65050 -5.08500
H 	H 	0.99690 0.30490 0.64070 1.78700
C 	C 	0.98590 0.23010 0.61640 -2.94900
H 	H 	0.98480 0.23580 0.58120 1.09500
C 	C 	0.98500 0.17150 0.68950 0.14100
H 	H 	0.99210 0.13900 0.70250 -0.05300
C 	C 	0.96730 0.35260 0.73160 -0.21200
H 	H 	0.96740 0.36430 0.69790 0.12300
C 	C 	0.96710 0.38360 0.76820 -0.06000
H 	H 	0.96930 0.41850 0.76150 0.08000
C 	C 	0.96460 0.31420 0.82860 0.06900
H 	H 	0.96330 0.30110 0.86170 -0.01300
N 	N 	0.97370 0.21040 0.72140 -0.64600
N 	N 	0.96750 0.28250 0.79010 0.09400
Co	Co	0.96813 0.20017 0.80084 0.73100
Cl	Cl	0.01620 0.20510 0.88680 -0.06300
Cl	Cl	0.03020 0.12190 0.79220 -0.33700
Co	Co	0.00250 0.20425 0.79950 0.87200
C 	C 	0.95790 0.26720 0.65160 5.18600
H 	H 	0.94480 0.29870 0.64110 -1.53500
C 	C 	0.96360 0.22680 0.61790 2.65400
H 	H 	0.95280 0.23000 0.58400 -0.99500
C 	C 	0.00300 0.17740 0.68470 -0.20700
H 	H 	0.02060 0.14810 0.69480 0.14900
C 	C 	0.94570 0.34580 0.73500 0.08700
H 	H 	0.93000 0.35340 0.70390 0.00400
C 	C 	0.94720 0.38270 0.77450 0.12100
H 	H 	0.93760 0.41660 0.76880 0.01700
C 	C 	0.98140 0.31620 0.82930 -0.03200
H 	H 	0.99230 0.30700 0.86200 0.07000
N 	N 	0.99550 0.21380 0.71860 0.44100
N 	N 	0.98420 0.27850 0.79010 -0.35600
O 	O 	0.94860 0.02640 0.46210 -1.96600
Cl	Cl	0.04140 0.20970 0.85110 -0.61000
Cl	Cl	0.96240 0.11330 0.80090 -0.43500
Zr	Zr	0.51530 0.90759 0.98687 3.24600
O 	O 	0.56830 0.96440 0.94950 0.92500
C 	C 	0.51400 0.81957 0.13527 0.08100
C 	C 	0.50625 0.86352 0.10039 0.40000
O 	O 	0.49359 0.90551 0.12166 -0.66300
O 	O 	0.51265 0.85497 0.05292 -0.65600
C 	C 	0.53650 0.63380 0.32180 -0.14400
C 	C 	0.53280 0.59846 0.36590 0.49400
O 	O 	0.53190 0.62041 0.40977 -0.69300
O 	O 	0.53085 0.55116 0.35666 -0.66900
C 	C 	0.52690 0.74160 0.20330 -0.22800
C 	C 	0.53250 0.70150 0.24270 0.09200
C 	C 	0.51240 0.72810 0.15050 -5.05400
H 	H 	0.50310 0.69510 0.14070 1.77600
C 	C 	0.51410 0.76990 0.11640 -2.93100
H 	H 	0.51520 0.76420 0.08120 1.08900
C 	C 	0.51500 0.82850 0.18950 0.14200
H 	H 	0.50790 0.86100 0.20250 -0.05400
C 	C 	0.53270 0.64740 0.23160 -0.20900
H 	H 	0.53260 0.63570 0.19790 0.12200
C 	C 	0.53290 0.61640 0.26820 -0.05700
H 	H 	0.53070 0.58150 0.26150 0.07900
C 	C 	0.53540 0.68580 0.32860 0.06400
H 	H 	0.53670 0.69890 0.36170 -0.01100
N 	N 	0.52630 0.78960 0.22140 -0.64400
N 	N 	0.53250 0.71750 0.29010 0.06400
Co	Co	0.53187 0.79983 0.30084 0.73100
Cl	Cl	0.48380 0.79490 0.38680 -0.06200
Cl	Cl	0.46980 0.87810 0.29220 -0.33600
Co	Co	0.49750 0.79575 0.29950 0.87100
C 	C 	0.54210 0.73280 0.15160 5.15500
H 	H 	0.55520 0.70130 0.14110 -1.52500
C 	C 	0.53640 0.77320 0.11790 2.63800
H 	H 	0.54720 0.77000 0.08400 -0.98900
C 	C 	0.49700 0.82260 0.18470 -0.20800
H 	H 	0.47940 0.85190 0.19480 0.15000
C 	C 	0.55430 0.65420 0.23500 0.08300
H 	H 	0.57000 0.64660 0.20390 0.00600
C 	C 	0.55280 0.61730 0.27450 0.11900
H 	H 	0.56240 0.58340 0.26880 0.01800
C 	C 	0.51860 0.68380 0.32930 -0.02300
H 	H 	0.50770 0.69300 0.36200 0.06600
N 	N 	0.50450 0.78620 0.21860 0.43800
N 	N 	0.51580 0.72150 0.29010 -0.32700
O 	O 	0.55140 0.97360 0.96210 -1.96800
Cl	Cl	0.45860 0.79030 0.35110 -0.61100
Cl	Cl	0.53760 0.88670 0.30090 -0.43600
Zr	Zr	0.01313 0.01530 0.59241 3.24600
O 	O 	0.05050 0.06830 0.53560 0.92900
C 	C 	0.86473 0.01400 0.68043 0.07800
C 	C 	0.89961 0.00625 0.63648 0.40300
O 	O 	0.87834 0.99359 0.59449 -0.66500
O 	O 	0.94708 0.01265 0.64503 -0.65700
C 	C 	0.67820 0.03650 0.86620 -0.14500
C 	C 	0.63410 0.03280 0.90154 0.49500
O 	O 	0.59023 0.03190 0.87959 -0.69300
O 	O 	0.64334 0.03085 0.94884 -0.66900
C 	C 	0.79670 0.02690 0.75840 -0.22700
C 	C 	0.75730 0.03250 0.79850 0.09800
C 	C 	0.84950 0.01240 0.77190 -4.98500
H 	H 	0.85930 0.00310 0.80490 1.75200
C 	C 	0.88360 0.01410 0.73010 -2.89100
H 	H 	0.91880 0.01520 0.73580 1.07400
C 	C 	0.81050 0.01500 0.67150 0.13500
H 	H 	0.79750 0.00790 0.63900 -0.05000
C 	C 	0.76840 0.03270 0.85260 -0.20500
H 	H 	0.80210 0.03260 0.86430 0.12000
C 	C 	0.73180 0.03290 0.88360 -0.05300
H 	H 	0.73850 0.03070 0.91850 0.07700
C 	C 	0.67140 0.03540 0.81420 0.05700
H 	H 	0.63830 0.03670 0.80110 -0.00800
N 	N 	0.77860 0.02630 0.71040 -0.63600
N 	N 	0.70990 0.03250 0.78250 0.01600
Co	Co	0.69916 0.03187 0.70017 0.73200
Cl	Cl	0.61320 0.98380 0.70510 -0.06200
Cl	Cl	0.70780 0.96980 0.62190 -0.33800
Co	Co	0.70050 0.99750 0.70425 0.86900
C 	C 	0.84840 0.04210 0.76720 5.08400
H 	H 	0.85890 0.05520 0.79870 -1.50400
C 	C 	0.88210 0.03640 0.72680 2.60200
H 	H 	0.91600 0.04720 0.73000 -0.97500
C 	C 	0.81530 0.99700 0.67740 -0.20000
H 	H 	0.80520 0.97940 0.64810 0.14500
C 	C 	0.76500 0.05430 0.84580 0.07600
H 	H 	0.79610 0.07000 0.85340 0.00800
C 	C 	0.72550 0.05280 0.88270 0.11600
H 	H 	0.73120 0.06240 0.91660 0.01900
C 	C 	0.67070 0.01860 0.81620 -0.01100
H 	H 	0.63800 0.00770 0.80700 0.06100
N 	N 	0.78140 0.00450 0.71380 0.42900
N 	N 	0.70990 0.01580 0.77850 -0.28200
O 	O 	0.03790 0.05140 0.52640 -1.97200
Cl	Cl	0.64890 0.95860 0.70970 -0.61300
Cl	Cl	0.69910 0.03760 0.61330 -0.43500
Zr	Zr	0.51313 0.48470 0.40759 3.24600
O 	O 	0.55050 0.43170 0.46440 0.92600
C 	C 	0.36473 0.48600 0.31957 0.07900
C 	C 	0.39961 0.49375 0.36352 0.40100
O 	O 	0.37834 0.50641 0.40551 -0.66300
O 	O 	0.44708 0.48735 0.35497 -0.65700
C 	C 	0.17820 0.46350 0.13380 -0.14500
C 	C 	0.13410 0.46720 0.09846 0.49500
O 	O 	0.09023 0.46810 0.12041 -0.69400
O 	O 	0.14334 0.46915 0.05116 -0.67000
C 	C 	0.29670 0.47310 0.24160 -0.22700
C 	C 	0.25730 0.46750 0.20150 0.09400
C 	C 	0.34950 0.48760 0.22810 -5.01800
H 	H 	0.35930 0.49690 0.19510 1.76400
C 	C 	0.38360 0.48590 0.26990 -2.91000
H 	H 	0.41880 0.48480 0.26420 1.08100
C 	C 	0.31050 0.48500 0.32850 0.14200
H 	H 	0.29750 0.49210 0.36100 -0.05300
C 	C 	0.26840 0.46730 0.14740 -0.20800
H 	H 	0.30210 0.46740 0.13570 0.12200
C 	C 	0.23180 0.46710 0.11640 -0.05600
H 	H 	0.23850 0.46930 0.08150 0.07800
C 	C 	0.17140 0.46460 0.18580 0.06100
H 	H 	0.13830 0.46330 0.19890 -0.01000
N 	N 	0.27860 0.47370 0.28960 -0.64000
N 	N 	0.20990 0.46750 0.21750 0.04500
Co	Co	0.19916 0.46813 0.29983 0.73100
Cl	Cl	0.11320 0.51620 0.29490 -0.06200
Cl	Cl	0.20780 0.53020 0.37810 -0.33700
Co	Co	0.20050 0.50250 0.29575 0.87100
C 	C 	0.34840 0.45790 0.23280 5.11800
H 	H 	0.35890 0.44480 0.20130 -1.51400
C 	C 	0.38210 0.46360 0.27320 2.62000
H 	H 	0.41600 0.45280 0.27000 -0.98200
C 	C 	0.31530 0.50300 0.32260 -0.20600
H 	H 	0.30520 0.52060 0.35190 0.14900
C 	C 	0.26500 0.44570 0.15420 0.08100
H 	H 	0.29610 0.43000 0.14660 0.00600
C 	C 	0.22550 0.44720 0.11730 0.11800
H 	H 	0.23120 0.43760 0.08340 0.01800
C 	C 	0.17070 0.48140 0.18380 -0.01800
H 	H 	0.13800 0.49230 0.19300 0.06400
N 	N 	0.28140 0.49550 0.28620 0.43400
N 	N 	0.20990 0.48420 0.22150 -0.30900
O 	O 	0.53790 0.44860 0.47360 -1.96800
Cl	Cl	0.14890 0.54140 0.29030 -0.61200
Cl	Cl	0.19910 0.46240 0.38670 -0.43600
Zr	Zr	0.48687 0.98470 0.09241 3.24600
O 	O 	0.44950 0.93170 0.03560 0.92500
C 	C 	0.63527 0.98600 0.18043 0.08200
C 	C 	0.60039 0.99375 0.13648 0.40100
O 	O 	0.62166 0.00641 0.09449 -0.66400
O 	O 	0.55292 0.98735 0.14503 -0.65700
C 	C 	0.82180 0.96350 0.36620 -0.14400
C 	C 	0.86590 0.96720 0.40154 0.49400
O 	O 	0.90977 0.96810 0.37959 -0.69400
O 	O 	0.85666 0.96915 0.44884 -0.66900
C 	C 	0.70330 0.97310 0.25840 -0.22800
C 	C 	0.74270 0.96750 0.29850 0.08900
C 	C 	0.65050 0.98760 0.27190 -5.08500
H 	H 	0.64070 0.99690 0.30490 1.78700
C 	C 	0.61640 0.98590 0.23010 -2.94900
H 	H 	0.58120 0.98480 0.23580 1.09500
C 	C 	0.68950 0.98500 0.17150 0.14100
H 	H 	0.70250 0.99210 0.13900 -0.05300
C 	C 	0.73160 0.96730 0.35260 -0.21200
H 	H 	0.69790 0.96740 0.36430 0.12300
C 	C 	0.76820 0.96710 0.38360 -0.06000
H 	H 	0.76150 0.96930 0.41850 0.08000
C 	C 	0.82860 0.96460 0.31420 0.06900
H 	H 	0.86170 0.96330 0.30110 -0.01300
N 	N 	0.72140 0.97370 0.21040 -0.64600
N 	N 	0.79010 0.96750 0.28250 0.09400
Co	Co	0.80084 0.96813 0.20017 0.73100
Cl	Cl	0.88680 0.01620 0.20510 -0.06300
Cl	Cl	0.79220 0.03020 0.12190 -0.33700
Co	Co	0.79950 0.00250 0.20425 0.87200
C 	C 	0.65160 0.95790 0.26720 5.18600
H 	H 	0.64110 0.94480 0.29870 -1.53500
C 	C 	0.61790 0.96360 0.22680 2.65400
H 	H 	0.58400 0.95280 0.23000 -0.99500
C 	C 	0.68470 0.00300 0.17740 -0.20700
H 	H 	0.69480 0.02060 0.14810 0.14900
C 	C 	0.73500 0.94570 0.34580 0.08700
H 	H 	0.70390 0.93000 0.35340 0.00400
C 	C 	0.77450 0.94720 0.38270 0.12100
H 	H 	0.76880 0.93760 0.41660 0.01700
C 	C 	0.82930 0.98140 0.31620 -0.03200
H 	H 	0.86200 0.99230 0.30700 0.07000
N 	N 	0.71860 0.99550 0.21380 0.44100
N 	N 	0.79010 0.98420 0.27850 -0.35600
O 	O 	0.46210 0.94860 0.02640 -1.96600
Cl	Cl	0.85110 0.04140 0.20970 -0.61000
Cl	Cl	0.80090 0.96240 0.11330 -0.43500
Zr	Zr	0.98687 0.51530 0.90759 3.24600
O 	O 	0.94950 0.56830 0.96440 0.92500
C 	C 	0.13527 0.51400 0.81957 0.08100
C 	C 	0.10039 0.50625 0.86352 0.40000
O 	O 	0.12166 0.49359 0.90551 -0.66300
O 	O 	0.05292 0.51265 0.85497 -0.65600
C 	C 	0.32180 0.53650 0.63380 -0.14400
C 	C 	0.36590 0.53280 0.59846 0.49400
O 	O 	0.40977 0.53190 0.62041 -0.69300
O 	O 	0.35666 0.53085 0.55116 -0.66900
C 	C 	0.20330 0.52690 0.74160 -0.22800
C 	C 	0.24270 0.53250 0.70150 0.09200
C 	C 	0.15050 0.51240 0.72810 -5.05400
H 	H 	0.14070 0.50310 0.69510 1.77600
C 	C 	0.11640 0.51410 0.76990 -2.93100
H 	H 	0.08120 0.51520 0.76420 1.08900
C 	C 	0.18950 0.51500 0.82850 0.14200
H 	H 	0.20250 0.50790 0.86100 -0.05400
C 	C 	0.23160 0.53270 0.64740 -0.20900
H 	H 	0.19790 0.53260 0.63570 0.12200
C 	C 	0.26820 0.53290 0.61640 -0.05700
H 	H 	0.26150 0.53070 0.58150 0.07900
C 	C 	0.32860 0.53540 0.68580 0.06400
H 	H 	0.36170 0.53670 0.69890 -0.01100
N 	N 	0.22140 0.52630 0.78960 -0.64400
N 	N 	0.29010 0.53250 0.71750 0.06400
Co	Co	0.30084 0.53187 0.79983 0.73100
Cl	Cl	0.38680 0.48380 0.79490 -0.06200
Cl	Cl	0.29220 0.46980 0.87810 -0.33600
Co	Co	0.29950 0.49750 0.79575 0.87100
C 	C 	0.15160 0.54210 0.73280 5.15500
H 	H 	0.14110 0.55520 0.70130 -1.52500
C 	C 	0.11790 0.53640 0.77320 2.63800
H 	H 	0.08400 0.54720 0.77000 -0.98900
C 	C 	0.18470 0.49700 0.82260 -0.20800
H 	H 	0.19480 0.47940 0.85190 0.15000
C 	C 	0.23500 0.55430 0.65420 0.08300
H 	H 	0.20390 0.57000 0.64660 0.00600
C 	C 	0.27450 0.55280 0.61730 0.11900
H 	H 	0.26880 0.56240 0.58340 0.01800
C 	C 	0.32930 0.51860 0.68380 -0.02300
H 	H 	0.36200 0.50770 0.69300 0.06600
N 	N 	0.21860 0.50450 0.78620 0.43800
N 	N 	0.29010 0.51580 0.72150 -0.32700
O 	O 	0.96210 0.55140 0.97360 -1.96800
Cl	Cl	0.35110 0.45860 0.79030 -0.61100
Cl	Cl	0.30090 0.53760 0.88670 -0.43600
Zr	Zr	0.59241 0.01313 0.01530 3.24600
O 	O 	0.53560 0.05050 0.06830 0.92900
C 	C 	0.68043 0.86473 0.01400 0.07800
C 	C 	0.63648 0.89961 0.00625 0.40300
O 	O 	0.59449 0.87834 0.99359 -0.66500
O 	O 	0.64503 0.94708 0.01265 -0.65700
C 	C 	0.86620 0.67820 0.03650 -0.14500
C 	C 	0.90154 0.63410 0.03280 0.49500
O 	O 	0.87959 0.59023 0.03190 -0.69300
O 	O 	0.94884 0.64334 0.03085 -0.66900
C 	C 	0.75840 0.79670 0.02690 -0.22700
C 	C 	0.79850 0.75730 0.03250 0.09800
C 	C 	0.77190 0.84950 0.01240 -4.98500
H 	H 	0.80490 0.85930 0.00310 1.75200
C 	C 	0.73010 0.88360 0.01410 -2.89100
H 	H 	0.73580 0.91880 0.01520 1.07400
C 	C 	0.67150 0.81050 0.01500 0.13500
H 	H 	0.63900 0.79750 0.00790 -0.05000
C 	C 	0.85260 0.76840 0.03270 -0.20500
H 	H 	0.86430 0.80210 0.03260 0.12000
C 	C 	0.88360 0.73180 0.03290 -0.05300
H 	H 	0.91850 0.73850 0.03070 0.07700
C 	C 	0.81420 0.67140 0.03540 0.05700
H 	H 	0.80110 0.63830 0.03670 -0.00800
N 	N 	0.71040 0.77860 0.02630 -0.63600
N 	N 	0.78250 0.70990 0.03250 0.01600
Co	Co	0.70017 0.69916 0.03187 0.73200
Cl	Cl	0.70510 0.61320 0.98380 -0.06200
Cl	Cl	0.62190 0.70780 0.96980 -0.33800
Co	Co	0.70425 0.70050 0.99750 0.86900
C 	C 	0.76720 0.84840 0.04210 5.08400
H 	H 	0.79870 0.85890 0.05520 -1.50400
C 	C 	0.72680 0.88210 0.03640 2.60200
H 	H 	0.73000 0.91600 0.04720 -0.97500
C 	C 	0.67740 0.81530 0.99700 -0.20000
H 	H 	0.64810 0.80520 0.97940 0.14500
C 	C 	0.84580 0.76500 0.05430 0.07600
H 	H 	0.85340 0.79610 0.07000 0.00800
C 	C 	0.88270 0.72550 0.05280 0.11600
H 	H 	0.91660 0.73120 0.06240 0.01900
C 	C 	0.81620 0.67070 0.01860 -0.01100
H 	H 	0.80700 0.63800 0.00770 0.06100
N 	N 	0.71380 0.78140 0.00450 0.42900
N 	N 	0.77850 0.70990 0.01580 -0.28200
O 	O 	0.52640 0.03790 0.05140 -1.97200
Cl	Cl	0.70970 0.64890 0.95860 -0.61300
Cl	Cl	0.61330 0.69910 0.03760 -0.43500
Zr	Zr	0.40759 0.51313 0.48470 3.24600
O 	O 	0.46440 0.55050 0.43170 0.92600
C 	C 	0.31957 0.36473 0.48600 0.07900
C 	C 	0.36352 0.39961 0.49375 0.40100
O 	O 	0.40551 0.37834 0.50641 -0.66300
O 	O 	0.35497 0.44708 0.48735 -0.65700
C 	C 	0.13380 0.17820 0.46350 -0.14500
C 	C 	0.09846 0.13410 0.46720 0.49500
O 	O 	0.12041 0.09023 0.46810 -0.69400
O 	O 	0.05116 0.14334 0.46915 -0.67000
C 	C 	0.24160 0.29670 0.47310 -0.22700
C 	C 	0.20150 0.25730 0.46750 0.09400
C 	C 	0.22810 0.34950 0.48760 -5.01800
H 	H 	0.19510 0.35930 0.49690 1.76400
C 	C 	0.26990 0.38360 0.48590 -2.91000
H 	H 	0.26420 0.41880 0.48480 1.08100
C 	C 	0.32850 0.31050 0.48500 0.14200
H 	H 	0.36100 0.29750 0.49210 -0.05300
C 	C 	0.14740 0.26840 0.46730 -0.20800
H 	H 	0.13570 0.30210 0.46740 0.12200
C 	C 	0.11640 0.23180 0.46710 -0.05600
H 	H 	0.08150 0.23850 0.46930 0.07800
C 	C 	0.18580 0.17140 0.46460 0.06100
H 	H 	0.19890 0.13830 0.46330 -0.01000
N 	N 	0.28960 0.27860 0.47370 -0.64000
N 	N 	0.21750 0.20990 0.46750 0.04500
Co	Co	0.29983 0.19916 0.46813 0.73100
Cl	Cl	0.29490 0.11320 0.51620 -0.06200
Cl	Cl	0.37810 0.20780 0.53020 -0.33700
Co	Co	0.29575 0.20050 0.50250 0.87100
C 	C 	0.23280 0.34840 0.45790 5.11800
H 	H 	0.20130 0.35890 0.44480 -1.51400
C 	C 	0.27320 0.38210 0.46360 2.62000
H 	H 	0.27000 0.41600 0.45280 -0.98200
C 	C 	0.32260 0.31530 0.50300 -0.20600
H 	H 	0.35190 0.30520 0.52060 0.14900
C 	C 	0.15420 0.26500 0.44570 0.08100
H 	H 	0.14660 0.29610 0.43000 0.00600
C 	C 	0.11730 0.22550 0.44720 0.11800
H 	H 	0.08340 0.23120 0.43760 0.01800
C 	C 	0.18380 0.17070 0.48140 -0.01800
H 	H 	0.19300 0.13800 0.49230 0.06400
N 	N 	0.28620 0.28140 0.49550 0.43400
N 	N 	0.22150 0.20990 0.48420 -0.30900
O 	O 	0.47360 0.53790 0.44860 -1.96800
Cl	Cl	0.29030 0.14890 0.54140 -0.61200
Cl	Cl	0.38670 0.19910 0.46240 -0.43600
Zr	Zr	0.09241 0.48687 0.98470 3.24600
O 	O 	0.03560 0.44950 0.93170 0.92500
C 	C 	0.18043 0.63527 0.98600 0.08200
C 	C 	0.13648 0.60039 0.99375 0.40100
O 	O 	0.09449 0.62166 0.00641 -0.66400
O 	O 	0.14503 0.55292 0.98735 -0.65700
C 	C 	0.36620 0.82180 0.96350 -0.14400
C 	C 	0.40154 0.86590 0.96720 0.49400
O 	O 	0.37959 0.90977 0.96810 -0.69400
O 	O 	0.44884 0.85666 0.96915 -0.66900
C 	C 	0.25840 0.70330 0.97310 -0.22800
C 	C 	0.29850 0.74270 0.96750 0.08900
C 	C 	0.27190 0.65050 0.98760 -5.08500
H 	H 	0.30490 0.64070 0.99690 1.78700
C 	C 	0.23010 0.61640 0.98590 -2.94900
H 	H 	0.23580 0.58120 0.98480 1.09500
C 	C 	0.17150 0.68950 0.98500 0.14100
H 	H 	0.13900 0.70250 0.99210 -0.05300
C 	C 	0.35260 0.73160 0.96730 -0.21200
H 	H 	0.36430 0.69790 0.96740 0.12300
C 	C 	0.38360 0.76820 0.96710 -0.06000
H 	H 	0.41850 0.76150 0.96930 0.08000
C 	C 	0.31420 0.82860 0.96460 0.06900
H 	H 	0.30110 0.86170 0.96330 -0.01300
N 	N 	0.21040 0.72140 0.97370 -0.64600
N 	N 	0.28250 0.79010 0.96750 0.09400
Co	Co	0.20017 0.80084 0.96813 0.73100
Cl	Cl	0.20510 0.88680 0.01620 -0.06300
Cl	Cl	0.12190 0.79220 0.03020 -0.33700
Co	Co	0.20425 0.79950 0.00250 0.87200
C 	C 	0.26720 0.65160 0.95790 5.18600
H 	H 	0.29870 0.64110 0.94480 -1.53500
C 	C 	0.22680 0.61790 0.96360 2.65400
H 	H 	0.23000 0.58400 0.95280 -0.99500
C 	C 	0.17740 0.68470 0.00300 -0.20700
H 	H 	0.14810 0.69480 0.02060 0.14900
C 	C 	0.34580 0.73500 0.94570 0.08700
H 	H 	0.35340 0.70390 0.93000 0.00400
C 	C 	0.38270 0.77450 0.94720 0.12100
H 	H 	0.41660 0.76880 0.93760 0.01700
C 	C 	0.31620 0.82930 0.98140 -0.03200
H 	H 	0.30700 0.86200 0.99230 0.07000
N 	N 	0.21380 0.71860 0.99550 0.44100
N 	N 	0.27850 0.79010 0.98420 -0.35600
O 	O 	0.02640 0.46210 0.94860 -1.96600
Cl	Cl	0.20970 0.85110 0.04140 -0.61000
Cl	Cl	0.11330 0.80090 0.96240 -0.43500
Zr	Zr	0.90759 0.98687 0.51530 3.24600
O 	O 	0.96440 0.94950 0.56830 0.92500
C 	C 	0.81957 0.13527 0.51400 0.08100
C 	C 	0.86352 0.10039 0.50625 0.40000
O 	O 	0.90551 0.12166 0.49359 -0.66300
O 	O 	0.85497 0.05292 0.51265 -0.65600
C 	C 	0.63380 0.32180 0.53650 -0.14400
C 	C 	0.59846 0.36590 0.53280 0.49400
O 	O 	0.62041 0.40977 0.53190 -0.69300
O 	O 	0.55116 0.35666 0.53085 -0.66900
C 	C 	0.74160 0.20330 0.52690 -0.22800
C 	C 	0.70150 0.24270 0.53250 0.09200
C 	C 	0.72810 0.15050 0.51240 -5.05400
H 	H 	0.69510 0.14070 0.50310 1.77600
C 	C 	0.76990 0.11640 0.51410 -2.93100
H 	H 	0.76420 0.08120 0.51520 1.08900
C 	C 	0.82850 0.18950 0.51500 0.14200
H 	H 	0.86100 0.20250 0.50790 -0.05400
C 	C 	0.64740 0.23160 0.53270 -0.20900
H 	H 	0.63570 0.19790 0.53260 0.12200
C 	C 	0.61640 0.26820 0.53290 -0.05700
H 	H 	0.58150 0.26150 0.53070 0.07900
C 	C 	0.68580 0.32860 0.53540 0.06400
H 	H 	0.69890 0.36170 0.53670 -0.01100
N 	N 	0.78960 0.22140 0.52630 -0.64400
N 	N 	0.71750 0.29010 0.53250 0.06400
Co	Co	0.79983 0.30084 0.53187 0.73100
Cl	Cl	0.79490 0.38680 0.48380 -0.06200
Cl	Cl	0.87810 0.29220 0.46980 -0.33600
Co	Co	0.79575 0.29950 0.49750 0.87100
C 	C 	0.73280 0.15160 0.54210 5.15500
H 	H 	0.70130 0.14110 0.55520 -1.52500
C 	C 	0.77320 0.11790 0.53640 2.63800
H 	H 	0.77000 0.08400 0.54720 -0.98900
C 	C 	0.82260 0.18470 0.49700 -0.20800
H 	H 	0.85190 0.19480 0.47940 0.15000
C 	C 	0.65420 0.23500 0.55430 0.08300
H 	H 	0.64660 0.20390 0.57000 0.00600
C 	C 	0.61730 0.27450 0.55280 0.11900
H 	H 	0.58340 0.26880 0.56240 0.01800
C 	C 	0.68380 0.32930 0.51860 -0.02300
H 	H 	0.69300 0.36200 0.50770 0.06600
N 	N 	0.78620 0.21860 0.50450 0.43800
N 	N 	0.72150 0.29010 0.51580 -0.32700
O 	O 	0.97360 0.96210 0.55140 -1.96800
Cl	Cl	0.79030 0.35110 0.45860 -0.61100
Cl	Cl	0.88670 0.30090 0.53760 -0.43600
O 	O 	0.94740 0.44740 0.05260 0.14900
O 	O 	0.96110 0.46110 0.03890 -1.19400
O 	O 	0.55260 0.55260 0.55260 0.15000
O 	O 	0.53890 0.53890 0.53890 -1.19700
O 	O 	0.05260 0.94740 0.44740 0.14900
O 	O 	0.03890 0.96110 0.46110 -1.19400
O 	O 	0.44740 0.05260 0.94740 0.14900
O 	O 	0.46110 0.03890 0.96110 -1.19400
O 	O 	0.05260 0.55260 0.94740 0.14900
O 	O 	0.03890 0.53890 0.96110 -1.19400
O 	O 	0.44740 0.44740 0.44740 0.15000
O 	O 	0.46110 0.46110 0.46110 -1.19700
O 	O 	0.94740 0.05260 0.55260 0.14900
O 	O 	0.96110 0.03890 0.53890 -1.19400
O 	O 	0.55260 0.94740 0.05260 0.14900
O 	O 	0.53890 0.96110 0.03890 -1.19400
