data_crystal

_cell_length_a 26.25500
_cell_length_b 26.25500
_cell_length_c 26.25500
_cell_angle_alpha 90.00000
_cell_angle_beta  90.00000
_cell_angle_gamma 90.00000

_symmetry_space_group_name_	'P 1'
_symmetry_space_group_name_H-M	'P 1'

loop_
_symmetry_equiv_pos_as_xyz
  x,y,z

loop_
_atom_site_label
_atom_site_type_symbol
_atom_site_fract_x
_atom_site_fract_y
_atom_site_fract_z
_atom_site_charge
Zr	Zr	0.51192 0.51385 0.09265 3.23900
O 	O 	0.55110 0.56770 0.03760 0.61000
O 	O 	0.58880 0.52930 0.12109 -0.68600
O 	O 	0.64260 0.52820 0.05353 -0.66800
O 	O 	0.87680 0.49460 0.40761 -0.67000
O 	O 	0.94481 0.51060 0.35570 -0.67000
C 	C 	0.75540 0.53660 0.20450 0.07000
C 	C 	0.76430 0.54830 0.15550 -0.13500
H 	H 	0.79700 0.55760 0.14550 0.11700
C 	C 	0.72550 0.54660 0.11930 0.10200
H 	H 	0.73240 0.55130 0.08480 0.04300
C 	C 	0.67640 0.53780 0.13640 -0.17900
C 	C 	0.66810 0.53160 0.18870 0.11000
H 	H 	0.63480 0.52950 0.20070 0.01400
C 	C 	0.79430 0.53240 0.24530 0.08800
C 	C 	0.84570 0.53820 0.23520 -0.14700
H 	H 	0.85680 0.54680 0.20270 0.12400
C 	C 	0.88000 0.53100 0.27380 0.11000
H 	H 	0.91460 0.53620 0.26840 0.03800
C 	C 	0.86210 0.51570 0.32160 -0.17500
C 	C 	0.81000 0.50990 0.32900 0.11600
H 	H 	0.79720 0.49980 0.36050 0.00800
C 	C 	0.63320 0.53120 0.10020 0.50300
C 	C 	0.89780 0.50630 0.36520 0.49000
N 	N 	0.70710 0.52850 0.22220 -0.23800
N 	N 	0.77860 0.51910 0.29030 -0.23700
Fe	Fe	0.69656 0.51619 0.30068 1.16700
Br	Br	0.66010 0.43420 0.30270 -0.31400
Br	Br	0.68430 0.59360 0.34610 -0.30400
O 	O 	0.53840 0.55010 0.02810 -1.67200
Br	Br	0.60610 0.49080 0.29840 -0.25800
Br	Br	0.69370 0.53440 0.39410 -0.25200
Zr	Zr	0.98808 0.48615 0.59265 3.24000
O 	O 	0.94890 0.43230 0.53760 0.61100
O 	O 	0.91120 0.47070 0.62109 -0.68500
O 	O 	0.85740 0.47180 0.55353 -0.66700
O 	O 	0.62320 0.50540 0.90761 -0.66900
O 	O 	0.55519 0.48940 0.85570 -0.66900
C 	C 	0.74460 0.46340 0.70450 0.07100
C 	C 	0.73570 0.45170 0.65550 -0.13400
H 	H 	0.70300 0.44240 0.64550 0.11700
C 	C 	0.77450 0.45340 0.61930 0.10300
H 	H 	0.76760 0.44870 0.58480 0.04400
C 	C 	0.82360 0.46220 0.63640 -0.17800
C 	C 	0.83190 0.46840 0.68870 0.11000
H 	H 	0.86520 0.47050 0.70070 0.01400
C 	C 	0.70570 0.46760 0.74530 0.08800
C 	C 	0.65430 0.46180 0.73520 -0.14700
H 	H 	0.64320 0.45320 0.70270 0.12400
C 	C 	0.62000 0.46900 0.77380 0.11000
H 	H 	0.58540 0.46380 0.76840 0.03800
C 	C 	0.63790 0.48430 0.82160 -0.17500
C 	C 	0.69000 0.49010 0.82900 0.11600
H 	H 	0.70280 0.50020 0.86050 0.00800
C 	C 	0.86680 0.46880 0.60020 0.50300
C 	C 	0.60220 0.49370 0.86520 0.49000
N 	N 	0.79290 0.47150 0.72220 -0.23800
N 	N 	0.72140 0.48090 0.79030 -0.23700
Fe	Fe	0.80344 0.48381 0.80068 1.16700
Br	Br	0.83990 0.56580 0.80270 -0.31400
Br	Br	0.81570 0.40640 0.84610 -0.30300
O 	O 	0.96160 0.44990 0.52810 -1.67200
Br	Br	0.89390 0.50920 0.79840 -0.25700
Br	Br	0.80630 0.46560 0.89410 -0.25200
Zr	Zr	0.48808 0.01385 0.40735 3.24000
O 	O 	0.44890 0.06770 0.46240 0.61100
O 	O 	0.41120 0.02930 0.37891 -0.68500
O 	O 	0.35740 0.02820 0.44647 -0.66700
O 	O 	0.12320 0.99460 0.09239 -0.67000
O 	O 	0.05519 0.01060 0.14430 -0.66900
C 	C 	0.24460 0.03660 0.29550 0.07100
C 	C 	0.23570 0.04830 0.34450 -0.13400
H 	H 	0.20300 0.05760 0.35450 0.11800
C 	C 	0.27450 0.04660 0.38070 0.10300
H 	H 	0.26760 0.05130 0.41520 0.04500
C 	C 	0.32360 0.03780 0.36360 -0.17700
C 	C 	0.33190 0.03160 0.31130 0.11000
H 	H 	0.36520 0.02950 0.29930 0.01500
C 	C 	0.20570 0.03240 0.25470 0.08800
C 	C 	0.15430 0.03820 0.26480 -0.14800
H 	H 	0.14320 0.04680 0.29730 0.12400
C 	C 	0.12000 0.03100 0.22620 0.11100
H 	H 	0.08540 0.03620 0.23160 0.03800
C 	C 	0.13790 0.01570 0.17840 -0.17600
C 	C 	0.19000 0.00990 0.17100 0.11900
H 	H 	0.20280 0.99980 0.13950 0.00600
C 	C 	0.36680 0.03120 0.39980 0.50300
C 	C 	0.10220 0.00630 0.13480 0.49200
N 	N 	0.29290 0.02850 0.27780 -0.23800
N 	N 	0.22140 0.01910 0.20970 -0.23700
Fe	Fe	0.30344 0.01619 0.19932 1.16700
Br	Br	0.33990 0.93420 0.19730 -0.31400
Br	Br	0.31570 0.09360 0.15390 -0.30300
O 	O 	0.46160 0.05010 0.47190 -1.67200
Br	Br	0.39390 0.99080 0.20160 -0.25700
Br	Br	0.30630 0.03440 0.10590 -0.25100
Zr	Zr	0.01192 0.98615 0.90735 3.24000
O 	O 	0.05110 0.93230 0.96240 0.61100
O 	O 	0.08880 0.97070 0.87891 -0.68500
O 	O 	0.14260 0.97180 0.94647 -0.66700
O 	O 	0.37680 0.00540 0.59239 -0.66900
O 	O 	0.44481 0.98940 0.64430 -0.66900
C 	C 	0.25540 0.96340 0.79550 0.07100
C 	C 	0.26430 0.95170 0.84450 -0.13400
H 	H 	0.29700 0.94240 0.85450 0.11800
C 	C 	0.22550 0.95340 0.88070 0.10300
H 	H 	0.23240 0.94870 0.91520 0.04500
C 	C 	0.17640 0.96220 0.86360 -0.17700
C 	C 	0.16810 0.96840 0.81130 0.11000
H 	H 	0.13480 0.97050 0.79930 0.01400
C 	C 	0.29430 0.96760 0.75470 0.08800
C 	C 	0.34570 0.96180 0.76480 -0.14700
H 	H 	0.35680 0.95320 0.79730 0.12400
C 	C 	0.38000 0.96900 0.72620 0.11000
H 	H 	0.41460 0.96380 0.73160 0.03800
C 	C 	0.36210 0.98430 0.67840 -0.17500
C 	C 	0.31000 0.99010 0.67100 0.11600
H 	H 	0.29720 0.00020 0.63950 0.00800
C 	C 	0.13320 0.96880 0.89980 0.50300
C 	C 	0.39780 0.99370 0.63480 0.49000
N 	N 	0.20710 0.97150 0.77780 -0.23800
N 	N 	0.27860 0.98090 0.70970 -0.23700
Fe	Fe	0.19656 0.98381 0.69932 1.16700
Br	Br	0.16010 0.06580 0.69730 -0.31400
Br	Br	0.18430 0.90640 0.65390 -0.30400
O 	O 	0.03840 0.94990 0.97190 -1.67200
Br	Br	0.10610 0.00920 0.70160 -0.25600
Br	Br	0.19370 0.96560 0.60590 -0.25200
Zr	Zr	0.09265 0.51192 0.51385 3.24000
O 	O 	0.03760 0.55110 0.56770 0.61100
O 	O 	0.12109 0.58880 0.52930 -0.68500
O 	O 	0.05353 0.64260 0.52820 -0.66700
O 	O 	0.40761 0.87680 0.49460 -0.66900
O 	O 	0.35570 0.94481 0.51060 -0.66900
C 	C 	0.20450 0.75540 0.53660 0.07100
C 	C 	0.15550 0.76430 0.54830 -0.13400
H 	H 	0.14550 0.79700 0.55760 0.11800
C 	C 	0.11930 0.72550 0.54660 0.10300
H 	H 	0.08480 0.73240 0.55130 0.04400
C 	C 	0.13640 0.67640 0.53780 -0.17800
C 	C 	0.18870 0.66810 0.53160 0.11000
H 	H 	0.20070 0.63480 0.52950 0.01400
C 	C 	0.24530 0.79430 0.53240 0.08800
C 	C 	0.23520 0.84570 0.53820 -0.14700
H 	H 	0.20270 0.85680 0.54680 0.12400
C 	C 	0.27380 0.88000 0.53100 0.11000
H 	H 	0.26840 0.91460 0.53620 0.03800
C 	C 	0.32160 0.86210 0.51570 -0.17500
C 	C 	0.32900 0.81000 0.50990 0.11600
H 	H 	0.36050 0.79720 0.49980 0.00800
C 	C 	0.10020 0.63320 0.53120 0.50300
C 	C 	0.36520 0.89780 0.50630 0.49000
N 	N 	0.22220 0.70710 0.52850 -0.23800
N 	N 	0.29030 0.77860 0.51910 -0.23700
Fe	Fe	0.30068 0.69656 0.51619 1.16700
Br	Br	0.30270 0.66010 0.43420 -0.31400
Br	Br	0.34610 0.68430 0.59360 -0.30400
O 	O 	0.02810 0.53840 0.55010 -1.67200
Br	Br	0.29840 0.60610 0.49080 -0.25800
Br	Br	0.39410 0.69370 0.53440 -0.25200
Zr	Zr	0.59265 0.98808 0.48615 3.24000
O 	O 	0.53760 0.94890 0.43230 0.61100
O 	O 	0.62109 0.91120 0.47070 -0.68500
O 	O 	0.55353 0.85740 0.47180 -0.66700
O 	O 	0.90761 0.62320 0.50540 -0.66900
O 	O 	0.85570 0.55519 0.48940 -0.66900
C 	C 	0.70450 0.74460 0.46340 0.07100
C 	C 	0.65550 0.73570 0.45170 -0.13400
H 	H 	0.64550 0.70300 0.44240 0.11700
C 	C 	0.61930 0.77450 0.45340 0.10300
H 	H 	0.58480 0.76760 0.44870 0.04400
C 	C 	0.63640 0.82360 0.46220 -0.17800
C 	C 	0.68870 0.83190 0.46840 0.11000
H 	H 	0.70070 0.86520 0.47050 0.01400
C 	C 	0.74530 0.70570 0.46760 0.08800
C 	C 	0.73520 0.65430 0.46180 -0.14700
H 	H 	0.70270 0.64320 0.45320 0.12400
C 	C 	0.77380 0.62000 0.46900 0.11000
H 	H 	0.76840 0.58540 0.46380 0.03800
C 	C 	0.82160 0.63790 0.48430 -0.17500
C 	C 	0.82900 0.69000 0.49010 0.11600
H 	H 	0.86050 0.70280 0.50020 0.00800
C 	C 	0.60020 0.86680 0.46880 0.50300
C 	C 	0.86520 0.60220 0.49370 0.49000
N 	N 	0.72220 0.79290 0.47150 -0.23800
N 	N 	0.79030 0.72140 0.48090 -0.23700
Fe	Fe	0.80068 0.80344 0.48381 1.16700
Br	Br	0.80270 0.83990 0.56580 -0.31400
Br	Br	0.84610 0.81570 0.40640 -0.30300
O 	O 	0.52810 0.96160 0.44990 -1.67200
Br	Br	0.79840 0.89390 0.50920 -0.25700
Br	Br	0.89410 0.80630 0.46560 -0.25200
Zr	Zr	0.40735 0.48808 0.01385 3.24000
O 	O 	0.46240 0.44890 0.06770 0.61100
O 	O 	0.37891 0.41120 0.02930 -0.68500
O 	O 	0.44647 0.35740 0.02820 -0.66700
O 	O 	0.09239 0.12320 0.99460 -0.67000
O 	O 	0.14430 0.05519 0.01060 -0.66900
C 	C 	0.29550 0.24460 0.03660 0.07100
C 	C 	0.34450 0.23570 0.04830 -0.13400
H 	H 	0.35450 0.20300 0.05760 0.11800
C 	C 	0.38070 0.27450 0.04660 0.10300
H 	H 	0.41520 0.26760 0.05130 0.04500
C 	C 	0.36360 0.32360 0.03780 -0.17700
C 	C 	0.31130 0.33190 0.03160 0.11000
H 	H 	0.29930 0.36520 0.02950 0.01500
C 	C 	0.25470 0.20570 0.03240 0.08800
C 	C 	0.26480 0.15430 0.03820 -0.14800
H 	H 	0.29730 0.14320 0.04680 0.12400
C 	C 	0.22620 0.12000 0.03100 0.11100
H 	H 	0.23160 0.08540 0.03620 0.03800
C 	C 	0.17840 0.13790 0.01570 -0.17600
C 	C 	0.17100 0.19000 0.00990 0.11900
H 	H 	0.13950 0.20280 0.99980 0.00600
C 	C 	0.39980 0.36680 0.03120 0.50300
C 	C 	0.13480 0.10220 0.00630 0.49200
N 	N 	0.27780 0.29290 0.02850 -0.23800
N 	N 	0.20970 0.22140 0.01910 -0.23700
Fe	Fe	0.19932 0.30344 0.01619 1.16700
Br	Br	0.19730 0.33990 0.93420 -0.31400
Br	Br	0.15390 0.31570 0.09360 -0.30300
O 	O 	0.47190 0.46160 0.05010 -1.67200
Br	Br	0.20160 0.39390 0.99080 -0.25700
Br	Br	0.10590 0.30630 0.03440 -0.25100
Zr	Zr	0.90735 0.01192 0.98615 3.24000
O 	O 	0.96240 0.05110 0.93230 0.61100
O 	O 	0.87891 0.08880 0.97070 -0.68500
O 	O 	0.94647 0.14260 0.97180 -0.66700
O 	O 	0.59239 0.37680 0.00540 -0.66900
O 	O 	0.64430 0.44481 0.98940 -0.66900
C 	C 	0.79550 0.25540 0.96340 0.07100
C 	C 	0.84450 0.26430 0.95170 -0.13400
H 	H 	0.85450 0.29700 0.94240 0.11800
C 	C 	0.88070 0.22550 0.95340 0.10300
H 	H 	0.91520 0.23240 0.94870 0.04500
C 	C 	0.86360 0.17640 0.96220 -0.17700
C 	C 	0.81130 0.16810 0.96840 0.11000
H 	H 	0.79930 0.13480 0.97050 0.01400
C 	C 	0.75470 0.29430 0.96760 0.08800
C 	C 	0.76480 0.34570 0.96180 -0.14700
H 	H 	0.79730 0.35680 0.95320 0.12400
C 	C 	0.72620 0.38000 0.96900 0.11000
H 	H 	0.73160 0.41460 0.96380 0.03800
C 	C 	0.67840 0.36210 0.98430 -0.17500
C 	C 	0.67100 0.31000 0.99010 0.11600
H 	H 	0.63950 0.29720 0.00020 0.00800
C 	C 	0.89980 0.13320 0.96880 0.50300
C 	C 	0.63480 0.39780 0.99370 0.49000
N 	N 	0.77780 0.20710 0.97150 -0.23800
N 	N 	0.70970 0.27860 0.98090 -0.23700
Fe	Fe	0.69932 0.19656 0.98381 1.16700
Br	Br	0.69730 0.16010 0.06580 -0.31400
Br	Br	0.65390 0.18430 0.90640 -0.30400
O 	O 	0.97190 0.03840 0.94990 -1.67200
Br	Br	0.70160 0.10610 0.00920 -0.25600
Br	Br	0.60590 0.19370 0.96560 -0.25200
Zr	Zr	0.51385 0.09265 0.51192 3.24000
O 	O 	0.56770 0.03760 0.55110 0.61100
O 	O 	0.52930 0.12109 0.58880 -0.68500
O 	O 	0.52820 0.05353 0.64260 -0.66700
O 	O 	0.49460 0.40761 0.87680 -0.66900
O 	O 	0.51060 0.35570 0.94481 -0.66900
C 	C 	0.53660 0.20450 0.75540 0.07100
C 	C 	0.54830 0.15550 0.76430 -0.13400
H 	H 	0.55760 0.14550 0.79700 0.11800
C 	C 	0.54660 0.11930 0.72550 0.10300
H 	H 	0.55130 0.08480 0.73240 0.04400
C 	C 	0.53780 0.13640 0.67640 -0.17800
C 	C 	0.53160 0.18870 0.66810 0.11000
H 	H 	0.52950 0.20070 0.63480 0.01400
C 	C 	0.53240 0.24530 0.79430 0.08800
C 	C 	0.53820 0.23520 0.84570 -0.14700
H 	H 	0.54680 0.20270 0.85680 0.12400
C 	C 	0.53100 0.27380 0.88000 0.11000
H 	H 	0.53620 0.26840 0.91460 0.03800
C 	C 	0.51570 0.32160 0.86210 -0.17500
C 	C 	0.50990 0.32900 0.81000 0.11600
H 	H 	0.49980 0.36050 0.79720 0.00800
C 	C 	0.53120 0.10020 0.63320 0.50300
C 	C 	0.50630 0.36520 0.89780 0.49000
N 	N 	0.52850 0.22220 0.70710 -0.23800
N 	N 	0.51910 0.29030 0.77860 -0.23700
Fe	Fe	0.51619 0.30068 0.69656 1.16700
Br	Br	0.43420 0.30270 0.66010 -0.31400
Br	Br	0.59360 0.34610 0.68430 -0.30400
O 	O 	0.55010 0.02810 0.53840 -1.67200
Br	Br	0.49080 0.29840 0.60610 -0.25800
Br	Br	0.53440 0.39410 0.69370 -0.25200
Zr	Zr	0.48615 0.59265 0.98808 3.24000
O 	O 	0.43230 0.53760 0.94890 0.61100
O 	O 	0.47070 0.62109 0.91120 -0.68500
O 	O 	0.47180 0.55353 0.85740 -0.66700
O 	O 	0.50540 0.90761 0.62320 -0.66900
O 	O 	0.48940 0.85570 0.55519 -0.66900
C 	C 	0.46340 0.70450 0.74460 0.07100
C 	C 	0.45170 0.65550 0.73570 -0.13400
H 	H 	0.44240 0.64550 0.70300 0.11700
C 	C 	0.45340 0.61930 0.77450 0.10300
H 	H 	0.44870 0.58480 0.76760 0.04400
C 	C 	0.46220 0.63640 0.82360 -0.17800
C 	C 	0.46840 0.68870 0.83190 0.11000
H 	H 	0.47050 0.70070 0.86520 0.01400
C 	C 	0.46760 0.74530 0.70570 0.08800
C 	C 	0.46180 0.73520 0.65430 -0.14700
H 	H 	0.45320 0.70270 0.64320 0.12400
C 	C 	0.46900 0.77380 0.62000 0.11000
H 	H 	0.46380 0.76840 0.58540 0.03800
C 	C 	0.48430 0.82160 0.63790 -0.17500
C 	C 	0.49010 0.82900 0.69000 0.11600
H 	H 	0.50020 0.86050 0.70280 0.00800
C 	C 	0.46880 0.60020 0.86680 0.50300
C 	C 	0.49370 0.86520 0.60220 0.49000
N 	N 	0.47150 0.72220 0.79290 -0.23800
N 	N 	0.48090 0.79030 0.72140 -0.23700
Fe	Fe	0.48381 0.80068 0.80344 1.16700
Br	Br	0.56580 0.80270 0.83990 -0.31400
Br	Br	0.40640 0.84610 0.81570 -0.30300
O 	O 	0.44990 0.52810 0.96160 -1.67200
Br	Br	0.50920 0.79840 0.89390 -0.25700
Br	Br	0.46560 0.89410 0.80630 -0.25200
Zr	Zr	0.01385 0.40735 0.48808 3.24000
O 	O 	0.06770 0.46240 0.44890 0.61100
O 	O 	0.02930 0.37891 0.41120 -0.68500
O 	O 	0.02820 0.44647 0.35740 -0.66700
O 	O 	0.99460 0.09239 0.12320 -0.67000
O 	O 	0.01060 0.14430 0.05519 -0.66900
C 	C 	0.03660 0.29550 0.24460 0.07100
C 	C 	0.04830 0.34450 0.23570 -0.13400
H 	H 	0.05760 0.35450 0.20300 0.11800
C 	C 	0.04660 0.38070 0.27450 0.10300
H 	H 	0.05130 0.41520 0.26760 0.04500
C 	C 	0.03780 0.36360 0.32360 -0.17700
C 	C 	0.03160 0.31130 0.33190 0.11000
H 	H 	0.02950 0.29930 0.36520 0.01500
C 	C 	0.03240 0.25470 0.20570 0.08800
C 	C 	0.03820 0.26480 0.15430 -0.14800
H 	H 	0.04680 0.29730 0.14320 0.12400
C 	C 	0.03100 0.22620 0.12000 0.11100
H 	H 	0.03620 0.23160 0.08540 0.03800
C 	C 	0.01570 0.17840 0.13790 -0.17600
C 	C 	0.00990 0.17100 0.19000 0.11900
H 	H 	0.99980 0.13950 0.20280 0.00600
C 	C 	0.03120 0.39980 0.36680 0.50300
C 	C 	0.00630 0.13480 0.10220 0.49200
N 	N 	0.02850 0.27780 0.29290 -0.23800
N 	N 	0.01910 0.20970 0.22140 -0.23700
Fe	Fe	0.01619 0.19932 0.30344 1.16700
Br	Br	0.93420 0.19730 0.33990 -0.31400
Br	Br	0.09360 0.15390 0.31570 -0.30300
O 	O 	0.05010 0.47190 0.46160 -1.67200
Br	Br	0.99080 0.20160 0.39390 -0.25700
Br	Br	0.03440 0.10590 0.30630 -0.25100
Zr	Zr	0.98615 0.90735 0.01192 3.24000
O 	O 	0.93230 0.96240 0.05110 0.61100
O 	O 	0.97070 0.87891 0.08880 -0.68500
O 	O 	0.97180 0.94647 0.14260 -0.66700
O 	O 	0.00540 0.59239 0.37680 -0.66900
O 	O 	0.98940 0.64430 0.44481 -0.66900
C 	C 	0.96340 0.79550 0.25540 0.07100
C 	C 	0.95170 0.84450 0.26430 -0.13400
H 	H 	0.94240 0.85450 0.29700 0.11800
C 	C 	0.95340 0.88070 0.22550 0.10300
H 	H 	0.94870 0.91520 0.23240 0.04500
C 	C 	0.96220 0.86360 0.17640 -0.17700
C 	C 	0.96840 0.81130 0.16810 0.11000
H 	H 	0.97050 0.79930 0.13480 0.01400
C 	C 	0.96760 0.75470 0.29430 0.08800
C 	C 	0.96180 0.76480 0.34570 -0.14700
H 	H 	0.95320 0.79730 0.35680 0.12400
C 	C 	0.96900 0.72620 0.38000 0.11000
H 	H 	0.96380 0.73160 0.41460 0.03800
C 	C 	0.98430 0.67840 0.36210 -0.17500
C 	C 	0.99010 0.67100 0.31000 0.11600
H 	H 	0.00020 0.63950 0.29720 0.00800
C 	C 	0.96880 0.89980 0.13320 0.50300
C 	C 	0.99370 0.63480 0.39780 0.49000
N 	N 	0.97150 0.77780 0.20710 -0.23800
N 	N 	0.98090 0.70970 0.27860 -0.23700
Fe	Fe	0.98381 0.69932 0.19656 1.16700
Br	Br	0.06580 0.69730 0.16010 -0.31400
Br	Br	0.90640 0.65390 0.18430 -0.30400
O 	O 	0.94990 0.97190 0.03840 -1.67200
Br	Br	0.00920 0.70160 0.10610 -0.25600
Br	Br	0.96560 0.60590 0.19370 -0.25200
Zr	Zr	0.48808 0.48615 0.90735 3.24000
O 	O 	0.44890 0.43230 0.96240 0.61100
O 	O 	0.41120 0.47070 0.87891 -0.68500
O 	O 	0.35740 0.47180 0.94647 -0.66700
O 	O 	0.12320 0.50540 0.59239 -0.66900
O 	O 	0.05519 0.48940 0.64430 -0.66900
C 	C 	0.24460 0.46340 0.79550 0.07100
C 	C 	0.23570 0.45170 0.84450 -0.13400
H 	H 	0.20300 0.44240 0.85450 0.11800
C 	C 	0.27450 0.45340 0.88070 0.10300
H 	H 	0.26760 0.44870 0.91520 0.04400
C 	C 	0.32360 0.46220 0.86360 -0.17800
C 	C 	0.33190 0.46840 0.81130 0.11000
H 	H 	0.36520 0.47050 0.79930 0.01400
C 	C 	0.20570 0.46760 0.75470 0.08800
C 	C 	0.15430 0.46180 0.76480 -0.14700
H 	H 	0.14320 0.45320 0.79730 0.12400
C 	C 	0.12000 0.46900 0.72620 0.11000
H 	H 	0.08540 0.46380 0.73160 0.03800
C 	C 	0.13790 0.48430 0.67840 -0.17500
C 	C 	0.19000 0.49010 0.67100 0.11600
H 	H 	0.20280 0.50020 0.63950 0.00800
C 	C 	0.36680 0.46880 0.89980 0.50300
C 	C 	0.10220 0.49370 0.63480 0.49000
N 	N 	0.29290 0.47150 0.77780 -0.23800
N 	N 	0.22140 0.48090 0.70970 -0.23700
Fe	Fe	0.30344 0.48381 0.69932 1.16700
Br	Br	0.33990 0.56580 0.69730 -0.31400
Br	Br	0.31570 0.40640 0.65390 -0.30400
O 	O 	0.46160 0.44990 0.97190 -1.67200
Br	Br	0.39390 0.50920 0.70160 -0.25800
Br	Br	0.30630 0.46560 0.60590 -0.25200
Zr	Zr	0.01192 0.51385 0.40735 3.24000
O 	O 	0.05110 0.56770 0.46240 0.61100
O 	O 	0.08880 0.52930 0.37891 -0.68500
O 	O 	0.14260 0.52820 0.44647 -0.66700
O 	O 	0.37680 0.49460 0.09239 -0.66900
O 	O 	0.44481 0.51060 0.14430 -0.66900
C 	C 	0.25540 0.53660 0.29550 0.07100
C 	C 	0.26430 0.54830 0.34450 -0.13400
H 	H 	0.29700 0.55760 0.35450 0.11700
C 	C 	0.22550 0.54660 0.38070 0.10300
H 	H 	0.23240 0.55130 0.41520 0.04400
C 	C 	0.17640 0.53780 0.36360 -0.17800
C 	C 	0.16810 0.53160 0.31130 0.11000
H 	H 	0.13480 0.52950 0.29930 0.01400
C 	C 	0.29430 0.53240 0.25470 0.08800
C 	C 	0.34570 0.53820 0.26480 -0.14700
H 	H 	0.35680 0.54680 0.29730 0.12400
C 	C 	0.38000 0.53100 0.22620 0.11000
H 	H 	0.41460 0.53620 0.23160 0.03800
C 	C 	0.36210 0.51570 0.17840 -0.17500
C 	C 	0.31000 0.50990 0.17100 0.11600
H 	H 	0.29720 0.49980 0.13950 0.00800
C 	C 	0.13320 0.53120 0.39980 0.50300
C 	C 	0.39780 0.50630 0.13480 0.49000
N 	N 	0.20710 0.52850 0.27780 -0.23800
N 	N 	0.27860 0.51910 0.20970 -0.23700
Fe	Fe	0.19656 0.51619 0.19932 1.16700
Br	Br	0.16010 0.43420 0.19730 -0.31400
Br	Br	0.18430 0.59360 0.15390 -0.30300
O 	O 	0.03840 0.55010 0.47190 -1.67200
Br	Br	0.10610 0.49080 0.20160 -0.25700
Br	Br	0.19370 0.53440 0.10590 -0.25200
Zr	Zr	0.51192 0.98615 0.59265 3.24000
O 	O 	0.55110 0.93230 0.53760 0.61100
O 	O 	0.58880 0.97070 0.62109 -0.68500
O 	O 	0.64260 0.97180 0.55353 -0.66700
O 	O 	0.87680 0.00540 0.90761 -0.67000
O 	O 	0.94481 0.98940 0.85570 -0.66900
C 	C 	0.75540 0.96340 0.70450 0.07100
C 	C 	0.76430 0.95170 0.65550 -0.13400
H 	H 	0.79700 0.94240 0.64550 0.11800
C 	C 	0.72550 0.95340 0.61930 0.10300
H 	H 	0.73240 0.94870 0.58480 0.04500
C 	C 	0.67640 0.96220 0.63640 -0.17700
C 	C 	0.66810 0.96840 0.68870 0.11000
H 	H 	0.63480 0.97050 0.70070 0.01500
C 	C 	0.79430 0.96760 0.74530 0.08800
C 	C 	0.84570 0.96180 0.73520 -0.14800
H 	H 	0.85680 0.95320 0.70270 0.12400
C 	C 	0.88000 0.96900 0.77380 0.11100
H 	H 	0.91460 0.96380 0.76840 0.03800
C 	C 	0.86210 0.98430 0.82160 -0.17600
C 	C 	0.81000 0.99010 0.82900 0.11900
H 	H 	0.79720 0.00020 0.86050 0.00600
C 	C 	0.63320 0.96880 0.60020 0.50300
C 	C 	0.89780 0.99370 0.86520 0.49200
N 	N 	0.70710 0.97150 0.72220 -0.23800
N 	N 	0.77860 0.98090 0.79030 -0.23700
Fe	Fe	0.69656 0.98381 0.80068 1.16700
Br	Br	0.66010 0.06580 0.80270 -0.31400
Br	Br	0.68430 0.90640 0.84610 -0.30300
O 	O 	0.53840 0.94990 0.52810 -1.67200
Br	Br	0.60610 0.00920 0.79840 -0.25700
Br	Br	0.69370 0.96560 0.89410 -0.25100
Zr	Zr	0.98808 0.01385 0.09265 3.24000
O 	O 	0.94890 0.06770 0.03760 0.61100
O 	O 	0.91120 0.02930 0.12109 -0.68500
O 	O 	0.85740 0.02820 0.05353 -0.66700
O 	O 	0.62320 0.99460 0.40761 -0.66900
O 	O 	0.55519 0.01060 0.35570 -0.66900
C 	C 	0.74460 0.03660 0.20450 0.07100
C 	C 	0.73570 0.04830 0.15550 -0.13400
H 	H 	0.70300 0.05760 0.14550 0.11800
C 	C 	0.77450 0.04660 0.11930 0.10300
H 	H 	0.76760 0.05130 0.08480 0.04500
C 	C 	0.82360 0.03780 0.13640 -0.17700
C 	C 	0.83190 0.03160 0.18870 0.11000
H 	H 	0.86520 0.02950 0.20070 0.01400
C 	C 	0.70570 0.03240 0.24530 0.08800
C 	C 	0.65430 0.03820 0.23520 -0.14700
H 	H 	0.64320 0.04680 0.20270 0.12400
C 	C 	0.62000 0.03100 0.27380 0.11000
H 	H 	0.58540 0.03620 0.26840 0.03800
C 	C 	0.63790 0.01570 0.32160 -0.17500
C 	C 	0.69000 0.00990 0.32900 0.11600
H 	H 	0.70280 0.99980 0.36050 0.00800
C 	C 	0.86680 0.03120 0.10020 0.50300
C 	C 	0.60220 0.00630 0.36520 0.49000
N 	N 	0.79290 0.02850 0.22220 -0.23800
N 	N 	0.72140 0.01910 0.29030 -0.23700
Fe	Fe	0.80344 0.01619 0.30068 1.16700
Br	Br	0.83990 0.93420 0.30270 -0.31400
Br	Br	0.81570 0.09360 0.34610 -0.30400
O 	O 	0.96160 0.05010 0.02810 -1.67200
Br	Br	0.89390 0.99080 0.29840 -0.25600
Br	Br	0.80630 0.03440 0.39410 -0.25200
Zr	Zr	0.90735 0.48808 0.48615 3.24000
O 	O 	0.96240 0.44890 0.43230 0.61100
O 	O 	0.87891 0.41120 0.47070 -0.68500
O 	O 	0.94647 0.35740 0.47180 -0.66700
O 	O 	0.59239 0.12320 0.50540 -0.66900
O 	O 	0.64430 0.05519 0.48940 -0.66900
C 	C 	0.79550 0.24460 0.46340 0.07100
C 	C 	0.84450 0.23570 0.45170 -0.13400
H 	H 	0.85450 0.20300 0.44240 0.11800
C 	C 	0.88070 0.27450 0.45340 0.10300
H 	H 	0.91520 0.26760 0.44870 0.04400
C 	C 	0.86360 0.32360 0.46220 -0.17800
C 	C 	0.81130 0.33190 0.46840 0.11000
H 	H 	0.79930 0.36520 0.47050 0.01400
C 	C 	0.75470 0.20570 0.46760 0.08800
C 	C 	0.76480 0.15430 0.46180 -0.14700
H 	H 	0.79730 0.14320 0.45320 0.12400
C 	C 	0.72620 0.12000 0.46900 0.11000
H 	H 	0.73160 0.08540 0.46380 0.03800
C 	C 	0.67840 0.13790 0.48430 -0.17500
C 	C 	0.67100 0.19000 0.49010 0.11600
H 	H 	0.63950 0.20280 0.50020 0.00800
C 	C 	0.89980 0.36680 0.46880 0.50300
C 	C 	0.63480 0.10220 0.49370 0.49000
N 	N 	0.77780 0.29290 0.47150 -0.23800
N 	N 	0.70970 0.22140 0.48090 -0.23700
Fe	Fe	0.69932 0.30344 0.48381 1.16700
Br	Br	0.69730 0.33990 0.56580 -0.31400
Br	Br	0.65390 0.31570 0.40640 -0.30400
O 	O 	0.97190 0.46160 0.44990 -1.67200
Br	Br	0.70160 0.39390 0.50920 -0.25800
Br	Br	0.60590 0.30630 0.46560 -0.25200
Zr	Zr	0.40735 0.01192 0.51385 3.24000
O 	O 	0.46240 0.05110 0.56770 0.61100
O 	O 	0.37891 0.08880 0.52930 -0.68500
O 	O 	0.44647 0.14260 0.52820 -0.66700
O 	O 	0.09239 0.37680 0.49460 -0.66900
O 	O 	0.14430 0.44481 0.51060 -0.66900
C 	C 	0.29550 0.25540 0.53660 0.07100
C 	C 	0.34450 0.26430 0.54830 -0.13400
H 	H 	0.35450 0.29700 0.55760 0.11700
C 	C 	0.38070 0.22550 0.54660 0.10300
H 	H 	0.41520 0.23240 0.55130 0.04400
C 	C 	0.36360 0.17640 0.53780 -0.17800
C 	C 	0.31130 0.16810 0.53160 0.11000
H 	H 	0.29930 0.13480 0.52950 0.01400
C 	C 	0.25470 0.29430 0.53240 0.08800
C 	C 	0.26480 0.34570 0.53820 -0.14700
H 	H 	0.29730 0.35680 0.54680 0.12400
C 	C 	0.22620 0.38000 0.53100 0.11000
H 	H 	0.23160 0.41460 0.53620 0.03800
C 	C 	0.17840 0.36210 0.51570 -0.17500
C 	C 	0.17100 0.31000 0.50990 0.11600
H 	H 	0.13950 0.29720 0.49980 0.00800
C 	C 	0.39980 0.13320 0.53120 0.50300
C 	C 	0.13480 0.39780 0.50630 0.49000
N 	N 	0.27780 0.20710 0.52850 -0.23800
N 	N 	0.20970 0.27860 0.51910 -0.23700
Fe	Fe	0.19932 0.19656 0.51619 1.16700
Br	Br	0.19730 0.16010 0.43420 -0.31400
Br	Br	0.15390 0.18430 0.59360 -0.30300
O 	O 	0.47190 0.03840 0.55010 -1.67200
Br	Br	0.20160 0.10610 0.49080 -0.25700
Br	Br	0.10590 0.19370 0.53440 -0.25200
Zr	Zr	0.59265 0.51192 0.98615 3.24000
O 	O 	0.53760 0.55110 0.93230 0.61100
O 	O 	0.62109 0.58880 0.97070 -0.68500
O 	O 	0.55353 0.64260 0.97180 -0.66700
O 	O 	0.90761 0.87680 0.00540 -0.67000
O 	O 	0.85570 0.94481 0.98940 -0.66900
C 	C 	0.70450 0.75540 0.96340 0.07100
C 	C 	0.65550 0.76430 0.95170 -0.13400
H 	H 	0.64550 0.79700 0.94240 0.11800
C 	C 	0.61930 0.72550 0.95340 0.10300
H 	H 	0.58480 0.73240 0.94870 0.04500
C 	C 	0.63640 0.67640 0.96220 -0.17700
C 	C 	0.68870 0.66810 0.96840 0.11000
H 	H 	0.70070 0.63480 0.97050 0.01500
C 	C 	0.74530 0.79430 0.96760 0.08800
C 	C 	0.73520 0.84570 0.96180 -0.14800
H 	H 	0.70270 0.85680 0.95320 0.12400
C 	C 	0.77380 0.88000 0.96900 0.11100
H 	H 	0.76840 0.91460 0.96380 0.03800
C 	C 	0.82160 0.86210 0.98430 -0.17600
C 	C 	0.82900 0.81000 0.99010 0.11900
H 	H 	0.86050 0.79720 0.00020 0.00600
C 	C 	0.60020 0.63320 0.96880 0.50300
C 	C 	0.86520 0.89780 0.99370 0.49200
N 	N 	0.72220 0.70710 0.97150 -0.23800
N 	N 	0.79030 0.77860 0.98090 -0.23700
Fe	Fe	0.80068 0.69656 0.98381 1.16700
Br	Br	0.80270 0.66010 0.06580 -0.31400
Br	Br	0.84610 0.68430 0.90640 -0.30300
O 	O 	0.52810 0.53840 0.94990 -1.67200
Br	Br	0.79840 0.60610 0.00920 -0.25700
Br	Br	0.89410 0.69370 0.96560 -0.25100
Zr	Zr	0.09265 0.98808 0.01385 3.24000
O 	O 	0.03760 0.94890 0.06770 0.61100
O 	O 	0.12109 0.91120 0.02930 -0.68500
O 	O 	0.05353 0.85740 0.02820 -0.66700
O 	O 	0.40761 0.62320 0.99460 -0.66900
O 	O 	0.35570 0.55519 0.01060 -0.66900
C 	C 	0.20450 0.74460 0.03660 0.07100
C 	C 	0.15550 0.73570 0.04830 -0.13400
H 	H 	0.14550 0.70300 0.05760 0.11800
C 	C 	0.11930 0.77450 0.04660 0.10300
H 	H 	0.08480 0.76760 0.05130 0.04500
C 	C 	0.13640 0.82360 0.03780 -0.17700
C 	C 	0.18870 0.83190 0.03160 0.11000
H 	H 	0.20070 0.86520 0.02950 0.01400
C 	C 	0.24530 0.70570 0.03240 0.08800
C 	C 	0.23520 0.65430 0.03820 -0.14700
H 	H 	0.20270 0.64320 0.04680 0.12400
C 	C 	0.27380 0.62000 0.03100 0.11000
H 	H 	0.26840 0.58540 0.03620 0.03800
C 	C 	0.32160 0.63790 0.01570 -0.17500
C 	C 	0.32900 0.69000 0.00990 0.11600
H 	H 	0.36050 0.70280 0.99980 0.00800
C 	C 	0.10020 0.86680 0.03120 0.50300
C 	C 	0.36520 0.60220 0.00630 0.49000
N 	N 	0.22220 0.79290 0.02850 -0.23800
N 	N 	0.29030 0.72140 0.01910 -0.23700
Fe	Fe	0.30068 0.80344 0.01619 1.16700
Br	Br	0.30270 0.83990 0.93420 -0.31400
Br	Br	0.34610 0.81570 0.09360 -0.30400
O 	O 	0.02810 0.96160 0.05010 -1.67200
Br	Br	0.29840 0.89390 0.99080 -0.25600
Br	Br	0.39410 0.80630 0.03440 -0.25200
Zr	Zr	0.48615 0.90735 0.48808 3.24000
O 	O 	0.43230 0.96240 0.44890 0.61100
O 	O 	0.47070 0.87891 0.41120 -0.68500
O 	O 	0.47180 0.94647 0.35740 -0.66700
O 	O 	0.50540 0.59239 0.12320 -0.66900
O 	O 	0.48940 0.64430 0.05519 -0.66900
C 	C 	0.46340 0.79550 0.24460 0.07100
C 	C 	0.45170 0.84450 0.23570 -0.13400
H 	H 	0.44240 0.85450 0.20300 0.11800
C 	C 	0.45340 0.88070 0.27450 0.10300
H 	H 	0.44870 0.91520 0.26760 0.04400
C 	C 	0.46220 0.86360 0.32360 -0.17800
C 	C 	0.46840 0.81130 0.33190 0.11000
H 	H 	0.47050 0.79930 0.36520 0.01400
C 	C 	0.46760 0.75470 0.20570 0.08800
C 	C 	0.46180 0.76480 0.15430 -0.14700
H 	H 	0.45320 0.79730 0.14320 0.12400
C 	C 	0.46900 0.72620 0.12000 0.11000
H 	H 	0.46380 0.73160 0.08540 0.03800
C 	C 	0.48430 0.67840 0.13790 -0.17500
C 	C 	0.49010 0.67100 0.19000 0.11600
H 	H 	0.50020 0.63950 0.20280 0.00800
C 	C 	0.46880 0.89980 0.36680 0.50300
C 	C 	0.49370 0.63480 0.10220 0.49000
N 	N 	0.47150 0.77780 0.29290 -0.23800
N 	N 	0.48090 0.70970 0.22140 -0.23700
Fe	Fe	0.48381 0.69932 0.30344 1.16700
Br	Br	0.56580 0.69730 0.33990 -0.31400
Br	Br	0.40640 0.65390 0.31570 -0.30400
O 	O 	0.44990 0.97190 0.46160 -1.67200
Br	Br	0.50920 0.70160 0.39390 -0.25800
Br	Br	0.46560 0.60590 0.30630 -0.25200
Zr	Zr	0.51385 0.40735 0.01192 3.24000
O 	O 	0.56770 0.46240 0.05110 0.61100
O 	O 	0.52930 0.37891 0.08880 -0.68500
O 	O 	0.52820 0.44647 0.14260 -0.66700
O 	O 	0.49460 0.09239 0.37680 -0.66900
O 	O 	0.51060 0.14430 0.44481 -0.66900
C 	C 	0.53660 0.29550 0.25540 0.07100
C 	C 	0.54830 0.34450 0.26430 -0.13400
H 	H 	0.55760 0.35450 0.29700 0.11700
C 	C 	0.54660 0.38070 0.22550 0.10300
H 	H 	0.55130 0.41520 0.23240 0.04400
C 	C 	0.53780 0.36360 0.17640 -0.17800
C 	C 	0.53160 0.31130 0.16810 0.11000
H 	H 	0.52950 0.29930 0.13480 0.01400
C 	C 	0.53240 0.25470 0.29430 0.08800
C 	C 	0.53820 0.26480 0.34570 -0.14700
H 	H 	0.54680 0.29730 0.35680 0.12400
C 	C 	0.53100 0.22620 0.38000 0.11000
H 	H 	0.53620 0.23160 0.41460 0.03800
C 	C 	0.51570 0.17840 0.36210 -0.17500
C 	C 	0.50990 0.17100 0.31000 0.11600
H 	H 	0.49980 0.13950 0.29720 0.00800
C 	C 	0.53120 0.39980 0.13320 0.50300
C 	C 	0.50630 0.13480 0.39780 0.49000
N 	N 	0.52850 0.27780 0.20710 -0.23800
N 	N 	0.51910 0.20970 0.27860 -0.23700
Fe	Fe	0.51619 0.19932 0.19656 1.16700
Br	Br	0.43420 0.19730 0.16010 -0.31400
Br	Br	0.59360 0.15390 0.18430 -0.30300
O 	O 	0.55010 0.47190 0.03840 -1.67200
Br	Br	0.49080 0.20160 0.10610 -0.25700
Br	Br	0.53440 0.10590 0.19370 -0.25200
Zr	Zr	0.98615 0.59265 0.51192 3.24000
O 	O 	0.93230 0.53760 0.55110 0.61100
O 	O 	0.97070 0.62109 0.58880 -0.68500
O 	O 	0.97180 0.55353 0.64260 -0.66700
O 	O 	0.00540 0.90761 0.87680 -0.67000
O 	O 	0.98940 0.85570 0.94481 -0.66900
C 	C 	0.96340 0.70450 0.75540 0.07100
C 	C 	0.95170 0.65550 0.76430 -0.13400
H 	H 	0.94240 0.64550 0.79700 0.11800
C 	C 	0.95340 0.61930 0.72550 0.10300
H 	H 	0.94870 0.58480 0.73240 0.04500
C 	C 	0.96220 0.63640 0.67640 -0.17700
C 	C 	0.96840 0.68870 0.66810 0.11000
H 	H 	0.97050 0.70070 0.63480 0.01500
C 	C 	0.96760 0.74530 0.79430 0.08800
C 	C 	0.96180 0.73520 0.84570 -0.14800
H 	H 	0.95320 0.70270 0.85680 0.12400
C 	C 	0.96900 0.77380 0.88000 0.11100
H 	H 	0.96380 0.76840 0.91460 0.03800
C 	C 	0.98430 0.82160 0.86210 -0.17600
C 	C 	0.99010 0.82900 0.81000 0.11900
H 	H 	0.00020 0.86050 0.79720 0.00600
C 	C 	0.96880 0.60020 0.63320 0.50300
C 	C 	0.99370 0.86520 0.89780 0.49200
N 	N 	0.97150 0.72220 0.70710 -0.23800
N 	N 	0.98090 0.79030 0.77860 -0.23700
Fe	Fe	0.98381 0.80068 0.69656 1.16700
Br	Br	0.06580 0.80270 0.66010 -0.31400
Br	Br	0.90640 0.84610 0.68430 -0.30300
O 	O 	0.94990 0.52810 0.53840 -1.67200
Br	Br	0.00920 0.79840 0.60610 -0.25700
Br	Br	0.96560 0.89410 0.69370 -0.25100
Zr	Zr	0.01385 0.09265 0.98808 3.24000
O 	O 	0.06770 0.03760 0.94890 0.61100
O 	O 	0.02930 0.12109 0.91120 -0.68500
O 	O 	0.02820 0.05353 0.85740 -0.66700
O 	O 	0.99460 0.40761 0.62320 -0.66900
O 	O 	0.01060 0.35570 0.55519 -0.66900
C 	C 	0.03660 0.20450 0.74460 0.07100
C 	C 	0.04830 0.15550 0.73570 -0.13400
H 	H 	0.05760 0.14550 0.70300 0.11800
C 	C 	0.04660 0.11930 0.77450 0.10300
H 	H 	0.05130 0.08480 0.76760 0.04500
C 	C 	0.03780 0.13640 0.82360 -0.17700
C 	C 	0.03160 0.18870 0.83190 0.11000
H 	H 	0.02950 0.20070 0.86520 0.01400
C 	C 	0.03240 0.24530 0.70570 0.08800
C 	C 	0.03820 0.23520 0.65430 -0.14700
H 	H 	0.04680 0.20270 0.64320 0.12400
C 	C 	0.03100 0.27380 0.62000 0.11000
H 	H 	0.03620 0.26840 0.58540 0.03800
C 	C 	0.01570 0.32160 0.63790 -0.17500
C 	C 	0.00990 0.32900 0.69000 0.11600
H 	H 	0.99980 0.36050 0.70280 0.00800
C 	C 	0.03120 0.10020 0.86680 0.50300
C 	C 	0.00630 0.36520 0.60220 0.49000
N 	N 	0.02850 0.22220 0.79290 -0.23800
N 	N 	0.01910 0.29030 0.72140 -0.23700
Fe	Fe	0.01619 0.30068 0.80344 1.16700
Br	Br	0.93420 0.30270 0.83990 -0.31400
Br	Br	0.09360 0.34610 0.81570 -0.30400
O 	O 	0.05010 0.02810 0.96160 -1.67200
Br	Br	0.99080 0.29840 0.89390 -0.25600
Br	Br	0.03440 0.39410 0.80630 -0.25200
O 	O 	0.44690 0.55310 0.05310 0.43500
O 	O 	0.46070 0.53930 0.03930 -1.51100
O 	O 	0.05310 0.44690 0.55310 0.43500
O 	O 	0.03930 0.46070 0.53930 -1.51100
O 	O 	0.55310 0.05310 0.44690 0.43500
O 	O 	0.53930 0.03930 0.46070 -1.51100
O 	O 	0.94690 0.94690 0.94690 0.43300
O 	O 	0.96070 0.96070 0.96070 -1.50700
O 	O 	0.55310 0.44690 0.94690 0.43500
O 	O 	0.53930 0.46070 0.96070 -1.51100
O 	O 	0.94690 0.55310 0.44690 0.43500
O 	O 	0.96070 0.53930 0.46070 -1.51100
O 	O 	0.44690 0.94690 0.55310 0.43500
O 	O 	0.46070 0.96070 0.53930 -1.51100
O 	O 	0.05310 0.05310 0.05310 0.43300
O 	O 	0.03930 0.03930 0.03930 -1.50700
