data_crystal

_cell_length_a 26.04830
_cell_length_b 26.04830
_cell_length_c 26.04830
_cell_angle_alpha 90.00000
_cell_angle_beta  90.00000
_cell_angle_gamma 90.00000

_symmetry_space_group_name_	'P 1'
_symmetry_space_group_name_H-M	'P 1'

loop_
_symmetry_equiv_pos_as_xyz
  x,y,z

loop_
_atom_site_label
_atom_site_type_symbol
_atom_site_fract_x
_atom_site_fract_y
_atom_site_fract_z
_atom_site_charge
Zr	Zr	0.51432 0.48322 0.40776 3.23500
Cu	Cu	0.20629 0.48587 0.29169 0.91600
Cl	Cl	0.13111 0.52495 0.28931 -0.42900
Cl	Cl	0.20369 0.46074 0.37270 -0.42700
O 	O 	0.38072 0.50620 0.40283 -0.16000
O 	O 	0.44884 0.48560 0.35446 -0.27400
O 	O 	0.09213 0.46600 0.11784 -0.15400
O 	O 	0.14289 0.46699 0.04957 -0.10900
N 	N 	0.28219 0.48054 0.28557 -0.21500
N 	N 	0.21265 0.47610 0.21564 -0.20300
C 	C 	0.30057 0.47142 0.23836 0.06200
C 	C 	0.35234 0.46640 0.22833 -0.09400
H 	H 	0.36420 0.45780 0.19490 0.09200
C 	C 	0.38672 0.47410 0.26865 0.03000
H 	H 	0.42270 0.47160 0.26310 0.06400
C 	C 	0.36765 0.48555 0.31693 -0.07400
C 	C 	0.31475 0.48792 0.32384 0.05900
H 	H 	0.30160 0.49510 0.35710 0.04500
C 	C 	0.26077 0.46700 0.19800 0.04300
C 	C 	0.27034 0.45670 0.14722 -0.06500
H 	H 	0.30440 0.45070 0.13570 0.08000
C 	C 	0.22955 0.45520 0.11284 -0.01200
H 	H 	0.23530 0.44840 0.07750 0.09000
C 	C 	0.18034 0.46367 0.13117 -0.01600
C 	C 	0.17322 0.47388 0.18279 0.02600
H 	H 	0.13940 0.47950 0.19530 0.05900
C 	C 	0.40197 0.49347 0.36174 0.23700
C 	C 	0.13504 0.46551 0.09665 0.14200
O 	O 	0.53778 0.44789 0.47422 -1.73200
O 	O 	0.36840 0.51070 0.40870 -0.39000
O 	O 	0.45200 0.49460 0.35300 -0.28000
O 	O 	0.08700 0.46450 0.13020 -0.38900
O 	O 	0.15390 0.46850 0.04210 -0.40100
O 	O 	0.55105 0.43034 0.46566 0.61800
Zr	Zr	0.98568 0.51678 0.90776 3.23400
Cu	Cu	0.29371 0.51413 0.79169 0.91500
Cl	Cl	0.36889 0.47505 0.78931 -0.43000
Cl	Cl	0.29631 0.53926 0.87270 -0.42800
O 	O 	0.11928 0.49380 0.90283 -0.16100
O 	O 	0.05116 0.51440 0.85446 -0.27500
O 	O 	0.40787 0.53400 0.61784 -0.15500
O 	O 	0.35711 0.53301 0.54957 -0.11000
N 	N 	0.21781 0.51946 0.78557 -0.21600
N 	N 	0.28735 0.52390 0.71564 -0.20400
C 	C 	0.19943 0.52858 0.73836 0.06200
C 	C 	0.14766 0.53360 0.72833 -0.09400
H 	H 	0.13580 0.54220 0.69490 0.09200
C 	C 	0.11328 0.52590 0.76865 0.03000
H 	H 	0.07730 0.52840 0.76310 0.06400
C 	C 	0.13235 0.51445 0.81693 -0.07300
C 	C 	0.18525 0.51208 0.82384 0.05900
H 	H 	0.19840 0.50490 0.85710 0.04500
C 	C 	0.23923 0.53300 0.69800 0.04300
C 	C 	0.22966 0.54330 0.64722 -0.06500
H 	H 	0.19560 0.54930 0.63570 0.08000
C 	C 	0.27045 0.54480 0.61284 -0.01200
H 	H 	0.26470 0.55160 0.57750 0.09000
C 	C 	0.31966 0.53633 0.63117 -0.01600
C 	C 	0.32678 0.52612 0.68279 0.02600
H 	H 	0.36060 0.52050 0.69530 0.05900
C 	C 	0.09803 0.50653 0.86174 0.23700
C 	C 	0.36496 0.53449 0.59665 0.14200
O 	O 	0.96222 0.55211 0.97422 -1.73300
O 	O 	0.13160 0.48930 0.90870 -0.39000
O 	O 	0.04800 0.50540 0.85300 -0.28000
O 	O 	0.41300 0.53550 0.63020 -0.38900
O 	O 	0.34610 0.53150 0.54210 -0.40100
O 	O 	0.94895 0.56966 0.96566 0.61800
Zr	Zr	0.48568 0.98322 0.09224 3.23400
Cu	Cu	0.79371 0.98587 0.20831 0.91500
Cl	Cl	0.86889 0.02495 0.21069 -0.43000
Cl	Cl	0.79631 0.96074 0.12730 -0.42700
O 	O 	0.61928 0.00620 0.09717 -0.16100
O 	O 	0.55116 0.98560 0.14554 -0.27500
O 	O 	0.90787 0.96600 0.38216 -0.15500
O 	O 	0.85711 0.96699 0.45043 -0.11000
N 	N 	0.71781 0.98054 0.21443 -0.21600
N 	N 	0.78735 0.97610 0.28436 -0.20400
C 	C 	0.69943 0.97142 0.26164 0.06200
C 	C 	0.64766 0.96640 0.27167 -0.09400
H 	H 	0.63580 0.95780 0.30510 0.09200
C 	C 	0.61328 0.97410 0.23135 0.03000
H 	H 	0.57730 0.97160 0.23690 0.06400
C 	C 	0.63235 0.98555 0.18307 -0.07300
C 	C 	0.68525 0.98792 0.17616 0.05900
H 	H 	0.69840 0.99510 0.14290 0.04500
C 	C 	0.73923 0.96700 0.30200 0.04300
C 	C 	0.72966 0.95670 0.35278 -0.06500
H 	H 	0.69560 0.95070 0.36430 0.08000
C 	C 	0.77045 0.95520 0.38716 -0.01200
H 	H 	0.76470 0.94840 0.42250 0.09000
C 	C 	0.81966 0.96367 0.36883 -0.01600
C 	C 	0.82678 0.97388 0.31721 0.02700
H 	H 	0.86060 0.97950 0.30470 0.05900
C 	C 	0.59803 0.99347 0.13826 0.23800
C 	C 	0.86496 0.96551 0.40335 0.14200
O 	O 	0.46222 0.94789 0.02578 -1.73000
O 	O 	0.63160 0.01070 0.09130 -0.39100
O 	O 	0.54800 0.99460 0.14700 -0.28000
O 	O 	0.91300 0.96450 0.36980 -0.38900
O 	O 	0.84610 0.96850 0.45790 -0.40100
O 	O 	0.44895 0.93034 0.03434 0.61700
Zr	Zr	0.01432 0.01678 0.59224 3.23400
Cu	Cu	0.70629 0.01413 0.70831 0.91500
Cl	Cl	0.63111 0.97505 0.71069 -0.43100
Cl	Cl	0.70369 0.03926 0.62730 -0.42700
O 	O 	0.88072 0.99380 0.59717 -0.16100
O 	O 	0.94884 0.01440 0.64554 -0.27400
O 	O 	0.59213 0.03400 0.88216 -0.15500
O 	O 	0.64289 0.03301 0.95043 -0.10900
N 	N 	0.78219 0.01946 0.71443 -0.21600
N 	N 	0.71265 0.02390 0.78436 -0.20300
C 	C 	0.80057 0.02858 0.76164 0.06200
C 	C 	0.85234 0.03360 0.77167 -0.09400
H 	H 	0.86420 0.04220 0.80510 0.09200
C 	C 	0.88672 0.02590 0.73135 0.03000
H 	H 	0.92270 0.02840 0.73690 0.06400
C 	C 	0.86765 0.01445 0.68307 -0.07300
C 	C 	0.81475 0.01208 0.67616 0.05900
H 	H 	0.80160 0.00490 0.64290 0.04500
C 	C 	0.76077 0.03300 0.80200 0.04300
C 	C 	0.77034 0.04330 0.85278 -0.06500
H 	H 	0.80440 0.04930 0.86430 0.08000
C 	C 	0.72955 0.04480 0.88716 -0.01200
H 	H 	0.73530 0.05160 0.92250 0.09000
C 	C 	0.68034 0.03633 0.86883 -0.01500
C 	C 	0.67322 0.02612 0.81721 0.02700
H 	H 	0.63940 0.02050 0.80470 0.05900
C 	C 	0.90197 0.00653 0.63826 0.23800
C 	C 	0.63504 0.03449 0.90335 0.14200
O 	O 	0.03778 0.05211 0.52578 -1.73400
O 	O 	0.86840 0.98930 0.59130 -0.39200
O 	O 	0.95200 0.00540 0.64700 -0.28000
O 	O 	0.58700 0.03550 0.86980 -0.38900
O 	O 	0.65390 0.03150 0.95790 -0.40100
O 	O 	0.05105 0.06966 0.53434 0.61900
Zr	Zr	0.40776 0.51432 0.48322 3.23400
Cu	Cu	0.29169 0.20629 0.48587 0.91500
Cl	Cl	0.28931 0.13111 0.52495 -0.43000
Cl	Cl	0.37270 0.20369 0.46074 -0.42800
O 	O 	0.40283 0.38072 0.50620 -0.16100
O 	O 	0.35446 0.44884 0.48560 -0.27500
O 	O 	0.11784 0.09213 0.46600 -0.15500
O 	O 	0.04957 0.14289 0.46699 -0.11000
N 	N 	0.28557 0.28219 0.48054 -0.21600
N 	N 	0.21564 0.21265 0.47610 -0.20400
C 	C 	0.23836 0.30057 0.47142 0.06200
C 	C 	0.22833 0.35234 0.46640 -0.09400
H 	H 	0.19490 0.36420 0.45780 0.09200
C 	C 	0.26865 0.38672 0.47410 0.03000
H 	H 	0.26310 0.42270 0.47160 0.06400
C 	C 	0.31693 0.36765 0.48555 -0.07400
C 	C 	0.32384 0.31475 0.48792 0.05900
H 	H 	0.35710 0.30160 0.49510 0.04500
C 	C 	0.19800 0.26077 0.46700 0.04300
C 	C 	0.14722 0.27034 0.45670 -0.06500
H 	H 	0.13570 0.30440 0.45070 0.08000
C 	C 	0.11284 0.22955 0.45520 -0.01200
H 	H 	0.07750 0.23530 0.44840 0.09000
C 	C 	0.13117 0.18034 0.46367 -0.01600
C 	C 	0.18279 0.17322 0.47388 0.02600
H 	H 	0.19530 0.13940 0.47950 0.05900
C 	C 	0.36174 0.40197 0.49347 0.23700
C 	C 	0.09665 0.13504 0.46551 0.14200
O 	O 	0.47422 0.53778 0.44789 -1.73200
O 	O 	0.40870 0.36840 0.51070 -0.39000
O 	O 	0.35300 0.45200 0.49460 -0.28000
O 	O 	0.13020 0.08700 0.46450 -0.38900
O 	O 	0.04210 0.15390 0.46850 -0.40100
O 	O 	0.46566 0.55105 0.43034 0.61800
Zr	Zr	0.90776 0.98568 0.51678 3.23400
Cu	Cu	0.79169 0.29371 0.51413 0.91500
Cl	Cl	0.78931 0.36889 0.47505 -0.43000
Cl	Cl	0.87270 0.29631 0.53926 -0.42800
O 	O 	0.90283 0.11928 0.49380 -0.16100
O 	O 	0.85446 0.05116 0.51440 -0.27500
O 	O 	0.61784 0.40787 0.53400 -0.15500
O 	O 	0.54957 0.35711 0.53301 -0.11000
N 	N 	0.78557 0.21781 0.51946 -0.21600
N 	N 	0.71564 0.28735 0.52390 -0.20400
C 	C 	0.73836 0.19943 0.52858 0.06200
C 	C 	0.72833 0.14766 0.53360 -0.09400
H 	H 	0.69490 0.13580 0.54220 0.09200
C 	C 	0.76865 0.11328 0.52590 0.03000
H 	H 	0.76310 0.07730 0.52840 0.06400
C 	C 	0.81693 0.13235 0.51445 -0.07300
C 	C 	0.82384 0.18525 0.51208 0.05900
H 	H 	0.85710 0.19840 0.50490 0.04500
C 	C 	0.69800 0.23923 0.53300 0.04300
C 	C 	0.64722 0.22966 0.54330 -0.06500
H 	H 	0.63570 0.19560 0.54930 0.08000
C 	C 	0.61284 0.27045 0.54480 -0.01200
H 	H 	0.57750 0.26470 0.55160 0.09000
C 	C 	0.63117 0.31966 0.53633 -0.01600
C 	C 	0.68279 0.32678 0.52612 0.02600
H 	H 	0.69530 0.36060 0.52050 0.05900
C 	C 	0.86174 0.09803 0.50653 0.23700
C 	C 	0.59665 0.36496 0.53449 0.14200
O 	O 	0.97422 0.96222 0.55211 -1.73300
O 	O 	0.90870 0.13160 0.48930 -0.39000
O 	O 	0.85300 0.04800 0.50540 -0.28000
O 	O 	0.63020 0.41300 0.53550 -0.38900
O 	O 	0.54210 0.34610 0.53150 -0.40100
O 	O 	0.96566 0.94895 0.56966 0.61800
Zr	Zr	0.09224 0.48568 0.98322 3.23400
Cu	Cu	0.20831 0.79371 0.98587 0.91500
Cl	Cl	0.21069 0.86889 0.02495 -0.43000
Cl	Cl	0.12730 0.79631 0.96074 -0.42700
O 	O 	0.09717 0.61928 0.00620 -0.16100
O 	O 	0.14554 0.55116 0.98560 -0.27500
O 	O 	0.38216 0.90787 0.96600 -0.15500
O 	O 	0.45043 0.85711 0.96699 -0.11000
N 	N 	0.21443 0.71781 0.98054 -0.21600
N 	N 	0.28436 0.78735 0.97610 -0.20400
C 	C 	0.26164 0.69943 0.97142 0.06200
C 	C 	0.27167 0.64766 0.96640 -0.09400
H 	H 	0.30510 0.63580 0.95780 0.09200
C 	C 	0.23135 0.61328 0.97410 0.03000
H 	H 	0.23690 0.57730 0.97160 0.06400
C 	C 	0.18307 0.63235 0.98555 -0.07300
C 	C 	0.17616 0.68525 0.98792 0.05900
H 	H 	0.14290 0.69840 0.99510 0.04500
C 	C 	0.30200 0.73923 0.96700 0.04300
C 	C 	0.35278 0.72966 0.95670 -0.06500
H 	H 	0.36430 0.69560 0.95070 0.08000
C 	C 	0.38716 0.77045 0.95520 -0.01200
H 	H 	0.42250 0.76470 0.94840 0.09000
C 	C 	0.36883 0.81966 0.96367 -0.01600
C 	C 	0.31721 0.82678 0.97388 0.02700
H 	H 	0.30470 0.86060 0.97950 0.05900
C 	C 	0.13826 0.59803 0.99347 0.23800
C 	C 	0.40335 0.86496 0.96551 0.14200
O 	O 	0.02578 0.46222 0.94789 -1.73000
O 	O 	0.09130 0.63160 0.01070 -0.39100
O 	O 	0.14700 0.54800 0.99460 -0.28000
O 	O 	0.36980 0.91300 0.96450 -0.38900
O 	O 	0.45790 0.84610 0.96850 -0.40100
O 	O 	0.03434 0.44895 0.93034 0.61700
Zr	Zr	0.59224 0.01432 0.01678 3.23400
Cu	Cu	0.70831 0.70629 0.01413 0.91500
Cl	Cl	0.71069 0.63111 0.97505 -0.43100
Cl	Cl	0.62730 0.70369 0.03926 -0.42700
O 	O 	0.59717 0.88072 0.99380 -0.16100
O 	O 	0.64554 0.94884 0.01440 -0.27400
O 	O 	0.88216 0.59213 0.03400 -0.15500
O 	O 	0.95043 0.64289 0.03301 -0.10900
N 	N 	0.71443 0.78219 0.01946 -0.21600
N 	N 	0.78436 0.71265 0.02390 -0.20300
C 	C 	0.76164 0.80057 0.02858 0.06200
C 	C 	0.77167 0.85234 0.03360 -0.09400
H 	H 	0.80510 0.86420 0.04220 0.09200
C 	C 	0.73135 0.88672 0.02590 0.03000
H 	H 	0.73690 0.92270 0.02840 0.06400
C 	C 	0.68307 0.86765 0.01445 -0.07300
C 	C 	0.67616 0.81475 0.01208 0.05900
H 	H 	0.64290 0.80160 0.00490 0.04500
C 	C 	0.80200 0.76077 0.03300 0.04300
C 	C 	0.85278 0.77034 0.04330 -0.06500
H 	H 	0.86430 0.80440 0.04930 0.08000
C 	C 	0.88716 0.72955 0.04480 -0.01200
H 	H 	0.92250 0.73530 0.05160 0.09000
C 	C 	0.86883 0.68034 0.03633 -0.01500
C 	C 	0.81721 0.67322 0.02612 0.02700
H 	H 	0.80470 0.63940 0.02050 0.05900
C 	C 	0.63826 0.90197 0.00653 0.23800
C 	C 	0.90335 0.63504 0.03449 0.14200
O 	O 	0.52578 0.03778 0.05211 -1.73400
O 	O 	0.59130 0.86840 0.98930 -0.39200
O 	O 	0.64700 0.95200 0.00540 -0.28000
O 	O 	0.86980 0.58700 0.03550 -0.38900
O 	O 	0.95790 0.65390 0.03150 -0.40100
O 	O 	0.53434 0.05105 0.06966 0.61900
Zr	Zr	0.48322 0.40776 0.51432 3.23400
Cu	Cu	0.48587 0.29169 0.20629 0.91500
Cl	Cl	0.52495 0.28931 0.13111 -0.43000
Cl	Cl	0.46074 0.37270 0.20369 -0.42800
O 	O 	0.50620 0.40283 0.38072 -0.16100
O 	O 	0.48560 0.35446 0.44884 -0.27500
O 	O 	0.46600 0.11784 0.09213 -0.15500
O 	O 	0.46699 0.04957 0.14289 -0.11000
N 	N 	0.48054 0.28557 0.28219 -0.21600
N 	N 	0.47610 0.21564 0.21265 -0.20400
C 	C 	0.47142 0.23836 0.30057 0.06200
C 	C 	0.46640 0.22833 0.35234 -0.09400
H 	H 	0.45780 0.19490 0.36420 0.09200
C 	C 	0.47410 0.26865 0.38672 0.03000
H 	H 	0.47160 0.26310 0.42270 0.06400
C 	C 	0.48555 0.31693 0.36765 -0.07400
C 	C 	0.48792 0.32384 0.31475 0.05900
H 	H 	0.49510 0.35710 0.30160 0.04500
C 	C 	0.46700 0.19800 0.26077 0.04300
C 	C 	0.45670 0.14722 0.27034 -0.06500
H 	H 	0.45070 0.13570 0.30440 0.08000
C 	C 	0.45520 0.11284 0.22955 -0.01200
H 	H 	0.44840 0.07750 0.23530 0.09000
C 	C 	0.46367 0.13117 0.18034 -0.01600
C 	C 	0.47388 0.18279 0.17322 0.02600
H 	H 	0.47950 0.19530 0.13940 0.05900
C 	C 	0.49347 0.36174 0.40197 0.23700
C 	C 	0.46551 0.09665 0.13504 0.14200
O 	O 	0.44789 0.47422 0.53778 -1.73200
O 	O 	0.51070 0.40870 0.36840 -0.39000
O 	O 	0.49460 0.35300 0.45200 -0.28000
O 	O 	0.46450 0.13020 0.08700 -0.38900
O 	O 	0.46850 0.04210 0.15390 -0.40100
O 	O 	0.43034 0.46566 0.55105 0.61800
Zr	Zr	0.51678 0.90776 0.98568 3.23400
Cu	Cu	0.51413 0.79169 0.29371 0.91500
Cl	Cl	0.47505 0.78931 0.36889 -0.43000
Cl	Cl	0.53926 0.87270 0.29631 -0.42800
O 	O 	0.49380 0.90283 0.11928 -0.16100
O 	O 	0.51440 0.85446 0.05116 -0.27500
O 	O 	0.53400 0.61784 0.40787 -0.15500
O 	O 	0.53301 0.54957 0.35711 -0.11000
N 	N 	0.51946 0.78557 0.21781 -0.21600
N 	N 	0.52390 0.71564 0.28735 -0.20400
C 	C 	0.52858 0.73836 0.19943 0.06200
C 	C 	0.53360 0.72833 0.14766 -0.09400
H 	H 	0.54220 0.69490 0.13580 0.09200
C 	C 	0.52590 0.76865 0.11328 0.03000
H 	H 	0.52840 0.76310 0.07730 0.06400
C 	C 	0.51445 0.81693 0.13235 -0.07300
C 	C 	0.51208 0.82384 0.18525 0.05900
H 	H 	0.50490 0.85710 0.19840 0.04500
C 	C 	0.53300 0.69800 0.23923 0.04300
C 	C 	0.54330 0.64722 0.22966 -0.06500
H 	H 	0.54930 0.63570 0.19560 0.08000
C 	C 	0.54480 0.61284 0.27045 -0.01200
H 	H 	0.55160 0.57750 0.26470 0.09000
C 	C 	0.53633 0.63117 0.31966 -0.01600
C 	C 	0.52612 0.68279 0.32678 0.02600
H 	H 	0.52050 0.69530 0.36060 0.05900
C 	C 	0.50653 0.86174 0.09803 0.23700
C 	C 	0.53449 0.59665 0.36496 0.14200
O 	O 	0.55211 0.97422 0.96222 -1.73300
O 	O 	0.48930 0.90870 0.13160 -0.39000
O 	O 	0.50540 0.85300 0.04800 -0.28000
O 	O 	0.53550 0.63020 0.41300 -0.38900
O 	O 	0.53150 0.54210 0.34610 -0.40100
O 	O 	0.56966 0.96566 0.94895 0.61800
Zr	Zr	0.98322 0.09224 0.48568 3.23400
Cu	Cu	0.98587 0.20831 0.79371 0.91500
Cl	Cl	0.02495 0.21069 0.86889 -0.43000
Cl	Cl	0.96074 0.12730 0.79631 -0.42700
O 	O 	0.00620 0.09717 0.61928 -0.16100
O 	O 	0.98560 0.14554 0.55116 -0.27500
O 	O 	0.96600 0.38216 0.90787 -0.15500
O 	O 	0.96699 0.45043 0.85711 -0.11000
N 	N 	0.98054 0.21443 0.71781 -0.21600
N 	N 	0.97610 0.28436 0.78735 -0.20400
C 	C 	0.97142 0.26164 0.69943 0.06200
C 	C 	0.96640 0.27167 0.64766 -0.09400
H 	H 	0.95780 0.30510 0.63580 0.09200
C 	C 	0.97410 0.23135 0.61328 0.03000
H 	H 	0.97160 0.23690 0.57730 0.06400
C 	C 	0.98555 0.18307 0.63235 -0.07300
C 	C 	0.98792 0.17616 0.68525 0.05900
H 	H 	0.99510 0.14290 0.69840 0.04500
C 	C 	0.96700 0.30200 0.73923 0.04300
C 	C 	0.95670 0.35278 0.72966 -0.06500
H 	H 	0.95070 0.36430 0.69560 0.08000
C 	C 	0.95520 0.38716 0.77045 -0.01200
H 	H 	0.94840 0.42250 0.76470 0.09000
C 	C 	0.96367 0.36883 0.81966 -0.01600
C 	C 	0.97388 0.31721 0.82678 0.02700
H 	H 	0.97950 0.30470 0.86060 0.05900
C 	C 	0.99347 0.13826 0.59803 0.23800
C 	C 	0.96551 0.40335 0.86496 0.14200
O 	O 	0.94789 0.02578 0.46222 -1.73000
O 	O 	0.01070 0.09130 0.63160 -0.39100
O 	O 	0.99460 0.14700 0.54800 -0.28000
O 	O 	0.96450 0.36980 0.91300 -0.38900
O 	O 	0.96850 0.45790 0.84610 -0.40100
O 	O 	0.93034 0.03434 0.44895 0.61700
Zr	Zr	0.01678 0.59224 0.01432 3.23400
Cu	Cu	0.01413 0.70831 0.70629 0.91500
Cl	Cl	0.97505 0.71069 0.63111 -0.43100
Cl	Cl	0.03926 0.62730 0.70369 -0.42700
O 	O 	0.99380 0.59717 0.88072 -0.16100
O 	O 	0.01440 0.64554 0.94884 -0.27400
O 	O 	0.03400 0.88216 0.59213 -0.15500
O 	O 	0.03301 0.95043 0.64289 -0.10900
N 	N 	0.01946 0.71443 0.78219 -0.21600
N 	N 	0.02390 0.78436 0.71265 -0.20300
C 	C 	0.02858 0.76164 0.80057 0.06200
C 	C 	0.03360 0.77167 0.85234 -0.09400
H 	H 	0.04220 0.80510 0.86420 0.09200
C 	C 	0.02590 0.73135 0.88672 0.03000
H 	H 	0.02840 0.73690 0.92270 0.06400
C 	C 	0.01445 0.68307 0.86765 -0.07300
C 	C 	0.01208 0.67616 0.81475 0.05900
H 	H 	0.00490 0.64290 0.80160 0.04500
C 	C 	0.03300 0.80200 0.76077 0.04300
C 	C 	0.04330 0.85278 0.77034 -0.06500
H 	H 	0.04930 0.86430 0.80440 0.08000
C 	C 	0.04480 0.88716 0.72955 -0.01200
H 	H 	0.05160 0.92250 0.73530 0.09000
C 	C 	0.03633 0.86883 0.68034 -0.01500
C 	C 	0.02612 0.81721 0.67322 0.02700
H 	H 	0.02050 0.80470 0.63940 0.05900
C 	C 	0.00653 0.63826 0.90197 0.23800
C 	C 	0.03449 0.90335 0.63504 0.14200
O 	O 	0.05211 0.52578 0.03778 -1.73400
O 	O 	0.98930 0.59130 0.86840 -0.39200
O 	O 	0.00540 0.64700 0.95200 -0.28000
O 	O 	0.03550 0.86980 0.58700 -0.38900
O 	O 	0.03150 0.95790 0.65390 -0.40100
O 	O 	0.06966 0.53434 0.05105 0.61900
Zr	Zr	0.48568 0.51678 0.59224 3.23400
Cu	Cu	0.79371 0.51413 0.70831 0.91500
Cl	Cl	0.86889 0.47505 0.71069 -0.43000
Cl	Cl	0.79631 0.53926 0.62730 -0.42800
O 	O 	0.61928 0.49380 0.59717 -0.16100
O 	O 	0.55116 0.51440 0.64554 -0.27500
O 	O 	0.90787 0.53400 0.88216 -0.15500
O 	O 	0.85711 0.53301 0.95043 -0.11000
N 	N 	0.71781 0.51946 0.71443 -0.21600
N 	N 	0.78735 0.52390 0.78436 -0.20400
C 	C 	0.69943 0.52858 0.76164 0.06200
C 	C 	0.64766 0.53360 0.77167 -0.09400
H 	H 	0.63580 0.54220 0.80510 0.09200
C 	C 	0.61328 0.52590 0.73135 0.03000
H 	H 	0.57730 0.52840 0.73690 0.06400
C 	C 	0.63235 0.51445 0.68307 -0.07400
C 	C 	0.68525 0.51208 0.67616 0.05900
H 	H 	0.69840 0.50490 0.64290 0.04500
C 	C 	0.73923 0.53300 0.80200 0.04300
C 	C 	0.72966 0.54330 0.85278 -0.06500
H 	H 	0.69560 0.54930 0.86430 0.08000
C 	C 	0.77045 0.54480 0.88716 -0.01200
H 	H 	0.76470 0.55160 0.92250 0.09000
C 	C 	0.81966 0.53633 0.86883 -0.01600
C 	C 	0.82678 0.52612 0.81721 0.02600
H 	H 	0.86060 0.52050 0.80470 0.05900
C 	C 	0.59803 0.50653 0.63826 0.23700
C 	C 	0.86496 0.53449 0.90335 0.14200
O 	O 	0.46222 0.55211 0.52578 -1.73200
O 	O 	0.63160 0.48930 0.59130 -0.39000
O 	O 	0.54800 0.50540 0.64700 -0.28000
O 	O 	0.91300 0.53550 0.86980 -0.38900
O 	O 	0.84610 0.53150 0.95790 -0.40100
O 	O 	0.44895 0.56966 0.53434 0.61800
Zr	Zr	0.01432 0.48322 0.09224 3.23400
Cu	Cu	0.70629 0.48587 0.20831 0.91500
Cl	Cl	0.63111 0.52495 0.21069 -0.43000
Cl	Cl	0.70369 0.46074 0.12730 -0.42800
O 	O 	0.88072 0.50620 0.09717 -0.16100
O 	O 	0.94884 0.48560 0.14554 -0.27500
O 	O 	0.59213 0.46600 0.38216 -0.15500
O 	O 	0.64289 0.46699 0.45043 -0.11000
N 	N 	0.78219 0.48054 0.21443 -0.21600
N 	N 	0.71265 0.47610 0.28436 -0.20400
C 	C 	0.80057 0.47142 0.26164 0.06200
C 	C 	0.85234 0.46640 0.27167 -0.09400
H 	H 	0.86420 0.45780 0.30510 0.09200
C 	C 	0.88672 0.47410 0.23135 0.03000
H 	H 	0.92270 0.47160 0.23690 0.06400
C 	C 	0.86765 0.48555 0.18307 -0.07300
C 	C 	0.81475 0.48792 0.17616 0.05900
H 	H 	0.80160 0.49510 0.14290 0.04500
C 	C 	0.76077 0.46700 0.30200 0.04300
C 	C 	0.77034 0.45670 0.35278 -0.06500
H 	H 	0.80440 0.45070 0.36430 0.08000
C 	C 	0.72955 0.45520 0.38716 -0.01200
H 	H 	0.73530 0.44840 0.42250 0.09000
C 	C 	0.68034 0.46367 0.36883 -0.01600
C 	C 	0.67322 0.47388 0.31721 0.02600
H 	H 	0.63940 0.47950 0.30470 0.05900
C 	C 	0.90197 0.49347 0.13826 0.23700
C 	C 	0.63504 0.46551 0.40335 0.14200
O 	O 	0.03778 0.44789 0.02578 -1.73300
O 	O 	0.86840 0.51070 0.09130 -0.39000
O 	O 	0.95200 0.49460 0.14700 -0.28000
O 	O 	0.58700 0.46450 0.36980 -0.38900
O 	O 	0.65390 0.46850 0.45790 -0.40100
O 	O 	0.05105 0.43034 0.03434 0.61800
Zr	Zr	0.51432 0.01678 0.90776 3.23400
Cu	Cu	0.20629 0.01413 0.79169 0.91500
Cl	Cl	0.13111 0.97505 0.78931 -0.43000
Cl	Cl	0.20369 0.03926 0.87270 -0.42700
O 	O 	0.38072 0.99380 0.90283 -0.16100
O 	O 	0.44884 0.01440 0.85446 -0.27500
O 	O 	0.09213 0.03400 0.61784 -0.15500
O 	O 	0.14289 0.03301 0.54957 -0.11000
N 	N 	0.28219 0.01946 0.78557 -0.21600
N 	N 	0.21265 0.02390 0.71564 -0.20400
C 	C 	0.30057 0.02858 0.73836 0.06200
C 	C 	0.35234 0.03360 0.72833 -0.09400
H 	H 	0.36420 0.04220 0.69490 0.09200
C 	C 	0.38672 0.02590 0.76865 0.03000
H 	H 	0.42270 0.02840 0.76310 0.06400
C 	C 	0.36765 0.01445 0.81693 -0.07300
C 	C 	0.31475 0.01208 0.82384 0.05900
H 	H 	0.30160 0.00490 0.85710 0.04500
C 	C 	0.26077 0.03300 0.69800 0.04300
C 	C 	0.27034 0.04330 0.64722 -0.06500
H 	H 	0.30440 0.04930 0.63570 0.08000
C 	C 	0.22955 0.04480 0.61284 -0.01200
H 	H 	0.23530 0.05160 0.57750 0.09000
C 	C 	0.18034 0.03633 0.63117 -0.01600
C 	C 	0.17322 0.02612 0.68279 0.02700
H 	H 	0.13940 0.02050 0.69530 0.05900
C 	C 	0.40197 0.00653 0.86174 0.23800
C 	C 	0.13504 0.03449 0.59665 0.14200
O 	O 	0.53778 0.05211 0.97422 -1.73000
O 	O 	0.36840 0.98930 0.90870 -0.39100
O 	O 	0.45200 0.00540 0.85300 -0.28000
O 	O 	0.08700 0.03550 0.63020 -0.38900
O 	O 	0.15390 0.03150 0.54210 -0.40100
O 	O 	0.55105 0.06966 0.96566 0.61700
Zr	Zr	0.98568 0.98322 0.40776 3.23400
Cu	Cu	0.29371 0.98587 0.29169 0.91500
Cl	Cl	0.36889 0.02495 0.28931 -0.43100
Cl	Cl	0.29631 0.96074 0.37270 -0.42700
O 	O 	0.11928 0.00620 0.40283 -0.16100
O 	O 	0.05116 0.98560 0.35446 -0.27400
O 	O 	0.40787 0.96600 0.11784 -0.15500
O 	O 	0.35711 0.96699 0.04957 -0.10900
N 	N 	0.21781 0.98054 0.28557 -0.21600
N 	N 	0.28735 0.97610 0.21564 -0.20300
C 	C 	0.19943 0.97142 0.23836 0.06200
C 	C 	0.14766 0.96640 0.22833 -0.09400
H 	H 	0.13580 0.95780 0.19490 0.09200
C 	C 	0.11328 0.97410 0.26865 0.03000
H 	H 	0.07730 0.97160 0.26310 0.06400
C 	C 	0.13235 0.98555 0.31693 -0.07300
C 	C 	0.18525 0.98792 0.32384 0.05900
H 	H 	0.19840 0.99510 0.35710 0.04500
C 	C 	0.23923 0.96700 0.19800 0.04300
C 	C 	0.22966 0.95670 0.14722 -0.06500
H 	H 	0.19560 0.95070 0.13570 0.08000
C 	C 	0.27045 0.95520 0.11284 -0.01200
H 	H 	0.26470 0.94840 0.07750 0.09000
C 	C 	0.31966 0.96367 0.13117 -0.01500
C 	C 	0.32678 0.97388 0.18279 0.02700
H 	H 	0.36060 0.97950 0.19530 0.05900
C 	C 	0.09803 0.99347 0.36174 0.23800
C 	C 	0.36496 0.96551 0.09665 0.14200
O 	O 	0.96222 0.94789 0.47422 -1.73400
O 	O 	0.13160 0.01070 0.40870 -0.39200
O 	O 	0.04800 0.99460 0.35300 -0.28000
O 	O 	0.41300 0.96450 0.13020 -0.38900
O 	O 	0.34610 0.96850 0.04210 -0.40100
O 	O 	0.94895 0.93034 0.46566 0.61900
Zr	Zr	0.59224 0.48568 0.51678 3.23400
Cu	Cu	0.70831 0.79371 0.51413 0.91500
Cl	Cl	0.71069 0.86889 0.47505 -0.43000
Cl	Cl	0.62730 0.79631 0.53926 -0.42800
O 	O 	0.59717 0.61928 0.49380 -0.16100
O 	O 	0.64554 0.55116 0.51440 -0.27500
O 	O 	0.88216 0.90787 0.53400 -0.15500
O 	O 	0.95043 0.85711 0.53301 -0.11000
N 	N 	0.71443 0.71781 0.51946 -0.21600
N 	N 	0.78436 0.78735 0.52390 -0.20400
C 	C 	0.76164 0.69943 0.52858 0.06200
C 	C 	0.77167 0.64766 0.53360 -0.09400
H 	H 	0.80510 0.63580 0.54220 0.09200
C 	C 	0.73135 0.61328 0.52590 0.03000
H 	H 	0.73690 0.57730 0.52840 0.06400
C 	C 	0.68307 0.63235 0.51445 -0.07400
C 	C 	0.67616 0.68525 0.51208 0.05900
H 	H 	0.64290 0.69840 0.50490 0.04500
C 	C 	0.80200 0.73923 0.53300 0.04300
C 	C 	0.85278 0.72966 0.54330 -0.06500
H 	H 	0.86430 0.69560 0.54930 0.08000
C 	C 	0.88716 0.77045 0.54480 -0.01200
H 	H 	0.92250 0.76470 0.55160 0.09000
C 	C 	0.86883 0.81966 0.53633 -0.01600
C 	C 	0.81721 0.82678 0.52612 0.02600
H 	H 	0.80470 0.86060 0.52050 0.05900
C 	C 	0.63826 0.59803 0.50653 0.23700
C 	C 	0.90335 0.86496 0.53449 0.14200
O 	O 	0.52578 0.46222 0.55211 -1.73200
O 	O 	0.59130 0.63160 0.48930 -0.39000
O 	O 	0.64700 0.54800 0.50540 -0.28000
O 	O 	0.86980 0.91300 0.53550 -0.38900
O 	O 	0.95790 0.84610 0.53150 -0.40100
O 	O 	0.53434 0.44895 0.56966 0.61800
Zr	Zr	0.09224 0.01432 0.48322 3.23400
Cu	Cu	0.20831 0.70629 0.48587 0.91500
Cl	Cl	0.21069 0.63111 0.52495 -0.43000
Cl	Cl	0.12730 0.70369 0.46074 -0.42800
O 	O 	0.09717 0.88072 0.50620 -0.16100
O 	O 	0.14554 0.94884 0.48560 -0.27500
O 	O 	0.38216 0.59213 0.46600 -0.15500
O 	O 	0.45043 0.64289 0.46699 -0.11000
N 	N 	0.21443 0.78219 0.48054 -0.21600
N 	N 	0.28436 0.71265 0.47610 -0.20400
C 	C 	0.26164 0.80057 0.47142 0.06200
C 	C 	0.27167 0.85234 0.46640 -0.09400
H 	H 	0.30510 0.86420 0.45780 0.09200
C 	C 	0.23135 0.88672 0.47410 0.03000
H 	H 	0.23690 0.92270 0.47160 0.06400
C 	C 	0.18307 0.86765 0.48555 -0.07300
C 	C 	0.17616 0.81475 0.48792 0.05900
H 	H 	0.14290 0.80160 0.49510 0.04500
C 	C 	0.30200 0.76077 0.46700 0.04300
C 	C 	0.35278 0.77034 0.45670 -0.06500
H 	H 	0.36430 0.80440 0.45070 0.08000
C 	C 	0.38716 0.72955 0.45520 -0.01200
H 	H 	0.42250 0.73530 0.44840 0.09000
C 	C 	0.36883 0.68034 0.46367 -0.01600
C 	C 	0.31721 0.67322 0.47388 0.02600
H 	H 	0.30470 0.63940 0.47950 0.05900
C 	C 	0.13826 0.90197 0.49347 0.23700
C 	C 	0.40335 0.63504 0.46551 0.14200
O 	O 	0.02578 0.03778 0.44789 -1.73300
O 	O 	0.09130 0.86840 0.51070 -0.39000
O 	O 	0.14700 0.95200 0.49460 -0.28000
O 	O 	0.36980 0.58700 0.46450 -0.38900
O 	O 	0.45790 0.65390 0.46850 -0.40100
O 	O 	0.03434 0.05105 0.43034 0.61800
Zr	Zr	0.90776 0.51432 0.01678 3.23400
Cu	Cu	0.79169 0.20629 0.01413 0.91500
Cl	Cl	0.78931 0.13111 0.97505 -0.43000
Cl	Cl	0.87270 0.20369 0.03926 -0.42700
O 	O 	0.90283 0.38072 0.99380 -0.16100
O 	O 	0.85446 0.44884 0.01440 -0.27500
O 	O 	0.61784 0.09213 0.03400 -0.15500
O 	O 	0.54957 0.14289 0.03301 -0.11000
N 	N 	0.78557 0.28219 0.01946 -0.21600
N 	N 	0.71564 0.21265 0.02390 -0.20400
C 	C 	0.73836 0.30057 0.02858 0.06200
C 	C 	0.72833 0.35234 0.03360 -0.09400
H 	H 	0.69490 0.36420 0.04220 0.09200
C 	C 	0.76865 0.38672 0.02590 0.03000
H 	H 	0.76310 0.42270 0.02840 0.06400
C 	C 	0.81693 0.36765 0.01445 -0.07300
C 	C 	0.82384 0.31475 0.01208 0.05900
H 	H 	0.85710 0.30160 0.00490 0.04500
C 	C 	0.69800 0.26077 0.03300 0.04300
C 	C 	0.64722 0.27034 0.04330 -0.06500
H 	H 	0.63570 0.30440 0.04930 0.08000
C 	C 	0.61284 0.22955 0.04480 -0.01200
H 	H 	0.57750 0.23530 0.05160 0.09000
C 	C 	0.63117 0.18034 0.03633 -0.01600
C 	C 	0.68279 0.17322 0.02612 0.02700
H 	H 	0.69530 0.13940 0.02050 0.05900
C 	C 	0.86174 0.40197 0.00653 0.23800
C 	C 	0.59665 0.13504 0.03449 0.14200
O 	O 	0.97422 0.53778 0.05211 -1.73000
O 	O 	0.90870 0.36840 0.98930 -0.39100
O 	O 	0.85300 0.45200 0.00540 -0.28000
O 	O 	0.63020 0.08700 0.03550 -0.38900
O 	O 	0.54210 0.15390 0.03150 -0.40100
O 	O 	0.96566 0.55105 0.06966 0.61700
Zr	Zr	0.40776 0.98568 0.98322 3.23400
Cu	Cu	0.29169 0.29371 0.98587 0.91500
Cl	Cl	0.28931 0.36889 0.02495 -0.43100
Cl	Cl	0.37270 0.29631 0.96074 -0.42700
O 	O 	0.40283 0.11928 0.00620 -0.16100
O 	O 	0.35446 0.05116 0.98560 -0.27400
O 	O 	0.11784 0.40787 0.96600 -0.15500
O 	O 	0.04957 0.35711 0.96699 -0.10900
N 	N 	0.28557 0.21781 0.98054 -0.21600
N 	N 	0.21564 0.28735 0.97610 -0.20300
C 	C 	0.23836 0.19943 0.97142 0.06200
C 	C 	0.22833 0.14766 0.96640 -0.09400
H 	H 	0.19490 0.13580 0.95780 0.09200
C 	C 	0.26865 0.11328 0.97410 0.03000
H 	H 	0.26310 0.07730 0.97160 0.06400
C 	C 	0.31693 0.13235 0.98555 -0.07300
C 	C 	0.32384 0.18525 0.98792 0.05900
H 	H 	0.35710 0.19840 0.99510 0.04500
C 	C 	0.19800 0.23923 0.96700 0.04300
C 	C 	0.14722 0.22966 0.95670 -0.06500
H 	H 	0.13570 0.19560 0.95070 0.08000
C 	C 	0.11284 0.27045 0.95520 -0.01200
H 	H 	0.07750 0.26470 0.94840 0.09000
C 	C 	0.13117 0.31966 0.96367 -0.01500
C 	C 	0.18279 0.32678 0.97388 0.02700
H 	H 	0.19530 0.36060 0.97950 0.05900
C 	C 	0.36174 0.09803 0.99347 0.23800
C 	C 	0.09665 0.36496 0.96551 0.14200
O 	O 	0.47422 0.96222 0.94789 -1.73400
O 	O 	0.40870 0.13160 0.01070 -0.39200
O 	O 	0.35300 0.04800 0.99460 -0.28000
O 	O 	0.13020 0.41300 0.96450 -0.38900
O 	O 	0.04210 0.34610 0.96850 -0.40100
O 	O 	0.46566 0.94895 0.93034 0.61900
Zr	Zr	0.51678 0.59224 0.48568 3.23400
Cu	Cu	0.51413 0.70831 0.79371 0.91500
Cl	Cl	0.47505 0.71069 0.86889 -0.43000
Cl	Cl	0.53926 0.62730 0.79631 -0.42800
O 	O 	0.49380 0.59717 0.61928 -0.16100
O 	O 	0.51440 0.64554 0.55116 -0.27500
O 	O 	0.53400 0.88216 0.90787 -0.15500
O 	O 	0.53301 0.95043 0.85711 -0.11000
N 	N 	0.51946 0.71443 0.71781 -0.21600
N 	N 	0.52390 0.78436 0.78735 -0.20400
C 	C 	0.52858 0.76164 0.69943 0.06200
C 	C 	0.53360 0.77167 0.64766 -0.09400
H 	H 	0.54220 0.80510 0.63580 0.09200
C 	C 	0.52590 0.73135 0.61328 0.03000
H 	H 	0.52840 0.73690 0.57730 0.06400
C 	C 	0.51445 0.68307 0.63235 -0.07400
C 	C 	0.51208 0.67616 0.68525 0.05900
H 	H 	0.50490 0.64290 0.69840 0.04500
C 	C 	0.53300 0.80200 0.73923 0.04300
C 	C 	0.54330 0.85278 0.72966 -0.06500
H 	H 	0.54930 0.86430 0.69560 0.08000
C 	C 	0.54480 0.88716 0.77045 -0.01200
H 	H 	0.55160 0.92250 0.76470 0.09000
C 	C 	0.53633 0.86883 0.81966 -0.01600
C 	C 	0.52612 0.81721 0.82678 0.02600
H 	H 	0.52050 0.80470 0.86060 0.05900
C 	C 	0.50653 0.63826 0.59803 0.23700
C 	C 	0.53449 0.90335 0.86496 0.14200
O 	O 	0.55211 0.52578 0.46222 -1.73200
O 	O 	0.48930 0.59130 0.63160 -0.39000
O 	O 	0.50540 0.64700 0.54800 -0.28000
O 	O 	0.53550 0.86980 0.91300 -0.38900
O 	O 	0.53150 0.95790 0.84610 -0.40100
O 	O 	0.56966 0.53434 0.44895 0.61800
Zr	Zr	0.48322 0.09224 0.01432 3.23400
Cu	Cu	0.48587 0.20831 0.70629 0.91500
Cl	Cl	0.52495 0.21069 0.63111 -0.43000
Cl	Cl	0.46074 0.12730 0.70369 -0.42800
O 	O 	0.50620 0.09717 0.88072 -0.16100
O 	O 	0.48560 0.14554 0.94884 -0.27500
O 	O 	0.46600 0.38216 0.59213 -0.15500
O 	O 	0.46699 0.45043 0.64289 -0.11000
N 	N 	0.48054 0.21443 0.78219 -0.21600
N 	N 	0.47610 0.28436 0.71265 -0.20400
C 	C 	0.47142 0.26164 0.80057 0.06200
C 	C 	0.46640 0.27167 0.85234 -0.09400
H 	H 	0.45780 0.30510 0.86420 0.09200
C 	C 	0.47410 0.23135 0.88672 0.03000
H 	H 	0.47160 0.23690 0.92270 0.06400
C 	C 	0.48555 0.18307 0.86765 -0.07300
C 	C 	0.48792 0.17616 0.81475 0.05900
H 	H 	0.49510 0.14290 0.80160 0.04500
C 	C 	0.46700 0.30200 0.76077 0.04300
C 	C 	0.45670 0.35278 0.77034 -0.06500
H 	H 	0.45070 0.36430 0.80440 0.08000
C 	C 	0.45520 0.38716 0.72955 -0.01200
H 	H 	0.44840 0.42250 0.73530 0.09000
C 	C 	0.46367 0.36883 0.68034 -0.01600
C 	C 	0.47388 0.31721 0.67322 0.02600
H 	H 	0.47950 0.30470 0.63940 0.05900
C 	C 	0.49347 0.13826 0.90197 0.23700
C 	C 	0.46551 0.40335 0.63504 0.14200
O 	O 	0.44789 0.02578 0.03778 -1.73300
O 	O 	0.51070 0.09130 0.86840 -0.39000
O 	O 	0.49460 0.14700 0.95200 -0.28000
O 	O 	0.46450 0.36980 0.58700 -0.38900
O 	O 	0.46850 0.45790 0.65390 -0.40100
O 	O 	0.43034 0.03434 0.05105 0.61800
Zr	Zr	0.01678 0.90776 0.51432 3.23400
Cu	Cu	0.01413 0.79169 0.20629 0.91500
Cl	Cl	0.97505 0.78931 0.13111 -0.43000
Cl	Cl	0.03926 0.87270 0.20369 -0.42700
O 	O 	0.99380 0.90283 0.38072 -0.16100
O 	O 	0.01440 0.85446 0.44884 -0.27500
O 	O 	0.03400 0.61784 0.09213 -0.15500
O 	O 	0.03301 0.54957 0.14289 -0.11000
N 	N 	0.01946 0.78557 0.28219 -0.21600
N 	N 	0.02390 0.71564 0.21265 -0.20400
C 	C 	0.02858 0.73836 0.30057 0.06200
C 	C 	0.03360 0.72833 0.35234 -0.09400
H 	H 	0.04220 0.69490 0.36420 0.09200
C 	C 	0.02590 0.76865 0.38672 0.03000
H 	H 	0.02840 0.76310 0.42270 0.06400
C 	C 	0.01445 0.81693 0.36765 -0.07300
C 	C 	0.01208 0.82384 0.31475 0.05900
H 	H 	0.00490 0.85710 0.30160 0.04500
C 	C 	0.03300 0.69800 0.26077 0.04300
C 	C 	0.04330 0.64722 0.27034 -0.06500
H 	H 	0.04930 0.63570 0.30440 0.08000
C 	C 	0.04480 0.61284 0.22955 -0.01200
H 	H 	0.05160 0.57750 0.23530 0.09000
C 	C 	0.03633 0.63117 0.18034 -0.01600
C 	C 	0.02612 0.68279 0.17322 0.02700
H 	H 	0.02050 0.69530 0.13940 0.05900
C 	C 	0.00653 0.86174 0.40197 0.23800
C 	C 	0.03449 0.59665 0.13504 0.14200
O 	O 	0.05211 0.97422 0.53778 -1.73000
O 	O 	0.98930 0.90870 0.36840 -0.39100
O 	O 	0.00540 0.85300 0.45200 -0.28000
O 	O 	0.03550 0.63020 0.08700 -0.38900
O 	O 	0.03150 0.54210 0.15390 -0.40100
O 	O 	0.06966 0.96566 0.55105 0.61700
Zr	Zr	0.98322 0.40776 0.98568 3.23400
Cu	Cu	0.98587 0.29169 0.29371 0.91500
Cl	Cl	0.02495 0.28931 0.36889 -0.43100
Cl	Cl	0.96074 0.37270 0.29631 -0.42700
O 	O 	0.00620 0.40283 0.11928 -0.16100
O 	O 	0.98560 0.35446 0.05116 -0.27400
O 	O 	0.96600 0.11784 0.40787 -0.15500
O 	O 	0.96699 0.04957 0.35711 -0.10900
N 	N 	0.98054 0.28557 0.21781 -0.21600
N 	N 	0.97610 0.21564 0.28735 -0.20300
C 	C 	0.97142 0.23836 0.19943 0.06200
C 	C 	0.96640 0.22833 0.14766 -0.09400
H 	H 	0.95780 0.19490 0.13580 0.09200
C 	C 	0.97410 0.26865 0.11328 0.03000
H 	H 	0.97160 0.26310 0.07730 0.06400
C 	C 	0.98555 0.31693 0.13235 -0.07300
C 	C 	0.98792 0.32384 0.18525 0.05900
H 	H 	0.99510 0.35710 0.19840 0.04500
C 	C 	0.96700 0.19800 0.23923 0.04300
C 	C 	0.95670 0.14722 0.22966 -0.06500
H 	H 	0.95070 0.13570 0.19560 0.08000
C 	C 	0.95520 0.11284 0.27045 -0.01200
H 	H 	0.94840 0.07750 0.26470 0.09000
C 	C 	0.96367 0.13117 0.31966 -0.01500
C 	C 	0.97388 0.18279 0.32678 0.02700
H 	H 	0.97950 0.19530 0.36060 0.05900
C 	C 	0.99347 0.36174 0.09803 0.23800
C 	C 	0.96551 0.09665 0.36496 0.14200
O 	O 	0.94789 0.47422 0.96222 -1.73400
O 	O 	0.01070 0.40870 0.13160 -0.39200
O 	O 	0.99460 0.35300 0.04800 -0.28000
O 	O 	0.96450 0.13020 0.41300 -0.38900
O 	O 	0.96850 0.04210 0.34610 -0.40100
O 	O 	0.93034 0.46566 0.94895 0.61900
O 	O 	0.45998 0.45998 0.45998 -1.50500
O 	O 	0.44607 0.44607 0.44607 0.40500
O 	O 	0.04002 0.54002 0.95998 -1.50300
O 	O 	0.05393 0.55393 0.94607 0.40400
O 	O 	0.54002 0.95998 0.04002 -1.50300
O 	O 	0.55393 0.94607 0.05393 0.40400
O 	O 	0.95998 0.04002 0.54002 -1.50300
O 	O 	0.94607 0.05393 0.55393 0.40400
O 	O 	0.54002 0.54002 0.54002 -1.50500
O 	O 	0.55393 0.55393 0.55393 0.40500
O 	O 	0.95998 0.45998 0.04002 -1.50300
O 	O 	0.94607 0.44607 0.05393 0.40400
O 	O 	0.45998 0.04002 0.95998 -1.50300
O 	O 	0.44607 0.05393 0.94607 0.40400
O 	O 	0.04002 0.95998 0.45998 -1.50300
O 	O 	0.05393 0.94607 0.44607 0.40400
