data_crystal

_cell_length_a 17.14300
_cell_length_b 17.14300
_cell_length_c 49.06870
_cell_angle_alpha 90.00000
_cell_angle_beta  90.00000
_cell_angle_gamma 90.00000

_symmetry_space_group_name_	'P 1'
_symmetry_space_group_name_H-M	'P 1'

loop_
_symmetry_equiv_pos_as_xyz
  x,y,z

loop_
_atom_site_label
_atom_site_type_symbol
_atom_site_fract_x
_atom_site_fract_y
_atom_site_fract_z
_atom_site_charge
Ir	Ir	0.78429 0.70719 0.38308 0.35600
O 	O 	0.94270 0.62300 0.47862 -0.27800
O 	O 	0.91210 0.49980 0.48970 -0.40700
O 	O 	0.56690 0.63300 0.30030 -0.29300
O 	O 	0.58260 0.50590 0.29202 -0.43900
C 	C 	0.85620 0.55280 0.44997 -0.12600
C 	C 	0.67510 0.71670 0.43170 0.08400
H 	H 	0.70180 0.67350 0.43830 0.01000
C 	C 	0.67940 0.83590 0.37070 0.00400
C 	C 	0.63080 0.55900 0.33291 -0.13900
C 	C 	0.74310 0.79450 0.35900 -0.06600
C 	C 	0.71320 0.54810 0.38032 0.07800
C 	C 	0.76930 0.81450 0.33250 -0.01000
H 	H 	0.81090 0.78820 0.32450 0.04600
C 	C 	0.93300 0.78850 0.38260 0.00900
C 	C 	0.61610 0.74810 0.44720 -0.14400
H 	H 	0.60480 0.72730 0.46420 0.08900
C 	C 	0.64380 0.89620 0.35670 -0.07000
H 	H 	0.60170 0.92280 0.36420 0.06300
C 	C 	0.92460 0.87440 0.42930 -0.10300
H 	H 	0.92370 0.90260 0.44550 0.08000
C 	C 	0.81090 0.49050 0.44593 0.06800
H 	H 	0.81120 0.44990 0.45850 0.02800
N 	N 	0.80760 0.61030 0.40930 -0.15300
C 	C 	0.67190 0.62260 0.34352 0.08300
H 	H 	0.67180 0.66970 0.33410 0.01500
C 	C 	0.67030 0.48490 0.37080 -0.14800
H 	H 	0.66930 0.43850 0.38070 0.08700
C 	C 	0.93500 0.62550 0.31890 -0.21800
H 	H 	0.93390 0.58760 0.30530 0.11400
C 	C 	0.86420 0.78220 0.39848 -0.07700
N 	N 	0.71130 0.61680 0.36701 -0.15600
C 	C 	0.67240 0.91570 0.33160 -0.00200
H 	H 	0.65130 0.95860 0.32260 0.04300
C 	C 	0.58980 0.56770 0.30593 0.36500
C 	C 	0.65140 0.80580 0.39770 0.09300
C 	C 	0.76400 0.48590 0.42335 -0.13600
H 	H 	0.73400 0.44160 0.42040 0.07800
C 	C 	0.63070 0.49080 0.34754 0.08300
H 	H 	0.60270 0.44820 0.34110 0.01700
C 	C 	0.73140 0.87410 0.31880 -0.06200
H 	H 	0.74560 0.88640 0.30100 0.07000
C 	C 	0.99610 0.67710 0.32030 0.17600
H 	H 	0.03620 0.67500 0.30760 -0.04200
C 	C 	0.98710 0.88110 0.41110 0.06500
H 	H 	0.02600 0.91740 0.41480 -0.00400
C 	C 	0.99300 0.83930 0.38940 -0.05000
H 	H 	0.03700 0.84300 0.37840 0.03700
C 	C 	0.59030 0.83750 0.41230 -0.14800
H 	H 	0.56050 0.87750 0.40490 0.09000
C 	C 	0.99740 0.73000 0.34010 -0.14000
H 	H 	0.03920 0.76430 0.34130 0.07500
C 	C 	0.57440 0.80970 0.43750 0.07100
H 	H 	0.53540 0.83240 0.44800 0.03000
C 	C 	0.76130 0.54630 0.40526 0.07000
C 	C 	0.90720 0.56210 0.47445 0.33000
C 	C 	0.93690 0.73450 0.35890 0.09700
C 	C 	0.86230 0.82270 0.42220 0.01000
H 	H 	0.82010 0.81680 0.43400 0.03100
C 	C 	0.87660 0.63030 0.33729 0.13400
H 	H 	0.83620 0.59420 0.33630 -0.00900
C 	C 	0.85260 0.61310 0.43139 0.08300
H 	H 	0.88280 0.65740 0.43440 0.02300
N 	N 	0.87430 0.68400 0.35666 -0.17300
N 	N 	0.69550 0.74640 0.40726 -0.16500
Ir	Ir	0.28429 0.20719 0.88308 0.35100
O 	O 	0.44270 0.12300 0.97862 -0.29200
O 	O 	0.41210 0.99980 0.98970 -0.38500
O 	O 	0.06690 0.13300 0.80030 -0.31200
O 	O 	0.08260 0.00590 0.79202 -0.47100
C 	C 	0.35620 0.05280 0.94997 -0.17000
C 	C 	0.17510 0.21670 0.93170 0.08100
H 	H 	0.20180 0.17350 0.93830 0.00600
C 	C 	0.17940 0.33590 0.87070 0.00100
C 	C 	0.13080 0.05900 0.83291 -0.19500
C 	C 	0.24310 0.29450 0.85900 -0.06500
C 	C 	0.21320 0.04810 0.88032 0.05300
C 	C 	0.26930 0.31450 0.83250 -0.01200
H 	H 	0.31090 0.28820 0.82450 0.04300
C 	C 	0.43300 0.28850 0.88260 0.01100
C 	C 	0.11610 0.24810 0.94720 -0.14700
H 	H 	0.10480 0.22730 0.96420 0.08100
C 	C 	0.14380 0.39620 0.85670 -0.07300
H 	H 	0.10170 0.42280 0.86420 0.05000
C 	C 	0.42460 0.37440 0.92930 -0.08000
H 	H 	0.42370 0.40260 0.94550 0.05900
C 	C 	0.31090 0.99050 0.94593 0.11100
H 	H 	0.31120 0.94990 0.95850 0.01800
N 	N 	0.30760 0.11030 0.90930 -0.15400
C 	C 	0.17190 0.12260 0.84352 0.09900
H 	H 	0.17180 0.16970 0.83410 0.00900
C 	C 	0.17030 0.98490 0.87080 -0.13000
H 	H 	0.16930 0.93850 0.88070 0.08600
C 	C 	0.43500 0.12550 0.81890 -0.17800
H 	H 	0.43390 0.08760 0.80530 0.08300
C 	C 	0.36420 0.28220 0.89848 -0.07500
N 	N 	0.21130 0.11680 0.86701 -0.15800
C 	C 	0.17240 0.41570 0.83160 -0.00600
H 	H 	0.15130 0.45860 0.82260 0.03000
C 	C 	0.08980 0.06770 0.80593 0.37900
C 	C 	0.15140 0.30580 0.89770 0.08900
C 	C 	0.26400 0.98590 0.92335 -0.10500
H 	H 	0.23400 0.94160 0.92040 0.07300
C 	C 	0.13070 0.99080 0.84754 0.13700
H 	H 	0.10270 0.94820 0.84110 0.00100
C 	C 	0.23140 0.37410 0.81880 -0.06400
H 	H 	0.24560 0.38640 0.80100 0.06300
C 	C 	0.49610 0.17710 0.82030 0.10000
H 	H 	0.53620 0.17500 0.80760 0.00300
C 	C 	0.48710 0.38110 0.91110 0.01000
H 	H 	0.52600 0.41740 0.91480 0.02900
C 	C 	0.49300 0.33930 0.88940 -0.08500
H 	H 	0.53700 0.34300 0.87840 0.06600
C 	C 	0.09030 0.33750 0.91230 -0.15000
H 	H 	0.06050 0.37750 0.90490 0.07800
C 	C 	0.49740 0.23000 0.84010 -0.16400
H 	H 	0.53920 0.26430 0.84130 0.10200
C 	C 	0.07440 0.30970 0.93750 0.06600
H 	H 	0.03540 0.33240 0.94800 0.01800
C 	C 	0.26130 0.04630 0.90526 0.03700
C 	C 	0.40720 0.06210 0.97445 0.30300
C 	C 	0.43690 0.23450 0.85890 0.09200
C 	C 	0.36230 0.32270 0.92220 -0.00500
H 	H 	0.32010 0.31680 0.93400 0.03400
C 	C 	0.37660 0.13030 0.83729 0.10600
H 	H 	0.33620 0.09420 0.83630 -0.00800
C 	C 	0.35260 0.11310 0.93139 0.09000
H 	H 	0.38280 0.15740 0.93440 0.01500
N 	N 	0.37430 0.18400 0.85666 -0.16900
N 	N 	0.19550 0.24640 0.90726 -0.16500
Ir	Ir	0.71571 0.79281 0.88308 0.35400
O 	O 	0.55730 0.87700 0.97862 -0.29800
O 	O 	0.58790 0.00020 0.98970 -0.45000
O 	O 	0.93310 0.86700 0.80030 -0.27700
O 	O 	0.91740 0.99410 0.79202 -0.40100
C 	C 	0.64380 0.94720 0.94997 -0.09500
C 	C 	0.82490 0.78330 0.93170 0.08400
H 	H 	0.79820 0.82650 0.93830 0.01300
C 	C 	0.82060 0.66410 0.87070 0.00600
C 	C 	0.86920 0.94100 0.83291 -0.08600
C 	C 	0.75690 0.70550 0.85900 -0.06700
C 	C 	0.78680 0.95190 0.88032 0.10000
C 	C 	0.73070 0.68550 0.83250 -0.01000
H 	H 	0.68910 0.71180 0.82450 0.04300
C 	C 	0.56700 0.71150 0.88260 0.01000
C 	C 	0.88390 0.75190 0.94720 -0.13800
H 	H 	0.89520 0.77270 0.96420 0.09400
C 	C 	0.85620 0.60380 0.85670 -0.07300
H 	H 	0.89830 0.57720 0.86420 0.06400
C 	C 	0.57540 0.62560 0.92930 -0.08000
H 	H 	0.57630 0.59740 0.94550 0.05900
C 	C 	0.68910 0.00950 0.94593 0.03100
H 	H 	0.68880 0.05010 0.95850 0.03600
N 	N 	0.69240 0.88970 0.90930 -0.15400
C 	C 	0.82810 0.87740 0.84352 0.06800
H 	H 	0.82820 0.83030 0.83410 0.02100
C 	C 	0.82970 0.01510 0.87080 -0.16400
H 	H 	0.83070 0.06150 0.88070 0.08800
C 	C 	0.56500 0.87450 0.81890 -0.17500
H 	H 	0.56610 0.91240 0.80530 0.09800
C 	C 	0.63580 0.71780 0.89848 -0.07400
N 	N 	0.78870 0.88320 0.86701 -0.15400
C 	C 	0.82760 0.58430 0.83160 -0.00000
H 	H 	0.84870 0.54140 0.82260 0.03400
C 	C 	0.91020 0.93230 0.80593 0.34900
C 	C 	0.84860 0.69420 0.89770 0.09300
C 	C 	0.73600 0.01410 0.92335 -0.16900
H 	H 	0.76600 0.05840 0.92040 0.08500
C 	C 	0.86930 0.00920 0.84754 0.03200
H 	H 	0.89730 0.05180 0.84110 0.03300
C 	C 	0.76860 0.62590 0.81880 -0.06600
H 	H 	0.75440 0.61360 0.80100 0.06600
C 	C 	0.50390 0.82290 0.82030 0.10400
H 	H 	0.46380 0.82500 0.80760 0.00600
C 	C 	0.51290 0.61890 0.91110 0.01000
H 	H 	0.47400 0.58260 0.91480 0.02900
C 	C 	0.50700 0.66070 0.88940 -0.08400
H 	H 	0.46300 0.65700 0.87840 0.06600
C 	C 	0.90970 0.66250 0.91230 -0.14200
H 	H 	0.93950 0.62250 0.90490 0.09300
C 	C 	0.50260 0.77000 0.84010 -0.16500
H 	H 	0.46080 0.73570 0.84130 0.10200
C 	C 	0.92560 0.69030 0.93750 0.07100
H 	H 	0.96460 0.66760 0.94800 0.04100
C 	C 	0.73870 0.95370 0.90526 0.10200
C 	C 	0.59280 0.93790 0.97445 0.35900
C 	C 	0.56310 0.76550 0.85890 0.09400
C 	C 	0.63770 0.67730 0.92220 -0.00600
H 	H 	0.67990 0.68320 0.93400 0.03500
C 	C 	0.62340 0.86970 0.83729 0.11100
H 	H 	0.66380 0.90580 0.83630 0.00500
C 	C 	0.64740 0.88690 0.93139 0.07700
H 	H 	0.61720 0.84260 0.93440 0.02100
N 	N 	0.62570 0.81600 0.85666 -0.16800
N 	N 	0.80450 0.75360 0.90726 -0.16400
Ir	Ir	0.21571 0.29281 0.38308 0.34900
O 	O 	0.05730 0.37700 0.47862 -0.31300
O 	O 	0.08790 0.50020 0.48970 -0.42900
O 	O 	0.43310 0.36700 0.30030 -0.29600
O 	O 	0.41740 0.49410 0.29202 -0.44000
C 	C 	0.14380 0.44720 0.44997 -0.13800
C 	C 	0.32490 0.28330 0.43170 0.08100
H 	H 	0.29820 0.32650 0.43830 0.01000
C 	C 	0.32060 0.16410 0.37070 0.00300
C 	C 	0.36920 0.44100 0.33291 -0.13900
C 	C 	0.25690 0.20550 0.35900 -0.06600
C 	C 	0.28680 0.45190 0.38032 0.07600
C 	C 	0.23070 0.18550 0.33250 -0.01200
H 	H 	0.18910 0.21180 0.32450 0.04100
C 	C 	0.06700 0.21150 0.38260 0.01100
C 	C 	0.38390 0.25190 0.44720 -0.14100
H 	H 	0.39520 0.27270 0.46420 0.08600
C 	C 	0.35620 0.10380 0.35670 -0.07600
H 	H 	0.39830 0.07720 0.36420 0.05100
C 	C 	0.07540 0.12560 0.42930 -0.05400
H 	H 	0.07630 0.09740 0.44550 0.03500
C 	C 	0.18910 0.50950 0.44593 0.07300
H 	H 	0.18880 0.55010 0.45850 0.02500
N 	N 	0.19240 0.38970 0.40930 -0.15500
C 	C 	0.32810 0.37740 0.34352 0.08200
H 	H 	0.32820 0.33030 0.33410 0.01500
C 	C 	0.32970 0.51510 0.37080 -0.14700
H 	H 	0.33070 0.56150 0.38070 0.08700
C 	C 	0.06500 0.37450 0.31890 -0.13500
H 	H 	0.06610 0.41240 0.30530 0.06700
C 	C 	0.13580 0.21780 0.39848 -0.07100
N 	N 	0.28870 0.38320 0.36701 -0.15500
C 	C 	0.32760 0.08430 0.33160 -0.00400
H 	H 	0.34870 0.04140 0.32260 0.02100
C 	C 	0.41020 0.43230 0.30593 0.36500
C 	C 	0.34860 0.19420 0.39770 0.09000
C 	C 	0.23600 0.51410 0.42335 -0.14100
H 	H 	0.26600 0.55840 0.42040 0.08000
C 	C 	0.36930 0.50920 0.34754 0.08300
H 	H 	0.39730 0.55180 0.34110 0.01700
C 	C 	0.26860 0.12590 0.31880 -0.06800
H 	H 	0.25440 0.11360 0.30100 0.05900
C 	C 	0.00390 0.32290 0.32030 0.02800
H 	H 	0.96380 0.32500 0.30760 0.05100
C 	C 	0.01290 0.11890 0.41110 -0.05200
H 	H 	0.97400 0.08260 0.41480 0.06500
C 	C 	0.00700 0.16070 0.38940 -0.11900
H 	H 	0.96300 0.15700 0.37840 0.09600
C 	C 	0.40970 0.16250 0.41230 -0.14400
H 	H 	0.43950 0.12250 0.40490 0.08100
C 	C 	0.00260 0.27000 0.34010 -0.19200
H 	H 	0.96080 0.23570 0.34130 0.13100
C 	C 	0.42560 0.19030 0.43750 0.06500
H 	H 	0.46460 0.16760 0.44800 0.02900
C 	C 	0.23870 0.45370 0.40526 0.07100
C 	C 	0.09280 0.43790 0.47445 0.33300
C 	C 	0.06310 0.26550 0.35890 0.09000
C 	C 	0.13770 0.17730 0.42220 -0.02300
H 	H 	0.17990 0.18320 0.43400 0.03800
C 	C 	0.12340 0.36970 0.33729 0.08300
H 	H 	0.16380 0.40580 0.33630 0.00600
C 	C 	0.14740 0.38690 0.43139 0.08400
H 	H 	0.11720 0.34260 0.43440 0.01200
N 	N 	0.12570 0.31600 0.35666 -0.16400
N 	N 	0.30450 0.25360 0.40726 -0.16400
Ir	Ir	0.29281 0.71571 0.13308 0.35300
O 	O 	0.37700 0.55730 0.22862 -0.29700
O 	O 	0.50020 0.58790 0.23970 -0.42000
O 	O 	0.36700 0.93310 0.05030 -0.28500
O 	O 	0.49410 0.91740 0.04202 -0.42700
C 	C 	0.44720 0.64380 0.19997 -0.13200
C 	C 	0.28330 0.82490 0.18170 0.08300
H 	H 	0.32650 0.79820 0.18830 0.01100
C 	C 	0.16410 0.82060 0.12070 0.00600
C 	C 	0.44100 0.86920 0.08291 -0.13300
C 	C 	0.20550 0.75690 0.10900 -0.06800
C 	C 	0.45190 0.78680 0.13032 0.07600
C 	C 	0.18550 0.73070 0.08250 -0.01000
H 	H 	0.21180 0.68910 0.07450 0.04200
C 	C 	0.21150 0.56700 0.13260 0.01100
C 	C 	0.25190 0.88390 0.19720 -0.13700
H 	H 	0.27270 0.89520 0.21420 0.09200
C 	C 	0.10380 0.85620 0.10670 -0.07600
H 	H 	0.07720 0.89830 0.11420 0.05900
C 	C 	0.12560 0.57540 0.17930 -0.08400
H 	H 	0.09740 0.57630 0.19550 0.05400
C 	C 	0.50950 0.68910 0.19593 0.07100
H 	H 	0.55010 0.68880 0.20850 0.02700
N 	N 	0.38970 0.69240 0.15930 -0.15400
C 	C 	0.37740 0.82810 0.09352 0.08100
H 	H 	0.33030 0.82820 0.08410 0.01600
C 	C 	0.51510 0.82970 0.12080 -0.14300
H 	H 	0.56150 0.83070 0.13070 0.08500
C 	C 	0.37450 0.56500 0.06890 -0.17700
H 	H 	0.41240 0.56610 0.05530 0.09000
C 	C 	0.21780 0.63580 0.14848 -0.07600
N 	N 	0.38320 0.78870 0.11701 -0.15500
C 	C 	0.08430 0.82760 0.08160 -0.00100
H 	H 	0.04140 0.84870 0.07260 0.02400
C 	C 	0.43230 0.91020 0.05593 0.36300
C 	C 	0.19420 0.84860 0.14770 0.09200
C 	C 	0.51410 0.73600 0.17335 -0.13800
H 	H 	0.55840 0.76600 0.17040 0.08000
C 	C 	0.50920 0.86930 0.09754 0.08000
H 	H 	0.55180 0.89730 0.09110 0.02300
C 	C 	0.12590 0.76860 0.06880 -0.06900
H 	H 	0.11360 0.75440 0.05100 0.06100
C 	C 	0.32290 0.50390 0.07030 0.10200
H 	H 	0.32500 0.46380 0.05760 0.00400
C 	C 	0.11890 0.51290 0.16110 0.01100
H 	H 	0.08260 0.47400 0.16480 0.02000
C 	C 	0.16070 0.50700 0.13940 -0.08800
H 	H 	0.15700 0.46300 0.12840 0.06500
C 	C 	0.16250 0.90970 0.16230 -0.14000
H 	H 	0.12250 0.93950 0.15490 0.08800
C 	C 	0.27000 0.50260 0.09010 -0.16500
H 	H 	0.23570 0.46080 0.09130 0.10200
C 	C 	0.19030 0.92560 0.18750 0.06800
H 	H 	0.16760 0.96460 0.19800 0.04100
C 	C 	0.45370 0.73870 0.15526 0.07100
C 	C 	0.43790 0.59280 0.22445 0.33200
C 	C 	0.26550 0.56310 0.10890 0.09200
C 	C 	0.17730 0.63770 0.17220 -0.00600
H 	H 	0.18320 0.67990 0.18400 0.03300
C 	C 	0.36970 0.62340 0.08729 0.10800
H 	H 	0.40580 0.66380 0.08630 -0.00100
C 	C 	0.38690 0.64740 0.18139 0.08300
H 	H 	0.34260 0.61720 0.18440 0.01800
N 	N 	0.31600 0.62570 0.10666 -0.16800
N 	N 	0.25360 0.80450 0.15726 -0.16400
Ir	Ir	0.79281 0.21571 0.63308 0.35000
O 	O 	0.87700 0.05730 0.72862 -0.31400
O 	O 	0.00020 0.08790 0.73970 -0.46000
O 	O 	0.86700 0.43310 0.55030 -0.28700
O 	O 	0.99410 0.41740 0.54202 -0.41300
C 	C 	0.94720 0.14380 0.69997 -0.09900
C 	C 	0.78330 0.32490 0.68170 0.08200
H 	H 	0.82650 0.29820 0.68830 0.01300
C 	C 	0.66410 0.32060 0.62070 0.00300
C 	C 	0.94100 0.36920 0.58291 -0.09000
C 	C 	0.70550 0.25690 0.60900 -0.06600
C 	C 	0.95190 0.28680 0.63032 0.10100
C 	C 	0.68550 0.23070 0.58250 -0.01200
H 	H 	0.71180 0.18910 0.57450 0.04300
C 	C 	0.71150 0.06700 0.63260 0.01000
C 	C 	0.75190 0.38390 0.69720 -0.14200
H 	H 	0.77270 0.39520 0.71420 0.08900
C 	C 	0.60380 0.35620 0.60670 -0.07300
H 	H 	0.57720 0.39830 0.61420 0.05700
C 	C 	0.62560 0.07540 0.67930 -0.05000
H 	H 	0.59740 0.07630 0.69550 0.04100
C 	C 	0.00950 0.18910 0.69593 0.03200
H 	H 	0.05010 0.18880 0.70850 0.03300
N 	N 	0.88970 0.19240 0.65930 -0.15600
C 	C 	0.87740 0.32810 0.59352 0.06900
H 	H 	0.83030 0.32820 0.58410 0.02000
C 	C 	0.01510 0.32970 0.62080 -0.16900
H 	H 	0.06150 0.33070 0.63070 0.08900
C 	C 	0.87450 0.06500 0.56890 -0.13600
H 	H 	0.91240 0.06610 0.55530 0.07700
C 	C 	0.71780 0.13580 0.64848 -0.07000
N 	N 	0.88320 0.28870 0.61701 -0.15400
C 	C 	0.58430 0.32760 0.58160 -0.00300
H 	H 	0.54140 0.34870 0.57260 0.03200
C 	C 	0.93230 0.41020 0.55593 0.35000
C 	C 	0.69420 0.34860 0.64770 0.09100
C 	C 	0.01410 0.23600 0.67335 -0.17300
H 	H 	0.05840 0.26600 0.67040 0.08600
C 	C 	0.00920 0.36930 0.59754 0.03200
H 	H 	0.05180 0.39730 0.59110 0.02700
C 	C 	0.62590 0.26860 0.56880 -0.06500
H 	H 	0.61360 0.25440 0.55100 0.06400
C 	C 	0.82290 0.00390 0.57030 0.03500
H 	H 	0.82500 0.96380 0.55760 0.05000
C 	C 	0.61890 0.01290 0.66110 -0.05200
H 	H 	0.58260 0.97400 0.66480 0.07200
C 	C 	0.66070 0.00700 0.63940 -0.11400
H 	H 	0.65700 0.96300 0.62840 0.09500
C 	C 	0.66250 0.40970 0.66230 -0.14600
H 	H 	0.62250 0.43950 0.65490 0.08500
C 	C 	0.77000 0.00260 0.59010 -0.19100
H 	H 	0.73570 0.96080 0.59130 0.13000
C 	C 	0.69030 0.42560 0.68750 0.06800
H 	H 	0.66760 0.46460 0.69800 0.03000
C 	C 	0.95370 0.23870 0.65526 0.10300
C 	C 	0.93790 0.09280 0.72445 0.36100
C 	C 	0.76550 0.06310 0.60890 0.09200
C 	C 	0.67730 0.13770 0.67220 -0.02300
H 	H 	0.68320 0.17990 0.68400 0.03900
C 	C 	0.86970 0.12340 0.58729 0.08700
H 	H 	0.90580 0.16380 0.58630 0.01300
C 	C 	0.88690 0.14740 0.68139 0.07700
H 	H 	0.84260 0.11720 0.68440 0.01600
N 	N 	0.81600 0.12570 0.60666 -0.16400
N 	N 	0.75360 0.30450 0.65726 -0.16400
Ir	Ir	0.20719 0.78429 0.63308 0.35400
O 	O 	0.12300 0.94270 0.72862 -0.27500
O 	O 	0.99980 0.91210 0.73970 -0.37400
O 	O 	0.13300 0.56690 0.55030 -0.30200
O 	O 	0.00590 0.58260 0.54202 -0.46200
C 	C 	0.05280 0.85620 0.69997 -0.16100
C 	C 	0.21670 0.67510 0.68170 0.08300
H 	H 	0.17350 0.70180 0.68830 0.00700
C 	C 	0.33590 0.67940 0.62070 0.00400
C 	C 	0.05900 0.63080 0.58291 -0.18700
C 	C 	0.29450 0.74310 0.60900 -0.06700
C 	C 	0.04810 0.71320 0.63032 0.05400
C 	C 	0.31450 0.76930 0.58250 -0.01000
H 	H 	0.28820 0.81090 0.57450 0.04400
C 	C 	0.28850 0.93300 0.63260 0.01000
C 	C 	0.24810 0.61610 0.69720 -0.14300
H 	H 	0.22730 0.60480 0.71420 0.08600
C 	C 	0.39620 0.64380 0.60670 -0.07300
H 	H 	0.42280 0.60170 0.61420 0.05700
C 	C 	0.37440 0.92460 0.67930 -0.10900
H 	H 	0.40260 0.92370 0.69550 0.07600
C 	C 	0.99050 0.81090 0.69593 0.10600
H 	H 	0.94990 0.81120 0.70850 0.02100
N 	N 	0.11030 0.80760 0.65930 -0.15200
C 	C 	0.12260 0.67190 0.59352 0.09700
H 	H 	0.16970 0.67180 0.58410 0.01000
C 	C 	0.98490 0.67030 0.62080 -0.12700
H 	H 	0.93850 0.66930 0.63070 0.08500
C 	C 	0.12550 0.93500 0.56890 -0.22000
H 	H 	0.08760 0.93390 0.55530 0.10700
C 	C 	0.28220 0.86420 0.64848 -0.07900
N 	N 	0.11680 0.71130 0.61701 -0.15700
C 	C 	0.41570 0.67240 0.58160 -0.00300
H 	H 	0.45860 0.65130 0.57260 0.03200
C 	C 	0.06770 0.58980 0.55593 0.37800
C 	C 	0.30580 0.65140 0.64770 0.09100
C 	C 	0.98590 0.76400 0.67335 -0.10400
H 	H 	0.94160 0.73400 0.67040 0.07300
C 	C 	0.99080 0.63070 0.59754 0.13300
H 	H 	0.94820 0.60270 0.59110 0.00700
C 	C 	0.37410 0.73140 0.56880 -0.06500
H 	H 	0.38640 0.74560 0.55100 0.06500
C 	C 	0.17710 0.99610 0.57030 0.17600
H 	H 	0.17500 0.03620 0.55760 -0.04500
C 	C 	0.38110 0.98710 0.66110 0.07100
H 	H 	0.41740 0.02600 0.66480 -0.01500
C 	C 	0.33930 0.99300 0.63940 -0.05200
H 	H 	0.34300 0.03700 0.62840 0.03500
C 	C 	0.33750 0.59030 0.66230 -0.14600
H 	H 	0.37750 0.56050 0.65490 0.08500
C 	C 	0.23000 0.99740 0.59010 -0.13800
H 	H 	0.26430 0.03920 0.59130 0.07300
C 	C 	0.30970 0.57440 0.68750 0.06800
H 	H 	0.33240 0.53540 0.69800 0.02900
C 	C 	0.04630 0.76130 0.65526 0.03900
C 	C 	0.06210 0.90720 0.72445 0.30300
C 	C 	0.23450 0.93690 0.60890 0.09500
C 	C 	0.32270 0.86230 0.67220 0.01100
H 	H 	0.31680 0.82010 0.68400 0.02900
C 	C 	0.13030 0.87660 0.58729 0.13200
H 	H 	0.09420 0.83620 0.58630 -0.01500
C 	C 	0.11310 0.85260 0.68139 0.08900
H 	H 	0.15740 0.88280 0.68440 0.02000
N 	N 	0.18400 0.87430 0.60666 -0.17400
N 	N 	0.24640 0.69550 0.65726 -0.16500
Ir	Ir	0.70719 0.28429 0.13308 0.35200
O 	O 	0.62300 0.44270 0.22862 -0.29600
O 	O 	0.49980 0.41210 0.23970 -0.42100
O 	O 	0.63300 0.06690 0.05030 -0.30400
O 	O 	0.50590 0.08260 0.04202 -0.44900
C 	C 	0.55280 0.35620 0.19997 -0.13200
C 	C 	0.71670 0.17510 0.18170 0.08200
H 	H 	0.67350 0.20180 0.18830 0.00900
C 	C 	0.83590 0.17940 0.12070 0.00200
C 	C 	0.55900 0.13080 0.08291 -0.14500
C 	C 	0.79450 0.24310 0.10900 -0.06500
C 	C 	0.54810 0.21320 0.13032 0.07800
C 	C 	0.81450 0.26930 0.08250 -0.01200
H 	H 	0.78820 0.31090 0.07450 0.04500
C 	C 	0.78850 0.43300 0.13260 0.01000
C 	C 	0.74810 0.11610 0.19720 -0.14700
H 	H 	0.72730 0.10480 0.21420 0.08400
C 	C 	0.89620 0.14380 0.10670 -0.06900
H 	H 	0.92280 0.10170 0.11420 0.05600
C 	C 	0.87440 0.42460 0.17930 -0.07600
H 	H 	0.90260 0.42370 0.19550 0.06400
C 	C 	0.49050 0.31090 0.19593 0.07000
H 	H 	0.44990 0.31120 0.20850 0.02600
N 	N 	0.61030 0.30760 0.15930 -0.15400
C 	C 	0.62260 0.17190 0.09352 0.08500
H 	H 	0.66970 0.17180 0.08410 0.01400
C 	C 	0.48490 0.17030 0.12080 -0.15200
H 	H 	0.43850 0.16930 0.13070 0.08800
C 	C 	0.62550 0.43500 0.06890 -0.17600
H 	H 	0.58760 0.43390 0.05530 0.09000
C 	C 	0.78220 0.36420 0.14848 -0.07300
N 	N 	0.61680 0.21130 0.11701 -0.15700
C 	C 	0.91570 0.17240 0.08160 -0.00600
H 	H 	0.95860 0.15130 0.07260 0.04100
C 	C 	0.56770 0.08980 0.05593 0.36600
C 	C 	0.80580 0.15140 0.14770 0.09100
C 	C 	0.48590 0.26400 0.17335 -0.13900
H 	H 	0.44160 0.23400 0.17040 0.07900
C 	C 	0.49080 0.13070 0.09754 0.08600
H 	H 	0.44820 0.10270 0.09110 0.01100
C 	C 	0.87410 0.23140 0.06880 -0.06100
H 	H 	0.88640 0.24560 0.05100 0.06700
C 	C 	0.67710 0.49610 0.07030 0.10200
H 	H 	0.67500 0.53620 0.05760 0.00400
C 	C 	0.88110 0.48710 0.16110 0.00900
H 	H 	0.91740 0.52600 0.16480 0.03700
C 	C 	0.83930 0.49300 0.13940 -0.08100
H 	H 	0.84300 0.53700 0.12840 0.06700
C 	C 	0.83750 0.09030 0.16230 -0.15200
H 	H 	0.87750 0.06050 0.15490 0.08300
C 	C 	0.73000 0.49740 0.09010 -0.16400
H 	H 	0.76430 0.53920 0.09130 0.10200
C 	C 	0.80970 0.07440 0.18750 0.06900
H 	H 	0.83240 0.03540 0.19800 0.01900
C 	C 	0.54630 0.26130 0.15526 0.07000
C 	C 	0.56210 0.40720 0.22445 0.33100
C 	C 	0.73450 0.43690 0.10890 0.09400
C 	C 	0.82270 0.36230 0.17220 -0.00500
H 	H 	0.81680 0.32010 0.18400 0.03500
C 	C 	0.63030 0.37660 0.08729 0.10800
H 	H 	0.59420 0.33620 0.08630 -0.00100
C 	C 	0.61310 0.35260 0.18139 0.08300
H 	H 	0.65740 0.38280 0.18440 0.01800
N 	N 	0.68400 0.37430 0.10666 -0.16800
N 	N 	0.74640 0.19550 0.15726 -0.16500
Zn	Zn	0.50000 0.50000 0.26488 1.24500
Zn	Zn	0.00000 0.00000 0.76488 1.22400
Zn	Zn	0.50000 0.00000 0.01488 1.23400
Zn	Zn	-0.00000 0.50000 0.51488 1.23400
Ir	Ir	0.29281 0.28429 0.63308 0.35200
O 	O 	0.37700 0.44270 0.72862 -0.29700
O 	O 	0.50020 0.41210 0.73970 -0.42100
O 	O 	0.36700 0.06690 0.55030 -0.30500
O 	O 	0.49410 0.08260 0.54202 -0.44900
C 	C 	0.44720 0.35620 0.69997 -0.13200
C 	C 	0.28330 0.17510 0.68170 0.08000
H 	H 	0.32650 0.20180 0.68830 0.00900
C 	C 	0.16410 0.17940 0.62070 0.00100
C 	C 	0.44100 0.13080 0.58291 -0.14500
C 	C 	0.20550 0.24310 0.60900 -0.06600
C 	C 	0.45190 0.21320 0.63032 0.07800
C 	C 	0.18550 0.26930 0.58250 -0.01200
H 	H 	0.21180 0.31090 0.57450 0.04300
C 	C 	0.21150 0.43300 0.63260 0.01100
C 	C 	0.25190 0.11610 0.69720 -0.14500
H 	H 	0.27270 0.10480 0.71420 0.08200
C 	C 	0.10380 0.14380 0.60670 -0.07600
H 	H 	0.07720 0.10170 0.61420 0.04400
C 	C 	0.12560 0.42460 0.67930 -0.08400
H 	H 	0.09740 0.42370 0.69550 0.05400
C 	C 	0.50950 0.31090 0.69593 0.07000
H 	H 	0.55010 0.31120 0.70850 0.02600
N 	N 	0.38970 0.30760 0.65930 -0.15400
C 	C 	0.37740 0.17190 0.59352 0.08500
H 	H 	0.33030 0.17180 0.58410 0.01400
C 	C 	0.51510 0.17030 0.62080 -0.15200
H 	H 	0.56150 0.16930 0.63070 0.08800
C 	C 	0.37450 0.43500 0.56890 -0.17600
H 	H 	0.41240 0.43390 0.55530 0.09000
C 	C 	0.21780 0.36420 0.64848 -0.07500
N 	N 	0.38320 0.21130 0.61701 -0.15700
C 	C 	0.08430 0.17240 0.58160 -0.00700
H 	H 	0.04140 0.15130 0.57260 0.01900
C 	C 	0.43230 0.08980 0.55593 0.36600
C 	C 	0.19420 0.15140 0.64770 0.08800
C 	C 	0.51410 0.26400 0.67335 -0.13900
H 	H 	0.55840 0.23400 0.67040 0.07900
C 	C 	0.50920 0.13070 0.59754 0.08600
H 	H 	0.55180 0.10270 0.59110 0.01100
C 	C 	0.12590 0.23140 0.56880 -0.06700
H 	H 	0.11360 0.24560 0.55100 0.05800
C 	C 	0.32290 0.49610 0.57030 0.10200
H 	H 	0.32500 0.53620 0.55760 0.00400
C 	C 	0.11890 0.48710 0.66110 0.01100
H 	H 	0.08260 0.52600 0.66480 0.02000
C 	C 	0.16070 0.49300 0.63940 -0.08800
H 	H 	0.15700 0.53700 0.62840 0.06500
C 	C 	0.16250 0.09030 0.66230 -0.14800
H 	H 	0.12250 0.06050 0.65490 0.07300
C 	C 	0.27000 0.49740 0.59010 -0.16500
H 	H 	0.23570 0.53920 0.59130 0.10200
C 	C 	0.19030 0.07440 0.68750 0.06300
H 	H 	0.16760 0.03540 0.69800 0.01700
C 	C 	0.45370 0.26130 0.65526 0.07000
C 	C 	0.43790 0.40720 0.72445 0.33200
C 	C 	0.26550 0.43690 0.60890 0.09200
C 	C 	0.17730 0.36230 0.67220 -0.00600
H 	H 	0.18320 0.32010 0.68400 0.03300
C 	C 	0.36970 0.37660 0.58729 0.10800
H 	H 	0.40580 0.33620 0.58630 -0.00100
C 	C 	0.38690 0.35260 0.68139 0.08300
H 	H 	0.34260 0.38280 0.68440 0.01800
N 	N 	0.31600 0.37430 0.60666 -0.16800
N 	N 	0.25360 0.19550 0.65726 -0.16400
Ir	Ir	0.79281 0.78429 0.13308 0.35600
O 	O 	0.87700 0.94270 0.22862 -0.28200
O 	O 	0.00020 0.91210 0.23970 -0.43700
O 	O 	0.86700 0.56690 0.05030 -0.28700
O 	O 	0.99410 0.58260 0.04202 -0.41300
C 	C 	0.94720 0.85620 0.19997 -0.09000
C 	C 	0.78330 0.67510 0.18170 0.08300
H 	H 	0.82650 0.70180 0.18830 0.01300
C 	C 	0.66410 0.67940 0.12070 0.00400
C 	C 	0.94100 0.63080 0.08291 -0.09100
C 	C 	0.70550 0.74310 0.10900 -0.06700
C 	C 	0.95190 0.71320 0.13032 0.10200
C 	C 	0.68550 0.76930 0.08250 -0.01000
H 	H 	0.71180 0.81090 0.07450 0.04500
C 	C 	0.71150 0.93300 0.13260 0.01100
C 	C 	0.75190 0.61610 0.19720 -0.14200
H 	H 	0.77270 0.60480 0.21420 0.09000
C 	C 	0.60380 0.64380 0.10670 -0.07300
H 	H 	0.57720 0.60170 0.11420 0.05700
C 	C 	0.62560 0.92460 0.17930 -0.10900
H 	H 	0.59740 0.92370 0.19550 0.07700
C 	C 	0.00950 0.81090 0.19593 0.03000
H 	H 	0.05010 0.81120 0.20850 0.03700
N 	N 	0.88970 0.80760 0.15930 -0.15300
C 	C 	0.87740 0.67190 0.09352 0.07000
H 	H 	0.83030 0.67180 0.08410 0.02000
C 	C 	0.01510 0.67030 0.12080 -0.16800
H 	H 	0.06150 0.66930 0.13070 0.08900
C 	C 	0.87450 0.93500 0.06890 -0.21400
H 	H 	0.91240 0.93390 0.05530 0.12000
C 	C 	0.71780 0.86420 0.14848 -0.07900
N 	N 	0.88320 0.71130 0.11701 -0.15500
C 	C 	0.58430 0.67240 0.08160 -0.00300
H 	H 	0.54140 0.65130 0.07260 0.03200
C 	C 	0.93230 0.58980 0.05593 0.35100
C 	C 	0.69420 0.65140 0.14770 0.09100
C 	C 	0.01410 0.76400 0.17335 -0.16700
H 	H 	0.05840 0.73400 0.17040 0.08400
C 	C 	0.00920 0.63070 0.09754 0.03300
H 	H 	0.05180 0.60270 0.09110 0.02600
C 	C 	0.62590 0.73140 0.06880 -0.06500
H 	H 	0.61360 0.74560 0.05100 0.06500
C 	C 	0.82290 0.99610 0.07030 0.17300
H 	H 	0.82500 0.03620 0.05760 -0.03800
C 	C 	0.61890 0.98710 0.16110 0.07200
H 	H 	0.58260 0.02600 0.16480 -0.01500
C 	C 	0.66070 0.99300 0.13940 -0.05500
H 	H 	0.65700 0.03700 0.12840 0.03700
C 	C 	0.66250 0.59030 0.16230 -0.14600
H 	H 	0.62250 0.56050 0.15490 0.08500
C 	C 	0.77000 0.99740 0.09010 -0.13800
H 	H 	0.73570 0.03920 0.09130 0.07400
C 	C 	0.69030 0.57440 0.18750 0.06900
H 	H 	0.66760 0.53540 0.19800 0.03000
C 	C 	0.95370 0.76130 0.15526 0.10100
C 	C 	0.93790 0.90720 0.22445 0.35600
C 	C 	0.76550 0.93690 0.10890 0.09600
C 	C 	0.67730 0.86230 0.17220 0.01100
H 	H 	0.68320 0.82010 0.18400 0.03000
C 	C 	0.86970 0.87660 0.08729 0.13400
H 	H 	0.90580 0.83620 0.08630 -0.00200
C 	C 	0.88690 0.85260 0.18139 0.07600
H 	H 	0.84260 0.88280 0.18440 0.02500
N 	N 	0.81600 0.87430 0.10666 -0.17200
N 	N 	0.75360 0.69550 0.15726 -0.16500
Ir	Ir	0.20719 0.21571 0.13308 0.34800
O 	O 	0.12300 0.05730 0.22862 -0.30800
O 	O 	0.99980 0.08790 0.23970 -0.39200
O 	O 	0.13300 0.43310 0.05030 -0.30300
O 	O 	0.00590 0.41740 0.04202 -0.46300
C 	C 	0.05280 0.14380 0.19997 -0.17700
C 	C 	0.21670 0.32490 0.18170 0.08200
H 	H 	0.17350 0.29820 0.18830 0.00700
C 	C 	0.33590 0.32060 0.12070 0.00300
C 	C 	0.05900 0.36920 0.08291 -0.18900
C 	C 	0.29450 0.25690 0.10900 -0.06600
C 	C 	0.04810 0.28680 0.13032 0.05100
C 	C 	0.31450 0.23070 0.08250 -0.01200
H 	H 	0.28820 0.18910 0.07450 0.04200
C 	C 	0.28850 0.06700 0.13260 0.01100
C 	C 	0.24810 0.38390 0.19720 -0.14300
H 	H 	0.22730 0.39520 0.21420 0.08500
C 	C 	0.39620 0.35620 0.10670 -0.07300
H 	H 	0.42280 0.39830 0.11420 0.05700
C 	C 	0.37440 0.07540 0.17930 -0.05100
H 	H 	0.40260 0.07630 0.19550 0.04100
C 	C 	0.99050 0.18910 0.19593 0.11500
H 	H 	0.94990 0.18880 0.20850 0.01600
N 	N 	0.11030 0.19240 0.15930 -0.15500
C 	C 	0.12260 0.32810 0.09352 0.09600
H 	H 	0.16970 0.32820 0.08410 0.01000
C 	C 	0.98490 0.32970 0.12080 -0.12500
H 	H 	0.93850 0.33070 0.13070 0.08400
C 	C 	0.12550 0.06500 0.06890 -0.13600
H 	H 	0.08760 0.06610 0.05530 0.05900
C 	C 	0.28220 0.13580 0.14848 -0.07000
N 	N 	0.11680 0.28870 0.11701 -0.15700
C 	C 	0.41570 0.32760 0.08160 -0.00300
H 	H 	0.45860 0.34870 0.07260 0.03200
C 	C 	0.06770 0.41020 0.05593 0.37800
C 	C 	0.30580 0.34860 0.14770 0.09100
C 	C 	0.98590 0.23600 0.17335 -0.10800
H 	H 	0.94160 0.26600 0.17040 0.07400
C 	C 	0.99080 0.36930 0.09754 0.13400
H 	H 	0.94820 0.39730 0.09110 0.00700
C 	C 	0.37410 0.26860 0.06880 -0.06500
H 	H 	0.38640 0.25440 0.05100 0.06300
C 	C 	0.17710 0.00390 0.07030 0.02500
H 	H 	0.17500 0.96380 0.05760 0.05100
C 	C 	0.38110 0.01290 0.16110 -0.05100
H 	H 	0.41740 0.97400 0.16480 0.07200
C 	C 	0.33930 0.00700 0.13940 -0.11700
H 	H 	0.34300 0.96300 0.12840 0.09700
C 	C 	0.33750 0.40970 0.16230 -0.14600
H 	H 	0.37750 0.43950 0.15490 0.08500
C 	C 	0.23000 0.00260 0.09010 -0.19000
H 	H 	0.26430 0.96080 0.09130 0.13100
C 	C 	0.30970 0.42560 0.18750 0.06800
H 	H 	0.33240 0.46460 0.19800 0.02900
C 	C 	0.04630 0.23870 0.15526 0.03800
C 	C 	0.06210 0.09280 0.22445 0.30300
C 	C 	0.23450 0.06310 0.10890 0.08900
C 	C 	0.32270 0.13770 0.17220 -0.02200
H 	H 	0.31680 0.17990 0.18400 0.03900
C 	C 	0.13030 0.12340 0.08729 0.08100
H 	H 	0.09420 0.16380 0.08630 -0.00000
C 	C 	0.11310 0.14740 0.18139 0.09100
H 	H 	0.15740 0.11720 0.18440 0.01000
N 	N 	0.18400 0.12570 0.10666 -0.16400
N 	N 	0.24640 0.30450 0.15726 -0.16400
Ir	Ir	0.70719 0.71571 0.63308 0.35300
O 	O 	0.62300 0.55730 0.72862 -0.29500
O 	O 	0.49980 0.58790 0.73970 -0.42000
O 	O 	0.63300 0.93310 0.55030 -0.28400
O 	O 	0.50590 0.91740 0.54202 -0.42700
C 	C 	0.55280 0.64380 0.69997 -0.13200
C 	C 	0.71670 0.82490 0.68170 0.08500
H 	H 	0.67350 0.79820 0.68830 0.01000
C 	C 	0.83590 0.82060 0.62070 0.00600
C 	C 	0.55900 0.86920 0.58291 -0.13300
C 	C 	0.79450 0.75690 0.60900 -0.06600
C 	C 	0.54810 0.78680 0.63032 0.07600
C 	C 	0.81450 0.73070 0.58250 -0.01000
H 	H 	0.78820 0.68910 0.57450 0.04400
C 	C 	0.78850 0.56700 0.63260 0.01000
C 	C 	0.74810 0.88390 0.69720 -0.14000
H 	H 	0.72730 0.89520 0.71420 0.09300
C 	C 	0.89620 0.85620 0.60670 -0.07000
H 	H 	0.92280 0.89830 0.61420 0.06900
C 	C 	0.87440 0.57540 0.67930 -0.07600
H 	H 	0.90260 0.57630 0.69550 0.06400
C 	C 	0.49050 0.68910 0.69593 0.07100
H 	H 	0.44990 0.68880 0.70850 0.02700
N 	N 	0.61030 0.69240 0.65930 -0.15400
C 	C 	0.62260 0.82810 0.59352 0.08100
H 	H 	0.66970 0.82820 0.58410 0.01600
C 	C 	0.48490 0.82970 0.62080 -0.14300
H 	H 	0.43850 0.83070 0.63070 0.08500
C 	C 	0.62550 0.56500 0.56890 -0.17600
H 	H 	0.58760 0.56610 0.55530 0.09100
C 	C 	0.78220 0.63580 0.64848 -0.07400
N 	N 	0.61680 0.78870 0.61701 -0.15500
C 	C 	0.91570 0.82760 0.58160 0.00000
H 	H 	0.95860 0.84870 0.57260 0.04400
C 	C 	0.56770 0.91020 0.55593 0.36300
C 	C 	0.80580 0.84860 0.64770 0.09500
C 	C 	0.48590 0.73600 0.67335 -0.13800
H 	H 	0.44160 0.76600 0.67040 0.08000
C 	C 	0.49080 0.86930 0.59754 0.08000
H 	H 	0.44820 0.89730 0.59110 0.02300
C 	C 	0.87410 0.76860 0.56880 -0.06300
H 	H 	0.88640 0.75440 0.55100 0.07000
C 	C 	0.67710 0.50390 0.57030 0.10300
H 	H 	0.67500 0.46380 0.55760 0.00400
C 	C 	0.88110 0.51290 0.66110 0.00900
H 	H 	0.91740 0.47400 0.66480 0.03700
C 	C 	0.83930 0.50700 0.63940 -0.08100
H 	H 	0.84300 0.46300 0.62840 0.06700
C 	C 	0.83750 0.90970 0.66230 -0.14400
H 	H 	0.87750 0.93950 0.65490 0.09700
C 	C 	0.73000 0.50260 0.59010 -0.16400
H 	H 	0.76430 0.46080 0.59130 0.10200
C 	C 	0.80970 0.92560 0.68750 0.07400
H 	H 	0.83240 0.96460 0.69800 0.04100
C 	C 	0.54630 0.73870 0.65526 0.07100
C 	C 	0.56210 0.59280 0.72445 0.33200
C 	C 	0.73450 0.56310 0.60890 0.09400
C 	C 	0.82270 0.63770 0.67220 -0.00500
H 	H 	0.81680 0.67990 0.68400 0.03500
C 	C 	0.63030 0.62340 0.58729 0.10900
H 	H 	0.59420 0.66380 0.58630 -0.00100
C 	C 	0.61310 0.64740 0.68139 0.08300
H 	H 	0.65740 0.61720 0.68440 0.01800
N 	N 	0.68400 0.62570 0.60666 -0.16900
N 	N 	0.74640 0.80450 0.65726 -0.16500
Ir	Ir	0.78429 0.29281 0.88308 0.35500
O 	O 	0.94270 0.37700 0.97862 -0.27900
O 	O 	0.91210 0.50020 0.98970 -0.40700
O 	O 	0.56690 0.36700 0.80030 -0.29500
O 	O 	0.58260 0.49410 0.79202 -0.44000
C 	C 	0.85620 0.44720 0.94997 -0.12600
C 	C 	0.67510 0.28330 0.93170 0.08200
H 	H 	0.70180 0.32650 0.93830 0.01000
C 	C 	0.67940 0.16410 0.87070 0.00300
C 	C 	0.63080 0.44100 0.83291 -0.13900
C 	C 	0.74310 0.20550 0.85900 -0.06800
C 	C 	0.71320 0.45190 0.88032 0.07800
C 	C 	0.76930 0.18550 0.83250 -0.01000
H 	H 	0.81090 0.21180 0.82450 0.04300
C 	C 	0.93300 0.21150 0.88260 0.01200
C 	C 	0.61610 0.25190 0.94720 -0.14100
H 	H 	0.60480 0.27270 0.96420 0.08700
C 	C 	0.64380 0.10380 0.85670 -0.07700
H 	H 	0.60170 0.07720 0.86420 0.05100
C 	C 	0.92460 0.12560 0.92930 -0.11400
H 	H 	0.92370 0.09740 0.94550 0.07300
C 	C 	0.81090 0.50950 0.94593 0.06800
H 	H 	0.81120 0.55010 0.95850 0.02900
N 	N 	0.80760 0.38970 0.90930 -0.15300
C 	C 	0.67190 0.37740 0.84352 0.08300
H 	H 	0.67180 0.33030 0.83410 0.01500
C 	C 	0.67030 0.51510 0.87080 -0.14800
H 	H 	0.66930 0.56150 0.88070 0.08700
C 	C 	0.93500 0.37450 0.81890 -0.21800
H 	H 	0.93390 0.41240 0.80530 0.11400
C 	C 	0.86420 0.21780 0.89848 -0.08000
N 	N 	0.71130 0.38320 0.86701 -0.15600
C 	C 	0.67240 0.08430 0.83160 -0.00300
H 	H 	0.65130 0.04140 0.82260 0.02100
C 	C 	0.58980 0.43230 0.80593 0.36500
C 	C 	0.65140 0.19420 0.89770 0.09000
C 	C 	0.76400 0.51410 0.92335 -0.13600
H 	H 	0.73400 0.55840 0.92040 0.07800
C 	C 	0.63070 0.50920 0.84754 0.08300
H 	H 	0.60270 0.55180 0.84110 0.01700
C 	C 	0.73140 0.12590 0.81880 -0.06800
H 	H 	0.74560 0.11360 0.80100 0.06100
C 	C 	0.99610 0.32290 0.82030 0.17600
H 	H 	0.03620 0.32500 0.80760 -0.04300
C 	C 	0.98710 0.11890 0.91110 0.07500
H 	H 	0.02600 0.08260 0.91480 -0.02500
C 	C 	0.99300 0.16070 0.88940 -0.05700
H 	H 	0.03700 0.15700 0.87840 0.03400
C 	C 	0.59030 0.16250 0.91230 -0.14400
H 	H 	0.56050 0.12250 0.90490 0.08100
C 	C 	0.99740 0.27000 0.84010 -0.13700
H 	H 	0.03920 0.23570 0.84130 0.07300
C 	C 	0.57440 0.19030 0.93750 0.06600
H 	H 	0.53540 0.16760 0.94800 0.02900
C 	C 	0.76130 0.45370 0.90526 0.07000
C 	C 	0.90720 0.43790 0.97445 0.33000
C 	C 	0.93690 0.26550 0.85890 0.09500
C 	C 	0.86230 0.17730 0.92220 0.01200
H 	H 	0.82010 0.18320 0.93400 0.02800
C 	C 	0.87660 0.36970 0.83729 0.13300
H 	H 	0.83620 0.40580 0.83630 -0.00900
C 	C 	0.85260 0.38690 0.93139 0.08200
H 	H 	0.88280 0.34260 0.93440 0.02300
N 	N 	0.87430 0.31600 0.85666 -0.17300
N 	N 	0.69550 0.25360 0.90726 -0.16400
Ir	Ir	0.28429 0.79281 0.38308 0.35300
O 	O 	0.44270 0.87700 0.47862 -0.29900
O 	O 	0.41210 0.00020 0.48970 -0.45200
O 	O 	0.06690 0.86700 0.30030 -0.29600
O 	O 	0.08260 0.99410 0.29202 -0.42100
C 	C 	0.35620 0.94720 0.44997 -0.09400
C 	C 	0.17510 0.78330 0.43170 0.08100
H 	H 	0.20180 0.82650 0.43830 0.01200
C 	C 	0.17940 0.66410 0.37070 0.00100
C 	C 	0.13080 0.94100 0.33291 -0.09500
C 	C 	0.24310 0.70550 0.35900 -0.06600
C 	C 	0.21320 0.95190 0.38032 0.10300
C 	C 	0.26930 0.68550 0.33250 -0.01200
H 	H 	0.31090 0.71180 0.32450 0.04400
C 	C 	0.43300 0.71150 0.38260 0.01000
C 	C 	0.11610 0.75190 0.44720 -0.14500
H 	H 	0.10480 0.77270 0.46420 0.08500
C 	C 	0.14380 0.60380 0.35670 -0.07300
H 	H 	0.10170 0.57720 0.36420 0.05000
C 	C 	0.42460 0.62560 0.42930 -0.08000
H 	H 	0.42370 0.59740 0.44550 0.05900
C 	C 	0.31090 0.00950 0.44593 0.03000
H 	H 	0.31120 0.05010 0.45850 0.03500
N 	N 	0.30760 0.88970 0.40930 -0.15400
C 	C 	0.17190 0.87740 0.34352 0.07100
H 	H 	0.17180 0.83030 0.33410 0.01900
C 	C 	0.17030 0.01510 0.37080 -0.17300
H 	H 	0.16930 0.06150 0.38070 0.09000
C 	C 	0.43500 0.87450 0.31890 -0.17500
H 	H 	0.43390 0.91240 0.30530 0.09800
C 	C 	0.36420 0.71780 0.39848 -0.07400
N 	N 	0.21130 0.88320 0.36701 -0.15500
C 	C 	0.17240 0.58430 0.33160 -0.00600
H 	H 	0.15130 0.54140 0.32260 0.03000
C 	C 	0.08980 0.93230 0.30593 0.35100
C 	C 	0.15140 0.69420 0.39770 0.09000
C 	C 	0.26400 0.01410 0.42335 -0.17200
H 	H 	0.23400 0.05840 0.42040 0.08500
C 	C 	0.13070 0.00920 0.34754 0.03400
H 	H 	0.10270 0.05180 0.34110 0.02000
C 	C 	0.23140 0.62590 0.31880 -0.06400
H 	H 	0.24560 0.61360 0.30100 0.06300
C 	C 	0.49610 0.82290 0.32030 0.10400
H 	H 	0.53620 0.82500 0.30760 0.00600
C 	C 	0.48710 0.61890 0.41110 0.01000
H 	H 	0.52600 0.58260 0.41480 0.02900
C 	C 	0.49300 0.66070 0.38940 -0.08400
H 	H 	0.53700 0.65700 0.37840 0.06600
C 	C 	0.09030 0.66250 0.41230 -0.15000
H 	H 	0.06050 0.62250 0.40490 0.07800
C 	C 	0.49740 0.77000 0.34010 -0.16500
H 	H 	0.53920 0.73570 0.34130 0.10200
C 	C 	0.07440 0.69030 0.43750 0.06600
H 	H 	0.03540 0.66760 0.44800 0.01900
C 	C 	0.26130 0.95370 0.40526 0.10200
C 	C 	0.40720 0.93790 0.47445 0.35900
C 	C 	0.43690 0.76550 0.35890 0.09400
C 	C 	0.36230 0.67730 0.42220 -0.00600
H 	H 	0.32010 0.68320 0.43400 0.03400
C 	C 	0.37660 0.86970 0.33729 0.11000
H 	H 	0.33620 0.90580 0.33630 0.00500
C 	C 	0.35260 0.88690 0.43139 0.07600
H 	H 	0.38280 0.84260 0.43440 0.02100
N 	N 	0.37430 0.81600 0.35666 -0.16800
N 	N 	0.19550 0.75360 0.40726 -0.16500
Ir	Ir	0.71571 0.20719 0.38308 0.35200
O 	O 	0.55730 0.12300 0.47862 -0.29200
O 	O 	0.58790 0.99980 0.48970 -0.38500
O 	O 	0.93310 0.13300 0.30030 -0.29100
O 	O 	0.91740 0.00590 0.29202 -0.44800
C 	C 	0.64380 0.05280 0.44997 -0.16900
C 	C 	0.82490 0.21670 0.43170 0.08400
H 	H 	0.79820 0.17350 0.43830 0.00800
C 	C 	0.82060 0.33590 0.37070 0.00600
C 	C 	0.86920 0.05900 0.33291 -0.17900
C 	C 	0.75690 0.29450 0.35900 -0.06700
C 	C 	0.78680 0.04810 0.38032 0.05200
C 	C 	0.73070 0.31450 0.33250 -0.01000
H 	H 	0.68910 0.28820 0.32450 0.04300
C 	C 	0.56700 0.28850 0.38260 0.01100
C 	C 	0.88390 0.24810 0.44720 -0.13900
H 	H 	0.89520 0.22730 0.46420 0.09000
C 	C 	0.85620 0.39620 0.35670 -0.07300
H 	H 	0.89830 0.42280 0.36420 0.06400
C 	C 	0.57540 0.37440 0.42930 -0.08000
H 	H 	0.57630 0.40260 0.44550 0.05900
C 	C 	0.68910 0.99050 0.44593 0.11100
H 	H 	0.68880 0.94990 0.45850 0.01900
N 	N 	0.69240 0.11030 0.40930 -0.15400
C 	C 	0.82810 0.12260 0.34352 0.09300
H 	H 	0.82820 0.16970 0.33410 0.01100
C 	C 	0.82970 0.98490 0.37080 -0.12200
H 	H 	0.83070 0.93850 0.38070 0.08300
C 	C 	0.56500 0.12550 0.31890 -0.17800
H 	H 	0.56610 0.08760 0.30530 0.08300
C 	C 	0.63580 0.28220 0.39848 -0.07500
N 	N 	0.78870 0.11680 0.36701 -0.15600
C 	C 	0.82760 0.41570 0.33160 -0.00000
H 	H 	0.84870 0.45860 0.32260 0.03400
C 	C 	0.91020 0.06770 0.30593 0.37600
C 	C 	0.84860 0.30580 0.39770 0.09300
C 	C 	0.73600 0.98590 0.42335 -0.10700
H 	H 	0.76600 0.94160 0.42040 0.07400
C 	C 	0.86930 0.99080 0.34754 0.12800
H 	H 	0.89730 0.94820 0.34110 0.01400
C 	C 	0.76860 0.37410 0.31880 -0.06600
H 	H 	0.75440 0.38640 0.30100 0.06600
C 	C 	0.50390 0.17710 0.32030 0.10100
H 	H 	0.46380 0.17500 0.30760 0.00300
C 	C 	0.51290 0.38110 0.41110 0.01000
H 	H 	0.47400 0.41740 0.41480 0.02900
C 	C 	0.50700 0.33930 0.38940 -0.08500
H 	H 	0.46300 0.34300 0.37840 0.06600
C 	C 	0.90970 0.33750 0.41230 -0.14200
H 	H 	0.93950 0.37750 0.40490 0.09300
C 	C 	0.50260 0.23000 0.34010 -0.16400
H 	H 	0.46080 0.26430 0.34130 0.10200
C 	C 	0.92560 0.30970 0.43750 0.07100
H 	H 	0.96460 0.33240 0.44800 0.04100
C 	C 	0.73870 0.04630 0.40526 0.04000
C 	C 	0.59280 0.06210 0.47445 0.30400
C 	C 	0.56310 0.23450 0.35890 0.09200
C 	C 	0.63770 0.32270 0.42220 -0.00500
H 	H 	0.67990 0.31680 0.43400 0.03400
C 	C 	0.62340 0.13030 0.33729 0.10600
H 	H 	0.66380 0.09420 0.33630 -0.00800
C 	C 	0.64740 0.11310 0.43139 0.09000
H 	H 	0.61720 0.15740 0.43440 0.01500
N 	N 	0.62570 0.18400 0.35666 -0.16900
N 	N 	0.80450 0.24640 0.40726 -0.16400
Ir	Ir	0.21571 0.70719 0.88308 0.35000
O 	O 	0.05730 0.62300 0.97862 -0.31100
O 	O 	0.08790 0.49980 0.98970 -0.42800
O 	O 	0.43310 0.63300 0.80030 -0.29500
O 	O 	0.41740 0.50590 0.79202 -0.44000
C 	C 	0.14380 0.55280 0.94997 -0.13800
C 	C 	0.32490 0.71670 0.93170 0.08300
H 	H 	0.29820 0.67350 0.93830 0.01000
C 	C 	0.32060 0.83590 0.87070 0.00400
C 	C 	0.36920 0.55900 0.83291 -0.13900
C 	C 	0.25690 0.79450 0.85900 -0.06500
C 	C 	0.28680 0.54810 0.88032 0.07600
C 	C 	0.23070 0.81450 0.83250 -0.01200
H 	H 	0.18910 0.78820 0.82450 0.04400
C 	C 	0.06700 0.78850 0.88260 0.01100
C 	C 	0.38390 0.74810 0.94720 -0.14400
H 	H 	0.39520 0.72730 0.96420 0.08900
C 	C 	0.35620 0.89620 0.85670 -0.06900
H 	H 	0.39830 0.92280 0.86420 0.06300
C 	C 	0.07540 0.87440 0.92930 -0.05000
H 	H 	0.07630 0.90260 0.94550 0.04700
C 	C 	0.18910 0.49050 0.94593 0.07300
H 	H 	0.18880 0.44990 0.95850 0.02500
N 	N 	0.19240 0.61030 0.90930 -0.15500
C 	C 	0.32810 0.62260 0.84352 0.08200
H 	H 	0.32820 0.66970 0.83410 0.01500
C 	C 	0.32970 0.48490 0.87080 -0.14700
H 	H 	0.33070 0.43850 0.88070 0.08700
C 	C 	0.06500 0.62550 0.81890 -0.13500
H 	H 	0.06610 0.58760 0.80530 0.06800
C 	C 	0.13580 0.78220 0.89848 -0.07000
N 	N 	0.28870 0.61680 0.86701 -0.15500
C 	C 	0.32760 0.91570 0.83160 -0.00300
H 	H 	0.34870 0.95860 0.82260 0.04300
C 	C 	0.41020 0.56770 0.80593 0.36400
C 	C 	0.34860 0.80580 0.89770 0.09300
C 	C 	0.23600 0.48590 0.92335 -0.14100
H 	H 	0.26600 0.44160 0.92040 0.08000
C 	C 	0.36930 0.49080 0.84754 0.08300
H 	H 	0.39730 0.44820 0.84110 0.01700
C 	C 	0.26860 0.87410 0.81880 -0.06200
H 	H 	0.25440 0.88640 0.80100 0.06800
C 	C 	0.00390 0.67710 0.82030 0.03000
H 	H 	0.96380 0.67500 0.80760 0.05100
C 	C 	0.01290 0.88110 0.91110 -0.04700
H 	H 	0.97400 0.91740 0.91480 0.07800
C 	C 	0.00700 0.83930 0.88940 -0.11300
H 	H 	0.96300 0.84300 0.87840 0.09700
C 	C 	0.40970 0.83750 0.91230 -0.14800
H 	H 	0.43950 0.87750 0.90490 0.09000
C 	C 	0.00260 0.73000 0.84010 -0.18800
H 	H 	0.96080 0.76430 0.84130 0.12900
C 	C 	0.42560 0.80970 0.93750 0.07100
H 	H 	0.46460 0.83240 0.94800 0.03000
C 	C 	0.23870 0.54630 0.90526 0.07100
C 	C 	0.09280 0.56210 0.97445 0.33200
C 	C 	0.06310 0.73450 0.85890 0.09000
C 	C 	0.13770 0.82270 0.92220 -0.02000
H 	H 	0.17990 0.81680 0.93400 0.04000
C 	C 	0.12340 0.63030 0.83729 0.08400
H 	H 	0.16380 0.59420 0.83630 0.00600
C 	C 	0.14740 0.61310 0.93139 0.08400
H 	H 	0.11720 0.65740 0.93440 0.01300
N 	N 	0.12570 0.68400 0.85666 -0.16400
N 	N 	0.30450 0.74640 0.90726 -0.16500
Zn	Zn	0.50000 0.00000 0.51488 1.23400
Zn	Zn	-0.00000 0.50000 0.01488 1.23400
Zn	Zn	0.50000 0.50000 0.76488 1.24500
Zn	Zn	0.00000 0.00000 0.26488 1.22300
