data_crystal

_cell_length_a 14.53300
_cell_length_b 15.47900
_cell_length_c 15.66600
_cell_angle_alpha 74.64300
_cell_angle_beta  74.57600
_cell_angle_gamma 81.43100

_symmetry_space_group_name_	'P 1'
_symmetry_space_group_name_H-M	'P 1'

loop_
_symmetry_equiv_pos_as_xyz
  x,y,z

loop_
_atom_site_label
_atom_site_type_symbol
_atom_site_fract_x
_atom_site_fract_y
_atom_site_fract_z
_atom_site_charge
U 	U 	0.45585 0.34330 0.76294 0.01200
U 	U 	0.52106 0.85895 0.82052 0.02400
U 	U 	0.26824 0.92117 0.58451 0.00400
U 	U 	0.84190 0.49701 0.80762 0.01600
U 	U 	0.81348 0.52101 0.43292 0.01000
C 	C 	0.38220 0.53580 0.60850 0.34500
C 	C 	0.45340 0.60390 0.59180 -0.25500
H 	H 	0.49950 0.60210 0.53460 0.13900
H 	H 	0.41940 0.66330 0.58460 0.14200
C 	C 	0.64240 0.47970 0.63550 0.35400
C 	C 	0.61020 0.57300 0.63730 -0.28900
H 	H 	0.63660 0.61090 0.57810 0.14500
H 	H 	0.63570 0.58910 0.68170 0.15600
C 	C 	0.66850 0.66010 0.86730 0.34900
C 	C 	0.60060 0.59120 0.93500 -0.23700
H 	H 	0.61250 0.53600 0.91420 0.13200
H 	H 	0.61600 0.57770 0.99400 0.13900
C 	C 	0.46330 0.72650 0.04940 0.35600
C 	C 	0.44340 0.63800 0.03560 -0.26000
H 	H 	0.45990 0.58920 0.08390 0.14000
H 	H 	0.37550 0.63880 0.03980 0.14700
C 	C 	0.19260 0.77060 0.71450 0.34700
C 	C 	0.17350 0.67740 0.77460 -0.27200
H 	H 	0.10490 0.67390 0.79780 0.14700
H 	H 	0.19730 0.63330 0.73830 0.16000
C 	C 	0.16660 0.62040 0.01820 0.36300
C 	C 	0.17090 0.69190 0.93000 -0.27600
H 	H 	0.10640 0.71560 0.92510 0.14000
H 	H 	0.20490 0.74100 0.93060 0.15700
C 	C 	0.88220 0.61460 0.58220 0.37000
C 	C 	0.92110 0.70340 0.54090 -0.29300
H 	H 	0.87510 0.74920 0.56360 0.15900
H 	H 	0.97930 0.70340 0.56000 0.15800
C 	C 	0.02740 0.62790 0.33660 0.35400
C 	C 	0.02970 0.69890 0.38890 -0.24800
H 	H 	0.07250 0.67460 0.42930 0.15400
H 	H 	0.05690 0.75130 0.34520 0.14800
C 	C 	0.63420 0.89690 0.59040 0.34000
C 	C 	0.60820 0.82850 0.54890 -0.24800
H 	H 	0.64050 0.77030 0.57020 0.13200
H 	H 	0.53970 0.82310 0.56930 0.13500
C 	C 	0.57320 0.98270 0.33870 0.40500
C 	C 	0.55850 0.89530 0.40190 -0.31200
H 	H 	0.54920 0.85410 0.36830 0.16600
H 	H 	0.49940 0.90130 0.44740 0.16400
C 	C 	0.69000 0.77530 0.16410 0.34200
C 	C 	0.75950 0.84860 0.13650 -0.25800
H 	H 	0.78330 0.86170 0.07080 0.14400
H 	H 	0.72390 0.90280 0.15180 0.15200
C 	C 	0.31780 0.63740 0.83460 0.19600
C 	C 	0.45670 0.60520 0.74430 0.18700
C 	C 	0.45020 0.61960 0.88140 0.18500
C 	C 	0.86990 0.77030 0.39960 0.19400
C 	C 	0.72010 0.82890 0.40260 0.19700
C 	C 	0.82190 0.82060 0.26750 0.18900
C 	C 	0.92940 0.80230 0.13010 -0.31700
H 	H 	0.92930 0.78840 0.07330 0.14700
H 	H 	0.96020 0.75200 0.16740 0.15900
C 	C 	0.97300 0.89000 0.11500 0.39500
N 	N 	0.50470 0.60050 0.80540 -0.15600
N 	N 	0.35530 0.63530 0.90220 -0.15600
N 	N 	0.36120 0.62380 0.75270 -0.14800
N 	N 	0.50410 0.59260 0.65980 -0.04900
N 	N 	0.21900 0.65530 0.85130 -0.04500
N 	N 	0.49810 0.62130 0.94640 -0.05500
N 	N 	0.78700 0.79140 0.44820 -0.15700
N 	N 	0.73260 0.84430 0.31140 -0.14400
N 	N 	0.89540 0.78850 0.30520 -0.14800
N 	N 	0.63460 0.85310 0.45010 -0.05200
N 	N 	0.94240 0.72660 0.44020 -0.04500
N 	N 	0.83850 0.82900 0.17620 -0.04500
O 	O 	0.30890 0.55990 0.57860 -0.20500
O 	O 	0.40110 0.45590 0.65110 -0.19000
O 	O 	0.59620 0.41600 0.69780 -0.17700
O 	O 	0.71850 0.46030 0.58240 -0.19100
O 	O 	0.75560 0.62990 0.84650 -0.18900
O 	O 	0.63840 0.73700 0.83860 -0.18900
O 	O 	0.48640 0.78930 0.98430 -0.18500
O 	O 	0.44760 0.72870 0.13290 -0.17800
O 	O 	0.23780 0.82180 0.73760 -0.19300
O 	O 	0.16800 0.79270 0.64070 -0.20900
O 	O 	0.18560 0.54090 0.02550 -0.21900
O 	O 	0.13800 0.65000 0.09120 -0.21800
O 	O 	0.85690 0.59610 0.66590 -0.21000
O 	O 	0.87930 0.55950 0.53630 -0.18900
O 	O 	0.95550 0.58950 0.34840 -0.19400
O 	O 	0.10570 0.61170 0.28080 -0.18400
O 	O 	0.62970 0.87310 0.67470 -0.18300
O 	O 	0.66200 0.97200 0.54300 -0.19300
O 	O 	0.62530 0.03120 0.35040 -0.21500
O 	O 	0.52730 0.00630 0.28000 -0.21600
O 	O 	0.70810 0.70170 0.21420 -0.19500
O 	O 	0.61340 0.79420 0.13530 -0.18400
O 	O 	0.01610 0.95330 0.11410 -0.18000
O 	O 	0.05300 0.86000 0.07100 -0.41900
H 	H 	0.05240 0.80620 0.07620 0.27400
U 	U 	0.54415 0.65670 0.23706 0.01200
U 	U 	0.47894 0.14105 0.17948 0.02400
U 	U 	0.73176 0.07883 0.41549 0.00400
U 	U 	0.15810 0.50299 0.19238 0.01600
U 	U 	0.18652 0.47899 0.56708 0.01000
C 	C 	0.61780 0.46420 0.39150 0.34500
C 	C 	0.54660 0.39610 0.40820 -0.25500
H 	H 	0.50050 0.39790 0.46540 0.13900
H 	H 	0.58060 0.33670 0.41540 0.14200
C 	C 	0.35760 0.52030 0.36450 0.35400
C 	C 	0.38980 0.42700 0.36270 -0.28900
H 	H 	0.36340 0.38910 0.42190 0.14500
H 	H 	0.36430 0.41090 0.31830 0.15600
C 	C 	0.33150 0.33990 0.13270 0.34900
C 	C 	0.39940 0.40880 0.06500 -0.23700
H 	H 	0.38750 0.46400 0.08580 0.13200
H 	H 	0.38400 0.42230 0.00600 0.13900
C 	C 	0.53670 0.27350 0.95060 0.35600
C 	C 	0.55660 0.36200 0.96440 -0.26000
H 	H 	0.54010 0.41080 0.91610 0.14000
H 	H 	0.62450 0.36120 0.96020 0.14700
C 	C 	0.80740 0.22940 0.28550 0.34700
C 	C 	0.82650 0.32260 0.22540 -0.27200
H 	H 	0.89510 0.32610 0.20220 0.14700
H 	H 	0.80270 0.36670 0.26170 0.16000
C 	C 	0.83340 0.37960 0.98180 0.36300
C 	C 	0.82910 0.30810 0.07000 -0.27600
H 	H 	0.89360 0.28440 0.07490 0.14000
H 	H 	0.79510 0.25900 0.06940 0.15700
C 	C 	0.11780 0.38540 0.41780 0.37000
C 	C 	0.07890 0.29660 0.45910 -0.29300
H 	H 	0.12490 0.25080 0.43640 0.15900
H 	H 	0.02070 0.29660 0.44000 0.15800
C 	C 	0.97260 0.37210 0.66340 0.35400
C 	C 	0.97030 0.30110 0.61110 -0.24800
H 	H 	0.92750 0.32540 0.57070 0.15400
H 	H 	0.94310 0.24870 0.65480 0.14800
C 	C 	0.36580 0.10310 0.40960 0.34000
C 	C 	0.39180 0.17150 0.45110 -0.24800
H 	H 	0.35950 0.22970 0.42980 0.13200
H 	H 	0.46030 0.17690 0.43070 0.13500
C 	C 	0.42680 0.01730 0.66130 0.40500
C 	C 	0.44150 0.10470 0.59810 -0.31200
H 	H 	0.45080 0.14590 0.63170 0.16600
H 	H 	0.50060 0.09870 0.55260 0.16400
C 	C 	0.31000 0.22470 0.83590 0.34200
C 	C 	0.24050 0.15140 0.86350 -0.25800
H 	H 	0.21670 0.13830 0.92920 0.14400
H 	H 	0.27610 0.09720 0.84820 0.15200
C 	C 	0.68220 0.36260 0.16540 0.19600
C 	C 	0.54330 0.39480 0.25570 0.18700
C 	C 	0.54980 0.38040 0.11860 0.18500
C 	C 	0.13010 0.22970 0.60040 0.19400
C 	C 	0.27990 0.17110 0.59740 0.19700
C 	C 	0.17810 0.17940 0.73250 0.18900
C 	C 	0.07060 0.19770 0.86990 -0.31700
H 	H 	0.07070 0.21160 0.92670 0.14700
H 	H 	0.03980 0.24800 0.83260 0.15900
C 	C 	0.02700 0.11000 0.88500 0.39500
N 	N 	0.49530 0.39950 0.19460 -0.15600
N 	N 	0.64470 0.36470 0.09780 -0.15600
N 	N 	0.63880 0.37620 0.24730 -0.14800
N 	N 	0.49590 0.40740 0.34020 -0.04900
N 	N 	0.78100 0.34470 0.14870 -0.04500
N 	N 	0.50190 0.37870 0.05360 -0.05500
N 	N 	0.21300 0.20860 0.55180 -0.15700
N 	N 	0.26740 0.15570 0.68860 -0.14400
N 	N 	0.10460 0.21150 0.69480 -0.14800
N 	N 	0.36540 0.14690 0.54990 -0.05200
N 	N 	0.05760 0.27340 0.55980 -0.04500
N 	N 	0.16150 0.17100 0.82380 -0.04500
O 	O 	0.69110 0.44010 0.42140 -0.20500
O 	O 	0.59890 0.54410 0.34890 -0.19000
O 	O 	0.40380 0.58400 0.30220 -0.17700
O 	O 	0.28150 0.53970 0.41760 -0.19100
O 	O 	0.24440 0.37010 0.15350 -0.18900
O 	O 	0.36160 0.26300 0.16140 -0.18900
O 	O 	0.51360 0.21070 0.01570 -0.18500
O 	O 	0.55240 0.27130 0.86710 -0.17800
O 	O 	0.76220 0.17820 0.26240 -0.19300
O 	O 	0.83200 0.20730 0.35930 -0.20900
O 	O 	0.81440 0.45910 0.97450 -0.21900
O 	O 	0.86200 0.35000 0.90880 -0.21800
O 	O 	0.14310 0.40390 0.33410 -0.21000
O 	O 	0.12070 0.44050 0.46370 -0.18900
O 	O 	0.04450 0.41050 0.65160 -0.19400
O 	O 	0.89430 0.38830 0.71920 -0.18400
O 	O 	0.37030 0.12690 0.32530 -0.18300
O 	O 	0.33800 0.02800 0.45700 -0.19300
O 	O 	0.37470 0.96880 0.64960 -0.21500
O 	O 	0.47270 0.99370 0.72000 -0.21600
O 	O 	0.29190 0.29830 0.78580 -0.19500
O 	O 	0.38660 0.20580 0.86470 -0.18400
O 	O 	0.98390 0.04670 0.88590 -0.18000
O 	O 	0.94700 0.14000 0.92900 -0.41900
H 	H 	0.94760 0.19380 0.92380 0.27400
