data_crystal

_cell_length_a 15.38050
_cell_length_b 8.43350
_cell_length_c 13.89690
_cell_angle_alpha 90.00000
_cell_angle_beta  107.58300
_cell_angle_gamma 90.00000

_symmetry_space_group_name_	'P 1'
_symmetry_space_group_name_H-M	'P 1'

loop_
_symmetry_equiv_pos_as_xyz
  x,y,z

loop_
_atom_site_label
_atom_site_type_symbol
_atom_site_fract_x
_atom_site_fract_y
_atom_site_fract_z
_atom_site_charge
C 	C 	0.68696 0.43878 0.43054 -0.19700
N 	N 	0.64609 0.54778 0.39134 -0.09600
C 	C 	0.66491 0.12016 0.39849 -0.20400
N 	N 	0.61384 0.04506 0.33794 -0.10800
N 	N 	0.88911 0.24558 0.37880 -0.09100
C 	C 	0.83635 0.24825 0.42231 -0.19000
C 	C 	0.18696 0.93878 0.43054 -0.20900
N 	N 	0.14609 0.04778 0.39134 -0.11000
C 	C 	0.16491 0.62016 0.39849 -0.21700
N 	N 	0.11384 0.54506 0.33794 -0.12400
N 	N 	0.38911 0.74558 0.37880 -0.11100
C 	C 	0.33635 0.74825 0.42231 -0.20300
C 	C 	0.31304 0.43878 0.06946 -0.25600
N 	N 	0.35391 0.54778 0.10866 -0.10900
C 	C 	0.33509 0.12016 0.10151 -0.25400
N 	N 	0.38616 0.04506 0.16206 -0.10900
N 	N 	0.11089 0.24558 0.12120 -0.13200
C 	C 	0.16365 0.24825 0.07769 -0.26500
C 	C 	0.81304 0.93878 0.06946 -0.24300
N 	N 	0.85391 0.04778 0.10866 -0.09200
C 	C 	0.83509 0.62016 0.10151 -0.24000
N 	N 	0.88616 0.54506 0.16206 -0.08900
N 	N 	0.61089 0.74558 0.12120 -0.11700
C 	C 	0.66365 0.74825 0.07769 -0.25300
C 	C 	0.31304 0.56122 0.56946 -0.19600
N 	N 	0.35391 0.45222 0.60866 -0.09300
C 	C 	0.33509 0.87984 0.60151 -0.20000
N 	N 	0.38616 0.95494 0.66206 -0.09800
N 	N 	0.11089 0.75442 0.62120 -0.11900
C 	C 	0.16365 0.75175 0.57769 -0.20700
C 	C 	0.81304 0.06122 0.56946 -0.18500
N 	N 	0.85391 0.95222 0.60866 -0.07600
C 	C 	0.83509 0.37984 0.60151 -0.18600
N 	N 	0.88616 0.45494 0.66206 -0.07800
N 	N 	0.61089 0.25442 0.62120 -0.10300
C 	C 	0.66365 0.25175 0.57769 -0.19400
C 	C 	0.68696 0.56122 0.93054 -0.10400
N 	N 	0.64609 0.45222 0.89134 -0.08800
C 	C 	0.66491 0.87984 0.89849 -0.11700
N 	N 	0.61384 0.95494 0.83794 -0.10500
N 	N 	0.88911 0.75442 0.87880 -0.08500
C 	C 	0.83635 0.75175 0.92231 -0.09900
C 	C 	0.18696 0.06122 0.93054 -0.12000
N 	N 	0.14609 0.95222 0.89134 -0.10000
C 	C 	0.16491 0.37984 0.89849 -0.13000
N 	N 	0.11384 0.45494 0.83794 -0.12100
N 	N 	0.38911 0.25442 0.87880 -0.10500
C 	C 	0.33635 0.25175 0.92231 -0.11200
K 	K 	0.50000 0.78005 0.25000 0.63000
K 	K 	0.00000 0.28005 0.25000 0.61300
K 	K 	0.50000 0.21995 0.75000 0.64200
K 	K 	0.00000 0.71995 0.75000 0.62400
Fe	Fe	0.75000 0.25000 0.50000 1.17000
Fe	Fe	0.25000 0.25000 -0.00000 1.09600
Fe	Fe	0.25000 0.75000 0.50000 1.16900
Fe	Fe	0.75000 0.75000 -0.00000 1.09600
