data_crystal

_cell_length_a 11.36560
_cell_length_b 14.84490
_cell_length_c 16.30710
_cell_angle_alpha 90.00000
_cell_angle_beta  90.00000
_cell_angle_gamma 90.00000

_symmetry_space_group_name_	'P 1'
_symmetry_space_group_name_H-M	'P 1'

loop_
_symmetry_equiv_pos_as_xyz
  x,y,z

loop_
_atom_site_label
_atom_site_type_symbol
_atom_site_fract_x
_atom_site_fract_y
_atom_site_fract_z
_atom_site_charge
Er	Er	0.27645 0.74518 0.43133 1.73400
Er	Er	0.23406 0.80492 0.05490 1.85500
Er	Er	0.22355 0.25482 0.93133 1.73200
Er	Er	0.26594 0.19508 0.55490 1.85400
Er	Er	0.72355 0.24518 0.06867 1.73300
Er	Er	0.76594 0.30492 0.44510 1.85300
Er	Er	0.77645 0.75482 0.56867 1.73500
Er	Er	0.73406 0.69508 0.94510 1.85500
P 	P 	0.25770 0.81790 0.83281 0.53500
P 	P 	0.32050 0.94830 0.54672 0.54900
P 	P 	0.24230 0.18210 0.33281 0.53500
P 	P 	0.17950 0.05170 0.04672 0.55200
P 	P 	0.74230 0.31790 0.66719 0.53500
P 	P 	0.67950 0.44830 0.95328 0.55100
P 	P 	0.75770 0.68210 0.16719 0.53500
P 	P 	0.82050 0.55170 0.45328 0.55000
H 	H 	0.39810 0.74780 0.79720 0.27200
H 	H 	0.47490 0.00990 0.53260 0.29000
H 	H 	0.23190 0.00600 0.69480 0.13300
H 	H 	0.86990 0.15210 0.74310 0.17700
H 	H 	0.32930 0.95900 0.80390 0.13300
H 	H 	0.19580 0.96490 0.82560 0.13700
H 	H 	0.38990 0.90550 0.67680 0.12600
H 	H 	0.29390 0.83690 0.64750 0.13600
H 	H 	0.09060 0.93730 0.62490 0.07400
H 	H 	0.09290 0.85790 0.68840 0.09300
H 	H 	0.99650 0.88020 0.82250 0.04300
H 	H 	0.85920 0.95930 0.89930 0.09800
H 	H 	0.80960 0.09850 0.86140 0.01300
H 	H 	0.00060 0.08010 0.66030 0.04800
H 	H 	0.10190 0.25220 0.29720 0.27200
H 	H 	0.02510 0.99010 0.03260 0.28800
H 	H 	0.26810 0.99400 0.19480 0.13200
H 	H 	0.63010 0.84790 0.24310 0.17700
H 	H 	0.17070 0.04100 0.30390 0.13400
H 	H 	0.30420 0.03510 0.32560 0.13800
H 	H 	0.11010 0.09450 0.17680 0.12600
H 	H 	0.20610 0.16310 0.14750 0.13600
H 	H 	0.40940 0.06270 0.12490 0.07500
H 	H 	0.40710 0.14210 0.18840 0.09300
H 	H 	0.50350 0.11980 0.32250 0.04300
H 	H 	0.64080 0.04070 0.39930 0.09900
H 	H 	0.69040 0.90150 0.36140 0.01100
H 	H 	0.49940 0.91990 0.16030 0.04600
H 	H 	0.60190 0.24780 0.70280 0.27100
H 	H 	0.52510 0.50990 0.96740 0.29100
H 	H 	0.76810 0.50600 0.80520 0.13200
H 	H 	0.13010 0.65210 0.75690 0.17600
H 	H 	0.67070 0.45900 0.69610 0.13300
H 	H 	0.80420 0.46490 0.67440 0.13800
H 	H 	0.61010 0.40550 0.82320 0.12600
H 	H 	0.70610 0.33690 0.85250 0.13600
H 	H 	0.90940 0.43730 0.87510 0.07700
H 	H 	0.90710 0.35790 0.81160 0.09500
H 	H 	0.00350 0.38020 0.67750 0.04500
H 	H 	0.14080 0.45930 0.60070 0.09700
H 	H 	0.19040 0.59850 0.63860 0.01300
H 	H 	0.99940 0.58010 0.83970 0.05000
H 	H 	0.89810 0.75220 0.20280 0.27200
H 	H 	0.97490 0.49010 0.46740 0.29100
H 	H 	0.73190 0.49400 0.30520 0.13200
H 	H 	0.36990 0.34790 0.25690 0.17700
H 	H 	0.82930 0.54100 0.19610 0.13300
H 	H 	0.69580 0.53510 0.17440 0.13700
H 	H 	0.88990 0.59450 0.32320 0.12600
H 	H 	0.79390 0.66310 0.35250 0.13600
H 	H 	0.59060 0.56270 0.37510 0.07500
H 	H 	0.59290 0.64210 0.31160 0.09400
H 	H 	0.49650 0.61980 0.17750 0.04400
H 	H 	0.35920 0.54070 0.10070 0.09900
H 	H 	0.30960 0.40150 0.13860 0.01200
H 	H 	0.50060 0.41990 0.33970 0.04700
C 	C 	0.25310 0.93180 0.79360 -0.24800
C 	C 	0.31310 0.90040 0.65130 -0.24700
C 	C 	0.10360 0.92240 0.68210 -0.10800
C 	C 	0.01390 0.97120 0.73430 0.01100
C 	C 	0.97130 0.93660 0.80500 0.00200
C 	C 	0.89050 0.98430 0.85180 -0.11800
C 	C 	0.85930 0.06480 0.82800 0.12900
C 	C 	0.97440 0.05500 0.70930 0.03300
C 	C 	0.50190 0.74010 0.54250 0.23200
C 	C 	0.54960 0.76290 0.45610 0.30300
C 	C 	0.26220 0.82270 0.25120 0.25600
C 	C 	0.24520 0.72260 0.23760 0.24800
C 	C 	0.46070 0.70070 0.98570 0.29600
C 	C 	0.50620 0.79620 0.00660 0.24100
C 	C 	0.24690 0.06820 0.29360 -0.24900
C 	C 	0.18690 0.09960 0.15130 -0.24800
C 	C 	0.39640 0.07760 0.18210 -0.10900
C 	C 	0.48610 0.02880 0.23430 0.01400
C 	C 	0.52870 0.06340 0.30500 0.00100
C 	C 	0.60950 0.01570 0.35180 -0.12600
C 	C 	0.64070 0.93520 0.32800 0.13600
C 	C 	0.52560 0.94500 0.20930 0.03600
C 	C 	0.99810 0.25990 0.04250 0.22500
C 	C 	0.95040 0.23710 0.95610 0.30700
C 	C 	0.23780 0.17730 0.75120 0.25600
C 	C 	0.25480 0.27740 0.73760 0.24800
C 	C 	0.03930 0.29930 0.48570 0.30000
C 	C 	0.99380 0.20380 0.50660 0.23700
C 	C 	0.74690 0.43180 0.70640 -0.24900
C 	C 	0.68690 0.40040 0.84870 -0.24700
C 	C 	0.89640 0.42240 0.81790 -0.11400
C 	C 	0.98610 0.47120 0.76570 0.02100
C 	C 	0.02870 0.43660 0.69500 -0.00700
C 	C 	0.10950 0.48430 0.64820 -0.11800
C 	C 	0.14070 0.56480 0.67200 0.13000
C 	C 	0.02560 0.55500 0.79070 0.02700
C 	C 	0.49810 0.24010 0.95750 0.23200
C 	C 	0.45040 0.26290 0.04390 0.30400
C 	C 	0.73780 0.32270 0.24880 0.25600
C 	C 	0.75480 0.22260 0.26240 0.24800
C 	C 	0.53930 0.20070 0.51430 0.29700
C 	C 	0.49380 0.29620 0.49340 0.24100
C 	C 	0.75310 0.56820 0.20640 -0.24800
C 	C 	0.81310 0.59960 0.34870 -0.24700
C 	C 	0.60360 0.57760 0.31790 -0.11000
C 	C 	0.51390 0.52880 0.26570 0.01500
C 	C 	0.47130 0.56340 0.19500 -0.00100
C 	C 	0.39050 0.51570 0.14820 -0.12200
C 	C 	0.35930 0.43520 0.17200 0.13300
C 	C 	0.47440 0.44500 0.29070 0.03500
C 	C 	0.00190 0.75990 0.45750 0.23200
C 	C 	0.04960 0.73710 0.54390 0.30200
C 	C 	0.76220 0.67730 0.74880 0.25700
C 	C 	0.74520 0.77740 0.76240 0.24800
C 	C 	0.96070 0.79930 0.01430 0.29500
C 	C 	0.00620 0.70380 0.99340 0.23500
N 	N 	0.22430 0.94590 0.70440 -0.09700
N 	N 	0.89570 0.10020 0.75810 -0.21500
N 	N 	0.27570 0.05410 0.20440 -0.09500
N 	N 	0.60430 0.89980 0.25810 -0.21700
N 	N 	0.77570 0.44590 0.79560 -0.09500
N 	N 	0.10430 0.60020 0.74190 -0.21400
N 	N 	0.72430 0.55410 0.29560 -0.09600
N 	N 	0.39570 0.39980 0.24190 -0.21600
O 	O 	0.17830 0.76180 0.78310 -0.29000
O 	O 	0.22950 0.82930 0.92050 -0.45600
O 	O 	0.39010 0.79000 0.82910 -0.45900
O 	O 	0.26340 0.03930 0.54980 -0.41900
O 	O 	0.26890 0.88410 0.48690 -0.42600
O 	O 	0.45530 0.95690 0.52940 -0.48100
O 	O 	0.39370 0.72630 0.55000 -0.38200
O 	O 	0.57760 0.73530 0.60030 -0.37800
O 	O 	0.65490 0.77710 0.45190 -0.40600
O 	O 	0.47460 0.76340 0.40060 -0.41800
O 	O 	0.27900 0.85090 0.32250 -0.36500
O 	O 	0.26180 0.86940 0.18620 -0.40300
O 	O 	0.22700 0.69630 0.16540 -0.36900
O 	O 	0.25050 0.67330 0.30120 -0.38500
O 	O 	0.53080 0.65040 0.95130 -0.41700
O 	O 	0.35890 0.68340 0.00680 -0.38400
O 	O 	0.43540 0.84810 0.04410 -0.37000
O 	O 	0.60980 0.81590 0.98680 -0.35900
O 	O 	0.32170 0.23820 0.28310 -0.29000
O 	O 	0.27050 0.17070 0.42050 -0.45500
O 	O 	0.10990 0.21000 0.32910 -0.45800
O 	O 	0.23660 0.96070 0.04980 -0.42000
O 	O 	0.23110 0.11590 0.98690 -0.42800
O 	O 	0.04470 0.04310 0.02940 -0.47800
O 	O 	0.10630 0.27370 0.05000 -0.37700
O 	O 	0.92240 0.26470 0.10030 -0.37700
O 	O 	0.84510 0.22290 0.95190 -0.40700
O 	O 	0.02540 0.23660 0.90060 -0.41900
O 	O 	0.22100 0.14910 0.82250 -0.36400
O 	O 	0.23820 0.13060 0.68620 -0.40200
O 	O 	0.27300 0.30370 0.66540 -0.36900
O 	O 	0.24950 0.32670 0.80120 -0.38500
O 	O 	0.96920 0.34960 0.45130 -0.41900
O 	O 	0.14110 0.31660 0.50680 -0.38600
O 	O 	0.06460 0.15190 0.54410 -0.36800
O 	O 	0.89020 0.18410 0.48680 -0.35900
O 	O 	0.82170 0.26180 0.71690 -0.29000
O 	O 	0.77050 0.32930 0.57950 -0.45500
O 	O 	0.60990 0.29000 0.67090 -0.45900
O 	O 	0.73660 0.53930 0.95020 -0.41900
O 	O 	0.73110 0.38410 0.01310 -0.42700
O 	O 	0.54470 0.45690 0.97060 -0.48200
O 	O 	0.60630 0.22630 0.95000 -0.38100
O 	O 	0.42240 0.23530 0.89970 -0.37800
O 	O 	0.34510 0.27710 0.04810 -0.40500
O 	O 	0.52540 0.26340 0.09940 -0.41800
O 	O 	0.72100 0.35090 0.17750 -0.36500
O 	O 	0.73820 0.36940 0.31380 -0.40200
O 	O 	0.77300 0.19630 0.33460 -0.37000
O 	O 	0.74950 0.17330 0.19880 -0.38500
O 	O 	0.46920 0.15040 0.54870 -0.41700
O 	O 	0.64110 0.18340 0.49320 -0.38500
O 	O 	0.56460 0.34810 0.45590 -0.37000
O 	O 	0.39020 0.31590 0.51320 -0.35900
O 	O 	0.67830 0.73820 0.21690 -0.29000
O 	O 	0.72950 0.67070 0.07950 -0.45500
O 	O 	0.89010 0.71000 0.17090 -0.45900
O 	O 	0.76340 0.46070 0.45020 -0.41900
O 	O 	0.76890 0.61590 0.51310 -0.42600
O 	O 	0.95530 0.54310 0.47060 -0.48200
O 	O 	0.89370 0.77370 0.45000 -0.38100
O 	O 	0.07760 0.76470 0.39970 -0.37800
O 	O 	0.15490 0.72290 0.54810 -0.40600
O 	O 	0.97460 0.73660 0.59940 -0.41600
O 	O 	0.77900 0.64910 0.67750 -0.36500
O 	O 	0.76180 0.63060 0.81380 -0.40200
O 	O 	0.72700 0.80370 0.83460 -0.36900
O 	O 	0.75050 0.82670 0.69880 -0.38400
O 	O 	0.03080 0.84960 0.04870 -0.41600
O 	O 	0.85890 0.81660 0.99320 -0.38300
O 	O 	0.93540 0.65190 0.95590 -0.36700
O 	O 	0.10980 0.68410 0.01320 -0.35600
