data_crystal

_cell_length_a 26.86740
_cell_length_b 26.86740
_cell_length_c 95.50500
_cell_angle_alpha 90.00000
_cell_angle_beta  90.00000
_cell_angle_gamma 120.00000

_symmetry_space_group_name_	'P 1'
_symmetry_space_group_name_H-M	'P 1'

loop_
_symmetry_equiv_pos_as_xyz
  x,y,z

loop_
_atom_site_label
_atom_site_type_symbol
_atom_site_fract_x
_atom_site_fract_y
_atom_site_fract_z
_atom_site_charge
C 	C 	0.19700 0.47670 0.52724 0.34100
C 	C 	0.15100 0.44710 0.53817 -0.20100
C 	C 	0.12240 0.38650 0.53835 0.14000
H 	H 	0.13210 0.36640 0.53200 -0.00100
C 	C 	0.07890 0.35750 0.54823 -0.25900
H 	H 	0.05940 0.31750 0.54860 0.13200
C 	C 	0.06500 0.38810 0.55752 0.27900
C 	C 	0.09380 0.44700 0.55719 -0.28200
H 	H 	0.08540 0.46790 0.56360 0.13300
C 	C 	0.13590 0.47450 0.54699 0.17100
H 	H 	0.15420 0.51440 0.54640 -0.01100
C 	C 	0.00340 0.38050 0.57648 0.00200
H 	H 	0.99610 0.40850 0.57190 0.04800
H 	H 	0.03320 0.40010 0.58350 0.04300
C 	C 	0.83040 0.35790 0.51079 0.42500
C 	C 	0.84850 0.35580 0.52540 -0.23700
C 	C 	0.86260 0.40030 0.53465 0.20900
H 	H 	0.86410 0.43400 0.53170 -0.02700
C 	C 	0.87450 0.39360 0.54858 -0.34800
H 	H 	0.87910 0.42140 0.55510 0.16100
C 	C 	0.87940 0.35010 0.55283 0.34100
C 	C 	0.86300 0.30240 0.54411 -0.30900
H 	H 	0.86300 0.26960 0.54720 0.14800
C 	C 	0.84680 0.30700 0.53054 0.19600
H 	H 	0.83420 0.27540 0.52460 -0.01700
C 	C 	0.90300 0.30620 0.57191 0.02300
H 	H 	0.91640 0.29100 0.56450 0.03600
H 	H 	0.86770 0.27490 0.57570 0.04600
C 	C 	0.25640 0.56450 0.48686 0.63700
C 	C 	0.23180 0.53500 0.47324 -0.58500
C 	C 	0.18680 0.48350 0.47353 0.54300
H 	H 	0.17130 0.46660 0.48210 -0.15300
C 	C 	0.16160 0.45390 0.46146 -0.58600
H 	H 	0.13100 0.41640 0.46180 0.24700
C 	C 	0.18350 0.48190 0.44865 0.59200
C 	C 	0.22840 0.53250 0.44930 -0.66500
H 	H 	0.24510 0.55040 0.44090 0.26500
C 	C 	0.25370 0.56200 0.46149 0.57400
H 	H 	0.28480 0.59930 0.46130 -0.13700
O 	O 	0.13500 0.43240 0.44104 -0.05400
O 	O 	0.05100 0.45680 0.43467 -0.04100
C 	C 	0.14670 0.43020 0.42590 0.53200
H 	H 	0.17520 0.42610 0.42050 -0.11300
H 	H 	0.16020 0.47060 0.42750 -0.13600
C 	C 	0.04940 0.42470 0.42162 -0.05100
H 	H 	0.06070 0.46240 0.41780 0.05300
H 	H 	0.01680 0.39520 0.41650 0.02700
C 	C 	0.99080 0.42720 0.44129 0.45600
C 	C 	0.95430 0.36410 0.44189 -0.33500
H 	H 	0.95970 0.33830 0.43650 0.15400
C 	C 	0.90730 0.34790 0.45241 0.21300
H 	H 	0.88270 0.30950 0.45460 -0.02000
C 	C 	0.90130 0.38880 0.45855 -0.29500
C 	C 	0.94120 0.44650 0.45460 0.31700
H 	H 	0.93370 0.47490 0.45770 -0.06000
C 	C 	0.98950 0.46400 0.44670 -0.56200
H 	H 	0.01820 0.50220 0.44580 0.23800
C 	C 	0.85800 0.37850 0.46931 0.45900
Co	Co	0.28895 0.52828 0.51339 1.18300
Co	Co	0.42957 0.62043 0.51097 1.16200
O 	O 	0.02093 0.35386 0.56659 -0.24300
O 	O 	0.21232 0.44909 0.51968 -0.36800
O 	O 	0.22229 0.53138 0.52658 -0.47500
O 	O 	0.23925 0.54590 0.49800 -0.65700
O 	O 	0.30000 0.61310 0.48581 -0.45500
O 	O 	0.35015 0.61258 0.51438 -0.58700
O 	O 	0.89330 0.35030 0.56658 -0.25800
O 	O 	0.81473 0.31481 0.50326 -0.44800
O 	O 	0.82067 0.32520 0.47131 -0.43400
O 	O 	0.83430 0.40528 0.50694 -0.45200
O 	O 	0.85953 0.42056 0.47490 -0.47900
O 	O 	0.16310 0.44580 0.43544 -0.48400
O 	O 	0.03440 0.44820 0.42937 -0.25600
C 	C 	0.15470 0.48180 0.42553 0.20800
H 	H 	0.18810 0.51340 0.42120 -0.03000
H 	H 	0.13690 0.49730 0.43160 -0.00500
C 	C 	0.05120 0.40490 0.42587 0.17500
H 	H 	0.02700 0.37000 0.42070 -0.04000
H 	H 	0.05720 0.39360 0.43510 -0.01900
C 	C 	0.86367 0.81003 0.86057 0.34300
C 	C 	0.81767 0.78043 0.87150 -0.20000
C 	C 	0.78907 0.71983 0.87168 0.14300
H 	H 	0.79877 0.69973 0.86533 0.00100
C 	C 	0.74557 0.69083 0.88156 -0.25900
H 	H 	0.72607 0.65083 0.88193 0.13600
C 	C 	0.73167 0.72143 0.89085 0.28500
C 	C 	0.76047 0.78033 0.89052 -0.28300
H 	H 	0.75207 0.80123 0.89693 0.13700
C 	C 	0.80257 0.80783 0.88032 0.17400
H 	H 	0.82087 0.84773 0.87973 -0.01000
C 	C 	0.67007 0.71383 0.90981 0.03500
H 	H 	0.66277 0.74183 0.90523 0.03400
H 	H 	0.69987 0.73343 0.91683 0.03800
C 	C 	0.49707 0.69123 0.84412 0.42700
C 	C 	0.51517 0.68913 0.85873 -0.23700
C 	C 	0.52927 0.73363 0.86798 0.21000
H 	H 	0.53077 0.76733 0.86503 -0.02600
C 	C 	0.54117 0.72693 0.88191 -0.34800
H 	H 	0.54577 0.75473 0.88843 0.16300
C 	C 	0.54607 0.68343 0.88616 0.34200
C 	C 	0.52967 0.63573 0.87744 -0.31000
H 	H 	0.52967 0.60293 0.88053 0.14900
C 	C 	0.51347 0.64033 0.86387 0.19700
H 	H 	0.50087 0.60873 0.85793 -0.01600
C 	C 	0.56967 0.63953 0.90524 0.03200
H 	H 	0.58307 0.62433 0.89783 0.03400
H 	H 	0.53437 0.60823 0.90903 0.04500
C 	C 	0.92307 0.89783 0.82019 0.63400
C 	C 	0.89847 0.86833 0.80657 -0.57800
C 	C 	0.85347 0.81683 0.80686 0.54000
H 	H 	0.83797 0.79993 0.81543 -0.15000
C 	C 	0.82827 0.78723 0.79479 -0.58200
H 	H 	0.79767 0.74973 0.79513 0.24800
C 	C 	0.85017 0.81523 0.78198 0.59000
C 	C 	0.89507 0.86583 0.78263 -0.66000
H 	H 	0.91177 0.88373 0.77423 0.26700
C 	C 	0.92037 0.89533 0.79482 0.57000
H 	H 	0.95147 0.93263 0.79463 -0.13100
O 	O 	0.80167 0.76573 0.77437 -0.05400
O 	O 	0.71767 0.79013 0.76800 -0.04100
C 	C 	0.81337 0.76353 0.75923 0.53100
H 	H 	0.84187 0.75943 0.75383 -0.11200
H 	H 	0.82687 0.80393 0.76083 -0.13700
C 	C 	0.71607 0.75803 0.75495 -0.05100
H 	H 	0.72737 0.79573 0.75113 0.05300
H 	H 	0.68347 0.72853 0.74983 0.02800
C 	C 	0.65747 0.76053 0.77462 0.47200
C 	C 	0.62097 0.69743 0.77522 -0.34900
H 	H 	0.62637 0.67163 0.76983 0.15600
C 	C 	0.57397 0.68123 0.78574 0.22400
H 	H 	0.54937 0.64283 0.78793 -0.02400
C 	C 	0.56797 0.72213 0.79188 -0.30900
C 	C 	0.60787 0.77983 0.78793 0.34100
H 	H 	0.60037 0.80823 0.79103 -0.06900
C 	C 	0.65617 0.79733 0.78003 -0.60500
H 	H 	0.68487 0.83553 0.77913 0.25800
C 	C 	0.52467 0.71183 0.80264 0.46400
Co	Co	0.95562 0.86161 0.84673 1.18400
Co	Co	0.09624 0.95376 0.84430 1.16400
O 	O 	0.68760 0.68719 0.89992 -0.24600
O 	O 	0.87899 0.78242 0.85301 -0.36700
O 	O 	0.88896 0.86471 0.85991 -0.47300
O 	O 	0.90592 0.87923 0.83133 -0.65400
O 	O 	0.96667 0.94643 0.81914 -0.44600
O 	O 	0.01682 0.94591 0.84771 -0.58800
O 	O 	0.55997 0.68363 0.89991 -0.25900
O 	O 	0.48140 0.64814 0.83659 -0.44900
O 	O 	0.48734 0.65853 0.80464 -0.43600
O 	O 	0.50097 0.73861 0.84027 -0.45200
O 	O 	0.52620 0.75389 0.80823 -0.48100
O 	O 	0.82977 0.77913 0.76877 -0.48200
O 	O 	0.70107 0.78153 0.76270 -0.25500
C 	C 	0.82137 0.81513 0.75886 0.20900
H 	H 	0.85477 0.84673 0.75453 -0.03000
H 	H 	0.80357 0.83063 0.76493 -0.00500
C 	C 	0.71787 0.73823 0.75920 0.17400
H 	H 	0.69367 0.70333 0.75403 -0.03800
H 	H 	0.72387 0.72693 0.76843 -0.01700
C 	C 	0.53033 0.14337 0.19391 0.34700
C 	C 	0.48433 0.11377 0.20484 -0.21300
C 	C 	0.45573 0.05317 0.20502 0.16200
H 	H 	0.46543 0.03307 0.19867 -0.00800
C 	C 	0.41223 0.02417 0.21490 -0.29200
H 	H 	0.39273 0.98417 0.21527 0.15400
C 	C 	0.39833 0.05477 0.22419 0.30100
C 	C 	0.42713 0.11367 0.22386 -0.29900
H 	H 	0.41873 0.13457 0.23027 0.14200
C 	C 	0.46923 0.14117 0.21366 0.18800
H 	H 	0.48753 0.18107 0.21307 -0.01600
C 	C 	0.33673 0.04717 0.24315 0.04900
H 	H 	0.32943 0.07517 0.23857 0.02900
H 	H 	0.36653 0.06677 0.25017 0.03200
C 	C 	0.16373 0.02457 0.17746 0.41700
C 	C 	0.18183 0.02247 0.19207 -0.24500
C 	C 	0.19593 0.06697 0.20132 0.21000
H 	H 	0.19743 0.10067 0.19837 -0.02700
C 	C 	0.20783 0.06027 0.21525 -0.34700
H 	H 	0.21243 0.08807 0.22177 0.16200
C 	C 	0.21273 0.01677 0.21950 0.33400
C 	C 	0.19633 0.96907 0.21078 -0.30200
H 	H 	0.19633 0.93627 0.21387 0.14800
C 	C 	0.18013 0.97367 0.19721 0.20600
H 	H 	0.16753 0.94207 0.19127 -0.01800
C 	C 	0.23633 0.97287 0.23858 0.06100
H 	H 	0.24973 0.95767 0.23117 0.02800
H 	H 	0.20103 0.94157 0.24237 0.03800
C 	C 	0.58973 0.23117 0.15353 0.63800
C 	C 	0.56513 0.20167 0.13991 -0.58400
C 	C 	0.52013 0.15017 0.14020 0.54500
H 	H 	0.50463 0.13327 0.14877 -0.15200
C 	C 	0.49493 0.12057 0.12813 -0.58500
H 	H 	0.46433 0.08307 0.12847 0.24800
C 	C 	0.51683 0.14857 0.11532 0.59300
C 	C 	0.56173 0.19917 0.11597 -0.66400
H 	H 	0.57843 0.21707 0.10757 0.26600
C 	C 	0.58703 0.22867 0.12816 0.57400
H 	H 	0.61813 0.26597 0.12797 -0.13700
O 	O 	0.46833 0.09907 0.10771 -0.05400
O 	O 	0.38433 0.12347 0.10134 -0.04100
C 	C 	0.48003 0.09687 0.09257 0.53200
H 	H 	0.50853 0.09277 0.08717 -0.11300
H 	H 	0.49353 0.13727 0.09417 -0.13600
C 	C 	0.38273 0.09137 0.08829 -0.05100
H 	H 	0.39403 0.12907 0.08447 0.05300
H 	H 	0.35013 0.06187 0.08317 0.02700
C 	C 	0.32413 0.09387 0.10796 0.45400
C 	C 	0.28763 0.03077 0.10856 -0.33000
H 	H 	0.29303 0.00497 0.10317 0.14700
C 	C 	0.24063 0.01457 0.11908 0.18900
H 	H 	0.21603 0.97617 0.12127 -0.00600
C 	C 	0.23463 0.05547 0.12522 -0.28800
C 	C 	0.27453 0.11317 0.12127 0.32000
H 	H 	0.26703 0.14157 0.12437 -0.06300
C 	C 	0.32283 0.13067 0.11337 -0.58000
H 	H 	0.35153 0.16887 0.11247 0.24900
C 	C 	0.19133 0.04517 0.13598 0.44500
Co	Co	0.62228 0.19495 0.18006 1.18300
Co	Co	0.76290 0.28710 0.17764 1.16200
O 	O 	0.35426 0.02053 0.23326 -0.25600
O 	O 	0.54565 0.11576 0.18635 -0.37000
O 	O 	0.55562 0.19805 0.19325 -0.47600
O 	O 	0.57258 0.21257 0.16467 -0.65700
O 	O 	0.63333 0.27977 0.15248 -0.45500
O 	O 	0.68348 0.27925 0.18105 -0.58800
O 	O 	0.22663 0.01697 0.23325 -0.26700
O 	O 	0.14806 0.98148 0.16993 -0.43900
O 	O 	0.15400 0.99187 0.13798 -0.42500
O 	O 	0.16763 0.07195 0.17361 -0.45100
O 	O 	0.19286 0.08723 0.14157 -0.47700
O 	O 	0.49643 0.11247 0.10211 -0.48400
O 	O 	0.36773 0.11487 0.09604 -0.25300
C 	C 	0.48803 0.14847 0.09220 0.20800
H 	H 	0.52143 0.18007 0.08787 -0.03000
H 	H 	0.47023 0.16397 0.09827 -0.00500
C 	C 	0.38453 0.07157 0.09254 0.17400
H 	H 	0.36033 0.03667 0.08737 -0.03800
H 	H 	0.39053 0.06027 0.10177 -0.01800
C 	C 	0.52330 0.72030 0.52724 0.34300
C 	C 	0.55290 0.70390 0.53817 -0.20100
C 	C 	0.61350 0.73590 0.53835 0.14400
H 	H 	0.63360 0.76570 0.53200 0.00100
C 	C 	0.64250 0.72140 0.54823 -0.26000
H 	H 	0.68250 0.74190 0.54860 0.13700
C 	C 	0.61190 0.67690 0.55752 0.28500
C 	C 	0.55300 0.64680 0.55719 -0.28400
H 	H 	0.53210 0.61750 0.56360 0.13700
C 	C 	0.52550 0.66140 0.54699 0.17500
H 	H 	0.48560 0.63980 0.54640 -0.01100
C 	C 	0.61950 0.62290 0.57648 0.03500
H 	H 	0.59150 0.58760 0.57190 0.03400
H 	H 	0.59990 0.63310 0.58350 0.03700
C 	C 	0.64210 0.47250 0.51079 0.42700
C 	C 	0.64420 0.49270 0.52540 -0.23700
C 	C 	0.59970 0.46230 0.53465 0.21000
H 	H 	0.56600 0.43010 0.53170 -0.02700
C 	C 	0.60640 0.48090 0.54858 -0.34800
H 	H 	0.57860 0.45770 0.55510 0.16300
C 	C 	0.64990 0.52930 0.55283 0.34200
C 	C 	0.69760 0.56060 0.54411 -0.31000
H 	H 	0.73040 0.59340 0.54720 0.15000
C 	C 	0.69300 0.53980 0.53054 0.19700
H 	H 	0.72460 0.55880 0.52460 -0.01600
C 	C 	0.69380 0.59680 0.57191 0.03200
H 	H 	0.70900 0.62540 0.56450 0.03400
H 	H 	0.72510 0.59280 0.57570 0.04500
C 	C 	0.43550 0.69190 0.48686 0.63800
C 	C 	0.46500 0.69680 0.47324 -0.58400
C 	C 	0.51650 0.70330 0.47353 0.54500
H 	H 	0.53340 0.70470 0.48210 -0.15100
C 	C 	0.54610 0.70770 0.46146 -0.58600
H 	H 	0.58360 0.71460 0.46180 0.25000
C 	C 	0.51810 0.70160 0.44865 0.59300
C 	C 	0.46750 0.69590 0.44930 -0.66500
H 	H 	0.44960 0.69470 0.44090 0.26700
C 	C 	0.43800 0.69170 0.46149 0.57500
H 	H 	0.40070 0.68550 0.46130 -0.13700
O 	O 	0.56760 0.70260 0.44104 -0.05300
O 	O 	0.54320 0.59420 0.43467 -0.04100
C 	C 	0.56980 0.71650 0.42590 0.53300
H 	H 	0.57390 0.74910 0.42050 -0.11400
H 	H 	0.52940 0.68960 0.42750 -0.13600
C 	C 	0.57530 0.62470 0.42162 -0.05100
H 	H 	0.53760 0.59830 0.41780 0.05300
H 	H 	0.60480 0.62160 0.41650 0.02800
C 	C 	0.57280 0.56360 0.44129 0.47200
C 	C 	0.63590 0.59020 0.44189 -0.34900
H 	H 	0.66170 0.62140 0.43650 0.15600
C 	C 	0.65210 0.55940 0.45241 0.22500
H 	H 	0.69050 0.57320 0.45460 -0.02400
C 	C 	0.61120 0.51250 0.45855 -0.30900
C 	C 	0.55350 0.49470 0.45460 0.34100
H 	H 	0.52510 0.45880 0.45770 -0.06900
C 	C 	0.53600 0.52550 0.44670 -0.60500
H 	H 	0.49780 0.51600 0.44580 0.25800
C 	C 	0.62150 0.47950 0.46931 0.46400
Co	Co	0.47172 0.76067 0.51339 1.18300
Co	Co	0.37957 0.80914 0.51097 1.16200
O 	O 	0.64614 0.66707 0.56659 -0.24600
O 	O 	0.55091 0.76323 0.51968 -0.36700
O 	O 	0.46862 0.69091 0.52658 -0.47500
O 	O 	0.45410 0.69335 0.49800 -0.65700
O 	O 	0.38690 0.68690 0.48581 -0.45500
O 	O 	0.38742 0.73757 0.51438 -0.58700
O 	O 	0.64970 0.54300 0.56658 -0.25900
O 	O 	0.68519 0.49992 0.50326 -0.44800
O 	O 	0.67480 0.49547 0.47131 -0.43600
O 	O 	0.59472 0.42902 0.50694 -0.45200
O 	O 	0.57944 0.43897 0.47490 -0.48100
O 	O 	0.55420 0.71730 0.43544 -0.48400
O 	O 	0.55180 0.58620 0.42937 -0.25500
C 	C 	0.51820 0.67290 0.42553 0.20800
H 	H 	0.48660 0.67470 0.42120 -0.03000
H 	H 	0.50270 0.63960 0.43160 -0.00500
C 	C 	0.59510 0.64630 0.42587 0.17500
H 	H 	0.63000 0.65700 0.42070 -0.03800
H 	H 	0.60640 0.66360 0.43510 -0.01700
C 	C 	0.18997 0.05363 0.86057 0.34700
C 	C 	0.21957 0.03723 0.87150 -0.21500
C 	C 	0.28017 0.06923 0.87168 0.14700
H 	H 	0.30027 0.09903 0.86533 -0.00200
C 	C 	0.30917 0.05473 0.88156 -0.26100
H 	H 	0.34917 0.07523 0.88193 0.13500
C 	C 	0.27857 0.01023 0.89085 0.27700
C 	C 	0.21967 0.98013 0.89052 -0.27900
H 	H 	0.19877 0.95083 0.89693 0.13600
C 	C 	0.19217 0.99473 0.88032 0.18900
H 	H 	0.15227 0.97313 0.87973 -0.01400
C 	C 	0.28617 0.95623 0.90981 0.03700
H 	H 	0.25817 0.92093 0.90523 0.03400
H 	H 	0.26657 0.96643 0.91683 0.03900
C 	C 	0.30877 0.80583 0.84412 0.42700
C 	C 	0.31087 0.82603 0.85873 -0.23700
C 	C 	0.26637 0.79563 0.86798 0.21000
H 	H 	0.23267 0.76343 0.86503 -0.02700
C 	C 	0.27307 0.81423 0.88191 -0.34700
H 	H 	0.24527 0.79103 0.88843 0.16300
C 	C 	0.31657 0.86263 0.88616 0.34200
C 	C 	0.36427 0.89393 0.87744 -0.30900
H 	H 	0.39707 0.92673 0.88053 0.15000
C 	C 	0.35967 0.87313 0.86387 0.19700
H 	H 	0.39127 0.89213 0.85793 -0.01600
C 	C 	0.36047 0.93013 0.90524 0.02400
H 	H 	0.37567 0.95873 0.89783 0.03800
H 	H 	0.39177 0.92613 0.90903 0.04800
C 	C 	0.10217 0.02523 0.82019 0.64000
C 	C 	0.13167 0.03013 0.80657 -0.59000
C 	C 	0.18317 0.03663 0.80686 0.54800
H 	H 	0.20007 0.03803 0.81543 -0.15400
C 	C 	0.21277 0.04103 0.79479 -0.59000
H 	H 	0.25027 0.04793 0.79513 0.24900
C 	C 	0.18477 0.03493 0.78198 0.59500
C 	C 	0.13417 0.02923 0.78263 -0.67000
H 	H 	0.11627 0.02803 0.77423 0.26600
C 	C 	0.10467 0.02503 0.79482 0.57900
H 	H 	0.06737 0.01883 0.79463 -0.14200
O 	O 	0.23427 0.03593 0.77437 -0.05700
O 	O 	0.20987 0.92753 0.76800 -0.03700
C 	C 	0.23647 0.04983 0.75923 0.54000
H 	H 	0.24057 0.08243 0.75383 -0.11600
H 	H 	0.19607 0.02293 0.76083 -0.14000
C 	C 	0.24197 0.95803 0.75495 -0.05200
H 	H 	0.20427 0.93163 0.75113 0.05300
H 	H 	0.27147 0.95493 0.74983 0.02900
C 	C 	0.23947 0.89693 0.77462 0.47300
C 	C 	0.30257 0.92353 0.77522 -0.35000
H 	H 	0.32837 0.95473 0.76983 0.15700
C 	C 	0.31877 0.89273 0.78574 0.22500
H 	H 	0.35717 0.90653 0.78793 -0.02400
C 	C 	0.27787 0.84583 0.79188 -0.31000
C 	C 	0.22017 0.82803 0.78793 0.34200
H 	H 	0.19177 0.79213 0.79103 -0.07000
C 	C 	0.20267 0.85883 0.78003 -0.60600
H 	H 	0.16447 0.84933 0.77913 0.25900
C 	C 	0.28817 0.81283 0.80264 0.46500
Co	Co	0.13839 0.09400 0.84673 1.18300
Co	Co	0.04624 0.14247 0.84430 1.15900
O 	O 	0.31281 0.00040 0.89992 -0.25100
O 	O 	0.21758 0.09656 0.85301 -0.36900
O 	O 	0.13529 0.02424 0.85991 -0.48100
O 	O 	0.12077 0.02668 0.83133 -0.66000
O 	O 	0.05357 0.02023 0.81914 -0.46100
O 	O 	0.05409 0.07090 0.84771 -0.59200
O 	O 	0.31637 0.87633 0.89991 -0.25800
O 	O 	0.35186 0.83325 0.83659 -0.44800
O 	O 	0.34147 0.82880 0.80464 -0.43500
O 	O 	0.26139 0.76235 0.84027 -0.45200
O 	O 	0.24611 0.77230 0.80823 -0.48100
O 	O 	0.22087 0.05063 0.76877 -0.48500
O 	O 	0.21847 0.91953 0.76270 -0.25900
C 	C 	0.18487 0.00623 0.75886 0.21000
H 	H 	0.15327 0.00803 0.75453 -0.03700
H 	H 	0.16937 0.97293 0.76493 -0.00000
C 	C 	0.26177 0.97963 0.75920 0.18200
H 	H 	0.29667 0.99033 0.75403 -0.03500
H 	H 	0.27307 0.99693 0.76843 -0.01700
C 	C 	0.85663 0.38697 0.19391 0.33900
C 	C 	0.88623 0.37057 0.20484 -0.19000
C 	C 	0.94683 0.40257 0.20502 0.12700
H 	H 	0.96693 0.43237 0.19867 0.00800
C 	C 	0.97583 0.38807 0.21490 -0.23100
H 	H 	0.01583 0.40857 0.21527 0.12000
C 	C 	0.94523 0.34357 0.22419 0.27300
C 	C 	0.88633 0.31347 0.22386 -0.27200
H 	H 	0.86543 0.28417 0.23027 0.13300
C 	C 	0.85883 0.32807 0.21366 0.16400
H 	H 	0.81893 0.30647 0.21307 -0.00700
C 	C 	0.95283 0.28957 0.24315 0.05200
H 	H 	0.92483 0.25427 0.23857 0.03000
H 	H 	0.93323 0.29977 0.25017 0.03400
C 	C 	0.97543 0.13917 0.17746 0.43600
C 	C 	0.97753 0.15937 0.19207 -0.23300
C 	C 	0.93303 0.12897 0.20132 0.21300
H 	H 	0.89933 0.09677 0.19837 -0.02900
C 	C 	0.93973 0.14757 0.21525 -0.35300
H 	H 	0.91193 0.12437 0.22177 0.16400
C 	C 	0.98323 0.19597 0.21950 0.35500
C 	C 	0.03093 0.22727 0.21078 -0.32200
H 	H 	0.06373 0.26007 0.21387 0.15200
C 	C 	0.02633 0.20647 0.19721 0.19100
H 	H 	0.05793 0.22547 0.19127 -0.01600
C 	C 	0.02713 0.26347 0.23858 0.03400
H 	H 	0.04233 0.29207 0.23117 0.03100
H 	H 	0.05843 0.25947 0.24237 0.04300
C 	C 	0.76883 0.35857 0.15353 0.63800
C 	C 	0.79833 0.36347 0.13991 -0.58400
C 	C 	0.84983 0.36997 0.14020 0.54500
H 	H 	0.86673 0.37137 0.14877 -0.15100
C 	C 	0.87943 0.37437 0.12813 -0.58600
H 	H 	0.91693 0.38127 0.12847 0.25000
C 	C 	0.85143 0.36827 0.11532 0.59300
C 	C 	0.80083 0.36257 0.11597 -0.66500
H 	H 	0.78293 0.36137 0.10757 0.26700
C 	C 	0.77133 0.35837 0.12816 0.57500
H 	H 	0.73403 0.35217 0.12797 -0.13700
O 	O 	0.90093 0.36927 0.10771 -0.05300
O 	O 	0.87653 0.26087 0.10134 -0.04100
C 	C 	0.90313 0.38317 0.09257 0.53300
H 	H 	0.90723 0.41577 0.08717 -0.11300
H 	H 	0.86273 0.35627 0.09417 -0.13600
C 	C 	0.90863 0.29137 0.08829 -0.05200
H 	H 	0.87093 0.26497 0.08447 0.05400
H 	H 	0.93813 0.28827 0.08317 0.02900
C 	C 	0.90613 0.23027 0.10796 0.48900
C 	C 	0.96923 0.25687 0.10856 -0.36800
H 	H 	0.99503 0.28807 0.10317 0.16400
C 	C 	0.98543 0.22607 0.11908 0.25700
H 	H 	0.02383 0.23987 0.12127 -0.04100
C 	C 	0.94453 0.17917 0.12522 -0.33000
C 	C 	0.88683 0.16137 0.12127 0.36100
H 	H 	0.85843 0.12547 0.12437 -0.07600
C 	C 	0.86933 0.19217 0.11337 -0.62800
H 	H 	0.83113 0.18267 0.11247 0.26600
C 	C 	0.95483 0.14617 0.13598 0.48200
Co	Co	0.80505 0.42734 0.18006 1.18300
Co	Co	0.71290 0.47581 0.17764 1.16200
O 	O 	0.97947 0.33374 0.23326 -0.24200
O 	O 	0.88424 0.42990 0.18635 -0.36600
O 	O 	0.80195 0.35758 0.19325 -0.47400
O 	O 	0.78743 0.36002 0.16467 -0.65600
O 	O 	0.72023 0.35357 0.15248 -0.45500
O 	O 	0.72075 0.40424 0.18105 -0.58700
O 	O 	0.98303 0.20967 0.23325 -0.25700
O 	O 	0.01852 0.16659 0.16993 -0.45700
O 	O 	0.00813 0.16214 0.13798 -0.44700
O 	O 	0.92805 0.09569 0.17361 -0.45500
O 	O 	0.91277 0.10564 0.14157 -0.48600
O 	O 	0.88753 0.38397 0.10211 -0.48400
O 	O 	0.88513 0.25287 0.09604 -0.25800
C 	C 	0.85153 0.33957 0.09220 0.20800
H 	H 	0.81993 0.34137 0.08787 -0.03000
H 	H 	0.83603 0.30627 0.09827 -0.00500
C 	C 	0.92843 0.31297 0.09254 0.17600
H 	H 	0.96333 0.32367 0.08737 -0.03900
H 	H 	0.93973 0.33027 0.10177 -0.01800
C 	C 	0.27970 0.80300 0.52724 0.34400
C 	C 	0.29610 0.84900 0.53817 -0.20300
C 	C 	0.26410 0.87760 0.53835 0.14600
H 	H 	0.23430 0.86790 0.53200 -0.00000
C 	C 	0.27860 0.92110 0.54823 -0.26300
H 	H 	0.25810 0.94060 0.54860 0.13900
C 	C 	0.32310 0.93500 0.55752 0.29100
C 	C 	0.35320 0.90620 0.55719 -0.28800
H 	H 	0.38250 0.91460 0.56360 0.14000
C 	C 	0.33860 0.86410 0.54699 0.17800
H 	H 	0.36020 0.84580 0.54640 -0.01200
C 	C 	0.37710 0.99660 0.57648 0.07100
H 	H 	0.41240 0.00390 0.57190 0.01700
H 	H 	0.36690 0.96680 0.58350 0.02900
C 	C 	0.52750 0.16960 0.51079 0.42700
C 	C 	0.50730 0.15150 0.52540 -0.23900
C 	C 	0.53770 0.13740 0.53465 0.21100
H 	H 	0.56990 0.13590 0.53170 -0.02700
C 	C 	0.51910 0.12550 0.54858 -0.34900
H 	H 	0.54230 0.12090 0.55510 0.16300
C 	C 	0.47070 0.12060 0.55283 0.34300
C 	C 	0.43940 0.13700 0.54411 -0.31200
H 	H 	0.40660 0.13700 0.54720 0.14900
C 	C 	0.46020 0.15320 0.53054 0.19700
H 	H 	0.44120 0.16580 0.52460 -0.01700
C 	C 	0.40320 0.09700 0.57191 0.04200
H 	H 	0.37460 0.08360 0.56450 0.02900
H 	H 	0.40720 0.13230 0.57570 0.04200
C 	C 	0.30810 0.74360 0.48686 0.63800
C 	C 	0.30320 0.76820 0.47324 -0.58400
C 	C 	0.29670 0.81320 0.47353 0.54500
H 	H 	0.29530 0.82870 0.48210 -0.15100
C 	C 	0.29230 0.83840 0.46146 -0.58600
H 	H 	0.28540 0.86900 0.46180 0.25000
C 	C 	0.29840 0.81650 0.44865 0.59400
C 	C 	0.30410 0.77160 0.44930 -0.66500
H 	H 	0.30530 0.75490 0.44090 0.26700
C 	C 	0.30830 0.74630 0.46149 0.57500
H 	H 	0.31450 0.71520 0.46130 -0.13700
O 	O 	0.29740 0.86500 0.44104 -0.05300
O 	O 	0.40580 0.94900 0.43467 -0.04100
C 	C 	0.28350 0.85330 0.42590 0.53300
H 	H 	0.25090 0.82480 0.42050 -0.11300
H 	H 	0.31040 0.83980 0.42750 -0.13600
C 	C 	0.37530 0.95060 0.42162 -0.05200
H 	H 	0.40170 0.93930 0.41780 0.05400
H 	H 	0.37840 0.98320 0.41650 0.03000
C 	C 	0.43640 0.00920 0.44129 0.48700
C 	C 	0.40980 0.04570 0.44189 -0.36300
H 	H 	0.37860 0.04030 0.43650 0.15700
C 	C 	0.44060 0.09270 0.45241 0.23500
H 	H 	0.42680 0.11730 0.45460 -0.02900
C 	C 	0.48750 0.09870 0.45855 -0.32300
C 	C 	0.50530 0.05880 0.45460 0.36400
H 	H 	0.54120 0.06630 0.45770 -0.07900
C 	C 	0.47450 0.01050 0.44670 -0.64500
H 	H 	0.48400 0.98180 0.44580 0.27700
C 	C 	0.52050 0.14200 0.46931 0.46900
Co	Co	0.23933 0.71105 0.51339 1.18300
Co	Co	0.19086 0.57043 0.51097 1.16200
O 	O 	0.33293 0.97907 0.56659 -0.25100
O 	O 	0.23677 0.78768 0.51968 -0.36800
O 	O 	0.30909 0.77771 0.52658 -0.47500
O 	O 	0.30665 0.76075 0.49800 -0.65600
O 	O 	0.31310 0.70000 0.48581 -0.45500
O 	O 	0.26243 0.64985 0.51438 -0.58700
O 	O 	0.45700 0.10670 0.56658 -0.26200
O 	O 	0.50008 0.18527 0.50326 -0.44900
O 	O 	0.50453 0.17933 0.47131 -0.43700
O 	O 	0.57098 0.16570 0.50694 -0.45300
O 	O 	0.56103 0.14047 0.47490 -0.48300
O 	O 	0.28270 0.83690 0.43544 -0.48500
O 	O 	0.41380 0.96560 0.42937 -0.25400
C 	C 	0.32710 0.84530 0.42553 0.20800
H 	H 	0.32530 0.81190 0.42120 -0.03000
H 	H 	0.36040 0.86310 0.43160 -0.00500
C 	C 	0.35370 0.94880 0.42587 0.17400
H 	H 	0.34300 0.97300 0.42070 -0.03700
H 	H 	0.33640 0.94280 0.43510 -0.01600
C 	C 	0.94637 0.13633 0.86057 0.33900
C 	C 	0.96277 0.18233 0.87150 -0.18700
C 	C 	0.93077 0.21093 0.87168 0.14000
H 	H 	0.90097 0.20123 0.86533 0.00200
C 	C 	0.94527 0.25443 0.88156 -0.25900
H 	H 	0.92477 0.27393 0.88193 0.13700
C 	C 	0.98977 0.26833 0.89085 0.29400
C 	C 	0.01987 0.23953 0.89052 -0.29100
H 	H 	0.04917 0.24793 0.89693 0.13700
C 	C 	0.00527 0.19743 0.88032 0.16000
H 	H 	0.02687 0.17913 0.87973 -0.00900
C 	C 	0.04377 0.32993 0.90981 0.03500
H 	H 	0.07907 0.33723 0.90523 0.03300
H 	H 	0.03357 0.30013 0.91683 0.03400
C 	C 	0.19417 0.50293 0.84412 0.42700
C 	C 	0.17397 0.48483 0.85873 -0.23800
C 	C 	0.20437 0.47073 0.86798 0.21100
H 	H 	0.23657 0.46923 0.86503 -0.02700
C 	C 	0.18577 0.45883 0.88191 -0.34900
H 	H 	0.20897 0.45423 0.88843 0.16300
C 	C 	0.13737 0.45393 0.88616 0.34300
C 	C 	0.10607 0.47033 0.87744 -0.31100
H 	H 	0.07327 0.47033 0.88053 0.14900
C 	C 	0.12687 0.48653 0.86387 0.19700
H 	H 	0.10787 0.49913 0.85793 -0.01700
C 	C 	0.06987 0.43033 0.90524 0.04200
H 	H 	0.04127 0.41693 0.89783 0.02800
H 	H 	0.07387 0.46563 0.90903 0.04200
C 	C 	0.97477 0.07693 0.82019 0.64000
C 	C 	0.96987 0.10153 0.80657 -0.58800
C 	C 	0.96337 0.14653 0.80686 0.55200
H 	H 	0.96197 0.16203 0.81543 -0.15200
C 	C 	0.95897 0.17173 0.79479 -0.59100
H 	H 	0.95207 0.20233 0.79513 0.25200
C 	C 	0.96507 0.14983 0.78198 0.60100
C 	C 	0.97077 0.10493 0.78263 -0.67100
H 	H 	0.97197 0.08823 0.77423 0.26900
C 	C 	0.97497 0.07963 0.79482 0.58100
H 	H 	0.98117 0.04853 0.79463 -0.13900
O 	O 	0.96407 0.19833 0.77437 -0.04300
O 	O 	0.07247 0.28233 0.76800 -0.04400
C 	C 	0.95017 0.18663 0.75923 0.55300
H 	H 	0.91757 0.15813 0.75383 -0.11900
H 	H 	0.97707 0.17313 0.76083 -0.12600
C 	C 	0.04197 0.28393 0.75495 -0.04800
H 	H 	0.06837 0.27263 0.75113 0.05100
H 	H 	0.04507 0.31653 0.74983 0.02600
C 	C 	0.10307 0.34253 0.77462 0.47100
C 	C 	0.07647 0.37903 0.77522 -0.35000
H 	H 	0.04527 0.37363 0.76983 0.15400
C 	C 	0.10727 0.42603 0.78574 0.22400
H 	H 	0.09347 0.45063 0.78793 -0.02500
C 	C 	0.15417 0.43203 0.79188 -0.31000
C 	C 	0.17197 0.39213 0.78793 0.34100
H 	H 	0.20787 0.39963 0.79103 -0.06900
C 	C 	0.14117 0.34383 0.78003 -0.60500
H 	H 	0.15067 0.31513 0.77913 0.25800
C 	C 	0.18717 0.47533 0.80264 0.46400
Co	Co	0.90600 0.04438 0.84673 1.18200
Co	Co	0.85753 0.90376 0.84430 1.16300
O 	O 	0.99960 0.31240 0.89992 -0.24200
O 	O 	0.90344 0.12101 0.85301 -0.36600
O 	O 	0.97576 0.11104 0.85991 -0.47000
O 	O 	0.97332 0.09408 0.83133 -0.65400
O 	O 	0.97977 0.03333 0.81914 -0.45400
O 	O 	0.92910 0.98318 0.84771 -0.58000
O 	O 	0.12367 0.44003 0.89991 -0.26100
O 	O 	0.16675 0.51860 0.83659 -0.44900
O 	O 	0.17120 0.51266 0.80464 -0.43600
O 	O 	0.23765 0.49903 0.84027 -0.45300
O 	O 	0.22770 0.47380 0.80823 -0.48100
O 	O 	0.94937 0.17023 0.76877 -0.50200
O 	O 	0.08047 0.29893 0.76270 -0.25400
C 	C 	0.99377 0.17863 0.75886 0.19600
H 	H 	0.99197 0.14523 0.75453 -0.02100
H 	H 	0.02707 0.19643 0.76493 -0.00700
C 	C 	0.02037 0.28213 0.75920 0.17600
H 	H 	0.00967 0.30633 0.75403 -0.04500
H 	H 	0.00307 0.27613 0.76843 -0.02200
C 	C 	0.61303 0.46967 0.19391 0.34300
C 	C 	0.62943 0.51567 0.20484 -0.20100
C 	C 	0.59743 0.54427 0.20502 0.14400
H 	H 	0.56763 0.53457 0.19867 0.00000
C 	C 	0.61193 0.58777 0.21490 -0.26000
H 	H 	0.59143 0.60727 0.21527 0.13600
C 	C 	0.65643 0.60167 0.22419 0.28500
C 	C 	0.68653 0.57287 0.22386 -0.28400
H 	H 	0.71583 0.58127 0.23027 0.13700
C 	C 	0.67193 0.53077 0.21366 0.17500
H 	H 	0.69353 0.51247 0.21307 -0.01100
C 	C 	0.71043 0.66327 0.24315 0.03500
H 	H 	0.74573 0.67057 0.23857 0.03400
H 	H 	0.70023 0.63347 0.25017 0.03700
C 	C 	0.86083 0.83627 0.17746 0.42600
C 	C 	0.84063 0.81817 0.19207 -0.23600
C 	C 	0.87103 0.80407 0.20132 0.21000
H 	H 	0.90323 0.80257 0.19837 -0.02500
C 	C 	0.85243 0.79217 0.21525 -0.34700
H 	H 	0.87563 0.78757 0.22177 0.16300
C 	C 	0.80403 0.78727 0.21950 0.34200
C 	C 	0.77273 0.80367 0.21078 -0.30900
H 	H 	0.73993 0.80367 0.21387 0.14900
C 	C 	0.79353 0.81987 0.19721 0.19600
H 	H 	0.77453 0.83247 0.19127 -0.01600
C 	C 	0.73653 0.76367 0.23858 0.03200
H 	H 	0.70793 0.75027 0.23117 0.03400
H 	H 	0.74053 0.79897 0.24237 0.04600
C 	C 	0.64143 0.41027 0.15353 0.63800
C 	C 	0.63653 0.43487 0.13991 -0.58400
C 	C 	0.63003 0.47987 0.14020 0.54500
H 	H 	0.62863 0.49537 0.14877 -0.15100
C 	C 	0.62563 0.50507 0.12813 -0.58600
H 	H 	0.61873 0.53567 0.12847 0.24900
C 	C 	0.63173 0.48317 0.11532 0.59300
C 	C 	0.63743 0.43827 0.11597 -0.66500
H 	H 	0.63863 0.42157 0.10757 0.26700
C 	C 	0.64163 0.41297 0.12816 0.57500
H 	H 	0.64783 0.38187 0.12797 -0.13700
O 	O 	0.63073 0.53167 0.10771 -0.05300
O 	O 	0.73913 0.61567 0.10134 -0.04200
C 	C 	0.61683 0.51997 0.09257 0.53300
H 	H 	0.58423 0.49147 0.08717 -0.11300
H 	H 	0.64373 0.50647 0.09417 -0.13600
C 	C 	0.70863 0.61727 0.08829 -0.05100
H 	H 	0.73503 0.60597 0.08447 0.05300
H 	H 	0.71173 0.64987 0.08317 0.02900
C 	C 	0.76973 0.67587 0.10796 0.47200
C 	C 	0.74313 0.71237 0.10856 -0.34900
H 	H 	0.71193 0.70697 0.10317 0.15600
C 	C 	0.77393 0.75937 0.11908 0.22400
H 	H 	0.76013 0.78397 0.12127 -0.02400
C 	C 	0.82083 0.76537 0.12522 -0.30800
C 	C 	0.83863 0.72547 0.12127 0.34100
H 	H 	0.87453 0.73297 0.12437 -0.06900
C 	C 	0.80783 0.67717 0.11337 -0.60400
H 	H 	0.81733 0.64847 0.11247 0.25800
C 	C 	0.85383 0.80867 0.13598 0.46400
Co	Co	0.57266 0.37772 0.18006 1.18300
Co	Co	0.52419 0.23710 0.17764 1.16200
O 	O 	0.66626 0.64574 0.23326 -0.24600
O 	O 	0.57010 0.45435 0.18635 -0.36800
O 	O 	0.64242 0.44438 0.19325 -0.47500
O 	O 	0.63998 0.42742 0.16467 -0.65700
O 	O 	0.64643 0.36667 0.15248 -0.45500
O 	O 	0.59576 0.31652 0.18105 -0.58700
O 	O 	0.79033 0.77337 0.23325 -0.25900
O 	O 	0.83341 0.85194 0.16993 -0.44800
O 	O 	0.83786 0.84600 0.13798 -0.43500
O 	O 	0.90431 0.83237 0.17361 -0.45000
O 	O 	0.89436 0.80714 0.14157 -0.48000
O 	O 	0.61603 0.50357 0.10211 -0.48400
O 	O 	0.74713 0.63227 0.09604 -0.25400
C 	C 	0.66043 0.51197 0.09220 0.20800
H 	H 	0.65863 0.47857 0.08787 -0.03000
H 	H 	0.69373 0.52977 0.09827 -0.00500
C 	C 	0.68703 0.61547 0.09254 0.17400
H 	H 	0.67633 0.63967 0.08737 -0.03800
H 	H 	0.66973 0.60947 0.10177 -0.01700
C 	C 	0.47670 0.19700 0.97276 0.34200
C 	C 	0.44710 0.15100 0.96183 -0.20000
C 	C 	0.38650 0.12240 0.96165 0.14100
H 	H 	0.36640 0.13210 0.96800 0.00000
C 	C 	0.35750 0.07890 0.95177 -0.25800
H 	H 	0.31750 0.05940 0.95140 0.13300
C 	C 	0.38810 0.06500 0.94248 0.28000
C 	C 	0.44700 0.09380 0.94281 -0.28100
H 	H 	0.46790 0.08540 0.93640 0.13400
C 	C 	0.47450 0.13590 0.95301 0.17200
H 	H 	0.51440 0.15420 0.95360 -0.01000
C 	C 	0.38050 0.00340 0.92352 0.00300
H 	H 	0.40850 0.99610 0.92810 0.04900
H 	H 	0.40010 0.03320 0.91650 0.04400
C 	C 	0.35790 0.83040 0.98921 0.42600
C 	C 	0.35580 0.84850 0.97460 -0.23600
C 	C 	0.40030 0.86260 0.96535 0.21000
H 	H 	0.43400 0.86410 0.96830 -0.02600
C 	C 	0.39360 0.87450 0.95142 -0.34700
H 	H 	0.42140 0.87910 0.94490 0.16200
C 	C 	0.35010 0.87940 0.94717 0.34200
C 	C 	0.30240 0.86300 0.95589 -0.30800
H 	H 	0.26960 0.86300 0.95280 0.14900
C 	C 	0.30700 0.84680 0.96946 0.19700
H 	H 	0.27540 0.83420 0.97540 -0.01600
C 	C 	0.30620 0.90300 0.92809 0.02400
H 	H 	0.29100 0.91640 0.93550 0.03700
H 	H 	0.27490 0.86770 0.92430 0.04700
C 	C 	0.56450 0.25640 0.01314 0.63800
C 	C 	0.53500 0.23180 0.02676 -0.58400
C 	C 	0.48350 0.18680 0.02647 0.54400
H 	H 	0.46660 0.17130 0.01790 -0.15200
C 	C 	0.45390 0.16160 0.03854 -0.58500
H 	H 	0.41640 0.13100 0.03820 0.24800
C 	C 	0.48190 0.18350 0.05135 0.59300
C 	C 	0.53250 0.22840 0.05070 -0.66400
H 	H 	0.55040 0.24510 0.05910 0.26600
C 	C 	0.56200 0.25370 0.03851 0.57400
H 	H 	0.59930 0.28480 0.03870 -0.13700
O 	O 	0.43240 0.13500 0.05896 -0.05400
O 	O 	0.45680 0.05100 0.06533 -0.04100
C 	C 	0.43020 0.14670 0.07410 0.53200
H 	H 	0.42610 0.17520 0.07950 -0.11300
H 	H 	0.47060 0.16020 0.07250 -0.13600
C 	C 	0.42470 0.04940 0.07838 -0.05100
H 	H 	0.46240 0.06070 0.08220 0.05300
H 	H 	0.39520 0.01680 0.08350 0.02700
C 	C 	0.42720 0.99080 0.05871 0.45600
C 	C 	0.36410 0.95430 0.05811 -0.33500
H 	H 	0.33830 0.95970 0.06350 0.15400
C 	C 	0.34790 0.90730 0.04759 0.21300
H 	H 	0.30950 0.88270 0.04540 -0.02000
C 	C 	0.38880 0.90130 0.04145 -0.29500
C 	C 	0.44650 0.94120 0.04540 0.31700
H 	H 	0.47490 0.93370 0.04230 -0.06000
C 	C 	0.46400 0.98950 0.05330 -0.56200
H 	H 	0.50220 0.01820 0.05420 0.23800
C 	C 	0.37850 0.85800 0.03069 0.45900
Co	Co	0.52828 0.28895 0.98661 1.18300
Co	Co	0.62043 0.42957 0.98903 1.16200
O 	O 	0.35386 0.02093 0.93341 -0.24300
O 	O 	0.44909 0.21232 0.98032 -0.36800
O 	O 	0.53138 0.22229 0.97342 -0.47500
O 	O 	0.54590 0.23925 0.00200 -0.65700
O 	O 	0.61310 0.30000 0.01419 -0.45500
O 	O 	0.61258 0.35015 0.98562 -0.58700
O 	O 	0.35030 0.89330 0.93342 -0.25800
O 	O 	0.31481 0.81473 0.99674 -0.44800
O 	O 	0.32520 0.82067 0.02869 -0.43400
O 	O 	0.40528 0.83430 0.99306 -0.45200
O 	O 	0.42056 0.85953 0.02510 -0.47900
O 	O 	0.44580 0.16310 0.06456 -0.48400
O 	O 	0.44820 0.03440 0.07063 -0.25600
C 	C 	0.48180 0.15470 0.07447 0.20800
H 	H 	0.51340 0.18810 0.07880 -0.03000
H 	H 	0.49730 0.13690 0.06840 -0.00500
C 	C 	0.40490 0.05120 0.07413 0.17500
H 	H 	0.37000 0.02700 0.07930 -0.04000
H 	H 	0.39360 0.05720 0.06490 -0.01900
C 	C 	0.14337 0.53033 0.30609 0.34700
C 	C 	0.11377 0.48433 0.29516 -0.21300
C 	C 	0.05317 0.45573 0.29498 0.16200
H 	H 	0.03307 0.46543 0.30133 -0.00800
C 	C 	0.02417 0.41223 0.28510 -0.29200
H 	H 	0.98417 0.39273 0.28473 0.15400
C 	C 	0.05477 0.39833 0.27581 0.30100
C 	C 	0.11367 0.42713 0.27614 -0.29900
H 	H 	0.13457 0.41873 0.26973 0.14200
C 	C 	0.14117 0.46923 0.28634 0.18800
H 	H 	0.18107 0.48753 0.28693 -0.01600
C 	C 	0.04717 0.33673 0.25685 0.04900
H 	H 	0.07517 0.32943 0.26143 0.02900
H 	H 	0.06677 0.36653 0.24983 0.03200
C 	C 	0.02457 0.16373 0.32254 0.41700
C 	C 	0.02247 0.18183 0.30793 -0.24500
C 	C 	0.06697 0.19593 0.29868 0.21000
H 	H 	0.10067 0.19743 0.30163 -0.02700
C 	C 	0.06027 0.20783 0.28475 -0.34700
H 	H 	0.08807 0.21243 0.27823 0.16200
C 	C 	0.01677 0.21273 0.28050 0.33400
C 	C 	0.96907 0.19633 0.28922 -0.30200
H 	H 	0.93627 0.19633 0.28613 0.14800
C 	C 	0.97367 0.18013 0.30279 0.20600
H 	H 	0.94207 0.16753 0.30873 -0.01800
C 	C 	0.97287 0.23633 0.26142 0.06100
H 	H 	0.95767 0.24973 0.26883 0.02800
H 	H 	0.94157 0.20103 0.25763 0.03800
C 	C 	0.23117 0.58973 0.34647 0.63800
C 	C 	0.20167 0.56513 0.36009 -0.58400
C 	C 	0.15017 0.52013 0.35980 0.54500
H 	H 	0.13327 0.50463 0.35123 -0.15200
C 	C 	0.12057 0.49493 0.37187 -0.58500
H 	H 	0.08307 0.46433 0.37153 0.24800
C 	C 	0.14857 0.51683 0.38468 0.59300
C 	C 	0.19917 0.56173 0.38403 -0.66400
H 	H 	0.21707 0.57843 0.39243 0.26600
C 	C 	0.22867 0.58703 0.37184 0.57400
H 	H 	0.26597 0.61813 0.37203 -0.13700
O 	O 	0.09907 0.46833 0.39229 -0.05400
O 	O 	0.12347 0.38433 0.39866 -0.04100
C 	C 	0.09687 0.48003 0.40743 0.53200
H 	H 	0.09277 0.50853 0.41283 -0.11300
H 	H 	0.13727 0.49353 0.40583 -0.13600
C 	C 	0.09137 0.38273 0.41171 -0.05100
H 	H 	0.12907 0.39403 0.41553 0.05300
H 	H 	0.06187 0.35013 0.41683 0.02700
C 	C 	0.09387 0.32413 0.39204 0.45400
C 	C 	0.03077 0.28763 0.39144 -0.33000
H 	H 	0.00497 0.29303 0.39683 0.14700
C 	C 	0.01457 0.24063 0.38092 0.18900
H 	H 	0.97617 0.21603 0.37873 -0.00600
C 	C 	0.05547 0.23463 0.37478 -0.28800
C 	C 	0.11317 0.27453 0.37873 0.32000
H 	H 	0.14157 0.26703 0.37563 -0.06300
C 	C 	0.13067 0.32283 0.38663 -0.58000
H 	H 	0.16887 0.35153 0.38753 0.24900
C 	C 	0.04517 0.19133 0.36402 0.44500
Co	Co	0.19495 0.62228 0.31994 1.18300
Co	Co	0.28710 0.76290 0.32236 1.16200
O 	O 	0.02053 0.35426 0.26674 -0.25600
O 	O 	0.11576 0.54565 0.31365 -0.37000
O 	O 	0.19805 0.55562 0.30675 -0.47600
O 	O 	0.21257 0.57258 0.33533 -0.65700
O 	O 	0.27977 0.63333 0.34752 -0.45500
O 	O 	0.27925 0.68348 0.31895 -0.58800
O 	O 	0.01697 0.22663 0.26675 -0.26700
O 	O 	0.98148 0.14806 0.33007 -0.43900
O 	O 	0.99187 0.15400 0.36202 -0.42500
O 	O 	0.07195 0.16763 0.32639 -0.45100
O 	O 	0.08723 0.19286 0.35843 -0.47700
O 	O 	0.11247 0.49643 0.39789 -0.48400
O 	O 	0.11487 0.36773 0.40396 -0.25300
C 	C 	0.14847 0.48803 0.40780 0.20800
H 	H 	0.18007 0.52143 0.41213 -0.03000
H 	H 	0.16397 0.47023 0.40173 -0.00500
C 	C 	0.07157 0.38453 0.40746 0.17400
H 	H 	0.03667 0.36033 0.41263 -0.03800
H 	H 	0.06027 0.39053 0.39823 -0.01800
C 	C 	0.81003 0.86367 0.63943 0.34300
C 	C 	0.78043 0.81767 0.62850 -0.20000
C 	C 	0.71983 0.78907 0.62832 0.14300
H 	H 	0.69973 0.79877 0.63467 0.00100
C 	C 	0.69083 0.74557 0.61844 -0.25900
H 	H 	0.65083 0.72607 0.61807 0.13600
C 	C 	0.72143 0.73167 0.60915 0.28500
C 	C 	0.78033 0.76047 0.60948 -0.28300
H 	H 	0.80123 0.75207 0.60307 0.13700
C 	C 	0.80783 0.80257 0.61968 0.17400
H 	H 	0.84773 0.82087 0.62027 -0.01000
C 	C 	0.71383 0.67007 0.59019 0.03500
H 	H 	0.74183 0.66277 0.59477 0.03400
H 	H 	0.73343 0.69987 0.58317 0.03800
C 	C 	0.69123 0.49707 0.65588 0.42700
C 	C 	0.68913 0.51517 0.64127 -0.23700
C 	C 	0.73363 0.52927 0.63202 0.21000
H 	H 	0.76733 0.53077 0.63497 -0.02600
C 	C 	0.72693 0.54117 0.61809 -0.34800
H 	H 	0.75473 0.54577 0.61157 0.16300
C 	C 	0.68343 0.54607 0.61384 0.34200
C 	C 	0.63573 0.52967 0.62256 -0.31000
H 	H 	0.60293 0.52967 0.61947 0.14900
C 	C 	0.64033 0.51347 0.63613 0.19700
H 	H 	0.60873 0.50087 0.64207 -0.01600
C 	C 	0.63953 0.56967 0.59476 0.03200
H 	H 	0.62433 0.58307 0.60217 0.03400
H 	H 	0.60823 0.53437 0.59097 0.04500
C 	C 	0.89783 0.92307 0.67981 0.63400
C 	C 	0.86833 0.89847 0.69343 -0.57800
C 	C 	0.81683 0.85347 0.69314 0.54000
H 	H 	0.79993 0.83797 0.68457 -0.15000
C 	C 	0.78723 0.82827 0.70521 -0.58200
H 	H 	0.74973 0.79767 0.70487 0.24800
C 	C 	0.81523 0.85017 0.71802 0.59000
C 	C 	0.86583 0.89507 0.71737 -0.66000
H 	H 	0.88373 0.91177 0.72577 0.26700
C 	C 	0.89533 0.92037 0.70518 0.57000
H 	H 	0.93263 0.95147 0.70537 -0.13100
O 	O 	0.76573 0.80167 0.72563 -0.05400
O 	O 	0.79013 0.71767 0.73200 -0.04100
C 	C 	0.76353 0.81337 0.74077 0.53100
H 	H 	0.75943 0.84187 0.74617 -0.11200
H 	H 	0.80393 0.82687 0.73917 -0.13700
C 	C 	0.75803 0.71607 0.74505 -0.05100
H 	H 	0.79573 0.72737 0.74887 0.05300
H 	H 	0.72853 0.68347 0.75017 0.02800
C 	C 	0.76053 0.65747 0.72538 0.47200
C 	C 	0.69743 0.62097 0.72478 -0.34900
H 	H 	0.67163 0.62637 0.73017 0.15600
C 	C 	0.68123 0.57397 0.71426 0.22400
H 	H 	0.64283 0.54937 0.71207 -0.02400
C 	C 	0.72213 0.56797 0.70812 -0.30900
C 	C 	0.77983 0.60787 0.71207 0.34100
H 	H 	0.80823 0.60037 0.70897 -0.06900
C 	C 	0.79733 0.65617 0.71997 -0.60500
H 	H 	0.83553 0.68487 0.72087 0.25800
C 	C 	0.71183 0.52467 0.69736 0.46400
Co	Co	0.86161 0.95562 0.65327 1.18400
Co	Co	0.95376 0.09624 0.65570 1.16400
O 	O 	0.68719 0.68760 0.60008 -0.24600
O 	O 	0.78242 0.87899 0.64699 -0.36700
O 	O 	0.86471 0.88896 0.64009 -0.47300
O 	O 	0.87923 0.90592 0.66867 -0.65400
O 	O 	0.94643 0.96667 0.68086 -0.44600
O 	O 	0.94591 0.01682 0.65229 -0.58800
O 	O 	0.68363 0.55997 0.60009 -0.25900
O 	O 	0.64814 0.48140 0.66341 -0.44900
O 	O 	0.65853 0.48734 0.69536 -0.43600
O 	O 	0.73861 0.50097 0.65973 -0.45200
O 	O 	0.75389 0.52620 0.69177 -0.48100
O 	O 	0.77913 0.82977 0.73123 -0.48200
O 	O 	0.78153 0.70107 0.73730 -0.25500
C 	C 	0.81513 0.82137 0.74114 0.20900
H 	H 	0.84673 0.85477 0.74547 -0.03000
H 	H 	0.83063 0.80357 0.73507 -0.00500
C 	C 	0.73823 0.71787 0.74080 0.17400
H 	H 	0.70333 0.69367 0.74597 -0.03800
H 	H 	0.72693 0.72387 0.73157 -0.01700
C 	C 	0.72030 0.52330 0.97276 0.34300
C 	C 	0.70390 0.55290 0.96183 -0.20100
C 	C 	0.73590 0.61350 0.96165 0.14400
H 	H 	0.76570 0.63360 0.96800 0.00100
C 	C 	0.72140 0.64250 0.95177 -0.26000
H 	H 	0.74190 0.68250 0.95140 0.13700
C 	C 	0.67690 0.61190 0.94248 0.28500
C 	C 	0.64680 0.55300 0.94281 -0.28400
H 	H 	0.61750 0.53210 0.93640 0.13700
C 	C 	0.66140 0.52550 0.95301 0.17500
H 	H 	0.63980 0.48560 0.95360 -0.01100
C 	C 	0.62290 0.61950 0.92352 0.03500
H 	H 	0.58760 0.59150 0.92810 0.03400
H 	H 	0.63310 0.59990 0.91650 0.03700
C 	C 	0.47250 0.64210 0.98921 0.42700
C 	C 	0.49270 0.64420 0.97460 -0.23700
C 	C 	0.46230 0.59970 0.96535 0.21000
H 	H 	0.43010 0.56600 0.96830 -0.02700
C 	C 	0.48090 0.60640 0.95142 -0.34800
H 	H 	0.45770 0.57860 0.94490 0.16300
C 	C 	0.52930 0.64990 0.94717 0.34200
C 	C 	0.56060 0.69760 0.95589 -0.31000
H 	H 	0.59340 0.73040 0.95280 0.15000
C 	C 	0.53980 0.69300 0.96946 0.19700
H 	H 	0.55880 0.72460 0.97540 -0.01600
C 	C 	0.59680 0.69380 0.92809 0.03200
H 	H 	0.62540 0.70900 0.93550 0.03400
H 	H 	0.59280 0.72510 0.92430 0.04500
C 	C 	0.69190 0.43550 0.01314 0.63800
C 	C 	0.69680 0.46500 0.02676 -0.58400
C 	C 	0.70330 0.51650 0.02647 0.54500
H 	H 	0.70470 0.53340 0.01790 -0.15100
C 	C 	0.70770 0.54610 0.03854 -0.58600
H 	H 	0.71460 0.58360 0.03820 0.25000
C 	C 	0.70160 0.51810 0.05135 0.59300
C 	C 	0.69590 0.46750 0.05070 -0.66500
H 	H 	0.69470 0.44960 0.05910 0.26700
C 	C 	0.69170 0.43800 0.03851 0.57500
H 	H 	0.68550 0.40070 0.03870 -0.13700
O 	O 	0.70260 0.56760 0.05896 -0.05300
O 	O 	0.59420 0.54320 0.06533 -0.04100
C 	C 	0.71650 0.56980 0.07410 0.53300
H 	H 	0.74910 0.57390 0.07950 -0.11400
H 	H 	0.68960 0.52940 0.07250 -0.13600
C 	C 	0.62470 0.57530 0.07838 -0.05100
H 	H 	0.59830 0.53760 0.08220 0.05300
H 	H 	0.62160 0.60480 0.08350 0.02800
C 	C 	0.56360 0.57280 0.05871 0.47200
C 	C 	0.59020 0.63590 0.05811 -0.34900
H 	H 	0.62140 0.66170 0.06350 0.15600
C 	C 	0.55940 0.65210 0.04759 0.22500
H 	H 	0.57320 0.69050 0.04540 -0.02400
C 	C 	0.51250 0.61120 0.04145 -0.30900
C 	C 	0.49470 0.55350 0.04540 0.34100
H 	H 	0.45880 0.52510 0.04230 -0.06900
C 	C 	0.52550 0.53600 0.05330 -0.60500
H 	H 	0.51600 0.49780 0.05420 0.25800
C 	C 	0.47950 0.62150 0.03069 0.46400
Co	Co	0.76067 0.47172 0.98661 1.18300
Co	Co	0.80914 0.37957 0.98903 1.16200
O 	O 	0.66707 0.64614 0.93341 -0.24600
O 	O 	0.76323 0.55091 0.98032 -0.36700
O 	O 	0.69091 0.46862 0.97342 -0.47500
O 	O 	0.69335 0.45410 0.00200 -0.65700
O 	O 	0.68690 0.38690 0.01419 -0.45500
O 	O 	0.73757 0.38742 0.98562 -0.58700
O 	O 	0.54300 0.64970 0.93342 -0.25900
O 	O 	0.49992 0.68519 0.99674 -0.44800
O 	O 	0.49547 0.67480 0.02869 -0.43600
O 	O 	0.42902 0.59472 0.99306 -0.45200
O 	O 	0.43897 0.57944 0.02510 -0.48100
O 	O 	0.71730 0.55420 0.06456 -0.48400
O 	O 	0.58620 0.55180 0.07063 -0.25500
C 	C 	0.67290 0.51820 0.07447 0.20800
H 	H 	0.67470 0.48660 0.07880 -0.03000
H 	H 	0.63960 0.50270 0.06840 -0.00500
C 	C 	0.64630 0.59510 0.07413 0.17500
H 	H 	0.65700 0.63000 0.07930 -0.03800
H 	H 	0.66360 0.60640 0.06490 -0.01700
C 	C 	0.38697 0.85663 0.30609 0.33900
C 	C 	0.37057 0.88623 0.29516 -0.19000
C 	C 	0.40257 0.94683 0.29498 0.12700
H 	H 	0.43237 0.96693 0.30133 0.00800
C 	C 	0.38807 0.97583 0.28510 -0.23100
H 	H 	0.40857 0.01583 0.28473 0.12000
C 	C 	0.34357 0.94523 0.27581 0.27300
C 	C 	0.31347 0.88633 0.27614 -0.27200
H 	H 	0.28417 0.86543 0.26973 0.13300
C 	C 	0.32807 0.85883 0.28634 0.16400
H 	H 	0.30647 0.81893 0.28693 -0.00700
C 	C 	0.28957 0.95283 0.25685 0.05200
H 	H 	0.25427 0.92483 0.26143 0.03000
H 	H 	0.29977 0.93323 0.24983 0.03400
C 	C 	0.13917 0.97543 0.32254 0.43600
C 	C 	0.15937 0.97753 0.30793 -0.23300
C 	C 	0.12897 0.93303 0.29868 0.21300
H 	H 	0.09677 0.89933 0.30163 -0.02900
C 	C 	0.14757 0.93973 0.28475 -0.35300
H 	H 	0.12437 0.91193 0.27823 0.16400
C 	C 	0.19597 0.98323 0.28050 0.35500
C 	C 	0.22727 0.03093 0.28922 -0.32200
H 	H 	0.26007 0.06373 0.28613 0.15200
C 	C 	0.20647 0.02633 0.30279 0.19100
H 	H 	0.22547 0.05793 0.30873 -0.01600
C 	C 	0.26347 0.02713 0.26142 0.03400
H 	H 	0.29207 0.04233 0.26883 0.03100
H 	H 	0.25947 0.05843 0.25763 0.04300
C 	C 	0.35857 0.76883 0.34647 0.63800
C 	C 	0.36347 0.79833 0.36009 -0.58400
C 	C 	0.36997 0.84983 0.35980 0.54500
H 	H 	0.37137 0.86673 0.35123 -0.15100
C 	C 	0.37437 0.87943 0.37187 -0.58600
H 	H 	0.38127 0.91693 0.37153 0.25000
C 	C 	0.36827 0.85143 0.38468 0.59300
C 	C 	0.36257 0.80083 0.38403 -0.66500
H 	H 	0.36137 0.78293 0.39243 0.26700
C 	C 	0.35837 0.77133 0.37184 0.57500
H 	H 	0.35217 0.73403 0.37203 -0.13700
O 	O 	0.36927 0.90093 0.39229 -0.05300
O 	O 	0.26087 0.87653 0.39866 -0.04100
C 	C 	0.38317 0.90313 0.40743 0.53300
H 	H 	0.41577 0.90723 0.41283 -0.11300
H 	H 	0.35627 0.86273 0.40583 -0.13600
C 	C 	0.29137 0.90863 0.41171 -0.05200
H 	H 	0.26497 0.87093 0.41553 0.05400
H 	H 	0.28827 0.93813 0.41683 0.02900
C 	C 	0.23027 0.90613 0.39204 0.48900
C 	C 	0.25687 0.96923 0.39144 -0.36800
H 	H 	0.28807 0.99503 0.39683 0.16400
C 	C 	0.22607 0.98543 0.38092 0.25700
H 	H 	0.23987 0.02383 0.37873 -0.04100
C 	C 	0.17917 0.94453 0.37478 -0.33000
C 	C 	0.16137 0.88683 0.37873 0.36100
H 	H 	0.12547 0.85843 0.37563 -0.07600
C 	C 	0.19217 0.86933 0.38663 -0.62800
H 	H 	0.18267 0.83113 0.38753 0.26600
C 	C 	0.14617 0.95483 0.36402 0.48200
Co	Co	0.42734 0.80505 0.31994 1.18300
Co	Co	0.47581 0.71290 0.32236 1.16200
O 	O 	0.33374 0.97947 0.26674 -0.24200
O 	O 	0.42990 0.88424 0.31365 -0.36600
O 	O 	0.35758 0.80195 0.30675 -0.47400
O 	O 	0.36002 0.78743 0.33533 -0.65600
O 	O 	0.35357 0.72023 0.34752 -0.45500
O 	O 	0.40424 0.72075 0.31895 -0.58700
O 	O 	0.20967 0.98303 0.26675 -0.25700
O 	O 	0.16659 0.01852 0.33007 -0.45700
O 	O 	0.16214 0.00813 0.36202 -0.44700
O 	O 	0.09569 0.92805 0.32639 -0.45500
O 	O 	0.10564 0.91277 0.35843 -0.48600
O 	O 	0.38397 0.88753 0.39789 -0.48400
O 	O 	0.25287 0.88513 0.40396 -0.25800
C 	C 	0.33957 0.85153 0.40780 0.20800
H 	H 	0.34137 0.81993 0.41213 -0.03000
H 	H 	0.30627 0.83603 0.40173 -0.00500
C 	C 	0.31297 0.92843 0.40746 0.17600
H 	H 	0.32367 0.96333 0.41263 -0.03900
H 	H 	0.33027 0.93973 0.39823 -0.01800
C 	C 	0.05363 0.18997 0.63943 0.34700
C 	C 	0.03723 0.21957 0.62850 -0.21500
C 	C 	0.06923 0.28017 0.62832 0.14700
H 	H 	0.09903 0.30027 0.63467 -0.00200
C 	C 	0.05473 0.30917 0.61844 -0.26100
H 	H 	0.07523 0.34917 0.61807 0.13500
C 	C 	0.01023 0.27857 0.60915 0.27700
C 	C 	0.98013 0.21967 0.60948 -0.27900
H 	H 	0.95083 0.19877 0.60307 0.13600
C 	C 	0.99473 0.19217 0.61968 0.18900
H 	H 	0.97313 0.15227 0.62027 -0.01400
C 	C 	0.95623 0.28617 0.59019 0.03700
H 	H 	0.92093 0.25817 0.59477 0.03400
H 	H 	0.96643 0.26657 0.58317 0.03900
C 	C 	0.80583 0.30877 0.65588 0.42700
C 	C 	0.82603 0.31087 0.64127 -0.23700
C 	C 	0.79563 0.26637 0.63202 0.21000
H 	H 	0.76343 0.23267 0.63497 -0.02700
C 	C 	0.81423 0.27307 0.61809 -0.34700
H 	H 	0.79103 0.24527 0.61157 0.16300
C 	C 	0.86263 0.31657 0.61384 0.34200
C 	C 	0.89393 0.36427 0.62256 -0.30900
H 	H 	0.92673 0.39707 0.61947 0.15000
C 	C 	0.87313 0.35967 0.63613 0.19700
H 	H 	0.89213 0.39127 0.64207 -0.01600
C 	C 	0.93013 0.36047 0.59476 0.02400
H 	H 	0.95873 0.37567 0.60217 0.03800
H 	H 	0.92613 0.39177 0.59097 0.04800
C 	C 	0.02523 0.10217 0.67981 0.64000
C 	C 	0.03013 0.13167 0.69343 -0.59000
C 	C 	0.03663 0.18317 0.69314 0.54800
H 	H 	0.03803 0.20007 0.68457 -0.15400
C 	C 	0.04103 0.21277 0.70521 -0.59000
H 	H 	0.04793 0.25027 0.70487 0.24900
C 	C 	0.03493 0.18477 0.71802 0.59500
C 	C 	0.02923 0.13417 0.71737 -0.67000
H 	H 	0.02803 0.11627 0.72577 0.26600
C 	C 	0.02503 0.10467 0.70518 0.57900
H 	H 	0.01883 0.06737 0.70537 -0.14200
O 	O 	0.03593 0.23427 0.72563 -0.05700
O 	O 	0.92753 0.20987 0.73200 -0.03700
C 	C 	0.04983 0.23647 0.74077 0.54000
H 	H 	0.08243 0.24057 0.74617 -0.11600
H 	H 	0.02293 0.19607 0.73917 -0.14000
C 	C 	0.95803 0.24197 0.74505 -0.05200
H 	H 	0.93163 0.20427 0.74887 0.05300
H 	H 	0.95493 0.27147 0.75017 0.02900
C 	C 	0.89693 0.23947 0.72538 0.47300
C 	C 	0.92353 0.30257 0.72478 -0.35000
H 	H 	0.95473 0.32837 0.73017 0.15700
C 	C 	0.89273 0.31877 0.71426 0.22500
H 	H 	0.90653 0.35717 0.71207 -0.02400
C 	C 	0.84583 0.27787 0.70812 -0.31000
C 	C 	0.82803 0.22017 0.71207 0.34200
H 	H 	0.79213 0.19177 0.70897 -0.07000
C 	C 	0.85883 0.20267 0.71997 -0.60600
H 	H 	0.84933 0.16447 0.72087 0.25900
C 	C 	0.81283 0.28817 0.69736 0.46500
Co	Co	0.09400 0.13839 0.65327 1.18300
Co	Co	0.14247 0.04624 0.65570 1.15900
O 	O 	0.00040 0.31281 0.60008 -0.25100
O 	O 	0.09656 0.21758 0.64699 -0.36900
O 	O 	0.02424 0.13529 0.64009 -0.48100
O 	O 	0.02668 0.12077 0.66867 -0.66000
O 	O 	0.02023 0.05357 0.68086 -0.46100
O 	O 	0.07090 0.05409 0.65229 -0.59200
O 	O 	0.87633 0.31637 0.60009 -0.25800
O 	O 	0.83325 0.35186 0.66341 -0.44800
O 	O 	0.82880 0.34147 0.69536 -0.43500
O 	O 	0.76235 0.26139 0.65973 -0.45200
O 	O 	0.77230 0.24611 0.69177 -0.48100
O 	O 	0.05063 0.22087 0.73123 -0.48500
O 	O 	0.91953 0.21847 0.73730 -0.25900
C 	C 	0.00623 0.18487 0.74114 0.21000
H 	H 	0.00803 0.15327 0.74547 -0.03700
H 	H 	0.97293 0.16937 0.73507 -0.00000
C 	C 	0.97963 0.26177 0.74080 0.18200
H 	H 	0.99033 0.29667 0.74597 -0.03500
H 	H 	0.99693 0.27307 0.73157 -0.01700
C 	C 	0.80300 0.27970 0.97276 0.34400
C 	C 	0.84900 0.29610 0.96183 -0.20300
C 	C 	0.87760 0.26410 0.96165 0.14600
H 	H 	0.86790 0.23430 0.96800 -0.00000
C 	C 	0.92110 0.27860 0.95177 -0.26300
H 	H 	0.94060 0.25810 0.95140 0.13900
C 	C 	0.93500 0.32310 0.94248 0.29100
C 	C 	0.90620 0.35320 0.94281 -0.28800
H 	H 	0.91460 0.38250 0.93640 0.14000
C 	C 	0.86410 0.33860 0.95301 0.17800
H 	H 	0.84580 0.36020 0.95360 -0.01200
C 	C 	0.99660 0.37710 0.92352 0.07100
H 	H 	0.00390 0.41240 0.92810 0.01700
H 	H 	0.96680 0.36690 0.91650 0.02900
C 	C 	0.16960 0.52750 0.98921 0.42700
C 	C 	0.15150 0.50730 0.97460 -0.23900
C 	C 	0.13740 0.53770 0.96535 0.21100
H 	H 	0.13590 0.56990 0.96830 -0.02700
C 	C 	0.12550 0.51910 0.95142 -0.34900
H 	H 	0.12090 0.54230 0.94490 0.16300
C 	C 	0.12060 0.47070 0.94717 0.34300
C 	C 	0.13700 0.43940 0.95589 -0.31200
H 	H 	0.13700 0.40660 0.95280 0.14900
C 	C 	0.15320 0.46020 0.96946 0.19700
H 	H 	0.16580 0.44120 0.97540 -0.01700
C 	C 	0.09700 0.40320 0.92809 0.04200
H 	H 	0.08360 0.37460 0.93550 0.02900
H 	H 	0.13230 0.40720 0.92430 0.04200
C 	C 	0.74360 0.30810 0.01314 0.63800
C 	C 	0.76820 0.30320 0.02676 -0.58400
C 	C 	0.81320 0.29670 0.02647 0.54500
H 	H 	0.82870 0.29530 0.01790 -0.15100
C 	C 	0.83840 0.29230 0.03854 -0.58600
H 	H 	0.86900 0.28540 0.03820 0.25000
C 	C 	0.81650 0.29840 0.05135 0.59400
C 	C 	0.77160 0.30410 0.05070 -0.66500
H 	H 	0.75490 0.30530 0.05910 0.26700
C 	C 	0.74630 0.30830 0.03851 0.57500
H 	H 	0.71520 0.31450 0.03870 -0.13700
O 	O 	0.86500 0.29740 0.05896 -0.05300
O 	O 	0.94900 0.40580 0.06533 -0.04100
C 	C 	0.85330 0.28350 0.07410 0.53300
H 	H 	0.82480 0.25090 0.07950 -0.11300
H 	H 	0.83980 0.31040 0.07250 -0.13600
C 	C 	0.95060 0.37530 0.07838 -0.05200
H 	H 	0.93930 0.40170 0.08220 0.05400
H 	H 	0.98320 0.37840 0.08350 0.03000
C 	C 	0.00920 0.43640 0.05871 0.48700
C 	C 	0.04570 0.40980 0.05811 -0.36300
H 	H 	0.04030 0.37860 0.06350 0.15700
C 	C 	0.09270 0.44060 0.04759 0.23500
H 	H 	0.11730 0.42680 0.04540 -0.02900
C 	C 	0.09870 0.48750 0.04145 -0.32300
C 	C 	0.05880 0.50530 0.04540 0.36400
H 	H 	0.06630 0.54120 0.04230 -0.07900
C 	C 	0.01050 0.47450 0.05330 -0.64500
H 	H 	0.98180 0.48400 0.05420 0.27700
C 	C 	0.14200 0.52050 0.03069 0.46900
Co	Co	0.71105 0.23933 0.98661 1.18300
Co	Co	0.57043 0.19086 0.98903 1.16200
O 	O 	0.97907 0.33293 0.93341 -0.25100
O 	O 	0.78768 0.23677 0.98032 -0.36800
O 	O 	0.77771 0.30909 0.97342 -0.47500
O 	O 	0.76075 0.30665 0.00200 -0.65600
O 	O 	0.70000 0.31310 0.01419 -0.45500
O 	O 	0.64985 0.26243 0.98562 -0.58700
O 	O 	0.10670 0.45700 0.93342 -0.26200
O 	O 	0.18527 0.50008 0.99674 -0.44900
O 	O 	0.17933 0.50453 0.02869 -0.43700
O 	O 	0.16570 0.57098 0.99306 -0.45300
O 	O 	0.14047 0.56103 0.02510 -0.48300
O 	O 	0.83690 0.28270 0.06456 -0.48500
O 	O 	0.96560 0.41380 0.07063 -0.25400
C 	C 	0.84530 0.32710 0.07447 0.20800
H 	H 	0.81190 0.32530 0.07880 -0.03000
H 	H 	0.86310 0.36040 0.06840 -0.00500
C 	C 	0.94880 0.35370 0.07413 0.17400
H 	H 	0.97300 0.34300 0.07930 -0.03700
H 	H 	0.94280 0.33640 0.06490 -0.01600
C 	C 	0.46967 0.61303 0.30609 0.34300
C 	C 	0.51567 0.62943 0.29516 -0.20100
C 	C 	0.54427 0.59743 0.29498 0.14400
H 	H 	0.53457 0.56763 0.30133 0.00000
C 	C 	0.58777 0.61193 0.28510 -0.26000
H 	H 	0.60727 0.59143 0.28473 0.13600
C 	C 	0.60167 0.65643 0.27581 0.28500
C 	C 	0.57287 0.68653 0.27614 -0.28400
H 	H 	0.58127 0.71583 0.26973 0.13700
C 	C 	0.53077 0.67193 0.28634 0.17500
H 	H 	0.51247 0.69353 0.28693 -0.01100
C 	C 	0.66327 0.71043 0.25685 0.03500
H 	H 	0.67057 0.74573 0.26143 0.03400
H 	H 	0.63347 0.70023 0.24983 0.03700
C 	C 	0.83627 0.86083 0.32254 0.42600
C 	C 	0.81817 0.84063 0.30793 -0.23600
C 	C 	0.80407 0.87103 0.29868 0.21000
H 	H 	0.80257 0.90323 0.30163 -0.02500
C 	C 	0.79217 0.85243 0.28475 -0.34700
H 	H 	0.78757 0.87563 0.27823 0.16300
C 	C 	0.78727 0.80403 0.28050 0.34200
C 	C 	0.80367 0.77273 0.28922 -0.30900
H 	H 	0.80367 0.73993 0.28613 0.14900
C 	C 	0.81987 0.79353 0.30279 0.19600
H 	H 	0.83247 0.77453 0.30873 -0.01600
C 	C 	0.76367 0.73653 0.26142 0.03200
H 	H 	0.75027 0.70793 0.26883 0.03400
H 	H 	0.79897 0.74053 0.25763 0.04600
C 	C 	0.41027 0.64143 0.34647 0.63800
C 	C 	0.43487 0.63653 0.36009 -0.58400
C 	C 	0.47987 0.63003 0.35980 0.54500
H 	H 	0.49537 0.62863 0.35123 -0.15100
C 	C 	0.50507 0.62563 0.37187 -0.58600
H 	H 	0.53567 0.61873 0.37153 0.24900
C 	C 	0.48317 0.63173 0.38468 0.59300
C 	C 	0.43827 0.63743 0.38403 -0.66500
H 	H 	0.42157 0.63863 0.39243 0.26700
C 	C 	0.41297 0.64163 0.37184 0.57500
H 	H 	0.38187 0.64783 0.37203 -0.13700
O 	O 	0.53167 0.63073 0.39229 -0.05300
O 	O 	0.61567 0.73913 0.39866 -0.04200
C 	C 	0.51997 0.61683 0.40743 0.53300
H 	H 	0.49147 0.58423 0.41283 -0.11300
H 	H 	0.50647 0.64373 0.40583 -0.13600
C 	C 	0.61727 0.70863 0.41171 -0.05100
H 	H 	0.60597 0.73503 0.41553 0.05300
H 	H 	0.64987 0.71173 0.41683 0.02900
C 	C 	0.67587 0.76973 0.39204 0.47200
C 	C 	0.71237 0.74313 0.39144 -0.34900
H 	H 	0.70697 0.71193 0.39683 0.15600
C 	C 	0.75937 0.77393 0.38092 0.22400
H 	H 	0.78397 0.76013 0.37873 -0.02400
C 	C 	0.76537 0.82083 0.37478 -0.30800
C 	C 	0.72547 0.83863 0.37873 0.34100
H 	H 	0.73297 0.87453 0.37563 -0.06900
C 	C 	0.67717 0.80783 0.38663 -0.60400
H 	H 	0.64847 0.81733 0.38753 0.25800
C 	C 	0.80867 0.85383 0.36402 0.46400
Co	Co	0.37772 0.57266 0.31994 1.18300
Co	Co	0.23710 0.52419 0.32236 1.16200
O 	O 	0.64574 0.66626 0.26674 -0.24600
O 	O 	0.45435 0.57010 0.31365 -0.36800
O 	O 	0.44438 0.64242 0.30675 -0.47500
O 	O 	0.42742 0.63998 0.33533 -0.65700
O 	O 	0.36667 0.64643 0.34752 -0.45500
O 	O 	0.31652 0.59576 0.31895 -0.58700
O 	O 	0.77337 0.79033 0.26675 -0.25900
O 	O 	0.85194 0.83341 0.33007 -0.44800
O 	O 	0.84600 0.83786 0.36202 -0.43500
O 	O 	0.83237 0.90431 0.32639 -0.45000
O 	O 	0.80714 0.89436 0.35843 -0.48000
O 	O 	0.50357 0.61603 0.39789 -0.48400
O 	O 	0.63227 0.74713 0.40396 -0.25400
C 	C 	0.51197 0.66043 0.40780 0.20800
H 	H 	0.47857 0.65863 0.41213 -0.03000
H 	H 	0.52977 0.69373 0.40173 -0.00500
C 	C 	0.61547 0.68703 0.40746 0.17400
H 	H 	0.63967 0.67633 0.41263 -0.03800
H 	H 	0.60947 0.66973 0.39823 -0.01700
C 	C 	0.13633 0.94637 0.63943 0.33900
C 	C 	0.18233 0.96277 0.62850 -0.18700
C 	C 	0.21093 0.93077 0.62832 0.14000
H 	H 	0.20123 0.90097 0.63467 0.00200
C 	C 	0.25443 0.94527 0.61844 -0.25900
H 	H 	0.27393 0.92477 0.61807 0.13700
C 	C 	0.26833 0.98977 0.60915 0.29400
C 	C 	0.23953 0.01987 0.60948 -0.29100
H 	H 	0.24793 0.04917 0.60307 0.13700
C 	C 	0.19743 0.00527 0.61968 0.16000
H 	H 	0.17913 0.02687 0.62027 -0.00900
C 	C 	0.32993 0.04377 0.59019 0.03500
H 	H 	0.33723 0.07907 0.59477 0.03300
H 	H 	0.30013 0.03357 0.58317 0.03400
C 	C 	0.50293 0.19417 0.65588 0.42700
C 	C 	0.48483 0.17397 0.64127 -0.23800
C 	C 	0.47073 0.20437 0.63202 0.21100
H 	H 	0.46923 0.23657 0.63497 -0.02700
C 	C 	0.45883 0.18577 0.61809 -0.34900
H 	H 	0.45423 0.20897 0.61157 0.16300
C 	C 	0.45393 0.13737 0.61384 0.34300
C 	C 	0.47033 0.10607 0.62256 -0.31100
H 	H 	0.47033 0.07327 0.61947 0.14900
C 	C 	0.48653 0.12687 0.63613 0.19700
H 	H 	0.49913 0.10787 0.64207 -0.01700
C 	C 	0.43033 0.06987 0.59476 0.04200
H 	H 	0.41693 0.04127 0.60217 0.02800
H 	H 	0.46563 0.07387 0.59097 0.04200
C 	C 	0.07693 0.97477 0.67981 0.64000
C 	C 	0.10153 0.96987 0.69343 -0.58800
C 	C 	0.14653 0.96337 0.69314 0.55200
H 	H 	0.16203 0.96197 0.68457 -0.15200
C 	C 	0.17173 0.95897 0.70521 -0.59100
H 	H 	0.20233 0.95207 0.70487 0.25200
C 	C 	0.14983 0.96507 0.71802 0.60100
C 	C 	0.10493 0.97077 0.71737 -0.67100
H 	H 	0.08823 0.97197 0.72577 0.26900
C 	C 	0.07963 0.97497 0.70518 0.58100
H 	H 	0.04853 0.98117 0.70537 -0.13900
O 	O 	0.19833 0.96407 0.72563 -0.04300
O 	O 	0.28233 0.07247 0.73200 -0.04400
C 	C 	0.18663 0.95017 0.74077 0.55300
H 	H 	0.15813 0.91757 0.74617 -0.11900
H 	H 	0.17313 0.97707 0.73917 -0.12600
C 	C 	0.28393 0.04197 0.74505 -0.04800
H 	H 	0.27263 0.06837 0.74887 0.05100
H 	H 	0.31653 0.04507 0.75017 0.02600
C 	C 	0.34253 0.10307 0.72538 0.47100
C 	C 	0.37903 0.07647 0.72478 -0.35000
H 	H 	0.37363 0.04527 0.73017 0.15400
C 	C 	0.42603 0.10727 0.71426 0.22400
H 	H 	0.45063 0.09347 0.71207 -0.02500
C 	C 	0.43203 0.15417 0.70812 -0.31000
C 	C 	0.39213 0.17197 0.71207 0.34100
H 	H 	0.39963 0.20787 0.70897 -0.06900
C 	C 	0.34383 0.14117 0.71997 -0.60500
H 	H 	0.31513 0.15067 0.72087 0.25800
C 	C 	0.47533 0.18717 0.69736 0.46400
Co	Co	0.04438 0.90600 0.65327 1.18200
Co	Co	0.90376 0.85753 0.65570 1.16300
O 	O 	0.31240 0.99960 0.60008 -0.24200
O 	O 	0.12101 0.90344 0.64699 -0.36600
O 	O 	0.11104 0.97576 0.64009 -0.47000
O 	O 	0.09408 0.97332 0.66867 -0.65400
O 	O 	0.03333 0.97977 0.68086 -0.45400
O 	O 	0.98318 0.92910 0.65229 -0.58000
O 	O 	0.44003 0.12367 0.60009 -0.26100
O 	O 	0.51860 0.16675 0.66341 -0.44900
O 	O 	0.51266 0.17120 0.69536 -0.43600
O 	O 	0.49903 0.23765 0.65973 -0.45300
O 	O 	0.47380 0.22770 0.69177 -0.48100
O 	O 	0.17023 0.94937 0.73123 -0.50200
O 	O 	0.29893 0.08047 0.73730 -0.25400
C 	C 	0.17863 0.99377 0.74114 0.19600
H 	H 	0.14523 0.99197 0.74547 -0.02100
H 	H 	0.19643 0.02707 0.73507 -0.00700
C 	C 	0.28213 0.02037 0.74080 0.17600
H 	H 	0.30633 0.00967 0.74597 -0.04500
H 	H 	0.27613 0.00307 0.73157 -0.02200
C 	C 	0.80300 0.52330 0.47276 0.34400
C 	C 	0.84900 0.55290 0.46183 -0.20300
C 	C 	0.87760 0.61350 0.46165 0.14600
H 	H 	0.86790 0.63360 0.46800 0.00000
C 	C 	0.92110 0.64250 0.45177 -0.26300
H 	H 	0.94060 0.68250 0.45140 0.13900
C 	C 	0.93500 0.61190 0.44248 0.29100
C 	C 	0.90620 0.55300 0.44281 -0.28700
H 	H 	0.91460 0.53210 0.43640 0.13900
C 	C 	0.86410 0.52550 0.45301 0.17800
H 	H 	0.84580 0.48560 0.45360 -0.01200
C 	C 	0.99660 0.61950 0.42352 0.06900
H 	H 	0.00390 0.59150 0.42810 0.01800
H 	H 	0.96680 0.59990 0.41650 0.02900
C 	C 	0.16960 0.64210 0.48921 0.42700
C 	C 	0.15150 0.64420 0.47460 -0.23900
C 	C 	0.13740 0.59970 0.46535 0.21100
H 	H 	0.13590 0.56600 0.46830 -0.02700
C 	C 	0.12550 0.60640 0.45142 -0.34900
H 	H 	0.12090 0.57860 0.44490 0.16300
C 	C 	0.12060 0.64990 0.44717 0.34300
C 	C 	0.13700 0.69760 0.45589 -0.31100
H 	H 	0.13700 0.73040 0.45280 0.15000
C 	C 	0.15320 0.69300 0.46946 0.19700
H 	H 	0.16580 0.72460 0.47540 -0.01700
C 	C 	0.09700 0.69380 0.42809 0.04100
H 	H 	0.08360 0.70900 0.43550 0.03000
H 	H 	0.13230 0.72510 0.42430 0.04300
C 	C 	0.74360 0.43550 0.51314 0.63800
C 	C 	0.76820 0.46500 0.52676 -0.58400
C 	C 	0.81320 0.51650 0.52647 0.54600
H 	H 	0.82870 0.53340 0.51790 -0.15100
C 	C 	0.83840 0.54610 0.53854 -0.58600
H 	H 	0.86900 0.58360 0.53820 0.25000
C 	C 	0.81650 0.51810 0.55135 0.59400
C 	C 	0.77160 0.46750 0.55070 -0.66500
H 	H 	0.75490 0.44960 0.55910 0.26700
C 	C 	0.74630 0.43800 0.53851 0.57500
H 	H 	0.71520 0.40070 0.53870 -0.13700
O 	O 	0.86500 0.56760 0.55896 -0.05200
O 	O 	0.94900 0.54320 0.56533 -0.04100
C 	C 	0.85330 0.56980 0.57410 0.53400
H 	H 	0.82480 0.57390 0.57950 -0.11400
H 	H 	0.83980 0.52940 0.57250 -0.13600
C 	C 	0.95060 0.57530 0.57838 -0.05200
H 	H 	0.93930 0.53760 0.58220 0.05400
H 	H 	0.98320 0.60480 0.58350 0.03000
C 	C 	0.00920 0.57280 0.55871 0.48800
C 	C 	0.04570 0.63590 0.55811 -0.36300
H 	H 	0.04030 0.66170 0.56350 0.15800
C 	C 	0.09270 0.65210 0.54759 0.23500
H 	H 	0.11730 0.69050 0.54540 -0.02800
C 	C 	0.09870 0.61120 0.54145 -0.32300
C 	C 	0.05880 0.55350 0.54540 0.36400
H 	H 	0.06630 0.52510 0.54230 -0.07900
C 	C 	0.01050 0.53600 0.55330 -0.64600
H 	H 	0.98180 0.49780 0.55420 0.27700
C 	C 	0.14200 0.62150 0.53069 0.46900
Co	Co	0.71105 0.47172 0.48661 1.18300
Co	Co	0.57043 0.37957 0.48903 1.16200
O 	O 	0.97907 0.64614 0.43341 -0.25000
O 	O 	0.78768 0.55091 0.48032 -0.36700
O 	O 	0.77771 0.46862 0.47342 -0.47500
O 	O 	0.76075 0.45410 0.50200 -0.65600
O 	O 	0.70000 0.38690 0.51419 -0.45500
O 	O 	0.64985 0.38742 0.48562 -0.58700
O 	O 	0.10670 0.64970 0.43342 -0.26100
O 	O 	0.18527 0.68519 0.49674 -0.44900
O 	O 	0.17933 0.67480 0.52869 -0.43700
O 	O 	0.16570 0.59472 0.49306 -0.45300
O 	O 	0.14047 0.57944 0.52510 -0.48300
O 	O 	0.83690 0.55420 0.56456 -0.48500
O 	O 	0.96560 0.55180 0.57063 -0.25400
C 	C 	0.84530 0.51820 0.57447 0.20800
H 	H 	0.81190 0.48660 0.57880 -0.03000
H 	H 	0.86310 0.50270 0.56840 -0.00500
C 	C 	0.94880 0.59510 0.57413 0.17400
H 	H 	0.97300 0.63000 0.57930 -0.03700
H 	H 	0.94280 0.60640 0.56490 -0.01600
C 	C 	0.46967 0.85663 0.80609 0.33900
C 	C 	0.51567 0.88623 0.79516 -0.19100
C 	C 	0.54427 0.94683 0.79498 0.12700
H 	H 	0.53457 0.96693 0.80133 0.00800
C 	C 	0.58777 0.97583 0.78510 -0.23200
H 	H 	0.60727 0.01583 0.78473 0.12000
C 	C 	0.60167 0.94523 0.77581 0.27300
C 	C 	0.57287 0.88633 0.77614 -0.27300
H 	H 	0.58127 0.86543 0.76973 0.13300
C 	C 	0.53077 0.85883 0.78634 0.16400
H 	H 	0.51247 0.81893 0.78693 -0.00700
C 	C 	0.66327 0.95283 0.75685 0.05100
H 	H 	0.67057 0.92483 0.76143 0.03000
H 	H 	0.63347 0.93323 0.74983 0.03400
C 	C 	0.83627 0.97543 0.82254 0.43500
C 	C 	0.81817 0.97753 0.80793 -0.23200
C 	C 	0.80407 0.93303 0.79868 0.21200
H 	H 	0.80257 0.89933 0.80163 -0.02700
C 	C 	0.79217 0.93973 0.78475 -0.35200
H 	H 	0.78757 0.91193 0.77823 0.16500
C 	C 	0.78727 0.98323 0.78050 0.35300
C 	C 	0.80367 0.03093 0.78922 -0.32000
H 	H 	0.80367 0.06373 0.78613 0.15200
C 	C 	0.81987 0.02633 0.80279 0.19100
H 	H 	0.83247 0.05793 0.80873 -0.01500
C 	C 	0.76367 0.02713 0.76142 0.03400
H 	H 	0.75027 0.04233 0.76883 0.03100
H 	H 	0.79897 0.05843 0.75763 0.04400
C 	C 	0.41027 0.76883 0.84647 0.63800
C 	C 	0.43487 0.79833 0.86009 -0.58400
C 	C 	0.47987 0.84983 0.85980 0.54500
H 	H 	0.49537 0.86673 0.85123 -0.15100
C 	C 	0.50507 0.87943 0.87187 -0.58600
H 	H 	0.53567 0.91693 0.87153 0.25000
C 	C 	0.48317 0.85143 0.88468 0.59400
C 	C 	0.43827 0.80083 0.88403 -0.66500
H 	H 	0.42157 0.78293 0.89243 0.26700
C 	C 	0.41297 0.77133 0.87184 0.57500
H 	H 	0.38187 0.73403 0.87203 -0.13700
O 	O 	0.53167 0.90093 0.89229 -0.05300
O 	O 	0.61567 0.87653 0.89866 -0.04200
C 	C 	0.51997 0.90313 0.90743 0.53300
H 	H 	0.49147 0.90723 0.91283 -0.11300
H 	H 	0.50647 0.86273 0.90583 -0.13600
C 	C 	0.61727 0.90863 0.91171 -0.05200
H 	H 	0.60597 0.87093 0.91553 0.05400
H 	H 	0.64987 0.93813 0.91683 0.02900
C 	C 	0.67587 0.90613 0.89204 0.48700
C 	C 	0.71237 0.96923 0.89144 -0.36600
H 	H 	0.70697 0.99503 0.89683 0.16400
C 	C 	0.75937 0.98543 0.88092 0.25400
H 	H 	0.78397 0.02383 0.87873 -0.03900
C 	C 	0.76537 0.94453 0.87478 -0.32700
C 	C 	0.72547 0.88683 0.87873 0.35900
H 	H 	0.73297 0.85843 0.87563 -0.07500
C 	C 	0.67717 0.86933 0.88663 -0.62500
H 	H 	0.64847 0.83113 0.88753 0.26500
C 	C 	0.80867 0.95483 0.86402 0.48000
Co	Co	0.37772 0.80505 0.81994 1.18300
Co	Co	0.23710 0.71290 0.82236 1.16200
O 	O 	0.64574 0.97947 0.76674 -0.24200
O 	O 	0.45435 0.88424 0.81365 -0.36600
O 	O 	0.44438 0.80195 0.80675 -0.47400
O 	O 	0.42742 0.78743 0.83533 -0.65600
O 	O 	0.36667 0.72023 0.84752 -0.45500
O 	O 	0.31652 0.72075 0.81895 -0.58700
O 	O 	0.77337 0.98303 0.76675 -0.25700
O 	O 	0.85194 0.01852 0.83007 -0.45600
O 	O 	0.84600 0.00813 0.86202 -0.44500
O 	O 	0.83237 0.92805 0.82639 -0.45300
O 	O 	0.80714 0.91277 0.85843 -0.48400
O 	O 	0.50357 0.88753 0.89789 -0.48400
O 	O 	0.63227 0.88513 0.90396 -0.25700
C 	C 	0.51197 0.85153 0.90780 0.20800
H 	H 	0.47857 0.81993 0.91213 -0.03000
H 	H 	0.52977 0.83603 0.90173 -0.00500
C 	C 	0.61547 0.92843 0.90746 0.17500
H 	H 	0.63967 0.96333 0.91263 -0.03900
H 	H 	0.60947 0.93973 0.89823 -0.01700
C 	C 	0.13633 0.18997 0.13943 0.34300
C 	C 	0.18233 0.21957 0.12850 -0.20200
C 	C 	0.21093 0.28017 0.12832 0.14400
H 	H 	0.20123 0.30027 0.13467 -0.00000
C 	C 	0.25443 0.30917 0.11844 -0.26100
H 	H 	0.27393 0.34917 0.11807 0.13600
C 	C 	0.26833 0.27857 0.10915 0.28600
C 	C 	0.23953 0.21967 0.10948 -0.28500
H 	H 	0.24793 0.19877 0.10307 0.13600
C 	C 	0.19743 0.19217 0.11968 0.17500
H 	H 	0.17913 0.15227 0.12027 -0.01300
C 	C 	0.32993 0.28617 0.09019 0.03600
H 	H 	0.33723 0.25817 0.09477 0.03400
H 	H 	0.30013 0.26657 0.08317 0.03600
C 	C 	0.50293 0.30877 0.15588 0.42700
C 	C 	0.48483 0.31087 0.14127 -0.23800
C 	C 	0.47073 0.26637 0.13202 0.21000
H 	H 	0.46923 0.23267 0.13497 -0.02700
C 	C 	0.45883 0.27307 0.11809 -0.34800
H 	H 	0.45423 0.24527 0.11157 0.16300
C 	C 	0.45393 0.31657 0.11384 0.34300
C 	C 	0.47033 0.36427 0.12256 -0.31000
H 	H 	0.47033 0.39707 0.11947 0.14900
C 	C 	0.48653 0.35967 0.13613 0.19700
H 	H 	0.49913 0.39127 0.14207 -0.01600
C 	C 	0.43033 0.36047 0.09476 0.03300
H 	H 	0.41693 0.37567 0.10217 0.03400
H 	H 	0.46563 0.39177 0.09097 0.04500
C 	C 	0.07693 0.10217 0.17981 0.64100
C 	C 	0.10153 0.13167 0.19343 -0.58900
C 	C 	0.14653 0.18317 0.19314 0.54900
H 	H 	0.16203 0.20007 0.18457 -0.15300
C 	C 	0.17173 0.21277 0.20521 -0.58900
H 	H 	0.20233 0.25027 0.20487 0.25000
C 	C 	0.14983 0.18477 0.21802 0.59600
C 	C 	0.10493 0.13417 0.21737 -0.66900
H 	H 	0.08823 0.11627 0.22577 0.26600
C 	C 	0.07963 0.10467 0.20518 0.57900
H 	H 	0.04853 0.06737 0.20537 -0.14200
O 	O 	0.19833 0.23427 0.22563 -0.05300
O 	O 	0.28233 0.20987 0.23200 -0.04100
C 	C 	0.18663 0.23647 0.24077 0.53500
H 	H 	0.15813 0.24057 0.24617 -0.11400
H 	H 	0.17313 0.19607 0.23917 -0.13600
C 	C 	0.28393 0.24197 0.24505 -0.05100
H 	H 	0.27263 0.20427 0.24887 0.05300
H 	H 	0.31653 0.27147 0.25017 0.02800
C 	C 	0.34253 0.23947 0.22538 0.47200
C 	C 	0.37903 0.30257 0.22478 -0.35000
H 	H 	0.37363 0.32837 0.23017 0.15600
C 	C 	0.42603 0.31877 0.21426 0.22400
H 	H 	0.45063 0.35717 0.21207 -0.02400
C 	C 	0.43203 0.27787 0.20812 -0.30900
C 	C 	0.39213 0.22017 0.21207 0.34100
H 	H 	0.39963 0.19177 0.20897 -0.07000
C 	C 	0.34383 0.20267 0.21997 -0.60500
H 	H 	0.31513 0.16447 0.22087 0.25800
C 	C 	0.47533 0.28817 0.19736 0.46400
Co	Co	0.04438 0.13839 0.15327 1.18100
Co	Co	0.90376 0.04624 0.15570 1.16000
O 	O 	0.31240 0.31281 0.10008 -0.24700
O 	O 	0.12101 0.21758 0.14699 -0.36800
O 	O 	0.11104 0.13529 0.14009 -0.47700
O 	O 	0.09408 0.12077 0.16867 -0.65800
O 	O 	0.03333 0.05357 0.18086 -0.46200
O 	O 	0.98318 0.05409 0.15229 -0.58400
O 	O 	0.44003 0.31637 0.10009 -0.25900
O 	O 	0.51860 0.35186 0.16341 -0.44900
O 	O 	0.51266 0.34147 0.19536 -0.43600
O 	O 	0.49903 0.26139 0.15973 -0.45200
O 	O 	0.47380 0.24611 0.19177 -0.48100
O 	O 	0.17023 0.22087 0.23123 -0.48600
O 	O 	0.29893 0.21847 0.23730 -0.25500
C 	C 	0.17863 0.18487 0.24114 0.20800
H 	H 	0.14523 0.15327 0.24547 -0.03100
H 	H 	0.19643 0.16937 0.23507 -0.00500
C 	C 	0.28213 0.26177 0.24080 0.17500
H 	H 	0.30633 0.29667 0.24597 -0.03900
H 	H 	0.27613 0.27307 0.23157 -0.01800
C 	C 	0.47670 0.27970 0.47276 0.34300
C 	C 	0.44710 0.29610 0.46183 -0.20100
C 	C 	0.38650 0.26410 0.46165 0.14300
H 	H 	0.36640 0.23430 0.46800 -0.00100
C 	C 	0.35750 0.27860 0.45177 -0.26000
H 	H 	0.31750 0.25810 0.45140 0.13500
C 	C 	0.38810 0.32310 0.44248 0.28500
C 	C 	0.44700 0.35320 0.44281 -0.28400
H 	H 	0.46790 0.38250 0.43640 0.13700
C 	C 	0.47450 0.33860 0.45301 0.17500
H 	H 	0.51440 0.36020 0.45360 -0.01100
C 	C 	0.38050 0.37710 0.42352 0.03600
H 	H 	0.40850 0.41240 0.42810 0.03400
H 	H 	0.40010 0.36690 0.41650 0.03700
C 	C 	0.35790 0.52750 0.48921 0.42700
C 	C 	0.35580 0.50730 0.47460 -0.23800
C 	C 	0.40030 0.53770 0.46535 0.21000
H 	H 	0.43400 0.56990 0.46830 -0.02700
C 	C 	0.39360 0.51910 0.45142 -0.34800
H 	H 	0.42140 0.54230 0.44490 0.16300
C 	C 	0.35010 0.47070 0.44717 0.34200
C 	C 	0.30240 0.43940 0.45589 -0.31000
H 	H 	0.26960 0.40660 0.45280 0.14900
C 	C 	0.30700 0.46020 0.46946 0.19700
H 	H 	0.27540 0.44120 0.47540 -0.01700
C 	C 	0.30620 0.40320 0.42809 0.03300
H 	H 	0.29100 0.37460 0.43550 0.03300
H 	H 	0.27490 0.40720 0.42430 0.04500
C 	C 	0.56450 0.30810 0.51314 0.63800
C 	C 	0.53500 0.30320 0.52676 -0.58400
C 	C 	0.48350 0.29670 0.52647 0.54500
H 	H 	0.46660 0.29530 0.51790 -0.15200
C 	C 	0.45390 0.29230 0.53854 -0.58500
H 	H 	0.41640 0.28540 0.53820 0.24900
C 	C 	0.48190 0.29840 0.55135 0.59300
C 	C 	0.53250 0.30410 0.55070 -0.66500
H 	H 	0.55040 0.30530 0.55910 0.26700
C 	C 	0.56200 0.30830 0.53851 0.57500
H 	H 	0.59930 0.31450 0.53870 -0.13700
O 	O 	0.43240 0.29740 0.55896 -0.05400
O 	O 	0.45680 0.40580 0.56533 -0.04100
C 	C 	0.43020 0.28350 0.57410 0.53300
H 	H 	0.42610 0.25090 0.57950 -0.11300
H 	H 	0.47060 0.31040 0.57250 -0.13600
C 	C 	0.42470 0.37530 0.57838 -0.05100
H 	H 	0.46240 0.40170 0.58220 0.05300
H 	H 	0.39520 0.37840 0.58350 0.02800
C 	C 	0.42720 0.43640 0.55871 0.47200
C 	C 	0.36410 0.40980 0.55811 -0.35000
H 	H 	0.33830 0.37860 0.56350 0.15500
C 	C 	0.34790 0.44060 0.54759 0.22400
H 	H 	0.30950 0.42680 0.54540 -0.02500
C 	C 	0.38880 0.48750 0.54145 -0.30900
C 	C 	0.44650 0.50530 0.54540 0.34100
H 	H 	0.47490 0.54120 0.54230 -0.06900
C 	C 	0.46400 0.47450 0.55330 -0.60500
H 	H 	0.50220 0.48400 0.55420 0.25800
C 	C 	0.37850 0.52050 0.53069 0.46400
Co	Co	0.52828 0.23933 0.48661 1.18300
Co	Co	0.62043 0.19086 0.48903 1.16200
O 	O 	0.35386 0.33293 0.43341 -0.24700
O 	O 	0.44909 0.23677 0.48032 -0.36800
O 	O 	0.53138 0.30909 0.47342 -0.47500
O 	O 	0.54590 0.30665 0.50200 -0.65700
O 	O 	0.61310 0.31310 0.51419 -0.45500
O 	O 	0.61258 0.26243 0.48562 -0.58700
O 	O 	0.35030 0.45700 0.43342 -0.26000
O 	O 	0.31481 0.50008 0.49674 -0.44900
O 	O 	0.32520 0.50453 0.52869 -0.43600
O 	O 	0.40528 0.57098 0.49306 -0.45200
O 	O 	0.42056 0.56103 0.52510 -0.48100
O 	O 	0.44580 0.28270 0.56456 -0.48400
O 	O 	0.44820 0.41380 0.57063 -0.25500
C 	C 	0.48180 0.32710 0.57447 0.20800
H 	H 	0.51340 0.32530 0.57880 -0.03000
H 	H 	0.49730 0.36040 0.56840 -0.00500
C 	C 	0.40490 0.35370 0.57413 0.17500
H 	H 	0.37000 0.34300 0.57930 -0.03900
H 	H 	0.39360 0.33640 0.56490 -0.01800
C 	C 	0.14337 0.61303 0.80609 0.34700
C 	C 	0.11377 0.62943 0.79516 -0.21300
C 	C 	0.05317 0.59743 0.79498 0.16200
H 	H 	0.03307 0.56763 0.80133 -0.00800
C 	C 	0.02417 0.61193 0.78510 -0.29100
H 	H 	0.98417 0.59143 0.78473 0.15300
C 	C 	0.05477 0.65643 0.77581 0.30100
C 	C 	0.11367 0.68653 0.77614 -0.29800
H 	H 	0.13457 0.71583 0.76973 0.14200
C 	C 	0.14117 0.67193 0.78634 0.18800
H 	H 	0.18107 0.69353 0.78693 -0.01600
C 	C 	0.04717 0.71043 0.75685 0.04800
H 	H 	0.07517 0.74573 0.76143 0.03000
H 	H 	0.06677 0.70023 0.74983 0.03200
C 	C 	0.02457 0.86083 0.82254 0.41800
C 	C 	0.02247 0.84063 0.80793 -0.24300
C 	C 	0.06697 0.87103 0.79868 0.20900
H 	H 	0.10067 0.90323 0.80163 -0.02500
C 	C 	0.06027 0.85243 0.78475 -0.34500
H 	H 	0.08807 0.87563 0.77823 0.16200
C 	C 	0.01677 0.80403 0.78050 0.33400
C 	C 	0.96907 0.77273 0.78922 -0.30100
H 	H 	0.93627 0.73993 0.78613 0.14800
C 	C 	0.97367 0.79353 0.80279 0.20400
H 	H 	0.94207 0.77453 0.80873 -0.01800
C 	C 	0.97287 0.73653 0.76142 0.05800
H 	H 	0.95767 0.70793 0.76883 0.02900
H 	H 	0.94157 0.74053 0.75763 0.03900
C 	C 	0.23117 0.64143 0.84647 0.63800
C 	C 	0.20167 0.63653 0.86009 -0.58400
C 	C 	0.15017 0.63003 0.85980 0.54400
H 	H 	0.13327 0.62863 0.85123 -0.15200
C 	C 	0.12057 0.62563 0.87187 -0.58500
H 	H 	0.08307 0.61873 0.87153 0.24800
C 	C 	0.14857 0.63173 0.88468 0.59300
C 	C 	0.19917 0.63743 0.88403 -0.66400
H 	H 	0.21707 0.63863 0.89243 0.26600
C 	C 	0.22867 0.64163 0.87184 0.57400
H 	H 	0.26597 0.64783 0.87203 -0.13700
O 	O 	0.09907 0.63073 0.89229 -0.05400
O 	O 	0.12347 0.73913 0.89866 -0.04100
C 	C 	0.09687 0.61683 0.90743 0.53200
H 	H 	0.09277 0.58423 0.91283 -0.11300
H 	H 	0.13727 0.64373 0.90583 -0.13600
C 	C 	0.09137 0.70863 0.91171 -0.05100
H 	H 	0.12907 0.73503 0.91553 0.05300
H 	H 	0.06187 0.71173 0.91683 0.02800
C 	C 	0.09387 0.76973 0.89204 0.45500
C 	C 	0.03077 0.74313 0.89144 -0.33100
H 	H 	0.00497 0.71193 0.89683 0.14700
C 	C 	0.01457 0.77393 0.88092 0.19200
H 	H 	0.97617 0.76013 0.87873 -0.00700
C 	C 	0.05547 0.82083 0.87478 -0.28900
C 	C 	0.11317 0.83863 0.87873 0.32200
H 	H 	0.14157 0.87453 0.87563 -0.06200
C 	C 	0.13067 0.80783 0.88663 -0.58200
H 	H 	0.16887 0.81733 0.88753 0.25000
C 	C 	0.04517 0.85383 0.86402 0.44700
Co	Co	0.19495 0.57266 0.81994 1.18300
Co	Co	0.28710 0.52419 0.82236 1.16200
O 	O 	0.02053 0.66626 0.76674 -0.25600
O 	O 	0.11576 0.57010 0.81365 -0.37000
O 	O 	0.19805 0.64242 0.80675 -0.47600
O 	O 	0.21257 0.63998 0.83533 -0.65700
O 	O 	0.27977 0.64643 0.84752 -0.45500
O 	O 	0.27925 0.59576 0.81895 -0.58700
O 	O 	0.01697 0.79033 0.76675 -0.26600
O 	O 	0.98148 0.83341 0.83007 -0.44000
O 	O 	0.99187 0.83786 0.86202 -0.42500
O 	O 	0.07195 0.90431 0.82639 -0.44900
O 	O 	0.08723 0.89436 0.85843 -0.47600
O 	O 	0.11247 0.61603 0.89789 -0.48400
O 	O 	0.11487 0.74713 0.90396 -0.25200
C 	C 	0.14847 0.66043 0.90780 0.20800
H 	H 	0.18007 0.65863 0.91213 -0.03000
H 	H 	0.16397 0.69373 0.90173 -0.00500
C 	C 	0.07157 0.68703 0.90746 0.17400
H 	H 	0.03667 0.67633 0.91263 -0.03800
H 	H 	0.06027 0.66973 0.89823 -0.01800
C 	C 	0.81003 0.94637 0.13943 0.33900
C 	C 	0.78043 0.96277 0.12850 -0.18700
C 	C 	0.71983 0.93077 0.12832 0.14000
H 	H 	0.69973 0.90097 0.13467 0.00200
C 	C 	0.69083 0.94527 0.11844 -0.25900
H 	H 	0.65083 0.92477 0.11807 0.13700
C 	C 	0.72143 0.98977 0.10915 0.29300
C 	C 	0.78033 0.01987 0.10948 -0.29000
H 	H 	0.80123 0.04917 0.10307 0.13700
C 	C 	0.80783 0.00527 0.11968 0.16100
H 	H 	0.84773 0.02687 0.12027 -0.00800
C 	C 	0.71383 0.04377 0.09019 0.03400
H 	H 	0.74183 0.07907 0.09477 0.03300
H 	H 	0.73343 0.03357 0.08317 0.03500
C 	C 	0.69123 0.19417 0.15588 0.42700
C 	C 	0.68913 0.17397 0.14127 -0.23800
C 	C 	0.73363 0.20437 0.13202 0.21000
H 	H 	0.76733 0.23657 0.13497 -0.02700
C 	C 	0.72693 0.18577 0.11809 -0.34900
H 	H 	0.75473 0.20897 0.11157 0.16300
C 	C 	0.68343 0.13737 0.11384 0.34300
C 	C 	0.63573 0.10607 0.12256 -0.31100
H 	H 	0.60293 0.07327 0.11947 0.14900
C 	C 	0.64033 0.12687 0.13613 0.19700
H 	H 	0.60873 0.10787 0.14207 -0.01700
C 	C 	0.63953 0.06987 0.09476 0.04200
H 	H 	0.62433 0.04127 0.10217 0.02900
H 	H 	0.60823 0.07387 0.09097 0.04200
C 	C 	0.89783 0.97477 0.17981 0.63700
C 	C 	0.86833 0.96987 0.19343 -0.58300
C 	C 	0.81683 0.96337 0.19314 0.54700
H 	H 	0.79993 0.96197 0.18457 -0.15100
C 	C 	0.78723 0.95897 0.20521 -0.58800
H 	H 	0.74973 0.95207 0.20487 0.25100
C 	C 	0.81523 0.96507 0.21802 0.59800
C 	C 	0.86583 0.97077 0.21737 -0.66600
H 	H 	0.88373 0.97197 0.22577 0.27000
C 	C 	0.89533 0.97497 0.20518 0.57600
H 	H 	0.93263 0.98117 0.20537 -0.13400
O 	O 	0.76573 0.96407 0.22563 -0.04400
O 	O 	0.79013 0.07247 0.23200 -0.04300
C 	C 	0.76353 0.95017 0.24077 0.55000
H 	H 	0.75943 0.91757 0.24617 -0.11800
H 	H 	0.80393 0.97707 0.23917 -0.12700
C 	C 	0.75803 0.04197 0.24505 -0.04800
H 	H 	0.79573 0.06837 0.24887 0.05200
H 	H 	0.72853 0.04507 0.25017 0.02600
C 	C 	0.76053 0.10307 0.22538 0.47100
C 	C 	0.69743 0.07647 0.22478 -0.35000
H 	H 	0.67163 0.04527 0.23017 0.15500
C 	C 	0.68123 0.10727 0.21426 0.22400
H 	H 	0.64283 0.09347 0.21207 -0.02500
C 	C 	0.72213 0.15417 0.20812 -0.30900
C 	C 	0.77983 0.17197 0.21207 0.34100
H 	H 	0.80823 0.20787 0.20897 -0.06900
C 	C 	0.79733 0.14117 0.21997 -0.60500
H 	H 	0.83553 0.15067 0.22087 0.25800
C 	C 	0.71183 0.18717 0.19736 0.46400
Co	Co	0.86161 0.90600 0.15327 1.18300
Co	Co	0.95376 0.85753 0.15570 1.16500
O 	O 	0.68719 0.99960 0.10008 -0.24200
O 	O 	0.78242 0.90344 0.14699 -0.36600
O 	O 	0.86471 0.97576 0.14009 -0.46900
O 	O 	0.87923 0.97332 0.16867 -0.65300
O 	O 	0.94643 0.97977 0.18086 -0.44700
O 	O 	0.94591 0.92910 0.15229 -0.58200
O 	O 	0.68363 0.12367 0.10009 -0.26100
O 	O 	0.64814 0.16675 0.16341 -0.44900
O 	O 	0.65853 0.17120 0.19536 -0.43600
O 	O 	0.73861 0.23765 0.15973 -0.45200
O 	O 	0.75389 0.22770 0.19177 -0.48100
O 	O 	0.77913 0.94937 0.23123 -0.49900
O 	O 	0.78153 0.08047 0.23730 -0.25400
C 	C 	0.81513 0.99377 0.24114 0.19700
H 	H 	0.84673 0.99197 0.24547 -0.02100
H 	H 	0.83063 0.02707 0.23507 -0.00700
C 	C 	0.73823 0.02037 0.24080 0.17600
H 	H 	0.70333 0.00967 0.24597 -0.04400
H 	H 	0.72693 0.00307 0.23157 -0.02200
C 	C 	0.72030 0.19700 0.47276 0.34200
C 	C 	0.70390 0.15100 0.46183 -0.19900
C 	C 	0.73590 0.12240 0.46165 0.14100
H 	H 	0.76570 0.13210 0.46800 0.00100
C 	C 	0.72140 0.07890 0.45177 -0.25700
H 	H 	0.74190 0.05940 0.45140 0.13400
C 	C 	0.67690 0.06500 0.44248 0.28000
C 	C 	0.64680 0.09380 0.44281 -0.28100
H 	H 	0.61750 0.08540 0.43640 0.13400
C 	C 	0.66140 0.13590 0.45301 0.17200
H 	H 	0.63980 0.15420 0.45360 -0.01000
C 	C 	0.62290 0.00340 0.42352 0.00300
H 	H 	0.58760 0.99610 0.42810 0.04900
H 	H 	0.63310 0.03320 0.41650 0.04400
C 	C 	0.47250 0.83040 0.48921 0.42600
C 	C 	0.49270 0.84850 0.47460 -0.23600
C 	C 	0.46230 0.86260 0.46535 0.21000
H 	H 	0.43010 0.86410 0.46830 -0.02600
C 	C 	0.48090 0.87450 0.45142 -0.34700
H 	H 	0.45770 0.87910 0.44490 0.16200
C 	C 	0.52930 0.87940 0.44717 0.34200
C 	C 	0.56060 0.86300 0.45589 -0.30800
H 	H 	0.59340 0.86300 0.45280 0.15000
C 	C 	0.53980 0.84680 0.46946 0.19700
H 	H 	0.55880 0.83420 0.47540 -0.01600
C 	C 	0.59680 0.90300 0.42809 0.02400
H 	H 	0.62540 0.91640 0.43550 0.03800
H 	H 	0.59280 0.86770 0.42430 0.04700
C 	C 	0.69190 0.25640 0.51314 0.63800
C 	C 	0.69680 0.23180 0.52676 -0.58400
C 	C 	0.70330 0.18680 0.52647 0.54500
H 	H 	0.70470 0.17130 0.51790 -0.15200
C 	C 	0.70770 0.16160 0.53854 -0.58600
H 	H 	0.71460 0.13100 0.53820 0.24800
C 	C 	0.70160 0.18350 0.55135 0.59300
C 	C 	0.69590 0.22840 0.55070 -0.66500
H 	H 	0.69470 0.24510 0.55910 0.26700
C 	C 	0.69170 0.25370 0.53851 0.57400
H 	H 	0.68550 0.28480 0.53870 -0.13700
O 	O 	0.70260 0.13500 0.55896 -0.05400
O 	O 	0.59420 0.05100 0.56533 -0.04100
C 	C 	0.71650 0.14670 0.57410 0.53300
H 	H 	0.74910 0.17520 0.57950 -0.11300
H 	H 	0.68960 0.16020 0.57250 -0.13600
C 	C 	0.62470 0.04940 0.57838 -0.05100
H 	H 	0.59830 0.06070 0.58220 0.05300
H 	H 	0.62160 0.01680 0.58350 0.02700
C 	C 	0.56360 0.99080 0.55871 0.45500
C 	C 	0.59020 0.95430 0.55811 -0.33500
H 	H 	0.62140 0.95970 0.56350 0.15400
C 	C 	0.55940 0.90730 0.54759 0.21300
H 	H 	0.57320 0.88270 0.54540 -0.02000
C 	C 	0.51250 0.90130 0.54145 -0.29500
C 	C 	0.49470 0.94120 0.54540 0.31700
H 	H 	0.45880 0.93370 0.54230 -0.06000
C 	C 	0.52550 0.98950 0.55330 -0.56200
H 	H 	0.51600 0.01820 0.55420 0.23800
C 	C 	0.47950 0.85800 0.53069 0.45900
Co	Co	0.76067 0.28895 0.48661 1.18300
Co	Co	0.80914 0.42957 0.48903 1.16200
O 	O 	0.66707 0.02093 0.43341 -0.24200
O 	O 	0.76323 0.21232 0.48032 -0.36700
O 	O 	0.69091 0.22229 0.47342 -0.47500
O 	O 	0.69335 0.23925 0.50200 -0.65700
O 	O 	0.68690 0.30000 0.51419 -0.45500
O 	O 	0.73757 0.35015 0.48562 -0.58700
O 	O 	0.54300 0.89330 0.43342 -0.25800
O 	O 	0.49992 0.81473 0.49674 -0.44800
O 	O 	0.49547 0.82067 0.52869 -0.43400
O 	O 	0.42902 0.83430 0.49306 -0.45200
O 	O 	0.43897 0.85953 0.52510 -0.47900
O 	O 	0.71730 0.16310 0.56456 -0.48400
O 	O 	0.58620 0.03440 0.57063 -0.25600
C 	C 	0.67290 0.15470 0.57447 0.20800
H 	H 	0.67470 0.18810 0.57880 -0.03000
H 	H 	0.63960 0.13690 0.56840 -0.00500
C 	C 	0.64630 0.05120 0.57413 0.17500
H 	H 	0.65700 0.02700 0.57930 -0.04000
H 	H 	0.66360 0.05720 0.56490 -0.01900
C 	C 	0.38697 0.53033 0.80609 0.34300
C 	C 	0.37057 0.48433 0.79516 -0.20100
C 	C 	0.40257 0.45573 0.79498 0.14300
H 	H 	0.43237 0.46543 0.80133 0.00000
C 	C 	0.38807 0.41223 0.78510 -0.26000
H 	H 	0.40857 0.39273 0.78473 0.13600
C 	C 	0.34357 0.39833 0.77581 0.28500
C 	C 	0.31347 0.42713 0.77614 -0.28400
H 	H 	0.28417 0.41873 0.76973 0.13700
C 	C 	0.32807 0.46923 0.78634 0.17500
H 	H 	0.30647 0.48753 0.78693 -0.01100
C 	C 	0.28957 0.33673 0.75685 0.03600
H 	H 	0.25427 0.32943 0.76143 0.03400
H 	H 	0.29977 0.36653 0.74983 0.03700
C 	C 	0.13917 0.16373 0.82254 0.42700
C 	C 	0.15937 0.18183 0.80793 -0.23900
C 	C 	0.12897 0.19593 0.79868 0.21100
H 	H 	0.09677 0.19743 0.80163 -0.02900
C 	C 	0.14757 0.20783 0.78475 -0.35000
H 	H 	0.12437 0.21243 0.77823 0.16200
C 	C 	0.19597 0.21273 0.78050 0.34300
C 	C 	0.22727 0.19633 0.78922 -0.31100
H 	H 	0.26007 0.19633 0.78613 0.15000
C 	C 	0.20647 0.18013 0.80279 0.19800
H 	H 	0.22547 0.16753 0.80873 -0.01700
C 	C 	0.26347 0.23633 0.76142 0.03300
H 	H 	0.29207 0.24973 0.76883 0.03300
H 	H 	0.25947 0.20103 0.75763 0.04500
C 	C 	0.35857 0.58973 0.84647 0.63800
C 	C 	0.36347 0.56513 0.86009 -0.58400
C 	C 	0.36997 0.52013 0.85980 0.54500
H 	H 	0.37137 0.50463 0.85123 -0.15100
C 	C 	0.37437 0.49493 0.87187 -0.58500
H 	H 	0.38127 0.46433 0.87153 0.24900
C 	C 	0.36827 0.51683 0.88468 0.59300
C 	C 	0.36257 0.56173 0.88403 -0.66500
H 	H 	0.36137 0.57843 0.89243 0.26700
C 	C 	0.35837 0.58703 0.87184 0.57500
H 	H 	0.35217 0.61813 0.87203 -0.13700
O 	O 	0.36927 0.46833 0.89229 -0.05300
O 	O 	0.26087 0.38433 0.89866 -0.04100
C 	C 	0.38317 0.48003 0.90743 0.53300
H 	H 	0.41577 0.50853 0.91283 -0.11300
H 	H 	0.35627 0.49353 0.90583 -0.13600
C 	C 	0.29137 0.38273 0.91171 -0.05200
H 	H 	0.26497 0.39403 0.91553 0.05300
H 	H 	0.28827 0.35013 0.91683 0.02800
C 	C 	0.23027 0.32413 0.89204 0.47200
C 	C 	0.25687 0.28763 0.89144 -0.35000
H 	H 	0.28807 0.29303 0.89683 0.15600
C 	C 	0.22607 0.24063 0.88092 0.22500
H 	H 	0.23987 0.21603 0.87873 -0.02500
C 	C 	0.17917 0.23463 0.87478 -0.31000
C 	C 	0.16137 0.27453 0.87873 0.34100
H 	H 	0.12547 0.26703 0.87563 -0.07000
C 	C 	0.19217 0.32283 0.88663 -0.60500
H 	H 	0.18267 0.35153 0.88753 0.25800
C 	C 	0.14617 0.19133 0.86402 0.46400
Co	Co	0.42734 0.62228 0.81994 1.18300
Co	Co	0.47581 0.76290 0.82236 1.16200
O 	O 	0.33374 0.35426 0.76674 -0.24600
O 	O 	0.42990 0.54565 0.81365 -0.36800
O 	O 	0.35758 0.55562 0.80675 -0.47500
O 	O 	0.36002 0.57258 0.83533 -0.65700
O 	O 	0.35357 0.63333 0.84752 -0.45500
O 	O 	0.40424 0.68348 0.81895 -0.58700
O 	O 	0.20967 0.22663 0.76675 -0.26000
O 	O 	0.16659 0.14806 0.83007 -0.44900
O 	O 	0.16214 0.15400 0.86202 -0.43700
O 	O 	0.09569 0.16763 0.82639 -0.45500
O 	O 	0.10564 0.19286 0.85843 -0.48300
O 	O 	0.38397 0.49643 0.89789 -0.48400
O 	O 	0.25287 0.36773 0.90396 -0.25600
C 	C 	0.33957 0.48803 0.90780 0.20800
H 	H 	0.34137 0.52143 0.91213 -0.03000
H 	H 	0.30627 0.47023 0.90173 -0.00500
C 	C 	0.31297 0.38453 0.90746 0.17500
H 	H 	0.32367 0.36033 0.91263 -0.03900
H 	H 	0.33027 0.39053 0.89823 -0.01800
C 	C 	0.05363 0.86367 0.13943 0.34600
C 	C 	0.03723 0.81767 0.12850 -0.21200
C 	C 	0.06923 0.78907 0.12832 0.14600
H 	H 	0.09903 0.79877 0.13467 -0.00100
C 	C 	0.05473 0.74557 0.11844 -0.26000
H 	H 	0.07523 0.72607 0.11807 0.13500
C 	C 	0.01023 0.73167 0.10915 0.27800
C 	C 	0.98013 0.76047 0.10948 -0.27800
H 	H 	0.95083 0.75207 0.10307 0.13600
C 	C 	0.99473 0.80257 0.11968 0.18700
H 	H 	0.97313 0.82087 0.12027 -0.01300
C 	C 	0.95623 0.67007 0.09019 0.03600
H 	H 	0.92093 0.66277 0.09477 0.03500
H 	H 	0.96643 0.69987 0.08317 0.03900
C 	C 	0.80583 0.49707 0.15588 0.42600
C 	C 	0.82603 0.51517 0.14127 -0.23700
C 	C 	0.79563 0.52927 0.13202 0.21000
H 	H 	0.76343 0.53077 0.13497 -0.02600
C 	C 	0.81423 0.54117 0.11809 -0.34700
H 	H 	0.79103 0.54577 0.11157 0.16200
C 	C 	0.86263 0.54607 0.11384 0.34200
C 	C 	0.89393 0.52967 0.12256 -0.30900
H 	H 	0.92673 0.52967 0.11947 0.15000
C 	C 	0.87313 0.51347 0.13613 0.19700
H 	H 	0.89213 0.50087 0.14207 -0.01600
C 	C 	0.93013 0.56967 0.09476 0.02400
H 	H 	0.95873 0.58307 0.10217 0.03800
H 	H 	0.92613 0.53437 0.09097 0.04800
C 	C 	0.02523 0.92307 0.17981 0.63600
C 	C 	0.03013 0.89847 0.19343 -0.58400
C 	C 	0.03663 0.85347 0.19314 0.54300
H 	H 	0.03803 0.83797 0.18457 -0.15200
C 	C 	0.04103 0.82827 0.20521 -0.58600
H 	H 	0.04793 0.79767 0.20487 0.24800
C 	C 	0.03493 0.85017 0.21802 0.59200
C 	C 	0.02923 0.89507 0.21737 -0.66500
H 	H 	0.02803 0.91177 0.22577 0.26600
C 	C 	0.02503 0.92037 0.20518 0.57400
H 	H 	0.01883 0.95147 0.20537 -0.13600
O 	O 	0.03593 0.80167 0.22563 -0.05800
O 	O 	0.92753 0.71767 0.23200 -0.03700
C 	C 	0.04983 0.81337 0.24077 0.53800
H 	H 	0.08243 0.84187 0.24617 -0.11400
H 	H 	0.02293 0.82687 0.23917 -0.14000
C 	C 	0.95803 0.71607 0.24505 -0.05200
H 	H 	0.93163 0.72737 0.24887 0.05300
H 	H 	0.95493 0.68347 0.25017 0.02900
C 	C 	0.89693 0.65747 0.22538 0.47300
C 	C 	0.92353 0.62097 0.22478 -0.34900
H 	H 	0.95473 0.62637 0.23017 0.15700
C 	C 	0.89273 0.57397 0.21426 0.22500
H 	H 	0.90653 0.54937 0.21207 -0.02400
C 	C 	0.84583 0.56797 0.20812 -0.30900
C 	C 	0.82803 0.60787 0.21207 0.34200
H 	H 	0.79213 0.60037 0.20897 -0.07000
C 	C 	0.85883 0.65617 0.21997 -0.60500
H 	H 	0.84933 0.68487 0.22087 0.25800
C 	C 	0.81283 0.52467 0.19736 0.46500
Co	Co	0.09400 0.95562 0.15327 1.18400
Co	Co	0.14247 0.09624 0.15570 1.16100
O 	O 	0.00040 0.68760 0.10008 -0.25000
O 	O 	0.09656 0.87899 0.14699 -0.36900
O 	O 	0.02424 0.88896 0.14009 -0.47800
O 	O 	0.02668 0.90592 0.16867 -0.65800
O 	O 	0.02023 0.96667 0.18086 -0.45200
O 	O 	0.07090 0.01682 0.15229 -0.59400
O 	O 	0.87633 0.55997 0.10009 -0.25800
O 	O 	0.83325 0.48140 0.16341 -0.44800
O 	O 	0.82880 0.48734 0.19536 -0.43500
O 	O 	0.76235 0.50097 0.15973 -0.45200
O 	O 	0.77230 0.52620 0.19177 -0.48100
O 	O 	0.05063 0.82977 0.23123 -0.48300
O 	O 	0.91953 0.70107 0.23730 -0.25900
C 	C 	0.00623 0.82137 0.24114 0.21000
H 	H 	0.00803 0.85477 0.24547 -0.03600
H 	H 	0.97293 0.80357 0.23507 -0.00100
C 	C 	0.97963 0.71787 0.24080 0.18200
H 	H 	0.99033 0.69367 0.24597 -0.03500
H 	H 	0.99693 0.72387 0.23157 -0.01700
C 	C 	0.52330 0.80300 0.02724 0.34400
C 	C 	0.55290 0.84900 0.03817 -0.20300
C 	C 	0.61350 0.87760 0.03835 0.14600
H 	H 	0.63360 0.86790 0.03200 0.00000
C 	C 	0.64250 0.92110 0.04823 -0.26300
H 	H 	0.68250 0.94060 0.04860 0.13900
C 	C 	0.61190 0.93500 0.05752 0.29100
C 	C 	0.55300 0.90620 0.05719 -0.28700
H 	H 	0.53210 0.91460 0.06360 0.13900
C 	C 	0.52550 0.86410 0.04699 0.17800
H 	H 	0.48560 0.84580 0.04640 -0.01200
C 	C 	0.61950 0.99660 0.07648 0.06900
H 	H 	0.59150 0.00390 0.07190 0.01800
H 	H 	0.59990 0.96680 0.08350 0.02900
C 	C 	0.64210 0.16960 0.01079 0.42700
C 	C 	0.64420 0.15150 0.02540 -0.23900
C 	C 	0.59970 0.13740 0.03465 0.21100
H 	H 	0.56600 0.13590 0.03170 -0.02700
C 	C 	0.60640 0.12550 0.04858 -0.34900
H 	H 	0.57860 0.12090 0.05510 0.16300
C 	C 	0.64990 0.12060 0.05283 0.34300
C 	C 	0.69760 0.13700 0.04411 -0.31100
H 	H 	0.73040 0.13700 0.04720 0.15000
C 	C 	0.69300 0.15320 0.03054 0.19700
H 	H 	0.72460 0.16580 0.02460 -0.01700
C 	C 	0.69380 0.09700 0.07191 0.04100
H 	H 	0.70900 0.08360 0.06450 0.03000
H 	H 	0.72510 0.13230 0.07570 0.04300
C 	C 	0.43550 0.74360 0.98686 0.63800
C 	C 	0.46500 0.76820 0.97324 -0.58400
C 	C 	0.51650 0.81320 0.97353 0.54600
H 	H 	0.53340 0.82870 0.98210 -0.15100
C 	C 	0.54610 0.83840 0.96146 -0.58600
H 	H 	0.58360 0.86900 0.96180 0.25000
C 	C 	0.51810 0.81650 0.94865 0.59400
C 	C 	0.46750 0.77160 0.94930 -0.66500
H 	H 	0.44960 0.75490 0.94090 0.26700
C 	C 	0.43800 0.74630 0.96149 0.57500
H 	H 	0.40070 0.71520 0.96130 -0.13700
O 	O 	0.56760 0.86500 0.94104 -0.05200
O 	O 	0.54320 0.94900 0.93467 -0.04100
C 	C 	0.56980 0.85330 0.92590 0.53400
H 	H 	0.57390 0.82480 0.92050 -0.11400
H 	H 	0.52940 0.83980 0.92750 -0.13600
C 	C 	0.57530 0.95060 0.92162 -0.05200
H 	H 	0.53760 0.93930 0.91780 0.05400
H 	H 	0.60480 0.98320 0.91650 0.03000
C 	C 	0.57280 0.00920 0.94129 0.48800
C 	C 	0.63590 0.04570 0.94189 -0.36300
H 	H 	0.66170 0.04030 0.93650 0.15800
C 	C 	0.65210 0.09270 0.95241 0.23500
H 	H 	0.69050 0.11730 0.95460 -0.02800
C 	C 	0.61120 0.09870 0.95855 -0.32300
C 	C 	0.55350 0.05880 0.95460 0.36400
H 	H 	0.52510 0.06630 0.95770 -0.07900
C 	C 	0.53600 0.01050 0.94670 -0.64600
H 	H 	0.49780 0.98180 0.94580 0.27700
C 	C 	0.62150 0.14200 0.96931 0.46900
Co	Co	0.47172 0.71105 0.01339 1.18300
Co	Co	0.37957 0.57043 0.01097 1.16200
O 	O 	0.64614 0.97907 0.06659 -0.25000
O 	O 	0.55091 0.78768 0.01968 -0.36700
O 	O 	0.46862 0.77771 0.02658 -0.47500
O 	O 	0.45410 0.76075 0.99800 -0.65600
O 	O 	0.38690 0.70000 0.98581 -0.45500
O 	O 	0.38742 0.64985 0.01438 -0.58700
O 	O 	0.64970 0.10670 0.06658 -0.26100
O 	O 	0.68519 0.18527 0.00326 -0.44900
O 	O 	0.67480 0.17933 0.97131 -0.43700
O 	O 	0.59472 0.16570 0.00694 -0.45300
O 	O 	0.57944 0.14047 0.97490 -0.48300
O 	O 	0.55420 0.83690 0.93544 -0.48500
O 	O 	0.55180 0.96560 0.92937 -0.25400
C 	C 	0.51820 0.84530 0.92553 0.20800
H 	H 	0.48660 0.81190 0.92120 -0.03000
H 	H 	0.50270 0.86310 0.93160 -0.00500
C 	C 	0.59510 0.94880 0.92587 0.17400
H 	H 	0.63000 0.97300 0.92070 -0.03700
H 	H 	0.60640 0.94280 0.93510 -0.01600
C 	C 	0.18997 0.13633 0.36057 0.34300
C 	C 	0.21957 0.18233 0.37150 -0.20200
C 	C 	0.28017 0.21093 0.37168 0.14400
H 	H 	0.30027 0.20123 0.36533 -0.00000
C 	C 	0.30917 0.25443 0.38156 -0.26100
H 	H 	0.34917 0.27393 0.38193 0.13600
C 	C 	0.27857 0.26833 0.39085 0.28600
C 	C 	0.21967 0.23953 0.39052 -0.28500
H 	H 	0.19877 0.24793 0.39693 0.13600
C 	C 	0.19217 0.19743 0.38032 0.17500
H 	H 	0.15227 0.17913 0.37973 -0.01300
C 	C 	0.28617 0.32993 0.40981 0.03600
H 	H 	0.25817 0.33723 0.40523 0.03400
H 	H 	0.26657 0.30013 0.41683 0.03600
C 	C 	0.30877 0.50293 0.34412 0.42700
C 	C 	0.31087 0.48483 0.35873 -0.23800
C 	C 	0.26637 0.47073 0.36798 0.21000
H 	H 	0.23267 0.46923 0.36503 -0.02700
C 	C 	0.27307 0.45883 0.38191 -0.34800
H 	H 	0.24527 0.45423 0.38843 0.16300
C 	C 	0.31657 0.45393 0.38616 0.34300
C 	C 	0.36427 0.47033 0.37744 -0.31000
H 	H 	0.39707 0.47033 0.38053 0.14900
C 	C 	0.35967 0.48653 0.36387 0.19700
H 	H 	0.39127 0.49913 0.35793 -0.01600
C 	C 	0.36047 0.43033 0.40524 0.03300
H 	H 	0.37567 0.41693 0.39783 0.03400
H 	H 	0.39177 0.46563 0.40903 0.04500
C 	C 	0.10217 0.07693 0.32019 0.64100
C 	C 	0.13167 0.10153 0.30657 -0.58900
C 	C 	0.18317 0.14653 0.30686 0.54900
H 	H 	0.20007 0.16203 0.31543 -0.15300
C 	C 	0.21277 0.17173 0.29479 -0.58900
H 	H 	0.25027 0.20233 0.29513 0.25000
C 	C 	0.18477 0.14983 0.28198 0.59600
C 	C 	0.13417 0.10493 0.28263 -0.66900
H 	H 	0.11627 0.08823 0.27423 0.26600
C 	C 	0.10467 0.07963 0.29482 0.57900
H 	H 	0.06737 0.04853 0.29463 -0.14200
O 	O 	0.23427 0.19833 0.27437 -0.05300
O 	O 	0.20987 0.28233 0.26800 -0.04100
C 	C 	0.23647 0.18663 0.25923 0.53500
H 	H 	0.24057 0.15813 0.25383 -0.11400
H 	H 	0.19607 0.17313 0.26083 -0.13600
C 	C 	0.24197 0.28393 0.25495 -0.05100
H 	H 	0.20427 0.27263 0.25113 0.05300
H 	H 	0.27147 0.31653 0.24983 0.02800
C 	C 	0.23947 0.34253 0.27462 0.47200
C 	C 	0.30257 0.37903 0.27522 -0.35000
H 	H 	0.32837 0.37363 0.26983 0.15600
C 	C 	0.31877 0.42603 0.28574 0.22400
H 	H 	0.35717 0.45063 0.28793 -0.02400
C 	C 	0.27787 0.43203 0.29188 -0.30900
C 	C 	0.22017 0.39213 0.28793 0.34100
H 	H 	0.19177 0.39963 0.29103 -0.07000
C 	C 	0.20267 0.34383 0.28003 -0.60500
H 	H 	0.16447 0.31513 0.27913 0.25800
C 	C 	0.28817 0.47533 0.30264 0.46400
Co	Co	0.13839 0.04438 0.34673 1.18100
Co	Co	0.04624 0.90376 0.34430 1.16000
O 	O 	0.31281 0.31240 0.39992 -0.24700
O 	O 	0.21758 0.12101 0.35301 -0.36800
O 	O 	0.13529 0.11104 0.35991 -0.47700
O 	O 	0.12077 0.09408 0.33133 -0.65800
O 	O 	0.05357 0.03333 0.31914 -0.46200
O 	O 	0.05409 0.98318 0.34771 -0.58400
O 	O 	0.31637 0.44003 0.39991 -0.25900
O 	O 	0.35186 0.51860 0.33659 -0.44900
O 	O 	0.34147 0.51266 0.30464 -0.43600
O 	O 	0.26139 0.49903 0.34027 -0.45200
O 	O 	0.24611 0.47380 0.30823 -0.48100
O 	O 	0.22087 0.17023 0.26877 -0.48600
O 	O 	0.21847 0.29893 0.26270 -0.25500
C 	C 	0.18487 0.17863 0.25886 0.20800
H 	H 	0.15327 0.14523 0.25453 -0.03100
H 	H 	0.16937 0.19643 0.26493 -0.00500
C 	C 	0.26177 0.28213 0.25920 0.17500
H 	H 	0.29667 0.30633 0.25403 -0.03900
H 	H 	0.27307 0.27613 0.26843 -0.01800
C 	C 	0.85663 0.46967 0.69391 0.33900
C 	C 	0.88623 0.51567 0.70484 -0.19100
C 	C 	0.94683 0.54427 0.70502 0.12700
H 	H 	0.96693 0.53457 0.69867 0.00800
C 	C 	0.97583 0.58777 0.71490 -0.23200
H 	H 	0.01583 0.60727 0.71527 0.12000
C 	C 	0.94523 0.60167 0.72419 0.27300
C 	C 	0.88633 0.57287 0.72386 -0.27300
H 	H 	0.86543 0.58127 0.73027 0.13300
C 	C 	0.85883 0.53077 0.71366 0.16400
H 	H 	0.81893 0.51247 0.71307 -0.00700
C 	C 	0.95283 0.66327 0.74315 0.05100
H 	H 	0.92483 0.67057 0.73857 0.03000
H 	H 	0.93323 0.63347 0.75017 0.03400
C 	C 	0.97543 0.83627 0.67746 0.43500
C 	C 	0.97753 0.81817 0.69207 -0.23200
C 	C 	0.93303 0.80407 0.70132 0.21200
H 	H 	0.89933 0.80257 0.69837 -0.02700
C 	C 	0.93973 0.79217 0.71525 -0.35200
H 	H 	0.91193 0.78757 0.72177 0.16500
C 	C 	0.98323 0.78727 0.71950 0.35300
C 	C 	0.03093 0.80367 0.71078 -0.32000
H 	H 	0.06373 0.80367 0.71387 0.15200
C 	C 	0.02633 0.81987 0.69721 0.19100
H 	H 	0.05793 0.83247 0.69127 -0.01500
C 	C 	0.02713 0.76367 0.73858 0.03400
H 	H 	0.04233 0.75027 0.73117 0.03100
H 	H 	0.05843 0.79897 0.74237 0.04400
C 	C 	0.76883 0.41027 0.65353 0.63800
C 	C 	0.79833 0.43487 0.63991 -0.58400
C 	C 	0.84983 0.47987 0.64020 0.54500
H 	H 	0.86673 0.49537 0.64877 -0.15100
C 	C 	0.87943 0.50507 0.62813 -0.58600
H 	H 	0.91693 0.53567 0.62847 0.25000
C 	C 	0.85143 0.48317 0.61532 0.59400
C 	C 	0.80083 0.43827 0.61597 -0.66500
H 	H 	0.78293 0.42157 0.60757 0.26700
C 	C 	0.77133 0.41297 0.62816 0.57500
H 	H 	0.73403 0.38187 0.62797 -0.13700
O 	O 	0.90093 0.53167 0.60771 -0.05300
O 	O 	0.87653 0.61567 0.60134 -0.04200
C 	C 	0.90313 0.51997 0.59257 0.53300
H 	H 	0.90723 0.49147 0.58717 -0.11300
H 	H 	0.86273 0.50647 0.59417 -0.13600
C 	C 	0.90863 0.61727 0.58829 -0.05200
H 	H 	0.87093 0.60597 0.58447 0.05400
H 	H 	0.93813 0.64987 0.58317 0.02900
C 	C 	0.90613 0.67587 0.60796 0.48700
C 	C 	0.96923 0.71237 0.60856 -0.36600
H 	H 	0.99503 0.70697 0.60317 0.16400
C 	C 	0.98543 0.75937 0.61908 0.25400
H 	H 	0.02383 0.78397 0.62127 -0.03900
C 	C 	0.94453 0.76537 0.62522 -0.32700
C 	C 	0.88683 0.72547 0.62127 0.35900
H 	H 	0.85843 0.73297 0.62437 -0.07500
C 	C 	0.86933 0.67717 0.61337 -0.62500
H 	H 	0.83113 0.64847 0.61247 0.26500
C 	C 	0.95483 0.80867 0.63598 0.48000
Co	Co	0.80505 0.37772 0.68006 1.18300
Co	Co	0.71290 0.23710 0.67764 1.16200
O 	O 	0.97947 0.64574 0.73326 -0.24200
O 	O 	0.88424 0.45435 0.68635 -0.36600
O 	O 	0.80195 0.44438 0.69325 -0.47400
O 	O 	0.78743 0.42742 0.66467 -0.65600
O 	O 	0.72023 0.36667 0.65248 -0.45500
O 	O 	0.72075 0.31652 0.68105 -0.58700
O 	O 	0.98303 0.77337 0.73325 -0.25700
O 	O 	0.01852 0.85194 0.66993 -0.45600
O 	O 	0.00813 0.84600 0.63798 -0.44500
O 	O 	0.92805 0.83237 0.67361 -0.45300
O 	O 	0.91277 0.80714 0.64157 -0.48400
O 	O 	0.88753 0.50357 0.60211 -0.48400
O 	O 	0.88513 0.63227 0.59604 -0.25700
C 	C 	0.85153 0.51197 0.59220 0.20800
H 	H 	0.81993 0.47857 0.58787 -0.03000
H 	H 	0.83603 0.52977 0.59827 -0.00500
C 	C 	0.92843 0.61547 0.59254 0.17500
H 	H 	0.96333 0.63967 0.58737 -0.03900
H 	H 	0.93973 0.60947 0.60177 -0.01700
C 	C 	0.27970 0.47670 0.02724 0.34300
C 	C 	0.29610 0.44710 0.03817 -0.20100
C 	C 	0.26410 0.38650 0.03835 0.14300
H 	H 	0.23430 0.36640 0.03200 -0.00100
C 	C 	0.27860 0.35750 0.04823 -0.26000
H 	H 	0.25810 0.31750 0.04860 0.13500
C 	C 	0.32310 0.38810 0.05752 0.28500
C 	C 	0.35320 0.44700 0.05719 -0.28400
H 	H 	0.38250 0.46790 0.06360 0.13700
C 	C 	0.33860 0.47450 0.04699 0.17500
H 	H 	0.36020 0.51440 0.04640 -0.01100
C 	C 	0.37710 0.38050 0.07648 0.03600
H 	H 	0.41240 0.40850 0.07190 0.03400
H 	H 	0.36690 0.40010 0.08350 0.03700
C 	C 	0.52750 0.35790 0.01079 0.42700
C 	C 	0.50730 0.35580 0.02540 -0.23800
C 	C 	0.53770 0.40030 0.03465 0.21000
H 	H 	0.56990 0.43400 0.03170 -0.02700
C 	C 	0.51910 0.39360 0.04858 -0.34800
H 	H 	0.54230 0.42140 0.05510 0.16300
C 	C 	0.47070 0.35010 0.05283 0.34200
C 	C 	0.43940 0.30240 0.04411 -0.31000
H 	H 	0.40660 0.26960 0.04720 0.14900
C 	C 	0.46020 0.30700 0.03054 0.19700
H 	H 	0.44120 0.27540 0.02460 -0.01700
C 	C 	0.40320 0.30620 0.07191 0.03300
H 	H 	0.37460 0.29100 0.06450 0.03300
H 	H 	0.40720 0.27490 0.07570 0.04500
C 	C 	0.30810 0.56450 0.98686 0.63800
C 	C 	0.30320 0.53500 0.97324 -0.58400
C 	C 	0.29670 0.48350 0.97353 0.54500
H 	H 	0.29530 0.46660 0.98210 -0.15200
C 	C 	0.29230 0.45390 0.96146 -0.58500
H 	H 	0.28540 0.41640 0.96180 0.24900
C 	C 	0.29840 0.48190 0.94865 0.59300
C 	C 	0.30410 0.53250 0.94930 -0.66500
H 	H 	0.30530 0.55040 0.94090 0.26700
C 	C 	0.30830 0.56200 0.96149 0.57500
H 	H 	0.31450 0.59930 0.96130 -0.13700
O 	O 	0.29740 0.43240 0.94104 -0.05400
O 	O 	0.40580 0.45680 0.93467 -0.04100
C 	C 	0.28350 0.43020 0.92590 0.53300
H 	H 	0.25090 0.42610 0.92050 -0.11300
H 	H 	0.31040 0.47060 0.92750 -0.13600
C 	C 	0.37530 0.42470 0.92162 -0.05100
H 	H 	0.40170 0.46240 0.91780 0.05300
H 	H 	0.37840 0.39520 0.91650 0.02800
C 	C 	0.43640 0.42720 0.94129 0.47200
C 	C 	0.40980 0.36410 0.94189 -0.35000
H 	H 	0.37860 0.33830 0.93650 0.15500
C 	C 	0.44060 0.34790 0.95241 0.22400
H 	H 	0.42680 0.30950 0.95460 -0.02500
C 	C 	0.48750 0.38880 0.95855 -0.30900
C 	C 	0.50530 0.44650 0.95460 0.34100
H 	H 	0.54120 0.47490 0.95770 -0.06900
C 	C 	0.47450 0.46400 0.94670 -0.60500
H 	H 	0.48400 0.50220 0.94580 0.25800
C 	C 	0.52050 0.37850 0.96931 0.46400
Co	Co	0.23933 0.52828 0.01339 1.18300
Co	Co	0.19086 0.62043 0.01097 1.16200
O 	O 	0.33293 0.35386 0.06659 -0.24700
O 	O 	0.23677 0.44909 0.01968 -0.36800
O 	O 	0.30909 0.53138 0.02658 -0.47500
O 	O 	0.30665 0.54590 0.99800 -0.65700
O 	O 	0.31310 0.61310 0.98581 -0.45500
O 	O 	0.26243 0.61258 0.01438 -0.58700
O 	O 	0.45700 0.35030 0.06658 -0.26000
O 	O 	0.50008 0.31481 0.00326 -0.44900
O 	O 	0.50453 0.32520 0.97131 -0.43600
O 	O 	0.57098 0.40528 0.00694 -0.45200
O 	O 	0.56103 0.42056 0.97490 -0.48100
O 	O 	0.28270 0.44580 0.93544 -0.48400
O 	O 	0.41380 0.44820 0.92937 -0.25500
C 	C 	0.32710 0.48180 0.92553 0.20800
H 	H 	0.32530 0.51340 0.92120 -0.03000
H 	H 	0.36040 0.49730 0.93160 -0.00500
C 	C 	0.35370 0.40490 0.92587 0.17500
H 	H 	0.34300 0.37000 0.92070 -0.03900
H 	H 	0.33640 0.39360 0.93510 -0.01800
C 	C 	0.94637 0.81003 0.36057 0.33900
C 	C 	0.96277 0.78043 0.37150 -0.18700
C 	C 	0.93077 0.71983 0.37168 0.14000
H 	H 	0.90097 0.69973 0.36533 0.00200
C 	C 	0.94527 0.69083 0.38156 -0.25900
H 	H 	0.92477 0.65083 0.38193 0.13700
C 	C 	0.98977 0.72143 0.39085 0.29300
C 	C 	0.01987 0.78033 0.39052 -0.29000
H 	H 	0.04917 0.80123 0.39693 0.13700
C 	C 	0.00527 0.80783 0.38032 0.16100
H 	H 	0.02687 0.84773 0.37973 -0.00800
C 	C 	0.04377 0.71383 0.40981 0.03400
H 	H 	0.07907 0.74183 0.40523 0.03300
H 	H 	0.03357 0.73343 0.41683 0.03500
C 	C 	0.19417 0.69123 0.34412 0.42700
C 	C 	0.17397 0.68913 0.35873 -0.23800
C 	C 	0.20437 0.73363 0.36798 0.21000
H 	H 	0.23657 0.76733 0.36503 -0.02700
C 	C 	0.18577 0.72693 0.38191 -0.34900
H 	H 	0.20897 0.75473 0.38843 0.16300
C 	C 	0.13737 0.68343 0.38616 0.34300
C 	C 	0.10607 0.63573 0.37744 -0.31100
H 	H 	0.07327 0.60293 0.38053 0.14900
C 	C 	0.12687 0.64033 0.36387 0.19700
H 	H 	0.10787 0.60873 0.35793 -0.01700
C 	C 	0.06987 0.63953 0.40524 0.04200
H 	H 	0.04127 0.62433 0.39783 0.02900
H 	H 	0.07387 0.60823 0.40903 0.04200
C 	C 	0.97477 0.89783 0.32019 0.63700
C 	C 	0.96987 0.86833 0.30657 -0.58300
C 	C 	0.96337 0.81683 0.30686 0.54700
H 	H 	0.96197 0.79993 0.31543 -0.15100
C 	C 	0.95897 0.78723 0.29479 -0.58800
H 	H 	0.95207 0.74973 0.29513 0.25100
C 	C 	0.96507 0.81523 0.28198 0.59800
C 	C 	0.97077 0.86583 0.28263 -0.66600
H 	H 	0.97197 0.88373 0.27423 0.27000
C 	C 	0.97497 0.89533 0.29482 0.57600
H 	H 	0.98117 0.93263 0.29463 -0.13400
O 	O 	0.96407 0.76573 0.27437 -0.04400
O 	O 	0.07247 0.79013 0.26800 -0.04300
C 	C 	0.95017 0.76353 0.25923 0.55000
H 	H 	0.91757 0.75943 0.25383 -0.11800
H 	H 	0.97707 0.80393 0.26083 -0.12700
C 	C 	0.04197 0.75803 0.25495 -0.04800
H 	H 	0.06837 0.79573 0.25113 0.05200
H 	H 	0.04507 0.72853 0.24983 0.02600
C 	C 	0.10307 0.76053 0.27462 0.47100
C 	C 	0.07647 0.69743 0.27522 -0.35000
H 	H 	0.04527 0.67163 0.26983 0.15500
C 	C 	0.10727 0.68123 0.28574 0.22400
H 	H 	0.09347 0.64283 0.28793 -0.02500
C 	C 	0.15417 0.72213 0.29188 -0.30900
C 	C 	0.17197 0.77983 0.28793 0.34100
H 	H 	0.20787 0.80823 0.29103 -0.06900
C 	C 	0.14117 0.79733 0.28003 -0.60500
H 	H 	0.15067 0.83553 0.27913 0.25800
C 	C 	0.18717 0.71183 0.30264 0.46400
Co	Co	0.90600 0.86161 0.34673 1.18300
Co	Co	0.85753 0.95376 0.34430 1.16500
O 	O 	0.99960 0.68719 0.39992 -0.24200
O 	O 	0.90344 0.78242 0.35301 -0.36600
O 	O 	0.97576 0.86471 0.35991 -0.46900
O 	O 	0.97332 0.87923 0.33133 -0.65300
O 	O 	0.97977 0.94643 0.31914 -0.44700
O 	O 	0.92910 0.94591 0.34771 -0.58200
O 	O 	0.12367 0.68363 0.39991 -0.26100
O 	O 	0.16675 0.64814 0.33659 -0.44900
O 	O 	0.17120 0.65853 0.30464 -0.43600
O 	O 	0.23765 0.73861 0.34027 -0.45200
O 	O 	0.22770 0.75389 0.30823 -0.48100
O 	O 	0.94937 0.77913 0.26877 -0.49900
O 	O 	0.08047 0.78153 0.26270 -0.25400
C 	C 	0.99377 0.81513 0.25886 0.19700
H 	H 	0.99197 0.84673 0.25453 -0.02100
H 	H 	0.02707 0.83063 0.26493 -0.00700
C 	C 	0.02037 0.73823 0.25920 0.17600
H 	H 	0.00967 0.70333 0.25403 -0.04400
H 	H 	0.00307 0.72693 0.26843 -0.02200
C 	C 	0.61303 0.14337 0.69391 0.34700
C 	C 	0.62943 0.11377 0.70484 -0.21300
C 	C 	0.59743 0.05317 0.70502 0.16200
H 	H 	0.56763 0.03307 0.69867 -0.00800
C 	C 	0.61193 0.02417 0.71490 -0.29100
H 	H 	0.59143 0.98417 0.71527 0.15300
C 	C 	0.65643 0.05477 0.72419 0.30100
C 	C 	0.68653 0.11367 0.72386 -0.29800
H 	H 	0.71583 0.13457 0.73027 0.14200
C 	C 	0.67193 0.14117 0.71366 0.18800
H 	H 	0.69353 0.18107 0.71307 -0.01600
C 	C 	0.71043 0.04717 0.74315 0.04800
H 	H 	0.74573 0.07517 0.73857 0.03000
H 	H 	0.70023 0.06677 0.75017 0.03200
C 	C 	0.86083 0.02457 0.67746 0.41800
C 	C 	0.84063 0.02247 0.69207 -0.24300
C 	C 	0.87103 0.06697 0.70132 0.20900
H 	H 	0.90323 0.10067 0.69837 -0.02500
C 	C 	0.85243 0.06027 0.71525 -0.34500
H 	H 	0.87563 0.08807 0.72177 0.16200
C 	C 	0.80403 0.01677 0.71950 0.33400
C 	C 	0.77273 0.96907 0.71078 -0.30100
H 	H 	0.73993 0.93627 0.71387 0.14800
C 	C 	0.79353 0.97367 0.69721 0.20400
H 	H 	0.77453 0.94207 0.69127 -0.01800
C 	C 	0.73653 0.97287 0.73858 0.05800
H 	H 	0.70793 0.95767 0.73117 0.02900
H 	H 	0.74053 0.94157 0.74237 0.03900
C 	C 	0.64143 0.23117 0.65353 0.63800
C 	C 	0.63653 0.20167 0.63991 -0.58400
C 	C 	0.63003 0.15017 0.64020 0.54400
H 	H 	0.62863 0.13327 0.64877 -0.15200
C 	C 	0.62563 0.12057 0.62813 -0.58500
H 	H 	0.61873 0.08307 0.62847 0.24800
C 	C 	0.63173 0.14857 0.61532 0.59300
C 	C 	0.63743 0.19917 0.61597 -0.66400
H 	H 	0.63863 0.21707 0.60757 0.26600
C 	C 	0.64163 0.22867 0.62816 0.57400
H 	H 	0.64783 0.26597 0.62797 -0.13700
O 	O 	0.63073 0.09907 0.60771 -0.05400
O 	O 	0.73913 0.12347 0.60134 -0.04100
C 	C 	0.61683 0.09687 0.59257 0.53200
H 	H 	0.58423 0.09277 0.58717 -0.11300
H 	H 	0.64373 0.13727 0.59417 -0.13600
C 	C 	0.70863 0.09137 0.58829 -0.05100
H 	H 	0.73503 0.12907 0.58447 0.05300
H 	H 	0.71173 0.06187 0.58317 0.02800
C 	C 	0.76973 0.09387 0.60796 0.45500
C 	C 	0.74313 0.03077 0.60856 -0.33100
H 	H 	0.71193 0.00497 0.60317 0.14700
C 	C 	0.77393 0.01457 0.61908 0.19200
H 	H 	0.76013 0.97617 0.62127 -0.00700
C 	C 	0.82083 0.05547 0.62522 -0.28900
C 	C 	0.83863 0.11317 0.62127 0.32200
H 	H 	0.87453 0.14157 0.62437 -0.06200
C 	C 	0.80783 0.13067 0.61337 -0.58200
H 	H 	0.81733 0.16887 0.61247 0.25000
C 	C 	0.85383 0.04517 0.63598 0.44700
Co	Co	0.57266 0.19495 0.68006 1.18300
Co	Co	0.52419 0.28710 0.67764 1.16200
O 	O 	0.66626 0.02053 0.73326 -0.25600
O 	O 	0.57010 0.11576 0.68635 -0.37000
O 	O 	0.64242 0.19805 0.69325 -0.47600
O 	O 	0.63998 0.21257 0.66467 -0.65700
O 	O 	0.64643 0.27977 0.65248 -0.45500
O 	O 	0.59576 0.27925 0.68105 -0.58700
O 	O 	0.79033 0.01697 0.73325 -0.26600
O 	O 	0.83341 0.98148 0.66993 -0.44000
O 	O 	0.83786 0.99187 0.63798 -0.42500
O 	O 	0.90431 0.07195 0.67361 -0.44900
O 	O 	0.89436 0.08723 0.64157 -0.47600
O 	O 	0.61603 0.11247 0.60211 -0.48400
O 	O 	0.74713 0.11487 0.59604 -0.25200
C 	C 	0.66043 0.14847 0.59220 0.20800
H 	H 	0.65863 0.18007 0.58787 -0.03000
H 	H 	0.69373 0.16397 0.59827 -0.00500
C 	C 	0.68703 0.07157 0.59254 0.17400
H 	H 	0.67633 0.03667 0.58737 -0.03800
H 	H 	0.66973 0.06027 0.60177 -0.01800
C 	C 	0.19700 0.72030 0.02724 0.34200
C 	C 	0.15100 0.70390 0.03817 -0.19900
C 	C 	0.12240 0.73590 0.03835 0.14100
H 	H 	0.13210 0.76570 0.03200 0.00100
C 	C 	0.07890 0.72140 0.04823 -0.25700
H 	H 	0.05940 0.74190 0.04860 0.13400
C 	C 	0.06500 0.67690 0.05752 0.28000
C 	C 	0.09380 0.64680 0.05719 -0.28100
H 	H 	0.08540 0.61750 0.06360 0.13400
C 	C 	0.13590 0.66140 0.04699 0.17200
H 	H 	0.15420 0.63980 0.04640 -0.01000
C 	C 	0.00340 0.62290 0.07648 0.00300
H 	H 	0.99610 0.58760 0.07190 0.04900
H 	H 	0.03320 0.63310 0.08350 0.04400
C 	C 	0.83040 0.47250 0.01079 0.42600
C 	C 	0.84850 0.49270 0.02540 -0.23600
C 	C 	0.86260 0.46230 0.03465 0.21000
H 	H 	0.86410 0.43010 0.03170 -0.02600
C 	C 	0.87450 0.48090 0.04858 -0.34700
H 	H 	0.87910 0.45770 0.05510 0.16200
C 	C 	0.87940 0.52930 0.05283 0.34200
C 	C 	0.86300 0.56060 0.04411 -0.30800
H 	H 	0.86300 0.59340 0.04720 0.15000
C 	C 	0.84680 0.53980 0.03054 0.19700
H 	H 	0.83420 0.55880 0.02460 -0.01600
C 	C 	0.90300 0.59680 0.07191 0.02400
H 	H 	0.91640 0.62540 0.06450 0.03800
H 	H 	0.86770 0.59280 0.07570 0.04700
C 	C 	0.25640 0.69190 0.98686 0.63800
C 	C 	0.23180 0.69680 0.97324 -0.58400
C 	C 	0.18680 0.70330 0.97353 0.54500
H 	H 	0.17130 0.70470 0.98210 -0.15200
C 	C 	0.16160 0.70770 0.96146 -0.58600
H 	H 	0.13100 0.71460 0.96180 0.24800
C 	C 	0.18350 0.70160 0.94865 0.59300
C 	C 	0.22840 0.69590 0.94930 -0.66500
H 	H 	0.24510 0.69470 0.94090 0.26700
C 	C 	0.25370 0.69170 0.96149 0.57400
H 	H 	0.28480 0.68550 0.96130 -0.13700
O 	O 	0.13500 0.70260 0.94104 -0.05400
O 	O 	0.05100 0.59420 0.93467 -0.04100
C 	C 	0.14670 0.71650 0.92590 0.53300
H 	H 	0.17520 0.74910 0.92050 -0.11300
H 	H 	0.16020 0.68960 0.92750 -0.13600
C 	C 	0.04940 0.62470 0.92162 -0.05100
H 	H 	0.06070 0.59830 0.91780 0.05300
H 	H 	0.01680 0.62160 0.91650 0.02700
C 	C 	0.99080 0.56360 0.94129 0.45500
C 	C 	0.95430 0.59020 0.94189 -0.33500
H 	H 	0.95970 0.62140 0.93650 0.15400
C 	C 	0.90730 0.55940 0.95241 0.21300
H 	H 	0.88270 0.57320 0.95460 -0.02000
C 	C 	0.90130 0.51250 0.95855 -0.29500
C 	C 	0.94120 0.49470 0.95460 0.31700
H 	H 	0.93370 0.45880 0.95770 -0.06000
C 	C 	0.98950 0.52550 0.94670 -0.56200
H 	H 	0.01820 0.51600 0.94580 0.23800
C 	C 	0.85800 0.47950 0.96931 0.45900
Co	Co	0.28895 0.76067 0.01339 1.18300
Co	Co	0.42957 0.80914 0.01097 1.16200
O 	O 	0.02093 0.66707 0.06659 -0.24200
O 	O 	0.21232 0.76323 0.01968 -0.36700
O 	O 	0.22229 0.69091 0.02658 -0.47500
O 	O 	0.23925 0.69335 0.99800 -0.65700
O 	O 	0.30000 0.68690 0.98581 -0.45500
O 	O 	0.35015 0.73757 0.01438 -0.58700
O 	O 	0.89330 0.54300 0.06658 -0.25800
O 	O 	0.81473 0.49992 0.00326 -0.44800
O 	O 	0.82067 0.49547 0.97131 -0.43400
O 	O 	0.83430 0.42902 0.00694 -0.45200
O 	O 	0.85953 0.43897 0.97490 -0.47900
O 	O 	0.16310 0.71730 0.93544 -0.48400
O 	O 	0.03440 0.58620 0.92937 -0.25600
C 	C 	0.15470 0.67290 0.92553 0.20800
H 	H 	0.18810 0.67470 0.92120 -0.03000
H 	H 	0.13690 0.63960 0.93160 -0.00500
C 	C 	0.05120 0.64630 0.92587 0.17500
H 	H 	0.02700 0.65700 0.92070 -0.04000
H 	H 	0.05720 0.66360 0.93510 -0.01900
C 	C 	0.86367 0.05363 0.36057 0.34600
C 	C 	0.81767 0.03723 0.37150 -0.21200
C 	C 	0.78907 0.06923 0.37168 0.14600
H 	H 	0.79877 0.09903 0.36533 -0.00100
C 	C 	0.74557 0.05473 0.38156 -0.26000
H 	H 	0.72607 0.07523 0.38193 0.13500
C 	C 	0.73167 0.01023 0.39085 0.27800
C 	C 	0.76047 0.98013 0.39052 -0.27800
H 	H 	0.75207 0.95083 0.39693 0.13600
C 	C 	0.80257 0.99473 0.38032 0.18700
H 	H 	0.82087 0.97313 0.37973 -0.01300
C 	C 	0.67007 0.95623 0.40981 0.03600
H 	H 	0.66277 0.92093 0.40523 0.03500
H 	H 	0.69987 0.96643 0.41683 0.03900
C 	C 	0.49707 0.80583 0.34412 0.42600
C 	C 	0.51517 0.82603 0.35873 -0.23700
C 	C 	0.52927 0.79563 0.36798 0.21000
H 	H 	0.53077 0.76343 0.36503 -0.02600
C 	C 	0.54117 0.81423 0.38191 -0.34700
H 	H 	0.54577 0.79103 0.38843 0.16200
C 	C 	0.54607 0.86263 0.38616 0.34200
C 	C 	0.52967 0.89393 0.37744 -0.30900
H 	H 	0.52967 0.92673 0.38053 0.15000
C 	C 	0.51347 0.87313 0.36387 0.19700
H 	H 	0.50087 0.89213 0.35793 -0.01600
C 	C 	0.56967 0.93013 0.40524 0.02400
H 	H 	0.58307 0.95873 0.39783 0.03800
H 	H 	0.53437 0.92613 0.40903 0.04800
C 	C 	0.92307 0.02523 0.32019 0.63600
C 	C 	0.89847 0.03013 0.30657 -0.58400
C 	C 	0.85347 0.03663 0.30686 0.54300
H 	H 	0.83797 0.03803 0.31543 -0.15200
C 	C 	0.82827 0.04103 0.29479 -0.58600
H 	H 	0.79767 0.04793 0.29513 0.24800
C 	C 	0.85017 0.03493 0.28198 0.59200
C 	C 	0.89507 0.02923 0.28263 -0.66500
H 	H 	0.91177 0.02803 0.27423 0.26600
C 	C 	0.92037 0.02503 0.29482 0.57400
H 	H 	0.95147 0.01883 0.29463 -0.13600
O 	O 	0.80167 0.03593 0.27437 -0.05800
O 	O 	0.71767 0.92753 0.26800 -0.03700
C 	C 	0.81337 0.04983 0.25923 0.53800
H 	H 	0.84187 0.08243 0.25383 -0.11400
H 	H 	0.82687 0.02293 0.26083 -0.14000
C 	C 	0.71607 0.95803 0.25495 -0.05200
H 	H 	0.72737 0.93163 0.25113 0.05300
H 	H 	0.68347 0.95493 0.24983 0.02900
C 	C 	0.65747 0.89693 0.27462 0.47300
C 	C 	0.62097 0.92353 0.27522 -0.34900
H 	H 	0.62637 0.95473 0.26983 0.15700
C 	C 	0.57397 0.89273 0.28574 0.22500
H 	H 	0.54937 0.90653 0.28793 -0.02400
C 	C 	0.56797 0.84583 0.29188 -0.30900
C 	C 	0.60787 0.82803 0.28793 0.34200
H 	H 	0.60037 0.79213 0.29103 -0.07000
C 	C 	0.65617 0.85883 0.28003 -0.60500
H 	H 	0.68487 0.84933 0.27913 0.25800
C 	C 	0.52467 0.81283 0.30264 0.46500
Co	Co	0.95562 0.09400 0.34673 1.18400
Co	Co	0.09624 0.14247 0.34430 1.16100
O 	O 	0.68760 0.00040 0.39992 -0.25000
O 	O 	0.87899 0.09656 0.35301 -0.36900
O 	O 	0.88896 0.02424 0.35991 -0.47800
O 	O 	0.90592 0.02668 0.33133 -0.65800
O 	O 	0.96667 0.02023 0.31914 -0.45200
O 	O 	0.01682 0.07090 0.34771 -0.59400
O 	O 	0.55997 0.87633 0.39991 -0.25800
O 	O 	0.48140 0.83325 0.33659 -0.44800
O 	O 	0.48734 0.82880 0.30464 -0.43500
O 	O 	0.50097 0.76235 0.34027 -0.45200
O 	O 	0.52620 0.77230 0.30823 -0.48100
O 	O 	0.82977 0.05063 0.26877 -0.48300
O 	O 	0.70107 0.91953 0.26270 -0.25900
C 	C 	0.82137 0.00623 0.25886 0.21000
H 	H 	0.85477 0.00803 0.25453 -0.03600
H 	H 	0.80357 0.97293 0.26493 -0.00100
C 	C 	0.71787 0.97963 0.25920 0.18200
H 	H 	0.69367 0.99033 0.25403 -0.03500
H 	H 	0.72387 0.99693 0.26843 -0.01700
C 	C 	0.53033 0.38697 0.69391 0.34300
C 	C 	0.48433 0.37057 0.70484 -0.20100
C 	C 	0.45573 0.40257 0.70502 0.14300
H 	H 	0.46543 0.43237 0.69867 0.00000
C 	C 	0.41223 0.38807 0.71490 -0.26000
H 	H 	0.39273 0.40857 0.71527 0.13600
C 	C 	0.39833 0.34357 0.72419 0.28500
C 	C 	0.42713 0.31347 0.72386 -0.28400
H 	H 	0.41873 0.28417 0.73027 0.13700
C 	C 	0.46923 0.32807 0.71366 0.17500
H 	H 	0.48753 0.30647 0.71307 -0.01100
C 	C 	0.33673 0.28957 0.74315 0.03600
H 	H 	0.32943 0.25427 0.73857 0.03400
H 	H 	0.36653 0.29977 0.75017 0.03700
C 	C 	0.16373 0.13917 0.67746 0.42700
C 	C 	0.18183 0.15937 0.69207 -0.23900
C 	C 	0.19593 0.12897 0.70132 0.21100
H 	H 	0.19743 0.09677 0.69837 -0.02900
C 	C 	0.20783 0.14757 0.71525 -0.35000
H 	H 	0.21243 0.12437 0.72177 0.16200
C 	C 	0.21273 0.19597 0.71950 0.34300
C 	C 	0.19633 0.22727 0.71078 -0.31100
H 	H 	0.19633 0.26007 0.71387 0.15000
C 	C 	0.18013 0.20647 0.69721 0.19800
H 	H 	0.16753 0.22547 0.69127 -0.01700
C 	C 	0.23633 0.26347 0.73858 0.03300
H 	H 	0.24973 0.29207 0.73117 0.03300
H 	H 	0.20103 0.25947 0.74237 0.04500
C 	C 	0.58973 0.35857 0.65353 0.63800
C 	C 	0.56513 0.36347 0.63991 -0.58400
C 	C 	0.52013 0.36997 0.64020 0.54500
H 	H 	0.50463 0.37137 0.64877 -0.15100
C 	C 	0.49493 0.37437 0.62813 -0.58500
H 	H 	0.46433 0.38127 0.62847 0.24900
C 	C 	0.51683 0.36827 0.61532 0.59300
C 	C 	0.56173 0.36257 0.61597 -0.66500
H 	H 	0.57843 0.36137 0.60757 0.26700
C 	C 	0.58703 0.35837 0.62816 0.57500
H 	H 	0.61813 0.35217 0.62797 -0.13700
O 	O 	0.46833 0.36927 0.60771 -0.05300
O 	O 	0.38433 0.26087 0.60134 -0.04100
C 	C 	0.48003 0.38317 0.59257 0.53300
H 	H 	0.50853 0.41577 0.58717 -0.11300
H 	H 	0.49353 0.35627 0.59417 -0.13600
C 	C 	0.38273 0.29137 0.58829 -0.05200
H 	H 	0.39403 0.26497 0.58447 0.05300
H 	H 	0.35013 0.28827 0.58317 0.02800
C 	C 	0.32413 0.23027 0.60796 0.47200
C 	C 	0.28763 0.25687 0.60856 -0.35000
H 	H 	0.29303 0.28807 0.60317 0.15600
C 	C 	0.24063 0.22607 0.61908 0.22500
H 	H 	0.21603 0.23987 0.62127 -0.02500
C 	C 	0.23463 0.17917 0.62522 -0.31000
C 	C 	0.27453 0.16137 0.62127 0.34100
H 	H 	0.26703 0.12547 0.62437 -0.07000
C 	C 	0.32283 0.19217 0.61337 -0.60500
H 	H 	0.35153 0.18267 0.61247 0.25800
C 	C 	0.19133 0.14617 0.63598 0.46400
Co	Co	0.62228 0.42734 0.68006 1.18300
Co	Co	0.76290 0.47581 0.67764 1.16200
O 	O 	0.35426 0.33374 0.73326 -0.24600
O 	O 	0.54565 0.42990 0.68635 -0.36800
O 	O 	0.55562 0.35758 0.69325 -0.47500
O 	O 	0.57258 0.36002 0.66467 -0.65700
O 	O 	0.63333 0.35357 0.65248 -0.45500
O 	O 	0.68348 0.40424 0.68105 -0.58700
O 	O 	0.22663 0.20967 0.73325 -0.26000
O 	O 	0.14806 0.16659 0.66993 -0.44900
O 	O 	0.15400 0.16214 0.63798 -0.43700
O 	O 	0.16763 0.09569 0.67361 -0.45500
O 	O 	0.19286 0.10564 0.64157 -0.48300
O 	O 	0.49643 0.38397 0.60211 -0.48400
O 	O 	0.36773 0.25287 0.59604 -0.25600
C 	C 	0.48803 0.33957 0.59220 0.20800
H 	H 	0.52143 0.34137 0.58787 -0.03000
H 	H 	0.47023 0.30627 0.59827 -0.00500
C 	C 	0.38453 0.31297 0.59254 0.17500
H 	H 	0.36033 0.32367 0.58737 -0.03900
H 	H 	0.39053 0.33027 0.60177 -0.01800
C 	C 	0.94842 0.33333 0.58333 0.01300
C 	C 	0.66667 0.61508 0.58333 -0.00200
C 	C 	0.38492 0.05158 0.58333 -0.02000
C 	C 	0.33333 0.94842 0.91667 0.01300
C 	C 	-0.00000 0.28175 0.25000 -0.02500
C 	C 	0.61508 0.66667 0.91667 -0.00200
C 	C 	0.28175 0.00000 0.25000 -0.02500
C 	C 	0.05158 0.38492 0.91667 -0.02000
C 	C 	0.71825 0.71825 0.25000 -0.00200
C 	C 	0.05158 0.66667 0.41667 -0.01800
C 	C 	0.71825 0.00000 0.75000 -0.02300
C 	C 	0.33333 0.38492 0.41667 -0.00300
C 	C 	-0.00000 0.71825 0.75000 -0.02300
C 	C 	0.61508 0.94842 0.41667 0.01300
C 	C 	0.28175 0.28175 0.75000 -0.00300
C 	C 	0.66667 0.05158 0.08333 -0.01800
C 	C 	0.38492 0.33333 0.08333 -0.00300
C 	C 	0.94842 0.61508 0.08333 0.01300
C 	C 	0.10878 0.44212 0.41667 -0.16000
C 	C 	0.10453 0.43787 0.41667 -0.19900
C 	C 	0.77545 0.77545 0.75000 -0.15900
C 	C 	0.77120 0.77120 0.75000 -0.19900
C 	C 	0.55788 0.66667 0.41667 -0.15900
C 	C 	0.56213 0.66667 0.41667 -0.19900
C 	C 	0.22455 0.00000 0.75000 -0.16700
C 	C 	0.22880 0.00000 0.75000 -0.20600
C 	C 	0.33333 0.89122 0.41667 -0.16000
C 	C 	0.33333 0.89547 0.41667 -0.19900
C 	C 	0.00000 0.22455 0.75000 -0.16700
C 	C 	0.00000 0.22880 0.75000 -0.20600
C 	C 	0.44212 0.10878 0.08333 -0.16000
C 	C 	0.43787 0.10453 0.08333 -0.19900
C 	C 	0.66667 0.55788 0.08333 -0.15900
C 	C 	0.66667 0.56213 0.08333 -0.19900
C 	C 	0.89122 0.33333 0.08333 -0.16000
C 	C 	0.89547 0.33333 0.08333 -0.19900
C 	C 	0.89122 0.55788 0.58333 -0.16000
C 	C 	0.89547 0.56213 0.58333 -0.19900
C 	C 	0.44212 0.33333 0.58333 -0.16000
C 	C 	0.43787 0.33333 0.58333 -0.19900
C 	C 	0.66667 0.10878 0.58333 -0.15900
C 	C 	0.66667 0.10453 0.58333 -0.19900
C 	C 	0.55788 0.89122 0.91667 -0.16000
C 	C 	0.56213 0.89547 0.91667 -0.19900
C 	C 	0.22455 0.22455 0.25000 -0.16000
C 	C 	0.22880 0.22880 0.25000 -0.20000
C 	C 	0.33333 0.44212 0.91667 -0.16000
C 	C 	0.33333 0.43787 0.91667 -0.19900
C 	C 	0.00000 0.77545 0.25000 -0.16600
C 	C 	0.00000 0.77120 0.25000 -0.20500
C 	C 	0.10878 0.66667 0.91667 -0.15900
C 	C 	0.10453 0.66667 0.91667 -0.19900
C 	C 	0.77545 0.00000 0.25000 -0.16600
C 	C 	0.77120 0.00000 0.25000 -0.20500
Co	Co	0.33333 0.66667 0.50198 1.19300
Co	Co	0.00000 0.00000 0.83531 1.18600
Co	Co	0.66667 0.33333 0.16865 1.19300
Co	Co	0.66667 0.33333 0.99802 1.19300
Co	Co	0.33333 0.66667 0.33135 1.19300
Co	Co	-0.00000 0.00000 0.66469 1.18600
Co	Co	0.66667 0.33333 0.49802 1.19300
Co	Co	0.33333 0.66667 0.83135 1.19300
Co	Co	-0.00000 0.00000 0.16469 1.18600
Co	Co	0.33333 0.66667 0.00198 1.19300
Co	Co	-0.00000 0.00000 0.33531 1.18600
Co	Co	0.66667 0.33333 0.66865 1.19300
