data_crystal

_cell_length_a 21.56000
_cell_length_b 21.56000
_cell_length_c 77.81400
_cell_angle_alpha 90.00000
_cell_angle_beta  90.00000
_cell_angle_gamma 120.00000

_symmetry_space_group_name_	'P 1'
_symmetry_space_group_name_H-M	'P 1'

loop_
_symmetry_equiv_pos_as_xyz
  x,y,z

loop_
_atom_site_label
_atom_site_type_symbol
_atom_site_fract_x
_atom_site_fract_y
_atom_site_fract_z
_atom_site_charge
Zn	Zn	0.76984 0.41138 0.85447 1.20300
Zn	Zn	0.67251 0.32728 0.88536 1.21200
Zn	Zn	0.67205 0.24165 0.85311 1.20800
Zn	Zn	0.59794 0.34059 0.85149 1.17300
Zn	Zn	0.64154 0.23016 0.18780 1.20300
Zn	Zn	0.65477 0.32749 0.21869 1.21100
Zn	Zn	0.56960 0.32795 0.18644 1.20800
Zn	Zn	0.74265 0.40206 0.18482 1.17300
Zn	Zn	0.58862 0.35846 0.52114 1.20300
Zn	Zn	0.67272 0.34523 0.55202 1.21200
Zn	Zn	0.75835 0.43040 0.51977 1.20800
Zn	Zn	0.65941 0.25735 0.51815 1.17300
Zn	Zn	0.23016 0.58862 0.35447 1.20300
Zn	Zn	0.32749 0.67272 0.38536 1.21200
Zn	Zn	0.32795 0.75835 0.35311 1.20800
Zn	Zn	0.40206 0.65941 0.35149 1.17300
Zn	Zn	0.35846 0.76984 0.68780 1.20300
Zn	Zn	0.34523 0.67251 0.71869 1.21100
Zn	Zn	0.43040 0.67205 0.68644 1.20800
Zn	Zn	0.25735 0.59794 0.68482 1.17300
Zn	Zn	0.41138 0.64154 0.02114 1.20300
Zn	Zn	0.32728 0.65477 0.05202 1.21200
Zn	Zn	0.24165 0.56960 0.01977 1.20800
Zn	Zn	0.34059 0.74265 0.01815 1.17300
H 	H 	0.79380 0.47310 0.92240 0.07100
H 	H 	0.03020 0.63130 0.90720 0.05700
H 	H 	0.95150 0.55290 0.88660 0.03400
H 	H 	0.84040 0.52360 0.95510 0.12300
H 	H 	0.84850 0.59750 0.94920 0.12000
H 	H 	0.00200 0.69880 0.93930 0.09600
H 	H 	0.04690 0.65980 0.94220 0.09900
H 	H 	0.99450 0.54800 0.95690 0.12200
H 	H 	0.93430 0.52310 0.97110 0.12700
H 	H 	0.96800 0.70990 0.96750 0.12300
H 	H 	0.91510 0.64570 0.97950 0.13200
H 	H 	0.08620 0.56510 0.98440 0.04500
H 	H 	0.14440 0.74650 0.00970 0.01200
H 	H 	0.05690 0.76100 0.99550 0.07900
H 	H 	0.92150 0.41650 0.81720 0.05700
H 	H 	0.92390 0.20020 0.81720 0.07600
H 	H 	0.84080 0.21110 0.83330 0.01300
H 	H 	0.01170 0.44410 0.78850 0.12800
H 	H 	0.06940 0.45440 0.80250 0.12700
H 	H 	0.08330 0.33180 0.80540 0.13200
H 	H 	0.03350 0.27090 0.79230 0.12300
H 	H 	0.15440 0.45840 0.78620 0.10500
H 	H 	0.15090 0.38850 0.77870 0.11900
H 	H 	0.95920 0.34200 0.77090 0.12200
H 	H 	0.99650 0.29690 0.76660 0.11700
H 	H 	0.21610 0.51710 0.75350 0.07500
H 	H 	0.06920 0.46180 0.71630 0.02200
H 	H 	0.98170 0.38020 0.73390 0.05800
H 	H 	0.60300 0.48740 0.82940 0.03500
H 	H 	0.80370 0.68410 0.80530 0.07300
H 	H 	0.81400 0.60570 0.82340 0.02400
H 	H 	0.53290 0.50450 0.80030 0.13700
H 	H 	0.53980 0.57000 0.81080 0.15100
H 	H 	0.69630 0.68180 0.78250 0.12900
H 	H 	0.66230 0.70220 0.79790 0.13200
H 	H 	0.49120 0.59560 0.78510 0.13400
H 	H 	0.55640 0.67460 0.78590 0.13300
H 	H 	0.64500 0.57210 0.77110 0.14400
H 	H 	0.56350 0.51250 0.77230 0.14300
H 	H 	0.48440 0.67380 0.75520 0.06600
H 	H 	0.55680 0.60200 0.71620 0.00400
H 	H 	0.60630 0.56390 0.73530 0.07600
H 	H 	0.67930 0.20620 0.25573 0.07200
H 	H 	0.60110 0.96980 0.24053 0.05400
H 	H 	0.60140 0.04850 0.21993 0.03600
H 	H 	0.68320 0.15960 0.28843 0.12400
H 	H 	0.74900 0.15150 0.28253 0.12100
H 	H 	0.69680 0.99800 0.27263 0.09300
H 	H 	0.61290 0.95310 0.27553 0.09600
H 	H 	0.55350 0.00550 0.29023 0.12300
H 	H 	0.58880 0.06570 0.30443 0.12700
H 	H 	0.74190 0.03200 0.30083 0.12300
H 	H 	0.73060 0.08490 0.31283 0.13300
H 	H 	0.47890 0.91380 0.31773 0.04600
H 	H 	0.60210 0.85560 0.34303 0.01200
H 	H 	0.70410 0.94310 0.32883 0.07800
H 	H 	0.49500 0.07850 0.15053 0.05800
H 	H 	0.27630 0.07610 0.15053 0.07700
H 	H 	0.37030 0.15920 0.16663 0.01300
H 	H 	0.43240 0.98830 0.12183 0.12900
H 	H 	0.38500 0.93060 0.13583 0.12800
H 	H 	0.24850 0.91670 0.13873 0.13300
H 	H 	0.23740 0.96650 0.12563 0.12300
H 	H 	0.30400 0.84560 0.11953 0.10500
H 	H 	0.23760 0.84910 0.11203 0.11900
H 	H 	0.38280 0.04080 0.10423 0.12600
H 	H 	0.30040 0.00350 0.09993 0.12200
H 	H 	0.30100 0.78390 0.08683 0.07500
H 	H 	0.39260 0.93080 0.04963 0.02000
H 	H 	0.39850 0.01830 0.06723 0.06100
H 	H 	0.88440 0.39700 0.16273 0.03200
H 	H 	0.88040 0.19630 0.13863 0.07200
H 	H 	0.79170 0.18600 0.15673 0.02500
H 	H 	0.97160 0.46710 0.13363 0.11900
H 	H 	0.03020 0.46020 0.14413 0.12300
H 	H 	0.98550 0.30370 0.11583 0.11500
H 	H 	0.03990 0.33770 0.13123 0.10700
H 	H 	0.10440 0.50880 0.11843 0.12300
H 	H 	0.11820 0.44360 0.11923 0.12200
H 	H 	0.92710 0.35500 0.10443 0.12800
H 	H 	0.94900 0.43650 0.10563 0.12900
H 	H 	0.18940 0.51560 0.08853 0.06400
H 	H 	0.04520 0.44320 0.04953 -0.00200
H 	H 	0.95760 0.39370 0.06863 0.09100
H 	H 	0.52690 0.32070 0.58907 0.07000
H 	H 	0.36870 0.39890 0.57387 0.06900
H 	H 	0.44710 0.39860 0.55327 0.03000
H 	H 	0.47640 0.31680 0.62177 0.12400
H 	H 	0.40250 0.25100 0.61587 0.12200
H 	H 	0.30120 0.30320 0.60597 0.11400
H 	H 	0.34020 0.38710 0.60887 0.11600
H 	H 	0.45200 0.44650 0.62357 0.12600
H 	H 	0.47690 0.41120 0.63777 0.13100
H 	H 	0.29010 0.25810 0.63417 0.12600
H 	H 	0.35430 0.26940 0.64617 0.13700
H 	H 	0.43490 0.52110 0.65107 0.04900
H 	H 	0.25350 0.39790 0.67637 0.01100
H 	H 	0.23900 0.29590 0.66217 0.08300
H 	H 	0.58350 0.50500 0.48387 0.05900
H 	H 	0.79980 0.72370 0.48387 0.07600
H 	H 	0.78890 0.62970 0.49997 0.01300
H 	H 	0.55590 0.56760 0.45517 0.13000
H 	H 	0.54560 0.61500 0.46917 0.13000
H 	H 	0.66820 0.75150 0.47207 0.13400
H 	H 	0.72910 0.76260 0.45897 0.12300
H 	H 	0.54160 0.69600 0.45287 0.10500
H 	H 	0.61150 0.76240 0.44537 0.11900
H 	H 	0.65800 0.61720 0.43757 0.13600
H 	H 	0.70310 0.69960 0.43327 0.13200
H 	H 	0.48290 0.69900 0.42017 0.07300
H 	H 	0.53820 0.60740 0.38297 0.01300
H 	H 	0.61980 0.60150 0.40057 0.07400
H 	H 	0.51260 0.11560 0.49607 0.03200
H 	H 	0.31590 0.11960 0.47197 0.07300
H 	H 	0.39430 0.20830 0.49007 0.02500
H 	H 	0.49550 0.02840 0.46697 0.11900
H 	H 	0.43000 0.96980 0.47747 0.12400
H 	H 	0.31820 0.01450 0.44917 0.11600
H 	H 	0.29780 0.96010 0.46457 0.10800
H 	H 	0.40440 0.89560 0.45177 0.12300
H 	H 	0.32540 0.88180 0.45257 0.12300
H 	H 	0.42790 0.07290 0.43777 0.12900
H 	H 	0.48750 0.05100 0.43897 0.13000
H 	H 	0.32620 0.81060 0.42187 0.06400
H 	H 	0.39800 0.95480 0.38287 -0.00200
H 	H 	0.43610 0.04240 0.40197 0.09200
H 	H 	0.20620 0.52690 0.42240 0.07200
H 	H 	0.96980 0.36870 0.40720 0.05800
H 	H 	0.04850 0.44710 0.38660 0.03500
H 	H 	0.15960 0.47640 0.45510 0.12400
H 	H 	0.15150 0.40250 0.44920 0.12100
H 	H 	0.99800 0.30120 0.43930 0.09700
H 	H 	0.95310 0.34020 0.44220 0.10000
H 	H 	0.00550 0.45200 0.45690 0.12300
H 	H 	0.06570 0.47690 0.47110 0.12800
H 	H 	0.03200 0.29010 0.46750 0.12400
H 	H 	0.08490 0.35430 0.47950 0.13300
H 	H 	0.91380 0.43490 0.48440 0.04600
H 	H 	0.85560 0.25350 0.50970 0.01200
H 	H 	0.94310 0.23900 0.49550 0.07900
H 	H 	0.07850 0.58350 0.31720 0.05700
H 	H 	0.07610 0.79980 0.31720 0.07600
H 	H 	0.15920 0.78890 0.33330 0.01300
H 	H 	0.98830 0.55590 0.28850 0.12800
H 	H 	0.93060 0.54560 0.30250 0.12700
H 	H 	0.91670 0.66820 0.30540 0.13200
H 	H 	0.96650 0.72910 0.29230 0.12300
H 	H 	0.84560 0.54160 0.28620 0.10500
H 	H 	0.84910 0.61150 0.27870 0.11900
H 	H 	0.04080 0.65800 0.27090 0.12200
H 	H 	0.00350 0.70310 0.26660 0.11700
H 	H 	0.78390 0.48290 0.25350 0.07500
H 	H 	0.93080 0.53820 0.21630 0.02200
H 	H 	0.01830 0.61980 0.23390 0.05800
H 	H 	0.39700 0.51260 0.32940 0.03500
H 	H 	0.19630 0.31590 0.30530 0.07300
H 	H 	0.18600 0.39430 0.32340 0.02400
H 	H 	0.46710 0.49550 0.30030 0.13700
H 	H 	0.46020 0.43000 0.31080 0.15100
H 	H 	0.30370 0.31820 0.28250 0.12900
H 	H 	0.33770 0.29780 0.29790 0.13200
H 	H 	0.50880 0.40440 0.28510 0.13400
H 	H 	0.44360 0.32540 0.28590 0.13300
H 	H 	0.35500 0.42790 0.27110 0.14400
H 	H 	0.43650 0.48750 0.27230 0.14300
H 	H 	0.51560 0.32620 0.25520 0.06600
H 	H 	0.44320 0.39800 0.21620 0.00400
H 	H 	0.39370 0.43610 0.23530 0.07600
H 	H 	0.32070 0.79380 0.75573 0.07200
H 	H 	0.39890 0.03020 0.74053 0.05400
H 	H 	0.39860 0.95150 0.71993 0.03600
H 	H 	0.31680 0.84040 0.78843 0.12400
H 	H 	0.25100 0.84850 0.78253 0.12100
H 	H 	0.30320 0.00200 0.77263 0.09300
H 	H 	0.38710 0.04690 0.77553 0.09600
H 	H 	0.44650 0.99450 0.79023 0.12300
H 	H 	0.41120 0.93430 0.80443 0.12700
H 	H 	0.25810 0.96800 0.80083 0.12300
H 	H 	0.26940 0.91510 0.81283 0.13300
H 	H 	0.52110 0.08620 0.81773 0.04600
H 	H 	0.39790 0.14440 0.84303 0.01200
H 	H 	0.29590 0.05690 0.82883 0.07800
H 	H 	0.50500 0.92150 0.65053 0.05800
H 	H 	0.72370 0.92390 0.65053 0.07700
H 	H 	0.62970 0.84080 0.66663 0.01300
H 	H 	0.56760 0.01170 0.62183 0.12900
H 	H 	0.61500 0.06940 0.63583 0.12800
H 	H 	0.75150 0.08330 0.63873 0.13300
H 	H 	0.76260 0.03350 0.62563 0.12300
H 	H 	0.69600 0.15440 0.61953 0.10500
H 	H 	0.76240 0.15090 0.61203 0.11900
H 	H 	0.61720 0.95920 0.60423 0.12600
H 	H 	0.69960 0.99650 0.59993 0.12200
H 	H 	0.69900 0.21610 0.58683 0.07500
H 	H 	0.60740 0.06920 0.54963 0.02000
H 	H 	0.60150 0.98170 0.56723 0.06100
H 	H 	0.11560 0.60300 0.66273 0.03200
H 	H 	0.11960 0.80370 0.63863 0.07200
H 	H 	0.20830 0.81400 0.65673 0.02500
H 	H 	0.02840 0.53290 0.63363 0.11900
H 	H 	0.96980 0.53980 0.64413 0.12300
H 	H 	0.01450 0.69630 0.61583 0.11500
H 	H 	0.96010 0.66230 0.63123 0.10700
H 	H 	0.89560 0.49120 0.61843 0.12300
H 	H 	0.88180 0.55640 0.61923 0.12200
H 	H 	0.07290 0.64500 0.60443 0.12800
H 	H 	0.05100 0.56350 0.60563 0.12900
H 	H 	0.81060 0.48440 0.58853 0.06400
H 	H 	0.95480 0.55680 0.54953 -0.00200
H 	H 	0.04240 0.60630 0.56863 0.09100
H 	H 	0.47310 0.67930 0.08907 0.07000
H 	H 	0.63130 0.60110 0.07387 0.06900
H 	H 	0.55290 0.60140 0.05327 0.03000
H 	H 	0.52360 0.68320 0.12177 0.12400
H 	H 	0.59750 0.74900 0.11587 0.12200
H 	H 	0.69880 0.69680 0.10597 0.11400
H 	H 	0.65980 0.61290 0.10887 0.11600
H 	H 	0.54800 0.55350 0.12357 0.12600
H 	H 	0.52310 0.58880 0.13777 0.13100
H 	H 	0.70990 0.74190 0.13417 0.12600
H 	H 	0.64570 0.73060 0.14617 0.13700
H 	H 	0.56510 0.47890 0.15107 0.04900
H 	H 	0.74650 0.60210 0.17637 0.01100
H 	H 	0.76100 0.70410 0.16217 0.08300
H 	H 	0.41650 0.49500 0.98387 0.05900
H 	H 	0.20020 0.27630 0.98387 0.07600
H 	H 	0.21110 0.37030 0.99997 0.01300
H 	H 	0.44410 0.43240 0.95517 0.13000
H 	H 	0.45440 0.38500 0.96917 0.13000
H 	H 	0.33180 0.24850 0.97207 0.13400
H 	H 	0.27090 0.23740 0.95897 0.12300
H 	H 	0.45840 0.30400 0.95287 0.10500
H 	H 	0.38850 0.23760 0.94537 0.11900
H 	H 	0.34200 0.38280 0.93757 0.13600
H 	H 	0.29690 0.30040 0.93327 0.13200
H 	H 	0.51710 0.30100 0.92017 0.07300
H 	H 	0.46180 0.39260 0.88297 0.01300
H 	H 	0.38020 0.39850 0.90057 0.07400
H 	H 	0.48740 0.88440 0.99607 0.03200
H 	H 	0.68410 0.88040 0.97197 0.07300
H 	H 	0.60570 0.79170 0.99007 0.02500
H 	H 	0.50450 0.97160 0.96697 0.11900
H 	H 	0.57000 0.03020 0.97747 0.12400
H 	H 	0.68180 0.98550 0.94917 0.11600
H 	H 	0.70220 0.03990 0.96457 0.10800
H 	H 	0.59560 0.10440 0.95177 0.12300
H 	H 	0.67460 0.11820 0.95257 0.12300
H 	H 	0.57210 0.92710 0.93777 0.12900
H 	H 	0.51250 0.94900 0.93897 0.13000
H 	H 	0.67380 0.18940 0.92187 0.06400
H 	H 	0.60200 0.04520 0.88287 -0.00200
H 	H 	0.56390 0.95760 0.90197 0.09200
C 	C 	0.86300 0.50450 0.90282 -0.07900
C 	C 	0.84054 0.50558 0.91918 -0.06500
C 	C 	0.88730 0.55480 0.93086 0.05600
C 	C 	0.95870 0.60170 0.92679 0.06000
C 	C 	0.98260 0.60030 0.91010 -0.10800
C 	C 	0.93600 0.55300 0.89772 0.00900
C 	C 	0.87110 0.56830 0.94917 -0.31000
C 	C 	0.94760 0.60920 0.95759 0.23900
C 	C 	0.99910 0.65280 0.94096 -0.26300
C 	C 	0.97300 0.56430 0.96536 -0.30400
C 	C 	0.02940 0.61570 0.97844 0.01000
C 	C 	0.01950 0.66980 0.98186 0.11100
C 	C 	0.95740 0.66410 0.97222 -0.32900
C 	C 	0.08240 0.60540 0.98668 -0.03200
C 	C 	0.12730 0.65580 0.99789 -0.12100
C 	C 	0.11560 0.71290 0.00150 0.04600
C 	C 	0.06250 0.72170 0.99328 -0.16900
C 	C 	0.18270 0.64750 0.00718 0.35500
C 	C 	0.81149 0.45364 0.88998 0.37600
C 	C 	0.86640 0.31010 0.82657 -0.12500
C 	C 	0.92050 0.37290 0.81688 -0.04600
C 	C 	0.96850 0.36400 0.80757 0.03800
C 	C 	0.97240 0.30210 0.80847 0.08600
C 	C 	0.92310 0.24290 0.81737 -0.15700
C 	C 	0.87270 0.24970 0.82658 0.05800
C 	C 	0.02890 0.41950 0.79581 -0.31700
C 	C 	0.04850 0.37140 0.78528 0.27600
C 	C 	0.04160 0.31420 0.79808 -0.34100
C 	C 	0.12720 0.41670 0.77896 -0.31000
C 	C 	0.11800 0.43820 0.76087 0.05000
C 	C 	0.04870 0.39760 0.75536 0.07200
C 	C 	0.00500 0.34430 0.76943 -0.33100
C 	C 	0.16920 0.48850 0.74979 -0.06200
C 	C 	0.15050 0.49620 0.73304 -0.09600
C 	C 	0.08080 0.45560 0.72750 0.03300
C 	C 	0.02870 0.40700 0.73780 -0.11900
C 	C 	0.20790 0.54830 0.72193 0.37000
C 	C 	0.81630 0.31540 0.83696 0.35000
C 	C 	0.70880 0.53760 0.82786 -0.11100
C 	C 	0.64230 0.52410 0.82381 -0.06700
C 	C 	0.63150 0.56340 0.81161 0.06900
C 	C 	0.69280 0.62860 0.80496 0.08200
C 	C 	0.76310 0.64390 0.80960 -0.14700
C 	C 	0.76850 0.59740 0.82056 0.03700
C 	C 	0.56480 0.55430 0.80319 -0.39700
C 	C 	0.58830 0.59880 0.78758 0.33200
C 	C 	0.66560 0.66350 0.79252 -0.35100
C 	C 	0.54010 0.62690 0.78139 -0.36000
C 	C 	0.54440 0.62900 0.76220 0.04700
C 	C 	0.58010 0.59690 0.75757 0.11800
C 	C 	0.59650 0.56367 0.77200 -0.40600
C 	C 	0.51017 0.65281 0.75109 -0.04900
C 	C 	0.51610 0.64380 0.73338 -0.11400
C 	C 	0.55320 0.60920 0.72787 0.07000
C 	C 	0.58250 0.58720 0.73923 -0.17700
C 	C 	0.47600 0.66390 0.72110 0.38800
C 	C 	0.71780 0.48830 0.84041 0.38600
C 	C 	0.64150 0.13700 0.23615 -0.07700
C 	C 	0.66504 0.15946 0.25251 -0.06700
C 	C 	0.66750 0.11270 0.26419 0.05800
C 	C 	0.64300 0.04130 0.26012 0.05600
C 	C 	0.61770 0.01740 0.24343 -0.10200
C 	C 	0.61700 0.06400 0.23105 0.00500
C 	C 	0.69720 0.12890 0.28250 -0.31000
C 	C 	0.66160 0.05240 0.29092 0.23600
C 	C 	0.65370 0.00090 0.27429 -0.25500
C 	C 	0.59130 0.02700 0.29869 -0.30100
C 	C 	0.58630 0.97060 0.31177 0.00900
C 	C 	0.65030 0.98050 0.31519 0.10900
C 	C 	0.70670 0.04260 0.30555 -0.32700
C 	C 	0.52300 0.91760 0.32001 -0.03200
C 	C 	0.52850 0.87270 0.33122 -0.12200
C 	C 	0.59730 0.88440 0.33483 0.04500
C 	C 	0.65920 0.93750 0.32661 -0.16800
C 	C 	0.46480 0.81730 0.34051 0.35500
C 	C 	0.64215 0.18851 0.22331 0.37500
C 	C 	0.44370 0.13360 0.15990 -0.12400
C 	C 	0.45240 0.07950 0.15021 -0.04700
C 	C 	0.39550 0.03150 0.14090 0.04000
C 	C 	0.32970 0.02760 0.14180 0.08800
C 	C 	0.31980 0.07690 0.15070 -0.15800
C 	C 	0.37700 0.12730 0.15991 0.05800
C 	C 	0.39060 0.97110 0.12914 -0.32100
C 	C 	0.32290 0.95150 0.11861 0.28000
C 	C 	0.27260 0.95840 0.13141 -0.34500
C 	C 	0.28950 0.87280 0.11229 -0.31000
C 	C 	0.32020 0.88200 0.09420 0.04800
C 	C 	0.34890 0.95130 0.08869 0.07700
C 	C 	0.33930 0.99500 0.10276 -0.34200
C 	C 	0.31930 0.83080 0.08312 -0.06000
C 	C 	0.34570 0.84950 0.06637 -0.09800
C 	C 	0.37480 0.91920 0.06083 0.03700
C 	C 	0.37830 0.97130 0.07113 -0.12500
C 	C 	0.34040 0.79210 0.05526 0.37100
C 	C 	0.49910 0.18370 0.17029 0.35000
C 	C 	0.82880 0.29120 0.16119 -0.11500
C 	C 	0.88180 0.35770 0.15714 -0.05400
C 	C 	0.93190 0.36850 0.14494 0.05300
C 	C 	0.93580 0.30720 0.13829 0.07500
C 	C 	0.88080 0.23690 0.14293 -0.14100
C 	C 	0.82890 0.23150 0.15389 0.03700
C 	C 	0.98950 0.43520 0.13652 -0.32200
C 	C 	0.01050 0.41170 0.12091 0.26200
C 	C 	0.99790 0.33440 0.12585 -0.29100
C 	C 	0.08680 0.45990 0.11472 -0.32500
C 	C 	0.08460 0.45560 0.09553 0.04100
C 	C 	0.01680 0.41990 0.09090 0.10300
C 	C 	0.96717 0.40350 0.10533 -0.34600
C 	C 	0.14264 0.48983 0.08442 -0.04300
C 	C 	0.12770 0.48390 0.06671 -0.12000
C 	C 	0.05600 0.44680 0.06120 0.08200
C 	C 	0.00470 0.41750 0.07256 -0.19600
C 	C 	0.18790 0.52400 0.05443 0.39000
C 	C 	0.77050 0.28220 0.17374 0.38700
C 	C 	0.49550 0.35850 0.56949 -0.08600
C 	C 	0.49442 0.33496 0.58585 -0.05800
C 	C 	0.44520 0.33250 0.59753 0.04800
C 	C 	0.39830 0.35700 0.59346 0.07800
C 	C 	0.39970 0.38230 0.57677 -0.13100
C 	C 	0.44700 0.38300 0.56439 0.02100
C 	C 	0.43170 0.30280 0.61584 -0.31200
C 	C 	0.39080 0.33840 0.62426 0.25200
C 	C 	0.34720 0.34630 0.60763 -0.30300
C 	C 	0.43570 0.40870 0.63203 -0.32000
C 	C 	0.38430 0.41370 0.64511 0.01600
C 	C 	0.33020 0.34970 0.64853 0.12200
C 	C 	0.33590 0.29330 0.63889 -0.34800
C 	C 	0.39460 0.47700 0.65335 -0.03400
C 	C 	0.34420 0.47150 0.66456 -0.12200
C 	C 	0.28710 0.40270 0.66817 0.04900
C 	C 	0.27830 0.34080 0.65995 -0.17400
C 	C 	0.35250 0.53520 0.67385 0.35400
C 	C 	0.54636 0.35785 0.55665 0.37800
C 	C 	0.68990 0.55630 0.49324 -0.12400
C 	C 	0.62710 0.54760 0.48355 -0.04900
C 	C 	0.63600 0.60450 0.47424 0.04200
C 	C 	0.69790 0.67030 0.47514 0.08900
C 	C 	0.75710 0.68020 0.48404 -0.15800
C 	C 	0.75030 0.62300 0.49325 0.05800
C 	C 	0.58050 0.60940 0.46248 -0.32700
C 	C 	0.62860 0.67710 0.45195 0.28800
C 	C 	0.68580 0.72740 0.46475 -0.35000
C 	C 	0.58330 0.71050 0.44563 -0.31000
C 	C 	0.56180 0.67980 0.42754 0.04100
C 	C 	0.60240 0.65110 0.42203 0.08900
C 	C 	0.65570 0.66070 0.43610 -0.36700
C 	C 	0.51150 0.68070 0.41646 -0.05300
C 	C 	0.50380 0.65430 0.39971 -0.10600
C 	C 	0.54440 0.62520 0.39417 0.05200
C 	C 	0.59300 0.62170 0.40447 -0.14900
C 	C 	0.45170 0.65960 0.38860 0.37400
C 	C 	0.68460 0.50090 0.50363 0.34900
C 	C 	0.46240 0.17120 0.49453 -0.11500
C 	C 	0.47590 0.11820 0.49048 -0.05400
C 	C 	0.43660 0.06810 0.47828 0.05300
C 	C 	0.37140 0.06420 0.47163 0.07600
C 	C 	0.35610 0.11920 0.47627 -0.14200
C 	C 	0.40260 0.17110 0.48723 0.03800
C 	C 	0.44570 0.01050 0.46986 -0.32500
C 	C 	0.40120 0.98950 0.45425 0.26500
C 	C 	0.33650 0.00210 0.45919 -0.29300
C 	C 	0.37310 0.91320 0.44806 -0.32600
C 	C 	0.37100 0.91540 0.42887 0.04000
C 	C 	0.40310 0.98320 0.42424 0.10400
C 	C 	0.43633 0.03283 0.43867 -0.34800
C 	C 	0.34719 0.85736 0.41776 -0.04200
C 	C 	0.35620 0.87230 0.40005 -0.12000
C 	C 	0.39080 0.94400 0.39454 0.08300
C 	C 	0.41280 0.99530 0.40590 -0.19800
C 	C 	0.33610 0.81210 0.38777 0.39100
C 	C 	0.51170 0.22950 0.50708 0.38700
C 	C 	0.13700 0.49550 0.40282 -0.07900
C 	C 	0.15946 0.49442 0.41918 -0.06500
C 	C 	0.11270 0.44520 0.43086 0.05600
C 	C 	0.04130 0.39830 0.42679 0.06000
C 	C 	0.01740 0.39970 0.41010 -0.10800
C 	C 	0.06400 0.44700 0.39772 0.00900
C 	C 	0.12890 0.43170 0.44917 -0.31000
C 	C 	0.05240 0.39080 0.45759 0.23900
C 	C 	0.00090 0.34720 0.44096 -0.26300
C 	C 	0.02700 0.43570 0.46536 -0.30400
C 	C 	0.97060 0.38430 0.47844 0.01000
C 	C 	0.98050 0.33020 0.48186 0.11100
C 	C 	0.04260 0.33590 0.47222 -0.32900
C 	C 	0.91760 0.39460 0.48668 -0.03200
C 	C 	0.87270 0.34420 0.49789 -0.12100
C 	C 	0.88440 0.28710 0.50150 0.04600
C 	C 	0.93750 0.27830 0.49328 -0.16900
C 	C 	0.81730 0.35250 0.50718 0.35500
C 	C 	0.18851 0.54636 0.38998 0.37600
C 	C 	0.13360 0.68990 0.32657 -0.12500
C 	C 	0.07950 0.62710 0.31688 -0.04600
C 	C 	0.03150 0.63600 0.30757 0.03800
C 	C 	0.02760 0.69790 0.30847 0.08600
C 	C 	0.07690 0.75710 0.31737 -0.15700
C 	C 	0.12730 0.75030 0.32658 0.05800
C 	C 	0.97110 0.58050 0.29581 -0.31700
C 	C 	0.95150 0.62860 0.28528 0.27600
C 	C 	0.95840 0.68580 0.29808 -0.34100
C 	C 	0.87280 0.58330 0.27896 -0.31000
C 	C 	0.88200 0.56180 0.26087 0.05000
C 	C 	0.95130 0.60240 0.25536 0.07200
C 	C 	0.99500 0.65570 0.26943 -0.33100
C 	C 	0.83080 0.51150 0.24979 -0.06200
C 	C 	0.84950 0.50380 0.23304 -0.09600
C 	C 	0.91920 0.54440 0.22750 0.03300
C 	C 	0.97130 0.59300 0.23780 -0.11900
C 	C 	0.79210 0.45170 0.22193 0.37000
C 	C 	0.18370 0.68460 0.33696 0.35000
C 	C 	0.29120 0.46240 0.32786 -0.11100
C 	C 	0.35770 0.47590 0.32381 -0.06700
C 	C 	0.36850 0.43660 0.31161 0.06900
C 	C 	0.30720 0.37140 0.30496 0.08200
C 	C 	0.23690 0.35610 0.30960 -0.14700
C 	C 	0.23150 0.40260 0.32056 0.03700
C 	C 	0.43520 0.44570 0.30319 -0.39700
C 	C 	0.41170 0.40120 0.28758 0.33200
C 	C 	0.33440 0.33650 0.29252 -0.35100
C 	C 	0.45990 0.37310 0.28139 -0.36000
C 	C 	0.45560 0.37100 0.26220 0.04700
C 	C 	0.41990 0.40310 0.25757 0.11800
C 	C 	0.40350 0.43633 0.27200 -0.40600
C 	C 	0.48983 0.34719 0.25109 -0.04900
C 	C 	0.48390 0.35620 0.23338 -0.11400
C 	C 	0.44680 0.39080 0.22787 0.07000
C 	C 	0.41750 0.41280 0.23923 -0.17700
C 	C 	0.52400 0.33610 0.22110 0.38800
C 	C 	0.28220 0.51170 0.34041 0.38600
C 	C 	0.35850 0.86300 0.73615 -0.07700
C 	C 	0.33496 0.84054 0.75251 -0.06700
C 	C 	0.33250 0.88730 0.76419 0.05800
C 	C 	0.35700 0.95870 0.76012 0.05600
C 	C 	0.38230 0.98260 0.74343 -0.10200
C 	C 	0.38300 0.93600 0.73105 0.00500
C 	C 	0.30280 0.87110 0.78250 -0.31000
C 	C 	0.33840 0.94760 0.79092 0.23600
C 	C 	0.34630 0.99910 0.77429 -0.25500
C 	C 	0.40870 0.97300 0.79869 -0.30100
C 	C 	0.41370 0.02940 0.81177 0.00900
C 	C 	0.34970 0.01950 0.81519 0.10900
C 	C 	0.29330 0.95740 0.80555 -0.32700
C 	C 	0.47700 0.08240 0.82001 -0.03200
C 	C 	0.47150 0.12730 0.83122 -0.12200
C 	C 	0.40270 0.11560 0.83483 0.04500
C 	C 	0.34080 0.06250 0.82661 -0.16800
C 	C 	0.53520 0.18270 0.84051 0.35500
C 	C 	0.35785 0.81149 0.72331 0.37500
C 	C 	0.55630 0.86640 0.65990 -0.12400
C 	C 	0.54760 0.92050 0.65021 -0.04700
C 	C 	0.60450 0.96850 0.64090 0.04000
C 	C 	0.67030 0.97240 0.64180 0.08800
C 	C 	0.68020 0.92310 0.65070 -0.15800
C 	C 	0.62300 0.87270 0.65991 0.05800
C 	C 	0.60940 0.02890 0.62914 -0.32100
C 	C 	0.67710 0.04850 0.61861 0.28000
C 	C 	0.72740 0.04160 0.63141 -0.34500
C 	C 	0.71050 0.12720 0.61229 -0.31000
C 	C 	0.67980 0.11800 0.59420 0.04800
C 	C 	0.65110 0.04870 0.58869 0.07700
C 	C 	0.66070 0.00500 0.60276 -0.34200
C 	C 	0.68070 0.16920 0.58312 -0.06000
C 	C 	0.65430 0.15050 0.56637 -0.09800
C 	C 	0.62520 0.08080 0.56083 0.03700
C 	C 	0.62170 0.02870 0.57113 -0.12500
C 	C 	0.65960 0.20790 0.55526 0.37100
C 	C 	0.50090 0.81630 0.67029 0.35000
C 	C 	0.17120 0.70880 0.66119 -0.11500
C 	C 	0.11820 0.64230 0.65714 -0.05400
C 	C 	0.06810 0.63150 0.64494 0.05300
C 	C 	0.06420 0.69280 0.63829 0.07500
C 	C 	0.11920 0.76310 0.64293 -0.14100
C 	C 	0.17110 0.76850 0.65389 0.03700
C 	C 	0.01050 0.56480 0.63652 -0.32200
C 	C 	0.98950 0.58830 0.62091 0.26200
C 	C 	0.00210 0.66560 0.62585 -0.29100
C 	C 	0.91320 0.54010 0.61472 -0.32500
C 	C 	0.91540 0.54440 0.59553 0.04100
C 	C 	0.98320 0.58010 0.59090 0.10300
C 	C 	0.03283 0.59650 0.60533 -0.34600
C 	C 	0.85736 0.51017 0.58442 -0.04300
C 	C 	0.87230 0.51610 0.56671 -0.12000
C 	C 	0.94400 0.55320 0.56120 0.08200
C 	C 	0.99530 0.58250 0.57256 -0.19600
C 	C 	0.81210 0.47600 0.55443 0.39000
C 	C 	0.22950 0.71780 0.67374 0.38700
C 	C 	0.50450 0.64150 0.06949 -0.08600
C 	C 	0.50558 0.66504 0.08585 -0.05800
C 	C 	0.55480 0.66750 0.09753 0.04800
C 	C 	0.60170 0.64300 0.09346 0.07800
C 	C 	0.60030 0.61770 0.07677 -0.13100
C 	C 	0.55300 0.61700 0.06439 0.02100
C 	C 	0.56830 0.69720 0.11584 -0.31200
C 	C 	0.60920 0.66160 0.12426 0.25200
C 	C 	0.65280 0.65370 0.10763 -0.30300
C 	C 	0.56430 0.59130 0.13203 -0.32000
C 	C 	0.61570 0.58630 0.14511 0.01600
C 	C 	0.66980 0.65030 0.14853 0.12200
C 	C 	0.66410 0.70670 0.13889 -0.34800
C 	C 	0.60540 0.52300 0.15335 -0.03400
C 	C 	0.65580 0.52850 0.16456 -0.12200
C 	C 	0.71290 0.59730 0.16817 0.04900
C 	C 	0.72170 0.65920 0.15995 -0.17400
C 	C 	0.64750 0.46480 0.17385 0.35400
C 	C 	0.45364 0.64215 0.05665 0.37800
C 	C 	0.31010 0.44370 0.99324 -0.12400
C 	C 	0.37290 0.45240 0.98355 -0.04900
C 	C 	0.36400 0.39550 0.97424 0.04200
C 	C 	0.30210 0.32970 0.97514 0.08900
C 	C 	0.24290 0.31980 0.98404 -0.15800
C 	C 	0.24970 0.37700 0.99325 0.05800
C 	C 	0.41950 0.39060 0.96248 -0.32700
C 	C 	0.37140 0.32290 0.95195 0.28800
C 	C 	0.31420 0.27260 0.96475 -0.35000
C 	C 	0.41670 0.28950 0.94563 -0.31000
C 	C 	0.43820 0.32020 0.92754 0.04100
C 	C 	0.39760 0.34890 0.92203 0.08900
C 	C 	0.34430 0.33930 0.93610 -0.36700
C 	C 	0.48850 0.31930 0.91646 -0.05300
C 	C 	0.49620 0.34570 0.89971 -0.10600
C 	C 	0.45560 0.37480 0.89417 0.05200
C 	C 	0.40700 0.37830 0.90447 -0.14900
C 	C 	0.54830 0.34040 0.88860 0.37400
C 	C 	0.31540 0.49910 0.00363 0.34900
C 	C 	0.53760 0.82880 0.99453 -0.11500
C 	C 	0.52410 0.88180 0.99048 -0.05400
C 	C 	0.56340 0.93190 0.97828 0.05300
C 	C 	0.62860 0.93580 0.97163 0.07600
C 	C 	0.64390 0.88080 0.97627 -0.14200
C 	C 	0.59740 0.82890 0.98723 0.03800
C 	C 	0.55430 0.98950 0.96986 -0.32500
C 	C 	0.59880 0.01050 0.95425 0.26500
C 	C 	0.66350 0.99790 0.95919 -0.29300
C 	C 	0.62690 0.08680 0.94806 -0.32600
C 	C 	0.62900 0.08460 0.92887 0.04000
C 	C 	0.59690 0.01680 0.92424 0.10400
C 	C 	0.56367 0.96717 0.93867 -0.34800
C 	C 	0.65281 0.14264 0.91776 -0.04200
C 	C 	0.64380 0.12770 0.90005 -0.12000
C 	C 	0.60920 0.05600 0.89454 0.08300
C 	C 	0.58720 0.00470 0.90590 -0.19800
C 	C 	0.66390 0.18790 0.88777 0.39100
C 	C 	0.48830 0.77050 0.00708 0.38700
O 	O 	0.67831 0.32906 0.86076 -0.96300
O 	O 	0.83322 0.45614 0.87483 -0.49400
O 	O 	0.74983 0.41291 0.89568 -0.50700
O 	O 	0.18230 0.58960 0.00510 -0.51000
O 	O 	0.22783 0.70063 0.01607 -0.50100
O 	O 	0.82415 0.37968 0.83978 -0.47900
O 	O 	0.76330 0.25864 0.84309 -0.49200
O 	O 	0.26974 0.58527 0.72863 -0.49200
O 	O 	0.19351 0.55137 0.70628 -0.48300
O 	O 	0.77662 0.49200 0.84137 -0.49600
O 	O 	0.66720 0.45253 0.84978 -0.53800
O 	O 	0.43422 0.68177 0.72758 -0.51000
O 	O 	0.48418 0.65821 0.70526 -0.49700
O 	O 	0.65075 0.32169 0.19409 -0.96300
O 	O 	0.62292 0.16678 0.20816 -0.49300
O 	O 	0.66308 0.25017 0.22901 -0.50700
O 	O 	0.40730 0.81770 0.33843 -0.51000
O 	O 	0.47280 0.77217 0.34940 -0.50200
O 	O 	0.55553 0.17585 0.17311 -0.47800
O 	O 	0.49534 0.23670 0.17642 -0.49200
O 	O 	0.31553 0.73026 0.06196 -0.49200
O 	O 	0.35786 0.80649 0.03961 -0.48300
O 	O 	0.71538 0.22338 0.17470 -0.49600
O 	O 	0.78533 0.33280 0.18311 -0.53800
O 	O 	0.24755 0.56578 0.06091 -0.51100
O 	O 	0.17403 0.51582 0.03859 -0.49800
O 	O 	0.67094 0.34925 0.52743 -0.96300
O 	O 	0.54386 0.37708 0.54150 -0.49400
O 	O 	0.58709 0.33692 0.56235 -0.50800
O 	O 	0.41040 0.59270 0.67177 -0.50900
O 	O 	0.29937 0.52720 0.68274 -0.50100
O 	O 	0.62032 0.44447 0.50645 -0.47800
O 	O 	0.74136 0.50466 0.50976 -0.49200
O 	O 	0.41473 0.68447 0.39530 -0.49200
O 	O 	0.44863 0.64214 0.37295 -0.48500
O 	O 	0.50800 0.28462 0.50804 -0.49600
O 	O 	0.54747 0.21467 0.51645 -0.53800
O 	O 	0.31823 0.75245 0.39425 -0.51100
O 	O 	0.34179 0.82597 0.37193 -0.49800
O 	O 	0.32169 0.67094 0.36076 -0.96300
O 	O 	0.16678 0.54386 0.37483 -0.49400
O 	O 	0.25017 0.58709 0.39568 -0.50700
O 	O 	0.81770 0.41040 0.50510 -0.51000
O 	O 	0.77217 0.29937 0.51607 -0.50100
O 	O 	0.17585 0.62032 0.33978 -0.47900
O 	O 	0.23670 0.74136 0.34309 -0.49200
O 	O 	0.73026 0.41473 0.22863 -0.49200
O 	O 	0.80649 0.44863 0.20628 -0.48300
O 	O 	0.22338 0.50800 0.34137 -0.49600
O 	O 	0.33280 0.54747 0.34978 -0.53800
O 	O 	0.56578 0.31823 0.22758 -0.51000
O 	O 	0.51582 0.34179 0.20526 -0.49700
O 	O 	0.34925 0.67831 0.69409 -0.96300
O 	O 	0.37708 0.83322 0.70816 -0.49300
O 	O 	0.33692 0.74983 0.72901 -0.50700
O 	O 	0.59270 0.18230 0.83843 -0.51000
O 	O 	0.52720 0.22783 0.84940 -0.50200
O 	O 	0.44447 0.82415 0.67311 -0.47800
O 	O 	0.50466 0.76330 0.67642 -0.49200
O 	O 	0.68447 0.26974 0.56196 -0.49200
O 	O 	0.64214 0.19351 0.53961 -0.48300
O 	O 	0.28462 0.77662 0.67470 -0.49600
O 	O 	0.21467 0.66720 0.68311 -0.53800
O 	O 	0.75245 0.43422 0.56091 -0.51100
O 	O 	0.82597 0.48418 0.53859 -0.49800
O 	O 	0.32906 0.65075 0.02743 -0.96300
O 	O 	0.45614 0.62292 0.04150 -0.49400
O 	O 	0.41291 0.66308 0.06235 -0.50800
O 	O 	0.58960 0.40730 0.17177 -0.50900
O 	O 	0.70063 0.47280 0.18274 -0.50100
O 	O 	0.37968 0.55553 0.00645 -0.47800
O 	O 	0.25864 0.49534 0.00976 -0.49200
O 	O 	0.58527 0.31553 0.89530 -0.49200
O 	O 	0.55137 0.35786 0.87295 -0.48500
O 	O 	0.49200 0.71538 0.00804 -0.49600
O 	O 	0.45253 0.78533 0.01645 -0.53800
O 	O 	0.68177 0.24755 0.89425 -0.51100
O 	O 	0.65821 0.17403 0.87193 -0.49800
Zn	Zn	0.35846 0.58862 0.47886 1.20400
Zn	Zn	0.34523 0.67272 0.44798 1.21300
Zn	Zn	0.43040 0.75835 0.48023 1.20900
Zn	Zn	0.25735 0.65941 0.48185 1.17400
Zn	Zn	0.41138 0.76984 0.14553 1.20400
Zn	Zn	0.32728 0.67251 0.11464 1.21300
Zn	Zn	0.24165 0.67205 0.14689 1.20900
Zn	Zn	0.34059 0.59794 0.14851 1.17400
Zn	Zn	0.23016 0.64154 0.81220 1.20400
Zn	Zn	0.32749 0.65477 0.78131 1.21200
Zn	Zn	0.32795 0.56960 0.81356 1.20900
Zn	Zn	0.40206 0.74265 0.81518 1.17400
Zn	Zn	0.64154 0.41138 0.97886 1.20400
Zn	Zn	0.65477 0.32728 0.94798 1.21300
Zn	Zn	0.56960 0.24165 0.98023 1.20900
Zn	Zn	0.74265 0.34059 0.98185 1.17400
Zn	Zn	0.58862 0.23016 0.64553 1.20400
Zn	Zn	0.67272 0.32749 0.61464 1.21300
Zn	Zn	0.75835 0.32795 0.64689 1.20900
Zn	Zn	0.65941 0.40206 0.64851 1.17400
Zn	Zn	0.76984 0.35846 0.31220 1.20400
Zn	Zn	0.67251 0.34523 0.28131 1.21200
Zn	Zn	0.67205 0.43040 0.31356 1.20900
Zn	Zn	0.59794 0.25735 0.31518 1.17400
H 	H 	0.32070 0.52690 0.41093 0.07000
H 	H 	0.39890 0.36870 0.42613 0.06900
H 	H 	0.39860 0.44710 0.44673 0.03000
H 	H 	0.31680 0.47640 0.37823 0.12400
H 	H 	0.25100 0.40250 0.38413 0.12200
H 	H 	0.30320 0.30120 0.39403 0.11400
H 	H 	0.38710 0.34020 0.39113 0.11600
H 	H 	0.44650 0.45200 0.37643 0.12600
H 	H 	0.41120 0.47690 0.36223 0.13100
H 	H 	0.25810 0.29010 0.36583 0.12600
H 	H 	0.26940 0.35430 0.35383 0.13700
H 	H 	0.52110 0.43490 0.34893 0.04900
H 	H 	0.39790 0.25350 0.32363 0.01100
H 	H 	0.29590 0.23900 0.33783 0.08300
H 	H 	0.50500 0.58350 0.51613 0.05900
H 	H 	0.72370 0.79980 0.51613 0.07600
H 	H 	0.62970 0.78890 0.50003 0.01300
H 	H 	0.56760 0.55590 0.54483 0.13000
H 	H 	0.61500 0.54560 0.53083 0.13000
H 	H 	0.75150 0.66820 0.52793 0.13400
H 	H 	0.76260 0.72910 0.54103 0.12300
H 	H 	0.69600 0.54160 0.54713 0.10500
H 	H 	0.76240 0.61150 0.55463 0.11900
H 	H 	0.61720 0.65800 0.56243 0.13600
H 	H 	0.69960 0.70310 0.56673 0.13200
H 	H 	0.69900 0.48290 0.57983 0.07300
H 	H 	0.60740 0.53820 0.61703 0.01300
H 	H 	0.60150 0.61980 0.59943 0.07400
H 	H 	0.11560 0.51260 0.50393 0.03200
H 	H 	0.11960 0.31590 0.52803 0.07300
H 	H 	0.20830 0.39430 0.50993 0.02500
H 	H 	0.02840 0.49550 0.53303 0.11900
H 	H 	0.96980 0.43000 0.52253 0.12400
H 	H 	0.01450 0.31820 0.55083 0.11600
H 	H 	0.96010 0.29780 0.53543 0.10800
H 	H 	0.89560 0.40440 0.54823 0.12300
H 	H 	0.88180 0.32540 0.54743 0.12300
H 	H 	0.07290 0.42790 0.56223 0.12900
H 	H 	0.05100 0.48750 0.56103 0.13000
H 	H 	0.81060 0.32620 0.57813 0.06400
H 	H 	0.95480 0.39800 0.61713 -0.00200
H 	H 	0.04240 0.43610 0.59803 0.09200
H 	H 	0.47310 0.79380 0.07760 0.07200
H 	H 	0.63130 0.03020 0.09280 0.05800
H 	H 	0.55290 0.95150 0.11340 0.03500
H 	H 	0.52360 0.84040 0.04490 0.12400
H 	H 	0.59750 0.84850 0.05080 0.12100
H 	H 	0.69880 0.00200 0.06070 0.09700
H 	H 	0.65980 0.04690 0.05780 0.10000
H 	H 	0.54800 0.99450 0.04310 0.12300
H 	H 	0.52310 0.93430 0.02890 0.12800
H 	H 	0.70990 0.96800 0.03250 0.12400
H 	H 	0.64570 0.91510 0.02050 0.13300
H 	H 	0.56510 0.08620 0.01560 0.04600
H 	H 	0.74650 0.14440 0.99030 0.01200
H 	H 	0.76100 0.05690 0.00450 0.07900
H 	H 	0.41650 0.92150 0.18280 0.05700
H 	H 	0.20020 0.92390 0.18280 0.07600
H 	H 	0.21110 0.84080 0.16670 0.01300
H 	H 	0.44410 0.01170 0.21150 0.12800
H 	H 	0.45440 0.06940 0.19750 0.12700
H 	H 	0.33180 0.08330 0.19460 0.13200
H 	H 	0.27090 0.03350 0.20770 0.12300
H 	H 	0.45840 0.15440 0.21380 0.10500
H 	H 	0.38850 0.15090 0.22130 0.11900
H 	H 	0.34200 0.95920 0.22910 0.12200
H 	H 	0.29690 0.99650 0.23340 0.11700
H 	H 	0.51710 0.21610 0.24650 0.07500
H 	H 	0.46180 0.06920 0.28370 0.02200
H 	H 	0.38020 0.98170 0.26610 0.05800
H 	H 	0.48740 0.60300 0.17060 0.03500
H 	H 	0.68410 0.80370 0.19470 0.07300
H 	H 	0.60570 0.81400 0.17660 0.02400
H 	H 	0.50450 0.53290 0.19970 0.13700
H 	H 	0.57000 0.53980 0.18920 0.15100
H 	H 	0.68180 0.69630 0.21750 0.12900
H 	H 	0.70220 0.66230 0.20210 0.13200
H 	H 	0.59560 0.49120 0.21490 0.13400
H 	H 	0.67460 0.55640 0.21410 0.13300
H 	H 	0.57210 0.64500 0.22890 0.14400
H 	H 	0.51250 0.56350 0.22770 0.14300
H 	H 	0.67380 0.48440 0.24480 0.06600
H 	H 	0.60200 0.55680 0.28380 0.00400
H 	H 	0.56390 0.60630 0.26470 0.07600
H 	H 	0.20620 0.67930 0.74427 0.07200
H 	H 	0.96980 0.60110 0.75947 0.05400
H 	H 	0.04850 0.60140 0.78007 0.03600
H 	H 	0.15960 0.68320 0.71157 0.12400
H 	H 	0.15150 0.74900 0.71747 0.12100
H 	H 	0.99800 0.69680 0.72737 0.09300
H 	H 	0.95310 0.61290 0.72447 0.09600
H 	H 	0.00550 0.55350 0.70977 0.12300
H 	H 	0.06570 0.58880 0.69557 0.12700
H 	H 	0.03200 0.74190 0.69917 0.12300
H 	H 	0.08490 0.73060 0.68717 0.13300
H 	H 	0.91380 0.47890 0.68227 0.04600
H 	H 	0.85560 0.60210 0.65697 0.01200
H 	H 	0.94310 0.70410 0.67117 0.07800
H 	H 	0.07850 0.49500 0.84947 0.05800
H 	H 	0.07610 0.27630 0.84947 0.07700
H 	H 	0.15920 0.37030 0.83337 0.01300
H 	H 	0.98830 0.43240 0.87817 0.12900
H 	H 	0.93060 0.38500 0.86417 0.12800
H 	H 	0.91670 0.24850 0.86127 0.13300
H 	H 	0.96650 0.23740 0.87437 0.12300
H 	H 	0.84560 0.30400 0.88047 0.10500
H 	H 	0.84910 0.23760 0.88797 0.11900
H 	H 	0.04080 0.38280 0.89577 0.12600
H 	H 	0.00350 0.30040 0.90007 0.12200
H 	H 	0.78390 0.30100 0.91317 0.07500
H 	H 	0.93080 0.39260 0.95037 0.02000
H 	H 	0.01830 0.39850 0.93277 0.06100
H 	H 	0.39700 0.88440 0.83727 0.03200
H 	H 	0.19630 0.88040 0.86137 0.07200
H 	H 	0.18600 0.79170 0.84327 0.02500
H 	H 	0.46710 0.97160 0.86637 0.11900
H 	H 	0.46020 0.03020 0.85587 0.12300
H 	H 	0.30370 0.98550 0.88417 0.11500
H 	H 	0.33770 0.03990 0.86877 0.10700
H 	H 	0.50880 0.10440 0.88157 0.12300
H 	H 	0.44360 0.11820 0.88077 0.12200
H 	H 	0.35500 0.92710 0.89557 0.12800
H 	H 	0.43650 0.94900 0.89437 0.12900
H 	H 	0.51560 0.18940 0.91147 0.06400
H 	H 	0.44320 0.04520 0.95047 -0.00200
H 	H 	0.39370 0.95760 0.93137 0.09100
H 	H 	0.67930 0.47310 0.91093 0.07000
H 	H 	0.60110 0.63130 0.92613 0.06900
H 	H 	0.60140 0.55290 0.94673 0.03000
H 	H 	0.68320 0.52360 0.87823 0.12400
H 	H 	0.74900 0.59750 0.88413 0.12200
H 	H 	0.69680 0.69880 0.89403 0.11400
H 	H 	0.61290 0.65980 0.89113 0.11600
H 	H 	0.55350 0.54800 0.87643 0.12600
H 	H 	0.58880 0.52310 0.86223 0.13100
H 	H 	0.74190 0.70990 0.86583 0.12600
H 	H 	0.73060 0.64570 0.85383 0.13700
H 	H 	0.47890 0.56510 0.84893 0.04900
H 	H 	0.60210 0.74650 0.82363 0.01100
H 	H 	0.70410 0.76100 0.83783 0.08300
H 	H 	0.49500 0.41650 0.01613 0.05900
H 	H 	0.27630 0.20020 0.01613 0.07600
H 	H 	0.37030 0.21110 0.00003 0.01300
H 	H 	0.43240 0.44410 0.04483 0.13000
H 	H 	0.38500 0.45440 0.03083 0.13000
H 	H 	0.24850 0.33180 0.02793 0.13400
H 	H 	0.23740 0.27090 0.04103 0.12300
H 	H 	0.30400 0.45840 0.04713 0.10500
H 	H 	0.23760 0.38850 0.05463 0.11900
H 	H 	0.38280 0.34200 0.06243 0.13600
H 	H 	0.30040 0.29690 0.06673 0.13200
H 	H 	0.30100 0.51710 0.07983 0.07300
H 	H 	0.39260 0.46180 0.11703 0.01300
H 	H 	0.39850 0.38020 0.09943 0.07400
H 	H 	0.88440 0.48740 0.00393 0.03200
H 	H 	0.88040 0.68410 0.02803 0.07300
H 	H 	0.79170 0.60570 0.00993 0.02500
H 	H 	0.97160 0.50450 0.03303 0.11900
H 	H 	0.03020 0.57000 0.02253 0.12400
H 	H 	0.98550 0.68180 0.05083 0.11600
H 	H 	0.03990 0.70220 0.03543 0.10800
H 	H 	0.10440 0.59560 0.04823 0.12300
H 	H 	0.11820 0.67460 0.04743 0.12300
H 	H 	0.92710 0.57210 0.06223 0.12900
H 	H 	0.94900 0.51250 0.06103 0.13000
H 	H 	0.18940 0.67380 0.07813 0.06400
H 	H 	0.04520 0.60200 0.11713 -0.00200
H 	H 	0.95760 0.56390 0.09803 0.09200
H 	H 	0.52690 0.20620 0.57760 0.07200
H 	H 	0.36870 0.96980 0.59280 0.05800
H 	H 	0.44710 0.04850 0.61340 0.03500
H 	H 	0.47640 0.15960 0.54490 0.12400
H 	H 	0.40250 0.15150 0.55080 0.12100
H 	H 	0.30120 0.99800 0.56070 0.09700
H 	H 	0.34020 0.95310 0.55780 0.10000
H 	H 	0.45200 0.00550 0.54310 0.12300
H 	H 	0.47690 0.06570 0.52890 0.12800
H 	H 	0.29010 0.03200 0.53250 0.12400
H 	H 	0.35430 0.08490 0.52050 0.13300
H 	H 	0.43490 0.91380 0.51560 0.04600
H 	H 	0.25350 0.85560 0.49030 0.01200
H 	H 	0.23900 0.94310 0.50450 0.07900
H 	H 	0.58350 0.07850 0.68280 0.05700
H 	H 	0.79980 0.07610 0.68280 0.07600
H 	H 	0.78890 0.15920 0.66670 0.01300
H 	H 	0.55590 0.98830 0.71150 0.12800
H 	H 	0.54560 0.93060 0.69750 0.12700
H 	H 	0.66820 0.91670 0.69460 0.13200
H 	H 	0.72910 0.96650 0.70770 0.12300
H 	H 	0.54160 0.84560 0.71380 0.10500
H 	H 	0.61150 0.84910 0.72130 0.11900
H 	H 	0.65800 0.04080 0.72910 0.12200
H 	H 	0.70310 0.00350 0.73340 0.11700
H 	H 	0.48290 0.78390 0.74650 0.07500
H 	H 	0.53820 0.93080 0.78370 0.02200
H 	H 	0.61980 0.01830 0.76610 0.05800
H 	H 	0.51260 0.39700 0.67060 0.03500
H 	H 	0.31590 0.19630 0.69470 0.07300
H 	H 	0.39430 0.18600 0.67660 0.02400
H 	H 	0.49550 0.46710 0.69970 0.13700
H 	H 	0.43000 0.46020 0.68920 0.15100
H 	H 	0.31820 0.30370 0.71750 0.12900
H 	H 	0.29780 0.33770 0.70210 0.13200
H 	H 	0.40440 0.50880 0.71490 0.13400
H 	H 	0.32540 0.44360 0.71410 0.13300
H 	H 	0.42790 0.35500 0.72890 0.14400
H 	H 	0.48750 0.43650 0.72770 0.14300
H 	H 	0.32620 0.51560 0.74480 0.06600
H 	H 	0.39800 0.44320 0.78380 0.00400
H 	H 	0.43610 0.39370 0.76470 0.07600
H 	H 	0.79380 0.32070 0.24427 0.07200
H 	H 	0.03020 0.39890 0.25947 0.05400
H 	H 	0.95150 0.39860 0.28007 0.03600
H 	H 	0.84040 0.31680 0.21157 0.12400
H 	H 	0.84850 0.25100 0.21747 0.12100
H 	H 	0.00200 0.30320 0.22737 0.09300
H 	H 	0.04690 0.38710 0.22447 0.09600
H 	H 	0.99450 0.44650 0.20977 0.12300
H 	H 	0.93430 0.41120 0.19557 0.12700
H 	H 	0.96800 0.25810 0.19917 0.12300
H 	H 	0.91510 0.26940 0.18717 0.13300
H 	H 	0.08620 0.52110 0.18227 0.04600
H 	H 	0.14440 0.39790 0.15697 0.01200
H 	H 	0.05690 0.29590 0.17117 0.07800
H 	H 	0.92150 0.50500 0.34947 0.05800
H 	H 	0.92390 0.72370 0.34947 0.07700
H 	H 	0.84080 0.62970 0.33337 0.01300
H 	H 	0.01170 0.56760 0.37817 0.12900
H 	H 	0.06940 0.61500 0.36417 0.12800
H 	H 	0.08330 0.75150 0.36127 0.13300
H 	H 	0.03350 0.76260 0.37437 0.12300
H 	H 	0.15440 0.69600 0.38047 0.10500
H 	H 	0.15090 0.76240 0.38797 0.11900
H 	H 	0.95920 0.61720 0.39577 0.12600
H 	H 	0.99650 0.69960 0.40007 0.12200
H 	H 	0.21610 0.69900 0.41317 0.07500
H 	H 	0.06920 0.60740 0.45037 0.02000
H 	H 	0.98170 0.60150 0.43277 0.06100
H 	H 	0.60300 0.11560 0.33727 0.03200
H 	H 	0.80370 0.11960 0.36137 0.07200
H 	H 	0.81400 0.20830 0.34327 0.02500
H 	H 	0.53290 0.02840 0.36637 0.11900
H 	H 	0.53980 0.96980 0.35587 0.12300
H 	H 	0.69630 0.01450 0.38417 0.11500
H 	H 	0.66230 0.96010 0.36877 0.10700
H 	H 	0.49120 0.89560 0.38157 0.12300
H 	H 	0.55640 0.88180 0.38077 0.12200
H 	H 	0.64500 0.07290 0.39557 0.12800
H 	H 	0.56350 0.05100 0.39437 0.12900
H 	H 	0.48440 0.81060 0.41147 0.06400
H 	H 	0.55680 0.95480 0.45047 -0.00200
H 	H 	0.60630 0.04240 0.43137 0.09100
C 	C 	0.35850 0.49550 0.43051 -0.08600
C 	C 	0.33496 0.49442 0.41415 -0.05800
C 	C 	0.33250 0.44520 0.40247 0.04800
C 	C 	0.35700 0.39830 0.40654 0.07800
C 	C 	0.38230 0.39970 0.42323 -0.13100
C 	C 	0.38300 0.44700 0.43561 0.02100
C 	C 	0.30280 0.43170 0.38416 -0.31200
C 	C 	0.33840 0.39080 0.37574 0.25200
C 	C 	0.34630 0.34720 0.39237 -0.30300
C 	C 	0.40870 0.43570 0.36797 -0.32000
C 	C 	0.41370 0.38430 0.35489 0.01600
C 	C 	0.34970 0.33020 0.35147 0.12200
C 	C 	0.29330 0.33590 0.36111 -0.34800
C 	C 	0.47700 0.39460 0.34665 -0.03400
C 	C 	0.47150 0.34420 0.33544 -0.12200
C 	C 	0.40270 0.28710 0.33183 0.04900
C 	C 	0.34080 0.27830 0.34005 -0.17400
C 	C 	0.53520 0.35250 0.32615 0.35400
C 	C 	0.35785 0.54636 0.44335 0.37800
C 	C 	0.55630 0.68990 0.50676 -0.12400
C 	C 	0.54760 0.62710 0.51645 -0.04900
C 	C 	0.60450 0.63600 0.52576 0.04200
C 	C 	0.67030 0.69790 0.52486 0.08900
C 	C 	0.68020 0.75710 0.51596 -0.15800
C 	C 	0.62300 0.75030 0.50675 0.05800
C 	C 	0.60940 0.58050 0.53752 -0.32700
C 	C 	0.67710 0.62860 0.54805 0.28800
C 	C 	0.72740 0.68580 0.53525 -0.35000
C 	C 	0.71050 0.58330 0.55437 -0.31000
C 	C 	0.67980 0.56180 0.57246 0.04100
C 	C 	0.65110 0.60240 0.57797 0.08900
C 	C 	0.66070 0.65570 0.56390 -0.36700
C 	C 	0.68070 0.51150 0.58354 -0.05300
C 	C 	0.65430 0.50380 0.60029 -0.10600
C 	C 	0.62520 0.54440 0.60583 0.05200
C 	C 	0.62170 0.59300 0.59553 -0.14900
C 	C 	0.65960 0.45170 0.61140 0.37400
C 	C 	0.50090 0.68460 0.49637 0.34900
C 	C 	0.17120 0.46240 0.50547 -0.11500
C 	C 	0.11820 0.47590 0.50952 -0.05400
C 	C 	0.06810 0.43660 0.52172 0.05300
C 	C 	0.06420 0.37140 0.52837 0.07600
C 	C 	0.11920 0.35610 0.52373 -0.14200
C 	C 	0.17110 0.40260 0.51277 0.03800
C 	C 	0.01050 0.44570 0.53014 -0.32500
C 	C 	0.98950 0.40120 0.54575 0.26500
C 	C 	0.00210 0.33650 0.54081 -0.29300
C 	C 	0.91320 0.37310 0.55194 -0.32600
C 	C 	0.91540 0.37100 0.57113 0.04000
C 	C 	0.98320 0.40310 0.57576 0.10400
C 	C 	0.03283 0.43633 0.56133 -0.34800
C 	C 	0.85736 0.34719 0.58224 -0.04200
C 	C 	0.87230 0.35620 0.59995 -0.12000
C 	C 	0.94400 0.39080 0.60546 0.08300
C 	C 	0.99530 0.41280 0.59410 -0.19800
C 	C 	0.81210 0.33610 0.61223 0.39100
C 	C 	0.22950 0.51170 0.49292 0.38700
C 	C 	0.50450 0.86300 0.09718 -0.07900
C 	C 	0.50558 0.84054 0.08082 -0.06500
C 	C 	0.55480 0.88730 0.06914 0.05600
C 	C 	0.60170 0.95870 0.07321 0.06000
C 	C 	0.60030 0.98260 0.08990 -0.10800
C 	C 	0.55300 0.93600 0.10228 0.00900
C 	C 	0.56830 0.87110 0.05083 -0.31000
C 	C 	0.60920 0.94760 0.04241 0.23900
C 	C 	0.65280 0.99910 0.05904 -0.26300
C 	C 	0.56430 0.97300 0.03464 -0.30400
C 	C 	0.61570 0.02940 0.02156 0.01000
C 	C 	0.66980 0.01950 0.01814 0.11100
C 	C 	0.66410 0.95740 0.02778 -0.32900
C 	C 	0.60540 0.08240 0.01332 -0.03200
C 	C 	0.65580 0.12730 0.00211 -0.12100
C 	C 	0.71290 0.11560 0.99850 0.04600
C 	C 	0.72170 0.06250 0.00672 -0.16900
C 	C 	0.64750 0.18270 0.99282 0.35500
C 	C 	0.45364 0.81149 0.11002 0.37600
C 	C 	0.31010 0.86640 0.17343 -0.12500
C 	C 	0.37290 0.92050 0.18312 -0.04600
C 	C 	0.36400 0.96850 0.19243 0.03800
C 	C 	0.30210 0.97240 0.19153 0.08600
C 	C 	0.24290 0.92310 0.18263 -0.15700
C 	C 	0.24970 0.87270 0.17342 0.05800
C 	C 	0.41950 0.02890 0.20419 -0.31700
C 	C 	0.37140 0.04850 0.21472 0.27600
C 	C 	0.31420 0.04160 0.20192 -0.34100
C 	C 	0.41670 0.12720 0.22104 -0.31000
C 	C 	0.43820 0.11800 0.23913 0.05000
C 	C 	0.39760 0.04870 0.24464 0.07200
C 	C 	0.34430 0.00500 0.23057 -0.33100
C 	C 	0.48850 0.16920 0.25021 -0.06200
C 	C 	0.49620 0.15050 0.26696 -0.09600
C 	C 	0.45560 0.08080 0.27250 0.03300
C 	C 	0.40700 0.02870 0.26220 -0.11900
C 	C 	0.54830 0.20790 0.27807 0.37000
C 	C 	0.31540 0.81630 0.16304 0.35000
C 	C 	0.53760 0.70880 0.17214 -0.11100
C 	C 	0.52410 0.64230 0.17619 -0.06700
C 	C 	0.56340 0.63150 0.18839 0.06900
C 	C 	0.62860 0.69280 0.19504 0.08200
C 	C 	0.64390 0.76310 0.19040 -0.14700
C 	C 	0.59740 0.76850 0.17944 0.03700
C 	C 	0.55430 0.56480 0.19681 -0.39700
C 	C 	0.59880 0.58830 0.21242 0.33200
C 	C 	0.66350 0.66560 0.20748 -0.35100
C 	C 	0.62690 0.54010 0.21861 -0.36000
C 	C 	0.62900 0.54440 0.23780 0.04700
C 	C 	0.59690 0.58010 0.24243 0.11800
C 	C 	0.56367 0.59650 0.22800 -0.40600
C 	C 	0.65281 0.51017 0.24891 -0.04900
C 	C 	0.64380 0.51610 0.26662 -0.11400
C 	C 	0.60920 0.55320 0.27213 0.07000
C 	C 	0.58720 0.58250 0.26077 -0.17700
C 	C 	0.66390 0.47600 0.27890 0.38800
C 	C 	0.48830 0.71780 0.15959 0.38600
C 	C 	0.13700 0.64150 0.76385 -0.07700
C 	C 	0.15946 0.66504 0.74749 -0.06700
C 	C 	0.11270 0.66750 0.73581 0.05800
C 	C 	0.04130 0.64300 0.73988 0.05600
C 	C 	0.01740 0.61770 0.75657 -0.10200
C 	C 	0.06400 0.61700 0.76895 0.00500
C 	C 	0.12890 0.69720 0.71750 -0.31000
C 	C 	0.05240 0.66160 0.70908 0.23600
C 	C 	0.00090 0.65370 0.72571 -0.25500
C 	C 	0.02700 0.59130 0.70131 -0.30100
C 	C 	0.97060 0.58630 0.68823 0.00900
C 	C 	0.98050 0.65030 0.68481 0.10900
C 	C 	0.04260 0.70670 0.69445 -0.32700
C 	C 	0.91760 0.52300 0.67999 -0.03200
C 	C 	0.87270 0.52850 0.66878 -0.12200
C 	C 	0.88440 0.59730 0.66517 0.04500
C 	C 	0.93750 0.65920 0.67339 -0.16800
C 	C 	0.81730 0.46480 0.65949 0.35500
C 	C 	0.18851 0.64215 0.77669 0.37500
C 	C 	0.13360 0.44370 0.84010 -0.12400
C 	C 	0.07950 0.45240 0.84979 -0.04700
C 	C 	0.03150 0.39550 0.85910 0.04000
C 	C 	0.02760 0.32970 0.85820 0.08800
C 	C 	0.07690 0.31980 0.84930 -0.15800
C 	C 	0.12730 0.37700 0.84009 0.05800
C 	C 	0.97110 0.39060 0.87086 -0.32100
C 	C 	0.95150 0.32290 0.88139 0.28000
C 	C 	0.95840 0.27260 0.86859 -0.34500
C 	C 	0.87280 0.28950 0.88771 -0.31000
C 	C 	0.88200 0.32020 0.90580 0.04800
C 	C 	0.95130 0.34890 0.91131 0.07700
C 	C 	0.99500 0.33930 0.89724 -0.34200
C 	C 	0.83080 0.31930 0.91688 -0.06000
C 	C 	0.84950 0.34570 0.93363 -0.09800
C 	C 	0.91920 0.37480 0.93917 0.03700
C 	C 	0.97130 0.37830 0.92887 -0.12500
C 	C 	0.79210 0.34040 0.94474 0.37100
C 	C 	0.18370 0.49910 0.82971 0.35000
C 	C 	0.29120 0.82880 0.83881 -0.11500
C 	C 	0.35770 0.88180 0.84286 -0.05400
C 	C 	0.36850 0.93190 0.85506 0.05300
C 	C 	0.30720 0.93580 0.86171 0.07500
C 	C 	0.23690 0.88080 0.85707 -0.14100
C 	C 	0.23150 0.82890 0.84611 0.03700
C 	C 	0.43520 0.98950 0.86348 -0.32200
C 	C 	0.41170 0.01050 0.87909 0.26200
C 	C 	0.33440 0.99790 0.87415 -0.29100
C 	C 	0.45990 0.08680 0.88528 -0.32500
C 	C 	0.45560 0.08460 0.90447 0.04100
C 	C 	0.41990 0.01680 0.90910 0.10300
C 	C 	0.40350 0.96717 0.89467 -0.34600
C 	C 	0.48983 0.14264 0.91558 -0.04300
C 	C 	0.48390 0.12770 0.93329 -0.12000
C 	C 	0.44680 0.05600 0.93880 0.08200
C 	C 	0.41750 0.00470 0.92744 -0.19600
C 	C 	0.52400 0.18790 0.94557 0.39000
C 	C 	0.28220 0.77050 0.82626 0.38700
C 	C 	0.64150 0.50450 0.93051 -0.08600
C 	C 	0.66504 0.50558 0.91415 -0.05800
C 	C 	0.66750 0.55480 0.90247 0.04800
C 	C 	0.64300 0.60170 0.90654 0.07800
C 	C 	0.61770 0.60030 0.92323 -0.13100
C 	C 	0.61700 0.55300 0.93561 0.02100
C 	C 	0.69720 0.56830 0.88416 -0.31200
C 	C 	0.66160 0.60920 0.87574 0.25200
C 	C 	0.65370 0.65280 0.89237 -0.30300
C 	C 	0.59130 0.56430 0.86797 -0.32000
C 	C 	0.58630 0.61570 0.85489 0.01600
C 	C 	0.65030 0.66980 0.85147 0.12200
C 	C 	0.70670 0.66410 0.86111 -0.34800
C 	C 	0.52300 0.60540 0.84665 -0.03400
C 	C 	0.52850 0.65580 0.83544 -0.12200
C 	C 	0.59730 0.71290 0.83183 0.04900
C 	C 	0.65920 0.72170 0.84005 -0.17400
C 	C 	0.46480 0.64750 0.82615 0.35400
C 	C 	0.64215 0.45364 0.94335 0.37800
C 	C 	0.44370 0.31010 0.00676 -0.12400
C 	C 	0.45240 0.37290 0.01645 -0.04900
C 	C 	0.39550 0.36400 0.02576 0.04200
C 	C 	0.32970 0.30210 0.02486 0.08900
C 	C 	0.31980 0.24290 0.01596 -0.15800
C 	C 	0.37700 0.24970 0.00675 0.05800
C 	C 	0.39060 0.41950 0.03752 -0.32700
C 	C 	0.32290 0.37140 0.04805 0.28800
C 	C 	0.27260 0.31420 0.03525 -0.35000
C 	C 	0.28950 0.41670 0.05437 -0.31000
C 	C 	0.32020 0.43820 0.07246 0.04100
C 	C 	0.34890 0.39760 0.07797 0.08900
C 	C 	0.33930 0.34430 0.06390 -0.36700
C 	C 	0.31930 0.48850 0.08354 -0.05300
C 	C 	0.34570 0.49620 0.10029 -0.10600
C 	C 	0.37480 0.45560 0.10583 0.05200
C 	C 	0.37830 0.40700 0.09553 -0.14900
C 	C 	0.34040 0.54830 0.11140 0.37400
C 	C 	0.49910 0.31540 0.99637 0.34900
C 	C 	0.82880 0.53760 0.00547 -0.11500
C 	C 	0.88180 0.52410 0.00952 -0.05400
C 	C 	0.93190 0.56340 0.02172 0.05300
C 	C 	0.93580 0.62860 0.02837 0.07600
C 	C 	0.88080 0.64390 0.02373 -0.14200
C 	C 	0.82890 0.59740 0.01277 0.03800
C 	C 	0.98950 0.55430 0.03014 -0.32500
C 	C 	0.01050 0.59880 0.04575 0.26500
C 	C 	0.99790 0.66350 0.04081 -0.29300
C 	C 	0.08680 0.62690 0.05194 -0.32600
C 	C 	0.08460 0.62900 0.07113 0.04000
C 	C 	0.01680 0.59690 0.07576 0.10400
C 	C 	0.96717 0.56367 0.06133 -0.34800
C 	C 	0.14264 0.65281 0.08224 -0.04200
C 	C 	0.12770 0.64380 0.09995 -0.12000
C 	C 	0.05600 0.60920 0.10546 0.08300
C 	C 	0.00470 0.58720 0.09410 -0.19800
C 	C 	0.18790 0.66390 0.11223 0.39100
C 	C 	0.77050 0.48830 0.99292 0.38700
C 	C 	0.49550 0.13700 0.59718 -0.07900
C 	C 	0.49442 0.15946 0.58082 -0.06500
C 	C 	0.44520 0.11270 0.56914 0.05600
C 	C 	0.39830 0.04130 0.57321 0.06000
C 	C 	0.39970 0.01740 0.58990 -0.10800
C 	C 	0.44700 0.06400 0.60228 0.00900
C 	C 	0.43170 0.12890 0.55083 -0.31000
C 	C 	0.39080 0.05240 0.54241 0.23900
C 	C 	0.34720 0.00090 0.55904 -0.26300
C 	C 	0.43570 0.02700 0.53464 -0.30400
C 	C 	0.38430 0.97060 0.52156 0.01000
C 	C 	0.33020 0.98050 0.51814 0.11100
C 	C 	0.33590 0.04260 0.52778 -0.32900
C 	C 	0.39460 0.91760 0.51332 -0.03200
C 	C 	0.34420 0.87270 0.50211 -0.12100
C 	C 	0.28710 0.88440 0.49850 0.04600
C 	C 	0.27830 0.93750 0.50672 -0.16900
C 	C 	0.35250 0.81730 0.49282 0.35500
C 	C 	0.54636 0.18851 0.61002 0.37600
C 	C 	0.68990 0.13360 0.67343 -0.12500
C 	C 	0.62710 0.07950 0.68312 -0.04600
C 	C 	0.63600 0.03150 0.69243 0.03800
C 	C 	0.69790 0.02760 0.69153 0.08600
C 	C 	0.75710 0.07690 0.68263 -0.15700
C 	C 	0.75030 0.12730 0.67342 0.05800
C 	C 	0.58050 0.97110 0.70419 -0.31700
C 	C 	0.62860 0.95150 0.71472 0.27600
C 	C 	0.68580 0.95840 0.70192 -0.34100
C 	C 	0.58330 0.87280 0.72104 -0.31000
C 	C 	0.56180 0.88200 0.73913 0.05000
C 	C 	0.60240 0.95130 0.74464 0.07200
C 	C 	0.65570 0.99500 0.73057 -0.33100
C 	C 	0.51150 0.83080 0.75021 -0.06200
C 	C 	0.50380 0.84950 0.76696 -0.09600
C 	C 	0.54440 0.91920 0.77250 0.03300
C 	C 	0.59300 0.97130 0.76220 -0.11900
C 	C 	0.45170 0.79210 0.77807 0.37000
C 	C 	0.68460 0.18370 0.66304 0.35000
C 	C 	0.46240 0.29120 0.67214 -0.11100
C 	C 	0.47590 0.35770 0.67619 -0.06700
C 	C 	0.43660 0.36850 0.68839 0.06900
C 	C 	0.37140 0.30720 0.69504 0.08200
C 	C 	0.35610 0.23690 0.69040 -0.14700
C 	C 	0.40260 0.23150 0.67944 0.03700
C 	C 	0.44570 0.43520 0.69681 -0.39700
C 	C 	0.40120 0.41170 0.71242 0.33200
C 	C 	0.33650 0.33440 0.70748 -0.35100
C 	C 	0.37310 0.45990 0.71861 -0.36000
C 	C 	0.37100 0.45560 0.73780 0.04700
C 	C 	0.40310 0.41990 0.74243 0.11800
C 	C 	0.43633 0.40350 0.72800 -0.40600
C 	C 	0.34719 0.48983 0.74891 -0.04900
C 	C 	0.35620 0.48390 0.76662 -0.11400
C 	C 	0.39080 0.44680 0.77213 0.07000
C 	C 	0.41280 0.41750 0.76077 -0.17700
C 	C 	0.33610 0.52400 0.77890 0.38800
C 	C 	0.51170 0.28220 0.65959 0.38600
C 	C 	0.86300 0.35850 0.26385 -0.07700
C 	C 	0.84054 0.33496 0.24749 -0.06700
C 	C 	0.88730 0.33250 0.23581 0.05800
C 	C 	0.95870 0.35700 0.23988 0.05600
C 	C 	0.98260 0.38230 0.25657 -0.10200
C 	C 	0.93600 0.38300 0.26895 0.00500
C 	C 	0.87110 0.30280 0.21750 -0.31000
C 	C 	0.94760 0.33840 0.20908 0.23600
C 	C 	0.99910 0.34630 0.22571 -0.25500
C 	C 	0.97300 0.40870 0.20131 -0.30100
C 	C 	0.02940 0.41370 0.18823 0.00900
C 	C 	0.01950 0.34970 0.18481 0.10900
C 	C 	0.95740 0.29330 0.19445 -0.32700
C 	C 	0.08240 0.47700 0.17999 -0.03200
C 	C 	0.12730 0.47150 0.16878 -0.12200
C 	C 	0.11560 0.40270 0.16517 0.04500
C 	C 	0.06250 0.34080 0.17339 -0.16800
C 	C 	0.18270 0.53520 0.15949 0.35500
C 	C 	0.81149 0.35785 0.27669 0.37500
C 	C 	0.86640 0.55630 0.34010 -0.12400
C 	C 	0.92050 0.54760 0.34979 -0.04700
C 	C 	0.96850 0.60450 0.35910 0.04000
C 	C 	0.97240 0.67030 0.35820 0.08800
C 	C 	0.92310 0.68020 0.34930 -0.15800
C 	C 	0.87270 0.62300 0.34009 0.05800
C 	C 	0.02890 0.60940 0.37086 -0.32100
C 	C 	0.04850 0.67710 0.38139 0.28000
C 	C 	0.04160 0.72740 0.36859 -0.34500
C 	C 	0.12720 0.71050 0.38771 -0.31000
C 	C 	0.11800 0.67980 0.40580 0.04800
C 	C 	0.04870 0.65110 0.41131 0.07700
C 	C 	0.00500 0.66070 0.39724 -0.34200
C 	C 	0.16920 0.68070 0.41688 -0.06000
C 	C 	0.15050 0.65430 0.43363 -0.09800
C 	C 	0.08080 0.62520 0.43917 0.03700
C 	C 	0.02870 0.62170 0.42887 -0.12500
C 	C 	0.20790 0.65960 0.44474 0.37100
C 	C 	0.81630 0.50090 0.32971 0.35000
C 	C 	0.70880 0.17120 0.33881 -0.11500
C 	C 	0.64230 0.11820 0.34286 -0.05400
C 	C 	0.63150 0.06810 0.35506 0.05300
C 	C 	0.69280 0.06420 0.36171 0.07500
C 	C 	0.76310 0.11920 0.35707 -0.14100
C 	C 	0.76850 0.17110 0.34611 0.03700
C 	C 	0.56480 0.01050 0.36348 -0.32200
C 	C 	0.58830 0.98950 0.37909 0.26200
C 	C 	0.66560 0.00210 0.37415 -0.29100
C 	C 	0.54010 0.91320 0.38528 -0.32500
C 	C 	0.54440 0.91540 0.40447 0.04100
C 	C 	0.58010 0.98320 0.40910 0.10300
C 	C 	0.59650 0.03283 0.39467 -0.34600
C 	C 	0.51017 0.85736 0.41558 -0.04300
C 	C 	0.51610 0.87230 0.43329 -0.12000
C 	C 	0.55320 0.94400 0.43880 0.08200
C 	C 	0.58250 0.99530 0.42744 -0.19600
C 	C 	0.47600 0.81210 0.44557 0.39000
C 	C 	0.71780 0.22950 0.32626 0.38700
O 	O 	0.34925 0.67094 0.47257 -0.96300
O 	O 	0.37708 0.54386 0.45850 -0.49400
O 	O 	0.33692 0.58709 0.43765 -0.50800
O 	O 	0.59270 0.41040 0.32823 -0.50900
O 	O 	0.52720 0.29937 0.31726 -0.50100
O 	O 	0.44447 0.62032 0.49355 -0.47800
O 	O 	0.50466 0.74136 0.49024 -0.49200
O 	O 	0.68447 0.41473 0.60470 -0.49200
O 	O 	0.64214 0.44863 0.62705 -0.48500
O 	O 	0.28462 0.50800 0.49196 -0.49600
O 	O 	0.21467 0.54747 0.48355 -0.53800
O 	O 	0.75245 0.31823 0.60575 -0.51100
O 	O 	0.82597 0.34179 0.62807 -0.49800
O 	O 	0.32906 0.67831 0.13924 -0.96300
O 	O 	0.45614 0.83322 0.12517 -0.49400
O 	O 	0.41291 0.74983 0.10432 -0.50700
O 	O 	0.58960 0.18230 0.99490 -0.51000
O 	O 	0.70063 0.22783 0.98393 -0.50100
O 	O 	0.37968 0.82415 0.16022 -0.47900
O 	O 	0.25864 0.76330 0.15691 -0.49200
O 	O 	0.58527 0.26974 0.27137 -0.49200
O 	O 	0.55137 0.19351 0.29372 -0.48300
O 	O 	0.49200 0.77662 0.15863 -0.49600
O 	O 	0.45253 0.66720 0.15022 -0.53800
O 	O 	0.68177 0.43422 0.27242 -0.51000
O 	O 	0.65821 0.48418 0.29474 -0.49700
O 	O 	0.32169 0.65075 0.80591 -0.96300
O 	O 	0.16678 0.62292 0.79184 -0.49300
O 	O 	0.25017 0.66308 0.77099 -0.50700
O 	O 	0.81770 0.40730 0.66157 -0.51000
O 	O 	0.77217 0.47280 0.65060 -0.50200
O 	O 	0.17585 0.55553 0.82689 -0.47800
O 	O 	0.23670 0.49534 0.82358 -0.49200
O 	O 	0.73026 0.31553 0.93804 -0.49200
O 	O 	0.80649 0.35786 0.96039 -0.48300
O 	O 	0.22338 0.71538 0.82530 -0.49600
O 	O 	0.33280 0.78533 0.81689 -0.53800
O 	O 	0.56578 0.24755 0.93909 -0.51100
O 	O 	0.51582 0.17403 0.96141 -0.49800
O 	O 	0.65075 0.32906 0.97257 -0.96300
O 	O 	0.62292 0.45614 0.95850 -0.49400
O 	O 	0.66308 0.41291 0.93765 -0.50800
O 	O 	0.40730 0.58960 0.82823 -0.50900
O 	O 	0.47280 0.70063 0.81726 -0.50100
O 	O 	0.55553 0.37968 0.99355 -0.47800
O 	O 	0.49534 0.25864 0.99024 -0.49200
O 	O 	0.31553 0.58527 0.10470 -0.49200
O 	O 	0.35786 0.55137 0.12705 -0.48500
O 	O 	0.71538 0.49200 0.99196 -0.49600
O 	O 	0.78533 0.45253 0.98355 -0.53800
O 	O 	0.24755 0.68177 0.10575 -0.51100
O 	O 	0.17403 0.65821 0.12807 -0.49800
O 	O 	0.67094 0.32169 0.63924 -0.96300
O 	O 	0.54386 0.16678 0.62517 -0.49400
O 	O 	0.58709 0.25017 0.60432 -0.50700
O 	O 	0.41040 0.81770 0.49490 -0.51000
O 	O 	0.29937 0.77217 0.48393 -0.50100
O 	O 	0.62032 0.17585 0.66022 -0.47900
O 	O 	0.74136 0.23670 0.65691 -0.49200
O 	O 	0.41473 0.73026 0.77137 -0.49200
O 	O 	0.44863 0.80649 0.79372 -0.48300
O 	O 	0.50800 0.22338 0.65863 -0.49600
O 	O 	0.54747 0.33280 0.65022 -0.53800
O 	O 	0.31823 0.56578 0.77242 -0.51000
O 	O 	0.34179 0.51582 0.79474 -0.49700
O 	O 	0.67831 0.34925 0.30591 -0.96300
O 	O 	0.83322 0.37708 0.29184 -0.49300
O 	O 	0.74983 0.33692 0.27099 -0.50700
O 	O 	0.18230 0.59270 0.16157 -0.51000
O 	O 	0.22783 0.52720 0.15060 -0.50200
O 	O 	0.82415 0.44447 0.32689 -0.47800
O 	O 	0.76330 0.50466 0.32358 -0.49200
O 	O 	0.26974 0.68447 0.43804 -0.49200
O 	O 	0.19351 0.64214 0.46039 -0.48300
O 	O 	0.77662 0.28462 0.32530 -0.49600
O 	O 	0.66720 0.21467 0.31689 -0.53800
O 	O 	0.43422 0.75245 0.43909 -0.51100
O 	O 	0.48418 0.82597 0.46141 -0.49800
