data_crystal

_cell_length_a 9.66730
_cell_length_b 9.66730
_cell_length_c 14.86000
_cell_angle_alpha 90.00000
_cell_angle_beta  90.00000
_cell_angle_gamma 120.00000

_symmetry_space_group_name_	'P 1'
_symmetry_space_group_name_H-M	'P 1'

loop_
_symmetry_equiv_pos_as_xyz
  x,y,z

loop_
_atom_site_label
_atom_site_type_symbol
_atom_site_fract_x
_atom_site_fract_y
_atom_site_fract_z
_atom_site_charge
P 	P 	0.60843 0.76331 0.23980 0.72700
O 	O 	0.77610 0.78090 0.22678 -0.73600
O 	O 	0.47940 0.61520 0.19288 -0.43100
O 	O 	0.70560 0.62190 0.03767 -0.42900
O 	O 	0.56580 0.74510 0.34208 -0.76400
P 	P 	0.23669 0.84512 0.90647 0.73000
O 	O 	0.21910 0.99520 0.89345 -0.73200
O 	O 	0.38480 0.86420 0.85955 -0.43000
O 	O 	0.37810 0.08370 0.70434 -0.43000
O 	O 	0.25490 0.82070 0.00875 -0.76600
P 	P 	0.15488 0.39157 0.57313 0.72800
O 	O 	0.00480 0.22390 0.56011 -0.73400
O 	O 	0.13580 0.52060 0.52621 -0.43000
O 	O 	0.91630 0.29440 0.37100 -0.42800
O 	O 	0.17930 0.43420 0.67541 -0.76400
P 	P 	0.39157 0.23669 0.73980 0.72800
O 	O 	0.22390 0.21910 0.72678 -0.73500
O 	O 	0.52060 0.38480 0.69288 -0.43000
O 	O 	0.29440 0.37810 0.53767 -0.42900
O 	O 	0.43420 0.25490 0.84208 -0.76400
P 	P 	0.76331 0.15488 0.40647 0.72800
O 	O 	0.78090 0.00480 0.39345 -0.73400
O 	O 	0.61520 0.13580 0.35955 -0.43000
O 	O 	0.62190 0.91630 0.20434 -0.43000
O 	O 	0.74510 0.17930 0.50875 -0.76400
P 	P 	0.84512 0.60843 0.07313 0.72800
O 	O 	0.99520 0.77610 0.06011 -0.73000
O 	O 	0.86420 0.47940 0.02621 -0.42800
O 	O 	0.08370 0.70560 0.87100 -0.42700
O 	O 	0.82070 0.56580 0.17541 -0.76400
P 	P 	0.76331 0.60843 0.42687 0.72800
O 	O 	0.78090 0.77610 0.43989 -0.73400
O 	O 	0.61520 0.47940 0.47379 -0.43000
O 	O 	0.62190 0.70560 0.62900 -0.42900
O 	O 	0.74510 0.56580 0.32459 -0.76400
P 	P 	0.84512 0.23669 0.76020 0.72800
O 	O 	0.99520 0.21910 0.77322 -0.73800
O 	O 	0.86420 0.38480 0.80712 -0.43200
O 	O 	0.08370 0.37810 0.96233 -0.42700
O 	O 	0.82070 0.25490 0.65792 -0.76400
P 	P 	0.39157 0.15488 0.09353 0.72800
O 	O 	0.22390 0.00480 0.10655 -0.73300
O 	O 	0.52060 0.13580 0.14045 -0.42900
O 	O 	0.29440 0.91630 0.29566 -0.43000
O 	O 	0.43420 0.17930 0.99125 -0.76500
P 	P 	0.23669 0.39157 0.92687 0.72800
O 	O 	0.21910 0.22390 0.93989 -0.73400
O 	O 	0.38480 0.52060 0.97379 -0.43000
O 	O 	0.37810 0.29440 0.12900 -0.43000
O 	O 	0.25490 0.43420 0.82459 -0.76500
P 	P 	0.15488 0.76331 0.26020 0.72800
O 	O 	0.00480 0.78090 0.27322 -0.73700
O 	O 	0.13580 0.61520 0.30712 -0.43100
O 	O 	0.91630 0.62190 0.46233 -0.42900
O 	O 	0.17930 0.74510 0.15792 -0.76300
P 	P 	0.60843 0.84512 0.59353 0.72800
O 	O 	0.77610 0.99520 0.60655 -0.73400
O 	O 	0.47940 0.86420 0.64045 -0.43000
O 	O 	0.70560 0.08370 0.79566 -0.43000
O 	O 	0.56580 0.82070 0.49125 -0.76400
Zn	Zn	0.48981 0.51019 0.08333 1.24600
Zn	Zn	0.48981 0.97962 0.75000 1.24600
Zn	Zn	0.02038 0.51019 0.41667 1.24600
Zn	Zn	0.51019 0.48981 0.58333 1.24600
Zn	Zn	0.51019 0.02038 0.25000 1.24600
Zn	Zn	0.97962 0.48981 0.91667 1.24400
B 	B 	0.83610 0.67220 0.25000 2.01700
B 	B 	0.32780 0.16390 0.91667 2.01200
B 	B 	0.83610 0.16390 0.58333 2.01300
B 	B 	0.16390 0.32780 0.75000 2.01800
B 	B 	0.67220 0.83610 0.41667 2.01400
B 	B 	0.16390 0.83610 0.08333 2.00600
