data_crystal

_cell_length_a 10.17630
_cell_length_b 11.15980
_cell_length_c 14.85570
_cell_angle_alpha 90.00000
_cell_angle_beta  107.03500
_cell_angle_gamma 90.00000

_symmetry_space_group_name_	'P 1'
_symmetry_space_group_name_H-M	'P 1'

loop_
_symmetry_equiv_pos_as_xyz
  x,y,z

loop_
_atom_site_label
_atom_site_type_symbol
_atom_site_fract_x
_atom_site_fract_y
_atom_site_fract_z
_atom_site_charge
Cu	Cu	0.03066 0.25026 -0.00000 0.90100
O 	O 	0.85090 0.17220 0.99140 -0.30100
O 	O 	0.70700 0.06760 0.04630 -0.21800
O 	O 	0.98750 0.36550 0.08440 -0.39000
O 	O 	0.86710 0.42350 0.17870 -0.23800
O 	O 	0.94010 0.88440 0.07560 -0.37700
O 	O 	0.85570 0.81840 0.19050 -0.24400
N 	N 	0.21340 0.32910 0.01810 -0.20100
C 	C 	0.21880 0.44880 0.02910 0.05100
H 	H 	0.14470 0.48720 0.04120 0.02000
C 	C 	0.32790 0.51680 0.02330 -0.05300
H 	H 	0.32570 0.59950 0.03090 0.05800
C 	C 	0.44160 0.46420 0.00630 -0.04200
C 	C 	0.43910 0.33920 -0.00000 -0.10400
H 	H 	0.51470 0.29840 0.99220 0.11600
C 	C 	0.32530 0.27580 0.00520 0.00300
H 	H 	0.32590 0.19280 0.99960 0.08600
C 	C 	0.93320 0.34810 0.15120 0.32000
C 	C 	0.96310 0.22800 0.20150 -0.05800
C 	C 	0.81930 0.11900 0.05640 0.26100
C 	C 	0.92010 0.11990 0.15540 -0.04200
C 	C 	0.95780 0.01190 0.20330 -0.03400
C 	C 	0.91240 0.89430 0.15300 0.33300
Cu	Cu	0.96934 0.25026 0.50000 0.91900
O 	O 	0.14910 0.17220 0.50860 -0.35000
O 	O 	0.29300 0.06760 0.45370 -0.21800
O 	O 	0.01250 0.36550 0.41560 -0.37700
O 	O 	0.13290 0.42350 0.32130 -0.22900
O 	O 	0.05990 0.88440 0.42440 -0.36800
O 	O 	0.14430 0.81840 0.30950 -0.23900
N 	N 	0.78660 0.32910 0.48190 -0.21700
C 	C 	0.78120 0.44880 0.47090 0.09300
H 	H 	0.85530 0.48720 0.45880 0.01300
C 	C 	0.67210 0.51680 0.47670 -0.12100
H 	H 	0.67430 0.59950 0.46910 0.09200
C 	C 	0.55840 0.46420 0.49370 0.07100
C 	C 	0.56090 0.33920 0.50000 -0.12100
H 	H 	0.48530 0.29840 0.50780 0.09800
C 	C 	0.67470 0.27580 0.49480 0.09200
H 	H 	0.67410 0.19280 0.50040 0.02700
C 	C 	0.06680 0.34810 0.34880 0.31800
C 	C 	0.03690 0.22800 0.29850 -0.04500
C 	C 	0.18070 0.11900 0.44360 0.31400
C 	C 	0.07990 0.11990 0.34460 -0.05800
C 	C 	0.04220 0.01190 0.29670 -0.02100
C 	C 	0.08760 0.89430 0.34700 0.32600
Cu	Cu	0.96934 0.74974 -0.00000 0.90400
O 	O 	0.14910 0.82780 0.00860 -0.39100
O 	O 	0.29300 0.93240 0.95370 -0.21500
O 	O 	0.01250 0.63450 0.91560 -0.35600
O 	O 	0.13290 0.57650 0.82130 -0.21700
O 	O 	0.05990 0.11560 0.92440 -0.35000
O 	O 	0.14430 0.18160 0.80950 -0.22800
N 	N 	0.78660 0.67090 0.98190 -0.25700
C 	C 	0.78120 0.55120 0.97090 0.17400
H 	H 	0.85530 0.51280 0.95880 -0.00500
C 	C 	0.67210 0.48320 0.97670 -0.23900
H 	H 	0.67430 0.40050 0.96910 0.14200
C 	C 	0.55840 0.53580 0.99370 0.26800
C 	C 	0.56090 0.66080 -0.00000 -0.38200
H 	H 	0.48530 0.70160 0.00780 0.17900
C 	C 	0.67470 0.72420 0.99480 0.32200
H 	H 	0.67410 0.80720 0.00040 -0.07700
C 	C 	0.06680 0.65190 0.84880 0.31600
C 	C 	0.03690 0.77200 0.79850 -0.03900
C 	C 	0.18070 0.88100 0.94360 0.36000
C 	C 	0.07990 0.88010 0.84460 -0.06500
C 	C 	0.04220 0.98810 0.79670 -0.01700
C 	C 	0.08760 0.10570 0.84700 0.32100
Cu	Cu	0.03066 0.74974 0.50000 0.91900
O 	O 	0.85090 0.82780 0.49140 -0.35100
O 	O 	0.70700 0.93240 0.54630 -0.21600
O 	O 	0.98750 0.63450 0.58440 -0.37700
O 	O 	0.86710 0.57650 0.67870 -0.22700
O 	O 	0.94010 0.11560 0.57560 -0.36800
O 	O 	0.85570 0.18160 0.69050 -0.23500
N 	N 	0.21340 0.67090 0.51810 -0.21600
C 	C 	0.21880 0.55120 0.52910 0.09400
H 	H 	0.14470 0.51280 0.54120 0.01400
C 	C 	0.32790 0.48320 0.52330 -0.12100
H 	H 	0.32570 0.40050 0.53090 0.09300
C 	C 	0.44160 0.53580 0.50630 0.07100
C 	C 	0.43910 0.66080 0.50000 -0.12100
H 	H 	0.51470 0.70160 0.49220 0.09800
C 	C 	0.32530 0.72420 0.50520 0.09200
H 	H 	0.32590 0.80720 0.49960 0.02700
C 	C 	0.93320 0.65190 0.65120 0.32000
C 	C 	0.96310 0.77200 0.70150 -0.05200
C 	C 	0.81930 0.88100 0.55640 0.31300
C 	C 	0.92010 0.88010 0.65540 -0.05200
C 	C 	0.95780 0.98810 0.70330 -0.02600
C 	C 	0.91240 0.10570 0.65300 0.32700
