data_crystal

_cell_length_a 43.12700
_cell_length_b 43.12700
_cell_length_c 43.12700
_cell_angle_alpha 90.00000
_cell_angle_beta  90.00000
_cell_angle_gamma 90.00000

_symmetry_space_group_name_	'P 1'
_symmetry_space_group_name_H-M	'P 1'

loop_
_symmetry_equiv_pos_as_xyz
  x,y,z

loop_
_atom_site_label
_atom_site_type_symbol
_atom_site_fract_x
_atom_site_fract_y
_atom_site_fract_z
_atom_site_charge
C 	C 	0.12220 0.32070 0.54184 0.36400
C 	C 	0.10616 0.30410 0.56664 -0.10000
C 	C 	0.11600 0.27460 0.57640 0.00000
H 	H 	0.13300 0.26470 0.56650 0.04400
C 	C 	0.14470 0.22380 0.61360 -0.03800
H 	H 	0.15900 0.23910 0.60660 0.04600
C 	C 	0.15430 0.19550 0.62650 -0.06000
H 	H 	0.17560 0.19230 0.63140 0.04300
C 	C 	0.08840 0.20590 0.61850 -0.03700
H 	H 	0.06690 0.21000 0.61580 0.04400
C 	C 	0.12970 0.17720 0.59980 -0.07100
H 	H 	0.13560 0.16140 0.58560 0.05300
O 	O 	0.14730 0.30814 0.53156 -0.40500
O 	O 	0.11089 0.34526 0.53202 -0.41200
C 	C 	0.12220 0.82070 0.04184 0.36400
C 	C 	0.10616 0.80410 0.06664 -0.10100
C 	C 	0.11600 0.77460 0.07640 0.00000
H 	H 	0.13300 0.76470 0.06650 0.04400
C 	C 	0.14470 0.72380 0.11360 -0.03900
H 	H 	0.15900 0.73910 0.10660 0.04400
C 	C 	0.15430 0.69550 0.12650 -0.06200
H 	H 	0.17560 0.69230 0.13140 0.04200
C 	C 	0.08840 0.70590 0.11850 -0.03800
H 	H 	0.06690 0.71000 0.11580 0.04200
C 	C 	0.12970 0.67720 0.09980 -0.07200
H 	H 	0.13560 0.66140 0.08560 0.05100
O 	O 	0.14730 0.80814 0.03156 -0.40700
O 	O 	0.11089 0.84526 0.03202 -0.41400
C 	C 	0.62220 0.32070 0.04184 0.36300
C 	C 	0.60616 0.30410 0.06664 -0.10200
C 	C 	0.61600 0.27460 0.07640 -0.00100
H 	H 	0.63300 0.26470 0.06650 0.04300
C 	C 	0.64470 0.22380 0.11360 -0.03900
H 	H 	0.65900 0.23910 0.10660 0.04400
C 	C 	0.65430 0.19550 0.12650 -0.06200
H 	H 	0.67560 0.19230 0.13140 0.04200
C 	C 	0.58840 0.20590 0.11850 -0.03800
H 	H 	0.56690 0.21000 0.11580 0.04300
C 	C 	0.62970 0.17720 0.09980 -0.07200
H 	H 	0.63560 0.16140 0.08560 0.05100
O 	O 	0.64730 0.30814 0.03156 -0.40700
O 	O 	0.61089 0.34526 0.03202 -0.41400
C 	C 	0.62220 0.82070 0.54184 0.36300
C 	C 	0.60616 0.80410 0.56664 -0.10100
C 	C 	0.61600 0.77460 0.57640 -0.00200
H 	H 	0.63300 0.76470 0.56650 0.04300
C 	C 	0.64470 0.72380 0.61360 -0.03900
H 	H 	0.65900 0.73910 0.60660 0.04400
C 	C 	0.65430 0.69550 0.62650 -0.06200
H 	H 	0.67560 0.69230 0.63140 0.04200
C 	C 	0.58840 0.70590 0.61850 -0.03800
H 	H 	0.56690 0.71000 0.61580 0.04400
C 	C 	0.62970 0.67720 0.59980 -0.07200
H 	H 	0.63560 0.66140 0.58560 0.05200
O 	O 	0.64730 0.80814 0.53156 -0.40600
O 	O 	0.61089 0.84526 0.53202 -0.41200
C 	C 	0.87780 0.67930 0.54184 0.36300
C 	C 	0.89384 0.69590 0.56664 -0.10000
C 	C 	0.88400 0.72540 0.57640 -0.00200
H 	H 	0.86700 0.73530 0.56650 0.04400
C 	C 	0.85530 0.77620 0.61360 -0.03900
H 	H 	0.84100 0.76090 0.60660 0.04400
C 	C 	0.84570 0.80450 0.62650 -0.06200
H 	H 	0.82440 0.80770 0.63140 0.04200
C 	C 	0.91160 0.79410 0.61850 -0.03800
H 	H 	0.93310 0.79000 0.61580 0.04400
C 	C 	0.87030 0.82280 0.59980 -0.07200
H 	H 	0.86440 0.83860 0.58560 0.05200
O 	O 	0.85270 0.69186 0.53156 -0.40600
O 	O 	0.88911 0.65474 0.53202 -0.41200
C 	C 	0.87780 0.17930 0.04184 0.36300
C 	C 	0.89384 0.19590 0.06664 -0.10100
C 	C 	0.88400 0.22540 0.07640 -0.00200
H 	H 	0.86700 0.23530 0.06650 0.04300
C 	C 	0.85530 0.27620 0.11360 -0.03900
H 	H 	0.84100 0.26090 0.10660 0.04400
C 	C 	0.84570 0.30450 0.12650 -0.06200
H 	H 	0.82440 0.30770 0.13140 0.04200
C 	C 	0.91160 0.29410 0.11850 -0.03800
H 	H 	0.93310 0.29000 0.11580 0.04400
C 	C 	0.87030 0.32280 0.09980 -0.07200
H 	H 	0.86440 0.33860 0.08560 0.05200
O 	O 	0.85270 0.19186 0.03156 -0.40700
O 	O 	0.88911 0.15474 0.03202 -0.41300
C 	C 	0.37780 0.67930 0.04184 0.36300
C 	C 	0.39384 0.69590 0.06664 -0.10200
C 	C 	0.38400 0.72540 0.07640 -0.00100
H 	H 	0.36700 0.73530 0.06650 0.04300
C 	C 	0.35530 0.77620 0.11360 -0.03900
H 	H 	0.34100 0.76090 0.10660 0.04400
C 	C 	0.34570 0.80450 0.12650 -0.06200
H 	H 	0.32440 0.80770 0.13140 0.04200
C 	C 	0.41160 0.79410 0.11850 -0.03800
H 	H 	0.43310 0.79000 0.11580 0.04300
C 	C 	0.37030 0.82280 0.09980 -0.07200
H 	H 	0.36440 0.83860 0.08560 0.05200
O 	O 	0.35270 0.69186 0.03156 -0.40700
O 	O 	0.38911 0.65474 0.03202 -0.41400
C 	C 	0.37780 0.17930 0.54184 0.36300
C 	C 	0.39384 0.19590 0.56664 -0.10100
C 	C 	0.38400 0.22540 0.57640 -0.00100
H 	H 	0.36700 0.23530 0.56650 0.04400
C 	C 	0.35530 0.27620 0.61360 -0.03900
H 	H 	0.34100 0.26090 0.60660 0.04500
C 	C 	0.34570 0.30450 0.62650 -0.06200
H 	H 	0.32440 0.30770 0.63140 0.04200
C 	C 	0.41160 0.29410 0.61850 -0.03800
H 	H 	0.43310 0.29000 0.61580 0.04400
C 	C 	0.37030 0.32280 0.59980 -0.07200
H 	H 	0.36440 0.33860 0.58560 0.05200
O 	O 	0.35270 0.19186 0.53156 -0.40600
O 	O 	0.38911 0.15474 0.53202 -0.41200
C 	C 	0.87780 0.32070 0.45816 0.36300
C 	C 	0.89384 0.30410 0.43336 -0.10000
C 	C 	0.88400 0.27460 0.42360 -0.00200
H 	H 	0.86700 0.26470 0.43350 0.04400
C 	C 	0.85530 0.22380 0.38640 -0.03900
H 	H 	0.84100 0.23910 0.39340 0.04400
C 	C 	0.84570 0.19550 0.37350 -0.06200
H 	H 	0.82440 0.19230 0.36860 0.04200
C 	C 	0.91160 0.20590 0.38150 -0.03800
H 	H 	0.93310 0.21000 0.38420 0.04400
C 	C 	0.87030 0.17720 0.40020 -0.07200
H 	H 	0.86440 0.16140 0.41440 0.05200
O 	O 	0.85270 0.30814 0.46844 -0.40600
O 	O 	0.88911 0.34526 0.46798 -0.41200
C 	C 	0.87780 0.82070 0.95816 0.36200
C 	C 	0.89384 0.80410 0.93336 -0.09900
C 	C 	0.88400 0.77460 0.92360 -0.00200
H 	H 	0.86700 0.76470 0.93350 0.04400
C 	C 	0.85530 0.72380 0.88640 -0.03900
H 	H 	0.84100 0.73910 0.89340 0.04500
C 	C 	0.84570 0.69550 0.87350 -0.06200
H 	H 	0.82440 0.69230 0.86860 0.04200
C 	C 	0.91160 0.70590 0.88150 -0.03800
H 	H 	0.93310 0.71000 0.88420 0.04500
C 	C 	0.87030 0.67720 0.90020 -0.07200
H 	H 	0.86440 0.66140 0.91440 0.05200
O 	O 	0.85270 0.80814 0.96844 -0.40300
O 	O 	0.88911 0.84526 0.96798 -0.40900
C 	C 	0.37780 0.32070 0.95816 0.36300
C 	C 	0.39384 0.30410 0.93336 -0.10000
C 	C 	0.38400 0.27460 0.92360 -0.00200
H 	H 	0.36700 0.26470 0.93350 0.04400
C 	C 	0.35530 0.22380 0.88640 -0.03900
H 	H 	0.34100 0.23910 0.89340 0.04500
C 	C 	0.34570 0.19550 0.87350 -0.06100
H 	H 	0.32440 0.19230 0.86860 0.04200
C 	C 	0.41160 0.20590 0.88150 -0.03800
H 	H 	0.43310 0.21000 0.88420 0.04400
C 	C 	0.37030 0.17720 0.90020 -0.07200
H 	H 	0.36440 0.16140 0.91440 0.05200
O 	O 	0.35270 0.30814 0.96844 -0.40300
O 	O 	0.38911 0.34526 0.96798 -0.40900
C 	C 	0.37780 0.82070 0.45816 0.36300
C 	C 	0.39384 0.80410 0.43336 -0.10100
C 	C 	0.38400 0.77460 0.42360 -0.00200
H 	H 	0.36700 0.76470 0.43350 0.04400
C 	C 	0.35530 0.72380 0.38640 -0.03900
H 	H 	0.34100 0.73910 0.39340 0.04400
C 	C 	0.34570 0.69550 0.37350 -0.06200
H 	H 	0.32440 0.69230 0.36860 0.04200
C 	C 	0.41160 0.70590 0.38150 -0.03800
H 	H 	0.43310 0.71000 0.38420 0.04400
C 	C 	0.37030 0.67720 0.40020 -0.07200
H 	H 	0.36440 0.66140 0.41440 0.05200
O 	O 	0.35270 0.80814 0.46844 -0.40600
O 	O 	0.38911 0.84526 0.46798 -0.41200
C 	C 	0.12220 0.67930 0.45816 0.36300
C 	C 	0.10616 0.69590 0.43336 -0.10100
C 	C 	0.11600 0.72540 0.42360 -0.00100
H 	H 	0.13300 0.73530 0.43350 0.04300
C 	C 	0.14470 0.77620 0.38640 -0.03900
H 	H 	0.15900 0.76090 0.39340 0.04400
C 	C 	0.15430 0.80450 0.37350 -0.06200
H 	H 	0.17560 0.80770 0.36860 0.04200
C 	C 	0.08840 0.79410 0.38150 -0.03800
H 	H 	0.06690 0.79000 0.38420 0.04300
C 	C 	0.12970 0.82280 0.40020 -0.07200
H 	H 	0.13560 0.83860 0.41440 0.05200
O 	O 	0.14730 0.69186 0.46844 -0.40600
O 	O 	0.11089 0.65474 0.46798 -0.41300
C 	C 	0.12220 0.17930 0.95816 0.36300
C 	C 	0.10616 0.19590 0.93336 -0.10000
C 	C 	0.11600 0.22540 0.92360 -0.00200
H 	H 	0.13300 0.23530 0.93350 0.04400
C 	C 	0.14470 0.27620 0.88640 -0.03900
H 	H 	0.15900 0.26090 0.89340 0.04500
C 	C 	0.15430 0.30450 0.87350 -0.06100
H 	H 	0.17560 0.30770 0.86860 0.04200
C 	C 	0.08840 0.29410 0.88150 -0.03800
H 	H 	0.06690 0.29000 0.88420 0.04300
C 	C 	0.12970 0.32280 0.90020 -0.07200
H 	H 	0.13560 0.33860 0.91440 0.05200
O 	O 	0.14730 0.19186 0.96844 -0.40300
O 	O 	0.11089 0.15474 0.96798 -0.41000
C 	C 	0.62220 0.67930 0.95816 0.36300
C 	C 	0.60616 0.69590 0.93336 -0.10000
C 	C 	0.61600 0.72540 0.92360 -0.00200
H 	H 	0.63300 0.73530 0.93350 0.04400
C 	C 	0.64470 0.77620 0.88640 -0.03900
H 	H 	0.65900 0.76090 0.89340 0.04500
C 	C 	0.65430 0.80450 0.87350 -0.06100
H 	H 	0.67560 0.80770 0.86860 0.04200
C 	C 	0.58840 0.79410 0.88150 -0.03800
H 	H 	0.56690 0.79000 0.88420 0.04400
C 	C 	0.62970 0.82280 0.90020 -0.07200
H 	H 	0.63560 0.83860 0.91440 0.05200
O 	O 	0.64730 0.69186 0.96844 -0.40300
O 	O 	0.61089 0.65474 0.96798 -0.40900
C 	C 	0.62220 0.17930 0.45816 0.36300
C 	C 	0.60616 0.19590 0.43336 -0.10100
C 	C 	0.61600 0.22540 0.42360 -0.00100
H 	H 	0.63300 0.23530 0.43350 0.04300
C 	C 	0.64470 0.27620 0.38640 -0.03900
H 	H 	0.65900 0.26090 0.39340 0.04500
C 	C 	0.65430 0.30450 0.37350 -0.06200
H 	H 	0.67560 0.30770 0.36860 0.04200
C 	C 	0.58840 0.29410 0.38150 -0.03800
H 	H 	0.56690 0.29000 0.38420 0.04400
C 	C 	0.62970 0.32280 0.40020 -0.07200
H 	H 	0.63560 0.33860 0.41440 0.05200
O 	O 	0.64730 0.19186 0.46844 -0.40600
O 	O 	0.61089 0.15474 0.46798 -0.41200
C 	C 	0.54184 0.12220 0.32070 0.36300
C 	C 	0.56664 0.10616 0.30410 -0.10100
C 	C 	0.57640 0.11600 0.27460 -0.00100
H 	H 	0.56650 0.13300 0.26470 0.04300
C 	C 	0.61360 0.14470 0.22380 -0.03900
H 	H 	0.60660 0.15900 0.23910 0.04500
C 	C 	0.62650 0.15430 0.19550 -0.06100
H 	H 	0.63140 0.17560 0.19230 0.04200
C 	C 	0.61850 0.08840 0.20590 -0.03800
H 	H 	0.61580 0.06690 0.21000 0.04300
C 	C 	0.59980 0.12970 0.17720 -0.07200
H 	H 	0.58560 0.13560 0.16140 0.05200
O 	O 	0.53156 0.14730 0.30814 -0.40600
O 	O 	0.53202 0.11089 0.34526 -0.41300
C 	C 	0.54184 0.62220 0.82070 0.36300
C 	C 	0.56664 0.60616 0.80410 -0.10100
C 	C 	0.57640 0.61600 0.77460 -0.00200
H 	H 	0.56650 0.63300 0.76470 0.04300
C 	C 	0.61360 0.64470 0.72380 -0.03900
H 	H 	0.60660 0.65900 0.73910 0.04400
C 	C 	0.62650 0.65430 0.69550 -0.06200
H 	H 	0.63140 0.67560 0.69230 0.04200
C 	C 	0.61850 0.58840 0.70590 -0.03800
H 	H 	0.61580 0.56690 0.71000 0.04400
C 	C 	0.59980 0.62970 0.67720 -0.07200
H 	H 	0.58560 0.63560 0.66140 0.05200
O 	O 	0.53156 0.64730 0.80814 -0.40600
O 	O 	0.53202 0.61089 0.84526 -0.41200
C 	C 	0.04184 0.12220 0.82070 0.36300
C 	C 	0.06664 0.10616 0.80410 -0.10200
C 	C 	0.07640 0.11600 0.77460 -0.00100
H 	H 	0.06650 0.13300 0.76470 0.04300
C 	C 	0.11360 0.14470 0.72380 -0.03900
H 	H 	0.10660 0.15900 0.73910 0.04400
C 	C 	0.12650 0.15430 0.69550 -0.06200
H 	H 	0.13140 0.17560 0.69230 0.04200
C 	C 	0.11850 0.08840 0.70590 -0.03800
H 	H 	0.11580 0.06690 0.71000 0.04200
C 	C 	0.09980 0.12970 0.67720 -0.07200
H 	H 	0.08560 0.13560 0.66140 0.05100
O 	O 	0.03156 0.14730 0.80814 -0.40700
O 	O 	0.03202 0.11089 0.84526 -0.41400
C 	C 	0.04184 0.62220 0.32070 0.36300
C 	C 	0.06664 0.60616 0.30410 -0.10200
C 	C 	0.07640 0.61600 0.27460 -0.00100
H 	H 	0.06650 0.63300 0.26470 0.04300
C 	C 	0.11360 0.64470 0.22380 -0.03900
H 	H 	0.10660 0.65900 0.23910 0.04400
C 	C 	0.12650 0.65430 0.19550 -0.06200
H 	H 	0.13140 0.67560 0.19230 0.04200
C 	C 	0.11850 0.58840 0.20590 -0.03800
H 	H 	0.11580 0.56690 0.21000 0.04300
C 	C 	0.09980 0.62970 0.17720 -0.07200
H 	H 	0.08560 0.63560 0.16140 0.05100
O 	O 	0.03156 0.64730 0.30814 -0.40700
O 	O 	0.03202 0.61089 0.34526 -0.41400
C 	C 	0.54184 0.87780 0.67930 0.36300
C 	C 	0.56664 0.89384 0.69590 -0.10000
C 	C 	0.57640 0.88400 0.72540 -0.00200
H 	H 	0.56650 0.86700 0.73530 0.04400
C 	C 	0.61360 0.85530 0.77620 -0.03900
H 	H 	0.60660 0.84100 0.76090 0.04400
C 	C 	0.62650 0.84570 0.80450 -0.06200
H 	H 	0.63140 0.82440 0.80770 0.04200
C 	C 	0.61850 0.91160 0.79410 -0.03800
H 	H 	0.61580 0.93310 0.79000 0.04400
C 	C 	0.59980 0.87030 0.82280 -0.07200
H 	H 	0.58560 0.86440 0.83860 0.05200
O 	O 	0.53156 0.85270 0.69186 -0.40600
O 	O 	0.53202 0.88911 0.65474 -0.41200
C 	C 	0.54184 0.37780 0.17930 0.36300
C 	C 	0.56664 0.39384 0.19590 -0.10100
C 	C 	0.57640 0.38400 0.22540 -0.00100
H 	H 	0.56650 0.36700 0.23530 0.04400
C 	C 	0.61360 0.35530 0.27620 -0.03900
H 	H 	0.60660 0.34100 0.26090 0.04500
C 	C 	0.62650 0.34570 0.30450 -0.06200
H 	H 	0.63140 0.32440 0.30770 0.04200
C 	C 	0.61850 0.41160 0.29410 -0.03800
H 	H 	0.61580 0.43310 0.29000 0.04400
C 	C 	0.59980 0.37030 0.32280 -0.07200
H 	H 	0.58560 0.36440 0.33860 0.05200
O 	O 	0.53156 0.35270 0.19186 -0.40600
O 	O 	0.53202 0.38911 0.15474 -0.41200
C 	C 	0.04184 0.87780 0.17930 0.36300
C 	C 	0.06664 0.89384 0.19590 -0.10100
C 	C 	0.07640 0.88400 0.22540 -0.00200
H 	H 	0.06650 0.86700 0.23530 0.04300
C 	C 	0.11360 0.85530 0.27620 -0.03900
H 	H 	0.10660 0.84100 0.26090 0.04400
C 	C 	0.12650 0.84570 0.30450 -0.06200
H 	H 	0.13140 0.82440 0.30770 0.04200
C 	C 	0.11850 0.91160 0.29410 -0.03800
H 	H 	0.11580 0.93310 0.29000 0.04400
C 	C 	0.09980 0.87030 0.32280 -0.07200
H 	H 	0.08560 0.86440 0.33860 0.05200
O 	O 	0.03156 0.85270 0.19186 -0.40700
O 	O 	0.03202 0.88911 0.15474 -0.41300
C 	C 	0.04184 0.37780 0.67930 0.36300
C 	C 	0.06664 0.39384 0.69590 -0.10200
C 	C 	0.07640 0.38400 0.72540 -0.00100
H 	H 	0.06650 0.36700 0.73530 0.04300
C 	C 	0.11360 0.35530 0.77620 -0.03900
H 	H 	0.10660 0.34100 0.76090 0.04400
C 	C 	0.12650 0.34570 0.80450 -0.06200
H 	H 	0.13140 0.32440 0.80770 0.04200
C 	C 	0.11850 0.41160 0.79410 -0.03800
H 	H 	0.11580 0.43310 0.79000 0.04300
C 	C 	0.09980 0.37030 0.82280 -0.07200
H 	H 	0.08560 0.36440 0.83860 0.05200
O 	O 	0.03156 0.35270 0.69186 -0.40700
O 	O 	0.03202 0.38911 0.65474 -0.41400
C 	C 	0.45816 0.87780 0.32070 0.36300
C 	C 	0.43336 0.89384 0.30410 -0.10000
C 	C 	0.42360 0.88400 0.27460 -0.00200
H 	H 	0.43350 0.86700 0.26470 0.04400
C 	C 	0.38640 0.85530 0.22380 -0.03900
H 	H 	0.39340 0.84100 0.23910 0.04400
C 	C 	0.37350 0.84570 0.19550 -0.06200
H 	H 	0.36860 0.82440 0.19230 0.04200
C 	C 	0.38150 0.91160 0.20590 -0.03800
H 	H 	0.38420 0.93310 0.21000 0.04400
C 	C 	0.40020 0.87030 0.17720 -0.07200
H 	H 	0.41440 0.86440 0.16140 0.05200
O 	O 	0.46844 0.85270 0.30814 -0.40600
O 	O 	0.46798 0.88911 0.34526 -0.41200
C 	C 	0.45816 0.37780 0.82070 0.36300
C 	C 	0.43336 0.39384 0.80410 -0.10100
C 	C 	0.42360 0.38400 0.77460 -0.00200
H 	H 	0.43350 0.36700 0.76470 0.04400
C 	C 	0.38640 0.35530 0.72380 -0.03900
H 	H 	0.39340 0.34100 0.73910 0.04400
C 	C 	0.37350 0.34570 0.69550 -0.06200
H 	H 	0.36860 0.32440 0.69230 0.04200
C 	C 	0.38150 0.41160 0.70590 -0.03800
H 	H 	0.38420 0.43310 0.71000 0.04400
C 	C 	0.40020 0.37030 0.67720 -0.07200
H 	H 	0.41440 0.36440 0.66140 0.05200
O 	O 	0.46844 0.35270 0.80814 -0.40600
O 	O 	0.46798 0.38911 0.84526 -0.41200
C 	C 	0.95816 0.87780 0.82070 0.36200
C 	C 	0.93336 0.89384 0.80410 -0.09900
C 	C 	0.92360 0.88400 0.77460 -0.00200
H 	H 	0.93350 0.86700 0.76470 0.04400
C 	C 	0.88640 0.85530 0.72380 -0.03900
H 	H 	0.89340 0.84100 0.73910 0.04500
C 	C 	0.87350 0.84570 0.69550 -0.06200
H 	H 	0.86860 0.82440 0.69230 0.04200
C 	C 	0.88150 0.91160 0.70590 -0.03800
H 	H 	0.88420 0.93310 0.71000 0.04500
C 	C 	0.90020 0.87030 0.67720 -0.07200
H 	H 	0.91440 0.86440 0.66140 0.05200
O 	O 	0.96844 0.85270 0.80814 -0.40300
O 	O 	0.96798 0.88911 0.84526 -0.40900
C 	C 	0.95816 0.37780 0.32070 0.36300
C 	C 	0.93336 0.39384 0.30410 -0.10000
C 	C 	0.92360 0.38400 0.27460 -0.00200
H 	H 	0.93350 0.36700 0.26470 0.04400
C 	C 	0.88640 0.35530 0.22380 -0.03900
H 	H 	0.89340 0.34100 0.23910 0.04500
C 	C 	0.87350 0.34570 0.19550 -0.06100
H 	H 	0.86860 0.32440 0.19230 0.04200
C 	C 	0.88150 0.41160 0.20590 -0.03800
H 	H 	0.88420 0.43310 0.21000 0.04400
C 	C 	0.90020 0.37030 0.17720 -0.07200
H 	H 	0.91440 0.36440 0.16140 0.05200
O 	O 	0.96844 0.35270 0.30814 -0.40300
O 	O 	0.96798 0.38911 0.34526 -0.40900
C 	C 	0.45816 0.12220 0.67930 0.36300
C 	C 	0.43336 0.10616 0.69590 -0.10100
C 	C 	0.42360 0.11600 0.72540 -0.00100
H 	H 	0.43350 0.13300 0.73530 0.04300
C 	C 	0.38640 0.14470 0.77620 -0.03900
H 	H 	0.39340 0.15900 0.76090 0.04400
C 	C 	0.37350 0.15430 0.80450 -0.06200
H 	H 	0.36860 0.17560 0.80770 0.04200
C 	C 	0.38150 0.08840 0.79410 -0.03800
H 	H 	0.38420 0.06690 0.79000 0.04300
C 	C 	0.40020 0.12970 0.82280 -0.07200
H 	H 	0.41440 0.13560 0.83860 0.05200
O 	O 	0.46844 0.14730 0.69186 -0.40600
O 	O 	0.46798 0.11089 0.65474 -0.41300
C 	C 	0.45816 0.62220 0.17930 0.36300
C 	C 	0.43336 0.60616 0.19590 -0.10100
C 	C 	0.42360 0.61600 0.22540 -0.00100
H 	H 	0.43350 0.63300 0.23530 0.04300
C 	C 	0.38640 0.64470 0.27620 -0.03900
H 	H 	0.39340 0.65900 0.26090 0.04500
C 	C 	0.37350 0.65430 0.30450 -0.06200
H 	H 	0.36860 0.67560 0.30770 0.04200
C 	C 	0.38150 0.58840 0.29410 -0.03800
H 	H 	0.38420 0.56690 0.29000 0.04400
C 	C 	0.40020 0.62970 0.32280 -0.07200
H 	H 	0.41440 0.63560 0.33860 0.05200
O 	O 	0.46844 0.64730 0.19186 -0.40600
O 	O 	0.46798 0.61089 0.15474 -0.41200
C 	C 	0.95816 0.12220 0.17930 0.36300
C 	C 	0.93336 0.10616 0.19590 -0.10000
C 	C 	0.92360 0.11600 0.22540 -0.00200
H 	H 	0.93350 0.13300 0.23530 0.04400
C 	C 	0.88640 0.14470 0.27620 -0.03900
H 	H 	0.89340 0.15900 0.26090 0.04500
C 	C 	0.87350 0.15430 0.30450 -0.06100
H 	H 	0.86860 0.17560 0.30770 0.04200
C 	C 	0.88150 0.08840 0.29410 -0.03800
H 	H 	0.88420 0.06690 0.29000 0.04300
C 	C 	0.90020 0.12970 0.32280 -0.07200
H 	H 	0.91440 0.13560 0.33860 0.05200
O 	O 	0.96844 0.14730 0.19186 -0.40300
O 	O 	0.96798 0.11089 0.15474 -0.41000
C 	C 	0.95816 0.62220 0.67930 0.36300
C 	C 	0.93336 0.60616 0.69590 -0.10000
C 	C 	0.92360 0.61600 0.72540 -0.00200
H 	H 	0.93350 0.63300 0.73530 0.04400
C 	C 	0.88640 0.64470 0.77620 -0.03900
H 	H 	0.89340 0.65900 0.76090 0.04500
C 	C 	0.87350 0.65430 0.80450 -0.06100
H 	H 	0.86860 0.67560 0.80770 0.04200
C 	C 	0.88150 0.58840 0.79410 -0.03800
H 	H 	0.88420 0.56690 0.79000 0.04400
C 	C 	0.90020 0.62970 0.82280 -0.07200
H 	H 	0.91440 0.63560 0.83860 0.05200
O 	O 	0.96844 0.64730 0.69186 -0.40300
O 	O 	0.96798 0.61089 0.65474 -0.40900
C 	C 	0.32070 0.54184 0.12220 0.36300
C 	C 	0.30410 0.56664 0.10616 -0.10100
C 	C 	0.27460 0.57640 0.11600 -0.00100
H 	H 	0.26470 0.56650 0.13300 0.04300
C 	C 	0.22380 0.61360 0.14470 -0.03900
H 	H 	0.23910 0.60660 0.15900 0.04500
C 	C 	0.19550 0.62650 0.15430 -0.06100
H 	H 	0.19230 0.63140 0.17560 0.04200
C 	C 	0.20590 0.61850 0.08840 -0.03800
H 	H 	0.21000 0.61580 0.06690 0.04300
C 	C 	0.17720 0.59980 0.12970 -0.07200
H 	H 	0.16140 0.58560 0.13560 0.05200
O 	O 	0.30814 0.53156 0.14730 -0.40600
O 	O 	0.34526 0.53202 0.11089 -0.41300
C 	C 	0.32070 0.04184 0.62220 0.36300
C 	C 	0.30410 0.06664 0.60616 -0.10200
C 	C 	0.27460 0.07640 0.61600 -0.00100
H 	H 	0.26470 0.06650 0.63300 0.04300
C 	C 	0.22380 0.11360 0.64470 -0.03900
H 	H 	0.23910 0.10660 0.65900 0.04400
C 	C 	0.19550 0.12650 0.65430 -0.06200
H 	H 	0.19230 0.13140 0.67560 0.04200
C 	C 	0.20590 0.11850 0.58840 -0.03800
H 	H 	0.21000 0.11580 0.56690 0.04300
C 	C 	0.17720 0.09980 0.62970 -0.07200
H 	H 	0.16140 0.08560 0.63560 0.05100
O 	O 	0.30814 0.03156 0.64730 -0.40700
O 	O 	0.34526 0.03202 0.61089 -0.41400
C 	C 	0.82070 0.54184 0.62220 0.36300
C 	C 	0.80410 0.56664 0.60616 -0.10100
C 	C 	0.77460 0.57640 0.61600 -0.00200
H 	H 	0.76470 0.56650 0.63300 0.04300
C 	C 	0.72380 0.61360 0.64470 -0.03900
H 	H 	0.73910 0.60660 0.65900 0.04400
C 	C 	0.69550 0.62650 0.65430 -0.06200
H 	H 	0.69230 0.63140 0.67560 0.04200
C 	C 	0.70590 0.61850 0.58840 -0.03800
H 	H 	0.71000 0.61580 0.56690 0.04400
C 	C 	0.67720 0.59980 0.62970 -0.07200
H 	H 	0.66140 0.58560 0.63560 0.05200
O 	O 	0.80814 0.53156 0.64730 -0.40600
O 	O 	0.84526 0.53202 0.61089 -0.41200
C 	C 	0.82070 0.04184 0.12220 0.36300
C 	C 	0.80410 0.06664 0.10616 -0.10200
C 	C 	0.77460 0.07640 0.11600 -0.00100
H 	H 	0.76470 0.06650 0.13300 0.04300
C 	C 	0.72380 0.11360 0.14470 -0.03900
H 	H 	0.73910 0.10660 0.15900 0.04400
C 	C 	0.69550 0.12650 0.15430 -0.06200
H 	H 	0.69230 0.13140 0.17560 0.04200
C 	C 	0.70590 0.11850 0.08840 -0.03800
H 	H 	0.71000 0.11580 0.06690 0.04200
C 	C 	0.67720 0.09980 0.12970 -0.07200
H 	H 	0.66140 0.08560 0.13560 0.05100
O 	O 	0.80814 0.03156 0.14730 -0.40700
O 	O 	0.84526 0.03202 0.11089 -0.41400
C 	C 	0.67930 0.54184 0.87780 0.36300
C 	C 	0.69590 0.56664 0.89384 -0.10000
C 	C 	0.72540 0.57640 0.88400 -0.00200
H 	H 	0.73530 0.56650 0.86700 0.04400
C 	C 	0.77620 0.61360 0.85530 -0.03900
H 	H 	0.76090 0.60660 0.84100 0.04400
C 	C 	0.80450 0.62650 0.84570 -0.06200
H 	H 	0.80770 0.63140 0.82440 0.04200
C 	C 	0.79410 0.61850 0.91160 -0.03800
H 	H 	0.79000 0.61580 0.93310 0.04400
C 	C 	0.82280 0.59980 0.87030 -0.07200
H 	H 	0.83860 0.58560 0.86440 0.05200
O 	O 	0.69186 0.53156 0.85270 -0.40600
O 	O 	0.65474 0.53202 0.88911 -0.41200
C 	C 	0.67930 0.04184 0.37780 0.36300
C 	C 	0.69590 0.06664 0.39384 -0.10200
C 	C 	0.72540 0.07640 0.38400 -0.00100
H 	H 	0.73530 0.06650 0.36700 0.04300
C 	C 	0.77620 0.11360 0.35530 -0.03900
H 	H 	0.76090 0.10660 0.34100 0.04400
C 	C 	0.80450 0.12650 0.34570 -0.06200
H 	H 	0.80770 0.13140 0.32440 0.04200
C 	C 	0.79410 0.11850 0.41160 -0.03800
H 	H 	0.79000 0.11580 0.43310 0.04300
C 	C 	0.82280 0.09980 0.37030 -0.07200
H 	H 	0.83860 0.08560 0.36440 0.05200
O 	O 	0.69186 0.03156 0.35270 -0.40700
O 	O 	0.65474 0.03202 0.38911 -0.41400
C 	C 	0.17930 0.54184 0.37780 0.36300
C 	C 	0.19590 0.56664 0.39384 -0.10100
C 	C 	0.22540 0.57640 0.38400 -0.00100
H 	H 	0.23530 0.56650 0.36700 0.04400
C 	C 	0.27620 0.61360 0.35530 -0.03900
H 	H 	0.26090 0.60660 0.34100 0.04500
C 	C 	0.30450 0.62650 0.34570 -0.06200
H 	H 	0.30770 0.63140 0.32440 0.04200
C 	C 	0.29410 0.61850 0.41160 -0.03800
H 	H 	0.29000 0.61580 0.43310 0.04400
C 	C 	0.32280 0.59980 0.37030 -0.07200
H 	H 	0.33860 0.58560 0.36440 0.05200
O 	O 	0.19186 0.53156 0.35270 -0.40600
O 	O 	0.15474 0.53202 0.38911 -0.41200
C 	C 	0.17930 0.04184 0.87780 0.36300
C 	C 	0.19590 0.06664 0.89384 -0.10100
C 	C 	0.22540 0.07640 0.88400 -0.00200
H 	H 	0.23530 0.06650 0.86700 0.04300
C 	C 	0.27620 0.11360 0.85530 -0.03900
H 	H 	0.26090 0.10660 0.84100 0.04400
C 	C 	0.30450 0.12650 0.84570 -0.06200
H 	H 	0.30770 0.13140 0.82440 0.04200
C 	C 	0.29410 0.11850 0.91160 -0.03800
H 	H 	0.29000 0.11580 0.93310 0.04400
C 	C 	0.32280 0.09980 0.87030 -0.07200
H 	H 	0.33860 0.08560 0.86440 0.05200
O 	O 	0.19186 0.03156 0.85270 -0.40700
O 	O 	0.15474 0.03202 0.88911 -0.41300
C 	C 	0.32070 0.45816 0.87780 0.36300
C 	C 	0.30410 0.43336 0.89384 -0.10000
C 	C 	0.27460 0.42360 0.88400 -0.00200
H 	H 	0.26470 0.43350 0.86700 0.04400
C 	C 	0.22380 0.38640 0.85530 -0.03900
H 	H 	0.23910 0.39340 0.84100 0.04400
C 	C 	0.19550 0.37350 0.84570 -0.06200
H 	H 	0.19230 0.36860 0.82440 0.04200
C 	C 	0.20590 0.38150 0.91160 -0.03800
H 	H 	0.21000 0.38420 0.93310 0.04400
C 	C 	0.17720 0.40020 0.87030 -0.07200
H 	H 	0.16140 0.41440 0.86440 0.05200
O 	O 	0.30814 0.46844 0.85270 -0.40600
O 	O 	0.34526 0.46798 0.88911 -0.41200
C 	C 	0.32070 0.95816 0.37780 0.36300
C 	C 	0.30410 0.93336 0.39384 -0.10000
C 	C 	0.27460 0.92360 0.38400 -0.00200
H 	H 	0.26470 0.93350 0.36700 0.04400
C 	C 	0.22380 0.88640 0.35530 -0.03900
H 	H 	0.23910 0.89340 0.34100 0.04500
C 	C 	0.19550 0.87350 0.34570 -0.06100
H 	H 	0.19230 0.86860 0.32440 0.04200
C 	C 	0.20590 0.88150 0.41160 -0.03800
H 	H 	0.21000 0.88420 0.43310 0.04400
C 	C 	0.17720 0.90020 0.37030 -0.07200
H 	H 	0.16140 0.91440 0.36440 0.05200
O 	O 	0.30814 0.96844 0.35270 -0.40300
O 	O 	0.34526 0.96798 0.38911 -0.40900
C 	C 	0.82070 0.45816 0.37780 0.36300
C 	C 	0.80410 0.43336 0.39384 -0.10100
C 	C 	0.77460 0.42360 0.38400 -0.00200
H 	H 	0.76470 0.43350 0.36700 0.04400
C 	C 	0.72380 0.38640 0.35530 -0.03900
H 	H 	0.73910 0.39340 0.34100 0.04400
C 	C 	0.69550 0.37350 0.34570 -0.06200
H 	H 	0.69230 0.36860 0.32440 0.04200
C 	C 	0.70590 0.38150 0.41160 -0.03800
H 	H 	0.71000 0.38420 0.43310 0.04400
C 	C 	0.67720 0.40020 0.37030 -0.07200
H 	H 	0.66140 0.41440 0.36440 0.05200
O 	O 	0.80814 0.46844 0.35270 -0.40600
O 	O 	0.84526 0.46798 0.38911 -0.41200
C 	C 	0.82070 0.95816 0.87780 0.36200
C 	C 	0.80410 0.93336 0.89384 -0.09900
C 	C 	0.77460 0.92360 0.88400 -0.00200
H 	H 	0.76470 0.93350 0.86700 0.04400
C 	C 	0.72380 0.88640 0.85530 -0.03900
H 	H 	0.73910 0.89340 0.84100 0.04500
C 	C 	0.69550 0.87350 0.84570 -0.06200
H 	H 	0.69230 0.86860 0.82440 0.04200
C 	C 	0.70590 0.88150 0.91160 -0.03800
H 	H 	0.71000 0.88420 0.93310 0.04500
C 	C 	0.67720 0.90020 0.87030 -0.07200
H 	H 	0.66140 0.91440 0.86440 0.05200
O 	O 	0.80814 0.96844 0.85270 -0.40300
O 	O 	0.84526 0.96798 0.88911 -0.40900
C 	C 	0.67930 0.45816 0.12220 0.36300
C 	C 	0.69590 0.43336 0.10616 -0.10100
C 	C 	0.72540 0.42360 0.11600 -0.00100
H 	H 	0.73530 0.43350 0.13300 0.04300
C 	C 	0.77620 0.38640 0.14470 -0.03900
H 	H 	0.76090 0.39340 0.15900 0.04400
C 	C 	0.80450 0.37350 0.15430 -0.06200
H 	H 	0.80770 0.36860 0.17560 0.04200
C 	C 	0.79410 0.38150 0.08840 -0.03800
H 	H 	0.79000 0.38420 0.06690 0.04300
C 	C 	0.82280 0.40020 0.12970 -0.07200
H 	H 	0.83860 0.41440 0.13560 0.05200
O 	O 	0.69186 0.46844 0.14730 -0.40600
O 	O 	0.65474 0.46798 0.11089 -0.41300
C 	C 	0.67930 0.95816 0.62220 0.36300
C 	C 	0.69590 0.93336 0.60616 -0.10000
C 	C 	0.72540 0.92360 0.61600 -0.00200
H 	H 	0.73530 0.93350 0.63300 0.04400
C 	C 	0.77620 0.88640 0.64470 -0.03900
H 	H 	0.76090 0.89340 0.65900 0.04500
C 	C 	0.80450 0.87350 0.65430 -0.06100
H 	H 	0.80770 0.86860 0.67560 0.04200
C 	C 	0.79410 0.88150 0.58840 -0.03800
H 	H 	0.79000 0.88420 0.56690 0.04400
C 	C 	0.82280 0.90020 0.62970 -0.07200
H 	H 	0.83860 0.91440 0.63560 0.05200
O 	O 	0.69186 0.96844 0.64730 -0.40300
O 	O 	0.65474 0.96798 0.61089 -0.40900
C 	C 	0.17930 0.45816 0.62220 0.36300
C 	C 	0.19590 0.43336 0.60616 -0.10100
C 	C 	0.22540 0.42360 0.61600 -0.00100
H 	H 	0.23530 0.43350 0.63300 0.04300
C 	C 	0.27620 0.38640 0.64470 -0.03900
H 	H 	0.26090 0.39340 0.65900 0.04500
C 	C 	0.30450 0.37350 0.65430 -0.06200
H 	H 	0.30770 0.36860 0.67560 0.04200
C 	C 	0.29410 0.38150 0.58840 -0.03800
H 	H 	0.29000 0.38420 0.56690 0.04400
C 	C 	0.32280 0.40020 0.62970 -0.07200
H 	H 	0.33860 0.41440 0.63560 0.05200
O 	O 	0.19186 0.46844 0.64730 -0.40600
O 	O 	0.15474 0.46798 0.61089 -0.41200
C 	C 	0.17930 0.95816 0.12220 0.36300
C 	C 	0.19590 0.93336 0.10616 -0.10000
C 	C 	0.22540 0.92360 0.11600 -0.00200
H 	H 	0.23530 0.93350 0.13300 0.04400
C 	C 	0.27620 0.88640 0.14470 -0.03900
H 	H 	0.26090 0.89340 0.15900 0.04500
C 	C 	0.30450 0.87350 0.15430 -0.06100
H 	H 	0.30770 0.86860 0.17560 0.04200
C 	C 	0.29410 0.88150 0.08840 -0.03800
H 	H 	0.29000 0.88420 0.06690 0.04300
C 	C 	0.32280 0.90020 0.12970 -0.07200
H 	H 	0.33860 0.91440 0.13560 0.05200
O 	O 	0.19186 0.96844 0.14730 -0.40300
O 	O 	0.15474 0.96798 0.11089 -0.41000
C 	C 	0.32070 0.12220 0.45816 0.36300
C 	C 	0.30410 0.10616 0.43336 -0.10100
C 	C 	0.27460 0.11600 0.42360 -0.00100
H 	H 	0.26470 0.13300 0.43350 0.04300
C 	C 	0.22380 0.14470 0.38640 -0.03900
H 	H 	0.23910 0.15900 0.39340 0.04500
C 	C 	0.19550 0.15430 0.37350 -0.06100
H 	H 	0.19230 0.17560 0.36860 0.04200
C 	C 	0.20590 0.08840 0.38150 -0.03800
H 	H 	0.21000 0.06690 0.38420 0.04300
C 	C 	0.17720 0.12970 0.40020 -0.07200
H 	H 	0.16140 0.13560 0.41440 0.05200
O 	O 	0.30814 0.14730 0.46844 -0.40600
O 	O 	0.34526 0.11089 0.46798 -0.41300
C 	C 	0.32070 0.62220 0.95816 0.36300
C 	C 	0.30410 0.60616 0.93336 -0.10000
C 	C 	0.27460 0.61600 0.92360 -0.00200
H 	H 	0.26470 0.63300 0.93350 0.04400
C 	C 	0.22380 0.64470 0.88640 -0.03900
H 	H 	0.23910 0.65900 0.89340 0.04500
C 	C 	0.19550 0.65430 0.87350 -0.06100
H 	H 	0.19230 0.67560 0.86860 0.04200
C 	C 	0.20590 0.58840 0.88150 -0.03800
H 	H 	0.21000 0.56690 0.88420 0.04400
C 	C 	0.17720 0.62970 0.90020 -0.07200
H 	H 	0.16140 0.63560 0.91440 0.05200
O 	O 	0.30814 0.64730 0.96844 -0.40300
O 	O 	0.34526 0.61089 0.96798 -0.40900
C 	C 	0.82070 0.12220 0.95816 0.36300
C 	C 	0.80410 0.10616 0.93336 -0.10000
C 	C 	0.77460 0.11600 0.92360 -0.00200
H 	H 	0.76470 0.13300 0.93350 0.04400
C 	C 	0.72380 0.14470 0.88640 -0.03900
H 	H 	0.73910 0.15900 0.89340 0.04500
C 	C 	0.69550 0.15430 0.87350 -0.06100
H 	H 	0.69230 0.17560 0.86860 0.04200
C 	C 	0.70590 0.08840 0.88150 -0.03800
H 	H 	0.71000 0.06690 0.88420 0.04300
C 	C 	0.67720 0.12970 0.90020 -0.07200
H 	H 	0.66140 0.13560 0.91440 0.05200
O 	O 	0.80814 0.14730 0.96844 -0.40300
O 	O 	0.84526 0.11089 0.96798 -0.41000
C 	C 	0.82070 0.62220 0.45816 0.36300
C 	C 	0.80410 0.60616 0.43336 -0.10100
C 	C 	0.77460 0.61600 0.42360 -0.00200
H 	H 	0.76470 0.63300 0.43350 0.04400
C 	C 	0.72380 0.64470 0.38640 -0.03900
H 	H 	0.73910 0.65900 0.39340 0.04400
C 	C 	0.69550 0.65430 0.37350 -0.06200
H 	H 	0.69230 0.67560 0.36860 0.04200
C 	C 	0.70590 0.58840 0.38150 -0.03800
H 	H 	0.71000 0.56690 0.38420 0.04400
C 	C 	0.67720 0.62970 0.40020 -0.07200
H 	H 	0.66140 0.63560 0.41440 0.05200
O 	O 	0.80814 0.64730 0.46844 -0.40600
O 	O 	0.84526 0.61089 0.46798 -0.41200
C 	C 	0.67930 0.87780 0.45816 0.36300
C 	C 	0.69590 0.89384 0.43336 -0.10000
C 	C 	0.72540 0.88400 0.42360 -0.00200
H 	H 	0.73530 0.86700 0.43350 0.04400
C 	C 	0.77620 0.85530 0.38640 -0.03900
H 	H 	0.76090 0.84100 0.39340 0.04400
C 	C 	0.80450 0.84570 0.37350 -0.06200
H 	H 	0.80770 0.82440 0.36860 0.04200
C 	C 	0.79410 0.91160 0.38150 -0.03800
H 	H 	0.79000 0.93310 0.38420 0.04400
C 	C 	0.82280 0.87030 0.40020 -0.07200
H 	H 	0.83860 0.86440 0.41440 0.05200
O 	O 	0.69186 0.85270 0.46844 -0.40600
O 	O 	0.65474 0.88911 0.46798 -0.41200
C 	C 	0.67930 0.37780 0.95816 0.36300
C 	C 	0.69590 0.39384 0.93336 -0.10000
C 	C 	0.72540 0.38400 0.92360 -0.00200
H 	H 	0.73530 0.36700 0.93350 0.04400
C 	C 	0.77620 0.35530 0.88640 -0.03900
H 	H 	0.76090 0.34100 0.89340 0.04500
C 	C 	0.80450 0.34570 0.87350 -0.06100
H 	H 	0.80770 0.32440 0.86860 0.04200
C 	C 	0.79410 0.41160 0.88150 -0.03800
H 	H 	0.79000 0.43310 0.88420 0.04400
C 	C 	0.82280 0.37030 0.90020 -0.07200
H 	H 	0.83860 0.36440 0.91440 0.05200
O 	O 	0.69186 0.35270 0.96844 -0.40300
O 	O 	0.65474 0.38911 0.96798 -0.40900
C 	C 	0.17930 0.87780 0.95816 0.36200
C 	C 	0.19590 0.89384 0.93336 -0.09900
C 	C 	0.22540 0.88400 0.92360 -0.00200
H 	H 	0.23530 0.86700 0.93350 0.04400
C 	C 	0.27620 0.85530 0.88640 -0.03900
H 	H 	0.26090 0.84100 0.89340 0.04500
C 	C 	0.30450 0.84570 0.87350 -0.06100
H 	H 	0.30770 0.82440 0.86860 0.04200
C 	C 	0.29410 0.91160 0.88150 -0.03800
H 	H 	0.29000 0.93310 0.88420 0.04500
C 	C 	0.32280 0.87030 0.90020 -0.07100
H 	H 	0.33860 0.86440 0.91440 0.05300
O 	O 	0.19186 0.85270 0.96844 -0.40300
O 	O 	0.15474 0.88911 0.96798 -0.40900
C 	C 	0.17930 0.37780 0.45816 0.36300
C 	C 	0.19590 0.39384 0.43336 -0.10100
C 	C 	0.22540 0.38400 0.42360 -0.00100
H 	H 	0.23530 0.36700 0.43350 0.04400
C 	C 	0.27620 0.35530 0.38640 -0.03900
H 	H 	0.26090 0.34100 0.39340 0.04500
C 	C 	0.30450 0.34570 0.37350 -0.06100
H 	H 	0.30770 0.32440 0.36860 0.04200
C 	C 	0.29410 0.41160 0.38150 -0.03800
H 	H 	0.29000 0.43310 0.38420 0.04400
C 	C 	0.32280 0.37030 0.40020 -0.07200
H 	H 	0.33860 0.36440 0.41440 0.05200
O 	O 	0.19186 0.35270 0.46844 -0.40600
O 	O 	0.15474 0.38911 0.46798 -0.41200
C 	C 	0.32070 0.87780 0.54184 0.36300
C 	C 	0.30410 0.89384 0.56664 -0.10000
C 	C 	0.27460 0.88400 0.57640 -0.00200
H 	H 	0.26470 0.86700 0.56650 0.04400
C 	C 	0.22380 0.85530 0.61360 -0.03900
H 	H 	0.23910 0.84100 0.60660 0.04400
C 	C 	0.19550 0.84570 0.62650 -0.06200
H 	H 	0.19230 0.82440 0.63140 0.04200
C 	C 	0.20590 0.91160 0.61850 -0.03800
H 	H 	0.21000 0.93310 0.61580 0.04400
C 	C 	0.17720 0.87030 0.59980 -0.07200
H 	H 	0.16140 0.86440 0.58560 0.05200
O 	O 	0.30814 0.85270 0.53156 -0.40600
O 	O 	0.34526 0.88911 0.53202 -0.41200
C 	C 	0.32070 0.37780 0.04184 0.36300
C 	C 	0.30410 0.39384 0.06664 -0.10200
C 	C 	0.27460 0.38400 0.07640 -0.00100
H 	H 	0.26470 0.36700 0.06650 0.04300
C 	C 	0.22380 0.35530 0.11360 -0.03900
H 	H 	0.23910 0.34100 0.10660 0.04400
C 	C 	0.19550 0.34570 0.12650 -0.06200
H 	H 	0.19230 0.32440 0.13140 0.04200
C 	C 	0.20590 0.41160 0.11850 -0.03800
H 	H 	0.21000 0.43310 0.11580 0.04300
C 	C 	0.17720 0.37030 0.09980 -0.07200
H 	H 	0.16140 0.36440 0.08560 0.05100
O 	O 	0.30814 0.35270 0.03156 -0.40700
O 	O 	0.34526 0.38911 0.03202 -0.41400
C 	C 	0.82070 0.87780 0.04184 0.36300
C 	C 	0.80410 0.89384 0.06664 -0.10100
C 	C 	0.77460 0.88400 0.07640 -0.00200
H 	H 	0.76470 0.86700 0.06650 0.04300
C 	C 	0.72380 0.85530 0.11360 -0.03900
H 	H 	0.73910 0.84100 0.10660 0.04400
C 	C 	0.69550 0.84570 0.12650 -0.06200
H 	H 	0.69230 0.82440 0.13140 0.04200
C 	C 	0.70590 0.91160 0.11850 -0.03800
H 	H 	0.71000 0.93310 0.11580 0.04400
C 	C 	0.67720 0.87030 0.09980 -0.07200
H 	H 	0.66140 0.86440 0.08560 0.05200
O 	O 	0.80814 0.85270 0.03156 -0.40700
O 	O 	0.84526 0.88911 0.03202 -0.41300
C 	C 	0.82070 0.37780 0.54184 0.36300
C 	C 	0.80410 0.39384 0.56664 -0.10100
C 	C 	0.77460 0.38400 0.57640 -0.00200
H 	H 	0.76470 0.36700 0.56650 0.04400
C 	C 	0.72380 0.35530 0.61360 -0.03900
H 	H 	0.73910 0.34100 0.60660 0.04400
C 	C 	0.69550 0.34570 0.62650 -0.06200
H 	H 	0.69230 0.32440 0.63140 0.04200
C 	C 	0.70590 0.41160 0.61850 -0.03800
H 	H 	0.71000 0.43310 0.61580 0.04400
C 	C 	0.67720 0.37030 0.59980 -0.07200
H 	H 	0.66140 0.36440 0.58560 0.05200
O 	O 	0.80814 0.35270 0.53156 -0.40600
O 	O 	0.84526 0.38911 0.53202 -0.41200
C 	C 	0.67930 0.12220 0.54184 0.36300
C 	C 	0.69590 0.10616 0.56664 -0.10100
C 	C 	0.72540 0.11600 0.57640 -0.00100
H 	H 	0.73530 0.13300 0.56650 0.04300
C 	C 	0.77620 0.14470 0.61360 -0.03900
H 	H 	0.76090 0.15900 0.60660 0.04400
C 	C 	0.80450 0.15430 0.62650 -0.06200
H 	H 	0.80770 0.17560 0.63140 0.04200
C 	C 	0.79410 0.08840 0.61850 -0.03800
H 	H 	0.79000 0.06690 0.61580 0.04300
C 	C 	0.82280 0.12970 0.59980 -0.07200
H 	H 	0.83860 0.13560 0.58560 0.05200
O 	O 	0.69186 0.14730 0.53156 -0.40600
O 	O 	0.65474 0.11089 0.53202 -0.41300
C 	C 	0.67930 0.62220 0.04184 0.36300
C 	C 	0.69590 0.60616 0.06664 -0.10200
C 	C 	0.72540 0.61600 0.07640 -0.00100
H 	H 	0.73530 0.63300 0.06650 0.04300
C 	C 	0.77620 0.64470 0.11360 -0.03900
H 	H 	0.76090 0.65900 0.10660 0.04400
C 	C 	0.80450 0.65430 0.12650 -0.06200
H 	H 	0.80770 0.67560 0.13140 0.04200
C 	C 	0.79410 0.58840 0.11850 -0.03800
H 	H 	0.79000 0.56690 0.11580 0.04300
C 	C 	0.82280 0.62970 0.09980 -0.07200
H 	H 	0.83860 0.63560 0.08560 0.05200
O 	O 	0.69186 0.64730 0.03156 -0.40700
O 	O 	0.65474 0.61089 0.03202 -0.41400
C 	C 	0.17930 0.12220 0.04184 0.36300
C 	C 	0.19590 0.10616 0.06664 -0.10200
C 	C 	0.22540 0.11600 0.07640 -0.00100
H 	H 	0.23530 0.13300 0.06650 0.04300
C 	C 	0.27620 0.14470 0.11360 -0.03900
H 	H 	0.26090 0.15900 0.10660 0.04400
C 	C 	0.30450 0.15430 0.12650 -0.06200
H 	H 	0.30770 0.17560 0.13140 0.04200
C 	C 	0.29410 0.08840 0.11850 -0.03800
H 	H 	0.29000 0.06690 0.11580 0.04200
C 	C 	0.32280 0.12970 0.09980 -0.07200
H 	H 	0.33860 0.13560 0.08560 0.05100
O 	O 	0.19186 0.14730 0.03156 -0.40700
O 	O 	0.15474 0.11089 0.03202 -0.41400
C 	C 	0.17930 0.62220 0.54184 0.36300
C 	C 	0.19590 0.60616 0.56664 -0.10100
C 	C 	0.22540 0.61600 0.57640 -0.00100
H 	H 	0.23530 0.63300 0.56650 0.04300
C 	C 	0.27620 0.64470 0.61360 -0.03900
H 	H 	0.26090 0.65900 0.60660 0.04400
C 	C 	0.30450 0.65430 0.62650 -0.06200
H 	H 	0.30770 0.67560 0.63140 0.04200
C 	C 	0.29410 0.58840 0.61850 -0.03800
H 	H 	0.29000 0.56690 0.61580 0.04400
C 	C 	0.32280 0.62970 0.59980 -0.07200
H 	H 	0.33860 0.63560 0.58560 0.05200
O 	O 	0.19186 0.64730 0.53156 -0.40600
O 	O 	0.15474 0.61089 0.53202 -0.41200
C 	C 	0.12220 0.54184 0.67930 0.36300
C 	C 	0.10616 0.56664 0.69590 -0.10100
C 	C 	0.11600 0.57640 0.72540 -0.00100
H 	H 	0.13300 0.56650 0.73530 0.04300
C 	C 	0.14470 0.61360 0.77620 -0.03900
H 	H 	0.15900 0.60660 0.76090 0.04400
C 	C 	0.15430 0.62650 0.80450 -0.06200
H 	H 	0.17560 0.63140 0.80770 0.04200
C 	C 	0.08840 0.61850 0.79410 -0.03800
H 	H 	0.06690 0.61580 0.79000 0.04300
C 	C 	0.12970 0.59980 0.82280 -0.07200
H 	H 	0.13560 0.58560 0.83860 0.05200
O 	O 	0.14730 0.53156 0.69186 -0.40600
O 	O 	0.11089 0.53202 0.65474 -0.41300
C 	C 	0.12220 0.04184 0.17930 0.36300
C 	C 	0.10616 0.06664 0.19590 -0.10200
C 	C 	0.11600 0.07640 0.22540 -0.00100
H 	H 	0.13300 0.06650 0.23530 0.04300
C 	C 	0.14470 0.11360 0.27620 -0.03900
H 	H 	0.15900 0.10660 0.26090 0.04400
C 	C 	0.15430 0.12650 0.30450 -0.06200
H 	H 	0.17560 0.13140 0.30770 0.04200
C 	C 	0.08840 0.11850 0.29410 -0.03800
H 	H 	0.06690 0.11580 0.29000 0.04200
C 	C 	0.12970 0.09980 0.32280 -0.07200
H 	H 	0.13560 0.08560 0.33860 0.05100
O 	O 	0.14730 0.03156 0.19186 -0.40700
O 	O 	0.11089 0.03202 0.15474 -0.41400
C 	C 	0.62220 0.54184 0.17930 0.36300
C 	C 	0.60616 0.56664 0.19590 -0.10100
C 	C 	0.61600 0.57640 0.22540 -0.00100
H 	H 	0.63300 0.56650 0.23530 0.04300
C 	C 	0.64470 0.61360 0.27620 -0.03900
H 	H 	0.65900 0.60660 0.26090 0.04400
C 	C 	0.65430 0.62650 0.30450 -0.06200
H 	H 	0.67560 0.63140 0.30770 0.04200
C 	C 	0.58840 0.61850 0.29410 -0.03800
H 	H 	0.56690 0.61580 0.29000 0.04400
C 	C 	0.62970 0.59980 0.32280 -0.07200
H 	H 	0.63560 0.58560 0.33860 0.05200
O 	O 	0.64730 0.53156 0.19186 -0.40600
O 	O 	0.61089 0.53202 0.15474 -0.41200
C 	C 	0.62220 0.04184 0.67930 0.36300
C 	C 	0.60616 0.06664 0.69590 -0.10200
C 	C 	0.61600 0.07640 0.72540 -0.00100
H 	H 	0.63300 0.06650 0.73530 0.04300
C 	C 	0.64470 0.11360 0.77620 -0.03900
H 	H 	0.65900 0.10660 0.76090 0.04400
C 	C 	0.65430 0.12650 0.80450 -0.06200
H 	H 	0.67560 0.13140 0.80770 0.04200
C 	C 	0.58840 0.11850 0.79410 -0.03800
H 	H 	0.56690 0.11580 0.79000 0.04300
C 	C 	0.62970 0.09980 0.82280 -0.07200
H 	H 	0.63560 0.08560 0.83860 0.05200
O 	O 	0.64730 0.03156 0.69186 -0.40700
O 	O 	0.61089 0.03202 0.65474 -0.41400
C 	C 	0.87780 0.54184 0.32070 0.36300
C 	C 	0.89384 0.56664 0.30410 -0.10000
C 	C 	0.88400 0.57640 0.27460 -0.00200
H 	H 	0.86700 0.56650 0.26470 0.04400
C 	C 	0.85530 0.61360 0.22380 -0.03900
H 	H 	0.84100 0.60660 0.23910 0.04400
C 	C 	0.84570 0.62650 0.19550 -0.06200
H 	H 	0.82440 0.63140 0.19230 0.04200
C 	C 	0.91160 0.61850 0.20590 -0.03800
H 	H 	0.93310 0.61580 0.21000 0.04400
C 	C 	0.87030 0.59980 0.17720 -0.07200
H 	H 	0.86440 0.58560 0.16140 0.05200
O 	O 	0.85270 0.53156 0.30814 -0.40600
O 	O 	0.88911 0.53202 0.34526 -0.41200
C 	C 	0.87780 0.04184 0.82070 0.36300
C 	C 	0.89384 0.06664 0.80410 -0.10100
C 	C 	0.88400 0.07640 0.77460 -0.00200
H 	H 	0.86700 0.06650 0.76470 0.04300
C 	C 	0.85530 0.11360 0.72380 -0.03900
H 	H 	0.84100 0.10660 0.73910 0.04400
C 	C 	0.84570 0.12650 0.69550 -0.06200
H 	H 	0.82440 0.13140 0.69230 0.04200
C 	C 	0.91160 0.11850 0.70590 -0.03800
H 	H 	0.93310 0.11580 0.71000 0.04400
C 	C 	0.87030 0.09980 0.67720 -0.07200
H 	H 	0.86440 0.08560 0.66140 0.05200
O 	O 	0.85270 0.03156 0.80814 -0.40700
O 	O 	0.88911 0.03202 0.84526 -0.41300
C 	C 	0.37780 0.54184 0.82070 0.36300
C 	C 	0.39384 0.56664 0.80410 -0.10100
C 	C 	0.38400 0.57640 0.77460 -0.00200
H 	H 	0.36700 0.56650 0.76470 0.04400
C 	C 	0.35530 0.61360 0.72380 -0.03900
H 	H 	0.34100 0.60660 0.73910 0.04400
C 	C 	0.34570 0.62650 0.69550 -0.06200
H 	H 	0.32440 0.63140 0.69230 0.04200
C 	C 	0.41160 0.61850 0.70590 -0.03800
H 	H 	0.43310 0.61580 0.71000 0.04400
C 	C 	0.37030 0.59980 0.67720 -0.07200
H 	H 	0.36440 0.58560 0.66140 0.05200
O 	O 	0.35270 0.53156 0.80814 -0.40600
O 	O 	0.38911 0.53202 0.84526 -0.41200
C 	C 	0.37780 0.04184 0.32070 0.36300
C 	C 	0.39384 0.06664 0.30410 -0.10200
C 	C 	0.38400 0.07640 0.27460 -0.00100
H 	H 	0.36700 0.06650 0.26470 0.04300
C 	C 	0.35530 0.11360 0.22380 -0.03900
H 	H 	0.34100 0.10660 0.23910 0.04400
C 	C 	0.34570 0.12650 0.19550 -0.06200
H 	H 	0.32440 0.13140 0.19230 0.04200
C 	C 	0.41160 0.11850 0.20590 -0.03800
H 	H 	0.43310 0.11580 0.21000 0.04300
C 	C 	0.37030 0.09980 0.17720 -0.07200
H 	H 	0.36440 0.08560 0.16140 0.05100
O 	O 	0.35270 0.03156 0.30814 -0.40700
O 	O 	0.38911 0.03202 0.34526 -0.41400
C 	C 	0.87780 0.45816 0.67930 0.36300
C 	C 	0.89384 0.43336 0.69590 -0.10000
C 	C 	0.88400 0.42360 0.72540 -0.00200
H 	H 	0.86700 0.43350 0.73530 0.04400
C 	C 	0.85530 0.38640 0.77620 -0.03900
H 	H 	0.84100 0.39340 0.76090 0.04400
C 	C 	0.84570 0.37350 0.80450 -0.06200
H 	H 	0.82440 0.36860 0.80770 0.04200
C 	C 	0.91160 0.38150 0.79410 -0.03800
H 	H 	0.93310 0.38420 0.79000 0.04400
C 	C 	0.87030 0.40020 0.82280 -0.07200
H 	H 	0.86440 0.41440 0.83860 0.05200
O 	O 	0.85270 0.46844 0.69186 -0.40600
O 	O 	0.88911 0.46798 0.65474 -0.41200
C 	C 	0.87780 0.95816 0.17930 0.36200
C 	C 	0.89384 0.93336 0.19590 -0.09900
C 	C 	0.88400 0.92360 0.22540 -0.00200
H 	H 	0.86700 0.93350 0.23530 0.04400
C 	C 	0.85530 0.88640 0.27620 -0.03900
H 	H 	0.84100 0.89340 0.26090 0.04500
C 	C 	0.84570 0.87350 0.30450 -0.06100
H 	H 	0.82440 0.86860 0.30770 0.04200
C 	C 	0.91160 0.88150 0.29410 -0.03800
H 	H 	0.93310 0.88420 0.29000 0.04500
C 	C 	0.87030 0.90020 0.32280 -0.07100
H 	H 	0.86440 0.91440 0.33860 0.05300
O 	O 	0.85270 0.96844 0.19186 -0.40300
O 	O 	0.88911 0.96798 0.15474 -0.40900
C 	C 	0.37780 0.45816 0.17930 0.36300
C 	C 	0.39384 0.43336 0.19590 -0.10100
C 	C 	0.38400 0.42360 0.22540 -0.00100
H 	H 	0.36700 0.43350 0.23530 0.04400
C 	C 	0.35530 0.38640 0.27620 -0.03900
H 	H 	0.34100 0.39340 0.26090 0.04500
C 	C 	0.34570 0.37350 0.30450 -0.06100
H 	H 	0.32440 0.36860 0.30770 0.04200
C 	C 	0.41160 0.38150 0.29410 -0.03800
H 	H 	0.43310 0.38420 0.29000 0.04400
C 	C 	0.37030 0.40020 0.32280 -0.07200
H 	H 	0.36440 0.41440 0.33860 0.05200
O 	O 	0.35270 0.46844 0.19186 -0.40600
O 	O 	0.38911 0.46798 0.15474 -0.41200
C 	C 	0.37780 0.95816 0.67930 0.36300
C 	C 	0.39384 0.93336 0.69590 -0.10000
C 	C 	0.38400 0.92360 0.72540 -0.00200
H 	H 	0.36700 0.93350 0.73530 0.04400
C 	C 	0.35530 0.88640 0.77620 -0.03900
H 	H 	0.34100 0.89340 0.76090 0.04500
C 	C 	0.34570 0.87350 0.80450 -0.06100
H 	H 	0.32440 0.86860 0.80770 0.04200
C 	C 	0.41160 0.88150 0.79410 -0.03800
H 	H 	0.43310 0.88420 0.79000 0.04400
C 	C 	0.37030 0.90020 0.82280 -0.07200
H 	H 	0.36440 0.91440 0.83860 0.05200
O 	O 	0.35270 0.96844 0.69186 -0.40300
O 	O 	0.38911 0.96798 0.65474 -0.40900
C 	C 	0.12220 0.45816 0.32070 0.36300
C 	C 	0.10616 0.43336 0.30410 -0.10100
C 	C 	0.11600 0.42360 0.27460 -0.00100
H 	H 	0.13300 0.43350 0.26470 0.04300
C 	C 	0.14470 0.38640 0.22380 -0.03900
H 	H 	0.15900 0.39340 0.23910 0.04500
C 	C 	0.15430 0.37350 0.19550 -0.06100
H 	H 	0.17560 0.36860 0.19230 0.04200
C 	C 	0.08840 0.38150 0.20590 -0.03800
H 	H 	0.06690 0.38420 0.21000 0.04300
C 	C 	0.12970 0.40020 0.17720 -0.07200
H 	H 	0.13560 0.41440 0.16140 0.05200
O 	O 	0.14730 0.46844 0.30814 -0.40600
O 	O 	0.11089 0.46798 0.34526 -0.41300
C 	C 	0.12220 0.95816 0.82070 0.36300
C 	C 	0.10616 0.93336 0.80410 -0.10000
C 	C 	0.11600 0.92360 0.77460 -0.00200
H 	H 	0.13300 0.93350 0.76470 0.04400
C 	C 	0.14470 0.88640 0.72380 -0.03900
H 	H 	0.15900 0.89340 0.73910 0.04500
C 	C 	0.15430 0.87350 0.69550 -0.06100
H 	H 	0.17560 0.86860 0.69230 0.04200
C 	C 	0.08840 0.88150 0.70590 -0.03800
H 	H 	0.06690 0.88420 0.71000 0.04300
C 	C 	0.12970 0.90020 0.67720 -0.07200
H 	H 	0.13560 0.91440 0.66140 0.05200
O 	O 	0.14730 0.96844 0.80814 -0.40300
O 	O 	0.11089 0.96798 0.84526 -0.41000
C 	C 	0.62220 0.45816 0.82070 0.36300
C 	C 	0.60616 0.43336 0.80410 -0.10100
C 	C 	0.61600 0.42360 0.77460 -0.00200
H 	H 	0.63300 0.43350 0.76470 0.04400
C 	C 	0.64470 0.38640 0.72380 -0.03900
H 	H 	0.65900 0.39340 0.73910 0.04400
C 	C 	0.65430 0.37350 0.69550 -0.06200
H 	H 	0.67560 0.36860 0.69230 0.04200
C 	C 	0.58840 0.38150 0.70590 -0.03800
H 	H 	0.56690 0.38420 0.71000 0.04400
C 	C 	0.62970 0.40020 0.67720 -0.07200
H 	H 	0.63560 0.41440 0.66140 0.05200
O 	O 	0.64730 0.46844 0.80814 -0.40600
O 	O 	0.61089 0.46798 0.84526 -0.41200
C 	C 	0.62220 0.95816 0.32070 0.36300
C 	C 	0.60616 0.93336 0.30410 -0.10000
C 	C 	0.61600 0.92360 0.27460 -0.00200
H 	H 	0.63300 0.93350 0.26470 0.04400
C 	C 	0.64470 0.88640 0.22380 -0.03900
H 	H 	0.65900 0.89340 0.23910 0.04500
C 	C 	0.65430 0.87350 0.19550 -0.06100
H 	H 	0.67560 0.86860 0.19230 0.04200
C 	C 	0.58840 0.88150 0.20590 -0.03800
H 	H 	0.56690 0.88420 0.21000 0.04400
C 	C 	0.62970 0.90020 0.17720 -0.07200
H 	H 	0.63560 0.91440 0.16140 0.05200
O 	O 	0.64730 0.96844 0.30814 -0.40300
O 	O 	0.61089 0.96798 0.34526 -0.40900
C 	C 	0.54184 0.32070 0.87780 0.36300
C 	C 	0.56664 0.30410 0.89384 -0.10000
C 	C 	0.57640 0.27460 0.88400 -0.00200
H 	H 	0.56650 0.26470 0.86700 0.04400
C 	C 	0.61360 0.22380 0.85530 -0.03900
H 	H 	0.60660 0.23910 0.84100 0.04400
C 	C 	0.62650 0.19550 0.84570 -0.06200
H 	H 	0.63140 0.19230 0.82440 0.04200
C 	C 	0.61850 0.20590 0.91160 -0.03800
H 	H 	0.61580 0.21000 0.93310 0.04400
C 	C 	0.59980 0.17720 0.87030 -0.07200
H 	H 	0.58560 0.16140 0.86440 0.05200
O 	O 	0.53156 0.30814 0.85270 -0.40600
O 	O 	0.53202 0.34526 0.88911 -0.41200
C 	C 	0.54184 0.82070 0.37780 0.36300
C 	C 	0.56664 0.80410 0.39384 -0.10100
C 	C 	0.57640 0.77460 0.38400 -0.00200
H 	H 	0.56650 0.76470 0.36700 0.04400
C 	C 	0.61360 0.72380 0.35530 -0.03900
H 	H 	0.60660 0.73910 0.34100 0.04400
C 	C 	0.62650 0.69550 0.34570 -0.06200
H 	H 	0.63140 0.69230 0.32440 0.04200
C 	C 	0.61850 0.70590 0.41160 -0.03800
H 	H 	0.61580 0.71000 0.43310 0.04400
C 	C 	0.59980 0.67720 0.37030 -0.07200
H 	H 	0.58560 0.66140 0.36440 0.05200
O 	O 	0.53156 0.80814 0.35270 -0.40600
O 	O 	0.53202 0.84526 0.38911 -0.41200
C 	C 	0.04184 0.32070 0.37780 0.36300
C 	C 	0.06664 0.30410 0.39384 -0.10200
C 	C 	0.07640 0.27460 0.38400 -0.00100
H 	H 	0.06650 0.26470 0.36700 0.04300
C 	C 	0.11360 0.22380 0.35530 -0.03900
H 	H 	0.10660 0.23910 0.34100 0.04400
C 	C 	0.12650 0.19550 0.34570 -0.06200
H 	H 	0.13140 0.19230 0.32440 0.04200
C 	C 	0.11850 0.20590 0.41160 -0.03800
H 	H 	0.11580 0.21000 0.43310 0.04300
C 	C 	0.09980 0.17720 0.37030 -0.07200
H 	H 	0.08560 0.16140 0.36440 0.05100
O 	O 	0.03156 0.30814 0.35270 -0.40700
O 	O 	0.03202 0.34526 0.38911 -0.41400
C 	C 	0.04184 0.82070 0.87780 0.36300
C 	C 	0.06664 0.80410 0.89384 -0.10100
C 	C 	0.07640 0.77460 0.88400 -0.00200
H 	H 	0.06650 0.76470 0.86700 0.04300
C 	C 	0.11360 0.72380 0.85530 -0.03900
H 	H 	0.10660 0.73910 0.84100 0.04400
C 	C 	0.12650 0.69550 0.84570 -0.06200
H 	H 	0.13140 0.69230 0.82440 0.04200
C 	C 	0.11850 0.70590 0.91160 -0.03800
H 	H 	0.11580 0.71000 0.93310 0.04400
C 	C 	0.09980 0.67720 0.87030 -0.07200
H 	H 	0.08560 0.66140 0.86440 0.05200
O 	O 	0.03156 0.80814 0.85270 -0.40700
O 	O 	0.03202 0.84526 0.88911 -0.41300
C 	C 	0.54184 0.67930 0.12220 0.36300
C 	C 	0.56664 0.69590 0.10616 -0.10100
C 	C 	0.57640 0.72540 0.11600 -0.00100
H 	H 	0.56650 0.73530 0.13300 0.04300
C 	C 	0.61360 0.77620 0.14470 -0.03900
H 	H 	0.60660 0.76090 0.15900 0.04400
C 	C 	0.62650 0.80450 0.15430 -0.06200
H 	H 	0.63140 0.80770 0.17560 0.04200
C 	C 	0.61850 0.79410 0.08840 -0.03800
H 	H 	0.61580 0.79000 0.06690 0.04300
C 	C 	0.59980 0.82280 0.12970 -0.07200
H 	H 	0.58560 0.83860 0.13560 0.05200
O 	O 	0.53156 0.69186 0.14730 -0.40600
O 	O 	0.53202 0.65474 0.11089 -0.41300
C 	C 	0.54184 0.17930 0.62220 0.36300
C 	C 	0.56664 0.19590 0.60616 -0.10100
C 	C 	0.57640 0.22540 0.61600 -0.00100
H 	H 	0.56650 0.23530 0.63300 0.04300
C 	C 	0.61360 0.27620 0.64470 -0.03900
H 	H 	0.60660 0.26090 0.65900 0.04400
C 	C 	0.62650 0.30450 0.65430 -0.06200
H 	H 	0.63140 0.30770 0.67560 0.04200
C 	C 	0.61850 0.29410 0.58840 -0.03800
H 	H 	0.61580 0.29000 0.56690 0.04400
C 	C 	0.59980 0.32280 0.62970 -0.07200
H 	H 	0.58560 0.33860 0.63560 0.05200
O 	O 	0.53156 0.19186 0.64730 -0.40600
O 	O 	0.53202 0.15474 0.61089 -0.41200
C 	C 	0.04184 0.67930 0.62220 0.36300
C 	C 	0.06664 0.69590 0.60616 -0.10200
C 	C 	0.07640 0.72540 0.61600 -0.00100
H 	H 	0.06650 0.73530 0.63300 0.04300
C 	C 	0.11360 0.77620 0.64470 -0.03900
H 	H 	0.10660 0.76090 0.65900 0.04400
C 	C 	0.12650 0.80450 0.65430 -0.06200
H 	H 	0.13140 0.80770 0.67560 0.04200
C 	C 	0.11850 0.79410 0.58840 -0.03800
H 	H 	0.11580 0.79000 0.56690 0.04300
C 	C 	0.09980 0.82280 0.62970 -0.07200
H 	H 	0.08560 0.83860 0.63560 0.05200
O 	O 	0.03156 0.69186 0.64730 -0.40700
O 	O 	0.03202 0.65474 0.61089 -0.41400
C 	C 	0.04184 0.17930 0.12220 0.36300
C 	C 	0.06664 0.19590 0.10616 -0.10200
C 	C 	0.07640 0.22540 0.11600 -0.00100
H 	H 	0.06650 0.23530 0.13300 0.04300
C 	C 	0.11360 0.27620 0.14470 -0.03900
H 	H 	0.10660 0.26090 0.15900 0.04400
C 	C 	0.12650 0.30450 0.15430 -0.06200
H 	H 	0.13140 0.30770 0.17560 0.04200
C 	C 	0.11850 0.29410 0.08840 -0.03800
H 	H 	0.11580 0.29000 0.06690 0.04200
C 	C 	0.09980 0.32280 0.12970 -0.07200
H 	H 	0.08560 0.33860 0.13560 0.05100
O 	O 	0.03156 0.19186 0.14730 -0.40700
O 	O 	0.03202 0.15474 0.11089 -0.41400
C 	C 	0.45816 0.32070 0.12220 0.36300
C 	C 	0.43336 0.30410 0.10616 -0.10100
C 	C 	0.42360 0.27460 0.11600 -0.00100
H 	H 	0.43350 0.26470 0.13300 0.04300
C 	C 	0.38640 0.22380 0.14470 -0.03900
H 	H 	0.39340 0.23910 0.15900 0.04500
C 	C 	0.37350 0.19550 0.15430 -0.06100
H 	H 	0.36860 0.19230 0.17560 0.04200
C 	C 	0.38150 0.20590 0.08840 -0.03800
H 	H 	0.38420 0.21000 0.06690 0.04300
C 	C 	0.40020 0.17720 0.12970 -0.07200
H 	H 	0.41440 0.16140 0.13560 0.05200
O 	O 	0.46844 0.30814 0.14730 -0.40600
O 	O 	0.46798 0.34526 0.11089 -0.41300
C 	C 	0.45816 0.82070 0.62220 0.36300
C 	C 	0.43336 0.80410 0.60616 -0.10100
C 	C 	0.42360 0.77460 0.61600 -0.00200
H 	H 	0.43350 0.76470 0.63300 0.04400
C 	C 	0.38640 0.72380 0.64470 -0.03900
H 	H 	0.39340 0.73910 0.65900 0.04400
C 	C 	0.37350 0.69550 0.65430 -0.06200
H 	H 	0.36860 0.69230 0.67560 0.04200
C 	C 	0.38150 0.70590 0.58840 -0.03800
H 	H 	0.38420 0.71000 0.56690 0.04400
C 	C 	0.40020 0.67720 0.62970 -0.07200
H 	H 	0.41440 0.66140 0.63560 0.05200
O 	O 	0.46844 0.80814 0.64730 -0.40600
O 	O 	0.46798 0.84526 0.61089 -0.41200
C 	C 	0.95816 0.32070 0.62220 0.36300
C 	C 	0.93336 0.30410 0.60616 -0.10000
C 	C 	0.92360 0.27460 0.61600 -0.00200
H 	H 	0.93350 0.26470 0.63300 0.04400
C 	C 	0.88640 0.22380 0.64470 -0.03900
H 	H 	0.89340 0.23910 0.65900 0.04500
C 	C 	0.87350 0.19550 0.65430 -0.06100
H 	H 	0.86860 0.19230 0.67560 0.04200
C 	C 	0.88150 0.20590 0.58840 -0.03800
H 	H 	0.88420 0.21000 0.56690 0.04400
C 	C 	0.90020 0.17720 0.62970 -0.07200
H 	H 	0.91440 0.16140 0.63560 0.05200
O 	O 	0.96844 0.30814 0.64730 -0.40300
O 	O 	0.96798 0.34526 0.61089 -0.40900
C 	C 	0.95816 0.82070 0.12220 0.36300
C 	C 	0.93336 0.80410 0.10616 -0.10000
C 	C 	0.92360 0.77460 0.11600 -0.00200
H 	H 	0.93350 0.76470 0.13300 0.04400
C 	C 	0.88640 0.72380 0.14470 -0.03900
H 	H 	0.89340 0.73910 0.15900 0.04500
C 	C 	0.87350 0.69550 0.15430 -0.06100
H 	H 	0.86860 0.69230 0.17560 0.04200
C 	C 	0.88150 0.70590 0.08840 -0.03800
H 	H 	0.88420 0.71000 0.06690 0.04300
C 	C 	0.90020 0.67720 0.12970 -0.07200
H 	H 	0.91440 0.66140 0.13560 0.05200
O 	O 	0.96844 0.80814 0.14730 -0.40300
O 	O 	0.96798 0.84526 0.11089 -0.41000
C 	C 	0.45816 0.67930 0.87780 0.36300
C 	C 	0.43336 0.69590 0.89384 -0.10000
C 	C 	0.42360 0.72540 0.88400 -0.00200
H 	H 	0.43350 0.73530 0.86700 0.04400
C 	C 	0.38640 0.77620 0.85530 -0.03900
H 	H 	0.39340 0.76090 0.84100 0.04400
C 	C 	0.37350 0.80450 0.84570 -0.06200
H 	H 	0.36860 0.80770 0.82440 0.04200
C 	C 	0.38150 0.79410 0.91160 -0.03800
H 	H 	0.38420 0.79000 0.93310 0.04400
C 	C 	0.40020 0.82280 0.87030 -0.07200
H 	H 	0.41440 0.83860 0.86440 0.05200
O 	O 	0.46844 0.69186 0.85270 -0.40600
O 	O 	0.46798 0.65474 0.88911 -0.41200
C 	C 	0.45816 0.17930 0.37780 0.36300
C 	C 	0.43336 0.19590 0.39384 -0.10100
C 	C 	0.42360 0.22540 0.38400 -0.00100
H 	H 	0.43350 0.23530 0.36700 0.04400
C 	C 	0.38640 0.27620 0.35530 -0.03900
H 	H 	0.39340 0.26090 0.34100 0.04500
C 	C 	0.37350 0.30450 0.34570 -0.06100
H 	H 	0.36860 0.30770 0.32440 0.04200
C 	C 	0.38150 0.29410 0.41160 -0.03800
H 	H 	0.38420 0.29000 0.43310 0.04400
C 	C 	0.40020 0.32280 0.37030 -0.07200
H 	H 	0.41440 0.33860 0.36440 0.05200
O 	O 	0.46844 0.19186 0.35270 -0.40600
O 	O 	0.46798 0.15474 0.38911 -0.41200
C 	C 	0.95816 0.67930 0.37780 0.36300
C 	C 	0.93336 0.69590 0.39384 -0.10000
C 	C 	0.92360 0.72540 0.38400 -0.00200
H 	H 	0.93350 0.73530 0.36700 0.04400
C 	C 	0.88640 0.77620 0.35530 -0.03900
H 	H 	0.89340 0.76090 0.34100 0.04500
C 	C 	0.87350 0.80450 0.34570 -0.06100
H 	H 	0.86860 0.80770 0.32440 0.04200
C 	C 	0.88150 0.79410 0.41160 -0.03800
H 	H 	0.88420 0.79000 0.43310 0.04400
C 	C 	0.90020 0.82280 0.37030 -0.07200
H 	H 	0.91440 0.83860 0.36440 0.05200
O 	O 	0.96844 0.69186 0.35270 -0.40300
O 	O 	0.96798 0.65474 0.38911 -0.40900
C 	C 	0.95816 0.17930 0.87780 0.36200
C 	C 	0.93336 0.19590 0.89384 -0.09900
C 	C 	0.92360 0.22540 0.88400 -0.00200
H 	H 	0.93350 0.23530 0.86700 0.04400
C 	C 	0.88640 0.27620 0.85530 -0.03900
H 	H 	0.89340 0.26090 0.84100 0.04500
C 	C 	0.87350 0.30450 0.84570 -0.06100
H 	H 	0.86860 0.30770 0.82440 0.04200
C 	C 	0.88150 0.29410 0.91160 -0.03800
H 	H 	0.88420 0.29000 0.93310 0.04500
C 	C 	0.90020 0.32280 0.87030 -0.07100
H 	H 	0.91440 0.33860 0.86440 0.05300
O 	O 	0.96844 0.19186 0.85270 -0.40300
O 	O 	0.96798 0.15474 0.88911 -0.40900
C 	C 	0.87780 0.67930 0.45816 0.36300
C 	C 	0.89384 0.69590 0.43336 -0.10000
C 	C 	0.88400 0.72540 0.42360 -0.00200
H 	H 	0.86700 0.73530 0.43350 0.04400
C 	C 	0.85530 0.77620 0.38640 -0.03900
H 	H 	0.84100 0.76090 0.39340 0.04400
C 	C 	0.84570 0.80450 0.37350 -0.06200
H 	H 	0.82440 0.80770 0.36860 0.04200
C 	C 	0.91160 0.79410 0.38150 -0.03800
H 	H 	0.93310 0.79000 0.38420 0.04400
C 	C 	0.87030 0.82280 0.40020 -0.07200
H 	H 	0.86440 0.83860 0.41440 0.05200
O 	O 	0.85270 0.69186 0.46844 -0.40600
O 	O 	0.88911 0.65474 0.46798 -0.41200
C 	C 	0.87780 0.17930 0.95816 0.36200
C 	C 	0.89384 0.19590 0.93336 -0.09900
C 	C 	0.88400 0.22540 0.92360 -0.00200
H 	H 	0.86700 0.23530 0.93350 0.04400
C 	C 	0.85530 0.27620 0.88640 -0.03900
H 	H 	0.84100 0.26090 0.89340 0.04500
C 	C 	0.84570 0.30450 0.87350 -0.06100
H 	H 	0.82440 0.30770 0.86860 0.04200
C 	C 	0.91160 0.29410 0.88150 -0.03800
H 	H 	0.93310 0.29000 0.88420 0.04500
C 	C 	0.87030 0.32280 0.90020 -0.07100
H 	H 	0.86440 0.33860 0.91440 0.05300
O 	O 	0.85270 0.19186 0.96844 -0.40300
O 	O 	0.88911 0.15474 0.96798 -0.40900
C 	C 	0.37780 0.67930 0.95816 0.36300
C 	C 	0.39384 0.69590 0.93336 -0.10000
C 	C 	0.38400 0.72540 0.92360 -0.00200
H 	H 	0.36700 0.73530 0.93350 0.04400
C 	C 	0.35530 0.77620 0.88640 -0.03900
H 	H 	0.34100 0.76090 0.89340 0.04500
C 	C 	0.34570 0.80450 0.87350 -0.06100
H 	H 	0.32440 0.80770 0.86860 0.04200
C 	C 	0.41160 0.79410 0.88150 -0.03800
H 	H 	0.43310 0.79000 0.88420 0.04400
C 	C 	0.37030 0.82280 0.90020 -0.07200
H 	H 	0.36440 0.83860 0.91440 0.05200
O 	O 	0.35270 0.69186 0.96844 -0.40300
O 	O 	0.38911 0.65474 0.96798 -0.40900
C 	C 	0.37780 0.17930 0.45816 0.36300
C 	C 	0.39384 0.19590 0.43336 -0.10100
C 	C 	0.38400 0.22540 0.42360 -0.00100
H 	H 	0.36700 0.23530 0.43350 0.04400
C 	C 	0.35530 0.27620 0.38640 -0.03900
H 	H 	0.34100 0.26090 0.39340 0.04500
C 	C 	0.34570 0.30450 0.37350 -0.06100
H 	H 	0.32440 0.30770 0.36860 0.04200
C 	C 	0.41160 0.29410 0.38150 -0.03800
H 	H 	0.43310 0.29000 0.38420 0.04400
C 	C 	0.37030 0.32280 0.40020 -0.07200
H 	H 	0.36440 0.33860 0.41440 0.05200
O 	O 	0.35270 0.19186 0.46844 -0.40600
O 	O 	0.38911 0.15474 0.46798 -0.41200
C 	C 	0.12220 0.32070 0.45816 0.36300
C 	C 	0.10616 0.30410 0.43336 -0.10100
C 	C 	0.11600 0.27460 0.42360 -0.00100
H 	H 	0.13300 0.26470 0.43350 0.04300
C 	C 	0.14470 0.22380 0.38640 -0.03900
H 	H 	0.15900 0.23910 0.39340 0.04500
C 	C 	0.15430 0.19550 0.37350 -0.06100
H 	H 	0.17560 0.19230 0.36860 0.04200
C 	C 	0.08840 0.20590 0.38150 -0.03800
H 	H 	0.06690 0.21000 0.38420 0.04300
C 	C 	0.12970 0.17720 0.40020 -0.07200
H 	H 	0.13560 0.16140 0.41440 0.05200
O 	O 	0.14730 0.30814 0.46844 -0.40600
O 	O 	0.11089 0.34526 0.46798 -0.41300
C 	C 	0.12220 0.82070 0.95816 0.36300
C 	C 	0.10616 0.80410 0.93336 -0.10000
C 	C 	0.11600 0.77460 0.92360 -0.00200
H 	H 	0.13300 0.76470 0.93350 0.04400
C 	C 	0.14470 0.72380 0.88640 -0.03900
H 	H 	0.15900 0.73910 0.89340 0.04500
C 	C 	0.15430 0.69550 0.87350 -0.06100
H 	H 	0.17560 0.69230 0.86860 0.04200
C 	C 	0.08840 0.70590 0.88150 -0.03800
H 	H 	0.06690 0.71000 0.88420 0.04300
C 	C 	0.12970 0.67720 0.90020 -0.07200
H 	H 	0.13560 0.66140 0.91440 0.05200
O 	O 	0.14730 0.80814 0.96844 -0.40300
O 	O 	0.11089 0.84526 0.96798 -0.41000
C 	C 	0.62220 0.32070 0.95816 0.36300
C 	C 	0.60616 0.30410 0.93336 -0.10000
C 	C 	0.61600 0.27460 0.92360 -0.00200
H 	H 	0.63300 0.26470 0.93350 0.04400
C 	C 	0.64470 0.22380 0.88640 -0.03900
H 	H 	0.65900 0.23910 0.89340 0.04500
C 	C 	0.65430 0.19550 0.87350 -0.06100
H 	H 	0.67560 0.19230 0.86860 0.04200
C 	C 	0.58840 0.20590 0.88150 -0.03800
H 	H 	0.56690 0.21000 0.88420 0.04400
C 	C 	0.62970 0.17720 0.90020 -0.07200
H 	H 	0.63560 0.16140 0.91440 0.05200
O 	O 	0.64730 0.30814 0.96844 -0.40300
O 	O 	0.61089 0.34526 0.96798 -0.40900
C 	C 	0.62220 0.82070 0.45816 0.36300
C 	C 	0.60616 0.80410 0.43336 -0.10100
C 	C 	0.61600 0.77460 0.42360 -0.00200
H 	H 	0.63300 0.76470 0.43350 0.04400
C 	C 	0.64470 0.72380 0.38640 -0.03900
H 	H 	0.65900 0.73910 0.39340 0.04400
C 	C 	0.65430 0.69550 0.37350 -0.06200
H 	H 	0.67560 0.69230 0.36860 0.04200
C 	C 	0.58840 0.70590 0.38150 -0.03800
H 	H 	0.56690 0.71000 0.38420 0.04400
C 	C 	0.62970 0.67720 0.40020 -0.07200
H 	H 	0.63560 0.66140 0.41440 0.05200
O 	O 	0.64730 0.80814 0.46844 -0.40600
O 	O 	0.61089 0.84526 0.46798 -0.41200
C 	C 	0.12220 0.67930 0.54184 0.36300
C 	C 	0.10616 0.69590 0.56664 -0.10100
C 	C 	0.11600 0.72540 0.57640 -0.00100
H 	H 	0.13300 0.73530 0.56650 0.04300
C 	C 	0.14470 0.77620 0.61360 -0.03900
H 	H 	0.15900 0.76090 0.60660 0.04400
C 	C 	0.15430 0.80450 0.62650 -0.06200
H 	H 	0.17560 0.80770 0.63140 0.04200
C 	C 	0.08840 0.79410 0.61850 -0.03800
H 	H 	0.06690 0.79000 0.61580 0.04300
C 	C 	0.12970 0.82280 0.59980 -0.07200
H 	H 	0.13560 0.83860 0.58560 0.05200
O 	O 	0.14730 0.69186 0.53156 -0.40600
O 	O 	0.11089 0.65474 0.53202 -0.41300
C 	C 	0.12220 0.17930 0.04184 0.36300
C 	C 	0.10616 0.19590 0.06664 -0.10200
C 	C 	0.11600 0.22540 0.07640 -0.00100
H 	H 	0.13300 0.23530 0.06650 0.04300
C 	C 	0.14470 0.27620 0.11360 -0.03900
H 	H 	0.15900 0.26090 0.10660 0.04400
C 	C 	0.15430 0.30450 0.12650 -0.06200
H 	H 	0.17560 0.30770 0.13140 0.04200
C 	C 	0.08840 0.29410 0.11850 -0.03800
H 	H 	0.06690 0.29000 0.11580 0.04200
C 	C 	0.12970 0.32280 0.09980 -0.07200
H 	H 	0.13560 0.33860 0.08560 0.05100
O 	O 	0.14730 0.19186 0.03156 -0.40700
O 	O 	0.11089 0.15474 0.03202 -0.41400
C 	C 	0.62220 0.67930 0.04184 0.36300
C 	C 	0.60616 0.69590 0.06664 -0.10200
C 	C 	0.61600 0.72540 0.07640 -0.00100
H 	H 	0.63300 0.73530 0.06650 0.04300
C 	C 	0.64470 0.77620 0.11360 -0.03900
H 	H 	0.65900 0.76090 0.10660 0.04400
C 	C 	0.65430 0.80450 0.12650 -0.06200
H 	H 	0.67560 0.80770 0.13140 0.04200
C 	C 	0.58840 0.79410 0.11850 -0.03800
H 	H 	0.56690 0.79000 0.11580 0.04300
C 	C 	0.62970 0.82280 0.09980 -0.07200
H 	H 	0.63560 0.83860 0.08560 0.05200
O 	O 	0.64730 0.69186 0.03156 -0.40700
O 	O 	0.61089 0.65474 0.03202 -0.41400
C 	C 	0.62220 0.17930 0.54184 0.36300
C 	C 	0.60616 0.19590 0.56664 -0.10100
C 	C 	0.61600 0.22540 0.57640 -0.00100
H 	H 	0.63300 0.23530 0.56650 0.04300
C 	C 	0.64470 0.27620 0.61360 -0.03900
H 	H 	0.65900 0.26090 0.60660 0.04400
C 	C 	0.65430 0.30450 0.62650 -0.06200
H 	H 	0.67560 0.30770 0.63140 0.04200
C 	C 	0.58840 0.29410 0.61850 -0.03800
H 	H 	0.56690 0.29000 0.61580 0.04400
C 	C 	0.62970 0.32280 0.59980 -0.07200
H 	H 	0.63560 0.33860 0.58560 0.05200
O 	O 	0.64730 0.19186 0.53156 -0.40600
O 	O 	0.61089 0.15474 0.53202 -0.41200
C 	C 	0.87780 0.32070 0.54184 0.36300
C 	C 	0.89384 0.30410 0.56664 -0.10000
C 	C 	0.88400 0.27460 0.57640 -0.00200
H 	H 	0.86700 0.26470 0.56650 0.04400
C 	C 	0.85530 0.22380 0.61360 -0.03900
H 	H 	0.84100 0.23910 0.60660 0.04400
C 	C 	0.84570 0.19550 0.62650 -0.06200
H 	H 	0.82440 0.19230 0.63140 0.04200
C 	C 	0.91160 0.20590 0.61850 -0.03800
H 	H 	0.93310 0.21000 0.61580 0.04400
C 	C 	0.87030 0.17720 0.59980 -0.07200
H 	H 	0.86440 0.16140 0.58560 0.05200
O 	O 	0.85270 0.30814 0.53156 -0.40600
O 	O 	0.88911 0.34526 0.53202 -0.41200
C 	C 	0.87780 0.82070 0.04184 0.36300
C 	C 	0.89384 0.80410 0.06664 -0.10100
C 	C 	0.88400 0.77460 0.07640 -0.00200
H 	H 	0.86700 0.76470 0.06650 0.04300
C 	C 	0.85530 0.72380 0.11360 -0.03900
H 	H 	0.84100 0.73910 0.10660 0.04400
C 	C 	0.84570 0.69550 0.12650 -0.06200
H 	H 	0.82440 0.69230 0.13140 0.04200
C 	C 	0.91160 0.70590 0.11850 -0.03800
H 	H 	0.93310 0.71000 0.11580 0.04400
C 	C 	0.87030 0.67720 0.09980 -0.07200
H 	H 	0.86440 0.66140 0.08560 0.05200
O 	O 	0.85270 0.80814 0.03156 -0.40700
O 	O 	0.88911 0.84526 0.03202 -0.41300
C 	C 	0.37780 0.32070 0.04184 0.36300
C 	C 	0.39384 0.30410 0.06664 -0.10200
C 	C 	0.38400 0.27460 0.07640 -0.00100
H 	H 	0.36700 0.26470 0.06650 0.04300
C 	C 	0.35530 0.22380 0.11360 -0.03900
H 	H 	0.34100 0.23910 0.10660 0.04400
C 	C 	0.34570 0.19550 0.12650 -0.06200
H 	H 	0.32440 0.19230 0.13140 0.04200
C 	C 	0.41160 0.20590 0.11850 -0.03800
H 	H 	0.43310 0.21000 0.11580 0.04300
C 	C 	0.37030 0.17720 0.09980 -0.07200
H 	H 	0.36440 0.16140 0.08560 0.05100
O 	O 	0.35270 0.30814 0.03156 -0.40700
O 	O 	0.38911 0.34526 0.03202 -0.41400
C 	C 	0.37780 0.82070 0.54184 0.36300
C 	C 	0.39384 0.80410 0.56664 -0.10100
C 	C 	0.38400 0.77460 0.57640 -0.00200
H 	H 	0.36700 0.76470 0.56650 0.04400
C 	C 	0.35530 0.72380 0.61360 -0.03900
H 	H 	0.34100 0.73910 0.60660 0.04400
C 	C 	0.34570 0.69550 0.62650 -0.06200
H 	H 	0.32440 0.69230 0.63140 0.04200
C 	C 	0.41160 0.70590 0.61850 -0.03800
H 	H 	0.43310 0.71000 0.61580 0.04400
C 	C 	0.37030 0.67720 0.59980 -0.07200
H 	H 	0.36440 0.66140 0.58560 0.05200
O 	O 	0.35270 0.80814 0.53156 -0.40600
O 	O 	0.38911 0.84526 0.53202 -0.41200
C 	C 	0.45816 0.87780 0.67930 0.36300
C 	C 	0.43336 0.89384 0.69590 -0.10000
C 	C 	0.42360 0.88400 0.72540 -0.00200
H 	H 	0.43350 0.86700 0.73530 0.04400
C 	C 	0.38640 0.85530 0.77620 -0.03900
H 	H 	0.39340 0.84100 0.76090 0.04400
C 	C 	0.37350 0.84570 0.80450 -0.06200
H 	H 	0.36860 0.82440 0.80770 0.04200
C 	C 	0.38150 0.91160 0.79410 -0.03800
H 	H 	0.38420 0.93310 0.79000 0.04400
C 	C 	0.40020 0.87030 0.82280 -0.07200
H 	H 	0.41440 0.86440 0.83860 0.05200
O 	O 	0.46844 0.85270 0.69186 -0.40600
O 	O 	0.46798 0.88911 0.65474 -0.41200
C 	C 	0.45816 0.37780 0.17930 0.36300
C 	C 	0.43336 0.39384 0.19590 -0.10100
C 	C 	0.42360 0.38400 0.22540 -0.00100
H 	H 	0.43350 0.36700 0.23530 0.04400
C 	C 	0.38640 0.35530 0.27620 -0.03900
H 	H 	0.39340 0.34100 0.26090 0.04500
C 	C 	0.37350 0.34570 0.30450 -0.06100
H 	H 	0.36860 0.32440 0.30770 0.04200
C 	C 	0.38150 0.41160 0.29410 -0.03800
H 	H 	0.38420 0.43310 0.29000 0.04400
C 	C 	0.40020 0.37030 0.32280 -0.07200
H 	H 	0.41440 0.36440 0.33860 0.05200
O 	O 	0.46844 0.35270 0.19186 -0.40600
O 	O 	0.46798 0.38911 0.15474 -0.41200
C 	C 	0.95816 0.87780 0.17930 0.36200
C 	C 	0.93336 0.89384 0.19590 -0.09900
C 	C 	0.92360 0.88400 0.22540 -0.00200
H 	H 	0.93350 0.86700 0.23530 0.04400
C 	C 	0.88640 0.85530 0.27620 -0.03900
H 	H 	0.89340 0.84100 0.26090 0.04500
C 	C 	0.87350 0.84570 0.30450 -0.06100
H 	H 	0.86860 0.82440 0.30770 0.04200
C 	C 	0.88150 0.91160 0.29410 -0.03800
H 	H 	0.88420 0.93310 0.29000 0.04500
C 	C 	0.90020 0.87030 0.32280 -0.07100
H 	H 	0.91440 0.86440 0.33860 0.05300
O 	O 	0.96844 0.85270 0.19186 -0.40300
O 	O 	0.96798 0.88911 0.15474 -0.40900
C 	C 	0.95816 0.37780 0.67930 0.36300
C 	C 	0.93336 0.39384 0.69590 -0.10000
C 	C 	0.92360 0.38400 0.72540 -0.00200
H 	H 	0.93350 0.36700 0.73530 0.04400
C 	C 	0.88640 0.35530 0.77620 -0.03900
H 	H 	0.89340 0.34100 0.76090 0.04500
C 	C 	0.87350 0.34570 0.80450 -0.06100
H 	H 	0.86860 0.32440 0.80770 0.04200
C 	C 	0.88150 0.41160 0.79410 -0.03800
H 	H 	0.88420 0.43310 0.79000 0.04400
C 	C 	0.90020 0.37030 0.82280 -0.07200
H 	H 	0.91440 0.36440 0.83860 0.05200
O 	O 	0.96844 0.35270 0.69186 -0.40300
O 	O 	0.96798 0.38911 0.65474 -0.40900
C 	C 	0.45816 0.12220 0.32070 0.36300
C 	C 	0.43336 0.10616 0.30410 -0.10100
C 	C 	0.42360 0.11600 0.27460 -0.00100
H 	H 	0.43350 0.13300 0.26470 0.04300
C 	C 	0.38640 0.14470 0.22380 -0.03900
H 	H 	0.39340 0.15900 0.23910 0.04500
C 	C 	0.37350 0.15430 0.19550 -0.06100
H 	H 	0.36860 0.17560 0.19230 0.04200
C 	C 	0.38150 0.08840 0.20590 -0.03800
H 	H 	0.38420 0.06690 0.21000 0.04300
C 	C 	0.40020 0.12970 0.17720 -0.07200
H 	H 	0.41440 0.13560 0.16140 0.05200
O 	O 	0.46844 0.14730 0.30814 -0.40600
O 	O 	0.46798 0.11089 0.34526 -0.41300
C 	C 	0.45816 0.62220 0.82070 0.36300
C 	C 	0.43336 0.60616 0.80410 -0.10100
C 	C 	0.42360 0.61600 0.77460 -0.00200
H 	H 	0.43350 0.63300 0.76470 0.04400
C 	C 	0.38640 0.64470 0.72380 -0.03900
H 	H 	0.39340 0.65900 0.73910 0.04400
C 	C 	0.37350 0.65430 0.69550 -0.06200
H 	H 	0.36860 0.67560 0.69230 0.04200
C 	C 	0.38150 0.58840 0.70590 -0.03800
H 	H 	0.38420 0.56690 0.71000 0.04400
C 	C 	0.40020 0.62970 0.67720 -0.07200
H 	H 	0.41440 0.63560 0.66140 0.05200
O 	O 	0.46844 0.64730 0.80814 -0.40600
O 	O 	0.46798 0.61089 0.84526 -0.41200
C 	C 	0.95816 0.12220 0.82070 0.36300
C 	C 	0.93336 0.10616 0.80410 -0.10000
C 	C 	0.92360 0.11600 0.77460 -0.00200
H 	H 	0.93350 0.13300 0.76470 0.04400
C 	C 	0.88640 0.14470 0.72380 -0.03900
H 	H 	0.89340 0.15900 0.73910 0.04500
C 	C 	0.87350 0.15430 0.69550 -0.06100
H 	H 	0.86860 0.17560 0.69230 0.04200
C 	C 	0.88150 0.08840 0.70590 -0.03800
H 	H 	0.88420 0.06690 0.71000 0.04300
C 	C 	0.90020 0.12970 0.67720 -0.07200
H 	H 	0.91440 0.13560 0.66140 0.05200
O 	O 	0.96844 0.14730 0.80814 -0.40300
O 	O 	0.96798 0.11089 0.84526 -0.41000
C 	C 	0.95816 0.62220 0.32070 0.36300
C 	C 	0.93336 0.60616 0.30410 -0.10000
C 	C 	0.92360 0.61600 0.27460 -0.00200
H 	H 	0.93350 0.63300 0.26470 0.04400
C 	C 	0.88640 0.64470 0.22380 -0.03900
H 	H 	0.89340 0.65900 0.23910 0.04500
C 	C 	0.87350 0.65430 0.19550 -0.06100
H 	H 	0.86860 0.67560 0.19230 0.04200
C 	C 	0.88150 0.58840 0.20590 -0.03800
H 	H 	0.88420 0.56690 0.21000 0.04400
C 	C 	0.90020 0.62970 0.17720 -0.07200
H 	H 	0.91440 0.63560 0.16140 0.05200
O 	O 	0.96844 0.64730 0.30814 -0.40300
O 	O 	0.96798 0.61089 0.34526 -0.40900
C 	C 	0.54184 0.12220 0.67930 0.36300
C 	C 	0.56664 0.10616 0.69590 -0.10100
C 	C 	0.57640 0.11600 0.72540 -0.00100
H 	H 	0.56650 0.13300 0.73530 0.04300
C 	C 	0.61360 0.14470 0.77620 -0.03900
H 	H 	0.60660 0.15900 0.76090 0.04400
C 	C 	0.62650 0.15430 0.80450 -0.06200
H 	H 	0.63140 0.17560 0.80770 0.04200
C 	C 	0.61850 0.08840 0.79410 -0.03800
H 	H 	0.61580 0.06690 0.79000 0.04300
C 	C 	0.59980 0.12970 0.82280 -0.07200
H 	H 	0.58560 0.13560 0.83860 0.05200
O 	O 	0.53156 0.14730 0.69186 -0.40600
O 	O 	0.53202 0.11089 0.65474 -0.41300
C 	C 	0.54184 0.62220 0.17930 0.36300
C 	C 	0.56664 0.60616 0.19590 -0.10100
C 	C 	0.57640 0.61600 0.22540 -0.00100
H 	H 	0.56650 0.63300 0.23530 0.04300
C 	C 	0.61360 0.64470 0.27620 -0.03900
H 	H 	0.60660 0.65900 0.26090 0.04400
C 	C 	0.62650 0.65430 0.30450 -0.06200
H 	H 	0.63140 0.67560 0.30770 0.04200
C 	C 	0.61850 0.58840 0.29410 -0.03800
H 	H 	0.61580 0.56690 0.29000 0.04400
C 	C 	0.59980 0.62970 0.32280 -0.07200
H 	H 	0.58560 0.63560 0.33860 0.05200
O 	O 	0.53156 0.64730 0.19186 -0.40600
O 	O 	0.53202 0.61089 0.15474 -0.41200
C 	C 	0.04184 0.12220 0.17930 0.36300
C 	C 	0.06664 0.10616 0.19590 -0.10200
C 	C 	0.07640 0.11600 0.22540 -0.00100
H 	H 	0.06650 0.13300 0.23530 0.04300
C 	C 	0.11360 0.14470 0.27620 -0.03900
H 	H 	0.10660 0.15900 0.26090 0.04400
C 	C 	0.12650 0.15430 0.30450 -0.06200
H 	H 	0.13140 0.17560 0.30770 0.04200
C 	C 	0.11850 0.08840 0.29410 -0.03800
H 	H 	0.11580 0.06690 0.29000 0.04200
C 	C 	0.09980 0.12970 0.32280 -0.07200
H 	H 	0.08560 0.13560 0.33860 0.05100
O 	O 	0.03156 0.14730 0.19186 -0.40700
O 	O 	0.03202 0.11089 0.15474 -0.41400
C 	C 	0.04184 0.62220 0.67930 0.36300
C 	C 	0.06664 0.60616 0.69590 -0.10200
C 	C 	0.07640 0.61600 0.72540 -0.00100
H 	H 	0.06650 0.63300 0.73530 0.04300
C 	C 	0.11360 0.64470 0.77620 -0.03900
H 	H 	0.10660 0.65900 0.76090 0.04400
C 	C 	0.12650 0.65430 0.80450 -0.06200
H 	H 	0.13140 0.67560 0.80770 0.04200
C 	C 	0.11850 0.58840 0.79410 -0.03800
H 	H 	0.11580 0.56690 0.79000 0.04300
C 	C 	0.09980 0.62970 0.82280 -0.07200
H 	H 	0.08560 0.63560 0.83860 0.05200
O 	O 	0.03156 0.64730 0.69186 -0.40700
O 	O 	0.03202 0.61089 0.65474 -0.41400
C 	C 	0.54184 0.87780 0.32070 0.36300
C 	C 	0.56664 0.89384 0.30410 -0.10000
C 	C 	0.57640 0.88400 0.27460 -0.00200
H 	H 	0.56650 0.86700 0.26470 0.04400
C 	C 	0.61360 0.85530 0.22380 -0.03900
H 	H 	0.60660 0.84100 0.23910 0.04400
C 	C 	0.62650 0.84570 0.19550 -0.06200
H 	H 	0.63140 0.82440 0.19230 0.04200
C 	C 	0.61850 0.91160 0.20590 -0.03800
H 	H 	0.61580 0.93310 0.21000 0.04400
C 	C 	0.59980 0.87030 0.17720 -0.07200
H 	H 	0.58560 0.86440 0.16140 0.05200
O 	O 	0.53156 0.85270 0.30814 -0.40600
O 	O 	0.53202 0.88911 0.34526 -0.41200
C 	C 	0.54184 0.37780 0.82070 0.36300
C 	C 	0.56664 0.39384 0.80410 -0.10100
C 	C 	0.57640 0.38400 0.77460 -0.00200
H 	H 	0.56650 0.36700 0.76470 0.04400
C 	C 	0.61360 0.35530 0.72380 -0.03900
H 	H 	0.60660 0.34100 0.73910 0.04400
C 	C 	0.62650 0.34570 0.69550 -0.06200
H 	H 	0.63140 0.32440 0.69230 0.04200
C 	C 	0.61850 0.41160 0.70590 -0.03800
H 	H 	0.61580 0.43310 0.71000 0.04400
C 	C 	0.59980 0.37030 0.67720 -0.07200
H 	H 	0.58560 0.36440 0.66140 0.05200
O 	O 	0.53156 0.35270 0.80814 -0.40600
O 	O 	0.53202 0.38911 0.84526 -0.41200
C 	C 	0.04184 0.87780 0.82070 0.36300
C 	C 	0.06664 0.89384 0.80410 -0.10100
C 	C 	0.07640 0.88400 0.77460 -0.00200
H 	H 	0.06650 0.86700 0.76470 0.04300
C 	C 	0.11360 0.85530 0.72380 -0.03900
H 	H 	0.10660 0.84100 0.73910 0.04400
C 	C 	0.12650 0.84570 0.69550 -0.06200
H 	H 	0.13140 0.82440 0.69230 0.04200
C 	C 	0.11850 0.91160 0.70590 -0.03800
H 	H 	0.11580 0.93310 0.71000 0.04400
C 	C 	0.09980 0.87030 0.67720 -0.07200
H 	H 	0.08560 0.86440 0.66140 0.05200
O 	O 	0.03156 0.85270 0.80814 -0.40700
O 	O 	0.03202 0.88911 0.84526 -0.41300
C 	C 	0.04184 0.37780 0.32070 0.36300
C 	C 	0.06664 0.39384 0.30410 -0.10200
C 	C 	0.07640 0.38400 0.27460 -0.00100
H 	H 	0.06650 0.36700 0.26470 0.04300
C 	C 	0.11360 0.35530 0.22380 -0.03900
H 	H 	0.10660 0.34100 0.23910 0.04400
C 	C 	0.12650 0.34570 0.19550 -0.06200
H 	H 	0.13140 0.32440 0.19230 0.04200
C 	C 	0.11850 0.41160 0.20590 -0.03800
H 	H 	0.11580 0.43310 0.21000 0.04300
C 	C 	0.09980 0.37030 0.17720 -0.07200
H 	H 	0.08560 0.36440 0.16140 0.05100
O 	O 	0.03156 0.35270 0.30814 -0.40700
O 	O 	0.03202 0.38911 0.34526 -0.41400
C 	C 	0.67930 0.45816 0.87780 0.36300
C 	C 	0.69590 0.43336 0.89384 -0.10000
C 	C 	0.72540 0.42360 0.88400 -0.00200
H 	H 	0.73530 0.43350 0.86700 0.04400
C 	C 	0.77620 0.38640 0.85530 -0.03900
H 	H 	0.76090 0.39340 0.84100 0.04400
C 	C 	0.80450 0.37350 0.84570 -0.06200
H 	H 	0.80770 0.36860 0.82440 0.04200
C 	C 	0.79410 0.38150 0.91160 -0.03800
H 	H 	0.79000 0.38420 0.93310 0.04400
C 	C 	0.82280 0.40020 0.87030 -0.07200
H 	H 	0.83860 0.41440 0.86440 0.05200
O 	O 	0.69186 0.46844 0.85270 -0.40600
O 	O 	0.65474 0.46798 0.88911 -0.41200
C 	C 	0.67930 0.95816 0.37780 0.36300
C 	C 	0.69590 0.93336 0.39384 -0.10000
C 	C 	0.72540 0.92360 0.38400 -0.00200
H 	H 	0.73530 0.93350 0.36700 0.04400
C 	C 	0.77620 0.88640 0.35530 -0.03900
H 	H 	0.76090 0.89340 0.34100 0.04500
C 	C 	0.80450 0.87350 0.34570 -0.06100
H 	H 	0.80770 0.86860 0.32440 0.04200
C 	C 	0.79410 0.88150 0.41160 -0.03800
H 	H 	0.79000 0.88420 0.43310 0.04400
C 	C 	0.82280 0.90020 0.37030 -0.07200
H 	H 	0.83860 0.91440 0.36440 0.05200
O 	O 	0.69186 0.96844 0.35270 -0.40300
O 	O 	0.65474 0.96798 0.38911 -0.40900
C 	C 	0.17930 0.45816 0.37780 0.36300
C 	C 	0.19590 0.43336 0.39384 -0.10100
C 	C 	0.22540 0.42360 0.38400 -0.00100
H 	H 	0.23530 0.43350 0.36700 0.04400
C 	C 	0.27620 0.38640 0.35530 -0.03900
H 	H 	0.26090 0.39340 0.34100 0.04500
C 	C 	0.30450 0.37350 0.34570 -0.06100
H 	H 	0.30770 0.36860 0.32440 0.04200
C 	C 	0.29410 0.38150 0.41160 -0.03800
H 	H 	0.29000 0.38420 0.43310 0.04400
C 	C 	0.32280 0.40020 0.37030 -0.07200
H 	H 	0.33860 0.41440 0.36440 0.05200
O 	O 	0.19186 0.46844 0.35270 -0.40600
O 	O 	0.15474 0.46798 0.38911 -0.41200
C 	C 	0.17930 0.95816 0.87780 0.36200
C 	C 	0.19590 0.93336 0.89384 -0.09900
C 	C 	0.22540 0.92360 0.88400 -0.00200
H 	H 	0.23530 0.93350 0.86700 0.04400
C 	C 	0.27620 0.88640 0.85530 -0.03900
H 	H 	0.26090 0.89340 0.84100 0.04500
C 	C 	0.30450 0.87350 0.84570 -0.06100
H 	H 	0.30770 0.86860 0.82440 0.04200
C 	C 	0.29410 0.88150 0.91160 -0.03800
H 	H 	0.29000 0.88420 0.93310 0.04500
C 	C 	0.32280 0.90020 0.87030 -0.07100
H 	H 	0.33860 0.91440 0.86440 0.05300
O 	O 	0.19186 0.96844 0.85270 -0.40300
O 	O 	0.15474 0.96798 0.88911 -0.40900
C 	C 	0.32070 0.45816 0.12220 0.36300
C 	C 	0.30410 0.43336 0.10616 -0.10100
C 	C 	0.27460 0.42360 0.11600 -0.00100
H 	H 	0.26470 0.43350 0.13300 0.04300
C 	C 	0.22380 0.38640 0.14470 -0.03900
H 	H 	0.23910 0.39340 0.15900 0.04500
C 	C 	0.19550 0.37350 0.15430 -0.06100
H 	H 	0.19230 0.36860 0.17560 0.04200
C 	C 	0.20590 0.38150 0.08840 -0.03800
H 	H 	0.21000 0.38420 0.06690 0.04300
C 	C 	0.17720 0.40020 0.12970 -0.07200
H 	H 	0.16140 0.41440 0.13560 0.05200
O 	O 	0.30814 0.46844 0.14730 -0.40600
O 	O 	0.34526 0.46798 0.11089 -0.41300
C 	C 	0.32070 0.95816 0.62220 0.36300
C 	C 	0.30410 0.93336 0.60616 -0.10000
C 	C 	0.27460 0.92360 0.61600 -0.00200
H 	H 	0.26470 0.93350 0.63300 0.04400
C 	C 	0.22380 0.88640 0.64470 -0.03900
H 	H 	0.23910 0.89340 0.65900 0.04500
C 	C 	0.19550 0.87350 0.65430 -0.06100
H 	H 	0.19230 0.86860 0.67560 0.04200
C 	C 	0.20590 0.88150 0.58840 -0.03800
H 	H 	0.21000 0.88420 0.56690 0.04400
C 	C 	0.17720 0.90020 0.62970 -0.07200
H 	H 	0.16140 0.91440 0.63560 0.05200
O 	O 	0.30814 0.96844 0.64730 -0.40300
O 	O 	0.34526 0.96798 0.61089 -0.40900
C 	C 	0.82070 0.45816 0.62220 0.36300
C 	C 	0.80410 0.43336 0.60616 -0.10100
C 	C 	0.77460 0.42360 0.61600 -0.00200
H 	H 	0.76470 0.43350 0.63300 0.04400
C 	C 	0.72380 0.38640 0.64470 -0.03900
H 	H 	0.73910 0.39340 0.65900 0.04400
C 	C 	0.69550 0.37350 0.65430 -0.06200
H 	H 	0.69230 0.36860 0.67560 0.04200
C 	C 	0.70590 0.38150 0.58840 -0.03800
H 	H 	0.71000 0.38420 0.56690 0.04400
C 	C 	0.67720 0.40020 0.62970 -0.07200
H 	H 	0.66140 0.41440 0.63560 0.05200
O 	O 	0.80814 0.46844 0.64730 -0.40600
O 	O 	0.84526 0.46798 0.61089 -0.41200
C 	C 	0.82070 0.95816 0.12220 0.36300
C 	C 	0.80410 0.93336 0.10616 -0.10000
C 	C 	0.77460 0.92360 0.11600 -0.00200
H 	H 	0.76470 0.93350 0.13300 0.04400
C 	C 	0.72380 0.88640 0.14470 -0.03900
H 	H 	0.73910 0.89340 0.15900 0.04500
C 	C 	0.69550 0.87350 0.15430 -0.06100
H 	H 	0.69230 0.86860 0.17560 0.04200
C 	C 	0.70590 0.88150 0.08840 -0.03800
H 	H 	0.71000 0.88420 0.06690 0.04300
C 	C 	0.67720 0.90020 0.12970 -0.07200
H 	H 	0.66140 0.91440 0.13560 0.05200
O 	O 	0.80814 0.96844 0.14730 -0.40300
O 	O 	0.84526 0.96798 0.11089 -0.41000
C 	C 	0.67930 0.54184 0.12220 0.36300
C 	C 	0.69590 0.56664 0.10616 -0.10100
C 	C 	0.72540 0.57640 0.11600 -0.00100
H 	H 	0.73530 0.56650 0.13300 0.04300
C 	C 	0.77620 0.61360 0.14470 -0.03900
H 	H 	0.76090 0.60660 0.15900 0.04400
C 	C 	0.80450 0.62650 0.15430 -0.06200
H 	H 	0.80770 0.63140 0.17560 0.04200
C 	C 	0.79410 0.61850 0.08840 -0.03800
H 	H 	0.79000 0.61580 0.06690 0.04300
C 	C 	0.82280 0.59980 0.12970 -0.07200
H 	H 	0.83860 0.58560 0.13560 0.05200
O 	O 	0.69186 0.53156 0.14730 -0.40600
O 	O 	0.65474 0.53202 0.11089 -0.41300
C 	C 	0.67930 0.04184 0.62220 0.36300
C 	C 	0.69590 0.06664 0.60616 -0.10200
C 	C 	0.72540 0.07640 0.61600 -0.00100
H 	H 	0.73530 0.06650 0.63300 0.04300
C 	C 	0.77620 0.11360 0.64470 -0.03900
H 	H 	0.76090 0.10660 0.65900 0.04400
C 	C 	0.80450 0.12650 0.65430 -0.06200
H 	H 	0.80770 0.13140 0.67560 0.04200
C 	C 	0.79410 0.11850 0.58840 -0.03800
H 	H 	0.79000 0.11580 0.56690 0.04300
C 	C 	0.82280 0.09980 0.62970 -0.07200
H 	H 	0.83860 0.08560 0.63560 0.05200
O 	O 	0.69186 0.03156 0.64730 -0.40700
O 	O 	0.65474 0.03202 0.61089 -0.41400
C 	C 	0.17930 0.54184 0.62220 0.36300
C 	C 	0.19590 0.56664 0.60616 -0.10100
C 	C 	0.22540 0.57640 0.61600 -0.00100
H 	H 	0.23530 0.56650 0.63300 0.04300
C 	C 	0.27620 0.61360 0.64470 -0.03900
H 	H 	0.26090 0.60660 0.65900 0.04400
C 	C 	0.30450 0.62650 0.65430 -0.06200
H 	H 	0.30770 0.63140 0.67560 0.04200
C 	C 	0.29410 0.61850 0.58840 -0.03800
H 	H 	0.29000 0.61580 0.56690 0.04400
C 	C 	0.32280 0.59980 0.62970 -0.07200
H 	H 	0.33860 0.58560 0.63560 0.05200
O 	O 	0.19186 0.53156 0.64730 -0.40600
O 	O 	0.15474 0.53202 0.61089 -0.41200
C 	C 	0.17930 0.04184 0.12220 0.36300
C 	C 	0.19590 0.06664 0.10616 -0.10200
C 	C 	0.22540 0.07640 0.11600 -0.00100
H 	H 	0.23530 0.06650 0.13300 0.04300
C 	C 	0.27620 0.11360 0.14470 -0.03900
H 	H 	0.26090 0.10660 0.15900 0.04400
C 	C 	0.30450 0.12650 0.15430 -0.06200
H 	H 	0.30770 0.13140 0.17560 0.04200
C 	C 	0.29410 0.11850 0.08840 -0.03800
H 	H 	0.29000 0.11580 0.06690 0.04200
C 	C 	0.32280 0.09980 0.12970 -0.07200
H 	H 	0.33860 0.08560 0.13560 0.05100
O 	O 	0.19186 0.03156 0.14730 -0.40700
O 	O 	0.15474 0.03202 0.11089 -0.41400
C 	C 	0.32070 0.54184 0.87780 0.36300
C 	C 	0.30410 0.56664 0.89384 -0.10000
C 	C 	0.27460 0.57640 0.88400 -0.00200
H 	H 	0.26470 0.56650 0.86700 0.04400
C 	C 	0.22380 0.61360 0.85530 -0.03900
H 	H 	0.23910 0.60660 0.84100 0.04400
C 	C 	0.19550 0.62650 0.84570 -0.06200
H 	H 	0.19230 0.63140 0.82440 0.04200
C 	C 	0.20590 0.61850 0.91160 -0.03800
H 	H 	0.21000 0.61580 0.93310 0.04400
C 	C 	0.17720 0.59980 0.87030 -0.07200
H 	H 	0.16140 0.58560 0.86440 0.05200
O 	O 	0.30814 0.53156 0.85270 -0.40600
O 	O 	0.34526 0.53202 0.88911 -0.41200
C 	C 	0.32070 0.04184 0.37780 0.36300
C 	C 	0.30410 0.06664 0.39384 -0.10200
C 	C 	0.27460 0.07640 0.38400 -0.00100
H 	H 	0.26470 0.06650 0.36700 0.04300
C 	C 	0.22380 0.11360 0.35530 -0.03900
H 	H 	0.23910 0.10660 0.34100 0.04400
C 	C 	0.19550 0.12650 0.34570 -0.06200
H 	H 	0.19230 0.13140 0.32440 0.04200
C 	C 	0.20590 0.11850 0.41160 -0.03800
H 	H 	0.21000 0.11580 0.43310 0.04300
C 	C 	0.17720 0.09980 0.37030 -0.07200
H 	H 	0.16140 0.08560 0.36440 0.05100
O 	O 	0.30814 0.03156 0.35270 -0.40700
O 	O 	0.34526 0.03202 0.38911 -0.41400
C 	C 	0.82070 0.54184 0.37780 0.36300
C 	C 	0.80410 0.56664 0.39384 -0.10100
C 	C 	0.77460 0.57640 0.38400 -0.00200
H 	H 	0.76470 0.56650 0.36700 0.04400
C 	C 	0.72380 0.61360 0.35530 -0.03900
H 	H 	0.73910 0.60660 0.34100 0.04400
C 	C 	0.69550 0.62650 0.34570 -0.06200
H 	H 	0.69230 0.63140 0.32440 0.04200
C 	C 	0.70590 0.61850 0.41160 -0.03800
H 	H 	0.71000 0.61580 0.43310 0.04400
C 	C 	0.67720 0.59980 0.37030 -0.07200
H 	H 	0.66140 0.58560 0.36440 0.05200
O 	O 	0.80814 0.53156 0.35270 -0.40600
O 	O 	0.84526 0.53202 0.38911 -0.41200
C 	C 	0.82070 0.04184 0.87780 0.36300
C 	C 	0.80410 0.06664 0.89384 -0.10100
C 	C 	0.77460 0.07640 0.88400 -0.00200
H 	H 	0.76470 0.06650 0.86700 0.04300
C 	C 	0.72380 0.11360 0.85530 -0.03900
H 	H 	0.73910 0.10660 0.84100 0.04400
C 	C 	0.69550 0.12650 0.84570 -0.06200
H 	H 	0.69230 0.13140 0.82440 0.04200
C 	C 	0.70590 0.11850 0.91160 -0.03800
H 	H 	0.71000 0.11580 0.93310 0.04400
C 	C 	0.67720 0.09980 0.87030 -0.07200
H 	H 	0.66140 0.08560 0.86440 0.05200
O 	O 	0.80814 0.03156 0.85270 -0.40700
O 	O 	0.84526 0.03202 0.88911 -0.41300
C 	C 	0.67930 0.87780 0.54184 0.36300
C 	C 	0.69590 0.89384 0.56664 -0.10000
C 	C 	0.72540 0.88400 0.57640 -0.00200
H 	H 	0.73530 0.86700 0.56650 0.04400
C 	C 	0.77620 0.85530 0.61360 -0.03900
H 	H 	0.76090 0.84100 0.60660 0.04400
C 	C 	0.80450 0.84570 0.62650 -0.06200
H 	H 	0.80770 0.82440 0.63140 0.04200
C 	C 	0.79410 0.91160 0.61850 -0.03800
H 	H 	0.79000 0.93310 0.61580 0.04400
C 	C 	0.82280 0.87030 0.59980 -0.07200
H 	H 	0.83860 0.86440 0.58560 0.05200
O 	O 	0.69186 0.85270 0.53156 -0.40600
O 	O 	0.65474 0.88911 0.53202 -0.41200
C 	C 	0.67930 0.37780 0.04184 0.36300
C 	C 	0.69590 0.39384 0.06664 -0.10200
C 	C 	0.72540 0.38400 0.07640 -0.00100
H 	H 	0.73530 0.36700 0.06650 0.04300
C 	C 	0.77620 0.35530 0.11360 -0.03900
H 	H 	0.76090 0.34100 0.10660 0.04400
C 	C 	0.80450 0.34570 0.12650 -0.06200
H 	H 	0.80770 0.32440 0.13140 0.04200
C 	C 	0.79410 0.41160 0.11850 -0.03800
H 	H 	0.79000 0.43310 0.11580 0.04300
C 	C 	0.82280 0.37030 0.09980 -0.07200
H 	H 	0.83860 0.36440 0.08560 0.05200
O 	O 	0.69186 0.35270 0.03156 -0.40700
O 	O 	0.65474 0.38911 0.03202 -0.41400
C 	C 	0.17930 0.87780 0.04184 0.36300
C 	C 	0.19590 0.89384 0.06664 -0.10100
C 	C 	0.22540 0.88400 0.07640 -0.00200
H 	H 	0.23530 0.86700 0.06650 0.04300
C 	C 	0.27620 0.85530 0.11360 -0.03900
H 	H 	0.26090 0.84100 0.10660 0.04400
C 	C 	0.30450 0.84570 0.12650 -0.06200
H 	H 	0.30770 0.82440 0.13140 0.04200
C 	C 	0.29410 0.91160 0.11850 -0.03800
H 	H 	0.29000 0.93310 0.11580 0.04400
C 	C 	0.32280 0.87030 0.09980 -0.07200
H 	H 	0.33860 0.86440 0.08560 0.05200
O 	O 	0.19186 0.85270 0.03156 -0.40700
O 	O 	0.15474 0.88911 0.03202 -0.41300
C 	C 	0.17930 0.37780 0.54184 0.36300
C 	C 	0.19590 0.39384 0.56664 -0.10100
C 	C 	0.22540 0.38400 0.57640 -0.00100
H 	H 	0.23530 0.36700 0.56650 0.04400
C 	C 	0.27620 0.35530 0.61360 -0.03900
H 	H 	0.26090 0.34100 0.60660 0.04500
C 	C 	0.30450 0.34570 0.62650 -0.06200
H 	H 	0.30770 0.32440 0.63140 0.04200
C 	C 	0.29410 0.41160 0.61850 -0.03800
H 	H 	0.29000 0.43310 0.61580 0.04400
C 	C 	0.32280 0.37030 0.59980 -0.07200
H 	H 	0.33860 0.36440 0.58560 0.05200
O 	O 	0.19186 0.35270 0.53156 -0.40600
O 	O 	0.15474 0.38911 0.53202 -0.41200
C 	C 	0.32070 0.12220 0.54184 0.36300
C 	C 	0.30410 0.10616 0.56664 -0.10100
C 	C 	0.27460 0.11600 0.57640 -0.00100
H 	H 	0.26470 0.13300 0.56650 0.04300
C 	C 	0.22380 0.14470 0.61360 -0.03900
H 	H 	0.23910 0.15900 0.60660 0.04500
C 	C 	0.19550 0.15430 0.62650 -0.06100
H 	H 	0.19230 0.17560 0.63140 0.04200
C 	C 	0.20590 0.08840 0.61850 -0.03800
H 	H 	0.21000 0.06690 0.61580 0.04300
C 	C 	0.17720 0.12970 0.59980 -0.07200
H 	H 	0.16140 0.13560 0.58560 0.05200
O 	O 	0.30814 0.14730 0.53156 -0.40600
O 	O 	0.34526 0.11089 0.53202 -0.41300
C 	C 	0.32070 0.62220 0.04184 0.36300
C 	C 	0.30410 0.60616 0.06664 -0.10200
C 	C 	0.27460 0.61600 0.07640 -0.00100
H 	H 	0.26470 0.63300 0.06650 0.04300
C 	C 	0.22380 0.64470 0.11360 -0.03900
H 	H 	0.23910 0.65900 0.10660 0.04400
C 	C 	0.19550 0.65430 0.12650 -0.06200
H 	H 	0.19230 0.67560 0.13140 0.04200
C 	C 	0.20590 0.58840 0.11850 -0.03800
H 	H 	0.21000 0.56690 0.11580 0.04300
C 	C 	0.17720 0.62970 0.09980 -0.07200
H 	H 	0.16140 0.63560 0.08560 0.05100
O 	O 	0.30814 0.64730 0.03156 -0.40700
O 	O 	0.34526 0.61089 0.03202 -0.41400
C 	C 	0.82070 0.12220 0.04184 0.36300
C 	C 	0.80410 0.10616 0.06664 -0.10200
C 	C 	0.77460 0.11600 0.07640 -0.00100
H 	H 	0.76470 0.13300 0.06650 0.04300
C 	C 	0.72380 0.14470 0.11360 -0.03900
H 	H 	0.73910 0.15900 0.10660 0.04400
C 	C 	0.69550 0.15430 0.12650 -0.06200
H 	H 	0.69230 0.17560 0.13140 0.04200
C 	C 	0.70590 0.08840 0.11850 -0.03800
H 	H 	0.71000 0.06690 0.11580 0.04200
C 	C 	0.67720 0.12970 0.09980 -0.07200
H 	H 	0.66140 0.13560 0.08560 0.05100
O 	O 	0.80814 0.14730 0.03156 -0.40700
O 	O 	0.84526 0.11089 0.03202 -0.41400
C 	C 	0.82070 0.62220 0.54184 0.36300
C 	C 	0.80410 0.60616 0.56664 -0.10100
C 	C 	0.77460 0.61600 0.57640 -0.00200
H 	H 	0.76470 0.63300 0.56650 0.04300
C 	C 	0.72380 0.64470 0.61360 -0.03900
H 	H 	0.73910 0.65900 0.60660 0.04400
C 	C 	0.69550 0.65430 0.62650 -0.06200
H 	H 	0.69230 0.67560 0.63140 0.04200
C 	C 	0.70590 0.58840 0.61850 -0.03800
H 	H 	0.71000 0.56690 0.61580 0.04400
C 	C 	0.67720 0.62970 0.59980 -0.07200
H 	H 	0.66140 0.63560 0.58560 0.05200
O 	O 	0.80814 0.64730 0.53156 -0.40600
O 	O 	0.84526 0.61089 0.53202 -0.41200
C 	C 	0.67930 0.12220 0.45816 0.36300
C 	C 	0.69590 0.10616 0.43336 -0.10100
C 	C 	0.72540 0.11600 0.42360 -0.00100
H 	H 	0.73530 0.13300 0.43350 0.04300
C 	C 	0.77620 0.14470 0.38640 -0.03900
H 	H 	0.76090 0.15900 0.39340 0.04400
C 	C 	0.80450 0.15430 0.37350 -0.06200
H 	H 	0.80770 0.17560 0.36860 0.04200
C 	C 	0.79410 0.08840 0.38150 -0.03800
H 	H 	0.79000 0.06690 0.38420 0.04300
C 	C 	0.82280 0.12970 0.40020 -0.07200
H 	H 	0.83860 0.13560 0.41440 0.05200
O 	O 	0.69186 0.14730 0.46844 -0.40600
O 	O 	0.65474 0.11089 0.46798 -0.41300
C 	C 	0.67930 0.62220 0.95816 0.36300
C 	C 	0.69590 0.60616 0.93336 -0.10000
C 	C 	0.72540 0.61600 0.92360 -0.00200
H 	H 	0.73530 0.63300 0.93350 0.04400
C 	C 	0.77620 0.64470 0.88640 -0.03900
H 	H 	0.76090 0.65900 0.89340 0.04500
C 	C 	0.80450 0.65430 0.87350 -0.06100
H 	H 	0.80770 0.67560 0.86860 0.04200
C 	C 	0.79410 0.58840 0.88150 -0.03800
H 	H 	0.79000 0.56690 0.88420 0.04400
C 	C 	0.82280 0.62970 0.90020 -0.07200
H 	H 	0.83860 0.63560 0.91440 0.05200
O 	O 	0.69186 0.64730 0.96844 -0.40300
O 	O 	0.65474 0.61089 0.96798 -0.40900
C 	C 	0.17930 0.12220 0.95816 0.36300
C 	C 	0.19590 0.10616 0.93336 -0.10000
C 	C 	0.22540 0.11600 0.92360 -0.00200
H 	H 	0.23530 0.13300 0.93350 0.04400
C 	C 	0.27620 0.14470 0.88640 -0.03900
H 	H 	0.26090 0.15900 0.89340 0.04500
C 	C 	0.30450 0.15430 0.87350 -0.06100
H 	H 	0.30770 0.17560 0.86860 0.04200
C 	C 	0.29410 0.08840 0.88150 -0.03800
H 	H 	0.29000 0.06690 0.88420 0.04300
C 	C 	0.32280 0.12970 0.90020 -0.07200
H 	H 	0.33860 0.13560 0.91440 0.05200
O 	O 	0.19186 0.14730 0.96844 -0.40300
O 	O 	0.15474 0.11089 0.96798 -0.41000
C 	C 	0.17930 0.62220 0.45816 0.36300
C 	C 	0.19590 0.60616 0.43336 -0.10100
C 	C 	0.22540 0.61600 0.42360 -0.00100
H 	H 	0.23530 0.63300 0.43350 0.04300
C 	C 	0.27620 0.64470 0.38640 -0.03900
H 	H 	0.26090 0.65900 0.39340 0.04500
C 	C 	0.30450 0.65430 0.37350 -0.06200
H 	H 	0.30770 0.67560 0.36860 0.04200
C 	C 	0.29410 0.58840 0.38150 -0.03800
H 	H 	0.29000 0.56690 0.38420 0.04400
C 	C 	0.32280 0.62970 0.40020 -0.07200
H 	H 	0.33860 0.63560 0.41440 0.05200
O 	O 	0.19186 0.64730 0.46844 -0.40600
O 	O 	0.15474 0.61089 0.46798 -0.41200
C 	C 	0.32070 0.87780 0.45816 0.36300
C 	C 	0.30410 0.89384 0.43336 -0.10000
C 	C 	0.27460 0.88400 0.42360 -0.00200
H 	H 	0.26470 0.86700 0.43350 0.04400
C 	C 	0.22380 0.85530 0.38640 -0.03900
H 	H 	0.23910 0.84100 0.39340 0.04400
C 	C 	0.19550 0.84570 0.37350 -0.06200
H 	H 	0.19230 0.82440 0.36860 0.04200
C 	C 	0.20590 0.91160 0.38150 -0.03800
H 	H 	0.21000 0.93310 0.38420 0.04400
C 	C 	0.17720 0.87030 0.40020 -0.07200
H 	H 	0.16140 0.86440 0.41440 0.05200
O 	O 	0.30814 0.85270 0.46844 -0.40600
O 	O 	0.34526 0.88911 0.46798 -0.41200
C 	C 	0.32070 0.37780 0.95816 0.36300
C 	C 	0.30410 0.39384 0.93336 -0.10000
C 	C 	0.27460 0.38400 0.92360 -0.00200
H 	H 	0.26470 0.36700 0.93350 0.04400
C 	C 	0.22380 0.35530 0.88640 -0.03900
H 	H 	0.23910 0.34100 0.89340 0.04500
C 	C 	0.19550 0.34570 0.87350 -0.06100
H 	H 	0.19230 0.32440 0.86860 0.04200
C 	C 	0.20590 0.41160 0.88150 -0.03800
H 	H 	0.21000 0.43310 0.88420 0.04400
C 	C 	0.17720 0.37030 0.90020 -0.07200
H 	H 	0.16140 0.36440 0.91440 0.05200
O 	O 	0.30814 0.35270 0.96844 -0.40300
O 	O 	0.34526 0.38911 0.96798 -0.40900
C 	C 	0.82070 0.87780 0.95816 0.36200
C 	C 	0.80410 0.89384 0.93336 -0.09900
C 	C 	0.77460 0.88400 0.92360 -0.00200
H 	H 	0.76470 0.86700 0.93350 0.04400
C 	C 	0.72380 0.85530 0.88640 -0.03900
H 	H 	0.73910 0.84100 0.89340 0.04500
C 	C 	0.69550 0.84570 0.87350 -0.06200
H 	H 	0.69230 0.82440 0.86860 0.04200
C 	C 	0.70590 0.91160 0.88150 -0.03800
H 	H 	0.71000 0.93310 0.88420 0.04500
C 	C 	0.67720 0.87030 0.90020 -0.07200
H 	H 	0.66140 0.86440 0.91440 0.05200
O 	O 	0.80814 0.85270 0.96844 -0.40300
O 	O 	0.84526 0.88911 0.96798 -0.40900
C 	C 	0.82070 0.37780 0.45816 0.36300
C 	C 	0.80410 0.39384 0.43336 -0.10100
C 	C 	0.77460 0.38400 0.42360 -0.00200
H 	H 	0.76470 0.36700 0.43350 0.04400
C 	C 	0.72380 0.35530 0.38640 -0.03900
H 	H 	0.73910 0.34100 0.39340 0.04400
C 	C 	0.69550 0.34570 0.37350 -0.06200
H 	H 	0.69230 0.32440 0.36860 0.04200
C 	C 	0.70590 0.41160 0.38150 -0.03800
H 	H 	0.71000 0.43310 0.38420 0.04400
C 	C 	0.67720 0.37030 0.40020 -0.07200
H 	H 	0.66140 0.36440 0.41440 0.05200
O 	O 	0.80814 0.35270 0.46844 -0.40600
O 	O 	0.84526 0.38911 0.46798 -0.41200
C 	C 	0.87780 0.45816 0.32070 0.36300
C 	C 	0.89384 0.43336 0.30410 -0.10000
C 	C 	0.88400 0.42360 0.27460 -0.00200
H 	H 	0.86700 0.43350 0.26470 0.04400
C 	C 	0.85530 0.38640 0.22380 -0.03900
H 	H 	0.84100 0.39340 0.23910 0.04400
C 	C 	0.84570 0.37350 0.19550 -0.06200
H 	H 	0.82440 0.36860 0.19230 0.04200
C 	C 	0.91160 0.38150 0.20590 -0.03800
H 	H 	0.93310 0.38420 0.21000 0.04400
C 	C 	0.87030 0.40020 0.17720 -0.07200
H 	H 	0.86440 0.41440 0.16140 0.05200
O 	O 	0.85270 0.46844 0.30814 -0.40600
O 	O 	0.88911 0.46798 0.34526 -0.41200
C 	C 	0.87780 0.95816 0.82070 0.36200
C 	C 	0.89384 0.93336 0.80410 -0.09900
C 	C 	0.88400 0.92360 0.77460 -0.00200
H 	H 	0.86700 0.93350 0.76470 0.04400
C 	C 	0.85530 0.88640 0.72380 -0.03900
H 	H 	0.84100 0.89340 0.73910 0.04500
C 	C 	0.84570 0.87350 0.69550 -0.06200
H 	H 	0.82440 0.86860 0.69230 0.04200
C 	C 	0.91160 0.88150 0.70590 -0.03800
H 	H 	0.93310 0.88420 0.71000 0.04500
C 	C 	0.87030 0.90020 0.67720 -0.07200
H 	H 	0.86440 0.91440 0.66140 0.05200
O 	O 	0.85270 0.96844 0.80814 -0.40300
O 	O 	0.88911 0.96798 0.84526 -0.40900
C 	C 	0.37780 0.45816 0.82070 0.36300
C 	C 	0.39384 0.43336 0.80410 -0.10100
C 	C 	0.38400 0.42360 0.77460 -0.00200
H 	H 	0.36700 0.43350 0.76470 0.04400
C 	C 	0.35530 0.38640 0.72380 -0.03900
H 	H 	0.34100 0.39340 0.73910 0.04400
C 	C 	0.34570 0.37350 0.69550 -0.06200
H 	H 	0.32440 0.36860 0.69230 0.04200
C 	C 	0.41160 0.38150 0.70590 -0.03800
H 	H 	0.43310 0.38420 0.71000 0.04400
C 	C 	0.37030 0.40020 0.67720 -0.07200
H 	H 	0.36440 0.41440 0.66140 0.05200
O 	O 	0.35270 0.46844 0.80814 -0.40600
O 	O 	0.38911 0.46798 0.84526 -0.41200
C 	C 	0.37780 0.95816 0.32070 0.36300
C 	C 	0.39384 0.93336 0.30410 -0.10000
C 	C 	0.38400 0.92360 0.27460 -0.00200
H 	H 	0.36700 0.93350 0.26470 0.04400
C 	C 	0.35530 0.88640 0.22380 -0.03900
H 	H 	0.34100 0.89340 0.23910 0.04500
C 	C 	0.34570 0.87350 0.19550 -0.06100
H 	H 	0.32440 0.86860 0.19230 0.04200
C 	C 	0.41160 0.88150 0.20590 -0.03800
H 	H 	0.43310 0.88420 0.21000 0.04400
C 	C 	0.37030 0.90020 0.17720 -0.07200
H 	H 	0.36440 0.91440 0.16140 0.05200
O 	O 	0.35270 0.96844 0.30814 -0.40300
O 	O 	0.38911 0.96798 0.34526 -0.40900
C 	C 	0.12220 0.45816 0.67930 0.36300
C 	C 	0.10616 0.43336 0.69590 -0.10100
C 	C 	0.11600 0.42360 0.72540 -0.00100
H 	H 	0.13300 0.43350 0.73530 0.04300
C 	C 	0.14470 0.38640 0.77620 -0.03900
H 	H 	0.15900 0.39340 0.76090 0.04400
C 	C 	0.15430 0.37350 0.80450 -0.06200
H 	H 	0.17560 0.36860 0.80770 0.04200
C 	C 	0.08840 0.38150 0.79410 -0.03800
H 	H 	0.06690 0.38420 0.79000 0.04300
C 	C 	0.12970 0.40020 0.82280 -0.07200
H 	H 	0.13560 0.41440 0.83860 0.05200
O 	O 	0.14730 0.46844 0.69186 -0.40600
O 	O 	0.11089 0.46798 0.65474 -0.41300
C 	C 	0.12220 0.95816 0.17930 0.36300
C 	C 	0.10616 0.93336 0.19590 -0.10000
C 	C 	0.11600 0.92360 0.22540 -0.00200
H 	H 	0.13300 0.93350 0.23530 0.04400
C 	C 	0.14470 0.88640 0.27620 -0.03900
H 	H 	0.15900 0.89340 0.26090 0.04500
C 	C 	0.15430 0.87350 0.30450 -0.06100
H 	H 	0.17560 0.86860 0.30770 0.04200
C 	C 	0.08840 0.88150 0.29410 -0.03800
H 	H 	0.06690 0.88420 0.29000 0.04300
C 	C 	0.12970 0.90020 0.32280 -0.07200
H 	H 	0.13560 0.91440 0.33860 0.05200
O 	O 	0.14730 0.96844 0.19186 -0.40300
O 	O 	0.11089 0.96798 0.15474 -0.41000
C 	C 	0.62220 0.45816 0.17930 0.36300
C 	C 	0.60616 0.43336 0.19590 -0.10100
C 	C 	0.61600 0.42360 0.22540 -0.00100
H 	H 	0.63300 0.43350 0.23530 0.04300
C 	C 	0.64470 0.38640 0.27620 -0.03900
H 	H 	0.65900 0.39340 0.26090 0.04500
C 	C 	0.65430 0.37350 0.30450 -0.06200
H 	H 	0.67560 0.36860 0.30770 0.04200
C 	C 	0.58840 0.38150 0.29410 -0.03800
H 	H 	0.56690 0.38420 0.29000 0.04400
C 	C 	0.62970 0.40020 0.32280 -0.07200
H 	H 	0.63560 0.41440 0.33860 0.05200
O 	O 	0.64730 0.46844 0.19186 -0.40600
O 	O 	0.61089 0.46798 0.15474 -0.41200
C 	C 	0.62220 0.95816 0.67930 0.36300
C 	C 	0.60616 0.93336 0.69590 -0.10000
C 	C 	0.61600 0.92360 0.72540 -0.00200
H 	H 	0.63300 0.93350 0.73530 0.04400
C 	C 	0.64470 0.88640 0.77620 -0.03900
H 	H 	0.65900 0.89340 0.76090 0.04500
C 	C 	0.65430 0.87350 0.80450 -0.06100
H 	H 	0.67560 0.86860 0.80770 0.04200
C 	C 	0.58840 0.88150 0.79410 -0.03800
H 	H 	0.56690 0.88420 0.79000 0.04400
C 	C 	0.62970 0.90020 0.82280 -0.07200
H 	H 	0.63560 0.91440 0.83860 0.05200
O 	O 	0.64730 0.96844 0.69186 -0.40300
O 	O 	0.61089 0.96798 0.65474 -0.40900
C 	C 	0.12220 0.54184 0.32070 0.36300
C 	C 	0.10616 0.56664 0.30410 -0.10100
C 	C 	0.11600 0.57640 0.27460 -0.00100
H 	H 	0.13300 0.56650 0.26470 0.04300
C 	C 	0.14470 0.61360 0.22380 -0.03900
H 	H 	0.15900 0.60660 0.23910 0.04500
C 	C 	0.15430 0.62650 0.19550 -0.06100
H 	H 	0.17560 0.63140 0.19230 0.04200
C 	C 	0.08840 0.61850 0.20590 -0.03800
H 	H 	0.06690 0.61580 0.21000 0.04300
C 	C 	0.12970 0.59980 0.17720 -0.07200
H 	H 	0.13560 0.58560 0.16140 0.05200
O 	O 	0.14730 0.53156 0.30814 -0.40600
O 	O 	0.11089 0.53202 0.34526 -0.41300
C 	C 	0.12220 0.04184 0.82070 0.36300
C 	C 	0.10616 0.06664 0.80410 -0.10200
C 	C 	0.11600 0.07640 0.77460 -0.00100
H 	H 	0.13300 0.06650 0.76470 0.04300
C 	C 	0.14470 0.11360 0.72380 -0.03900
H 	H 	0.15900 0.10660 0.73910 0.04400
C 	C 	0.15430 0.12650 0.69550 -0.06200
H 	H 	0.17560 0.13140 0.69230 0.04200
C 	C 	0.08840 0.11850 0.70590 -0.03800
H 	H 	0.06690 0.11580 0.71000 0.04200
C 	C 	0.12970 0.09980 0.67720 -0.07200
H 	H 	0.13560 0.08560 0.66140 0.05100
O 	O 	0.14730 0.03156 0.80814 -0.40700
O 	O 	0.11089 0.03202 0.84526 -0.41400
C 	C 	0.62220 0.54184 0.82070 0.36300
C 	C 	0.60616 0.56664 0.80410 -0.10100
C 	C 	0.61600 0.57640 0.77460 -0.00200
H 	H 	0.63300 0.56650 0.76470 0.04300
C 	C 	0.64470 0.61360 0.72380 -0.03900
H 	H 	0.65900 0.60660 0.73910 0.04400
C 	C 	0.65430 0.62650 0.69550 -0.06200
H 	H 	0.67560 0.63140 0.69230 0.04200
C 	C 	0.58840 0.61850 0.70590 -0.03800
H 	H 	0.56690 0.61580 0.71000 0.04400
C 	C 	0.62970 0.59980 0.67720 -0.07200
H 	H 	0.63560 0.58560 0.66140 0.05200
O 	O 	0.64730 0.53156 0.80814 -0.40600
O 	O 	0.61089 0.53202 0.84526 -0.41200
C 	C 	0.62220 0.04184 0.32070 0.36300
C 	C 	0.60616 0.06664 0.30410 -0.10200
C 	C 	0.61600 0.07640 0.27460 -0.00100
H 	H 	0.63300 0.06650 0.26470 0.04300
C 	C 	0.64470 0.11360 0.22380 -0.03900
H 	H 	0.65900 0.10660 0.23910 0.04400
C 	C 	0.65430 0.12650 0.19550 -0.06200
H 	H 	0.67560 0.13140 0.19230 0.04200
C 	C 	0.58840 0.11850 0.20590 -0.03800
H 	H 	0.56690 0.11580 0.21000 0.04300
C 	C 	0.62970 0.09980 0.17720 -0.07200
H 	H 	0.63560 0.08560 0.16140 0.05100
O 	O 	0.64730 0.03156 0.30814 -0.40700
O 	O 	0.61089 0.03202 0.34526 -0.41400
C 	C 	0.87780 0.54184 0.67930 0.36300
C 	C 	0.89384 0.56664 0.69590 -0.10000
C 	C 	0.88400 0.57640 0.72540 -0.00200
H 	H 	0.86700 0.56650 0.73530 0.04400
C 	C 	0.85530 0.61360 0.77620 -0.03900
H 	H 	0.84100 0.60660 0.76090 0.04400
C 	C 	0.84570 0.62650 0.80450 -0.06200
H 	H 	0.82440 0.63140 0.80770 0.04200
C 	C 	0.91160 0.61850 0.79410 -0.03800
H 	H 	0.93310 0.61580 0.79000 0.04400
C 	C 	0.87030 0.59980 0.82280 -0.07200
H 	H 	0.86440 0.58560 0.83860 0.05200
O 	O 	0.85270 0.53156 0.69186 -0.40600
O 	O 	0.88911 0.53202 0.65474 -0.41200
C 	C 	0.87780 0.04184 0.17930 0.36300
C 	C 	0.89384 0.06664 0.19590 -0.10100
C 	C 	0.88400 0.07640 0.22540 -0.00200
H 	H 	0.86700 0.06650 0.23530 0.04300
C 	C 	0.85530 0.11360 0.27620 -0.03900
H 	H 	0.84100 0.10660 0.26090 0.04400
C 	C 	0.84570 0.12650 0.30450 -0.06200
H 	H 	0.82440 0.13140 0.30770 0.04200
C 	C 	0.91160 0.11850 0.29410 -0.03800
H 	H 	0.93310 0.11580 0.29000 0.04400
C 	C 	0.87030 0.09980 0.32280 -0.07200
H 	H 	0.86440 0.08560 0.33860 0.05200
O 	O 	0.85270 0.03156 0.19186 -0.40700
O 	O 	0.88911 0.03202 0.15474 -0.41300
C 	C 	0.37780 0.54184 0.17930 0.36300
C 	C 	0.39384 0.56664 0.19590 -0.10100
C 	C 	0.38400 0.57640 0.22540 -0.00100
H 	H 	0.36700 0.56650 0.23530 0.04400
C 	C 	0.35530 0.61360 0.27620 -0.03900
H 	H 	0.34100 0.60660 0.26090 0.04500
C 	C 	0.34570 0.62650 0.30450 -0.06200
H 	H 	0.32440 0.63140 0.30770 0.04200
C 	C 	0.41160 0.61850 0.29410 -0.03800
H 	H 	0.43310 0.61580 0.29000 0.04400
C 	C 	0.37030 0.59980 0.32280 -0.07200
H 	H 	0.36440 0.58560 0.33860 0.05200
O 	O 	0.35270 0.53156 0.19186 -0.40600
O 	O 	0.38911 0.53202 0.15474 -0.41200
C 	C 	0.37780 0.04184 0.67930 0.36300
C 	C 	0.39384 0.06664 0.69590 -0.10200
C 	C 	0.38400 0.07640 0.72540 -0.00100
H 	H 	0.36700 0.06650 0.73530 0.04300
C 	C 	0.35530 0.11360 0.77620 -0.03900
H 	H 	0.34100 0.10660 0.76090 0.04400
C 	C 	0.34570 0.12650 0.80450 -0.06200
H 	H 	0.32440 0.13140 0.80770 0.04200
C 	C 	0.41160 0.11850 0.79410 -0.03800
H 	H 	0.43310 0.11580 0.79000 0.04300
C 	C 	0.37030 0.09980 0.82280 -0.07200
H 	H 	0.36440 0.08560 0.83860 0.05200
O 	O 	0.35270 0.03156 0.69186 -0.40700
O 	O 	0.38911 0.03202 0.65474 -0.41400
C 	C 	0.45816 0.67930 0.12220 0.36300
C 	C 	0.43336 0.69590 0.10616 -0.10100
C 	C 	0.42360 0.72540 0.11600 -0.00100
H 	H 	0.43350 0.73530 0.13300 0.04300
C 	C 	0.38640 0.77620 0.14470 -0.03900
H 	H 	0.39340 0.76090 0.15900 0.04400
C 	C 	0.37350 0.80450 0.15430 -0.06200
H 	H 	0.36860 0.80770 0.17560 0.04200
C 	C 	0.38150 0.79410 0.08840 -0.03800
H 	H 	0.38420 0.79000 0.06690 0.04300
C 	C 	0.40020 0.82280 0.12970 -0.07200
H 	H 	0.41440 0.83860 0.13560 0.05200
O 	O 	0.46844 0.69186 0.14730 -0.40600
O 	O 	0.46798 0.65474 0.11089 -0.41300
C 	C 	0.45816 0.17930 0.62220 0.36300
C 	C 	0.43336 0.19590 0.60616 -0.10100
C 	C 	0.42360 0.22540 0.61600 -0.00100
H 	H 	0.43350 0.23530 0.63300 0.04300
C 	C 	0.38640 0.27620 0.64470 -0.03900
H 	H 	0.39340 0.26090 0.65900 0.04500
C 	C 	0.37350 0.30450 0.65430 -0.06200
H 	H 	0.36860 0.30770 0.67560 0.04200
C 	C 	0.38150 0.29410 0.58840 -0.03800
H 	H 	0.38420 0.29000 0.56690 0.04400
C 	C 	0.40020 0.32280 0.62970 -0.07200
H 	H 	0.41440 0.33860 0.63560 0.05200
O 	O 	0.46844 0.19186 0.64730 -0.40600
O 	O 	0.46798 0.15474 0.61089 -0.41200
C 	C 	0.95816 0.67930 0.62220 0.36300
C 	C 	0.93336 0.69590 0.60616 -0.10000
C 	C 	0.92360 0.72540 0.61600 -0.00200
H 	H 	0.93350 0.73530 0.63300 0.04400
C 	C 	0.88640 0.77620 0.64470 -0.03900
H 	H 	0.89340 0.76090 0.65900 0.04500
C 	C 	0.87350 0.80450 0.65430 -0.06100
H 	H 	0.86860 0.80770 0.67560 0.04200
C 	C 	0.88150 0.79410 0.58840 -0.03800
H 	H 	0.88420 0.79000 0.56690 0.04400
C 	C 	0.90020 0.82280 0.62970 -0.07200
H 	H 	0.91440 0.83860 0.63560 0.05200
O 	O 	0.96844 0.69186 0.64730 -0.40300
O 	O 	0.96798 0.65474 0.61089 -0.40900
C 	C 	0.95816 0.17930 0.12220 0.36300
C 	C 	0.93336 0.19590 0.10616 -0.10000
C 	C 	0.92360 0.22540 0.11600 -0.00200
H 	H 	0.93350 0.23530 0.13300 0.04400
C 	C 	0.88640 0.27620 0.14470 -0.03900
H 	H 	0.89340 0.26090 0.15900 0.04500
C 	C 	0.87350 0.30450 0.15430 -0.06100
H 	H 	0.86860 0.30770 0.17560 0.04200
C 	C 	0.88150 0.29410 0.08840 -0.03800
H 	H 	0.88420 0.29000 0.06690 0.04300
C 	C 	0.90020 0.32280 0.12970 -0.07200
H 	H 	0.91440 0.33860 0.13560 0.05200
O 	O 	0.96844 0.19186 0.14730 -0.40300
O 	O 	0.96798 0.15474 0.11089 -0.41000
C 	C 	0.45816 0.32070 0.87780 0.36300
C 	C 	0.43336 0.30410 0.89384 -0.10000
C 	C 	0.42360 0.27460 0.88400 -0.00200
H 	H 	0.43350 0.26470 0.86700 0.04400
C 	C 	0.38640 0.22380 0.85530 -0.03900
H 	H 	0.39340 0.23910 0.84100 0.04400
C 	C 	0.37350 0.19550 0.84570 -0.06200
H 	H 	0.36860 0.19230 0.82440 0.04200
C 	C 	0.38150 0.20590 0.91160 -0.03800
H 	H 	0.38420 0.21000 0.93310 0.04400
C 	C 	0.40020 0.17720 0.87030 -0.07200
H 	H 	0.41440 0.16140 0.86440 0.05200
O 	O 	0.46844 0.30814 0.85270 -0.40600
O 	O 	0.46798 0.34526 0.88911 -0.41200
C 	C 	0.45816 0.82070 0.37780 0.36300
C 	C 	0.43336 0.80410 0.39384 -0.10100
C 	C 	0.42360 0.77460 0.38400 -0.00200
H 	H 	0.43350 0.76470 0.36700 0.04400
C 	C 	0.38640 0.72380 0.35530 -0.03900
H 	H 	0.39340 0.73910 0.34100 0.04400
C 	C 	0.37350 0.69550 0.34570 -0.06200
H 	H 	0.36860 0.69230 0.32440 0.04200
C 	C 	0.38150 0.70590 0.41160 -0.03800
H 	H 	0.38420 0.71000 0.43310 0.04400
C 	C 	0.40020 0.67720 0.37030 -0.07200
H 	H 	0.41440 0.66140 0.36440 0.05200
O 	O 	0.46844 0.80814 0.35270 -0.40600
O 	O 	0.46798 0.84526 0.38911 -0.41200
C 	C 	0.95816 0.32070 0.37780 0.36300
C 	C 	0.93336 0.30410 0.39384 -0.10000
C 	C 	0.92360 0.27460 0.38400 -0.00200
H 	H 	0.93350 0.26470 0.36700 0.04400
C 	C 	0.88640 0.22380 0.35530 -0.03900
H 	H 	0.89340 0.23910 0.34100 0.04500
C 	C 	0.87350 0.19550 0.34570 -0.06100
H 	H 	0.86860 0.19230 0.32440 0.04200
C 	C 	0.88150 0.20590 0.41160 -0.03800
H 	H 	0.88420 0.21000 0.43310 0.04400
C 	C 	0.90020 0.17720 0.37030 -0.07200
H 	H 	0.91440 0.16140 0.36440 0.05200
O 	O 	0.96844 0.30814 0.35270 -0.40300
O 	O 	0.96798 0.34526 0.38911 -0.40900
C 	C 	0.95816 0.82070 0.87780 0.36200
C 	C 	0.93336 0.80410 0.89384 -0.09900
C 	C 	0.92360 0.77460 0.88400 -0.00200
H 	H 	0.93350 0.76470 0.86700 0.04400
C 	C 	0.88640 0.72380 0.85530 -0.03900
H 	H 	0.89340 0.73910 0.84100 0.04500
C 	C 	0.87350 0.69550 0.84570 -0.06200
H 	H 	0.86860 0.69230 0.82440 0.04200
C 	C 	0.88150 0.70590 0.91160 -0.03800
H 	H 	0.88420 0.71000 0.93310 0.04500
C 	C 	0.90020 0.67720 0.87030 -0.07200
H 	H 	0.91440 0.66140 0.86440 0.05200
O 	O 	0.96844 0.80814 0.85270 -0.40300
O 	O 	0.96798 0.84526 0.88911 -0.40900
C 	C 	0.54184 0.67930 0.87780 0.36300
C 	C 	0.56664 0.69590 0.89384 -0.10000
C 	C 	0.57640 0.72540 0.88400 -0.00200
H 	H 	0.56650 0.73530 0.86700 0.04400
C 	C 	0.61360 0.77620 0.85530 -0.03900
H 	H 	0.60660 0.76090 0.84100 0.04400
C 	C 	0.62650 0.80450 0.84570 -0.06200
H 	H 	0.63140 0.80770 0.82440 0.04200
C 	C 	0.61850 0.79410 0.91160 -0.03800
H 	H 	0.61580 0.79000 0.93310 0.04400
C 	C 	0.59980 0.82280 0.87030 -0.07200
H 	H 	0.58560 0.83860 0.86440 0.05200
O 	O 	0.53156 0.69186 0.85270 -0.40600
O 	O 	0.53202 0.65474 0.88911 -0.41200
C 	C 	0.54184 0.17930 0.37780 0.36300
C 	C 	0.56664 0.19590 0.39384 -0.10100
C 	C 	0.57640 0.22540 0.38400 -0.00100
H 	H 	0.56650 0.23530 0.36700 0.04400
C 	C 	0.61360 0.27620 0.35530 -0.03900
H 	H 	0.60660 0.26090 0.34100 0.04500
C 	C 	0.62650 0.30450 0.34570 -0.06200
H 	H 	0.63140 0.30770 0.32440 0.04200
C 	C 	0.61850 0.29410 0.41160 -0.03800
H 	H 	0.61580 0.29000 0.43310 0.04400
C 	C 	0.59980 0.32280 0.37030 -0.07200
H 	H 	0.58560 0.33860 0.36440 0.05200
O 	O 	0.53156 0.19186 0.35270 -0.40600
O 	O 	0.53202 0.15474 0.38911 -0.41200
C 	C 	0.04184 0.67930 0.37780 0.36300
C 	C 	0.06664 0.69590 0.39384 -0.10200
C 	C 	0.07640 0.72540 0.38400 -0.00100
H 	H 	0.06650 0.73530 0.36700 0.04300
C 	C 	0.11360 0.77620 0.35530 -0.03900
H 	H 	0.10660 0.76090 0.34100 0.04400
C 	C 	0.12650 0.80450 0.34570 -0.06200
H 	H 	0.13140 0.80770 0.32440 0.04200
C 	C 	0.11850 0.79410 0.41160 -0.03800
H 	H 	0.11580 0.79000 0.43310 0.04300
C 	C 	0.09980 0.82280 0.37030 -0.07200
H 	H 	0.08560 0.83860 0.36440 0.05200
O 	O 	0.03156 0.69186 0.35270 -0.40700
O 	O 	0.03202 0.65474 0.38911 -0.41400
C 	C 	0.04184 0.17930 0.87780 0.36300
C 	C 	0.06664 0.19590 0.89384 -0.10100
C 	C 	0.07640 0.22540 0.88400 -0.00200
H 	H 	0.06650 0.23530 0.86700 0.04300
C 	C 	0.11360 0.27620 0.85530 -0.03900
H 	H 	0.10660 0.26090 0.84100 0.04400
C 	C 	0.12650 0.30450 0.84570 -0.06200
H 	H 	0.13140 0.30770 0.82440 0.04200
C 	C 	0.11850 0.29410 0.91160 -0.03800
H 	H 	0.11580 0.29000 0.93310 0.04400
C 	C 	0.09980 0.32280 0.87030 -0.07200
H 	H 	0.08560 0.33860 0.86440 0.05200
O 	O 	0.03156 0.19186 0.85270 -0.40700
O 	O 	0.03202 0.15474 0.88911 -0.41300
C 	C 	0.54184 0.32070 0.12220 0.36300
C 	C 	0.56664 0.30410 0.10616 -0.10100
C 	C 	0.57640 0.27460 0.11600 -0.00100
H 	H 	0.56650 0.26470 0.13300 0.04300
C 	C 	0.61360 0.22380 0.14470 -0.03900
H 	H 	0.60660 0.23910 0.15900 0.04500
C 	C 	0.62650 0.19550 0.15430 -0.06100
H 	H 	0.63140 0.19230 0.17560 0.04200
C 	C 	0.61850 0.20590 0.08840 -0.03800
H 	H 	0.61580 0.21000 0.06690 0.04300
C 	C 	0.59980 0.17720 0.12970 -0.07200
H 	H 	0.58560 0.16140 0.13560 0.05200
O 	O 	0.53156 0.30814 0.14730 -0.40600
O 	O 	0.53202 0.34526 0.11089 -0.41300
C 	C 	0.54184 0.82070 0.62220 0.36300
C 	C 	0.56664 0.80410 0.60616 -0.10100
C 	C 	0.57640 0.77460 0.61600 -0.00200
H 	H 	0.56650 0.76470 0.63300 0.04300
C 	C 	0.61360 0.72380 0.64470 -0.03900
H 	H 	0.60660 0.73910 0.65900 0.04400
C 	C 	0.62650 0.69550 0.65430 -0.06200
H 	H 	0.63140 0.69230 0.67560 0.04200
C 	C 	0.61850 0.70590 0.58840 -0.03800
H 	H 	0.61580 0.71000 0.56690 0.04400
C 	C 	0.59980 0.67720 0.62970 -0.07200
H 	H 	0.58560 0.66140 0.63560 0.05200
O 	O 	0.53156 0.80814 0.64730 -0.40600
O 	O 	0.53202 0.84526 0.61089 -0.41200
C 	C 	0.04184 0.32070 0.62220 0.36300
C 	C 	0.06664 0.30410 0.60616 -0.10200
C 	C 	0.07640 0.27460 0.61600 -0.00100
H 	H 	0.06650 0.26470 0.63300 0.04300
C 	C 	0.11360 0.22380 0.64470 -0.03900
H 	H 	0.10660 0.23910 0.65900 0.04400
C 	C 	0.12650 0.19550 0.65430 -0.06200
H 	H 	0.13140 0.19230 0.67560 0.04200
C 	C 	0.11850 0.20590 0.58840 -0.03800
H 	H 	0.11580 0.21000 0.56690 0.04300
C 	C 	0.09980 0.17720 0.62970 -0.07200
H 	H 	0.08560 0.16140 0.63560 0.05100
O 	O 	0.03156 0.30814 0.64730 -0.40700
O 	O 	0.03202 0.34526 0.61089 -0.41400
C 	C 	0.04184 0.82070 0.12220 0.36300
C 	C 	0.06664 0.80410 0.10616 -0.10200
C 	C 	0.07640 0.77460 0.11600 -0.00100
H 	H 	0.06650 0.76470 0.13300 0.04300
C 	C 	0.11360 0.72380 0.14470 -0.03900
H 	H 	0.10660 0.73910 0.15900 0.04400
C 	C 	0.12650 0.69550 0.15430 -0.06200
H 	H 	0.13140 0.69230 0.17560 0.04200
C 	C 	0.11850 0.70590 0.08840 -0.03800
H 	H 	0.11580 0.71000 0.06690 0.04200
C 	C 	0.09980 0.67720 0.12970 -0.07200
H 	H 	0.08560 0.66140 0.13560 0.05100
O 	O 	0.03156 0.80814 0.14730 -0.40700
O 	O 	0.03202 0.84526 0.11089 -0.41400
Cu	Cu	0.17315 0.32685 0.50000 0.90900
Cu	Cu	0.12951 0.37049 0.50000 0.91400
Cu	Cu	0.17315 0.82685 -0.00000 0.90600
Cu	Cu	0.12951 0.87049 -0.00000 0.91200
Cu	Cu	0.82685 0.67315 0.50000 0.90900
Cu	Cu	0.87049 0.62951 0.50000 0.91400
Cu	Cu	0.82685 0.17315 -0.00000 0.90600
Cu	Cu	0.87049 0.12951 -0.00000 0.91200
Cu	Cu	0.82685 0.32685 0.50000 0.90900
Cu	Cu	0.87049 0.37049 0.50000 0.91400
Cu	Cu	0.82685 0.82685 -0.00000 0.90600
Cu	Cu	0.87049 0.87049 -0.00000 0.91200
Cu	Cu	0.17315 0.67315 0.50000 0.90900
Cu	Cu	0.12951 0.62951 0.50000 0.91400
Cu	Cu	0.17315 0.17315 -0.00000 0.90600
Cu	Cu	0.12951 0.12951 -0.00000 0.91100
Cu	Cu	0.50000 0.17315 0.32685 0.90900
Cu	Cu	0.50000 0.12951 0.37049 0.91400
Cu	Cu	0.00000 0.17315 0.82685 0.90600
Cu	Cu	0.00000 0.12951 0.87049 0.91200
Cu	Cu	0.50000 0.82685 0.67315 0.90900
Cu	Cu	0.50000 0.87049 0.62951 0.91400
Cu	Cu	0.00000 0.82685 0.17315 0.90600
Cu	Cu	-0.00000 0.87049 0.12951 0.91200
Cu	Cu	0.50000 0.82685 0.32685 0.90900
Cu	Cu	0.50000 0.87049 0.37049 0.91400
Cu	Cu	0.00000 0.82685 0.82685 0.90600
Cu	Cu	0.00000 0.87049 0.87049 0.91200
Cu	Cu	0.50000 0.17315 0.67315 0.90900
Cu	Cu	0.50000 0.12951 0.62951 0.91400
Cu	Cu	-0.00000 0.17315 0.17315 0.90600
Cu	Cu	-0.00000 0.12951 0.12951 0.91100
Cu	Cu	0.32685 0.50000 0.17315 0.90900
Cu	Cu	0.37049 0.50000 0.12951 0.91400
Cu	Cu	0.32685 0.00000 0.67315 0.90600
Cu	Cu	0.37049 0.00000 0.62951 0.91100
Cu	Cu	0.67315 0.50000 0.82685 0.90900
Cu	Cu	0.62951 0.50000 0.87049 0.91400
Cu	Cu	0.67315 0.00000 0.32685 0.90600
Cu	Cu	0.62951 0.00000 0.37049 0.91100
Cu	Cu	0.32685 0.50000 0.82685 0.90900
Cu	Cu	0.37049 0.50000 0.87049 0.91400
Cu	Cu	0.32685 0.00000 0.32685 0.90600
Cu	Cu	0.37049 0.00000 0.37049 0.91200
Cu	Cu	0.67315 0.50000 0.17315 0.90900
Cu	Cu	0.62951 0.50000 0.12951 0.91400
Cu	Cu	0.67315 0.00000 0.67315 0.90600
Cu	Cu	0.62951 0.00000 0.62951 0.91100
Cu	Cu	0.32685 0.17315 0.50000 0.90900
Cu	Cu	0.37049 0.12951 0.50000 0.91400
Cu	Cu	0.32685 0.67315 -0.00000 0.90600
Cu	Cu	0.37049 0.62951 -0.00000 0.91100
Cu	Cu	0.67315 0.82685 0.50000 0.90900
Cu	Cu	0.62951 0.87049 0.50000 0.91400
Cu	Cu	0.67315 0.32685 -0.00000 0.90600
Cu	Cu	0.62951 0.37049 -0.00000 0.91100
Cu	Cu	0.32685 0.82685 0.50000 0.90900
Cu	Cu	0.37049 0.87049 0.50000 0.91400
Cu	Cu	0.32685 0.32685 -0.00000 0.90600
Cu	Cu	0.37049 0.37049 -0.00000 0.91200
Cu	Cu	0.67315 0.17315 0.50000 0.90900
Cu	Cu	0.62951 0.12951 0.50000 0.91400
Cu	Cu	0.67315 0.67315 -0.00000 0.90600
Cu	Cu	0.62951 0.62951 -0.00000 0.91100
Cu	Cu	0.17315 0.50000 0.67315 0.90900
Cu	Cu	0.12951 0.50000 0.62951 0.91400
Cu	Cu	0.17315 -0.00000 0.17315 0.90600
Cu	Cu	0.12951 -0.00000 0.12951 0.91100
Cu	Cu	0.82685 0.50000 0.32685 0.90900
Cu	Cu	0.87049 0.50000 0.37049 0.91400
Cu	Cu	0.82685 0.00000 0.82685 0.90600
Cu	Cu	0.87049 0.00000 0.87049 0.91200
Cu	Cu	0.82685 0.50000 0.67315 0.90900
Cu	Cu	0.87049 0.50000 0.62951 0.91400
Cu	Cu	0.82685 -0.00000 0.17315 0.90600
Cu	Cu	0.87049 -0.00000 0.12951 0.91200
Cu	Cu	0.17315 0.50000 0.32685 0.90900
Cu	Cu	0.12951 0.50000 0.37049 0.91400
Cu	Cu	0.17315 0.00000 0.82685 0.90600
Cu	Cu	0.12951 0.00000 0.87049 0.91200
Cu	Cu	0.50000 0.32685 0.82685 0.90900
Cu	Cu	0.50000 0.37049 0.87049 0.91400
Cu	Cu	0.00000 0.32685 0.32685 0.90600
Cu	Cu	0.00000 0.37049 0.37049 0.91200
Cu	Cu	0.50000 0.67315 0.17315 0.90900
Cu	Cu	0.50000 0.62951 0.12951 0.91400
Cu	Cu	0.00000 0.67315 0.67315 0.90600
Cu	Cu	0.00000 0.62951 0.62951 0.91100
Cu	Cu	0.50000 0.32685 0.17315 0.90900
Cu	Cu	0.50000 0.37049 0.12951 0.91400
Cu	Cu	0.00000 0.32685 0.67315 0.90600
Cu	Cu	0.00000 0.37049 0.62951 0.91100
Cu	Cu	0.50000 0.67315 0.82685 0.90900
Cu	Cu	0.50000 0.62951 0.87049 0.91400
Cu	Cu	0.00000 0.67315 0.32685 0.90600
Cu	Cu	0.00000 0.62951 0.37049 0.91100
C 	C 	0.08108 0.31840 0.58108 0.04100
H 	H 	0.07380 0.33780 0.57380 0.04900
C 	C 	0.10070 0.26030 0.60070 -0.02300
C 	C 	0.11160 0.22800 0.61160 0.03800
C 	C 	0.13220 0.17160 0.63220 0.12600
C 	C 	0.08108 0.81840 0.08108 0.04200
H 	H 	0.07380 0.83780 0.07380 0.04800
C 	C 	0.10070 0.76030 0.10070 -0.02400
C 	C 	0.11160 0.72800 0.11160 0.03800
C 	C 	0.13220 0.67160 0.13220 0.12600
C 	C 	0.58108 0.81840 0.58108 0.04100
H 	H 	0.57380 0.83780 0.57380 0.04900
C 	C 	0.60070 0.76030 0.60070 -0.02300
C 	C 	0.61160 0.72800 0.61160 0.03800
C 	C 	0.63220 0.67160 0.63220 0.12600
C 	C 	0.91892 0.68160 0.58108 0.04100
H 	H 	0.92620 0.66220 0.57380 0.05000
C 	C 	0.89930 0.73970 0.60070 -0.02200
C 	C 	0.88840 0.77200 0.61160 0.03800
C 	C 	0.86780 0.82840 0.63220 0.12600
C 	C 	0.91892 0.18160 0.08108 0.04100
H 	H 	0.92620 0.16220 0.07380 0.04900
C 	C 	0.89930 0.23970 0.10070 -0.02300
C 	C 	0.88840 0.27200 0.11160 0.03800
C 	C 	0.86780 0.32840 0.13220 0.12600
C 	C 	0.91892 0.31840 0.41892 0.04100
H 	H 	0.92620 0.33780 0.42620 0.05000
C 	C 	0.89930 0.26030 0.39930 -0.02200
C 	C 	0.88840 0.22800 0.38840 0.03800
C 	C 	0.86780 0.17160 0.36780 0.12600
C 	C 	0.91892 0.81840 0.91892 0.04000
H 	H 	0.92620 0.83780 0.92620 0.05100
C 	C 	0.89930 0.76030 0.89930 -0.02200
C 	C 	0.88840 0.72800 0.88840 0.03800
C 	C 	0.86780 0.67160 0.86780 0.12600
C 	C 	0.08108 0.68160 0.41892 0.04100
H 	H 	0.07380 0.66220 0.42620 0.04900
C 	C 	0.10070 0.73970 0.39930 -0.02300
C 	C 	0.11160 0.77200 0.38840 0.03800
C 	C 	0.13220 0.82840 0.36780 0.12600
C 	C 	0.08108 0.18160 0.91892 0.04100
H 	H 	0.07380 0.16220 0.92620 0.04900
C 	C 	0.10070 0.23970 0.89930 -0.02300
C 	C 	0.11160 0.27200 0.88840 0.03800
C 	C 	0.13220 0.32840 0.86780 0.12600
C 	C 	0.58108 0.68160 0.91892 0.04100
H 	H 	0.57380 0.66220 0.92620 0.05000
C 	C 	0.60070 0.73970 0.89930 -0.02200
C 	C 	0.61160 0.77200 0.88840 0.03800
C 	C 	0.63220 0.82840 0.86780 0.12600
C 	C 	0.58108 0.08108 0.31840 0.04100
H 	H 	0.57380 0.07380 0.33780 0.04900
C 	C 	0.60070 0.10070 0.26030 -0.02300
C 	C 	0.61160 0.11160 0.22800 0.03800
C 	C 	0.63220 0.13220 0.17160 0.12600
C 	C 	0.58108 0.58108 0.81840 0.04100
H 	H 	0.57380 0.57380 0.83780 0.04900
C 	C 	0.60070 0.60070 0.76030 -0.02300
C 	C 	0.61160 0.61160 0.72800 0.03800
C 	C 	0.63220 0.63220 0.67160 0.12600
C 	C 	0.58108 0.91892 0.68160 0.04100
H 	H 	0.57380 0.92620 0.66220 0.05000
C 	C 	0.60070 0.89930 0.73970 -0.02200
C 	C 	0.61160 0.88840 0.77200 0.03800
C 	C 	0.63220 0.86780 0.82840 0.12600
C 	C 	0.58108 0.41892 0.18160 0.04100
H 	H 	0.57380 0.42620 0.16220 0.04900
C 	C 	0.60070 0.39930 0.23970 -0.02300
C 	C 	0.61160 0.38840 0.27200 0.03800
C 	C 	0.63220 0.36780 0.32840 0.12600
C 	C 	0.41892 0.91892 0.31840 0.04100
H 	H 	0.42620 0.92620 0.33780 0.05000
C 	C 	0.39930 0.89930 0.26030 -0.02200
C 	C 	0.38840 0.88840 0.22800 0.03800
C 	C 	0.36780 0.86780 0.17160 0.12600
C 	C 	0.41892 0.41892 0.81840 0.04100
H 	H 	0.42620 0.42620 0.83780 0.04900
C 	C 	0.39930 0.39930 0.76030 -0.02300
C 	C 	0.38840 0.38840 0.72800 0.03800
C 	C 	0.36780 0.36780 0.67160 0.12600
C 	C 	0.91892 0.91892 0.81840 0.04000
H 	H 	0.92620 0.92620 0.83780 0.05100
C 	C 	0.89930 0.89930 0.76030 -0.02200
C 	C 	0.88840 0.88840 0.72800 0.03800
C 	C 	0.86780 0.86780 0.67160 0.12600
C 	C 	0.41892 0.08108 0.68160 0.04100
H 	H 	0.42620 0.07380 0.66220 0.04900
C 	C 	0.39930 0.10070 0.73970 -0.02300
C 	C 	0.38840 0.11160 0.77200 0.03800
C 	C 	0.36780 0.13220 0.82840 0.12600
C 	C 	0.41892 0.58108 0.18160 0.04100
H 	H 	0.42620 0.57380 0.16220 0.04900
C 	C 	0.39930 0.60070 0.23970 -0.02300
C 	C 	0.38840 0.61160 0.27200 0.03800
C 	C 	0.36780 0.63220 0.32840 0.12600
C 	C 	0.91892 0.58108 0.68160 0.04100
H 	H 	0.92620 0.57380 0.66220 0.05000
C 	C 	0.89930 0.60070 0.73970 -0.02200
C 	C 	0.88840 0.61160 0.77200 0.03800
C 	C 	0.86780 0.63220 0.82840 0.12600
C 	C 	0.31840 0.58108 0.08108 0.04100
H 	H 	0.33780 0.57380 0.07380 0.04900
C 	C 	0.26030 0.60070 0.10070 -0.02300
C 	C 	0.22800 0.61160 0.11160 0.03800
C 	C 	0.17160 0.63220 0.13220 0.12600
C 	C 	0.81840 0.58108 0.58108 0.04100
H 	H 	0.83780 0.57380 0.57380 0.04900
C 	C 	0.76030 0.60070 0.60070 -0.02300
C 	C 	0.72800 0.61160 0.61160 0.03800
C 	C 	0.67160 0.63220 0.63220 0.12600
C 	C 	0.68160 0.58108 0.91892 0.04100
H 	H 	0.66220 0.57380 0.92620 0.05000
C 	C 	0.73970 0.60070 0.89930 -0.02200
C 	C 	0.77200 0.61160 0.88840 0.03800
C 	C 	0.82840 0.63220 0.86780 0.12600
C 	C 	0.18160 0.58108 0.41892 0.04100
H 	H 	0.16220 0.57380 0.42620 0.04900
C 	C 	0.23970 0.60070 0.39930 -0.02300
C 	C 	0.27200 0.61160 0.38840 0.03800
C 	C 	0.32840 0.63220 0.36780 0.12600
C 	C 	0.31840 0.41892 0.91892 0.04100
H 	H 	0.33780 0.42620 0.92620 0.05000
C 	C 	0.26030 0.39930 0.89930 -0.02200
C 	C 	0.22800 0.38840 0.88840 0.03800
C 	C 	0.17160 0.36780 0.86780 0.12600
C 	C 	0.81840 0.41892 0.41892 0.04100
H 	H 	0.83780 0.42620 0.42620 0.04900
C 	C 	0.76030 0.39930 0.39930 -0.02300
C 	C 	0.72800 0.38840 0.38840 0.03800
C 	C 	0.67160 0.36780 0.36780 0.12600
C 	C 	0.81840 0.91892 0.91892 0.04000
H 	H 	0.83780 0.92620 0.92620 0.05100
C 	C 	0.76030 0.89930 0.89930 -0.02200
C 	C 	0.72800 0.88840 0.88840 0.03800
C 	C 	0.67160 0.86780 0.86780 0.12600
C 	C 	0.68160 0.41892 0.08108 0.04100
H 	H 	0.66220 0.42620 0.07380 0.04900
C 	C 	0.73970 0.39930 0.10070 -0.02300
C 	C 	0.77200 0.38840 0.11160 0.03800
C 	C 	0.82840 0.36780 0.13220 0.12600
C 	C 	0.68160 0.91892 0.58108 0.04100
H 	H 	0.66220 0.92620 0.57380 0.05000
C 	C 	0.73970 0.89930 0.60070 -0.02200
C 	C 	0.77200 0.88840 0.61160 0.03800
C 	C 	0.82840 0.86780 0.63220 0.12600
C 	C 	0.18160 0.41892 0.58108 0.04100
H 	H 	0.16220 0.42620 0.57380 0.04900
C 	C 	0.23970 0.39930 0.60070 -0.02300
C 	C 	0.27200 0.38840 0.61160 0.03800
C 	C 	0.32840 0.36780 0.63220 0.12600
C 	C 	0.31840 0.08108 0.41892 0.04100
H 	H 	0.33780 0.07380 0.42620 0.04900
C 	C 	0.26030 0.10070 0.39930 -0.02300
C 	C 	0.22800 0.11160 0.38840 0.03800
C 	C 	0.17160 0.13220 0.36780 0.12600
C 	C 	0.31840 0.58108 0.91892 0.04100
H 	H 	0.33780 0.57380 0.92620 0.05000
C 	C 	0.26030 0.60070 0.89930 -0.02200
C 	C 	0.22800 0.61160 0.88840 0.03800
C 	C 	0.17160 0.63220 0.86780 0.12600
C 	C 	0.81840 0.08108 0.91892 0.04100
H 	H 	0.83780 0.07380 0.92620 0.05000
C 	C 	0.76030 0.10070 0.89930 -0.02300
C 	C 	0.72800 0.11160 0.88840 0.03800
C 	C 	0.67160 0.13220 0.86780 0.12600
C 	C 	0.68160 0.91892 0.41892 0.04100
H 	H 	0.66220 0.92620 0.42620 0.05000
C 	C 	0.73970 0.89930 0.39930 -0.02200
C 	C 	0.77200 0.88840 0.38840 0.03800
C 	C 	0.82840 0.86780 0.36780 0.12600
C 	C 	0.18160 0.91892 0.91892 0.04000
H 	H 	0.16220 0.92620 0.92620 0.05000
C 	C 	0.23970 0.89930 0.89930 -0.02200
C 	C 	0.27200 0.88840 0.88840 0.03800
C 	C 	0.32840 0.86780 0.86780 0.12500
C 	C 	0.31840 0.91892 0.58108 0.04100
H 	H 	0.33780 0.92620 0.57380 0.05000
C 	C 	0.26030 0.89930 0.60070 -0.02200
C 	C 	0.22800 0.88840 0.61160 0.03800
C 	C 	0.17160 0.86780 0.63220 0.12600
C 	C 	0.81840 0.91892 0.08108 0.04100
H 	H 	0.83780 0.92620 0.07380 0.05000
C 	C 	0.76030 0.89930 0.10070 -0.02300
C 	C 	0.72800 0.88840 0.11160 0.03800
C 	C 	0.67160 0.86780 0.13220 0.12600
C 	C 	0.68160 0.08108 0.58108 0.04100
H 	H 	0.66220 0.07380 0.57380 0.04900
C 	C 	0.73970 0.10070 0.60070 -0.02300
C 	C 	0.77200 0.11160 0.61160 0.03800
C 	C 	0.82840 0.13220 0.63220 0.12600
C 	C 	0.18160 0.08108 0.08108 0.04200
H 	H 	0.16220 0.07380 0.07380 0.04800
C 	C 	0.23970 0.10070 0.10070 -0.02400
C 	C 	0.27200 0.11160 0.11160 0.03800
C 	C 	0.32840 0.13220 0.13220 0.12600
C 	C 	0.18160 0.58108 0.58108 0.04100
H 	H 	0.16220 0.57380 0.57380 0.04900
C 	C 	0.23970 0.60070 0.60070 -0.02300
C 	C 	0.27200 0.61160 0.61160 0.03800
C 	C 	0.32840 0.63220 0.63220 0.12600
C 	C 	0.08108 0.58108 0.68160 0.04100
H 	H 	0.07380 0.57380 0.66220 0.04900
C 	C 	0.10070 0.60070 0.73970 -0.02300
C 	C 	0.11160 0.61160 0.77200 0.03800
C 	C 	0.13220 0.63220 0.82840 0.12600
C 	C 	0.08108 0.08108 0.18160 0.04200
H 	H 	0.07380 0.07380 0.16220 0.04800
C 	C 	0.10070 0.10070 0.23970 -0.02400
C 	C 	0.11160 0.11160 0.27200 0.03800
C 	C 	0.13220 0.13220 0.32840 0.12600
C 	C 	0.58108 0.58108 0.18160 0.04100
H 	H 	0.57380 0.57380 0.16220 0.04900
C 	C 	0.60070 0.60070 0.23970 -0.02300
C 	C 	0.61160 0.61160 0.27200 0.03800
C 	C 	0.63220 0.63220 0.32840 0.12600
C 	C 	0.91892 0.58108 0.31840 0.04100
H 	H 	0.92620 0.57380 0.33780 0.05000
C 	C 	0.89930 0.60070 0.26030 -0.02200
C 	C 	0.88840 0.61160 0.22800 0.03800
C 	C 	0.86780 0.63220 0.17160 0.12600
C 	C 	0.91892 0.08108 0.81840 0.04100
H 	H 	0.92620 0.07380 0.83780 0.05000
C 	C 	0.89930 0.10070 0.76030 -0.02300
C 	C 	0.88840 0.11160 0.72800 0.03800
C 	C 	0.86780 0.13220 0.67160 0.12600
C 	C 	0.91892 0.41892 0.68160 0.04100
H 	H 	0.92620 0.42620 0.66220 0.05000
C 	C 	0.89930 0.39930 0.73970 -0.02200
C 	C 	0.88840 0.38840 0.77200 0.03800
C 	C 	0.86780 0.36780 0.82840 0.12600
C 	C 	0.91892 0.91892 0.18160 0.04000
H 	H 	0.92620 0.92620 0.16220 0.05000
C 	C 	0.89930 0.89930 0.23970 -0.02200
C 	C 	0.88840 0.88840 0.27200 0.03800
C 	C 	0.86780 0.86780 0.32840 0.12500
C 	C 	0.08108 0.41892 0.31840 0.04100
H 	H 	0.07380 0.42620 0.33780 0.04900
C 	C 	0.10070 0.39930 0.26030 -0.02300
C 	C 	0.11160 0.38840 0.22800 0.03800
C 	C 	0.13220 0.36780 0.17160 0.12600
C 	C 	0.08108 0.91892 0.81840 0.04100
H 	H 	0.07380 0.92620 0.83780 0.05000
C 	C 	0.10070 0.89930 0.76030 -0.02300
C 	C 	0.11160 0.88840 0.72800 0.03800
C 	C 	0.13220 0.86780 0.67160 0.12600
C 	C 	0.58108 0.91892 0.31840 0.04100
H 	H 	0.57380 0.92620 0.33780 0.05000
C 	C 	0.60070 0.89930 0.26030 -0.02200
C 	C 	0.61160 0.88840 0.22800 0.03800
C 	C 	0.63220 0.86780 0.17160 0.12600
C 	C 	0.58108 0.31840 0.91892 0.04100
H 	H 	0.57380 0.33780 0.92620 0.05000
C 	C 	0.60070 0.26030 0.89930 -0.02200
C 	C 	0.61160 0.22800 0.88840 0.03800
C 	C 	0.63220 0.17160 0.86780 0.12600
C 	C 	0.58108 0.81840 0.41892 0.04100
H 	H 	0.57380 0.83780 0.42620 0.04900
C 	C 	0.60070 0.76030 0.39930 -0.02300
C 	C 	0.61160 0.72800 0.38840 0.03800
C 	C 	0.63220 0.67160 0.36780 0.12600
C 	C 	0.58108 0.68160 0.08108 0.04100
H 	H 	0.57380 0.66220 0.07380 0.04900
C 	C 	0.60070 0.73970 0.10070 -0.02300
C 	C 	0.61160 0.77200 0.11160 0.03800
C 	C 	0.63220 0.82840 0.13220 0.12600
C 	C 	0.58108 0.18160 0.58108 0.04100
H 	H 	0.57380 0.16220 0.57380 0.04900
C 	C 	0.60070 0.23970 0.60070 -0.02300
C 	C 	0.61160 0.27200 0.61160 0.03800
C 	C 	0.63220 0.32840 0.63220 0.12600
C 	C 	0.41892 0.31840 0.08108 0.04100
H 	H 	0.42620 0.33780 0.07380 0.04900
C 	C 	0.39930 0.26030 0.10070 -0.02300
C 	C 	0.38840 0.22800 0.11160 0.03800
C 	C 	0.36780 0.17160 0.13220 0.12600
C 	C 	0.41892 0.81840 0.58108 0.04100
H 	H 	0.42620 0.83780 0.57380 0.04900
C 	C 	0.39930 0.76030 0.60070 -0.02300
C 	C 	0.38840 0.72800 0.61160 0.03800
C 	C 	0.36780 0.67160 0.63220 0.12600
C 	C 	0.91892 0.31840 0.58108 0.04100
H 	H 	0.92620 0.33780 0.57380 0.05000
C 	C 	0.89930 0.26030 0.60070 -0.02200
C 	C 	0.88840 0.22800 0.61160 0.03800
C 	C 	0.86780 0.17160 0.63220 0.12600
C 	C 	0.41892 0.68160 0.91892 0.04100
H 	H 	0.42620 0.66220 0.92620 0.05000
C 	C 	0.39930 0.73970 0.89930 -0.02200
C 	C 	0.38840 0.77200 0.88840 0.03800
C 	C 	0.36780 0.82840 0.86780 0.12600
C 	C 	0.41892 0.18160 0.41892 0.04100
H 	H 	0.42620 0.16220 0.42620 0.04900
C 	C 	0.39930 0.23970 0.39930 -0.02300
C 	C 	0.38840 0.27200 0.38840 0.03800
C 	C 	0.36780 0.32840 0.36780 0.12600
C 	C 	0.91892 0.18160 0.91892 0.04000
H 	H 	0.92620 0.16220 0.92620 0.05000
C 	C 	0.89930 0.23970 0.89930 -0.02200
C 	C 	0.88840 0.27200 0.88840 0.03800
C 	C 	0.86780 0.32840 0.86780 0.12500
C 	C 	0.91892 0.68160 0.41892 0.04100
H 	H 	0.92620 0.66220 0.42620 0.05000
C 	C 	0.89930 0.73970 0.39930 -0.02200
C 	C 	0.88840 0.77200 0.38840 0.03800
C 	C 	0.86780 0.82840 0.36780 0.12600
C 	C 	0.08108 0.31840 0.41892 0.04100
H 	H 	0.07380 0.33780 0.42620 0.04900
C 	C 	0.10070 0.26030 0.39930 -0.02300
C 	C 	0.11160 0.22800 0.38840 0.03800
C 	C 	0.13220 0.17160 0.36780 0.12600
C 	C 	0.08108 0.81840 0.91892 0.04100
H 	H 	0.07380 0.83780 0.92620 0.05000
C 	C 	0.10070 0.76030 0.89930 -0.02300
C 	C 	0.11160 0.72800 0.88840 0.03800
C 	C 	0.13220 0.67160 0.86780 0.12600
C 	C 	0.08108 0.68160 0.58108 0.04100
H 	H 	0.07380 0.66220 0.57380 0.04900
C 	C 	0.10070 0.73970 0.60070 -0.02300
C 	C 	0.11160 0.77200 0.61160 0.03800
C 	C 	0.13220 0.82840 0.63220 0.12600
C 	C 	0.08108 0.18160 0.08108 0.04200
H 	H 	0.07380 0.16220 0.07380 0.04800
C 	C 	0.10070 0.23970 0.10070 -0.02400
C 	C 	0.11160 0.27200 0.11160 0.03800
C 	C 	0.13220 0.32840 0.13220 0.12600
C 	C 	0.91892 0.81840 0.08108 0.04100
H 	H 	0.92620 0.83780 0.07380 0.05000
C 	C 	0.89930 0.76030 0.10070 -0.02300
C 	C 	0.88840 0.72800 0.11160 0.03800
C 	C 	0.86780 0.67160 0.13220 0.12600
C 	C 	0.41892 0.91892 0.68160 0.04100
H 	H 	0.42620 0.92620 0.66220 0.05000
C 	C 	0.39930 0.89930 0.73970 -0.02200
C 	C 	0.38840 0.88840 0.77200 0.03800
C 	C 	0.36780 0.86780 0.82840 0.12600
C 	C 	0.41892 0.41892 0.18160 0.04100
H 	H 	0.42620 0.42620 0.16220 0.04900
C 	C 	0.39930 0.39930 0.23970 -0.02300
C 	C 	0.38840 0.38840 0.27200 0.03800
C 	C 	0.36780 0.36780 0.32840 0.12600
C 	C 	0.41892 0.08108 0.31840 0.04100
H 	H 	0.42620 0.07380 0.33780 0.04900
C 	C 	0.39930 0.10070 0.26030 -0.02300
C 	C 	0.38840 0.11160 0.22800 0.03800
C 	C 	0.36780 0.13220 0.17160 0.12600
C 	C 	0.41892 0.58108 0.81840 0.04100
H 	H 	0.42620 0.57380 0.83780 0.04900
C 	C 	0.39930 0.60070 0.76030 -0.02300
C 	C 	0.38840 0.61160 0.72800 0.03800
C 	C 	0.36780 0.63220 0.67160 0.12600
C 	C 	0.58108 0.08108 0.68160 0.04100
H 	H 	0.57380 0.07380 0.66220 0.04900
C 	C 	0.60070 0.10070 0.73970 -0.02300
C 	C 	0.61160 0.11160 0.77200 0.03800
C 	C 	0.63220 0.13220 0.82840 0.12600
C 	C 	0.58108 0.41892 0.81840 0.04100
H 	H 	0.57380 0.42620 0.83780 0.04900
C 	C 	0.60070 0.39930 0.76030 -0.02300
C 	C 	0.61160 0.38840 0.72800 0.03800
C 	C 	0.63220 0.36780 0.67160 0.12600
C 	C 	0.68160 0.41892 0.91892 0.04100
H 	H 	0.66220 0.42620 0.92620 0.05000
C 	C 	0.73970 0.39930 0.89930 -0.02200
C 	C 	0.77200 0.38840 0.88840 0.03800
C 	C 	0.82840 0.36780 0.86780 0.12600
C 	C 	0.18160 0.41892 0.41892 0.04100
H 	H 	0.16220 0.42620 0.42620 0.04900
C 	C 	0.23970 0.39930 0.39930 -0.02300
C 	C 	0.27200 0.38840 0.38840 0.03800
C 	C 	0.32840 0.36780 0.36780 0.12600
C 	C 	0.31840 0.41892 0.08108 0.04100
H 	H 	0.33780 0.42620 0.07380 0.04900
C 	C 	0.26030 0.39930 0.10070 -0.02300
C 	C 	0.22800 0.38840 0.11160 0.03800
C 	C 	0.17160 0.36780 0.13220 0.12600
C 	C 	0.81840 0.41892 0.58108 0.04100
H 	H 	0.83780 0.42620 0.57380 0.04900
C 	C 	0.76030 0.39930 0.60070 -0.02300
C 	C 	0.72800 0.38840 0.61160 0.03800
C 	C 	0.67160 0.36780 0.63220 0.12600
C 	C 	0.68160 0.58108 0.08108 0.04100
H 	H 	0.66220 0.57380 0.07380 0.04900
C 	C 	0.73970 0.60070 0.10070 -0.02300
C 	C 	0.77200 0.61160 0.11160 0.03800
C 	C 	0.82840 0.63220 0.13220 0.12600
C 	C 	0.81840 0.58108 0.41892 0.04100
H 	H 	0.83780 0.57380 0.42620 0.04900
C 	C 	0.76030 0.60070 0.39930 -0.02300
C 	C 	0.72800 0.61160 0.38840 0.03800
C 	C 	0.67160 0.63220 0.36780 0.12600
C 	C 	0.18160 0.91892 0.08108 0.04100
H 	H 	0.16220 0.92620 0.07380 0.04900
C 	C 	0.23970 0.89930 0.10070 -0.02300
C 	C 	0.27200 0.88840 0.11160 0.03800
C 	C 	0.32840 0.86780 0.13220 0.12600
C 	C 	0.31840 0.08108 0.58108 0.04100
H 	H 	0.33780 0.07380 0.57380 0.04900
C 	C 	0.26030 0.10070 0.60070 -0.02300
C 	C 	0.22800 0.11160 0.61160 0.03800
C 	C 	0.17160 0.13220 0.63220 0.12600
C 	C 	0.81840 0.08108 0.08108 0.04200
H 	H 	0.83780 0.07380 0.07380 0.04800
C 	C 	0.76030 0.10070 0.10070 -0.02400
C 	C 	0.72800 0.11160 0.11160 0.03800
C 	C 	0.67160 0.13220 0.13220 0.12600
C 	C 	0.68160 0.08108 0.41892 0.04100
H 	H 	0.66220 0.07380 0.42620 0.04900
C 	C 	0.73970 0.10070 0.39930 -0.02300
C 	C 	0.77200 0.11160 0.38840 0.03800
C 	C 	0.82840 0.13220 0.36780 0.12600
C 	C 	0.18160 0.08108 0.91892 0.04100
H 	H 	0.16220 0.07380 0.92620 0.04900
C 	C 	0.23970 0.10070 0.89930 -0.02300
C 	C 	0.27200 0.11160 0.88840 0.03800
C 	C 	0.32840 0.13220 0.86780 0.12600
C 	C 	0.31840 0.91892 0.41892 0.04100
H 	H 	0.33780 0.92620 0.42620 0.05000
C 	C 	0.26030 0.89930 0.39930 -0.02200
C 	C 	0.22800 0.88840 0.38840 0.03800
C 	C 	0.17160 0.86780 0.36780 0.12600
C 	C 	0.91892 0.41892 0.31840 0.04100
H 	H 	0.92620 0.42620 0.33780 0.05000
C 	C 	0.89930 0.39930 0.26030 -0.02200
C 	C 	0.88840 0.38840 0.22800 0.03800
C 	C 	0.86780 0.36780 0.17160 0.12600
C 	C 	0.08108 0.41892 0.68160 0.04100
H 	H 	0.07380 0.42620 0.66220 0.04900
C 	C 	0.10070 0.39930 0.73970 -0.02300
C 	C 	0.11160 0.38840 0.77200 0.03800
C 	C 	0.13220 0.36780 0.82840 0.12600
C 	C 	0.08108 0.91892 0.18160 0.04100
H 	H 	0.07380 0.92620 0.16220 0.04900
C 	C 	0.10070 0.89930 0.23970 -0.02300
C 	C 	0.11160 0.88840 0.27200 0.03800
C 	C 	0.13220 0.86780 0.32840 0.12600
C 	C 	0.08108 0.58108 0.31840 0.04100
H 	H 	0.07380 0.57380 0.33780 0.04900
C 	C 	0.10070 0.60070 0.26030 -0.02300
C 	C 	0.11160 0.61160 0.22800 0.03800
C 	C 	0.13220 0.63220 0.17160 0.12600
C 	C 	0.08108 0.08108 0.81840 0.04200
H 	H 	0.07380 0.07380 0.83780 0.04800
C 	C 	0.10070 0.10070 0.76030 -0.02400
C 	C 	0.11160 0.11160 0.72800 0.03800
C 	C 	0.13220 0.13220 0.67160 0.12600
C 	C 	0.91892 0.08108 0.18160 0.04100
H 	H 	0.92620 0.07380 0.16220 0.04900
C 	C 	0.89930 0.10070 0.23970 -0.02300
C 	C 	0.88840 0.11160 0.27200 0.03800
C 	C 	0.86780 0.13220 0.32840 0.12600
C 	C 	0.41892 0.68160 0.08108 0.04100
H 	H 	0.42620 0.66220 0.07380 0.04900
C 	C 	0.39930 0.73970 0.10070 -0.02300
C 	C 	0.38840 0.77200 0.11160 0.03800
C 	C 	0.36780 0.82840 0.13220 0.12600
C 	C 	0.41892 0.18160 0.58108 0.04100
H 	H 	0.42620 0.16220 0.57380 0.04900
C 	C 	0.39930 0.23970 0.60070 -0.02300
C 	C 	0.38840 0.27200 0.61160 0.03800
C 	C 	0.36780 0.32840 0.63220 0.12600
C 	C 	0.41892 0.31840 0.91892 0.04100
H 	H 	0.42620 0.33780 0.92620 0.05000
C 	C 	0.39930 0.26030 0.89930 -0.02200
C 	C 	0.38840 0.22800 0.88840 0.03800
C 	C 	0.36780 0.17160 0.86780 0.12600
C 	C 	0.41892 0.81840 0.41892 0.04100
H 	H 	0.42620 0.83780 0.42620 0.04900
C 	C 	0.39930 0.76030 0.39930 -0.02300
C 	C 	0.38840 0.72800 0.38840 0.03800
C 	C 	0.36780 0.67160 0.36780 0.12600
C 	C 	0.58108 0.18160 0.41892 0.04100
H 	H 	0.57380 0.16220 0.42620 0.04900
C 	C 	0.60070 0.23970 0.39930 -0.02300
C 	C 	0.61160 0.27200 0.38840 0.03800
C 	C 	0.63220 0.32840 0.36780 0.12600
C 	C 	0.58108 0.31840 0.08108 0.04100
H 	H 	0.57380 0.33780 0.07380 0.04900
C 	C 	0.60070 0.26030 0.10070 -0.02300
C 	C 	0.61160 0.22800 0.11160 0.03800
C 	C 	0.63220 0.17160 0.13220 0.12600
N 	N 	0.14270 0.14270 0.64270 -0.17400
N 	N 	0.64270 0.64270 0.64270 -0.17400
N 	N 	0.85730 0.85730 0.64270 -0.17400
N 	N 	0.85730 0.14270 0.35730 -0.17400
N 	N 	0.85730 0.64270 0.85730 -0.17400
N 	N 	0.14270 0.85730 0.35730 -0.17400
N 	N 	0.64270 0.85730 0.85730 -0.17400
N 	N 	0.64270 0.14270 0.14270 -0.17400
N 	N 	0.64270 0.35730 0.35730 -0.17400
N 	N 	0.35730 0.85730 0.14270 -0.17400
N 	N 	0.35730 0.35730 0.64270 -0.17400
N 	N 	0.35730 0.14270 0.85730 -0.17400
N 	N 	0.35730 0.64270 0.35730 -0.17400
N 	N 	0.14270 0.64270 0.14270 -0.17400
N 	N 	0.14270 0.35730 0.85730 -0.17400
N 	N 	0.85730 0.35730 0.14270 -0.17400
N 	N 	0.14270 0.14270 0.35730 -0.17400
N 	N 	0.14270 0.64270 0.85730 -0.17400
N 	N 	0.64270 0.14270 0.85730 -0.17400
N 	N 	0.85730 0.85730 0.35730 -0.17400
N 	N 	0.14270 0.85730 0.64270 -0.17400
N 	N 	0.64270 0.35730 0.64270 -0.17400
N 	N 	0.85730 0.14270 0.64270 -0.17400
N 	N 	0.64270 0.64270 0.35730 -0.17400
N 	N 	0.85730 0.64270 0.14270 -0.17400
N 	N 	0.85730 0.35730 0.85730 -0.17400
N 	N 	0.14270 0.35730 0.14270 -0.17400
N 	N 	0.64270 0.85730 0.14270 -0.17400
N 	N 	0.35730 0.14270 0.14270 -0.17400
N 	N 	0.35730 0.64270 0.64270 -0.17400
N 	N 	0.35730 0.85730 0.85730 -0.17400
N 	N 	0.35730 0.35730 0.35730 -0.17400
