data_crystal

_cell_length_a 28.25300
_cell_length_b 13.85240
_cell_length_c 44.96600
_cell_angle_alpha 90.00000
_cell_angle_beta  90.00000
_cell_angle_gamma 90.00000

_symmetry_space_group_name_	'P 1'
_symmetry_space_group_name_H-M	'P 1'

loop_
_symmetry_equiv_pos_as_xyz
  x,y,z

loop_
_atom_site_label
_atom_site_type_symbol
_atom_site_fract_x
_atom_site_fract_y
_atom_site_fract_z
_atom_site_charge
C 	C 	0.04710 0.00960 0.53790 0.07600
H 	H 	0.03250 0.04360 0.55380 -0.01400
C 	C 	0.05780 0.05910 0.51180 -0.12700
H 	H 	0.05020 0.12560 0.50990 0.09400
C 	C 	0.07940 0.01130 0.48890 0.06200
C 	C 	0.08750 0.91420 0.49180 -0.11900
H 	H 	0.10130 0.87830 0.47600 0.08100
C 	C 	0.07490 0.86880 0.51860 0.07300
H 	H 	0.07980 0.80120 0.52040 -0.00700
C 	C 	0.09420 0.06380 0.46190 0.09200
C 	C 	0.09830 0.20080 0.43500 0.08400
C 	C 	0.13280 0.06600 0.41750 0.10700
C 	C 	0.08350 0.30290 0.43010 0.05900
C 	C 	0.05790 0.34990 0.45220 -0.13100
H 	H 	0.05120 0.31830 0.47050 0.09000
C 	C 	0.04260 0.44230 0.44730 0.07100
H 	H 	0.02530 0.47420 0.46260 -0.00500
C 	C 	0.07640 0.44410 0.40080 0.07900
H 	H 	0.08420 0.47780 0.38310 -0.00700
C 	C 	0.09180 0.35090 0.40390 -0.13400
H 	H 	0.10810 0.31970 0.38810 0.09900
C 	C 	0.15750 0.01390 0.39350 0.06200
C 	C 	0.18220 0.05860 0.37120 -0.12700
H 	H 	0.18440 0.12700 0.37080 0.08400
C 	C 	0.20330 0.00540 0.34990 0.07900
H 	H 	0.22140 0.03770 0.33510 -0.01700
C 	C 	0.17600 0.86420 0.36950 0.07700
H 	H 	0.17400 0.79580 0.36900 -0.00900
C 	C 	0.15380 0.91210 0.39200 -0.11600
H 	H 	0.13610 0.87770 0.40650 0.08400
C 	C 	0.31180 0.08320 0.76620 0.07900
H 	H 	0.33930 0.09890 0.77740 -0.01600
C 	C 	0.31770 0.05000 0.73740 -0.12600
H 	H 	0.34840 0.04390 0.72910 0.08300
C 	C 	0.27890 0.02610 0.72110 0.05500
C 	C 	0.23500 0.03280 0.73460 -0.10900
H 	H 	0.20750 0.01360 0.72400 0.08000
C 	C 	0.23110 0.06730 0.76330 0.05200
H 	H 	0.20070 0.07220 0.77220 0.00300
C 	C 	0.28230 0.99560 0.68930 0.10200
C 	C 	0.32440 0.95950 0.64840 0.10300
C 	C 	0.24550 0.95910 0.64650 0.10200
C 	C 	0.37030 0.94620 0.63320 0.05400
C 	C 	0.41250 0.95720 0.64840 -0.10900
H 	H 	0.41240 0.97690 0.66870 0.07800
C 	C 	0.45540 0.93900 0.63380 0.06300
H 	H 	0.48430 0.94650 0.64430 -0.00900
C 	C 	0.41640 0.90450 0.59060 0.07900
H 	H 	0.41740 0.88830 0.57010 -0.01200
C 	C 	0.37230 0.92010 0.60380 -0.11600
H 	H 	0.34410 0.91260 0.59260 0.08100
C 	C 	0.19960 0.94270 0.63020 0.05500
C 	C 	0.19960 0.91040 0.60100 -0.12400
H 	H 	0.22840 0.90110 0.59050 0.08000
C 	C 	0.15630 0.89220 0.58750 0.07800
H 	H 	0.15620 0.86970 0.56750 -0.01800
C 	C 	0.11590 0.93830 0.62950 0.05800
H 	H 	0.08660 0.94920 0.63930 -0.00800
C 	C 	0.15650 0.95690 0.64410 -0.11700
H 	H 	0.15550 0.97990 0.66400 0.07900
I 	I 	0.98726 0.94405 0.61115 -0.36200
I 	I 	0.06467 0.67486 0.57999 -0.38500
I 	I 	0.19388 0.66811 0.31070 -0.36900
I 	I 	0.32405 0.82465 0.33241 -0.37500
I 	I 	0.06877 0.70615 0.37324 -0.37000
I 	I 	0.00625 0.70073 0.46457 -0.39100
N 	N 	0.05670 0.91630 0.54130 -0.27700
N 	N 	0.08160 0.15630 0.45970 -0.14100
N 	N 	0.12510 0.15880 0.41330 -0.13100
N 	N 	0.11900 0.01410 0.44100 -0.13600
N 	N 	0.05110 0.49000 0.42140 -0.27400
N 	N 	0.20000 0.90880 0.34860 -0.27500
N 	N 	0.27030 0.09420 0.77890 -0.27400
N 	N 	0.32500 0.98390 0.67760 -0.13900
N 	N 	0.28620 0.94610 0.63220 -0.14100
N 	N 	0.24120 0.98340 0.67520 -0.14000
N 	N 	0.45660 0.91130 0.60520 -0.27100
N 	N 	0.11550 0.90450 0.60110 -0.27200
Zn	Zn	0.05230 0.85602 0.58300 1.16300
Zn	Zn	0.23722 0.82865 0.31753 1.16400
Zn	Zn	0.02115 0.62340 0.41355 1.16300
C 	C 	0.45290 0.99040 0.03790 0.07300
H 	H 	0.46750 0.95640 0.05380 -0.01500
C 	C 	0.44220 0.94090 0.01180 -0.12700
H 	H 	0.44980 0.87440 0.00990 0.09300
C 	C 	0.42060 0.98870 0.98890 0.05900
C 	C 	0.41250 0.08580 0.99180 -0.11900
H 	H 	0.39870 0.12170 0.97600 0.08000
C 	C 	0.42510 0.13120 0.01860 0.07100
H 	H 	0.42020 0.19880 0.02040 -0.00700
C 	C 	0.40580 0.93620 0.96190 0.09200
C 	C 	0.40170 0.79920 0.93500 0.08400
C 	C 	0.36720 0.93400 0.91750 0.10800
C 	C 	0.41650 0.69710 0.93010 0.05900
C 	C 	0.44210 0.65010 0.95220 -0.13100
H 	H 	0.44880 0.68170 0.97050 0.09000
C 	C 	0.45740 0.55770 0.94730 0.07100
H 	H 	0.47470 0.52580 0.96260 -0.00500
C 	C 	0.42360 0.55590 0.90080 0.07900
H 	H 	0.41580 0.52220 0.88310 -0.00700
C 	C 	0.40820 0.64910 0.90390 -0.13400
H 	H 	0.39190 0.68030 0.88810 0.09900
C 	C 	0.34250 0.98610 0.89350 0.06000
C 	C 	0.31780 0.94140 0.87120 -0.12600
H 	H 	0.31560 0.87300 0.87080 0.08300
C 	C 	0.29670 0.99460 0.84990 0.07800
H 	H 	0.27860 0.96230 0.83510 -0.01600
C 	C 	0.32400 0.13580 0.86950 0.07700
H 	H 	0.32600 0.20420 0.86900 -0.00900
C 	C 	0.34620 0.08790 0.89200 -0.11400
H 	H 	0.36390 0.12230 0.90650 0.08300
C 	C 	0.18820 0.91680 0.26620 0.07900
H 	H 	0.16070 0.90110 0.27740 -0.01600
C 	C 	0.18230 0.95000 0.23740 -0.12600
H 	H 	0.15160 0.95610 0.22910 0.08300
C 	C 	0.22110 0.97390 0.22110 0.05400
C 	C 	0.26500 0.96720 0.23460 -0.10900
H 	H 	0.29250 0.98640 0.22400 0.07900
C 	C 	0.26890 0.93270 0.26330 0.05200
H 	H 	0.29930 0.92780 0.27220 0.00300
C 	C 	0.21770 0.00440 0.18930 0.10300
C 	C 	0.17560 0.04050 0.14840 0.10300
C 	C 	0.25450 0.04090 0.14650 0.10300
C 	C 	0.12970 0.05380 0.13320 0.05400
C 	C 	0.08750 0.04280 0.14840 -0.10900
H 	H 	0.08760 0.02310 0.16870 0.07800
C 	C 	0.04460 0.06100 0.13380 0.06300
H 	H 	0.01570 0.05350 0.14430 -0.00900
C 	C 	0.08360 0.09550 0.09060 0.07900
H 	H 	0.08260 0.11170 0.07010 -0.01200
C 	C 	0.12770 0.07990 0.10380 -0.11600
H 	H 	0.15590 0.08740 0.09260 0.08100
C 	C 	0.30040 0.05730 0.13020 0.05500
C 	C 	0.30040 0.08960 0.10100 -0.12400
H 	H 	0.27160 0.09890 0.09050 0.08100
C 	C 	0.34370 0.10780 0.08750 0.07800
H 	H 	0.34380 0.13030 0.06750 -0.01800
C 	C 	0.38410 0.06170 0.12950 0.05800
H 	H 	0.41340 0.05080 0.13930 -0.00800
C 	C 	0.34350 0.04310 0.14410 -0.11700
H 	H 	0.34450 0.02010 0.16400 0.08000
I 	I 	0.51274 0.05595 0.11115 -0.36300
I 	I 	0.43533 0.32514 0.07999 -0.38500
I 	I 	0.30612 0.33189 0.81070 -0.36900
I 	I 	0.17595 0.17535 0.83241 -0.37500
I 	I 	0.43123 0.29385 0.87324 -0.37000
I 	I 	0.49375 0.29927 0.96457 -0.39100
N 	N 	0.44330 0.08370 0.04130 -0.27600
N 	N 	0.41840 0.84370 0.95970 -0.14100
N 	N 	0.37490 0.84120 0.91330 -0.13100
N 	N 	0.38100 0.98590 0.94100 -0.13600
N 	N 	0.44890 0.51000 0.92140 -0.27400
N 	N 	0.30000 0.09120 0.84860 -0.27400
N 	N 	0.22970 0.90580 0.27890 -0.27400
N 	N 	0.17500 0.01610 0.17760 -0.13900
N 	N 	0.21380 0.05390 0.13220 -0.14100
N 	N 	0.25880 0.01660 0.17520 -0.14000
N 	N 	0.04340 0.08870 0.10520 -0.27100
N 	N 	0.38450 0.09550 0.10110 -0.27200
Zn	Zn	0.44770 0.14398 0.08300 1.16300
Zn	Zn	0.26278 0.17135 0.81753 1.16400
Zn	Zn	0.47885 0.37660 0.91355 1.16300
C 	C 	0.95290 0.50960 0.96210 0.07400
H 	H 	0.96750 0.54360 0.94620 -0.01500
C 	C 	0.94220 0.55910 0.98820 -0.12700
H 	H 	0.94980 0.62560 0.99010 0.09300
C 	C 	0.92060 0.51130 0.01110 0.05900
C 	C 	0.91250 0.41420 0.00820 -0.11900
H 	H 	0.89870 0.37830 0.02400 0.08000
C 	C 	0.92510 0.36880 0.98140 0.07200
H 	H 	0.92020 0.30120 0.97960 -0.00700
C 	C 	0.90580 0.56380 0.03810 0.09200
C 	C 	0.90170 0.70080 0.06500 0.08400
C 	C 	0.86720 0.56600 0.08250 0.10700
C 	C 	0.91650 0.80290 0.06990 0.05900
C 	C 	0.94210 0.84990 0.04780 -0.13100
H 	H 	0.94880 0.81830 0.02950 0.09000
C 	C 	0.95740 0.94230 0.05270 0.07100
H 	H 	0.97470 0.97420 0.03740 -0.00500
C 	C 	0.92360 0.94410 0.09920 0.07900
H 	H 	0.91580 0.97780 0.11690 -0.00700
C 	C 	0.90820 0.85090 0.09610 -0.13400
H 	H 	0.89190 0.81970 0.11190 0.09900
C 	C 	0.84250 0.51390 0.10650 0.06100
C 	C 	0.81780 0.55860 0.12880 -0.12700
H 	H 	0.81560 0.62700 0.12920 0.08300
C 	C 	0.79670 0.50540 0.15010 0.07900
H 	H 	0.77860 0.53770 0.16490 -0.01700
C 	C 	0.82400 0.36420 0.13050 0.07700
H 	H 	0.82600 0.29580 0.13100 -0.00900
C 	C 	0.84620 0.41210 0.10800 -0.11500
H 	H 	0.86390 0.37770 0.09350 0.08400
C 	C 	0.68820 0.58320 0.73380 0.07900
H 	H 	0.66070 0.59890 0.72260 -0.01600
C 	C 	0.68230 0.55000 0.76260 -0.12600
H 	H 	0.65160 0.54390 0.77090 0.08300
C 	C 	0.72110 0.52610 0.77890 0.05400
C 	C 	0.76500 0.53280 0.76540 -0.10900
H 	H 	0.79250 0.51360 0.77600 0.07900
C 	C 	0.76890 0.56730 0.73670 0.05200
H 	H 	0.79930 0.57220 0.72780 0.00300
C 	C 	0.71770 0.49560 0.81070 0.10300
C 	C 	0.67560 0.45950 0.85160 0.10300
C 	C 	0.75450 0.45910 0.85350 0.10300
C 	C 	0.62970 0.44620 0.86680 0.05400
C 	C 	0.58750 0.45720 0.85160 -0.10900
H 	H 	0.58760 0.47690 0.83130 0.07800
C 	C 	0.54460 0.43900 0.86620 0.06300
H 	H 	0.51570 0.44650 0.85570 -0.00900
C 	C 	0.58360 0.40450 0.90940 0.07900
H 	H 	0.58260 0.38830 0.92990 -0.01200
C 	C 	0.62770 0.42010 0.89620 -0.11600
H 	H 	0.65590 0.41260 0.90740 0.08100
C 	C 	0.80040 0.44270 0.86980 0.05500
C 	C 	0.80040 0.41040 0.89900 -0.12400
H 	H 	0.77160 0.40110 0.90950 0.08100
C 	C 	0.84370 0.39220 0.91250 0.07800
H 	H 	0.84380 0.36970 0.93250 -0.01800
C 	C 	0.88410 0.43830 0.87050 0.05800
H 	H 	0.91340 0.44920 0.86070 -0.00800
C 	C 	0.84350 0.45690 0.85590 -0.11700
H 	H 	0.84450 0.47990 0.83600 0.08000
I 	I 	0.01274 0.44405 0.88885 -0.36200
I 	I 	0.93533 0.17486 0.92001 -0.38500
I 	I 	0.80612 0.16811 0.18930 -0.37000
I 	I 	0.67595 0.32465 0.16759 -0.37500
I 	I 	0.93123 0.20615 0.12676 -0.37000
I 	I 	0.99375 0.20073 0.03543 -0.39100
N 	N 	0.94330 0.41630 0.95870 -0.27700
N 	N 	0.91840 0.65630 0.04030 -0.14100
N 	N 	0.87490 0.65880 0.08670 -0.13100
N 	N 	0.88100 0.51410 0.05900 -0.13600
N 	N 	0.94890 0.99000 0.07860 -0.27300
N 	N 	0.80000 0.40880 0.15140 -0.27500
N 	N 	0.72970 0.59420 0.72110 -0.27400
N 	N 	0.67500 0.48390 0.82240 -0.13900
N 	N 	0.71380 0.44610 0.86780 -0.14100
N 	N 	0.75880 0.48340 0.82480 -0.14000
N 	N 	0.54340 0.41130 0.89480 -0.27100
N 	N 	0.88450 0.40450 0.89890 -0.27200
Zn	Zn	0.94770 0.35602 0.91700 1.16300
Zn	Zn	0.76278 0.32865 0.18247 1.16400
Zn	Zn	0.97885 0.12340 0.08645 1.16300
C 	C 	0.54710 0.49040 0.46210 0.07400
H 	H 	0.53250 0.45640 0.44620 -0.01500
C 	C 	0.55780 0.44090 0.48820 -0.12700
H 	H 	0.55020 0.37440 0.49010 0.09300
C 	C 	0.57940 0.48870 0.51110 0.05900
C 	C 	0.58750 0.58580 0.50820 -0.11900
H 	H 	0.60130 0.62170 0.52400 0.08000
C 	C 	0.57490 0.63120 0.48140 0.07200
H 	H 	0.57980 0.69880 0.47960 -0.00700
C 	C 	0.59420 0.43620 0.53810 0.09200
C 	C 	0.59830 0.29920 0.56500 0.08400
C 	C 	0.63280 0.43400 0.58250 0.10700
C 	C 	0.58350 0.19710 0.56990 0.05900
C 	C 	0.55790 0.15010 0.54780 -0.13100
H 	H 	0.55120 0.18170 0.52950 0.09000
C 	C 	0.54260 0.05770 0.55270 0.07100
H 	H 	0.52530 0.02580 0.53740 -0.00500
C 	C 	0.57640 0.05590 0.59920 0.07900
H 	H 	0.58420 0.02220 0.61690 -0.00700
C 	C 	0.59180 0.14910 0.59610 -0.13400
H 	H 	0.60810 0.18030 0.61190 0.09900
C 	C 	0.65750 0.48610 0.60650 0.06100
C 	C 	0.68220 0.44140 0.62880 -0.12700
H 	H 	0.68440 0.37300 0.62920 0.08300
C 	C 	0.70330 0.49460 0.65010 0.07900
H 	H 	0.72140 0.46230 0.66490 -0.01700
C 	C 	0.67600 0.63580 0.63050 0.07700
H 	H 	0.67400 0.70420 0.63100 -0.00900
C 	C 	0.65380 0.58790 0.60800 -0.11500
H 	H 	0.63610 0.62230 0.59350 0.08400
C 	C 	0.81180 0.41680 0.23380 0.07900
H 	H 	0.83930 0.40110 0.22260 -0.01600
C 	C 	0.81770 0.45000 0.26260 -0.12600
H 	H 	0.84840 0.45610 0.27090 0.08300
C 	C 	0.77890 0.47390 0.27890 0.05400
C 	C 	0.73500 0.46720 0.26540 -0.10900
H 	H 	0.70750 0.48640 0.27600 0.07900
C 	C 	0.73110 0.43270 0.23670 0.05200
H 	H 	0.70070 0.42780 0.22780 0.00300
C 	C 	0.78230 0.50440 0.31070 0.10300
C 	C 	0.82440 0.54050 0.35160 0.10300
C 	C 	0.74550 0.54090 0.35350 0.10300
C 	C 	0.87030 0.55380 0.36680 0.05400
C 	C 	0.91250 0.54280 0.35160 -0.10900
H 	H 	0.91240 0.52310 0.33130 0.07800
C 	C 	0.95540 0.56100 0.36620 0.06300
H 	H 	0.98430 0.55350 0.35570 -0.00900
C 	C 	0.91640 0.59550 0.40940 0.07900
H 	H 	0.91740 0.61170 0.42990 -0.01200
C 	C 	0.87230 0.57990 0.39620 -0.11600
H 	H 	0.84410 0.58740 0.40740 0.08100
C 	C 	0.69960 0.55730 0.36980 0.05500
C 	C 	0.69960 0.58960 0.39900 -0.12400
H 	H 	0.72840 0.59890 0.40950 0.08100
C 	C 	0.65630 0.60780 0.41250 0.07800
H 	H 	0.65620 0.63030 0.43250 -0.01800
C 	C 	0.61590 0.56170 0.37050 0.05800
H 	H 	0.58660 0.55080 0.36070 -0.00800
C 	C 	0.65650 0.54310 0.35590 -0.11700
H 	H 	0.65550 0.52010 0.33600 0.08000
I 	I 	0.48726 0.55595 0.38885 -0.36200
I 	I 	0.56467 0.82514 0.42001 -0.38500
I 	I 	0.69388 0.83189 0.68930 -0.36900
I 	I 	0.82405 0.67535 0.66759 -0.37500
I 	I 	0.56877 0.79385 0.62676 -0.37000
I 	I 	0.50625 0.79927 0.53543 -0.39100
N 	N 	0.55670 0.58370 0.45870 -0.27700
N 	N 	0.58160 0.34370 0.54030 -0.14100
N 	N 	0.62510 0.34120 0.58670 -0.13100
N 	N 	0.61900 0.48590 0.55900 -0.13600
N 	N 	0.55110 0.01000 0.57860 -0.27400
N 	N 	0.70000 0.59120 0.65140 -0.27500
N 	N 	0.77030 0.40580 0.22110 -0.27400
N 	N 	0.82500 0.51610 0.32240 -0.13900
N 	N 	0.78620 0.55390 0.36780 -0.14100
N 	N 	0.74120 0.51660 0.32480 -0.14000
N 	N 	0.95660 0.58870 0.39480 -0.27100
N 	N 	0.61550 0.59550 0.39890 -0.27200
Zn	Zn	0.55230 0.64398 0.41700 1.16300
Zn	Zn	0.73722 0.67135 0.68247 1.16400
Zn	Zn	0.52115 0.87660 0.58645 1.16300
C 	C 	0.95290 0.99040 0.46210 0.07500
H 	H 	0.96750 0.95640 0.44620 -0.01500
C 	C 	0.94220 0.94090 0.48820 -0.12800
H 	H 	0.94980 0.87440 0.49010 0.09300
C 	C 	0.92060 0.98870 0.51110 0.06100
C 	C 	0.91250 0.08580 0.50820 -0.12000
H 	H 	0.89870 0.12170 0.52400 0.08000
C 	C 	0.92510 0.13120 0.48140 0.07200
H 	H 	0.92020 0.19880 0.47960 -0.00700
C 	C 	0.90580 0.93620 0.53810 0.09200
C 	C 	0.90170 0.79920 0.56500 0.08400
C 	C 	0.86720 0.93400 0.58250 0.10700
C 	C 	0.91650 0.69710 0.56990 0.05900
C 	C 	0.94210 0.65010 0.54780 -0.13100
H 	H 	0.94880 0.68170 0.52950 0.09000
C 	C 	0.95740 0.55770 0.55270 0.07100
H 	H 	0.97470 0.52580 0.53740 -0.00500
C 	C 	0.92360 0.55590 0.59920 0.07900
H 	H 	0.91580 0.52220 0.61690 -0.00700
C 	C 	0.90820 0.64910 0.59610 -0.13400
H 	H 	0.89190 0.68030 0.61190 0.09900
C 	C 	0.84250 0.98610 0.60650 0.06200
C 	C 	0.81780 0.94140 0.62880 -0.12700
H 	H 	0.81560 0.87300 0.62920 0.08400
C 	C 	0.79670 0.99460 0.65010 0.07900
H 	H 	0.77860 0.96230 0.66490 -0.01700
C 	C 	0.82400 0.13580 0.63050 0.07700
H 	H 	0.82600 0.20420 0.63100 -0.00900
C 	C 	0.84620 0.08790 0.60800 -0.11600
H 	H 	0.86390 0.12230 0.59350 0.08400
C 	C 	0.68820 0.91680 0.23380 0.07900
H 	H 	0.66070 0.90110 0.22260 -0.01600
C 	C 	0.68230 0.95000 0.26260 -0.12600
H 	H 	0.65160 0.95610 0.27090 0.08300
C 	C 	0.72110 0.97390 0.27890 0.05500
C 	C 	0.76500 0.96720 0.26540 -0.10900
H 	H 	0.79250 0.98640 0.27600 0.08000
C 	C 	0.76890 0.93270 0.23670 0.05200
H 	H 	0.79930 0.92780 0.22780 0.00300
C 	C 	0.71770 0.00440 0.31070 0.10200
C 	C 	0.67560 0.04050 0.35160 0.10300
C 	C 	0.75450 0.04090 0.35350 0.10200
C 	C 	0.62970 0.05380 0.36680 0.05400
C 	C 	0.58750 0.04280 0.35160 -0.10900
H 	H 	0.58760 0.02310 0.33130 0.07800
C 	C 	0.54460 0.06100 0.36620 0.06300
H 	H 	0.51570 0.05350 0.35570 -0.00900
C 	C 	0.58360 0.09550 0.40940 0.07900
H 	H 	0.58260 0.11170 0.42990 -0.01200
C 	C 	0.62770 0.07990 0.39620 -0.11600
H 	H 	0.65590 0.08740 0.40740 0.08100
C 	C 	0.80040 0.05730 0.36980 0.05500
C 	C 	0.80040 0.08960 0.39900 -0.12400
H 	H 	0.77160 0.09890 0.40950 0.08000
C 	C 	0.84370 0.10780 0.41250 0.07800
H 	H 	0.84380 0.13030 0.43250 -0.01800
C 	C 	0.88410 0.06170 0.37050 0.05800
H 	H 	0.91340 0.05080 0.36070 -0.00800
C 	C 	0.84350 0.04310 0.35590 -0.11700
H 	H 	0.84450 0.02010 0.33600 0.07900
I 	I 	0.01274 0.05595 0.38885 -0.36200
I 	I 	0.93533 0.32514 0.42001 -0.38500
I 	I 	0.80612 0.33189 0.68930 -0.36900
I 	I 	0.67595 0.17535 0.66759 -0.37500
I 	I 	0.93123 0.29385 0.62676 -0.37000
I 	I 	0.99375 0.29927 0.53543 -0.39100
N 	N 	0.94330 0.08370 0.45870 -0.27700
N 	N 	0.91840 0.84370 0.54030 -0.14100
N 	N 	0.87490 0.84120 0.58670 -0.13100
N 	N 	0.88100 0.98590 0.55900 -0.13600
N 	N 	0.94890 0.51000 0.57860 -0.27400
N 	N 	0.80000 0.09120 0.65140 -0.27500
N 	N 	0.72970 0.90580 0.22110 -0.27400
N 	N 	0.67500 0.01610 0.32240 -0.13900
N 	N 	0.71380 0.05390 0.36780 -0.14100
N 	N 	0.75880 0.01660 0.32480 -0.14000
N 	N 	0.54340 0.08870 0.39480 -0.27100
N 	N 	0.88450 0.09550 0.39890 -0.27200
Zn	Zn	0.94770 0.14398 0.41700 1.16300
Zn	Zn	0.76278 0.17135 0.68247 1.16400
Zn	Zn	0.97885 0.37660 0.58645 1.16300
C 	C 	0.54710 0.00960 0.96210 0.07300
H 	H 	0.53250 0.04360 0.94620 -0.01500
C 	C 	0.55780 0.05910 0.98820 -0.12700
H 	H 	0.55020 0.12560 0.99010 0.09300
C 	C 	0.57940 0.01130 0.01110 0.05900
C 	C 	0.58750 0.91420 0.00820 -0.11900
H 	H 	0.60130 0.87830 0.02400 0.08000
C 	C 	0.57490 0.86880 0.98140 0.07100
H 	H 	0.57980 0.80120 0.97960 -0.00700
C 	C 	0.59420 0.06380 0.03810 0.09200
C 	C 	0.59830 0.20080 0.06500 0.08400
C 	C 	0.63280 0.06600 0.08250 0.10800
C 	C 	0.58350 0.30290 0.06990 0.05900
C 	C 	0.55790 0.34990 0.04780 -0.13100
H 	H 	0.55120 0.31830 0.02950 0.09000
C 	C 	0.54260 0.44230 0.05270 0.07100
H 	H 	0.52530 0.47420 0.03740 -0.00500
C 	C 	0.57640 0.44410 0.09920 0.07900
H 	H 	0.58420 0.47780 0.11690 -0.00700
C 	C 	0.59180 0.35090 0.09610 -0.13400
H 	H 	0.60810 0.31970 0.11190 0.09900
C 	C 	0.65750 0.01390 0.10650 0.06000
C 	C 	0.68220 0.05860 0.12880 -0.12600
H 	H 	0.68440 0.12700 0.12920 0.08300
C 	C 	0.70330 0.00540 0.15010 0.07800
H 	H 	0.72140 0.03770 0.16490 -0.01600
C 	C 	0.67600 0.86420 0.13050 0.07700
H 	H 	0.67400 0.79580 0.13100 -0.00900
C 	C 	0.65380 0.91210 0.10800 -0.11400
H 	H 	0.63610 0.87770 0.09350 0.08300
C 	C 	0.81180 0.08320 0.73380 0.07900
H 	H 	0.83930 0.09890 0.72260 -0.01600
C 	C 	0.81770 0.05000 0.76260 -0.12600
H 	H 	0.84840 0.04390 0.77090 0.08300
C 	C 	0.77890 0.02610 0.77890 0.05400
C 	C 	0.73500 0.03280 0.76540 -0.10900
H 	H 	0.70750 0.01360 0.77600 0.07900
C 	C 	0.73110 0.06730 0.73670 0.05200
H 	H 	0.70070 0.07220 0.72780 0.00300
C 	C 	0.78230 0.99560 0.81070 0.10300
C 	C 	0.82440 0.95950 0.85160 0.10300
C 	C 	0.74550 0.95910 0.85350 0.10300
C 	C 	0.87030 0.94620 0.86680 0.05400
C 	C 	0.91250 0.95720 0.85160 -0.10900
H 	H 	0.91240 0.97690 0.83130 0.07800
C 	C 	0.95540 0.93900 0.86620 0.06300
H 	H 	0.98430 0.94650 0.85570 -0.00900
C 	C 	0.91640 0.90450 0.90940 0.07900
H 	H 	0.91740 0.88830 0.92990 -0.01200
C 	C 	0.87230 0.92010 0.89620 -0.11600
H 	H 	0.84410 0.91260 0.90740 0.08100
C 	C 	0.69960 0.94270 0.86980 0.05500
C 	C 	0.69960 0.91040 0.89900 -0.12400
H 	H 	0.72840 0.90110 0.90950 0.08100
C 	C 	0.65630 0.89220 0.91250 0.07800
H 	H 	0.65620 0.86970 0.93250 -0.01800
C 	C 	0.61590 0.93830 0.87050 0.05800
H 	H 	0.58660 0.94920 0.86070 -0.00800
C 	C 	0.65650 0.95690 0.85590 -0.11700
H 	H 	0.65550 0.97990 0.83600 0.08000
I 	I 	0.48726 0.94405 0.88885 -0.36300
I 	I 	0.56467 0.67486 0.92001 -0.38500
I 	I 	0.69388 0.66811 0.18930 -0.36900
I 	I 	0.82405 0.82465 0.16759 -0.37500
I 	I 	0.56877 0.70615 0.12676 -0.37000
I 	I 	0.50625 0.70073 0.03543 -0.39100
N 	N 	0.55670 0.91630 0.95870 -0.27600
N 	N 	0.58160 0.15630 0.04030 -0.14100
N 	N 	0.62510 0.15880 0.08670 -0.13100
N 	N 	0.61900 0.01410 0.05900 -0.13600
N 	N 	0.55110 0.49000 0.07860 -0.27400
N 	N 	0.70000 0.90880 0.15140 -0.27400
N 	N 	0.77030 0.09420 0.72110 -0.27400
N 	N 	0.82500 0.98390 0.82240 -0.13900
N 	N 	0.78620 0.94610 0.86780 -0.14100
N 	N 	0.74120 0.98340 0.82480 -0.14000
N 	N 	0.95660 0.91130 0.89480 -0.27100
N 	N 	0.61550 0.90450 0.89890 -0.27200
Zn	Zn	0.55230 0.85602 0.91700 1.16300
Zn	Zn	0.73722 0.82865 0.18247 1.16400
Zn	Zn	0.52115 0.62340 0.08645 1.16300
C 	C 	0.04710 0.49040 0.03790 0.07400
H 	H 	0.03250 0.45640 0.05380 -0.01500
C 	C 	0.05780 0.44090 0.01180 -0.12700
H 	H 	0.05020 0.37440 0.00990 0.09300
C 	C 	0.07940 0.48870 0.98890 0.05900
C 	C 	0.08750 0.58580 0.99180 -0.11900
H 	H 	0.10130 0.62170 0.97600 0.08000
C 	C 	0.07490 0.63120 0.01860 0.07200
H 	H 	0.07980 0.69880 0.02040 -0.00700
C 	C 	0.09420 0.43620 0.96190 0.09200
C 	C 	0.09830 0.29920 0.93500 0.08400
C 	C 	0.13280 0.43400 0.91750 0.10700
C 	C 	0.08350 0.19710 0.93010 0.05900
C 	C 	0.05790 0.15010 0.95220 -0.13100
H 	H 	0.05120 0.18170 0.97050 0.09000
C 	C 	0.04260 0.05770 0.94730 0.07100
H 	H 	0.02530 0.02580 0.96260 -0.00500
C 	C 	0.07640 0.05590 0.90080 0.07900
H 	H 	0.08420 0.02220 0.88310 -0.00700
C 	C 	0.09180 0.14910 0.90390 -0.13400
H 	H 	0.10810 0.18030 0.88810 0.09900
C 	C 	0.15750 0.48610 0.89350 0.06100
C 	C 	0.18220 0.44140 0.87120 -0.12700
H 	H 	0.18440 0.37300 0.87080 0.08300
C 	C 	0.20330 0.49460 0.84990 0.07900
H 	H 	0.22140 0.46230 0.83510 -0.01700
C 	C 	0.17600 0.63580 0.86950 0.07700
H 	H 	0.17400 0.70420 0.86900 -0.00900
C 	C 	0.15380 0.58790 0.89200 -0.11500
H 	H 	0.13610 0.62230 0.90650 0.08400
C 	C 	0.31180 0.41680 0.26620 0.07900
H 	H 	0.33930 0.40110 0.27740 -0.01600
C 	C 	0.31770 0.45000 0.23740 -0.12600
H 	H 	0.34840 0.45610 0.22910 0.08300
C 	C 	0.27890 0.47390 0.22110 0.05400
C 	C 	0.23500 0.46720 0.23460 -0.10900
H 	H 	0.20750 0.48640 0.22400 0.07900
C 	C 	0.23110 0.43270 0.26330 0.05200
H 	H 	0.20070 0.42780 0.27220 0.00300
C 	C 	0.28230 0.50440 0.18930 0.10300
C 	C 	0.32440 0.54050 0.14840 0.10300
C 	C 	0.24550 0.54090 0.14650 0.10300
C 	C 	0.37030 0.55380 0.13320 0.05400
C 	C 	0.41250 0.54280 0.14840 -0.10900
H 	H 	0.41240 0.52310 0.16870 0.07800
C 	C 	0.45540 0.56100 0.13380 0.06300
H 	H 	0.48430 0.55350 0.14430 -0.00900
C 	C 	0.41640 0.59550 0.09060 0.07900
H 	H 	0.41740 0.61170 0.07010 -0.01200
C 	C 	0.37230 0.57990 0.10380 -0.11600
H 	H 	0.34410 0.58740 0.09260 0.08100
C 	C 	0.19960 0.55730 0.13020 0.05500
C 	C 	0.19960 0.58960 0.10100 -0.12400
H 	H 	0.22840 0.59890 0.09050 0.08100
C 	C 	0.15630 0.60780 0.08750 0.07800
H 	H 	0.15620 0.63030 0.06750 -0.01800
C 	C 	0.11590 0.56170 0.12950 0.05800
H 	H 	0.08660 0.55080 0.13930 -0.00800
C 	C 	0.15650 0.54310 0.14410 -0.11700
H 	H 	0.15550 0.52010 0.16400 0.08000
I 	I 	0.98726 0.55595 0.11115 -0.36200
I 	I 	0.06467 0.82514 0.07999 -0.38500
I 	I 	0.19388 0.83189 0.81070 -0.37000
I 	I 	0.32405 0.67535 0.83241 -0.37500
I 	I 	0.06877 0.79385 0.87324 -0.37000
I 	I 	0.00625 0.79927 0.96457 -0.39100
N 	N 	0.05670 0.58370 0.04130 -0.27700
N 	N 	0.08160 0.34370 0.95970 -0.14100
N 	N 	0.12510 0.34120 0.91330 -0.13100
N 	N 	0.11900 0.48590 0.94100 -0.13600
N 	N 	0.05110 0.01000 0.92140 -0.27300
N 	N 	0.20000 0.59120 0.84860 -0.27500
N 	N 	0.27030 0.40580 0.27890 -0.27400
N 	N 	0.32500 0.51610 0.17760 -0.13900
N 	N 	0.28620 0.55390 0.13220 -0.14100
N 	N 	0.24120 0.51660 0.17520 -0.14000
N 	N 	0.45660 0.58870 0.10520 -0.27100
N 	N 	0.11550 0.59550 0.10110 -0.27200
Zn	Zn	0.05230 0.64398 0.08300 1.16300
Zn	Zn	0.23722 0.67135 0.81753 1.16400
Zn	Zn	0.02115 0.87660 0.91355 1.16300
C 	C 	0.45290 0.50960 0.53790 0.07400
H 	H 	0.46750 0.54360 0.55380 -0.01500
C 	C 	0.44220 0.55910 0.51180 -0.12700
H 	H 	0.44980 0.62560 0.50990 0.09300
C 	C 	0.42060 0.51130 0.48890 0.05900
C 	C 	0.41250 0.41420 0.49180 -0.11900
H 	H 	0.39870 0.37830 0.47600 0.08000
C 	C 	0.42510 0.36880 0.51860 0.07200
H 	H 	0.42020 0.30120 0.52040 -0.00700
C 	C 	0.40580 0.56380 0.46190 0.09200
C 	C 	0.40170 0.70080 0.43500 0.08400
C 	C 	0.36720 0.56600 0.41750 0.10700
C 	C 	0.41650 0.80290 0.43010 0.05900
C 	C 	0.44210 0.84990 0.45220 -0.13100
H 	H 	0.44880 0.81830 0.47050 0.09000
C 	C 	0.45740 0.94230 0.44730 0.07100
H 	H 	0.47470 0.97420 0.46260 -0.00500
C 	C 	0.42360 0.94410 0.40080 0.07900
H 	H 	0.41580 0.97780 0.38310 -0.00700
C 	C 	0.40820 0.85090 0.40390 -0.13400
H 	H 	0.39190 0.81970 0.38810 0.09900
C 	C 	0.34250 0.51390 0.39350 0.06100
C 	C 	0.31780 0.55860 0.37120 -0.12700
H 	H 	0.31560 0.62700 0.37080 0.08300
C 	C 	0.29670 0.50540 0.34990 0.07900
H 	H 	0.27860 0.53770 0.33510 -0.01700
C 	C 	0.32400 0.36420 0.36950 0.07700
H 	H 	0.32600 0.29580 0.36900 -0.00900
C 	C 	0.34620 0.41210 0.39200 -0.11500
H 	H 	0.36390 0.37770 0.40650 0.08400
C 	C 	0.18820 0.58320 0.76620 0.07900
H 	H 	0.16070 0.59890 0.77740 -0.01600
C 	C 	0.18230 0.55000 0.73740 -0.12600
H 	H 	0.15160 0.54390 0.72910 0.08300
C 	C 	0.22110 0.52610 0.72110 0.05400
C 	C 	0.26500 0.53280 0.73460 -0.10900
H 	H 	0.29250 0.51360 0.72400 0.07900
C 	C 	0.26890 0.56730 0.76330 0.05200
H 	H 	0.29930 0.57220 0.77220 0.00300
C 	C 	0.21770 0.49560 0.68930 0.10300
C 	C 	0.17560 0.45950 0.64840 0.10300
C 	C 	0.25450 0.45910 0.64650 0.10300
C 	C 	0.12970 0.44620 0.63320 0.05400
C 	C 	0.08750 0.45720 0.64840 -0.10900
H 	H 	0.08760 0.47690 0.66870 0.07800
C 	C 	0.04460 0.43900 0.63380 0.06300
H 	H 	0.01570 0.44650 0.64430 -0.00900
C 	C 	0.08360 0.40450 0.59060 0.07900
H 	H 	0.08260 0.38830 0.57010 -0.01200
C 	C 	0.12770 0.42010 0.60380 -0.11600
H 	H 	0.15590 0.41260 0.59260 0.08100
C 	C 	0.30040 0.44270 0.63020 0.05500
C 	C 	0.30040 0.41040 0.60100 -0.12400
H 	H 	0.27160 0.40110 0.59050 0.08100
C 	C 	0.34370 0.39220 0.58750 0.07800
H 	H 	0.34380 0.36970 0.56750 -0.01800
C 	C 	0.38410 0.43830 0.62950 0.05800
H 	H 	0.41340 0.44920 0.63930 -0.00800
C 	C 	0.34350 0.45690 0.64410 -0.11700
H 	H 	0.34450 0.47990 0.66400 0.08000
I 	I 	0.51274 0.44405 0.61115 -0.36200
I 	I 	0.43533 0.17486 0.57999 -0.38500
I 	I 	0.30612 0.16811 0.31070 -0.36900
I 	I 	0.17595 0.32465 0.33241 -0.37500
I 	I 	0.43123 0.20615 0.37324 -0.37000
I 	I 	0.49375 0.20073 0.46457 -0.39100
N 	N 	0.44330 0.41630 0.54130 -0.27700
N 	N 	0.41840 0.65630 0.45970 -0.14100
N 	N 	0.37490 0.65880 0.41330 -0.13100
N 	N 	0.38100 0.51410 0.44100 -0.13600
N 	N 	0.44890 0.99000 0.42140 -0.27400
N 	N 	0.30000 0.40880 0.34860 -0.27500
N 	N 	0.22970 0.59420 0.77890 -0.27400
N 	N 	0.17500 0.48390 0.67760 -0.13900
N 	N 	0.21380 0.44610 0.63220 -0.14100
N 	N 	0.25880 0.48340 0.67520 -0.14000
N 	N 	0.04340 0.41130 0.60520 -0.27100
N 	N 	0.38450 0.40450 0.60110 -0.27200
Zn	Zn	0.44770 0.35602 0.58300 1.16300
Zn	Zn	0.26278 0.32865 0.31753 1.16400
Zn	Zn	0.47885 0.12340 0.41355 1.16300
