data_crystal

_cell_length_a 27.86500
_cell_length_b 13.71170
_cell_length_c 45.65000
_cell_angle_alpha 90.00000
_cell_angle_beta  90.00000
_cell_angle_gamma 90.00000

_symmetry_space_group_name_	'P 1'
_symmetry_space_group_name_H-M	'P 1'

loop_
_symmetry_equiv_pos_as_xyz
  x,y,z

loop_
_atom_site_label
_atom_site_type_symbol
_atom_site_fract_x
_atom_site_fract_y
_atom_site_fract_z
_atom_site_charge
C 	C 	0.05530 0.00510 0.53150 0.07500
H 	H 	0.03760 0.03440 0.54690 -0.01100
C 	C 	0.06680 0.06170 0.50740 -0.12500
H 	H 	0.05650 0.12760 0.50620 0.09100
C 	C 	0.09370 0.02050 0.48520 0.05700
C 	C 	0.10590 0.92340 0.48760 -0.11700
H 	H 	0.12370 0.89250 0.47250 0.07900
C 	C 	0.09220 0.87120 0.51220 0.07000
H 	H 	0.10070 0.80430 0.51350 -0.00700
C 	C 	0.10800 0.07790 0.45900 0.10000
C 	C 	0.10830 0.21790 0.43340 0.10000
C 	C 	0.14110 0.08320 0.41380 0.10800
C 	C 	0.09240 0.32220 0.42980 0.05900
C 	C 	0.06690 0.36670 0.45170 -0.13100
H 	H 	0.06090 0.33430 0.46970 0.08800
C 	C 	0.04980 0.46120 0.44670 0.07400
H 	H 	0.03260 0.49320 0.46190 -0.00600
C 	C 	0.08150 0.46320 0.40050 0.07100
H 	H 	0.08660 0.49660 0.38260 -0.00600
C 	C 	0.10010 0.36990 0.40370 -0.12600
H 	H 	0.11770 0.33990 0.38830 0.09700
C 	C 	0.16340 0.03130 0.38900 0.06200
C 	C 	0.18510 0.07900 0.36600 -0.12100
H 	H 	0.18590 0.14830 0.36560 0.08000
C 	C 	0.20550 0.02780 0.34370 0.07300
H 	H 	0.22010 0.06270 0.32800 -0.01400
C 	C 	0.18420 0.88250 0.36450 0.06600
H 	H 	0.18300 0.81330 0.36410 -0.00800
C 	C 	0.16300 0.93250 0.38810 -0.11100
H 	H 	0.14820 0.89670 0.40350 0.08200
C 	C 	0.30870 0.06160 0.76250 0.07900
H 	H 	0.33600 0.07930 0.77370 -0.01500
C 	C 	0.31610 0.02740 0.73420 -0.12600
H 	H 	0.34760 0.02230 0.72630 0.08300
C 	C 	0.27660 0.00130 0.71820 0.05700
C 	C 	0.23210 0.00560 0.73080 -0.11300
H 	H 	0.20460 0.98490 0.72020 0.08100
C 	C 	0.22770 0.04070 0.75940 0.05800
H 	H 	0.19690 0.04340 0.76830 0.00100
C 	C 	0.28130 0.97030 0.68670 0.10100
C 	C 	0.32650 0.93580 0.64710 0.10500
C 	C 	0.24510 0.93290 0.64396 0.10500
C 	C 	0.37360 0.92350 0.63280 0.04900
C 	C 	0.41560 0.92920 0.64840 -0.11100
H 	H 	0.41520 0.94380 0.66880 0.07800
C 	C 	0.45900 0.91330 0.63380 0.06300
H 	H 	0.48800 0.91730 0.64470 -0.00600
C 	C 	0.42100 0.88860 0.59020 0.06900
H 	H 	0.42250 0.87520 0.56980 -0.00700
C 	C 	0.37620 0.90320 0.60290 -0.11000
H 	H 	0.34780 0.89940 0.59140 0.08000
C 	C 	0.20170 0.91610 0.62670 0.04700
C 	C 	0.20410 0.88540 0.59750 -0.11700
H 	H 	0.23410 0.87760 0.58790 0.07900
C 	C 	0.16150 0.86700 0.58310 0.07300
H 	H 	0.16300 0.84470 0.56340 -0.01600
C 	C 	0.11640 0.91190 0.62270 0.06000
H 	H 	0.08580 0.92390 0.63110 -0.00700
C 	C 	0.15650 0.92960 0.63930 -0.11200
H 	H 	0.15360 0.95070 0.65910 0.07800
I 	I 	0.98845 0.91799 0.60026 -0.36600
I 	I 	0.07129 0.65610 0.56378 -0.38000
I 	I 	0.19586 0.69184 0.30449 -0.37100
I 	I 	0.33090 0.84346 0.32608 -0.37500
I 	I 	0.07341 0.72880 0.37407 -0.36600
I 	I 	0.00899 0.71916 0.46423 -0.39300
N 	N 	0.06760 0.91140 0.53413 -0.27400
N 	N 	0.09600 0.17190 0.45777 -0.14300
N 	N 	0.13190 0.17870 0.41068 -0.13300
N 	N 	0.13010 0.02960 0.43711 -0.13700
N 	N 	0.05680 0.50790 0.42161 -0.27500
N 	N 	0.20590 0.92910 0.34281 -0.27700
N 	N 	0.26630 0.07090 0.77457 -0.27400
N 	N 	0.32560 0.96060 0.67544 -0.13900
N 	N 	0.28780 0.92090 0.63077 -0.14000
N 	N 	0.24050 0.95750 0.67194 -0.14000
N 	N 	0.46180 0.89250 0.60513 -0.27100
N 	N 	0.11850 0.87860 0.59512 -0.27100
Zn	Zn	0.05678 0.83735 0.57289 1.16300
Zn	Zn	0.24251 0.85001 0.31245 1.16500
Zn	Zn	0.02628 0.64309 0.41430 1.16300
C 	C 	0.44470 0.99490 0.03150 0.07300
H 	H 	0.46240 0.96560 0.04690 -0.01200
C 	C 	0.43320 0.93830 0.00740 -0.12500
H 	H 	0.44350 0.87240 0.00620 0.09000
C 	C 	0.40630 0.97950 0.98520 0.05400
C 	C 	0.39410 0.07660 0.98760 -0.11600
H 	H 	0.37630 0.10750 0.97250 0.07700
C 	C 	0.40780 0.12880 0.01220 0.06900
H 	H 	0.39930 0.19570 0.01350 -0.00800
C 	C 	0.39200 0.92210 0.95900 0.09900
C 	C 	0.39170 0.78210 0.93340 0.09900
C 	C 	0.35890 0.91680 0.91380 0.10700
C 	C 	0.40760 0.67780 0.92980 0.05800
C 	C 	0.43310 0.63330 0.95170 -0.13200
H 	H 	0.43910 0.66570 0.96970 0.08700
C 	C 	0.45020 0.53880 0.94670 0.07300
H 	H 	0.46740 0.50680 0.96190 -0.00700
C 	C 	0.41850 0.53680 0.90050 0.07000
H 	H 	0.41340 0.50340 0.88260 -0.00700
C 	C 	0.39990 0.63010 0.90370 -0.12700
H 	H 	0.38230 0.66010 0.88830 0.09600
C 	C 	0.33660 0.96870 0.88900 0.06000
C 	C 	0.31490 0.92100 0.86600 -0.12100
H 	H 	0.31410 0.85170 0.86560 0.07900
C 	C 	0.29450 0.97220 0.84370 0.07200
H 	H 	0.27990 0.93730 0.82800 -0.01300
C 	C 	0.31580 0.11750 0.86450 0.06600
H 	H 	0.31700 0.18670 0.86410 -0.00700
C 	C 	0.33700 0.06750 0.88810 -0.11000
H 	H 	0.35180 0.10330 0.90350 0.08200
C 	C 	0.19130 0.93840 0.26250 0.07900
H 	H 	0.16400 0.92070 0.27370 -0.01500
C 	C 	0.18390 0.97260 0.23420 -0.12600
H 	H 	0.15240 0.97770 0.22630 0.08300
C 	C 	0.22340 0.99870 0.21820 0.05700
C 	C 	0.26790 0.99440 0.23080 -0.11400
H 	H 	0.29540 0.01510 0.22020 0.08200
C 	C 	0.27230 0.95930 0.25940 0.05800
H 	H 	0.30310 0.95660 0.26830 0.00100
C 	C 	0.21870 0.02970 0.18670 0.10100
C 	C 	0.17350 0.06420 0.14710 0.10500
C 	C 	0.25490 0.06710 0.14396 0.10500
C 	C 	0.12640 0.07650 0.13280 0.04900
C 	C 	0.08440 0.07080 0.14840 -0.11100
H 	H 	0.08480 0.05620 0.16880 0.07900
C 	C 	0.04100 0.08670 0.13380 0.06300
H 	H 	0.01200 0.08270 0.14470 -0.00600
C 	C 	0.07900 0.11140 0.09020 0.06900
H 	H 	0.07750 0.12480 0.06980 -0.00700
C 	C 	0.12380 0.09680 0.10290 -0.11000
H 	H 	0.15220 0.10060 0.09140 0.08000
C 	C 	0.29830 0.08390 0.12670 0.04700
C 	C 	0.29590 0.11460 0.09750 -0.11700
H 	H 	0.26590 0.12240 0.08790 0.07900
C 	C 	0.33850 0.13300 0.08310 0.07300
H 	H 	0.33700 0.15530 0.06340 -0.01600
C 	C 	0.38360 0.08810 0.12270 0.06000
H 	H 	0.41420 0.07610 0.13110 -0.00700
C 	C 	0.34350 0.07040 0.13930 -0.11200
H 	H 	0.34640 0.04930 0.15910 0.07800
I 	I 	0.51155 0.08201 0.10026 -0.36600
I 	I 	0.42871 0.34390 0.06378 -0.38000
I 	I 	0.30414 0.30816 0.80449 -0.37100
I 	I 	0.16910 0.15654 0.82608 -0.37500
I 	I 	0.42659 0.27120 0.87407 -0.36600
I 	I 	0.49101 0.28084 0.96423 -0.39300
N 	N 	0.43240 0.08860 0.03413 -0.27400
N 	N 	0.40400 0.82810 0.95777 -0.14300
N 	N 	0.36810 0.82130 0.91068 -0.13300
N 	N 	0.36990 0.97040 0.93711 -0.13700
N 	N 	0.44320 0.49210 0.92161 -0.27500
N 	N 	0.29410 0.07090 0.84281 -0.27600
N 	N 	0.23370 0.92910 0.27457 -0.27400
N 	N 	0.17440 0.03940 0.17544 -0.13900
N 	N 	0.21220 0.07910 0.13077 -0.14000
N 	N 	0.25950 0.04250 0.17194 -0.14000
N 	N 	0.03820 0.10750 0.10513 -0.27100
N 	N 	0.38150 0.12140 0.09512 -0.27100
Zn	Zn	0.44322 0.16265 0.07289 1.16300
Zn	Zn	0.25749 0.14999 0.81245 1.16500
Zn	Zn	0.47372 0.35691 0.91430 1.16300
C 	C 	0.94470 0.50510 0.96850 0.07300
H 	H 	0.96240 0.53440 0.95310 -0.01200
C 	C 	0.93320 0.56170 0.99260 -0.12600
H 	H 	0.94350 0.62760 0.99380 0.09000
C 	C 	0.90630 0.52050 0.01480 0.05500
C 	C 	0.89410 0.42340 0.01240 -0.11700
H 	H 	0.87630 0.39250 0.02750 0.07700
C 	C 	0.90780 0.37120 0.98780 0.06900
H 	H 	0.89930 0.30430 0.98650 -0.00800
C 	C 	0.89200 0.57790 0.04100 0.09900
C 	C 	0.89170 0.71790 0.06660 0.09800
C 	C 	0.85890 0.58320 0.08620 0.10700
C 	C 	0.90760 0.82220 0.07020 0.05800
C 	C 	0.93310 0.86670 0.04830 -0.13200
H 	H 	0.93910 0.83430 0.03030 0.08700
C 	C 	0.95020 0.96120 0.05330 0.07400
H 	H 	0.96740 0.99320 0.03810 -0.00700
C 	C 	0.91850 0.96320 0.09950 0.07100
H 	H 	0.91340 0.99660 0.11740 -0.00700
C 	C 	0.89990 0.86990 0.09630 -0.12700
H 	H 	0.88230 0.83990 0.11170 0.09600
C 	C 	0.83660 0.53130 0.11100 0.06100
C 	C 	0.81490 0.57900 0.13400 -0.12100
H 	H 	0.81410 0.64830 0.13440 0.07900
C 	C 	0.79450 0.52780 0.15630 0.07200
H 	H 	0.77990 0.56270 0.17200 -0.01300
C 	C 	0.81580 0.38250 0.13550 0.06600
H 	H 	0.81700 0.31330 0.13590 -0.00800
C 	C 	0.83700 0.43250 0.11190 -0.11000
H 	H 	0.85180 0.39670 0.09650 0.08200
C 	C 	0.69130 0.56160 0.73750 0.07900
H 	H 	0.66400 0.57930 0.72630 -0.01500
C 	C 	0.68390 0.52740 0.76580 -0.12600
H 	H 	0.65240 0.52230 0.77370 0.08300
C 	C 	0.72340 0.50130 0.78180 0.05700
C 	C 	0.76790 0.50560 0.76920 -0.11400
H 	H 	0.79540 0.48490 0.77980 0.08100
C 	C 	0.77230 0.54070 0.74060 0.05800
H 	H 	0.80310 0.54340 0.73170 0.00100
C 	C 	0.71870 0.47030 0.81330 0.10100
C 	C 	0.67350 0.43580 0.85290 0.10500
C 	C 	0.75490 0.43290 0.85604 0.10500
C 	C 	0.62640 0.42350 0.86720 0.04900
C 	C 	0.58440 0.42920 0.85160 -0.11100
H 	H 	0.58480 0.44380 0.83120 0.07800
C 	C 	0.54100 0.41330 0.86620 0.06300
H 	H 	0.51200 0.41730 0.85530 -0.00600
C 	C 	0.57900 0.38860 0.90980 0.06900
H 	H 	0.57750 0.37520 0.93020 -0.00700
C 	C 	0.62380 0.40320 0.89710 -0.11000
H 	H 	0.65220 0.39940 0.90860 0.08000
C 	C 	0.79830 0.41610 0.87330 0.04700
C 	C 	0.79590 0.38540 0.90250 -0.11700
H 	H 	0.76590 0.37760 0.91210 0.07900
C 	C 	0.83850 0.36700 0.91690 0.07300
H 	H 	0.83700 0.34470 0.93660 -0.01600
C 	C 	0.88360 0.41190 0.87730 0.06000
H 	H 	0.91420 0.42390 0.86890 -0.00700
C 	C 	0.84350 0.42960 0.86070 -0.11200
H 	H 	0.84640 0.45070 0.84090 0.07800
I 	I 	0.01155 0.41799 0.89974 -0.36600
I 	I 	0.92871 0.15610 0.93622 -0.38000
I 	I 	0.80414 0.19184 0.19551 -0.37100
I 	I 	0.66910 0.34346 0.17392 -0.37500
I 	I 	0.92659 0.22880 0.12593 -0.36700
I 	I 	0.99101 0.21916 0.03577 -0.39300
N 	N 	0.93240 0.41140 0.96587 -0.27400
N 	N 	0.90400 0.67190 0.04223 -0.14300
N 	N 	0.86810 0.67870 0.08932 -0.13300
N 	N 	0.86990 0.52960 0.06289 -0.13700
N 	N 	0.94320 0.00790 0.07839 -0.27600
N 	N 	0.79410 0.42910 0.15719 -0.27700
N 	N 	0.73370 0.57090 0.72543 -0.27400
N 	N 	0.67440 0.46060 0.82456 -0.13900
N 	N 	0.71220 0.42090 0.86923 -0.14000
N 	N 	0.75950 0.45750 0.82806 -0.14000
N 	N 	0.53820 0.39250 0.89487 -0.27100
N 	N 	0.88150 0.37860 0.90488 -0.27100
Zn	Zn	0.94322 0.33735 0.92711 1.16300
Zn	Zn	0.75749 0.35001 0.18755 1.16500
Zn	Zn	0.97372 0.14309 0.08570 1.16300
C 	C 	0.55530 0.49490 0.46850 0.07300
H 	H 	0.53760 0.46560 0.45310 -0.01200
C 	C 	0.56680 0.43830 0.49260 -0.12600
H 	H 	0.55650 0.37240 0.49380 0.09000
C 	C 	0.59370 0.47950 0.51480 0.05500
C 	C 	0.60590 0.57660 0.51240 -0.11700
H 	H 	0.62370 0.60750 0.52750 0.07700
C 	C 	0.59220 0.62880 0.48780 0.06900
H 	H 	0.60070 0.69570 0.48650 -0.00800
C 	C 	0.60800 0.42210 0.54100 0.09900
C 	C 	0.60830 0.28210 0.56660 0.09900
C 	C 	0.64110 0.41680 0.58620 0.10700
C 	C 	0.59240 0.17780 0.57020 0.05800
C 	C 	0.56690 0.13330 0.54830 -0.13200
H 	H 	0.56090 0.16570 0.53030 0.08700
C 	C 	0.54980 0.03880 0.55330 0.07300
H 	H 	0.53260 0.00680 0.53810 -0.00700
C 	C 	0.58150 0.03680 0.59950 0.07000
H 	H 	0.58660 0.00340 0.61740 -0.00700
C 	C 	0.60010 0.13010 0.59630 -0.12700
H 	H 	0.61770 0.16010 0.61170 0.09600
C 	C 	0.66340 0.46870 0.61100 0.06100
C 	C 	0.68510 0.42100 0.63400 -0.12100
H 	H 	0.68590 0.35170 0.63440 0.07900
C 	C 	0.70550 0.47220 0.65630 0.07200
H 	H 	0.72010 0.43730 0.67200 -0.01300
C 	C 	0.68420 0.61750 0.63550 0.06600
H 	H 	0.68300 0.68670 0.63590 -0.00800
C 	C 	0.66300 0.56750 0.61190 -0.11000
H 	H 	0.64820 0.60330 0.59650 0.08200
C 	C 	0.80870 0.43840 0.23750 0.07900
H 	H 	0.83600 0.42070 0.22630 -0.01500
C 	C 	0.81610 0.47260 0.26580 -0.12600
H 	H 	0.84760 0.47770 0.27370 0.08300
C 	C 	0.77660 0.49870 0.28180 0.05700
C 	C 	0.73210 0.49440 0.26920 -0.11400
H 	H 	0.70460 0.51510 0.27980 0.08100
C 	C 	0.72770 0.45930 0.24060 0.05800
H 	H 	0.69690 0.45660 0.23170 0.00100
C 	C 	0.78130 0.52970 0.31330 0.10100
C 	C 	0.82650 0.56420 0.35290 0.10500
C 	C 	0.74510 0.56710 0.35604 0.10500
C 	C 	0.87360 0.57650 0.36720 0.04900
C 	C 	0.91560 0.57080 0.35160 -0.11100
H 	H 	0.91520 0.55620 0.33120 0.07800
C 	C 	0.95900 0.58670 0.36620 0.06300
H 	H 	0.98800 0.58270 0.35530 -0.00600
C 	C 	0.92100 0.61140 0.40980 0.06900
H 	H 	0.92250 0.62480 0.43020 -0.00700
C 	C 	0.87620 0.59680 0.39710 -0.11000
H 	H 	0.84780 0.60060 0.40860 0.08000
C 	C 	0.70170 0.58390 0.37330 0.04700
C 	C 	0.70410 0.61460 0.40250 -0.11700
H 	H 	0.73410 0.62240 0.41210 0.07900
C 	C 	0.66150 0.63300 0.41690 0.07300
H 	H 	0.66300 0.65530 0.43660 -0.01600
C 	C 	0.61640 0.58810 0.37730 0.06000
H 	H 	0.58580 0.57610 0.36890 -0.00700
C 	C 	0.65650 0.57040 0.36070 -0.11200
H 	H 	0.65360 0.54930 0.34090 0.07800
I 	I 	0.48845 0.58201 0.39974 -0.36600
I 	I 	0.57129 0.84390 0.43622 -0.38000
I 	I 	0.69586 0.80816 0.69551 -0.37100
I 	I 	0.83090 0.65654 0.67392 -0.37500
I 	I 	0.57341 0.77120 0.62593 -0.36600
I 	I 	0.50899 0.78084 0.53577 -0.39300
N 	N 	0.56760 0.58860 0.46587 -0.27400
N 	N 	0.59600 0.32810 0.54223 -0.14300
N 	N 	0.63190 0.32130 0.58932 -0.13300
N 	N 	0.63010 0.47040 0.56289 -0.13700
N 	N 	0.55680 0.99210 0.57839 -0.27500
N 	N 	0.70590 0.57090 0.65719 -0.27700
N 	N 	0.76630 0.42910 0.22543 -0.27400
N 	N 	0.82560 0.53940 0.32456 -0.13900
N 	N 	0.78780 0.57910 0.36923 -0.14000
N 	N 	0.74050 0.54250 0.32806 -0.14000
N 	N 	0.96180 0.60750 0.39487 -0.27100
N 	N 	0.61850 0.62140 0.40488 -0.27100
Zn	Zn	0.55678 0.66265 0.42711 1.16300
Zn	Zn	0.74251 0.64999 0.68755 1.16500
Zn	Zn	0.52628 0.85691 0.58570 1.16300
C 	C 	0.94470 0.99490 0.46850 0.07400
H 	H 	0.96240 0.96560 0.45310 -0.01200
C 	C 	0.93320 0.93830 0.49260 -0.12600
H 	H 	0.94350 0.87240 0.49380 0.09000
C 	C 	0.90630 0.97950 0.51480 0.05600
C 	C 	0.89410 0.07660 0.51240 -0.11800
H 	H 	0.87630 0.10750 0.52750 0.07800
C 	C 	0.90780 0.12880 0.48780 0.06900
H 	H 	0.89930 0.19570 0.48650 -0.00800
C 	C 	0.89200 0.92210 0.54100 0.09900
C 	C 	0.89170 0.78210 0.56660 0.09900
C 	C 	0.85890 0.91680 0.58620 0.10700
C 	C 	0.90760 0.67780 0.57020 0.05800
C 	C 	0.93310 0.63330 0.54830 -0.13200
H 	H 	0.93910 0.66570 0.53030 0.08700
C 	C 	0.95020 0.53880 0.55330 0.07300
H 	H 	0.96740 0.50680 0.53810 -0.00700
C 	C 	0.91850 0.53680 0.59950 0.07000
H 	H 	0.91340 0.50340 0.61740 -0.00700
C 	C 	0.89990 0.63010 0.59630 -0.12700
H 	H 	0.88230 0.66010 0.61170 0.09600
C 	C 	0.83660 0.96870 0.61100 0.06100
C 	C 	0.81490 0.92100 0.63400 -0.12200
H 	H 	0.81410 0.85170 0.63440 0.07900
C 	C 	0.79450 0.97220 0.65630 0.07300
H 	H 	0.77990 0.93730 0.67200 -0.01400
C 	C 	0.81580 0.11750 0.63550 0.06600
H 	H 	0.81700 0.18670 0.63590 -0.00800
C 	C 	0.83700 0.06750 0.61190 -0.11100
H 	H 	0.85180 0.10330 0.59650 0.08200
C 	C 	0.69130 0.93840 0.23750 0.07900
H 	H 	0.66400 0.92070 0.22630 -0.01500
C 	C 	0.68390 0.97260 0.26580 -0.12600
H 	H 	0.65240 0.97770 0.27370 0.08300
C 	C 	0.72340 0.99870 0.28180 0.05700
C 	C 	0.76790 0.99440 0.26920 -0.11300
H 	H 	0.79540 0.01510 0.27980 0.08100
C 	C 	0.77230 0.95930 0.24060 0.05800
H 	H 	0.80310 0.95660 0.23170 0.00100
C 	C 	0.71870 0.02970 0.31330 0.10100
C 	C 	0.67350 0.06420 0.35290 0.10500
C 	C 	0.75490 0.06710 0.35604 0.10500
C 	C 	0.62640 0.07650 0.36720 0.04900
C 	C 	0.58440 0.07080 0.35160 -0.11100
H 	H 	0.58480 0.05620 0.33120 0.07800
C 	C 	0.54100 0.08670 0.36620 0.06300
H 	H 	0.51200 0.08270 0.35530 -0.00600
C 	C 	0.57900 0.11140 0.40980 0.06900
H 	H 	0.57750 0.12480 0.43020 -0.00700
C 	C 	0.62380 0.09680 0.39710 -0.11000
H 	H 	0.65220 0.10060 0.40860 0.08000
C 	C 	0.79830 0.08390 0.37330 0.04700
C 	C 	0.79590 0.11460 0.40250 -0.11700
H 	H 	0.76590 0.12240 0.41210 0.07900
C 	C 	0.83850 0.13300 0.41690 0.07300
H 	H 	0.83700 0.15530 0.43660 -0.01600
C 	C 	0.88360 0.08810 0.37730 0.06000
H 	H 	0.91420 0.07610 0.36890 -0.00700
C 	C 	0.84350 0.07040 0.36070 -0.11200
H 	H 	0.84640 0.04930 0.34090 0.07800
I 	I 	0.01155 0.08201 0.39974 -0.36600
I 	I 	0.92871 0.34390 0.43622 -0.38000
I 	I 	0.80414 0.30816 0.69551 -0.37100
I 	I 	0.66910 0.15654 0.67392 -0.37500
I 	I 	0.92659 0.27120 0.62593 -0.36600
I 	I 	0.99101 0.28084 0.53577 -0.39300
N 	N 	0.93240 0.08860 0.46587 -0.27400
N 	N 	0.90400 0.82810 0.54223 -0.14300
N 	N 	0.86810 0.82130 0.58932 -0.13300
N 	N 	0.86990 0.97040 0.56289 -0.13700
N 	N 	0.94320 0.49210 0.57839 -0.27500
N 	N 	0.79410 0.07090 0.65719 -0.27700
N 	N 	0.73370 0.92910 0.22543 -0.27400
N 	N 	0.67440 0.03940 0.32456 -0.13900
N 	N 	0.71220 0.07910 0.36923 -0.14000
N 	N 	0.75950 0.04250 0.32806 -0.14000
N 	N 	0.53820 0.10750 0.39487 -0.27100
N 	N 	0.88150 0.12140 0.40488 -0.27100
Zn	Zn	0.94322 0.16265 0.42711 1.16300
Zn	Zn	0.75749 0.14999 0.68755 1.16500
Zn	Zn	0.97372 0.35691 0.58570 1.16300
C 	C 	0.55530 0.00510 0.96850 0.07300
H 	H 	0.53760 0.03440 0.95310 -0.01200
C 	C 	0.56680 0.06170 0.99260 -0.12500
H 	H 	0.55650 0.12760 0.99380 0.09000
C 	C 	0.59370 0.02050 0.01480 0.05400
C 	C 	0.60590 0.92340 0.01240 -0.11600
H 	H 	0.62370 0.89250 0.02750 0.07700
C 	C 	0.59220 0.87120 0.98780 0.06900
H 	H 	0.60070 0.80430 0.98650 -0.00800
C 	C 	0.60800 0.07790 0.04100 0.09900
C 	C 	0.60830 0.21790 0.06660 0.09900
C 	C 	0.64110 0.08320 0.08620 0.10700
C 	C 	0.59240 0.32220 0.07020 0.05800
C 	C 	0.56690 0.36670 0.04830 -0.13200
H 	H 	0.56090 0.33430 0.03030 0.08700
C 	C 	0.54980 0.46120 0.05330 0.07300
H 	H 	0.53260 0.49320 0.03810 -0.00700
C 	C 	0.58150 0.46320 0.09950 0.07000
H 	H 	0.58660 0.49660 0.11740 -0.00700
C 	C 	0.60010 0.36990 0.09630 -0.12700
H 	H 	0.61770 0.33990 0.11170 0.09600
C 	C 	0.66340 0.03130 0.11100 0.06000
C 	C 	0.68510 0.07900 0.13400 -0.12100
H 	H 	0.68590 0.14830 0.13440 0.07900
C 	C 	0.70550 0.02780 0.15630 0.07200
H 	H 	0.72010 0.06270 0.17200 -0.01300
C 	C 	0.68420 0.88250 0.13550 0.06600
H 	H 	0.68300 0.81330 0.13590 -0.00700
C 	C 	0.66300 0.93250 0.11190 -0.11000
H 	H 	0.64820 0.89670 0.09650 0.08200
C 	C 	0.80870 0.06160 0.73750 0.07900
H 	H 	0.83600 0.07930 0.72630 -0.01500
C 	C 	0.81610 0.02740 0.76580 -0.12600
H 	H 	0.84760 0.02230 0.77370 0.08300
C 	C 	0.77660 0.00130 0.78180 0.05700
C 	C 	0.73210 0.00560 0.76920 -0.11400
H 	H 	0.70460 0.98490 0.77980 0.08200
C 	C 	0.72770 0.04070 0.74060 0.05800
H 	H 	0.69690 0.04340 0.73170 0.00100
C 	C 	0.78130 0.97030 0.81330 0.10100
C 	C 	0.82650 0.93580 0.85290 0.10500
C 	C 	0.74510 0.93290 0.85604 0.10500
C 	C 	0.87360 0.92350 0.86720 0.04900
C 	C 	0.91560 0.92920 0.85160 -0.11100
H 	H 	0.91520 0.94380 0.83120 0.07900
C 	C 	0.95900 0.91330 0.86620 0.06300
H 	H 	0.98800 0.91730 0.85530 -0.00600
C 	C 	0.92100 0.88860 0.90980 0.06900
H 	H 	0.92250 0.87520 0.93020 -0.00700
C 	C 	0.87620 0.90320 0.89710 -0.11000
H 	H 	0.84780 0.89940 0.90860 0.08000
C 	C 	0.70170 0.91610 0.87330 0.04700
C 	C 	0.70410 0.88540 0.90250 -0.11700
H 	H 	0.73410 0.87760 0.91210 0.07900
C 	C 	0.66150 0.86700 0.91690 0.07300
H 	H 	0.66300 0.84470 0.93660 -0.01600
C 	C 	0.61640 0.91190 0.87730 0.06000
H 	H 	0.58580 0.92390 0.86890 -0.00700
C 	C 	0.65650 0.92960 0.86070 -0.11200
H 	H 	0.65360 0.95070 0.84090 0.07800
I 	I 	0.48845 0.91799 0.89974 -0.36600
I 	I 	0.57129 0.65610 0.93622 -0.38000
I 	I 	0.69586 0.69184 0.19551 -0.37100
I 	I 	0.83090 0.84346 0.17392 -0.37500
I 	I 	0.57341 0.72880 0.12593 -0.36600
I 	I 	0.50899 0.71916 0.03577 -0.39300
N 	N 	0.56760 0.91140 0.96587 -0.27400
N 	N 	0.59600 0.17190 0.04223 -0.14300
N 	N 	0.63190 0.17870 0.08932 -0.13300
N 	N 	0.63010 0.02960 0.06289 -0.13700
N 	N 	0.55680 0.50790 0.07839 -0.27500
N 	N 	0.70590 0.92910 0.15719 -0.27600
N 	N 	0.76630 0.07090 0.72543 -0.27400
N 	N 	0.82560 0.96060 0.82456 -0.13900
N 	N 	0.78780 0.92090 0.86923 -0.14000
N 	N 	0.74050 0.95750 0.82806 -0.14000
N 	N 	0.96180 0.89250 0.89487 -0.27100
N 	N 	0.61850 0.87860 0.90488 -0.27100
Zn	Zn	0.55678 0.83735 0.92711 1.16300
Zn	Zn	0.74251 0.85001 0.18755 1.16500
Zn	Zn	0.52628 0.64309 0.08570 1.16300
C 	C 	0.05530 0.49490 0.03150 0.07300
H 	H 	0.03760 0.46560 0.04690 -0.01200
C 	C 	0.06680 0.43830 0.00740 -0.12600
H 	H 	0.05650 0.37240 0.00620 0.09000
C 	C 	0.09370 0.47950 0.98520 0.05500
C 	C 	0.10590 0.57660 0.98760 -0.11700
H 	H 	0.12370 0.60750 0.97250 0.07700
C 	C 	0.09220 0.62880 0.01220 0.06900
H 	H 	0.10070 0.69570 0.01350 -0.00800
C 	C 	0.10800 0.42210 0.95900 0.09900
C 	C 	0.10830 0.28210 0.93340 0.09800
C 	C 	0.14110 0.41680 0.91380 0.10700
C 	C 	0.09240 0.17780 0.92980 0.05800
C 	C 	0.06690 0.13330 0.95170 -0.13200
H 	H 	0.06090 0.16570 0.96970 0.08700
C 	C 	0.04980 0.03880 0.94670 0.07400
H 	H 	0.03260 0.00680 0.96190 -0.00700
C 	C 	0.08150 0.03680 0.90050 0.07100
H 	H 	0.08660 0.00340 0.88260 -0.00700
C 	C 	0.10010 0.13010 0.90370 -0.12700
H 	H 	0.11770 0.16010 0.88830 0.09600
C 	C 	0.16340 0.46870 0.88900 0.06100
C 	C 	0.18510 0.42100 0.86600 -0.12100
H 	H 	0.18590 0.35170 0.86560 0.07900
C 	C 	0.20550 0.47220 0.84370 0.07200
H 	H 	0.22010 0.43730 0.82800 -0.01300
C 	C 	0.18420 0.61750 0.86450 0.06600
H 	H 	0.18300 0.68670 0.86410 -0.00800
C 	C 	0.16300 0.56750 0.88810 -0.11000
H 	H 	0.14820 0.60330 0.90350 0.08200
C 	C 	0.30870 0.43840 0.26250 0.07900
H 	H 	0.33600 0.42070 0.27370 -0.01500
C 	C 	0.31610 0.47260 0.23420 -0.12600
H 	H 	0.34760 0.47770 0.22630 0.08300
C 	C 	0.27660 0.49870 0.21820 0.05700
C 	C 	0.23210 0.49440 0.23080 -0.11400
H 	H 	0.20460 0.51510 0.22020 0.08100
C 	C 	0.22770 0.45930 0.25940 0.05800
H 	H 	0.19690 0.45660 0.26830 0.00100
C 	C 	0.28130 0.52970 0.18670 0.10100
C 	C 	0.32650 0.56420 0.14710 0.10500
C 	C 	0.24510 0.56710 0.14396 0.10500
C 	C 	0.37360 0.57650 0.13280 0.04900
C 	C 	0.41560 0.57080 0.14840 -0.11100
H 	H 	0.41520 0.55620 0.16880 0.07800
C 	C 	0.45900 0.58670 0.13380 0.06300
H 	H 	0.48800 0.58270 0.14470 -0.00600
C 	C 	0.42100 0.61140 0.09020 0.06900
H 	H 	0.42250 0.62480 0.06980 -0.00700
C 	C 	0.37620 0.59680 0.10290 -0.11000
H 	H 	0.34780 0.60060 0.09140 0.08000
C 	C 	0.20170 0.58390 0.12670 0.04700
C 	C 	0.20410 0.61460 0.09750 -0.11700
H 	H 	0.23410 0.62240 0.08790 0.07900
C 	C 	0.16150 0.63300 0.08310 0.07300
H 	H 	0.16300 0.65530 0.06340 -0.01600
C 	C 	0.11640 0.58810 0.12270 0.06000
H 	H 	0.08580 0.57610 0.13110 -0.00700
C 	C 	0.15650 0.57040 0.13930 -0.11200
H 	H 	0.15360 0.54930 0.15910 0.07800
I 	I 	0.98845 0.58201 0.10026 -0.36600
I 	I 	0.07129 0.84390 0.06378 -0.38000
I 	I 	0.19586 0.80816 0.80449 -0.37100
I 	I 	0.33090 0.65654 0.82608 -0.37500
I 	I 	0.07341 0.77120 0.87407 -0.36700
I 	I 	0.00899 0.78084 0.96423 -0.39300
N 	N 	0.06760 0.58860 0.03413 -0.27400
N 	N 	0.09600 0.32810 0.95777 -0.14300
N 	N 	0.13190 0.32130 0.91068 -0.13300
N 	N 	0.13010 0.47040 0.93711 -0.13700
N 	N 	0.05680 0.99210 0.92161 -0.27600
N 	N 	0.20590 0.57090 0.84281 -0.27700
N 	N 	0.26630 0.42910 0.27457 -0.27400
N 	N 	0.32560 0.53940 0.17544 -0.13900
N 	N 	0.28780 0.57910 0.13077 -0.14000
N 	N 	0.24050 0.54250 0.17194 -0.14000
N 	N 	0.46180 0.60750 0.10513 -0.27100
N 	N 	0.11850 0.62140 0.09512 -0.27100
Zn	Zn	0.05678 0.66265 0.07289 1.16300
Zn	Zn	0.24251 0.64999 0.81245 1.16500
Zn	Zn	0.02628 0.85691 0.91430 1.16300
C 	C 	0.44470 0.50510 0.53150 0.07300
H 	H 	0.46240 0.53440 0.54690 -0.01200
C 	C 	0.43320 0.56170 0.50740 -0.12600
H 	H 	0.44350 0.62760 0.50620 0.09000
C 	C 	0.40630 0.52050 0.48520 0.05500
C 	C 	0.39410 0.42340 0.48760 -0.11700
H 	H 	0.37630 0.39250 0.47250 0.07700
C 	C 	0.40780 0.37120 0.51220 0.06900
H 	H 	0.39930 0.30430 0.51350 -0.00800
C 	C 	0.39200 0.57790 0.45900 0.09900
C 	C 	0.39170 0.71790 0.43340 0.09900
C 	C 	0.35890 0.58320 0.41380 0.10700
C 	C 	0.40760 0.82220 0.42980 0.05800
C 	C 	0.43310 0.86670 0.45170 -0.13200
H 	H 	0.43910 0.83430 0.46970 0.08700
C 	C 	0.45020 0.96120 0.44670 0.07300
H 	H 	0.46740 0.99320 0.46190 -0.00700
C 	C 	0.41850 0.96320 0.40050 0.07000
H 	H 	0.41340 0.99660 0.38260 -0.00700
C 	C 	0.39990 0.86990 0.40370 -0.12700
H 	H 	0.38230 0.83990 0.38830 0.09600
C 	C 	0.33660 0.53130 0.38900 0.06100
C 	C 	0.31490 0.57900 0.36600 -0.12100
H 	H 	0.31410 0.64830 0.36560 0.07900
C 	C 	0.29450 0.52780 0.34370 0.07200
H 	H 	0.27990 0.56270 0.32800 -0.01300
C 	C 	0.31580 0.38250 0.36450 0.06600
H 	H 	0.31700 0.31330 0.36410 -0.00800
C 	C 	0.33700 0.43250 0.38810 -0.11000
H 	H 	0.35180 0.39670 0.40350 0.08200
C 	C 	0.19130 0.56160 0.76250 0.07900
H 	H 	0.16400 0.57930 0.77370 -0.01500
C 	C 	0.18390 0.52740 0.73420 -0.12600
H 	H 	0.15240 0.52230 0.72630 0.08300
C 	C 	0.22340 0.50130 0.71820 0.05700
C 	C 	0.26790 0.50560 0.73080 -0.11400
H 	H 	0.29540 0.48490 0.72020 0.08100
C 	C 	0.27230 0.54070 0.75940 0.05800
H 	H 	0.30310 0.54340 0.76830 0.00100
C 	C 	0.21870 0.47030 0.68670 0.10100
C 	C 	0.17350 0.43580 0.64710 0.10500
C 	C 	0.25490 0.43290 0.64396 0.10500
C 	C 	0.12640 0.42350 0.63280 0.04900
C 	C 	0.08440 0.42920 0.64840 -0.11100
H 	H 	0.08480 0.44380 0.66880 0.07800
C 	C 	0.04100 0.41330 0.63380 0.06300
H 	H 	0.01200 0.41730 0.64470 -0.00600
C 	C 	0.07900 0.38860 0.59020 0.06900
H 	H 	0.07750 0.37520 0.56980 -0.00700
C 	C 	0.12380 0.40320 0.60290 -0.11000
H 	H 	0.15220 0.39940 0.59140 0.08000
C 	C 	0.29830 0.41610 0.62670 0.04700
C 	C 	0.29590 0.38540 0.59750 -0.11700
H 	H 	0.26590 0.37760 0.58790 0.07900
C 	C 	0.33850 0.36700 0.58310 0.07300
H 	H 	0.33700 0.34470 0.56340 -0.01600
C 	C 	0.38360 0.41190 0.62270 0.06000
H 	H 	0.41420 0.42390 0.63110 -0.00700
C 	C 	0.34350 0.42960 0.63930 -0.11200
H 	H 	0.34640 0.45070 0.65910 0.07800
I 	I 	0.51155 0.41799 0.60026 -0.36600
I 	I 	0.42871 0.15610 0.56378 -0.38000
I 	I 	0.30414 0.19184 0.30449 -0.37100
I 	I 	0.16910 0.34346 0.32608 -0.37500
I 	I 	0.42659 0.22880 0.37407 -0.36600
I 	I 	0.49101 0.21916 0.46423 -0.39300
N 	N 	0.43240 0.41140 0.53413 -0.27400
N 	N 	0.40400 0.67190 0.45777 -0.14300
N 	N 	0.36810 0.67870 0.41068 -0.13300
N 	N 	0.36990 0.52960 0.43711 -0.13700
N 	N 	0.44320 0.00790 0.42161 -0.27500
N 	N 	0.29410 0.42910 0.34281 -0.27700
N 	N 	0.23370 0.57090 0.77457 -0.27400
N 	N 	0.17440 0.46060 0.67544 -0.13900
N 	N 	0.21220 0.42090 0.63077 -0.14000
N 	N 	0.25950 0.45750 0.67194 -0.14000
N 	N 	0.03820 0.39250 0.60513 -0.27100
N 	N 	0.38150 0.37860 0.59512 -0.27100
Zn	Zn	0.44322 0.33735 0.57289 1.16300
Zn	Zn	0.25749 0.35001 0.31245 1.16500
Zn	Zn	0.47372 0.14309 0.41430 1.16300
