data_crystal

_cell_length_a 28.51900
_cell_length_b 13.82190
_cell_length_c 44.09700
_cell_angle_alpha 90.00000
_cell_angle_beta  90.00000
_cell_angle_gamma 90.00000

_symmetry_space_group_name_	'P 1'
_symmetry_space_group_name_H-M	'P 1'

loop_
_symmetry_equiv_pos_as_xyz
  x,y,z

loop_
_atom_site_label
_atom_site_type_symbol
_atom_site_fract_x
_atom_site_fract_y
_atom_site_fract_z
_atom_site_charge
C 	C 	0.04340 0.01730 0.54610 0.07500
H 	H 	0.03220 0.05620 0.56230 -0.01400
C 	C 	0.05210 0.06090 0.51870 -0.12500
H 	H 	0.04780 0.12860 0.51630 0.09600
C 	C 	0.06730 0.00410 0.49440 0.06000
C 	C 	0.07190 0.90490 0.49910 -0.12000
H 	H 	0.08150 0.86350 0.48310 0.08500
C 	C 	0.06230 0.86770 0.52740 0.07300
H 	H 	0.06470 0.79970 0.53020 -0.00500
C 	C 	0.08020 0.04990 0.46540 0.09600
C 	C 	0.08610 0.18240 0.43640 0.09000
C 	C 	0.11810 0.04340 0.42070 0.10300
C 	C 	0.07320 0.28540 0.43070 0.05400
C 	C 	0.04920 0.33940 0.45260 -0.12800
H 	H 	0.04180 0.31200 0.47180 0.09300
C 	C 	0.03650 0.43410 0.44570 0.07700
H 	H 	0.02050 0.47100 0.46070 -0.01000
C 	C 	0.06930 0.42330 0.39900 0.08500
H 	H 	0.07710 0.45340 0.38030 -0.00700
C 	C 	0.08330 0.32950 0.40320 -0.13400
H 	H 	0.09950 0.29550 0.38760 0.10100
C 	C 	0.14350 0.98720 0.39720 0.06600
C 	C 	0.16610 0.03120 0.37360 -0.12700
H 	H 	0.16450 0.09950 0.37130 0.08900
C 	C 	0.19090 0.97700 0.35330 0.08200
H 	H 	0.20700 0.00930 0.33740 -0.01400
C 	C 	0.17040 0.83660 0.37710 0.07100
H 	H 	0.17110 0.76800 0.37810 -0.01000
C 	C 	0.14540 0.88700 0.39890 -0.11300
H 	H 	0.12980 0.85350 0.41480 0.07800
C 	C 	0.31380 0.11200 0.77320 0.06800
H 	H 	0.34110 0.13000 0.78410 -0.00800
C 	C 	0.31910 0.07670 0.74410 -0.11600
H 	H 	0.34940 0.07020 0.73540 0.08100
C 	C 	0.28020 0.05130 0.72792 0.05100
C 	C 	0.23650 0.05850 0.74203 -0.10800
H 	H 	0.20890 0.04030 0.73150 0.08100
C 	C 	0.23380 0.09260 0.77150 0.06000
H 	H 	0.20410 0.09500 0.78130 0.00300
C 	C 	0.28250 0.02070 0.69589 0.10400
C 	C 	0.32320 0.98270 0.65396 0.10100
C 	C 	0.24410 0.98440 0.65215 0.10200
C 	C 	0.36880 0.96710 0.63839 0.05600
C 	C 	0.41090 0.97870 0.65370 -0.11700
H 	H 	0.41120 0.00020 0.67410 0.08200
C 	C 	0.45230 0.95860 0.63880 0.07600
H 	H 	0.48090 0.96590 0.64960 -0.01200
C 	C 	0.41340 0.92080 0.59480 0.06800
H 	H 	0.41440 0.90160 0.57410 -0.00800
C 	C 	0.37010 0.93890 0.60811 -0.11100
H 	H 	0.34200 0.93220 0.59680 0.07900
C 	C 	0.19930 0.96770 0.63610 0.05500
C 	C 	0.19690 0.93620 0.60670 -0.12700
H 	H 	0.22450 0.92860 0.59490 0.08100
C 	C 	0.15310 0.91580 0.59480 0.08100
H 	H 	0.15150 0.89200 0.57460 -0.01700
C 	C 	0.11570 0.96360 0.63790 0.06000
H 	H 	0.08730 0.97640 0.64840 -0.01100
C 	C 	0.15760 0.98300 0.65210 -0.11700
H 	H 	0.15820 0.00630 0.67240 0.08100
N 	N 	0.04990 0.92240 0.55107 -0.27500
N 	N 	0.06970 0.14380 0.46181 -0.14200
N 	N 	0.11120 0.13720 0.41542 -0.13500
N 	N 	0.10280 0.99520 0.44499 -0.13900
N 	N 	0.04580 0.47520 0.41915 -0.27800
N 	N 	0.19370 0.88090 0.35490 -0.27600
N 	N 	0.27190 0.12200 0.78662 -0.27000
N 	N 	0.32410 0.00790 0.68328 -0.13900
N 	N 	0.28410 0.97080 0.63700 -0.13800
N 	N 	0.24120 0.01010 0.68134 -0.13900
N 	N 	0.45400 0.92940 0.61012 -0.26800
N 	N 	0.11350 0.92740 0.60984 -0.27200
I 	I 	0.98705 0.96172 0.62480 -0.36600
I 	I 	0.06356 0.69114 0.59380 -0.38600
I 	I 	0.20059 0.63388 0.31867 -0.37300
I 	I 	0.32020 0.81438 0.34374 -0.37600
I 	I 	0.06402 0.68340 0.36593 -0.36900
I 	I 	0.00176 0.69499 0.45922 -0.39400
Zn	Zn	0.04950 0.87228 0.59502 1.16300
Zn	Zn	0.23548 0.80157 0.32644 1.16500
Zn	Zn	0.01788 0.60843 0.40890 1.16300
C 	C 	0.45660 0.98270 0.04610 0.07200
H 	H 	0.46780 0.94380 0.06230 -0.01500
C 	C 	0.44790 0.93910 0.01870 -0.12500
H 	H 	0.45220 0.87140 0.01630 0.09500
C 	C 	0.43270 0.99590 0.99440 0.05700
C 	C 	0.42810 0.09510 0.99910 -0.11900
H 	H 	0.41850 0.13650 0.98310 0.08300
C 	C 	0.43770 0.13230 0.02740 0.07200
H 	H 	0.43530 0.20030 0.03020 -0.00600
C 	C 	0.41980 0.95010 0.96540 0.09400
C 	C 	0.41390 0.81760 0.93640 0.08800
C 	C 	0.38190 0.95660 0.92070 0.10000
C 	C 	0.42680 0.71460 0.93070 0.05300
C 	C 	0.45080 0.66060 0.95260 -0.12900
H 	H 	0.45820 0.68800 0.97180 0.09200
C 	C 	0.46350 0.56590 0.94570 0.07600
H 	H 	0.47950 0.52900 0.96070 -0.01100
C 	C 	0.43070 0.57670 0.89900 0.08400
H 	H 	0.42290 0.54660 0.88030 -0.00800
C 	C 	0.41670 0.67050 0.90320 -0.13500
H 	H 	0.40050 0.70450 0.88760 0.10000
C 	C 	0.35650 0.01280 0.89720 0.06800
C 	C 	0.33390 0.96880 0.87360 -0.13300
H 	H 	0.33550 0.90050 0.87130 0.09000
C 	C 	0.30910 0.02300 0.85330 0.08500
H 	H 	0.29300 0.99070 0.83740 -0.01700
C 	C 	0.32960 0.16340 0.87710 0.07100
H 	H 	0.32890 0.23200 0.87810 -0.01200
C 	C 	0.35460 0.11300 0.89890 -0.11600
H 	H 	0.37020 0.14650 0.91480 0.07700
C 	C 	0.18620 0.88800 0.27320 0.06700
H 	H 	0.15890 0.87000 0.28410 -0.00900
C 	C 	0.18090 0.92330 0.24410 -0.11700
H 	H 	0.15060 0.92980 0.23540 0.08000
C 	C 	0.21980 0.94870 0.22792 0.05000
C 	C 	0.26350 0.94150 0.24203 -0.10900
H 	H 	0.29110 0.95970 0.23150 0.08000
C 	C 	0.26620 0.90740 0.27150 0.05900
H 	H 	0.29590 0.90500 0.28130 0.00200
C 	C 	0.21750 0.97930 0.19589 0.10300
C 	C 	0.17680 0.01730 0.15396 0.10100
C 	C 	0.25590 0.01560 0.15215 0.10200
C 	C 	0.13120 0.03290 0.13839 0.05500
C 	C 	0.08910 0.02130 0.15370 -0.11500
H 	H 	0.08880 0.99980 0.17410 0.08100
C 	C 	0.04770 0.04140 0.13880 0.07500
H 	H 	0.01910 0.03410 0.14960 -0.01100
C 	C 	0.08660 0.07920 0.09480 0.06800
H 	H 	0.08560 0.09840 0.07410 -0.00800
C 	C 	0.12990 0.06110 0.10811 -0.11000
H 	H 	0.15800 0.06780 0.09680 0.07900
C 	C 	0.30070 0.03230 0.13610 0.05400
C 	C 	0.30310 0.06380 0.10670 -0.12600
H 	H 	0.27550 0.07140 0.09490 0.08100
C 	C 	0.34690 0.08420 0.09480 0.08000
H 	H 	0.34850 0.10800 0.07460 -0.01700
C 	C 	0.38430 0.03640 0.13790 0.05900
H 	H 	0.41270 0.02360 0.14840 -0.01000
C 	C 	0.34240 0.01700 0.15210 -0.11500
H 	H 	0.34180 0.99370 0.17240 0.07900
N 	N 	0.45010 0.07760 0.05107 -0.27500
N 	N 	0.43030 0.85620 0.96181 -0.14200
N 	N 	0.38880 0.86280 0.91542 -0.13500
N 	N 	0.39720 0.00480 0.94499 -0.13800
N 	N 	0.45420 0.52480 0.91915 -0.27800
N 	N 	0.30630 0.11910 0.85490 -0.27700
N 	N 	0.22810 0.87800 0.28662 -0.27000
N 	N 	0.17590 0.99210 0.18328 -0.14000
N 	N 	0.21590 0.02920 0.13700 -0.13800
N 	N 	0.25880 0.98990 0.18134 -0.13900
N 	N 	0.04600 0.07060 0.11012 -0.26700
N 	N 	0.38650 0.07260 0.10984 -0.27200
I 	I 	0.51295 0.03828 0.12480 -0.36700
I 	I 	0.43644 0.30886 0.09380 -0.38600
I 	I 	0.29941 0.36612 0.81867 -0.37300
I 	I 	0.17980 0.18562 0.84374 -0.37600
I 	I 	0.43598 0.31660 0.86593 -0.36900
I 	I 	0.49824 0.30501 0.95922 -0.39400
Zn	Zn	0.45050 0.12772 0.09502 1.16300
Zn	Zn	0.26452 0.19843 0.82644 1.16500
Zn	Zn	0.48212 0.39157 0.90890 1.16300
C 	C 	0.95660 0.51730 0.95390 0.07300
H 	H 	0.96780 0.55620 0.93770 -0.01500
C 	C 	0.94790 0.56090 0.98130 -0.12500
H 	H 	0.95220 0.62860 0.98370 0.09500
C 	C 	0.93270 0.50410 0.00560 0.05800
C 	C 	0.92810 0.40490 0.00090 -0.12000
H 	H 	0.91850 0.36350 0.01690 0.08300
C 	C 	0.93770 0.36770 0.97260 0.07200
H 	H 	0.93530 0.29970 0.96980 -0.00600
C 	C 	0.91980 0.54990 0.03460 0.09400
C 	C 	0.91390 0.68240 0.06360 0.08800
C 	C 	0.88190 0.54340 0.07930 0.10100
C 	C 	0.92680 0.78540 0.06930 0.05300
C 	C 	0.95080 0.83940 0.04740 -0.12900
H 	H 	0.95820 0.81200 0.02820 0.09200
C 	C 	0.96350 0.93410 0.05430 0.07600
H 	H 	0.97950 0.97100 0.03930 -0.01100
C 	C 	0.93070 0.92330 0.10100 0.08400
H 	H 	0.92290 0.95340 0.11970 -0.00800
C 	C 	0.91670 0.82950 0.09680 -0.13500
H 	H 	0.90050 0.79550 0.11240 0.10000
C 	C 	0.85650 0.48720 0.10280 0.06700
C 	C 	0.83390 0.53120 0.12640 -0.13100
H 	H 	0.83550 0.59950 0.12870 0.08900
C 	C 	0.80910 0.47700 0.14670 0.08300
H 	H 	0.79300 0.50930 0.16260 -0.01600
C 	C 	0.82960 0.33660 0.12290 0.07100
H 	H 	0.82890 0.26800 0.12190 -0.01200
C 	C 	0.85460 0.38700 0.10110 -0.11500
H 	H 	0.87020 0.35350 0.08520 0.07700
C 	C 	0.68620 0.61200 0.72680 0.06700
H 	H 	0.65890 0.63000 0.71590 -0.00900
C 	C 	0.68090 0.57670 0.75590 -0.11700
H 	H 	0.65060 0.57020 0.76460 0.08000
C 	C 	0.71980 0.55130 0.77208 0.05000
C 	C 	0.76350 0.55850 0.75797 -0.10900
H 	H 	0.79110 0.54030 0.76850 0.08000
C 	C 	0.76620 0.59260 0.72850 0.05900
H 	H 	0.79590 0.59500 0.71870 0.00200
C 	C 	0.71750 0.52070 0.80411 0.10300
C 	C 	0.67680 0.48270 0.84604 0.10000
C 	C 	0.75590 0.48440 0.84785 0.10100
C 	C 	0.63120 0.46710 0.86161 0.05600
C 	C 	0.58910 0.47870 0.84630 -0.11600
H 	H 	0.58880 0.50020 0.82590 0.08100
C 	C 	0.54770 0.45860 0.86120 0.07600
H 	H 	0.51910 0.46590 0.85040 -0.01200
C 	C 	0.58660 0.42080 0.90520 0.06800
H 	H 	0.58560 0.40160 0.92590 -0.00800
C 	C 	0.62990 0.43890 0.89189 -0.11000
H 	H 	0.65800 0.43220 0.90320 0.07900
C 	C 	0.80070 0.46770 0.86390 0.05400
C 	C 	0.80310 0.43620 0.89330 -0.12600
H 	H 	0.77550 0.42860 0.90510 0.08100
C 	C 	0.84690 0.41580 0.90520 0.08000
H 	H 	0.84850 0.39200 0.92540 -0.01700
C 	C 	0.88430 0.46360 0.86210 0.05900
H 	H 	0.91270 0.47640 0.85160 -0.01000
C 	C 	0.84240 0.48300 0.84790 -0.11500
H 	H 	0.84180 0.50630 0.82760 0.08000
N 	N 	0.95010 0.42240 0.94893 -0.27500
N 	N 	0.93030 0.64380 0.03819 -0.14200
N 	N 	0.88880 0.63720 0.08458 -0.13500
N 	N 	0.89720 0.49520 0.05501 -0.13900
N 	N 	0.95420 0.97520 0.08085 -0.27800
N 	N 	0.80630 0.38090 0.14510 -0.27700
N 	N 	0.72810 0.62200 0.71338 -0.27000
N 	N 	0.67590 0.50790 0.81672 -0.13900
N 	N 	0.71590 0.47080 0.86300 -0.13800
N 	N 	0.75880 0.51010 0.81866 -0.13900
N 	N 	0.54600 0.42940 0.88988 -0.26800
N 	N 	0.88650 0.42740 0.89016 -0.27200
I 	I 	0.01295 0.46172 0.87520 -0.36600
I 	I 	0.93644 0.19114 0.90620 -0.38600
I 	I 	0.79941 0.13388 0.18133 -0.37400
I 	I 	0.67980 0.31438 0.15626 -0.37600
I 	I 	0.93598 0.18340 0.13407 -0.37000
I 	I 	0.99824 0.19499 0.04078 -0.39400
Zn	Zn	0.95050 0.37228 0.90498 1.16300
Zn	Zn	0.76452 0.30157 0.17356 1.16500
Zn	Zn	0.98212 0.10843 0.09110 1.16300
C 	C 	0.54340 0.48270 0.45390 0.07300
H 	H 	0.53220 0.44380 0.43770 -0.01500
C 	C 	0.55210 0.43910 0.48130 -0.12500
H 	H 	0.54780 0.37140 0.48370 0.09500
C 	C 	0.56730 0.49590 0.50560 0.05800
C 	C 	0.57190 0.59510 0.50090 -0.12000
H 	H 	0.58150 0.63650 0.51690 0.08300
C 	C 	0.56230 0.63230 0.47260 0.07200
H 	H 	0.56470 0.70030 0.46980 -0.00600
C 	C 	0.58020 0.45010 0.53460 0.09400
C 	C 	0.58610 0.31760 0.56360 0.08800
C 	C 	0.61810 0.45660 0.57930 0.10100
C 	C 	0.57320 0.21460 0.56930 0.05300
C 	C 	0.54920 0.16060 0.54740 -0.12900
H 	H 	0.54180 0.18800 0.52820 0.09200
C 	C 	0.53650 0.06590 0.55430 0.07600
H 	H 	0.52050 0.02900 0.53930 -0.01100
C 	C 	0.56930 0.07670 0.60100 0.08400
H 	H 	0.57710 0.04660 0.61970 -0.00800
C 	C 	0.58330 0.17050 0.59680 -0.13500
H 	H 	0.59950 0.20450 0.61240 0.10000
C 	C 	0.64350 0.51280 0.60280 0.06700
C 	C 	0.66610 0.46880 0.62640 -0.13100
H 	H 	0.66450 0.40050 0.62870 0.08900
C 	C 	0.69090 0.52300 0.64670 0.08300
H 	H 	0.70700 0.49070 0.66260 -0.01600
C 	C 	0.67040 0.66340 0.62290 0.07100
H 	H 	0.67110 0.73200 0.62190 -0.01200
C 	C 	0.64540 0.61300 0.60110 -0.11500
H 	H 	0.62980 0.64650 0.58520 0.07700
C 	C 	0.81380 0.38800 0.22680 0.06700
H 	H 	0.84110 0.37000 0.21590 -0.00900
C 	C 	0.81910 0.42330 0.25590 -0.11700
H 	H 	0.84940 0.42980 0.26460 0.08000
C 	C 	0.78020 0.44870 0.27208 0.05000
C 	C 	0.73650 0.44150 0.25797 -0.10900
H 	H 	0.70890 0.45970 0.26850 0.08000
C 	C 	0.73380 0.40740 0.22850 0.05900
H 	H 	0.70410 0.40500 0.21870 0.00200
C 	C 	0.78250 0.47930 0.30411 0.10300
C 	C 	0.82320 0.51730 0.34604 0.10000
C 	C 	0.74410 0.51560 0.34785 0.10100
C 	C 	0.86880 0.53290 0.36161 0.05600
C 	C 	0.91090 0.52130 0.34630 -0.11600
H 	H 	0.91120 0.49980 0.32590 0.08100
C 	C 	0.95230 0.54140 0.36120 0.07600
H 	H 	0.98090 0.53410 0.35040 -0.01200
C 	C 	0.91340 0.57920 0.40520 0.06800
H 	H 	0.91440 0.59840 0.42590 -0.00800
C 	C 	0.87010 0.56110 0.39189 -0.11000
H 	H 	0.84200 0.56780 0.40320 0.07900
C 	C 	0.69930 0.53230 0.36390 0.05400
C 	C 	0.69690 0.56380 0.39330 -0.12600
H 	H 	0.72450 0.57140 0.40510 0.08100
C 	C 	0.65310 0.58420 0.40520 0.08000
H 	H 	0.65150 0.60800 0.42540 -0.01700
C 	C 	0.61570 0.53640 0.36210 0.05900
H 	H 	0.58730 0.52360 0.35160 -0.01000
C 	C 	0.65760 0.51700 0.34790 -0.11500
H 	H 	0.65820 0.49370 0.32760 0.07900
N 	N 	0.54990 0.57760 0.44893 -0.27500
N 	N 	0.56970 0.35620 0.53819 -0.14200
N 	N 	0.61120 0.36280 0.58458 -0.13500
N 	N 	0.60280 0.50480 0.55501 -0.13900
N 	N 	0.54580 0.02480 0.58085 -0.27800
N 	N 	0.69370 0.61910 0.64510 -0.27700
N 	N 	0.77190 0.37800 0.21338 -0.27000
N 	N 	0.82410 0.49210 0.31672 -0.13900
N 	N 	0.78410 0.52920 0.36300 -0.13800
N 	N 	0.74120 0.48990 0.31866 -0.13900
N 	N 	0.95400 0.57060 0.38988 -0.26800
N 	N 	0.61350 0.57260 0.39016 -0.27200
I 	I 	0.48705 0.53828 0.37520 -0.36700
I 	I 	0.56356 0.80886 0.40620 -0.38600
I 	I 	0.70059 0.86612 0.68133 -0.37300
I 	I 	0.82020 0.68562 0.65626 -0.37600
I 	I 	0.56402 0.81660 0.63407 -0.36900
I 	I 	0.50176 0.80501 0.54078 -0.39400
Zn	Zn	0.54950 0.62772 0.40498 1.16300
Zn	Zn	0.73548 0.69843 0.67356 1.16500
Zn	Zn	0.51788 0.89157 0.59110 1.16300
C 	C 	0.95660 0.98270 0.45390 0.07400
H 	H 	0.96780 0.94380 0.43770 -0.01500
C 	C 	0.94790 0.93910 0.48130 -0.12600
H 	H 	0.95220 0.87140 0.48370 0.09500
C 	C 	0.93270 0.99590 0.50560 0.05900
C 	C 	0.92810 0.09510 0.50090 -0.12100
H 	H 	0.91850 0.13650 0.51690 0.08400
C 	C 	0.93770 0.13230 0.47260 0.07200
H 	H 	0.93530 0.20030 0.46980 -0.00600
C 	C 	0.91980 0.95010 0.53460 0.09500
C 	C 	0.91390 0.81760 0.56360 0.08900
C 	C 	0.88190 0.95660 0.57930 0.10200
C 	C 	0.92680 0.71460 0.56930 0.05300
C 	C 	0.95080 0.66060 0.54740 -0.12900
H 	H 	0.95820 0.68800 0.52820 0.09200
C 	C 	0.96350 0.56590 0.55430 0.07600
H 	H 	0.97950 0.52900 0.53930 -0.01100
C 	C 	0.93070 0.57670 0.60100 0.08400
H 	H 	0.92290 0.54660 0.61970 -0.00800
C 	C 	0.91670 0.67050 0.59680 -0.13500
H 	H 	0.90050 0.70450 0.61240 0.10000
C 	C 	0.85650 0.01280 0.60280 0.06500
C 	C 	0.83390 0.96880 0.62640 -0.12800
H 	H 	0.83550 0.90050 0.62870 0.08800
C 	C 	0.80910 0.02300 0.64670 0.08100
H 	H 	0.79300 0.99070 0.66260 -0.01500
C 	C 	0.82960 0.16340 0.62290 0.07000
H 	H 	0.82890 0.23200 0.62190 -0.01100
C 	C 	0.85460 0.11300 0.60110 -0.11400
H 	H 	0.87020 0.14650 0.58520 0.07700
C 	C 	0.68620 0.88800 0.22680 0.06700
H 	H 	0.65890 0.87000 0.21590 -0.00900
C 	C 	0.68090 0.92330 0.25590 -0.11700
H 	H 	0.65060 0.92980 0.26460 0.08000
C 	C 	0.71980 0.94870 0.27208 0.05000
C 	C 	0.76350 0.94150 0.25797 -0.10900
H 	H 	0.79110 0.95970 0.26850 0.08000
C 	C 	0.76620 0.90740 0.22850 0.05900
H 	H 	0.79590 0.90500 0.21870 0.00200
C 	C 	0.71750 0.97930 0.30411 0.10300
C 	C 	0.67680 0.01730 0.34604 0.10000
C 	C 	0.75590 0.01560 0.34785 0.10100
C 	C 	0.63120 0.03290 0.36161 0.05600
C 	C 	0.58910 0.02130 0.34630 -0.11700
H 	H 	0.58880 0.99980 0.32590 0.08200
C 	C 	0.54770 0.04140 0.36120 0.07600
H 	H 	0.51910 0.03410 0.35040 -0.01200
C 	C 	0.58660 0.07920 0.40520 0.06800
H 	H 	0.58560 0.09840 0.42590 -0.00800
C 	C 	0.62990 0.06110 0.39189 -0.11100
H 	H 	0.65800 0.06780 0.40320 0.07900
C 	C 	0.80070 0.03230 0.36390 0.05500
C 	C 	0.80310 0.06380 0.39330 -0.12700
H 	H 	0.77550 0.07140 0.40510 0.08100
C 	C 	0.84690 0.08420 0.40520 0.08100
H 	H 	0.84850 0.10800 0.42540 -0.01700
C 	C 	0.88430 0.03640 0.36210 0.06000
H 	H 	0.91270 0.02360 0.35160 -0.01100
C 	C 	0.84240 0.01700 0.34790 -0.11700
H 	H 	0.84180 0.99370 0.32760 0.08100
N 	N 	0.95010 0.07760 0.44893 -0.27500
N 	N 	0.93030 0.85620 0.53819 -0.14200
N 	N 	0.88880 0.86280 0.58458 -0.13500
N 	N 	0.89720 0.00480 0.55501 -0.13900
N 	N 	0.95420 0.52480 0.58085 -0.27800
N 	N 	0.80630 0.11910 0.64510 -0.27600
N 	N 	0.72810 0.87800 0.21338 -0.27000
N 	N 	0.67590 0.99210 0.31672 -0.13900
N 	N 	0.71590 0.02920 0.36300 -0.13800
N 	N 	0.75880 0.98990 0.31866 -0.13900
N 	N 	0.54600 0.07060 0.38988 -0.26800
N 	N 	0.88650 0.07260 0.39016 -0.27200
I 	I 	0.01295 0.03828 0.37520 -0.36600
I 	I 	0.93644 0.30886 0.40620 -0.38600
I 	I 	0.79941 0.36612 0.68133 -0.37300
I 	I 	0.67980 0.18562 0.65626 -0.37600
I 	I 	0.93598 0.31660 0.63407 -0.36900
I 	I 	0.99824 0.30501 0.54078 -0.39400
Zn	Zn	0.95050 0.12772 0.40498 1.16300
Zn	Zn	0.76452 0.19843 0.67356 1.16500
Zn	Zn	0.98212 0.39157 0.59110 1.16300
C 	C 	0.54340 0.01730 0.95390 0.07200
H 	H 	0.53220 0.05620 0.93770 -0.01500
C 	C 	0.55210 0.06090 0.98130 -0.12500
H 	H 	0.54780 0.12860 0.98370 0.09500
C 	C 	0.56730 0.00410 0.00560 0.05700
C 	C 	0.57190 0.90490 0.00090 -0.11900
H 	H 	0.58150 0.86350 0.01690 0.08300
C 	C 	0.56230 0.86770 0.97260 0.07200
H 	H 	0.56470 0.79970 0.96980 -0.00600
C 	C 	0.58020 0.04990 0.03460 0.09400
C 	C 	0.58610 0.18240 0.06360 0.08800
C 	C 	0.61810 0.04340 0.07930 0.10000
C 	C 	0.57320 0.28540 0.06930 0.05300
C 	C 	0.54920 0.33940 0.04740 -0.12900
H 	H 	0.54180 0.31200 0.02820 0.09200
C 	C 	0.53650 0.43410 0.05430 0.07600
H 	H 	0.52050 0.47100 0.03930 -0.01100
C 	C 	0.56930 0.42330 0.10100 0.08400
H 	H 	0.57710 0.45340 0.11970 -0.00800
C 	C 	0.58330 0.32950 0.09680 -0.13500
H 	H 	0.59950 0.29550 0.11240 0.10000
C 	C 	0.64350 0.98720 0.10280 0.06800
C 	C 	0.66610 0.03120 0.12640 -0.13300
H 	H 	0.66450 0.09950 0.12870 0.09000
C 	C 	0.69090 0.97700 0.14670 0.08500
H 	H 	0.70700 0.00930 0.16260 -0.01700
C 	C 	0.67040 0.83660 0.12290 0.07100
H 	H 	0.67110 0.76800 0.12190 -0.01200
C 	C 	0.64540 0.88700 0.10110 -0.11600
H 	H 	0.62980 0.85350 0.08520 0.07700
C 	C 	0.81380 0.11200 0.72680 0.06700
H 	H 	0.84110 0.13000 0.71590 -0.00900
C 	C 	0.81910 0.07670 0.75590 -0.11700
H 	H 	0.84940 0.07020 0.76460 0.08000
C 	C 	0.78020 0.05130 0.77208 0.05000
C 	C 	0.73650 0.05850 0.75797 -0.10900
H 	H 	0.70890 0.04030 0.76850 0.08000
C 	C 	0.73380 0.09260 0.72850 0.05900
H 	H 	0.70410 0.09500 0.71870 0.00200
C 	C 	0.78250 0.02070 0.80411 0.10300
C 	C 	0.82320 0.98270 0.84604 0.10100
C 	C 	0.74410 0.98440 0.84785 0.10200
C 	C 	0.86880 0.96710 0.86161 0.05500
C 	C 	0.91090 0.97870 0.84630 -0.11500
H 	H 	0.91120 0.00020 0.82590 0.08100
C 	C 	0.95230 0.95860 0.86120 0.07500
H 	H 	0.98090 0.96590 0.85040 -0.01100
C 	C 	0.91340 0.92080 0.90520 0.06800
H 	H 	0.91440 0.90160 0.92590 -0.00800
C 	C 	0.87010 0.93890 0.89189 -0.11000
H 	H 	0.84200 0.93220 0.90320 0.07900
C 	C 	0.69930 0.96770 0.86390 0.05400
C 	C 	0.69690 0.93620 0.89330 -0.12600
H 	H 	0.72450 0.92860 0.90510 0.08100
C 	C 	0.65310 0.91580 0.90520 0.08000
H 	H 	0.65150 0.89200 0.92540 -0.01700
C 	C 	0.61570 0.96360 0.86210 0.05900
H 	H 	0.58730 0.97640 0.85160 -0.01000
C 	C 	0.65760 0.98300 0.84790 -0.11500
H 	H 	0.65820 0.00630 0.82760 0.07900
N 	N 	0.54990 0.92240 0.94893 -0.27500
N 	N 	0.56970 0.14380 0.03819 -0.14200
N 	N 	0.61120 0.13720 0.08458 -0.13500
N 	N 	0.60280 0.99520 0.05501 -0.13800
N 	N 	0.54580 0.47520 0.08085 -0.27800
N 	N 	0.69370 0.88090 0.14510 -0.27700
N 	N 	0.77190 0.12200 0.71338 -0.27000
N 	N 	0.82410 0.00790 0.81672 -0.14000
N 	N 	0.78410 0.97080 0.86300 -0.13800
N 	N 	0.74120 0.01010 0.81866 -0.13900
N 	N 	0.95400 0.92940 0.88988 -0.26700
N 	N 	0.61350 0.92740 0.89016 -0.27200
I 	I 	0.48705 0.96172 0.87520 -0.36700
I 	I 	0.56356 0.69114 0.90620 -0.38600
I 	I 	0.70059 0.63388 0.18133 -0.37300
I 	I 	0.82020 0.81438 0.15626 -0.37600
I 	I 	0.56402 0.68340 0.13407 -0.36900
I 	I 	0.50176 0.69499 0.04078 -0.39400
Zn	Zn	0.54950 0.87228 0.90498 1.16300
Zn	Zn	0.73548 0.80157 0.17356 1.16500
Zn	Zn	0.51788 0.60843 0.09110 1.16300
C 	C 	0.04340 0.48270 0.04610 0.07300
H 	H 	0.03220 0.44380 0.06230 -0.01500
C 	C 	0.05210 0.43910 0.01870 -0.12500
H 	H 	0.04780 0.37140 0.01630 0.09500
C 	C 	0.06730 0.49590 0.99440 0.05800
C 	C 	0.07190 0.59510 0.99910 -0.12000
H 	H 	0.08150 0.63650 0.98310 0.08300
C 	C 	0.06230 0.63230 0.02740 0.07200
H 	H 	0.06470 0.70030 0.03020 -0.00600
C 	C 	0.08020 0.45010 0.96540 0.09400
C 	C 	0.08610 0.31760 0.93640 0.08800
C 	C 	0.11810 0.45660 0.92070 0.10100
C 	C 	0.07320 0.21460 0.93070 0.05300
C 	C 	0.04920 0.16060 0.95260 -0.12900
H 	H 	0.04180 0.18800 0.97180 0.09200
C 	C 	0.03650 0.06590 0.94570 0.07600
H 	H 	0.02050 0.02900 0.96070 -0.01100
C 	C 	0.06930 0.07670 0.89900 0.08400
H 	H 	0.07710 0.04660 0.88030 -0.00800
C 	C 	0.08330 0.17050 0.90320 -0.13500
H 	H 	0.09950 0.20450 0.88760 0.10000
C 	C 	0.14350 0.51280 0.89720 0.06700
C 	C 	0.16610 0.46880 0.87360 -0.13100
H 	H 	0.16450 0.40050 0.87130 0.08900
C 	C 	0.19090 0.52300 0.85330 0.08300
H 	H 	0.20700 0.49070 0.83740 -0.01600
C 	C 	0.17040 0.66340 0.87710 0.07100
H 	H 	0.17110 0.73200 0.87810 -0.01200
C 	C 	0.14540 0.61300 0.89890 -0.11500
H 	H 	0.12980 0.64650 0.91480 0.07700
C 	C 	0.31380 0.38800 0.27320 0.06700
H 	H 	0.34110 0.37000 0.28410 -0.00900
C 	C 	0.31910 0.42330 0.24410 -0.11700
H 	H 	0.34940 0.42980 0.23540 0.08000
C 	C 	0.28020 0.44870 0.22792 0.05000
C 	C 	0.23650 0.44150 0.24203 -0.10900
H 	H 	0.20890 0.45970 0.23150 0.08000
C 	C 	0.23380 0.40740 0.27150 0.05900
H 	H 	0.20410 0.40500 0.28130 0.00200
C 	C 	0.28250 0.47930 0.19589 0.10300
C 	C 	0.32320 0.51730 0.15396 0.10000
C 	C 	0.24410 0.51560 0.15215 0.10100
C 	C 	0.36880 0.53290 0.13839 0.05600
C 	C 	0.41090 0.52130 0.15370 -0.11600
H 	H 	0.41120 0.49980 0.17410 0.08100
C 	C 	0.45230 0.54140 0.13880 0.07600
H 	H 	0.48090 0.53410 0.14960 -0.01200
C 	C 	0.41340 0.57920 0.09480 0.06800
H 	H 	0.41440 0.59840 0.07410 -0.00800
C 	C 	0.37010 0.56110 0.10811 -0.11000
H 	H 	0.34200 0.56780 0.09680 0.07900
C 	C 	0.19930 0.53230 0.13610 0.05400
C 	C 	0.19690 0.56380 0.10670 -0.12600
H 	H 	0.22450 0.57140 0.09490 0.08100
C 	C 	0.15310 0.58420 0.09480 0.08000
H 	H 	0.15150 0.60800 0.07460 -0.01700
C 	C 	0.11570 0.53640 0.13790 0.05900
H 	H 	0.08730 0.52360 0.14840 -0.01000
C 	C 	0.15760 0.51700 0.15210 -0.11500
H 	H 	0.15820 0.49370 0.17240 0.08000
N 	N 	0.04990 0.57760 0.05107 -0.27500
N 	N 	0.06970 0.35620 0.96181 -0.14200
N 	N 	0.11120 0.36280 0.91542 -0.13500
N 	N 	0.10280 0.50480 0.94499 -0.13900
N 	N 	0.04580 0.02480 0.91915 -0.27800
N 	N 	0.19370 0.61910 0.85490 -0.27700
N 	N 	0.27190 0.37800 0.28662 -0.27000
N 	N 	0.32410 0.49210 0.18328 -0.13900
N 	N 	0.28410 0.52920 0.13700 -0.13800
N 	N 	0.24120 0.48990 0.18134 -0.13900
N 	N 	0.45400 0.57060 0.11012 -0.26800
N 	N 	0.11350 0.57260 0.10984 -0.27200
I 	I 	0.98705 0.53828 0.12480 -0.36600
I 	I 	0.06356 0.80886 0.09380 -0.38600
I 	I 	0.20059 0.86612 0.81867 -0.37400
I 	I 	0.32020 0.68562 0.84374 -0.37600
I 	I 	0.06402 0.81660 0.86593 -0.37000
I 	I 	0.00176 0.80501 0.95922 -0.39400
Zn	Zn	0.04950 0.62772 0.09502 1.16300
Zn	Zn	0.23548 0.69843 0.82644 1.16500
Zn	Zn	0.01788 0.89157 0.90890 1.16300
C 	C 	0.45660 0.51730 0.54610 0.07300
H 	H 	0.46780 0.55620 0.56230 -0.01500
C 	C 	0.44790 0.56090 0.51870 -0.12500
H 	H 	0.45220 0.62860 0.51630 0.09500
C 	C 	0.43270 0.50410 0.49440 0.05800
C 	C 	0.42810 0.40490 0.49910 -0.12000
H 	H 	0.41850 0.36350 0.48310 0.08300
C 	C 	0.43770 0.36770 0.52740 0.07200
H 	H 	0.43530 0.29970 0.53020 -0.00600
C 	C 	0.41980 0.54990 0.46540 0.09400
C 	C 	0.41390 0.68240 0.43640 0.08800
C 	C 	0.38190 0.54340 0.42070 0.10100
C 	C 	0.42680 0.78540 0.43070 0.05300
C 	C 	0.45080 0.83940 0.45260 -0.12900
H 	H 	0.45820 0.81200 0.47180 0.09200
C 	C 	0.46350 0.93410 0.44570 0.07600
H 	H 	0.47950 0.97100 0.46070 -0.01100
C 	C 	0.43070 0.92330 0.39900 0.08400
H 	H 	0.42290 0.95340 0.38030 -0.00800
C 	C 	0.41670 0.82950 0.40320 -0.13500
H 	H 	0.40050 0.79550 0.38760 0.10000
C 	C 	0.35650 0.48720 0.39720 0.06700
C 	C 	0.33390 0.53120 0.37360 -0.13100
H 	H 	0.33550 0.59950 0.37130 0.08900
C 	C 	0.30910 0.47700 0.35330 0.08300
H 	H 	0.29300 0.50930 0.33740 -0.01600
C 	C 	0.32960 0.33660 0.37710 0.07100
H 	H 	0.32890 0.26800 0.37810 -0.01200
C 	C 	0.35460 0.38700 0.39890 -0.11500
H 	H 	0.37020 0.35350 0.41480 0.07700
C 	C 	0.18620 0.61200 0.77320 0.06700
H 	H 	0.15890 0.63000 0.78410 -0.00900
C 	C 	0.18090 0.57670 0.74410 -0.11700
H 	H 	0.15060 0.57020 0.73540 0.08000
C 	C 	0.21980 0.55130 0.72792 0.05000
C 	C 	0.26350 0.55850 0.74203 -0.10900
H 	H 	0.29110 0.54030 0.73150 0.08000
C 	C 	0.26620 0.59260 0.77150 0.05900
H 	H 	0.29590 0.59500 0.78130 0.00200
C 	C 	0.21750 0.52070 0.69589 0.10300
C 	C 	0.17680 0.48270 0.65396 0.10000
C 	C 	0.25590 0.48440 0.65215 0.10100
C 	C 	0.13120 0.46710 0.63839 0.05600
C 	C 	0.08910 0.47870 0.65370 -0.11600
H 	H 	0.08880 0.50020 0.67410 0.08100
C 	C 	0.04770 0.45860 0.63880 0.07600
H 	H 	0.01910 0.46590 0.64960 -0.01200
C 	C 	0.08660 0.42080 0.59480 0.06800
H 	H 	0.08560 0.40160 0.57410 -0.00800
C 	C 	0.12990 0.43890 0.60811 -0.11000
H 	H 	0.15800 0.43220 0.59680 0.07900
C 	C 	0.30070 0.46770 0.63610 0.05400
C 	C 	0.30310 0.43620 0.60670 -0.12600
H 	H 	0.27550 0.42860 0.59490 0.08100
C 	C 	0.34690 0.41580 0.59480 0.08000
H 	H 	0.34850 0.39200 0.57460 -0.01700
C 	C 	0.38430 0.46360 0.63790 0.05900
H 	H 	0.41270 0.47640 0.64840 -0.01000
C 	C 	0.34240 0.48300 0.65210 -0.11500
H 	H 	0.34180 0.50630 0.67240 0.07900
N 	N 	0.45010 0.42240 0.55107 -0.27500
N 	N 	0.43030 0.64380 0.46181 -0.14200
N 	N 	0.38880 0.63720 0.41542 -0.13500
N 	N 	0.39720 0.49520 0.44499 -0.13900
N 	N 	0.45420 0.97520 0.41915 -0.27800
N 	N 	0.30630 0.38090 0.35490 -0.27700
N 	N 	0.22810 0.62200 0.78662 -0.27000
N 	N 	0.17590 0.50790 0.68328 -0.13900
N 	N 	0.21590 0.47080 0.63700 -0.13800
N 	N 	0.25880 0.51010 0.68134 -0.13900
N 	N 	0.04600 0.42940 0.61012 -0.26800
N 	N 	0.38650 0.42740 0.60984 -0.27200
I 	I 	0.51295 0.46172 0.62480 -0.36700
I 	I 	0.43644 0.19114 0.59380 -0.38600
I 	I 	0.29941 0.13388 0.31867 -0.37300
I 	I 	0.17980 0.31438 0.34374 -0.37600
I 	I 	0.43598 0.18340 0.36593 -0.36900
I 	I 	0.49824 0.19499 0.45922 -0.39400
Zn	Zn	0.45050 0.37228 0.59502 1.16300
Zn	Zn	0.26452 0.30157 0.32644 1.16500
Zn	Zn	0.48212 0.10843 0.40890 1.16300
