data_crystal

_cell_length_a 15.39040
_cell_length_b 15.39040
_cell_length_c 9.85860
_cell_angle_alpha 90.00000
_cell_angle_beta  90.00000
_cell_angle_gamma 90.00000

_symmetry_space_group_name_	'P 1'
_symmetry_space_group_name_H-M	'P 1'

loop_
_symmetry_equiv_pos_as_xyz
  x,y,z

loop_
_atom_site_label
_atom_site_type_symbol
_atom_site_fract_x
_atom_site_fract_y
_atom_site_fract_z
_atom_site_charge
C 	C 	0.19480 0.68790 0.12080 -0.21300
H 	H 	0.17770 0.71270 0.20490 0.10200
C 	C 	0.24440 0.61320 0.11970 0.16600
H 	H 	0.26200 0.58770 0.20310 -0.00800
O 	O 	0.37360 0.46940 0.12230 -0.57900
C 	C 	0.80520 0.31210 0.12080 -0.26100
H 	H 	0.82230 0.28730 0.20490 0.12700
C 	C 	0.75560 0.38680 0.11970 0.20600
H 	H 	0.73800 0.41230 0.20310 -0.01700
O 	O 	0.62640 0.53060 0.12230 -0.58000
C 	C 	0.31210 0.19480 0.12080 -0.19600
H 	H 	0.28730 0.17770 0.20490 0.09200
C 	C 	0.38680 0.24440 0.11970 0.15200
H 	H 	0.41230 0.26200 0.20310 -0.00300
O 	O 	0.53060 0.37360 0.12230 -0.57900
C 	C 	0.68790 0.80520 0.12080 -0.26800
H 	H 	0.71270 0.82230 0.20490 0.13100
C 	C 	0.61320 0.75560 0.11970 0.21100
H 	H 	0.58770 0.73800 0.20310 -0.01900
O 	O 	0.46940 0.62640 0.12230 -0.58100
C 	C 	0.80520 0.68790 0.37920 -0.27100
H 	H 	0.82230 0.71270 0.29510 0.13200
C 	C 	0.75560 0.61320 0.38030 0.21400
H 	H 	0.73800 0.58770 0.29690 -0.01900
O 	O 	0.62640 0.46940 0.37770 -0.58000
C 	C 	0.19480 0.31210 0.37920 -0.18900
H 	H 	0.17770 0.28730 0.29510 0.09000
C 	C 	0.24440 0.38680 0.38030 0.15000
H 	H 	0.26200 0.41230 0.29690 -0.00200
O 	O 	0.37360 0.53060 0.37770 -0.57800
C 	C 	0.68790 0.19480 0.37920 -0.21100
H 	H 	0.71270 0.17770 0.29510 0.10100
C 	C 	0.61320 0.24440 0.38030 0.16500
H 	H 	0.58770 0.26200 0.29690 -0.00700
O 	O 	0.46940 0.37360 0.37770 -0.57800
C 	C 	0.31210 0.80520 0.37920 -0.26100
H 	H 	0.28730 0.82230 0.29510 0.12700
C 	C 	0.38680 0.75560 0.38030 0.20700
H 	H 	0.41230 0.73800 0.29690 -0.01700
O 	O 	0.53060 0.62640 0.37770 -0.58000
C 	C 	0.80520 0.31210 0.87920 -0.26700
H 	H 	0.82230 0.28730 0.79510 0.12800
C 	C 	0.75560 0.38680 0.88030 0.20100
H 	H 	0.73800 0.41230 0.79690 -0.01600
O 	O 	0.62640 0.53060 0.87770 -0.58400
C 	C 	0.19480 0.68790 0.87920 -0.22100
H 	H 	0.17770 0.71270 0.79510 0.10200
C 	C 	0.24440 0.61320 0.88030 0.15900
H 	H 	0.26200 0.58770 0.79690 -0.00600
O 	O 	0.37360 0.46940 0.87770 -0.58500
C 	C 	0.68790 0.80520 0.87920 -0.27100
H 	H 	0.71270 0.82230 0.79510 0.13200
C 	C 	0.61320 0.75560 0.88030 0.20600
H 	H 	0.58770 0.73800 0.79690 -0.01800
O 	O 	0.46940 0.62640 0.87770 -0.58500
C 	C 	0.31210 0.19480 0.87920 -0.20500
H 	H 	0.28730 0.17770 0.79510 0.09300
C 	C 	0.38680 0.24440 0.88030 0.14500
H 	H 	0.41230 0.26200 0.79690 -0.00200
O 	O 	0.53060 0.37360 0.87770 -0.58400
C 	C 	0.19480 0.31210 0.62080 -0.18900
H 	H 	0.17770 0.28730 0.70490 0.08800
C 	C 	0.24440 0.38680 0.61970 0.14900
H 	H 	0.26200 0.41230 0.70310 -0.00300
O 	O 	0.37360 0.53060 0.62230 -0.57700
C 	C 	0.80520 0.68790 0.62080 -0.27100
H 	H 	0.82230 0.71270 0.70490 0.13100
C 	C 	0.75560 0.61320 0.61970 0.21400
H 	H 	0.73800 0.58770 0.70310 -0.02000
O 	O 	0.62640 0.46940 0.62230 -0.58000
C 	C 	0.31210 0.80520 0.62080 -0.26100
H 	H 	0.28730 0.82230 0.70490 0.12600
C 	C 	0.38680 0.75560 0.61970 0.20700
H 	H 	0.41230 0.73800 0.70310 -0.01800
O 	O 	0.53060 0.62640 0.62230 -0.58000
C 	C 	0.68790 0.19480 0.62080 -0.21100
H 	H 	0.71270 0.17770 0.70490 0.09900
C 	C 	0.61320 0.24440 0.61970 0.16500
H 	H 	0.58770 0.26200 0.70310 -0.00800
O 	O 	0.46940 0.37360 0.62230 -0.57800
Sm	Sm	0.50000 0.50000 0.25000 2.66100
Sm	Sm	0.50000 0.50000 0.75000 2.65900
S 	S 	0.32117 0.47399 -0.00000 0.80800
O 	O 	0.25300 0.41040 -0.00000 -0.33800
C 	C 	0.26840 0.57550 -0.00000 -0.24800
C 	C 	0.16970 0.72710 -0.00000 0.16500
C 	C 	0.25910 0.89450 -0.00000 -0.23500
H 	H 	0.29990 0.84810 -0.00000 0.14500
N 	N 	0.13040 0.97000 -0.00000 -0.34800
C 	C 	0.11710 0.80900 -0.00000 -0.14700
C 	C 	0.16350 0.88670 -0.00000 0.09800
C 	C 	0.02740 0.80370 -0.00000 -0.09600
C 	C 	0.27740 0.97990 -0.00000 0.26000
H 	H 	0.33390 0.00470 -0.00000 -0.09700
S 	S 	0.67883 0.52601 -0.00000 0.81700
O 	O 	0.74700 0.58960 -0.00000 -0.33800
C 	C 	0.73160 0.42450 -0.00000 -0.27200
C 	C 	0.83030 0.27290 -0.00000 0.23900
C 	C 	0.74090 0.10550 -0.00000 0.03300
H 	H 	0.70010 0.15190 -0.00000 0.04100
N 	N 	0.86960 0.03000 -0.00000 -0.47200
C 	C 	0.88290 0.19100 -0.00000 -0.27900
C 	C 	0.83650 0.11330 -0.00000 0.07800
C 	C 	0.97260 0.19630 -0.00000 0.31400
C 	C 	0.72260 0.02010 -0.00000 -0.36700
H 	H 	0.66610 0.99530 -0.00000 0.20800
S 	S 	0.52601 0.32117 -0.00000 0.80400
O 	O 	0.58960 0.25300 -0.00000 -0.33800
C 	C 	0.42450 0.26840 -0.00000 -0.23600
C 	C 	0.27290 0.16970 -0.00000 0.13800
C 	C 	0.10550 0.25910 -0.00000 0.09100
H 	H 	0.15190 0.29990 -0.00000 0.02000
N 	N 	0.03000 0.13040 -0.00000 -0.48300
C 	C 	0.19100 0.11710 -0.00000 -0.09900
C 	C 	0.11330 0.16350 -0.00000 -0.01200
C 	C 	0.19630 0.02740 -0.00000 -0.14200
C 	C 	0.02010 0.27740 -0.00000 -0.42100
H 	H 	0.99530 0.33390 -0.00000 0.23000
S 	S 	0.47399 0.67883 -0.00000 0.81900
O 	O 	0.41040 0.74700 -0.00000 -0.33700
C 	C 	0.57550 0.73160 -0.00000 -0.27700
C 	C 	0.72710 0.83030 -0.00000 0.24900
C 	C 	0.89450 0.74090 -0.00000 -0.24700
H 	H 	0.84810 0.70010 -0.00000 0.14900
N 	N 	0.97000 0.86960 -0.00000 -0.35900
C 	C 	0.80900 0.88290 -0.00000 -0.29700
C 	C 	0.88670 0.83650 -0.00000 0.16300
C 	C 	0.80370 0.97260 -0.00000 0.29300
C 	C 	0.97990 0.72260 -0.00000 0.22700
H 	H 	0.00470 0.66610 -0.00000 -0.08100
S 	S 	0.67883 0.47399 0.50000 0.81400
O 	O 	0.74700 0.41040 0.50000 -0.33700
C 	C 	0.73160 0.57550 0.50000 -0.28200
C 	C 	0.83030 0.72710 0.50000 0.24900
C 	C 	0.74090 0.89450 0.50000 -0.25800
H 	H 	0.70010 0.84810 0.50000 0.15300
N 	N 	0.86960 0.97000 0.50000 -0.35600
C 	C 	0.88290 0.80900 0.50000 -0.30300
C 	C 	0.83650 0.88670 0.50000 0.16800
C 	C 	0.97260 0.80370 0.50000 0.30500
C 	C 	0.72260 0.97990 0.50000 0.24700
H 	H 	0.66610 0.00470 0.50000 -0.09100
S 	S 	0.32117 0.52601 0.50000 0.79600
O 	O 	0.25300 0.58960 0.50000 -0.33900
C 	C 	0.26840 0.42450 0.50000 -0.24200
C 	C 	0.16970 0.27290 0.50000 0.12100
C 	C 	0.25910 0.10550 0.50000 0.10100
H 	H 	0.29990 0.15190 0.50000 0.01400
N 	N 	0.13040 0.03000 0.50000 -0.48800
C 	C 	0.11710 0.19100 0.50000 -0.09000
C 	C 	0.16350 0.11330 0.50000 -0.02100
C 	C 	0.02740 0.19630 0.50000 -0.15900
C 	C 	0.27740 0.02010 0.50000 -0.44200
H 	H 	0.33390 0.99530 0.50000 0.23900
S 	S 	0.47399 0.32117 0.50000 0.80000
O 	O 	0.41040 0.25300 0.50000 -0.33900
C 	C 	0.57550 0.26840 0.50000 -0.25300
C 	C 	0.72710 0.16970 0.50000 0.15400
C 	C 	0.89450 0.25910 0.50000 -0.24400
H 	H 	0.84810 0.29990 0.50000 0.14800
N 	N 	0.97000 0.13040 0.50000 -0.34500
C 	C 	0.80900 0.11710 0.50000 -0.14100
C 	C 	0.88670 0.16350 0.50000 0.09700
C 	C 	0.80370 0.02740 0.50000 -0.11000
C 	C 	0.97990 0.27740 0.50000 0.27900
H 	H 	0.00470 0.33390 0.50000 -0.10800
S 	S 	0.52601 0.67883 0.50000 0.81200
O 	O 	0.58960 0.74700 0.50000 -0.33800
C 	C 	0.42450 0.73160 0.50000 -0.27700
C 	C 	0.27290 0.83030 0.50000 0.23400
C 	C 	0.10550 0.74090 0.50000 0.04000
H 	H 	0.15190 0.70010 0.50000 0.03600
N 	N 	0.03000 0.86960 0.50000 -0.47600
C 	C 	0.19100 0.88290 0.50000 -0.28200
C 	C 	0.11330 0.83650 0.50000 0.07600
C 	C 	0.19630 0.97260 0.50000 0.32500
C 	C 	0.02010 0.72260 0.50000 -0.38600
H 	H 	0.99530 0.66610 0.50000 0.21600
O 	O 	0.00000 0.00000 0.25000 -1.18100
O 	O 	0.00000 0.00000 0.75000 -1.18600
V 	V 	0.00000 0.00000 0.08800 1.51000
V 	V 	0.00000 0.00000 0.41200 1.50700
V 	V 	0.00000 0.00000 0.91200 1.50200
V 	V 	-0.00000 0.00000 0.58800 1.50700
