data_crystal

_cell_length_a 31.87000
_cell_length_b 31.92420
_cell_length_c 31.92420
_cell_angle_alpha 70.49440
_cell_angle_beta  70.56320
_cell_angle_gamma 109.43700

_symmetry_space_group_name_	'P 1'
_symmetry_space_group_name_H-M	'P 1'

loop_
_symmetry_equiv_pos_as_xyz
  x,y,z

loop_
_atom_site_label
_atom_site_type_symbol
_atom_site_fract_x
_atom_site_fract_y
_atom_site_fract_z
_atom_site_charge
Zn	Zn	0.11628 0.05866 0.50015 1.20000
Zn	Zn	0.10629 0.55934 0.98703 1.23300
Zn	Zn	0.62661 0.02318 0.93031 1.22600
Zn	Zn	0.05762 0.44119 0.05866 1.19800
Zn	Zn	0.66292 0.47718 0.51292 1.22200
Zn	Zn	0.09332 0.98703 0.45363 1.23300
Zn	Zn	0.54695 0.45363 0.55934 1.22100
Zn	Zn	0.55692 0.93031 0.04651 1.23400
Zn	Zn	0.12942 0.49018 0.94057 1.25200
Zn	Zn	0.17584 0.51292 0.00990 1.20600
Zn	Zn	0.67497 0.00000 -0.00000 1.20300
Zn	Zn	0.06999 0.94057 0.56925 1.25100
Zn	Zn	0.18574 0.00990 0.47718 1.20600
Zn	Zn	0.61643 0.50015 0.44119 1.20800
Zn	Zn	0.63924 0.56925 0.49018 1.25000
Zn	Zn	0.60343 0.04651 0.02318 1.21300
H 	H 	0.31400 0.13090 0.44110 0.02100
H 	H 	0.21920 0.91670 0.54250 -0.10900
H 	H 	0.90690 0.10770 0.79880 0.07700
H 	H 	0.42140 0.35530 0.56580 0.01700
H 	H 	0.77750 0.67260 0.47230 -0.05300
H 	H 	0.08540 0.64230 0.86560 0.02600
H 	H 	0.20510 0.67760 0.85390 0.00600
H 	H 	0.26190 0.97390 0.20890 -0.45500
H 	H 	0.78200 0.02470 0.97240 -0.92500
H 	H 	0.70600 0.38940 0.32140 0.06400
H 	H 	0.82040 0.15460 0.13550 0.03500
H 	H 	0.34290 0.84840 0.25450 0.09400
H 	H 	0.54830 0.12540 0.83030 -0.82500
H 	H 	0.25830 0.32910 0.46460 0.08600
H 	H 	0.44590 0.78470 0.96760 0.12700
H 	H 	0.38070 0.20170 0.43090 0.06700
H 	H 	0.34290 0.30660 0.56240 0.08200
H 	H 	0.83040 0.27280 0.24830 0.01200
H 	H 	0.95860 0.79900 0.60850 0.02900
H 	H 	0.48340 0.01490 0.15790 -0.04600
H 	H 	0.46850 0.82720 0.01490 -0.03600
H 	H 	0.61920 0.47960 0.36530 0.26200
H 	H 	0.05900 0.85390 0.46850 0.00900
H 	H 	0.29440 0.96280 0.13360 -0.44000
H 	H 	0.98770 0.20760 0.33940 0.03800
H 	H 	0.23040 0.19330 0.55890 0.09700
H 	H 	0.48380 0.99830 0.97470 -3.56400
H 	H 	0.82870 0.66690 0.62940 0.02100
H 	H 	0.88380 0.72050 0.65450 0.08100
H 	H 	0.64130 0.15790 0.82720 0.06200
H 	H 	0.20050 0.68310 0.96010 1.11500
H 	H 	0.95590 0.13550 0.70990 0.03900
H 	H 	0.41350 0.96760 0.24770 0.12800
H 	H 	0.18310 0.42800 0.13090 0.02100
H 	H 	0.70890 0.54810 0.29940 0.02900
H 	H 	0.26840 0.89010 0.57290 0.18500
H 	H 	0.50030 0.32470 0.42430 0.09000
H 	H 	0.98720 0.56580 0.07890 0.01300
H 	H 	0.04160 0.13500 0.45010 0.01500
H 	H 	0.75510 0.44110 0.42800 0.02700
H 	H 	0.72120 0.69770 0.21390 0.07300
H 	H 	0.67630 0.38170 0.69040 0.07300
H 	H 	0.92460 0.42430 0.25100 0.09200
H 	H 	0.10490 0.85510 0.67260 -0.04800
H 	H 	0.20560 0.82730 0.36030 0.07100
H 	H 	0.86720 0.17270 0.94160 -0.17800
H 	H 	0.92290 0.93690 0.77450 0.07800
H 	H 	0.42290 0.04430 0.12540 -0.82200
H 	H 	0.28500 0.84970 0.30530 0.01800
H 	H 	0.49170 0.45010 0.41490 0.01900
H 	H 	0.24900 0.64900 0.86880 0.24900
H 	H 	0.24980 0.47230 0.85510 -0.05000
H 	H 	0.46670 0.04240 0.05660 1.73000
H 	H 	0.78010 0.45300 0.20760 0.03100
H 	H 	0.02740 0.32140 0.28920 0.06400
H 	H 	0.76960 0.94890 0.95720 0.53100
H 	H 	0.15960 0.59250 0.79900 0.02600
H 	H 	0.98250 0.81040 0.46430 0.07600
H 	H 	0.33620 0.77370 0.79310 0.02200
H 	H 	0.08220 0.68030 0.79110 0.08500
H 	H 	0.30250 0.54080 0.91670 -0.10900
H 	H 	0.81160 0.43090 0.36740 0.07000
H 	H 	0.79920 0.09350 0.10770 0.07100
H 	H 	0.07870 0.24830 0.47890 0.01500
H 	H 	0.18050 0.29010 0.46250 0.00800
H 	H 	0.16150 0.72880 0.61640 0.08500
H 	H 	0.52230 0.95390 0.88840 0.06400
H 	H 	0.77260 0.36480 0.29860 0.02900
H 	H 	0.43530 0.84500 0.84970 0.02200
H 	H 	0.53830 0.65450 0.62500 0.08100
H 	H 	0.94620 0.03640 0.86410 -0.16800
H 	H 	0.48550 0.02700 0.99830 -3.60400
H 	H 	0.82500 0.07970 0.87370 0.03900
H 	H 	0.51740 0.35680 0.68310 1.27500
H 	H 	0.38270 0.97770 0.96340 1.13700
H 	H 	0.59030 0.30530 0.84500 0.00200
H 	H 	0.28800 0.81720 0.97390 -0.47100
H 	H 	0.93510 0.21390 0.08840 0.07100
H 	H 	0.16670 0.75670 0.54140 0.01600
H 	H 	0.90530 0.56240 0.13100 0.07900
H 	H 	0.41070 0.88840 0.15770 0.05100
H 	H 	0.89810 0.03360 0.94470 0.53700
H 	H 	0.95100 0.86560 0.49210 0.02700
H 	H 	0.00800 0.17950 0.40790 0.08000
H 	H 	0.55760 0.47890 0.27280 0.01400
H 	H 	0.64790 0.63610 0.17050 0.07700
H 	H 	0.43270 0.65480 0.72880 0.08600
H 	H 	0.24680 0.85130 0.68110 0.07200
H 	H 	0.75730 0.00290 0.02470 -0.97500
H 	H 	0.86450 0.02170 0.03360 0.49300
H 	H 	0.66120 0.24770 0.78470 0.07300
H 	H 	0.81840 0.17050 0.19340 0.07500
H 	H 	0.36670 0.69040 0.92790 0.08400
H 	H 	0.74690 0.04750 0.80340 0.01600
H 	H 	0.65480 0.56180 0.21260 0.01700
H 	H 	0.56710 0.60850 0.59250 0.02600
H 	H 	0.06100 0.72430 0.52490 0.01900
H 	H 	0.32800 0.46290 0.82110 0.13300
H 	H 	0.45810 0.62940 0.70370 0.02200
H 	H 	0.41000 0.70190 0.75670 0.01800
H 	H 	0.42430 0.90100 0.04240 1.77400
H 	H 	0.16530 0.20180 0.40720 0.00700
H 	H 	0.81030 0.86410 0.09950 -0.16700
H 	H 	0.16180 0.70370 0.66690 0.02100
H 	H 	0.55030 0.80340 0.14910 0.02400
H 	H 	0.50800 0.52210 0.79930 0.08500
H 	H 	0.56590 0.36030 0.81240 0.07500
H 	H 	0.02970 0.36500 0.21040 0.02500
H 	H 	0.13960 0.15510 0.47960 0.26200
H 	H 	0.08150 0.29680 0.39750 0.07800
H 	H 	0.74530 0.04660 0.07970 0.02700
H 	H 	0.05700 0.76370 0.67080 0.08000
H 	H 	0.56250 0.43320 0.77370 0.02200
H 	H 	0.47080 0.20890 0.81720 -0.55200
H 	H 	0.98430 0.29080 0.08400 0.02900
H 	H 	0.14910 0.82110 0.71600 0.13600
H 	H 	0.55800 0.61250 0.30980 0.08800
H 	H 	0.98600 0.28860 0.93690 0.06900
H 	H 	0.26100 0.63440 0.03320 0.66000
H 	H 	0.40500 0.05890 0.97770 1.13500
H 	H 	0.42800 0.13360 0.90360 -0.42700
H 	H 	0.80880 0.94160 0.88570 -0.18200
H 	H 	0.17560 0.25100 0.32470 0.08800
H 	H 	0.86510 0.71600 0.46290 0.13500
H 	H 	0.41590 0.40790 0.41260 0.08000
H 	H 	0.17210 0.72530 0.81040 0.08000
H 	H 	0.16080 0.15250 0.54810 0.02700
H 	H 	0.57210 0.54460 0.34690 0.04600
H 	H 	0.30730 0.79930 0.67860 0.08500
H 	H 	0.55700 0.72830 0.18590 0.08100
H 	H 	0.01180 0.19340 0.63610 0.08100
H 	H 	0.06830 0.08400 0.62520 0.02900
H 	H 	0.82850 0.41260 0.17950 0.07800
H 	H 	0.64300 0.46250 0.24740 0.00600
H 	H 	0.69740 0.77450 0.28860 0.08200
H 	H 	0.82870 0.08580 0.72830 0.07800
H 	H 	0.89040 0.24740 0.29010 0.00100
H 	H 	0.69940 0.14910 0.04750 0.01200
H 	H 	0.82070 0.09390 0.94890 0.50100
H 	H 	0.58590 0.52490 0.75080 0.01900
H 	H 	0.86780 0.30980 0.07770 0.07900
H 	H 	0.21780 0.89450 0.45690 0.03600
H 	H 	0.98450 0.36530 0.15510 0.26500
H 	H 	0.37830 0.53700 0.89010 0.18500
H 	H 	0.76170 0.54250 0.54080 -0.11900
H 	H 	0.86740 0.21260 0.22560 0.01600
H 	H 	0.29420 0.03320 0.33240 0.63100
H 	H 	0.66990 0.70060 0.36650 0.03200
H 	H 	0.69870 0.87370 0.04660 0.03300
H 	H 	0.37830 0.81240 0.82730 0.07700
H 	H 	0.17900 0.36740 0.20170 0.06600
H 	H 	0.90660 0.41490 0.13500 0.01800
H 	H 	0.77790 0.61640 0.65480 0.08600
H 	H 	0.03710 0.24780 0.19330 0.10500
H 	H 	0.39550 0.46760 0.85130 0.07000
H 	H 	0.65000 0.58900 0.61330 0.05300
H 	H 	0.03630 0.13100 0.30660 0.07700
H 	H 	0.67470 0.45690 0.64860 0.03100
H 	H 	0.62660 0.33240 0.63440 0.75400
H 	H 	0.66470 0.42460 0.36500 0.02700
H 	H 	0.32330 0.64860 0.89450 0.03500
H 	H 	0.29330 0.56550 0.76370 0.07800
H 	H 	0.16330 0.62500 0.72050 0.07900
H 	H 	0.44310 0.49210 0.64230 0.01800
H 	H 	0.33670 0.75080 0.72430 0.01800
H 	H 	0.07120 0.29860 0.33660 0.02900
H 	H 	0.12930 0.79310 0.43320 0.01900
H 	H 	0.56840 0.15770 0.95390 0.08800
H 	H 	0.72780 0.67080 0.56550 0.08000
H 	H 	0.70810 0.54140 0.70190 0.01800
H 	H 	0.92920 0.20630 0.32910 0.09000
H 	H 	0.74900 0.79340 0.16170 0.04700
H 	H 	0.78930 0.55890 0.24780 0.09900
H 	H 	0.19170 0.95900 0.27830 -0.79900
H 	H 	0.60000 0.48220 0.64900 0.24800
H 	H 	0.52330 0.05660 0.90100 1.77000
H 	H 	0.87330 0.79110 0.52860 0.08400
H 	H 	0.24010 0.21040 0.42460 0.02600
H 	H 	0.74290 0.18590 0.08580 0.07600
H 	H 	0.78470 0.30570 0.29680 0.07700
H 	H 	0.09300 0.22560 0.56180 0.01900
H 	H 	0.92790 0.68110 0.46760 0.06700
H 	H 	0.06610 0.07890 0.35530 0.00600
H 	H 	0.72680 0.95720 0.09390 0.50700
H 	H 	0.84130 0.57290 0.53700 0.18100
H 	H 	0.95560 0.04490 0.79340 0.06100
H 	H 	0.37860 0.83030 0.04430 -0.83200
H 	H 	0.16060 0.96010 0.35680 1.06600
H 	H 	0.96930 0.93290 0.70060 0.02700
H 	H 	0.31660 0.28920 0.38940 0.06500
H 	H 	0.69450 0.88570 0.17270 -0.18200
H 	H 	0.29740 0.71920 0.03400 -0.57500
H 	H 	0.90980 0.09950 0.03640 -0.16800
H 	H 	0.84280 0.94470 0.02170 0.48400
H 	H 	0.06100 0.79770 0.58900 0.05200
H 	H 	0.02750 0.10850 0.54460 0.04500
H 	H 	0.96350 0.39100 0.20180 0.00800
H 	H 	0.03640 0.36650 0.93290 0.02600
H 	H 	0.47900 0.39750 0.30570 0.07600
H 	H 	0.44680 0.46430 0.72530 0.07700
H 	H 	0.49450 0.89710 0.84840 0.10000
H 	H 	0.33160 0.90360 0.96280 -0.43700
H 	H 	0.02350 0.08840 0.69770 0.07600
H 	H 	0.94550 0.07770 0.61250 0.07900
H 	H 	0.98590 0.67860 0.52210 0.07900
H 	H 	0.69350 0.62520 0.29080 0.03400
H 	H 	0.91900 0.34690 0.10850 0.04400
H 	H 	0.57820 0.24680 0.71920 -0.69400
H 	H 	0.40190 0.52860 0.68030 0.08300
H 	H 	0.52750 0.46850 0.67760 0.00300
H 	H 	0.57250 0.40720 0.39100 0.00800
H 	H 	0.72290 0.46460 0.20630 0.08300
H 	H 	0.11780 0.86880 0.48220 0.24800
H 	H 	0.66580 0.70990 0.15460 0.03600
H 	H 	0.32710 0.33940 0.45300 0.03200
H 	H 	0.34610 0.96340 0.05890 1.09100
H 	H 	0.00830 0.29940 0.15250 0.01100
H 	H 	0.26330 0.61330 0.79770 0.05300
H 	H 	0.91070 0.16170 0.04490 0.05500
H 	H 	0.47000 0.27830 0.76270 -0.99200
H 	H 	0.33140 0.03400 0.24680 -0.54800
H 	H 	0.70570 0.79880 0.09350 0.07300
H 	H 	0.75440 0.97240 0.00290 -0.93100
H 	H 	0.59740 0.25450 0.89710 0.07200
H 	H 	0.23270 0.76270 0.95900 -0.83400
H 	H 	0.29460 0.92790 0.38170 0.08300
H 	H 	0.40780 0.33660 0.36480 0.02900
H 	H 	0.45850 0.97470 0.02700 -3.61000
C 	C 	0.46332 0.52444 0.63798 0.06100
C 	C 	0.69840 0.74520 0.28810 -0.10900
C 	C 	0.61774 0.49944 0.68502 0.31200
C 	C 	0.03984 0.05333 0.65501 0.07900
C 	C 	0.83813 0.05071 0.99472 1.84700
C 	C 	0.86020 0.64480 0.50090 0.28700
C 	C 	0.43837 0.54730 0.66129 -0.13000
C 	C 	0.31596 0.25748 0.40220 -0.10900
C 	C 	0.89707 0.31079 0.12678 0.05100
C 	C 	0.29270 0.79080 0.99310 1.82500
C 	C 	0.26670 0.74610 0.99580 -2.48700
C 	C 	0.08200 0.78330 0.59350 0.02800
C 	C 	0.87579 0.09735 0.79778 -0.13500
C 	C 	0.42050 0.36660 0.53480 0.06500
C 	C 	0.01613 0.33486 0.96447 0.07600
C 	C 	0.60344 0.63051 0.23649 0.13400
C 	C 	0.38327 0.67414 0.75993 0.05100
C 	C 	0.27047 0.20983 0.42202 0.04500
C 	C 	0.06064 0.36815 0.20983 0.04600
C 	C 	0.82850 0.08240 0.75910 -0.12800
C 	C 	0.17886 0.18878 0.53230 0.06800
C 	C 	0.58760 0.75910 0.15850 -0.12500
C 	C 	0.27720 0.48510 0.86130 0.28900
C 	C 	0.83110 0.59630 0.52260 -0.45700
C 	C 	0.22164 0.21338 0.53776 -0.18100
C 	C 	0.36177 0.98027 0.07346 -2.72100
C 	C 	0.92926 0.31218 0.18790 0.34400
C 	C 	0.97793 0.73950 0.49351 0.10100
C 	C 	0.12116 0.22068 0.45020 -0.13200
C 	C 	0.58160 0.80320 0.13570 0.05300
C 	C 	0.13330 0.69280 0.69830 0.02400
C 	C 	0.75940 0.53776 0.24886 -0.18100
C 	C 	0.67550 0.59350 0.62320 0.02900
C 	C 	0.59330 0.39970 0.61020 -0.54400
C 	C 	0.14242 0.61181 0.79785 0.08000
C 	C 	0.41524 0.39611 0.44449 -0.15000
C 	C 	0.84442 0.67971 0.47935 -0.28600
C 	C 	0.30276 0.68502 0.81554 0.31300
C 	C 	0.65310 0.39000 0.70860 -0.11500
C 	C 	0.27609 0.71096 0.79099 -0.10700
C 	C 	0.06708 0.79099 0.49805 -0.10000
C 	C 	0.15130 0.40330 0.16170 0.03400
C 	C 	0.12038 0.65853 0.74899 0.08000
C 	C 	0.47144 0.49351 0.76699 0.10800
C 	C 	0.33580 0.68460 0.88040 0.03700
C 	C 	0.51074 0.51099 0.77487 -0.13300
C 	C 	0.16471 0.84094 0.67971 -0.28000
C 	C 	0.82098 0.32201 0.27837 -0.14500
C 	C 	0.40970 0.95250 0.22720 -0.21600
C 	C 	0.33062 0.98037 0.11931 1.59600
C 	C 	0.11716 0.18790 0.49992 0.33500
C 	C 	0.55820 0.51240 0.74490 0.04100
C 	C 	0.77890 0.42390 0.37060 -0.10200
C 	C 	0.26250 0.99580 0.25810 -2.37400
C 	C 	0.24828 0.26259 0.51425 0.16400
C 	C 	0.14905 0.22188 0.40493 0.05900
C 	C 	0.05484 0.00954 0.60522 0.38900
C 	C 	0.76253 0.51425 0.22316 0.16300
C 	C 	0.82860 0.96127 0.89577 0.71600
C 	C 	0.92717 0.37319 0.22188 0.06100
C 	C 	0.83993 0.23649 0.13300 0.13100
C 	C 	0.22600 0.50630 0.91940 0.59000
C 	C 	0.59383 0.32065 0.66156 -2.21400
C 	C 	0.40720 0.30536 0.38156 -0.00400
C 	C 	0.38150 0.94627 0.98027 -2.76700
C 	C 	0.62590 0.89340 0.06180 0.45700
C 	C 	0.23652 0.29282 0.48376 -0.16900
C 	C 	0.63097 0.17409 0.84528 0.00100
C 	C 	0.20570 0.73090 0.79230 -0.12300
C 	C 	0.66006 0.60522 0.38524 0.45400
C 	C 	0.39980 0.49770 0.82620 -0.10500
C 	C 	0.32377 0.47935 0.84094 -0.28000
C 	C 	0.81183 0.48394 0.18955 -0.01200
C 	C 	0.37705 0.85952 0.02627 2.71800
C 	C 	0.34120 0.75560 0.81970 0.03000
C 	C 	0.95530 0.53480 0.09860 0.06100
C 	C 	0.37980 0.76300 0.87870 0.10000
C 	C 	0.14950 0.37060 0.20550 -0.10400
C 	C 	0.52380 0.47950 0.70210 0.03600
C 	C 	0.85973 0.44449 0.15940 -0.15000
C 	C 	0.51093 0.43766 0.48967 0.54100
C 	C 	0.01519 0.33371 0.01234 -0.18000
C 	C 	0.99008 0.27892 0.18878 0.10200
C 	C 	0.61708 0.49992 0.31218 0.33600
C 	C 	0.23843 0.76699 0.73950 0.11000
C 	C 	0.37216 0.33689 0.53281 -0.12400
C 	C 	0.65120 0.43500 0.68460 0.03300
C 	C 	0.63537 0.71100 0.16989 -0.02500
C 	C 	0.15595 0.25079 0.35464 -0.16100
C 	C 	0.36033 0.25501 0.40252 0.05300
C 	C 	0.69249 0.42202 0.36815 0.04400
C 	C 	0.89294 0.09909 0.01697 0.55500
C 	C 	0.45380 0.83700 0.91520 0.17900
C 	C 	0.74424 0.93826 0.09554 -1.15200
C 	C 	0.03527 0.13030 0.33689 -0.13200
C 	C 	0.01679 0.15788 0.35631 0.09300
C 	C 	0.04430 0.81840 0.47950 0.02600
C 	C 	0.30730 0.52450 0.89680 0.51800
C 	C 	0.93888 0.83758 0.52444 0.05700
C 	C 	0.11190 0.74260 0.65120 0.13000
C 	C 	0.54520 0.52830 0.58160 0.43900
C 	C 	0.90798 0.44630 0.13076 0.09500
C 	C 	0.97510 0.10699 0.60369 -0.14000
C 	C 	0.99800 0.79230 0.47680 -0.11400
C 	C 	0.43040 0.02520 0.07180 -4.64800
C 	C 	0.95320 0.96670 0.74520 -0.05900
C 	C 	0.51640 0.54870 0.60920 -0.16400
C 	C 	0.32610 0.70690 0.84180 -0.11200
C 	C 	0.46168 0.42294 0.44630 0.10000
C 	C 	0.31300 0.16170 0.43500 0.03400
C 	C 	0.04530 0.38524 0.00954 0.38700
C 	C 	0.26310 0.90140 0.39000 -0.11200
C 	C 	0.16302 0.21801 0.50345 -0.13800
C 	C 	0.02753 0.01234 0.65395 -0.17700
C 	C 	0.40332 0.02627 0.11421 2.66600
C 	C 	0.74538 0.07648 0.07904 0.06600
C 	C 	0.26970 0.16481 0.43691 -0.12400
C 	C 	0.43513 0.00000 -0.00000 -7.87700
C 	C 	0.29547 0.01807 0.26906 1.71900
C 	C 	0.71970 0.57430 0.50630 0.59500
C 	C 	0.46185 0.59248 0.65853 0.08100
C 	C 	0.78280 0.57870 0.52450 0.52800
C 	C 	0.68770 0.06180 0.04480 0.46300
C 	C 	0.58560 0.42470 0.75560 0.02700
C 	C 	0.14000 0.74260 0.61250 -0.15700
C 	C 	0.36170 0.70860 0.90140 -0.11400
C 	C 	0.92787 0.19373 0.01432 -0.07600
C 	C 	0.86811 0.28932 0.10699 -0.14700
C 	C 	0.60180 0.23340 0.88290 -0.09300
C 	C 	0.49293 0.14298 0.85319 -1.21000
C 	C 	0.45688 0.98063 0.17409 0.20800
C 	C 	0.79385 0.88394 0.09909 0.59800
C 	C 	0.78876 0.38156 0.31308 -0.00200
C 	C 	0.57136 0.45020 0.32912 -0.13200
C 	C 	0.14320 0.75993 0.56593 0.05100
C 	C 	0.76720 0.60188 0.50928 -0.53900
C 	C 	0.60980 0.10090 0.92980 0.40700
C 	C 	0.51650 0.62210 0.63040 -0.13900
C 	C 	0.53061 0.59034 0.61181 0.08200
C 	C 	0.77844 0.10487 0.09735 -0.14200
C 	C 	0.16090 0.81970 0.42470 0.02600
C 	C 	0.34612 0.85319 0.00383 -1.29400
C 	C 	0.31280 0.88110 0.29530 0.03900
C 	C 	0.50270 0.28730 0.73750 3.18000
C 	C 	0.19646 0.97585 0.33517 -3.11500
C 	C 	0.22590 0.70210 0.81840 0.03700
C 	C 	0.86805 0.23231 0.19536 0.03600
C 	C 	0.61680 0.24780 0.83700 0.06700
C 	C 	0.72437 0.89577 0.14296 0.68700
C 	C 	0.22161 0.99370 0.34687 2.48900
C 	C 	0.35370 0.52260 0.88110 -0.44600
C 	C 	0.72028 0.48376 0.22342 -0.17000
C 	C 	0.50220 0.07180 0.90300 -4.74400
C 	C 	0.01448 0.17609 0.61705 -0.15100
C 	C 	0.36110 0.50090 0.85430 0.28400
C 	C 	0.14690 0.63040 0.74750 -0.13600
C 	C 	0.30310 0.74490 0.74270 0.04200
C 	C 	0.06341 0.19536 0.57233 0.03700
C 	C 	0.19076 0.26918 0.48070 0.06600
C 	C 	0.43170 0.82360 0.88110 0.04400
C 	C 	0.67146 0.48070 0.25012 0.06500
C 	C 	0.79210 0.65360 0.48510 0.29400
C 	C 	0.73250 0.04480 0.89340 0.46000
C 	C 	0.29870 0.62320 0.78330 0.02800
C 	C 	0.88006 0.01657 0.93169 -1.46600
C 	C 	0.76285 0.40252 0.34247 0.05400
C 	C 	0.34995 0.00383 0.14298 -1.28300
C 	C 	0.44993 0.11931 0.90032 1.55400
C 	C 	0.94027 0.79785 0.59034 0.07700
C 	C 	0.19360 0.99010 0.39970 -0.30000
C 	C 	0.35025 0.90032 0.98037 1.62900
C 	C 	0.51753 0.11421 0.85952 2.71400
C 	C 	0.83978 0.09554 0.96620 -1.17100
C 	C 	0.80526 0.16989 0.11911 -0.02900
C 	C 	0.21540 0.85430 0.64480 0.28600
C 	C 	0.40807 0.94232 0.00491 4.85700
C 	C 	0.77840 0.06110 0.80320 0.05200
C 	C 	0.95263 0.48890 0.09971 -0.19600
C 	C 	0.28561 0.77487 0.71414 -0.13300
C 	C 	0.83285 0.99472 0.95457 1.91400
C 	C 	0.41430 0.90680 0.17550 0.09000
C 	C 	0.36840 0.88370 0.23340 -0.18000
C 	C 	0.01265 0.05598 0.69963 -0.13500
C 	C 	0.63126 0.75670 0.14542 0.09200
C 	C 	0.78193 0.06323 0.84574 -0.15100
C 	C 	0.68127 0.70067 0.33486 0.03700
C 	C 	0.85423 0.36715 0.27686 0.13900
C 	C 	0.52060 0.25810 0.74610 -2.96700
C 	C 	0.95667 0.24439 0.05598 -0.12500
C 	C 	0.01690 0.89010 0.52830 0.43200
C 	C 	0.05390 0.09860 0.36660 0.06600
C 	C 	0.78742 0.95457 0.05071 1.76300
C 	C 	0.43523 0.07346 0.94627 -2.83000
C 	C 	0.20410 0.89680 0.57870 0.51900
C 	C 	0.13850 0.86130 0.65360 0.29100
C 	C 	0.61290 0.54679 0.28267 -0.09100
C 	C 	0.74800 0.43500 0.40330 0.03400
C 	C 	0.11682 0.78150 0.54994 -0.07200
C 	C 	0.89107 0.79141 0.54730 -0.12500
C 	C 	0.00060 0.48967 0.07267 0.53100
C 	C 	0.62767 0.84574 0.09103 -0.14800
C 	C 	0.98650 0.28810 0.96670 -0.04600
C 	C 	0.00826 0.24886 0.21338 -0.21900
C 	C 	0.87923 0.98558 0.87049 -0.35300
C 	C 	0.40520 0.90300 0.02520 -4.72800
C 	C 	0.12680 0.58160 0.89010 0.43600
C 	C 	0.22061 0.68898 0.97585 -3.26000
C 	C 	0.96770 0.84210 0.54870 -0.15300
C 	C 	0.90048 0.32912 0.22068 -0.13500
C 	C 	0.37310 0.35631 0.48581 0.09000
C 	C 	0.71816 0.40220 0.34032 -0.10700
C 	C 	0.90497 0.53281 0.13030 -0.12500
C 	C 	0.04580 0.74270 0.51240 0.02900
C 	C 	0.00138 0.18955 0.32651 -0.02400
C 	C 	0.90991 0.01697 0.88394 0.59000
C 	C 	0.28580 0.99310 0.21610 1.74900
C 	C 	0.09716 0.24806 0.44878 0.04600
C 	C 	0.02385 0.12678 0.56243 0.04300
C 	C 	0.98569 0.22316 0.26259 0.18800
C 	C 	0.16790 0.84180 0.45130 -0.11000
C 	C 	0.71228 0.69963 0.24439 -0.12300
C 	C 	0.83160 0.69830 0.60890 0.02500
C 	C 	0.36900 0.91520 0.24780 0.18600
C 	C 	0.76310 0.65120 0.60620 0.13100
C 	C 	0.25850 0.87870 0.35830 0.09600
C 	C 	0.57879 0.60369 0.28932 -0.14600
C 	C 	0.71116 0.53230 0.27892 0.06800
C 	C 	0.60810 0.29530 0.82360 0.09700
C 	C 	0.67357 0.79778 0.10487 -0.13300
C 	C 	0.50890 0.96930 0.10090 0.51800
C 	C 	0.94501 0.27854 0.21801 -0.15600
C 	C 	0.05234 0.09971 0.41139 -0.21100
C 	C 	0.16532 0.88884 0.60188 -0.52600
C 	C 	0.10184 0.31308 0.30536 -0.00300
C 	C 	0.66890 0.84448 0.07648 0.06600
C 	C 	0.11830 0.81554 0.49944 0.30900
C 	C 	0.10130 0.63798 0.83758 0.05900
C 	C 	0.70661 0.43691 0.39828 -0.12000
C 	C 	0.12560 0.60920 0.84210 -0.15900
C 	C 	0.89557 0.28267 0.17054 -0.09300
C 	C 	0.20910 0.84246 0.38086 -0.11300
C 	C 	0.01913 0.15940 0.39611 -0.15800
C 	C 	0.56453 0.26906 0.71287 2.20200
C 	C 	0.90516 0.39457 0.25079 -0.16200
C 	C 	0.74610 0.15850 0.08240 -0.13300
C 	C 	0.27740 0.71287 0.01807 1.80900
C 	C 	0.32789 0.32651 0.48394 -0.01100
C 	C 	0.97137 0.01291 0.74500 0.04300
C 	C 	0.55398 0.40493 0.37319 0.05900
C 	C 	0.47625 0.84528 0.98063 0.19700
C 	C 	0.63690 0.22720 0.82030 -0.07800
C 	C 	0.61920 0.45130 0.70690 -0.11100
C 	C 	0.66647 0.50345 0.27854 -0.13800
C 	C 	0.71730 0.13570 0.06110 0.05300
C 	C 	0.56848 0.34687 0.65943 2.97700
C 	C 	0.27648 0.50928 0.88884 -0.52600
C 	C 	0.58980 0.17550 0.91770 0.00300
C 	C 	0.68148 0.65395 0.33371 -0.13100
C 	C 	0.25539 0.66156 0.01779 -1.96600
C 	C 	0.10850 0.43270 0.11220 0.49700
C 	C 	0.86733 0.14296 0.96127 0.68400
C 	C 	0.21540 0.97520 0.28730 2.59500
C 	C 	0.10532 0.34247 0.25501 0.05400
C 	C 	0.75250 0.61250 0.64490 -0.15700
C 	C 	0.09935 0.27837 0.39962 -0.14300
C 	C 	0.33532 0.66856 0.78150 -0.07200
C 	C 	0.71870 0.09103 0.06323 -0.16300
C 	C 	0.46575 0.05277 0.94232 4.91600
C 	C 	0.89440 0.74750 0.62210 -0.13400
C 	C 	0.21620 0.88040 0.43500 0.03400
C 	C 	0.50540 0.89570 0.95020 -0.11500
C 	C 	0.50190 0.21610 0.79080 2.04200
C 	C 	0.74972 0.87049 0.14393 -0.39000
C 	C 	0.22070 0.11220 0.45510 0.49600
C 	C 	0.23480 0.88110 0.59630 -0.44700
C 	C 	0.66676 0.54994 0.66856 -0.07200
C 	C 	0.50750 0.91770 0.90680 0.08400
C 	C 	0.36664 0.77668 0.84246 -0.11500
C 	C 	0.87456 0.09788 0.75670 0.09200
C 	C 	0.98060 0.96447 0.70067 0.08800
C 	C 	0.94370 0.22342 0.29282 -0.18800
C 	C 	0.39740 0.64490 0.74260 -0.15600
C 	C 	0.99975 0.71414 0.51099 -0.12300
C 	C 	0.46373 0.41139 0.48890 -0.19900
C 	C 	0.83839 0.20686 0.17609 -0.14700
C 	C 	0.44050 0.60890 0.69280 0.02300
C 	C 	0.22600 0.82620 0.67610 -0.10700
C 	C 	0.63153 0.61705 0.20686 -0.14700
C 	C 	0.45720 0.82030 0.95250 -0.20500
C 	C 	0.05848 0.34032 0.25748 -0.10900
C 	C 	0.86937 0.74899 0.59248 0.08000
C 	C 	0.03874 0.13076 0.42294 0.10400
C 	C 	0.13109 0.27686 0.35599 0.13700
C 	C 	0.77668 0.14542 0.09788 0.09100
C 	C 	0.10489 0.39828 0.16481 -0.12500
C 	C 	0.22791 0.65943 0.99370 2.60800
C 	C 	0.80598 0.96620 0.93826 -1.20400
C 	C 	0.56513 0.49805 0.71096 -0.10700
C 	C 	0.27318 0.01779 0.32065 -1.88200
C 	C 	0.80537 0.00000 -0.00000 -3.10100
C 	C 	0.58628 0.56243 0.31079 0.05100
C 	C 	0.70913 0.56593 0.67414 0.05200
C 	C 	0.36930 0.60620 0.74260 0.12900
C 	C 	0.35500 0.20550 0.42390 -0.10400
C 	C 	0.72340 0.64340 0.59360 -0.11700
C 	C 	0.63574 0.57233 0.23231 0.03600
C 	C 	0.85891 0.48581 0.15788 0.08700
C 	C 	0.98651 0.29166 0.05333 0.08100
C 	C 	0.69485 0.65501 0.29166 0.06700
C 	C 	0.07327 0.07267 0.43766 0.54800
C 	C 	0.48470 0.88290 0.88370 -0.17000
C 	C 	0.47480 0.47680 0.73090 -0.12300
C 	C 	0.67580 0.45510 0.43270 0.49600
C 	C 	0.54594 0.44878 0.30316 0.04600
C 	C 	0.20350 0.61020 0.99010 -0.33700
C 	C 	0.53960 0.92980 0.96930 0.51100
C 	C 	0.14540 0.91940 0.57430 0.59000
C 	C 	0.89365 0.14393 0.98558 -0.33500
C 	C 	0.09966 0.66129 0.79141 -0.12700
C 	C 	0.60970 0.15410 0.89570 -0.01700
C 	C 	0.49897 0.39962 0.32201 -0.14400
C 	C 	0.71637 0.74500 0.24209 0.07600
C 	C 	0.48708 0.35599 0.36715 0.13700
C 	C 	0.41298 0.00491 0.05277 4.75700
C 	C 	0.53163 0.33517 0.68898 -3.76800
C 	C 	0.95846 0.24209 0.01291 0.02700
C 	C 	0.45560 0.95020 0.15410 -0.12800
C 	C 	0.51059 0.35464 0.39457 -0.16100
C 	C 	0.61680 0.35830 0.76300 0.09400
C 	C 	0.86349 0.05174 0.01657 -1.43200
C 	C 	0.92158 0.25012 0.26918 0.08200
C 	C 	0.06611 0.17054 0.54679 -0.08900
C 	C 	0.81175 0.93169 0.05174 -1.33000
C 	C 	0.84910 0.30316 0.24806 0.04800
C 	C 	0.31700 0.59360 0.76300 -0.11700
C 	C 	0.73414 0.79195 0.19373 -0.01900
C 	C 	0.90210 0.67610 0.49770 -0.10800
C 	C 	0.92437 0.11911 0.71100 -0.02600
C 	C 	0.97293 0.13300 0.63051 0.13600
C 	C 	0.08000 0.76300 0.64340 -0.11800
C 	C 	0.94219 0.01432 0.79195 -0.07700
C 	C 	0.82442 0.07904 0.84448 0.06400
C 	C 	0.24020 0.73750 0.97520 2.72100
C 	C 	0.58996 0.38086 0.77668 -0.11200
N 	N 	0.92479 0.19504 0.97717 -0.01400
N 	N 	0.44544 0.30679 0.38587 -0.12900
N 	N 	0.00579 0.19336 0.28589 -0.13600
N 	N 	0.80897 0.21236 0.11445 -0.12500
N 	N 	0.90196 0.97717 0.82779 -0.00900
N 	N 	0.81243 0.52075 0.19336 -0.13100
N 	N 	0.59661 0.67319 0.21236 -0.12200
N 	N 	0.92460 0.69880 0.50720 -0.08900
N 	N 	0.22580 0.79400 0.69880 -0.08900
N 	N 	0.41333 0.78676 0.90237 -0.13800
N 	N 	0.43180 0.50720 0.79400 -0.09000
N 	N 	0.80640 0.70310 0.59300 -0.13000
N 	N 	0.92342 0.11445 0.67319 -0.12400
N 	N 	0.83131 0.38587 0.30734 -0.12800
N 	N 	0.29168 0.28589 0.52075 -0.13000
N 	N 	0.62657 0.31087 0.78676 -0.15900
N 	N 	0.32248 0.00628 0.19064 -0.54800
N 	N 	0.10330 0.70390 0.70310 -0.13000
N 	N 	0.51312 0.19064 0.80308 -0.61700
N 	N 	0.31570 0.90237 0.31087 -0.13800
N 	N 	0.72975 0.82779 0.19504 -0.04600
N 	N 	0.31620 0.80308 0.00628 -0.56700
N 	N 	0.13865 0.30734 0.30679 -0.12900
N 	N 	0.39940 0.59300 0.70390 -0.13000
O 	O 	0.65884 0.07426 0.03644 -0.58300
O 	O 	0.08219 0.08364 0.46732 -0.57100
O 	O 	0.56659 0.97686 0.93479 -0.40600
O 	O 	0.61583 0.00000 -0.00000 -0.99000
O 	O 	0.61765 0.50406 0.34641 -0.49300
O 	O 	0.70071 0.03285 0.03403 -0.50400
O 	O 	0.46713 0.00000 -0.00000 11.40000
O 	O 	0.12110 0.50284 0.99490 -0.90500
O 	O 	0.11359 0.14953 0.50406 -0.49400
O 	O 	0.10691 0.58404 0.92761 -0.56400
O 	O 	0.65031 0.46498 0.41609 -0.56200
O 	O 	0.06640 0.41609 0.11893 -0.56900
O 	O 	0.69528 0.03644 0.88930 -0.56700
O 	O 	0.99855 0.44904 0.08364 -0.56000
O 	O 	0.03611 0.53088 0.04005 -0.61700
O 	O 	0.55224 0.40951 0.61419 -0.37900
O 	O 	0.18533 0.11893 0.46498 -0.56700
O 	O 	0.11600 0.99490 0.50226 -0.90400
O 	O 	0.14273 0.97630 0.40951 -0.40000
O 	O 	0.07935 0.42131 0.96698 -0.49000
O 	O 	0.50523 0.42907 0.53088 -0.59300
O 	O 	0.73474 0.03403 0.93312 -0.46700
O 	O 	0.26951 0.64601 0.84688 -0.48300
O 	O 	0.62350 0.50711 0.64601 -0.48300
O 	O 	0.54951 0.46732 0.44904 -0.56000
O 	O 	0.13892 0.54595 0.88919 -0.51500
O 	O 	0.22902 0.07813 0.46207 -0.60800
O 	O 	0.62394 0.08359 0.90337 -0.50600
O 	O 	0.50138 0.93479 0.08835 -0.43900
O 	O 	0.58973 0.08835 0.97686 -0.39200
O 	O 	0.10473 0.91705 0.59376 -0.59200
O 	O 	0.59297 0.56486 0.54595 -0.51800
O 	O 	0.08380 0.05113 0.56767 -0.50300
O 	O 	0.21194 0.00928 0.41696 -0.39300
O 	O 	0.52287 0.48835 0.58404 -0.57800
O 	O 	0.66786 0.93312 0.03285 -0.46600
O 	O 	0.62890 0.41696 0.57376 -0.26000
O 	O 	0.17643 0.94913 0.52594 -0.53200
O 	O 	0.77337 0.00000 -0.00000 3.21800
O 	O 	0.58458 0.88930 0.07426 -0.55700
O 	O 	0.61826 0.50226 0.50284 -0.93700
O 	O 	0.69849 0.59376 0.48919 -0.60000
O 	O 	0.65804 0.61171 0.42131 -0.54600
O 	O 	0.70237 0.52594 0.52493 -0.55500
O 	O 	0.03267 0.38120 0.05113 -0.50500
O 	O 	0.96406 0.34641 0.14953 -0.49700
O 	O 	0.52731 0.90337 0.01304 -0.56300
O 	O 	0.22730 0.52493 0.94913 -0.53200
O 	O 	0.65147 0.56767 0.38120 -0.51200
O 	O 	0.03452 0.92761 0.48835 -0.56400
O 	O 	0.69109 0.46207 0.45980 -0.59800
O 	O 	0.16643 0.61419 0.97630 -0.39500
O 	O 	0.11639 0.84688 0.50711 -0.48200
O 	O 	0.18768 0.48919 0.91705 -0.59300
O 	O 	0.20266 0.57376 0.00928 -0.38000
O 	O 	0.07616 0.04005 0.42907 -0.62100
O 	O 	0.02811 0.88919 0.56486 -0.51500
O 	O 	0.54035 0.01304 0.08359 -0.58400
O 	O 	0.15089 0.45980 0.07813 -0.60900
O 	O 	0.04633 0.96698 0.61171 -0.49000
