data_crystal

_cell_length_a 10.39120
_cell_length_b 11.87230
_cell_length_c 11.87900
_cell_angle_alpha 82.37900
_cell_angle_beta  87.72500
_cell_angle_gamma 81.66600

_symmetry_space_group_name_	'P 1'
_symmetry_space_group_name_H-M	'P 1'

loop_
_symmetry_equiv_pos_as_xyz
  x,y,z

loop_
_atom_site_label
_atom_site_type_symbol
_atom_site_fract_x
_atom_site_fract_y
_atom_site_fract_z
_atom_site_charge
Nd	Nd	0.98104 0.07738 0.23929 2.23400
P 	P 	0.70199 0.31665 0.27806 0.49600
P 	P 	0.11861 0.11678 0.50462 0.48700
P 	P 	0.84630 0.10744 0.96536 0.49800
O 	O 	0.79990 0.21570 0.25910 -0.50300
O 	O 	0.56440 0.30120 0.24470 -0.46500
H 	H 	0.55130 0.33030 0.17880 0.26600
O 	O 	0.73910 0.42950 0.22010 -0.25400
O 	O 	0.82090 0.33060 0.46830 -0.33500
H 	H 	0.81960 0.32890 0.53750 0.22200
O 	O 	0.08170 0.07310 0.62400 -0.46700
O 	O 	0.01090 0.15360 0.42080 -0.43900
O 	O 	0.19810 0.21940 0.51150 -0.43100
H 	H 	0.20250 0.25640 0.44840 0.24700
O 	O 	0.20440 0.00980 0.33000 -0.53900
H 	H 	0.24510 0.94660 0.31310 0.25100
O 	O 	0.89400 0.07030 0.85340 -0.48900
O 	O 	0.94410 0.14110 0.03970 -0.50100
O 	O 	0.73340 0.20940 0.94000 -0.44900
H 	H 	0.75590 0.26840 0.95680 0.26200
O 	O 	0.79830 0.99000 0.16380 -0.54400
H 	H 	0.75690 0.94850 0.21130 0.27000
C 	C 	0.69440 0.31990 0.43140 -0.00800
H 	H 	0.67120 0.24630 0.46790 0.03800
C 	C 	0.59520 0.41420 0.46790 0.04000
C 	C 	0.47430 0.38880 0.50310 -0.05900
H 	H 	0.45620 0.31410 0.50520 0.06500
C 	C 	0.62180 0.52670 0.46420 -0.05600
H 	H 	0.70340 0.54500 0.44000 0.07700
C 	C 	0.22770 0.99990 0.44880 0.00200
H 	H 	0.20260 0.92680 0.48460 0.01000
C 	C 	0.36950 0.00040 0.47390 0.02400
C 	C 	0.41460 0.95830 0.58220 -0.05200
H 	H 	0.35780 0.93020 0.63800 0.04300
C 	C 	0.45570 0.04210 0.39260 -0.05500
H 	H 	0.42660 0.07090 0.32000 0.05700
C 	C 	0.77430 0.98740 0.04590 0.05400
H 	H 	0.82010 0.91540 0.02350 -0.00100
C 	C 	0.63110 0.99290 0.02380 0.01600
C 	C 	0.53900 0.06320 0.07920 -0.06000
H 	H 	0.56490 0.10570 0.13250 0.06300
C 	C 	0.59220 0.92930 0.94460 -0.04100
H 	H 	0.65380 0.88160 0.90740 0.02400
Nd	Nd	0.01896 0.92262 0.76071 2.23500
P 	P 	0.29801 0.68335 0.72194 0.49700
P 	P 	0.88139 0.88322 0.49538 0.48800
P 	P 	0.15370 0.89256 0.03464 0.49900
O 	O 	0.20010 0.78430 0.74090 -0.50300
O 	O 	0.43560 0.69880 0.75530 -0.46500
H 	H 	0.44870 0.66970 0.82120 0.26600
O 	O 	0.26090 0.57050 0.77990 -0.25400
O 	O 	0.17910 0.66940 0.53170 -0.33500
H 	H 	0.18040 0.67110 0.46250 0.22200
O 	O 	0.91830 0.92690 0.37600 -0.46700
O 	O 	0.98910 0.84640 0.57920 -0.43900
O 	O 	0.80190 0.78060 0.48850 -0.43100
H 	H 	0.79750 0.74360 0.55160 0.24700
O 	O 	0.79560 0.99020 0.67000 -0.53900
H 	H 	0.75490 0.05340 0.68690 0.25100
O 	O 	0.10600 0.92970 0.14660 -0.48900
O 	O 	0.05590 0.85890 0.96030 -0.50100
O 	O 	0.26660 0.79060 0.06000 -0.44900
H 	H 	0.24410 0.73160 0.04320 0.26200
O 	O 	0.20170 0.01000 0.83620 -0.54400
H 	H 	0.24310 0.05150 0.78870 0.27000
C 	C 	0.30560 0.68010 0.56860 -0.00800
H 	H 	0.32880 0.75370 0.53210 0.03800
C 	C 	0.40480 0.58580 0.53210 0.04000
C 	C 	0.52570 0.61120 0.49690 -0.05900
H 	H 	0.54380 0.68590 0.49480 0.06500
C 	C 	0.37820 0.47330 0.53580 -0.05600
H 	H 	0.29660 0.45500 0.56000 0.07700
C 	C 	0.77230 0.00010 0.55120 0.00200
H 	H 	0.79740 0.07320 0.51540 0.01000
C 	C 	0.63050 0.99960 0.52610 0.02400
C 	C 	0.58540 0.04170 0.41780 -0.05200
H 	H 	0.64220 0.06980 0.36200 0.04300
C 	C 	0.54430 0.95790 0.60740 -0.05500
H 	H 	0.57340 0.92910 0.68000 0.05700
C 	C 	0.22570 0.01260 0.95410 0.05400
H 	H 	0.17990 0.08460 0.97650 -0.00100
C 	C 	0.36890 0.00710 0.97620 0.01600
C 	C 	0.46100 0.93680 0.92080 -0.06000
H 	H 	0.43510 0.89430 0.86750 0.06300
C 	C 	0.40780 0.07070 0.05540 -0.04100
H 	H 	0.34620 0.11840 0.09260 0.02400
