data_crystal

_cell_length_a 10.35000
_cell_length_b 11.94000
_cell_length_c 12.75000
_cell_angle_alpha 104.97000
_cell_angle_beta  90.47000
_cell_angle_gamma 93.06000

_symmetry_space_group_name_	'P 1'
_symmetry_space_group_name_H-M	'P 1'

loop_
_symmetry_equiv_pos_as_xyz
  x,y,z

loop_
_atom_site_label
_atom_site_type_symbol
_atom_site_fract_x
_atom_site_fract_y
_atom_site_fract_z
_atom_site_charge
La	La	0.99934 0.72733 0.92058 1.66600
P 	P 	0.19960 0.64110 0.66880 0.44400
P 	P 	0.13480 0.45160 0.89890 0.40700
P 	P 	0.85750 0.99080 0.89450 0.38900
O 	O 	0.14930 0.71760 0.77370 -0.38600
O 	O 	0.15130 0.68430 0.57230 -0.42100
H 	H 	0.11370 0.74420 0.59510 0.27100
O 	O 	0.17190 0.51210 0.64690 -0.21000
O 	O 	0.40970 0.78280 0.67170 -0.33200
H 	H 	0.48880 0.79240 0.67330 0.22600
O 	O 	0.22710 0.41440 0.80060 -0.19800
O 	O 	0.02860 0.51540 0.86880 -0.37800
O 	O 	0.09200 0.33220 0.93460 -0.57500
H 	H 	0.03930 0.29880 0.88320 0.25000
O 	O 	0.21020 0.66620 0.99790 -0.43400
H 	H 	0.22170 0.71080 0.06140 0.21500
O 	O 	0.75710 0.98510 0.79980 -0.20800
O 	O 	0.95500 0.90260 0.85400 -0.36800
O 	O 	0.90390 0.12130 0.93490 -0.39300
H 	H 	0.94470 0.13210 0.99230 0.00700
O 	O 	0.78800 0.82730 0.98980 -0.47400
H 	H 	0.77370 0.81410 0.05110 0.24300
C 	C 	0.37410 0.66630 0.67480 0.00200
H 	H 	0.40580 0.65560 0.74400 0.03800
C 	C 	0.43890 0.57640 0.58070 0.04400
C 	C 	0.49970 0.48760 0.60380 -0.05600
H 	H 	0.50170 0.47960 0.67440 0.06200
C 	C 	0.44200 0.58990 0.47680 -0.05200
H 	H 	0.40410 0.65290 0.46150 0.08000
C 	C 	0.22960 0.55260 0.00740 0.00400
H 	H 	0.19470 0.54590 0.07690 0.01500
C 	C 	0.37130 0.52770 0.00660 0.02700
C 	C 	0.41590 0.44610 0.05700 -0.05000
H 	H 	0.35930 0.40950 0.09550 0.03500
C 	C 	0.45820 0.57970 0.95040 -0.04600
H 	H 	0.42970 0.63420 0.91630 0.06200
C 	C 	0.77040 0.94850 0.00270 0.01700
H 	H 	0.81030 0.99200 0.07230 0.02200
C 	C 	0.62850 0.97480 0.00310 0.03300
C 	C 	0.53910 0.89420 0.94060 -0.04300
H 	H 	0.56520 0.82270 0.90040 0.05800
C 	C 	0.59100 0.07910 0.06200 -0.05700
H 	H 	0.65150 0.13290 0.10400 0.06300
La	La	0.00066 0.27267 0.07942 1.66700
P 	P 	0.80040 0.35890 0.33120 0.44500
P 	P 	0.86520 0.54840 0.10110 0.40700
P 	P 	0.14250 0.00920 0.10550 0.38900
O 	O 	0.85070 0.28240 0.22630 -0.38600
O 	O 	0.84870 0.31570 0.42770 -0.42100
H 	H 	0.88630 0.25580 0.40490 0.27100
O 	O 	0.82810 0.48790 0.35310 -0.21000
O 	O 	0.59030 0.21720 0.32830 -0.33200
H 	H 	0.51120 0.20760 0.32670 0.22600
O 	O 	0.77290 0.58560 0.19940 -0.19800
O 	O 	0.97140 0.48460 0.13120 -0.37800
O 	O 	0.90800 0.66780 0.06540 -0.57500
H 	H 	0.96070 0.70120 0.11680 0.25000
O 	O 	0.78980 0.33380 0.00210 -0.43400
H 	H 	0.77830 0.28920 0.93860 0.21500
O 	O 	0.24290 0.01490 0.20020 -0.20800
O 	O 	0.04500 0.09740 0.14600 -0.36800
O 	O 	0.09610 0.87870 0.06510 -0.39300
H 	H 	0.05530 0.86790 0.00770 0.00700
O 	O 	0.21200 0.17270 0.01020 -0.47400
H 	H 	0.22630 0.18590 0.94890 0.24300
C 	C 	0.62590 0.33370 0.32520 0.00200
H 	H 	0.59420 0.34440 0.25600 0.03800
C 	C 	0.56110 0.42360 0.41930 0.04400
C 	C 	0.50030 0.51240 0.39620 -0.05600
H 	H 	0.49830 0.52040 0.32560 0.06200
C 	C 	0.55800 0.41010 0.52320 -0.05200
H 	H 	0.59590 0.34710 0.53850 0.08000
C 	C 	0.77040 0.44740 0.99260 0.00400
H 	H 	0.80530 0.45410 0.92310 0.01500
C 	C 	0.62870 0.47230 0.99340 0.02700
C 	C 	0.58410 0.55390 0.94300 -0.05000
H 	H 	0.64070 0.59050 0.90450 0.03500
C 	C 	0.54180 0.42030 0.04960 -0.04600
H 	H 	0.57030 0.36580 0.08370 0.06200
C 	C 	0.22960 0.05150 0.99730 0.01700
H 	H 	0.18970 0.00800 0.92770 0.02200
C 	C 	0.37150 0.02520 0.99690 0.03300
C 	C 	0.46090 0.10580 0.05940 -0.04300
H 	H 	0.43480 0.17730 0.09960 0.05800
C 	C 	0.40900 0.92090 0.93800 -0.05700
H 	H 	0.34850 0.86710 0.89600 0.06300
