data_crystal

_cell_length_a 39.20060
_cell_length_b 39.20060
_cell_length_c 39.20060
_cell_angle_alpha 90.00000
_cell_angle_beta  90.00000
_cell_angle_gamma 90.00000

_symmetry_space_group_name_	'P 1'
_symmetry_space_group_name_H-M	'P 1'

loop_
_symmetry_equiv_pos_as_xyz
  x,y,z

loop_
_atom_site_label
_atom_site_type_symbol
_atom_site_fract_x
_atom_site_fract_y
_atom_site_fract_z
_atom_site_charge
S 	S 	0.62990 0.60091 0.70936 0.03400
O 	O 	0.65596 0.54092 0.74589 -0.42900
O 	O 	0.70520 0.53515 0.71830 -0.50100
C 	C 	0.67652 0.54892 0.72254 0.34800
C 	C 	0.66652 0.57756 0.69992 -0.09600
C 	C 	0.68545 0.58877 0.67043 -0.04300
H 	H 	0.70590 0.57910 0.66180 0.04800
C 	C 	0.66670 0.61814 0.65646 0.02300
C 	C 	0.63770 0.62744 0.67547 -0.02900
S 	S 	0.62990 0.10091 0.20936 0.03100
O 	O 	0.65596 0.04092 0.24589 -0.43400
O 	O 	0.70520 0.03515 0.21830 -0.50500
C 	C 	0.67652 0.04892 0.22254 0.34800
C 	C 	0.66652 0.07756 0.19992 -0.09700
C 	C 	0.68545 0.08877 0.17043 -0.04400
H 	H 	0.70590 0.07910 0.16180 0.04700
C 	C 	0.66670 0.11814 0.15646 0.02200
C 	C 	0.63770 0.12744 0.17547 -0.02900
S 	S 	0.12990 0.60091 0.20936 0.03100
O 	O 	0.15596 0.54092 0.24589 -0.43100
O 	O 	0.20520 0.53515 0.21830 -0.50100
C 	C 	0.17652 0.54892 0.22254 0.34800
C 	C 	0.16652 0.57756 0.19992 -0.09600
C 	C 	0.18545 0.58877 0.17043 -0.04300
H 	H 	0.20590 0.57910 0.16180 0.04700
C 	C 	0.16670 0.61814 0.15646 0.02200
C 	C 	0.13770 0.62744 0.17547 -0.02900
S 	S 	0.12990 0.10091 0.70936 0.03000
O 	O 	0.15596 0.04092 0.74589 -0.43500
O 	O 	0.20520 0.03515 0.71830 -0.50500
C 	C 	0.17652 0.04892 0.72254 0.34800
C 	C 	0.16652 0.07756 0.69992 -0.09700
C 	C 	0.18545 0.08877 0.67043 -0.04400
H 	H 	0.20590 0.07910 0.66180 0.04700
C 	C 	0.16670 0.11814 0.65646 0.02200
C 	C 	0.13770 0.12744 0.67547 -0.02900
S 	S 	0.37010 0.39909 0.70936 0.03400
O 	O 	0.34404 0.45908 0.74589 -0.42900
O 	O 	0.29480 0.46485 0.71830 -0.50100
C 	C 	0.32348 0.45108 0.72254 0.34800
C 	C 	0.33348 0.42244 0.69992 -0.09600
C 	C 	0.31455 0.41123 0.67043 -0.04300
H 	H 	0.29410 0.42090 0.66180 0.04800
C 	C 	0.33330 0.38186 0.65646 0.02300
C 	C 	0.36230 0.37256 0.67547 -0.02900
S 	S 	0.37010 0.89909 0.20936 0.03600
O 	O 	0.34404 0.95908 0.24589 -0.42200
O 	O 	0.29480 0.96485 0.21830 -0.49300
C 	C 	0.32348 0.95108 0.22254 0.34700
C 	C 	0.33348 0.92244 0.19992 -0.09500
C 	C 	0.31455 0.91123 0.17043 -0.04300
H 	H 	0.29410 0.92090 0.16180 0.05000
C 	C 	0.33330 0.88186 0.15646 0.02500
C 	C 	0.36230 0.87256 0.17547 -0.02800
S 	S 	0.87010 0.39909 0.20936 0.03700
O 	O 	0.84404 0.45908 0.24589 -0.42800
O 	O 	0.79480 0.46485 0.21830 -0.50000
C 	C 	0.82348 0.45108 0.22254 0.34900
C 	C 	0.83348 0.42244 0.19992 -0.09500
C 	C 	0.81455 0.41123 0.17043 -0.04200
H 	H 	0.79410 0.42090 0.16180 0.04900
C 	C 	0.83330 0.38186 0.15646 0.02400
C 	C 	0.86230 0.37256 0.17547 -0.02800
S 	S 	0.87010 0.89909 0.70936 0.04000
O 	O 	0.84404 0.95908 0.74589 -0.42000
O 	O 	0.79480 0.96485 0.71830 -0.49200
C 	C 	0.82348 0.95108 0.72254 0.34800
C 	C 	0.83348 0.92244 0.69992 -0.09300
C 	C 	0.81455 0.91123 0.67043 -0.04200
H 	H 	0.79410 0.92090 0.66180 0.05000
C 	C 	0.83330 0.88186 0.65646 0.02600
C 	C 	0.86230 0.87256 0.67547 -0.02900
S 	S 	0.37010 0.60091 0.29064 0.03500
O 	O 	0.34404 0.54092 0.25411 -0.42900
O 	O 	0.29480 0.53515 0.28170 -0.50000
C 	C 	0.32348 0.54892 0.27746 0.34900
C 	C 	0.33348 0.57756 0.30008 -0.09500
C 	C 	0.31455 0.58877 0.32957 -0.04200
H 	H 	0.29410 0.57910 0.33820 0.04900
C 	C 	0.33330 0.61814 0.34354 0.02400
C 	C 	0.36230 0.62744 0.32453 -0.02800
S 	S 	0.37010 0.10091 0.79064 0.03300
O 	O 	0.34404 0.04092 0.75411 -0.43300
O 	O 	0.29480 0.03515 0.78170 -0.50400
C 	C 	0.32348 0.04892 0.77746 0.34900
C 	C 	0.33348 0.07756 0.80008 -0.09600
C 	C 	0.31455 0.08877 0.82957 -0.04200
H 	H 	0.29410 0.07910 0.83820 0.04800
C 	C 	0.33330 0.11814 0.84354 0.02400
C 	C 	0.36230 0.12744 0.82453 -0.02800
S 	S 	0.87010 0.60091 0.79064 0.03800
O 	O 	0.84404 0.54092 0.75411 -0.42700
O 	O 	0.79480 0.53515 0.78170 -0.50000
C 	C 	0.82348 0.54892 0.77746 0.34900
C 	C 	0.83348 0.57756 0.80008 -0.09500
C 	C 	0.81455 0.58877 0.82957 -0.04200
H 	H 	0.79410 0.57910 0.83820 0.04900
C 	C 	0.83330 0.61814 0.84354 0.02600
C 	C 	0.86230 0.62744 0.82453 -0.02800
S 	S 	0.87010 0.10091 0.29064 0.03500
O 	O 	0.84404 0.04092 0.25411 -0.43200
O 	O 	0.79480 0.03515 0.28170 -0.50400
C 	C 	0.82348 0.04892 0.27746 0.34900
C 	C 	0.83348 0.07756 0.30008 -0.09600
C 	C 	0.81455 0.08877 0.32957 -0.04200
H 	H 	0.79410 0.07910 0.33820 0.04800
C 	C 	0.83330 0.11814 0.34354 0.02400
C 	C 	0.86230 0.12744 0.32453 -0.02800
S 	S 	0.62990 0.39909 0.29064 0.03500
O 	O 	0.65596 0.45908 0.25411 -0.42900
O 	O 	0.70520 0.46485 0.28170 -0.50000
C 	C 	0.67652 0.45108 0.27746 0.34900
C 	C 	0.66652 0.42244 0.30008 -0.09500
C 	C 	0.68545 0.41123 0.32957 -0.04200
H 	H 	0.70590 0.42090 0.33820 0.04900
C 	C 	0.66670 0.38186 0.34354 0.02400
C 	C 	0.63770 0.37256 0.32453 -0.02800
S 	S 	0.62990 0.89909 0.79064 0.03800
O 	O 	0.65596 0.95908 0.75411 -0.42100
O 	O 	0.70520 0.96485 0.78170 -0.49200
C 	C 	0.67652 0.95108 0.77746 0.34800
C 	C 	0.66652 0.92244 0.80008 -0.09300
C 	C 	0.68545 0.91123 0.82957 -0.04200
H 	H 	0.70590 0.92090 0.83820 0.05000
C 	C 	0.66670 0.88186 0.84354 0.02600
C 	C 	0.63770 0.87256 0.82453 -0.02800
S 	S 	0.12990 0.39909 0.79064 0.03400
O 	O 	0.15596 0.45908 0.75411 -0.42900
O 	O 	0.20520 0.46485 0.78170 -0.50000
C 	C 	0.17652 0.45108 0.77746 0.34900
C 	C 	0.16652 0.42244 0.80008 -0.09500
C 	C 	0.18545 0.41123 0.82957 -0.04200
H 	H 	0.20590 0.42090 0.83820 0.04900
C 	C 	0.16670 0.38186 0.84354 0.02500
C 	C 	0.13770 0.37256 0.82453 -0.02800
S 	S 	0.12990 0.89909 0.29064 0.03600
O 	O 	0.15596 0.95908 0.25411 -0.42200
O 	O 	0.20520 0.96485 0.28170 -0.49200
C 	C 	0.17652 0.95108 0.27746 0.34800
C 	C 	0.16652 0.92244 0.30008 -0.09300
C 	C 	0.18545 0.91123 0.32957 -0.04200
H 	H 	0.20590 0.92090 0.33820 0.05000
C 	C 	0.16670 0.88186 0.34354 0.02500
C 	C 	0.13770 0.87256 0.32453 -0.02800
S 	S 	0.70936 0.62990 0.60091 0.03500
O 	O 	0.74589 0.65596 0.54092 -0.42800
O 	O 	0.71830 0.70520 0.53515 -0.50000
C 	C 	0.72254 0.67652 0.54892 0.34900
C 	C 	0.69992 0.66652 0.57756 -0.09500
C 	C 	0.67043 0.68545 0.58877 -0.04200
H 	H 	0.66180 0.70590 0.57910 0.04900
C 	C 	0.65646 0.66670 0.61814 0.02400
C 	C 	0.67547 0.63770 0.62744 -0.02800
S 	S 	0.70936 0.12990 0.10091 0.03100
O 	O 	0.74589 0.15596 0.04092 -0.43400
O 	O 	0.71830 0.20520 0.03515 -0.50400
C 	C 	0.72254 0.17652 0.04892 0.34900
C 	C 	0.69992 0.16652 0.07756 -0.09600
C 	C 	0.67043 0.18545 0.08877 -0.04300
H 	H 	0.66180 0.20590 0.07910 0.04800
C 	C 	0.65646 0.16670 0.11814 0.02300
C 	C 	0.67547 0.13770 0.12744 -0.02800
S 	S 	0.20936 0.62990 0.10091 0.03200
O 	O 	0.24589 0.65596 0.04092 -0.43300
O 	O 	0.21830 0.70520 0.03515 -0.50400
C 	C 	0.22254 0.67652 0.04892 0.34900
C 	C 	0.19992 0.66652 0.07756 -0.09600
C 	C 	0.17043 0.68545 0.08877 -0.04300
H 	H 	0.16180 0.70590 0.07910 0.04800
C 	C 	0.15646 0.66670 0.11814 0.02300
C 	C 	0.17547 0.63770 0.12744 -0.02800
S 	S 	0.20936 0.12990 0.60091 0.03200
O 	O 	0.24589 0.15596 0.54092 -0.43000
O 	O 	0.21830 0.20520 0.53515 -0.50000
C 	C 	0.22254 0.17652 0.54892 0.34900
C 	C 	0.19992 0.16652 0.57756 -0.09500
C 	C 	0.17043 0.18545 0.58877 -0.04200
H 	H 	0.16180 0.20590 0.57910 0.04800
C 	C 	0.15646 0.16670 0.61814 0.02300
C 	C 	0.17547 0.13770 0.62744 -0.02800
S 	S 	0.70936 0.37010 0.39909 0.03500
O 	O 	0.74589 0.34404 0.45908 -0.42800
O 	O 	0.71830 0.29480 0.46485 -0.50000
C 	C 	0.72254 0.32348 0.45108 0.34900
C 	C 	0.69992 0.33348 0.42244 -0.09500
C 	C 	0.67043 0.31455 0.41123 -0.04200
H 	H 	0.66180 0.29410 0.42090 0.04900
C 	C 	0.65646 0.33330 0.38186 0.02400
C 	C 	0.67547 0.36230 0.37256 -0.02800
S 	S 	0.70936 0.87010 0.89909 0.04000
O 	O 	0.74589 0.84404 0.95908 -0.42000
O 	O 	0.71830 0.79480 0.96485 -0.49200
C 	C 	0.72254 0.82348 0.95108 0.34800
C 	C 	0.69992 0.83348 0.92244 -0.09300
C 	C 	0.67043 0.81455 0.91123 -0.04200
H 	H 	0.66180 0.79410 0.92090 0.05000
C 	C 	0.65646 0.83330 0.88186 0.02600
C 	C 	0.67547 0.86230 0.87256 -0.02900
S 	S 	0.20936 0.37010 0.89909 0.03700
O 	O 	0.24589 0.34404 0.95908 -0.42100
O 	O 	0.21830 0.29480 0.96485 -0.49200
C 	C 	0.22254 0.32348 0.95108 0.34800
C 	C 	0.19992 0.33348 0.92244 -0.09400
C 	C 	0.17043 0.31455 0.91123 -0.04200
H 	H 	0.16180 0.29410 0.92090 0.05000
C 	C 	0.15646 0.33330 0.88186 0.02500
C 	C 	0.17547 0.36230 0.87256 -0.02800
S 	S 	0.20936 0.87010 0.39909 0.03700
O 	O 	0.24589 0.84404 0.45908 -0.42800
O 	O 	0.21830 0.79480 0.46485 -0.50000
C 	C 	0.22254 0.82348 0.45108 0.34900
C 	C 	0.19992 0.83348 0.42244 -0.09500
C 	C 	0.17043 0.81455 0.41123 -0.04200
H 	H 	0.16180 0.79410 0.42090 0.04900
C 	C 	0.15646 0.83330 0.38186 0.02400
C 	C 	0.17547 0.86230 0.37256 -0.02800
S 	S 	0.29064 0.37010 0.60091 0.03500
O 	O 	0.25411 0.34404 0.54092 -0.42900
O 	O 	0.28170 0.29480 0.53515 -0.50000
C 	C 	0.27746 0.32348 0.54892 0.34900
C 	C 	0.30008 0.33348 0.57756 -0.09500
C 	C 	0.32957 0.31455 0.58877 -0.04200
H 	H 	0.33820 0.29410 0.57910 0.04900
C 	C 	0.34354 0.33330 0.61814 0.02400
C 	C 	0.32453 0.36230 0.62744 -0.02800
S 	S 	0.29064 0.87010 0.10091 0.03500
O 	O 	0.25411 0.84404 0.04092 -0.43200
O 	O 	0.28170 0.79480 0.03515 -0.50400
C 	C 	0.27746 0.82348 0.04892 0.34900
C 	C 	0.30008 0.83348 0.07756 -0.09600
C 	C 	0.32957 0.81455 0.08877 -0.04200
H 	H 	0.33820 0.79410 0.07910 0.04800
C 	C 	0.34354 0.83330 0.11814 0.02400
C 	C 	0.32453 0.86230 0.12744 -0.02800
S 	S 	0.79064 0.37010 0.10091 0.03300
O 	O 	0.75411 0.34404 0.04092 -0.43300
O 	O 	0.78170 0.29480 0.03515 -0.50400
C 	C 	0.77746 0.32348 0.04892 0.34900
C 	C 	0.80008 0.33348 0.07756 -0.09600
C 	C 	0.82957 0.31455 0.08877 -0.04200
H 	H 	0.83820 0.29410 0.07910 0.04800
C 	C 	0.84354 0.33330 0.11814 0.02400
C 	C 	0.82453 0.36230 0.12744 -0.02800
S 	S 	0.79064 0.87010 0.60091 0.03800
O 	O 	0.75411 0.84404 0.54092 -0.42700
O 	O 	0.78170 0.79480 0.53515 -0.50000
C 	C 	0.77746 0.82348 0.54892 0.34900
C 	C 	0.80008 0.83348 0.57756 -0.09500
C 	C 	0.82957 0.81455 0.58877 -0.04200
H 	H 	0.83820 0.79410 0.57910 0.04900
C 	C 	0.84354 0.83330 0.61814 0.02600
C 	C 	0.82453 0.86230 0.62744 -0.02800
S 	S 	0.29064 0.62990 0.39909 0.03500
O 	O 	0.25411 0.65596 0.45908 -0.42900
O 	O 	0.28170 0.70520 0.46485 -0.50000
C 	C 	0.27746 0.67652 0.45108 0.34900
C 	C 	0.30008 0.66652 0.42244 -0.09500
C 	C 	0.32957 0.68545 0.41123 -0.04200
H 	H 	0.33820 0.70590 0.42090 0.04900
C 	C 	0.34354 0.66670 0.38186 0.02400
C 	C 	0.32453 0.63770 0.37256 -0.02800
S 	S 	0.29064 0.12990 0.89909 0.03600
O 	O 	0.25411 0.15596 0.95908 -0.42200
O 	O 	0.28170 0.20520 0.96485 -0.49200
C 	C 	0.27746 0.17652 0.95108 0.34800
C 	C 	0.30008 0.16652 0.92244 -0.09300
C 	C 	0.32957 0.18545 0.91123 -0.04200
H 	H 	0.33820 0.20590 0.92090 0.05000
C 	C 	0.34354 0.16670 0.88186 0.02500
C 	C 	0.32453 0.13770 0.87256 -0.02800
S 	S 	0.79064 0.62990 0.89909 0.03800
O 	O 	0.75411 0.65596 0.95908 -0.42100
O 	O 	0.78170 0.70520 0.96485 -0.49200
C 	C 	0.77746 0.67652 0.95108 0.34800
C 	C 	0.80008 0.66652 0.92244 -0.09300
C 	C 	0.82957 0.68545 0.91123 -0.04200
H 	H 	0.83820 0.70590 0.92090 0.05000
C 	C 	0.84354 0.66670 0.88186 0.02600
C 	C 	0.82453 0.63770 0.87256 -0.02800
S 	S 	0.79064 0.12990 0.39909 0.03400
O 	O 	0.75411 0.15596 0.45908 -0.42900
O 	O 	0.78170 0.20520 0.46485 -0.50000
C 	C 	0.77746 0.17652 0.45108 0.34900
C 	C 	0.80008 0.16652 0.42244 -0.09500
C 	C 	0.82957 0.18545 0.41123 -0.04200
H 	H 	0.83820 0.20590 0.42090 0.04900
C 	C 	0.84354 0.16670 0.38186 0.02500
C 	C 	0.82453 0.13770 0.37256 -0.02800
S 	S 	0.60091 0.70936 0.62990 0.03500
O 	O 	0.54092 0.74589 0.65596 -0.42800
O 	O 	0.53515 0.71830 0.70520 -0.50000
C 	C 	0.54892 0.72254 0.67652 0.34900
C 	C 	0.57756 0.69992 0.66652 -0.09500
C 	C 	0.58877 0.67043 0.68545 -0.04200
H 	H 	0.57910 0.66180 0.70590 0.04900
C 	C 	0.61814 0.65646 0.66670 0.02400
C 	C 	0.62744 0.67547 0.63770 -0.02800
S 	S 	0.60091 0.20936 0.12990 0.03200
O 	O 	0.54092 0.24589 0.15596 -0.43000
O 	O 	0.53515 0.21830 0.20520 -0.50000
C 	C 	0.54892 0.22254 0.17652 0.34900
C 	C 	0.57756 0.19992 0.16652 -0.09500
C 	C 	0.58877 0.17043 0.18545 -0.04200
H 	H 	0.57910 0.16180 0.20590 0.04800
C 	C 	0.61814 0.15646 0.16670 0.02300
C 	C 	0.62744 0.17547 0.13770 -0.02800
S 	S 	0.10091 0.70936 0.12990 0.03100
O 	O 	0.04092 0.74589 0.15596 -0.43400
O 	O 	0.03515 0.71830 0.20520 -0.50400
C 	C 	0.04892 0.72254 0.17652 0.34900
C 	C 	0.07756 0.69992 0.16652 -0.09600
C 	C 	0.08877 0.67043 0.18545 -0.04300
H 	H 	0.07910 0.66180 0.20590 0.04800
C 	C 	0.11814 0.65646 0.16670 0.02300
C 	C 	0.12744 0.67547 0.13770 -0.02800
S 	S 	0.10091 0.20936 0.62990 0.03200
O 	O 	0.04092 0.24589 0.65596 -0.43300
O 	O 	0.03515 0.21830 0.70520 -0.50400
C 	C 	0.04892 0.22254 0.67652 0.34900
C 	C 	0.07756 0.19992 0.66652 -0.09600
C 	C 	0.08877 0.17043 0.68545 -0.04300
H 	H 	0.07910 0.16180 0.70590 0.04800
C 	C 	0.11814 0.15646 0.66670 0.02300
C 	C 	0.12744 0.17547 0.63770 -0.02800
S 	S 	0.39909 0.70936 0.37010 0.03500
O 	O 	0.45908 0.74589 0.34404 -0.42800
O 	O 	0.46485 0.71830 0.29480 -0.50000
C 	C 	0.45108 0.72254 0.32348 0.34900
C 	C 	0.42244 0.69992 0.33348 -0.09500
C 	C 	0.41123 0.67043 0.31455 -0.04200
H 	H 	0.42090 0.66180 0.29410 0.04900
C 	C 	0.38186 0.65646 0.33330 0.02400
C 	C 	0.37256 0.67547 0.36230 -0.02800
S 	S 	0.39909 0.20936 0.87010 0.03700
O 	O 	0.45908 0.24589 0.84404 -0.42800
O 	O 	0.46485 0.21830 0.79480 -0.50000
C 	C 	0.45108 0.22254 0.82348 0.34900
C 	C 	0.42244 0.19992 0.83348 -0.09500
C 	C 	0.41123 0.17043 0.81455 -0.04200
H 	H 	0.42090 0.16180 0.79410 0.04900
C 	C 	0.38186 0.15646 0.83330 0.02400
C 	C 	0.37256 0.17547 0.86230 -0.02800
S 	S 	0.89909 0.70936 0.87010 0.04000
O 	O 	0.95908 0.74589 0.84404 -0.42000
O 	O 	0.96485 0.71830 0.79480 -0.49200
C 	C 	0.95108 0.72254 0.82348 0.34800
C 	C 	0.92244 0.69992 0.83348 -0.09300
C 	C 	0.91123 0.67043 0.81455 -0.04200
H 	H 	0.92090 0.66180 0.79410 0.05000
C 	C 	0.88186 0.65646 0.83330 0.02600
C 	C 	0.87256 0.67547 0.86230 -0.02900
S 	S 	0.89909 0.20936 0.37010 0.03700
O 	O 	0.95908 0.24589 0.34404 -0.42100
O 	O 	0.96485 0.21830 0.29480 -0.49200
C 	C 	0.95108 0.22254 0.32348 0.34800
C 	C 	0.92244 0.19992 0.33348 -0.09400
C 	C 	0.91123 0.17043 0.31455 -0.04200
H 	H 	0.92090 0.16180 0.29410 0.05000
C 	C 	0.88186 0.15646 0.33330 0.02500
C 	C 	0.87256 0.17547 0.36230 -0.02800
S 	S 	0.60091 0.29064 0.37010 0.03500
O 	O 	0.54092 0.25411 0.34404 -0.42900
O 	O 	0.53515 0.28170 0.29480 -0.50000
C 	C 	0.54892 0.27746 0.32348 0.34900
C 	C 	0.57756 0.30008 0.33348 -0.09500
C 	C 	0.58877 0.32957 0.31455 -0.04200
H 	H 	0.57910 0.33820 0.29410 0.04900
C 	C 	0.61814 0.34354 0.33330 0.02400
C 	C 	0.62744 0.32453 0.36230 -0.02800
S 	S 	0.60091 0.79064 0.87010 0.03800
O 	O 	0.54092 0.75411 0.84404 -0.42700
O 	O 	0.53515 0.78170 0.79480 -0.50000
C 	C 	0.54892 0.77746 0.82348 0.34900
C 	C 	0.57756 0.80008 0.83348 -0.09500
C 	C 	0.58877 0.82957 0.81455 -0.04200
H 	H 	0.57910 0.83820 0.79410 0.04900
C 	C 	0.61814 0.84354 0.83330 0.02600
C 	C 	0.62744 0.82453 0.86230 -0.02800
S 	S 	0.10091 0.29064 0.87010 0.03500
O 	O 	0.04092 0.25411 0.84404 -0.43200
O 	O 	0.03515 0.28170 0.79480 -0.50400
C 	C 	0.04892 0.27746 0.82348 0.34900
C 	C 	0.07756 0.30008 0.83348 -0.09600
C 	C 	0.08877 0.32957 0.81455 -0.04200
H 	H 	0.07910 0.33820 0.79410 0.04800
C 	C 	0.11814 0.34354 0.83330 0.02400
C 	C 	0.12744 0.32453 0.86230 -0.02800
S 	S 	0.10091 0.79064 0.37010 0.03300
O 	O 	0.04092 0.75411 0.34404 -0.43300
O 	O 	0.03515 0.78170 0.29480 -0.50400
C 	C 	0.04892 0.77746 0.32348 0.34900
C 	C 	0.07756 0.80008 0.33348 -0.09600
C 	C 	0.08877 0.82957 0.31455 -0.04200
H 	H 	0.07910 0.83820 0.29410 0.04800
C 	C 	0.11814 0.84354 0.33330 0.02400
C 	C 	0.12744 0.82453 0.36230 -0.02800
S 	S 	0.39909 0.29064 0.62990 0.03500
O 	O 	0.45908 0.25411 0.65596 -0.42900
O 	O 	0.46485 0.28170 0.70520 -0.50000
C 	C 	0.45108 0.27746 0.67652 0.34900
C 	C 	0.42244 0.30008 0.66652 -0.09500
C 	C 	0.41123 0.32957 0.68545 -0.04200
H 	H 	0.42090 0.33820 0.70590 0.04900
C 	C 	0.38186 0.34354 0.66670 0.02400
C 	C 	0.37256 0.32453 0.63770 -0.02800
S 	S 	0.39909 0.79064 0.12990 0.03400
O 	O 	0.45908 0.75411 0.15596 -0.42900
O 	O 	0.46485 0.78170 0.20520 -0.50000
C 	C 	0.45108 0.77746 0.17652 0.34900
C 	C 	0.42244 0.80008 0.16652 -0.09500
C 	C 	0.41123 0.82957 0.18545 -0.04200
H 	H 	0.42090 0.83820 0.20590 0.04900
C 	C 	0.38186 0.84354 0.16670 0.02500
C 	C 	0.37256 0.82453 0.13770 -0.02800
S 	S 	0.89909 0.29064 0.12990 0.03600
O 	O 	0.95908 0.25411 0.15596 -0.42200
O 	O 	0.96485 0.28170 0.20520 -0.49200
C 	C 	0.95108 0.27746 0.17652 0.34800
C 	C 	0.92244 0.30008 0.16652 -0.09300
C 	C 	0.91123 0.32957 0.18545 -0.04200
H 	H 	0.92090 0.33820 0.20590 0.05000
C 	C 	0.88186 0.34354 0.16670 0.02500
C 	C 	0.87256 0.32453 0.13770 -0.02800
S 	S 	0.89909 0.79064 0.62990 0.03800
O 	O 	0.95908 0.75411 0.65596 -0.42100
O 	O 	0.96485 0.78170 0.70520 -0.49200
C 	C 	0.95108 0.77746 0.67652 0.34800
C 	C 	0.92244 0.80008 0.66652 -0.09300
C 	C 	0.91123 0.82957 0.68545 -0.04200
H 	H 	0.92090 0.83820 0.70590 0.05000
C 	C 	0.88186 0.84354 0.66670 0.02600
C 	C 	0.87256 0.82453 0.63770 -0.02800
S 	S 	0.10091 0.12990 0.79064 0.03100
O 	O 	0.04092 0.15596 0.75411 -0.43400
O 	O 	0.03515 0.20520 0.78170 -0.50400
C 	C 	0.04892 0.17652 0.77746 0.34900
C 	C 	0.07756 0.16652 0.80008 -0.09600
C 	C 	0.08877 0.18545 0.82957 -0.04300
H 	H 	0.07910 0.20590 0.83820 0.04800
C 	C 	0.11814 0.16670 0.84354 0.02400
C 	C 	0.12744 0.13770 0.82453 -0.02800
S 	S 	0.10091 0.62990 0.29064 0.03300
O 	O 	0.04092 0.65596 0.25411 -0.43300
O 	O 	0.03515 0.70520 0.28170 -0.50400
C 	C 	0.04892 0.67652 0.27746 0.34900
C 	C 	0.07756 0.66652 0.30008 -0.09600
C 	C 	0.08877 0.68545 0.32957 -0.04300
H 	H 	0.07910 0.70590 0.33820 0.04800
C 	C 	0.11814 0.66670 0.34354 0.02400
C 	C 	0.12744 0.63770 0.32453 -0.02800
S 	S 	0.60091 0.12990 0.29064 0.03300
O 	O 	0.54092 0.15596 0.25411 -0.43000
O 	O 	0.53515 0.20520 0.28170 -0.50000
C 	C 	0.54892 0.17652 0.27746 0.34900
C 	C 	0.57756 0.16652 0.30008 -0.09500
C 	C 	0.58877 0.18545 0.32957 -0.04200
H 	H 	0.57910 0.20590 0.33820 0.04900
C 	C 	0.61814 0.16670 0.34354 0.02400
C 	C 	0.62744 0.13770 0.32453 -0.02800
S 	S 	0.60091 0.62990 0.79064 0.03500
O 	O 	0.54092 0.65596 0.75411 -0.42800
O 	O 	0.53515 0.70520 0.78170 -0.50000
C 	C 	0.54892 0.67652 0.77746 0.34900
C 	C 	0.57756 0.66652 0.80008 -0.09500
C 	C 	0.58877 0.68545 0.82957 -0.04200
H 	H 	0.57910 0.70590 0.83820 0.04900
C 	C 	0.61814 0.66670 0.84354 0.02500
C 	C 	0.62744 0.63770 0.82453 -0.02800
S 	S 	0.89909 0.87010 0.79064 0.04000
O 	O 	0.95908 0.84404 0.75411 -0.42000
O 	O 	0.96485 0.79480 0.78170 -0.49200
C 	C 	0.95108 0.82348 0.77746 0.34800
C 	C 	0.92244 0.83348 0.80008 -0.09300
C 	C 	0.91123 0.81455 0.82957 -0.04200
H 	H 	0.92090 0.79410 0.83820 0.05000
C 	C 	0.88186 0.83330 0.84354 0.02700
C 	C 	0.87256 0.86230 0.82453 -0.02800
S 	S 	0.89909 0.37010 0.29064 0.03800
O 	O 	0.95908 0.34404 0.25411 -0.42100
O 	O 	0.96485 0.29480 0.28170 -0.49200
C 	C 	0.95108 0.32348 0.27746 0.34800
C 	C 	0.92244 0.33348 0.30008 -0.09300
C 	C 	0.91123 0.31455 0.32957 -0.04200
H 	H 	0.92090 0.29410 0.33820 0.05000
C 	C 	0.88186 0.33330 0.34354 0.02500
C 	C 	0.87256 0.36230 0.32453 -0.02800
S 	S 	0.39909 0.87010 0.29064 0.03700
O 	O 	0.45908 0.84404 0.25411 -0.42800
O 	O 	0.46485 0.79480 0.28170 -0.50000
C 	C 	0.45108 0.82348 0.27746 0.34900
C 	C 	0.42244 0.83348 0.30008 -0.09500
C 	C 	0.41123 0.81455 0.32957 -0.04200
H 	H 	0.42090 0.79410 0.33820 0.04900
C 	C 	0.38186 0.83330 0.34354 0.02500
C 	C 	0.37256 0.86230 0.32453 -0.02800
S 	S 	0.39909 0.37010 0.79064 0.03600
O 	O 	0.45908 0.34404 0.75411 -0.42800
O 	O 	0.46485 0.29480 0.78170 -0.50000
C 	C 	0.45108 0.32348 0.77746 0.34900
C 	C 	0.42244 0.33348 0.80008 -0.09500
C 	C 	0.41123 0.31455 0.82957 -0.04200
H 	H 	0.42090 0.29410 0.83820 0.04900
C 	C 	0.38186 0.33330 0.84354 0.02500
C 	C 	0.37256 0.36230 0.82453 -0.02800
S 	S 	0.10091 0.87010 0.20936 0.03500
O 	O 	0.04092 0.84404 0.24589 -0.43200
O 	O 	0.03515 0.79480 0.21830 -0.50400
C 	C 	0.04892 0.82348 0.22254 0.34900
C 	C 	0.07756 0.83348 0.19992 -0.09600
C 	C 	0.08877 0.81455 0.17043 -0.04200
H 	H 	0.07910 0.79410 0.16180 0.04800
C 	C 	0.11814 0.83330 0.15646 0.02300
C 	C 	0.12744 0.86230 0.17547 -0.02800
S 	S 	0.10091 0.37010 0.70936 0.03300
O 	O 	0.04092 0.34404 0.74589 -0.43300
O 	O 	0.03515 0.29480 0.71830 -0.50400
C 	C 	0.04892 0.32348 0.72254 0.34900
C 	C 	0.07756 0.33348 0.69992 -0.09600
C 	C 	0.08877 0.31455 0.67043 -0.04300
H 	H 	0.07910 0.29410 0.66180 0.04800
C 	C 	0.11814 0.33330 0.65646 0.02400
C 	C 	0.12744 0.36230 0.67547 -0.02800
S 	S 	0.60091 0.87010 0.70936 0.03700
O 	O 	0.54092 0.84404 0.74589 -0.42700
O 	O 	0.53515 0.79480 0.71830 -0.50000
C 	C 	0.54892 0.82348 0.72254 0.34900
C 	C 	0.57756 0.83348 0.69992 -0.09500
C 	C 	0.58877 0.81455 0.67043 -0.04200
H 	H 	0.57910 0.79410 0.66180 0.04900
C 	C 	0.61814 0.83330 0.65646 0.02500
C 	C 	0.62744 0.86230 0.67547 -0.02800
S 	S 	0.60091 0.37010 0.20936 0.03500
O 	O 	0.54092 0.34404 0.24589 -0.42900
O 	O 	0.53515 0.29480 0.21830 -0.50000
C 	C 	0.54892 0.32348 0.22254 0.34900
C 	C 	0.57756 0.33348 0.19992 -0.09500
C 	C 	0.58877 0.31455 0.17043 -0.04200
H 	H 	0.57910 0.29410 0.16180 0.04900
C 	C 	0.61814 0.33330 0.15646 0.02400
C 	C 	0.62744 0.36230 0.17547 -0.02800
S 	S 	0.89909 0.12990 0.20936 0.03500
O 	O 	0.95908 0.15596 0.24589 -0.42200
O 	O 	0.96485 0.20520 0.21830 -0.49200
C 	C 	0.95108 0.17652 0.22254 0.34800
C 	C 	0.92244 0.16652 0.19992 -0.09400
C 	C 	0.91123 0.18545 0.17043 -0.04200
H 	H 	0.92090 0.20590 0.16180 0.05000
C 	C 	0.88186 0.16670 0.15646 0.02400
C 	C 	0.87256 0.13770 0.17547 -0.02800
S 	S 	0.89909 0.62990 0.70936 0.03800
O 	O 	0.95908 0.65596 0.74589 -0.42100
O 	O 	0.96485 0.70520 0.71830 -0.49200
C 	C 	0.95108 0.67652 0.72254 0.34800
C 	C 	0.92244 0.66652 0.69992 -0.09300
C 	C 	0.91123 0.68545 0.67043 -0.04200
H 	H 	0.92090 0.70590 0.66180 0.05000
C 	C 	0.88186 0.66670 0.65646 0.02500
C 	C 	0.87256 0.63770 0.67547 -0.02800
S 	S 	0.39909 0.12990 0.70936 0.03300
O 	O 	0.45908 0.15596 0.74589 -0.42900
O 	O 	0.46485 0.20520 0.71830 -0.50000
C 	C 	0.45108 0.17652 0.72254 0.34900
C 	C 	0.42244 0.16652 0.69992 -0.09500
C 	C 	0.41123 0.18545 0.67043 -0.04200
H 	H 	0.42090 0.20590 0.66180 0.04900
C 	C 	0.38186 0.16670 0.65646 0.02400
C 	C 	0.37256 0.13770 0.67547 -0.02800
S 	S 	0.39909 0.62990 0.20936 0.03500
O 	O 	0.45908 0.65596 0.24589 -0.42900
O 	O 	0.46485 0.70520 0.21830 -0.50000
C 	C 	0.45108 0.67652 0.22254 0.34900
C 	C 	0.42244 0.66652 0.19992 -0.09500
C 	C 	0.41123 0.68545 0.17043 -0.04200
H 	H 	0.42090 0.70590 0.16180 0.04800
C 	C 	0.38186 0.66670 0.15646 0.02400
C 	C 	0.37256 0.63770 0.17547 -0.02800
S 	S 	0.12990 0.20936 0.89909 0.03500
O 	O 	0.15596 0.24589 0.95908 -0.42200
O 	O 	0.20520 0.21830 0.96485 -0.49200
C 	C 	0.17652 0.22254 0.95108 0.34800
C 	C 	0.16652 0.19992 0.92244 -0.09400
C 	C 	0.18545 0.17043 0.91123 -0.04200
H 	H 	0.20590 0.16180 0.92090 0.05000
C 	C 	0.16670 0.15646 0.88186 0.02400
C 	C 	0.13770 0.17547 0.87256 -0.02800
S 	S 	0.12990 0.70936 0.39909 0.03300
O 	O 	0.15596 0.74589 0.45908 -0.42900
O 	O 	0.20520 0.71830 0.46485 -0.50000
C 	C 	0.17652 0.72254 0.45108 0.34900
C 	C 	0.16652 0.69992 0.42244 -0.09500
C 	C 	0.18545 0.67043 0.41123 -0.04200
H 	H 	0.20590 0.66180 0.42090 0.04900
C 	C 	0.16670 0.65646 0.38186 0.02400
C 	C 	0.13770 0.67547 0.37256 -0.02800
S 	S 	0.62990 0.20936 0.39909 0.03500
O 	O 	0.65596 0.24589 0.45908 -0.42900
O 	O 	0.70520 0.21830 0.46485 -0.50000
C 	C 	0.67652 0.22254 0.45108 0.34900
C 	C 	0.66652 0.19992 0.42244 -0.09500
C 	C 	0.68545 0.17043 0.41123 -0.04200
H 	H 	0.70590 0.16180 0.42090 0.04800
C 	C 	0.66670 0.15646 0.38186 0.02400
C 	C 	0.63770 0.17547 0.37256 -0.02800
S 	S 	0.62990 0.70936 0.89909 0.03800
O 	O 	0.65596 0.74589 0.95908 -0.42100
O 	O 	0.70520 0.71830 0.96485 -0.49200
C 	C 	0.67652 0.72254 0.95108 0.34800
C 	C 	0.66652 0.69992 0.92244 -0.09300
C 	C 	0.68545 0.67043 0.91123 -0.04200
H 	H 	0.70590 0.66180 0.92090 0.05000
C 	C 	0.66670 0.65646 0.88186 0.02500
C 	C 	0.63770 0.67547 0.87256 -0.02800
S 	S 	0.87010 0.20936 0.10091 0.03500
O 	O 	0.84404 0.24589 0.04092 -0.43200
O 	O 	0.79480 0.21830 0.03515 -0.50400
C 	C 	0.82348 0.22254 0.04892 0.34900
C 	C 	0.83348 0.19992 0.07756 -0.09600
C 	C 	0.81455 0.17043 0.08877 -0.04200
H 	H 	0.79410 0.16180 0.07910 0.04800
C 	C 	0.83330 0.15646 0.11814 0.02300
C 	C 	0.86230 0.17547 0.12744 -0.02800
S 	S 	0.87010 0.70936 0.60091 0.03700
O 	O 	0.84404 0.74589 0.54092 -0.42700
O 	O 	0.79480 0.71830 0.53515 -0.50000
C 	C 	0.82348 0.72254 0.54892 0.34900
C 	C 	0.83348 0.69992 0.57756 -0.09500
C 	C 	0.81455 0.67043 0.58877 -0.04200
H 	H 	0.79410 0.66180 0.57910 0.04900
C 	C 	0.83330 0.65646 0.61814 0.02500
C 	C 	0.86230 0.67547 0.62744 -0.02800
S 	S 	0.37010 0.20936 0.60091 0.03500
O 	O 	0.34404 0.24589 0.54092 -0.42900
O 	O 	0.29480 0.21830 0.53515 -0.50000
C 	C 	0.32348 0.22254 0.54892 0.34900
C 	C 	0.33348 0.19992 0.57756 -0.09500
C 	C 	0.31455 0.17043 0.58877 -0.04200
H 	H 	0.29410 0.16180 0.57910 0.04900
C 	C 	0.33330 0.15646 0.61814 0.02400
C 	C 	0.36230 0.17547 0.62744 -0.02800
S 	S 	0.37010 0.70936 0.10091 0.03300
O 	O 	0.34404 0.74589 0.04092 -0.43300
O 	O 	0.29480 0.71830 0.03515 -0.50400
C 	C 	0.32348 0.72254 0.04892 0.34900
C 	C 	0.33348 0.69992 0.07756 -0.09600
C 	C 	0.31455 0.67043 0.08877 -0.04300
H 	H 	0.29410 0.66180 0.07910 0.04800
C 	C 	0.33330 0.65646 0.11814 0.02400
C 	C 	0.36230 0.67547 0.12744 -0.02800
S 	S 	0.87010 0.79064 0.89909 0.04000
O 	O 	0.84404 0.75411 0.95908 -0.42000
O 	O 	0.79480 0.78170 0.96485 -0.49200
C 	C 	0.82348 0.77746 0.95108 0.34800
C 	C 	0.83348 0.80008 0.92244 -0.09300
C 	C 	0.81455 0.82957 0.91123 -0.04200
H 	H 	0.79410 0.83820 0.92090 0.05000
C 	C 	0.83330 0.84354 0.88186 0.02700
C 	C 	0.86230 0.82453 0.87256 -0.02800
S 	S 	0.87010 0.29064 0.39909 0.03700
O 	O 	0.84404 0.25411 0.45908 -0.42800
O 	O 	0.79480 0.28170 0.46485 -0.50000
C 	C 	0.82348 0.27746 0.45108 0.34900
C 	C 	0.83348 0.30008 0.42244 -0.09500
C 	C 	0.81455 0.32957 0.41123 -0.04200
H 	H 	0.79410 0.33820 0.42090 0.04900
C 	C 	0.83330 0.34354 0.38186 0.02500
C 	C 	0.86230 0.32453 0.37256 -0.02800
S 	S 	0.37010 0.79064 0.39909 0.03600
O 	O 	0.34404 0.75411 0.45908 -0.42800
O 	O 	0.29480 0.78170 0.46485 -0.50000
C 	C 	0.32348 0.77746 0.45108 0.34900
C 	C 	0.33348 0.80008 0.42244 -0.09500
C 	C 	0.31455 0.82957 0.41123 -0.04200
H 	H 	0.29410 0.83820 0.42090 0.04900
C 	C 	0.33330 0.84354 0.38186 0.02500
C 	C 	0.36230 0.82453 0.37256 -0.02800
S 	S 	0.37010 0.29064 0.89909 0.03800
O 	O 	0.34404 0.25411 0.95908 -0.42100
O 	O 	0.29480 0.28170 0.96485 -0.49200
C 	C 	0.32348 0.27746 0.95108 0.34800
C 	C 	0.33348 0.30008 0.92244 -0.09300
C 	C 	0.31455 0.32957 0.91123 -0.04200
H 	H 	0.29410 0.33820 0.92090 0.05000
C 	C 	0.33330 0.34354 0.88186 0.02500
C 	C 	0.36230 0.32453 0.87256 -0.02800
S 	S 	0.12990 0.79064 0.10091 0.03100
O 	O 	0.15596 0.75411 0.04092 -0.43400
O 	O 	0.20520 0.78170 0.03515 -0.50400
C 	C 	0.17652 0.77746 0.04892 0.34900
C 	C 	0.16652 0.80008 0.07756 -0.09600
C 	C 	0.18545 0.82957 0.08877 -0.04300
H 	H 	0.20590 0.83820 0.07910 0.04800
C 	C 	0.16670 0.84354 0.11814 0.02400
C 	C 	0.13770 0.82453 0.12744 -0.02800
S 	S 	0.12990 0.29064 0.60091 0.03300
O 	O 	0.15596 0.25411 0.54092 -0.43000
O 	O 	0.20520 0.28170 0.53515 -0.50000
C 	C 	0.17652 0.27746 0.54892 0.34900
C 	C 	0.16652 0.30008 0.57756 -0.09500
C 	C 	0.18545 0.32957 0.58877 -0.04200
H 	H 	0.20590 0.33820 0.57910 0.04900
C 	C 	0.16670 0.34354 0.61814 0.02400
C 	C 	0.13770 0.32453 0.62744 -0.02800
S 	S 	0.62990 0.79064 0.60091 0.03500
O 	O 	0.65596 0.75411 0.54092 -0.42800
O 	O 	0.70520 0.78170 0.53515 -0.50000
C 	C 	0.67652 0.77746 0.54892 0.34900
C 	C 	0.66652 0.80008 0.57756 -0.09500
C 	C 	0.68545 0.82957 0.58877 -0.04200
H 	H 	0.70590 0.83820 0.57910 0.04900
C 	C 	0.66670 0.84354 0.61814 0.02500
C 	C 	0.63770 0.82453 0.62744 -0.02800
S 	S 	0.62990 0.29064 0.10091 0.03300
O 	O 	0.65596 0.25411 0.04092 -0.43300
O 	O 	0.70520 0.28170 0.03515 -0.50400
C 	C 	0.67652 0.27746 0.04892 0.34900
C 	C 	0.66652 0.30008 0.07756 -0.09600
C 	C 	0.68545 0.32957 0.08877 -0.04300
H 	H 	0.70590 0.33820 0.07910 0.04800
C 	C 	0.66670 0.34354 0.11814 0.02400
C 	C 	0.63770 0.32453 0.12744 -0.02800
S 	S 	0.20936 0.10091 0.87010 0.03500
O 	O 	0.24589 0.04092 0.84404 -0.43200
O 	O 	0.21830 0.03515 0.79480 -0.50400
C 	C 	0.22254 0.04892 0.82348 0.34900
C 	C 	0.19992 0.07756 0.83348 -0.09600
C 	C 	0.17043 0.08877 0.81455 -0.04200
H 	H 	0.16180 0.07910 0.79410 0.04800
C 	C 	0.15646 0.11814 0.83330 0.02300
C 	C 	0.17547 0.12744 0.86230 -0.02800
S 	S 	0.20936 0.60091 0.37010 0.03500
O 	O 	0.24589 0.54092 0.34404 -0.42900
O 	O 	0.21830 0.53515 0.29480 -0.50000
C 	C 	0.22254 0.54892 0.32348 0.34900
C 	C 	0.19992 0.57756 0.33348 -0.09500
C 	C 	0.17043 0.58877 0.31455 -0.04200
H 	H 	0.16180 0.57910 0.29410 0.04900
C 	C 	0.15646 0.61814 0.33330 0.02400
C 	C 	0.17547 0.62744 0.36230 -0.02800
S 	S 	0.70936 0.10091 0.37010 0.03300
O 	O 	0.74589 0.04092 0.34404 -0.43300
O 	O 	0.71830 0.03515 0.29480 -0.50400
C 	C 	0.72254 0.04892 0.32348 0.34900
C 	C 	0.69992 0.07756 0.33348 -0.09600
C 	C 	0.67043 0.08877 0.31455 -0.04300
H 	H 	0.66180 0.07910 0.29410 0.04800
C 	C 	0.65646 0.11814 0.33330 0.02400
C 	C 	0.67547 0.12744 0.36230 -0.02800
S 	S 	0.70936 0.60091 0.87010 0.03700
O 	O 	0.74589 0.54092 0.84404 -0.42700
O 	O 	0.71830 0.53515 0.79480 -0.50000
C 	C 	0.72254 0.54892 0.82348 0.34900
C 	C 	0.69992 0.57756 0.83348 -0.09500
C 	C 	0.67043 0.58877 0.81455 -0.04200
H 	H 	0.66180 0.57910 0.79410 0.04900
C 	C 	0.65646 0.61814 0.83330 0.02500
C 	C 	0.67547 0.62744 0.86230 -0.02800
S 	S 	0.20936 0.89909 0.12990 0.03500
O 	O 	0.24589 0.95908 0.15596 -0.42200
O 	O 	0.21830 0.96485 0.20520 -0.49200
C 	C 	0.22254 0.95108 0.17652 0.34800
C 	C 	0.19992 0.92244 0.16652 -0.09400
C 	C 	0.17043 0.91123 0.18545 -0.04200
H 	H 	0.16180 0.92090 0.20590 0.05000
C 	C 	0.15646 0.88186 0.16670 0.02400
C 	C 	0.17547 0.87256 0.13770 -0.02800
S 	S 	0.20936 0.39909 0.62990 0.03500
O 	O 	0.24589 0.45908 0.65596 -0.42900
O 	O 	0.21830 0.46485 0.70520 -0.50000
C 	C 	0.22254 0.45108 0.67652 0.34900
C 	C 	0.19992 0.42244 0.66652 -0.09500
C 	C 	0.17043 0.41123 0.68545 -0.04200
H 	H 	0.16180 0.42090 0.70590 0.04800
C 	C 	0.15646 0.38186 0.66670 0.02400
C 	C 	0.17547 0.37256 0.63770 -0.02800
S 	S 	0.70936 0.89909 0.62990 0.03800
O 	O 	0.74589 0.95908 0.65596 -0.42100
O 	O 	0.71830 0.96485 0.70520 -0.49200
C 	C 	0.72254 0.95108 0.67652 0.34800
C 	C 	0.69992 0.92244 0.66652 -0.09300
C 	C 	0.67043 0.91123 0.68545 -0.04200
H 	H 	0.66180 0.92090 0.70590 0.05000
C 	C 	0.65646 0.88186 0.66670 0.02500
C 	C 	0.67547 0.87256 0.63770 -0.02800
S 	S 	0.70936 0.39909 0.12990 0.03300
O 	O 	0.74589 0.45908 0.15596 -0.42900
O 	O 	0.71830 0.46485 0.20520 -0.50000
C 	C 	0.72254 0.45108 0.17652 0.34900
C 	C 	0.69992 0.42244 0.16652 -0.09500
C 	C 	0.67043 0.41123 0.18545 -0.04200
H 	H 	0.66180 0.42090 0.20590 0.04900
C 	C 	0.65646 0.38186 0.16670 0.02400
C 	C 	0.67547 0.37256 0.13770 -0.02800
S 	S 	0.79064 0.10091 0.12990 0.03100
O 	O 	0.75411 0.04092 0.15596 -0.43400
O 	O 	0.78170 0.03515 0.20520 -0.50400
C 	C 	0.77746 0.04892 0.17652 0.34900
C 	C 	0.80008 0.07756 0.16652 -0.09600
C 	C 	0.82957 0.08877 0.18545 -0.04300
H 	H 	0.83820 0.07910 0.20590 0.04800
C 	C 	0.84354 0.11814 0.16670 0.02400
C 	C 	0.82453 0.12744 0.13770 -0.02800
S 	S 	0.79064 0.60091 0.62990 0.03500
O 	O 	0.75411 0.54092 0.65596 -0.42800
O 	O 	0.78170 0.53515 0.70520 -0.50000
C 	C 	0.77746 0.54892 0.67652 0.34900
C 	C 	0.80008 0.57756 0.66652 -0.09500
C 	C 	0.82957 0.58877 0.68545 -0.04200
H 	H 	0.83820 0.57910 0.70590 0.04900
C 	C 	0.84354 0.61814 0.66670 0.02500
C 	C 	0.82453 0.62744 0.63770 -0.02800
S 	S 	0.29064 0.10091 0.62990 0.03300
O 	O 	0.25411 0.04092 0.65596 -0.43300
O 	O 	0.28170 0.03515 0.70520 -0.50400
C 	C 	0.27746 0.04892 0.67652 0.34900
C 	C 	0.30008 0.07756 0.66652 -0.09600
C 	C 	0.32957 0.08877 0.68545 -0.04300
H 	H 	0.33820 0.07910 0.70590 0.04800
C 	C 	0.34354 0.11814 0.66670 0.02400
C 	C 	0.32453 0.12744 0.63770 -0.02800
S 	S 	0.29064 0.60091 0.12990 0.03300
O 	O 	0.25411 0.54092 0.15596 -0.43000
O 	O 	0.28170 0.53515 0.20520 -0.50000
C 	C 	0.27746 0.54892 0.17652 0.34900
C 	C 	0.30008 0.57756 0.16652 -0.09500
C 	C 	0.32957 0.58877 0.18545 -0.04200
H 	H 	0.33820 0.57910 0.20590 0.04900
C 	C 	0.34354 0.61814 0.16670 0.02400
C 	C 	0.32453 0.62744 0.13770 -0.02800
S 	S 	0.79064 0.89909 0.87010 0.04000
O 	O 	0.75411 0.95908 0.84404 -0.42000
O 	O 	0.78170 0.96485 0.79480 -0.49200
C 	C 	0.77746 0.95108 0.82348 0.34800
C 	C 	0.80008 0.92244 0.83348 -0.09300
C 	C 	0.82957 0.91123 0.81455 -0.04200
H 	H 	0.83820 0.92090 0.79410 0.05000
C 	C 	0.84354 0.88186 0.83330 0.02700
C 	C 	0.82453 0.87256 0.86230 -0.02800
S 	S 	0.79064 0.39909 0.37010 0.03600
O 	O 	0.75411 0.45908 0.34404 -0.42800
O 	O 	0.78170 0.46485 0.29480 -0.50000
C 	C 	0.77746 0.45108 0.32348 0.34900
C 	C 	0.80008 0.42244 0.33348 -0.09500
C 	C 	0.82957 0.41123 0.31455 -0.04200
H 	H 	0.83820 0.42090 0.29410 0.04900
C 	C 	0.84354 0.38186 0.33330 0.02500
C 	C 	0.82453 0.37256 0.36230 -0.02800
S 	S 	0.29064 0.89909 0.37010 0.03800
O 	O 	0.25411 0.95908 0.34404 -0.42100
O 	O 	0.28170 0.96485 0.29480 -0.49200
C 	C 	0.27746 0.95108 0.32348 0.34800
C 	C 	0.30008 0.92244 0.33348 -0.09300
C 	C 	0.32957 0.91123 0.31455 -0.04200
H 	H 	0.33820 0.92090 0.29410 0.05000
C 	C 	0.34354 0.88186 0.33330 0.02500
C 	C 	0.32453 0.87256 0.36230 -0.02800
S 	S 	0.29064 0.39909 0.87010 0.03700
O 	O 	0.25411 0.45908 0.84404 -0.42800
O 	O 	0.28170 0.46485 0.79480 -0.50000
C 	C 	0.27746 0.45108 0.82348 0.34900
C 	C 	0.30008 0.42244 0.83348 -0.09500
C 	C 	0.32957 0.41123 0.81455 -0.04200
H 	H 	0.33820 0.42090 0.79410 0.04900
C 	C 	0.34354 0.38186 0.83330 0.02500
C 	C 	0.32453 0.37256 0.86230 -0.02800
S 	S 	0.37010 0.39909 0.29064 0.03500
O 	O 	0.34404 0.45908 0.25411 -0.42900
O 	O 	0.29480 0.46485 0.28170 -0.50000
C 	C 	0.32348 0.45108 0.27746 0.34900
C 	C 	0.33348 0.42244 0.30008 -0.09500
C 	C 	0.31455 0.41123 0.32957 -0.04200
H 	H 	0.29410 0.42090 0.33820 0.04900
C 	C 	0.33330 0.38186 0.34354 0.02400
C 	C 	0.36230 0.37256 0.32453 -0.02800
S 	S 	0.37010 0.89909 0.79064 0.03800
O 	O 	0.34404 0.95908 0.75411 -0.42100
O 	O 	0.29480 0.96485 0.78170 -0.49200
C 	C 	0.32348 0.95108 0.77746 0.34800
C 	C 	0.33348 0.92244 0.80008 -0.09300
C 	C 	0.31455 0.91123 0.82957 -0.04200
H 	H 	0.29410 0.92090 0.83820 0.05000
C 	C 	0.33330 0.88186 0.84354 0.02600
C 	C 	0.36230 0.87256 0.82453 -0.02800
S 	S 	0.87010 0.39909 0.79064 0.03800
O 	O 	0.84404 0.45908 0.75411 -0.42700
O 	O 	0.79480 0.46485 0.78170 -0.50000
C 	C 	0.82348 0.45108 0.77746 0.34900
C 	C 	0.83348 0.42244 0.80008 -0.09500
C 	C 	0.81455 0.41123 0.82957 -0.04200
H 	H 	0.79410 0.42090 0.83820 0.04900
C 	C 	0.83330 0.38186 0.84354 0.02600
C 	C 	0.86230 0.37256 0.82453 -0.02800
S 	S 	0.87010 0.89909 0.29064 0.04000
O 	O 	0.84404 0.95908 0.25411 -0.42000
O 	O 	0.79480 0.96485 0.28170 -0.49200
C 	C 	0.82348 0.95108 0.27746 0.34800
C 	C 	0.83348 0.92244 0.30008 -0.09300
C 	C 	0.81455 0.91123 0.32957 -0.04200
H 	H 	0.79410 0.92090 0.33820 0.05000
C 	C 	0.83330 0.88186 0.34354 0.02600
C 	C 	0.86230 0.87256 0.32453 -0.02800
S 	S 	0.62990 0.60091 0.29064 0.03500
O 	O 	0.65596 0.54092 0.25411 -0.42900
O 	O 	0.70520 0.53515 0.28170 -0.50000
C 	C 	0.67652 0.54892 0.27746 0.34900
C 	C 	0.66652 0.57756 0.30008 -0.09500
C 	C 	0.68545 0.58877 0.32957 -0.04200
H 	H 	0.70590 0.57910 0.33820 0.04900
C 	C 	0.66670 0.61814 0.34354 0.02400
C 	C 	0.63770 0.62744 0.32453 -0.02800
S 	S 	0.62990 0.10091 0.79064 0.03300
O 	O 	0.65596 0.04092 0.75411 -0.43300
O 	O 	0.70520 0.03515 0.78170 -0.50400
C 	C 	0.67652 0.04892 0.77746 0.34900
C 	C 	0.66652 0.07756 0.80008 -0.09600
C 	C 	0.68545 0.08877 0.82957 -0.04200
H 	H 	0.70590 0.07910 0.83820 0.04800
C 	C 	0.66670 0.11814 0.84354 0.02400
C 	C 	0.63770 0.12744 0.82453 -0.02800
S 	S 	0.12990 0.60091 0.79064 0.03400
O 	O 	0.15596 0.54092 0.75411 -0.42900
O 	O 	0.20520 0.53515 0.78170 -0.50000
C 	C 	0.17652 0.54892 0.77746 0.34900
C 	C 	0.16652 0.57756 0.80008 -0.09500
C 	C 	0.18545 0.58877 0.82957 -0.04200
H 	H 	0.20590 0.57910 0.83820 0.04900
C 	C 	0.16670 0.61814 0.84354 0.02500
C 	C 	0.13770 0.62744 0.82453 -0.02800
S 	S 	0.12990 0.10091 0.29064 0.03100
O 	O 	0.15596 0.04092 0.25411 -0.43400
O 	O 	0.20520 0.03515 0.28170 -0.50400
C 	C 	0.17652 0.04892 0.27746 0.34900
C 	C 	0.16652 0.07756 0.30008 -0.09600
C 	C 	0.18545 0.08877 0.32957 -0.04300
H 	H 	0.20590 0.07910 0.33820 0.04800
C 	C 	0.16670 0.11814 0.34354 0.02300
C 	C 	0.13770 0.12744 0.32453 -0.02800
S 	S 	0.62990 0.39909 0.70936 0.03500
O 	O 	0.65596 0.45908 0.74589 -0.42800
O 	O 	0.70520 0.46485 0.71830 -0.50000
C 	C 	0.67652 0.45108 0.72254 0.34900
C 	C 	0.66652 0.42244 0.69992 -0.09500
C 	C 	0.68545 0.41123 0.67043 -0.04200
H 	H 	0.70590 0.42090 0.66180 0.04900
C 	C 	0.66670 0.38186 0.65646 0.02400
C 	C 	0.63770 0.37256 0.67547 -0.02800
S 	S 	0.62990 0.89909 0.20936 0.03700
O 	O 	0.65596 0.95908 0.24589 -0.42100
O 	O 	0.70520 0.96485 0.21830 -0.49200
C 	C 	0.67652 0.95108 0.22254 0.34800
C 	C 	0.66652 0.92244 0.19992 -0.09400
C 	C 	0.68545 0.91123 0.17043 -0.04200
H 	H 	0.70590 0.92090 0.16180 0.05000
C 	C 	0.66670 0.88186 0.15646 0.02500
C 	C 	0.63770 0.87256 0.17547 -0.02800
S 	S 	0.12990 0.39909 0.20936 0.03300
O 	O 	0.15596 0.45908 0.24589 -0.43000
O 	O 	0.20520 0.46485 0.21830 -0.50000
C 	C 	0.17652 0.45108 0.22254 0.34900
C 	C 	0.16652 0.42244 0.19992 -0.09500
C 	C 	0.18545 0.41123 0.17043 -0.04200
H 	H 	0.20590 0.42090 0.16180 0.04800
C 	C 	0.16670 0.38186 0.15646 0.02300
C 	C 	0.13770 0.37256 0.17547 -0.02800
S 	S 	0.12990 0.89909 0.70936 0.03600
O 	O 	0.15596 0.95908 0.74589 -0.42200
O 	O 	0.20520 0.96485 0.71830 -0.49200
C 	C 	0.17652 0.95108 0.72254 0.34800
C 	C 	0.16652 0.92244 0.69992 -0.09400
C 	C 	0.18545 0.91123 0.67043 -0.04200
H 	H 	0.20590 0.92090 0.66180 0.05000
C 	C 	0.16670 0.88186 0.65646 0.02500
C 	C 	0.13770 0.87256 0.67547 -0.02800
S 	S 	0.37010 0.60091 0.70936 0.03500
O 	O 	0.34404 0.54092 0.74589 -0.42800
O 	O 	0.29480 0.53515 0.71830 -0.50000
C 	C 	0.32348 0.54892 0.72254 0.34900
C 	C 	0.33348 0.57756 0.69992 -0.09500
C 	C 	0.31455 0.58877 0.67043 -0.04200
H 	H 	0.29410 0.57910 0.66180 0.04900
C 	C 	0.33330 0.61814 0.65646 0.02400
C 	C 	0.36230 0.62744 0.67547 -0.02800
S 	S 	0.37010 0.10091 0.20936 0.03200
O 	O 	0.34404 0.04092 0.24589 -0.43300
O 	O 	0.29480 0.03515 0.21830 -0.50400
C 	C 	0.32348 0.04892 0.22254 0.34900
C 	C 	0.33348 0.07756 0.19992 -0.09600
C 	C 	0.31455 0.08877 0.17043 -0.04300
H 	H 	0.29410 0.07910 0.16180 0.04800
C 	C 	0.33330 0.11814 0.15646 0.02300
C 	C 	0.36230 0.12744 0.17547 -0.02800
S 	S 	0.87010 0.60091 0.20936 0.03700
O 	O 	0.84404 0.54092 0.24589 -0.42800
O 	O 	0.79480 0.53515 0.21830 -0.50000
C 	C 	0.82348 0.54892 0.22254 0.34900
C 	C 	0.83348 0.57756 0.19992 -0.09500
C 	C 	0.81455 0.58877 0.17043 -0.04200
H 	H 	0.79410 0.57910 0.16180 0.04900
C 	C 	0.83330 0.61814 0.15646 0.02400
C 	C 	0.86230 0.62744 0.17547 -0.02800
S 	S 	0.87010 0.10091 0.70936 0.03500
O 	O 	0.84404 0.04092 0.74589 -0.43200
O 	O 	0.79480 0.03515 0.71830 -0.50400
C 	C 	0.82348 0.04892 0.72254 0.34900
C 	C 	0.83348 0.07756 0.69992 -0.09600
C 	C 	0.81455 0.08877 0.67043 -0.04200
H 	H 	0.79410 0.07910 0.66180 0.04800
C 	C 	0.83330 0.11814 0.65646 0.02400
C 	C 	0.86230 0.12744 0.67547 -0.02800
S 	S 	0.29064 0.37010 0.39909 0.03500
O 	O 	0.25411 0.34404 0.45908 -0.42900
O 	O 	0.28170 0.29480 0.46485 -0.50000
C 	C 	0.27746 0.32348 0.45108 0.34900
C 	C 	0.30008 0.33348 0.42244 -0.09500
C 	C 	0.32957 0.31455 0.41123 -0.04200
H 	H 	0.33820 0.29410 0.42090 0.04900
C 	C 	0.34354 0.33330 0.38186 0.02400
C 	C 	0.32453 0.36230 0.37256 -0.02800
S 	S 	0.29064 0.87010 0.89909 0.04000
O 	O 	0.25411 0.84404 0.95908 -0.42000
O 	O 	0.28170 0.79480 0.96485 -0.49200
C 	C 	0.27746 0.82348 0.95108 0.34800
C 	C 	0.30008 0.83348 0.92244 -0.09300
C 	C 	0.32957 0.81455 0.91123 -0.04200
H 	H 	0.33820 0.79410 0.92090 0.05000
C 	C 	0.34354 0.83330 0.88186 0.02600
C 	C 	0.32453 0.86230 0.87256 -0.02800
S 	S 	0.79064 0.37010 0.89909 0.03800
O 	O 	0.75411 0.34404 0.95908 -0.42100
O 	O 	0.78170 0.29480 0.96485 -0.49200
C 	C 	0.77746 0.32348 0.95108 0.34800
C 	C 	0.80008 0.33348 0.92244 -0.09300
C 	C 	0.82957 0.31455 0.91123 -0.04200
H 	H 	0.83820 0.29410 0.92090 0.05000
C 	C 	0.84354 0.33330 0.88186 0.02600
C 	C 	0.82453 0.36230 0.87256 -0.02800
S 	S 	0.79064 0.87010 0.39909 0.03800
O 	O 	0.75411 0.84404 0.45908 -0.42700
O 	O 	0.78170 0.79480 0.46485 -0.50000
C 	C 	0.77746 0.82348 0.45108 0.34900
C 	C 	0.80008 0.83348 0.42244 -0.09500
C 	C 	0.82957 0.81455 0.41123 -0.04200
H 	H 	0.83820 0.79410 0.42090 0.04900
C 	C 	0.84354 0.83330 0.38186 0.02600
C 	C 	0.82453 0.86230 0.37256 -0.02800
S 	S 	0.29064 0.62990 0.60091 0.03500
O 	O 	0.25411 0.65596 0.54092 -0.42900
O 	O 	0.28170 0.70520 0.53515 -0.50000
C 	C 	0.27746 0.67652 0.54892 0.34900
C 	C 	0.30008 0.66652 0.57756 -0.09500
C 	C 	0.32957 0.68545 0.58877 -0.04200
H 	H 	0.33820 0.70590 0.57910 0.04900
C 	C 	0.34354 0.66670 0.61814 0.02400
C 	C 	0.32453 0.63770 0.62744 -0.02800
S 	S 	0.29064 0.12990 0.10091 0.03100
O 	O 	0.25411 0.15596 0.04092 -0.43400
O 	O 	0.28170 0.20520 0.03515 -0.50400
C 	C 	0.27746 0.17652 0.04892 0.34900
C 	C 	0.30008 0.16652 0.07756 -0.09600
C 	C 	0.32957 0.18545 0.08877 -0.04300
H 	H 	0.33820 0.20590 0.07910 0.04800
C 	C 	0.34354 0.16670 0.11814 0.02300
C 	C 	0.32453 0.13770 0.12744 -0.02800
S 	S 	0.79064 0.62990 0.10091 0.03300
O 	O 	0.75411 0.65596 0.04092 -0.43300
O 	O 	0.78170 0.70520 0.03515 -0.50400
C 	C 	0.77746 0.67652 0.04892 0.34900
C 	C 	0.80008 0.66652 0.07756 -0.09600
C 	C 	0.82957 0.68545 0.08877 -0.04200
H 	H 	0.83820 0.70590 0.07910 0.04800
C 	C 	0.84354 0.66670 0.11814 0.02400
C 	C 	0.82453 0.63770 0.12744 -0.02800
S 	S 	0.79064 0.12990 0.60091 0.03400
O 	O 	0.75411 0.15596 0.54092 -0.42900
O 	O 	0.78170 0.20520 0.53515 -0.50000
C 	C 	0.77746 0.17652 0.54892 0.34900
C 	C 	0.80008 0.16652 0.57756 -0.09500
C 	C 	0.82957 0.18545 0.58877 -0.04200
H 	H 	0.83820 0.20590 0.57910 0.04900
C 	C 	0.84354 0.16670 0.61814 0.02500
C 	C 	0.82453 0.13770 0.62744 -0.02800
S 	S 	0.70936 0.62990 0.39909 0.03500
O 	O 	0.74589 0.65596 0.45908 -0.42800
O 	O 	0.71830 0.70520 0.46485 -0.50000
C 	C 	0.72254 0.67652 0.45108 0.34900
C 	C 	0.69992 0.66652 0.42244 -0.09500
C 	C 	0.67043 0.68545 0.41123 -0.04200
H 	H 	0.66180 0.70590 0.42090 0.04900
C 	C 	0.65646 0.66670 0.38186 0.02400
C 	C 	0.67547 0.63770 0.37256 -0.02800
S 	S 	0.70936 0.12990 0.89909 0.03600
O 	O 	0.74589 0.15596 0.95908 -0.42200
O 	O 	0.71830 0.20520 0.96485 -0.49200
C 	C 	0.72254 0.17652 0.95108 0.34800
C 	C 	0.69992 0.16652 0.92244 -0.09400
C 	C 	0.67043 0.18545 0.91123 -0.04200
H 	H 	0.66180 0.20590 0.92090 0.05000
C 	C 	0.65646 0.16670 0.88186 0.02500
C 	C 	0.67547 0.13770 0.87256 -0.02800
S 	S 	0.20936 0.62990 0.89909 0.03700
O 	O 	0.24589 0.65596 0.95908 -0.42100
O 	O 	0.21830 0.70520 0.96485 -0.49200
C 	C 	0.22254 0.67652 0.95108 0.34800
C 	C 	0.19992 0.66652 0.92244 -0.09400
C 	C 	0.17043 0.68545 0.91123 -0.04200
H 	H 	0.16180 0.70590 0.92090 0.05000
C 	C 	0.15646 0.66670 0.88186 0.02500
C 	C 	0.17547 0.63770 0.87256 -0.02800
S 	S 	0.20936 0.12990 0.39909 0.03300
O 	O 	0.24589 0.15596 0.45908 -0.43000
O 	O 	0.21830 0.20520 0.46485 -0.50000
C 	C 	0.22254 0.17652 0.45108 0.34900
C 	C 	0.19992 0.16652 0.42244 -0.09500
C 	C 	0.17043 0.18545 0.41123 -0.04200
H 	H 	0.16180 0.20590 0.42090 0.04800
C 	C 	0.15646 0.16670 0.38186 0.02300
C 	C 	0.17547 0.13770 0.37256 -0.02800
S 	S 	0.70936 0.37010 0.60091 0.03500
O 	O 	0.74589 0.34404 0.54092 -0.42800
O 	O 	0.71830 0.29480 0.53515 -0.50000
C 	C 	0.72254 0.32348 0.54892 0.34900
C 	C 	0.69992 0.33348 0.57756 -0.09500
C 	C 	0.67043 0.31455 0.58877 -0.04200
H 	H 	0.66180 0.29410 0.57910 0.04900
C 	C 	0.65646 0.33330 0.61814 0.02400
C 	C 	0.67547 0.36230 0.62744 -0.02800
S 	S 	0.70936 0.87010 0.10091 0.03500
O 	O 	0.74589 0.84404 0.04092 -0.43200
O 	O 	0.71830 0.79480 0.03515 -0.50400
C 	C 	0.72254 0.82348 0.04892 0.34900
C 	C 	0.69992 0.83348 0.07756 -0.09600
C 	C 	0.67043 0.81455 0.08877 -0.04200
H 	H 	0.66180 0.79410 0.07910 0.04800
C 	C 	0.65646 0.83330 0.11814 0.02400
C 	C 	0.67547 0.86230 0.12744 -0.02800
S 	S 	0.20936 0.37010 0.10091 0.03200
O 	O 	0.24589 0.34404 0.04092 -0.43300
O 	O 	0.21830 0.29480 0.03515 -0.50400
C 	C 	0.22254 0.32348 0.04892 0.34900
C 	C 	0.19992 0.33348 0.07756 -0.09600
C 	C 	0.17043 0.31455 0.08877 -0.04300
H 	H 	0.16180 0.29410 0.07910 0.04800
C 	C 	0.15646 0.33330 0.11814 0.02300
C 	C 	0.17547 0.36230 0.12744 -0.02800
S 	S 	0.20936 0.87010 0.60091 0.03700
O 	O 	0.24589 0.84404 0.54092 -0.42800
O 	O 	0.21830 0.79480 0.53515 -0.50000
C 	C 	0.22254 0.82348 0.54892 0.34900
C 	C 	0.19992 0.83348 0.57756 -0.09500
C 	C 	0.17043 0.81455 0.58877 -0.04200
H 	H 	0.16180 0.79410 0.57910 0.04900
C 	C 	0.15646 0.83330 0.61814 0.02400
C 	C 	0.17547 0.86230 0.62744 -0.02800
S 	S 	0.39909 0.29064 0.37010 0.03500
O 	O 	0.45908 0.25411 0.34404 -0.42900
O 	O 	0.46485 0.28170 0.29480 -0.50000
C 	C 	0.45108 0.27746 0.32348 0.34900
C 	C 	0.42244 0.30008 0.33348 -0.09500
C 	C 	0.41123 0.32957 0.31455 -0.04200
H 	H 	0.42090 0.33820 0.29410 0.04900
C 	C 	0.38186 0.34354 0.33330 0.02400
C 	C 	0.37256 0.32453 0.36230 -0.02800
S 	S 	0.39909 0.79064 0.87010 0.03800
O 	O 	0.45908 0.75411 0.84404 -0.42700
O 	O 	0.46485 0.78170 0.79480 -0.50000
C 	C 	0.45108 0.77746 0.82348 0.34900
C 	C 	0.42244 0.80008 0.83348 -0.09500
C 	C 	0.41123 0.82957 0.81455 -0.04200
H 	H 	0.42090 0.83820 0.79410 0.04900
C 	C 	0.38186 0.84354 0.83330 0.02600
C 	C 	0.37256 0.82453 0.86230 -0.02800
S 	S 	0.89909 0.29064 0.87010 0.04000
O 	O 	0.95908 0.25411 0.84404 -0.42000
O 	O 	0.96485 0.28170 0.79480 -0.49200
C 	C 	0.95108 0.27746 0.82348 0.34800
C 	C 	0.92244 0.30008 0.83348 -0.09300
C 	C 	0.91123 0.32957 0.81455 -0.04200
H 	H 	0.92090 0.33820 0.79410 0.05000
C 	C 	0.88186 0.34354 0.83330 0.02600
C 	C 	0.87256 0.32453 0.86230 -0.02800
S 	S 	0.89909 0.79064 0.37010 0.03800
O 	O 	0.95908 0.75411 0.34404 -0.42100
O 	O 	0.96485 0.78170 0.29480 -0.49200
C 	C 	0.95108 0.77746 0.32348 0.34800
C 	C 	0.92244 0.80008 0.33348 -0.09300
C 	C 	0.91123 0.82957 0.31455 -0.04200
H 	H 	0.92090 0.83820 0.29410 0.05000
C 	C 	0.88186 0.84354 0.33330 0.02600
C 	C 	0.87256 0.82453 0.36230 -0.02800
S 	S 	0.60091 0.29064 0.62990 0.03500
O 	O 	0.54092 0.25411 0.65596 -0.42900
O 	O 	0.53515 0.28170 0.70520 -0.50000
C 	C 	0.54892 0.27746 0.67652 0.34900
C 	C 	0.57756 0.30008 0.66652 -0.09500
C 	C 	0.58877 0.32957 0.68545 -0.04200
H 	H 	0.57910 0.33820 0.70590 0.04900
C 	C 	0.61814 0.34354 0.66670 0.02400
C 	C 	0.62744 0.32453 0.63770 -0.02800
S 	S 	0.60091 0.79064 0.12990 0.03400
O 	O 	0.54092 0.75411 0.15596 -0.42900
O 	O 	0.53515 0.78170 0.20520 -0.50000
C 	C 	0.54892 0.77746 0.17652 0.34900
C 	C 	0.57756 0.80008 0.16652 -0.09500
C 	C 	0.58877 0.82957 0.18545 -0.04200
H 	H 	0.57910 0.83820 0.20590 0.04900
C 	C 	0.61814 0.84354 0.16670 0.02500
C 	C 	0.62744 0.82453 0.13770 -0.02800
S 	S 	0.10091 0.29064 0.12990 0.03100
O 	O 	0.04092 0.25411 0.15596 -0.43400
O 	O 	0.03515 0.28170 0.20520 -0.50400
C 	C 	0.04892 0.27746 0.17652 0.34900
C 	C 	0.07756 0.30008 0.16652 -0.09600
C 	C 	0.08877 0.32957 0.18545 -0.04300
H 	H 	0.07910 0.33820 0.20590 0.04800
C 	C 	0.11814 0.34354 0.16670 0.02300
C 	C 	0.12744 0.32453 0.13770 -0.02800
S 	S 	0.10091 0.79064 0.62990 0.03300
O 	O 	0.04092 0.75411 0.65596 -0.43300
O 	O 	0.03515 0.78170 0.70520 -0.50400
C 	C 	0.04892 0.77746 0.67652 0.34900
C 	C 	0.07756 0.80008 0.66652 -0.09600
C 	C 	0.08877 0.82957 0.68545 -0.04200
H 	H 	0.07910 0.83820 0.70590 0.04800
C 	C 	0.11814 0.84354 0.66670 0.02400
C 	C 	0.12744 0.82453 0.63770 -0.02800
S 	S 	0.39909 0.70936 0.62990 0.03500
O 	O 	0.45908 0.74589 0.65596 -0.42800
O 	O 	0.46485 0.71830 0.70520 -0.50000
C 	C 	0.45108 0.72254 0.67652 0.34900
C 	C 	0.42244 0.69992 0.66652 -0.09500
C 	C 	0.41123 0.67043 0.68545 -0.04200
H 	H 	0.42090 0.66180 0.70590 0.04900
C 	C 	0.38186 0.65646 0.66670 0.02400
C 	C 	0.37256 0.67547 0.63770 -0.02800
S 	S 	0.39909 0.20936 0.12990 0.03300
O 	O 	0.45908 0.24589 0.15596 -0.43000
O 	O 	0.46485 0.21830 0.20520 -0.50000
C 	C 	0.45108 0.22254 0.17652 0.34900
C 	C 	0.42244 0.19992 0.16652 -0.09500
C 	C 	0.41123 0.17043 0.18545 -0.04200
H 	H 	0.42090 0.16180 0.20590 0.04800
C 	C 	0.38186 0.15646 0.16670 0.02300
C 	C 	0.37256 0.17547 0.13770 -0.02800
S 	S 	0.89909 0.70936 0.12990 0.03600
O 	O 	0.95908 0.74589 0.15596 -0.42200
O 	O 	0.96485 0.71830 0.20520 -0.49200
C 	C 	0.95108 0.72254 0.17652 0.34800
C 	C 	0.92244 0.69992 0.16652 -0.09400
C 	C 	0.91123 0.67043 0.18545 -0.04200
H 	H 	0.92090 0.66180 0.20590 0.05000
C 	C 	0.88186 0.65646 0.16670 0.02500
C 	C 	0.87256 0.67547 0.13770 -0.02800
S 	S 	0.89909 0.20936 0.62990 0.03700
O 	O 	0.95908 0.24589 0.65596 -0.42100
O 	O 	0.96485 0.21830 0.70520 -0.49200
C 	C 	0.95108 0.22254 0.67652 0.34800
C 	C 	0.92244 0.19992 0.66652 -0.09400
C 	C 	0.91123 0.17043 0.68545 -0.04200
H 	H 	0.92090 0.16180 0.70590 0.05000
C 	C 	0.88186 0.15646 0.66670 0.02500
C 	C 	0.87256 0.17547 0.63770 -0.02800
S 	S 	0.60091 0.70936 0.37010 0.03500
O 	O 	0.54092 0.74589 0.34404 -0.42800
O 	O 	0.53515 0.71830 0.29480 -0.50000
C 	C 	0.54892 0.72254 0.32348 0.34900
C 	C 	0.57756 0.69992 0.33348 -0.09500
C 	C 	0.58877 0.67043 0.31455 -0.04200
H 	H 	0.57910 0.66180 0.29410 0.04900
C 	C 	0.61814 0.65646 0.33330 0.02400
C 	C 	0.62744 0.67547 0.36230 -0.02800
S 	S 	0.60091 0.20936 0.87010 0.03700
O 	O 	0.54092 0.24589 0.84404 -0.42800
O 	O 	0.53515 0.21830 0.79480 -0.50000
C 	C 	0.54892 0.22254 0.82348 0.34900
C 	C 	0.57756 0.19992 0.83348 -0.09500
C 	C 	0.58877 0.17043 0.81455 -0.04200
H 	H 	0.57910 0.16180 0.79410 0.04900
C 	C 	0.61814 0.15646 0.83330 0.02400
C 	C 	0.62744 0.17547 0.86230 -0.02800
S 	S 	0.10091 0.70936 0.87010 0.03500
O 	O 	0.04092 0.74589 0.84404 -0.43200
O 	O 	0.03515 0.71830 0.79480 -0.50400
C 	C 	0.04892 0.72254 0.82348 0.34900
C 	C 	0.07756 0.69992 0.83348 -0.09600
C 	C 	0.08877 0.67043 0.81455 -0.04200
H 	H 	0.07910 0.66180 0.79410 0.04800
C 	C 	0.11814 0.65646 0.83330 0.02400
C 	C 	0.12744 0.67547 0.86230 -0.02800
S 	S 	0.10091 0.20936 0.37010 0.03200
O 	O 	0.04092 0.24589 0.34404 -0.43300
O 	O 	0.03515 0.21830 0.29480 -0.50400
C 	C 	0.04892 0.22254 0.32348 0.34900
C 	C 	0.07756 0.19992 0.33348 -0.09600
C 	C 	0.08877 0.17043 0.31455 -0.04300
H 	H 	0.07910 0.16180 0.29410 0.04800
C 	C 	0.11814 0.15646 0.33330 0.02300
C 	C 	0.12744 0.17547 0.36230 -0.02800
S 	S 	0.89909 0.87010 0.20936 0.03900
O 	O 	0.95908 0.84404 0.24589 -0.42000
O 	O 	0.96485 0.79480 0.21830 -0.49200
C 	C 	0.95108 0.82348 0.22254 0.34800
C 	C 	0.92244 0.83348 0.19992 -0.09400
C 	C 	0.91123 0.81455 0.17043 -0.04200
H 	H 	0.92090 0.79410 0.16180 0.05000
C 	C 	0.88186 0.83330 0.15646 0.02500
C 	C 	0.87256 0.86230 0.17547 -0.02800
S 	S 	0.89909 0.37010 0.70936 0.03800
O 	O 	0.95908 0.34404 0.74589 -0.42100
O 	O 	0.96485 0.29480 0.71830 -0.49200
C 	C 	0.95108 0.32348 0.72254 0.34800
C 	C 	0.92244 0.33348 0.69992 -0.09300
C 	C 	0.91123 0.31455 0.67043 -0.04200
H 	H 	0.92090 0.29410 0.66180 0.05000
C 	C 	0.88186 0.33330 0.65646 0.02500
C 	C 	0.87256 0.36230 0.67547 -0.02800
S 	S 	0.39909 0.87010 0.70936 0.03700
O 	O 	0.45908 0.84404 0.74589 -0.42700
O 	O 	0.46485 0.79480 0.71830 -0.50000
C 	C 	0.45108 0.82348 0.72254 0.34900
C 	C 	0.42244 0.83348 0.69992 -0.09500
C 	C 	0.41123 0.81455 0.67043 -0.04200
H 	H 	0.42090 0.79410 0.66180 0.04900
C 	C 	0.38186 0.83330 0.65646 0.02500
C 	C 	0.37256 0.86230 0.67547 -0.02800
S 	S 	0.39909 0.37010 0.20936 0.03500
O 	O 	0.45908 0.34404 0.24589 -0.42900
O 	O 	0.46485 0.29480 0.21830 -0.50000
C 	C 	0.45108 0.32348 0.22254 0.34900
C 	C 	0.42244 0.33348 0.19992 -0.09500
C 	C 	0.41123 0.31455 0.17043 -0.04200
H 	H 	0.42090 0.29410 0.16180 0.04900
C 	C 	0.38186 0.33330 0.15646 0.02400
C 	C 	0.37256 0.36230 0.17547 -0.02800
S 	S 	0.10091 0.12990 0.20936 0.03000
O 	O 	0.04092 0.15596 0.24589 -0.43400
O 	O 	0.03515 0.20520 0.21830 -0.50400
C 	C 	0.04892 0.17652 0.22254 0.34900
C 	C 	0.07756 0.16652 0.19992 -0.09600
C 	C 	0.08877 0.18545 0.17043 -0.04300
H 	H 	0.07910 0.20590 0.16180 0.04800
C 	C 	0.11814 0.16670 0.15646 0.02300
C 	C 	0.12744 0.13770 0.17547 -0.02800
S 	S 	0.10091 0.62990 0.70936 0.03300
O 	O 	0.04092 0.65596 0.74589 -0.43300
O 	O 	0.03515 0.70520 0.71830 -0.50400
C 	C 	0.04892 0.67652 0.72254 0.34900
C 	C 	0.07756 0.66652 0.69992 -0.09600
C 	C 	0.08877 0.68545 0.67043 -0.04300
H 	H 	0.07910 0.70590 0.66180 0.04800
C 	C 	0.11814 0.66670 0.65646 0.02300
C 	C 	0.12744 0.63770 0.67547 -0.02800
S 	S 	0.60091 0.12990 0.70936 0.03300
O 	O 	0.54092 0.15596 0.74589 -0.42900
O 	O 	0.53515 0.20520 0.71830 -0.50000
C 	C 	0.54892 0.17652 0.72254 0.34900
C 	C 	0.57756 0.16652 0.69992 -0.09500
C 	C 	0.58877 0.18545 0.67043 -0.04200
H 	H 	0.57910 0.20590 0.66180 0.04900
C 	C 	0.61814 0.16670 0.65646 0.02400
C 	C 	0.62744 0.13770 0.67547 -0.02800
S 	S 	0.60091 0.62990 0.20936 0.03400
O 	O 	0.54092 0.65596 0.24589 -0.42900
O 	O 	0.53515 0.70520 0.21830 -0.50000
C 	C 	0.54892 0.67652 0.22254 0.34900
C 	C 	0.57756 0.66652 0.19992 -0.09500
C 	C 	0.58877 0.68545 0.17043 -0.04200
H 	H 	0.57910 0.70590 0.16180 0.04800
C 	C 	0.61814 0.66670 0.15646 0.02400
C 	C 	0.62744 0.63770 0.17547 -0.02800
S 	S 	0.89909 0.12990 0.79064 0.03600
O 	O 	0.95908 0.15596 0.75411 -0.42200
O 	O 	0.96485 0.20520 0.78170 -0.49200
C 	C 	0.95108 0.17652 0.77746 0.34800
C 	C 	0.92244 0.16652 0.80008 -0.09300
C 	C 	0.91123 0.18545 0.82957 -0.04200
H 	H 	0.92090 0.20590 0.83820 0.05000
C 	C 	0.88186 0.16670 0.84354 0.02600
C 	C 	0.87256 0.13770 0.82453 -0.02800
S 	S 	0.89909 0.62990 0.29064 0.03800
O 	O 	0.95908 0.65596 0.25411 -0.42100
O 	O 	0.96485 0.70520 0.28170 -0.49200
C 	C 	0.95108 0.67652 0.27746 0.34800
C 	C 	0.92244 0.66652 0.30008 -0.09300
C 	C 	0.91123 0.68545 0.32957 -0.04200
H 	H 	0.92090 0.70590 0.33820 0.05000
C 	C 	0.88186 0.66670 0.34354 0.02500
C 	C 	0.87256 0.63770 0.32453 -0.02800
S 	S 	0.39909 0.12990 0.29064 0.03300
O 	O 	0.45908 0.15596 0.25411 -0.43000
O 	O 	0.46485 0.20520 0.28170 -0.50000
C 	C 	0.45108 0.17652 0.27746 0.34900
C 	C 	0.42244 0.16652 0.30008 -0.09500
C 	C 	0.41123 0.18545 0.32957 -0.04200
H 	H 	0.42090 0.20590 0.33820 0.04900
C 	C 	0.38186 0.16670 0.34354 0.02400
C 	C 	0.37256 0.13770 0.32453 -0.02800
S 	S 	0.39909 0.62990 0.79064 0.03600
O 	O 	0.45908 0.65596 0.75411 -0.42800
O 	O 	0.46485 0.70520 0.78170 -0.50000
C 	C 	0.45108 0.67652 0.77746 0.34900
C 	C 	0.42244 0.66652 0.80008 -0.09500
C 	C 	0.41123 0.68545 0.82957 -0.04200
H 	H 	0.42090 0.70590 0.83820 0.04900
C 	C 	0.38186 0.66670 0.84354 0.02500
C 	C 	0.37256 0.63770 0.82453 -0.02800
S 	S 	0.10091 0.87010 0.79064 0.03600
O 	O 	0.04092 0.84404 0.75411 -0.43200
O 	O 	0.03515 0.79480 0.78170 -0.50400
C 	C 	0.04892 0.82348 0.77746 0.34900
C 	C 	0.07756 0.83348 0.80008 -0.09600
C 	C 	0.08877 0.81455 0.82957 -0.04200
H 	H 	0.07910 0.79410 0.83820 0.04900
C 	C 	0.11814 0.83330 0.84354 0.02500
C 	C 	0.12744 0.86230 0.82453 -0.02800
S 	S 	0.10091 0.37010 0.29064 0.03300
O 	O 	0.04092 0.34404 0.25411 -0.43300
O 	O 	0.03515 0.29480 0.28170 -0.50400
C 	C 	0.04892 0.32348 0.27746 0.34900
C 	C 	0.07756 0.33348 0.30008 -0.09600
C 	C 	0.08877 0.31455 0.32957 -0.04200
H 	H 	0.07910 0.29410 0.33820 0.04800
C 	C 	0.11814 0.33330 0.34354 0.02400
C 	C 	0.12744 0.36230 0.32453 -0.02800
S 	S 	0.60091 0.87010 0.29064 0.03700
O 	O 	0.54092 0.84404 0.25411 -0.42800
O 	O 	0.53515 0.79480 0.28170 -0.50000
C 	C 	0.54892 0.82348 0.27746 0.34900
C 	C 	0.57756 0.83348 0.30008 -0.09500
C 	C 	0.58877 0.81455 0.32957 -0.04200
H 	H 	0.57910 0.79410 0.33820 0.04900
C 	C 	0.61814 0.83330 0.34354 0.02500
C 	C 	0.62744 0.86230 0.32453 -0.02800
S 	S 	0.60091 0.37010 0.79064 0.03600
O 	O 	0.54092 0.34404 0.75411 -0.42800
O 	O 	0.53515 0.29480 0.78170 -0.50000
C 	C 	0.54892 0.32348 0.77746 0.34900
C 	C 	0.57756 0.33348 0.80008 -0.09500
C 	C 	0.58877 0.31455 0.82957 -0.04200
H 	H 	0.57910 0.29410 0.83820 0.04900
C 	C 	0.61814 0.33330 0.84354 0.02500
C 	C 	0.62744 0.36230 0.82453 -0.02800
S 	S 	0.87010 0.79064 0.10091 0.03600
O 	O 	0.84404 0.75411 0.04092 -0.43200
O 	O 	0.79480 0.78170 0.03515 -0.50400
C 	C 	0.82348 0.77746 0.04892 0.34900
C 	C 	0.83348 0.80008 0.07756 -0.09600
C 	C 	0.81455 0.82957 0.08877 -0.04200
H 	H 	0.79410 0.83820 0.07910 0.04900
C 	C 	0.83330 0.84354 0.11814 0.02500
C 	C 	0.86230 0.82453 0.12744 -0.02800
S 	S 	0.87010 0.29064 0.60091 0.03700
O 	O 	0.84404 0.25411 0.54092 -0.42800
O 	O 	0.79480 0.28170 0.53515 -0.50000
C 	C 	0.82348 0.27746 0.54892 0.34900
C 	C 	0.83348 0.30008 0.57756 -0.09500
C 	C 	0.81455 0.32957 0.58877 -0.04200
H 	H 	0.79410 0.33820 0.57910 0.04900
C 	C 	0.83330 0.34354 0.61814 0.02500
C 	C 	0.86230 0.32453 0.62744 -0.02800
S 	S 	0.37010 0.79064 0.60091 0.03600
O 	O 	0.34404 0.75411 0.54092 -0.42800
O 	O 	0.29480 0.78170 0.53515 -0.50000
C 	C 	0.32348 0.77746 0.54892 0.34900
C 	C 	0.33348 0.80008 0.57756 -0.09500
C 	C 	0.31455 0.82957 0.58877 -0.04200
H 	H 	0.29410 0.83820 0.57910 0.04900
C 	C 	0.33330 0.84354 0.61814 0.02500
C 	C 	0.36230 0.82453 0.62744 -0.02800
S 	S 	0.37010 0.29064 0.10091 0.03300
O 	O 	0.34404 0.25411 0.04092 -0.43300
O 	O 	0.29480 0.28170 0.03515 -0.50400
C 	C 	0.32348 0.27746 0.04892 0.34900
C 	C 	0.33348 0.30008 0.07756 -0.09600
C 	C 	0.31455 0.32957 0.08877 -0.04200
H 	H 	0.29410 0.33820 0.07910 0.04800
C 	C 	0.33330 0.34354 0.11814 0.02400
C 	C 	0.36230 0.32453 0.12744 -0.02800
S 	S 	0.12990 0.79064 0.89909 0.03600
O 	O 	0.15596 0.75411 0.95908 -0.42200
O 	O 	0.20520 0.78170 0.96485 -0.49200
C 	C 	0.17652 0.77746 0.95108 0.34800
C 	C 	0.16652 0.80008 0.92244 -0.09300
C 	C 	0.18545 0.82957 0.91123 -0.04200
H 	H 	0.20590 0.83820 0.92090 0.05000
C 	C 	0.16670 0.84354 0.88186 0.02600
C 	C 	0.13770 0.82453 0.87256 -0.02800
S 	S 	0.12990 0.29064 0.39909 0.03300
O 	O 	0.15596 0.25411 0.45908 -0.43000
O 	O 	0.20520 0.28170 0.46485 -0.50000
C 	C 	0.17652 0.27746 0.45108 0.34900
C 	C 	0.16652 0.30008 0.42244 -0.09500
C 	C 	0.18545 0.32957 0.41123 -0.04200
H 	H 	0.20590 0.33820 0.42090 0.04900
C 	C 	0.16670 0.34354 0.38186 0.02400
C 	C 	0.13770 0.32453 0.37256 -0.02800
S 	S 	0.62990 0.79064 0.39909 0.03600
O 	O 	0.65596 0.75411 0.45908 -0.42800
O 	O 	0.70520 0.78170 0.46485 -0.50000
C 	C 	0.67652 0.77746 0.45108 0.34900
C 	C 	0.66652 0.80008 0.42244 -0.09500
C 	C 	0.68545 0.82957 0.41123 -0.04200
H 	H 	0.70590 0.83820 0.42090 0.04900
C 	C 	0.66670 0.84354 0.38186 0.02500
C 	C 	0.63770 0.82453 0.37256 -0.02800
S 	S 	0.62990 0.29064 0.89909 0.03800
O 	O 	0.65596 0.25411 0.95908 -0.42100
O 	O 	0.70520 0.28170 0.96485 -0.49200
C 	C 	0.67652 0.27746 0.95108 0.34800
C 	C 	0.66652 0.30008 0.92244 -0.09300
C 	C 	0.68545 0.32957 0.91123 -0.04200
H 	H 	0.70590 0.33820 0.92090 0.05000
C 	C 	0.66670 0.34354 0.88186 0.02500
C 	C 	0.63770 0.32453 0.87256 -0.02800
S 	S 	0.12990 0.20936 0.10091 0.03000
O 	O 	0.15596 0.24589 0.04092 -0.43400
O 	O 	0.20520 0.21830 0.03515 -0.50400
C 	C 	0.17652 0.22254 0.04892 0.34900
C 	C 	0.16652 0.19992 0.07756 -0.09600
C 	C 	0.18545 0.17043 0.08877 -0.04300
H 	H 	0.20590 0.16180 0.07910 0.04800
C 	C 	0.16670 0.15646 0.11814 0.02300
C 	C 	0.13770 0.17547 0.12744 -0.02800
S 	S 	0.12990 0.70936 0.60091 0.03300
O 	O 	0.15596 0.74589 0.54092 -0.42900
O 	O 	0.20520 0.71830 0.53515 -0.50000
C 	C 	0.17652 0.72254 0.54892 0.34900
C 	C 	0.16652 0.69992 0.57756 -0.09500
C 	C 	0.18545 0.67043 0.58877 -0.04200
H 	H 	0.20590 0.66180 0.57910 0.04900
C 	C 	0.16670 0.65646 0.61814 0.02400
C 	C 	0.13770 0.67547 0.62744 -0.02800
S 	S 	0.62990 0.20936 0.60091 0.03400
O 	O 	0.65596 0.24589 0.54092 -0.42900
O 	O 	0.70520 0.21830 0.53515 -0.50000
C 	C 	0.67652 0.22254 0.54892 0.34900
C 	C 	0.66652 0.19992 0.57756 -0.09500
C 	C 	0.68545 0.17043 0.58877 -0.04200
H 	H 	0.70590 0.16180 0.57910 0.04800
C 	C 	0.66670 0.15646 0.61814 0.02400
C 	C 	0.63770 0.17547 0.62744 -0.02800
S 	S 	0.62990 0.70936 0.10091 0.03300
O 	O 	0.65596 0.74589 0.04092 -0.43300
O 	O 	0.70520 0.71830 0.03515 -0.50400
C 	C 	0.67652 0.72254 0.04892 0.34900
C 	C 	0.66652 0.69992 0.07756 -0.09600
C 	C 	0.68545 0.67043 0.08877 -0.04300
H 	H 	0.70590 0.66180 0.07910 0.04800
C 	C 	0.66670 0.65646 0.11814 0.02300
C 	C 	0.63770 0.67547 0.12744 -0.02800
S 	S 	0.87010 0.20936 0.89909 0.03900
O 	O 	0.84404 0.24589 0.95908 -0.42000
O 	O 	0.79480 0.21830 0.96485 -0.49200
C 	C 	0.82348 0.22254 0.95108 0.34800
C 	C 	0.83348 0.19992 0.92244 -0.09400
C 	C 	0.81455 0.17043 0.91123 -0.04200
H 	H 	0.79410 0.16180 0.92090 0.05000
C 	C 	0.83330 0.15646 0.88186 0.02500
C 	C 	0.86230 0.17547 0.87256 -0.02800
S 	S 	0.87010 0.70936 0.39909 0.03700
O 	O 	0.84404 0.74589 0.45908 -0.42700
O 	O 	0.79480 0.71830 0.46485 -0.50000
C 	C 	0.82348 0.72254 0.45108 0.34900
C 	C 	0.83348 0.69992 0.42244 -0.09500
C 	C 	0.81455 0.67043 0.41123 -0.04200
H 	H 	0.79410 0.66180 0.42090 0.04900
C 	C 	0.83330 0.65646 0.38186 0.02500
C 	C 	0.86230 0.67547 0.37256 -0.02800
S 	S 	0.37010 0.20936 0.39909 0.03500
O 	O 	0.34404 0.24589 0.45908 -0.42900
O 	O 	0.29480 0.21830 0.46485 -0.50000
C 	C 	0.32348 0.22254 0.45108 0.34900
C 	C 	0.33348 0.19992 0.42244 -0.09500
C 	C 	0.31455 0.17043 0.41123 -0.04200
H 	H 	0.29410 0.16180 0.42090 0.04900
C 	C 	0.33330 0.15646 0.38186 0.02400
C 	C 	0.36230 0.17547 0.37256 -0.02800
S 	S 	0.37010 0.70936 0.89909 0.03800
O 	O 	0.34404 0.74589 0.95908 -0.42100
O 	O 	0.29480 0.71830 0.96485 -0.49200
C 	C 	0.32348 0.72254 0.95108 0.34800
C 	C 	0.33348 0.69992 0.92244 -0.09300
C 	C 	0.31455 0.67043 0.91123 -0.04200
H 	H 	0.29410 0.66180 0.92090 0.05000
C 	C 	0.33330 0.65646 0.88186 0.02500
C 	C 	0.36230 0.67547 0.87256 -0.02800
S 	S 	0.79064 0.89909 0.12990 0.03600
O 	O 	0.75411 0.95908 0.15596 -0.42200
O 	O 	0.78170 0.96485 0.20520 -0.49200
C 	C 	0.77746 0.95108 0.17652 0.34800
C 	C 	0.80008 0.92244 0.16652 -0.09300
C 	C 	0.82957 0.91123 0.18545 -0.04200
H 	H 	0.83820 0.92090 0.20590 0.05000
C 	C 	0.84354 0.88186 0.16670 0.02600
C 	C 	0.82453 0.87256 0.13770 -0.02800
S 	S 	0.79064 0.39909 0.62990 0.03600
O 	O 	0.75411 0.45908 0.65596 -0.42800
O 	O 	0.78170 0.46485 0.70520 -0.50000
C 	C 	0.77746 0.45108 0.67652 0.34900
C 	C 	0.80008 0.42244 0.66652 -0.09500
C 	C 	0.82957 0.41123 0.68545 -0.04200
H 	H 	0.83820 0.42090 0.70590 0.04900
C 	C 	0.84354 0.38186 0.66670 0.02500
C 	C 	0.82453 0.37256 0.63770 -0.02800
S 	S 	0.29064 0.89909 0.62990 0.03800
O 	O 	0.25411 0.95908 0.65596 -0.42100
O 	O 	0.28170 0.96485 0.70520 -0.49200
C 	C 	0.27746 0.95108 0.67652 0.34800
C 	C 	0.30008 0.92244 0.66652 -0.09300
C 	C 	0.32957 0.91123 0.68545 -0.04200
H 	H 	0.33820 0.92090 0.70590 0.05000
C 	C 	0.34354 0.88186 0.66670 0.02500
C 	C 	0.32453 0.87256 0.63770 -0.02800
S 	S 	0.29064 0.39909 0.12990 0.03300
O 	O 	0.25411 0.45908 0.15596 -0.43000
O 	O 	0.28170 0.46485 0.20520 -0.50000
C 	C 	0.27746 0.45108 0.17652 0.34900
C 	C 	0.30008 0.42244 0.16652 -0.09500
C 	C 	0.32957 0.41123 0.18545 -0.04200
H 	H 	0.33820 0.42090 0.20590 0.04900
C 	C 	0.34354 0.38186 0.16670 0.02400
C 	C 	0.32453 0.37256 0.13770 -0.02800
S 	S 	0.79064 0.10091 0.87010 0.03600
O 	O 	0.75411 0.04092 0.84404 -0.43200
O 	O 	0.78170 0.03515 0.79480 -0.50400
C 	C 	0.77746 0.04892 0.82348 0.34900
C 	C 	0.80008 0.07756 0.83348 -0.09600
C 	C 	0.82957 0.08877 0.81455 -0.04200
H 	H 	0.83820 0.07910 0.79410 0.04900
C 	C 	0.84354 0.11814 0.83330 0.02500
C 	C 	0.82453 0.12744 0.86230 -0.02800
S 	S 	0.79064 0.60091 0.37010 0.03600
O 	O 	0.75411 0.54092 0.34404 -0.42800
O 	O 	0.78170 0.53515 0.29480 -0.50000
C 	C 	0.77746 0.54892 0.32348 0.34900
C 	C 	0.80008 0.57756 0.33348 -0.09500
C 	C 	0.82957 0.58877 0.31455 -0.04200
H 	H 	0.83820 0.57910 0.29410 0.04900
C 	C 	0.84354 0.61814 0.33330 0.02500
C 	C 	0.82453 0.62744 0.36230 -0.02800
S 	S 	0.29064 0.10091 0.37010 0.03300
O 	O 	0.25411 0.04092 0.34404 -0.43300
O 	O 	0.28170 0.03515 0.29480 -0.50400
C 	C 	0.27746 0.04892 0.32348 0.34900
C 	C 	0.30008 0.07756 0.33348 -0.09600
C 	C 	0.32957 0.08877 0.31455 -0.04200
H 	H 	0.33820 0.07910 0.29410 0.04800
C 	C 	0.34354 0.11814 0.33330 0.02400
C 	C 	0.32453 0.12744 0.36230 -0.02800
S 	S 	0.29064 0.60091 0.87010 0.03700
O 	O 	0.25411 0.54092 0.84404 -0.42800
O 	O 	0.28170 0.53515 0.79480 -0.50000
C 	C 	0.27746 0.54892 0.82348 0.34900
C 	C 	0.30008 0.57756 0.83348 -0.09500
C 	C 	0.32957 0.58877 0.81455 -0.04200
H 	H 	0.33820 0.57910 0.79410 0.04900
C 	C 	0.34354 0.61814 0.83330 0.02500
C 	C 	0.32453 0.62744 0.86230 -0.02800
S 	S 	0.20936 0.89909 0.87010 0.03900
O 	O 	0.24589 0.95908 0.84404 -0.42000
O 	O 	0.21830 0.96485 0.79480 -0.49200
C 	C 	0.22254 0.95108 0.82348 0.34800
C 	C 	0.19992 0.92244 0.83348 -0.09400
C 	C 	0.17043 0.91123 0.81455 -0.04200
H 	H 	0.16180 0.92090 0.79410 0.05000
C 	C 	0.15646 0.88186 0.83330 0.02500
C 	C 	0.17547 0.87256 0.86230 -0.02800
S 	S 	0.20936 0.39909 0.37010 0.03500
O 	O 	0.24589 0.45908 0.34404 -0.42900
O 	O 	0.21830 0.46485 0.29480 -0.50000
C 	C 	0.22254 0.45108 0.32348 0.34900
C 	C 	0.19992 0.42244 0.33348 -0.09500
C 	C 	0.17043 0.41123 0.31455 -0.04200
H 	H 	0.16180 0.42090 0.29410 0.04900
C 	C 	0.15646 0.38186 0.33330 0.02400
C 	C 	0.17547 0.37256 0.36230 -0.02800
S 	S 	0.70936 0.89909 0.37010 0.03800
O 	O 	0.74589 0.95908 0.34404 -0.42100
O 	O 	0.71830 0.96485 0.29480 -0.49200
C 	C 	0.72254 0.95108 0.32348 0.34800
C 	C 	0.69992 0.92244 0.33348 -0.09300
C 	C 	0.67043 0.91123 0.31455 -0.04200
H 	H 	0.66180 0.92090 0.29410 0.05000
C 	C 	0.65646 0.88186 0.33330 0.02500
C 	C 	0.67547 0.87256 0.36230 -0.02800
S 	S 	0.70936 0.39909 0.87010 0.03700
O 	O 	0.74589 0.45908 0.84404 -0.42700
O 	O 	0.71830 0.46485 0.79480 -0.50000
C 	C 	0.72254 0.45108 0.82348 0.34900
C 	C 	0.69992 0.42244 0.83348 -0.09500
C 	C 	0.67043 0.41123 0.81455 -0.04200
H 	H 	0.66180 0.42090 0.79410 0.04900
C 	C 	0.65646 0.38186 0.83330 0.02500
C 	C 	0.67547 0.37256 0.86230 -0.02800
S 	S 	0.20936 0.10091 0.12990 0.03000
O 	O 	0.24589 0.04092 0.15596 -0.43400
O 	O 	0.21830 0.03515 0.20520 -0.50400
C 	C 	0.22254 0.04892 0.17652 0.34900
C 	C 	0.19992 0.07756 0.16652 -0.09600
C 	C 	0.17043 0.08877 0.18545 -0.04300
H 	H 	0.16180 0.07910 0.20590 0.04800
C 	C 	0.15646 0.11814 0.16670 0.02300
C 	C 	0.17547 0.12744 0.13770 -0.02800
S 	S 	0.20936 0.60091 0.62990 0.03400
O 	O 	0.24589 0.54092 0.65596 -0.42900
O 	O 	0.21830 0.53515 0.70520 -0.50000
C 	C 	0.22254 0.54892 0.67652 0.34900
C 	C 	0.19992 0.57756 0.66652 -0.09500
C 	C 	0.17043 0.58877 0.68545 -0.04200
H 	H 	0.16180 0.57910 0.70590 0.04800
C 	C 	0.15646 0.61814 0.66670 0.02400
C 	C 	0.17547 0.62744 0.63770 -0.02800
S 	S 	0.70936 0.10091 0.62990 0.03300
O 	O 	0.74589 0.04092 0.65596 -0.43300
O 	O 	0.71830 0.03515 0.70520 -0.50400
C 	C 	0.72254 0.04892 0.67652 0.34900
C 	C 	0.69992 0.07756 0.66652 -0.09600
C 	C 	0.67043 0.08877 0.68545 -0.04300
H 	H 	0.66180 0.07910 0.70590 0.04800
C 	C 	0.65646 0.11814 0.66670 0.02300
C 	C 	0.67547 0.12744 0.63770 -0.02800
S 	S 	0.70936 0.60091 0.12990 0.03300
O 	O 	0.74589 0.54092 0.15596 -0.42900
O 	O 	0.71830 0.53515 0.20520 -0.50000
C 	C 	0.72254 0.54892 0.17652 0.34900
C 	C 	0.69992 0.57756 0.16652 -0.09500
C 	C 	0.67043 0.58877 0.18545 -0.04200
H 	H 	0.66180 0.57910 0.20590 0.04900
C 	C 	0.65646 0.61814 0.16670 0.02400
C 	C 	0.67547 0.62744 0.13770 -0.02800
Mn	Mn	0.68386 0.50000 0.77163 1.27300
Mn	Mn	0.68386 -0.00000 0.27163 1.26500
Mn	Mn	0.18386 0.50000 0.27163 1.27300
Mn	Mn	0.18386 0.00000 0.77163 1.26500
Mn	Mn	0.31614 0.50000 0.77163 1.27300
Mn	Mn	0.31614 -0.00000 0.27163 1.26600
Mn	Mn	0.81614 0.50000 0.27163 1.27300
Mn	Mn	0.81614 0.00000 0.77163 1.26600
Mn	Mn	0.31614 0.50000 0.22837 1.27300
Mn	Mn	0.31614 0.00000 0.72837 1.26600
Mn	Mn	0.81614 0.50000 0.72837 1.27300
Mn	Mn	0.81614 0.00000 0.22837 1.26600
Mn	Mn	0.68386 0.50000 0.22837 1.27300
Mn	Mn	0.68386 0.00000 0.72837 1.26500
Mn	Mn	0.18386 0.50000 0.72837 1.27300
Mn	Mn	0.18386 0.00000 0.22837 1.26500
Mn	Mn	0.77163 0.68386 0.50000 1.27300
Mn	Mn	0.77163 0.18386 -0.00000 1.26500
Mn	Mn	0.27163 0.68386 -0.00000 1.26500
Mn	Mn	0.27163 0.18386 0.50000 1.27300
Mn	Mn	0.77163 0.31614 0.50000 1.27300
Mn	Mn	0.77163 0.81614 -0.00000 1.26600
Mn	Mn	0.27163 0.31614 -0.00000 1.26600
Mn	Mn	0.27163 0.81614 0.50000 1.27300
Mn	Mn	0.22837 0.31614 0.50000 1.27300
Mn	Mn	0.22837 0.81614 -0.00000 1.26600
Mn	Mn	0.72837 0.31614 -0.00000 1.26600
Mn	Mn	0.72837 0.81614 0.50000 1.27300
Mn	Mn	0.22837 0.68386 0.50000 1.27300
Mn	Mn	0.22837 0.18386 -0.00000 1.26500
Mn	Mn	0.72837 0.68386 -0.00000 1.26500
Mn	Mn	0.72837 0.18386 0.50000 1.27300
Mn	Mn	0.50000 0.77163 0.68386 1.27300
Mn	Mn	0.50000 0.27163 0.18386 1.27300
Mn	Mn	0.00000 0.77163 0.18386 1.26500
Mn	Mn	0.00000 0.27163 0.68386 1.26500
Mn	Mn	0.50000 0.77163 0.31614 1.27300
Mn	Mn	0.50000 0.27163 0.81614 1.27300
Mn	Mn	-0.00000 0.77163 0.81614 1.26600
Mn	Mn	0.00000 0.27163 0.31614 1.26600
Mn	Mn	0.50000 0.22837 0.31614 1.27300
Mn	Mn	0.50000 0.72837 0.81614 1.27300
Mn	Mn	-0.00000 0.22837 0.81614 1.26600
Mn	Mn	-0.00000 0.72837 0.31614 1.26600
Mn	Mn	0.50000 0.22837 0.68386 1.27300
Mn	Mn	0.50000 0.72837 0.18386 1.27300
Mn	Mn	0.00000 0.22837 0.18386 1.26500
Mn	Mn	0.00000 0.72837 0.68386 1.26500
Mn	Mn	-0.00000 0.18386 0.72837 1.26500
Mn	Mn	0.00000 0.68386 0.22837 1.26500
Mn	Mn	0.50000 0.18386 0.22837 1.27300
Mn	Mn	0.50000 0.68386 0.72837 1.27300
Mn	Mn	0.00000 0.81614 0.72837 1.26600
Mn	Mn	0.00000 0.31614 0.22837 1.26500
Mn	Mn	0.50000 0.81614 0.22837 1.27300
Mn	Mn	0.50000 0.31614 0.72837 1.27300
Mn	Mn	0.00000 0.81614 0.27163 1.26600
Mn	Mn	0.00000 0.31614 0.77163 1.26600
Mn	Mn	0.50000 0.81614 0.77163 1.27300
Mn	Mn	0.50000 0.31614 0.27163 1.27300
Mn	Mn	0.00000 0.18386 0.27163 1.26500
Mn	Mn	0.00000 0.68386 0.77163 1.26600
Mn	Mn	0.50000 0.18386 0.77163 1.27300
Mn	Mn	0.50000 0.68386 0.27163 1.27300
Mn	Mn	0.18386 0.27163 -0.00000 1.26500
Mn	Mn	0.18386 0.77163 0.50000 1.27300
Mn	Mn	0.68386 0.27163 0.50000 1.27300
Mn	Mn	0.68386 0.77163 -0.00000 1.26600
Mn	Mn	0.81614 0.27163 -0.00000 1.26600
Mn	Mn	0.81614 0.77163 0.50000 1.27300
Mn	Mn	0.31614 0.27163 0.50000 1.27300
Mn	Mn	0.31614 0.77163 -0.00000 1.26600
Mn	Mn	0.81614 0.72837 -0.00000 1.26600
Mn	Mn	0.81614 0.22837 0.50000 1.27300
Mn	Mn	0.31614 0.72837 0.50000 1.27300
Mn	Mn	0.31614 0.22837 -0.00000 1.26500
Mn	Mn	0.18386 0.72837 -0.00000 1.26500
Mn	Mn	0.18386 0.22837 0.50000 1.27300
Mn	Mn	0.68386 0.72837 0.50000 1.27300
Mn	Mn	0.68386 0.22837 -0.00000 1.26500
Mn	Mn	0.27163 0.00000 0.81614 1.26600
Mn	Mn	0.27163 0.50000 0.31614 1.27300
Mn	Mn	0.77163 0.00000 0.31614 1.26600
Mn	Mn	0.77163 0.50000 0.81614 1.27300
Mn	Mn	0.27163 0.00000 0.18386 1.26500
Mn	Mn	0.27163 0.50000 0.68386 1.27300
Mn	Mn	0.77163 0.00000 0.68386 1.26600
Mn	Mn	0.77163 0.50000 0.18386 1.27300
Mn	Mn	0.72837 0.00000 0.18386 1.26500
Mn	Mn	0.72837 0.50000 0.68386 1.27300
Mn	Mn	0.22837 0.00000 0.68386 1.26500
Mn	Mn	0.22837 0.50000 0.18386 1.27300
Mn	Mn	0.72837 0.00000 0.81614 1.26600
Mn	Mn	0.72837 0.50000 0.31614 1.27300
Mn	Mn	0.22837 0.00000 0.31614 1.26500
Mn	Mn	0.22837 0.50000 0.81614 1.27300
