data_crystal

_cell_length_a 28.84710
_cell_length_b 14.45340
_cell_length_c 12.25200
_cell_angle_alpha 90.00000
_cell_angle_beta  90.00000
_cell_angle_gamma 90.00000

_symmetry_space_group_name_	'P 1'
_symmetry_space_group_name_H-M	'P 1'

loop_
_symmetry_equiv_pos_as_xyz
  x,y,z

loop_
_atom_site_label
_atom_site_type_symbol
_atom_site_fract_x
_atom_site_fract_y
_atom_site_fract_z
_atom_site_charge
Dy	Dy	0.15720 0.39056 0.73698 1.77000
Dy	Dy	0.09343 0.07287 0.52302 1.77500
Co	Co	0.96307 0.38032 0.53843 1.10300
Co	Co	0.20310 0.17064 0.12248 1.16000
O 	O 	0.12370 0.41810 0.91750 -0.39900
O 	O 	0.06260 0.49590 0.98160 -0.42400
O 	O 	0.21190 0.47270 0.83480 -0.45500
O 	O 	0.24020 0.48220 0.00170 -0.29600
O 	O 	0.01230 0.11540 0.50900 -0.41100
O 	O 	0.98220 0.24510 0.57230 -0.42900
O 	O 	0.07290 0.07890 0.33820 -0.45100
O 	O 	0.01290 0.04340 0.24240 -0.29900
O 	O 	0.15840 0.24070 0.81720 -0.45200
O 	O 	0.19900 0.23500 0.97330 -0.41000
O 	O 	0.07060 0.11990 0.71050 -0.37700
O 	O 	0.14030 0.06010 0.69200 -0.38400
O 	O 	0.25870 0.55860 0.57540 -0.37900
O 	O 	0.19030 0.48950 0.60090 -0.40800
O 	O 	0.11010 0.52300 0.71440 -0.44500
O 	O 	0.08690 0.59760 0.56820 -0.28200
O 	O 	0.19430 0.10870 0.27630 -0.37300
O 	O 	0.16340 0.12880 0.44260 -0.39700
O 	O 	0.14180 0.33490 0.56150 -0.50600
O 	O 	0.08970 0.23340 0.51730 -0.52100
O 	O 	0.12470 0.92830 0.44700 -0.20600
O 	O 	0.84770 0.05040 0.98000 -0.10600
N 	N 	0.10820 0.65080 0.00550 -0.24600
N 	N 	0.98850 0.33190 0.38420 -0.22900
N 	N 	0.14480 0.10560 0.04910 -0.23100
N 	N 	0.22790 0.71420 0.66390 -0.21300
N 	N 	0.16620 0.27260 0.20620 -0.22600
C 	C 	0.13140 0.57920 0.97350 0.01000
C 	C 	0.18270 0.58690 0.95740 -0.13000
C 	C 	0.20310 0.67130 0.97310 0.10500
H 	H 	0.23500 0.67860 0.96570 0.01700
C 	C 	0.17450 0.74760 0.00100 -0.17800
H 	H 	0.18730 0.80620 0.00980 0.09500
C 	C 	0.12690 0.73380 0.01490 0.09200
H 	H 	0.10800 0.78420 0.03120 -0.01000
C 	C 	0.10530 0.49060 0.95550 0.32000
C 	C 	0.21410 0.50620 0.93070 0.43600
C 	C 	0.00440 0.24290 0.38200 -0.00100
C 	C 	0.02180 0.19810 0.29300 -0.13700
C 	C 	0.02550 0.25000 0.19850 0.08100
H 	H 	0.03730 0.22330 0.13520 0.00500
C 	C 	0.01210 0.33810 0.19810 -0.14900
H 	H 	0.01650 0.37340 0.13550 0.07800
C 	C 	0.99150 0.37890 0.28910 0.08000
H 	H 	0.97980 0.43870 0.28430 -0.01200
C 	C 	0.99950 0.19660 0.49720 0.34800
C 	C 	0.03610 0.09890 0.29250 0.41500
C 	C 	0.14050 0.12570 0.94410 0.00300
C 	C 	0.11090 0.07720 0.87310 -0.07300
C 	C 	0.08010 0.01170 0.92170 0.08100
H 	H 	0.05750 0.98160 0.88100 0.02300
C 	C 	0.08540 0.99530 0.03050 -0.18100
H 	H 	0.06680 0.95130 0.06430 0.11800
C 	C 	0.11720 0.04140 0.09020 0.11000
H 	H 	0.11980 0.02740 0.16400 0.00800
C 	C 	0.16900 0.20650 0.90660 0.37200
C 	C 	0.10760 0.09110 0.74970 0.31000
C 	C 	0.19750 0.64910 0.64810 -0.00100
C 	C 	0.14840 0.66280 0.66480 -0.11000
C 	C 	0.13380 0.74620 0.69910 0.05600
H 	H 	0.10270 0.75840 0.71310 0.01700
C 	C 	0.16990 0.81680 0.71310 -0.12600
H 	H 	0.16130 0.87660 0.73240 0.09000
C 	C 	0.21420 0.79770 0.69910 0.09700
H 	H 	0.23630 0.84290 0.71380 0.00600
C 	C 	0.21480 0.55680 0.60770 0.33500
C 	C 	0.11310 0.59010 0.64780 0.37800
C 	C 	0.15560 0.24750 0.31110 -0.01200
C 	C 	0.13150 0.31030 0.37960 -0.14000
C 	C 	0.11880 0.39580 0.34120 0.05700
H 	H 	0.10240 0.43720 0.38470 0.01100
C 	C 	0.13230 0.42000 0.22770 -0.11300
H 	H 	0.12490 0.47750 0.19840 0.05800
C 	C 	0.15610 0.35490 0.16640 0.07400
H 	H 	0.16510 0.36970 0.09560 0.00600
C 	C 	0.17060 0.15490 0.34760 0.32400
C 	C 	0.11940 0.28830 0.49560 0.51400
Dy	Dy	0.84280 0.60944 0.23698 1.76800
Dy	Dy	0.90657 0.92713 0.02302 1.74100
Co	Co	0.03693 0.61968 0.03843 1.09500
Co	Co	0.79690 0.82936 0.62248 1.16600
O 	O 	0.87630 0.58190 0.41750 -0.40600
O 	O 	0.93740 0.50410 0.48160 -0.43700
O 	O 	0.78810 0.52730 0.33480 -0.44500
O 	O 	0.75980 0.51780 0.50170 -0.26100
O 	O 	0.98770 0.88460 0.00900 -0.43700
O 	O 	0.01780 0.75490 0.07230 -0.45700
O 	O 	0.92710 0.92110 0.83820 -0.43900
O 	O 	0.98710 0.95660 0.74240 -0.29200
O 	O 	0.84160 0.75930 0.31720 -0.45700
O 	O 	0.80100 0.76500 0.47330 -0.42700
O 	O 	0.92940 0.88010 0.21050 -0.37300
O 	O 	0.85970 0.93990 0.19200 -0.38300
O 	O 	0.74130 0.44140 0.07540 -0.38600
O 	O 	0.80970 0.51050 0.10090 -0.41200
O 	O 	0.88990 0.47700 0.21440 -0.44700
O 	O 	0.91310 0.40240 0.06820 -0.28900
O 	O 	0.80570 0.89130 0.77630 -0.36900
O 	O 	0.83660 0.87120 0.94260 -0.38200
O 	O 	0.85820 0.66510 0.06150 -0.53800
O 	O 	0.91030 0.76660 0.01730 -0.55600
O 	O 	0.87530 0.07170 0.94700 -0.19800
O 	O 	0.15230 0.94960 0.48000 -0.11700
N 	N 	0.89180 0.34920 0.50550 -0.22100
N 	N 	0.01150 0.66810 0.88420 -0.22200
N 	N 	0.85520 0.89440 0.54910 -0.21000
N 	N 	0.77210 0.28580 0.16390 -0.21400
N 	N 	0.83380 0.72740 0.70620 -0.22700
C 	C 	0.86860 0.42080 0.47350 -0.02600
C 	C 	0.81730 0.41310 0.45740 -0.09800
C 	C 	0.79690 0.32870 0.47310 0.04100
H 	H 	0.76500 0.32140 0.46570 0.03400
C 	C 	0.82550 0.25240 0.50100 -0.11500
H 	H 	0.81270 0.19380 0.50980 0.07900
C 	C 	0.87310 0.26620 0.51490 0.06800
H 	H 	0.89200 0.21580 0.53120 0.00300
C 	C 	0.89470 0.50940 0.45550 0.32800
C 	C 	0.78590 0.49380 0.43070 0.39300
C 	C 	0.99560 0.75710 0.88200 -0.00800
C 	C 	0.97820 0.80190 0.79300 -0.12600
C 	C 	0.97450 0.75000 0.69850 0.07300
H 	H 	0.96270 0.77670 0.63520 0.01300
C 	C 	0.98790 0.66190 0.69810 -0.14000
H 	H 	0.98350 0.62660 0.63550 0.08000
C 	C 	0.00850 0.62110 0.78910 0.07500
H 	H 	0.02020 0.56130 0.78430 -0.00800
C 	C 	0.00050 0.80340 0.99720 0.40300
C 	C 	0.96390 0.90110 0.79250 0.41100
C 	C 	0.85950 0.87430 0.44410 -0.02900
C 	C 	0.88910 0.92280 0.37310 -0.05200
C 	C 	0.91990 0.98830 0.42170 0.02900
H 	H 	0.94250 0.01840 0.38100 0.03600
C 	C 	0.91460 0.00470 0.53050 -0.12700
H 	H 	0.93320 0.04870 0.56430 0.10300
C 	C 	0.88280 0.95860 0.59020 0.08900
H 	H 	0.88020 0.97260 0.66400 0.01700
C 	C 	0.83100 0.79350 0.40660 0.38000
C 	C 	0.89240 0.90890 0.24970 0.30300
C 	C 	0.80250 0.35090 0.14810 -0.00300
C 	C 	0.85160 0.33720 0.16480 -0.11200
C 	C 	0.86620 0.25380 0.19910 0.05300
H 	H 	0.89730 0.24160 0.21310 0.01500
C 	C 	0.83010 0.18320 0.21310 -0.12900
H 	H 	0.83870 0.12340 0.23240 0.08700
C 	C 	0.78580 0.20230 0.19910 0.09400
H 	H 	0.76370 0.15710 0.21380 0.00400
C 	C 	0.78520 0.44320 0.10770 0.33500
C 	C 	0.88690 0.40990 0.14780 0.37800
C 	C 	0.84440 0.75250 0.81110 -0.00100
C 	C 	0.86850 0.68970 0.87960 -0.15800
C 	C 	0.88120 0.60420 0.84120 0.07100
H 	H 	0.89760 0.56280 0.88470 0.01300
C 	C 	0.86770 0.58000 0.72770 -0.11700
H 	H 	0.87510 0.52250 0.69840 0.06500
C 	C 	0.84390 0.64510 0.66640 0.07900
H 	H 	0.83490 0.63030 0.59560 0.01300
C 	C 	0.82940 0.84510 0.84760 0.31900
C 	C 	0.88060 0.71170 0.99560 0.57900
Dy	Dy	0.65720 0.10944 0.73698 1.77100
Dy	Dy	0.59343 0.42713 0.52302 1.77800
Co	Co	0.46307 0.11968 0.53843 1.10400
Co	Co	0.70310 0.32936 0.12248 1.16100
O 	O 	0.62370 0.08190 0.91750 -0.39800
O 	O 	0.56260 0.00410 0.98160 -0.42300
O 	O 	0.71190 0.02730 0.83480 -0.45400
O 	O 	0.74020 0.01780 0.00170 -0.29600
O 	O 	0.51230 0.38460 0.50900 -0.40900
O 	O 	0.48220 0.25490 0.57230 -0.42900
O 	O 	0.57290 0.42110 0.33820 -0.45100
O 	O 	0.51290 0.45660 0.24240 -0.29700
O 	O 	0.65840 0.25930 0.81720 -0.45100
O 	O 	0.69900 0.26500 0.97330 -0.41000
O 	O 	0.57060 0.38010 0.71050 -0.37700
O 	O 	0.64030 0.43990 0.69200 -0.38300
O 	O 	0.75870 0.94140 0.57540 -0.37900
O 	O 	0.69030 0.01050 0.60090 -0.40900
O 	O 	0.61010 0.97700 0.71440 -0.44500
O 	O 	0.58690 0.90240 0.56820 -0.28100
O 	O 	0.69430 0.39130 0.27630 -0.37200
O 	O 	0.66340 0.37120 0.44260 -0.39700
O 	O 	0.64180 0.16510 0.56150 -0.50600
O 	O 	0.58970 0.26660 0.51730 -0.52100
O 	O 	0.62470 0.57170 0.44700 -0.20700
O 	O 	0.34770 0.44960 0.98000 -0.10500
N 	N 	0.60820 0.84920 0.00550 -0.24500
N 	N 	0.48850 0.16810 0.38420 -0.23000
N 	N 	0.64480 0.39440 0.04910 -0.23300
N 	N 	0.72790 0.78580 0.66390 -0.21300
N 	N 	0.66620 0.22740 0.20620 -0.22600
C 	C 	0.63140 0.92080 0.97350 0.00900
C 	C 	0.68270 0.91310 0.95740 -0.12900
C 	C 	0.70310 0.82870 0.97310 0.10400
H 	H 	0.73500 0.82140 0.96570 0.01800
C 	C 	0.67450 0.75240 0.00100 -0.17700
H 	H 	0.68730 0.69380 0.00980 0.09400
C 	C 	0.62690 0.76620 0.01490 0.09200
H 	H 	0.60800 0.71580 0.03120 -0.01000
C 	C 	0.60530 0.00940 0.95550 0.32000
C 	C 	0.71410 0.99380 0.93070 0.43600
C 	C 	0.50440 0.25710 0.38200 0.00100
C 	C 	0.52180 0.30190 0.29300 -0.13700
C 	C 	0.52550 0.25000 0.19850 0.08000
H 	H 	0.53730 0.27670 0.13520 0.00600
C 	C 	0.51210 0.16190 0.19810 -0.14700
H 	H 	0.51650 0.12660 0.13550 0.07700
C 	C 	0.49150 0.12110 0.28910 0.07800
H 	H 	0.47980 0.06130 0.28430 -0.01200
C 	C 	0.49950 0.30340 0.49720 0.34500
C 	C 	0.53610 0.40110 0.29250 0.41500
C 	C 	0.64050 0.37430 0.94410 0.00600
C 	C 	0.61090 0.42280 0.87310 -0.07800
C 	C 	0.58010 0.48830 0.92170 0.09600
H 	H 	0.55750 0.51840 0.88100 0.01800
C 	C 	0.58540 0.50470 0.03050 -0.19800
H 	H 	0.56680 0.54870 0.06430 0.12400
C 	C 	0.61720 0.45860 0.09020 0.12200
H 	H 	0.61980 0.47260 0.16400 0.00500
C 	C 	0.66900 0.29350 0.90660 0.37100
C 	C 	0.60760 0.40890 0.74970 0.31200
C 	C 	0.69750 0.85090 0.64810 -0.00100
C 	C 	0.64840 0.83720 0.66480 -0.11000
C 	C 	0.63380 0.75380 0.69910 0.05500
H 	H 	0.60270 0.74160 0.71310 0.01700
C 	C 	0.66990 0.68320 0.71310 -0.12600
H 	H 	0.66130 0.62340 0.73240 0.09000
C 	C 	0.71420 0.70230 0.69910 0.09700
H 	H 	0.73630 0.65710 0.71380 0.00600
C 	C 	0.71480 0.94320 0.60770 0.33600
C 	C 	0.61310 0.90990 0.64780 0.37800
C 	C 	0.65560 0.25250 0.31110 -0.01200
C 	C 	0.63150 0.18970 0.37960 -0.14000
C 	C 	0.61880 0.10420 0.34120 0.05700
H 	H 	0.60240 0.06280 0.38470 0.01100
C 	C 	0.63230 0.08000 0.22770 -0.11300
H 	H 	0.62490 0.02250 0.19840 0.05700
C 	C 	0.65610 0.14510 0.16640 0.07400
H 	H 	0.66510 0.13030 0.09560 0.00600
C 	C 	0.67060 0.34510 0.34760 0.32400
C 	C 	0.61940 0.21170 0.49560 0.51400
Dy	Dy	0.34280 0.89056 0.23698 1.76900
Dy	Dy	0.40657 0.57287 0.02302 1.73800
Co	Co	0.53693 0.88032 0.03843 1.09600
Co	Co	0.29690 0.67064 0.62248 1.16600
O 	O 	0.37630 0.91810 0.41750 -0.40600
O 	O 	0.43740 0.99590 0.48160 -0.43700
O 	O 	0.28810 0.97270 0.33480 -0.44200
O 	O 	0.25980 0.98220 0.50170 -0.25700
O 	O 	0.48770 0.61540 0.00900 -0.43800
O 	O 	0.51780 0.74510 0.07230 -0.45700
O 	O 	0.42710 0.57890 0.83820 -0.43900
O 	O 	0.48710 0.54340 0.74240 -0.29200
O 	O 	0.34160 0.74070 0.31720 -0.45700
O 	O 	0.30100 0.73500 0.47330 -0.42700
O 	O 	0.42940 0.61990 0.21050 -0.37300
O 	O 	0.35970 0.56010 0.19200 -0.38300
O 	O 	0.24130 0.05860 0.07540 -0.38600
O 	O 	0.30970 0.98950 0.10090 -0.40900
O 	O 	0.38990 0.02300 0.21440 -0.44800
O 	O 	0.41310 0.09760 0.06820 -0.29000
O 	O 	0.30570 0.60870 0.77630 -0.36900
O 	O 	0.33660 0.62880 0.94260 -0.38200
O 	O 	0.35820 0.83490 0.06150 -0.53800
O 	O 	0.41030 0.73340 0.01730 -0.55600
O 	O 	0.37530 0.42830 0.94700 -0.19700
O 	O 	0.65230 0.55040 0.48000 -0.11800
N 	N 	0.39180 0.15080 0.50550 -0.22100
N 	N 	0.51150 0.83190 0.88420 -0.22200
N 	N 	0.35520 0.60560 0.54910 -0.20900
N 	N 	0.27210 0.21420 0.16390 -0.21500
N 	N 	0.33380 0.77260 0.70620 -0.22700
C 	C 	0.36860 0.07920 0.47350 -0.02800
C 	C 	0.31730 0.08690 0.45740 -0.09600
C 	C 	0.29690 0.17130 0.47310 0.03900
H 	H 	0.26500 0.17860 0.46570 0.03400
C 	C 	0.32550 0.24760 0.50100 -0.11400
H 	H 	0.31270 0.30620 0.50980 0.07900
C 	C 	0.37310 0.23380 0.51490 0.06800
H 	H 	0.39200 0.28420 0.53120 0.00300
C 	C 	0.39470 0.99060 0.45550 0.33000
C 	C 	0.28590 0.00620 0.43070 0.38700
C 	C 	0.49560 0.74290 0.88200 -0.00900
C 	C 	0.47820 0.69810 0.79300 -0.12600
C 	C 	0.47450 0.75000 0.69850 0.07400
H 	H 	0.46270 0.72330 0.63520 0.01200
C 	C 	0.48790 0.83810 0.69810 -0.14100
H 	H 	0.48350 0.87340 0.63550 0.08000
C 	C 	0.50850 0.87890 0.78910 0.07700
H 	H 	0.52020 0.93870 0.78430 -0.00800
C 	C 	0.50050 0.69660 0.99720 0.40500
C 	C 	0.46390 0.59890 0.79250 0.41100
C 	C 	0.35950 0.62570 0.44410 -0.03000
C 	C 	0.38910 0.57720 0.37310 -0.05000
C 	C 	0.41990 0.51170 0.42170 0.02400
H 	H 	0.44250 0.48160 0.38100 0.03800
C 	C 	0.41460 0.49530 0.53050 -0.12200
H 	H 	0.43320 0.45130 0.56430 0.10100
C 	C 	0.38280 0.54140 0.59020 0.08600
H 	H 	0.38020 0.52740 0.66400 0.01900
C 	C 	0.33100 0.70650 0.40660 0.38000
C 	C 	0.39240 0.59110 0.24970 0.30200
C 	C 	0.30250 0.14910 0.14810 -0.00300
C 	C 	0.35160 0.16280 0.16480 -0.11300
C 	C 	0.36620 0.24620 0.19910 0.05400
H 	H 	0.39730 0.25840 0.21310 0.01500
C 	C 	0.33010 0.31680 0.21310 -0.13000
H 	H 	0.33870 0.37660 0.23240 0.08700
C 	C 	0.28580 0.29770 0.19910 0.09500
H 	H 	0.26370 0.34290 0.21380 0.00400
C 	C 	0.28520 0.05680 0.10770 0.33100
C 	C 	0.38690 0.09010 0.14780 0.37900
C 	C 	0.34440 0.74750 0.81110 -0.00100
C 	C 	0.36850 0.81030 0.87960 -0.15800
C 	C 	0.38120 0.89580 0.84120 0.07100
H 	H 	0.39760 0.93720 0.88470 0.01300
C 	C 	0.36770 0.92000 0.72770 -0.11700
H 	H 	0.37510 0.97750 0.69840 0.06500
C 	C 	0.34390 0.85490 0.66640 0.07900
H 	H 	0.33490 0.86970 0.59560 0.01300
C 	C 	0.32940 0.65490 0.84760 0.31800
C 	C 	0.38060 0.78830 0.99560 0.57900
