data_crystal

_cell_length_a 9.23900
_cell_length_b 13.52780
_cell_length_c 14.63790
_cell_angle_alpha 90.00000
_cell_angle_beta  90.35400
_cell_angle_gamma 90.00000

_symmetry_space_group_name_	'P 1'
_symmetry_space_group_name_H-M	'P 1'

loop_
_symmetry_equiv_pos_as_xyz
  x,y,z

loop_
_atom_site_label
_atom_site_type_symbol
_atom_site_fract_x
_atom_site_fract_y
_atom_site_fract_z
_atom_site_charge
Eu	Eu	0.75117 0.50310 0.59265 2.07200
C 	C 	0.99170 0.39460 0.83610 -0.04100
C 	C 	0.96400 0.30060 0.87150 0.00900
H 	H 	0.89230 0.25940 0.84440 0.04700
C 	C 	0.04360 0.26780 0.94780 -0.11500
C 	C 	0.14400 0.33210 0.98900 -0.07800
H 	H 	0.19920 0.30960 0.03990 0.07400
C 	C 	0.16450 0.42770 0.95730 0.11500
C 	C 	0.09110 0.45680 0.87890 -0.10400
H 	H 	0.10910 0.52040 0.85390 0.08500
C 	C 	0.26180 0.49680 0.00870 -0.29300
C 	C 	0.34550 0.57140 0.95430 0.10900
C 	C 	0.36580 0.66650 0.98750 -0.06700
H 	H 	0.31690 0.68610 0.04140 0.06700
C 	C 	0.45570 0.73380 0.94410 -0.10600
C 	C 	0.52710 0.70470 0.86460 0.00400
H 	H 	0.59220 0.74890 0.83560 0.05000
C 	C 	0.50330 0.61090 0.82780 -0.04100
C 	C 	0.41090 0.54560 0.87260 -0.10200
H 	H 	0.39240 0.48240 0.84670 0.08300
C 	C 	0.91280 0.43250 0.75260 0.29200
C 	C 	0.02350 0.16530 0.98620 0.49600
C 	C 	0.47520 0.83460 0.98420 0.46000
C 	C 	0.58290 0.57480 0.74450 0.28600
O 	O 	0.97060 0.50240 0.70730 -0.35300
O 	O 	0.79310 0.39560 0.73060 -0.38300
O 	O 	0.91650 0.11710 0.96210 -0.54700
O 	O 	0.11910 0.13480 0.04020 -0.51300
O 	O 	0.40060 0.85710 0.05390 -0.48300
O 	O 	0.56400 0.89230 0.94880 -0.51900
O 	O 	0.70510 0.61270 0.72630 -0.38100
O 	O 	0.52560 0.50800 0.69590 -0.37000
H 	H 	0.21000 0.53300 0.05500 0.12600
H 	H 	0.32600 0.45600 0.04500 0.12500
Eu	Eu	0.74883 0.00310 0.90735 2.05900
C 	C 	0.50830 0.89460 0.66390 -0.04900
C 	C 	0.53600 0.80060 0.62850 0.01500
H 	H 	0.60770 0.75940 0.65560 0.04600
C 	C 	0.45640 0.76780 0.55220 -0.12200
C 	C 	0.35600 0.83210 0.51100 -0.06000
H 	H 	0.30080 0.80960 0.46010 0.06500
C 	C 	0.33550 0.92770 0.54270 0.11000
C 	C 	0.40890 0.95680 0.62110 -0.09200
H 	H 	0.39090 0.02040 0.64610 0.08100
C 	C 	0.23820 0.99680 0.49130 -0.29900
C 	C 	0.15450 0.07140 0.54570 0.11700
C 	C 	0.13420 0.16650 0.51250 -0.07400
H 	H 	0.18310 0.18610 0.45860 0.07100
C 	C 	0.04430 0.23380 0.55590 -0.10200
C 	C 	0.97290 0.20470 0.63540 0.00100
H 	H 	0.90780 0.24890 0.66440 0.05000
C 	C 	0.99670 0.11090 0.67220 -0.03800
C 	C 	0.08910 0.04560 0.62740 -0.10700
H 	H 	0.10760 0.98240 0.65330 0.08600
C 	C 	0.58720 0.93250 0.74740 0.30000
C 	C 	0.47650 0.66530 0.51380 0.51600
C 	C 	0.02480 0.33460 0.51580 0.45400
C 	C 	0.91710 0.07480 0.75550 0.28500
O 	O 	0.52940 0.00240 0.79270 -0.35700
O 	O 	0.70690 0.89560 0.76940 -0.38200
O 	O 	0.58350 0.61710 0.53790 -0.55400
O 	O 	0.38090 0.63480 0.45980 -0.52800
O 	O 	0.09940 0.35710 0.44610 -0.47900
O 	O 	0.93600 0.39230 0.55120 -0.52300
O 	O 	0.79490 0.11270 0.77370 -0.38100
O 	O 	0.97440 0.00800 0.80410 -0.37000
H 	H 	0.29000 0.03300 0.44500 0.12800
H 	H 	0.17400 0.95600 0.45500 0.12600
Eu	Eu	0.24883 0.49690 0.40735 2.07300
C 	C 	0.00830 0.60540 0.16390 -0.04000
C 	C 	0.03600 0.69940 0.12850 0.01000
H 	H 	0.10770 0.74060 0.15560 0.04800
C 	C 	0.95640 0.73220 0.05220 -0.11400
C 	C 	0.85600 0.66790 0.01100 -0.07700
H 	H 	0.80080 0.69040 0.96010 0.07400
C 	C 	0.83550 0.57230 0.04270 0.11500
C 	C 	0.90890 0.54320 0.12110 -0.10400
H 	H 	0.89090 0.47960 0.14610 0.08500
C 	C 	0.73820 0.50320 0.99130 -0.29300
C 	C 	0.65450 0.42860 0.04570 0.10900
C 	C 	0.63420 0.33350 0.01250 -0.06700
H 	H 	0.68310 0.31390 0.95860 0.06700
C 	C 	0.54430 0.26620 0.05590 -0.10600
C 	C 	0.47290 0.29530 0.13540 0.00400
H 	H 	0.40780 0.25110 0.16440 0.05000
C 	C 	0.49670 0.38910 0.17220 -0.04100
C 	C 	0.58910 0.45440 0.12740 -0.10200
H 	H 	0.60760 0.51760 0.15330 0.08300
C 	C 	0.08720 0.56750 0.24740 0.29200
C 	C 	0.97650 0.83470 0.01380 0.49600
C 	C 	0.52480 0.16540 0.01580 0.46000
C 	C 	0.41710 0.42520 0.25550 0.28600
O 	O 	0.02940 0.49760 0.29270 -0.35300
O 	O 	0.20690 0.60440 0.26940 -0.38300
O 	O 	0.08350 0.88290 0.03790 -0.54700
O 	O 	0.88090 0.86520 0.95980 -0.51300
O 	O 	0.59940 0.14290 0.94610 -0.48300
O 	O 	0.43600 0.10770 0.05120 -0.51900
O 	O 	0.29490 0.38730 0.27370 -0.38100
O 	O 	0.47440 0.49200 0.30410 -0.37000
H 	H 	0.79000 0.46700 0.94500 0.12600
H 	H 	0.67400 0.54400 0.95500 0.12500
Eu	Eu	0.25117 0.99690 0.09265 2.05900
C 	C 	0.49170 0.10540 0.33610 -0.04900
C 	C 	0.46400 0.19940 0.37150 0.01500
H 	H 	0.39230 0.24060 0.34440 0.04600
C 	C 	0.54360 0.23220 0.44780 -0.12200
C 	C 	0.64400 0.16790 0.48900 -0.06000
H 	H 	0.69920 0.19040 0.53990 0.06500
C 	C 	0.66450 0.07230 0.45730 0.11000
C 	C 	0.59110 0.04320 0.37890 -0.09200
H 	H 	0.60910 0.97960 0.35390 0.08100
C 	C 	0.76180 0.00320 0.50870 -0.29900
C 	C 	0.84550 0.92860 0.45430 0.11700
C 	C 	0.86580 0.83350 0.48750 -0.07400
H 	H 	0.81690 0.81390 0.54140 0.07100
C 	C 	0.95570 0.76620 0.44410 -0.10200
C 	C 	0.02710 0.79530 0.36460 0.00100
H 	H 	0.09220 0.75110 0.33560 0.05000
C 	C 	0.00330 0.88910 0.32780 -0.03800
C 	C 	0.91090 0.95440 0.37260 -0.10700
H 	H 	0.89240 0.01760 0.34670 0.08600
C 	C 	0.41280 0.06750 0.25260 0.30000
C 	C 	0.52350 0.33470 0.48620 0.51600
C 	C 	0.97520 0.66540 0.48420 0.45400
C 	C 	0.08290 0.92520 0.24450 0.28500
O 	O 	0.47060 0.99760 0.20730 -0.35700
O 	O 	0.29310 0.10440 0.23060 -0.38200
O 	O 	0.41650 0.38290 0.46210 -0.55400
O 	O 	0.61910 0.36520 0.54020 -0.52800
O 	O 	0.90060 0.64290 0.55390 -0.47900
O 	O 	0.06400 0.60770 0.44880 -0.52300
O 	O 	0.20510 0.88730 0.22630 -0.38100
O 	O 	0.02560 0.99200 0.19590 -0.37000
H 	H 	0.71000 0.96700 0.55500 0.12800
H 	H 	0.82600 0.04400 0.54500 0.12600
