data_crystal

_cell_length_a 15.67330
_cell_length_b 10.70280
_cell_length_c 23.26310
_cell_angle_alpha 90.00000
_cell_angle_beta  90.00000
_cell_angle_gamma 90.00000

_symmetry_space_group_name_	'P 1'
_symmetry_space_group_name_H-M	'P 1'

loop_
_symmetry_equiv_pos_as_xyz
  x,y,z

loop_
_atom_site_label
_atom_site_type_symbol
_atom_site_fract_x
_atom_site_fract_y
_atom_site_fract_z
_atom_site_charge
Yb	Yb	0.95189 0.03048 0.08434 1.55000
C 	C 	0.09356 0.24980 0.20281 -0.02600
C 	C 	0.11692 0.20220 0.25598 -0.02800
H 	H 	0.09940 0.12060 0.26700 0.05100
C 	C 	0.16623 0.27440 0.29340 -0.04600
C 	C 	0.19227 0.39370 0.27624 -0.09300
H 	H 	0.22810 0.44130 0.30080 0.07900
C 	C 	0.16660 0.44400 0.22374 0.11200
C 	C 	0.11707 0.37130 0.18740 -0.10100
H 	H 	0.09890 0.40440 0.15160 0.09200
C 	C 	0.18960 0.57810 0.20925 -0.25700
H 	H 	0.14730 0.63380 0.22770 0.10800
H 	H 	0.24590 0.59690 0.22660 0.11000
C 	C 	0.19361 0.61000 0.14593 0.09800
C 	C 	0.26393 0.57320 0.11280 -0.07400
H 	H 	0.30870 0.52690 0.13020 0.07100
C 	C 	0.26902 0.60330 0.05481 -0.05500
C 	C 	0.20360 0.67130 0.02914 0.00800
H 	H 	0.20600 0.68980 0.98920 0.07400
C 	C 	0.13464 0.71240 0.06186 -0.06100
C 	C 	0.13053 0.68090 0.11979 -0.07300
H 	H 	0.08330 0.70860 0.14200 0.06600
C 	C 	0.04249 0.17410 0.16149 0.27700
C 	C 	0.19254 0.22170 0.35098 0.33400
C 	C 	0.34528 0.56750 0.01936 0.36400
C 	C 	0.06924 0.79630 0.03468 0.38000
O 	O 	0.00803 0.22655 0.11944 -0.33000
O 	O 	0.03422 0.05608 0.16900 -0.37400
O 	O 	0.15772 0.12210 0.36745 -0.39400
O 	O 	0.24835 0.27710 0.37966 -0.24300
O 	O 	0.41612 0.55481 0.04336 -0.43500
O 	O 	0.33394 0.55204 0.96576 -0.37100
O 	O 	0.08014 0.82205 0.98244 -0.40100
O 	O 	0.00914 0.83522 0.06570 -0.41700
Yb	Yb	0.54811 0.46952 0.58434 1.55200
C 	C 	0.40644 0.25020 0.70281 -0.02400
C 	C 	0.38308 0.29780 0.75598 -0.02700
H 	H 	0.40060 0.37940 0.76700 0.05200
C 	C 	0.33377 0.22560 0.79340 -0.04500
C 	C 	0.30773 0.10630 0.77624 -0.09500
H 	H 	0.27190 0.05870 0.80080 0.08000
C 	C 	0.33340 0.05600 0.72374 0.11500
C 	C 	0.38293 0.12870 0.68740 -0.10200
H 	H 	0.40110 0.09560 0.65160 0.09300
C 	C 	0.31040 0.92190 0.70925 -0.26000
H 	H 	0.35270 0.86620 0.72770 0.10800
H 	H 	0.25410 0.90310 0.72660 0.11000
C 	C 	0.30639 0.89000 0.64593 0.10000
C 	C 	0.23607 0.92680 0.61280 -0.07600
H 	H 	0.19130 0.97310 0.63020 0.07200
C 	C 	0.23098 0.89670 0.55481 -0.05300
C 	C 	0.29640 0.82870 0.52914 0.00300
H 	H 	0.29400 0.81020 0.48920 0.07700
C 	C 	0.36536 0.78760 0.56186 -0.05800
C 	C 	0.36947 0.81910 0.61979 -0.07600
H 	H 	0.41670 0.79140 0.64200 0.06700
C 	C 	0.45751 0.32590 0.66149 0.27700
C 	C 	0.30746 0.27830 0.85098 0.33400
C 	C 	0.15472 0.93250 0.51936 0.36200
C 	C 	0.43076 0.70370 0.53468 0.37700
O 	O 	0.49197 0.27345 0.61944 -0.33000
O 	O 	0.46578 0.44392 0.66900 -0.37400
O 	O 	0.34228 0.37790 0.86745 -0.39400
O 	O 	0.25165 0.22290 0.87966 -0.24300
O 	O 	0.08388 0.94519 0.54336 -0.43500
O 	O 	0.16606 0.94796 0.46576 -0.37000
O 	O 	0.41986 0.67795 0.48244 -0.39800
O 	O 	0.49086 0.66478 0.56570 -0.41700
Yb	Yb	0.04811 0.03048 0.41566 1.55200
C 	C 	0.90644 0.24980 0.29719 -0.02500
C 	C 	0.88308 0.20220 0.24402 -0.02700
H 	H 	0.90060 0.12060 0.23300 0.05200
C 	C 	0.83377 0.27440 0.20660 -0.04600
C 	C 	0.80773 0.39370 0.22376 -0.09300
H 	H 	0.77190 0.44130 0.19920 0.07900
C 	C 	0.83340 0.44400 0.27626 0.11200
C 	C 	0.88293 0.37130 0.31260 -0.10100
H 	H 	0.90110 0.40440 0.34840 0.09200
C 	C 	0.81040 0.57810 0.29075 -0.25700
H 	H 	0.85270 0.63380 0.27230 0.10800
H 	H 	0.75410 0.59690 0.27340 0.11000
C 	C 	0.80639 0.61000 0.35407 0.09900
C 	C 	0.73607 0.57320 0.38720 -0.07600
H 	H 	0.69130 0.52690 0.36980 0.07100
C 	C 	0.73098 0.60330 0.44519 -0.05300
C 	C 	0.79640 0.67130 0.47086 0.00300
H 	H 	0.79400 0.68980 0.51080 0.07700
C 	C 	0.86536 0.71240 0.43814 -0.05900
C 	C 	0.86947 0.68090 0.38021 -0.07500
H 	H 	0.91670 0.70860 0.35800 0.06700
C 	C 	0.95751 0.17410 0.33851 0.27700
C 	C 	0.80746 0.22170 0.14902 0.33400
C 	C 	0.65472 0.56750 0.48064 0.36300
C 	C 	0.93076 0.79630 0.46532 0.37700
O 	O 	0.99197 0.22655 0.38056 -0.33100
O 	O 	0.96578 0.05608 0.33100 -0.37400
O 	O 	0.84228 0.12210 0.13255 -0.39500
O 	O 	0.75165 0.27710 0.12034 -0.24300
O 	O 	0.58388 0.55481 0.45664 -0.43500
O 	O 	0.66606 0.55204 0.53424 -0.37000
O 	O 	0.91986 0.82205 0.51756 -0.39800
O 	O 	0.99086 0.83522 0.43430 -0.41700
Yb	Yb	0.45189 0.46952 0.91566 1.55200
C 	C 	0.59356 0.25020 0.79719 -0.02400
C 	C 	0.61692 0.29780 0.74402 -0.02700
H 	H 	0.59940 0.37940 0.73300 0.05300
C 	C 	0.66623 0.22560 0.70660 -0.04500
C 	C 	0.69227 0.10630 0.72376 -0.09500
H 	H 	0.72810 0.05870 0.69920 0.08000
C 	C 	0.66660 0.05600 0.77626 0.11600
C 	C 	0.61707 0.12870 0.81260 -0.10200
H 	H 	0.59890 0.09560 0.84840 0.09300
C 	C 	0.68960 0.92190 0.79075 -0.26100
H 	H 	0.64730 0.86620 0.77230 0.10800
H 	H 	0.74590 0.90310 0.77340 0.11000
C 	C 	0.69361 0.89000 0.85407 0.10100
C 	C 	0.76393 0.92680 0.88720 -0.07700
H 	H 	0.80870 0.97310 0.86980 0.07200
C 	C 	0.76902 0.89670 0.94519 -0.05200
C 	C 	0.70360 0.82870 0.97086 0.00100
H 	H 	0.70600 0.81020 0.01080 0.07800
C 	C 	0.63464 0.78760 0.93814 -0.05700
C 	C 	0.63053 0.81910 0.88021 -0.07700
H 	H 	0.58330 0.79140 0.85800 0.06700
C 	C 	0.54249 0.32590 0.83851 0.27700
C 	C 	0.69254 0.27830 0.64902 0.33400
C 	C 	0.84528 0.93250 0.98064 0.36100
C 	C 	0.56924 0.70370 0.96532 0.37500
O 	O 	0.50803 0.27345 0.88056 -0.33000
O 	O 	0.53422 0.44392 0.83100 -0.37400
O 	O 	0.65772 0.37790 0.63255 -0.39400
O 	O 	0.74835 0.22290 0.62034 -0.24200
O 	O 	0.91612 0.94519 0.95664 -0.43400
O 	O 	0.83394 0.94796 0.03424 -0.36900
O 	O 	0.58014 0.67795 0.01756 -0.39800
O 	O 	0.50914 0.66478 0.93430 -0.41700
Yb	Yb	0.04811 0.96952 0.91566 1.55100
C 	C 	0.90644 0.75020 0.79719 -0.02500
C 	C 	0.88308 0.79780 0.74402 -0.02700
H 	H 	0.90060 0.87940 0.73300 0.05200
C 	C 	0.83377 0.72560 0.70660 -0.04600
C 	C 	0.80773 0.60630 0.72376 -0.09300
H 	H 	0.77190 0.55870 0.69920 0.07900
C 	C 	0.83340 0.55600 0.77626 0.11200
C 	C 	0.88293 0.62870 0.81260 -0.10100
H 	H 	0.90110 0.59560 0.84840 0.09200
C 	C 	0.81040 0.42190 0.79075 -0.25700
H 	H 	0.85270 0.36620 0.77230 0.10800
H 	H 	0.75410 0.40310 0.77340 0.11000
C 	C 	0.80639 0.39000 0.85407 0.09800
C 	C 	0.73607 0.42680 0.88720 -0.07400
H 	H 	0.69130 0.47310 0.86980 0.07100
C 	C 	0.73098 0.39670 0.94519 -0.05500
C 	C 	0.79640 0.32870 0.97086 0.00800
H 	H 	0.79400 0.31020 0.01080 0.07400
C 	C 	0.86536 0.28760 0.93814 -0.06100
C 	C 	0.86947 0.31910 0.88021 -0.07300
H 	H 	0.91670 0.29140 0.85800 0.06600
C 	C 	0.95751 0.82590 0.83851 0.27700
C 	C 	0.80746 0.77830 0.64902 0.33400
C 	C 	0.65472 0.43250 0.98064 0.36400
C 	C 	0.93076 0.20370 0.96532 0.38000
O 	O 	0.99197 0.77345 0.88056 -0.33000
O 	O 	0.96578 0.94392 0.83100 -0.37400
O 	O 	0.84228 0.87790 0.63255 -0.39400
O 	O 	0.75165 0.72290 0.62034 -0.24300
O 	O 	0.58388 0.44519 0.95664 -0.43500
O 	O 	0.66606 0.44796 0.03424 -0.37100
O 	O 	0.91986 0.17795 0.01756 -0.40100
O 	O 	0.99086 0.16478 0.93430 -0.41700
Yb	Yb	0.45189 0.53048 0.41566 1.55200
C 	C 	0.59356 0.74980 0.29719 -0.02400
C 	C 	0.61692 0.70220 0.24402 -0.02700
H 	H 	0.59940 0.62060 0.23300 0.05200
C 	C 	0.66623 0.77440 0.20660 -0.04500
C 	C 	0.69227 0.89370 0.22376 -0.09500
H 	H 	0.72810 0.94130 0.19920 0.08000
C 	C 	0.66660 0.94400 0.27626 0.11500
C 	C 	0.61707 0.87130 0.31260 -0.10200
H 	H 	0.59890 0.90440 0.34840 0.09300
C 	C 	0.68960 0.07810 0.29075 -0.26000
H 	H 	0.64730 0.13380 0.27230 0.10800
H 	H 	0.74590 0.09690 0.27340 0.11000
C 	C 	0.69361 0.11000 0.35407 0.10000
C 	C 	0.76393 0.07320 0.38720 -0.07600
H 	H 	0.80870 0.02690 0.36980 0.07200
C 	C 	0.76902 0.10330 0.44519 -0.05300
C 	C 	0.70360 0.17130 0.47086 0.00300
H 	H 	0.70600 0.18980 0.51080 0.07700
C 	C 	0.63464 0.21240 0.43814 -0.05800
C 	C 	0.63053 0.18090 0.38021 -0.07600
H 	H 	0.58330 0.20860 0.35800 0.06700
C 	C 	0.54249 0.67410 0.33851 0.27700
C 	C 	0.69254 0.72170 0.14902 0.33400
C 	C 	0.84528 0.06750 0.48064 0.36200
C 	C 	0.56924 0.29630 0.46532 0.37700
O 	O 	0.50803 0.72655 0.38056 -0.33000
O 	O 	0.53422 0.55608 0.33100 -0.37400
O 	O 	0.65772 0.62210 0.13255 -0.39400
O 	O 	0.74835 0.77710 0.12034 -0.24300
O 	O 	0.91612 0.05481 0.45664 -0.43500
O 	O 	0.83394 0.05204 0.53424 -0.37000
O 	O 	0.58014 0.32205 0.51756 -0.39800
O 	O 	0.50914 0.33522 0.43430 -0.41700
Yb	Yb	0.95189 0.96952 0.58434 1.55200
C 	C 	0.09356 0.75020 0.70281 -0.02500
C 	C 	0.11692 0.79780 0.75598 -0.02700
H 	H 	0.09940 0.87940 0.76700 0.05200
C 	C 	0.16623 0.72560 0.79340 -0.04600
C 	C 	0.19227 0.60630 0.77624 -0.09300
H 	H 	0.22810 0.55870 0.80080 0.07900
C 	C 	0.16660 0.55600 0.72374 0.11200
C 	C 	0.11707 0.62870 0.68740 -0.10100
H 	H 	0.09890 0.59560 0.65160 0.09200
C 	C 	0.18960 0.42190 0.70925 -0.25700
H 	H 	0.14730 0.36620 0.72770 0.10800
H 	H 	0.24590 0.40310 0.72660 0.11000
C 	C 	0.19361 0.39000 0.64593 0.09900
C 	C 	0.26393 0.42680 0.61280 -0.07600
H 	H 	0.30870 0.47310 0.63020 0.07100
C 	C 	0.26902 0.39670 0.55481 -0.05300
C 	C 	0.20360 0.32870 0.52914 0.00300
H 	H 	0.20600 0.31020 0.48920 0.07700
C 	C 	0.13464 0.28760 0.56186 -0.05900
C 	C 	0.13053 0.31910 0.61979 -0.07500
H 	H 	0.08330 0.29140 0.64200 0.06700
C 	C 	0.04249 0.82590 0.66149 0.27700
C 	C 	0.19254 0.77830 0.85098 0.33400
C 	C 	0.34528 0.43250 0.51936 0.36300
C 	C 	0.06924 0.20370 0.53468 0.37700
O 	O 	0.00803 0.77345 0.61944 -0.33100
O 	O 	0.03422 0.94392 0.66900 -0.37400
O 	O 	0.15772 0.87790 0.86745 -0.39500
O 	O 	0.24835 0.72290 0.87966 -0.24300
O 	O 	0.41612 0.44519 0.54336 -0.43500
O 	O 	0.33394 0.44796 0.46576 -0.37000
O 	O 	0.08014 0.17795 0.48244 -0.39800
O 	O 	0.00914 0.16478 0.56570 -0.41700
Yb	Yb	0.54811 0.53048 0.08434 1.55200
C 	C 	0.40644 0.74980 0.20281 -0.02400
C 	C 	0.38308 0.70220 0.25598 -0.02700
H 	H 	0.40060 0.62060 0.26700 0.05300
C 	C 	0.33377 0.77440 0.29340 -0.04500
C 	C 	0.30773 0.89370 0.27624 -0.09500
H 	H 	0.27190 0.94130 0.30080 0.08000
C 	C 	0.33340 0.94400 0.22374 0.11600
C 	C 	0.38293 0.87130 0.18740 -0.10200
H 	H 	0.40110 0.90440 0.15160 0.09300
C 	C 	0.31040 0.07810 0.20925 -0.26100
H 	H 	0.35270 0.13380 0.22770 0.10800
H 	H 	0.25410 0.09690 0.22660 0.11000
C 	C 	0.30639 0.11000 0.14593 0.10100
C 	C 	0.23607 0.07320 0.11280 -0.07700
H 	H 	0.19130 0.02690 0.13020 0.07200
C 	C 	0.23098 0.10330 0.05481 -0.05200
C 	C 	0.29640 0.17130 0.02914 0.00100
H 	H 	0.29400 0.18980 0.98920 0.07800
C 	C 	0.36536 0.21240 0.06186 -0.05700
C 	C 	0.36947 0.18090 0.11979 -0.07700
H 	H 	0.41670 0.20860 0.14200 0.06700
C 	C 	0.45751 0.67410 0.16149 0.27700
C 	C 	0.30746 0.72170 0.35098 0.33400
C 	C 	0.15472 0.06750 0.01936 0.36100
C 	C 	0.43076 0.29630 0.03468 0.37500
O 	O 	0.49197 0.72655 0.11944 -0.33000
O 	O 	0.46578 0.55608 0.16900 -0.37400
O 	O 	0.34228 0.62210 0.36745 -0.39400
O 	O 	0.25165 0.77710 0.37966 -0.24200
O 	O 	0.08388 0.05481 0.04336 -0.43400
O 	O 	0.16606 0.05204 0.96576 -0.36900
O 	O 	0.41986 0.32205 0.98244 -0.39800
O 	O 	0.49086 0.33522 0.06570 -0.41700
