data_crystal

_cell_length_a 9.81190
_cell_length_b 11.24700
_cell_length_c 14.41390
_cell_angle_alpha 91.15530
_cell_angle_beta  90.00000
_cell_angle_gamma 90.00000

_symmetry_space_group_name_	'P 1'
_symmetry_space_group_name_H-M	'P 1'

loop_
_symmetry_equiv_pos_as_xyz
  x,y,z

loop_
_atom_site_label
_atom_site_type_symbol
_atom_site_fract_x
_atom_site_fract_y
_atom_site_fract_z
_atom_site_charge
Co	Co	0.92027 0.75511 0.13304 1.23300
Co	Co	0.89038 0.25978 0.68886 1.22200
Co	Co	0.42027 0.74489 0.36696 1.19600
Co	Co	0.39038 0.24022 0.81114 1.20200
Co	Co	0.07973 0.24489 0.86696 1.15500
Co	Co	0.10962 0.74022 0.31114 1.18700
Co	Co	0.57973 0.25511 0.63304 1.19000
Co	Co	0.60962 0.75978 0.18886 1.20500
Co	Co	0.00000 0.50000 -0.00000 1.12400
Co	Co	0.50000 0.00000 0.50000 1.18100
Co	Co	-0.00000 0.00000 -0.00000 1.09400
Co	Co	0.50000 0.50000 0.50000 1.21200
H 	H 	0.75600 0.86500 0.36800 -0.07400
H 	H 	0.03500 0.47700 0.26600 -0.08900
H 	H 	0.61700 0.55500 0.03800 -0.06300
H 	H 	0.70500 0.98900 0.00700 -0.09600
H 	H 	0.16100 0.69500 0.92900 -0.11800
H 	H 	0.19300 0.98800 0.23800 -0.10000
H 	H 	0.25600 0.63500 0.13200 -0.10800
H 	H 	0.53500 0.02300 0.23400 -0.27200
H 	H 	0.11700 0.94500 0.46200 -0.09500
H 	H 	0.20500 0.51100 0.49300 -0.11400
H 	H 	0.66100 0.80500 0.57100 -0.07300
H 	H 	0.69300 0.51200 0.26200 -0.06900
H 	H 	0.24400 0.13500 0.63200 -0.11900
H 	H 	0.96500 0.52300 0.73400 -0.13900
H 	H 	0.38300 0.44500 0.96200 -0.11200
H 	H 	0.29500 0.01100 0.99300 -0.08600
H 	H 	0.83900 0.30500 0.07100 -0.05800
H 	H 	0.80700 0.01200 0.76200 -0.05000
H 	H 	0.74400 0.36500 0.86800 -0.08200
H 	H 	0.46500 0.97700 0.76600 0.04400
H 	H 	0.88300 0.05500 0.53800 -0.07900
H 	H 	0.79500 0.48900 0.50700 -0.07600
H 	H 	0.33900 0.19500 0.42900 -0.11400
H 	H 	0.30700 0.48800 0.73800 -0.08200
C 	C 	0.82690 0.83160 0.33010 0.45600
C 	C 	0.01210 0.51620 0.21240 0.34400
C 	C 	0.71070 0.57610 0.04650 0.30200
C 	C 	0.12890 0.95510 0.18770 0.55200
C 	C 	0.10790 0.74300 0.96990 0.63500
C 	C 	0.72120 0.92780 0.04890 0.47000
C 	C 	0.32690 0.66840 0.16990 0.46500
C 	C 	0.51210 0.98380 0.28760 0.81000
C 	C 	0.21070 0.92390 0.45350 0.47100
C 	C 	0.62890 0.54490 0.31230 0.43600
C 	C 	0.60790 0.75700 0.53010 0.47400
C 	C 	0.22120 0.57220 0.45110 0.49200
C 	C 	0.17310 0.16840 0.66990 0.47200
C 	C 	0.98790 0.48380 0.78760 0.67400
C 	C 	0.28930 0.42390 0.95350 0.64400
C 	C 	0.87110 0.04490 0.81230 0.32000
C 	C 	0.89210 0.25700 0.03010 0.31100
C 	C 	0.27880 0.07220 0.95110 0.48100
C 	C 	0.67310 0.33160 0.83010 0.46200
C 	C 	0.48790 0.01620 0.71240 0.21500
C 	C 	0.78930 0.07610 0.54650 0.48000
C 	C 	0.37110 0.45510 0.68770 0.43900
C 	C 	0.39210 0.24300 0.46990 0.49200
C 	C 	0.77880 0.42780 0.54890 0.47200
O 	O 	0.79902 0.80929 0.24499 -0.52700
O 	O 	0.93930 0.81690 0.36810 -0.35600
O 	O 	0.00394 0.62861 0.21981 -0.57000
O 	O 	0.99470 0.45680 0.14060 -0.31800
O 	O 	0.74220 0.65290 0.10840 -0.50300
O 	O 	0.79070 0.51789 0.99709 -0.25700
O 	O 	0.08370 0.85011 0.19531 -0.60600
O 	O 	0.10420 0.02397 0.12417 -0.55700
O 	O 	0.02770 0.68444 0.02344 -0.68700
O 	O 	0.11640 0.85140 0.96670 -0.42400
O 	O 	0.84500 0.89708 0.05988 -0.51900
O 	O 	0.62090 0.88671 0.08991 -0.42700
O 	O 	0.29902 0.69071 0.25501 -0.55500
O 	O 	0.43930 0.68310 0.13190 -0.44200
O 	O 	0.50394 0.87139 0.28019 -0.63400
O 	O 	0.49470 0.04320 0.35940 -0.57000
O 	O 	0.24220 0.84710 0.39160 -0.55300
O 	O 	0.29070 0.98211 0.50291 -0.39000
O 	O 	0.58370 0.64989 0.30469 -0.53900
O 	O 	0.60420 0.47603 0.37583 -0.41500
O 	O 	0.52770 0.81556 0.47656 -0.53200
O 	O 	0.61640 0.64860 0.53330 -0.42800
O 	O 	0.34500 0.60292 0.44012 -0.56200
O 	O 	0.12090 0.61329 0.41009 -0.46400
O 	O 	0.20098 0.19071 0.75501 -0.58100
O 	O 	0.06070 0.18310 0.63190 -0.50000
O 	O 	0.99606 0.37139 0.78019 -0.55900
O 	O 	0.00530 0.54320 0.85940 -0.52600
O 	O 	0.25780 0.34710 0.89160 -0.59700
O 	O 	0.20930 0.48211 0.00291 -0.56900
O 	O 	0.91630 0.14989 0.80469 -0.47200
O 	O 	0.89580 0.97603 0.87583 -0.24400
O 	O 	0.97230 0.31556 0.97656 -0.38000
O 	O 	0.88360 0.14860 0.03330 -0.40800
O 	O 	0.15500 0.10292 0.94012 -0.55900
O 	O 	0.37910 0.11329 0.91009 -0.43400
O 	O 	0.70098 0.30929 0.74499 -0.55200
O 	O 	0.56070 0.31690 0.86810 -0.41100
O 	O 	0.49606 0.12861 0.71981 -0.49900
O 	O 	0.50530 0.95680 0.64060 -0.29300
O 	O 	0.75780 0.15290 0.60840 -0.54900
O 	O 	0.70930 0.01789 0.49709 -0.45200
O 	O 	0.41630 0.35011 0.69531 -0.54700
O 	O 	0.39580 0.52397 0.62417 -0.41900
O 	O 	0.47230 0.18444 0.52344 -0.55900
O 	O 	0.38360 0.35140 0.46670 -0.45100
O 	O 	0.65500 0.39708 0.55988 -0.55000
O 	O 	0.87910 0.38671 0.58991 -0.40000
