data_crystal

_cell_length_a 17.54480
_cell_length_b 13.57810
_cell_length_c 6.66420
_cell_angle_alpha 90.00000
_cell_angle_beta  113.19600
_cell_angle_gamma 90.00000

_symmetry_space_group_name_	'P 1'
_symmetry_space_group_name_H-M	'P 1'

loop_
_symmetry_equiv_pos_as_xyz
  x,y,z

loop_
_atom_site_label
_atom_site_type_symbol
_atom_site_fract_x
_atom_site_fract_y
_atom_site_fract_z
_atom_site_charge
O 	O 	0.90968 0.08077 0.83347 -0.59800
O 	O 	0.92285 0.09654 0.51048 -0.64900
O 	O 	0.73829 0.00569 0.74822 -0.30500
O 	O 	0.75546 0.12453 0.99284 -0.12800
C 	C 	0.81407 0.18053 0.55969 -0.08400
C 	C 	0.75623 0.17603 0.65296 0.00700
C 	C 	0.81009 0.25377 0.41260 0.02300
H 	H 	0.84900 0.25700 0.34000 0.07800
C 	C 	0.89141 0.11366 0.64800 0.51500
C 	C 	0.74959 0.09465 0.79948 0.26600
O 	O 	0.40968 0.58077 0.83347 -0.58300
O 	O 	0.42285 0.59654 0.51048 -0.64400
O 	O 	0.23829 0.50569 0.74822 -0.13100
O 	O 	0.25546 0.62453 0.99284 -0.05800
C 	C 	0.31407 0.68053 0.55969 -0.06700
C 	C 	0.25623 0.67603 0.65296 0.04200
C 	C 	0.31009 0.75377 0.41260 0.02800
H 	H 	0.34900 0.75700 0.34000 0.07400
C 	C 	0.39141 0.61366 0.64800 0.53500
C 	C 	0.24959 0.59465 0.79948 0.24100
O 	O 	0.09032 0.08077 0.66653 -0.74400
O 	O 	0.07715 0.09654 0.98952 -0.64500
O 	O 	0.26171 0.00569 0.75178 -0.32200
O 	O 	0.24454 0.12453 0.50716 -0.27700
C 	C 	0.18593 0.18053 0.94031 0.25600
C 	C 	0.24377 0.17603 0.84704 -0.21600
C 	C 	0.18991 0.25377 0.08740 -0.38800
H 	H 	0.15100 0.25700 0.16000 0.13900
C 	C 	0.10859 0.11366 0.85200 0.42700
C 	C 	0.25041 0.09465 0.70052 0.35100
O 	O 	0.59032 0.58077 0.66653 -0.62000
O 	O 	0.57715 0.59654 0.98952 -0.51600
O 	O 	0.76171 0.50569 0.75178 -0.11500
O 	O 	0.74454 0.62453 0.50716 -0.17500
C 	C 	0.68593 0.68053 0.94031 0.28800
C 	C 	0.74377 0.67603 0.84704 -0.15800
C 	C 	0.68991 0.75377 0.08740 -0.36300
H 	H 	0.65100 0.75700 0.16000 0.17400
C 	C 	0.60859 0.61366 0.85200 0.44900
C 	C 	0.75041 0.59465 0.70052 0.33200
O 	O 	0.09032 0.91923 0.16653 -0.64800
O 	O 	0.07715 0.90346 0.48952 -0.57100
O 	O 	0.26171 0.99431 0.25178 -0.01500
O 	O 	0.24454 0.87547 0.00716 -0.18200
C 	C 	0.18593 0.81947 0.44031 -0.03700
C 	C 	0.24377 0.82397 0.34704 0.01900
C 	C 	0.18991 0.74623 0.58740 0.00400
H 	H 	0.15100 0.74300 0.66000 0.09000
C 	C 	0.10859 0.88634 0.35200 0.53100
C 	C 	0.25041 0.90535 0.20052 0.25400
O 	O 	0.59032 0.41923 0.16653 -0.72900
O 	O 	0.57715 0.40346 0.48952 -0.64200
O 	O 	0.76171 0.49431 0.25178 -0.19700
O 	O 	0.74454 0.37547 0.00716 -0.25800
C 	C 	0.68593 0.31947 0.44031 -0.07000
C 	C 	0.74377 0.32397 0.34704 -0.01000
C 	C 	0.68991 0.24623 0.58740 0.00900
H 	H 	0.65100 0.24300 0.66000 0.08300
C 	C 	0.60859 0.38634 0.35200 0.53300
C 	C 	0.75041 0.40535 0.20052 0.27600
O 	O 	0.90968 0.91923 0.33347 -0.52200
O 	O 	0.92285 0.90346 0.01048 -0.58500
O 	O 	0.73829 0.99431 0.24822 -0.01100
O 	O 	0.75546 0.87547 0.49284 -0.04300
C 	C 	0.81407 0.81947 0.05969 -0.36700
C 	C 	0.75623 0.82397 0.15296 0.23400
C 	C 	0.81009 0.74623 0.91260 0.40000
H 	H 	0.84900 0.74300 0.84000 0.02900
C 	C 	0.89141 0.88634 0.14800 0.61700
C 	C 	0.74959 0.90535 0.29948 0.17300
O 	O 	0.40968 0.41923 0.33347 -0.69700
O 	O 	0.42285 0.40346 0.01048 -0.76900
O 	O 	0.23829 0.49431 0.24822 -0.21300
O 	O 	0.25546 0.37547 0.49284 -0.14200
C 	C 	0.31407 0.31947 0.05969 -0.43600
C 	C 	0.25623 0.32397 0.15296 0.19700
C 	C 	0.31009 0.24623 0.91260 0.41300
H 	H 	0.34900 0.24300 0.84000 -0.02000
C 	C 	0.39141 0.38634 0.14800 0.62200
C 	C 	0.24959 0.40535 0.29948 0.18200
Al	Al	-0.00000 0.00000 -0.00000 2.36100
Al	Al	0.50000 0.50000 -0.00000 2.38800
Al	Al	0.00000 0.00000 0.50000 2.37200
Al	Al	0.50000 0.50000 0.50000 2.39900
O 	O 	0.00000 0.93793 0.75000 -0.71700
O 	O 	0.50000 0.43793 0.75000 -0.76300
O 	O 	-0.00000 0.06207 0.25000 -1.10900
O 	O 	0.50000 0.56207 0.25000 -0.87200
