data_crystal

_cell_length_a 13.09110
_cell_length_b 20.35290
_cell_length_c 20.35290
_cell_angle_alpha 64.46590
_cell_angle_beta  77.61960
_cell_angle_gamma 102.38000

_symmetry_space_group_name_	'P 1'
_symmetry_space_group_name_H-M	'P 1'

loop_
_symmetry_equiv_pos_as_xyz
  x,y,z

loop_
_atom_site_label
_atom_site_type_symbol
_atom_site_fract_x
_atom_site_fract_y
_atom_site_fract_z
_atom_site_charge
Cu	Cu	0.87148 0.48435 0.82700 0.88200
Cu	Cu	0.93185 0.47825 0.61015 0.87400
Cu	Cu	0.69848 0.82700 0.68865 0.88200
Cu	Cu	0.54200 0.61015 0.91160 0.87400
Cu	Cu	0.38713 0.68865 0.48435 0.88300
Cu	Cu	0.45360 0.91160 0.47825 0.87500
Cu	Cu	0.12852 0.51565 0.17300 0.88300
Cu	Cu	0.06815 0.52175 0.38985 0.87500
Cu	Cu	0.30152 0.17300 0.31135 0.88300
Cu	Cu	0.45800 0.38985 0.08840 0.87500
Cu	Cu	0.61287 0.31135 0.51565 0.88300
Cu	Cu	0.54640 0.08840 0.52175 0.87500
H 	H 	0.91490 0.54030 0.94280 -0.00800
H 	H 	0.06400 0.60690 0.95600 0.07300
H 	H 	0.23840 0.65360 0.86620 0.03300
H 	H 	0.25490 0.64160 0.75400 0.08900
H 	H 	0.29520 0.62190 0.38300 0.00300
H 	H 	0.85770 0.94280 0.51690 -0.00700
H 	H 	0.02000 0.95600 0.43710 0.07100
H 	H 	0.10460 0.86620 0.48020 0.03500
H 	H 	0.00890 0.75400 0.60440 0.08800
H 	H 	0.67820 0.38300 0.99510 0.00300
H 	H 	0.37460 0.51690 0.54030 -0.00800
H 	H 	0.45710 0.43710 0.60690 0.07300
H 	H 	0.58480 0.48020 0.65360 0.03300
H 	H 	0.61330 0.60440 0.64160 0.08900
H 	H 	0.67330 0.99510 0.62190 0.00300
H 	H 	0.08510 0.45970 0.05720 -0.00800
H 	H 	0.93600 0.39310 0.04400 0.07300
H 	H 	0.76160 0.34640 0.13380 0.03300
H 	H 	0.74510 0.35840 0.24600 0.08900
H 	H 	0.70480 0.37810 0.61700 0.00300
H 	H 	0.14230 0.05720 0.48310 -0.00700
H 	H 	0.98000 0.04400 0.56290 0.07100
H 	H 	0.89540 0.13380 0.51980 0.03500
H 	H 	0.99110 0.24600 0.39560 0.08800
H 	H 	0.32180 0.61700 0.00490 0.00300
H 	H 	0.62540 0.48310 0.45970 -0.00800
H 	H 	0.54290 0.56290 0.39310 0.07300
H 	H 	0.41520 0.51980 0.34640 0.03300
H 	H 	0.38670 0.39560 0.35840 0.08900
H 	H 	0.32670 0.00490 0.37810 0.00300
C 	C 	0.98470 0.56100 0.90440 0.07500
C 	C 	0.07360 0.60000 0.91310 -0.13500
C 	C 	0.17600 0.62880 0.85970 0.04800
C 	C 	0.18610 0.62030 0.79330 -0.12100
C 	C 	0.09401 0.58101 0.78818 0.05900
C 	C 	0.09211 0.56566 0.72453 0.07100
C 	C 	0.12223 0.56340 0.62261 0.05300
C 	C 	0.15940 0.57254 0.54544 0.07200
C 	C 	0.24115 0.60046 0.43161 0.10200
C 	C 	0.88910 0.90440 0.53460 0.07400
C 	C 	0.98670 0.91310 0.48690 -0.13100
C 	C 	0.03570 0.85970 0.51150 0.04400
C 	C 	0.97940 0.79330 0.58640 -0.11700
C 	C 	0.88219 0.78818 0.63081 0.05700
C 	C 	0.81664 0.72453 0.70981 0.07200
C 	C 	0.74484 0.62261 0.81399 0.05300
C 	C 	0.70484 0.54544 0.88202 0.07200
C 	C 	0.67276 0.43161 0.96793 0.10200
C 	C 	0.42370 0.53460 0.56100 0.07600
C 	C 	0.47360 0.48690 0.60000 -0.13600
C 	C 	0.54720 0.51150 0.62880 0.04800
C 	C 	0.56580 0.58640 0.62030 -0.12100
C 	C 	0.51300 0.63081 0.58101 0.05900
C 	C 	0.52645 0.70981 0.56566 0.07100
C 	C 	0.55883 0.81399 0.56340 0.05300
C 	C 	0.58686 0.88202 0.57254 0.07200
C 	C 	0.64069 0.96793 0.60046 0.10200
C 	C 	0.01530 0.43900 0.09560 0.07500
C 	C 	0.92640 0.40000 0.08690 -0.13500
C 	C 	0.82400 0.37120 0.14030 0.04800
C 	C 	0.81390 0.37970 0.20670 -0.12100
C 	C 	0.90599 0.41899 0.21182 0.05900
C 	C 	0.90789 0.43434 0.27547 0.07100
C 	C 	0.87777 0.43660 0.37739 0.05300
C 	C 	0.84060 0.42746 0.45456 0.07200
C 	C 	0.75885 0.39954 0.56839 0.10200
C 	C 	0.11090 0.09560 0.46540 0.07400
C 	C 	0.01330 0.08690 0.51310 -0.13100
C 	C 	0.96430 0.14030 0.48850 0.04400
C 	C 	0.02060 0.20670 0.41360 -0.11700
C 	C 	0.11781 0.21182 0.36919 0.05700
C 	C 	0.18336 0.27547 0.29019 0.07200
C 	C 	0.25516 0.37739 0.18601 0.05300
C 	C 	0.29516 0.45456 0.11798 0.07200
C 	C 	0.32724 0.56839 0.03207 0.10200
C 	C 	0.57630 0.46540 0.43900 0.07600
C 	C 	0.52640 0.51310 0.40000 -0.13600
C 	C 	0.45280 0.48850 0.37120 0.04800
C 	C 	0.43420 0.41360 0.37970 -0.12100
C 	C 	0.48700 0.36919 0.41899 0.05900
C 	C 	0.47355 0.29019 0.43434 0.07100
C 	C 	0.44117 0.18601 0.43660 0.05300
C 	C 	0.41314 0.11798 0.42746 0.07200
C 	C 	0.35931 0.03207 0.39954 0.10200
S 	S 	0.72130 0.42732 0.75332 0.73600
S 	S 	0.47462 0.75332 0.81936 0.73600
S 	S 	0.29398 0.81936 0.42732 0.73600
S 	S 	0.27870 0.57268 0.24668 0.73600
S 	S 	0.52538 0.24668 0.18064 0.73600
S 	S 	0.70602 0.18064 0.57268 0.73600
N 	N 	0.99305 0.55101 0.84236 -0.22900
N 	N 	0.99714 0.52077 0.73115 -0.19300
N 	N 	0.01542 0.51888 0.66452 -0.18800
N 	N 	0.17576 0.59385 0.65687 -0.13300
N 	N 	0.08421 0.53741 0.52648 -0.20500
N 	N 	0.13751 0.55465 0.45222 -0.20200
N 	N 	0.25927 0.61218 0.48887 -0.23000
N 	N 	0.83541 0.84236 0.60663 -0.22800
N 	N 	0.72829 0.73115 0.74808 -0.19200
N 	N 	0.67994 0.66452 0.81660 -0.18800
N 	N 	0.83263 0.65687 0.74928 -0.13300
N 	N 	0.61069 0.52648 0.93611 -0.20500
N 	N 	0.58973 0.45222 0.99313 -0.20200
N 	N 	0.74814 0.48887 0.89895 -0.23000
N 	N 	0.44204 0.60663 0.55101 -0.22900
N 	N 	0.47637 0.74808 0.52077 -0.19200
N 	N 	0.49654 0.81660 0.51888 -0.18800
N 	N 	0.58191 0.74928 0.59385 -0.13300
N 	N 	0.54680 0.93611 0.53741 -0.20500
N 	N 	0.58286 0.99313 0.55465 -0.20200
N 	N 	0.64709 0.89895 0.61218 -0.23000
N 	N 	0.00695 0.44899 0.15764 -0.22900
N 	N 	0.00286 0.47923 0.26885 -0.19300
N 	N 	0.98458 0.48112 0.33548 -0.18800
N 	N 	0.82424 0.40615 0.34313 -0.13300
N 	N 	0.91579 0.46259 0.47352 -0.20500
N 	N 	0.86249 0.44535 0.54778 -0.20200
N 	N 	0.74073 0.38782 0.51113 -0.23000
N 	N 	0.16459 0.15764 0.39337 -0.22800
N 	N 	0.27171 0.26885 0.25192 -0.19200
N 	N 	0.32006 0.33548 0.18340 -0.18800
N 	N 	0.16737 0.34313 0.25072 -0.13300
N 	N 	0.38931 0.47352 0.06389 -0.20500
N 	N 	0.41027 0.54778 0.00687 -0.20200
N 	N 	0.25186 0.51113 0.10105 -0.23000
N 	N 	0.55796 0.39337 0.44899 -0.22900
N 	N 	0.52363 0.25192 0.47923 -0.19200
N 	N 	0.50346 0.18340 0.48112 -0.18800
N 	N 	0.41809 0.25072 0.40615 -0.13300
N 	N 	0.45320 0.06389 0.46259 -0.20500
N 	N 	0.41714 0.00687 0.44535 -0.20200
N 	N 	0.35291 0.10105 0.38782 -0.23000
O 	O 	0.76684 0.40879 0.81657 -0.44000
O 	O 	0.73200 0.50800 0.71820 -0.35600
O 	O 	0.60940 0.37680 0.77900 -0.29300
O 	O 	0.79179 0.41359 0.69612 -0.44000
O 	O 	0.58341 0.81657 0.77464 -0.44000
O 	O 	0.45020 0.71820 0.77380 -0.35600
O 	O 	0.38840 0.77900 0.84420 -0.29300
O 	O 	0.48791 0.69612 0.89029 -0.44000
O 	O 	0.35805 0.77464 0.40879 -0.44000
O 	O 	0.22400 0.77380 0.50800 -0.35600
O 	O 	0.23260 0.84420 0.37680 -0.29300
O 	O 	0.37820 0.89029 0.41359 -0.44000
O 	O 	0.23316 0.59121 0.18343 -0.44000
O 	O 	0.26800 0.49200 0.28180 -0.35600
O 	O 	0.39060 0.62320 0.22100 -0.29300
O 	O 	0.20821 0.58641 0.30388 -0.44000
O 	O 	0.41659 0.18343 0.22536 -0.44000
O 	O 	0.54980 0.28180 0.22620 -0.35600
O 	O 	0.61160 0.22100 0.15580 -0.29300
O 	O 	0.51209 0.30388 0.10971 -0.44000
O 	O 	0.64195 0.22536 0.59121 -0.44000
O 	O 	0.77600 0.22620 0.49200 -0.35600
O 	O 	0.76740 0.15580 0.62320 -0.29300
O 	O 	0.62180 0.10971 0.58641 -0.44000
