data_crystal

_cell_length_a 16.52760
_cell_length_b 16.52760
_cell_length_c 25.39590
_cell_angle_alpha 90.00000
_cell_angle_beta  90.00000
_cell_angle_gamma 120.00000

_symmetry_space_group_name_	'P 1'
_symmetry_space_group_name_H-M	'P 1'

loop_
_symmetry_equiv_pos_as_xyz
  x,y,z

loop_
_atom_site_label
_atom_site_type_symbol
_atom_site_fract_x
_atom_site_fract_y
_atom_site_fract_z
_atom_site_charge
Zn	Zn	0.28704 0.71295 -0.00000 1.21300
Zn	Zn	0.42591 0.71295 0.33333 1.21300
Zn	Zn	0.28704 0.57408 0.66667 1.21300
Zn	Zn	0.71296 0.28705 1.00000 1.21300
Zn	Zn	0.57409 0.28705 0.33333 1.21300
Zn	Zn	0.71296 0.42592 0.66667 1.21300
H 	H 	0.59760 0.82080 0.91220 0.03000
H 	H 	0.69340 0.48590 0.96010 0.01800
H 	H 	0.54180 0.45580 0.95560 0.07600
H 	H 	0.10050 0.64240 0.05180 -0.04100
H 	H 	0.94380 0.58510 0.03020 0.13600
H 	H 	0.02240 0.63110 0.88120 0.16600
H 	H 	0.58330 0.55560 0.81700 0.07400
H 	H 	0.73430 0.58180 0.82120 0.02700
H 	H 	0.17020 0.67020 0.90620 -0.02100
H 	H 	0.83310 0.54840 0.96680 0.16600
H 	H 	0.22320 0.40240 0.24553 0.02900
H 	H 	0.79250 0.30660 0.29343 0.01300
H 	H 	0.91400 0.45820 0.28893 0.07900
H 	H 	0.54190 0.89950 0.38513 -0.04400
H 	H 	0.64130 0.05620 0.36353 0.13800
H 	H 	0.60870 0.97760 0.21453 0.16700
H 	H 	0.97230 0.41670 0.15033 0.07800
H 	H 	0.84750 0.26570 0.15453 0.02300
H 	H 	0.50000 0.82980 0.23953 -0.02200
H 	H 	0.71530 0.16690 0.30013 0.16700
H 	H 	0.17920 0.77680 0.57887 0.02900
H 	H 	0.51410 0.20750 0.62677 0.01600
H 	H 	0.54420 0.08600 0.62227 0.07600
H 	H 	0.35760 0.45810 0.71847 -0.04400
H 	H 	0.41490 0.35870 0.69687 0.13800
H 	H 	0.36890 0.39130 0.54787 0.16700
H 	H 	0.44440 0.02770 0.48367 0.07500
H 	H 	0.41820 0.15250 0.48787 0.02600
H 	H 	0.32980 0.50000 0.57287 -0.02200
H 	H 	0.45160 0.28470 0.63347 0.16600
H 	H 	0.40240 0.17920 0.91220 0.02900
H 	H 	0.30660 0.51410 0.96010 0.01700
H 	H 	0.45820 0.54420 0.95560 0.07600
H 	H 	0.89950 0.35760 0.05180 -0.04500
H 	H 	0.05620 0.41490 0.03020 0.14000
H 	H 	0.97760 0.36890 0.88120 0.16800
H 	H 	0.41670 0.44440 0.81700 0.07500
H 	H 	0.26570 0.41820 0.82120 0.02600
H 	H 	0.82980 0.32980 0.90620 -0.02300
H 	H 	0.16690 0.45160 0.96680 0.16700
H 	H 	0.77680 0.59760 0.24553 0.02900
H 	H 	0.20750 0.69340 0.29343 0.02000
H 	H 	0.08600 0.54180 0.28893 0.07100
H 	H 	0.45810 0.10050 0.38513 -0.04400
H 	H 	0.35870 0.94380 0.36353 0.13800
H 	H 	0.39130 0.02240 0.21453 0.16700
H 	H 	0.02770 0.58330 0.15033 0.07000
H 	H 	0.15250 0.73430 0.15453 0.02900
H 	H 	0.50000 0.17020 0.23953 -0.02200
H 	H 	0.28470 0.83310 0.30013 0.16600
H 	H 	0.82080 0.22320 0.57887 0.02900
H 	H 	0.48590 0.79250 0.62677 0.01800
H 	H 	0.45580 0.91400 0.62227 0.07400
H 	H 	0.64240 0.54190 0.71847 -0.04400
H 	H 	0.58510 0.64130 0.69687 0.13800
H 	H 	0.63110 0.60870 0.54787 0.16700
H 	H 	0.55560 0.97230 0.48367 0.07300
H 	H 	0.58180 0.84750 0.48787 0.02700
H 	H 	0.67020 0.50000 0.57287 -0.02200
H 	H 	0.54840 0.71530 0.63347 0.16600
H 	H 	0.77680 0.17920 0.42113 0.02900
H 	H 	0.20750 0.51410 0.37323 0.01600
H 	H 	0.08600 0.54420 0.37773 0.07600
H 	H 	0.45810 0.35760 0.28153 -0.04400
H 	H 	0.35870 0.41490 0.30313 0.13800
H 	H 	0.39130 0.36890 0.45213 0.16700
H 	H 	0.02770 0.44440 0.51633 0.07500
H 	H 	0.15250 0.41820 0.51213 0.02600
H 	H 	0.50000 0.32980 0.42713 -0.02200
H 	H 	0.28470 0.45160 0.36653 0.16600
H 	H 	0.82080 0.59760 0.08780 0.02900
H 	H 	0.48590 0.69340 0.03990 0.01700
H 	H 	0.45580 0.54180 0.04440 0.07500
H 	H 	0.64240 0.10050 0.94820 -0.04200
H 	H 	0.58510 0.94380 0.96980 0.13600
H 	H 	0.63110 0.02240 0.11880 0.16600
H 	H 	0.55560 0.58330 0.18300 0.07400
H 	H 	0.58180 0.73430 0.17880 0.02700
H 	H 	0.67020 0.17020 0.09380 -0.02100
H 	H 	0.54840 0.83310 0.03320 0.16600
H 	H 	0.40240 0.22320 0.75447 0.02900
H 	H 	0.30660 0.79250 0.70657 0.01300
H 	H 	0.45820 0.91400 0.71107 0.07900
H 	H 	0.89950 0.54190 0.61487 -0.04400
H 	H 	0.05620 0.64130 0.63647 0.13800
H 	H 	0.97760 0.60870 0.78547 0.16700
H 	H 	0.41670 0.97230 0.84967 0.07800
H 	H 	0.26570 0.84750 0.84547 0.02300
H 	H 	0.82980 0.50000 0.76047 -0.02200
H 	H 	0.16690 0.71530 0.69987 0.16700
H 	H 	0.22320 0.82080 0.42113 0.02900
H 	H 	0.79250 0.48590 0.37323 0.01800
H 	H 	0.91400 0.45580 0.37773 0.07400
H 	H 	0.54190 0.64240 0.28153 -0.04400
H 	H 	0.64130 0.58510 0.30313 0.13800
H 	H 	0.60870 0.63110 0.45213 0.16700
H 	H 	0.97230 0.55560 0.51633 0.07300
H 	H 	0.84750 0.58180 0.51213 0.02700
H 	H 	0.50000 0.67020 0.42713 -0.02200
H 	H 	0.71530 0.54840 0.36653 0.16600
H 	H 	0.17920 0.40240 0.08780 0.02900
H 	H 	0.51410 0.30660 0.03990 0.01700
H 	H 	0.54420 0.45820 0.04440 0.07600
H 	H 	0.35760 0.89950 0.94820 -0.04500
H 	H 	0.41490 0.05620 0.96980 0.14000
H 	H 	0.36890 0.97760 0.11880 0.16800
H 	H 	0.44440 0.41670 0.18300 0.07500
H 	H 	0.41820 0.26570 0.17880 0.02600
H 	H 	0.32980 0.82980 0.09380 -0.02300
H 	H 	0.45160 0.16690 0.03320 0.16700
H 	H 	0.59760 0.77680 0.75447 0.02900
H 	H 	0.69340 0.20750 0.70657 0.02000
H 	H 	0.54180 0.08600 0.71107 0.07100
H 	H 	0.10050 0.45810 0.61487 -0.04400
H 	H 	0.94380 0.35870 0.63647 0.13800
H 	H 	0.02240 0.39130 0.78547 0.16700
H 	H 	0.58330 0.02770 0.84967 0.07000
H 	H 	0.73430 0.15250 0.84547 0.02900
H 	H 	0.17020 0.50000 0.76047 -0.02200
H 	H 	0.83310 0.28470 0.69987 0.16600
H 	H 	0.35600 0.67800 0.83333 0.04300
H 	H 	0.67910 0.83955 0.83333 0.06900
H 	H 	0.32200 0.64400 0.16667 0.04300
H 	H 	0.16045 0.32090 0.16667 0.06900
H 	H 	0.32200 0.67800 0.50000 0.04300
H 	H 	0.16045 0.83955 0.50000 0.06900
H 	H 	0.64400 0.32200 0.83333 0.04300
H 	H 	0.32090 0.16045 0.83333 0.06900
H 	H 	0.67800 0.35600 0.16667 0.04300
H 	H 	0.83955 0.67910 0.16667 0.06900
H 	H 	0.67800 0.32200 0.50000 0.04300
H 	H 	0.83955 0.16045 0.50000 0.06900
C 	C 	0.41590 0.73990 0.92925 0.35000
C 	C 	0.46710 0.74930 0.87933 -0.11800
C 	C 	0.56550 0.79680 0.88080 0.03200
C 	C 	0.73440 0.55010 0.89434 -0.12400
C 	C 	0.83470 0.57840 0.89570 0.27400
C 	C 	0.67490 0.50620 0.93070 0.05700
C 	C 	0.58120 0.48740 0.92760 -0.12700
C 	C 	0.08440 0.63840 0.01640 0.15900
C 	C 	0.98850 0.60470 0.00365 -0.28100
C 	C 	0.03540 0.63010 0.91674 -0.27200
C 	C 	0.96370 0.60160 0.95327 0.27700
C 	C 	0.60460 0.54360 0.84830 -0.12200
C 	C 	0.69760 0.56130 0.85140 0.05800
C 	C 	0.54700 0.51030 0.88931 0.06000
C 	C 	0.12550 0.65670 0.93216 0.16600
C 	C 	0.32400 0.58410 0.26258 0.35100
C 	C 	0.28220 0.53290 0.21266 -0.11900
C 	C 	0.23130 0.43450 0.21413 0.03200
C 	C 	0.81570 0.26560 0.22767 -0.13300
C 	C 	0.74370 0.16530 0.22903 0.27800
C 	C 	0.83130 0.32510 0.26403 0.06800
C 	C 	0.90620 0.41880 0.26093 -0.14000
C 	C 	0.55400 0.91560 0.34973 0.16400
C 	C 	0.61620 0.01150 0.33698 -0.28700
C 	C 	0.59470 0.96460 0.25007 -0.27800
C 	C 	0.63790 0.03630 0.28660 0.28300
C 	C 	0.93900 0.39540 0.18163 -0.13400
C 	C 	0.86370 0.30240 0.18473 0.06800
C 	C 	0.96330 0.45300 0.22264 0.07500
C 	C 	0.53120 0.87450 0.26549 0.16900
C 	C 	0.26010 0.67600 0.59592 0.35100
C 	C 	0.25070 0.71780 0.54600 -0.11900
C 	C 	0.20320 0.76870 0.54747 0.03200
C 	C 	0.44990 0.18430 0.56101 -0.12600
C 	C 	0.42160 0.25630 0.56237 0.27500
C 	C 	0.49380 0.16870 0.59737 0.06000
C 	C 	0.51260 0.09380 0.59427 -0.13000
C 	C 	0.36160 0.44600 0.68307 0.16400
C 	C 	0.39530 0.38380 0.67032 -0.28700
C 	C 	0.36990 0.40530 0.58341 -0.27700
C 	C 	0.39840 0.36210 0.61994 0.28200
C 	C 	0.45640 0.06100 0.51497 -0.12500
C 	C 	0.43870 0.13630 0.51807 0.06100
C 	C 	0.48970 0.03670 0.55598 0.06400
C 	C 	0.34330 0.46880 0.59883 0.16800
C 	C 	0.58410 0.26010 0.92925 0.35100
C 	C 	0.53290 0.25070 0.87933 -0.11900
C 	C 	0.43450 0.20320 0.88080 0.03200
C 	C 	0.26560 0.44990 0.89434 -0.12600
C 	C 	0.16530 0.42160 0.89570 0.27500
C 	C 	0.32510 0.49380 0.93070 0.05900
C 	C 	0.41880 0.51260 0.92760 -0.12900
C 	C 	0.91560 0.36160 0.01640 0.17000
C 	C 	0.01150 0.39530 0.00365 -0.29300
C 	C 	0.96460 0.36990 0.91674 -0.28200
C 	C 	0.03630 0.39840 0.95327 0.28700
C 	C 	0.39540 0.45640 0.84830 -0.12400
C 	C 	0.30240 0.43870 0.85140 0.06000
C 	C 	0.45300 0.48970 0.88931 0.06200
C 	C 	0.87450 0.34330 0.93216 0.17100
C 	C 	0.67600 0.41590 0.26258 0.35100
C 	C 	0.71780 0.46710 0.21266 -0.11900
C 	C 	0.76870 0.56550 0.21413 0.03200
C 	C 	0.18430 0.73440 0.22767 -0.11600
C 	C 	0.25630 0.83470 0.22903 0.27100
C 	C 	0.16870 0.67490 0.26403 0.04800
C 	C 	0.09380 0.58120 0.26093 -0.11500
C 	C 	0.44600 0.08440 0.34973 0.16500
C 	C 	0.38380 0.98850 0.33698 -0.28800
C 	C 	0.40530 0.03540 0.25007 -0.27600
C 	C 	0.36210 0.96370 0.28660 0.28100
C 	C 	0.06100 0.60460 0.18163 -0.11200
C 	C 	0.13630 0.69760 0.18473 0.04900
C 	C 	0.03670 0.54700 0.22264 0.04700
C 	C 	0.46880 0.12550 0.26549 0.16800
C 	C 	0.73990 0.32400 0.59592 0.35100
C 	C 	0.74930 0.28220 0.54600 -0.11900
C 	C 	0.79680 0.23130 0.54747 0.03200
C 	C 	0.55010 0.81570 0.56101 -0.12300
C 	C 	0.57840 0.74370 0.56237 0.27400
C 	C 	0.50620 0.83130 0.59737 0.05600
C 	C 	0.48740 0.90620 0.59427 -0.12500
C 	C 	0.63840 0.55400 0.68307 0.16400
C 	C 	0.60470 0.61620 0.67032 -0.28700
C 	C 	0.63010 0.59470 0.58341 -0.27700
C 	C 	0.60160 0.63790 0.61994 0.28200
C 	C 	0.54360 0.93900 0.51497 -0.12100
C 	C 	0.56130 0.86370 0.51807 0.05700
C 	C 	0.51030 0.96330 0.55598 0.05800
C 	C 	0.65670 0.53120 0.59883 0.16800
C 	C 	0.67600 0.26010 0.40408 0.35100
C 	C 	0.71780 0.25070 0.45400 -0.11900
C 	C 	0.76870 0.20320 0.45253 0.03200
C 	C 	0.18430 0.44990 0.43899 -0.12600
C 	C 	0.25630 0.42160 0.43763 0.27500
C 	C 	0.16870 0.49380 0.40263 0.06000
C 	C 	0.09380 0.51260 0.40573 -0.13000
C 	C 	0.44600 0.36160 0.31693 0.16400
C 	C 	0.38380 0.39530 0.32968 -0.28700
C 	C 	0.40530 0.36990 0.41659 -0.27700
C 	C 	0.36210 0.39840 0.38006 0.28200
C 	C 	0.06100 0.45640 0.48503 -0.12500
C 	C 	0.13630 0.43870 0.48193 0.06100
C 	C 	0.03670 0.48970 0.44402 0.06400
C 	C 	0.46880 0.34330 0.40117 0.16800
C 	C 	0.73990 0.41590 0.07075 0.35000
C 	C 	0.74930 0.46710 0.12067 -0.11800
C 	C 	0.79680 0.56550 0.11920 0.03200
C 	C 	0.55010 0.73440 0.10566 -0.12400
C 	C 	0.57840 0.83470 0.10430 0.27400
C 	C 	0.50620 0.67490 0.06930 0.05700
C 	C 	0.48740 0.58120 0.07240 -0.12700
C 	C 	0.63840 0.08440 0.98360 0.15900
C 	C 	0.60470 0.98850 0.99635 -0.28100
C 	C 	0.63010 0.03540 0.08326 -0.27200
C 	C 	0.60160 0.96370 0.04673 0.27700
C 	C 	0.54360 0.60460 0.15170 -0.12200
C 	C 	0.56130 0.69760 0.14860 0.05800
C 	C 	0.51030 0.54700 0.11069 0.06000
C 	C 	0.65670 0.12550 0.06784 0.16600
C 	C 	0.58410 0.32400 0.73742 0.35100
C 	C 	0.53290 0.28220 0.78734 -0.11900
C 	C 	0.43450 0.23130 0.78587 0.03200
C 	C 	0.26560 0.81570 0.77233 -0.13300
C 	C 	0.16530 0.74370 0.77097 0.27800
C 	C 	0.32510 0.83130 0.73597 0.06800
C 	C 	0.41880 0.90620 0.73907 -0.14000
C 	C 	0.91560 0.55400 0.65027 0.16400
C 	C 	0.01150 0.61620 0.66302 -0.28700
C 	C 	0.96460 0.59470 0.74993 -0.27800
C 	C 	0.03630 0.63790 0.71340 0.28300
C 	C 	0.39540 0.93900 0.81837 -0.13400
C 	C 	0.30240 0.86370 0.81527 0.06800
C 	C 	0.45300 0.96330 0.77736 0.07500
C 	C 	0.87450 0.53120 0.73451 0.16900
C 	C 	0.32400 0.73990 0.40408 0.35100
C 	C 	0.28220 0.74930 0.45400 -0.11900
C 	C 	0.23130 0.79680 0.45253 0.03200
C 	C 	0.81570 0.55010 0.43899 -0.12300
C 	C 	0.74370 0.57840 0.43763 0.27400
C 	C 	0.83130 0.50620 0.40263 0.05600
C 	C 	0.90620 0.48740 0.40573 -0.12500
C 	C 	0.55400 0.63840 0.31693 0.16400
C 	C 	0.61620 0.60470 0.32968 -0.28700
C 	C 	0.59470 0.63010 0.41659 -0.27700
C 	C 	0.63790 0.60160 0.38006 0.28200
C 	C 	0.93900 0.54360 0.48503 -0.12100
C 	C 	0.86370 0.56130 0.48193 0.05700
C 	C 	0.96330 0.51030 0.44402 0.05800
C 	C 	0.53120 0.65670 0.40117 0.16800
C 	C 	0.26010 0.58410 0.07075 0.35100
C 	C 	0.25070 0.53290 0.12067 -0.11900
C 	C 	0.20320 0.43450 0.11920 0.03200
C 	C 	0.44990 0.26560 0.10566 -0.12600
C 	C 	0.42160 0.16530 0.10430 0.27500
C 	C 	0.49380 0.32510 0.06930 0.05900
C 	C 	0.51260 0.41880 0.07240 -0.12900
C 	C 	0.36160 0.91560 0.98360 0.17000
C 	C 	0.39530 0.01150 0.99635 -0.29300
C 	C 	0.36990 0.96460 0.08326 -0.28200
C 	C 	0.39840 0.03630 0.04673 0.28700
C 	C 	0.45640 0.39540 0.15170 -0.12400
C 	C 	0.43870 0.30240 0.14860 0.06000
C 	C 	0.48970 0.45300 0.11069 0.06200
C 	C 	0.34330 0.87450 0.06784 0.17100
C 	C 	0.41590 0.67600 0.73742 0.35100
C 	C 	0.46710 0.71780 0.78734 -0.11900
C 	C 	0.56550 0.76870 0.78587 0.03200
C 	C 	0.73440 0.18430 0.77233 -0.11600
C 	C 	0.83470 0.25630 0.77097 0.27100
C 	C 	0.67490 0.16870 0.73597 0.04800
C 	C 	0.58120 0.09380 0.73907 -0.11500
C 	C 	0.08440 0.44600 0.65027 0.16500
C 	C 	0.98850 0.38380 0.66302 -0.28800
C 	C 	0.03540 0.40530 0.74993 -0.27600
C 	C 	0.96370 0.36210 0.71340 0.28100
C 	C 	0.60460 0.06100 0.81837 -0.11200
C 	C 	0.69760 0.13630 0.81527 0.04900
C 	C 	0.54700 0.03670 0.77736 0.04700
C 	C 	0.12550 0.46880 0.73451 0.16800
C 	C 	0.42100 0.71050 0.83333 0.06000
C 	C 	0.61410 0.80705 0.83333 -0.09800
C 	C 	0.28950 0.57900 0.16667 0.06000
C 	C 	0.19295 0.38590 0.16667 -0.09900
C 	C 	0.28950 0.71050 0.50000 0.06000
C 	C 	0.19295 0.80705 0.50000 -0.09800
C 	C 	0.57900 0.28950 0.83333 0.06000
C 	C 	0.38590 0.19295 0.83333 -0.09900
C 	C 	0.71050 0.42100 0.16667 0.06000
C 	C 	0.80705 0.61410 0.16667 -0.09800
C 	C 	0.71050 0.28950 0.50000 0.06000
C 	C 	0.80705 0.19295 0.50000 -0.09800
N 	N 	0.15083 0.66391 0.98145 -0.29900
N 	N 	0.87194 0.57314 0.94120 -0.29200
N 	N 	0.51308 0.84917 0.31478 -0.30200
N 	N 	0.70120 0.12806 0.27453 -0.29400
N 	N 	0.33609 0.48692 0.64812 -0.30200
N 	N 	0.42686 0.29880 0.60787 -0.29300
N 	N 	0.84917 0.33609 0.98145 -0.30400
N 	N 	0.12806 0.42686 0.94120 -0.29400
N 	N 	0.48692 0.15083 0.31478 -0.30200
N 	N 	0.29880 0.87194 0.27453 -0.29200
N 	N 	0.66391 0.51308 0.64812 -0.30200
N 	N 	0.57314 0.70120 0.60787 -0.29300
N 	N 	0.48692 0.33609 0.35188 -0.30200
N 	N 	0.29880 0.42686 0.39213 -0.29300
N 	N 	0.66391 0.15083 0.01855 -0.29900
N 	N 	0.57314 0.87194 0.05880 -0.29200
N 	N 	0.84917 0.51308 0.68522 -0.30200
N 	N 	0.12806 0.70120 0.72547 -0.29400
N 	N 	0.51308 0.66391 0.35188 -0.30200
N 	N 	0.70120 0.57314 0.39213 -0.29300
N 	N 	0.33609 0.84917 0.01855 -0.30400
N 	N 	0.42686 0.12806 0.05880 -0.29400
N 	N 	0.15083 0.48692 0.68522 -0.30200
N 	N 	0.87194 0.29880 0.72547 -0.29200
O 	O 	0.33028 0.70871 0.92834 -0.45900
O 	O 	0.46130 0.76532 0.97143 -0.35400
O 	O 	0.88260 0.60850 0.85653 -0.25300
O 	O 	0.37843 0.66972 0.26167 -0.46000
O 	O 	0.30402 0.53870 0.30476 -0.35400
O 	O 	0.72590 0.11740 0.18986 -0.25400
O 	O 	0.29129 0.62157 0.59501 -0.46000
O 	O 	0.23468 0.69598 0.63810 -0.35400
O 	O 	0.39150 0.27410 0.52320 -0.25300
O 	O 	0.66972 0.29129 0.92834 -0.46000
O 	O 	0.53870 0.23468 0.97143 -0.35500
O 	O 	0.11740 0.39150 0.85653 -0.25300
O 	O 	0.62157 0.33028 0.26167 -0.46000
O 	O 	0.69598 0.46130 0.30476 -0.35400
O 	O 	0.27410 0.88260 0.18986 -0.25300
O 	O 	0.70871 0.37843 0.59501 -0.46000
O 	O 	0.76532 0.30402 0.63810 -0.35500
O 	O 	0.60850 0.72590 0.52320 -0.25300
O 	O 	0.62157 0.29129 0.40499 -0.46000
O 	O 	0.69598 0.23468 0.36190 -0.35400
O 	O 	0.27410 0.39150 0.47680 -0.25300
O 	O 	0.70871 0.33028 0.07166 -0.45900
O 	O 	0.76532 0.46130 0.02857 -0.35400
O 	O 	0.60850 0.88260 0.14347 -0.25300
O 	O 	0.66972 0.37843 0.73833 -0.46000
O 	O 	0.53870 0.30402 0.69524 -0.35400
O 	O 	0.11740 0.72590 0.81014 -0.25400
O 	O 	0.37843 0.70871 0.40499 -0.46000
O 	O 	0.30402 0.76532 0.36190 -0.35500
O 	O 	0.72590 0.60850 0.47680 -0.25300
O 	O 	0.29129 0.66972 0.07166 -0.46000
O 	O 	0.23468 0.53870 0.02857 -0.35500
O 	O 	0.39150 0.11740 0.14347 -0.25300
O 	O 	0.33028 0.62157 0.73833 -0.46000
O 	O 	0.46130 0.69598 0.69524 -0.35400
O 	O 	0.88260 0.27410 0.81014 -0.25300
