data_crystal

_cell_length_a 16.57640
_cell_length_b 16.57640
_cell_length_c 25.25040
_cell_angle_alpha 90.00000
_cell_angle_beta  90.00000
_cell_angle_gamma 120.00000

_symmetry_space_group_name_	'P 1'
_symmetry_space_group_name_H-M	'P 1'

loop_
_symmetry_equiv_pos_as_xyz
  x,y,z

loop_
_atom_site_label
_atom_site_type_symbol
_atom_site_fract_x
_atom_site_fract_y
_atom_site_fract_z
_atom_site_charge
Zn	Zn	0.71402 0.28597 -0.00000 1.19700
Zn	Zn	0.57195 0.28597 0.66667 1.21000
Zn	Zn	0.71402 0.42804 0.33333 1.21100
Zn	Zn	0.28598 0.71403 -0.00000 1.19800
Zn	Zn	0.42805 0.71403 0.66667 1.21100
Zn	Zn	0.28598 0.57196 0.33333 1.21100
H 	H 	0.82040 0.59460 0.91080 0.08900
H 	H 	0.64170 0.09910 0.05310 -0.04000
H 	H 	0.58300 0.94450 0.03150 0.14700
H 	H 	0.63670 0.02170 0.87950 0.17000
H 	H 	0.68230 0.16980 0.90580 -0.02400
H 	H 	0.48520 0.69610 0.95820 0.01700
H 	H 	0.43950 0.54130 0.95200 0.09400
H 	H 	0.57420 0.58730 0.82350 0.08600
H 	H 	0.59860 0.73400 0.82350 0.01300
H 	H 	0.54520 0.83280 0.96670 0.18400
H 	H 	0.86030 0.73830 0.80440 0.15300
H 	H 	0.77420 0.17960 0.57747 0.08200
H 	H 	0.45740 0.35830 0.71977 -0.04300
H 	H 	0.36150 0.41700 0.69817 0.13200
H 	H 	0.38500 0.36330 0.54617 0.16100
H 	H 	0.48750 0.31770 0.57247 -0.01900
H 	H 	0.21090 0.51480 0.62487 0.00700
H 	H 	0.10180 0.56050 0.61867 0.08400
H 	H 	0.01310 0.42580 0.49017 0.08500
H 	H 	0.13540 0.40140 0.49017 0.01300
H 	H 	0.28760 0.45480 0.63337 0.16600
H 	H 	0.87800 0.13970 0.47107 0.15100
H 	H 	0.40540 0.22580 0.24413 0.08100
H 	H 	0.90090 0.54260 0.38643 -0.04300
H 	H 	0.05550 0.63850 0.36483 0.13200
H 	H 	0.97830 0.61500 0.21283 0.16100
H 	H 	0.83020 0.51250 0.23913 -0.01900
H 	H 	0.30390 0.78910 0.29153 0.00700
H 	H 	0.45870 0.89820 0.28533 0.08400
H 	H 	0.41270 0.98690 0.15683 0.08500
H 	H 	0.26600 0.86460 0.15683 0.01100
H 	H 	0.16720 0.71240 0.30003 0.16700
H 	H 	0.26170 0.12200 0.13773 0.14700
H 	H 	0.17960 0.40540 0.91080 0.08900
H 	H 	0.35830 0.90090 0.05310 -0.04000
H 	H 	0.41700 0.05550 0.03150 0.14700
H 	H 	0.36330 0.97830 0.87950 0.17000
H 	H 	0.31770 0.83020 0.90580 -0.02400
H 	H 	0.51480 0.30390 0.95820 0.01700
H 	H 	0.56050 0.45870 0.95200 0.09400
H 	H 	0.42580 0.41270 0.82350 0.08600
H 	H 	0.40140 0.26600 0.82350 0.01300
H 	H 	0.45480 0.16720 0.96670 0.18400
H 	H 	0.13970 0.26170 0.80440 0.15300
H 	H 	0.22580 0.82040 0.57747 0.08200
H 	H 	0.54260 0.64170 0.71977 -0.04300
H 	H 	0.63850 0.58300 0.69817 0.13200
H 	H 	0.61500 0.63670 0.54617 0.16100
H 	H 	0.51250 0.68230 0.57247 -0.01900
H 	H 	0.78910 0.48520 0.62487 0.00700
H 	H 	0.89820 0.43950 0.61867 0.08400
H 	H 	0.98690 0.57420 0.49017 0.08500
H 	H 	0.86460 0.59860 0.49017 0.01300
H 	H 	0.71240 0.54520 0.63337 0.16600
H 	H 	0.12200 0.86030 0.47107 0.15100
H 	H 	0.59460 0.77420 0.24413 0.08100
H 	H 	0.09910 0.45740 0.38643 -0.04300
H 	H 	0.94450 0.36150 0.36483 0.13200
H 	H 	0.02170 0.38500 0.21283 0.16100
H 	H 	0.16980 0.48750 0.23913 -0.01900
H 	H 	0.69610 0.21090 0.29153 0.00700
H 	H 	0.54130 0.10180 0.28533 0.08400
H 	H 	0.58730 0.01310 0.15683 0.08500
H 	H 	0.73400 0.13540 0.15683 0.01100
H 	H 	0.83280 0.28760 0.30003 0.16700
H 	H 	0.73830 0.87800 0.13773 0.14700
H 	H 	0.22580 0.40540 0.75587 0.08300
H 	H 	0.54260 0.90090 0.61357 -0.04300
H 	H 	0.63850 0.05550 0.63517 0.13200
H 	H 	0.61500 0.97830 0.78717 0.16100
H 	H 	0.51250 0.83020 0.76087 -0.01900
H 	H 	0.78910 0.30390 0.70847 0.00700
H 	H 	0.89820 0.45870 0.71467 0.08300
H 	H 	0.98690 0.41270 0.84317 0.08500
H 	H 	0.86460 0.26600 0.84317 0.01500
H 	H 	0.71240 0.16720 0.69997 0.16600
H 	H 	0.12200 0.26170 0.86227 0.15600
H 	H 	0.59460 0.82040 0.08920 0.07500
H 	H 	0.09910 0.64170 0.94690 -0.04500
H 	H 	0.94450 0.58300 0.96850 0.11800
H 	H 	0.02170 0.63670 0.12050 0.15100
H 	H 	0.16980 0.68230 0.09420 -0.01300
H 	H 	0.69610 0.48520 0.04180 -0.00200
H 	H 	0.54130 0.43950 0.04800 0.07400
H 	H 	0.58730 0.57420 0.17650 0.08400
H 	H 	0.73400 0.59860 0.17650 0.01400
H 	H 	0.83280 0.54520 0.03330 0.14900
H 	H 	0.73830 0.86030 0.19560 0.14900
H 	H 	0.17960 0.77420 0.42253 0.08200
H 	H 	0.35830 0.45740 0.28023 -0.04300
H 	H 	0.41700 0.36150 0.30183 0.13200
H 	H 	0.36330 0.38500 0.45383 0.16100
H 	H 	0.31770 0.48750 0.42753 -0.01900
H 	H 	0.51480 0.21090 0.37513 0.00700
H 	H 	0.56050 0.10180 0.38133 0.08400
H 	H 	0.42580 0.01310 0.50983 0.08500
H 	H 	0.40140 0.13540 0.50983 0.01300
H 	H 	0.45480 0.28760 0.36663 0.16700
H 	H 	0.13970 0.87800 0.52893 0.15100
H 	H 	0.77420 0.59460 0.75587 0.08300
H 	H 	0.45740 0.09910 0.61357 -0.04300
H 	H 	0.36150 0.94450 0.63517 0.13200
H 	H 	0.38500 0.02170 0.78717 0.16100
H 	H 	0.48750 0.16980 0.76087 -0.01900
H 	H 	0.21090 0.69610 0.70847 0.00700
H 	H 	0.10180 0.54130 0.71467 0.08300
H 	H 	0.01310 0.58730 0.84317 0.08500
H 	H 	0.13540 0.73400 0.84317 0.01500
H 	H 	0.28760 0.83280 0.69997 0.16600
H 	H 	0.87800 0.73830 0.86227 0.15600
H 	H 	0.40540 0.17960 0.08920 0.07500
H 	H 	0.90090 0.35830 0.94690 -0.04500
H 	H 	0.05550 0.41700 0.96850 0.11800
H 	H 	0.97830 0.36330 0.12050 0.15100
H 	H 	0.83020 0.31770 0.09420 -0.01300
H 	H 	0.30390 0.51480 0.04180 -0.00200
H 	H 	0.45870 0.56050 0.04800 0.07400
H 	H 	0.41270 0.42580 0.17650 0.08400
H 	H 	0.26600 0.40140 0.17650 0.01400
H 	H 	0.16720 0.45480 0.03330 0.14900
H 	H 	0.26170 0.13970 0.19560 0.14900
H 	H 	0.82040 0.22580 0.42253 0.08200
H 	H 	0.64170 0.54260 0.28023 -0.04300
H 	H 	0.58300 0.63850 0.30183 0.13200
H 	H 	0.63670 0.61500 0.45383 0.16100
H 	H 	0.68230 0.51250 0.42753 -0.01900
H 	H 	0.48520 0.78910 0.37513 0.00700
H 	H 	0.43950 0.89820 0.38133 0.08400
H 	H 	0.57420 0.98690 0.50983 0.08500
H 	H 	0.59860 0.86460 0.50983 0.01300
H 	H 	0.54520 0.71240 0.36663 0.16700
H 	H 	0.86030 0.12200 0.52893 0.15100
H 	H 	0.67640 0.35280 0.83333 0.07500
H 	H 	0.67640 0.32360 0.50000 0.07300
H 	H 	0.64720 0.32360 0.16667 0.07100
H 	H 	0.32360 0.64720 0.83333 0.07500
H 	H 	0.32360 0.67640 0.50000 0.07300
H 	H 	0.35280 0.67640 0.16667 0.07100
C 	C 	0.74150 0.41487 0.93037 0.31600
C 	C 	0.74906 0.46504 0.87920 -0.02100
C 	C 	0.79572 0.56233 0.87940 -0.13400
C 	C 	0.63841 0.08286 0.01760 0.14000
C 	C 	0.60486 0.98924 0.00485 -0.33800
C 	C 	0.60423 0.96353 0.95325 0.32500
C 	C 	0.63526 0.03472 0.91521 -0.28600
C 	C 	0.66341 0.12381 0.93162 0.17400
C 	C 	0.58824 0.83675 0.89703 0.28600
C 	C 	0.55586 0.73459 0.89482 -0.14600
C 	C 	0.50580 0.67587 0.92962 0.08700
C 	C 	0.48030 0.58210 0.92674 -0.14700
C 	C 	0.51162 0.54890 0.88969 0.07900
C 	C 	0.55450 0.60720 0.85264 -0.15700
C 	C 	0.57290 0.69740 0.85353 0.09100
C 	C 	0.67337 0.25850 0.59704 0.32300
C 	C 	0.71598 0.25094 0.54587 -0.02800
C 	C 	0.76661 0.20428 0.54607 -0.12900
C 	C 	0.44445 0.36159 0.68427 0.16000
C 	C 	0.38438 0.39514 0.67152 -0.27500
C 	C 	0.35930 0.39577 0.61992 0.26400
C 	C 	0.39946 0.36474 0.58188 -0.26100
C 	C 	0.46040 0.33659 0.59829 0.15300
C 	C 	0.24851 0.41176 0.56370 0.27800
C 	C 	0.17873 0.44414 0.56149 -0.14600
C 	C 	0.17007 0.49420 0.59629 0.08400
C 	C 	0.10180 0.51970 0.59341 -0.14900
C 	C 	0.03728 0.48838 0.55636 0.07600
C 	C 	0.05270 0.44550 0.51931 -0.15600
C 	C 	0.12450 0.42710 0.52020 0.08900
C 	C 	0.58513 0.32663 0.26370 0.32400
C 	C 	0.53496 0.28402 0.21253 -0.03100
C 	C 	0.43767 0.23339 0.21273 -0.12500
C 	C 	0.91714 0.55555 0.35093 0.16000
C 	C 	0.01076 0.61562 0.33818 -0.27500
C 	C 	0.03647 0.64070 0.28658 0.26400
C 	C 	0.96528 0.60054 0.24854 -0.26100
C 	C 	0.87619 0.53960 0.26495 0.15300
C 	C 	0.16325 0.75149 0.23036 0.27900
C 	C 	0.26541 0.82127 0.22815 -0.14800
C 	C 	0.32413 0.82993 0.26295 0.08500
C 	C 	0.41790 0.89820 0.26007 -0.14900
C 	C 	0.45110 0.96272 0.22302 0.07700
C 	C 	0.39280 0.94730 0.18597 -0.15700
C 	C 	0.30260 0.87550 0.18686 0.09000
C 	C 	0.25850 0.58513 0.93037 0.31600
C 	C 	0.25094 0.53496 0.87920 -0.02100
C 	C 	0.20428 0.43767 0.87940 -0.13400
C 	C 	0.36159 0.91714 0.01760 0.14000
C 	C 	0.39514 0.01076 0.00485 -0.33800
C 	C 	0.39577 0.03647 0.95325 0.32500
C 	C 	0.36474 0.96528 0.91521 -0.28600
C 	C 	0.33659 0.87619 0.93162 0.17400
C 	C 	0.41176 0.16325 0.89703 0.28600
C 	C 	0.44414 0.26541 0.89482 -0.14600
C 	C 	0.49420 0.32413 0.92962 0.08700
C 	C 	0.51970 0.41790 0.92674 -0.14700
C 	C 	0.48838 0.45110 0.88969 0.07900
C 	C 	0.44550 0.39280 0.85264 -0.15700
C 	C 	0.42710 0.30260 0.85353 0.09100
C 	C 	0.32663 0.74150 0.59704 0.32300
C 	C 	0.28402 0.74906 0.54587 -0.02800
C 	C 	0.23339 0.79572 0.54607 -0.12900
C 	C 	0.55555 0.63841 0.68427 0.16000
C 	C 	0.61562 0.60486 0.67152 -0.27500
C 	C 	0.64070 0.60423 0.61992 0.26400
C 	C 	0.60054 0.63526 0.58188 -0.26100
C 	C 	0.53960 0.66341 0.59829 0.15300
C 	C 	0.75149 0.58824 0.56370 0.27800
C 	C 	0.82127 0.55586 0.56149 -0.14600
C 	C 	0.82993 0.50580 0.59629 0.08400
C 	C 	0.89820 0.48030 0.59341 -0.14900
C 	C 	0.96272 0.51162 0.55636 0.07600
C 	C 	0.94730 0.55450 0.51931 -0.15600
C 	C 	0.87550 0.57290 0.52020 0.08900
C 	C 	0.41487 0.67337 0.26370 0.32400
C 	C 	0.46504 0.71598 0.21253 -0.03100
C 	C 	0.56233 0.76661 0.21273 -0.12500
C 	C 	0.08286 0.44445 0.35093 0.16000
C 	C 	0.98924 0.38438 0.33818 -0.27500
C 	C 	0.96353 0.35930 0.28658 0.26400
C 	C 	0.03472 0.39946 0.24854 -0.26100
C 	C 	0.12381 0.46040 0.26495 0.15300
C 	C 	0.83675 0.24851 0.23036 0.27900
C 	C 	0.73459 0.17873 0.22815 -0.14800
C 	C 	0.67587 0.17007 0.26295 0.08500
C 	C 	0.58210 0.10180 0.26007 -0.14900
C 	C 	0.54890 0.03728 0.22302 0.07700
C 	C 	0.60720 0.05270 0.18597 -0.15700
C 	C 	0.69740 0.12450 0.18686 0.09000
C 	C 	0.32663 0.58513 0.73630 0.32200
C 	C 	0.28402 0.53496 0.78747 -0.02500
C 	C 	0.23339 0.43767 0.78727 -0.13200
C 	C 	0.55555 0.91714 0.64907 0.16000
C 	C 	0.61562 0.01076 0.66182 -0.27500
C 	C 	0.64070 0.03647 0.71342 0.26400
C 	C 	0.60054 0.96528 0.75146 -0.26100
C 	C 	0.53960 0.87619 0.73505 0.15300
C 	C 	0.75149 0.16325 0.76964 0.27800
C 	C 	0.82127 0.26541 0.77185 -0.14500
C 	C 	0.82993 0.32413 0.73705 0.08200
C 	C 	0.89820 0.41790 0.73993 -0.14700
C 	C 	0.96272 0.45110 0.77698 0.07600
C 	C 	0.94730 0.39280 0.81403 -0.15400
C 	C 	0.87550 0.30260 0.81314 0.08700
C 	C 	0.41487 0.74150 0.06963 0.32900
C 	C 	0.46504 0.74906 0.12080 -0.03500
C 	C 	0.56233 0.79572 0.12060 -0.12300
C 	C 	0.08286 0.63841 0.98240 0.18000
C 	C 	0.98924 0.60486 0.99515 -0.21100
C 	C 	0.96353 0.60423 0.04675 0.20300
C 	C 	0.03472 0.63526 0.08479 -0.23600
C 	C 	0.12381 0.66341 0.06838 0.13200
C 	C 	0.83675 0.58824 0.10297 0.27100
C 	C 	0.73459 0.55586 0.10518 -0.14600
C 	C 	0.67587 0.50580 0.07038 0.08100
C 	C 	0.58210 0.48030 0.07326 -0.14900
C 	C 	0.54890 0.51162 0.11031 0.07300
C 	C 	0.60720 0.55450 0.14736 -0.15500
C 	C 	0.69740 0.57290 0.14647 0.08600
C 	C 	0.25850 0.67337 0.40296 0.32300
C 	C 	0.25094 0.71598 0.45413 -0.02800
C 	C 	0.20428 0.76661 0.45393 -0.12900
C 	C 	0.36159 0.44445 0.31573 0.16000
C 	C 	0.39514 0.38438 0.32848 -0.27500
C 	C 	0.39577 0.35930 0.38008 0.26400
C 	C 	0.36474 0.39946 0.41812 -0.26100
C 	C 	0.33659 0.46040 0.40171 0.15300
C 	C 	0.41176 0.24851 0.43630 0.27800
C 	C 	0.44414 0.17873 0.43851 -0.14600
C 	C 	0.49420 0.17007 0.40371 0.08400
C 	C 	0.51970 0.10180 0.40659 -0.14800
C 	C 	0.48838 0.03728 0.44364 0.07600
C 	C 	0.44550 0.05270 0.48069 -0.15600
C 	C 	0.42710 0.12450 0.47980 0.08900
C 	C 	0.67337 0.41487 0.73630 0.32200
C 	C 	0.71598 0.46504 0.78747 -0.02500
C 	C 	0.76661 0.56233 0.78727 -0.13200
C 	C 	0.44445 0.08286 0.64907 0.16000
C 	C 	0.38438 0.98924 0.66182 -0.27500
C 	C 	0.35930 0.96353 0.71342 0.26400
C 	C 	0.39946 0.03472 0.75146 -0.26100
C 	C 	0.46040 0.12381 0.73505 0.15300
C 	C 	0.24851 0.83675 0.76964 0.27800
C 	C 	0.17873 0.73459 0.77185 -0.14500
C 	C 	0.17007 0.67587 0.73705 0.08200
C 	C 	0.10180 0.58210 0.73993 -0.14700
C 	C 	0.03728 0.54890 0.77698 0.07600
C 	C 	0.05270 0.60720 0.81403 -0.15400
C 	C 	0.12450 0.69740 0.81314 0.08700
C 	C 	0.58513 0.25850 0.06963 0.32900
C 	C 	0.53496 0.25094 0.12080 -0.03500
C 	C 	0.43767 0.20428 0.12060 -0.12300
C 	C 	0.91714 0.36159 0.98240 0.18000
C 	C 	0.01076 0.39514 0.99515 -0.21100
C 	C 	0.03647 0.39577 0.04675 0.20300
C 	C 	0.96528 0.36474 0.08479 -0.23600
C 	C 	0.87619 0.33659 0.06838 0.13200
C 	C 	0.16325 0.41176 0.10297 0.27100
C 	C 	0.26541 0.44414 0.10518 -0.14600
C 	C 	0.32413 0.49420 0.07038 0.08100
C 	C 	0.41790 0.51970 0.07326 -0.14900
C 	C 	0.45110 0.48838 0.11031 0.07300
C 	C 	0.39280 0.44550 0.14736 -0.15500
C 	C 	0.30260 0.42710 0.14647 0.08600
C 	C 	0.74150 0.32663 0.40296 0.32300
C 	C 	0.74906 0.28402 0.45413 -0.02800
C 	C 	0.79572 0.23339 0.45393 -0.12900
C 	C 	0.63841 0.55555 0.31573 0.16000
C 	C 	0.60486 0.61562 0.32848 -0.27500
C 	C 	0.60423 0.64070 0.38008 0.26400
C 	C 	0.63526 0.60054 0.41812 -0.26100
C 	C 	0.66341 0.53960 0.40171 0.15300
C 	C 	0.58824 0.75149 0.43630 0.27800
C 	C 	0.55586 0.82127 0.43851 -0.14600
C 	C 	0.50580 0.82993 0.40371 0.08400
C 	C 	0.48030 0.89820 0.40659 -0.14800
C 	C 	0.51162 0.96272 0.44364 0.07600
C 	C 	0.55450 0.94730 0.48069 -0.15600
C 	C 	0.57290 0.87550 0.47980 0.08900
C 	C 	0.70884 0.41768 0.83333 -0.03400
C 	C 	0.80536 0.61072 0.83333 0.15800
C 	C 	0.70884 0.29116 0.50000 -0.03000
C 	C 	0.80536 0.19464 0.50000 0.15300
C 	C 	0.58232 0.29116 0.16667 -0.02500
C 	C 	0.38928 0.19464 0.16667 0.14800
C 	C 	0.29116 0.58232 0.83333 -0.03400
C 	C 	0.19464 0.38928 0.83333 0.15800
C 	C 	0.29116 0.70884 0.50000 -0.03000
C 	C 	0.19464 0.80536 0.50000 0.15300
C 	C 	0.41768 0.70884 0.16667 -0.02500
C 	C 	0.61072 0.80536 0.16667 0.14800
N 	N 	0.66555 0.14901 0.98188 -0.27100
N 	N 	0.57531 0.87226 0.94197 -0.30400
N 	N 	0.48346 0.33445 0.64855 -0.29400
N 	N 	0.29695 0.42469 0.60864 -0.29100
N 	N 	0.85099 0.51654 0.31521 -0.29400
N 	N 	0.12774 0.70305 0.27530 -0.29100
N 	N 	0.33445 0.85099 0.98188 -0.27100
N 	N 	0.42469 0.12774 0.94197 -0.30400
N 	N 	0.51654 0.66555 0.64855 -0.29400
N 	N 	0.70305 0.57531 0.60864 -0.29100
N 	N 	0.14901 0.48346 0.31521 -0.29400
N 	N 	0.87226 0.29695 0.27530 -0.29100
N 	N 	0.51654 0.85099 0.68479 -0.29400
N 	N 	0.70305 0.12774 0.72470 -0.29000
N 	N 	0.14901 0.66555 0.01812 -0.31500
N 	N 	0.87226 0.57531 0.05803 -0.27800
N 	N 	0.33445 0.48346 0.35145 -0.29400
N 	N 	0.42469 0.29695 0.39136 -0.29100
N 	N 	0.48346 0.14901 0.68479 -0.29400
N 	N 	0.29695 0.87226 0.72470 -0.29000
N 	N 	0.85099 0.33445 0.01812 -0.31500
N 	N 	0.12774 0.42469 0.05803 -0.27800
N 	N 	0.66555 0.51654 0.35145 -0.29400
N 	N 	0.57531 0.70305 0.39136 -0.29100
N 	N 	0.85413 0.70826 0.83333 -0.31800
N 	N 	0.85413 0.14588 0.50000 -0.31600
N 	N 	0.29175 0.14588 0.16667 -0.31400
N 	N 	0.14587 0.29174 0.83333 -0.31800
N 	N 	0.14587 0.85412 0.50000 -0.31600
N 	N 	0.70825 0.85412 0.16667 -0.31400
O 	O 	0.70929 0.32993 0.92827 -0.44300
O 	O 	0.76761 0.45995 0.97240 -0.32700
O 	O 	0.62125 0.88483 0.85843 -0.25800
O 	O 	0.62064 0.29071 0.59494 -0.45600
O 	O 	0.69234 0.23239 0.63907 -0.35200
O 	O 	0.26358 0.37875 0.52510 -0.25700
O 	O 	0.67007 0.37936 0.26160 -0.45600
O 	O 	0.54005 0.30766 0.30573 -0.35200
O 	O 	0.11517 0.73642 0.19176 -0.25800
O 	O 	0.29071 0.67007 0.92827 -0.44300
O 	O 	0.23239 0.54005 0.97240 -0.32700
O 	O 	0.37875 0.11517 0.85843 -0.25800
O 	O 	0.37936 0.70929 0.59494 -0.45600
O 	O 	0.30766 0.76761 0.63907 -0.35200
O 	O 	0.73642 0.62125 0.52510 -0.25700
O 	O 	0.32993 0.62064 0.26160 -0.45600
O 	O 	0.45995 0.69234 0.30573 -0.35200
O 	O 	0.88483 0.26358 0.19176 -0.25800
O 	O 	0.37936 0.67007 0.73840 -0.45500
O 	O 	0.30766 0.54005 0.69427 -0.35200
O 	O 	0.73642 0.11517 0.80824 -0.25500
O 	O 	0.32993 0.70929 0.07173 -0.46300
O 	O 	0.45995 0.76761 0.02760 -0.37500
O 	O 	0.88483 0.62125 0.14157 -0.25500
O 	O 	0.29071 0.62064 0.40506 -0.45600
O 	O 	0.23239 0.69234 0.36093 -0.35200
O 	O 	0.37875 0.26358 0.47490 -0.25700
O 	O 	0.62064 0.32993 0.73840 -0.45500
O 	O 	0.69234 0.45995 0.69427 -0.35200
O 	O 	0.26358 0.88483 0.80824 -0.25500
O 	O 	0.67007 0.29071 0.07173 -0.46300
O 	O 	0.54005 0.23239 0.02760 -0.37500
O 	O 	0.11517 0.37875 0.14157 -0.25500
O 	O 	0.70929 0.37936 0.40506 -0.45600
O 	O 	0.76761 0.30766 0.36093 -0.35200
O 	O 	0.62125 0.73642 0.47490 -0.25700
