data_crystal

_cell_length_a 15.48200
_cell_length_b 15.48200
_cell_length_c 40.32000
_cell_angle_alpha 90.00000
_cell_angle_beta  90.00000
_cell_angle_gamma 120.00000

_symmetry_space_group_name_	'P 1'
_symmetry_space_group_name_H-M	'P 1'

loop_
_symmetry_equiv_pos_as_xyz
  x,y,z

loop_
_atom_site_label
_atom_site_type_symbol
_atom_site_fract_x
_atom_site_fract_y
_atom_site_fract_z
_atom_site_charge
O 	O 	0.03340 0.15950 0.07660 -0.41500
O 	O 	0.99730 0.16500 0.12870 -0.43800
O 	O 	0.75060 0.05220 0.12910 -0.41600
O 	O 	0.82850 0.17120 0.16740 -0.44700
C 	C 	0.04890 0.15020 0.10520 0.34800
C 	C 	0.12060 0.12170 0.11780 -0.18600
C 	C 	0.12760 0.10020 0.15080 0.13600
H 	H 	0.09000 0.10950 0.16680 -0.00700
C 	C 	0.19100 0.06480 0.15980 -0.23600
H 	H 	0.19560 0.05040 0.18190 0.12900
C 	C 	0.24730 0.05080 0.13580 0.20500
C 	C 	0.24030 0.07230 0.10280 -0.20500
H 	H 	0.27800 0.06300 0.08670 0.21300
C 	C 	0.17700 0.10780 0.09370 0.12400
H 	H 	0.17230 0.12210 0.07160 0.00400
O 	O 	0.28890 0.96500 0.17730 -0.24200
C 	C 	0.30870 0.00620 0.15000 0.49900
C 	C 	0.39620 0.01200 0.13000 1.92400
C 	C 	0.48930 0.09290 0.12240 2.60200
H 	H 	0.50840 0.15550 0.13120 -0.81400
C 	C 	0.55400 0.08020 0.10180 -3.76800
H 	H 	0.61640 0.13420 0.09680 0.12700
C 	C 	0.52560 0.98700 0.08870 0.16600
C 	C 	0.43200 0.90590 0.09620 0.29800
H 	H 	0.41340 0.84330 0.08750 0.01200
C 	C 	0.36770 0.91860 0.11680 1.19600
H 	H 	0.30540 0.86460 0.12190 -0.24100
C 	C 	0.60340 0.98070 0.06680 -0.06100
O 	O 	0.57160 0.89670 0.05540 -0.22300
O 	O 	0.68600 0.05480 0.06260 -0.20800
O 	O 	0.27810 0.92410 0.15710 -0.18100
C 	C 	0.30540 0.99490 0.13710 -0.52200
C 	C 	0.39530 0.02340 0.11470 -2.89200
C 	C 	0.45890 0.12440 0.10870 -0.59500
H 	H 	0.44060 0.17060 0.11530 0.32900
C 	C 	0.55000 0.15630 0.09310 0.28800
H 	H 	0.59260 0.22390 0.08920 -0.07800
C 	C 	0.57750 0.08730 0.08340 3.07300
C 	C 	0.51390 0.98630 0.08930 -0.02100
H 	H 	0.53220 0.94010 0.08280 -0.04300
C 	C 	0.42280 0.95430 0.10490 0.05400
H 	H 	0.38020 0.88670 0.10890 -0.72300
C 	C 	0.68190 0.11780 0.07000 -0.76300
O 	O 	0.68400 0.04540 0.05860 0.06800
O 	O 	0.74050 0.20700 0.07360 -0.02600
C 	C 	0.75600 0.08800 0.15690 0.42200
C 	C 	0.67640 0.03250 0.18290 -0.18800
C 	C 	0.68430 0.07170 0.21450 0.10200
H 	H 	0.74090 0.13110 0.22040 0.01300
C 	C 	0.60760 0.02200 0.23730 -0.20400
H 	H 	0.61290 0.04830 0.25840 0.09100
C 	C 	0.52300 0.93320 0.22850 0.12600
C 	C 	0.51510 0.89400 0.19690 -0.19600
H 	H 	0.45850 0.83450 0.19100 0.10200
C 	C 	0.59180 0.94360 0.17410 0.11700
H 	H 	0.58650 0.91740 0.15300 0.01500
N 	N 	0.09460 0.49920 0.17010 -0.18900
C 	C 	0.19820 0.54820 0.17110 -0.03200
H 	H 	0.23100 0.51170 0.17140 0.05100
C 	C 	0.25280 0.65180 0.17170 0.00100
H 	H 	0.32210 0.68460 0.17230 0.03800
C 	C 	0.20380 0.70640 0.17130 -0.14300
H 	H 	0.24030 0.77580 0.17170 0.10700
C 	C 	0.10020 0.65740 0.17030 0.14800
C 	C 	0.04560 0.55380 0.16970 -0.11000
C 	C 	0.04640 0.70800 0.16980 -0.22400
H 	H 	0.07890 0.77610 0.17410 0.13900
O 	O 	0.84050 0.87390 0.74327 -0.38700
O 	O 	0.83500 0.83230 0.79537 -0.45900
O 	O 	0.94780 0.69840 0.79577 -0.38700
O 	O 	0.82880 0.65730 0.83407 -0.44300
C 	C 	0.84980 0.89870 0.77187 0.33800
C 	C 	0.87830 0.99890 0.78447 -0.06700
C 	C 	0.89980 0.02740 0.81747 -0.01600
H 	H 	0.89050 0.98050 0.83347 0.06500
C 	C 	0.93520 0.12620 0.82647 -0.12900
H 	H 	0.94960 0.14520 0.84857 0.10400
C 	C 	0.94920 0.19650 0.80247 0.15900
C 	C 	0.92770 0.16800 0.76947 -0.14800
H 	H 	0.93700 0.21500 0.75337 0.18300
C 	C 	0.89220 0.06920 0.76037 0.03400
H 	H 	0.87790 0.05020 0.73827 0.03300
O 	O 	0.03500 0.32390 0.84397 -0.15600
C 	C 	0.99380 0.30250 0.81667 0.09200
C 	C 	0.98800 0.38420 0.79667 1.67200
C 	C 	0.90710 0.39640 0.78907 2.35000
H 	H 	0.84450 0.35290 0.79787 -0.71500
C 	C 	0.91980 0.47380 0.76847 -3.29600
H 	H 	0.86580 0.48220 0.76347 0.08400
C 	C 	0.01300 0.53860 0.75537 0.09800
C 	C 	0.09410 0.52610 0.76287 0.38200
H 	H 	0.15670 0.57010 0.75417 -0.03200
C 	C 	0.08140 0.44910 0.78347 0.98700
H 	H 	0.13540 0.44080 0.78857 -0.19600
C 	C 	0.01930 0.62270 0.73347 -0.09300
O 	O 	0.10330 0.67490 0.72207 -0.22700
O 	O 	0.94520 0.63120 0.72927 -0.18400
O 	O 	0.07590 0.35400 0.82377 -0.20700
C 	C 	0.00510 0.31050 0.80377 -0.10700
C 	C 	0.97660 0.37190 0.78137 -2.49700
C 	C 	0.87560 0.33450 0.77537 -0.59000
H 	H 	0.82940 0.27000 0.78197 0.31900
C 	C 	0.84370 0.39370 0.75977 0.22900
H 	H 	0.77610 0.36870 0.75587 -0.05000
C 	C 	0.91270 0.49020 0.75007 2.78400
C 	C 	0.01370 0.52760 0.75597 -0.07900
H 	H 	0.05990 0.59210 0.74947 0.00400
C 	C 	0.04570 0.46850 0.77157 -0.03500
H 	H 	0.11330 0.49350 0.77557 -0.62000
C 	C 	0.88220 0.56410 0.73667 -0.65700
O 	O 	0.95460 0.63860 0.72527 0.04800
O 	O 	0.79300 0.53350 0.74027 -0.06300
C 	C 	0.91200 0.66800 0.82357 0.37300
C 	C 	0.96750 0.64390 0.84957 -0.02600
C 	C 	0.92830 0.61260 0.88117 -0.05000
H 	H 	0.86890 0.60980 0.88707 0.06700
C 	C 	0.97800 0.58560 0.90397 0.00800
H 	H 	0.95170 0.56460 0.92507 0.03400
C 	C 	0.06680 0.58980 0.89517 -0.06700
C 	C 	0.10600 0.62110 0.86357 -0.03000
H 	H 	0.16550 0.62400 0.85767 0.04400
C 	C 	0.05640 0.64820 0.84077 -0.07900
H 	H 	0.08260 0.66910 0.81967 0.07200
N 	N 	0.50080 0.59540 0.83677 -0.20600
C 	C 	0.45180 0.65000 0.83777 -0.00300
H 	H 	0.48830 0.71930 0.83807 0.04000
C 	C 	0.34820 0.60100 0.83837 -0.04900
H 	H 	0.31540 0.63750 0.83897 0.05800
C 	C 	0.29360 0.49740 0.83797 -0.06700
H 	H 	0.22420 0.46450 0.83837 0.07800
C 	C 	0.34260 0.44280 0.83697 0.03700
C 	C 	0.44620 0.49180 0.83637 -0.00400
C 	C 	0.29200 0.33840 0.83647 -0.04400
H 	H 	0.22390 0.30280 0.84077 0.07300
O 	O 	0.12610 0.96660 0.40993 -0.41900
O 	O 	0.16770 0.00270 0.46203 -0.50100
O 	O 	0.30160 0.24940 0.46243 -0.40100
O 	O 	0.34270 0.17150 0.50073 -0.44900
C 	C 	0.10130 0.95110 0.43853 0.45300
C 	C 	0.00110 0.87940 0.45113 -0.33900
C 	C 	0.97260 0.87240 0.48413 0.33400
H 	H 	0.01950 0.91000 0.50013 -0.07900
C 	C 	0.87380 0.80900 0.49313 -0.34600
H 	H 	0.85480 0.80440 0.51523 0.18200
C 	C 	0.80350 0.75270 0.46913 0.29100
C 	C 	0.83200 0.75970 0.43613 -0.30600
H 	H 	0.78500 0.72200 0.42003 0.24700
C 	C 	0.93080 0.82300 0.42703 0.27100
H 	H 	0.94980 0.82770 0.40493 -0.03100
O 	O 	0.67610 0.71110 0.51063 -0.19700
C 	C 	0.69750 0.69130 0.48333 0.27600
C 	C 	0.61580 0.60380 0.46333 1.79100
C 	C 	0.60360 0.51070 0.45573 2.47200
H 	H 	0.64710 0.49160 0.46453 -0.76000
C 	C 	0.52620 0.44600 0.43513 -3.52200
H 	H 	0.51780 0.38360 0.43013 0.10600
C 	C 	0.46140 0.47440 0.42203 0.13400
C 	C 	0.47390 0.56800 0.42953 0.34200
H 	H 	0.42990 0.58660 0.42083 -0.01100
C 	C 	0.55090 0.63230 0.45013 1.08100
H 	H 	0.55920 0.69460 0.45523 -0.21400
C 	C 	0.37730 0.39660 0.40013 -0.07500
O 	O 	0.32510 0.42840 0.38873 -0.22600
O 	O 	0.36880 0.31400 0.39593 -0.19800
O 	O 	0.64600 0.72190 0.49043 -0.17900
C 	C 	0.68950 0.69460 0.47043 -0.32700
C 	C 	0.62810 0.60470 0.44803 -2.67000
C 	C 	0.66550 0.54110 0.44203 -0.61000
H 	H 	0.73000 0.55940 0.44863 0.33000
C 	C 	0.60630 0.45000 0.42643 0.26800
H 	H 	0.63130 0.40740 0.42253 -0.06900
C 	C 	0.50980 0.42250 0.41673 2.91200
C 	C 	0.47240 0.48610 0.42263 -0.04800
H 	H 	0.40790 0.46780 0.41613 -0.02100
C 	C 	0.53150 0.57720 0.43823 0.00300
H 	H 	0.50650 0.61980 0.44223 -0.66400
C 	C 	0.43590 0.31810 0.40333 -0.69900
O 	O 	0.36140 0.31600 0.39193 0.05500
O 	O 	0.46650 0.25950 0.40693 -0.05600
C 	C 	0.33200 0.24400 0.49023 0.39800
C 	C 	0.35610 0.32360 0.51623 -0.10700
C 	C 	0.38740 0.31570 0.54783 0.02500
H 	H 	0.39020 0.25910 0.55373 0.03900
C 	C 	0.41440 0.39240 0.57063 -0.09600
H 	H 	0.43540 0.38710 0.59173 0.06200
C 	C 	0.41020 0.47700 0.56183 0.02800
C 	C 	0.37890 0.48490 0.53023 -0.11100
H 	H 	0.37600 0.54150 0.52433 0.07200
C 	C 	0.35180 0.40820 0.50743 0.01700
H 	H 	0.33090 0.41350 0.48633 0.04200
N 	N 	0.40460 0.90540 0.50343 -0.21900
C 	C 	0.35000 0.80180 0.50443 0.02600
H 	H 	0.28070 0.76900 0.50473 0.03200
C 	C 	0.39900 0.74720 0.50503 -0.09500
H 	H 	0.36250 0.67790 0.50563 0.07300
C 	C 	0.50260 0.79620 0.50463 0.00700
H 	H 	0.53550 0.75970 0.50503 0.05300
C 	C 	0.55720 0.89980 0.50363 -0.07000
C 	C 	0.50820 0.95440 0.50303 0.10100
C 	C 	0.66160 0.95360 0.50313 0.13500
H 	H 	0.69720 0.92110 0.50743 0.02200
O 	O 	0.96660 0.84050 0.57660 -0.39800
O 	O 	0.00270 0.83500 0.62870 -0.49200
O 	O 	0.24940 0.94780 0.62910 -0.38700
O 	O 	0.17150 0.82880 0.66740 -0.44300
C 	C 	0.95110 0.84980 0.60520 0.40900
C 	C 	0.87940 0.87830 0.61780 -0.20100
C 	C 	0.87240 0.89980 0.65080 0.15900
H 	H 	0.91000 0.89050 0.66680 -0.00300
C 	C 	0.80900 0.93520 0.65980 -0.23200
H 	H 	0.80440 0.94960 0.68190 0.14500
C 	C 	0.75270 0.94920 0.63580 0.22800
C 	C 	0.75970 0.92770 0.60280 -0.23000
H 	H 	0.72200 0.93700 0.58670 0.21400
C 	C 	0.82300 0.89220 0.59370 0.15600
H 	H 	0.82770 0.87790 0.57160 0.00200
O 	O 	0.71110 0.03500 0.67730 -0.15600
C 	C 	0.69130 0.99380 0.65000 0.08500
C 	C 	0.60380 0.98800 0.63000 1.67000
C 	C 	0.51070 0.90710 0.62240 2.34900
H 	H 	0.49160 0.84450 0.63120 -0.71300
C 	C 	0.44600 0.91980 0.60180 -3.29400
H 	H 	0.38360 0.86580 0.59680 0.08500
C 	C 	0.47440 0.01300 0.58870 0.09900
C 	C 	0.56800 0.09410 0.59620 0.38200
H 	H 	0.58660 0.15670 0.58750 -0.03200
C 	C 	0.63230 0.08140 0.61680 0.98300
H 	H 	0.69460 0.13540 0.62190 -0.19400
C 	C 	0.39660 0.01930 0.56680 -0.09100
O 	O 	0.42840 0.10330 0.55540 -0.22700
O 	O 	0.31400 0.94520 0.56260 -0.18400
O 	O 	0.72190 0.07590 0.65710 -0.19700
C 	C 	0.69460 0.00510 0.63710 -0.12000
C 	C 	0.60470 0.97660 0.61470 -2.48600
C 	C 	0.54110 0.87560 0.60870 -0.60100
H 	H 	0.55940 0.82940 0.61530 0.32200
C 	C 	0.45000 0.84370 0.59310 0.23600
H 	H 	0.40740 0.77610 0.58920 -0.05300
C 	C 	0.42250 0.91270 0.58340 2.77700
C 	C 	0.48610 0.01370 0.58930 -0.07700
H 	H 	0.46780 0.05990 0.58280 0.00200
C 	C 	0.57720 0.04570 0.60490 -0.03900
H 	H 	0.61980 0.11330 0.60890 -0.61600
C 	C 	0.31810 0.88220 0.57000 -0.65100
O 	O 	0.31600 0.95460 0.55860 0.04600
O 	O 	0.25950 0.79300 0.57360 -0.07100
C 	C 	0.24400 0.91200 0.65690 0.37300
C 	C 	0.32360 0.96750 0.68290 -0.02800
C 	C 	0.31570 0.92830 0.71450 -0.04800
H 	H 	0.25910 0.86890 0.72040 0.06500
C 	C 	0.39240 0.97800 0.73730 0.00600
H 	H 	0.38710 0.95170 0.75840 0.03400
C 	C 	0.47700 0.06680 0.72850 -0.06500
C 	C 	0.48490 0.10600 0.69690 -0.03100
H 	H 	0.54150 0.16550 0.69100 0.04400
C 	C 	0.40820 0.05640 0.67410 -0.07700
H 	H 	0.41350 0.08260 0.65300 0.07000
N 	N 	0.90540 0.50080 0.67010 -0.21900
C 	C 	0.80180 0.45180 0.67110 0.02600
H 	H 	0.76900 0.48830 0.67140 0.03200
C 	C 	0.74720 0.34820 0.67170 -0.09700
H 	H 	0.67790 0.31540 0.67230 0.07500
C 	C 	0.79620 0.29360 0.67130 0.00900
H 	H 	0.75970 0.22420 0.67170 0.05100
C 	C 	0.89980 0.34260 0.67030 -0.07300
C 	C 	0.95440 0.44620 0.66970 0.10200
C 	C 	0.95360 0.29200 0.66980 0.13700
H 	H 	0.92110 0.22390 0.67410 0.01600
O 	O 	0.15950 0.12610 0.24327 -0.42700
O 	O 	0.16500 0.16770 0.29537 -0.47600
O 	O 	0.05220 0.30160 0.29577 -0.41600
O 	O 	0.17120 0.34270 0.33407 -0.45400
C 	C 	0.15020 0.10130 0.27187 0.42300
C 	C 	0.12170 0.00110 0.28447 -0.32900
C 	C 	0.10020 0.97260 0.31747 0.32100
H 	H 	0.10950 0.01950 0.33347 -0.08000
C 	C 	0.06480 0.87380 0.32647 -0.34700
H 	H 	0.05040 0.85480 0.34857 0.17300
C 	C 	0.05080 0.80350 0.30247 0.27800
C 	C 	0.07230 0.83200 0.26947 -0.29300
H 	H 	0.06300 0.78500 0.25337 0.24600
C 	C 	0.10780 0.93080 0.26037 0.25300
H 	H 	0.12210 0.94980 0.23827 -0.02900
O 	O 	0.96500 0.67610 0.34397 -0.24100
C 	C 	0.00620 0.69750 0.31667 0.48900
C 	C 	0.01200 0.61580 0.29667 1.91800
C 	C 	0.09290 0.60360 0.28907 2.59600
H 	H 	0.15550 0.64710 0.29787 -0.81000
C 	C 	0.08020 0.52620 0.26847 -3.75900
H 	H 	0.13420 0.51780 0.26347 0.12700
C 	C 	0.98700 0.46140 0.25537 0.16800
C 	C 	0.90590 0.47390 0.26287 0.29900
H 	H 	0.84330 0.42990 0.25417 0.01200
C 	C 	0.91860 0.55090 0.28347 1.18900
H 	H 	0.86460 0.55920 0.28857 -0.23700
C 	C 	0.98070 0.37730 0.23347 -0.05900
O 	O 	0.89670 0.32510 0.22207 -0.22200
O 	O 	0.05480 0.36880 0.22927 -0.20800
O 	O 	0.92410 0.64600 0.32377 -0.17100
C 	C 	0.99490 0.68950 0.30377 -0.53400
C 	C 	0.02340 0.62810 0.28137 -2.87400
C 	C 	0.12440 0.66550 0.27537 -0.60500
H 	H 	0.17060 0.73000 0.28197 0.33300
C 	C 	0.15630 0.60630 0.25977 0.29400
H 	H 	0.22390 0.63130 0.25587 -0.08100
C 	C 	0.08730 0.50980 0.25007 3.06000
C 	C 	0.98630 0.47240 0.25597 -0.01900
H 	H 	0.94010 0.40790 0.24947 -0.04400
C 	C 	0.95430 0.53150 0.27157 0.05000
H 	H 	0.88670 0.50650 0.27557 -0.71800
C 	C 	0.11780 0.43590 0.23667 -0.75600
O 	O 	0.04540 0.36140 0.22527 0.06600
O 	O 	0.20700 0.46650 0.24027 -0.03300
C 	C 	0.08800 0.33200 0.32357 0.42400
C 	C 	0.03250 0.35610 0.34957 -0.19100
C 	C 	0.07170 0.38740 0.38117 0.10400
H 	H 	0.13110 0.39020 0.38707 0.01100
C 	C 	0.02200 0.41440 0.40397 -0.20600
H 	H 	0.04830 0.43540 0.42507 0.09200
C 	C 	0.93320 0.41020 0.39517 0.12800
C 	C 	0.89400 0.37890 0.36357 -0.19800
H 	H 	0.83450 0.37600 0.35767 0.10300
C 	C 	0.94360 0.35180 0.34077 0.11900
H 	H 	0.91740 0.33090 0.31967 0.01300
N 	N 	0.49920 0.40460 0.33677 -0.20600
C 	C 	0.54820 0.35000 0.33777 -0.00300
H 	H 	0.51170 0.28070 0.33807 0.04100
C 	C 	0.65180 0.39900 0.33837 -0.04700
H 	H 	0.68460 0.36250 0.33897 0.05500
C 	C 	0.70640 0.50260 0.33797 -0.06800
H 	H 	0.77580 0.53550 0.33837 0.08100
C 	C 	0.65740 0.55720 0.33697 0.04000
C 	C 	0.55380 0.50820 0.33637 -0.00400
C 	C 	0.70800 0.66160 0.33647 -0.04400
H 	H 	0.77610 0.69720 0.34077 0.08300
O 	O 	0.87390 0.03340 0.90993 -0.39400
O 	O 	0.83230 0.99730 0.96203 -0.42800
O 	O 	0.69840 0.75060 0.96243 -0.40200
O 	O 	0.65730 0.82850 0.00073 -0.44600
C 	C 	0.89870 0.04890 0.93853 0.30700
C 	C 	0.99890 0.12060 0.95113 -0.05700
C 	C 	0.02740 0.12760 0.98413 -0.02500
H 	H 	0.98050 0.09000 0.00013 0.06000
C 	C 	0.12620 0.19100 0.99313 -0.12300
H 	H 	0.14520 0.19560 0.01523 0.09100
C 	C 	0.19650 0.24730 0.96913 0.14400
C 	C 	0.16800 0.24030 0.93613 -0.13400
H 	H 	0.21500 0.27800 0.92003 0.18200
C 	C 	0.06920 0.17700 0.92703 0.01600
H 	H 	0.05020 0.17230 0.90493 0.03500
O 	O 	0.32390 0.28890 0.01063 -0.20300
C 	C 	0.30250 0.30870 0.98333 0.29200
C 	C 	0.38420 0.39620 0.96333 1.79400
C 	C 	0.39640 0.48930 0.95573 2.47400
H 	H 	0.35290 0.50840 0.96453 -0.76300
C 	C 	0.47380 0.55400 0.93513 -3.52500
H 	H 	0.48220 0.61640 0.93013 0.10600
C 	C 	0.53860 0.52560 0.92203 0.13100
C 	C 	0.52610 0.43200 0.92953 0.34000
H 	H 	0.57010 0.41340 0.92083 -0.00900
C 	C 	0.44910 0.36770 0.95013 1.09200
H 	H 	0.44080 0.30540 0.95523 -0.21900
C 	C 	0.62270 0.60340 0.90013 -0.07600
O 	O 	0.67490 0.57160 0.88873 -0.22700
O 	O 	0.63120 0.68600 0.89593 -0.19800
O 	O 	0.35400 0.27810 0.99043 -0.19500
C 	C 	0.31050 0.30540 0.97043 -0.29900
C 	C 	0.37190 0.39530 0.94803 -2.69500
C 	C 	0.33450 0.45890 0.94203 -0.58900
H 	H 	0.27000 0.44060 0.94863 0.32300
C 	C 	0.39370 0.55000 0.92643 0.25500
H 	H 	0.36870 0.59260 0.92253 -0.06200
C 	C 	0.49020 0.57750 0.91673 2.92400
C 	C 	0.52760 0.51390 0.92263 -0.05000
H 	H 	0.59210 0.53220 0.91613 -0.01900
C 	C 	0.46850 0.42280 0.93823 0.01000
H 	H 	0.49350 0.38020 0.94223 -0.67200
C 	C 	0.56410 0.68190 0.90333 -0.70900
O 	O 	0.63860 0.68400 0.89193 0.05800
O 	O 	0.53350 0.74050 0.90693 -0.04300
C 	C 	0.66800 0.75600 0.99023 0.40300
C 	C 	0.64390 0.67640 0.01623 -0.10600
C 	C 	0.61260 0.68430 0.04783 0.02400
H 	H 	0.60980 0.74090 0.05373 0.04100
C 	C 	0.58560 0.60760 0.07063 -0.09500
H 	H 	0.56460 0.61290 0.09173 0.06100
C 	C 	0.58980 0.52300 0.06183 0.02600
C 	C 	0.62110 0.51510 0.03023 -0.10700
H 	H 	0.62400 0.45850 0.02433 0.07100
C 	C 	0.64820 0.59180 0.00743 0.00900
H 	H 	0.66910 0.58650 0.98633 0.05000
N 	N 	0.59540 0.09460 0.00343 -0.18700
C 	C 	0.65000 0.19820 0.00443 -0.03600
H 	H 	0.71930 0.23100 0.00473 0.05000
C 	C 	0.60100 0.25280 0.00503 0.00600
H 	H 	0.63750 0.32210 0.00563 0.03700
C 	C 	0.49740 0.20380 0.00463 -0.15200
H 	H 	0.46450 0.24030 0.00503 0.10800
C 	C 	0.44280 0.10020 0.00363 0.16000
C 	C 	0.49180 0.04560 0.00303 -0.12300
C 	C 	0.33840 0.04640 0.00313 -0.24700
H 	H 	0.30280 0.07890 0.00743 0.14100
O 	O 	0.15950 0.03340 0.59007 -0.41400
O 	O 	0.16500 0.99730 0.53797 -0.43700
O 	O 	0.05220 0.75060 0.53757 -0.41600
O 	O 	0.17120 0.82850 0.49927 -0.44800
C 	C 	0.15020 0.04890 0.56147 0.34800
C 	C 	0.12170 0.12060 0.54887 -0.18600
C 	C 	0.10020 0.12760 0.51587 0.13600
H 	H 	0.10950 0.09000 0.49987 -0.00700
C 	C 	0.06480 0.19100 0.50687 -0.23700
H 	H 	0.05040 0.19560 0.48477 0.12900
C 	C 	0.05080 0.24730 0.53087 0.20400
C 	C 	0.07230 0.24030 0.56387 -0.20500
H 	H 	0.06300 0.27800 0.57997 0.21300
C 	C 	0.10780 0.17700 0.57297 0.12400
H 	H 	0.12210 0.17230 0.59507 0.00400
O 	O 	0.96500 0.28890 0.48937 -0.24200
C 	C 	0.00620 0.30870 0.51667 0.50200
C 	C 	0.01200 0.39620 0.53667 1.92600
C 	C 	0.09290 0.48930 0.54427 2.60400
H 	H 	0.15550 0.50840 0.53547 -0.81400
C 	C 	0.08020 0.55400 0.56487 -3.77200
H 	H 	0.13420 0.61640 0.56987 0.12800
C 	C 	0.98700 0.52560 0.57797 0.16700
C 	C 	0.90590 0.43200 0.57047 0.29800
H 	H 	0.84330 0.41340 0.57917 0.01200
C 	C 	0.91860 0.36770 0.54987 1.19700
H 	H 	0.86460 0.30540 0.54477 -0.24100
C 	C 	0.98070 0.60340 0.59987 -0.06100
O 	O 	0.89670 0.57160 0.61127 -0.22200
O 	O 	0.05480 0.68600 0.60407 -0.20800
O 	O 	0.92410 0.27810 0.50957 -0.18100
C 	C 	0.99490 0.30540 0.52957 -0.52500
C 	C 	0.02340 0.39530 0.55197 -2.89500
C 	C 	0.12440 0.45890 0.55797 -0.59500
H 	H 	0.17060 0.44060 0.55137 0.32900
C 	C 	0.15630 0.55000 0.57357 0.28800
H 	H 	0.22390 0.59260 0.57747 -0.07800
C 	C 	0.08730 0.57750 0.58327 3.07600
C 	C 	0.98630 0.51390 0.57737 -0.02100
H 	H 	0.94010 0.53220 0.58387 -0.04300
C 	C 	0.95430 0.42280 0.56177 0.05500
H 	H 	0.88670 0.38020 0.55777 -0.72400
C 	C 	0.11780 0.68190 0.59667 -0.76400
O 	O 	0.04540 0.68400 0.60807 0.06900
O 	O 	0.20700 0.74050 0.59307 -0.02600
C 	C 	0.08800 0.75600 0.50977 0.42200
C 	C 	0.03250 0.67640 0.48377 -0.18900
C 	C 	0.07170 0.68430 0.45217 0.10300
H 	H 	0.13110 0.74090 0.44627 0.01200
C 	C 	0.02200 0.60760 0.42937 -0.20500
H 	H 	0.04830 0.61290 0.40827 0.09200
C 	C 	0.93320 0.52300 0.43817 0.12800
C 	C 	0.89400 0.51510 0.46977 -0.19700
H 	H 	0.83450 0.45850 0.47567 0.10300
C 	C 	0.94360 0.59180 0.49257 0.11800
H 	H 	0.91740 0.58650 0.51367 0.01400
N 	N 	0.49920 0.09460 0.49657 -0.18900
C 	C 	0.54820 0.19820 0.49557 -0.03200
H 	H 	0.51170 0.23100 0.49527 0.05100
C 	C 	0.65180 0.25280 0.49497 0.00100
H 	H 	0.68460 0.32210 0.49437 0.03800
C 	C 	0.70640 0.20380 0.49537 -0.14300
H 	H 	0.77580 0.24030 0.49497 0.10700
C 	C 	0.65740 0.10020 0.49637 0.14700
C 	C 	0.55380 0.04560 0.49697 -0.10900
C 	C 	0.70800 0.04640 0.49687 -0.22300
H 	H 	0.77610 0.07890 0.49257 0.13900
O 	O 	0.87390 0.84050 0.92340 -0.38700
O 	O 	0.83230 0.83500 0.87130 -0.45800
O 	O 	0.69840 0.94780 0.87090 -0.38800
O 	O 	0.65730 0.82880 0.83260 -0.44300
C 	C 	0.89870 0.84980 0.89480 0.33600
C 	C 	0.99890 0.87830 0.88220 -0.06300
C 	C 	0.02740 0.89980 0.84920 -0.02000
H 	H 	0.98050 0.89050 0.83320 0.06600
C 	C 	0.12620 0.93520 0.84020 -0.12600
H 	H 	0.14520 0.94960 0.81810 0.10300
C 	C 	0.19650 0.94920 0.86420 0.15700
C 	C 	0.16800 0.92770 0.89720 -0.14500
H 	H 	0.21500 0.93700 0.91330 0.18300
C 	C 	0.06920 0.89220 0.90630 0.03100
H 	H 	0.05020 0.87790 0.92840 0.03400
O 	O 	0.32390 0.03500 0.82270 -0.15800
C 	C 	0.30250 0.99380 0.85000 0.09700
C 	C 	0.38420 0.98800 0.87000 1.67500
C 	C 	0.39640 0.90710 0.87760 2.35200
H 	H 	0.35290 0.84450 0.86880 -0.71600
C 	C 	0.47380 0.91980 0.89820 -3.30100
H 	H 	0.48220 0.86580 0.90320 0.08500
C 	C 	0.53860 0.01300 0.91130 0.09800
C 	C 	0.52610 0.09410 0.90380 0.38100
H 	H 	0.57010 0.15670 0.91250 -0.03100
C 	C 	0.44910 0.08140 0.88320 0.99000
H 	H 	0.44080 0.13540 0.87810 -0.19700
C 	C 	0.62270 0.01930 0.93320 -0.09200
O 	O 	0.67490 0.10330 0.94460 -0.22600
O 	O 	0.63120 0.94520 0.93740 -0.18400
O 	O 	0.35400 0.07590 0.84290 -0.20700
C 	C 	0.31050 0.00510 0.86290 -0.11200
C 	C 	0.37190 0.97660 0.88530 -2.50200
C 	C 	0.33450 0.87560 0.89130 -0.59000
H 	H 	0.27000 0.82940 0.88470 0.31900
C 	C 	0.39370 0.84370 0.90690 0.22900
H 	H 	0.36870 0.77610 0.91080 -0.05000
C 	C 	0.49020 0.91270 0.91660 2.78700
C 	C 	0.52760 0.01370 0.91070 -0.07800
H 	H 	0.59210 0.05990 0.91720 0.00300
C 	C 	0.46850 0.04570 0.89510 -0.03400
H 	H 	0.49350 0.11330 0.89110 -0.62100
C 	C 	0.56410 0.88220 0.93000 -0.65800
O 	O 	0.63860 0.95460 0.94140 0.04800
O 	O 	0.53350 0.79300 0.92640 -0.06200
C 	C 	0.66800 0.91200 0.84310 0.37400
C 	C 	0.64390 0.96750 0.81710 -0.02800
C 	C 	0.61260 0.92830 0.78550 -0.04800
H 	H 	0.60980 0.86890 0.77960 0.06600
C 	C 	0.58560 0.97800 0.76270 0.00600
H 	H 	0.56460 0.95170 0.74160 0.03400
C 	C 	0.58980 0.06680 0.77150 -0.06500
C 	C 	0.62110 0.10600 0.80310 -0.03100
H 	H 	0.62400 0.16550 0.80900 0.04400
C 	C 	0.64820 0.05640 0.82590 -0.07700
H 	H 	0.66910 0.08260 0.84700 0.07100
N 	N 	0.59540 0.50080 0.82990 -0.20600
C 	C 	0.65000 0.45180 0.82890 -0.00300
H 	H 	0.71930 0.48830 0.82860 0.04000
C 	C 	0.60100 0.34820 0.82830 -0.04900
H 	H 	0.63750 0.31540 0.82770 0.05800
C 	C 	0.49740 0.29360 0.82870 -0.06800
H 	H 	0.46450 0.22420 0.82830 0.07800
C 	C 	0.44280 0.34260 0.82970 0.03700
C 	C 	0.49180 0.44620 0.83030 -0.00400
C 	C 	0.33840 0.29200 0.83020 -0.04400
H 	H 	0.30280 0.22390 0.82590 0.07300
O 	O 	0.96660 0.12610 0.25673 -0.41800
O 	O 	0.00270 0.16770 0.20463 -0.50100
O 	O 	0.24940 0.30160 0.20423 -0.40100
O 	O 	0.17150 0.34270 0.16593 -0.44900
C 	C 	0.95110 0.10130 0.22813 0.45300
C 	C 	0.87940 0.00110 0.21553 -0.33700
C 	C 	0.87240 0.97260 0.18253 0.33200
H 	H 	0.91000 0.01950 0.16653 -0.07800
C 	C 	0.80900 0.87380 0.17353 -0.34500
H 	H 	0.80440 0.85480 0.15143 0.18100
C 	C 	0.75270 0.80350 0.19753 0.29000
C 	C 	0.75970 0.83200 0.23053 -0.30500
H 	H 	0.72200 0.78500 0.24663 0.24600
C 	C 	0.82300 0.93080 0.23963 0.27000
H 	H 	0.82770 0.94980 0.26173 -0.03100
O 	O 	0.71110 0.67610 0.15603 -0.19700
C 	C 	0.69130 0.69750 0.18333 0.27600
C 	C 	0.60380 0.61580 0.20333 1.79100
C 	C 	0.51070 0.60360 0.21093 2.47200
H 	H 	0.49160 0.64710 0.20213 -0.76000
C 	C 	0.44600 0.52620 0.23153 -3.52300
H 	H 	0.38360 0.51780 0.23653 0.10600
C 	C 	0.47440 0.46140 0.24463 0.13400
C 	C 	0.56800 0.47390 0.23713 0.34200
H 	H 	0.58660 0.42990 0.24583 -0.01100
C 	C 	0.63230 0.55090 0.21653 1.08200
H 	H 	0.69460 0.55920 0.21143 -0.21400
C 	C 	0.39660 0.37730 0.26653 -0.07500
O 	O 	0.42840 0.32510 0.27793 -0.22600
O 	O 	0.31400 0.36880 0.27073 -0.19800
O 	O 	0.72190 0.64600 0.17623 -0.17900
C 	C 	0.69460 0.68950 0.19623 -0.32700
C 	C 	0.60470 0.62810 0.21863 -2.67100
C 	C 	0.54110 0.66550 0.22463 -0.61000
H 	H 	0.55940 0.73000 0.21803 0.33000
C 	C 	0.45000 0.60630 0.24023 0.26800
H 	H 	0.40740 0.63130 0.24413 -0.06900
C 	C 	0.42250 0.50980 0.24993 2.91300
C 	C 	0.48610 0.47240 0.24403 -0.04800
H 	H 	0.46780 0.40790 0.25053 -0.02100
C 	C 	0.57720 0.53150 0.22843 0.00300
H 	H 	0.61980 0.50650 0.22443 -0.66500
C 	C 	0.31810 0.43590 0.26333 -0.70000
O 	O 	0.31600 0.36140 0.27473 0.05500
O 	O 	0.25950 0.46650 0.25973 -0.05600
C 	C 	0.24400 0.33200 0.17643 0.39800
C 	C 	0.32360 0.35610 0.15043 -0.10700
C 	C 	0.31570 0.38740 0.11883 0.02500
H 	H 	0.25910 0.39020 0.11293 0.03900
C 	C 	0.39240 0.41440 0.09603 -0.09600
H 	H 	0.38710 0.43540 0.07493 0.06100
C 	C 	0.47700 0.41020 0.10483 0.02800
C 	C 	0.48490 0.37890 0.13643 -0.11100
H 	H 	0.54150 0.37600 0.14233 0.07200
C 	C 	0.40820 0.35180 0.15923 0.01700
H 	H 	0.41350 0.33090 0.18033 0.04200
N 	N 	0.90540 0.40460 0.16323 -0.21900
C 	C 	0.80180 0.35000 0.16223 0.02600
H 	H 	0.76900 0.28070 0.16193 0.03200
C 	C 	0.74720 0.39900 0.16163 -0.09600
H 	H 	0.67790 0.36250 0.16103 0.07300
C 	C 	0.79620 0.50260 0.16203 0.00800
H 	H 	0.75970 0.53550 0.16163 0.05300
C 	C 	0.89980 0.55720 0.16303 -0.07100
C 	C 	0.95440 0.50820 0.16363 0.10100
C 	C 	0.95360 0.66160 0.16353 0.13600
H 	H 	0.92110 0.69720 0.15923 0.02100
O 	O 	0.84050 0.96660 0.09007 -0.39800
O 	O 	0.83500 0.00270 0.03797 -0.49200
O 	O 	0.94780 0.24940 0.03757 -0.38500
O 	O 	0.82880 0.17150 0.99927 -0.43700
C 	C 	0.84980 0.95110 0.06147 0.40800
C 	C 	0.87830 0.87940 0.04887 -0.20000
C 	C 	0.89980 0.87240 0.01587 0.15400
H 	H 	0.89050 0.91000 0.99987 0.00100
C 	C 	0.93520 0.80900 0.00687 -0.23800
H 	H 	0.94960 0.80440 0.98477 0.14900
C 	C 	0.94920 0.75270 0.03087 0.23000
C 	C 	0.92770 0.75970 0.06387 -0.23000
H 	H 	0.93700 0.72200 0.07997 0.21500
C 	C 	0.89220 0.82300 0.07297 0.15600
H 	H 	0.87790 0.82770 0.09507 0.00200
O 	O 	0.03500 0.71110 0.98937 -0.15300
C 	C 	0.99380 0.69130 0.01667 0.08900
C 	C 	0.98800 0.60380 0.03667 1.67600
C 	C 	0.90710 0.51070 0.04427 2.35600
H 	H 	0.84450 0.49160 0.03547 -0.71600
C 	C 	0.91980 0.44600 0.06487 -3.30700
H 	H 	0.86580 0.38360 0.06987 0.08400
C 	C 	0.01300 0.47440 0.07797 0.09900
C 	C 	0.09410 0.56800 0.07047 0.38300
H 	H 	0.15670 0.58660 0.07917 -0.03200
C 	C 	0.08140 0.63230 0.04987 0.98500
H 	H 	0.13540 0.69460 0.04477 -0.19400
C 	C 	0.01930 0.39660 0.09987 -0.09300
O 	O 	0.10330 0.42840 0.11127 -0.22600
O 	O 	0.94520 0.31400 0.10407 -0.18400
O 	O 	0.07590 0.72190 0.00957 -0.20100
C 	C 	0.00510 0.69460 0.02957 -0.12600
C 	C 	0.97660 0.60470 0.05197 -2.49400
C 	C 	0.87560 0.54110 0.05797 -0.60100
H 	H 	0.82940 0.55940 0.05137 0.32300
C 	C 	0.84370 0.45000 0.07357 0.23600
H 	H 	0.77610 0.40740 0.07747 -0.05400
C 	C 	0.91270 0.42250 0.08327 2.78900
C 	C 	0.01370 0.48610 0.07737 -0.07700
H 	H 	0.05990 0.46780 0.08387 0.00200
C 	C 	0.04570 0.57720 0.06177 -0.03800
H 	H 	0.11330 0.61980 0.05777 -0.61800
C 	C 	0.88220 0.31810 0.09667 -0.65500
O 	O 	0.95460 0.31600 0.10807 0.04800
O 	O 	0.79300 0.25950 0.09307 -0.06900
C 	C 	0.91200 0.24400 0.00977 0.36500
C 	C 	0.96750 0.32360 0.98377 -0.02400
C 	C 	0.92830 0.31570 0.95217 -0.05000
H 	H 	0.86890 0.25910 0.94627 0.06700
C 	C 	0.97800 0.39240 0.92937 0.00800
H 	H 	0.95170 0.38710 0.90827 0.03300
C 	C 	0.06680 0.47700 0.93817 -0.06500
C 	C 	0.10600 0.48490 0.96977 -0.03300
H 	H 	0.16550 0.54150 0.97567 0.04500
C 	C 	0.05640 0.40820 0.99257 -0.07200
H 	H 	0.08260 0.41350 0.01367 0.06600
N 	N 	0.50080 0.90540 0.99657 -0.22100
C 	C 	0.45180 0.80180 0.99557 0.03000
H 	H 	0.48830 0.76900 0.99527 0.03200
C 	C 	0.34820 0.74720 0.99497 -0.10200
H 	H 	0.31540 0.67790 0.99437 0.07700
C 	C 	0.29360 0.79620 0.99537 0.01700
H 	H 	0.22420 0.75970 0.99497 0.04900
C 	C 	0.34260 0.89980 0.99637 -0.08500
C 	C 	0.44620 0.95440 0.99697 0.11500
C 	C 	0.29200 0.95360 0.99687 0.15900
H 	H 	0.22390 0.92110 0.99257 0.01000
O 	O 	0.12610 0.15950 0.42340 -0.42700
O 	O 	0.16770 0.16500 0.37130 -0.47600
O 	O 	0.30160 0.05220 0.37090 -0.41600
O 	O 	0.34270 0.17120 0.33260 -0.45400
C 	C 	0.10130 0.15020 0.39480 0.42300
C 	C 	0.00110 0.12170 0.38220 -0.33100
C 	C 	0.97260 0.10020 0.34920 0.32300
H 	H 	0.01950 0.10950 0.33320 -0.08100
C 	C 	0.87380 0.06480 0.34020 -0.34800
H 	H 	0.85480 0.05040 0.31810 0.17400
C 	C 	0.80350 0.05080 0.36420 0.27900
C 	C 	0.83200 0.07230 0.39720 -0.29400
H 	H 	0.78500 0.06300 0.41330 0.24600
C 	C 	0.93080 0.10780 0.40630 0.25400
H 	H 	0.94980 0.12210 0.42840 -0.03000
O 	O 	0.67610 0.96500 0.32270 -0.24000
C 	C 	0.69750 0.00620 0.35000 0.48700
C 	C 	0.61580 0.01200 0.37000 1.91600
C 	C 	0.60360 0.09290 0.37760 2.59400
H 	H 	0.64710 0.15550 0.36880 -0.80900
C 	C 	0.52620 0.08020 0.39820 -3.75500
H 	H 	0.51780 0.13420 0.40320 0.12700
C 	C 	0.46140 0.98700 0.41130 0.16700
C 	C 	0.47390 0.90590 0.40380 0.29900
H 	H 	0.42990 0.84330 0.41250 0.01200
C 	C 	0.55090 0.91860 0.38320 1.18800
H 	H 	0.55920 0.86460 0.37810 -0.23700
C 	C 	0.37730 0.98070 0.43320 -0.05900
O 	O 	0.32510 0.89670 0.44460 -0.22200
O 	O 	0.36880 0.05480 0.43740 -0.20800
O 	O 	0.64600 0.92410 0.34290 -0.17100
C 	C 	0.68950 0.99490 0.36290 -0.53100
C 	C 	0.62810 0.02340 0.38530 -2.87100
C 	C 	0.66550 0.12440 0.39130 -0.60500
H 	H 	0.73000 0.17060 0.38470 0.33300
C 	C 	0.60630 0.15630 0.40690 0.29400
H 	H 	0.63130 0.22390 0.41080 -0.08100
C 	C 	0.50980 0.08730 0.41660 3.05700
C 	C 	0.47240 0.98630 0.41070 -0.02000
H 	H 	0.40790 0.94010 0.41720 -0.04400
C 	C 	0.53150 0.95430 0.39510 0.04900
H 	H 	0.50650 0.88670 0.39110 -0.71800
C 	C 	0.43590 0.11780 0.43000 -0.75500
O 	O 	0.36140 0.04540 0.44140 0.06600
O 	O 	0.46650 0.20700 0.42640 -0.03300
C 	C 	0.33200 0.08800 0.34310 0.42400
C 	C 	0.35610 0.03250 0.31710 -0.19000
C 	C 	0.38740 0.07170 0.28550 0.10300
H 	H 	0.39020 0.13110 0.27960 0.01100
C 	C 	0.41440 0.02200 0.26270 -0.20500
H 	H 	0.43540 0.04830 0.24160 0.09100
C 	C 	0.41020 0.93320 0.27150 0.12700
C 	C 	0.37890 0.89400 0.30310 -0.19700
H 	H 	0.37600 0.83450 0.30900 0.10200
C 	C 	0.35180 0.94360 0.32590 0.11800
H 	H 	0.33090 0.91740 0.34700 0.01300
N 	N 	0.40460 0.49920 0.32990 -0.20600
C 	C 	0.35000 0.54820 0.32890 -0.00300
H 	H 	0.28070 0.51170 0.32860 0.04100
C 	C 	0.39900 0.65180 0.32830 -0.04700
H 	H 	0.36250 0.68460 0.32770 0.05500
C 	C 	0.50260 0.70640 0.32870 -0.06800
H 	H 	0.53550 0.77580 0.32830 0.08100
C 	C 	0.55720 0.65740 0.32970 0.04000
C 	C 	0.50820 0.55380 0.33030 -0.00400
C 	C 	0.66160 0.70800 0.33020 -0.04400
H 	H 	0.69720 0.77610 0.32590 0.08300
O 	O 	0.03340 0.87390 0.75673 -0.39500
O 	O 	0.99730 0.83230 0.70463 -0.42900
O 	O 	0.75060 0.69840 0.70423 -0.40100
O 	O 	0.82850 0.65730 0.66593 -0.44200
C 	C 	0.04890 0.89870 0.72813 0.30600
C 	C 	0.12060 0.99890 0.71553 -0.05800
C 	C 	0.12760 0.02740 0.68253 -0.02700
H 	H 	0.09000 0.98050 0.66653 0.06300
C 	C 	0.19100 0.12620 0.67353 -0.13000
H 	H 	0.19560 0.14520 0.65143 0.09600
C 	C 	0.24730 0.19650 0.69753 0.14700
C 	C 	0.24030 0.16800 0.73053 -0.13500
H 	H 	0.27800 0.21500 0.74663 0.18300
C 	C 	0.17700 0.06920 0.73963 0.01800
H 	H 	0.17230 0.05020 0.76173 0.03500
O 	O 	0.28890 0.32390 0.65603 -0.19900
C 	C 	0.30870 0.30250 0.68333 0.29800
C 	C 	0.39620 0.38420 0.70333 1.80300
C 	C 	0.48930 0.39640 0.71093 2.48200
H 	H 	0.50840 0.35290 0.70213 -0.76700
C 	C 	0.55400 0.47380 0.73153 -3.54100
H 	H 	0.61640 0.48220 0.73653 0.10600
C 	C 	0.52560 0.53860 0.74463 0.13100
C 	C 	0.43200 0.52610 0.73713 0.34100
H 	H 	0.41340 0.57010 0.74583 -0.01000
C 	C 	0.36770 0.44910 0.71653 1.09500
H 	H 	0.30540 0.44080 0.71143 -0.22000
C 	C 	0.60340 0.62270 0.76653 -0.07800
O 	O 	0.57160 0.67490 0.77793 -0.22600
O 	O 	0.68600 0.63120 0.77073 -0.19800
O 	O 	0.27810 0.35400 0.67623 -0.19900
C 	C 	0.30540 0.31050 0.69623 -0.30800
C 	C 	0.39530 0.37190 0.71863 -2.70500
C 	C 	0.45890 0.33450 0.72463 -0.59000
H 	H 	0.44060 0.27000 0.71803 0.32300
C 	C 	0.55000 0.39370 0.74023 0.25600
H 	H 	0.59260 0.36870 0.74413 -0.06300
C 	C 	0.57750 0.49020 0.74993 2.93800
C 	C 	0.51390 0.52760 0.74403 -0.05100
H 	H 	0.53220 0.59210 0.75053 -0.01800
C 	C 	0.42280 0.46850 0.72843 0.01100
H 	H 	0.38020 0.49350 0.72443 -0.67500
C 	C 	0.68190 0.56410 0.76333 -0.71400
O 	O 	0.68400 0.63860 0.77473 0.06000
O 	O 	0.74050 0.53350 0.75973 -0.04100
C 	C 	0.75600 0.66800 0.67643 0.39600
C 	C 	0.67640 0.64390 0.65043 -0.10500
C 	C 	0.68430 0.61260 0.61883 0.02400
H 	H 	0.74090 0.60980 0.61293 0.04100
C 	C 	0.60760 0.58560 0.59603 -0.09500
H 	H 	0.61290 0.56460 0.57493 0.06200
C 	C 	0.52300 0.58980 0.60483 0.02700
C 	C 	0.51510 0.62110 0.63643 -0.11100
H 	H 	0.45850 0.62400 0.64233 0.07200
C 	C 	0.59180 0.64820 0.65923 0.01600
H 	H 	0.58650 0.66910 0.68033 0.04400
N 	N 	0.09460 0.59540 0.66323 -0.18900
C 	C 	0.19820 0.65000 0.66223 -0.03200
H 	H 	0.23100 0.71930 0.66193 0.05000
C 	C 	0.25280 0.60100 0.66163 0.00000
H 	H 	0.32210 0.63750 0.66103 0.03900
C 	C 	0.20380 0.49740 0.66203 -0.14400
H 	H 	0.24030 0.46450 0.66163 0.10600
C 	C 	0.10020 0.44280 0.66303 0.14700
C 	C 	0.04560 0.49180 0.66363 -0.11000
C 	C 	0.04640 0.33840 0.66353 -0.22500
H 	H 	0.07890 0.30280 0.65923 0.13400
La	La	0.86289 0.13711 0.08333 1.72700
La	La	0.86289 0.72578 0.75000 1.73000
La	La	0.27422 0.13711 0.41667 1.72300
La	La	0.13711 0.86289 0.58333 1.72700
La	La	0.13711 0.27422 0.25000 1.72300
La	La	0.72578 0.86289 0.91667 1.73000
La	La	0.00000 0.30087 0.16667 1.58300
La	La	0.69913 0.69913 0.83333 1.60400
La	La	0.30087 0.00000 0.50000 1.58300
La	La	0.00000 0.69913 0.66667 1.57900
La	La	0.30087 0.30087 0.33333 1.61200
La	La	0.69913 0.00000 -0.00000 1.57500
O 	O 	0.39300 0.78600 0.25000 -0.17300
C 	C 	0.43900 0.87800 0.25000 0.02400
O 	O 	0.21400 0.60700 0.91667 -0.20800
C 	C 	0.12200 0.56100 0.91667 0.14700
O 	O 	0.39300 0.60700 0.58333 -0.19100
C 	C 	0.43900 0.56100 0.58333 0.08700
O 	O 	0.60700 0.21400 0.75000 -0.20800
C 	C 	0.56100 0.12200 0.75000 0.14700
O 	O 	0.78600 0.39300 0.41667 -0.17200
C 	C 	0.87800 0.43900 0.41667 0.02300
O 	O 	0.60700 0.39300 0.08333 -0.19100
C 	C 	0.56100 0.43900 0.08333 0.08800
