data_crystal

_cell_length_a 24.33700
_cell_length_b 24.33700
_cell_length_c 26.10410
_cell_angle_alpha 62.21510
_cell_angle_beta  62.21510
_cell_angle_gamma 89.99990

_symmetry_space_group_name_	'P 1'
_symmetry_space_group_name_H-M	'P 1'

loop_
_symmetry_equiv_pos_as_xyz
  x,y,z

loop_
_atom_site_label
_atom_site_type_symbol
_atom_site_fract_x
_atom_site_fract_y
_atom_site_fract_z
_atom_site_charge
Zn	Zn	0.97646 0.36621 0.32096 1.20100
Zn	Zn	0.85683 0.39682 0.29718 1.17600
Zn	Zn	0.20258 0.31283 0.32096 1.20100
Zn	Zn	0.34599 0.30600 0.29718 1.17600
H 	H 	0.81110 0.23620 0.53160 0.14700
H 	H 	0.71530 0.26230 0.50600 -0.02300
H 	H 	0.60920 0.21570 0.59700 -0.03600
H 	H 	0.52920 0.14650 0.70920 0.13000
H 	H 	0.66500 0.08480 0.74900 0.13800
H 	H 	0.74330 0.16190 0.63660 -0.03300
H 	H 	0.46180 0.04620 0.81900 -0.06400
H 	H 	0.47320 0.10410 0.82800 -0.06000
H 	H 	0.45230 0.11680 0.96240 0.32000
H 	H 	0.43330 0.12940 0.90900 0.29600
H 	H 	0.50440 0.12920 0.89080 0.31000
H 	H 	0.45930 0.95830 0.84780 0.31600
H 	H 	0.39960 0.89810 0.90880 0.30000
H 	H 	0.46890 0.89560 0.89620 0.31000
H 	H 	0.36590 0.90340 0.15020 0.29400
H 	H 	0.39210 0.85040 0.13540 0.28500
H 	H 	0.32310 0.85620 0.14920 0.28700
H 	H 	0.33450 0.81760 0.08400 -0.06500
H 	H 	0.36660 0.82810 0.01080 -0.06500
H 	H 	0.32360 0.72290 0.09080 0.39800
H 	H 	0.30340 0.61330 0.14400 -0.32800
H 	H 	0.45600 0.61780 0.15320 -0.26400
H 	H 	0.48060 0.73230 0.09420 0.33800
H 	H 	0.38480 0.51480 0.20420 -0.24100
H 	H 	0.28200 0.51670 0.19380 0.33500
H 	H 	0.41930 0.98440 0.10520 -0.02500
H 	H 	0.45170 0.05590 0.04220 -0.03400
H 	H 	0.42560 0.05390 0.13940 0.14200
H 	H 	0.40950 0.11310 0.19200 -0.03100
H 	H 	0.23840 0.11740 0.20840 -0.02300
H 	H 	0.26220 0.07180 0.14240 0.13000
H 	H 	0.35190 0.17350 0.23860 -0.03300
H 	H 	0.24190 0.18540 0.23860 0.17300
H 	H 	0.15730 0.23220 0.53160 0.14600
H 	H 	0.27870 0.23170 0.50600 -0.02300
H 	H 	0.29380 0.18730 0.59700 -0.03600
H 	H 	0.26160 0.14430 0.70920 0.13000
H 	H 	0.08600 0.16620 0.74900 0.13800
H 	H 	0.12010 0.20150 0.63660 -0.03400
H 	H 	0.21920 0.13480 0.81900 -0.06500
H 	H 	0.19880 0.06790 0.82800 -0.05900
H 	H 	0.08530 0.92080 0.96240 0.31600
H 	H 	0.15770 0.96160 0.90900 0.29300
H 	H 	0.10480 0.98000 0.89080 0.30900
H 	H 	0.19290 0.19390 0.84780 0.31800
H 	H 	0.19160 0.19310 0.90880 0.30200
H 	H 	0.13490 0.20820 0.89620 0.31200
H 	H 	0.98390 0.94640 0.15020 0.27500
H 	H 	0.97250 0.01420 0.13540 0.26800
H 	H 	0.02770 0.99460 0.14920 0.27400
H 	H 	0.08150 0.09840 0.08400 -0.06400
H 	H 	0.12260 0.16110 0.01080 -0.06500
H 	H 	0.08560 0.18630 0.09080 0.38700
H 	H 	0.05260 0.24270 0.14400 -0.31500
H 	H 	0.89080 0.22900 0.15320 -0.25500
H 	H 	0.92520 0.17350 0.09420 0.32900
H 	H 	0.91100 0.28100 0.20420 -0.23200
H 	H 	0.02420 0.28950 0.19380 0.32700
H 	H 	0.97550 0.91040 0.10520 -0.03200
H 	H 	0.00610 0.90190 0.04220 -0.03500
H 	H 	0.93500 0.80670 0.13940 0.14700
H 	H 	0.89850 0.69490 0.19200 -0.03500
H 	H 	0.05320 0.67420 0.20840 -0.02600
H 	H 	0.09540 0.78580 0.14240 0.13400
H 	H 	0.90950 0.58790 0.23860 -0.03600
H 	H 	0.01950 0.57600 0.23860 0.17600
C 	C 	0.84250 0.30650 0.42860 0.44700
C 	C 	0.79420 0.25670 0.50440 -0.32600
C 	C 	0.73110 0.24070 0.53400 0.16800
C 	C 	0.68331 0.19471 0.60338 -0.19600
C 	C 	0.62120 0.18970 0.62740 0.16800
C 	C 	0.57243 0.14843 0.69474 -0.30200
C 	C 	0.59087 0.10977 0.74006 0.30700
C 	C 	0.65318 0.11218 0.71904 -0.30400
C 	C 	0.69981 0.15711 0.65078 0.14100
C 	C 	0.47989 0.06189 0.83742 0.24800
C 	C 	0.44851 0.01571 0.91258 -0.36400
C 	C 	0.43013 0.94883 0.94034 0.41300
C 	C 	0.40143 0.90613 0.00914 -0.34600
C 	C 	0.39603 0.92833 0.05134 0.38100
C 	C 	0.41749 0.99529 0.02422 -0.32000
C 	C 	0.44264 0.03894 0.95412 0.42600
C 	C 	0.45971 0.10991 0.92658 -0.94300
C 	C 	0.44050 0.92280 0.89380 -0.92500
C 	C 	0.36640 0.87990 0.12900 -0.85700
C 	C 	0.37473 0.83523 0.04054 0.27300
C 	C 	0.40530 0.73740 0.08540 0.87400
C 	C 	0.35260 0.70300 0.10140 -1.05300
C 	C 	0.34070 0.63710 0.13400 1.01300
C 	C 	0.37640 0.60650 0.15160 -0.97200
C 	C 	0.42930 0.63910 0.13940 0.81200
C 	C 	0.44370 0.70800 0.10400 -0.89300
C 	C 	0.35730 0.53440 0.19060 0.82900
C 	C 	0.31060 0.49870 0.20640 -0.83000
C 	C 	0.41587 0.01797 0.06826 0.20400
C 	C 	0.34841 0.06171 0.13198 0.29900
C 	C 	0.39010 0.07050 0.14900 -0.30800
C 	C 	0.37950 0.10530 0.18200 0.15100
C 	C 	0.32760 0.12710 0.19900 -0.17500
C 	C 	0.27830 0.10930 0.19000 0.12600
C 	C 	0.29160 0.07970 0.15320 -0.27400
C 	C 	0.32030 0.16720 0.22980 0.20400
C 	C 	0.27450 0.19360 0.24540 -0.40100
C 	C 	0.26820 0.23720 0.27360 0.55900
C 	C 	0.29600 0.42460 0.24640 0.61700
C 	C 	0.22890 0.26490 0.42860 0.44700
C 	C 	0.20140 0.23890 0.50440 -0.32600
C 	C 	0.23490 0.22530 0.53400 0.16800
C 	C 	0.21331 0.20191 0.60338 -0.19600
C 	C 	0.25140 0.18290 0.62740 0.16800
C 	C 	0.23283 0.15683 0.69474 -0.30200
C 	C 	0.16907 0.15017 0.74006 0.30700
C 	C 	0.12778 0.16878 0.71904 -0.30400
C 	C 	0.14941 0.19211 0.65078 0.14100
C 	C 	0.18269 0.10069 0.83742 0.24800
C 	C 	0.13891 0.07171 0.91258 -0.36400
C 	C 	0.12953 0.11083 0.94034 0.41800
C 	C 	0.08943 0.08473 0.00914 -0.34400
C 	C 	0.05263 0.02033 0.05134 0.35700
C 	C 	0.05829 0.98049 0.02422 -0.30900
C 	C 	0.10324 0.00694 0.95412 0.41900
C 	C 	0.11371 0.96351 0.92658 -0.93500
C 	C 	0.16570 0.18340 0.89380 -0.93000
C 	C 	0.00460 0.99110 0.12900 -0.80300
C 	C 	0.08473 0.12423 0.04054 0.26900
C 	C 	0.00930 0.17720 0.08540 0.84900
C 	C 	0.04600 0.19560 0.10140 -1.02100
C 	C 	0.02530 0.22890 0.13400 0.97500
C 	C 	0.97200 0.24190 0.15160 -0.93800
C 	C 	0.93130 0.22150 0.13940 0.78300
C 	C 	0.95230 0.18800 0.10400 -0.86500
C 	C 	0.95210 0.27500 0.19060 0.80200
C 	C 	0.98300 0.29490 0.20640 -0.80900
C 	C 	0.01587 0.91377 0.06826 0.21600
C 	C 	0.01961 0.80631 0.13198 0.31100
C 	C 	0.96090 0.78050 0.14900 -0.32100
C 	C 	0.93850 0.71270 0.18200 0.16200
C 	C 	0.97340 0.67390 0.19900 -0.18600
C 	C 	0.03170 0.70070 0.19000 0.13700
C 	C 	0.05520 0.76710 0.15320 -0.28300
C 	C 	0.94990 0.60300 0.22980 0.21100
C 	C 	0.98010 0.56100 0.24540 -0.40800
C 	C 	0.95820 0.48920 0.27360 0.56100
C 	C 	0.95760 0.32900 0.24640 0.61100
O 	O 	0.81601 0.33481 0.39318 -0.54100
O 	O 	0.90052 0.31242 0.40976 -0.56700
O 	O 	0.54672 0.06592 0.80836 -0.31000
O 	O 	0.35630 0.03300 0.09480 -0.29800
O 	O 	0.42395 0.80425 0.04990 -0.43700
O 	O 	0.22378 0.25938 0.28484 -0.63100
O 	O 	0.31590 0.24700 0.27920 -0.58700
O 	O 	0.23390 0.40010 0.26580 -0.58500
O 	O 	0.33430 0.40090 0.25540 -0.61300
O 	O 	0.29081 0.27201 0.39318 -0.54100
O 	O 	0.18972 0.27782 0.40976 -0.56700
O 	O 	0.14492 0.12572 0.80836 -0.31000
O 	O 	0.04890 0.87220 0.09480 -0.29900
O 	O 	0.02615 0.14585 0.04990 -0.43200
O 	O 	0.99138 0.45578 0.28484 -0.63300
O 	O 	0.90490 0.47380 0.27920 -0.58800
O 	O 	0.00030 0.33410 0.26580 -0.58500
O 	O 	0.91030 0.34370 0.25540 -0.61200
Zn	Zn	0.36621 0.20258 0.82096 1.20000
Zn	Zn	0.39682 0.34599 0.79718 1.17500
Zn	Zn	0.31283 0.97646 0.82096 1.20000
Zn	Zn	0.30600 0.85683 0.79718 1.17500
H 	H 	0.23620 0.15730 0.03160 0.14700
H 	H 	0.26230 0.27870 0.00600 -0.02400
H 	H 	0.21570 0.29380 0.09700 -0.03600
H 	H 	0.14650 0.26160 0.20920 0.13000
H 	H 	0.08480 0.08600 0.24900 0.13800
H 	H 	0.16190 0.12010 0.13660 -0.03400
H 	H 	0.04620 0.21920 0.31900 -0.06700
H 	H 	0.10410 0.19880 0.32800 -0.06100
H 	H 	0.11680 0.08530 0.46240 0.31800
H 	H 	0.12940 0.15770 0.40900 0.29500
H 	H 	0.12920 0.10480 0.39080 0.31000
H 	H 	0.95830 0.19290 0.34780 0.32100
H 	H 	0.89810 0.19160 0.40880 0.30500
H 	H 	0.89560 0.13490 0.39620 0.31400
H 	H 	0.90340 0.98390 0.65020 0.28200
H 	H 	0.85040 0.97250 0.63540 0.27300
H 	H 	0.85620 0.02770 0.64920 0.27900
H 	H 	0.81760 0.08150 0.58400 -0.06700
H 	H 	0.82810 0.12260 0.51080 -0.06800
H 	H 	0.72290 0.08560 0.59080 0.41400
H 	H 	0.61330 0.05260 0.64400 -0.34600
H 	H 	0.61780 0.89080 0.65320 -0.27900
H 	H 	0.73230 0.92520 0.59420 0.35100
H 	H 	0.51480 0.91100 0.70420 -0.25300
H 	H 	0.51670 0.02420 0.69380 0.34700
H 	H 	0.98440 0.97550 0.60520 -0.03000
H 	H 	0.05590 0.00610 0.54220 -0.03600
H 	H 	0.05390 0.93500 0.63940 0.14100
H 	H 	0.11310 0.89850 0.69200 -0.02900
H 	H 	0.11740 0.05320 0.70840 -0.02000
H 	H 	0.07180 0.09540 0.64240 0.12800
H 	H 	0.17350 0.90950 0.73860 -0.03200
H 	H 	0.18540 0.01950 0.73860 0.17100
H 	H 	0.23220 0.81110 0.03160 0.14600
H 	H 	0.23170 0.71530 0.00600 -0.02100
H 	H 	0.18730 0.60920 0.09700 -0.03500
H 	H 	0.14430 0.52920 0.20920 0.13000
H 	H 	0.16620 0.66500 0.24900 0.13800
H 	H 	0.20150 0.74330 0.13660 -0.03300
H 	H 	0.13480 0.46180 0.31900 -0.06600
H 	H 	0.06790 0.47320 0.32800 -0.06100
H 	H 	0.92080 0.45230 0.46240 0.32100
H 	H 	0.96160 0.43330 0.40900 0.29800
H 	H 	0.98000 0.50440 0.39080 0.31200
H 	H 	0.19390 0.45930 0.34780 0.32000
H 	H 	0.19310 0.39960 0.40880 0.30400
H 	H 	0.20820 0.46890 0.39620 0.31400
H 	H 	0.94640 0.36590 0.65020 0.29400
H 	H 	0.01420 0.39210 0.63540 0.28300
H 	H 	0.99460 0.32310 0.64920 0.28700
H 	H 	0.09840 0.33450 0.58400 -0.06700
H 	H 	0.16110 0.36660 0.51080 -0.06700
H 	H 	0.18630 0.32360 0.59080 0.39800
H 	H 	0.24270 0.30340 0.64400 -0.32800
H 	H 	0.22900 0.45600 0.65320 -0.26500
H 	H 	0.17350 0.48060 0.59420 0.33800
H 	H 	0.28100 0.38480 0.70420 -0.24100
H 	H 	0.28950 0.28200 0.69380 0.33600
H 	H 	0.91040 0.41930 0.60520 -0.03200
H 	H 	0.90190 0.45170 0.54220 -0.03800
H 	H 	0.80670 0.42560 0.63940 0.14300
H 	H 	0.69490 0.40950 0.69200 -0.03200
H 	H 	0.67420 0.23840 0.70840 -0.02300
H 	H 	0.78580 0.26220 0.64240 0.13100
H 	H 	0.58790 0.35190 0.73860 -0.03300
H 	H 	0.57600 0.24190 0.73860 0.17300
C 	C 	0.30650 0.22890 0.92860 0.44900
C 	C 	0.25670 0.20140 0.00440 -0.32900
C 	C 	0.24070 0.23490 0.03400 0.17100
C 	C 	0.19471 0.21331 0.10338 -0.19800
C 	C 	0.18970 0.25140 0.12740 0.16900
C 	C 	0.14843 0.23283 0.19474 -0.30300
C 	C 	0.10977 0.16907 0.24006 0.30800
C 	C 	0.11218 0.12778 0.21904 -0.30600
C 	C 	0.15711 0.14941 0.15078 0.14300
C 	C 	0.06189 0.18269 0.33742 0.25300
C 	C 	0.01571 0.13891 0.41258 -0.37300
C 	C 	0.94883 0.12953 0.44034 0.42600
C 	C 	0.90613 0.08943 0.50914 -0.35100
C 	C 	0.92833 0.05263 0.55134 0.37600
C 	C 	0.99529 0.05829 0.52422 -0.31800
C 	C 	0.03894 0.10324 0.45412 0.42600
C 	C 	0.10991 0.11371 0.42658 -0.94200
C 	C 	0.92280 0.16570 0.39380 -0.93800
C 	C 	0.87990 0.00460 0.62900 -0.82500
C 	C 	0.83523 0.08473 0.54054 0.28000
C 	C 	0.73740 0.00930 0.58540 0.91100
C 	C 	0.70300 0.04600 0.60140 -1.09800
C 	C 	0.63710 0.02530 0.63400 1.06600
C 	C 	0.60650 0.97200 0.65160 -1.02100
C 	C 	0.63910 0.93130 0.63940 0.85400
C 	C 	0.70800 0.95230 0.60400 -0.93300
C 	C 	0.53440 0.95210 0.69060 0.86700
C 	C 	0.49870 0.98300 0.70640 -0.86000
C 	C 	0.01797 0.01587 0.56826 0.21000
C 	C 	0.06171 0.01961 0.63198 0.29300
C 	C 	0.07050 0.96090 0.64900 -0.29900
C 	C 	0.10530 0.93850 0.68200 0.14500
C 	C 	0.12710 0.97340 0.69900 -0.16800
C 	C 	0.10930 0.03170 0.69000 0.11900
C 	C 	0.07970 0.05520 0.65320 -0.26800
C 	C 	0.16720 0.94990 0.72980 0.19900
C 	C 	0.19360 0.98010 0.74540 -0.39600
C 	C 	0.23720 0.95820 0.77360 0.55800
C 	C 	0.42460 0.95760 0.74640 0.62600
C 	C 	0.26490 0.84250 0.92860 0.44400
C 	C 	0.23890 0.79420 0.00440 -0.32100
C 	C 	0.22530 0.73110 0.03400 0.16500
C 	C 	0.20191 0.68331 0.10338 -0.19400
C 	C 	0.18290 0.62120 0.12740 0.16600
C 	C 	0.15683 0.57243 0.19474 -0.30100
C 	C 	0.15017 0.59087 0.24006 0.30700
C 	C 	0.16878 0.65318 0.21904 -0.30300
C 	C 	0.19211 0.69981 0.15078 0.13900
C 	C 	0.10069 0.47989 0.33742 0.25300
C 	C 	0.07171 0.44851 0.41258 -0.37200
C 	C 	0.11083 0.43013 0.44034 0.42500
C 	C 	0.08473 0.40143 0.50914 -0.35500
C 	C 	0.02033 0.39603 0.55134 0.38400
C 	C 	0.98049 0.41749 0.52422 -0.32900
C 	C 	0.00694 0.44264 0.45412 0.43300
C 	C 	0.96351 0.45971 0.42658 -0.94900
C 	C 	0.18340 0.44050 0.39380 -0.93700
C 	C 	0.99110 0.36640 0.62900 -0.85600
C 	C 	0.12423 0.37473 0.54054 0.27800
C 	C 	0.17720 0.40530 0.58540 0.87500
C 	C 	0.19560 0.35260 0.60140 -1.05400
C 	C 	0.22890 0.34070 0.63400 1.01400
C 	C 	0.24190 0.37640 0.65160 -0.97300
C 	C 	0.22150 0.42930 0.63940 0.81400
C 	C 	0.18800 0.44370 0.60400 -0.89400
C 	C 	0.27500 0.35730 0.69060 0.83000
C 	C 	0.29490 0.31060 0.70640 -0.83000
C 	C 	0.91377 0.41587 0.56826 0.22000
C 	C 	0.80631 0.34841 0.63198 0.30200
C 	C 	0.78050 0.39010 0.64900 -0.30900
C 	C 	0.71270 0.37950 0.68200 0.15300
C 	C 	0.67390 0.32760 0.69900 -0.17600
C 	C 	0.70070 0.27830 0.69000 0.12700
C 	C 	0.76710 0.29160 0.65320 -0.27500
C 	C 	0.60300 0.32030 0.72980 0.20500
C 	C 	0.56100 0.27450 0.74540 -0.40100
C 	C 	0.48920 0.26820 0.77360 0.55900
C 	C 	0.32900 0.29600 0.74640 0.61700
O 	O 	0.33481 0.29081 0.89318 -0.54100
O 	O 	0.31242 0.18972 0.90976 -0.56700
O 	O 	0.06592 0.14492 0.30836 -0.31200
O 	O 	0.03300 0.04890 0.59480 -0.29600
O 	O 	0.80425 0.02615 0.54990 -0.44600
O 	O 	0.25938 0.99138 0.78484 -0.63100
O 	O 	0.24700 0.90490 0.77920 -0.58700
O 	O 	0.40010 0.00030 0.76580 -0.58600
O 	O 	0.40090 0.91030 0.75540 -0.61600
O 	O 	0.27201 0.81601 0.89318 -0.54100
O 	O 	0.27782 0.90052 0.90976 -0.56700
O 	O 	0.12572 0.54672 0.30836 -0.31100
O 	O 	0.87220 0.35630 0.59480 -0.29900
O 	O 	0.14585 0.42395 0.54990 -0.43900
O 	O 	0.45578 0.22378 0.78484 -0.63200
O 	O 	0.47380 0.31590 0.77920 -0.58700
O 	O 	0.33410 0.23390 0.76580 -0.58500
O 	O 	0.34370 0.33430 0.75540 -0.61300
Zn	Zn	0.02354 0.63379 0.67904 1.20000
Zn	Zn	0.14317 0.60318 0.70282 1.17500
Zn	Zn	0.79742 0.68717 0.67904 1.20000
Zn	Zn	0.65401 0.69400 0.70282 1.17500
H 	H 	0.18890 0.76380 0.46840 0.14700
H 	H 	0.28470 0.73770 0.49400 -0.02300
H 	H 	0.39080 0.78430 0.40300 -0.03600
H 	H 	0.47080 0.85350 0.29080 0.13000
H 	H 	0.33500 0.91520 0.25100 0.13800
H 	H 	0.25670 0.83810 0.36340 -0.03300
H 	H 	0.53820 0.95380 0.18100 -0.06400
H 	H 	0.52680 0.89590 0.17200 -0.06000
H 	H 	0.54770 0.88320 0.03760 0.32000
H 	H 	0.56670 0.87060 0.09100 0.29600
H 	H 	0.49560 0.87080 0.10920 0.31000
H 	H 	0.54070 0.04170 0.15220 0.31600
H 	H 	0.60040 0.10190 0.09120 0.30000
H 	H 	0.53110 0.10440 0.10380 0.31000
H 	H 	0.63410 0.09660 0.84980 0.29400
H 	H 	0.60790 0.14960 0.86460 0.28500
H 	H 	0.67690 0.14380 0.85080 0.28700
H 	H 	0.66550 0.18240 0.91600 -0.06500
H 	H 	0.63340 0.17190 0.98920 -0.06500
H 	H 	0.67640 0.27710 0.90920 0.39800
H 	H 	0.69660 0.38670 0.85600 -0.32800
H 	H 	0.54400 0.38220 0.84680 -0.26400
H 	H 	0.51940 0.26770 0.90580 0.33800
H 	H 	0.61520 0.48520 0.79580 -0.24100
H 	H 	0.71800 0.48330 0.80620 0.33500
H 	H 	0.58070 0.01560 0.89480 -0.02500
H 	H 	0.54830 0.94410 0.95780 -0.03400
H 	H 	0.57440 0.94610 0.86060 0.14200
H 	H 	0.59050 0.88690 0.80800 -0.03100
H 	H 	0.76160 0.88260 0.79160 -0.02300
H 	H 	0.73780 0.92820 0.85760 0.13000
H 	H 	0.64810 0.82650 0.76140 -0.03300
H 	H 	0.75810 0.81460 0.76140 0.17300
H 	H 	0.84270 0.76780 0.46840 0.14600
H 	H 	0.72130 0.76830 0.49400 -0.02300
H 	H 	0.70620 0.81270 0.40300 -0.03600
H 	H 	0.73840 0.85570 0.29080 0.13000
H 	H 	0.91400 0.83380 0.25100 0.13800
H 	H 	0.87990 0.79850 0.36340 -0.03400
H 	H 	0.78080 0.86520 0.18100 -0.06500
H 	H 	0.80120 0.93210 0.17200 -0.05900
H 	H 	0.91470 0.07920 0.03760 0.31600
H 	H 	0.84230 0.03840 0.09100 0.29300
H 	H 	0.89520 0.02000 0.10920 0.30900
H 	H 	0.80710 0.80610 0.15220 0.31800
H 	H 	0.80840 0.80690 0.09120 0.30200
H 	H 	0.86510 0.79180 0.10380 0.31200
H 	H 	0.01610 0.05360 0.84980 0.27500
H 	H 	0.02750 0.98580 0.86460 0.26800
H 	H 	0.97230 0.00540 0.85080 0.27400
H 	H 	0.91850 0.90160 0.91600 -0.06400
H 	H 	0.87740 0.83890 0.98920 -0.06500
H 	H 	0.91440 0.81370 0.90920 0.38700
H 	H 	0.94740 0.75730 0.85600 -0.31500
H 	H 	0.10920 0.77100 0.84680 -0.25500
H 	H 	0.07480 0.82650 0.90580 0.32900
H 	H 	0.08900 0.71900 0.79580 -0.23200
H 	H 	0.97580 0.71050 0.80620 0.32700
H 	H 	0.02450 0.08960 0.89480 -0.03200
H 	H 	0.99390 0.09810 0.95780 -0.03500
H 	H 	0.06500 0.19330 0.86060 0.14700
H 	H 	0.10150 0.30510 0.80800 -0.03500
H 	H 	0.94680 0.32580 0.79160 -0.02600
H 	H 	0.90460 0.21420 0.85760 0.13400
H 	H 	0.09050 0.41210 0.76140 -0.03600
H 	H 	0.98050 0.42400 0.76140 0.17600
C 	C 	0.15750 0.69350 0.57140 0.44700
C 	C 	0.20580 0.74330 0.49560 -0.32600
C 	C 	0.26890 0.75930 0.46600 0.16800
C 	C 	0.31669 0.80529 0.39662 -0.19600
C 	C 	0.37880 0.81030 0.37260 0.16800
C 	C 	0.42757 0.85157 0.30526 -0.30200
C 	C 	0.40913 0.89023 0.25994 0.30700
C 	C 	0.34682 0.88782 0.28096 -0.30400
C 	C 	0.30019 0.84289 0.34922 0.14100
C 	C 	0.52011 0.93811 0.16258 0.24800
C 	C 	0.55149 0.98429 0.08742 -0.36400
C 	C 	0.56987 0.05117 0.05966 0.41300
C 	C 	0.59857 0.09387 0.99086 -0.34600
C 	C 	0.60397 0.07167 0.94866 0.38100
C 	C 	0.58251 0.00471 0.97578 -0.32000
C 	C 	0.55736 0.96106 0.04588 0.42600
C 	C 	0.54029 0.89009 0.07342 -0.94300
C 	C 	0.55950 0.07720 0.10620 -0.92500
C 	C 	0.63360 0.12010 0.87100 -0.85700
C 	C 	0.62527 0.16477 0.95946 0.27300
C 	C 	0.59470 0.26260 0.91460 0.87400
C 	C 	0.64740 0.29700 0.89860 -1.05300
C 	C 	0.65930 0.36290 0.86600 1.01300
C 	C 	0.62360 0.39350 0.84840 -0.97200
C 	C 	0.57070 0.36090 0.86060 0.81200
C 	C 	0.55630 0.29200 0.89600 -0.89300
C 	C 	0.64270 0.46560 0.80940 0.82900
C 	C 	0.68940 0.50130 0.79360 -0.83000
C 	C 	0.58413 0.98203 0.93174 0.20400
C 	C 	0.65159 0.93829 0.86802 0.29900
C 	C 	0.60990 0.92950 0.85100 -0.30800
C 	C 	0.62050 0.89470 0.81800 0.15100
C 	C 	0.67240 0.87290 0.80100 -0.17500
C 	C 	0.72170 0.89070 0.81000 0.12600
C 	C 	0.70840 0.92030 0.84680 -0.27400
C 	C 	0.67970 0.83280 0.77020 0.20400
C 	C 	0.72550 0.80640 0.75460 -0.40100
C 	C 	0.73180 0.76280 0.72640 0.55900
C 	C 	0.70400 0.57540 0.75360 0.61700
C 	C 	0.77110 0.73510 0.57140 0.44700
C 	C 	0.79860 0.76110 0.49560 -0.32600
C 	C 	0.76510 0.77470 0.46600 0.16800
C 	C 	0.78669 0.79809 0.39662 -0.19600
C 	C 	0.74860 0.81710 0.37260 0.16800
C 	C 	0.76717 0.84317 0.30526 -0.30200
C 	C 	0.83093 0.84983 0.25994 0.30700
C 	C 	0.87222 0.83122 0.28096 -0.30400
C 	C 	0.85059 0.80789 0.34922 0.14100
C 	C 	0.81731 0.89931 0.16258 0.24800
C 	C 	0.86109 0.92829 0.08742 -0.36400
C 	C 	0.87047 0.88917 0.05966 0.41800
C 	C 	0.91057 0.91527 0.99086 -0.34400
C 	C 	0.94737 0.97967 0.94866 0.35700
C 	C 	0.94171 0.01951 0.97578 -0.30900
C 	C 	0.89676 0.99306 0.04588 0.41900
C 	C 	0.88629 0.03649 0.07342 -0.93500
C 	C 	0.83430 0.81660 0.10620 -0.93000
C 	C 	0.99540 0.00890 0.87100 -0.80300
C 	C 	0.91527 0.87577 0.95946 0.26900
C 	C 	0.99070 0.82280 0.91460 0.84900
C 	C 	0.95400 0.80440 0.89860 -1.02100
C 	C 	0.97470 0.77110 0.86600 0.97500
C 	C 	0.02800 0.75810 0.84840 -0.93800
C 	C 	0.06870 0.77850 0.86060 0.78300
C 	C 	0.04770 0.81200 0.89600 -0.86500
C 	C 	0.04790 0.72500 0.80940 0.80200
C 	C 	0.01700 0.70510 0.79360 -0.80900
C 	C 	0.98413 0.08623 0.93174 0.21600
C 	C 	0.98039 0.19369 0.86802 0.31100
C 	C 	0.03910 0.21950 0.85100 -0.32100
C 	C 	0.06150 0.28730 0.81800 0.16200
C 	C 	0.02660 0.32610 0.80100 -0.18600
C 	C 	0.96830 0.29930 0.81000 0.13700
C 	C 	0.94480 0.23290 0.84680 -0.28300
C 	C 	0.05010 0.39700 0.77020 0.21100
C 	C 	0.01990 0.43900 0.75460 -0.40800
C 	C 	0.04180 0.51080 0.72640 0.56100
C 	C 	0.04240 0.67100 0.75360 0.61100
O 	O 	0.18399 0.66519 0.60682 -0.54100
O 	O 	0.09948 0.68758 0.59024 -0.56700
O 	O 	0.45328 0.93408 0.19164 -0.31000
O 	O 	0.64370 0.96700 0.90520 -0.29800
O 	O 	0.57605 0.19575 0.95010 -0.43700
O 	O 	0.77622 0.74062 0.71516 -0.63100
O 	O 	0.68410 0.75300 0.72080 -0.58700
O 	O 	0.76610 0.59990 0.73420 -0.58500
O 	O 	0.66570 0.59910 0.74460 -0.61300
O 	O 	0.70919 0.72799 0.60682 -0.54100
O 	O 	0.81028 0.72218 0.59024 -0.56700
O 	O 	0.85508 0.87428 0.19164 -0.31000
O 	O 	0.95110 0.12780 0.90520 -0.29900
O 	O 	0.97385 0.85415 0.95010 -0.43200
O 	O 	0.00862 0.54422 0.71516 -0.63300
O 	O 	0.09510 0.52620 0.72080 -0.58800
O 	O 	0.99970 0.66590 0.73420 -0.58500
O 	O 	0.08970 0.65630 0.74460 -0.61200
Zn	Zn	0.63379 0.79742 0.17904 1.20000
Zn	Zn	0.60318 0.65401 0.20282 1.17500
Zn	Zn	0.68717 0.02354 0.17904 1.20000
Zn	Zn	0.69400 0.14317 0.20282 1.17500
H 	H 	0.76380 0.84270 0.96840 0.14700
H 	H 	0.73770 0.72130 0.99400 -0.02400
H 	H 	0.78430 0.70620 0.90300 -0.03600
H 	H 	0.85350 0.73840 0.79080 0.13000
H 	H 	0.91520 0.91400 0.75100 0.13800
H 	H 	0.83810 0.87990 0.86340 -0.03400
H 	H 	0.95380 0.78080 0.68100 -0.06700
H 	H 	0.89590 0.80120 0.67200 -0.06100
H 	H 	0.88320 0.91470 0.53760 0.31800
H 	H 	0.87060 0.84230 0.59100 0.29500
H 	H 	0.87080 0.89520 0.60920 0.31000
H 	H 	0.04170 0.80710 0.65220 0.32100
H 	H 	0.10190 0.80840 0.59120 0.30500
H 	H 	0.10440 0.86510 0.60380 0.31400
H 	H 	0.09660 0.01610 0.34980 0.28200
H 	H 	0.14960 0.02750 0.36460 0.27300
H 	H 	0.14380 0.97230 0.35080 0.27900
H 	H 	0.18240 0.91850 0.41600 -0.06700
H 	H 	0.17190 0.87740 0.48920 -0.06800
H 	H 	0.27710 0.91440 0.40920 0.41400
H 	H 	0.38670 0.94740 0.35600 -0.34600
H 	H 	0.38220 0.10920 0.34680 -0.27900
H 	H 	0.26770 0.07480 0.40580 0.35100
H 	H 	0.48520 0.08900 0.29580 -0.25300
H 	H 	0.48330 0.97580 0.30620 0.34700
H 	H 	0.01560 0.02450 0.39480 -0.03000
H 	H 	0.94410 0.99390 0.45780 -0.03600
H 	H 	0.94610 0.06500 0.36060 0.14100
H 	H 	0.88690 0.10150 0.30800 -0.02900
H 	H 	0.88260 0.94680 0.29160 -0.02000
H 	H 	0.92820 0.90460 0.35760 0.12800
H 	H 	0.82650 0.09050 0.26140 -0.03200
H 	H 	0.81460 0.98050 0.26140 0.17100
H 	H 	0.76780 0.18890 0.96840 0.14600
H 	H 	0.76830 0.28470 0.99400 -0.02100
H 	H 	0.81270 0.39080 0.90300 -0.03500
H 	H 	0.85570 0.47080 0.79080 0.13000
H 	H 	0.83380 0.33500 0.75100 0.13800
H 	H 	0.79850 0.25670 0.86340 -0.03300
H 	H 	0.86520 0.53820 0.68100 -0.06600
H 	H 	0.93210 0.52680 0.67200 -0.06100
H 	H 	0.07920 0.54770 0.53760 0.32100
H 	H 	0.03840 0.56670 0.59100 0.29800
H 	H 	0.02000 0.49560 0.60920 0.31200
H 	H 	0.80610 0.54070 0.65220 0.32000
H 	H 	0.80690 0.60040 0.59120 0.30400
H 	H 	0.79180 0.53110 0.60380 0.31400
H 	H 	0.05360 0.63410 0.34980 0.29400
H 	H 	0.98580 0.60790 0.36460 0.28300
H 	H 	0.00540 0.67690 0.35080 0.28700
H 	H 	0.90160 0.66550 0.41600 -0.06700
H 	H 	0.83890 0.63340 0.48920 -0.06700
H 	H 	0.81370 0.67640 0.40920 0.39800
H 	H 	0.75730 0.69660 0.35600 -0.32800
H 	H 	0.77100 0.54400 0.34680 -0.26500
H 	H 	0.82650 0.51940 0.40580 0.33800
H 	H 	0.71900 0.61520 0.29580 -0.24100
H 	H 	0.71050 0.71800 0.30620 0.33600
H 	H 	0.08960 0.58070 0.39480 -0.03200
H 	H 	0.09810 0.54830 0.45780 -0.03800
H 	H 	0.19330 0.57440 0.36060 0.14300
H 	H 	0.30510 0.59050 0.30800 -0.03200
H 	H 	0.32580 0.76160 0.29160 -0.02300
H 	H 	0.21420 0.73780 0.35760 0.13100
H 	H 	0.41210 0.64810 0.26140 -0.03300
H 	H 	0.42400 0.75810 0.26140 0.17300
C 	C 	0.69350 0.77110 0.07140 0.44900
C 	C 	0.74330 0.79860 0.99560 -0.32900
C 	C 	0.75930 0.76510 0.96600 0.17100
C 	C 	0.80529 0.78669 0.89662 -0.19800
C 	C 	0.81030 0.74860 0.87260 0.16900
C 	C 	0.85157 0.76717 0.80526 -0.30300
C 	C 	0.89023 0.83093 0.75994 0.30800
C 	C 	0.88782 0.87222 0.78096 -0.30600
C 	C 	0.84289 0.85059 0.84922 0.14300
C 	C 	0.93811 0.81731 0.66258 0.25300
C 	C 	0.98429 0.86109 0.58742 -0.37300
C 	C 	0.05117 0.87047 0.55966 0.42600
C 	C 	0.09387 0.91057 0.49086 -0.35100
C 	C 	0.07167 0.94737 0.44866 0.37600
C 	C 	0.00471 0.94171 0.47578 -0.31800
C 	C 	0.96106 0.89676 0.54588 0.42600
C 	C 	0.89009 0.88629 0.57342 -0.94200
C 	C 	0.07720 0.83430 0.60620 -0.93800
C 	C 	0.12010 0.99540 0.37100 -0.82500
C 	C 	0.16477 0.91527 0.45946 0.28000
C 	C 	0.26260 0.99070 0.41460 0.91100
C 	C 	0.29700 0.95400 0.39860 -1.09800
C 	C 	0.36290 0.97470 0.36600 1.06600
C 	C 	0.39350 0.02800 0.34840 -1.02100
C 	C 	0.36090 0.06870 0.36060 0.85400
C 	C 	0.29200 0.04770 0.39600 -0.93300
C 	C 	0.46560 0.04790 0.30940 0.86700
C 	C 	0.50130 0.01700 0.29360 -0.86000
C 	C 	0.98203 0.98413 0.43174 0.21000
C 	C 	0.93829 0.98039 0.36802 0.29300
C 	C 	0.92950 0.03910 0.35100 -0.29900
C 	C 	0.89470 0.06150 0.31800 0.14500
C 	C 	0.87290 0.02660 0.30100 -0.16800
C 	C 	0.89070 0.96830 0.31000 0.11900
C 	C 	0.92030 0.94480 0.34680 -0.26800
C 	C 	0.83280 0.05010 0.27020 0.19900
C 	C 	0.80640 0.01990 0.25460 -0.39600
C 	C 	0.76280 0.04180 0.22640 0.55800
C 	C 	0.57540 0.04240 0.25360 0.62600
C 	C 	0.73510 0.15750 0.07140 0.44400
C 	C 	0.76110 0.20580 0.99560 -0.32100
C 	C 	0.77470 0.26890 0.96600 0.16500
C 	C 	0.79809 0.31669 0.89662 -0.19400
C 	C 	0.81710 0.37880 0.87260 0.16600
C 	C 	0.84317 0.42757 0.80526 -0.30100
C 	C 	0.84983 0.40913 0.75994 0.30700
C 	C 	0.83122 0.34682 0.78096 -0.30300
C 	C 	0.80789 0.30019 0.84922 0.13900
C 	C 	0.89931 0.52011 0.66258 0.25300
C 	C 	0.92829 0.55149 0.58742 -0.37200
C 	C 	0.88917 0.56987 0.55966 0.42500
C 	C 	0.91527 0.59857 0.49086 -0.35500
C 	C 	0.97967 0.60397 0.44866 0.38400
C 	C 	0.01951 0.58251 0.47578 -0.32900
C 	C 	0.99306 0.55736 0.54588 0.43300
C 	C 	0.03649 0.54029 0.57342 -0.94900
C 	C 	0.81660 0.55950 0.60620 -0.93700
C 	C 	0.00890 0.63360 0.37100 -0.85600
C 	C 	0.87577 0.62527 0.45946 0.27800
C 	C 	0.82280 0.59470 0.41460 0.87500
C 	C 	0.80440 0.64740 0.39860 -1.05400
C 	C 	0.77110 0.65930 0.36600 1.01400
C 	C 	0.75810 0.62360 0.34840 -0.97300
C 	C 	0.77850 0.57070 0.36060 0.81400
C 	C 	0.81200 0.55630 0.39600 -0.89400
C 	C 	0.72500 0.64270 0.30940 0.83000
C 	C 	0.70510 0.68940 0.29360 -0.83000
C 	C 	0.08623 0.58413 0.43174 0.22000
C 	C 	0.19369 0.65159 0.36802 0.30200
C 	C 	0.21950 0.60990 0.35100 -0.30900
C 	C 	0.28730 0.62050 0.31800 0.15300
C 	C 	0.32610 0.67240 0.30100 -0.17600
C 	C 	0.29930 0.72170 0.31000 0.12700
C 	C 	0.23290 0.70840 0.34680 -0.27500
C 	C 	0.39700 0.67970 0.27020 0.20500
C 	C 	0.43900 0.72550 0.25460 -0.40100
C 	C 	0.51080 0.73180 0.22640 0.55900
C 	C 	0.67100 0.70400 0.25360 0.61700
O 	O 	0.66519 0.70919 0.10682 -0.54100
O 	O 	0.68758 0.81028 0.09024 -0.56700
O 	O 	0.93408 0.85508 0.69164 -0.31200
O 	O 	0.96700 0.95110 0.40520 -0.29600
O 	O 	0.19575 0.97385 0.45010 -0.44600
O 	O 	0.74062 0.00862 0.21516 -0.63100
O 	O 	0.75300 0.09510 0.22080 -0.58700
O 	O 	0.59990 0.99970 0.23420 -0.58600
O 	O 	0.59910 0.08970 0.24460 -0.61600
O 	O 	0.72799 0.18399 0.10682 -0.54100
O 	O 	0.72218 0.09948 0.09024 -0.56700
O 	O 	0.87428 0.45328 0.69164 -0.31100
O 	O 	0.12780 0.64370 0.40520 -0.29900
O 	O 	0.85415 0.57605 0.45010 -0.43900
O 	O 	0.54422 0.77622 0.21516 -0.63200
O 	O 	0.52620 0.68410 0.22080 -0.58700
O 	O 	0.66590 0.76610 0.23420 -0.58500
O 	O 	0.65630 0.66570 0.24460 -0.61300
