data_crystal

_cell_length_a 5.50600
_cell_length_b 7.94600
_cell_length_c 7.94600
_cell_angle_alpha 108.10000
_cell_angle_beta  90.22310
_cell_angle_gamma 90.22310

_symmetry_space_group_name_	'P 1'
_symmetry_space_group_name_H-M	'P 1'

loop_
_symmetry_equiv_pos_as_xyz
  x,y,z

loop_
_atom_site_label
_atom_site_type_symbol
_atom_site_fract_x
_atom_site_fract_y
_atom_site_fract_z
_atom_site_charge
Co	Co	0.50000 0.00000 -0.00000 1.12200
Co	Co	-0.00000 0.12055 0.87945 1.06300
Co	Co	-0.00000 0.87945 0.12055 1.06300
H 	H 	0.16420 0.82130 0.82130 0.43800
H 	H 	0.83580 0.17870 0.17870 0.55700
C 	C 	0.34170 0.05170 0.56710 -0.01900
C 	C 	0.57500 0.99230 0.61570 0.17400
C 	C 	0.65830 0.43290 0.94830 0.12200
C 	C 	0.42500 0.38430 0.00770 0.01800
C 	C 	0.65830 0.94830 0.43290 0.12200
C 	C 	0.42500 0.00770 0.38430 0.01800
C 	C 	0.34170 0.56710 0.05170 -0.01900
C 	C 	0.57500 0.61570 0.99230 0.17400
O 	O 	0.15090 0.11760 0.64320 -0.43700
O 	O 	0.67140 0.98145 0.75675 -0.31400
O 	O 	0.84910 0.35680 0.88240 -0.17500
O 	O 	0.32860 0.24325 0.01855 -0.51000
O 	O 	0.84910 0.88240 0.35680 -0.17500
O 	O 	0.32860 0.01855 0.24325 -0.51000
O 	O 	0.15090 0.64320 0.11760 -0.43700
O 	O 	0.67140 0.75675 0.98145 -0.31400
O 	O 	0.17530 0.89860 0.89860 -0.95700
O 	O 	0.82470 0.10140 0.10140 -1.00400
