data_crystal

_cell_length_a 13.49950
_cell_length_b 12.42120
_cell_length_c 40.15300
_cell_angle_alpha 90.00000
_cell_angle_beta  108.43800
_cell_angle_gamma 90.00000

_symmetry_space_group_name_	'P 1'
_symmetry_space_group_name_H-M	'P 1'

loop_
_symmetry_equiv_pos_as_xyz
  x,y,z

loop_
_atom_site_label
_atom_site_type_symbol
_atom_site_fract_x
_atom_site_fract_y
_atom_site_fract_z
_atom_site_charge
Ni	Ni	0.67903 0.38792 0.30752 1.08200
Ni	Ni	0.87118 0.09473 0.57757 1.08200
O 	O 	0.77990 0.23610 0.57835 -0.37000
O 	O 	0.67780 0.35480 0.54228 -0.23600
O 	O 	0.93874 0.97079 0.55275 -0.35700
O 	O 	0.91953 0.90870 0.49866 -0.24300
O 	O 	0.73725 0.23072 0.30377 -0.37600
O 	O 	0.79589 0.08310 0.33615 -0.26500
O 	O 	0.63273 0.52211 0.33543 -0.36700
O 	O 	0.59370 0.55310 0.38476 -0.24200
N 	N 	0.94400 0.58370 0.32250 -0.12500
N 	N 	0.82600 0.45790 0.31954 -0.22800
N 	N 	0.64360 0.83340 0.21220 -0.12400
N 	N 	0.47480 0.83370 0.20446 -0.22300
N 	N 	0.96650 0.55500 0.17419 -0.12300
N 	N 	0.91010 0.44850 0.12872 -0.23700
N 	N 	0.82350 0.13840 0.52767 -0.21400
N 	N 	0.70724 0.33260 0.35609 -0.21300
N 	N 	0.53820 0.47790 0.20318 -0.12600
N 	N 	0.64070 0.43490 0.25587 -0.23400
N 	N 	0.16660 0.26590 0.08674 -0.11800
N 	N 	0.00880 0.31660 0.08586 -0.22400
N 	N 	0.58160 0.57180 0.06042 -0.12800
N 	N 	0.73820 0.50490 0.06829 -0.22000
C 	C 	0.95520 0.71580 0.27806 -0.17200
C 	C 	0.87410 0.78900 0.26454 0.22300
C 	C 	0.83520 0.80580 0.22821 -0.17700
C 	C 	0.88130 0.75550 0.20573 0.22000
C 	C 	0.96760 0.68950 0.22000 -0.16900
C 	C 	0.00280 0.66550 0.25565 0.22600
C 	C 	0.73840 0.27780 0.54875 0.28600
C 	C 	0.90900 0.97730 0.51934 0.28200
C 	C 	0.76200 0.17550 0.33215 0.28100
C 	C 	0.63320 0.49860 0.36600 0.27100
C 	C 	0.99070 0.68650 0.31623 0.00400
H 	H 	0.06780 0.68020 0.32470 0.02700
H 	H 	0.97080 0.74460 0.32980 0.02800
C 	C 	0.84500 0.55090 0.30733 0.09100
H 	H 	0.79440 0.59070 0.28980 -0.01100
C 	C 	0.91800 0.43010 0.34444 0.01200
H 	H 	0.92900 0.36650 0.35830 0.02000
C 	C 	0.99120 0.50700 0.34641 -0.01700
H 	H 	0.06140 0.50710 0.36150 0.03100
C 	C 	0.82710 0.84790 0.28907 -0.59100
H 	H 	0.80090 0.79540 0.30250 0.19300
H 	H 	0.76930 0.89340 0.27530 0.20400
H 	H 	0.88060 0.89290 0.30530 0.20500
C 	C 	0.74380 0.88160 0.21297 0.00300
H 	H 	0.75520 0.94830 0.22720 0.01800
H 	H 	0.74060 0.90160 0.18880 0.02400
C 	C 	0.55240 0.88310 0.19756 0.07900
H 	H 	0.54440 0.94660 0.18380 0.00700
C 	C 	0.51900 0.74850 0.22530 0.00500
H 	H 	0.48270 0.69850 0.23510 0.02200
C 	C 	0.62260 0.74640 0.22990 -0.01400
H 	H 	0.67140 0.69460 0.24290 0.03600
C 	C 	0.83750 0.77190 0.16624 -0.57500
H 	H 	0.76120 0.76640 0.15880 0.19100
H 	H 	0.86560 0.71670 0.15430 0.20000
H 	H 	0.85750 0.84340 0.16020 0.18900
C 	C 	0.02500 0.64360 0.19614 -0.01000
H 	H 	0.03630 0.70150 0.18080 0.04000
H 	H 	0.09430 0.61680 0.21070 0.04500
C 	C 	0.97240 0.52870 0.14276 0.07800
H 	H 	0.01650 0.56380 0.13180 0.00600
C 	C 	0.86200 0.42100 0.15304 0.00300
H 	H 	0.81210 0.36510 0.15040 0.02300
C 	C 	0.89700 0.48600 0.18117 -0.01000
H 	H 	0.87720 0.48420 0.20190 0.03300
C 	C 	0.08870 0.58480 0.27029 -0.59500
H 	H 	0.15650 0.61940 0.27380 0.19800
H 	H 	0.08030 0.52470 0.25380 0.20200
H 	H 	0.08530 0.55780 0.29280 0.20400
C 	C 	0.76600 0.22650 0.51837 -0.00500
C 	C 	0.73680 0.26440 0.48439 -0.06600
H 	H 	0.69560 0.32770 0.47810 0.06300
C 	C 	0.76850 0.20880 0.45931 0.02700
C 	C 	0.82560 0.11420 0.46973 -0.05900
H 	H 	0.84660 0.07310 0.45320 0.06800
C 	C 	0.85160 0.08040 0.50426 -0.00300
C 	C 	0.68350 0.39130 0.38028 -0.00600
C 	C 	0.70150 0.35280 0.41381 -0.07200
H 	H 	0.68510 0.39600 0.43090 0.06400
C 	C 	0.74380 0.25050 0.42274 0.02400
C 	C 	0.76360 0.18870 0.39637 -0.06500
H 	H 	0.78950 0.11730 0.40110 0.06200
C 	C 	0.74500 0.23320 0.36337 -0.01200
C 	C 	0.42550 0.48370 0.13974 -0.17400
C 	C 	0.36470 0.39190 0.12823 0.24000
C 	C 	0.33570 0.36180 0.09286 -0.16500
C 	C 	0.37450 0.42030 0.06947 0.23200
C 	C 	0.43520 0.51160 0.08154 -0.17700
C 	C 	0.46200 0.54450 0.11668 0.23900
C 	C 	0.44440 0.52300 0.17673 -0.00300
H 	H 	0.45080 0.60240 0.17690 0.03300
H 	H 	0.38250 0.50520 0.18380 0.04200
C 	C 	0.54850 0.47230 0.23733 0.08500
H 	H 	0.49560 0.49280 0.24710 -0.00900
C 	C 	0.69260 0.41560 0.23183 0.00600
H 	H 	0.76150 0.38810 0.23720 0.01800
C 	C 	0.62920 0.44220 0.19922 -0.00600
H 	H 	0.64520 0.43700 0.17790 0.03400
C 	C 	0.32880 0.32540 0.15392 -0.60700
H 	H 	0.26150 0.35270 0.15480 0.20700
H 	H 	0.38060 0.33040 0.17730 0.20900
H 	H 	0.32110 0.25000 0.14630 0.22000
C 	C 	0.26750 0.26420 0.08005 -0.01000
H 	H 	0.25410 0.25700 0.05450 0.04600
H 	H 	0.30650 0.19950 0.09140 0.05600
C 	C 	0.09620 0.34540 0.08000 0.09900
H 	H 	0.10770 0.41470 0.07190 0.01300
C 	C 	0.02470 0.21340 0.09718 0.01900
H 	H 	0.97540 0.17040 0.10350 0.02400
C 	C 	0.12140 0.18060 0.09811 -0.01200
H 	H 	0.15180 0.11190 0.10520 0.04200
C 	C 	0.35350 0.38080 0.03220 -0.60400
H 	H 	0.27940 0.39060 0.01900 0.21500
H 	H 	0.37150 0.30430 0.03250 0.21100
H 	H 	0.39610 0.42200 0.02090 0.20700
C 	C 	0.46990 0.58230 0.05649 0.00400
H 	H 	0.42860 0.56350 0.03210 0.02700
H 	H 	0.45490 0.65840 0.06050 0.03400
C 	C 	0.64090 0.48340 0.06639 0.08800
H 	H 	0.61600 0.41340 0.06900 0.00600
C 	C 	0.74020 0.61410 0.06346 -0.00400
H 	H 	0.80020 0.65420 0.06360 0.03000
C 	C 	0.64460 0.65620 0.05848 -0.01500
H 	H 	0.62490 0.72970 0.05440 0.03500
C 	C 	0.52860 0.64260 0.12952 -0.61000
H 	H 	0.58280 0.64650 0.11810 0.20800
H 	H 	0.56150 0.63780 0.15500 0.20900
H 	H 	0.48490 0.70730 0.12380 0.20800
Ni	Ni	0.32097 0.88792 0.19248 1.08000
Ni	Ni	0.12882 0.59473 0.92243 1.08200
O 	O 	0.22010 0.73610 0.92165 -0.37000
O 	O 	0.32220 0.85480 0.95772 -0.23700
O 	O 	0.06126 0.47079 0.94725 -0.36000
O 	O 	0.08047 0.40870 0.00134 -0.24400
O 	O 	0.26275 0.73072 0.19623 -0.37700
O 	O 	0.20411 0.58310 0.16385 -0.26600
O 	O 	0.36727 0.02211 0.16457 -0.36200
O 	O 	0.40630 0.05310 0.11524 -0.23900
N 	N 	0.05600 0.08370 0.17750 -0.12900
N 	N 	0.17400 0.95790 0.18046 -0.23000
N 	N 	0.35640 0.33340 0.28780 -0.12500
N 	N 	0.52520 0.33370 0.29554 -0.22400
N 	N 	0.03350 0.05500 0.32581 -0.12100
N 	N 	0.08990 0.94850 0.37128 -0.24300
N 	N 	0.17650 0.63840 0.97233 -0.21400
N 	N 	0.29276 0.83260 0.14391 -0.21400
N 	N 	0.46180 0.97790 0.29682 -0.12800
N 	N 	0.35930 0.93490 0.24413 -0.23500
N 	N 	0.83340 0.76590 0.41326 -0.11800
N 	N 	0.99120 0.81660 0.41414 -0.22300
N 	N 	0.41840 0.07180 0.43958 -0.12600
N 	N 	0.26180 0.00490 0.43171 -0.21800
C 	C 	0.04480 0.21580 0.22194 -0.17100
C 	C 	0.12590 0.28900 0.23546 0.22200
C 	C 	0.16480 0.30580 0.27179 -0.17600
C 	C 	0.11870 0.25550 0.29427 0.21900
C 	C 	0.03240 0.18950 0.28000 -0.16400
C 	C 	0.99720 0.16550 0.24435 0.22300
C 	C 	0.26160 0.77780 0.95125 0.28600
C 	C 	0.09100 0.47730 0.98066 0.27900
C 	C 	0.23800 0.67550 0.16785 0.28100
C 	C 	0.36680 0.99860 0.13400 0.26300
C 	C 	0.00930 0.18650 0.18377 0.00700
H 	H 	0.93220 0.18020 0.17530 0.02500
H 	H 	0.02920 0.24460 0.17020 0.02700
C 	C 	0.15500 0.05090 0.19267 0.09800
H 	H 	0.20560 0.09070 0.21020 -0.01200
C 	C 	0.08200 0.93010 0.15556 -0.00200
H 	H 	0.07100 0.86650 0.14170 0.02500
C 	C 	0.00880 0.00700 0.15359 0.00200
H 	H 	0.93860 0.00710 0.13850 0.02300
C 	C 	0.17290 0.34790 0.21093 -0.59000
H 	H 	0.19910 0.29540 0.19750 0.19300
H 	H 	0.23070 0.39340 0.22470 0.20400
H 	H 	0.11940 0.39290 0.19470 0.20500
C 	C 	0.25620 0.38160 0.28703 0.00200
H 	H 	0.24480 0.44830 0.27280 0.01800
H 	H 	0.25940 0.40160 0.31120 0.02500
C 	C 	0.44760 0.38310 0.30244 0.07900
H 	H 	0.45560 0.44660 0.31620 0.00800
C 	C 	0.48100 0.24850 0.27470 0.00500
H 	H 	0.51730 0.19850 0.26490 0.02300
C 	C 	0.37740 0.24640 0.27010 -0.01400
H 	H 	0.32860 0.19460 0.25710 0.03700
C 	C 	0.16250 0.27190 0.33376 -0.57400
H 	H 	0.23880 0.26640 0.34120 0.19100
H 	H 	0.13440 0.21670 0.34570 0.20000
H 	H 	0.14250 0.34340 0.33980 0.18900
C 	C 	0.97500 0.14360 0.30386 -0.01500
H 	H 	0.96370 0.20150 0.31920 0.04100
H 	H 	0.90570 0.11680 0.28930 0.04600
C 	C 	0.02760 0.02870 0.35724 0.08800
H 	H 	0.98350 0.06380 0.36820 0.00100
C 	C 	0.13800 0.92100 0.34696 0.00500
H 	H 	0.18790 0.86510 0.34960 0.02200
C 	C 	0.10300 0.98600 0.31883 -0.01800
H 	H 	0.12280 0.98420 0.29810 0.03400
C 	C 	0.91130 0.08480 0.22971 -0.59300
H 	H 	0.84350 0.11940 0.22620 0.19800
H 	H 	0.91970 0.02470 0.24620 0.20200
H 	H 	0.91470 0.05780 0.20720 0.20300
C 	C 	0.23400 0.72650 0.98163 -0.00500
C 	C 	0.26320 0.76440 0.01561 -0.06600
H 	H 	0.30440 0.82770 0.02190 0.06300
C 	C 	0.23150 0.70880 0.04069 0.02700
C 	C 	0.17440 0.61420 0.03027 -0.06100
H 	H 	0.15340 0.57310 0.04680 0.06900
C 	C 	0.14840 0.58040 0.99574 0.00100
C 	C 	0.31650 0.89130 0.11972 -0.00400
C 	C 	0.29850 0.85280 0.08619 -0.07300
H 	H 	0.31490 0.89600 0.06910 0.06400
C 	C 	0.25620 0.75050 0.07726 0.02500
C 	C 	0.23640 0.68870 0.10363 -0.06500
H 	H 	0.21050 0.61730 0.09890 0.06200
C 	C 	0.25500 0.73320 0.13663 -0.01200
C 	C 	0.57450 0.98370 0.36026 -0.18100
C 	C 	0.63530 0.89190 0.37177 0.24300
C 	C 	0.66430 0.86180 0.40714 -0.16700
C 	C 	0.62550 0.92030 0.43053 0.23300
C 	C 	0.56480 0.01160 0.41846 -0.17800
C 	C 	0.53800 0.04450 0.38332 0.24400
C 	C 	0.55560 0.02300 0.32327 0.00500
H 	H 	0.54920 0.10240 0.32310 0.03200
H 	H 	0.61750 0.00520 0.31620 0.04100
C 	C 	0.45150 0.97230 0.26267 0.08500
H 	H 	0.50440 0.99280 0.25290 -0.01000
C 	C 	0.30740 0.91560 0.26817 0.00500
H 	H 	0.23850 0.88810 0.26280 0.01700
C 	C 	0.37080 0.94220 0.30078 -0.00600
H 	H 	0.35480 0.93700 0.32210 0.03300
C 	C 	0.67120 0.82540 0.34608 -0.60900
H 	H 	0.73850 0.85270 0.34520 0.20700
H 	H 	0.61940 0.83040 0.32270 0.21000
H 	H 	0.67890 0.75000 0.35370 0.22100
C 	C 	0.73250 0.76420 0.41995 -0.00900
H 	H 	0.74590 0.75700 0.44550 0.04500
H 	H 	0.69350 0.69950 0.40860 0.05600
C 	C 	0.90380 0.84540 0.42000 0.09900
H 	H 	0.89230 0.91470 0.42810 0.01300
C 	C 	0.97530 0.71340 0.40282 0.01600
H 	H 	0.02460 0.67040 0.39650 0.02500
C 	C 	0.87860 0.68060 0.40189 -0.01100
H 	H 	0.84820 0.61190 0.39480 0.04100
C 	C 	0.64650 0.88080 0.46780 -0.60500
H 	H 	0.72060 0.89060 0.48100 0.21500
H 	H 	0.62850 0.80430 0.46750 0.21100
H 	H 	0.60390 0.92200 0.47910 0.20800
C 	C 	0.53010 0.08230 0.44351 0.00400
H 	H 	0.57140 0.06350 0.46790 0.02700
H 	H 	0.54510 0.15840 0.43950 0.03300
C 	C 	0.35910 0.98340 0.43361 0.08300
H 	H 	0.38400 0.91340 0.43100 0.00700
C 	C 	0.25980 0.11410 0.43654 -0.00400
H 	H 	0.19980 0.15420 0.43640 0.03000
C 	C 	0.35540 0.15620 0.44152 -0.01500
H 	H 	0.37510 0.22970 0.44560 0.03500
C 	C 	0.47140 0.14260 0.37048 -0.61500
H 	H 	0.41720 0.14650 0.38190 0.20900
H 	H 	0.43850 0.13780 0.34500 0.21100
H 	H 	0.51510 0.20730 0.37620 0.21000
Ni	Ni	0.32097 0.61208 0.69248 1.08100
Ni	Ni	0.12882 0.90527 0.42243 1.08100
O 	O 	0.22010 0.76390 0.42165 -0.37100
O 	O 	0.32220 0.64520 0.45772 -0.23700
O 	O 	0.06126 0.02921 0.44725 -0.35800
O 	O 	0.08047 0.09130 0.50134 -0.24400
O 	O 	0.26275 0.76928 0.69623 -0.37700
O 	O 	0.20411 0.91690 0.66385 -0.26600
O 	O 	0.36727 0.47789 0.66457 -0.36800
O 	O 	0.40630 0.44690 0.61524 -0.24300
N 	N 	0.05600 0.41630 0.67750 -0.12600
N 	N 	0.17400 0.54210 0.68046 -0.22900
N 	N 	0.35640 0.16660 0.78780 -0.12500
N 	N 	0.52520 0.16630 0.79554 -0.22400
N 	N 	0.03350 0.44500 0.82581 -0.12400
N 	N 	0.08990 0.55150 0.87128 -0.23800
N 	N 	0.17650 0.86160 0.47233 -0.21400
N 	N 	0.29276 0.66740 0.64391 -0.21300
N 	N 	0.46180 0.52210 0.79682 -0.12600
N 	N 	0.35930 0.56510 0.74413 -0.23400
N 	N 	0.83340 0.73410 0.91326 -0.11800
N 	N 	0.99120 0.68340 0.91414 -0.22400
N 	N 	0.41840 0.42820 0.93958 -0.12800
N 	N 	0.26180 0.49510 0.93171 -0.22000
C 	C 	0.04480 0.28420 0.72194 -0.17200
C 	C 	0.12590 0.21100 0.73546 0.22300
C 	C 	0.16480 0.19420 0.77179 -0.17700
C 	C 	0.11870 0.24450 0.79427 0.22000
C 	C 	0.03240 0.31050 0.78000 -0.16900
C 	C 	0.99720 0.33450 0.74435 0.22600
C 	C 	0.26160 0.72220 0.45125 0.28600
C 	C 	0.09100 0.02270 0.48066 0.28200
C 	C 	0.23800 0.82450 0.66785 0.28100
C 	C 	0.36680 0.50140 0.63400 0.27100
C 	C 	0.00930 0.31350 0.68377 0.00400
H 	H 	0.93220 0.31980 0.67530 0.02700
H 	H 	0.02920 0.25540 0.67020 0.02800
C 	C 	0.15500 0.44910 0.69267 0.09100
H 	H 	0.20560 0.40930 0.71020 -0.01100
C 	C 	0.08200 0.56990 0.65556 0.01200
H 	H 	0.07100 0.63350 0.64170 0.02000
C 	C 	0.00880 0.49300 0.65359 -0.01700
H 	H 	0.93860 0.49290 0.63850 0.03100
C 	C 	0.17290 0.15210 0.71093 -0.59100
H 	H 	0.19910 0.20460 0.69750 0.19300
H 	H 	0.23070 0.10660 0.72470 0.20400
H 	H 	0.11940 0.10710 0.69470 0.20500
C 	C 	0.25620 0.11840 0.78703 0.00300
H 	H 	0.24480 0.05170 0.77280 0.01800
H 	H 	0.25940 0.09840 0.81120 0.02400
C 	C 	0.44760 0.11690 0.80244 0.07900
H 	H 	0.45560 0.05340 0.81620 0.00700
C 	C 	0.48100 0.25150 0.77470 0.00500
H 	H 	0.51730 0.30150 0.76490 0.02200
C 	C 	0.37740 0.25360 0.77010 -0.01400
H 	H 	0.32860 0.30540 0.75710 0.03600
C 	C 	0.16250 0.22810 0.83376 -0.57500
H 	H 	0.23880 0.23360 0.84120 0.19100
H 	H 	0.13440 0.28330 0.84570 0.20000
H 	H 	0.14250 0.15660 0.83980 0.18900
C 	C 	0.97500 0.35640 0.80386 -0.01000
H 	H 	0.96370 0.29850 0.81920 0.04000
H 	H 	0.90570 0.38320 0.78930 0.04500
C 	C 	0.02760 0.47130 0.85724 0.07800
H 	H 	0.98350 0.43620 0.86820 0.00600
C 	C 	0.13800 0.57900 0.84696 0.00300
H 	H 	0.18790 0.63490 0.84960 0.02300
C 	C 	0.10300 0.51400 0.81883 -0.01000
H 	H 	0.12280 0.51580 0.79810 0.03300
C 	C 	0.91130 0.41520 0.72971 -0.59500
H 	H 	0.84350 0.38060 0.72620 0.19800
H 	H 	0.91970 0.47530 0.74620 0.20200
H 	H 	0.91470 0.44220 0.70720 0.20400
C 	C 	0.23400 0.77350 0.48163 -0.00500
C 	C 	0.26320 0.73560 0.51561 -0.06600
H 	H 	0.30440 0.67230 0.52190 0.06300
C 	C 	0.23150 0.79120 0.54069 0.02700
C 	C 	0.17440 0.88580 0.53027 -0.05900
H 	H 	0.15340 0.92690 0.54680 0.06800
C 	C 	0.14840 0.91960 0.49574 -0.00300
C 	C 	0.31650 0.60870 0.61972 -0.00600
C 	C 	0.29850 0.64720 0.58619 -0.07200
H 	H 	0.31490 0.60400 0.56910 0.06400
C 	C 	0.25620 0.74950 0.57726 0.02400
C 	C 	0.23640 0.81130 0.60363 -0.06500
H 	H 	0.21050 0.88270 0.59890 0.06200
C 	C 	0.25500 0.76680 0.63663 -0.01200
C 	C 	0.57450 0.51630 0.86026 -0.17400
C 	C 	0.63530 0.60810 0.87177 0.24000
C 	C 	0.66430 0.63820 0.90714 -0.16500
C 	C 	0.62550 0.57970 0.93053 0.23200
C 	C 	0.56480 0.48840 0.91846 -0.17700
C 	C 	0.53800 0.45550 0.88332 0.23900
C 	C 	0.55560 0.47700 0.82327 -0.00300
H 	H 	0.54920 0.39760 0.82310 0.03300
H 	H 	0.61750 0.49480 0.81620 0.04200
C 	C 	0.45150 0.52770 0.76267 0.08500
H 	H 	0.50440 0.50720 0.75290 -0.00900
C 	C 	0.30740 0.58440 0.76817 0.00600
H 	H 	0.23850 0.61190 0.76280 0.01800
C 	C 	0.37080 0.55780 0.80078 -0.00600
H 	H 	0.35480 0.56300 0.82210 0.03400
C 	C 	0.67120 0.67460 0.84608 -0.60700
H 	H 	0.73850 0.64730 0.84520 0.20700
H 	H 	0.61940 0.66960 0.82270 0.20900
H 	H 	0.67890 0.75000 0.85370 0.22000
C 	C 	0.73250 0.73580 0.91995 -0.01000
H 	H 	0.74590 0.74300 0.94550 0.04600
H 	H 	0.69350 0.80050 0.90860 0.05600
C 	C 	0.90380 0.65460 0.92000 0.09900
H 	H 	0.89230 0.58530 0.92810 0.01300
C 	C 	0.97530 0.78660 0.90282 0.01900
H 	H 	0.02460 0.82960 0.89650 0.02400
C 	C 	0.87860 0.81940 0.90189 -0.01200
H 	H 	0.84820 0.88810 0.89480 0.04200
C 	C 	0.64650 0.61920 0.96780 -0.60400
H 	H 	0.72060 0.60940 0.98100 0.21500
H 	H 	0.62850 0.69570 0.96750 0.21100
H 	H 	0.60390 0.57800 0.97910 0.20700
C 	C 	0.53010 0.41770 0.94351 0.00400
H 	H 	0.57140 0.43650 0.96790 0.02700
H 	H 	0.54510 0.34160 0.93950 0.03400
C 	C 	0.35910 0.51660 0.93361 0.08800
H 	H 	0.38400 0.58660 0.93100 0.00600
C 	C 	0.25980 0.38590 0.93654 -0.00400
H 	H 	0.19980 0.34580 0.93640 0.03000
C 	C 	0.35540 0.34380 0.94152 -0.01500
H 	H 	0.37510 0.27030 0.94560 0.03500
C 	C 	0.47140 0.35740 0.87048 -0.61000
H 	H 	0.41720 0.35350 0.88190 0.20800
H 	H 	0.43850 0.36220 0.84500 0.20900
H 	H 	0.51510 0.29270 0.87620 0.20800
Ni	Ni	0.67903 0.11208 0.80752 1.08000
Ni	Ni	0.87118 0.40527 0.07757 1.08200
O 	O 	0.77990 0.26390 0.07835 -0.37000
O 	O 	0.67780 0.14520 0.04228 -0.23700
O 	O 	0.93874 0.52921 0.05275 -0.36000
O 	O 	0.91953 0.59130 0.99866 -0.24400
O 	O 	0.73725 0.26928 0.80377 -0.37700
O 	O 	0.79589 0.41690 0.83615 -0.26600
O 	O 	0.63273 0.97789 0.83543 -0.36200
O 	O 	0.59370 0.94690 0.88476 -0.23900
N 	N 	0.94400 0.91630 0.82250 -0.12900
N 	N 	0.82600 0.04210 0.81954 -0.23000
N 	N 	0.64360 0.66660 0.71220 -0.12500
N 	N 	0.47480 0.66630 0.70446 -0.22400
N 	N 	0.96650 0.94500 0.67419 -0.12100
N 	N 	0.91010 0.05150 0.62872 -0.24300
N 	N 	0.82350 0.36160 0.02767 -0.21400
N 	N 	0.70724 0.16740 0.85609 -0.21400
N 	N 	0.53820 0.02210 0.70318 -0.12800
N 	N 	0.64070 0.06510 0.75587 -0.23500
N 	N 	0.16660 0.23410 0.58674 -0.11800
N 	N 	0.00880 0.18340 0.58586 -0.22300
N 	N 	0.58160 0.92820 0.56042 -0.12600
N 	N 	0.73820 0.99510 0.56829 -0.21800
C 	C 	0.95520 0.78420 0.77806 -0.17100
C 	C 	0.87410 0.71100 0.76454 0.22200
C 	C 	0.83520 0.69420 0.72821 -0.17600
C 	C 	0.88130 0.74450 0.70573 0.21900
C 	C 	0.96760 0.81050 0.72000 -0.16400
C 	C 	0.00280 0.83450 0.75565 0.22300
C 	C 	0.73840 0.22220 0.04875 0.28600
C 	C 	0.90900 0.52270 0.01934 0.27900
C 	C 	0.76200 0.32450 0.83215 0.28100
C 	C 	0.63320 0.00140 0.86600 0.26300
C 	C 	0.99070 0.81350 0.81623 0.00700
H 	H 	0.06780 0.81980 0.82470 0.02500
H 	H 	0.97080 0.75540 0.82980 0.02700
C 	C 	0.84500 0.94910 0.80733 0.09800
H 	H 	0.79440 0.90930 0.78980 -0.01200
C 	C 	0.91800 0.06990 0.84444 -0.00200
H 	H 	0.92900 0.13350 0.85830 0.02500
C 	C 	0.99120 0.99300 0.84641 0.00200
H 	H 	0.06140 0.99290 0.86150 0.02300
C 	C 	0.82710 0.65210 0.78907 -0.59000
H 	H 	0.80090 0.70460 0.80250 0.19300
H 	H 	0.76930 0.60660 0.77530 0.20400
H 	H 	0.88060 0.60710 0.80530 0.20500
C 	C 	0.74380 0.61840 0.71297 0.00200
H 	H 	0.75520 0.55170 0.72720 0.01800
H 	H 	0.74060 0.59840 0.68880 0.02500
C 	C 	0.55240 0.61690 0.69756 0.07900
H 	H 	0.54440 0.55340 0.68380 0.00800
C 	C 	0.51900 0.75150 0.72530 0.00500
H 	H 	0.48270 0.80150 0.73510 0.02300
C 	C 	0.62260 0.75360 0.72990 -0.01400
H 	H 	0.67140 0.80540 0.74290 0.03700
C 	C 	0.83750 0.72810 0.66624 -0.57400
H 	H 	0.76120 0.73360 0.65880 0.19100
H 	H 	0.86560 0.78330 0.65430 0.20000
H 	H 	0.85750 0.65660 0.66020 0.18900
C 	C 	0.02500 0.85640 0.69614 -0.01500
H 	H 	0.03630 0.79850 0.68080 0.04100
H 	H 	0.09430 0.88320 0.71070 0.04600
C 	C 	0.97240 0.97130 0.64276 0.08800
H 	H 	0.01650 0.93620 0.63180 0.00100
C 	C 	0.86200 0.07900 0.65304 0.00500
H 	H 	0.81210 0.13490 0.65040 0.02200
C 	C 	0.89700 0.01400 0.68117 -0.01800
H 	H 	0.87720 0.01580 0.70190 0.03400
C 	C 	0.08870 0.91520 0.77029 -0.59300
H 	H 	0.15650 0.88060 0.77380 0.19800
H 	H 	0.08030 0.97530 0.75380 0.20200
H 	H 	0.08530 0.94220 0.79280 0.20300
C 	C 	0.76600 0.27350 0.01837 -0.00500
C 	C 	0.73680 0.23560 0.98439 -0.06600
H 	H 	0.69560 0.17230 0.97810 0.06300
C 	C 	0.76850 0.29120 0.95931 0.02700
C 	C 	0.82560 0.38580 0.96973 -0.06100
H 	H 	0.84660 0.42690 0.95320 0.06900
C 	C 	0.85160 0.41960 0.00426 0.00100
C 	C 	0.68350 0.10870 0.88028 -0.00400
C 	C 	0.70150 0.14720 0.91381 -0.07300
H 	H 	0.68510 0.10400 0.93090 0.06400
C 	C 	0.74380 0.24950 0.92274 0.02500
C 	C 	0.76360 0.31130 0.89637 -0.06500
H 	H 	0.78950 0.38270 0.90110 0.06200
C 	C 	0.74500 0.26680 0.86337 -0.01200
C 	C 	0.42550 0.01630 0.63974 -0.18100
C 	C 	0.36470 0.10810 0.62823 0.24300
C 	C 	0.33570 0.13820 0.59286 -0.16700
C 	C 	0.37450 0.07970 0.56947 0.23300
C 	C 	0.43520 0.98840 0.58154 -0.17800
C 	C 	0.46200 0.95550 0.61668 0.24400
C 	C 	0.44440 0.97700 0.67673 0.00500
H 	H 	0.45080 0.89760 0.67690 0.03200
H 	H 	0.38250 0.99480 0.68380 0.04100
C 	C 	0.54850 0.02770 0.73733 0.08500
H 	H 	0.49560 0.00720 0.74710 -0.01000
C 	C 	0.69260 0.08440 0.73183 0.00500
H 	H 	0.76150 0.11190 0.73720 0.01700
C 	C 	0.62920 0.05780 0.69922 -0.00600
H 	H 	0.64520 0.06300 0.67790 0.03300
C 	C 	0.32880 0.17460 0.65392 -0.60900
H 	H 	0.26150 0.14730 0.65480 0.20700
H 	H 	0.38060 0.16960 0.67730 0.21000
H 	H 	0.32110 0.25000 0.64630 0.22100
C 	C 	0.26750 0.23580 0.58005 -0.00900
H 	H 	0.25410 0.24300 0.55450 0.04500
H 	H 	0.30650 0.30050 0.59140 0.05600
C 	C 	0.09620 0.15460 0.58000 0.09900
H 	H 	0.10770 0.08530 0.57190 0.01300
C 	C 	0.02470 0.28660 0.59718 0.01600
H 	H 	0.97540 0.32960 0.60350 0.02500
C 	C 	0.12140 0.31940 0.59811 -0.01100
H 	H 	0.15180 0.38810 0.60520 0.04100
C 	C 	0.35350 0.11920 0.53220 -0.60500
H 	H 	0.27940 0.10940 0.51900 0.21500
H 	H 	0.37150 0.19570 0.53250 0.21100
H 	H 	0.39610 0.07800 0.52090 0.20800
C 	C 	0.46990 0.91770 0.55649 0.00400
H 	H 	0.42860 0.93650 0.53210 0.02700
H 	H 	0.45490 0.84160 0.56050 0.03300
C 	C 	0.64090 0.01660 0.56639 0.08300
H 	H 	0.61600 0.08660 0.56900 0.00700
C 	C 	0.74020 0.88590 0.56346 -0.00400
H 	H 	0.80020 0.84580 0.56360 0.03000
C 	C 	0.64460 0.84380 0.55848 -0.01500
H 	H 	0.62490 0.77030 0.55440 0.03500
C 	C 	0.52860 0.85740 0.62952 -0.61500
H 	H 	0.58280 0.85350 0.61810 0.20900
H 	H 	0.56150 0.86220 0.65500 0.21100
H 	H 	0.48490 0.79270 0.62380 0.21000
