data_crystal

_cell_length_a 13.54300
_cell_length_b 12.33800
_cell_length_c 40.26700
_cell_angle_alpha 90.00000
_cell_angle_beta  108.39500
_cell_angle_gamma 90.00000

_symmetry_space_group_name_	'P 1'
_symmetry_space_group_name_H-M	'P 1'

loop_
_symmetry_equiv_pos_as_xyz
  x,y,z

loop_
_atom_site_label
_atom_site_type_symbol
_atom_site_fract_x
_atom_site_fract_y
_atom_site_fract_z
_atom_site_charge
Co	Co	0.32068 0.38794 0.19318 1.14200
Co	Co	0.12711 0.40886 0.42064 1.14200
O 	O 	0.06060 0.53310 0.44687 -0.36700
O 	O 	0.07930 0.59540 0.50098 -0.24100
O 	O 	0.22320 0.26630 0.42180 -0.37800
O 	O 	0.32780 0.14940 0.45861 -0.23400
O 	O 	0.26125 0.27230 0.69500 -0.38900
O 	O 	0.20280 0.42120 0.66280 -0.27100
O 	O 	0.36500 0.97940 0.66371 -0.37500
O 	O 	0.40220 0.94730 0.61430 -0.24100
N 	N 	0.29040 0.16960 0.64310 -0.21100
N 	N 	0.17720 0.36510 0.47180 -0.21500
N 	N 	0.64510 0.33460 0.21176 -0.12500
N 	N 	0.47750 0.33230 0.20443 -0.22700
N 	N 	0.94560 0.08920 0.32286 -0.13000
N 	N 	0.82860 0.95960 0.31871 -0.23400
N 	N 	0.96880 0.05820 0.17630 -0.11900
N 	N 	0.91070 0.94960 0.13126 -0.25100
N 	N 	0.46530 0.47350 0.29849 -0.12400
N 	N 	0.36060 0.43280 0.24585 -0.24100
N 	N 	0.41890 0.57750 0.43914 -0.12600
N 	N 	0.26150 0.51190 0.43004 -0.22400
N 	N 	0.83450 0.26460 0.41583 -0.11900
N 	N 	0.98860 0.31690 0.41373 -0.22800
C 	C 	0.08990 0.52650 0.48015 0.28000
C 	C 	0.26470 0.22620 0.45137 0.28400
C 	C 	0.23590 0.32820 0.66673 0.28700
C 	C 	0.36340 0.00230 0.63319 0.26800
C 	C 	0.14720 0.42310 0.49501 -0.00400
C 	C 	0.17180 0.38880 0.52948 -0.06000
H 	H 	0.14990 0.42990 0.54580 0.06900
C 	C 	0.22840 0.29400 0.53993 0.02700
C 	C 	0.26300 0.23830 0.51510 -0.06700
H 	H 	0.30550 0.17570 0.52160 0.06300
C 	C 	0.23400 0.27640 0.48128 -0.00500
C 	C 	0.25320 0.27000 0.63569 -0.01600
C 	C 	0.23370 0.31430 0.60278 -0.06300
H 	H 	0.20820 0.38630 0.59810 0.06100
C 	C 	0.25250 0.25070 0.57631 0.02300
C 	C 	0.29400 0.14770 0.58515 -0.07100
H 	H 	0.30930 0.10350 0.56810 0.06300
C 	C 	0.31290 0.10980 0.61875 -0.00900
C 	C 	0.83690 0.31060 0.22868 -0.17800
C 	C 	0.87390 0.29530 0.26478 0.23100
C 	C 	0.95640 0.22280 0.27886 -0.17400
C 	C 	0.00590 0.17260 0.25710 0.22900
C 	C 	0.97140 0.19490 0.22150 -0.16600
C 	C 	0.88500 0.26010 0.20670 0.21300
C 	C 	0.74600 0.38490 0.21285 0.00600
H 	H 	0.75590 0.45260 0.22670 0.01600
H 	H 	0.74380 0.40410 0.18880 0.02300
C 	C 	0.55420 0.38410 0.19781 0.08000
H 	H 	0.54560 0.44920 0.18460 0.00600
C 	C 	0.52260 0.24530 0.22445 0.00400
H 	H 	0.48700 0.19330 0.23380 0.02100
C 	C 	0.62620 0.24470 0.22887 -0.01300
H 	H 	0.67570 0.19260 0.24130 0.03600
C 	C 	0.82410 0.35220 0.28854 -0.60800
H 	H 	0.76920 0.40070 0.27470 0.21000
H 	H 	0.87680 0.39450 0.30600 0.21100
H 	H 	0.79390 0.29840 0.30040 0.19900
C 	C 	0.99050 0.19380 0.31748 0.00800
H 	H 	0.06740 0.18950 0.32650 0.02500
H 	H 	0.96770 0.25110 0.33060 0.02500
C 	C 	0.84840 0.05440 0.30684 0.09600
H 	H 	0.79890 0.09370 0.28890 -0.01400
C 	C 	0.91970 0.93380 0.34453 -0.00600
H 	H 	0.93030 0.87050 0.35860 0.02400
C 	C 	0.99230 0.01190 0.34696 0.00300
H 	H 	0.06180 0.01270 0.36240 0.02300
C 	C 	0.09310 0.09430 0.27243 -0.60300
H 	H 	0.15970 0.13270 0.27850 0.20000
H 	H 	0.09160 0.03740 0.25530 0.20400
H 	H 	0.08480 0.06140 0.29350 0.20600
C 	C 	0.02850 0.14700 0.19804 -0.01000
H 	H 	0.04100 0.20450 0.18270 0.03700
H 	H 	0.09700 0.11910 0.21270 0.04200
C 	C 	0.97380 0.02930 0.14487 0.08700
H 	H 	0.01810 0.06290 0.13370 -0.00300
C 	C 	0.86200 0.92520 0.15552 0.00700
H 	H 	0.81070 0.87050 0.15300 0.01800
C 	C 	0.89830 0.99100 0.18336 -0.01900
H 	H 	0.87850 0.99060 0.20400 0.03500
C 	C 	0.84200 0.27470 0.16692 -0.55600
H 	H 	0.89050 0.24290 0.15600 0.19300
H 	H 	0.83350 0.35210 0.16130 0.18400
H 	H 	0.77440 0.23840 0.15800 0.18700
C 	C 	0.57730 0.48080 0.36134 -0.16700
C 	C 	0.54040 0.54440 0.38414 0.22800
C 	C 	0.56570 0.51350 0.41922 -0.16900
C 	C 	0.62560 0.42120 0.43180 0.22400
C 	C 	0.66630 0.36090 0.40932 -0.16200
C 	C 	0.63790 0.38850 0.37377 0.23800
C 	C 	0.56000 0.51790 0.32448 -0.00400
H 	H 	0.55550 0.59800 0.32390 0.03300
H 	H 	0.62120 0.49700 0.31750 0.04200
C 	C 	0.45430 0.46720 0.26423 0.08000
H 	H 	0.50740 0.48530 0.25440 -0.01100
C 	C 	0.30970 0.41770 0.27000 0.01000
H 	H 	0.23990 0.39320 0.26470 0.01400
C 	C 	0.37270 0.44240 0.30235 -0.01000
H 	H 	0.35620 0.43890 0.32360 0.03500
C 	C 	0.47530 0.64430 0.37072 -0.59600
H 	H 	0.41800 0.64740 0.38060 0.20400
H 	H 	0.44710 0.64110 0.34510 0.20500
H 	H 	0.51880 0.70910 0.37770 0.20500
C 	C 	0.53090 0.58710 0.44357 -0.00200
H 	H 	0.57120 0.56930 0.46810 0.03000
H 	H 	0.54660 0.66320 0.43920 0.03500
C 	C 	0.35940 0.48900 0.43249 0.08300
H 	H 	0.38390 0.41840 0.42980 0.00600
C 	C 	0.26090 0.62100 0.43547 -0.00100
H 	H 	0.20120 0.66170 0.43530 0.02700
C 	C 	0.35640 0.66310 0.44111 -0.01800
H 	H 	0.37640 0.73680 0.44550 0.03700
C 	C 	0.64360 0.38340 0.46917 -0.59300
H 	H 	0.59320 0.41850 0.47860 0.20400
H 	H 	0.71430 0.40280 0.48360 0.21000
H 	H 	0.63500 0.30460 0.46950 0.20700
C 	C 	0.73440 0.26400 0.42301 -0.01000
H 	H 	0.74850 0.25980 0.44860 0.04600
H 	H 	0.69570 0.19780 0.41260 0.05600
C 	C 	0.90120 0.34620 0.41947 0.10000
H 	H 	0.88770 0.41780 0.42550 0.00900
C 	C 	0.97720 0.20890 0.40628 0.01500
H 	H 	0.02720 0.16420 0.40090 0.02300
C 	C 	0.88280 0.17510 0.40769 -0.00900
H 	H 	0.85560 0.10350 0.40380 0.04100
C 	C 	0.67370 0.32030 0.34863 -0.61000
H 	H 	0.74030 0.34800 0.34750 0.20800
H 	H 	0.62180 0.32350 0.32530 0.20900
H 	H 	0.68230 0.24500 0.35680 0.22300
Co	Co	0.67932 0.88794 0.30682 1.14000
Co	Co	0.87289 0.90886 0.07936 1.14000
O 	O 	0.93940 0.03310 0.05313 -0.36600
O 	O 	0.92070 0.09540 0.99902 -0.24300
O 	O 	0.77680 0.76630 0.07820 -0.37900
O 	O 	0.67220 0.64940 0.04139 -0.23400
O 	O 	0.73875 0.77230 0.80500 -0.38800
O 	O 	0.79720 0.92120 0.83720 -0.27000
O 	O 	0.63500 0.47940 0.83629 -0.38100
O 	O 	0.59780 0.44730 0.88570 -0.24600
N 	N 	0.70960 0.66960 0.85690 -0.21100
N 	N 	0.82280 0.86510 0.02820 -0.21400
N 	N 	0.35490 0.83460 0.28824 -0.12500
N 	N 	0.52250 0.83230 0.29557 -0.22700
N 	N 	0.05440 0.58920 0.17714 -0.12600
N 	N 	0.17140 0.45960 0.18129 -0.23200
N 	N 	0.03120 0.55820 0.32370 -0.12200
N 	N 	0.08930 0.44960 0.36874 -0.24600
N 	N 	0.53470 0.97350 0.20151 -0.12700
N 	N 	0.63940 0.93280 0.25415 -0.24200
N 	N 	0.58110 0.07750 0.06086 -0.12400
N 	N 	0.73850 0.01190 0.06996 -0.22100
N 	N 	0.16550 0.76460 0.08417 -0.11900
N 	N 	0.01140 0.81690 0.08627 -0.22800
C 	C 	0.91010 0.02650 0.01985 0.28300
C 	C 	0.73530 0.72620 0.04863 0.28400
C 	C 	0.76410 0.82820 0.83327 0.28700
C 	C 	0.63660 0.50230 0.86681 0.27800
C 	C 	0.85280 0.92310 0.00499 -0.00800
C 	C 	0.82820 0.88880 0.97052 -0.05800
H 	H 	0.85010 0.92990 0.95420 0.06800
C 	C 	0.77160 0.79400 0.96007 0.02700
C 	C 	0.73700 0.73830 0.98490 -0.06600
H 	H 	0.69450 0.67570 0.97840 0.06300
C 	C 	0.76600 0.77640 0.01872 -0.00500
C 	C 	0.74680 0.77000 0.86431 -0.01600
C 	C 	0.76630 0.81430 0.89722 -0.06200
H 	H 	0.79180 0.88630 0.90190 0.06100
C 	C 	0.74750 0.75070 0.92369 0.02300
C 	C 	0.70600 0.64770 0.91485 -0.07000
H 	H 	0.69070 0.60350 0.93190 0.06400
C 	C 	0.68710 0.60980 0.88125 -0.01100
C 	C 	0.16310 0.81060 0.27132 -0.17900
C 	C 	0.12610 0.79530 0.23522 0.23200
C 	C 	0.04360 0.72280 0.22114 -0.17500
C 	C 	0.99410 0.67260 0.24290 0.23100
C 	C 	0.02860 0.69490 0.27850 -0.17100
C 	C 	0.11500 0.76010 0.29330 0.21500
C 	C 	0.25400 0.88490 0.28715 0.00700
H 	H 	0.24410 0.95260 0.27330 0.01500
H 	H 	0.25620 0.90410 0.31120 0.02200
C 	C 	0.44580 0.88410 0.30219 0.08000
H 	H 	0.45440 0.94920 0.31540 0.00500
C 	C 	0.47740 0.74530 0.27555 0.00300
H 	H 	0.51300 0.69330 0.26620 0.02000
C 	C 	0.37380 0.74470 0.27113 -0.01300
H 	H 	0.32430 0.69260 0.25870 0.03500
C 	C 	0.17590 0.85220 0.21146 -0.60800
H 	H 	0.23080 0.90070 0.22530 0.20900
H 	H 	0.12320 0.89450 0.19400 0.21100
H 	H 	0.20610 0.79840 0.19960 0.19900
C 	C 	0.00950 0.69380 0.18252 0.00500
H 	H 	0.93260 0.68950 0.17350 0.02600
H 	H 	0.03230 0.75110 0.16940 0.02600
C 	C 	0.15160 0.55440 0.19316 0.08900
H 	H 	0.20110 0.59370 0.21110 -0.01300
C 	C 	0.08030 0.43380 0.15547 0.01000
H 	H 	0.06970 0.37050 0.14140 0.01900
C 	C 	0.00770 0.51190 0.15304 -0.01700
H 	H 	0.93820 0.51270 0.13760 0.03100
C 	C 	0.90690 0.59430 0.22757 -0.60500
H 	H 	0.84030 0.63270 0.22150 0.20000
H 	H 	0.90840 0.53740 0.24470 0.20400
H 	H 	0.91520 0.56140 0.20650 0.20700
C 	C 	0.97150 0.64700 0.30196 -0.00600
H 	H 	0.95900 0.70450 0.31730 0.03600
H 	H 	0.90300 0.61910 0.28730 0.04100
C 	C 	0.02620 0.52930 0.35513 0.07600
H 	H 	0.98190 0.56290 0.36630 0.00200
C 	C 	0.13800 0.42520 0.34448 0.00500
H 	H 	0.18930 0.37050 0.34700 0.02000
C 	C 	0.10170 0.49100 0.31664 -0.01000
H 	H 	0.12150 0.49060 0.29600 0.03400
C 	C 	0.15800 0.77470 0.33308 -0.55800
H 	H 	0.10950 0.74290 0.34400 0.19300
H 	H 	0.16650 0.85210 0.33870 0.18400
H 	H 	0.22560 0.73840 0.34200 0.18700
C 	C 	0.42270 0.98080 0.13866 -0.17700
C 	C 	0.45960 0.04440 0.11586 0.23500
C 	C 	0.43430 0.01350 0.08078 -0.17000
C 	C 	0.37440 0.92120 0.06820 0.22400
C 	C 	0.33370 0.86090 0.09068 -0.16400
C 	C 	0.36210 0.88850 0.12623 0.24300
C 	C 	0.44000 0.01790 0.17552 0.01000
H 	H 	0.44450 0.09800 0.17610 0.02900
H 	H 	0.37880 0.99700 0.18250 0.03600
C 	C 	0.54570 0.96720 0.23577 0.08000
H 	H 	0.49260 0.98530 0.24560 -0.01200
C 	C 	0.69030 0.91770 0.23000 0.00900
H 	H 	0.76010 0.89320 0.23530 0.01300
C 	C 	0.62730 0.94240 0.19765 -0.01000
H 	H 	0.64380 0.93890 0.17640 0.03400
C 	C 	0.52470 0.14430 0.12928 -0.60300
H 	H 	0.58200 0.14740 0.11940 0.20600
H 	H 	0.55290 0.14110 0.15490 0.20700
H 	H 	0.48120 0.20910 0.12230 0.20700
C 	C 	0.46910 0.08710 0.05643 -0.00100
H 	H 	0.42880 0.06930 0.03190 0.03000
H 	H 	0.45340 0.16320 0.06080 0.03500
C 	C 	0.64060 0.98900 0.06751 0.07800
H 	H 	0.61610 0.91840 0.07020 0.00700
C 	C 	0.73910 0.12100 0.06453 -0.00000
H 	H 	0.79880 0.16170 0.06470 0.02700
C 	C 	0.64360 0.16310 0.05889 -0.01800
H 	H 	0.62360 0.23680 0.05450 0.03700
C 	C 	0.35640 0.88340 0.03083 -0.59300
H 	H 	0.40680 0.91850 0.02140 0.20500
H 	H 	0.28570 0.90280 0.01640 0.21000
H 	H 	0.36500 0.80460 0.03050 0.20700
C 	C 	0.26560 0.76400 0.07699 -0.00900
H 	H 	0.25150 0.75980 0.05140 0.04600
H 	H 	0.30430 0.69780 0.08740 0.05500
C 	C 	0.09880 0.84620 0.08053 0.10000
H 	H 	0.11230 0.91780 0.07450 0.00900
C 	C 	0.02280 0.70890 0.09372 0.01200
H 	H 	0.97280 0.66420 0.09910 0.02400
C 	C 	0.11720 0.67510 0.09231 -0.00800
H 	H 	0.14440 0.60350 0.09620 0.04000
C 	C 	0.32630 0.82030 0.15137 -0.61400
H 	H 	0.25970 0.84800 0.15250 0.20900
H 	H 	0.37820 0.82350 0.17470 0.21000
H 	H 	0.31770 0.74500 0.14320 0.22400
Co	Co	0.67932 0.61206 0.80682 1.14100
Co	Co	0.87289 0.59114 0.57936 1.14100
O 	O 	0.93940 0.46690 0.55313 -0.36800
O 	O 	0.92070 0.40460 0.49902 -0.24200
O 	O 	0.77680 0.73370 0.57820 -0.37800
O 	O 	0.67220 0.85060 0.54139 -0.23400
O 	O 	0.73875 0.72770 0.30500 -0.38900
O 	O 	0.79720 0.57880 0.33720 -0.27100
O 	O 	0.63500 0.02060 0.33629 -0.37500
O 	O 	0.59780 0.05270 0.38570 -0.24100
N 	N 	0.70960 0.83040 0.35690 -0.21100
N 	N 	0.82280 0.63490 0.52820 -0.21500
N 	N 	0.35490 0.66540 0.78824 -0.12500
N 	N 	0.52250 0.66770 0.79557 -0.22700
N 	N 	0.05440 0.91080 0.67714 -0.13000
N 	N 	0.17140 0.04040 0.68129 -0.23400
N 	N 	0.03120 0.94180 0.82370 -0.11900
N 	N 	0.08930 0.05040 0.86874 -0.25100
N 	N 	0.53470 0.52650 0.70151 -0.12400
N 	N 	0.63940 0.56720 0.75415 -0.24100
N 	N 	0.58110 0.42250 0.56086 -0.12600
N 	N 	0.73850 0.48810 0.56996 -0.22400
N 	N 	0.16550 0.73540 0.58417 -0.11900
N 	N 	0.01140 0.68310 0.58627 -0.22800
C 	C 	0.91010 0.47350 0.51985 0.28000
C 	C 	0.73530 0.77380 0.54863 0.28400
C 	C 	0.76410 0.67180 0.33327 0.28700
C 	C 	0.63660 0.99770 0.36681 0.26800
C 	C 	0.85280 0.57690 0.50499 -0.00400
C 	C 	0.82820 0.61120 0.47052 -0.06000
H 	H 	0.85010 0.57010 0.45420 0.06900
C 	C 	0.77160 0.70600 0.46007 0.02700
C 	C 	0.73700 0.76170 0.48490 -0.06700
H 	H 	0.69450 0.82430 0.47840 0.06300
C 	C 	0.76600 0.72360 0.51872 -0.00500
C 	C 	0.74680 0.73000 0.36431 -0.01600
C 	C 	0.76630 0.68570 0.39722 -0.06300
H 	H 	0.79180 0.61370 0.40190 0.06100
C 	C 	0.74750 0.74930 0.42369 0.02300
C 	C 	0.70600 0.85230 0.41485 -0.07100
H 	H 	0.69070 0.89650 0.43190 0.06300
C 	C 	0.68710 0.89020 0.38125 -0.00900
C 	C 	0.16310 0.68940 0.77132 -0.17800
C 	C 	0.12610 0.70470 0.73522 0.23100
C 	C 	0.04360 0.77720 0.72114 -0.17400
C 	C 	0.99410 0.82740 0.74290 0.22900
C 	C 	0.02860 0.80510 0.77850 -0.16600
C 	C 	0.11500 0.73990 0.79330 0.21300
C 	C 	0.25400 0.61510 0.78715 0.00600
H 	H 	0.24410 0.54740 0.77330 0.01600
H 	H 	0.25620 0.59590 0.81120 0.02300
C 	C 	0.44580 0.61590 0.80219 0.08000
H 	H 	0.45440 0.55080 0.81540 0.00600
C 	C 	0.47740 0.75470 0.77555 0.00400
H 	H 	0.51300 0.80670 0.76620 0.02100
C 	C 	0.37380 0.75530 0.77113 -0.01300
H 	H 	0.32430 0.80740 0.75870 0.03600
C 	C 	0.17590 0.64780 0.71146 -0.60800
H 	H 	0.23080 0.59930 0.72530 0.21000
H 	H 	0.12320 0.60550 0.69400 0.21100
H 	H 	0.20610 0.70160 0.69960 0.19900
C 	C 	0.00950 0.80620 0.68252 0.00800
H 	H 	0.93260 0.81050 0.67350 0.02500
H 	H 	0.03230 0.74890 0.66940 0.02500
C 	C 	0.15160 0.94560 0.69316 0.09600
H 	H 	0.20110 0.90630 0.71110 -0.01400
C 	C 	0.08030 0.06620 0.65547 -0.00600
H 	H 	0.06970 0.12950 0.64140 0.02400
C 	C 	0.00770 0.98810 0.65304 0.00300
H 	H 	0.93820 0.98730 0.63760 0.02300
C 	C 	0.90690 0.90570 0.72757 -0.60300
H 	H 	0.84030 0.86730 0.72150 0.20000
H 	H 	0.90840 0.96260 0.74470 0.20400
H 	H 	0.91520 0.93860 0.70650 0.20600
C 	C 	0.97150 0.85300 0.80196 -0.01000
H 	H 	0.95900 0.79550 0.81730 0.03700
H 	H 	0.90300 0.88090 0.78730 0.04200
C 	C 	0.02620 0.97070 0.85513 0.08700
H 	H 	0.98190 0.93710 0.86630 -0.00300
C 	C 	0.13800 0.07480 0.84448 0.00700
H 	H 	0.18930 0.12950 0.84700 0.01800
C 	C 	0.10170 0.00900 0.81664 -0.01900
H 	H 	0.12150 0.00940 0.79600 0.03500
C 	C 	0.15800 0.72530 0.83308 -0.55600
H 	H 	0.10950 0.75710 0.84400 0.19300
H 	H 	0.16650 0.64790 0.83870 0.18400
H 	H 	0.22560 0.76160 0.84200 0.18700
C 	C 	0.42270 0.51920 0.63866 -0.16700
C 	C 	0.45960 0.45560 0.61586 0.22800
C 	C 	0.43430 0.48650 0.58078 -0.16900
C 	C 	0.37440 0.57880 0.56820 0.22400
C 	C 	0.33370 0.63910 0.59068 -0.16200
C 	C 	0.36210 0.61150 0.62623 0.23800
C 	C 	0.44000 0.48210 0.67552 -0.00400
H 	H 	0.44450 0.40200 0.67610 0.03300
H 	H 	0.37880 0.50300 0.68250 0.04200
C 	C 	0.54570 0.53280 0.73577 0.08000
H 	H 	0.49260 0.51470 0.74560 -0.01100
C 	C 	0.69030 0.58230 0.73000 0.01000
H 	H 	0.76010 0.60680 0.73530 0.01400
C 	C 	0.62730 0.55760 0.69765 -0.01000
H 	H 	0.64380 0.56110 0.67640 0.03500
C 	C 	0.52470 0.35570 0.62928 -0.59600
H 	H 	0.58200 0.35260 0.61940 0.20400
H 	H 	0.55290 0.35890 0.65490 0.20500
H 	H 	0.48120 0.29090 0.62230 0.20500
C 	C 	0.46910 0.41290 0.55643 -0.00200
H 	H 	0.42880 0.43070 0.53190 0.03000
H 	H 	0.45340 0.33680 0.56080 0.03500
C 	C 	0.64060 0.51100 0.56751 0.08300
H 	H 	0.61610 0.58160 0.57020 0.00600
C 	C 	0.73910 0.37900 0.56453 -0.00100
H 	H 	0.79880 0.33830 0.56470 0.02700
C 	C 	0.64360 0.33690 0.55889 -0.01800
H 	H 	0.62360 0.26320 0.55450 0.03700
C 	C 	0.35640 0.61660 0.53083 -0.59300
H 	H 	0.40680 0.58150 0.52140 0.20400
H 	H 	0.28570 0.59720 0.51640 0.21000
H 	H 	0.36500 0.69540 0.53050 0.20700
C 	C 	0.26560 0.73600 0.57699 -0.01000
H 	H 	0.25150 0.74020 0.55140 0.04600
H 	H 	0.30430 0.80220 0.58740 0.05600
C 	C 	0.09880 0.65380 0.58053 0.10000
H 	H 	0.11230 0.58220 0.57450 0.00900
C 	C 	0.02280 0.79110 0.59372 0.01500
H 	H 	0.97280 0.83580 0.59910 0.02300
C 	C 	0.11720 0.82490 0.59231 -0.00900
H 	H 	0.14440 0.89650 0.59620 0.04100
C 	C 	0.32630 0.67970 0.65137 -0.61000
H 	H 	0.25970 0.65200 0.65250 0.20800
H 	H 	0.37820 0.67650 0.67470 0.20900
H 	H 	0.31770 0.75500 0.64320 0.22300
Co	Co	0.32068 0.11206 0.69318 1.14000
Co	Co	0.12711 0.09114 0.92064 1.14000
O 	O 	0.06060 0.96690 0.94687 -0.36600
O 	O 	0.07930 0.90460 0.00098 -0.24300
O 	O 	0.22320 0.23370 0.92180 -0.37900
O 	O 	0.32780 0.35060 0.95861 -0.23400
O 	O 	0.26125 0.22770 0.19500 -0.38800
O 	O 	0.20280 0.07880 0.16280 -0.27000
O 	O 	0.36500 0.52060 0.16371 -0.38100
O 	O 	0.40220 0.55270 0.11430 -0.24600
N 	N 	0.29040 0.33040 0.14310 -0.21100
N 	N 	0.17720 0.13490 0.97180 -0.21400
N 	N 	0.64510 0.16540 0.71176 -0.12500
N 	N 	0.47750 0.16770 0.70443 -0.22700
N 	N 	0.94560 0.41080 0.82286 -0.12600
N 	N 	0.82860 0.54040 0.81871 -0.23200
N 	N 	0.96880 0.44180 0.67630 -0.12200
N 	N 	0.91070 0.55040 0.63126 -0.24600
N 	N 	0.46530 0.02650 0.79849 -0.12700
N 	N 	0.36060 0.06720 0.74585 -0.24200
N 	N 	0.41890 0.92250 0.93914 -0.12400
N 	N 	0.26150 0.98810 0.93004 -0.22100
N 	N 	0.83450 0.23540 0.91583 -0.11900
N 	N 	0.98860 0.18310 0.91373 -0.22800
C 	C 	0.08990 0.97350 0.98015 0.28300
C 	C 	0.26470 0.27380 0.95137 0.28400
C 	C 	0.23590 0.17180 0.16673 0.28700
C 	C 	0.36340 0.49770 0.13319 0.27800
C 	C 	0.14720 0.07690 0.99501 -0.00800
C 	C 	0.17180 0.11120 0.02948 -0.05800
H 	H 	0.14990 0.07010 0.04580 0.06800
C 	C 	0.22840 0.20600 0.03993 0.02700
C 	C 	0.26300 0.26170 0.01510 -0.06600
H 	H 	0.30550 0.32430 0.02160 0.06300
C 	C 	0.23400 0.22360 0.98128 -0.00500
C 	C 	0.25320 0.23000 0.13569 -0.01600
C 	C 	0.23370 0.18570 0.10278 -0.06200
H 	H 	0.20820 0.11370 0.09810 0.06100
C 	C 	0.25250 0.24930 0.07631 0.02300
C 	C 	0.29400 0.35230 0.08515 -0.07000
H 	H 	0.30930 0.39650 0.06810 0.06400
C 	C 	0.31290 0.39020 0.11875 -0.01100
C 	C 	0.83690 0.18940 0.72868 -0.17900
C 	C 	0.87390 0.20470 0.76478 0.23200
C 	C 	0.95640 0.27720 0.77886 -0.17500
C 	C 	0.00590 0.32740 0.75710 0.23100
C 	C 	0.97140 0.30510 0.72150 -0.17100
C 	C 	0.88500 0.23990 0.70670 0.21500
C 	C 	0.74600 0.11510 0.71285 0.00700
H 	H 	0.75590 0.04740 0.72670 0.01500
H 	H 	0.74380 0.09590 0.68880 0.02200
C 	C 	0.55420 0.11590 0.69781 0.08000
H 	H 	0.54560 0.05080 0.68460 0.00500
C 	C 	0.52260 0.25470 0.72445 0.00300
H 	H 	0.48700 0.30670 0.73380 0.02000
C 	C 	0.62620 0.25530 0.72887 -0.01300
H 	H 	0.67570 0.30740 0.74130 0.03500
C 	C 	0.82410 0.14780 0.78854 -0.60800
H 	H 	0.76920 0.09930 0.77470 0.20900
H 	H 	0.87680 0.10550 0.80600 0.21100
H 	H 	0.79390 0.20160 0.80040 0.19900
C 	C 	0.99050 0.30620 0.81748 0.00500
H 	H 	0.06740 0.31050 0.82650 0.02600
H 	H 	0.96770 0.24890 0.83060 0.02600
C 	C 	0.84840 0.44560 0.80684 0.08900
H 	H 	0.79890 0.40630 0.78890 -0.01300
C 	C 	0.91970 0.56620 0.84453 0.01000
H 	H 	0.93030 0.62950 0.85860 0.01900
C 	C 	0.99230 0.48810 0.84696 -0.01700
H 	H 	0.06180 0.48730 0.86240 0.03100
C 	C 	0.09310 0.40570 0.77243 -0.60500
H 	H 	0.15970 0.36730 0.77850 0.20000
H 	H 	0.09160 0.46260 0.75530 0.20400
H 	H 	0.08480 0.43860 0.79350 0.20700
C 	C 	0.02850 0.35300 0.69804 -0.00600
H 	H 	0.04100 0.29550 0.68270 0.03600
H 	H 	0.09700 0.38090 0.71270 0.04100
C 	C 	0.97380 0.47070 0.64487 0.07600
H 	H 	0.01810 0.43710 0.63370 0.00200
C 	C 	0.86200 0.57480 0.65552 0.00500
H 	H 	0.81070 0.62950 0.65300 0.02000
C 	C 	0.89830 0.50900 0.68336 -0.01000
H 	H 	0.87850 0.50940 0.70400 0.03400
C 	C 	0.84200 0.22530 0.66692 -0.55800
H 	H 	0.89050 0.25710 0.65600 0.19300
H 	H 	0.83350 0.14790 0.66130 0.18400
H 	H 	0.77440 0.26160 0.65800 0.18700
C 	C 	0.57730 0.01920 0.86134 -0.17700
C 	C 	0.54040 0.95560 0.88414 0.23500
C 	C 	0.56570 0.98650 0.91922 -0.17000
C 	C 	0.62560 0.07880 0.93180 0.22400
C 	C 	0.66630 0.13910 0.90932 -0.16400
C 	C 	0.63790 0.11150 0.87377 0.24300
C 	C 	0.56000 0.98210 0.82448 0.01000
H 	H 	0.55550 0.90200 0.82390 0.02900
H 	H 	0.62120 0.00300 0.81750 0.03600
C 	C 	0.45430 0.03280 0.76423 0.08000
H 	H 	0.50740 0.01470 0.75440 -0.01200
C 	C 	0.30970 0.08230 0.77000 0.00900
H 	H 	0.23990 0.10680 0.76470 0.01300
C 	C 	0.37270 0.05760 0.80235 -0.01000
H 	H 	0.35620 0.06110 0.82360 0.03400
C 	C 	0.47530 0.85570 0.87072 -0.60300
H 	H 	0.41800 0.85260 0.88060 0.20600
H 	H 	0.44710 0.85890 0.84510 0.20700
H 	H 	0.51880 0.79090 0.87770 0.20700
C 	C 	0.53090 0.91290 0.94357 -0.00100
H 	H 	0.57120 0.93070 0.96810 0.03000
H 	H 	0.54660 0.83680 0.93920 0.03500
C 	C 	0.35940 0.01100 0.93249 0.07800
H 	H 	0.38390 0.08160 0.92980 0.00700
C 	C 	0.26090 0.87900 0.93547 -0.00000
H 	H 	0.20120 0.83830 0.93530 0.02700
C 	C 	0.35640 0.83690 0.94111 -0.01800
H 	H 	0.37640 0.76320 0.94550 0.03700
C 	C 	0.64360 0.11660 0.96917 -0.59300
H 	H 	0.59320 0.08150 0.97860 0.20500
H 	H 	0.71430 0.09720 0.98360 0.21000
H 	H 	0.63500 0.19540 0.96950 0.20700
C 	C 	0.73440 0.23600 0.92301 -0.00900
H 	H 	0.74850 0.24020 0.94860 0.04600
H 	H 	0.69570 0.30220 0.91260 0.05500
C 	C 	0.90120 0.15380 0.91947 0.10000
H 	H 	0.88770 0.08220 0.92550 0.00900
C 	C 	0.97720 0.29110 0.90628 0.01200
H 	H 	0.02720 0.33580 0.90090 0.02400
C 	C 	0.88280 0.32490 0.90769 -0.00800
H 	H 	0.85560 0.39650 0.90380 0.04000
C 	C 	0.67370 0.17970 0.84863 -0.61400
H 	H 	0.74030 0.15200 0.84750 0.20900
H 	H 	0.62180 0.17650 0.82530 0.21000
H 	H 	0.68230 0.25500 0.85680 0.22400
