data_crystal

_cell_length_a 34.62800
_cell_length_b 18.22160
_cell_length_c 23.13570
_cell_angle_alpha 90.00000
_cell_angle_beta  118.40400
_cell_angle_gamma 90.00000

_symmetry_space_group_name_	'P 1'
_symmetry_space_group_name_H-M	'P 1'

loop_
_symmetry_equiv_pos_as_xyz
  x,y,z

loop_
_atom_site_label
_atom_site_type_symbol
_atom_site_fract_x
_atom_site_fract_y
_atom_site_fract_z
_atom_site_charge
Cd	Cd	0.71000 0.10581 0.80913 1.25300
Cd	Cd	0.32140 0.38197 0.32400 1.21500
Cd	Cd	0.32262 0.44934 0.46342 1.19100
C 	C 	0.62110 0.10910 0.74590 0.50800
C 	C 	0.57130 0.10460 0.71780 -0.17900
C 	C 	0.55060 0.16150 0.68110 0.17100
H 	H 	0.56780 0.20050 0.68070 0.00100
C 	C 	0.50660 0.16840 0.64390 -0.09800
H 	H 	0.49370 0.21010 0.61890 0.08400
C 	C 	0.48100 0.10640 0.64580 0.12600
C 	C 	0.50140 0.05060 0.68200 -0.20500
H 	H 	0.48530 0.01050 0.68360 0.10100
C 	C 	0.54640 0.04910 0.71810 0.12800
H 	H 	0.55990 0.00800 0.74360 0.00200
C 	C 	0.43300 0.11260 0.61160 0.01800
C 	C 	0.28540 0.29100 0.41040 0.35400
C 	C 	0.30280 0.23110 0.46100 -0.06500
C 	C 	0.34780 0.22020 0.49910 -0.08400
H 	H 	0.36690 0.24930 0.49110 0.06100
C 	C 	0.36520 0.16880 0.54770 0.10700
C 	C 	0.33580 0.12760 0.56120 -0.08500
H 	H 	0.34650 0.09420 0.59580 0.08700
C 	C 	0.29100 0.13730 0.52270 -0.05200
C 	C 	0.27440 0.18790 0.47340 0.00100
H 	H 	0.24410 0.19350 0.44820 0.05700
C 	C 	0.26050 0.09200 0.53930 0.33200
C 	C 	0.09590 0.91250 0.06380 0.42100
C 	C 	0.04800 0.90250 0.01500 -0.22600
C 	C 	0.02300 0.84470 0.02460 0.12200
H 	H 	0.03620 0.81510 0.06170 -0.00300
C 	C 	0.98150 0.83360 0.98090 -0.19600
H 	H 	0.96610 0.79410 0.98540 0.10000
C 	C 	0.96170 0.88020 0.92980 0.10600
C 	C 	0.98490 0.93630 0.92160 -0.21500
H 	H 	0.97150 0.96740 0.88560 0.09900
C 	C 	0.02690 0.94590 0.96570 0.16600
H 	H 	0.04170 0.98590 0.96070 -0.03300
C 	C 	0.91430 0.87570 0.88690 0.06200
C 	C 	0.75750 0.97940 0.81400 0.34300
C 	C 	0.77950 0.90780 0.81420 -0.09400
C 	C 	0.75270 0.84670 0.78420 0.00200
H 	H 	0.72230 0.85140 0.76220 0.06100
C 	C 	0.77240 0.77840 0.78790 -0.06100
C 	C 	0.81840 0.77210 0.81930 -0.08800
H 	H 	0.83140 0.72690 0.82080 0.08900
C 	C 	0.84430 0.83220 0.84790 0.09900
C 	C 	0.82410 0.90040 0.84420 -0.08300
H 	H 	0.84160 0.94140 0.86270 0.03500
C 	C 	0.74370 0.71260 0.75560 0.34400
N 	N 	0.41060 0.16040 0.58790 -0.16400
N 	N 	0.88890 0.82460 0.88840 -0.08400
O 	O 	0.64610 0.11290 0.70200 -0.27500
O 	O 	0.63520 0.04360 0.78220 -0.29600
O 	O 	0.24502 0.29330 0.37360 -0.40800
O 	O 	0.31396 0.33580 0.41100 -0.53600
O 	O 	0.27500 0.05560 0.59150 -0.42900
O 	O 	0.22069 0.09540 0.49770 -0.44200
O 	O 	0.11920 0.95590 0.05920 -0.52800
O 	O 	0.11010 0.87490 0.11970 -0.45700
O 	O 	0.71806 0.98780 0.77940 -0.38100
O 	O 	0.78253 0.03110 0.84990 -0.60000
O 	O 	0.76070 0.65330 0.75560 -0.47000
O 	O 	0.70290 0.72240 0.72810 -0.42500
C 	C 	0.42610 0.13200 0.80820 -0.04100
C 	C 	0.44220 0.15120 0.88140 -0.09400
C 	C 	0.48760 0.15490 0.91770 -0.00800
C 	C 	0.48450 0.15530 0.61520 -0.07300
C 	C 	0.49970 0.14100 0.67470 -0.03400
C 	C 	0.45240 0.13000 0.78100 -0.04100
C 	C 	0.43590 0.16890 0.57460 0.07700
H 	H 	0.42350 0.15940 0.89900 0.08300
H 	H 	0.49920 0.15720 0.53670 0.03200
H 	H 	0.48050 0.13690 0.69220 0.02800
H 	H 	0.44140 0.12260 0.73620 0.06700
N 	N 	0.39510 0.33760 0.86070 -0.09400
O 	O 	0.35840 0.15420 0.75410 -0.00100
O 	O 	0.35740 0.15070 0.72350 -0.46400
Cd	Cd	0.21000 0.60581 0.80913 1.25200
Cd	Cd	0.82140 0.88197 0.32400 1.21400
Cd	Cd	0.82262 0.94934 0.46342 1.19000
C 	C 	0.12110 0.60910 0.74590 0.50700
C 	C 	0.07130 0.60460 0.71780 -0.18100
C 	C 	0.05060 0.66150 0.68110 0.17100
H 	H 	0.06780 0.70050 0.68070 -0.00000
C 	C 	0.00660 0.66840 0.64390 -0.09900
H 	H 	0.99370 0.71010 0.61890 0.08300
C 	C 	0.98100 0.60640 0.64580 0.12700
C 	C 	0.00140 0.55060 0.68200 -0.20800
H 	H 	0.98530 0.51050 0.68360 0.10100
C 	C 	0.04640 0.54910 0.71810 0.12800
H 	H 	0.05990 0.50800 0.74360 0.00100
C 	C 	0.93300 0.61260 0.61160 0.01700
C 	C 	0.78540 0.79100 0.41040 0.35300
C 	C 	0.80280 0.73110 0.46100 -0.06600
C 	C 	0.84780 0.72020 0.49910 -0.08500
H 	H 	0.86690 0.74930 0.49110 0.06000
C 	C 	0.86520 0.66880 0.54770 0.10600
C 	C 	0.83580 0.62760 0.56120 -0.08600
H 	H 	0.84650 0.59420 0.59580 0.08600
C 	C 	0.79100 0.63730 0.52270 -0.05300
C 	C 	0.77440 0.68790 0.47340 0.00000
H 	H 	0.74410 0.69350 0.44820 0.05700
C 	C 	0.76050 0.59200 0.53930 0.33200
C 	C 	0.59590 0.41250 0.06380 0.42100
C 	C 	0.54800 0.40250 0.01500 -0.22600
C 	C 	0.52300 0.34470 0.02460 0.12500
H 	H 	0.53620 0.31510 0.06170 -0.00400
C 	C 	0.48150 0.33360 0.98090 -0.20000
H 	H 	0.46610 0.29410 0.98540 0.10200
C 	C 	0.46170 0.38020 0.92980 0.10800
C 	C 	0.48490 0.43630 0.92160 -0.21700
H 	H 	0.47150 0.46740 0.88560 0.10000
C 	C 	0.52690 0.44590 0.96570 0.16600
H 	H 	0.54170 0.48590 0.96070 -0.03300
C 	C 	0.41430 0.37570 0.88690 0.06100
C 	C 	0.25750 0.47940 0.81400 0.34200
C 	C 	0.27950 0.40780 0.81420 -0.09400
C 	C 	0.25270 0.34670 0.78420 0.00200
H 	H 	0.22230 0.35140 0.76220 0.06000
C 	C 	0.27240 0.27840 0.78790 -0.06100
C 	C 	0.31840 0.27210 0.81930 -0.08800
H 	H 	0.33140 0.22690 0.82080 0.08900
C 	C 	0.34430 0.33220 0.84790 0.09900
C 	C 	0.32410 0.40040 0.84420 -0.08300
H 	H 	0.34160 0.44140 0.86270 0.03500
C 	C 	0.24370 0.21260 0.75560 0.34400
N 	N 	0.91060 0.66040 0.58790 -0.16400
N 	N 	0.38890 0.32460 0.88840 -0.08500
O 	O 	0.14610 0.61290 0.70200 -0.27500
O 	O 	0.13520 0.54360 0.78220 -0.29600
O 	O 	0.74502 0.79330 0.37360 -0.40800
O 	O 	0.81396 0.83580 0.41100 -0.53600
O 	O 	0.77500 0.55560 0.59150 -0.42900
O 	O 	0.72069 0.59540 0.49770 -0.44200
O 	O 	0.61920 0.45590 0.05920 -0.52700
O 	O 	0.61010 0.37490 0.11970 -0.45700
O 	O 	0.21806 0.48780 0.77940 -0.38100
O 	O 	0.28253 0.53110 0.84990 -0.60000
O 	O 	0.26070 0.15330 0.75560 -0.47000
O 	O 	0.20290 0.22240 0.72810 -0.42500
C 	C 	0.92610 0.63200 0.80820 -0.04000
C 	C 	0.94220 0.65120 0.88140 -0.09500
C 	C 	0.98760 0.65490 0.91770 -0.00700
C 	C 	0.98450 0.65530 0.61520 -0.07400
C 	C 	0.99970 0.64100 0.67470 -0.03400
C 	C 	0.95240 0.63000 0.78100 -0.04000
C 	C 	0.93590 0.66890 0.57460 0.07700
H 	H 	0.92350 0.65940 0.89900 0.08300
H 	H 	0.99920 0.65720 0.53670 0.03200
H 	H 	0.98050 0.63690 0.69220 0.02800
H 	H 	0.94140 0.62260 0.73620 0.06700
N 	N 	0.89510 0.83760 0.86070 -0.09500
O 	O 	0.85840 0.65420 0.75410 -0.00100
O 	O 	0.85740 0.65070 0.72350 -0.46400
Cd	Cd	0.29000 0.10581 0.69087 1.25200
Cd	Cd	0.67860 0.38197 0.17600 1.21400
Cd	Cd	0.67738 0.44934 0.03658 1.19000
C 	C 	0.37890 0.10910 0.75410 0.50700
C 	C 	0.42870 0.10460 0.78220 -0.18000
C 	C 	0.44940 0.16150 0.81890 0.17000
H 	H 	0.43220 0.20050 0.81930 -0.00000
C 	C 	0.49340 0.16840 0.85610 -0.09900
H 	H 	0.50630 0.21010 0.88110 0.08300
C 	C 	0.51900 0.10640 0.85420 0.12500
C 	C 	0.49860 0.05060 0.81800 -0.20600
H 	H 	0.51470 0.01050 0.81640 0.10000
C 	C 	0.45360 0.04910 0.78190 0.12600
H 	H 	0.44010 0.00800 0.75640 0.00100
C 	C 	0.56700 0.11260 0.88840 0.01700
C 	C 	0.71460 0.29100 0.08960 0.35300
C 	C 	0.69720 0.23110 0.03900 -0.06700
C 	C 	0.65220 0.22020 0.00090 -0.08200
H 	H 	0.63310 0.24930 0.00890 0.06000
C 	C 	0.63480 0.16880 0.95230 0.10400
C 	C 	0.66420 0.12760 0.93880 -0.08500
H 	H 	0.65350 0.09420 0.90420 0.08500
C 	C 	0.70900 0.13730 0.97730 -0.05500
C 	C 	0.72560 0.18790 0.02660 0.00200
H 	H 	0.75590 0.19350 0.05180 0.05700
C 	C 	0.73950 0.09200 0.96070 0.33200
C 	C 	0.90410 0.91250 0.43620 0.42100
C 	C 	0.95200 0.90250 0.48500 -0.22600
C 	C 	0.97700 0.84470 0.47540 0.12400
H 	H 	0.96380 0.81510 0.43830 -0.00300
C 	C 	0.01850 0.83360 0.51910 -0.19800
H 	H 	0.03390 0.79410 0.51460 0.10100
C 	C 	0.03830 0.88020 0.57020 0.10800
C 	C 	0.01510 0.93630 0.57840 -0.21600
H 	H 	0.02850 0.96740 0.61440 0.09900
C 	C 	0.97310 0.94590 0.53430 0.16600
H 	H 	0.95830 0.98590 0.53930 -0.03300
C 	C 	0.08570 0.87570 0.61310 0.06100
C 	C 	0.24250 0.97940 0.68600 0.34300
C 	C 	0.22050 0.90780 0.68580 -0.09400
C 	C 	0.24730 0.84670 0.71580 0.00200
H 	H 	0.27770 0.85140 0.73780 0.06100
C 	C 	0.22760 0.77840 0.71210 -0.06100
C 	C 	0.18160 0.77210 0.68070 -0.08800
H 	H 	0.16860 0.72690 0.67920 0.08900
C 	C 	0.15570 0.83220 0.65210 0.09900
C 	C 	0.17590 0.90040 0.65580 -0.08300
H 	H 	0.15840 0.94140 0.63730 0.03500
C 	C 	0.25630 0.71260 0.74440 0.34400
N 	N 	0.58940 0.16040 0.91210 -0.16400
N 	N 	0.11110 0.82460 0.61160 -0.08500
O 	O 	0.35390 0.11290 0.79800 -0.27500
O 	O 	0.36480 0.04360 0.71780 -0.29600
O 	O 	0.75498 0.29330 0.12640 -0.40900
O 	O 	0.68604 0.33580 0.08900 -0.53700
O 	O 	0.72500 0.05560 0.90850 -0.42900
O 	O 	0.77931 0.09540 0.00230 -0.44000
O 	O 	0.88080 0.95590 0.44080 -0.52700
O 	O 	0.88990 0.87490 0.38030 -0.45700
O 	O 	0.28194 0.98780 0.72060 -0.38000
O 	O 	0.21747 0.03110 0.65010 -0.60000
O 	O 	0.23930 0.65330 0.74440 -0.47000
O 	O 	0.29710 0.72240 0.77190 -0.42500
C 	C 	0.57390 0.13200 0.69180 -0.04100
C 	C 	0.55780 0.15120 0.61860 -0.09400
C 	C 	0.51240 0.15490 0.58230 -0.00800
C 	C 	0.51550 0.15530 0.88480 -0.07300
C 	C 	0.50030 0.14100 0.82530 -0.03400
C 	C 	0.54760 0.13000 0.71900 -0.04100
C 	C 	0.56410 0.16890 0.92540 0.07600
H 	H 	0.57650 0.15940 0.60100 0.08300
H 	H 	0.50080 0.15720 0.96330 0.03200
H 	H 	0.51950 0.13690 0.80780 0.02800
H 	H 	0.55860 0.12260 0.76380 0.06700
N 	N 	0.60490 0.33760 0.63930 -0.09400
O 	O 	0.64160 0.15420 0.74590 -0.00100
O 	O 	0.64260 0.15070 0.77650 -0.46400
Cd	Cd	0.79000 0.60581 0.69087 1.25200
Cd	Cd	0.17860 0.88197 0.17600 1.21400
Cd	Cd	0.17738 0.94934 0.03658 1.19000
C 	C 	0.87890 0.60910 0.75410 0.50700
C 	C 	0.92870 0.60460 0.78220 -0.18000
C 	C 	0.94940 0.66150 0.81890 0.16900
H 	H 	0.93220 0.70050 0.81930 0.00000
C 	C 	0.99340 0.66840 0.85610 -0.09900
H 	H 	0.00630 0.71010 0.88110 0.08200
C 	C 	0.01900 0.60640 0.85420 0.12200
C 	C 	0.99860 0.55060 0.81800 -0.20300
H 	H 	0.01470 0.51050 0.81640 0.09900
C 	C 	0.95360 0.54910 0.78190 0.12500
H 	H 	0.94010 0.50800 0.75640 0.00200
C 	C 	0.06700 0.61260 0.88840 0.01800
C 	C 	0.21460 0.79100 0.08960 0.35300
C 	C 	0.19720 0.73110 0.03900 -0.06500
C 	C 	0.15220 0.72020 0.00090 -0.08500
H 	H 	0.13310 0.74930 0.00890 0.06000
C 	C 	0.13480 0.66880 0.95230 0.10700
C 	C 	0.16420 0.62760 0.93880 -0.08700
H 	H 	0.15350 0.59420 0.90420 0.08600
C 	C 	0.20900 0.63730 0.97730 -0.05300
C 	C 	0.22560 0.68790 0.02660 -0.00100
H 	H 	0.25590 0.69350 0.05180 0.05800
C 	C 	0.23950 0.59200 0.96070 0.33200
C 	C 	0.40410 0.41250 0.43620 0.42100
C 	C 	0.45200 0.40250 0.48500 -0.22600
C 	C 	0.47700 0.34470 0.47540 0.12400
H 	H 	0.46380 0.31510 0.43830 -0.00300
C 	C 	0.51850 0.33360 0.51910 -0.19800
H 	H 	0.53390 0.29410 0.51460 0.10100
C 	C 	0.53830 0.38020 0.57020 0.10800
C 	C 	0.51510 0.43630 0.57840 -0.21600
H 	H 	0.52850 0.46740 0.61440 0.09900
C 	C 	0.47310 0.44590 0.53430 0.16600
H 	H 	0.45830 0.48590 0.53930 -0.03300
C 	C 	0.58570 0.37570 0.61310 0.06100
C 	C 	0.74250 0.47940 0.68600 0.34200
C 	C 	0.72050 0.40780 0.68580 -0.09400
C 	C 	0.74730 0.34670 0.71580 0.00200
H 	H 	0.77770 0.35140 0.73780 0.06100
C 	C 	0.72760 0.27840 0.71210 -0.06100
C 	C 	0.68160 0.27210 0.68070 -0.08800
H 	H 	0.66860 0.22690 0.67920 0.08900
C 	C 	0.65570 0.33220 0.65210 0.09900
C 	C 	0.67590 0.40040 0.65580 -0.08300
H 	H 	0.65840 0.44140 0.63730 0.03500
C 	C 	0.75630 0.21260 0.74440 0.34400
N 	N 	0.08940 0.66040 0.91210 -0.16400
N 	N 	0.61110 0.32460 0.61160 -0.08500
O 	O 	0.85390 0.61290 0.79800 -0.27500
O 	O 	0.86480 0.54360 0.71780 -0.29600
O 	O 	0.25498 0.79330 0.12640 -0.40800
O 	O 	0.18604 0.83580 0.08900 -0.53700
O 	O 	0.22500 0.55560 0.90850 -0.42900
O 	O 	0.27931 0.59540 0.00230 -0.44200
O 	O 	0.38080 0.45590 0.44080 -0.52700
O 	O 	0.38990 0.37490 0.38030 -0.45700
O 	O 	0.78194 0.48780 0.72060 -0.38100
O 	O 	0.71747 0.53110 0.65010 -0.60000
O 	O 	0.73930 0.15330 0.74440 -0.47000
O 	O 	0.79710 0.22240 0.77190 -0.42500
C 	C 	0.07390 0.63200 0.69180 -0.04100
C 	C 	0.05780 0.65120 0.61860 -0.09500
C 	C 	0.01240 0.65490 0.58230 -0.00700
C 	C 	0.01550 0.65530 0.88480 -0.07200
C 	C 	0.00030 0.64100 0.82530 -0.03200
C 	C 	0.04760 0.63000 0.71900 -0.04100
C 	C 	0.06410 0.66890 0.92540 0.07700
H 	H 	0.07650 0.65940 0.60100 0.08300
H 	H 	0.00080 0.65720 0.96330 0.03200
H 	H 	0.01950 0.63690 0.80780 0.02800
H 	H 	0.05860 0.62260 0.76380 0.06700
N 	N 	0.10490 0.83760 0.63930 -0.09400
O 	O 	0.14160 0.65420 0.74590 -0.00100
O 	O 	0.14260 0.65070 0.77650 -0.46400
Cd	Cd	0.29000 0.89419 0.19087 1.25200
Cd	Cd	0.67860 0.61803 0.67600 1.21400
Cd	Cd	0.67738 0.55066 0.53658 1.19000
C 	C 	0.37890 0.89090 0.25410 0.50700
C 	C 	0.42870 0.89540 0.28220 -0.18000
C 	C 	0.44940 0.83850 0.31890 0.17000
H 	H 	0.43220 0.79950 0.31930 -0.00000
C 	C 	0.49340 0.83160 0.35610 -0.09900
H 	H 	0.50630 0.78990 0.38110 0.08300
C 	C 	0.51900 0.89360 0.35420 0.12500
C 	C 	0.49860 0.94940 0.31800 -0.20600
H 	H 	0.51470 0.98950 0.31640 0.10000
C 	C 	0.45360 0.95090 0.28190 0.12700
H 	H 	0.44010 0.99200 0.25640 0.00100
C 	C 	0.56700 0.88740 0.38840 0.01700
C 	C 	0.71460 0.70900 0.58960 0.35300
C 	C 	0.69720 0.76890 0.53900 -0.06600
C 	C 	0.65220 0.77980 0.50090 -0.08500
H 	H 	0.63310 0.75070 0.50890 0.06000
C 	C 	0.63480 0.83120 0.45230 0.10600
C 	C 	0.66420 0.87240 0.43880 -0.08600
H 	H 	0.65350 0.90580 0.40420 0.08600
C 	C 	0.70900 0.86270 0.47730 -0.05300
C 	C 	0.72560 0.81210 0.52660 0.00000
H 	H 	0.75590 0.80650 0.55180 0.05700
C 	C 	0.73950 0.90800 0.46070 0.33200
C 	C 	0.90410 0.08750 0.93620 0.42100
C 	C 	0.95200 0.09750 0.98500 -0.22600
C 	C 	0.97700 0.15530 0.97540 0.12200
H 	H 	0.96380 0.18490 0.93830 -0.00300
C 	C 	0.01850 0.16640 0.01910 -0.19600
H 	H 	0.03390 0.20590 0.01460 0.10000
C 	C 	0.03830 0.11980 0.07020 0.10600
C 	C 	0.01510 0.06370 0.07840 -0.21500
H 	H 	0.02850 0.03260 0.11440 0.09900
C 	C 	0.97310 0.05410 0.03430 0.16600
H 	H 	0.95830 0.01410 0.03930 -0.03300
C 	C 	0.08570 0.12430 0.11310 0.06200
C 	C 	0.24250 0.02060 0.18600 0.34300
C 	C 	0.22050 0.09220 0.18580 -0.09400
C 	C 	0.24730 0.15330 0.21580 0.00200
H 	H 	0.27770 0.14860 0.23780 0.06100
C 	C 	0.22760 0.22160 0.21210 -0.06100
C 	C 	0.18160 0.22790 0.18070 -0.08800
H 	H 	0.16860 0.27310 0.17920 0.08900
C 	C 	0.15570 0.16780 0.15210 0.09900
C 	C 	0.17590 0.09960 0.15580 -0.08300
H 	H 	0.15840 0.05860 0.13730 0.03500
C 	C 	0.25630 0.28740 0.24440 0.34400
N 	N 	0.58940 0.83960 0.41210 -0.16400
N 	N 	0.11110 0.17540 0.11160 -0.08400
O 	O 	0.35390 0.88710 0.29800 -0.27500
O 	O 	0.36480 0.95640 0.21780 -0.29600
O 	O 	0.75498 0.70670 0.62640 -0.40800
O 	O 	0.68604 0.66420 0.58900 -0.53600
O 	O 	0.72500 0.94440 0.40850 -0.42900
O 	O 	0.77931 0.90460 0.50230 -0.44200
O 	O 	0.88080 0.04410 0.94080 -0.52800
O 	O 	0.88990 0.12510 0.88030 -0.45700
O 	O 	0.28194 0.01220 0.22060 -0.38100
O 	O 	0.21747 0.96890 0.15010 -0.60000
O 	O 	0.23930 0.34670 0.24440 -0.47000
O 	O 	0.29710 0.27760 0.27190 -0.42500
C 	C 	0.57390 0.86800 0.19180 -0.04100
C 	C 	0.55780 0.84880 0.11860 -0.09400
C 	C 	0.51240 0.84510 0.08230 -0.00800
C 	C 	0.51550 0.84470 0.38480 -0.07300
C 	C 	0.50030 0.85900 0.32530 -0.03400
C 	C 	0.54760 0.87000 0.21900 -0.04100
C 	C 	0.56410 0.83110 0.42540 0.07700
H 	H 	0.57650 0.84060 0.10100 0.08300
H 	H 	0.50080 0.84280 0.46330 0.03200
H 	H 	0.51950 0.86310 0.30780 0.02800
H 	H 	0.55860 0.87740 0.26380 0.06700
N 	N 	0.60490 0.66240 0.13930 -0.09400
O 	O 	0.64160 0.84580 0.24590 -0.00100
O 	O 	0.64260 0.84930 0.27650 -0.46400
Cd	Cd	0.79000 0.39419 0.19087 1.25200
Cd	Cd	0.17860 0.11803 0.67600 1.21400
Cd	Cd	0.17738 0.05066 0.53658 1.19000
C 	C 	0.87890 0.39090 0.25410 0.50700
C 	C 	0.92870 0.39540 0.28220 -0.18100
C 	C 	0.94940 0.33850 0.31890 0.17100
H 	H 	0.93220 0.29950 0.31930 -0.00000
C 	C 	0.99340 0.33160 0.35610 -0.09900
H 	H 	0.00630 0.28990 0.38110 0.08300
C 	C 	0.01900 0.39360 0.35420 0.12700
C 	C 	0.99860 0.44940 0.31800 -0.20800
H 	H 	0.01470 0.48950 0.31640 0.10100
C 	C 	0.95360 0.45090 0.28190 0.12800
H 	H 	0.94010 0.49200 0.25640 0.00100
C 	C 	0.06700 0.38740 0.38840 0.01700
C 	C 	0.21460 0.20900 0.58960 0.35300
C 	C 	0.19720 0.26890 0.53900 -0.06600
C 	C 	0.15220 0.27980 0.50090 -0.08500
H 	H 	0.13310 0.25070 0.50890 0.06000
C 	C 	0.13480 0.33120 0.45230 0.10600
C 	C 	0.16420 0.37240 0.43880 -0.08600
H 	H 	0.15350 0.40580 0.40420 0.08600
C 	C 	0.20900 0.36270 0.47730 -0.05300
C 	C 	0.22560 0.31210 0.52660 0.00000
H 	H 	0.25590 0.30650 0.55180 0.05700
C 	C 	0.23950 0.40800 0.46070 0.33200
C 	C 	0.40410 0.58750 0.93620 0.42100
C 	C 	0.45200 0.59750 0.98500 -0.22600
C 	C 	0.47700 0.65530 0.97540 0.12500
H 	H 	0.46380 0.68490 0.93830 -0.00400
C 	C 	0.51850 0.66640 0.01910 -0.20000
H 	H 	0.53390 0.70590 0.01460 0.10200
C 	C 	0.53830 0.61980 0.07020 0.10800
C 	C 	0.51510 0.56370 0.07840 -0.21700
H 	H 	0.52850 0.53260 0.11440 0.10000
C 	C 	0.47310 0.55410 0.03430 0.16600
H 	H 	0.45830 0.51410 0.03930 -0.03300
C 	C 	0.58570 0.62430 0.11310 0.06100
C 	C 	0.74250 0.52060 0.18600 0.34200
C 	C 	0.72050 0.59220 0.18580 -0.09400
C 	C 	0.74730 0.65330 0.21580 0.00200
H 	H 	0.77770 0.64860 0.23780 0.06000
C 	C 	0.72760 0.72160 0.21210 -0.06100
C 	C 	0.68160 0.72790 0.18070 -0.08800
H 	H 	0.66860 0.77310 0.17920 0.08900
C 	C 	0.65570 0.66780 0.15210 0.09900
C 	C 	0.67590 0.59960 0.15580 -0.08300
H 	H 	0.65840 0.55860 0.13730 0.03500
C 	C 	0.75630 0.78740 0.24440 0.34400
N 	N 	0.08940 0.33960 0.41210 -0.16400
N 	N 	0.61110 0.67540 0.11160 -0.08500
O 	O 	0.85390 0.38710 0.29800 -0.27500
O 	O 	0.86480 0.45640 0.21780 -0.29600
O 	O 	0.25498 0.20670 0.62640 -0.40800
O 	O 	0.18604 0.16420 0.58900 -0.53600
O 	O 	0.22500 0.44440 0.40850 -0.42900
O 	O 	0.27931 0.40460 0.50230 -0.44200
O 	O 	0.38080 0.54410 0.94080 -0.52700
O 	O 	0.38990 0.62510 0.88030 -0.45700
O 	O 	0.78194 0.51220 0.22060 -0.38100
O 	O 	0.71747 0.46890 0.15010 -0.60000
O 	O 	0.73930 0.84670 0.24440 -0.47000
O 	O 	0.79710 0.77760 0.27190 -0.42500
C 	C 	0.07390 0.36800 0.19180 -0.04000
C 	C 	0.05780 0.34880 0.11860 -0.09500
C 	C 	0.01240 0.34510 0.08230 -0.00700
C 	C 	0.01550 0.34470 0.38480 -0.07400
C 	C 	0.00030 0.35900 0.32530 -0.03400
C 	C 	0.04760 0.37000 0.21900 -0.04000
C 	C 	0.06410 0.33110 0.42540 0.07700
H 	H 	0.07650 0.34060 0.10100 0.08300
H 	H 	0.00080 0.34280 0.46330 0.03200
H 	H 	0.01950 0.36310 0.30780 0.02800
H 	H 	0.05860 0.37740 0.26380 0.06700
N 	N 	0.10490 0.16240 0.13930 -0.09500
O 	O 	0.14160 0.34580 0.24590 -0.00100
O 	O 	0.14260 0.34930 0.27650 -0.46400
Cd	Cd	0.71000 0.89419 0.30913 1.25200
Cd	Cd	0.32140 0.61803 0.82400 1.21400
Cd	Cd	0.32262 0.55066 0.96342 1.19000
C 	C 	0.62110 0.89090 0.24590 0.50700
C 	C 	0.57130 0.89540 0.21780 -0.18000
C 	C 	0.55060 0.83850 0.18110 0.17000
H 	H 	0.56780 0.79950 0.18070 -0.00000
C 	C 	0.50660 0.83160 0.14390 -0.09900
H 	H 	0.49370 0.78990 0.11890 0.08300
C 	C 	0.48100 0.89360 0.14580 0.12500
C 	C 	0.50140 0.94940 0.18200 -0.20600
H 	H 	0.48530 0.98950 0.18360 0.10000
C 	C 	0.54640 0.95090 0.21810 0.12600
H 	H 	0.55990 0.99200 0.24360 0.00100
C 	C 	0.43300 0.88740 0.11160 0.01700
C 	C 	0.28540 0.70900 0.91040 0.35300
C 	C 	0.30280 0.76890 0.96100 -0.06700
C 	C 	0.34780 0.77980 0.99910 -0.08200
H 	H 	0.36690 0.75070 0.99110 0.06000
C 	C 	0.36520 0.83120 0.04770 0.10400
C 	C 	0.33580 0.87240 0.06120 -0.08500
H 	H 	0.34650 0.90580 0.09580 0.08500
C 	C 	0.29100 0.86270 0.02270 -0.05500
C 	C 	0.27440 0.81210 0.97340 0.00200
H 	H 	0.24410 0.80650 0.94820 0.05700
C 	C 	0.26050 0.90800 0.03930 0.33200
C 	C 	0.09590 0.08750 0.56380 0.42100
C 	C 	0.04800 0.09750 0.51500 -0.22600
C 	C 	0.02300 0.15530 0.52460 0.12400
H 	H 	0.03620 0.18490 0.56170 -0.00300
C 	C 	0.98150 0.16640 0.48090 -0.19800
H 	H 	0.96610 0.20590 0.48540 0.10100
C 	C 	0.96170 0.11980 0.42980 0.10800
C 	C 	0.98490 0.06370 0.42160 -0.21600
H 	H 	0.97150 0.03260 0.38560 0.09900
C 	C 	0.02690 0.05410 0.46570 0.16600
H 	H 	0.04170 0.01410 0.46070 -0.03300
C 	C 	0.91430 0.12430 0.38690 0.06100
C 	C 	0.75750 0.02060 0.31400 0.34300
C 	C 	0.77950 0.09220 0.31420 -0.09400
C 	C 	0.75270 0.15330 0.28420 0.00200
H 	H 	0.72230 0.14860 0.26220 0.06100
C 	C 	0.77240 0.22160 0.28790 -0.06100
C 	C 	0.81840 0.22790 0.31930 -0.08800
H 	H 	0.83140 0.27310 0.32080 0.08900
C 	C 	0.84430 0.16780 0.34790 0.09900
C 	C 	0.82410 0.09960 0.34420 -0.08300
H 	H 	0.84160 0.05860 0.36270 0.03500
C 	C 	0.74370 0.28740 0.25560 0.34400
N 	N 	0.41060 0.83960 0.08790 -0.16400
N 	N 	0.88890 0.17540 0.38840 -0.08500
O 	O 	0.64610 0.88710 0.20200 -0.27500
O 	O 	0.63520 0.95640 0.28220 -0.29600
O 	O 	0.24502 0.70670 0.87360 -0.40900
O 	O 	0.31396 0.66420 0.91100 -0.53700
O 	O 	0.27500 0.94440 0.09150 -0.42900
O 	O 	0.22069 0.90460 0.99770 -0.44000
O 	O 	0.11920 0.04410 0.55920 -0.52700
O 	O 	0.11010 0.12510 0.61970 -0.45700
O 	O 	0.71806 0.01220 0.27940 -0.38000
O 	O 	0.78253 0.96890 0.34990 -0.60000
O 	O 	0.76070 0.34670 0.25560 -0.47000
O 	O 	0.70290 0.27760 0.22810 -0.42500
C 	C 	0.42610 0.86800 0.30820 -0.04100
C 	C 	0.44220 0.84880 0.38140 -0.09400
C 	C 	0.48760 0.84510 0.41770 -0.00800
C 	C 	0.48450 0.84470 0.11520 -0.07300
C 	C 	0.49970 0.85900 0.17470 -0.03400
C 	C 	0.45240 0.87000 0.28100 -0.04100
C 	C 	0.43590 0.83110 0.07460 0.07600
H 	H 	0.42350 0.84060 0.39900 0.08300
H 	H 	0.49920 0.84280 0.03670 0.03200
H 	H 	0.48050 0.86310 0.19220 0.02800
H 	H 	0.44140 0.87740 0.23620 0.06700
N 	N 	0.39510 0.66240 0.36070 -0.09400
O 	O 	0.35840 0.84580 0.25410 -0.00100
O 	O 	0.35740 0.84930 0.22350 -0.46400
Cd	Cd	0.21000 0.39419 0.30913 1.25200
Cd	Cd	0.82140 0.11803 0.82400 1.21400
Cd	Cd	0.82262 0.05066 0.96342 1.19000
C 	C 	0.12110 0.39090 0.24590 0.50700
C 	C 	0.07130 0.39540 0.21780 -0.18000
C 	C 	0.05060 0.33850 0.18110 0.16900
H 	H 	0.06780 0.29950 0.18070 0.00000
C 	C 	0.00660 0.33160 0.14390 -0.09900
H 	H 	0.99370 0.28990 0.11890 0.08200
C 	C 	0.98100 0.39360 0.14580 0.12200
C 	C 	0.00140 0.44940 0.18200 -0.20300
H 	H 	0.98530 0.48950 0.18360 0.09900
C 	C 	0.04640 0.45090 0.21810 0.12500
H 	H 	0.05990 0.49200 0.24360 0.00200
C 	C 	0.93300 0.38740 0.11160 0.01800
C 	C 	0.78540 0.20900 0.91040 0.35300
C 	C 	0.80280 0.26890 0.96100 -0.06500
C 	C 	0.84780 0.27980 0.99910 -0.08500
H 	H 	0.86690 0.25070 0.99110 0.06000
C 	C 	0.86520 0.33120 0.04770 0.10700
C 	C 	0.83580 0.37240 0.06120 -0.08700
H 	H 	0.84650 0.40580 0.09580 0.08600
C 	C 	0.79100 0.36270 0.02270 -0.05300
C 	C 	0.77440 0.31210 0.97340 -0.00100
H 	H 	0.74410 0.30650 0.94820 0.05800
C 	C 	0.76050 0.40800 0.03930 0.33200
C 	C 	0.59590 0.58750 0.56380 0.42100
C 	C 	0.54800 0.59750 0.51500 -0.22600
C 	C 	0.52300 0.65530 0.52460 0.12400
H 	H 	0.53620 0.68490 0.56170 -0.00300
C 	C 	0.48150 0.66640 0.48090 -0.19800
H 	H 	0.46610 0.70590 0.48540 0.10100
C 	C 	0.46170 0.61980 0.42980 0.10800
C 	C 	0.48490 0.56370 0.42160 -0.21600
H 	H 	0.47150 0.53260 0.38560 0.09900
C 	C 	0.52690 0.55410 0.46570 0.16600
H 	H 	0.54170 0.51410 0.46070 -0.03300
C 	C 	0.41430 0.62430 0.38690 0.06100
C 	C 	0.25750 0.52060 0.31400 0.34200
C 	C 	0.27950 0.59220 0.31420 -0.09400
C 	C 	0.25270 0.65330 0.28420 0.00200
H 	H 	0.22230 0.64860 0.26220 0.06100
C 	C 	0.27240 0.72160 0.28790 -0.06100
C 	C 	0.31840 0.72790 0.31930 -0.08800
H 	H 	0.33140 0.77310 0.32080 0.08900
C 	C 	0.34430 0.66780 0.34790 0.09900
C 	C 	0.32410 0.59960 0.34420 -0.08300
H 	H 	0.34160 0.55860 0.36270 0.03500
C 	C 	0.24370 0.78740 0.25560 0.34400
N 	N 	0.91060 0.33960 0.08790 -0.16400
N 	N 	0.38890 0.67540 0.38840 -0.08500
O 	O 	0.14610 0.38710 0.20200 -0.27500
O 	O 	0.13520 0.45640 0.28220 -0.29600
O 	O 	0.74502 0.20670 0.87360 -0.40800
O 	O 	0.81396 0.16420 0.91100 -0.53700
O 	O 	0.77500 0.44440 0.09150 -0.42900
O 	O 	0.72069 0.40460 0.99770 -0.44200
O 	O 	0.61920 0.54410 0.55920 -0.52700
O 	O 	0.61010 0.62510 0.61970 -0.45700
O 	O 	0.21806 0.51220 0.27940 -0.38100
O 	O 	0.28253 0.46890 0.34990 -0.60000
O 	O 	0.26070 0.84670 0.25560 -0.47000
O 	O 	0.20290 0.77760 0.22810 -0.42500
C 	C 	0.92610 0.36800 0.30820 -0.04100
C 	C 	0.94220 0.34880 0.38140 -0.09500
C 	C 	0.98760 0.34510 0.41770 -0.00700
C 	C 	0.98450 0.34470 0.11520 -0.07200
C 	C 	0.99970 0.35900 0.17470 -0.03200
C 	C 	0.95240 0.37000 0.28100 -0.04100
C 	C 	0.93590 0.33110 0.07460 0.07700
H 	H 	0.92350 0.34060 0.39900 0.08300
H 	H 	0.99920 0.34280 0.03670 0.03200
H 	H 	0.98050 0.36310 0.19220 0.02800
H 	H 	0.94140 0.37740 0.23620 0.06700
N 	N 	0.89510 0.16240 0.36070 -0.09400
O 	O 	0.85840 0.34580 0.25410 -0.00100
O 	O 	0.85740 0.34930 0.22350 -0.46400
