data_crystal

_cell_length_a 18.46660
_cell_length_b 19.69760
_cell_length_c 23.03100
_cell_angle_alpha 115.17400
_cell_angle_beta  90.00000
_cell_angle_gamma 117.95300

_symmetry_space_group_name_	'P 1'
_symmetry_space_group_name_H-M	'P 1'

loop_
_symmetry_equiv_pos_as_xyz
  x,y,z

loop_
_atom_site_label
_atom_site_type_symbol
_atom_site_fract_x
_atom_site_fract_y
_atom_site_fract_z
_atom_site_charge
Cd	Cd	0.32075 0.42034 0.30573 1.24000
Cd	Cd	0.73104 0.35282 0.03547 1.18900
Cd	Cd	0.19886 0.64164 0.82219 1.20900
Cd	Cd	0.90041 0.57966 0.19427 1.24000
Cd	Cd	0.37822 0.64718 0.46453 1.18900
Cd	Cd	0.55722 0.35836 0.67781 1.20900
Cd	Cd	0.67925 0.57966 0.69427 1.23900
Cd	Cd	0.26896 0.64718 0.96453 1.18800
Cd	Cd	0.80114 0.35836 0.17781 1.20800
Cd	Cd	0.09959 0.42034 0.80573 1.23900
Cd	Cd	0.62178 0.35282 0.53547 1.18800
Cd	Cd	0.44278 0.64164 0.32219 1.20800
H 	H 	0.22130 0.14580 0.09160 0.03900
H 	H 	0.15630 0.99380 0.02710 0.06500
H 	H 	0.10900 0.97080 0.19090 0.07000
H 	H 	0.17580 0.12100 0.25330 0.03900
H 	H 	0.94020 0.48920 0.95010 0.05300
H 	H 	0.11260 0.73460 0.98930 0.06100
H 	H 	0.94300 0.69560 0.09870 0.07900
H 	H 	0.53150 0.08720 0.45890 -0.01000
H 	H 	0.44540 0.93980 0.38310 0.08200
H 	H 	0.25890 0.93060 0.47220 0.09700
H 	H 	0.34420 0.07580 0.54630 0.00500
H 	H 	0.07710 0.44060 0.26290 0.05900
H 	H 	0.06080 0.65620 0.31730 0.07400
H 	H 	0.28510 0.68040 0.36510 0.03400
H 	H 	0.07550 0.85420 0.40840 0.03400
H 	H 	0.16250 0.00620 0.47290 0.07300
H 	H 	0.13820 0.02920 0.30910 0.07800
H 	H 	0.05480 0.87900 0.24670 0.03400
H 	H 	0.45100 0.51080 0.54990 0.05300
H 	H 	0.37800 0.26540 0.51070 0.06200
H 	H 	0.24740 0.30440 0.40130 0.08000
H 	H 	0.44430 0.91280 0.04110 -0.00800
H 	H 	0.50560 0.06020 0.11690 0.08100
H 	H 	0.32830 0.06940 0.02780 0.09500
H 	H 	0.26840 0.92420 0.95370 0.00700
H 	H 	0.63650 0.55940 0.23710 0.05900
H 	H 	0.40460 0.34380 0.18270 0.07500
H 	H 	0.60470 0.31960 0.13490 0.03400
H 	H 	0.77870 0.85420 0.90840 0.03900
H 	H 	0.84370 0.00620 0.97290 0.06500
H 	H 	0.89100 0.02920 0.80910 0.07000
H 	H 	0.82420 0.87900 0.74670 0.03900
H 	H 	0.05980 0.51080 0.04990 0.05300
H 	H 	0.88740 0.26540 0.01070 0.06100
H 	H 	0.05700 0.30440 0.90130 0.07900
H 	H 	0.46850 0.91280 0.54110 -0.01000
H 	H 	0.55460 0.06020 0.61690 0.08200
H 	H 	0.74110 0.06940 0.52780 0.09700
H 	H 	0.65580 0.92420 0.45370 0.00500
H 	H 	0.92290 0.55940 0.73710 0.05900
H 	H 	0.93920 0.34380 0.68270 0.07400
H 	H 	0.71490 0.31960 0.63490 0.03400
H 	H 	0.92450 0.14580 0.59160 0.03400
H 	H 	0.83750 0.99380 0.52710 0.07300
H 	H 	0.86180 0.97080 0.69090 0.07800
H 	H 	0.94520 0.12100 0.75330 0.03400
H 	H 	0.54900 0.48920 0.45010 0.05300
H 	H 	0.62200 0.73460 0.48930 0.06200
H 	H 	0.75260 0.69560 0.59870 0.08000
H 	H 	0.55570 0.08720 0.95890 -0.00800
H 	H 	0.49440 0.93980 0.88310 0.08100
H 	H 	0.67170 0.93060 0.97220 0.09500
H 	H 	0.73160 0.07580 0.04630 0.00700
H 	H 	0.36350 0.44060 0.76290 0.05900
H 	H 	0.59540 0.65620 0.81730 0.07500
H 	H 	0.39530 0.68040 0.86510 0.03400
C 	C 	0.24660 0.24640 0.22140 0.32000
C 	C 	0.20530 0.14800 0.17820 -0.08700
C 	C 	0.19960 0.11040 0.11150 0.02300
C 	C 	0.16160 0.01920 0.07270 -0.09700
C 	C 	0.13170 0.96720 0.10380 0.04600
C 	C 	0.13370 0.00580 0.17100 -0.09500
C 	C 	0.17210 0.09540 0.20790 0.02100
C 	C 	0.09250 0.87160 0.06300 0.02800
C 	C 	0.85526 0.52152 0.04120 0.31900
C 	C 	0.92849 0.58198 0.02570 -0.06300
C 	C 	0.96330 0.54940 0.97510 0.00500
C 	C 	0.03251 0.60602 0.96170 -0.07200
C 	C 	0.06651 0.69662 0.99830 -0.07800
C 	C 	0.03150 0.72940 0.04790 0.09400
C 	C 	0.96417 0.67294 0.06340 -0.07600
C 	C 	0.07391 0.57062 0.91030 0.35300
C 	C 	0.50340 0.18920 0.56310 0.38800
C 	C 	0.44740 0.09600 0.51100 -0.18500
C 	C 	0.47660 0.05560 0.46210 0.09800
C 	C 	0.42490 0.96700 0.41670 -0.16800
C 	C 	0.34380 0.91920 0.42090 0.10200
C 	C 	0.31400 0.96120 0.46940 -0.17300
C 	C 	0.36530 0.04820 0.51360 0.10100
C 	C 	0.29320 0.82300 0.37630 0.00000
C 	C 	0.23988 0.51356 0.31380 0.33200
C 	C 	0.18985 0.55510 0.31420 -0.09600
C 	C 	0.10282 0.50124 0.28360 0.00100
C 	C 	0.05515 0.53990 0.28460 -0.06100
C 	C 	0.09278 0.63076 0.31610 -0.08000
C 	C 	0.18050 0.68360 0.34610 0.08500
C 	C 	0.22741 0.64502 0.34490 -0.08100
C 	C 	0.96217 0.48034 0.25140 0.31900
C 	C 	0.00020 0.75360 0.27860 0.32100
C 	C 	0.05730 0.85200 0.32180 -0.09600
C 	C 	0.08920 0.88960 0.38850 0.03500
C 	C 	0.14240 0.98080 0.42730 -0.11600
C 	C 	0.16450 0.03280 0.39620 0.06300
C 	C 	0.12790 0.99420 0.32900 -0.11500
C 	C 	0.07670 0.90460 0.29210 0.03400
C 	C 	0.22090 0.12840 0.43700 0.02400
C 	C 	0.33374 0.47848 0.45880 0.31800
C 	C 	0.34651 0.41802 0.47430 -0.06200
C 	C 	0.41390 0.45060 0.52490 0.00400
C 	C 	0.42649 0.39398 0.53830 -0.07000
C 	C 	0.36989 0.30338 0.50170 -0.07900
C 	C 	0.30210 0.27060 0.45210 0.09500
C 	C 	0.29123 0.32706 0.43660 -0.07800
C 	C 	0.50329 0.42938 0.58970 0.35200
C 	C 	0.31420 0.81080 0.93690 0.38700
C 	C 	0.35140 0.90400 0.98900 -0.18200
C 	C 	0.42100 0.94440 0.03790 0.09400
C 	C 	0.45790 0.03300 0.08330 -0.16400
C 	C 	0.42460 0.08080 0.07910 0.09900
C 	C 	0.35280 0.03880 0.03060 -0.16800
C 	C 	0.31710 0.95180 0.98640 0.09700
C 	C 	0.47020 0.17700 0.12370 0.00100
C 	C 	0.72632 0.48644 0.18620 0.33200
C 	C 	0.63475 0.44490 0.18580 -0.09600
C 	C 	0.60158 0.49876 0.21640 0.00100
C 	C 	0.51525 0.46010 0.21540 -0.06000
C 	C 	0.46202 0.36924 0.18390 -0.08000
C 	C 	0.49690 0.31640 0.15390 0.08500
C 	C 	0.58239 0.35498 0.15510 -0.08100
C 	C 	0.48183 0.51966 0.24860 0.31900
C 	C 	0.75340 0.75360 0.77860 0.32000
C 	C 	0.79470 0.85200 0.82180 -0.08700
C 	C 	0.80040 0.88960 0.88850 0.02300
C 	C 	0.83840 0.98080 0.92730 -0.09700
C 	C 	0.86830 0.03280 0.89620 0.04600
C 	C 	0.86630 0.99420 0.82900 -0.09500
C 	C 	0.82790 0.90460 0.79210 0.02100
C 	C 	0.90750 0.12840 0.93700 0.02800
C 	C 	0.14474 0.47848 0.95880 0.31900
C 	C 	0.07151 0.41802 0.97430 -0.06300
C 	C 	0.03670 0.45060 0.02490 0.00500
C 	C 	0.96749 0.39398 0.03830 -0.07200
C 	C 	0.93349 0.30338 0.00170 -0.07800
C 	C 	0.96850 0.27060 0.95210 0.09400
C 	C 	0.03583 0.32706 0.93660 -0.07600
C 	C 	0.92609 0.42938 0.08970 0.35300
C 	C 	0.49660 0.81080 0.43690 0.38800
C 	C 	0.55260 0.90400 0.48900 -0.18500
C 	C 	0.52340 0.94440 0.53790 0.09800
C 	C 	0.57510 0.03300 0.58330 -0.16800
C 	C 	0.65620 0.08080 0.57910 0.10200
C 	C 	0.68600 0.03880 0.53060 -0.17300
C 	C 	0.63470 0.95180 0.48640 0.10100
C 	C 	0.70680 0.17700 0.62370 0.00000
C 	C 	0.76012 0.48644 0.68620 0.33200
C 	C 	0.81015 0.44490 0.68580 -0.09600
C 	C 	0.89718 0.49876 0.71640 0.00100
C 	C 	0.94485 0.46010 0.71540 -0.06100
C 	C 	0.90722 0.36924 0.68390 -0.08000
C 	C 	0.81950 0.31640 0.65390 0.08500
C 	C 	0.77259 0.35498 0.65510 -0.08100
C 	C 	0.03783 0.51966 0.74860 0.31900
C 	C 	0.99980 0.24640 0.72140 0.32100
C 	C 	0.94270 0.14800 0.67820 -0.09600
C 	C 	0.91080 0.11040 0.61150 0.03500
C 	C 	0.85760 0.01920 0.57270 -0.11600
C 	C 	0.83550 0.96720 0.60380 0.06300
C 	C 	0.87210 0.00580 0.67100 -0.11500
C 	C 	0.92330 0.09540 0.70790 0.03400
C 	C 	0.77910 0.87160 0.56300 0.02400
C 	C 	0.66626 0.52152 0.54120 0.31800
C 	C 	0.65349 0.58198 0.52570 -0.06200
C 	C 	0.58610 0.54940 0.47510 0.00400
C 	C 	0.57351 0.60602 0.46170 -0.07000
C 	C 	0.63011 0.69662 0.49830 -0.07900
C 	C 	0.69790 0.72940 0.54790 0.09500
C 	C 	0.70877 0.67294 0.56340 -0.07800
C 	C 	0.49671 0.57062 0.41030 0.35200
C 	C 	0.68580 0.18920 0.06310 0.38700
C 	C 	0.64860 0.09600 0.01100 -0.18200
C 	C 	0.57900 0.05560 0.96210 0.09400
C 	C 	0.54210 0.96700 0.91670 -0.16400
C 	C 	0.57540 0.91920 0.92090 0.09900
C 	C 	0.64720 0.96120 0.96940 -0.16800
C 	C 	0.68290 0.04820 0.01360 0.09700
C 	C 	0.52980 0.82300 0.87630 0.00100
C 	C 	0.27368 0.51356 0.81380 0.33200
C 	C 	0.36525 0.55510 0.81420 -0.09600
C 	C 	0.39842 0.50124 0.78360 0.00100
C 	C 	0.48475 0.53990 0.78460 -0.06000
C 	C 	0.53798 0.63076 0.81610 -0.08000
C 	C 	0.50310 0.68360 0.84610 0.08500
C 	C 	0.41761 0.64502 0.84490 -0.08100
C 	C 	0.51817 0.48034 0.75140 0.31900
N 	N 	0.06403 0.82046 0.08920 -0.12600
N 	N 	0.21773 0.77546 0.38040 -0.12300
N 	N 	0.24357 0.17954 0.41080 -0.12500
N 	N 	0.44227 0.22454 0.11960 -0.12300
N 	N 	0.93597 0.17954 0.91080 -0.12600
N 	N 	0.78227 0.22454 0.61960 -0.12300
N 	N 	0.75643 0.82046 0.58920 -0.12500
N 	N 	0.55773 0.77546 0.88040 -0.12300
O 	O 	0.26245 0.29190 0.19180 -0.33700
O 	O 	0.26758 0.27916 0.28100 -0.39700
O 	O 	0.81711 0.43982 0.99780 -0.43600
O 	O 	0.83433 0.55046 0.09430 -0.42700
O 	O 	0.14683 0.62706 0.91060 -0.53300
O 	O 	0.03602 0.48964 0.87190 -0.41600
O 	O 	0.47837 0.21774 0.61370 -0.45800
O 	O 	0.57435 0.23650 0.55650 -0.49100
O 	O 	0.31787 0.56554 0.34830 -0.59000
O 	O 	0.20955 0.43410 0.27890 -0.39000
O 	O 	0.93259 0.39918 0.22420 -0.40400
O 	O 	0.91737 0.51334 0.25240 -0.48000
O 	O 	0.97055 0.70810 0.30820 -0.33700
O 	O 	0.98842 0.72084 0.21900 -0.39600
O 	O 	0.37729 0.56018 0.50220 -0.43600
O 	O 	0.28387 0.44954 0.40570 -0.42700
O 	O 	0.51977 0.37294 0.58940 -0.53300
O 	O 	0.54638 0.51036 0.62810 -0.41600
O 	O 	0.26063 0.78226 0.88630 -0.45800
O 	O 	0.33785 0.76350 0.94350 -0.49100
O 	O 	0.75233 0.43446 0.15170 -0.59000
O 	O 	0.77545 0.56590 0.22110 -0.39000
O 	O 	0.53341 0.60082 0.27580 -0.40400
O 	O 	0.40403 0.48666 0.24760 -0.48000
O 	O 	0.73755 0.70810 0.80820 -0.33700
O 	O 	0.73242 0.72084 0.71900 -0.39700
O 	O 	0.18289 0.56018 0.00220 -0.43600
O 	O 	0.16567 0.44954 0.90570 -0.42700
O 	O 	0.85317 0.37294 0.08940 -0.53300
O 	O 	0.96398 0.51036 0.12810 -0.41600
O 	O 	0.52163 0.78226 0.38630 -0.45800
O 	O 	0.42565 0.76350 0.44350 -0.49100
O 	O 	0.68213 0.43446 0.65170 -0.59000
O 	O 	0.79045 0.56590 0.72110 -0.39000
O 	O 	0.06741 0.60082 0.77580 -0.40400
O 	O 	0.08263 0.48666 0.74760 -0.48000
O 	O 	0.02945 0.29190 0.69180 -0.33700
O 	O 	0.01158 0.27916 0.78100 -0.39600
O 	O 	0.62271 0.43982 0.49780 -0.43600
O 	O 	0.71613 0.55046 0.59430 -0.42700
O 	O 	0.48023 0.62706 0.41060 -0.53300
O 	O 	0.45362 0.48964 0.37190 -0.41600
O 	O 	0.73937 0.21774 0.11370 -0.45800
O 	O 	0.66215 0.23650 0.05650 -0.49100
O 	O 	0.24767 0.56554 0.84830 -0.59000
O 	O 	0.22455 0.43410 0.77890 -0.39000
O 	O 	0.46659 0.39918 0.72420 -0.40400
O 	O 	0.59597 0.51334 0.75240 -0.48000
