data_crystal

_cell_length_a 34.03390
_cell_length_b 18.76060
_cell_length_c 22.36660
_cell_angle_alpha 90.00000
_cell_angle_beta  116.42900
_cell_angle_gamma 90.00000

_symmetry_space_group_name_	'P 1'
_symmetry_space_group_name_H-M	'P 1'

loop_
_symmetry_equiv_pos_as_xyz
  x,y,z

loop_
_atom_site_label
_atom_site_type_symbol
_atom_site_fract_x
_atom_site_fract_y
_atom_site_fract_z
_atom_site_charge
Cd	Cd	0.28770 0.12421 0.70115 1.26200
Cd	Cd	0.82478 0.06246 0.95180 1.19100
Cd	Cd	0.67546 0.35703 0.18842 1.20600
O 	O 	0.35700 0.14330 0.72070 -0.31700
O 	O 	0.35030 0.13210 0.81220 -0.31400
O 	O 	0.77951 0.09790 0.99370 -0.43600
O 	O 	0.72479 0.06380 0.89680 -0.40500
O 	O 	0.68497 0.32320 0.09490 -0.52700
O 	O 	0.75387 0.28330 0.12900 -0.40100
O 	O 	0.88140 0.93910 0.42400 -0.48400
O 	O 	0.89480 0.84170 0.37460 -0.43500
O 	O 	0.21515 0.05110 0.66490 -0.58300
O 	O 	0.27985 0.01340 0.73960 -0.36900
O 	O 	0.30228 0.75430 0.77490 -0.40400
O 	O 	0.24639 0.68030 0.74140 -0.46500
N 	N 	0.58890 0.15560 0.90950 -0.11600
N 	N 	0.11289 0.84150 0.62150 -0.12300
C 	C 	0.37450 0.13480 0.77550 0.82200
C 	C 	0.44910 0.13770 0.78950 0.12400
H 	H 	0.43730 0.13010 0.74370 0.00200
C 	C 	0.42390 0.14060 0.81560 -0.32400
C 	C 	0.49460 0.14530 0.82570 0.02600
H 	H 	0.51160 0.14120 0.80280 0.03700
C 	C 	0.51440 0.15770 0.88940 0.13900
C 	C 	0.48670 0.15950 0.92570 -0.09500
H 	H 	0.49970 0.16380 0.97200 0.06400
C 	C 	0.56220 0.16800 0.92740 -0.03000
C 	C 	0.44160 0.15470 0.89030 0.05000
H 	H 	0.42320 0.15980 0.91070 0.03000
C 	C 	0.73950 0.09700 0.95210 0.32000
C 	C 	0.70870 0.13710 0.97030 -0.05600
C 	C 	0.72510 0.18480 0.02320 0.00400
H 	H 	0.75520 0.18990 0.04850 0.05700
C 	C 	0.69620 0.22530 0.03860 -0.07100
C 	C 	0.65070 0.21580 0.00180 -0.07200
H 	H 	0.63150 0.24180 0.01260 0.05800
C 	C 	0.63410 0.16650 0.94810 0.09500
C 	C 	0.66310 0.12940 0.93250 -0.08100
H 	H 	0.65230 0.09850 0.89610 0.09200
C 	C 	0.71350 0.28060 0.09180 0.35200
C 	C 	0.90550 0.88940 0.41890 0.33000
C 	C 	0.95250 0.88750 0.47330 -0.13000
C 	C 	0.96710 0.93500 0.52410 0.04800
H 	H 	0.94760 0.96890 0.52550 0.00200
C 	C 	0.01090 0.93560 0.57560 -0.12900
H 	H 	0.02000 0.96880 0.61000 0.06700
C 	C 	0.03940 0.88490 0.57250 0.05200
C 	C 	0.02410 0.83720 0.52100 -0.12500
H 	H 	0.04330 0.80360 0.51820 0.07800
C 	C 	0.98060 0.83740 0.47240 0.04600
H 	H 	0.97090 0.80270 0.43930 0.02500
C 	C 	0.08610 0.88680 0.62300 -0.00500
C 	C 	0.24030 0.00200 0.70320 0.32700
C 	C 	0.22130 0.93090 0.70160 -0.09400
C 	C 	0.24780 0.87300 0.72780 0.00400
H 	H 	0.27790 0.87970 0.75070 0.06200
C 	C 	0.23110 0.80480 0.72140 -0.05500
C 	C 	0.18620 0.79450 0.68760 -0.08800
H 	H 	0.17460 0.74870 0.68220 0.10100
C 	C 	0.15840 0.85310 0.66180 0.09300
C 	C 	0.17660 0.92120 0.66890 -0.08500
H 	H 	0.15820 0.96040 0.65130 0.03500
C 	C 	0.26210 0.74330 0.74710 0.31900
H 	H 	0.57000 0.17800 0.97300 0.04400
H 	H 	0.06000 0.88300 0.62800 0.02700
C 	C 	0.45680 0.08240 0.80230 -0.02500
C 	C 	0.49580 0.10480 0.66260 -0.19500
C 	C 	0.48890 0.21520 0.87300 -0.21500
C 	C 	0.44360 0.19910 0.83520 0.16200
H 	H 	0.44690 0.04140 0.77650 0.05600
H 	H 	0.47450 0.08610 0.67360 0.09700
H 	H 	0.49960 0.26120 0.88510 0.10500
H 	H 	0.42530 0.23880 0.82290 -0.00500
O 	O 	0.36500 0.07030 0.73710 -0.28400
O 	O 	0.35400 0.17560 0.75950 -0.45300
Cd	Cd	0.78770 0.62421 0.70115 1.26100
Cd	Cd	0.32478 0.56246 0.95180 1.19000
Cd	Cd	0.17546 0.85703 0.18842 1.20500
O 	O 	0.85700 0.64330 0.72070 -0.31800
O 	O 	0.85030 0.63210 0.81220 -0.31500
O 	O 	0.27951 0.59790 0.99370 -0.43700
O 	O 	0.22479 0.56380 0.89680 -0.40600
O 	O 	0.18497 0.82320 0.09490 -0.52800
O 	O 	0.25387 0.78330 0.12900 -0.40200
O 	O 	0.38140 0.43910 0.42400 -0.48500
O 	O 	0.39480 0.34170 0.37460 -0.43600
O 	O 	0.71515 0.55110 0.66490 -0.58400
O 	O 	0.77985 0.51340 0.73960 -0.37000
O 	O 	0.80228 0.25430 0.77490 -0.40500
O 	O 	0.74639 0.18030 0.74140 -0.46600
N 	N 	0.08890 0.65560 0.90950 -0.11700
N 	N 	0.61289 0.34150 0.62150 -0.12300
C 	C 	0.87450 0.63480 0.77550 0.82200
C 	C 	0.94910 0.63770 0.78950 0.12500
H 	H 	0.93730 0.63010 0.74370 0.00200
C 	C 	0.92390 0.64060 0.81560 -0.32400
C 	C 	0.99460 0.64530 0.82570 0.02500
H 	H 	0.01160 0.64120 0.80280 0.03700
C 	C 	0.01440 0.65770 0.88940 0.13800
C 	C 	0.98670 0.65950 0.92570 -0.09500
H 	H 	0.99970 0.66380 0.97200 0.06400
C 	C 	0.06220 0.66800 0.92740 -0.03000
C 	C 	0.94160 0.65470 0.89030 0.05100
H 	H 	0.92320 0.65980 0.91070 0.03000
C 	C 	0.23950 0.59700 0.95210 0.31900
C 	C 	0.20870 0.63710 0.97030 -0.05600
C 	C 	0.22510 0.68480 0.02320 0.00300
H 	H 	0.25520 0.68990 0.04850 0.05700
C 	C 	0.19620 0.72530 0.03860 -0.07100
C 	C 	0.15070 0.71580 0.00180 -0.07300
H 	H 	0.13150 0.74180 0.01260 0.05800
C 	C 	0.13410 0.66650 0.94810 0.09600
C 	C 	0.16310 0.62940 0.93250 -0.08100
H 	H 	0.15230 0.59850 0.89610 0.09300
C 	C 	0.21350 0.78060 0.09180 0.35200
C 	C 	0.40550 0.38940 0.41890 0.33000
C 	C 	0.45250 0.38750 0.47330 -0.13000
C 	C 	0.46710 0.43500 0.52410 0.04800
H 	H 	0.44760 0.46890 0.52550 0.00200
C 	C 	0.51090 0.43560 0.57560 -0.12900
H 	H 	0.52000 0.46880 0.61000 0.06700
C 	C 	0.53940 0.38490 0.57250 0.05300
C 	C 	0.52410 0.33720 0.52100 -0.12500
H 	H 	0.54330 0.30360 0.51820 0.07800
C 	C 	0.48060 0.33740 0.47240 0.04600
H 	H 	0.47090 0.30270 0.43930 0.02500
C 	C 	0.58610 0.38680 0.62300 -0.00500
C 	C 	0.74030 0.50200 0.70320 0.32700
C 	C 	0.72130 0.43090 0.70160 -0.09400
C 	C 	0.74780 0.37300 0.72780 0.00400
H 	H 	0.77790 0.37970 0.75070 0.06100
C 	C 	0.73110 0.30480 0.72140 -0.05500
C 	C 	0.68620 0.29450 0.68760 -0.08800
H 	H 	0.67460 0.24870 0.68220 0.10100
C 	C 	0.65840 0.35310 0.66180 0.09300
C 	C 	0.67660 0.42120 0.66890 -0.08500
H 	H 	0.65820 0.46040 0.65130 0.03500
C 	C 	0.76210 0.24330 0.74710 0.31900
H 	H 	0.07000 0.67800 0.97300 0.04400
H 	H 	0.56000 0.38300 0.62800 0.02700
C 	C 	0.95680 0.58240 0.80230 -0.02600
C 	C 	0.99580 0.60480 0.66260 -0.19600
C 	C 	0.98890 0.71520 0.87300 -0.21400
C 	C 	0.94360 0.69910 0.83520 0.16100
H 	H 	0.94690 0.54140 0.77650 0.05600
H 	H 	0.97450 0.58610 0.67360 0.09700
H 	H 	0.99960 0.76120 0.88510 0.10500
H 	H 	0.92530 0.73880 0.82290 -0.00500
O 	O 	0.86500 0.57030 0.73710 -0.28400
O 	O 	0.85400 0.67560 0.75950 -0.45300
Cd	Cd	0.71230 0.12421 0.79885 1.26100
Cd	Cd	0.17522 0.06246 0.54820 1.19000
Cd	Cd	0.32454 0.35703 0.31158 1.20500
O 	O 	0.64300 0.14330 0.77930 -0.31800
O 	O 	0.64970 0.13210 0.68780 -0.31500
O 	O 	0.22049 0.09790 0.50630 -0.43700
O 	O 	0.27521 0.06380 0.60320 -0.40600
O 	O 	0.31503 0.32320 0.40510 -0.52700
O 	O 	0.24613 0.28330 0.37100 -0.40200
O 	O 	0.11860 0.93910 0.07600 -0.48500
O 	O 	0.10520 0.84170 0.12540 -0.43600
O 	O 	0.78485 0.05110 0.83510 -0.58400
O 	O 	0.72015 0.01340 0.76040 -0.37000
O 	O 	0.69772 0.75430 0.72510 -0.40500
O 	O 	0.75361 0.68030 0.75860 -0.46600
N 	N 	0.41110 0.15560 0.59050 -0.11700
N 	N 	0.88711 0.84150 0.87850 -0.12300
C 	C 	0.62550 0.13480 0.72450 0.82200
C 	C 	0.55090 0.13770 0.71050 0.12400
H 	H 	0.56270 0.13010 0.75630 0.00200
C 	C 	0.57610 0.14060 0.68440 -0.32400
C 	C 	0.50540 0.14530 0.67430 0.02600
H 	H 	0.48840 0.14120 0.69720 0.03700
C 	C 	0.48560 0.15770 0.61060 0.13900
C 	C 	0.51330 0.15950 0.57430 -0.09500
H 	H 	0.50030 0.16380 0.52800 0.06400
C 	C 	0.43780 0.16800 0.57260 -0.03000
C 	C 	0.55840 0.15470 0.60970 0.05000
H 	H 	0.57680 0.15980 0.58930 0.03000
C 	C 	0.26050 0.09700 0.54790 0.31900
C 	C 	0.29130 0.13710 0.52970 -0.05600
C 	C 	0.27490 0.18480 0.47680 0.00300
H 	H 	0.24480 0.18990 0.45150 0.05700
C 	C 	0.30380 0.22530 0.46140 -0.07100
C 	C 	0.34930 0.21580 0.49820 -0.07300
H 	H 	0.36850 0.24180 0.48740 0.05800
C 	C 	0.36590 0.16650 0.55190 0.09600
C 	C 	0.33690 0.12940 0.56750 -0.08100
H 	H 	0.34770 0.09850 0.60390 0.09300
C 	C 	0.28650 0.28060 0.40820 0.35200
C 	C 	0.09450 0.88940 0.08110 0.33000
C 	C 	0.04750 0.88750 0.02670 -0.13000
C 	C 	0.03290 0.93500 0.97590 0.04800
H 	H 	0.05240 0.96890 0.97450 0.00200
C 	C 	0.98910 0.93560 0.92440 -0.12800
H 	H 	0.98000 0.96880 0.89000 0.06700
C 	C 	0.96060 0.88490 0.92750 0.05200
C 	C 	0.97590 0.83720 0.97900 -0.12400
H 	H 	0.95670 0.80360 0.98180 0.07800
C 	C 	0.01940 0.83740 0.02760 0.04500
H 	H 	0.02910 0.80270 0.06070 0.02500
C 	C 	0.91390 0.88680 0.87700 -0.00500
C 	C 	0.75970 0.00200 0.79680 0.32700
C 	C 	0.77870 0.93090 0.79840 -0.09300
C 	C 	0.75220 0.87300 0.77220 0.00400
H 	H 	0.72210 0.87970 0.74930 0.06200
C 	C 	0.76890 0.80480 0.77860 -0.05500
C 	C 	0.81380 0.79450 0.81240 -0.08800
H 	H 	0.82540 0.74870 0.81780 0.10100
C 	C 	0.84160 0.85310 0.83820 0.09300
C 	C 	0.82340 0.92120 0.83110 -0.08500
H 	H 	0.84180 0.96040 0.84870 0.03500
C 	C 	0.73790 0.74330 0.75290 0.31900
H 	H 	0.43000 0.17800 0.52700 0.04400
H 	H 	0.94000 0.88300 0.87200 0.02700
C 	C 	0.54320 0.08240 0.69770 -0.02500
C 	C 	0.50420 0.10480 0.83740 -0.19500
C 	C 	0.51110 0.21520 0.62700 -0.21500
C 	C 	0.55640 0.19910 0.66480 0.16200
H 	H 	0.55310 0.04140 0.72350 0.05600
H 	H 	0.52550 0.08610 0.82640 0.09700
H 	H 	0.50040 0.26120 0.61490 0.10500
H 	H 	0.57470 0.23880 0.67710 -0.00500
O 	O 	0.63500 0.07030 0.76290 -0.28400
O 	O 	0.64600 0.17560 0.74050 -0.45300
Cd	Cd	0.21230 0.62421 0.79885 1.26100
Cd	Cd	0.67522 0.56246 0.54820 1.19000
Cd	Cd	0.82454 0.85703 0.31158 1.20500
O 	O 	0.14300 0.64330 0.77930 -0.31800
O 	O 	0.14970 0.63210 0.68780 -0.31500
O 	O 	0.72049 0.59790 0.50630 -0.43700
O 	O 	0.77521 0.56380 0.60320 -0.40600
O 	O 	0.81503 0.82320 0.40510 -0.52800
O 	O 	0.74613 0.78330 0.37100 -0.40200
O 	O 	0.61860 0.43910 0.07600 -0.48500
O 	O 	0.60520 0.34170 0.12540 -0.43600
O 	O 	0.28485 0.55110 0.83510 -0.58400
O 	O 	0.22015 0.51340 0.76040 -0.37000
O 	O 	0.19772 0.25430 0.72510 -0.40500
O 	O 	0.25361 0.18030 0.75860 -0.46600
N 	N 	0.91110 0.65560 0.59050 -0.11700
N 	N 	0.38711 0.34150 0.87850 -0.12300
C 	C 	0.12550 0.63480 0.72450 0.82200
C 	C 	0.05090 0.63770 0.71050 0.12300
H 	H 	0.06270 0.63010 0.75630 0.00200
C 	C 	0.07610 0.64060 0.68440 -0.32400
C 	C 	0.00540 0.64530 0.67430 0.02600
H 	H 	0.98840 0.64120 0.69720 0.03700
C 	C 	0.98560 0.65770 0.61060 0.13900
C 	C 	0.01330 0.65950 0.57430 -0.09500
H 	H 	0.00030 0.66380 0.52800 0.06400
C 	C 	0.93780 0.66800 0.57260 -0.03000
C 	C 	0.05840 0.65470 0.60970 0.05000
H 	H 	0.07680 0.65980 0.58930 0.03000
C 	C 	0.76050 0.59700 0.54790 0.31900
C 	C 	0.79130 0.63710 0.52970 -0.05600
C 	C 	0.77490 0.68480 0.47680 0.00300
H 	H 	0.74480 0.68990 0.45150 0.05700
C 	C 	0.80380 0.72530 0.46140 -0.07100
C 	C 	0.84930 0.71580 0.49820 -0.07300
H 	H 	0.86850 0.74180 0.48740 0.05800
C 	C 	0.86590 0.66650 0.55190 0.09600
C 	C 	0.83690 0.62940 0.56750 -0.08100
H 	H 	0.84770 0.59850 0.60390 0.09300
C 	C 	0.78650 0.78060 0.40820 0.35200
C 	C 	0.59450 0.38940 0.08110 0.33000
C 	C 	0.54750 0.38750 0.02670 -0.13000
C 	C 	0.53290 0.43500 0.97590 0.04800
H 	H 	0.55240 0.46890 0.97450 0.00200
C 	C 	0.48910 0.43560 0.92440 -0.12900
H 	H 	0.48000 0.46880 0.89000 0.06700
C 	C 	0.46060 0.38490 0.92750 0.05300
C 	C 	0.47590 0.33720 0.97900 -0.12600
H 	H 	0.45670 0.30360 0.98180 0.07800
C 	C 	0.51940 0.33740 0.02760 0.04600
H 	H 	0.52910 0.30270 0.06070 0.02500
C 	C 	0.41390 0.38680 0.87700 -0.00500
C 	C 	0.25970 0.50200 0.79680 0.32700
C 	C 	0.27870 0.43090 0.79840 -0.09400
C 	C 	0.25220 0.37300 0.77220 0.00400
H 	H 	0.22210 0.37970 0.74930 0.06100
C 	C 	0.26890 0.30480 0.77860 -0.05500
C 	C 	0.31380 0.29450 0.81240 -0.08800
H 	H 	0.32540 0.24870 0.81780 0.10100
C 	C 	0.34160 0.35310 0.83820 0.09300
C 	C 	0.32340 0.42120 0.83110 -0.08500
H 	H 	0.34180 0.46040 0.84870 0.03500
C 	C 	0.23790 0.24330 0.75290 0.31900
H 	H 	0.93000 0.67800 0.52700 0.04400
H 	H 	0.44000 0.38300 0.87200 0.02700
C 	C 	0.04320 0.58240 0.69770 -0.02500
C 	C 	0.00420 0.60480 0.83740 -0.19500
C 	C 	0.01110 0.71520 0.62700 -0.21500
C 	C 	0.05640 0.69910 0.66480 0.16200
H 	H 	0.05310 0.54140 0.72350 0.05600
H 	H 	0.02550 0.58610 0.82640 0.09700
H 	H 	0.00040 0.76120 0.61490 0.10500
H 	H 	0.07470 0.73880 0.67710 -0.00500
O 	O 	0.13500 0.57030 0.76290 -0.28400
O 	O 	0.14600 0.67560 0.74050 -0.45300
Cd	Cd	0.71230 0.87579 0.29885 1.26100
Cd	Cd	0.17522 0.93754 0.04820 1.19000
Cd	Cd	0.32454 0.64297 0.81158 1.20500
O 	O 	0.64300 0.85670 0.27930 -0.31800
O 	O 	0.64970 0.86790 0.18780 -0.31500
O 	O 	0.22049 0.90210 0.00630 -0.43700
O 	O 	0.27521 0.93620 0.10320 -0.40600
O 	O 	0.31503 0.67680 0.90510 -0.52800
O 	O 	0.24613 0.71670 0.87100 -0.40200
O 	O 	0.11860 0.06090 0.57600 -0.48500
O 	O 	0.10520 0.15830 0.62540 -0.43600
O 	O 	0.78485 0.94890 0.33510 -0.58400
O 	O 	0.72015 0.98660 0.26040 -0.37000
O 	O 	0.69772 0.24570 0.22510 -0.40500
O 	O 	0.75361 0.31970 0.25860 -0.46600
N 	N 	0.41110 0.84440 0.09050 -0.11700
N 	N 	0.88711 0.15850 0.37850 -0.12300
C 	C 	0.62550 0.86520 0.22450 0.82200
C 	C 	0.55090 0.86230 0.21050 0.12400
H 	H 	0.56270 0.86990 0.25630 0.00200
C 	C 	0.57610 0.85940 0.18440 -0.32400
C 	C 	0.50540 0.85470 0.17430 0.02600
H 	H 	0.48840 0.85880 0.19720 0.03700
C 	C 	0.48560 0.84230 0.11060 0.13900
C 	C 	0.51330 0.84050 0.07430 -0.09500
H 	H 	0.50030 0.83620 0.02800 0.06400
C 	C 	0.43780 0.83200 0.07260 -0.03000
C 	C 	0.55840 0.84530 0.10970 0.05000
H 	H 	0.57680 0.84020 0.08930 0.03000
C 	C 	0.26050 0.90300 0.04790 0.32000
C 	C 	0.29130 0.86290 0.02970 -0.05600
C 	C 	0.27490 0.81520 0.97680 0.00400
H 	H 	0.24480 0.81010 0.95150 0.05700
C 	C 	0.30380 0.77470 0.96140 -0.07100
C 	C 	0.34930 0.78420 0.99820 -0.07200
H 	H 	0.36850 0.75820 0.98740 0.05800
C 	C 	0.36590 0.83350 0.05190 0.09500
C 	C 	0.33690 0.87060 0.06750 -0.08100
H 	H 	0.34770 0.90150 0.10390 0.09200
C 	C 	0.28650 0.71940 0.90820 0.35200
C 	C 	0.09450 0.11060 0.58110 0.33000
C 	C 	0.04750 0.11250 0.52670 -0.13000
C 	C 	0.03290 0.06500 0.47590 0.04800
H 	H 	0.05240 0.03110 0.47450 0.00200
C 	C 	0.98910 0.06440 0.42440 -0.12900
H 	H 	0.98000 0.03120 0.39000 0.06700
C 	C 	0.96060 0.11510 0.42750 0.05200
C 	C 	0.97590 0.16280 0.47900 -0.12500
H 	H 	0.95670 0.19640 0.48180 0.07800
C 	C 	0.01940 0.16260 0.52760 0.04600
H 	H 	0.02910 0.19730 0.56070 0.02500
C 	C 	0.91390 0.11320 0.37700 -0.00500
C 	C 	0.75970 0.99800 0.29680 0.32700
C 	C 	0.77870 0.06910 0.29840 -0.09400
C 	C 	0.75220 0.12700 0.27220 0.00400
H 	H 	0.72210 0.12030 0.24930 0.06200
C 	C 	0.76890 0.19520 0.27860 -0.05500
C 	C 	0.81380 0.20550 0.31240 -0.08800
H 	H 	0.82540 0.25130 0.31780 0.10100
C 	C 	0.84160 0.14690 0.33820 0.09300
C 	C 	0.82340 0.07880 0.33110 -0.08500
H 	H 	0.84180 0.03960 0.34870 0.03500
C 	C 	0.73790 0.25670 0.25290 0.31900
H 	H 	0.43000 0.82200 0.02700 0.04400
H 	H 	0.94000 0.11700 0.37200 0.02700
C 	C 	0.54320 0.91760 0.19770 -0.02500
C 	C 	0.50420 0.89520 0.33740 -0.19500
C 	C 	0.51110 0.78480 0.12700 -0.21500
C 	C 	0.55640 0.80090 0.16480 0.16200
H 	H 	0.55310 0.95860 0.22350 0.05600
H 	H 	0.52550 0.91390 0.32640 0.09700
H 	H 	0.50040 0.73880 0.11490 0.10500
H 	H 	0.57470 0.76120 0.17710 -0.00500
O 	O 	0.63500 0.92970 0.26290 -0.28400
O 	O 	0.64600 0.82440 0.24050 -0.45300
Cd	Cd	0.21230 0.37579 0.29885 1.26100
Cd	Cd	0.67522 0.43754 0.04820 1.19000
Cd	Cd	0.82454 0.14297 0.81158 1.20500
O 	O 	0.14300 0.35670 0.27930 -0.31800
O 	O 	0.14970 0.36790 0.18780 -0.31500
O 	O 	0.72049 0.40210 0.00630 -0.43700
O 	O 	0.77521 0.43620 0.10320 -0.40600
O 	O 	0.81503 0.17680 0.90510 -0.52800
O 	O 	0.74613 0.21670 0.87100 -0.40200
O 	O 	0.61860 0.56090 0.57600 -0.48500
O 	O 	0.60520 0.65830 0.62540 -0.43600
O 	O 	0.28485 0.44890 0.33510 -0.58400
O 	O 	0.22015 0.48660 0.26040 -0.37000
O 	O 	0.19772 0.74570 0.22510 -0.40500
O 	O 	0.25361 0.81970 0.25860 -0.46600
N 	N 	0.91110 0.34440 0.09050 -0.11700
N 	N 	0.38711 0.65850 0.37850 -0.12300
C 	C 	0.12550 0.36520 0.22450 0.82200
C 	C 	0.05090 0.36230 0.21050 0.12500
H 	H 	0.06270 0.36990 0.25630 0.00200
C 	C 	0.07610 0.35940 0.18440 -0.32400
C 	C 	0.00540 0.35470 0.17430 0.02500
H 	H 	0.98840 0.35880 0.19720 0.03700
C 	C 	0.98560 0.34230 0.11060 0.13800
C 	C 	0.01330 0.34050 0.07430 -0.09500
H 	H 	0.00030 0.33620 0.02800 0.06400
C 	C 	0.93780 0.33200 0.07260 -0.03000
C 	C 	0.05840 0.34530 0.10970 0.05100
H 	H 	0.07680 0.34020 0.08930 0.03000
C 	C 	0.76050 0.40300 0.04790 0.31900
C 	C 	0.79130 0.36290 0.02970 -0.05600
C 	C 	0.77490 0.31520 0.97680 0.00300
H 	H 	0.74480 0.31010 0.95150 0.05700
C 	C 	0.80380 0.27470 0.96140 -0.07100
C 	C 	0.84930 0.28420 0.99820 -0.07300
H 	H 	0.86850 0.25820 0.98740 0.05800
C 	C 	0.86590 0.33350 0.05190 0.09600
C 	C 	0.83690 0.37060 0.06750 -0.08100
H 	H 	0.84770 0.40150 0.10390 0.09300
C 	C 	0.78650 0.21940 0.90820 0.35200
C 	C 	0.59450 0.61060 0.58110 0.33000
C 	C 	0.54750 0.61250 0.52670 -0.13000
C 	C 	0.53290 0.56500 0.47590 0.04800
H 	H 	0.55240 0.53110 0.47450 0.00200
C 	C 	0.48910 0.56440 0.42440 -0.12900
H 	H 	0.48000 0.53120 0.39000 0.06700
C 	C 	0.46060 0.61510 0.42750 0.05300
C 	C 	0.47590 0.66280 0.47900 -0.12500
H 	H 	0.45670 0.69640 0.48180 0.07800
C 	C 	0.51940 0.66260 0.52760 0.04600
H 	H 	0.52910 0.69730 0.56070 0.02500
C 	C 	0.41390 0.61320 0.37700 -0.00500
C 	C 	0.25970 0.49800 0.29680 0.32700
C 	C 	0.27870 0.56910 0.29840 -0.09400
C 	C 	0.25220 0.62700 0.27220 0.00400
H 	H 	0.22210 0.62030 0.24930 0.06100
C 	C 	0.26890 0.69520 0.27860 -0.05500
C 	C 	0.31380 0.70550 0.31240 -0.08800
H 	H 	0.32540 0.75130 0.31780 0.10100
C 	C 	0.34160 0.64690 0.33820 0.09300
C 	C 	0.32340 0.57880 0.33110 -0.08500
H 	H 	0.34180 0.53960 0.34870 0.03500
C 	C 	0.23790 0.75670 0.25290 0.31900
H 	H 	0.93000 0.32200 0.02700 0.04400
H 	H 	0.44000 0.61700 0.37200 0.02700
C 	C 	0.04320 0.41760 0.19770 -0.02600
C 	C 	0.00420 0.39520 0.33740 -0.19600
C 	C 	0.01110 0.28480 0.12700 -0.21400
C 	C 	0.05640 0.30090 0.16480 0.16100
H 	H 	0.05310 0.45860 0.22350 0.05600
H 	H 	0.02550 0.41390 0.32640 0.09700
H 	H 	0.00040 0.23880 0.11490 0.10500
H 	H 	0.07470 0.26120 0.17710 -0.00500
O 	O 	0.13500 0.42970 0.26290 -0.28400
O 	O 	0.14600 0.32440 0.24050 -0.45300
Cd	Cd	0.28770 0.87579 0.20115 1.26100
Cd	Cd	0.82478 0.93754 0.45180 1.19000
Cd	Cd	0.67546 0.64297 0.68842 1.20500
O 	O 	0.35700 0.85670 0.22070 -0.31800
O 	O 	0.35030 0.86790 0.31220 -0.31500
O 	O 	0.77951 0.90210 0.49370 -0.43700
O 	O 	0.72479 0.93620 0.39680 -0.40600
O 	O 	0.68497 0.67680 0.59490 -0.52700
O 	O 	0.75387 0.71670 0.62900 -0.40200
O 	O 	0.88140 0.06090 0.92400 -0.48500
O 	O 	0.89480 0.15830 0.87460 -0.43600
O 	O 	0.21515 0.94890 0.16490 -0.58400
O 	O 	0.27985 0.98660 0.23960 -0.37000
O 	O 	0.30228 0.24570 0.27490 -0.40500
O 	O 	0.24639 0.31970 0.24140 -0.46600
N 	N 	0.58890 0.84440 0.40950 -0.11700
N 	N 	0.11289 0.15850 0.12150 -0.12300
C 	C 	0.37450 0.86520 0.27550 0.82200
C 	C 	0.44910 0.86230 0.28950 0.12400
H 	H 	0.43730 0.86990 0.24370 0.00200
C 	C 	0.42390 0.85940 0.31560 -0.32400
C 	C 	0.49460 0.85470 0.32570 0.02600
H 	H 	0.51160 0.85880 0.30280 0.03700
C 	C 	0.51440 0.84230 0.38940 0.13900
C 	C 	0.48670 0.84050 0.42570 -0.09500
H 	H 	0.49970 0.83620 0.47200 0.06400
C 	C 	0.56220 0.83200 0.42740 -0.03000
C 	C 	0.44160 0.84530 0.39030 0.05000
H 	H 	0.42320 0.84020 0.41070 0.03000
C 	C 	0.73950 0.90300 0.45210 0.31900
C 	C 	0.70870 0.86290 0.47030 -0.05600
C 	C 	0.72510 0.81520 0.52320 0.00300
H 	H 	0.75520 0.81010 0.54850 0.05700
C 	C 	0.69620 0.77470 0.53860 -0.07100
C 	C 	0.65070 0.78420 0.50180 -0.07300
H 	H 	0.63150 0.75820 0.51260 0.05800
C 	C 	0.63410 0.83350 0.44810 0.09600
C 	C 	0.66310 0.87060 0.43250 -0.08100
H 	H 	0.65230 0.90150 0.39610 0.09300
C 	C 	0.71350 0.71940 0.59180 0.35200
C 	C 	0.90550 0.11060 0.91890 0.33000
C 	C 	0.95250 0.11250 0.97330 -0.13000
C 	C 	0.96710 0.06500 0.02410 0.04800
H 	H 	0.94760 0.03110 0.02550 0.00200
C 	C 	0.01090 0.06440 0.07560 -0.12800
H 	H 	0.02000 0.03120 0.11000 0.06700
C 	C 	0.03940 0.11510 0.07250 0.05200
C 	C 	0.02410 0.16280 0.02100 -0.12400
H 	H 	0.04330 0.19640 0.01820 0.07800
C 	C 	0.98060 0.16260 0.97240 0.04500
H 	H 	0.97090 0.19730 0.93930 0.02500
C 	C 	0.08610 0.11320 0.12300 -0.00500
C 	C 	0.24030 0.99800 0.20320 0.32700
C 	C 	0.22130 0.06910 0.20160 -0.09300
C 	C 	0.24780 0.12700 0.22780 0.00400
H 	H 	0.27790 0.12030 0.25070 0.06200
C 	C 	0.23110 0.19520 0.22140 -0.05500
C 	C 	0.18620 0.20550 0.18760 -0.08800
H 	H 	0.17460 0.25130 0.18220 0.10100
C 	C 	0.15840 0.14690 0.16180 0.09300
C 	C 	0.17660 0.07880 0.16890 -0.08500
H 	H 	0.15820 0.03960 0.15130 0.03500
C 	C 	0.26210 0.25670 0.24710 0.31900
H 	H 	0.57000 0.82200 0.47300 0.04400
H 	H 	0.06000 0.11700 0.12800 0.02700
C 	C 	0.45680 0.91760 0.30230 -0.02500
C 	C 	0.49580 0.89520 0.16260 -0.19500
C 	C 	0.48890 0.78480 0.37300 -0.21500
C 	C 	0.44360 0.80090 0.33520 0.16200
H 	H 	0.44690 0.95860 0.27650 0.05600
H 	H 	0.47450 0.91390 0.17360 0.09700
H 	H 	0.49960 0.73880 0.38510 0.10500
H 	H 	0.42530 0.76120 0.32290 -0.00500
O 	O 	0.36500 0.92970 0.23710 -0.28400
O 	O 	0.35400 0.82440 0.25950 -0.45300
Cd	Cd	0.78770 0.37579 0.20115 1.26100
Cd	Cd	0.32478 0.43754 0.45180 1.19000
Cd	Cd	0.17546 0.14297 0.68842 1.20500
O 	O 	0.85700 0.35670 0.22070 -0.31800
O 	O 	0.85030 0.36790 0.31220 -0.31500
O 	O 	0.27951 0.40210 0.49370 -0.43700
O 	O 	0.22479 0.43620 0.39680 -0.40600
O 	O 	0.18497 0.17680 0.59490 -0.52800
O 	O 	0.25387 0.21670 0.62900 -0.40200
O 	O 	0.38140 0.56090 0.92400 -0.48500
O 	O 	0.39480 0.65830 0.87460 -0.43600
O 	O 	0.71515 0.44890 0.16490 -0.58400
O 	O 	0.77985 0.48660 0.23960 -0.37000
O 	O 	0.80228 0.74570 0.27490 -0.40500
O 	O 	0.74639 0.81970 0.24140 -0.46600
N 	N 	0.08890 0.34440 0.40950 -0.11700
N 	N 	0.61289 0.65850 0.12150 -0.12300
C 	C 	0.87450 0.36520 0.27550 0.82200
C 	C 	0.94910 0.36230 0.28950 0.12300
H 	H 	0.93730 0.36990 0.24370 0.00200
C 	C 	0.92390 0.35940 0.31560 -0.32400
C 	C 	0.99460 0.35470 0.32570 0.02600
H 	H 	0.01160 0.35880 0.30280 0.03700
C 	C 	0.01440 0.34230 0.38940 0.13900
C 	C 	0.98670 0.34050 0.42570 -0.09500
H 	H 	0.99970 0.33620 0.47200 0.06400
C 	C 	0.06220 0.33200 0.42740 -0.03000
C 	C 	0.94160 0.34530 0.39030 0.05000
H 	H 	0.92320 0.34020 0.41070 0.03000
C 	C 	0.23950 0.40300 0.45210 0.31900
C 	C 	0.20870 0.36290 0.47030 -0.05600
C 	C 	0.22510 0.31520 0.52320 0.00300
H 	H 	0.25520 0.31010 0.54850 0.05700
C 	C 	0.19620 0.27470 0.53860 -0.07100
C 	C 	0.15070 0.28420 0.50180 -0.07300
H 	H 	0.13150 0.25820 0.51260 0.05800
C 	C 	0.13410 0.33350 0.44810 0.09600
C 	C 	0.16310 0.37060 0.43250 -0.08100
H 	H 	0.15230 0.40150 0.39610 0.09300
C 	C 	0.21350 0.21940 0.59180 0.35200
C 	C 	0.40550 0.61060 0.91890 0.33000
C 	C 	0.45250 0.61250 0.97330 -0.13000
C 	C 	0.46710 0.56500 0.02410 0.04800
H 	H 	0.44760 0.53110 0.02550 0.00200
C 	C 	0.51090 0.56440 0.07560 -0.12900
H 	H 	0.52000 0.53120 0.11000 0.06700
C 	C 	0.53940 0.61510 0.07250 0.05300
C 	C 	0.52410 0.66280 0.02100 -0.12600
H 	H 	0.54330 0.69640 0.01820 0.07800
C 	C 	0.48060 0.66260 0.97240 0.04600
H 	H 	0.47090 0.69730 0.93930 0.02500
C 	C 	0.58610 0.61320 0.12300 -0.00500
C 	C 	0.74030 0.49800 0.20320 0.32700
C 	C 	0.72130 0.56910 0.20160 -0.09400
C 	C 	0.74780 0.62700 0.22780 0.00400
H 	H 	0.77790 0.62030 0.25070 0.06100
C 	C 	0.73110 0.69520 0.22140 -0.05500
C 	C 	0.68620 0.70550 0.18760 -0.08800
H 	H 	0.67460 0.75130 0.18220 0.10100
C 	C 	0.65840 0.64690 0.16180 0.09300
C 	C 	0.67660 0.57880 0.16890 -0.08500
H 	H 	0.65820 0.53960 0.15130 0.03500
C 	C 	0.76210 0.75670 0.24710 0.31900
H 	H 	0.07000 0.32200 0.47300 0.04400
H 	H 	0.56000 0.61700 0.12800 0.02700
C 	C 	0.95680 0.41760 0.30230 -0.02500
C 	C 	0.99580 0.39520 0.16260 -0.19500
C 	C 	0.98890 0.28480 0.37300 -0.21500
C 	C 	0.94360 0.30090 0.33520 0.16200
H 	H 	0.94690 0.45860 0.27650 0.05600
H 	H 	0.97450 0.41390 0.17360 0.09700
H 	H 	0.99960 0.23880 0.38510 0.10500
H 	H 	0.92530 0.26120 0.32290 -0.00500
O 	O 	0.86500 0.42970 0.23710 -0.28400
O 	O 	0.85400 0.32440 0.25950 -0.45300
