data_crystal

_cell_length_a 33.94300
_cell_length_b 18.52240
_cell_length_c 21.21740
_cell_angle_alpha 90.00000
_cell_angle_beta  116.29100
_cell_angle_gamma 90.00000

_symmetry_space_group_name_	'P 1'
_symmetry_space_group_name_H-M	'P 1'

loop_
_symmetry_equiv_pos_as_xyz
  x,y,z

loop_
_atom_site_label
_atom_site_type_symbol
_atom_site_fract_x
_atom_site_fract_y
_atom_site_fract_z
_atom_site_charge
Cd	Cd	0.70985 0.09876 0.80078 1.24500
Cd	Cd	0.32245 0.38881 0.30651 1.21500
Cd	Cd	0.32203 0.44911 0.46072 1.18700
C 	C 	0.62230 0.10530 0.73400 0.54600
C 	C 	0.57180 0.10300 0.70960 -0.14000
C 	C 	0.57370 0.13600 0.68260 -0.28800
C 	C 	0.55500 0.16800 0.67440 0.27700
H 	H 	0.57200 0.20620 0.67170 0.00200
C 	C 	0.55690 0.15500 0.62580 -0.06200
H 	H 	0.57820 0.16380 0.61050 0.09100
C 	C 	0.50010 0.16700 0.63770 -0.31400
H 	H 	0.48390 0.20650 0.61220 0.06500
C 	C 	0.51470 0.17000 0.57000 -0.06400
H 	H 	0.50730 0.18220 0.52320 0.05200
C 	C 	0.48040 0.10960 0.64570 0.24200
C 	C 	0.47900 0.15860 0.61300 0.25600
C 	C 	0.49820 0.04640 0.68110 -0.22000
H 	H 	0.48190 0.00760 0.68460 0.10700
C 	C 	0.49790 0.13600 0.67500 -0.28800
H 	H 	0.48570 0.13410 0.70660 0.11300
C 	C 	0.54360 0.04900 0.71090 0.08700
H 	H 	0.55760 0.00730 0.73560 0.02500
C 	C 	0.54300 0.11200 0.69000 0.24400
H 	H 	0.54920 0.06670 0.70990 -0.05500
C 	C 	0.43800 0.12700 0.61500 -0.05200
C 	C 	0.43950 0.17700 0.57940 -0.04900
C 	C 	0.28470 0.29400 0.40210 0.35000
C 	C 	0.30170 0.23180 0.44720 -0.09400
C 	C 	0.34850 0.22090 0.48510 -0.05400
H 	H 	0.36810 0.25030 0.47740 0.05300
C 	C 	0.36350 0.16380 0.53450 0.07300
C 	C 	0.33450 0.12280 0.54980 -0.05800
H 	H 	0.34530 0.08560 0.58250 0.07400
C 	C 	0.28890 0.13680 0.51680 -0.08900
C 	C 	0.27380 0.19130 0.46470 0.02600
H 	H 	0.24380 0.20030 0.44120 0.04800
C 	C 	0.25940 0.09480 0.53370 0.33000
C 	C 	0.09570 0.91580 0.07920 0.45700
C 	C 	0.04410 0.90810 0.02970 -0.14600
C 	C 	0.02430 0.84990 0.04860 0.04800
H 	H 	0.03820 0.81260 0.08000 0.01900
C 	C 	0.98330 0.86000 0.01320 -0.10700
H 	H 	0.96660 0.85850 0.03810 0.06000
C 	C 	0.96190 0.87320 0.94610 0.02600
C 	C 	0.98500 0.92310 0.92270 -0.10300
H 	H 	0.97050 0.94390 0.87830 0.06100
C 	C 	0.02770 0.94070 0.96420 0.04900
H 	H 	0.04410 0.97120 0.95010 -0.00500
C 	C 	0.91450 0.86450 0.91050 0.09400
C 	C 	0.75780 0.96920 0.80840 0.31000
C 	C 	0.77860 0.90040 0.81780 -0.09900
C 	C 	0.75370 0.83850 0.78910 0.01100
H 	H 	0.72350 0.84240 0.76240 0.05800
C 	C 	0.77370 0.77040 0.80010 -0.06500
C 	C 	0.81890 0.76760 0.83230 -0.08900
H 	H 	0.83270 0.72290 0.83890 0.09500
C 	C 	0.84430 0.82890 0.85520 0.11200
C 	C 	0.82450 0.89530 0.85050 -0.09300
H 	H 	0.84160 0.93640 0.86900 0.03500
C 	C 	0.74550 0.70580 0.77420 0.34500
N 	N 	0.41000 0.15340 0.57450 -0.09200
N 	N 	0.89080 0.82440 0.89720 -0.11600
O 	O 	0.64270 0.10750 0.69310 -0.23100
O 	O 	0.64310 0.14210 0.73050 -0.25000
O 	O 	0.63610 0.04660 0.78270 -0.32600
O 	O 	0.24420 0.29920 0.36310 -0.40500
O 	O 	0.31320 0.33810 0.39810 -0.52000
O 	O 	0.27180 0.05570 0.58670 -0.43700
O 	O 	0.21770 0.09800 0.48980 -0.43300
O 	O 	0.12050 0.95170 0.07500 -0.56200
O 	O 	0.11050 0.88080 0.13920 -0.47600
O 	O 	0.71720 0.97850 0.77480 -0.36300
O 	O 	0.78220 0.02660 0.84020 -0.57500
O 	O 	0.76290 0.64460 0.77580 -0.45000
O 	O 	0.70570 0.71390 0.74960 -0.42600
N 	N 	0.39040 0.33500 0.85900 -0.08000
O 	O 	0.35720 0.16170 0.73430 -0.21100
Cd	Cd	0.20985 0.59876 0.80078 1.24600
Cd	Cd	0.82245 0.88881 0.30651 1.21600
Cd	Cd	0.82203 0.94911 0.46072 1.18700
C 	C 	0.12230 0.60530 0.73400 0.54600
C 	C 	0.07180 0.60300 0.70960 -0.14000
C 	C 	0.07370 0.63600 0.68260 -0.28900
C 	C 	0.05500 0.66800 0.67440 0.27700
H 	H 	0.07200 0.70620 0.67170 0.00200
C 	C 	0.05690 0.65500 0.62580 -0.06200
H 	H 	0.07820 0.66380 0.61050 0.09100
C 	C 	0.00010 0.66700 0.63770 -0.31400
H 	H 	0.98390 0.70650 0.61220 0.06500
C 	C 	0.01470 0.67000 0.57000 -0.06400
H 	H 	0.00730 0.68220 0.52320 0.05200
C 	C 	0.98040 0.60960 0.64570 0.24300
C 	C 	0.97900 0.65860 0.61300 0.25700
C 	C 	0.99820 0.54640 0.68110 -0.22100
H 	H 	0.98190 0.50760 0.68460 0.10700
C 	C 	0.99790 0.63600 0.67500 -0.28900
H 	H 	0.98570 0.63410 0.70660 0.11300
C 	C 	0.04360 0.54900 0.71090 0.08700
H 	H 	0.05760 0.50730 0.73560 0.02500
C 	C 	0.04300 0.61200 0.69000 0.24500
H 	H 	0.04920 0.56670 0.70990 -0.05500
C 	C 	0.93800 0.62700 0.61500 -0.05300
C 	C 	0.93950 0.67700 0.57940 -0.04900
C 	C 	0.78470 0.79400 0.40210 0.35000
C 	C 	0.80170 0.73180 0.44720 -0.09400
C 	C 	0.84850 0.72090 0.48510 -0.05400
H 	H 	0.86810 0.75030 0.47740 0.05300
C 	C 	0.86350 0.66380 0.53450 0.07300
C 	C 	0.83450 0.62280 0.54980 -0.05800
H 	H 	0.84530 0.58560 0.58250 0.07400
C 	C 	0.78890 0.63680 0.51680 -0.08900
C 	C 	0.77380 0.69130 0.46470 0.02600
H 	H 	0.74380 0.70030 0.44120 0.04800
C 	C 	0.75940 0.59480 0.53370 0.33000
C 	C 	0.59570 0.41580 0.07920 0.45500
C 	C 	0.54410 0.40810 0.02970 -0.13900
C 	C 	0.52430 0.34990 0.04860 0.03900
H 	H 	0.53820 0.31260 0.08000 0.02300
C 	C 	0.48330 0.36000 0.01320 -0.09500
H 	H 	0.46660 0.35850 0.03810 0.05600
C 	C 	0.46190 0.37320 0.94610 0.01700
C 	C 	0.48500 0.42310 0.92270 -0.09600
H 	H 	0.47050 0.44390 0.87830 0.05800
C 	C 	0.52770 0.44070 0.96420 0.04100
H 	H 	0.54410 0.47120 0.95010 -0.00300
C 	C 	0.41450 0.36450 0.91050 0.09700
C 	C 	0.25780 0.46920 0.80840 0.30900
C 	C 	0.27860 0.40040 0.81780 -0.09900
C 	C 	0.25370 0.33850 0.78910 0.01000
H 	H 	0.22350 0.34240 0.76240 0.05800
C 	C 	0.27370 0.27040 0.80010 -0.06500
C 	C 	0.31890 0.26760 0.83230 -0.08900
H 	H 	0.33270 0.22290 0.83890 0.09500
C 	C 	0.34430 0.32890 0.85520 0.11200
C 	C 	0.32450 0.39530 0.85050 -0.09300
H 	H 	0.34160 0.43640 0.86900 0.03500
C 	C 	0.24550 0.20580 0.77420 0.34400
N 	N 	0.91000 0.65340 0.57450 -0.09100
N 	N 	0.39080 0.32440 0.89720 -0.11700
O 	O 	0.14270 0.60750 0.69310 -0.23100
O 	O 	0.14310 0.64210 0.73050 -0.25100
O 	O 	0.13610 0.54660 0.78270 -0.32600
O 	O 	0.74420 0.79920 0.36310 -0.40500
O 	O 	0.81320 0.83810 0.39810 -0.52100
O 	O 	0.77180 0.55570 0.58670 -0.43700
O 	O 	0.71770 0.59800 0.48980 -0.43300
O 	O 	0.62050 0.45170 0.07500 -0.56100
O 	O 	0.61050 0.38080 0.13920 -0.47600
O 	O 	0.21720 0.47850 0.77480 -0.36400
O 	O 	0.28220 0.52660 0.84020 -0.57400
O 	O 	0.26290 0.14460 0.77580 -0.45000
O 	O 	0.20570 0.21390 0.74960 -0.42600
N 	N 	0.89040 0.83500 0.85900 -0.08000
O 	O 	0.85720 0.66170 0.73430 -0.21100
Cd	Cd	0.29015 0.09876 0.69922 1.24600
Cd	Cd	0.67755 0.38881 0.19349 1.21600
Cd	Cd	0.67797 0.44911 0.03928 1.18700
C 	C 	0.37770 0.10530 0.76600 0.54600
C 	C 	0.42820 0.10300 0.79040 -0.14000
C 	C 	0.42630 0.13600 0.81740 -0.28800
C 	C 	0.44500 0.16800 0.82560 0.27700
H 	H 	0.42800 0.20620 0.82830 0.00200
C 	C 	0.44310 0.15500 0.87420 -0.06200
H 	H 	0.42180 0.16380 0.88950 0.09100
C 	C 	0.49990 0.16700 0.86230 -0.31400
H 	H 	0.51610 0.20650 0.88780 0.06500
C 	C 	0.48530 0.17000 0.93000 -0.06400
H 	H 	0.49270 0.18220 0.97680 0.05200
C 	C 	0.51960 0.10960 0.85430 0.24200
C 	C 	0.52100 0.15860 0.88700 0.25700
C 	C 	0.50180 0.04640 0.81890 -0.22100
H 	H 	0.51810 0.00760 0.81540 0.10700
C 	C 	0.50210 0.13600 0.82500 -0.28900
H 	H 	0.51430 0.13410 0.79340 0.11300
C 	C 	0.45640 0.04900 0.78910 0.08700
H 	H 	0.44240 0.00730 0.76440 0.02500
C 	C 	0.45700 0.11200 0.81000 0.24400
H 	H 	0.45080 0.06670 0.79010 -0.05500
C 	C 	0.56200 0.12700 0.88500 -0.05300
C 	C 	0.56050 0.17700 0.92060 -0.05000
C 	C 	0.71530 0.29400 0.09790 0.35000
C 	C 	0.69830 0.23180 0.05280 -0.09500
C 	C 	0.65150 0.22090 0.01490 -0.05200
H 	H 	0.63190 0.25030 0.02260 0.05300
C 	C 	0.63650 0.16380 0.96550 0.07200
C 	C 	0.66550 0.12280 0.95020 -0.05700
H 	H 	0.65470 0.08560 0.91750 0.07400
C 	C 	0.71110 0.13680 0.98320 -0.09100
C 	C 	0.72620 0.19130 0.03530 0.02900
H 	H 	0.75620 0.20030 0.05880 0.04700
C 	C 	0.74060 0.09480 0.96630 0.32900
C 	C 	0.90430 0.91580 0.42080 0.45600
C 	C 	0.95590 0.90810 0.47030 -0.14000
C 	C 	0.97570 0.84990 0.45140 0.04000
H 	H 	0.96180 0.81260 0.42000 0.02200
C 	C 	0.01670 0.86000 0.48680 -0.09700
H 	H 	0.03340 0.85850 0.46190 0.05700
C 	C 	0.03810 0.87320 0.55390 0.01900
C 	C 	0.01500 0.92310 0.57730 -0.09700
H 	H 	0.02950 0.94390 0.62170 0.05900
C 	C 	0.97230 0.94070 0.53580 0.04200
H 	H 	0.95590 0.97120 0.54990 -0.00300
C 	C 	0.08550 0.86450 0.58950 0.09700
C 	C 	0.24220 0.96920 0.69160 0.30900
C 	C 	0.22140 0.90040 0.68220 -0.09900
C 	C 	0.24630 0.83850 0.71090 0.01100
H 	H 	0.27650 0.84240 0.73760 0.05800
C 	C 	0.22630 0.77040 0.69990 -0.06500
C 	C 	0.18110 0.76760 0.66770 -0.08900
H 	H 	0.16730 0.72290 0.66110 0.09500
C 	C 	0.15570 0.82890 0.64480 0.11200
C 	C 	0.17550 0.89530 0.64950 -0.09300
H 	H 	0.15840 0.93640 0.63100 0.03500
C 	C 	0.25450 0.70580 0.72580 0.34400
N 	N 	0.59000 0.15340 0.92550 -0.09100
N 	N 	0.10920 0.82440 0.60280 -0.11700
O 	O 	0.35730 0.10750 0.80690 -0.23100
O 	O 	0.35690 0.14210 0.76950 -0.25000
O 	O 	0.36390 0.04660 0.71730 -0.32600
O 	O 	0.75580 0.29920 0.13690 -0.40600
O 	O 	0.68680 0.33810 0.10190 -0.52100
O 	O 	0.72820 0.05570 0.91330 -0.43700
O 	O 	0.78230 0.09800 0.01020 -0.43200
O 	O 	0.87950 0.95170 0.42500 -0.56100
O 	O 	0.88950 0.88080 0.36080 -0.47600
O 	O 	0.28280 0.97850 0.72520 -0.36300
O 	O 	0.21780 0.02660 0.65980 -0.57400
O 	O 	0.23710 0.64460 0.72420 -0.45000
O 	O 	0.29430 0.71390 0.75040 -0.42600
N 	N 	0.60960 0.33500 0.64100 -0.08000
O 	O 	0.64280 0.16170 0.76570 -0.21100
Cd	Cd	0.79015 0.59876 0.69922 1.24600
Cd	Cd	0.17755 0.88881 0.19349 1.21600
Cd	Cd	0.17797 0.94911 0.03928 1.18700
C 	C 	0.87770 0.60530 0.76600 0.54600
C 	C 	0.92820 0.60300 0.79040 -0.14000
C 	C 	0.92630 0.63600 0.81740 -0.28800
C 	C 	0.94500 0.66800 0.82560 0.27700
H 	H 	0.92800 0.70620 0.82830 0.00200
C 	C 	0.94310 0.65500 0.87420 -0.06300
H 	H 	0.92180 0.66380 0.88950 0.09100
C 	C 	0.99990 0.66700 0.86230 -0.31400
H 	H 	0.01610 0.70650 0.88780 0.06500
C 	C 	0.98530 0.67000 0.93000 -0.06400
H 	H 	0.99270 0.68220 0.97680 0.05200
C 	C 	0.01960 0.60960 0.85430 0.24100
C 	C 	0.02100 0.65860 0.88700 0.25600
C 	C 	0.00180 0.54640 0.81890 -0.22000
H 	H 	0.01810 0.50760 0.81540 0.10700
C 	C 	0.00210 0.63600 0.82500 -0.28700
H 	H 	0.01430 0.63410 0.79340 0.11200
C 	C 	0.95640 0.54900 0.78910 0.08700
H 	H 	0.94240 0.50730 0.76440 0.02500
C 	C 	0.95700 0.61200 0.81000 0.24300
H 	H 	0.95080 0.56670 0.79010 -0.05500
C 	C 	0.06200 0.62700 0.88500 -0.05200
C 	C 	0.06050 0.67700 0.92060 -0.04900
C 	C 	0.21530 0.79400 0.09790 0.34900
C 	C 	0.19830 0.73180 0.05280 -0.09300
C 	C 	0.15150 0.72090 0.01490 -0.05500
H 	H 	0.13190 0.75030 0.02260 0.05400
C 	C 	0.13650 0.66380 0.96550 0.07400
C 	C 	0.16550 0.62280 0.95020 -0.05900
H 	H 	0.15470 0.58560 0.91750 0.07500
C 	C 	0.21110 0.63680 0.98320 -0.08800
C 	C 	0.22620 0.69130 0.03530 0.02500
H 	H 	0.25620 0.70030 0.05880 0.04800
C 	C 	0.24060 0.59480 0.96630 0.33000
C 	C 	0.40430 0.41580 0.42080 0.45600
C 	C 	0.45590 0.40810 0.47030 -0.14000
C 	C 	0.47570 0.34990 0.45140 0.04100
H 	H 	0.46180 0.31260 0.42000 0.02200
C 	C 	0.51670 0.36000 0.48680 -0.09700
H 	H 	0.53340 0.35850 0.46190 0.05700
C 	C 	0.53810 0.37320 0.55390 0.01900
C 	C 	0.51500 0.42310 0.57730 -0.09800
H 	H 	0.52950 0.44390 0.62170 0.05900
C 	C 	0.47230 0.44070 0.53580 0.04300
H 	H 	0.45590 0.47120 0.54990 -0.00300
C 	C 	0.58550 0.36450 0.58950 0.09600
C 	C 	0.74220 0.46920 0.69160 0.30900
C 	C 	0.72140 0.40040 0.68220 -0.09900
C 	C 	0.74630 0.33850 0.71090 0.01000
H 	H 	0.77650 0.34240 0.73760 0.05800
C 	C 	0.72630 0.27040 0.69990 -0.06500
C 	C 	0.68110 0.26760 0.66770 -0.08900
H 	H 	0.66730 0.22290 0.66110 0.09500
C 	C 	0.65570 0.32890 0.64480 0.11200
C 	C 	0.67550 0.39530 0.64950 -0.09300
H 	H 	0.65840 0.43640 0.63100 0.03500
C 	C 	0.75450 0.20580 0.72580 0.34400
N 	N 	0.09000 0.65340 0.92550 -0.09200
N 	N 	0.60920 0.32440 0.60280 -0.11700
O 	O 	0.85730 0.60750 0.80690 -0.23100
O 	O 	0.85690 0.64210 0.76950 -0.25000
O 	O 	0.86390 0.54660 0.71730 -0.32600
O 	O 	0.25580 0.79920 0.13690 -0.40500
O 	O 	0.18680 0.83810 0.10190 -0.52100
O 	O 	0.22820 0.55570 0.91330 -0.43700
O 	O 	0.28230 0.59800 0.01020 -0.43300
O 	O 	0.37950 0.45170 0.42500 -0.56100
O 	O 	0.38950 0.38080 0.36080 -0.47600
O 	O 	0.78280 0.47850 0.72520 -0.36400
O 	O 	0.71780 0.52660 0.65980 -0.57400
O 	O 	0.73710 0.14460 0.72420 -0.45000
O 	O 	0.79430 0.21390 0.75040 -0.42600
N 	N 	0.10960 0.83500 0.64100 -0.08000
O 	O 	0.14280 0.66170 0.76570 -0.21100
Cd	Cd	0.29015 0.90124 0.19922 1.24600
Cd	Cd	0.67755 0.61119 0.69349 1.21600
Cd	Cd	0.67797 0.55089 0.53928 1.18700
C 	C 	0.37770 0.89470 0.26600 0.54600
C 	C 	0.42820 0.89700 0.29040 -0.14000
C 	C 	0.42630 0.86400 0.31740 -0.28800
C 	C 	0.44500 0.83200 0.32560 0.27700
H 	H 	0.42800 0.79380 0.32830 0.00200
C 	C 	0.44310 0.84500 0.37420 -0.06200
H 	H 	0.42180 0.83620 0.38950 0.09100
C 	C 	0.49990 0.83300 0.36230 -0.31400
H 	H 	0.51610 0.79350 0.38780 0.06500
C 	C 	0.48530 0.83000 0.43000 -0.06400
H 	H 	0.49270 0.81780 0.47680 0.05200
C 	C 	0.51960 0.89040 0.35430 0.24200
C 	C 	0.52100 0.84140 0.38700 0.25600
C 	C 	0.50180 0.95360 0.31890 -0.22000
H 	H 	0.51810 0.99240 0.31540 0.10700
C 	C 	0.50210 0.86400 0.32500 -0.28800
H 	H 	0.51430 0.86590 0.29340 0.11300
C 	C 	0.45640 0.95100 0.28910 0.08700
H 	H 	0.44240 0.99270 0.26440 0.02500
C 	C 	0.45700 0.88800 0.31000 0.24400
H 	H 	0.45080 0.93330 0.29010 -0.05500
C 	C 	0.56200 0.87300 0.38500 -0.05200
C 	C 	0.56050 0.82300 0.42060 -0.04900
C 	C 	0.71530 0.70600 0.59790 0.35000
C 	C 	0.69830 0.76820 0.55280 -0.09400
C 	C 	0.65150 0.77910 0.51490 -0.05400
H 	H 	0.63190 0.74970 0.52260 0.05300
C 	C 	0.63650 0.83620 0.46550 0.07300
C 	C 	0.66550 0.87720 0.45020 -0.05800
H 	H 	0.65470 0.91440 0.41750 0.07400
C 	C 	0.71110 0.86320 0.48320 -0.08900
C 	C 	0.72620 0.80870 0.53530 0.02600
H 	H 	0.75620 0.79970 0.55880 0.04800
C 	C 	0.74060 0.90520 0.46630 0.33000
C 	C 	0.90430 0.08420 0.92080 0.45700
C 	C 	0.95590 0.09190 0.97030 -0.14600
C 	C 	0.97570 0.15010 0.95140 0.04800
H 	H 	0.96180 0.18740 0.92000 0.01900
C 	C 	0.01670 0.14000 0.98680 -0.10700
H 	H 	0.03340 0.14150 0.96190 0.06000
C 	C 	0.03810 0.12680 0.05390 0.02600
C 	C 	0.01500 0.07690 0.07730 -0.10300
H 	H 	0.02950 0.05610 0.12170 0.06100
C 	C 	0.97230 0.05930 0.03580 0.04900
H 	H 	0.95590 0.02880 0.04990 -0.00500
C 	C 	0.08550 0.13550 0.08950 0.09400
C 	C 	0.24220 0.03080 0.19160 0.31000
C 	C 	0.22140 0.09960 0.18220 -0.09900
C 	C 	0.24630 0.16150 0.21090 0.01100
H 	H 	0.27650 0.15760 0.23760 0.05800
C 	C 	0.22630 0.22960 0.19990 -0.06500
C 	C 	0.18110 0.23240 0.16770 -0.08900
H 	H 	0.16730 0.27710 0.16110 0.09500
C 	C 	0.15570 0.17110 0.14480 0.11200
C 	C 	0.17550 0.10470 0.14950 -0.09300
H 	H 	0.15840 0.06360 0.13100 0.03500
C 	C 	0.25450 0.29420 0.22580 0.34500
N 	N 	0.59000 0.84660 0.42550 -0.09200
N 	N 	0.10920 0.17560 0.10280 -0.11600
O 	O 	0.35730 0.89250 0.30690 -0.23100
O 	O 	0.35690 0.85790 0.26950 -0.25000
O 	O 	0.36390 0.95340 0.21730 -0.32600
O 	O 	0.75580 0.70080 0.63690 -0.40500
O 	O 	0.68680 0.66190 0.60190 -0.52000
O 	O 	0.72820 0.94430 0.41330 -0.43700
O 	O 	0.78230 0.90200 0.51020 -0.43300
O 	O 	0.87950 0.04830 0.92500 -0.56200
O 	O 	0.88950 0.11920 0.86080 -0.47600
O 	O 	0.28280 0.02150 0.22520 -0.36300
O 	O 	0.21780 0.97340 0.15980 -0.57500
O 	O 	0.23710 0.35540 0.22420 -0.45000
O 	O 	0.29430 0.28610 0.25040 -0.42600
N 	N 	0.60960 0.66500 0.14100 -0.08000
O 	O 	0.64280 0.83830 0.26570 -0.21100
Cd	Cd	0.79015 0.40124 0.19922 1.24600
Cd	Cd	0.17755 0.11119 0.69349 1.21600
Cd	Cd	0.17797 0.05089 0.53928 1.18700
C 	C 	0.87770 0.39470 0.26600 0.54600
C 	C 	0.92820 0.39700 0.29040 -0.14000
C 	C 	0.92630 0.36400 0.31740 -0.28900
C 	C 	0.94500 0.33200 0.32560 0.27700
H 	H 	0.92800 0.29380 0.32830 0.00200
C 	C 	0.94310 0.34500 0.37420 -0.06200
H 	H 	0.92180 0.33620 0.38950 0.09100
C 	C 	0.99990 0.33300 0.36230 -0.31400
H 	H 	0.01610 0.29350 0.38780 0.06500
C 	C 	0.98530 0.33000 0.43000 -0.06400
H 	H 	0.99270 0.31780 0.47680 0.05200
C 	C 	0.01960 0.39040 0.35430 0.24300
C 	C 	0.02100 0.34140 0.38700 0.25700
C 	C 	0.00180 0.45360 0.31890 -0.22100
H 	H 	0.01810 0.49240 0.31540 0.10700
C 	C 	0.00210 0.36400 0.32500 -0.28900
H 	H 	0.01430 0.36590 0.29340 0.11300
C 	C 	0.95640 0.45100 0.28910 0.08700
H 	H 	0.94240 0.49270 0.26440 0.02500
C 	C 	0.95700 0.38800 0.31000 0.24500
H 	H 	0.95080 0.43330 0.29010 -0.05500
C 	C 	0.06200 0.37300 0.38500 -0.05300
C 	C 	0.06050 0.32300 0.42060 -0.04900
C 	C 	0.21530 0.20600 0.59790 0.35000
C 	C 	0.19830 0.26820 0.55280 -0.09400
C 	C 	0.15150 0.27910 0.51490 -0.05400
H 	H 	0.13190 0.24970 0.52260 0.05300
C 	C 	0.13650 0.33620 0.46550 0.07300
C 	C 	0.16550 0.37720 0.45020 -0.05800
H 	H 	0.15470 0.41440 0.41750 0.07400
C 	C 	0.21110 0.36320 0.48320 -0.08900
C 	C 	0.22620 0.30870 0.53530 0.02600
H 	H 	0.25620 0.29970 0.55880 0.04800
C 	C 	0.24060 0.40520 0.46630 0.33000
C 	C 	0.40430 0.58420 0.92080 0.45500
C 	C 	0.45590 0.59190 0.97030 -0.13900
C 	C 	0.47570 0.65010 0.95140 0.03900
H 	H 	0.46180 0.68740 0.92000 0.02300
C 	C 	0.51670 0.64000 0.98680 -0.09500
H 	H 	0.53340 0.64150 0.96190 0.05600
C 	C 	0.53810 0.62680 0.05390 0.01700
C 	C 	0.51500 0.57690 0.07730 -0.09600
H 	H 	0.52950 0.55610 0.12170 0.05800
C 	C 	0.47230 0.55930 0.03580 0.04100
H 	H 	0.45590 0.52880 0.04990 -0.00300
C 	C 	0.58550 0.63550 0.08950 0.09700
C 	C 	0.74220 0.53080 0.19160 0.30900
C 	C 	0.72140 0.59960 0.18220 -0.09900
C 	C 	0.74630 0.66150 0.21090 0.01000
H 	H 	0.77650 0.65760 0.23760 0.05800
C 	C 	0.72630 0.72960 0.19990 -0.06500
C 	C 	0.68110 0.73240 0.16770 -0.08900
H 	H 	0.66730 0.77710 0.16110 0.09500
C 	C 	0.65570 0.67110 0.14480 0.11200
C 	C 	0.67550 0.60470 0.14950 -0.09300
H 	H 	0.65840 0.56360 0.13100 0.03500
C 	C 	0.75450 0.79420 0.22580 0.34400
N 	N 	0.09000 0.34660 0.42550 -0.09100
N 	N 	0.60920 0.67560 0.10280 -0.11700
O 	O 	0.85730 0.39250 0.30690 -0.23100
O 	O 	0.85690 0.35790 0.26950 -0.25100
O 	O 	0.86390 0.45340 0.21730 -0.32600
O 	O 	0.25580 0.20080 0.63690 -0.40500
O 	O 	0.18680 0.16190 0.60190 -0.52100
O 	O 	0.22820 0.44430 0.41330 -0.43700
O 	O 	0.28230 0.40200 0.51020 -0.43300
O 	O 	0.37950 0.54830 0.92500 -0.56100
O 	O 	0.38950 0.61920 0.86080 -0.47600
O 	O 	0.78280 0.52150 0.22520 -0.36400
O 	O 	0.71780 0.47340 0.15980 -0.57400
O 	O 	0.73710 0.85540 0.22420 -0.45000
O 	O 	0.79430 0.78610 0.25040 -0.42600
N 	N 	0.10960 0.16500 0.14100 -0.08000
O 	O 	0.14280 0.33830 0.26570 -0.21100
Cd	Cd	0.70985 0.90124 0.30078 1.24600
Cd	Cd	0.32245 0.61119 0.80651 1.21600
Cd	Cd	0.32203 0.55089 0.96072 1.18700
C 	C 	0.62230 0.89470 0.23400 0.54600
C 	C 	0.57180 0.89700 0.20960 -0.14000
C 	C 	0.57370 0.86400 0.18260 -0.28800
C 	C 	0.55500 0.83200 0.17440 0.27700
H 	H 	0.57200 0.79380 0.17170 0.00200
C 	C 	0.55690 0.84500 0.12580 -0.06200
H 	H 	0.57820 0.83620 0.11050 0.09100
C 	C 	0.50010 0.83300 0.13770 -0.31400
H 	H 	0.48390 0.79350 0.11220 0.06500
C 	C 	0.51470 0.83000 0.07000 -0.06400
H 	H 	0.50730 0.81780 0.02320 0.05200
C 	C 	0.48040 0.89040 0.14570 0.24200
C 	C 	0.47900 0.84140 0.11300 0.25700
C 	C 	0.49820 0.95360 0.18110 -0.22100
H 	H 	0.48190 0.99240 0.18460 0.10700
C 	C 	0.49790 0.86400 0.17500 -0.28900
H 	H 	0.48570 0.86590 0.20660 0.11300
C 	C 	0.54360 0.95100 0.21090 0.08700
H 	H 	0.55760 0.99270 0.23560 0.02500
C 	C 	0.54300 0.88800 0.19000 0.24400
H 	H 	0.54920 0.93330 0.20990 -0.05500
C 	C 	0.43800 0.87300 0.11500 -0.05300
C 	C 	0.43950 0.82300 0.07940 -0.05000
C 	C 	0.28470 0.70600 0.90210 0.35000
C 	C 	0.30170 0.76820 0.94720 -0.09500
C 	C 	0.34850 0.77910 0.98510 -0.05200
H 	H 	0.36810 0.74970 0.97740 0.05300
C 	C 	0.36350 0.83620 0.03450 0.07200
C 	C 	0.33450 0.87720 0.04980 -0.05700
H 	H 	0.34530 0.91440 0.08250 0.07400
C 	C 	0.28890 0.86320 0.01680 -0.09100
C 	C 	0.27380 0.80870 0.96470 0.02900
H 	H 	0.24380 0.79970 0.94120 0.04700
C 	C 	0.25940 0.90520 0.03370 0.32900
C 	C 	0.09570 0.08420 0.57920 0.45600
C 	C 	0.04410 0.09190 0.52970 -0.14000
C 	C 	0.02430 0.15010 0.54860 0.04000
H 	H 	0.03820 0.18740 0.58000 0.02200
C 	C 	0.98330 0.14000 0.51320 -0.09700
H 	H 	0.96660 0.14150 0.53810 0.05700
C 	C 	0.96190 0.12680 0.44610 0.01900
C 	C 	0.98500 0.07690 0.42270 -0.09700
H 	H 	0.97050 0.05610 0.37830 0.05900
C 	C 	0.02770 0.05930 0.46420 0.04200
H 	H 	0.04410 0.02880 0.45010 -0.00300
C 	C 	0.91450 0.13550 0.41050 0.09700
C 	C 	0.75780 0.03080 0.30840 0.30900
C 	C 	0.77860 0.09960 0.31780 -0.09900
C 	C 	0.75370 0.16150 0.28910 0.01100
H 	H 	0.72350 0.15760 0.26240 0.05800
C 	C 	0.77370 0.22960 0.30010 -0.06500
C 	C 	0.81890 0.23240 0.33230 -0.08900
H 	H 	0.83270 0.27710 0.33890 0.09500
C 	C 	0.84430 0.17110 0.35520 0.11200
C 	C 	0.82450 0.10470 0.35050 -0.09300
H 	H 	0.84160 0.06360 0.36900 0.03500
C 	C 	0.74550 0.29420 0.27420 0.34400
N 	N 	0.41000 0.84660 0.07450 -0.09100
N 	N 	0.89080 0.17560 0.39720 -0.11700
O 	O 	0.64270 0.89250 0.19310 -0.23100
O 	O 	0.64310 0.85790 0.23050 -0.25000
O 	O 	0.63610 0.95340 0.28270 -0.32600
O 	O 	0.24420 0.70080 0.86310 -0.40600
O 	O 	0.31320 0.66190 0.89810 -0.52100
O 	O 	0.27180 0.94430 0.08670 -0.43700
O 	O 	0.21770 0.90200 0.98980 -0.43200
O 	O 	0.12050 0.04830 0.57500 -0.56100
O 	O 	0.11050 0.11920 0.63920 -0.47600
O 	O 	0.71720 0.02150 0.27480 -0.36300
O 	O 	0.78220 0.97340 0.34020 -0.57400
O 	O 	0.76290 0.35540 0.27580 -0.45000
O 	O 	0.70570 0.28610 0.24960 -0.42600
N 	N 	0.39040 0.66500 0.35900 -0.08000
O 	O 	0.35720 0.83830 0.23430 -0.21100
Cd	Cd	0.20985 0.40124 0.30078 1.24600
Cd	Cd	0.82245 0.11119 0.80651 1.21600
Cd	Cd	0.82203 0.05089 0.96072 1.18700
C 	C 	0.12230 0.39470 0.23400 0.54600
C 	C 	0.07180 0.39700 0.20960 -0.14000
C 	C 	0.07370 0.36400 0.18260 -0.28800
C 	C 	0.05500 0.33200 0.17440 0.27700
H 	H 	0.07200 0.29380 0.17170 0.00200
C 	C 	0.05690 0.34500 0.12580 -0.06300
H 	H 	0.07820 0.33620 0.11050 0.09100
C 	C 	0.00010 0.33300 0.13770 -0.31400
H 	H 	0.98390 0.29350 0.11220 0.06500
C 	C 	0.01470 0.33000 0.07000 -0.06400
H 	H 	0.00730 0.31780 0.02320 0.05200
C 	C 	0.98040 0.39040 0.14570 0.24100
C 	C 	0.97900 0.34140 0.11300 0.25600
C 	C 	0.99820 0.45360 0.18110 -0.22000
H 	H 	0.98190 0.49240 0.18460 0.10700
C 	C 	0.99790 0.36400 0.17500 -0.28700
H 	H 	0.98570 0.36590 0.20660 0.11200
C 	C 	0.04360 0.45100 0.21090 0.08700
H 	H 	0.05760 0.49270 0.23560 0.02500
C 	C 	0.04300 0.38800 0.19000 0.24300
H 	H 	0.04920 0.43330 0.20990 -0.05500
C 	C 	0.93800 0.37300 0.11500 -0.05200
C 	C 	0.93950 0.32300 0.07940 -0.04900
C 	C 	0.78470 0.20600 0.90210 0.34900
C 	C 	0.80170 0.26820 0.94720 -0.09300
C 	C 	0.84850 0.27910 0.98510 -0.05500
H 	H 	0.86810 0.24970 0.97740 0.05400
C 	C 	0.86350 0.33620 0.03450 0.07400
C 	C 	0.83450 0.37720 0.04980 -0.05900
H 	H 	0.84530 0.41440 0.08250 0.07500
C 	C 	0.78890 0.36320 0.01680 -0.08800
C 	C 	0.77380 0.30870 0.96470 0.02500
H 	H 	0.74380 0.29970 0.94120 0.04800
C 	C 	0.75940 0.40520 0.03370 0.33000
C 	C 	0.59570 0.58420 0.57920 0.45600
C 	C 	0.54410 0.59190 0.52970 -0.14000
C 	C 	0.52430 0.65010 0.54860 0.04100
H 	H 	0.53820 0.68740 0.58000 0.02200
C 	C 	0.48330 0.64000 0.51320 -0.09700
H 	H 	0.46660 0.64150 0.53810 0.05700
C 	C 	0.46190 0.62680 0.44610 0.01900
C 	C 	0.48500 0.57690 0.42270 -0.09800
H 	H 	0.47050 0.55610 0.37830 0.05900
C 	C 	0.52770 0.55930 0.46420 0.04300
H 	H 	0.54410 0.52880 0.45010 -0.00300
C 	C 	0.41450 0.63550 0.41050 0.09600
C 	C 	0.25780 0.53080 0.30840 0.30900
C 	C 	0.27860 0.59960 0.31780 -0.09900
C 	C 	0.25370 0.66150 0.28910 0.01000
H 	H 	0.22350 0.65760 0.26240 0.05800
C 	C 	0.27370 0.72960 0.30010 -0.06500
C 	C 	0.31890 0.73240 0.33230 -0.08900
H 	H 	0.33270 0.77710 0.33890 0.09500
C 	C 	0.34430 0.67110 0.35520 0.11200
C 	C 	0.32450 0.60470 0.35050 -0.09300
H 	H 	0.34160 0.56360 0.36900 0.03500
C 	C 	0.24550 0.79420 0.27420 0.34400
N 	N 	0.91000 0.34660 0.07450 -0.09200
N 	N 	0.39080 0.67560 0.39720 -0.11700
O 	O 	0.14270 0.39250 0.19310 -0.23100
O 	O 	0.14310 0.35790 0.23050 -0.25000
O 	O 	0.13610 0.45340 0.28270 -0.32600
O 	O 	0.74420 0.20080 0.86310 -0.40500
O 	O 	0.81320 0.16190 0.89810 -0.52100
O 	O 	0.77180 0.44430 0.08670 -0.43700
O 	O 	0.71770 0.40200 0.98980 -0.43300
O 	O 	0.62050 0.54830 0.57500 -0.56100
O 	O 	0.61050 0.61920 0.63920 -0.47600
O 	O 	0.21720 0.52150 0.27480 -0.36400
O 	O 	0.28220 0.47340 0.34020 -0.57400
O 	O 	0.26290 0.85540 0.27580 -0.45000
O 	O 	0.20570 0.78610 0.24960 -0.42600
N 	N 	0.89040 0.16500 0.35900 -0.08000
O 	O 	0.85720 0.33830 0.23430 -0.21100
