data_crystal

_cell_length_a 52.34900
_cell_length_b 20.42100
_cell_length_c 9.91110
_cell_angle_alpha 90.00000
_cell_angle_beta  90.00000
_cell_angle_gamma 90.00000

_symmetry_space_group_name_	'P 1'
_symmetry_space_group_name_H-M	'P 1'

loop_
_symmetry_equiv_pos_as_xyz
  x,y,z

loop_
_atom_site_label
_atom_site_type_symbol
_atom_site_fract_x
_atom_site_fract_y
_atom_site_fract_z
_atom_site_charge
Co	Co	0.46179 0.33956 0.16536 1.15400
O 	O 	0.45939 0.41590 0.30966 -0.38900
O 	O 	0.46488 0.32349 0.41590 -0.34300
O 	O 	0.45887 0.41970 0.02899 -0.36800
O 	O 	0.46125 0.32708 0.92580 -0.36400
N 	N 	0.46447 0.73447 0.66330 -0.23700
N 	N 	0.50245 0.35057 0.15770 -0.23700
N 	N 	0.67086 0.42118 0.92970 -0.25900
C 	C 	0.46417 0.52428 0.66590 -0.03300
C 	C 	0.46423 0.48859 0.54510 -0.01000
H 	H 	0.46500 0.51090 0.46120 0.04700
C 	C 	0.46317 0.42070 0.54780 -0.08000
C 	C 	0.46226 0.38771 0.66870 0.01600
H 	H 	0.46180 0.34120 0.66990 0.04600
C 	C 	0.46204 0.42282 0.79000 -0.08200
C 	C 	0.46314 0.49027 0.78760 -0.01300
H 	H 	0.46320 0.51390 0.87020 0.03900
C 	C 	0.45481 0.69967 0.56060 0.07700
H 	H 	0.44790 0.72260 0.48570 0.00700
C 	C 	0.45444 0.63236 0.55860 -0.14300
H 	H 	0.44710 0.61010 0.48370 0.07900
C 	C 	0.46458 0.59674 0.66450 0.08700
C 	C 	0.47466 0.63277 0.77080 -0.14200
H 	H 	0.48170 0.61100 0.84690 0.08100
C 	C 	0.47438 0.70063 0.76560 0.07900
H 	H 	0.48170 0.72420 0.83870 0.00600
C 	C 	0.46248 0.38401 0.41650 0.31300
C 	C 	0.46058 0.38675 0.92190 0.29400
C 	C 	0.58331 0.38646 0.11430 -0.08800
H 	H 	0.58990 0.40960 0.19490 0.05600
H 	H 	0.59220 0.34390 0.10790 0.06100
C 	C 	0.51239 0.41039 0.17660 0.09900
H 	H 	0.50110 0.44510 0.19970 0.00400
C 	C 	0.53805 0.42423 0.16430 -0.17000
H 	H 	0.54410 0.46760 0.17770 0.10800
C 	C 	0.55503 0.37428 0.13220 0.11500
C 	C 	0.54484 0.31281 0.11160 -0.16200
H 	H 	0.55570 0.27720 0.08920 0.09900
C 	C 	0.51879 0.30309 0.12360 0.09900
H 	H 	0.51220 0.26050 0.10670 0.00600
C 	C 	0.58925 0.42629 0.99100 -0.25600
H 	H 	0.58300 0.47160 0.00370 0.12200
H 	H 	0.58030 0.40730 0.91200 0.10000
C 	C 	0.66043 0.45726 0.02560 0.12900
H 	H 	0.67140 0.48180 0.08270 -0.01800
C 	C 	0.63421 0.46122 0.04740 -0.18300
H 	H 	0.62770 0.48720 0.11920 0.09200
C 	C 	0.61766 0.42742 0.96490 0.15200
C 	C 	0.62842 0.39156 0.86400 -0.20700
H 	H 	0.61790 0.36810 0.80290 0.09700
C 	C 	0.65480 0.38918 0.85010 0.11000
H 	H 	0.66170 0.36320 0.77960 -0.01100
Co	Co	0.46179 0.83956 0.66536 1.15200
O 	O 	0.45939 0.91590 0.80966 -0.38600
O 	O 	0.46488 0.82349 0.91590 -0.34600
O 	O 	0.45887 0.91970 0.52899 -0.38700
O 	O 	0.46125 0.82708 0.42580 -0.36100
N 	N 	0.46447 0.23447 0.16330 -0.23800
N 	N 	0.50245 0.85057 0.65770 -0.24000
N 	N 	0.67086 0.92118 0.42970 -0.24300
C 	C 	0.46417 0.02428 0.16590 -0.04000
C 	C 	0.46423 0.98859 0.04510 0.02700
H 	H 	0.46500 0.01090 0.96120 0.02400
C 	C 	0.46317 0.92070 0.04780 -0.07100
C 	C 	0.46226 0.88771 0.16870 0.02100
H 	H 	0.46180 0.84120 0.16990 0.05000
C 	C 	0.46204 0.92282 0.29000 -0.08700
C 	C 	0.46314 0.99027 0.28760 -0.00300
H 	H 	0.46320 0.01390 0.37020 0.04400
C 	C 	0.45481 0.19967 0.06060 0.10300
H 	H 	0.44790 0.22260 0.98570 -0.01400
C 	C 	0.45444 0.13236 0.05860 -0.11800
H 	H 	0.44710 0.11010 0.98370 0.05900
C 	C 	0.46458 0.09674 0.16450 0.08800
C 	C 	0.47466 0.13277 0.27080 -0.14100
H 	H 	0.48170 0.11100 0.34690 0.08500
C 	C 	0.47438 0.20063 0.26560 0.08000
H 	H 	0.48170 0.22420 0.33870 0.01000
C 	C 	0.46248 0.88401 0.91650 0.29800
C 	C 	0.46058 0.88675 0.42190 0.32100
C 	C 	0.58331 0.88646 0.61430 -0.14400
H 	H 	0.58990 0.90960 0.69490 0.06800
H 	H 	0.59220 0.84390 0.60790 0.06900
C 	C 	0.51239 0.91039 0.67660 0.10100
H 	H 	0.50110 0.94510 0.69970 0.00200
C 	C 	0.53805 0.92423 0.66430 -0.18400
H 	H 	0.54410 0.96760 0.67770 0.11100
C 	C 	0.55503 0.87428 0.63220 0.13200
C 	C 	0.54484 0.81281 0.61160 -0.17600
H 	H 	0.55570 0.77720 0.58920 0.09800
C 	C 	0.51879 0.80309 0.62360 0.10000
H 	H 	0.51220 0.76050 0.60670 0.00100
C 	C 	0.58925 0.92629 0.49100 -0.17700
H 	H 	0.58300 0.97160 0.50370 0.08600
H 	H 	0.58030 0.90730 0.41200 0.08200
C 	C 	0.66043 0.95726 0.52560 0.10700
H 	H 	0.67140 0.98180 0.58270 -0.01400
C 	C 	0.63421 0.96122 0.54740 -0.19300
H 	H 	0.62770 0.98720 0.61920 0.09200
C 	C 	0.61766 0.92742 0.46490 0.15300
C 	C 	0.62842 0.89156 0.36400 -0.19800
H 	H 	0.61790 0.86810 0.30290 0.09600
C 	C 	0.65480 0.88918 0.35010 0.11100
H 	H 	0.66170 0.86320 0.27960 -0.00900
Co	Co	0.96179 0.33956 0.66536 1.15200
O 	O 	0.95939 0.41590 0.80966 -0.38600
O 	O 	0.96488 0.32349 0.91590 -0.34600
O 	O 	0.95887 0.41970 0.52899 -0.38700
O 	O 	0.96125 0.32708 0.42580 -0.36100
N 	N 	0.96447 0.73447 0.16330 -0.23800
N 	N 	0.00245 0.35057 0.65770 -0.24000
N 	N 	0.17086 0.42118 0.42970 -0.24300
C 	C 	0.96417 0.52428 0.16590 -0.04000
C 	C 	0.96423 0.48859 0.04510 0.02700
H 	H 	0.96500 0.51090 0.96120 0.02300
C 	C 	0.96317 0.42070 0.04780 -0.07100
C 	C 	0.96226 0.38771 0.16870 0.02100
H 	H 	0.96180 0.34120 0.16990 0.05000
C 	C 	0.96204 0.42282 0.29000 -0.08700
C 	C 	0.96314 0.49027 0.28760 -0.00300
H 	H 	0.96320 0.51390 0.37020 0.04400
C 	C 	0.95481 0.69967 0.06060 0.10300
H 	H 	0.94790 0.72260 0.98570 -0.01400
C 	C 	0.95444 0.63236 0.05860 -0.11800
H 	H 	0.94710 0.61010 0.98370 0.05900
C 	C 	0.96458 0.59674 0.16450 0.08800
C 	C 	0.97466 0.63277 0.27080 -0.14100
H 	H 	0.98170 0.61100 0.34690 0.08500
C 	C 	0.97438 0.70063 0.26560 0.08000
H 	H 	0.98170 0.72420 0.33870 0.01000
C 	C 	0.96248 0.38401 0.91650 0.29800
C 	C 	0.96058 0.38675 0.42190 0.32100
C 	C 	0.08331 0.38646 0.61430 -0.14400
H 	H 	0.08990 0.40960 0.69490 0.06800
H 	H 	0.09220 0.34390 0.60790 0.06900
C 	C 	0.01239 0.41039 0.67660 0.10100
H 	H 	0.00110 0.44510 0.69970 0.00200
C 	C 	0.03805 0.42423 0.66430 -0.18400
H 	H 	0.04410 0.46760 0.67770 0.11100
C 	C 	0.05503 0.37428 0.63220 0.13200
C 	C 	0.04484 0.31281 0.61160 -0.17600
H 	H 	0.05570 0.27720 0.58920 0.09800
C 	C 	0.01879 0.30309 0.62360 0.10000
H 	H 	0.01220 0.26050 0.60670 0.00100
C 	C 	0.08925 0.42629 0.49100 -0.17700
H 	H 	0.08300 0.47160 0.50370 0.08600
H 	H 	0.08030 0.40730 0.41200 0.08200
C 	C 	0.16043 0.45726 0.52560 0.10700
H 	H 	0.17140 0.48180 0.58270 -0.01400
C 	C 	0.13421 0.46122 0.54740 -0.19300
H 	H 	0.12770 0.48720 0.61920 0.09200
C 	C 	0.11766 0.42742 0.46490 0.15300
C 	C 	0.12842 0.39156 0.36400 -0.19800
H 	H 	0.11790 0.36810 0.30290 0.09600
C 	C 	0.15480 0.38918 0.35010 0.11100
H 	H 	0.16170 0.36320 0.27960 -0.00900
Co	Co	0.96179 0.83956 0.16536 1.15500
O 	O 	0.95939 0.91590 0.30966 -0.38800
O 	O 	0.96488 0.82349 0.41590 -0.34200
O 	O 	0.95887 0.91970 0.02899 -0.36700
O 	O 	0.96125 0.82708 0.92580 -0.36300
N 	N 	0.96447 0.23447 0.66330 -0.23600
N 	N 	0.00245 0.85057 0.15770 -0.23600
N 	N 	0.17086 0.92118 0.92970 -0.25700
C 	C 	0.96417 0.02428 0.66590 -0.03200
C 	C 	0.96423 0.98859 0.54510 -0.00900
H 	H 	0.96500 0.01090 0.46120 0.04800
C 	C 	0.96317 0.92070 0.54780 -0.07900
C 	C 	0.96226 0.88771 0.66870 0.01700
H 	H 	0.96180 0.84120 0.66990 0.04700
C 	C 	0.96204 0.92282 0.79000 -0.08100
C 	C 	0.96314 0.99027 0.78760 -0.01200
H 	H 	0.96320 0.01390 0.87020 0.04000
C 	C 	0.95481 0.19967 0.56060 0.07800
H 	H 	0.94790 0.22260 0.48570 0.00800
C 	C 	0.95444 0.13236 0.55860 -0.14200
H 	H 	0.94710 0.11010 0.48370 0.08000
C 	C 	0.96458 0.09674 0.66450 0.08800
C 	C 	0.97466 0.13277 0.77080 -0.14200
H 	H 	0.98170 0.11100 0.84690 0.08100
C 	C 	0.97438 0.20063 0.76560 0.07900
H 	H 	0.98170 0.22420 0.83870 0.00600
C 	C 	0.96248 0.88401 0.41650 0.31300
C 	C 	0.96058 0.88675 0.92190 0.29400
C 	C 	0.08331 0.88646 0.11430 -0.08800
H 	H 	0.08990 0.90960 0.19490 0.05600
H 	H 	0.09220 0.84390 0.10790 0.06100
C 	C 	0.01239 0.91039 0.17660 0.09900
H 	H 	0.00110 0.94510 0.19970 0.00400
C 	C 	0.03805 0.92423 0.16430 -0.17000
H 	H 	0.04410 0.96760 0.17770 0.10800
C 	C 	0.05503 0.87428 0.13220 0.11500
C 	C 	0.04484 0.81281 0.11160 -0.16200
H 	H 	0.05570 0.77720 0.08920 0.09900
C 	C 	0.01879 0.80309 0.12360 0.09900
H 	H 	0.01220 0.76050 0.10670 0.00600
C 	C 	0.08925 0.92629 0.99100 -0.25500
H 	H 	0.08300 0.97160 0.00370 0.12100
H 	H 	0.08030 0.90730 0.91200 0.09900
C 	C 	0.16043 0.95726 0.02560 0.12900
H 	H 	0.17140 0.98180 0.08270 -0.01800
C 	C 	0.13421 0.96122 0.04740 -0.18300
H 	H 	0.12770 0.98720 0.11920 0.09200
C 	C 	0.11766 0.92742 0.96490 0.15200
C 	C 	0.12842 0.89156 0.86400 -0.20700
H 	H 	0.11790 0.86810 0.80290 0.09700
C 	C 	0.15480 0.88918 0.85010 0.11000
H 	H 	0.16170 0.86320 0.77960 -0.01100
Co	Co	0.71179 0.91044 0.41536 1.15200
O 	O 	0.70939 0.83410 0.55966 -0.38700
O 	O 	0.71488 0.92651 0.66590 -0.34200
O 	O 	0.70887 0.83030 0.27899 -0.38500
O 	O 	0.71125 0.92292 0.17580 -0.35400
N 	N 	0.71447 0.51553 0.91330 -0.24600
N 	N 	0.75245 0.89943 0.40770 -0.24000
N 	N 	0.92086 0.82882 0.17970 -0.24200
C 	C 	0.71417 0.72572 0.91590 -0.04800
C 	C 	0.71423 0.76141 0.79510 -0.01100
H 	H 	0.71500 0.73910 0.71120 0.04800
C 	C 	0.71317 0.82930 0.79780 -0.07300
C 	C 	0.71226 0.86229 0.91870 -0.01100
H 	H 	0.71180 0.90880 0.91990 0.05100
C 	C 	0.71204 0.82718 0.04000 -0.06300
C 	C 	0.71314 0.75973 0.03760 0.01000
H 	H 	0.71320 0.73610 0.12020 0.04200
C 	C 	0.70481 0.55033 0.81060 0.07000
H 	H 	0.69790 0.52740 0.73570 0.00900
C 	C 	0.70444 0.61764 0.80860 -0.13500
H 	H 	0.69710 0.63990 0.73370 0.07600
C 	C 	0.71458 0.65326 0.91450 0.06500
C 	C 	0.72466 0.61723 0.02080 -0.11500
H 	H 	0.73170 0.63900 0.09690 0.07900
C 	C 	0.72438 0.54937 0.01560 0.09500
H 	H 	0.73170 0.52580 0.08870 0.00900
C 	C 	0.71248 0.86599 0.66650 0.31000
C 	C 	0.71058 0.86325 0.17190 0.31500
C 	C 	0.83331 0.86354 0.36430 -0.14500
H 	H 	0.83990 0.84040 0.44490 0.06900
H 	H 	0.84220 0.90610 0.35790 0.07000
C 	C 	0.76239 0.83961 0.42660 0.10300
H 	H 	0.75110 0.80490 0.44970 0.00200
C 	C 	0.78805 0.82577 0.41430 -0.18400
H 	H 	0.79410 0.78240 0.42770 0.11200
C 	C 	0.80503 0.87572 0.38220 0.13300
C 	C 	0.79484 0.93719 0.36160 -0.17600
H 	H 	0.80570 0.97280 0.33920 0.09900
C 	C 	0.76879 0.94691 0.37360 0.10200
H 	H 	0.76220 0.98950 0.35670 0.00200
C 	C 	0.83925 0.82371 0.24100 -0.17800
H 	H 	0.83300 0.77840 0.25370 0.08700
H 	H 	0.83030 0.84270 0.16200 0.08500
C 	C 	0.91043 0.79274 0.27560 0.10800
H 	H 	0.92140 0.76820 0.33270 -0.01400
C 	C 	0.88421 0.78878 0.29740 -0.19300
H 	H 	0.87770 0.76280 0.36920 0.09300
C 	C 	0.86766 0.82258 0.21490 0.15500
C 	C 	0.87842 0.85844 0.11400 -0.19800
H 	H 	0.86790 0.88190 0.05290 0.09900
C 	C 	0.90480 0.86082 0.10010 0.11300
H 	H 	0.91170 0.88680 0.02960 -0.00600
Co	Co	0.71179 0.41044 0.91536 1.14700
O 	O 	0.70939 0.33410 0.05966 -0.37300
O 	O 	0.71488 0.42651 0.16590 -0.33600
O 	O 	0.70887 0.33030 0.77899 -0.39000
O 	O 	0.71125 0.42292 0.67580 -0.36200
N 	N 	0.71447 0.01553 0.41330 -0.23500
N 	N 	0.75245 0.39943 0.90770 -0.24200
N 	N 	0.92086 0.32882 0.67970 -0.24400
C 	C 	0.71417 0.22572 0.41590 -0.03100
C 	C 	0.71423 0.26141 0.29510 -0.01000
H 	H 	0.71500 0.23910 0.21120 0.05200
C 	C 	0.71317 0.32930 0.29780 -0.07700
C 	C 	0.71226 0.36229 0.41870 0.02000
H 	H 	0.71180 0.40880 0.41990 0.04700
C 	C 	0.71204 0.32718 0.54000 -0.08500
C 	C 	0.71314 0.25973 0.53760 -0.00800
H 	H 	0.71320 0.23610 0.62020 0.04500
C 	C 	0.70481 0.05033 0.31060 0.07900
H 	H 	0.69790 0.02740 0.23570 0.01100
C 	C 	0.70444 0.11764 0.30860 -0.14200
H 	H 	0.69710 0.13990 0.23370 0.08400
C 	C 	0.71458 0.15326 0.41450 0.09000
C 	C 	0.72466 0.11723 0.52080 -0.14100
H 	H 	0.73170 0.13900 0.59690 0.08500
C 	C 	0.72438 0.04937 0.51560 0.08100
H 	H 	0.73170 0.02580 0.58870 0.00900
C 	C 	0.71248 0.36599 0.16650 0.31200
C 	C 	0.71058 0.36325 0.67190 0.32100
C 	C 	0.83331 0.36354 0.86430 -0.14100
H 	H 	0.83990 0.34040 0.94490 0.06400
H 	H 	0.84220 0.40610 0.85790 0.06700
C 	C 	0.76239 0.33961 0.92660 0.09800
H 	H 	0.75110 0.30490 0.94970 -0.00200
C 	C 	0.78805 0.32577 0.91430 -0.18400
H 	H 	0.79410 0.28240 0.92770 0.10700
C 	C 	0.80503 0.37572 0.88220 0.12800
C 	C 	0.79484 0.43719 0.86160 -0.17600
H 	H 	0.80570 0.47280 0.83920 0.09600
C 	C 	0.76879 0.44691 0.87360 0.09800
H 	H 	0.76220 0.48950 0.85670 -0.00100
C 	C 	0.83925 0.32371 0.74100 -0.17800
H 	H 	0.83300 0.27840 0.75370 0.08600
H 	H 	0.83030 0.34270 0.66200 0.08300
C 	C 	0.91043 0.29274 0.77560 0.10600
H 	H 	0.92140 0.26820 0.83270 -0.01700
C 	C 	0.88421 0.28878 0.79740 -0.19400
H 	H 	0.87770 0.26280 0.86920 0.09000
C 	C 	0.86766 0.32258 0.71490 0.15200
C 	C 	0.87842 0.35844 0.61400 -0.19900
H 	H 	0.86790 0.38190 0.55290 0.09600
C 	C 	0.90480 0.36082 0.60010 0.11100
H 	H 	0.91170 0.38680 0.52960 -0.01000
Co	Co	0.21179 0.91044 0.91536 1.14700
O 	O 	0.20939 0.83410 0.05966 -0.37300
O 	O 	0.21488 0.92651 0.16590 -0.33600
O 	O 	0.20887 0.83030 0.77899 -0.39000
O 	O 	0.21125 0.92292 0.67580 -0.36200
N 	N 	0.21447 0.51553 0.41330 -0.23500
N 	N 	0.25245 0.89943 0.90770 -0.24200
N 	N 	0.42086 0.82882 0.67970 -0.24400
C 	C 	0.21417 0.72572 0.41590 -0.03100
C 	C 	0.21423 0.76141 0.29510 -0.01000
H 	H 	0.21500 0.73910 0.21120 0.05200
C 	C 	0.21317 0.82930 0.29780 -0.07700
C 	C 	0.21226 0.86229 0.41870 0.02000
H 	H 	0.21180 0.90880 0.41990 0.04700
C 	C 	0.21204 0.82718 0.54000 -0.08500
C 	C 	0.21314 0.75973 0.53760 -0.00800
H 	H 	0.21320 0.73610 0.62020 0.04500
C 	C 	0.20481 0.55033 0.31060 0.07900
H 	H 	0.19790 0.52740 0.23570 0.01100
C 	C 	0.20444 0.61764 0.30860 -0.14200
H 	H 	0.19710 0.63990 0.23370 0.08400
C 	C 	0.21458 0.65326 0.41450 0.09000
C 	C 	0.22466 0.61723 0.52080 -0.14100
H 	H 	0.23170 0.63900 0.59690 0.08500
C 	C 	0.22438 0.54937 0.51560 0.08100
H 	H 	0.23170 0.52580 0.58870 0.00900
C 	C 	0.21248 0.86599 0.16650 0.31200
C 	C 	0.21058 0.86325 0.67190 0.32100
C 	C 	0.33331 0.86354 0.86430 -0.14100
H 	H 	0.33990 0.84040 0.94490 0.06400
H 	H 	0.34220 0.90610 0.85790 0.06700
C 	C 	0.26239 0.83961 0.92660 0.09800
H 	H 	0.25110 0.80490 0.94970 -0.00200
C 	C 	0.28805 0.82577 0.91430 -0.18400
H 	H 	0.29410 0.78240 0.92770 0.10700
C 	C 	0.30503 0.87572 0.88220 0.12800
C 	C 	0.29484 0.93719 0.86160 -0.17600
H 	H 	0.30570 0.97280 0.83920 0.09600
C 	C 	0.26879 0.94691 0.87360 0.09800
H 	H 	0.26220 0.98950 0.85670 -0.00100
C 	C 	0.33925 0.82371 0.74100 -0.17800
H 	H 	0.33300 0.77840 0.75370 0.08600
H 	H 	0.33030 0.84270 0.66200 0.08300
C 	C 	0.41043 0.79274 0.77560 0.10600
H 	H 	0.42140 0.76820 0.83270 -0.01700
C 	C 	0.38421 0.78878 0.79740 -0.19400
H 	H 	0.37770 0.76280 0.86920 0.09000
C 	C 	0.36766 0.82258 0.71490 0.15200
C 	C 	0.37842 0.85844 0.61400 -0.19900
H 	H 	0.36790 0.88190 0.55290 0.09600
C 	C 	0.40480 0.86082 0.60010 0.11100
H 	H 	0.41170 0.88680 0.52960 -0.01000
Co	Co	0.21179 0.41044 0.41536 1.15200
O 	O 	0.20939 0.33410 0.55966 -0.38700
O 	O 	0.21488 0.42651 0.66590 -0.34200
O 	O 	0.20887 0.33030 0.27899 -0.38500
O 	O 	0.21125 0.42292 0.17580 -0.35400
N 	N 	0.21447 0.01553 0.91330 -0.24600
N 	N 	0.25245 0.39943 0.40770 -0.24000
N 	N 	0.42086 0.32882 0.17970 -0.24200
C 	C 	0.21417 0.22572 0.91590 -0.04800
C 	C 	0.21423 0.26141 0.79510 -0.01100
H 	H 	0.21500 0.23910 0.71120 0.04800
C 	C 	0.21317 0.32930 0.79780 -0.07300
C 	C 	0.21226 0.36229 0.91870 -0.01100
H 	H 	0.21180 0.40880 0.91990 0.05100
C 	C 	0.21204 0.32718 0.04000 -0.06200
C 	C 	0.21314 0.25973 0.03760 0.01000
H 	H 	0.21320 0.23610 0.12020 0.04200
C 	C 	0.20481 0.05033 0.81060 0.07000
H 	H 	0.19790 0.02740 0.73570 0.00900
C 	C 	0.20444 0.11764 0.80860 -0.13500
H 	H 	0.19710 0.13990 0.73370 0.07600
C 	C 	0.21458 0.15326 0.91450 0.06500
C 	C 	0.22466 0.11723 0.02080 -0.11500
H 	H 	0.23170 0.13900 0.09690 0.07900
C 	C 	0.22438 0.04937 0.01560 0.09400
H 	H 	0.23170 0.02580 0.08870 0.00900
C 	C 	0.21248 0.36599 0.66650 0.31000
C 	C 	0.21058 0.36325 0.17190 0.31500
C 	C 	0.33331 0.36354 0.36430 -0.14500
H 	H 	0.33990 0.34040 0.44490 0.06900
H 	H 	0.34220 0.40610 0.35790 0.07000
C 	C 	0.26239 0.33961 0.42660 0.10300
H 	H 	0.25110 0.30490 0.44970 0.00200
C 	C 	0.28805 0.32577 0.41430 -0.18400
H 	H 	0.29410 0.28240 0.42770 0.11200
C 	C 	0.30503 0.37572 0.38220 0.13300
C 	C 	0.29484 0.43719 0.36160 -0.17600
H 	H 	0.30570 0.47280 0.33920 0.09900
C 	C 	0.26879 0.44691 0.37360 0.10200
H 	H 	0.26220 0.48950 0.35670 0.00200
C 	C 	0.33925 0.32371 0.24100 -0.17800
H 	H 	0.33300 0.27840 0.25370 0.08700
H 	H 	0.33030 0.34270 0.16200 0.08500
C 	C 	0.41043 0.29274 0.27560 0.10800
H 	H 	0.42140 0.26820 0.33270 -0.01400
C 	C 	0.38421 0.28878 0.29740 -0.19300
H 	H 	0.37770 0.26280 0.36920 0.09300
C 	C 	0.36766 0.32258 0.21490 0.15500
C 	C 	0.37842 0.35844 0.11400 -0.19800
H 	H 	0.36790 0.38190 0.05290 0.09900
C 	C 	0.40480 0.36082 0.10010 0.11300
H 	H 	0.41170 0.38680 0.02960 -0.00600
Co	Co	0.53821 0.66044 0.16536 1.15500
O 	O 	0.54061 0.58410 0.30966 -0.38800
O 	O 	0.53512 0.67651 0.41590 -0.34200
O 	O 	0.54113 0.58030 0.02899 -0.36700
O 	O 	0.53875 0.67292 0.92580 -0.36300
N 	N 	0.53553 0.26553 0.66330 -0.23600
N 	N 	0.49755 0.64943 0.15770 -0.23600
N 	N 	0.32914 0.57882 0.92970 -0.25800
C 	C 	0.53583 0.47572 0.66590 -0.03200
C 	C 	0.53577 0.51141 0.54510 -0.00900
H 	H 	0.53500 0.48910 0.46120 0.04800
C 	C 	0.53683 0.57930 0.54780 -0.07900
C 	C 	0.53774 0.61229 0.66870 0.01700
H 	H 	0.53820 0.65880 0.66990 0.04700
C 	C 	0.53796 0.57718 0.79000 -0.08100
C 	C 	0.53686 0.50973 0.78760 -0.01200
H 	H 	0.53680 0.48610 0.87020 0.04000
C 	C 	0.54519 0.30033 0.56060 0.07800
H 	H 	0.55210 0.27740 0.48570 0.00800
C 	C 	0.54556 0.36764 0.55860 -0.14200
H 	H 	0.55290 0.38990 0.48370 0.08000
C 	C 	0.53542 0.40326 0.66450 0.08800
C 	C 	0.52534 0.36723 0.77080 -0.14200
H 	H 	0.51830 0.38900 0.84690 0.08100
C 	C 	0.52562 0.29937 0.76560 0.07900
H 	H 	0.51830 0.27580 0.83870 0.00600
C 	C 	0.53752 0.61599 0.41650 0.31300
C 	C 	0.53942 0.61325 0.92190 0.29400
C 	C 	0.41669 0.61354 0.11430 -0.08800
H 	H 	0.41010 0.59040 0.19490 0.05600
H 	H 	0.40780 0.65610 0.10790 0.06100
C 	C 	0.48761 0.58961 0.17660 0.09900
H 	H 	0.49890 0.55490 0.19970 0.00400
C 	C 	0.46195 0.57577 0.16430 -0.17000
H 	H 	0.45590 0.53240 0.17770 0.10800
C 	C 	0.44497 0.62572 0.13220 0.11500
C 	C 	0.45516 0.68719 0.11160 -0.16200
H 	H 	0.44430 0.72280 0.08920 0.09900
C 	C 	0.48121 0.69691 0.12360 0.09900
H 	H 	0.48780 0.73950 0.10670 0.00600
C 	C 	0.41075 0.57371 0.99100 -0.25600
H 	H 	0.41700 0.52840 0.00370 0.12200
H 	H 	0.41970 0.59270 0.91200 0.10000
C 	C 	0.33957 0.54274 0.02560 0.12900
H 	H 	0.32860 0.51820 0.08270 -0.01800
C 	C 	0.36579 0.53878 0.04740 -0.18300
H 	H 	0.37230 0.51280 0.11920 0.09200
C 	C 	0.38234 0.57258 0.96490 0.15200
C 	C 	0.37158 0.60844 0.86400 -0.20700
H 	H 	0.38210 0.63190 0.80290 0.09700
C 	C 	0.34520 0.61082 0.85010 0.11000
H 	H 	0.33830 0.63680 0.77960 -0.01100
Co	Co	0.53821 0.16044 0.66536 1.15200
O 	O 	0.54061 0.08410 0.80966 -0.38600
O 	O 	0.53512 0.17651 0.91590 -0.34600
O 	O 	0.54113 0.08030 0.52899 -0.38700
O 	O 	0.53875 0.17292 0.42580 -0.36100
N 	N 	0.53553 0.76553 0.16330 -0.23800
N 	N 	0.49755 0.14943 0.65770 -0.24000
N 	N 	0.32914 0.07882 0.42970 -0.24300
C 	C 	0.53583 0.97572 0.16590 -0.04000
C 	C 	0.53577 0.01141 0.04510 0.02700
H 	H 	0.53500 0.98910 0.96120 0.02400
C 	C 	0.53683 0.07930 0.04780 -0.07100
C 	C 	0.53774 0.11229 0.16870 0.02100
H 	H 	0.53820 0.15880 0.16990 0.05000
C 	C 	0.53796 0.07718 0.29000 -0.08700
C 	C 	0.53686 0.00973 0.28760 -0.00300
H 	H 	0.53680 0.98610 0.37020 0.04400
C 	C 	0.54519 0.80033 0.06060 0.10300
H 	H 	0.55210 0.77740 0.98570 -0.01400
C 	C 	0.54556 0.86764 0.05860 -0.11800
H 	H 	0.55290 0.88990 0.98370 0.05900
C 	C 	0.53542 0.90326 0.16450 0.08800
C 	C 	0.52534 0.86723 0.27080 -0.14100
H 	H 	0.51830 0.88900 0.34690 0.08500
C 	C 	0.52562 0.79937 0.26560 0.08000
H 	H 	0.51830 0.77580 0.33870 0.01000
C 	C 	0.53752 0.11599 0.91650 0.29800
C 	C 	0.53942 0.11325 0.42190 0.32100
C 	C 	0.41669 0.11354 0.61430 -0.14400
H 	H 	0.41010 0.09040 0.69490 0.06800
H 	H 	0.40780 0.15610 0.60790 0.06900
C 	C 	0.48761 0.08961 0.67660 0.10100
H 	H 	0.49890 0.05490 0.69970 0.00200
C 	C 	0.46195 0.07577 0.66430 -0.18400
H 	H 	0.45590 0.03240 0.67770 0.11100
C 	C 	0.44497 0.12572 0.63220 0.13200
C 	C 	0.45516 0.18719 0.61160 -0.17600
H 	H 	0.44430 0.22280 0.58920 0.09800
C 	C 	0.48121 0.19691 0.62360 0.10000
H 	H 	0.48780 0.23950 0.60670 0.00100
C 	C 	0.41075 0.07371 0.49100 -0.17700
H 	H 	0.41700 0.02840 0.50370 0.08600
H 	H 	0.41970 0.09270 0.41200 0.08200
C 	C 	0.33957 0.04274 0.52560 0.10700
H 	H 	0.32860 0.01820 0.58270 -0.01400
C 	C 	0.36579 0.03878 0.54740 -0.19300
H 	H 	0.37230 0.01280 0.61920 0.09200
C 	C 	0.38234 0.07258 0.46490 0.15300
C 	C 	0.37158 0.10844 0.36400 -0.19800
H 	H 	0.38210 0.13190 0.30290 0.09600
C 	C 	0.34520 0.11082 0.35010 0.11100
H 	H 	0.33830 0.13680 0.27960 -0.00900
Co	Co	0.03821 0.66044 0.66536 1.15200
O 	O 	0.04061 0.58410 0.80966 -0.38600
O 	O 	0.03512 0.67651 0.91590 -0.34600
O 	O 	0.04113 0.58030 0.52899 -0.38700
O 	O 	0.03875 0.67292 0.42580 -0.36100
N 	N 	0.03553 0.26553 0.16330 -0.23800
N 	N 	0.99755 0.64943 0.65770 -0.24000
N 	N 	0.82914 0.57882 0.42970 -0.24300
C 	C 	0.03583 0.47572 0.16590 -0.04000
C 	C 	0.03577 0.51141 0.04510 0.02700
H 	H 	0.03500 0.48910 0.96120 0.02300
C 	C 	0.03683 0.57930 0.04780 -0.07100
C 	C 	0.03774 0.61229 0.16870 0.02100
H 	H 	0.03820 0.65880 0.16990 0.05000
C 	C 	0.03796 0.57718 0.29000 -0.08700
C 	C 	0.03686 0.50973 0.28760 -0.00300
H 	H 	0.03680 0.48610 0.37020 0.04400
C 	C 	0.04519 0.30033 0.06060 0.10300
H 	H 	0.05210 0.27740 0.98570 -0.01400
C 	C 	0.04556 0.36764 0.05860 -0.11800
H 	H 	0.05290 0.38990 0.98370 0.05900
C 	C 	0.03542 0.40326 0.16450 0.08800
C 	C 	0.02534 0.36723 0.27080 -0.14100
H 	H 	0.01830 0.38900 0.34690 0.08500
C 	C 	0.02562 0.29937 0.26560 0.08000
H 	H 	0.01830 0.27580 0.33870 0.01000
C 	C 	0.03752 0.61599 0.91650 0.29800
C 	C 	0.03942 0.61325 0.42190 0.32100
C 	C 	0.91669 0.61354 0.61430 -0.14400
H 	H 	0.91010 0.59040 0.69490 0.06800
H 	H 	0.90780 0.65610 0.60790 0.06900
C 	C 	0.98761 0.58961 0.67660 0.10100
H 	H 	0.99890 0.55490 0.69970 0.00200
C 	C 	0.96195 0.57577 0.66430 -0.18400
H 	H 	0.95590 0.53240 0.67770 0.11100
C 	C 	0.94497 0.62572 0.63220 0.13200
C 	C 	0.95516 0.68719 0.61160 -0.17600
H 	H 	0.94430 0.72280 0.58920 0.09800
C 	C 	0.98121 0.69691 0.62360 0.10000
H 	H 	0.98780 0.73950 0.60670 0.00100
C 	C 	0.91075 0.57371 0.49100 -0.17700
H 	H 	0.91700 0.52840 0.50370 0.08600
H 	H 	0.91970 0.59270 0.41200 0.08200
C 	C 	0.83957 0.54274 0.52560 0.10700
H 	H 	0.82860 0.51820 0.58270 -0.01400
C 	C 	0.86579 0.53878 0.54740 -0.19300
H 	H 	0.87230 0.51280 0.61920 0.09200
C 	C 	0.88234 0.57258 0.46490 0.15300
C 	C 	0.87158 0.60844 0.36400 -0.19800
H 	H 	0.88210 0.63190 0.30290 0.09600
C 	C 	0.84520 0.61082 0.35010 0.11100
H 	H 	0.83830 0.63680 0.27960 -0.00900
Co	Co	0.03821 0.16044 0.16536 1.15500
O 	O 	0.04061 0.08410 0.30966 -0.38800
O 	O 	0.03512 0.17651 0.41590 -0.34200
O 	O 	0.04113 0.08030 0.02899 -0.36700
O 	O 	0.03875 0.17292 0.92580 -0.36300
N 	N 	0.03553 0.76553 0.66330 -0.23600
N 	N 	0.99755 0.14943 0.15770 -0.23600
N 	N 	0.82914 0.07882 0.92970 -0.25700
C 	C 	0.03583 0.97572 0.66590 -0.03200
C 	C 	0.03577 0.01141 0.54510 -0.00900
H 	H 	0.03500 0.98910 0.46120 0.04800
C 	C 	0.03683 0.07930 0.54780 -0.07900
C 	C 	0.03774 0.11229 0.66870 0.01700
H 	H 	0.03820 0.15880 0.66990 0.04700
C 	C 	0.03796 0.07718 0.79000 -0.08100
C 	C 	0.03686 0.00973 0.78760 -0.01200
H 	H 	0.03680 0.98610 0.87020 0.04000
C 	C 	0.04519 0.80033 0.56060 0.07800
H 	H 	0.05210 0.77740 0.48570 0.00800
C 	C 	0.04556 0.86764 0.55860 -0.14200
H 	H 	0.05290 0.88990 0.48370 0.08000
C 	C 	0.03542 0.90326 0.66450 0.08800
C 	C 	0.02534 0.86723 0.77080 -0.14200
H 	H 	0.01830 0.88900 0.84690 0.08100
C 	C 	0.02562 0.79937 0.76560 0.07900
H 	H 	0.01830 0.77580 0.83870 0.00600
C 	C 	0.03752 0.11599 0.41650 0.31300
C 	C 	0.03942 0.11325 0.92190 0.29400
C 	C 	0.91669 0.11354 0.11430 -0.08800
H 	H 	0.91010 0.09040 0.19490 0.05600
H 	H 	0.90780 0.15610 0.10790 0.06100
C 	C 	0.98761 0.08961 0.17660 0.09900
H 	H 	0.99890 0.05490 0.19970 0.00400
C 	C 	0.96195 0.07577 0.16430 -0.17000
H 	H 	0.95590 0.03240 0.17770 0.10800
C 	C 	0.94497 0.12572 0.13220 0.11500
C 	C 	0.95516 0.18719 0.11160 -0.16200
H 	H 	0.94430 0.22280 0.08920 0.09900
C 	C 	0.98121 0.19691 0.12360 0.09900
H 	H 	0.98780 0.23950 0.10670 0.00600
C 	C 	0.91075 0.07371 0.99100 -0.25500
H 	H 	0.91700 0.02840 0.00370 0.12100
H 	H 	0.91970 0.09270 0.91200 0.09900
C 	C 	0.83957 0.04274 0.02560 0.12900
H 	H 	0.82860 0.01820 0.08270 -0.01800
C 	C 	0.86579 0.03878 0.04740 -0.18300
H 	H 	0.87230 0.01280 0.11920 0.09200
C 	C 	0.88234 0.07258 0.96490 0.15200
C 	C 	0.87158 0.10844 0.86400 -0.20700
H 	H 	0.88210 0.13190 0.80290 0.09700
C 	C 	0.84520 0.11082 0.85010 0.11000
H 	H 	0.83830 0.13680 0.77960 -0.01100
Co	Co	0.78821 0.58956 0.41536 1.15200
O 	O 	0.79061 0.66590 0.55966 -0.38700
O 	O 	0.78512 0.57349 0.66590 -0.34200
O 	O 	0.79113 0.66970 0.27899 -0.38500
O 	O 	0.78875 0.57708 0.17580 -0.35400
N 	N 	0.78553 0.98447 0.91330 -0.24600
N 	N 	0.74755 0.60057 0.40770 -0.24000
N 	N 	0.57914 0.67118 0.17970 -0.24200
C 	C 	0.78583 0.77428 0.91590 -0.04800
C 	C 	0.78577 0.73859 0.79510 -0.01100
H 	H 	0.78500 0.76090 0.71120 0.04800
C 	C 	0.78683 0.67070 0.79780 -0.07300
C 	C 	0.78774 0.63771 0.91870 -0.01100
H 	H 	0.78820 0.59120 0.91990 0.05100
C 	C 	0.78796 0.67282 0.04000 -0.06200
C 	C 	0.78686 0.74027 0.03760 0.01000
H 	H 	0.78680 0.76390 0.12020 0.04200
C 	C 	0.79519 0.94967 0.81060 0.07000
H 	H 	0.80210 0.97260 0.73570 0.00900
C 	C 	0.79556 0.88236 0.80860 -0.13500
H 	H 	0.80290 0.86010 0.73370 0.07600
C 	C 	0.78542 0.84674 0.91450 0.06500
C 	C 	0.77534 0.88277 0.02080 -0.11500
H 	H 	0.76830 0.86100 0.09690 0.07900
C 	C 	0.77562 0.95063 0.01560 0.09400
H 	H 	0.76830 0.97420 0.08870 0.00900
C 	C 	0.78752 0.63401 0.66650 0.31000
C 	C 	0.78942 0.63675 0.17190 0.31500
C 	C 	0.66669 0.63646 0.36430 -0.14500
H 	H 	0.66010 0.65960 0.44490 0.06900
H 	H 	0.65780 0.59390 0.35790 0.07000
C 	C 	0.73761 0.66039 0.42660 0.10300
H 	H 	0.74890 0.69510 0.44970 0.00200
C 	C 	0.71195 0.67423 0.41430 -0.18400
H 	H 	0.70590 0.71760 0.42770 0.11200
C 	C 	0.69497 0.62428 0.38220 0.13300
C 	C 	0.70516 0.56281 0.36160 -0.17600
H 	H 	0.69430 0.52720 0.33920 0.09900
C 	C 	0.73121 0.55309 0.37360 0.10200
H 	H 	0.73780 0.51050 0.35670 0.00200
C 	C 	0.66075 0.67629 0.24100 -0.17800
H 	H 	0.66700 0.72160 0.25370 0.08700
H 	H 	0.66970 0.65730 0.16200 0.08500
C 	C 	0.58957 0.70726 0.27560 0.10800
H 	H 	0.57860 0.73180 0.33270 -0.01400
C 	C 	0.61579 0.71122 0.29740 -0.19300
H 	H 	0.62230 0.73720 0.36920 0.09300
C 	C 	0.63234 0.67742 0.21490 0.15500
C 	C 	0.62158 0.64156 0.11400 -0.19800
H 	H 	0.63210 0.61810 0.05290 0.09900
C 	C 	0.59520 0.63918 0.10010 0.11300
H 	H 	0.58830 0.61320 0.02960 -0.00600
Co	Co	0.78821 0.08956 0.91536 1.14700
O 	O 	0.79061 0.16590 0.05966 -0.37300
O 	O 	0.78512 0.07349 0.16590 -0.33600
O 	O 	0.79113 0.16970 0.77899 -0.39000
O 	O 	0.78875 0.07708 0.67580 -0.36200
N 	N 	0.78553 0.48447 0.41330 -0.23500
N 	N 	0.74755 0.10057 0.90770 -0.24200
N 	N 	0.57914 0.17118 0.67970 -0.24400
C 	C 	0.78583 0.27428 0.41590 -0.03100
C 	C 	0.78577 0.23859 0.29510 -0.01000
H 	H 	0.78500 0.26090 0.21120 0.05200
C 	C 	0.78683 0.17070 0.29780 -0.07700
C 	C 	0.78774 0.13771 0.41870 0.02000
H 	H 	0.78820 0.09120 0.41990 0.04700
C 	C 	0.78796 0.17282 0.54000 -0.08500
C 	C 	0.78686 0.24027 0.53760 -0.00800
H 	H 	0.78680 0.26390 0.62020 0.04500
C 	C 	0.79519 0.44967 0.31060 0.07900
H 	H 	0.80210 0.47260 0.23570 0.01100
C 	C 	0.79556 0.38236 0.30860 -0.14200
H 	H 	0.80290 0.36010 0.23370 0.08400
C 	C 	0.78542 0.34674 0.41450 0.09000
C 	C 	0.77534 0.38277 0.52080 -0.14100
H 	H 	0.76830 0.36100 0.59690 0.08500
C 	C 	0.77562 0.45063 0.51560 0.08100
H 	H 	0.76830 0.47420 0.58870 0.00900
C 	C 	0.78752 0.13401 0.16650 0.31200
C 	C 	0.78942 0.13675 0.67190 0.32100
C 	C 	0.66669 0.13646 0.86430 -0.14100
H 	H 	0.66010 0.15960 0.94490 0.06400
H 	H 	0.65780 0.09390 0.85790 0.06700
C 	C 	0.73761 0.16039 0.92660 0.09800
H 	H 	0.74890 0.19510 0.94970 -0.00200
C 	C 	0.71195 0.17423 0.91430 -0.18400
H 	H 	0.70590 0.21760 0.92770 0.10700
C 	C 	0.69497 0.12428 0.88220 0.12800
C 	C 	0.70516 0.06281 0.86160 -0.17600
H 	H 	0.69430 0.02720 0.83920 0.09600
C 	C 	0.73121 0.05309 0.87360 0.09800
H 	H 	0.73780 0.01050 0.85670 -0.00100
C 	C 	0.66075 0.17629 0.74100 -0.17800
H 	H 	0.66700 0.22160 0.75370 0.08600
H 	H 	0.66970 0.15730 0.66200 0.08300
C 	C 	0.58957 0.20726 0.77560 0.10600
H 	H 	0.57860 0.23180 0.83270 -0.01700
C 	C 	0.61579 0.21122 0.79740 -0.19400
H 	H 	0.62230 0.23720 0.86920 0.09000
C 	C 	0.63234 0.17742 0.71490 0.15200
C 	C 	0.62158 0.14156 0.61400 -0.19900
H 	H 	0.63210 0.11810 0.55290 0.09600
C 	C 	0.59520 0.13918 0.60010 0.11100
H 	H 	0.58830 0.11320 0.52960 -0.01000
Co	Co	0.28821 0.58956 0.91536 1.14700
O 	O 	0.29061 0.66590 0.05966 -0.37300
O 	O 	0.28512 0.57349 0.16590 -0.33600
O 	O 	0.29113 0.66970 0.77899 -0.39000
O 	O 	0.28875 0.57708 0.67580 -0.36200
N 	N 	0.28553 0.98447 0.41330 -0.23500
N 	N 	0.24755 0.60057 0.90770 -0.24200
N 	N 	0.07914 0.67118 0.67970 -0.24400
C 	C 	0.28583 0.77428 0.41590 -0.03100
C 	C 	0.28577 0.73859 0.29510 -0.01000
H 	H 	0.28500 0.76090 0.21120 0.05200
C 	C 	0.28683 0.67070 0.29780 -0.07700
C 	C 	0.28774 0.63771 0.41870 0.02000
H 	H 	0.28820 0.59120 0.41990 0.04700
C 	C 	0.28796 0.67282 0.54000 -0.08500
C 	C 	0.28686 0.74027 0.53760 -0.00800
H 	H 	0.28680 0.76390 0.62020 0.04500
C 	C 	0.29519 0.94967 0.31060 0.07900
H 	H 	0.30210 0.97260 0.23570 0.01100
C 	C 	0.29556 0.88236 0.30860 -0.14200
H 	H 	0.30290 0.86010 0.23370 0.08400
C 	C 	0.28542 0.84674 0.41450 0.09000
C 	C 	0.27534 0.88277 0.52080 -0.14100
H 	H 	0.26830 0.86100 0.59690 0.08500
C 	C 	0.27562 0.95063 0.51560 0.08100
H 	H 	0.26830 0.97420 0.58870 0.00900
C 	C 	0.28752 0.63401 0.16650 0.31200
C 	C 	0.28942 0.63675 0.67190 0.32100
C 	C 	0.16669 0.63646 0.86430 -0.14100
H 	H 	0.16010 0.65960 0.94490 0.06400
H 	H 	0.15780 0.59390 0.85790 0.06700
C 	C 	0.23761 0.66039 0.92660 0.09800
H 	H 	0.24890 0.69510 0.94970 -0.00200
C 	C 	0.21195 0.67423 0.91430 -0.18400
H 	H 	0.20590 0.71760 0.92770 0.10700
C 	C 	0.19497 0.62428 0.88220 0.12800
C 	C 	0.20516 0.56281 0.86160 -0.17600
H 	H 	0.19430 0.52720 0.83920 0.09600
C 	C 	0.23121 0.55309 0.87360 0.09800
H 	H 	0.23780 0.51050 0.85670 -0.00100
C 	C 	0.16075 0.67629 0.74100 -0.17800
H 	H 	0.16700 0.72160 0.75370 0.08600
H 	H 	0.16970 0.65730 0.66200 0.08300
C 	C 	0.08957 0.70726 0.77560 0.10600
H 	H 	0.07860 0.73180 0.83270 -0.01700
C 	C 	0.11579 0.71122 0.79740 -0.19400
H 	H 	0.12230 0.73720 0.86920 0.09000
C 	C 	0.13234 0.67742 0.71490 0.15200
C 	C 	0.12158 0.64156 0.61400 -0.19900
H 	H 	0.13210 0.61810 0.55290 0.09600
C 	C 	0.09520 0.63918 0.60010 0.11100
H 	H 	0.08830 0.61320 0.52960 -0.01000
Co	Co	0.28821 0.08956 0.41536 1.15200
O 	O 	0.29061 0.16590 0.55966 -0.38700
O 	O 	0.28512 0.07349 0.66590 -0.34200
O 	O 	0.29113 0.16970 0.27899 -0.38500
O 	O 	0.28875 0.07708 0.17580 -0.35400
N 	N 	0.28553 0.48447 0.91330 -0.24600
N 	N 	0.24755 0.10057 0.40770 -0.24000
N 	N 	0.07914 0.17118 0.17970 -0.24200
C 	C 	0.28583 0.27428 0.91590 -0.04800
C 	C 	0.28577 0.23859 0.79510 -0.01100
H 	H 	0.28500 0.26090 0.71120 0.04800
C 	C 	0.28683 0.17070 0.79780 -0.07300
C 	C 	0.28774 0.13771 0.91870 -0.01100
H 	H 	0.28820 0.09120 0.91990 0.05100
C 	C 	0.28796 0.17282 0.04000 -0.06300
C 	C 	0.28686 0.24027 0.03760 0.01000
H 	H 	0.28680 0.26390 0.12020 0.04200
C 	C 	0.29519 0.44967 0.81060 0.07000
H 	H 	0.30210 0.47260 0.73570 0.00900
C 	C 	0.29556 0.38236 0.80860 -0.13500
H 	H 	0.30290 0.36010 0.73370 0.07600
C 	C 	0.28542 0.34674 0.91450 0.06500
C 	C 	0.27534 0.38277 0.02080 -0.11500
H 	H 	0.26830 0.36100 0.09690 0.07900
C 	C 	0.27562 0.45063 0.01560 0.09500
H 	H 	0.26830 0.47420 0.08870 0.00900
C 	C 	0.28752 0.13401 0.66650 0.31000
C 	C 	0.28942 0.13675 0.17190 0.31500
C 	C 	0.16669 0.13646 0.36430 -0.14500
H 	H 	0.16010 0.15960 0.44490 0.06900
H 	H 	0.15780 0.09390 0.35790 0.07000
C 	C 	0.23761 0.16039 0.42660 0.10300
H 	H 	0.24890 0.19510 0.44970 0.00200
C 	C 	0.21195 0.17423 0.41430 -0.18400
H 	H 	0.20590 0.21760 0.42770 0.11200
C 	C 	0.19497 0.12428 0.38220 0.13300
C 	C 	0.20516 0.06281 0.36160 -0.17600
H 	H 	0.19430 0.02720 0.33920 0.09900
C 	C 	0.23121 0.05309 0.37360 0.10200
H 	H 	0.23780 0.01050 0.35670 0.00200
C 	C 	0.16075 0.17629 0.24100 -0.17800
H 	H 	0.16700 0.22160 0.25370 0.08700
H 	H 	0.16970 0.15730 0.16200 0.08500
C 	C 	0.08957 0.20726 0.27560 0.10800
H 	H 	0.07860 0.23180 0.33270 -0.01400
C 	C 	0.11579 0.21122 0.29740 -0.19300
H 	H 	0.12230 0.23720 0.36920 0.09300
C 	C 	0.13234 0.17742 0.21490 0.15500
C 	C 	0.12158 0.14156 0.11400 -0.19800
H 	H 	0.13210 0.11810 0.05290 0.09900
C 	C 	0.09520 0.13918 0.10010 0.11300
H 	H 	0.08830 0.11320 0.02960 -0.00600
