data_crystal

_cell_length_a 11.79140
_cell_length_b 17.05040
_cell_length_c 20.79500
_cell_angle_alpha 104.72600
_cell_angle_beta  106.36000
_cell_angle_gamma 103.48100

_symmetry_space_group_name_	'P 1'
_symmetry_space_group_name_H-M	'P 1'

loop_
_symmetry_equiv_pos_as_xyz
  x,y,z

loop_
_atom_site_label
_atom_site_type_symbol
_atom_site_fract_x
_atom_site_fract_y
_atom_site_fract_z
_atom_site_charge
Co	Co	0.00007 0.25188 0.24835 1.13200
Co	Co	0.99993 0.74812 0.75165 1.16400
Co	Co	0.50000 0.50000 0.50000 1.14800
Co	Co	-0.00000 0.50000 0.50000 1.16800
Co	Co	-0.00000 0.00000 -0.00000 1.12700
Co	Co	0.50000 0.00000 -0.00000 1.10900
H 	H 	0.32180 0.32340 0.34500 -0.01700
H 	H 	0.68280 0.18750 0.14650 -0.01600
H 	H 	0.52510 0.49660 0.65330 -0.00800
H 	H 	0.52630 0.40180 0.71700 0.08700
H 	H 	0.42170 0.20880 0.53310 0.09200
H 	H 	0.42730 0.30890 0.47630 -0.01200
H 	H 	0.51030 0.22810 0.88130 0.08200
H 	H 	0.52680 0.17150 0.97320 0.01600
H 	H 	0.50690 0.95100 0.84770 0.08400
H 	H 	0.49330 0.00110 0.75340 0.04800
H 	H 	0.14590 0.18180 0.35810 -0.00200
H 	H 	0.12520 0.06780 0.39850 0.07600
H 	H 	0.75720 0.00820 0.31090 0.07000
H 	H 	0.78850 0.12370 0.27320 -0.01300
H 	H 	0.10370 0.81550 0.51560 0.10400
H 	H 	0.12630 0.69940 0.54980 0.01700
H 	H 	0.80120 0.55060 0.40470 0.00700
H 	H 	0.76780 0.66500 0.37010 0.09800
H 	H 	0.19970 0.95480 0.09950 0.01600
H 	H 	0.23660 0.84320 0.13520 0.10900
H 	H 	0.91000 0.68630 0.98250 0.16300
H 	H 	0.87870 0.80290 0.95200 -0.03600
H 	H 	0.25320 0.49150 0.18510 0.08200
H 	H 	0.21560 0.37590 0.22410 -0.00600
H 	H 	0.85700 0.32800 0.14160 -0.01500
H 	H 	0.88630 0.44070 0.10120 0.07400
H 	H 	0.67820 0.67660 0.65500 -0.01100
H 	H 	0.31720 0.81250 0.85350 -0.01100
H 	H 	0.47490 0.50340 0.34670 -0.01000
H 	H 	0.47370 0.59820 0.28300 0.08600
H 	H 	0.57830 0.79120 0.46690 0.10500
H 	H 	0.57270 0.69110 0.52370 -0.00700
H 	H 	0.48970 0.77190 0.11870 0.09500
H 	H 	0.47320 0.82850 0.02680 -0.01700
H 	H 	0.49310 0.04900 0.15230 -0.08200
H 	H 	0.50670 0.99890 0.24660 0.13600
H 	H 	0.85410 0.81820 0.64190 -0.02400
H 	H 	0.87480 0.93220 0.60150 0.11900
H 	H 	0.24280 0.99180 0.68910 0.14100
H 	H 	0.21150 0.87630 0.72680 -0.01500
H 	H 	0.89630 0.18450 0.48440 0.07000
H 	H 	0.87370 0.30060 0.45020 0.00800
H 	H 	0.19880 0.44940 0.59530 0.01400
H 	H 	0.23220 0.33500 0.62990 0.08400
H 	H 	0.80030 0.04520 0.90050 0.00500
H 	H 	0.76340 0.15680 0.86480 0.07800
H 	H 	0.09000 0.31370 0.01750 0.00000
H 	H 	0.12130 0.19710 0.04800 0.06500
H 	H 	0.74680 0.50850 0.81490 0.09900
H 	H 	0.78440 0.62410 0.77590 -0.01200
H 	H 	0.14300 0.67200 0.85840 -0.00500
H 	H 	0.11370 0.55930 0.89880 0.11100
C 	C 	0.27580 0.35490 0.36480 0.12300
C 	C 	0.23190 0.44960 0.43390 -0.04500
C 	C 	0.12290 0.39490 0.37920 -0.09200
C 	C 	0.26510 0.52550 0.49910 0.32900
C 	C 	0.98900 0.39000 0.35810 0.36500
C 	C 	0.72770 0.15320 0.12870 0.11800
C 	C 	0.87790 0.10730 0.11750 -0.01800
C 	C 	0.76930 0.05300 0.06360 -0.10100
C 	C 	0.01180 0.11240 0.14100 0.28900
C 	C 	0.73370 0.97140 0.00420 0.30400
C 	C 	0.50630 0.43730 0.62850 0.09400
C 	C 	0.50640 0.38100 0.66690 -0.15200
C 	C 	0.47720 0.29450 0.63070 0.10000
C 	C 	0.44590 0.26800 0.55990 -0.15700
C 	C 	0.44940 0.32870 0.52660 0.10100
C 	C 	0.48080 0.23270 0.66970 0.02900
C 	C 	0.49140 0.15430 0.74880 0.03600
C 	C 	0.50010 0.12000 0.80780 0.04600
C 	C 	0.50930 0.17050 0.87310 -0.11300
C 	C 	0.51710 0.13580 0.92730 0.06400
C 	C 	0.50590 0.00800 0.85450 -0.04800
C 	C 	0.49890 0.03740 0.79800 -0.07900
C 	C 	0.06400 0.14390 0.34590 0.05900
C 	C 	0.05280 0.07630 0.37100 -0.17300
C 	C 	0.93770 0.02200 0.35590 0.06800
C 	C 	0.84010 0.04220 0.32020 -0.13900
C 	C 	0.85940 0.11090 0.29720 0.09200
C 	C 	0.91470 0.94230 0.37420 0.10800
C 	C 	0.91420 0.82170 0.41030 0.04900
C 	C 	0.93370 0.75170 0.43770 0.13400
C 	C 	0.03970 0.76120 0.49180 -0.19000
C 	C 	0.05310 0.69130 0.51140 0.06900
C 	C 	0.86430 0.60530 0.42780 0.09600
C 	C 	0.84410 0.67330 0.40640 -0.15500
C 	C 	0.13900 0.89910 0.07540 0.10900
C 	C 	0.16200 0.83300 0.09680 -0.18600
C 	C 	0.07730 0.75230 0.06270 0.12700
C 	C 	0.97100 0.74160 0.00790 -0.28700
C 	C 	0.95320 0.81130 0.98970 0.26500
C 	C 	0.10100 0.68220 0.08900 -0.02100
C 	C 	0.09780 0.56150 0.12450 0.00500
C 	C 	0.07350 0.48300 0.14400 0.04900
C 	C 	0.16980 0.46000 0.17750 -0.13600
C 	C 	0.14660 0.39070 0.20040 0.07900
C 	C 	0.94020 0.36330 0.15290 0.12300
C 	C 	0.95690 0.43050 0.12880 -0.11100
C 	C 	0.72420 0.64510 0.63520 0.12400
C 	C 	0.76810 0.55040 0.56610 -0.06200
C 	C 	0.87710 0.60510 0.62080 -0.01700
C 	C 	0.73490 0.47450 0.50090 0.33800
C 	C 	0.01100 0.61000 0.64190 0.28600
C 	C 	0.27230 0.84680 0.87130 0.12800
C 	C 	0.12210 0.89270 0.88250 -0.08800
C 	C 	0.23070 0.94700 0.93640 -0.00200
C 	C 	0.98820 0.88760 0.85900 0.37200
C 	C 	0.26630 0.02860 0.99580 0.35800
C 	C 	0.49370 0.56270 0.37150 0.09500
C 	C 	0.49360 0.61900 0.33310 -0.15600
C 	C 	0.52280 0.70550 0.36930 0.10400
C 	C 	0.55410 0.73200 0.44010 -0.16000
C 	C 	0.55060 0.67130 0.47340 0.10400
C 	C 	0.51920 0.76730 0.33030 0.03000
C 	C 	0.50860 0.84570 0.25120 0.02000
C 	C 	0.49990 0.88000 0.19220 0.13100
C 	C 	0.49070 0.82950 0.12690 -0.17100
C 	C 	0.48290 0.86420 0.07270 0.10200
C 	C 	0.49410 0.99200 0.14550 0.22800
C 	C 	0.50110 0.96260 0.20200 -0.22300
C 	C 	0.93600 0.85610 0.65410 0.16900
C 	C 	0.94720 0.92370 0.62900 -0.18300
C 	C 	0.06230 0.97800 0.64410 0.17500
C 	C 	0.15990 0.95780 0.67980 -0.21100
C 	C 	0.14060 0.88910 0.70280 0.13500
C 	C 	0.08530 0.05770 0.62580 -0.07700
C 	C 	0.08580 0.17830 0.58970 0.00700
C 	C 	0.06630 0.24830 0.56230 0.03900
C 	C 	0.96030 0.23880 0.50820 -0.09100
C 	C 	0.94690 0.30870 0.48860 0.10800
C 	C 	0.13570 0.39470 0.57220 0.06400
C 	C 	0.15590 0.32670 0.59360 -0.11900
C 	C 	0.86100 0.10090 0.92460 0.06300
C 	C 	0.83800 0.16700 0.90320 -0.09200
C 	C 	0.92270 0.24770 0.93730 0.03800
C 	C 	0.02900 0.25840 0.99210 0.02200
C 	C 	0.04680 0.18870 0.01030 -0.10700
C 	C 	0.89900 0.31780 0.91100 0.08600
C 	C 	0.90220 0.43850 0.87550 0.04600
C 	C 	0.92650 0.51700 0.85600 0.15000
C 	C 	0.83020 0.54000 0.82250 -0.17500
C 	C 	0.85340 0.60930 0.79960 0.11400
C 	C 	0.05980 0.63670 0.84710 0.09300
C 	C 	0.04310 0.56950 0.87120 -0.21200
S 	S 	0.49530 0.25684 0.75621 0.00300
S 	S 	0.02590 0.91509 0.42763 -0.03900
S 	S 	0.98380 0.59022 0.07338 0.03100
S 	S 	0.50470 0.74316 0.24379 0.00700
S 	S 	0.97410 0.08491 0.57237 0.03700
S 	S 	0.01620 0.40978 0.92662 -0.05600
N 	N 	0.32830 0.42320 0.42360 -0.23300
N 	N 	0.15260 0.33460 0.33610 -0.23100
N 	N 	0.84980 0.17130 0.15950 -0.23000
N 	N 	0.67300 0.08290 0.07070 -0.23700
N 	N 	0.48120 0.41150 0.55950 -0.23700
N 	N 	0.47260 0.15340 0.63940 -0.08000
N 	N 	0.47890 0.10810 0.68490 -0.08900
N 	N 	0.51130 0.05430 0.91730 -0.20900
N 	N 	0.97040 0.15980 0.30660 -0.20400
N 	N 	0.80850 0.88400 0.34740 -0.07900
N 	N 	0.80750 0.81590 0.36950 -0.07900
N 	N 	0.96860 0.61370 0.47930 -0.20000
N 	N 	0.03310 0.34430 0.19110 -0.25100
N 	N 	0.20630 0.61580 0.14700 -0.08200
N 	N 	0.20860 0.68580 0.12600 -0.07700
N 	N 	0.03570 0.88960 0.02260 -0.28100
N 	N 	0.67170 0.57680 0.57640 -0.22900
N 	N 	0.84740 0.66540 0.66390 -0.23200
N 	N 	0.15020 0.82870 0.84050 -0.23500
N 	N 	0.32700 0.91710 0.92930 -0.21300
N 	N 	0.51880 0.58850 0.44050 -0.23800
N 	N 	0.52740 0.84660 0.36060 -0.06800
N 	N 	0.52110 0.89190 0.31510 -0.06700
N 	N 	0.48870 0.94570 0.08270 -0.25100
N 	N 	0.02960 0.84020 0.69340 -0.27000
N 	N 	0.19150 0.11600 0.65260 -0.06900
N 	N 	0.19250 0.18410 0.63050 -0.08000
N 	N 	0.03140 0.38630 0.52070 -0.23900
N 	N 	0.96690 0.65570 0.80890 -0.21600
N 	N 	0.79370 0.38420 0.85300 -0.08100
N 	N 	0.79140 0.31420 0.87400 -0.08800
N 	N 	0.96430 0.11040 0.97740 -0.15000
O 	O 	0.38020 0.55850 0.53650 -0.39200
O 	O 	0.18510 0.55400 0.51470 -0.39700
O 	O 	0.95040 0.44120 0.39220 -0.38800
O 	O 	0.91560 0.32910 0.30020 -0.38800
O 	O 	0.08430 0.17430 0.19740 -0.39900
O 	O 	0.04870 0.05960 0.10740 -0.41900
O 	O 	0.81440 0.94400 0.98730 -0.31600
O 	O 	0.61820 0.93290 0.97260 -0.33600
O 	O 	0.61980 0.44150 0.46350 -0.39600
O 	O 	0.81490 0.44600 0.48530 -0.38600
O 	O 	0.04960 0.55880 0.60780 -0.39100
O 	O 	0.08440 0.67090 0.69980 -0.39100
O 	O 	0.91570 0.82570 0.80260 -0.39300
O 	O 	0.95130 0.94040 0.89260 -0.35800
O 	O 	0.18560 0.05600 0.01270 -0.44500
O 	O 	0.38180 0.06710 0.02740 -0.44300
