data_crystal

_cell_length_a 9.85680
_cell_length_b 11.30700
_cell_length_c 14.72900
_cell_angle_alpha 91.37100
_cell_angle_beta  90.00000
_cell_angle_gamma 90.00000

_symmetry_space_group_name_	'P 1'
_symmetry_space_group_name_H-M	'P 1'

loop_
_symmetry_equiv_pos_as_xyz
  x,y,z

loop_
_atom_site_label
_atom_site_type_symbol
_atom_site_fract_x
_atom_site_fract_y
_atom_site_fract_z
_atom_site_charge
Mg	Mg	0.57762 0.74357 0.36462 1.47800
Mg	Mg	0.38570 0.76038 0.19267 1.48200
Mg	Mg	0.07762 0.75643 0.13538 1.46300
Mg	Mg	0.88570 0.73962 0.30733 1.48600
Mg	Mg	0.42238 0.25643 0.63538 1.47700
Mg	Mg	0.61430 0.23962 0.80733 1.48000
Mg	Mg	0.92238 0.24357 0.86462 1.49100
Mg	Mg	0.11430 0.26038 0.69267 1.47500
Mg	Mg	0.50000 0.00000 0.50000 1.47500
Mg	Mg	-0.00000 0.50000 -0.00000 1.45300
Mg	Mg	0.50000 0.50000 0.50000 1.48300
Mg	Mg	-0.00000 0.00000 -0.00000 1.44700
H 	H 	0.44760 0.02270 0.24240 -0.30600
H 	H 	0.87890 0.94460 0.44870 -0.06200
H 	H 	0.79090 0.49880 0.47370 -0.09800
H 	H 	0.73680 0.64940 0.13040 -0.17700
H 	H 	0.34810 0.80320 0.57010 -0.12400
H 	H 	0.30150 0.52070 0.27520 -0.18400
H 	H 	0.94760 0.47730 0.25760 -0.11100
H 	H 	0.37890 0.55540 0.05130 -0.17900
H 	H 	0.29090 0.00120 0.02630 -0.29100
H 	H 	0.23680 0.85060 0.36960 -0.14800
H 	H 	0.84810 0.69680 0.92990 -0.15000
H 	H 	0.80150 0.97930 0.22480 -0.16900
H 	H 	0.55240 0.97730 0.75760 0.03100
H 	H 	0.12110 0.05540 0.55130 -0.20600
H 	H 	0.20910 0.50120 0.52630 -0.15100
H 	H 	0.26320 0.35060 0.86960 -0.11000
H 	H 	0.65190 0.19680 0.42990 -0.14000
H 	H 	0.69850 0.47930 0.72480 -0.12600
H 	H 	0.05240 0.52270 0.74240 -0.16100
H 	H 	0.62110 0.44460 0.94870 -0.08800
H 	H 	0.70910 0.99880 0.97370 0.04000
H 	H 	0.76320 0.14940 0.63040 -0.14300
H 	H 	0.15190 0.30320 0.07010 -0.10200
H 	H 	0.19850 0.02070 0.77520 -0.13100
C 	C 	0.47327 0.98113 0.29328 0.89900
C 	C 	0.78731 0.92595 0.44330 0.55900
C 	C 	0.77300 0.56265 0.43689 0.54400
C 	C 	0.66778 0.67698 0.16846 0.58500
C 	C 	0.40275 0.75895 0.53060 0.57500
C 	C 	0.36366 0.54879 0.31804 0.59600
C 	C 	0.97327 0.51887 0.20672 0.57900
C 	C 	0.28731 0.57405 0.05670 0.60700
C 	C 	0.27300 0.93735 0.06311 0.75200
C 	C 	0.16778 0.82302 0.33154 0.59200
C 	C 	0.90275 0.74105 0.96940 0.78300
C 	C 	0.86366 0.95121 0.18196 0.70900
C 	C 	0.52673 0.01887 0.70672 0.28600
C 	C 	0.21269 0.07405 0.55670 0.60700
C 	C 	0.22700 0.43735 0.56311 0.57600
C 	C 	0.33222 0.32302 0.83154 0.56700
C 	C 	0.59725 0.24105 0.46940 0.58800
C 	C 	0.63634 0.45121 0.68196 0.58800
C 	C 	0.02673 0.48113 0.79328 0.60400
C 	C 	0.71269 0.42595 0.94330 0.55800
C 	C 	0.72700 0.06265 0.93689 0.36700
C 	C 	0.83222 0.17698 0.66846 0.56200
C 	C 	0.09725 0.25895 0.03060 0.32200
C 	C 	0.13634 0.04879 0.81804 0.45000
O 	O 	0.48925 0.86985 0.28298 -0.74800
O 	O 	0.48884 0.03874 0.36478 -0.66000
O 	O 	0.75510 0.84218 0.38725 -0.64000
O 	O 	0.70696 0.98398 0.49076 -0.44600
O 	O 	0.65011 0.59889 0.43379 -0.65400
O 	O 	0.87026 0.60492 0.39535 -0.45600
O 	O 	0.69734 0.69456 0.25208 -0.67600
O 	O 	0.55519 0.69338 0.13351 -0.54000
O 	O 	0.47568 0.81631 0.47471 -0.65000
O 	O 	0.39834 0.65067 0.53682 -0.51900
O 	O 	0.41772 0.64956 0.30380 -0.67800
O 	O 	0.38638 0.48563 0.38337 -0.53100
O 	O 	0.98925 0.63015 0.21702 -0.61000
O 	O 	0.98884 0.46126 0.13522 -0.46300
O 	O 	0.25510 0.65782 0.11275 -0.72700
O 	O 	0.20696 0.51602 0.00924 -0.62200
O 	O 	0.15011 0.90111 0.06621 -0.79100
O 	O 	0.37026 0.89508 0.10465 -0.56600
O 	O 	0.19734 0.80544 0.24792 -0.71100
O 	O 	0.05519 0.80662 0.36649 -0.60200
O 	O 	0.97568 0.68369 0.02529 -0.73000
O 	O 	0.89834 0.84933 0.96318 -0.44800
O 	O 	0.91772 0.85044 0.19620 -0.65000
O 	O 	0.88638 0.01437 0.11663 -0.59600
O 	O 	0.51075 0.13015 0.71702 -0.60900
O 	O 	0.51116 0.96126 0.63522 -0.36200
O 	O 	0.24490 0.15782 0.61275 -0.70600
O 	O 	0.29304 0.01602 0.50924 -0.56400
O 	O 	0.34989 0.40111 0.56621 -0.67300
O 	O 	0.12974 0.39508 0.60465 -0.55600
O 	O 	0.30266 0.30544 0.74792 -0.67100
O 	O 	0.44481 0.30662 0.86649 -0.48300
O 	O 	0.52432 0.18369 0.52529 -0.67900
O 	O 	0.60166 0.34933 0.46318 -0.52200
O 	O 	0.58228 0.35044 0.69620 -0.67000
O 	O 	0.61362 0.51437 0.61663 -0.49600
O 	O 	0.01075 0.36985 0.78298 -0.74000
O 	O 	0.01116 0.53874 0.86478 -0.53900
O 	O 	0.74490 0.34218 0.88725 -0.62400
O 	O 	0.79304 0.48398 0.99076 -0.39400
O 	O 	0.84989 0.09889 0.93379 -0.53500
O 	O 	0.62974 0.10492 0.89535 -0.44700
O 	O 	0.80266 0.19456 0.75208 -0.64000
O 	O 	0.94481 0.19338 0.63351 -0.42700
O 	O 	0.02432 0.31631 0.97471 -0.55400
O 	O 	0.10166 0.15067 0.03682 -0.57900
O 	O 	0.08228 0.14956 0.80380 -0.68500
O 	O 	0.11362 0.98563 0.88337 -0.39000
