data_crystal

_cell_length_a 31.09980
_cell_length_b 24.04570
_cell_length_c 23.00640
_cell_angle_alpha 90.00000
_cell_angle_beta  131.42000
_cell_angle_gamma 90.00000

_symmetry_space_group_name_	'P 1'
_symmetry_space_group_name_H-M	'P 1'

loop_
_symmetry_equiv_pos_as_xyz
  x,y,z

loop_
_atom_site_label
_atom_site_type_symbol
_atom_site_fract_x
_atom_site_fract_y
_atom_site_fract_z
_atom_site_charge
Cd	Cd	0.04419 0.46114 0.97872 1.23100
Cd	Cd	0.19899 0.37499 0.04125 1.23700
Cd	Cd	0.13906 0.32418 0.13540 1.24100
O 	O 	0.27703 0.43112 0.08539 -0.38700
O 	O 	0.23007 0.39243 0.97115 -0.40600
O 	O 	0.24888 0.42591 0.88400 -0.39900
H 	H 	0.23410 0.40920 0.89970 0.25000
O 	O 	0.26072 0.55421 0.85414 -0.44100
H 	H 	0.23870 0.57900 0.82450 0.28400
O 	O 	0.20275 0.61450 0.73584 -0.43400
O 	O 	0.20151 0.60366 0.64036 -0.50800
O 	O 	0.05767 0.27055 0.07987 -0.38000
O 	O 	0.10957 0.29177 0.20325 -0.40000
O 	O 	0.07737 0.26649 0.27599 -0.40100
H 	H 	0.09740 0.28160 0.26730 0.25500
O 	O 	0.13068 0.29606 0.03344 -0.48400
O 	O 	0.14210 0.30941 0.94985 -0.43700
O 	O 	0.07332 0.26679 0.81498 -0.39400
H 	H 	0.09760 0.28770 0.85350 0.25800
O 	O 	0.04549 0.48168 0.88099 -0.45400
O 	O 	0.11779 0.42956 0.97279 -0.54300
O 	O 	0.07848 0.40028 0.08472 -0.63600
O 	O 	0.02562 0.46939 0.06598 -0.62100
N 	N 	0.29138 0.75731 0.28840 -0.23100
N 	N 	0.10740 0.53297 0.05314 -0.23800
N 	N 	0.97653 0.39387 0.89519 -0.24200
N 	N 	0.76902 0.19229 0.62547 -0.22400
C 	C 	0.27124 0.42175 0.02680 0.33300
C 	C 	0.31279 0.44567 0.02129 -0.16300
C 	C 	0.36296 0.46821 0.08530 0.01600
H 	H 	0.37100 0.46850 0.13200 0.03600
C 	C 	0.40299 0.49110 0.08160 -0.01500
C 	C 	0.45500 0.51450 0.14770 -0.04100
H 	H 	0.46370 0.51410 0.19490 0.04200
C 	C 	0.49250 0.53780 0.14300 -0.04700
H 	H 	0.52650 0.55350 0.18680 0.04700
C 	C 	0.48040 0.53810 0.07330 -0.01100
H 	H 	0.50670 0.55330 0.07110 0.03400
C 	C 	0.43005 0.51629 0.00740 -0.08400
H 	H 	0.42250 0.51720 0.96100 0.06300
C 	C 	0.38990 0.49262 0.00980 0.04600
C 	C 	0.33609 0.47178 0.94230 -0.04600
C 	C 	0.29959 0.44709 0.94901 0.22000
C 	C 	0.31639 0.48290 0.86450 -0.07500
C 	C 	0.33550 0.45179 0.83310 0.05600
C 	C 	0.37222 0.40509 0.87240 -0.09700
H 	H 	0.38630 0.39590 0.92160 0.07000
C 	C 	0.38700 0.37372 0.83880 -0.00300
H 	H 	0.41100 0.34320 0.86530 0.03600
C 	C 	0.36670 0.38640 0.76550 -0.05800
H 	H 	0.37650 0.36390 0.74290 0.05100
C 	C 	0.33210 0.43217 0.72590 -0.03400
H 	H 	0.31940 0.44090 0.67730 0.04600
C 	C 	0.31594 0.46582 0.75890 -0.03200
C 	C 	0.27918 0.51215 0.71930 0.04200
H 	H 	0.26720 0.52230 0.67160 0.02300
C 	C 	0.26085 0.54240 0.75000 -0.21700
C 	C 	0.27944 0.52654 0.82310 0.25700
C 	C 	0.21987 0.58938 0.70576 0.40000
C 	C 	0.06540 0.26947 0.14070 0.31900
C 	C 	0.02388 0.24124 0.14230 -0.18000
C 	C 	0.97720 0.21595 0.07690 0.02400
H 	H 	0.97160 0.21730 0.03190 0.03200
C 	C 	0.93700 0.18750 0.07620 -0.03300
C 	C 	0.88890 0.15970 0.00950 -0.01900
H 	H 	0.88220 0.16070 0.96370 0.03900
C 	C 	0.85240 0.13130 0.01240 -0.07600
H 	H 	0.82030 0.11380 0.96800 0.07800
C 	C 	0.86270 0.12800 0.08230 0.02000
H 	H 	0.83850 0.10740 0.08440 0.02600
C 	C 	0.90680 0.15430 0.14380 -0.10100
H 	H 	0.91220 0.15310 0.18860 0.07500
C 	C 	0.94690 0.18450 0.14560 0.06700
C 	C 	0.99470 0.21189 0.21290 -0.06300
C 	C 	0.03220 0.23952 0.21100 0.22100
C 	C 	0.11780 0.28491 0.97065 0.39600
C 	C 	0.07394 0.24137 0.91767 -0.19500
C 	C 	0.05172 0.20830 0.94097 0.03400
H 	H 	0.06500 0.21270 0.99070 0.03000
C 	C 	0.00964 0.16812 0.89190 -0.03000
C 	C 	0.98583 0.13419 0.91460 -0.03500
H 	H 	0.99900 0.13770 0.96430 0.04300
C 	C 	0.94400 0.09642 0.86490 -0.05600
H 	H 	0.92860 0.07460 0.88070 0.04900
C 	C 	0.92400 0.09042 0.78970 -0.00500
H 	H 	0.89600 0.06410 0.75630 0.03800
C 	C 	0.94522 0.12264 0.76500 -0.09100
H 	H 	0.93080 0.11860 0.71470 0.07300
C 	C 	0.98873 0.16213 0.81457 0.06100
C 	C 	0.01168 0.19654 0.79057 -0.05900
C 	C 	0.05335 0.23494 0.84107 0.23500
C 	C 	0.09460 0.43330 0.85080 -0.35900
H 	H 	0.07070 0.40100 0.82550 0.13500
H 	H 	0.13370 0.42340 0.87730 0.09500
H 	H 	0.08220 0.46140 0.81290 0.10900
C 	C 	0.12310 0.47200 0.88300 -0.37800
H 	H 	0.14590 0.50450 0.91110 0.13200
H 	H 	0.09620 0.48010 0.82840 0.10700
H 	H 	0.14760 0.44200 0.89310 0.11200
C 	C 	0.09060 0.45540 0.90890 0.50600
C 	C 	0.06200 0.41180 0.17300 -1.45000
H 	H 	0.04130 0.43760 0.17840 0.46800
H 	H 	0.10180 0.41250 0.21890 0.46500
H 	H 	0.04700 0.37500 0.16550 0.46500
C 	C 	0.05530 0.42764 0.10470 0.79600
C 	C 	0.11040 0.57730 0.02240 0.09300
H 	H 	0.08820 0.57810 0.96890 -0.01700
C 	C 	0.14480 0.62280 0.06510 -0.15200
H 	H 	0.14450 0.65340 0.04020 0.08200
C 	C 	0.17950 0.62286 0.14470 0.07200
C 	C 	0.17658 0.57609 0.17640 -0.15500
H 	H 	0.19890 0.57360 0.22980 0.10000
C 	C 	0.14059 0.53296 0.12920 0.09800
H 	H 	0.13970 0.50190 0.15250 -0.01600
C 	C 	0.21767 0.66975 0.19340 0.06100
C 	C 	0.22360 0.71580 0.16330 -0.13500
H 	H 	0.20290 0.71820 0.11030 0.07800
C 	C 	0.26010 0.75799 0.21170 0.08200
H 	H 	0.26330 0.78860 0.19010 0.00000
C 	C 	0.24990 0.66941 0.27260 -0.14300
H 	H 	0.24730 0.63950 0.29580 0.09800
C 	C 	0.28591 0.71324 0.31730 0.09100
H 	H 	0.30750 0.71170 0.37050 -0.00400
C 	C 	0.93540 0.40489 0.82120 0.10300
H 	H 	0.93290 0.44090 0.80440 -0.02300
C 	C 	0.89560 0.36652 0.76680 -0.15700
H 	H 	0.86840 0.37690 0.71500 0.08500
C 	C 	0.89573 0.31344 0.78789 0.08800
C 	C 	0.93720 0.30278 0.86520 -0.15200
H 	H 	0.93940 0.26770 0.88390 0.08900
C 	C 	0.97609 0.34328 0.91610 0.10100
H 	H 	0.00360 0.33410 0.96840 -0.01200
C 	C 	0.85234 0.27140 0.73121 0.05600
C 	C 	0.85155 0.21864 0.75490 -0.11900
H 	H 	0.87890 0.20870 0.80690 0.07500
C 	C 	0.81020 0.18095 0.70130 0.07200
H 	H 	0.81080 0.14570 0.71860 -0.00100
C 	C 	0.81070 0.28256 0.65200 -0.12600
H 	H 	0.81000 0.31690 0.63270 0.08400
C 	C 	0.77089 0.24288 0.60278 0.08100
H 	H 	0.74340 0.25150 0.55030 0.00100
Cd	Cd	0.54419 0.96114 0.97872 1.23300
Cd	Cd	0.69899 0.87499 0.04125 1.23700
Cd	Cd	0.63906 0.82418 0.13540 1.24200
O 	O 	0.77703 0.93112 0.08539 -0.38600
O 	O 	0.73007 0.89243 0.97115 -0.40300
O 	O 	0.74888 0.92591 0.88400 -0.39900
H 	H 	0.73410 0.90920 0.89970 0.25200
O 	O 	0.76072 0.05421 0.85414 -0.44000
H 	H 	0.73870 0.07900 0.82450 0.28500
O 	O 	0.70275 0.11450 0.73584 -0.43300
O 	O 	0.70151 0.10366 0.64036 -0.50800
O 	O 	0.55767 0.77055 0.07987 -0.38100
O 	O 	0.60957 0.79177 0.20325 -0.40000
O 	O 	0.57737 0.76649 0.27599 -0.40100
H 	H 	0.59740 0.78160 0.26730 0.25500
O 	O 	0.63068 0.79606 0.03344 -0.48600
O 	O 	0.64210 0.80941 0.94985 -0.43700
O 	O 	0.57332 0.76679 0.81498 -0.39300
H 	H 	0.59760 0.78770 0.85350 0.25800
O 	O 	0.54549 0.98168 0.88099 -0.45400
O 	O 	0.61779 0.92956 0.97279 -0.54200
O 	O 	0.57848 0.90028 0.08472 -0.63600
O 	O 	0.52562 0.96939 0.06598 -0.62200
N 	N 	0.79138 0.25731 0.28840 -0.23100
N 	N 	0.60740 0.03297 0.05314 -0.23800
N 	N 	0.47653 0.89387 0.89519 -0.24100
N 	N 	0.26902 0.69229 0.62547 -0.22400
C 	C 	0.77124 0.92175 0.02680 0.33100
C 	C 	0.81279 0.94567 0.02129 -0.16500
C 	C 	0.86296 0.96821 0.08530 0.01600
H 	H 	0.87100 0.96850 0.13200 0.03500
C 	C 	0.90299 0.99110 0.08160 -0.01600
C 	C 	0.95500 0.01450 0.14770 -0.04000
H 	H 	0.96370 0.01410 0.19490 0.04200
C 	C 	0.99250 0.03780 0.14300 -0.04900
H 	H 	0.02650 0.05350 0.18680 0.04800
C 	C 	0.98040 0.03810 0.07330 -0.01300
H 	H 	0.00670 0.05330 0.07110 0.03600
C 	C 	0.93005 0.01629 0.00740 -0.08400
H 	H 	0.92250 0.01720 0.96100 0.06400
C 	C 	0.88990 0.99262 0.00980 0.04400
C 	C 	0.83609 0.97178 0.94230 -0.04500
C 	C 	0.79959 0.94709 0.94901 0.22100
C 	C 	0.81639 0.98290 0.86450 -0.07500
C 	C 	0.83550 0.95179 0.83310 0.05600
C 	C 	0.87222 0.90509 0.87240 -0.09700
H 	H 	0.88630 0.89590 0.92160 0.07100
C 	C 	0.88700 0.87372 0.83880 -0.00300
H 	H 	0.91100 0.84320 0.86530 0.03600
C 	C 	0.86670 0.88640 0.76550 -0.05800
H 	H 	0.87650 0.86390 0.74290 0.05200
C 	C 	0.83210 0.93217 0.72590 -0.03400
H 	H 	0.81940 0.94090 0.67730 0.04600
C 	C 	0.81594 0.96582 0.75890 -0.03100
C 	C 	0.77918 0.01215 0.71930 0.04200
H 	H 	0.76720 0.02230 0.67160 0.02300
C 	C 	0.76085 0.04240 0.75000 -0.21600
C 	C 	0.77944 0.02654 0.82310 0.25600
C 	C 	0.71987 0.08938 0.70576 0.40000
C 	C 	0.56540 0.76947 0.14070 0.32000
C 	C 	0.52388 0.74124 0.14230 -0.18100
C 	C 	0.47720 0.71595 0.07690 0.02600
H 	H 	0.47160 0.71730 0.03190 0.03200
C 	C 	0.43700 0.68750 0.07620 -0.03400
C 	C 	0.38890 0.65970 0.00950 -0.01800
H 	H 	0.38220 0.66070 0.96370 0.03800
C 	C 	0.35240 0.63130 0.01240 -0.07500
H 	H 	0.32030 0.61380 0.96800 0.07600
C 	C 	0.36270 0.62800 0.08230 0.01900
H 	H 	0.33850 0.60740 0.08440 0.02600
C 	C 	0.40680 0.65430 0.14380 -0.10100
H 	H 	0.41220 0.65310 0.18860 0.07500
C 	C 	0.44690 0.68450 0.14560 0.06600
C 	C 	0.49470 0.71189 0.21290 -0.06100
C 	C 	0.53220 0.73952 0.21100 0.22000
C 	C 	0.61780 0.78491 0.97065 0.39800
C 	C 	0.57394 0.74137 0.91767 -0.19300
C 	C 	0.55172 0.70830 0.94097 0.03000
H 	H 	0.56500 0.71270 0.99070 0.03300
C 	C 	0.50964 0.66812 0.89190 -0.02200
C 	C 	0.48583 0.63419 0.91460 -0.04300
H 	H 	0.49900 0.63770 0.96430 0.04500
C 	C 	0.44400 0.59642 0.86490 -0.05100
H 	H 	0.42860 0.57460 0.88070 0.04600
C 	C 	0.42400 0.59042 0.78970 -0.01100
H 	H 	0.39600 0.56410 0.75630 0.04000
C 	C 	0.44522 0.62264 0.76500 -0.08500
H 	H 	0.43080 0.61860 0.71470 0.07100
C 	C 	0.48873 0.66213 0.81457 0.05400
C 	C 	0.51168 0.69654 0.79057 -0.05300
C 	C 	0.55335 0.73494 0.84107 0.23300
C 	C 	0.59460 0.93330 0.85080 -0.35900
H 	H 	0.57070 0.90100 0.82550 0.13600
H 	H 	0.63370 0.92340 0.87730 0.09500
H 	H 	0.58220 0.96140 0.81290 0.10900
C 	C 	0.62310 0.97200 0.88300 -0.37800
H 	H 	0.64590 0.00450 0.91110 0.13200
H 	H 	0.59620 0.98010 0.82840 0.10700
H 	H 	0.64760 0.94200 0.89310 0.11200
C 	C 	0.59060 0.95540 0.90890 0.50600
C 	C 	0.56200 0.91180 0.17300 -1.44900
H 	H 	0.54130 0.93760 0.17840 0.46800
H 	H 	0.60180 0.91250 0.21890 0.46500
H 	H 	0.54700 0.87500 0.16550 0.46400
C 	C 	0.55530 0.92764 0.10470 0.79600
C 	C 	0.61040 0.07730 0.02240 0.09000
H 	H 	0.58820 0.07810 0.96890 -0.01500
C 	C 	0.64480 0.12280 0.06510 -0.15000
H 	H 	0.64450 0.15340 0.04020 0.08100
C 	C 	0.67950 0.12286 0.14470 0.07100
C 	C 	0.67658 0.07609 0.17640 -0.15400
H 	H 	0.69890 0.07360 0.22980 0.10000
C 	C 	0.64059 0.03296 0.12920 0.09800
H 	H 	0.63970 0.00190 0.15250 -0.01600
C 	C 	0.71767 0.16975 0.19340 0.06100
C 	C 	0.72360 0.21580 0.16330 -0.13600
H 	H 	0.70290 0.21820 0.11030 0.07800
C 	C 	0.76010 0.25799 0.21170 0.08200
H 	H 	0.76330 0.28860 0.19010 0.00000
C 	C 	0.74990 0.16941 0.27260 -0.14300
H 	H 	0.74730 0.13950 0.29580 0.09800
C 	C 	0.78591 0.21324 0.31730 0.09100
H 	H 	0.80750 0.21170 0.37050 -0.00500
C 	C 	0.43540 0.90489 0.82120 0.10200
H 	H 	0.43290 0.94090 0.80440 -0.02300
C 	C 	0.39560 0.86652 0.76680 -0.15600
H 	H 	0.36840 0.87690 0.71500 0.08500
C 	C 	0.39573 0.81344 0.78789 0.08700
C 	C 	0.43720 0.80278 0.86520 -0.14900
H 	H 	0.43940 0.76770 0.88390 0.08800
C 	C 	0.47609 0.84328 0.91610 0.09600
H 	H 	0.50360 0.83410 0.96840 -0.00900
C 	C 	0.35234 0.77140 0.73121 0.05700
C 	C 	0.35155 0.71864 0.75490 -0.11900
H 	H 	0.37890 0.70870 0.80690 0.07500
C 	C 	0.31020 0.68095 0.70130 0.07200
H 	H 	0.31080 0.64570 0.71860 -0.00100
C 	C 	0.31070 0.78256 0.65200 -0.12600
H 	H 	0.31000 0.81690 0.63270 0.08400
C 	C 	0.27089 0.74288 0.60278 0.08200
H 	H 	0.24340 0.75150 0.55030 0.00100
Cd	Cd	0.95581 0.46114 0.52128 1.23300
Cd	Cd	0.80101 0.37499 0.45875 1.23700
Cd	Cd	0.86094 0.32418 0.36460 1.24200
O 	O 	0.72297 0.43112 0.41461 -0.38600
O 	O 	0.76993 0.39243 0.52885 -0.40400
O 	O 	0.75112 0.42591 0.61600 -0.39900
H 	H 	0.76590 0.40920 0.60030 0.25100
O 	O 	0.73928 0.55421 0.64586 -0.44000
H 	H 	0.76130 0.57900 0.67550 0.28500
O 	O 	0.79725 0.61450 0.76416 -0.43300
O 	O 	0.79849 0.60366 0.85964 -0.50800
O 	O 	0.94233 0.27055 0.42013 -0.38100
O 	O 	0.89043 0.29177 0.29675 -0.40000
O 	O 	0.92263 0.26649 0.22401 -0.40100
H 	H 	0.90260 0.28160 0.23270 0.25400
O 	O 	0.86932 0.29606 0.46656 -0.48500
O 	O 	0.85790 0.30941 0.55015 -0.43700
O 	O 	0.92668 0.26679 0.68502 -0.39200
H 	H 	0.90240 0.28770 0.64650 0.25800
O 	O 	0.95451 0.48168 0.61901 -0.45400
O 	O 	0.88221 0.42956 0.52721 -0.54200
O 	O 	0.92152 0.40028 0.41528 -0.63600
O 	O 	0.97438 0.46939 0.43402 -0.62200
N 	N 	0.70862 0.75731 0.21160 -0.23100
N 	N 	0.89260 0.53297 0.44686 -0.23700
N 	N 	0.02347 0.39387 0.60481 -0.24100
N 	N 	0.23098 0.19229 0.87453 -0.22400
C 	C 	0.72876 0.42175 0.47320 0.33200
C 	C 	0.68721 0.44567 0.47871 -0.16400
C 	C 	0.63704 0.46821 0.41470 0.01600
H 	H 	0.62900 0.46850 0.36800 0.03600
C 	C 	0.59701 0.49110 0.41840 -0.01500
C 	C 	0.54500 0.51450 0.35230 -0.04100
H 	H 	0.53630 0.51410 0.30510 0.04200
C 	C 	0.50750 0.53780 0.35700 -0.04800
H 	H 	0.47350 0.55350 0.31320 0.04700
C 	C 	0.51960 0.53810 0.42670 -0.01100
H 	H 	0.49330 0.55330 0.42890 0.03400
C 	C 	0.56995 0.51629 0.49260 -0.08500
H 	H 	0.57750 0.51720 0.53900 0.06300
C 	C 	0.61010 0.49262 0.49020 0.04600
C 	C 	0.66391 0.47178 0.55770 -0.04600
C 	C 	0.70041 0.44709 0.55099 0.22000
C 	C 	0.68361 0.48290 0.63550 -0.07500
C 	C 	0.66450 0.45179 0.66690 0.05600
C 	C 	0.62778 0.40509 0.62760 -0.09700
H 	H 	0.61370 0.39590 0.57840 0.07000
C 	C 	0.61300 0.37372 0.66120 -0.00300
H 	H 	0.58900 0.34320 0.63470 0.03600
C 	C 	0.63330 0.38640 0.73450 -0.05800
H 	H 	0.62350 0.36390 0.75710 0.05200
C 	C 	0.66790 0.43217 0.77410 -0.03400
H 	H 	0.68060 0.44090 0.82270 0.04600
C 	C 	0.68406 0.46582 0.74110 -0.03100
C 	C 	0.72082 0.51215 0.78070 0.04200
H 	H 	0.73280 0.52230 0.82840 0.02300
C 	C 	0.73915 0.54240 0.75000 -0.21600
C 	C 	0.72056 0.52654 0.67690 0.25700
C 	C 	0.78013 0.58938 0.79424 0.40000
C 	C 	0.93460 0.26947 0.35930 0.32000
C 	C 	0.97612 0.24124 0.35770 -0.18100
C 	C 	0.02280 0.21595 0.42310 0.02600
H 	H 	0.02840 0.21730 0.46810 0.03200
C 	C 	0.06300 0.18750 0.42380 -0.03400
C 	C 	0.11110 0.15970 0.49050 -0.01800
H 	H 	0.11780 0.16070 0.53630 0.03800
C 	C 	0.14760 0.13130 0.48760 -0.07500
H 	H 	0.17970 0.11380 0.53200 0.07700
C 	C 	0.13730 0.12800 0.41770 0.01900
H 	H 	0.16150 0.10740 0.41560 0.02600
C 	C 	0.09320 0.15430 0.35620 -0.10000
H 	H 	0.08780 0.15310 0.31140 0.07500
C 	C 	0.05310 0.18450 0.35440 0.06600
C 	C 	0.00530 0.21189 0.28710 -0.05900
C 	C 	0.96780 0.23952 0.28900 0.21900
C 	C 	0.88220 0.28491 0.52935 0.39700
C 	C 	0.92606 0.24137 0.58233 -0.19100
C 	C 	0.94828 0.20830 0.55903 0.02800
H 	H 	0.93500 0.21270 0.50930 0.03300
C 	C 	0.99036 0.16812 0.60810 -0.01900
C 	C 	0.01417 0.13419 0.58540 -0.04600
H 	H 	0.00100 0.13770 0.53570 0.04600
C 	C 	0.05600 0.09642 0.63510 -0.04800
H 	H 	0.07140 0.07460 0.61930 0.04500
C 	C 	0.07600 0.09042 0.71030 -0.01400
H 	H 	0.10400 0.06410 0.74370 0.04100
C 	C 	0.05478 0.12264 0.73500 -0.08200
H 	H 	0.06920 0.11860 0.78530 0.07000
C 	C 	0.01127 0.16213 0.68543 0.05000
C 	C 	0.98832 0.19654 0.70943 -0.04900
C 	C 	0.94665 0.23494 0.65893 0.23100
C 	C 	0.90540 0.43330 0.64920 -0.35900
H 	H 	0.92930 0.40100 0.67450 0.13600
H 	H 	0.86630 0.42340 0.62270 0.09500
H 	H 	0.91780 0.46140 0.68710 0.11000
C 	C 	0.87690 0.47200 0.61700 -0.37800
H 	H 	0.85410 0.50450 0.58890 0.13200
H 	H 	0.90380 0.48010 0.67160 0.10700
H 	H 	0.85240 0.44200 0.60690 0.11200
C 	C 	0.90940 0.45540 0.59110 0.50600
C 	C 	0.93800 0.41180 0.32700 -1.44900
H 	H 	0.95870 0.43760 0.32160 0.46800
H 	H 	0.89820 0.41250 0.28110 0.46500
H 	H 	0.95300 0.37500 0.33450 0.46400
C 	C 	0.94470 0.42764 0.39530 0.79600
C 	C 	0.88960 0.57730 0.47760 0.08900
H 	H 	0.91180 0.57810 0.53110 -0.01400
C 	C 	0.85520 0.62280 0.43490 -0.15000
H 	H 	0.85550 0.65340 0.45980 0.08100
C 	C 	0.82050 0.62286 0.35530 0.07100
C 	C 	0.82342 0.57609 0.32360 -0.15400
H 	H 	0.80110 0.57360 0.27020 0.10000
C 	C 	0.85941 0.53296 0.37080 0.09800
H 	H 	0.86030 0.50190 0.34750 -0.01600
C 	C 	0.78233 0.66975 0.30660 0.06100
C 	C 	0.77640 0.71580 0.33670 -0.13600
H 	H 	0.79710 0.71820 0.38970 0.07800
C 	C 	0.73990 0.75799 0.28830 0.08200
H 	H 	0.73670 0.78860 0.30990 0.00000
C 	C 	0.75010 0.66941 0.22740 -0.14300
H 	H 	0.75270 0.63950 0.20420 0.09800
C 	C 	0.71409 0.71324 0.18270 0.09100
H 	H 	0.69250 0.71170 0.12950 -0.00500
C 	C 	0.06460 0.40489 0.67880 0.10200
H 	H 	0.06710 0.44090 0.69560 -0.02300
C 	C 	0.10440 0.36652 0.73320 -0.15600
H 	H 	0.13160 0.37690 0.78500 0.08500
C 	C 	0.10427 0.31344 0.71211 0.08700
C 	C 	0.06280 0.30278 0.63480 -0.14900
H 	H 	0.06060 0.26770 0.61610 0.08800
C 	C 	0.02391 0.34328 0.58390 0.09600
H 	H 	0.99640 0.33410 0.53160 -0.00900
C 	C 	0.14766 0.27140 0.76879 0.05700
C 	C 	0.14845 0.21864 0.74510 -0.11900
H 	H 	0.12110 0.20870 0.69310 0.07500
C 	C 	0.18980 0.18095 0.79870 0.07200
H 	H 	0.18920 0.14570 0.78140 -0.00100
C 	C 	0.18930 0.28256 0.84800 -0.12600
H 	H 	0.19000 0.31690 0.86730 0.08400
C 	C 	0.22911 0.24288 0.89722 0.08200
H 	H 	0.25660 0.25150 0.94970 0.00100
Cd	Cd	0.45581 0.96114 0.52128 1.23300
Cd	Cd	0.30101 0.87499 0.45875 1.23700
Cd	Cd	0.36094 0.82418 0.36460 1.24200
O 	O 	0.22297 0.93112 0.41461 -0.38600
O 	O 	0.26993 0.89243 0.52885 -0.40400
O 	O 	0.25112 0.92591 0.61600 -0.39900
H 	H 	0.26590 0.90920 0.60030 0.25100
O 	O 	0.23928 0.05421 0.64586 -0.44000
H 	H 	0.26130 0.07900 0.67550 0.28500
O 	O 	0.29725 0.11450 0.76416 -0.43300
O 	O 	0.29849 0.10366 0.85964 -0.50800
O 	O 	0.44233 0.77055 0.42013 -0.38100
O 	O 	0.39043 0.79177 0.29675 -0.40000
O 	O 	0.42263 0.76649 0.22401 -0.40100
H 	H 	0.40260 0.78160 0.23270 0.25500
O 	O 	0.36932 0.79606 0.46656 -0.48500
O 	O 	0.35790 0.80941 0.55015 -0.43700
O 	O 	0.42668 0.76679 0.68502 -0.39300
H 	H 	0.40240 0.78770 0.64650 0.25800
O 	O 	0.45451 0.98168 0.61901 -0.45400
O 	O 	0.38221 0.92956 0.52721 -0.54200
O 	O 	0.42152 0.90028 0.41528 -0.63600
O 	O 	0.47438 0.96939 0.43402 -0.62200
N 	N 	0.20862 0.25731 0.21160 -0.23100
N 	N 	0.39260 0.03297 0.44686 -0.23800
N 	N 	0.52347 0.89387 0.60481 -0.24100
N 	N 	0.73098 0.69229 0.87453 -0.22400
C 	C 	0.22876 0.92175 0.47320 0.33200
C 	C 	0.18721 0.94567 0.47871 -0.16400
C 	C 	0.13704 0.96821 0.41470 0.01600
H 	H 	0.12900 0.96850 0.36800 0.03600
C 	C 	0.09701 0.99110 0.41840 -0.01500
C 	C 	0.04500 0.01450 0.35230 -0.04200
H 	H 	0.03630 0.01410 0.30510 0.04300
C 	C 	0.00750 0.03780 0.35700 -0.04500
H 	H 	0.97350 0.05350 0.31320 0.04600
C 	C 	0.01960 0.03810 0.42670 -0.01200
H 	H 	0.99330 0.05330 0.42890 0.03500
C 	C 	0.06995 0.01629 0.49260 -0.08400
H 	H 	0.07750 0.01720 0.53900 0.06300
C 	C 	0.11010 0.99262 0.49020 0.04600
C 	C 	0.16391 0.97178 0.55770 -0.04600
C 	C 	0.20041 0.94709 0.55099 0.22000
C 	C 	0.18361 0.98290 0.63550 -0.07500
C 	C 	0.16450 0.95179 0.66690 0.05600
C 	C 	0.12778 0.90509 0.62760 -0.09700
H 	H 	0.11370 0.89590 0.57840 0.07000
C 	C 	0.11300 0.87372 0.66120 -0.00300
H 	H 	0.08900 0.84320 0.63470 0.03600
C 	C 	0.13330 0.88640 0.73450 -0.05800
H 	H 	0.12350 0.86390 0.75710 0.05100
C 	C 	0.16790 0.93217 0.77410 -0.03400
H 	H 	0.18060 0.94090 0.82270 0.04600
C 	C 	0.18406 0.96582 0.74110 -0.03100
C 	C 	0.22082 0.01215 0.78070 0.04200
H 	H 	0.23280 0.02230 0.82840 0.02300
C 	C 	0.23915 0.04240 0.75000 -0.21600
C 	C 	0.22056 0.02654 0.67690 0.25600
C 	C 	0.28013 0.08938 0.79424 0.40000
C 	C 	0.43460 0.76947 0.35930 0.32000
C 	C 	0.47612 0.74124 0.35770 -0.18100
C 	C 	0.52280 0.71595 0.42310 0.02600
H 	H 	0.52840 0.71730 0.46810 0.03200
C 	C 	0.56300 0.68750 0.42380 -0.03400
C 	C 	0.61110 0.65970 0.49050 -0.01700
H 	H 	0.61780 0.66070 0.53630 0.03800
C 	C 	0.64760 0.63130 0.48760 -0.07600
H 	H 	0.67970 0.61380 0.53200 0.07700
C 	C 	0.63730 0.62800 0.41770 0.02000
H 	H 	0.66150 0.60740 0.41560 0.02600
C 	C 	0.59320 0.65430 0.35620 -0.10100
H 	H 	0.58780 0.65310 0.31140 0.07500
C 	C 	0.55310 0.68450 0.35440 0.06700
C 	C 	0.50530 0.71189 0.28710 -0.06200
C 	C 	0.46780 0.73952 0.28900 0.22000
C 	C 	0.38220 0.78491 0.52935 0.39700
C 	C 	0.42606 0.74137 0.58233 -0.19300
C 	C 	0.44828 0.70830 0.55903 0.03000
H 	H 	0.43500 0.71270 0.50930 0.03200
C 	C 	0.49036 0.66812 0.60810 -0.02300
C 	C 	0.51417 0.63419 0.58540 -0.04300
H 	H 	0.50100 0.63770 0.53570 0.04400
C 	C 	0.55600 0.59642 0.63510 -0.05100
H 	H 	0.57140 0.57460 0.61930 0.04600
C 	C 	0.57600 0.59042 0.71030 -0.01100
H 	H 	0.60400 0.56410 0.74370 0.04000
C 	C 	0.55478 0.62264 0.73500 -0.08500
H 	H 	0.56920 0.61860 0.78530 0.07100
C 	C 	0.51127 0.66213 0.68543 0.05400
C 	C 	0.48832 0.69654 0.70943 -0.05300
C 	C 	0.44665 0.73494 0.65893 0.23200
C 	C 	0.40540 0.93330 0.64920 -0.35900
H 	H 	0.42930 0.90100 0.67450 0.13600
H 	H 	0.36630 0.92340 0.62270 0.09500
H 	H 	0.41780 0.96140 0.68710 0.10900
C 	C 	0.37690 0.97200 0.61700 -0.37800
H 	H 	0.35410 0.00450 0.58890 0.13200
H 	H 	0.40380 0.98010 0.67160 0.10700
H 	H 	0.35240 0.94200 0.60690 0.11200
C 	C 	0.40940 0.95540 0.59110 0.50600
C 	C 	0.43800 0.91180 0.32700 -1.44900
H 	H 	0.45870 0.93760 0.32160 0.46800
H 	H 	0.39820 0.91250 0.28110 0.46500
H 	H 	0.45300 0.87500 0.33450 0.46400
C 	C 	0.44470 0.92764 0.39530 0.79600
C 	C 	0.38960 0.07730 0.47760 0.08900
H 	H 	0.41180 0.07810 0.53110 -0.01500
C 	C 	0.35520 0.12280 0.43490 -0.15000
H 	H 	0.35550 0.15340 0.45980 0.08100
C 	C 	0.32050 0.12286 0.35530 0.07100
C 	C 	0.32342 0.07609 0.32360 -0.15400
H 	H 	0.30110 0.07360 0.27020 0.10000
C 	C 	0.35941 0.03296 0.37080 0.09800
H 	H 	0.36030 0.00190 0.34750 -0.01600
C 	C 	0.28233 0.16975 0.30660 0.06100
C 	C 	0.27640 0.21580 0.33670 -0.13600
H 	H 	0.29710 0.21820 0.38970 0.07800
C 	C 	0.23990 0.25799 0.28830 0.08200
H 	H 	0.23670 0.28860 0.30990 0.00000
C 	C 	0.25010 0.16941 0.22740 -0.14300
H 	H 	0.25270 0.13950 0.20420 0.09800
C 	C 	0.21409 0.21324 0.18270 0.09100
H 	H 	0.19250 0.21170 0.12950 -0.00400
C 	C 	0.56460 0.90489 0.67880 0.10200
H 	H 	0.56710 0.94090 0.69560 -0.02300
C 	C 	0.60440 0.86652 0.73320 -0.15600
H 	H 	0.63160 0.87690 0.78500 0.08500
C 	C 	0.60427 0.81344 0.71211 0.08700
C 	C 	0.56280 0.80278 0.63480 -0.14900
H 	H 	0.56060 0.76770 0.61610 0.08800
C 	C 	0.52391 0.84328 0.58390 0.09600
H 	H 	0.49640 0.83410 0.53160 -0.00900
C 	C 	0.64766 0.77140 0.76879 0.05700
C 	C 	0.64845 0.71864 0.74510 -0.11900
H 	H 	0.62110 0.70870 0.69310 0.07500
C 	C 	0.68980 0.68095 0.79870 0.07200
H 	H 	0.68920 0.64570 0.78140 -0.00100
C 	C 	0.68930 0.78256 0.84800 -0.12600
H 	H 	0.69000 0.81690 0.86730 0.08400
C 	C 	0.72911 0.74288 0.89722 0.08200
H 	H 	0.75660 0.75150 0.94970 0.00100
Cd	Cd	0.95581 0.53886 0.02128 1.23200
Cd	Cd	0.80101 0.62501 0.95875 1.23800
Cd	Cd	0.86094 0.67582 0.86460 1.24200
O 	O 	0.72297 0.56888 0.91461 -0.38600
O 	O 	0.76993 0.60757 0.02885 -0.40500
O 	O 	0.75112 0.57409 0.11600 -0.39800
H 	H 	0.76590 0.59080 0.10030 0.25100
O 	O 	0.73928 0.44579 0.14586 -0.44000
H 	H 	0.76130 0.42100 0.17550 0.28500
O 	O 	0.79725 0.38550 0.26416 -0.43300
O 	O 	0.79849 0.39634 0.35964 -0.50800
O 	O 	0.94233 0.72945 0.92013 -0.38000
O 	O 	0.89043 0.70823 0.79675 -0.40000
O 	O 	0.92263 0.73351 0.72401 -0.40100
H 	H 	0.90260 0.71840 0.73270 0.25500
O 	O 	0.86932 0.70394 0.96656 -0.48400
O 	O 	0.85790 0.69059 0.05015 -0.43700
O 	O 	0.92668 0.73321 0.18502 -0.39400
H 	H 	0.90240 0.71230 0.14650 0.25800
O 	O 	0.95451 0.51832 0.11901 -0.45400
O 	O 	0.88221 0.57044 0.02721 -0.54300
O 	O 	0.92152 0.59972 0.91528 -0.63600
O 	O 	0.97438 0.53061 0.93402 -0.62100
N 	N 	0.70862 0.24269 0.71160 -0.23100
N 	N 	0.89260 0.46703 0.94686 -0.23800
N 	N 	0.02347 0.60613 0.10481 -0.24200
N 	N 	0.23098 0.80771 0.37453 -0.22400
C 	C 	0.72876 0.57825 0.97320 0.33300
C 	C 	0.68721 0.55433 0.97871 -0.16300
C 	C 	0.63704 0.53179 0.91470 0.01600
H 	H 	0.62900 0.53150 0.86800 0.03600
C 	C 	0.59701 0.50890 0.91840 -0.01500
C 	C 	0.54500 0.48550 0.85230 -0.04100
H 	H 	0.53630 0.48590 0.80510 0.04200
C 	C 	0.50750 0.46220 0.85700 -0.04700
H 	H 	0.47350 0.44650 0.81320 0.04700
C 	C 	0.51960 0.46190 0.92670 -0.01100
H 	H 	0.49330 0.44670 0.92890 0.03400
C 	C 	0.56995 0.48371 0.99260 -0.08400
H 	H 	0.57750 0.48280 0.03900 0.06300
C 	C 	0.61010 0.50738 0.99020 0.04600
C 	C 	0.66391 0.52822 0.05770 -0.04600
C 	C 	0.70041 0.55291 0.05099 0.22000
C 	C 	0.68361 0.51710 0.13550 -0.07500
C 	C 	0.66450 0.54821 0.16690 0.05600
C 	C 	0.62778 0.59491 0.12760 -0.09700
H 	H 	0.61370 0.60410 0.07840 0.07000
C 	C 	0.61300 0.62628 0.16120 -0.00300
H 	H 	0.58900 0.65680 0.13470 0.03600
C 	C 	0.63330 0.61360 0.23450 -0.05800
H 	H 	0.62350 0.63610 0.25710 0.05100
C 	C 	0.66790 0.56783 0.27410 -0.03400
H 	H 	0.68060 0.55910 0.32270 0.04600
C 	C 	0.68406 0.53418 0.24110 -0.03200
C 	C 	0.72082 0.48785 0.28070 0.04200
H 	H 	0.73280 0.47770 0.32840 0.02300
C 	C 	0.73915 0.45760 0.25000 -0.21700
C 	C 	0.72056 0.47346 0.17690 0.25700
C 	C 	0.78013 0.41062 0.29424 0.40000
C 	C 	0.93460 0.73053 0.85930 0.31900
C 	C 	0.97612 0.75876 0.85770 -0.18000
C 	C 	0.02280 0.78405 0.92310 0.02400
H 	H 	0.02840 0.78270 0.96810 0.03200
C 	C 	0.06300 0.81250 0.92380 -0.03300
C 	C 	0.11110 0.84030 0.99050 -0.01900
H 	H 	0.11780 0.83930 0.03630 0.03900
C 	C 	0.14760 0.86870 0.98760 -0.07600
H 	H 	0.17970 0.88620 0.03200 0.07800
C 	C 	0.13730 0.87200 0.91770 0.02000
H 	H 	0.16150 0.89260 0.91560 0.02600
C 	C 	0.09320 0.84570 0.85620 -0.10100
H 	H 	0.08780 0.84690 0.81140 0.07500
C 	C 	0.05310 0.81550 0.85440 0.06700
C 	C 	0.00530 0.78811 0.78710 -0.06300
C 	C 	0.96780 0.76048 0.78900 0.22100
C 	C 	0.88220 0.71509 0.02935 0.39600
C 	C 	0.92606 0.75863 0.08233 -0.19500
C 	C 	0.94828 0.79170 0.05903 0.03400
H 	H 	0.93500 0.78730 0.00930 0.03000
C 	C 	0.99036 0.83188 0.10810 -0.03000
C 	C 	0.01417 0.86581 0.08540 -0.03500
H 	H 	0.00100 0.86230 0.03570 0.04300
C 	C 	0.05600 0.90358 0.13510 -0.05600
H 	H 	0.07140 0.92540 0.11930 0.04900
C 	C 	0.07600 0.90958 0.21030 -0.00500
H 	H 	0.10400 0.93590 0.24370 0.03800
C 	C 	0.05478 0.87736 0.23500 -0.09100
H 	H 	0.06920 0.88140 0.28530 0.07300
C 	C 	0.01127 0.83787 0.18543 0.06100
C 	C 	0.98832 0.80346 0.20943 -0.05900
C 	C 	0.94665 0.76506 0.15893 0.23500
C 	C 	0.90540 0.56670 0.14920 -0.35900
H 	H 	0.92930 0.59900 0.17450 0.13500
H 	H 	0.86630 0.57660 0.12270 0.09500
H 	H 	0.91780 0.53860 0.18710 0.10900
C 	C 	0.87690 0.52800 0.11700 -0.37800
H 	H 	0.85410 0.49550 0.08890 0.13200
H 	H 	0.90380 0.51990 0.17160 0.10700
H 	H 	0.85240 0.55800 0.10690 0.11200
C 	C 	0.90940 0.54460 0.09110 0.50600
C 	C 	0.93800 0.58820 0.82700 -1.45000
H 	H 	0.95870 0.56240 0.82160 0.46800
H 	H 	0.89820 0.58750 0.78110 0.46500
H 	H 	0.95300 0.62500 0.83450 0.46500
C 	C 	0.94470 0.57236 0.89530 0.79600
C 	C 	0.88960 0.42270 0.97760 0.09300
H 	H 	0.91180 0.42190 0.03110 -0.01700
C 	C 	0.85520 0.37720 0.93490 -0.15200
H 	H 	0.85550 0.34660 0.95980 0.08200
C 	C 	0.82050 0.37714 0.85530 0.07200
C 	C 	0.82342 0.42391 0.82360 -0.15500
H 	H 	0.80110 0.42640 0.77020 0.10000
C 	C 	0.85941 0.46704 0.87080 0.09800
H 	H 	0.86030 0.49810 0.84750 -0.01600
C 	C 	0.78233 0.33025 0.80660 0.06100
C 	C 	0.77640 0.28420 0.83670 -0.13500
H 	H 	0.79710 0.28180 0.88970 0.07800
C 	C 	0.73990 0.24201 0.78830 0.08200
H 	H 	0.73670 0.21140 0.80990 0.00000
C 	C 	0.75010 0.33059 0.72740 -0.14300
H 	H 	0.75270 0.36050 0.70420 0.09800
C 	C 	0.71409 0.28676 0.68270 0.09100
H 	H 	0.69250 0.28830 0.62950 -0.00400
C 	C 	0.06460 0.59511 0.17880 0.10300
H 	H 	0.06710 0.55910 0.19560 -0.02300
C 	C 	0.10440 0.63348 0.23320 -0.15700
H 	H 	0.13160 0.62310 0.28500 0.08500
C 	C 	0.10427 0.68656 0.21211 0.08800
C 	C 	0.06280 0.69722 0.13480 -0.15200
H 	H 	0.06060 0.73230 0.11610 0.08900
C 	C 	0.02391 0.65672 0.08390 0.10100
H 	H 	0.99640 0.66590 0.03160 -0.01200
C 	C 	0.14766 0.72860 0.26879 0.05600
C 	C 	0.14845 0.78136 0.24510 -0.11900
H 	H 	0.12110 0.79130 0.19310 0.07500
C 	C 	0.18980 0.81905 0.29870 0.07200
H 	H 	0.18920 0.85430 0.28140 -0.00100
C 	C 	0.18930 0.71744 0.34800 -0.12600
H 	H 	0.19000 0.68310 0.36730 0.08400
C 	C 	0.22911 0.75712 0.39722 0.08100
H 	H 	0.25660 0.74850 0.44970 0.00100
Cd	Cd	0.45581 0.03886 0.02128 1.23300
Cd	Cd	0.30101 0.12501 0.95875 1.23700
Cd	Cd	0.36094 0.17582 0.86460 1.24200
O 	O 	0.22297 0.06888 0.91461 -0.38600
O 	O 	0.26993 0.10757 0.02885 -0.40300
O 	O 	0.25112 0.07409 0.11600 -0.39900
H 	H 	0.26590 0.09080 0.10030 0.25200
O 	O 	0.23928 0.94579 0.14586 -0.44000
H 	H 	0.26130 0.92100 0.17550 0.28500
O 	O 	0.29725 0.88550 0.26416 -0.43300
O 	O 	0.29849 0.89634 0.35964 -0.50800
O 	O 	0.44233 0.22945 0.92013 -0.38100
O 	O 	0.39043 0.20823 0.79675 -0.40000
O 	O 	0.42263 0.23351 0.72401 -0.40100
H 	H 	0.40260 0.21840 0.73270 0.25500
O 	O 	0.36932 0.20394 0.96656 -0.48600
O 	O 	0.35790 0.19059 0.05015 -0.43700
O 	O 	0.42668 0.23321 0.18502 -0.39300
H 	H 	0.40240 0.21230 0.14650 0.25800
O 	O 	0.45451 0.01832 0.11901 -0.45400
O 	O 	0.38221 0.07044 0.02721 -0.54200
O 	O 	0.42152 0.09972 0.91528 -0.63600
O 	O 	0.47438 0.03061 0.93402 -0.62200
N 	N 	0.20862 0.74269 0.71160 -0.23100
N 	N 	0.39260 0.96703 0.94686 -0.23800
N 	N 	0.52347 0.10613 0.10481 -0.24100
N 	N 	0.73098 0.30771 0.37453 -0.22400
C 	C 	0.22876 0.07825 0.97320 0.33100
C 	C 	0.18721 0.05433 0.97871 -0.16500
C 	C 	0.13704 0.03179 0.91470 0.01600
H 	H 	0.12900 0.03150 0.86800 0.03500
C 	C 	0.09701 0.00890 0.91840 -0.01600
C 	C 	0.04500 0.98550 0.85230 -0.04000
H 	H 	0.03630 0.98590 0.80510 0.04200
C 	C 	0.00750 0.96220 0.85700 -0.04900
H 	H 	0.97350 0.94650 0.81320 0.04800
C 	C 	0.01960 0.96190 0.92670 -0.01300
H 	H 	0.99330 0.94670 0.92890 0.03600
C 	C 	0.06995 0.98371 0.99260 -0.08400
H 	H 	0.07750 0.98280 0.03900 0.06400
C 	C 	0.11010 0.00738 0.99020 0.04400
C 	C 	0.16391 0.02822 0.05770 -0.04500
C 	C 	0.20041 0.05291 0.05099 0.22100
C 	C 	0.18361 0.01710 0.13550 -0.07500
C 	C 	0.16450 0.04821 0.16690 0.05600
C 	C 	0.12778 0.09491 0.12760 -0.09700
H 	H 	0.11370 0.10410 0.07840 0.07100
C 	C 	0.11300 0.12628 0.16120 -0.00300
H 	H 	0.08900 0.15680 0.13470 0.03600
C 	C 	0.13330 0.11360 0.23450 -0.05800
H 	H 	0.12350 0.13610 0.25710 0.05200
C 	C 	0.16790 0.06783 0.27410 -0.03400
H 	H 	0.18060 0.05910 0.32270 0.04600
C 	C 	0.18406 0.03418 0.24110 -0.03100
C 	C 	0.22082 0.98785 0.28070 0.04200
H 	H 	0.23280 0.97770 0.32840 0.02300
C 	C 	0.23915 0.95760 0.25000 -0.21600
C 	C 	0.22056 0.97346 0.17690 0.25600
C 	C 	0.28013 0.91062 0.29424 0.40000
C 	C 	0.43460 0.23053 0.85930 0.32000
C 	C 	0.47612 0.25876 0.85770 -0.18100
C 	C 	0.52280 0.28405 0.92310 0.02600
H 	H 	0.52840 0.28270 0.96810 0.03200
C 	C 	0.56300 0.31250 0.92380 -0.03400
C 	C 	0.61110 0.34030 0.99050 -0.01800
H 	H 	0.61780 0.33930 0.03630 0.03800
C 	C 	0.64760 0.36870 0.98760 -0.07500
H 	H 	0.67970 0.38620 0.03200 0.07600
C 	C 	0.63730 0.37200 0.91770 0.01900
H 	H 	0.66150 0.39260 0.91560 0.02600
C 	C 	0.59320 0.34570 0.85620 -0.10100
H 	H 	0.58780 0.34690 0.81140 0.07500
C 	C 	0.55310 0.31550 0.85440 0.06600
C 	C 	0.50530 0.28811 0.78710 -0.06100
C 	C 	0.46780 0.26048 0.78900 0.22000
C 	C 	0.38220 0.21509 0.02935 0.39800
C 	C 	0.42606 0.25863 0.08233 -0.19300
C 	C 	0.44828 0.29170 0.05903 0.03000
H 	H 	0.43500 0.28730 0.00930 0.03300
C 	C 	0.49036 0.33188 0.10810 -0.02200
C 	C 	0.51417 0.36581 0.08540 -0.04300
H 	H 	0.50100 0.36230 0.03570 0.04500
C 	C 	0.55600 0.40358 0.13510 -0.05100
H 	H 	0.57140 0.42540 0.11930 0.04600
C 	C 	0.57600 0.40958 0.21030 -0.01100
H 	H 	0.60400 0.43590 0.24370 0.04000
C 	C 	0.55478 0.37736 0.23500 -0.08500
H 	H 	0.56920 0.38140 0.28530 0.07100
C 	C 	0.51127 0.33787 0.18543 0.05400
C 	C 	0.48832 0.30346 0.20943 -0.05300
C 	C 	0.44665 0.26506 0.15893 0.23300
C 	C 	0.40540 0.06670 0.14920 -0.35900
H 	H 	0.42930 0.09900 0.17450 0.13600
H 	H 	0.36630 0.07660 0.12270 0.09500
H 	H 	0.41780 0.03860 0.18710 0.10900
C 	C 	0.37690 0.02800 0.11700 -0.37800
H 	H 	0.35410 0.99550 0.08890 0.13200
H 	H 	0.40380 0.01990 0.17160 0.10700
H 	H 	0.35240 0.05800 0.10690 0.11200
C 	C 	0.40940 0.04460 0.09110 0.50600
C 	C 	0.43800 0.08820 0.82700 -1.44900
H 	H 	0.45870 0.06240 0.82160 0.46800
H 	H 	0.39820 0.08750 0.78110 0.46500
H 	H 	0.45300 0.12500 0.83450 0.46400
C 	C 	0.44470 0.07236 0.89530 0.79600
C 	C 	0.38960 0.92270 0.97760 0.09000
H 	H 	0.41180 0.92190 0.03110 -0.01500
C 	C 	0.35520 0.87720 0.93490 -0.15000
H 	H 	0.35550 0.84660 0.95980 0.08100
C 	C 	0.32050 0.87714 0.85530 0.07100
C 	C 	0.32342 0.92391 0.82360 -0.15400
H 	H 	0.30110 0.92640 0.77020 0.10000
C 	C 	0.35941 0.96704 0.87080 0.09800
H 	H 	0.36030 0.99810 0.84750 -0.01600
C 	C 	0.28233 0.83025 0.80660 0.06100
C 	C 	0.27640 0.78420 0.83670 -0.13600
H 	H 	0.29710 0.78180 0.88970 0.07800
C 	C 	0.23990 0.74201 0.78830 0.08200
H 	H 	0.23670 0.71140 0.80990 0.00000
C 	C 	0.25010 0.83059 0.72740 -0.14300
H 	H 	0.25270 0.86050 0.70420 0.09800
C 	C 	0.21409 0.78676 0.68270 0.09100
H 	H 	0.19250 0.78830 0.62950 -0.00500
C 	C 	0.56460 0.09511 0.17880 0.10200
H 	H 	0.56710 0.05910 0.19560 -0.02300
C 	C 	0.60440 0.13348 0.23320 -0.15600
H 	H 	0.63160 0.12310 0.28500 0.08500
C 	C 	0.60427 0.18656 0.21211 0.08700
C 	C 	0.56280 0.19722 0.13480 -0.14900
H 	H 	0.56060 0.23230 0.11610 0.08800
C 	C 	0.52391 0.15672 0.08390 0.09600
H 	H 	0.49640 0.16590 0.03160 -0.00900
C 	C 	0.64766 0.22860 0.26879 0.05700
C 	C 	0.64845 0.28136 0.24510 -0.11900
H 	H 	0.62110 0.29130 0.19310 0.07500
C 	C 	0.68980 0.31905 0.29870 0.07200
H 	H 	0.68920 0.35430 0.28140 -0.00100
C 	C 	0.68930 0.21744 0.34800 -0.12600
H 	H 	0.69000 0.18310 0.36730 0.08400
C 	C 	0.72911 0.25712 0.39722 0.08200
H 	H 	0.75660 0.24850 0.44970 0.00100
Cd	Cd	0.04419 0.53886 0.47872 1.23300
Cd	Cd	0.19899 0.62501 0.54125 1.23700
Cd	Cd	0.13906 0.67582 0.63540 1.24200
O 	O 	0.27703 0.56888 0.58539 -0.38600
O 	O 	0.23007 0.60757 0.47115 -0.40400
O 	O 	0.24888 0.57409 0.38400 -0.39900
H 	H 	0.23410 0.59080 0.39970 0.25100
O 	O 	0.26072 0.44579 0.35414 -0.44000
H 	H 	0.23870 0.42100 0.32450 0.28500
O 	O 	0.20275 0.38550 0.23584 -0.43300
O 	O 	0.20151 0.39634 0.14036 -0.50800
O 	O 	0.05767 0.72945 0.57987 -0.38100
O 	O 	0.10957 0.70823 0.70325 -0.40000
O 	O 	0.07737 0.73351 0.77599 -0.40100
H 	H 	0.09740 0.71840 0.76730 0.25400
O 	O 	0.13068 0.70394 0.53344 -0.48500
O 	O 	0.14210 0.69059 0.44985 -0.43700
O 	O 	0.07332 0.73321 0.31498 -0.39200
H 	H 	0.09760 0.71230 0.35350 0.25800
O 	O 	0.04549 0.51832 0.38099 -0.45400
O 	O 	0.11779 0.57044 0.47279 -0.54200
O 	O 	0.07848 0.59972 0.58472 -0.63600
O 	O 	0.02562 0.53061 0.56598 -0.62200
N 	N 	0.29138 0.24269 0.78840 -0.23100
N 	N 	0.10740 0.46703 0.55314 -0.23700
N 	N 	0.97653 0.60613 0.39519 -0.24100
N 	N 	0.76902 0.80771 0.12547 -0.22400
C 	C 	0.27124 0.57825 0.52680 0.33200
C 	C 	0.31279 0.55433 0.52129 -0.16400
C 	C 	0.36296 0.53179 0.58530 0.01600
H 	H 	0.37100 0.53150 0.63200 0.03600
C 	C 	0.40299 0.50890 0.58160 -0.01500
C 	C 	0.45500 0.48550 0.64770 -0.04100
H 	H 	0.46370 0.48590 0.69490 0.04200
C 	C 	0.49250 0.46220 0.64300 -0.04800
H 	H 	0.52650 0.44650 0.68680 0.04700
C 	C 	0.48040 0.46190 0.57330 -0.01100
H 	H 	0.50670 0.44670 0.57110 0.03400
C 	C 	0.43005 0.48371 0.50740 -0.08500
H 	H 	0.42250 0.48280 0.46100 0.06300
C 	C 	0.38990 0.50738 0.50980 0.04600
C 	C 	0.33609 0.52822 0.44230 -0.04600
C 	C 	0.29959 0.55291 0.44901 0.22000
C 	C 	0.31639 0.51710 0.36450 -0.07500
C 	C 	0.33550 0.54821 0.33310 0.05600
C 	C 	0.37222 0.59491 0.37240 -0.09700
H 	H 	0.38630 0.60410 0.42160 0.07000
C 	C 	0.38700 0.62628 0.33880 -0.00300
H 	H 	0.41100 0.65680 0.36530 0.03600
C 	C 	0.36670 0.61360 0.26550 -0.05800
H 	H 	0.37650 0.63610 0.24290 0.05200
C 	C 	0.33210 0.56783 0.22590 -0.03400
H 	H 	0.31940 0.55910 0.17730 0.04600
C 	C 	0.31594 0.53418 0.25890 -0.03100
C 	C 	0.27918 0.48785 0.21930 0.04200
H 	H 	0.26720 0.47770 0.17160 0.02300
C 	C 	0.26085 0.45760 0.25000 -0.21600
C 	C 	0.27944 0.47346 0.32310 0.25700
C 	C 	0.21987 0.41062 0.20576 0.40000
C 	C 	0.06540 0.73053 0.64070 0.32000
C 	C 	0.02388 0.75876 0.64230 -0.18100
C 	C 	0.97720 0.78405 0.57690 0.02600
H 	H 	0.97160 0.78270 0.53190 0.03200
C 	C 	0.93700 0.81250 0.57620 -0.03400
C 	C 	0.88890 0.84030 0.50950 -0.01800
H 	H 	0.88220 0.83930 0.46370 0.03800
C 	C 	0.85240 0.86870 0.51240 -0.07500
H 	H 	0.82030 0.88620 0.46800 0.07700
C 	C 	0.86270 0.87200 0.58230 0.01900
H 	H 	0.83850 0.89260 0.58440 0.02600
C 	C 	0.90680 0.84570 0.64380 -0.10000
H 	H 	0.91220 0.84690 0.68860 0.07500
C 	C 	0.94690 0.81550 0.64560 0.06600
C 	C 	0.99470 0.78811 0.71290 -0.05900
C 	C 	0.03220 0.76048 0.71100 0.21900
C 	C 	0.11780 0.71509 0.47065 0.39700
C 	C 	0.07394 0.75863 0.41767 -0.19100
C 	C 	0.05172 0.79170 0.44097 0.02800
H 	H 	0.06500 0.78730 0.49070 0.03300
C 	C 	0.00964 0.83188 0.39190 -0.01900
C 	C 	0.98583 0.86581 0.41460 -0.04600
H 	H 	0.99900 0.86230 0.46430 0.04600
C 	C 	0.94400 0.90358 0.36490 -0.04800
H 	H 	0.92860 0.92540 0.38070 0.04500
C 	C 	0.92400 0.90958 0.28970 -0.01400
H 	H 	0.89600 0.93590 0.25630 0.04100
C 	C 	0.94522 0.87736 0.26500 -0.08200
H 	H 	0.93080 0.88140 0.21470 0.07000
C 	C 	0.98873 0.83787 0.31457 0.05000
C 	C 	0.01168 0.80346 0.29057 -0.04900
C 	C 	0.05335 0.76506 0.34107 0.23100
C 	C 	0.09460 0.56670 0.35080 -0.35900
H 	H 	0.07070 0.59900 0.32550 0.13600
H 	H 	0.13370 0.57660 0.37730 0.09500
H 	H 	0.08220 0.53860 0.31290 0.11000
C 	C 	0.12310 0.52800 0.38300 -0.37800
H 	H 	0.14590 0.49550 0.41110 0.13200
H 	H 	0.09620 0.51990 0.32840 0.10700
H 	H 	0.14760 0.55800 0.39310 0.11200
C 	C 	0.09060 0.54460 0.40890 0.50600
C 	C 	0.06200 0.58820 0.67300 -1.44900
H 	H 	0.04130 0.56240 0.67840 0.46800
H 	H 	0.10180 0.58750 0.71890 0.46500
H 	H 	0.04700 0.62500 0.66550 0.46400
C 	C 	0.05530 0.57236 0.60470 0.79600
C 	C 	0.11040 0.42270 0.52240 0.08900
H 	H 	0.08820 0.42190 0.46890 -0.01400
C 	C 	0.14480 0.37720 0.56510 -0.15000
H 	H 	0.14450 0.34660 0.54020 0.08100
C 	C 	0.17950 0.37714 0.64470 0.07100
C 	C 	0.17658 0.42391 0.67640 -0.15400
H 	H 	0.19890 0.42640 0.72980 0.10000
C 	C 	0.14059 0.46704 0.62920 0.09800
H 	H 	0.13970 0.49810 0.65250 -0.01600
C 	C 	0.21767 0.33025 0.69340 0.06100
C 	C 	0.22360 0.28420 0.66330 -0.13600
H 	H 	0.20290 0.28180 0.61030 0.07800
C 	C 	0.26010 0.24201 0.71170 0.08200
H 	H 	0.26330 0.21140 0.69010 0.00000
C 	C 	0.24990 0.33059 0.77260 -0.14300
H 	H 	0.24730 0.36050 0.79580 0.09800
C 	C 	0.28591 0.28676 0.81730 0.09100
H 	H 	0.30750 0.28830 0.87050 -0.00500
C 	C 	0.93540 0.59511 0.32120 0.10200
H 	H 	0.93290 0.55910 0.30440 -0.02300
C 	C 	0.89560 0.63348 0.26680 -0.15600
H 	H 	0.86840 0.62310 0.21500 0.08500
C 	C 	0.89573 0.68656 0.28789 0.08700
C 	C 	0.93720 0.69722 0.36520 -0.14900
H 	H 	0.93940 0.73230 0.38390 0.08800
C 	C 	0.97609 0.65672 0.41610 0.09600
H 	H 	0.00360 0.66590 0.46840 -0.00900
C 	C 	0.85234 0.72860 0.23121 0.05700
C 	C 	0.85155 0.78136 0.25490 -0.11900
H 	H 	0.87890 0.79130 0.30690 0.07500
C 	C 	0.81020 0.81905 0.20130 0.07200
H 	H 	0.81080 0.85430 0.21860 -0.00100
C 	C 	0.81070 0.71744 0.15200 -0.12600
H 	H 	0.81000 0.68310 0.13270 0.08400
C 	C 	0.77089 0.75712 0.10278 0.08200
H 	H 	0.74340 0.74850 0.05030 0.00100
Cd	Cd	0.54419 0.03886 0.47872 1.23300
Cd	Cd	0.69899 0.12501 0.54125 1.23700
Cd	Cd	0.63906 0.17582 0.63540 1.24200
O 	O 	0.77703 0.06888 0.58539 -0.38600
O 	O 	0.73007 0.10757 0.47115 -0.40400
O 	O 	0.74888 0.07409 0.38400 -0.39900
H 	H 	0.73410 0.09080 0.39970 0.25100
O 	O 	0.76072 0.94579 0.35414 -0.44000
H 	H 	0.73870 0.92100 0.32450 0.28500
O 	O 	0.70275 0.88550 0.23584 -0.43300
O 	O 	0.70151 0.89634 0.14036 -0.50800
O 	O 	0.55767 0.22945 0.57987 -0.38100
O 	O 	0.60957 0.20823 0.70325 -0.40000
O 	O 	0.57737 0.23351 0.77599 -0.40100
H 	H 	0.59740 0.21840 0.76730 0.25500
O 	O 	0.63068 0.20394 0.53344 -0.48500
O 	O 	0.64210 0.19059 0.44985 -0.43700
O 	O 	0.57332 0.23321 0.31498 -0.39300
H 	H 	0.59760 0.21230 0.35350 0.25800
O 	O 	0.54549 0.01832 0.38099 -0.45400
O 	O 	0.61779 0.07044 0.47279 -0.54200
O 	O 	0.57848 0.09972 0.58472 -0.63600
O 	O 	0.52562 0.03061 0.56598 -0.62200
N 	N 	0.79138 0.74269 0.78840 -0.23100
N 	N 	0.60740 0.96703 0.55314 -0.23800
N 	N 	0.47653 0.10613 0.39519 -0.24100
N 	N 	0.26902 0.30771 0.12547 -0.22400
C 	C 	0.77124 0.07825 0.52680 0.33200
C 	C 	0.81279 0.05433 0.52129 -0.16400
C 	C 	0.86296 0.03179 0.58530 0.01600
H 	H 	0.87100 0.03150 0.63200 0.03600
C 	C 	0.90299 0.00890 0.58160 -0.01500
C 	C 	0.95500 0.98550 0.64770 -0.04200
H 	H 	0.96370 0.98590 0.69490 0.04300
C 	C 	0.99250 0.96220 0.64300 -0.04500
H 	H 	0.02650 0.94650 0.68680 0.04600
C 	C 	0.98040 0.96190 0.57330 -0.01200
H 	H 	0.00670 0.94670 0.57110 0.03500
C 	C 	0.93005 0.98371 0.50740 -0.08400
H 	H 	0.92250 0.98280 0.46100 0.06300
C 	C 	0.88990 0.00738 0.50980 0.04600
C 	C 	0.83609 0.02822 0.44230 -0.04600
C 	C 	0.79959 0.05291 0.44901 0.22000
C 	C 	0.81639 0.01710 0.36450 -0.07500
C 	C 	0.83550 0.04821 0.33310 0.05600
C 	C 	0.87222 0.09491 0.37240 -0.09700
H 	H 	0.88630 0.10410 0.42160 0.07000
C 	C 	0.88700 0.12628 0.33880 -0.00300
H 	H 	0.91100 0.15680 0.36530 0.03600
C 	C 	0.86670 0.11360 0.26550 -0.05800
H 	H 	0.87650 0.13610 0.24290 0.05100
C 	C 	0.83210 0.06783 0.22590 -0.03400
H 	H 	0.81940 0.05910 0.17730 0.04600
C 	C 	0.81594 0.03418 0.25890 -0.03100
C 	C 	0.77918 0.98785 0.21930 0.04200
H 	H 	0.76720 0.97770 0.17160 0.02300
C 	C 	0.76085 0.95760 0.25000 -0.21600
C 	C 	0.77944 0.97346 0.32310 0.25600
C 	C 	0.71987 0.91062 0.20576 0.40000
C 	C 	0.56540 0.23053 0.64070 0.32000
C 	C 	0.52388 0.25876 0.64230 -0.18100
C 	C 	0.47720 0.28405 0.57690 0.02600
H 	H 	0.47160 0.28270 0.53190 0.03200
C 	C 	0.43700 0.31250 0.57620 -0.03400
C 	C 	0.38890 0.34030 0.50950 -0.01700
H 	H 	0.38220 0.33930 0.46370 0.03800
C 	C 	0.35240 0.36870 0.51240 -0.07600
H 	H 	0.32030 0.38620 0.46800 0.07700
C 	C 	0.36270 0.37200 0.58230 0.02000
H 	H 	0.33850 0.39260 0.58440 0.02600
C 	C 	0.40680 0.34570 0.64380 -0.10100
H 	H 	0.41220 0.34690 0.68860 0.07500
C 	C 	0.44690 0.31550 0.64560 0.06700
C 	C 	0.49470 0.28811 0.71290 -0.06200
C 	C 	0.53220 0.26048 0.71100 0.22000
C 	C 	0.61780 0.21509 0.47065 0.39700
C 	C 	0.57394 0.25863 0.41767 -0.19300
C 	C 	0.55172 0.29170 0.44097 0.03000
H 	H 	0.56500 0.28730 0.49070 0.03200
C 	C 	0.50964 0.33188 0.39190 -0.02300
C 	C 	0.48583 0.36581 0.41460 -0.04300
H 	H 	0.49900 0.36230 0.46430 0.04400
C 	C 	0.44400 0.40358 0.36490 -0.05100
H 	H 	0.42860 0.42540 0.38070 0.04600
C 	C 	0.42400 0.40958 0.28970 -0.01100
H 	H 	0.39600 0.43590 0.25630 0.04000
C 	C 	0.44522 0.37736 0.26500 -0.08500
H 	H 	0.43080 0.38140 0.21470 0.07100
C 	C 	0.48873 0.33787 0.31457 0.05400
C 	C 	0.51168 0.30346 0.29057 -0.05300
C 	C 	0.55335 0.26506 0.34107 0.23200
C 	C 	0.59460 0.06670 0.35080 -0.35900
H 	H 	0.57070 0.09900 0.32550 0.13600
H 	H 	0.63370 0.07660 0.37730 0.09500
H 	H 	0.58220 0.03860 0.31290 0.10900
C 	C 	0.62310 0.02800 0.38300 -0.37800
H 	H 	0.64590 0.99550 0.41110 0.13200
H 	H 	0.59620 0.01990 0.32840 0.10700
H 	H 	0.64760 0.05800 0.39310 0.11200
C 	C 	0.59060 0.04460 0.40890 0.50600
C 	C 	0.56200 0.08820 0.67300 -1.44900
H 	H 	0.54130 0.06240 0.67840 0.46800
H 	H 	0.60180 0.08750 0.71890 0.46500
H 	H 	0.54700 0.12500 0.66550 0.46400
C 	C 	0.55530 0.07236 0.60470 0.79600
C 	C 	0.61040 0.92270 0.52240 0.08900
H 	H 	0.58820 0.92190 0.46890 -0.01500
C 	C 	0.64480 0.87720 0.56510 -0.15000
H 	H 	0.64450 0.84660 0.54020 0.08100
C 	C 	0.67950 0.87714 0.64470 0.07100
C 	C 	0.67658 0.92391 0.67640 -0.15400
H 	H 	0.69890 0.92640 0.72980 0.10000
C 	C 	0.64059 0.96704 0.62920 0.09800
H 	H 	0.63970 0.99810 0.65250 -0.01600
C 	C 	0.71767 0.83025 0.69340 0.06100
C 	C 	0.72360 0.78420 0.66330 -0.13600
H 	H 	0.70290 0.78180 0.61030 0.07800
C 	C 	0.76010 0.74201 0.71170 0.08200
H 	H 	0.76330 0.71140 0.69010 0.00000
C 	C 	0.74990 0.83059 0.77260 -0.14300
H 	H 	0.74730 0.86050 0.79580 0.09800
C 	C 	0.78591 0.78676 0.81730 0.09100
H 	H 	0.80750 0.78830 0.87050 -0.00400
C 	C 	0.43540 0.09511 0.32120 0.10200
H 	H 	0.43290 0.05910 0.30440 -0.02300
C 	C 	0.39560 0.13348 0.26680 -0.15600
H 	H 	0.36840 0.12310 0.21500 0.08500
C 	C 	0.39573 0.18656 0.28789 0.08700
C 	C 	0.43720 0.19722 0.36520 -0.14900
H 	H 	0.43940 0.23230 0.38390 0.08800
C 	C 	0.47609 0.15672 0.41610 0.09600
H 	H 	0.50360 0.16590 0.46840 -0.00900
C 	C 	0.35234 0.22860 0.23121 0.05700
C 	C 	0.35155 0.28136 0.25490 -0.11900
H 	H 	0.37890 0.29130 0.30690 0.07500
C 	C 	0.31020 0.31905 0.20130 0.07200
H 	H 	0.31080 0.35430 0.21860 -0.00100
C 	C 	0.31070 0.21744 0.15200 -0.12600
H 	H 	0.31000 0.18310 0.13270 0.08400
C 	C 	0.27089 0.25712 0.10278 0.08200
H 	H 	0.24340 0.24850 0.05030 0.00100
