data_crystal

_cell_length_a 8.51390
_cell_length_b 10.21650
_cell_length_c 11.07210
_cell_angle_alpha 64.20800
_cell_angle_beta  71.56300
_cell_angle_gamma 80.75200

_symmetry_space_group_name_	'P 1'
_symmetry_space_group_name_H-M	'P 1'

loop_
_symmetry_equiv_pos_as_xyz
  x,y,z

loop_
_atom_site_label
_atom_site_type_symbol
_atom_site_fract_x
_atom_site_fract_y
_atom_site_fract_z
_atom_site_charge
Er	Er	0.86652 0.06377 0.83769 1.50500
Er	Er	0.13348 0.93623 0.16231 1.50500
H 	H 	0.99420 0.47360 0.21960 0.04800
H 	H 	0.05260 0.72410 0.81210 0.03800
H 	H 	0.46280 0.14840 0.61600 0.05000
H 	H 	0.27680 0.88500 0.51460 0.05500
H 	H 	0.77670 0.45300 0.41600 0.05800
H 	H 	0.36140 0.36760 0.73120 0.04600
H 	H 	0.00580 0.52640 0.78040 0.04700
H 	H 	0.94740 0.27590 0.18790 0.03700
H 	H 	0.53720 0.85160 0.38400 0.05000
H 	H 	0.72320 0.11500 0.48540 0.05500
H 	H 	0.22330 0.54700 0.58400 0.05800
H 	H 	0.63860 0.63240 0.26880 0.04600
C 	C 	0.05600 0.74640 0.04270 0.38200
C 	C 	0.02770 0.61920 0.01940 -0.12400
C 	C 	0.99640 0.48430 0.13120 -0.00400
C 	C 	0.03140 0.63420 0.88760 -0.00600
C 	C 	0.17370 0.04660 0.66130 0.29900
C 	C 	0.34270 0.02120 0.57780 -0.05600
C 	C 	0.47810 0.08890 0.56900 -0.03200
C 	C 	0.36630 0.93130 0.50850 -0.03000
C 	C 	0.67730 0.27240 0.67870 0.30700
C 	C 	0.58480 0.39180 0.58730 -0.05900
C 	C 	0.66470 0.47180 0.45010 -0.02300
C 	C 	0.41740 0.42040 0.63840 -0.02000
C 	C 	0.94400 0.25360 0.95730 0.38200
C 	C 	0.97230 0.38080 0.98060 -0.12400
C 	C 	0.00360 0.51570 0.86880 -0.00400
C 	C 	0.96860 0.36580 0.11240 -0.00600
C 	C 	0.82630 0.95340 0.33870 0.29900
C 	C 	0.65730 0.97880 0.42220 -0.05600
C 	C 	0.52190 0.91110 0.43100 -0.03200
C 	C 	0.63370 0.06870 0.49150 -0.03000
C 	C 	0.32270 0.72760 0.32130 0.30700
C 	C 	0.41520 0.60820 0.41270 -0.05900
C 	C 	0.33530 0.52820 0.54990 -0.02300
C 	C 	0.58260 0.57960 0.36160 -0.02000
O 	O 	0.01580 0.87270 0.96700 -0.48000
O 	O 	0.12160 0.72340 0.13650 -0.42100
O 	O 	0.05140 0.98930 0.66350 -0.37500
O 	O 	0.15490 0.12260 0.73010 -0.37100
O 	O 	0.82660 0.24610 0.62700 -0.38100
O 	O 	0.60500 0.19650 0.80600 -0.40500
O 	O 	0.98420 0.12730 0.03300 -0.48000
O 	O 	0.87840 0.27660 0.86350 -0.42100
O 	O 	0.94860 0.01070 0.33650 -0.37500
O 	O 	0.84510 0.87740 0.26990 -0.37100
O 	O 	0.17340 0.75390 0.37300 -0.38100
O 	O 	0.39500 0.80350 0.19400 -0.40500
