data_crystal

_cell_length_a 8.51390
_cell_length_b 10.21650
_cell_length_c 11.07210
_cell_angle_alpha 64.20800
_cell_angle_beta  71.56300
_cell_angle_gamma 80.75200

_symmetry_space_group_name_	'P 1'
_symmetry_space_group_name_H-M	'P 1'

loop_
_symmetry_equiv_pos_as_xyz
  x,y,z

loop_
_atom_site_label
_atom_site_type_symbol
_atom_site_fract_x
_atom_site_fract_y
_atom_site_fract_z
_atom_site_charge
Er	Er	0.86651 0.06379 0.83768 1.50300
Er	Er	0.13349 0.93621 0.16231 1.50300
H 	H 	0.99400 0.47350 0.22150 0.04600
H 	H 	0.05160 0.72640 0.81040 0.03600
H 	H 	0.46170 0.14960 0.61740 0.04900
H 	H 	0.27410 0.88430 0.51490 0.05300
H 	H 	0.77910 0.45200 0.41520 0.05700
H 	H 	0.36070 0.36580 0.73350 0.04500
H 	H 	0.00600 0.52650 0.77850 0.04600
H 	H 	0.94840 0.27360 0.18960 0.03600
H 	H 	0.53830 0.85040 0.38260 0.04900
H 	H 	0.72590 0.11570 0.48510 0.05300
H 	H 	0.22090 0.54800 0.58480 0.05700
H 	H 	0.63930 0.63420 0.26650 0.04500
C 	C 	0.05600 0.74640 0.04280 0.38200
C 	C 	0.02760 0.61920 0.01950 -0.12500
C 	C 	0.99650 0.48430 0.13120 -0.00200
C 	C 	0.03070 0.63440 0.88750 -0.00500
C 	C 	0.17360 0.04650 0.66140 0.30000
C 	C 	0.34270 0.02110 0.57780 -0.05700
C 	C 	0.47760 0.08890 0.56930 -0.03000
C 	C 	0.36560 0.93140 0.50870 -0.02800
C 	C 	0.67730 0.27250 0.67870 0.30700
C 	C 	0.58450 0.39190 0.58730 -0.06000
C 	C 	0.66480 0.47150 0.45010 -0.02100
C 	C 	0.41780 0.42010 0.63870 -0.01700
C 	C 	0.94400 0.25360 0.95720 0.38200
C 	C 	0.97240 0.38080 0.98050 -0.12500
C 	C 	0.00350 0.51570 0.86880 -0.00200
C 	C 	0.96930 0.36560 0.11250 -0.00500
C 	C 	0.82640 0.95350 0.33860 0.30000
C 	C 	0.65730 0.97890 0.42220 -0.05700
C 	C 	0.52240 0.91110 0.43070 -0.03000
C 	C 	0.63440 0.06860 0.49130 -0.02800
C 	C 	0.32270 0.72750 0.32130 0.30700
C 	C 	0.41550 0.60810 0.41270 -0.06000
C 	C 	0.33520 0.52850 0.54990 -0.02100
C 	C 	0.58220 0.57990 0.36130 -0.01700
O 	O 	0.01590 0.87280 0.96700 -0.48000
O 	O 	0.12180 0.72350 0.13650 -0.42200
O 	O 	0.05150 0.98920 0.66340 -0.37500
O 	O 	0.15500 0.12240 0.73020 -0.37100
O 	O 	0.82660 0.24620 0.62680 -0.38000
O 	O 	0.60500 0.19650 0.80590 -0.40500
O 	O 	0.98410 0.12720 0.03300 -0.48000
O 	O 	0.87820 0.27650 0.86350 -0.42200
O 	O 	0.94850 0.01080 0.33660 -0.37500
O 	O 	0.84500 0.87760 0.26980 -0.37100
O 	O 	0.17340 0.75380 0.37320 -0.38000
O 	O 	0.39500 0.80350 0.19410 -0.40500
