data_crystal

_cell_length_a 18.58370
_cell_length_b 18.58370
_cell_length_c 53.13500
_cell_angle_alpha 90.00000
_cell_angle_beta  90.00000
_cell_angle_gamma 90.00000

_symmetry_space_group_name_	'P 1'
_symmetry_space_group_name_H-M	'P 1'

loop_
_symmetry_equiv_pos_as_xyz
  x,y,z

loop_
_atom_site_label
_atom_site_type_symbol
_atom_site_fract_x
_atom_site_fract_y
_atom_site_fract_z
_atom_site_charge
H 	H 	0.27713 0.59836 0.41303 0.04800
N 	N 	0.22050 0.55450 0.47303 -0.29000
C 	C 	0.22230 0.54210 0.44677 0.09000
C 	C 	0.21270 0.42840 0.39456 -0.06100
C 	C 	0.21150 0.43010 0.36745 -0.03300
C 	C 	0.21780 0.48380 0.32638 -0.03000
C 	C 	0.22560 0.54940 0.31316 0.02500
H 	H 	0.22392 0.60268 0.32378 0.03500
C 	C 	0.23540 0.55050 0.28717 -0.12800
C 	C 	0.23550 0.48710 0.27413 0.06800
H 	H 	0.24634 0.48704 0.25301 0.04100
C 	C 	0.22260 0.42270 0.28619 -0.10700
C 	C 	0.21600 0.42110 0.31244 0.01800
H 	H 	0.20903 0.36752 0.32260 0.03500
C 	C 	0.22320 0.35280 0.27255 0.33900
C 	C 	0.24500 0.61930 0.27475 0.37400
O 	O 	0.25170 0.35555 0.25007 -0.39400
O 	O 	0.19560 0.29860 0.28269 -0.40200
O 	O 	0.22260 0.67480 0.28524 -0.41400
O 	O 	0.27590 0.61890 0.25311 -0.40600
H 	H 	0.10057 0.37100 0.41454 0.04700
H 	H 	0.13259 0.58885 0.40213 0.03900
H 	H 	0.14907 0.59202 0.35497 0.03700
N 	N 	0.13620 0.43200 0.47250 -0.26800
C 	C 	0.18490 0.49250 0.43580 -0.12800
C 	C 	0.14710 0.43840 0.44640 0.08400
C 	C 	0.10400 0.37860 0.43580 -0.08100
C 	C 	0.07750 0.34510 0.45280 0.00200
C 	C 	0.08630 0.36140 0.47560 0.01500
C 	C 	0.19460 0.48730 0.40681 0.04900
C 	C 	0.16280 0.54340 0.39233 -0.05300
C 	C 	0.26780 0.61580 0.47730 0.02400
C 	C 	0.29240 0.63980 0.45230 0.00500
C 	C 	0.26920 0.59890 0.43430 -0.07900
C 	C 	0.16820 0.54340 0.36621 -0.03500
C 	C 	0.19530 0.48780 0.35380 0.01600
H 	H 	0.22900 0.37703 0.40481 0.04000
H 	H 	0.22507 0.37955 0.35626 0.03500
H 	H 	0.72287 0.40164 0.41303 0.04900
N 	N 	0.77950 0.44550 0.47303 -0.28900
C 	C 	0.77770 0.45790 0.44677 0.09100
C 	C 	0.78730 0.57160 0.39456 -0.06000
C 	C 	0.78850 0.56990 0.36745 -0.03200
C 	C 	0.78220 0.51620 0.32638 -0.02900
C 	C 	0.77440 0.45060 0.31316 0.02600
H 	H 	0.77608 0.39732 0.32378 0.03600
C 	C 	0.76460 0.44950 0.28717 -0.12700
C 	C 	0.76450 0.51290 0.27413 0.06900
H 	H 	0.75366 0.51296 0.25301 0.04200
C 	C 	0.77740 0.57730 0.28619 -0.10600
C 	C 	0.78400 0.57890 0.31244 0.01900
H 	H 	0.79097 0.63248 0.32260 0.03600
C 	C 	0.77680 0.64720 0.27255 0.34000
C 	C 	0.75500 0.38070 0.27475 0.37500
O 	O 	0.74830 0.64445 0.25007 -0.39400
O 	O 	0.80440 0.70140 0.28269 -0.40200
O 	O 	0.77740 0.32520 0.28524 -0.41400
O 	O 	0.72410 0.38110 0.25311 -0.40600
H 	H 	0.89943 0.62900 0.41454 0.04700
H 	H 	0.86741 0.41115 0.40213 0.03900
H 	H 	0.85093 0.40798 0.35497 0.03700
N 	N 	0.86380 0.56800 0.47250 -0.26800
C 	C 	0.81510 0.50750 0.43580 -0.12800
C 	C 	0.85290 0.56160 0.44640 0.08400
C 	C 	0.89600 0.62140 0.43580 -0.08100
C 	C 	0.92250 0.65490 0.45280 0.00200
C 	C 	0.91370 0.63860 0.47560 0.01500
C 	C 	0.80540 0.51270 0.40681 0.04900
C 	C 	0.83720 0.45660 0.39233 -0.05300
C 	C 	0.73220 0.38420 0.47730 0.02400
C 	C 	0.70760 0.36020 0.45230 0.00500
C 	C 	0.73080 0.40110 0.43430 -0.07900
C 	C 	0.83180 0.45660 0.36621 -0.03500
C 	C 	0.80470 0.51220 0.35380 0.01600
H 	H 	0.77100 0.62297 0.40481 0.04000
H 	H 	0.77493 0.62045 0.35626 0.03500
H 	H 	0.90164 0.77713 0.91303 0.04900
N 	N 	0.94550 0.72050 0.97303 -0.28900
C 	C 	0.95790 0.72230 0.94677 0.09100
C 	C 	0.07160 0.71270 0.89456 -0.06000
C 	C 	0.06990 0.71150 0.86745 -0.03200
C 	C 	0.01620 0.71780 0.82638 -0.02900
C 	C 	0.95060 0.72560 0.81316 0.02600
H 	H 	0.89732 0.72392 0.82378 0.03600
C 	C 	0.94950 0.73540 0.78717 -0.12700
C 	C 	0.01290 0.73550 0.77413 0.07000
H 	H 	0.01296 0.74634 0.75301 0.04200
C 	C 	0.07730 0.72260 0.78619 -0.10600
C 	C 	0.07890 0.71600 0.81244 0.01900
H 	H 	0.13248 0.70903 0.82260 0.03600
C 	C 	0.14720 0.72320 0.77255 0.34000
C 	C 	0.88070 0.74500 0.77475 0.37500
O 	O 	0.14445 0.75170 0.75007 -0.39400
O 	O 	0.20140 0.69560 0.78269 -0.40200
O 	O 	0.82520 0.72260 0.78524 -0.41400
O 	O 	0.88110 0.77590 0.75311 -0.40600
H 	H 	0.12900 0.60057 0.91454 0.04700
H 	H 	0.91115 0.63259 0.90213 0.03900
H 	H 	0.90798 0.64907 0.85497 0.03700
N 	N 	0.06800 0.63620 0.97250 -0.26700
C 	C 	0.00750 0.68490 0.93580 -0.12700
C 	C 	0.06160 0.64710 0.94640 0.08400
C 	C 	0.12140 0.60400 0.93580 -0.08100
C 	C 	0.15490 0.57750 0.95280 0.00100
C 	C 	0.13860 0.58630 0.97560 0.01700
C 	C 	0.01270 0.69460 0.90681 0.05000
C 	C 	0.95660 0.66280 0.89233 -0.05300
C 	C 	0.88420 0.76780 0.97730 0.02600
C 	C 	0.86020 0.79240 0.95230 0.00500
C 	C 	0.90110 0.76920 0.93430 -0.07900
C 	C 	0.95660 0.66820 0.86621 -0.03500
C 	C 	0.01220 0.69530 0.85380 0.01600
H 	H 	0.12297 0.72900 0.90481 0.04000
H 	H 	0.12045 0.72507 0.85626 0.03500
H 	H 	0.09836 0.22287 0.91303 0.04900
N 	N 	0.05450 0.27950 0.97303 -0.28900
C 	C 	0.04210 0.27770 0.94677 0.09100
C 	C 	0.92840 0.28730 0.89456 -0.06000
C 	C 	0.93010 0.28850 0.86745 -0.03200
C 	C 	0.98380 0.28220 0.82638 -0.02900
C 	C 	0.04940 0.27440 0.81316 0.02600
H 	H 	0.10268 0.27608 0.82378 0.03600
C 	C 	0.05050 0.26460 0.78717 -0.12700
C 	C 	0.98710 0.26450 0.77413 0.07000
H 	H 	0.98704 0.25366 0.75301 0.04200
C 	C 	0.92270 0.27740 0.78619 -0.10600
C 	C 	0.92110 0.28400 0.81244 0.01900
H 	H 	0.86752 0.29097 0.82260 0.03600
C 	C 	0.85280 0.27680 0.77255 0.34000
C 	C 	0.11930 0.25500 0.77475 0.37500
O 	O 	0.85555 0.24830 0.75007 -0.39400
O 	O 	0.79860 0.30440 0.78269 -0.40200
O 	O 	0.17480 0.27740 0.78524 -0.41400
O 	O 	0.11890 0.22410 0.75311 -0.40600
H 	H 	0.87100 0.39943 0.91454 0.04700
H 	H 	0.08885 0.36741 0.90213 0.03900
H 	H 	0.09202 0.35093 0.85497 0.03700
N 	N 	0.93200 0.36380 0.97250 -0.26700
C 	C 	0.99250 0.31510 0.93580 -0.12700
C 	C 	0.93840 0.35290 0.94640 0.08400
C 	C 	0.87860 0.39600 0.93580 -0.08100
C 	C 	0.84510 0.42250 0.95280 0.00100
C 	C 	0.86140 0.41370 0.97560 0.01700
C 	C 	0.98730 0.30540 0.90681 0.05000
C 	C 	0.04340 0.33720 0.89233 -0.05300
C 	C 	0.11580 0.23220 0.97730 0.02600
C 	C 	0.13980 0.20760 0.95230 0.00500
C 	C 	0.09890 0.23080 0.93430 -0.07900
C 	C 	0.04340 0.33180 0.86621 -0.03500
C 	C 	0.98780 0.30470 0.85380 0.01600
H 	H 	0.87703 0.27100 0.90481 0.04000
H 	H 	0.87955 0.27493 0.85626 0.03500
H 	H 	0.22287 0.09836 0.08697 0.04900
N 	N 	0.27950 0.05450 0.02697 -0.28900
C 	C 	0.27770 0.04210 0.05323 0.09100
C 	C 	0.28730 0.92840 0.10544 -0.06000
C 	C 	0.28850 0.93010 0.13255 -0.03200
C 	C 	0.28220 0.98380 0.17362 -0.02900
C 	C 	0.27440 0.04940 0.18684 0.02600
H 	H 	0.27608 0.10268 0.17622 0.03600
C 	C 	0.26460 0.05050 0.21283 -0.12700
C 	C 	0.26450 0.98710 0.22587 0.07000
H 	H 	0.25366 0.98704 0.24699 0.04200
C 	C 	0.27740 0.92270 0.21381 -0.10600
C 	C 	0.28400 0.92110 0.18756 0.01900
H 	H 	0.29097 0.86752 0.17740 0.03600
C 	C 	0.27680 0.85280 0.22745 0.34000
C 	C 	0.25500 0.11930 0.22525 0.37500
O 	O 	0.24830 0.85555 0.24993 -0.39400
O 	O 	0.30440 0.79860 0.21731 -0.40200
O 	O 	0.27740 0.17480 0.21476 -0.41400
O 	O 	0.22410 0.11890 0.24689 -0.40600
H 	H 	0.39943 0.87100 0.08546 0.04700
H 	H 	0.36741 0.08885 0.09787 0.03900
H 	H 	0.35093 0.09202 0.14503 0.03700
N 	N 	0.36380 0.93200 0.02750 -0.26800
C 	C 	0.31510 0.99250 0.06420 -0.12700
C 	C 	0.35290 0.93840 0.05360 0.08400
C 	C 	0.39600 0.87860 0.06420 -0.08100
C 	C 	0.42250 0.84510 0.04720 0.00200
C 	C 	0.41370 0.86140 0.02440 0.01600
C 	C 	0.30540 0.98730 0.09319 0.05000
C 	C 	0.33720 0.04340 0.10767 -0.05300
C 	C 	0.23220 0.11580 0.02270 0.02400
C 	C 	0.20760 0.13980 0.04770 0.00500
C 	C 	0.23080 0.09890 0.06570 -0.07900
C 	C 	0.33180 0.04340 0.13379 -0.03500
C 	C 	0.30470 0.98780 0.14620 0.01600
H 	H 	0.27100 0.87703 0.09519 0.04000
H 	H 	0.27493 0.87955 0.14374 0.03500
H 	H 	0.77713 0.90164 0.08697 0.04900
N 	N 	0.72050 0.94550 0.02697 -0.28900
C 	C 	0.72230 0.95790 0.05323 0.09100
C 	C 	0.71270 0.07160 0.10544 -0.06000
C 	C 	0.71150 0.06990 0.13255 -0.03200
C 	C 	0.71780 0.01620 0.17362 -0.02900
C 	C 	0.72560 0.95060 0.18684 0.02600
H 	H 	0.72392 0.89732 0.17622 0.03600
C 	C 	0.73540 0.94950 0.21283 -0.12700
C 	C 	0.73550 0.01290 0.22587 0.07000
H 	H 	0.74634 0.01296 0.24699 0.04200
C 	C 	0.72260 0.07730 0.21381 -0.10600
C 	C 	0.71600 0.07890 0.18756 0.01900
H 	H 	0.70903 0.13248 0.17740 0.03600
C 	C 	0.72320 0.14720 0.22745 0.34000
C 	C 	0.74500 0.88070 0.22525 0.37500
O 	O 	0.75170 0.14445 0.24993 -0.39400
O 	O 	0.69560 0.20140 0.21731 -0.40200
O 	O 	0.72260 0.82520 0.21476 -0.41400
O 	O 	0.77590 0.88110 0.24689 -0.40600
H 	H 	0.60057 0.12900 0.08546 0.04700
H 	H 	0.63259 0.91115 0.09787 0.03900
H 	H 	0.64907 0.90798 0.14503 0.03700
N 	N 	0.63620 0.06800 0.02750 -0.26800
C 	C 	0.68490 0.00750 0.06420 -0.12700
C 	C 	0.64710 0.06160 0.05360 0.08400
C 	C 	0.60400 0.12140 0.06420 -0.08100
C 	C 	0.57750 0.15490 0.04720 0.00200
C 	C 	0.58630 0.13860 0.02440 0.01600
C 	C 	0.69460 0.01270 0.09319 0.05000
C 	C 	0.66280 0.95660 0.10767 -0.05300
C 	C 	0.76780 0.88420 0.02270 0.02400
C 	C 	0.79240 0.86020 0.04770 0.00500
C 	C 	0.76920 0.90110 0.06570 -0.07900
C 	C 	0.66820 0.95660 0.13379 -0.03500
C 	C 	0.69530 0.01220 0.14620 0.01600
H 	H 	0.72900 0.12297 0.09519 0.04000
H 	H 	0.72507 0.12045 0.14374 0.03500
H 	H 	0.59836 0.27713 0.58697 0.04900
N 	N 	0.55450 0.22050 0.52697 -0.28900
C 	C 	0.54210 0.22230 0.55323 0.09100
C 	C 	0.42840 0.21270 0.60544 -0.06000
C 	C 	0.43010 0.21150 0.63255 -0.03200
C 	C 	0.48380 0.21780 0.67362 -0.02900
C 	C 	0.54940 0.22560 0.68684 0.02600
H 	H 	0.60268 0.22392 0.67622 0.03600
C 	C 	0.55050 0.23540 0.71283 -0.12700
C 	C 	0.48710 0.23550 0.72587 0.06900
H 	H 	0.48704 0.24634 0.74699 0.04200
C 	C 	0.42270 0.22260 0.71381 -0.10600
C 	C 	0.42110 0.21600 0.68756 0.01900
H 	H 	0.36752 0.20903 0.67740 0.03600
C 	C 	0.35280 0.22320 0.72745 0.34000
C 	C 	0.61930 0.24500 0.72525 0.37500
O 	O 	0.35555 0.25170 0.74993 -0.39400
O 	O 	0.29860 0.19560 0.71731 -0.40200
O 	O 	0.67480 0.22260 0.71476 -0.41400
O 	O 	0.61890 0.27590 0.74689 -0.40600
H 	H 	0.37100 0.10057 0.58546 0.04700
H 	H 	0.58885 0.13259 0.59787 0.03900
H 	H 	0.59202 0.14907 0.64503 0.03700
N 	N 	0.43200 0.13620 0.52750 -0.26800
C 	C 	0.49250 0.18490 0.56420 -0.12800
C 	C 	0.43840 0.14710 0.55360 0.08400
C 	C 	0.37860 0.10400 0.56420 -0.08100
C 	C 	0.34510 0.07750 0.54720 0.00200
C 	C 	0.36140 0.08630 0.52440 0.01500
C 	C 	0.48730 0.19460 0.59319 0.04900
C 	C 	0.54340 0.16280 0.60767 -0.05300
C 	C 	0.61580 0.26780 0.52270 0.02400
C 	C 	0.63980 0.29240 0.54770 0.00500
C 	C 	0.59890 0.26920 0.56570 -0.07900
C 	C 	0.54340 0.16820 0.63379 -0.03500
C 	C 	0.48780 0.19530 0.64620 0.01600
H 	H 	0.37703 0.22900 0.59519 0.04000
H 	H 	0.37955 0.22507 0.64374 0.03500
H 	H 	0.40164 0.72287 0.58697 0.04900
N 	N 	0.44550 0.77950 0.52697 -0.28900
C 	C 	0.45790 0.77770 0.55323 0.09100
C 	C 	0.57160 0.78730 0.60544 -0.06000
C 	C 	0.56990 0.78850 0.63255 -0.03200
C 	C 	0.51620 0.78220 0.67362 -0.02900
C 	C 	0.45060 0.77440 0.68684 0.02600
H 	H 	0.39732 0.77608 0.67622 0.03600
C 	C 	0.44950 0.76460 0.71283 -0.12700
C 	C 	0.51290 0.76450 0.72587 0.06900
H 	H 	0.51296 0.75366 0.74699 0.04200
C 	C 	0.57730 0.77740 0.71381 -0.10600
C 	C 	0.57890 0.78400 0.68756 0.01900
H 	H 	0.63248 0.79097 0.67740 0.03600
C 	C 	0.64720 0.77680 0.72745 0.34000
C 	C 	0.38070 0.75500 0.72525 0.37500
O 	O 	0.64445 0.74830 0.74993 -0.39400
O 	O 	0.70140 0.80440 0.71731 -0.40200
O 	O 	0.32520 0.77740 0.71476 -0.41400
O 	O 	0.38110 0.72410 0.74689 -0.40600
H 	H 	0.62900 0.89943 0.58546 0.04700
H 	H 	0.41115 0.86741 0.59787 0.03900
H 	H 	0.40798 0.85093 0.64503 0.03700
N 	N 	0.56800 0.86380 0.52750 -0.26800
C 	C 	0.50750 0.81510 0.56420 -0.12800
C 	C 	0.56160 0.85290 0.55360 0.08400
C 	C 	0.62140 0.89600 0.56420 -0.08100
C 	C 	0.65490 0.92250 0.54720 0.00200
C 	C 	0.63860 0.91370 0.52440 0.01500
C 	C 	0.51270 0.80540 0.59319 0.04900
C 	C 	0.45660 0.83720 0.60767 -0.05300
C 	C 	0.38420 0.73220 0.52270 0.02400
C 	C 	0.36020 0.70760 0.54770 0.00500
C 	C 	0.40110 0.73080 0.56570 -0.07900
C 	C 	0.45660 0.83180 0.63379 -0.03500
C 	C 	0.51220 0.80470 0.64620 0.01600
H 	H 	0.62297 0.77100 0.59519 0.04000
H 	H 	0.62045 0.77493 0.64374 0.03500
H 	H 	0.72287 0.40164 0.58697 0.04900
N 	N 	0.77950 0.44550 0.52697 -0.28900
C 	C 	0.77770 0.45790 0.55323 0.09100
C 	C 	0.78730 0.57160 0.60544 -0.06000
C 	C 	0.78850 0.56990 0.63255 -0.03200
C 	C 	0.78220 0.51620 0.67362 -0.02900
C 	C 	0.77440 0.45060 0.68684 0.02600
H 	H 	0.77608 0.39732 0.67622 0.03600
C 	C 	0.76460 0.44950 0.71283 -0.12700
C 	C 	0.76450 0.51290 0.72587 0.06900
H 	H 	0.75366 0.51296 0.74699 0.04200
C 	C 	0.77740 0.57730 0.71381 -0.10600
C 	C 	0.78400 0.57890 0.68756 0.01900
H 	H 	0.79097 0.63248 0.67740 0.03600
C 	C 	0.77680 0.64720 0.72745 0.34000
C 	C 	0.75500 0.38070 0.72525 0.37500
O 	O 	0.74830 0.64445 0.74993 -0.39400
O 	O 	0.80440 0.70140 0.71731 -0.40200
O 	O 	0.77740 0.32520 0.71476 -0.41400
O 	O 	0.72410 0.38110 0.74689 -0.40600
H 	H 	0.89943 0.62900 0.58546 0.04700
H 	H 	0.86741 0.41115 0.59787 0.03900
H 	H 	0.85093 0.40798 0.64503 0.03700
N 	N 	0.86380 0.56800 0.52750 -0.26800
C 	C 	0.81510 0.50750 0.56420 -0.12800
C 	C 	0.85290 0.56160 0.55360 0.08400
C 	C 	0.89600 0.62140 0.56420 -0.08100
C 	C 	0.92250 0.65490 0.54720 0.00200
C 	C 	0.91370 0.63860 0.52440 0.01500
C 	C 	0.80540 0.51270 0.59319 0.04900
C 	C 	0.83720 0.45660 0.60767 -0.05300
C 	C 	0.73220 0.38420 0.52270 0.02400
C 	C 	0.70760 0.36020 0.54770 0.00500
C 	C 	0.73080 0.40110 0.56570 -0.07900
C 	C 	0.83180 0.45660 0.63379 -0.03500
C 	C 	0.80470 0.51220 0.64620 0.01600
H 	H 	0.77100 0.62297 0.59519 0.04000
H 	H 	0.77493 0.62045 0.64374 0.03500
H 	H 	0.27713 0.59836 0.58697 0.04900
N 	N 	0.22050 0.55450 0.52697 -0.28900
C 	C 	0.22230 0.54210 0.55323 0.09100
C 	C 	0.21270 0.42840 0.60544 -0.06000
C 	C 	0.21150 0.43010 0.63255 -0.03200
C 	C 	0.21780 0.48380 0.67362 -0.02900
C 	C 	0.22560 0.54940 0.68684 0.02600
H 	H 	0.22392 0.60268 0.67622 0.03600
C 	C 	0.23540 0.55050 0.71283 -0.12700
C 	C 	0.23550 0.48710 0.72587 0.06900
H 	H 	0.24634 0.48704 0.74699 0.04200
C 	C 	0.22260 0.42270 0.71381 -0.10600
C 	C 	0.21600 0.42110 0.68756 0.01900
H 	H 	0.20903 0.36752 0.67740 0.03600
C 	C 	0.22320 0.35280 0.72745 0.34000
C 	C 	0.24500 0.61930 0.72525 0.37500
O 	O 	0.25170 0.35555 0.74993 -0.39400
O 	O 	0.19560 0.29860 0.71731 -0.40200
O 	O 	0.22260 0.67480 0.71476 -0.41400
O 	O 	0.27590 0.61890 0.74689 -0.40600
H 	H 	0.10057 0.37100 0.58546 0.04700
H 	H 	0.13259 0.58885 0.59787 0.03900
H 	H 	0.14907 0.59202 0.64503 0.03700
N 	N 	0.13620 0.43200 0.52750 -0.26800
C 	C 	0.18490 0.49250 0.56420 -0.12800
C 	C 	0.14710 0.43840 0.55360 0.08400
C 	C 	0.10400 0.37860 0.56420 -0.08100
C 	C 	0.07750 0.34510 0.54720 0.00200
C 	C 	0.08630 0.36140 0.52440 0.01500
C 	C 	0.19460 0.48730 0.59319 0.04900
C 	C 	0.16280 0.54340 0.60767 -0.05300
C 	C 	0.26780 0.61580 0.52270 0.02400
C 	C 	0.29240 0.63980 0.54770 0.00500
C 	C 	0.26920 0.59890 0.56570 -0.07900
C 	C 	0.16820 0.54340 0.63379 -0.03500
C 	C 	0.19530 0.48780 0.64620 0.01600
H 	H 	0.22900 0.37703 0.59519 0.04000
H 	H 	0.22507 0.37955 0.64374 0.03500
H 	H 	0.09836 0.22287 0.08697 0.04900
N 	N 	0.05450 0.27950 0.02697 -0.28900
C 	C 	0.04210 0.27770 0.05323 0.09100
C 	C 	0.92840 0.28730 0.10544 -0.06000
C 	C 	0.93010 0.28850 0.13255 -0.03200
C 	C 	0.98380 0.28220 0.17362 -0.02900
C 	C 	0.04940 0.27440 0.18684 0.02600
H 	H 	0.10268 0.27608 0.17622 0.03600
C 	C 	0.05050 0.26460 0.21283 -0.12700
C 	C 	0.98710 0.26450 0.22587 0.07000
H 	H 	0.98704 0.25366 0.24699 0.04200
C 	C 	0.92270 0.27740 0.21381 -0.10600
C 	C 	0.92110 0.28400 0.18756 0.01900
H 	H 	0.86752 0.29097 0.17740 0.03600
C 	C 	0.85280 0.27680 0.22745 0.34000
C 	C 	0.11930 0.25500 0.22525 0.37500
O 	O 	0.85555 0.24830 0.24993 -0.39400
O 	O 	0.79860 0.30440 0.21731 -0.40200
O 	O 	0.17480 0.27740 0.21476 -0.41400
O 	O 	0.11890 0.22410 0.24689 -0.40600
H 	H 	0.87100 0.39943 0.08546 0.04700
H 	H 	0.08885 0.36741 0.09787 0.03900
H 	H 	0.09202 0.35093 0.14503 0.03700
N 	N 	0.93200 0.36380 0.02750 -0.26800
C 	C 	0.99250 0.31510 0.06420 -0.12700
C 	C 	0.93840 0.35290 0.05360 0.08400
C 	C 	0.87860 0.39600 0.06420 -0.08100
C 	C 	0.84510 0.42250 0.04720 0.00200
C 	C 	0.86140 0.41370 0.02440 0.01600
C 	C 	0.98730 0.30540 0.09319 0.05000
C 	C 	0.04340 0.33720 0.10767 -0.05300
C 	C 	0.11580 0.23220 0.02270 0.02400
C 	C 	0.13980 0.20760 0.04770 0.00500
C 	C 	0.09890 0.23080 0.06570 -0.07900
C 	C 	0.04340 0.33180 0.13379 -0.03500
C 	C 	0.98780 0.30470 0.14620 0.01600
H 	H 	0.87703 0.27100 0.09519 0.04000
H 	H 	0.87955 0.27493 0.14374 0.03500
H 	H 	0.90164 0.77713 0.08697 0.04900
N 	N 	0.94550 0.72050 0.02697 -0.28900
C 	C 	0.95790 0.72230 0.05323 0.09100
C 	C 	0.07160 0.71270 0.10544 -0.06000
C 	C 	0.06990 0.71150 0.13255 -0.03200
C 	C 	0.01620 0.71780 0.17362 -0.02900
C 	C 	0.95060 0.72560 0.18684 0.02600
H 	H 	0.89732 0.72392 0.17622 0.03600
C 	C 	0.94950 0.73540 0.21283 -0.12700
C 	C 	0.01290 0.73550 0.22587 0.07000
H 	H 	0.01296 0.74634 0.24699 0.04200
C 	C 	0.07730 0.72260 0.21381 -0.10600
C 	C 	0.07890 0.71600 0.18756 0.01900
H 	H 	0.13248 0.70903 0.17740 0.03600
C 	C 	0.14720 0.72320 0.22745 0.34000
C 	C 	0.88070 0.74500 0.22525 0.37500
O 	O 	0.14445 0.75170 0.24993 -0.39400
O 	O 	0.20140 0.69560 0.21731 -0.40200
O 	O 	0.82520 0.72260 0.21476 -0.41400
O 	O 	0.88110 0.77590 0.24689 -0.40600
H 	H 	0.12900 0.60057 0.08546 0.04700
H 	H 	0.91115 0.63259 0.09787 0.03900
H 	H 	0.90798 0.64907 0.14503 0.03700
N 	N 	0.06800 0.63620 0.02750 -0.26800
C 	C 	0.00750 0.68490 0.06420 -0.12700
C 	C 	0.06160 0.64710 0.05360 0.08400
C 	C 	0.12140 0.60400 0.06420 -0.08100
C 	C 	0.15490 0.57750 0.04720 0.00200
C 	C 	0.13860 0.58630 0.02440 0.01600
C 	C 	0.01270 0.69460 0.09319 0.05000
C 	C 	0.95660 0.66280 0.10767 -0.05300
C 	C 	0.88420 0.76780 0.02270 0.02400
C 	C 	0.86020 0.79240 0.04770 0.00500
C 	C 	0.90110 0.76920 0.06570 -0.07900
C 	C 	0.95660 0.66820 0.13379 -0.03500
C 	C 	0.01220 0.69530 0.14620 0.01600
H 	H 	0.12297 0.72900 0.09519 0.04000
H 	H 	0.12045 0.72507 0.14374 0.03500
H 	H 	0.77713 0.90164 0.91303 0.04900
N 	N 	0.72050 0.94550 0.97303 -0.28900
C 	C 	0.72230 0.95790 0.94677 0.09100
C 	C 	0.71270 0.07160 0.89456 -0.06000
C 	C 	0.71150 0.06990 0.86745 -0.03200
C 	C 	0.71780 0.01620 0.82638 -0.02900
C 	C 	0.72560 0.95060 0.81316 0.02600
H 	H 	0.72392 0.89732 0.82378 0.03600
C 	C 	0.73540 0.94950 0.78717 -0.12700
C 	C 	0.73550 0.01290 0.77413 0.07000
H 	H 	0.74634 0.01296 0.75301 0.04200
C 	C 	0.72260 0.07730 0.78619 -0.10600
C 	C 	0.71600 0.07890 0.81244 0.01900
H 	H 	0.70903 0.13248 0.82260 0.03600
C 	C 	0.72320 0.14720 0.77255 0.34000
C 	C 	0.74500 0.88070 0.77475 0.37500
O 	O 	0.75170 0.14445 0.75007 -0.39400
O 	O 	0.69560 0.20140 0.78269 -0.40200
O 	O 	0.72260 0.82520 0.78524 -0.41400
O 	O 	0.77590 0.88110 0.75311 -0.40600
H 	H 	0.60057 0.12900 0.91454 0.04700
H 	H 	0.63259 0.91115 0.90213 0.03900
H 	H 	0.64907 0.90798 0.85497 0.03700
N 	N 	0.63620 0.06800 0.97250 -0.26700
C 	C 	0.68490 0.00750 0.93580 -0.12700
C 	C 	0.64710 0.06160 0.94640 0.08400
C 	C 	0.60400 0.12140 0.93580 -0.08100
C 	C 	0.57750 0.15490 0.95280 0.00100
C 	C 	0.58630 0.13860 0.97560 0.01700
C 	C 	0.69460 0.01270 0.90681 0.05000
C 	C 	0.66280 0.95660 0.89233 -0.05300
C 	C 	0.76780 0.88420 0.97730 0.02600
C 	C 	0.79240 0.86020 0.95230 0.00500
C 	C 	0.76920 0.90110 0.93430 -0.07900
C 	C 	0.66820 0.95660 0.86621 -0.03500
C 	C 	0.69530 0.01220 0.85380 0.01600
H 	H 	0.72900 0.12297 0.90481 0.04000
H 	H 	0.72507 0.12045 0.85626 0.03500
H 	H 	0.22287 0.09836 0.91303 0.04900
N 	N 	0.27950 0.05450 0.97303 -0.28900
C 	C 	0.27770 0.04210 0.94677 0.09100
C 	C 	0.28730 0.92840 0.89456 -0.06000
C 	C 	0.28850 0.93010 0.86745 -0.03200
C 	C 	0.28220 0.98380 0.82638 -0.02900
C 	C 	0.27440 0.04940 0.81316 0.02600
H 	H 	0.27608 0.10268 0.82378 0.03600
C 	C 	0.26460 0.05050 0.78717 -0.12700
C 	C 	0.26450 0.98710 0.77413 0.07000
H 	H 	0.25366 0.98704 0.75301 0.04200
C 	C 	0.27740 0.92270 0.78619 -0.10600
C 	C 	0.28400 0.92110 0.81244 0.01900
H 	H 	0.29097 0.86752 0.82260 0.03600
C 	C 	0.27680 0.85280 0.77255 0.34000
C 	C 	0.25500 0.11930 0.77475 0.37500
O 	O 	0.24830 0.85555 0.75007 -0.39400
O 	O 	0.30440 0.79860 0.78269 -0.40200
O 	O 	0.27740 0.17480 0.78524 -0.41400
O 	O 	0.22410 0.11890 0.75311 -0.40600
H 	H 	0.39943 0.87100 0.91454 0.04700
H 	H 	0.36741 0.08885 0.90213 0.03900
H 	H 	0.35093 0.09202 0.85497 0.03700
N 	N 	0.36380 0.93200 0.97250 -0.26700
C 	C 	0.31510 0.99250 0.93580 -0.12700
C 	C 	0.35290 0.93840 0.94640 0.08400
C 	C 	0.39600 0.87860 0.93580 -0.08100
C 	C 	0.42250 0.84510 0.95280 0.00100
C 	C 	0.41370 0.86140 0.97560 0.01700
C 	C 	0.30540 0.98730 0.90681 0.05000
C 	C 	0.33720 0.04340 0.89233 -0.05300
C 	C 	0.23220 0.11580 0.97730 0.02600
C 	C 	0.20760 0.13980 0.95230 0.00500
C 	C 	0.23080 0.09890 0.93430 -0.07900
C 	C 	0.33180 0.04340 0.86621 -0.03500
C 	C 	0.30470 0.98780 0.85380 0.01600
H 	H 	0.27100 0.87703 0.90481 0.04000
H 	H 	0.27493 0.87955 0.85626 0.03500
H 	H 	0.40164 0.72287 0.41303 0.04900
N 	N 	0.44550 0.77950 0.47303 -0.28900
C 	C 	0.45790 0.77770 0.44677 0.09100
C 	C 	0.57160 0.78730 0.39456 -0.06000
C 	C 	0.56990 0.78850 0.36745 -0.03200
C 	C 	0.51620 0.78220 0.32638 -0.02900
C 	C 	0.45060 0.77440 0.31316 0.02600
H 	H 	0.39732 0.77608 0.32378 0.03600
C 	C 	0.44950 0.76460 0.28717 -0.12700
C 	C 	0.51290 0.76450 0.27413 0.06900
H 	H 	0.51296 0.75366 0.25301 0.04200
C 	C 	0.57730 0.77740 0.28619 -0.10600
C 	C 	0.57890 0.78400 0.31244 0.01900
H 	H 	0.63248 0.79097 0.32260 0.03600
C 	C 	0.64720 0.77680 0.27255 0.34000
C 	C 	0.38070 0.75500 0.27475 0.37500
O 	O 	0.64445 0.74830 0.25007 -0.39400
O 	O 	0.70140 0.80440 0.28269 -0.40200
O 	O 	0.32520 0.77740 0.28524 -0.41400
O 	O 	0.38110 0.72410 0.25311 -0.40600
H 	H 	0.62900 0.89943 0.41454 0.04700
H 	H 	0.41115 0.86741 0.40213 0.03900
H 	H 	0.40798 0.85093 0.35497 0.03700
N 	N 	0.56800 0.86380 0.47250 -0.26800
C 	C 	0.50750 0.81510 0.43580 -0.12800
C 	C 	0.56160 0.85290 0.44640 0.08400
C 	C 	0.62140 0.89600 0.43580 -0.08100
C 	C 	0.65490 0.92250 0.45280 0.00200
C 	C 	0.63860 0.91370 0.47560 0.01500
C 	C 	0.51270 0.80540 0.40681 0.04900
C 	C 	0.45660 0.83720 0.39233 -0.05300
C 	C 	0.38420 0.73220 0.47730 0.02400
C 	C 	0.36020 0.70760 0.45230 0.00500
C 	C 	0.40110 0.73080 0.43430 -0.07900
C 	C 	0.45660 0.83180 0.36621 -0.03500
C 	C 	0.51220 0.80470 0.35380 0.01600
H 	H 	0.62297 0.77100 0.40481 0.04000
H 	H 	0.62045 0.77493 0.35626 0.03500
H 	H 	0.59836 0.27713 0.41303 0.04900
N 	N 	0.55450 0.22050 0.47303 -0.28900
C 	C 	0.54210 0.22230 0.44677 0.09100
C 	C 	0.42840 0.21270 0.39456 -0.06000
C 	C 	0.43010 0.21150 0.36745 -0.03200
C 	C 	0.48380 0.21780 0.32638 -0.02900
C 	C 	0.54940 0.22560 0.31316 0.02600
H 	H 	0.60268 0.22392 0.32378 0.03600
C 	C 	0.55050 0.23540 0.28717 -0.12700
C 	C 	0.48710 0.23550 0.27413 0.06900
H 	H 	0.48704 0.24634 0.25301 0.04200
C 	C 	0.42270 0.22260 0.28619 -0.10600
C 	C 	0.42110 0.21600 0.31244 0.01900
H 	H 	0.36752 0.20903 0.32260 0.03600
C 	C 	0.35280 0.22320 0.27255 0.34000
C 	C 	0.61930 0.24500 0.27475 0.37500
O 	O 	0.35555 0.25170 0.25007 -0.39400
O 	O 	0.29860 0.19560 0.28269 -0.40200
O 	O 	0.67480 0.22260 0.28524 -0.41400
O 	O 	0.61890 0.27590 0.25311 -0.40600
H 	H 	0.37100 0.10057 0.41454 0.04700
H 	H 	0.58885 0.13259 0.40213 0.03900
H 	H 	0.59202 0.14907 0.35497 0.03700
N 	N 	0.43200 0.13620 0.47250 -0.26800
C 	C 	0.49250 0.18490 0.43580 -0.12800
C 	C 	0.43840 0.14710 0.44640 0.08400
C 	C 	0.37860 0.10400 0.43580 -0.08100
C 	C 	0.34510 0.07750 0.45280 0.00200
C 	C 	0.36140 0.08630 0.47560 0.01500
C 	C 	0.48730 0.19460 0.40681 0.04900
C 	C 	0.54340 0.16280 0.39233 -0.05300
C 	C 	0.61580 0.26780 0.47730 0.02400
C 	C 	0.63980 0.29240 0.45230 0.00500
C 	C 	0.59890 0.26920 0.43430 -0.07900
C 	C 	0.54340 0.16820 0.36621 -0.03500
C 	C 	0.48780 0.19530 0.35380 0.01600
H 	H 	0.37703 0.22900 0.40481 0.04000
H 	H 	0.37955 0.22507 0.35626 0.03500
Cu	Cu	0.27029 0.27029 0.22959 0.90600
Cu	Cu	0.20378 0.20378 0.26725 0.90600
Cu	Cu	0.72971 0.72971 0.22959 0.90600
Cu	Cu	0.79622 0.79622 0.26725 0.90600
Cu	Cu	0.22971 0.77029 0.72959 0.90600
Cu	Cu	0.29622 0.70378 0.76725 0.90600
Cu	Cu	0.77029 0.22971 0.72959 0.90600
Cu	Cu	0.70378 0.29622 0.76725 0.90600
Cu	Cu	0.22971 0.77029 0.27041 0.90600
Cu	Cu	0.29622 0.70378 0.23275 0.90600
Cu	Cu	0.77029 0.22971 0.27041 0.90600
Cu	Cu	0.70378 0.29622 0.23275 0.90600
Cu	Cu	0.27029 0.27029 0.77041 0.90600
Cu	Cu	0.20378 0.20378 0.73275 0.90600
Cu	Cu	0.72971 0.72971 0.77041 0.90600
Cu	Cu	0.79622 0.79622 0.73275 0.90600
Zn	Zn	0.17136 0.50213 0.50000 1.16700
C 	C 	0.07110 0.34660 0.50000 -0.07300
C 	C 	0.28880 0.64380 0.50000 -0.05400
Zn	Zn	0.82864 0.49787 0.50000 1.16700
C 	C 	0.92890 0.65340 0.50000 -0.07300
C 	C 	0.71120 0.35620 0.50000 -0.05400
Zn	Zn	0.99787 0.67136 -0.00000 1.16700
C 	C 	0.15340 0.57110 -0.00000 -0.07500
C 	C 	0.85620 0.78880 -0.00000 -0.05500
Zn	Zn	0.00213 0.32864 -0.00000 1.16700
C 	C 	0.84660 0.42890 -0.00000 -0.07500
C 	C 	0.14380 0.21120 -0.00000 -0.05500
Zn	Zn	0.32864 0.00213 -0.00000 1.16700
C 	C 	0.42890 0.84660 -0.00000 -0.07500
C 	C 	0.21120 0.14380 -0.00000 -0.05500
Zn	Zn	0.67136 0.99787 -0.00000 1.16700
C 	C 	0.57110 0.15340 -0.00000 -0.07500
C 	C 	0.78880 0.85620 -0.00000 -0.05500
Zn	Zn	0.50213 0.17136 0.50000 1.16700
C 	C 	0.34660 0.07110 0.50000 -0.07300
C 	C 	0.64380 0.28880 0.50000 -0.05400
Zn	Zn	0.49787 0.82864 0.50000 1.16700
C 	C 	0.65340 0.92890 0.50000 -0.07300
C 	C 	0.35620 0.71120 0.50000 -0.05400
