data_crystal

_cell_length_a 30.79910
_cell_length_b 30.79910
_cell_length_c 31.24560
_cell_angle_alpha 119.52800
_cell_angle_beta  119.52800
_cell_angle_gamma 90.00010

_symmetry_space_group_name_	'P 1'
_symmetry_space_group_name_H-M	'P 1'

loop_
_symmetry_equiv_pos_as_xyz
  x,y,z

loop_
_atom_site_label
_atom_site_type_symbol
_atom_site_fract_x
_atom_site_fract_y
_atom_site_fract_z
_atom_site_charge
Cu	Cu	0.47092 0.52234 0.74354 0.90500
Cu	Cu	0.46468 0.53312 0.66134 0.90600
Cu	Cu	0.27262 0.22120 0.74354 0.90500
Cu	Cu	0.19667 0.12822 0.66135 0.90600
Cu	Cu	0.52234 0.27262 0.74355 0.90500
Cu	Cu	0.53312 0.19667 0.66134 0.90600
Cu	Cu	0.22120 0.47092 0.74353 0.90500
Cu	Cu	0.12822 0.46468 0.66134 0.90600
Cu	Cu	0.52908 0.47766 0.25646 0.90400
Cu	Cu	0.53532 0.46688 0.33866 0.90600
Cu	Cu	0.72738 0.77880 0.25646 0.90400
Cu	Cu	0.80333 0.87178 0.33865 0.90600
Cu	Cu	0.47766 0.72738 0.25645 0.90400
Cu	Cu	0.46688 0.80333 0.33865 0.90600
Cu	Cu	0.77880 0.52908 0.25647 0.90400
Cu	Cu	0.87178 0.53532 0.33865 0.90600
Cu	Cu	0.74941 0.54881 -0.00000 0.89600
Cu	Cu	0.83446 0.56487 1.00000 0.91600
Cu	Cu	0.25059 0.45119 -0.00000 0.89700
Cu	Cu	0.16554 0.43513 -0.00000 0.90100
Cu	Cu	0.54881 0.25059 -0.00000 0.89700
Cu	Cu	0.56487 0.16554 1.00000 0.91700
Cu	Cu	0.45119 0.74941 1.00000 0.91400
Cu	Cu	0.43513 0.83446 -0.00000 0.90000
H 	H 	0.76900 0.58960 0.86320 0.08100
H 	H 	0.62870 0.57300 0.72860 0.08800
H 	H 	0.63660 0.56380 0.85740 0.06600
H 	H 	0.79050 0.55810 0.79360 0.03800
H 	H 	0.86560 0.56200 0.79040 0.08500
H 	H 	0.91520 0.53630 0.68400 0.08500
H 	H 	0.78370 0.58010 0.65280 0.08500
H 	H 	0.98220 0.51170 0.73620 0.03300
H 	H 	0.05440 0.49350 0.75380 0.07500
H 	H 	0.17920 0.46170 0.85160 0.06200
H 	H 	0.06420 0.48020 0.88120 0.08800
H 	H 	0.76200 0.54970 0.55660 0.03600
H 	H 	0.70430 0.51770 0.45740 0.07600
H 	H 	0.69080 0.51700 0.32120 0.06300
H 	H 	0.83420 0.54550 0.45860 0.08600
H 	H 	0.09420 0.27360 0.86320 0.08100
H 	H 	0.09990 0.15560 0.72860 0.08800
H 	H 	0.22080 0.29360 0.85740 0.06600
H 	H 	0.00310 0.23550 0.79360 0.03800
H 	H 	0.92480 0.22840 0.79040 0.08500
H 	H 	0.76880 0.14770 0.68400 0.08600
H 	H 	0.86910 0.07270 0.65280 0.08500
H 	H 	0.75400 0.22450 0.73620 0.03300
H 	H 	0.69940 0.26030 0.75380 0.07400
H 	H 	0.67240 0.38990 0.85160 0.06200
H 	H 	0.81700 0.40100 0.88120 0.08800
H 	H 	0.79460 0.00690 0.55660 0.03600
H 	H 	0.75310 0.93970 0.45740 0.07600
H 	H 	0.63040 0.80420 0.32120 0.06300
H 	H 	0.62440 0.91310 0.45860 0.08600
H 	H 	0.58960 0.09420 0.86320 0.08100
H 	H 	0.57300 0.09990 0.72860 0.08800
H 	H 	0.56380 0.22080 0.85740 0.06600
H 	H 	0.55810 0.00310 0.79360 0.03800
H 	H 	0.56200 0.92480 0.79040 0.08500
H 	H 	0.53630 0.76880 0.68400 0.08600
H 	H 	0.58010 0.86910 0.65280 0.08500
H 	H 	0.51170 0.75400 0.73620 0.03300
H 	H 	0.49350 0.69940 0.75380 0.07400
H 	H 	0.46170 0.67240 0.85160 0.06200
H 	H 	0.48020 0.81700 0.88120 0.08800
H 	H 	0.54970 0.79460 0.55660 0.03600
H 	H 	0.51770 0.75310 0.45740 0.07600
H 	H 	0.51700 0.63040 0.32120 0.06300
H 	H 	0.54550 0.62440 0.45860 0.08700
H 	H 	0.27360 0.76900 0.86320 0.08100
H 	H 	0.15560 0.62870 0.72860 0.08800
H 	H 	0.29360 0.63660 0.85740 0.06600
H 	H 	0.23550 0.79050 0.79360 0.03800
H 	H 	0.22840 0.86560 0.79040 0.08500
H 	H 	0.14770 0.91520 0.68400 0.08600
H 	H 	0.07270 0.78370 0.65280 0.08500
H 	H 	0.22450 0.98220 0.73620 0.03300
H 	H 	0.26030 0.05440 0.75380 0.07500
H 	H 	0.38990 0.17920 0.85160 0.06200
H 	H 	0.40100 0.06420 0.88120 0.08800
H 	H 	0.00690 0.76200 0.55660 0.03600
H 	H 	0.93970 0.70430 0.45740 0.07600
H 	H 	0.80420 0.69080 0.32120 0.06300
H 	H 	0.91310 0.83420 0.45860 0.08600
H 	H 	0.23100 0.41040 0.13680 0.07700
H 	H 	0.37130 0.42700 0.27140 0.08700
H 	H 	0.36340 0.43620 0.14260 0.06200
H 	H 	0.20950 0.44190 0.20640 0.03700
H 	H 	0.13440 0.43800 0.20960 0.08300
H 	H 	0.08480 0.46370 0.31600 0.08500
H 	H 	0.21630 0.41990 0.34720 0.08400
H 	H 	0.01780 0.48830 0.26380 0.03200
H 	H 	0.94560 0.50650 0.24620 0.07300
H 	H 	0.82080 0.53830 0.14840 0.05800
H 	H 	0.93580 0.51980 0.11880 0.08300
H 	H 	0.23800 0.45030 0.44340 0.03600
H 	H 	0.29570 0.48230 0.54260 0.07700
H 	H 	0.30920 0.48300 0.67880 0.06400
H 	H 	0.16580 0.45450 0.54140 0.08700
H 	H 	0.90580 0.72640 0.13680 0.07700
H 	H 	0.90010 0.84440 0.27140 0.08600
H 	H 	0.77920 0.70640 0.14260 0.06200
H 	H 	0.99690 0.76450 0.20640 0.03700
H 	H 	0.07520 0.77160 0.20960 0.08300
H 	H 	0.23120 0.85230 0.31600 0.08500
H 	H 	0.13090 0.92730 0.34720 0.08400
H 	H 	0.24600 0.77550 0.26380 0.03200
H 	H 	0.30060 0.73970 0.24620 0.07300
H 	H 	0.32760 0.61010 0.14840 0.05800
H 	H 	0.18300 0.59900 0.11880 0.08300
H 	H 	0.20540 0.99310 0.44340 0.03600
H 	H 	0.24690 0.06030 0.54260 0.07700
H 	H 	0.36960 0.19580 0.67880 0.06400
H 	H 	0.37560 0.08690 0.54140 0.08700
H 	H 	0.41040 0.90580 0.13680 0.07700
H 	H 	0.42700 0.90010 0.27140 0.08700
H 	H 	0.43620 0.77920 0.14260 0.06200
H 	H 	0.44190 0.99690 0.20640 0.03700
H 	H 	0.43800 0.07520 0.20960 0.08300
H 	H 	0.46370 0.23120 0.31600 0.08500
H 	H 	0.41990 0.13090 0.34720 0.08400
H 	H 	0.48830 0.24600 0.26380 0.03200
H 	H 	0.50650 0.30060 0.24620 0.07300
H 	H 	0.53830 0.32760 0.14840 0.05800
H 	H 	0.51980 0.18300 0.11880 0.08300
H 	H 	0.45030 0.20540 0.44340 0.03600
H 	H 	0.48230 0.24690 0.54260 0.07700
H 	H 	0.48300 0.36960 0.67880 0.06400
H 	H 	0.45450 0.37560 0.54140 0.08700
H 	H 	0.72640 0.23100 0.13680 0.07700
H 	H 	0.84440 0.37130 0.27140 0.08700
H 	H 	0.70640 0.36340 0.14260 0.06200
H 	H 	0.76450 0.20950 0.20640 0.03700
H 	H 	0.77160 0.13440 0.20960 0.08300
H 	H 	0.85230 0.08480 0.31600 0.08500
H 	H 	0.92730 0.21630 0.34720 0.08400
H 	H 	0.77550 0.01780 0.26380 0.03200
H 	H 	0.73970 0.94560 0.24620 0.07300
H 	H 	0.61010 0.82080 0.14840 0.05800
H 	H 	0.59900 0.93580 0.11880 0.08300
H 	H 	0.99310 0.23800 0.44340 0.03600
H 	H 	0.06030 0.29570 0.54260 0.07700
H 	H 	0.19580 0.30920 0.67880 0.06400
H 	H 	0.08690 0.16580 0.54140 0.08700
C 	C 	0.70686 0.57498 0.86698 -0.04200
C 	C 	0.73204 0.58289 0.84388 -0.07200
C 	C 	0.70143 0.58082 0.79078 0.10500
C 	C 	0.64872 0.57379 0.76402 -0.07100
C 	C 	0.62492 0.56782 0.78968 -0.04700
C 	C 	0.65346 0.56819 0.84058 -0.00300
C 	C 	0.56637 0.55556 0.75842 0.35000
C 	C 	0.73872 0.57035 0.91904 0.34400
C 	C 	0.76990 0.57080 0.77054 0.00800
C 	C 	0.77743 0.57917 0.73594 0.03500
C 	C 	0.81789 0.56965 0.72190 0.06700
C 	C 	0.86032 0.55890 0.75620 -0.11400
C 	C 	0.89585 0.54284 0.73888 0.07100
C 	C 	0.88945 0.54325 0.69270 -0.11900
C 	C 	0.84693 0.55356 0.65792 0.06900
C 	C 	0.81113 0.56975 0.67370 -0.11400
C 	C 	0.93941 0.53031 0.77242 0.02700
C 	C 	0.97703 0.51439 0.76484 0.01600
C 	C 	0.05256 0.48742 0.81540 0.09500
C 	C 	0.07236 0.48658 0.78354 -0.06000
C 	C 	0.11937 0.47525 0.79664 -0.06000
C 	C 	0.14631 0.46771 0.84168 0.00700
C 	C 	0.12540 0.46882 0.87246 -0.04900
C 	C 	0.07830 0.47902 0.85972 -0.06400
C 	C 	0.13909 0.47171 0.76108 0.35500
C 	C 	0.15537 0.46038 0.92128 0.34400
C 	C 	0.83889 0.55069 0.60698 0.03100
C 	C 	0.79446 0.54779 0.56074 0.01100
C 	C 	0.77363 0.53278 0.46620 0.10000
C 	C 	0.71988 0.52154 0.43922 -0.06900
C 	C 	0.68959 0.51607 0.38594 -0.04900
C 	C 	0.71222 0.52065 0.35824 0.00000
C 	C 	0.76503 0.53037 0.38482 -0.05100
C 	C 	0.79713 0.53754 0.43962 -0.06400
C 	C 	0.63066 0.50162 0.35408 0.35200
C 	C 	0.78812 0.53286 0.35352 0.34600
C 	C 	0.16012 0.29200 0.86698 -0.04100
C 	C 	0.11184 0.26099 0.84388 -0.07200
C 	C 	0.08935 0.20996 0.79078 0.10600
C 	C 	0.11530 0.19023 0.76402 -0.07200
C 	C 	0.16476 0.22186 0.78968 -0.04700
C 	C 	0.18712 0.27239 0.84058 -0.00400
C 	C 	0.19205 0.20286 0.75842 0.35000
C 	C 	0.18032 0.34869 0.91904 0.34300
C 	C 	0.00064 0.19974 0.77054 0.01100
C 	C 	0.95851 0.15677 0.73594 0.03200
C 	C 	0.90401 0.15225 0.72190 0.06900
C 	C 	0.89588 0.19730 0.75620 -0.11500
C 	C 	0.84303 0.19604 0.73888 0.07200
C 	C 	0.80325 0.14945 0.69270 -0.12000
C 	C 	0.81099 0.10436 0.65792 0.07000
C 	C 	0.86257 0.10395 0.67370 -0.11500
C 	C 	0.83301 0.24211 0.77242 0.02600
C 	C 	0.78781 0.25045 0.76484 0.01900
C 	C 	0.76284 0.32798 0.81540 0.09400
C 	C 	0.71118 0.29696 0.78354 -0.05900
C 	C 	0.67727 0.32139 0.79664 -0.06100
C 	C 	0.69537 0.37397 0.84168 0.00800
C 	C 	0.74706 0.40364 0.87246 -0.05000
C 	C 	0.78142 0.38070 0.85972 -0.06300
C 	C 	0.62199 0.28937 0.76108 0.35500
C 	C 	0.76591 0.46090 0.92128 0.34500
C 	C 	0.76809 0.05629 0.60698 0.03100
C 	C 	0.76628 0.01295 0.56074 0.01200
C 	C 	0.69257 0.93342 0.46620 0.09900
C 	C 	0.71934 0.91768 0.43922 -0.06900
C 	C 	0.69635 0.86987 0.38594 -0.04900
C 	C 	0.64602 0.83759 0.35824 0.00100
C 	C 	0.61979 0.85445 0.38482 -0.05100
C 	C 	0.64249 0.90208 0.43962 -0.06400
C 	C 	0.72342 0.85246 0.35408 0.35200
C 	C 	0.56540 0.82066 0.35352 0.34600
C 	C 	0.57498 0.16012 0.86698 -0.04200
C 	C 	0.58289 0.11184 0.84388 -0.07200
C 	C 	0.58082 0.08935 0.79078 0.10500
C 	C 	0.57379 0.11530 0.76402 -0.07100
C 	C 	0.56782 0.16476 0.78968 -0.04700
C 	C 	0.56819 0.18712 0.84058 -0.00300
C 	C 	0.55556 0.19205 0.75842 0.35000
C 	C 	0.57035 0.18032 0.91904 0.34400
C 	C 	0.57080 0.00064 0.77054 0.01000
C 	C 	0.57917 0.95851 0.73594 0.03300
C 	C 	0.56965 0.90401 0.72190 0.06800
C 	C 	0.55890 0.89588 0.75620 -0.11400
C 	C 	0.54284 0.84303 0.73888 0.07200
C 	C 	0.54325 0.80325 0.69270 -0.12000
C 	C 	0.55356 0.81099 0.65792 0.06900
C 	C 	0.56975 0.86257 0.67370 -0.11400
C 	C 	0.53031 0.83301 0.77242 0.02700
C 	C 	0.51439 0.78781 0.76484 0.01900
C 	C 	0.48742 0.76284 0.81540 0.09400
C 	C 	0.48658 0.71118 0.78354 -0.05900
C 	C 	0.47525 0.67727 0.79664 -0.06100
C 	C 	0.46771 0.69537 0.84168 0.00800
C 	C 	0.46882 0.74706 0.87246 -0.05000
C 	C 	0.47902 0.78142 0.85972 -0.06300
C 	C 	0.47171 0.62199 0.76108 0.35500
C 	C 	0.46038 0.76591 0.92128 0.34500
C 	C 	0.55069 0.76809 0.60698 0.03100
C 	C 	0.54779 0.76628 0.56074 0.01100
C 	C 	0.53278 0.69257 0.46620 0.10000
C 	C 	0.52154 0.71934 0.43922 -0.06900
C 	C 	0.51607 0.69635 0.38594 -0.04900
C 	C 	0.52065 0.64602 0.35824 0.00000
C 	C 	0.53037 0.61979 0.38482 -0.05100
C 	C 	0.53754 0.64249 0.43962 -0.06400
C 	C 	0.50162 0.72342 0.35408 0.35200
C 	C 	0.53286 0.56540 0.35352 0.34600
C 	C 	0.29200 0.70686 0.86698 -0.04100
C 	C 	0.26099 0.73204 0.84388 -0.07200
C 	C 	0.20996 0.70143 0.79078 0.10500
C 	C 	0.19023 0.64872 0.76402 -0.07100
C 	C 	0.22186 0.62492 0.78968 -0.04700
C 	C 	0.27239 0.65346 0.84058 -0.00300
C 	C 	0.20286 0.56637 0.75842 0.35000
C 	C 	0.34869 0.73872 0.91904 0.34400
C 	C 	0.19974 0.76990 0.77054 0.00800
C 	C 	0.15677 0.77743 0.73594 0.03500
C 	C 	0.15225 0.81789 0.72190 0.06800
C 	C 	0.19730 0.86032 0.75620 -0.11400
C 	C 	0.19604 0.89585 0.73888 0.07100
C 	C 	0.14945 0.88945 0.69270 -0.12000
C 	C 	0.10436 0.84693 0.65792 0.06900
C 	C 	0.10395 0.81113 0.67370 -0.11400
C 	C 	0.24211 0.93941 0.77242 0.02700
C 	C 	0.25045 0.97703 0.76484 0.01700
C 	C 	0.32798 0.05256 0.81540 0.09500
C 	C 	0.29696 0.07236 0.78354 -0.06000
C 	C 	0.32139 0.11937 0.79664 -0.06100
C 	C 	0.37397 0.14631 0.84168 0.00700
C 	C 	0.40364 0.12540 0.87246 -0.05000
C 	C 	0.38070 0.07830 0.85972 -0.06300
C 	C 	0.28937 0.13909 0.76108 0.35500
C 	C 	0.46090 0.15537 0.92128 0.34500
C 	C 	0.05629 0.83889 0.60698 0.03100
C 	C 	0.01295 0.79446 0.56074 0.01200
C 	C 	0.93342 0.77363 0.46620 0.09900
C 	C 	0.91768 0.71988 0.43922 -0.06900
C 	C 	0.86987 0.68959 0.38594 -0.04900
C 	C 	0.83759 0.71222 0.35824 0.00100
C 	C 	0.85445 0.76503 0.38482 -0.05100
C 	C 	0.90208 0.79713 0.43962 -0.06400
C 	C 	0.85246 0.63066 0.35408 0.35200
C 	C 	0.82066 0.78812 0.35352 0.34600
C 	C 	0.29314 0.42502 0.13302 -0.04700
C 	C 	0.26796 0.41711 0.15612 -0.07000
C 	C 	0.29857 0.41918 0.20922 0.10200
C 	C 	0.35128 0.42621 0.23598 -0.07000
C 	C 	0.37508 0.43218 0.21032 -0.05100
C 	C 	0.34654 0.43181 0.15942 -0.00100
C 	C 	0.43363 0.44444 0.24158 0.35100
C 	C 	0.26128 0.42965 0.08096 0.34600
C 	C 	0.23010 0.42920 0.22946 0.00700
C 	C 	0.22257 0.42083 0.26406 0.03400
C 	C 	0.18211 0.43035 0.27810 0.06600
C 	C 	0.13968 0.44110 0.24380 -0.11400
C 	C 	0.10415 0.45716 0.26112 0.07000
C 	C 	0.11055 0.45675 0.30730 -0.12000
C 	C 	0.15307 0.44644 0.34208 0.06900
C 	C 	0.18887 0.43025 0.32630 -0.11400
C 	C 	0.06059 0.46969 0.22758 0.02500
C 	C 	0.02297 0.48561 0.23516 0.01900
C 	C 	0.94744 0.51258 0.18460 0.09100
C 	C 	0.92764 0.51342 0.21646 -0.05800
C 	C 	0.88063 0.52475 0.20336 -0.06400
C 	C 	0.85369 0.53229 0.15832 0.01000
C 	C 	0.87460 0.53118 0.12754 -0.05600
C 	C 	0.92170 0.52098 0.14028 -0.06100
C 	C 	0.86091 0.52829 0.23892 0.35600
C 	C 	0.84463 0.53962 0.07872 0.34600
C 	C 	0.16111 0.44931 0.39302 0.03100
C 	C 	0.20554 0.45221 0.43926 0.01100
C 	C 	0.22637 0.46722 0.53380 0.10000
C 	C 	0.28012 0.47846 0.56078 -0.06900
C 	C 	0.31041 0.48393 0.61406 -0.04900
C 	C 	0.28778 0.47935 0.64176 -0.00000
C 	C 	0.23497 0.46963 0.61518 -0.05000
C 	C 	0.20287 0.46246 0.56038 -0.06500
C 	C 	0.36934 0.49838 0.64592 0.35200
C 	C 	0.21188 0.46714 0.64648 0.34500
C 	C 	0.83988 0.70800 0.13302 -0.04800
C 	C 	0.88816 0.73901 0.15612 -0.06900
C 	C 	0.91065 0.79004 0.20922 0.10100
C 	C 	0.88470 0.80977 0.23598 -0.06900
C 	C 	0.83524 0.77814 0.21032 -0.05100
C 	C 	0.81288 0.72761 0.15942 -0.00100
C 	C 	0.80795 0.79714 0.24158 0.35100
C 	C 	0.81968 0.65131 0.08096 0.34600
C 	C 	0.99936 0.80026 0.22946 0.00500
C 	C 	0.04149 0.84323 0.26406 0.03500
C 	C 	0.09599 0.84775 0.27810 0.06600
C 	C 	0.10412 0.80270 0.24380 -0.11400
C 	C 	0.15697 0.80396 0.26112 0.07000
C 	C 	0.19675 0.85055 0.30730 -0.11900
C 	C 	0.18901 0.89564 0.34208 0.06800
C 	C 	0.13743 0.89605 0.32630 -0.11400
C 	C 	0.16699 0.75789 0.22758 0.02600
C 	C 	0.21219 0.74955 0.23516 0.01800
C 	C 	0.23716 0.67202 0.18460 0.09100
C 	C 	0.28882 0.70304 0.21646 -0.05800
C 	C 	0.32273 0.67861 0.20336 -0.06400
C 	C 	0.30463 0.62603 0.15832 0.00900
C 	C 	0.25294 0.59636 0.12754 -0.05500
C 	C 	0.21858 0.61930 0.14028 -0.06200
C 	C 	0.37801 0.71063 0.23892 0.35600
C 	C 	0.23409 0.53910 0.07872 0.34500
C 	C 	0.23191 0.94371 0.39302 0.03100
C 	C 	0.23372 0.98705 0.43926 0.00900
C 	C 	0.30743 0.06658 0.53380 0.10000
C 	C 	0.28066 0.08232 0.56078 -0.06900
C 	C 	0.30365 0.13013 0.61406 -0.04800
C 	C 	0.35398 0.16241 0.64176 -0.00000
C 	C 	0.38021 0.14555 0.61518 -0.05000
C 	C 	0.35751 0.09792 0.56038 -0.06500
C 	C 	0.27658 0.14754 0.64592 0.35200
C 	C 	0.43460 0.17934 0.64648 0.34500
C 	C 	0.42502 0.83988 0.13302 -0.04800
C 	C 	0.41711 0.88816 0.15612 -0.07000
C 	C 	0.41918 0.91065 0.20922 0.10100
C 	C 	0.42621 0.88470 0.23598 -0.06900
C 	C 	0.43218 0.83524 0.21032 -0.05100
C 	C 	0.43181 0.81288 0.15942 -0.00100
C 	C 	0.44444 0.80795 0.24158 0.35100
C 	C 	0.42965 0.81968 0.08096 0.34600
C 	C 	0.42920 0.99936 0.22946 0.00400
C 	C 	0.42083 0.04149 0.26406 0.03600
C 	C 	0.43035 0.09599 0.27810 0.06600
C 	C 	0.44110 0.10412 0.24380 -0.11400
C 	C 	0.45716 0.15697 0.26112 0.07000
C 	C 	0.45675 0.19675 0.30730 -0.11900
C 	C 	0.44644 0.18901 0.34208 0.06800
C 	C 	0.43025 0.13743 0.32630 -0.11400
C 	C 	0.46969 0.16699 0.22758 0.02600
C 	C 	0.48561 0.21219 0.23516 0.01800
C 	C 	0.51258 0.23716 0.18460 0.09100
C 	C 	0.51342 0.28882 0.21646 -0.05800
C 	C 	0.52475 0.32273 0.20336 -0.06400
C 	C 	0.53229 0.30463 0.15832 0.00900
C 	C 	0.53118 0.25294 0.12754 -0.05600
C 	C 	0.52098 0.21858 0.14028 -0.06100
C 	C 	0.52829 0.37801 0.23892 0.35600
C 	C 	0.53962 0.23409 0.07872 0.34600
C 	C 	0.44931 0.23191 0.39302 0.03100
C 	C 	0.45221 0.23372 0.43926 0.01100
C 	C 	0.46722 0.30743 0.53380 0.10000
C 	C 	0.47846 0.28066 0.56078 -0.06900
C 	C 	0.48393 0.30365 0.61406 -0.04900
C 	C 	0.47935 0.35398 0.64176 -0.00000
C 	C 	0.46963 0.38021 0.61518 -0.05000
C 	C 	0.46246 0.35751 0.56038 -0.06500
C 	C 	0.49838 0.27658 0.64592 0.35200
C 	C 	0.46714 0.43460 0.64648 0.34500
C 	C 	0.70800 0.29314 0.13302 -0.04800
C 	C 	0.73901 0.26796 0.15612 -0.07000
C 	C 	0.79004 0.29857 0.20922 0.10200
C 	C 	0.80977 0.35128 0.23598 -0.06900
C 	C 	0.77814 0.37508 0.21032 -0.05100
C 	C 	0.72761 0.34654 0.15942 -0.00100
C 	C 	0.79714 0.43363 0.24158 0.35100
C 	C 	0.65131 0.26128 0.08096 0.34600
C 	C 	0.80026 0.23010 0.22946 0.00700
C 	C 	0.84323 0.22257 0.26406 0.03400
C 	C 	0.84775 0.18211 0.27810 0.06600
C 	C 	0.80270 0.13968 0.24380 -0.11400
C 	C 	0.80396 0.10415 0.26112 0.07000
C 	C 	0.85055 0.11055 0.30730 -0.12000
C 	C 	0.89564 0.15307 0.34208 0.06800
C 	C 	0.89605 0.18887 0.32630 -0.11400
C 	C 	0.75789 0.06059 0.22758 0.02500
C 	C 	0.74955 0.02297 0.23516 0.01900
C 	C 	0.67202 0.94744 0.18460 0.09000
C 	C 	0.70304 0.92764 0.21646 -0.05800
C 	C 	0.67861 0.88063 0.20336 -0.06500
C 	C 	0.62603 0.85369 0.15832 0.01000
C 	C 	0.59636 0.87460 0.12754 -0.05600
C 	C 	0.61930 0.92170 0.14028 -0.06100
C 	C 	0.71063 0.86091 0.23892 0.35600
C 	C 	0.53910 0.84463 0.07872 0.34600
C 	C 	0.94371 0.16111 0.39302 0.03100
C 	C 	0.98705 0.20554 0.43926 0.00900
C 	C 	0.06658 0.22637 0.53380 0.10000
C 	C 	0.08232 0.28012 0.56078 -0.06900
C 	C 	0.13013 0.31041 0.61406 -0.04800
C 	C 	0.16241 0.28778 0.64176 -0.00000
C 	C 	0.14555 0.23497 0.61518 -0.05000
C 	C 	0.09792 0.20287 0.56038 -0.06500
C 	C 	0.14754 0.36934 0.64592 0.35200
C 	C 	0.17934 0.21188 0.64648 0.34500
N 	N 	0.72694 0.58419 0.76530 -0.09400
N 	N 	0.70842 0.60305 0.73034 -0.04100
N 	N 	0.73985 0.59972 0.71190 -0.07000
N 	N 	0.94721 0.52897 0.81894 -0.06900
N 	N 	0.98606 0.50800 0.83500 -0.04100
N 	N 	0.00542 0.50332 0.80350 -0.09000
N 	N 	0.85926 0.54646 0.54692 -0.04300
N 	N 	0.80665 0.54181 0.52294 -0.09400
N 	N 	0.87839 0.54934 0.59768 -0.07100
N 	N 	0.03836 0.18111 0.76530 -0.09400
N 	N 	0.02192 0.12729 0.73034 -0.03900
N 	N 	0.97205 0.11218 0.71190 -0.07100
N 	N 	0.87173 0.28997 0.81894 -0.06900
N 	N 	0.84894 0.32700 0.83500 -0.04000
N 	N 	0.79808 0.30018 0.80350 -0.09100
N 	N 	0.68766 0.00046 0.54692 -0.04200
N 	N 	0.71629 0.98113 0.52294 -0.09500
N 	N 	0.71929 0.04834 0.59768 -0.07100
N 	N 	0.58419 0.03836 0.76530 -0.09400
N 	N 	0.60305 0.02192 0.73034 -0.04000
N 	N 	0.59972 0.97205 0.71190 -0.07100
N 	N 	0.52897 0.87173 0.81894 -0.06900
N 	N 	0.50800 0.84894 0.83500 -0.04000
N 	N 	0.50332 0.79808 0.80350 -0.09100
N 	N 	0.54646 0.68766 0.54692 -0.04300
N 	N 	0.54181 0.71629 0.52294 -0.09400
N 	N 	0.54934 0.71929 0.59768 -0.07100
N 	N 	0.18111 0.72694 0.76530 -0.09400
N 	N 	0.12729 0.70842 0.73034 -0.04000
N 	N 	0.11218 0.73985 0.71190 -0.07000
N 	N 	0.28997 0.94721 0.81894 -0.06900
N 	N 	0.32700 0.98606 0.83500 -0.04100
N 	N 	0.30018 0.00542 0.80350 -0.09000
N 	N 	0.00046 0.85926 0.54692 -0.04200
N 	N 	0.98113 0.80665 0.52294 -0.09500
N 	N 	0.04834 0.87839 0.59768 -0.07100
N 	N 	0.27306 0.41581 0.23470 -0.09400
N 	N 	0.29158 0.39695 0.26966 -0.04200
N 	N 	0.26015 0.40028 0.28810 -0.07100
N 	N 	0.05279 0.47103 0.18106 -0.07200
N 	N 	0.01394 0.49200 0.16500 -0.04200
N 	N 	0.99458 0.49668 0.19650 -0.09300
N 	N 	0.14074 0.45354 0.45308 -0.04300
N 	N 	0.19335 0.45819 0.47706 -0.09400
N 	N 	0.12161 0.45066 0.40232 -0.07100
N 	N 	0.96164 0.81889 0.23470 -0.09400
N 	N 	0.97808 0.87271 0.26966 -0.04200
N 	N 	0.02795 0.88782 0.28810 -0.07100
N 	N 	0.12827 0.71003 0.18106 -0.07200
N 	N 	0.15106 0.67300 0.16500 -0.04300
N 	N 	0.20192 0.69982 0.19650 -0.09200
N 	N 	0.31234 0.99954 0.45308 -0.04400
N 	N 	0.28371 0.01887 0.47706 -0.09300
N 	N 	0.28071 0.95166 0.40232 -0.07200
N 	N 	0.41581 0.96164 0.23470 -0.09400
N 	N 	0.39695 0.97808 0.26966 -0.04200
N 	N 	0.40028 0.02795 0.28810 -0.07100
N 	N 	0.47103 0.12827 0.18106 -0.07200
N 	N 	0.49200 0.15106 0.16500 -0.04300
N 	N 	0.49668 0.20192 0.19650 -0.09200
N 	N 	0.45354 0.31234 0.45308 -0.04300
N 	N 	0.45819 0.28371 0.47706 -0.09400
N 	N 	0.45066 0.28071 0.40232 -0.07100
N 	N 	0.81889 0.27306 0.23470 -0.09400
N 	N 	0.87271 0.29158 0.26966 -0.04200
N 	N 	0.88782 0.26015 0.28810 -0.07100
N 	N 	0.71003 0.05279 0.18106 -0.07200
N 	N 	0.67300 0.01394 0.16500 -0.04200
N 	N 	0.69982 0.99458 0.19650 -0.09300
N 	N 	0.99954 0.14074 0.45308 -0.04400
N 	N 	0.01887 0.19335 0.47706 -0.09300
N 	N 	0.95166 0.12161 0.40232 -0.07200
O 	O 	0.54731 0.55081 0.78364 -0.40200
O 	O 	0.54110 0.55090 0.70930 -0.40000
O 	O 	0.71428 0.56308 0.93864 -0.38900
O 	O 	0.78630 0.57519 0.93844 -0.40100
O 	O 	0.13076 0.45035 0.93944 -0.38500
O 	O 	0.20201 0.46148 0.93798 -0.39700
O 	O 	0.18497 0.46796 0.77912 -0.40000
O 	O 	0.10996 0.47243 0.71634 -0.40300
O 	O 	0.83751 0.54064 0.37904 -0.39400
O 	O 	0.75707 0.52753 0.30534 -0.40500
O 	O 	0.61099 0.48699 0.37362 -0.40200
O 	O 	0.60588 0.50393 0.30974 -0.40500
O 	O 	0.23633 0.23283 0.78364 -0.40200
O 	O 	0.16820 0.15840 0.70930 -0.40000
O 	O 	0.22436 0.37556 0.93864 -0.38800
O 	O 	0.15214 0.36325 0.93844 -0.39700
O 	O 	0.80868 0.48909 0.93944 -0.38900
O 	O 	0.73597 0.47650 0.93798 -0.39800
O 	O 	0.59415 0.31116 0.77912 -0.40000
O 	O 	0.60638 0.24391 0.71634 -0.40300
O 	O 	0.54153 0.83840 0.37904 -0.39400
O 	O 	0.54827 0.77781 0.30534 -0.40500
O 	O 	0.76263 0.88663 0.37362 -0.40200
O 	O 	0.70386 0.80581 0.30974 -0.40500
O 	O 	0.55081 0.23633 0.78364 -0.40200
O 	O 	0.55090 0.16820 0.70930 -0.40000
O 	O 	0.56308 0.22436 0.93864 -0.38900
O 	O 	0.57519 0.15214 0.93844 -0.40100
O 	O 	0.45035 0.80868 0.93944 -0.38600
O 	O 	0.46148 0.73597 0.93798 -0.40000
O 	O 	0.46796 0.59415 0.77912 -0.40000
O 	O 	0.47243 0.60638 0.71634 -0.40300
O 	O 	0.54064 0.54153 0.37904 -0.39400
O 	O 	0.52753 0.54827 0.30534 -0.40500
O 	O 	0.48699 0.76263 0.37362 -0.40200
O 	O 	0.50393 0.70386 0.30974 -0.40500
O 	O 	0.23283 0.54731 0.78364 -0.40200
O 	O 	0.15840 0.54110 0.70930 -0.40000
O 	O 	0.37556 0.71428 0.93864 -0.39200
O 	O 	0.36325 0.78630 0.93844 -0.39800
O 	O 	0.48909 0.13076 0.93944 -0.38800
O 	O 	0.47650 0.20201 0.93798 -0.39800
O 	O 	0.31116 0.18497 0.77912 -0.40000
O 	O 	0.24391 0.10996 0.71634 -0.40300
O 	O 	0.83840 0.83751 0.37904 -0.39400
O 	O 	0.77781 0.75707 0.30534 -0.40500
O 	O 	0.88663 0.61099 0.37362 -0.40200
O 	O 	0.80581 0.60588 0.30974 -0.40500
O 	O 	0.45269 0.44919 0.21636 -0.40500
O 	O 	0.45890 0.44910 0.29070 -0.40100
O 	O 	0.28572 0.43692 0.06136 -0.40200
O 	O 	0.21370 0.42481 0.06156 -0.41000
O 	O 	0.86924 0.54965 0.06056 -0.40100
O 	O 	0.79799 0.53852 0.06202 -0.41000
O 	O 	0.81503 0.53204 0.22088 -0.40200
O 	O 	0.89004 0.52757 0.28366 -0.40400
O 	O 	0.16249 0.45936 0.62096 -0.39300
O 	O 	0.24293 0.47247 0.69466 -0.40400
O 	O 	0.38901 0.51301 0.62638 -0.40200
O 	O 	0.39412 0.49607 0.69026 -0.40400
O 	O 	0.76367 0.76717 0.21636 -0.40500
O 	O 	0.83180 0.84160 0.29070 -0.40100
O 	O 	0.77564 0.62444 0.06136 -0.40200
O 	O 	0.84786 0.63675 0.06156 -0.41300
O 	O 	0.19132 0.51091 0.06056 -0.39800
O 	O 	0.26403 0.52350 0.06202 -0.40900
O 	O 	0.40585 0.68884 0.22088 -0.40200
O 	O 	0.39362 0.75609 0.28366 -0.40400
O 	O 	0.45847 0.16160 0.62096 -0.39300
O 	O 	0.45173 0.22219 0.69466 -0.40400
O 	O 	0.23737 0.11337 0.62638 -0.40200
O 	O 	0.29614 0.19419 0.69026 -0.40400
O 	O 	0.44919 0.76367 0.21636 -0.40500
O 	O 	0.44910 0.83180 0.29070 -0.40100
O 	O 	0.43692 0.77564 0.06136 -0.40500
O 	O 	0.42481 0.84786 0.06156 -0.41100
O 	O 	0.54965 0.19132 0.06056 -0.40100
O 	O 	0.53852 0.26403 0.06202 -0.41000
O 	O 	0.53204 0.40585 0.22088 -0.40200
O 	O 	0.52757 0.39362 0.28366 -0.40400
O 	O 	0.45936 0.45847 0.62096 -0.39400
O 	O 	0.47247 0.45173 0.69466 -0.40400
O 	O 	0.51301 0.23737 0.62638 -0.40200
O 	O 	0.49607 0.29614 0.69026 -0.40400
O 	O 	0.76717 0.45269 0.21636 -0.40500
O 	O 	0.84160 0.45890 0.29070 -0.40100
O 	O 	0.62444 0.28572 0.06136 -0.40200
O 	O 	0.63675 0.21370 0.06156 -0.41300
O 	O 	0.51091 0.86924 0.06056 -0.39900
O 	O 	0.52350 0.79799 0.06202 -0.41300
O 	O 	0.68884 0.81503 0.22088 -0.40200
O 	O 	0.75609 0.89004 0.28366 -0.40400
O 	O 	0.16160 0.16249 0.62096 -0.39300
O 	O 	0.22219 0.24293 0.69466 -0.40400
O 	O 	0.11337 0.38901 0.62638 -0.40200
O 	O 	0.19419 0.39412 0.69026 -0.40400
