data_crystal

_cell_length_a 31.31090
_cell_length_b 31.31090
_cell_length_c 31.49770
_cell_angle_alpha 60.19590
_cell_angle_beta  60.19590
_cell_angle_gamma 90.00000

_symmetry_space_group_name_	'P 1'
_symmetry_space_group_name_H-M	'P 1'

loop_
_symmetry_equiv_pos_as_xyz
  x,y,z

loop_
_atom_site_label
_atom_site_type_symbol
_atom_site_fract_x
_atom_site_fract_y
_atom_site_fract_z
_atom_site_charge
Cu	Cu	0.73215 0.48225 0.74560 0.91600
Cu	Cu	0.80948 0.47425 0.66368 0.90600
Cu	Cu	0.52225 0.77215 0.74560 0.91600
Cu	Cu	0.52684 0.86207 0.66368 0.90600
Cu	Cu	0.48225 0.52225 0.74560 0.91600
Cu	Cu	0.47425 0.52684 0.66368 0.90500
Cu	Cu	0.77215 0.73215 0.74560 0.91500
Cu	Cu	0.86207 0.80948 0.66368 0.90500
Cu	Cu	0.26785 0.51775 0.25440 0.91400
Cu	Cu	0.19052 0.52575 0.33632 0.90500
Cu	Cu	0.47775 0.22785 0.25440 0.91400
Cu	Cu	0.47316 0.13793 0.33632 0.90500
Cu	Cu	0.51775 0.47775 0.25440 0.91400
Cu	Cu	0.52575 0.47316 0.33632 0.90500
Cu	Cu	0.22785 0.26785 0.25440 0.91400
Cu	Cu	0.13793 0.19052 0.33632 0.90500
Cu	Cu	0.74948 0.46148 -0.00000 0.88900
Cu	Cu	0.83350 0.44979 1.00000 0.92400
Cu	Cu	0.25052 0.53852 -0.00000 0.89000
Cu	Cu	0.16650 0.55021 -0.00000 0.89200
Cu	Cu	0.46148 0.25052 -0.00000 0.89000
Cu	Cu	0.44979 0.16650 -0.00000 0.89200
Cu	Cu	0.53852 0.74948 -0.00000 0.88900
Cu	Cu	0.55021 0.83350 1.00000 0.92400
H 	H 	0.37000 0.45980 0.45200 0.09300
H 	H 	0.20330 0.45830 0.54980 0.03300
H 	H 	0.13320 0.45780 0.63400 0.08000
H 	H 	0.08840 0.45900 0.77520 0.07900
H 	H 	0.23280 0.46090 0.67960 0.07900
H 	H 	0.25600 0.48820 0.72860 0.03200
H 	H 	0.30860 0.49480 0.75400 0.07100
H 	H 	0.32810 0.51610 0.85700 0.05600
H 	H 	0.18860 0.49530 0.88940 0.09400
H 	H 	0.78500 0.44680 0.85740 0.07100
H 	H 	0.90700 0.42180 0.86320 0.08400
H 	H 	0.89910 0.43480 0.73480 0.08900
H 	H 	0.00690 0.46090 0.78500 0.04800
H 	H 	0.35650 0.47460 0.32620 0.06800
H 	H 	0.24020 0.48200 0.45480 0.07800
H 	H 	0.17800 0.08820 0.45200 0.09200
H 	H 	0.24690 0.99190 0.54980 0.03300
H 	H 	0.23280 0.90820 0.63400 0.08100
H 	H 	0.13640 0.76580 0.77520 0.08000
H 	H 	0.08760 0.85950 0.67960 0.07900
H 	H 	0.01540 0.78320 0.72860 0.03200
H 	H 	0.93740 0.75120 0.75400 0.07100
H 	H 	0.81490 0.62690 0.85700 0.05600
H 	H 	0.92200 0.61530 0.88940 0.09400
H 	H 	0.35760 0.69580 0.85740 0.07100
H 	H 	0.22980 0.71500 0.86320 0.08400
H 	H 	0.36610 0.83040 0.73480 0.09000
H 	H 	0.20810 0.75410 0.78500 0.04800
H 	H 	0.31730 0.19920 0.32620 0.06800
H 	H 	0.30500 0.06320 0.45480 0.07800
H 	H 	0.45980 0.17800 0.45200 0.09300
H 	H 	0.45830 0.24690 0.54980 0.03300
H 	H 	0.45780 0.23280 0.63400 0.08000
H 	H 	0.45900 0.13640 0.77520 0.08000
H 	H 	0.46090 0.08760 0.67960 0.07800
H 	H 	0.48820 0.01540 0.72860 0.03200
H 	H 	0.49480 0.93740 0.75400 0.07100
H 	H 	0.51610 0.81490 0.85700 0.05600
H 	H 	0.49530 0.92200 0.88940 0.09400
H 	H 	0.44680 0.35760 0.85740 0.07100
H 	H 	0.42180 0.22980 0.86320 0.08400
H 	H 	0.43480 0.36610 0.73480 0.08900
H 	H 	0.46090 0.20810 0.78500 0.04800
H 	H 	0.47460 0.31730 0.32620 0.06800
H 	H 	0.48200 0.30500 0.45480 0.07900
H 	H 	0.08820 0.37000 0.45200 0.09200
H 	H 	0.99190 0.20330 0.54980 0.03300
H 	H 	0.90820 0.13320 0.63400 0.08000
H 	H 	0.76580 0.08840 0.77520 0.08000
H 	H 	0.85950 0.23280 0.67960 0.07900
H 	H 	0.78320 0.25600 0.72860 0.03200
H 	H 	0.75120 0.30860 0.75400 0.07100
H 	H 	0.62690 0.32810 0.85700 0.05600
H 	H 	0.61530 0.18860 0.88940 0.09400
H 	H 	0.69580 0.78500 0.85740 0.07100
H 	H 	0.71500 0.90700 0.86320 0.08500
H 	H 	0.83040 0.89910 0.73480 0.09000
H 	H 	0.75410 0.00690 0.78500 0.04800
H 	H 	0.19920 0.35650 0.32620 0.06800
H 	H 	0.06320 0.24020 0.45480 0.07800
H 	H 	0.63000 0.54020 0.54800 0.09300
H 	H 	0.79670 0.54170 0.45020 0.03300
H 	H 	0.86680 0.54220 0.36600 0.08000
H 	H 	0.91160 0.54100 0.22480 0.07600
H 	H 	0.76720 0.53910 0.32040 0.07700
H 	H 	0.74400 0.51180 0.27140 0.03200
H 	H 	0.69140 0.50520 0.24600 0.06800
H 	H 	0.67190 0.48390 0.14300 0.04800
H 	H 	0.81140 0.50470 0.11060 0.08300
H 	H 	0.21500 0.55320 0.14260 0.06300
H 	H 	0.09300 0.57820 0.13680 0.07500
H 	H 	0.10090 0.56520 0.26520 0.08600
H 	H 	0.99310 0.53910 0.21500 0.04500
H 	H 	0.64350 0.52540 0.67380 0.07000
H 	H 	0.75980 0.51800 0.54520 0.07900
H 	H 	0.82200 0.91180 0.54800 0.09300
H 	H 	0.75310 0.00810 0.45020 0.03300
H 	H 	0.76720 0.09180 0.36600 0.07900
H 	H 	0.86360 0.23420 0.22480 0.07600
H 	H 	0.91240 0.14050 0.32040 0.07700
H 	H 	0.98460 0.21680 0.27140 0.03200
H 	H 	0.06260 0.24880 0.24600 0.06800
H 	H 	0.18510 0.37310 0.14300 0.04800
H 	H 	0.07800 0.38470 0.11060 0.08300
H 	H 	0.64240 0.30420 0.14260 0.06300
H 	H 	0.77020 0.28500 0.13680 0.07500
H 	H 	0.63390 0.16960 0.26520 0.08600
H 	H 	0.79190 0.24590 0.21500 0.04600
H 	H 	0.68270 0.80080 0.67380 0.07000
H 	H 	0.69500 0.93680 0.54520 0.07900
H 	H 	0.54020 0.82200 0.54800 0.09300
H 	H 	0.54170 0.75310 0.45020 0.03300
H 	H 	0.54220 0.76720 0.36600 0.07900
H 	H 	0.54100 0.86360 0.22480 0.07600
H 	H 	0.53910 0.91240 0.32040 0.07800
H 	H 	0.51180 0.98460 0.27140 0.03200
H 	H 	0.50520 0.06260 0.24600 0.06800
H 	H 	0.48390 0.18510 0.14300 0.04800
H 	H 	0.50470 0.07800 0.11060 0.08300
H 	H 	0.55320 0.64240 0.14260 0.06300
H 	H 	0.57820 0.77020 0.13680 0.07600
H 	H 	0.56520 0.63390 0.26520 0.08700
H 	H 	0.53910 0.79190 0.21500 0.04600
H 	H 	0.52540 0.68270 0.67380 0.07000
H 	H 	0.51800 0.69500 0.54520 0.07900
H 	H 	0.91180 0.63000 0.54800 0.09300
H 	H 	0.00810 0.79670 0.45020 0.03300
H 	H 	0.09180 0.86680 0.36600 0.07900
H 	H 	0.23420 0.91160 0.22480 0.07600
H 	H 	0.14050 0.76720 0.32040 0.07700
H 	H 	0.21680 0.74400 0.27140 0.03200
H 	H 	0.24880 0.69140 0.24600 0.06800
H 	H 	0.37310 0.67190 0.14300 0.04800
H 	H 	0.38470 0.81140 0.11060 0.08300
H 	H 	0.30420 0.21500 0.14260 0.06300
H 	H 	0.28500 0.09300 0.13680 0.07500
H 	H 	0.16960 0.10090 0.26520 0.08600
H 	H 	0.24590 0.99310 0.21500 0.04500
H 	H 	0.80080 0.64350 0.67380 0.07000
H 	H 	0.93680 0.75980 0.54520 0.07900
C 	C 	0.42870 0.47090 0.34860 0.35900
C 	C 	0.37230 0.47420 0.38320 -0.02600
C 	C 	0.35190 0.46700 0.43400 -0.08700
C 	C 	0.30380 0.47020 0.46080 0.10100
C 	C 	0.23160 0.46110 0.55260 0.01800
C 	C 	0.23160 0.45970 0.59980 0.06400
C 	C 	0.18710 0.44910 0.65440 0.04400
C 	C 	0.13740 0.44980 0.66440 -0.10500
C 	C 	0.09990 0.44030 0.71200 0.04900
C 	C 	0.11490 0.45690 0.74480 -0.09600
C 	C 	0.16160 0.46760 0.73180 0.05200
C 	C 	0.19960 0.45930 0.68700 -0.09200
C 	C 	0.16900 0.47120 0.76900 0.04000
C 	C 	0.22310 0.48370 0.75900 0.02300
C 	C 	0.23930 0.49700 0.82000 0.10300
C 	C 	0.29620 0.50080 0.78380 -0.04600
C 	C 	0.33010 0.51380 0.79700 -0.08400
C 	C 	0.30830 0.51740 0.84200 0.02900
C 	C 	0.25960 0.52310 0.87140 -0.05900
C 	C 	0.22450 0.50370 0.86260 -0.07300
C 	C 	0.24060 0.53050 0.91860 0.33000
C 	C 	0.81200 0.45850 0.76080 0.31400
C 	C 	0.83990 0.44540 0.79000 -0.03500
C 	C 	0.81860 0.44430 0.83960 -0.01100
C 	C 	0.84650 0.43930 0.86600 -0.04200
C 	C 	0.89160 0.43190 0.84200 -0.07300
C 	C 	0.91760 0.43800 0.78800 0.10100
C 	C 	0.88660 0.43880 0.76620 -0.06800
C 	C 	0.82620 0.43920 0.91660 0.28700
C 	C 	0.00500 0.44440 0.76760 -0.02000
C 	C 	0.38080 0.51800 0.76380 0.30500
C 	C 	0.04360 0.42990 0.73220 0.07800
C 	C 	0.34380 0.47790 0.35800 -0.02400
C 	C 	0.29800 0.48620 0.38180 -0.03700
C 	C 	0.27380 0.48000 0.43560 -0.07200
C 	C 	0.27230 0.49670 0.35180 0.29700
C 	C 	0.22270 0.18050 0.34860 0.35900
C 	C 	0.24450 0.14260 0.38320 -0.02600
C 	C 	0.21410 0.09900 0.43400 -0.08700
C 	C 	0.23540 0.06900 0.46080 0.10100
C 	C 	0.21580 0.98630 0.55260 0.02200
C 	C 	0.16860 0.94050 0.59980 0.06300
C 	C 	0.15850 0.89650 0.65440 0.04500
C 	C 	0.19820 0.88580 0.66440 -0.10600
C 	C 	0.18810 0.84770 0.71200 0.05000
C 	C 	0.14030 0.79830 0.74480 -0.09700
C 	C 	0.10660 0.80060 0.73180 0.05200
C 	C 	0.11340 0.85370 0.68700 -0.09200
C 	C 	0.06200 0.75980 0.76900 0.04100
C 	C 	0.01790 0.75730 0.75900 0.02000
C 	C 	0.94070 0.68300 0.82000 0.10300
C 	C 	0.92000 0.71540 0.78380 -0.04600
C 	C 	0.87290 0.68920 0.79700 -0.08400
C 	C 	0.84970 0.64060 0.84200 0.02900
C 	C 	0.86900 0.60550 0.87140 -0.06000
C 	C 	0.91290 0.63370 0.86260 -0.07200
C 	C 	0.84080 0.55090 0.91860 0.33100
C 	C 	0.42720 0.78070 0.76080 0.31400
C 	C 	0.37010 0.76460 0.79000 -0.03500
C 	C 	0.34180 0.71610 0.83960 -0.01100
C 	C 	0.28750 0.69470 0.86600 -0.04100
C 	C 	0.26640 0.72610 0.84200 -0.07400
C 	C 	0.29440 0.77400 0.78800 0.10100
C 	C 	0.34720 0.79500 0.76620 -0.06800
C 	C 	0.25720 0.64420 0.91660 0.28600
C 	C 	0.22740 0.78800 0.76760 -0.01700
C 	C 	0.85540 0.71820 0.76380 0.30500
C 	C 	0.22420 0.83790 0.73220 0.07700
C 	C 	0.29820 0.16410 0.35800 -0.02300
C 	C 	0.32020 0.13200 0.38180 -0.03800
C 	C 	0.29060 0.08440 0.43560 -0.07200
C 	C 	0.37590 0.15150 0.35180 0.29700
C 	C 	0.47090 0.22270 0.34860 0.35900
C 	C 	0.47420 0.24450 0.38320 -0.02600
C 	C 	0.46700 0.21410 0.43400 -0.08700
C 	C 	0.47020 0.23540 0.46080 0.10100
C 	C 	0.46110 0.21580 0.55260 0.01800
C 	C 	0.45970 0.16860 0.59980 0.06400
C 	C 	0.44910 0.15850 0.65440 0.04400
C 	C 	0.44980 0.19820 0.66440 -0.10500
C 	C 	0.44030 0.18810 0.71200 0.04900
C 	C 	0.45690 0.14030 0.74480 -0.09600
C 	C 	0.46760 0.10660 0.73180 0.05200
C 	C 	0.45930 0.11340 0.68700 -0.09200
C 	C 	0.47120 0.06200 0.76900 0.04100
C 	C 	0.48370 0.01790 0.75900 0.01900
C 	C 	0.49700 0.94070 0.82000 0.10300
C 	C 	0.50080 0.92000 0.78380 -0.04600
C 	C 	0.51380 0.87290 0.79700 -0.08400
C 	C 	0.51740 0.84970 0.84200 0.02900
C 	C 	0.52310 0.86900 0.87140 -0.06000
C 	C 	0.50370 0.91290 0.86260 -0.07200
C 	C 	0.53050 0.84080 0.91860 0.33100
C 	C 	0.45850 0.42720 0.76080 0.31400
C 	C 	0.44540 0.37010 0.79000 -0.03500
C 	C 	0.44430 0.34180 0.83960 -0.01100
C 	C 	0.43930 0.28750 0.86600 -0.04100
C 	C 	0.43190 0.26640 0.84200 -0.07400
C 	C 	0.43800 0.29440 0.78800 0.10100
C 	C 	0.43880 0.34720 0.76620 -0.06800
C 	C 	0.43920 0.25720 0.91660 0.28600
C 	C 	0.44440 0.22740 0.76760 -0.01700
C 	C 	0.51800 0.85540 0.76380 0.30500
C 	C 	0.42990 0.22420 0.73220 0.07700
C 	C 	0.47790 0.29820 0.35800 -0.02400
C 	C 	0.48620 0.32020 0.38180 -0.03700
C 	C 	0.48000 0.29060 0.43560 -0.07200
C 	C 	0.49670 0.37590 0.35180 0.29700
C 	C 	0.18050 0.42870 0.34860 0.35900
C 	C 	0.14260 0.37230 0.38320 -0.02600
C 	C 	0.09900 0.35190 0.43400 -0.08700
C 	C 	0.06900 0.30380 0.46080 0.10100
C 	C 	0.98630 0.23160 0.55260 0.02200
C 	C 	0.94050 0.23160 0.59980 0.06300
C 	C 	0.89650 0.18710 0.65440 0.04500
C 	C 	0.88580 0.13740 0.66440 -0.10600
C 	C 	0.84770 0.09990 0.71200 0.04900
C 	C 	0.79830 0.11490 0.74480 -0.09700
C 	C 	0.80060 0.16160 0.73180 0.05200
C 	C 	0.85370 0.19960 0.68700 -0.09300
C 	C 	0.75980 0.16900 0.76900 0.04000
C 	C 	0.75730 0.22310 0.75900 0.02300
C 	C 	0.68300 0.23930 0.82000 0.10300
C 	C 	0.71540 0.29620 0.78380 -0.04600
C 	C 	0.68920 0.33010 0.79700 -0.08400
C 	C 	0.64060 0.30830 0.84200 0.02900
C 	C 	0.60550 0.25960 0.87140 -0.05900
C 	C 	0.63370 0.22450 0.86260 -0.07300
C 	C 	0.55090 0.24060 0.91860 0.33000
C 	C 	0.78070 0.81200 0.76080 0.31400
C 	C 	0.76460 0.83990 0.79000 -0.03500
C 	C 	0.71610 0.81860 0.83960 -0.01100
C 	C 	0.69470 0.84650 0.86600 -0.04100
C 	C 	0.72610 0.89160 0.84200 -0.07400
C 	C 	0.77400 0.91760 0.78800 0.10100
C 	C 	0.79500 0.88660 0.76620 -0.06800
C 	C 	0.64420 0.82620 0.91660 0.28700
C 	C 	0.78800 0.00500 0.76760 -0.02000
C 	C 	0.71820 0.38080 0.76380 0.30500
C 	C 	0.83790 0.04360 0.73220 0.07800
C 	C 	0.16410 0.34380 0.35800 -0.02300
C 	C 	0.13200 0.29800 0.38180 -0.03800
C 	C 	0.08440 0.27380 0.43560 -0.07200
C 	C 	0.15150 0.27230 0.35180 0.29700
C 	C 	0.57130 0.52910 0.65140 0.35800
C 	C 	0.62770 0.52580 0.61680 -0.02400
C 	C 	0.64810 0.53300 0.56600 -0.08800
C 	C 	0.69620 0.52980 0.53920 0.10100
C 	C 	0.76840 0.53890 0.44740 0.01700
C 	C 	0.76840 0.54030 0.40020 0.06400
C 	C 	0.81290 0.55090 0.34560 0.04200
C 	C 	0.86260 0.55020 0.33560 -0.10500
C 	C 	0.90010 0.55970 0.28800 0.04700
C 	C 	0.88510 0.54310 0.25520 -0.09700
C 	C 	0.83840 0.53240 0.26820 0.05000
C 	C 	0.80040 0.54070 0.31300 -0.09200
C 	C 	0.83100 0.52880 0.23100 0.03900
C 	C 	0.77690 0.51630 0.24100 0.02000
C 	C 	0.76070 0.50300 0.18000 0.09500
C 	C 	0.70380 0.49920 0.21620 -0.04400
C 	C 	0.66990 0.48620 0.20300 -0.09200
C 	C 	0.69170 0.48260 0.15800 0.03500
C 	C 	0.74040 0.47690 0.12860 -0.07200
C 	C 	0.77550 0.49630 0.13740 -0.06800
C 	C 	0.75940 0.46950 0.08140 0.33600
C 	C 	0.18800 0.54150 0.23920 0.31600
C 	C 	0.16010 0.55460 0.21000 -0.04200
C 	C 	0.18140 0.55570 0.16040 -0.00600
C 	C 	0.15350 0.56070 0.13400 -0.05300
C 	C 	0.10840 0.56810 0.15800 -0.06900
C 	C 	0.08240 0.56200 0.21200 0.09400
C 	C 	0.11340 0.56120 0.23380 -0.06500
C 	C 	0.17380 0.56080 0.08340 0.28800
C 	C 	0.99500 0.55560 0.23240 -0.01600
C 	C 	0.61920 0.48200 0.23620 0.30600
C 	C 	0.95640 0.57010 0.26780 0.07500
C 	C 	0.65620 0.52210 0.64200 -0.02500
C 	C 	0.70200 0.51380 0.61820 -0.03600
C 	C 	0.72620 0.52000 0.56440 -0.07300
C 	C 	0.72770 0.50330 0.64820 0.29700
C 	C 	0.77730 0.81950 0.65140 0.35800
C 	C 	0.75550 0.85740 0.61680 -0.02400
C 	C 	0.78590 0.90100 0.56600 -0.08800
C 	C 	0.76460 0.93100 0.53920 0.10200
C 	C 	0.78420 0.01370 0.44740 0.01300
C 	C 	0.83140 0.05950 0.40020 0.06500
C 	C 	0.84150 0.10350 0.34560 0.04100
C 	C 	0.80180 0.11420 0.33560 -0.10400
C 	C 	0.81190 0.15230 0.28800 0.04500
C 	C 	0.85970 0.20170 0.25520 -0.09700
C 	C 	0.89340 0.19940 0.26820 0.05000
C 	C 	0.88660 0.14630 0.31300 -0.09200
C 	C 	0.93800 0.24020 0.23100 0.03900
C 	C 	0.98210 0.24270 0.24100 0.02300
C 	C 	0.05930 0.31700 0.18000 0.09500
C 	C 	0.08000 0.28460 0.21620 -0.04400
C 	C 	0.12710 0.31080 0.20300 -0.09200
C 	C 	0.15030 0.35940 0.15800 0.03500
C 	C 	0.13100 0.39450 0.12860 -0.07100
C 	C 	0.08710 0.36630 0.13740 -0.06800
C 	C 	0.15920 0.44910 0.08140 0.33500
C 	C 	0.57280 0.21930 0.23920 0.31600
C 	C 	0.62990 0.23540 0.21000 -0.04300
C 	C 	0.65820 0.28390 0.16040 -0.00600
C 	C 	0.71250 0.30530 0.13400 -0.05300
C 	C 	0.73360 0.27390 0.15800 -0.06800
C 	C 	0.70560 0.22600 0.21200 0.09400
C 	C 	0.65280 0.20500 0.23380 -0.06500
C 	C 	0.74280 0.35580 0.08340 0.29000
C 	C 	0.77260 0.21200 0.23240 -0.02000
C 	C 	0.14460 0.28180 0.23620 0.30600
C 	C 	0.77580 0.16210 0.26780 0.07500
C 	C 	0.70180 0.83590 0.64200 -0.02500
C 	C 	0.67980 0.86800 0.61820 -0.03600
C 	C 	0.70940 0.91560 0.56440 -0.07300
C 	C 	0.62410 0.84850 0.64820 0.29600
C 	C 	0.52910 0.77730 0.65140 0.35800
C 	C 	0.52580 0.75550 0.61680 -0.02400
C 	C 	0.53300 0.78590 0.56600 -0.08800
C 	C 	0.52980 0.76460 0.53920 0.10200
C 	C 	0.53890 0.78420 0.44740 0.01700
C 	C 	0.54030 0.83140 0.40020 0.06400
C 	C 	0.55090 0.84150 0.34560 0.04200
C 	C 	0.55020 0.80180 0.33560 -0.10400
C 	C 	0.55970 0.81190 0.28800 0.04600
C 	C 	0.54310 0.85970 0.25520 -0.09700
C 	C 	0.53240 0.89340 0.26820 0.05000
C 	C 	0.54070 0.88660 0.31300 -0.09200
C 	C 	0.52880 0.93800 0.23100 0.03900
C 	C 	0.51630 0.98210 0.24100 0.02300
C 	C 	0.50300 0.05930 0.18000 0.09500
C 	C 	0.49920 0.08000 0.21620 -0.04400
C 	C 	0.48620 0.12710 0.20300 -0.09200
C 	C 	0.48260 0.15030 0.15800 0.03500
C 	C 	0.47690 0.13100 0.12860 -0.07100
C 	C 	0.49630 0.08710 0.13740 -0.06800
C 	C 	0.46950 0.15920 0.08140 0.33500
C 	C 	0.54150 0.57280 0.23920 0.31600
C 	C 	0.55460 0.62990 0.21000 -0.04200
C 	C 	0.55570 0.65820 0.16040 -0.00600
C 	C 	0.56070 0.71250 0.13400 -0.05300
C 	C 	0.56810 0.73360 0.15800 -0.06800
C 	C 	0.56200 0.70560 0.21200 0.09500
C 	C 	0.56120 0.65280 0.23380 -0.06500
C 	C 	0.56080 0.74280 0.08340 0.29000
C 	C 	0.55560 0.77260 0.23240 -0.01900
C 	C 	0.48200 0.14460 0.23620 0.30600
C 	C 	0.57010 0.77580 0.26780 0.07500
C 	C 	0.52210 0.70180 0.64200 -0.02500
C 	C 	0.51380 0.67980 0.61820 -0.03600
C 	C 	0.52000 0.70940 0.56440 -0.07300
C 	C 	0.50330 0.62410 0.64820 0.29700
C 	C 	0.81950 0.57130 0.65140 0.35800
C 	C 	0.85740 0.62770 0.61680 -0.02400
C 	C 	0.90100 0.64810 0.56600 -0.08800
C 	C 	0.93100 0.69620 0.53920 0.10200
C 	C 	0.01370 0.76840 0.44740 0.01300
C 	C 	0.05950 0.76840 0.40020 0.06500
C 	C 	0.10350 0.81290 0.34560 0.04100
C 	C 	0.11420 0.86260 0.33560 -0.10400
C 	C 	0.15230 0.90010 0.28800 0.04600
C 	C 	0.20170 0.88510 0.25520 -0.09700
C 	C 	0.19940 0.83840 0.26820 0.04900
C 	C 	0.14630 0.80040 0.31300 -0.09200
C 	C 	0.24020 0.83100 0.23100 0.03900
C 	C 	0.24270 0.77690 0.24100 0.01900
C 	C 	0.31700 0.76070 0.18000 0.09500
C 	C 	0.28460 0.70380 0.21620 -0.04400
C 	C 	0.31080 0.66990 0.20300 -0.09200
C 	C 	0.35940 0.69170 0.15800 0.03500
C 	C 	0.39450 0.74040 0.12860 -0.07200
C 	C 	0.36630 0.77550 0.13740 -0.06800
C 	C 	0.44910 0.75940 0.08140 0.33600
C 	C 	0.21930 0.18800 0.23920 0.31600
C 	C 	0.23540 0.16010 0.21000 -0.04300
C 	C 	0.28390 0.18140 0.16040 -0.00600
C 	C 	0.30530 0.15350 0.13400 -0.05300
C 	C 	0.27390 0.10840 0.15800 -0.06900
C 	C 	0.22600 0.08240 0.21200 0.09400
C 	C 	0.20500 0.11340 0.23380 -0.06500
C 	C 	0.35580 0.17380 0.08340 0.28800
C 	C 	0.21200 0.99500 0.23240 -0.01600
C 	C 	0.28180 0.61920 0.23620 0.30600
C 	C 	0.16210 0.95640 0.26780 0.07500
C 	C 	0.83590 0.65620 0.64200 -0.02500
C 	C 	0.86800 0.70200 0.61820 -0.03600
C 	C 	0.91560 0.72620 0.56440 -0.07300
C 	C 	0.84850 0.72770 0.64820 0.29600
N 	N 	0.27640 0.46660 0.51800 -0.09500
N 	N 	0.31310 0.48350 0.52620 -0.04600
N 	N 	0.27370 0.46550 0.58460 -0.08700
N 	N 	0.13710 0.45720 0.82280 -0.07200
N 	N 	0.15930 0.46110 0.84760 -0.03700
N 	N 	0.21060 0.48610 0.80300 -0.09900
N 	N 	0.96460 0.42660 0.76800 -0.08600
N 	N 	0.98050 0.41590 0.72640 -0.04100
N 	N 	0.03060 0.41610 0.71140 -0.09000
N 	N 	0.20560 0.01540 0.51800 -0.09800
N 	N 	0.16070 0.99030 0.52620 -0.04400
N 	N 	0.14170 0.94990 0.58460 -0.08700
N 	N 	0.04010 0.72000 0.82280 -0.07300
N 	N 	0.99310 0.69130 0.84760 -0.03600
N 	N 	0.98640 0.71090 0.80300 -0.09800
N 	N 	0.26740 0.80540 0.76800 -0.08700
N 	N 	0.29310 0.85770 0.72640 -0.04100
N 	N 	0.25800 0.87250 0.71140 -0.08800
N 	N 	0.46660 0.20560 0.51800 -0.09500
N 	N 	0.48350 0.16070 0.52620 -0.04600
N 	N 	0.46550 0.14170 0.58460 -0.08800
N 	N 	0.45720 0.04010 0.82280 -0.07300
N 	N 	0.46110 0.99310 0.84760 -0.03600
N 	N 	0.48610 0.98640 0.80300 -0.09800
N 	N 	0.42660 0.26740 0.76800 -0.08700
N 	N 	0.41590 0.29310 0.72640 -0.04200
N 	N 	0.41610 0.25800 0.71140 -0.08900
N 	N 	0.01540 0.27640 0.51800 -0.09800
N 	N 	0.99030 0.31310 0.52620 -0.04400
N 	N 	0.94990 0.27370 0.58460 -0.08700
N 	N 	0.72000 0.13710 0.82280 -0.07200
N 	N 	0.69130 0.15930 0.84760 -0.03700
N 	N 	0.71090 0.21060 0.80300 -0.09900
N 	N 	0.80540 0.96460 0.76800 -0.08600
N 	N 	0.85770 0.98050 0.72640 -0.04000
N 	N 	0.87250 0.03060 0.71140 -0.09000
N 	N 	0.72360 0.53340 0.48200 -0.09500
N 	N 	0.68690 0.51650 0.47380 -0.04600
N 	N 	0.72630 0.53450 0.41540 -0.08800
N 	N 	0.86290 0.54280 0.17720 -0.07700
N 	N 	0.84070 0.53890 0.15240 -0.04500
N 	N 	0.78940 0.51390 0.19700 -0.09900
N 	N 	0.03540 0.57340 0.23200 -0.09000
N 	N 	0.01950 0.58410 0.27360 -0.04500
N 	N 	0.96940 0.58390 0.28860 -0.08900
N 	N 	0.79440 0.98460 0.48200 -0.09200
N 	N 	0.83930 0.00970 0.47380 -0.04700
N 	N 	0.85830 0.05010 0.41540 -0.08900
N 	N 	0.95990 0.28000 0.17720 -0.07600
N 	N 	0.00690 0.30870 0.15240 -0.04700
N 	N 	0.01360 0.28910 0.19700 -0.10100
N 	N 	0.73260 0.19460 0.23200 -0.08800
N 	N 	0.70690 0.14230 0.27360 -0.04400
N 	N 	0.74200 0.12750 0.28860 -0.09100
N 	N 	0.53340 0.79440 0.48200 -0.09500
N 	N 	0.51650 0.83930 0.47380 -0.04600
N 	N 	0.53450 0.85830 0.41540 -0.08800
N 	N 	0.54280 0.95990 0.17720 -0.07600
N 	N 	0.53890 0.00690 0.15240 -0.04600
N 	N 	0.51390 0.01360 0.19700 -0.10100
N 	N 	0.57340 0.73260 0.23200 -0.08800
N 	N 	0.58410 0.70690 0.27360 -0.04400
N 	N 	0.58390 0.74200 0.28860 -0.09000
N 	N 	0.98460 0.72360 0.48200 -0.09200
N 	N 	0.00970 0.68690 0.47380 -0.04700
N 	N 	0.05010 0.72630 0.41540 -0.08900
N 	N 	0.28000 0.86290 0.17720 -0.07700
N 	N 	0.30870 0.84070 0.15240 -0.04500
N 	N 	0.28910 0.78940 0.19700 -0.09900
N 	N 	0.19460 0.03540 0.23200 -0.09000
N 	N 	0.14230 0.01950 0.27360 -0.04600
N 	N 	0.12750 0.96940 0.28860 -0.08900
O 	O 	0.44716 0.47502 0.30316 -0.43000
O 	O 	0.45148 0.46400 0.37560 -0.39700
O 	O 	0.76732 0.45854 0.78664 -0.39000
O 	O 	0.83589 0.45632 0.71316 -0.37200
O 	O 	0.41313 0.52049 0.78038 -0.37800
O 	O 	0.40188 0.51707 0.71606 -0.37400
O 	O 	0.29175 0.49721 0.30470 -0.38800
O 	O 	0.22777 0.50673 0.37494 -0.36500
O 	O 	0.77831 0.44673 0.93934 -0.34400
O 	O 	0.85190 0.43840 0.93820 -0.37000
O 	O 	0.26797 0.52692 0.93946 -0.37800
O 	O 	0.19559 0.53514 0.94036 -0.37400
O 	O 	0.24968 0.22182 0.30316 -0.43000
O 	O 	0.17292 0.16040 0.37560 -0.39700
O 	O 	0.44604 0.75482 0.78664 -0.39000
O 	O 	0.45095 0.83052 0.71316 -0.37200
O 	O 	0.80649 0.69913 0.78038 -0.37800
O 	O 	0.88206 0.76687 0.71606 -0.37400
O 	O 	0.40355 0.19809 0.30470 -0.38800
O 	O 	0.39729 0.11833 0.37494 -0.36500
O 	O 	0.28235 0.61393 0.93934 -0.34300
O 	O 	0.20990 0.62340 0.93820 -0.36400
O 	O 	0.79257 0.53362 0.93946 -0.37900
O 	O 	0.86405 0.52450 0.94036 -0.38000
O 	O 	0.47502 0.24968 0.30316 -0.43000
O 	O 	0.46400 0.17292 0.37560 -0.39700
O 	O 	0.45854 0.44604 0.78664 -0.39000
O 	O 	0.45632 0.45095 0.71316 -0.37300
O 	O 	0.52049 0.80649 0.78038 -0.37800
O 	O 	0.51707 0.88206 0.71606 -0.37400
O 	O 	0.49721 0.40355 0.30470 -0.38800
O 	O 	0.50673 0.39729 0.37494 -0.36500
O 	O 	0.44673 0.28235 0.93934 -0.34300
O 	O 	0.43840 0.20990 0.93820 -0.36400
O 	O 	0.52692 0.79257 0.93946 -0.37900
O 	O 	0.53514 0.86405 0.94036 -0.38000
O 	O 	0.22182 0.44716 0.30316 -0.43000
O 	O 	0.16040 0.45148 0.37560 -0.39700
O 	O 	0.75482 0.76732 0.78664 -0.39000
O 	O 	0.83052 0.83589 0.71316 -0.37200
O 	O 	0.69913 0.41313 0.78038 -0.37800
O 	O 	0.76687 0.40188 0.71606 -0.37400
O 	O 	0.19809 0.29175 0.30470 -0.38800
O 	O 	0.11833 0.22777 0.37494 -0.36500
O 	O 	0.61393 0.77831 0.93934 -0.34400
O 	O 	0.62340 0.85190 0.93820 -0.37000
O 	O 	0.53362 0.26797 0.93946 -0.37800
O 	O 	0.52450 0.19559 0.94036 -0.37400
O 	O 	0.55284 0.52498 0.69684 -0.42800
O 	O 	0.54852 0.53600 0.62440 -0.39700
O 	O 	0.23268 0.54146 0.21336 -0.39600
O 	O 	0.16411 0.54368 0.28684 -0.37400
O 	O 	0.58687 0.47951 0.21962 -0.38300
O 	O 	0.59812 0.48293 0.28394 -0.37600
O 	O 	0.70825 0.50279 0.69530 -0.38600
O 	O 	0.77223 0.49327 0.62506 -0.36500
O 	O 	0.22169 0.55327 0.06066 -0.36800
O 	O 	0.14810 0.56160 0.06180 -0.38900
O 	O 	0.73203 0.47308 0.06054 -0.40500
O 	O 	0.80441 0.46486 0.05964 -0.40500
O 	O 	0.75032 0.77818 0.69684 -0.42800
O 	O 	0.82708 0.83960 0.62440 -0.39600
O 	O 	0.55396 0.24518 0.21336 -0.39600
O 	O 	0.54905 0.16948 0.28684 -0.37400
O 	O 	0.19351 0.30087 0.21962 -0.38300
O 	O 	0.11794 0.23313 0.28394 -0.37600
O 	O 	0.59645 0.80191 0.69530 -0.38600
O 	O 	0.60271 0.88167 0.62506 -0.36400
O 	O 	0.71765 0.38607 0.06066 -0.36900
O 	O 	0.79010 0.37660 0.06180 -0.39400
O 	O 	0.20743 0.46638 0.06054 -0.40400
O 	O 	0.13595 0.47550 0.05964 -0.40000
O 	O 	0.52498 0.75032 0.69684 -0.42800
O 	O 	0.53600 0.82708 0.62440 -0.39700
O 	O 	0.54146 0.55396 0.21336 -0.39600
O 	O 	0.54368 0.54905 0.28684 -0.37400
O 	O 	0.47951 0.19351 0.21962 -0.38300
O 	O 	0.48293 0.11794 0.28394 -0.37600
O 	O 	0.50279 0.59645 0.69530 -0.38600
O 	O 	0.49327 0.60271 0.62506 -0.36500
O 	O 	0.55327 0.71765 0.06066 -0.36900
O 	O 	0.56160 0.79010 0.06180 -0.39400
O 	O 	0.47308 0.20743 0.06054 -0.40400
O 	O 	0.46486 0.13595 0.05964 -0.40000
O 	O 	0.77818 0.55284 0.69684 -0.42800
O 	O 	0.83960 0.54852 0.62440 -0.39600
O 	O 	0.24518 0.23268 0.21336 -0.39600
O 	O 	0.16948 0.16411 0.28684 -0.37500
O 	O 	0.30087 0.58687 0.21962 -0.38300
O 	O 	0.23313 0.59812 0.28394 -0.37600
O 	O 	0.80191 0.70825 0.69530 -0.38600
O 	O 	0.88167 0.77223 0.62506 -0.36400
O 	O 	0.38607 0.22169 0.06066 -0.36800
O 	O 	0.37660 0.14810 0.06180 -0.38900
O 	O 	0.46638 0.73203 0.06054 -0.40500
O 	O 	0.47550 0.80441 0.05964 -0.40500
