data_crystal

_cell_length_a 34.80400
_cell_length_b 14.86070
_cell_length_c 31.62400
_cell_angle_alpha 90.00000
_cell_angle_beta  102.08300
_cell_angle_gamma 90.00000

_symmetry_space_group_name_	'P 1'
_symmetry_space_group_name_H-M	'P 1'

loop_
_symmetry_equiv_pos_as_xyz
  x,y,z

loop_
_atom_site_label
_atom_site_type_symbol
_atom_site_fract_x
_atom_site_fract_y
_atom_site_fract_z
_atom_site_charge
I 	I 	0.02622 0.29820 0.37376 -0.35600
Zn	Zn	0.08597 0.26969 0.33982 1.16400
I 	I 	0.12109 0.38568 0.30457 -0.39200
N 	N 	0.12640 0.20440 0.38650 -0.26700
C 	C 	0.12180 0.11420 0.39360 0.05400
H 	H 	0.10200 0.08380 0.37350 -0.00500
C 	C 	0.14260 0.06420 0.42620 -0.11600
H 	H 	0.13890 0.00100 0.42720 0.07000
C 	C 	0.17000 0.10900 0.45880 0.04500
C 	C 	0.17400 0.20280 0.45370 -0.11100
H 	H 	0.19110 0.23580 0.47560 0.07000
C 	C 	0.15310 0.24890 0.41690 0.04400
H 	H 	0.15770 0.31110 0.41330 -0.00500
C 	C 	0.19260 0.05900 0.49540 0.05500
N 	N 	0.18340 0.96980 0.49680 -0.09800
C 	C 	0.20580 0.92390 0.52810 0.11600
N 	N 	0.23550 0.96050 0.56090 -0.09800
C 	C 	0.24030 0.04660 0.55840 0.00500
N 	N 	0.22130 0.09840 0.52100 -0.12800
N 	N 	0.18180 0.64400 0.51750 -0.08200
C 	C 	0.20920 0.67800 0.54900 -0.06100
H 	H 	0.22410 0.63820 0.56940 -0.06800
C 	C 	0.21760 0.76900 0.55400 -0.04000
H 	H 	0.23780 0.78710 0.57750 -0.11000
C 	C 	0.19820 0.83400 0.52670 0.03300
C 	C 	0.17010 0.79700 0.49450 -0.00700
H 	H 	0.15510 0.83580 0.47350 0.02300
C 	C 	0.16270 0.70600 0.49090 0.10200
H 	H 	0.14250 0.68650 0.46770 -0.00400
I 	I 	0.12204 0.48806 0.44531 -0.39900
Zn	Zn	0.16946 0.50697 0.51862 1.16300
I 	I 	0.22964 0.41019 0.54113 -0.39200
N 	N 	0.33070 0.18070 0.64550 -0.29500
C 	C 	0.30950 0.22630 0.61160 0.08500
H 	H 	0.31570 0.28730 0.60710 -0.00900
C 	C 	0.27880 0.18510 0.58350 -0.16600
H 	H 	0.26150 0.22040 0.56270 0.10500
C 	C 	0.27310 0.09330 0.58500 0.11000
C 	C 	0.29460 0.04570 0.62040 -0.26600
H 	H 	0.28990 0.98390 0.62500 0.17100
C 	C 	0.32460 0.09720 0.64970 0.13500
H 	H 	0.34060 0.06640 0.67330 -0.04400
I 	I 	0.39003 0.38438 0.65579 -0.38900
Zn	Zn	0.37338 0.24171 0.69104 1.16400
I 	I 	0.35217 0.23458 0.76244 -0.38400
N 	N 	0.42180 0.15430 0.69500 -0.26900
C 	C 	0.43690 0.11130 0.72830 0.06800
H 	H 	0.42670 0.11780 0.75370 -0.01100
C 	C 	0.46950 0.05200 0.72830 -0.08700
H 	H 	0.48000 0.01780 0.75350 0.05000
C 	C 	0.48540 0.04440 0.69360 -0.03600
C 	C 	0.46640 0.08550 0.65500 -0.08500
H 	H 	0.47360 0.07510 0.62800 0.06200
C 	C 	0.43570 0.14400 0.66010 0.05600
H 	H 	0.42390 0.17910 0.63570 -0.01700
C 	C 	0.52120 0.98930 0.69280 0.20300
N 	N 	0.52550 0.92180 0.72150 -0.15400
C 	C 	0.55470 0.86690 0.71590 0.10700
N 	N 	0.57790 0.87410 0.68700 -0.14000
N 	N 	0.53980 0.00410 0.66070 -0.20000
N 	N 	0.57370 0.63030 0.79590 -0.26100
C 	C 	0.56250 0.78220 0.74480 0.02400
C 	C 	0.59680 0.65000 0.76860 0.01300
H 	H 	0.61780 0.61020 0.76720 0.00800
C 	C 	0.59260 0.72460 0.74220 -0.03600
H 	H 	0.60980 0.73550 0.72300 0.03900
C 	C 	0.53780 0.76300 0.77220 -0.03900
H 	H 	0.51670 0.80220 0.77410 0.05300
C 	C 	0.54410 0.68600 0.79700 0.02300
H 	H 	0.52670 0.67280 0.81560 -0.00300
I 	I 	0.52916 0.49326 0.87184 -0.36900
Zn	Zn	0.58802 0.52573 0.83892 1.15800
I 	I 	0.62651 0.41418 0.80338 -0.38700
N 	N 	0.62120 0.59080 0.89200 0.63200
C 	C 	0.65280 0.55100 0.91580 0.05700
H 	H 	0.65920 0.49090 0.90940 0.31900
C 	C 	0.67590 0.59600 0.94940 -0.04000
H 	H 	0.69830 0.56720 0.96620 0.03500
C 	C 	0.66720 0.68300 0.95920 -0.06900
C 	C 	0.63450 0.72280 0.93440 -0.61400
H 	H 	0.62730 0.78250 0.94030 0.23600
C 	C 	0.61250 0.67470 0.90110 -0.03600
H 	H 	0.59000 0.70240 0.88380 0.02300
C 	C 	0.69270 0.73780 0.99460 0.11300
N 	N 	0.72110 0.69430 0.02200 -0.14500
C 	C 	0.74010 0.74720 0.05080 0.09000
N 	N 	0.73250 0.83580 0.05780 -0.12300
C 	C 	0.70430 0.86930 0.03090 0.04200
N 	N 	0.68130 0.82170 0.99840 -0.12400
N 	N 	0.83170 0.61750 0.14440 -0.27800
C 	C 	0.82050 0.70520 0.14930 0.08500
H 	H 	0.83430 0.73820 0.17350 -0.00100
C 	C 	0.79270 0.74470 0.12330 -0.14000
H 	H 	0.78660 0.80500 0.12930 0.09500
C 	C 	0.77130 0.70440 0.08700 0.06200
C 	C 	0.78330 0.61440 0.07980 -0.13900
H 	H 	0.77170 0.58270 0.05420 0.09600
C 	C 	0.81140 0.57580 0.11020 0.09000
H 	H 	0.81690 0.51400 0.10680 -0.01200
N 	N 	0.68340 0.15220 0.02480 -0.32500
C 	C 	0.65860 0.09440 0.00110 0.21900
H 	H 	0.63570 0.11750 0.98260 -0.07400
C 	C 	0.66460 0.00300 0.00220 -0.44000
H 	H 	0.64620 0.96410 0.98460 0.22400
C 	C 	0.69770 0.96860 0.02940 0.32600
C 	C 	0.72250 0.02840 0.05390 -0.34500
H 	H 	0.74470 0.00690 0.07410 0.12900
C 	C 	0.71570 0.11930 0.04960 0.18700
H 	H 	0.73480 0.15970 0.06500 -0.05700
I 	I 	0.62558 0.30767 0.94421 -0.40100
Zn	Zn	0.67038 0.28878 0.01843 1.16300
I 	I 	0.73249 0.38170 0.04310 -0.38400
I 	I 	0.85351 0.56453 0.26233 -0.36400
Zn	Zn	0.87438 0.55461 0.19028 1.16500
I 	I 	0.89083 0.41061 0.15597 -0.39900
N 	N 	0.91920 0.64600 0.19270 -0.15600
C 	C 	0.93090 0.65310 0.15540 0.11700
H 	H 	0.91760 0.62490 0.12950 -0.03300
C 	C 	0.96380 0.70490 0.15750 0.06700
H 	H 	0.97270 0.71090 0.13120 0.01900
C 	C 	0.98590 0.74900 0.19250 0.01300
C 	C 	0.97170 0.73800 0.22940 -0.03800
H 	H 	0.98470 0.76540 0.25570 0.03600
C 	C 	0.93870 0.68690 0.22830 0.05000
H 	H 	0.92920 0.68040 0.25420 0.00100
C 	C 	0.01990 0.80770 0.19230 0.11400
N 	N 	0.04000 0.79160 0.16260 -0.13900
C 	C 	0.06950 0.84890 0.15930 0.10500
N 	N 	0.07720 0.92070 0.18650 -0.13900
C 	C 	0.05570 0.93410 0.21510 0.18300
N 	N 	0.02810 0.87610 0.22070 -0.15400
N 	N 	0.13930 0.80900 0.06670 -0.27700
C 	C 	0.14990 0.86200 0.10080 0.09100
H 	H 	0.17450 0.89160 0.10380 -0.00400
C 	C 	0.12900 0.87860 0.13230 -0.12700
H 	H 	0.13850 0.91780 0.15590 0.10100
C 	C 	0.09350 0.83510 0.12760 0.07400
C 	C 	0.08170 0.78010 0.09230 -0.12400
H 	H 	0.05710 0.75020 0.08840 0.08500
C 	C 	0.10480 0.76790 0.06260 0.07900
H 	H 	0.09600 0.72930 0.03860 -0.02200
N 	N 	0.07360 0.16480 0.29640 -0.25800
C 	C 	0.04100 0.11340 0.29280 0.02400
H 	H 	0.02210 0.12970 0.30910 0.00000
C 	C 	0.03400 0.03910 0.26670 -0.05300
H 	H 	0.01050 0.00560 0.26530 0.02900
C 	C 	0.06120 0.01180 0.24210 -0.06700
C 	C 	0.09400 0.06550 0.24460 -0.05400
H 	H 	0.11310 0.05050 0.22830 0.03900
C 	C 	0.09890 0.14040 0.27050 0.02300
H 	H 	0.12110 0.17750 0.27050 0.00200
N 	N 	0.63880 0.99590 0.56750 -0.24300
C 	C 	0.60380 0.03340 0.56510 0.05000
H 	H 	0.59410 0.07230 0.54140 -0.02000
C 	C 	0.58080 0.01920 0.59470 -0.20000
H 	H 	0.55600 0.04830 0.59080 0.09900
C 	C 	0.65170 0.94270 0.60160 0.09400
H 	H 	0.67690 0.91580 0.60550 -0.00800
C 	C 	0.62850 0.92660 0.63090 -0.13500
H 	H 	0.63830 0.88600 0.65390 0.09600
C 	C 	0.56950 0.94710 0.66220 0.13600
C 	C 	0.59260 0.96450 0.62980 0.14000
N 	N 	0.18870 0.64100 0.52930 -0.14500
C 	C 	0.21990 0.67900 0.55490 0.13500
H 	H 	0.23870 0.64000 0.57200 0.04100
C 	C 	0.22680 0.77000 0.55810 0.02300
H 	H 	0.24900 0.79560 0.57680 0.14000
C 	C 	0.19830 0.82000 0.53170 -0.01800
C 	C 	0.16480 0.78800 0.50520 -0.07300
H 	H 	0.14530 0.82510 0.48830 0.05800
C 	C 	0.16220 0.69500 0.50540 -0.06800
H 	H 	0.14000 0.66830 0.48720 -0.00900
C 	C 	0.60250 0.66300 0.77880 0.02000
H 	H 	0.62710 0.63300 0.78440 -0.00400
C 	C 	0.59830 0.73900 0.75320 -0.03800
H 	H 	0.61960 0.76090 0.74170 0.03700
C 	C 	0.53210 0.75100 0.76210 -0.03300
H 	H 	0.50710 0.77970 0.75690 0.01500
C 	C 	0.54000 0.67600 0.78750 0.01000
H 	H 	0.51950 0.65390 0.80040 0.00900
N 	N 	0.63130 0.59630 0.88520 -0.89600
C 	C 	0.65200 0.55400 0.91990 0.04700
H 	H 	0.65190 0.49030 0.91910 -0.34900
C 	C 	0.67340 0.59400 0.95640 -0.05700
H 	H 	0.68770 0.56050 0.98030 0.04200
C 	C 	0.67210 0.68600 0.95520 0.09400
C 	C 	0.65120 0.73170 0.92010 0.53200
H 	H 	0.65110 0.79560 0.92000 -0.11900
C 	C 	0.63040 0.68570 0.88500 0.04400
H 	H 	0.61560 0.71730 0.86090 0.01100
N 	N 	0.92160 0.62800 0.19280 -0.08500
C 	C 	0.94600 0.61940 0.16600 -0.12200
H 	H 	0.94060 0.57220 0.14530 0.04600
C 	C 	0.97830 0.67160 0.16530 -0.13000
H 	H 	0.99400 0.65990 0.14480 0.07300
C 	C 	0.98780 0.74100 0.19440 -0.00800
C 	C 	0.96390 0.75400 0.22340 -0.04000
H 	H 	0.96920 0.79920 0.24490 0.04100
C 	C 	0.93210 0.69700 0.21980 -0.01700
H 	H 	0.91520 0.70920 0.23920 0.01100
I 	I 	0.52622 0.79820 0.37376 -0.33000
Zn	Zn	0.58597 0.76969 0.33982 1.16500
I 	I 	0.62109 0.88568 0.30457 -0.34300
N 	N 	0.62640 0.70440 0.38650 -0.26400
C 	C 	0.62180 0.61420 0.39360 0.05600
H 	H 	0.60200 0.58380 0.37350 0.00500
C 	C 	0.64260 0.56420 0.42620 -0.10300
H 	H 	0.63890 0.50100 0.42720 0.08900
C 	C 	0.67000 0.60900 0.45880 0.03700
C 	C 	0.67400 0.70280 0.45370 -0.10200
H 	H 	0.69110 0.73580 0.47560 0.06900
C 	C 	0.65310 0.74890 0.41690 0.04400
H 	H 	0.65770 0.81110 0.41330 -0.00200
C 	C 	0.69260 0.55900 0.49540 0.10900
N 	N 	0.68340 0.46980 0.49680 -0.13600
C 	C 	0.70580 0.42390 0.52810 0.10900
N 	N 	0.73550 0.46050 0.56090 -0.13900
C 	C 	0.74030 0.54660 0.55840 0.08600
N 	N 	0.72130 0.59840 0.52100 -0.14100
N 	N 	0.68180 0.14400 0.51750 -0.09000
C 	C 	0.70920 0.17800 0.54900 -0.06000
H 	H 	0.72410 0.13820 0.56940 -0.07300
C 	C 	0.71760 0.26900 0.55400 -0.04000
H 	H 	0.73780 0.28710 0.57750 -0.11200
C 	C 	0.69820 0.33400 0.52670 0.03000
C 	C 	0.67010 0.29700 0.49450 -0.01300
H 	H 	0.65510 0.33580 0.47350 0.02100
C 	C 	0.66270 0.20600 0.49090 0.09800
H 	H 	0.64250 0.18650 0.46770 -0.00800
I 	I 	0.62204 0.98806 0.44531 -0.33300
Zn	Zn	0.66946 0.00697 0.51862 1.13900
I 	I 	0.72964 0.91019 0.54113 -0.34900
N 	N 	0.83070 0.68070 0.64550 -0.27500
C 	C 	0.80950 0.72630 0.61160 0.06000
H 	H 	0.81570 0.78730 0.60710 0.00400
C 	C 	0.77880 0.68510 0.58350 -0.11500
H 	H 	0.76150 0.72040 0.56270 0.09000
C 	C 	0.77310 0.59330 0.58500 0.03900
C 	C 	0.79460 0.54570 0.62040 -0.11200
H 	H 	0.78990 0.48390 0.62500 0.08200
C 	C 	0.82460 0.59720 0.64970 0.07700
H 	H 	0.84060 0.56640 0.67330 -0.00800
I 	I 	0.89003 0.88438 0.65579 -0.33900
Zn	Zn	0.87338 0.74171 0.69104 1.16500
I 	I 	0.85217 0.73458 0.76244 -0.36100
N 	N 	0.92180 0.65430 0.69500 -0.27900
C 	C 	0.93690 0.61130 0.72830 0.10400
H 	H 	0.92670 0.61780 0.75370 -0.01700
C 	C 	0.96950 0.55200 0.72830 -0.14000
H 	H 	0.98000 0.51780 0.75350 0.08600
C 	C 	0.98540 0.54440 0.69360 0.06700
C 	C 	0.96640 0.58550 0.65500 -0.13000
H 	H 	0.97360 0.57510 0.62800 0.09300
C 	C 	0.93570 0.64400 0.66010 0.08800
H 	H 	0.92390 0.67910 0.63570 -0.02000
C 	C 	0.02120 0.48930 0.69280 0.08900
N 	N 	0.02550 0.42180 0.72150 -0.14700
C 	C 	0.05470 0.36690 0.71590 0.09800
N 	N 	0.07790 0.37410 0.68700 -0.13700
N 	N 	0.03980 0.50410 0.66070 -0.13300
N 	N 	0.07370 0.13030 0.79590 -0.27000
C 	C 	0.06250 0.28220 0.74480 0.02100
C 	C 	0.09680 0.15000 0.76860 0.01500
H 	H 	0.11780 0.11020 0.76720 -0.00500
C 	C 	0.09260 0.22460 0.74220 -0.03600
H 	H 	0.10980 0.23550 0.72300 0.03500
C 	C 	0.03780 0.26300 0.77220 -0.04000
H 	H 	0.01670 0.30220 0.77410 0.04500
C 	C 	0.04410 0.18600 0.79700 0.02100
H 	H 	0.02670 0.17280 0.81560 -0.01100
I 	I 	0.02916 0.99326 0.87184 -0.32100
Zn	Zn	0.08802 0.02573 0.83892 1.13700
I 	I 	0.12651 0.91418 0.80338 -0.33600
N 	N 	0.12120 0.09080 0.89200 0.84400
C 	C 	0.15280 0.05100 0.91580 0.01700
H 	H 	0.15920 0.99090 0.90940 0.34300
C 	C 	0.17590 0.09600 0.94940 -0.03100
H 	H 	0.19830 0.06720 0.96620 0.02600
C 	C 	0.16720 0.18300 0.95920 -0.09600
C 	C 	0.13450 0.22280 0.93440 -0.78000
H 	H 	0.12730 0.28250 0.94030 0.28400
C 	C 	0.11250 0.17470 0.90110 -0.06700
H 	H 	0.09000 0.20240 0.88380 0.02400
C 	C 	0.19270 0.23780 0.99460 0.11300
N 	N 	0.22110 0.19430 0.02200 -0.15000
C 	C 	0.24010 0.24720 0.05080 0.08800
N 	N 	0.23250 0.33580 0.05780 -0.14500
C 	C 	0.20430 0.36930 0.03090 0.11100
N 	N 	0.18130 0.32170 0.99840 -0.14000
N 	N 	0.33170 0.11750 0.14440 -0.28200
C 	C 	0.32050 0.20520 0.14930 0.07800
H 	H 	0.33430 0.23820 0.17350 -0.00200
C 	C 	0.29270 0.24470 0.12330 -0.13800
H 	H 	0.28660 0.30500 0.12930 0.08700
C 	C 	0.27130 0.20440 0.08700 0.05500
C 	C 	0.28330 0.11440 0.07980 -0.14300
H 	H 	0.27170 0.08270 0.05420 0.08500
C 	C 	0.31140 0.07580 0.11020 0.08600
H 	H 	0.31690 0.01400 0.10680 -0.03100
N 	N 	0.18340 0.65220 0.02480 -0.27400
C 	C 	0.15860 0.59440 0.00110 0.06600
H 	H 	0.13570 0.61750 0.98260 -0.01600
C 	C 	0.16460 0.50300 0.00220 -0.11900
H 	H 	0.14620 0.46410 0.98460 0.08000
C 	C 	0.19770 0.46860 0.02940 0.05800
C 	C 	0.22250 0.52840 0.05390 -0.12600
H 	H 	0.24470 0.50690 0.07410 0.07700
C 	C 	0.21570 0.61930 0.04960 0.07800
H 	H 	0.23480 0.65970 0.06500 -0.01700
I 	I 	0.12558 0.80767 0.94421 -0.39100
Zn	Zn	0.17038 0.78878 0.01843 1.16400
I 	I 	0.23249 0.88170 0.04310 -0.34700
I 	I 	0.35351 0.06453 0.26233 -0.41900
Zn	Zn	0.37438 0.05461 0.19028 1.15500
I 	I 	0.39083 0.91061 0.15597 -0.34100
N 	N 	0.41920 0.14600 0.19270 -0.16000
C 	C 	0.43090 0.15310 0.15540 0.13900
H 	H 	0.41760 0.12490 0.12950 -0.04500
C 	C 	0.46380 0.20490 0.15750 0.09300
H 	H 	0.47270 0.21090 0.13120 0.01100
C 	C 	0.48590 0.24900 0.19250 0.01400
C 	C 	0.47170 0.23800 0.22940 -0.03900
H 	H 	0.48470 0.26540 0.25570 0.03400
C 	C 	0.43870 0.18690 0.22830 0.04900
H 	H 	0.42920 0.18040 0.25420 -0.00500
C 	C 	0.51990 0.30770 0.19230 0.11200
N 	N 	0.54000 0.29160 0.16260 -0.13800
C 	C 	0.56950 0.34890 0.15930 0.10200
N 	N 	0.57720 0.42070 0.18650 -0.13500
C 	C 	0.55570 0.43410 0.21510 0.10800
N 	N 	0.52810 0.37610 0.22070 -0.15000
N 	N 	0.63930 0.30900 0.06670 -0.27900
C 	C 	0.64990 0.36200 0.10080 0.08500
H 	H 	0.67450 0.39160 0.10380 -0.01000
C 	C 	0.62900 0.37860 0.13230 -0.12700
H 	H 	0.63850 0.41780 0.15590 0.09000
C 	C 	0.59350 0.33510 0.12760 0.06800
C 	C 	0.58170 0.28010 0.09230 -0.12500
H 	H 	0.55710 0.25020 0.08840 0.08100
C 	C 	0.60480 0.26790 0.06260 0.07400
H 	H 	0.59600 0.22930 0.03860 -0.02500
N 	N 	0.57360 0.66480 0.29640 -0.26600
C 	C 	0.54100 0.61340 0.29280 0.05600
H 	H 	0.52210 0.62970 0.30910 -0.00500
C 	C 	0.53400 0.53910 0.26670 -0.09800
H 	H 	0.51050 0.50560 0.26530 0.06400
C 	C 	0.56120 0.51180 0.24210 0.03500
C 	C 	0.59400 0.56550 0.24460 -0.10000
H 	H 	0.61310 0.55050 0.22830 0.07600
C 	C 	0.59890 0.64040 0.27050 0.05600
H 	H 	0.62110 0.67750 0.27050 -0.00200
N 	N 	0.13880 0.49590 0.56750 -0.27600
C 	C 	0.10380 0.53340 0.56510 0.08300
H 	H 	0.09410 0.57230 0.54140 -0.01500
C 	C 	0.08080 0.51920 0.59470 -0.12300
H 	H 	0.05600 0.54830 0.59080 0.08700
C 	C 	0.15170 0.44270 0.60160 0.06700
H 	H 	0.17690 0.41580 0.60550 -0.00800
C 	C 	0.12850 0.42660 0.63090 -0.11400
H 	H 	0.13830 0.38600 0.65390 0.08100
C 	C 	0.06950 0.44710 0.66220 0.10400
C 	C 	0.09260 0.46450 0.62980 0.06700
N 	N 	0.68870 0.14100 0.52930 -0.14900
C 	C 	0.71990 0.17900 0.55490 0.13100
H 	H 	0.73870 0.14000 0.57200 0.03500
C 	C 	0.72680 0.27000 0.55810 0.02000
H 	H 	0.74900 0.29560 0.57680 0.13900
C 	C 	0.69830 0.32000 0.53170 -0.01800
C 	C 	0.66480 0.28800 0.50520 -0.06900
H 	H 	0.64530 0.32510 0.48830 0.05000
C 	C 	0.66220 0.19500 0.50540 -0.06500
H 	H 	0.64000 0.16830 0.48720 -0.01800
C 	C 	0.10250 0.16300 0.77880 0.01800
H 	H 	0.12710 0.13300 0.78440 -0.00500
C 	C 	0.09830 0.23900 0.75320 -0.04100
H 	H 	0.11960 0.26090 0.74170 0.03300
C 	C 	0.03210 0.25100 0.76210 -0.03400
H 	H 	0.00710 0.27970 0.75690 0.01400
C 	C 	0.04000 0.17600 0.78750 0.01100
H 	H 	0.01950 0.15390 0.80040 0.00400
N 	N 	0.13130 0.09630 0.88520 -1.10900
C 	C 	0.15200 0.05400 0.91990 0.01100
H 	H 	0.15190 0.99030 0.91910 -0.31400
C 	C 	0.17340 0.09400 0.95640 -0.04400
H 	H 	0.18770 0.06050 0.98030 0.02500
C 	C 	0.17210 0.18600 0.95520 0.10800
C 	C 	0.15120 0.23170 0.92010 0.70400
H 	H 	0.15110 0.29560 0.92000 -0.17500
C 	C 	0.13040 0.18570 0.88500 0.06400
H 	H 	0.11560 0.21730 0.86090 0.00300
N 	N 	0.42160 0.12800 0.19280 -0.08700
C 	C 	0.44600 0.11940 0.16600 -0.14700
H 	H 	0.44060 0.07220 0.14530 0.04100
C 	C 	0.47830 0.17160 0.16530 -0.15500
H 	H 	0.49400 0.15990 0.14480 0.07600
C 	C 	0.48780 0.24100 0.19440 -0.01200
C 	C 	0.46390 0.25400 0.22340 -0.03800
H 	H 	0.46920 0.29920 0.24490 0.03500
C 	C 	0.43210 0.19700 0.21980 -0.01800
H 	H 	0.41520 0.20920 0.23920 0.01200
I 	I 	0.97378 0.29820 0.62624 -0.35500
Zn	Zn	0.91403 0.26969 0.66018 1.16500
I 	I 	0.87891 0.38568 0.69543 -0.39100
N 	N 	0.87360 0.20440 0.61350 -0.26600
C 	C 	0.87820 0.11420 0.60640 0.05400
H 	H 	0.89800 0.08380 0.62650 -0.00500
C 	C 	0.85740 0.06420 0.57380 -0.11600
H 	H 	0.86110 0.00100 0.57280 0.07000
C 	C 	0.83000 0.10900 0.54120 0.04500
C 	C 	0.82600 0.20280 0.54630 -0.11100
H 	H 	0.80890 0.23580 0.52440 0.07000
C 	C 	0.84690 0.24890 0.58310 0.04400
H 	H 	0.84230 0.31110 0.58670 -0.00500
C 	C 	0.80740 0.05900 0.50460 0.05500
N 	N 	0.81660 0.96980 0.50320 -0.09800
C 	C 	0.79420 0.92390 0.47190 0.11600
N 	N 	0.76450 0.96050 0.43910 -0.09800
C 	C 	0.75970 0.04660 0.44160 0.00500
N 	N 	0.77870 0.09840 0.47900 -0.12800
N 	N 	0.81820 0.64400 0.48250 -0.08200
C 	C 	0.79080 0.67800 0.45100 -0.06100
H 	H 	0.77590 0.63820 0.43060 -0.06800
C 	C 	0.78240 0.76900 0.44600 -0.04000
H 	H 	0.76220 0.78710 0.42250 -0.11000
C 	C 	0.80180 0.83400 0.47330 0.03300
C 	C 	0.82990 0.79700 0.50550 -0.00700
H 	H 	0.84490 0.83580 0.52650 0.02300
C 	C 	0.83730 0.70600 0.50910 0.10200
H 	H 	0.85750 0.68650 0.53230 -0.00400
I 	I 	0.87796 0.48806 0.55469 -0.39900
Zn	Zn	0.83054 0.50697 0.48138 1.16300
I 	I 	0.77036 0.41019 0.45887 -0.39200
N 	N 	0.66930 0.18070 0.35450 -0.29500
C 	C 	0.69050 0.22630 0.38840 0.08500
H 	H 	0.68430 0.28730 0.39290 -0.00900
C 	C 	0.72120 0.18510 0.41650 -0.16600
H 	H 	0.73850 0.22040 0.43730 0.10500
C 	C 	0.72690 0.09330 0.41500 0.11000
C 	C 	0.70540 0.04570 0.37960 -0.26600
H 	H 	0.71010 0.98390 0.37500 0.17100
C 	C 	0.67540 0.09720 0.35030 0.13500
H 	H 	0.65940 0.06640 0.32670 -0.04400
I 	I 	0.60997 0.38438 0.34421 -0.38900
Zn	Zn	0.62662 0.24171 0.30896 1.16400
I 	I 	0.64783 0.23458 0.23756 -0.38400
N 	N 	0.57820 0.15430 0.30500 -0.26900
C 	C 	0.56310 0.11130 0.27170 0.06800
H 	H 	0.57330 0.11780 0.24630 -0.01100
C 	C 	0.53050 0.05200 0.27170 -0.08700
H 	H 	0.52000 0.01780 0.24650 0.05000
C 	C 	0.51460 0.04440 0.30640 -0.03600
C 	C 	0.53360 0.08550 0.34500 -0.08500
H 	H 	0.52640 0.07510 0.37200 0.06200
C 	C 	0.56430 0.14400 0.33990 0.05600
H 	H 	0.57610 0.17910 0.36430 -0.01700
C 	C 	0.47880 0.98930 0.30720 0.20300
N 	N 	0.47450 0.92180 0.27850 -0.15400
C 	C 	0.44530 0.86690 0.28410 0.10700
N 	N 	0.42210 0.87410 0.31300 -0.14000
N 	N 	0.46020 0.00410 0.33930 -0.20000
N 	N 	0.42630 0.63030 0.20410 -0.26100
C 	C 	0.43750 0.78220 0.25520 0.02400
C 	C 	0.40320 0.65000 0.23140 0.01300
H 	H 	0.38220 0.61020 0.23280 0.00800
C 	C 	0.40740 0.72460 0.25780 -0.03600
H 	H 	0.39020 0.73550 0.27700 0.03900
C 	C 	0.46220 0.76300 0.22780 -0.03900
H 	H 	0.48330 0.80220 0.22590 0.05300
C 	C 	0.45590 0.68600 0.20300 0.02300
H 	H 	0.47330 0.67280 0.18440 -0.00300
I 	I 	0.47084 0.49326 0.12816 -0.36900
Zn	Zn	0.41198 0.52573 0.16108 1.15800
I 	I 	0.37349 0.41418 0.19662 -0.38700
N 	N 	0.37880 0.59080 0.10800 0.63200
C 	C 	0.34720 0.55100 0.08420 0.05700
H 	H 	0.34080 0.49090 0.09060 0.31900
C 	C 	0.32410 0.59600 0.05060 -0.04000
H 	H 	0.30170 0.56720 0.03380 0.03500
C 	C 	0.33280 0.68300 0.04080 -0.06900
C 	C 	0.36550 0.72280 0.06560 -0.61400
H 	H 	0.37270 0.78250 0.05970 0.23600
C 	C 	0.38750 0.67470 0.09890 -0.03600
H 	H 	0.41000 0.70240 0.11620 0.02300
C 	C 	0.30730 0.73780 0.00540 0.11300
N 	N 	0.27890 0.69430 0.97800 -0.14500
C 	C 	0.25990 0.74720 0.94920 0.09000
N 	N 	0.26750 0.83580 0.94220 -0.12300
C 	C 	0.29570 0.86930 0.96910 0.04200
N 	N 	0.31870 0.82170 0.00160 -0.12400
N 	N 	0.16830 0.61750 0.85560 -0.27800
C 	C 	0.17950 0.70520 0.85070 0.08500
H 	H 	0.16570 0.73820 0.82650 -0.00100
C 	C 	0.20730 0.74470 0.87670 -0.14000
H 	H 	0.21340 0.80500 0.87070 0.09500
C 	C 	0.22870 0.70440 0.91300 0.06200
C 	C 	0.21670 0.61440 0.92020 -0.13900
H 	H 	0.22830 0.58270 0.94580 0.09600
C 	C 	0.18860 0.57580 0.88980 0.09000
H 	H 	0.18310 0.51400 0.89320 -0.01200
N 	N 	0.31660 0.15220 0.97520 -0.32500
C 	C 	0.34140 0.09440 0.99890 0.21900
H 	H 	0.36430 0.11750 0.01740 -0.07400
C 	C 	0.33540 0.00300 0.99780 -0.44000
H 	H 	0.35380 0.96410 0.01540 0.22400
C 	C 	0.30230 0.96860 0.97060 0.32600
C 	C 	0.27750 0.02840 0.94610 -0.34500
H 	H 	0.25530 0.00690 0.92590 0.12900
C 	C 	0.28430 0.11930 0.95040 0.18700
H 	H 	0.26520 0.15970 0.93500 -0.05700
I 	I 	0.37442 0.30767 0.05579 -0.40100
Zn	Zn	0.32962 0.28878 0.98157 1.16300
I 	I 	0.26751 0.38170 0.95690 -0.38400
I 	I 	0.14649 0.56453 0.73767 -0.36400
Zn	Zn	0.12562 0.55461 0.80972 1.16500
I 	I 	0.10917 0.41061 0.84403 -0.39900
N 	N 	0.08080 0.64600 0.80730 -0.15600
C 	C 	0.06910 0.65310 0.84460 0.11700
H 	H 	0.08240 0.62490 0.87050 -0.03300
C 	C 	0.03620 0.70490 0.84250 0.06700
H 	H 	0.02730 0.71090 0.86880 0.01900
C 	C 	0.01410 0.74900 0.80750 0.01300
C 	C 	0.02830 0.73800 0.77060 -0.03800
H 	H 	0.01530 0.76540 0.74430 0.03600
C 	C 	0.06130 0.68690 0.77170 0.05000
H 	H 	0.07080 0.68040 0.74580 0.00100
C 	C 	0.98010 0.80770 0.80770 0.11400
N 	N 	0.96000 0.79160 0.83740 -0.13900
C 	C 	0.93050 0.84890 0.84070 0.10500
N 	N 	0.92280 0.92070 0.81350 -0.13900
C 	C 	0.94430 0.93410 0.78490 0.18300
N 	N 	0.97190 0.87610 0.77930 -0.15400
N 	N 	0.86070 0.80900 0.93330 -0.27700
C 	C 	0.85010 0.86200 0.89920 0.09100
H 	H 	0.82550 0.89160 0.89620 -0.00400
C 	C 	0.87100 0.87860 0.86770 -0.12700
H 	H 	0.86150 0.91780 0.84410 0.10100
C 	C 	0.90650 0.83510 0.87240 0.07400
C 	C 	0.91830 0.78010 0.90770 -0.12400
H 	H 	0.94290 0.75020 0.91160 0.08500
C 	C 	0.89520 0.76790 0.93740 0.07900
H 	H 	0.90400 0.72930 0.96140 -0.02200
N 	N 	0.92640 0.16480 0.70360 -0.25800
C 	C 	0.95900 0.11340 0.70720 0.02400
H 	H 	0.97790 0.12970 0.69090 0.00000
C 	C 	0.96600 0.03910 0.73330 -0.05300
H 	H 	0.98950 0.00560 0.73470 0.02900
C 	C 	0.93880 0.01180 0.75790 -0.06700
C 	C 	0.90600 0.06550 0.75540 -0.05400
H 	H 	0.88690 0.05050 0.77170 0.03900
C 	C 	0.90110 0.14040 0.72950 0.02300
H 	H 	0.87890 0.17750 0.72950 0.00200
N 	N 	0.36120 0.99590 0.43250 -0.24300
C 	C 	0.39620 0.03340 0.43490 0.05000
H 	H 	0.40590 0.07230 0.45860 -0.02000
C 	C 	0.41920 0.01920 0.40530 -0.20000
H 	H 	0.44400 0.04830 0.40920 0.09900
C 	C 	0.34830 0.94270 0.39840 0.09400
H 	H 	0.32310 0.91580 0.39450 -0.00800
C 	C 	0.37150 0.92660 0.36910 -0.13500
H 	H 	0.36170 0.88600 0.34610 0.09600
C 	C 	0.43050 0.94710 0.33780 0.13600
C 	C 	0.40740 0.96450 0.37020 0.14000
N 	N 	0.81130 0.64100 0.47070 -0.14500
C 	C 	0.78010 0.67900 0.44510 0.13500
H 	H 	0.76130 0.64000 0.42800 0.04100
C 	C 	0.77320 0.77000 0.44190 0.02300
H 	H 	0.75100 0.79560 0.42320 0.14000
C 	C 	0.80170 0.82000 0.46830 -0.01800
C 	C 	0.83520 0.78800 0.49480 -0.07300
H 	H 	0.85470 0.82510 0.51170 0.05800
C 	C 	0.83780 0.69500 0.49460 -0.06800
H 	H 	0.86000 0.66830 0.51280 -0.00900
C 	C 	0.39750 0.66300 0.22120 0.02000
H 	H 	0.37290 0.63300 0.21560 -0.00400
C 	C 	0.40170 0.73900 0.24680 -0.03800
H 	H 	0.38040 0.76090 0.25830 0.03700
C 	C 	0.46790 0.75100 0.23790 -0.03300
H 	H 	0.49290 0.77970 0.24310 0.01500
C 	C 	0.46000 0.67600 0.21250 0.01000
H 	H 	0.48050 0.65390 0.19960 0.00900
N 	N 	0.36870 0.59630 0.11480 -0.89600
C 	C 	0.34800 0.55400 0.08010 0.04700
H 	H 	0.34810 0.49030 0.08090 -0.34900
C 	C 	0.32660 0.59400 0.04360 -0.05700
H 	H 	0.31230 0.56050 0.01970 0.04200
C 	C 	0.32790 0.68600 0.04480 0.09400
C 	C 	0.34880 0.73170 0.07990 0.53200
H 	H 	0.34890 0.79560 0.08000 -0.11900
C 	C 	0.36960 0.68570 0.11500 0.04400
H 	H 	0.38440 0.71730 0.13910 0.01100
N 	N 	0.07840 0.62800 0.80720 -0.08500
C 	C 	0.05400 0.61940 0.83400 -0.12200
H 	H 	0.05940 0.57220 0.85470 0.04600
C 	C 	0.02170 0.67160 0.83470 -0.13000
H 	H 	0.00600 0.65990 0.85520 0.07300
C 	C 	0.01220 0.74100 0.80560 -0.00800
C 	C 	0.03610 0.75400 0.77660 -0.04000
H 	H 	0.03080 0.79920 0.75510 0.04100
C 	C 	0.06790 0.69700 0.78020 -0.01700
H 	H 	0.08480 0.70920 0.76080 0.01100
I 	I 	0.47378 0.79820 0.62624 -0.33000
Zn	Zn	0.41403 0.76969 0.66018 1.16500
I 	I 	0.37891 0.88568 0.69543 -0.34300
N 	N 	0.37360 0.70440 0.61350 -0.26400
C 	C 	0.37820 0.61420 0.60640 0.05600
H 	H 	0.39800 0.58380 0.62650 0.00500
C 	C 	0.35740 0.56420 0.57380 -0.10300
H 	H 	0.36110 0.50100 0.57280 0.08900
C 	C 	0.33000 0.60900 0.54120 0.03700
C 	C 	0.32600 0.70280 0.54630 -0.10200
H 	H 	0.30890 0.73580 0.52440 0.06900
C 	C 	0.34690 0.74890 0.58310 0.04400
H 	H 	0.34230 0.81110 0.58670 -0.00200
C 	C 	0.30740 0.55900 0.50460 0.10900
N 	N 	0.31660 0.46980 0.50320 -0.13600
C 	C 	0.29420 0.42390 0.47190 0.10900
N 	N 	0.26450 0.46050 0.43910 -0.13900
C 	C 	0.25970 0.54660 0.44160 0.08600
N 	N 	0.27870 0.59840 0.47900 -0.14100
N 	N 	0.31820 0.14400 0.48250 -0.09000
C 	C 	0.29080 0.17800 0.45100 -0.06000
H 	H 	0.27590 0.13820 0.43060 -0.07300
C 	C 	0.28240 0.26900 0.44600 -0.04000
H 	H 	0.26220 0.28710 0.42250 -0.11200
C 	C 	0.30180 0.33400 0.47330 0.03000
C 	C 	0.32990 0.29700 0.50550 -0.01300
H 	H 	0.34490 0.33580 0.52650 0.02100
C 	C 	0.33730 0.20600 0.50910 0.09800
H 	H 	0.35750 0.18650 0.53230 -0.00800
I 	I 	0.37796 0.98806 0.55469 -0.33300
Zn	Zn	0.33054 0.00697 0.48138 1.13900
I 	I 	0.27036 0.91019 0.45887 -0.34900
N 	N 	0.16930 0.68070 0.35450 -0.27500
C 	C 	0.19050 0.72630 0.38840 0.06000
H 	H 	0.18430 0.78730 0.39290 0.00400
C 	C 	0.22120 0.68510 0.41650 -0.11500
H 	H 	0.23850 0.72040 0.43730 0.09000
C 	C 	0.22690 0.59330 0.41500 0.03900
C 	C 	0.20540 0.54570 0.37960 -0.11200
H 	H 	0.21010 0.48390 0.37500 0.08200
C 	C 	0.17540 0.59720 0.35030 0.07700
H 	H 	0.15940 0.56640 0.32670 -0.00800
I 	I 	0.10997 0.88438 0.34421 -0.33900
Zn	Zn	0.12662 0.74171 0.30896 1.16500
I 	I 	0.14783 0.73458 0.23756 -0.36100
N 	N 	0.07820 0.65430 0.30500 -0.27900
C 	C 	0.06310 0.61130 0.27170 0.10400
H 	H 	0.07330 0.61780 0.24630 -0.01700
C 	C 	0.03050 0.55200 0.27170 -0.14000
H 	H 	0.02000 0.51780 0.24650 0.08600
C 	C 	0.01460 0.54440 0.30640 0.06700
C 	C 	0.03360 0.58550 0.34500 -0.13000
H 	H 	0.02640 0.57510 0.37200 0.09300
C 	C 	0.06430 0.64400 0.33990 0.08800
H 	H 	0.07610 0.67910 0.36430 -0.02000
C 	C 	0.97880 0.48930 0.30720 0.08900
N 	N 	0.97450 0.42180 0.27850 -0.14700
C 	C 	0.94530 0.36690 0.28410 0.09800
N 	N 	0.92210 0.37410 0.31300 -0.13700
N 	N 	0.96020 0.50410 0.33930 -0.13300
N 	N 	0.92630 0.13030 0.20410 -0.27000
C 	C 	0.93750 0.28220 0.25520 0.02100
C 	C 	0.90320 0.15000 0.23140 0.01500
H 	H 	0.88220 0.11020 0.23280 -0.00500
C 	C 	0.90740 0.22460 0.25780 -0.03600
H 	H 	0.89020 0.23550 0.27700 0.03500
C 	C 	0.96220 0.26300 0.22780 -0.04000
H 	H 	0.98330 0.30220 0.22590 0.04500
C 	C 	0.95590 0.18600 0.20300 0.02100
H 	H 	0.97330 0.17280 0.18440 -0.01100
I 	I 	0.97084 0.99326 0.12816 -0.32100
Zn	Zn	0.91198 0.02573 0.16108 1.13700
I 	I 	0.87349 0.91418 0.19662 -0.33600
N 	N 	0.87880 0.09080 0.10800 0.84400
C 	C 	0.84720 0.05100 0.08420 0.01700
H 	H 	0.84080 0.99090 0.09060 0.34300
C 	C 	0.82410 0.09600 0.05060 -0.03100
H 	H 	0.80170 0.06720 0.03380 0.02600
C 	C 	0.83280 0.18300 0.04080 -0.09600
C 	C 	0.86550 0.22280 0.06560 -0.78000
H 	H 	0.87270 0.28250 0.05970 0.28400
C 	C 	0.88750 0.17470 0.09890 -0.06700
H 	H 	0.91000 0.20240 0.11620 0.02400
C 	C 	0.80730 0.23780 0.00540 0.11300
N 	N 	0.77890 0.19430 0.97800 -0.15000
C 	C 	0.75990 0.24720 0.94920 0.08800
N 	N 	0.76750 0.33580 0.94220 -0.14500
C 	C 	0.79570 0.36930 0.96910 0.11100
N 	N 	0.81870 0.32170 0.00160 -0.14000
N 	N 	0.66830 0.11750 0.85560 -0.28200
C 	C 	0.67950 0.20520 0.85070 0.07800
H 	H 	0.66570 0.23820 0.82650 -0.00200
C 	C 	0.70730 0.24470 0.87670 -0.13800
H 	H 	0.71340 0.30500 0.87070 0.08700
C 	C 	0.72870 0.20440 0.91300 0.05500
C 	C 	0.71670 0.11440 0.92020 -0.14300
H 	H 	0.72830 0.08270 0.94580 0.08500
C 	C 	0.68860 0.07580 0.88980 0.08600
H 	H 	0.68310 0.01400 0.89320 -0.03100
N 	N 	0.81660 0.65220 0.97520 -0.27400
C 	C 	0.84140 0.59440 0.99890 0.06600
H 	H 	0.86430 0.61750 0.01740 -0.01600
C 	C 	0.83540 0.50300 0.99780 -0.11900
H 	H 	0.85380 0.46410 0.01540 0.08000
C 	C 	0.80230 0.46860 0.97060 0.05800
C 	C 	0.77750 0.52840 0.94610 -0.12600
H 	H 	0.75530 0.50690 0.92590 0.07700
C 	C 	0.78430 0.61930 0.95040 0.07800
H 	H 	0.76520 0.65970 0.93500 -0.01700
I 	I 	0.87442 0.80767 0.05579 -0.39100
Zn	Zn	0.82962 0.78878 0.98157 1.16400
I 	I 	0.76751 0.88170 0.95690 -0.34700
I 	I 	0.64649 0.06453 0.73767 -0.41900
Zn	Zn	0.62562 0.05461 0.80972 1.15500
I 	I 	0.60917 0.91061 0.84403 -0.34100
N 	N 	0.58080 0.14600 0.80730 -0.16000
C 	C 	0.56910 0.15310 0.84460 0.13900
H 	H 	0.58240 0.12490 0.87050 -0.04500
C 	C 	0.53620 0.20490 0.84250 0.09300
H 	H 	0.52730 0.21090 0.86880 0.01100
C 	C 	0.51410 0.24900 0.80750 0.01400
C 	C 	0.52830 0.23800 0.77060 -0.03900
H 	H 	0.51530 0.26540 0.74430 0.03400
C 	C 	0.56130 0.18690 0.77170 0.04900
H 	H 	0.57080 0.18040 0.74580 -0.00500
C 	C 	0.48010 0.30770 0.80770 0.11200
N 	N 	0.46000 0.29160 0.83740 -0.13800
C 	C 	0.43050 0.34890 0.84070 0.10200
N 	N 	0.42280 0.42070 0.81350 -0.13500
C 	C 	0.44430 0.43410 0.78490 0.10800
N 	N 	0.47190 0.37610 0.77930 -0.15000
N 	N 	0.36070 0.30900 0.93330 -0.27900
C 	C 	0.35010 0.36200 0.89920 0.08500
H 	H 	0.32550 0.39160 0.89620 -0.01000
C 	C 	0.37100 0.37860 0.86770 -0.12700
H 	H 	0.36150 0.41780 0.84410 0.09000
C 	C 	0.40650 0.33510 0.87240 0.06800
C 	C 	0.41830 0.28010 0.90770 -0.12500
H 	H 	0.44290 0.25020 0.91160 0.08100
C 	C 	0.39520 0.26790 0.93740 0.07400
H 	H 	0.40400 0.22930 0.96140 -0.02500
N 	N 	0.42640 0.66480 0.70360 -0.26600
C 	C 	0.45900 0.61340 0.70720 0.05600
H 	H 	0.47790 0.62970 0.69090 -0.00500
C 	C 	0.46600 0.53910 0.73330 -0.09800
H 	H 	0.48950 0.50560 0.73470 0.06400
C 	C 	0.43880 0.51180 0.75790 0.03500
C 	C 	0.40600 0.56550 0.75540 -0.10000
H 	H 	0.38690 0.55050 0.77170 0.07600
C 	C 	0.40110 0.64040 0.72950 0.05600
H 	H 	0.37890 0.67750 0.72950 -0.00200
N 	N 	0.86120 0.49590 0.43250 -0.27600
C 	C 	0.89620 0.53340 0.43490 0.08300
H 	H 	0.90590 0.57230 0.45860 -0.01500
C 	C 	0.91920 0.51920 0.40530 -0.12300
H 	H 	0.94400 0.54830 0.40920 0.08700
C 	C 	0.84830 0.44270 0.39840 0.06700
H 	H 	0.82310 0.41580 0.39450 -0.00800
C 	C 	0.87150 0.42660 0.36910 -0.11400
H 	H 	0.86170 0.38600 0.34610 0.08100
C 	C 	0.93050 0.44710 0.33780 0.10400
C 	C 	0.90740 0.46450 0.37020 0.06700
N 	N 	0.31130 0.14100 0.47070 -0.14900
C 	C 	0.28010 0.17900 0.44510 0.13100
H 	H 	0.26130 0.14000 0.42800 0.03500
C 	C 	0.27320 0.27000 0.44190 0.02000
H 	H 	0.25100 0.29560 0.42320 0.13900
C 	C 	0.30170 0.32000 0.46830 -0.01800
C 	C 	0.33520 0.28800 0.49480 -0.06900
H 	H 	0.35470 0.32510 0.51170 0.05000
C 	C 	0.33780 0.19500 0.49460 -0.06500
H 	H 	0.36000 0.16830 0.51280 -0.01800
C 	C 	0.89750 0.16300 0.22120 0.01800
H 	H 	0.87290 0.13300 0.21560 -0.00500
C 	C 	0.90170 0.23900 0.24680 -0.04100
H 	H 	0.88040 0.26090 0.25830 0.03300
C 	C 	0.96790 0.25100 0.23790 -0.03400
H 	H 	0.99290 0.27970 0.24310 0.01400
C 	C 	0.96000 0.17600 0.21250 0.01100
H 	H 	0.98050 0.15390 0.19960 0.00400
N 	N 	0.86870 0.09630 0.11480 -1.10900
C 	C 	0.84800 0.05400 0.08010 0.01100
H 	H 	0.84810 0.99030 0.08090 -0.31400
C 	C 	0.82660 0.09400 0.04360 -0.04400
H 	H 	0.81230 0.06050 0.01970 0.02500
C 	C 	0.82790 0.18600 0.04480 0.10800
C 	C 	0.84880 0.23170 0.07990 0.70400
H 	H 	0.84890 0.29560 0.08000 -0.17500
C 	C 	0.86960 0.18570 0.11500 0.06400
H 	H 	0.88440 0.21730 0.13910 0.00300
N 	N 	0.57840 0.12800 0.80720 -0.08700
C 	C 	0.55400 0.11940 0.83400 -0.14700
H 	H 	0.55940 0.07220 0.85470 0.04100
C 	C 	0.52170 0.17160 0.83470 -0.15500
H 	H 	0.50600 0.15990 0.85520 0.07600
C 	C 	0.51220 0.24100 0.80560 -0.01200
C 	C 	0.53610 0.25400 0.77660 -0.03800
H 	H 	0.53080 0.29920 0.75510 0.03500
C 	C 	0.56790 0.19700 0.78020 -0.01800
H 	H 	0.58480 0.20920 0.76080 0.01200
