data_crystal

_cell_length_a 37.31800
_cell_length_b 37.29300
_cell_length_c 26.38800
_cell_angle_alpha 90.00000
_cell_angle_beta  134.98800
_cell_angle_gamma 90.00000

_symmetry_space_group_name_	'P 1'
_symmetry_space_group_name_H-M	'P 1'

loop_
_symmetry_equiv_pos_as_xyz
  x,y,z

loop_
_atom_site_label
_atom_site_type_symbol
_atom_site_fract_x
_atom_site_fract_y
_atom_site_fract_z
_atom_site_charge
N 	N 	0.21001 0.21014 0.00008 -0.29500
C 	C 	0.18871 0.18888 0.99990 0.15800
N 	N 	0.21007 0.21001 0.42034 -0.26600
C 	C 	0.18891 0.18878 0.37800 0.11000
S 	S 	0.81936 0.51688 0.31970 -0.03900
N 	N 	0.44394 0.45951 0.44394 -0.23300
C 	C 	0.41250 0.45300 0.37310 -0.01200
H 	H 	0.41410 0.46820 0.34590 0.01800
C 	C 	0.37800 0.42510 0.33870 -0.01700
H 	H 	0.35630 0.42170 0.28870 0.03600
C 	C 	0.37524 0.40308 0.37518 0.03100
C 	C 	0.40760 0.40810 0.44810 -0.11100
H 	H 	0.40550 0.39280 0.47480 0.06900
C 	C 	0.44330 0.43560 0.48220 0.06300
H 	H 	0.46750 0.43770 0.53290 -0.00700
C 	C 	0.33965 0.37250 0.33962 0.10400
N 	N 	0.32659 0.35904 0.28227 -0.14800
C 	C 	0.29701 0.33050 0.25460 0.10600
N 	N 	0.28237 0.31437 0.28251 -0.14800
C 	C 	0.29737 0.33024 0.33970 0.10900
N 	N 	0.32679 0.35875 0.37148 -0.14900
N 	N 	0.26300 0.27789 0.08191 -0.23500
C 	C 	0.26830 0.25830 0.13050 0.09700
H 	H 	0.26670 0.23290 0.12770 -0.02000
C 	C 	0.27610 0.27590 0.18480 -0.15300
H 	H 	0.27560 0.26270 0.21510 0.08100
C 	C 	0.28452 0.31274 0.19394 0.02400
C 	C 	0.28380 0.33010 0.14990 -0.00100
H 	H 	0.29120 0.35500 0.15690 0.02900
C 	C 	0.27290 0.31330 0.09400 -0.03000
H 	H 	0.27230 0.32700 0.06300 0.01600
N 	N 	0.26276 0.27805 0.44402 -0.22900
C 	C 	0.27330 0.31350 0.45320 -0.05600
H 	H 	0.27390 0.32700 0.48440 0.03100
C 	C 	0.28340 0.33070 0.41680 0.02600
H 	H 	0.28920 0.35580 0.42220 0.02200
C 	C 	0.28480 0.31252 0.37549 0.02000
C 	C 	0.27520 0.27520 0.36670 -0.15900
H 	H 	0.27430 0.26190 0.33510 0.08300
C 	C 	0.26730 0.25830 0.40440 0.10200
H 	H 	0.26490 0.23290 0.40330 -0.02100
N 	N 	0.18124 0.27818 0.44384 -0.23100
C 	C 	0.14110 0.27450 0.37410 -0.06500
H 	H 	0.14380 0.26000 0.34730 0.03200
C 	C 	0.09400 0.29150 0.33780 0.04700
H 	H 	0.06560 0.28790 0.28790 0.01200
C 	C 	0.09043 0.31257 0.37488 0.02400
C 	C 	0.13220 0.31690 0.44800 -0.15700
H 	H 	0.13030 0.33250 0.47450 0.08300
C 	C 	0.17750 0.29820 0.48290 0.11200
H 	H 	0.20530 0.29970 0.53350 -0.02500
C 	C 	0.04230 0.33048 0.33936 0.09800
N 	N 	0.99990 0.31445 0.28214 -0.14300
C 	C 	0.95787 0.33052 0.25518 0.10600
N 	N 	0.95561 0.35902 0.28230 -0.15000
C 	C 	0.99993 0.37278 0.33925 0.11200
N 	N 	0.04416 0.35892 0.37069 -0.15300
C 	C 	0.82430 0.29750 0.13040 0.07500
H 	H 	0.79740 0.29780 0.12760 -0.01100
C 	C 	0.86930 0.31750 0.18560 -0.13400
H 	H 	0.87130 0.33360 0.21540 0.07600
C 	C 	0.90943 0.31261 0.19375 0.03400
C 	C 	0.90460 0.29090 0.14830 0.00800
H 	H 	0.93260 0.28750 0.15410 0.02700
C 	C 	0.86000 0.27390 0.09410 -0.03200
H 	H 	0.85810 0.25850 0.06360 0.01700
N 	N 	0.81890 0.27795 0.08182 -0.23500
C 	C 	0.03920 0.45390 0.45150 -0.06500
H 	H 	0.06790 0.46920 0.48220 0.03200
C 	C 	0.03870 0.42550 0.41500 0.03600
H 	H 	0.06610 0.42280 0.41940 0.01600
C 	C 	0.99989 0.40304 0.37480 0.03600
C 	C 	0.95930 0.40810 0.36760 -0.14200
H 	H 	0.93050 0.39290 0.33740 0.07800
C 	C 	0.96150 0.43540 0.40470 0.09600
H 	H 	0.93540 0.43750 0.40310 -0.01900
N 	N 	0.99988 0.45935 0.44328 -0.22700
S 	S 	0.14290 0.15988 0.31900 -0.04300
S 	S 	0.14310 0.15956 0.96690 0.02500
C 	C 	0.44250 0.43520 0.40410 0.05500
H 	H 	0.46700 0.43710 0.40240 -0.00600
C 	C 	0.40800 0.40850 0.36670 -0.09600
H 	H 	0.40590 0.39380 0.33530 0.06200
C 	C 	0.37810 0.42490 0.41720 0.00300
H 	H 	0.35620 0.42140 0.42360 0.02900
C 	C 	0.41260 0.45260 0.45190 -0.02400
H 	H 	0.41450 0.46760 0.48290 0.02100
C 	C 	0.23470 0.27380 0.09460 -0.06000
H 	H 	0.20630 0.25830 0.06440 0.02500
C 	C 	0.24450 0.29110 0.14960 0.04800
H 	H 	0.22270 0.28750 0.15600 0.01200
C 	C 	0.31620 0.31730 0.18420 -0.10600
H 	H 	0.34450 0.33300 0.21400 0.06600
C 	C 	0.30540 0.29810 0.12960 0.06600
H 	H 	0.32870 0.29910 0.12560 -0.01000
C 	C 	0.30560 0.29820 0.48230 0.08800
H 	H 	0.32860 0.29970 0.53290 -0.01600
C 	C 	0.31630 0.31660 0.44800 -0.12900
H 	H 	0.34500 0.33190 0.47460 0.07400
C 	C 	0.24430 0.29120 0.33850 0.05600
H 	H 	0.22230 0.28820 0.28840 0.01100
C 	C 	0.23470 0.27330 0.37490 -0.06400
H 	H 	0.20700 0.25710 0.34880 0.03100
C 	C 	0.13740 0.25930 0.40360 0.10700
H 	H 	0.13830 0.23400 0.40080 -0.02300
C 	C 	0.09130 0.27600 0.36640 -0.15600
H 	H 	0.06070 0.26250 0.33570 0.08000
C 	C 	0.13330 0.33110 0.41590 0.05400
H 	H 	0.13280 0.35630 0.42070 0.01200
C 	C 	0.17990 0.31350 0.45270 -0.07700
H 	H 	0.21060 0.32680 0.48410 0.03700
C 	C 	0.82100 0.31270 0.09360 -0.03800
H 	H 	0.79040 0.32610 0.06190 0.01800
C 	C 	0.86490 0.33030 0.14900 0.02200
H 	H 	0.86400 0.35510 0.15600 0.02200
C 	C 	0.90910 0.27680 0.18380 -0.12100
H 	H 	0.94000 0.26380 0.21330 0.07300
C 	C 	0.86310 0.25920 0.13010 0.07000
H 	H 	0.86250 0.23380 0.12710 -0.01000
C 	C 	0.03900 0.43560 0.48180 0.10200
H 	H 	0.06540 0.43740 0.53250 -0.02200
C 	C 	0.04040 0.40910 0.44750 -0.15800
H 	H 	0.06980 0.39460 0.47410 0.08200
C 	C 	0.96030 0.42490 0.33850 0.03000
H 	H 	0.93170 0.42140 0.28860 0.02000
C 	C 	0.96090 0.45290 0.37390 -0.04800
H 	H 	0.93210 0.46810 0.34720 0.02800
S 	S 	0.17530 0.15967 0.31900 -0.04000
S 	S 	0.17560 0.15991 0.03270 -0.12500
N 	N 	0.71001 0.71014 0.00008 -0.29700
C 	C 	0.68871 0.68888 0.99990 0.15800
N 	N 	0.71007 0.71001 0.42034 -0.26700
C 	C 	0.68891 0.68878 0.37800 0.10900
S 	S 	0.31936 0.01688 0.31970 -0.05000
N 	N 	0.94394 0.95951 0.44394 -0.23100
C 	C 	0.91250 0.95300 0.37310 -0.01400
H 	H 	0.91410 0.96820 0.34590 0.02000
C 	C 	0.87800 0.92510 0.33870 -0.01700
H 	H 	0.85630 0.92170 0.28870 0.03600
C 	C 	0.87524 0.90308 0.37518 0.03000
C 	C 	0.90760 0.90810 0.44810 -0.11100
H 	H 	0.90550 0.89280 0.47480 0.06900
C 	C 	0.94330 0.93560 0.48220 0.06300
H 	H 	0.96750 0.93770 0.53290 -0.00500
C 	C 	0.83965 0.87250 0.33962 0.10400
N 	N 	0.82659 0.85904 0.28227 -0.14900
C 	C 	0.79701 0.83050 0.25460 0.10500
N 	N 	0.78237 0.81437 0.28251 -0.14900
C 	C 	0.79737 0.83024 0.33970 0.10800
N 	N 	0.82679 0.85875 0.37148 -0.14900
N 	N 	0.76300 0.77789 0.08191 -0.23500
C 	C 	0.76830 0.75830 0.13050 0.09800
H 	H 	0.76670 0.73290 0.12770 -0.02000
C 	C 	0.77610 0.77590 0.18480 -0.15300
H 	H 	0.77560 0.76270 0.21510 0.08200
C 	C 	0.78452 0.81274 0.19394 0.02400
C 	C 	0.78380 0.83010 0.14990 -0.00100
H 	H 	0.79120 0.85500 0.15690 0.03000
C 	C 	0.77290 0.81330 0.09400 -0.03000
H 	H 	0.77230 0.82700 0.06300 0.01700
N 	N 	0.76276 0.77805 0.44402 -0.22900
C 	C 	0.77330 0.81350 0.45320 -0.05600
H 	H 	0.77390 0.82700 0.48440 0.03100
C 	C 	0.78340 0.83070 0.41680 0.02600
H 	H 	0.78920 0.85580 0.42220 0.02300
C 	C 	0.78480 0.81252 0.37549 0.02000
C 	C 	0.77520 0.77520 0.36670 -0.16000
H 	H 	0.77430 0.76190 0.33510 0.08300
C 	C 	0.76730 0.75830 0.40440 0.10300
H 	H 	0.76490 0.73290 0.40330 -0.02100
N 	N 	0.68124 0.77818 0.44384 -0.23100
C 	C 	0.64110 0.77450 0.37410 -0.06400
H 	H 	0.64380 0.76000 0.34730 0.03300
C 	C 	0.59400 0.79150 0.33780 0.04700
H 	H 	0.56560 0.78790 0.28790 0.01400
C 	C 	0.59043 0.81257 0.37488 0.02300
C 	C 	0.63220 0.81690 0.44800 -0.15600
H 	H 	0.63030 0.83250 0.47450 0.08300
C 	C 	0.67750 0.79820 0.48290 0.11100
H 	H 	0.70530 0.79970 0.53350 -0.02400
C 	C 	0.54230 0.83048 0.33936 0.10700
N 	N 	0.49990 0.81445 0.28214 -0.14900
C 	C 	0.45787 0.83052 0.25518 0.10400
N 	N 	0.45561 0.85902 0.28230 -0.15000
C 	C 	0.49993 0.87278 0.33925 0.10700
N 	N 	0.54416 0.85892 0.37069 -0.15000
C 	C 	0.32430 0.79750 0.13040 0.07500
H 	H 	0.29740 0.79780 0.12760 -0.01100
C 	C 	0.36930 0.81750 0.18560 -0.13300
H 	H 	0.37130 0.83360 0.21540 0.07500
C 	C 	0.40943 0.81261 0.19375 0.03300
C 	C 	0.40460 0.79090 0.14830 0.00900
H 	H 	0.43260 0.78750 0.15410 0.02500
C 	C 	0.36000 0.77390 0.09410 -0.03200
H 	H 	0.35810 0.75850 0.06360 0.01700
N 	N 	0.31890 0.77795 0.08182 -0.23500
C 	C 	0.53920 0.95390 0.45150 -0.05600
H 	H 	0.56790 0.96920 0.48220 0.03200
C 	C 	0.53870 0.92550 0.41500 0.03800
H 	H 	0.56610 0.92280 0.41940 0.01800
C 	C 	0.49989 0.90304 0.37480 0.02500
C 	C 	0.45930 0.90810 0.36760 -0.13700
H 	H 	0.43050 0.89290 0.33740 0.07600
C 	C 	0.46150 0.93540 0.40470 0.09000
H 	H 	0.43540 0.93750 0.40310 -0.01800
N 	N 	0.49988 0.95935 0.44328 -0.23200
S 	S 	0.64290 0.65988 0.31900 -0.03900
S 	S 	0.64310 0.65956 0.96690 0.02900
C 	C 	0.94250 0.93520 0.40410 0.05600
H 	H 	0.96700 0.93710 0.40240 -0.00200
C 	C 	0.90800 0.90850 0.36670 -0.09500
H 	H 	0.90590 0.89380 0.33530 0.06300
C 	C 	0.87810 0.92490 0.41720 0.00300
H 	H 	0.85620 0.92140 0.42360 0.03000
C 	C 	0.91260 0.95260 0.45190 -0.02500
H 	H 	0.91450 0.96760 0.48290 0.02300
C 	C 	0.73470 0.77380 0.09460 -0.06000
H 	H 	0.70630 0.75830 0.06440 0.02600
C 	C 	0.74450 0.79110 0.14960 0.04800
H 	H 	0.72270 0.78750 0.15600 0.01300
C 	C 	0.81620 0.81730 0.18420 -0.10600
H 	H 	0.84450 0.83300 0.21400 0.06700
C 	C 	0.80540 0.79810 0.12960 0.06600
H 	H 	0.82870 0.79910 0.12560 -0.00900
C 	C 	0.80560 0.79820 0.48230 0.08800
H 	H 	0.82860 0.79970 0.53290 -0.01600
C 	C 	0.81630 0.81660 0.44800 -0.12900
H 	H 	0.84500 0.83190 0.47460 0.07500
C 	C 	0.74430 0.79120 0.33850 0.05600
H 	H 	0.72230 0.78820 0.28840 0.01100
C 	C 	0.73470 0.77330 0.37490 -0.06400
H 	H 	0.70700 0.75710 0.34880 0.03100
C 	C 	0.63740 0.75930 0.40360 0.10600
H 	H 	0.63830 0.73400 0.40080 -0.02300
C 	C 	0.59130 0.77600 0.36640 -0.15500
H 	H 	0.56070 0.76250 0.33570 0.08200
C 	C 	0.63330 0.83110 0.41590 0.05400
H 	H 	0.63280 0.85630 0.42070 0.01300
C 	C 	0.67990 0.81350 0.45270 -0.07600
H 	H 	0.71060 0.82680 0.48410 0.03700
C 	C 	0.32100 0.81270 0.09360 -0.03800
H 	H 	0.29040 0.82610 0.06190 0.01800
C 	C 	0.36490 0.83030 0.14900 0.02200
H 	H 	0.36400 0.85510 0.15600 0.02200
C 	C 	0.40910 0.77680 0.18380 -0.12000
H 	H 	0.44000 0.76380 0.21330 0.07100
C 	C 	0.36310 0.75920 0.13010 0.07000
H 	H 	0.36250 0.73380 0.12710 -0.01000
C 	C 	0.53900 0.93560 0.48180 0.09800
H 	H 	0.56540 0.93740 0.53250 -0.02000
C 	C 	0.54040 0.90910 0.44750 -0.14600
H 	H 	0.56980 0.89460 0.47410 0.08000
C 	C 	0.46030 0.92490 0.33850 0.02900
H 	H 	0.43170 0.92140 0.28860 0.02000
C 	C 	0.46090 0.95290 0.37390 -0.04600
H 	H 	0.43210 0.96810 0.34720 0.02800
S 	S 	0.67530 0.65967 0.31900 -0.03900
S 	S 	0.67560 0.65991 0.03270 -0.12600
N 	N 	0.78999 0.21014 0.99992 -0.23200
C 	C 	0.81129 0.18888 0.00010 0.05800
N 	N 	0.78993 0.21001 0.57966 -0.26600
C 	C 	0.81109 0.18878 0.62200 0.10800
S 	S 	0.18064 0.51688 0.68030 -0.03600
N 	N 	0.55606 0.45951 0.55606 -0.23400
C 	C 	0.58750 0.45300 0.62690 -0.01100
H 	H 	0.58590 0.46820 0.65410 0.01800
C 	C 	0.62200 0.42510 0.66130 -0.01700
H 	H 	0.64370 0.42170 0.71130 0.03800
C 	C 	0.62476 0.40308 0.62482 0.03100
C 	C 	0.59240 0.40810 0.55190 -0.11200
H 	H 	0.59450 0.39280 0.52520 0.06800
C 	C 	0.55670 0.43560 0.51780 0.06100
H 	H 	0.53250 0.43770 0.46710 -0.00800
C 	C 	0.66035 0.37250 0.66038 0.10500
N 	N 	0.67341 0.35904 0.71773 -0.14900
C 	C 	0.70299 0.33050 0.74540 0.10700
N 	N 	0.71763 0.31437 0.71749 -0.14800
C 	C 	0.70263 0.33024 0.66030 0.11000
N 	N 	0.67321 0.35875 0.62852 -0.14900
N 	N 	0.73700 0.27789 0.91809 -0.22600
C 	C 	0.73170 0.25830 0.86950 0.09000
H 	H 	0.73330 0.23290 0.87230 -0.01600
C 	C 	0.72390 0.27590 0.81520 -0.15100
H 	H 	0.72440 0.26270 0.78490 0.08200
C 	C 	0.71548 0.31274 0.80606 0.02500
C 	C 	0.71620 0.33010 0.85010 0.00100
H 	H 	0.70880 0.35500 0.84310 0.03400
C 	C 	0.72710 0.31330 0.90600 -0.02100
H 	H 	0.72770 0.32700 0.93700 0.02600
N 	N 	0.73724 0.27805 0.55598 -0.23000
C 	C 	0.72670 0.31350 0.54680 -0.05400
H 	H 	0.72610 0.32700 0.51560 0.03100
C 	C 	0.71660 0.33070 0.58320 0.02600
H 	H 	0.71080 0.35580 0.57780 0.02300
C 	C 	0.71520 0.31252 0.62451 0.02100
C 	C 	0.72480 0.27520 0.63330 -0.16000
H 	H 	0.72570 0.26190 0.66490 0.08400
C 	C 	0.73270 0.25830 0.59560 0.10100
H 	H 	0.73510 0.23290 0.59670 -0.02000
N 	N 	0.81876 0.27818 0.55616 -0.23100
C 	C 	0.85890 0.27450 0.62590 -0.06200
H 	H 	0.85620 0.26000 0.65270 0.03400
C 	C 	0.90600 0.29150 0.66220 0.04700
H 	H 	0.93440 0.28790 0.71210 0.01900
C 	C 	0.90957 0.31257 0.62512 0.02200
C 	C 	0.86780 0.31690 0.55200 -0.15500
H 	H 	0.86970 0.33250 0.52550 0.08300
C 	C 	0.82250 0.29820 0.51710 0.10900
H 	H 	0.79470 0.29970 0.46650 -0.02400
C 	C 	0.95770 0.33048 0.66064 0.11600
N 	N 	0.00010 0.31445 0.71786 -0.15500
C 	C 	0.04213 0.33052 0.74482 0.10500
N 	N 	0.04439 0.35902 0.71770 -0.14900
C 	C 	0.00007 0.37278 0.66075 0.10200
N 	N 	0.95584 0.35892 0.62931 -0.14600
C 	C 	0.17570 0.29750 0.86960 0.06600
H 	H 	0.20260 0.29780 0.87240 -0.00700
C 	C 	0.13070 0.31750 0.81440 -0.13000
H 	H 	0.12870 0.33360 0.78460 0.07400
C 	C 	0.09057 0.31261 0.80625 0.03400
C 	C 	0.09540 0.29090 0.85170 0.00900
H 	H 	0.06740 0.28750 0.84590 0.02800
C 	C 	0.14000 0.27390 0.90590 -0.02400
H 	H 	0.14190 0.25850 0.93640 0.02600
N 	N 	0.18110 0.27795 0.91818 -0.22700
C 	C 	0.96080 0.45390 0.54850 -0.04500
H 	H 	0.93210 0.46920 0.51780 0.02800
C 	C 	0.96130 0.42550 0.58500 0.03900
H 	H 	0.93390 0.42280 0.58060 0.02000
C 	C 	0.00011 0.40304 0.62520 0.01300
C 	C 	0.04070 0.40810 0.63240 -0.13300
H 	H 	0.06950 0.39290 0.66260 0.07500
C 	C 	0.03850 0.43540 0.59530 0.08400
H 	H 	0.06460 0.43750 0.59690 -0.01600
N 	N 	0.00012 0.45935 0.55672 -0.23800
S 	S 	0.85710 0.15988 0.68100 -0.03200
S 	S 	0.85690 0.15956 0.03310 -0.10100
C 	C 	0.55750 0.43520 0.59590 0.05500
H 	H 	0.53300 0.43710 0.59760 -0.00500
C 	C 	0.59200 0.40850 0.63330 -0.09600
H 	H 	0.59410 0.39380 0.66470 0.06300
C 	C 	0.62190 0.42490 0.58280 0.00300
H 	H 	0.64380 0.42140 0.57640 0.03100
C 	C 	0.58740 0.45260 0.54810 -0.02200
H 	H 	0.58550 0.46760 0.51710 0.02100
C 	C 	0.76530 0.27380 0.90540 -0.05100
H 	H 	0.79370 0.25830 0.93560 0.03600
C 	C 	0.75550 0.29110 0.85040 0.04800
H 	H 	0.77730 0.28750 0.84400 0.01800
C 	C 	0.68380 0.31730 0.81580 -0.10700
H 	H 	0.65550 0.33300 0.78600 0.06700
C 	C 	0.69460 0.29810 0.87040 0.06000
H 	H 	0.67130 0.29910 0.87440 -0.00600
C 	C 	0.69440 0.29820 0.51770 0.08600
H 	H 	0.67140 0.29970 0.46710 -0.01600
C 	C 	0.68370 0.31660 0.55200 -0.12900
H 	H 	0.65500 0.33190 0.52540 0.07400
C 	C 	0.75570 0.29120 0.66150 0.05600
H 	H 	0.77770 0.28820 0.71160 0.01500
C 	C 	0.76530 0.27330 0.62510 -0.06200
H 	H 	0.79300 0.25710 0.65120 0.03300
C 	C 	0.86260 0.25930 0.59640 0.10400
H 	H 	0.86170 0.23400 0.59920 -0.02100
C 	C 	0.90870 0.27600 0.63360 -0.15400
H 	H 	0.93930 0.26250 0.66430 0.08400
C 	C 	0.86670 0.33110 0.58410 0.05400
H 	H 	0.86720 0.35630 0.57930 0.01400
C 	C 	0.82010 0.31350 0.54730 -0.07400
H 	H 	0.78940 0.32680 0.51590 0.03700
C 	C 	0.17900 0.31270 0.90640 -0.02900
H 	H 	0.20960 0.32610 0.93810 0.02800
C 	C 	0.13510 0.33030 0.85100 0.02000
H 	H 	0.13600 0.35510 0.84400 0.02700
C 	C 	0.09090 0.27680 0.81620 -0.12000
H 	H 	0.06000 0.26380 0.78670 0.07000
C 	C 	0.13690 0.25920 0.86990 0.06300
H 	H 	0.13750 0.23380 0.87290 -0.00700
C 	C 	0.96100 0.43560 0.51820 0.09400
H 	H 	0.93460 0.43740 0.46750 -0.01800
C 	C 	0.95960 0.40910 0.55250 -0.13500
H 	H 	0.93020 0.39460 0.52590 0.07700
C 	C 	0.03970 0.42490 0.66150 0.02700
H 	H 	0.06830 0.42140 0.71140 0.02300
C 	C 	0.03910 0.45290 0.62610 -0.04400
H 	H 	0.06790 0.46810 0.65280 0.02700
S 	S 	0.82470 0.15967 0.68100 -0.03500
S 	S 	0.82440 0.15991 0.96730 0.05000
N 	N 	0.28999 0.71014 0.99992 -0.23200
C 	C 	0.31129 0.68888 0.00010 0.05800
N 	N 	0.28993 0.71001 0.57966 -0.26600
C 	C 	0.31109 0.68878 0.62200 0.10800
S 	S 	0.68064 0.01688 0.68030 -0.04400
N 	N 	0.05606 0.95951 0.55606 -0.23400
C 	C 	0.08750 0.95300 0.62690 -0.01000
H 	H 	0.08590 0.96820 0.65410 0.01800
C 	C 	0.12200 0.92510 0.66130 -0.01700
H 	H 	0.14370 0.92170 0.71130 0.03800
C 	C 	0.12476 0.90308 0.62482 0.03100
C 	C 	0.09240 0.90810 0.55190 -0.11300
H 	H 	0.09450 0.89280 0.52520 0.06700
C 	C 	0.05670 0.93560 0.51780 0.05900
H 	H 	0.03250 0.93770 0.46710 -0.01000
C 	C 	0.16035 0.87250 0.66038 0.10400
N 	N 	0.17341 0.85904 0.71773 -0.14900
C 	C 	0.20299 0.83050 0.74540 0.10700
N 	N 	0.21763 0.81437 0.71749 -0.14900
C 	C 	0.20263 0.83024 0.66030 0.10900
N 	N 	0.17321 0.85875 0.62852 -0.14900
N 	N 	0.23700 0.77789 0.91809 -0.22600
C 	C 	0.23170 0.75830 0.86950 0.08900
H 	H 	0.23330 0.73290 0.87230 -0.01600
C 	C 	0.22390 0.77590 0.81520 -0.15100
H 	H 	0.22440 0.76270 0.78490 0.08100
C 	C 	0.21548 0.81274 0.80606 0.02500
C 	C 	0.21620 0.83010 0.85010 0.00000
H 	H 	0.20880 0.85500 0.84310 0.03400
C 	C 	0.22710 0.81330 0.90600 -0.02100
H 	H 	0.22770 0.82700 0.93700 0.02600
N 	N 	0.23724 0.77805 0.55598 -0.23000
C 	C 	0.22670 0.81350 0.54680 -0.05300
H 	H 	0.22610 0.82700 0.51560 0.03100
C 	C 	0.21660 0.83070 0.58320 0.02600
H 	H 	0.21080 0.85580 0.57780 0.02300
C 	C 	0.21520 0.81252 0.62451 0.02100
C 	C 	0.22480 0.77520 0.63330 -0.16000
H 	H 	0.22570 0.76190 0.66490 0.08400
C 	C 	0.23270 0.75830 0.59560 0.10100
H 	H 	0.23510 0.73290 0.59670 -0.02000
N 	N 	0.31876 0.77818 0.55616 -0.23100
C 	C 	0.35890 0.77450 0.62590 -0.06200
H 	H 	0.35620 0.76000 0.65270 0.03400
C 	C 	0.40600 0.79150 0.66220 0.04700
H 	H 	0.43440 0.78790 0.71210 0.01700
C 	C 	0.40957 0.81257 0.62512 0.02300
C 	C 	0.36780 0.81690 0.55200 -0.15600
H 	H 	0.36970 0.83250 0.52550 0.08300
C 	C 	0.32250 0.79820 0.51710 0.11000
H 	H 	0.29470 0.79970 0.46650 -0.02400
C 	C 	0.45770 0.83048 0.66064 0.10800
N 	N 	0.50010 0.81445 0.71786 -0.14900
C 	C 	0.54213 0.83052 0.74482 0.10600
N 	N 	0.54439 0.85902 0.71770 -0.14900
C 	C 	0.50007 0.87278 0.66075 0.10800
N 	N 	0.45584 0.85892 0.62931 -0.15000
C 	C 	0.67570 0.79750 0.86960 0.06600
H 	H 	0.70260 0.79780 0.87240 -0.00700
C 	C 	0.63070 0.81750 0.81440 -0.13000
H 	H 	0.62870 0.83360 0.78460 0.07500
C 	C 	0.59057 0.81261 0.80625 0.03500
C 	C 	0.59540 0.79090 0.85170 0.00900
H 	H 	0.56740 0.78750 0.84590 0.03000
C 	C 	0.64000 0.77390 0.90590 -0.02300
H 	H 	0.64190 0.75850 0.93640 0.02600
N 	N 	0.68110 0.77795 0.91818 -0.22700
C 	C 	0.46080 0.95390 0.54850 -0.05400
H 	H 	0.43210 0.96920 0.51780 0.03100
C 	C 	0.46130 0.92550 0.58500 0.03700
H 	H 	0.43390 0.92280 0.58060 0.01900
C 	C 	0.50011 0.90304 0.62520 0.02500
C 	C 	0.54070 0.90810 0.63240 -0.13800
H 	H 	0.56950 0.89290 0.66260 0.07700
C 	C 	0.53850 0.93540 0.59530 0.08900
H 	H 	0.56460 0.93750 0.59690 -0.01700
N 	N 	0.50012 0.95935 0.55672 -0.23200
S 	S 	0.35710 0.65988 0.68100 -0.03500
S 	S 	0.35690 0.65956 0.03310 -0.10400
C 	C 	0.05750 0.93520 0.59590 0.05300
H 	H 	0.03300 0.93710 0.59760 -0.00800
C 	C 	0.09200 0.90850 0.63330 -0.09700
H 	H 	0.09410 0.89380 0.66470 0.06200
C 	C 	0.12190 0.92490 0.58280 0.00300
H 	H 	0.14380 0.92140 0.57640 0.03100
C 	C 	0.08740 0.95260 0.54810 -0.02100
H 	H 	0.08550 0.96760 0.51710 0.02100
C 	C 	0.26530 0.77380 0.90540 -0.05100
H 	H 	0.29370 0.75830 0.93560 0.03500
C 	C 	0.25550 0.79110 0.85040 0.04700
H 	H 	0.27730 0.78750 0.84400 0.01800
C 	C 	0.18380 0.81730 0.81580 -0.10600
H 	H 	0.15550 0.83300 0.78600 0.06600
C 	C 	0.19460 0.79810 0.87040 0.05900
H 	H 	0.17130 0.79910 0.87440 -0.00600
C 	C 	0.19440 0.79820 0.51770 0.08600
H 	H 	0.17140 0.79970 0.46710 -0.01600
C 	C 	0.18370 0.81660 0.55200 -0.12900
H 	H 	0.15500 0.83190 0.52540 0.07400
C 	C 	0.25570 0.79120 0.66150 0.05600
H 	H 	0.27770 0.78820 0.71160 0.01400
C 	C 	0.26530 0.77330 0.62510 -0.06200
H 	H 	0.29300 0.75710 0.65120 0.03200
C 	C 	0.36260 0.75930 0.59640 0.10500
H 	H 	0.36170 0.73400 0.59920 -0.02200
C 	C 	0.40870 0.77600 0.63360 -0.15500
H 	H 	0.43930 0.76250 0.66430 0.08300
C 	C 	0.36670 0.83110 0.58410 0.05300
H 	H 	0.36720 0.85630 0.57930 0.01400
C 	C 	0.32010 0.81350 0.54730 -0.07400
H 	H 	0.28940 0.82680 0.51590 0.03700
C 	C 	0.67900 0.81270 0.90640 -0.02900
H 	H 	0.70960 0.82610 0.93810 0.02800
C 	C 	0.63510 0.83030 0.85100 0.02100
H 	H 	0.63600 0.85510 0.84400 0.02700
C 	C 	0.59090 0.77680 0.81620 -0.12000
H 	H 	0.56000 0.76380 0.78670 0.07100
C 	C 	0.63690 0.75920 0.86990 0.06400
H 	H 	0.63750 0.73380 0.87290 -0.00700
C 	C 	0.46100 0.93560 0.51820 0.09700
H 	H 	0.43460 0.93740 0.46750 -0.02000
C 	C 	0.45960 0.90910 0.55250 -0.14600
H 	H 	0.43020 0.89460 0.52590 0.07900
C 	C 	0.53970 0.92490 0.66150 0.02900
H 	H 	0.56830 0.92140 0.71140 0.02300
C 	C 	0.53910 0.95290 0.62610 -0.04500
H 	H 	0.56790 0.96810 0.65280 0.02900
S 	S 	0.32470 0.65967 0.68100 -0.03600
S 	S 	0.32440 0.65991 0.96730 0.05200
N 	N 	0.78999 0.78986 0.99992 -0.23200
C 	C 	0.81129 0.81112 0.00010 0.05800
N 	N 	0.78993 0.78999 0.57966 -0.26600
C 	C 	0.81109 0.81122 0.62200 0.10800
S 	S 	0.18064 0.48312 0.68030 -0.03600
N 	N 	0.55606 0.54049 0.55606 -0.23400
C 	C 	0.58750 0.54700 0.62690 -0.01100
H 	H 	0.58590 0.53180 0.65410 0.01800
C 	C 	0.62200 0.57490 0.66130 -0.01700
H 	H 	0.64370 0.57830 0.71130 0.03800
C 	C 	0.62476 0.59692 0.62482 0.03100
C 	C 	0.59240 0.59190 0.55190 -0.11200
H 	H 	0.59450 0.60720 0.52520 0.06800
C 	C 	0.55670 0.56440 0.51780 0.06100
H 	H 	0.53250 0.56230 0.46710 -0.00800
C 	C 	0.66035 0.62750 0.66038 0.10500
N 	N 	0.67341 0.64096 0.71773 -0.14900
C 	C 	0.70299 0.66950 0.74540 0.10700
N 	N 	0.71763 0.68563 0.71749 -0.14800
C 	C 	0.70263 0.66976 0.66030 0.11000
N 	N 	0.67321 0.64125 0.62852 -0.14900
N 	N 	0.73700 0.72211 0.91809 -0.22600
C 	C 	0.73170 0.74170 0.86950 0.09000
H 	H 	0.73330 0.76710 0.87230 -0.01600
C 	C 	0.72390 0.72410 0.81520 -0.15100
H 	H 	0.72440 0.73730 0.78490 0.08200
C 	C 	0.71548 0.68726 0.80606 0.02500
C 	C 	0.71620 0.66990 0.85010 0.00100
H 	H 	0.70880 0.64500 0.84310 0.03400
C 	C 	0.72710 0.68670 0.90600 -0.02100
H 	H 	0.72770 0.67300 0.93700 0.02600
N 	N 	0.73724 0.72195 0.55598 -0.23000
C 	C 	0.72670 0.68650 0.54680 -0.05400
H 	H 	0.72610 0.67300 0.51560 0.03100
C 	C 	0.71660 0.66930 0.58320 0.02600
H 	H 	0.71080 0.64420 0.57780 0.02300
C 	C 	0.71520 0.68748 0.62451 0.02100
C 	C 	0.72480 0.72480 0.63330 -0.16000
H 	H 	0.72570 0.73810 0.66490 0.08400
C 	C 	0.73270 0.74170 0.59560 0.10100
H 	H 	0.73510 0.76710 0.59670 -0.02000
N 	N 	0.81876 0.72182 0.55616 -0.23100
C 	C 	0.85890 0.72550 0.62590 -0.06200
H 	H 	0.85620 0.74000 0.65270 0.03400
C 	C 	0.90600 0.70850 0.66220 0.04700
H 	H 	0.93440 0.71210 0.71210 0.01900
C 	C 	0.90957 0.68743 0.62512 0.02200
C 	C 	0.86780 0.68310 0.55200 -0.15500
H 	H 	0.86970 0.66750 0.52550 0.08300
C 	C 	0.82250 0.70180 0.51710 0.10900
H 	H 	0.79470 0.70030 0.46650 -0.02400
C 	C 	0.95770 0.66952 0.66064 0.11600
N 	N 	0.00010 0.68555 0.71786 -0.15500
C 	C 	0.04213 0.66948 0.74482 0.10500
N 	N 	0.04439 0.64098 0.71770 -0.14900
C 	C 	0.00007 0.62722 0.66075 0.10200
N 	N 	0.95584 0.64108 0.62931 -0.14600
C 	C 	0.17570 0.70250 0.86960 0.06600
H 	H 	0.20260 0.70220 0.87240 -0.00700
C 	C 	0.13070 0.68250 0.81440 -0.13000
H 	H 	0.12870 0.66640 0.78460 0.07400
C 	C 	0.09057 0.68739 0.80625 0.03400
C 	C 	0.09540 0.70910 0.85170 0.00900
H 	H 	0.06740 0.71250 0.84590 0.02800
C 	C 	0.14000 0.72610 0.90590 -0.02400
H 	H 	0.14190 0.74150 0.93640 0.02600
N 	N 	0.18110 0.72205 0.91818 -0.22700
C 	C 	0.96080 0.54610 0.54850 -0.04500
H 	H 	0.93210 0.53080 0.51780 0.02800
C 	C 	0.96130 0.57450 0.58500 0.03900
H 	H 	0.93390 0.57720 0.58060 0.02000
C 	C 	0.00011 0.59696 0.62520 0.01400
C 	C 	0.04070 0.59190 0.63240 -0.13300
H 	H 	0.06950 0.60710 0.66260 0.07500
C 	C 	0.03850 0.56460 0.59530 0.08400
H 	H 	0.06460 0.56250 0.59690 -0.01600
N 	N 	0.00012 0.54065 0.55672 -0.23800
S 	S 	0.85710 0.84012 0.68100 -0.03100
S 	S 	0.85690 0.84044 0.03310 -0.10000
C 	C 	0.55750 0.56480 0.59590 0.05400
H 	H 	0.53300 0.56290 0.59760 -0.00500
C 	C 	0.59200 0.59150 0.63330 -0.09600
H 	H 	0.59410 0.60620 0.66470 0.06300
C 	C 	0.62190 0.57510 0.58280 0.00300
H 	H 	0.64380 0.57860 0.57640 0.03100
C 	C 	0.58740 0.54740 0.54810 -0.02200
H 	H 	0.58550 0.53240 0.51710 0.02100
C 	C 	0.76530 0.72620 0.90540 -0.05100
H 	H 	0.79370 0.74170 0.93560 0.03600
C 	C 	0.75550 0.70890 0.85040 0.04800
H 	H 	0.77730 0.71250 0.84400 0.01800
C 	C 	0.68380 0.68270 0.81580 -0.10700
H 	H 	0.65550 0.66700 0.78600 0.06700
C 	C 	0.69460 0.70190 0.87040 0.06000
H 	H 	0.67130 0.70090 0.87440 -0.00600
C 	C 	0.69440 0.70180 0.51770 0.08600
H 	H 	0.67140 0.70030 0.46710 -0.01600
C 	C 	0.68370 0.68340 0.55200 -0.12900
H 	H 	0.65500 0.66810 0.52540 0.07400
C 	C 	0.75570 0.70880 0.66150 0.05600
H 	H 	0.77770 0.71180 0.71160 0.01500
C 	C 	0.76530 0.72670 0.62510 -0.06200
H 	H 	0.79300 0.74290 0.65120 0.03300
C 	C 	0.86260 0.74070 0.59640 0.10400
H 	H 	0.86170 0.76600 0.59920 -0.02100
C 	C 	0.90870 0.72400 0.63360 -0.15400
H 	H 	0.93930 0.73750 0.66430 0.08400
C 	C 	0.86670 0.66890 0.58410 0.05400
H 	H 	0.86720 0.64370 0.57930 0.01400
C 	C 	0.82010 0.68650 0.54730 -0.07400
H 	H 	0.78940 0.67320 0.51590 0.03700
C 	C 	0.17900 0.68730 0.90640 -0.02900
H 	H 	0.20960 0.67390 0.93810 0.02800
C 	C 	0.13510 0.66970 0.85100 0.02000
H 	H 	0.13600 0.64490 0.84400 0.02700
C 	C 	0.09090 0.72320 0.81620 -0.12000
H 	H 	0.06000 0.73620 0.78670 0.07000
C 	C 	0.13690 0.74080 0.86990 0.06300
H 	H 	0.13750 0.76620 0.87290 -0.00700
C 	C 	0.96100 0.56440 0.51820 0.09400
H 	H 	0.93460 0.56260 0.46750 -0.01800
C 	C 	0.95960 0.59090 0.55250 -0.13500
H 	H 	0.93020 0.60540 0.52590 0.07700
C 	C 	0.03970 0.57510 0.66150 0.02700
H 	H 	0.06830 0.57860 0.71140 0.02300
C 	C 	0.03910 0.54710 0.62610 -0.04400
H 	H 	0.06790 0.53190 0.65280 0.02700
S 	S 	0.82470 0.84033 0.68100 -0.03500
S 	S 	0.82440 0.84009 0.96730 0.05100
N 	N 	0.28999 0.28986 0.99992 -0.23200
C 	C 	0.31129 0.31112 0.00010 0.05800
N 	N 	0.28993 0.28999 0.57966 -0.26600
C 	C 	0.31109 0.31122 0.62200 0.10800
S 	S 	0.68064 0.98312 0.68030 -0.02500
N 	N 	0.05606 0.04049 0.55606 -0.23500
C 	C 	0.08750 0.04700 0.62690 -0.01000
H 	H 	0.08590 0.03180 0.65410 0.01600
C 	C 	0.12200 0.07490 0.66130 -0.01800
H 	H 	0.14370 0.07830 0.71130 0.03800
C 	C 	0.12476 0.09692 0.62482 0.03100
C 	C 	0.09240 0.09190 0.55190 -0.11200
H 	H 	0.09450 0.10720 0.52520 0.06700
C 	C 	0.05670 0.06440 0.51780 0.06000
H 	H 	0.03250 0.06230 0.46710 -0.01100
C 	C 	0.16035 0.12750 0.66038 0.10400
N 	N 	0.17341 0.14096 0.71773 -0.14900
C 	C 	0.20299 0.16950 0.74540 0.10700
N 	N 	0.21763 0.18563 0.71749 -0.14900
C 	C 	0.20263 0.16976 0.66030 0.10900
N 	N 	0.17321 0.14125 0.62852 -0.14900
N 	N 	0.23700 0.22211 0.91809 -0.22600
C 	C 	0.23170 0.24170 0.86950 0.09000
H 	H 	0.23330 0.26710 0.87230 -0.01600
C 	C 	0.22390 0.22410 0.81520 -0.15100
H 	H 	0.22440 0.23730 0.78490 0.08100
C 	C 	0.21548 0.18726 0.80606 0.02500
C 	C 	0.21620 0.16990 0.85010 0.00000
H 	H 	0.20880 0.14500 0.84310 0.03300
C 	C 	0.22710 0.18670 0.90600 -0.02100
H 	H 	0.22770 0.17300 0.93700 0.02600
N 	N 	0.23724 0.22195 0.55598 -0.23000
C 	C 	0.22670 0.18650 0.54680 -0.05400
H 	H 	0.22610 0.17300 0.51560 0.03000
C 	C 	0.21660 0.16930 0.58320 0.02600
H 	H 	0.21080 0.14420 0.57780 0.02300
C 	C 	0.21520 0.18748 0.62451 0.02000
C 	C 	0.22480 0.22480 0.63330 -0.16000
H 	H 	0.22570 0.23810 0.66490 0.08400
C 	C 	0.23270 0.24170 0.59560 0.10100
H 	H 	0.23510 0.26710 0.59670 -0.02000
N 	N 	0.31876 0.22182 0.55616 -0.23100
C 	C 	0.35890 0.22550 0.62590 -0.06200
H 	H 	0.35620 0.24000 0.65270 0.03400
C 	C 	0.40600 0.20850 0.66220 0.04700
H 	H 	0.43440 0.21210 0.71210 0.01700
C 	C 	0.40957 0.18743 0.62512 0.02300
C 	C 	0.36780 0.18310 0.55200 -0.15600
H 	H 	0.36970 0.16750 0.52550 0.08300
C 	C 	0.32250 0.20180 0.51710 0.11000
H 	H 	0.29470 0.20030 0.46650 -0.02400
C 	C 	0.45770 0.16952 0.66064 0.10800
N 	N 	0.50010 0.18555 0.71786 -0.14900
C 	C 	0.54213 0.16948 0.74482 0.10600
N 	N 	0.54439 0.14098 0.71770 -0.14900
C 	C 	0.50007 0.12722 0.66075 0.10800
N 	N 	0.45584 0.14108 0.62931 -0.15000
C 	C 	0.67570 0.20250 0.86960 0.06700
H 	H 	0.70260 0.20220 0.87240 -0.00700
C 	C 	0.63070 0.18250 0.81440 -0.13000
H 	H 	0.62870 0.16640 0.78460 0.07500
C 	C 	0.59057 0.18739 0.80625 0.03500
C 	C 	0.59540 0.20910 0.85170 0.00900
H 	H 	0.56740 0.21250 0.84590 0.03000
C 	C 	0.64000 0.22610 0.90590 -0.02400
H 	H 	0.64190 0.24150 0.93640 0.02600
N 	N 	0.68110 0.22205 0.91818 -0.22700
C 	C 	0.46080 0.04610 0.54850 -0.05500
H 	H 	0.43210 0.03080 0.51780 0.03000
C 	C 	0.46130 0.07450 0.58500 0.03700
H 	H 	0.43390 0.07720 0.58060 0.01800
C 	C 	0.50011 0.09696 0.62520 0.02500
C 	C 	0.54070 0.09190 0.63240 -0.13700
H 	H 	0.56950 0.10710 0.66260 0.07700
C 	C 	0.53850 0.06460 0.59530 0.09000
H 	H 	0.56460 0.06250 0.59690 -0.01800
N 	N 	0.50012 0.04065 0.55672 -0.23300
S 	S 	0.35710 0.34012 0.68100 -0.03500
S 	S 	0.35690 0.34044 0.03310 -0.10400
C 	C 	0.05750 0.06480 0.59590 0.05300
H 	H 	0.03300 0.06290 0.59760 -0.00800
C 	C 	0.09200 0.09150 0.63330 -0.09600
H 	H 	0.09410 0.10620 0.66470 0.06200
C 	C 	0.12190 0.07510 0.58280 0.00200
H 	H 	0.14380 0.07860 0.57640 0.03000
C 	C 	0.08740 0.04740 0.54810 -0.02100
H 	H 	0.08550 0.03240 0.51710 0.01900
C 	C 	0.26530 0.22620 0.90540 -0.05100
H 	H 	0.29370 0.24170 0.93560 0.03500
C 	C 	0.25550 0.20890 0.85040 0.04800
H 	H 	0.27730 0.21250 0.84400 0.01800
C 	C 	0.18380 0.18270 0.81580 -0.10600
H 	H 	0.15550 0.16700 0.78600 0.06600
C 	C 	0.19460 0.20190 0.87040 0.06000
H 	H 	0.17130 0.20090 0.87440 -0.00600
C 	C 	0.19440 0.20180 0.51770 0.08600
H 	H 	0.17140 0.20030 0.46710 -0.01600
C 	C 	0.18370 0.18340 0.55200 -0.12900
H 	H 	0.15500 0.16810 0.52540 0.07300
C 	C 	0.25570 0.20880 0.66150 0.05600
H 	H 	0.27770 0.21180 0.71160 0.01400
C 	C 	0.26530 0.22670 0.62510 -0.06200
H 	H 	0.29300 0.24290 0.65120 0.03200
C 	C 	0.36260 0.24070 0.59640 0.10500
H 	H 	0.36170 0.26600 0.59920 -0.02200
C 	C 	0.40870 0.22400 0.63360 -0.15500
H 	H 	0.43930 0.23750 0.66430 0.08300
C 	C 	0.36670 0.16890 0.58410 0.05300
H 	H 	0.36720 0.14370 0.57930 0.01400
C 	C 	0.32010 0.18650 0.54730 -0.07400
H 	H 	0.28940 0.17320 0.51590 0.03700
C 	C 	0.67900 0.18730 0.90640 -0.02900
H 	H 	0.70960 0.17390 0.93810 0.02800
C 	C 	0.63510 0.16970 0.85100 0.02100
H 	H 	0.63600 0.14490 0.84400 0.02700
C 	C 	0.59090 0.22320 0.81620 -0.12000
H 	H 	0.56000 0.23620 0.78670 0.07100
C 	C 	0.63690 0.24080 0.86990 0.06400
H 	H 	0.63750 0.26620 0.87290 -0.00700
C 	C 	0.46100 0.06440 0.51820 0.09800
H 	H 	0.43460 0.06260 0.46750 -0.02000
C 	C 	0.45960 0.09090 0.55250 -0.14600
H 	H 	0.43020 0.10540 0.52590 0.07900
C 	C 	0.53970 0.07510 0.66150 0.02800
H 	H 	0.56830 0.07860 0.71140 0.02300
C 	C 	0.53910 0.04710 0.62610 -0.04600
H 	H 	0.56790 0.03190 0.65280 0.02800
S 	S 	0.32470 0.34033 0.68100 -0.03600
S 	S 	0.32440 0.34009 0.96730 0.05200
N 	N 	0.21001 0.78986 0.00008 -0.29600
C 	C 	0.18871 0.81112 0.99990 0.15700
N 	N 	0.21007 0.78999 0.42034 -0.26700
C 	C 	0.18891 0.81122 0.37800 0.10900
S 	S 	0.81936 0.48312 0.31970 -0.04000
N 	N 	0.44394 0.54049 0.44394 -0.23400
C 	C 	0.41250 0.54700 0.37310 -0.01300
H 	H 	0.41410 0.53180 0.34590 0.01700
C 	C 	0.37800 0.57490 0.33870 -0.01800
H 	H 	0.35630 0.57830 0.28870 0.03500
C 	C 	0.37524 0.59692 0.37518 0.03000
C 	C 	0.40760 0.59190 0.44810 -0.11200
H 	H 	0.40550 0.60720 0.47480 0.06800
C 	C 	0.44330 0.56440 0.48220 0.06200
H 	H 	0.46750 0.56230 0.53290 -0.00800
C 	C 	0.33965 0.62750 0.33962 0.10300
N 	N 	0.32659 0.64096 0.28227 -0.14900
C 	C 	0.29701 0.66950 0.25460 0.10500
N 	N 	0.28237 0.68563 0.28251 -0.14900
C 	C 	0.29737 0.66976 0.33970 0.10800
N 	N 	0.32679 0.64125 0.37148 -0.14900
N 	N 	0.26300 0.72211 0.08191 -0.23500
C 	C 	0.26830 0.74170 0.13050 0.09700
H 	H 	0.26670 0.76710 0.12770 -0.02000
C 	C 	0.27610 0.72410 0.18480 -0.15300
H 	H 	0.27560 0.73730 0.21510 0.08100
C 	C 	0.28452 0.68726 0.19394 0.02400
C 	C 	0.28380 0.66990 0.14990 -0.00100
H 	H 	0.29120 0.64500 0.15690 0.02900
C 	C 	0.27290 0.68670 0.09400 -0.03000
H 	H 	0.27230 0.67300 0.06300 0.01600
N 	N 	0.26276 0.72195 0.44402 -0.22900
C 	C 	0.27330 0.68650 0.45320 -0.05600
H 	H 	0.27390 0.67300 0.48440 0.03100
C 	C 	0.28340 0.66930 0.41680 0.02600
H 	H 	0.28920 0.64420 0.42220 0.02200
C 	C 	0.28480 0.68748 0.37549 0.02000
C 	C 	0.27520 0.72480 0.36670 -0.15900
H 	H 	0.27430 0.73810 0.33510 0.08300
C 	C 	0.26730 0.74170 0.40440 0.10200
H 	H 	0.26490 0.76710 0.40330 -0.02100
N 	N 	0.18124 0.72182 0.44384 -0.23100
C 	C 	0.14110 0.72550 0.37410 -0.06500
H 	H 	0.14380 0.74000 0.34730 0.03200
C 	C 	0.09400 0.70850 0.33780 0.04700
H 	H 	0.06560 0.71210 0.28790 0.01200
C 	C 	0.09043 0.68743 0.37488 0.02400
C 	C 	0.13220 0.68310 0.44800 -0.15700
H 	H 	0.13030 0.66750 0.47450 0.08300
C 	C 	0.17750 0.70180 0.48290 0.11200
H 	H 	0.20530 0.70030 0.53350 -0.02500
C 	C 	0.04230 0.66952 0.33936 0.09800
N 	N 	0.99990 0.68555 0.28214 -0.14300
C 	C 	0.95787 0.66948 0.25518 0.10600
N 	N 	0.95561 0.64098 0.28230 -0.15000
C 	C 	0.99993 0.62722 0.33925 0.11200
N 	N 	0.04416 0.64108 0.37069 -0.15300
C 	C 	0.82430 0.70250 0.13040 0.07500
H 	H 	0.79740 0.70220 0.12760 -0.01100
C 	C 	0.86930 0.68250 0.18560 -0.13400
H 	H 	0.87130 0.66640 0.21540 0.07600
C 	C 	0.90943 0.68739 0.19375 0.03400
C 	C 	0.90460 0.70910 0.14830 0.00800
H 	H 	0.93260 0.71250 0.15410 0.02700
C 	C 	0.86000 0.72610 0.09410 -0.03200
H 	H 	0.85810 0.74150 0.06360 0.01700
N 	N 	0.81890 0.72205 0.08182 -0.23500
C 	C 	0.03920 0.54610 0.45150 -0.06500
H 	H 	0.06790 0.53080 0.48220 0.03200
C 	C 	0.03870 0.57450 0.41500 0.03600
H 	H 	0.06610 0.57720 0.41940 0.01600
C 	C 	0.99989 0.59696 0.37480 0.03600
C 	C 	0.95930 0.59190 0.36760 -0.14200
H 	H 	0.93050 0.60710 0.33740 0.07800
C 	C 	0.96150 0.56460 0.40470 0.09600
H 	H 	0.93540 0.56250 0.40310 -0.01900
N 	N 	0.99988 0.54065 0.44328 -0.22700
S 	S 	0.14290 0.84012 0.31900 -0.04200
S 	S 	0.14310 0.84044 0.96690 0.02600
C 	C 	0.44250 0.56480 0.40410 0.05500
H 	H 	0.46700 0.56290 0.40240 -0.00600
C 	C 	0.40800 0.59150 0.36670 -0.09600
H 	H 	0.40590 0.60620 0.33530 0.06200
C 	C 	0.37810 0.57510 0.41720 0.00300
H 	H 	0.35620 0.57860 0.42360 0.02900
C 	C 	0.41260 0.54740 0.45190 -0.02400
H 	H 	0.41450 0.53240 0.48290 0.02100
C 	C 	0.23470 0.72620 0.09460 -0.06000
H 	H 	0.20630 0.74170 0.06440 0.02500
C 	C 	0.24450 0.70890 0.14960 0.04800
H 	H 	0.22270 0.71250 0.15600 0.01200
C 	C 	0.31620 0.68270 0.18420 -0.10600
H 	H 	0.34450 0.66700 0.21400 0.06600
C 	C 	0.30540 0.70190 0.12960 0.06600
H 	H 	0.32870 0.70090 0.12560 -0.01000
C 	C 	0.30560 0.70180 0.48230 0.08800
H 	H 	0.32860 0.70030 0.53290 -0.01600
C 	C 	0.31630 0.68340 0.44800 -0.12900
H 	H 	0.34500 0.66810 0.47460 0.07400
C 	C 	0.24430 0.70880 0.33850 0.05600
H 	H 	0.22230 0.71180 0.28840 0.01100
C 	C 	0.23470 0.72670 0.37490 -0.06400
H 	H 	0.20700 0.74290 0.34880 0.03100
C 	C 	0.13740 0.74070 0.40360 0.10700
H 	H 	0.13830 0.76600 0.40080 -0.02300
C 	C 	0.09130 0.72400 0.36640 -0.15600
H 	H 	0.06070 0.73750 0.33570 0.08000
C 	C 	0.13330 0.66890 0.41590 0.05400
H 	H 	0.13280 0.64370 0.42070 0.01200
C 	C 	0.17990 0.68650 0.45270 -0.07700
H 	H 	0.21060 0.67320 0.48410 0.03700
C 	C 	0.82100 0.68730 0.09360 -0.03800
H 	H 	0.79040 0.67390 0.06190 0.01800
C 	C 	0.86490 0.66970 0.14900 0.02200
H 	H 	0.86400 0.64490 0.15600 0.02200
C 	C 	0.90910 0.72320 0.18380 -0.12100
H 	H 	0.94000 0.73620 0.21330 0.07300
C 	C 	0.86310 0.74080 0.13010 0.07000
H 	H 	0.86250 0.76620 0.12710 -0.01000
C 	C 	0.03900 0.56440 0.48180 0.10200
H 	H 	0.06540 0.56260 0.53250 -0.02200
C 	C 	0.04040 0.59090 0.44750 -0.15800
H 	H 	0.06980 0.60540 0.47410 0.08200
C 	C 	0.96030 0.57510 0.33850 0.03000
H 	H 	0.93170 0.57860 0.28860 0.02000
C 	C 	0.96090 0.54710 0.37390 -0.04800
H 	H 	0.93210 0.53190 0.34720 0.02800
S 	S 	0.17530 0.84033 0.31900 -0.04000
S 	S 	0.17560 0.84009 0.03270 -0.12400
N 	N 	0.71001 0.28986 0.00008 -0.29700
C 	C 	0.68871 0.31112 0.99990 0.15800
N 	N 	0.71007 0.28999 0.42034 -0.26700
C 	C 	0.68891 0.31122 0.37800 0.10900
S 	S 	0.31936 0.98312 0.31970 -0.03000
N 	N 	0.94394 0.04049 0.44394 -0.23200
C 	C 	0.91250 0.04700 0.37310 -0.01400
H 	H 	0.91410 0.03180 0.34590 0.01800
C 	C 	0.87800 0.07490 0.33870 -0.01800
H 	H 	0.85630 0.07830 0.28870 0.03500
C 	C 	0.87524 0.09692 0.37518 0.03000
C 	C 	0.90760 0.09190 0.44810 -0.11100
H 	H 	0.90550 0.10720 0.47480 0.06900
C 	C 	0.94330 0.06440 0.48220 0.06300
H 	H 	0.96750 0.06230 0.53290 -0.00600
C 	C 	0.83965 0.12750 0.33962 0.10400
N 	N 	0.82659 0.14096 0.28227 -0.14900
C 	C 	0.79701 0.16950 0.25460 0.10500
N 	N 	0.78237 0.18563 0.28251 -0.14900
C 	C 	0.79737 0.16976 0.33970 0.10800
N 	N 	0.82679 0.14125 0.37148 -0.14900
N 	N 	0.76300 0.22211 0.08191 -0.23500
C 	C 	0.76830 0.24170 0.13050 0.09800
H 	H 	0.76670 0.26710 0.12770 -0.02000
C 	C 	0.77610 0.22410 0.18480 -0.15300
H 	H 	0.77560 0.23730 0.21510 0.08200
C 	C 	0.78452 0.18726 0.19394 0.02400
C 	C 	0.78380 0.16990 0.14990 -0.00100
H 	H 	0.79120 0.14500 0.15690 0.02900
C 	C 	0.77290 0.18670 0.09400 -0.03000
H 	H 	0.77230 0.17300 0.06300 0.01700
N 	N 	0.76276 0.22195 0.44402 -0.22900
C 	C 	0.77330 0.18650 0.45320 -0.05600
H 	H 	0.77390 0.17300 0.48440 0.03100
C 	C 	0.78340 0.16930 0.41680 0.02600
H 	H 	0.78920 0.14420 0.42220 0.02200
C 	C 	0.78480 0.18748 0.37549 0.02000
C 	C 	0.77520 0.22480 0.36670 -0.15900
H 	H 	0.77430 0.23810 0.33510 0.08300
C 	C 	0.76730 0.24170 0.40440 0.10300
H 	H 	0.76490 0.26710 0.40330 -0.02100
N 	N 	0.68124 0.22182 0.44384 -0.23100
C 	C 	0.64110 0.22550 0.37410 -0.06400
H 	H 	0.64380 0.24000 0.34730 0.03300
C 	C 	0.59400 0.20850 0.33780 0.04700
H 	H 	0.56560 0.21210 0.28790 0.01400
C 	C 	0.59043 0.18743 0.37488 0.02200
C 	C 	0.63220 0.18310 0.44800 -0.15600
H 	H 	0.63030 0.16750 0.47450 0.08300
C 	C 	0.67750 0.20180 0.48290 0.11100
H 	H 	0.70530 0.20030 0.53350 -0.02400
C 	C 	0.54230 0.16952 0.33936 0.10700
N 	N 	0.49990 0.18555 0.28214 -0.14900
C 	C 	0.45787 0.16948 0.25518 0.10400
N 	N 	0.45561 0.14098 0.28230 -0.15000
C 	C 	0.49993 0.12722 0.33925 0.10600
N 	N 	0.54416 0.14108 0.37069 -0.15000
C 	C 	0.32430 0.20250 0.13040 0.07500
H 	H 	0.29740 0.20220 0.12760 -0.01200
C 	C 	0.36930 0.18250 0.18560 -0.13300
H 	H 	0.37130 0.16640 0.21540 0.07500
C 	C 	0.40943 0.18739 0.19375 0.03300
C 	C 	0.40460 0.20910 0.14830 0.00900
H 	H 	0.43260 0.21250 0.15410 0.02500
C 	C 	0.36000 0.22610 0.09410 -0.03200
H 	H 	0.35810 0.24150 0.06360 0.01700
N 	N 	0.31890 0.22205 0.08182 -0.23500
C 	C 	0.53920 0.04610 0.45150 -0.05700
H 	H 	0.56790 0.03080 0.48220 0.03000
C 	C 	0.53870 0.07450 0.41500 0.03700
H 	H 	0.56610 0.07720 0.41940 0.01700
C 	C 	0.49989 0.09696 0.37480 0.02400
C 	C 	0.45930 0.09190 0.36760 -0.13700
H 	H 	0.43050 0.10710 0.33740 0.07600
C 	C 	0.46150 0.06460 0.40470 0.09100
H 	H 	0.43540 0.06250 0.40310 -0.01800
N 	N 	0.49988 0.04065 0.44328 -0.23300
S 	S 	0.64290 0.34012 0.31900 -0.03900
S 	S 	0.64310 0.34044 0.96690 0.02900
C 	C 	0.94250 0.06480 0.40410 0.05600
H 	H 	0.96700 0.06290 0.40240 -0.00300
C 	C 	0.90800 0.09150 0.36670 -0.09500
H 	H 	0.90590 0.10620 0.33530 0.06300
C 	C 	0.87810 0.07510 0.41720 0.00200
H 	H 	0.85620 0.07860 0.42360 0.03000
C 	C 	0.91260 0.04740 0.45190 -0.02500
H 	H 	0.91450 0.03240 0.48290 0.02100
C 	C 	0.73470 0.22620 0.09460 -0.06000
H 	H 	0.70630 0.24170 0.06440 0.02600
C 	C 	0.74450 0.20890 0.14960 0.04800
H 	H 	0.72270 0.21250 0.15600 0.01300
C 	C 	0.81620 0.18270 0.18420 -0.10600
H 	H 	0.84450 0.16700 0.21400 0.06700
C 	C 	0.80540 0.20190 0.12960 0.06600
H 	H 	0.82870 0.20090 0.12560 -0.01000
C 	C 	0.80560 0.20180 0.48230 0.08800
H 	H 	0.82860 0.20030 0.53290 -0.01600
C 	C 	0.81630 0.18340 0.44800 -0.12900
H 	H 	0.84500 0.16810 0.47460 0.07500
C 	C 	0.74430 0.20880 0.33850 0.05600
H 	H 	0.72230 0.21180 0.28840 0.01100
C 	C 	0.73470 0.22670 0.37490 -0.06400
H 	H 	0.70700 0.24290 0.34880 0.03100
C 	C 	0.63740 0.24070 0.40360 0.10600
H 	H 	0.63830 0.26600 0.40080 -0.02300
C 	C 	0.59130 0.22400 0.36640 -0.15500
H 	H 	0.56070 0.23750 0.33570 0.08200
C 	C 	0.63330 0.16890 0.41590 0.05400
H 	H 	0.63280 0.14370 0.42070 0.01300
C 	C 	0.67990 0.18650 0.45270 -0.07600
H 	H 	0.71060 0.17320 0.48410 0.03700
C 	C 	0.32100 0.18730 0.09360 -0.03800
H 	H 	0.29040 0.17390 0.06190 0.01800
C 	C 	0.36490 0.16970 0.14900 0.02200
H 	H 	0.36400 0.14490 0.15600 0.02100
C 	C 	0.40910 0.22320 0.18380 -0.12000
H 	H 	0.44000 0.23620 0.21330 0.07100
C 	C 	0.36310 0.24080 0.13010 0.07000
H 	H 	0.36250 0.26620 0.12710 -0.01100
C 	C 	0.53900 0.06440 0.48180 0.09900
H 	H 	0.56540 0.06260 0.53250 -0.02000
C 	C 	0.54040 0.09090 0.44750 -0.14600
H 	H 	0.56980 0.10540 0.47410 0.07900
C 	C 	0.46030 0.07510 0.33850 0.02800
H 	H 	0.43170 0.07860 0.28860 0.02000
C 	C 	0.46090 0.04710 0.37390 -0.04700
H 	H 	0.43210 0.03190 0.34720 0.02700
S 	S 	0.67530 0.34033 0.31900 -0.03900
S 	S 	0.67560 0.34009 0.03270 -0.12600
Co	Co	0.50000 0.50000 0.50000 1.12800
Co	Co	0.00000 0.00000 0.50000 1.12300
N 	N 	0.50014 0.50000 0.42102 -0.27200
C 	C 	0.50020 0.50000 0.37940 0.11500
N 	N 	0.92081 0.50000 0.42090 -0.27100
C 	C 	0.87930 0.50000 0.37960 0.11500
S 	S 	0.49968 0.50000 0.31813 -0.07500
N 	N 	0.00014 -0.00000 0.42102 -0.27300
C 	C 	0.00020 -0.00000 0.37940 0.10100
N 	N 	0.42081 0.00000 0.42090 -0.27300
C 	C 	0.37930 0.00000 0.37960 0.11300
S 	S 	0.99968 0.00000 0.31813 -0.06200
N 	N 	0.49986 0.50000 0.57898 -0.27200
C 	C 	0.49980 0.50000 0.62060 0.11400
N 	N 	0.07919 0.50000 0.57910 -0.27300
C 	C 	0.12070 0.50000 0.62040 0.11500
S 	S 	0.50032 0.50000 0.68187 -0.06600
N 	N 	0.99986 0.00000 0.57898 -0.27300
C 	C 	0.99980 0.00000 0.62060 0.12700
N 	N 	0.57919 0.00000 0.57910 -0.27300
C 	C 	0.62070 0.00000 0.62040 0.11200
S 	S 	0.00032 0.00000 0.68187 -0.08300
Co	Co	0.25000 0.25000 -0.00000 1.11400
Co	Co	0.75000 0.25000 -0.00000 1.11400
Co	Co	0.75000 0.75000 -0.00000 1.11400
Co	Co	0.25000 0.75000 -0.00000 1.11400
Co	Co	0.25000 0.25000 0.50000 1.12500
Co	Co	0.75000 0.25000 0.50000 1.12500
Co	Co	0.75000 0.75000 0.50000 1.12500
Co	Co	0.25000 0.75000 0.50000 1.12500
Co	Co	0.00000 0.50000 0.50000 1.12200
Co	Co	0.50000 0.00000 0.50000 1.12500
