data_crystal

_cell_length_a 8.00620
_cell_length_b 12.71710
_cell_length_c 12.71710
_cell_angle_alpha 106.16000
_cell_angle_beta  102.60800
_cell_angle_gamma 77.39250

_symmetry_space_group_name_	'P 1'
_symmetry_space_group_name_H-M	'P 1'

loop_
_symmetry_equiv_pos_as_xyz
  x,y,z

loop_
_atom_site_label
_atom_site_type_symbol
_atom_site_fract_x
_atom_site_fract_y
_atom_site_fract_z
_atom_site_charge
Zn	Zn	0.96822 0.45700 0.71394 1.18600
Zn	Zn	0.53178 0.71394 0.45700 1.18600
Zn	Zn	0.03178 0.54300 0.28606 1.18700
Zn	Zn	0.46822 0.28606 0.54300 1.18700
H 	H 	0.79460 0.55460 0.04940 0.05600
H 	H 	0.33370 0.72090 0.13230 0.08500
H 	H 	0.40040 0.63680 0.81400 0.07800
H 	H 	0.02740 0.72710 0.03910 0.05700
H 	H 	0.11450 0.83400 0.07220 0.04900
H 	H 	0.72580 0.78810 0.00930 0.06000
H 	H 	0.47960 0.87920 0.91740 0.06700
H 	H 	0.70540 0.04940 0.55460 0.05600
H 	H 	0.16630 0.13230 0.72090 0.08400
H 	H 	0.09960 0.81400 0.63680 0.07800
H 	H 	0.47260 0.03910 0.72710 0.05600
H 	H 	0.38550 0.07220 0.83400 0.04700
H 	H 	0.77420 0.00930 0.78810 0.05600
H 	H 	0.02040 0.91740 0.87920 0.06900
H 	H 	0.20540 0.44540 0.95060 0.05600
H 	H 	0.66630 0.27910 0.86770 0.08500
H 	H 	0.59960 0.36320 0.18600 0.07800
H 	H 	0.97260 0.27290 0.96090 0.05700
H 	H 	0.88550 0.16600 0.92780 0.04900
H 	H 	0.27420 0.21190 0.99070 0.06000
H 	H 	0.52040 0.12080 0.08260 0.06700
H 	H 	0.29460 0.95060 0.44540 0.05600
H 	H 	0.83370 0.86770 0.27910 0.08400
H 	H 	0.90040 0.18600 0.36320 0.07800
H 	H 	0.52740 0.96090 0.27290 0.05600
H 	H 	0.61450 0.92780 0.16600 0.04700
H 	H 	0.22580 0.99070 0.21190 0.05600
H 	H 	0.97960 0.08260 0.12080 0.06900
C 	C 	0.72930 0.54628 0.83272 0.29900
C 	C 	0.61400 0.59096 0.91804 -0.03300
C 	C 	0.68140 0.58903 0.02957 -0.01700
C 	C 	0.57640 0.63942 0.10938 -0.06700
C 	C 	0.63900 0.64028 0.23012 0.40600
C 	C 	0.40380 0.68750 0.07850 -0.11000
C 	C 	0.33780 0.68554 0.96826 0.16700
C 	C 	0.44450 0.63735 0.88805 -0.11700
C 	C 	0.05780 0.78230 0.01050 -0.04000
C 	C 	0.89920 0.84230 0.95230 0.04900
C 	C 	0.73640 0.83200 0.96420 -0.07000
C 	C 	0.58860 0.88690 0.90910 -0.06100
C 	C 	0.77070 0.83272 0.54628 0.29800
C 	C 	0.88600 0.91804 0.59096 -0.03100
C 	C 	0.81860 0.02957 0.58903 -0.01800
C 	C 	0.92360 0.10938 0.63942 -0.06900
C 	C 	0.86100 0.23012 0.64028 0.40600
C 	C 	0.09620 0.07850 0.68750 -0.10600
C 	C 	0.16220 0.96826 0.68554 0.16600
C 	C 	0.05550 0.88805 0.63735 -0.11700
C 	C 	0.44220 0.01050 0.78230 -0.03500
C 	C 	0.60080 0.95230 0.84230 0.04300
C 	C 	0.76360 0.96420 0.83200 -0.06200
C 	C 	0.91140 0.90910 0.88690 -0.06700
C 	C 	0.27070 0.45372 0.16728 0.29900
C 	C 	0.38600 0.40904 0.08196 -0.03300
C 	C 	0.31860 0.41097 0.97043 -0.01700
C 	C 	0.42360 0.36058 0.89062 -0.06700
C 	C 	0.36100 0.35972 0.76988 0.40600
C 	C 	0.59620 0.31250 0.92150 -0.11000
C 	C 	0.66220 0.31446 0.03174 0.16700
C 	C 	0.55550 0.36265 0.11195 -0.11700
C 	C 	0.94220 0.21770 0.98950 -0.04000
C 	C 	0.10080 0.15770 0.04770 0.04900
C 	C 	0.26360 0.16800 0.03580 -0.07000
C 	C 	0.41140 0.11310 0.09090 -0.06100
C 	C 	0.22930 0.16728 0.45372 0.29800
C 	C 	0.11400 0.08196 0.40904 -0.03100
C 	C 	0.18140 0.97043 0.41097 -0.01800
C 	C 	0.07640 0.89062 0.36058 -0.06900
C 	C 	0.13900 0.76988 0.35972 0.40600
C 	C 	0.90380 0.92150 0.31250 -0.10600
C 	C 	0.83780 0.03174 0.31446 0.16600
C 	C 	0.94450 0.11195 0.36265 -0.11700
C 	C 	0.55780 0.98950 0.21770 -0.03500
C 	C 	0.39920 0.04770 0.15770 0.04300
C 	C 	0.23640 0.03580 0.16800 -0.06200
C 	C 	0.08860 0.09090 0.11310 -0.06700
O 	O 	0.88780 0.51463 0.86287 -0.42200
O 	O 	0.66620 0.54177 0.73105 -0.41400
O 	O 	0.77140 0.57366 0.25710 -0.51600
O 	O 	0.54710 0.70539 0.29641 -0.46800
O 	O 	0.17100 0.72990 0.93052 -0.22200
O 	O 	0.61220 0.86287 0.51463 -0.42200
O 	O 	0.83380 0.73105 0.54177 -0.41300
O 	O 	0.72860 0.25710 0.57366 -0.51700
O 	O 	0.95290 0.29641 0.70539 -0.46800
O 	O 	0.32900 0.93052 0.72990 -0.22300
O 	O 	0.11220 0.48537 0.13713 -0.42200
O 	O 	0.33380 0.45823 0.26895 -0.41400
O 	O 	0.22860 0.42634 0.74290 -0.51600
O 	O 	0.45290 0.29461 0.70359 -0.46800
O 	O 	0.82900 0.27010 0.06948 -0.22200
O 	O 	0.38780 0.13713 0.48537 -0.42200
O 	O 	0.16620 0.26895 0.45823 -0.41300
O 	O 	0.27140 0.74290 0.42634 -0.51700
O 	O 	0.04710 0.70359 0.29461 -0.46800
O 	O 	0.67100 0.06948 0.27010 -0.22300
