data_crystal

_cell_length_a 12.26200
_cell_length_b 13.57200
_cell_length_c 24.93400
_cell_angle_alpha 90.00000
_cell_angle_beta  90.00000
_cell_angle_gamma 90.00000

_symmetry_space_group_name_	'P 1'
_symmetry_space_group_name_H-M	'P 1'

loop_
_symmetry_equiv_pos_as_xyz
  x,y,z

loop_
_atom_site_label
_atom_site_type_symbol
_atom_site_fract_x
_atom_site_fract_y
_atom_site_fract_z
_atom_site_charge
O 	O 	0.61160 0.91750 0.73070 -0.32200
O 	O 	0.60030 0.00650 0.80270 -0.77500
O 	O 	0.86060 0.95820 0.94960 -0.38000
O 	O 	0.00260 0.87530 0.93297 -0.36800
O 	O 	0.02790 0.14910 0.55333 -0.42100
O 	O 	0.88150 0.07110 0.54690 -0.60700
O 	O 	0.58230 0.12420 0.67540 -0.41500
O 	O 	0.62360 0.21230 0.75700 -0.36600
O 	O 	0.87660 0.65870 0.77370 -0.22800
O 	O 	0.95070 0.41460 0.68710 -0.24500
C 	C 	0.77510 0.90510 0.84920 -0.06800
H 	H 	0.74790 0.96100 0.86610 0.13000
C 	C 	0.85500 0.85540 0.87170 0.04500
C 	C 	0.89350 0.76820 0.84890 -0.17800
H 	H 	0.95030 0.73380 0.86510 0.12600
C 	C 	0.84790 0.73370 0.80310 0.23700
C 	C 	0.76490 0.79330 0.77860 -0.13400
H 	H 	0.73420 0.77350 0.74630 0.12200
C 	C 	0.73150 0.87600 0.80160 0.00400
C 	C 	0.64290 0.96110 0.77940 0.62300
C 	C 	0.91120 0.89370 0.92040 0.30300
C 	C 	0.89270 0.34410 0.67280 0.23800
C 	C 	0.93660 0.28340 0.62630 -0.11400
H 	H 	0.00350 0.30020 0.61130 0.10100
C 	C 	0.88000 0.20410 0.60570 -0.03500
C 	C 	0.77570 0.17840 0.62420 -0.07800
H 	H 	0.73140 0.13470 0.60550 0.09200
C 	C 	0.74260 0.22090 0.67100 0.06300
C 	C 	0.79720 0.31180 0.69350 -0.19700
H 	H 	0.76490 0.34580 0.72180 0.12500
C 	C 	0.92190 0.13400 0.56210 0.44100
C 	C 	0.64740 0.18100 0.70100 0.11400
C 	C 	0.96480 0.60050 0.79580 -0.02100
H 	H 	0.94060 0.56520 0.82740 0.06800
H 	H 	0.02560 0.64250 0.80560 0.06600
C 	C 	0.90590 0.46690 0.73070 -0.01300
H 	H 	0.87950 0.42240 0.75820 0.05800
H 	H 	0.84660 0.50930 0.71920 0.06200
O 	O 	0.38840 0.08250 0.23070 -0.31000
O 	O 	0.39970 0.99350 0.30270 -0.40800
O 	O 	0.13940 0.04180 0.44960 -0.49000
O 	O 	0.99740 0.12470 0.43297 -0.42500
O 	O 	0.97210 0.85090 0.05333 -0.38000
O 	O 	0.11850 0.92890 0.04690 -0.53000
O 	O 	0.41770 0.87580 0.17540 -0.38600
O 	O 	0.37640 0.78770 0.25700 -0.35500
O 	O 	0.12340 0.34130 0.27370 -0.24300
O 	O 	0.04930 0.58540 0.18710 -0.25100
C 	C 	0.22490 0.09490 0.34920 -0.13900
H 	H 	0.25210 0.03900 0.36610 0.09600
C 	C 	0.14500 0.14460 0.37170 0.04600
C 	C 	0.10650 0.23180 0.34890 -0.21000
H 	H 	0.04970 0.26620 0.36510 0.12400
C 	C 	0.15210 0.26630 0.30310 0.26300
C 	C 	0.23510 0.20670 0.27860 -0.21600
H 	H 	0.26580 0.22650 0.24630 0.13800
C 	C 	0.26850 0.12400 0.30160 0.10000
C 	C 	0.35710 0.03890 0.27940 0.17900
C 	C 	0.08880 0.10630 0.42040 0.29900
C 	C 	0.10730 0.65590 0.17280 0.25000
C 	C 	0.06340 0.71660 0.12630 -0.13100
H 	H 	0.99650 0.69980 0.11130 0.11100
C 	C 	0.12000 0.79590 0.10570 -0.00000
C 	C 	0.22430 0.82160 0.12420 -0.08900
H 	H 	0.26860 0.86530 0.10550 0.11800
C 	C 	0.25740 0.77910 0.17100 0.08500
C 	C 	0.20280 0.68820 0.19350 -0.20300
H 	H 	0.23510 0.65420 0.22180 0.12800
C 	C 	0.07810 0.86600 0.06210 0.40800
C 	C 	0.35260 0.81900 0.20100 0.12500
C 	C 	0.03520 0.39950 0.29580 -0.02000
H 	H 	0.05940 0.43480 0.32740 0.06200
H 	H 	0.97440 0.35750 0.30560 0.06300
C 	C 	0.09410 0.53310 0.23070 -0.00700
H 	H 	0.12050 0.57760 0.25820 0.05800
H 	H 	0.15340 0.49070 0.21920 0.05500
O 	O 	0.38840 0.91750 0.76930 -0.32100
O 	O 	0.39970 0.00650 0.69730 -0.78100
O 	O 	0.13940 0.95820 0.55040 -0.40200
O 	O 	0.99740 0.87530 0.56703 -0.37900
O 	O 	0.97210 0.14910 0.94667 -0.39300
O 	O 	0.11850 0.07110 0.95310 -0.57900
O 	O 	0.41770 0.12420 0.82460 -0.40900
O 	O 	0.37640 0.21230 0.74300 -0.36800
O 	O 	0.12340 0.65870 0.72630 -0.22600
O 	O 	0.04930 0.41460 0.81290 -0.24800
C 	C 	0.22490 0.90510 0.65080 -0.06300
H 	H 	0.25210 0.96100 0.63390 0.12500
C 	C 	0.14500 0.85540 0.62830 0.03500
C 	C 	0.10650 0.76820 0.65110 -0.17400
H 	H 	0.04970 0.73380 0.63490 0.11700
C 	C 	0.15210 0.73370 0.69690 0.23000
C 	C 	0.23510 0.79330 0.72140 -0.13100
H 	H 	0.26580 0.77350 0.75370 0.12200
C 	C 	0.26850 0.87600 0.69840 -0.00200
C 	C 	0.35710 0.96110 0.72060 0.62600
C 	C 	0.08880 0.89370 0.57960 0.30000
C 	C 	0.10730 0.34410 0.82720 0.24900
C 	C 	0.06340 0.28340 0.87370 -0.13400
H 	H 	0.99650 0.30020 0.88870 0.11800
C 	C 	0.12000 0.20410 0.89430 -0.01500
C 	C 	0.22430 0.17840 0.87580 -0.08800
H 	H 	0.26860 0.13470 0.89450 0.10200
C 	C 	0.25740 0.22090 0.82900 0.07100
C 	C 	0.20280 0.31180 0.80650 -0.20300
H 	H 	0.23510 0.34580 0.77820 0.12700
C 	C 	0.07810 0.13400 0.93790 0.42300
C 	C 	0.35260 0.18100 0.79900 0.11200
C 	C 	0.03520 0.60050 0.70420 -0.03300
H 	H 	0.05940 0.56520 0.67260 0.06600
H 	H 	0.97440 0.64250 0.69440 0.07200
C 	C 	0.09410 0.46690 0.76930 -0.01400
H 	H 	0.12050 0.42240 0.74180 0.05600
H 	H 	0.15340 0.50930 0.78080 0.06300
O 	O 	0.61160 0.08250 0.26930 -0.30800
O 	O 	0.60030 0.99350 0.19730 -0.41100
O 	O 	0.86060 0.04180 0.05040 -0.51100
O 	O 	0.00260 0.12470 0.06703 -0.44600
O 	O 	0.02790 0.85090 0.44667 -0.36600
O 	O 	0.88150 0.92890 0.45310 -0.51200
O 	O 	0.58230 0.87580 0.32460 -0.38200
O 	O 	0.62360 0.78770 0.24300 -0.35700
O 	O 	0.87660 0.34130 0.22630 -0.24300
O 	O 	0.95070 0.58540 0.31290 -0.24700
C 	C 	0.77510 0.09490 0.15080 -0.13200
H 	H 	0.74790 0.03900 0.13390 0.08900
C 	C 	0.85500 0.14460 0.12830 0.03300
C 	C 	0.89350 0.23180 0.15110 -0.20400
H 	H 	0.95030 0.26620 0.13490 0.11800
C 	C 	0.84790 0.26630 0.19690 0.25800
C 	C 	0.76490 0.20670 0.22140 -0.21200
H 	H 	0.73420 0.22650 0.25370 0.13900
C 	C 	0.73150 0.12400 0.19840 0.09400
C 	C 	0.64290 0.03890 0.22060 0.18000
C 	C 	0.91120 0.10630 0.07960 0.30800
C 	C 	0.89270 0.65590 0.32720 0.25200
C 	C 	0.93660 0.71660 0.37370 -0.12700
H 	H 	0.00350 0.69980 0.38870 0.11400
C 	C 	0.88000 0.79590 0.39430 0.00700
C 	C 	0.77570 0.82160 0.37580 -0.09000
H 	H 	0.73140 0.86530 0.39450 0.12500
C 	C 	0.74260 0.77910 0.32900 0.08800
C 	C 	0.79720 0.68820 0.30650 -0.20300
H 	H 	0.76490 0.65420 0.27820 0.12700
C 	C 	0.92190 0.86600 0.43790 0.40800
C 	C 	0.64740 0.81900 0.29900 0.12500
C 	C 	0.96480 0.39950 0.20420 -0.01200
H 	H 	0.94060 0.43480 0.17260 0.05600
H 	H 	0.02560 0.35750 0.19440 0.05700
C 	C 	0.90590 0.53310 0.26930 -0.00700
H 	H 	0.87950 0.57760 0.24180 0.05700
H 	H 	0.84660 0.49070 0.28080 0.05700
In	In	0.50000 0.08757 0.75000 1.99700
In	In	0.50000 0.91243 0.25000 2.00600
In	In	0.99413 0.00000 -0.00000 1.96900
In	In	0.00587 0.00000 0.50000 1.98300
C 	C 	0.00000 0.52530 0.75000 0.05500
C 	C 	0.00000 0.47470 0.25000 0.04900
