data_crystal

_cell_length_a 26.30160
_cell_length_b 26.30160
_cell_length_c 26.30160
_cell_angle_alpha 90.00000
_cell_angle_beta  90.00000
_cell_angle_gamma 90.00000

_symmetry_space_group_name_	'P 1'
_symmetry_space_group_name_H-M	'P 1'

loop_
_symmetry_equiv_pos_as_xyz
  x,y,z

loop_
_atom_site_label
_atom_site_type_symbol
_atom_site_fract_x
_atom_site_fract_y
_atom_site_fract_z
_atom_site_charge
O 	O 	0.24335 0.05261 0.18300 -0.42600
O 	O 	0.24335 0.55261 0.68300 -0.40500
O 	O 	0.74335 0.05261 0.68300 -0.41800
O 	O 	0.74335 0.55261 0.18300 -0.40600
O 	O 	0.75665 0.94739 0.18300 -0.37500
O 	O 	0.75665 0.44739 0.68300 -0.40200
O 	O 	0.25665 0.94739 0.68300 -0.37300
O 	O 	0.25665 0.44739 0.18300 -0.41100
O 	O 	0.75665 0.05261 0.81700 -0.41300
O 	O 	0.75665 0.55261 0.31700 -0.40200
O 	O 	0.25665 0.05261 0.31700 -0.42200
O 	O 	0.25665 0.55261 0.81700 -0.40000
O 	O 	0.24335 0.94739 0.81700 -0.36800
O 	O 	0.24335 0.44739 0.31700 -0.40500
O 	O 	0.74335 0.94739 0.31700 -0.36900
O 	O 	0.74335 0.44739 0.81700 -0.39600
O 	O 	0.18300 0.24335 0.05261 -0.42600
O 	O 	0.18300 0.74335 0.55261 -0.40600
O 	O 	0.68300 0.24335 0.55261 -0.40500
O 	O 	0.68300 0.74335 0.05261 -0.41800
O 	O 	0.18300 0.75665 0.94739 -0.37500
O 	O 	0.18300 0.25665 0.44739 -0.41100
O 	O 	0.68300 0.75665 0.44739 -0.40200
O 	O 	0.68300 0.25665 0.94739 -0.37300
O 	O 	0.81700 0.75665 0.05261 -0.41400
O 	O 	0.81700 0.25665 0.55261 -0.40100
O 	O 	0.31700 0.75665 0.55261 -0.40300
O 	O 	0.31700 0.25665 0.05261 -0.42300
O 	O 	0.81700 0.24335 0.94739 -0.36900
O 	O 	0.81700 0.74335 0.44739 -0.39700
O 	O 	0.31700 0.24335 0.44739 -0.40600
O 	O 	0.31700 0.74335 0.94739 -0.37000
O 	O 	0.05261 0.18300 0.24335 -0.42700
O 	O 	0.05261 0.68300 0.74335 -0.41900
O 	O 	0.55261 0.18300 0.74335 -0.40700
O 	O 	0.55261 0.68300 0.24335 -0.40600
O 	O 	0.94739 0.18300 0.75665 -0.37600
O 	O 	0.94739 0.68300 0.25665 -0.37400
O 	O 	0.44739 0.18300 0.25665 -0.41200
O 	O 	0.44739 0.68300 0.75665 -0.40300
O 	O 	0.05261 0.81700 0.75665 -0.41400
O 	O 	0.05261 0.31700 0.25665 -0.42300
O 	O 	0.55261 0.81700 0.25665 -0.40100
O 	O 	0.55261 0.31700 0.75665 -0.40300
O 	O 	0.94739 0.81700 0.24335 -0.36900
O 	O 	0.94739 0.31700 0.74335 -0.37000
O 	O 	0.44739 0.81700 0.74335 -0.39700
O 	O 	0.44739 0.31700 0.24335 -0.40600
O 	O 	0.05261 0.24335 0.81700 -0.41700
O 	O 	0.05261 0.74335 0.31700 -0.41900
O 	O 	0.55261 0.24335 0.31700 -0.40600
O 	O 	0.55261 0.74335 0.81700 -0.39700
O 	O 	0.94739 0.75665 0.81700 -0.36600
O 	O 	0.94739 0.25665 0.31700 -0.37500
O 	O 	0.44739 0.75665 0.31700 -0.40300
O 	O 	0.44739 0.25665 0.81700 -0.40100
O 	O 	0.05261 0.75665 0.18300 -0.42500
O 	O 	0.05261 0.25665 0.68300 -0.42300
O 	O 	0.55261 0.75665 0.68300 -0.40300
O 	O 	0.55261 0.25665 0.18300 -0.41200
O 	O 	0.94739 0.24335 0.18300 -0.37900
O 	O 	0.94739 0.74335 0.68300 -0.37000
O 	O 	0.44739 0.24335 0.68300 -0.40600
O 	O 	0.44739 0.74335 0.18300 -0.40700
O 	O 	0.24335 0.18300 0.94739 -0.37900
O 	O 	0.24335 0.68300 0.44739 -0.40600
O 	O 	0.74335 0.18300 0.44739 -0.40700
O 	O 	0.74335 0.68300 0.94739 -0.37000
O 	O 	0.75665 0.18300 0.05261 -0.42500
O 	O 	0.75665 0.68300 0.55261 -0.40300
O 	O 	0.25665 0.18300 0.55261 -0.41200
O 	O 	0.25665 0.68300 0.05261 -0.42300
O 	O 	0.75665 0.81700 0.94739 -0.36600
O 	O 	0.75665 0.31700 0.44739 -0.40300
O 	O 	0.25665 0.81700 0.44739 -0.40100
O 	O 	0.25665 0.31700 0.94739 -0.37500
O 	O 	0.24335 0.81700 0.05261 -0.41700
O 	O 	0.24335 0.31700 0.55261 -0.40600
O 	O 	0.74335 0.81700 0.55261 -0.39700
O 	O 	0.74335 0.31700 0.05261 -0.41900
O 	O 	0.18300 0.05261 0.75665 -0.42500
O 	O 	0.18300 0.55261 0.25665 -0.41200
O 	O 	0.68300 0.05261 0.25665 -0.42300
O 	O 	0.68300 0.55261 0.75665 -0.40300
O 	O 	0.18300 0.94739 0.24335 -0.37900
O 	O 	0.18300 0.44739 0.74335 -0.40700
O 	O 	0.68300 0.94739 0.74335 -0.37000
O 	O 	0.68300 0.44739 0.24335 -0.40600
O 	O 	0.81700 0.05261 0.24335 -0.41700
O 	O 	0.81700 0.55261 0.74335 -0.39700
O 	O 	0.31700 0.05261 0.74335 -0.41900
O 	O 	0.31700 0.55261 0.24335 -0.40600
O 	O 	0.81700 0.94739 0.75665 -0.36600
O 	O 	0.81700 0.44739 0.25665 -0.40100
O 	O 	0.31700 0.94739 0.25665 -0.37500
O 	O 	0.31700 0.44739 0.75665 -0.40300
O 	O 	0.75665 0.94739 0.81700 -0.36600
O 	O 	0.75665 0.44739 0.31700 -0.40300
O 	O 	0.25665 0.94739 0.31700 -0.37500
O 	O 	0.25665 0.44739 0.81700 -0.40100
O 	O 	0.24335 0.05261 0.81700 -0.41700
O 	O 	0.24335 0.55261 0.31700 -0.40600
O 	O 	0.74335 0.05261 0.31700 -0.41900
O 	O 	0.74335 0.55261 0.81700 -0.39700
O 	O 	0.24335 0.94739 0.18300 -0.37900
O 	O 	0.24335 0.44739 0.68300 -0.40600
O 	O 	0.74335 0.94739 0.68300 -0.37000
O 	O 	0.74335 0.44739 0.18300 -0.40700
O 	O 	0.75665 0.05261 0.18300 -0.42500
O 	O 	0.75665 0.55261 0.68300 -0.40300
O 	O 	0.25665 0.05261 0.68300 -0.42300
O 	O 	0.25665 0.55261 0.18300 -0.41200
O 	O 	0.81700 0.75665 0.94739 -0.36600
O 	O 	0.81700 0.25665 0.44739 -0.40100
O 	O 	0.31700 0.75665 0.44739 -0.40300
O 	O 	0.31700 0.25665 0.94739 -0.37500
O 	O 	0.81700 0.24335 0.05261 -0.41700
O 	O 	0.81700 0.74335 0.55261 -0.39700
O 	O 	0.31700 0.24335 0.55261 -0.40600
O 	O 	0.31700 0.74335 0.05261 -0.41900
O 	O 	0.18300 0.24335 0.94739 -0.37900
O 	O 	0.18300 0.74335 0.44739 -0.40700
O 	O 	0.68300 0.24335 0.44739 -0.40600
O 	O 	0.68300 0.74335 0.94739 -0.37000
O 	O 	0.18300 0.75665 0.05261 -0.42500
O 	O 	0.18300 0.25665 0.55261 -0.41200
O 	O 	0.68300 0.75665 0.55261 -0.40300
O 	O 	0.68300 0.25665 0.05261 -0.42300
O 	O 	0.94739 0.81700 0.75665 -0.36600
O 	O 	0.94739 0.31700 0.25665 -0.37500
O 	O 	0.44739 0.81700 0.25665 -0.40100
O 	O 	0.44739 0.31700 0.75665 -0.40300
O 	O 	0.05261 0.81700 0.24335 -0.41700
O 	O 	0.05261 0.31700 0.74335 -0.41900
O 	O 	0.55261 0.81700 0.74335 -0.39700
O 	O 	0.55261 0.31700 0.24335 -0.40600
O 	O 	0.94739 0.18300 0.24335 -0.37900
O 	O 	0.94739 0.68300 0.74335 -0.37000
O 	O 	0.44739 0.18300 0.74335 -0.40700
O 	O 	0.44739 0.68300 0.24335 -0.40600
O 	O 	0.05261 0.18300 0.75665 -0.42500
O 	O 	0.05261 0.68300 0.25665 -0.42300
O 	O 	0.55261 0.18300 0.25665 -0.41200
O 	O 	0.55261 0.68300 0.75665 -0.40300
O 	O 	0.94739 0.75665 0.18300 -0.37600
O 	O 	0.94739 0.25665 0.68300 -0.37400
O 	O 	0.44739 0.75665 0.68300 -0.40300
O 	O 	0.44739 0.25665 0.18300 -0.41200
O 	O 	0.05261 0.24335 0.18300 -0.42700
O 	O 	0.05261 0.74335 0.68300 -0.41900
O 	O 	0.55261 0.24335 0.68300 -0.40600
O 	O 	0.55261 0.74335 0.18300 -0.40700
O 	O 	0.94739 0.24335 0.81700 -0.36900
O 	O 	0.94739 0.74335 0.31700 -0.37000
O 	O 	0.44739 0.24335 0.31700 -0.40600
O 	O 	0.44739 0.74335 0.81700 -0.39700
O 	O 	0.05261 0.75665 0.81700 -0.41400
O 	O 	0.05261 0.25665 0.31700 -0.42300
O 	O 	0.55261 0.75665 0.31700 -0.40300
O 	O 	0.55261 0.25665 0.81700 -0.40100
O 	O 	0.75665 0.81700 0.05261 -0.41400
O 	O 	0.75665 0.31700 0.55261 -0.40300
O 	O 	0.25665 0.81700 0.55261 -0.40100
O 	O 	0.25665 0.31700 0.05261 -0.42300
O 	O 	0.24335 0.81700 0.94739 -0.36900
O 	O 	0.24335 0.31700 0.44739 -0.40600
O 	O 	0.74335 0.81700 0.44739 -0.39700
O 	O 	0.74335 0.31700 0.94739 -0.37000
O 	O 	0.24335 0.18300 0.05261 -0.42700
O 	O 	0.24335 0.68300 0.55261 -0.40600
O 	O 	0.74335 0.18300 0.55261 -0.40700
O 	O 	0.74335 0.68300 0.05261 -0.41900
O 	O 	0.75665 0.18300 0.94739 -0.37600
O 	O 	0.75665 0.68300 0.44739 -0.40300
O 	O 	0.25665 0.18300 0.44739 -0.41200
O 	O 	0.25665 0.68300 0.94739 -0.37400
O 	O 	0.81700 0.94739 0.24335 -0.36900
O 	O 	0.81700 0.44739 0.74335 -0.39700
O 	O 	0.31700 0.94739 0.74335 -0.37000
O 	O 	0.31700 0.44739 0.24335 -0.40600
O 	O 	0.81700 0.05261 0.75665 -0.41400
O 	O 	0.81700 0.55261 0.25665 -0.40100
O 	O 	0.31700 0.05261 0.25665 -0.42300
O 	O 	0.31700 0.55261 0.75665 -0.40300
O 	O 	0.18300 0.94739 0.75665 -0.37600
O 	O 	0.18300 0.44739 0.25665 -0.41200
O 	O 	0.68300 0.94739 0.25665 -0.37400
O 	O 	0.68300 0.44739 0.75665 -0.40300
O 	O 	0.18300 0.05261 0.24335 -0.42700
O 	O 	0.18300 0.55261 0.74335 -0.40700
O 	O 	0.68300 0.05261 0.74335 -0.41900
O 	O 	0.68300 0.55261 0.24335 -0.40600
C 	C 	0.13391 0.13391 0.19830 0.07700
H 	H 	0.11950 0.11950 0.22730 0.02600
C 	C 	0.13391 0.63391 0.69830 0.06700
H 	H 	0.11950 0.61950 0.72730 0.03800
C 	C 	0.63391 0.13391 0.69830 0.06700
H 	H 	0.61950 0.11950 0.72730 0.03800
C 	C 	0.63391 0.63391 0.19830 0.06600
H 	H 	0.61950 0.61950 0.22730 0.04100
C 	C 	0.86609 0.86609 0.19830 0.05500
H 	H 	0.88050 0.88050 0.22730 0.05800
C 	C 	0.86609 0.36609 0.69830 0.05700
H 	H 	0.88050 0.38050 0.72730 0.05400
C 	C 	0.36609 0.86609 0.69830 0.05700
H 	H 	0.38050 0.88050 0.72730 0.05400
C 	C 	0.36609 0.36609 0.19830 0.07000
H 	H 	0.38050 0.38050 0.22730 0.04000
C 	C 	0.86609 0.13391 0.80170 0.05700
H 	H 	0.88050 0.11950 0.77270 0.04700
C 	C 	0.86609 0.63391 0.30170 0.05800
H 	H 	0.88050 0.61950 0.27270 0.05000
C 	C 	0.36609 0.13391 0.30170 0.07100
H 	H 	0.38050 0.11950 0.27270 0.03400
C 	C 	0.36609 0.63391 0.80170 0.05900
H 	H 	0.38050 0.61950 0.77270 0.04600
C 	C 	0.13391 0.86609 0.80170 0.05700
H 	H 	0.11950 0.88050 0.77270 0.04700
C 	C 	0.13391 0.36609 0.30170 0.07100
H 	H 	0.11950 0.38050 0.27270 0.03400
C 	C 	0.63391 0.86609 0.30170 0.05800
H 	H 	0.61950 0.88050 0.27270 0.05000
C 	C 	0.63391 0.36609 0.80170 0.05900
H 	H 	0.61950 0.38050 0.77270 0.04600
C 	C 	0.19830 0.13391 0.13391 0.07700
H 	H 	0.22730 0.11950 0.11950 0.02600
C 	C 	0.19830 0.63391 0.63391 0.06600
H 	H 	0.22730 0.61950 0.61950 0.04100
C 	C 	0.69830 0.13391 0.63391 0.06700
H 	H 	0.72730 0.11950 0.61950 0.03800
C 	C 	0.69830 0.63391 0.13391 0.06700
H 	H 	0.72730 0.61950 0.11950 0.03800
C 	C 	0.19830 0.86609 0.86609 0.05500
H 	H 	0.22730 0.88050 0.88050 0.05800
C 	C 	0.19830 0.36609 0.36609 0.07000
H 	H 	0.22730 0.38050 0.38050 0.04000
C 	C 	0.69830 0.86609 0.36609 0.05700
H 	H 	0.72730 0.88050 0.38050 0.05400
C 	C 	0.69830 0.36609 0.86609 0.05700
H 	H 	0.72730 0.38050 0.88050 0.05400
C 	C 	0.80170 0.86609 0.13391 0.05700
H 	H 	0.77270 0.88050 0.11950 0.04700
C 	C 	0.80170 0.36609 0.63391 0.05900
H 	H 	0.77270 0.38050 0.61950 0.04600
C 	C 	0.30170 0.86609 0.63391 0.05800
H 	H 	0.27270 0.88050 0.61950 0.05000
C 	C 	0.30170 0.36609 0.13391 0.07100
H 	H 	0.27270 0.38050 0.11950 0.03400
C 	C 	0.80170 0.13391 0.86609 0.05700
H 	H 	0.77270 0.11950 0.88050 0.04700
C 	C 	0.80170 0.63391 0.36609 0.05900
H 	H 	0.77270 0.61950 0.38050 0.04600
C 	C 	0.30170 0.13391 0.36609 0.07100
H 	H 	0.27270 0.11950 0.38050 0.03400
C 	C 	0.30170 0.63391 0.86609 0.05800
H 	H 	0.27270 0.61950 0.88050 0.05000
C 	C 	0.13391 0.19830 0.13391 0.07700
H 	H 	0.11950 0.22730 0.11950 0.02600
C 	C 	0.13391 0.69830 0.63391 0.06700
H 	H 	0.11950 0.72730 0.61950 0.03800
C 	C 	0.63391 0.19830 0.63391 0.06600
H 	H 	0.61950 0.22730 0.61950 0.04100
C 	C 	0.63391 0.69830 0.13391 0.06700
H 	H 	0.61950 0.72730 0.11950 0.03800
C 	C 	0.86609 0.19830 0.86609 0.05500
H 	H 	0.88050 0.22730 0.88050 0.05800
C 	C 	0.86609 0.69830 0.36609 0.05700
H 	H 	0.88050 0.72730 0.38050 0.05400
C 	C 	0.36609 0.19830 0.36609 0.07000
H 	H 	0.38050 0.22730 0.38050 0.04000
C 	C 	0.36609 0.69830 0.86609 0.05700
H 	H 	0.38050 0.72730 0.88050 0.05400
C 	C 	0.13391 0.80170 0.86609 0.05700
H 	H 	0.11950 0.77270 0.88050 0.04700
C 	C 	0.13391 0.30170 0.36609 0.07100
H 	H 	0.11950 0.27270 0.38050 0.03400
C 	C 	0.63391 0.80170 0.36609 0.05900
H 	H 	0.61950 0.77270 0.38050 0.04600
C 	C 	0.63391 0.30170 0.86609 0.05800
H 	H 	0.61950 0.27270 0.88050 0.05000
C 	C 	0.86609 0.80170 0.13391 0.05700
H 	H 	0.88050 0.77270 0.11950 0.04700
C 	C 	0.86609 0.30170 0.63391 0.05800
H 	H 	0.88050 0.27270 0.61950 0.05000
C 	C 	0.36609 0.80170 0.63391 0.05900
H 	H 	0.38050 0.77270 0.61950 0.04600
C 	C 	0.36609 0.30170 0.13391 0.07100
H 	H 	0.38050 0.27270 0.11950 0.03400
C 	C 	0.13391 0.13391 0.80170 0.06900
H 	H 	0.11950 0.11950 0.77270 0.03100
C 	C 	0.13391 0.63391 0.30170 0.06900
H 	H 	0.11950 0.61950 0.27270 0.03400
C 	C 	0.63391 0.13391 0.30170 0.06900
H 	H 	0.61950 0.11950 0.27270 0.03400
C 	C 	0.63391 0.63391 0.80170 0.05800
H 	H 	0.61950 0.61950 0.77270 0.04700
C 	C 	0.86609 0.86609 0.80170 0.04600
H 	H 	0.88050 0.88050 0.77270 0.06300
C 	C 	0.86609 0.36609 0.30170 0.06000
H 	H 	0.88050 0.38050 0.27270 0.05000
C 	C 	0.36609 0.86609 0.30170 0.06000
H 	H 	0.38050 0.88050 0.27270 0.05000
C 	C 	0.36609 0.36609 0.80170 0.06100
H 	H 	0.38050 0.38050 0.77270 0.04500
C 	C 	0.13391 0.86609 0.19830 0.06600
H 	H 	0.11950 0.88050 0.22730 0.04200
C 	C 	0.13391 0.36609 0.69830 0.06800
H 	H 	0.11950 0.38050 0.72730 0.03800
C 	C 	0.63391 0.86609 0.69830 0.05600
H 	H 	0.61950 0.88050 0.72730 0.05400
C 	C 	0.63391 0.36609 0.19830 0.06800
H 	H 	0.61950 0.38050 0.22730 0.04100
C 	C 	0.86609 0.13391 0.19830 0.06600
H 	H 	0.88050 0.11950 0.22730 0.04200
C 	C 	0.86609 0.63391 0.69830 0.05600
H 	H 	0.88050 0.61950 0.72730 0.05400
C 	C 	0.36609 0.13391 0.69830 0.06800
H 	H 	0.38050 0.11950 0.72730 0.03800
C 	C 	0.36609 0.63391 0.19830 0.06800
H 	H 	0.38050 0.61950 0.22730 0.04100
C 	C 	0.13391 0.19830 0.86609 0.06600
H 	H 	0.11950 0.22730 0.88050 0.04200
C 	C 	0.13391 0.69830 0.36609 0.06800
H 	H 	0.11950 0.72730 0.38050 0.03800
C 	C 	0.63391 0.19830 0.36609 0.06800
H 	H 	0.61950 0.22730 0.38050 0.04100
C 	C 	0.63391 0.69830 0.86609 0.05600
H 	H 	0.61950 0.72730 0.88050 0.05400
C 	C 	0.86609 0.19830 0.13391 0.06600
H 	H 	0.88050 0.22730 0.11950 0.04200
C 	C 	0.86609 0.69830 0.63391 0.05600
H 	H 	0.88050 0.72730 0.61950 0.05400
C 	C 	0.36609 0.19830 0.63391 0.06800
H 	H 	0.38050 0.22730 0.61950 0.04100
C 	C 	0.36609 0.69830 0.13391 0.06800
H 	H 	0.38050 0.72730 0.11950 0.03800
C 	C 	0.86609 0.80170 0.86609 0.04600
H 	H 	0.88050 0.77270 0.88050 0.06300
C 	C 	0.86609 0.30170 0.36609 0.06000
H 	H 	0.88050 0.27270 0.38050 0.05000
C 	C 	0.36609 0.80170 0.36609 0.06100
H 	H 	0.38050 0.77270 0.38050 0.04500
C 	C 	0.36609 0.30170 0.86609 0.06000
H 	H 	0.38050 0.27270 0.88050 0.05000
C 	C 	0.13391 0.80170 0.13391 0.06900
H 	H 	0.11950 0.77270 0.11950 0.03100
C 	C 	0.13391 0.30170 0.63391 0.06900
H 	H 	0.11950 0.27270 0.61950 0.03400
C 	C 	0.63391 0.80170 0.63391 0.05800
H 	H 	0.61950 0.77270 0.61950 0.04700
C 	C 	0.63391 0.30170 0.13391 0.06900
H 	H 	0.61950 0.27270 0.11950 0.03400
C 	C 	0.19830 0.13391 0.86609 0.06600
H 	H 	0.22730 0.11950 0.88050 0.04200
C 	C 	0.19830 0.63391 0.36609 0.06800
H 	H 	0.22730 0.61950 0.38050 0.04100
C 	C 	0.69830 0.13391 0.36609 0.06800
H 	H 	0.72730 0.11950 0.38050 0.03800
C 	C 	0.69830 0.63391 0.86609 0.05600
H 	H 	0.72730 0.61950 0.88050 0.05400
C 	C 	0.19830 0.86609 0.13391 0.06600
H 	H 	0.22730 0.88050 0.11950 0.04200
C 	C 	0.19830 0.36609 0.63391 0.06800
H 	H 	0.22730 0.38050 0.61950 0.04100
C 	C 	0.69830 0.86609 0.63391 0.05600
H 	H 	0.72730 0.88050 0.61950 0.05400
C 	C 	0.69830 0.36609 0.13391 0.06800
H 	H 	0.72730 0.38050 0.11950 0.03800
C 	C 	0.80170 0.13391 0.13391 0.06900
H 	H 	0.77270 0.11950 0.11950 0.03100
C 	C 	0.80170 0.63391 0.63391 0.05800
H 	H 	0.77270 0.61950 0.61950 0.04700
C 	C 	0.30170 0.13391 0.63391 0.06900
H 	H 	0.27270 0.11950 0.61950 0.03400
C 	C 	0.30170 0.63391 0.13391 0.06900
H 	H 	0.27270 0.61950 0.11950 0.03400
C 	C 	0.80170 0.86609 0.86609 0.04600
H 	H 	0.77270 0.88050 0.88050 0.06300
C 	C 	0.80170 0.36609 0.36609 0.06100
H 	H 	0.77270 0.38050 0.38050 0.04500
C 	C 	0.30170 0.86609 0.36609 0.06000
H 	H 	0.27270 0.88050 0.38050 0.05000
C 	C 	0.30170 0.36609 0.86609 0.06000
H 	H 	0.27270 0.38050 0.88050 0.05000
Cu	Cu	0.28513 0.00000 0.21487 0.87400
Cu	Cu	0.28513 0.50000 0.71487 0.90500
Cu	Cu	0.71487 0.00000 0.21487 0.87400
Cu	Cu	0.71487 0.50000 0.71487 0.90500
Cu	Cu	0.21487 0.50000 0.21487 0.90200
Cu	Cu	0.71487 0.00000 0.78513 0.87800
Cu	Cu	0.71487 0.50000 0.28513 0.90500
Cu	Cu	0.21487 0.00000 0.28513 0.87400
Cu	Cu	0.28513 0.00000 0.78513 0.87800
Cu	Cu	0.28513 0.50000 0.28513 0.90500
Cu	Cu	0.21487 0.28513 -0.00000 0.87400
Cu	Cu	0.21487 0.78513 0.50000 0.90500
Cu	Cu	0.21487 0.71487 -0.00000 0.87400
Cu	Cu	0.21487 0.21487 0.50000 0.90200
Cu	Cu	0.78513 0.71487 -0.00000 0.87800
Cu	Cu	0.78513 0.21487 0.50000 0.90500
Cu	Cu	0.28513 0.21487 -0.00000 0.87400
Cu	Cu	0.78513 0.28513 -0.00000 0.87800
Cu	Cu	0.78513 0.78513 0.50000 0.90900
Cu	Cu	0.28513 0.28513 0.50000 0.90500
Cu	Cu	-0.00000 0.21487 0.28513 0.87400
Cu	Cu	0.50000 0.21487 0.78513 0.90500
Cu	Cu	0.00000 0.21487 0.71487 0.87400
Cu	Cu	0.50000 0.21487 0.21487 0.90200
Cu	Cu	0.00000 0.78513 0.71487 0.87800
Cu	Cu	-0.00000 0.28513 0.21487 0.87400
Cu	Cu	0.50000 0.78513 0.21487 0.90500
Cu	Cu	0.00000 0.78513 0.28513 0.87800
Cu	Cu	0.50000 0.78513 0.78513 0.90900
Cu	Cu	0.50000 0.28513 0.28513 0.90500
Cu	Cu	0.00000 0.28513 0.78513 0.87800
Cu	Cu	0.00000 0.71487 0.78513 0.87800
Cu	Cu	0.50000 0.71487 0.28513 0.90500
Cu	Cu	0.00000 0.71487 0.21487 0.87400
Cu	Cu	0.50000 0.71487 0.71487 0.90500
Cu	Cu	0.50000 0.28513 0.71487 0.90500
Cu	Cu	0.28513 0.71487 0.50000 0.90500
Cu	Cu	0.71487 0.21487 -0.00000 0.87400
Cu	Cu	0.71487 0.71487 0.50000 0.90500
Cu	Cu	0.71487 0.78513 -0.00000 0.87800
Cu	Cu	0.71487 0.28513 0.50000 0.90500
Cu	Cu	0.28513 0.78513 -0.00000 0.87800
Cu	Cu	0.21487 0.00000 0.71487 0.87400
Cu	Cu	0.21487 0.50000 0.78513 0.90500
Cu	Cu	0.78513 0.00000 0.28513 0.87800
Cu	Cu	0.78513 0.50000 0.78513 0.90900
Cu	Cu	0.78513 0.00000 0.71487 0.87800
Cu	Cu	0.78513 0.50000 0.21487 0.90500
C 	C 	0.17692 0.11220 0.17692 -0.14400
C 	C 	0.20276 0.06875 0.20276 0.37100
C 	C 	0.17692 0.61220 0.67692 -0.12300
C 	C 	0.20276 0.56875 0.70276 0.36700
C 	C 	0.67692 0.11220 0.67692 -0.12700
C 	C 	0.70276 0.06875 0.70276 0.36700
C 	C 	0.67692 0.61220 0.17692 -0.12300
C 	C 	0.70276 0.56875 0.20276 0.36700
C 	C 	0.82308 0.88780 0.17692 -0.10200
C 	C 	0.79724 0.93125 0.20276 0.36000
C 	C 	0.82308 0.38780 0.67692 -0.10900
C 	C 	0.79724 0.43125 0.70276 0.36400
C 	C 	0.32308 0.88780 0.67692 -0.10400
C 	C 	0.29724 0.93125 0.70276 0.36000
C 	C 	0.32308 0.38780 0.17692 -0.12700
C 	C 	0.29724 0.43125 0.20276 0.36900
C 	C 	0.82308 0.11220 0.82308 -0.11300
C 	C 	0.79724 0.06875 0.79724 0.36500
C 	C 	0.82308 0.61220 0.32308 -0.11000
C 	C 	0.79724 0.56875 0.29724 0.36600
C 	C 	0.32308 0.11220 0.32308 -0.13200
C 	C 	0.29724 0.06875 0.29724 0.37000
C 	C 	0.32308 0.61220 0.82308 -0.11000
C 	C 	0.29724 0.56875 0.79724 0.36600
C 	C 	0.17692 0.88780 0.82308 -0.10200
C 	C 	0.20276 0.93125 0.79724 0.36000
C 	C 	0.17692 0.38780 0.32308 -0.12700
C 	C 	0.20276 0.43125 0.29724 0.36900
C 	C 	0.67692 0.88780 0.32308 -0.10400
C 	C 	0.70276 0.93125 0.29724 0.36000
C 	C 	0.67692 0.38780 0.82308 -0.10900
C 	C 	0.70276 0.43125 0.79724 0.36400
C 	C 	0.17692 0.17692 0.11220 -0.14400
C 	C 	0.20276 0.20276 0.06875 0.37100
C 	C 	0.17692 0.67692 0.61220 -0.12300
C 	C 	0.20276 0.70276 0.56875 0.36700
C 	C 	0.67692 0.17692 0.61220 -0.12300
C 	C 	0.70276 0.20276 0.56875 0.36700
C 	C 	0.67692 0.67692 0.11220 -0.12700
C 	C 	0.70276 0.70276 0.06875 0.36700
C 	C 	0.17692 0.82308 0.88780 -0.10200
C 	C 	0.20276 0.79724 0.93125 0.36000
C 	C 	0.17692 0.32308 0.38780 -0.12700
C 	C 	0.20276 0.29724 0.43125 0.36900
C 	C 	0.67692 0.82308 0.38780 -0.10900
C 	C 	0.70276 0.79724 0.43125 0.36400
C 	C 	0.67692 0.32308 0.88780 -0.10400
C 	C 	0.70276 0.29724 0.93125 0.36000
C 	C 	0.82308 0.82308 0.11220 -0.11300
C 	C 	0.79724 0.79724 0.06875 0.36500
C 	C 	0.82308 0.32308 0.61220 -0.11000
C 	C 	0.79724 0.29724 0.56875 0.36600
C 	C 	0.32308 0.82308 0.61220 -0.11000
C 	C 	0.29724 0.79724 0.56875 0.36600
C 	C 	0.32308 0.32308 0.11220 -0.13200
C 	C 	0.29724 0.29724 0.06875 0.37000
C 	C 	0.82308 0.17692 0.88780 -0.10200
C 	C 	0.79724 0.20276 0.93125 0.36000
C 	C 	0.82308 0.67692 0.38780 -0.10900
C 	C 	0.79724 0.70276 0.43125 0.36400
C 	C 	0.32308 0.17692 0.38780 -0.12700
C 	C 	0.29724 0.20276 0.43125 0.36900
C 	C 	0.32308 0.67692 0.88780 -0.10400
C 	C 	0.29724 0.70276 0.93125 0.36000
C 	C 	0.11220 0.17692 0.17692 -0.14400
C 	C 	0.06875 0.20276 0.20276 0.37100
C 	C 	0.11220 0.67692 0.67692 -0.12700
C 	C 	0.06875 0.70276 0.70276 0.36700
C 	C 	0.61220 0.17692 0.67692 -0.12300
C 	C 	0.56875 0.20276 0.70276 0.36700
C 	C 	0.61220 0.67692 0.17692 -0.12300
C 	C 	0.56875 0.70276 0.20276 0.36700
C 	C 	0.88780 0.17692 0.82308 -0.10200
C 	C 	0.93125 0.20276 0.79724 0.36000
C 	C 	0.88780 0.67692 0.32308 -0.10400
C 	C 	0.93125 0.70276 0.29724 0.36000
C 	C 	0.38780 0.17692 0.32308 -0.12700
C 	C 	0.43125 0.20276 0.29724 0.36900
C 	C 	0.38780 0.67692 0.82308 -0.10900
C 	C 	0.43125 0.70276 0.79724 0.36400
C 	C 	0.11220 0.82308 0.82308 -0.11300
C 	C 	0.06875 0.79724 0.79724 0.36500
C 	C 	0.11220 0.32308 0.32308 -0.13200
C 	C 	0.06875 0.29724 0.29724 0.37000
C 	C 	0.61220 0.82308 0.32308 -0.11000
C 	C 	0.56875 0.79724 0.29724 0.36600
C 	C 	0.61220 0.32308 0.82308 -0.11000
C 	C 	0.56875 0.29724 0.79724 0.36600
C 	C 	0.88780 0.82308 0.17692 -0.10200
C 	C 	0.93125 0.79724 0.20276 0.36000
C 	C 	0.88780 0.32308 0.67692 -0.10400
C 	C 	0.93125 0.29724 0.70276 0.36000
C 	C 	0.38780 0.82308 0.67692 -0.10900
C 	C 	0.43125 0.79724 0.70276 0.36400
C 	C 	0.38780 0.32308 0.17692 -0.12700
C 	C 	0.43125 0.29724 0.20276 0.36900
C 	C 	0.11220 0.17692 0.82308 -0.12800
C 	C 	0.06875 0.20276 0.79724 0.36800
C 	C 	0.11220 0.67692 0.32308 -0.13000
C 	C 	0.06875 0.70276 0.29724 0.36800
C 	C 	0.61220 0.17692 0.32308 -0.12600
C 	C 	0.56875 0.20276 0.29724 0.36900
C 	C 	0.61220 0.67692 0.82308 -0.10800
C 	C 	0.56875 0.70276 0.79724 0.36400
C 	C 	0.88780 0.82308 0.82308 -0.08700
C 	C 	0.93125 0.79724 0.79724 0.35600
C 	C 	0.88780 0.32308 0.32308 -0.10600
C 	C 	0.93125 0.29724 0.29724 0.36200
C 	C 	0.38780 0.82308 0.32308 -0.11200
C 	C 	0.43125 0.79724 0.29724 0.36600
C 	C 	0.38780 0.32308 0.82308 -0.11200
C 	C 	0.43125 0.29724 0.79724 0.36600
C 	C 	0.11220 0.82308 0.17692 -0.12800
C 	C 	0.06875 0.79724 0.20276 0.36800
C 	C 	0.11220 0.32308 0.67692 -0.13000
C 	C 	0.06875 0.29724 0.70276 0.36800
C 	C 	0.61220 0.82308 0.67692 -0.10800
C 	C 	0.56875 0.79724 0.70276 0.36400
C 	C 	0.61220 0.32308 0.17692 -0.12600
C 	C 	0.56875 0.29724 0.20276 0.36900
C 	C 	0.88780 0.17692 0.17692 -0.11800
C 	C 	0.93125 0.20276 0.20276 0.36300
C 	C 	0.88780 0.67692 0.67692 -0.10100
C 	C 	0.93125 0.70276 0.70276 0.35800
C 	C 	0.38780 0.17692 0.67692 -0.12500
C 	C 	0.43125 0.20276 0.70276 0.36800
C 	C 	0.38780 0.67692 0.17692 -0.12500
C 	C 	0.43125 0.70276 0.20276 0.36800
C 	C 	0.17692 0.17692 0.88780 -0.11800
C 	C 	0.20276 0.20276 0.93125 0.36300
C 	C 	0.17692 0.67692 0.38780 -0.12500
C 	C 	0.20276 0.70276 0.43125 0.36800
C 	C 	0.67692 0.17692 0.38780 -0.12500
C 	C 	0.70276 0.20276 0.43125 0.36800
C 	C 	0.67692 0.67692 0.88780 -0.10100
C 	C 	0.70276 0.70276 0.93125 0.35800
C 	C 	0.82308 0.17692 0.11220 -0.12800
C 	C 	0.79724 0.20276 0.06875 0.36800
C 	C 	0.82308 0.67692 0.61220 -0.10800
C 	C 	0.79724 0.70276 0.56875 0.36400
C 	C 	0.32308 0.17692 0.61220 -0.12600
C 	C 	0.29724 0.20276 0.56875 0.36900
C 	C 	0.32308 0.67692 0.11220 -0.13000
C 	C 	0.29724 0.70276 0.06875 0.36800
C 	C 	0.82308 0.82308 0.88780 -0.08700
C 	C 	0.79724 0.79724 0.93125 0.35600
C 	C 	0.82308 0.32308 0.38780 -0.11200
C 	C 	0.79724 0.29724 0.43125 0.36600
C 	C 	0.32308 0.82308 0.38780 -0.11200
C 	C 	0.29724 0.79724 0.43125 0.36600
C 	C 	0.32308 0.32308 0.88780 -0.10600
C 	C 	0.29724 0.29724 0.93125 0.36200
C 	C 	0.17692 0.82308 0.11220 -0.12800
C 	C 	0.20276 0.79724 0.06875 0.36800
C 	C 	0.17692 0.32308 0.61220 -0.12600
C 	C 	0.20276 0.29724 0.56875 0.36900
C 	C 	0.67692 0.82308 0.61220 -0.10800
C 	C 	0.70276 0.79724 0.56875 0.36400
C 	C 	0.67692 0.32308 0.11220 -0.13000
C 	C 	0.70276 0.29724 0.06875 0.36800
C 	C 	0.17692 0.11220 0.82308 -0.12800
C 	C 	0.20276 0.06875 0.79724 0.36800
C 	C 	0.17692 0.61220 0.32308 -0.12600
C 	C 	0.20276 0.56875 0.29724 0.36900
C 	C 	0.67692 0.11220 0.32308 -0.13000
C 	C 	0.70276 0.06875 0.29724 0.36800
C 	C 	0.67692 0.61220 0.82308 -0.10800
C 	C 	0.70276 0.56875 0.79724 0.36400
C 	C 	0.17692 0.88780 0.17692 -0.11800
C 	C 	0.20276 0.93125 0.20276 0.36300
C 	C 	0.17692 0.38780 0.67692 -0.12500
C 	C 	0.20276 0.43125 0.70276 0.36800
C 	C 	0.67692 0.88780 0.67692 -0.10100
C 	C 	0.70276 0.93125 0.70276 0.35800
C 	C 	0.67692 0.38780 0.17692 -0.12500
C 	C 	0.70276 0.43125 0.20276 0.36800
C 	C 	0.82308 0.11220 0.17692 -0.12800
C 	C 	0.79724 0.06875 0.20276 0.36800
C 	C 	0.82308 0.61220 0.67692 -0.10800
C 	C 	0.79724 0.56875 0.70276 0.36400
C 	C 	0.32308 0.11220 0.67692 -0.13000
C 	C 	0.29724 0.06875 0.70276 0.36800
C 	C 	0.32308 0.61220 0.17692 -0.12600
C 	C 	0.29724 0.56875 0.20276 0.36900
C 	C 	0.82308 0.88780 0.82308 -0.08700
C 	C 	0.79724 0.93125 0.79724 0.35600
C 	C 	0.82308 0.38780 0.32308 -0.11200
C 	C 	0.79724 0.43125 0.29724 0.36600
C 	C 	0.32308 0.88780 0.32308 -0.10600
C 	C 	0.29724 0.93125 0.29724 0.36200
C 	C 	0.32308 0.38780 0.82308 -0.11200
C 	C 	0.29724 0.43125 0.79724 0.36600
