data_crystal

_cell_length_a 39.49120
_cell_length_b 23.79840
_cell_length_c 8.91310
_cell_angle_alpha 90.00000
_cell_angle_beta  90.00000
_cell_angle_gamma 90.00000

_symmetry_space_group_name_	'P 1'
_symmetry_space_group_name_H-M	'P 1'

loop_
_symmetry_equiv_pos_as_xyz
  x,y,z

loop_
_atom_site_label
_atom_site_type_symbol
_atom_site_fract_x
_atom_site_fract_y
_atom_site_fract_z
_atom_site_charge
Zn	Zn	0.02164 0.66373 0.58594 1.18400
Zn	Zn	0.90027 0.83276 0.42846 1.21400
Zn	Zn	0.14428 0.82962 0.41948 1.21300
C 	C 	0.11932 0.72850 0.57760 -0.04900
N 	N 	0.97616 0.71070 0.53190 -0.18800
N 	N 	0.18584 0.88740 0.39260 -0.24500
N 	N 	0.35708 0.11400 0.10640 -0.25600
N 	N 	0.96841 0.75650 0.45730 -0.07300
N 	N 	0.93645 0.77000 0.48960 -0.18100
N 	N 	0.10747 0.76590 0.47710 -0.17600
N 	N 	0.06616 0.70820 0.52690 -0.19700
N 	N 	0.07551 0.75360 0.44740 -0.07100
C 	C 	0.92452 0.73180 0.58990 -0.04400
C 	C 	0.09349 0.69150 0.61100 -0.06300
C 	C 	0.95005 0.69350 0.61630 -0.06900
C 	C 	0.24460 0.90550 0.41330 -0.20400
H 	H 	0.26550 0.89500 0.45230 0.11800
C 	C 	0.21619 0.87430 0.44440 0.12800
H 	H 	0.21840 0.84250 0.50450 0.00100
C 	C 	0.20990 0.96660 0.26800 -0.19900
H 	H 	0.20710 0.99800 0.20710 0.11500
N 	N 	0.27226 0.98380 0.29780 -0.10000
C 	C 	0.24174 0.95240 0.32390 0.18400
C 	C 	0.30040 0.04960 0.16990 0.19900
C 	C 	0.35490 0.08370 0.23070 0.13800
H 	H 	0.37300 0.08500 0.29780 -0.01100
C 	C 	0.33160 0.11170 0.01380 0.14600
H 	H 	0.33280 0.13210 0.92500 -0.01300
C 	C 	0.32760 0.05070 0.26610 -0.21900
H 	H 	0.32750 0.02940 0.35360 0.12500
N 	N 	0.26983 0.01760 0.19340 -0.10000
C 	C 	0.30260 0.08040 0.04130 -0.21800
H 	H 	0.28480 0.08050 0.97270 0.12000
C 	C 	0.18270 0.93320 0.30480 0.11200
H 	H 	0.16140 0.94250 0.26770 -0.00400
O 	O 	0.87320 0.78220 0.58410 -0.38900
O 	O 	0.17185 0.77380 0.55670 -0.39000
O 	O 	0.06057 0.61520 0.68880 -0.40600
C 	C 	0.08838 0.64050 0.70550 0.32000
C 	C 	0.88904 0.74280 0.64750 0.33600
C 	C 	0.15499 0.73710 0.62770 0.32600
O 	O 	0.11159 0.62360 0.79210 -0.42800
O 	O 	0.16681 0.70950 0.73450 -0.40000
O 	O 	0.98248 0.61650 0.68960 -0.42300
O 	O 	0.87805 0.71440 0.75390 -0.39600
C 	C 	0.95465 0.64030 0.70420 0.33100
O 	O 	0.93046 0.62280 0.78320 -0.42700
N 	N 	0.01890 0.61640 0.38620 -0.27300
C 	C 	0.01604 0.56090 0.39230 0.13900
H 	H 	0.01720 0.54390 0.48610 -0.01700
C 	C 	0.01810 0.64040 0.25060 0.13300
H 	H 	0.01980 0.67930 0.24540 -0.04800
N 	N 	0.13153 0.87560 0.62770 -0.24800
C 	C 	0.10670 0.91280 0.62990 0.11800
H 	H 	0.09360 0.91710 0.54400 -0.01200
C 	C 	0.15020 0.86980 0.75160 0.11300
H 	H 	0.16800 0.84410 0.75070 -0.00200
N 	N 	0.08426 0.11010 0.38830 -0.26800
C 	C 	0.01490 0.61110 0.11820 -0.21900
H 	H 	0.01580 0.62890 0.02540 0.10800
C 	C 	0.14430 0.90050 0.88240 -0.20800
H 	H 	0.15760 0.89530 0.96720 0.11300
C 	C 	0.11860 0.93790 0.88240 0.18200
N 	N 	0.00810 0.52200 0.99200 -0.09600
C 	C 	0.09920 0.94570 0.75370 -0.20600
H 	H 	0.08180 0.97210 0.75100 0.12300
C 	C 	0.08660 0.05580 0.40390 0.16600
H 	H 	0.08670 0.04180 0.50130 -0.02600
C 	C 	0.01010 0.55300 0.13120 0.19400
C 	C 	0.01140 0.52660 0.26910 -0.22600
H 	H 	0.00930 0.48780 0.27840 0.14200
C 	C 	0.08100 0.12700 0.24920 0.16300
H 	H 	0.07770 0.16520 0.23330 -0.02900
N 	N 	0.09071 0.00350 0.01350 -0.10300
N 	N 	0.11463 0.97130 0.01730 -0.09300
C 	C 	0.08790 0.03750 0.14690 0.23500
C 	C 	0.08870 0.01740 0.28910 -0.26500
H 	H 	0.09070 0.97910 0.30840 0.15700
C 	C 	0.08200 0.09300 0.12500 -0.26100
H 	H 	0.07870 0.10750 0.02920 0.13800
Zn	Zn	0.47836 0.83627 0.58594 1.18500
Zn	Zn	0.59973 0.66724 0.42846 1.21500
Zn	Zn	0.35572 0.67038 0.41948 1.21400
C 	C 	0.38068 0.77150 0.57760 -0.04800
N 	N 	0.52384 0.78930 0.53190 -0.18700
N 	N 	0.31416 0.61260 0.39260 -0.24400
N 	N 	0.14292 0.38600 0.10640 -0.25500
N 	N 	0.53159 0.74350 0.45730 -0.07200
N 	N 	0.56355 0.73000 0.48960 -0.18100
N 	N 	0.39253 0.73410 0.47710 -0.17600
N 	N 	0.43384 0.79180 0.52690 -0.19700
N 	N 	0.42449 0.74640 0.44740 -0.07100
C 	C 	0.57548 0.76820 0.58990 -0.04400
C 	C 	0.40651 0.80850 0.61100 -0.06300
C 	C 	0.54995 0.80650 0.61630 -0.06900
C 	C 	0.25540 0.59450 0.41330 -0.20400
H 	H 	0.23450 0.60500 0.45230 0.11800
C 	C 	0.28381 0.62570 0.44440 0.12800
H 	H 	0.28160 0.65750 0.50450 0.00100
C 	C 	0.29010 0.53340 0.26800 -0.19900
H 	H 	0.29290 0.50200 0.20710 0.11500
N 	N 	0.22774 0.51620 0.29780 -0.10000
C 	C 	0.25826 0.54760 0.32390 0.18400
C 	C 	0.19960 0.45040 0.16990 0.19900
C 	C 	0.14510 0.41630 0.23070 0.13800
H 	H 	0.12700 0.41500 0.29780 -0.01100
C 	C 	0.16840 0.38830 0.01380 0.14600
H 	H 	0.16720 0.36790 0.92500 -0.01300
C 	C 	0.17240 0.44930 0.26610 -0.21900
H 	H 	0.17250 0.47060 0.35360 0.12500
N 	N 	0.23017 0.48240 0.19340 -0.10000
C 	C 	0.19740 0.41960 0.04130 -0.21700
H 	H 	0.21520 0.41950 0.97270 0.12000
C 	C 	0.31730 0.56680 0.30480 0.11200
H 	H 	0.33860 0.55750 0.26770 -0.00400
O 	O 	0.62680 0.71780 0.58410 -0.38900
O 	O 	0.32815 0.72620 0.55670 -0.39000
O 	O 	0.43943 0.88480 0.68880 -0.40700
C 	C 	0.41162 0.85950 0.70550 0.32000
C 	C 	0.61096 0.75720 0.64750 0.33600
C 	C 	0.34501 0.76290 0.62770 0.32600
O 	O 	0.38841 0.87640 0.79210 -0.42800
O 	O 	0.33319 0.79050 0.73450 -0.40000
O 	O 	0.51752 0.88350 0.68960 -0.42300
O 	O 	0.62195 0.78560 0.75390 -0.39600
C 	C 	0.54535 0.85970 0.70420 0.33100
O 	O 	0.56954 0.87720 0.78320 -0.42700
N 	N 	0.48110 0.88360 0.38620 -0.27300
C 	C 	0.48396 0.93910 0.39230 0.13800
H 	H 	0.48280 0.95610 0.48610 -0.01700
C 	C 	0.48190 0.85960 0.25060 0.13300
H 	H 	0.48020 0.82070 0.24540 -0.04800
N 	N 	0.36847 0.62440 0.62770 -0.24800
C 	C 	0.39330 0.58720 0.62990 0.11900
H 	H 	0.40640 0.58290 0.54400 -0.01200
C 	C 	0.34980 0.63020 0.75160 0.11300
H 	H 	0.33200 0.65590 0.75070 -0.00200
N 	N 	0.41574 0.38990 0.38830 -0.26800
C 	C 	0.48510 0.88890 0.11820 -0.21900
H 	H 	0.48420 0.87110 0.02540 0.10800
C 	C 	0.35570 0.59950 0.88240 -0.20800
H 	H 	0.34240 0.60470 0.96720 0.11400
C 	C 	0.38140 0.56210 0.88240 0.18200
N 	N 	0.49190 0.97800 0.99200 -0.09600
C 	C 	0.40080 0.55430 0.75370 -0.20700
H 	H 	0.41820 0.52790 0.75100 0.12300
C 	C 	0.41340 0.44420 0.40390 0.16600
H 	H 	0.41330 0.45820 0.50130 -0.02600
C 	C 	0.48990 0.94700 0.13120 0.19500
C 	C 	0.48860 0.97340 0.26910 -0.22600
H 	H 	0.49070 0.01220 0.27840 0.14100
C 	C 	0.41900 0.37300 0.24920 0.16300
H 	H 	0.42230 0.33480 0.23330 -0.02900
N 	N 	0.40929 0.49650 0.01350 -0.10300
N 	N 	0.38537 0.52870 0.01730 -0.09300
C 	C 	0.41210 0.46250 0.14690 0.23500
C 	C 	0.41130 0.48260 0.28910 -0.26500
H 	H 	0.40930 0.52090 0.30840 0.15700
C 	C 	0.41800 0.40700 0.12500 -0.26100
H 	H 	0.42130 0.39250 0.02920 0.13800
Zn	Zn	0.97836 0.16373 0.91406 1.18600
Zn	Zn	0.09973 0.33276 0.07154 1.21500
Zn	Zn	0.85572 0.32962 0.08052 1.21300
C 	C 	0.88068 0.22850 0.92240 -0.04400
N 	N 	0.02384 0.21070 0.96810 -0.18700
N 	N 	0.81416 0.38740 0.10740 -0.24200
N 	N 	0.64292 0.61400 0.39360 -0.25500
N 	N 	0.03159 0.25650 0.04270 -0.07300
N 	N 	0.06355 0.27000 0.01040 -0.18100
N 	N 	0.89253 0.26590 0.02290 -0.17900
N 	N 	0.93384 0.20820 0.97310 -0.19500
N 	N 	0.92449 0.25360 0.05260 -0.07300
C 	C 	0.07548 0.23180 0.91010 -0.04500
C 	C 	0.90651 0.19150 0.88900 -0.06300
C 	C 	0.04995 0.19350 0.88370 -0.06900
C 	C 	0.75540 0.40550 0.08670 -0.19500
H 	H 	0.73450 0.39500 0.04770 0.11300
C 	C 	0.78381 0.37430 0.05560 0.11300
H 	H 	0.78160 0.34250 0.99550 0.01000
C 	C 	0.79010 0.46660 0.23200 -0.19600
H 	H 	0.79290 0.49800 0.29290 0.11300
N 	N 	0.72774 0.48380 0.20220 -0.10000
C 	C 	0.75826 0.45240 0.17610 0.17800
C 	C 	0.69960 0.54960 0.33010 0.20100
C 	C 	0.64510 0.58370 0.26930 0.13900
H 	H 	0.62700 0.58500 0.20220 -0.01100
C 	C 	0.66840 0.61170 0.48620 0.14300
H 	H 	0.66720 0.63210 0.57500 -0.01000
C 	C 	0.67240 0.55070 0.23390 -0.22000
H 	H 	0.67250 0.52940 0.14640 0.12500
N 	N 	0.73017 0.51760 0.30660 -0.10200
C 	C 	0.69740 0.58040 0.45870 -0.22400
H 	H 	0.71520 0.58050 0.52730 0.12500
C 	C 	0.81730 0.43320 0.19520 0.10900
H 	H 	0.83860 0.44250 0.23230 -0.00400
O 	O 	0.12680 0.28220 0.91590 -0.39000
O 	O 	0.82815 0.27380 0.94330 -0.38700
O 	O 	0.93943 0.11520 0.81120 -0.40600
C 	C 	0.91162 0.14050 0.79450 0.32000
C 	C 	0.11096 0.24280 0.85250 0.33600
C 	C 	0.84501 0.23710 0.87230 0.32600
O 	O 	0.88841 0.12360 0.70790 -0.42700
O 	O 	0.83319 0.20950 0.76550 -0.39800
O 	O 	0.01752 0.11650 0.81040 -0.42300
O 	O 	0.12195 0.21440 0.74610 -0.39700
C 	C 	0.04535 0.14030 0.79580 0.33100
O 	O 	0.06954 0.12280 0.71680 -0.42700
N 	N 	0.98110 0.11640 0.11380 -0.27400
C 	C 	0.98396 0.06090 0.10770 0.13900
H 	H 	0.98280 0.04390 0.01390 -0.01800
C 	C 	0.98190 0.14040 0.24940 0.13300
H 	H 	0.98020 0.17930 0.25460 -0.04800
N 	N 	0.86847 0.37560 0.87230 -0.24700
C 	C 	0.89330 0.41280 0.87010 0.12000
H 	H 	0.90640 0.41710 0.95600 -0.01100
C 	C 	0.84980 0.36980 0.74840 0.11500
H 	H 	0.83200 0.34410 0.74930 -0.00200
N 	N 	0.91574 0.61010 0.11170 -0.26700
C 	C 	0.98510 0.11110 0.38180 -0.21900
H 	H 	0.98420 0.12890 0.47460 0.10800
C 	C 	0.85570 0.40050 0.61760 -0.21000
H 	H 	0.84240 0.39530 0.53280 0.11600
C 	C 	0.88140 0.43790 0.61760 0.18600
N 	N 	0.99190 0.02200 0.50800 -0.09600
C 	C 	0.90080 0.44570 0.74630 -0.20800
H 	H 	0.91820 0.47210 0.74900 0.12400
C 	C 	0.91340 0.55580 0.09610 0.16100
H 	H 	0.91330 0.54180 0.99870 -0.02200
C 	C 	0.98990 0.05300 0.36880 0.19400
C 	C 	0.98860 0.02660 0.23090 -0.22800
H 	H 	0.99070 0.98780 0.22160 0.14300
C 	C 	0.91900 0.62700 0.25080 0.16200
H 	H 	0.92230 0.66520 0.26670 -0.02900
N 	N 	0.90929 0.50350 0.48650 -0.10300
N 	N 	0.88537 0.47130 0.48270 -0.09500
C 	C 	0.91210 0.53750 0.35310 0.23300
C 	C 	0.91130 0.51740 0.21090 -0.26100
H 	H 	0.90930 0.47910 0.19160 0.15500
C 	C 	0.91800 0.59300 0.37500 -0.26000
H 	H 	0.92130 0.60750 0.47080 0.13700
Zn	Zn	0.52164 0.33627 0.91406 1.18600
Zn	Zn	0.40027 0.16724 0.07154 1.21500
Zn	Zn	0.64428 0.17038 0.08052 1.21300
C 	C 	0.61932 0.27150 0.92240 -0.04400
N 	N 	0.47616 0.28930 0.96810 -0.18700
N 	N 	0.68584 0.11260 0.10740 -0.24200
N 	N 	0.85708 0.88600 0.39360 -0.25500
N 	N 	0.46841 0.24350 0.04270 -0.07300
N 	N 	0.43645 0.23000 0.01040 -0.18100
N 	N 	0.60747 0.23410 0.02290 -0.17900
N 	N 	0.56616 0.29180 0.97310 -0.19500
N 	N 	0.57551 0.24640 0.05260 -0.07300
C 	C 	0.42452 0.26820 0.91010 -0.04500
C 	C 	0.59349 0.30850 0.88900 -0.06300
C 	C 	0.45005 0.30650 0.88370 -0.06900
C 	C 	0.74460 0.09450 0.08670 -0.19500
H 	H 	0.76550 0.10500 0.04770 0.11300
C 	C 	0.71619 0.12570 0.05560 0.11200
H 	H 	0.71840 0.15750 0.99550 0.01100
C 	C 	0.70990 0.03340 0.23200 -0.19600
H 	H 	0.70710 0.00200 0.29290 0.11300
N 	N 	0.77226 0.01620 0.20220 -0.10100
C 	C 	0.74174 0.04760 0.17610 0.17800
C 	C 	0.80040 0.95040 0.33010 0.20100
C 	C 	0.85490 0.91630 0.26930 0.13900
H 	H 	0.87300 0.91500 0.20220 -0.01100
C 	C 	0.83160 0.88830 0.48620 0.14300
H 	H 	0.83280 0.86790 0.57500 -0.01000
C 	C 	0.82760 0.94930 0.23390 -0.22000
H 	H 	0.82750 0.97060 0.14640 0.12500
N 	N 	0.76983 0.98240 0.30660 -0.10100
C 	C 	0.80260 0.91960 0.45870 -0.22400
H 	H 	0.78480 0.91950 0.52730 0.12500
C 	C 	0.68270 0.06680 0.19520 0.10900
H 	H 	0.66140 0.05750 0.23230 -0.00400
O 	O 	0.37320 0.21780 0.91590 -0.39000
O 	O 	0.67185 0.22620 0.94330 -0.38700
O 	O 	0.56057 0.38480 0.81120 -0.40600
C 	C 	0.58838 0.35950 0.79450 0.32000
C 	C 	0.38904 0.25720 0.85250 0.33600
C 	C 	0.65499 0.26290 0.87230 0.32600
O 	O 	0.61159 0.37640 0.70790 -0.42700
O 	O 	0.66681 0.29050 0.76550 -0.39800
O 	O 	0.48248 0.38350 0.81040 -0.42300
O 	O 	0.37805 0.28560 0.74610 -0.39700
C 	C 	0.45465 0.35970 0.79580 0.33100
O 	O 	0.43046 0.37720 0.71680 -0.42700
N 	N 	0.51890 0.38360 0.11380 -0.27400
C 	C 	0.51604 0.43910 0.10770 0.13800
H 	H 	0.51720 0.45610 0.01390 -0.01800
C 	C 	0.51810 0.35960 0.24940 0.13200
H 	H 	0.51980 0.32070 0.25460 -0.04800
N 	N 	0.63153 0.12440 0.87230 -0.24700
C 	C 	0.60670 0.08720 0.87010 0.12000
H 	H 	0.59360 0.08290 0.95600 -0.01100
C 	C 	0.65020 0.13020 0.74840 0.11500
H 	H 	0.66800 0.15590 0.74930 -0.00200
N 	N 	0.58426 0.88990 0.11170 -0.26700
C 	C 	0.51490 0.38890 0.38180 -0.21900
H 	H 	0.51580 0.37110 0.47460 0.10700
C 	C 	0.64430 0.09950 0.61760 -0.21000
H 	H 	0.65760 0.10470 0.53280 0.11600
C 	C 	0.61860 0.06210 0.61760 0.18600
N 	N 	0.50810 0.47800 0.50800 -0.09600
C 	C 	0.59920 0.05430 0.74630 -0.20800
H 	H 	0.58180 0.02790 0.74900 0.12400
C 	C 	0.58660 0.94420 0.09610 0.16100
H 	H 	0.58670 0.95820 0.99870 -0.02300
C 	C 	0.51010 0.44700 0.36880 0.19400
C 	C 	0.51140 0.47340 0.23090 -0.22600
H 	H 	0.50930 0.51220 0.22160 0.14200
C 	C 	0.58100 0.87300 0.25080 0.16200
H 	H 	0.57770 0.83480 0.26670 -0.02900
N 	N 	0.59071 0.99650 0.48650 -0.10300
N 	N 	0.61463 0.02870 0.48270 -0.09600
C 	C 	0.58790 0.96250 0.35310 0.23300
C 	C 	0.58870 0.98260 0.21090 -0.26100
H 	H 	0.59070 0.02090 0.19160 0.15400
C 	C 	0.58200 0.90700 0.37500 -0.25900
H 	H 	0.57870 0.89250 0.47080 0.13700
Zn	Zn	0.97836 0.33627 0.41406 1.18500
Zn	Zn	0.09973 0.16724 0.57154 1.21500
Zn	Zn	0.85572 0.17038 0.58052 1.21400
C 	C 	0.88068 0.27150 0.42240 -0.04800
N 	N 	0.02384 0.28930 0.46810 -0.18700
N 	N 	0.81416 0.11260 0.60740 -0.24400
N 	N 	0.64292 0.88600 0.89360 -0.25500
N 	N 	0.03159 0.24350 0.54270 -0.07200
N 	N 	0.06355 0.23000 0.51040 -0.18100
N 	N 	0.89253 0.23410 0.52290 -0.17600
N 	N 	0.93384 0.29180 0.47310 -0.19700
N 	N 	0.92449 0.24640 0.55260 -0.07100
C 	C 	0.07548 0.26820 0.41010 -0.04400
C 	C 	0.90651 0.30850 0.38900 -0.06300
C 	C 	0.04995 0.30650 0.38370 -0.06900
C 	C 	0.75540 0.09450 0.58670 -0.20400
H 	H 	0.73450 0.10500 0.54770 0.11800
C 	C 	0.78381 0.12570 0.55560 0.12800
H 	H 	0.78160 0.15750 0.49550 0.00100
C 	C 	0.79010 0.03340 0.73200 -0.19900
H 	H 	0.79290 0.00200 0.79290 0.11500
N 	N 	0.72774 0.01620 0.70220 -0.10000
C 	C 	0.75826 0.04760 0.67610 0.18400
C 	C 	0.69960 0.95040 0.83010 0.19900
C 	C 	0.64510 0.91630 0.76930 0.13800
H 	H 	0.62700 0.91500 0.70220 -0.01100
C 	C 	0.66840 0.88830 0.98620 0.14600
H 	H 	0.66720 0.86790 0.07500 -0.01300
C 	C 	0.67240 0.94930 0.73390 -0.21900
H 	H 	0.67250 0.97060 0.64640 0.12500
N 	N 	0.73017 0.98240 0.80660 -0.10000
C 	C 	0.69740 0.91960 0.95870 -0.21800
H 	H 	0.71520 0.91950 0.02730 0.12000
C 	C 	0.81730 0.06680 0.69520 0.11200
H 	H 	0.83860 0.05750 0.73230 -0.00400
O 	O 	0.12680 0.21780 0.41590 -0.38900
O 	O 	0.82815 0.22620 0.44330 -0.39000
O 	O 	0.93943 0.38480 0.31120 -0.40600
C 	C 	0.91162 0.35950 0.29450 0.32000
C 	C 	0.11096 0.25720 0.35250 0.33600
C 	C 	0.84501 0.26290 0.37230 0.32600
O 	O 	0.88841 0.37640 0.20790 -0.42800
O 	O 	0.83319 0.29050 0.26550 -0.40000
O 	O 	0.01752 0.38350 0.31040 -0.42300
O 	O 	0.12195 0.28560 0.24610 -0.39600
C 	C 	0.04535 0.35970 0.29580 0.33100
O 	O 	0.06954 0.37720 0.21680 -0.42700
N 	N 	0.98110 0.38360 0.61380 -0.27300
C 	C 	0.98396 0.43910 0.60770 0.13900
H 	H 	0.98280 0.45610 0.51390 -0.01700
C 	C 	0.98190 0.35960 0.74940 0.13300
H 	H 	0.98020 0.32070 0.75460 -0.04800
N 	N 	0.86847 0.12440 0.37230 -0.24800
C 	C 	0.89330 0.08720 0.37010 0.11800
H 	H 	0.90640 0.08290 0.45600 -0.01200
C 	C 	0.84980 0.13020 0.24840 0.11300
H 	H 	0.83200 0.15590 0.24930 -0.00200
N 	N 	0.91574 0.88990 0.61170 -0.26800
C 	C 	0.98510 0.38890 0.88180 -0.21900
H 	H 	0.98420 0.37110 0.97460 0.10800
C 	C 	0.85570 0.09950 0.11760 -0.20800
H 	H 	0.84240 0.10470 0.03280 0.11300
C 	C 	0.88140 0.06210 0.11760 0.18200
N 	N 	0.99190 0.47800 0.00800 -0.09600
C 	C 	0.90080 0.05430 0.24630 -0.20600
H 	H 	0.91820 0.02790 0.24900 0.12300
C 	C 	0.91340 0.94420 0.59610 0.16600
H 	H 	0.91330 0.95820 0.49870 -0.02600
C 	C 	0.98990 0.44700 0.86880 0.19400
C 	C 	0.98860 0.47340 0.73090 -0.22600
H 	H 	0.99070 0.51220 0.72160 0.14200
C 	C 	0.91900 0.87300 0.75080 0.16300
H 	H 	0.92230 0.83480 0.76670 -0.02900
N 	N 	0.90929 0.99650 0.98650 -0.10300
N 	N 	0.88537 0.02870 0.98270 -0.09300
C 	C 	0.91210 0.96250 0.85310 0.23500
C 	C 	0.91130 0.98260 0.71090 -0.26500
H 	H 	0.90930 0.02090 0.69160 0.15700
C 	C 	0.91800 0.90700 0.87500 -0.26100
H 	H 	0.92130 0.89250 0.97080 0.13800
Zn	Zn	0.52164 0.16373 0.41406 1.18500
Zn	Zn	0.40027 0.33276 0.57154 1.21500
Zn	Zn	0.64428 0.32962 0.58052 1.21400
C 	C 	0.61932 0.22850 0.42240 -0.04800
N 	N 	0.47616 0.21070 0.46810 -0.18700
N 	N 	0.68584 0.38740 0.60740 -0.24400
N 	N 	0.85708 0.61400 0.89360 -0.25500
N 	N 	0.46841 0.25650 0.54270 -0.07200
N 	N 	0.43645 0.27000 0.51040 -0.18100
N 	N 	0.60747 0.26590 0.52290 -0.17600
N 	N 	0.56616 0.20820 0.47310 -0.19700
N 	N 	0.57551 0.25360 0.55260 -0.07100
C 	C 	0.42452 0.23180 0.41010 -0.04400
C 	C 	0.59349 0.19150 0.38900 -0.06300
C 	C 	0.45005 0.19350 0.38370 -0.06900
C 	C 	0.74460 0.40550 0.58670 -0.20400
H 	H 	0.76550 0.39500 0.54770 0.11800
C 	C 	0.71619 0.37430 0.55560 0.12800
H 	H 	0.71840 0.34250 0.49550 0.00100
C 	C 	0.70990 0.46660 0.73200 -0.19900
H 	H 	0.70710 0.49800 0.79290 0.11500
N 	N 	0.77226 0.48380 0.70220 -0.10000
C 	C 	0.74174 0.45240 0.67610 0.18400
C 	C 	0.80040 0.54960 0.83010 0.19900
C 	C 	0.85490 0.58370 0.76930 0.13800
H 	H 	0.87300 0.58500 0.70220 -0.01100
C 	C 	0.83160 0.61170 0.98620 0.14600
H 	H 	0.83280 0.63210 0.07500 -0.01300
C 	C 	0.82760 0.55070 0.73390 -0.21900
H 	H 	0.82750 0.52940 0.64640 0.12500
N 	N 	0.76983 0.51760 0.80660 -0.10000
C 	C 	0.80260 0.58040 0.95870 -0.21700
H 	H 	0.78480 0.58050 0.02730 0.12000
C 	C 	0.68270 0.43320 0.69520 0.11200
H 	H 	0.66140 0.44250 0.73230 -0.00400
O 	O 	0.37320 0.28220 0.41590 -0.38900
O 	O 	0.67185 0.27380 0.44330 -0.39000
O 	O 	0.56057 0.11520 0.31120 -0.40700
C 	C 	0.58838 0.14050 0.29450 0.32000
C 	C 	0.38904 0.24280 0.35250 0.33600
C 	C 	0.65499 0.23710 0.37230 0.32600
O 	O 	0.61159 0.12360 0.20790 -0.42800
O 	O 	0.66681 0.20950 0.26550 -0.40000
O 	O 	0.48248 0.11650 0.31040 -0.42300
O 	O 	0.37805 0.21440 0.24610 -0.39600
C 	C 	0.45465 0.14030 0.29580 0.33100
O 	O 	0.43046 0.12280 0.21680 -0.42700
N 	N 	0.51890 0.11640 0.61380 -0.27300
C 	C 	0.51604 0.06090 0.60770 0.13800
H 	H 	0.51720 0.04390 0.51390 -0.01700
C 	C 	0.51810 0.14040 0.74940 0.13300
H 	H 	0.51980 0.17930 0.75460 -0.04800
N 	N 	0.63153 0.37560 0.37230 -0.24800
C 	C 	0.60670 0.41280 0.37010 0.11900
H 	H 	0.59360 0.41710 0.45600 -0.01200
C 	C 	0.65020 0.36980 0.24840 0.11300
H 	H 	0.66800 0.34410 0.24930 -0.00200
N 	N 	0.58426 0.61010 0.61170 -0.26800
C 	C 	0.51490 0.11110 0.88180 -0.21900
H 	H 	0.51580 0.12890 0.97460 0.10800
C 	C 	0.64430 0.40050 0.11760 -0.20800
H 	H 	0.65760 0.39530 0.03280 0.11400
C 	C 	0.61860 0.43790 0.11760 0.18200
N 	N 	0.50810 0.02200 0.00800 -0.09600
C 	C 	0.59920 0.44570 0.24630 -0.20700
H 	H 	0.58180 0.47210 0.24900 0.12300
C 	C 	0.58660 0.55580 0.59610 0.16600
H 	H 	0.58670 0.54180 0.49870 -0.02600
C 	C 	0.51010 0.05300 0.86880 0.19500
C 	C 	0.51140 0.02660 0.73090 -0.22600
H 	H 	0.50930 0.98780 0.72160 0.14100
C 	C 	0.58100 0.62700 0.75080 0.16300
H 	H 	0.57770 0.66520 0.76670 -0.02900
N 	N 	0.59071 0.50350 0.98650 -0.10300
N 	N 	0.61463 0.47130 0.98270 -0.09300
C 	C 	0.58790 0.53750 0.85310 0.23500
C 	C 	0.58870 0.51740 0.71090 -0.26500
H 	H 	0.59070 0.47910 0.69160 0.15700
C 	C 	0.58200 0.59300 0.87500 -0.26100
H 	H 	0.57870 0.60750 0.97080 0.13800
Zn	Zn	0.02164 0.83627 0.08594 1.18600
Zn	Zn	0.90027 0.66724 0.92846 1.21500
Zn	Zn	0.14428 0.67038 0.91948 1.21300
C 	C 	0.11932 0.77150 0.07760 -0.04400
N 	N 	0.97616 0.78930 0.03190 -0.18700
N 	N 	0.18584 0.61260 0.89260 -0.24200
N 	N 	0.35708 0.38600 0.60640 -0.25500
N 	N 	0.96841 0.74350 0.95730 -0.07300
N 	N 	0.93645 0.73000 0.98960 -0.18100
N 	N 	0.10747 0.73410 0.97710 -0.17900
N 	N 	0.06616 0.79180 0.02690 -0.19500
N 	N 	0.07551 0.74640 0.94740 -0.07300
C 	C 	0.92452 0.76820 0.08990 -0.04500
C 	C 	0.09349 0.80850 0.11100 -0.06300
C 	C 	0.95005 0.80650 0.11630 -0.06900
C 	C 	0.24460 0.59450 0.91330 -0.19500
H 	H 	0.26550 0.60500 0.95230 0.11300
C 	C 	0.21619 0.62570 0.94440 0.11300
H 	H 	0.21840 0.65750 0.00450 0.01000
C 	C 	0.20990 0.53340 0.76800 -0.19600
H 	H 	0.20710 0.50200 0.70710 0.11300
N 	N 	0.27226 0.51620 0.79780 -0.10000
C 	C 	0.24174 0.54760 0.82390 0.17800
C 	C 	0.30040 0.45040 0.66990 0.20100
C 	C 	0.35490 0.41630 0.73070 0.13900
H 	H 	0.37300 0.41500 0.79780 -0.01100
C 	C 	0.33160 0.38830 0.51380 0.14300
H 	H 	0.33280 0.36790 0.42500 -0.01000
C 	C 	0.32760 0.44930 0.76610 -0.22000
H 	H 	0.32750 0.47060 0.85360 0.12500
N 	N 	0.26983 0.48240 0.69340 -0.10200
C 	C 	0.30260 0.41960 0.54130 -0.22400
H 	H 	0.28480 0.41950 0.47270 0.12500
C 	C 	0.18270 0.56680 0.80480 0.10900
H 	H 	0.16140 0.55750 0.76770 -0.00400
O 	O 	0.87320 0.71780 0.08410 -0.39000
O 	O 	0.17185 0.72620 0.05670 -0.38700
O 	O 	0.06057 0.88480 0.18880 -0.40600
C 	C 	0.08838 0.85950 0.20550 0.32000
C 	C 	0.88904 0.75720 0.14750 0.33600
C 	C 	0.15499 0.76290 0.12770 0.32600
O 	O 	0.11159 0.87640 0.29210 -0.42700
O 	O 	0.16681 0.79050 0.23450 -0.39800
O 	O 	0.98248 0.88350 0.18960 -0.42300
O 	O 	0.87805 0.78560 0.25390 -0.39700
C 	C 	0.95465 0.85970 0.20420 0.33100
O 	O 	0.93046 0.87720 0.28320 -0.42700
N 	N 	0.01890 0.88360 0.88620 -0.27400
C 	C 	0.01604 0.93910 0.89230 0.13900
H 	H 	0.01720 0.95610 0.98610 -0.01800
C 	C 	0.01810 0.85960 0.75060 0.13300
H 	H 	0.01980 0.82070 0.74540 -0.04800
N 	N 	0.13153 0.62440 0.12770 -0.24700
C 	C 	0.10670 0.58720 0.12990 0.12000
H 	H 	0.09360 0.58290 0.04400 -0.01100
C 	C 	0.15020 0.63020 0.25160 0.11500
H 	H 	0.16800 0.65590 0.25070 -0.00200
N 	N 	0.08426 0.38990 0.88830 -0.26700
C 	C 	0.01490 0.88890 0.61820 -0.21900
H 	H 	0.01580 0.87110 0.52540 0.10800
C 	C 	0.14430 0.59950 0.38240 -0.21000
H 	H 	0.15760 0.60470 0.46720 0.11600
C 	C 	0.11860 0.56210 0.38240 0.18600
N 	N 	0.00810 0.97800 0.49200 -0.09600
C 	C 	0.09920 0.55430 0.25370 -0.20800
H 	H 	0.08180 0.52790 0.25100 0.12400
C 	C 	0.08660 0.44420 0.90390 0.16100
H 	H 	0.08670 0.45820 0.00130 -0.02200
C 	C 	0.01010 0.94700 0.63120 0.19400
C 	C 	0.01140 0.97340 0.76910 -0.22800
H 	H 	0.00930 0.01220 0.77840 0.14300
C 	C 	0.08100 0.37300 0.74920 0.16200
H 	H 	0.07770 0.33480 0.73330 -0.02900
N 	N 	0.09071 0.49650 0.51350 -0.10300
N 	N 	0.11463 0.52870 0.51730 -0.09500
C 	C 	0.08790 0.46250 0.64690 0.23300
C 	C 	0.08870 0.48260 0.78910 -0.26100
H 	H 	0.09070 0.52090 0.80840 0.15500
C 	C 	0.08200 0.40700 0.62500 -0.26000
H 	H 	0.07870 0.39250 0.52920 0.13700
Zn	Zn	0.47836 0.66373 0.08594 1.18600
Zn	Zn	0.59973 0.83276 0.92846 1.21500
Zn	Zn	0.35572 0.82962 0.91948 1.21300
C 	C 	0.38068 0.72850 0.07760 -0.04400
N 	N 	0.52384 0.71070 0.03190 -0.18700
N 	N 	0.31416 0.88740 0.89260 -0.24200
N 	N 	0.14292 0.11400 0.60640 -0.25500
N 	N 	0.53159 0.75650 0.95730 -0.07300
N 	N 	0.56355 0.77000 0.98960 -0.18100
N 	N 	0.39253 0.76590 0.97710 -0.17900
N 	N 	0.43384 0.70820 0.02690 -0.19500
N 	N 	0.42449 0.75360 0.94740 -0.07300
C 	C 	0.57548 0.73180 0.08990 -0.04500
C 	C 	0.40651 0.69150 0.11100 -0.06300
C 	C 	0.54995 0.69350 0.11630 -0.06900
C 	C 	0.25540 0.90550 0.91330 -0.19500
H 	H 	0.23450 0.89500 0.95230 0.11300
C 	C 	0.28381 0.87430 0.94440 0.11200
H 	H 	0.28160 0.84250 0.00450 0.01100
C 	C 	0.29010 0.96660 0.76800 -0.19600
H 	H 	0.29290 0.99800 0.70710 0.11300
N 	N 	0.22774 0.98380 0.79780 -0.10100
C 	C 	0.25826 0.95240 0.82390 0.17800
C 	C 	0.19960 0.04960 0.66990 0.20100
C 	C 	0.14510 0.08370 0.73070 0.13900
H 	H 	0.12700 0.08500 0.79780 -0.01100
C 	C 	0.16840 0.11170 0.51380 0.14300
H 	H 	0.16720 0.13210 0.42500 -0.01000
C 	C 	0.17240 0.05070 0.76610 -0.22000
H 	H 	0.17250 0.02940 0.85360 0.12500
N 	N 	0.23017 0.01760 0.69340 -0.10100
C 	C 	0.19740 0.08040 0.54130 -0.22400
H 	H 	0.21520 0.08050 0.47270 0.12500
C 	C 	0.31730 0.93320 0.80480 0.10900
H 	H 	0.33860 0.94250 0.76770 -0.00400
O 	O 	0.62680 0.78220 0.08410 -0.39000
O 	O 	0.32815 0.77380 0.05670 -0.38700
O 	O 	0.43943 0.61520 0.18880 -0.40600
C 	C 	0.41162 0.64050 0.20550 0.32000
C 	C 	0.61096 0.74280 0.14750 0.33600
C 	C 	0.34501 0.73710 0.12770 0.32600
O 	O 	0.38841 0.62360 0.29210 -0.42700
O 	O 	0.33319 0.70950 0.23450 -0.39800
O 	O 	0.51752 0.61650 0.18960 -0.42300
O 	O 	0.62195 0.71440 0.25390 -0.39700
C 	C 	0.54535 0.64030 0.20420 0.33100
O 	O 	0.56954 0.62280 0.28320 -0.42700
N 	N 	0.48110 0.61640 0.88620 -0.27400
C 	C 	0.48396 0.56090 0.89230 0.13800
H 	H 	0.48280 0.54390 0.98610 -0.01800
C 	C 	0.48190 0.64040 0.75060 0.13200
H 	H 	0.48020 0.67930 0.74540 -0.04800
N 	N 	0.36847 0.87560 0.12770 -0.24700
C 	C 	0.39330 0.91280 0.12990 0.12000
H 	H 	0.40640 0.91710 0.04400 -0.01100
C 	C 	0.34980 0.86980 0.25160 0.11500
H 	H 	0.33200 0.84410 0.25070 -0.00200
N 	N 	0.41574 0.11010 0.88830 -0.26700
C 	C 	0.48510 0.61110 0.61820 -0.21900
H 	H 	0.48420 0.62890 0.52540 0.10700
C 	C 	0.35570 0.90050 0.38240 -0.21000
H 	H 	0.34240 0.89530 0.46720 0.11600
C 	C 	0.38140 0.93790 0.38240 0.18600
N 	N 	0.49190 0.52200 0.49200 -0.09600
C 	C 	0.40080 0.94570 0.25370 -0.20800
H 	H 	0.41820 0.97210 0.25100 0.12400
C 	C 	0.41340 0.05580 0.90390 0.16100
H 	H 	0.41330 0.04180 0.00130 -0.02300
C 	C 	0.48990 0.55300 0.63120 0.19400
C 	C 	0.48860 0.52660 0.76910 -0.22600
H 	H 	0.49070 0.48780 0.77840 0.14200
C 	C 	0.41900 0.12700 0.74920 0.16200
H 	H 	0.42230 0.16520 0.73330 -0.02900
N 	N 	0.40929 0.00350 0.51350 -0.10300
N 	N 	0.38537 0.97130 0.51730 -0.09600
C 	C 	0.41210 0.03750 0.64690 0.23300
C 	C 	0.41130 0.01740 0.78910 -0.26100
H 	H 	0.40930 0.97910 0.80840 0.15400
C 	C 	0.41800 0.09300 0.62500 -0.25900
H 	H 	0.42130 0.10750 0.52920 0.13700
