data_crystal

_cell_length_a 10.05230
_cell_length_b 10.05230
_cell_length_c 19.32840
_cell_angle_alpha 90.00000
_cell_angle_beta  90.00000
_cell_angle_gamma 103.95200

_symmetry_space_group_name_	'P 1'
_symmetry_space_group_name_H-M	'P 1'

loop_
_symmetry_equiv_pos_as_xyz
  x,y,z

loop_
_atom_site_label
_atom_site_type_symbol
_atom_site_fract_x
_atom_site_fract_y
_atom_site_fract_z
_atom_site_charge
Co	Co	0.80796 0.93720 0.73175 1.18700
Co	Co	0.19204 0.06280 0.23175 1.18900
Co	Co	0.06280 0.19204 0.76825 1.18900
Co	Co	0.93720 0.80796 0.26825 1.18800
H 	H 	0.50710 0.16550 0.74960 0.06000
H 	H 	0.17970 0.21950 0.60320 0.04200
H 	H 	0.49290 0.83450 0.24960 0.06100
H 	H 	0.82030 0.78050 0.10320 0.05500
H 	H 	0.83450 0.49290 0.75040 0.05900
H 	H 	0.78050 0.82030 0.89680 0.05800
H 	H 	0.16550 0.50710 0.25040 0.06100
H 	H 	0.21950 0.17970 0.39680 0.04200
H 	H 	0.44860 0.55140 0.75000 0.06700
H 	H 	0.55140 0.44860 0.25000 0.06800
H 	H 	0.91670 0.91670 0.50000 0.06000
H 	H 	0.08330 0.08330 1.00000 0.06300
C 	C 	0.30550 0.28690 0.75278 0.29400
C 	C 	0.95640 0.01940 0.62620 0.36300
C 	C 	0.54350 0.26190 0.74988 0.04100
C 	C 	0.45505 0.34995 0.75013 -0.07000
C 	C 	0.03629 0.06431 0.56139 -0.10000
C 	C 	0.14880 0.17360 0.56105 0.04800
C 	C 	0.69450 0.71310 0.25278 0.29400
C 	C 	0.04360 0.98060 0.12620 0.35600
C 	C 	0.45650 0.73810 0.24988 0.04100
C 	C 	0.54495 0.65005 0.25013 -0.06800
C 	C 	0.96371 0.93569 0.06139 -0.06900
C 	C 	0.85120 0.82640 0.06105 0.00900
C 	C 	0.71310 0.69450 0.74722 0.29400
C 	C 	0.98060 0.04360 0.87380 0.35700
C 	C 	0.73810 0.45650 0.75012 0.04100
C 	C 	0.65005 0.54495 0.74987 -0.07100
C 	C 	0.93569 0.96371 0.93861 -0.08400
C 	C 	0.82640 0.85120 0.93895 -0.00900
C 	C 	0.28690 0.30550 0.24722 0.29400
C 	C 	0.01940 0.95640 0.37380 0.36300
C 	C 	0.26190 0.54350 0.25012 0.04100
C 	C 	0.34995 0.45505 0.24987 -0.06800
C 	C 	0.06431 0.03629 0.43861 -0.10000
C 	C 	0.17360 0.14880 0.43895 0.04800
C 	C 	0.77880 0.22120 0.75000 0.39200
C 	C 	0.68450 0.31550 0.75000 -0.10200
C 	C 	0.50860 0.49140 0.75000 0.03500
C 	C 	0.22120 0.77880 0.25000 0.39300
C 	C 	0.31550 0.68450 0.25000 -0.10000
C 	C 	0.49140 0.50860 0.25000 0.03400
C 	C 	0.99340 0.99340 0.50000 0.04400
C 	C 	0.21780 0.21780 0.50000 -0.08100
C 	C 	0.33930 0.33930 0.50000 0.30200
C 	C 	0.00660 0.00660 1.00000 0.01700
C 	C 	0.78220 0.78220 -0.00000 -0.01200
C 	C 	0.66070 0.66070 1.00000 0.24200
O 	O 	0.21981 0.36113 0.74646 -0.35800
O 	O 	0.26335 0.15987 0.76265 -0.34800
O 	O 	0.84343 0.93297 0.62358 -0.37400
O 	O 	0.00570 0.06910 0.68231 -0.49200
O 	O 	0.72653 0.09799 0.73493 -0.44300
O 	O 	0.36120 0.40900 0.55443 -0.21000
O 	O 	0.78019 0.63887 0.24646 -0.35800
O 	O 	0.73665 0.84013 0.26265 -0.34800
O 	O 	0.15657 0.06703 0.12358 -0.36400
O 	O 	0.99430 0.93090 0.18231 -0.49400
O 	O 	0.27347 0.90201 0.23493 -0.44300
O 	O 	0.63880 0.59100 0.05443 -0.18200
O 	O 	0.63887 0.78019 0.75354 -0.36000
O 	O 	0.84013 0.73665 0.73735 -0.34900
O 	O 	0.06703 0.15657 0.87642 -0.37200
O 	O 	0.93090 0.99430 0.81769 -0.49600
O 	O 	0.90201 0.27347 0.76507 -0.44500
O 	O 	0.59100 0.63880 0.94557 -0.20100
O 	O 	0.36113 0.21981 0.25354 -0.35700
O 	O 	0.15987 0.26335 0.23735 -0.34600
O 	O 	0.93297 0.84343 0.37642 -0.37400
O 	O 	0.06910 0.00570 0.31769 -0.49200
O 	O 	0.09799 0.72653 0.26507 -0.44200
O 	O 	0.40900 0.36120 0.44557 -0.21000
