data_crystal

_cell_length_a 26.33680
_cell_length_b 26.33680
_cell_length_c 26.33680
_cell_angle_alpha 90.00000
_cell_angle_beta  90.00000
_cell_angle_gamma 90.00000

_symmetry_space_group_name_	'P 1'
_symmetry_space_group_name_H-M	'P 1'

loop_
_symmetry_equiv_pos_as_xyz
  x,y,z

loop_
_atom_site_label
_atom_site_type_symbol
_atom_site_fract_x
_atom_site_fract_y
_atom_site_fract_z
_atom_site_charge
O 	O 	0.75697 0.94765 0.31679 -0.37500
O 	O 	0.75697 0.44765 0.81679 -0.40100
O 	O 	0.25697 0.94765 0.81679 -0.37300
O 	O 	0.25697 0.44765 0.31679 -0.41000
O 	O 	0.24303 0.05235 0.31679 -0.42600
O 	O 	0.24303 0.55235 0.81679 -0.40400
O 	O 	0.74303 0.05235 0.81679 -0.41700
O 	O 	0.74303 0.55235 0.31679 -0.40600
O 	O 	0.24303 0.94765 0.68321 -0.37700
O 	O 	0.24303 0.44765 0.18321 -0.41300
O 	O 	0.74303 0.94765 0.18321 -0.37800
O 	O 	0.74303 0.44765 0.68321 -0.40500
O 	O 	0.75697 0.05235 0.68321 -0.42200
O 	O 	0.75697 0.55235 0.18321 -0.41000
O 	O 	0.25697 0.05235 0.18321 -0.43100
O 	O 	0.25697 0.55235 0.68321 -0.40900
O 	O 	0.31679 0.75697 0.94765 -0.37400
O 	O 	0.31679 0.25697 0.44765 -0.40900
O 	O 	0.81679 0.75697 0.44765 -0.40000
O 	O 	0.81679 0.25697 0.94765 -0.37200
O 	O 	0.31679 0.24303 0.05235 -0.42500
O 	O 	0.31679 0.74303 0.55235 -0.40500
O 	O 	0.81679 0.24303 0.55235 -0.40300
O 	O 	0.81679 0.74303 0.05235 -0.41600
O 	O 	0.68321 0.24303 0.94765 -0.37600
O 	O 	0.68321 0.74303 0.44765 -0.40500
O 	O 	0.18321 0.24303 0.44765 -0.41300
O 	O 	0.18321 0.74303 0.94765 -0.37800
O 	O 	0.68321 0.75697 0.05235 -0.42200
O 	O 	0.68321 0.25697 0.55235 -0.40900
O 	O 	0.18321 0.75697 0.55235 -0.41000
O 	O 	0.18321 0.25697 0.05235 -0.43100
O 	O 	0.94765 0.31679 0.75697 -0.37400
O 	O 	0.94765 0.81679 0.25697 -0.37200
O 	O 	0.44765 0.31679 0.25697 -0.40900
O 	O 	0.44765 0.81679 0.75697 -0.40000
O 	O 	0.05235 0.31679 0.24303 -0.42500
O 	O 	0.05235 0.81679 0.74303 -0.41600
O 	O 	0.55235 0.31679 0.74303 -0.40500
O 	O 	0.55235 0.81679 0.24303 -0.40300
O 	O 	0.94765 0.68321 0.24303 -0.37600
O 	O 	0.94765 0.18321 0.74303 -0.37800
O 	O 	0.44765 0.68321 0.74303 -0.40500
O 	O 	0.44765 0.18321 0.24303 -0.41300
O 	O 	0.05235 0.68321 0.75697 -0.42200
O 	O 	0.05235 0.18321 0.25697 -0.43100
O 	O 	0.55235 0.68321 0.25697 -0.40900
O 	O 	0.55235 0.18321 0.75697 -0.41000
O 	O 	0.94765 0.75697 0.68321 -0.37300
O 	O 	0.94765 0.25697 0.18321 -0.38200
O 	O 	0.44765 0.75697 0.18321 -0.41000
O 	O 	0.44765 0.25697 0.68321 -0.40900
O 	O 	0.05235 0.24303 0.68321 -0.42500
O 	O 	0.05235 0.74303 0.18321 -0.42600
O 	O 	0.55235 0.24303 0.18321 -0.41300
O 	O 	0.55235 0.74303 0.68321 -0.40500
O 	O 	0.94765 0.24303 0.31679 -0.37700
O 	O 	0.94765 0.74303 0.81679 -0.36800
O 	O 	0.44765 0.24303 0.81679 -0.40300
O 	O 	0.44765 0.74303 0.31679 -0.40500
O 	O 	0.05235 0.75697 0.31679 -0.42200
O 	O 	0.05235 0.25697 0.81679 -0.42000
O 	O 	0.55235 0.75697 0.81679 -0.40000
O 	O 	0.55235 0.25697 0.31679 -0.40900
O 	O 	0.75697 0.31679 0.05235 -0.42200
O 	O 	0.75697 0.81679 0.55235 -0.40000
O 	O 	0.25697 0.31679 0.55235 -0.40900
O 	O 	0.25697 0.81679 0.05235 -0.42000
O 	O 	0.24303 0.31679 0.94765 -0.37700
O 	O 	0.24303 0.81679 0.44765 -0.40300
O 	O 	0.74303 0.31679 0.44765 -0.40500
O 	O 	0.74303 0.81679 0.94765 -0.36800
O 	O 	0.24303 0.68321 0.05235 -0.42500
O 	O 	0.24303 0.18321 0.55235 -0.41300
O 	O 	0.74303 0.68321 0.55235 -0.40500
O 	O 	0.74303 0.18321 0.05235 -0.42600
O 	O 	0.75697 0.68321 0.94765 -0.37300
O 	O 	0.75697 0.18321 0.44765 -0.41000
O 	O 	0.25697 0.68321 0.44765 -0.40900
O 	O 	0.25697 0.18321 0.94765 -0.38200
O 	O 	0.31679 0.94765 0.24303 -0.37700
O 	O 	0.31679 0.44765 0.74303 -0.40500
O 	O 	0.81679 0.94765 0.74303 -0.36800
O 	O 	0.81679 0.44765 0.24303 -0.40300
O 	O 	0.31679 0.05235 0.75697 -0.42200
O 	O 	0.31679 0.55235 0.25697 -0.40900
O 	O 	0.81679 0.05235 0.25697 -0.42000
O 	O 	0.81679 0.55235 0.75697 -0.40000
O 	O 	0.68321 0.94765 0.75697 -0.37300
O 	O 	0.68321 0.44765 0.25697 -0.40900
O 	O 	0.18321 0.94765 0.25697 -0.38200
O 	O 	0.18321 0.44765 0.75697 -0.41000
O 	O 	0.68321 0.05235 0.24303 -0.42500
O 	O 	0.68321 0.55235 0.74303 -0.40500
O 	O 	0.18321 0.05235 0.74303 -0.42600
O 	O 	0.18321 0.55235 0.24303 -0.41300
O 	O 	0.24303 0.05235 0.68321 -0.42500
O 	O 	0.24303 0.55235 0.18321 -0.41300
O 	O 	0.74303 0.05235 0.18321 -0.42600
O 	O 	0.74303 0.55235 0.68321 -0.40500
O 	O 	0.75697 0.94765 0.68321 -0.37300
O 	O 	0.75697 0.44765 0.18321 -0.41000
O 	O 	0.25697 0.94765 0.18321 -0.38200
O 	O 	0.25697 0.44765 0.68321 -0.40900
O 	O 	0.75697 0.05235 0.31679 -0.42200
O 	O 	0.75697 0.55235 0.81679 -0.40000
O 	O 	0.25697 0.05235 0.81679 -0.42000
O 	O 	0.25697 0.55235 0.31679 -0.40900
O 	O 	0.24303 0.94765 0.31679 -0.37700
O 	O 	0.24303 0.44765 0.81679 -0.40300
O 	O 	0.74303 0.94765 0.81679 -0.36800
O 	O 	0.74303 0.44765 0.31679 -0.40500
O 	O 	0.68321 0.24303 0.05235 -0.42500
O 	O 	0.68321 0.74303 0.55235 -0.40500
O 	O 	0.18321 0.24303 0.55235 -0.41300
O 	O 	0.18321 0.74303 0.05235 -0.42600
O 	O 	0.68321 0.75697 0.94765 -0.37300
O 	O 	0.68321 0.25697 0.44765 -0.40900
O 	O 	0.18321 0.75697 0.44765 -0.41000
O 	O 	0.18321 0.25697 0.94765 -0.38200
O 	O 	0.31679 0.75697 0.05235 -0.42200
O 	O 	0.31679 0.25697 0.55235 -0.40900
O 	O 	0.81679 0.75697 0.55235 -0.40000
O 	O 	0.81679 0.25697 0.05235 -0.42000
O 	O 	0.31679 0.24303 0.94765 -0.37700
O 	O 	0.31679 0.74303 0.44765 -0.40500
O 	O 	0.81679 0.24303 0.44765 -0.40300
O 	O 	0.81679 0.74303 0.94765 -0.36800
O 	O 	0.05235 0.68321 0.24303 -0.42500
O 	O 	0.05235 0.18321 0.74303 -0.42600
O 	O 	0.55235 0.68321 0.74303 -0.40500
O 	O 	0.55235 0.18321 0.24303 -0.41300
O 	O 	0.94765 0.68321 0.75697 -0.37300
O 	O 	0.94765 0.18321 0.25697 -0.38200
O 	O 	0.44765 0.68321 0.25697 -0.40900
O 	O 	0.44765 0.18321 0.75697 -0.41000
O 	O 	0.05235 0.31679 0.75697 -0.42200
O 	O 	0.05235 0.81679 0.25697 -0.42000
O 	O 	0.55235 0.31679 0.25697 -0.40900
O 	O 	0.55235 0.81679 0.75697 -0.40000
O 	O 	0.94765 0.31679 0.24303 -0.37700
O 	O 	0.94765 0.81679 0.74303 -0.36800
O 	O 	0.44765 0.31679 0.74303 -0.40500
O 	O 	0.44765 0.81679 0.24303 -0.40300
O 	O 	0.05235 0.24303 0.31679 -0.42500
O 	O 	0.05235 0.74303 0.81679 -0.41600
O 	O 	0.55235 0.24303 0.81679 -0.40300
O 	O 	0.55235 0.74303 0.31679 -0.40500
O 	O 	0.94765 0.75697 0.31679 -0.37400
O 	O 	0.94765 0.25697 0.81679 -0.37200
O 	O 	0.44765 0.75697 0.81679 -0.40000
O 	O 	0.44765 0.25697 0.31679 -0.40900
O 	O 	0.05235 0.75697 0.68321 -0.42200
O 	O 	0.05235 0.25697 0.18321 -0.43100
O 	O 	0.55235 0.75697 0.18321 -0.41000
O 	O 	0.55235 0.25697 0.68321 -0.40900
O 	O 	0.94765 0.24303 0.68321 -0.37600
O 	O 	0.94765 0.74303 0.18321 -0.37800
O 	O 	0.44765 0.24303 0.18321 -0.41300
O 	O 	0.44765 0.74303 0.68321 -0.40500
O 	O 	0.24303 0.68321 0.94765 -0.37600
O 	O 	0.24303 0.18321 0.44765 -0.41300
O 	O 	0.74303 0.68321 0.44765 -0.40500
O 	O 	0.74303 0.18321 0.94765 -0.37800
O 	O 	0.75697 0.68321 0.05235 -0.42200
O 	O 	0.75697 0.18321 0.55235 -0.41000
O 	O 	0.25697 0.68321 0.55235 -0.40900
O 	O 	0.25697 0.18321 0.05235 -0.43100
O 	O 	0.75697 0.31679 0.94765 -0.37400
O 	O 	0.75697 0.81679 0.44765 -0.40000
O 	O 	0.25697 0.31679 0.44765 -0.40900
O 	O 	0.25697 0.81679 0.94765 -0.37200
O 	O 	0.24303 0.31679 0.05235 -0.42500
O 	O 	0.24303 0.81679 0.55235 -0.40300
O 	O 	0.74303 0.31679 0.55235 -0.40500
O 	O 	0.74303 0.81679 0.05235 -0.41600
O 	O 	0.68321 0.05235 0.75697 -0.42200
O 	O 	0.68321 0.55235 0.25697 -0.40900
O 	O 	0.18321 0.05235 0.25697 -0.43100
O 	O 	0.18321 0.55235 0.75697 -0.41000
O 	O 	0.68321 0.94765 0.24303 -0.37600
O 	O 	0.68321 0.44765 0.74303 -0.40500
O 	O 	0.18321 0.94765 0.74303 -0.37800
O 	O 	0.18321 0.44765 0.24303 -0.41300
O 	O 	0.31679 0.05235 0.24303 -0.42500
O 	O 	0.31679 0.55235 0.74303 -0.40500
O 	O 	0.81679 0.05235 0.74303 -0.41600
O 	O 	0.81679 0.55235 0.24303 -0.40300
O 	O 	0.31679 0.94765 0.75697 -0.37400
O 	O 	0.31679 0.44765 0.25697 -0.40900
O 	O 	0.81679 0.94765 0.25697 -0.37200
O 	O 	0.81679 0.44765 0.75697 -0.40000
C 	C 	0.82340 0.88890 0.32340 -0.10900
C 	C 	0.79770 0.93140 0.29770 0.37000
C 	C 	0.82340 0.38890 0.82340 -0.11400
C 	C 	0.79770 0.43140 0.79770 0.37500
C 	C 	0.17660 0.11110 0.32340 -0.14900
C 	C 	0.20230 0.06860 0.29770 0.38200
C 	C 	0.17660 0.61110 0.82340 -0.12800
C 	C 	0.20230 0.56860 0.79770 0.37800
C 	C 	0.67660 0.11110 0.82340 -0.13200
C 	C 	0.70230 0.06860 0.79770 0.37700
C 	C 	0.17660 0.88890 0.67660 -0.12100
C 	C 	0.20230 0.93140 0.70230 0.37200
C 	C 	0.17660 0.38890 0.17660 -0.14400
C 	C 	0.20230 0.43140 0.20230 0.38100
C 	C 	0.67660 0.38890 0.67660 -0.12800
C 	C 	0.70230 0.43140 0.70230 0.37700
C 	C 	0.82340 0.11110 0.67660 -0.13200
C 	C 	0.79770 0.06860 0.70230 0.37700
C 	C 	0.82340 0.61110 0.17660 -0.12800
C 	C 	0.79770 0.56860 0.20230 0.37800
C 	C 	0.32340 0.82340 0.88890 -0.10900
C 	C 	0.29770 0.79770 0.93140 0.37000
C 	C 	0.32340 0.32340 0.38890 -0.13300
C 	C 	0.29770 0.29770 0.43140 0.38000
C 	C 	0.82340 0.82340 0.38890 -0.11400
C 	C 	0.79770 0.79770 0.43140 0.37500
C 	C 	0.32340 0.17660 0.11110 -0.14900
C 	C 	0.29770 0.20230 0.06860 0.38200
C 	C 	0.32340 0.67660 0.61110 -0.12900
C 	C 	0.29770 0.70230 0.56860 0.37800
C 	C 	0.82340 0.67660 0.11110 -0.13200
C 	C 	0.79770 0.70230 0.06860 0.37700
C 	C 	0.67660 0.17660 0.88890 -0.12100
C 	C 	0.70230 0.20230 0.93140 0.37200
C 	C 	0.67660 0.67660 0.38890 -0.12800
C 	C 	0.70230 0.70230 0.43140 0.37700
C 	C 	0.67660 0.82340 0.11110 -0.13200
C 	C 	0.70230 0.79770 0.06860 0.37700
C 	C 	0.67660 0.32340 0.61110 -0.12900
C 	C 	0.70230 0.29770 0.56860 0.37800
C 	C 	0.88890 0.32340 0.82340 -0.10900
C 	C 	0.93140 0.29770 0.79770 0.37000
C 	C 	0.38890 0.32340 0.32340 -0.13300
C 	C 	0.43140 0.29770 0.29770 0.38000
C 	C 	0.38890 0.82340 0.82340 -0.11400
C 	C 	0.43140 0.79770 0.79770 0.37500
C 	C 	0.11110 0.32340 0.17660 -0.14900
C 	C 	0.06860 0.29770 0.20230 0.38200
C 	C 	0.11110 0.82340 0.67660 -0.13200
C 	C 	0.06860 0.79770 0.70230 0.37700
C 	C 	0.61110 0.32340 0.67660 -0.12900
C 	C 	0.56860 0.29770 0.70230 0.37800
C 	C 	0.88890 0.67660 0.17660 -0.12100
C 	C 	0.93140 0.70230 0.20230 0.37200
C 	C 	0.38890 0.67660 0.67660 -0.12800
C 	C 	0.43140 0.70230 0.70230 0.37700
C 	C 	0.11110 0.67660 0.82340 -0.13200
C 	C 	0.06860 0.70230 0.79770 0.37700
C 	C 	0.61110 0.67660 0.32340 -0.12900
C 	C 	0.56860 0.70230 0.29770 0.37800
C 	C 	0.88890 0.82340 0.67660 -0.10600
C 	C 	0.93140 0.79770 0.70230 0.36900
C 	C 	0.38890 0.82340 0.17660 -0.12900
C 	C 	0.43140 0.79770 0.20230 0.37800
C 	C 	0.11110 0.17660 0.67660 -0.14600
C 	C 	0.06860 0.20230 0.70230 0.38000
C 	C 	0.61110 0.17660 0.17660 -0.14300
C 	C 	0.56860 0.20230 0.20230 0.38100
C 	C 	0.61110 0.67660 0.67660 -0.12700
C 	C 	0.56860 0.70230 0.70230 0.37700
C 	C 	0.88890 0.17660 0.32340 -0.12300
C 	C 	0.93140 0.20230 0.29770 0.37300
C 	C 	0.88890 0.67660 0.82340 -0.10600
C 	C 	0.93140 0.70230 0.79770 0.36900
C 	C 	0.38890 0.17660 0.82340 -0.12900
C 	C 	0.43140 0.20230 0.79770 0.37800
C 	C 	0.11110 0.82340 0.32340 -0.13400
C 	C 	0.06860 0.79770 0.29770 0.37900
C 	C 	0.61110 0.82340 0.82340 -0.11300
C 	C 	0.56860 0.79770 0.79770 0.37500
C 	C 	0.82340 0.32340 0.11110 -0.13400
C 	C 	0.79770 0.29770 0.06860 0.37900
C 	C 	0.82340 0.82340 0.61110 -0.11300
C 	C 	0.79770 0.79770 0.56860 0.37500
C 	C 	0.17660 0.32340 0.88890 -0.12300
C 	C 	0.20230 0.29770 0.93140 0.37300
C 	C 	0.17660 0.82340 0.38890 -0.12900
C 	C 	0.20230 0.79770 0.43140 0.37800
C 	C 	0.67660 0.82340 0.88890 -0.10600
C 	C 	0.70230 0.79770 0.93140 0.36900
C 	C 	0.17660 0.67660 0.11110 -0.14600
C 	C 	0.20230 0.70230 0.06860 0.38000
C 	C 	0.17660 0.17660 0.61110 -0.14300
C 	C 	0.20230 0.20230 0.56860 0.38100
C 	C 	0.67660 0.67660 0.61110 -0.12700
C 	C 	0.70230 0.70230 0.56860 0.37700
C 	C 	0.82340 0.67660 0.88890 -0.10600
C 	C 	0.79770 0.70230 0.93140 0.36900
C 	C 	0.82340 0.17660 0.38890 -0.12900
C 	C 	0.79770 0.20230 0.43140 0.37800
C 	C 	0.32340 0.88890 0.17660 -0.12300
C 	C 	0.29770 0.93140 0.20230 0.37300
C 	C 	0.32340 0.38890 0.67660 -0.13000
C 	C 	0.29770 0.43140 0.70230 0.37900
C 	C 	0.82340 0.88890 0.67660 -0.10600
C 	C 	0.79770 0.93140 0.70230 0.36900
C 	C 	0.32340 0.11110 0.82340 -0.13400
C 	C 	0.29770 0.06860 0.79770 0.37900
C 	C 	0.32340 0.61110 0.32340 -0.13200
C 	C 	0.29770 0.56860 0.29770 0.38000
C 	C 	0.82340 0.61110 0.82340 -0.11300
C 	C 	0.79770 0.56860 0.79770 0.37500
C 	C 	0.67660 0.88890 0.82340 -0.10600
C 	C 	0.70230 0.93140 0.79770 0.36900
C 	C 	0.67660 0.38890 0.32340 -0.13000
C 	C 	0.70230 0.43140 0.29770 0.37900
C 	C 	0.67660 0.11110 0.17660 -0.14600
C 	C 	0.70230 0.06860 0.20230 0.38000
C 	C 	0.67660 0.61110 0.67660 -0.12700
C 	C 	0.70230 0.56860 0.70230 0.37700
C 	C 	0.17660 0.11110 0.67660 -0.14600
C 	C 	0.20230 0.06860 0.70230 0.38000
C 	C 	0.17660 0.61110 0.17660 -0.14300
C 	C 	0.20230 0.56860 0.20230 0.38100
C 	C 	0.82340 0.38890 0.17660 -0.12900
C 	C 	0.79770 0.43140 0.20230 0.37800
C 	C 	0.82340 0.11110 0.32340 -0.13400
C 	C 	0.79770 0.06860 0.29770 0.37900
C 	C 	0.17660 0.88890 0.32340 -0.12300
C 	C 	0.20230 0.93140 0.29770 0.37300
C 	C 	0.17660 0.38890 0.82340 -0.12900
C 	C 	0.20230 0.43140 0.79770 0.37800
C 	C 	0.67660 0.17660 0.11110 -0.14600
C 	C 	0.70230 0.20230 0.06860 0.38000
C 	C 	0.67660 0.32340 0.38890 -0.13000
C 	C 	0.70230 0.29770 0.43140 0.37900
C 	C 	0.32340 0.82340 0.11110 -0.13400
C 	C 	0.29770 0.79770 0.06860 0.37900
C 	C 	0.32340 0.32340 0.61110 -0.13200
C 	C 	0.29770 0.29770 0.56860 0.38000
C 	C 	0.32340 0.17660 0.88890 -0.12300
C 	C 	0.29770 0.20230 0.93140 0.37300
C 	C 	0.32340 0.67660 0.38890 -0.13000
C 	C 	0.29770 0.70230 0.43140 0.37900
C 	C 	0.11110 0.67660 0.17660 -0.14600
C 	C 	0.06860 0.70230 0.20230 0.38000
C 	C 	0.38890 0.67660 0.32340 -0.13000
C 	C 	0.43140 0.70230 0.29770 0.37900
C 	C 	0.11110 0.32340 0.82340 -0.13400
C 	C 	0.06860 0.29770 0.79770 0.37900
C 	C 	0.61110 0.32340 0.32340 -0.13200
C 	C 	0.56860 0.29770 0.29770 0.38000
C 	C 	0.88890 0.32340 0.17660 -0.12300
C 	C 	0.93140 0.29770 0.20230 0.37300
C 	C 	0.38890 0.32340 0.67660 -0.13000
C 	C 	0.43140 0.29770 0.70230 0.37900
C 	C 	0.11110 0.17660 0.32340 -0.14900
C 	C 	0.06860 0.20230 0.29770 0.38200
C 	C 	0.61110 0.17660 0.82340 -0.12800
C 	C 	0.56860 0.20230 0.79770 0.37800
C 	C 	0.88890 0.82340 0.32340 -0.10900
C 	C 	0.93140 0.79770 0.29770 0.37000
C 	C 	0.61110 0.82340 0.17660 -0.12800
C 	C 	0.56860 0.79770 0.20230 0.37800
C 	C 	0.88890 0.17660 0.67660 -0.12100
C 	C 	0.93140 0.20230 0.70230 0.37200
C 	C 	0.38890 0.17660 0.17660 -0.14400
C 	C 	0.43140 0.20230 0.20230 0.38100
C 	C 	0.17660 0.67660 0.88890 -0.12100
C 	C 	0.20230 0.70230 0.93140 0.37200
C 	C 	0.17660 0.17660 0.38890 -0.14400
C 	C 	0.20230 0.20230 0.43140 0.38100
C 	C 	0.82340 0.17660 0.61110 -0.12800
C 	C 	0.79770 0.20230 0.56860 0.37800
C 	C 	0.82340 0.32340 0.88890 -0.10900
C 	C 	0.79770 0.29770 0.93140 0.37000
C 	C 	0.17660 0.32340 0.11110 -0.14900
C 	C 	0.20230 0.29770 0.06860 0.38200
C 	C 	0.17660 0.82340 0.61110 -0.12800
C 	C 	0.20230 0.79770 0.56860 0.37800
C 	C 	0.67660 0.61110 0.32340 -0.12900
C 	C 	0.70230 0.56860 0.29770 0.37800
C 	C 	0.67660 0.88890 0.17660 -0.12100
C 	C 	0.70230 0.93140 0.20230 0.37200
C 	C 	0.32340 0.11110 0.17660 -0.14900
C 	C 	0.29770 0.06860 0.20230 0.38200
C 	C 	0.32340 0.61110 0.67660 -0.12900
C 	C 	0.29770 0.56860 0.70230 0.37800
C 	C 	0.32340 0.88890 0.82340 -0.10900
C 	C 	0.29770 0.93140 0.79770 0.37000
C 	C 	0.32340 0.38890 0.32340 -0.13300
C 	C 	0.29770 0.43140 0.29770 0.38000
C 	C 	0.80240 0.86720 0.36720 0.06300
H 	H 	0.77410 0.88210 0.38210 0.05000
C 	C 	0.30240 0.86720 0.86720 0.06200
H 	H 	0.27410 0.88210 0.88210 0.05500
C 	C 	0.19760 0.13280 0.36720 0.08000
H 	H 	0.22590 0.11790 0.38210 0.02900
C 	C 	0.19760 0.63280 0.86720 0.06900
H 	H 	0.22590 0.61790 0.88210 0.04600
C 	C 	0.69760 0.13280 0.86720 0.06900
H 	H 	0.72590 0.11790 0.88210 0.04300
C 	C 	0.19760 0.86720 0.63280 0.06900
H 	H 	0.22590 0.88210 0.61790 0.04600
C 	C 	0.69760 0.86720 0.13280 0.06900
H 	H 	0.72590 0.88210 0.11790 0.04300
C 	C 	0.80240 0.13280 0.63280 0.07200
H 	H 	0.77410 0.11790 0.61790 0.03500
C 	C 	0.30240 0.13280 0.13280 0.08100
H 	H 	0.27410 0.11790 0.11790 0.02300
C 	C 	0.30240 0.63280 0.63280 0.07200
H 	H 	0.27410 0.61790 0.61790 0.03800
C 	C 	0.36720 0.80240 0.86720 0.06300
H 	H 	0.38210 0.77410 0.88210 0.05000
C 	C 	0.36720 0.30240 0.36720 0.07500
H 	H 	0.38210 0.27410 0.38210 0.03700
C 	C 	0.86720 0.30240 0.86720 0.06200
H 	H 	0.88210 0.27410 0.88210 0.05500
C 	C 	0.36720 0.19760 0.13280 0.08000
H 	H 	0.38210 0.22590 0.11790 0.02900
C 	C 	0.36720 0.69760 0.63280 0.07100
H 	H 	0.38210 0.72590 0.61790 0.04100
C 	C 	0.86720 0.19760 0.63280 0.06900
H 	H 	0.88210 0.22590 0.61790 0.04600
C 	C 	0.63280 0.19760 0.86720 0.06900
H 	H 	0.61790 0.22590 0.88210 0.04600
C 	C 	0.63280 0.69760 0.36720 0.07100
H 	H 	0.61790 0.72590 0.38210 0.04100
C 	C 	0.63280 0.80240 0.13280 0.07200
H 	H 	0.61790 0.77410 0.11790 0.03500
C 	C 	0.63280 0.30240 0.63280 0.07200
H 	H 	0.61790 0.27410 0.61790 0.03800
C 	C 	0.86720 0.36720 0.80240 0.06300
H 	H 	0.88210 0.38210 0.77410 0.05000
C 	C 	0.86720 0.86720 0.30240 0.06200
H 	H 	0.88210 0.88210 0.27410 0.05500
C 	C 	0.13280 0.36720 0.19760 0.08000
H 	H 	0.11790 0.38210 0.22590 0.02900
C 	C 	0.13280 0.86720 0.69760 0.06900
H 	H 	0.11790 0.88210 0.72590 0.04300
C 	C 	0.63280 0.86720 0.19760 0.06900
H 	H 	0.61790 0.88210 0.22590 0.04600
C 	C 	0.86720 0.63280 0.19760 0.06900
H 	H 	0.88210 0.61790 0.22590 0.04600
C 	C 	0.86720 0.13280 0.69760 0.06900
H 	H 	0.88210 0.11790 0.72590 0.04300
C 	C 	0.13280 0.63280 0.80240 0.07200
H 	H 	0.11790 0.61790 0.77410 0.03500
C 	C 	0.13280 0.13280 0.30240 0.08100
H 	H 	0.11790 0.11790 0.27410 0.02300
C 	C 	0.63280 0.63280 0.30240 0.07200
H 	H 	0.61790 0.61790 0.27410 0.03800
C 	C 	0.86720 0.80240 0.63280 0.06200
H 	H 	0.88210 0.77410 0.61790 0.05100
C 	C 	0.86720 0.30240 0.13280 0.07200
H 	H 	0.88210 0.27410 0.11790 0.03900
C 	C 	0.13280 0.19760 0.63280 0.07900
H 	H 	0.11790 0.22590 0.61790 0.03000
C 	C 	0.13280 0.69760 0.13280 0.07900
H 	H 	0.11790 0.72590 0.11790 0.02700
C 	C 	0.63280 0.69760 0.63280 0.07000
H 	H 	0.61790 0.72590 0.61790 0.04200
C 	C 	0.86720 0.19760 0.36720 0.07000
H 	H 	0.88210 0.22590 0.38210 0.04600
C 	C 	0.86720 0.69760 0.86720 0.05900
H 	H 	0.88210 0.72590 0.88210 0.05900
C 	C 	0.13280 0.80240 0.36720 0.07300
H 	H 	0.11790 0.77410 0.38210 0.03400
C 	C 	0.13280 0.30240 0.86720 0.07200
H 	H 	0.11790 0.27410 0.88210 0.03900
C 	C 	0.63280 0.80240 0.86720 0.06200
H 	H 	0.61790 0.77410 0.88210 0.05100
C 	C 	0.80240 0.36720 0.13280 0.07300
H 	H 	0.77410 0.38210 0.11790 0.03400
C 	C 	0.80240 0.86720 0.63280 0.06200
H 	H 	0.77410 0.88210 0.61790 0.05100
C 	C 	0.30240 0.36720 0.63280 0.07400
H 	H 	0.27410 0.38210 0.61790 0.03700
C 	C 	0.19760 0.36720 0.86720 0.07000
H 	H 	0.22590 0.38210 0.88210 0.04600
C 	C 	0.69760 0.36720 0.36720 0.07300
H 	H 	0.72590 0.38210 0.38210 0.04100
C 	C 	0.69760 0.86720 0.86720 0.05900
H 	H 	0.72590 0.88210 0.88210 0.05900
C 	C 	0.19760 0.63280 0.13280 0.07900
H 	H 	0.22590 0.61790 0.11790 0.03000
C 	C 	0.69760 0.63280 0.63280 0.07000
H 	H 	0.72590 0.61790 0.61790 0.04200
C 	C 	0.80240 0.63280 0.86720 0.06200
H 	H 	0.77410 0.61790 0.88210 0.05100
C 	C 	0.30240 0.63280 0.36720 0.07400
H 	H 	0.27410 0.61790 0.38210 0.03700
C 	C 	0.36720 0.86720 0.19760 0.07000
H 	H 	0.38210 0.88210 0.22590 0.04600
C 	C 	0.36720 0.36720 0.69760 0.07300
H 	H 	0.38210 0.38210 0.72590 0.04100
C 	C 	0.86720 0.86720 0.69760 0.05900
H 	H 	0.88210 0.88210 0.72590 0.05900
C 	C 	0.36720 0.13280 0.80240 0.07300
H 	H 	0.38210 0.11790 0.77410 0.03400
C 	C 	0.36720 0.63280 0.30240 0.07400
H 	H 	0.38210 0.61790 0.27410 0.03700
C 	C 	0.86720 0.63280 0.80240 0.06200
H 	H 	0.88210 0.61790 0.77410 0.05100
C 	C 	0.63280 0.86720 0.80240 0.06200
H 	H 	0.61790 0.88210 0.77410 0.05100
C 	C 	0.63280 0.36720 0.30240 0.07400
H 	H 	0.61790 0.38210 0.27410 0.03700
C 	C 	0.63280 0.13280 0.19760 0.07900
H 	H 	0.61790 0.11790 0.22590 0.03000
C 	C 	0.63280 0.63280 0.69760 0.07000
H 	H 	0.61790 0.61790 0.72590 0.04200
C 	C 	0.19760 0.13280 0.63280 0.07900
H 	H 	0.22590 0.11790 0.61790 0.03000
C 	C 	0.69760 0.13280 0.13280 0.07900
H 	H 	0.72590 0.11790 0.11790 0.02700
C 	C 	0.30240 0.86720 0.13280 0.07200
H 	H 	0.27410 0.88210 0.11790 0.03900
C 	C 	0.80240 0.13280 0.36720 0.07300
H 	H 	0.77410 0.11790 0.38210 0.03400
C 	C 	0.30240 0.13280 0.86720 0.07200
H 	H 	0.27410 0.11790 0.88210 0.03900
C 	C 	0.19760 0.86720 0.36720 0.07000
H 	H 	0.22590 0.88210 0.38210 0.04600
C 	C 	0.63280 0.19760 0.13280 0.07900
H 	H 	0.61790 0.22590 0.11790 0.03000
C 	C 	0.63280 0.30240 0.36720 0.07400
H 	H 	0.61790 0.27410 0.38210 0.03700
C 	C 	0.36720 0.80240 0.13280 0.07300
H 	H 	0.38210 0.77410 0.11790 0.03400
C 	C 	0.36720 0.30240 0.63280 0.07400
H 	H 	0.38210 0.27410 0.61790 0.03700
C 	C 	0.36720 0.19760 0.86720 0.07000
H 	H 	0.38210 0.22590 0.88210 0.04600
C 	C 	0.36720 0.69760 0.36720 0.07300
H 	H 	0.38210 0.72590 0.38210 0.04100
C 	C 	0.13280 0.63280 0.19760 0.07900
H 	H 	0.11790 0.61790 0.22590 0.03000
C 	C 	0.13280 0.13280 0.69760 0.07900
H 	H 	0.11790 0.11790 0.72590 0.02700
C 	C 	0.86720 0.13280 0.30240 0.07200
H 	H 	0.88210 0.11790 0.27410 0.03900
C 	C 	0.13280 0.36720 0.80240 0.07300
H 	H 	0.11790 0.38210 0.77410 0.03400
C 	C 	0.13280 0.86720 0.30240 0.07200
H 	H 	0.11790 0.88210 0.27410 0.03900
C 	C 	0.86720 0.36720 0.19760 0.07000
H 	H 	0.88210 0.38210 0.22590 0.04600
C 	C 	0.13280 0.19760 0.36720 0.08000
H 	H 	0.11790 0.22590 0.38210 0.02900
C 	C 	0.13280 0.69760 0.86720 0.06900
H 	H 	0.11790 0.72590 0.88210 0.04300
C 	C 	0.86720 0.80240 0.36720 0.06300
H 	H 	0.88210 0.77410 0.38210 0.05000
C 	C 	0.13280 0.80240 0.63280 0.07200
H 	H 	0.11790 0.77410 0.61790 0.03500
C 	C 	0.13280 0.30240 0.13280 0.08100
H 	H 	0.11790 0.27410 0.11790 0.02300
C 	C 	0.86720 0.69760 0.13280 0.06900
H 	H 	0.88210 0.72590 0.11790 0.04300
C 	C 	0.69760 0.63280 0.36720 0.07100
H 	H 	0.72590 0.61790 0.38210 0.04100
C 	C 	0.80240 0.63280 0.13280 0.07200
H 	H 	0.77410 0.61790 0.11790 0.03500
C 	C 	0.80240 0.36720 0.86720 0.06300
H 	H 	0.77410 0.38210 0.88210 0.05000
C 	C 	0.30240 0.36720 0.36720 0.07500
H 	H 	0.27410 0.38210 0.38210 0.03700
C 	C 	0.19760 0.36720 0.13280 0.08000
H 	H 	0.22590 0.38210 0.11790 0.02900
C 	C 	0.69760 0.36720 0.63280 0.07100
H 	H 	0.72590 0.38210 0.61790 0.04100
C 	C 	0.63280 0.13280 0.80240 0.07200
H 	H 	0.61790 0.11790 0.77410 0.03500
C 	C 	0.63280 0.36720 0.69760 0.07100
H 	H 	0.61790 0.38210 0.72590 0.04100
C 	C 	0.36720 0.13280 0.19760 0.08000
H 	H 	0.38210 0.11790 0.22590 0.02900
C 	C 	0.36720 0.63280 0.69760 0.07100
H 	H 	0.38210 0.61790 0.72590 0.04100
C 	C 	0.36720 0.86720 0.80240 0.06300
H 	H 	0.38210 0.88210 0.77410 0.05000
C 	C 	0.36720 0.36720 0.30240 0.07500
H 	H 	0.38210 0.38210 0.27410 0.03700
Cu	Cu	0.71460 0.00000 0.28540 0.87800
Cu	Cu	0.71460 0.50000 0.78540 0.90900
Cu	Cu	0.21460 0.00000 0.78540 0.87800
Cu	Cu	0.21460 0.50000 0.28540 0.90500
Cu	Cu	0.28540 0.00000 0.28540 0.87800
Cu	Cu	0.28540 0.50000 0.78540 0.90900
Cu	Cu	0.78540 0.00000 0.78540 0.88100
Cu	Cu	0.78540 0.50000 0.28540 0.90900
Cu	Cu	0.28540 0.00000 0.71460 0.87800
Cu	Cu	0.28540 0.50000 0.21460 0.90500
Cu	Cu	0.78540 0.00000 0.21460 0.87800
Cu	Cu	0.78540 0.50000 0.71460 0.90900
Cu	Cu	0.71460 0.00000 0.71460 0.87800
Cu	Cu	0.71460 0.50000 0.21460 0.90500
Cu	Cu	0.21460 0.00000 0.21460 0.87500
Cu	Cu	0.21460 0.50000 0.71460 0.90500
Cu	Cu	0.28540 0.71460 -0.00000 0.87800
Cu	Cu	0.28540 0.21460 0.50000 0.90500
Cu	Cu	0.78540 0.71460 0.50000 0.90900
Cu	Cu	0.78540 0.21460 -0.00000 0.87800
Cu	Cu	0.28540 0.28540 -0.00000 0.87800
Cu	Cu	0.28540 0.78540 0.50000 0.90900
Cu	Cu	0.78540 0.28540 0.50000 0.90900
Cu	Cu	0.78540 0.78540 -0.00000 0.88100
Cu	Cu	0.71460 0.28540 -0.00000 0.87800
Cu	Cu	0.71460 0.78540 0.50000 0.90900
Cu	Cu	0.21460 0.28540 0.50000 0.90500
Cu	Cu	0.21460 0.78540 -0.00000 0.87800
Cu	Cu	0.71460 0.71460 -0.00000 0.87800
Cu	Cu	0.71460 0.21460 0.50000 0.90500
Cu	Cu	0.21460 0.71460 0.50000 0.90500
Cu	Cu	0.21460 0.21460 -0.00000 0.87500
Cu	Cu	0.00000 0.28540 0.71460 0.87800
Cu	Cu	0.00000 0.78540 0.21460 0.87800
Cu	Cu	0.50000 0.28540 0.21460 0.90500
Cu	Cu	0.50000 0.78540 0.71460 0.90900
Cu	Cu	0.00000 0.28540 0.28540 0.87800
Cu	Cu	0.00000 0.78540 0.78540 0.88100
Cu	Cu	0.50000 0.28540 0.78540 0.90900
Cu	Cu	0.50000 0.78540 0.28540 0.90900
Cu	Cu	0.00000 0.71460 0.28540 0.87800
Cu	Cu	0.00000 0.21460 0.78540 0.87800
Cu	Cu	0.50000 0.71460 0.78540 0.90900
Cu	Cu	0.50000 0.21460 0.28540 0.90500
Cu	Cu	0.00000 0.71460 0.71460 0.87800
Cu	Cu	0.00000 0.21460 0.21460 0.87500
Cu	Cu	0.50000 0.71460 0.21460 0.90500
Cu	Cu	0.50000 0.21460 0.71460 0.90500
