data_crystal

_cell_length_a 45.30670
_cell_length_b 45.30670
_cell_length_c 45.30670
_cell_angle_alpha 60.00000
_cell_angle_beta  60.00000
_cell_angle_gamma 60.00000

_symmetry_space_group_name_	'P 1'
_symmetry_space_group_name_H-M	'P 1'

loop_
_symmetry_equiv_pos_as_xyz
  x,y,z

loop_
_atom_site_label
_atom_site_type_symbol
_atom_site_fract_x
_atom_site_fract_y
_atom_site_fract_z
_atom_site_charge
C 	C 	0.06058 0.29344 0.68630 0.05900
H 	H 	0.03970 0.31430 0.68770 -0.00100
C 	C 	0.09260 0.29806 0.66044 -0.09800
H 	H 	0.09360 0.32160 0.64460 0.06400
C 	C 	0.12404 0.26774 0.65752 0.00200
H 	H 	0.14650 0.27010 0.63950 0.03800
C 	C 	0.12086 0.23410 0.68226 -0.04500
C 	C 	0.08719 0.23221 0.70773 0.03300
H 	H 	0.08540 0.20920 0.72460 0.01300
C 	C 	0.22878 0.96166 0.83598 0.09100
C 	C 	0.20598 0.07476 0.73466 0.03100
H 	H 	0.22520 0.07520 0.71240 0.01500
C 	C 	0.17795 0.10685 0.73785 -0.04600
C 	C 	0.14931 0.10615 0.77093 0.00400
H 	H 	0.12940 0.12760 0.77380 0.03700
C 	C 	0.15085 0.07371 0.79901 -0.09800
H 	H 	0.13230 0.07230 0.82190 0.06300
C 	C 	0.18006 0.04286 0.79336 0.05800
H 	H 	0.18070 0.02070 0.81290 -0.00300
C 	C 	0.17751 0.14029 0.70609 0.13100
C 	C 	0.20265 0.16815 0.64671 0.13100
C 	C 	0.15130 0.20000 0.68024 0.13000
C 	C 	0.23056 0.16620 0.61142 -0.04900
C 	C 	0.25958 0.13442 0.60752 0.00400
H 	H 	0.26230 0.11310 0.62790 0.03800
C 	C 	0.28417 0.13469 0.57351 -0.09400
H 	H 	0.30420 0.11360 0.57000 0.06300
C 	C 	0.27927 0.16669 0.54395 0.05200
H 	H 	0.29640 0.16660 0.52060 0.00300
C 	C 	0.22792 0.19660 0.58036 0.03800
H 	H 	0.20820 0.21800 0.58300 0.01200
C 	C 	0.20374 0.29754 0.55284 0.10400
C 	C 	0.29618 0.23834 0.53848 0.05100
H 	H 	0.27400 0.24020 0.55800 0.00300
C 	C 	0.32631 0.23073 0.54423 -0.09300
H 	H 	0.32500 0.22740 0.56720 0.06400
C 	C 	0.35948 0.22790 0.51574 -0.00100
H 	H 	0.38100 0.22240 0.51900 0.04000
C 	C 	0.35970 0.23356 0.48240 -0.04500
C 	C 	0.32788 0.24094 0.47880 0.03200
H 	H 	0.32850 0.24430 0.45610 0.01400
C 	C 	0.39349 0.23249 0.45083 0.12900
N 	N 	0.24443 0.96985 0.80469 -0.25800
N 	N 	0.05716 0.26114 0.70960 -0.22400
N 	N 	0.20700 0.04290 0.76206 -0.22500
N 	N 	0.15022 0.17072 0.71004 -0.15000
N 	N 	0.17730 0.20038 0.64774 -0.15000
N 	N 	0.20462 0.13724 0.67498 -0.15000
N 	N 	0.25152 0.19724 0.54732 -0.22700
N 	N 	0.21814 0.27938 0.53550 -0.26400
N 	N 	0.29595 0.24355 0.50623 -0.22500
N 	N 	0.42129 0.23233 0.45357 -0.15100
S 	S 	0.20506 0.95100 0.87861 -0.06000
S 	S 	0.18323 0.32331 0.57723 -0.06200
C 	C 	0.29344 0.06058 0.45968 0.05900
H 	H 	0.31430 0.03970 0.45830 -0.00100
C 	C 	0.29806 0.09260 0.44890 -0.09800
H 	H 	0.32160 0.09360 0.44020 0.06400
C 	C 	0.26774 0.12404 0.45070 0.00200
H 	H 	0.27010 0.14650 0.44390 0.03800
C 	C 	0.23410 0.12086 0.46278 -0.04500
C 	C 	0.23221 0.08719 0.47287 0.03300
H 	H 	0.20920 0.08540 0.48080 0.01300
C 	C 	0.96166 0.22878 0.47358 0.09100
C 	C 	0.07476 0.20598 0.48460 0.03100
H 	H 	0.07520 0.22520 0.48720 0.01500
C 	C 	0.10685 0.17795 0.47735 -0.04600
C 	C 	0.10615 0.14931 0.47361 0.00400
H 	H 	0.12760 0.12940 0.46920 0.03700
C 	C 	0.07371 0.15085 0.47643 -0.09800
H 	H 	0.07230 0.13230 0.47350 0.06300
C 	C 	0.04286 0.18006 0.48372 0.05800
H 	H 	0.02070 0.18070 0.48570 -0.00200
C 	C 	0.14029 0.17751 0.47611 0.13200
C 	C 	0.16815 0.20265 0.48249 0.13200
C 	C 	0.20000 0.15130 0.46846 0.13100
C 	C 	0.16620 0.23056 0.49182 -0.04800
C 	C 	0.13442 0.25958 0.49848 0.00500
H 	H 	0.11310 0.26230 0.49670 0.03900
C 	C 	0.13469 0.28417 0.50763 -0.09300
H 	H 	0.11360 0.30420 0.51220 0.06400
C 	C 	0.16669 0.27927 0.51009 0.05300
H 	H 	0.16660 0.29640 0.51640 0.00400
C 	C 	0.19660 0.22792 0.49512 0.03900
H 	H 	0.21800 0.20820 0.49080 0.01300
C 	C 	0.29754 0.20374 0.44588 0.10500
C 	C 	0.23834 0.29618 0.42700 0.05200
H 	H 	0.24020 0.27400 0.42780 0.00400
C 	C 	0.23073 0.32631 0.39873 -0.09200
H 	H 	0.22740 0.32500 0.38040 0.06500
C 	C 	0.22790 0.35948 0.39688 -0.00000
H 	H 	0.22240 0.38100 0.37760 0.04100
C 	C 	0.23356 0.35970 0.42434 -0.04400
C 	C 	0.24094 0.32788 0.45238 0.03300
H 	H 	0.24430 0.32850 0.47110 0.01500
C 	C 	0.23249 0.39349 0.42319 0.13000
N 	N 	0.96985 0.24443 0.48103 -0.25700
N 	N 	0.26114 0.05716 0.47210 -0.22300
N 	N 	0.04290 0.20700 0.48804 -0.22400
N 	N 	0.17072 0.15022 0.46902 -0.14900
N 	N 	0.20038 0.17730 0.47458 -0.14900
N 	N 	0.13724 0.20462 0.48316 -0.14900
N 	N 	0.19724 0.25152 0.50392 -0.22600
N 	N 	0.27938 0.21814 0.46698 -0.26300
N 	N 	0.24355 0.29595 0.45427 -0.22400
N 	N 	0.23233 0.42129 0.39281 -0.15000
S 	S 	0.95100 0.20506 0.46534 -0.05900
S 	S 	0.32331 0.18323 0.41623 -0.06100
C 	C 	0.68630 0.45968 0.06058 0.06000
H 	H 	0.68770 0.45830 0.03970 -0.00000
C 	C 	0.66044 0.44890 0.09260 -0.09700
H 	H 	0.64460 0.44020 0.09360 0.06500
C 	C 	0.65752 0.45070 0.12404 0.00300
H 	H 	0.63950 0.44390 0.14650 0.03900
C 	C 	0.68226 0.46278 0.12086 -0.04400
C 	C 	0.70773 0.47287 0.08719 0.03400
H 	H 	0.72460 0.48080 0.08540 0.01400
C 	C 	0.83598 0.47358 0.22878 0.09200
C 	C 	0.73466 0.48460 0.20598 0.03200
H 	H 	0.71240 0.48720 0.22520 0.01600
C 	C 	0.73785 0.47735 0.17795 -0.04500
C 	C 	0.77093 0.47361 0.14931 0.00500
H 	H 	0.77380 0.46920 0.12940 0.03800
C 	C 	0.79901 0.47643 0.15085 -0.09700
H 	H 	0.82190 0.47350 0.13230 0.06400
C 	C 	0.79336 0.48372 0.18006 0.05900
H 	H 	0.81290 0.48570 0.18070 -0.00200
C 	C 	0.70609 0.47611 0.17751 0.13200
C 	C 	0.64671 0.48249 0.20265 0.13200
C 	C 	0.68024 0.46846 0.15130 0.13100
C 	C 	0.61142 0.49182 0.23056 -0.04800
C 	C 	0.60752 0.49848 0.25958 0.00500
H 	H 	0.62790 0.49670 0.26230 0.03900
C 	C 	0.57351 0.50763 0.28417 -0.09300
H 	H 	0.57000 0.51220 0.30420 0.06400
C 	C 	0.54395 0.51009 0.27927 0.05300
H 	H 	0.52060 0.51640 0.29640 0.00400
C 	C 	0.58036 0.49512 0.22792 0.03900
H 	H 	0.58300 0.49080 0.20820 0.01300
C 	C 	0.55284 0.44588 0.20374 0.10500
C 	C 	0.53848 0.42700 0.29618 0.05200
H 	H 	0.55800 0.42780 0.27400 0.00400
C 	C 	0.54423 0.39873 0.32631 -0.09200
H 	H 	0.56720 0.38040 0.32500 0.06500
C 	C 	0.51574 0.39688 0.35948 -0.00000
H 	H 	0.51900 0.37760 0.38100 0.04100
C 	C 	0.48240 0.42434 0.35970 -0.04400
C 	C 	0.47880 0.45238 0.32788 0.03300
H 	H 	0.45610 0.47110 0.32850 0.01500
C 	C 	0.45083 0.42319 0.39349 0.13000
N 	N 	0.80469 0.48103 0.24443 -0.25700
N 	N 	0.70960 0.47210 0.05716 -0.22300
N 	N 	0.76206 0.48804 0.20700 -0.22400
N 	N 	0.71004 0.46902 0.15022 -0.14900
N 	N 	0.64774 0.47458 0.17730 -0.14900
N 	N 	0.67498 0.48316 0.20462 -0.14900
N 	N 	0.54732 0.50392 0.25152 -0.22600
N 	N 	0.53550 0.46698 0.21814 -0.26300
N 	N 	0.50623 0.45427 0.29595 -0.22400
N 	N 	0.45357 0.39281 0.42129 -0.15000
S 	S 	0.87861 0.46534 0.20506 -0.05900
S 	S 	0.57723 0.41623 0.18323 -0.06100
C 	C 	0.45968 0.68630 0.29344 0.06000
H 	H 	0.45830 0.68770 0.31430 -0.00000
C 	C 	0.44890 0.66044 0.29806 -0.09700
H 	H 	0.44020 0.64460 0.32160 0.06400
C 	C 	0.45070 0.65752 0.26774 0.00300
H 	H 	0.44390 0.63950 0.27010 0.03900
C 	C 	0.46278 0.68226 0.23410 -0.04400
C 	C 	0.47287 0.70773 0.23221 0.03400
H 	H 	0.48080 0.72460 0.20920 0.01400
C 	C 	0.47358 0.83598 0.96166 0.09200
C 	C 	0.48460 0.73466 0.07476 0.03200
H 	H 	0.48720 0.71240 0.07520 0.01600
C 	C 	0.47735 0.73785 0.10685 -0.04500
C 	C 	0.47361 0.77093 0.10615 0.00500
H 	H 	0.46920 0.77380 0.12760 0.03800
C 	C 	0.47643 0.79901 0.07371 -0.09700
H 	H 	0.47350 0.82190 0.07230 0.06400
C 	C 	0.48372 0.79336 0.04286 0.05900
H 	H 	0.48570 0.81290 0.02070 -0.00200
C 	C 	0.47611 0.70609 0.14029 0.13200
C 	C 	0.48249 0.64671 0.16815 0.13200
C 	C 	0.46846 0.68024 0.20000 0.13100
C 	C 	0.49182 0.61142 0.16620 -0.04800
C 	C 	0.49848 0.60752 0.13442 0.00500
H 	H 	0.49670 0.62790 0.11310 0.03900
C 	C 	0.50763 0.57351 0.13469 -0.09300
H 	H 	0.51220 0.57000 0.11360 0.06400
C 	C 	0.51009 0.54395 0.16669 0.05300
H 	H 	0.51640 0.52060 0.16660 0.00400
C 	C 	0.49512 0.58036 0.19660 0.03900
H 	H 	0.49080 0.58300 0.21800 0.01300
C 	C 	0.44588 0.55284 0.29754 0.10500
C 	C 	0.42700 0.53848 0.23834 0.05200
H 	H 	0.42780 0.55800 0.24020 0.00400
C 	C 	0.39873 0.54423 0.23073 -0.09200
H 	H 	0.38040 0.56720 0.22740 0.06500
C 	C 	0.39688 0.51574 0.22790 -0.00000
H 	H 	0.37760 0.51900 0.22240 0.04100
C 	C 	0.42434 0.48240 0.23356 -0.04400
C 	C 	0.45238 0.47880 0.24094 0.03300
H 	H 	0.47110 0.45610 0.24430 0.01500
C 	C 	0.42319 0.45083 0.23249 0.13000
N 	N 	0.48103 0.80469 0.96985 -0.25700
N 	N 	0.47210 0.70960 0.26114 -0.22300
N 	N 	0.48804 0.76206 0.04290 -0.22400
N 	N 	0.46902 0.71004 0.17072 -0.14900
N 	N 	0.47458 0.64774 0.20038 -0.14900
N 	N 	0.48316 0.67498 0.13724 -0.14900
N 	N 	0.50392 0.54732 0.19724 -0.22600
N 	N 	0.46698 0.53550 0.27938 -0.26300
N 	N 	0.45427 0.50623 0.24355 -0.22400
N 	N 	0.39281 0.45357 0.23233 -0.15000
S 	S 	0.46534 0.87861 0.95100 -0.05900
S 	S 	0.41623 0.57723 0.32331 -0.06100
C 	C 	0.68630 0.06058 0.29344 0.06000
H 	H 	0.68770 0.03970 0.31430 -0.00000
C 	C 	0.66044 0.09260 0.29806 -0.09700
H 	H 	0.64460 0.09360 0.32160 0.06500
C 	C 	0.65752 0.12404 0.26774 0.00300
H 	H 	0.63950 0.14650 0.27010 0.03900
C 	C 	0.68226 0.12086 0.23410 -0.04400
C 	C 	0.70773 0.08719 0.23221 0.03400
H 	H 	0.72460 0.08540 0.20920 0.01400
C 	C 	0.83598 0.22878 0.96166 0.09200
C 	C 	0.73466 0.20598 0.07476 0.03200
H 	H 	0.71240 0.22520 0.07520 0.01600
C 	C 	0.73785 0.17795 0.10685 -0.04500
C 	C 	0.77093 0.14931 0.10615 0.00500
H 	H 	0.77380 0.12940 0.12760 0.03800
C 	C 	0.79901 0.15085 0.07371 -0.09700
H 	H 	0.82190 0.13230 0.07230 0.06400
C 	C 	0.79336 0.18006 0.04286 0.05900
H 	H 	0.81290 0.18070 0.02070 -0.00200
C 	C 	0.70609 0.17751 0.14029 0.13200
C 	C 	0.64671 0.20265 0.16815 0.13200
C 	C 	0.68024 0.15130 0.20000 0.13100
C 	C 	0.61142 0.23056 0.16620 -0.04800
C 	C 	0.60752 0.25958 0.13442 0.00500
H 	H 	0.62790 0.26230 0.11310 0.03900
C 	C 	0.57351 0.28417 0.13469 -0.09300
H 	H 	0.57000 0.30420 0.11360 0.06400
C 	C 	0.54395 0.27927 0.16669 0.05300
H 	H 	0.52060 0.29640 0.16660 0.00400
C 	C 	0.58036 0.22792 0.19660 0.03900
H 	H 	0.58300 0.20820 0.21800 0.01300
C 	C 	0.55284 0.20374 0.29754 0.10500
C 	C 	0.53848 0.29618 0.23834 0.05200
H 	H 	0.55800 0.27400 0.24020 0.00400
C 	C 	0.54423 0.32631 0.23073 -0.09200
H 	H 	0.56720 0.32500 0.22740 0.06500
C 	C 	0.51574 0.35948 0.22790 -0.00000
H 	H 	0.51900 0.38100 0.22240 0.04100
C 	C 	0.48240 0.35970 0.23356 -0.04400
C 	C 	0.47880 0.32788 0.24094 0.03300
H 	H 	0.45610 0.32850 0.24430 0.01500
C 	C 	0.45083 0.39349 0.23249 0.13000
N 	N 	0.80469 0.24443 0.96985 -0.25700
N 	N 	0.70960 0.05716 0.26114 -0.22300
N 	N 	0.76206 0.20700 0.04290 -0.22400
N 	N 	0.71004 0.15022 0.17072 -0.14900
N 	N 	0.64774 0.17730 0.20038 -0.14900
N 	N 	0.67498 0.20462 0.13724 -0.14900
N 	N 	0.54732 0.25152 0.19724 -0.22600
N 	N 	0.53550 0.21814 0.27938 -0.26300
N 	N 	0.50623 0.29595 0.24355 -0.22400
N 	N 	0.45357 0.42129 0.23233 -0.15000
S 	S 	0.87861 0.20506 0.95100 -0.05900
S 	S 	0.57723 0.18323 0.32331 -0.06100
C 	C 	0.45968 0.29344 0.06058 0.06000
H 	H 	0.45830 0.31430 0.03970 -0.00000
C 	C 	0.44890 0.29806 0.09260 -0.09700
H 	H 	0.44020 0.32160 0.09360 0.06500
C 	C 	0.45070 0.26774 0.12404 0.00300
H 	H 	0.44390 0.27010 0.14650 0.03900
C 	C 	0.46278 0.23410 0.12086 -0.04400
C 	C 	0.47287 0.23221 0.08719 0.03400
H 	H 	0.48080 0.20920 0.08540 0.01400
C 	C 	0.47358 0.96166 0.22878 0.09200
C 	C 	0.48460 0.07476 0.20598 0.03200
H 	H 	0.48720 0.07520 0.22520 0.01600
C 	C 	0.47735 0.10685 0.17795 -0.04500
C 	C 	0.47361 0.10615 0.14931 0.00500
H 	H 	0.46920 0.12760 0.12940 0.03800
C 	C 	0.47643 0.07371 0.15085 -0.09700
H 	H 	0.47350 0.07230 0.13230 0.06400
C 	C 	0.48372 0.04286 0.18006 0.05900
H 	H 	0.48570 0.02070 0.18070 -0.00200
C 	C 	0.47611 0.14029 0.17751 0.13200
C 	C 	0.48249 0.16815 0.20265 0.13200
C 	C 	0.46846 0.20000 0.15130 0.13100
C 	C 	0.49182 0.16620 0.23056 -0.04800
C 	C 	0.49848 0.13442 0.25958 0.00500
H 	H 	0.49670 0.11310 0.26230 0.03900
C 	C 	0.50763 0.13469 0.28417 -0.09300
H 	H 	0.51220 0.11360 0.30420 0.06400
C 	C 	0.51009 0.16669 0.27927 0.05300
H 	H 	0.51640 0.16660 0.29640 0.00400
C 	C 	0.49512 0.19660 0.22792 0.03900
H 	H 	0.49080 0.21800 0.20820 0.01300
C 	C 	0.44588 0.29754 0.20374 0.10500
C 	C 	0.42700 0.23834 0.29618 0.05200
H 	H 	0.42780 0.24020 0.27400 0.00400
C 	C 	0.39873 0.23073 0.32631 -0.09200
H 	H 	0.38040 0.22740 0.32500 0.06500
C 	C 	0.39688 0.22790 0.35948 -0.00000
H 	H 	0.37760 0.22240 0.38100 0.04100
C 	C 	0.42434 0.23356 0.35970 -0.04400
C 	C 	0.45238 0.24094 0.32788 0.03300
H 	H 	0.47110 0.24430 0.32850 0.01500
C 	C 	0.42319 0.23249 0.39349 0.13000
N 	N 	0.48103 0.96985 0.24443 -0.25700
N 	N 	0.47210 0.26114 0.05716 -0.22300
N 	N 	0.48804 0.04290 0.20700 -0.22400
N 	N 	0.46902 0.17072 0.15022 -0.14900
N 	N 	0.47458 0.20038 0.17730 -0.14900
N 	N 	0.48316 0.13724 0.20462 -0.14900
N 	N 	0.50392 0.19724 0.25152 -0.22600
N 	N 	0.46698 0.27938 0.21814 -0.26300
N 	N 	0.45427 0.24355 0.29595 -0.22400
N 	N 	0.39281 0.23233 0.42129 -0.15000
S 	S 	0.46534 0.95100 0.20506 -0.05900
S 	S 	0.41623 0.32331 0.18323 -0.06100
C 	C 	0.06058 0.68630 0.45968 0.06000
H 	H 	0.03970 0.68770 0.45830 -0.00000
C 	C 	0.09260 0.66044 0.44890 -0.09700
H 	H 	0.09360 0.64460 0.44020 0.06500
C 	C 	0.12404 0.65752 0.45070 0.00300
H 	H 	0.14650 0.63950 0.44390 0.03900
C 	C 	0.12086 0.68226 0.46278 -0.04400
C 	C 	0.08719 0.70773 0.47287 0.03400
H 	H 	0.08540 0.72460 0.48080 0.01400
C 	C 	0.22878 0.83598 0.47358 0.09200
C 	C 	0.20598 0.73466 0.48460 0.03200
H 	H 	0.22520 0.71240 0.48720 0.01600
C 	C 	0.17795 0.73785 0.47735 -0.04500
C 	C 	0.14931 0.77093 0.47361 0.00500
H 	H 	0.12940 0.77380 0.46920 0.03800
C 	C 	0.15085 0.79901 0.47643 -0.09700
H 	H 	0.13230 0.82190 0.47350 0.06400
C 	C 	0.18006 0.79336 0.48372 0.05900
H 	H 	0.18070 0.81290 0.48570 -0.00200
C 	C 	0.17751 0.70609 0.47611 0.13200
C 	C 	0.20265 0.64671 0.48249 0.13200
C 	C 	0.15130 0.68024 0.46846 0.13100
C 	C 	0.23056 0.61142 0.49182 -0.04800
C 	C 	0.25958 0.60752 0.49848 0.00500
H 	H 	0.26230 0.62790 0.49670 0.03900
C 	C 	0.28417 0.57351 0.50763 -0.09300
H 	H 	0.30420 0.57000 0.51220 0.06400
C 	C 	0.27927 0.54395 0.51009 0.05300
H 	H 	0.29640 0.52060 0.51640 0.00400
C 	C 	0.22792 0.58036 0.49512 0.03900
H 	H 	0.20820 0.58300 0.49080 0.01300
C 	C 	0.20374 0.55284 0.44588 0.10500
C 	C 	0.29618 0.53848 0.42700 0.05200
H 	H 	0.27400 0.55800 0.42780 0.00400
C 	C 	0.32631 0.54423 0.39873 -0.09200
H 	H 	0.32500 0.56720 0.38040 0.06500
C 	C 	0.35948 0.51574 0.39688 -0.00000
H 	H 	0.38100 0.51900 0.37760 0.04100
C 	C 	0.35970 0.48240 0.42434 -0.04400
C 	C 	0.32788 0.47880 0.45238 0.03300
H 	H 	0.32850 0.45610 0.47110 0.01500
C 	C 	0.39349 0.45083 0.42319 0.13000
N 	N 	0.24443 0.80469 0.48103 -0.25700
N 	N 	0.05716 0.70960 0.47210 -0.22300
N 	N 	0.20700 0.76206 0.48804 -0.22400
N 	N 	0.15022 0.71004 0.46902 -0.14900
N 	N 	0.17730 0.64774 0.47458 -0.14900
N 	N 	0.20462 0.67498 0.48316 -0.14900
N 	N 	0.25152 0.54732 0.50392 -0.22600
N 	N 	0.21814 0.53550 0.46698 -0.26300
N 	N 	0.29595 0.50623 0.45427 -0.22400
N 	N 	0.42129 0.45357 0.39281 -0.15000
S 	S 	0.20506 0.87861 0.46534 -0.05900
S 	S 	0.18323 0.57723 0.41623 -0.06100
C 	C 	0.29344 0.45968 0.68630 0.06000
H 	H 	0.31430 0.45830 0.68770 -0.00000
C 	C 	0.29806 0.44890 0.66044 -0.09700
H 	H 	0.32160 0.44020 0.64460 0.06400
C 	C 	0.26774 0.45070 0.65752 0.00300
H 	H 	0.27010 0.44390 0.63950 0.03900
C 	C 	0.23410 0.46278 0.68226 -0.04400
C 	C 	0.23221 0.47287 0.70773 0.03400
H 	H 	0.20920 0.48080 0.72460 0.01400
C 	C 	0.96166 0.47358 0.83598 0.09200
C 	C 	0.07476 0.48460 0.73466 0.03200
H 	H 	0.07520 0.48720 0.71240 0.01600
C 	C 	0.10685 0.47735 0.73785 -0.04500
C 	C 	0.10615 0.47361 0.77093 0.00500
H 	H 	0.12760 0.46920 0.77380 0.03800
C 	C 	0.07371 0.47643 0.79901 -0.09700
H 	H 	0.07230 0.47350 0.82190 0.06400
C 	C 	0.04286 0.48372 0.79336 0.05900
H 	H 	0.02070 0.48570 0.81290 -0.00200
C 	C 	0.14029 0.47611 0.70609 0.13200
C 	C 	0.16815 0.48249 0.64671 0.13200
C 	C 	0.20000 0.46846 0.68024 0.13100
C 	C 	0.16620 0.49182 0.61142 -0.04800
C 	C 	0.13442 0.49848 0.60752 0.00500
H 	H 	0.11310 0.49670 0.62790 0.03900
C 	C 	0.13469 0.50763 0.57351 -0.09300
H 	H 	0.11360 0.51220 0.57000 0.06400
C 	C 	0.16669 0.51009 0.54395 0.05300
H 	H 	0.16660 0.51640 0.52060 0.00400
C 	C 	0.19660 0.49512 0.58036 0.03900
H 	H 	0.21800 0.49080 0.58300 0.01300
C 	C 	0.29754 0.44588 0.55284 0.10500
C 	C 	0.23834 0.42700 0.53848 0.05200
H 	H 	0.24020 0.42780 0.55800 0.00400
C 	C 	0.23073 0.39873 0.54423 -0.09200
H 	H 	0.22740 0.38040 0.56720 0.06500
C 	C 	0.22790 0.39688 0.51574 -0.00000
H 	H 	0.22240 0.37760 0.51900 0.04100
C 	C 	0.23356 0.42434 0.48240 -0.04400
C 	C 	0.24094 0.45238 0.47880 0.03300
H 	H 	0.24430 0.47110 0.45610 0.01500
C 	C 	0.23249 0.42319 0.45083 0.13000
N 	N 	0.96985 0.48103 0.80469 -0.25700
N 	N 	0.26114 0.47210 0.70960 -0.22300
N 	N 	0.04290 0.48804 0.76206 -0.22400
N 	N 	0.17072 0.46902 0.71004 -0.14900
N 	N 	0.20038 0.47458 0.64774 -0.14900
N 	N 	0.13724 0.48316 0.67498 -0.14900
N 	N 	0.19724 0.50392 0.54732 -0.22600
N 	N 	0.27938 0.46698 0.53550 -0.26300
N 	N 	0.24355 0.45427 0.50623 -0.22400
N 	N 	0.23233 0.39281 0.45357 -0.15000
S 	S 	0.95100 0.46534 0.87861 -0.05900
S 	S 	0.32331 0.41623 0.57723 -0.06100
C 	C 	0.29344 0.68630 0.06058 0.06000
H 	H 	0.31430 0.68770 0.03970 -0.00000
C 	C 	0.29806 0.66044 0.09260 -0.09700
H 	H 	0.32160 0.64460 0.09360 0.06500
C 	C 	0.26774 0.65752 0.12404 0.00300
H 	H 	0.27010 0.63950 0.14650 0.03900
C 	C 	0.23410 0.68226 0.12086 -0.04400
C 	C 	0.23221 0.70773 0.08719 0.03400
H 	H 	0.20920 0.72460 0.08540 0.01400
C 	C 	0.96166 0.83598 0.22878 0.09200
C 	C 	0.07476 0.73466 0.20598 0.03200
H 	H 	0.07520 0.71240 0.22520 0.01600
C 	C 	0.10685 0.73785 0.17795 -0.04500
C 	C 	0.10615 0.77093 0.14931 0.00500
H 	H 	0.12760 0.77380 0.12940 0.03800
C 	C 	0.07371 0.79901 0.15085 -0.09700
H 	H 	0.07230 0.82190 0.13230 0.06400
C 	C 	0.04286 0.79336 0.18006 0.05900
H 	H 	0.02070 0.81290 0.18070 -0.00200
C 	C 	0.14029 0.70609 0.17751 0.13200
C 	C 	0.16815 0.64671 0.20265 0.13200
C 	C 	0.20000 0.68024 0.15130 0.13100
C 	C 	0.16620 0.61142 0.23056 -0.04800
C 	C 	0.13442 0.60752 0.25958 0.00500
H 	H 	0.11310 0.62790 0.26230 0.03900
C 	C 	0.13469 0.57351 0.28417 -0.09300
H 	H 	0.11360 0.57000 0.30420 0.06400
C 	C 	0.16669 0.54395 0.27927 0.05300
H 	H 	0.16660 0.52060 0.29640 0.00400
C 	C 	0.19660 0.58036 0.22792 0.03900
H 	H 	0.21800 0.58300 0.20820 0.01300
C 	C 	0.29754 0.55284 0.20374 0.10500
C 	C 	0.23834 0.53848 0.29618 0.05200
H 	H 	0.24020 0.55800 0.27400 0.00400
C 	C 	0.23073 0.54423 0.32631 -0.09200
H 	H 	0.22740 0.56720 0.32500 0.06500
C 	C 	0.22790 0.51574 0.35948 -0.00000
H 	H 	0.22240 0.51900 0.38100 0.04100
C 	C 	0.23356 0.48240 0.35970 -0.04400
C 	C 	0.24094 0.47880 0.32788 0.03300
H 	H 	0.24430 0.45610 0.32850 0.01500
C 	C 	0.23249 0.45083 0.39349 0.13000
N 	N 	0.96985 0.80469 0.24443 -0.25700
N 	N 	0.26114 0.70960 0.05716 -0.22300
N 	N 	0.04290 0.76206 0.20700 -0.22400
N 	N 	0.17072 0.71004 0.15022 -0.14900
N 	N 	0.20038 0.64774 0.17730 -0.14900
N 	N 	0.13724 0.67498 0.20462 -0.14900
N 	N 	0.19724 0.54732 0.25152 -0.22600
N 	N 	0.27938 0.53550 0.21814 -0.26300
N 	N 	0.24355 0.50623 0.29595 -0.22400
N 	N 	0.23233 0.45357 0.42129 -0.15000
S 	S 	0.95100 0.87861 0.20506 -0.05900
S 	S 	0.32331 0.57723 0.18323 -0.06100
C 	C 	0.06058 0.45968 0.29344 0.06000
H 	H 	0.03970 0.45830 0.31430 -0.00000
C 	C 	0.09260 0.44890 0.29806 -0.09700
H 	H 	0.09360 0.44020 0.32160 0.06500
C 	C 	0.12404 0.45070 0.26774 0.00300
H 	H 	0.14650 0.44390 0.27010 0.03900
C 	C 	0.12086 0.46278 0.23410 -0.04400
C 	C 	0.08719 0.47287 0.23221 0.03400
H 	H 	0.08540 0.48080 0.20920 0.01400
C 	C 	0.22878 0.47358 0.96166 0.09200
C 	C 	0.20598 0.48460 0.07476 0.03200
H 	H 	0.22520 0.48720 0.07520 0.01600
C 	C 	0.17795 0.47735 0.10685 -0.04500
C 	C 	0.14931 0.47361 0.10615 0.00500
H 	H 	0.12940 0.46920 0.12760 0.03800
C 	C 	0.15085 0.47643 0.07371 -0.09700
H 	H 	0.13230 0.47350 0.07230 0.06400
C 	C 	0.18006 0.48372 0.04286 0.05900
H 	H 	0.18070 0.48570 0.02070 -0.00200
C 	C 	0.17751 0.47611 0.14029 0.13200
C 	C 	0.20265 0.48249 0.16815 0.13200
C 	C 	0.15130 0.46846 0.20000 0.13100
C 	C 	0.23056 0.49182 0.16620 -0.04800
C 	C 	0.25958 0.49848 0.13442 0.00500
H 	H 	0.26230 0.49670 0.11310 0.03900
C 	C 	0.28417 0.50763 0.13469 -0.09300
H 	H 	0.30420 0.51220 0.11360 0.06400
C 	C 	0.27927 0.51009 0.16669 0.05300
H 	H 	0.29640 0.51640 0.16660 0.00400
C 	C 	0.22792 0.49512 0.19660 0.03900
H 	H 	0.20820 0.49080 0.21800 0.01300
C 	C 	0.20374 0.44588 0.29754 0.10500
C 	C 	0.29618 0.42700 0.23834 0.05200
H 	H 	0.27400 0.42780 0.24020 0.00400
C 	C 	0.32631 0.39873 0.23073 -0.09200
H 	H 	0.32500 0.38040 0.22740 0.06500
C 	C 	0.35948 0.39688 0.22790 -0.00000
H 	H 	0.38100 0.37760 0.22240 0.04100
C 	C 	0.35970 0.42434 0.23356 -0.04400
C 	C 	0.32788 0.45238 0.24094 0.03300
H 	H 	0.32850 0.47110 0.24430 0.01500
C 	C 	0.39349 0.42319 0.23249 0.13000
N 	N 	0.24443 0.48103 0.96985 -0.25700
N 	N 	0.05716 0.47210 0.26114 -0.22300
N 	N 	0.20700 0.48804 0.04290 -0.22400
N 	N 	0.15022 0.46902 0.17072 -0.14900
N 	N 	0.17730 0.47458 0.20038 -0.14900
N 	N 	0.20462 0.48316 0.13724 -0.14900
N 	N 	0.25152 0.50392 0.19724 -0.22600
N 	N 	0.21814 0.46698 0.27938 -0.26300
N 	N 	0.29595 0.45427 0.24355 -0.22400
N 	N 	0.42129 0.39281 0.23233 -0.15000
S 	S 	0.20506 0.46534 0.95100 -0.05900
S 	S 	0.18323 0.41623 0.32331 -0.06100
C 	C 	0.45968 0.06058 0.68630 0.06000
H 	H 	0.45830 0.03970 0.68770 -0.00000
C 	C 	0.44890 0.09260 0.66044 -0.09700
H 	H 	0.44020 0.09360 0.64460 0.06500
C 	C 	0.45070 0.12404 0.65752 0.00300
H 	H 	0.44390 0.14650 0.63950 0.03900
C 	C 	0.46278 0.12086 0.68226 -0.04400
C 	C 	0.47287 0.08719 0.70773 0.03400
H 	H 	0.48080 0.08540 0.72460 0.01400
C 	C 	0.47358 0.22878 0.83598 0.09200
C 	C 	0.48460 0.20598 0.73466 0.03200
H 	H 	0.48720 0.22520 0.71240 0.01600
C 	C 	0.47735 0.17795 0.73785 -0.04500
C 	C 	0.47361 0.14931 0.77093 0.00500
H 	H 	0.46920 0.12940 0.77380 0.03800
C 	C 	0.47643 0.15085 0.79901 -0.09700
H 	H 	0.47350 0.13230 0.82190 0.06400
C 	C 	0.48372 0.18006 0.79336 0.05900
H 	H 	0.48570 0.18070 0.81290 -0.00200
C 	C 	0.47611 0.17751 0.70609 0.13200
C 	C 	0.48249 0.20265 0.64671 0.13200
C 	C 	0.46846 0.15130 0.68024 0.13100
C 	C 	0.49182 0.23056 0.61142 -0.04800
C 	C 	0.49848 0.25958 0.60752 0.00500
H 	H 	0.49670 0.26230 0.62790 0.03900
C 	C 	0.50763 0.28417 0.57351 -0.09300
H 	H 	0.51220 0.30420 0.57000 0.06400
C 	C 	0.51009 0.27927 0.54395 0.05300
H 	H 	0.51640 0.29640 0.52060 0.00400
C 	C 	0.49512 0.22792 0.58036 0.03900
H 	H 	0.49080 0.20820 0.58300 0.01300
C 	C 	0.44588 0.20374 0.55284 0.10500
C 	C 	0.42700 0.29618 0.53848 0.05200
H 	H 	0.42780 0.27400 0.55800 0.00400
C 	C 	0.39873 0.32631 0.54423 -0.09200
H 	H 	0.38040 0.32500 0.56720 0.06500
C 	C 	0.39688 0.35948 0.51574 -0.00000
H 	H 	0.37760 0.38100 0.51900 0.04100
C 	C 	0.42434 0.35970 0.48240 -0.04400
C 	C 	0.45238 0.32788 0.47880 0.03300
H 	H 	0.47110 0.32850 0.45610 0.01500
C 	C 	0.42319 0.39349 0.45083 0.13000
N 	N 	0.48103 0.24443 0.80469 -0.25700
N 	N 	0.47210 0.05716 0.70960 -0.22300
N 	N 	0.48804 0.20700 0.76206 -0.22400
N 	N 	0.46902 0.15022 0.71004 -0.14900
N 	N 	0.47458 0.17730 0.64774 -0.14900
N 	N 	0.48316 0.20462 0.67498 -0.14900
N 	N 	0.50392 0.25152 0.54732 -0.22600
N 	N 	0.46698 0.21814 0.53550 -0.26300
N 	N 	0.45427 0.29595 0.50623 -0.22400
N 	N 	0.39281 0.42129 0.45357 -0.15000
S 	S 	0.46534 0.20506 0.87861 -0.05900
S 	S 	0.41623 0.18323 0.57723 -0.06100
C 	C 	0.68630 0.29344 0.45968 0.06000
H 	H 	0.68770 0.31430 0.45830 -0.00000
C 	C 	0.66044 0.29806 0.44890 -0.09700
H 	H 	0.64460 0.32160 0.44020 0.06400
C 	C 	0.65752 0.26774 0.45070 0.00300
H 	H 	0.63950 0.27010 0.44390 0.03900
C 	C 	0.68226 0.23410 0.46278 -0.04400
C 	C 	0.70773 0.23221 0.47287 0.03400
H 	H 	0.72460 0.20920 0.48080 0.01400
C 	C 	0.83598 0.96166 0.47358 0.09200
C 	C 	0.73466 0.07476 0.48460 0.03200
H 	H 	0.71240 0.07520 0.48720 0.01600
C 	C 	0.73785 0.10685 0.47735 -0.04500
C 	C 	0.77093 0.10615 0.47361 0.00500
H 	H 	0.77380 0.12760 0.46920 0.03800
C 	C 	0.79901 0.07371 0.47643 -0.09700
H 	H 	0.82190 0.07230 0.47350 0.06400
C 	C 	0.79336 0.04286 0.48372 0.05900
H 	H 	0.81290 0.02070 0.48570 -0.00200
C 	C 	0.70609 0.14029 0.47611 0.13200
C 	C 	0.64671 0.16815 0.48249 0.13200
C 	C 	0.68024 0.20000 0.46846 0.13100
C 	C 	0.61142 0.16620 0.49182 -0.04800
C 	C 	0.60752 0.13442 0.49848 0.00500
H 	H 	0.62790 0.11310 0.49670 0.03900
C 	C 	0.57351 0.13469 0.50763 -0.09300
H 	H 	0.57000 0.11360 0.51220 0.06400
C 	C 	0.54395 0.16669 0.51009 0.05300
H 	H 	0.52060 0.16660 0.51640 0.00400
C 	C 	0.58036 0.19660 0.49512 0.03900
H 	H 	0.58300 0.21800 0.49080 0.01300
C 	C 	0.55284 0.29754 0.44588 0.10500
C 	C 	0.53848 0.23834 0.42700 0.05200
H 	H 	0.55800 0.24020 0.42780 0.00400
C 	C 	0.54423 0.23073 0.39873 -0.09200
H 	H 	0.56720 0.22740 0.38040 0.06500
C 	C 	0.51574 0.22790 0.39688 -0.00000
H 	H 	0.51900 0.22240 0.37760 0.04100
C 	C 	0.48240 0.23356 0.42434 -0.04400
C 	C 	0.47880 0.24094 0.45238 0.03300
H 	H 	0.45610 0.24430 0.47110 0.01500
C 	C 	0.45083 0.23249 0.42319 0.13000
N 	N 	0.80469 0.96985 0.48103 -0.25700
N 	N 	0.70960 0.26114 0.47210 -0.22300
N 	N 	0.76206 0.04290 0.48804 -0.22400
N 	N 	0.71004 0.17072 0.46902 -0.14900
N 	N 	0.64774 0.20038 0.47458 -0.14900
N 	N 	0.67498 0.13724 0.48316 -0.14900
N 	N 	0.54732 0.19724 0.50392 -0.22600
N 	N 	0.53550 0.27938 0.46698 -0.26300
N 	N 	0.50623 0.24355 0.45427 -0.22400
N 	N 	0.45357 0.23233 0.39281 -0.15000
S 	S 	0.87861 0.95100 0.46534 -0.05900
S 	S 	0.57723 0.32331 0.41623 -0.06100
C 	C 	0.43942 0.20656 0.04032 0.06000
H 	H 	0.46030 0.18570 0.04170 -0.00000
C 	C 	0.40740 0.20194 0.05110 -0.09700
H 	H 	0.40640 0.17840 0.05980 0.06500
C 	C 	0.37596 0.23226 0.04930 0.00300
H 	H 	0.35350 0.22990 0.05610 0.03900
C 	C 	0.37914 0.26590 0.03722 -0.04400
C 	C 	0.41281 0.26779 0.02713 0.03400
H 	H 	0.41460 0.29080 0.01920 0.01400
C 	C 	0.27122 0.53834 0.02642 0.09200
C 	C 	0.29402 0.42524 0.01540 0.03200
H 	H 	0.27480 0.42480 0.01280 0.01600
C 	C 	0.32205 0.39315 0.02265 -0.04500
C 	C 	0.35069 0.39385 0.02639 0.00500
H 	H 	0.37060 0.37240 0.03080 0.03800
C 	C 	0.34915 0.42629 0.02357 -0.09700
H 	H 	0.36770 0.42770 0.02650 0.06400
C 	C 	0.31994 0.45714 0.01628 0.05900
H 	H 	0.31930 0.47930 0.01430 -0.00200
C 	C 	0.32249 0.35971 0.02389 0.13200
C 	C 	0.29735 0.33185 0.01751 0.13200
C 	C 	0.34870 0.30000 0.03154 0.13100
C 	C 	0.26944 0.33380 0.00818 -0.04800
C 	C 	0.24042 0.36558 0.00152 0.00500
H 	H 	0.23770 0.38690 0.00330 0.03900
C 	C 	0.21583 0.36531 0.99237 -0.09300
H 	H 	0.19580 0.38640 0.98780 0.06400
C 	C 	0.22073 0.33331 0.98991 0.05300
H 	H 	0.20360 0.33340 0.98360 0.00400
C 	C 	0.27208 0.30340 0.00488 0.03900
H 	H 	0.29180 0.28200 0.00920 0.01300
C 	C 	0.29626 0.20246 0.05412 0.10500
C 	C 	0.20382 0.26166 0.07300 0.05200
H 	H 	0.22600 0.25980 0.07220 0.00400
C 	C 	0.17369 0.26927 0.10127 -0.09200
H 	H 	0.17500 0.27260 0.11960 0.06500
C 	C 	0.14052 0.27210 0.10312 -0.00000
H 	H 	0.11900 0.27760 0.12240 0.04100
C 	C 	0.14030 0.26644 0.07566 -0.04400
C 	C 	0.17212 0.25906 0.04762 0.03300
H 	H 	0.17150 0.25570 0.02890 0.01500
C 	C 	0.10651 0.26751 0.07681 0.13000
N 	N 	0.25557 0.53015 0.01897 -0.25700
N 	N 	0.44284 0.23886 0.02790 -0.22300
N 	N 	0.29300 0.45710 0.01196 -0.22400
N 	N 	0.34978 0.32928 0.03098 -0.14900
N 	N 	0.32270 0.29962 0.02542 -0.14900
N 	N 	0.29538 0.36276 0.01684 -0.14900
N 	N 	0.24848 0.30276 0.99608 -0.22600
N 	N 	0.28186 0.22062 0.03302 -0.26300
N 	N 	0.20405 0.25645 0.04573 -0.22400
N 	N 	0.07871 0.26767 0.10719 -0.15000
S 	S 	0.29494 0.54900 0.03466 -0.05900
S 	S 	0.31677 0.17669 0.08377 -0.06100
C 	C 	0.20656 0.43942 0.81370 0.06000
H 	H 	0.18570 0.46030 0.81230 -0.00000
C 	C 	0.20194 0.40740 0.83956 -0.09700
H 	H 	0.17840 0.40640 0.85540 0.06500
C 	C 	0.23226 0.37596 0.84248 0.00300
H 	H 	0.22990 0.35350 0.86050 0.03900
C 	C 	0.26590 0.37914 0.81774 -0.04400
C 	C 	0.26779 0.41281 0.79227 0.03400
H 	H 	0.29080 0.41460 0.77540 0.01400
C 	C 	0.53834 0.27122 0.66402 0.09200
C 	C 	0.42524 0.29402 0.76534 0.03200
H 	H 	0.42480 0.27480 0.78760 0.01600
C 	C 	0.39315 0.32205 0.76215 -0.04500
C 	C 	0.39385 0.35069 0.72907 0.00500
H 	H 	0.37240 0.37060 0.72620 0.03800
C 	C 	0.42629 0.34915 0.70099 -0.09700
H 	H 	0.42770 0.36770 0.67810 0.06400
C 	C 	0.45714 0.31994 0.70664 0.05900
H 	H 	0.47930 0.31930 0.68710 -0.00200
C 	C 	0.35971 0.32249 0.79391 0.13200
C 	C 	0.33185 0.29735 0.85329 0.13200
C 	C 	0.30000 0.34870 0.81976 0.13100
C 	C 	0.33380 0.26944 0.88858 -0.04800
C 	C 	0.36558 0.24042 0.89248 0.00500
H 	H 	0.38690 0.23770 0.87210 0.03900
C 	C 	0.36531 0.21583 0.92649 -0.09300
H 	H 	0.38640 0.19580 0.93000 0.06400
C 	C 	0.33331 0.22073 0.95605 0.05300
H 	H 	0.33340 0.20360 0.97940 0.00400
C 	C 	0.30340 0.27208 0.91964 0.03900
H 	H 	0.28200 0.29180 0.91700 0.01300
C 	C 	0.20246 0.29626 0.94716 0.10500
C 	C 	0.26166 0.20382 0.96152 0.05200
H 	H 	0.25980 0.22600 0.94200 0.00400
C 	C 	0.26927 0.17369 0.95577 -0.09200
H 	H 	0.27260 0.17500 0.93280 0.06500
C 	C 	0.27210 0.14052 0.98426 -0.00000
H 	H 	0.27760 0.11900 0.98100 0.04100
C 	C 	0.26644 0.14030 0.01760 -0.04400
C 	C 	0.25906 0.17212 0.02120 0.03300
H 	H 	0.25570 0.17150 0.04390 0.01500
C 	C 	0.26751 0.10651 0.04917 0.13000
N 	N 	0.53015 0.25557 0.69531 -0.25700
N 	N 	0.23886 0.44284 0.79040 -0.22300
N 	N 	0.45710 0.29300 0.73794 -0.22400
N 	N 	0.32928 0.34978 0.78996 -0.14900
N 	N 	0.29962 0.32270 0.85226 -0.14900
N 	N 	0.36276 0.29538 0.82502 -0.14900
N 	N 	0.30276 0.24848 0.95268 -0.22600
N 	N 	0.22062 0.28186 0.96450 -0.26300
N 	N 	0.25645 0.20405 0.99377 -0.22400
N 	N 	0.26767 0.07871 0.04643 -0.15000
S 	S 	0.54900 0.29494 0.62139 -0.05900
S 	S 	0.17669 0.31677 0.92277 -0.06100
C 	C 	0.81370 0.04032 0.20656 0.06000
H 	H 	0.81230 0.04170 0.18570 -0.00000
C 	C 	0.83956 0.05110 0.20194 -0.09700
H 	H 	0.85540 0.05980 0.17840 0.06500
C 	C 	0.84248 0.04930 0.23226 0.00300
H 	H 	0.86050 0.05610 0.22990 0.03900
C 	C 	0.81774 0.03722 0.26590 -0.04400
C 	C 	0.79227 0.02713 0.26779 0.03400
H 	H 	0.77540 0.01920 0.29080 0.01400
C 	C 	0.66402 0.02642 0.53834 0.09200
C 	C 	0.76534 0.01540 0.42524 0.03200
H 	H 	0.78760 0.01280 0.42480 0.01600
C 	C 	0.76215 0.02265 0.39315 -0.04500
C 	C 	0.72907 0.02639 0.39385 0.00500
H 	H 	0.72620 0.03080 0.37240 0.03800
C 	C 	0.70099 0.02357 0.42629 -0.09700
H 	H 	0.67810 0.02650 0.42770 0.06400
C 	C 	0.70664 0.01628 0.45714 0.05900
H 	H 	0.68710 0.01430 0.47930 -0.00200
C 	C 	0.79391 0.02389 0.35971 0.13200
C 	C 	0.85329 0.01751 0.33185 0.13200
C 	C 	0.81976 0.03154 0.30000 0.13100
C 	C 	0.88858 0.00818 0.33380 -0.04800
C 	C 	0.89248 0.00152 0.36558 0.00500
H 	H 	0.87210 0.00330 0.38690 0.03900
C 	C 	0.92649 0.99237 0.36531 -0.09200
H 	H 	0.93000 0.98780 0.38640 0.06400
C 	C 	0.95605 0.98991 0.33331 0.05300
H 	H 	0.97940 0.98360 0.33340 0.00400
C 	C 	0.91964 0.00488 0.30340 0.03900
H 	H 	0.91700 0.00920 0.28200 0.01300
C 	C 	0.94716 0.05412 0.20246 0.10500
C 	C 	0.96152 0.07300 0.26166 0.05200
H 	H 	0.94200 0.07220 0.25980 0.00400
C 	C 	0.95577 0.10127 0.26927 -0.09200
H 	H 	0.93280 0.11960 0.27260 0.06500
C 	C 	0.98426 0.10312 0.27210 -0.00000
H 	H 	0.98100 0.12240 0.27760 0.04100
C 	C 	0.01760 0.07566 0.26644 -0.04400
C 	C 	0.02120 0.04762 0.25906 0.03300
H 	H 	0.04390 0.02890 0.25570 0.01500
C 	C 	0.04917 0.07681 0.26751 0.13000
N 	N 	0.69531 0.01897 0.53015 -0.25700
N 	N 	0.79040 0.02790 0.23886 -0.22300
N 	N 	0.73794 0.01196 0.45710 -0.22400
N 	N 	0.78996 0.03098 0.32928 -0.14900
N 	N 	0.85226 0.02542 0.29962 -0.14900
N 	N 	0.82502 0.01684 0.36276 -0.14900
N 	N 	0.95268 0.99608 0.30276 -0.22600
N 	N 	0.96450 0.03302 0.22062 -0.26300
N 	N 	0.99377 0.04573 0.25645 -0.22400
N 	N 	0.04643 0.10719 0.26767 -0.15000
S 	S 	0.62139 0.03466 0.54900 -0.05900
S 	S 	0.92277 0.08377 0.17669 -0.06100
C 	C 	0.04032 0.81370 0.43942 0.06000
H 	H 	0.04170 0.81230 0.46030 -0.00000
C 	C 	0.05110 0.83956 0.40740 -0.09700
H 	H 	0.05980 0.85540 0.40640 0.06500
C 	C 	0.04930 0.84248 0.37596 0.00300
H 	H 	0.05610 0.86050 0.35350 0.03900
C 	C 	0.03722 0.81774 0.37914 -0.04400
C 	C 	0.02713 0.79227 0.41281 0.03400
H 	H 	0.01920 0.77540 0.41460 0.01400
C 	C 	0.02642 0.66402 0.27122 0.09200
C 	C 	0.01540 0.76534 0.29402 0.03200
H 	H 	0.01280 0.78760 0.27480 0.01600
C 	C 	0.02265 0.76215 0.32205 -0.04500
C 	C 	0.02639 0.72907 0.35069 0.00500
H 	H 	0.03080 0.72620 0.37060 0.03800
C 	C 	0.02357 0.70099 0.34915 -0.09700
H 	H 	0.02650 0.67810 0.36770 0.06400
C 	C 	0.01628 0.70664 0.31994 0.05900
H 	H 	0.01430 0.68710 0.31930 -0.00200
C 	C 	0.02389 0.79391 0.32249 0.13200
C 	C 	0.01751 0.85329 0.29735 0.13200
C 	C 	0.03154 0.81976 0.34870 0.13100
C 	C 	0.00818 0.88858 0.26944 -0.04800
C 	C 	0.00152 0.89248 0.24042 0.00500
H 	H 	0.00330 0.87210 0.23770 0.03900
C 	C 	0.99237 0.92649 0.21583 -0.09300
H 	H 	0.98780 0.93000 0.19580 0.06400
C 	C 	0.98991 0.95605 0.22073 0.05300
H 	H 	0.98360 0.97940 0.20360 0.00400
C 	C 	0.00488 0.91964 0.27208 0.03900
H 	H 	0.00920 0.91700 0.29180 0.01300
C 	C 	0.05412 0.94716 0.29626 0.10500
C 	C 	0.07300 0.96152 0.20382 0.05200
H 	H 	0.07220 0.94200 0.22600 0.00400
C 	C 	0.10127 0.95577 0.17369 -0.09200
H 	H 	0.11960 0.93280 0.17500 0.06500
C 	C 	0.10312 0.98426 0.14052 -0.00000
H 	H 	0.12240 0.98100 0.11900 0.04100
C 	C 	0.07566 0.01760 0.14030 -0.04400
C 	C 	0.04762 0.02120 0.17212 0.03300
H 	H 	0.02890 0.04390 0.17150 0.01500
C 	C 	0.07681 0.04917 0.10651 0.13000
N 	N 	0.01897 0.69531 0.25557 -0.25700
N 	N 	0.02790 0.79040 0.44284 -0.22300
N 	N 	0.01196 0.73794 0.29300 -0.22400
N 	N 	0.03098 0.78996 0.34978 -0.14900
N 	N 	0.02542 0.85226 0.32270 -0.14900
N 	N 	0.01684 0.82502 0.29538 -0.14900
N 	N 	0.99608 0.95268 0.24848 -0.22600
N 	N 	0.03302 0.96450 0.28186 -0.26300
N 	N 	0.04573 0.99377 0.20405 -0.22400
N 	N 	0.10719 0.04643 0.07871 -0.15000
S 	S 	0.03466 0.62139 0.29494 -0.05900
S 	S 	0.08377 0.92277 0.31677 -0.06100
C 	C 	0.81370 0.43942 0.04032 0.06000
H 	H 	0.81230 0.46030 0.04170 -0.00000
C 	C 	0.83956 0.40740 0.05110 -0.09700
H 	H 	0.85540 0.40640 0.05980 0.06500
C 	C 	0.84248 0.37596 0.04930 0.00300
H 	H 	0.86050 0.35350 0.05610 0.03900
C 	C 	0.81774 0.37914 0.03722 -0.04400
C 	C 	0.79227 0.41281 0.02713 0.03400
H 	H 	0.77540 0.41460 0.01920 0.01400
C 	C 	0.66402 0.27122 0.02642 0.09200
C 	C 	0.76534 0.29402 0.01540 0.03200
H 	H 	0.78760 0.27480 0.01280 0.01600
C 	C 	0.76215 0.32205 0.02265 -0.04500
C 	C 	0.72907 0.35069 0.02639 0.00500
H 	H 	0.72620 0.37060 0.03080 0.03800
C 	C 	0.70099 0.34915 0.02357 -0.09700
H 	H 	0.67810 0.36770 0.02650 0.06400
C 	C 	0.70664 0.31994 0.01628 0.05900
H 	H 	0.68710 0.31930 0.01430 -0.00200
C 	C 	0.79391 0.32249 0.02389 0.13200
C 	C 	0.85329 0.29735 0.01751 0.13200
C 	C 	0.81976 0.34870 0.03154 0.13100
C 	C 	0.88858 0.26944 0.00818 -0.04800
C 	C 	0.89248 0.24042 0.00152 0.00500
H 	H 	0.87210 0.23770 0.00330 0.03900
C 	C 	0.92649 0.21583 0.99237 -0.09300
H 	H 	0.93000 0.19580 0.98780 0.06400
C 	C 	0.95605 0.22073 0.98991 0.05300
H 	H 	0.97940 0.20360 0.98360 0.00400
C 	C 	0.91964 0.27208 0.00488 0.03900
H 	H 	0.91700 0.29180 0.00920 0.01300
C 	C 	0.94716 0.29626 0.05412 0.10500
C 	C 	0.96152 0.20382 0.07300 0.05200
H 	H 	0.94200 0.22600 0.07220 0.00400
C 	C 	0.95577 0.17369 0.10127 -0.09200
H 	H 	0.93280 0.17500 0.11960 0.06500
C 	C 	0.98426 0.14052 0.10312 -0.00000
H 	H 	0.98100 0.11900 0.12240 0.04100
C 	C 	0.01760 0.14030 0.07566 -0.04400
C 	C 	0.02120 0.17212 0.04762 0.03300
H 	H 	0.04390 0.17150 0.02890 0.01500
C 	C 	0.04917 0.10651 0.07681 0.13000
N 	N 	0.69531 0.25557 0.01897 -0.25700
N 	N 	0.79040 0.44284 0.02790 -0.22300
N 	N 	0.73794 0.29300 0.01196 -0.22400
N 	N 	0.78996 0.34978 0.03098 -0.14900
N 	N 	0.85226 0.32270 0.02542 -0.14900
N 	N 	0.82502 0.29538 0.01684 -0.14900
N 	N 	0.95268 0.24848 0.99608 -0.22600
N 	N 	0.96450 0.28186 0.03302 -0.26300
N 	N 	0.99377 0.20405 0.04573 -0.22400
N 	N 	0.04643 0.07871 0.10719 -0.15000
S 	S 	0.62139 0.29494 0.03466 -0.05900
S 	S 	0.92277 0.31677 0.08377 -0.06100
C 	C 	0.04032 0.20656 0.81370 0.06000
H 	H 	0.04170 0.18570 0.81230 -0.00000
C 	C 	0.05110 0.20194 0.83956 -0.09700
H 	H 	0.05980 0.17840 0.85540 0.06500
C 	C 	0.04930 0.23226 0.84248 0.00300
H 	H 	0.05610 0.22990 0.86050 0.03900
C 	C 	0.03722 0.26590 0.81774 -0.04400
C 	C 	0.02713 0.26779 0.79227 0.03400
H 	H 	0.01920 0.29080 0.77540 0.01400
C 	C 	0.02642 0.53834 0.66402 0.09200
C 	C 	0.01540 0.42524 0.76534 0.03200
H 	H 	0.01280 0.42480 0.78760 0.01600
C 	C 	0.02265 0.39315 0.76215 -0.04500
C 	C 	0.02639 0.39385 0.72907 0.00500
H 	H 	0.03080 0.37240 0.72620 0.03800
C 	C 	0.02357 0.42629 0.70099 -0.09700
H 	H 	0.02650 0.42770 0.67810 0.06400
C 	C 	0.01628 0.45714 0.70664 0.05900
H 	H 	0.01430 0.47930 0.68710 -0.00200
C 	C 	0.02389 0.35971 0.79391 0.13200
C 	C 	0.01751 0.33185 0.85329 0.13200
C 	C 	0.03154 0.30000 0.81976 0.13100
C 	C 	0.00818 0.33380 0.88858 -0.04800
C 	C 	0.00152 0.36558 0.89248 0.00500
H 	H 	0.00330 0.38690 0.87210 0.03900
C 	C 	0.99237 0.36531 0.92649 -0.09200
H 	H 	0.98780 0.38640 0.93000 0.06400
C 	C 	0.98991 0.33331 0.95605 0.05300
H 	H 	0.98360 0.33340 0.97940 0.00400
C 	C 	0.00488 0.30340 0.91964 0.03900
H 	H 	0.00920 0.28200 0.91700 0.01300
C 	C 	0.05412 0.20246 0.94716 0.10500
C 	C 	0.07300 0.26166 0.96152 0.05200
H 	H 	0.07220 0.25980 0.94200 0.00400
C 	C 	0.10127 0.26927 0.95577 -0.09200
H 	H 	0.11960 0.27260 0.93280 0.06500
C 	C 	0.10312 0.27210 0.98426 -0.00000
H 	H 	0.12240 0.27760 0.98100 0.04100
C 	C 	0.07566 0.26644 0.01760 -0.04400
C 	C 	0.04762 0.25906 0.02120 0.03300
H 	H 	0.02890 0.25570 0.04390 0.01500
C 	C 	0.07681 0.26751 0.04917 0.13000
N 	N 	0.01897 0.53015 0.69531 -0.25700
N 	N 	0.02790 0.23886 0.79040 -0.22300
N 	N 	0.01196 0.45710 0.73794 -0.22400
N 	N 	0.03098 0.32928 0.78996 -0.14900
N 	N 	0.02542 0.29962 0.85226 -0.14900
N 	N 	0.01684 0.36276 0.82502 -0.14900
N 	N 	0.99608 0.30276 0.95268 -0.22600
N 	N 	0.03302 0.22062 0.96450 -0.26300
N 	N 	0.04573 0.25645 0.99377 -0.22400
N 	N 	0.10719 0.26767 0.04643 -0.15000
S 	S 	0.03466 0.54900 0.62139 -0.05900
S 	S 	0.08377 0.17669 0.92277 -0.06100
C 	C 	0.43942 0.81370 0.20656 0.06000
H 	H 	0.46030 0.81230 0.18570 -0.00000
C 	C 	0.40740 0.83956 0.20194 -0.09700
H 	H 	0.40640 0.85540 0.17840 0.06500
C 	C 	0.37596 0.84248 0.23226 0.00300
H 	H 	0.35350 0.86050 0.22990 0.03900
C 	C 	0.37914 0.81774 0.26590 -0.04400
C 	C 	0.41281 0.79227 0.26779 0.03400
H 	H 	0.41460 0.77540 0.29080 0.01400
C 	C 	0.27122 0.66402 0.53834 0.09200
C 	C 	0.29402 0.76534 0.42524 0.03200
H 	H 	0.27480 0.78760 0.42480 0.01600
C 	C 	0.32205 0.76215 0.39315 -0.04500
C 	C 	0.35069 0.72907 0.39385 0.00500
H 	H 	0.37060 0.72620 0.37240 0.03800
C 	C 	0.34915 0.70099 0.42629 -0.09700
H 	H 	0.36770 0.67810 0.42770 0.06400
C 	C 	0.31994 0.70664 0.45714 0.05900
H 	H 	0.31930 0.68710 0.47930 -0.00200
C 	C 	0.32249 0.79391 0.35971 0.13200
C 	C 	0.29735 0.85329 0.33185 0.13200
C 	C 	0.34870 0.81976 0.30000 0.13100
C 	C 	0.26944 0.88858 0.33380 -0.04800
C 	C 	0.24042 0.89248 0.36558 0.00500
H 	H 	0.23770 0.87210 0.38690 0.03900
C 	C 	0.21583 0.92649 0.36531 -0.09300
H 	H 	0.19580 0.93000 0.38640 0.06400
C 	C 	0.22073 0.95605 0.33331 0.05300
H 	H 	0.20360 0.97940 0.33340 0.00400
C 	C 	0.27208 0.91964 0.30340 0.03900
H 	H 	0.29180 0.91700 0.28200 0.01300
C 	C 	0.29626 0.94716 0.20246 0.10500
C 	C 	0.20382 0.96152 0.26166 0.05200
H 	H 	0.22600 0.94200 0.25980 0.00400
C 	C 	0.17369 0.95577 0.26927 -0.09200
H 	H 	0.17500 0.93280 0.27260 0.06500
C 	C 	0.14052 0.98426 0.27210 -0.00000
H 	H 	0.11900 0.98100 0.27760 0.04100
C 	C 	0.14030 0.01760 0.26644 -0.04400
C 	C 	0.17212 0.02120 0.25906 0.03300
H 	H 	0.17150 0.04390 0.25570 0.01500
C 	C 	0.10651 0.04917 0.26751 0.13000
N 	N 	0.25557 0.69531 0.53015 -0.25700
N 	N 	0.44284 0.79040 0.23886 -0.22300
N 	N 	0.29300 0.73794 0.45710 -0.22400
N 	N 	0.34978 0.78996 0.32928 -0.14900
N 	N 	0.32270 0.85226 0.29962 -0.14900
N 	N 	0.29538 0.82502 0.36276 -0.14900
N 	N 	0.24848 0.95268 0.30276 -0.22600
N 	N 	0.28186 0.96450 0.22062 -0.26300
N 	N 	0.20405 0.99377 0.25645 -0.22400
N 	N 	0.07871 0.04643 0.26767 -0.15000
S 	S 	0.29494 0.62139 0.54900 -0.05900
S 	S 	0.31677 0.92277 0.17669 -0.06100
C 	C 	0.20656 0.04032 0.43942 0.06000
H 	H 	0.18570 0.04170 0.46030 -0.00000
C 	C 	0.20194 0.05110 0.40740 -0.09700
H 	H 	0.17840 0.05980 0.40640 0.06500
C 	C 	0.23226 0.04930 0.37596 0.00300
H 	H 	0.22990 0.05610 0.35350 0.03900
C 	C 	0.26590 0.03722 0.37914 -0.04400
C 	C 	0.26779 0.02713 0.41281 0.03400
H 	H 	0.29080 0.01920 0.41460 0.01400
C 	C 	0.53834 0.02642 0.27122 0.09200
C 	C 	0.42524 0.01540 0.29402 0.03200
H 	H 	0.42480 0.01280 0.27480 0.01600
C 	C 	0.39315 0.02265 0.32205 -0.04500
C 	C 	0.39385 0.02639 0.35069 0.00500
H 	H 	0.37240 0.03080 0.37060 0.03800
C 	C 	0.42629 0.02357 0.34915 -0.09700
H 	H 	0.42770 0.02650 0.36770 0.06400
C 	C 	0.45714 0.01628 0.31994 0.05900
H 	H 	0.47930 0.01430 0.31930 -0.00200
C 	C 	0.35971 0.02389 0.32249 0.13200
C 	C 	0.33185 0.01751 0.29735 0.13200
C 	C 	0.30000 0.03154 0.34870 0.13100
C 	C 	0.33380 0.00818 0.26944 -0.04800
C 	C 	0.36558 0.00152 0.24042 0.00500
H 	H 	0.38690 0.00330 0.23770 0.03900
C 	C 	0.36531 0.99237 0.21583 -0.09300
H 	H 	0.38640 0.98780 0.19580 0.06400
C 	C 	0.33331 0.98991 0.22073 0.05300
H 	H 	0.33340 0.98360 0.20360 0.00400
C 	C 	0.30340 0.00488 0.27208 0.03900
H 	H 	0.28200 0.00920 0.29180 0.01300
C 	C 	0.20246 0.05412 0.29626 0.10500
C 	C 	0.26166 0.07300 0.20382 0.05200
H 	H 	0.25980 0.07220 0.22600 0.00400
C 	C 	0.26927 0.10127 0.17369 -0.09200
H 	H 	0.27260 0.11960 0.17500 0.06500
C 	C 	0.27210 0.10312 0.14052 -0.00000
H 	H 	0.27760 0.12240 0.11900 0.04100
C 	C 	0.26644 0.07566 0.14030 -0.04400
C 	C 	0.25906 0.04762 0.17212 0.03300
H 	H 	0.25570 0.02890 0.17150 0.01500
C 	C 	0.26751 0.07681 0.10651 0.13000
N 	N 	0.53015 0.01897 0.25557 -0.25700
N 	N 	0.23886 0.02790 0.44284 -0.22300
N 	N 	0.45710 0.01196 0.29300 -0.22400
N 	N 	0.32928 0.03098 0.34978 -0.14900
N 	N 	0.29962 0.02542 0.32270 -0.14900
N 	N 	0.36276 0.01684 0.29538 -0.14900
N 	N 	0.30276 0.99608 0.24848 -0.22600
N 	N 	0.22062 0.03302 0.28186 -0.26300
N 	N 	0.25645 0.04573 0.20405 -0.22400
N 	N 	0.26767 0.10719 0.07871 -0.15000
S 	S 	0.54900 0.03466 0.29494 -0.05900
S 	S 	0.17669 0.08377 0.31677 -0.06100
C 	C 	0.20656 0.81370 0.04032 0.06000
H 	H 	0.18570 0.81230 0.04170 -0.00000
C 	C 	0.20194 0.83956 0.05110 -0.09700
H 	H 	0.17840 0.85540 0.05980 0.06500
C 	C 	0.23226 0.84248 0.04930 0.00300
H 	H 	0.22990 0.86050 0.05610 0.03900
C 	C 	0.26590 0.81774 0.03722 -0.04400
C 	C 	0.26779 0.79227 0.02713 0.03400
H 	H 	0.29080 0.77540 0.01920 0.01400
C 	C 	0.53834 0.66402 0.02642 0.09200
C 	C 	0.42524 0.76534 0.01540 0.03200
H 	H 	0.42480 0.78760 0.01280 0.01600
C 	C 	0.39315 0.76215 0.02265 -0.04500
C 	C 	0.39385 0.72907 0.02639 0.00500
H 	H 	0.37240 0.72620 0.03080 0.03800
C 	C 	0.42629 0.70099 0.02357 -0.09700
H 	H 	0.42770 0.67810 0.02650 0.06400
C 	C 	0.45714 0.70664 0.01628 0.05900
H 	H 	0.47930 0.68710 0.01430 -0.00200
C 	C 	0.35971 0.79391 0.02389 0.13200
C 	C 	0.33185 0.85329 0.01751 0.13200
C 	C 	0.30000 0.81976 0.03154 0.13100
C 	C 	0.33380 0.88858 0.00818 -0.04800
C 	C 	0.36558 0.89248 0.00152 0.00500
H 	H 	0.38690 0.87210 0.00330 0.03900
C 	C 	0.36531 0.92649 0.99237 -0.09200
H 	H 	0.38640 0.93000 0.98780 0.06400
C 	C 	0.33331 0.95605 0.98991 0.05300
H 	H 	0.33340 0.97940 0.98360 0.00400
C 	C 	0.30340 0.91964 0.00488 0.03900
H 	H 	0.28200 0.91700 0.00920 0.01300
C 	C 	0.20246 0.94716 0.05412 0.10500
C 	C 	0.26166 0.96152 0.07300 0.05200
H 	H 	0.25980 0.94200 0.07220 0.00400
C 	C 	0.26927 0.95577 0.10127 -0.09200
H 	H 	0.27260 0.93280 0.11960 0.06500
C 	C 	0.27210 0.98426 0.10312 -0.00000
H 	H 	0.27760 0.98100 0.12240 0.04100
C 	C 	0.26644 0.01760 0.07566 -0.04400
C 	C 	0.25906 0.02120 0.04762 0.03300
H 	H 	0.25570 0.04390 0.02890 0.01500
C 	C 	0.26751 0.04917 0.07681 0.13000
N 	N 	0.53015 0.69531 0.01897 -0.25700
N 	N 	0.23886 0.79040 0.02790 -0.22300
N 	N 	0.45710 0.73794 0.01196 -0.22400
N 	N 	0.32928 0.78996 0.03098 -0.14900
N 	N 	0.29962 0.85226 0.02542 -0.14900
N 	N 	0.36276 0.82502 0.01684 -0.14900
N 	N 	0.30276 0.95268 0.99608 -0.22600
N 	N 	0.22062 0.96450 0.03302 -0.26300
N 	N 	0.25645 0.99377 0.04573 -0.22400
N 	N 	0.26767 0.04643 0.10719 -0.15000
S 	S 	0.54900 0.62139 0.03466 -0.05900
S 	S 	0.17669 0.92277 0.08377 -0.06100
C 	C 	0.43942 0.04032 0.81370 0.06000
H 	H 	0.46030 0.04170 0.81230 -0.00000
C 	C 	0.40740 0.05110 0.83956 -0.09700
H 	H 	0.40640 0.05980 0.85540 0.06500
C 	C 	0.37596 0.04930 0.84248 0.00300
H 	H 	0.35350 0.05610 0.86050 0.03900
C 	C 	0.37914 0.03722 0.81774 -0.04400
C 	C 	0.41281 0.02713 0.79227 0.03400
H 	H 	0.41460 0.01920 0.77540 0.01400
C 	C 	0.27122 0.02642 0.66402 0.09200
C 	C 	0.29402 0.01540 0.76534 0.03200
H 	H 	0.27480 0.01280 0.78760 0.01600
C 	C 	0.32205 0.02265 0.76215 -0.04500
C 	C 	0.35069 0.02639 0.72907 0.00500
H 	H 	0.37060 0.03080 0.72620 0.03800
C 	C 	0.34915 0.02357 0.70099 -0.09700
H 	H 	0.36770 0.02650 0.67810 0.06400
C 	C 	0.31994 0.01628 0.70664 0.05900
H 	H 	0.31930 0.01430 0.68710 -0.00200
C 	C 	0.32249 0.02389 0.79391 0.13200
C 	C 	0.29735 0.01751 0.85329 0.13200
C 	C 	0.34870 0.03154 0.81976 0.13100
C 	C 	0.26944 0.00818 0.88858 -0.04800
C 	C 	0.24042 0.00152 0.89248 0.00500
H 	H 	0.23770 0.00330 0.87210 0.03900
C 	C 	0.21583 0.99237 0.92649 -0.09300
H 	H 	0.19580 0.98780 0.93000 0.06400
C 	C 	0.22073 0.98991 0.95605 0.05300
H 	H 	0.20360 0.98360 0.97940 0.00400
C 	C 	0.27208 0.00488 0.91964 0.03900
H 	H 	0.29180 0.00920 0.91700 0.01300
C 	C 	0.29626 0.05412 0.94716 0.10500
C 	C 	0.20382 0.07300 0.96152 0.05200
H 	H 	0.22600 0.07220 0.94200 0.00400
C 	C 	0.17369 0.10127 0.95577 -0.09200
H 	H 	0.17500 0.11960 0.93280 0.06500
C 	C 	0.14052 0.10312 0.98426 -0.00000
H 	H 	0.11900 0.12240 0.98100 0.04100
C 	C 	0.14030 0.07566 0.01760 -0.04400
C 	C 	0.17212 0.04762 0.02120 0.03300
H 	H 	0.17150 0.02890 0.04390 0.01500
C 	C 	0.10651 0.07681 0.04917 0.13000
N 	N 	0.25557 0.01897 0.69531 -0.25700
N 	N 	0.44284 0.02790 0.79040 -0.22300
N 	N 	0.29300 0.01196 0.73794 -0.22400
N 	N 	0.34978 0.03098 0.78996 -0.14900
N 	N 	0.32270 0.02542 0.85226 -0.14900
N 	N 	0.29538 0.01684 0.82502 -0.14900
N 	N 	0.24848 0.99608 0.95268 -0.22600
N 	N 	0.28186 0.03302 0.96450 -0.26300
N 	N 	0.20405 0.04573 0.99377 -0.22400
N 	N 	0.07871 0.10719 0.04643 -0.15000
S 	S 	0.29494 0.03466 0.62139 -0.05900
S 	S 	0.31677 0.08377 0.92277 -0.06100
C 	C 	0.04032 0.43942 0.20656 0.06000
H 	H 	0.04170 0.46030 0.18570 -0.00000
C 	C 	0.05110 0.40740 0.20194 -0.09700
H 	H 	0.05980 0.40640 0.17840 0.06500
C 	C 	0.04930 0.37596 0.23226 0.00300
H 	H 	0.05610 0.35350 0.22990 0.03900
C 	C 	0.03722 0.37914 0.26590 -0.04400
C 	C 	0.02713 0.41281 0.26779 0.03400
H 	H 	0.01920 0.41460 0.29080 0.01400
C 	C 	0.02642 0.27122 0.53834 0.09200
C 	C 	0.01540 0.29402 0.42524 0.03200
H 	H 	0.01280 0.27480 0.42480 0.01600
C 	C 	0.02265 0.32205 0.39315 -0.04500
C 	C 	0.02639 0.35069 0.39385 0.00500
H 	H 	0.03080 0.37060 0.37240 0.03800
C 	C 	0.02357 0.34915 0.42629 -0.09700
H 	H 	0.02650 0.36770 0.42770 0.06400
C 	C 	0.01628 0.31994 0.45714 0.05900
H 	H 	0.01430 0.31930 0.47930 -0.00200
C 	C 	0.02389 0.32249 0.35971 0.13200
C 	C 	0.01751 0.29735 0.33185 0.13200
C 	C 	0.03154 0.34870 0.30000 0.13100
C 	C 	0.00818 0.26944 0.33380 -0.04800
C 	C 	0.00152 0.24042 0.36558 0.00500
H 	H 	0.00330 0.23770 0.38690 0.03900
C 	C 	0.99237 0.21583 0.36531 -0.09300
H 	H 	0.98780 0.19580 0.38640 0.06400
C 	C 	0.98991 0.22073 0.33331 0.05300
H 	H 	0.98360 0.20360 0.33340 0.00400
C 	C 	0.00488 0.27208 0.30340 0.03900
H 	H 	0.00920 0.29180 0.28200 0.01300
C 	C 	0.05412 0.29626 0.20246 0.10500
C 	C 	0.07300 0.20382 0.26166 0.05200
H 	H 	0.07220 0.22600 0.25980 0.00400
C 	C 	0.10127 0.17369 0.26927 -0.09200
H 	H 	0.11960 0.17500 0.27260 0.06500
C 	C 	0.10312 0.14052 0.27210 -0.00000
H 	H 	0.12240 0.11900 0.27760 0.04100
C 	C 	0.07566 0.14030 0.26644 -0.04400
C 	C 	0.04762 0.17212 0.25906 0.03300
H 	H 	0.02890 0.17150 0.25570 0.01500
C 	C 	0.07681 0.10651 0.26751 0.13000
N 	N 	0.01897 0.25557 0.53015 -0.25700
N 	N 	0.02790 0.44284 0.23886 -0.22300
N 	N 	0.01196 0.29300 0.45710 -0.22400
N 	N 	0.03098 0.34978 0.32928 -0.14900
N 	N 	0.02542 0.32270 0.29962 -0.14900
N 	N 	0.01684 0.29538 0.36276 -0.14900
N 	N 	0.99608 0.24848 0.30276 -0.22600
N 	N 	0.03302 0.28186 0.22062 -0.26300
N 	N 	0.04573 0.20405 0.25645 -0.22400
N 	N 	0.10719 0.07871 0.26767 -0.15000
S 	S 	0.03466 0.29494 0.54900 -0.05900
S 	S 	0.08377 0.31677 0.17669 -0.06100
C 	C 	0.81370 0.20656 0.43942 0.06000
H 	H 	0.81230 0.18570 0.46030 -0.00000
C 	C 	0.83956 0.20194 0.40740 -0.09700
H 	H 	0.85540 0.17840 0.40640 0.06500
C 	C 	0.84248 0.23226 0.37596 0.00300
H 	H 	0.86050 0.22990 0.35350 0.03900
C 	C 	0.81774 0.26590 0.37914 -0.04400
C 	C 	0.79227 0.26779 0.41281 0.03400
H 	H 	0.77540 0.29080 0.41460 0.01400
C 	C 	0.66402 0.53834 0.27122 0.09200
C 	C 	0.76534 0.42524 0.29402 0.03200
H 	H 	0.78760 0.42480 0.27480 0.01600
C 	C 	0.76215 0.39315 0.32205 -0.04500
C 	C 	0.72907 0.39385 0.35069 0.00500
H 	H 	0.72620 0.37240 0.37060 0.03800
C 	C 	0.70099 0.42629 0.34915 -0.09700
H 	H 	0.67810 0.42770 0.36770 0.06400
C 	C 	0.70664 0.45714 0.31994 0.05900
H 	H 	0.68710 0.47930 0.31930 -0.00200
C 	C 	0.79391 0.35971 0.32249 0.13200
C 	C 	0.85329 0.33185 0.29735 0.13200
C 	C 	0.81976 0.30000 0.34870 0.13100
C 	C 	0.88858 0.33380 0.26944 -0.04800
C 	C 	0.89248 0.36558 0.24042 0.00500
H 	H 	0.87210 0.38690 0.23770 0.03900
C 	C 	0.92649 0.36531 0.21583 -0.09300
H 	H 	0.93000 0.38640 0.19580 0.06400
C 	C 	0.95605 0.33331 0.22073 0.05300
H 	H 	0.97940 0.33340 0.20360 0.00400
C 	C 	0.91964 0.30340 0.27208 0.03900
H 	H 	0.91700 0.28200 0.29180 0.01300
C 	C 	0.94716 0.20246 0.29626 0.10500
C 	C 	0.96152 0.26166 0.20382 0.05200
H 	H 	0.94200 0.25980 0.22600 0.00400
C 	C 	0.95577 0.26927 0.17369 -0.09200
H 	H 	0.93280 0.27260 0.17500 0.06500
C 	C 	0.98426 0.27210 0.14052 -0.00000
H 	H 	0.98100 0.27760 0.11900 0.04100
C 	C 	0.01760 0.26644 0.14030 -0.04400
C 	C 	0.02120 0.25906 0.17212 0.03300
H 	H 	0.04390 0.25570 0.17150 0.01500
C 	C 	0.04917 0.26751 0.10651 0.13000
N 	N 	0.69531 0.53015 0.25557 -0.25700
N 	N 	0.79040 0.23886 0.44284 -0.22300
N 	N 	0.73794 0.45710 0.29300 -0.22400
N 	N 	0.78996 0.32928 0.34978 -0.14900
N 	N 	0.85226 0.29962 0.32270 -0.14900
N 	N 	0.82502 0.36276 0.29538 -0.14900
N 	N 	0.95268 0.30276 0.24848 -0.22600
N 	N 	0.96450 0.22062 0.28186 -0.26300
N 	N 	0.99377 0.25645 0.20405 -0.22400
N 	N 	0.04643 0.26767 0.07871 -0.15000
S 	S 	0.62139 0.54900 0.29494 -0.05900
S 	S 	0.92277 0.17669 0.31677 -0.06100
C 	C 	0.93942 0.70656 0.31370 0.06000
H 	H 	0.96030 0.68570 0.31230 -0.00000
C 	C 	0.90740 0.70194 0.33956 -0.09700
H 	H 	0.90640 0.67840 0.35540 0.06500
C 	C 	0.87596 0.73226 0.34248 0.00300
H 	H 	0.85350 0.72990 0.36050 0.03900
C 	C 	0.87914 0.76590 0.31774 -0.04400
C 	C 	0.91281 0.76779 0.29227 0.03400
H 	H 	0.91460 0.79080 0.27540 0.01400
C 	C 	0.77122 0.03834 0.16402 0.09200
C 	C 	0.79402 0.92524 0.26534 0.03200
H 	H 	0.77480 0.92480 0.28760 0.01600
C 	C 	0.82205 0.89315 0.26215 -0.04500
C 	C 	0.85069 0.89385 0.22907 0.00500
H 	H 	0.87060 0.87240 0.22620 0.03800
C 	C 	0.84915 0.92629 0.20099 -0.09700
H 	H 	0.86770 0.92770 0.17810 0.06400
C 	C 	0.81994 0.95714 0.20664 0.05900
H 	H 	0.81930 0.97930 0.18710 -0.00200
C 	C 	0.82249 0.85971 0.29391 0.13200
C 	C 	0.79735 0.83185 0.35329 0.13200
C 	C 	0.84870 0.80000 0.31976 0.13100
C 	C 	0.76944 0.83380 0.38858 -0.04800
C 	C 	0.74042 0.86558 0.39248 0.00500
H 	H 	0.73770 0.88690 0.37210 0.03900
C 	C 	0.71583 0.86531 0.42649 -0.09300
H 	H 	0.69580 0.88640 0.43000 0.06400
C 	C 	0.72073 0.83331 0.45605 0.05300
H 	H 	0.70360 0.83340 0.47940 0.00400
C 	C 	0.77208 0.80340 0.41964 0.03900
H 	H 	0.79180 0.78200 0.41700 0.01300
C 	C 	0.79626 0.70246 0.44716 0.10500
C 	C 	0.70382 0.76166 0.46152 0.05200
H 	H 	0.72600 0.75980 0.44200 0.00400
C 	C 	0.67369 0.76927 0.45577 -0.09200
H 	H 	0.67500 0.77260 0.43280 0.06500
C 	C 	0.64052 0.77210 0.48426 -0.00000
H 	H 	0.61900 0.77760 0.48100 0.04100
C 	C 	0.64030 0.76644 0.51760 -0.04400
C 	C 	0.67212 0.75906 0.52120 0.03300
H 	H 	0.67150 0.75570 0.54390 0.01500
C 	C 	0.60651 0.76751 0.54917 0.13000
N 	N 	0.75557 0.03015 0.19531 -0.25700
N 	N 	0.94284 0.73886 0.29040 -0.22300
N 	N 	0.79300 0.95710 0.23794 -0.22400
N 	N 	0.84978 0.82928 0.28996 -0.14900
N 	N 	0.82270 0.79962 0.35226 -0.14900
N 	N 	0.79538 0.86276 0.32502 -0.14900
N 	N 	0.74848 0.80276 0.45268 -0.22600
N 	N 	0.78186 0.72062 0.46450 -0.26300
N 	N 	0.70405 0.75645 0.49377 -0.22400
N 	N 	0.57871 0.76767 0.54643 -0.15000
S 	S 	0.79494 0.04900 0.12139 -0.05900
S 	S 	0.81677 0.67669 0.42277 -0.06100
C 	C 	0.70656 0.93942 0.54032 0.06000
H 	H 	0.68570 0.96030 0.54170 -0.00000
C 	C 	0.70194 0.90740 0.55110 -0.09700
H 	H 	0.67840 0.90640 0.55980 0.06500
C 	C 	0.73226 0.87596 0.54930 0.00300
H 	H 	0.72990 0.85350 0.55610 0.03900
C 	C 	0.76590 0.87914 0.53722 -0.04400
C 	C 	0.76779 0.91281 0.52713 0.03400
H 	H 	0.79080 0.91460 0.51920 0.01400
C 	C 	0.03834 0.77122 0.52642 0.09200
C 	C 	0.92524 0.79402 0.51540 0.03200
H 	H 	0.92480 0.77480 0.51280 0.01600
C 	C 	0.89315 0.82205 0.52265 -0.04500
C 	C 	0.89385 0.85069 0.52639 0.00500
H 	H 	0.87240 0.87060 0.53080 0.03800
C 	C 	0.92629 0.84915 0.52357 -0.09700
H 	H 	0.92770 0.86770 0.52650 0.06400
C 	C 	0.95714 0.81994 0.51628 0.05900
H 	H 	0.97930 0.81930 0.51430 -0.00200
C 	C 	0.85971 0.82249 0.52389 0.13200
C 	C 	0.83185 0.79735 0.51751 0.13200
C 	C 	0.80000 0.84870 0.53154 0.13100
C 	C 	0.83380 0.76944 0.50818 -0.04800
C 	C 	0.86558 0.74042 0.50152 0.00500
H 	H 	0.88690 0.73770 0.50330 0.03900
C 	C 	0.86531 0.71583 0.49237 -0.09300
H 	H 	0.88640 0.69580 0.48780 0.06400
C 	C 	0.83331 0.72073 0.48991 0.05300
H 	H 	0.83340 0.70360 0.48360 0.00400
C 	C 	0.80340 0.77208 0.50488 0.03900
H 	H 	0.78200 0.79180 0.50920 0.01300
C 	C 	0.70246 0.79626 0.55412 0.10500
C 	C 	0.76166 0.70382 0.57300 0.05200
H 	H 	0.75980 0.72600 0.57220 0.00400
C 	C 	0.76927 0.67369 0.60127 -0.09200
H 	H 	0.77260 0.67500 0.61960 0.06500
C 	C 	0.77210 0.64052 0.60312 -0.00000
H 	H 	0.77760 0.61900 0.62240 0.04100
C 	C 	0.76644 0.64030 0.57566 -0.04400
C 	C 	0.75906 0.67212 0.54762 0.03300
H 	H 	0.75570 0.67150 0.52890 0.01500
C 	C 	0.76751 0.60651 0.57681 0.13000
N 	N 	0.03015 0.75557 0.51897 -0.25700
N 	N 	0.73886 0.94284 0.52790 -0.22300
N 	N 	0.95710 0.79300 0.51196 -0.22400
N 	N 	0.82928 0.84978 0.53098 -0.14900
N 	N 	0.79962 0.82270 0.52542 -0.14900
N 	N 	0.86276 0.79538 0.51684 -0.14900
N 	N 	0.80276 0.74848 0.49608 -0.22600
N 	N 	0.72062 0.78186 0.53302 -0.26300
N 	N 	0.75645 0.70405 0.54573 -0.22400
N 	N 	0.76767 0.57871 0.60719 -0.15000
S 	S 	0.04900 0.79494 0.53466 -0.05900
S 	S 	0.67669 0.81677 0.58377 -0.06100
C 	C 	0.31370 0.54032 0.93942 0.06000
H 	H 	0.31230 0.54170 0.96030 -0.00000
C 	C 	0.33956 0.55110 0.90740 -0.09700
H 	H 	0.35540 0.55980 0.90640 0.06500
C 	C 	0.34248 0.54930 0.87596 0.00300
H 	H 	0.36050 0.55610 0.85350 0.03900
C 	C 	0.31774 0.53722 0.87914 -0.04400
C 	C 	0.29227 0.52713 0.91281 0.03400
H 	H 	0.27540 0.51920 0.91460 0.01400
C 	C 	0.16402 0.52642 0.77122 0.09200
C 	C 	0.26534 0.51540 0.79402 0.03200
H 	H 	0.28760 0.51280 0.77480 0.01600
C 	C 	0.26215 0.52265 0.82205 -0.04500
C 	C 	0.22907 0.52639 0.85069 0.00500
H 	H 	0.22620 0.53080 0.87060 0.03800
C 	C 	0.20099 0.52357 0.84915 -0.09700
H 	H 	0.17810 0.52650 0.86770 0.06400
C 	C 	0.20664 0.51628 0.81994 0.05900
H 	H 	0.18710 0.51430 0.81930 -0.00200
C 	C 	0.29391 0.52389 0.82249 0.13200
C 	C 	0.35329 0.51751 0.79735 0.13200
C 	C 	0.31976 0.53154 0.84870 0.13100
C 	C 	0.38858 0.50818 0.76944 -0.04800
C 	C 	0.39248 0.50152 0.74042 0.00500
H 	H 	0.37210 0.50330 0.73770 0.03900
C 	C 	0.42649 0.49237 0.71583 -0.09300
H 	H 	0.43000 0.48780 0.69580 0.06400
C 	C 	0.45605 0.48991 0.72073 0.05300
H 	H 	0.47940 0.48360 0.70360 0.00400
C 	C 	0.41964 0.50488 0.77208 0.03900
H 	H 	0.41700 0.50920 0.79180 0.01300
C 	C 	0.44716 0.55412 0.79626 0.10500
C 	C 	0.46152 0.57300 0.70382 0.05200
H 	H 	0.44200 0.57220 0.72600 0.00400
C 	C 	0.45577 0.60127 0.67369 -0.09200
H 	H 	0.43280 0.61960 0.67500 0.06500
C 	C 	0.48426 0.60312 0.64052 -0.00000
H 	H 	0.48100 0.62240 0.61900 0.04100
C 	C 	0.51760 0.57566 0.64030 -0.04400
C 	C 	0.52120 0.54762 0.67212 0.03300
H 	H 	0.54390 0.52890 0.67150 0.01500
C 	C 	0.54917 0.57681 0.60651 0.13000
N 	N 	0.19531 0.51897 0.75557 -0.25700
N 	N 	0.29040 0.52790 0.94284 -0.22300
N 	N 	0.23794 0.51196 0.79300 -0.22400
N 	N 	0.28996 0.53098 0.84978 -0.14900
N 	N 	0.35226 0.52542 0.82270 -0.14900
N 	N 	0.32502 0.51684 0.79538 -0.14900
N 	N 	0.45268 0.49608 0.74848 -0.22600
N 	N 	0.46450 0.53302 0.78186 -0.26300
N 	N 	0.49377 0.54573 0.70405 -0.22400
N 	N 	0.54643 0.60719 0.57871 -0.15000
S 	S 	0.12139 0.53466 0.79494 -0.05900
S 	S 	0.42277 0.58377 0.81677 -0.06100
C 	C 	0.54032 0.31370 0.70656 0.06000
H 	H 	0.54170 0.31230 0.68570 -0.00000
C 	C 	0.55110 0.33956 0.70194 -0.09700
H 	H 	0.55980 0.35540 0.67840 0.06400
C 	C 	0.54930 0.34248 0.73226 0.00300
H 	H 	0.55610 0.36050 0.72990 0.03900
C 	C 	0.53722 0.31774 0.76590 -0.04400
C 	C 	0.52713 0.29227 0.76779 0.03400
H 	H 	0.51920 0.27540 0.79080 0.01400
C 	C 	0.52642 0.16402 0.03834 0.09200
C 	C 	0.51540 0.26534 0.92524 0.03200
H 	H 	0.51280 0.28760 0.92480 0.01600
C 	C 	0.52265 0.26215 0.89315 -0.04500
C 	C 	0.52639 0.22907 0.89385 0.00500
H 	H 	0.53080 0.22620 0.87240 0.03800
C 	C 	0.52357 0.20099 0.92629 -0.09700
H 	H 	0.52650 0.17810 0.92770 0.06400
C 	C 	0.51628 0.20664 0.95714 0.05900
H 	H 	0.51430 0.18710 0.97930 -0.00200
C 	C 	0.52389 0.29391 0.85971 0.13200
C 	C 	0.51751 0.35329 0.83185 0.13200
C 	C 	0.53154 0.31976 0.80000 0.13100
C 	C 	0.50818 0.38858 0.83380 -0.04800
C 	C 	0.50152 0.39248 0.86558 0.00500
H 	H 	0.50330 0.37210 0.88690 0.03900
C 	C 	0.49237 0.42649 0.86531 -0.09300
H 	H 	0.48780 0.43000 0.88640 0.06400
C 	C 	0.48991 0.45605 0.83331 0.05300
H 	H 	0.48360 0.47940 0.83340 0.00400
C 	C 	0.50488 0.41964 0.80340 0.03900
H 	H 	0.50920 0.41700 0.78200 0.01300
C 	C 	0.55412 0.44716 0.70246 0.10500
C 	C 	0.57300 0.46152 0.76166 0.05200
H 	H 	0.57220 0.44200 0.75980 0.00400
C 	C 	0.60127 0.45577 0.76927 -0.09200
H 	H 	0.61960 0.43280 0.77260 0.06500
C 	C 	0.60312 0.48426 0.77210 -0.00000
H 	H 	0.62240 0.48100 0.77760 0.04100
C 	C 	0.57566 0.51760 0.76644 -0.04400
C 	C 	0.54762 0.52120 0.75906 0.03300
H 	H 	0.52890 0.54390 0.75570 0.01500
C 	C 	0.57681 0.54917 0.76751 0.13000
N 	N 	0.51897 0.19531 0.03015 -0.25700
N 	N 	0.52790 0.29040 0.73886 -0.22300
N 	N 	0.51196 0.23794 0.95710 -0.22400
N 	N 	0.53098 0.28996 0.82928 -0.14900
N 	N 	0.52542 0.35226 0.79962 -0.14900
N 	N 	0.51684 0.32502 0.86276 -0.14900
N 	N 	0.49608 0.45268 0.80276 -0.22600
N 	N 	0.53302 0.46450 0.72062 -0.26300
N 	N 	0.54573 0.49377 0.75645 -0.22400
N 	N 	0.60719 0.54643 0.76767 -0.15000
S 	S 	0.53466 0.12139 0.04900 -0.05900
S 	S 	0.58377 0.42277 0.67669 -0.06100
C 	C 	0.31370 0.93942 0.70656 0.06000
H 	H 	0.31230 0.96030 0.68570 -0.00000
C 	C 	0.33956 0.90740 0.70194 -0.09700
H 	H 	0.35540 0.90640 0.67840 0.06500
C 	C 	0.34248 0.87596 0.73226 0.00300
H 	H 	0.36050 0.85350 0.72990 0.03900
C 	C 	0.31774 0.87914 0.76590 -0.04400
C 	C 	0.29227 0.91281 0.76779 0.03400
H 	H 	0.27540 0.91460 0.79080 0.01400
C 	C 	0.16402 0.77122 0.03834 0.09200
C 	C 	0.26534 0.79402 0.92524 0.03200
H 	H 	0.28760 0.77480 0.92480 0.01600
C 	C 	0.26215 0.82205 0.89315 -0.04500
C 	C 	0.22907 0.85069 0.89385 0.00500
H 	H 	0.22620 0.87060 0.87240 0.03800
C 	C 	0.20099 0.84915 0.92629 -0.09700
H 	H 	0.17810 0.86770 0.92770 0.06400
C 	C 	0.20664 0.81994 0.95714 0.05900
H 	H 	0.18710 0.81930 0.97930 -0.00200
C 	C 	0.29391 0.82249 0.85971 0.13200
C 	C 	0.35329 0.79735 0.83185 0.13200
C 	C 	0.31976 0.84870 0.80000 0.13100
C 	C 	0.38858 0.76944 0.83380 -0.04800
C 	C 	0.39248 0.74042 0.86558 0.00500
H 	H 	0.37210 0.73770 0.88690 0.03900
C 	C 	0.42649 0.71583 0.86531 -0.09300
H 	H 	0.43000 0.69580 0.88640 0.06400
C 	C 	0.45605 0.72073 0.83331 0.05300
H 	H 	0.47940 0.70360 0.83340 0.00400
C 	C 	0.41964 0.77208 0.80340 0.03900
H 	H 	0.41700 0.79180 0.78200 0.01300
C 	C 	0.44716 0.79626 0.70246 0.10500
C 	C 	0.46152 0.70382 0.76166 0.05200
H 	H 	0.44200 0.72600 0.75980 0.00400
C 	C 	0.45577 0.67369 0.76927 -0.09200
H 	H 	0.43280 0.67500 0.77260 0.06500
C 	C 	0.48426 0.64052 0.77210 -0.00000
H 	H 	0.48100 0.61900 0.77760 0.04100
C 	C 	0.51760 0.64030 0.76644 -0.04400
C 	C 	0.52120 0.67212 0.75906 0.03300
H 	H 	0.54390 0.67150 0.75570 0.01500
C 	C 	0.54917 0.60651 0.76751 0.13000
N 	N 	0.19531 0.75557 0.03015 -0.25700
N 	N 	0.29040 0.94284 0.73886 -0.22300
N 	N 	0.23794 0.79300 0.95710 -0.22400
N 	N 	0.28996 0.84978 0.82928 -0.14900
N 	N 	0.35226 0.82270 0.79962 -0.14900
N 	N 	0.32502 0.79538 0.86276 -0.14900
N 	N 	0.45268 0.74848 0.80276 -0.22600
N 	N 	0.46450 0.78186 0.72062 -0.26300
N 	N 	0.49377 0.70405 0.75645 -0.22400
N 	N 	0.54643 0.57871 0.76767 -0.15000
S 	S 	0.12139 0.79494 0.04900 -0.05900
S 	S 	0.42277 0.81677 0.67669 -0.06100
C 	C 	0.54032 0.70656 0.93942 0.06000
H 	H 	0.54170 0.68570 0.96030 -0.00000
C 	C 	0.55110 0.70194 0.90740 -0.09700
H 	H 	0.55980 0.67840 0.90640 0.06500
C 	C 	0.54930 0.73226 0.87596 0.00300
H 	H 	0.55610 0.72990 0.85350 0.03900
C 	C 	0.53722 0.76590 0.87914 -0.04400
C 	C 	0.52713 0.76779 0.91281 0.03400
H 	H 	0.51920 0.79080 0.91460 0.01400
C 	C 	0.52642 0.03834 0.77122 0.09200
C 	C 	0.51540 0.92524 0.79402 0.03200
H 	H 	0.51280 0.92480 0.77480 0.01600
C 	C 	0.52265 0.89315 0.82205 -0.04500
C 	C 	0.52639 0.89385 0.85069 0.00500
H 	H 	0.53080 0.87240 0.87060 0.03800
C 	C 	0.52357 0.92629 0.84915 -0.09700
H 	H 	0.52650 0.92770 0.86770 0.06400
C 	C 	0.51628 0.95714 0.81994 0.05900
H 	H 	0.51430 0.97930 0.81930 -0.00200
C 	C 	0.52389 0.85971 0.82249 0.13200
C 	C 	0.51751 0.83185 0.79735 0.13200
C 	C 	0.53154 0.80000 0.84870 0.13100
C 	C 	0.50818 0.83380 0.76944 -0.04800
C 	C 	0.50152 0.86558 0.74042 0.00500
H 	H 	0.50330 0.88690 0.73770 0.03900
C 	C 	0.49237 0.86531 0.71583 -0.09300
H 	H 	0.48780 0.88640 0.69580 0.06400
C 	C 	0.48991 0.83331 0.72073 0.05300
H 	H 	0.48360 0.83340 0.70360 0.00400
C 	C 	0.50488 0.80340 0.77208 0.03900
H 	H 	0.50920 0.78200 0.79180 0.01300
C 	C 	0.55412 0.70246 0.79626 0.10500
C 	C 	0.57300 0.76166 0.70382 0.05200
H 	H 	0.57220 0.75980 0.72600 0.00400
C 	C 	0.60127 0.76927 0.67369 -0.09200
H 	H 	0.61960 0.77260 0.67500 0.06500
C 	C 	0.60312 0.77210 0.64052 -0.00000
H 	H 	0.62240 0.77760 0.61900 0.04100
C 	C 	0.57566 0.76644 0.64030 -0.04400
C 	C 	0.54762 0.75906 0.67212 0.03300
H 	H 	0.52890 0.75570 0.67150 0.01500
C 	C 	0.57681 0.76751 0.60651 0.13000
N 	N 	0.51897 0.03015 0.75557 -0.25700
N 	N 	0.52790 0.73886 0.94284 -0.22300
N 	N 	0.51196 0.95710 0.79300 -0.22400
N 	N 	0.53098 0.82928 0.84978 -0.14900
N 	N 	0.52542 0.79962 0.82270 -0.14900
N 	N 	0.51684 0.86276 0.79538 -0.14900
N 	N 	0.49608 0.80276 0.74848 -0.22600
N 	N 	0.53302 0.72062 0.78186 -0.26300
N 	N 	0.54573 0.75645 0.70405 -0.22400
N 	N 	0.60719 0.76767 0.57871 -0.15000
S 	S 	0.53466 0.04900 0.79494 -0.05900
S 	S 	0.58377 0.67669 0.81677 -0.06100
C 	C 	0.93942 0.31370 0.54032 0.06000
H 	H 	0.96030 0.31230 0.54170 -0.00000
C 	C 	0.90740 0.33956 0.55110 -0.09700
H 	H 	0.90640 0.35540 0.55980 0.06500
C 	C 	0.87596 0.34248 0.54930 0.00300
H 	H 	0.85350 0.36050 0.55610 0.03900
C 	C 	0.87914 0.31774 0.53722 -0.04400
C 	C 	0.91281 0.29227 0.52713 0.03400
H 	H 	0.91460 0.27540 0.51920 0.01400
C 	C 	0.77122 0.16402 0.52642 0.09200
C 	C 	0.79402 0.26534 0.51540 0.03200
H 	H 	0.77480 0.28760 0.51280 0.01600
C 	C 	0.82205 0.26215 0.52265 -0.04500
C 	C 	0.85069 0.22907 0.52639 0.00500
H 	H 	0.87060 0.22620 0.53080 0.03800
C 	C 	0.84915 0.20099 0.52357 -0.09700
H 	H 	0.86770 0.17810 0.52650 0.06400
C 	C 	0.81994 0.20664 0.51628 0.05900
H 	H 	0.81930 0.18710 0.51430 -0.00200
C 	C 	0.82249 0.29391 0.52389 0.13200
C 	C 	0.79735 0.35329 0.51751 0.13200
C 	C 	0.84870 0.31976 0.53154 0.13100
C 	C 	0.76944 0.38858 0.50818 -0.04800
C 	C 	0.74042 0.39248 0.50152 0.00500
H 	H 	0.73770 0.37210 0.50330 0.03900
C 	C 	0.71583 0.42649 0.49237 -0.09300
H 	H 	0.69580 0.43000 0.48780 0.06400
C 	C 	0.72073 0.45605 0.48991 0.05300
H 	H 	0.70360 0.47940 0.48360 0.00400
C 	C 	0.77208 0.41964 0.50488 0.03900
H 	H 	0.79180 0.41700 0.50920 0.01300
C 	C 	0.79626 0.44716 0.55412 0.10500
C 	C 	0.70382 0.46152 0.57300 0.05200
H 	H 	0.72600 0.44200 0.57220 0.00400
C 	C 	0.67369 0.45577 0.60127 -0.09200
H 	H 	0.67500 0.43280 0.61960 0.06500
C 	C 	0.64052 0.48426 0.60312 -0.00000
H 	H 	0.61900 0.48100 0.62240 0.04100
C 	C 	0.64030 0.51760 0.57566 -0.04400
C 	C 	0.67212 0.52120 0.54762 0.03300
H 	H 	0.67150 0.54390 0.52890 0.01500
C 	C 	0.60651 0.54917 0.57681 0.13000
N 	N 	0.75557 0.19531 0.51897 -0.25700
N 	N 	0.94284 0.29040 0.52790 -0.22300
N 	N 	0.79300 0.23794 0.51196 -0.22400
N 	N 	0.84978 0.28996 0.53098 -0.14900
N 	N 	0.82270 0.35226 0.52542 -0.14900
N 	N 	0.79538 0.32502 0.51684 -0.14900
N 	N 	0.74848 0.45268 0.49608 -0.22600
N 	N 	0.78186 0.46450 0.53302 -0.26300
N 	N 	0.70405 0.49377 0.54573 -0.22400
N 	N 	0.57871 0.54643 0.60719 -0.15000
S 	S 	0.79494 0.12139 0.53466 -0.05900
S 	S 	0.81677 0.42277 0.58377 -0.06100
C 	C 	0.70656 0.54032 0.31370 0.06000
H 	H 	0.68570 0.54170 0.31230 -0.00000
C 	C 	0.70194 0.55110 0.33956 -0.09700
H 	H 	0.67840 0.55980 0.35540 0.06400
C 	C 	0.73226 0.54930 0.34248 0.00300
H 	H 	0.72990 0.55610 0.36050 0.03900
C 	C 	0.76590 0.53722 0.31774 -0.04400
C 	C 	0.76779 0.52713 0.29227 0.03400
H 	H 	0.79080 0.51920 0.27540 0.01400
C 	C 	0.03834 0.52642 0.16402 0.09200
C 	C 	0.92524 0.51540 0.26534 0.03200
H 	H 	0.92480 0.51280 0.28760 0.01600
C 	C 	0.89315 0.52265 0.26215 -0.04500
C 	C 	0.89385 0.52639 0.22907 0.00500
H 	H 	0.87240 0.53080 0.22620 0.03800
C 	C 	0.92629 0.52357 0.20099 -0.09700
H 	H 	0.92770 0.52650 0.17810 0.06400
C 	C 	0.95714 0.51628 0.20664 0.05900
H 	H 	0.97930 0.51430 0.18710 -0.00200
C 	C 	0.85971 0.52389 0.29391 0.13200
C 	C 	0.83185 0.51751 0.35329 0.13200
C 	C 	0.80000 0.53154 0.31976 0.13100
C 	C 	0.83380 0.50818 0.38858 -0.04800
C 	C 	0.86558 0.50152 0.39248 0.00500
H 	H 	0.88690 0.50330 0.37210 0.03900
C 	C 	0.86531 0.49237 0.42649 -0.09300
H 	H 	0.88640 0.48780 0.43000 0.06400
C 	C 	0.83331 0.48991 0.45605 0.05300
H 	H 	0.83340 0.48360 0.47940 0.00400
C 	C 	0.80340 0.50488 0.41964 0.03900
H 	H 	0.78200 0.50920 0.41700 0.01300
C 	C 	0.70246 0.55412 0.44716 0.10500
C 	C 	0.76166 0.57300 0.46152 0.05200
H 	H 	0.75980 0.57220 0.44200 0.00400
C 	C 	0.76927 0.60127 0.45577 -0.09200
H 	H 	0.77260 0.61960 0.43280 0.06500
C 	C 	0.77210 0.60312 0.48426 -0.00000
H 	H 	0.77760 0.62240 0.48100 0.04100
C 	C 	0.76644 0.57566 0.51760 -0.04400
C 	C 	0.75906 0.54762 0.52120 0.03300
H 	H 	0.75570 0.52890 0.54390 0.01500
C 	C 	0.76751 0.57681 0.54917 0.13000
N 	N 	0.03015 0.51897 0.19531 -0.25700
N 	N 	0.73886 0.52790 0.29040 -0.22300
N 	N 	0.95710 0.51196 0.23794 -0.22400
N 	N 	0.82928 0.53098 0.28996 -0.14900
N 	N 	0.79962 0.52542 0.35226 -0.14900
N 	N 	0.86276 0.51684 0.32502 -0.14900
N 	N 	0.80276 0.49608 0.45268 -0.22600
N 	N 	0.72062 0.53302 0.46450 -0.26300
N 	N 	0.75645 0.54573 0.49377 -0.22400
N 	N 	0.76767 0.60719 0.54643 -0.15000
S 	S 	0.04900 0.53466 0.12139 -0.05900
S 	S 	0.67669 0.58377 0.42277 -0.06100
C 	C 	0.70656 0.31370 0.93942 0.06000
H 	H 	0.68570 0.31230 0.96030 -0.00000
C 	C 	0.70194 0.33956 0.90740 -0.09700
H 	H 	0.67840 0.35540 0.90640 0.06500
C 	C 	0.73226 0.34248 0.87596 0.00300
H 	H 	0.72990 0.36050 0.85350 0.03900
C 	C 	0.76590 0.31774 0.87914 -0.04400
C 	C 	0.76779 0.29227 0.91281 0.03400
H 	H 	0.79080 0.27540 0.91460 0.01400
C 	C 	0.03834 0.16402 0.77122 0.09200
C 	C 	0.92524 0.26534 0.79402 0.03200
H 	H 	0.92480 0.28760 0.77480 0.01600
C 	C 	0.89315 0.26215 0.82205 -0.04500
C 	C 	0.89385 0.22907 0.85069 0.00500
H 	H 	0.87240 0.22620 0.87060 0.03800
C 	C 	0.92629 0.20099 0.84915 -0.09700
H 	H 	0.92770 0.17810 0.86770 0.06400
C 	C 	0.95714 0.20664 0.81994 0.05900
H 	H 	0.97930 0.18710 0.81930 -0.00200
C 	C 	0.85971 0.29391 0.82249 0.13200
C 	C 	0.83185 0.35329 0.79735 0.13200
C 	C 	0.80000 0.31976 0.84870 0.13100
C 	C 	0.83380 0.38858 0.76944 -0.04800
C 	C 	0.86558 0.39248 0.74042 0.00500
H 	H 	0.88690 0.37210 0.73770 0.03900
C 	C 	0.86531 0.42649 0.71583 -0.09300
H 	H 	0.88640 0.43000 0.69580 0.06400
C 	C 	0.83331 0.45605 0.72073 0.05300
H 	H 	0.83340 0.47940 0.70360 0.00400
C 	C 	0.80340 0.41964 0.77208 0.03900
H 	H 	0.78200 0.41700 0.79180 0.01300
C 	C 	0.70246 0.44716 0.79626 0.10500
C 	C 	0.76166 0.46152 0.70382 0.05200
H 	H 	0.75980 0.44200 0.72600 0.00400
C 	C 	0.76927 0.45577 0.67369 -0.09200
H 	H 	0.77260 0.43280 0.67500 0.06500
C 	C 	0.77210 0.48426 0.64052 -0.00000
H 	H 	0.77760 0.48100 0.61900 0.04100
C 	C 	0.76644 0.51760 0.64030 -0.04400
C 	C 	0.75906 0.52120 0.67212 0.03300
H 	H 	0.75570 0.54390 0.67150 0.01500
C 	C 	0.76751 0.54917 0.60651 0.13000
N 	N 	0.03015 0.19531 0.75557 -0.25700
N 	N 	0.73886 0.29040 0.94284 -0.22300
N 	N 	0.95710 0.23794 0.79300 -0.22400
N 	N 	0.82928 0.28996 0.84978 -0.14900
N 	N 	0.79962 0.35226 0.82270 -0.14900
N 	N 	0.86276 0.32502 0.79538 -0.14900
N 	N 	0.80276 0.45268 0.74848 -0.22600
N 	N 	0.72062 0.46450 0.78186 -0.26300
N 	N 	0.75645 0.49377 0.70405 -0.22400
N 	N 	0.76767 0.54643 0.57871 -0.15000
S 	S 	0.04900 0.12139 0.79494 -0.05900
S 	S 	0.67669 0.42277 0.81677 -0.06100
C 	C 	0.93942 0.54032 0.70656 0.06000
H 	H 	0.96030 0.54170 0.68570 -0.00000
C 	C 	0.90740 0.55110 0.70194 -0.09700
H 	H 	0.90640 0.55980 0.67840 0.06500
C 	C 	0.87596 0.54930 0.73226 0.00300
H 	H 	0.85350 0.55610 0.72990 0.03900
C 	C 	0.87914 0.53722 0.76590 -0.04400
C 	C 	0.91281 0.52713 0.76779 0.03400
H 	H 	0.91460 0.51920 0.79080 0.01400
C 	C 	0.77122 0.52642 0.03834 0.09200
C 	C 	0.79402 0.51540 0.92524 0.03200
H 	H 	0.77480 0.51280 0.92480 0.01600
C 	C 	0.82205 0.52265 0.89315 -0.04500
C 	C 	0.85069 0.52639 0.89385 0.00500
H 	H 	0.87060 0.53080 0.87240 0.03800
C 	C 	0.84915 0.52357 0.92629 -0.09700
H 	H 	0.86770 0.52650 0.92770 0.06400
C 	C 	0.81994 0.51628 0.95714 0.05900
H 	H 	0.81930 0.51430 0.97930 -0.00200
C 	C 	0.82249 0.52389 0.85971 0.13200
C 	C 	0.79735 0.51751 0.83185 0.13200
C 	C 	0.84870 0.53154 0.80000 0.13100
C 	C 	0.76944 0.50818 0.83380 -0.04800
C 	C 	0.74042 0.50152 0.86558 0.00500
H 	H 	0.73770 0.50330 0.88690 0.03900
C 	C 	0.71583 0.49237 0.86531 -0.09300
H 	H 	0.69580 0.48780 0.88640 0.06400
C 	C 	0.72073 0.48991 0.83331 0.05300
H 	H 	0.70360 0.48360 0.83340 0.00400
C 	C 	0.77208 0.50488 0.80340 0.03900
H 	H 	0.79180 0.50920 0.78200 0.01300
C 	C 	0.79626 0.55412 0.70246 0.10500
C 	C 	0.70382 0.57300 0.76166 0.05200
H 	H 	0.72600 0.57220 0.75980 0.00400
C 	C 	0.67369 0.60127 0.76927 -0.09200
H 	H 	0.67500 0.61960 0.77260 0.06500
C 	C 	0.64052 0.60312 0.77210 -0.00000
H 	H 	0.61900 0.62240 0.77760 0.04100
C 	C 	0.64030 0.57566 0.76644 -0.04400
C 	C 	0.67212 0.54762 0.75906 0.03300
H 	H 	0.67150 0.52890 0.75570 0.01500
C 	C 	0.60651 0.57681 0.76751 0.13000
N 	N 	0.75557 0.51897 0.03015 -0.25700
N 	N 	0.94284 0.52790 0.73886 -0.22300
N 	N 	0.79300 0.51196 0.95710 -0.22400
N 	N 	0.84978 0.53098 0.82928 -0.14900
N 	N 	0.82270 0.52542 0.79962 -0.14900
N 	N 	0.79538 0.51684 0.86276 -0.14900
N 	N 	0.74848 0.49608 0.80276 -0.22600
N 	N 	0.78186 0.53302 0.72062 -0.26300
N 	N 	0.70405 0.54573 0.75645 -0.22400
N 	N 	0.57871 0.60719 0.76767 -0.15000
S 	S 	0.79494 0.53466 0.04900 -0.05900
S 	S 	0.81677 0.58377 0.67669 -0.06100
C 	C 	0.54032 0.93942 0.31370 0.06000
H 	H 	0.54170 0.96030 0.31230 -0.00000
C 	C 	0.55110 0.90740 0.33956 -0.09700
H 	H 	0.55980 0.90640 0.35540 0.06500
C 	C 	0.54930 0.87596 0.34248 0.00300
H 	H 	0.55610 0.85350 0.36050 0.03900
C 	C 	0.53722 0.87914 0.31774 -0.04400
C 	C 	0.52713 0.91281 0.29227 0.03400
H 	H 	0.51920 0.91460 0.27540 0.01400
C 	C 	0.52642 0.77122 0.16402 0.09200
C 	C 	0.51540 0.79402 0.26534 0.03200
H 	H 	0.51280 0.77480 0.28760 0.01600
C 	C 	0.52265 0.82205 0.26215 -0.04500
C 	C 	0.52639 0.85069 0.22907 0.00500
H 	H 	0.53080 0.87060 0.22620 0.03800
C 	C 	0.52357 0.84915 0.20099 -0.09700
H 	H 	0.52650 0.86770 0.17810 0.06400
C 	C 	0.51628 0.81994 0.20664 0.05900
H 	H 	0.51430 0.81930 0.18710 -0.00200
C 	C 	0.52389 0.82249 0.29391 0.13200
C 	C 	0.51751 0.79735 0.35329 0.13200
C 	C 	0.53154 0.84870 0.31976 0.13100
C 	C 	0.50818 0.76944 0.38858 -0.04800
C 	C 	0.50152 0.74042 0.39248 0.00500
H 	H 	0.50330 0.73770 0.37210 0.03900
C 	C 	0.49237 0.71583 0.42649 -0.09300
H 	H 	0.48780 0.69580 0.43000 0.06400
C 	C 	0.48991 0.72073 0.45605 0.05300
H 	H 	0.48360 0.70360 0.47940 0.00400
C 	C 	0.50488 0.77208 0.41964 0.03900
H 	H 	0.50920 0.79180 0.41700 0.01300
C 	C 	0.55412 0.79626 0.44716 0.10500
C 	C 	0.57300 0.70382 0.46152 0.05200
H 	H 	0.57220 0.72600 0.44200 0.00400
C 	C 	0.60127 0.67369 0.45577 -0.09200
H 	H 	0.61960 0.67500 0.43280 0.06500
C 	C 	0.60312 0.64052 0.48426 -0.00000
H 	H 	0.62240 0.61900 0.48100 0.04100
C 	C 	0.57566 0.64030 0.51760 -0.04400
C 	C 	0.54762 0.67212 0.52120 0.03300
H 	H 	0.52890 0.67150 0.54390 0.01500
C 	C 	0.57681 0.60651 0.54917 0.13000
N 	N 	0.51897 0.75557 0.19531 -0.25700
N 	N 	0.52790 0.94284 0.29040 -0.22300
N 	N 	0.51196 0.79300 0.23794 -0.22400
N 	N 	0.53098 0.84978 0.28996 -0.14900
N 	N 	0.52542 0.82270 0.35226 -0.14900
N 	N 	0.51684 0.79538 0.32502 -0.14900
N 	N 	0.49608 0.74848 0.45268 -0.22600
N 	N 	0.53302 0.78186 0.46450 -0.26300
N 	N 	0.54573 0.70405 0.49377 -0.22400
N 	N 	0.60719 0.57871 0.54643 -0.15000
S 	S 	0.53466 0.79494 0.12139 -0.05900
S 	S 	0.58377 0.81677 0.42277 -0.06100
C 	C 	0.31370 0.70656 0.54032 0.06000
H 	H 	0.31230 0.68570 0.54170 -0.00000
C 	C 	0.33956 0.70194 0.55110 -0.09700
H 	H 	0.35540 0.67840 0.55980 0.06400
C 	C 	0.34248 0.73226 0.54930 0.00300
H 	H 	0.36050 0.72990 0.55610 0.03900
C 	C 	0.31774 0.76590 0.53722 -0.04400
C 	C 	0.29227 0.76779 0.52713 0.03400
H 	H 	0.27540 0.79080 0.51920 0.01400
C 	C 	0.16402 0.03834 0.52642 0.09200
C 	C 	0.26534 0.92524 0.51540 0.03200
H 	H 	0.28760 0.92480 0.51280 0.01600
C 	C 	0.26215 0.89315 0.52265 -0.04500
C 	C 	0.22907 0.89385 0.52639 0.00500
H 	H 	0.22620 0.87240 0.53080 0.03800
C 	C 	0.20099 0.92629 0.52357 -0.09700
H 	H 	0.17810 0.92770 0.52650 0.06400
C 	C 	0.20664 0.95714 0.51628 0.05900
H 	H 	0.18710 0.97930 0.51430 -0.00200
C 	C 	0.29391 0.85971 0.52389 0.13200
C 	C 	0.35329 0.83185 0.51751 0.13200
C 	C 	0.31976 0.80000 0.53154 0.13100
C 	C 	0.38858 0.83380 0.50818 -0.04800
C 	C 	0.39248 0.86558 0.50152 0.00500
H 	H 	0.37210 0.88690 0.50330 0.03900
C 	C 	0.42649 0.86531 0.49237 -0.09300
H 	H 	0.43000 0.88640 0.48780 0.06400
C 	C 	0.45605 0.83331 0.48991 0.05300
H 	H 	0.47940 0.83340 0.48360 0.00400
C 	C 	0.41964 0.80340 0.50488 0.03900
H 	H 	0.41700 0.78200 0.50920 0.01300
C 	C 	0.44716 0.70246 0.55412 0.10500
C 	C 	0.46152 0.76166 0.57300 0.05200
H 	H 	0.44200 0.75980 0.57220 0.00400
C 	C 	0.45577 0.76927 0.60127 -0.09200
H 	H 	0.43280 0.77260 0.61960 0.06500
C 	C 	0.48426 0.77210 0.60312 -0.00000
H 	H 	0.48100 0.77760 0.62240 0.04100
C 	C 	0.51760 0.76644 0.57566 -0.04400
C 	C 	0.52120 0.75906 0.54762 0.03300
H 	H 	0.54390 0.75570 0.52890 0.01500
C 	C 	0.54917 0.76751 0.57681 0.13000
N 	N 	0.19531 0.03015 0.51897 -0.25700
N 	N 	0.29040 0.73886 0.52790 -0.22300
N 	N 	0.23794 0.95710 0.51196 -0.22400
N 	N 	0.28996 0.82928 0.53098 -0.14900
N 	N 	0.35226 0.79962 0.52542 -0.14900
N 	N 	0.32502 0.86276 0.51684 -0.14900
N 	N 	0.45268 0.80276 0.49608 -0.22600
N 	N 	0.46450 0.72062 0.53302 -0.26300
N 	N 	0.49377 0.75645 0.54573 -0.22400
N 	N 	0.54643 0.76767 0.60719 -0.15000
S 	S 	0.12139 0.04900 0.53466 -0.05900
S 	S 	0.42277 0.67669 0.58377 -0.06100
C 	C 	0.56058 0.79344 0.95968 0.06000
H 	H 	0.53970 0.81430 0.95830 -0.00000
C 	C 	0.59260 0.79806 0.94890 -0.09700
H 	H 	0.59360 0.82160 0.94020 0.06500
C 	C 	0.62404 0.76774 0.95070 0.00300
H 	H 	0.64650 0.77010 0.94390 0.03900
C 	C 	0.62086 0.73410 0.96278 -0.04400
C 	C 	0.58719 0.73221 0.97287 0.03400
H 	H 	0.58540 0.70920 0.98080 0.01400
C 	C 	0.72878 0.46166 0.97358 0.09200
C 	C 	0.70598 0.57476 0.98460 0.03200
H 	H 	0.72520 0.57520 0.98720 0.01600
C 	C 	0.67795 0.60685 0.97735 -0.04500
C 	C 	0.64931 0.60615 0.97361 0.00500
H 	H 	0.62940 0.62760 0.96920 0.03800
C 	C 	0.65085 0.57371 0.97643 -0.09700
H 	H 	0.63230 0.57230 0.97350 0.06400
C 	C 	0.68006 0.54286 0.98372 0.05900
H 	H 	0.68070 0.52070 0.98570 -0.00200
C 	C 	0.67751 0.64029 0.97611 0.13200
C 	C 	0.70265 0.66815 0.98249 0.13200
C 	C 	0.65130 0.70000 0.96846 0.13100
C 	C 	0.73056 0.66620 0.99182 -0.04800
C 	C 	0.75958 0.63442 0.99848 0.00500
H 	H 	0.76230 0.61310 0.99670 0.03900
C 	C 	0.78417 0.63469 0.00763 -0.09300
H 	H 	0.80420 0.61360 0.01220 0.06400
C 	C 	0.77927 0.66669 0.01009 0.05300
H 	H 	0.79640 0.66660 0.01640 0.00400
C 	C 	0.72792 0.69660 0.99512 0.03900
H 	H 	0.70820 0.71800 0.99080 0.01300
C 	C 	0.70374 0.79754 0.94588 0.10500
C 	C 	0.79618 0.73834 0.92700 0.05200
H 	H 	0.77400 0.74020 0.92780 0.00400
C 	C 	0.82631 0.73073 0.89873 -0.09200
H 	H 	0.82500 0.72740 0.88040 0.06500
C 	C 	0.85948 0.72790 0.89688 -0.00000
H 	H 	0.88100 0.72240 0.87760 0.04100
C 	C 	0.85970 0.73356 0.92434 -0.04400
C 	C 	0.82788 0.74094 0.95238 0.03300
H 	H 	0.82850 0.74430 0.97110 0.01500
C 	C 	0.89349 0.73249 0.92319 0.13000
N 	N 	0.74443 0.46985 0.98103 -0.25700
N 	N 	0.55716 0.76114 0.97210 -0.22300
N 	N 	0.70700 0.54290 0.98804 -0.22400
N 	N 	0.65022 0.67072 0.96902 -0.14900
N 	N 	0.67730 0.70038 0.97458 -0.14900
N 	N 	0.70462 0.63724 0.98316 -0.14900
N 	N 	0.75152 0.69724 0.00392 -0.22600
N 	N 	0.71814 0.77938 0.96698 -0.26300
N 	N 	0.79595 0.74355 0.95427 -0.22400
N 	N 	0.92129 0.73233 0.89281 -0.15000
S 	S 	0.70506 0.45100 0.96534 -0.05900
S 	S 	0.68323 0.82331 0.91623 -0.06100
C 	C 	0.79344 0.56058 0.18630 0.06000
H 	H 	0.81430 0.53970 0.18770 -0.00000
C 	C 	0.79806 0.59260 0.16044 -0.09700
H 	H 	0.82160 0.59360 0.14460 0.06500
C 	C 	0.76774 0.62404 0.15752 0.00300
H 	H 	0.77010 0.64650 0.13950 0.03900
C 	C 	0.73410 0.62086 0.18226 -0.04400
C 	C 	0.73221 0.58719 0.20773 0.03400
H 	H 	0.70920 0.58540 0.22460 0.01400
C 	C 	0.46166 0.72878 0.33598 0.09200
C 	C 	0.57476 0.70598 0.23466 0.03200
H 	H 	0.57520 0.72520 0.21240 0.01600
C 	C 	0.60685 0.67795 0.23785 -0.04500
C 	C 	0.60615 0.64931 0.27093 0.00500
H 	H 	0.62760 0.62940 0.27380 0.03800
C 	C 	0.57371 0.65085 0.29901 -0.09700
H 	H 	0.57230 0.63230 0.32190 0.06400
C 	C 	0.54286 0.68006 0.29336 0.05900
H 	H 	0.52070 0.68070 0.31290 -0.00200
C 	C 	0.64029 0.67751 0.20609 0.13200
C 	C 	0.66815 0.70265 0.14671 0.13200
C 	C 	0.70000 0.65130 0.18024 0.13100
C 	C 	0.66620 0.73056 0.11142 -0.04800
C 	C 	0.63442 0.75958 0.10752 0.00500
H 	H 	0.61310 0.76230 0.12790 0.03900
C 	C 	0.63469 0.78417 0.07351 -0.09300
H 	H 	0.61360 0.80420 0.07000 0.06400
C 	C 	0.66669 0.77927 0.04395 0.05300
H 	H 	0.66660 0.79640 0.02060 0.00400
C 	C 	0.69660 0.72792 0.08036 0.03900
H 	H 	0.71800 0.70820 0.08300 0.01300
C 	C 	0.79754 0.70374 0.05284 0.10500
C 	C 	0.73834 0.79618 0.03848 0.05200
H 	H 	0.74020 0.77400 0.05800 0.00400
C 	C 	0.73073 0.82631 0.04423 -0.09200
H 	H 	0.72740 0.82500 0.06720 0.06500
C 	C 	0.72790 0.85948 0.01574 -0.00000
H 	H 	0.72240 0.88100 0.01900 0.04100
C 	C 	0.73356 0.85970 0.98240 -0.04400
C 	C 	0.74094 0.82788 0.97880 0.03300
H 	H 	0.74430 0.82850 0.95610 0.01500
C 	C 	0.73249 0.89349 0.95083 0.13000
N 	N 	0.46985 0.74443 0.30469 -0.25700
N 	N 	0.76114 0.55716 0.20960 -0.22300
N 	N 	0.54290 0.70700 0.26206 -0.22400
N 	N 	0.67072 0.65022 0.21004 -0.14900
N 	N 	0.70038 0.67730 0.14774 -0.14900
N 	N 	0.63724 0.70462 0.17498 -0.14900
N 	N 	0.69724 0.75152 0.04732 -0.22600
N 	N 	0.77938 0.71814 0.03550 -0.26300
N 	N 	0.74355 0.79595 0.00623 -0.22400
N 	N 	0.73233 0.92129 0.95357 -0.15000
S 	S 	0.45100 0.70506 0.37861 -0.05900
S 	S 	0.82331 0.68323 0.07723 -0.06100
C 	C 	0.18630 0.95968 0.79344 0.06000
H 	H 	0.18770 0.95830 0.81430 -0.00000
C 	C 	0.16044 0.94890 0.79806 -0.09700
H 	H 	0.14460 0.94020 0.82160 0.06500
C 	C 	0.15752 0.95070 0.76774 0.00300
H 	H 	0.13950 0.94390 0.77010 0.03900
C 	C 	0.18226 0.96278 0.73410 -0.04400
C 	C 	0.20773 0.97287 0.73221 0.03400
H 	H 	0.22460 0.98080 0.70920 0.01400
C 	C 	0.33598 0.97358 0.46166 0.09200
C 	C 	0.23466 0.98460 0.57476 0.03200
H 	H 	0.21240 0.98720 0.57520 0.01600
C 	C 	0.23785 0.97735 0.60685 -0.04500
C 	C 	0.27093 0.97361 0.60615 0.00500
H 	H 	0.27380 0.96920 0.62760 0.03800
C 	C 	0.29901 0.97643 0.57371 -0.09700
H 	H 	0.32190 0.97350 0.57230 0.06400
C 	C 	0.29336 0.98372 0.54286 0.05900
H 	H 	0.31290 0.98570 0.52070 -0.00200
C 	C 	0.20609 0.97611 0.64029 0.13200
C 	C 	0.14671 0.98249 0.66815 0.13200
C 	C 	0.18024 0.96846 0.70000 0.13100
C 	C 	0.11142 0.99182 0.66620 -0.04800
C 	C 	0.10752 0.99848 0.63442 0.00500
H 	H 	0.12790 0.99670 0.61310 0.03900
C 	C 	0.07351 0.00763 0.63469 -0.09200
H 	H 	0.07000 0.01220 0.61360 0.06400
C 	C 	0.04395 0.01009 0.66669 0.05300
H 	H 	0.02060 0.01640 0.66660 0.00400
C 	C 	0.08036 0.99512 0.69660 0.03900
H 	H 	0.08300 0.99080 0.71800 0.01300
C 	C 	0.05284 0.94588 0.79754 0.10500
C 	C 	0.03848 0.92700 0.73834 0.05200
H 	H 	0.05800 0.92780 0.74020 0.00400
C 	C 	0.04423 0.89873 0.73073 -0.09200
H 	H 	0.06720 0.88040 0.72740 0.06500
C 	C 	0.01574 0.89688 0.72790 -0.00000
H 	H 	0.01900 0.87760 0.72240 0.04100
C 	C 	0.98240 0.92434 0.73356 -0.04400
C 	C 	0.97880 0.95238 0.74094 0.03300
H 	H 	0.95610 0.97110 0.74430 0.01500
C 	C 	0.95083 0.92319 0.73249 0.13000
N 	N 	0.30469 0.98103 0.46985 -0.25700
N 	N 	0.20960 0.97210 0.76114 -0.22300
N 	N 	0.26206 0.98804 0.54290 -0.22400
N 	N 	0.21004 0.96902 0.67072 -0.14900
N 	N 	0.14774 0.97458 0.70038 -0.14900
N 	N 	0.17498 0.98316 0.63724 -0.14900
N 	N 	0.04732 0.00392 0.69724 -0.22600
N 	N 	0.03550 0.96698 0.77938 -0.26300
N 	N 	0.00623 0.95427 0.74355 -0.22400
N 	N 	0.95357 0.89281 0.73233 -0.15000
S 	S 	0.37861 0.96534 0.45100 -0.05900
S 	S 	0.07723 0.91623 0.82331 -0.06100
C 	C 	0.95968 0.18630 0.56058 0.06000
H 	H 	0.95830 0.18770 0.53970 -0.00000
C 	C 	0.94890 0.16044 0.59260 -0.09700
H 	H 	0.94020 0.14460 0.59360 0.06500
C 	C 	0.95070 0.15752 0.62404 0.00300
H 	H 	0.94390 0.13950 0.64650 0.03900
C 	C 	0.96278 0.18226 0.62086 -0.04400
C 	C 	0.97287 0.20773 0.58719 0.03400
H 	H 	0.98080 0.22460 0.58540 0.01400
C 	C 	0.97358 0.33598 0.72878 0.09200
C 	C 	0.98460 0.23466 0.70598 0.03200
H 	H 	0.98720 0.21240 0.72520 0.01600
C 	C 	0.97735 0.23785 0.67795 -0.04500
C 	C 	0.97361 0.27093 0.64931 0.00500
H 	H 	0.96920 0.27380 0.62940 0.03800
C 	C 	0.97643 0.29901 0.65085 -0.09700
H 	H 	0.97350 0.32190 0.63230 0.06400
C 	C 	0.98372 0.29336 0.68006 0.05900
H 	H 	0.98570 0.31290 0.68070 -0.00200
C 	C 	0.97611 0.20609 0.67751 0.13200
C 	C 	0.98249 0.14671 0.70265 0.13200
C 	C 	0.96846 0.18024 0.65130 0.13100
C 	C 	0.99182 0.11142 0.73056 -0.04800
C 	C 	0.99848 0.10752 0.75958 0.00500
H 	H 	0.99670 0.12790 0.76230 0.03900
C 	C 	0.00763 0.07351 0.78417 -0.09300
H 	H 	0.01220 0.07000 0.80420 0.06400
C 	C 	0.01009 0.04395 0.77927 0.05300
H 	H 	0.01640 0.02060 0.79640 0.00400
C 	C 	0.99512 0.08036 0.72792 0.03900
H 	H 	0.99080 0.08300 0.70820 0.01300
C 	C 	0.94588 0.05284 0.70374 0.10500
C 	C 	0.92700 0.03848 0.79618 0.05200
H 	H 	0.92780 0.05800 0.77400 0.00400
C 	C 	0.89873 0.04423 0.82631 -0.09200
H 	H 	0.88040 0.06720 0.82500 0.06500
C 	C 	0.89688 0.01574 0.85948 -0.00000
H 	H 	0.87760 0.01900 0.88100 0.04100
C 	C 	0.92434 0.98240 0.85970 -0.04400
C 	C 	0.95238 0.97880 0.82788 0.03300
H 	H 	0.97110 0.95610 0.82850 0.01500
C 	C 	0.92319 0.95083 0.89349 0.13000
N 	N 	0.98103 0.30469 0.74443 -0.25700
N 	N 	0.97210 0.20960 0.55716 -0.22300
N 	N 	0.98804 0.26206 0.70700 -0.22400
N 	N 	0.96902 0.21004 0.65022 -0.14900
N 	N 	0.97458 0.14774 0.67730 -0.14900
N 	N 	0.98316 0.17498 0.70462 -0.14900
N 	N 	0.00392 0.04732 0.75152 -0.22600
N 	N 	0.96698 0.03550 0.71814 -0.26300
N 	N 	0.95427 0.00623 0.79595 -0.22400
N 	N 	0.89281 0.95357 0.92129 -0.15000
S 	S 	0.96534 0.37861 0.70506 -0.05900
S 	S 	0.91623 0.07723 0.68323 -0.06100
C 	C 	0.18630 0.56058 0.95968 0.06000
H 	H 	0.18770 0.53970 0.95830 -0.00000
C 	C 	0.16044 0.59260 0.94890 -0.09700
H 	H 	0.14460 0.59360 0.94020 0.06500
C 	C 	0.15752 0.62404 0.95070 0.00300
H 	H 	0.13950 0.64650 0.94390 0.03900
C 	C 	0.18226 0.62086 0.96278 -0.04400
C 	C 	0.20773 0.58719 0.97287 0.03400
H 	H 	0.22460 0.58540 0.98080 0.01400
C 	C 	0.33598 0.72878 0.97358 0.09200
C 	C 	0.23466 0.70598 0.98460 0.03200
H 	H 	0.21240 0.72520 0.98720 0.01600
C 	C 	0.23785 0.67795 0.97735 -0.04500
C 	C 	0.27093 0.64931 0.97361 0.00500
H 	H 	0.27380 0.62940 0.96920 0.03800
C 	C 	0.29901 0.65085 0.97643 -0.09700
H 	H 	0.32190 0.63230 0.97350 0.06400
C 	C 	0.29336 0.68006 0.98372 0.05900
H 	H 	0.31290 0.68070 0.98570 -0.00200
C 	C 	0.20609 0.67751 0.97611 0.13200
C 	C 	0.14671 0.70265 0.98249 0.13200
C 	C 	0.18024 0.65130 0.96846 0.13100
C 	C 	0.11142 0.73056 0.99182 -0.04800
C 	C 	0.10752 0.75958 0.99848 0.00500
H 	H 	0.12790 0.76230 0.99670 0.03900
C 	C 	0.07351 0.78417 0.00763 -0.09300
H 	H 	0.07000 0.80420 0.01220 0.06400
C 	C 	0.04395 0.77927 0.01009 0.05300
H 	H 	0.02060 0.79640 0.01640 0.00400
C 	C 	0.08036 0.72792 0.99512 0.03900
H 	H 	0.08300 0.70820 0.99080 0.01300
C 	C 	0.05284 0.70374 0.94588 0.10500
C 	C 	0.03848 0.79618 0.92700 0.05200
H 	H 	0.05800 0.77400 0.92780 0.00400
C 	C 	0.04423 0.82631 0.89873 -0.09200
H 	H 	0.06720 0.82500 0.88040 0.06500
C 	C 	0.01574 0.85948 0.89688 -0.00000
H 	H 	0.01900 0.88100 0.87760 0.04100
C 	C 	0.98240 0.85970 0.92434 -0.04400
C 	C 	0.97880 0.82788 0.95238 0.03300
H 	H 	0.95610 0.82850 0.97110 0.01500
C 	C 	0.95083 0.89349 0.92319 0.13000
N 	N 	0.30469 0.74443 0.98103 -0.25700
N 	N 	0.20960 0.55716 0.97210 -0.22300
N 	N 	0.26206 0.70700 0.98804 -0.22400
N 	N 	0.21004 0.65022 0.96902 -0.14900
N 	N 	0.14774 0.67730 0.97458 -0.14900
N 	N 	0.17498 0.70462 0.98316 -0.14900
N 	N 	0.04732 0.75152 0.00392 -0.22600
N 	N 	0.03550 0.71814 0.96698 -0.26300
N 	N 	0.00623 0.79595 0.95427 -0.22400
N 	N 	0.95357 0.92129 0.89281 -0.15000
S 	S 	0.37861 0.70506 0.96534 -0.05900
S 	S 	0.07723 0.68323 0.91623 -0.06100
C 	C 	0.95968 0.79344 0.18630 0.06000
H 	H 	0.95830 0.81430 0.18770 -0.00000
C 	C 	0.94890 0.79806 0.16044 -0.09700
H 	H 	0.94020 0.82160 0.14460 0.06500
C 	C 	0.95070 0.76774 0.15752 0.00300
H 	H 	0.94390 0.77010 0.13950 0.03900
C 	C 	0.96278 0.73410 0.18226 -0.04400
C 	C 	0.97287 0.73221 0.20773 0.03400
H 	H 	0.98080 0.70920 0.22460 0.01400
C 	C 	0.97358 0.46166 0.33598 0.09200
C 	C 	0.98460 0.57476 0.23466 0.03200
H 	H 	0.98720 0.57520 0.21240 0.01600
C 	C 	0.97735 0.60685 0.23785 -0.04500
C 	C 	0.97361 0.60615 0.27093 0.00500
H 	H 	0.96920 0.62760 0.27380 0.03800
C 	C 	0.97643 0.57371 0.29901 -0.09700
H 	H 	0.97350 0.57230 0.32190 0.06400
C 	C 	0.98372 0.54286 0.29336 0.05900
H 	H 	0.98570 0.52070 0.31290 -0.00200
C 	C 	0.97611 0.64029 0.20609 0.13200
C 	C 	0.98249 0.66815 0.14671 0.13200
C 	C 	0.96846 0.70000 0.18024 0.13100
C 	C 	0.99182 0.66620 0.11142 -0.04800
C 	C 	0.99848 0.63442 0.10752 0.00500
H 	H 	0.99670 0.61310 0.12790 0.03900
C 	C 	0.00763 0.63469 0.07351 -0.09200
H 	H 	0.01220 0.61360 0.07000 0.06400
C 	C 	0.01009 0.66669 0.04395 0.05300
H 	H 	0.01640 0.66660 0.02060 0.00400
C 	C 	0.99512 0.69660 0.08036 0.03900
H 	H 	0.99080 0.71800 0.08300 0.01300
C 	C 	0.94588 0.79754 0.05284 0.10500
C 	C 	0.92700 0.73834 0.03848 0.05200
H 	H 	0.92780 0.74020 0.05800 0.00400
C 	C 	0.89873 0.73073 0.04423 -0.09200
H 	H 	0.88040 0.72740 0.06720 0.06500
C 	C 	0.89688 0.72790 0.01574 -0.00000
H 	H 	0.87760 0.72240 0.01900 0.04100
C 	C 	0.92434 0.73356 0.98240 -0.04400
C 	C 	0.95238 0.74094 0.97880 0.03300
H 	H 	0.97110 0.74430 0.95610 0.01500
C 	C 	0.92319 0.73249 0.95083 0.13000
N 	N 	0.98103 0.46985 0.30469 -0.25700
N 	N 	0.97210 0.76114 0.20960 -0.22300
N 	N 	0.98804 0.54290 0.26206 -0.22400
N 	N 	0.96902 0.67072 0.21004 -0.14900
N 	N 	0.97458 0.70038 0.14774 -0.14900
N 	N 	0.98316 0.63724 0.17498 -0.14900
N 	N 	0.00392 0.69724 0.04732 -0.22600
N 	N 	0.96698 0.77938 0.03550 -0.26300
N 	N 	0.95427 0.74355 0.00623 -0.22400
N 	N 	0.89281 0.73233 0.95357 -0.15000
S 	S 	0.96534 0.45100 0.37861 -0.05900
S 	S 	0.91623 0.82331 0.07723 -0.06100
C 	C 	0.56058 0.18630 0.79344 0.06000
H 	H 	0.53970 0.18770 0.81430 -0.00000
C 	C 	0.59260 0.16044 0.79806 -0.09700
H 	H 	0.59360 0.14460 0.82160 0.06500
C 	C 	0.62404 0.15752 0.76774 0.00300
H 	H 	0.64650 0.13950 0.77010 0.03900
C 	C 	0.62086 0.18226 0.73410 -0.04400
C 	C 	0.58719 0.20773 0.73221 0.03400
H 	H 	0.58540 0.22460 0.70920 0.01400
C 	C 	0.72878 0.33598 0.46166 0.09200
C 	C 	0.70598 0.23466 0.57476 0.03200
H 	H 	0.72520 0.21240 0.57520 0.01600
C 	C 	0.67795 0.23785 0.60685 -0.04500
C 	C 	0.64931 0.27093 0.60615 0.00500
H 	H 	0.62940 0.27380 0.62760 0.03800
C 	C 	0.65085 0.29901 0.57371 -0.09700
H 	H 	0.63230 0.32190 0.57230 0.06400
C 	C 	0.68006 0.29336 0.54286 0.05900
H 	H 	0.68070 0.31290 0.52070 -0.00200
C 	C 	0.67751 0.20609 0.64029 0.13200
C 	C 	0.70265 0.14671 0.66815 0.13200
C 	C 	0.65130 0.18024 0.70000 0.13100
C 	C 	0.73056 0.11142 0.66620 -0.04800
C 	C 	0.75958 0.10752 0.63442 0.00500
H 	H 	0.76230 0.12790 0.61310 0.03900
C 	C 	0.78417 0.07351 0.63469 -0.09300
H 	H 	0.80420 0.07000 0.61360 0.06400
C 	C 	0.77927 0.04395 0.66669 0.05300
H 	H 	0.79640 0.02060 0.66660 0.00400
C 	C 	0.72792 0.08036 0.69660 0.03900
H 	H 	0.70820 0.08300 0.71800 0.01300
C 	C 	0.70374 0.05284 0.79754 0.10500
C 	C 	0.79618 0.03848 0.73834 0.05200
H 	H 	0.77400 0.05800 0.74020 0.00400
C 	C 	0.82631 0.04423 0.73073 -0.09200
H 	H 	0.82500 0.06720 0.72740 0.06500
C 	C 	0.85948 0.01574 0.72790 -0.00000
H 	H 	0.88100 0.01900 0.72240 0.04100
C 	C 	0.85970 0.98240 0.73356 -0.04400
C 	C 	0.82788 0.97880 0.74094 0.03300
H 	H 	0.82850 0.95610 0.74430 0.01500
C 	C 	0.89349 0.95083 0.73249 0.13000
N 	N 	0.74443 0.30469 0.46985 -0.25700
N 	N 	0.55716 0.20960 0.76114 -0.22300
N 	N 	0.70700 0.26206 0.54290 -0.22400
N 	N 	0.65022 0.21004 0.67072 -0.14900
N 	N 	0.67730 0.14774 0.70038 -0.14900
N 	N 	0.70462 0.17498 0.63724 -0.14900
N 	N 	0.75152 0.04732 0.69724 -0.22600
N 	N 	0.71814 0.03550 0.77938 -0.26300
N 	N 	0.79595 0.00623 0.74355 -0.22400
N 	N 	0.92129 0.95357 0.73233 -0.15000
S 	S 	0.70506 0.37861 0.45100 -0.05900
S 	S 	0.68323 0.07723 0.82331 -0.06100
C 	C 	0.79344 0.95968 0.56058 0.06000
H 	H 	0.81430 0.95830 0.53970 -0.00000
C 	C 	0.79806 0.94890 0.59260 -0.09700
H 	H 	0.82160 0.94020 0.59360 0.06500
C 	C 	0.76774 0.95070 0.62404 0.00300
H 	H 	0.77010 0.94390 0.64650 0.03900
C 	C 	0.73410 0.96278 0.62086 -0.04400
C 	C 	0.73221 0.97287 0.58719 0.03400
H 	H 	0.70920 0.98080 0.58540 0.01400
C 	C 	0.46166 0.97358 0.72878 0.09200
C 	C 	0.57476 0.98460 0.70598 0.03200
H 	H 	0.57520 0.98720 0.72520 0.01600
C 	C 	0.60685 0.97735 0.67795 -0.04500
C 	C 	0.60615 0.97361 0.64931 0.00500
H 	H 	0.62760 0.96920 0.62940 0.03800
C 	C 	0.57371 0.97643 0.65085 -0.09700
H 	H 	0.57230 0.97350 0.63230 0.06400
C 	C 	0.54286 0.98372 0.68006 0.05900
H 	H 	0.52070 0.98570 0.68070 -0.00200
C 	C 	0.64029 0.97611 0.67751 0.13200
C 	C 	0.66815 0.98249 0.70265 0.13200
C 	C 	0.70000 0.96846 0.65130 0.13100
C 	C 	0.66620 0.99182 0.73056 -0.04800
C 	C 	0.63442 0.99848 0.75958 0.00500
H 	H 	0.61310 0.99670 0.76230 0.03900
C 	C 	0.63469 0.00763 0.78417 -0.09300
H 	H 	0.61360 0.01220 0.80420 0.06400
C 	C 	0.66669 0.01009 0.77927 0.05300
H 	H 	0.66660 0.01640 0.79640 0.00400
C 	C 	0.69660 0.99512 0.72792 0.03900
H 	H 	0.71800 0.99080 0.70820 0.01300
C 	C 	0.79754 0.94588 0.70374 0.10500
C 	C 	0.73834 0.92700 0.79618 0.05200
H 	H 	0.74020 0.92780 0.77400 0.00400
C 	C 	0.73073 0.89873 0.82631 -0.09200
H 	H 	0.72740 0.88040 0.82500 0.06500
C 	C 	0.72790 0.89688 0.85948 -0.00000
H 	H 	0.72240 0.87760 0.88100 0.04100
C 	C 	0.73356 0.92434 0.85970 -0.04400
C 	C 	0.74094 0.95238 0.82788 0.03300
H 	H 	0.74430 0.97110 0.82850 0.01500
C 	C 	0.73249 0.92319 0.89349 0.13000
N 	N 	0.46985 0.98103 0.74443 -0.25700
N 	N 	0.76114 0.97210 0.55716 -0.22300
N 	N 	0.54290 0.98804 0.70700 -0.22400
N 	N 	0.67072 0.96902 0.65022 -0.14900
N 	N 	0.70038 0.97458 0.67730 -0.14900
N 	N 	0.63724 0.98316 0.70462 -0.14900
N 	N 	0.69724 0.00392 0.75152 -0.22600
N 	N 	0.77938 0.96698 0.71814 -0.26300
N 	N 	0.74355 0.95427 0.79595 -0.22400
N 	N 	0.73233 0.89281 0.92129 -0.15000
S 	S 	0.45100 0.96534 0.70506 -0.05900
S 	S 	0.82331 0.91623 0.68323 -0.06100
C 	C 	0.79344 0.18630 0.95968 0.06000
H 	H 	0.81430 0.18770 0.95830 -0.00000
C 	C 	0.79806 0.16044 0.94890 -0.09700
H 	H 	0.82160 0.14460 0.94020 0.06500
C 	C 	0.76774 0.15752 0.95070 0.00300
H 	H 	0.77010 0.13950 0.94390 0.03900
C 	C 	0.73410 0.18226 0.96278 -0.04400
C 	C 	0.73221 0.20773 0.97287 0.03400
H 	H 	0.70920 0.22460 0.98080 0.01400
C 	C 	0.46166 0.33598 0.97358 0.09200
C 	C 	0.57476 0.23466 0.98460 0.03200
H 	H 	0.57520 0.21240 0.98720 0.01600
C 	C 	0.60685 0.23785 0.97735 -0.04500
C 	C 	0.60615 0.27093 0.97361 0.00500
H 	H 	0.62760 0.27380 0.96920 0.03800
C 	C 	0.57371 0.29901 0.97643 -0.09700
H 	H 	0.57230 0.32190 0.97350 0.06400
C 	C 	0.54286 0.29336 0.98372 0.05900
H 	H 	0.52070 0.31290 0.98570 -0.00200
C 	C 	0.64029 0.20609 0.97611 0.13200
C 	C 	0.66815 0.14671 0.98249 0.13200
C 	C 	0.70000 0.18024 0.96846 0.13100
C 	C 	0.66620 0.11142 0.99182 -0.04800
C 	C 	0.63442 0.10752 0.99848 0.00500
H 	H 	0.61310 0.12790 0.99670 0.03900
C 	C 	0.63469 0.07351 0.00763 -0.09200
H 	H 	0.61360 0.07000 0.01220 0.06400
C 	C 	0.66669 0.04395 0.01009 0.05300
H 	H 	0.66660 0.02060 0.01640 0.00400
C 	C 	0.69660 0.08036 0.99512 0.03900
H 	H 	0.71800 0.08300 0.99080 0.01300
C 	C 	0.79754 0.05284 0.94588 0.10500
C 	C 	0.73834 0.03848 0.92700 0.05200
H 	H 	0.74020 0.05800 0.92780 0.00400
C 	C 	0.73073 0.04423 0.89873 -0.09200
H 	H 	0.72740 0.06720 0.88040 0.06500
C 	C 	0.72790 0.01574 0.89688 -0.00000
H 	H 	0.72240 0.01900 0.87760 0.04100
C 	C 	0.73356 0.98240 0.92434 -0.04400
C 	C 	0.74094 0.97880 0.95238 0.03300
H 	H 	0.74430 0.95610 0.97110 0.01500
C 	C 	0.73249 0.95083 0.92319 0.13000
N 	N 	0.46985 0.30469 0.98103 -0.25700
N 	N 	0.76114 0.20960 0.97210 -0.22300
N 	N 	0.54290 0.26206 0.98804 -0.22400
N 	N 	0.67072 0.21004 0.96902 -0.14900
N 	N 	0.70038 0.14774 0.97458 -0.14900
N 	N 	0.63724 0.17498 0.98316 -0.14900
N 	N 	0.69724 0.04732 0.00392 -0.22600
N 	N 	0.77938 0.03550 0.96698 -0.26300
N 	N 	0.74355 0.00623 0.95427 -0.22400
N 	N 	0.73233 0.95357 0.89281 -0.15000
S 	S 	0.45100 0.37861 0.96534 -0.05900
S 	S 	0.82331 0.07723 0.91623 -0.06100
C 	C 	0.56058 0.95968 0.18630 0.06000
H 	H 	0.53970 0.95830 0.18770 -0.00000
C 	C 	0.59260 0.94890 0.16044 -0.09700
H 	H 	0.59360 0.94020 0.14460 0.06500
C 	C 	0.62404 0.95070 0.15752 0.00300
H 	H 	0.64650 0.94390 0.13950 0.03900
C 	C 	0.62086 0.96278 0.18226 -0.04400
C 	C 	0.58719 0.97287 0.20773 0.03400
H 	H 	0.58540 0.98080 0.22460 0.01400
C 	C 	0.72878 0.97358 0.33598 0.09200
C 	C 	0.70598 0.98460 0.23466 0.03200
H 	H 	0.72520 0.98720 0.21240 0.01600
C 	C 	0.67795 0.97735 0.23785 -0.04500
C 	C 	0.64931 0.97361 0.27093 0.00500
H 	H 	0.62940 0.96920 0.27380 0.03800
C 	C 	0.65085 0.97643 0.29901 -0.09700
H 	H 	0.63230 0.97350 0.32190 0.06400
C 	C 	0.68006 0.98372 0.29336 0.05900
H 	H 	0.68070 0.98570 0.31290 -0.00200
C 	C 	0.67751 0.97611 0.20609 0.13200
C 	C 	0.70265 0.98249 0.14671 0.13200
C 	C 	0.65130 0.96846 0.18024 0.13100
C 	C 	0.73056 0.99182 0.11142 -0.04800
C 	C 	0.75958 0.99848 0.10752 0.00500
H 	H 	0.76230 0.99670 0.12790 0.03900
C 	C 	0.78417 0.00763 0.07351 -0.09300
H 	H 	0.80420 0.01220 0.07000 0.06400
C 	C 	0.77927 0.01009 0.04395 0.05300
H 	H 	0.79640 0.01640 0.02060 0.00400
C 	C 	0.72792 0.99512 0.08036 0.03900
H 	H 	0.70820 0.99080 0.08300 0.01300
C 	C 	0.70374 0.94588 0.05284 0.10500
C 	C 	0.79618 0.92700 0.03848 0.05200
H 	H 	0.77400 0.92780 0.05800 0.00400
C 	C 	0.82631 0.89873 0.04423 -0.09200
H 	H 	0.82500 0.88040 0.06720 0.06500
C 	C 	0.85948 0.89688 0.01574 -0.00000
H 	H 	0.88100 0.87760 0.01900 0.04100
C 	C 	0.85970 0.92434 0.98240 -0.04400
C 	C 	0.82788 0.95238 0.97880 0.03300
H 	H 	0.82850 0.97110 0.95610 0.01500
C 	C 	0.89349 0.92319 0.95083 0.13000
N 	N 	0.74443 0.98103 0.30469 -0.25700
N 	N 	0.55716 0.97210 0.20960 -0.22300
N 	N 	0.70700 0.98804 0.26206 -0.22400
N 	N 	0.65022 0.96902 0.21004 -0.14900
N 	N 	0.67730 0.97458 0.14774 -0.14900
N 	N 	0.70462 0.98316 0.17498 -0.14900
N 	N 	0.75152 0.00392 0.04732 -0.22600
N 	N 	0.71814 0.96698 0.03550 -0.26300
N 	N 	0.79595 0.95427 0.00623 -0.22400
N 	N 	0.92129 0.89281 0.95357 -0.15000
S 	S 	0.70506 0.96534 0.37861 -0.05900
S 	S 	0.68323 0.91623 0.07723 -0.06100
C 	C 	0.95968 0.56058 0.79344 0.06000
H 	H 	0.95830 0.53970 0.81430 -0.00000
C 	C 	0.94890 0.59260 0.79806 -0.09700
H 	H 	0.94020 0.59360 0.82160 0.06500
C 	C 	0.95070 0.62404 0.76774 0.00300
H 	H 	0.94390 0.64650 0.77010 0.03900
C 	C 	0.96278 0.62086 0.73410 -0.04400
C 	C 	0.97287 0.58719 0.73221 0.03400
H 	H 	0.98080 0.58540 0.70920 0.01400
C 	C 	0.97358 0.72878 0.46166 0.09200
C 	C 	0.98460 0.70598 0.57476 0.03200
H 	H 	0.98720 0.72520 0.57520 0.01600
C 	C 	0.97735 0.67795 0.60685 -0.04500
C 	C 	0.97361 0.64931 0.60615 0.00500
H 	H 	0.96920 0.62940 0.62760 0.03800
C 	C 	0.97643 0.65085 0.57371 -0.09700
H 	H 	0.97350 0.63230 0.57230 0.06400
C 	C 	0.98372 0.68006 0.54286 0.05900
H 	H 	0.98570 0.68070 0.52070 -0.00200
C 	C 	0.97611 0.67751 0.64029 0.13200
C 	C 	0.98249 0.70265 0.66815 0.13200
C 	C 	0.96846 0.65130 0.70000 0.13100
C 	C 	0.99182 0.73056 0.66620 -0.04800
C 	C 	0.99848 0.75958 0.63442 0.00500
H 	H 	0.99670 0.76230 0.61310 0.03900
C 	C 	0.00763 0.78417 0.63469 -0.09300
H 	H 	0.01220 0.80420 0.61360 0.06400
C 	C 	0.01009 0.77927 0.66669 0.05300
H 	H 	0.01640 0.79640 0.66660 0.00400
C 	C 	0.99512 0.72792 0.69660 0.03900
H 	H 	0.99080 0.70820 0.71800 0.01300
C 	C 	0.94588 0.70374 0.79754 0.10500
C 	C 	0.92700 0.79618 0.73834 0.05200
H 	H 	0.92780 0.77400 0.74020 0.00400
C 	C 	0.89873 0.82631 0.73073 -0.09200
H 	H 	0.88040 0.82500 0.72740 0.06500
C 	C 	0.89688 0.85948 0.72790 -0.00000
H 	H 	0.87760 0.88100 0.72240 0.04100
C 	C 	0.92434 0.85970 0.73356 -0.04400
C 	C 	0.95238 0.82788 0.74094 0.03300
H 	H 	0.97110 0.82850 0.74430 0.01500
C 	C 	0.92319 0.89349 0.73249 0.13000
N 	N 	0.98103 0.74443 0.46985 -0.25700
N 	N 	0.97210 0.55716 0.76114 -0.22300
N 	N 	0.98804 0.70700 0.54290 -0.22400
N 	N 	0.96902 0.65022 0.67072 -0.14900
N 	N 	0.97458 0.67730 0.70038 -0.14900
N 	N 	0.98316 0.70462 0.63724 -0.14900
N 	N 	0.00392 0.75152 0.69724 -0.22600
N 	N 	0.96698 0.71814 0.77938 -0.26300
N 	N 	0.95427 0.79595 0.74355 -0.22400
N 	N 	0.89281 0.92129 0.73233 -0.15000
S 	S 	0.96534 0.70506 0.45100 -0.05900
S 	S 	0.91623 0.68323 0.82331 -0.06100
C 	C 	0.18630 0.79344 0.56058 0.06000
H 	H 	0.18770 0.81430 0.53970 -0.00000
C 	C 	0.16044 0.79806 0.59260 -0.09700
H 	H 	0.14460 0.82160 0.59360 0.06500
C 	C 	0.15752 0.76774 0.62404 0.00300
H 	H 	0.13950 0.77010 0.64650 0.03900
C 	C 	0.18226 0.73410 0.62086 -0.04400
C 	C 	0.20773 0.73221 0.58719 0.03400
H 	H 	0.22460 0.70920 0.58540 0.01400
C 	C 	0.33598 0.46166 0.72878 0.09200
C 	C 	0.23466 0.57476 0.70598 0.03200
H 	H 	0.21240 0.57520 0.72520 0.01600
C 	C 	0.23785 0.60685 0.67795 -0.04500
C 	C 	0.27093 0.60615 0.64931 0.00500
H 	H 	0.27380 0.62760 0.62940 0.03800
C 	C 	0.29901 0.57371 0.65085 -0.09700
H 	H 	0.32190 0.57230 0.63230 0.06400
C 	C 	0.29336 0.54286 0.68006 0.05900
H 	H 	0.31290 0.52070 0.68070 -0.00200
C 	C 	0.20609 0.64029 0.67751 0.13200
C 	C 	0.14671 0.66815 0.70265 0.13200
C 	C 	0.18024 0.70000 0.65130 0.13100
C 	C 	0.11142 0.66620 0.73056 -0.04800
C 	C 	0.10752 0.63442 0.75958 0.00500
H 	H 	0.12790 0.61310 0.76230 0.03900
C 	C 	0.07351 0.63469 0.78417 -0.09300
H 	H 	0.07000 0.61360 0.80420 0.06400
C 	C 	0.04395 0.66669 0.77927 0.05300
H 	H 	0.02060 0.66660 0.79640 0.00400
C 	C 	0.08036 0.69660 0.72792 0.03900
H 	H 	0.08300 0.71800 0.70820 0.01300
C 	C 	0.05284 0.79754 0.70374 0.10500
C 	C 	0.03848 0.73834 0.79618 0.05200
H 	H 	0.05800 0.74020 0.77400 0.00400
C 	C 	0.04423 0.73073 0.82631 -0.09200
H 	H 	0.06720 0.72740 0.82500 0.06500
C 	C 	0.01574 0.72790 0.85948 -0.00000
H 	H 	0.01900 0.72240 0.88100 0.04100
C 	C 	0.98240 0.73356 0.85970 -0.04400
C 	C 	0.97880 0.74094 0.82788 0.03300
H 	H 	0.95610 0.74430 0.82850 0.01500
C 	C 	0.95083 0.73249 0.89349 0.13000
N 	N 	0.30469 0.46985 0.74443 -0.25700
N 	N 	0.20960 0.76114 0.55716 -0.22300
N 	N 	0.26206 0.54290 0.70700 -0.22400
N 	N 	0.21004 0.67072 0.65022 -0.14900
N 	N 	0.14774 0.70038 0.67730 -0.14900
N 	N 	0.17498 0.63724 0.70462 -0.14900
N 	N 	0.04732 0.69724 0.75152 -0.22600
N 	N 	0.03550 0.77938 0.71814 -0.26300
N 	N 	0.00623 0.74355 0.79595 -0.22400
N 	N 	0.95357 0.73233 0.92129 -0.15000
S 	S 	0.37861 0.45100 0.70506 -0.05900
S 	S 	0.07723 0.82331 0.68323 -0.06100
Co	Co	0.25000 0.99356 0.75000 1.11700
Co	Co	0.99356 0.25000 0.50644 1.11700
Co	Co	0.75000 0.50644 0.25000 1.11700
Co	Co	0.50644 0.75000 0.99356 1.11700
Co	Co	0.75000 0.25000 0.99356 1.11700
Co	Co	0.50644 0.99356 0.25000 1.11700
Co	Co	0.25000 0.75000 0.50644 1.11700
Co	Co	0.99356 0.50644 0.75000 1.11700
Co	Co	0.99356 0.75000 0.25000 1.11700
Co	Co	0.25000 0.50644 0.99356 1.11700
Co	Co	0.50644 0.25000 0.75000 1.11700
Co	Co	0.75000 0.99356 0.50644 1.11700
Co	Co	0.75000 0.00644 0.25000 1.11700
Co	Co	0.00644 0.75000 0.49356 1.11700
Co	Co	0.25000 0.49356 0.75000 1.11700
Co	Co	0.49356 0.25000 0.00644 1.11700
Co	Co	0.25000 0.75000 0.00644 1.11700
Co	Co	0.49356 0.00644 0.75000 1.11700
Co	Co	0.75000 0.25000 0.49356 1.11700
Co	Co	0.00644 0.49356 0.25000 1.11700
Co	Co	0.00644 0.25000 0.75000 1.11700
Co	Co	0.75000 0.49356 0.00644 1.11700
Co	Co	0.49356 0.75000 0.25000 1.11700
Co	Co	0.25000 0.00644 0.49356 1.11700
Co	Co	0.24788 0.24788 0.50212 1.12200
Co	Co	0.50212 0.50212 0.24788 1.12200
Co	Co	0.50212 0.24788 0.24788 1.12200
Co	Co	0.24788 0.50212 0.50212 1.12200
Co	Co	0.24788 0.50212 0.24788 1.12200
Co	Co	0.50212 0.24788 0.50212 1.12200
Co	Co	0.25212 0.25212 0.99788 1.12200
Co	Co	0.99788 0.99788 0.25212 1.12200
Co	Co	0.99788 0.25212 0.99788 1.12200
Co	Co	0.25212 0.99788 0.25212 1.12200
Co	Co	0.25212 0.99788 0.99788 1.12200
Co	Co	0.99788 0.25212 0.25212 1.12200
Co	Co	0.75212 0.75212 0.49788 1.12200
Co	Co	0.49788 0.49788 0.75212 1.12200
Co	Co	0.49788 0.75212 0.75212 1.12200
Co	Co	0.75212 0.49788 0.49788 1.12200
Co	Co	0.75212 0.49788 0.75212 1.12200
Co	Co	0.49788 0.75212 0.49788 1.12200
Co	Co	0.74788 0.74788 0.00212 1.12200
Co	Co	0.00212 0.00212 0.74788 1.12200
Co	Co	0.00212 0.74788 0.00212 1.12200
Co	Co	0.74788 0.00212 0.74788 1.12200
Co	Co	0.74788 0.00212 0.00212 1.12200
Co	Co	0.00212 0.74788 0.74788 1.12200
