data_crystal

_cell_length_a 29.13500
_cell_length_b 13.19100
_cell_length_c 8.59900
_cell_angle_alpha 90.00000
_cell_angle_beta  90.24700
_cell_angle_gamma 90.00000

_symmetry_space_group_name_	'P 1'
_symmetry_space_group_name_H-M	'P 1'

loop_
_symmetry_equiv_pos_as_xyz
  x,y,z

loop_
_atom_site_label
_atom_site_type_symbol
_atom_site_fract_x
_atom_site_fract_y
_atom_site_fract_z
_atom_site_charge
C 	C 	0.37646 0.82540 0.73880 0.03400
H 	H 	0.37610 0.75490 0.73730 0.01600
C 	C 	0.41149 0.87250 0.81670 -0.07000
H 	H 	0.43380 0.83400 0.86700 0.04500
C 	C 	0.41390 0.97580 0.82110 -0.03500
C 	C 	0.37858 0.02710 0.74750 -0.07400
H 	H 	0.37780 0.09750 0.74930 0.06000
C 	C 	0.34447 0.97380 0.67160 0.05000
H 	H 	0.32130 0.01020 0.62210 0.02800
C 	C 	0.45202 0.03040 0.90010 0.25500
C 	C 	0.45216 0.14250 0.89690 -0.75700
H 	H 	0.47870 0.16730 0.95150 0.25300
H 	H 	0.42490 0.16760 0.94630 0.25400
H 	H 	0.45290 0.16550 0.79110 0.24300
C 	C 	0.21112 0.76660 0.76200 0.50600
C 	C 	0.18851 0.79000 0.91520 -0.60600
H 	H 	0.19510 0.73580 0.98820 0.23100
H 	H 	0.15550 0.79290 0.90030 0.20900
C 	C 	0.20519 0.89050 0.98340 0.39000
H 	H 	0.19030 0.90190 0.08250 -0.08900
H 	H 	0.23800 0.88650 0.00220 -0.06500
C 	C 	0.19527 0.97900 0.87640 -0.59400
H 	H 	0.16220 0.98560 0.86550 0.20700
H 	H 	0.20750 0.96330 0.77440 0.22500
C 	C 	0.21454 0.08080 0.92750 0.51600
N 	N 	0.34310 0.87360 0.66550 -0.18100
N 	N 	0.48184 0.97350 0.96400 -0.14500
O 	O 	0.25193 0.79300 0.74580 -0.45400
O 	O 	0.18730 0.72220 0.66000 -0.45300
O 	O 	0.19042 0.15670 0.90370 -0.46100
O 	O 	0.25385 0.08120 0.98550 -0.45100
Cu	Cu	0.28745 0.79518 0.55066 0.91800
C 	C 	0.87646 0.32540 0.73880 0.03300
H 	H 	0.87610 0.25490 0.73730 0.01500
C 	C 	0.91149 0.37250 0.81670 -0.07100
H 	H 	0.93380 0.33400 0.86700 0.04400
C 	C 	0.91390 0.47580 0.82110 -0.03600
C 	C 	0.87858 0.52710 0.74750 -0.07500
H 	H 	0.87780 0.59750 0.74930 0.06000
C 	C 	0.84447 0.47380 0.67160 0.05000
H 	H 	0.82130 0.51020 0.62210 0.02800
C 	C 	0.95202 0.53040 0.90010 0.25500
C 	C 	0.95216 0.64250 0.89690 -0.75700
H 	H 	0.97870 0.66730 0.95150 0.25300
H 	H 	0.92490 0.66760 0.94630 0.25400
H 	H 	0.95290 0.66550 0.79110 0.24300
C 	C 	0.71112 0.26660 0.76200 0.50600
C 	C 	0.68851 0.29000 0.91520 -0.60600
H 	H 	0.69510 0.23580 0.98820 0.23100
H 	H 	0.65550 0.29290 0.90030 0.20900
C 	C 	0.70519 0.39050 0.98340 0.39100
H 	H 	0.69030 0.40190 0.08250 -0.09000
H 	H 	0.73800 0.38650 0.00220 -0.06500
C 	C 	0.69527 0.47900 0.87640 -0.59500
H 	H 	0.66220 0.48560 0.86550 0.20700
H 	H 	0.70750 0.46330 0.77440 0.22500
C 	C 	0.71454 0.58080 0.92750 0.51600
N 	N 	0.84310 0.37360 0.66550 -0.18100
N 	N 	0.98184 0.47350 0.96400 -0.14400
O 	O 	0.75193 0.29300 0.74580 -0.45400
O 	O 	0.68730 0.22220 0.66000 -0.45300
O 	O 	0.69042 0.65670 0.90370 -0.46100
O 	O 	0.75385 0.58120 0.98550 -0.45100
Cu	Cu	0.78745 0.29518 0.55066 0.91800
C 	C 	0.62354 0.82540 0.76120 0.03300
H 	H 	0.62390 0.75490 0.76270 0.01500
C 	C 	0.58851 0.87250 0.68330 -0.07100
H 	H 	0.56620 0.83400 0.63300 0.04400
C 	C 	0.58610 0.97580 0.67890 -0.03600
C 	C 	0.62142 0.02710 0.75250 -0.07500
H 	H 	0.62220 0.09750 0.75070 0.06000
C 	C 	0.65553 0.97380 0.82840 0.05000
H 	H 	0.67870 0.01020 0.87790 0.02800
C 	C 	0.54798 0.03040 0.59990 0.25400
C 	C 	0.54784 0.14250 0.60310 -0.75600
H 	H 	0.52130 0.16730 0.54850 0.25300
H 	H 	0.57510 0.16760 0.55370 0.25400
H 	H 	0.54710 0.16550 0.70890 0.24300
C 	C 	0.78888 0.76660 0.73800 0.50600
C 	C 	0.81149 0.79000 0.58480 -0.60600
H 	H 	0.80490 0.73580 0.51180 0.23100
H 	H 	0.84450 0.79290 0.59970 0.20900
C 	C 	0.79481 0.89050 0.51660 0.39100
H 	H 	0.80970 0.90190 0.41750 -0.09000
H 	H 	0.76200 0.88650 0.49780 -0.06500
C 	C 	0.80473 0.97900 0.62360 -0.59500
H 	H 	0.83780 0.98560 0.63450 0.20700
H 	H 	0.79250 0.96330 0.72560 0.22500
C 	C 	0.78546 0.08080 0.57250 0.51600
N 	N 	0.65690 0.87360 0.83450 -0.18100
N 	N 	0.51816 0.97350 0.53600 -0.14500
O 	O 	0.74807 0.79300 0.75420 -0.45400
O 	O 	0.81270 0.72220 0.84000 -0.45300
O 	O 	0.80958 0.15670 0.59630 -0.46100
O 	O 	0.74615 0.08120 0.51450 -0.45100
Cu	Cu	0.71255 0.79518 0.94934 0.91800
C 	C 	0.12354 0.32540 0.76120 0.03300
H 	H 	0.12390 0.25490 0.76270 0.01500
C 	C 	0.08851 0.37250 0.68330 -0.07100
H 	H 	0.06620 0.33400 0.63300 0.04400
C 	C 	0.08610 0.47580 0.67890 -0.03600
C 	C 	0.12142 0.52710 0.75250 -0.07500
H 	H 	0.12220 0.59750 0.75070 0.06000
C 	C 	0.15553 0.47380 0.82840 0.05000
H 	H 	0.17870 0.51020 0.87790 0.02800
C 	C 	0.04798 0.53040 0.59990 0.25500
C 	C 	0.04784 0.64250 0.60310 -0.75600
H 	H 	0.02130 0.66730 0.54850 0.25300
H 	H 	0.07510 0.66760 0.55370 0.25400
H 	H 	0.04710 0.66550 0.70890 0.24300
C 	C 	0.28888 0.26660 0.73800 0.50600
C 	C 	0.31149 0.29000 0.58480 -0.60600
H 	H 	0.30490 0.23580 0.51180 0.23100
H 	H 	0.34450 0.29290 0.59970 0.20900
C 	C 	0.29481 0.39050 0.51660 0.39100
H 	H 	0.30970 0.40190 0.41750 -0.09000
H 	H 	0.26200 0.38650 0.49780 -0.06500
C 	C 	0.30473 0.47900 0.62360 -0.59400
H 	H 	0.33780 0.48560 0.63450 0.20700
H 	H 	0.29250 0.46330 0.72560 0.22500
C 	C 	0.28546 0.58080 0.57250 0.51600
N 	N 	0.15690 0.37360 0.83450 -0.18100
N 	N 	0.01816 0.47350 0.53600 -0.14400
O 	O 	0.24807 0.29300 0.75420 -0.45400
O 	O 	0.31270 0.22220 0.84000 -0.45300
O 	O 	0.30958 0.65670 0.59630 -0.46100
O 	O 	0.24615 0.58120 0.51450 -0.45100
Cu	Cu	0.21255 0.29518 0.94934 0.91800
C 	C 	0.62354 0.17460 0.26120 0.03300
H 	H 	0.62390 0.24510 0.26270 0.01500
C 	C 	0.58851 0.12750 0.18330 -0.07100
H 	H 	0.56620 0.16600 0.13300 0.04400
C 	C 	0.58610 0.02420 0.17890 -0.03600
C 	C 	0.62142 0.97290 0.25250 -0.07500
H 	H 	0.62220 0.90250 0.25070 0.06000
C 	C 	0.65553 0.02620 0.32840 0.05000
H 	H 	0.67870 0.98980 0.37790 0.02800
C 	C 	0.54798 0.96960 0.09990 0.25500
C 	C 	0.54784 0.85750 0.10310 -0.75700
H 	H 	0.52130 0.83270 0.04850 0.25300
H 	H 	0.57510 0.83240 0.05370 0.25400
H 	H 	0.54710 0.83450 0.20890 0.24300
C 	C 	0.78888 0.23340 0.23800 0.50600
C 	C 	0.81149 0.21000 0.08480 -0.60600
H 	H 	0.80490 0.26420 0.01180 0.23100
H 	H 	0.84450 0.20710 0.09970 0.20900
C 	C 	0.79481 0.10950 0.01660 0.39000
H 	H 	0.80970 0.09810 0.91750 -0.08900
H 	H 	0.76200 0.11350 0.99780 -0.06500
C 	C 	0.80473 0.02100 0.12360 -0.59400
H 	H 	0.83780 0.01440 0.13450 0.20700
H 	H 	0.79250 0.03670 0.22560 0.22500
C 	C 	0.78546 0.91920 0.07250 0.51600
N 	N 	0.65690 0.12640 0.33450 -0.18100
N 	N 	0.51816 0.02650 0.03600 -0.14500
O 	O 	0.74807 0.20700 0.25420 -0.45400
O 	O 	0.81270 0.27780 0.34000 -0.45300
O 	O 	0.80958 0.84330 0.09630 -0.46100
O 	O 	0.74615 0.91880 0.01450 -0.45100
Cu	Cu	0.71255 0.20482 0.44934 0.91800
C 	C 	0.12354 0.67460 0.26120 0.03300
H 	H 	0.12390 0.74510 0.26270 0.01500
C 	C 	0.08851 0.62750 0.18330 -0.07100
H 	H 	0.06620 0.66600 0.13300 0.04400
C 	C 	0.08610 0.52420 0.17890 -0.03600
C 	C 	0.12142 0.47290 0.25250 -0.07500
H 	H 	0.12220 0.40250 0.25070 0.06000
C 	C 	0.15553 0.52620 0.32840 0.05000
H 	H 	0.17870 0.48980 0.37790 0.02800
C 	C 	0.04798 0.46960 0.09990 0.25500
C 	C 	0.04784 0.35750 0.10310 -0.75700
H 	H 	0.02130 0.33270 0.04850 0.25300
H 	H 	0.07510 0.33240 0.05370 0.25400
H 	H 	0.04710 0.33450 0.20890 0.24300
C 	C 	0.28888 0.73340 0.23800 0.50600
C 	C 	0.31149 0.71000 0.08480 -0.60600
H 	H 	0.30490 0.76420 0.01180 0.23100
H 	H 	0.34450 0.70710 0.09970 0.20900
C 	C 	0.29481 0.60950 0.01660 0.39100
H 	H 	0.30970 0.59810 0.91750 -0.09000
H 	H 	0.26200 0.61350 0.99780 -0.06500
C 	C 	0.30473 0.52100 0.12360 -0.59500
H 	H 	0.33780 0.51440 0.13450 0.20700
H 	H 	0.29250 0.53670 0.22560 0.22500
C 	C 	0.28546 0.41920 0.07250 0.51600
N 	N 	0.15690 0.62640 0.33450 -0.18100
N 	N 	0.01816 0.52650 0.03600 -0.14400
O 	O 	0.24807 0.70700 0.25420 -0.45400
O 	O 	0.31270 0.77780 0.34000 -0.45300
O 	O 	0.30958 0.34330 0.09630 -0.46100
O 	O 	0.24615 0.41880 0.01450 -0.45100
Cu	Cu	0.21255 0.70482 0.44934 0.91800
C 	C 	0.37646 0.17460 0.23880 0.03300
H 	H 	0.37610 0.24510 0.23730 0.01500
C 	C 	0.41149 0.12750 0.31670 -0.07100
H 	H 	0.43380 0.16600 0.36700 0.04400
C 	C 	0.41390 0.02420 0.32110 -0.03600
C 	C 	0.37858 0.97290 0.24750 -0.07500
H 	H 	0.37780 0.90250 0.24930 0.06000
C 	C 	0.34447 0.02620 0.17160 0.05000
H 	H 	0.32130 0.98980 0.12210 0.02800
C 	C 	0.45202 0.96960 0.40010 0.25400
C 	C 	0.45216 0.85750 0.39690 -0.75600
H 	H 	0.47870 0.83270 0.45150 0.25300
H 	H 	0.42490 0.83240 0.44630 0.25400
H 	H 	0.45290 0.83450 0.29110 0.24300
C 	C 	0.21112 0.23340 0.26200 0.50600
C 	C 	0.18851 0.21000 0.41520 -0.60600
H 	H 	0.19510 0.26420 0.48820 0.23100
H 	H 	0.15550 0.20710 0.40030 0.20900
C 	C 	0.20519 0.10950 0.48340 0.39100
H 	H 	0.19030 0.09810 0.58250 -0.09000
H 	H 	0.23800 0.11350 0.50220 -0.06500
C 	C 	0.19527 0.02100 0.37640 -0.59500
H 	H 	0.16220 0.01440 0.36550 0.20700
H 	H 	0.20750 0.03670 0.27440 0.22500
C 	C 	0.21454 0.91920 0.42750 0.51600
N 	N 	0.34310 0.12640 0.16550 -0.18100
N 	N 	0.48184 0.02650 0.46400 -0.14500
O 	O 	0.25193 0.20700 0.24580 -0.45400
O 	O 	0.18730 0.27780 0.16000 -0.45300
O 	O 	0.19042 0.84330 0.40370 -0.46100
O 	O 	0.25385 0.91880 0.48550 -0.45100
Cu	Cu	0.28745 0.20482 0.05066 0.91800
C 	C 	0.87646 0.67460 0.23880 0.03300
H 	H 	0.87610 0.74510 0.23730 0.01500
C 	C 	0.91149 0.62750 0.31670 -0.07100
H 	H 	0.93380 0.66600 0.36700 0.04400
C 	C 	0.91390 0.52420 0.32110 -0.03600
C 	C 	0.87858 0.47290 0.24750 -0.07500
H 	H 	0.87780 0.40250 0.24930 0.06000
C 	C 	0.84447 0.52620 0.17160 0.05000
H 	H 	0.82130 0.48980 0.12210 0.02800
C 	C 	0.95202 0.46960 0.40010 0.25500
C 	C 	0.95216 0.35750 0.39690 -0.75600
H 	H 	0.97870 0.33270 0.45150 0.25300
H 	H 	0.92490 0.33240 0.44630 0.25400
H 	H 	0.95290 0.33450 0.29110 0.24300
C 	C 	0.71112 0.73340 0.26200 0.50600
C 	C 	0.68851 0.71000 0.41520 -0.60600
H 	H 	0.69510 0.76420 0.48820 0.23100
H 	H 	0.65550 0.70710 0.40030 0.20900
C 	C 	0.70519 0.60950 0.48340 0.39100
H 	H 	0.69030 0.59810 0.58250 -0.09000
H 	H 	0.73800 0.61350 0.50220 -0.06500
C 	C 	0.69527 0.52100 0.37640 -0.59400
H 	H 	0.66220 0.51440 0.36550 0.20700
H 	H 	0.70750 0.53670 0.27440 0.22500
C 	C 	0.71454 0.41920 0.42750 0.51600
N 	N 	0.84310 0.62640 0.16550 -0.18100
N 	N 	0.98184 0.52650 0.46400 -0.14400
O 	O 	0.75193 0.70700 0.24580 -0.45400
O 	O 	0.68730 0.77780 0.16000 -0.45300
O 	O 	0.69042 0.34330 0.40370 -0.46100
O 	O 	0.75385 0.41880 0.48550 -0.45100
Cu	Cu	0.78745 0.70482 0.05066 0.91800
