data_crystal

_cell_length_a 29.03540
_cell_length_b 22.13780
_cell_length_c 24.55830
_cell_angle_alpha 90.00000
_cell_angle_beta  108.98700
_cell_angle_gamma 90.00000

_symmetry_space_group_name_	'P 1'
_symmetry_space_group_name_H-M	'P 1'

loop_
_symmetry_equiv_pos_as_xyz
  x,y,z

loop_
_atom_site_label
_atom_site_type_symbol
_atom_site_fract_x
_atom_site_fract_y
_atom_site_fract_z
_atom_site_charge
W 	W 	0.80705 0.56855 0.18025 0.97400
W 	W 	0.81473 0.89153 0.18010 1.35400
W 	W 	0.90845 0.46252 0.17974 0.97200
W 	W 	0.97642 0.61123 0.39647 1.05400
W 	W 	0.93827 0.77237 0.39732 1.38500
W 	W 	0.76903 0.73289 0.18193 0.95900
W 	W 	0.03916 0.46173 0.17829 0.98300
W 	W 	0.95712 0.86903 0.10501 1.43600
W 	W 	0.85462 0.76688 0.10476 1.03800
W 	W 	0.89517 0.60670 0.10486 1.35500
W 	W 	0.81223 0.71880 0.32473 1.31500
W 	W 	0.04924 0.98454 0.17803 1.36000
W 	W 	0.85334 0.55558 0.32276 1.33300
W 	W 	0.07942 0.99319 0.32039 1.00200
W 	W 	0.84562 0.88252 0.32288 1.00600
Sm	Sm	0.81515 0.44878 0.43628 1.26500
Sm	Sm	0.92205 0.90311 0.93446 1.69100
P 	P 	0.88638 0.77330 0.25130 0.57000
P 	P 	0.92963 0.59770 0.25050 0.55600
O 	O 	0.89890 0.76090 0.19750 -0.35100
O 	O 	0.80610 0.73030 0.13030 -0.47100
O 	O 	0.83460 0.84320 0.13110 -0.51200
O 	O 	0.91230 0.80840 0.10160 -0.52200
O 	O 	0.88230 0.69110 0.10030 -0.50600
O 	O 	0.95790 0.62360 0.10040 -0.49900
O 	O 	0.86490 0.59060 0.03280 -0.62000
O 	O 	0.93110 0.62700 0.19620 -0.37600
O 	O 	0.83910 0.59690 0.12910 -0.49600
O 	O 	0.91250 0.52540 0.12950 -0.50000
O 	O 	0.04180 0.92610 0.24970 -0.39200
O 	O 	0.90830 0.59720 0.37270 -0.50700
O 	O 	0.87580 0.73090 0.37390 -0.52400
O 	O 	0.97870 0.44830 0.18450 -0.45100
O 	O 	0.94610 0.52950 0.25080 -0.33700
O 	O 	0.82640 0.52460 0.36940 -0.60400
O 	O 	0.01100 0.92740 0.12890 -0.51100
O 	O 	0.86910 0.84060 0.25000 -0.37500
O 	O 	0.78210 0.64180 0.18730 -0.46000
O 	O 	0.77610 0.81520 0.18510 -0.47400
O 	O 	0.98330 0.01250 0.18210 -0.46400
O 	O 	0.98050 0.52780 0.37050 -0.47000
O 	O 	0.80270 0.53880 0.25180 -0.47500
O 	O 	0.10570 0.94750 0.18320 -0.49600
O 	O 	0.80420 0.91430 0.25060 -0.48000
O 	O 	0.96800 0.69540 0.39960 -0.50100
O 	O 	0.07990 0.92770 0.37110 -0.49500
O 	O 	0.92590 0.42040 0.25170 -0.47600
O 	O 	0.07550 0.03040 0.24920 -0.50000
O 	O 	0.75710 0.72510 0.25400 -0.47700
O 	O 	0.81280 0.81200 0.31950 -0.47600
O 	O 	0.86040 0.95030 0.18560 -0.48300
O 	O 	0.94370 0.77690 0.46900 -0.51500
O 	O 	0.93600 0.89000 0.03270 -0.61600
O 	O 	0.89330 0.49370 0.31810 -0.50000
O 	O 	0.01560 0.84560 0.30400 -0.39900
O 	O 	0.90320 0.84500 0.37230 -0.48300
O 	O 	0.85140 0.49280 0.18360 -0.46500
O 	O 	0.00310 0.80940 0.09930 -0.52700
O 	O 	0.87590 0.59690 0.25250 -0.36800
O 	O 	0.96280 0.63080 0.30430 -0.34500
O 	O 	0.05110 0.04480 0.13240 -0.62500
O 	O 	0.77920 0.72080 0.37200 -0.55600
O 	O 	0.93530 0.00260 0.97210 -0.48200
O 	O 	0.76310 0.92530 0.13340 -0.60600
O 	O 	0.81950 0.63800 0.31800 -0.48600
O 	O 	0.99250 0.07300 0.01880 -0.42900
O 	O 	0.84330 0.73360 0.25290 -0.37400
O 	O 	0.93120 0.76300 0.30540 -0.37600
O 	O 	0.96430 0.81190 0.94850 -0.46900
C 	C 	0.97700 0.02480 0.99700 0.32800
K 	K 	0.76511 0.71810 0.46980 0.53600
K 	K 	0.95550 0.78420 0.57540 0.59700
Na	Na	0.98380 0.72500 0.19190 0.58000
W 	W 	0.30705 0.06855 0.18025 0.97600
W 	W 	0.31473 0.39153 0.18010 1.35400
W 	W 	0.40845 0.96252 0.17974 0.96800
W 	W 	0.47642 0.11123 0.39647 1.04500
W 	W 	0.43827 0.27237 0.39732 1.38500
W 	W 	0.26903 0.23289 0.18193 0.95900
W 	W 	0.53916 0.96173 0.17829 0.98900
W 	W 	0.45712 0.36903 0.10501 1.42500
W 	W 	0.35462 0.26688 0.10476 1.03800
W 	W 	0.39517 0.10670 0.10486 1.35500
W 	W 	0.31223 0.21880 0.32473 1.31500
W 	W 	0.54924 0.48454 0.17803 1.37000
W 	W 	0.35334 0.05558 0.32276 1.33400
W 	W 	0.57942 0.49319 0.32039 1.00600
W 	W 	0.34562 0.38252 0.32288 1.00600
Sm	Sm	0.31515 0.94878 0.43628 1.26300
Sm	Sm	0.42205 0.40311 0.93446 1.68000
P 	P 	0.38638 0.27330 0.25130 0.57000
P 	P 	0.42963 0.09770 0.25050 0.55500
O 	O 	0.39890 0.26090 0.19750 -0.35200
O 	O 	0.30610 0.23030 0.13030 -0.47100
O 	O 	0.33460 0.34320 0.13110 -0.51200
O 	O 	0.41230 0.30840 0.10160 -0.52100
O 	O 	0.38230 0.19110 0.10030 -0.50600
O 	O 	0.45790 0.12360 0.10040 -0.50500
O 	O 	0.36490 0.09060 0.03280 -0.61900
O 	O 	0.43110 0.12700 0.19620 -0.37700
O 	O 	0.33910 0.09690 0.12910 -0.49600
O 	O 	0.41250 0.02540 0.12950 -0.49900
O 	O 	0.54180 0.42610 0.24970 -0.39300
O 	O 	0.40830 0.09720 0.37270 -0.50600
O 	O 	0.37580 0.23090 0.37390 -0.52400
O 	O 	0.47870 0.94830 0.18450 -0.45900
O 	O 	0.44610 0.02950 0.25080 -0.33700
O 	O 	0.32640 0.02460 0.36940 -0.60300
O 	O 	0.51100 0.42740 0.12890 -0.50500
O 	O 	0.36910 0.34060 0.25000 -0.37500
O 	O 	0.28210 0.14180 0.18730 -0.46000
O 	O 	0.27610 0.31520 0.18510 -0.47400
O 	O 	0.48330 0.51250 0.18210 -0.47300
O 	O 	0.48050 0.02780 0.37050 -0.47100
O 	O 	0.30270 0.03880 0.25180 -0.47500
O 	O 	0.60570 0.44750 0.18320 -0.49700
O 	O 	0.30420 0.41430 0.25060 -0.47900
O 	O 	0.46800 0.19540 0.39960 -0.50200
O 	O 	0.57990 0.42770 0.37110 -0.49700
O 	O 	0.42590 0.92040 0.25170 -0.47600
O 	O 	0.57550 0.53040 0.24920 -0.50100
O 	O 	0.25710 0.22510 0.25400 -0.47700
O 	O 	0.31280 0.31200 0.31950 -0.47600
O 	O 	0.36040 0.45030 0.18560 -0.48300
O 	O 	0.44370 0.27690 0.46900 -0.51700
O 	O 	0.43600 0.39000 0.03270 -0.61400
O 	O 	0.39330 0.99370 0.31810 -0.50000
O 	O 	0.51560 0.34560 0.30400 -0.39800
O 	O 	0.40320 0.34500 0.37230 -0.48300
O 	O 	0.35140 0.99280 0.18360 -0.46600
O 	O 	0.50310 0.30940 0.09930 -0.51900
O 	O 	0.37590 0.09690 0.25250 -0.36700
O 	O 	0.46280 0.13080 0.30430 -0.34700
O 	O 	0.55110 0.54480 0.13240 -0.62600
O 	O 	0.27920 0.22080 0.37200 -0.55700
O 	O 	0.43530 0.50260 0.97210 -0.48000
O 	O 	0.26310 0.42530 0.13340 -0.60600
O 	O 	0.31950 0.13800 0.31800 -0.48600
O 	O 	0.49250 0.57300 0.01880 -0.43700
O 	O 	0.34330 0.23360 0.25290 -0.37400
O 	O 	0.43120 0.26300 0.30540 -0.37700
O 	O 	0.46430 0.31190 0.94850 -0.47300
C 	C 	0.47700 0.52480 0.99700 0.32700
K 	K 	0.26511 0.21810 0.46980 0.53600
K 	K 	0.45550 0.28420 0.57540 0.59600
Na	Na	0.48380 0.22500 0.19190 0.57900
W 	W 	0.19295 0.56855 0.31975 0.97400
W 	W 	0.18527 0.89153 0.31990 1.35400
W 	W 	0.09155 0.46252 0.32026 0.96900
W 	W 	0.02358 0.61123 0.10353 1.03500
W 	W 	0.06173 0.77237 0.10268 1.38500
W 	W 	0.23097 0.73289 0.31807 0.95900
W 	W 	0.96084 0.46173 0.32171 1.00200
W 	W 	0.04288 0.86903 0.39499 1.41100
W 	W 	0.14538 0.76688 0.39524 1.03700
W 	W 	0.10483 0.60670 0.39514 1.35500
W 	W 	0.18777 0.71880 0.17527 1.31500
W 	W 	0.95076 0.98454 0.32197 1.37100
W 	W 	0.14666 0.55558 0.17724 1.33200
W 	W 	0.92058 0.99319 0.17961 1.00300
W 	W 	0.15438 0.88252 0.17712 1.00500
Sm	Sm	0.18485 0.44878 0.06372 1.26400
Sm	Sm	0.07795 0.90311 0.56554 1.67500
P 	P 	0.11362 0.77330 0.24870 0.57000
P 	P 	0.07037 0.59770 0.24950 0.55500
O 	O 	0.10110 0.76090 0.30250 -0.35300
O 	O 	0.19390 0.73030 0.36970 -0.47100
O 	O 	0.16540 0.84320 0.36890 -0.51200
O 	O 	0.08770 0.80840 0.39840 -0.52000
O 	O 	0.11770 0.69110 0.39970 -0.50700
O 	O 	0.04210 0.62360 0.39960 -0.51200
O 	O 	0.13510 0.59060 0.46720 -0.62200
O 	O 	0.06890 0.62700 0.30380 -0.37900
O 	O 	0.16090 0.59690 0.37090 -0.49600
O 	O 	0.08750 0.52540 0.37050 -0.50300
O 	O 	0.95820 0.92610 0.25030 -0.38700
O 	O 	0.09170 0.59720 0.12730 -0.50500
O 	O 	0.12420 0.73090 0.12610 -0.52400
O 	O 	0.02130 0.44830 0.31550 -0.46600
O 	O 	0.05390 0.52950 0.24920 -0.33900
O 	O 	0.17360 0.52460 0.13060 -0.60400
O 	O 	0.98900 0.92740 0.37110 -0.49900
O 	O 	0.13090 0.84060 0.25000 -0.37500
O 	O 	0.21790 0.64180 0.31270 -0.46000
O 	O 	0.22390 0.81520 0.31490 -0.47400
O 	O 	0.01670 0.01250 0.31790 -0.47800
O 	O 	0.01950 0.52780 0.12950 -0.47300
O 	O 	0.19730 0.53880 0.24820 -0.47500
O 	O 	0.89430 0.94750 0.31680 -0.49800
O 	O 	0.19580 0.91430 0.24940 -0.48000
O 	O 	0.03200 0.69540 0.10040 -0.50400
O 	O 	0.92010 0.92770 0.12890 -0.49700
O 	O 	0.07410 0.42040 0.24830 -0.47700
O 	O 	0.92450 0.03040 0.25080 -0.49800
O 	O 	0.24290 0.72510 0.24600 -0.47700
O 	O 	0.18720 0.81200 0.18050 -0.47600
O 	O 	0.13960 0.95030 0.31440 -0.48300
O 	O 	0.05630 0.77690 0.03100 -0.52000
O 	O 	0.06400 0.89000 0.46730 -0.61500
O 	O 	0.10670 0.49370 0.18190 -0.49800
O 	O 	0.98440 0.84560 0.19600 -0.38900
O 	O 	0.09680 0.84500 0.12770 -0.48400
O 	O 	0.14860 0.49280 0.31640 -0.46500
O 	O 	0.99690 0.80940 0.40070 -0.51300
O 	O 	0.12410 0.59690 0.24750 -0.36700
O 	O 	0.03720 0.63080 0.19570 -0.34900
O 	O 	0.94890 0.04480 0.36760 -0.62300
O 	O 	0.22080 0.72080 0.12800 -0.55700
O 	O 	0.06470 0.00260 0.52790 -0.48000
O 	O 	0.23690 0.92530 0.36660 -0.60600
O 	O 	0.18050 0.63800 0.18200 -0.48600
O 	O 	0.00750 0.07300 0.48120 -0.44200
O 	O 	0.15670 0.73360 0.24710 -0.37400
O 	O 	0.06880 0.76300 0.19460 -0.37900
O 	O 	0.03570 0.81190 0.55150 -0.47700
C 	C 	0.02300 0.02480 0.50300 0.32200
K 	K 	0.23489 0.71810 0.03020 0.53600
K 	K 	0.04450 0.78420 0.92460 0.59400
Na	Na	0.01620 0.72500 0.30810 0.57800
W 	W 	0.69295 0.06855 0.31975 0.97500
W 	W 	0.68527 0.39153 0.31990 1.35400
W 	W 	0.59155 0.96252 0.32026 0.96900
W 	W 	0.52358 0.11123 0.10353 1.04600
W 	W 	0.56173 0.27237 0.10268 1.38500
W 	W 	0.73097 0.23289 0.31807 0.95900
W 	W 	0.46084 0.96173 0.32171 0.99100
W 	W 	0.54288 0.36903 0.39499 1.42500
W 	W 	0.64538 0.26688 0.39524 1.03800
W 	W 	0.60483 0.10670 0.39514 1.35500
W 	W 	0.68777 0.21880 0.17527 1.31500
W 	W 	0.45076 0.48454 0.32197 1.37000
W 	W 	0.64666 0.05558 0.17724 1.33500
W 	W 	0.42058 0.49319 0.17961 1.00600
W 	W 	0.65438 0.38252 0.17712 1.00600
Sm	Sm	0.68485 0.94878 0.06372 1.25900
Sm	Sm	0.57795 0.40311 0.56554 1.68100
P 	P 	0.61362 0.27330 0.24870 0.57000
P 	P 	0.57037 0.09770 0.24950 0.55500
O 	O 	0.60110 0.26090 0.30250 -0.35200
O 	O 	0.69390 0.23030 0.36970 -0.47100
O 	O 	0.66540 0.34320 0.36890 -0.51200
O 	O 	0.58770 0.30840 0.39840 -0.52100
O 	O 	0.61770 0.19110 0.39970 -0.50700
O 	O 	0.54210 0.12360 0.39960 -0.50500
O 	O 	0.63510 0.09060 0.46720 -0.62100
O 	O 	0.56890 0.12700 0.30380 -0.37700
O 	O 	0.66090 0.09690 0.37090 -0.49600
O 	O 	0.58750 0.02540 0.37050 -0.50000
O 	O 	0.45820 0.42610 0.25030 -0.39300
O 	O 	0.59170 0.09720 0.12730 -0.50600
O 	O 	0.62420 0.23090 0.12610 -0.52300
O 	O 	0.52130 0.94830 0.31550 -0.45800
O 	O 	0.55390 0.02950 0.24920 -0.33700
O 	O 	0.67360 0.02460 0.13060 -0.60200
O 	O 	0.48900 0.42740 0.37110 -0.50500
O 	O 	0.63090 0.34060 0.25000 -0.37500
O 	O 	0.71790 0.14180 0.31270 -0.46000
O 	O 	0.72390 0.31520 0.31490 -0.47400
O 	O 	0.51670 0.51250 0.31790 -0.47300
O 	O 	0.51950 0.02780 0.12950 -0.47000
O 	O 	0.69730 0.03880 0.24820 -0.47500
O 	O 	0.39430 0.44750 0.31680 -0.49700
O 	O 	0.69580 0.41430 0.24940 -0.47900
O 	O 	0.53200 0.19540 0.10040 -0.50200
O 	O 	0.42010 0.42770 0.12890 -0.49600
O 	O 	0.57410 0.92040 0.24830 -0.47600
O 	O 	0.42450 0.53040 0.25080 -0.50100
O 	O 	0.74290 0.22510 0.24600 -0.47700
O 	O 	0.68720 0.31200 0.18050 -0.47600
O 	O 	0.63960 0.45030 0.31440 -0.48300
O 	O 	0.55630 0.27690 0.03100 -0.51600
O 	O 	0.56400 0.39000 0.46730 -0.61500
O 	O 	0.60670 0.99370 0.18190 -0.50100
O 	O 	0.48440 0.34560 0.19600 -0.39800
O 	O 	0.59680 0.34500 0.12770 -0.48300
O 	O 	0.64860 0.99280 0.31640 -0.46600
O 	O 	0.49690 0.30940 0.40070 -0.51900
O 	O 	0.62410 0.09690 0.24750 -0.36700
O 	O 	0.53720 0.13080 0.19570 -0.34700
O 	O 	0.44890 0.54480 0.36760 -0.62600
O 	O 	0.72080 0.22080 0.12800 -0.55600
O 	O 	0.56470 0.50260 0.52790 -0.48100
O 	O 	0.73690 0.42530 0.36660 -0.60600
O 	O 	0.68050 0.13800 0.18200 -0.48600
O 	O 	0.50750 0.57300 0.48120 -0.43800
O 	O 	0.65670 0.23360 0.24710 -0.37400
O 	O 	0.56880 0.26300 0.19460 -0.37700
O 	O 	0.53570 0.31190 0.55150 -0.47200
C 	C 	0.52300 0.52480 0.50300 0.32800
K 	K 	0.73489 0.21810 0.03020 0.53700
K 	K 	0.54450 0.28420 0.92460 0.59500
Na	Na	0.51620 0.22500 0.30810 0.57900
W 	W 	0.19295 0.43145 0.81975 0.97400
W 	W 	0.18527 0.10847 0.81990 1.35400
W 	W 	0.09155 0.53748 0.82026 0.97000
W 	W 	0.02358 0.38877 0.60353 1.03500
W 	W 	0.06173 0.22763 0.60268 1.38500
W 	W 	0.23097 0.26711 0.81807 0.95800
W 	W 	0.96084 0.53827 0.82171 1.00100
W 	W 	0.04288 0.13097 0.89499 1.41200
W 	W 	0.14538 0.23312 0.89524 1.03700
W 	W 	0.10483 0.39330 0.89514 1.35500
W 	W 	0.18777 0.28120 0.67527 1.31500
W 	W 	0.95076 0.01546 0.82197 1.37000
W 	W 	0.14666 0.44442 0.67724 1.33200
W 	W 	0.92058 0.00681 0.67961 1.00400
W 	W 	0.15438 0.11748 0.67712 1.00600
Sm	Sm	0.18485 0.55122 0.56372 1.26200
Sm	Sm	0.07795 0.09689 0.06554 1.67900
P 	P 	0.11362 0.22670 0.74870 0.57000
P 	P 	0.07037 0.40230 0.74950 0.55500
O 	O 	0.10110 0.23910 0.80250 -0.35300
O 	O 	0.19390 0.26970 0.86970 -0.47100
O 	O 	0.16540 0.15680 0.86890 -0.51200
O 	O 	0.08770 0.19160 0.89840 -0.52000
O 	O 	0.11770 0.30890 0.89970 -0.50700
O 	O 	0.04210 0.37640 0.89960 -0.51100
O 	O 	0.13510 0.40940 0.96720 -0.62200
O 	O 	0.06890 0.37300 0.80380 -0.37900
O 	O 	0.16090 0.40310 0.87090 -0.49600
O 	O 	0.08750 0.47460 0.87050 -0.50200
O 	O 	0.95820 0.07390 0.75030 -0.38700
O 	O 	0.09170 0.40280 0.62730 -0.50500
O 	O 	0.12420 0.26910 0.62610 -0.52400
O 	O 	0.02130 0.55170 0.81550 -0.46500
O 	O 	0.05390 0.47050 0.74920 -0.33900
O 	O 	0.17360 0.47540 0.63060 -0.60400
O 	O 	0.98900 0.07260 0.87110 -0.49900
O 	O 	0.13090 0.15940 0.75000 -0.37500
O 	O 	0.21790 0.35820 0.81270 -0.46000
O 	O 	0.22390 0.18480 0.81490 -0.47400
O 	O 	0.01670 0.98750 0.81790 -0.47600
O 	O 	0.01950 0.47220 0.62950 -0.47300
O 	O 	0.19730 0.46120 0.74820 -0.47500
O 	O 	0.89430 0.05250 0.81680 -0.49800
O 	O 	0.19580 0.08570 0.74940 -0.47900
O 	O 	0.03200 0.30460 0.60040 -0.50400
O 	O 	0.92010 0.07230 0.62890 -0.49700
O 	O 	0.07410 0.57960 0.74830 -0.47700
O 	O 	0.92450 0.96960 0.75080 -0.49800
O 	O 	0.24290 0.27490 0.74600 -0.47700
O 	O 	0.18720 0.18800 0.68050 -0.47600
O 	O 	0.13960 0.04970 0.81440 -0.48300
O 	O 	0.05630 0.22310 0.53100 -0.52000
O 	O 	0.06400 0.11000 0.96730 -0.61600
O 	O 	0.10670 0.50630 0.68190 -0.49800
O 	O 	0.98440 0.15440 0.69600 -0.39000
O 	O 	0.09680 0.15500 0.62770 -0.48300
O 	O 	0.14860 0.50720 0.81640 -0.46500
O 	O 	0.99690 0.19060 0.90070 -0.51300
O 	O 	0.12410 0.40310 0.74750 -0.36700
O 	O 	0.03720 0.36920 0.69570 -0.34900
O 	O 	0.94890 0.95520 0.86760 -0.62300
O 	O 	0.22080 0.27920 0.62800 -0.55700
O 	O 	0.06470 0.99740 0.02790 -0.48100
O 	O 	0.23690 0.07470 0.86660 -0.60600
O 	O 	0.18050 0.36200 0.68200 -0.48600
O 	O 	0.00750 0.92700 0.98120 -0.43900
O 	O 	0.15670 0.26640 0.74710 -0.37400
O 	O 	0.06880 0.23700 0.69460 -0.37900
O 	O 	0.03570 0.18810 0.05150 -0.47600
C 	C 	0.02300 0.97520 0.00300 0.31900
K 	K 	0.23489 0.28190 0.53020 0.53600
K 	K 	0.04450 0.21580 0.42460 0.59400
Na	Na	0.01620 0.27500 0.80810 0.57800
W 	W 	0.69295 0.93145 0.81975 0.97500
W 	W 	0.68527 0.60847 0.81990 1.35400
W 	W 	0.59155 0.03748 0.82026 0.96700
W 	W 	0.52358 0.88877 0.60353 1.04500
W 	W 	0.56173 0.72763 0.60268 1.38500
W 	W 	0.73097 0.76711 0.81807 0.95900
W 	W 	0.46084 0.03827 0.82171 0.98900
W 	W 	0.54288 0.63097 0.89499 1.42500
W 	W 	0.64538 0.73312 0.89524 1.03800
W 	W 	0.60483 0.89330 0.89514 1.35500
W 	W 	0.68777 0.78120 0.67527 1.31500
W 	W 	0.45076 0.51546 0.82197 1.37000
W 	W 	0.64666 0.94442 0.67724 1.33400
W 	W 	0.42058 0.50681 0.67961 1.00600
W 	W 	0.65438 0.61748 0.67712 1.00600
Sm	Sm	0.68485 0.05122 0.56372 1.26300
Sm	Sm	0.57795 0.59689 0.06554 1.68100
P 	P 	0.61362 0.72670 0.74870 0.57000
P 	P 	0.57037 0.90230 0.74950 0.55500
O 	O 	0.60110 0.73910 0.80250 -0.35200
O 	O 	0.69390 0.76970 0.86970 -0.47100
O 	O 	0.66540 0.65680 0.86890 -0.51200
O 	O 	0.58770 0.69160 0.89840 -0.52100
O 	O 	0.61770 0.80890 0.89970 -0.50700
O 	O 	0.54210 0.87640 0.89960 -0.50500
O 	O 	0.63510 0.90940 0.96720 -0.62000
O 	O 	0.56890 0.87300 0.80380 -0.37700
O 	O 	0.66090 0.90310 0.87090 -0.49600
O 	O 	0.58750 0.97460 0.87050 -0.50000
O 	O 	0.45820 0.57390 0.75030 -0.39300
O 	O 	0.59170 0.90280 0.62730 -0.50600
O 	O 	0.62420 0.76910 0.62610 -0.52400
O 	O 	0.52130 0.05170 0.81550 -0.45900
O 	O 	0.55390 0.97050 0.74920 -0.33700
O 	O 	0.67360 0.97540 0.63060 -0.60300
O 	O 	0.48900 0.57260 0.87110 -0.50500
O 	O 	0.63090 0.65940 0.75000 -0.37500
O 	O 	0.71790 0.85820 0.81270 -0.46000
O 	O 	0.72390 0.68480 0.81490 -0.47400
O 	O 	0.51670 0.48750 0.81790 -0.47300
O 	O 	0.51950 0.97220 0.62950 -0.47100
O 	O 	0.69730 0.96120 0.74820 -0.47500
O 	O 	0.39430 0.55250 0.81680 -0.49700
O 	O 	0.69580 0.58570 0.74940 -0.47900
O 	O 	0.53200 0.80460 0.60040 -0.50200
O 	O 	0.42010 0.57230 0.62890 -0.49700
O 	O 	0.57410 0.07960 0.74830 -0.47600
O 	O 	0.42450 0.46960 0.75080 -0.50100
O 	O 	0.74290 0.77490 0.74600 -0.47700
O 	O 	0.68720 0.68800 0.68050 -0.47600
O 	O 	0.63960 0.54970 0.81440 -0.48300
O 	O 	0.55630 0.72310 0.53100 -0.51700
O 	O 	0.56400 0.61000 0.96730 -0.61500
O 	O 	0.60670 0.00630 0.68190 -0.50000
O 	O 	0.48440 0.65440 0.69600 -0.39800
O 	O 	0.59680 0.65500 0.62770 -0.48300
O 	O 	0.64860 0.00720 0.81640 -0.46600
O 	O 	0.49690 0.69060 0.90070 -0.51900
O 	O 	0.62410 0.90310 0.74750 -0.36700
O 	O 	0.53720 0.86920 0.69570 -0.34700
O 	O 	0.44890 0.45520 0.86760 -0.62500
O 	O 	0.72080 0.77920 0.62800 -0.55600
O 	O 	0.56470 0.49740 0.02790 -0.48100
O 	O 	0.73690 0.57470 0.86660 -0.60600
O 	O 	0.68050 0.86200 0.68200 -0.48600
O 	O 	0.50750 0.42700 0.98120 -0.43900
O 	O 	0.65670 0.76640 0.74710 -0.37400
O 	O 	0.56880 0.73700 0.69460 -0.37700
O 	O 	0.53570 0.68810 0.05150 -0.47300
C 	C 	0.52300 0.47520 0.00300 0.33000
K 	K 	0.73489 0.78190 0.53020 0.53600
K 	K 	0.54450 0.71580 0.42460 0.59600
Na	Na	0.51620 0.77500 0.80810 0.57900
W 	W 	0.80705 0.43145 0.68025 0.97400
W 	W 	0.81473 0.10847 0.68010 1.35400
W 	W 	0.90845 0.53748 0.67974 0.97100
W 	W 	0.97642 0.38877 0.89647 1.05300
W 	W 	0.93827 0.22763 0.89732 1.38500
W 	W 	0.76903 0.26711 0.68193 0.95900
W 	W 	0.03916 0.53827 0.67829 0.98300
W 	W 	0.95712 0.13097 0.60501 1.43600
W 	W 	0.85462 0.23312 0.60476 1.03800
W 	W 	0.89517 0.39330 0.60486 1.35500
W 	W 	0.81223 0.28120 0.82473 1.31500
W 	W 	0.04924 0.01546 0.67803 1.36100
W 	W 	0.85334 0.44442 0.82276 1.33300
W 	W 	0.07942 0.00681 0.82039 1.00000
W 	W 	0.84562 0.11748 0.82288 1.00500
Sm	Sm	0.81515 0.55122 0.93628 1.26500
Sm	Sm	0.92205 0.09689 0.43446 1.68900
P 	P 	0.88638 0.22670 0.75130 0.57000
P 	P 	0.92963 0.40230 0.75050 0.55600
O 	O 	0.89890 0.23910 0.69750 -0.35100
O 	O 	0.80610 0.26970 0.63030 -0.47100
O 	O 	0.83460 0.15680 0.63110 -0.51200
O 	O 	0.91230 0.19160 0.60160 -0.52100
O 	O 	0.88230 0.30890 0.60030 -0.50600
O 	O 	0.95790 0.37640 0.60040 -0.49900
O 	O 	0.86490 0.40940 0.53280 -0.62100
O 	O 	0.93110 0.37300 0.69620 -0.37600
O 	O 	0.83910 0.40310 0.62910 -0.49700
O 	O 	0.91250 0.47460 0.62950 -0.50000
O 	O 	0.04180 0.07390 0.74970 -0.39200
O 	O 	0.90830 0.40280 0.87270 -0.50700
O 	O 	0.87580 0.26910 0.87390 -0.52400
O 	O 	0.97870 0.55170 0.68450 -0.45200
O 	O 	0.94610 0.47050 0.75080 -0.33700
O 	O 	0.82640 0.47540 0.86940 -0.60400
O 	O 	0.01100 0.07260 0.62890 -0.51100
O 	O 	0.86910 0.15940 0.75000 -0.37500
O 	O 	0.78210 0.35820 0.68730 -0.46000
O 	O 	0.77610 0.18480 0.68510 -0.47400
O 	O 	0.98330 0.98750 0.68210 -0.46600
O 	O 	0.98050 0.47220 0.87050 -0.47000
O 	O 	0.80270 0.46120 0.75180 -0.47500
O 	O 	0.10570 0.05250 0.68320 -0.49600
O 	O 	0.80420 0.08570 0.75060 -0.48000
O 	O 	0.96800 0.30460 0.89960 -0.50100
O 	O 	0.07990 0.07230 0.87110 -0.49500
O 	O 	0.92590 0.57960 0.75170 -0.47600
O 	O 	0.07550 0.96960 0.74920 -0.49900
O 	O 	0.75710 0.27490 0.75400 -0.47700
O 	O 	0.81280 0.18800 0.81950 -0.47600
O 	O 	0.86040 0.04970 0.68560 -0.48300
O 	O 	0.94370 0.22310 0.96900 -0.51600
O 	O 	0.93600 0.11000 0.53270 -0.61500
O 	O 	0.89330 0.50630 0.81810 -0.50000
O 	O 	0.01560 0.15440 0.80400 -0.39900
O 	O 	0.90320 0.15500 0.87230 -0.48300
O 	O 	0.85140 0.50720 0.68360 -0.46500
O 	O 	0.00310 0.19060 0.59930 -0.52700
O 	O 	0.87590 0.40310 0.75250 -0.36700
O 	O 	0.96280 0.36920 0.80430 -0.34500
O 	O 	0.05110 0.95520 0.63240 -0.62600
O 	O 	0.77920 0.27920 0.87200 -0.55700
O 	O 	0.93530 0.99740 0.47210 -0.48200
O 	O 	0.76310 0.07470 0.63340 -0.60600
O 	O 	0.81950 0.36200 0.81800 -0.48600
O 	O 	0.99250 0.92700 0.51880 -0.43400
O 	O 	0.84330 0.26640 0.75290 -0.37400
O 	O 	0.93120 0.23700 0.80540 -0.37600
O 	O 	0.96430 0.18810 0.44850 -0.46900
C 	C 	0.97700 0.97520 0.49700 0.33400
K 	K 	0.76511 0.28190 0.96980 0.53600
K 	K 	0.95550 0.21580 0.07540 0.59800
Na	Na	0.98380 0.27500 0.69190 0.58000
W 	W 	0.30705 0.93145 0.68025 0.97500
W 	W 	0.31473 0.60847 0.68010 1.35400
W 	W 	0.40845 0.03748 0.67974 0.96900
W 	W 	0.47642 0.88877 0.89647 1.04600
W 	W 	0.43827 0.72763 0.89732 1.38500
W 	W 	0.26903 0.76711 0.68193 0.95900
W 	W 	0.53916 0.03827 0.67829 0.99100
W 	W 	0.45712 0.63097 0.60501 1.42500
W 	W 	0.35462 0.73312 0.60476 1.03800
W 	W 	0.39517 0.89330 0.60486 1.35500
W 	W 	0.31223 0.78120 0.82473 1.31500
W 	W 	0.54924 0.51546 0.67803 1.37000
W 	W 	0.35334 0.94442 0.82276 1.33400
W 	W 	0.57942 0.50681 0.82039 1.00600
W 	W 	0.34562 0.61748 0.82288 1.00600
Sm	Sm	0.31515 0.05122 0.93628 1.25700
Sm	Sm	0.42205 0.59689 0.43446 1.68100
P 	P 	0.38638 0.72670 0.75130 0.57000
P 	P 	0.42963 0.90230 0.75050 0.55500
O 	O 	0.39890 0.73910 0.69750 -0.35200
O 	O 	0.30610 0.76970 0.63030 -0.47100
O 	O 	0.33460 0.65680 0.63110 -0.51200
O 	O 	0.41230 0.69160 0.60160 -0.52100
O 	O 	0.38230 0.80890 0.60030 -0.50700
O 	O 	0.45790 0.87640 0.60040 -0.50500
O 	O 	0.36490 0.90940 0.53280 -0.62100
O 	O 	0.43110 0.87300 0.69620 -0.37700
O 	O 	0.33910 0.90310 0.62910 -0.49600
O 	O 	0.41250 0.97460 0.62950 -0.50000
O 	O 	0.54180 0.57390 0.74970 -0.39300
O 	O 	0.40830 0.90280 0.87270 -0.50600
O 	O 	0.37580 0.76910 0.87390 -0.52400
O 	O 	0.47870 0.05170 0.68450 -0.45800
O 	O 	0.44610 0.97050 0.75080 -0.33700
O 	O 	0.32640 0.97540 0.86940 -0.60200
O 	O 	0.51100 0.57260 0.62890 -0.50500
O 	O 	0.36910 0.65940 0.75000 -0.37500
O 	O 	0.28210 0.85820 0.68730 -0.46000
O 	O 	0.27610 0.68480 0.68510 -0.47400
O 	O 	0.48330 0.48750 0.68210 -0.47300
O 	O 	0.48050 0.97220 0.87050 -0.47000
O 	O 	0.30270 0.96120 0.75180 -0.47500
O 	O 	0.60570 0.55250 0.68320 -0.49800
O 	O 	0.30420 0.58570 0.75060 -0.47900
O 	O 	0.46800 0.80460 0.89960 -0.50200
O 	O 	0.57990 0.57230 0.87110 -0.49700
O 	O 	0.42590 0.07960 0.75170 -0.47600
O 	O 	0.57550 0.46960 0.74920 -0.50100
O 	O 	0.25710 0.77490 0.75400 -0.47700
O 	O 	0.31280 0.68800 0.81950 -0.47600
O 	O 	0.36040 0.54970 0.68560 -0.48300
O 	O 	0.44370 0.72310 0.96900 -0.51700
O 	O 	0.43600 0.61000 0.53270 -0.61500
O 	O 	0.39330 0.00630 0.81810 -0.50100
O 	O 	0.51560 0.65440 0.80400 -0.39800
O 	O 	0.40320 0.65500 0.87230 -0.48300
O 	O 	0.35140 0.00720 0.68360 -0.46500
O 	O 	0.50310 0.69060 0.59930 -0.51900
O 	O 	0.37590 0.90310 0.75250 -0.36700
O 	O 	0.46280 0.86920 0.80430 -0.34700
O 	O 	0.55110 0.45520 0.63240 -0.62600
O 	O 	0.27920 0.77920 0.87200 -0.55600
O 	O 	0.43530 0.49740 0.47210 -0.48100
O 	O 	0.26310 0.57470 0.63340 -0.60600
O 	O 	0.31950 0.86200 0.81800 -0.48600
O 	O 	0.49250 0.42700 0.51880 -0.43800
O 	O 	0.34330 0.76640 0.75290 -0.37400
O 	O 	0.43120 0.73700 0.80540 -0.37700
O 	O 	0.46430 0.68810 0.44850 -0.47200
C 	C 	0.47700 0.47520 0.49700 0.32800
K 	K 	0.26511 0.78190 0.96980 0.53700
K 	K 	0.45550 0.71580 0.07540 0.59500
Na	Na	0.48380 0.77500 0.69190 0.57900
P 	P 	0.00000 0.88360 0.25000 0.59100
P 	P 	0.50000 0.38360 0.25000 0.60500
P 	P 	0.00000 0.11640 0.75000 0.59200
P 	P 	0.50000 0.61640 0.75000 0.60500
