data_crystal

_cell_length_a 26.11300
_cell_length_b 26.11300
_cell_length_c 19.64590
_cell_angle_alpha 90.00000
_cell_angle_beta  90.00000
_cell_angle_gamma 120.00000

_symmetry_space_group_name_	'P 1'
_symmetry_space_group_name_H-M	'P 1'

loop_
_symmetry_equiv_pos_as_xyz
  x,y,z

loop_
_atom_site_label
_atom_site_type_symbol
_atom_site_fract_x
_atom_site_fract_y
_atom_site_fract_z
_atom_site_charge
Co	Co	0.66716 0.10261 0.40179 1.12800
N 	N 	0.74115 0.17309 0.43630 -0.27100
N 	N 	0.65954 0.03720 0.46160 -0.26800
N 	N 	0.68000 0.07980 0.30810 -0.25200
N 	N 	0.60340 0.12190 0.43240 -0.25300
C 	C 	0.75820 0.18630 0.50340 0.07300
C 	C 	0.70320 0.02310 0.47480 0.06800
C 	C 	0.68070 0.03260 0.28500 0.02700
C 	C 	0.60720 0.15950 0.47470 0.03100
C 	C 	0.73430 0.15620 0.56490 -0.17200
C 	C 	0.76050 0.04550 0.44990 -0.16000
H 	H 	0.68110 0.00370 0.31210 0.04800
H 	H 	0.64000 0.18330 0.50150 0.02200
H 	H 	0.69890 0.12030 0.56500 0.10500
C 	C 	0.76260 0.17970 0.62290 0.15300
C 	C 	0.79360 0.02100 0.47400 0.15700
H 	H 	0.77610 0.07590 0.41810 0.09700
O 	O 	0.67329 0.17952 0.30582 -0.17000
O 	O 	0.55350 0.02540 0.35520 -0.16200
Cl	Cl	0.71970 0.13480 0.69500 -0.23000
Cl	Cl	0.85620 0.03020 0.43990 -0.19400
Co	Co	0.89739 0.56455 0.40179 1.12700
N 	N 	0.82691 0.56806 0.43630 -0.27200
N 	N 	0.96280 0.62234 0.46160 -0.26800
N 	N 	0.92020 0.60020 0.30810 -0.25300
N 	N 	0.87810 0.48150 0.43240 -0.25400
C 	C 	0.81370 0.57190 0.50340 0.07200
C 	C 	0.97690 0.68010 0.47480 0.08000
C 	C 	0.96740 0.64810 0.28500 0.02700
C 	C 	0.84050 0.44770 0.47470 0.03100
C 	C 	0.84380 0.57810 0.56490 -0.17200
C 	C 	0.95450 0.71500 0.44990 -0.16900
H 	H 	0.99630 0.67740 0.31210 0.05000
H 	H 	0.81670 0.45670 0.50150 0.02200
H 	H 	0.87970 0.57860 0.56500 0.10600
C 	C 	0.82030 0.58290 0.62290 0.15300
C 	C 	0.97900 0.77260 0.47400 0.17000
H 	H 	0.92410 0.70020 0.41810 0.10000
O 	O 	0.82048 0.49377 0.30582 -0.17000
O 	O 	0.97460 0.52810 0.35520 -0.16000
Cl	Cl	0.86520 0.58490 0.69500 -0.22800
Cl	Cl	0.96980 0.82600 0.43990 -0.19200
Co	Co	0.43545 0.33284 0.40179 1.12700
N 	N 	0.43194 0.25885 0.43630 -0.27200
N 	N 	0.37766 0.34046 0.46160 -0.27000
N 	N 	0.39980 0.32000 0.30810 -0.25300
N 	N 	0.51850 0.39660 0.43240 -0.25400
C 	C 	0.42810 0.24180 0.50340 0.07200
C 	C 	0.31990 0.29680 0.47480 0.07300
C 	C 	0.35190 0.31930 0.28500 0.02700
C 	C 	0.55230 0.39280 0.47470 0.03100
C 	C 	0.42190 0.26570 0.56490 -0.17200
C 	C 	0.28500 0.23950 0.44990 -0.16400
H 	H 	0.32260 0.31890 0.31210 0.04900
H 	H 	0.54330 0.36000 0.50150 0.02200
H 	H 	0.42140 0.30110 0.56500 0.10500
C 	C 	0.41710 0.23740 0.62290 0.15300
C 	C 	0.22740 0.20640 0.47400 0.16300
H 	H 	0.29980 0.22390 0.41810 0.09800
O 	O 	0.50623 0.32671 0.30582 -0.17000
O 	O 	0.47190 0.44650 0.35520 -0.16100
Cl	Cl	0.41510 0.28030 0.69500 -0.22900
Cl	Cl	0.17400 0.14380 0.43990 -0.19500
Co	Co	0.33284 0.89739 0.90179 1.12700
N 	N 	0.25885 0.82691 0.93630 -0.27000
N 	N 	0.34046 0.96280 0.96160 -0.26700
N 	N 	0.32000 0.92020 0.80810 -0.25300
N 	N 	0.39660 0.87810 0.93240 -0.25500
C 	C 	0.24180 0.81370 0.00340 0.07000
C 	C 	0.29680 0.97690 0.97480 0.08400
C 	C 	0.31930 0.96740 0.78500 0.02700
C 	C 	0.39280 0.84050 0.97470 0.03600
C 	C 	0.26570 0.84380 0.06490 -0.17100
C 	C 	0.23950 0.95450 0.94990 -0.17200
H 	H 	0.31890 0.99630 0.81210 0.04900
H 	H 	0.36000 0.81670 0.00150 0.01700
H 	H 	0.30110 0.87970 0.06500 0.10500
C 	C 	0.23740 0.82030 0.12290 0.15300
C 	C 	0.20640 0.97900 0.97400 0.17400
H 	H 	0.22390 0.92410 0.91810 0.10100
O 	O 	0.32671 0.82048 0.80582 -0.17000
O 	O 	0.44650 0.97460 0.85520 -0.16000
Cl	Cl	0.28030 0.86520 0.19500 -0.22800
Cl	Cl	0.14380 0.96980 0.93990 -0.19300
Co	Co	0.10261 0.43545 0.90179 1.12700
N 	N 	0.17309 0.43194 0.93630 -0.27000
N 	N 	0.03720 0.37766 0.96160 -0.26700
N 	N 	0.07980 0.39980 0.80810 -0.25300
N 	N 	0.12190 0.51850 0.93240 -0.25500
C 	C 	0.18630 0.42810 0.00340 0.06900
C 	C 	0.02310 0.31990 0.97480 0.07300
C 	C 	0.03260 0.35190 0.78500 0.02600
C 	C 	0.15950 0.55230 0.97470 0.03600
C 	C 	0.15620 0.42190 0.06490 -0.17100
C 	C 	0.04550 0.28500 0.94990 -0.16400
H 	H 	0.00370 0.32260 0.81210 0.04800
H 	H 	0.18330 0.54330 0.00150 0.01700
H 	H 	0.12030 0.42140 0.06500 0.10400
C 	C 	0.17970 0.41710 0.12290 0.15200
C 	C 	0.02100 0.22740 0.97400 0.16300
H 	H 	0.07590 0.29980 0.91810 0.09900
O 	O 	0.17952 0.50623 0.80582 -0.17000
O 	O 	0.02540 0.47190 0.85520 -0.16200
Cl	Cl	0.13480 0.41510 0.19500 -0.23100
Cl	Cl	0.03020 0.17400 0.93990 -0.19500
Co	Co	0.56455 0.66716 0.90179 1.12700
N 	N 	0.56806 0.74115 0.93630 -0.27000
N 	N 	0.62234 0.65954 0.96160 -0.26800
N 	N 	0.60020 0.68000 0.80810 -0.25300
N 	N 	0.48150 0.60340 0.93240 -0.25500
C 	C 	0.57190 0.75820 0.00340 0.06900
C 	C 	0.68010 0.70320 0.97480 0.08000
C 	C 	0.64810 0.68070 0.78500 0.02700
C 	C 	0.44770 0.60720 0.97470 0.03600
C 	C 	0.57810 0.73430 0.06490 -0.17100
C 	C 	0.71500 0.76050 0.94990 -0.16800
H 	H 	0.67740 0.68110 0.81210 0.04900
H 	H 	0.45670 0.64000 0.00150 0.01700
H 	H 	0.57860 0.69890 0.06500 0.10400
C 	C 	0.58290 0.76260 0.12290 0.15300
C 	C 	0.77260 0.79360 0.97400 0.16900
H 	H 	0.70020 0.77610 0.91810 0.10000
O 	O 	0.49377 0.67329 0.80582 -0.17000
O 	O 	0.52810 0.55350 0.85520 -0.16100
Cl	Cl	0.58490 0.71970 0.19500 -0.22900
Cl	Cl	0.82600 0.85620 0.93990 -0.19100
Co	Co	0.10261 0.66716 0.59821 1.12700
N 	N 	0.17309 0.74115 0.56370 -0.27200
N 	N 	0.03720 0.65954 0.53840 -0.26900
N 	N 	0.07980 0.68000 0.69190 -0.25300
N 	N 	0.12190 0.60340 0.56760 -0.25400
C 	C 	0.18630 0.75820 0.49660 0.07200
C 	C 	0.02310 0.70320 0.52520 0.06600
C 	C 	0.03260 0.68070 0.71500 0.02600
C 	C 	0.15950 0.60720 0.52530 0.03100
C 	C 	0.15620 0.73430 0.43510 -0.17200
C 	C 	0.04550 0.76050 0.55010 -0.15900
H 	H 	0.00370 0.68110 0.68790 0.04800
H 	H 	0.18330 0.64000 0.49850 0.02100
H 	H 	0.12030 0.69890 0.43500 0.10500
C 	C 	0.17970 0.76260 0.37710 0.15300
C 	C 	0.02100 0.79360 0.52600 0.15500
H 	H 	0.07590 0.77610 0.58190 0.09700
O 	O 	0.17952 0.67329 0.69418 -0.17000
O 	O 	0.02540 0.55350 0.64480 -0.16300
Cl	Cl	0.13480 0.71970 0.30500 -0.23100
Cl	Cl	0.03020 0.85620 0.56010 -0.19500
Co	Co	0.56455 0.89739 0.59821 1.12700
N 	N 	0.56806 0.82691 0.56370 -0.27200
N 	N 	0.62234 0.96280 0.53840 -0.26900
N 	N 	0.60020 0.92020 0.69190 -0.25300
N 	N 	0.48150 0.87810 0.56760 -0.25400
C 	C 	0.57190 0.81370 0.49660 0.07200
C 	C 	0.68010 0.97690 0.52520 0.07800
C 	C 	0.64810 0.96740 0.71500 0.02700
C 	C 	0.44770 0.84050 0.52530 0.03100
C 	C 	0.57810 0.84380 0.43510 -0.17200
C 	C 	0.71500 0.95450 0.55010 -0.16800
H 	H 	0.67740 0.99630 0.68790 0.04900
H 	H 	0.45670 0.81670 0.49850 0.02200
H 	H 	0.57860 0.87970 0.43500 0.10600
C 	C 	0.58290 0.82030 0.37710 0.15300
C 	C 	0.77260 0.97900 0.52600 0.16800
H 	H 	0.70020 0.92410 0.58190 0.10000
O 	O 	0.49377 0.82048 0.69418 -0.17000
O 	O 	0.52810 0.97460 0.64480 -0.16100
Cl	Cl	0.58490 0.86520 0.30500 -0.22800
Cl	Cl	0.82600 0.96980 0.56010 -0.19200
Co	Co	0.33284 0.43545 0.59821 1.12700
N 	N 	0.25885 0.43194 0.56370 -0.27200
N 	N 	0.34046 0.37766 0.53840 -0.27000
N 	N 	0.32000 0.39980 0.69190 -0.25300
N 	N 	0.39660 0.51850 0.56760 -0.25400
C 	C 	0.24180 0.42810 0.49660 0.07200
C 	C 	0.29680 0.31990 0.52520 0.07300
C 	C 	0.31930 0.35190 0.71500 0.02700
C 	C 	0.39280 0.55230 0.52530 0.03100
C 	C 	0.26570 0.42190 0.43510 -0.17200
C 	C 	0.23950 0.28500 0.55010 -0.16400
H 	H 	0.31890 0.32260 0.68790 0.04900
H 	H 	0.36000 0.54330 0.49850 0.02200
H 	H 	0.30110 0.42140 0.43500 0.10500
C 	C 	0.23740 0.41710 0.37710 0.15300
C 	C 	0.20640 0.22740 0.52600 0.16300
H 	H 	0.22390 0.29980 0.58190 0.09800
O 	O 	0.32671 0.50623 0.69418 -0.17000
O 	O 	0.44650 0.47190 0.64480 -0.16100
Cl	Cl	0.28030 0.41510 0.30500 -0.22900
Cl	Cl	0.14380 0.17400 0.56010 -0.19500
Co	Co	0.89739 0.33284 0.09821 1.12700
N 	N 	0.82691 0.25885 0.06370 -0.27400
N 	N 	0.96280 0.34046 0.03840 -0.26700
N 	N 	0.92020 0.32000 0.19190 -0.25300
N 	N 	0.87810 0.39660 0.06760 -0.25400
C 	C 	0.81370 0.24180 0.99660 0.07600
C 	C 	0.97690 0.29680 0.02520 0.07300
C 	C 	0.96740 0.31930 0.21500 0.02700
C 	C 	0.84050 0.39280 0.02530 0.02500
C 	C 	0.84380 0.26570 0.93510 -0.17300
C 	C 	0.95450 0.23950 0.05010 -0.16400
H 	H 	0.99630 0.31890 0.18790 0.04900
H 	H 	0.81670 0.36000 0.99850 0.02700
H 	H 	0.87970 0.30110 0.93500 0.10800
C 	C 	0.82030 0.23740 0.87710 0.15400
C 	C 	0.97900 0.20640 0.02600 0.16200
H 	H 	0.92410 0.22390 0.08190 0.09800
O 	O 	0.82048 0.32671 0.19418 -0.17000
O 	O 	0.97460 0.44650 0.14480 -0.16100
Cl	Cl	0.86520 0.28030 0.80500 -0.22800
Cl	Cl	0.96980 0.14380 0.06010 -0.19400
Co	Co	0.43545 0.10261 0.09821 1.12600
N 	N 	0.43194 0.17309 0.06370 -0.27400
N 	N 	0.37766 0.03720 0.03840 -0.26800
N 	N 	0.39980 0.07980 0.19190 -0.25300
N 	N 	0.51850 0.12190 0.06760 -0.25400
C 	C 	0.42810 0.18630 0.99660 0.07600
C 	C 	0.31990 0.02310 0.02520 0.06200
C 	C 	0.35190 0.03260 0.21500 0.02600
C 	C 	0.55230 0.15950 0.02530 0.02500
C 	C 	0.42190 0.15620 0.93510 -0.17300
C 	C 	0.28500 0.04550 0.05010 -0.15700
H 	H 	0.32260 0.00370 0.18790 0.04800
H 	H 	0.54330 0.18330 0.99850 0.02600
H 	H 	0.42140 0.12030 0.93500 0.10700
C 	C 	0.41710 0.17970 0.87710 0.15300
C 	C 	0.22740 0.02100 0.02600 0.15200
H 	H 	0.29980 0.07590 0.08190 0.09500
O 	O 	0.50623 0.17952 0.19418 -0.17000
O 	O 	0.47190 0.02540 0.14480 -0.16300
Cl	Cl	0.41510 0.13480 0.80500 -0.23000
Cl	Cl	0.17400 0.03020 0.06010 -0.19600
Co	Co	0.66716 0.56455 0.09821 1.12600
N 	N 	0.74115 0.56806 0.06370 -0.27400
N 	N 	0.65954 0.62234 0.03840 -0.26900
N 	N 	0.68000 0.60020 0.19190 -0.25300
N 	N 	0.60340 0.48150 0.06760 -0.25400
C 	C 	0.75820 0.57190 0.99660 0.07600
C 	C 	0.70320 0.68010 0.02520 0.06700
C 	C 	0.68070 0.64810 0.21500 0.02700
C 	C 	0.60720 0.44770 0.02530 0.02500
C 	C 	0.73430 0.57810 0.93510 -0.17300
C 	C 	0.76050 0.71500 0.05010 -0.16000
H 	H 	0.68110 0.67740 0.18790 0.04900
H 	H 	0.64000 0.45670 0.99850 0.02600
H 	H 	0.69890 0.57860 0.93500 0.10700
C 	C 	0.76260 0.58290 0.87710 0.15400
C 	C 	0.79360 0.77260 0.02600 0.15600
H 	H 	0.77610 0.70020 0.08190 0.09700
O 	O 	0.67329 0.49377 0.19418 -0.17000
O 	O 	0.55350 0.52810 0.14480 -0.16200
Cl	Cl	0.71970 0.58490 0.80500 -0.22900
Cl	Cl	0.85620 0.82600 0.06010 -0.19300
Co	Co	0.33284 0.89739 0.59821 1.12700
N 	N 	0.25885 0.82691 0.56370 -0.27200
N 	N 	0.34046 0.96280 0.53840 -0.26900
N 	N 	0.32000 0.92020 0.69190 -0.25300
N 	N 	0.39660 0.87810 0.56760 -0.25400
C 	C 	0.24180 0.81370 0.49660 0.07200
C 	C 	0.29680 0.97690 0.52520 0.07700
C 	C 	0.31930 0.96740 0.71500 0.02700
C 	C 	0.39280 0.84050 0.52530 0.03100
C 	C 	0.26570 0.84380 0.43510 -0.17200
C 	C 	0.23950 0.95450 0.55010 -0.16700
H 	H 	0.31890 0.99630 0.68790 0.04900
H 	H 	0.36000 0.81670 0.49850 0.02200
H 	H 	0.30110 0.87970 0.43500 0.10600
C 	C 	0.23740 0.82030 0.37710 0.15300
C 	C 	0.20640 0.97900 0.52600 0.16700
H 	H 	0.22390 0.92410 0.58190 0.09900
O 	O 	0.32671 0.82048 0.69418 -0.17000
O 	O 	0.44650 0.97460 0.64480 -0.16100
Cl	Cl	0.28030 0.86520 0.30500 -0.22800
Cl	Cl	0.14380 0.96980 0.56010 -0.19400
Co	Co	0.10261 0.43545 0.59821 1.12700
N 	N 	0.17309 0.43194 0.56370 -0.27200
N 	N 	0.03720 0.37766 0.53840 -0.26900
N 	N 	0.07980 0.39980 0.69190 -0.25300
N 	N 	0.12190 0.51850 0.56760 -0.25400
C 	C 	0.18630 0.42810 0.49660 0.07200
C 	C 	0.02310 0.31990 0.52520 0.06600
C 	C 	0.03260 0.35190 0.71500 0.02600
C 	C 	0.15950 0.55230 0.52530 0.03100
C 	C 	0.15620 0.42190 0.43510 -0.17200
C 	C 	0.04550 0.28500 0.55010 -0.16000
H 	H 	0.00370 0.32260 0.68790 0.04800
H 	H 	0.18330 0.54330 0.49850 0.02100
H 	H 	0.12030 0.42140 0.43500 0.10500
C 	C 	0.17970 0.41710 0.37710 0.15300
C 	C 	0.02100 0.22740 0.52600 0.15600
H 	H 	0.07590 0.29980 0.58190 0.09700
O 	O 	0.17952 0.50623 0.69418 -0.17000
O 	O 	0.02540 0.47190 0.64480 -0.16300
Cl	Cl	0.13480 0.41510 0.30500 -0.23100
Cl	Cl	0.03020 0.17400 0.56010 -0.19500
Co	Co	0.56455 0.66716 0.59821 1.12700
N 	N 	0.56806 0.74115 0.56370 -0.27200
N 	N 	0.62234 0.65954 0.53840 -0.27000
N 	N 	0.60020 0.68000 0.69190 -0.25300
N 	N 	0.48150 0.60340 0.56760 -0.25400
C 	C 	0.57190 0.75820 0.49660 0.07200
C 	C 	0.68010 0.70320 0.52520 0.07300
C 	C 	0.64810 0.68070 0.71500 0.02700
C 	C 	0.44770 0.60720 0.52530 0.03100
C 	C 	0.57810 0.73430 0.43510 -0.17200
C 	C 	0.71500 0.76050 0.55010 -0.16400
H 	H 	0.67740 0.68110 0.68790 0.04900
H 	H 	0.45670 0.64000 0.49850 0.02200
H 	H 	0.57860 0.69890 0.43500 0.10500
C 	C 	0.58290 0.76260 0.37710 0.15300
C 	C 	0.77260 0.79360 0.52600 0.16300
H 	H 	0.70020 0.77610 0.58190 0.09800
O 	O 	0.49377 0.67329 0.69418 -0.17000
O 	O 	0.52810 0.55350 0.64480 -0.16100
Cl	Cl	0.58490 0.71970 0.30500 -0.22900
Cl	Cl	0.82600 0.85620 0.56010 -0.19200
Co	Co	0.66716 0.10261 0.09821 1.12600
N 	N 	0.74115 0.17309 0.06370 -0.27400
N 	N 	0.65954 0.03720 0.03840 -0.26800
N 	N 	0.68000 0.07980 0.19190 -0.25300
N 	N 	0.60340 0.12190 0.06760 -0.25400
C 	C 	0.75820 0.18630 0.99660 0.07600
C 	C 	0.70320 0.02310 0.02520 0.06100
C 	C 	0.68070 0.03260 0.21500 0.02600
C 	C 	0.60720 0.15950 0.02530 0.02500
C 	C 	0.73430 0.15620 0.93510 -0.17300
C 	C 	0.76050 0.04550 0.05010 -0.15600
H 	H 	0.68110 0.00370 0.18790 0.04800
H 	H 	0.64000 0.18330 0.99850 0.02600
H 	H 	0.69890 0.12030 0.93500 0.10700
C 	C 	0.76260 0.17970 0.87710 0.15300
C 	C 	0.79360 0.02100 0.02600 0.15100
H 	H 	0.77610 0.07590 0.08190 0.09500
O 	O 	0.67329 0.17952 0.19418 -0.17000
O 	O 	0.55350 0.02540 0.14480 -0.16300
Cl	Cl	0.71970 0.13480 0.80500 -0.23000
Cl	Cl	0.85620 0.03020 0.06010 -0.19500
Co	Co	0.89739 0.56455 0.09821 1.12700
N 	N 	0.82691 0.56806 0.06370 -0.27400
N 	N 	0.96280 0.62234 0.03840 -0.26700
N 	N 	0.92020 0.60020 0.19190 -0.25300
N 	N 	0.87810 0.48150 0.06760 -0.25400
C 	C 	0.81370 0.57190 0.99660 0.07600
C 	C 	0.97690 0.68010 0.02520 0.07400
C 	C 	0.96740 0.64810 0.21500 0.02700
C 	C 	0.84050 0.44770 0.02530 0.02500
C 	C 	0.84380 0.57810 0.93510 -0.17300
C 	C 	0.95450 0.71500 0.05010 -0.16500
H 	H 	0.99630 0.67740 0.18790 0.04900
H 	H 	0.81670 0.45670 0.99850 0.02600
H 	H 	0.87970 0.57860 0.93500 0.10800
C 	C 	0.82030 0.58290 0.87710 0.15400
C 	C 	0.97900 0.77260 0.02600 0.16300
H 	H 	0.92410 0.70020 0.08190 0.09800
O 	O 	0.82048 0.49377 0.19418 -0.17000
O 	O 	0.97460 0.52810 0.14480 -0.16100
Cl	Cl	0.86520 0.58490 0.80500 -0.22700
Cl	Cl	0.96980 0.82600 0.06010 -0.19200
Co	Co	0.43545 0.33284 0.09821 1.12600
N 	N 	0.43194 0.25885 0.06370 -0.27400
N 	N 	0.37766 0.34046 0.03840 -0.26900
N 	N 	0.39980 0.32000 0.19190 -0.25300
N 	N 	0.51850 0.39660 0.06760 -0.25400
C 	C 	0.42810 0.24180 0.99660 0.07600
C 	C 	0.31990 0.29680 0.02520 0.06600
C 	C 	0.35190 0.31930 0.21500 0.02700
C 	C 	0.55230 0.39280 0.02530 0.02500
C 	C 	0.42190 0.26570 0.93510 -0.17300
C 	C 	0.28500 0.23950 0.05010 -0.16000
H 	H 	0.32260 0.31890 0.18790 0.04900
H 	H 	0.54330 0.36000 0.99850 0.02600
H 	H 	0.42140 0.30110 0.93500 0.10700
C 	C 	0.41710 0.23740 0.87710 0.15300
C 	C 	0.22740 0.20640 0.02600 0.15600
H 	H 	0.29980 0.22390 0.08190 0.09700
O 	O 	0.50623 0.32671 0.19418 -0.17000
O 	O 	0.47190 0.44650 0.14480 -0.16200
Cl	Cl	0.41510 0.28030 0.80500 -0.22900
Cl	Cl	0.17400 0.14380 0.06010 -0.19500
Co	Co	0.89739 0.33284 0.40179 1.12700
N 	N 	0.82691 0.25885 0.43630 -0.27200
N 	N 	0.96280 0.34046 0.46160 -0.26800
N 	N 	0.92020 0.32000 0.30810 -0.25300
N 	N 	0.87810 0.39660 0.43240 -0.25400
C 	C 	0.81370 0.24180 0.50340 0.07200
C 	C 	0.97690 0.29680 0.47480 0.07900
C 	C 	0.96740 0.31930 0.28500 0.02700
C 	C 	0.84050 0.39280 0.47470 0.03100
C 	C 	0.84380 0.26570 0.56490 -0.17200
C 	C 	0.95450 0.23950 0.44990 -0.16900
H 	H 	0.99630 0.31890 0.31210 0.04900
H 	H 	0.81670 0.36000 0.50150 0.02200
H 	H 	0.87970 0.30110 0.56500 0.10600
C 	C 	0.82030 0.23740 0.62290 0.15300
C 	C 	0.97900 0.20640 0.47400 0.16900
H 	H 	0.92410 0.22390 0.41810 0.10000
O 	O 	0.82048 0.32671 0.30582 -0.17000
O 	O 	0.97460 0.44650 0.35520 -0.16000
Cl	Cl	0.86520 0.28030 0.69500 -0.22800
Cl	Cl	0.96980 0.14380 0.43990 -0.19300
Co	Co	0.43545 0.10261 0.40179 1.12700
N 	N 	0.43194 0.17309 0.43630 -0.27200
N 	N 	0.37766 0.03720 0.46160 -0.26900
N 	N 	0.39980 0.07980 0.30810 -0.25300
N 	N 	0.51850 0.12190 0.43240 -0.25400
C 	C 	0.42810 0.18630 0.50340 0.07200
C 	C 	0.31990 0.02310 0.47480 0.06800
C 	C 	0.35190 0.03260 0.28500 0.02600
C 	C 	0.55230 0.15950 0.47470 0.03100
C 	C 	0.42190 0.15620 0.56490 -0.17200
C 	C 	0.28500 0.04550 0.44990 -0.16100
H 	H 	0.32260 0.00370 0.31210 0.04800
H 	H 	0.54330 0.18330 0.50150 0.02200
H 	H 	0.42140 0.12030 0.56500 0.10500
C 	C 	0.41710 0.17970 0.62290 0.15300
C 	C 	0.22740 0.02100 0.47400 0.15800
H 	H 	0.29980 0.07590 0.41810 0.09700
O 	O 	0.50623 0.17952 0.30582 -0.17000
O 	O 	0.47190 0.02540 0.35520 -0.16200
Cl	Cl	0.41510 0.13480 0.69500 -0.23000
Cl	Cl	0.17400 0.03020 0.43990 -0.19500
Co	Co	0.66716 0.56455 0.40179 1.12700
N 	N 	0.74115 0.56806 0.43630 -0.27200
N 	N 	0.65954 0.62234 0.46160 -0.27000
N 	N 	0.68000 0.60020 0.30810 -0.25300
N 	N 	0.60340 0.48150 0.43240 -0.25400
C 	C 	0.75820 0.57190 0.50340 0.07200
C 	C 	0.70320 0.68010 0.47480 0.07300
C 	C 	0.68070 0.64810 0.28500 0.02700
C 	C 	0.60720 0.44770 0.47470 0.03100
C 	C 	0.73430 0.57810 0.56490 -0.17200
C 	C 	0.76050 0.71500 0.44990 -0.16400
H 	H 	0.68110 0.67740 0.31210 0.04900
H 	H 	0.64000 0.45670 0.50150 0.02200
H 	H 	0.69890 0.57860 0.56500 0.10500
C 	C 	0.76260 0.58290 0.62290 0.15300
C 	C 	0.79360 0.77260 0.47400 0.16300
H 	H 	0.77610 0.70020 0.41810 0.09800
O 	O 	0.67329 0.49377 0.30582 -0.17000
O 	O 	0.55350 0.52810 0.35520 -0.16100
Cl	Cl	0.71970 0.58490 0.69500 -0.22900
Cl	Cl	0.85620 0.82600 0.43990 -0.19200
Co	Co	0.10261 0.66716 0.90179 1.12700
N 	N 	0.17309 0.74115 0.93630 -0.27000
N 	N 	0.03720 0.65954 0.96160 -0.26700
N 	N 	0.07980 0.68000 0.80810 -0.25300
N 	N 	0.12190 0.60340 0.93240 -0.25500
C 	C 	0.18630 0.75820 0.00340 0.06900
C 	C 	0.02310 0.70320 0.97480 0.07200
C 	C 	0.03260 0.68070 0.78500 0.02600
C 	C 	0.15950 0.60720 0.97470 0.03600
C 	C 	0.15620 0.73430 0.06490 -0.17100
C 	C 	0.04550 0.76050 0.94990 -0.16300
H 	H 	0.00370 0.68110 0.81210 0.04800
H 	H 	0.18330 0.64000 0.00150 0.01700
H 	H 	0.12030 0.69890 0.06500 0.10400
C 	C 	0.17970 0.76260 0.12290 0.15200
C 	C 	0.02100 0.79360 0.97400 0.16200
H 	H 	0.07590 0.77610 0.91810 0.09800
O 	O 	0.17952 0.67329 0.80582 -0.17000
O 	O 	0.02540 0.55350 0.85520 -0.16200
Cl	Cl	0.13480 0.71970 0.19500 -0.23100
Cl	Cl	0.03020 0.85620 0.93990 -0.19400
Co	Co	0.56455 0.89739 0.90179 1.12700
N 	N 	0.56806 0.82691 0.93630 -0.27000
N 	N 	0.62234 0.96280 0.96160 -0.26700
N 	N 	0.60020 0.92020 0.80810 -0.25300
N 	N 	0.48150 0.87810 0.93240 -0.25500
C 	C 	0.57190 0.81370 0.00340 0.07000
C 	C 	0.68010 0.97690 0.97480 0.08500
C 	C 	0.64810 0.96740 0.78500 0.02700
C 	C 	0.44770 0.84050 0.97470 0.03600
C 	C 	0.57810 0.84380 0.06490 -0.17100
C 	C 	0.71500 0.95450 0.94990 -0.17200
H 	H 	0.67740 0.99630 0.81210 0.04900
H 	H 	0.45670 0.81670 0.00150 0.01700
H 	H 	0.57860 0.87970 0.06500 0.10500
C 	C 	0.58290 0.82030 0.12290 0.15300
C 	C 	0.77260 0.97900 0.97400 0.17500
H 	H 	0.70020 0.92410 0.91810 0.10100
O 	O 	0.49377 0.82048 0.80582 -0.17000
O 	O 	0.52810 0.97460 0.85520 -0.16000
Cl	Cl	0.58490 0.86520 0.19500 -0.22800
Cl	Cl	0.82600 0.96980 0.93990 -0.19100
Co	Co	0.33284 0.43545 0.90179 1.12700
N 	N 	0.25885 0.43194 0.93630 -0.27000
N 	N 	0.34046 0.37766 0.96160 -0.26800
N 	N 	0.32000 0.39980 0.80810 -0.25300
N 	N 	0.39660 0.51850 0.93240 -0.25500
C 	C 	0.24180 0.42810 0.00340 0.06900
C 	C 	0.29680 0.31990 0.97480 0.08000
C 	C 	0.31930 0.35190 0.78500 0.02700
C 	C 	0.39280 0.55230 0.97470 0.03600
C 	C 	0.26570 0.42190 0.06490 -0.17100
C 	C 	0.23950 0.28500 0.94990 -0.16900
H 	H 	0.31890 0.32260 0.81210 0.04900
H 	H 	0.36000 0.54330 0.00150 0.01700
H 	H 	0.30110 0.42140 0.06500 0.10400
C 	C 	0.23740 0.41710 0.12290 0.15200
C 	C 	0.20640 0.22740 0.97400 0.17000
H 	H 	0.22390 0.29980 0.91810 0.10000
O 	O 	0.32671 0.50623 0.80582 -0.17000
O 	O 	0.44650 0.47190 0.85520 -0.16100
Cl	Cl	0.28030 0.41510 0.19500 -0.23000
Cl	Cl	0.14380 0.17400 0.93990 -0.19400
C 	C 	0.78285 0.21715 0.40100 0.11500
H 	H 	0.78130 0.21870 0.35380 -0.01700
C 	C 	0.78285 0.56570 0.40100 0.11500
H 	H 	0.78130 0.56260 0.35380 -0.01700
C 	C 	0.43430 0.21715 0.40100 0.11500
H 	H 	0.43740 0.21870 0.35380 -0.01700
C 	C 	0.21715 0.78285 0.90100 0.11600
H 	H 	0.21870 0.78130 0.85380 -0.01700
C 	C 	0.21715 0.43430 0.90100 0.11600
H 	H 	0.21870 0.43740 0.85380 -0.01700
C 	C 	0.56570 0.78285 0.90100 0.11600
H 	H 	0.56260 0.78130 0.85380 -0.01700
C 	C 	0.21715 0.78285 0.59900 0.11500
H 	H 	0.21870 0.78130 0.64620 -0.01700
C 	C 	0.56570 0.78285 0.59900 0.11500
H 	H 	0.56260 0.78130 0.64620 -0.01700
C 	C 	0.21715 0.43430 0.59900 0.11500
H 	H 	0.21870 0.43740 0.64620 -0.01700
C 	C 	0.78285 0.21715 0.09900 0.11400
H 	H 	0.78130 0.21870 0.14620 -0.01600
C 	C 	0.43430 0.21715 0.09900 0.11400
H 	H 	0.43740 0.21870 0.14620 -0.01600
C 	C 	0.78285 0.56570 0.09900 0.11400
H 	H 	0.78130 0.56260 0.14620 -0.01600
C 	C 	0.61370 0.00000 0.50000 0.10300
H 	H 	0.57810 0.00000 0.50000 -0.02000
C 	C 	-0.00000 0.61370 0.50000 0.10200
H 	H 	0.00000 0.57810 0.50000 -0.02000
C 	C 	0.38630 0.38630 0.50000 0.10700
H 	H 	0.42190 0.42190 0.50000 -0.02100
C 	C 	0.38630 0.00000 -0.00000 0.09900
H 	H 	0.42190 0.00000 -0.00000 -0.02000
C 	C 	0.00000 0.38630 -0.00000 0.09800
H 	H 	-0.00000 0.42190 -0.00000 -0.02000
C 	C 	0.61370 0.61370 -0.00000 0.10300
H 	H 	0.57810 0.57810 -0.00000 -0.02000
C 	C 	0.38630 0.00000 0.50000 0.10300
H 	H 	0.42190 0.00000 0.50000 -0.02100
C 	C 	0.00000 0.38630 0.50000 0.10200
H 	H 	0.00000 0.42190 0.50000 -0.02000
C 	C 	0.61370 0.61370 0.50000 0.10700
H 	H 	0.57810 0.57810 0.50000 -0.02100
C 	C 	0.61370 0.00000 -0.00000 0.09800
H 	H 	0.57810 0.00000 -0.00000 -0.02000
C 	C 	-0.00000 0.61370 -0.00000 0.09800
H 	H 	-0.00000 0.57810 -0.00000 -0.02000
C 	C 	0.38630 0.38630 -0.00000 0.10300
H 	H 	0.42190 0.42190 -0.00000 -0.02000
C 	C 	0.67740 0.10630 0.25000 0.14300
N 	N 	0.67620 0.15920 0.25000 -0.02500
C 	C 	0.89370 0.57110 0.25000 0.14300
N 	N 	0.84080 0.51700 0.25000 -0.02500
C 	C 	0.42890 0.32260 0.25000 0.14300
N 	N 	0.48300 0.32380 0.25000 -0.02500
C 	C 	0.32260 0.89370 0.75000 0.14300
N 	N 	0.32380 0.84080 0.75000 -0.02500
C 	C 	0.10630 0.42890 0.75000 0.14300
N 	N 	0.15920 0.48300 0.75000 -0.02500
C 	C 	0.57110 0.67740 0.75000 0.14300
N 	N 	0.51700 0.67620 0.75000 -0.02500
C 	C 	0.10630 0.67740 0.75000 0.14300
N 	N 	0.15920 0.67620 0.75000 -0.02500
C 	C 	0.57110 0.89370 0.75000 0.14300
N 	N 	0.51700 0.84080 0.75000 -0.02500
C 	C 	0.32260 0.42890 0.75000 0.14300
N 	N 	0.32380 0.48300 0.75000 -0.02500
C 	C 	0.89370 0.32260 0.25000 0.14300
N 	N 	0.84080 0.32380 0.25000 -0.02500
C 	C 	0.42890 0.10630 0.25000 0.14300
N 	N 	0.48300 0.15920 0.25000 -0.02500
C 	C 	0.67740 0.57110 0.25000 0.14300
N 	N 	0.67620 0.51700 0.25000 -0.02500
C 	C 	0.54805 0.09610 0.41100 0.16000
N 	N 	0.52165 0.04330 0.37420 -0.02200
C 	C 	0.90390 0.45195 0.41100 0.16100
N 	N 	0.95670 0.47835 0.37420 -0.02200
C 	C 	0.54805 0.45195 0.41100 0.16000
N 	N 	0.52165 0.47835 0.37420 -0.02200
C 	C 	0.45195 0.90390 0.91100 0.16100
N 	N 	0.47835 0.95670 0.87420 -0.02200
C 	C 	0.09610 0.54805 0.91100 0.16100
N 	N 	0.04330 0.52165 0.87420 -0.02200
C 	C 	0.45195 0.54805 0.91100 0.16100
N 	N 	0.47835 0.52165 0.87420 -0.02200
C 	C 	0.09610 0.54805 0.58900 0.16000
N 	N 	0.04330 0.52165 0.62580 -0.02200
C 	C 	0.45195 0.90390 0.58900 0.16100
N 	N 	0.47835 0.95670 0.62580 -0.02200
C 	C 	0.45195 0.54805 0.58900 0.16000
N 	N 	0.47835 0.52165 0.62580 -0.02200
C 	C 	0.90390 0.45195 0.08900 0.16100
N 	N 	0.95670 0.47835 0.12580 -0.02200
C 	C 	0.54805 0.09610 0.08900 0.16000
N 	N 	0.52165 0.04330 0.12580 -0.02200
C 	C 	0.54805 0.45195 0.08900 0.16000
N 	N 	0.52165 0.47835 0.12580 -0.02200
