data_crystal

_cell_length_a 25.99490
_cell_length_b 25.99490
_cell_length_c 19.77570
_cell_angle_alpha 90.00000
_cell_angle_beta  90.00000
_cell_angle_gamma 120.00000

_symmetry_space_group_name_	'P 1'
_symmetry_space_group_name_H-M	'P 1'

loop_
_symmetry_equiv_pos_as_xyz
  x,y,z

loop_
_atom_site_label
_atom_site_type_symbol
_atom_site_fract_x
_atom_site_fract_y
_atom_site_fract_z
_atom_site_charge
Co	Co	0.43467 0.10167 0.59921 1.12700
N 	N 	0.43230 0.17340 0.56600 -0.25900
O 	O 	0.50560 0.17780 0.69430 -0.17500
N 	N 	0.40170 0.07930 0.69210 -0.26300
N 	N 	0.37640 0.03700 0.54050 -0.26300
N 	N 	0.51700 0.11910 0.56480 -0.24100
C 	C 	0.43040 0.18910 0.49680 0.04900
C 	C 	0.31800 0.02060 0.52800 0.05700
C 	C 	0.35030 0.03200 0.71360 0.01600
H 	H 	0.32010 0.00430 0.68610 0.04100
C 	C 	0.55390 0.16890 0.53280 0.01700
H 	H 	0.54600 0.19720 0.51460 0.02400
O 	O 	0.55250 0.02310 0.63950 -0.18000
C 	C 	0.42950 0.16080 0.43090 -0.13100
H 	H 	0.43600 0.12900 0.42490 0.09300
C 	C 	0.28210 0.04610 0.55020 -0.13200
H 	H 	0.29700 0.07900 0.57850 0.08100
C 	C 	0.22330 0.01740 0.52600 0.09900
C 	C 	0.41820 0.18800 0.38330 0.08400
Br	Br	0.16820 0.02950 0.56370 -0.13400
Br	Br	0.41540 0.13555 0.30144 -0.14900
Co	Co	0.89833 0.33300 0.59921 1.12800
N 	N 	0.82660 0.25890 0.56600 -0.25900
O 	O 	0.82220 0.32780 0.69430 -0.17500
N 	N 	0.92070 0.32240 0.69210 -0.26200
N 	N 	0.96300 0.33940 0.54050 -0.26300
N 	N 	0.88090 0.39790 0.56480 -0.24100
C 	C 	0.81090 0.24130 0.49680 0.04900
C 	C 	0.97940 0.29740 0.52800 0.06600
C 	C 	0.96800 0.31830 0.71360 0.01600
H 	H 	0.99570 0.31580 0.68610 0.04200
C 	C 	0.83110 0.38500 0.53280 0.01800
H 	H 	0.80280 0.34880 0.51460 0.02400
O 	O 	0.97690 0.52940 0.63950 -0.17800
C 	C 	0.83920 0.26870 0.43090 -0.13100
H 	H 	0.87100 0.30700 0.42490 0.09400
C 	C 	0.95390 0.23600 0.55020 -0.13800
H 	H 	0.92100 0.21800 0.57850 0.08400
C 	C 	0.98260 0.20590 0.52600 0.11000
C 	C 	0.81200 0.23020 0.38330 0.08400
Br	Br	0.97050 0.13870 0.56370 -0.13200
Br	Br	0.86445 0.27985 0.30144 -0.14600
Co	Co	0.66700 0.56533 0.59921 1.12800
N 	N 	0.74110 0.56770 0.56600 -0.25900
O 	O 	0.67220 0.49440 0.69430 -0.17500
N 	N 	0.67760 0.59830 0.69210 -0.26200
N 	N 	0.66060 0.62360 0.54050 -0.26400
N 	N 	0.60210 0.48300 0.56480 -0.24100
C 	C 	0.75870 0.56960 0.49680 0.04900
C 	C 	0.70260 0.68200 0.52800 0.06200
C 	C 	0.68170 0.64970 0.71360 0.01600
H 	H 	0.68420 0.67990 0.68610 0.04200
C 	C 	0.61500 0.44610 0.53280 0.01700
H 	H 	0.65120 0.45400 0.51460 0.02400
O 	O 	0.47060 0.44750 0.63950 -0.17900
C 	C 	0.73130 0.57050 0.43090 -0.13100
H 	H 	0.69300 0.56400 0.42490 0.09400
C 	C 	0.76400 0.71790 0.55020 -0.13500
H 	H 	0.78200 0.70300 0.57850 0.08300
C 	C 	0.79410 0.77670 0.52600 0.10500
C 	C 	0.76980 0.58180 0.38330 0.08400
Br	Br	0.86130 0.83180 0.56370 -0.13000
Br	Br	0.72015 0.58460 0.30144 -0.14700
Co	Co	0.56533 0.89833 0.09921 1.12800
N 	N 	0.56770 0.82660 0.06600 -0.26100
O 	O 	0.49440 0.82220 0.19430 -0.17500
N 	N 	0.59830 0.92070 0.19210 -0.26200
N 	N 	0.62360 0.96300 0.04050 -0.26200
N 	N 	0.48300 0.88090 0.06480 -0.24100
C 	C 	0.56960 0.81090 0.99680 0.05300
C 	C 	0.68200 0.97940 0.02800 0.06200
C 	C 	0.64970 0.96800 0.21360 0.01600
H 	H 	0.67990 0.99570 0.18610 0.04200
C 	C 	0.44610 0.83110 0.03280 0.01700
H 	H 	0.45400 0.80280 0.01460 0.02400
O 	O 	0.44750 0.97690 0.13950 -0.17800
C 	C 	0.57050 0.83920 0.93090 -0.13200
H 	H 	0.56400 0.87100 0.92490 0.09600
C 	C 	0.71790 0.95390 0.05020 -0.13500
H 	H 	0.70300 0.92100 0.07850 0.08200
C 	C 	0.77670 0.98260 0.02600 0.10500
C 	C 	0.58180 0.81200 0.88330 0.08500
Br	Br	0.83180 0.97050 0.06370 -0.13100
Br	Br	0.58460 0.86445 0.80144 -0.14500
Co	Co	0.10167 0.66700 0.09921 1.12800
N 	N 	0.17340 0.74110 0.06600 -0.26100
O 	O 	0.17780 0.67220 0.19430 -0.17500
N 	N 	0.07930 0.67760 0.19210 -0.26300
N 	N 	0.03700 0.66060 0.04050 -0.26200
N 	N 	0.11910 0.60210 0.06480 -0.24200
C 	C 	0.18910 0.75870 0.99680 0.05300
C 	C 	0.02060 0.70260 0.02800 0.05200
C 	C 	0.03200 0.68170 0.21360 0.01600
H 	H 	0.00430 0.68420 0.18610 0.04100
C 	C 	0.16890 0.61500 0.03280 0.01700
H 	H 	0.19720 0.65120 0.01460 0.02400
O 	O 	0.02310 0.47060 0.13950 -0.18000
C 	C 	0.16080 0.73130 0.93090 -0.13100
H 	H 	0.12900 0.69300 0.92490 0.09500
C 	C 	0.04610 0.76400 0.05020 -0.12800
H 	H 	0.07900 0.78200 0.07850 0.08000
C 	C 	0.01740 0.79410 0.02600 0.09300
C 	C 	0.18800 0.76980 0.88330 0.08400
Br	Br	0.02950 0.86130 0.06370 -0.13300
Br	Br	0.13555 0.72015 0.80144 -0.14700
Co	Co	0.33300 0.43467 0.09921 1.12800
N 	N 	0.25890 0.43230 0.06600 -0.26100
O 	O 	0.32780 0.50560 0.19430 -0.17500
N 	N 	0.32240 0.40170 0.19210 -0.26200
N 	N 	0.33940 0.37640 0.04050 -0.26300
N 	N 	0.39790 0.51700 0.06480 -0.24200
C 	C 	0.24130 0.43040 0.99680 0.05300
C 	C 	0.29740 0.31800 0.02800 0.05600
C 	C 	0.31830 0.35030 0.21360 0.01600
H 	H 	0.31580 0.32010 0.18610 0.04100
C 	C 	0.38500 0.55390 0.03280 0.01700
H 	H 	0.34880 0.54600 0.01460 0.02400
O 	O 	0.52940 0.55250 0.13950 -0.17900
C 	C 	0.26870 0.42950 0.93090 -0.13200
H 	H 	0.30700 0.43600 0.92490 0.09500
C 	C 	0.23600 0.28210 0.05020 -0.13100
H 	H 	0.21800 0.29700 0.07850 0.08100
C 	C 	0.20590 0.22330 0.02600 0.09800
C 	C 	0.23020 0.41820 0.88330 0.08400
Br	Br	0.13870 0.16820 0.06370 -0.13400
Br	Br	0.27985 0.41540 0.80144 -0.14700
Co	Co	0.10167 0.43467 0.40079 1.12800
N 	N 	0.17340 0.43230 0.43400 -0.25900
O 	O 	0.17780 0.50560 0.30570 -0.17500
N 	N 	0.07930 0.40170 0.30790 -0.26300
N 	N 	0.03700 0.37640 0.45950 -0.26400
N 	N 	0.11910 0.51700 0.43520 -0.24100
C 	C 	0.18910 0.43040 0.50320 0.04900
C 	C 	0.02060 0.31800 0.47200 0.05900
C 	C 	0.03200 0.35030 0.28640 0.01600
H 	H 	0.00430 0.32010 0.31390 0.04100
C 	C 	0.16890 0.55390 0.46720 0.01700
H 	H 	0.19720 0.54600 0.48540 0.02400
O 	O 	0.02310 0.55250 0.36050 -0.17900
C 	C 	0.16080 0.42950 0.56910 -0.13100
H 	H 	0.12900 0.43600 0.57510 0.09300
C 	C 	0.04610 0.28210 0.44980 -0.13300
H 	H 	0.07900 0.29700 0.42150 0.08200
C 	C 	0.01740 0.22330 0.47400 0.10100
C 	C 	0.18800 0.41820 0.61670 0.08400
Br	Br	0.02950 0.16820 0.43630 -0.13400
Br	Br	0.13555 0.41540 0.69856 -0.14800
Co	Co	0.33300 0.89833 0.40079 1.12800
N 	N 	0.25890 0.82660 0.43400 -0.25900
O 	O 	0.32780 0.82220 0.30570 -0.17500
N 	N 	0.32240 0.92070 0.30790 -0.26200
N 	N 	0.33940 0.96300 0.45950 -0.26300
N 	N 	0.39790 0.88090 0.43520 -0.24100
C 	C 	0.24130 0.81090 0.50320 0.04900
C 	C 	0.29740 0.97940 0.47200 0.06800
C 	C 	0.31830 0.96800 0.28640 0.01600
H 	H 	0.31580 0.99570 0.31390 0.04200
C 	C 	0.38500 0.83110 0.46720 0.01800
H 	H 	0.34880 0.80280 0.48540 0.02500
O 	O 	0.52940 0.97690 0.36050 -0.17800
C 	C 	0.26870 0.83920 0.56910 -0.13100
H 	H 	0.30700 0.87100 0.57510 0.09400
C 	C 	0.23600 0.95390 0.44980 -0.13900
H 	H 	0.21800 0.92100 0.42150 0.08400
C 	C 	0.20590 0.98260 0.47400 0.11200
C 	C 	0.23020 0.81200 0.61670 0.08400
Br	Br	0.13870 0.97050 0.43630 -0.13200
Br	Br	0.27985 0.86445 0.69856 -0.14600
Co	Co	0.56533 0.66700 0.40079 1.12800
N 	N 	0.56770 0.74110 0.43400 -0.25900
O 	O 	0.49440 0.67220 0.30570 -0.17500
N 	N 	0.59830 0.67760 0.30790 -0.26200
N 	N 	0.62360 0.66060 0.45950 -0.26400
N 	N 	0.48300 0.60210 0.43520 -0.24100
C 	C 	0.56960 0.75870 0.50320 0.04900
C 	C 	0.68200 0.70260 0.47200 0.06200
C 	C 	0.64970 0.68170 0.28640 0.01600
H 	H 	0.67990 0.68420 0.31390 0.04200
C 	C 	0.44610 0.61500 0.46720 0.01700
H 	H 	0.45400 0.65120 0.48540 0.02400
O 	O 	0.44750 0.47060 0.36050 -0.17900
C 	C 	0.57050 0.73130 0.56910 -0.13100
H 	H 	0.56400 0.69300 0.57510 0.09400
C 	C 	0.71790 0.76400 0.44980 -0.13500
H 	H 	0.70300 0.78200 0.42150 0.08300
C 	C 	0.77670 0.79410 0.47400 0.10500
C 	C 	0.58180 0.76980 0.61670 0.08400
Br	Br	0.83180 0.86130 0.43630 -0.13100
Br	Br	0.58460 0.72015 0.69856 -0.14700
Co	Co	0.89833 0.56533 0.90079 1.12800
N 	N 	0.82660 0.56770 0.93400 -0.25800
O 	O 	0.82220 0.49440 0.80570 -0.17500
N 	N 	0.92070 0.59830 0.80790 -0.26200
N 	N 	0.96300 0.62360 0.95950 -0.26200
N 	N 	0.88090 0.48300 0.93520 -0.24100
C 	C 	0.81090 0.56960 0.00320 0.04600
C 	C 	0.97940 0.68200 0.97200 0.07300
C 	C 	0.96800 0.64970 0.78640 0.01600
H 	H 	0.99570 0.67990 0.81390 0.04200
C 	C 	0.83110 0.44610 0.96720 0.01800
H 	H 	0.80280 0.45400 0.98540 0.02600
O 	O 	0.97690 0.44750 0.86050 -0.17700
C 	C 	0.83920 0.57050 0.06910 -0.13100
H 	H 	0.87100 0.56400 0.07510 0.09300
C 	C 	0.95390 0.71790 0.94980 -0.14200
H 	H 	0.92100 0.70300 0.92150 0.08500
C 	C 	0.98260 0.77670 0.97400 0.11800
C 	C 	0.81200 0.58180 0.11670 0.08400
Br	Br	0.97050 0.83180 0.93630 -0.13000
Br	Br	0.86445 0.58460 0.19856 -0.14600
Co	Co	0.66700 0.10167 0.90079 1.12800
N 	N 	0.74110 0.17340 0.93400 -0.25800
O 	O 	0.67220 0.17780 0.80570 -0.17500
N 	N 	0.67760 0.07930 0.80790 -0.26300
N 	N 	0.66060 0.03700 0.95950 -0.26200
N 	N 	0.60210 0.11910 0.93520 -0.24100
C 	C 	0.75870 0.18910 0.00320 0.04600
C 	C 	0.70260 0.02060 0.97200 0.06300
C 	C 	0.68170 0.03200 0.78640 0.01600
H 	H 	0.68420 0.00430 0.81390 0.04100
C 	C 	0.61500 0.16890 0.96720 0.01800
H 	H 	0.65120 0.19720 0.98540 0.02500
O 	O 	0.47060 0.02310 0.86050 -0.17900
C 	C 	0.73130 0.16080 0.06910 -0.13100
H 	H 	0.69300 0.12900 0.07510 0.09200
C 	C 	0.76400 0.04610 0.94980 -0.13500
H 	H 	0.78200 0.07900 0.92150 0.08300
C 	C 	0.79410 0.01740 0.97400 0.10600
C 	C 	0.76980 0.18800 0.11670 0.08300
Br	Br	0.86130 0.02950 0.93630 -0.13200
Br	Br	0.72015 0.13555 0.19856 -0.14900
Co	Co	0.43467 0.33300 0.90079 1.12800
N 	N 	0.43230 0.25890 0.93400 -0.25700
O 	O 	0.50560 0.32780 0.80570 -0.17500
N 	N 	0.40170 0.32240 0.80790 -0.26200
N 	N 	0.37640 0.33940 0.95950 -0.26300
N 	N 	0.51700 0.39790 0.93520 -0.24100
C 	C 	0.43040 0.24130 0.00320 0.04600
C 	C 	0.31800 0.29740 0.97200 0.06900
C 	C 	0.35030 0.31830 0.78640 0.01600
H 	H 	0.32010 0.31580 0.81390 0.04200
C 	C 	0.55390 0.38500 0.96720 0.01800
H 	H 	0.54600 0.34880 0.98540 0.02600
O 	O 	0.55250 0.52940 0.86050 -0.17800
C 	C 	0.42950 0.26870 0.06910 -0.13100
H 	H 	0.43600 0.30700 0.07510 0.09300
C 	C 	0.28210 0.23600 0.94980 -0.14000
H 	H 	0.29700 0.21800 0.92150 0.08400
C 	C 	0.22330 0.20590 0.97400 0.11400
C 	C 	0.41820 0.23020 0.11670 0.08300
Br	Br	0.16820 0.13870 0.93630 -0.13200
Br	Br	0.41540 0.27985 0.19856 -0.14800
Co	Co	0.56533 0.89833 0.40079 1.12800
N 	N 	0.56770 0.82660 0.43400 -0.25900
O 	O 	0.49440 0.82220 0.30570 -0.17500
N 	N 	0.59830 0.92070 0.30790 -0.26200
N 	N 	0.62360 0.96300 0.45950 -0.26300
N 	N 	0.48300 0.88090 0.43520 -0.24100
C 	C 	0.56960 0.81090 0.50320 0.04900
C 	C 	0.68200 0.97940 0.47200 0.06800
C 	C 	0.64970 0.96800 0.28640 0.01600
H 	H 	0.67990 0.99570 0.31390 0.04200
C 	C 	0.44610 0.83110 0.46720 0.01800
H 	H 	0.45400 0.80280 0.48540 0.02500
O 	O 	0.44750 0.97690 0.36050 -0.17800
C 	C 	0.57050 0.83920 0.56910 -0.13100
H 	H 	0.56400 0.87100 0.57510 0.09400
C 	C 	0.71790 0.95390 0.44980 -0.13900
H 	H 	0.70300 0.92100 0.42150 0.08400
C 	C 	0.77670 0.98260 0.47400 0.11300
C 	C 	0.58180 0.81200 0.61670 0.08400
Br	Br	0.83180 0.97050 0.43630 -0.13000
Br	Br	0.58460 0.86445 0.69856 -0.14500
Co	Co	0.10167 0.66700 0.40079 1.12800
N 	N 	0.17340 0.74110 0.43400 -0.25900
O 	O 	0.17780 0.67220 0.30570 -0.17500
N 	N 	0.07930 0.67760 0.30790 -0.26300
N 	N 	0.03700 0.66060 0.45950 -0.26300
N 	N 	0.11910 0.60210 0.43520 -0.24100
C 	C 	0.18910 0.75870 0.50320 0.04900
C 	C 	0.02060 0.70260 0.47200 0.05800
C 	C 	0.03200 0.68170 0.28640 0.01600
H 	H 	0.00430 0.68420 0.31390 0.04100
C 	C 	0.16890 0.61500 0.46720 0.01700
H 	H 	0.19720 0.65120 0.48540 0.02400
O 	O 	0.02310 0.47060 0.36050 -0.17900
C 	C 	0.16080 0.73130 0.56910 -0.13100
H 	H 	0.12900 0.69300 0.57510 0.09300
C 	C 	0.04610 0.76400 0.44980 -0.13200
H 	H 	0.07900 0.78200 0.42150 0.08200
C 	C 	0.01740 0.79410 0.47400 0.10000
C 	C 	0.18800 0.76980 0.61670 0.08400
Br	Br	0.02950 0.86130 0.43630 -0.13200
Br	Br	0.13555 0.72015 0.69856 -0.14800
Co	Co	0.33300 0.43467 0.40079 1.12800
N 	N 	0.25890 0.43230 0.43400 -0.25900
O 	O 	0.32780 0.50560 0.30570 -0.17500
N 	N 	0.32240 0.40170 0.30790 -0.26200
N 	N 	0.33940 0.37640 0.45950 -0.26400
N 	N 	0.39790 0.51700 0.43520 -0.24100
C 	C 	0.24130 0.43040 0.50320 0.04900
C 	C 	0.29740 0.31800 0.47200 0.06200
C 	C 	0.31830 0.35030 0.28640 0.01600
H 	H 	0.31580 0.32010 0.31390 0.04100
C 	C 	0.38500 0.55390 0.46720 0.01700
H 	H 	0.34880 0.54600 0.48540 0.02400
O 	O 	0.52940 0.55250 0.36050 -0.17900
C 	C 	0.26870 0.42950 0.56910 -0.13100
H 	H 	0.30700 0.43600 0.57510 0.09400
C 	C 	0.23600 0.28210 0.44980 -0.13500
H 	H 	0.21800 0.29700 0.42150 0.08300
C 	C 	0.20590 0.22330 0.47400 0.10600
C 	C 	0.23020 0.41820 0.61670 0.08400
Br	Br	0.13870 0.16820 0.43630 -0.13300
Br	Br	0.27985 0.41540 0.69856 -0.14700
Co	Co	0.43467 0.10167 0.90079 1.12800
N 	N 	0.43230 0.17340 0.93400 -0.25700
O 	O 	0.50560 0.17780 0.80570 -0.17500
N 	N 	0.40170 0.07930 0.80790 -0.26300
N 	N 	0.37640 0.03700 0.95950 -0.26200
N 	N 	0.51700 0.11910 0.93520 -0.24100
C 	C 	0.43040 0.18910 0.00320 0.04600
C 	C 	0.31800 0.02060 0.97200 0.06400
C 	C 	0.35030 0.03200 0.78640 0.01600
H 	H 	0.32010 0.00430 0.81390 0.04100
C 	C 	0.55390 0.16890 0.96720 0.01800
H 	H 	0.54600 0.19720 0.98540 0.02600
O 	O 	0.55250 0.02310 0.86050 -0.17900
C 	C 	0.42950 0.16080 0.06910 -0.13100
H 	H 	0.43600 0.12900 0.07510 0.09200
C 	C 	0.28210 0.04610 0.94980 -0.13600
H 	H 	0.29700 0.07900 0.92150 0.08300
C 	C 	0.22330 0.01740 0.97400 0.10700
C 	C 	0.41820 0.18800 0.11670 0.08300
Br	Br	0.16820 0.02950 0.93630 -0.13300
Br	Br	0.41540 0.13555 0.19856 -0.14900
Co	Co	0.89833 0.33300 0.90079 1.12800
N 	N 	0.82660 0.25890 0.93400 -0.25800
O 	O 	0.82220 0.32780 0.80570 -0.17500
N 	N 	0.92070 0.32240 0.80790 -0.26200
N 	N 	0.96300 0.33940 0.95950 -0.26200
N 	N 	0.88090 0.39790 0.93520 -0.24100
C 	C 	0.81090 0.24130 0.00320 0.04600
C 	C 	0.97940 0.29740 0.97200 0.07200
C 	C 	0.96800 0.31830 0.78640 0.01600
H 	H 	0.99570 0.31580 0.81390 0.04200
C 	C 	0.83110 0.38500 0.96720 0.01800
H 	H 	0.80280 0.34880 0.98540 0.02600
O 	O 	0.97690 0.52940 0.86050 -0.17700
C 	C 	0.83920 0.26870 0.06910 -0.13100
H 	H 	0.87100 0.30700 0.07510 0.09300
C 	C 	0.95390 0.23600 0.94980 -0.14200
H 	H 	0.92100 0.21800 0.92150 0.08500
C 	C 	0.98260 0.20590 0.97400 0.11700
C 	C 	0.81200 0.23020 0.11670 0.08400
Br	Br	0.97050 0.13870 0.93630 -0.13100
Br	Br	0.86445 0.27985 0.19856 -0.14700
Co	Co	0.66700 0.56533 0.90079 1.12800
N 	N 	0.74110 0.56770 0.93400 -0.25700
O 	O 	0.67220 0.49440 0.80570 -0.17500
N 	N 	0.67760 0.59830 0.80790 -0.26200
N 	N 	0.66060 0.62360 0.95950 -0.26300
N 	N 	0.60210 0.48300 0.93520 -0.24100
C 	C 	0.75870 0.56960 0.00320 0.04600
C 	C 	0.70260 0.68200 0.97200 0.06900
C 	C 	0.68170 0.64970 0.78640 0.01600
H 	H 	0.68420 0.67990 0.81390 0.04200
C 	C 	0.61500 0.44610 0.96720 0.01800
H 	H 	0.65120 0.45400 0.98540 0.02600
O 	O 	0.47060 0.44750 0.86050 -0.17800
C 	C 	0.73130 0.57050 0.06910 -0.13100
H 	H 	0.69300 0.56400 0.07510 0.09300
C 	C 	0.76400 0.71790 0.94980 -0.13900
H 	H 	0.78200 0.70300 0.92150 0.08400
C 	C 	0.79410 0.77670 0.97400 0.11300
C 	C 	0.76980 0.58180 0.11670 0.08300
Br	Br	0.86130 0.83180 0.93630 -0.13000
Br	Br	0.72015 0.58460 0.19856 -0.14700
Co	Co	0.89833 0.56533 0.59921 1.12800
N 	N 	0.82660 0.56770 0.56600 -0.25900
O 	O 	0.82220 0.49440 0.69430 -0.17500
N 	N 	0.92070 0.59830 0.69210 -0.26200
N 	N 	0.96300 0.62360 0.54050 -0.26300
N 	N 	0.88090 0.48300 0.56480 -0.24100
C 	C 	0.81090 0.56960 0.49680 0.04900
C 	C 	0.97940 0.68200 0.52800 0.06600
C 	C 	0.96800 0.64970 0.71360 0.01600
H 	H 	0.99570 0.67990 0.68610 0.04200
C 	C 	0.83110 0.44610 0.53280 0.01800
H 	H 	0.80280 0.45400 0.51460 0.02400
O 	O 	0.97690 0.44750 0.63950 -0.17800
C 	C 	0.83920 0.57050 0.43090 -0.13100
H 	H 	0.87100 0.56400 0.42490 0.09400
C 	C 	0.95390 0.71790 0.55020 -0.13800
H 	H 	0.92100 0.70300 0.57850 0.08400
C 	C 	0.98260 0.77670 0.52600 0.11000
C 	C 	0.81200 0.58180 0.38330 0.08400
Br	Br	0.97050 0.83180 0.56370 -0.13000
Br	Br	0.86445 0.58460 0.30144 -0.14600
Co	Co	0.66700 0.10167 0.59921 1.12800
N 	N 	0.74110 0.17340 0.56600 -0.25900
O 	O 	0.67220 0.17780 0.69430 -0.17500
N 	N 	0.67760 0.07930 0.69210 -0.26300
N 	N 	0.66060 0.03700 0.54050 -0.26300
N 	N 	0.60210 0.11910 0.56480 -0.24100
C 	C 	0.75870 0.18910 0.49680 0.04900
C 	C 	0.70260 0.02060 0.52800 0.05600
C 	C 	0.68170 0.03200 0.71360 0.01600
H 	H 	0.68420 0.00430 0.68610 0.04100
C 	C 	0.61500 0.16890 0.53280 0.01700
H 	H 	0.65120 0.19720 0.51460 0.02400
O 	O 	0.47060 0.02310 0.63950 -0.18000
C 	C 	0.73130 0.16080 0.43090 -0.13100
H 	H 	0.69300 0.12900 0.42490 0.09300
C 	C 	0.76400 0.04610 0.55020 -0.13100
H 	H 	0.78200 0.07900 0.57850 0.08100
C 	C 	0.79410 0.01740 0.52600 0.09800
C 	C 	0.76980 0.18800 0.38330 0.08300
Br	Br	0.86130 0.02950 0.56370 -0.13300
Br	Br	0.72015 0.13555 0.30144 -0.14900
Co	Co	0.43467 0.33300 0.59921 1.12800
N 	N 	0.43230 0.25890 0.56600 -0.25900
O 	O 	0.50560 0.32780 0.69430 -0.17500
N 	N 	0.40170 0.32240 0.69210 -0.26200
N 	N 	0.37640 0.33940 0.54050 -0.26400
N 	N 	0.51700 0.39790 0.56480 -0.24100
C 	C 	0.43040 0.24130 0.49680 0.04900
C 	C 	0.31800 0.29740 0.52800 0.06200
C 	C 	0.35030 0.31830 0.71360 0.01600
H 	H 	0.32010 0.31580 0.68610 0.04100
C 	C 	0.55390 0.38500 0.53280 0.01700
H 	H 	0.54600 0.34880 0.51460 0.02400
O 	O 	0.55250 0.52940 0.63950 -0.17900
C 	C 	0.42950 0.26870 0.43090 -0.13100
H 	H 	0.43600 0.30700 0.42490 0.09400
C 	C 	0.28210 0.23600 0.55020 -0.13500
H 	H 	0.29700 0.21800 0.57850 0.08300
C 	C 	0.22330 0.20590 0.52600 0.10600
C 	C 	0.41820 0.23020 0.38330 0.08400
Br	Br	0.16820 0.13870 0.56370 -0.13300
Br	Br	0.41540 0.27985 0.30144 -0.14700
Co	Co	0.10167 0.43467 0.09921 1.12800
N 	N 	0.17340 0.43230 0.06600 -0.26100
O 	O 	0.17780 0.50560 0.19430 -0.17500
N 	N 	0.07930 0.40170 0.19210 -0.26300
N 	N 	0.03700 0.37640 0.04050 -0.26300
N 	N 	0.11910 0.51700 0.06480 -0.24200
C 	C 	0.18910 0.43040 0.99680 0.05300
C 	C 	0.02060 0.31800 0.02800 0.05300
C 	C 	0.03200 0.35030 0.21360 0.01600
H 	H 	0.00430 0.32010 0.18610 0.04100
C 	C 	0.16890 0.55390 0.03280 0.01700
H 	H 	0.19720 0.54600 0.01460 0.02400
O 	O 	0.02310 0.55250 0.13950 -0.18000
C 	C 	0.16080 0.42950 0.93090 -0.13100
H 	H 	0.12900 0.43600 0.92490 0.09500
C 	C 	0.04610 0.28210 0.05020 -0.12900
H 	H 	0.07900 0.29700 0.07850 0.08000
C 	C 	0.01740 0.22330 0.02600 0.09400
C 	C 	0.18800 0.41820 0.88330 0.08400
Br	Br	0.02950 0.16820 0.06370 -0.13400
Br	Br	0.13555 0.41540 0.80144 -0.14700
Co	Co	0.33300 0.89833 0.09921 1.12800
N 	N 	0.25890 0.82660 0.06600 -0.26100
O 	O 	0.32780 0.82220 0.19430 -0.17500
N 	N 	0.32240 0.92070 0.19210 -0.26200
N 	N 	0.33940 0.96300 0.04050 -0.26200
N 	N 	0.39790 0.88090 0.06480 -0.24100
C 	C 	0.24130 0.81090 0.99680 0.05300
C 	C 	0.29740 0.97940 0.02800 0.06100
C 	C 	0.31830 0.96800 0.21360 0.01600
H 	H 	0.31580 0.99570 0.18610 0.04200
C 	C 	0.38500 0.83110 0.03280 0.01700
H 	H 	0.34880 0.80280 0.01460 0.02400
O 	O 	0.52940 0.97690 0.13950 -0.17800
C 	C 	0.26870 0.83920 0.93090 -0.13200
H 	H 	0.30700 0.87100 0.92490 0.09600
C 	C 	0.23600 0.95390 0.05020 -0.13500
H 	H 	0.21800 0.92100 0.07850 0.08200
C 	C 	0.20590 0.98260 0.02600 0.10400
C 	C 	0.23020 0.81200 0.88330 0.08500
Br	Br	0.13870 0.97050 0.06370 -0.13200
Br	Br	0.27985 0.86445 0.80144 -0.14500
Co	Co	0.56533 0.66700 0.09921 1.12800
N 	N 	0.56770 0.74110 0.06600 -0.26100
O 	O 	0.49440 0.67220 0.19430 -0.17500
N 	N 	0.59830 0.67760 0.19210 -0.26200
N 	N 	0.62360 0.66060 0.04050 -0.26300
N 	N 	0.48300 0.60210 0.06480 -0.24200
C 	C 	0.56960 0.75870 0.99680 0.05200
C 	C 	0.68200 0.70260 0.02800 0.05600
C 	C 	0.64970 0.68170 0.21360 0.01600
H 	H 	0.67990 0.68420 0.18610 0.04200
C 	C 	0.44610 0.61500 0.03280 0.01700
H 	H 	0.45400 0.65120 0.01460 0.02400
O 	O 	0.44750 0.47060 0.13950 -0.17900
C 	C 	0.57050 0.73130 0.93090 -0.13100
H 	H 	0.56400 0.69300 0.92490 0.09500
C 	C 	0.71790 0.76400 0.05020 -0.13100
H 	H 	0.70300 0.78200 0.07850 0.08100
C 	C 	0.77670 0.79410 0.02600 0.09800
C 	C 	0.58180 0.76980 0.88330 0.08400
Br	Br	0.83180 0.86130 0.06370 -0.13100
Br	Br	0.58460 0.72015 0.80144 -0.14600
N 	N 	0.48260 0.15840 0.75000 -0.02400
C 	C 	0.42680 0.10330 0.75000 0.16400
N 	N 	0.84160 0.32420 0.75000 -0.02400
C 	C 	0.89670 0.32350 0.75000 0.16400
N 	N 	0.67580 0.51740 0.75000 -0.02400
C 	C 	0.67650 0.57320 0.75000 0.16400
N 	N 	0.51740 0.84160 0.25000 -0.02400
C 	C 	0.57320 0.89670 0.25000 0.16400
N 	N 	0.15840 0.67580 0.25000 -0.02400
C 	C 	0.10330 0.67650 0.25000 0.16400
N 	N 	0.32420 0.48260 0.25000 -0.02400
C 	C 	0.32350 0.42680 0.25000 0.16400
N 	N 	0.15840 0.48260 0.25000 -0.02400
C 	C 	0.10330 0.42680 0.25000 0.16400
N 	N 	0.32420 0.84160 0.25000 -0.02400
C 	C 	0.32350 0.89670 0.25000 0.16400
N 	N 	0.51740 0.67580 0.25000 -0.02400
C 	C 	0.57320 0.67650 0.25000 0.16400
N 	N 	0.84160 0.51740 0.75000 -0.02400
C 	C 	0.89670 0.57320 0.75000 0.16400
N 	N 	0.67580 0.15840 0.75000 -0.02400
C 	C 	0.67650 0.10330 0.75000 0.16400
N 	N 	0.48260 0.32420 0.75000 -0.02400
C 	C 	0.42680 0.32350 0.75000 0.16400
C 	C 	0.43450 0.21725 0.60430 0.09000
H 	H 	0.43720 0.21860 0.65130 -0.00800
C 	C 	0.78275 0.21725 0.60430 0.09000
H 	H 	0.78140 0.21860 0.65130 -0.00800
C 	C 	0.78275 0.56550 0.60430 0.09000
H 	H 	0.78140 0.56280 0.65130 -0.00800
C 	C 	0.56550 0.78275 0.10430 0.09000
H 	H 	0.56280 0.78140 0.15130 -0.00800
C 	C 	0.21725 0.78275 0.10430 0.09000
H 	H 	0.21860 0.78140 0.15130 -0.00800
C 	C 	0.21725 0.43450 0.10430 0.09000
H 	H 	0.21860 0.43720 0.15130 -0.00800
C 	C 	0.21725 0.43450 0.39570 0.09000
H 	H 	0.21860 0.43720 0.34870 -0.00800
C 	C 	0.21725 0.78275 0.39570 0.09000
H 	H 	0.21860 0.78140 0.34870 -0.00800
C 	C 	0.56550 0.78275 0.39570 0.09000
H 	H 	0.56280 0.78140 0.34870 -0.00800
C 	C 	0.78275 0.56550 0.89570 0.09100
H 	H 	0.78140 0.56280 0.84870 -0.00800
C 	C 	0.78275 0.21725 0.89570 0.09100
H 	H 	0.78140 0.21860 0.84870 -0.00800
C 	C 	0.43450 0.21725 0.89570 0.09100
H 	H 	0.43720 0.21860 0.84870 -0.00800
C 	C 	0.54685 0.09370 0.59050 0.14200
N 	N 	0.51840 0.03680 0.62470 0.00500
C 	C 	0.90630 0.45315 0.59050 0.14300
N 	N 	0.96320 0.48160 0.62470 0.00500
C 	C 	0.54685 0.45315 0.59050 0.14300
N 	N 	0.51840 0.48160 0.62470 0.00500
C 	C 	0.45315 0.90630 0.09050 0.14300
N 	N 	0.48160 0.96320 0.12470 0.00500
C 	C 	0.09370 0.54685 0.09050 0.14200
N 	N 	0.03680 0.51840 0.12470 0.00500
C 	C 	0.45315 0.54685 0.09050 0.14200
N 	N 	0.48160 0.51840 0.12470 0.00500
C 	C 	0.09370 0.54685 0.40950 0.14200
N 	N 	0.03680 0.51840 0.37530 0.00500
C 	C 	0.45315 0.90630 0.40950 0.14300
N 	N 	0.48160 0.96320 0.37530 0.00500
C 	C 	0.45315 0.54685 0.40950 0.14300
N 	N 	0.48160 0.51840 0.37530 0.00500
C 	C 	0.90630 0.45315 0.90950 0.14400
N 	N 	0.96320 0.48160 0.87530 0.00500
C 	C 	0.54685 0.09370 0.90950 0.14300
N 	N 	0.51840 0.03680 0.87530 0.00500
C 	C 	0.54685 0.45315 0.90950 0.14300
N 	N 	0.51840 0.48160 0.87530 0.00500
C 	C 	0.38640 -0.00000 0.50000 0.07800
H 	H 	0.42220 -0.00000 0.50000 -0.00800
C 	C 	0.00000 0.38640 0.50000 0.07900
H 	H 	0.00000 0.42220 0.50000 -0.00800
C 	C 	0.61360 0.61360 0.50000 0.08200
H 	H 	0.57780 0.57780 0.50000 -0.00800
C 	C 	0.61360 0.00000 -0.00000 0.07300
H 	H 	0.57780 0.00000 -0.00000 -0.00700
C 	C 	-0.00000 0.61360 -0.00000 0.07400
H 	H 	-0.00000 0.57780 -0.00000 -0.00800
C 	C 	0.38640 0.38640 -0.00000 0.07700
H 	H 	0.42220 0.42220 -0.00000 -0.00800
C 	C 	0.61360 -0.00000 0.50000 0.07700
H 	H 	0.57780 -0.00000 0.50000 -0.00800
C 	C 	0.00000 0.61360 0.50000 0.07900
H 	H 	-0.00000 0.57780 0.50000 -0.00800
C 	C 	0.38640 0.38640 0.50000 0.08200
H 	H 	0.42220 0.42220 0.50000 -0.00800
C 	C 	0.38640 0.00000 -0.00000 0.07300
H 	H 	0.42220 0.00000 -0.00000 -0.00700
C 	C 	0.00000 0.38640 -0.00000 0.07400
H 	H 	0.00000 0.42220 -0.00000 -0.00800
C 	C 	0.61360 0.61360 -0.00000 0.07700
H 	H 	0.57780 0.57780 -0.00000 -0.00800
