data_crystal

_cell_length_a 63.89700
_cell_length_b 63.89700
_cell_length_c 63.89700
_cell_angle_alpha 90.00000
_cell_angle_beta  90.00000
_cell_angle_gamma 90.00000

_symmetry_space_group_name_	'P 1'
_symmetry_space_group_name_H-M	'P 1'

loop_
_symmetry_equiv_pos_as_xyz
  x,y,z

loop_
_atom_site_label
_atom_site_type_symbol
_atom_site_fract_x
_atom_site_fract_y
_atom_site_fract_z
_atom_site_charge
C 	C 	0.41105 0.21878 0.10084 0.04200
H 	H 	0.39830 0.21540 0.09400 0.01200
C 	C 	0.42845 0.20684 0.09633 -0.05000
C 	C 	0.44733 0.21194 0.10600 0.01000
H 	H 	0.45960 0.20400 0.10340 0.03800
C 	C 	0.44760 0.22884 0.11944 -0.09800
H 	H 	0.46020 0.23290 0.12610 0.06700
C 	C 	0.42924 0.23985 0.12310 0.06000
H 	H 	0.42960 0.25150 0.13230 0.00100
C 	C 	0.34302 0.14828 0.96879 0.09700
C 	C 	0.35863 0.16482 0.01534 0.05700
H 	H 	0.34770 0.16360 0.00530 0.00000
C 	C 	0.35944 0.18264 0.02795 -0.09700
H 	H 	0.34890 0.19300 0.02690 0.06600
C 	C 	0.37551 0.18501 0.04177 0.01000
H 	H 	0.37650 0.19720 0.05020 0.03800
C 	C 	0.39057 0.16906 0.04333 -0.04900
C 	C 	0.38826 0.15169 0.03065 0.04000
H 	H 	0.39830 0.14080 0.03180 0.01500
C 	C 	0.40791 0.17038 0.05847 0.13500
C 	C 	0.42619 0.18823 0.08270 0.13900
C 	C 	0.43553 0.15570 0.07422 0.14100
C 	C 	0.46242 0.13725 0.09565 0.04500
H 	H 	0.46280 0.14930 0.10440 0.01000
C 	C 	0.44878 0.13729 0.07836 -0.05200
C 	C 	0.44790 0.11928 0.06601 0.00900
H 	H 	0.43880 0.11850 0.05430 0.03900
C 	C 	0.46063 0.10256 0.07141 -0.09600
H 	H 	0.46030 0.09000 0.06340 0.06600
C 	C 	0.47377 0.10415 0.08842 0.05800
H 	H 	0.48250 0.09260 0.09180 0.00300
C 	C 	0.50126 0.07496 0.13009 0.10500
C 	C 	0.51760 0.11136 0.16707 0.06100
H 	H 	0.50730 0.10070 0.16590 0.00100
C 	C 	0.52925 0.11214 0.18473 -0.09900
H 	H 	0.52660 0.10270 0.19590 0.06900
C 	C 	0.54519 0.12702 0.18645 0.00900
H 	H 	0.55370 0.12780 0.19860 0.03900
C 	C 	0.54822 0.14067 0.16989 -0.05100
C 	C 	0.53496 0.13923 0.15259 0.04400
H 	H 	0.53670 0.14890 0.14140 0.01100
C 	C 	0.56433 0.15696 0.17061 0.13500
N 	N 	0.41093 0.23473 0.11413 -0.22500
N 	N 	0.35431 0.13623 0.97646 -0.25700
N 	N 	0.37273 0.14933 0.01681 -0.22500
N 	N 	0.42030 0.15364 0.06052 -0.15200
N 	N 	0.40990 0.18807 0.06961 -0.15000
N 	N 	0.43970 0.17285 0.08523 -0.15400
N 	N 	0.47466 0.12139 0.10040 -0.22900
N 	N 	0.49874 0.09250 0.12722 -0.26100
N 	N 	0.52001 0.12494 0.15114 -0.22600
N 	N 	0.56397 0.17137 0.15560 -0.15000
S 	S 	0.32689 0.16525 0.95888 -0.06000
S 	S 	0.50491 0.05016 0.13430 -0.06100
C 	C 	0.41105 0.71878 0.60084 0.04200
H 	H 	0.39830 0.71540 0.59400 0.01200
C 	C 	0.42845 0.70684 0.59633 -0.05000
C 	C 	0.44733 0.71194 0.60600 0.01000
H 	H 	0.45960 0.70400 0.60340 0.03800
C 	C 	0.44760 0.72884 0.61944 -0.09800
H 	H 	0.46020 0.73290 0.62610 0.06700
C 	C 	0.42924 0.73985 0.62310 0.06000
H 	H 	0.42960 0.75150 0.63230 0.00100
C 	C 	0.34302 0.64828 0.46879 0.09700
C 	C 	0.35863 0.66482 0.51534 0.05700
H 	H 	0.34770 0.66360 0.50530 0.00000
C 	C 	0.35944 0.68264 0.52795 -0.09700
H 	H 	0.34890 0.69300 0.52690 0.06600
C 	C 	0.37551 0.68501 0.54177 0.01000
H 	H 	0.37650 0.69720 0.55020 0.03800
C 	C 	0.39057 0.66906 0.54333 -0.04900
C 	C 	0.38826 0.65169 0.53065 0.04000
H 	H 	0.39830 0.64080 0.53180 0.01500
C 	C 	0.40791 0.67038 0.55847 0.13500
C 	C 	0.42619 0.68823 0.58270 0.13900
C 	C 	0.43553 0.65570 0.57422 0.14100
C 	C 	0.46242 0.63725 0.59565 0.04500
H 	H 	0.46280 0.64930 0.60440 0.01000
C 	C 	0.44878 0.63729 0.57836 -0.05200
C 	C 	0.44790 0.61928 0.56601 0.00900
H 	H 	0.43880 0.61850 0.55430 0.03900
C 	C 	0.46063 0.60256 0.57141 -0.09600
H 	H 	0.46030 0.59000 0.56340 0.06600
C 	C 	0.47377 0.60415 0.58842 0.05800
H 	H 	0.48250 0.59260 0.59180 0.00300
C 	C 	0.50126 0.57496 0.63009 0.10500
C 	C 	0.51760 0.61136 0.66707 0.06100
H 	H 	0.50730 0.60070 0.66590 0.00100
C 	C 	0.52925 0.61214 0.68473 -0.09900
H 	H 	0.52660 0.60270 0.69590 0.06900
C 	C 	0.54519 0.62702 0.68645 0.00900
H 	H 	0.55370 0.62780 0.69860 0.03900
C 	C 	0.54822 0.64067 0.66989 -0.05100
C 	C 	0.53496 0.63923 0.65259 0.04400
H 	H 	0.53670 0.64890 0.64140 0.01100
C 	C 	0.56433 0.65696 0.67061 0.13500
N 	N 	0.41093 0.73473 0.61413 -0.22500
N 	N 	0.35431 0.63623 0.47646 -0.25700
N 	N 	0.37273 0.64933 0.51681 -0.22500
N 	N 	0.42030 0.65364 0.56052 -0.15200
N 	N 	0.40990 0.68807 0.56961 -0.15000
N 	N 	0.43970 0.67285 0.58523 -0.15400
N 	N 	0.47466 0.62139 0.60040 -0.22900
N 	N 	0.49874 0.59250 0.62722 -0.26100
N 	N 	0.52001 0.62494 0.65114 -0.22600
N 	N 	0.56397 0.67137 0.65560 -0.15000
S 	S 	0.32689 0.66525 0.45888 -0.06000
S 	S 	0.50491 0.55016 0.63430 -0.06100
C 	C 	0.91105 0.21878 0.60084 0.04200
H 	H 	0.89830 0.21540 0.59400 0.01200
C 	C 	0.92845 0.20684 0.59633 -0.05000
C 	C 	0.94733 0.21194 0.60600 0.01000
H 	H 	0.95960 0.20400 0.60340 0.03800
C 	C 	0.94760 0.22884 0.61944 -0.09800
H 	H 	0.96020 0.23290 0.62610 0.06700
C 	C 	0.92924 0.23985 0.62310 0.06000
H 	H 	0.92960 0.25150 0.63230 0.00100
C 	C 	0.84302 0.14828 0.46879 0.09700
C 	C 	0.85863 0.16482 0.51534 0.05700
H 	H 	0.84770 0.16360 0.50530 0.00000
C 	C 	0.85944 0.18264 0.52795 -0.09700
H 	H 	0.84890 0.19300 0.52690 0.06600
C 	C 	0.87551 0.18501 0.54177 0.01000
H 	H 	0.87650 0.19720 0.55020 0.03800
C 	C 	0.89057 0.16906 0.54333 -0.04900
C 	C 	0.88826 0.15169 0.53065 0.04000
H 	H 	0.89830 0.14080 0.53180 0.01500
C 	C 	0.90791 0.17038 0.55847 0.13500
C 	C 	0.92619 0.18823 0.58270 0.13900
C 	C 	0.93553 0.15570 0.57422 0.14100
C 	C 	0.96242 0.13725 0.59565 0.04500
H 	H 	0.96280 0.14930 0.60440 0.01000
C 	C 	0.94878 0.13729 0.57836 -0.05200
C 	C 	0.94790 0.11928 0.56601 0.00900
H 	H 	0.93880 0.11850 0.55430 0.03900
C 	C 	0.96063 0.10256 0.57141 -0.09600
H 	H 	0.96030 0.09000 0.56340 0.06600
C 	C 	0.97377 0.10415 0.58842 0.05800
H 	H 	0.98250 0.09260 0.59180 0.00300
C 	C 	0.00126 0.07496 0.63009 0.10500
C 	C 	0.01760 0.11136 0.66707 0.06100
H 	H 	0.00730 0.10070 0.66590 0.00100
C 	C 	0.02925 0.11214 0.68473 -0.09900
H 	H 	0.02660 0.10270 0.69590 0.06900
C 	C 	0.04519 0.12702 0.68645 0.00900
H 	H 	0.05370 0.12780 0.69860 0.03900
C 	C 	0.04822 0.14067 0.66989 -0.05100
C 	C 	0.03496 0.13923 0.65259 0.04400
H 	H 	0.03670 0.14890 0.64140 0.01100
C 	C 	0.06433 0.15696 0.67061 0.13500
N 	N 	0.91093 0.23473 0.61413 -0.22500
N 	N 	0.85431 0.13623 0.47646 -0.25700
N 	N 	0.87273 0.14933 0.51681 -0.22500
N 	N 	0.92030 0.15364 0.56052 -0.15200
N 	N 	0.90990 0.18807 0.56961 -0.15000
N 	N 	0.93970 0.17285 0.58523 -0.15400
N 	N 	0.97466 0.12139 0.60040 -0.22900
N 	N 	0.99874 0.09250 0.62722 -0.26100
N 	N 	0.02001 0.12494 0.65114 -0.22600
N 	N 	0.06397 0.17137 0.65560 -0.15000
S 	S 	0.82689 0.16525 0.45888 -0.06000
S 	S 	0.00491 0.05016 0.63430 -0.06100
C 	C 	0.91105 0.71878 0.10084 0.04200
H 	H 	0.89830 0.71540 0.09400 0.01200
C 	C 	0.92845 0.70684 0.09633 -0.05000
C 	C 	0.94733 0.71194 0.10600 0.01000
H 	H 	0.95960 0.70400 0.10340 0.03800
C 	C 	0.94760 0.72884 0.11944 -0.09800
H 	H 	0.96020 0.73290 0.12610 0.06700
C 	C 	0.92924 0.73985 0.12310 0.06000
H 	H 	0.92960 0.75150 0.13230 0.00100
C 	C 	0.84302 0.64828 0.96879 0.09700
C 	C 	0.85863 0.66482 0.01534 0.05700
H 	H 	0.84770 0.66360 0.00530 0.00000
C 	C 	0.85944 0.68264 0.02795 -0.09700
H 	H 	0.84890 0.69300 0.02690 0.06600
C 	C 	0.87551 0.68501 0.04177 0.01000
H 	H 	0.87650 0.69720 0.05020 0.03800
C 	C 	0.89057 0.66906 0.04333 -0.04900
C 	C 	0.88826 0.65169 0.03065 0.04000
H 	H 	0.89830 0.64080 0.03180 0.01500
C 	C 	0.90791 0.67038 0.05847 0.13500
C 	C 	0.92619 0.68823 0.08270 0.13900
C 	C 	0.93553 0.65570 0.07422 0.14100
C 	C 	0.96242 0.63725 0.09565 0.04500
H 	H 	0.96280 0.64930 0.10440 0.01000
C 	C 	0.94878 0.63729 0.07836 -0.05200
C 	C 	0.94790 0.61928 0.06601 0.00900
H 	H 	0.93880 0.61850 0.05430 0.03900
C 	C 	0.96063 0.60256 0.07141 -0.09600
H 	H 	0.96030 0.59000 0.06340 0.06600
C 	C 	0.97377 0.60415 0.08842 0.05800
H 	H 	0.98250 0.59260 0.09180 0.00300
C 	C 	0.00126 0.57496 0.13009 0.10500
C 	C 	0.01760 0.61136 0.16707 0.06100
H 	H 	0.00730 0.60070 0.16590 0.00100
C 	C 	0.02925 0.61214 0.18473 -0.09900
H 	H 	0.02660 0.60270 0.19590 0.06900
C 	C 	0.04519 0.62702 0.18645 0.00900
H 	H 	0.05370 0.62780 0.19860 0.03900
C 	C 	0.04822 0.64067 0.16989 -0.05100
C 	C 	0.03496 0.63923 0.15259 0.04400
H 	H 	0.03670 0.64890 0.14140 0.01100
C 	C 	0.06433 0.65696 0.17061 0.13500
N 	N 	0.91093 0.73473 0.11413 -0.22500
N 	N 	0.85431 0.63623 0.97646 -0.25700
N 	N 	0.87273 0.64933 0.01681 -0.22500
N 	N 	0.92030 0.65364 0.06052 -0.15200
N 	N 	0.90990 0.68807 0.06961 -0.15000
N 	N 	0.93970 0.67285 0.08523 -0.15400
N 	N 	0.97466 0.62139 0.10040 -0.22900
N 	N 	0.99874 0.59250 0.12722 -0.26100
N 	N 	0.02001 0.62494 0.15114 -0.22600
N 	N 	0.06397 0.67137 0.15560 -0.15000
S 	S 	0.82689 0.66525 0.95888 -0.06000
S 	S 	0.00491 0.55016 0.13430 -0.06100
C 	C 	0.83895 0.53122 0.60084 0.04200
H 	H 	0.85170 0.53460 0.59400 0.01200
C 	C 	0.82155 0.54316 0.59633 -0.05000
C 	C 	0.80267 0.53806 0.60600 0.01000
H 	H 	0.79040 0.54600 0.60340 0.03800
C 	C 	0.80240 0.52116 0.61944 -0.09800
H 	H 	0.78980 0.51710 0.62610 0.06700
C 	C 	0.82076 0.51015 0.62310 0.06000
H 	H 	0.82040 0.49850 0.63230 0.00100
C 	C 	0.90698 0.60172 0.46879 0.09700
C 	C 	0.89137 0.58518 0.51534 0.05700
H 	H 	0.90230 0.58640 0.50530 0.00000
C 	C 	0.89056 0.56736 0.52795 -0.09700
H 	H 	0.90110 0.55700 0.52690 0.06600
C 	C 	0.87449 0.56499 0.54177 0.01000
H 	H 	0.87350 0.55280 0.55020 0.03800
C 	C 	0.85943 0.58094 0.54333 -0.04900
C 	C 	0.86174 0.59831 0.53065 0.04000
H 	H 	0.85170 0.60920 0.53180 0.01500
C 	C 	0.84209 0.57962 0.55847 0.13500
C 	C 	0.82381 0.56177 0.58270 0.13900
C 	C 	0.81447 0.59430 0.57422 0.14100
C 	C 	0.78758 0.61275 0.59565 0.04500
H 	H 	0.78720 0.60070 0.60440 0.01000
C 	C 	0.80122 0.61271 0.57836 -0.05200
C 	C 	0.80210 0.63072 0.56601 0.00900
H 	H 	0.81120 0.63150 0.55430 0.03900
C 	C 	0.78937 0.64744 0.57141 -0.09600
H 	H 	0.78970 0.66000 0.56340 0.06600
C 	C 	0.77623 0.64585 0.58842 0.05800
H 	H 	0.76750 0.65740 0.59180 0.00300
C 	C 	0.74874 0.67504 0.63009 0.10500
C 	C 	0.73240 0.63864 0.66707 0.06100
H 	H 	0.74270 0.64930 0.66590 0.00100
C 	C 	0.72075 0.63786 0.68473 -0.09900
H 	H 	0.72340 0.64730 0.69590 0.06900
C 	C 	0.70481 0.62298 0.68645 0.00900
H 	H 	0.69630 0.62220 0.69860 0.03900
C 	C 	0.70178 0.60933 0.66989 -0.05100
C 	C 	0.71504 0.61077 0.65259 0.04400
H 	H 	0.71330 0.60110 0.64140 0.01100
C 	C 	0.68567 0.59304 0.67061 0.13500
N 	N 	0.83907 0.51527 0.61413 -0.22500
N 	N 	0.89569 0.61377 0.47646 -0.25700
N 	N 	0.87727 0.60067 0.51681 -0.22500
N 	N 	0.82970 0.59636 0.56052 -0.15200
N 	N 	0.84010 0.56193 0.56961 -0.15000
N 	N 	0.81030 0.57715 0.58523 -0.15400
N 	N 	0.77534 0.62861 0.60040 -0.22900
N 	N 	0.75126 0.65750 0.62722 -0.26100
N 	N 	0.72999 0.62506 0.65114 -0.22600
N 	N 	0.68603 0.57863 0.65560 -0.15000
S 	S 	0.92311 0.58475 0.45888 -0.06000
S 	S 	0.74509 0.69984 0.63430 -0.06100
C 	C 	0.83895 0.03122 0.10084 0.04200
H 	H 	0.85170 0.03460 0.09400 0.01200
C 	C 	0.82155 0.04316 0.09633 -0.05000
C 	C 	0.80267 0.03806 0.10600 0.00900
H 	H 	0.79040 0.04600 0.10340 0.03800
C 	C 	0.80240 0.02116 0.11944 -0.09800
H 	H 	0.78980 0.01710 0.12610 0.06700
C 	C 	0.82076 0.01015 0.12310 0.06000
H 	H 	0.82040 0.99850 0.13230 0.00100
C 	C 	0.90698 0.10172 0.96879 0.09700
C 	C 	0.89137 0.08518 0.01534 0.05700
H 	H 	0.90230 0.08640 0.00530 0.00000
C 	C 	0.89056 0.06736 0.02795 -0.09700
H 	H 	0.90110 0.05700 0.02690 0.06600
C 	C 	0.87449 0.06499 0.04177 0.01000
H 	H 	0.87350 0.05280 0.05020 0.03800
C 	C 	0.85943 0.08094 0.04333 -0.04900
C 	C 	0.86174 0.09831 0.03065 0.04000
H 	H 	0.85170 0.10920 0.03180 0.01500
C 	C 	0.84209 0.07962 0.05847 0.13500
C 	C 	0.82381 0.06177 0.08270 0.13900
C 	C 	0.81447 0.09430 0.07422 0.14100
C 	C 	0.78758 0.11275 0.09565 0.04500
H 	H 	0.78720 0.10070 0.10440 0.01000
C 	C 	0.80122 0.11271 0.07836 -0.05200
C 	C 	0.80210 0.13072 0.06601 0.00900
H 	H 	0.81120 0.13150 0.05430 0.03900
C 	C 	0.78937 0.14744 0.07141 -0.09600
H 	H 	0.78970 0.16000 0.06340 0.06600
C 	C 	0.77623 0.14585 0.08842 0.05800
H 	H 	0.76750 0.15740 0.09180 0.00300
C 	C 	0.74874 0.17504 0.13009 0.10500
C 	C 	0.73240 0.13864 0.16707 0.06100
H 	H 	0.74270 0.14930 0.16590 0.00100
C 	C 	0.72075 0.13786 0.18473 -0.09900
H 	H 	0.72340 0.14730 0.19590 0.06900
C 	C 	0.70481 0.12298 0.18645 0.00900
H 	H 	0.69630 0.12220 0.19860 0.03900
C 	C 	0.70178 0.10933 0.16989 -0.05100
C 	C 	0.71504 0.11077 0.15259 0.04400
H 	H 	0.71330 0.10110 0.14140 0.01100
C 	C 	0.68567 0.09304 0.17061 0.13500
N 	N 	0.83907 0.01527 0.11413 -0.22400
N 	N 	0.89569 0.11377 0.97646 -0.25700
N 	N 	0.87727 0.10067 0.01681 -0.22500
N 	N 	0.82970 0.09636 0.06052 -0.15200
N 	N 	0.84010 0.06193 0.06961 -0.15000
N 	N 	0.81030 0.07715 0.08523 -0.15400
N 	N 	0.77534 0.12861 0.10040 -0.22900
N 	N 	0.75126 0.15750 0.12722 -0.26100
N 	N 	0.72999 0.12506 0.15114 -0.22600
N 	N 	0.68603 0.07863 0.15560 -0.15000
S 	S 	0.92311 0.08475 0.95888 -0.06000
S 	S 	0.74509 0.19984 0.13430 -0.06100
C 	C 	0.33895 0.53122 0.10084 0.04200
H 	H 	0.35170 0.53460 0.09400 0.01200
C 	C 	0.32155 0.54316 0.09633 -0.05000
C 	C 	0.30267 0.53806 0.10600 0.01000
H 	H 	0.29040 0.54600 0.10340 0.03800
C 	C 	0.30240 0.52116 0.11944 -0.09800
H 	H 	0.28980 0.51710 0.12610 0.06700
C 	C 	0.32076 0.51015 0.12310 0.06000
H 	H 	0.32040 0.49850 0.13230 0.00100
C 	C 	0.40698 0.60172 0.96879 0.09700
C 	C 	0.39137 0.58518 0.01534 0.05700
H 	H 	0.40230 0.58640 0.00530 0.00000
C 	C 	0.39056 0.56736 0.02795 -0.09700
H 	H 	0.40110 0.55700 0.02690 0.06600
C 	C 	0.37449 0.56499 0.04177 0.01000
H 	H 	0.37350 0.55280 0.05020 0.03800
C 	C 	0.35943 0.58094 0.04333 -0.04900
C 	C 	0.36174 0.59831 0.03065 0.04000
H 	H 	0.35170 0.60920 0.03180 0.01500
C 	C 	0.34209 0.57962 0.05847 0.13500
C 	C 	0.32381 0.56177 0.08270 0.13900
C 	C 	0.31447 0.59430 0.07422 0.14100
C 	C 	0.28758 0.61275 0.09565 0.04500
H 	H 	0.28720 0.60070 0.10440 0.01000
C 	C 	0.30122 0.61271 0.07836 -0.05200
C 	C 	0.30210 0.63072 0.06601 0.00900
H 	H 	0.31120 0.63150 0.05430 0.03900
C 	C 	0.28937 0.64744 0.07141 -0.09600
H 	H 	0.28970 0.66000 0.06340 0.06600
C 	C 	0.27623 0.64585 0.08842 0.05800
H 	H 	0.26750 0.65740 0.09180 0.00300
C 	C 	0.24874 0.67504 0.13009 0.10500
C 	C 	0.23240 0.63864 0.16707 0.06100
H 	H 	0.24270 0.64930 0.16590 0.00100
C 	C 	0.22075 0.63786 0.18473 -0.09900
H 	H 	0.22340 0.64730 0.19590 0.06900
C 	C 	0.20481 0.62298 0.18645 0.00900
H 	H 	0.19630 0.62220 0.19860 0.03900
C 	C 	0.20178 0.60933 0.16989 -0.05100
C 	C 	0.21504 0.61077 0.15259 0.04400
H 	H 	0.21330 0.60110 0.14140 0.01100
C 	C 	0.18567 0.59304 0.17061 0.13500
N 	N 	0.33907 0.51527 0.11413 -0.22500
N 	N 	0.39569 0.61377 0.97646 -0.25700
N 	N 	0.37727 0.60067 0.01681 -0.22500
N 	N 	0.32970 0.59636 0.06052 -0.15200
N 	N 	0.34010 0.56193 0.06961 -0.15000
N 	N 	0.31030 0.57715 0.08523 -0.15400
N 	N 	0.27534 0.62861 0.10040 -0.22900
N 	N 	0.25126 0.65750 0.12722 -0.26100
N 	N 	0.22999 0.62506 0.15114 -0.22600
N 	N 	0.18603 0.57863 0.15560 -0.15000
S 	S 	0.42311 0.58475 0.95888 -0.06000
S 	S 	0.24509 0.69984 0.13430 -0.06100
C 	C 	0.33895 0.03122 0.60084 0.04200
H 	H 	0.35170 0.03460 0.59400 0.01200
C 	C 	0.32155 0.04316 0.59633 -0.05000
C 	C 	0.30267 0.03806 0.60600 0.00900
H 	H 	0.29040 0.04600 0.60340 0.03800
C 	C 	0.30240 0.02116 0.61944 -0.09800
H 	H 	0.28980 0.01710 0.62610 0.06700
C 	C 	0.32076 0.01015 0.62310 0.06000
H 	H 	0.32040 0.99850 0.63230 0.00100
C 	C 	0.40698 0.10172 0.46879 0.09700
C 	C 	0.39137 0.08518 0.51534 0.05700
H 	H 	0.40230 0.08640 0.50530 0.00000
C 	C 	0.39056 0.06736 0.52795 -0.09700
H 	H 	0.40110 0.05700 0.52690 0.06600
C 	C 	0.37449 0.06499 0.54177 0.01000
H 	H 	0.37350 0.05280 0.55020 0.03800
C 	C 	0.35943 0.08094 0.54333 -0.04900
C 	C 	0.36174 0.09831 0.53065 0.04000
H 	H 	0.35170 0.10920 0.53180 0.01500
C 	C 	0.34209 0.07962 0.55847 0.13500
C 	C 	0.32381 0.06177 0.58270 0.13900
C 	C 	0.31447 0.09430 0.57422 0.14100
C 	C 	0.28758 0.11275 0.59565 0.04500
H 	H 	0.28720 0.10070 0.60440 0.01000
C 	C 	0.30122 0.11271 0.57836 -0.05200
C 	C 	0.30210 0.13072 0.56601 0.00900
H 	H 	0.31120 0.13150 0.55430 0.03900
C 	C 	0.28937 0.14744 0.57141 -0.09600
H 	H 	0.28970 0.16000 0.56340 0.06600
C 	C 	0.27623 0.14585 0.58842 0.05800
H 	H 	0.26750 0.15740 0.59180 0.00300
C 	C 	0.24874 0.17504 0.63009 0.10500
C 	C 	0.23240 0.13864 0.66707 0.06100
H 	H 	0.24270 0.14930 0.66590 0.00100
C 	C 	0.22075 0.13786 0.68473 -0.09900
H 	H 	0.22340 0.14730 0.69590 0.06900
C 	C 	0.20481 0.12298 0.68645 0.00900
H 	H 	0.19630 0.12220 0.69860 0.03900
C 	C 	0.20178 0.10933 0.66989 -0.05100
C 	C 	0.21504 0.11077 0.65259 0.04400
H 	H 	0.21330 0.10110 0.64140 0.01100
C 	C 	0.18567 0.09304 0.67061 0.13500
N 	N 	0.33907 0.01527 0.61413 -0.22400
N 	N 	0.39569 0.11377 0.47646 -0.25700
N 	N 	0.37727 0.10067 0.51681 -0.22500
N 	N 	0.32970 0.09636 0.56052 -0.15200
N 	N 	0.34010 0.06193 0.56961 -0.15000
N 	N 	0.31030 0.07715 0.58523 -0.15400
N 	N 	0.27534 0.12861 0.60040 -0.22900
N 	N 	0.25126 0.15750 0.62722 -0.26100
N 	N 	0.22999 0.12506 0.65114 -0.22600
N 	N 	0.18603 0.07863 0.65560 -0.15000
S 	S 	0.42311 0.08475 0.45888 -0.06000
S 	S 	0.24509 0.19984 0.63430 -0.06100
C 	C 	0.33895 0.71878 0.14916 0.04200
H 	H 	0.35170 0.71540 0.15600 0.01200
C 	C 	0.32155 0.70684 0.15367 -0.05000
C 	C 	0.30267 0.71194 0.14400 0.01000
H 	H 	0.29040 0.70400 0.14660 0.03800
C 	C 	0.30240 0.72884 0.13056 -0.09800
H 	H 	0.28980 0.73290 0.12390 0.06700
C 	C 	0.32076 0.73985 0.12690 0.06000
H 	H 	0.32040 0.75150 0.11770 0.00100
C 	C 	0.40698 0.64828 0.28121 0.09700
C 	C 	0.39137 0.66482 0.23466 0.05700
H 	H 	0.40230 0.66360 0.24470 0.00000
C 	C 	0.39056 0.68264 0.22205 -0.09700
H 	H 	0.40110 0.69300 0.22310 0.06600
C 	C 	0.37449 0.68501 0.20823 0.01000
H 	H 	0.37350 0.69720 0.19980 0.03800
C 	C 	0.35943 0.66906 0.20667 -0.04900
C 	C 	0.36174 0.65169 0.21935 0.04000
H 	H 	0.35170 0.64080 0.21820 0.01500
C 	C 	0.34209 0.67038 0.19153 0.13500
C 	C 	0.32381 0.68823 0.16730 0.13900
C 	C 	0.31447 0.65570 0.17578 0.14100
C 	C 	0.28758 0.63725 0.15435 0.04500
H 	H 	0.28720 0.64930 0.14560 0.01000
C 	C 	0.30122 0.63729 0.17164 -0.05200
C 	C 	0.30210 0.61928 0.18399 0.00900
H 	H 	0.31120 0.61850 0.19570 0.03900
C 	C 	0.28937 0.60256 0.17859 -0.09600
H 	H 	0.28970 0.59000 0.18660 0.06600
C 	C 	0.27623 0.60415 0.16158 0.05800
H 	H 	0.26750 0.59260 0.15820 0.00300
C 	C 	0.24874 0.57496 0.11991 0.10500
C 	C 	0.23240 0.61136 0.08293 0.06100
H 	H 	0.24270 0.60070 0.08410 0.00100
C 	C 	0.22075 0.61214 0.06527 -0.09900
H 	H 	0.22340 0.60270 0.05410 0.06900
C 	C 	0.20481 0.62702 0.06355 0.00900
H 	H 	0.19630 0.62780 0.05140 0.03900
C 	C 	0.20178 0.64067 0.08011 -0.05100
C 	C 	0.21504 0.63923 0.09741 0.04400
H 	H 	0.21330 0.64890 0.10860 0.01100
C 	C 	0.18567 0.65696 0.07939 0.13500
N 	N 	0.33907 0.73473 0.13587 -0.22500
N 	N 	0.39569 0.63623 0.27354 -0.25700
N 	N 	0.37727 0.64933 0.23319 -0.22500
N 	N 	0.32970 0.65364 0.18948 -0.15200
N 	N 	0.34010 0.68807 0.18039 -0.15000
N 	N 	0.31030 0.67285 0.16477 -0.15400
N 	N 	0.27534 0.62139 0.14960 -0.22900
N 	N 	0.25126 0.59250 0.12278 -0.26100
N 	N 	0.22999 0.62494 0.09886 -0.22600
N 	N 	0.18603 0.67137 0.09440 -0.15000
S 	S 	0.42311 0.66525 0.29112 -0.06000
S 	S 	0.24509 0.55016 0.11570 -0.06100
C 	C 	0.33895 0.21878 0.64916 0.04200
H 	H 	0.35170 0.21540 0.65600 0.01200
C 	C 	0.32155 0.20684 0.65367 -0.05000
C 	C 	0.30267 0.21194 0.64400 0.01000
H 	H 	0.29040 0.20400 0.64660 0.03800
C 	C 	0.30240 0.22884 0.63056 -0.09800
H 	H 	0.28980 0.23290 0.62390 0.06700
C 	C 	0.32076 0.23985 0.62690 0.06000
H 	H 	0.32040 0.25150 0.61770 0.00100
C 	C 	0.40698 0.14828 0.78121 0.09700
C 	C 	0.39137 0.16482 0.73466 0.05700
H 	H 	0.40230 0.16360 0.74470 0.00000
C 	C 	0.39056 0.18264 0.72205 -0.09700
H 	H 	0.40110 0.19300 0.72310 0.06600
C 	C 	0.37449 0.18501 0.70823 0.01000
H 	H 	0.37350 0.19720 0.69980 0.03800
C 	C 	0.35943 0.16906 0.70667 -0.04900
C 	C 	0.36174 0.15169 0.71935 0.04000
H 	H 	0.35170 0.14080 0.71820 0.01500
C 	C 	0.34209 0.17038 0.69153 0.13500
C 	C 	0.32381 0.18823 0.66730 0.13900
C 	C 	0.31447 0.15570 0.67578 0.14100
C 	C 	0.28758 0.13725 0.65435 0.04500
H 	H 	0.28720 0.14930 0.64560 0.01000
C 	C 	0.30122 0.13729 0.67164 -0.05200
C 	C 	0.30210 0.11928 0.68399 0.00900
H 	H 	0.31120 0.11850 0.69570 0.03900
C 	C 	0.28937 0.10256 0.67859 -0.09600
H 	H 	0.28970 0.09000 0.68660 0.06600
C 	C 	0.27623 0.10415 0.66158 0.05800
H 	H 	0.26750 0.09260 0.65820 0.00300
C 	C 	0.24874 0.07496 0.61991 0.10500
C 	C 	0.23240 0.11136 0.58293 0.06100
H 	H 	0.24270 0.10070 0.58410 0.00100
C 	C 	0.22075 0.11214 0.56527 -0.09900
H 	H 	0.22340 0.10270 0.55410 0.06900
C 	C 	0.20481 0.12702 0.56355 0.00900
H 	H 	0.19630 0.12780 0.55140 0.03900
C 	C 	0.20178 0.14067 0.58011 -0.05100
C 	C 	0.21504 0.13923 0.59741 0.04400
H 	H 	0.21330 0.14890 0.60860 0.01100
C 	C 	0.18567 0.15696 0.57939 0.13500
N 	N 	0.33907 0.23473 0.63587 -0.22500
N 	N 	0.39569 0.13623 0.77354 -0.25700
N 	N 	0.37727 0.14933 0.73319 -0.22500
N 	N 	0.32970 0.15364 0.68948 -0.15200
N 	N 	0.34010 0.18807 0.68039 -0.15000
N 	N 	0.31030 0.17285 0.66477 -0.15400
N 	N 	0.27534 0.12139 0.64960 -0.22900
N 	N 	0.25126 0.09250 0.62278 -0.26100
N 	N 	0.22999 0.12494 0.59886 -0.22600
N 	N 	0.18603 0.17137 0.59440 -0.15000
S 	S 	0.42311 0.16525 0.79112 -0.06000
S 	S 	0.24509 0.05016 0.61570 -0.06100
C 	C 	0.83895 0.71878 0.64916 0.04200
H 	H 	0.85170 0.71540 0.65600 0.01200
C 	C 	0.82155 0.70684 0.65367 -0.05000
C 	C 	0.80267 0.71194 0.64400 0.01000
H 	H 	0.79040 0.70400 0.64660 0.03800
C 	C 	0.80240 0.72884 0.63056 -0.09800
H 	H 	0.78980 0.73290 0.62390 0.06700
C 	C 	0.82076 0.73985 0.62690 0.06000
H 	H 	0.82040 0.75150 0.61770 0.00100
C 	C 	0.90698 0.64828 0.78121 0.09700
C 	C 	0.89137 0.66482 0.73466 0.05700
H 	H 	0.90230 0.66360 0.74470 0.00000
C 	C 	0.89056 0.68264 0.72205 -0.09700
H 	H 	0.90110 0.69300 0.72310 0.06600
C 	C 	0.87449 0.68501 0.70823 0.01000
H 	H 	0.87350 0.69720 0.69980 0.03800
C 	C 	0.85943 0.66906 0.70667 -0.04900
C 	C 	0.86174 0.65169 0.71935 0.04000
H 	H 	0.85170 0.64080 0.71820 0.01500
C 	C 	0.84209 0.67038 0.69153 0.13500
C 	C 	0.82381 0.68823 0.66730 0.13900
C 	C 	0.81447 0.65570 0.67578 0.14100
C 	C 	0.78758 0.63725 0.65435 0.04500
H 	H 	0.78720 0.64930 0.64560 0.01000
C 	C 	0.80122 0.63729 0.67164 -0.05200
C 	C 	0.80210 0.61928 0.68399 0.00900
H 	H 	0.81120 0.61850 0.69570 0.03900
C 	C 	0.78937 0.60256 0.67859 -0.09600
H 	H 	0.78970 0.59000 0.68660 0.06600
C 	C 	0.77623 0.60415 0.66158 0.05800
H 	H 	0.76750 0.59260 0.65820 0.00300
C 	C 	0.74874 0.57496 0.61991 0.10500
C 	C 	0.73240 0.61136 0.58293 0.06100
H 	H 	0.74270 0.60070 0.58410 0.00100
C 	C 	0.72075 0.61214 0.56527 -0.09900
H 	H 	0.72340 0.60270 0.55410 0.06900
C 	C 	0.70481 0.62702 0.56355 0.00900
H 	H 	0.69630 0.62780 0.55140 0.03900
C 	C 	0.70178 0.64067 0.58011 -0.05100
C 	C 	0.71504 0.63923 0.59741 0.04400
H 	H 	0.71330 0.64890 0.60860 0.01100
C 	C 	0.68567 0.65696 0.57939 0.13500
N 	N 	0.83907 0.73473 0.63587 -0.22500
N 	N 	0.89569 0.63623 0.77354 -0.25700
N 	N 	0.87727 0.64933 0.73319 -0.22500
N 	N 	0.82970 0.65364 0.68948 -0.15200
N 	N 	0.84010 0.68807 0.68039 -0.15000
N 	N 	0.81030 0.67285 0.66477 -0.15400
N 	N 	0.77534 0.62139 0.64960 -0.22900
N 	N 	0.75126 0.59250 0.62278 -0.26100
N 	N 	0.72999 0.62494 0.59886 -0.22600
N 	N 	0.68603 0.67137 0.59440 -0.15000
S 	S 	0.92311 0.66525 0.79112 -0.06000
S 	S 	0.74509 0.55016 0.61570 -0.06100
C 	C 	0.83895 0.21878 0.14916 0.04200
H 	H 	0.85170 0.21540 0.15600 0.01200
C 	C 	0.82155 0.20684 0.15367 -0.05000
C 	C 	0.80267 0.21194 0.14400 0.01000
H 	H 	0.79040 0.20400 0.14660 0.03800
C 	C 	0.80240 0.22884 0.13056 -0.09800
H 	H 	0.78980 0.23290 0.12390 0.06700
C 	C 	0.82076 0.23985 0.12690 0.06000
H 	H 	0.82040 0.25150 0.11770 0.00100
C 	C 	0.90698 0.14828 0.28121 0.09700
C 	C 	0.89137 0.16482 0.23466 0.05700
H 	H 	0.90230 0.16360 0.24470 0.00000
C 	C 	0.89056 0.18264 0.22205 -0.09700
H 	H 	0.90110 0.19300 0.22310 0.06600
C 	C 	0.87449 0.18501 0.20823 0.01000
H 	H 	0.87350 0.19720 0.19980 0.03800
C 	C 	0.85943 0.16906 0.20667 -0.04900
C 	C 	0.86174 0.15169 0.21935 0.04000
H 	H 	0.85170 0.14080 0.21820 0.01500
C 	C 	0.84209 0.17038 0.19153 0.13500
C 	C 	0.82381 0.18823 0.16730 0.13900
C 	C 	0.81447 0.15570 0.17578 0.14100
C 	C 	0.78758 0.13725 0.15435 0.04500
H 	H 	0.78720 0.14930 0.14560 0.01000
C 	C 	0.80122 0.13729 0.17164 -0.05200
C 	C 	0.80210 0.11928 0.18399 0.00900
H 	H 	0.81120 0.11850 0.19570 0.03900
C 	C 	0.78937 0.10256 0.17859 -0.09600
H 	H 	0.78970 0.09000 0.18660 0.06600
C 	C 	0.77623 0.10415 0.16158 0.05800
H 	H 	0.76750 0.09260 0.15820 0.00300
C 	C 	0.74874 0.07496 0.11991 0.10500
C 	C 	0.73240 0.11136 0.08293 0.06100
H 	H 	0.74270 0.10070 0.08410 0.00100
C 	C 	0.72075 0.11214 0.06527 -0.09900
H 	H 	0.72340 0.10270 0.05410 0.06900
C 	C 	0.70481 0.12702 0.06355 0.00900
H 	H 	0.69630 0.12780 0.05140 0.03900
C 	C 	0.70178 0.14067 0.08011 -0.05100
C 	C 	0.71504 0.13923 0.09741 0.04400
H 	H 	0.71330 0.14890 0.10860 0.01100
C 	C 	0.68567 0.15696 0.07939 0.13500
N 	N 	0.83907 0.23473 0.13587 -0.22500
N 	N 	0.89569 0.13623 0.27354 -0.25700
N 	N 	0.87727 0.14933 0.23319 -0.22500
N 	N 	0.82970 0.15364 0.18948 -0.15200
N 	N 	0.84010 0.18807 0.18039 -0.15000
N 	N 	0.81030 0.17285 0.16477 -0.15400
N 	N 	0.77534 0.12139 0.14960 -0.22900
N 	N 	0.75126 0.09250 0.12278 -0.26100
N 	N 	0.72999 0.12494 0.09886 -0.22600
N 	N 	0.68603 0.17137 0.09440 -0.15000
S 	S 	0.92311 0.16525 0.29112 -0.06000
S 	S 	0.74509 0.05016 0.11570 -0.06100
C 	C 	0.91105 0.03122 0.64916 0.04200
H 	H 	0.89830 0.03460 0.65600 0.01200
C 	C 	0.92845 0.04316 0.65367 -0.05000
C 	C 	0.94733 0.03806 0.64400 0.00900
H 	H 	0.95960 0.04600 0.64660 0.03800
C 	C 	0.94760 0.02116 0.63056 -0.09800
H 	H 	0.96020 0.01710 0.62390 0.06700
C 	C 	0.92924 0.01015 0.62690 0.06000
H 	H 	0.92960 0.99850 0.61770 0.00100
C 	C 	0.84302 0.10172 0.78121 0.09700
C 	C 	0.85863 0.08518 0.73466 0.05700
H 	H 	0.84770 0.08640 0.74470 0.00000
C 	C 	0.85944 0.06736 0.72205 -0.09700
H 	H 	0.84890 0.05700 0.72310 0.06600
C 	C 	0.87551 0.06499 0.70823 0.01000
H 	H 	0.87650 0.05280 0.69980 0.03800
C 	C 	0.89057 0.08094 0.70667 -0.04900
C 	C 	0.88826 0.09831 0.71935 0.04000
H 	H 	0.89830 0.10920 0.71820 0.01500
C 	C 	0.90791 0.07962 0.69153 0.13500
C 	C 	0.92619 0.06177 0.66730 0.13900
C 	C 	0.93553 0.09430 0.67578 0.14100
C 	C 	0.96242 0.11275 0.65435 0.04500
H 	H 	0.96280 0.10070 0.64560 0.01000
C 	C 	0.94878 0.11271 0.67164 -0.05300
C 	C 	0.94790 0.13072 0.68399 0.00800
H 	H 	0.93880 0.13150 0.69570 0.03800
C 	C 	0.96063 0.14744 0.67859 -0.09700
H 	H 	0.96030 0.16000 0.68660 0.06500
C 	C 	0.97377 0.14585 0.66158 0.05700
H 	H 	0.98250 0.15740 0.65820 0.00200
C 	C 	0.00126 0.17504 0.61991 0.10400
C 	C 	0.01760 0.13864 0.58293 0.06000
H 	H 	0.00730 0.14930 0.58410 0.00000
C 	C 	0.02925 0.13786 0.56527 -0.10000
H 	H 	0.02660 0.14730 0.55410 0.06800
C 	C 	0.04519 0.12298 0.56355 0.00800
H 	H 	0.05370 0.12220 0.55140 0.03800
C 	C 	0.04822 0.10933 0.58011 -0.05200
C 	C 	0.03496 0.11077 0.59741 0.04300
H 	H 	0.03670 0.10110 0.60860 0.01000
C 	C 	0.06433 0.09304 0.57939 0.13400
N 	N 	0.91093 0.01527 0.63587 -0.22500
N 	N 	0.85431 0.11377 0.77354 -0.25800
N 	N 	0.87273 0.10067 0.73319 -0.22600
N 	N 	0.92030 0.09636 0.68948 -0.15300
N 	N 	0.90990 0.06193 0.68039 -0.15100
N 	N 	0.93970 0.07715 0.66477 -0.15500
N 	N 	0.97466 0.12861 0.64960 -0.23000
N 	N 	0.99874 0.15750 0.62278 -0.26200
N 	N 	0.02001 0.12506 0.59886 -0.22700
N 	N 	0.06397 0.07863 0.59440 -0.15100
S 	S 	0.82689 0.08475 0.79112 -0.06100
S 	S 	0.00491 0.19984 0.61570 -0.06200
C 	C 	0.91105 0.53122 0.14916 0.04100
H 	H 	0.89830 0.53460 0.15600 0.01100
C 	C 	0.92845 0.54316 0.15367 -0.05100
C 	C 	0.94733 0.53806 0.14400 0.00900
H 	H 	0.95960 0.54600 0.14660 0.03700
C 	C 	0.94760 0.52116 0.13056 -0.09900
H 	H 	0.96020 0.51710 0.12390 0.06600
C 	C 	0.92924 0.51015 0.12690 0.05900
H 	H 	0.92960 0.49850 0.11770 0.00000
C 	C 	0.84302 0.60172 0.28121 0.09600
C 	C 	0.85863 0.58518 0.23466 0.05600
H 	H 	0.84770 0.58640 0.24470 -0.00100
C 	C 	0.85944 0.56736 0.22205 -0.09800
H 	H 	0.84890 0.55700 0.22310 0.06500
C 	C 	0.87551 0.56499 0.20823 0.00900
H 	H 	0.87650 0.55280 0.19980 0.03700
C 	C 	0.89057 0.58094 0.20667 -0.05000
C 	C 	0.88826 0.59831 0.21935 0.03900
H 	H 	0.89830 0.60920 0.21820 0.01400
C 	C 	0.90791 0.57962 0.19153 0.13400
C 	C 	0.92619 0.56177 0.16730 0.13800
C 	C 	0.93553 0.59430 0.17578 0.14000
C 	C 	0.96242 0.61275 0.15435 0.04400
H 	H 	0.96280 0.60070 0.14560 0.00900
C 	C 	0.94878 0.61271 0.17164 -0.05300
C 	C 	0.94790 0.63072 0.18399 0.00800
H 	H 	0.93880 0.63150 0.19570 0.03800
C 	C 	0.96063 0.64744 0.17859 -0.09700
H 	H 	0.96030 0.66000 0.18660 0.06500
C 	C 	0.97377 0.64585 0.16158 0.05700
H 	H 	0.98250 0.65740 0.15820 0.00200
C 	C 	0.00126 0.67504 0.11991 0.10400
C 	C 	0.01760 0.63864 0.08293 0.06000
H 	H 	0.00730 0.64930 0.08410 0.00000
C 	C 	0.02925 0.63786 0.06527 -0.10000
H 	H 	0.02660 0.64730 0.05410 0.06800
C 	C 	0.04519 0.62298 0.06355 0.00800
H 	H 	0.05370 0.62220 0.05140 0.03800
C 	C 	0.04822 0.60933 0.08011 -0.05200
C 	C 	0.03496 0.61077 0.09741 0.04300
H 	H 	0.03670 0.60110 0.10860 0.01000
C 	C 	0.06433 0.59304 0.07939 0.13400
N 	N 	0.91093 0.51527 0.13587 -0.22600
N 	N 	0.85431 0.61377 0.27354 -0.25800
N 	N 	0.87273 0.60067 0.23319 -0.22600
N 	N 	0.92030 0.59636 0.18948 -0.15300
N 	N 	0.90990 0.56193 0.18039 -0.15100
N 	N 	0.93970 0.57715 0.16477 -0.15500
N 	N 	0.97466 0.62861 0.14960 -0.23000
N 	N 	0.99874 0.65750 0.12278 -0.26200
N 	N 	0.02001 0.62506 0.09886 -0.22700
N 	N 	0.06397 0.57863 0.09440 -0.15100
S 	S 	0.82689 0.58475 0.29112 -0.06100
S 	S 	0.00491 0.69984 0.11570 -0.06200
C 	C 	0.41105 0.03122 0.14916 0.04100
H 	H 	0.39830 0.03460 0.15600 0.01100
C 	C 	0.42845 0.04316 0.15367 -0.05100
C 	C 	0.44733 0.03806 0.14400 0.00800
H 	H 	0.45960 0.04600 0.14660 0.03700
C 	C 	0.44760 0.02116 0.13056 -0.09900
H 	H 	0.46020 0.01710 0.12390 0.06600
C 	C 	0.42924 0.01015 0.12690 0.05900
H 	H 	0.42960 0.99850 0.11770 0.00000
C 	C 	0.34302 0.10172 0.28121 0.09600
C 	C 	0.35863 0.08518 0.23466 0.05600
H 	H 	0.34770 0.08640 0.24470 -0.00100
C 	C 	0.35944 0.06736 0.22205 -0.09800
H 	H 	0.34890 0.05700 0.22310 0.06500
C 	C 	0.37551 0.06499 0.20823 0.00900
H 	H 	0.37650 0.05280 0.19980 0.03700
C 	C 	0.39057 0.08094 0.20667 -0.05000
C 	C 	0.38826 0.09831 0.21935 0.03900
H 	H 	0.39830 0.10920 0.21820 0.01400
C 	C 	0.40791 0.07962 0.19153 0.13400
C 	C 	0.42619 0.06177 0.16730 0.13800
C 	C 	0.43553 0.09430 0.17578 0.14000
C 	C 	0.46242 0.11275 0.15435 0.04400
H 	H 	0.46280 0.10070 0.14560 0.00900
C 	C 	0.44878 0.11271 0.17164 -0.05300
C 	C 	0.44790 0.13072 0.18399 0.00800
H 	H 	0.43880 0.13150 0.19570 0.03800
C 	C 	0.46063 0.14744 0.17859 -0.09700
H 	H 	0.46030 0.16000 0.18660 0.06500
C 	C 	0.47377 0.14585 0.16158 0.05700
H 	H 	0.48250 0.15740 0.15820 0.00200
C 	C 	0.50126 0.17504 0.11991 0.10400
C 	C 	0.51760 0.13864 0.08293 0.06000
H 	H 	0.50730 0.14930 0.08410 0.00000
C 	C 	0.52925 0.13786 0.06527 -0.10000
H 	H 	0.52660 0.14730 0.05410 0.06800
C 	C 	0.54519 0.12298 0.06355 0.00800
H 	H 	0.55370 0.12220 0.05140 0.03800
C 	C 	0.54822 0.10933 0.08011 -0.05200
C 	C 	0.53496 0.11077 0.09741 0.04300
H 	H 	0.53670 0.10110 0.10860 0.01000
C 	C 	0.56433 0.09304 0.07939 0.13400
N 	N 	0.41093 0.01527 0.13587 -0.22500
N 	N 	0.35431 0.11377 0.27354 -0.25800
N 	N 	0.37273 0.10067 0.23319 -0.22600
N 	N 	0.42030 0.09636 0.18948 -0.15300
N 	N 	0.40990 0.06193 0.18039 -0.15100
N 	N 	0.43970 0.07715 0.16477 -0.15500
N 	N 	0.47466 0.12861 0.14960 -0.23000
N 	N 	0.49874 0.15750 0.12278 -0.26200
N 	N 	0.52001 0.12506 0.09886 -0.22700
N 	N 	0.56397 0.07863 0.09440 -0.15100
S 	S 	0.32689 0.08475 0.29112 -0.06100
S 	S 	0.50491 0.19984 0.11570 -0.06200
C 	C 	0.41105 0.53122 0.64916 0.04100
H 	H 	0.39830 0.53460 0.65600 0.01100
C 	C 	0.42845 0.54316 0.65367 -0.05100
C 	C 	0.44733 0.53806 0.64400 0.00900
H 	H 	0.45960 0.54600 0.64660 0.03700
C 	C 	0.44760 0.52116 0.63056 -0.09900
H 	H 	0.46020 0.51710 0.62390 0.06600
C 	C 	0.42924 0.51015 0.62690 0.05900
H 	H 	0.42960 0.49850 0.61770 0.00000
C 	C 	0.34302 0.60172 0.78121 0.09600
C 	C 	0.35863 0.58518 0.73466 0.05600
H 	H 	0.34770 0.58640 0.74470 -0.00100
C 	C 	0.35944 0.56736 0.72205 -0.09800
H 	H 	0.34890 0.55700 0.72310 0.06500
C 	C 	0.37551 0.56499 0.70823 0.00900
H 	H 	0.37650 0.55280 0.69980 0.03700
C 	C 	0.39057 0.58094 0.70667 -0.05000
C 	C 	0.38826 0.59831 0.71935 0.03900
H 	H 	0.39830 0.60920 0.71820 0.01400
C 	C 	0.40791 0.57962 0.69153 0.13400
C 	C 	0.42619 0.56177 0.66730 0.13800
C 	C 	0.43553 0.59430 0.67578 0.14000
C 	C 	0.46242 0.61275 0.65435 0.04400
H 	H 	0.46280 0.60070 0.64560 0.00900
C 	C 	0.44878 0.61271 0.67164 -0.05300
C 	C 	0.44790 0.63072 0.68399 0.00800
H 	H 	0.43880 0.63150 0.69570 0.03800
C 	C 	0.46063 0.64744 0.67859 -0.09700
H 	H 	0.46030 0.66000 0.68660 0.06500
C 	C 	0.47377 0.64585 0.66158 0.05700
H 	H 	0.48250 0.65740 0.65820 0.00200
C 	C 	0.50126 0.67504 0.61991 0.10400
C 	C 	0.51760 0.63864 0.58293 0.06000
H 	H 	0.50730 0.64930 0.58410 0.00000
C 	C 	0.52925 0.63786 0.56527 -0.10000
H 	H 	0.52660 0.64730 0.55410 0.06800
C 	C 	0.54519 0.62298 0.56355 0.00800
H 	H 	0.55370 0.62220 0.55140 0.03800
C 	C 	0.54822 0.60933 0.58011 -0.05200
C 	C 	0.53496 0.61077 0.59741 0.04300
H 	H 	0.53670 0.60110 0.60860 0.01000
C 	C 	0.56433 0.59304 0.57939 0.13400
N 	N 	0.41093 0.51527 0.63587 -0.22600
N 	N 	0.35431 0.61377 0.77354 -0.25800
N 	N 	0.37273 0.60067 0.73319 -0.22600
N 	N 	0.42030 0.59636 0.68948 -0.15300
N 	N 	0.40990 0.56193 0.68039 -0.15100
N 	N 	0.43970 0.57715 0.66477 -0.15500
N 	N 	0.47466 0.62861 0.64960 -0.23000
N 	N 	0.49874 0.65750 0.62278 -0.26200
N 	N 	0.52001 0.62506 0.59886 -0.22700
N 	N 	0.56397 0.57863 0.59440 -0.15100
S 	S 	0.32689 0.58475 0.79112 -0.06100
S 	S 	0.50491 0.69984 0.61570 -0.06200
C 	C 	0.10084 0.41105 0.21878 0.04100
H 	H 	0.09400 0.39830 0.21540 0.01100
C 	C 	0.09633 0.42845 0.20684 -0.05100
C 	C 	0.10600 0.44733 0.21194 0.00900
H 	H 	0.10340 0.45960 0.20400 0.03700
C 	C 	0.11944 0.44760 0.22884 -0.09900
H 	H 	0.12610 0.46020 0.23290 0.06600
C 	C 	0.12310 0.42924 0.23985 0.05900
H 	H 	0.13230 0.42960 0.25150 0.00000
C 	C 	0.96879 0.34302 0.14828 0.09600
C 	C 	0.01534 0.35863 0.16482 0.05600
H 	H 	0.00530 0.34770 0.16360 -0.00100
C 	C 	0.02795 0.35944 0.18264 -0.09800
H 	H 	0.02690 0.34890 0.19300 0.06500
C 	C 	0.04177 0.37551 0.18501 0.00900
H 	H 	0.05020 0.37650 0.19720 0.03700
C 	C 	0.04333 0.39057 0.16906 -0.05000
C 	C 	0.03065 0.38826 0.15169 0.03900
H 	H 	0.03180 0.39830 0.14080 0.01400
C 	C 	0.05847 0.40791 0.17038 0.13400
C 	C 	0.08270 0.42619 0.18823 0.13800
C 	C 	0.07422 0.43553 0.15570 0.14000
C 	C 	0.09565 0.46242 0.13725 0.04400
H 	H 	0.10440 0.46280 0.14930 0.00900
C 	C 	0.07836 0.44878 0.13729 -0.05300
C 	C 	0.06601 0.44790 0.11928 0.00800
H 	H 	0.05430 0.43880 0.11850 0.03800
C 	C 	0.07141 0.46063 0.10256 -0.09700
H 	H 	0.06340 0.46030 0.09000 0.06500
C 	C 	0.08842 0.47377 0.10415 0.05700
H 	H 	0.09180 0.48250 0.09260 0.00200
C 	C 	0.13009 0.50126 0.07496 0.10400
C 	C 	0.16707 0.51760 0.11136 0.06000
H 	H 	0.16590 0.50730 0.10070 0.00000
C 	C 	0.18473 0.52925 0.11214 -0.10000
H 	H 	0.19590 0.52660 0.10270 0.06800
C 	C 	0.18645 0.54519 0.12702 0.00800
H 	H 	0.19860 0.55370 0.12780 0.03800
C 	C 	0.16989 0.54822 0.14067 -0.05200
C 	C 	0.15259 0.53496 0.13923 0.04300
H 	H 	0.14140 0.53670 0.14890 0.01000
C 	C 	0.17061 0.56433 0.15696 0.13400
N 	N 	0.11413 0.41093 0.23473 -0.22600
N 	N 	0.97646 0.35431 0.13623 -0.25800
N 	N 	0.01681 0.37273 0.14933 -0.22600
N 	N 	0.06052 0.42030 0.15364 -0.15300
N 	N 	0.06961 0.40990 0.18807 -0.15100
N 	N 	0.08523 0.43970 0.17285 -0.15500
N 	N 	0.10040 0.47466 0.12139 -0.23000
N 	N 	0.12722 0.49874 0.09250 -0.26200
N 	N 	0.15114 0.52001 0.12494 -0.22700
N 	N 	0.15560 0.56397 0.17137 -0.15100
S 	S 	0.95888 0.32689 0.16525 -0.06100
S 	S 	0.13430 0.50491 0.05016 -0.06200
C 	C 	0.10084 0.91105 0.71878 0.04100
H 	H 	0.09400 0.89830 0.71540 0.01100
C 	C 	0.09633 0.92845 0.70684 -0.05100
C 	C 	0.10600 0.94733 0.71194 0.00900
H 	H 	0.10340 0.95960 0.70400 0.03700
C 	C 	0.11944 0.94760 0.72884 -0.09900
H 	H 	0.12610 0.96020 0.73290 0.06600
C 	C 	0.12310 0.92924 0.73985 0.05900
H 	H 	0.13230 0.92960 0.75150 0.00000
C 	C 	0.96879 0.84302 0.64828 0.09600
C 	C 	0.01534 0.85863 0.66482 0.05600
H 	H 	0.00530 0.84770 0.66360 -0.00100
C 	C 	0.02795 0.85944 0.68264 -0.09800
H 	H 	0.02690 0.84890 0.69300 0.06500
C 	C 	0.04177 0.87551 0.68501 0.00900
H 	H 	0.05020 0.87650 0.69720 0.03700
C 	C 	0.04333 0.89057 0.66906 -0.05000
C 	C 	0.03065 0.88826 0.65169 0.03900
H 	H 	0.03180 0.89830 0.64080 0.01400
C 	C 	0.05847 0.90791 0.67038 0.13400
C 	C 	0.08270 0.92619 0.68823 0.13800
C 	C 	0.07422 0.93553 0.65570 0.14000
C 	C 	0.09565 0.96242 0.63725 0.04400
H 	H 	0.10440 0.96280 0.64930 0.00900
C 	C 	0.07836 0.94878 0.63729 -0.05300
C 	C 	0.06601 0.94790 0.61928 0.00800
H 	H 	0.05430 0.93880 0.61850 0.03800
C 	C 	0.07141 0.96063 0.60256 -0.09700
H 	H 	0.06340 0.96030 0.59000 0.06500
C 	C 	0.08842 0.97377 0.60415 0.05700
H 	H 	0.09180 0.98250 0.59260 0.00200
C 	C 	0.13009 0.00126 0.57496 0.10400
C 	C 	0.16707 0.01760 0.61136 0.06000
H 	H 	0.16590 0.00730 0.60070 0.00000
C 	C 	0.18473 0.02925 0.61214 -0.10000
H 	H 	0.19590 0.02660 0.60270 0.06800
C 	C 	0.18645 0.04519 0.62702 0.00800
H 	H 	0.19860 0.05370 0.62780 0.03800
C 	C 	0.16989 0.04822 0.64067 -0.05200
C 	C 	0.15259 0.03496 0.63923 0.04300
H 	H 	0.14140 0.03670 0.64890 0.01000
C 	C 	0.17061 0.06433 0.65696 0.13400
N 	N 	0.11413 0.91093 0.73473 -0.22600
N 	N 	0.97646 0.85431 0.63623 -0.25800
N 	N 	0.01681 0.87273 0.64933 -0.22600
N 	N 	0.06052 0.92030 0.65364 -0.15300
N 	N 	0.06961 0.90990 0.68807 -0.15100
N 	N 	0.08523 0.93970 0.67285 -0.15500
N 	N 	0.10040 0.97466 0.62139 -0.23000
N 	N 	0.12722 0.99874 0.59250 -0.26200
N 	N 	0.15114 0.02001 0.62494 -0.22700
N 	N 	0.15560 0.06397 0.67137 -0.15100
S 	S 	0.95888 0.82689 0.66525 -0.06100
S 	S 	0.13430 0.00491 0.55016 -0.06200
C 	C 	0.60084 0.41105 0.71878 0.04100
H 	H 	0.59400 0.39830 0.71540 0.01100
C 	C 	0.59633 0.42845 0.70684 -0.05100
C 	C 	0.60600 0.44733 0.71194 0.00900
H 	H 	0.60340 0.45960 0.70400 0.03700
C 	C 	0.61944 0.44760 0.72884 -0.09900
H 	H 	0.62610 0.46020 0.73290 0.06600
C 	C 	0.62310 0.42924 0.73985 0.05900
H 	H 	0.63230 0.42960 0.75150 0.00000
C 	C 	0.46879 0.34302 0.64828 0.09600
C 	C 	0.51534 0.35863 0.66482 0.05600
H 	H 	0.50530 0.34770 0.66360 -0.00100
C 	C 	0.52795 0.35944 0.68264 -0.09800
H 	H 	0.52690 0.34890 0.69300 0.06500
C 	C 	0.54177 0.37551 0.68501 0.00900
H 	H 	0.55020 0.37650 0.69720 0.03700
C 	C 	0.54333 0.39057 0.66906 -0.05000
C 	C 	0.53065 0.38826 0.65169 0.03900
H 	H 	0.53180 0.39830 0.64080 0.01400
C 	C 	0.55847 0.40791 0.67038 0.13400
C 	C 	0.58270 0.42619 0.68823 0.13800
C 	C 	0.57422 0.43553 0.65570 0.14000
C 	C 	0.59565 0.46242 0.63725 0.04400
H 	H 	0.60440 0.46280 0.64930 0.00900
C 	C 	0.57836 0.44878 0.63729 -0.05300
C 	C 	0.56601 0.44790 0.61928 0.00800
H 	H 	0.55430 0.43880 0.61850 0.03800
C 	C 	0.57141 0.46063 0.60256 -0.09700
H 	H 	0.56340 0.46030 0.59000 0.06500
C 	C 	0.58842 0.47377 0.60415 0.05700
H 	H 	0.59180 0.48250 0.59260 0.00200
C 	C 	0.63009 0.50126 0.57496 0.10400
C 	C 	0.66707 0.51760 0.61136 0.06000
H 	H 	0.66590 0.50730 0.60070 0.00000
C 	C 	0.68473 0.52925 0.61214 -0.10000
H 	H 	0.69590 0.52660 0.60270 0.06800
C 	C 	0.68645 0.54519 0.62702 0.00800
H 	H 	0.69860 0.55370 0.62780 0.03800
C 	C 	0.66989 0.54822 0.64067 -0.05200
C 	C 	0.65259 0.53496 0.63923 0.04300
H 	H 	0.64140 0.53670 0.64890 0.01000
C 	C 	0.67061 0.56433 0.65696 0.13400
N 	N 	0.61413 0.41093 0.73473 -0.22600
N 	N 	0.47646 0.35431 0.63623 -0.25800
N 	N 	0.51681 0.37273 0.64933 -0.22600
N 	N 	0.56052 0.42030 0.65364 -0.15300
N 	N 	0.56961 0.40990 0.68807 -0.15100
N 	N 	0.58523 0.43970 0.67285 -0.15500
N 	N 	0.60040 0.47466 0.62139 -0.23000
N 	N 	0.62722 0.49874 0.59250 -0.26200
N 	N 	0.65114 0.52001 0.62494 -0.22700
N 	N 	0.65560 0.56397 0.67137 -0.15100
S 	S 	0.45888 0.32689 0.66525 -0.06100
S 	S 	0.63430 0.50491 0.55016 -0.06200
C 	C 	0.60084 0.91105 0.21878 0.04100
H 	H 	0.59400 0.89830 0.21540 0.01100
C 	C 	0.59633 0.92845 0.20684 -0.05100
C 	C 	0.60600 0.94733 0.21194 0.00900
H 	H 	0.60340 0.95960 0.20400 0.03700
C 	C 	0.61944 0.94760 0.22884 -0.09900
H 	H 	0.62610 0.96020 0.23290 0.06600
C 	C 	0.62310 0.92924 0.23985 0.05900
H 	H 	0.63230 0.92960 0.25150 0.00000
C 	C 	0.46879 0.84302 0.14828 0.09600
C 	C 	0.51534 0.85863 0.16482 0.05600
H 	H 	0.50530 0.84770 0.16360 -0.00100
C 	C 	0.52795 0.85944 0.18264 -0.09800
H 	H 	0.52690 0.84890 0.19300 0.06500
C 	C 	0.54177 0.87551 0.18501 0.00900
H 	H 	0.55020 0.87650 0.19720 0.03700
C 	C 	0.54333 0.89057 0.16906 -0.05000
C 	C 	0.53065 0.88826 0.15169 0.03900
H 	H 	0.53180 0.89830 0.14080 0.01400
C 	C 	0.55847 0.90791 0.17038 0.13400
C 	C 	0.58270 0.92619 0.18823 0.13800
C 	C 	0.57422 0.93553 0.15570 0.14000
C 	C 	0.59565 0.96242 0.13725 0.04400
H 	H 	0.60440 0.96280 0.14930 0.00900
C 	C 	0.57836 0.94878 0.13729 -0.05300
C 	C 	0.56601 0.94790 0.11928 0.00800
H 	H 	0.55430 0.93880 0.11850 0.03800
C 	C 	0.57141 0.96063 0.10256 -0.09700
H 	H 	0.56340 0.96030 0.09000 0.06500
C 	C 	0.58842 0.97377 0.10415 0.05700
H 	H 	0.59180 0.98250 0.09260 0.00200
C 	C 	0.63009 0.00126 0.07496 0.10400
C 	C 	0.66707 0.01760 0.11136 0.06000
H 	H 	0.66590 0.00730 0.10070 0.00000
C 	C 	0.68473 0.02925 0.11214 -0.10000
H 	H 	0.69590 0.02660 0.10270 0.06800
C 	C 	0.68645 0.04519 0.12702 0.00800
H 	H 	0.69860 0.05370 0.12780 0.03800
C 	C 	0.66989 0.04822 0.14067 -0.05200
C 	C 	0.65259 0.03496 0.13923 0.04300
H 	H 	0.64140 0.03670 0.14890 0.01000
C 	C 	0.67061 0.06433 0.15696 0.13400
N 	N 	0.61413 0.91093 0.23473 -0.22600
N 	N 	0.47646 0.85431 0.13623 -0.25800
N 	N 	0.51681 0.87273 0.14933 -0.22600
N 	N 	0.56052 0.92030 0.15364 -0.15300
N 	N 	0.56961 0.90990 0.18807 -0.15100
N 	N 	0.58523 0.93970 0.17285 -0.15500
N 	N 	0.60040 0.97466 0.12139 -0.23000
N 	N 	0.62722 0.99874 0.09250 -0.26200
N 	N 	0.65114 0.02001 0.12494 -0.22700
N 	N 	0.65560 0.06397 0.17137 -0.15100
S 	S 	0.45888 0.82689 0.16525 -0.06100
S 	S 	0.63430 0.00491 0.05016 -0.06200
C 	C 	0.60084 0.83895 0.53122 0.04100
H 	H 	0.59400 0.85170 0.53460 0.01100
C 	C 	0.59633 0.82155 0.54316 -0.05100
C 	C 	0.60600 0.80267 0.53806 0.00900
H 	H 	0.60340 0.79040 0.54600 0.03700
C 	C 	0.61944 0.80240 0.52116 -0.09900
H 	H 	0.62610 0.78980 0.51710 0.06600
C 	C 	0.62310 0.82076 0.51015 0.05900
H 	H 	0.63230 0.82040 0.49850 0.00000
C 	C 	0.46879 0.90698 0.60172 0.09600
C 	C 	0.51534 0.89137 0.58518 0.05600
H 	H 	0.50530 0.90230 0.58640 -0.00100
C 	C 	0.52795 0.89056 0.56736 -0.09800
H 	H 	0.52690 0.90110 0.55700 0.06500
C 	C 	0.54177 0.87449 0.56499 0.00900
H 	H 	0.55020 0.87350 0.55280 0.03700
C 	C 	0.54333 0.85943 0.58094 -0.05000
C 	C 	0.53065 0.86174 0.59831 0.03900
H 	H 	0.53180 0.85170 0.60920 0.01400
C 	C 	0.55847 0.84209 0.57962 0.13400
C 	C 	0.58270 0.82381 0.56177 0.13800
C 	C 	0.57422 0.81447 0.59430 0.14000
C 	C 	0.59565 0.78758 0.61275 0.04400
H 	H 	0.60440 0.78720 0.60070 0.00900
C 	C 	0.57836 0.80122 0.61271 -0.05300
C 	C 	0.56601 0.80210 0.63072 0.00800
H 	H 	0.55430 0.81120 0.63150 0.03800
C 	C 	0.57141 0.78937 0.64744 -0.09700
H 	H 	0.56340 0.78970 0.66000 0.06500
C 	C 	0.58842 0.77623 0.64585 0.05700
H 	H 	0.59180 0.76750 0.65740 0.00200
C 	C 	0.63009 0.74874 0.67504 0.10400
C 	C 	0.66707 0.73240 0.63864 0.06000
H 	H 	0.66590 0.74270 0.64930 0.00000
C 	C 	0.68473 0.72075 0.63786 -0.10000
H 	H 	0.69590 0.72340 0.64730 0.06800
C 	C 	0.68645 0.70481 0.62298 0.00800
H 	H 	0.69860 0.69630 0.62220 0.03800
C 	C 	0.66989 0.70178 0.60933 -0.05200
C 	C 	0.65259 0.71504 0.61077 0.04300
H 	H 	0.64140 0.71330 0.60110 0.01000
C 	C 	0.67061 0.68567 0.59304 0.13400
N 	N 	0.61413 0.83907 0.51527 -0.22600
N 	N 	0.47646 0.89569 0.61377 -0.25800
N 	N 	0.51681 0.87727 0.60067 -0.22600
N 	N 	0.56052 0.82970 0.59636 -0.15300
N 	N 	0.56961 0.84010 0.56193 -0.15100
N 	N 	0.58523 0.81030 0.57715 -0.15500
N 	N 	0.60040 0.77534 0.62861 -0.23000
N 	N 	0.62722 0.75126 0.65750 -0.26200
N 	N 	0.65114 0.72999 0.62506 -0.22700
N 	N 	0.65560 0.68603 0.57863 -0.15100
S 	S 	0.45888 0.92311 0.58475 -0.06100
S 	S 	0.63430 0.74509 0.69984 -0.06200
C 	C 	0.60084 0.33895 0.03122 0.04100
H 	H 	0.59400 0.35170 0.03460 0.01100
C 	C 	0.59633 0.32155 0.04316 -0.05100
C 	C 	0.60600 0.30267 0.03806 0.00800
H 	H 	0.60340 0.29040 0.04600 0.03700
C 	C 	0.61944 0.30240 0.02116 -0.09900
H 	H 	0.62610 0.28980 0.01710 0.06600
C 	C 	0.62310 0.32076 0.01015 0.05900
H 	H 	0.63230 0.32040 0.99850 0.00000
C 	C 	0.46879 0.40698 0.10172 0.09600
C 	C 	0.51534 0.39137 0.08518 0.05600
H 	H 	0.50530 0.40230 0.08640 -0.00100
C 	C 	0.52795 0.39056 0.06736 -0.09800
H 	H 	0.52690 0.40110 0.05700 0.06500
C 	C 	0.54177 0.37449 0.06499 0.00900
H 	H 	0.55020 0.37350 0.05280 0.03700
C 	C 	0.54333 0.35943 0.08094 -0.05000
C 	C 	0.53065 0.36174 0.09831 0.03900
H 	H 	0.53180 0.35170 0.10920 0.01400
C 	C 	0.55847 0.34209 0.07962 0.13400
C 	C 	0.58270 0.32381 0.06177 0.13800
C 	C 	0.57422 0.31447 0.09430 0.14000
C 	C 	0.59565 0.28758 0.11275 0.04400
H 	H 	0.60440 0.28720 0.10070 0.00900
C 	C 	0.57836 0.30122 0.11271 -0.05300
C 	C 	0.56601 0.30210 0.13072 0.00800
H 	H 	0.55430 0.31120 0.13150 0.03800
C 	C 	0.57141 0.28937 0.14744 -0.09700
H 	H 	0.56340 0.28970 0.16000 0.06500
C 	C 	0.58842 0.27623 0.14585 0.05700
H 	H 	0.59180 0.26750 0.15740 0.00200
C 	C 	0.63009 0.24874 0.17504 0.10400
C 	C 	0.66707 0.23240 0.13864 0.06000
H 	H 	0.66590 0.24270 0.14930 0.00000
C 	C 	0.68473 0.22075 0.13786 -0.10000
H 	H 	0.69590 0.22340 0.14730 0.06800
C 	C 	0.68645 0.20481 0.12298 0.00800
H 	H 	0.69860 0.19630 0.12220 0.03800
C 	C 	0.66989 0.20178 0.10933 -0.05200
C 	C 	0.65259 0.21504 0.11077 0.04300
H 	H 	0.64140 0.21330 0.10110 0.01000
C 	C 	0.67061 0.18567 0.09304 0.13400
N 	N 	0.61413 0.33907 0.01527 -0.22500
N 	N 	0.47646 0.39569 0.11377 -0.25800
N 	N 	0.51681 0.37727 0.10067 -0.22600
N 	N 	0.56052 0.32970 0.09636 -0.15300
N 	N 	0.56961 0.34010 0.06193 -0.15100
N 	N 	0.58523 0.31030 0.07715 -0.15500
N 	N 	0.60040 0.27534 0.12861 -0.23000
N 	N 	0.62722 0.25126 0.15750 -0.26200
N 	N 	0.65114 0.22999 0.12506 -0.22700
N 	N 	0.65560 0.18603 0.07863 -0.15100
S 	S 	0.45888 0.42311 0.08475 -0.06100
S 	S 	0.63430 0.24509 0.19984 -0.06200
C 	C 	0.10084 0.83895 0.03122 0.04100
H 	H 	0.09400 0.85170 0.03460 0.01100
C 	C 	0.09633 0.82155 0.04316 -0.05100
C 	C 	0.10600 0.80267 0.03806 0.00800
H 	H 	0.10340 0.79040 0.04600 0.03700
C 	C 	0.11944 0.80240 0.02116 -0.09900
H 	H 	0.12610 0.78980 0.01710 0.06600
C 	C 	0.12310 0.82076 0.01015 0.05900
H 	H 	0.13230 0.82040 0.99850 0.00000
C 	C 	0.96879 0.90698 0.10172 0.09600
C 	C 	0.01534 0.89137 0.08518 0.05600
H 	H 	0.00530 0.90230 0.08640 -0.00100
C 	C 	0.02795 0.89056 0.06736 -0.09800
H 	H 	0.02690 0.90110 0.05700 0.06500
C 	C 	0.04177 0.87449 0.06499 0.00900
H 	H 	0.05020 0.87350 0.05280 0.03700
C 	C 	0.04333 0.85943 0.08094 -0.05000
C 	C 	0.03065 0.86174 0.09831 0.03900
H 	H 	0.03180 0.85170 0.10920 0.01400
C 	C 	0.05847 0.84209 0.07962 0.13400
C 	C 	0.08270 0.82381 0.06177 0.13800
C 	C 	0.07422 0.81447 0.09430 0.14000
C 	C 	0.09565 0.78758 0.11275 0.04400
H 	H 	0.10440 0.78720 0.10070 0.00900
C 	C 	0.07836 0.80122 0.11271 -0.05300
C 	C 	0.06601 0.80210 0.13072 0.00800
H 	H 	0.05430 0.81120 0.13150 0.03800
C 	C 	0.07141 0.78937 0.14744 -0.09700
H 	H 	0.06340 0.78970 0.16000 0.06500
C 	C 	0.08842 0.77623 0.14585 0.05700
H 	H 	0.09180 0.76750 0.15740 0.00200
C 	C 	0.13009 0.74874 0.17504 0.10400
C 	C 	0.16707 0.73240 0.13864 0.06000
H 	H 	0.16590 0.74270 0.14930 0.00000
C 	C 	0.18473 0.72075 0.13786 -0.10000
H 	H 	0.19590 0.72340 0.14730 0.06800
C 	C 	0.18645 0.70481 0.12298 0.00800
H 	H 	0.19860 0.69630 0.12220 0.03800
C 	C 	0.16989 0.70178 0.10933 -0.05200
C 	C 	0.15259 0.71504 0.11077 0.04300
H 	H 	0.14140 0.71330 0.10110 0.01000
C 	C 	0.17061 0.68567 0.09304 0.13400
N 	N 	0.11413 0.83907 0.01527 -0.22500
N 	N 	0.97646 0.89569 0.11377 -0.25800
N 	N 	0.01681 0.87727 0.10067 -0.22600
N 	N 	0.06052 0.82970 0.09636 -0.15300
N 	N 	0.06961 0.84010 0.06193 -0.15100
N 	N 	0.08523 0.81030 0.07715 -0.15500
N 	N 	0.10040 0.77534 0.12861 -0.23000
N 	N 	0.12722 0.75126 0.15750 -0.26200
N 	N 	0.15114 0.72999 0.12506 -0.22700
N 	N 	0.15560 0.68603 0.07863 -0.15100
S 	S 	0.95888 0.92311 0.08475 -0.06100
S 	S 	0.13430 0.74509 0.19984 -0.06200
C 	C 	0.10084 0.33895 0.53122 0.04100
H 	H 	0.09400 0.35170 0.53460 0.01100
C 	C 	0.09633 0.32155 0.54316 -0.05100
C 	C 	0.10600 0.30267 0.53806 0.00900
H 	H 	0.10340 0.29040 0.54600 0.03700
C 	C 	0.11944 0.30240 0.52116 -0.09900
H 	H 	0.12610 0.28980 0.51710 0.06600
C 	C 	0.12310 0.32076 0.51015 0.05900
H 	H 	0.13230 0.32040 0.49850 0.00000
C 	C 	0.96879 0.40698 0.60172 0.09600
C 	C 	0.01534 0.39137 0.58518 0.05600
H 	H 	0.00530 0.40230 0.58640 -0.00100
C 	C 	0.02795 0.39056 0.56736 -0.09800
H 	H 	0.02690 0.40110 0.55700 0.06500
C 	C 	0.04177 0.37449 0.56499 0.00900
H 	H 	0.05020 0.37350 0.55280 0.03700
C 	C 	0.04333 0.35943 0.58094 -0.05000
C 	C 	0.03065 0.36174 0.59831 0.03900
H 	H 	0.03180 0.35170 0.60920 0.01400
C 	C 	0.05847 0.34209 0.57962 0.13400
C 	C 	0.08270 0.32381 0.56177 0.13800
C 	C 	0.07422 0.31447 0.59430 0.14000
C 	C 	0.09565 0.28758 0.61275 0.04400
H 	H 	0.10440 0.28720 0.60070 0.00900
C 	C 	0.07836 0.30122 0.61271 -0.05300
C 	C 	0.06601 0.30210 0.63072 0.00800
H 	H 	0.05430 0.31120 0.63150 0.03800
C 	C 	0.07141 0.28937 0.64744 -0.09700
H 	H 	0.06340 0.28970 0.66000 0.06500
C 	C 	0.08842 0.27623 0.64585 0.05700
H 	H 	0.09180 0.26750 0.65740 0.00200
C 	C 	0.13009 0.24874 0.67504 0.10400
C 	C 	0.16707 0.23240 0.63864 0.06000
H 	H 	0.16590 0.24270 0.64930 0.00000
C 	C 	0.18473 0.22075 0.63786 -0.10000
H 	H 	0.19590 0.22340 0.64730 0.06800
C 	C 	0.18645 0.20481 0.62298 0.00800
H 	H 	0.19860 0.19630 0.62220 0.03800
C 	C 	0.16989 0.20178 0.60933 -0.05200
C 	C 	0.15259 0.21504 0.61077 0.04300
H 	H 	0.14140 0.21330 0.60110 0.01000
C 	C 	0.17061 0.18567 0.59304 0.13400
N 	N 	0.11413 0.33907 0.51527 -0.22600
N 	N 	0.97646 0.39569 0.61377 -0.25800
N 	N 	0.01681 0.37727 0.60067 -0.22600
N 	N 	0.06052 0.32970 0.59636 -0.15300
N 	N 	0.06961 0.34010 0.56193 -0.15100
N 	N 	0.08523 0.31030 0.57715 -0.15500
N 	N 	0.10040 0.27534 0.62861 -0.23000
N 	N 	0.12722 0.25126 0.65750 -0.26200
N 	N 	0.15114 0.22999 0.62506 -0.22700
N 	N 	0.15560 0.18603 0.57863 -0.15100
S 	S 	0.95888 0.42311 0.58475 -0.06100
S 	S 	0.13430 0.24509 0.69984 -0.06200
C 	C 	0.14916 0.33895 0.71878 0.04100
H 	H 	0.15600 0.35170 0.71540 0.01100
C 	C 	0.15367 0.32155 0.70684 -0.05100
C 	C 	0.14400 0.30267 0.71194 0.00900
H 	H 	0.14660 0.29040 0.70400 0.03700
C 	C 	0.13056 0.30240 0.72884 -0.09900
H 	H 	0.12390 0.28980 0.73290 0.06600
C 	C 	0.12690 0.32076 0.73985 0.05900
H 	H 	0.11770 0.32040 0.75150 0.00000
C 	C 	0.28121 0.40698 0.64828 0.09600
C 	C 	0.23466 0.39137 0.66482 0.05600
H 	H 	0.24470 0.40230 0.66360 -0.00100
C 	C 	0.22205 0.39056 0.68264 -0.09800
H 	H 	0.22310 0.40110 0.69300 0.06500
C 	C 	0.20823 0.37449 0.68501 0.00900
H 	H 	0.19980 0.37350 0.69720 0.03700
C 	C 	0.20667 0.35943 0.66906 -0.05000
C 	C 	0.21935 0.36174 0.65169 0.03900
H 	H 	0.21820 0.35170 0.64080 0.01400
C 	C 	0.19153 0.34209 0.67038 0.13400
C 	C 	0.16730 0.32381 0.68823 0.13800
C 	C 	0.17578 0.31447 0.65570 0.14000
C 	C 	0.15435 0.28758 0.63725 0.04400
H 	H 	0.14560 0.28720 0.64930 0.00900
C 	C 	0.17164 0.30122 0.63729 -0.05300
C 	C 	0.18399 0.30210 0.61928 0.00800
H 	H 	0.19570 0.31120 0.61850 0.03800
C 	C 	0.17859 0.28937 0.60256 -0.09700
H 	H 	0.18660 0.28970 0.59000 0.06500
C 	C 	0.16158 0.27623 0.60415 0.05700
H 	H 	0.15820 0.26750 0.59260 0.00200
C 	C 	0.11991 0.24874 0.57496 0.10400
C 	C 	0.08293 0.23240 0.61136 0.06000
H 	H 	0.08410 0.24270 0.60070 0.00000
C 	C 	0.06527 0.22075 0.61214 -0.10000
H 	H 	0.05410 0.22340 0.60270 0.06800
C 	C 	0.06355 0.20481 0.62702 0.00800
H 	H 	0.05140 0.19630 0.62780 0.03800
C 	C 	0.08011 0.20178 0.64067 -0.05200
C 	C 	0.09741 0.21504 0.63923 0.04300
H 	H 	0.10860 0.21330 0.64890 0.01000
C 	C 	0.07939 0.18567 0.65696 0.13400
N 	N 	0.13587 0.33907 0.73473 -0.22600
N 	N 	0.27354 0.39569 0.63623 -0.25800
N 	N 	0.23319 0.37727 0.64933 -0.22600
N 	N 	0.18948 0.32970 0.65364 -0.15300
N 	N 	0.18039 0.34010 0.68807 -0.15100
N 	N 	0.16477 0.31030 0.67285 -0.15500
N 	N 	0.14960 0.27534 0.62139 -0.23000
N 	N 	0.12278 0.25126 0.59250 -0.26200
N 	N 	0.09886 0.22999 0.62494 -0.22700
N 	N 	0.09440 0.18603 0.67137 -0.15100
S 	S 	0.29112 0.42311 0.66525 -0.06100
S 	S 	0.11570 0.24509 0.55016 -0.06200
C 	C 	0.14916 0.83895 0.21878 0.04100
H 	H 	0.15600 0.85170 0.21540 0.01100
C 	C 	0.15367 0.82155 0.20684 -0.05100
C 	C 	0.14400 0.80267 0.21194 0.00900
H 	H 	0.14660 0.79040 0.20400 0.03700
C 	C 	0.13056 0.80240 0.22884 -0.09900
H 	H 	0.12390 0.78980 0.23290 0.06600
C 	C 	0.12690 0.82076 0.23985 0.05900
H 	H 	0.11770 0.82040 0.25150 0.00000
C 	C 	0.28121 0.90698 0.14828 0.09600
C 	C 	0.23466 0.89137 0.16482 0.05600
H 	H 	0.24470 0.90230 0.16360 -0.00100
C 	C 	0.22205 0.89056 0.18264 -0.09800
H 	H 	0.22310 0.90110 0.19300 0.06500
C 	C 	0.20823 0.87449 0.18501 0.00900
H 	H 	0.19980 0.87350 0.19720 0.03700
C 	C 	0.20667 0.85943 0.16906 -0.05000
C 	C 	0.21935 0.86174 0.15169 0.03900
H 	H 	0.21820 0.85170 0.14080 0.01400
C 	C 	0.19153 0.84209 0.17038 0.13400
C 	C 	0.16730 0.82381 0.18823 0.13800
C 	C 	0.17578 0.81447 0.15570 0.14000
C 	C 	0.15435 0.78758 0.13725 0.04400
H 	H 	0.14560 0.78720 0.14930 0.00900
C 	C 	0.17164 0.80122 0.13729 -0.05300
C 	C 	0.18399 0.80210 0.11928 0.00800
H 	H 	0.19570 0.81120 0.11850 0.03800
C 	C 	0.17859 0.78937 0.10256 -0.09700
H 	H 	0.18660 0.78970 0.09000 0.06500
C 	C 	0.16158 0.77623 0.10415 0.05700
H 	H 	0.15820 0.76750 0.09260 0.00200
C 	C 	0.11991 0.74874 0.07496 0.10400
C 	C 	0.08293 0.73240 0.11136 0.06000
H 	H 	0.08410 0.74270 0.10070 0.00000
C 	C 	0.06527 0.72075 0.11214 -0.10000
H 	H 	0.05410 0.72340 0.10270 0.06800
C 	C 	0.06355 0.70481 0.12702 0.00800
H 	H 	0.05140 0.69630 0.12780 0.03800
C 	C 	0.08011 0.70178 0.14067 -0.05200
C 	C 	0.09741 0.71504 0.13923 0.04300
H 	H 	0.10860 0.71330 0.14890 0.01000
C 	C 	0.07939 0.68567 0.15696 0.13400
N 	N 	0.13587 0.83907 0.23473 -0.22600
N 	N 	0.27354 0.89569 0.13623 -0.25800
N 	N 	0.23319 0.87727 0.14933 -0.22600
N 	N 	0.18948 0.82970 0.15364 -0.15300
N 	N 	0.18039 0.84010 0.18807 -0.15100
N 	N 	0.16477 0.81030 0.17285 -0.15500
N 	N 	0.14960 0.77534 0.12139 -0.23000
N 	N 	0.12278 0.75126 0.09250 -0.26200
N 	N 	0.09886 0.72999 0.12494 -0.22700
N 	N 	0.09440 0.68603 0.17137 -0.15100
S 	S 	0.29112 0.92311 0.16525 -0.06100
S 	S 	0.11570 0.74509 0.05016 -0.06200
C 	C 	0.64916 0.33895 0.21878 0.04100
H 	H 	0.65600 0.35170 0.21540 0.01100
C 	C 	0.65367 0.32155 0.20684 -0.05100
C 	C 	0.64400 0.30267 0.21194 0.00900
H 	H 	0.64660 0.29040 0.20400 0.03700
C 	C 	0.63056 0.30240 0.22884 -0.09900
H 	H 	0.62390 0.28980 0.23290 0.06600
C 	C 	0.62690 0.32076 0.23985 0.05900
H 	H 	0.61770 0.32040 0.25150 0.00000
C 	C 	0.78121 0.40698 0.14828 0.09600
C 	C 	0.73466 0.39137 0.16482 0.05600
H 	H 	0.74470 0.40230 0.16360 -0.00100
C 	C 	0.72205 0.39056 0.18264 -0.09800
H 	H 	0.72310 0.40110 0.19300 0.06500
C 	C 	0.70823 0.37449 0.18501 0.00900
H 	H 	0.69980 0.37350 0.19720 0.03700
C 	C 	0.70667 0.35943 0.16906 -0.05000
C 	C 	0.71935 0.36174 0.15169 0.03900
H 	H 	0.71820 0.35170 0.14080 0.01400
C 	C 	0.69153 0.34209 0.17038 0.13400
C 	C 	0.66730 0.32381 0.18823 0.13800
C 	C 	0.67578 0.31447 0.15570 0.14000
C 	C 	0.65435 0.28758 0.13725 0.04400
H 	H 	0.64560 0.28720 0.14930 0.00900
C 	C 	0.67164 0.30122 0.13729 -0.05300
C 	C 	0.68399 0.30210 0.11928 0.00800
H 	H 	0.69570 0.31120 0.11850 0.03800
C 	C 	0.67859 0.28937 0.10256 -0.09700
H 	H 	0.68660 0.28970 0.09000 0.06500
C 	C 	0.66158 0.27623 0.10415 0.05700
H 	H 	0.65820 0.26750 0.09260 0.00200
C 	C 	0.61991 0.24874 0.07496 0.10400
C 	C 	0.58293 0.23240 0.11136 0.06000
H 	H 	0.58410 0.24270 0.10070 0.00000
C 	C 	0.56527 0.22075 0.11214 -0.10000
H 	H 	0.55410 0.22340 0.10270 0.06800
C 	C 	0.56355 0.20481 0.12702 0.00800
H 	H 	0.55140 0.19630 0.12780 0.03800
C 	C 	0.58011 0.20178 0.14067 -0.05200
C 	C 	0.59741 0.21504 0.13923 0.04300
H 	H 	0.60860 0.21330 0.14890 0.01000
C 	C 	0.57939 0.18567 0.15696 0.13400
N 	N 	0.63587 0.33907 0.23473 -0.22600
N 	N 	0.77354 0.39569 0.13623 -0.25800
N 	N 	0.73319 0.37727 0.14933 -0.22600
N 	N 	0.68948 0.32970 0.15364 -0.15300
N 	N 	0.68039 0.34010 0.18807 -0.15100
N 	N 	0.66477 0.31030 0.17285 -0.15500
N 	N 	0.64960 0.27534 0.12139 -0.23000
N 	N 	0.62278 0.25126 0.09250 -0.26200
N 	N 	0.59886 0.22999 0.12494 -0.22700
N 	N 	0.59440 0.18603 0.17137 -0.15100
S 	S 	0.79112 0.42311 0.16525 -0.06100
S 	S 	0.61570 0.24509 0.05016 -0.06200
C 	C 	0.64916 0.83895 0.71878 0.04100
H 	H 	0.65600 0.85170 0.71540 0.01100
C 	C 	0.65367 0.82155 0.70684 -0.05100
C 	C 	0.64400 0.80267 0.71194 0.00900
H 	H 	0.64660 0.79040 0.70400 0.03700
C 	C 	0.63056 0.80240 0.72884 -0.09900
H 	H 	0.62390 0.78980 0.73290 0.06600
C 	C 	0.62690 0.82076 0.73985 0.05900
H 	H 	0.61770 0.82040 0.75150 0.00000
C 	C 	0.78121 0.90698 0.64828 0.09600
C 	C 	0.73466 0.89137 0.66482 0.05600
H 	H 	0.74470 0.90230 0.66360 -0.00100
C 	C 	0.72205 0.89056 0.68264 -0.09800
H 	H 	0.72310 0.90110 0.69300 0.06500
C 	C 	0.70823 0.87449 0.68501 0.00900
H 	H 	0.69980 0.87350 0.69720 0.03700
C 	C 	0.70667 0.85943 0.66906 -0.05000
C 	C 	0.71935 0.86174 0.65169 0.03900
H 	H 	0.71820 0.85170 0.64080 0.01400
C 	C 	0.69153 0.84209 0.67038 0.13400
C 	C 	0.66730 0.82381 0.68823 0.13800
C 	C 	0.67578 0.81447 0.65570 0.14000
C 	C 	0.65435 0.78758 0.63725 0.04400
H 	H 	0.64560 0.78720 0.64930 0.00900
C 	C 	0.67164 0.80122 0.63729 -0.05300
C 	C 	0.68399 0.80210 0.61928 0.00800
H 	H 	0.69570 0.81120 0.61850 0.03800
C 	C 	0.67859 0.78937 0.60256 -0.09700
H 	H 	0.68660 0.78970 0.59000 0.06500
C 	C 	0.66158 0.77623 0.60415 0.05700
H 	H 	0.65820 0.76750 0.59260 0.00200
C 	C 	0.61991 0.74874 0.57496 0.10400
C 	C 	0.58293 0.73240 0.61136 0.06000
H 	H 	0.58410 0.74270 0.60070 0.00000
C 	C 	0.56527 0.72075 0.61214 -0.10000
H 	H 	0.55410 0.72340 0.60270 0.06800
C 	C 	0.56355 0.70481 0.62702 0.00800
H 	H 	0.55140 0.69630 0.62780 0.03800
C 	C 	0.58011 0.70178 0.64067 -0.05200
C 	C 	0.59741 0.71504 0.63923 0.04300
H 	H 	0.60860 0.71330 0.64890 0.01000
C 	C 	0.57939 0.68567 0.65696 0.13400
N 	N 	0.63587 0.83907 0.73473 -0.22600
N 	N 	0.77354 0.89569 0.63623 -0.25800
N 	N 	0.73319 0.87727 0.64933 -0.22600
N 	N 	0.68948 0.82970 0.65364 -0.15300
N 	N 	0.68039 0.84010 0.68807 -0.15100
N 	N 	0.66477 0.81030 0.67285 -0.15500
N 	N 	0.64960 0.77534 0.62139 -0.23000
N 	N 	0.62278 0.75126 0.59250 -0.26200
N 	N 	0.59886 0.72999 0.62494 -0.22700
N 	N 	0.59440 0.68603 0.67137 -0.15100
S 	S 	0.79112 0.92311 0.66525 -0.06100
S 	S 	0.61570 0.74509 0.55016 -0.06200
C 	C 	0.64916 0.91105 0.03122 0.04100
H 	H 	0.65600 0.89830 0.03460 0.01100
C 	C 	0.65367 0.92845 0.04316 -0.05100
C 	C 	0.64400 0.94733 0.03806 0.00800
H 	H 	0.64660 0.95960 0.04600 0.03700
C 	C 	0.63056 0.94760 0.02116 -0.09900
H 	H 	0.62390 0.96020 0.01710 0.06600
C 	C 	0.62690 0.92924 0.01015 0.05900
H 	H 	0.61770 0.92960 0.99850 0.00000
C 	C 	0.78121 0.84302 0.10172 0.09600
C 	C 	0.73466 0.85863 0.08518 0.05600
H 	H 	0.74470 0.84770 0.08640 -0.00100
C 	C 	0.72205 0.85944 0.06736 -0.09800
H 	H 	0.72310 0.84890 0.05700 0.06500
C 	C 	0.70823 0.87551 0.06499 0.00900
H 	H 	0.69980 0.87650 0.05280 0.03700
C 	C 	0.70667 0.89057 0.08094 -0.05000
C 	C 	0.71935 0.88826 0.09831 0.03900
H 	H 	0.71820 0.89830 0.10920 0.01400
C 	C 	0.69153 0.90791 0.07962 0.13400
C 	C 	0.66730 0.92619 0.06177 0.13800
C 	C 	0.67578 0.93553 0.09430 0.14000
C 	C 	0.65435 0.96242 0.11275 0.04400
H 	H 	0.64560 0.96280 0.10070 0.00900
C 	C 	0.67164 0.94878 0.11271 -0.05300
C 	C 	0.68399 0.94790 0.13072 0.00800
H 	H 	0.69570 0.93880 0.13150 0.03800
C 	C 	0.67859 0.96063 0.14744 -0.09700
H 	H 	0.68660 0.96030 0.16000 0.06500
C 	C 	0.66158 0.97377 0.14585 0.05700
H 	H 	0.65820 0.98250 0.15740 0.00200
C 	C 	0.61991 0.00126 0.17504 0.10400
C 	C 	0.58293 0.01760 0.13864 0.06000
H 	H 	0.58410 0.00730 0.14930 0.00000
C 	C 	0.56527 0.02925 0.13786 -0.10000
H 	H 	0.55410 0.02660 0.14730 0.06800
C 	C 	0.56355 0.04519 0.12298 0.00800
H 	H 	0.55140 0.05370 0.12220 0.03800
C 	C 	0.58011 0.04822 0.10933 -0.05200
C 	C 	0.59741 0.03496 0.11077 0.04300
H 	H 	0.60860 0.03670 0.10110 0.01000
C 	C 	0.57939 0.06433 0.09304 0.13400
N 	N 	0.63587 0.91093 0.01527 -0.22500
N 	N 	0.77354 0.85431 0.11377 -0.25800
N 	N 	0.73319 0.87273 0.10067 -0.22600
N 	N 	0.68948 0.92030 0.09636 -0.15300
N 	N 	0.68039 0.90990 0.06193 -0.15100
N 	N 	0.66477 0.93970 0.07715 -0.15500
N 	N 	0.64960 0.97466 0.12861 -0.23000
N 	N 	0.62278 0.99874 0.15750 -0.26200
N 	N 	0.59886 0.02001 0.12506 -0.22700
N 	N 	0.59440 0.06397 0.07863 -0.15100
S 	S 	0.79112 0.82689 0.08475 -0.06100
S 	S 	0.61570 0.00491 0.19984 -0.06200
C 	C 	0.64916 0.41105 0.53122 0.04100
H 	H 	0.65600 0.39830 0.53460 0.01100
C 	C 	0.65367 0.42845 0.54316 -0.05100
C 	C 	0.64400 0.44733 0.53806 0.00900
H 	H 	0.64660 0.45960 0.54600 0.03700
C 	C 	0.63056 0.44760 0.52116 -0.09900
H 	H 	0.62390 0.46020 0.51710 0.06600
C 	C 	0.62690 0.42924 0.51015 0.05900
H 	H 	0.61770 0.42960 0.49850 0.00000
C 	C 	0.78121 0.34302 0.60172 0.09600
C 	C 	0.73466 0.35863 0.58518 0.05600
H 	H 	0.74470 0.34770 0.58640 -0.00100
C 	C 	0.72205 0.35944 0.56736 -0.09800
H 	H 	0.72310 0.34890 0.55700 0.06500
C 	C 	0.70823 0.37551 0.56499 0.00900
H 	H 	0.69980 0.37650 0.55280 0.03700
C 	C 	0.70667 0.39057 0.58094 -0.05000
C 	C 	0.71935 0.38826 0.59831 0.03900
H 	H 	0.71820 0.39830 0.60920 0.01400
C 	C 	0.69153 0.40791 0.57962 0.13400
C 	C 	0.66730 0.42619 0.56177 0.13800
C 	C 	0.67578 0.43553 0.59430 0.14000
C 	C 	0.65435 0.46242 0.61275 0.04400
H 	H 	0.64560 0.46280 0.60070 0.00900
C 	C 	0.67164 0.44878 0.61271 -0.05300
C 	C 	0.68399 0.44790 0.63072 0.00800
H 	H 	0.69570 0.43880 0.63150 0.03800
C 	C 	0.67859 0.46063 0.64744 -0.09700
H 	H 	0.68660 0.46030 0.66000 0.06500
C 	C 	0.66158 0.47377 0.64585 0.05700
H 	H 	0.65820 0.48250 0.65740 0.00200
C 	C 	0.61991 0.50126 0.67504 0.10400
C 	C 	0.58293 0.51760 0.63864 0.06000
H 	H 	0.58410 0.50730 0.64930 0.00000
C 	C 	0.56527 0.52925 0.63786 -0.10000
H 	H 	0.55410 0.52660 0.64730 0.06800
C 	C 	0.56355 0.54519 0.62298 0.00800
H 	H 	0.55140 0.55370 0.62220 0.03800
C 	C 	0.58011 0.54822 0.60933 -0.05200
C 	C 	0.59741 0.53496 0.61077 0.04300
H 	H 	0.60860 0.53670 0.60110 0.01000
C 	C 	0.57939 0.56433 0.59304 0.13400
N 	N 	0.63587 0.41093 0.51527 -0.22600
N 	N 	0.77354 0.35431 0.61377 -0.25800
N 	N 	0.73319 0.37273 0.60067 -0.22600
N 	N 	0.68948 0.42030 0.59636 -0.15300
N 	N 	0.68039 0.40990 0.56193 -0.15100
N 	N 	0.66477 0.43970 0.57715 -0.15500
N 	N 	0.64960 0.47466 0.62861 -0.23000
N 	N 	0.62278 0.49874 0.65750 -0.26200
N 	N 	0.59886 0.52001 0.62506 -0.22700
N 	N 	0.59440 0.56397 0.57863 -0.15100
S 	S 	0.79112 0.32689 0.58475 -0.06100
S 	S 	0.61570 0.50491 0.69984 -0.06200
C 	C 	0.14916 0.91105 0.53122 0.04100
H 	H 	0.15600 0.89830 0.53460 0.01100
C 	C 	0.15367 0.92845 0.54316 -0.05100
C 	C 	0.14400 0.94733 0.53806 0.00900
H 	H 	0.14660 0.95960 0.54600 0.03700
C 	C 	0.13056 0.94760 0.52116 -0.09900
H 	H 	0.12390 0.96020 0.51710 0.06600
C 	C 	0.12690 0.92924 0.51015 0.05900
H 	H 	0.11770 0.92960 0.49850 0.00000
C 	C 	0.28121 0.84302 0.60172 0.09600
C 	C 	0.23466 0.85863 0.58518 0.05600
H 	H 	0.24470 0.84770 0.58640 -0.00100
C 	C 	0.22205 0.85944 0.56736 -0.09800
H 	H 	0.22310 0.84890 0.55700 0.06500
C 	C 	0.20823 0.87551 0.56499 0.00900
H 	H 	0.19980 0.87650 0.55280 0.03700
C 	C 	0.20667 0.89057 0.58094 -0.05000
C 	C 	0.21935 0.88826 0.59831 0.03900
H 	H 	0.21820 0.89830 0.60920 0.01400
C 	C 	0.19153 0.90791 0.57962 0.13400
C 	C 	0.16730 0.92619 0.56177 0.13800
C 	C 	0.17578 0.93553 0.59430 0.14000
C 	C 	0.15435 0.96242 0.61275 0.04400
H 	H 	0.14560 0.96280 0.60070 0.00900
C 	C 	0.17164 0.94878 0.61271 -0.05300
C 	C 	0.18399 0.94790 0.63072 0.00800
H 	H 	0.19570 0.93880 0.63150 0.03800
C 	C 	0.17859 0.96063 0.64744 -0.09700
H 	H 	0.18660 0.96030 0.66000 0.06500
C 	C 	0.16158 0.97377 0.64585 0.05700
H 	H 	0.15820 0.98250 0.65740 0.00200
C 	C 	0.11991 0.00126 0.67504 0.10400
C 	C 	0.08293 0.01760 0.63864 0.06000
H 	H 	0.08410 0.00730 0.64930 0.00000
C 	C 	0.06527 0.02925 0.63786 -0.10000
H 	H 	0.05410 0.02660 0.64730 0.06800
C 	C 	0.06355 0.04519 0.62298 0.00800
H 	H 	0.05140 0.05370 0.62220 0.03800
C 	C 	0.08011 0.04822 0.60933 -0.05200
C 	C 	0.09741 0.03496 0.61077 0.04300
H 	H 	0.10860 0.03670 0.60110 0.01000
C 	C 	0.07939 0.06433 0.59304 0.13400
N 	N 	0.13587 0.91093 0.51527 -0.22600
N 	N 	0.27354 0.85431 0.61377 -0.25800
N 	N 	0.23319 0.87273 0.60067 -0.22600
N 	N 	0.18948 0.92030 0.59636 -0.15300
N 	N 	0.18039 0.90990 0.56193 -0.15100
N 	N 	0.16477 0.93970 0.57715 -0.15500
N 	N 	0.14960 0.97466 0.62861 -0.23000
N 	N 	0.12278 0.99874 0.65750 -0.26200
N 	N 	0.09886 0.02001 0.62506 -0.22700
N 	N 	0.09440 0.06397 0.57863 -0.15100
S 	S 	0.29112 0.82689 0.58475 -0.06100
S 	S 	0.11570 0.00491 0.69984 -0.06200
C 	C 	0.14916 0.41105 0.03122 0.04100
H 	H 	0.15600 0.39830 0.03460 0.01100
C 	C 	0.15367 0.42845 0.04316 -0.05100
C 	C 	0.14400 0.44733 0.03806 0.00800
H 	H 	0.14660 0.45960 0.04600 0.03700
C 	C 	0.13056 0.44760 0.02116 -0.09900
H 	H 	0.12390 0.46020 0.01710 0.06600
C 	C 	0.12690 0.42924 0.01015 0.05900
H 	H 	0.11770 0.42960 0.99850 0.00000
C 	C 	0.28121 0.34302 0.10172 0.09600
C 	C 	0.23466 0.35863 0.08518 0.05600
H 	H 	0.24470 0.34770 0.08640 -0.00100
C 	C 	0.22205 0.35944 0.06736 -0.09800
H 	H 	0.22310 0.34890 0.05700 0.06500
C 	C 	0.20823 0.37551 0.06499 0.00900
H 	H 	0.19980 0.37650 0.05280 0.03700
C 	C 	0.20667 0.39057 0.08094 -0.05000
C 	C 	0.21935 0.38826 0.09831 0.03900
H 	H 	0.21820 0.39830 0.10920 0.01400
C 	C 	0.19153 0.40791 0.07962 0.13400
C 	C 	0.16730 0.42619 0.06177 0.13800
C 	C 	0.17578 0.43553 0.09430 0.14000
C 	C 	0.15435 0.46242 0.11275 0.04400
H 	H 	0.14560 0.46280 0.10070 0.00900
C 	C 	0.17164 0.44878 0.11271 -0.05300
C 	C 	0.18399 0.44790 0.13072 0.00800
H 	H 	0.19570 0.43880 0.13150 0.03800
C 	C 	0.17859 0.46063 0.14744 -0.09700
H 	H 	0.18660 0.46030 0.16000 0.06500
C 	C 	0.16158 0.47377 0.14585 0.05700
H 	H 	0.15820 0.48250 0.15740 0.00200
C 	C 	0.11991 0.50126 0.17504 0.10400
C 	C 	0.08293 0.51760 0.13864 0.06000
H 	H 	0.08410 0.50730 0.14930 0.00000
C 	C 	0.06527 0.52925 0.13786 -0.10000
H 	H 	0.05410 0.52660 0.14730 0.06800
C 	C 	0.06355 0.54519 0.12298 0.00800
H 	H 	0.05140 0.55370 0.12220 0.03800
C 	C 	0.08011 0.54822 0.10933 -0.05200
C 	C 	0.09741 0.53496 0.11077 0.04300
H 	H 	0.10860 0.53670 0.10110 0.01000
C 	C 	0.07939 0.56433 0.09304 0.13400
N 	N 	0.13587 0.41093 0.01527 -0.22500
N 	N 	0.27354 0.35431 0.11377 -0.25800
N 	N 	0.23319 0.37273 0.10067 -0.22600
N 	N 	0.18948 0.42030 0.09636 -0.15300
N 	N 	0.18039 0.40990 0.06193 -0.15100
N 	N 	0.16477 0.43970 0.07715 -0.15500
N 	N 	0.14960 0.47466 0.12861 -0.23000
N 	N 	0.12278 0.49874 0.15750 -0.26200
N 	N 	0.09886 0.52001 0.12506 -0.22700
N 	N 	0.09440 0.56397 0.07863 -0.15100
S 	S 	0.29112 0.32689 0.08475 -0.06100
S 	S 	0.11570 0.50491 0.19984 -0.06200
C 	C 	0.21878 0.10084 0.41105 0.04100
H 	H 	0.21540 0.09400 0.39830 0.01100
C 	C 	0.20684 0.09633 0.42845 -0.05100
C 	C 	0.21194 0.10600 0.44733 0.00900
H 	H 	0.20400 0.10340 0.45960 0.03700
C 	C 	0.22884 0.11944 0.44760 -0.09900
H 	H 	0.23290 0.12610 0.46020 0.06600
C 	C 	0.23985 0.12310 0.42924 0.05900
H 	H 	0.25150 0.13230 0.42960 0.00000
C 	C 	0.14828 0.96879 0.34302 0.09600
C 	C 	0.16482 0.01534 0.35863 0.05600
H 	H 	0.16360 0.00530 0.34770 -0.00100
C 	C 	0.18264 0.02795 0.35944 -0.09800
H 	H 	0.19300 0.02690 0.34890 0.06500
C 	C 	0.18501 0.04177 0.37551 0.00900
H 	H 	0.19720 0.05020 0.37650 0.03700
C 	C 	0.16906 0.04333 0.39057 -0.05000
C 	C 	0.15169 0.03065 0.38826 0.03900
H 	H 	0.14080 0.03180 0.39830 0.01400
C 	C 	0.17038 0.05847 0.40791 0.13400
C 	C 	0.18823 0.08270 0.42619 0.13800
C 	C 	0.15570 0.07422 0.43553 0.14000
C 	C 	0.13725 0.09565 0.46242 0.04400
H 	H 	0.14930 0.10440 0.46280 0.00900
C 	C 	0.13729 0.07836 0.44878 -0.05300
C 	C 	0.11928 0.06601 0.44790 0.00800
H 	H 	0.11850 0.05430 0.43880 0.03800
C 	C 	0.10256 0.07141 0.46063 -0.09700
H 	H 	0.09000 0.06340 0.46030 0.06500
C 	C 	0.10415 0.08842 0.47377 0.05700
H 	H 	0.09260 0.09180 0.48250 0.00200
C 	C 	0.07496 0.13009 0.50126 0.10400
C 	C 	0.11136 0.16707 0.51760 0.06000
H 	H 	0.10070 0.16590 0.50730 0.00000
C 	C 	0.11214 0.18473 0.52925 -0.10000
H 	H 	0.10270 0.19590 0.52660 0.06800
C 	C 	0.12702 0.18645 0.54519 0.00800
H 	H 	0.12780 0.19860 0.55370 0.03800
C 	C 	0.14067 0.16989 0.54822 -0.05200
C 	C 	0.13923 0.15259 0.53496 0.04300
H 	H 	0.14890 0.14140 0.53670 0.01000
C 	C 	0.15696 0.17061 0.56433 0.13400
N 	N 	0.23473 0.11413 0.41093 -0.22600
N 	N 	0.13623 0.97646 0.35431 -0.25800
N 	N 	0.14933 0.01681 0.37273 -0.22600
N 	N 	0.15364 0.06052 0.42030 -0.15300
N 	N 	0.18807 0.06961 0.40990 -0.15100
N 	N 	0.17285 0.08523 0.43970 -0.15500
N 	N 	0.12139 0.10040 0.47466 -0.23000
N 	N 	0.09250 0.12722 0.49874 -0.26200
N 	N 	0.12494 0.15114 0.52001 -0.22700
N 	N 	0.17137 0.15560 0.56397 -0.15100
S 	S 	0.16525 0.95888 0.32689 -0.06100
S 	S 	0.05016 0.13430 0.50491 -0.06200
C 	C 	0.21878 0.60084 0.91105 0.04100
H 	H 	0.21540 0.59400 0.89830 0.01100
C 	C 	0.20684 0.59633 0.92845 -0.05100
C 	C 	0.21194 0.60600 0.94733 0.00900
H 	H 	0.20400 0.60340 0.95960 0.03700
C 	C 	0.22884 0.61944 0.94760 -0.09900
H 	H 	0.23290 0.62610 0.96020 0.06600
C 	C 	0.23985 0.62310 0.92924 0.05900
H 	H 	0.25150 0.63230 0.92960 0.00000
C 	C 	0.14828 0.46879 0.84302 0.09600
C 	C 	0.16482 0.51534 0.85863 0.05600
H 	H 	0.16360 0.50530 0.84770 -0.00100
C 	C 	0.18264 0.52795 0.85944 -0.09800
H 	H 	0.19300 0.52690 0.84890 0.06500
C 	C 	0.18501 0.54177 0.87551 0.00900
H 	H 	0.19720 0.55020 0.87650 0.03700
C 	C 	0.16906 0.54333 0.89057 -0.05000
C 	C 	0.15169 0.53065 0.88826 0.03900
H 	H 	0.14080 0.53180 0.89830 0.01400
C 	C 	0.17038 0.55847 0.90791 0.13400
C 	C 	0.18823 0.58270 0.92619 0.13800
C 	C 	0.15570 0.57422 0.93553 0.14000
C 	C 	0.13725 0.59565 0.96242 0.04400
H 	H 	0.14930 0.60440 0.96280 0.00900
C 	C 	0.13729 0.57836 0.94878 -0.05300
C 	C 	0.11928 0.56601 0.94790 0.00800
H 	H 	0.11850 0.55430 0.93880 0.03800
C 	C 	0.10256 0.57141 0.96063 -0.09700
H 	H 	0.09000 0.56340 0.96030 0.06500
C 	C 	0.10415 0.58842 0.97377 0.05700
H 	H 	0.09260 0.59180 0.98250 0.00200
C 	C 	0.07496 0.63009 0.00126 0.10400
C 	C 	0.11136 0.66707 0.01760 0.06000
H 	H 	0.10070 0.66590 0.00730 0.00000
C 	C 	0.11214 0.68473 0.02925 -0.10000
H 	H 	0.10270 0.69590 0.02660 0.06800
C 	C 	0.12702 0.68645 0.04519 0.00800
H 	H 	0.12780 0.69860 0.05370 0.03800
C 	C 	0.14067 0.66989 0.04822 -0.05200
C 	C 	0.13923 0.65259 0.03496 0.04300
H 	H 	0.14890 0.64140 0.03670 0.01000
C 	C 	0.15696 0.67061 0.06433 0.13400
N 	N 	0.23473 0.61413 0.91093 -0.22600
N 	N 	0.13623 0.47646 0.85431 -0.25800
N 	N 	0.14933 0.51681 0.87273 -0.22600
N 	N 	0.15364 0.56052 0.92030 -0.15300
N 	N 	0.18807 0.56961 0.90990 -0.15100
N 	N 	0.17285 0.58523 0.93970 -0.15500
N 	N 	0.12139 0.60040 0.97466 -0.23000
N 	N 	0.09250 0.62722 0.99874 -0.26200
N 	N 	0.12494 0.65114 0.02001 -0.22700
N 	N 	0.17137 0.65560 0.06397 -0.15100
S 	S 	0.16525 0.45888 0.82689 -0.06100
S 	S 	0.05016 0.63430 0.00491 -0.06200
C 	C 	0.71878 0.10084 0.91105 0.04100
H 	H 	0.71540 0.09400 0.89830 0.01100
C 	C 	0.70684 0.09633 0.92845 -0.05100
C 	C 	0.71194 0.10600 0.94733 0.00900
H 	H 	0.70400 0.10340 0.95960 0.03700
C 	C 	0.72884 0.11944 0.94760 -0.09900
H 	H 	0.73290 0.12610 0.96020 0.06600
C 	C 	0.73985 0.12310 0.92924 0.05900
H 	H 	0.75150 0.13230 0.92960 0.00000
C 	C 	0.64828 0.96879 0.84302 0.09600
C 	C 	0.66482 0.01534 0.85863 0.05600
H 	H 	0.66360 0.00530 0.84770 -0.00100
C 	C 	0.68264 0.02795 0.85944 -0.09800
H 	H 	0.69300 0.02690 0.84890 0.06500
C 	C 	0.68501 0.04177 0.87551 0.00900
H 	H 	0.69720 0.05020 0.87650 0.03700
C 	C 	0.66906 0.04333 0.89057 -0.05000
C 	C 	0.65169 0.03065 0.88826 0.03900
H 	H 	0.64080 0.03180 0.89830 0.01400
C 	C 	0.67038 0.05847 0.90791 0.13400
C 	C 	0.68823 0.08270 0.92619 0.13800
C 	C 	0.65570 0.07422 0.93553 0.14000
C 	C 	0.63725 0.09565 0.96242 0.04400
H 	H 	0.64930 0.10440 0.96280 0.00900
C 	C 	0.63729 0.07836 0.94878 -0.05300
C 	C 	0.61928 0.06601 0.94790 0.00800
H 	H 	0.61850 0.05430 0.93880 0.03800
C 	C 	0.60256 0.07141 0.96063 -0.09700
H 	H 	0.59000 0.06340 0.96030 0.06500
C 	C 	0.60415 0.08842 0.97377 0.05700
H 	H 	0.59260 0.09180 0.98250 0.00200
C 	C 	0.57496 0.13009 0.00126 0.10400
C 	C 	0.61136 0.16707 0.01760 0.06000
H 	H 	0.60070 0.16590 0.00730 0.00000
C 	C 	0.61214 0.18473 0.02925 -0.10000
H 	H 	0.60270 0.19590 0.02660 0.06800
C 	C 	0.62702 0.18645 0.04519 0.00800
H 	H 	0.62780 0.19860 0.05370 0.03800
C 	C 	0.64067 0.16989 0.04822 -0.05200
C 	C 	0.63923 0.15259 0.03496 0.04300
H 	H 	0.64890 0.14140 0.03670 0.01000
C 	C 	0.65696 0.17061 0.06433 0.13400
N 	N 	0.73473 0.11413 0.91093 -0.22600
N 	N 	0.63623 0.97646 0.85431 -0.25800
N 	N 	0.64933 0.01681 0.87273 -0.22600
N 	N 	0.65364 0.06052 0.92030 -0.15300
N 	N 	0.68807 0.06961 0.90990 -0.15100
N 	N 	0.67285 0.08523 0.93970 -0.15500
N 	N 	0.62139 0.10040 0.97466 -0.23000
N 	N 	0.59250 0.12722 0.99874 -0.26200
N 	N 	0.62494 0.15114 0.02001 -0.22700
N 	N 	0.67137 0.15560 0.06397 -0.15100
S 	S 	0.66525 0.95888 0.82689 -0.06100
S 	S 	0.55016 0.13430 0.00491 -0.06200
C 	C 	0.71878 0.60084 0.41105 0.04100
H 	H 	0.71540 0.59400 0.39830 0.01100
C 	C 	0.70684 0.59633 0.42845 -0.05100
C 	C 	0.71194 0.60600 0.44733 0.00900
H 	H 	0.70400 0.60340 0.45960 0.03700
C 	C 	0.72884 0.61944 0.44760 -0.09900
H 	H 	0.73290 0.62610 0.46020 0.06600
C 	C 	0.73985 0.62310 0.42924 0.05900
H 	H 	0.75150 0.63230 0.42960 0.00000
C 	C 	0.64828 0.46879 0.34302 0.09600
C 	C 	0.66482 0.51534 0.35863 0.05600
H 	H 	0.66360 0.50530 0.34770 -0.00100
C 	C 	0.68264 0.52795 0.35944 -0.09800
H 	H 	0.69300 0.52690 0.34890 0.06500
C 	C 	0.68501 0.54177 0.37551 0.00900
H 	H 	0.69720 0.55020 0.37650 0.03700
C 	C 	0.66906 0.54333 0.39057 -0.05000
C 	C 	0.65169 0.53065 0.38826 0.03900
H 	H 	0.64080 0.53180 0.39830 0.01400
C 	C 	0.67038 0.55847 0.40791 0.13400
C 	C 	0.68823 0.58270 0.42619 0.13800
C 	C 	0.65570 0.57422 0.43553 0.14000
C 	C 	0.63725 0.59565 0.46242 0.04400
H 	H 	0.64930 0.60440 0.46280 0.00900
C 	C 	0.63729 0.57836 0.44878 -0.05300
C 	C 	0.61928 0.56601 0.44790 0.00800
H 	H 	0.61850 0.55430 0.43880 0.03800
C 	C 	0.60256 0.57141 0.46063 -0.09700
H 	H 	0.59000 0.56340 0.46030 0.06500
C 	C 	0.60415 0.58842 0.47377 0.05700
H 	H 	0.59260 0.59180 0.48250 0.00200
C 	C 	0.57496 0.63009 0.50126 0.10400
C 	C 	0.61136 0.66707 0.51760 0.06000
H 	H 	0.60070 0.66590 0.50730 0.00000
C 	C 	0.61214 0.68473 0.52925 -0.10000
H 	H 	0.60270 0.69590 0.52660 0.06800
C 	C 	0.62702 0.68645 0.54519 0.00800
H 	H 	0.62780 0.69860 0.55370 0.03800
C 	C 	0.64067 0.66989 0.54822 -0.05200
C 	C 	0.63923 0.65259 0.53496 0.04300
H 	H 	0.64890 0.64140 0.53670 0.01000
C 	C 	0.65696 0.67061 0.56433 0.13400
N 	N 	0.73473 0.61413 0.41093 -0.22600
N 	N 	0.63623 0.47646 0.35431 -0.25800
N 	N 	0.64933 0.51681 0.37273 -0.22600
N 	N 	0.65364 0.56052 0.42030 -0.15300
N 	N 	0.68807 0.56961 0.40990 -0.15100
N 	N 	0.67285 0.58523 0.43970 -0.15500
N 	N 	0.62139 0.60040 0.47466 -0.23000
N 	N 	0.59250 0.62722 0.49874 -0.26200
N 	N 	0.62494 0.65114 0.52001 -0.22700
N 	N 	0.67137 0.65560 0.56397 -0.15100
S 	S 	0.66525 0.45888 0.32689 -0.06100
S 	S 	0.55016 0.63430 0.50491 -0.06200
C 	C 	0.53122 0.60084 0.83895 0.04100
H 	H 	0.53460 0.59400 0.85170 0.01100
C 	C 	0.54316 0.59633 0.82155 -0.05100
C 	C 	0.53806 0.60600 0.80267 0.00900
H 	H 	0.54600 0.60340 0.79040 0.03700
C 	C 	0.52116 0.61944 0.80240 -0.09900
H 	H 	0.51710 0.62610 0.78980 0.06600
C 	C 	0.51015 0.62310 0.82076 0.05900
H 	H 	0.49850 0.63230 0.82040 0.00000
C 	C 	0.60172 0.46879 0.90698 0.09600
C 	C 	0.58518 0.51534 0.89137 0.05600
H 	H 	0.58640 0.50530 0.90230 -0.00100
C 	C 	0.56736 0.52795 0.89056 -0.09800
H 	H 	0.55700 0.52690 0.90110 0.06500
C 	C 	0.56499 0.54177 0.87449 0.00900
H 	H 	0.55280 0.55020 0.87350 0.03700
C 	C 	0.58094 0.54333 0.85943 -0.05000
C 	C 	0.59831 0.53065 0.86174 0.03900
H 	H 	0.60920 0.53180 0.85170 0.01400
C 	C 	0.57962 0.55847 0.84209 0.13400
C 	C 	0.56177 0.58270 0.82381 0.13800
C 	C 	0.59430 0.57422 0.81447 0.14000
C 	C 	0.61275 0.59565 0.78758 0.04400
H 	H 	0.60070 0.60440 0.78720 0.00900
C 	C 	0.61271 0.57836 0.80122 -0.05300
C 	C 	0.63072 0.56601 0.80210 0.00800
H 	H 	0.63150 0.55430 0.81120 0.03800
C 	C 	0.64744 0.57141 0.78937 -0.09700
H 	H 	0.66000 0.56340 0.78970 0.06500
C 	C 	0.64585 0.58842 0.77623 0.05700
H 	H 	0.65740 0.59180 0.76750 0.00200
C 	C 	0.67504 0.63009 0.74874 0.10400
C 	C 	0.63864 0.66707 0.73240 0.06000
H 	H 	0.64930 0.66590 0.74270 0.00000
C 	C 	0.63786 0.68473 0.72075 -0.10000
H 	H 	0.64730 0.69590 0.72340 0.06800
C 	C 	0.62298 0.68645 0.70481 0.00800
H 	H 	0.62220 0.69860 0.69630 0.03800
C 	C 	0.60933 0.66989 0.70178 -0.05200
C 	C 	0.61077 0.65259 0.71504 0.04300
H 	H 	0.60110 0.64140 0.71330 0.01000
C 	C 	0.59304 0.67061 0.68567 0.13400
N 	N 	0.51527 0.61413 0.83907 -0.22600
N 	N 	0.61377 0.47646 0.89569 -0.25800
N 	N 	0.60067 0.51681 0.87727 -0.22600
N 	N 	0.59636 0.56052 0.82970 -0.15300
N 	N 	0.56193 0.56961 0.84010 -0.15100
N 	N 	0.57715 0.58523 0.81030 -0.15500
N 	N 	0.62861 0.60040 0.77534 -0.23000
N 	N 	0.65750 0.62722 0.75126 -0.26200
N 	N 	0.62506 0.65114 0.72999 -0.22700
N 	N 	0.57863 0.65560 0.68603 -0.15100
S 	S 	0.58475 0.45888 0.92311 -0.06100
S 	S 	0.69984 0.63430 0.74509 -0.06200
C 	C 	0.53122 0.10084 0.33895 0.04100
H 	H 	0.53460 0.09400 0.35170 0.01100
C 	C 	0.54316 0.09633 0.32155 -0.05100
C 	C 	0.53806 0.10600 0.30267 0.00900
H 	H 	0.54600 0.10340 0.29040 0.03700
C 	C 	0.52116 0.11944 0.30240 -0.09900
H 	H 	0.51710 0.12610 0.28980 0.06600
C 	C 	0.51015 0.12310 0.32076 0.05900
H 	H 	0.49850 0.13230 0.32040 0.00000
C 	C 	0.60172 0.96879 0.40698 0.09600
C 	C 	0.58518 0.01534 0.39137 0.05600
H 	H 	0.58640 0.00530 0.40230 -0.00100
C 	C 	0.56736 0.02795 0.39056 -0.09800
H 	H 	0.55700 0.02690 0.40110 0.06500
C 	C 	0.56499 0.04177 0.37449 0.00900
H 	H 	0.55280 0.05020 0.37350 0.03700
C 	C 	0.58094 0.04333 0.35943 -0.05000
C 	C 	0.59831 0.03065 0.36174 0.03900
H 	H 	0.60920 0.03180 0.35170 0.01400
C 	C 	0.57962 0.05847 0.34209 0.13400
C 	C 	0.56177 0.08270 0.32381 0.13800
C 	C 	0.59430 0.07422 0.31447 0.14000
C 	C 	0.61275 0.09565 0.28758 0.04400
H 	H 	0.60070 0.10440 0.28720 0.00900
C 	C 	0.61271 0.07836 0.30122 -0.05300
C 	C 	0.63072 0.06601 0.30210 0.00800
H 	H 	0.63150 0.05430 0.31120 0.03800
C 	C 	0.64744 0.07141 0.28937 -0.09700
H 	H 	0.66000 0.06340 0.28970 0.06500
C 	C 	0.64585 0.08842 0.27623 0.05700
H 	H 	0.65740 0.09180 0.26750 0.00200
C 	C 	0.67504 0.13009 0.24874 0.10400
C 	C 	0.63864 0.16707 0.23240 0.06000
H 	H 	0.64930 0.16590 0.24270 0.00000
C 	C 	0.63786 0.18473 0.22075 -0.10000
H 	H 	0.64730 0.19590 0.22340 0.06800
C 	C 	0.62298 0.18645 0.20481 0.00800
H 	H 	0.62220 0.19860 0.19630 0.03800
C 	C 	0.60933 0.16989 0.20178 -0.05200
C 	C 	0.61077 0.15259 0.21504 0.04300
H 	H 	0.60110 0.14140 0.21330 0.01000
C 	C 	0.59304 0.17061 0.18567 0.13400
N 	N 	0.51527 0.11413 0.33907 -0.22600
N 	N 	0.61377 0.97646 0.39569 -0.25800
N 	N 	0.60067 0.01681 0.37727 -0.22600
N 	N 	0.59636 0.06052 0.32970 -0.15300
N 	N 	0.56193 0.06961 0.34010 -0.15100
N 	N 	0.57715 0.08523 0.31030 -0.15500
N 	N 	0.62861 0.10040 0.27534 -0.23000
N 	N 	0.65750 0.12722 0.25126 -0.26200
N 	N 	0.62506 0.15114 0.22999 -0.22700
N 	N 	0.57863 0.15560 0.18603 -0.15100
S 	S 	0.58475 0.95888 0.42311 -0.06100
S 	S 	0.69984 0.13430 0.24509 -0.06200
C 	C 	0.03122 0.60084 0.33895 0.04100
H 	H 	0.03460 0.59400 0.35170 0.01100
C 	C 	0.04316 0.59633 0.32155 -0.05100
C 	C 	0.03806 0.60600 0.30267 0.00800
H 	H 	0.04600 0.60340 0.29040 0.03700
C 	C 	0.02116 0.61944 0.30240 -0.09900
H 	H 	0.01710 0.62610 0.28980 0.06600
C 	C 	0.01015 0.62310 0.32076 0.05900
H 	H 	0.99850 0.63230 0.32040 0.00000
C 	C 	0.10172 0.46879 0.40698 0.09600
C 	C 	0.08518 0.51534 0.39137 0.05600
H 	H 	0.08640 0.50530 0.40230 -0.00100
C 	C 	0.06736 0.52795 0.39056 -0.09800
H 	H 	0.05700 0.52690 0.40110 0.06500
C 	C 	0.06499 0.54177 0.37449 0.00900
H 	H 	0.05280 0.55020 0.37350 0.03700
C 	C 	0.08094 0.54333 0.35943 -0.05000
C 	C 	0.09831 0.53065 0.36174 0.03900
H 	H 	0.10920 0.53180 0.35170 0.01400
C 	C 	0.07962 0.55847 0.34209 0.13400
C 	C 	0.06177 0.58270 0.32381 0.13800
C 	C 	0.09430 0.57422 0.31447 0.14000
C 	C 	0.11275 0.59565 0.28758 0.04400
H 	H 	0.10070 0.60440 0.28720 0.00900
C 	C 	0.11271 0.57836 0.30122 -0.05300
C 	C 	0.13072 0.56601 0.30210 0.00800
H 	H 	0.13150 0.55430 0.31120 0.03800
C 	C 	0.14744 0.57141 0.28937 -0.09700
H 	H 	0.16000 0.56340 0.28970 0.06500
C 	C 	0.14585 0.58842 0.27623 0.05700
H 	H 	0.15740 0.59180 0.26750 0.00200
C 	C 	0.17504 0.63009 0.24874 0.10400
C 	C 	0.13864 0.66707 0.23240 0.06000
H 	H 	0.14930 0.66590 0.24270 0.00000
C 	C 	0.13786 0.68473 0.22075 -0.10000
H 	H 	0.14730 0.69590 0.22340 0.06800
C 	C 	0.12298 0.68645 0.20481 0.00800
H 	H 	0.12220 0.69860 0.19630 0.03800
C 	C 	0.10933 0.66989 0.20178 -0.05200
C 	C 	0.11077 0.65259 0.21504 0.04300
H 	H 	0.10110 0.64140 0.21330 0.01000
C 	C 	0.09304 0.67061 0.18567 0.13400
N 	N 	0.01527 0.61413 0.33907 -0.22500
N 	N 	0.11377 0.47646 0.39569 -0.25800
N 	N 	0.10067 0.51681 0.37727 -0.22600
N 	N 	0.09636 0.56052 0.32970 -0.15300
N 	N 	0.06193 0.56961 0.34010 -0.15100
N 	N 	0.07715 0.58523 0.31030 -0.15500
N 	N 	0.12861 0.60040 0.27534 -0.23000
N 	N 	0.15750 0.62722 0.25126 -0.26200
N 	N 	0.12506 0.65114 0.22999 -0.22700
N 	N 	0.07863 0.65560 0.18603 -0.15100
S 	S 	0.08475 0.45888 0.42311 -0.06100
S 	S 	0.19984 0.63430 0.24509 -0.06200
C 	C 	0.03122 0.10084 0.83895 0.04100
H 	H 	0.03460 0.09400 0.85170 0.01100
C 	C 	0.04316 0.09633 0.82155 -0.05100
C 	C 	0.03806 0.10600 0.80267 0.00800
H 	H 	0.04600 0.10340 0.79040 0.03700
C 	C 	0.02116 0.11944 0.80240 -0.09900
H 	H 	0.01710 0.12610 0.78980 0.06600
C 	C 	0.01015 0.12310 0.82076 0.05900
H 	H 	0.99850 0.13230 0.82040 0.00000
C 	C 	0.10172 0.96879 0.90698 0.09600
C 	C 	0.08518 0.01534 0.89137 0.05600
H 	H 	0.08640 0.00530 0.90230 -0.00100
C 	C 	0.06736 0.02795 0.89056 -0.09800
H 	H 	0.05700 0.02690 0.90110 0.06500
C 	C 	0.06499 0.04177 0.87449 0.00900
H 	H 	0.05280 0.05020 0.87350 0.03700
C 	C 	0.08094 0.04333 0.85943 -0.05000
C 	C 	0.09831 0.03065 0.86174 0.03900
H 	H 	0.10920 0.03180 0.85170 0.01400
C 	C 	0.07962 0.05847 0.84209 0.13400
C 	C 	0.06177 0.08270 0.82381 0.13800
C 	C 	0.09430 0.07422 0.81447 0.14000
C 	C 	0.11275 0.09565 0.78758 0.04400
H 	H 	0.10070 0.10440 0.78720 0.00900
C 	C 	0.11271 0.07836 0.80122 -0.05300
C 	C 	0.13072 0.06601 0.80210 0.00800
H 	H 	0.13150 0.05430 0.81120 0.03800
C 	C 	0.14744 0.07141 0.78937 -0.09700
H 	H 	0.16000 0.06340 0.78970 0.06500
C 	C 	0.14585 0.08842 0.77623 0.05700
H 	H 	0.15740 0.09180 0.76750 0.00200
C 	C 	0.17504 0.13009 0.74874 0.10400
C 	C 	0.13864 0.16707 0.73240 0.06000
H 	H 	0.14930 0.16590 0.74270 0.00000
C 	C 	0.13786 0.18473 0.72075 -0.10000
H 	H 	0.14730 0.19590 0.72340 0.06800
C 	C 	0.12298 0.18645 0.70481 0.00800
H 	H 	0.12220 0.19860 0.69630 0.03800
C 	C 	0.10933 0.16989 0.70178 -0.05200
C 	C 	0.11077 0.15259 0.71504 0.04300
H 	H 	0.10110 0.14140 0.71330 0.01000
C 	C 	0.09304 0.17061 0.68567 0.13400
N 	N 	0.01527 0.11413 0.83907 -0.22500
N 	N 	0.11377 0.97646 0.89569 -0.25800
N 	N 	0.10067 0.01681 0.87727 -0.22600
N 	N 	0.09636 0.06052 0.82970 -0.15300
N 	N 	0.06193 0.06961 0.84010 -0.15100
N 	N 	0.07715 0.08523 0.81030 -0.15500
N 	N 	0.12861 0.10040 0.77534 -0.23000
N 	N 	0.15750 0.12722 0.75126 -0.26200
N 	N 	0.12506 0.15114 0.72999 -0.22700
N 	N 	0.07863 0.15560 0.68603 -0.15100
S 	S 	0.08475 0.95888 0.92311 -0.06100
S 	S 	0.19984 0.13430 0.74509 -0.06200
C 	C 	0.71878 0.14916 0.33895 0.04100
H 	H 	0.71540 0.15600 0.35170 0.01100
C 	C 	0.70684 0.15367 0.32155 -0.05100
C 	C 	0.71194 0.14400 0.30267 0.00900
H 	H 	0.70400 0.14660 0.29040 0.03700
C 	C 	0.72884 0.13056 0.30240 -0.09900
H 	H 	0.73290 0.12390 0.28980 0.06600
C 	C 	0.73985 0.12690 0.32076 0.05900
H 	H 	0.75150 0.11770 0.32040 0.00000
C 	C 	0.64828 0.28121 0.40698 0.09600
C 	C 	0.66482 0.23466 0.39137 0.05600
H 	H 	0.66360 0.24470 0.40230 -0.00100
C 	C 	0.68264 0.22205 0.39056 -0.09800
H 	H 	0.69300 0.22310 0.40110 0.06500
C 	C 	0.68501 0.20823 0.37449 0.00900
H 	H 	0.69720 0.19980 0.37350 0.03700
C 	C 	0.66906 0.20667 0.35943 -0.05000
C 	C 	0.65169 0.21935 0.36174 0.03900
H 	H 	0.64080 0.21820 0.35170 0.01400
C 	C 	0.67038 0.19153 0.34209 0.13400
C 	C 	0.68823 0.16730 0.32381 0.13800
C 	C 	0.65570 0.17578 0.31447 0.14000
C 	C 	0.63725 0.15435 0.28758 0.04400
H 	H 	0.64930 0.14560 0.28720 0.00900
C 	C 	0.63729 0.17164 0.30122 -0.05300
C 	C 	0.61928 0.18399 0.30210 0.00800
H 	H 	0.61850 0.19570 0.31120 0.03800
C 	C 	0.60256 0.17859 0.28937 -0.09700
H 	H 	0.59000 0.18660 0.28970 0.06500
C 	C 	0.60415 0.16158 0.27623 0.05700
H 	H 	0.59260 0.15820 0.26750 0.00200
C 	C 	0.57496 0.11991 0.24874 0.10400
C 	C 	0.61136 0.08293 0.23240 0.06000
H 	H 	0.60070 0.08410 0.24270 0.00000
C 	C 	0.61214 0.06527 0.22075 -0.10000
H 	H 	0.60270 0.05410 0.22340 0.06800
C 	C 	0.62702 0.06355 0.20481 0.00800
H 	H 	0.62780 0.05140 0.19630 0.03800
C 	C 	0.64067 0.08011 0.20178 -0.05200
C 	C 	0.63923 0.09741 0.21504 0.04300
H 	H 	0.64890 0.10860 0.21330 0.01000
C 	C 	0.65696 0.07939 0.18567 0.13400
N 	N 	0.73473 0.13587 0.33907 -0.22600
N 	N 	0.63623 0.27354 0.39569 -0.25800
N 	N 	0.64933 0.23319 0.37727 -0.22600
N 	N 	0.65364 0.18948 0.32970 -0.15300
N 	N 	0.68807 0.18039 0.34010 -0.15100
N 	N 	0.67285 0.16477 0.31030 -0.15500
N 	N 	0.62139 0.14960 0.27534 -0.23000
N 	N 	0.59250 0.12278 0.25126 -0.26200
N 	N 	0.62494 0.09886 0.22999 -0.22700
N 	N 	0.67137 0.09440 0.18603 -0.15100
S 	S 	0.66525 0.29112 0.42311 -0.06100
S 	S 	0.55016 0.11570 0.24509 -0.06200
C 	C 	0.71878 0.64916 0.83895 0.04100
H 	H 	0.71540 0.65600 0.85170 0.01100
C 	C 	0.70684 0.65367 0.82155 -0.05100
C 	C 	0.71194 0.64400 0.80267 0.00900
H 	H 	0.70400 0.64660 0.79040 0.03700
C 	C 	0.72884 0.63056 0.80240 -0.09900
H 	H 	0.73290 0.62390 0.78980 0.06600
C 	C 	0.73985 0.62690 0.82076 0.05900
H 	H 	0.75150 0.61770 0.82040 0.00000
C 	C 	0.64828 0.78121 0.90698 0.09600
C 	C 	0.66482 0.73466 0.89137 0.05600
H 	H 	0.66360 0.74470 0.90230 -0.00100
C 	C 	0.68264 0.72205 0.89056 -0.09800
H 	H 	0.69300 0.72310 0.90110 0.06500
C 	C 	0.68501 0.70823 0.87449 0.00900
H 	H 	0.69720 0.69980 0.87350 0.03700
C 	C 	0.66906 0.70667 0.85943 -0.05000
C 	C 	0.65169 0.71935 0.86174 0.03900
H 	H 	0.64080 0.71820 0.85170 0.01400
C 	C 	0.67038 0.69153 0.84209 0.13400
C 	C 	0.68823 0.66730 0.82381 0.13800
C 	C 	0.65570 0.67578 0.81447 0.14000
C 	C 	0.63725 0.65435 0.78758 0.04400
H 	H 	0.64930 0.64560 0.78720 0.00900
C 	C 	0.63729 0.67164 0.80122 -0.05300
C 	C 	0.61928 0.68399 0.80210 0.00800
H 	H 	0.61850 0.69570 0.81120 0.03800
C 	C 	0.60256 0.67859 0.78937 -0.09700
H 	H 	0.59000 0.68660 0.78970 0.06500
C 	C 	0.60415 0.66158 0.77623 0.05700
H 	H 	0.59260 0.65820 0.76750 0.00200
C 	C 	0.57496 0.61991 0.74874 0.10400
C 	C 	0.61136 0.58293 0.73240 0.06000
H 	H 	0.60070 0.58410 0.74270 0.00000
C 	C 	0.61214 0.56527 0.72075 -0.10000
H 	H 	0.60270 0.55410 0.72340 0.06800
C 	C 	0.62702 0.56355 0.70481 0.00800
H 	H 	0.62780 0.55140 0.69630 0.03800
C 	C 	0.64067 0.58011 0.70178 -0.05200
C 	C 	0.63923 0.59741 0.71504 0.04300
H 	H 	0.64890 0.60860 0.71330 0.01000
C 	C 	0.65696 0.57939 0.68567 0.13400
N 	N 	0.73473 0.63587 0.83907 -0.22600
N 	N 	0.63623 0.77354 0.89569 -0.25800
N 	N 	0.64933 0.73319 0.87727 -0.22600
N 	N 	0.65364 0.68948 0.82970 -0.15300
N 	N 	0.68807 0.68039 0.84010 -0.15100
N 	N 	0.67285 0.66477 0.81030 -0.15500
N 	N 	0.62139 0.64960 0.77534 -0.23000
N 	N 	0.59250 0.62278 0.75126 -0.26200
N 	N 	0.62494 0.59886 0.72999 -0.22700
N 	N 	0.67137 0.59440 0.68603 -0.15100
S 	S 	0.66525 0.79112 0.92311 -0.06100
S 	S 	0.55016 0.61570 0.74509 -0.06200
C 	C 	0.21878 0.14916 0.83895 0.04100
H 	H 	0.21540 0.15600 0.85170 0.01100
C 	C 	0.20684 0.15367 0.82155 -0.05100
C 	C 	0.21194 0.14400 0.80267 0.00900
H 	H 	0.20400 0.14660 0.79040 0.03700
C 	C 	0.22884 0.13056 0.80240 -0.09900
H 	H 	0.23290 0.12390 0.78980 0.06600
C 	C 	0.23985 0.12690 0.82076 0.05900
H 	H 	0.25150 0.11770 0.82040 0.00000
C 	C 	0.14828 0.28121 0.90698 0.09600
C 	C 	0.16482 0.23466 0.89137 0.05600
H 	H 	0.16360 0.24470 0.90230 -0.00100
C 	C 	0.18264 0.22205 0.89056 -0.09800
H 	H 	0.19300 0.22310 0.90110 0.06500
C 	C 	0.18501 0.20823 0.87449 0.00900
H 	H 	0.19720 0.19980 0.87350 0.03700
C 	C 	0.16906 0.20667 0.85943 -0.05000
C 	C 	0.15169 0.21935 0.86174 0.03900
H 	H 	0.14080 0.21820 0.85170 0.01400
C 	C 	0.17038 0.19153 0.84209 0.13400
C 	C 	0.18823 0.16730 0.82381 0.13800
C 	C 	0.15570 0.17578 0.81447 0.14000
C 	C 	0.13725 0.15435 0.78758 0.04400
H 	H 	0.14930 0.14560 0.78720 0.00900
C 	C 	0.13729 0.17164 0.80122 -0.05300
C 	C 	0.11928 0.18399 0.80210 0.00800
H 	H 	0.11850 0.19570 0.81120 0.03800
C 	C 	0.10256 0.17859 0.78937 -0.09700
H 	H 	0.09000 0.18660 0.78970 0.06500
C 	C 	0.10415 0.16158 0.77623 0.05700
H 	H 	0.09260 0.15820 0.76750 0.00200
C 	C 	0.07496 0.11991 0.74874 0.10400
C 	C 	0.11136 0.08293 0.73240 0.06000
H 	H 	0.10070 0.08410 0.74270 0.00000
C 	C 	0.11214 0.06527 0.72075 -0.10000
H 	H 	0.10270 0.05410 0.72340 0.06800
C 	C 	0.12702 0.06355 0.70481 0.00800
H 	H 	0.12780 0.05140 0.69630 0.03800
C 	C 	0.14067 0.08011 0.70178 -0.05200
C 	C 	0.13923 0.09741 0.71504 0.04300
H 	H 	0.14890 0.10860 0.71330 0.01000
C 	C 	0.15696 0.07939 0.68567 0.13400
N 	N 	0.23473 0.13587 0.83907 -0.22600
N 	N 	0.13623 0.27354 0.89569 -0.25800
N 	N 	0.14933 0.23319 0.87727 -0.22600
N 	N 	0.15364 0.18948 0.82970 -0.15300
N 	N 	0.18807 0.18039 0.84010 -0.15100
N 	N 	0.17285 0.16477 0.81030 -0.15500
N 	N 	0.12139 0.14960 0.77534 -0.23000
N 	N 	0.09250 0.12278 0.75126 -0.26200
N 	N 	0.12494 0.09886 0.72999 -0.22700
N 	N 	0.17137 0.09440 0.68603 -0.15100
S 	S 	0.16525 0.29112 0.92311 -0.06100
S 	S 	0.05016 0.11570 0.74509 -0.06200
C 	C 	0.21878 0.64916 0.33895 0.04100
H 	H 	0.21540 0.65600 0.35170 0.01100
C 	C 	0.20684 0.65367 0.32155 -0.05100
C 	C 	0.21194 0.64400 0.30267 0.00900
H 	H 	0.20400 0.64660 0.29040 0.03700
C 	C 	0.22884 0.63056 0.30240 -0.09900
H 	H 	0.23290 0.62390 0.28980 0.06600
C 	C 	0.23985 0.62690 0.32076 0.05900
H 	H 	0.25150 0.61770 0.32040 0.00000
C 	C 	0.14828 0.78121 0.40698 0.09600
C 	C 	0.16482 0.73466 0.39137 0.05600
H 	H 	0.16360 0.74470 0.40230 -0.00100
C 	C 	0.18264 0.72205 0.39056 -0.09800
H 	H 	0.19300 0.72310 0.40110 0.06500
C 	C 	0.18501 0.70823 0.37449 0.00900
H 	H 	0.19720 0.69980 0.37350 0.03700
C 	C 	0.16906 0.70667 0.35943 -0.05000
C 	C 	0.15169 0.71935 0.36174 0.03900
H 	H 	0.14080 0.71820 0.35170 0.01400
C 	C 	0.17038 0.69153 0.34209 0.13400
C 	C 	0.18823 0.66730 0.32381 0.13800
C 	C 	0.15570 0.67578 0.31447 0.14000
C 	C 	0.13725 0.65435 0.28758 0.04400
H 	H 	0.14930 0.64560 0.28720 0.00900
C 	C 	0.13729 0.67164 0.30122 -0.05300
C 	C 	0.11928 0.68399 0.30210 0.00800
H 	H 	0.11850 0.69570 0.31120 0.03800
C 	C 	0.10256 0.67859 0.28937 -0.09700
H 	H 	0.09000 0.68660 0.28970 0.06500
C 	C 	0.10415 0.66158 0.27623 0.05700
H 	H 	0.09260 0.65820 0.26750 0.00200
C 	C 	0.07496 0.61991 0.24874 0.10400
C 	C 	0.11136 0.58293 0.23240 0.06000
H 	H 	0.10070 0.58410 0.24270 0.00000
C 	C 	0.11214 0.56527 0.22075 -0.10000
H 	H 	0.10270 0.55410 0.22340 0.06800
C 	C 	0.12702 0.56355 0.20481 0.00800
H 	H 	0.12780 0.55140 0.19630 0.03800
C 	C 	0.14067 0.58011 0.20178 -0.05200
C 	C 	0.13923 0.59741 0.21504 0.04300
H 	H 	0.14890 0.60860 0.21330 0.01000
C 	C 	0.15696 0.57939 0.18567 0.13400
N 	N 	0.23473 0.63587 0.33907 -0.22600
N 	N 	0.13623 0.77354 0.39569 -0.25800
N 	N 	0.14933 0.73319 0.37727 -0.22600
N 	N 	0.15364 0.68948 0.32970 -0.15300
N 	N 	0.18807 0.68039 0.34010 -0.15100
N 	N 	0.17285 0.66477 0.31030 -0.15500
N 	N 	0.12139 0.64960 0.27534 -0.23000
N 	N 	0.09250 0.62278 0.25126 -0.26200
N 	N 	0.12494 0.59886 0.22999 -0.22700
N 	N 	0.17137 0.59440 0.18603 -0.15100
S 	S 	0.16525 0.79112 0.42311 -0.06100
S 	S 	0.05016 0.61570 0.24509 -0.06200
C 	C 	0.03122 0.64916 0.91105 0.04100
H 	H 	0.03460 0.65600 0.89830 0.01100
C 	C 	0.04316 0.65367 0.92845 -0.05100
C 	C 	0.03806 0.64400 0.94733 0.00800
H 	H 	0.04600 0.64660 0.95960 0.03700
C 	C 	0.02116 0.63056 0.94760 -0.09900
H 	H 	0.01710 0.62390 0.96020 0.06600
C 	C 	0.01015 0.62690 0.92924 0.05900
H 	H 	0.99850 0.61770 0.92960 0.00000
C 	C 	0.10172 0.78121 0.84302 0.09600
C 	C 	0.08518 0.73466 0.85863 0.05600
H 	H 	0.08640 0.74470 0.84770 -0.00100
C 	C 	0.06736 0.72205 0.85944 -0.09800
H 	H 	0.05700 0.72310 0.84890 0.06500
C 	C 	0.06499 0.70823 0.87551 0.00900
H 	H 	0.05280 0.69980 0.87650 0.03700
C 	C 	0.08094 0.70667 0.89057 -0.05000
C 	C 	0.09831 0.71935 0.88826 0.03900
H 	H 	0.10920 0.71820 0.89830 0.01400
C 	C 	0.07962 0.69153 0.90791 0.13400
C 	C 	0.06177 0.66730 0.92619 0.13800
C 	C 	0.09430 0.67578 0.93553 0.14000
C 	C 	0.11275 0.65435 0.96242 0.04400
H 	H 	0.10070 0.64560 0.96280 0.00900
C 	C 	0.11271 0.67164 0.94878 -0.05300
C 	C 	0.13072 0.68399 0.94790 0.00800
H 	H 	0.13150 0.69570 0.93880 0.03800
C 	C 	0.14744 0.67859 0.96063 -0.09700
H 	H 	0.16000 0.68660 0.96030 0.06500
C 	C 	0.14585 0.66158 0.97377 0.05700
H 	H 	0.15740 0.65820 0.98250 0.00200
C 	C 	0.17504 0.61991 0.00126 0.10400
C 	C 	0.13864 0.58293 0.01760 0.06000
H 	H 	0.14930 0.58410 0.00730 0.00000
C 	C 	0.13786 0.56527 0.02925 -0.10000
H 	H 	0.14730 0.55410 0.02660 0.06800
C 	C 	0.12298 0.56355 0.04519 0.00800
H 	H 	0.12220 0.55140 0.05370 0.03800
C 	C 	0.10933 0.58011 0.04822 -0.05200
C 	C 	0.11077 0.59741 0.03496 0.04300
H 	H 	0.10110 0.60860 0.03670 0.01000
C 	C 	0.09304 0.57939 0.06433 0.13400
N 	N 	0.01527 0.63587 0.91093 -0.22500
N 	N 	0.11377 0.77354 0.85431 -0.25800
N 	N 	0.10067 0.73319 0.87273 -0.22600
N 	N 	0.09636 0.68948 0.92030 -0.15300
N 	N 	0.06193 0.68039 0.90990 -0.15100
N 	N 	0.07715 0.66477 0.93970 -0.15500
N 	N 	0.12861 0.64960 0.97466 -0.23000
N 	N 	0.15750 0.62278 0.99874 -0.26200
N 	N 	0.12506 0.59886 0.02001 -0.22700
N 	N 	0.07863 0.59440 0.06397 -0.15100
S 	S 	0.08475 0.79112 0.82689 -0.06100
S 	S 	0.19984 0.61570 0.00491 -0.06200
C 	C 	0.03122 0.14916 0.41105 0.04100
H 	H 	0.03460 0.15600 0.39830 0.01100
C 	C 	0.04316 0.15367 0.42845 -0.05100
C 	C 	0.03806 0.14400 0.44733 0.00800
H 	H 	0.04600 0.14660 0.45960 0.03700
C 	C 	0.02116 0.13056 0.44760 -0.09900
H 	H 	0.01710 0.12390 0.46020 0.06600
C 	C 	0.01015 0.12690 0.42924 0.05900
H 	H 	0.99850 0.11770 0.42960 0.00000
C 	C 	0.10172 0.28121 0.34302 0.09600
C 	C 	0.08518 0.23466 0.35863 0.05600
H 	H 	0.08640 0.24470 0.34770 -0.00100
C 	C 	0.06736 0.22205 0.35944 -0.09800
H 	H 	0.05700 0.22310 0.34890 0.06500
C 	C 	0.06499 0.20823 0.37551 0.00900
H 	H 	0.05280 0.19980 0.37650 0.03700
C 	C 	0.08094 0.20667 0.39057 -0.05000
C 	C 	0.09831 0.21935 0.38826 0.03900
H 	H 	0.10920 0.21820 0.39830 0.01400
C 	C 	0.07962 0.19153 0.40791 0.13400
C 	C 	0.06177 0.16730 0.42619 0.13800
C 	C 	0.09430 0.17578 0.43553 0.14000
C 	C 	0.11275 0.15435 0.46242 0.04400
H 	H 	0.10070 0.14560 0.46280 0.00900
C 	C 	0.11271 0.17164 0.44878 -0.05300
C 	C 	0.13072 0.18399 0.44790 0.00800
H 	H 	0.13150 0.19570 0.43880 0.03800
C 	C 	0.14744 0.17859 0.46063 -0.09700
H 	H 	0.16000 0.18660 0.46030 0.06500
C 	C 	0.14585 0.16158 0.47377 0.05700
H 	H 	0.15740 0.15820 0.48250 0.00200
C 	C 	0.17504 0.11991 0.50126 0.10400
C 	C 	0.13864 0.08293 0.51760 0.06000
H 	H 	0.14930 0.08410 0.50730 0.00000
C 	C 	0.13786 0.06527 0.52925 -0.10000
H 	H 	0.14730 0.05410 0.52660 0.06800
C 	C 	0.12298 0.06355 0.54519 0.00800
H 	H 	0.12220 0.05140 0.55370 0.03800
C 	C 	0.10933 0.08011 0.54822 -0.05200
C 	C 	0.11077 0.09741 0.53496 0.04300
H 	H 	0.10110 0.10860 0.53670 0.01000
C 	C 	0.09304 0.07939 0.56433 0.13400
N 	N 	0.01527 0.13587 0.41093 -0.22500
N 	N 	0.11377 0.27354 0.35431 -0.25800
N 	N 	0.10067 0.23319 0.37273 -0.22600
N 	N 	0.09636 0.18948 0.42030 -0.15300
N 	N 	0.06193 0.18039 0.40990 -0.15100
N 	N 	0.07715 0.16477 0.43970 -0.15500
N 	N 	0.12861 0.14960 0.47466 -0.23000
N 	N 	0.15750 0.12278 0.49874 -0.26200
N 	N 	0.12506 0.09886 0.52001 -0.22700
N 	N 	0.07863 0.09440 0.56397 -0.15100
S 	S 	0.08475 0.29112 0.32689 -0.06100
S 	S 	0.19984 0.11570 0.50491 -0.06200
C 	C 	0.53122 0.64916 0.41105 0.04100
H 	H 	0.53460 0.65600 0.39830 0.01100
C 	C 	0.54316 0.65367 0.42845 -0.05100
C 	C 	0.53806 0.64400 0.44733 0.00900
H 	H 	0.54600 0.64660 0.45960 0.03700
C 	C 	0.52116 0.63056 0.44760 -0.09900
H 	H 	0.51710 0.62390 0.46020 0.06600
C 	C 	0.51015 0.62690 0.42924 0.05900
H 	H 	0.49850 0.61770 0.42960 0.00000
C 	C 	0.60172 0.78121 0.34302 0.09600
C 	C 	0.58518 0.73466 0.35863 0.05600
H 	H 	0.58640 0.74470 0.34770 -0.00100
C 	C 	0.56736 0.72205 0.35944 -0.09800
H 	H 	0.55700 0.72310 0.34890 0.06500
C 	C 	0.56499 0.70823 0.37551 0.00900
H 	H 	0.55280 0.69980 0.37650 0.03700
C 	C 	0.58094 0.70667 0.39057 -0.05000
C 	C 	0.59831 0.71935 0.38826 0.03900
H 	H 	0.60920 0.71820 0.39830 0.01400
C 	C 	0.57962 0.69153 0.40791 0.13400
C 	C 	0.56177 0.66730 0.42619 0.13800
C 	C 	0.59430 0.67578 0.43553 0.14000
C 	C 	0.61275 0.65435 0.46242 0.04400
H 	H 	0.60070 0.64560 0.46280 0.00900
C 	C 	0.61271 0.67164 0.44878 -0.05300
C 	C 	0.63072 0.68399 0.44790 0.00800
H 	H 	0.63150 0.69570 0.43880 0.03800
C 	C 	0.64744 0.67859 0.46063 -0.09700
H 	H 	0.66000 0.68660 0.46030 0.06500
C 	C 	0.64585 0.66158 0.47377 0.05700
H 	H 	0.65740 0.65820 0.48250 0.00200
C 	C 	0.67504 0.61991 0.50126 0.10400
C 	C 	0.63864 0.58293 0.51760 0.06000
H 	H 	0.64930 0.58410 0.50730 0.00000
C 	C 	0.63786 0.56527 0.52925 -0.10000
H 	H 	0.64730 0.55410 0.52660 0.06800
C 	C 	0.62298 0.56355 0.54519 0.00800
H 	H 	0.62220 0.55140 0.55370 0.03800
C 	C 	0.60933 0.58011 0.54822 -0.05200
C 	C 	0.61077 0.59741 0.53496 0.04300
H 	H 	0.60110 0.60860 0.53670 0.01000
C 	C 	0.59304 0.57939 0.56433 0.13400
N 	N 	0.51527 0.63587 0.41093 -0.22600
N 	N 	0.61377 0.77354 0.35431 -0.25800
N 	N 	0.60067 0.73319 0.37273 -0.22600
N 	N 	0.59636 0.68948 0.42030 -0.15300
N 	N 	0.56193 0.68039 0.40990 -0.15100
N 	N 	0.57715 0.66477 0.43970 -0.15500
N 	N 	0.62861 0.64960 0.47466 -0.23000
N 	N 	0.65750 0.62278 0.49874 -0.26200
N 	N 	0.62506 0.59886 0.52001 -0.22700
N 	N 	0.57863 0.59440 0.56397 -0.15100
S 	S 	0.58475 0.79112 0.32689 -0.06100
S 	S 	0.69984 0.61570 0.50491 -0.06200
C 	C 	0.53122 0.14916 0.91105 0.04100
H 	H 	0.53460 0.15600 0.89830 0.01100
C 	C 	0.54316 0.15367 0.92845 -0.05100
C 	C 	0.53806 0.14400 0.94733 0.00900
H 	H 	0.54600 0.14660 0.95960 0.03700
C 	C 	0.52116 0.13056 0.94760 -0.09900
H 	H 	0.51710 0.12390 0.96020 0.06600
C 	C 	0.51015 0.12690 0.92924 0.05900
H 	H 	0.49850 0.11770 0.92960 0.00000
C 	C 	0.60172 0.28121 0.84302 0.09600
C 	C 	0.58518 0.23466 0.85863 0.05600
H 	H 	0.58640 0.24470 0.84770 -0.00100
C 	C 	0.56736 0.22205 0.85944 -0.09800
H 	H 	0.55700 0.22310 0.84890 0.06500
C 	C 	0.56499 0.20823 0.87551 0.00900
H 	H 	0.55280 0.19980 0.87650 0.03700
C 	C 	0.58094 0.20667 0.89057 -0.05000
C 	C 	0.59831 0.21935 0.88826 0.03900
H 	H 	0.60920 0.21820 0.89830 0.01400
C 	C 	0.57962 0.19153 0.90791 0.13400
C 	C 	0.56177 0.16730 0.92619 0.13800
C 	C 	0.59430 0.17578 0.93553 0.14000
C 	C 	0.61275 0.15435 0.96242 0.04400
H 	H 	0.60070 0.14560 0.96280 0.00900
C 	C 	0.61271 0.17164 0.94878 -0.05300
C 	C 	0.63072 0.18399 0.94790 0.00800
H 	H 	0.63150 0.19570 0.93880 0.03800
C 	C 	0.64744 0.17859 0.96063 -0.09700
H 	H 	0.66000 0.18660 0.96030 0.06500
C 	C 	0.64585 0.16158 0.97377 0.05700
H 	H 	0.65740 0.15820 0.98250 0.00200
C 	C 	0.67504 0.11991 0.00126 0.10400
C 	C 	0.63864 0.08293 0.01760 0.06000
H 	H 	0.64930 0.08410 0.00730 0.00000
C 	C 	0.63786 0.06527 0.02925 -0.10000
H 	H 	0.64730 0.05410 0.02660 0.06800
C 	C 	0.62298 0.06355 0.04519 0.00800
H 	H 	0.62220 0.05140 0.05370 0.03800
C 	C 	0.60933 0.08011 0.04822 -0.05200
C 	C 	0.61077 0.09741 0.03496 0.04300
H 	H 	0.60110 0.10860 0.03670 0.01000
C 	C 	0.59304 0.07939 0.06433 0.13400
N 	N 	0.51527 0.13587 0.91093 -0.22600
N 	N 	0.61377 0.27354 0.85431 -0.25800
N 	N 	0.60067 0.23319 0.87273 -0.22600
N 	N 	0.59636 0.18948 0.92030 -0.15300
N 	N 	0.56193 0.18039 0.90990 -0.15100
N 	N 	0.57715 0.16477 0.93970 -0.15500
N 	N 	0.62861 0.14960 0.97466 -0.23000
N 	N 	0.65750 0.12278 0.99874 -0.26200
N 	N 	0.62506 0.09886 0.02001 -0.22700
N 	N 	0.57863 0.09440 0.06397 -0.15100
S 	S 	0.58475 0.29112 0.82689 -0.06100
S 	S 	0.69984 0.11570 0.00491 -0.06200
C 	C 	0.96878 0.66105 0.89916 0.04100
H 	H 	0.96540 0.64830 0.90600 0.01100
C 	C 	0.95684 0.67845 0.90367 -0.05100
C 	C 	0.96194 0.69733 0.89400 0.00900
H 	H 	0.95400 0.70960 0.89660 0.03700
C 	C 	0.97884 0.69760 0.88056 -0.09900
H 	H 	0.98290 0.71020 0.87390 0.06600
C 	C 	0.98985 0.67924 0.87690 0.05900
H 	H 	0.00150 0.67960 0.86770 0.00000
C 	C 	0.89828 0.59302 0.03121 0.09600
C 	C 	0.91482 0.60863 0.98466 0.05600
H 	H 	0.91360 0.59770 0.99470 -0.00100
C 	C 	0.93264 0.60944 0.97205 -0.09800
H 	H 	0.94300 0.59890 0.97310 0.06500
C 	C 	0.93501 0.62551 0.95823 0.00900
H 	H 	0.94720 0.62650 0.94980 0.03700
C 	C 	0.91906 0.64057 0.95667 -0.05000
C 	C 	0.90169 0.63826 0.96935 0.03900
H 	H 	0.89080 0.64830 0.96820 0.01400
C 	C 	0.92038 0.65791 0.94153 0.13400
C 	C 	0.93823 0.67619 0.91730 0.13800
C 	C 	0.90570 0.68553 0.92578 0.14000
C 	C 	0.88725 0.71242 0.90435 0.04400
H 	H 	0.89930 0.71280 0.89560 0.00900
C 	C 	0.88729 0.69878 0.92164 -0.05300
C 	C 	0.86928 0.69790 0.93399 0.00800
H 	H 	0.86850 0.68880 0.94570 0.03800
C 	C 	0.85256 0.71063 0.92859 -0.09700
H 	H 	0.84000 0.71030 0.93660 0.06500
C 	C 	0.85415 0.72377 0.91158 0.05700
H 	H 	0.84260 0.73250 0.90820 0.00200
C 	C 	0.82496 0.75126 0.86991 0.10400
C 	C 	0.86136 0.76760 0.83293 0.06000
H 	H 	0.85070 0.75730 0.83410 0.00000
C 	C 	0.86214 0.77925 0.81527 -0.10000
H 	H 	0.85270 0.77660 0.80410 0.06800
C 	C 	0.87702 0.79519 0.81355 0.00800
H 	H 	0.87780 0.80370 0.80140 0.03800
C 	C 	0.89067 0.79822 0.83011 -0.05200
C 	C 	0.88923 0.78496 0.84741 0.04300
H 	H 	0.89890 0.78670 0.85860 0.01000
C 	C 	0.90696 0.81433 0.82939 0.13400
N 	N 	0.98473 0.66093 0.88587 -0.22600
N 	N 	0.88623 0.60431 0.02354 -0.25800
N 	N 	0.89933 0.62273 0.98319 -0.22600
N 	N 	0.90364 0.67030 0.93948 -0.15300
N 	N 	0.93807 0.65990 0.93039 -0.15100
N 	N 	0.92285 0.68970 0.91477 -0.15500
N 	N 	0.87139 0.72466 0.89960 -0.23000
N 	N 	0.84250 0.74874 0.87278 -0.26200
N 	N 	0.87494 0.77001 0.84886 -0.22700
N 	N 	0.92137 0.81397 0.84440 -0.15100
S 	S 	0.91525 0.57689 0.04112 -0.06100
S 	S 	0.80016 0.75491 0.86570 -0.06200
C 	C 	0.96878 0.16105 0.39916 0.04100
H 	H 	0.96540 0.14830 0.40600 0.01100
C 	C 	0.95684 0.17845 0.40367 -0.05100
C 	C 	0.96194 0.19733 0.39400 0.00900
H 	H 	0.95400 0.20960 0.39660 0.03700
C 	C 	0.97884 0.19760 0.38056 -0.09900
H 	H 	0.98290 0.21020 0.37390 0.06600
C 	C 	0.98985 0.17924 0.37690 0.05900
H 	H 	0.00150 0.17960 0.36770 0.00000
C 	C 	0.89828 0.09302 0.53121 0.09600
C 	C 	0.91482 0.10863 0.48466 0.05600
H 	H 	0.91360 0.09770 0.49470 -0.00100
C 	C 	0.93264 0.10944 0.47205 -0.09800
H 	H 	0.94300 0.09890 0.47310 0.06500
C 	C 	0.93501 0.12551 0.45823 0.00900
H 	H 	0.94720 0.12650 0.44980 0.03700
C 	C 	0.91906 0.14057 0.45667 -0.05000
C 	C 	0.90169 0.13826 0.46935 0.03900
H 	H 	0.89080 0.14830 0.46820 0.01400
C 	C 	0.92038 0.15791 0.44153 0.13400
C 	C 	0.93823 0.17619 0.41730 0.13800
C 	C 	0.90570 0.18553 0.42578 0.14000
C 	C 	0.88725 0.21242 0.40435 0.04400
H 	H 	0.89930 0.21280 0.39560 0.00900
C 	C 	0.88729 0.19878 0.42164 -0.05300
C 	C 	0.86928 0.19790 0.43399 0.00800
H 	H 	0.86850 0.18880 0.44570 0.03800
C 	C 	0.85256 0.21063 0.42859 -0.09700
H 	H 	0.84000 0.21030 0.43660 0.06500
C 	C 	0.85415 0.22377 0.41158 0.05700
H 	H 	0.84260 0.23250 0.40820 0.00200
C 	C 	0.82496 0.25126 0.36991 0.10400
C 	C 	0.86136 0.26760 0.33293 0.06000
H 	H 	0.85070 0.25730 0.33410 0.00000
C 	C 	0.86214 0.27925 0.31527 -0.10000
H 	H 	0.85270 0.27660 0.30410 0.06800
C 	C 	0.87702 0.29519 0.31355 0.00800
H 	H 	0.87780 0.30370 0.30140 0.03800
C 	C 	0.89067 0.29822 0.33011 -0.05200
C 	C 	0.88923 0.28496 0.34741 0.04300
H 	H 	0.89890 0.28670 0.35860 0.01000
C 	C 	0.90696 0.31433 0.32939 0.13400
N 	N 	0.98473 0.16093 0.38587 -0.22600
N 	N 	0.88623 0.10431 0.52354 -0.25800
N 	N 	0.89933 0.12273 0.48319 -0.22600
N 	N 	0.90364 0.17030 0.43948 -0.15300
N 	N 	0.93807 0.15990 0.43039 -0.15100
N 	N 	0.92285 0.18970 0.41477 -0.15500
N 	N 	0.87139 0.22466 0.39960 -0.23000
N 	N 	0.84250 0.24874 0.37278 -0.26200
N 	N 	0.87494 0.27001 0.34886 -0.22700
N 	N 	0.92137 0.31397 0.34440 -0.15100
S 	S 	0.91525 0.07689 0.54112 -0.06100
S 	S 	0.80016 0.25491 0.36570 -0.06200
C 	C 	0.46878 0.66105 0.39916 0.04100
H 	H 	0.46540 0.64830 0.40600 0.01100
C 	C 	0.45684 0.67845 0.40367 -0.05100
C 	C 	0.46194 0.69733 0.39400 0.00900
H 	H 	0.45400 0.70960 0.39660 0.03700
C 	C 	0.47884 0.69760 0.38056 -0.09900
H 	H 	0.48290 0.71020 0.37390 0.06600
C 	C 	0.48985 0.67924 0.37690 0.05900
H 	H 	0.50150 0.67960 0.36770 0.00000
C 	C 	0.39828 0.59302 0.53121 0.09600
C 	C 	0.41482 0.60863 0.48466 0.05600
H 	H 	0.41360 0.59770 0.49470 -0.00100
C 	C 	0.43264 0.60944 0.47205 -0.09800
H 	H 	0.44300 0.59890 0.47310 0.06500
C 	C 	0.43501 0.62551 0.45823 0.00900
H 	H 	0.44720 0.62650 0.44980 0.03700
C 	C 	0.41906 0.64057 0.45667 -0.05000
C 	C 	0.40169 0.63826 0.46935 0.03900
H 	H 	0.39080 0.64830 0.46820 0.01400
C 	C 	0.42038 0.65791 0.44153 0.13400
C 	C 	0.43823 0.67619 0.41730 0.13800
C 	C 	0.40570 0.68553 0.42578 0.14000
C 	C 	0.38725 0.71242 0.40435 0.04400
H 	H 	0.39930 0.71280 0.39560 0.00900
C 	C 	0.38729 0.69878 0.42164 -0.05300
C 	C 	0.36928 0.69790 0.43399 0.00800
H 	H 	0.36850 0.68880 0.44570 0.03800
C 	C 	0.35256 0.71063 0.42859 -0.09700
H 	H 	0.34000 0.71030 0.43660 0.06500
C 	C 	0.35415 0.72377 0.41158 0.05700
H 	H 	0.34260 0.73250 0.40820 0.00200
C 	C 	0.32496 0.75126 0.36991 0.10400
C 	C 	0.36136 0.76760 0.33293 0.06000
H 	H 	0.35070 0.75730 0.33410 0.00000
C 	C 	0.36214 0.77925 0.31527 -0.10000
H 	H 	0.35270 0.77660 0.30410 0.06800
C 	C 	0.37702 0.79519 0.31355 0.00800
H 	H 	0.37780 0.80370 0.30140 0.03800
C 	C 	0.39067 0.79822 0.33011 -0.05200
C 	C 	0.38923 0.78496 0.34741 0.04300
H 	H 	0.39890 0.78670 0.35860 0.01000
C 	C 	0.40696 0.81433 0.32939 0.13400
N 	N 	0.48473 0.66093 0.38587 -0.22600
N 	N 	0.38623 0.60431 0.52354 -0.25800
N 	N 	0.39933 0.62273 0.48319 -0.22600
N 	N 	0.40364 0.67030 0.43948 -0.15300
N 	N 	0.43807 0.65990 0.43039 -0.15100
N 	N 	0.42285 0.68970 0.41477 -0.15500
N 	N 	0.37139 0.72466 0.39960 -0.23000
N 	N 	0.34250 0.74874 0.37278 -0.26200
N 	N 	0.37494 0.77001 0.34886 -0.22700
N 	N 	0.42137 0.81397 0.34440 -0.15100
S 	S 	0.41525 0.57689 0.54112 -0.06100
S 	S 	0.30016 0.75491 0.36570 -0.06200
C 	C 	0.46878 0.16105 0.89916 0.04100
H 	H 	0.46540 0.14830 0.90600 0.01100
C 	C 	0.45684 0.17845 0.90367 -0.05100
C 	C 	0.46194 0.19733 0.89400 0.00900
H 	H 	0.45400 0.20960 0.89660 0.03700
C 	C 	0.47884 0.19760 0.88056 -0.09900
H 	H 	0.48290 0.21020 0.87390 0.06600
C 	C 	0.48985 0.17924 0.87690 0.05900
H 	H 	0.50150 0.17960 0.86770 0.00000
C 	C 	0.39828 0.09302 0.03121 0.09600
C 	C 	0.41482 0.10863 0.98466 0.05600
H 	H 	0.41360 0.09770 0.99470 -0.00100
C 	C 	0.43264 0.10944 0.97205 -0.09800
H 	H 	0.44300 0.09890 0.97310 0.06500
C 	C 	0.43501 0.12551 0.95823 0.00900
H 	H 	0.44720 0.12650 0.94980 0.03700
C 	C 	0.41906 0.14057 0.95667 -0.05000
C 	C 	0.40169 0.13826 0.96935 0.03900
H 	H 	0.39080 0.14830 0.96820 0.01400
C 	C 	0.42038 0.15791 0.94153 0.13400
C 	C 	0.43823 0.17619 0.91730 0.13800
C 	C 	0.40570 0.18553 0.92578 0.14000
C 	C 	0.38725 0.21242 0.90435 0.04400
H 	H 	0.39930 0.21280 0.89560 0.00900
C 	C 	0.38729 0.19878 0.92164 -0.05300
C 	C 	0.36928 0.19790 0.93399 0.00800
H 	H 	0.36850 0.18880 0.94570 0.03800
C 	C 	0.35256 0.21063 0.92859 -0.09700
H 	H 	0.34000 0.21030 0.93660 0.06500
C 	C 	0.35415 0.22377 0.91158 0.05700
H 	H 	0.34260 0.23250 0.90820 0.00200
C 	C 	0.32496 0.25126 0.86991 0.10400
C 	C 	0.36136 0.26760 0.83293 0.06000
H 	H 	0.35070 0.25730 0.83410 0.00000
C 	C 	0.36214 0.27925 0.81527 -0.10000
H 	H 	0.35270 0.27660 0.80410 0.06800
C 	C 	0.37702 0.29519 0.81355 0.00800
H 	H 	0.37780 0.30370 0.80140 0.03800
C 	C 	0.39067 0.29822 0.83011 -0.05200
C 	C 	0.38923 0.28496 0.84741 0.04300
H 	H 	0.39890 0.28670 0.85860 0.01000
C 	C 	0.40696 0.31433 0.82939 0.13400
N 	N 	0.48473 0.16093 0.88587 -0.22600
N 	N 	0.38623 0.10431 0.02354 -0.25800
N 	N 	0.39933 0.12273 0.98319 -0.22600
N 	N 	0.40364 0.17030 0.93948 -0.15300
N 	N 	0.43807 0.15990 0.93039 -0.15100
N 	N 	0.42285 0.18970 0.91477 -0.15500
N 	N 	0.37139 0.22466 0.89960 -0.23000
N 	N 	0.34250 0.24874 0.87278 -0.26200
N 	N 	0.37494 0.27001 0.84886 -0.22700
N 	N 	0.42137 0.31397 0.84440 -0.15100
S 	S 	0.41525 0.07689 0.04112 -0.06100
S 	S 	0.30016 0.25491 0.86570 -0.06200
C 	C 	0.28122 0.08895 0.39916 0.04100
H 	H 	0.28460 0.10170 0.40600 0.01100
C 	C 	0.29316 0.07155 0.40367 -0.05100
C 	C 	0.28806 0.05267 0.39400 0.00900
H 	H 	0.29600 0.04040 0.39660 0.03700
C 	C 	0.27116 0.05240 0.38056 -0.09900
H 	H 	0.26710 0.03980 0.37390 0.06600
C 	C 	0.26015 0.07076 0.37690 0.05900
H 	H 	0.24850 0.07040 0.36770 0.00000
C 	C 	0.35172 0.15698 0.53121 0.09600
C 	C 	0.33518 0.14137 0.48466 0.05600
H 	H 	0.33640 0.15230 0.49470 -0.00100
C 	C 	0.31736 0.14056 0.47205 -0.09800
H 	H 	0.30700 0.15110 0.47310 0.06500
C 	C 	0.31499 0.12449 0.45823 0.00900
H 	H 	0.30280 0.12350 0.44980 0.03700
C 	C 	0.33094 0.10943 0.45667 -0.05000
C 	C 	0.34831 0.11174 0.46935 0.03900
H 	H 	0.35920 0.10170 0.46820 0.01400
C 	C 	0.32962 0.09209 0.44153 0.13400
C 	C 	0.31177 0.07381 0.41730 0.13800
C 	C 	0.34430 0.06447 0.42578 0.14000
C 	C 	0.36275 0.03758 0.40435 0.04400
H 	H 	0.35070 0.03720 0.39560 0.00900
C 	C 	0.36271 0.05122 0.42164 -0.05300
C 	C 	0.38072 0.05210 0.43399 0.00800
H 	H 	0.38150 0.06120 0.44570 0.03800
C 	C 	0.39744 0.03937 0.42859 -0.09700
H 	H 	0.41000 0.03970 0.43660 0.06500
C 	C 	0.39585 0.02623 0.41158 0.05700
H 	H 	0.40740 0.01750 0.40820 0.00200
C 	C 	0.42504 0.99874 0.36991 0.10400
C 	C 	0.38864 0.98240 0.33293 0.06000
H 	H 	0.39930 0.99270 0.33410 0.00000
C 	C 	0.38786 0.97075 0.31527 -0.10000
H 	H 	0.39730 0.97340 0.30410 0.06800
C 	C 	0.37298 0.95481 0.31355 0.00800
H 	H 	0.37220 0.94630 0.30140 0.03800
C 	C 	0.35933 0.95178 0.33011 -0.05200
C 	C 	0.36077 0.96504 0.34741 0.04300
H 	H 	0.35110 0.96330 0.35860 0.01000
C 	C 	0.34304 0.93567 0.32939 0.13400
N 	N 	0.26527 0.08907 0.38587 -0.22600
N 	N 	0.36377 0.14569 0.52354 -0.25800
N 	N 	0.35067 0.12727 0.48319 -0.22600
N 	N 	0.34636 0.07970 0.43948 -0.15300
N 	N 	0.31193 0.09010 0.43039 -0.15100
N 	N 	0.32715 0.06030 0.41477 -0.15500
N 	N 	0.37861 0.02534 0.39960 -0.23000
N 	N 	0.40750 0.00126 0.37278 -0.26200
N 	N 	0.37506 0.97999 0.34886 -0.22700
N 	N 	0.32863 0.93603 0.34440 -0.15100
S 	S 	0.33475 0.17311 0.54112 -0.06100
S 	S 	0.44984 0.99509 0.36570 -0.06200
C 	C 	0.28122 0.58895 0.89916 0.04100
H 	H 	0.28460 0.60170 0.90600 0.01100
C 	C 	0.29316 0.57155 0.90367 -0.05100
C 	C 	0.28806 0.55267 0.89400 0.00900
H 	H 	0.29600 0.54040 0.89660 0.03700
C 	C 	0.27116 0.55240 0.88056 -0.09900
H 	H 	0.26710 0.53980 0.87390 0.06600
C 	C 	0.26015 0.57076 0.87690 0.05900
H 	H 	0.24850 0.57040 0.86770 0.00000
C 	C 	0.35172 0.65698 0.03121 0.09600
C 	C 	0.33518 0.64137 0.98466 0.05600
H 	H 	0.33640 0.65230 0.99470 -0.00100
C 	C 	0.31736 0.64056 0.97205 -0.09800
H 	H 	0.30700 0.65110 0.97310 0.06500
C 	C 	0.31499 0.62449 0.95823 0.00900
H 	H 	0.30280 0.62350 0.94980 0.03700
C 	C 	0.33094 0.60943 0.95667 -0.05000
C 	C 	0.34831 0.61174 0.96935 0.03900
H 	H 	0.35920 0.60170 0.96820 0.01400
C 	C 	0.32962 0.59209 0.94153 0.13400
C 	C 	0.31177 0.57381 0.91730 0.13800
C 	C 	0.34430 0.56447 0.92578 0.14000
C 	C 	0.36275 0.53758 0.90435 0.04400
H 	H 	0.35070 0.53720 0.89560 0.00900
C 	C 	0.36271 0.55122 0.92164 -0.05300
C 	C 	0.38072 0.55210 0.93399 0.00800
H 	H 	0.38150 0.56120 0.94570 0.03800
C 	C 	0.39744 0.53937 0.92859 -0.09700
H 	H 	0.41000 0.53970 0.93660 0.06500
C 	C 	0.39585 0.52623 0.91158 0.05700
H 	H 	0.40740 0.51750 0.90820 0.00200
C 	C 	0.42504 0.49874 0.86991 0.10400
C 	C 	0.38864 0.48240 0.83293 0.06000
H 	H 	0.39930 0.49270 0.83410 0.00000
C 	C 	0.38786 0.47075 0.81527 -0.10000
H 	H 	0.39730 0.47340 0.80410 0.06800
C 	C 	0.37298 0.45481 0.81355 0.00800
H 	H 	0.37220 0.44630 0.80140 0.03800
C 	C 	0.35933 0.45178 0.83011 -0.05200
C 	C 	0.36077 0.46504 0.84741 0.04300
H 	H 	0.35110 0.46330 0.85860 0.01000
C 	C 	0.34304 0.43567 0.82939 0.13400
N 	N 	0.26527 0.58907 0.88587 -0.22600
N 	N 	0.36377 0.64569 0.02354 -0.25800
N 	N 	0.35067 0.62727 0.98319 -0.22600
N 	N 	0.34636 0.57970 0.93948 -0.15300
N 	N 	0.31193 0.59010 0.93039 -0.15100
N 	N 	0.32715 0.56030 0.91477 -0.15500
N 	N 	0.37861 0.52534 0.89960 -0.23000
N 	N 	0.40750 0.50126 0.87278 -0.26200
N 	N 	0.37506 0.47999 0.84886 -0.22700
N 	N 	0.32863 0.43603 0.84440 -0.15100
S 	S 	0.33475 0.67311 0.04112 -0.06100
S 	S 	0.44984 0.49509 0.86570 -0.06200
C 	C 	0.78122 0.08895 0.89916 0.04100
H 	H 	0.78460 0.10170 0.90600 0.01100
C 	C 	0.79316 0.07155 0.90367 -0.05100
C 	C 	0.78806 0.05267 0.89400 0.00900
H 	H 	0.79600 0.04040 0.89660 0.03700
C 	C 	0.77116 0.05240 0.88056 -0.09900
H 	H 	0.76710 0.03980 0.87390 0.06600
C 	C 	0.76015 0.07076 0.87690 0.05900
H 	H 	0.74850 0.07040 0.86770 0.00000
C 	C 	0.85172 0.15698 0.03121 0.09600
C 	C 	0.83518 0.14137 0.98466 0.05600
H 	H 	0.83640 0.15230 0.99470 -0.00100
C 	C 	0.81736 0.14056 0.97205 -0.09800
H 	H 	0.80700 0.15110 0.97310 0.06500
C 	C 	0.81499 0.12449 0.95823 0.00900
H 	H 	0.80280 0.12350 0.94980 0.03700
C 	C 	0.83094 0.10943 0.95667 -0.05000
C 	C 	0.84831 0.11174 0.96935 0.03900
H 	H 	0.85920 0.10170 0.96820 0.01400
C 	C 	0.82962 0.09209 0.94153 0.13400
C 	C 	0.81177 0.07381 0.91730 0.13800
C 	C 	0.84430 0.06447 0.92578 0.14000
C 	C 	0.86275 0.03758 0.90435 0.04400
H 	H 	0.85070 0.03720 0.89560 0.00900
C 	C 	0.86271 0.05122 0.92164 -0.05300
C 	C 	0.88072 0.05210 0.93399 0.00800
H 	H 	0.88150 0.06120 0.94570 0.03800
C 	C 	0.89744 0.03937 0.92859 -0.09700
H 	H 	0.91000 0.03970 0.93660 0.06500
C 	C 	0.89585 0.02623 0.91158 0.05700
H 	H 	0.90740 0.01750 0.90820 0.00200
C 	C 	0.92504 0.99874 0.86991 0.10400
C 	C 	0.88864 0.98240 0.83293 0.06000
H 	H 	0.89930 0.99270 0.83410 0.00000
C 	C 	0.88786 0.97075 0.81527 -0.10000
H 	H 	0.89730 0.97340 0.80410 0.06800
C 	C 	0.87298 0.95481 0.81355 0.00800
H 	H 	0.87220 0.94630 0.80140 0.03800
C 	C 	0.85933 0.95178 0.83011 -0.05200
C 	C 	0.86077 0.96504 0.84741 0.04300
H 	H 	0.85110 0.96330 0.85860 0.01000
C 	C 	0.84304 0.93567 0.82939 0.13400
N 	N 	0.76527 0.08907 0.88587 -0.22600
N 	N 	0.86377 0.14569 0.02354 -0.25800
N 	N 	0.85067 0.12727 0.98319 -0.22600
N 	N 	0.84636 0.07970 0.93948 -0.15300
N 	N 	0.81193 0.09010 0.93039 -0.15100
N 	N 	0.82715 0.06030 0.91477 -0.15500
N 	N 	0.87861 0.02534 0.89960 -0.23000
N 	N 	0.90750 0.00126 0.87278 -0.26200
N 	N 	0.87506 0.97999 0.84886 -0.22700
N 	N 	0.82863 0.93603 0.84440 -0.15100
S 	S 	0.83475 0.17311 0.04112 -0.06100
S 	S 	0.94984 0.99509 0.86570 -0.06200
C 	C 	0.78122 0.58895 0.39916 0.04100
H 	H 	0.78460 0.60170 0.40600 0.01100
C 	C 	0.79316 0.57155 0.40367 -0.05100
C 	C 	0.78806 0.55267 0.39400 0.00900
H 	H 	0.79600 0.54040 0.39660 0.03700
C 	C 	0.77116 0.55240 0.38056 -0.09900
H 	H 	0.76710 0.53980 0.37390 0.06600
C 	C 	0.76015 0.57076 0.37690 0.05900
H 	H 	0.74850 0.57040 0.36770 0.00000
C 	C 	0.85172 0.65698 0.53121 0.09600
C 	C 	0.83518 0.64137 0.48466 0.05600
H 	H 	0.83640 0.65230 0.49470 -0.00100
C 	C 	0.81736 0.64056 0.47205 -0.09800
H 	H 	0.80700 0.65110 0.47310 0.06500
C 	C 	0.81499 0.62449 0.45823 0.00900
H 	H 	0.80280 0.62350 0.44980 0.03700
C 	C 	0.83094 0.60943 0.45667 -0.05000
C 	C 	0.84831 0.61174 0.46935 0.03900
H 	H 	0.85920 0.60170 0.46820 0.01400
C 	C 	0.82962 0.59209 0.44153 0.13400
C 	C 	0.81177 0.57381 0.41730 0.13800
C 	C 	0.84430 0.56447 0.42578 0.14000
C 	C 	0.86275 0.53758 0.40435 0.04400
H 	H 	0.85070 0.53720 0.39560 0.00900
C 	C 	0.86271 0.55122 0.42164 -0.05300
C 	C 	0.88072 0.55210 0.43399 0.00800
H 	H 	0.88150 0.56120 0.44570 0.03800
C 	C 	0.89744 0.53937 0.42859 -0.09700
H 	H 	0.91000 0.53970 0.43660 0.06500
C 	C 	0.89585 0.52623 0.41158 0.05700
H 	H 	0.90740 0.51750 0.40820 0.00200
C 	C 	0.92504 0.49874 0.36991 0.10400
C 	C 	0.88864 0.48240 0.33293 0.06000
H 	H 	0.89930 0.49270 0.33410 0.00000
C 	C 	0.88786 0.47075 0.31527 -0.10000
H 	H 	0.89730 0.47340 0.30410 0.06800
C 	C 	0.87298 0.45481 0.31355 0.00800
H 	H 	0.87220 0.44630 0.30140 0.03800
C 	C 	0.85933 0.45178 0.33011 -0.05200
C 	C 	0.86077 0.46504 0.34741 0.04300
H 	H 	0.85110 0.46330 0.35860 0.01000
C 	C 	0.84304 0.43567 0.32939 0.13400
N 	N 	0.76527 0.58907 0.38587 -0.22600
N 	N 	0.86377 0.64569 0.52354 -0.25800
N 	N 	0.85067 0.62727 0.48319 -0.22600
N 	N 	0.84636 0.57970 0.43948 -0.15300
N 	N 	0.81193 0.59010 0.43039 -0.15100
N 	N 	0.82715 0.56030 0.41477 -0.15500
N 	N 	0.87861 0.52534 0.39960 -0.23000
N 	N 	0.90750 0.50126 0.37278 -0.26200
N 	N 	0.87506 0.47999 0.34886 -0.22700
N 	N 	0.82863 0.43603 0.34440 -0.15100
S 	S 	0.83475 0.67311 0.54112 -0.06100
S 	S 	0.94984 0.49509 0.36570 -0.06200
C 	C 	0.46878 0.58895 0.85084 0.04100
H 	H 	0.46540 0.60170 0.84400 0.01100
C 	C 	0.45684 0.57155 0.84633 -0.05100
C 	C 	0.46194 0.55267 0.85600 0.00900
H 	H 	0.45400 0.54040 0.85340 0.03700
C 	C 	0.47884 0.55240 0.86944 -0.09900
H 	H 	0.48290 0.53980 0.87610 0.06600
C 	C 	0.48985 0.57076 0.87310 0.05900
H 	H 	0.50150 0.57040 0.88230 0.00000
C 	C 	0.39828 0.65698 0.71879 0.09600
C 	C 	0.41482 0.64137 0.76534 0.05600
H 	H 	0.41360 0.65230 0.75530 -0.00100
C 	C 	0.43264 0.64056 0.77795 -0.09800
H 	H 	0.44300 0.65110 0.77690 0.06500
C 	C 	0.43501 0.62449 0.79177 0.00900
H 	H 	0.44720 0.62350 0.80020 0.03700
C 	C 	0.41906 0.60943 0.79333 -0.05000
C 	C 	0.40169 0.61174 0.78065 0.03900
H 	H 	0.39080 0.60170 0.78180 0.01400
C 	C 	0.42038 0.59209 0.80847 0.13400
C 	C 	0.43823 0.57381 0.83270 0.13800
C 	C 	0.40570 0.56447 0.82422 0.14000
C 	C 	0.38725 0.53758 0.84565 0.04400
H 	H 	0.39930 0.53720 0.85440 0.00900
C 	C 	0.38729 0.55122 0.82836 -0.05300
C 	C 	0.36928 0.55210 0.81601 0.00800
H 	H 	0.36850 0.56120 0.80430 0.03800
C 	C 	0.35256 0.53937 0.82141 -0.09700
H 	H 	0.34000 0.53970 0.81340 0.06500
C 	C 	0.35415 0.52623 0.83842 0.05700
H 	H 	0.34260 0.51750 0.84180 0.00200
C 	C 	0.32496 0.49874 0.88009 0.10400
C 	C 	0.36136 0.48240 0.91707 0.06000
H 	H 	0.35070 0.49270 0.91590 0.00000
C 	C 	0.36214 0.47075 0.93473 -0.10000
H 	H 	0.35270 0.47340 0.94590 0.06800
C 	C 	0.37702 0.45481 0.93645 0.00800
H 	H 	0.37780 0.44630 0.94860 0.03800
C 	C 	0.39067 0.45178 0.91989 -0.05200
C 	C 	0.38923 0.46504 0.90259 0.04300
H 	H 	0.39890 0.46330 0.89140 0.01000
C 	C 	0.40696 0.43567 0.92061 0.13400
N 	N 	0.48473 0.58907 0.86413 -0.22600
N 	N 	0.38623 0.64569 0.72646 -0.25800
N 	N 	0.39933 0.62727 0.76681 -0.22600
N 	N 	0.40364 0.57970 0.81052 -0.15300
N 	N 	0.43807 0.59010 0.81961 -0.15100
N 	N 	0.42285 0.56030 0.83523 -0.15500
N 	N 	0.37139 0.52534 0.85040 -0.23000
N 	N 	0.34250 0.50126 0.87722 -0.26200
N 	N 	0.37494 0.47999 0.90114 -0.22700
N 	N 	0.42137 0.43603 0.90560 -0.15100
S 	S 	0.41525 0.67311 0.70888 -0.06100
S 	S 	0.30016 0.49509 0.88430 -0.06200
C 	C 	0.46878 0.08895 0.35084 0.04100
H 	H 	0.46540 0.10170 0.34400 0.01100
C 	C 	0.45684 0.07155 0.34633 -0.05100
C 	C 	0.46194 0.05267 0.35600 0.00900
H 	H 	0.45400 0.04040 0.35340 0.03700
C 	C 	0.47884 0.05240 0.36944 -0.09900
H 	H 	0.48290 0.03980 0.37610 0.06600
C 	C 	0.48985 0.07076 0.37310 0.05900
H 	H 	0.50150 0.07040 0.38230 0.00000
C 	C 	0.39828 0.15698 0.21879 0.09600
C 	C 	0.41482 0.14137 0.26534 0.05600
H 	H 	0.41360 0.15230 0.25530 -0.00100
C 	C 	0.43264 0.14056 0.27795 -0.09800
H 	H 	0.44300 0.15110 0.27690 0.06500
C 	C 	0.43501 0.12449 0.29177 0.00900
H 	H 	0.44720 0.12350 0.30020 0.03700
C 	C 	0.41906 0.10943 0.29333 -0.05000
C 	C 	0.40169 0.11174 0.28065 0.03900
H 	H 	0.39080 0.10170 0.28180 0.01400
C 	C 	0.42038 0.09209 0.30847 0.13400
C 	C 	0.43823 0.07381 0.33270 0.13800
C 	C 	0.40570 0.06447 0.32422 0.14000
C 	C 	0.38725 0.03758 0.34565 0.04400
H 	H 	0.39930 0.03720 0.35440 0.00900
C 	C 	0.38729 0.05122 0.32836 -0.05300
C 	C 	0.36928 0.05210 0.31601 0.00800
H 	H 	0.36850 0.06120 0.30430 0.03800
C 	C 	0.35256 0.03937 0.32141 -0.09700
H 	H 	0.34000 0.03970 0.31340 0.06500
C 	C 	0.35415 0.02623 0.33842 0.05700
H 	H 	0.34260 0.01750 0.34180 0.00200
C 	C 	0.32496 0.99874 0.38009 0.10400
C 	C 	0.36136 0.98240 0.41707 0.06000
H 	H 	0.35070 0.99270 0.41590 0.00000
C 	C 	0.36214 0.97075 0.43473 -0.10000
H 	H 	0.35270 0.97340 0.44590 0.06800
C 	C 	0.37702 0.95481 0.43645 0.00800
H 	H 	0.37780 0.94630 0.44860 0.03800
C 	C 	0.39067 0.95178 0.41989 -0.05200
C 	C 	0.38923 0.96504 0.40259 0.04300
H 	H 	0.39890 0.96330 0.39140 0.01000
C 	C 	0.40696 0.93567 0.42061 0.13400
N 	N 	0.48473 0.08907 0.36413 -0.22600
N 	N 	0.38623 0.14569 0.22646 -0.25800
N 	N 	0.39933 0.12727 0.26681 -0.22600
N 	N 	0.40364 0.07970 0.31052 -0.15300
N 	N 	0.43807 0.09010 0.31961 -0.15100
N 	N 	0.42285 0.06030 0.33523 -0.15500
N 	N 	0.37139 0.02534 0.35040 -0.23000
N 	N 	0.34250 0.00126 0.37722 -0.26200
N 	N 	0.37494 0.97999 0.40114 -0.22700
N 	N 	0.42137 0.93603 0.40560 -0.15100
S 	S 	0.41525 0.17311 0.20888 -0.06100
S 	S 	0.30016 0.99509 0.38430 -0.06200
C 	C 	0.96878 0.58895 0.35084 0.04100
H 	H 	0.96540 0.60170 0.34400 0.01100
C 	C 	0.95684 0.57155 0.34633 -0.05100
C 	C 	0.96194 0.55267 0.35600 0.00900
H 	H 	0.95400 0.54040 0.35340 0.03700
C 	C 	0.97884 0.55240 0.36944 -0.09900
H 	H 	0.98290 0.53980 0.37610 0.06600
C 	C 	0.98985 0.57076 0.37310 0.05900
H 	H 	0.00150 0.57040 0.38230 0.00000
C 	C 	0.89828 0.65698 0.21879 0.09600
C 	C 	0.91482 0.64137 0.26534 0.05600
H 	H 	0.91360 0.65230 0.25530 -0.00100
C 	C 	0.93264 0.64056 0.27795 -0.09800
H 	H 	0.94300 0.65110 0.27690 0.06500
C 	C 	0.93501 0.62449 0.29177 0.00900
H 	H 	0.94720 0.62350 0.30020 0.03700
C 	C 	0.91906 0.60943 0.29333 -0.05000
C 	C 	0.90169 0.61174 0.28065 0.03900
H 	H 	0.89080 0.60170 0.28180 0.01400
C 	C 	0.92038 0.59209 0.30847 0.13400
C 	C 	0.93823 0.57381 0.33270 0.13800
C 	C 	0.90570 0.56447 0.32422 0.14000
C 	C 	0.88725 0.53758 0.34565 0.04400
H 	H 	0.89930 0.53720 0.35440 0.00900
C 	C 	0.88729 0.55122 0.32836 -0.05300
C 	C 	0.86928 0.55210 0.31601 0.00800
H 	H 	0.86850 0.56120 0.30430 0.03800
C 	C 	0.85256 0.53937 0.32141 -0.09700
H 	H 	0.84000 0.53970 0.31340 0.06500
C 	C 	0.85415 0.52623 0.33842 0.05700
H 	H 	0.84260 0.51750 0.34180 0.00200
C 	C 	0.82496 0.49874 0.38009 0.10400
C 	C 	0.86136 0.48240 0.41707 0.06000
H 	H 	0.85070 0.49270 0.41590 0.00000
C 	C 	0.86214 0.47075 0.43473 -0.10000
H 	H 	0.85270 0.47340 0.44590 0.06800
C 	C 	0.87702 0.45481 0.43645 0.00800
H 	H 	0.87780 0.44630 0.44860 0.03800
C 	C 	0.89067 0.45178 0.41989 -0.05200
C 	C 	0.88923 0.46504 0.40259 0.04300
H 	H 	0.89890 0.46330 0.39140 0.01000
C 	C 	0.90696 0.43567 0.42061 0.13400
N 	N 	0.98473 0.58907 0.36413 -0.22600
N 	N 	0.88623 0.64569 0.22646 -0.25800
N 	N 	0.89933 0.62727 0.26681 -0.22600
N 	N 	0.90364 0.57970 0.31052 -0.15300
N 	N 	0.93807 0.59010 0.31961 -0.15100
N 	N 	0.92285 0.56030 0.33523 -0.15500
N 	N 	0.87139 0.52534 0.35040 -0.23000
N 	N 	0.84250 0.50126 0.37722 -0.26200
N 	N 	0.87494 0.47999 0.40114 -0.22700
N 	N 	0.92137 0.43603 0.40560 -0.15100
S 	S 	0.91525 0.67311 0.20888 -0.06100
S 	S 	0.80016 0.49509 0.38430 -0.06200
C 	C 	0.96878 0.08895 0.85084 0.04100
H 	H 	0.96540 0.10170 0.84400 0.01100
C 	C 	0.95684 0.07155 0.84633 -0.05100
C 	C 	0.96194 0.05267 0.85600 0.00900
H 	H 	0.95400 0.04040 0.85340 0.03700
C 	C 	0.97884 0.05240 0.86944 -0.09900
H 	H 	0.98290 0.03980 0.87610 0.06600
C 	C 	0.98985 0.07076 0.87310 0.05900
H 	H 	0.00150 0.07040 0.88230 0.00000
C 	C 	0.89828 0.15698 0.71879 0.09600
C 	C 	0.91482 0.14137 0.76534 0.05600
H 	H 	0.91360 0.15230 0.75530 -0.00100
C 	C 	0.93264 0.14056 0.77795 -0.09800
H 	H 	0.94300 0.15110 0.77690 0.06500
C 	C 	0.93501 0.12449 0.79177 0.00900
H 	H 	0.94720 0.12350 0.80020 0.03700
C 	C 	0.91906 0.10943 0.79333 -0.05000
C 	C 	0.90169 0.11174 0.78065 0.03900
H 	H 	0.89080 0.10170 0.78180 0.01400
C 	C 	0.92038 0.09209 0.80847 0.13400
C 	C 	0.93823 0.07381 0.83270 0.13800
C 	C 	0.90570 0.06447 0.82422 0.14000
C 	C 	0.88725 0.03758 0.84565 0.04400
H 	H 	0.89930 0.03720 0.85440 0.00900
C 	C 	0.88729 0.05122 0.82836 -0.05300
C 	C 	0.86928 0.05210 0.81601 0.00800
H 	H 	0.86850 0.06120 0.80430 0.03800
C 	C 	0.85256 0.03937 0.82141 -0.09700
H 	H 	0.84000 0.03970 0.81340 0.06500
C 	C 	0.85415 0.02623 0.83842 0.05700
H 	H 	0.84260 0.01750 0.84180 0.00200
C 	C 	0.82496 0.99874 0.88009 0.10400
C 	C 	0.86136 0.98240 0.91707 0.06000
H 	H 	0.85070 0.99270 0.91590 0.00000
C 	C 	0.86214 0.97075 0.93473 -0.10000
H 	H 	0.85270 0.97340 0.94590 0.06800
C 	C 	0.87702 0.95481 0.93645 0.00800
H 	H 	0.87780 0.94630 0.94860 0.03800
C 	C 	0.89067 0.95178 0.91989 -0.05200
C 	C 	0.88923 0.96504 0.90259 0.04300
H 	H 	0.89890 0.96330 0.89140 0.01000
C 	C 	0.90696 0.93567 0.92061 0.13400
N 	N 	0.98473 0.08907 0.86413 -0.22600
N 	N 	0.88623 0.14569 0.72646 -0.25800
N 	N 	0.89933 0.12727 0.76681 -0.22600
N 	N 	0.90364 0.07970 0.81052 -0.15300
N 	N 	0.93807 0.09010 0.81961 -0.15100
N 	N 	0.92285 0.06030 0.83523 -0.15500
N 	N 	0.87139 0.02534 0.85040 -0.23000
N 	N 	0.84250 0.00126 0.87722 -0.26200
N 	N 	0.87494 0.97999 0.90114 -0.22700
N 	N 	0.92137 0.93603 0.90560 -0.15100
S 	S 	0.91525 0.17311 0.70888 -0.06100
S 	S 	0.80016 0.99509 0.88430 -0.06200
C 	C 	0.78122 0.16105 0.35084 0.04100
H 	H 	0.78460 0.14830 0.34400 0.01100
C 	C 	0.79316 0.17845 0.34633 -0.05100
C 	C 	0.78806 0.19733 0.35600 0.00900
H 	H 	0.79600 0.20960 0.35340 0.03700
C 	C 	0.77116 0.19760 0.36944 -0.09900
H 	H 	0.76710 0.21020 0.37610 0.06600
C 	C 	0.76015 0.17924 0.37310 0.05900
H 	H 	0.74850 0.17960 0.38230 0.00000
C 	C 	0.85172 0.09302 0.21879 0.09600
C 	C 	0.83518 0.10863 0.26534 0.05600
H 	H 	0.83640 0.09770 0.25530 -0.00100
C 	C 	0.81736 0.10944 0.27795 -0.09800
H 	H 	0.80700 0.09890 0.27690 0.06500
C 	C 	0.81499 0.12551 0.29177 0.00900
H 	H 	0.80280 0.12650 0.30020 0.03700
C 	C 	0.83094 0.14057 0.29333 -0.05000
C 	C 	0.84831 0.13826 0.28065 0.03900
H 	H 	0.85920 0.14830 0.28180 0.01400
C 	C 	0.82962 0.15791 0.30847 0.13400
C 	C 	0.81177 0.17619 0.33270 0.13800
C 	C 	0.84430 0.18553 0.32422 0.14000
C 	C 	0.86275 0.21242 0.34565 0.04400
H 	H 	0.85070 0.21280 0.35440 0.00900
C 	C 	0.86271 0.19878 0.32836 -0.05300
C 	C 	0.88072 0.19790 0.31601 0.00800
H 	H 	0.88150 0.18880 0.30430 0.03800
C 	C 	0.89744 0.21063 0.32141 -0.09700
H 	H 	0.91000 0.21030 0.31340 0.06500
C 	C 	0.89585 0.22377 0.33842 0.05700
H 	H 	0.90740 0.23250 0.34180 0.00200
C 	C 	0.92504 0.25126 0.38009 0.10400
C 	C 	0.88864 0.26760 0.41707 0.06000
H 	H 	0.89930 0.25730 0.41590 0.00000
C 	C 	0.88786 0.27925 0.43473 -0.10000
H 	H 	0.89730 0.27660 0.44590 0.06800
C 	C 	0.87298 0.29519 0.43645 0.00800
H 	H 	0.87220 0.30370 0.44860 0.03800
C 	C 	0.85933 0.29822 0.41989 -0.05200
C 	C 	0.86077 0.28496 0.40259 0.04300
H 	H 	0.85110 0.28670 0.39140 0.01000
C 	C 	0.84304 0.31433 0.42061 0.13400
N 	N 	0.76527 0.16093 0.36413 -0.22600
N 	N 	0.86377 0.10431 0.22646 -0.25800
N 	N 	0.85067 0.12273 0.26681 -0.22600
N 	N 	0.84636 0.17030 0.31052 -0.15300
N 	N 	0.81193 0.15990 0.31961 -0.15100
N 	N 	0.82715 0.18970 0.33523 -0.15500
N 	N 	0.87861 0.22466 0.35040 -0.23000
N 	N 	0.90750 0.24874 0.37722 -0.26200
N 	N 	0.87506 0.27001 0.40114 -0.22700
N 	N 	0.82863 0.31397 0.40560 -0.15100
S 	S 	0.83475 0.07689 0.20888 -0.06100
S 	S 	0.94984 0.25491 0.38430 -0.06200
C 	C 	0.78122 0.66105 0.85084 0.04100
H 	H 	0.78460 0.64830 0.84400 0.01100
C 	C 	0.79316 0.67845 0.84633 -0.05100
C 	C 	0.78806 0.69733 0.85600 0.00900
H 	H 	0.79600 0.70960 0.85340 0.03700
C 	C 	0.77116 0.69760 0.86944 -0.09900
H 	H 	0.76710 0.71020 0.87610 0.06600
C 	C 	0.76015 0.67924 0.87310 0.05900
H 	H 	0.74850 0.67960 0.88230 0.00000
C 	C 	0.85172 0.59302 0.71879 0.09600
C 	C 	0.83518 0.60863 0.76534 0.05600
H 	H 	0.83640 0.59770 0.75530 -0.00100
C 	C 	0.81736 0.60944 0.77795 -0.09800
H 	H 	0.80700 0.59890 0.77690 0.06500
C 	C 	0.81499 0.62551 0.79177 0.00900
H 	H 	0.80280 0.62650 0.80020 0.03700
C 	C 	0.83094 0.64057 0.79333 -0.05000
C 	C 	0.84831 0.63826 0.78065 0.03900
H 	H 	0.85920 0.64830 0.78180 0.01400
C 	C 	0.82962 0.65791 0.80847 0.13400
C 	C 	0.81177 0.67619 0.83270 0.13800
C 	C 	0.84430 0.68553 0.82422 0.14000
C 	C 	0.86275 0.71242 0.84565 0.04400
H 	H 	0.85070 0.71280 0.85440 0.00900
C 	C 	0.86271 0.69878 0.82836 -0.05300
C 	C 	0.88072 0.69790 0.81601 0.00800
H 	H 	0.88150 0.68880 0.80430 0.03800
C 	C 	0.89744 0.71063 0.82141 -0.09700
H 	H 	0.91000 0.71030 0.81340 0.06500
C 	C 	0.89585 0.72377 0.83842 0.05700
H 	H 	0.90740 0.73250 0.84180 0.00200
C 	C 	0.92504 0.75126 0.88009 0.10400
C 	C 	0.88864 0.76760 0.91707 0.06000
H 	H 	0.89930 0.75730 0.91590 0.00000
C 	C 	0.88786 0.77925 0.93473 -0.10000
H 	H 	0.89730 0.77660 0.94590 0.06800
C 	C 	0.87298 0.79519 0.93645 0.00800
H 	H 	0.87220 0.80370 0.94860 0.03800
C 	C 	0.85933 0.79822 0.91989 -0.05200
C 	C 	0.86077 0.78496 0.90259 0.04300
H 	H 	0.85110 0.78670 0.89140 0.01000
C 	C 	0.84304 0.81433 0.92061 0.13400
N 	N 	0.76527 0.66093 0.86413 -0.22600
N 	N 	0.86377 0.60431 0.72646 -0.25800
N 	N 	0.85067 0.62273 0.76681 -0.22600
N 	N 	0.84636 0.67030 0.81052 -0.15300
N 	N 	0.81193 0.65990 0.81961 -0.15100
N 	N 	0.82715 0.68970 0.83523 -0.15500
N 	N 	0.87861 0.72466 0.85040 -0.23000
N 	N 	0.90750 0.74874 0.87722 -0.26200
N 	N 	0.87506 0.77001 0.90114 -0.22700
N 	N 	0.82863 0.81397 0.90560 -0.15100
S 	S 	0.83475 0.57689 0.70888 -0.06100
S 	S 	0.94984 0.75491 0.88430 -0.06200
C 	C 	0.28122 0.16105 0.85084 0.04100
H 	H 	0.28460 0.14830 0.84400 0.01100
C 	C 	0.29316 0.17845 0.84633 -0.05100
C 	C 	0.28806 0.19733 0.85600 0.00900
H 	H 	0.29600 0.20960 0.85340 0.03700
C 	C 	0.27116 0.19760 0.86944 -0.09900
H 	H 	0.26710 0.21020 0.87610 0.06600
C 	C 	0.26015 0.17924 0.87310 0.05900
H 	H 	0.24850 0.17960 0.88230 0.00000
C 	C 	0.35172 0.09302 0.71879 0.09600
C 	C 	0.33518 0.10863 0.76534 0.05600
H 	H 	0.33640 0.09770 0.75530 -0.00100
C 	C 	0.31736 0.10944 0.77795 -0.09800
H 	H 	0.30700 0.09890 0.77690 0.06500
C 	C 	0.31499 0.12551 0.79177 0.00900
H 	H 	0.30280 0.12650 0.80020 0.03700
C 	C 	0.33094 0.14057 0.79333 -0.05000
C 	C 	0.34831 0.13826 0.78065 0.03900
H 	H 	0.35920 0.14830 0.78180 0.01400
C 	C 	0.32962 0.15791 0.80847 0.13400
C 	C 	0.31177 0.17619 0.83270 0.13800
C 	C 	0.34430 0.18553 0.82422 0.14000
C 	C 	0.36275 0.21242 0.84565 0.04400
H 	H 	0.35070 0.21280 0.85440 0.00900
C 	C 	0.36271 0.19878 0.82836 -0.05300
C 	C 	0.38072 0.19790 0.81601 0.00800
H 	H 	0.38150 0.18880 0.80430 0.03800
C 	C 	0.39744 0.21063 0.82141 -0.09700
H 	H 	0.41000 0.21030 0.81340 0.06500
C 	C 	0.39585 0.22377 0.83842 0.05700
H 	H 	0.40740 0.23250 0.84180 0.00200
C 	C 	0.42504 0.25126 0.88009 0.10400
C 	C 	0.38864 0.26760 0.91707 0.06000
H 	H 	0.39930 0.25730 0.91590 0.00000
C 	C 	0.38786 0.27925 0.93473 -0.10000
H 	H 	0.39730 0.27660 0.94590 0.06800
C 	C 	0.37298 0.29519 0.93645 0.00800
H 	H 	0.37220 0.30370 0.94860 0.03800
C 	C 	0.35933 0.29822 0.91989 -0.05200
C 	C 	0.36077 0.28496 0.90259 0.04300
H 	H 	0.35110 0.28670 0.89140 0.01000
C 	C 	0.34304 0.31433 0.92061 0.13400
N 	N 	0.26527 0.16093 0.86413 -0.22600
N 	N 	0.36377 0.10431 0.72646 -0.25800
N 	N 	0.35067 0.12273 0.76681 -0.22600
N 	N 	0.34636 0.17030 0.81052 -0.15300
N 	N 	0.31193 0.15990 0.81961 -0.15100
N 	N 	0.32715 0.18970 0.83523 -0.15500
N 	N 	0.37861 0.22466 0.85040 -0.23000
N 	N 	0.40750 0.24874 0.87722 -0.26200
N 	N 	0.37506 0.27001 0.90114 -0.22700
N 	N 	0.32863 0.31397 0.90560 -0.15100
S 	S 	0.33475 0.07689 0.70888 -0.06100
S 	S 	0.44984 0.25491 0.88430 -0.06200
C 	C 	0.28122 0.66105 0.35084 0.04100
H 	H 	0.28460 0.64830 0.34400 0.01100
C 	C 	0.29316 0.67845 0.34633 -0.05100
C 	C 	0.28806 0.69733 0.35600 0.00900
H 	H 	0.29600 0.70960 0.35340 0.03700
C 	C 	0.27116 0.69760 0.36944 -0.09900
H 	H 	0.26710 0.71020 0.37610 0.06600
C 	C 	0.26015 0.67924 0.37310 0.05900
H 	H 	0.24850 0.67960 0.38230 0.00000
C 	C 	0.35172 0.59302 0.21879 0.09600
C 	C 	0.33518 0.60863 0.26534 0.05600
H 	H 	0.33640 0.59770 0.25530 -0.00100
C 	C 	0.31736 0.60944 0.27795 -0.09800
H 	H 	0.30700 0.59890 0.27690 0.06500
C 	C 	0.31499 0.62551 0.29177 0.00900
H 	H 	0.30280 0.62650 0.30020 0.03700
C 	C 	0.33094 0.64057 0.29333 -0.05000
C 	C 	0.34831 0.63826 0.28065 0.03900
H 	H 	0.35920 0.64830 0.28180 0.01400
C 	C 	0.32962 0.65791 0.30847 0.13400
C 	C 	0.31177 0.67619 0.33270 0.13800
C 	C 	0.34430 0.68553 0.32422 0.14000
C 	C 	0.36275 0.71242 0.34565 0.04400
H 	H 	0.35070 0.71280 0.35440 0.00900
C 	C 	0.36271 0.69878 0.32836 -0.05300
C 	C 	0.38072 0.69790 0.31601 0.00800
H 	H 	0.38150 0.68880 0.30430 0.03800
C 	C 	0.39744 0.71063 0.32141 -0.09700
H 	H 	0.41000 0.71030 0.31340 0.06500
C 	C 	0.39585 0.72377 0.33842 0.05700
H 	H 	0.40740 0.73250 0.34180 0.00200
C 	C 	0.42504 0.75126 0.38009 0.10400
C 	C 	0.38864 0.76760 0.41707 0.06000
H 	H 	0.39930 0.75730 0.41590 0.00000
C 	C 	0.38786 0.77925 0.43473 -0.10000
H 	H 	0.39730 0.77660 0.44590 0.06800
C 	C 	0.37298 0.79519 0.43645 0.00800
H 	H 	0.37220 0.80370 0.44860 0.03800
C 	C 	0.35933 0.79822 0.41989 -0.05200
C 	C 	0.36077 0.78496 0.40259 0.04300
H 	H 	0.35110 0.78670 0.39140 0.01000
C 	C 	0.34304 0.81433 0.42061 0.13400
N 	N 	0.26527 0.66093 0.36413 -0.22600
N 	N 	0.36377 0.60431 0.22646 -0.25800
N 	N 	0.35067 0.62273 0.26681 -0.22600
N 	N 	0.34636 0.67030 0.31052 -0.15300
N 	N 	0.31193 0.65990 0.31961 -0.15100
N 	N 	0.32715 0.68970 0.33523 -0.15500
N 	N 	0.37861 0.72466 0.35040 -0.23000
N 	N 	0.40750 0.74874 0.37722 -0.26200
N 	N 	0.37506 0.77001 0.40114 -0.22700
N 	N 	0.32863 0.81397 0.40560 -0.15100
S 	S 	0.33475 0.57689 0.20888 -0.06100
S 	S 	0.44984 0.75491 0.38430 -0.06200
C 	C 	0.16105 0.35084 0.78122 0.04100
H 	H 	0.14830 0.34400 0.78460 0.01100
C 	C 	0.17845 0.34633 0.79316 -0.05100
C 	C 	0.19733 0.35600 0.78806 0.00900
H 	H 	0.20960 0.35340 0.79600 0.03700
C 	C 	0.19760 0.36944 0.77116 -0.09900
H 	H 	0.21020 0.37610 0.76710 0.06600
C 	C 	0.17924 0.37310 0.76015 0.05900
H 	H 	0.17960 0.38230 0.74850 0.00000
C 	C 	0.09302 0.21879 0.85172 0.09600
C 	C 	0.10863 0.26534 0.83518 0.05600
H 	H 	0.09770 0.25530 0.83640 -0.00100
C 	C 	0.10944 0.27795 0.81736 -0.09800
H 	H 	0.09890 0.27690 0.80700 0.06500
C 	C 	0.12551 0.29177 0.81499 0.00900
H 	H 	0.12650 0.30020 0.80280 0.03700
C 	C 	0.14057 0.29333 0.83094 -0.05000
C 	C 	0.13826 0.28065 0.84831 0.03900
H 	H 	0.14830 0.28180 0.85920 0.01400
C 	C 	0.15791 0.30847 0.82962 0.13400
C 	C 	0.17619 0.33270 0.81177 0.13800
C 	C 	0.18553 0.32422 0.84430 0.14000
C 	C 	0.21242 0.34565 0.86275 0.04400
H 	H 	0.21280 0.35440 0.85070 0.00900
C 	C 	0.19878 0.32836 0.86271 -0.05300
C 	C 	0.19790 0.31601 0.88072 0.00800
H 	H 	0.18880 0.30430 0.88150 0.03800
C 	C 	0.21063 0.32141 0.89744 -0.09700
H 	H 	0.21030 0.31340 0.91000 0.06500
C 	C 	0.22377 0.33842 0.89585 0.05700
H 	H 	0.23250 0.34180 0.90740 0.00200
C 	C 	0.25126 0.38009 0.92504 0.10400
C 	C 	0.26760 0.41707 0.88864 0.06000
H 	H 	0.25730 0.41590 0.89930 0.00000
C 	C 	0.27925 0.43473 0.88786 -0.10000
H 	H 	0.27660 0.44590 0.89730 0.06800
C 	C 	0.29519 0.43645 0.87298 0.00800
H 	H 	0.30370 0.44860 0.87220 0.03800
C 	C 	0.29822 0.41989 0.85933 -0.05200
C 	C 	0.28496 0.40259 0.86077 0.04300
H 	H 	0.28670 0.39140 0.85110 0.01000
C 	C 	0.31433 0.42061 0.84304 0.13400
N 	N 	0.16093 0.36413 0.76527 -0.22600
N 	N 	0.10431 0.22646 0.86377 -0.25800
N 	N 	0.12273 0.26681 0.85067 -0.22600
N 	N 	0.17030 0.31052 0.84636 -0.15300
N 	N 	0.15990 0.31961 0.81193 -0.15100
N 	N 	0.18970 0.33523 0.82715 -0.15500
N 	N 	0.22466 0.35040 0.87861 -0.23000
N 	N 	0.24874 0.37722 0.90750 -0.26200
N 	N 	0.27001 0.40114 0.87506 -0.22700
N 	N 	0.31397 0.40560 0.82863 -0.15100
S 	S 	0.07689 0.20888 0.83475 -0.06100
S 	S 	0.25491 0.38430 0.94984 -0.06200
C 	C 	0.16105 0.85084 0.28122 0.04100
H 	H 	0.14830 0.84400 0.28460 0.01100
C 	C 	0.17845 0.84633 0.29316 -0.05100
C 	C 	0.19733 0.85600 0.28806 0.00900
H 	H 	0.20960 0.85340 0.29600 0.03700
C 	C 	0.19760 0.86944 0.27116 -0.09900
H 	H 	0.21020 0.87610 0.26710 0.06600
C 	C 	0.17924 0.87310 0.26015 0.05900
H 	H 	0.17960 0.88230 0.24850 0.00000
C 	C 	0.09302 0.71879 0.35172 0.09600
C 	C 	0.10863 0.76534 0.33518 0.05600
H 	H 	0.09770 0.75530 0.33640 -0.00100
C 	C 	0.10944 0.77795 0.31736 -0.09800
H 	H 	0.09890 0.77690 0.30700 0.06500
C 	C 	0.12551 0.79177 0.31499 0.00900
H 	H 	0.12650 0.80020 0.30280 0.03700
C 	C 	0.14057 0.79333 0.33094 -0.05000
C 	C 	0.13826 0.78065 0.34831 0.03900
H 	H 	0.14830 0.78180 0.35920 0.01400
C 	C 	0.15791 0.80847 0.32962 0.13400
C 	C 	0.17619 0.83270 0.31177 0.13800
C 	C 	0.18553 0.82422 0.34430 0.14000
C 	C 	0.21242 0.84565 0.36275 0.04400
H 	H 	0.21280 0.85440 0.35070 0.00900
C 	C 	0.19878 0.82836 0.36271 -0.05300
C 	C 	0.19790 0.81601 0.38072 0.00800
H 	H 	0.18880 0.80430 0.38150 0.03800
C 	C 	0.21063 0.82141 0.39744 -0.09700
H 	H 	0.21030 0.81340 0.41000 0.06500
C 	C 	0.22377 0.83842 0.39585 0.05700
H 	H 	0.23250 0.84180 0.40740 0.00200
C 	C 	0.25126 0.88009 0.42504 0.10400
C 	C 	0.26760 0.91707 0.38864 0.06000
H 	H 	0.25730 0.91590 0.39930 0.00000
C 	C 	0.27925 0.93473 0.38786 -0.10000
H 	H 	0.27660 0.94590 0.39730 0.06800
C 	C 	0.29519 0.93645 0.37298 0.00800
H 	H 	0.30370 0.94860 0.37220 0.03800
C 	C 	0.29822 0.91989 0.35933 -0.05200
C 	C 	0.28496 0.90259 0.36077 0.04300
H 	H 	0.28670 0.89140 0.35110 0.01000
C 	C 	0.31433 0.92061 0.34304 0.13400
N 	N 	0.16093 0.86413 0.26527 -0.22600
N 	N 	0.10431 0.72646 0.36377 -0.25800
N 	N 	0.12273 0.76681 0.35067 -0.22600
N 	N 	0.17030 0.81052 0.34636 -0.15300
N 	N 	0.15990 0.81961 0.31193 -0.15100
N 	N 	0.18970 0.83523 0.32715 -0.15500
N 	N 	0.22466 0.85040 0.37861 -0.23000
N 	N 	0.24874 0.87722 0.40750 -0.26200
N 	N 	0.27001 0.90114 0.37506 -0.22700
N 	N 	0.31397 0.90560 0.32863 -0.15100
S 	S 	0.07689 0.70888 0.33475 -0.06100
S 	S 	0.25491 0.88430 0.44984 -0.06200
C 	C 	0.66105 0.35084 0.28122 0.04100
H 	H 	0.64830 0.34400 0.28460 0.01100
C 	C 	0.67845 0.34633 0.29316 -0.05100
C 	C 	0.69733 0.35600 0.28806 0.00900
H 	H 	0.70960 0.35340 0.29600 0.03700
C 	C 	0.69760 0.36944 0.27116 -0.09900
H 	H 	0.71020 0.37610 0.26710 0.06600
C 	C 	0.67924 0.37310 0.26015 0.05900
H 	H 	0.67960 0.38230 0.24850 0.00000
C 	C 	0.59302 0.21879 0.35172 0.09600
C 	C 	0.60863 0.26534 0.33518 0.05600
H 	H 	0.59770 0.25530 0.33640 -0.00100
C 	C 	0.60944 0.27795 0.31736 -0.09800
H 	H 	0.59890 0.27690 0.30700 0.06500
C 	C 	0.62551 0.29177 0.31499 0.00900
H 	H 	0.62650 0.30020 0.30280 0.03700
C 	C 	0.64057 0.29333 0.33094 -0.05000
C 	C 	0.63826 0.28065 0.34831 0.03900
H 	H 	0.64830 0.28180 0.35920 0.01400
C 	C 	0.65791 0.30847 0.32962 0.13400
C 	C 	0.67619 0.33270 0.31177 0.13800
C 	C 	0.68553 0.32422 0.34430 0.14000
C 	C 	0.71242 0.34565 0.36275 0.04400
H 	H 	0.71280 0.35440 0.35070 0.00900
C 	C 	0.69878 0.32836 0.36271 -0.05300
C 	C 	0.69790 0.31601 0.38072 0.00800
H 	H 	0.68880 0.30430 0.38150 0.03800
C 	C 	0.71063 0.32141 0.39744 -0.09700
H 	H 	0.71030 0.31340 0.41000 0.06500
C 	C 	0.72377 0.33842 0.39585 0.05700
H 	H 	0.73250 0.34180 0.40740 0.00200
C 	C 	0.75126 0.38009 0.42504 0.10400
C 	C 	0.76760 0.41707 0.38864 0.06000
H 	H 	0.75730 0.41590 0.39930 0.00000
C 	C 	0.77925 0.43473 0.38786 -0.10000
H 	H 	0.77660 0.44590 0.39730 0.06800
C 	C 	0.79519 0.43645 0.37298 0.00800
H 	H 	0.80370 0.44860 0.37220 0.03800
C 	C 	0.79822 0.41989 0.35933 -0.05200
C 	C 	0.78496 0.40259 0.36077 0.04300
H 	H 	0.78670 0.39140 0.35110 0.01000
C 	C 	0.81433 0.42061 0.34304 0.13400
N 	N 	0.66093 0.36413 0.26527 -0.22600
N 	N 	0.60431 0.22646 0.36377 -0.25800
N 	N 	0.62273 0.26681 0.35067 -0.22600
N 	N 	0.67030 0.31052 0.34636 -0.15300
N 	N 	0.65990 0.31961 0.31193 -0.15100
N 	N 	0.68970 0.33523 0.32715 -0.15500
N 	N 	0.72466 0.35040 0.37861 -0.23000
N 	N 	0.74874 0.37722 0.40750 -0.26200
N 	N 	0.77001 0.40114 0.37506 -0.22700
N 	N 	0.81397 0.40560 0.32863 -0.15100
S 	S 	0.57689 0.20888 0.33475 -0.06100
S 	S 	0.75491 0.38430 0.44984 -0.06200
C 	C 	0.66105 0.85084 0.78122 0.04100
H 	H 	0.64830 0.84400 0.78460 0.01100
C 	C 	0.67845 0.84633 0.79316 -0.05100
C 	C 	0.69733 0.85600 0.78806 0.00900
H 	H 	0.70960 0.85340 0.79600 0.03700
C 	C 	0.69760 0.86944 0.77116 -0.09900
H 	H 	0.71020 0.87610 0.76710 0.06600
C 	C 	0.67924 0.87310 0.76015 0.05900
H 	H 	0.67960 0.88230 0.74850 0.00000
C 	C 	0.59302 0.71879 0.85172 0.09600
C 	C 	0.60863 0.76534 0.83518 0.05600
H 	H 	0.59770 0.75530 0.83640 -0.00100
C 	C 	0.60944 0.77795 0.81736 -0.09800
H 	H 	0.59890 0.77690 0.80700 0.06500
C 	C 	0.62551 0.79177 0.81499 0.00900
H 	H 	0.62650 0.80020 0.80280 0.03700
C 	C 	0.64057 0.79333 0.83094 -0.05000
C 	C 	0.63826 0.78065 0.84831 0.03900
H 	H 	0.64830 0.78180 0.85920 0.01400
C 	C 	0.65791 0.80847 0.82962 0.13400
C 	C 	0.67619 0.83270 0.81177 0.13800
C 	C 	0.68553 0.82422 0.84430 0.14000
C 	C 	0.71242 0.84565 0.86275 0.04400
H 	H 	0.71280 0.85440 0.85070 0.00900
C 	C 	0.69878 0.82836 0.86271 -0.05300
C 	C 	0.69790 0.81601 0.88072 0.00800
H 	H 	0.68880 0.80430 0.88150 0.03800
C 	C 	0.71063 0.82141 0.89744 -0.09700
H 	H 	0.71030 0.81340 0.91000 0.06500
C 	C 	0.72377 0.83842 0.89585 0.05700
H 	H 	0.73250 0.84180 0.90740 0.00200
C 	C 	0.75126 0.88009 0.92504 0.10400
C 	C 	0.76760 0.91707 0.88864 0.06000
H 	H 	0.75730 0.91590 0.89930 0.00000
C 	C 	0.77925 0.93473 0.88786 -0.10000
H 	H 	0.77660 0.94590 0.89730 0.06800
C 	C 	0.79519 0.93645 0.87298 0.00800
H 	H 	0.80370 0.94860 0.87220 0.03800
C 	C 	0.79822 0.91989 0.85933 -0.05200
C 	C 	0.78496 0.90259 0.86077 0.04300
H 	H 	0.78670 0.89140 0.85110 0.01000
C 	C 	0.81433 0.92061 0.84304 0.13400
N 	N 	0.66093 0.86413 0.76527 -0.22600
N 	N 	0.60431 0.72646 0.86377 -0.25800
N 	N 	0.62273 0.76681 0.85067 -0.22600
N 	N 	0.67030 0.81052 0.84636 -0.15300
N 	N 	0.65990 0.81961 0.81193 -0.15100
N 	N 	0.68970 0.83523 0.82715 -0.15500
N 	N 	0.72466 0.85040 0.87861 -0.23000
N 	N 	0.74874 0.87722 0.90750 -0.26200
N 	N 	0.77001 0.90114 0.87506 -0.22700
N 	N 	0.81397 0.90560 0.82863 -0.15100
S 	S 	0.57689 0.70888 0.83475 -0.06100
S 	S 	0.75491 0.88430 0.94984 -0.06200
C 	C 	0.58895 0.85084 0.46878 0.04100
H 	H 	0.60170 0.84400 0.46540 0.01100
C 	C 	0.57155 0.84633 0.45684 -0.05100
C 	C 	0.55267 0.85600 0.46194 0.00900
H 	H 	0.54040 0.85340 0.45400 0.03700
C 	C 	0.55240 0.86944 0.47884 -0.09900
H 	H 	0.53980 0.87610 0.48290 0.06600
C 	C 	0.57076 0.87310 0.48985 0.05900
H 	H 	0.57040 0.88230 0.50150 0.00000
C 	C 	0.65698 0.71879 0.39828 0.09600
C 	C 	0.64137 0.76534 0.41482 0.05600
H 	H 	0.65230 0.75530 0.41360 -0.00100
C 	C 	0.64056 0.77795 0.43264 -0.09800
H 	H 	0.65110 0.77690 0.44300 0.06500
C 	C 	0.62449 0.79177 0.43501 0.00900
H 	H 	0.62350 0.80020 0.44720 0.03700
C 	C 	0.60943 0.79333 0.41906 -0.05000
C 	C 	0.61174 0.78065 0.40169 0.03900
H 	H 	0.60170 0.78180 0.39080 0.01400
C 	C 	0.59209 0.80847 0.42038 0.13400
C 	C 	0.57381 0.83270 0.43823 0.13800
C 	C 	0.56447 0.82422 0.40570 0.14000
C 	C 	0.53758 0.84565 0.38725 0.04400
H 	H 	0.53720 0.85440 0.39930 0.00900
C 	C 	0.55122 0.82836 0.38729 -0.05300
C 	C 	0.55210 0.81601 0.36928 0.00800
H 	H 	0.56120 0.80430 0.36850 0.03800
C 	C 	0.53937 0.82141 0.35256 -0.09700
H 	H 	0.53970 0.81340 0.34000 0.06500
C 	C 	0.52623 0.83842 0.35415 0.05700
H 	H 	0.51750 0.84180 0.34260 0.00200
C 	C 	0.49874 0.88009 0.32496 0.10400
C 	C 	0.48240 0.91707 0.36136 0.06000
H 	H 	0.49270 0.91590 0.35070 0.00000
C 	C 	0.47075 0.93473 0.36214 -0.10000
H 	H 	0.47340 0.94590 0.35270 0.06800
C 	C 	0.45481 0.93645 0.37702 0.00800
H 	H 	0.44630 0.94860 0.37780 0.03800
C 	C 	0.45178 0.91989 0.39067 -0.05200
C 	C 	0.46504 0.90259 0.38923 0.04300
H 	H 	0.46330 0.89140 0.39890 0.01000
C 	C 	0.43567 0.92061 0.40696 0.13400
N 	N 	0.58907 0.86413 0.48473 -0.22600
N 	N 	0.64569 0.72646 0.38623 -0.25800
N 	N 	0.62727 0.76681 0.39933 -0.22600
N 	N 	0.57970 0.81052 0.40364 -0.15300
N 	N 	0.59010 0.81961 0.43807 -0.15100
N 	N 	0.56030 0.83523 0.42285 -0.15500
N 	N 	0.52534 0.85040 0.37139 -0.23000
N 	N 	0.50126 0.87722 0.34250 -0.26200
N 	N 	0.47999 0.90114 0.37494 -0.22700
N 	N 	0.43603 0.90560 0.42137 -0.15100
S 	S 	0.67311 0.70888 0.41525 -0.06100
S 	S 	0.49509 0.88430 0.30016 -0.06200
C 	C 	0.58895 0.35084 0.96878 0.04100
H 	H 	0.60170 0.34400 0.96540 0.01100
C 	C 	0.57155 0.34633 0.95684 -0.05100
C 	C 	0.55267 0.35600 0.96194 0.00900
H 	H 	0.54040 0.35340 0.95400 0.03700
C 	C 	0.55240 0.36944 0.97884 -0.09900
H 	H 	0.53980 0.37610 0.98290 0.06600
C 	C 	0.57076 0.37310 0.98985 0.05900
H 	H 	0.57040 0.38230 0.00150 0.00000
C 	C 	0.65698 0.21879 0.89828 0.09600
C 	C 	0.64137 0.26534 0.91482 0.05600
H 	H 	0.65230 0.25530 0.91360 -0.00100
C 	C 	0.64056 0.27795 0.93264 -0.09800
H 	H 	0.65110 0.27690 0.94300 0.06500
C 	C 	0.62449 0.29177 0.93501 0.00900
H 	H 	0.62350 0.30020 0.94720 0.03700
C 	C 	0.60943 0.29333 0.91906 -0.05000
C 	C 	0.61174 0.28065 0.90169 0.03900
H 	H 	0.60170 0.28180 0.89080 0.01400
C 	C 	0.59209 0.30847 0.92038 0.13400
C 	C 	0.57381 0.33270 0.93823 0.13800
C 	C 	0.56447 0.32422 0.90570 0.14000
C 	C 	0.53758 0.34565 0.88725 0.04400
H 	H 	0.53720 0.35440 0.89930 0.00900
C 	C 	0.55122 0.32836 0.88729 -0.05300
C 	C 	0.55210 0.31601 0.86928 0.00800
H 	H 	0.56120 0.30430 0.86850 0.03800
C 	C 	0.53937 0.32141 0.85256 -0.09700
H 	H 	0.53970 0.31340 0.84000 0.06500
C 	C 	0.52623 0.33842 0.85415 0.05700
H 	H 	0.51750 0.34180 0.84260 0.00200
C 	C 	0.49874 0.38009 0.82496 0.10400
C 	C 	0.48240 0.41707 0.86136 0.06000
H 	H 	0.49270 0.41590 0.85070 0.00000
C 	C 	0.47075 0.43473 0.86214 -0.10000
H 	H 	0.47340 0.44590 0.85270 0.06800
C 	C 	0.45481 0.43645 0.87702 0.00800
H 	H 	0.44630 0.44860 0.87780 0.03800
C 	C 	0.45178 0.41989 0.89067 -0.05200
C 	C 	0.46504 0.40259 0.88923 0.04300
H 	H 	0.46330 0.39140 0.89890 0.01000
C 	C 	0.43567 0.42061 0.90696 0.13400
N 	N 	0.58907 0.36413 0.98473 -0.22600
N 	N 	0.64569 0.22646 0.88623 -0.25800
N 	N 	0.62727 0.26681 0.89933 -0.22600
N 	N 	0.57970 0.31052 0.90364 -0.15300
N 	N 	0.59010 0.31961 0.93807 -0.15100
N 	N 	0.56030 0.33523 0.92285 -0.15500
N 	N 	0.52534 0.35040 0.87139 -0.23000
N 	N 	0.50126 0.37722 0.84250 -0.26200
N 	N 	0.47999 0.40114 0.87494 -0.22700
N 	N 	0.43603 0.40560 0.92137 -0.15100
S 	S 	0.67311 0.20888 0.91525 -0.06100
S 	S 	0.49509 0.38430 0.80016 -0.06200
C 	C 	0.08895 0.85084 0.96878 0.04100
H 	H 	0.10170 0.84400 0.96540 0.01100
C 	C 	0.07155 0.84633 0.95684 -0.05100
C 	C 	0.05267 0.85600 0.96194 0.00900
H 	H 	0.04040 0.85340 0.95400 0.03700
C 	C 	0.05240 0.86944 0.97884 -0.09900
H 	H 	0.03980 0.87610 0.98290 0.06600
C 	C 	0.07076 0.87310 0.98985 0.05900
H 	H 	0.07040 0.88230 0.00150 0.00000
C 	C 	0.15698 0.71879 0.89828 0.09600
C 	C 	0.14137 0.76534 0.91482 0.05600
H 	H 	0.15230 0.75530 0.91360 -0.00100
C 	C 	0.14056 0.77795 0.93264 -0.09800
H 	H 	0.15110 0.77690 0.94300 0.06500
C 	C 	0.12449 0.79177 0.93501 0.00900
H 	H 	0.12350 0.80020 0.94720 0.03700
C 	C 	0.10943 0.79333 0.91906 -0.05000
C 	C 	0.11174 0.78065 0.90169 0.03900
H 	H 	0.10170 0.78180 0.89080 0.01400
C 	C 	0.09209 0.80847 0.92038 0.13400
C 	C 	0.07381 0.83270 0.93823 0.13800
C 	C 	0.06447 0.82422 0.90570 0.14000
C 	C 	0.03758 0.84565 0.88725 0.04400
H 	H 	0.03720 0.85440 0.89930 0.00900
C 	C 	0.05122 0.82836 0.88729 -0.05300
C 	C 	0.05210 0.81601 0.86928 0.00800
H 	H 	0.06120 0.80430 0.86850 0.03800
C 	C 	0.03937 0.82141 0.85256 -0.09700
H 	H 	0.03970 0.81340 0.84000 0.06500
C 	C 	0.02623 0.83842 0.85415 0.05700
H 	H 	0.01750 0.84180 0.84260 0.00200
C 	C 	0.99874 0.88009 0.82496 0.10400
C 	C 	0.98240 0.91707 0.86136 0.06000
H 	H 	0.99270 0.91590 0.85070 0.00000
C 	C 	0.97075 0.93473 0.86214 -0.10000
H 	H 	0.97340 0.94590 0.85270 0.06800
C 	C 	0.95481 0.93645 0.87702 0.00800
H 	H 	0.94630 0.94860 0.87780 0.03800
C 	C 	0.95178 0.91989 0.89067 -0.05200
C 	C 	0.96504 0.90259 0.88923 0.04300
H 	H 	0.96330 0.89140 0.89890 0.01000
C 	C 	0.93567 0.92061 0.90696 0.13400
N 	N 	0.08907 0.86413 0.98473 -0.22600
N 	N 	0.14569 0.72646 0.88623 -0.25800
N 	N 	0.12727 0.76681 0.89933 -0.22600
N 	N 	0.07970 0.81052 0.90364 -0.15300
N 	N 	0.09010 0.81961 0.93807 -0.15100
N 	N 	0.06030 0.83523 0.92285 -0.15500
N 	N 	0.02534 0.85040 0.87139 -0.23000
N 	N 	0.00126 0.87722 0.84250 -0.26200
N 	N 	0.97999 0.90114 0.87494 -0.22700
N 	N 	0.93603 0.90560 0.92137 -0.15100
S 	S 	0.17311 0.70888 0.91525 -0.06100
S 	S 	0.99509 0.88430 0.80016 -0.06200
C 	C 	0.08895 0.35084 0.46878 0.04100
H 	H 	0.10170 0.34400 0.46540 0.01100
C 	C 	0.07155 0.34633 0.45684 -0.05100
C 	C 	0.05267 0.35600 0.46194 0.00900
H 	H 	0.04040 0.35340 0.45400 0.03700
C 	C 	0.05240 0.36944 0.47884 -0.09900
H 	H 	0.03980 0.37610 0.48290 0.06600
C 	C 	0.07076 0.37310 0.48985 0.05900
H 	H 	0.07040 0.38230 0.50150 0.00000
C 	C 	0.15698 0.21879 0.39828 0.09600
C 	C 	0.14137 0.26534 0.41482 0.05600
H 	H 	0.15230 0.25530 0.41360 -0.00100
C 	C 	0.14056 0.27795 0.43264 -0.09800
H 	H 	0.15110 0.27690 0.44300 0.06500
C 	C 	0.12449 0.29177 0.43501 0.00900
H 	H 	0.12350 0.30020 0.44720 0.03700
C 	C 	0.10943 0.29333 0.41906 -0.05000
C 	C 	0.11174 0.28065 0.40169 0.03900
H 	H 	0.10170 0.28180 0.39080 0.01400
C 	C 	0.09209 0.30847 0.42038 0.13400
C 	C 	0.07381 0.33270 0.43823 0.13800
C 	C 	0.06447 0.32422 0.40570 0.14000
C 	C 	0.03758 0.34565 0.38725 0.04400
H 	H 	0.03720 0.35440 0.39930 0.00900
C 	C 	0.05122 0.32836 0.38729 -0.05300
C 	C 	0.05210 0.31601 0.36928 0.00800
H 	H 	0.06120 0.30430 0.36850 0.03800
C 	C 	0.03937 0.32141 0.35256 -0.09700
H 	H 	0.03970 0.31340 0.34000 0.06500
C 	C 	0.02623 0.33842 0.35415 0.05700
H 	H 	0.01750 0.34180 0.34260 0.00200
C 	C 	0.99874 0.38009 0.32496 0.10400
C 	C 	0.98240 0.41707 0.36136 0.06000
H 	H 	0.99270 0.41590 0.35070 0.00000
C 	C 	0.97075 0.43473 0.36214 -0.10000
H 	H 	0.97340 0.44590 0.35270 0.06800
C 	C 	0.95481 0.43645 0.37702 0.00800
H 	H 	0.94630 0.44860 0.37780 0.03800
C 	C 	0.95178 0.41989 0.39067 -0.05200
C 	C 	0.96504 0.40259 0.38923 0.04300
H 	H 	0.96330 0.39140 0.39890 0.01000
C 	C 	0.93567 0.42061 0.40696 0.13400
N 	N 	0.08907 0.36413 0.48473 -0.22600
N 	N 	0.14569 0.22646 0.38623 -0.25800
N 	N 	0.12727 0.26681 0.39933 -0.22600
N 	N 	0.07970 0.31052 0.40364 -0.15300
N 	N 	0.09010 0.31961 0.43807 -0.15100
N 	N 	0.06030 0.33523 0.42285 -0.15500
N 	N 	0.02534 0.35040 0.37139 -0.23000
N 	N 	0.00126 0.37722 0.34250 -0.26200
N 	N 	0.97999 0.40114 0.37494 -0.22700
N 	N 	0.93603 0.40560 0.42137 -0.15100
S 	S 	0.17311 0.20888 0.41525 -0.06100
S 	S 	0.99509 0.38430 0.30016 -0.06200
C 	C 	0.08895 0.39916 0.28122 0.04100
H 	H 	0.10170 0.40600 0.28460 0.01100
C 	C 	0.07155 0.40367 0.29316 -0.05100
C 	C 	0.05267 0.39400 0.28806 0.00900
H 	H 	0.04040 0.39660 0.29600 0.03700
C 	C 	0.05240 0.38056 0.27116 -0.09900
H 	H 	0.03980 0.37390 0.26710 0.06600
C 	C 	0.07076 0.37690 0.26015 0.05900
H 	H 	0.07040 0.36770 0.24850 0.00000
C 	C 	0.15698 0.53121 0.35172 0.09600
C 	C 	0.14137 0.48466 0.33518 0.05600
H 	H 	0.15230 0.49470 0.33640 -0.00100
C 	C 	0.14056 0.47205 0.31736 -0.09800
H 	H 	0.15110 0.47310 0.30700 0.06500
C 	C 	0.12449 0.45823 0.31499 0.00900
H 	H 	0.12350 0.44980 0.30280 0.03700
C 	C 	0.10943 0.45667 0.33094 -0.05000
C 	C 	0.11174 0.46935 0.34831 0.03900
H 	H 	0.10170 0.46820 0.35920 0.01400
C 	C 	0.09209 0.44153 0.32962 0.13400
C 	C 	0.07381 0.41730 0.31177 0.13800
C 	C 	0.06447 0.42578 0.34430 0.14000
C 	C 	0.03758 0.40435 0.36275 0.04400
H 	H 	0.03720 0.39560 0.35070 0.00900
C 	C 	0.05122 0.42164 0.36271 -0.05300
C 	C 	0.05210 0.43399 0.38072 0.00800
H 	H 	0.06120 0.44570 0.38150 0.03800
C 	C 	0.03937 0.42859 0.39744 -0.09700
H 	H 	0.03970 0.43660 0.41000 0.06500
C 	C 	0.02623 0.41158 0.39585 0.05700
H 	H 	0.01750 0.40820 0.40740 0.00200
C 	C 	0.99874 0.36991 0.42504 0.10400
C 	C 	0.98240 0.33293 0.38864 0.06000
H 	H 	0.99270 0.33410 0.39930 0.00000
C 	C 	0.97075 0.31527 0.38786 -0.10000
H 	H 	0.97340 0.30410 0.39730 0.06800
C 	C 	0.95481 0.31355 0.37298 0.00800
H 	H 	0.94630 0.30140 0.37220 0.03800
C 	C 	0.95178 0.33011 0.35933 -0.05200
C 	C 	0.96504 0.34741 0.36077 0.04300
H 	H 	0.96330 0.35860 0.35110 0.01000
C 	C 	0.93567 0.32939 0.34304 0.13400
N 	N 	0.08907 0.38587 0.26527 -0.22600
N 	N 	0.14569 0.52354 0.36377 -0.25800
N 	N 	0.12727 0.48319 0.35067 -0.22600
N 	N 	0.07970 0.43948 0.34636 -0.15300
N 	N 	0.09010 0.43039 0.31193 -0.15100
N 	N 	0.06030 0.41477 0.32715 -0.15500
N 	N 	0.02534 0.39960 0.37861 -0.23000
N 	N 	0.00126 0.37278 0.40750 -0.26200
N 	N 	0.97999 0.34886 0.37506 -0.22700
N 	N 	0.93603 0.34440 0.32863 -0.15100
S 	S 	0.17311 0.54112 0.33475 -0.06100
S 	S 	0.99509 0.36570 0.44984 -0.06200
C 	C 	0.08895 0.89916 0.78122 0.04100
H 	H 	0.10170 0.90600 0.78460 0.01100
C 	C 	0.07155 0.90367 0.79316 -0.05100
C 	C 	0.05267 0.89400 0.78806 0.00900
H 	H 	0.04040 0.89660 0.79600 0.03700
C 	C 	0.05240 0.88056 0.77116 -0.09900
H 	H 	0.03980 0.87390 0.76710 0.06600
C 	C 	0.07076 0.87690 0.76015 0.05900
H 	H 	0.07040 0.86770 0.74850 0.00000
C 	C 	0.15698 0.03121 0.85172 0.09600
C 	C 	0.14137 0.98466 0.83518 0.05600
H 	H 	0.15230 0.99470 0.83640 -0.00100
C 	C 	0.14056 0.97205 0.81736 -0.09800
H 	H 	0.15110 0.97310 0.80700 0.06500
C 	C 	0.12449 0.95823 0.81499 0.00900
H 	H 	0.12350 0.94980 0.80280 0.03700
C 	C 	0.10943 0.95667 0.83094 -0.05000
C 	C 	0.11174 0.96935 0.84831 0.03900
H 	H 	0.10170 0.96820 0.85920 0.01400
C 	C 	0.09209 0.94153 0.82962 0.13400
C 	C 	0.07381 0.91730 0.81177 0.13800
C 	C 	0.06447 0.92578 0.84430 0.14000
C 	C 	0.03758 0.90435 0.86275 0.04400
H 	H 	0.03720 0.89560 0.85070 0.00900
C 	C 	0.05122 0.92164 0.86271 -0.05300
C 	C 	0.05210 0.93399 0.88072 0.00800
H 	H 	0.06120 0.94570 0.88150 0.03800
C 	C 	0.03937 0.92859 0.89744 -0.09700
H 	H 	0.03970 0.93660 0.91000 0.06500
C 	C 	0.02623 0.91158 0.89585 0.05700
H 	H 	0.01750 0.90820 0.90740 0.00200
C 	C 	0.99874 0.86991 0.92504 0.10400
C 	C 	0.98240 0.83293 0.88864 0.06000
H 	H 	0.99270 0.83410 0.89930 0.00000
C 	C 	0.97075 0.81527 0.88786 -0.10000
H 	H 	0.97340 0.80410 0.89730 0.06800
C 	C 	0.95481 0.81355 0.87298 0.00800
H 	H 	0.94630 0.80140 0.87220 0.03800
C 	C 	0.95178 0.83011 0.85933 -0.05200
C 	C 	0.96504 0.84741 0.86077 0.04300
H 	H 	0.96330 0.85860 0.85110 0.01000
C 	C 	0.93567 0.82939 0.84304 0.13400
N 	N 	0.08907 0.88587 0.76527 -0.22600
N 	N 	0.14569 0.02354 0.86377 -0.25800
N 	N 	0.12727 0.98319 0.85067 -0.22600
N 	N 	0.07970 0.93948 0.84636 -0.15300
N 	N 	0.09010 0.93039 0.81193 -0.15100
N 	N 	0.06030 0.91477 0.82715 -0.15500
N 	N 	0.02534 0.89960 0.87861 -0.23000
N 	N 	0.00126 0.87278 0.90750 -0.26200
N 	N 	0.97999 0.84886 0.87506 -0.22700
N 	N 	0.93603 0.84440 0.82863 -0.15100
S 	S 	0.17311 0.04112 0.83475 -0.06100
S 	S 	0.99509 0.86570 0.94984 -0.06200
C 	C 	0.58895 0.39916 0.78122 0.04100
H 	H 	0.60170 0.40600 0.78460 0.01100
C 	C 	0.57155 0.40367 0.79316 -0.05100
C 	C 	0.55267 0.39400 0.78806 0.00900
H 	H 	0.54040 0.39660 0.79600 0.03700
C 	C 	0.55240 0.38056 0.77116 -0.09900
H 	H 	0.53980 0.37390 0.76710 0.06600
C 	C 	0.57076 0.37690 0.76015 0.05900
H 	H 	0.57040 0.36770 0.74850 0.00000
C 	C 	0.65698 0.53121 0.85172 0.09600
C 	C 	0.64137 0.48466 0.83518 0.05600
H 	H 	0.65230 0.49470 0.83640 -0.00100
C 	C 	0.64056 0.47205 0.81736 -0.09800
H 	H 	0.65110 0.47310 0.80700 0.06500
C 	C 	0.62449 0.45823 0.81499 0.00900
H 	H 	0.62350 0.44980 0.80280 0.03700
C 	C 	0.60943 0.45667 0.83094 -0.05000
C 	C 	0.61174 0.46935 0.84831 0.03900
H 	H 	0.60170 0.46820 0.85920 0.01400
C 	C 	0.59209 0.44153 0.82962 0.13400
C 	C 	0.57381 0.41730 0.81177 0.13800
C 	C 	0.56447 0.42578 0.84430 0.14000
C 	C 	0.53758 0.40435 0.86275 0.04400
H 	H 	0.53720 0.39560 0.85070 0.00900
C 	C 	0.55122 0.42164 0.86271 -0.05300
C 	C 	0.55210 0.43399 0.88072 0.00800
H 	H 	0.56120 0.44570 0.88150 0.03800
C 	C 	0.53937 0.42859 0.89744 -0.09700
H 	H 	0.53970 0.43660 0.91000 0.06500
C 	C 	0.52623 0.41158 0.89585 0.05700
H 	H 	0.51750 0.40820 0.90740 0.00200
C 	C 	0.49874 0.36991 0.92504 0.10400
C 	C 	0.48240 0.33293 0.88864 0.06000
H 	H 	0.49270 0.33410 0.89930 0.00000
C 	C 	0.47075 0.31527 0.88786 -0.10000
H 	H 	0.47340 0.30410 0.89730 0.06800
C 	C 	0.45481 0.31355 0.87298 0.00800
H 	H 	0.44630 0.30140 0.87220 0.03800
C 	C 	0.45178 0.33011 0.85933 -0.05200
C 	C 	0.46504 0.34741 0.86077 0.04300
H 	H 	0.46330 0.35860 0.85110 0.01000
C 	C 	0.43567 0.32939 0.84304 0.13400
N 	N 	0.58907 0.38587 0.76527 -0.22600
N 	N 	0.64569 0.52354 0.86377 -0.25800
N 	N 	0.62727 0.48319 0.85067 -0.22600
N 	N 	0.57970 0.43948 0.84636 -0.15300
N 	N 	0.59010 0.43039 0.81193 -0.15100
N 	N 	0.56030 0.41477 0.82715 -0.15500
N 	N 	0.52534 0.39960 0.87861 -0.23000
N 	N 	0.50126 0.37278 0.90750 -0.26200
N 	N 	0.47999 0.34886 0.87506 -0.22700
N 	N 	0.43603 0.34440 0.82863 -0.15100
S 	S 	0.67311 0.54112 0.83475 -0.06100
S 	S 	0.49509 0.36570 0.94984 -0.06200
C 	C 	0.58895 0.89916 0.28122 0.04100
H 	H 	0.60170 0.90600 0.28460 0.01100
C 	C 	0.57155 0.90367 0.29316 -0.05100
C 	C 	0.55267 0.89400 0.28806 0.00900
H 	H 	0.54040 0.89660 0.29600 0.03700
C 	C 	0.55240 0.88056 0.27116 -0.09900
H 	H 	0.53980 0.87390 0.26710 0.06600
C 	C 	0.57076 0.87690 0.26015 0.05900
H 	H 	0.57040 0.86770 0.24850 0.00000
C 	C 	0.65698 0.03121 0.35172 0.09600
C 	C 	0.64137 0.98466 0.33518 0.05600
H 	H 	0.65230 0.99470 0.33640 -0.00100
C 	C 	0.64056 0.97205 0.31736 -0.09800
H 	H 	0.65110 0.97310 0.30700 0.06500
C 	C 	0.62449 0.95823 0.31499 0.00900
H 	H 	0.62350 0.94980 0.30280 0.03700
C 	C 	0.60943 0.95667 0.33094 -0.05000
C 	C 	0.61174 0.96935 0.34831 0.03900
H 	H 	0.60170 0.96820 0.35920 0.01400
C 	C 	0.59209 0.94153 0.32962 0.13400
C 	C 	0.57381 0.91730 0.31177 0.13800
C 	C 	0.56447 0.92578 0.34430 0.14000
C 	C 	0.53758 0.90435 0.36275 0.04400
H 	H 	0.53720 0.89560 0.35070 0.00900
C 	C 	0.55122 0.92164 0.36271 -0.05300
C 	C 	0.55210 0.93399 0.38072 0.00800
H 	H 	0.56120 0.94570 0.38150 0.03800
C 	C 	0.53937 0.92859 0.39744 -0.09700
H 	H 	0.53970 0.93660 0.41000 0.06500
C 	C 	0.52623 0.91158 0.39585 0.05700
H 	H 	0.51750 0.90820 0.40740 0.00200
C 	C 	0.49874 0.86991 0.42504 0.10400
C 	C 	0.48240 0.83293 0.38864 0.06000
H 	H 	0.49270 0.83410 0.39930 0.00000
C 	C 	0.47075 0.81527 0.38786 -0.10000
H 	H 	0.47340 0.80410 0.39730 0.06800
C 	C 	0.45481 0.81355 0.37298 0.00800
H 	H 	0.44630 0.80140 0.37220 0.03800
C 	C 	0.45178 0.83011 0.35933 -0.05200
C 	C 	0.46504 0.84741 0.36077 0.04300
H 	H 	0.46330 0.85860 0.35110 0.01000
C 	C 	0.43567 0.82939 0.34304 0.13400
N 	N 	0.58907 0.88587 0.26527 -0.22600
N 	N 	0.64569 0.02354 0.36377 -0.25800
N 	N 	0.62727 0.98319 0.35067 -0.22600
N 	N 	0.57970 0.93948 0.34636 -0.15300
N 	N 	0.59010 0.93039 0.31193 -0.15100
N 	N 	0.56030 0.91477 0.32715 -0.15500
N 	N 	0.52534 0.89960 0.37861 -0.23000
N 	N 	0.50126 0.87278 0.40750 -0.26200
N 	N 	0.47999 0.84886 0.37506 -0.22700
N 	N 	0.43603 0.84440 0.32863 -0.15100
S 	S 	0.67311 0.04112 0.33475 -0.06100
S 	S 	0.49509 0.86570 0.44984 -0.06200
C 	C 	0.66105 0.89916 0.96878 0.04100
H 	H 	0.64830 0.90600 0.96540 0.01100
C 	C 	0.67845 0.90367 0.95684 -0.05100
C 	C 	0.69733 0.89400 0.96194 0.00900
H 	H 	0.70960 0.89660 0.95400 0.03700
C 	C 	0.69760 0.88056 0.97884 -0.09900
H 	H 	0.71020 0.87390 0.98290 0.06600
C 	C 	0.67924 0.87690 0.98985 0.05900
H 	H 	0.67960 0.86770 0.00150 0.00000
C 	C 	0.59302 0.03121 0.89828 0.09600
C 	C 	0.60863 0.98466 0.91482 0.05600
H 	H 	0.59770 0.99470 0.91360 -0.00100
C 	C 	0.60944 0.97205 0.93264 -0.09800
H 	H 	0.59890 0.97310 0.94300 0.06500
C 	C 	0.62551 0.95823 0.93501 0.00900
H 	H 	0.62650 0.94980 0.94720 0.03700
C 	C 	0.64057 0.95667 0.91906 -0.05000
C 	C 	0.63826 0.96935 0.90169 0.03900
H 	H 	0.64830 0.96820 0.89080 0.01400
C 	C 	0.65791 0.94153 0.92038 0.13400
C 	C 	0.67619 0.91730 0.93823 0.13800
C 	C 	0.68553 0.92578 0.90570 0.14000
C 	C 	0.71242 0.90435 0.88725 0.04400
H 	H 	0.71280 0.89560 0.89930 0.00900
C 	C 	0.69878 0.92164 0.88729 -0.05300
C 	C 	0.69790 0.93399 0.86928 0.00800
H 	H 	0.68880 0.94570 0.86850 0.03800
C 	C 	0.71063 0.92859 0.85256 -0.09700
H 	H 	0.71030 0.93660 0.84000 0.06500
C 	C 	0.72377 0.91158 0.85415 0.05700
H 	H 	0.73250 0.90820 0.84260 0.00200
C 	C 	0.75126 0.86991 0.82496 0.10400
C 	C 	0.76760 0.83293 0.86136 0.06000
H 	H 	0.75730 0.83410 0.85070 0.00000
C 	C 	0.77925 0.81527 0.86214 -0.10000
H 	H 	0.77660 0.80410 0.85270 0.06800
C 	C 	0.79519 0.81355 0.87702 0.00800
H 	H 	0.80370 0.80140 0.87780 0.03800
C 	C 	0.79822 0.83011 0.89067 -0.05200
C 	C 	0.78496 0.84741 0.88923 0.04300
H 	H 	0.78670 0.85860 0.89890 0.01000
C 	C 	0.81433 0.82939 0.90696 0.13400
N 	N 	0.66093 0.88587 0.98473 -0.22600
N 	N 	0.60431 0.02354 0.88623 -0.25800
N 	N 	0.62273 0.98319 0.89933 -0.22600
N 	N 	0.67030 0.93948 0.90364 -0.15300
N 	N 	0.65990 0.93039 0.93807 -0.15100
N 	N 	0.68970 0.91477 0.92285 -0.15500
N 	N 	0.72466 0.89960 0.87139 -0.23000
N 	N 	0.74874 0.87278 0.84250 -0.26200
N 	N 	0.77001 0.84886 0.87494 -0.22700
N 	N 	0.81397 0.84440 0.92137 -0.15100
S 	S 	0.57689 0.04112 0.91525 -0.06100
S 	S 	0.75491 0.86570 0.80016 -0.06200
C 	C 	0.66105 0.39916 0.46878 0.04100
H 	H 	0.64830 0.40600 0.46540 0.01100
C 	C 	0.67845 0.40367 0.45684 -0.05100
C 	C 	0.69733 0.39400 0.46194 0.00900
H 	H 	0.70960 0.39660 0.45400 0.03700
C 	C 	0.69760 0.38056 0.47884 -0.09900
H 	H 	0.71020 0.37390 0.48290 0.06600
C 	C 	0.67924 0.37690 0.48985 0.05900
H 	H 	0.67960 0.36770 0.50150 0.00000
C 	C 	0.59302 0.53121 0.39828 0.09600
C 	C 	0.60863 0.48466 0.41482 0.05600
H 	H 	0.59770 0.49470 0.41360 -0.00100
C 	C 	0.60944 0.47205 0.43264 -0.09800
H 	H 	0.59890 0.47310 0.44300 0.06500
C 	C 	0.62551 0.45823 0.43501 0.00900
H 	H 	0.62650 0.44980 0.44720 0.03700
C 	C 	0.64057 0.45667 0.41906 -0.05000
C 	C 	0.63826 0.46935 0.40169 0.03900
H 	H 	0.64830 0.46820 0.39080 0.01400
C 	C 	0.65791 0.44153 0.42038 0.13400
C 	C 	0.67619 0.41730 0.43823 0.13800
C 	C 	0.68553 0.42578 0.40570 0.14000
C 	C 	0.71242 0.40435 0.38725 0.04400
H 	H 	0.71280 0.39560 0.39930 0.00900
C 	C 	0.69878 0.42164 0.38729 -0.05300
C 	C 	0.69790 0.43399 0.36928 0.00800
H 	H 	0.68880 0.44570 0.36850 0.03800
C 	C 	0.71063 0.42859 0.35256 -0.09700
H 	H 	0.71030 0.43660 0.34000 0.06500
C 	C 	0.72377 0.41158 0.35415 0.05700
H 	H 	0.73250 0.40820 0.34260 0.00200
C 	C 	0.75126 0.36991 0.32496 0.10400
C 	C 	0.76760 0.33293 0.36136 0.06000
H 	H 	0.75730 0.33410 0.35070 0.00000
C 	C 	0.77925 0.31527 0.36214 -0.10000
H 	H 	0.77660 0.30410 0.35270 0.06800
C 	C 	0.79519 0.31355 0.37702 0.00800
H 	H 	0.80370 0.30140 0.37780 0.03800
C 	C 	0.79822 0.33011 0.39067 -0.05200
C 	C 	0.78496 0.34741 0.38923 0.04300
H 	H 	0.78670 0.35860 0.39890 0.01000
C 	C 	0.81433 0.32939 0.40696 0.13400
N 	N 	0.66093 0.38587 0.48473 -0.22600
N 	N 	0.60431 0.52354 0.38623 -0.25800
N 	N 	0.62273 0.48319 0.39933 -0.22600
N 	N 	0.67030 0.43948 0.40364 -0.15300
N 	N 	0.65990 0.43039 0.43807 -0.15100
N 	N 	0.68970 0.41477 0.42285 -0.15500
N 	N 	0.72466 0.39960 0.37139 -0.23000
N 	N 	0.74874 0.37278 0.34250 -0.26200
N 	N 	0.77001 0.34886 0.37494 -0.22700
N 	N 	0.81397 0.34440 0.42137 -0.15100
S 	S 	0.57689 0.54112 0.41525 -0.06100
S 	S 	0.75491 0.36570 0.30016 -0.06200
C 	C 	0.16105 0.89916 0.46878 0.04100
H 	H 	0.14830 0.90600 0.46540 0.01100
C 	C 	0.17845 0.90367 0.45684 -0.05100
C 	C 	0.19733 0.89400 0.46194 0.00900
H 	H 	0.20960 0.89660 0.45400 0.03700
C 	C 	0.19760 0.88056 0.47884 -0.09900
H 	H 	0.21020 0.87390 0.48290 0.06600
C 	C 	0.17924 0.87690 0.48985 0.05900
H 	H 	0.17960 0.86770 0.50150 0.00000
C 	C 	0.09302 0.03121 0.39828 0.09600
C 	C 	0.10863 0.98466 0.41482 0.05600
H 	H 	0.09770 0.99470 0.41360 -0.00100
C 	C 	0.10944 0.97205 0.43264 -0.09800
H 	H 	0.09890 0.97310 0.44300 0.06500
C 	C 	0.12551 0.95823 0.43501 0.00900
H 	H 	0.12650 0.94980 0.44720 0.03700
C 	C 	0.14057 0.95667 0.41906 -0.05000
C 	C 	0.13826 0.96935 0.40169 0.03900
H 	H 	0.14830 0.96820 0.39080 0.01400
C 	C 	0.15791 0.94153 0.42038 0.13400
C 	C 	0.17619 0.91730 0.43823 0.13800
C 	C 	0.18553 0.92578 0.40570 0.14000
C 	C 	0.21242 0.90435 0.38725 0.04400
H 	H 	0.21280 0.89560 0.39930 0.00900
C 	C 	0.19878 0.92164 0.38729 -0.05300
C 	C 	0.19790 0.93399 0.36928 0.00800
H 	H 	0.18880 0.94570 0.36850 0.03800
C 	C 	0.21063 0.92859 0.35256 -0.09700
H 	H 	0.21030 0.93660 0.34000 0.06500
C 	C 	0.22377 0.91158 0.35415 0.05700
H 	H 	0.23250 0.90820 0.34260 0.00200
C 	C 	0.25126 0.86991 0.32496 0.10400
C 	C 	0.26760 0.83293 0.36136 0.06000
H 	H 	0.25730 0.83410 0.35070 0.00000
C 	C 	0.27925 0.81527 0.36214 -0.10000
H 	H 	0.27660 0.80410 0.35270 0.06800
C 	C 	0.29519 0.81355 0.37702 0.00800
H 	H 	0.30370 0.80140 0.37780 0.03800
C 	C 	0.29822 0.83011 0.39067 -0.05200
C 	C 	0.28496 0.84741 0.38923 0.04300
H 	H 	0.28670 0.85860 0.39890 0.01000
C 	C 	0.31433 0.82939 0.40696 0.13400
N 	N 	0.16093 0.88587 0.48473 -0.22600
N 	N 	0.10431 0.02354 0.38623 -0.25800
N 	N 	0.12273 0.98319 0.39933 -0.22600
N 	N 	0.17030 0.93948 0.40364 -0.15300
N 	N 	0.15990 0.93039 0.43807 -0.15100
N 	N 	0.18970 0.91477 0.42285 -0.15500
N 	N 	0.22466 0.89960 0.37139 -0.23000
N 	N 	0.24874 0.87278 0.34250 -0.26200
N 	N 	0.27001 0.84886 0.37494 -0.22700
N 	N 	0.31397 0.84440 0.42137 -0.15100
S 	S 	0.07689 0.04112 0.41525 -0.06100
S 	S 	0.25491 0.86570 0.30016 -0.06200
C 	C 	0.16105 0.39916 0.96878 0.04100
H 	H 	0.14830 0.40600 0.96540 0.01100
C 	C 	0.17845 0.40367 0.95684 -0.05100
C 	C 	0.19733 0.39400 0.96194 0.00900
H 	H 	0.20960 0.39660 0.95400 0.03700
C 	C 	0.19760 0.38056 0.97884 -0.09900
H 	H 	0.21020 0.37390 0.98290 0.06600
C 	C 	0.17924 0.37690 0.98985 0.05900
H 	H 	0.17960 0.36770 0.00150 0.00000
C 	C 	0.09302 0.53121 0.89828 0.09600
C 	C 	0.10863 0.48466 0.91482 0.05600
H 	H 	0.09770 0.49470 0.91360 -0.00100
C 	C 	0.10944 0.47205 0.93264 -0.09800
H 	H 	0.09890 0.47310 0.94300 0.06500
C 	C 	0.12551 0.45823 0.93501 0.00900
H 	H 	0.12650 0.44980 0.94720 0.03700
C 	C 	0.14057 0.45667 0.91906 -0.05000
C 	C 	0.13826 0.46935 0.90169 0.03900
H 	H 	0.14830 0.46820 0.89080 0.01400
C 	C 	0.15791 0.44153 0.92038 0.13400
C 	C 	0.17619 0.41730 0.93823 0.13800
C 	C 	0.18553 0.42578 0.90570 0.14000
C 	C 	0.21242 0.40435 0.88725 0.04400
H 	H 	0.21280 0.39560 0.89930 0.00900
C 	C 	0.19878 0.42164 0.88729 -0.05300
C 	C 	0.19790 0.43399 0.86928 0.00800
H 	H 	0.18880 0.44570 0.86850 0.03800
C 	C 	0.21063 0.42859 0.85256 -0.09700
H 	H 	0.21030 0.43660 0.84000 0.06500
C 	C 	0.22377 0.41158 0.85415 0.05700
H 	H 	0.23250 0.40820 0.84260 0.00200
C 	C 	0.25126 0.36991 0.82496 0.10400
C 	C 	0.26760 0.33293 0.86136 0.06000
H 	H 	0.25730 0.33410 0.85070 0.00000
C 	C 	0.27925 0.31527 0.86214 -0.10000
H 	H 	0.27660 0.30410 0.85270 0.06800
C 	C 	0.29519 0.31355 0.87702 0.00800
H 	H 	0.30370 0.30140 0.87780 0.03800
C 	C 	0.29822 0.33011 0.89067 -0.05200
C 	C 	0.28496 0.34741 0.88923 0.04300
H 	H 	0.28670 0.35860 0.89890 0.01000
C 	C 	0.31433 0.32939 0.90696 0.13400
N 	N 	0.16093 0.38587 0.98473 -0.22600
N 	N 	0.10431 0.52354 0.88623 -0.25800
N 	N 	0.12273 0.48319 0.89933 -0.22600
N 	N 	0.17030 0.43948 0.90364 -0.15300
N 	N 	0.15990 0.43039 0.93807 -0.15100
N 	N 	0.18970 0.41477 0.92285 -0.15500
N 	N 	0.22466 0.39960 0.87139 -0.23000
N 	N 	0.24874 0.37278 0.84250 -0.26200
N 	N 	0.27001 0.34886 0.87494 -0.22700
N 	N 	0.31397 0.34440 0.92137 -0.15100
S 	S 	0.07689 0.54112 0.91525 -0.06100
S 	S 	0.25491 0.36570 0.80016 -0.06200
C 	C 	0.85084 0.46878 0.58895 0.04100
H 	H 	0.84400 0.46540 0.60170 0.01100
C 	C 	0.84633 0.45684 0.57155 -0.05100
C 	C 	0.85600 0.46194 0.55267 0.00900
H 	H 	0.85340 0.45400 0.54040 0.03700
C 	C 	0.86944 0.47884 0.55240 -0.09900
H 	H 	0.87610 0.48290 0.53980 0.06600
C 	C 	0.87310 0.48985 0.57076 0.05900
H 	H 	0.88230 0.50150 0.57040 0.00000
C 	C 	0.71879 0.39828 0.65698 0.09600
C 	C 	0.76534 0.41482 0.64137 0.05600
H 	H 	0.75530 0.41360 0.65230 -0.00100
C 	C 	0.77795 0.43264 0.64056 -0.09800
H 	H 	0.77690 0.44300 0.65110 0.06500
C 	C 	0.79177 0.43501 0.62449 0.00900
H 	H 	0.80020 0.44720 0.62350 0.03700
C 	C 	0.79333 0.41906 0.60943 -0.05000
C 	C 	0.78065 0.40169 0.61174 0.03900
H 	H 	0.78180 0.39080 0.60170 0.01400
C 	C 	0.80847 0.42038 0.59209 0.13400
C 	C 	0.83270 0.43823 0.57381 0.13800
C 	C 	0.82422 0.40570 0.56447 0.14000
C 	C 	0.84565 0.38725 0.53758 0.04400
H 	H 	0.85440 0.39930 0.53720 0.00900
C 	C 	0.82836 0.38729 0.55122 -0.05300
C 	C 	0.81601 0.36928 0.55210 0.00800
H 	H 	0.80430 0.36850 0.56120 0.03800
C 	C 	0.82141 0.35256 0.53937 -0.09700
H 	H 	0.81340 0.34000 0.53970 0.06500
C 	C 	0.83842 0.35415 0.52623 0.05700
H 	H 	0.84180 0.34260 0.51750 0.00200
C 	C 	0.88009 0.32496 0.49874 0.10400
C 	C 	0.91707 0.36136 0.48240 0.06000
H 	H 	0.91590 0.35070 0.49270 0.00000
C 	C 	0.93473 0.36214 0.47075 -0.10000
H 	H 	0.94590 0.35270 0.47340 0.06800
C 	C 	0.93645 0.37702 0.45481 0.00800
H 	H 	0.94860 0.37780 0.44630 0.03800
C 	C 	0.91989 0.39067 0.45178 -0.05200
C 	C 	0.90259 0.38923 0.46504 0.04300
H 	H 	0.89140 0.39890 0.46330 0.01000
C 	C 	0.92061 0.40696 0.43567 0.13400
N 	N 	0.86413 0.48473 0.58907 -0.22600
N 	N 	0.72646 0.38623 0.64569 -0.25800
N 	N 	0.76681 0.39933 0.62727 -0.22600
N 	N 	0.81052 0.40364 0.57970 -0.15300
N 	N 	0.81961 0.43807 0.59010 -0.15100
N 	N 	0.83523 0.42285 0.56030 -0.15500
N 	N 	0.85040 0.37139 0.52534 -0.23000
N 	N 	0.87722 0.34250 0.50126 -0.26200
N 	N 	0.90114 0.37494 0.47999 -0.22700
N 	N 	0.90560 0.42137 0.43603 -0.15100
S 	S 	0.70888 0.41525 0.67311 -0.06100
S 	S 	0.88430 0.30016 0.49509 -0.06200
C 	C 	0.85084 0.96878 0.08895 0.04100
H 	H 	0.84400 0.96540 0.10170 0.01100
C 	C 	0.84633 0.95684 0.07155 -0.05100
C 	C 	0.85600 0.96194 0.05267 0.00900
H 	H 	0.85340 0.95400 0.04040 0.03700
C 	C 	0.86944 0.97884 0.05240 -0.09900
H 	H 	0.87610 0.98290 0.03980 0.06600
C 	C 	0.87310 0.98985 0.07076 0.05900
H 	H 	0.88230 0.00150 0.07040 0.00000
C 	C 	0.71879 0.89828 0.15698 0.09600
C 	C 	0.76534 0.91482 0.14137 0.05600
H 	H 	0.75530 0.91360 0.15230 -0.00100
C 	C 	0.77795 0.93264 0.14056 -0.09800
H 	H 	0.77690 0.94300 0.15110 0.06500
C 	C 	0.79177 0.93501 0.12449 0.00900
H 	H 	0.80020 0.94720 0.12350 0.03700
C 	C 	0.79333 0.91906 0.10943 -0.05000
C 	C 	0.78065 0.90169 0.11174 0.03900
H 	H 	0.78180 0.89080 0.10170 0.01400
C 	C 	0.80847 0.92038 0.09209 0.13400
C 	C 	0.83270 0.93823 0.07381 0.13800
C 	C 	0.82422 0.90570 0.06447 0.14000
C 	C 	0.84565 0.88725 0.03758 0.04400
H 	H 	0.85440 0.89930 0.03720 0.00900
C 	C 	0.82836 0.88729 0.05122 -0.05300
C 	C 	0.81601 0.86928 0.05210 0.00800
H 	H 	0.80430 0.86850 0.06120 0.03800
C 	C 	0.82141 0.85256 0.03937 -0.09700
H 	H 	0.81340 0.84000 0.03970 0.06500
C 	C 	0.83842 0.85415 0.02623 0.05700
H 	H 	0.84180 0.84260 0.01750 0.00200
C 	C 	0.88009 0.82496 0.99874 0.10400
C 	C 	0.91707 0.86136 0.98240 0.06000
H 	H 	0.91590 0.85070 0.99270 0.00000
C 	C 	0.93473 0.86214 0.97075 -0.10000
H 	H 	0.94590 0.85270 0.97340 0.06800
C 	C 	0.93645 0.87702 0.95481 0.00800
H 	H 	0.94860 0.87780 0.94630 0.03800
C 	C 	0.91989 0.89067 0.95178 -0.05200
C 	C 	0.90259 0.88923 0.96504 0.04300
H 	H 	0.89140 0.89890 0.96330 0.01000
C 	C 	0.92061 0.90696 0.93567 0.13400
N 	N 	0.86413 0.98473 0.08907 -0.22600
N 	N 	0.72646 0.88623 0.14569 -0.25800
N 	N 	0.76681 0.89933 0.12727 -0.22600
N 	N 	0.81052 0.90364 0.07970 -0.15300
N 	N 	0.81961 0.93807 0.09010 -0.15100
N 	N 	0.83523 0.92285 0.06030 -0.15500
N 	N 	0.85040 0.87139 0.02534 -0.23000
N 	N 	0.87722 0.84250 0.00126 -0.26200
N 	N 	0.90114 0.87494 0.97999 -0.22700
N 	N 	0.90560 0.92137 0.93603 -0.15100
S 	S 	0.70888 0.91525 0.17311 -0.06100
S 	S 	0.88430 0.80016 0.99509 -0.06200
C 	C 	0.35084 0.46878 0.08895 0.04100
H 	H 	0.34400 0.46540 0.10170 0.01100
C 	C 	0.34633 0.45684 0.07155 -0.05100
C 	C 	0.35600 0.46194 0.05267 0.00900
H 	H 	0.35340 0.45400 0.04040 0.03700
C 	C 	0.36944 0.47884 0.05240 -0.09900
H 	H 	0.37610 0.48290 0.03980 0.06600
C 	C 	0.37310 0.48985 0.07076 0.05900
H 	H 	0.38230 0.50150 0.07040 0.00000
C 	C 	0.21879 0.39828 0.15698 0.09600
C 	C 	0.26534 0.41482 0.14137 0.05600
H 	H 	0.25530 0.41360 0.15230 -0.00100
C 	C 	0.27795 0.43264 0.14056 -0.09800
H 	H 	0.27690 0.44300 0.15110 0.06500
C 	C 	0.29177 0.43501 0.12449 0.00900
H 	H 	0.30020 0.44720 0.12350 0.03700
C 	C 	0.29333 0.41906 0.10943 -0.05000
C 	C 	0.28065 0.40169 0.11174 0.03900
H 	H 	0.28180 0.39080 0.10170 0.01400
C 	C 	0.30847 0.42038 0.09209 0.13400
C 	C 	0.33270 0.43823 0.07381 0.13800
C 	C 	0.32422 0.40570 0.06447 0.14000
C 	C 	0.34565 0.38725 0.03758 0.04400
H 	H 	0.35440 0.39930 0.03720 0.00900
C 	C 	0.32836 0.38729 0.05122 -0.05300
C 	C 	0.31601 0.36928 0.05210 0.00800
H 	H 	0.30430 0.36850 0.06120 0.03800
C 	C 	0.32141 0.35256 0.03937 -0.09700
H 	H 	0.31340 0.34000 0.03970 0.06500
C 	C 	0.33842 0.35415 0.02623 0.05700
H 	H 	0.34180 0.34260 0.01750 0.00200
C 	C 	0.38009 0.32496 0.99874 0.10400
C 	C 	0.41707 0.36136 0.98240 0.06000
H 	H 	0.41590 0.35070 0.99270 0.00000
C 	C 	0.43473 0.36214 0.97075 -0.10000
H 	H 	0.44590 0.35270 0.97340 0.06800
C 	C 	0.43645 0.37702 0.95481 0.00800
H 	H 	0.44860 0.37780 0.94630 0.03800
C 	C 	0.41989 0.39067 0.95178 -0.05200
C 	C 	0.40259 0.38923 0.96504 0.04300
H 	H 	0.39140 0.39890 0.96330 0.01000
C 	C 	0.42061 0.40696 0.93567 0.13400
N 	N 	0.36413 0.48473 0.08907 -0.22600
N 	N 	0.22646 0.38623 0.14569 -0.25800
N 	N 	0.26681 0.39933 0.12727 -0.22600
N 	N 	0.31052 0.40364 0.07970 -0.15300
N 	N 	0.31961 0.43807 0.09010 -0.15100
N 	N 	0.33523 0.42285 0.06030 -0.15500
N 	N 	0.35040 0.37139 0.02534 -0.23000
N 	N 	0.37722 0.34250 0.00126 -0.26200
N 	N 	0.40114 0.37494 0.97999 -0.22700
N 	N 	0.40560 0.42137 0.93603 -0.15100
S 	S 	0.20888 0.41525 0.17311 -0.06100
S 	S 	0.38430 0.30016 0.99509 -0.06200
C 	C 	0.35084 0.96878 0.58895 0.04100
H 	H 	0.34400 0.96540 0.60170 0.01100
C 	C 	0.34633 0.95684 0.57155 -0.05100
C 	C 	0.35600 0.96194 0.55267 0.00900
H 	H 	0.35340 0.95400 0.54040 0.03700
C 	C 	0.36944 0.97884 0.55240 -0.09900
H 	H 	0.37610 0.98290 0.53980 0.06600
C 	C 	0.37310 0.98985 0.57076 0.05900
H 	H 	0.38230 0.00150 0.57040 0.00000
C 	C 	0.21879 0.89828 0.65698 0.09600
C 	C 	0.26534 0.91482 0.64137 0.05600
H 	H 	0.25530 0.91360 0.65230 -0.00100
C 	C 	0.27795 0.93264 0.64056 -0.09800
H 	H 	0.27690 0.94300 0.65110 0.06500
C 	C 	0.29177 0.93501 0.62449 0.00900
H 	H 	0.30020 0.94720 0.62350 0.03700
C 	C 	0.29333 0.91906 0.60943 -0.05000
C 	C 	0.28065 0.90169 0.61174 0.03900
H 	H 	0.28180 0.89080 0.60170 0.01400
C 	C 	0.30847 0.92038 0.59209 0.13400
C 	C 	0.33270 0.93823 0.57381 0.13800
C 	C 	0.32422 0.90570 0.56447 0.14000
C 	C 	0.34565 0.88725 0.53758 0.04400
H 	H 	0.35440 0.89930 0.53720 0.00900
C 	C 	0.32836 0.88729 0.55122 -0.05300
C 	C 	0.31601 0.86928 0.55210 0.00800
H 	H 	0.30430 0.86850 0.56120 0.03800
C 	C 	0.32141 0.85256 0.53937 -0.09700
H 	H 	0.31340 0.84000 0.53970 0.06500
C 	C 	0.33842 0.85415 0.52623 0.05700
H 	H 	0.34180 0.84260 0.51750 0.00200
C 	C 	0.38009 0.82496 0.49874 0.10400
C 	C 	0.41707 0.86136 0.48240 0.06000
H 	H 	0.41590 0.85070 0.49270 0.00000
C 	C 	0.43473 0.86214 0.47075 -0.10000
H 	H 	0.44590 0.85270 0.47340 0.06800
C 	C 	0.43645 0.87702 0.45481 0.00800
H 	H 	0.44860 0.87780 0.44630 0.03800
C 	C 	0.41989 0.89067 0.45178 -0.05200
C 	C 	0.40259 0.88923 0.46504 0.04300
H 	H 	0.39140 0.89890 0.46330 0.01000
C 	C 	0.42061 0.90696 0.43567 0.13400
N 	N 	0.36413 0.98473 0.58907 -0.22600
N 	N 	0.22646 0.88623 0.64569 -0.25800
N 	N 	0.26681 0.89933 0.62727 -0.22600
N 	N 	0.31052 0.90364 0.57970 -0.15300
N 	N 	0.31961 0.93807 0.59010 -0.15100
N 	N 	0.33523 0.92285 0.56030 -0.15500
N 	N 	0.35040 0.87139 0.52534 -0.23000
N 	N 	0.37722 0.84250 0.50126 -0.26200
N 	N 	0.40114 0.87494 0.47999 -0.22700
N 	N 	0.40560 0.92137 0.43603 -0.15100
S 	S 	0.20888 0.91525 0.67311 -0.06100
S 	S 	0.38430 0.80016 0.49509 -0.06200
C 	C 	0.35084 0.78122 0.16105 0.04100
H 	H 	0.34400 0.78460 0.14830 0.01100
C 	C 	0.34633 0.79316 0.17845 -0.05100
C 	C 	0.35600 0.78806 0.19733 0.00900
H 	H 	0.35340 0.79600 0.20960 0.03700
C 	C 	0.36944 0.77116 0.19760 -0.09900
H 	H 	0.37610 0.76710 0.21020 0.06600
C 	C 	0.37310 0.76015 0.17924 0.05900
H 	H 	0.38230 0.74850 0.17960 0.00000
C 	C 	0.21879 0.85172 0.09302 0.09600
C 	C 	0.26534 0.83518 0.10863 0.05600
H 	H 	0.25530 0.83640 0.09770 -0.00100
C 	C 	0.27795 0.81736 0.10944 -0.09800
H 	H 	0.27690 0.80700 0.09890 0.06500
C 	C 	0.29177 0.81499 0.12551 0.00900
H 	H 	0.30020 0.80280 0.12650 0.03700
C 	C 	0.29333 0.83094 0.14057 -0.05000
C 	C 	0.28065 0.84831 0.13826 0.03900
H 	H 	0.28180 0.85920 0.14830 0.01400
C 	C 	0.30847 0.82962 0.15791 0.13400
C 	C 	0.33270 0.81177 0.17619 0.13800
C 	C 	0.32422 0.84430 0.18553 0.14000
C 	C 	0.34565 0.86275 0.21242 0.04400
H 	H 	0.35440 0.85070 0.21280 0.00900
C 	C 	0.32836 0.86271 0.19878 -0.05300
C 	C 	0.31601 0.88072 0.19790 0.00800
H 	H 	0.30430 0.88150 0.18880 0.03800
C 	C 	0.32141 0.89744 0.21063 -0.09700
H 	H 	0.31340 0.91000 0.21030 0.06500
C 	C 	0.33842 0.89585 0.22377 0.05700
H 	H 	0.34180 0.90740 0.23250 0.00200
C 	C 	0.38009 0.92504 0.25126 0.10400
C 	C 	0.41707 0.88864 0.26760 0.06000
H 	H 	0.41590 0.89930 0.25730 0.00000
C 	C 	0.43473 0.88786 0.27925 -0.10000
H 	H 	0.44590 0.89730 0.27660 0.06800
C 	C 	0.43645 0.87298 0.29519 0.00800
H 	H 	0.44860 0.87220 0.30370 0.03800
C 	C 	0.41989 0.85933 0.29822 -0.05200
C 	C 	0.40259 0.86077 0.28496 0.04300
H 	H 	0.39140 0.85110 0.28670 0.01000
C 	C 	0.42061 0.84304 0.31433 0.13400
N 	N 	0.36413 0.76527 0.16093 -0.22600
N 	N 	0.22646 0.86377 0.10431 -0.25800
N 	N 	0.26681 0.85067 0.12273 -0.22600
N 	N 	0.31052 0.84636 0.17030 -0.15300
N 	N 	0.31961 0.81193 0.15990 -0.15100
N 	N 	0.33523 0.82715 0.18970 -0.15500
N 	N 	0.35040 0.87861 0.22466 -0.23000
N 	N 	0.37722 0.90750 0.24874 -0.26200
N 	N 	0.40114 0.87506 0.27001 -0.22700
N 	N 	0.40560 0.82863 0.31397 -0.15100
S 	S 	0.20888 0.83475 0.07689 -0.06100
S 	S 	0.38430 0.94984 0.25491 -0.06200
C 	C 	0.35084 0.28122 0.66105 0.04100
H 	H 	0.34400 0.28460 0.64830 0.01100
C 	C 	0.34633 0.29316 0.67845 -0.05100
C 	C 	0.35600 0.28806 0.69733 0.00900
H 	H 	0.35340 0.29600 0.70960 0.03700
C 	C 	0.36944 0.27116 0.69760 -0.09900
H 	H 	0.37610 0.26710 0.71020 0.06600
C 	C 	0.37310 0.26015 0.67924 0.05900
H 	H 	0.38230 0.24850 0.67960 0.00000
C 	C 	0.21879 0.35172 0.59302 0.09600
C 	C 	0.26534 0.33518 0.60863 0.05600
H 	H 	0.25530 0.33640 0.59770 -0.00100
C 	C 	0.27795 0.31736 0.60944 -0.09800
H 	H 	0.27690 0.30700 0.59890 0.06500
C 	C 	0.29177 0.31499 0.62551 0.00900
H 	H 	0.30020 0.30280 0.62650 0.03700
C 	C 	0.29333 0.33094 0.64057 -0.05000
C 	C 	0.28065 0.34831 0.63826 0.03900
H 	H 	0.28180 0.35920 0.64830 0.01400
C 	C 	0.30847 0.32962 0.65791 0.13400
C 	C 	0.33270 0.31177 0.67619 0.13800
C 	C 	0.32422 0.34430 0.68553 0.14000
C 	C 	0.34565 0.36275 0.71242 0.04400
H 	H 	0.35440 0.35070 0.71280 0.00900
C 	C 	0.32836 0.36271 0.69878 -0.05300
C 	C 	0.31601 0.38072 0.69790 0.00800
H 	H 	0.30430 0.38150 0.68880 0.03800
C 	C 	0.32141 0.39744 0.71063 -0.09700
H 	H 	0.31340 0.41000 0.71030 0.06500
C 	C 	0.33842 0.39585 0.72377 0.05700
H 	H 	0.34180 0.40740 0.73250 0.00200
C 	C 	0.38009 0.42504 0.75126 0.10400
C 	C 	0.41707 0.38864 0.76760 0.06000
H 	H 	0.41590 0.39930 0.75730 0.00000
C 	C 	0.43473 0.38786 0.77925 -0.10000
H 	H 	0.44590 0.39730 0.77660 0.06800
C 	C 	0.43645 0.37298 0.79519 0.00800
H 	H 	0.44860 0.37220 0.80370 0.03800
C 	C 	0.41989 0.35933 0.79822 -0.05200
C 	C 	0.40259 0.36077 0.78496 0.04300
H 	H 	0.39140 0.35110 0.78670 0.01000
C 	C 	0.42061 0.34304 0.81433 0.13400
N 	N 	0.36413 0.26527 0.66093 -0.22600
N 	N 	0.22646 0.36377 0.60431 -0.25800
N 	N 	0.26681 0.35067 0.62273 -0.22600
N 	N 	0.31052 0.34636 0.67030 -0.15300
N 	N 	0.31961 0.31193 0.65990 -0.15100
N 	N 	0.33523 0.32715 0.68970 -0.15500
N 	N 	0.35040 0.37861 0.72466 -0.23000
N 	N 	0.37722 0.40750 0.74874 -0.26200
N 	N 	0.40114 0.37506 0.77001 -0.22700
N 	N 	0.40560 0.32863 0.81397 -0.15100
S 	S 	0.20888 0.33475 0.57689 -0.06100
S 	S 	0.38430 0.44984 0.75491 -0.06200
C 	C 	0.85084 0.78122 0.66105 0.04100
H 	H 	0.84400 0.78460 0.64830 0.01100
C 	C 	0.84633 0.79316 0.67845 -0.05100
C 	C 	0.85600 0.78806 0.69733 0.00900
H 	H 	0.85340 0.79600 0.70960 0.03700
C 	C 	0.86944 0.77116 0.69760 -0.09900
H 	H 	0.87610 0.76710 0.71020 0.06600
C 	C 	0.87310 0.76015 0.67924 0.05900
H 	H 	0.88230 0.74850 0.67960 0.00000
C 	C 	0.71879 0.85172 0.59302 0.09600
C 	C 	0.76534 0.83518 0.60863 0.05600
H 	H 	0.75530 0.83640 0.59770 -0.00100
C 	C 	0.77795 0.81736 0.60944 -0.09800
H 	H 	0.77690 0.80700 0.59890 0.06500
C 	C 	0.79177 0.81499 0.62551 0.00900
H 	H 	0.80020 0.80280 0.62650 0.03700
C 	C 	0.79333 0.83094 0.64057 -0.05000
C 	C 	0.78065 0.84831 0.63826 0.03900
H 	H 	0.78180 0.85920 0.64830 0.01400
C 	C 	0.80847 0.82962 0.65791 0.13400
C 	C 	0.83270 0.81177 0.67619 0.13800
C 	C 	0.82422 0.84430 0.68553 0.14000
C 	C 	0.84565 0.86275 0.71242 0.04400
H 	H 	0.85440 0.85070 0.71280 0.00900
C 	C 	0.82836 0.86271 0.69878 -0.05300
C 	C 	0.81601 0.88072 0.69790 0.00800
H 	H 	0.80430 0.88150 0.68880 0.03800
C 	C 	0.82141 0.89744 0.71063 -0.09700
H 	H 	0.81340 0.91000 0.71030 0.06500
C 	C 	0.83842 0.89585 0.72377 0.05700
H 	H 	0.84180 0.90740 0.73250 0.00200
C 	C 	0.88009 0.92504 0.75126 0.10400
C 	C 	0.91707 0.88864 0.76760 0.06000
H 	H 	0.91590 0.89930 0.75730 0.00000
C 	C 	0.93473 0.88786 0.77925 -0.10000
H 	H 	0.94590 0.89730 0.77660 0.06800
C 	C 	0.93645 0.87298 0.79519 0.00800
H 	H 	0.94860 0.87220 0.80370 0.03800
C 	C 	0.91989 0.85933 0.79822 -0.05200
C 	C 	0.90259 0.86077 0.78496 0.04300
H 	H 	0.89140 0.85110 0.78670 0.01000
C 	C 	0.92061 0.84304 0.81433 0.13400
N 	N 	0.86413 0.76527 0.66093 -0.22600
N 	N 	0.72646 0.86377 0.60431 -0.25800
N 	N 	0.76681 0.85067 0.62273 -0.22600
N 	N 	0.81052 0.84636 0.67030 -0.15300
N 	N 	0.81961 0.81193 0.65990 -0.15100
N 	N 	0.83523 0.82715 0.68970 -0.15500
N 	N 	0.85040 0.87861 0.72466 -0.23000
N 	N 	0.87722 0.90750 0.74874 -0.26200
N 	N 	0.90114 0.87506 0.77001 -0.22700
N 	N 	0.90560 0.82863 0.81397 -0.15100
S 	S 	0.70888 0.83475 0.57689 -0.06100
S 	S 	0.88430 0.94984 0.75491 -0.06200
C 	C 	0.85084 0.28122 0.16105 0.04100
H 	H 	0.84400 0.28460 0.14830 0.01100
C 	C 	0.84633 0.29316 0.17845 -0.05100
C 	C 	0.85600 0.28806 0.19733 0.00900
H 	H 	0.85340 0.29600 0.20960 0.03700
C 	C 	0.86944 0.27116 0.19760 -0.09900
H 	H 	0.87610 0.26710 0.21020 0.06600
C 	C 	0.87310 0.26015 0.17924 0.05900
H 	H 	0.88230 0.24850 0.17960 0.00000
C 	C 	0.71879 0.35172 0.09302 0.09600
C 	C 	0.76534 0.33518 0.10863 0.05600
H 	H 	0.75530 0.33640 0.09770 -0.00100
C 	C 	0.77795 0.31736 0.10944 -0.09800
H 	H 	0.77690 0.30700 0.09890 0.06500
C 	C 	0.79177 0.31499 0.12551 0.00900
H 	H 	0.80020 0.30280 0.12650 0.03700
C 	C 	0.79333 0.33094 0.14057 -0.05000
C 	C 	0.78065 0.34831 0.13826 0.03900
H 	H 	0.78180 0.35920 0.14830 0.01400
C 	C 	0.80847 0.32962 0.15791 0.13400
C 	C 	0.83270 0.31177 0.17619 0.13800
C 	C 	0.82422 0.34430 0.18553 0.14000
C 	C 	0.84565 0.36275 0.21242 0.04400
H 	H 	0.85440 0.35070 0.21280 0.00900
C 	C 	0.82836 0.36271 0.19878 -0.05300
C 	C 	0.81601 0.38072 0.19790 0.00800
H 	H 	0.80430 0.38150 0.18880 0.03800
C 	C 	0.82141 0.39744 0.21063 -0.09700
H 	H 	0.81340 0.41000 0.21030 0.06500
C 	C 	0.83842 0.39585 0.22377 0.05700
H 	H 	0.84180 0.40740 0.23250 0.00200
C 	C 	0.88009 0.42504 0.25126 0.10400
C 	C 	0.91707 0.38864 0.26760 0.06000
H 	H 	0.91590 0.39930 0.25730 0.00000
C 	C 	0.93473 0.38786 0.27925 -0.10000
H 	H 	0.94590 0.39730 0.27660 0.06800
C 	C 	0.93645 0.37298 0.29519 0.00800
H 	H 	0.94860 0.37220 0.30370 0.03800
C 	C 	0.91989 0.35933 0.29822 -0.05200
C 	C 	0.90259 0.36077 0.28496 0.04300
H 	H 	0.89140 0.35110 0.28670 0.01000
C 	C 	0.92061 0.34304 0.31433 0.13400
N 	N 	0.86413 0.26527 0.16093 -0.22600
N 	N 	0.72646 0.36377 0.10431 -0.25800
N 	N 	0.76681 0.35067 0.12273 -0.22600
N 	N 	0.81052 0.34636 0.17030 -0.15300
N 	N 	0.81961 0.31193 0.15990 -0.15100
N 	N 	0.83523 0.32715 0.18970 -0.15500
N 	N 	0.85040 0.37861 0.22466 -0.23000
N 	N 	0.87722 0.40750 0.24874 -0.26200
N 	N 	0.90114 0.37506 0.27001 -0.22700
N 	N 	0.90560 0.32863 0.31397 -0.15100
S 	S 	0.70888 0.33475 0.07689 -0.06100
S 	S 	0.88430 0.44984 0.25491 -0.06200
C 	C 	0.89916 0.96878 0.66105 0.04100
H 	H 	0.90600 0.96540 0.64830 0.01100
C 	C 	0.90367 0.95684 0.67845 -0.05100
C 	C 	0.89400 0.96194 0.69733 0.00900
H 	H 	0.89660 0.95400 0.70960 0.03700
C 	C 	0.88056 0.97884 0.69760 -0.09900
H 	H 	0.87390 0.98290 0.71020 0.06600
C 	C 	0.87690 0.98985 0.67924 0.05900
H 	H 	0.86770 0.00150 0.67960 0.00000
C 	C 	0.03121 0.89828 0.59302 0.09600
C 	C 	0.98466 0.91482 0.60863 0.05600
H 	H 	0.99470 0.91360 0.59770 -0.00100
C 	C 	0.97205 0.93264 0.60944 -0.09800
H 	H 	0.97310 0.94300 0.59890 0.06500
C 	C 	0.95823 0.93501 0.62551 0.00900
H 	H 	0.94980 0.94720 0.62650 0.03700
C 	C 	0.95667 0.91906 0.64057 -0.05000
C 	C 	0.96935 0.90169 0.63826 0.03900
H 	H 	0.96820 0.89080 0.64830 0.01400
C 	C 	0.94153 0.92038 0.65791 0.13400
C 	C 	0.91730 0.93823 0.67619 0.13800
C 	C 	0.92578 0.90570 0.68553 0.14000
C 	C 	0.90435 0.88725 0.71242 0.04400
H 	H 	0.89560 0.89930 0.71280 0.00900
C 	C 	0.92164 0.88729 0.69878 -0.05300
C 	C 	0.93399 0.86928 0.69790 0.00800
H 	H 	0.94570 0.86850 0.68880 0.03800
C 	C 	0.92859 0.85256 0.71063 -0.09700
H 	H 	0.93660 0.84000 0.71030 0.06500
C 	C 	0.91158 0.85415 0.72377 0.05700
H 	H 	0.90820 0.84260 0.73250 0.00200
C 	C 	0.86991 0.82496 0.75126 0.10400
C 	C 	0.83293 0.86136 0.76760 0.06000
H 	H 	0.83410 0.85070 0.75730 0.00000
C 	C 	0.81527 0.86214 0.77925 -0.10000
H 	H 	0.80410 0.85270 0.77660 0.06800
C 	C 	0.81355 0.87702 0.79519 0.00800
H 	H 	0.80140 0.87780 0.80370 0.03800
C 	C 	0.83011 0.89067 0.79822 -0.05200
C 	C 	0.84741 0.88923 0.78496 0.04300
H 	H 	0.85860 0.89890 0.78670 0.01000
C 	C 	0.82939 0.90696 0.81433 0.13400
N 	N 	0.88587 0.98473 0.66093 -0.22600
N 	N 	0.02354 0.88623 0.60431 -0.25800
N 	N 	0.98319 0.89933 0.62273 -0.22600
N 	N 	0.93948 0.90364 0.67030 -0.15300
N 	N 	0.93039 0.93807 0.65990 -0.15100
N 	N 	0.91477 0.92285 0.68970 -0.15500
N 	N 	0.89960 0.87139 0.72466 -0.23000
N 	N 	0.87278 0.84250 0.74874 -0.26200
N 	N 	0.84886 0.87494 0.77001 -0.22700
N 	N 	0.84440 0.92137 0.81397 -0.15100
S 	S 	0.04112 0.91525 0.57689 -0.06100
S 	S 	0.86570 0.80016 0.75491 -0.06200
C 	C 	0.89916 0.46878 0.16105 0.04100
H 	H 	0.90600 0.46540 0.14830 0.01100
C 	C 	0.90367 0.45684 0.17845 -0.05100
C 	C 	0.89400 0.46194 0.19733 0.00900
H 	H 	0.89660 0.45400 0.20960 0.03700
C 	C 	0.88056 0.47884 0.19760 -0.09900
H 	H 	0.87390 0.48290 0.21020 0.06600
C 	C 	0.87690 0.48985 0.17924 0.05900
H 	H 	0.86770 0.50150 0.17960 0.00000
C 	C 	0.03121 0.39828 0.09302 0.09600
C 	C 	0.98466 0.41482 0.10863 0.05600
H 	H 	0.99470 0.41360 0.09770 -0.00100
C 	C 	0.97205 0.43264 0.10944 -0.09800
H 	H 	0.97310 0.44300 0.09890 0.06500
C 	C 	0.95823 0.43501 0.12551 0.00900
H 	H 	0.94980 0.44720 0.12650 0.03700
C 	C 	0.95667 0.41906 0.14057 -0.05000
C 	C 	0.96935 0.40169 0.13826 0.03900
H 	H 	0.96820 0.39080 0.14830 0.01400
C 	C 	0.94153 0.42038 0.15791 0.13400
C 	C 	0.91730 0.43823 0.17619 0.13800
C 	C 	0.92578 0.40570 0.18553 0.14000
C 	C 	0.90435 0.38725 0.21242 0.04400
H 	H 	0.89560 0.39930 0.21280 0.00900
C 	C 	0.92164 0.38729 0.19878 -0.05300
C 	C 	0.93399 0.36928 0.19790 0.00800
H 	H 	0.94570 0.36850 0.18880 0.03800
C 	C 	0.92859 0.35256 0.21063 -0.09700
H 	H 	0.93660 0.34000 0.21030 0.06500
C 	C 	0.91158 0.35415 0.22377 0.05700
H 	H 	0.90820 0.34260 0.23250 0.00200
C 	C 	0.86991 0.32496 0.25126 0.10400
C 	C 	0.83293 0.36136 0.26760 0.06000
H 	H 	0.83410 0.35070 0.25730 0.00000
C 	C 	0.81527 0.36214 0.27925 -0.10000
H 	H 	0.80410 0.35270 0.27660 0.06800
C 	C 	0.81355 0.37702 0.29519 0.00800
H 	H 	0.80140 0.37780 0.30370 0.03800
C 	C 	0.83011 0.39067 0.29822 -0.05200
C 	C 	0.84741 0.38923 0.28496 0.04300
H 	H 	0.85860 0.39890 0.28670 0.01000
C 	C 	0.82939 0.40696 0.31433 0.13400
N 	N 	0.88587 0.48473 0.16093 -0.22600
N 	N 	0.02354 0.38623 0.10431 -0.25800
N 	N 	0.98319 0.39933 0.12273 -0.22600
N 	N 	0.93948 0.40364 0.17030 -0.15300
N 	N 	0.93039 0.43807 0.15990 -0.15100
N 	N 	0.91477 0.42285 0.18970 -0.15500
N 	N 	0.89960 0.37139 0.22466 -0.23000
N 	N 	0.87278 0.34250 0.24874 -0.26200
N 	N 	0.84886 0.37494 0.27001 -0.22700
N 	N 	0.84440 0.42137 0.31397 -0.15100
S 	S 	0.04112 0.41525 0.07689 -0.06100
S 	S 	0.86570 0.30016 0.25491 -0.06200
C 	C 	0.39916 0.96878 0.16105 0.04100
H 	H 	0.40600 0.96540 0.14830 0.01100
C 	C 	0.40367 0.95684 0.17845 -0.05100
C 	C 	0.39400 0.96194 0.19733 0.00900
H 	H 	0.39660 0.95400 0.20960 0.03700
C 	C 	0.38056 0.97884 0.19760 -0.09900
H 	H 	0.37390 0.98290 0.21020 0.06600
C 	C 	0.37690 0.98985 0.17924 0.05900
H 	H 	0.36770 0.00150 0.17960 0.00000
C 	C 	0.53121 0.89828 0.09302 0.09600
C 	C 	0.48466 0.91482 0.10863 0.05600
H 	H 	0.49470 0.91360 0.09770 -0.00100
C 	C 	0.47205 0.93264 0.10944 -0.09800
H 	H 	0.47310 0.94300 0.09890 0.06500
C 	C 	0.45823 0.93501 0.12551 0.00900
H 	H 	0.44980 0.94720 0.12650 0.03700
C 	C 	0.45667 0.91906 0.14057 -0.05000
C 	C 	0.46935 0.90169 0.13826 0.03900
H 	H 	0.46820 0.89080 0.14830 0.01400
C 	C 	0.44153 0.92038 0.15791 0.13400
C 	C 	0.41730 0.93823 0.17619 0.13800
C 	C 	0.42578 0.90570 0.18553 0.14000
C 	C 	0.40435 0.88725 0.21242 0.04400
H 	H 	0.39560 0.89930 0.21280 0.00900
C 	C 	0.42164 0.88729 0.19878 -0.05300
C 	C 	0.43399 0.86928 0.19790 0.00800
H 	H 	0.44570 0.86850 0.18880 0.03800
C 	C 	0.42859 0.85256 0.21063 -0.09700
H 	H 	0.43660 0.84000 0.21030 0.06500
C 	C 	0.41158 0.85415 0.22377 0.05700
H 	H 	0.40820 0.84260 0.23250 0.00200
C 	C 	0.36991 0.82496 0.25126 0.10400
C 	C 	0.33293 0.86136 0.26760 0.06000
H 	H 	0.33410 0.85070 0.25730 0.00000
C 	C 	0.31527 0.86214 0.27925 -0.10000
H 	H 	0.30410 0.85270 0.27660 0.06800
C 	C 	0.31355 0.87702 0.29519 0.00800
H 	H 	0.30140 0.87780 0.30370 0.03800
C 	C 	0.33011 0.89067 0.29822 -0.05200
C 	C 	0.34741 0.88923 0.28496 0.04300
H 	H 	0.35860 0.89890 0.28670 0.01000
C 	C 	0.32939 0.90696 0.31433 0.13400
N 	N 	0.38587 0.98473 0.16093 -0.22600
N 	N 	0.52354 0.88623 0.10431 -0.25800
N 	N 	0.48319 0.89933 0.12273 -0.22600
N 	N 	0.43948 0.90364 0.17030 -0.15300
N 	N 	0.43039 0.93807 0.15990 -0.15100
N 	N 	0.41477 0.92285 0.18970 -0.15500
N 	N 	0.39960 0.87139 0.22466 -0.23000
N 	N 	0.37278 0.84250 0.24874 -0.26200
N 	N 	0.34886 0.87494 0.27001 -0.22700
N 	N 	0.34440 0.92137 0.31397 -0.15100
S 	S 	0.54112 0.91525 0.07689 -0.06100
S 	S 	0.36570 0.80016 0.25491 -0.06200
C 	C 	0.39916 0.46878 0.66105 0.04100
H 	H 	0.40600 0.46540 0.64830 0.01100
C 	C 	0.40367 0.45684 0.67845 -0.05100
C 	C 	0.39400 0.46194 0.69733 0.00900
H 	H 	0.39660 0.45400 0.70960 0.03700
C 	C 	0.38056 0.47884 0.69760 -0.09900
H 	H 	0.37390 0.48290 0.71020 0.06600
C 	C 	0.37690 0.48985 0.67924 0.05900
H 	H 	0.36770 0.50150 0.67960 0.00000
C 	C 	0.53121 0.39828 0.59302 0.09600
C 	C 	0.48466 0.41482 0.60863 0.05600
H 	H 	0.49470 0.41360 0.59770 -0.00100
C 	C 	0.47205 0.43264 0.60944 -0.09800
H 	H 	0.47310 0.44300 0.59890 0.06500
C 	C 	0.45823 0.43501 0.62551 0.00900
H 	H 	0.44980 0.44720 0.62650 0.03700
C 	C 	0.45667 0.41906 0.64057 -0.05000
C 	C 	0.46935 0.40169 0.63826 0.03900
H 	H 	0.46820 0.39080 0.64830 0.01400
C 	C 	0.44153 0.42038 0.65791 0.13400
C 	C 	0.41730 0.43823 0.67619 0.13800
C 	C 	0.42578 0.40570 0.68553 0.14000
C 	C 	0.40435 0.38725 0.71242 0.04400
H 	H 	0.39560 0.39930 0.71280 0.00900
C 	C 	0.42164 0.38729 0.69878 -0.05300
C 	C 	0.43399 0.36928 0.69790 0.00800
H 	H 	0.44570 0.36850 0.68880 0.03800
C 	C 	0.42859 0.35256 0.71063 -0.09700
H 	H 	0.43660 0.34000 0.71030 0.06500
C 	C 	0.41158 0.35415 0.72377 0.05700
H 	H 	0.40820 0.34260 0.73250 0.00200
C 	C 	0.36991 0.32496 0.75126 0.10400
C 	C 	0.33293 0.36136 0.76760 0.06000
H 	H 	0.33410 0.35070 0.75730 0.00000
C 	C 	0.31527 0.36214 0.77925 -0.10000
H 	H 	0.30410 0.35270 0.77660 0.06800
C 	C 	0.31355 0.37702 0.79519 0.00800
H 	H 	0.30140 0.37780 0.80370 0.03800
C 	C 	0.33011 0.39067 0.79822 -0.05200
C 	C 	0.34741 0.38923 0.78496 0.04300
H 	H 	0.35860 0.39890 0.78670 0.01000
C 	C 	0.32939 0.40696 0.81433 0.13400
N 	N 	0.38587 0.48473 0.66093 -0.22600
N 	N 	0.52354 0.38623 0.60431 -0.25800
N 	N 	0.48319 0.39933 0.62273 -0.22600
N 	N 	0.43948 0.40364 0.67030 -0.15300
N 	N 	0.43039 0.43807 0.65990 -0.15100
N 	N 	0.41477 0.42285 0.68970 -0.15500
N 	N 	0.39960 0.37139 0.72466 -0.23000
N 	N 	0.37278 0.34250 0.74874 -0.26200
N 	N 	0.34886 0.37494 0.77001 -0.22700
N 	N 	0.34440 0.42137 0.81397 -0.15100
S 	S 	0.54112 0.41525 0.57689 -0.06100
S 	S 	0.36570 0.30016 0.75491 -0.06200
C 	C 	0.39916 0.28122 0.08895 0.04100
H 	H 	0.40600 0.28460 0.10170 0.01100
C 	C 	0.40367 0.29316 0.07155 -0.05100
C 	C 	0.39400 0.28806 0.05267 0.00900
H 	H 	0.39660 0.29600 0.04040 0.03700
C 	C 	0.38056 0.27116 0.05240 -0.09900
H 	H 	0.37390 0.26710 0.03980 0.06600
C 	C 	0.37690 0.26015 0.07076 0.05900
H 	H 	0.36770 0.24850 0.07040 0.00000
C 	C 	0.53121 0.35172 0.15698 0.09600
C 	C 	0.48466 0.33518 0.14137 0.05600
H 	H 	0.49470 0.33640 0.15230 -0.00100
C 	C 	0.47205 0.31736 0.14056 -0.09800
H 	H 	0.47310 0.30700 0.15110 0.06500
C 	C 	0.45823 0.31499 0.12449 0.00900
H 	H 	0.44980 0.30280 0.12350 0.03700
C 	C 	0.45667 0.33094 0.10943 -0.05000
C 	C 	0.46935 0.34831 0.11174 0.03900
H 	H 	0.46820 0.35920 0.10170 0.01400
C 	C 	0.44153 0.32962 0.09209 0.13400
C 	C 	0.41730 0.31177 0.07381 0.13800
C 	C 	0.42578 0.34430 0.06447 0.14000
C 	C 	0.40435 0.36275 0.03758 0.04400
H 	H 	0.39560 0.35070 0.03720 0.00900
C 	C 	0.42164 0.36271 0.05122 -0.05300
C 	C 	0.43399 0.38072 0.05210 0.00800
H 	H 	0.44570 0.38150 0.06120 0.03800
C 	C 	0.42859 0.39744 0.03937 -0.09700
H 	H 	0.43660 0.41000 0.03970 0.06500
C 	C 	0.41158 0.39585 0.02623 0.05700
H 	H 	0.40820 0.40740 0.01750 0.00200
C 	C 	0.36991 0.42504 0.99874 0.10400
C 	C 	0.33293 0.38864 0.98240 0.06000
H 	H 	0.33410 0.39930 0.99270 0.00000
C 	C 	0.31527 0.38786 0.97075 -0.10000
H 	H 	0.30410 0.39730 0.97340 0.06800
C 	C 	0.31355 0.37298 0.95481 0.00800
H 	H 	0.30140 0.37220 0.94630 0.03800
C 	C 	0.33011 0.35933 0.95178 -0.05200
C 	C 	0.34741 0.36077 0.96504 0.04300
H 	H 	0.35860 0.35110 0.96330 0.01000
C 	C 	0.32939 0.34304 0.93567 0.13400
N 	N 	0.38587 0.26527 0.08907 -0.22600
N 	N 	0.52354 0.36377 0.14569 -0.25800
N 	N 	0.48319 0.35067 0.12727 -0.22600
N 	N 	0.43948 0.34636 0.07970 -0.15300
N 	N 	0.43039 0.31193 0.09010 -0.15100
N 	N 	0.41477 0.32715 0.06030 -0.15500
N 	N 	0.39960 0.37861 0.02534 -0.23000
N 	N 	0.37278 0.40750 0.00126 -0.26200
N 	N 	0.34886 0.37506 0.97999 -0.22700
N 	N 	0.34440 0.32863 0.93603 -0.15100
S 	S 	0.54112 0.33475 0.17311 -0.06100
S 	S 	0.36570 0.44984 0.99509 -0.06200
C 	C 	0.39916 0.78122 0.58895 0.04100
H 	H 	0.40600 0.78460 0.60170 0.01100
C 	C 	0.40367 0.79316 0.57155 -0.05100
C 	C 	0.39400 0.78806 0.55267 0.00900
H 	H 	0.39660 0.79600 0.54040 0.03700
C 	C 	0.38056 0.77116 0.55240 -0.09900
H 	H 	0.37390 0.76710 0.53980 0.06600
C 	C 	0.37690 0.76015 0.57076 0.05900
H 	H 	0.36770 0.74850 0.57040 0.00000
C 	C 	0.53121 0.85172 0.65698 0.09600
C 	C 	0.48466 0.83518 0.64137 0.05600
H 	H 	0.49470 0.83640 0.65230 -0.00100
C 	C 	0.47205 0.81736 0.64056 -0.09800
H 	H 	0.47310 0.80700 0.65110 0.06500
C 	C 	0.45823 0.81499 0.62449 0.00900
H 	H 	0.44980 0.80280 0.62350 0.03700
C 	C 	0.45667 0.83094 0.60943 -0.05000
C 	C 	0.46935 0.84831 0.61174 0.03900
H 	H 	0.46820 0.85920 0.60170 0.01400
C 	C 	0.44153 0.82962 0.59209 0.13400
C 	C 	0.41730 0.81177 0.57381 0.13800
C 	C 	0.42578 0.84430 0.56447 0.14000
C 	C 	0.40435 0.86275 0.53758 0.04400
H 	H 	0.39560 0.85070 0.53720 0.00900
C 	C 	0.42164 0.86271 0.55122 -0.05300
C 	C 	0.43399 0.88072 0.55210 0.00800
H 	H 	0.44570 0.88150 0.56120 0.03800
C 	C 	0.42859 0.89744 0.53937 -0.09700
H 	H 	0.43660 0.91000 0.53970 0.06500
C 	C 	0.41158 0.89585 0.52623 0.05700
H 	H 	0.40820 0.90740 0.51750 0.00200
C 	C 	0.36991 0.92504 0.49874 0.10400
C 	C 	0.33293 0.88864 0.48240 0.06000
H 	H 	0.33410 0.89930 0.49270 0.00000
C 	C 	0.31527 0.88786 0.47075 -0.10000
H 	H 	0.30410 0.89730 0.47340 0.06800
C 	C 	0.31355 0.87298 0.45481 0.00800
H 	H 	0.30140 0.87220 0.44630 0.03800
C 	C 	0.33011 0.85933 0.45178 -0.05200
C 	C 	0.34741 0.86077 0.46504 0.04300
H 	H 	0.35860 0.85110 0.46330 0.01000
C 	C 	0.32939 0.84304 0.43567 0.13400
N 	N 	0.38587 0.76527 0.58907 -0.22600
N 	N 	0.52354 0.86377 0.64569 -0.25800
N 	N 	0.48319 0.85067 0.62727 -0.22600
N 	N 	0.43948 0.84636 0.57970 -0.15300
N 	N 	0.43039 0.81193 0.59010 -0.15100
N 	N 	0.41477 0.82715 0.56030 -0.15500
N 	N 	0.39960 0.87861 0.52534 -0.23000
N 	N 	0.37278 0.90750 0.50126 -0.26200
N 	N 	0.34886 0.87506 0.47999 -0.22700
N 	N 	0.34440 0.82863 0.43603 -0.15100
S 	S 	0.54112 0.83475 0.67311 -0.06100
S 	S 	0.36570 0.94984 0.49509 -0.06200
C 	C 	0.89916 0.28122 0.58895 0.04100
H 	H 	0.90600 0.28460 0.60170 0.01100
C 	C 	0.90367 0.29316 0.57155 -0.05100
C 	C 	0.89400 0.28806 0.55267 0.00900
H 	H 	0.89660 0.29600 0.54040 0.03700
C 	C 	0.88056 0.27116 0.55240 -0.09900
H 	H 	0.87390 0.26710 0.53980 0.06600
C 	C 	0.87690 0.26015 0.57076 0.05900
H 	H 	0.86770 0.24850 0.57040 0.00000
C 	C 	0.03121 0.35172 0.65698 0.09600
C 	C 	0.98466 0.33518 0.64137 0.05600
H 	H 	0.99470 0.33640 0.65230 -0.00100
C 	C 	0.97205 0.31736 0.64056 -0.09800
H 	H 	0.97310 0.30700 0.65110 0.06500
C 	C 	0.95823 0.31499 0.62449 0.00900
H 	H 	0.94980 0.30280 0.62350 0.03700
C 	C 	0.95667 0.33094 0.60943 -0.05000
C 	C 	0.96935 0.34831 0.61174 0.03900
H 	H 	0.96820 0.35920 0.60170 0.01400
C 	C 	0.94153 0.32962 0.59209 0.13400
C 	C 	0.91730 0.31177 0.57381 0.13800
C 	C 	0.92578 0.34430 0.56447 0.14000
C 	C 	0.90435 0.36275 0.53758 0.04400
H 	H 	0.89560 0.35070 0.53720 0.00900
C 	C 	0.92164 0.36271 0.55122 -0.05300
C 	C 	0.93399 0.38072 0.55210 0.00800
H 	H 	0.94570 0.38150 0.56120 0.03800
C 	C 	0.92859 0.39744 0.53937 -0.09700
H 	H 	0.93660 0.41000 0.53970 0.06500
C 	C 	0.91158 0.39585 0.52623 0.05700
H 	H 	0.90820 0.40740 0.51750 0.00200
C 	C 	0.86991 0.42504 0.49874 0.10400
C 	C 	0.83293 0.38864 0.48240 0.06000
H 	H 	0.83410 0.39930 0.49270 0.00000
C 	C 	0.81527 0.38786 0.47075 -0.10000
H 	H 	0.80410 0.39730 0.47340 0.06800
C 	C 	0.81355 0.37298 0.45481 0.00800
H 	H 	0.80140 0.37220 0.44630 0.03800
C 	C 	0.83011 0.35933 0.45178 -0.05200
C 	C 	0.84741 0.36077 0.46504 0.04300
H 	H 	0.85860 0.35110 0.46330 0.01000
C 	C 	0.82939 0.34304 0.43567 0.13400
N 	N 	0.88587 0.26527 0.58907 -0.22600
N 	N 	0.02354 0.36377 0.64569 -0.25800
N 	N 	0.98319 0.35067 0.62727 -0.22600
N 	N 	0.93948 0.34636 0.57970 -0.15300
N 	N 	0.93039 0.31193 0.59010 -0.15100
N 	N 	0.91477 0.32715 0.56030 -0.15500
N 	N 	0.89960 0.37861 0.52534 -0.23000
N 	N 	0.87278 0.40750 0.50126 -0.26200
N 	N 	0.84886 0.37506 0.47999 -0.22700
N 	N 	0.84440 0.32863 0.43603 -0.15100
S 	S 	0.04112 0.33475 0.67311 -0.06100
S 	S 	0.86570 0.44984 0.49509 -0.06200
C 	C 	0.89916 0.78122 0.08895 0.04100
H 	H 	0.90600 0.78460 0.10170 0.01100
C 	C 	0.90367 0.79316 0.07155 -0.05100
C 	C 	0.89400 0.78806 0.05267 0.00900
H 	H 	0.89660 0.79600 0.04040 0.03700
C 	C 	0.88056 0.77116 0.05240 -0.09900
H 	H 	0.87390 0.76710 0.03980 0.06600
C 	C 	0.87690 0.76015 0.07076 0.05900
H 	H 	0.86770 0.74850 0.07040 0.00000
C 	C 	0.03121 0.85172 0.15698 0.09600
C 	C 	0.98466 0.83518 0.14137 0.05600
H 	H 	0.99470 0.83640 0.15230 -0.00100
C 	C 	0.97205 0.81736 0.14056 -0.09800
H 	H 	0.97310 0.80700 0.15110 0.06500
C 	C 	0.95823 0.81499 0.12449 0.00900
H 	H 	0.94980 0.80280 0.12350 0.03700
C 	C 	0.95667 0.83094 0.10943 -0.05000
C 	C 	0.96935 0.84831 0.11174 0.03900
H 	H 	0.96820 0.85920 0.10170 0.01400
C 	C 	0.94153 0.82962 0.09209 0.13400
C 	C 	0.91730 0.81177 0.07381 0.13800
C 	C 	0.92578 0.84430 0.06447 0.14000
C 	C 	0.90435 0.86275 0.03758 0.04400
H 	H 	0.89560 0.85070 0.03720 0.00900
C 	C 	0.92164 0.86271 0.05122 -0.05300
C 	C 	0.93399 0.88072 0.05210 0.00800
H 	H 	0.94570 0.88150 0.06120 0.03800
C 	C 	0.92859 0.89744 0.03937 -0.09700
H 	H 	0.93660 0.91000 0.03970 0.06500
C 	C 	0.91158 0.89585 0.02623 0.05700
H 	H 	0.90820 0.90740 0.01750 0.00200
C 	C 	0.86991 0.92504 0.99874 0.10400
C 	C 	0.83293 0.88864 0.98240 0.06000
H 	H 	0.83410 0.89930 0.99270 0.00000
C 	C 	0.81527 0.88786 0.97075 -0.10000
H 	H 	0.80410 0.89730 0.97340 0.06800
C 	C 	0.81355 0.87298 0.95481 0.00800
H 	H 	0.80140 0.87220 0.94630 0.03800
C 	C 	0.83011 0.85933 0.95178 -0.05200
C 	C 	0.84741 0.86077 0.96504 0.04300
H 	H 	0.85860 0.85110 0.96330 0.01000
C 	C 	0.82939 0.84304 0.93567 0.13400
N 	N 	0.88587 0.76527 0.08907 -0.22600
N 	N 	0.02354 0.86377 0.14569 -0.25800
N 	N 	0.98319 0.85067 0.12727 -0.22600
N 	N 	0.93948 0.84636 0.07970 -0.15300
N 	N 	0.93039 0.81193 0.09010 -0.15100
N 	N 	0.91477 0.82715 0.06030 -0.15500
N 	N 	0.89960 0.87861 0.02534 -0.23000
N 	N 	0.87278 0.90750 0.00126 -0.26200
N 	N 	0.84886 0.87506 0.97999 -0.22700
N 	N 	0.84440 0.82863 0.93603 -0.15100
S 	S 	0.04112 0.83475 0.17311 -0.06100
S 	S 	0.86570 0.94984 0.99509 -0.06200
C 	C 	0.58895 0.78122 0.89916 0.04100
H 	H 	0.60170 0.78460 0.90600 0.01100
C 	C 	0.57155 0.79316 0.90367 -0.05100
C 	C 	0.55267 0.78806 0.89400 0.00900
H 	H 	0.54040 0.79600 0.89660 0.03700
C 	C 	0.55240 0.77116 0.88056 -0.09900
H 	H 	0.53980 0.76710 0.87390 0.06600
C 	C 	0.57076 0.76015 0.87690 0.05900
H 	H 	0.57040 0.74850 0.86770 0.00000
C 	C 	0.65698 0.85172 0.03121 0.09600
C 	C 	0.64137 0.83518 0.98466 0.05600
H 	H 	0.65230 0.83640 0.99470 -0.00100
C 	C 	0.64056 0.81736 0.97205 -0.09800
H 	H 	0.65110 0.80700 0.97310 0.06500
C 	C 	0.62449 0.81499 0.95823 0.00900
H 	H 	0.62350 0.80280 0.94980 0.03700
C 	C 	0.60943 0.83094 0.95667 -0.05000
C 	C 	0.61174 0.84831 0.96935 0.03900
H 	H 	0.60170 0.85920 0.96820 0.01400
C 	C 	0.59209 0.82962 0.94153 0.13400
C 	C 	0.57381 0.81177 0.91730 0.13800
C 	C 	0.56447 0.84430 0.92578 0.14000
C 	C 	0.53758 0.86275 0.90435 0.04400
H 	H 	0.53720 0.85070 0.89560 0.00900
C 	C 	0.55122 0.86271 0.92164 -0.05300
C 	C 	0.55210 0.88072 0.93399 0.00800
H 	H 	0.56120 0.88150 0.94570 0.03800
C 	C 	0.53937 0.89744 0.92859 -0.09700
H 	H 	0.53970 0.91000 0.93660 0.06500
C 	C 	0.52623 0.89585 0.91158 0.05700
H 	H 	0.51750 0.90740 0.90820 0.00200
C 	C 	0.49874 0.92504 0.86991 0.10400
C 	C 	0.48240 0.88864 0.83293 0.06000
H 	H 	0.49270 0.89930 0.83410 0.00000
C 	C 	0.47075 0.88786 0.81527 -0.10000
H 	H 	0.47340 0.89730 0.80410 0.06800
C 	C 	0.45481 0.87298 0.81355 0.00800
H 	H 	0.44630 0.87220 0.80140 0.03800
C 	C 	0.45178 0.85933 0.83011 -0.05200
C 	C 	0.46504 0.86077 0.84741 0.04300
H 	H 	0.46330 0.85110 0.85860 0.01000
C 	C 	0.43567 0.84304 0.82939 0.13400
N 	N 	0.58907 0.76527 0.88587 -0.22600
N 	N 	0.64569 0.86377 0.02354 -0.25800
N 	N 	0.62727 0.85067 0.98319 -0.22600
N 	N 	0.57970 0.84636 0.93948 -0.15300
N 	N 	0.59010 0.81193 0.93039 -0.15100
N 	N 	0.56030 0.82715 0.91477 -0.15500
N 	N 	0.52534 0.87861 0.89960 -0.23000
N 	N 	0.50126 0.90750 0.87278 -0.26200
N 	N 	0.47999 0.87506 0.84886 -0.22700
N 	N 	0.43603 0.82863 0.84440 -0.15100
S 	S 	0.67311 0.83475 0.04112 -0.06100
S 	S 	0.49509 0.94984 0.86570 -0.06200
C 	C 	0.58895 0.28122 0.39916 0.04100
H 	H 	0.60170 0.28460 0.40600 0.01100
C 	C 	0.57155 0.29316 0.40367 -0.05100
C 	C 	0.55267 0.28806 0.39400 0.00900
H 	H 	0.54040 0.29600 0.39660 0.03700
C 	C 	0.55240 0.27116 0.38056 -0.09900
H 	H 	0.53980 0.26710 0.37390 0.06600
C 	C 	0.57076 0.26015 0.37690 0.05900
H 	H 	0.57040 0.24850 0.36770 0.00000
C 	C 	0.65698 0.35172 0.53121 0.09600
C 	C 	0.64137 0.33518 0.48466 0.05600
H 	H 	0.65230 0.33640 0.49470 -0.00100
C 	C 	0.64056 0.31736 0.47205 -0.09800
H 	H 	0.65110 0.30700 0.47310 0.06500
C 	C 	0.62449 0.31499 0.45823 0.00900
H 	H 	0.62350 0.30280 0.44980 0.03700
C 	C 	0.60943 0.33094 0.45667 -0.05000
C 	C 	0.61174 0.34831 0.46935 0.03900
H 	H 	0.60170 0.35920 0.46820 0.01400
C 	C 	0.59209 0.32962 0.44153 0.13400
C 	C 	0.57381 0.31177 0.41730 0.13800
C 	C 	0.56447 0.34430 0.42578 0.14000
C 	C 	0.53758 0.36275 0.40435 0.04400
H 	H 	0.53720 0.35070 0.39560 0.00900
C 	C 	0.55122 0.36271 0.42164 -0.05300
C 	C 	0.55210 0.38072 0.43399 0.00800
H 	H 	0.56120 0.38150 0.44570 0.03800
C 	C 	0.53937 0.39744 0.42859 -0.09700
H 	H 	0.53970 0.41000 0.43660 0.06500
C 	C 	0.52623 0.39585 0.41158 0.05700
H 	H 	0.51750 0.40740 0.40820 0.00200
C 	C 	0.49874 0.42504 0.36991 0.10400
C 	C 	0.48240 0.38864 0.33293 0.06000
H 	H 	0.49270 0.39930 0.33410 0.00000
C 	C 	0.47075 0.38786 0.31527 -0.10000
H 	H 	0.47340 0.39730 0.30410 0.06800
C 	C 	0.45481 0.37298 0.31355 0.00800
H 	H 	0.44630 0.37220 0.30140 0.03800
C 	C 	0.45178 0.35933 0.33011 -0.05200
C 	C 	0.46504 0.36077 0.34741 0.04300
H 	H 	0.46330 0.35110 0.35860 0.01000
C 	C 	0.43567 0.34304 0.32939 0.13400
N 	N 	0.58907 0.26527 0.38587 -0.22600
N 	N 	0.64569 0.36377 0.52354 -0.25800
N 	N 	0.62727 0.35067 0.48319 -0.22600
N 	N 	0.57970 0.34636 0.43948 -0.15300
N 	N 	0.59010 0.31193 0.43039 -0.15100
N 	N 	0.56030 0.32715 0.41477 -0.15500
N 	N 	0.52534 0.37861 0.39960 -0.23000
N 	N 	0.50126 0.40750 0.37278 -0.26200
N 	N 	0.47999 0.37506 0.34886 -0.22700
N 	N 	0.43603 0.32863 0.34440 -0.15100
S 	S 	0.67311 0.33475 0.54112 -0.06100
S 	S 	0.49509 0.44984 0.36570 -0.06200
C 	C 	0.08895 0.78122 0.39916 0.04100
H 	H 	0.10170 0.78460 0.40600 0.01100
C 	C 	0.07155 0.79316 0.40367 -0.05100
C 	C 	0.05267 0.78806 0.39400 0.00900
H 	H 	0.04040 0.79600 0.39660 0.03700
C 	C 	0.05240 0.77116 0.38056 -0.09900
H 	H 	0.03980 0.76710 0.37390 0.06600
C 	C 	0.07076 0.76015 0.37690 0.05900
H 	H 	0.07040 0.74850 0.36770 0.00000
C 	C 	0.15698 0.85172 0.53121 0.09600
C 	C 	0.14137 0.83518 0.48466 0.05600
H 	H 	0.15230 0.83640 0.49470 -0.00100
C 	C 	0.14056 0.81736 0.47205 -0.09800
H 	H 	0.15110 0.80700 0.47310 0.06500
C 	C 	0.12449 0.81499 0.45823 0.00900
H 	H 	0.12350 0.80280 0.44980 0.03700
C 	C 	0.10943 0.83094 0.45667 -0.05000
C 	C 	0.11174 0.84831 0.46935 0.03900
H 	H 	0.10170 0.85920 0.46820 0.01400
C 	C 	0.09209 0.82962 0.44153 0.13400
C 	C 	0.07381 0.81177 0.41730 0.13800
C 	C 	0.06447 0.84430 0.42578 0.14000
C 	C 	0.03758 0.86275 0.40435 0.04400
H 	H 	0.03720 0.85070 0.39560 0.00900
C 	C 	0.05122 0.86271 0.42164 -0.05300
C 	C 	0.05210 0.88072 0.43399 0.00800
H 	H 	0.06120 0.88150 0.44570 0.03800
C 	C 	0.03937 0.89744 0.42859 -0.09700
H 	H 	0.03970 0.91000 0.43660 0.06500
C 	C 	0.02623 0.89585 0.41158 0.05700
H 	H 	0.01750 0.90740 0.40820 0.00200
C 	C 	0.99874 0.92504 0.36991 0.10400
C 	C 	0.98240 0.88864 0.33293 0.06000
H 	H 	0.99270 0.89930 0.33410 0.00000
C 	C 	0.97075 0.88786 0.31527 -0.10000
H 	H 	0.97340 0.89730 0.30410 0.06800
C 	C 	0.95481 0.87298 0.31355 0.00800
H 	H 	0.94630 0.87220 0.30140 0.03800
C 	C 	0.95178 0.85933 0.33011 -0.05200
C 	C 	0.96504 0.86077 0.34741 0.04300
H 	H 	0.96330 0.85110 0.35860 0.01000
C 	C 	0.93567 0.84304 0.32939 0.13400
N 	N 	0.08907 0.76527 0.38587 -0.22600
N 	N 	0.14569 0.86377 0.52354 -0.25800
N 	N 	0.12727 0.85067 0.48319 -0.22600
N 	N 	0.07970 0.84636 0.43948 -0.15300
N 	N 	0.09010 0.81193 0.43039 -0.15100
N 	N 	0.06030 0.82715 0.41477 -0.15500
N 	N 	0.02534 0.87861 0.39960 -0.23000
N 	N 	0.00126 0.90750 0.37278 -0.26200
N 	N 	0.97999 0.87506 0.34886 -0.22700
N 	N 	0.93603 0.82863 0.34440 -0.15100
S 	S 	0.17311 0.83475 0.54112 -0.06100
S 	S 	0.99509 0.94984 0.36570 -0.06200
C 	C 	0.08895 0.28122 0.89916 0.04100
H 	H 	0.10170 0.28460 0.90600 0.01100
C 	C 	0.07155 0.29316 0.90367 -0.05100
C 	C 	0.05267 0.28806 0.89400 0.00900
H 	H 	0.04040 0.29600 0.89660 0.03700
C 	C 	0.05240 0.27116 0.88056 -0.09900
H 	H 	0.03980 0.26710 0.87390 0.06600
C 	C 	0.07076 0.26015 0.87690 0.05900
H 	H 	0.07040 0.24850 0.86770 0.00000
C 	C 	0.15698 0.35172 0.03121 0.09600
C 	C 	0.14137 0.33518 0.98466 0.05600
H 	H 	0.15230 0.33640 0.99470 -0.00100
C 	C 	0.14056 0.31736 0.97205 -0.09800
H 	H 	0.15110 0.30700 0.97310 0.06500
C 	C 	0.12449 0.31499 0.95823 0.00900
H 	H 	0.12350 0.30280 0.94980 0.03700
C 	C 	0.10943 0.33094 0.95667 -0.05000
C 	C 	0.11174 0.34831 0.96935 0.03900
H 	H 	0.10170 0.35920 0.96820 0.01400
C 	C 	0.09209 0.32962 0.94153 0.13400
C 	C 	0.07381 0.31177 0.91730 0.13800
C 	C 	0.06447 0.34430 0.92578 0.14000
C 	C 	0.03758 0.36275 0.90435 0.04400
H 	H 	0.03720 0.35070 0.89560 0.00900
C 	C 	0.05122 0.36271 0.92164 -0.05300
C 	C 	0.05210 0.38072 0.93399 0.00800
H 	H 	0.06120 0.38150 0.94570 0.03800
C 	C 	0.03937 0.39744 0.92859 -0.09700
H 	H 	0.03970 0.41000 0.93660 0.06500
C 	C 	0.02623 0.39585 0.91158 0.05700
H 	H 	0.01750 0.40740 0.90820 0.00200
C 	C 	0.99874 0.42504 0.86991 0.10400
C 	C 	0.98240 0.38864 0.83293 0.06000
H 	H 	0.99270 0.39930 0.83410 0.00000
C 	C 	0.97075 0.38786 0.81527 -0.10000
H 	H 	0.97340 0.39730 0.80410 0.06800
C 	C 	0.95481 0.37298 0.81355 0.00800
H 	H 	0.94630 0.37220 0.80140 0.03800
C 	C 	0.95178 0.35933 0.83011 -0.05200
C 	C 	0.96504 0.36077 0.84741 0.04300
H 	H 	0.96330 0.35110 0.85860 0.01000
C 	C 	0.93567 0.34304 0.82939 0.13400
N 	N 	0.08907 0.26527 0.88587 -0.22600
N 	N 	0.14569 0.36377 0.02354 -0.25800
N 	N 	0.12727 0.35067 0.98319 -0.22600
N 	N 	0.07970 0.34636 0.93948 -0.15300
N 	N 	0.09010 0.31193 0.93039 -0.15100
N 	N 	0.06030 0.32715 0.91477 -0.15500
N 	N 	0.02534 0.37861 0.89960 -0.23000
N 	N 	0.00126 0.40750 0.87278 -0.26200
N 	N 	0.97999 0.37506 0.84886 -0.22700
N 	N 	0.93603 0.32863 0.84440 -0.15100
S 	S 	0.17311 0.33475 0.04112 -0.06100
S 	S 	0.99509 0.44984 0.86570 -0.06200
C 	C 	0.16105 0.46878 0.39916 0.04100
H 	H 	0.14830 0.46540 0.40600 0.01100
C 	C 	0.17845 0.45684 0.40367 -0.05100
C 	C 	0.19733 0.46194 0.39400 0.00900
H 	H 	0.20960 0.45400 0.39660 0.03700
C 	C 	0.19760 0.47884 0.38056 -0.09900
H 	H 	0.21020 0.48290 0.37390 0.06600
C 	C 	0.17924 0.48985 0.37690 0.05900
H 	H 	0.17960 0.50150 0.36770 0.00000
C 	C 	0.09302 0.39828 0.53121 0.09600
C 	C 	0.10863 0.41482 0.48466 0.05600
H 	H 	0.09770 0.41360 0.49470 -0.00100
C 	C 	0.10944 0.43264 0.47205 -0.09800
H 	H 	0.09890 0.44300 0.47310 0.06500
C 	C 	0.12551 0.43501 0.45823 0.00900
H 	H 	0.12650 0.44720 0.44980 0.03700
C 	C 	0.14057 0.41906 0.45667 -0.05000
C 	C 	0.13826 0.40169 0.46935 0.03900
H 	H 	0.14830 0.39080 0.46820 0.01400
C 	C 	0.15791 0.42038 0.44153 0.13400
C 	C 	0.17619 0.43823 0.41730 0.13800
C 	C 	0.18553 0.40570 0.42578 0.14000
C 	C 	0.21242 0.38725 0.40435 0.04400
H 	H 	0.21280 0.39930 0.39560 0.00900
C 	C 	0.19878 0.38729 0.42164 -0.05300
C 	C 	0.19790 0.36928 0.43399 0.00800
H 	H 	0.18880 0.36850 0.44570 0.03800
C 	C 	0.21063 0.35256 0.42859 -0.09700
H 	H 	0.21030 0.34000 0.43660 0.06500
C 	C 	0.22377 0.35415 0.41158 0.05700
H 	H 	0.23250 0.34260 0.40820 0.00200
C 	C 	0.25126 0.32496 0.36991 0.10400
C 	C 	0.26760 0.36136 0.33293 0.06000
H 	H 	0.25730 0.35070 0.33410 0.00000
C 	C 	0.27925 0.36214 0.31527 -0.10000
H 	H 	0.27660 0.35270 0.30410 0.06800
C 	C 	0.29519 0.37702 0.31355 0.00800
H 	H 	0.30370 0.37780 0.30140 0.03800
C 	C 	0.29822 0.39067 0.33011 -0.05200
C 	C 	0.28496 0.38923 0.34741 0.04300
H 	H 	0.28670 0.39890 0.35860 0.01000
C 	C 	0.31433 0.40696 0.32939 0.13400
N 	N 	0.16093 0.48473 0.38587 -0.22600
N 	N 	0.10431 0.38623 0.52354 -0.25800
N 	N 	0.12273 0.39933 0.48319 -0.22600
N 	N 	0.17030 0.40364 0.43948 -0.15300
N 	N 	0.15990 0.43807 0.43039 -0.15100
N 	N 	0.18970 0.42285 0.41477 -0.15500
N 	N 	0.22466 0.37139 0.39960 -0.23000
N 	N 	0.24874 0.34250 0.37278 -0.26200
N 	N 	0.27001 0.37494 0.34886 -0.22700
N 	N 	0.31397 0.42137 0.34440 -0.15100
S 	S 	0.07689 0.41525 0.54112 -0.06100
S 	S 	0.25491 0.30016 0.36570 -0.06200
C 	C 	0.16105 0.96878 0.89916 0.04100
H 	H 	0.14830 0.96540 0.90600 0.01100
C 	C 	0.17845 0.95684 0.90367 -0.05100
C 	C 	0.19733 0.96194 0.89400 0.00900
H 	H 	0.20960 0.95400 0.89660 0.03700
C 	C 	0.19760 0.97884 0.88056 -0.09900
H 	H 	0.21020 0.98290 0.87390 0.06600
C 	C 	0.17924 0.98985 0.87690 0.05900
H 	H 	0.17960 0.00150 0.86770 0.00000
C 	C 	0.09302 0.89828 0.03121 0.09600
C 	C 	0.10863 0.91482 0.98466 0.05600
H 	H 	0.09770 0.91360 0.99470 -0.00100
C 	C 	0.10944 0.93264 0.97205 -0.09800
H 	H 	0.09890 0.94300 0.97310 0.06500
C 	C 	0.12551 0.93501 0.95823 0.00900
H 	H 	0.12650 0.94720 0.94980 0.03700
C 	C 	0.14057 0.91906 0.95667 -0.05000
C 	C 	0.13826 0.90169 0.96935 0.03900
H 	H 	0.14830 0.89080 0.96820 0.01400
C 	C 	0.15791 0.92038 0.94153 0.13400
C 	C 	0.17619 0.93823 0.91730 0.13800
C 	C 	0.18553 0.90570 0.92578 0.14000
C 	C 	0.21242 0.88725 0.90435 0.04400
H 	H 	0.21280 0.89930 0.89560 0.00900
C 	C 	0.19878 0.88729 0.92164 -0.05300
C 	C 	0.19790 0.86928 0.93399 0.00800
H 	H 	0.18880 0.86850 0.94570 0.03800
C 	C 	0.21063 0.85256 0.92859 -0.09700
H 	H 	0.21030 0.84000 0.93660 0.06500
C 	C 	0.22377 0.85415 0.91158 0.05700
H 	H 	0.23250 0.84260 0.90820 0.00200
C 	C 	0.25126 0.82496 0.86991 0.10400
C 	C 	0.26760 0.86136 0.83293 0.06000
H 	H 	0.25730 0.85070 0.83410 0.00000
C 	C 	0.27925 0.86214 0.81527 -0.10000
H 	H 	0.27660 0.85270 0.80410 0.06800
C 	C 	0.29519 0.87702 0.81355 0.00800
H 	H 	0.30370 0.87780 0.80140 0.03800
C 	C 	0.29822 0.89067 0.83011 -0.05200
C 	C 	0.28496 0.88923 0.84741 0.04300
H 	H 	0.28670 0.89890 0.85860 0.01000
C 	C 	0.31433 0.90696 0.82939 0.13400
N 	N 	0.16093 0.98473 0.88587 -0.22600
N 	N 	0.10431 0.88623 0.02354 -0.25800
N 	N 	0.12273 0.89933 0.98319 -0.22600
N 	N 	0.17030 0.90364 0.93948 -0.15300
N 	N 	0.15990 0.93807 0.93039 -0.15100
N 	N 	0.18970 0.92285 0.91477 -0.15500
N 	N 	0.22466 0.87139 0.89960 -0.23000
N 	N 	0.24874 0.84250 0.87278 -0.26200
N 	N 	0.27001 0.87494 0.84886 -0.22700
N 	N 	0.31397 0.92137 0.84440 -0.15100
S 	S 	0.07689 0.91525 0.04112 -0.06100
S 	S 	0.25491 0.80016 0.86570 -0.06200
C 	C 	0.66105 0.46878 0.89916 0.04100
H 	H 	0.64830 0.46540 0.90600 0.01100
C 	C 	0.67845 0.45684 0.90367 -0.05100
C 	C 	0.69733 0.46194 0.89400 0.00900
H 	H 	0.70960 0.45400 0.89660 0.03700
C 	C 	0.69760 0.47884 0.88056 -0.09900
H 	H 	0.71020 0.48290 0.87390 0.06600
C 	C 	0.67924 0.48985 0.87690 0.05900
H 	H 	0.67960 0.50150 0.86770 0.00000
C 	C 	0.59302 0.39828 0.03121 0.09600
C 	C 	0.60863 0.41482 0.98466 0.05600
H 	H 	0.59770 0.41360 0.99470 -0.00100
C 	C 	0.60944 0.43264 0.97205 -0.09800
H 	H 	0.59890 0.44300 0.97310 0.06500
C 	C 	0.62551 0.43501 0.95823 0.00900
H 	H 	0.62650 0.44720 0.94980 0.03700
C 	C 	0.64057 0.41906 0.95667 -0.05000
C 	C 	0.63826 0.40169 0.96935 0.03900
H 	H 	0.64830 0.39080 0.96820 0.01400
C 	C 	0.65791 0.42038 0.94153 0.13400
C 	C 	0.67619 0.43823 0.91730 0.13800
C 	C 	0.68553 0.40570 0.92578 0.14000
C 	C 	0.71242 0.38725 0.90435 0.04400
H 	H 	0.71280 0.39930 0.89560 0.00900
C 	C 	0.69878 0.38729 0.92164 -0.05300
C 	C 	0.69790 0.36928 0.93399 0.00800
H 	H 	0.68880 0.36850 0.94570 0.03800
C 	C 	0.71063 0.35256 0.92859 -0.09700
H 	H 	0.71030 0.34000 0.93660 0.06500
C 	C 	0.72377 0.35415 0.91158 0.05700
H 	H 	0.73250 0.34260 0.90820 0.00200
C 	C 	0.75126 0.32496 0.86991 0.10400
C 	C 	0.76760 0.36136 0.83293 0.06000
H 	H 	0.75730 0.35070 0.83410 0.00000
C 	C 	0.77925 0.36214 0.81527 -0.10000
H 	H 	0.77660 0.35270 0.80410 0.06800
C 	C 	0.79519 0.37702 0.81355 0.00800
H 	H 	0.80370 0.37780 0.80140 0.03800
C 	C 	0.79822 0.39067 0.83011 -0.05200
C 	C 	0.78496 0.38923 0.84741 0.04300
H 	H 	0.78670 0.39890 0.85860 0.01000
C 	C 	0.81433 0.40696 0.82939 0.13400
N 	N 	0.66093 0.48473 0.88587 -0.22600
N 	N 	0.60431 0.38623 0.02354 -0.25800
N 	N 	0.62273 0.39933 0.98319 -0.22600
N 	N 	0.67030 0.40364 0.93948 -0.15300
N 	N 	0.65990 0.43807 0.93039 -0.15100
N 	N 	0.68970 0.42285 0.91477 -0.15500
N 	N 	0.72466 0.37139 0.89960 -0.23000
N 	N 	0.74874 0.34250 0.87278 -0.26200
N 	N 	0.77001 0.37494 0.84886 -0.22700
N 	N 	0.81397 0.42137 0.84440 -0.15100
S 	S 	0.57689 0.41525 0.04112 -0.06100
S 	S 	0.75491 0.30016 0.86570 -0.06200
C 	C 	0.66105 0.96878 0.39916 0.04100
H 	H 	0.64830 0.96540 0.40600 0.01100
C 	C 	0.67845 0.95684 0.40367 -0.05100
C 	C 	0.69733 0.96194 0.39400 0.00900
H 	H 	0.70960 0.95400 0.39660 0.03700
C 	C 	0.69760 0.97884 0.38056 -0.09900
H 	H 	0.71020 0.98290 0.37390 0.06600
C 	C 	0.67924 0.98985 0.37690 0.05900
H 	H 	0.67960 0.00150 0.36770 0.00000
C 	C 	0.59302 0.89828 0.53121 0.09600
C 	C 	0.60863 0.91482 0.48466 0.05600
H 	H 	0.59770 0.91360 0.49470 -0.00100
C 	C 	0.60944 0.93264 0.47205 -0.09800
H 	H 	0.59890 0.94300 0.47310 0.06500
C 	C 	0.62551 0.93501 0.45823 0.00900
H 	H 	0.62650 0.94720 0.44980 0.03700
C 	C 	0.64057 0.91906 0.45667 -0.05000
C 	C 	0.63826 0.90169 0.46935 0.03900
H 	H 	0.64830 0.89080 0.46820 0.01400
C 	C 	0.65791 0.92038 0.44153 0.13400
C 	C 	0.67619 0.93823 0.41730 0.13800
C 	C 	0.68553 0.90570 0.42578 0.14000
C 	C 	0.71242 0.88725 0.40435 0.04400
H 	H 	0.71280 0.89930 0.39560 0.00900
C 	C 	0.69878 0.88729 0.42164 -0.05300
C 	C 	0.69790 0.86928 0.43399 0.00800
H 	H 	0.68880 0.86850 0.44570 0.03800
C 	C 	0.71063 0.85256 0.42859 -0.09700
H 	H 	0.71030 0.84000 0.43660 0.06500
C 	C 	0.72377 0.85415 0.41158 0.05700
H 	H 	0.73250 0.84260 0.40820 0.00200
C 	C 	0.75126 0.82496 0.36991 0.10400
C 	C 	0.76760 0.86136 0.33293 0.06000
H 	H 	0.75730 0.85070 0.33410 0.00000
C 	C 	0.77925 0.86214 0.31527 -0.10000
H 	H 	0.77660 0.85270 0.30410 0.06800
C 	C 	0.79519 0.87702 0.31355 0.00800
H 	H 	0.80370 0.87780 0.30140 0.03800
C 	C 	0.79822 0.89067 0.33011 -0.05200
C 	C 	0.78496 0.88923 0.34741 0.04300
H 	H 	0.78670 0.89890 0.35860 0.01000
C 	C 	0.81433 0.90696 0.32939 0.13400
N 	N 	0.66093 0.98473 0.38587 -0.22600
N 	N 	0.60431 0.88623 0.52354 -0.25800
N 	N 	0.62273 0.89933 0.48319 -0.22600
N 	N 	0.67030 0.90364 0.43948 -0.15300
N 	N 	0.65990 0.93807 0.43039 -0.15100
N 	N 	0.68970 0.92285 0.41477 -0.15500
N 	N 	0.72466 0.87139 0.39960 -0.23000
N 	N 	0.74874 0.84250 0.37278 -0.26200
N 	N 	0.77001 0.87494 0.34886 -0.22700
N 	N 	0.81397 0.92137 0.34440 -0.15100
S 	S 	0.57689 0.91525 0.54112 -0.06100
S 	S 	0.75491 0.80016 0.36570 -0.06200
C 	C 	0.66105 0.28122 0.85084 0.04100
H 	H 	0.64830 0.28460 0.84400 0.01100
C 	C 	0.67845 0.29316 0.84633 -0.05100
C 	C 	0.69733 0.28806 0.85600 0.00900
H 	H 	0.70960 0.29600 0.85340 0.03700
C 	C 	0.69760 0.27116 0.86944 -0.09900
H 	H 	0.71020 0.26710 0.87610 0.06600
C 	C 	0.67924 0.26015 0.87310 0.05900
H 	H 	0.67960 0.24850 0.88230 0.00000
C 	C 	0.59302 0.35172 0.71879 0.09600
C 	C 	0.60863 0.33518 0.76534 0.05600
H 	H 	0.59770 0.33640 0.75530 -0.00100
C 	C 	0.60944 0.31736 0.77795 -0.09800
H 	H 	0.59890 0.30700 0.77690 0.06500
C 	C 	0.62551 0.31499 0.79177 0.00900
H 	H 	0.62650 0.30280 0.80020 0.03700
C 	C 	0.64057 0.33094 0.79333 -0.05000
C 	C 	0.63826 0.34831 0.78065 0.03900
H 	H 	0.64830 0.35920 0.78180 0.01400
C 	C 	0.65791 0.32962 0.80847 0.13400
C 	C 	0.67619 0.31177 0.83270 0.13800
C 	C 	0.68553 0.34430 0.82422 0.14000
C 	C 	0.71242 0.36275 0.84565 0.04400
H 	H 	0.71280 0.35070 0.85440 0.00900
C 	C 	0.69878 0.36271 0.82836 -0.05300
C 	C 	0.69790 0.38072 0.81601 0.00800
H 	H 	0.68880 0.38150 0.80430 0.03800
C 	C 	0.71063 0.39744 0.82141 -0.09700
H 	H 	0.71030 0.41000 0.81340 0.06500
C 	C 	0.72377 0.39585 0.83842 0.05700
H 	H 	0.73250 0.40740 0.84180 0.00200
C 	C 	0.75126 0.42504 0.88009 0.10400
C 	C 	0.76760 0.38864 0.91707 0.06000
H 	H 	0.75730 0.39930 0.91590 0.00000
C 	C 	0.77925 0.38786 0.93473 -0.10000
H 	H 	0.77660 0.39730 0.94590 0.06800
C 	C 	0.79519 0.37298 0.93645 0.00800
H 	H 	0.80370 0.37220 0.94860 0.03800
C 	C 	0.79822 0.35933 0.91989 -0.05200
C 	C 	0.78496 0.36077 0.90259 0.04300
H 	H 	0.78670 0.35110 0.89140 0.01000
C 	C 	0.81433 0.34304 0.92061 0.13400
N 	N 	0.66093 0.26527 0.86413 -0.22600
N 	N 	0.60431 0.36377 0.72646 -0.25800
N 	N 	0.62273 0.35067 0.76681 -0.22600
N 	N 	0.67030 0.34636 0.81052 -0.15300
N 	N 	0.65990 0.31193 0.81961 -0.15100
N 	N 	0.68970 0.32715 0.83523 -0.15500
N 	N 	0.72466 0.37861 0.85040 -0.23000
N 	N 	0.74874 0.40750 0.87722 -0.26200
N 	N 	0.77001 0.37506 0.90114 -0.22700
N 	N 	0.81397 0.32863 0.90560 -0.15100
S 	S 	0.57689 0.33475 0.70888 -0.06100
S 	S 	0.75491 0.44984 0.88430 -0.06200
C 	C 	0.66105 0.78122 0.35084 0.04100
H 	H 	0.64830 0.78460 0.34400 0.01100
C 	C 	0.67845 0.79316 0.34633 -0.05100
C 	C 	0.69733 0.78806 0.35600 0.00900
H 	H 	0.70960 0.79600 0.35340 0.03700
C 	C 	0.69760 0.77116 0.36944 -0.09900
H 	H 	0.71020 0.76710 0.37610 0.06600
C 	C 	0.67924 0.76015 0.37310 0.05900
H 	H 	0.67960 0.74850 0.38230 0.00000
C 	C 	0.59302 0.85172 0.21879 0.09600
C 	C 	0.60863 0.83518 0.26534 0.05600
H 	H 	0.59770 0.83640 0.25530 -0.00100
C 	C 	0.60944 0.81736 0.27795 -0.09800
H 	H 	0.59890 0.80700 0.27690 0.06500
C 	C 	0.62551 0.81499 0.29177 0.00900
H 	H 	0.62650 0.80280 0.30020 0.03700
C 	C 	0.64057 0.83094 0.29333 -0.05000
C 	C 	0.63826 0.84831 0.28065 0.03900
H 	H 	0.64830 0.85920 0.28180 0.01400
C 	C 	0.65791 0.82962 0.30847 0.13400
C 	C 	0.67619 0.81177 0.33270 0.13800
C 	C 	0.68553 0.84430 0.32422 0.14000
C 	C 	0.71242 0.86275 0.34565 0.04400
H 	H 	0.71280 0.85070 0.35440 0.00900
C 	C 	0.69878 0.86271 0.32836 -0.05300
C 	C 	0.69790 0.88072 0.31601 0.00800
H 	H 	0.68880 0.88150 0.30430 0.03800
C 	C 	0.71063 0.89744 0.32141 -0.09700
H 	H 	0.71030 0.91000 0.31340 0.06500
C 	C 	0.72377 0.89585 0.33842 0.05700
H 	H 	0.73250 0.90740 0.34180 0.00200
C 	C 	0.75126 0.92504 0.38009 0.10400
C 	C 	0.76760 0.88864 0.41707 0.06000
H 	H 	0.75730 0.89930 0.41590 0.00000
C 	C 	0.77925 0.88786 0.43473 -0.10000
H 	H 	0.77660 0.89730 0.44590 0.06800
C 	C 	0.79519 0.87298 0.43645 0.00800
H 	H 	0.80370 0.87220 0.44860 0.03800
C 	C 	0.79822 0.85933 0.41989 -0.05200
C 	C 	0.78496 0.86077 0.40259 0.04300
H 	H 	0.78670 0.85110 0.39140 0.01000
C 	C 	0.81433 0.84304 0.42061 0.13400
N 	N 	0.66093 0.76527 0.36413 -0.22600
N 	N 	0.60431 0.86377 0.22646 -0.25800
N 	N 	0.62273 0.85067 0.26681 -0.22600
N 	N 	0.67030 0.84636 0.31052 -0.15300
N 	N 	0.65990 0.81193 0.31961 -0.15100
N 	N 	0.68970 0.82715 0.33523 -0.15500
N 	N 	0.72466 0.87861 0.35040 -0.23000
N 	N 	0.74874 0.90750 0.37722 -0.26200
N 	N 	0.77001 0.87506 0.40114 -0.22700
N 	N 	0.81397 0.82863 0.40560 -0.15100
S 	S 	0.57689 0.83475 0.20888 -0.06100
S 	S 	0.75491 0.94984 0.38430 -0.06200
C 	C 	0.16105 0.28122 0.35084 0.04100
H 	H 	0.14830 0.28460 0.34400 0.01100
C 	C 	0.17845 0.29316 0.34633 -0.05100
C 	C 	0.19733 0.28806 0.35600 0.00900
H 	H 	0.20960 0.29600 0.35340 0.03700
C 	C 	0.19760 0.27116 0.36944 -0.09900
H 	H 	0.21020 0.26710 0.37610 0.06600
C 	C 	0.17924 0.26015 0.37310 0.05900
H 	H 	0.17960 0.24850 0.38230 0.00000
C 	C 	0.09302 0.35172 0.21879 0.09600
C 	C 	0.10863 0.33518 0.26534 0.05600
H 	H 	0.09770 0.33640 0.25530 -0.00100
C 	C 	0.10944 0.31736 0.27795 -0.09800
H 	H 	0.09890 0.30700 0.27690 0.06500
C 	C 	0.12551 0.31499 0.29177 0.00900
H 	H 	0.12650 0.30280 0.30020 0.03700
C 	C 	0.14057 0.33094 0.29333 -0.05000
C 	C 	0.13826 0.34831 0.28065 0.03900
H 	H 	0.14830 0.35920 0.28180 0.01400
C 	C 	0.15791 0.32962 0.30847 0.13400
C 	C 	0.17619 0.31177 0.33270 0.13800
C 	C 	0.18553 0.34430 0.32422 0.14000
C 	C 	0.21242 0.36275 0.34565 0.04400
H 	H 	0.21280 0.35070 0.35440 0.00900
C 	C 	0.19878 0.36271 0.32836 -0.05300
C 	C 	0.19790 0.38072 0.31601 0.00800
H 	H 	0.18880 0.38150 0.30430 0.03800
C 	C 	0.21063 0.39744 0.32141 -0.09700
H 	H 	0.21030 0.41000 0.31340 0.06500
C 	C 	0.22377 0.39585 0.33842 0.05700
H 	H 	0.23250 0.40740 0.34180 0.00200
C 	C 	0.25126 0.42504 0.38009 0.10400
C 	C 	0.26760 0.38864 0.41707 0.06000
H 	H 	0.25730 0.39930 0.41590 0.00000
C 	C 	0.27925 0.38786 0.43473 -0.10000
H 	H 	0.27660 0.39730 0.44590 0.06800
C 	C 	0.29519 0.37298 0.43645 0.00800
H 	H 	0.30370 0.37220 0.44860 0.03800
C 	C 	0.29822 0.35933 0.41989 -0.05200
C 	C 	0.28496 0.36077 0.40259 0.04300
H 	H 	0.28670 0.35110 0.39140 0.01000
C 	C 	0.31433 0.34304 0.42061 0.13400
N 	N 	0.16093 0.26527 0.36413 -0.22600
N 	N 	0.10431 0.36377 0.22646 -0.25800
N 	N 	0.12273 0.35067 0.26681 -0.22600
N 	N 	0.17030 0.34636 0.31052 -0.15300
N 	N 	0.15990 0.31193 0.31961 -0.15100
N 	N 	0.18970 0.32715 0.33523 -0.15500
N 	N 	0.22466 0.37861 0.35040 -0.23000
N 	N 	0.24874 0.40750 0.37722 -0.26200
N 	N 	0.27001 0.37506 0.40114 -0.22700
N 	N 	0.31397 0.32863 0.40560 -0.15100
S 	S 	0.07689 0.33475 0.20888 -0.06100
S 	S 	0.25491 0.44984 0.38430 -0.06200
C 	C 	0.16105 0.78122 0.85084 0.04100
H 	H 	0.14830 0.78460 0.84400 0.01100
C 	C 	0.17845 0.79316 0.84633 -0.05100
C 	C 	0.19733 0.78806 0.85600 0.00900
H 	H 	0.20960 0.79600 0.85340 0.03700
C 	C 	0.19760 0.77116 0.86944 -0.09900
H 	H 	0.21020 0.76710 0.87610 0.06600
C 	C 	0.17924 0.76015 0.87310 0.05900
H 	H 	0.17960 0.74850 0.88230 0.00000
C 	C 	0.09302 0.85172 0.71879 0.09600
C 	C 	0.10863 0.83518 0.76534 0.05600
H 	H 	0.09770 0.83640 0.75530 -0.00100
C 	C 	0.10944 0.81736 0.77795 -0.09800
H 	H 	0.09890 0.80700 0.77690 0.06500
C 	C 	0.12551 0.81499 0.79177 0.00900
H 	H 	0.12650 0.80280 0.80020 0.03700
C 	C 	0.14057 0.83094 0.79333 -0.05000
C 	C 	0.13826 0.84831 0.78065 0.03900
H 	H 	0.14830 0.85920 0.78180 0.01400
C 	C 	0.15791 0.82962 0.80847 0.13400
C 	C 	0.17619 0.81177 0.83270 0.13800
C 	C 	0.18553 0.84430 0.82422 0.14000
C 	C 	0.21242 0.86275 0.84565 0.04400
H 	H 	0.21280 0.85070 0.85440 0.00900
C 	C 	0.19878 0.86271 0.82836 -0.05300
C 	C 	0.19790 0.88072 0.81601 0.00800
H 	H 	0.18880 0.88150 0.80430 0.03800
C 	C 	0.21063 0.89744 0.82141 -0.09700
H 	H 	0.21030 0.91000 0.81340 0.06500
C 	C 	0.22377 0.89585 0.83842 0.05700
H 	H 	0.23250 0.90740 0.84180 0.00200
C 	C 	0.25126 0.92504 0.88009 0.10400
C 	C 	0.26760 0.88864 0.91707 0.06000
H 	H 	0.25730 0.89930 0.91590 0.00000
C 	C 	0.27925 0.88786 0.93473 -0.10000
H 	H 	0.27660 0.89730 0.94590 0.06800
C 	C 	0.29519 0.87298 0.93645 0.00800
H 	H 	0.30370 0.87220 0.94860 0.03800
C 	C 	0.29822 0.85933 0.91989 -0.05200
C 	C 	0.28496 0.86077 0.90259 0.04300
H 	H 	0.28670 0.85110 0.89140 0.01000
C 	C 	0.31433 0.84304 0.92061 0.13400
N 	N 	0.16093 0.76527 0.86413 -0.22600
N 	N 	0.10431 0.86377 0.72646 -0.25800
N 	N 	0.12273 0.85067 0.76681 -0.22600
N 	N 	0.17030 0.84636 0.81052 -0.15300
N 	N 	0.15990 0.81193 0.81961 -0.15100
N 	N 	0.18970 0.82715 0.83523 -0.15500
N 	N 	0.22466 0.87861 0.85040 -0.23000
N 	N 	0.24874 0.90750 0.87722 -0.26200
N 	N 	0.27001 0.87506 0.90114 -0.22700
N 	N 	0.31397 0.82863 0.90560 -0.15100
S 	S 	0.07689 0.83475 0.70888 -0.06100
S 	S 	0.25491 0.94984 0.88430 -0.06200
C 	C 	0.08895 0.96878 0.35084 0.04100
H 	H 	0.10170 0.96540 0.34400 0.01100
C 	C 	0.07155 0.95684 0.34633 -0.05100
C 	C 	0.05267 0.96194 0.35600 0.00900
H 	H 	0.04040 0.95400 0.35340 0.03700
C 	C 	0.05240 0.97884 0.36944 -0.09900
H 	H 	0.03980 0.98290 0.37610 0.06600
C 	C 	0.07076 0.98985 0.37310 0.05900
H 	H 	0.07040 0.00150 0.38230 0.00000
C 	C 	0.15698 0.89828 0.21879 0.09600
C 	C 	0.14137 0.91482 0.26534 0.05600
H 	H 	0.15230 0.91360 0.25530 -0.00100
C 	C 	0.14056 0.93264 0.27795 -0.09800
H 	H 	0.15110 0.94300 0.27690 0.06500
C 	C 	0.12449 0.93501 0.29177 0.00900
H 	H 	0.12350 0.94720 0.30020 0.03700
C 	C 	0.10943 0.91906 0.29333 -0.05000
C 	C 	0.11174 0.90169 0.28065 0.03900
H 	H 	0.10170 0.89080 0.28180 0.01400
C 	C 	0.09209 0.92038 0.30847 0.13400
C 	C 	0.07381 0.93823 0.33270 0.13800
C 	C 	0.06447 0.90570 0.32422 0.14000
C 	C 	0.03758 0.88725 0.34565 0.04400
H 	H 	0.03720 0.89930 0.35440 0.00900
C 	C 	0.05122 0.88729 0.32836 -0.05300
C 	C 	0.05210 0.86928 0.31601 0.00800
H 	H 	0.06120 0.86850 0.30430 0.03800
C 	C 	0.03937 0.85256 0.32141 -0.09700
H 	H 	0.03970 0.84000 0.31340 0.06500
C 	C 	0.02623 0.85415 0.33842 0.05700
H 	H 	0.01750 0.84260 0.34180 0.00200
C 	C 	0.99874 0.82496 0.38009 0.10400
C 	C 	0.98240 0.86136 0.41707 0.06000
H 	H 	0.99270 0.85070 0.41590 0.00000
C 	C 	0.97075 0.86214 0.43473 -0.10000
H 	H 	0.97340 0.85270 0.44590 0.06800
C 	C 	0.95481 0.87702 0.43645 0.00800
H 	H 	0.94630 0.87780 0.44860 0.03800
C 	C 	0.95178 0.89067 0.41989 -0.05200
C 	C 	0.96504 0.88923 0.40259 0.04300
H 	H 	0.96330 0.89890 0.39140 0.01000
C 	C 	0.93567 0.90696 0.42061 0.13400
N 	N 	0.08907 0.98473 0.36413 -0.22600
N 	N 	0.14569 0.88623 0.22646 -0.25800
N 	N 	0.12727 0.89933 0.26681 -0.22600
N 	N 	0.07970 0.90364 0.31052 -0.15300
N 	N 	0.09010 0.93807 0.31961 -0.15100
N 	N 	0.06030 0.92285 0.33523 -0.15500
N 	N 	0.02534 0.87139 0.35040 -0.23000
N 	N 	0.00126 0.84250 0.37722 -0.26200
N 	N 	0.97999 0.87494 0.40114 -0.22700
N 	N 	0.93603 0.92137 0.40560 -0.15100
S 	S 	0.17311 0.91525 0.20888 -0.06100
S 	S 	0.99509 0.80016 0.38430 -0.06200
C 	C 	0.08895 0.46878 0.85084 0.04100
H 	H 	0.10170 0.46540 0.84400 0.01100
C 	C 	0.07155 0.45684 0.84633 -0.05100
C 	C 	0.05267 0.46194 0.85600 0.00900
H 	H 	0.04040 0.45400 0.85340 0.03700
C 	C 	0.05240 0.47884 0.86944 -0.09900
H 	H 	0.03980 0.48290 0.87610 0.06600
C 	C 	0.07076 0.48985 0.87310 0.05900
H 	H 	0.07040 0.50150 0.88230 0.00000
C 	C 	0.15698 0.39828 0.71879 0.09600
C 	C 	0.14137 0.41482 0.76534 0.05600
H 	H 	0.15230 0.41360 0.75530 -0.00100
C 	C 	0.14056 0.43264 0.77795 -0.09800
H 	H 	0.15110 0.44300 0.77690 0.06500
C 	C 	0.12449 0.43501 0.79177 0.00900
H 	H 	0.12350 0.44720 0.80020 0.03700
C 	C 	0.10943 0.41906 0.79333 -0.05000
C 	C 	0.11174 0.40169 0.78065 0.03900
H 	H 	0.10170 0.39080 0.78180 0.01400
C 	C 	0.09209 0.42038 0.80847 0.13400
C 	C 	0.07381 0.43823 0.83270 0.13800
C 	C 	0.06447 0.40570 0.82422 0.14000
C 	C 	0.03758 0.38725 0.84565 0.04400
H 	H 	0.03720 0.39930 0.85440 0.00900
C 	C 	0.05122 0.38729 0.82836 -0.05300
C 	C 	0.05210 0.36928 0.81601 0.00800
H 	H 	0.06120 0.36850 0.80430 0.03800
C 	C 	0.03937 0.35256 0.82141 -0.09700
H 	H 	0.03970 0.34000 0.81340 0.06500
C 	C 	0.02623 0.35415 0.83842 0.05700
H 	H 	0.01750 0.34260 0.84180 0.00200
C 	C 	0.99874 0.32496 0.88009 0.10400
C 	C 	0.98240 0.36136 0.91707 0.06000
H 	H 	0.99270 0.35070 0.91590 0.00000
C 	C 	0.97075 0.36214 0.93473 -0.10000
H 	H 	0.97340 0.35270 0.94590 0.06800
C 	C 	0.95481 0.37702 0.93645 0.00800
H 	H 	0.94630 0.37780 0.94860 0.03800
C 	C 	0.95178 0.39067 0.91989 -0.05200
C 	C 	0.96504 0.38923 0.90259 0.04300
H 	H 	0.96330 0.39890 0.89140 0.01000
C 	C 	0.93567 0.40696 0.92061 0.13400
N 	N 	0.08907 0.48473 0.86413 -0.22600
N 	N 	0.14569 0.38623 0.72646 -0.25800
N 	N 	0.12727 0.39933 0.76681 -0.22600
N 	N 	0.07970 0.40364 0.81052 -0.15300
N 	N 	0.09010 0.43807 0.81961 -0.15100
N 	N 	0.06030 0.42285 0.83523 -0.15500
N 	N 	0.02534 0.37139 0.85040 -0.23000
N 	N 	0.00126 0.34250 0.87722 -0.26200
N 	N 	0.97999 0.37494 0.90114 -0.22700
N 	N 	0.93603 0.42137 0.90560 -0.15100
S 	S 	0.17311 0.41525 0.70888 -0.06100
S 	S 	0.99509 0.30016 0.88430 -0.06200
C 	C 	0.58895 0.96878 0.85084 0.04100
H 	H 	0.60170 0.96540 0.84400 0.01100
C 	C 	0.57155 0.95684 0.84633 -0.05100
C 	C 	0.55267 0.96194 0.85600 0.00900
H 	H 	0.54040 0.95400 0.85340 0.03700
C 	C 	0.55240 0.97884 0.86944 -0.09900
H 	H 	0.53980 0.98290 0.87610 0.06600
C 	C 	0.57076 0.98985 0.87310 0.05900
H 	H 	0.57040 0.00150 0.88230 0.00000
C 	C 	0.65698 0.89828 0.71879 0.09600
C 	C 	0.64137 0.91482 0.76534 0.05600
H 	H 	0.65230 0.91360 0.75530 -0.00100
C 	C 	0.64056 0.93264 0.77795 -0.09800
H 	H 	0.65110 0.94300 0.77690 0.06500
C 	C 	0.62449 0.93501 0.79177 0.00900
H 	H 	0.62350 0.94720 0.80020 0.03700
C 	C 	0.60943 0.91906 0.79333 -0.05000
C 	C 	0.61174 0.90169 0.78065 0.03900
H 	H 	0.60170 0.89080 0.78180 0.01400
C 	C 	0.59209 0.92038 0.80847 0.13400
C 	C 	0.57381 0.93823 0.83270 0.13800
C 	C 	0.56447 0.90570 0.82422 0.14000
C 	C 	0.53758 0.88725 0.84565 0.04400
H 	H 	0.53720 0.89930 0.85440 0.00900
C 	C 	0.55122 0.88729 0.82836 -0.05300
C 	C 	0.55210 0.86928 0.81601 0.00800
H 	H 	0.56120 0.86850 0.80430 0.03800
C 	C 	0.53937 0.85256 0.82141 -0.09700
H 	H 	0.53970 0.84000 0.81340 0.06500
C 	C 	0.52623 0.85415 0.83842 0.05700
H 	H 	0.51750 0.84260 0.84180 0.00200
C 	C 	0.49874 0.82496 0.88009 0.10400
C 	C 	0.48240 0.86136 0.91707 0.06000
H 	H 	0.49270 0.85070 0.91590 0.00000
C 	C 	0.47075 0.86214 0.93473 -0.10000
H 	H 	0.47340 0.85270 0.94590 0.06800
C 	C 	0.45481 0.87702 0.93645 0.00800
H 	H 	0.44630 0.87780 0.94860 0.03800
C 	C 	0.45178 0.89067 0.91989 -0.05200
C 	C 	0.46504 0.88923 0.90259 0.04300
H 	H 	0.46330 0.89890 0.89140 0.01000
C 	C 	0.43567 0.90696 0.92061 0.13400
N 	N 	0.58907 0.98473 0.86413 -0.22600
N 	N 	0.64569 0.88623 0.72646 -0.25800
N 	N 	0.62727 0.89933 0.76681 -0.22600
N 	N 	0.57970 0.90364 0.81052 -0.15300
N 	N 	0.59010 0.93807 0.81961 -0.15100
N 	N 	0.56030 0.92285 0.83523 -0.15500
N 	N 	0.52534 0.87139 0.85040 -0.23000
N 	N 	0.50126 0.84250 0.87722 -0.26200
N 	N 	0.47999 0.87494 0.90114 -0.22700
N 	N 	0.43603 0.92137 0.90560 -0.15100
S 	S 	0.67311 0.91525 0.70888 -0.06100
S 	S 	0.49509 0.80016 0.88430 -0.06200
C 	C 	0.58895 0.46878 0.35084 0.04100
H 	H 	0.60170 0.46540 0.34400 0.01100
C 	C 	0.57155 0.45684 0.34633 -0.05100
C 	C 	0.55267 0.46194 0.35600 0.00900
H 	H 	0.54040 0.45400 0.35340 0.03700
C 	C 	0.55240 0.47884 0.36944 -0.09900
H 	H 	0.53980 0.48290 0.37610 0.06600
C 	C 	0.57076 0.48985 0.37310 0.05900
H 	H 	0.57040 0.50150 0.38230 0.00000
C 	C 	0.65698 0.39828 0.21879 0.09600
C 	C 	0.64137 0.41482 0.26534 0.05600
H 	H 	0.65230 0.41360 0.25530 -0.00100
C 	C 	0.64056 0.43264 0.27795 -0.09800
H 	H 	0.65110 0.44300 0.27690 0.06500
C 	C 	0.62449 0.43501 0.29177 0.00900
H 	H 	0.62350 0.44720 0.30020 0.03700
C 	C 	0.60943 0.41906 0.29333 -0.05000
C 	C 	0.61174 0.40169 0.28065 0.03900
H 	H 	0.60170 0.39080 0.28180 0.01400
C 	C 	0.59209 0.42038 0.30847 0.13400
C 	C 	0.57381 0.43823 0.33270 0.13800
C 	C 	0.56447 0.40570 0.32422 0.14000
C 	C 	0.53758 0.38725 0.34565 0.04400
H 	H 	0.53720 0.39930 0.35440 0.00900
C 	C 	0.55122 0.38729 0.32836 -0.05300
C 	C 	0.55210 0.36928 0.31601 0.00800
H 	H 	0.56120 0.36850 0.30430 0.03800
C 	C 	0.53937 0.35256 0.32141 -0.09700
H 	H 	0.53970 0.34000 0.31340 0.06500
C 	C 	0.52623 0.35415 0.33842 0.05700
H 	H 	0.51750 0.34260 0.34180 0.00200
C 	C 	0.49874 0.32496 0.38009 0.10400
C 	C 	0.48240 0.36136 0.41707 0.06000
H 	H 	0.49270 0.35070 0.41590 0.00000
C 	C 	0.47075 0.36214 0.43473 -0.10000
H 	H 	0.47340 0.35270 0.44590 0.06800
C 	C 	0.45481 0.37702 0.43645 0.00800
H 	H 	0.44630 0.37780 0.44860 0.03800
C 	C 	0.45178 0.39067 0.41989 -0.05200
C 	C 	0.46504 0.38923 0.40259 0.04300
H 	H 	0.46330 0.39890 0.39140 0.01000
C 	C 	0.43567 0.40696 0.42061 0.13400
N 	N 	0.58907 0.48473 0.36413 -0.22600
N 	N 	0.64569 0.38623 0.22646 -0.25800
N 	N 	0.62727 0.39933 0.26681 -0.22600
N 	N 	0.57970 0.40364 0.31052 -0.15300
N 	N 	0.59010 0.43807 0.31961 -0.15100
N 	N 	0.56030 0.42285 0.33523 -0.15500
N 	N 	0.52534 0.37139 0.35040 -0.23000
N 	N 	0.50126 0.34250 0.37722 -0.26200
N 	N 	0.47999 0.37494 0.40114 -0.22700
N 	N 	0.43603 0.42137 0.40560 -0.15100
S 	S 	0.67311 0.41525 0.20888 -0.06100
S 	S 	0.49509 0.30016 0.38430 -0.06200
C 	C 	0.89916 0.58895 0.78122 0.04100
H 	H 	0.90600 0.60170 0.78460 0.01100
C 	C 	0.90367 0.57155 0.79316 -0.05100
C 	C 	0.89400 0.55267 0.78806 0.00900
H 	H 	0.89660 0.54040 0.79600 0.03700
C 	C 	0.88056 0.55240 0.77116 -0.09900
H 	H 	0.87390 0.53980 0.76710 0.06600
C 	C 	0.87690 0.57076 0.76015 0.05900
H 	H 	0.86770 0.57040 0.74850 0.00000
C 	C 	0.03121 0.65698 0.85172 0.09600
C 	C 	0.98466 0.64137 0.83518 0.05600
H 	H 	0.99470 0.65230 0.83640 -0.00100
C 	C 	0.97205 0.64056 0.81736 -0.09800
H 	H 	0.97310 0.65110 0.80700 0.06500
C 	C 	0.95823 0.62449 0.81499 0.00900
H 	H 	0.94980 0.62350 0.80280 0.03700
C 	C 	0.95667 0.60943 0.83094 -0.05000
C 	C 	0.96935 0.61174 0.84831 0.03900
H 	H 	0.96820 0.60170 0.85920 0.01400
C 	C 	0.94153 0.59209 0.82962 0.13400
C 	C 	0.91730 0.57381 0.81177 0.13800
C 	C 	0.92578 0.56447 0.84430 0.14000
C 	C 	0.90435 0.53758 0.86275 0.04400
H 	H 	0.89560 0.53720 0.85070 0.00900
C 	C 	0.92164 0.55122 0.86271 -0.05300
C 	C 	0.93399 0.55210 0.88072 0.00800
H 	H 	0.94570 0.56120 0.88150 0.03800
C 	C 	0.92859 0.53937 0.89744 -0.09700
H 	H 	0.93660 0.53970 0.91000 0.06500
C 	C 	0.91158 0.52623 0.89585 0.05700
H 	H 	0.90820 0.51750 0.90740 0.00200
C 	C 	0.86991 0.49874 0.92504 0.10400
C 	C 	0.83293 0.48240 0.88864 0.06000
H 	H 	0.83410 0.49270 0.89930 0.00000
C 	C 	0.81527 0.47075 0.88786 -0.10000
H 	H 	0.80410 0.47340 0.89730 0.06800
C 	C 	0.81355 0.45481 0.87298 0.00800
H 	H 	0.80140 0.44630 0.87220 0.03800
C 	C 	0.83011 0.45178 0.85933 -0.05200
C 	C 	0.84741 0.46504 0.86077 0.04300
H 	H 	0.85860 0.46330 0.85110 0.01000
C 	C 	0.82939 0.43567 0.84304 0.13400
N 	N 	0.88587 0.58907 0.76527 -0.22600
N 	N 	0.02354 0.64569 0.86377 -0.25800
N 	N 	0.98319 0.62727 0.85067 -0.22600
N 	N 	0.93948 0.57970 0.84636 -0.15300
N 	N 	0.93039 0.59010 0.81193 -0.15100
N 	N 	0.91477 0.56030 0.82715 -0.15500
N 	N 	0.89960 0.52534 0.87861 -0.23000
N 	N 	0.87278 0.50126 0.90750 -0.26200
N 	N 	0.84886 0.47999 0.87506 -0.22700
N 	N 	0.84440 0.43603 0.82863 -0.15100
S 	S 	0.04112 0.67311 0.83475 -0.06100
S 	S 	0.86570 0.49509 0.94984 -0.06200
C 	C 	0.89916 0.08895 0.28122 0.04100
H 	H 	0.90600 0.10170 0.28460 0.01100
C 	C 	0.90367 0.07155 0.29316 -0.05100
C 	C 	0.89400 0.05267 0.28806 0.00900
H 	H 	0.89660 0.04040 0.29600 0.03700
C 	C 	0.88056 0.05240 0.27116 -0.09900
H 	H 	0.87390 0.03980 0.26710 0.06600
C 	C 	0.87690 0.07076 0.26015 0.05900
H 	H 	0.86770 0.07040 0.24850 0.00000
C 	C 	0.03121 0.15698 0.35172 0.09600
C 	C 	0.98466 0.14137 0.33518 0.05600
H 	H 	0.99470 0.15230 0.33640 -0.00100
C 	C 	0.97205 0.14056 0.31736 -0.09800
H 	H 	0.97310 0.15110 0.30700 0.06500
C 	C 	0.95823 0.12449 0.31499 0.00900
H 	H 	0.94980 0.12350 0.30280 0.03700
C 	C 	0.95667 0.10943 0.33094 -0.05000
C 	C 	0.96935 0.11174 0.34831 0.03900
H 	H 	0.96820 0.10170 0.35920 0.01400
C 	C 	0.94153 0.09209 0.32962 0.13400
C 	C 	0.91730 0.07381 0.31177 0.13800
C 	C 	0.92578 0.06447 0.34430 0.14000
C 	C 	0.90435 0.03758 0.36275 0.04400
H 	H 	0.89560 0.03720 0.35070 0.00900
C 	C 	0.92164 0.05122 0.36271 -0.05300
C 	C 	0.93399 0.05210 0.38072 0.00800
H 	H 	0.94570 0.06120 0.38150 0.03800
C 	C 	0.92859 0.03937 0.39744 -0.09700
H 	H 	0.93660 0.03970 0.41000 0.06500
C 	C 	0.91158 0.02623 0.39585 0.05700
H 	H 	0.90820 0.01750 0.40740 0.00200
C 	C 	0.86991 0.99874 0.42504 0.10400
C 	C 	0.83293 0.98240 0.38864 0.06000
H 	H 	0.83410 0.99270 0.39930 0.00000
C 	C 	0.81527 0.97075 0.38786 -0.10000
H 	H 	0.80410 0.97340 0.39730 0.06800
C 	C 	0.81355 0.95481 0.37298 0.00800
H 	H 	0.80140 0.94630 0.37220 0.03800
C 	C 	0.83011 0.95178 0.35933 -0.05200
C 	C 	0.84741 0.96504 0.36077 0.04300
H 	H 	0.85860 0.96330 0.35110 0.01000
C 	C 	0.82939 0.93567 0.34304 0.13400
N 	N 	0.88587 0.08907 0.26527 -0.22600
N 	N 	0.02354 0.14569 0.36377 -0.25800
N 	N 	0.98319 0.12727 0.35067 -0.22600
N 	N 	0.93948 0.07970 0.34636 -0.15300
N 	N 	0.93039 0.09010 0.31193 -0.15100
N 	N 	0.91477 0.06030 0.32715 -0.15500
N 	N 	0.89960 0.02534 0.37861 -0.23000
N 	N 	0.87278 0.00126 0.40750 -0.26200
N 	N 	0.84886 0.97999 0.37506 -0.22700
N 	N 	0.84440 0.93603 0.32863 -0.15100
S 	S 	0.04112 0.17311 0.33475 -0.06100
S 	S 	0.86570 0.99509 0.44984 -0.06200
C 	C 	0.39916 0.58895 0.28122 0.04100
H 	H 	0.40600 0.60170 0.28460 0.01100
C 	C 	0.40367 0.57155 0.29316 -0.05100
C 	C 	0.39400 0.55267 0.28806 0.00900
H 	H 	0.39660 0.54040 0.29600 0.03700
C 	C 	0.38056 0.55240 0.27116 -0.09900
H 	H 	0.37390 0.53980 0.26710 0.06600
C 	C 	0.37690 0.57076 0.26015 0.05900
H 	H 	0.36770 0.57040 0.24850 0.00000
C 	C 	0.53121 0.65698 0.35172 0.09600
C 	C 	0.48466 0.64137 0.33518 0.05600
H 	H 	0.49470 0.65230 0.33640 -0.00100
C 	C 	0.47205 0.64056 0.31736 -0.09800
H 	H 	0.47310 0.65110 0.30700 0.06500
C 	C 	0.45823 0.62449 0.31499 0.00900
H 	H 	0.44980 0.62350 0.30280 0.03700
C 	C 	0.45667 0.60943 0.33094 -0.05000
C 	C 	0.46935 0.61174 0.34831 0.03900
H 	H 	0.46820 0.60170 0.35920 0.01400
C 	C 	0.44153 0.59209 0.32962 0.13400
C 	C 	0.41730 0.57381 0.31177 0.13800
C 	C 	0.42578 0.56447 0.34430 0.14000
C 	C 	0.40435 0.53758 0.36275 0.04400
H 	H 	0.39560 0.53720 0.35070 0.00900
C 	C 	0.42164 0.55122 0.36271 -0.05300
C 	C 	0.43399 0.55210 0.38072 0.00800
H 	H 	0.44570 0.56120 0.38150 0.03800
C 	C 	0.42859 0.53937 0.39744 -0.09700
H 	H 	0.43660 0.53970 0.41000 0.06500
C 	C 	0.41158 0.52623 0.39585 0.05700
H 	H 	0.40820 0.51750 0.40740 0.00200
C 	C 	0.36991 0.49874 0.42504 0.10400
C 	C 	0.33293 0.48240 0.38864 0.06000
H 	H 	0.33410 0.49270 0.39930 0.00000
C 	C 	0.31527 0.47075 0.38786 -0.10000
H 	H 	0.30410 0.47340 0.39730 0.06800
C 	C 	0.31355 0.45481 0.37298 0.00800
H 	H 	0.30140 0.44630 0.37220 0.03800
C 	C 	0.33011 0.45178 0.35933 -0.05200
C 	C 	0.34741 0.46504 0.36077 0.04300
H 	H 	0.35860 0.46330 0.35110 0.01000
C 	C 	0.32939 0.43567 0.34304 0.13400
N 	N 	0.38587 0.58907 0.26527 -0.22600
N 	N 	0.52354 0.64569 0.36377 -0.25800
N 	N 	0.48319 0.62727 0.35067 -0.22600
N 	N 	0.43948 0.57970 0.34636 -0.15300
N 	N 	0.43039 0.59010 0.31193 -0.15100
N 	N 	0.41477 0.56030 0.32715 -0.15500
N 	N 	0.39960 0.52534 0.37861 -0.23000
N 	N 	0.37278 0.50126 0.40750 -0.26200
N 	N 	0.34886 0.47999 0.37506 -0.22700
N 	N 	0.34440 0.43603 0.32863 -0.15100
S 	S 	0.54112 0.67311 0.33475 -0.06100
S 	S 	0.36570 0.49509 0.44984 -0.06200
C 	C 	0.39916 0.08895 0.78122 0.04100
H 	H 	0.40600 0.10170 0.78460 0.01100
C 	C 	0.40367 0.07155 0.79316 -0.05100
C 	C 	0.39400 0.05267 0.78806 0.00900
H 	H 	0.39660 0.04040 0.79600 0.03700
C 	C 	0.38056 0.05240 0.77116 -0.09900
H 	H 	0.37390 0.03980 0.76710 0.06600
C 	C 	0.37690 0.07076 0.76015 0.05900
H 	H 	0.36770 0.07040 0.74850 0.00000
C 	C 	0.53121 0.15698 0.85172 0.09600
C 	C 	0.48466 0.14137 0.83518 0.05600
H 	H 	0.49470 0.15230 0.83640 -0.00100
C 	C 	0.47205 0.14056 0.81736 -0.09800
H 	H 	0.47310 0.15110 0.80700 0.06500
C 	C 	0.45823 0.12449 0.81499 0.00900
H 	H 	0.44980 0.12350 0.80280 0.03700
C 	C 	0.45667 0.10943 0.83094 -0.05000
C 	C 	0.46935 0.11174 0.84831 0.03900
H 	H 	0.46820 0.10170 0.85920 0.01400
C 	C 	0.44153 0.09209 0.82962 0.13400
C 	C 	0.41730 0.07381 0.81177 0.13800
C 	C 	0.42578 0.06447 0.84430 0.14000
C 	C 	0.40435 0.03758 0.86275 0.04400
H 	H 	0.39560 0.03720 0.85070 0.00900
C 	C 	0.42164 0.05122 0.86271 -0.05300
C 	C 	0.43399 0.05210 0.88072 0.00800
H 	H 	0.44570 0.06120 0.88150 0.03800
C 	C 	0.42859 0.03937 0.89744 -0.09700
H 	H 	0.43660 0.03970 0.91000 0.06500
C 	C 	0.41158 0.02623 0.89585 0.05700
H 	H 	0.40820 0.01750 0.90740 0.00200
C 	C 	0.36991 0.99874 0.92504 0.10400
C 	C 	0.33293 0.98240 0.88864 0.06000
H 	H 	0.33410 0.99270 0.89930 0.00000
C 	C 	0.31527 0.97075 0.88786 -0.10000
H 	H 	0.30410 0.97340 0.89730 0.06800
C 	C 	0.31355 0.95481 0.87298 0.00800
H 	H 	0.30140 0.94630 0.87220 0.03800
C 	C 	0.33011 0.95178 0.85933 -0.05200
C 	C 	0.34741 0.96504 0.86077 0.04300
H 	H 	0.35860 0.96330 0.85110 0.01000
C 	C 	0.32939 0.93567 0.84304 0.13400
N 	N 	0.38587 0.08907 0.76527 -0.22600
N 	N 	0.52354 0.14569 0.86377 -0.25800
N 	N 	0.48319 0.12727 0.85067 -0.22600
N 	N 	0.43948 0.07970 0.84636 -0.15300
N 	N 	0.43039 0.09010 0.81193 -0.15100
N 	N 	0.41477 0.06030 0.82715 -0.15500
N 	N 	0.39960 0.02534 0.87861 -0.23000
N 	N 	0.37278 0.00126 0.90750 -0.26200
N 	N 	0.34886 0.97999 0.87506 -0.22700
N 	N 	0.34440 0.93603 0.82863 -0.15100
S 	S 	0.54112 0.17311 0.83475 -0.06100
S 	S 	0.36570 0.99509 0.94984 -0.06200
C 	C 	0.39916 0.16105 0.46878 0.04100
H 	H 	0.40600 0.14830 0.46540 0.01100
C 	C 	0.40367 0.17845 0.45684 -0.05100
C 	C 	0.39400 0.19733 0.46194 0.00900
H 	H 	0.39660 0.20960 0.45400 0.03700
C 	C 	0.38056 0.19760 0.47884 -0.09900
H 	H 	0.37390 0.21020 0.48290 0.06600
C 	C 	0.37690 0.17924 0.48985 0.05900
H 	H 	0.36770 0.17960 0.50150 0.00000
C 	C 	0.53121 0.09302 0.39828 0.09600
C 	C 	0.48466 0.10863 0.41482 0.05600
H 	H 	0.49470 0.09770 0.41360 -0.00100
C 	C 	0.47205 0.10944 0.43264 -0.09800
H 	H 	0.47310 0.09890 0.44300 0.06500
C 	C 	0.45823 0.12551 0.43501 0.00900
H 	H 	0.44980 0.12650 0.44720 0.03700
C 	C 	0.45667 0.14057 0.41906 -0.05000
C 	C 	0.46935 0.13826 0.40169 0.03900
H 	H 	0.46820 0.14830 0.39080 0.01400
C 	C 	0.44153 0.15791 0.42038 0.13400
C 	C 	0.41730 0.17619 0.43823 0.13800
C 	C 	0.42578 0.18553 0.40570 0.14000
C 	C 	0.40435 0.21242 0.38725 0.04400
H 	H 	0.39560 0.21280 0.39930 0.00900
C 	C 	0.42164 0.19878 0.38729 -0.05300
C 	C 	0.43399 0.19790 0.36928 0.00800
H 	H 	0.44570 0.18880 0.36850 0.03800
C 	C 	0.42859 0.21063 0.35256 -0.09700
H 	H 	0.43660 0.21030 0.34000 0.06500
C 	C 	0.41158 0.22377 0.35415 0.05700
H 	H 	0.40820 0.23250 0.34260 0.00200
C 	C 	0.36991 0.25126 0.32496 0.10400
C 	C 	0.33293 0.26760 0.36136 0.06000
H 	H 	0.33410 0.25730 0.35070 0.00000
C 	C 	0.31527 0.27925 0.36214 -0.10000
H 	H 	0.30410 0.27660 0.35270 0.06800
C 	C 	0.31355 0.29519 0.37702 0.00800
H 	H 	0.30140 0.30370 0.37780 0.03800
C 	C 	0.33011 0.29822 0.39067 -0.05200
C 	C 	0.34741 0.28496 0.38923 0.04300
H 	H 	0.35860 0.28670 0.39890 0.01000
C 	C 	0.32939 0.31433 0.40696 0.13400
N 	N 	0.38587 0.16093 0.48473 -0.22600
N 	N 	0.52354 0.10431 0.38623 -0.25800
N 	N 	0.48319 0.12273 0.39933 -0.22600
N 	N 	0.43948 0.17030 0.40364 -0.15300
N 	N 	0.43039 0.15990 0.43807 -0.15100
N 	N 	0.41477 0.18970 0.42285 -0.15500
N 	N 	0.39960 0.22466 0.37139 -0.23000
N 	N 	0.37278 0.24874 0.34250 -0.26200
N 	N 	0.34886 0.27001 0.37494 -0.22700
N 	N 	0.34440 0.31397 0.42137 -0.15100
S 	S 	0.54112 0.07689 0.41525 -0.06100
S 	S 	0.36570 0.25491 0.30016 -0.06200
C 	C 	0.39916 0.66105 0.96878 0.04100
H 	H 	0.40600 0.64830 0.96540 0.01100
C 	C 	0.40367 0.67845 0.95684 -0.05100
C 	C 	0.39400 0.69733 0.96194 0.00900
H 	H 	0.39660 0.70960 0.95400 0.03700
C 	C 	0.38056 0.69760 0.97884 -0.09900
H 	H 	0.37390 0.71020 0.98290 0.06600
C 	C 	0.37690 0.67924 0.98985 0.05900
H 	H 	0.36770 0.67960 0.00150 0.00000
C 	C 	0.53121 0.59302 0.89828 0.09600
C 	C 	0.48466 0.60863 0.91482 0.05600
H 	H 	0.49470 0.59770 0.91360 -0.00100
C 	C 	0.47205 0.60944 0.93264 -0.09800
H 	H 	0.47310 0.59890 0.94300 0.06500
C 	C 	0.45823 0.62551 0.93501 0.00900
H 	H 	0.44980 0.62650 0.94720 0.03700
C 	C 	0.45667 0.64057 0.91906 -0.05000
C 	C 	0.46935 0.63826 0.90169 0.03900
H 	H 	0.46820 0.64830 0.89080 0.01400
C 	C 	0.44153 0.65791 0.92038 0.13400
C 	C 	0.41730 0.67619 0.93823 0.13800
C 	C 	0.42578 0.68553 0.90570 0.14000
C 	C 	0.40435 0.71242 0.88725 0.04400
H 	H 	0.39560 0.71280 0.89930 0.00900
C 	C 	0.42164 0.69878 0.88729 -0.05300
C 	C 	0.43399 0.69790 0.86928 0.00800
H 	H 	0.44570 0.68880 0.86850 0.03800
C 	C 	0.42859 0.71063 0.85256 -0.09700
H 	H 	0.43660 0.71030 0.84000 0.06500
C 	C 	0.41158 0.72377 0.85415 0.05700
H 	H 	0.40820 0.73250 0.84260 0.00200
C 	C 	0.36991 0.75126 0.82496 0.10400
C 	C 	0.33293 0.76760 0.86136 0.06000
H 	H 	0.33410 0.75730 0.85070 0.00000
C 	C 	0.31527 0.77925 0.86214 -0.10000
H 	H 	0.30410 0.77660 0.85270 0.06800
C 	C 	0.31355 0.79519 0.87702 0.00800
H 	H 	0.30140 0.80370 0.87780 0.03800
C 	C 	0.33011 0.79822 0.89067 -0.05200
C 	C 	0.34741 0.78496 0.88923 0.04300
H 	H 	0.35860 0.78670 0.89890 0.01000
C 	C 	0.32939 0.81433 0.90696 0.13400
N 	N 	0.38587 0.66093 0.98473 -0.22600
N 	N 	0.52354 0.60431 0.88623 -0.25800
N 	N 	0.48319 0.62273 0.89933 -0.22600
N 	N 	0.43948 0.67030 0.90364 -0.15300
N 	N 	0.43039 0.65990 0.93807 -0.15100
N 	N 	0.41477 0.68970 0.92285 -0.15500
N 	N 	0.39960 0.72466 0.87139 -0.23000
N 	N 	0.37278 0.74874 0.84250 -0.26200
N 	N 	0.34886 0.77001 0.87494 -0.22700
N 	N 	0.34440 0.81397 0.92137 -0.15100
S 	S 	0.54112 0.57689 0.91525 -0.06100
S 	S 	0.36570 0.75491 0.80016 -0.06200
C 	C 	0.89916 0.16105 0.96878 0.04100
H 	H 	0.90600 0.14830 0.96540 0.01100
C 	C 	0.90367 0.17845 0.95684 -0.05100
C 	C 	0.89400 0.19733 0.96194 0.00900
H 	H 	0.89660 0.20960 0.95400 0.03700
C 	C 	0.88056 0.19760 0.97884 -0.09900
H 	H 	0.87390 0.21020 0.98290 0.06600
C 	C 	0.87690 0.17924 0.98985 0.05900
H 	H 	0.86770 0.17960 0.00150 0.00000
C 	C 	0.03121 0.09302 0.89828 0.09600
C 	C 	0.98466 0.10863 0.91482 0.05600
H 	H 	0.99470 0.09770 0.91360 -0.00100
C 	C 	0.97205 0.10944 0.93264 -0.09800
H 	H 	0.97310 0.09890 0.94300 0.06500
C 	C 	0.95823 0.12551 0.93501 0.00900
H 	H 	0.94980 0.12650 0.94720 0.03700
C 	C 	0.95667 0.14057 0.91906 -0.05000
C 	C 	0.96935 0.13826 0.90169 0.03900
H 	H 	0.96820 0.14830 0.89080 0.01400
C 	C 	0.94153 0.15791 0.92038 0.13400
C 	C 	0.91730 0.17619 0.93823 0.13800
C 	C 	0.92578 0.18553 0.90570 0.14000
C 	C 	0.90435 0.21242 0.88725 0.04400
H 	H 	0.89560 0.21280 0.89930 0.00900
C 	C 	0.92164 0.19878 0.88729 -0.05300
C 	C 	0.93399 0.19790 0.86928 0.00800
H 	H 	0.94570 0.18880 0.86850 0.03800
C 	C 	0.92859 0.21063 0.85256 -0.09700
H 	H 	0.93660 0.21030 0.84000 0.06500
C 	C 	0.91158 0.22377 0.85415 0.05700
H 	H 	0.90820 0.23250 0.84260 0.00200
C 	C 	0.86991 0.25126 0.82496 0.10400
C 	C 	0.83293 0.26760 0.86136 0.06000
H 	H 	0.83410 0.25730 0.85070 0.00000
C 	C 	0.81527 0.27925 0.86214 -0.10000
H 	H 	0.80410 0.27660 0.85270 0.06800
C 	C 	0.81355 0.29519 0.87702 0.00800
H 	H 	0.80140 0.30370 0.87780 0.03800
C 	C 	0.83011 0.29822 0.89067 -0.05200
C 	C 	0.84741 0.28496 0.88923 0.04300
H 	H 	0.85860 0.28670 0.89890 0.01000
C 	C 	0.82939 0.31433 0.90696 0.13400
N 	N 	0.88587 0.16093 0.98473 -0.22600
N 	N 	0.02354 0.10431 0.88623 -0.25800
N 	N 	0.98319 0.12273 0.89933 -0.22600
N 	N 	0.93948 0.17030 0.90364 -0.15300
N 	N 	0.93039 0.15990 0.93807 -0.15100
N 	N 	0.91477 0.18970 0.92285 -0.15500
N 	N 	0.89960 0.22466 0.87139 -0.23000
N 	N 	0.87278 0.24874 0.84250 -0.26200
N 	N 	0.84886 0.27001 0.87494 -0.22700
N 	N 	0.84440 0.31397 0.92137 -0.15100
S 	S 	0.04112 0.07689 0.91525 -0.06100
S 	S 	0.86570 0.25491 0.80016 -0.06200
C 	C 	0.89916 0.66105 0.46878 0.04100
H 	H 	0.90600 0.64830 0.46540 0.01100
C 	C 	0.90367 0.67845 0.45684 -0.05100
C 	C 	0.89400 0.69733 0.46194 0.00900
H 	H 	0.89660 0.70960 0.45400 0.03700
C 	C 	0.88056 0.69760 0.47884 -0.09900
H 	H 	0.87390 0.71020 0.48290 0.06600
C 	C 	0.87690 0.67924 0.48985 0.05900
H 	H 	0.86770 0.67960 0.50150 0.00000
C 	C 	0.03121 0.59302 0.39828 0.09600
C 	C 	0.98466 0.60863 0.41482 0.05600
H 	H 	0.99470 0.59770 0.41360 -0.00100
C 	C 	0.97205 0.60944 0.43264 -0.09800
H 	H 	0.97310 0.59890 0.44300 0.06500
C 	C 	0.95823 0.62551 0.43501 0.00900
H 	H 	0.94980 0.62650 0.44720 0.03700
C 	C 	0.95667 0.64057 0.41906 -0.05000
C 	C 	0.96935 0.63826 0.40169 0.03900
H 	H 	0.96820 0.64830 0.39080 0.01400
C 	C 	0.94153 0.65791 0.42038 0.13400
C 	C 	0.91730 0.67619 0.43823 0.13800
C 	C 	0.92578 0.68553 0.40570 0.14000
C 	C 	0.90435 0.71242 0.38725 0.04400
H 	H 	0.89560 0.71280 0.39930 0.00900
C 	C 	0.92164 0.69878 0.38729 -0.05300
C 	C 	0.93399 0.69790 0.36928 0.00800
H 	H 	0.94570 0.68880 0.36850 0.03800
C 	C 	0.92859 0.71063 0.35256 -0.09700
H 	H 	0.93660 0.71030 0.34000 0.06500
C 	C 	0.91158 0.72377 0.35415 0.05700
H 	H 	0.90820 0.73250 0.34260 0.00200
C 	C 	0.86991 0.75126 0.32496 0.10400
C 	C 	0.83293 0.76760 0.36136 0.06000
H 	H 	0.83410 0.75730 0.35070 0.00000
C 	C 	0.81527 0.77925 0.36214 -0.10000
H 	H 	0.80410 0.77660 0.35270 0.06800
C 	C 	0.81355 0.79519 0.37702 0.00800
H 	H 	0.80140 0.80370 0.37780 0.03800
C 	C 	0.83011 0.79822 0.39067 -0.05200
C 	C 	0.84741 0.78496 0.38923 0.04300
H 	H 	0.85860 0.78670 0.39890 0.01000
C 	C 	0.82939 0.81433 0.40696 0.13400
N 	N 	0.88587 0.66093 0.48473 -0.22600
N 	N 	0.02354 0.60431 0.38623 -0.25800
N 	N 	0.98319 0.62273 0.39933 -0.22600
N 	N 	0.93948 0.67030 0.40364 -0.15300
N 	N 	0.93039 0.65990 0.43807 -0.15100
N 	N 	0.91477 0.68970 0.42285 -0.15500
N 	N 	0.89960 0.72466 0.37139 -0.23000
N 	N 	0.87278 0.74874 0.34250 -0.26200
N 	N 	0.84886 0.77001 0.37494 -0.22700
N 	N 	0.84440 0.81397 0.42137 -0.15100
S 	S 	0.04112 0.57689 0.41525 -0.06100
S 	S 	0.86570 0.75491 0.30016 -0.06200
C 	C 	0.85084 0.66105 0.28122 0.04100
H 	H 	0.84400 0.64830 0.28460 0.01100
C 	C 	0.84633 0.67845 0.29316 -0.05100
C 	C 	0.85600 0.69733 0.28806 0.00900
H 	H 	0.85340 0.70960 0.29600 0.03700
C 	C 	0.86944 0.69760 0.27116 -0.09900
H 	H 	0.87610 0.71020 0.26710 0.06600
C 	C 	0.87310 0.67924 0.26015 0.05900
H 	H 	0.88230 0.67960 0.24850 0.00000
C 	C 	0.71879 0.59302 0.35172 0.09600
C 	C 	0.76534 0.60863 0.33518 0.05600
H 	H 	0.75530 0.59770 0.33640 -0.00100
C 	C 	0.77795 0.60944 0.31736 -0.09800
H 	H 	0.77690 0.59890 0.30700 0.06500
C 	C 	0.79177 0.62551 0.31499 0.00900
H 	H 	0.80020 0.62650 0.30280 0.03700
C 	C 	0.79333 0.64057 0.33094 -0.05000
C 	C 	0.78065 0.63826 0.34831 0.03900
H 	H 	0.78180 0.64830 0.35920 0.01400
C 	C 	0.80847 0.65791 0.32962 0.13400
C 	C 	0.83270 0.67619 0.31177 0.13800
C 	C 	0.82422 0.68553 0.34430 0.14000
C 	C 	0.84565 0.71242 0.36275 0.04400
H 	H 	0.85440 0.71280 0.35070 0.00900
C 	C 	0.82836 0.69878 0.36271 -0.05300
C 	C 	0.81601 0.69790 0.38072 0.00800
H 	H 	0.80430 0.68880 0.38150 0.03800
C 	C 	0.82141 0.71063 0.39744 -0.09700
H 	H 	0.81340 0.71030 0.41000 0.06500
C 	C 	0.83842 0.72377 0.39585 0.05700
H 	H 	0.84180 0.73250 0.40740 0.00200
C 	C 	0.88009 0.75126 0.42504 0.10400
C 	C 	0.91707 0.76760 0.38864 0.06000
H 	H 	0.91590 0.75730 0.39930 0.00000
C 	C 	0.93473 0.77925 0.38786 -0.10000
H 	H 	0.94590 0.77660 0.39730 0.06800
C 	C 	0.93645 0.79519 0.37298 0.00800
H 	H 	0.94860 0.80370 0.37220 0.03800
C 	C 	0.91989 0.79822 0.35933 -0.05200
C 	C 	0.90259 0.78496 0.36077 0.04300
H 	H 	0.89140 0.78670 0.35110 0.01000
C 	C 	0.92061 0.81433 0.34304 0.13400
N 	N 	0.86413 0.66093 0.26527 -0.22600
N 	N 	0.72646 0.60431 0.36377 -0.25800
N 	N 	0.76681 0.62273 0.35067 -0.22600
N 	N 	0.81052 0.67030 0.34636 -0.15300
N 	N 	0.81961 0.65990 0.31193 -0.15100
N 	N 	0.83523 0.68970 0.32715 -0.15500
N 	N 	0.85040 0.72466 0.37861 -0.23000
N 	N 	0.87722 0.74874 0.40750 -0.26200
N 	N 	0.90114 0.77001 0.37506 -0.22700
N 	N 	0.90560 0.81397 0.32863 -0.15100
S 	S 	0.70888 0.57689 0.33475 -0.06100
S 	S 	0.88430 0.75491 0.44984 -0.06200
C 	C 	0.85084 0.16105 0.78122 0.04100
H 	H 	0.84400 0.14830 0.78460 0.01100
C 	C 	0.84633 0.17845 0.79316 -0.05100
C 	C 	0.85600 0.19733 0.78806 0.00900
H 	H 	0.85340 0.20960 0.79600 0.03700
C 	C 	0.86944 0.19760 0.77116 -0.09900
H 	H 	0.87610 0.21020 0.76710 0.06600
C 	C 	0.87310 0.17924 0.76015 0.05900
H 	H 	0.88230 0.17960 0.74850 0.00000
C 	C 	0.71879 0.09302 0.85172 0.09600
C 	C 	0.76534 0.10863 0.83518 0.05600
H 	H 	0.75530 0.09770 0.83640 -0.00100
C 	C 	0.77795 0.10944 0.81736 -0.09800
H 	H 	0.77690 0.09890 0.80700 0.06500
C 	C 	0.79177 0.12551 0.81499 0.00900
H 	H 	0.80020 0.12650 0.80280 0.03700
C 	C 	0.79333 0.14057 0.83094 -0.05000
C 	C 	0.78065 0.13826 0.84831 0.03900
H 	H 	0.78180 0.14830 0.85920 0.01400
C 	C 	0.80847 0.15791 0.82962 0.13400
C 	C 	0.83270 0.17619 0.81177 0.13800
C 	C 	0.82422 0.18553 0.84430 0.14000
C 	C 	0.84565 0.21242 0.86275 0.04400
H 	H 	0.85440 0.21280 0.85070 0.00900
C 	C 	0.82836 0.19878 0.86271 -0.05300
C 	C 	0.81601 0.19790 0.88072 0.00800
H 	H 	0.80430 0.18880 0.88150 0.03800
C 	C 	0.82141 0.21063 0.89744 -0.09700
H 	H 	0.81340 0.21030 0.91000 0.06500
C 	C 	0.83842 0.22377 0.89585 0.05700
H 	H 	0.84180 0.23250 0.90740 0.00200
C 	C 	0.88009 0.25126 0.92504 0.10400
C 	C 	0.91707 0.26760 0.88864 0.06000
H 	H 	0.91590 0.25730 0.89930 0.00000
C 	C 	0.93473 0.27925 0.88786 -0.10000
H 	H 	0.94590 0.27660 0.89730 0.06800
C 	C 	0.93645 0.29519 0.87298 0.00800
H 	H 	0.94860 0.30370 0.87220 0.03800
C 	C 	0.91989 0.29822 0.85933 -0.05200
C 	C 	0.90259 0.28496 0.86077 0.04300
H 	H 	0.89140 0.28670 0.85110 0.01000
C 	C 	0.92061 0.31433 0.84304 0.13400
N 	N 	0.86413 0.16093 0.76527 -0.22600
N 	N 	0.72646 0.10431 0.86377 -0.25800
N 	N 	0.76681 0.12273 0.85067 -0.22600
N 	N 	0.81052 0.17030 0.84636 -0.15300
N 	N 	0.81961 0.15990 0.81193 -0.15100
N 	N 	0.83523 0.18970 0.82715 -0.15500
N 	N 	0.85040 0.22466 0.87861 -0.23000
N 	N 	0.87722 0.24874 0.90750 -0.26200
N 	N 	0.90114 0.27001 0.87506 -0.22700
N 	N 	0.90560 0.31397 0.82863 -0.15100
S 	S 	0.70888 0.07689 0.83475 -0.06100
S 	S 	0.88430 0.25491 0.94984 -0.06200
C 	C 	0.35084 0.66105 0.78122 0.04100
H 	H 	0.34400 0.64830 0.78460 0.01100
C 	C 	0.34633 0.67845 0.79316 -0.05100
C 	C 	0.35600 0.69733 0.78806 0.00900
H 	H 	0.35340 0.70960 0.79600 0.03700
C 	C 	0.36944 0.69760 0.77116 -0.09900
H 	H 	0.37610 0.71020 0.76710 0.06600
C 	C 	0.37310 0.67924 0.76015 0.05900
H 	H 	0.38230 0.67960 0.74850 0.00000
C 	C 	0.21879 0.59302 0.85172 0.09600
C 	C 	0.26534 0.60863 0.83518 0.05600
H 	H 	0.25530 0.59770 0.83640 -0.00100
C 	C 	0.27795 0.60944 0.81736 -0.09800
H 	H 	0.27690 0.59890 0.80700 0.06500
C 	C 	0.29177 0.62551 0.81499 0.00900
H 	H 	0.30020 0.62650 0.80280 0.03700
C 	C 	0.29333 0.64057 0.83094 -0.05000
C 	C 	0.28065 0.63826 0.84831 0.03900
H 	H 	0.28180 0.64830 0.85920 0.01400
C 	C 	0.30847 0.65791 0.82962 0.13400
C 	C 	0.33270 0.67619 0.81177 0.13800
C 	C 	0.32422 0.68553 0.84430 0.14000
C 	C 	0.34565 0.71242 0.86275 0.04400
H 	H 	0.35440 0.71280 0.85070 0.00900
C 	C 	0.32836 0.69878 0.86271 -0.05300
C 	C 	0.31601 0.69790 0.88072 0.00800
H 	H 	0.30430 0.68880 0.88150 0.03800
C 	C 	0.32141 0.71063 0.89744 -0.09700
H 	H 	0.31340 0.71030 0.91000 0.06500
C 	C 	0.33842 0.72377 0.89585 0.05700
H 	H 	0.34180 0.73250 0.90740 0.00200
C 	C 	0.38009 0.75126 0.92504 0.10400
C 	C 	0.41707 0.76760 0.88864 0.06000
H 	H 	0.41590 0.75730 0.89930 0.00000
C 	C 	0.43473 0.77925 0.88786 -0.10000
H 	H 	0.44590 0.77660 0.89730 0.06800
C 	C 	0.43645 0.79519 0.87298 0.00800
H 	H 	0.44860 0.80370 0.87220 0.03800
C 	C 	0.41989 0.79822 0.85933 -0.05200
C 	C 	0.40259 0.78496 0.86077 0.04300
H 	H 	0.39140 0.78670 0.85110 0.01000
C 	C 	0.42061 0.81433 0.84304 0.13400
N 	N 	0.36413 0.66093 0.76527 -0.22600
N 	N 	0.22646 0.60431 0.86377 -0.25800
N 	N 	0.26681 0.62273 0.85067 -0.22600
N 	N 	0.31052 0.67030 0.84636 -0.15300
N 	N 	0.31961 0.65990 0.81193 -0.15100
N 	N 	0.33523 0.68970 0.82715 -0.15500
N 	N 	0.35040 0.72466 0.87861 -0.23000
N 	N 	0.37722 0.74874 0.90750 -0.26200
N 	N 	0.40114 0.77001 0.87506 -0.22700
N 	N 	0.40560 0.81397 0.82863 -0.15100
S 	S 	0.20888 0.57689 0.83475 -0.06100
S 	S 	0.38430 0.75491 0.94984 -0.06200
C 	C 	0.35084 0.16105 0.28122 0.04100
H 	H 	0.34400 0.14830 0.28460 0.01100
C 	C 	0.34633 0.17845 0.29316 -0.05100
C 	C 	0.35600 0.19733 0.28806 0.00900
H 	H 	0.35340 0.20960 0.29600 0.03700
C 	C 	0.36944 0.19760 0.27116 -0.09900
H 	H 	0.37610 0.21020 0.26710 0.06600
C 	C 	0.37310 0.17924 0.26015 0.05900
H 	H 	0.38230 0.17960 0.24850 0.00000
C 	C 	0.21879 0.09302 0.35172 0.09600
C 	C 	0.26534 0.10863 0.33518 0.05600
H 	H 	0.25530 0.09770 0.33640 -0.00100
C 	C 	0.27795 0.10944 0.31736 -0.09800
H 	H 	0.27690 0.09890 0.30700 0.06500
C 	C 	0.29177 0.12551 0.31499 0.00900
H 	H 	0.30020 0.12650 0.30280 0.03700
C 	C 	0.29333 0.14057 0.33094 -0.05000
C 	C 	0.28065 0.13826 0.34831 0.03900
H 	H 	0.28180 0.14830 0.35920 0.01400
C 	C 	0.30847 0.15791 0.32962 0.13400
C 	C 	0.33270 0.17619 0.31177 0.13800
C 	C 	0.32422 0.18553 0.34430 0.14000
C 	C 	0.34565 0.21242 0.36275 0.04400
H 	H 	0.35440 0.21280 0.35070 0.00900
C 	C 	0.32836 0.19878 0.36271 -0.05300
C 	C 	0.31601 0.19790 0.38072 0.00800
H 	H 	0.30430 0.18880 0.38150 0.03800
C 	C 	0.32141 0.21063 0.39744 -0.09700
H 	H 	0.31340 0.21030 0.41000 0.06500
C 	C 	0.33842 0.22377 0.39585 0.05700
H 	H 	0.34180 0.23250 0.40740 0.00200
C 	C 	0.38009 0.25126 0.42504 0.10400
C 	C 	0.41707 0.26760 0.38864 0.06000
H 	H 	0.41590 0.25730 0.39930 0.00000
C 	C 	0.43473 0.27925 0.38786 -0.10000
H 	H 	0.44590 0.27660 0.39730 0.06800
C 	C 	0.43645 0.29519 0.37298 0.00800
H 	H 	0.44860 0.30370 0.37220 0.03800
C 	C 	0.41989 0.29822 0.35933 -0.05200
C 	C 	0.40259 0.28496 0.36077 0.04300
H 	H 	0.39140 0.28670 0.35110 0.01000
C 	C 	0.42061 0.31433 0.34304 0.13400
N 	N 	0.36413 0.16093 0.26527 -0.22600
N 	N 	0.22646 0.10431 0.36377 -0.25800
N 	N 	0.26681 0.12273 0.35067 -0.22600
N 	N 	0.31052 0.17030 0.34636 -0.15300
N 	N 	0.31961 0.15990 0.31193 -0.15100
N 	N 	0.33523 0.18970 0.32715 -0.15500
N 	N 	0.35040 0.22466 0.37861 -0.23000
N 	N 	0.37722 0.24874 0.40750 -0.26200
N 	N 	0.40114 0.27001 0.37506 -0.22700
N 	N 	0.40560 0.31397 0.32863 -0.15100
S 	S 	0.20888 0.07689 0.33475 -0.06100
S 	S 	0.38430 0.25491 0.44984 -0.06200
C 	C 	0.35084 0.08895 0.96878 0.04100
H 	H 	0.34400 0.10170 0.96540 0.01100
C 	C 	0.34633 0.07155 0.95684 -0.05100
C 	C 	0.35600 0.05267 0.96194 0.00900
H 	H 	0.35340 0.04040 0.95400 0.03700
C 	C 	0.36944 0.05240 0.97884 -0.09900
H 	H 	0.37610 0.03980 0.98290 0.06600
C 	C 	0.37310 0.07076 0.98985 0.05900
H 	H 	0.38230 0.07040 0.00150 0.00000
C 	C 	0.21879 0.15698 0.89828 0.09600
C 	C 	0.26534 0.14137 0.91482 0.05600
H 	H 	0.25530 0.15230 0.91360 -0.00100
C 	C 	0.27795 0.14056 0.93264 -0.09800
H 	H 	0.27690 0.15110 0.94300 0.06500
C 	C 	0.29177 0.12449 0.93501 0.00900
H 	H 	0.30020 0.12350 0.94720 0.03700
C 	C 	0.29333 0.10943 0.91906 -0.05000
C 	C 	0.28065 0.11174 0.90169 0.03900
H 	H 	0.28180 0.10170 0.89080 0.01400
C 	C 	0.30847 0.09209 0.92038 0.13400
C 	C 	0.33270 0.07381 0.93823 0.13800
C 	C 	0.32422 0.06447 0.90570 0.14000
C 	C 	0.34565 0.03758 0.88725 0.04400
H 	H 	0.35440 0.03720 0.89930 0.00900
C 	C 	0.32836 0.05122 0.88729 -0.05300
C 	C 	0.31601 0.05210 0.86928 0.00800
H 	H 	0.30430 0.06120 0.86850 0.03800
C 	C 	0.32141 0.03937 0.85256 -0.09700
H 	H 	0.31340 0.03970 0.84000 0.06500
C 	C 	0.33842 0.02623 0.85415 0.05700
H 	H 	0.34180 0.01750 0.84260 0.00200
C 	C 	0.38009 0.99874 0.82496 0.10400
C 	C 	0.41707 0.98240 0.86136 0.06000
H 	H 	0.41590 0.99270 0.85070 0.00000
C 	C 	0.43473 0.97075 0.86214 -0.10000
H 	H 	0.44590 0.97340 0.85270 0.06800
C 	C 	0.43645 0.95481 0.87702 0.00800
H 	H 	0.44860 0.94630 0.87780 0.03800
C 	C 	0.41989 0.95178 0.89067 -0.05200
C 	C 	0.40259 0.96504 0.88923 0.04300
H 	H 	0.39140 0.96330 0.89890 0.01000
C 	C 	0.42061 0.93567 0.90696 0.13400
N 	N 	0.36413 0.08907 0.98473 -0.22600
N 	N 	0.22646 0.14569 0.88623 -0.25800
N 	N 	0.26681 0.12727 0.89933 -0.22600
N 	N 	0.31052 0.07970 0.90364 -0.15300
N 	N 	0.31961 0.09010 0.93807 -0.15100
N 	N 	0.33523 0.06030 0.92285 -0.15500
N 	N 	0.35040 0.02534 0.87139 -0.23000
N 	N 	0.37722 0.00126 0.84250 -0.26200
N 	N 	0.40114 0.97999 0.87494 -0.22700
N 	N 	0.40560 0.93603 0.92137 -0.15100
S 	S 	0.20888 0.17311 0.91525 -0.06100
S 	S 	0.38430 0.99509 0.80016 -0.06200
C 	C 	0.35084 0.58895 0.46878 0.04100
H 	H 	0.34400 0.60170 0.46540 0.01100
C 	C 	0.34633 0.57155 0.45684 -0.05100
C 	C 	0.35600 0.55267 0.46194 0.00900
H 	H 	0.35340 0.54040 0.45400 0.03700
C 	C 	0.36944 0.55240 0.47884 -0.09900
H 	H 	0.37610 0.53980 0.48290 0.06600
C 	C 	0.37310 0.57076 0.48985 0.05900
H 	H 	0.38230 0.57040 0.50150 0.00000
C 	C 	0.21879 0.65698 0.39828 0.09600
C 	C 	0.26534 0.64137 0.41482 0.05600
H 	H 	0.25530 0.65230 0.41360 -0.00100
C 	C 	0.27795 0.64056 0.43264 -0.09800
H 	H 	0.27690 0.65110 0.44300 0.06500
C 	C 	0.29177 0.62449 0.43501 0.00900
H 	H 	0.30020 0.62350 0.44720 0.03700
C 	C 	0.29333 0.60943 0.41906 -0.05000
C 	C 	0.28065 0.61174 0.40169 0.03900
H 	H 	0.28180 0.60170 0.39080 0.01400
C 	C 	0.30847 0.59209 0.42038 0.13400
C 	C 	0.33270 0.57381 0.43823 0.13800
C 	C 	0.32422 0.56447 0.40570 0.14000
C 	C 	0.34565 0.53758 0.38725 0.04400
H 	H 	0.35440 0.53720 0.39930 0.00900
C 	C 	0.32836 0.55122 0.38729 -0.05300
C 	C 	0.31601 0.55210 0.36928 0.00800
H 	H 	0.30430 0.56120 0.36850 0.03800
C 	C 	0.32141 0.53937 0.35256 -0.09700
H 	H 	0.31340 0.53970 0.34000 0.06500
C 	C 	0.33842 0.52623 0.35415 0.05700
H 	H 	0.34180 0.51750 0.34260 0.00200
C 	C 	0.38009 0.49874 0.32496 0.10400
C 	C 	0.41707 0.48240 0.36136 0.06000
H 	H 	0.41590 0.49270 0.35070 0.00000
C 	C 	0.43473 0.47075 0.36214 -0.10000
H 	H 	0.44590 0.47340 0.35270 0.06800
C 	C 	0.43645 0.45481 0.37702 0.00800
H 	H 	0.44860 0.44630 0.37780 0.03800
C 	C 	0.41989 0.45178 0.39067 -0.05200
C 	C 	0.40259 0.46504 0.38923 0.04300
H 	H 	0.39140 0.46330 0.39890 0.01000
C 	C 	0.42061 0.43567 0.40696 0.13400
N 	N 	0.36413 0.58907 0.48473 -0.22600
N 	N 	0.22646 0.64569 0.38623 -0.25800
N 	N 	0.26681 0.62727 0.39933 -0.22600
N 	N 	0.31052 0.57970 0.40364 -0.15300
N 	N 	0.31961 0.59010 0.43807 -0.15100
N 	N 	0.33523 0.56030 0.42285 -0.15500
N 	N 	0.35040 0.52534 0.37139 -0.23000
N 	N 	0.37722 0.50126 0.34250 -0.26200
N 	N 	0.40114 0.47999 0.37494 -0.22700
N 	N 	0.40560 0.43603 0.42137 -0.15100
S 	S 	0.20888 0.67311 0.41525 -0.06100
S 	S 	0.38430 0.49509 0.30016 -0.06200
C 	C 	0.85084 0.08895 0.46878 0.04100
H 	H 	0.84400 0.10170 0.46540 0.01100
C 	C 	0.84633 0.07155 0.45684 -0.05100
C 	C 	0.85600 0.05267 0.46194 0.00900
H 	H 	0.85340 0.04040 0.45400 0.03700
C 	C 	0.86944 0.05240 0.47884 -0.09900
H 	H 	0.87610 0.03980 0.48290 0.06600
C 	C 	0.87310 0.07076 0.48985 0.05900
H 	H 	0.88230 0.07040 0.50150 0.00000
C 	C 	0.71879 0.15698 0.39828 0.09600
C 	C 	0.76534 0.14137 0.41482 0.05600
H 	H 	0.75530 0.15230 0.41360 -0.00100
C 	C 	0.77795 0.14056 0.43264 -0.09800
H 	H 	0.77690 0.15110 0.44300 0.06500
C 	C 	0.79177 0.12449 0.43501 0.00900
H 	H 	0.80020 0.12350 0.44720 0.03700
C 	C 	0.79333 0.10943 0.41906 -0.05000
C 	C 	0.78065 0.11174 0.40169 0.03900
H 	H 	0.78180 0.10170 0.39080 0.01400
C 	C 	0.80847 0.09209 0.42038 0.13400
C 	C 	0.83270 0.07381 0.43823 0.13800
C 	C 	0.82422 0.06447 0.40570 0.14000
C 	C 	0.84565 0.03758 0.38725 0.04400
H 	H 	0.85440 0.03720 0.39930 0.00900
C 	C 	0.82836 0.05122 0.38729 -0.05300
C 	C 	0.81601 0.05210 0.36928 0.00800
H 	H 	0.80430 0.06120 0.36850 0.03800
C 	C 	0.82141 0.03937 0.35256 -0.09700
H 	H 	0.81340 0.03970 0.34000 0.06500
C 	C 	0.83842 0.02623 0.35415 0.05700
H 	H 	0.84180 0.01750 0.34260 0.00200
C 	C 	0.88009 0.99874 0.32496 0.10400
C 	C 	0.91707 0.98240 0.36136 0.06000
H 	H 	0.91590 0.99270 0.35070 0.00000
C 	C 	0.93473 0.97075 0.36214 -0.10000
H 	H 	0.94590 0.97340 0.35270 0.06800
C 	C 	0.93645 0.95481 0.37702 0.00800
H 	H 	0.94860 0.94630 0.37780 0.03800
C 	C 	0.91989 0.95178 0.39067 -0.05200
C 	C 	0.90259 0.96504 0.38923 0.04300
H 	H 	0.89140 0.96330 0.39890 0.01000
C 	C 	0.92061 0.93567 0.40696 0.13400
N 	N 	0.86413 0.08907 0.48473 -0.22600
N 	N 	0.72646 0.14569 0.38623 -0.25800
N 	N 	0.76681 0.12727 0.39933 -0.22600
N 	N 	0.81052 0.07970 0.40364 -0.15300
N 	N 	0.81961 0.09010 0.43807 -0.15100
N 	N 	0.83523 0.06030 0.42285 -0.15500
N 	N 	0.85040 0.02534 0.37139 -0.23000
N 	N 	0.87722 0.00126 0.34250 -0.26200
N 	N 	0.90114 0.97999 0.37494 -0.22700
N 	N 	0.90560 0.93603 0.42137 -0.15100
S 	S 	0.70888 0.17311 0.41525 -0.06100
S 	S 	0.88430 0.99509 0.30016 -0.06200
C 	C 	0.85084 0.58895 0.96878 0.04100
H 	H 	0.84400 0.60170 0.96540 0.01100
C 	C 	0.84633 0.57155 0.95684 -0.05100
C 	C 	0.85600 0.55267 0.96194 0.00900
H 	H 	0.85340 0.54040 0.95400 0.03700
C 	C 	0.86944 0.55240 0.97884 -0.09900
H 	H 	0.87610 0.53980 0.98290 0.06600
C 	C 	0.87310 0.57076 0.98985 0.05900
H 	H 	0.88230 0.57040 0.00150 0.00000
C 	C 	0.71879 0.65698 0.89828 0.09600
C 	C 	0.76534 0.64137 0.91482 0.05600
H 	H 	0.75530 0.65230 0.91360 -0.00100
C 	C 	0.77795 0.64056 0.93264 -0.09800
H 	H 	0.77690 0.65110 0.94300 0.06500
C 	C 	0.79177 0.62449 0.93501 0.00900
H 	H 	0.80020 0.62350 0.94720 0.03700
C 	C 	0.79333 0.60943 0.91906 -0.05000
C 	C 	0.78065 0.61174 0.90169 0.03900
H 	H 	0.78180 0.60170 0.89080 0.01400
C 	C 	0.80847 0.59209 0.92038 0.13400
C 	C 	0.83270 0.57381 0.93823 0.13800
C 	C 	0.82422 0.56447 0.90570 0.14000
C 	C 	0.84565 0.53758 0.88725 0.04400
H 	H 	0.85440 0.53720 0.89930 0.00900
C 	C 	0.82836 0.55122 0.88729 -0.05300
C 	C 	0.81601 0.55210 0.86928 0.00800
H 	H 	0.80430 0.56120 0.86850 0.03800
C 	C 	0.82141 0.53937 0.85256 -0.09700
H 	H 	0.81340 0.53970 0.84000 0.06500
C 	C 	0.83842 0.52623 0.85415 0.05700
H 	H 	0.84180 0.51750 0.84260 0.00200
C 	C 	0.88009 0.49874 0.82496 0.10400
C 	C 	0.91707 0.48240 0.86136 0.06000
H 	H 	0.91590 0.49270 0.85070 0.00000
C 	C 	0.93473 0.47075 0.86214 -0.10000
H 	H 	0.94590 0.47340 0.85270 0.06800
C 	C 	0.93645 0.45481 0.87702 0.00800
H 	H 	0.94860 0.44630 0.87780 0.03800
C 	C 	0.91989 0.45178 0.89067 -0.05200
C 	C 	0.90259 0.46504 0.88923 0.04300
H 	H 	0.89140 0.46330 0.89890 0.01000
C 	C 	0.92061 0.43567 0.90696 0.13400
N 	N 	0.86413 0.58907 0.98473 -0.22600
N 	N 	0.72646 0.64569 0.88623 -0.25800
N 	N 	0.76681 0.62727 0.89933 -0.22600
N 	N 	0.81052 0.57970 0.90364 -0.15300
N 	N 	0.81961 0.59010 0.93807 -0.15100
N 	N 	0.83523 0.56030 0.92285 -0.15500
N 	N 	0.85040 0.52534 0.87139 -0.23000
N 	N 	0.87722 0.50126 0.84250 -0.26200
N 	N 	0.90114 0.47999 0.87494 -0.22700
N 	N 	0.90560 0.43603 0.92137 -0.15100
S 	S 	0.70888 0.67311 0.91525 -0.06100
S 	S 	0.88430 0.49509 0.80016 -0.06200
C 	C 	0.78122 0.89916 0.58895 0.04100
H 	H 	0.78460 0.90600 0.60170 0.01100
C 	C 	0.79316 0.90367 0.57155 -0.05100
C 	C 	0.78806 0.89400 0.55267 0.00900
H 	H 	0.79600 0.89660 0.54040 0.03700
C 	C 	0.77116 0.88056 0.55240 -0.09900
H 	H 	0.76710 0.87390 0.53980 0.06600
C 	C 	0.76015 0.87690 0.57076 0.05900
H 	H 	0.74850 0.86770 0.57040 0.00000
C 	C 	0.85172 0.03121 0.65698 0.09600
C 	C 	0.83518 0.98466 0.64137 0.05600
H 	H 	0.83640 0.99470 0.65230 -0.00100
C 	C 	0.81736 0.97205 0.64056 -0.09800
H 	H 	0.80700 0.97310 0.65110 0.06500
C 	C 	0.81499 0.95823 0.62449 0.00900
H 	H 	0.80280 0.94980 0.62350 0.03700
C 	C 	0.83094 0.95667 0.60943 -0.05000
C 	C 	0.84831 0.96935 0.61174 0.03900
H 	H 	0.85920 0.96820 0.60170 0.01400
C 	C 	0.82962 0.94153 0.59209 0.13400
C 	C 	0.81177 0.91730 0.57381 0.13800
C 	C 	0.84430 0.92578 0.56447 0.14000
C 	C 	0.86275 0.90435 0.53758 0.04400
H 	H 	0.85070 0.89560 0.53720 0.00900
C 	C 	0.86271 0.92164 0.55122 -0.05300
C 	C 	0.88072 0.93399 0.55210 0.00800
H 	H 	0.88150 0.94570 0.56120 0.03800
C 	C 	0.89744 0.92859 0.53937 -0.09700
H 	H 	0.91000 0.93660 0.53970 0.06500
C 	C 	0.89585 0.91158 0.52623 0.05700
H 	H 	0.90740 0.90820 0.51750 0.00200
C 	C 	0.92504 0.86991 0.49874 0.10400
C 	C 	0.88864 0.83293 0.48240 0.06000
H 	H 	0.89930 0.83410 0.49270 0.00000
C 	C 	0.88786 0.81527 0.47075 -0.10000
H 	H 	0.89730 0.80410 0.47340 0.06800
C 	C 	0.87298 0.81355 0.45481 0.00800
H 	H 	0.87220 0.80140 0.44630 0.03800
C 	C 	0.85933 0.83011 0.45178 -0.05200
C 	C 	0.86077 0.84741 0.46504 0.04300
H 	H 	0.85110 0.85860 0.46330 0.01000
C 	C 	0.84304 0.82939 0.43567 0.13400
N 	N 	0.76527 0.88587 0.58907 -0.22600
N 	N 	0.86377 0.02354 0.64569 -0.25800
N 	N 	0.85067 0.98319 0.62727 -0.22600
N 	N 	0.84636 0.93948 0.57970 -0.15300
N 	N 	0.81193 0.93039 0.59010 -0.15100
N 	N 	0.82715 0.91477 0.56030 -0.15500
N 	N 	0.87861 0.89960 0.52534 -0.23000
N 	N 	0.90750 0.87278 0.50126 -0.26200
N 	N 	0.87506 0.84886 0.47999 -0.22700
N 	N 	0.82863 0.84440 0.43603 -0.15100
S 	S 	0.83475 0.04112 0.67311 -0.06100
S 	S 	0.94984 0.86570 0.49509 -0.06200
C 	C 	0.78122 0.39916 0.08895 0.04100
H 	H 	0.78460 0.40600 0.10170 0.01100
C 	C 	0.79316 0.40367 0.07155 -0.05100
C 	C 	0.78806 0.39400 0.05267 0.00900
H 	H 	0.79600 0.39660 0.04040 0.03700
C 	C 	0.77116 0.38056 0.05240 -0.09900
H 	H 	0.76710 0.37390 0.03980 0.06600
C 	C 	0.76015 0.37690 0.07076 0.05900
H 	H 	0.74850 0.36770 0.07040 0.00000
C 	C 	0.85172 0.53121 0.15698 0.09600
C 	C 	0.83518 0.48466 0.14137 0.05600
H 	H 	0.83640 0.49470 0.15230 -0.00100
C 	C 	0.81736 0.47205 0.14056 -0.09800
H 	H 	0.80700 0.47310 0.15110 0.06500
C 	C 	0.81499 0.45823 0.12449 0.00900
H 	H 	0.80280 0.44980 0.12350 0.03700
C 	C 	0.83094 0.45667 0.10943 -0.05000
C 	C 	0.84831 0.46935 0.11174 0.03900
H 	H 	0.85920 0.46820 0.10170 0.01400
C 	C 	0.82962 0.44153 0.09209 0.13400
C 	C 	0.81177 0.41730 0.07381 0.13800
C 	C 	0.84430 0.42578 0.06447 0.14000
C 	C 	0.86275 0.40435 0.03758 0.04400
H 	H 	0.85070 0.39560 0.03720 0.00900
C 	C 	0.86271 0.42164 0.05122 -0.05300
C 	C 	0.88072 0.43399 0.05210 0.00800
H 	H 	0.88150 0.44570 0.06120 0.03800
C 	C 	0.89744 0.42859 0.03937 -0.09700
H 	H 	0.91000 0.43660 0.03970 0.06500
C 	C 	0.89585 0.41158 0.02623 0.05700
H 	H 	0.90740 0.40820 0.01750 0.00200
C 	C 	0.92504 0.36991 0.99874 0.10400
C 	C 	0.88864 0.33293 0.98240 0.06000
H 	H 	0.89930 0.33410 0.99270 0.00000
C 	C 	0.88786 0.31527 0.97075 -0.10000
H 	H 	0.89730 0.30410 0.97340 0.06800
C 	C 	0.87298 0.31355 0.95481 0.00800
H 	H 	0.87220 0.30140 0.94630 0.03800
C 	C 	0.85933 0.33011 0.95178 -0.05200
C 	C 	0.86077 0.34741 0.96504 0.04300
H 	H 	0.85110 0.35860 0.96330 0.01000
C 	C 	0.84304 0.32939 0.93567 0.13400
N 	N 	0.76527 0.38587 0.08907 -0.22600
N 	N 	0.86377 0.52354 0.14569 -0.25800
N 	N 	0.85067 0.48319 0.12727 -0.22600
N 	N 	0.84636 0.43948 0.07970 -0.15300
N 	N 	0.81193 0.43039 0.09010 -0.15100
N 	N 	0.82715 0.41477 0.06030 -0.15500
N 	N 	0.87861 0.39960 0.02534 -0.23000
N 	N 	0.90750 0.37278 0.00126 -0.26200
N 	N 	0.87506 0.34886 0.97999 -0.22700
N 	N 	0.82863 0.34440 0.93603 -0.15100
S 	S 	0.83475 0.54112 0.17311 -0.06100
S 	S 	0.94984 0.36570 0.99509 -0.06200
C 	C 	0.28122 0.89916 0.08895 0.04100
H 	H 	0.28460 0.90600 0.10170 0.01100
C 	C 	0.29316 0.90367 0.07155 -0.05100
C 	C 	0.28806 0.89400 0.05267 0.00900
H 	H 	0.29600 0.89660 0.04040 0.03700
C 	C 	0.27116 0.88056 0.05240 -0.09900
H 	H 	0.26710 0.87390 0.03980 0.06600
C 	C 	0.26015 0.87690 0.07076 0.05900
H 	H 	0.24850 0.86770 0.07040 0.00000
C 	C 	0.35172 0.03121 0.15698 0.09600
C 	C 	0.33518 0.98466 0.14137 0.05600
H 	H 	0.33640 0.99470 0.15230 -0.00100
C 	C 	0.31736 0.97205 0.14056 -0.09800
H 	H 	0.30700 0.97310 0.15110 0.06500
C 	C 	0.31499 0.95823 0.12449 0.00900
H 	H 	0.30280 0.94980 0.12350 0.03700
C 	C 	0.33094 0.95667 0.10943 -0.05000
C 	C 	0.34831 0.96935 0.11174 0.03900
H 	H 	0.35920 0.96820 0.10170 0.01400
C 	C 	0.32962 0.94153 0.09209 0.13400
C 	C 	0.31177 0.91730 0.07381 0.13800
C 	C 	0.34430 0.92578 0.06447 0.14000
C 	C 	0.36275 0.90435 0.03758 0.04400
H 	H 	0.35070 0.89560 0.03720 0.00900
C 	C 	0.36271 0.92164 0.05122 -0.05300
C 	C 	0.38072 0.93399 0.05210 0.00800
H 	H 	0.38150 0.94570 0.06120 0.03800
C 	C 	0.39744 0.92859 0.03937 -0.09700
H 	H 	0.41000 0.93660 0.03970 0.06500
C 	C 	0.39585 0.91158 0.02623 0.05700
H 	H 	0.40740 0.90820 0.01750 0.00200
C 	C 	0.42504 0.86991 0.99874 0.10400
C 	C 	0.38864 0.83293 0.98240 0.06000
H 	H 	0.39930 0.83410 0.99270 0.00000
C 	C 	0.38786 0.81527 0.97075 -0.10000
H 	H 	0.39730 0.80410 0.97340 0.06800
C 	C 	0.37298 0.81355 0.95481 0.00800
H 	H 	0.37220 0.80140 0.94630 0.03800
C 	C 	0.35933 0.83011 0.95178 -0.05200
C 	C 	0.36077 0.84741 0.96504 0.04300
H 	H 	0.35110 0.85860 0.96330 0.01000
C 	C 	0.34304 0.82939 0.93567 0.13400
N 	N 	0.26527 0.88587 0.08907 -0.22600
N 	N 	0.36377 0.02354 0.14569 -0.25800
N 	N 	0.35067 0.98319 0.12727 -0.22600
N 	N 	0.34636 0.93948 0.07970 -0.15300
N 	N 	0.31193 0.93039 0.09010 -0.15100
N 	N 	0.32715 0.91477 0.06030 -0.15500
N 	N 	0.37861 0.89960 0.02534 -0.23000
N 	N 	0.40750 0.87278 0.00126 -0.26200
N 	N 	0.37506 0.84886 0.97999 -0.22700
N 	N 	0.32863 0.84440 0.93603 -0.15100
S 	S 	0.33475 0.04112 0.17311 -0.06100
S 	S 	0.44984 0.86570 0.99509 -0.06200
C 	C 	0.28122 0.39916 0.58895 0.04100
H 	H 	0.28460 0.40600 0.60170 0.01100
C 	C 	0.29316 0.40367 0.57155 -0.05100
C 	C 	0.28806 0.39400 0.55267 0.00900
H 	H 	0.29600 0.39660 0.54040 0.03700
C 	C 	0.27116 0.38056 0.55240 -0.09900
H 	H 	0.26710 0.37390 0.53980 0.06600
C 	C 	0.26015 0.37690 0.57076 0.05900
H 	H 	0.24850 0.36770 0.57040 0.00000
C 	C 	0.35172 0.53121 0.65698 0.09600
C 	C 	0.33518 0.48466 0.64137 0.05600
H 	H 	0.33640 0.49470 0.65230 -0.00100
C 	C 	0.31736 0.47205 0.64056 -0.09800
H 	H 	0.30700 0.47310 0.65110 0.06500
C 	C 	0.31499 0.45823 0.62449 0.00900
H 	H 	0.30280 0.44980 0.62350 0.03700
C 	C 	0.33094 0.45667 0.60943 -0.05000
C 	C 	0.34831 0.46935 0.61174 0.03900
H 	H 	0.35920 0.46820 0.60170 0.01400
C 	C 	0.32962 0.44153 0.59209 0.13400
C 	C 	0.31177 0.41730 0.57381 0.13800
C 	C 	0.34430 0.42578 0.56447 0.14000
C 	C 	0.36275 0.40435 0.53758 0.04400
H 	H 	0.35070 0.39560 0.53720 0.00900
C 	C 	0.36271 0.42164 0.55122 -0.05300
C 	C 	0.38072 0.43399 0.55210 0.00800
H 	H 	0.38150 0.44570 0.56120 0.03800
C 	C 	0.39744 0.42859 0.53937 -0.09700
H 	H 	0.41000 0.43660 0.53970 0.06500
C 	C 	0.39585 0.41158 0.52623 0.05700
H 	H 	0.40740 0.40820 0.51750 0.00200
C 	C 	0.42504 0.36991 0.49874 0.10400
C 	C 	0.38864 0.33293 0.48240 0.06000
H 	H 	0.39930 0.33410 0.49270 0.00000
C 	C 	0.38786 0.31527 0.47075 -0.10000
H 	H 	0.39730 0.30410 0.47340 0.06800
C 	C 	0.37298 0.31355 0.45481 0.00800
H 	H 	0.37220 0.30140 0.44630 0.03800
C 	C 	0.35933 0.33011 0.45178 -0.05200
C 	C 	0.36077 0.34741 0.46504 0.04300
H 	H 	0.35110 0.35860 0.46330 0.01000
C 	C 	0.34304 0.32939 0.43567 0.13400
N 	N 	0.26527 0.38587 0.58907 -0.22600
N 	N 	0.36377 0.52354 0.64569 -0.25800
N 	N 	0.35067 0.48319 0.62727 -0.22600
N 	N 	0.34636 0.43948 0.57970 -0.15300
N 	N 	0.31193 0.43039 0.59010 -0.15100
N 	N 	0.32715 0.41477 0.56030 -0.15500
N 	N 	0.37861 0.39960 0.52534 -0.23000
N 	N 	0.40750 0.37278 0.50126 -0.26200
N 	N 	0.37506 0.34886 0.47999 -0.22700
N 	N 	0.32863 0.34440 0.43603 -0.15100
S 	S 	0.33475 0.54112 0.67311 -0.06100
S 	S 	0.44984 0.36570 0.49509 -0.06200
C 	C 	0.46878 0.39916 0.16105 0.04100
H 	H 	0.46540 0.40600 0.14830 0.01100
C 	C 	0.45684 0.40367 0.17845 -0.05100
C 	C 	0.46194 0.39400 0.19733 0.00900
H 	H 	0.45400 0.39660 0.20960 0.03700
C 	C 	0.47884 0.38056 0.19760 -0.09900
H 	H 	0.48290 0.37390 0.21020 0.06600
C 	C 	0.48985 0.37690 0.17924 0.05900
H 	H 	0.50150 0.36770 0.17960 0.00000
C 	C 	0.39828 0.53121 0.09302 0.09600
C 	C 	0.41482 0.48466 0.10863 0.05600
H 	H 	0.41360 0.49470 0.09770 -0.00100
C 	C 	0.43264 0.47205 0.10944 -0.09800
H 	H 	0.44300 0.47310 0.09890 0.06500
C 	C 	0.43501 0.45823 0.12551 0.00900
H 	H 	0.44720 0.44980 0.12650 0.03700
C 	C 	0.41906 0.45667 0.14057 -0.05000
C 	C 	0.40169 0.46935 0.13826 0.03900
H 	H 	0.39080 0.46820 0.14830 0.01400
C 	C 	0.42038 0.44153 0.15791 0.13400
C 	C 	0.43823 0.41730 0.17619 0.13800
C 	C 	0.40570 0.42578 0.18553 0.14000
C 	C 	0.38725 0.40435 0.21242 0.04400
H 	H 	0.39930 0.39560 0.21280 0.00900
C 	C 	0.38729 0.42164 0.19878 -0.05300
C 	C 	0.36928 0.43399 0.19790 0.00800
H 	H 	0.36850 0.44570 0.18880 0.03800
C 	C 	0.35256 0.42859 0.21063 -0.09700
H 	H 	0.34000 0.43660 0.21030 0.06500
C 	C 	0.35415 0.41158 0.22377 0.05700
H 	H 	0.34260 0.40820 0.23250 0.00200
C 	C 	0.32496 0.36991 0.25126 0.10400
C 	C 	0.36136 0.33293 0.26760 0.06000
H 	H 	0.35070 0.33410 0.25730 0.00000
C 	C 	0.36214 0.31527 0.27925 -0.10000
H 	H 	0.35270 0.30410 0.27660 0.06800
C 	C 	0.37702 0.31355 0.29519 0.00800
H 	H 	0.37780 0.30140 0.30370 0.03800
C 	C 	0.39067 0.33011 0.29822 -0.05200
C 	C 	0.38923 0.34741 0.28496 0.04300
H 	H 	0.39890 0.35860 0.28670 0.01000
C 	C 	0.40696 0.32939 0.31433 0.13400
N 	N 	0.48473 0.38587 0.16093 -0.22600
N 	N 	0.38623 0.52354 0.10431 -0.25800
N 	N 	0.39933 0.48319 0.12273 -0.22600
N 	N 	0.40364 0.43948 0.17030 -0.15300
N 	N 	0.43807 0.43039 0.15990 -0.15100
N 	N 	0.42285 0.41477 0.18970 -0.15500
N 	N 	0.37139 0.39960 0.22466 -0.23000
N 	N 	0.34250 0.37278 0.24874 -0.26200
N 	N 	0.37494 0.34886 0.27001 -0.22700
N 	N 	0.42137 0.34440 0.31397 -0.15100
S 	S 	0.41525 0.54112 0.07689 -0.06100
S 	S 	0.30016 0.36570 0.25491 -0.06200
C 	C 	0.46878 0.89916 0.66105 0.04100
H 	H 	0.46540 0.90600 0.64830 0.01100
C 	C 	0.45684 0.90367 0.67845 -0.05100
C 	C 	0.46194 0.89400 0.69733 0.00900
H 	H 	0.45400 0.89660 0.70960 0.03700
C 	C 	0.47884 0.88056 0.69760 -0.09900
H 	H 	0.48290 0.87390 0.71020 0.06600
C 	C 	0.48985 0.87690 0.67924 0.05900
H 	H 	0.50150 0.86770 0.67960 0.00000
C 	C 	0.39828 0.03121 0.59302 0.09600
C 	C 	0.41482 0.98466 0.60863 0.05600
H 	H 	0.41360 0.99470 0.59770 -0.00100
C 	C 	0.43264 0.97205 0.60944 -0.09800
H 	H 	0.44300 0.97310 0.59890 0.06500
C 	C 	0.43501 0.95823 0.62551 0.00900
H 	H 	0.44720 0.94980 0.62650 0.03700
C 	C 	0.41906 0.95667 0.64057 -0.05000
C 	C 	0.40169 0.96935 0.63826 0.03900
H 	H 	0.39080 0.96820 0.64830 0.01400
C 	C 	0.42038 0.94153 0.65791 0.13400
C 	C 	0.43823 0.91730 0.67619 0.13800
C 	C 	0.40570 0.92578 0.68553 0.14000
C 	C 	0.38725 0.90435 0.71242 0.04400
H 	H 	0.39930 0.89560 0.71280 0.00900
C 	C 	0.38729 0.92164 0.69878 -0.05300
C 	C 	0.36928 0.93399 0.69790 0.00800
H 	H 	0.36850 0.94570 0.68880 0.03800
C 	C 	0.35256 0.92859 0.71063 -0.09700
H 	H 	0.34000 0.93660 0.71030 0.06500
C 	C 	0.35415 0.91158 0.72377 0.05700
H 	H 	0.34260 0.90820 0.73250 0.00200
C 	C 	0.32496 0.86991 0.75126 0.10400
C 	C 	0.36136 0.83293 0.76760 0.06000
H 	H 	0.35070 0.83410 0.75730 0.00000
C 	C 	0.36214 0.81527 0.77925 -0.10000
H 	H 	0.35270 0.80410 0.77660 0.06800
C 	C 	0.37702 0.81355 0.79519 0.00800
H 	H 	0.37780 0.80140 0.80370 0.03800
C 	C 	0.39067 0.83011 0.79822 -0.05200
C 	C 	0.38923 0.84741 0.78496 0.04300
H 	H 	0.39890 0.85860 0.78670 0.01000
C 	C 	0.40696 0.82939 0.81433 0.13400
N 	N 	0.48473 0.88587 0.66093 -0.22600
N 	N 	0.38623 0.02354 0.60431 -0.25800
N 	N 	0.39933 0.98319 0.62273 -0.22600
N 	N 	0.40364 0.93948 0.67030 -0.15300
N 	N 	0.43807 0.93039 0.65990 -0.15100
N 	N 	0.42285 0.91477 0.68970 -0.15500
N 	N 	0.37139 0.89960 0.72466 -0.23000
N 	N 	0.34250 0.87278 0.74874 -0.26200
N 	N 	0.37494 0.84886 0.77001 -0.22700
N 	N 	0.42137 0.84440 0.81397 -0.15100
S 	S 	0.41525 0.04112 0.57689 -0.06100
S 	S 	0.30016 0.86570 0.75491 -0.06200
C 	C 	0.96878 0.39916 0.66105 0.04100
H 	H 	0.96540 0.40600 0.64830 0.01100
C 	C 	0.95684 0.40367 0.67845 -0.05100
C 	C 	0.96194 0.39400 0.69733 0.00900
H 	H 	0.95400 0.39660 0.70960 0.03700
C 	C 	0.97884 0.38056 0.69760 -0.09900
H 	H 	0.98290 0.37390 0.71020 0.06600
C 	C 	0.98985 0.37690 0.67924 0.05900
H 	H 	0.00150 0.36770 0.67960 0.00000
C 	C 	0.89828 0.53121 0.59302 0.09600
C 	C 	0.91482 0.48466 0.60863 0.05600
H 	H 	0.91360 0.49470 0.59770 -0.00100
C 	C 	0.93264 0.47205 0.60944 -0.09800
H 	H 	0.94300 0.47310 0.59890 0.06500
C 	C 	0.93501 0.45823 0.62551 0.00900
H 	H 	0.94720 0.44980 0.62650 0.03700
C 	C 	0.91906 0.45667 0.64057 -0.05000
C 	C 	0.90169 0.46935 0.63826 0.03900
H 	H 	0.89080 0.46820 0.64830 0.01400
C 	C 	0.92038 0.44153 0.65791 0.13400
C 	C 	0.93823 0.41730 0.67619 0.13800
C 	C 	0.90570 0.42578 0.68553 0.14000
C 	C 	0.88725 0.40435 0.71242 0.04400
H 	H 	0.89930 0.39560 0.71280 0.00900
C 	C 	0.88729 0.42164 0.69878 -0.05300
C 	C 	0.86928 0.43399 0.69790 0.00800
H 	H 	0.86850 0.44570 0.68880 0.03800
C 	C 	0.85256 0.42859 0.71063 -0.09700
H 	H 	0.84000 0.43660 0.71030 0.06500
C 	C 	0.85415 0.41158 0.72377 0.05700
H 	H 	0.84260 0.40820 0.73250 0.00200
C 	C 	0.82496 0.36991 0.75126 0.10400
C 	C 	0.86136 0.33293 0.76760 0.06000
H 	H 	0.85070 0.33410 0.75730 0.00000
C 	C 	0.86214 0.31527 0.77925 -0.10000
H 	H 	0.85270 0.30410 0.77660 0.06800
C 	C 	0.87702 0.31355 0.79519 0.00800
H 	H 	0.87780 0.30140 0.80370 0.03800
C 	C 	0.89067 0.33011 0.79822 -0.05200
C 	C 	0.88923 0.34741 0.78496 0.04300
H 	H 	0.89890 0.35860 0.78670 0.01000
C 	C 	0.90696 0.32939 0.81433 0.13400
N 	N 	0.98473 0.38587 0.66093 -0.22600
N 	N 	0.88623 0.52354 0.60431 -0.25800
N 	N 	0.89933 0.48319 0.62273 -0.22600
N 	N 	0.90364 0.43948 0.67030 -0.15300
N 	N 	0.93807 0.43039 0.65990 -0.15100
N 	N 	0.92285 0.41477 0.68970 -0.15500
N 	N 	0.87139 0.39960 0.72466 -0.23000
N 	N 	0.84250 0.37278 0.74874 -0.26200
N 	N 	0.87494 0.34886 0.77001 -0.22700
N 	N 	0.92137 0.34440 0.81397 -0.15100
S 	S 	0.91525 0.54112 0.57689 -0.06100
S 	S 	0.80016 0.36570 0.75491 -0.06200
C 	C 	0.96878 0.89916 0.16105 0.04100
H 	H 	0.96540 0.90600 0.14830 0.01100
C 	C 	0.95684 0.90367 0.17845 -0.05100
C 	C 	0.96194 0.89400 0.19733 0.00900
H 	H 	0.95400 0.89660 0.20960 0.03700
C 	C 	0.97884 0.88056 0.19760 -0.09900
H 	H 	0.98290 0.87390 0.21020 0.06600
C 	C 	0.98985 0.87690 0.17924 0.05900
H 	H 	0.00150 0.86770 0.17960 0.00000
C 	C 	0.89828 0.03121 0.09302 0.09600
C 	C 	0.91482 0.98466 0.10863 0.05600
H 	H 	0.91360 0.99470 0.09770 -0.00100
C 	C 	0.93264 0.97205 0.10944 -0.09800
H 	H 	0.94300 0.97310 0.09890 0.06500
C 	C 	0.93501 0.95823 0.12551 0.00900
H 	H 	0.94720 0.94980 0.12650 0.03700
C 	C 	0.91906 0.95667 0.14057 -0.05000
C 	C 	0.90169 0.96935 0.13826 0.03900
H 	H 	0.89080 0.96820 0.14830 0.01400
C 	C 	0.92038 0.94153 0.15791 0.13400
C 	C 	0.93823 0.91730 0.17619 0.13800
C 	C 	0.90570 0.92578 0.18553 0.14000
C 	C 	0.88725 0.90435 0.21242 0.04400
H 	H 	0.89930 0.89560 0.21280 0.00900
C 	C 	0.88729 0.92164 0.19878 -0.05300
C 	C 	0.86928 0.93399 0.19790 0.00800
H 	H 	0.86850 0.94570 0.18880 0.03800
C 	C 	0.85256 0.92859 0.21063 -0.09700
H 	H 	0.84000 0.93660 0.21030 0.06500
C 	C 	0.85415 0.91158 0.22377 0.05700
H 	H 	0.84260 0.90820 0.23250 0.00200
C 	C 	0.82496 0.86991 0.25126 0.10400
C 	C 	0.86136 0.83293 0.26760 0.06000
H 	H 	0.85070 0.83410 0.25730 0.00000
C 	C 	0.86214 0.81527 0.27925 -0.10000
H 	H 	0.85270 0.80410 0.27660 0.06800
C 	C 	0.87702 0.81355 0.29519 0.00800
H 	H 	0.87780 0.80140 0.30370 0.03800
C 	C 	0.89067 0.83011 0.29822 -0.05200
C 	C 	0.88923 0.84741 0.28496 0.04300
H 	H 	0.89890 0.85860 0.28670 0.01000
C 	C 	0.90696 0.82939 0.31433 0.13400
N 	N 	0.98473 0.88587 0.16093 -0.22600
N 	N 	0.88623 0.02354 0.10431 -0.25800
N 	N 	0.89933 0.98319 0.12273 -0.22600
N 	N 	0.90364 0.93948 0.17030 -0.15300
N 	N 	0.93807 0.93039 0.15990 -0.15100
N 	N 	0.92285 0.91477 0.18970 -0.15500
N 	N 	0.87139 0.89960 0.22466 -0.23000
N 	N 	0.84250 0.87278 0.24874 -0.26200
N 	N 	0.87494 0.84886 0.27001 -0.22700
N 	N 	0.92137 0.84440 0.31397 -0.15100
S 	S 	0.91525 0.04112 0.07689 -0.06100
S 	S 	0.80016 0.86570 0.25491 -0.06200
C 	C 	0.28122 0.85084 0.66105 0.04100
H 	H 	0.28460 0.84400 0.64830 0.01100
C 	C 	0.29316 0.84633 0.67845 -0.05100
C 	C 	0.28806 0.85600 0.69733 0.00900
H 	H 	0.29600 0.85340 0.70960 0.03700
C 	C 	0.27116 0.86944 0.69760 -0.09900
H 	H 	0.26710 0.87610 0.71020 0.06600
C 	C 	0.26015 0.87310 0.67924 0.05900
H 	H 	0.24850 0.88230 0.67960 0.00000
C 	C 	0.35172 0.71879 0.59302 0.09600
C 	C 	0.33518 0.76534 0.60863 0.05600
H 	H 	0.33640 0.75530 0.59770 -0.00100
C 	C 	0.31736 0.77795 0.60944 -0.09800
H 	H 	0.30700 0.77690 0.59890 0.06500
C 	C 	0.31499 0.79177 0.62551 0.00900
H 	H 	0.30280 0.80020 0.62650 0.03700
C 	C 	0.33094 0.79333 0.64057 -0.05000
C 	C 	0.34831 0.78065 0.63826 0.03900
H 	H 	0.35920 0.78180 0.64830 0.01400
C 	C 	0.32962 0.80847 0.65791 0.13400
C 	C 	0.31177 0.83270 0.67619 0.13800
C 	C 	0.34430 0.82422 0.68553 0.14000
C 	C 	0.36275 0.84565 0.71242 0.04400
H 	H 	0.35070 0.85440 0.71280 0.00900
C 	C 	0.36271 0.82836 0.69878 -0.05300
C 	C 	0.38072 0.81601 0.69790 0.00800
H 	H 	0.38150 0.80430 0.68880 0.03800
C 	C 	0.39744 0.82141 0.71063 -0.09700
H 	H 	0.41000 0.81340 0.71030 0.06500
C 	C 	0.39585 0.83842 0.72377 0.05700
H 	H 	0.40740 0.84180 0.73250 0.00200
C 	C 	0.42504 0.88009 0.75126 0.10400
C 	C 	0.38864 0.91707 0.76760 0.06000
H 	H 	0.39930 0.91590 0.75730 0.00000
C 	C 	0.38786 0.93473 0.77925 -0.10000
H 	H 	0.39730 0.94590 0.77660 0.06800
C 	C 	0.37298 0.93645 0.79519 0.00800
H 	H 	0.37220 0.94860 0.80370 0.03800
C 	C 	0.35933 0.91989 0.79822 -0.05200
C 	C 	0.36077 0.90259 0.78496 0.04300
H 	H 	0.35110 0.89140 0.78670 0.01000
C 	C 	0.34304 0.92061 0.81433 0.13400
N 	N 	0.26527 0.86413 0.66093 -0.22600
N 	N 	0.36377 0.72646 0.60431 -0.25800
N 	N 	0.35067 0.76681 0.62273 -0.22600
N 	N 	0.34636 0.81052 0.67030 -0.15300
N 	N 	0.31193 0.81961 0.65990 -0.15100
N 	N 	0.32715 0.83523 0.68970 -0.15500
N 	N 	0.37861 0.85040 0.72466 -0.23000
N 	N 	0.40750 0.87722 0.74874 -0.26200
N 	N 	0.37506 0.90114 0.77001 -0.22700
N 	N 	0.32863 0.90560 0.81397 -0.15100
S 	S 	0.33475 0.70888 0.57689 -0.06100
S 	S 	0.44984 0.88430 0.75491 -0.06200
C 	C 	0.28122 0.35084 0.16105 0.04100
H 	H 	0.28460 0.34400 0.14830 0.01100
C 	C 	0.29316 0.34633 0.17845 -0.05100
C 	C 	0.28806 0.35600 0.19733 0.00900
H 	H 	0.29600 0.35340 0.20960 0.03700
C 	C 	0.27116 0.36944 0.19760 -0.09900
H 	H 	0.26710 0.37610 0.21020 0.06600
C 	C 	0.26015 0.37310 0.17924 0.05900
H 	H 	0.24850 0.38230 0.17960 0.00000
C 	C 	0.35172 0.21879 0.09302 0.09600
C 	C 	0.33518 0.26534 0.10863 0.05600
H 	H 	0.33640 0.25530 0.09770 -0.00100
C 	C 	0.31736 0.27795 0.10944 -0.09800
H 	H 	0.30700 0.27690 0.09890 0.06500
C 	C 	0.31499 0.29177 0.12551 0.00900
H 	H 	0.30280 0.30020 0.12650 0.03700
C 	C 	0.33094 0.29333 0.14057 -0.05000
C 	C 	0.34831 0.28065 0.13826 0.03900
H 	H 	0.35920 0.28180 0.14830 0.01400
C 	C 	0.32962 0.30847 0.15791 0.13400
C 	C 	0.31177 0.33270 0.17619 0.13800
C 	C 	0.34430 0.32422 0.18553 0.14000
C 	C 	0.36275 0.34565 0.21242 0.04400
H 	H 	0.35070 0.35440 0.21280 0.00900
C 	C 	0.36271 0.32836 0.19878 -0.05300
C 	C 	0.38072 0.31601 0.19790 0.00800
H 	H 	0.38150 0.30430 0.18880 0.03800
C 	C 	0.39744 0.32141 0.21063 -0.09700
H 	H 	0.41000 0.31340 0.21030 0.06500
C 	C 	0.39585 0.33842 0.22377 0.05700
H 	H 	0.40740 0.34180 0.23250 0.00200
C 	C 	0.42504 0.38009 0.25126 0.10400
C 	C 	0.38864 0.41707 0.26760 0.06000
H 	H 	0.39930 0.41590 0.25730 0.00000
C 	C 	0.38786 0.43473 0.27925 -0.10000
H 	H 	0.39730 0.44590 0.27660 0.06800
C 	C 	0.37298 0.43645 0.29519 0.00800
H 	H 	0.37220 0.44860 0.30370 0.03800
C 	C 	0.35933 0.41989 0.29822 -0.05200
C 	C 	0.36077 0.40259 0.28496 0.04300
H 	H 	0.35110 0.39140 0.28670 0.01000
C 	C 	0.34304 0.42061 0.31433 0.13400
N 	N 	0.26527 0.36413 0.16093 -0.22600
N 	N 	0.36377 0.22646 0.10431 -0.25800
N 	N 	0.35067 0.26681 0.12273 -0.22600
N 	N 	0.34636 0.31052 0.17030 -0.15300
N 	N 	0.31193 0.31961 0.15990 -0.15100
N 	N 	0.32715 0.33523 0.18970 -0.15500
N 	N 	0.37861 0.35040 0.22466 -0.23000
N 	N 	0.40750 0.37722 0.24874 -0.26200
N 	N 	0.37506 0.40114 0.27001 -0.22700
N 	N 	0.32863 0.40560 0.31397 -0.15100
S 	S 	0.33475 0.20888 0.07689 -0.06100
S 	S 	0.44984 0.38430 0.25491 -0.06200
C 	C 	0.78122 0.85084 0.16105 0.04100
H 	H 	0.78460 0.84400 0.14830 0.01100
C 	C 	0.79316 0.84633 0.17845 -0.05100
C 	C 	0.78806 0.85600 0.19733 0.00900
H 	H 	0.79600 0.85340 0.20960 0.03700
C 	C 	0.77116 0.86944 0.19760 -0.09900
H 	H 	0.76710 0.87610 0.21020 0.06600
C 	C 	0.76015 0.87310 0.17924 0.05900
H 	H 	0.74850 0.88230 0.17960 0.00000
C 	C 	0.85172 0.71879 0.09302 0.09600
C 	C 	0.83518 0.76534 0.10863 0.05600
H 	H 	0.83640 0.75530 0.09770 -0.00100
C 	C 	0.81736 0.77795 0.10944 -0.09800
H 	H 	0.80700 0.77690 0.09890 0.06500
C 	C 	0.81499 0.79177 0.12551 0.00900
H 	H 	0.80280 0.80020 0.12650 0.03700
C 	C 	0.83094 0.79333 0.14057 -0.05000
C 	C 	0.84831 0.78065 0.13826 0.03900
H 	H 	0.85920 0.78180 0.14830 0.01400
C 	C 	0.82962 0.80847 0.15791 0.13400
C 	C 	0.81177 0.83270 0.17619 0.13800
C 	C 	0.84430 0.82422 0.18553 0.14000
C 	C 	0.86275 0.84565 0.21242 0.04400
H 	H 	0.85070 0.85440 0.21280 0.00900
C 	C 	0.86271 0.82836 0.19878 -0.05300
C 	C 	0.88072 0.81601 0.19790 0.00800
H 	H 	0.88150 0.80430 0.18880 0.03800
C 	C 	0.89744 0.82141 0.21063 -0.09700
H 	H 	0.91000 0.81340 0.21030 0.06500
C 	C 	0.89585 0.83842 0.22377 0.05700
H 	H 	0.90740 0.84180 0.23250 0.00200
C 	C 	0.92504 0.88009 0.25126 0.10400
C 	C 	0.88864 0.91707 0.26760 0.06000
H 	H 	0.89930 0.91590 0.25730 0.00000
C 	C 	0.88786 0.93473 0.27925 -0.10000
H 	H 	0.89730 0.94590 0.27660 0.06800
C 	C 	0.87298 0.93645 0.29519 0.00800
H 	H 	0.87220 0.94860 0.30370 0.03800
C 	C 	0.85933 0.91989 0.29822 -0.05200
C 	C 	0.86077 0.90259 0.28496 0.04300
H 	H 	0.85110 0.89140 0.28670 0.01000
C 	C 	0.84304 0.92061 0.31433 0.13400
N 	N 	0.76527 0.86413 0.16093 -0.22600
N 	N 	0.86377 0.72646 0.10431 -0.25800
N 	N 	0.85067 0.76681 0.12273 -0.22600
N 	N 	0.84636 0.81052 0.17030 -0.15300
N 	N 	0.81193 0.81961 0.15990 -0.15100
N 	N 	0.82715 0.83523 0.18970 -0.15500
N 	N 	0.87861 0.85040 0.22466 -0.23000
N 	N 	0.90750 0.87722 0.24874 -0.26200
N 	N 	0.87506 0.90114 0.27001 -0.22700
N 	N 	0.82863 0.90560 0.31397 -0.15100
S 	S 	0.83475 0.70888 0.07689 -0.06100
S 	S 	0.94984 0.88430 0.25491 -0.06200
C 	C 	0.78122 0.35084 0.66105 0.04100
H 	H 	0.78460 0.34400 0.64830 0.01100
C 	C 	0.79316 0.34633 0.67845 -0.05100
C 	C 	0.78806 0.35600 0.69733 0.00900
H 	H 	0.79600 0.35340 0.70960 0.03700
C 	C 	0.77116 0.36944 0.69760 -0.09900
H 	H 	0.76710 0.37610 0.71020 0.06600
C 	C 	0.76015 0.37310 0.67924 0.05900
H 	H 	0.74850 0.38230 0.67960 0.00000
C 	C 	0.85172 0.21879 0.59302 0.09600
C 	C 	0.83518 0.26534 0.60863 0.05600
H 	H 	0.83640 0.25530 0.59770 -0.00100
C 	C 	0.81736 0.27795 0.60944 -0.09800
H 	H 	0.80700 0.27690 0.59890 0.06500
C 	C 	0.81499 0.29177 0.62551 0.00900
H 	H 	0.80280 0.30020 0.62650 0.03700
C 	C 	0.83094 0.29333 0.64057 -0.05000
C 	C 	0.84831 0.28065 0.63826 0.03900
H 	H 	0.85920 0.28180 0.64830 0.01400
C 	C 	0.82962 0.30847 0.65791 0.13400
C 	C 	0.81177 0.33270 0.67619 0.13800
C 	C 	0.84430 0.32422 0.68553 0.14000
C 	C 	0.86275 0.34565 0.71242 0.04400
H 	H 	0.85070 0.35440 0.71280 0.00900
C 	C 	0.86271 0.32836 0.69878 -0.05300
C 	C 	0.88072 0.31601 0.69790 0.00800
H 	H 	0.88150 0.30430 0.68880 0.03800
C 	C 	0.89744 0.32141 0.71063 -0.09700
H 	H 	0.91000 0.31340 0.71030 0.06500
C 	C 	0.89585 0.33842 0.72377 0.05700
H 	H 	0.90740 0.34180 0.73250 0.00200
C 	C 	0.92504 0.38009 0.75126 0.10400
C 	C 	0.88864 0.41707 0.76760 0.06000
H 	H 	0.89930 0.41590 0.75730 0.00000
C 	C 	0.88786 0.43473 0.77925 -0.10000
H 	H 	0.89730 0.44590 0.77660 0.06800
C 	C 	0.87298 0.43645 0.79519 0.00800
H 	H 	0.87220 0.44860 0.80370 0.03800
C 	C 	0.85933 0.41989 0.79822 -0.05200
C 	C 	0.86077 0.40259 0.78496 0.04300
H 	H 	0.85110 0.39140 0.78670 0.01000
C 	C 	0.84304 0.42061 0.81433 0.13400
N 	N 	0.76527 0.36413 0.66093 -0.22600
N 	N 	0.86377 0.22646 0.60431 -0.25800
N 	N 	0.85067 0.26681 0.62273 -0.22600
N 	N 	0.84636 0.31052 0.67030 -0.15300
N 	N 	0.81193 0.31961 0.65990 -0.15100
N 	N 	0.82715 0.33523 0.68970 -0.15500
N 	N 	0.87861 0.35040 0.72466 -0.23000
N 	N 	0.90750 0.37722 0.74874 -0.26200
N 	N 	0.87506 0.40114 0.77001 -0.22700
N 	N 	0.82863 0.40560 0.81397 -0.15100
S 	S 	0.83475 0.20888 0.57689 -0.06100
S 	S 	0.94984 0.38430 0.75491 -0.06200
C 	C 	0.96878 0.35084 0.08895 0.04100
H 	H 	0.96540 0.34400 0.10170 0.01100
C 	C 	0.95684 0.34633 0.07155 -0.05100
C 	C 	0.96194 0.35600 0.05267 0.00900
H 	H 	0.95400 0.35340 0.04040 0.03700
C 	C 	0.97884 0.36944 0.05240 -0.09900
H 	H 	0.98290 0.37610 0.03980 0.06600
C 	C 	0.98985 0.37310 0.07076 0.05900
H 	H 	0.00150 0.38230 0.07040 0.00000
C 	C 	0.89828 0.21879 0.15698 0.09600
C 	C 	0.91482 0.26534 0.14137 0.05600
H 	H 	0.91360 0.25530 0.15230 -0.00100
C 	C 	0.93264 0.27795 0.14056 -0.09800
H 	H 	0.94300 0.27690 0.15110 0.06500
C 	C 	0.93501 0.29177 0.12449 0.00900
H 	H 	0.94720 0.30020 0.12350 0.03700
C 	C 	0.91906 0.29333 0.10943 -0.05000
C 	C 	0.90169 0.28065 0.11174 0.03900
H 	H 	0.89080 0.28180 0.10170 0.01400
C 	C 	0.92038 0.30847 0.09209 0.13400
C 	C 	0.93823 0.33270 0.07381 0.13800
C 	C 	0.90570 0.32422 0.06447 0.14000
C 	C 	0.88725 0.34565 0.03758 0.04400
H 	H 	0.89930 0.35440 0.03720 0.00900
C 	C 	0.88729 0.32836 0.05122 -0.05300
C 	C 	0.86928 0.31601 0.05210 0.00800
H 	H 	0.86850 0.30430 0.06120 0.03800
C 	C 	0.85256 0.32141 0.03937 -0.09700
H 	H 	0.84000 0.31340 0.03970 0.06500
C 	C 	0.85415 0.33842 0.02623 0.05700
H 	H 	0.84260 0.34180 0.01750 0.00200
C 	C 	0.82496 0.38009 0.99874 0.10400
C 	C 	0.86136 0.41707 0.98240 0.06000
H 	H 	0.85070 0.41590 0.99270 0.00000
C 	C 	0.86214 0.43473 0.97075 -0.10000
H 	H 	0.85270 0.44590 0.97340 0.06800
C 	C 	0.87702 0.43645 0.95481 0.00800
H 	H 	0.87780 0.44860 0.94630 0.03800
C 	C 	0.89067 0.41989 0.95178 -0.05200
C 	C 	0.88923 0.40259 0.96504 0.04300
H 	H 	0.89890 0.39140 0.96330 0.01000
C 	C 	0.90696 0.42061 0.93567 0.13400
N 	N 	0.98473 0.36413 0.08907 -0.22600
N 	N 	0.88623 0.22646 0.14569 -0.25800
N 	N 	0.89933 0.26681 0.12727 -0.22600
N 	N 	0.90364 0.31052 0.07970 -0.15300
N 	N 	0.93807 0.31961 0.09010 -0.15100
N 	N 	0.92285 0.33523 0.06030 -0.15500
N 	N 	0.87139 0.35040 0.02534 -0.23000
N 	N 	0.84250 0.37722 0.00126 -0.26200
N 	N 	0.87494 0.40114 0.97999 -0.22700
N 	N 	0.92137 0.40560 0.93603 -0.15100
S 	S 	0.91525 0.20888 0.17311 -0.06100
S 	S 	0.80016 0.38430 0.99509 -0.06200
C 	C 	0.96878 0.85084 0.58895 0.04100
H 	H 	0.96540 0.84400 0.60170 0.01100
C 	C 	0.95684 0.84633 0.57155 -0.05100
C 	C 	0.96194 0.85600 0.55267 0.00900
H 	H 	0.95400 0.85340 0.54040 0.03700
C 	C 	0.97884 0.86944 0.55240 -0.09900
H 	H 	0.98290 0.87610 0.53980 0.06600
C 	C 	0.98985 0.87310 0.57076 0.05900
H 	H 	0.00150 0.88230 0.57040 0.00000
C 	C 	0.89828 0.71879 0.65698 0.09600
C 	C 	0.91482 0.76534 0.64137 0.05600
H 	H 	0.91360 0.75530 0.65230 -0.00100
C 	C 	0.93264 0.77795 0.64056 -0.09800
H 	H 	0.94300 0.77690 0.65110 0.06500
C 	C 	0.93501 0.79177 0.62449 0.00900
H 	H 	0.94720 0.80020 0.62350 0.03700
C 	C 	0.91906 0.79333 0.60943 -0.05000
C 	C 	0.90169 0.78065 0.61174 0.03900
H 	H 	0.89080 0.78180 0.60170 0.01400
C 	C 	0.92038 0.80847 0.59209 0.13400
C 	C 	0.93823 0.83270 0.57381 0.13800
C 	C 	0.90570 0.82422 0.56447 0.14000
C 	C 	0.88725 0.84565 0.53758 0.04400
H 	H 	0.89930 0.85440 0.53720 0.00900
C 	C 	0.88729 0.82836 0.55122 -0.05300
C 	C 	0.86928 0.81601 0.55210 0.00800
H 	H 	0.86850 0.80430 0.56120 0.03800
C 	C 	0.85256 0.82141 0.53937 -0.09700
H 	H 	0.84000 0.81340 0.53970 0.06500
C 	C 	0.85415 0.83842 0.52623 0.05700
H 	H 	0.84260 0.84180 0.51750 0.00200
C 	C 	0.82496 0.88009 0.49874 0.10400
C 	C 	0.86136 0.91707 0.48240 0.06000
H 	H 	0.85070 0.91590 0.49270 0.00000
C 	C 	0.86214 0.93473 0.47075 -0.10000
H 	H 	0.85270 0.94590 0.47340 0.06800
C 	C 	0.87702 0.93645 0.45481 0.00800
H 	H 	0.87780 0.94860 0.44630 0.03800
C 	C 	0.89067 0.91989 0.45178 -0.05200
C 	C 	0.88923 0.90259 0.46504 0.04300
H 	H 	0.89890 0.89140 0.46330 0.01000
C 	C 	0.90696 0.92061 0.43567 0.13400
N 	N 	0.98473 0.86413 0.58907 -0.22600
N 	N 	0.88623 0.72646 0.64569 -0.25800
N 	N 	0.89933 0.76681 0.62727 -0.22600
N 	N 	0.90364 0.81052 0.57970 -0.15300
N 	N 	0.93807 0.81961 0.59010 -0.15100
N 	N 	0.92285 0.83523 0.56030 -0.15500
N 	N 	0.87139 0.85040 0.52534 -0.23000
N 	N 	0.84250 0.87722 0.50126 -0.26200
N 	N 	0.87494 0.90114 0.47999 -0.22700
N 	N 	0.92137 0.90560 0.43603 -0.15100
S 	S 	0.91525 0.70888 0.67311 -0.06100
S 	S 	0.80016 0.88430 0.49509 -0.06200
C 	C 	0.46878 0.35084 0.58895 0.04100
H 	H 	0.46540 0.34400 0.60170 0.01100
C 	C 	0.45684 0.34633 0.57155 -0.05100
C 	C 	0.46194 0.35600 0.55267 0.00900
H 	H 	0.45400 0.35340 0.54040 0.03700
C 	C 	0.47884 0.36944 0.55240 -0.09900
H 	H 	0.48290 0.37610 0.53980 0.06600
C 	C 	0.48985 0.37310 0.57076 0.05900
H 	H 	0.50150 0.38230 0.57040 0.00000
C 	C 	0.39828 0.21879 0.65698 0.09600
C 	C 	0.41482 0.26534 0.64137 0.05600
H 	H 	0.41360 0.25530 0.65230 -0.00100
C 	C 	0.43264 0.27795 0.64056 -0.09800
H 	H 	0.44300 0.27690 0.65110 0.06500
C 	C 	0.43501 0.29177 0.62449 0.00900
H 	H 	0.44720 0.30020 0.62350 0.03700
C 	C 	0.41906 0.29333 0.60943 -0.05000
C 	C 	0.40169 0.28065 0.61174 0.03900
H 	H 	0.39080 0.28180 0.60170 0.01400
C 	C 	0.42038 0.30847 0.59209 0.13400
C 	C 	0.43823 0.33270 0.57381 0.13800
C 	C 	0.40570 0.32422 0.56447 0.14000
C 	C 	0.38725 0.34565 0.53758 0.04400
H 	H 	0.39930 0.35440 0.53720 0.00900
C 	C 	0.38729 0.32836 0.55122 -0.05300
C 	C 	0.36928 0.31601 0.55210 0.00800
H 	H 	0.36850 0.30430 0.56120 0.03800
C 	C 	0.35256 0.32141 0.53937 -0.09700
H 	H 	0.34000 0.31340 0.53970 0.06500
C 	C 	0.35415 0.33842 0.52623 0.05700
H 	H 	0.34260 0.34180 0.51750 0.00200
C 	C 	0.32496 0.38009 0.49874 0.10400
C 	C 	0.36136 0.41707 0.48240 0.06000
H 	H 	0.35070 0.41590 0.49270 0.00000
C 	C 	0.36214 0.43473 0.47075 -0.10000
H 	H 	0.35270 0.44590 0.47340 0.06800
C 	C 	0.37702 0.43645 0.45481 0.00800
H 	H 	0.37780 0.44860 0.44630 0.03800
C 	C 	0.39067 0.41989 0.45178 -0.05200
C 	C 	0.38923 0.40259 0.46504 0.04300
H 	H 	0.39890 0.39140 0.46330 0.01000
C 	C 	0.40696 0.42061 0.43567 0.13400
N 	N 	0.48473 0.36413 0.58907 -0.22600
N 	N 	0.38623 0.22646 0.64569 -0.25800
N 	N 	0.39933 0.26681 0.62727 -0.22600
N 	N 	0.40364 0.31052 0.57970 -0.15300
N 	N 	0.43807 0.31961 0.59010 -0.15100
N 	N 	0.42285 0.33523 0.56030 -0.15500
N 	N 	0.37139 0.35040 0.52534 -0.23000
N 	N 	0.34250 0.37722 0.50126 -0.26200
N 	N 	0.37494 0.40114 0.47999 -0.22700
N 	N 	0.42137 0.40560 0.43603 -0.15100
S 	S 	0.41525 0.20888 0.67311 -0.06100
S 	S 	0.30016 0.38430 0.49509 -0.06200
C 	C 	0.46878 0.85084 0.08895 0.04100
H 	H 	0.46540 0.84400 0.10170 0.01100
C 	C 	0.45684 0.84633 0.07155 -0.05100
C 	C 	0.46194 0.85600 0.05267 0.00900
H 	H 	0.45400 0.85340 0.04040 0.03700
C 	C 	0.47884 0.86944 0.05240 -0.09900
H 	H 	0.48290 0.87610 0.03980 0.06600
C 	C 	0.48985 0.87310 0.07076 0.05900
H 	H 	0.50150 0.88230 0.07040 0.00000
C 	C 	0.39828 0.71879 0.15698 0.09600
C 	C 	0.41482 0.76534 0.14137 0.05600
H 	H 	0.41360 0.75530 0.15230 -0.00100
C 	C 	0.43264 0.77795 0.14056 -0.09800
H 	H 	0.44300 0.77690 0.15110 0.06500
C 	C 	0.43501 0.79177 0.12449 0.00900
H 	H 	0.44720 0.80020 0.12350 0.03700
C 	C 	0.41906 0.79333 0.10943 -0.05000
C 	C 	0.40169 0.78065 0.11174 0.03900
H 	H 	0.39080 0.78180 0.10170 0.01400
C 	C 	0.42038 0.80847 0.09209 0.13400
C 	C 	0.43823 0.83270 0.07381 0.13800
C 	C 	0.40570 0.82422 0.06447 0.14000
C 	C 	0.38725 0.84565 0.03758 0.04400
H 	H 	0.39930 0.85440 0.03720 0.00900
C 	C 	0.38729 0.82836 0.05122 -0.05300
C 	C 	0.36928 0.81601 0.05210 0.00800
H 	H 	0.36850 0.80430 0.06120 0.03800
C 	C 	0.35256 0.82141 0.03937 -0.09700
H 	H 	0.34000 0.81340 0.03970 0.06500
C 	C 	0.35415 0.83842 0.02623 0.05700
H 	H 	0.34260 0.84180 0.01750 0.00200
C 	C 	0.32496 0.88009 0.99874 0.10400
C 	C 	0.36136 0.91707 0.98240 0.06000
H 	H 	0.35070 0.91590 0.99270 0.00000
C 	C 	0.36214 0.93473 0.97075 -0.10000
H 	H 	0.35270 0.94590 0.97340 0.06800
C 	C 	0.37702 0.93645 0.95481 0.00800
H 	H 	0.37780 0.94860 0.94630 0.03800
C 	C 	0.39067 0.91989 0.95178 -0.05200
C 	C 	0.38923 0.90259 0.96504 0.04300
H 	H 	0.39890 0.89140 0.96330 0.01000
C 	C 	0.40696 0.92061 0.93567 0.13400
N 	N 	0.48473 0.86413 0.08907 -0.22600
N 	N 	0.38623 0.72646 0.14569 -0.25800
N 	N 	0.39933 0.76681 0.12727 -0.22600
N 	N 	0.40364 0.81052 0.07970 -0.15300
N 	N 	0.43807 0.81961 0.09010 -0.15100
N 	N 	0.42285 0.83523 0.06030 -0.15500
N 	N 	0.37139 0.85040 0.02534 -0.23000
N 	N 	0.34250 0.87722 0.00126 -0.26200
N 	N 	0.37494 0.90114 0.97999 -0.22700
N 	N 	0.42137 0.90560 0.93603 -0.15100
S 	S 	0.41525 0.70888 0.17311 -0.06100
S 	S 	0.30016 0.88430 0.99509 -0.06200
C 	C 	0.03122 0.33895 0.10084 0.04100
H 	H 	0.03460 0.35170 0.09400 0.01100
C 	C 	0.04316 0.32155 0.09633 -0.05100
C 	C 	0.03806 0.30267 0.10600 0.00800
H 	H 	0.04600 0.29040 0.10340 0.03700
C 	C 	0.02116 0.30240 0.11944 -0.09900
H 	H 	0.01710 0.28980 0.12610 0.06600
C 	C 	0.01015 0.32076 0.12310 0.05900
H 	H 	0.99850 0.32040 0.13230 0.00000
C 	C 	0.10172 0.40698 0.96879 0.09600
C 	C 	0.08518 0.39137 0.01534 0.05600
H 	H 	0.08640 0.40230 0.00530 -0.00100
C 	C 	0.06736 0.39056 0.02795 -0.09800
H 	H 	0.05700 0.40110 0.02690 0.06500
C 	C 	0.06499 0.37449 0.04177 0.00900
H 	H 	0.05280 0.37350 0.05020 0.03700
C 	C 	0.08094 0.35943 0.04333 -0.05000
C 	C 	0.09831 0.36174 0.03065 0.03900
H 	H 	0.10920 0.35170 0.03180 0.01400
C 	C 	0.07962 0.34209 0.05847 0.13400
C 	C 	0.06177 0.32381 0.08270 0.13800
C 	C 	0.09430 0.31447 0.07422 0.14000
C 	C 	0.11275 0.28758 0.09565 0.04400
H 	H 	0.10070 0.28720 0.10440 0.00900
C 	C 	0.11271 0.30122 0.07836 -0.05300
C 	C 	0.13072 0.30210 0.06601 0.00800
H 	H 	0.13150 0.31120 0.05430 0.03800
C 	C 	0.14744 0.28937 0.07141 -0.09700
H 	H 	0.16000 0.28970 0.06340 0.06500
C 	C 	0.14585 0.27623 0.08842 0.05700
H 	H 	0.15740 0.26750 0.09180 0.00200
C 	C 	0.17504 0.24874 0.13009 0.10400
C 	C 	0.13864 0.23240 0.16707 0.06000
H 	H 	0.14930 0.24270 0.16590 0.00000
C 	C 	0.13786 0.22075 0.18473 -0.10000
H 	H 	0.14730 0.22340 0.19590 0.06800
C 	C 	0.12298 0.20481 0.18645 0.00800
H 	H 	0.12220 0.19630 0.19860 0.03800
C 	C 	0.10933 0.20178 0.16989 -0.05200
C 	C 	0.11077 0.21504 0.15259 0.04300
H 	H 	0.10110 0.21330 0.14140 0.01000
C 	C 	0.09304 0.18567 0.17061 0.13400
N 	N 	0.01527 0.33907 0.11413 -0.22500
N 	N 	0.11377 0.39569 0.97646 -0.25800
N 	N 	0.10067 0.37727 0.01681 -0.22600
N 	N 	0.09636 0.32970 0.06052 -0.15300
N 	N 	0.06193 0.34010 0.06961 -0.15100
N 	N 	0.07715 0.31030 0.08523 -0.15500
N 	N 	0.12861 0.27534 0.10040 -0.23000
N 	N 	0.15750 0.25126 0.12722 -0.26200
N 	N 	0.12506 0.22999 0.15114 -0.22700
N 	N 	0.07863 0.18603 0.15560 -0.15100
S 	S 	0.08475 0.42311 0.95888 -0.06100
S 	S 	0.19984 0.24509 0.13430 -0.06200
C 	C 	0.03122 0.83895 0.60084 0.04100
H 	H 	0.03460 0.85170 0.59400 0.01100
C 	C 	0.04316 0.82155 0.59633 -0.05100
C 	C 	0.03806 0.80267 0.60600 0.00800
H 	H 	0.04600 0.79040 0.60340 0.03700
C 	C 	0.02116 0.80240 0.61944 -0.09900
H 	H 	0.01710 0.78980 0.62610 0.06600
C 	C 	0.01015 0.82076 0.62310 0.05900
H 	H 	0.99850 0.82040 0.63230 0.00000
C 	C 	0.10172 0.90698 0.46879 0.09600
C 	C 	0.08518 0.89137 0.51534 0.05600
H 	H 	0.08640 0.90230 0.50530 -0.00100
C 	C 	0.06736 0.89056 0.52795 -0.09800
H 	H 	0.05700 0.90110 0.52690 0.06500
C 	C 	0.06499 0.87449 0.54177 0.00900
H 	H 	0.05280 0.87350 0.55020 0.03700
C 	C 	0.08094 0.85943 0.54333 -0.05000
C 	C 	0.09831 0.86174 0.53065 0.03900
H 	H 	0.10920 0.85170 0.53180 0.01400
C 	C 	0.07962 0.84209 0.55847 0.13400
C 	C 	0.06177 0.82381 0.58270 0.13800
C 	C 	0.09430 0.81447 0.57422 0.14000
C 	C 	0.11275 0.78758 0.59565 0.04400
H 	H 	0.10070 0.78720 0.60440 0.00900
C 	C 	0.11271 0.80122 0.57836 -0.05300
C 	C 	0.13072 0.80210 0.56601 0.00800
H 	H 	0.13150 0.81120 0.55430 0.03800
C 	C 	0.14744 0.78937 0.57141 -0.09700
H 	H 	0.16000 0.78970 0.56340 0.06500
C 	C 	0.14585 0.77623 0.58842 0.05700
H 	H 	0.15740 0.76750 0.59180 0.00200
C 	C 	0.17504 0.74874 0.63009 0.10400
C 	C 	0.13864 0.73240 0.66707 0.06000
H 	H 	0.14930 0.74270 0.66590 0.00000
C 	C 	0.13786 0.72075 0.68473 -0.10000
H 	H 	0.14730 0.72340 0.69590 0.06800
C 	C 	0.12298 0.70481 0.68645 0.00800
H 	H 	0.12220 0.69630 0.69860 0.03800
C 	C 	0.10933 0.70178 0.66989 -0.05200
C 	C 	0.11077 0.71504 0.65259 0.04300
H 	H 	0.10110 0.71330 0.64140 0.01000
C 	C 	0.09304 0.68567 0.67061 0.13400
N 	N 	0.01527 0.83907 0.61413 -0.22500
N 	N 	0.11377 0.89569 0.47646 -0.25800
N 	N 	0.10067 0.87727 0.51681 -0.22600
N 	N 	0.09636 0.82970 0.56052 -0.15300
N 	N 	0.06193 0.84010 0.56961 -0.15100
N 	N 	0.07715 0.81030 0.58523 -0.15500
N 	N 	0.12861 0.77534 0.60040 -0.23000
N 	N 	0.15750 0.75126 0.62722 -0.26200
N 	N 	0.12506 0.72999 0.65114 -0.22700
N 	N 	0.07863 0.68603 0.65560 -0.15100
S 	S 	0.08475 0.92311 0.45888 -0.06100
S 	S 	0.19984 0.74509 0.63430 -0.06200
C 	C 	0.53122 0.33895 0.60084 0.04100
H 	H 	0.53460 0.35170 0.59400 0.01100
C 	C 	0.54316 0.32155 0.59633 -0.05100
C 	C 	0.53806 0.30267 0.60600 0.00900
H 	H 	0.54600 0.29040 0.60340 0.03700
C 	C 	0.52116 0.30240 0.61944 -0.09900
H 	H 	0.51710 0.28980 0.62610 0.06600
C 	C 	0.51015 0.32076 0.62310 0.05900
H 	H 	0.49850 0.32040 0.63230 0.00000
C 	C 	0.60172 0.40698 0.46879 0.09600
C 	C 	0.58518 0.39137 0.51534 0.05600
H 	H 	0.58640 0.40230 0.50530 -0.00100
C 	C 	0.56736 0.39056 0.52795 -0.09800
H 	H 	0.55700 0.40110 0.52690 0.06500
C 	C 	0.56499 0.37449 0.54177 0.00900
H 	H 	0.55280 0.37350 0.55020 0.03700
C 	C 	0.58094 0.35943 0.54333 -0.05000
C 	C 	0.59831 0.36174 0.53065 0.03900
H 	H 	0.60920 0.35170 0.53180 0.01400
C 	C 	0.57962 0.34209 0.55847 0.13400
C 	C 	0.56177 0.32381 0.58270 0.13800
C 	C 	0.59430 0.31447 0.57422 0.14000
C 	C 	0.61275 0.28758 0.59565 0.04400
H 	H 	0.60070 0.28720 0.60440 0.00900
C 	C 	0.61271 0.30122 0.57836 -0.05300
C 	C 	0.63072 0.30210 0.56601 0.00800
H 	H 	0.63150 0.31120 0.55430 0.03800
C 	C 	0.64744 0.28937 0.57141 -0.09700
H 	H 	0.66000 0.28970 0.56340 0.06500
C 	C 	0.64585 0.27623 0.58842 0.05700
H 	H 	0.65740 0.26750 0.59180 0.00200
C 	C 	0.67504 0.24874 0.63009 0.10400
C 	C 	0.63864 0.23240 0.66707 0.06000
H 	H 	0.64930 0.24270 0.66590 0.00000
C 	C 	0.63786 0.22075 0.68473 -0.10000
H 	H 	0.64730 0.22340 0.69590 0.06800
C 	C 	0.62298 0.20481 0.68645 0.00800
H 	H 	0.62220 0.19630 0.69860 0.03800
C 	C 	0.60933 0.20178 0.66989 -0.05200
C 	C 	0.61077 0.21504 0.65259 0.04300
H 	H 	0.60110 0.21330 0.64140 0.01000
C 	C 	0.59304 0.18567 0.67061 0.13400
N 	N 	0.51527 0.33907 0.61413 -0.22600
N 	N 	0.61377 0.39569 0.47646 -0.25800
N 	N 	0.60067 0.37727 0.51681 -0.22600
N 	N 	0.59636 0.32970 0.56052 -0.15300
N 	N 	0.56193 0.34010 0.56961 -0.15100
N 	N 	0.57715 0.31030 0.58523 -0.15500
N 	N 	0.62861 0.27534 0.60040 -0.23000
N 	N 	0.65750 0.25126 0.62722 -0.26200
N 	N 	0.62506 0.22999 0.65114 -0.22700
N 	N 	0.57863 0.18603 0.65560 -0.15100
S 	S 	0.58475 0.42311 0.45888 -0.06100
S 	S 	0.69984 0.24509 0.63430 -0.06200
C 	C 	0.53122 0.83895 0.10084 0.04100
H 	H 	0.53460 0.85170 0.09400 0.01100
C 	C 	0.54316 0.82155 0.09633 -0.05100
C 	C 	0.53806 0.80267 0.10600 0.00900
H 	H 	0.54600 0.79040 0.10340 0.03700
C 	C 	0.52116 0.80240 0.11944 -0.09900
H 	H 	0.51710 0.78980 0.12610 0.06600
C 	C 	0.51015 0.82076 0.12310 0.05900
H 	H 	0.49850 0.82040 0.13230 0.00000
C 	C 	0.60172 0.90698 0.96879 0.09600
C 	C 	0.58518 0.89137 0.01534 0.05600
H 	H 	0.58640 0.90230 0.00530 -0.00100
C 	C 	0.56736 0.89056 0.02795 -0.09800
H 	H 	0.55700 0.90110 0.02690 0.06500
C 	C 	0.56499 0.87449 0.04177 0.00900
H 	H 	0.55280 0.87350 0.05020 0.03700
C 	C 	0.58094 0.85943 0.04333 -0.05000
C 	C 	0.59831 0.86174 0.03065 0.03900
H 	H 	0.60920 0.85170 0.03180 0.01400
C 	C 	0.57962 0.84209 0.05847 0.13400
C 	C 	0.56177 0.82381 0.08270 0.13800
C 	C 	0.59430 0.81447 0.07422 0.14000
C 	C 	0.61275 0.78758 0.09565 0.04400
H 	H 	0.60070 0.78720 0.10440 0.00900
C 	C 	0.61271 0.80122 0.07836 -0.05300
C 	C 	0.63072 0.80210 0.06601 0.00800
H 	H 	0.63150 0.81120 0.05430 0.03800
C 	C 	0.64744 0.78937 0.07141 -0.09700
H 	H 	0.66000 0.78970 0.06340 0.06500
C 	C 	0.64585 0.77623 0.08842 0.05700
H 	H 	0.65740 0.76750 0.09180 0.00200
C 	C 	0.67504 0.74874 0.13009 0.10400
C 	C 	0.63864 0.73240 0.16707 0.06000
H 	H 	0.64930 0.74270 0.16590 0.00000
C 	C 	0.63786 0.72075 0.18473 -0.10000
H 	H 	0.64730 0.72340 0.19590 0.06800
C 	C 	0.62298 0.70481 0.18645 0.00800
H 	H 	0.62220 0.69630 0.19860 0.03800
C 	C 	0.60933 0.70178 0.16989 -0.05200
C 	C 	0.61077 0.71504 0.15259 0.04300
H 	H 	0.60110 0.71330 0.14140 0.01000
C 	C 	0.59304 0.68567 0.17061 0.13400
N 	N 	0.51527 0.83907 0.11413 -0.22600
N 	N 	0.61377 0.89569 0.97646 -0.25800
N 	N 	0.60067 0.87727 0.01681 -0.22600
N 	N 	0.59636 0.82970 0.06052 -0.15300
N 	N 	0.56193 0.84010 0.06961 -0.15100
N 	N 	0.57715 0.81030 0.08523 -0.15500
N 	N 	0.62861 0.77534 0.10040 -0.23000
N 	N 	0.65750 0.75126 0.12722 -0.26200
N 	N 	0.62506 0.72999 0.15114 -0.22700
N 	N 	0.57863 0.68603 0.15560 -0.15100
S 	S 	0.58475 0.92311 0.95888 -0.06100
S 	S 	0.69984 0.74509 0.13430 -0.06200
C 	C 	0.71878 0.91105 0.60084 0.04100
H 	H 	0.71540 0.89830 0.59400 0.01100
C 	C 	0.70684 0.92845 0.59633 -0.05100
C 	C 	0.71194 0.94733 0.60600 0.00900
H 	H 	0.70400 0.95960 0.60340 0.03700
C 	C 	0.72884 0.94760 0.61944 -0.09900
H 	H 	0.73290 0.96020 0.62610 0.06600
C 	C 	0.73985 0.92924 0.62310 0.05900
H 	H 	0.75150 0.92960 0.63230 0.00000
C 	C 	0.64828 0.84302 0.46879 0.09600
C 	C 	0.66482 0.85863 0.51534 0.05600
H 	H 	0.66360 0.84770 0.50530 -0.00100
C 	C 	0.68264 0.85944 0.52795 -0.09800
H 	H 	0.69300 0.84890 0.52690 0.06500
C 	C 	0.68501 0.87551 0.54177 0.00900
H 	H 	0.69720 0.87650 0.55020 0.03700
C 	C 	0.66906 0.89057 0.54333 -0.05000
C 	C 	0.65169 0.88826 0.53065 0.03900
H 	H 	0.64080 0.89830 0.53180 0.01400
C 	C 	0.67038 0.90791 0.55847 0.13400
C 	C 	0.68823 0.92619 0.58270 0.13800
C 	C 	0.65570 0.93553 0.57422 0.14000
C 	C 	0.63725 0.96242 0.59565 0.04400
H 	H 	0.64930 0.96280 0.60440 0.00900
C 	C 	0.63729 0.94878 0.57836 -0.05300
C 	C 	0.61928 0.94790 0.56601 0.00800
H 	H 	0.61850 0.93880 0.55430 0.03800
C 	C 	0.60256 0.96063 0.57141 -0.09700
H 	H 	0.59000 0.96030 0.56340 0.06500
C 	C 	0.60415 0.97377 0.58842 0.05700
H 	H 	0.59260 0.98250 0.59180 0.00200
C 	C 	0.57496 0.00126 0.63009 0.10400
C 	C 	0.61136 0.01760 0.66707 0.06000
H 	H 	0.60070 0.00730 0.66590 0.00000
C 	C 	0.61214 0.02925 0.68473 -0.10000
H 	H 	0.60270 0.02660 0.69590 0.06800
C 	C 	0.62702 0.04519 0.68645 0.00800
H 	H 	0.62780 0.05370 0.69860 0.03800
C 	C 	0.64067 0.04822 0.66989 -0.05200
C 	C 	0.63923 0.03496 0.65259 0.04300
H 	H 	0.64890 0.03670 0.64140 0.01000
C 	C 	0.65696 0.06433 0.67061 0.13400
N 	N 	0.73473 0.91093 0.61413 -0.22600
N 	N 	0.63623 0.85431 0.47646 -0.25800
N 	N 	0.64933 0.87273 0.51681 -0.22600
N 	N 	0.65364 0.92030 0.56052 -0.15300
N 	N 	0.68807 0.90990 0.56961 -0.15100
N 	N 	0.67285 0.93970 0.58523 -0.15500
N 	N 	0.62139 0.97466 0.60040 -0.23000
N 	N 	0.59250 0.99874 0.62722 -0.26200
N 	N 	0.62494 0.02001 0.65114 -0.22700
N 	N 	0.67137 0.06397 0.65560 -0.15100
S 	S 	0.66525 0.82689 0.45888 -0.06100
S 	S 	0.55016 0.00491 0.63430 -0.06200
C 	C 	0.71878 0.41105 0.10084 0.04100
H 	H 	0.71540 0.39830 0.09400 0.01100
C 	C 	0.70684 0.42845 0.09633 -0.05100
C 	C 	0.71194 0.44733 0.10600 0.00900
H 	H 	0.70400 0.45960 0.10340 0.03700
C 	C 	0.72884 0.44760 0.11944 -0.09900
H 	H 	0.73290 0.46020 0.12610 0.06600
C 	C 	0.73985 0.42924 0.12310 0.05900
H 	H 	0.75150 0.42960 0.13230 0.00000
C 	C 	0.64828 0.34302 0.96879 0.09600
C 	C 	0.66482 0.35863 0.01534 0.05600
H 	H 	0.66360 0.34770 0.00530 -0.00100
C 	C 	0.68264 0.35944 0.02795 -0.09800
H 	H 	0.69300 0.34890 0.02690 0.06500
C 	C 	0.68501 0.37551 0.04177 0.00900
H 	H 	0.69720 0.37650 0.05020 0.03700
C 	C 	0.66906 0.39057 0.04333 -0.05000
C 	C 	0.65169 0.38826 0.03065 0.03900
H 	H 	0.64080 0.39830 0.03180 0.01400
C 	C 	0.67038 0.40791 0.05847 0.13400
C 	C 	0.68823 0.42619 0.08270 0.13800
C 	C 	0.65570 0.43553 0.07422 0.14000
C 	C 	0.63725 0.46242 0.09565 0.04400
H 	H 	0.64930 0.46280 0.10440 0.00900
C 	C 	0.63729 0.44878 0.07836 -0.05300
C 	C 	0.61928 0.44790 0.06601 0.00800
H 	H 	0.61850 0.43880 0.05430 0.03800
C 	C 	0.60256 0.46063 0.07141 -0.09700
H 	H 	0.59000 0.46030 0.06340 0.06500
C 	C 	0.60415 0.47377 0.08842 0.05700
H 	H 	0.59260 0.48250 0.09180 0.00200
C 	C 	0.57496 0.50126 0.13009 0.10400
C 	C 	0.61136 0.51760 0.16707 0.06000
H 	H 	0.60070 0.50730 0.16590 0.00000
C 	C 	0.61214 0.52925 0.18473 -0.10000
H 	H 	0.60270 0.52660 0.19590 0.06800
C 	C 	0.62702 0.54519 0.18645 0.00800
H 	H 	0.62780 0.55370 0.19860 0.03800
C 	C 	0.64067 0.54822 0.16989 -0.05200
C 	C 	0.63923 0.53496 0.15259 0.04300
H 	H 	0.64890 0.53670 0.14140 0.01000
C 	C 	0.65696 0.56433 0.17061 0.13400
N 	N 	0.73473 0.41093 0.11413 -0.22600
N 	N 	0.63623 0.35431 0.97646 -0.25800
N 	N 	0.64933 0.37273 0.01681 -0.22600
N 	N 	0.65364 0.42030 0.06052 -0.15300
N 	N 	0.68807 0.40990 0.06961 -0.15100
N 	N 	0.67285 0.43970 0.08523 -0.15500
N 	N 	0.62139 0.47466 0.10040 -0.23000
N 	N 	0.59250 0.49874 0.12722 -0.26200
N 	N 	0.62494 0.52001 0.15114 -0.22700
N 	N 	0.67137 0.56397 0.15560 -0.15100
S 	S 	0.66525 0.32689 0.95888 -0.06100
S 	S 	0.55016 0.50491 0.13430 -0.06200
C 	C 	0.21878 0.91105 0.10084 0.04100
H 	H 	0.21540 0.89830 0.09400 0.01100
C 	C 	0.20684 0.92845 0.09633 -0.05100
C 	C 	0.21194 0.94733 0.10600 0.00900
H 	H 	0.20400 0.95960 0.10340 0.03700
C 	C 	0.22884 0.94760 0.11944 -0.09900
H 	H 	0.23290 0.96020 0.12610 0.06600
C 	C 	0.23985 0.92924 0.12310 0.05900
H 	H 	0.25150 0.92960 0.13230 0.00000
C 	C 	0.14828 0.84302 0.96879 0.09600
C 	C 	0.16482 0.85863 0.01534 0.05600
H 	H 	0.16360 0.84770 0.00530 -0.00100
C 	C 	0.18264 0.85944 0.02795 -0.09800
H 	H 	0.19300 0.84890 0.02690 0.06500
C 	C 	0.18501 0.87551 0.04177 0.00900
H 	H 	0.19720 0.87650 0.05020 0.03700
C 	C 	0.16906 0.89057 0.04333 -0.05000
C 	C 	0.15169 0.88826 0.03065 0.03900
H 	H 	0.14080 0.89830 0.03180 0.01400
C 	C 	0.17038 0.90791 0.05847 0.13400
C 	C 	0.18823 0.92619 0.08270 0.13800
C 	C 	0.15570 0.93553 0.07422 0.14000
C 	C 	0.13725 0.96242 0.09565 0.04400
H 	H 	0.14930 0.96280 0.10440 0.00900
C 	C 	0.13729 0.94878 0.07836 -0.05300
C 	C 	0.11928 0.94790 0.06601 0.00800
H 	H 	0.11850 0.93880 0.05430 0.03800
C 	C 	0.10256 0.96063 0.07141 -0.09700
H 	H 	0.09000 0.96030 0.06340 0.06500
C 	C 	0.10415 0.97377 0.08842 0.05700
H 	H 	0.09260 0.98250 0.09180 0.00200
C 	C 	0.07496 0.00126 0.13009 0.10400
C 	C 	0.11136 0.01760 0.16707 0.06000
H 	H 	0.10070 0.00730 0.16590 0.00000
C 	C 	0.11214 0.02925 0.18473 -0.10000
H 	H 	0.10270 0.02660 0.19590 0.06800
C 	C 	0.12702 0.04519 0.18645 0.00800
H 	H 	0.12780 0.05370 0.19860 0.03800
C 	C 	0.14067 0.04822 0.16989 -0.05200
C 	C 	0.13923 0.03496 0.15259 0.04300
H 	H 	0.14890 0.03670 0.14140 0.01000
C 	C 	0.15696 0.06433 0.17061 0.13400
N 	N 	0.23473 0.91093 0.11413 -0.22600
N 	N 	0.13623 0.85431 0.97646 -0.25800
N 	N 	0.14933 0.87273 0.01681 -0.22600
N 	N 	0.15364 0.92030 0.06052 -0.15300
N 	N 	0.18807 0.90990 0.06961 -0.15100
N 	N 	0.17285 0.93970 0.08523 -0.15500
N 	N 	0.12139 0.97466 0.10040 -0.23000
N 	N 	0.09250 0.99874 0.12722 -0.26200
N 	N 	0.12494 0.02001 0.15114 -0.22700
N 	N 	0.17137 0.06397 0.15560 -0.15100
S 	S 	0.16525 0.82689 0.95888 -0.06100
S 	S 	0.05016 0.00491 0.13430 -0.06200
C 	C 	0.21878 0.41105 0.60084 0.04100
H 	H 	0.21540 0.39830 0.59400 0.01100
C 	C 	0.20684 0.42845 0.59633 -0.05100
C 	C 	0.21194 0.44733 0.60600 0.00900
H 	H 	0.20400 0.45960 0.60340 0.03700
C 	C 	0.22884 0.44760 0.61944 -0.09900
H 	H 	0.23290 0.46020 0.62610 0.06600
C 	C 	0.23985 0.42924 0.62310 0.05900
H 	H 	0.25150 0.42960 0.63230 0.00000
C 	C 	0.14828 0.34302 0.46879 0.09600
C 	C 	0.16482 0.35863 0.51534 0.05600
H 	H 	0.16360 0.34770 0.50530 -0.00100
C 	C 	0.18264 0.35944 0.52795 -0.09800
H 	H 	0.19300 0.34890 0.52690 0.06500
C 	C 	0.18501 0.37551 0.54177 0.00900
H 	H 	0.19720 0.37650 0.55020 0.03700
C 	C 	0.16906 0.39057 0.54333 -0.05000
C 	C 	0.15169 0.38826 0.53065 0.03900
H 	H 	0.14080 0.39830 0.53180 0.01400
C 	C 	0.17038 0.40791 0.55847 0.13400
C 	C 	0.18823 0.42619 0.58270 0.13800
C 	C 	0.15570 0.43553 0.57422 0.14000
C 	C 	0.13725 0.46242 0.59565 0.04400
H 	H 	0.14930 0.46280 0.60440 0.00900
C 	C 	0.13729 0.44878 0.57836 -0.05300
C 	C 	0.11928 0.44790 0.56601 0.00800
H 	H 	0.11850 0.43880 0.55430 0.03800
C 	C 	0.10256 0.46063 0.57141 -0.09700
H 	H 	0.09000 0.46030 0.56340 0.06500
C 	C 	0.10415 0.47377 0.58842 0.05700
H 	H 	0.09260 0.48250 0.59180 0.00200
C 	C 	0.07496 0.50126 0.63009 0.10400
C 	C 	0.11136 0.51760 0.66707 0.06000
H 	H 	0.10070 0.50730 0.66590 0.00000
C 	C 	0.11214 0.52925 0.68473 -0.10000
H 	H 	0.10270 0.52660 0.69590 0.06800
C 	C 	0.12702 0.54519 0.68645 0.00800
H 	H 	0.12780 0.55370 0.69860 0.03800
C 	C 	0.14067 0.54822 0.66989 -0.05200
C 	C 	0.13923 0.53496 0.65259 0.04300
H 	H 	0.14890 0.53670 0.64140 0.01000
C 	C 	0.15696 0.56433 0.67061 0.13400
N 	N 	0.23473 0.41093 0.61413 -0.22600
N 	N 	0.13623 0.35431 0.47646 -0.25800
N 	N 	0.14933 0.37273 0.51681 -0.22600
N 	N 	0.15364 0.42030 0.56052 -0.15300
N 	N 	0.18807 0.40990 0.56961 -0.15100
N 	N 	0.17285 0.43970 0.58523 -0.15500
N 	N 	0.12139 0.47466 0.60040 -0.23000
N 	N 	0.09250 0.49874 0.62722 -0.26200
N 	N 	0.12494 0.52001 0.65114 -0.22700
N 	N 	0.17137 0.56397 0.65560 -0.15100
S 	S 	0.16525 0.32689 0.45888 -0.06100
S 	S 	0.05016 0.50491 0.63430 -0.06200
C 	C 	0.53122 0.41105 0.14916 0.04100
H 	H 	0.53460 0.39830 0.15600 0.01100
C 	C 	0.54316 0.42845 0.15367 -0.05100
C 	C 	0.53806 0.44733 0.14400 0.00900
H 	H 	0.54600 0.45960 0.14660 0.03700
C 	C 	0.52116 0.44760 0.13056 -0.09900
H 	H 	0.51710 0.46020 0.12390 0.06600
C 	C 	0.51015 0.42924 0.12690 0.05900
H 	H 	0.49850 0.42960 0.11770 0.00000
C 	C 	0.60172 0.34302 0.28121 0.09600
C 	C 	0.58518 0.35863 0.23466 0.05600
H 	H 	0.58640 0.34770 0.24470 -0.00100
C 	C 	0.56736 0.35944 0.22205 -0.09800
H 	H 	0.55700 0.34890 0.22310 0.06500
C 	C 	0.56499 0.37551 0.20823 0.00900
H 	H 	0.55280 0.37650 0.19980 0.03700
C 	C 	0.58094 0.39057 0.20667 -0.05000
C 	C 	0.59831 0.38826 0.21935 0.03900
H 	H 	0.60920 0.39830 0.21820 0.01400
C 	C 	0.57962 0.40791 0.19153 0.13400
C 	C 	0.56177 0.42619 0.16730 0.13800
C 	C 	0.59430 0.43553 0.17578 0.14000
C 	C 	0.61275 0.46242 0.15435 0.04400
H 	H 	0.60070 0.46280 0.14560 0.00900
C 	C 	0.61271 0.44878 0.17164 -0.05300
C 	C 	0.63072 0.44790 0.18399 0.00800
H 	H 	0.63150 0.43880 0.19570 0.03800
C 	C 	0.64744 0.46063 0.17859 -0.09700
H 	H 	0.66000 0.46030 0.18660 0.06500
C 	C 	0.64585 0.47377 0.16158 0.05700
H 	H 	0.65740 0.48250 0.15820 0.00200
C 	C 	0.67504 0.50126 0.11991 0.10400
C 	C 	0.63864 0.51760 0.08293 0.06000
H 	H 	0.64930 0.50730 0.08410 0.00000
C 	C 	0.63786 0.52925 0.06527 -0.10000
H 	H 	0.64730 0.52660 0.05410 0.06800
C 	C 	0.62298 0.54519 0.06355 0.00800
H 	H 	0.62220 0.55370 0.05140 0.03800
C 	C 	0.60933 0.54822 0.08011 -0.05200
C 	C 	0.61077 0.53496 0.09741 0.04300
H 	H 	0.60110 0.53670 0.10860 0.01000
C 	C 	0.59304 0.56433 0.07939 0.13400
N 	N 	0.51527 0.41093 0.13587 -0.22600
N 	N 	0.61377 0.35431 0.27354 -0.25800
N 	N 	0.60067 0.37273 0.23319 -0.22600
N 	N 	0.59636 0.42030 0.18948 -0.15300
N 	N 	0.56193 0.40990 0.18039 -0.15100
N 	N 	0.57715 0.43970 0.16477 -0.15500
N 	N 	0.62861 0.47466 0.14960 -0.23000
N 	N 	0.65750 0.49874 0.12278 -0.26200
N 	N 	0.62506 0.52001 0.09886 -0.22700
N 	N 	0.57863 0.56397 0.09440 -0.15100
S 	S 	0.58475 0.32689 0.29112 -0.06100
S 	S 	0.69984 0.50491 0.11570 -0.06200
C 	C 	0.53122 0.91105 0.64916 0.04100
H 	H 	0.53460 0.89830 0.65600 0.01100
C 	C 	0.54316 0.92845 0.65367 -0.05100
C 	C 	0.53806 0.94733 0.64400 0.00900
H 	H 	0.54600 0.95960 0.64660 0.03700
C 	C 	0.52116 0.94760 0.63056 -0.09900
H 	H 	0.51710 0.96020 0.62390 0.06600
C 	C 	0.51015 0.92924 0.62690 0.05900
H 	H 	0.49850 0.92960 0.61770 0.00000
C 	C 	0.60172 0.84302 0.78121 0.09600
C 	C 	0.58518 0.85863 0.73466 0.05600
H 	H 	0.58640 0.84770 0.74470 -0.00100
C 	C 	0.56736 0.85944 0.72205 -0.09800
H 	H 	0.55700 0.84890 0.72310 0.06500
C 	C 	0.56499 0.87551 0.70823 0.00900
H 	H 	0.55280 0.87650 0.69980 0.03700
C 	C 	0.58094 0.89057 0.70667 -0.05000
C 	C 	0.59831 0.88826 0.71935 0.03900
H 	H 	0.60920 0.89830 0.71820 0.01400
C 	C 	0.57962 0.90791 0.69153 0.13400
C 	C 	0.56177 0.92619 0.66730 0.13800
C 	C 	0.59430 0.93553 0.67578 0.14000
C 	C 	0.61275 0.96242 0.65435 0.04400
H 	H 	0.60070 0.96280 0.64560 0.00900
C 	C 	0.61271 0.94878 0.67164 -0.05300
C 	C 	0.63072 0.94790 0.68399 0.00800
H 	H 	0.63150 0.93880 0.69570 0.03800
C 	C 	0.64744 0.96063 0.67859 -0.09700
H 	H 	0.66000 0.96030 0.68660 0.06500
C 	C 	0.64585 0.97377 0.66158 0.05700
H 	H 	0.65740 0.98250 0.65820 0.00200
C 	C 	0.67504 0.00126 0.61991 0.10400
C 	C 	0.63864 0.01760 0.58293 0.06000
H 	H 	0.64930 0.00730 0.58410 0.00000
C 	C 	0.63786 0.02925 0.56527 -0.10000
H 	H 	0.64730 0.02660 0.55410 0.06800
C 	C 	0.62298 0.04519 0.56355 0.00800
H 	H 	0.62220 0.05370 0.55140 0.03800
C 	C 	0.60933 0.04822 0.58011 -0.05200
C 	C 	0.61077 0.03496 0.59741 0.04300
H 	H 	0.60110 0.03670 0.60860 0.01000
C 	C 	0.59304 0.06433 0.57939 0.13400
N 	N 	0.51527 0.91093 0.63587 -0.22600
N 	N 	0.61377 0.85431 0.77354 -0.25800
N 	N 	0.60067 0.87273 0.73319 -0.22600
N 	N 	0.59636 0.92030 0.68948 -0.15300
N 	N 	0.56193 0.90990 0.68039 -0.15100
N 	N 	0.57715 0.93970 0.66477 -0.15500
N 	N 	0.62861 0.97466 0.64960 -0.23000
N 	N 	0.65750 0.99874 0.62278 -0.26200
N 	N 	0.62506 0.02001 0.59886 -0.22700
N 	N 	0.57863 0.06397 0.59440 -0.15100
S 	S 	0.58475 0.82689 0.79112 -0.06100
S 	S 	0.69984 0.00491 0.61570 -0.06200
C 	C 	0.03122 0.41105 0.64916 0.04100
H 	H 	0.03460 0.39830 0.65600 0.01100
C 	C 	0.04316 0.42845 0.65367 -0.05100
C 	C 	0.03806 0.44733 0.64400 0.00800
H 	H 	0.04600 0.45960 0.64660 0.03700
C 	C 	0.02116 0.44760 0.63056 -0.09900
H 	H 	0.01710 0.46020 0.62390 0.06600
C 	C 	0.01015 0.42924 0.62690 0.05900
H 	H 	0.99850 0.42960 0.61770 0.00000
C 	C 	0.10172 0.34302 0.78121 0.09600
C 	C 	0.08518 0.35863 0.73466 0.05600
H 	H 	0.08640 0.34770 0.74470 -0.00100
C 	C 	0.06736 0.35944 0.72205 -0.09800
H 	H 	0.05700 0.34890 0.72310 0.06500
C 	C 	0.06499 0.37551 0.70823 0.00900
H 	H 	0.05280 0.37650 0.69980 0.03700
C 	C 	0.08094 0.39057 0.70667 -0.05000
C 	C 	0.09831 0.38826 0.71935 0.03900
H 	H 	0.10920 0.39830 0.71820 0.01400
C 	C 	0.07962 0.40791 0.69153 0.13400
C 	C 	0.06177 0.42619 0.66730 0.13800
C 	C 	0.09430 0.43553 0.67578 0.14000
C 	C 	0.11275 0.46242 0.65435 0.04400
H 	H 	0.10070 0.46280 0.64560 0.00900
C 	C 	0.11271 0.44878 0.67164 -0.05300
C 	C 	0.13072 0.44790 0.68399 0.00800
H 	H 	0.13150 0.43880 0.69570 0.03800
C 	C 	0.14744 0.46063 0.67859 -0.09700
H 	H 	0.16000 0.46030 0.68660 0.06500
C 	C 	0.14585 0.47377 0.66158 0.05700
H 	H 	0.15740 0.48250 0.65820 0.00200
C 	C 	0.17504 0.50126 0.61991 0.10400
C 	C 	0.13864 0.51760 0.58293 0.06000
H 	H 	0.14930 0.50730 0.58410 0.00000
C 	C 	0.13786 0.52925 0.56527 -0.10000
H 	H 	0.14730 0.52660 0.55410 0.06800
C 	C 	0.12298 0.54519 0.56355 0.00800
H 	H 	0.12220 0.55370 0.55140 0.03800
C 	C 	0.10933 0.54822 0.58011 -0.05200
C 	C 	0.11077 0.53496 0.59741 0.04300
H 	H 	0.10110 0.53670 0.60860 0.01000
C 	C 	0.09304 0.56433 0.57939 0.13400
N 	N 	0.01527 0.41093 0.63587 -0.22500
N 	N 	0.11377 0.35431 0.77354 -0.25800
N 	N 	0.10067 0.37273 0.73319 -0.22600
N 	N 	0.09636 0.42030 0.68948 -0.15300
N 	N 	0.06193 0.40990 0.68039 -0.15100
N 	N 	0.07715 0.43970 0.66477 -0.15500
N 	N 	0.12861 0.47466 0.64960 -0.23000
N 	N 	0.15750 0.49874 0.62278 -0.26200
N 	N 	0.12506 0.52001 0.59886 -0.22700
N 	N 	0.07863 0.56397 0.59440 -0.15100
S 	S 	0.08475 0.32689 0.79112 -0.06100
S 	S 	0.19984 0.50491 0.61570 -0.06200
C 	C 	0.03122 0.91105 0.14916 0.04100
H 	H 	0.03460 0.89830 0.15600 0.01100
C 	C 	0.04316 0.92845 0.15367 -0.05100
C 	C 	0.03806 0.94733 0.14400 0.00800
H 	H 	0.04600 0.95960 0.14660 0.03700
C 	C 	0.02116 0.94760 0.13056 -0.09900
H 	H 	0.01710 0.96020 0.12390 0.06600
C 	C 	0.01015 0.92924 0.12690 0.05900
H 	H 	0.99850 0.92960 0.11770 0.00000
C 	C 	0.10172 0.84302 0.28121 0.09600
C 	C 	0.08518 0.85863 0.23466 0.05600
H 	H 	0.08640 0.84770 0.24470 -0.00100
C 	C 	0.06736 0.85944 0.22205 -0.09800
H 	H 	0.05700 0.84890 0.22310 0.06500
C 	C 	0.06499 0.87551 0.20823 0.00900
H 	H 	0.05280 0.87650 0.19980 0.03700
C 	C 	0.08094 0.89057 0.20667 -0.05000
C 	C 	0.09831 0.88826 0.21935 0.03900
H 	H 	0.10920 0.89830 0.21820 0.01400
C 	C 	0.07962 0.90791 0.19153 0.13400
C 	C 	0.06177 0.92619 0.16730 0.13800
C 	C 	0.09430 0.93553 0.17578 0.14000
C 	C 	0.11275 0.96242 0.15435 0.04400
H 	H 	0.10070 0.96280 0.14560 0.00900
C 	C 	0.11271 0.94878 0.17164 -0.05300
C 	C 	0.13072 0.94790 0.18399 0.00800
H 	H 	0.13150 0.93880 0.19570 0.03800
C 	C 	0.14744 0.96063 0.17859 -0.09700
H 	H 	0.16000 0.96030 0.18660 0.06500
C 	C 	0.14585 0.97377 0.16158 0.05700
H 	H 	0.15740 0.98250 0.15820 0.00200
C 	C 	0.17504 0.00126 0.11991 0.10400
C 	C 	0.13864 0.01760 0.08293 0.06000
H 	H 	0.14930 0.00730 0.08410 0.00000
C 	C 	0.13786 0.02925 0.06527 -0.10000
H 	H 	0.14730 0.02660 0.05410 0.06800
C 	C 	0.12298 0.04519 0.06355 0.00800
H 	H 	0.12220 0.05370 0.05140 0.03800
C 	C 	0.10933 0.04822 0.08011 -0.05200
C 	C 	0.11077 0.03496 0.09741 0.04300
H 	H 	0.10110 0.03670 0.10860 0.01000
C 	C 	0.09304 0.06433 0.07939 0.13400
N 	N 	0.01527 0.91093 0.13587 -0.22500
N 	N 	0.11377 0.85431 0.27354 -0.25800
N 	N 	0.10067 0.87273 0.23319 -0.22600
N 	N 	0.09636 0.92030 0.18948 -0.15300
N 	N 	0.06193 0.90990 0.18039 -0.15100
N 	N 	0.07715 0.93970 0.16477 -0.15500
N 	N 	0.12861 0.97466 0.14960 -0.23000
N 	N 	0.15750 0.99874 0.12278 -0.26200
N 	N 	0.12506 0.02001 0.09886 -0.22700
N 	N 	0.07863 0.06397 0.09440 -0.15100
S 	S 	0.08475 0.82689 0.29112 -0.06100
S 	S 	0.19984 0.00491 0.11570 -0.06200
C 	C 	0.21878 0.83895 0.64916 0.04100
H 	H 	0.21540 0.85170 0.65600 0.01100
C 	C 	0.20684 0.82155 0.65367 -0.05100
C 	C 	0.21194 0.80267 0.64400 0.00900
H 	H 	0.20400 0.79040 0.64660 0.03700
C 	C 	0.22884 0.80240 0.63056 -0.09900
H 	H 	0.23290 0.78980 0.62390 0.06600
C 	C 	0.23985 0.82076 0.62690 0.05900
H 	H 	0.25150 0.82040 0.61770 0.00000
C 	C 	0.14828 0.90698 0.78121 0.09600
C 	C 	0.16482 0.89137 0.73466 0.05600
H 	H 	0.16360 0.90230 0.74470 -0.00100
C 	C 	0.18264 0.89056 0.72205 -0.09800
H 	H 	0.19300 0.90110 0.72310 0.06500
C 	C 	0.18501 0.87449 0.70823 0.00900
H 	H 	0.19720 0.87350 0.69980 0.03700
C 	C 	0.16906 0.85943 0.70667 -0.05000
C 	C 	0.15169 0.86174 0.71935 0.03900
H 	H 	0.14080 0.85170 0.71820 0.01400
C 	C 	0.17038 0.84209 0.69153 0.13400
C 	C 	0.18823 0.82381 0.66730 0.13800
C 	C 	0.15570 0.81447 0.67578 0.14000
C 	C 	0.13725 0.78758 0.65435 0.04400
H 	H 	0.14930 0.78720 0.64560 0.00900
C 	C 	0.13729 0.80122 0.67164 -0.05300
C 	C 	0.11928 0.80210 0.68399 0.00800
H 	H 	0.11850 0.81120 0.69570 0.03800
C 	C 	0.10256 0.78937 0.67859 -0.09700
H 	H 	0.09000 0.78970 0.68660 0.06500
C 	C 	0.10415 0.77623 0.66158 0.05700
H 	H 	0.09260 0.76750 0.65820 0.00200
C 	C 	0.07496 0.74874 0.61991 0.10400
C 	C 	0.11136 0.73240 0.58293 0.06000
H 	H 	0.10070 0.74270 0.58410 0.00000
C 	C 	0.11214 0.72075 0.56527 -0.10000
H 	H 	0.10270 0.72340 0.55410 0.06800
C 	C 	0.12702 0.70481 0.56355 0.00800
H 	H 	0.12780 0.69630 0.55140 0.03800
C 	C 	0.14067 0.70178 0.58011 -0.05200
C 	C 	0.13923 0.71504 0.59741 0.04300
H 	H 	0.14890 0.71330 0.60860 0.01000
C 	C 	0.15696 0.68567 0.57939 0.13400
N 	N 	0.23473 0.83907 0.63587 -0.22600
N 	N 	0.13623 0.89569 0.77354 -0.25800
N 	N 	0.14933 0.87727 0.73319 -0.22600
N 	N 	0.15364 0.82970 0.68948 -0.15300
N 	N 	0.18807 0.84010 0.68039 -0.15100
N 	N 	0.17285 0.81030 0.66477 -0.15500
N 	N 	0.12139 0.77534 0.64960 -0.23000
N 	N 	0.09250 0.75126 0.62278 -0.26200
N 	N 	0.12494 0.72999 0.59886 -0.22700
N 	N 	0.17137 0.68603 0.59440 -0.15100
S 	S 	0.16525 0.92311 0.79112 -0.06100
S 	S 	0.05016 0.74509 0.61570 -0.06200
C 	C 	0.21878 0.33895 0.14916 0.04100
H 	H 	0.21540 0.35170 0.15600 0.01100
C 	C 	0.20684 0.32155 0.15367 -0.05100
C 	C 	0.21194 0.30267 0.14400 0.00900
H 	H 	0.20400 0.29040 0.14660 0.03700
C 	C 	0.22884 0.30240 0.13056 -0.09900
H 	H 	0.23290 0.28980 0.12390 0.06600
C 	C 	0.23985 0.32076 0.12690 0.05900
H 	H 	0.25150 0.32040 0.11770 0.00000
C 	C 	0.14828 0.40698 0.28121 0.09600
C 	C 	0.16482 0.39137 0.23466 0.05600
H 	H 	0.16360 0.40230 0.24470 -0.00100
C 	C 	0.18264 0.39056 0.22205 -0.09800
H 	H 	0.19300 0.40110 0.22310 0.06500
C 	C 	0.18501 0.37449 0.20823 0.00900
H 	H 	0.19720 0.37350 0.19980 0.03700
C 	C 	0.16906 0.35943 0.20667 -0.05000
C 	C 	0.15169 0.36174 0.21935 0.03900
H 	H 	0.14080 0.35170 0.21820 0.01400
C 	C 	0.17038 0.34209 0.19153 0.13400
C 	C 	0.18823 0.32381 0.16730 0.13800
C 	C 	0.15570 0.31447 0.17578 0.14000
C 	C 	0.13725 0.28758 0.15435 0.04400
H 	H 	0.14930 0.28720 0.14560 0.00900
C 	C 	0.13729 0.30122 0.17164 -0.05300
C 	C 	0.11928 0.30210 0.18399 0.00800
H 	H 	0.11850 0.31120 0.19570 0.03800
C 	C 	0.10256 0.28937 0.17859 -0.09700
H 	H 	0.09000 0.28970 0.18660 0.06500
C 	C 	0.10415 0.27623 0.16158 0.05700
H 	H 	0.09260 0.26750 0.15820 0.00200
C 	C 	0.07496 0.24874 0.11991 0.10400
C 	C 	0.11136 0.23240 0.08293 0.06000
H 	H 	0.10070 0.24270 0.08410 0.00000
C 	C 	0.11214 0.22075 0.06527 -0.10000
H 	H 	0.10270 0.22340 0.05410 0.06800
C 	C 	0.12702 0.20481 0.06355 0.00800
H 	H 	0.12780 0.19630 0.05140 0.03800
C 	C 	0.14067 0.20178 0.08011 -0.05200
C 	C 	0.13923 0.21504 0.09741 0.04300
H 	H 	0.14890 0.21330 0.10860 0.01000
C 	C 	0.15696 0.18567 0.07939 0.13400
N 	N 	0.23473 0.33907 0.13587 -0.22600
N 	N 	0.13623 0.39569 0.27354 -0.25800
N 	N 	0.14933 0.37727 0.23319 -0.22600
N 	N 	0.15364 0.32970 0.18948 -0.15300
N 	N 	0.18807 0.34010 0.18039 -0.15100
N 	N 	0.17285 0.31030 0.16477 -0.15500
N 	N 	0.12139 0.27534 0.14960 -0.23000
N 	N 	0.09250 0.25126 0.12278 -0.26200
N 	N 	0.12494 0.22999 0.09886 -0.22700
N 	N 	0.17137 0.18603 0.09440 -0.15100
S 	S 	0.16525 0.42311 0.29112 -0.06100
S 	S 	0.05016 0.24509 0.11570 -0.06200
C 	C 	0.71878 0.83895 0.14916 0.04100
H 	H 	0.71540 0.85170 0.15600 0.01100
C 	C 	0.70684 0.82155 0.15367 -0.05100
C 	C 	0.71194 0.80267 0.14400 0.00900
H 	H 	0.70400 0.79040 0.14660 0.03700
C 	C 	0.72884 0.80240 0.13056 -0.09900
H 	H 	0.73290 0.78980 0.12390 0.06600
C 	C 	0.73985 0.82076 0.12690 0.05900
H 	H 	0.75150 0.82040 0.11770 0.00000
C 	C 	0.64828 0.90698 0.28121 0.09600
C 	C 	0.66482 0.89137 0.23466 0.05600
H 	H 	0.66360 0.90230 0.24470 -0.00100
C 	C 	0.68264 0.89056 0.22205 -0.09800
H 	H 	0.69300 0.90110 0.22310 0.06500
C 	C 	0.68501 0.87449 0.20823 0.00900
H 	H 	0.69720 0.87350 0.19980 0.03700
C 	C 	0.66906 0.85943 0.20667 -0.05000
C 	C 	0.65169 0.86174 0.21935 0.03900
H 	H 	0.64080 0.85170 0.21820 0.01400
C 	C 	0.67038 0.84209 0.19153 0.13400
C 	C 	0.68823 0.82381 0.16730 0.13800
C 	C 	0.65570 0.81447 0.17578 0.14000
C 	C 	0.63725 0.78758 0.15435 0.04400
H 	H 	0.64930 0.78720 0.14560 0.00900
C 	C 	0.63729 0.80122 0.17164 -0.05300
C 	C 	0.61928 0.80210 0.18399 0.00800
H 	H 	0.61850 0.81120 0.19570 0.03800
C 	C 	0.60256 0.78937 0.17859 -0.09700
H 	H 	0.59000 0.78970 0.18660 0.06500
C 	C 	0.60415 0.77623 0.16158 0.05700
H 	H 	0.59260 0.76750 0.15820 0.00200
C 	C 	0.57496 0.74874 0.11991 0.10400
C 	C 	0.61136 0.73240 0.08293 0.06000
H 	H 	0.60070 0.74270 0.08410 0.00000
C 	C 	0.61214 0.72075 0.06527 -0.10000
H 	H 	0.60270 0.72340 0.05410 0.06800
C 	C 	0.62702 0.70481 0.06355 0.00800
H 	H 	0.62780 0.69630 0.05140 0.03800
C 	C 	0.64067 0.70178 0.08011 -0.05200
C 	C 	0.63923 0.71504 0.09741 0.04300
H 	H 	0.64890 0.71330 0.10860 0.01000
C 	C 	0.65696 0.68567 0.07939 0.13400
N 	N 	0.73473 0.83907 0.13587 -0.22600
N 	N 	0.63623 0.89569 0.27354 -0.25800
N 	N 	0.64933 0.87727 0.23319 -0.22600
N 	N 	0.65364 0.82970 0.18948 -0.15300
N 	N 	0.68807 0.84010 0.18039 -0.15100
N 	N 	0.67285 0.81030 0.16477 -0.15500
N 	N 	0.62139 0.77534 0.14960 -0.23000
N 	N 	0.59250 0.75126 0.12278 -0.26200
N 	N 	0.62494 0.72999 0.09886 -0.22700
N 	N 	0.67137 0.68603 0.09440 -0.15100
S 	S 	0.66525 0.92311 0.29112 -0.06100
S 	S 	0.55016 0.74509 0.11570 -0.06200
C 	C 	0.71878 0.33895 0.64916 0.04100
H 	H 	0.71540 0.35170 0.65600 0.01100
C 	C 	0.70684 0.32155 0.65367 -0.05100
C 	C 	0.71194 0.30267 0.64400 0.00900
H 	H 	0.70400 0.29040 0.64660 0.03700
C 	C 	0.72884 0.30240 0.63056 -0.09900
H 	H 	0.73290 0.28980 0.62390 0.06600
C 	C 	0.73985 0.32076 0.62690 0.05900
H 	H 	0.75150 0.32040 0.61770 0.00000
C 	C 	0.64828 0.40698 0.78121 0.09600
C 	C 	0.66482 0.39137 0.73466 0.05600
H 	H 	0.66360 0.40230 0.74470 -0.00100
C 	C 	0.68264 0.39056 0.72205 -0.09800
H 	H 	0.69300 0.40110 0.72310 0.06500
C 	C 	0.68501 0.37449 0.70823 0.00900
H 	H 	0.69720 0.37350 0.69980 0.03700
C 	C 	0.66906 0.35943 0.70667 -0.05000
C 	C 	0.65169 0.36174 0.71935 0.03900
H 	H 	0.64080 0.35170 0.71820 0.01400
C 	C 	0.67038 0.34209 0.69153 0.13400
C 	C 	0.68823 0.32381 0.66730 0.13800
C 	C 	0.65570 0.31447 0.67578 0.14000
C 	C 	0.63725 0.28758 0.65435 0.04400
H 	H 	0.64930 0.28720 0.64560 0.00900
C 	C 	0.63729 0.30122 0.67164 -0.05300
C 	C 	0.61928 0.30210 0.68399 0.00800
H 	H 	0.61850 0.31120 0.69570 0.03800
C 	C 	0.60256 0.28937 0.67859 -0.09700
H 	H 	0.59000 0.28970 0.68660 0.06500
C 	C 	0.60415 0.27623 0.66158 0.05700
H 	H 	0.59260 0.26750 0.65820 0.00200
C 	C 	0.57496 0.24874 0.61991 0.10400
C 	C 	0.61136 0.23240 0.58293 0.06000
H 	H 	0.60070 0.24270 0.58410 0.00000
C 	C 	0.61214 0.22075 0.56527 -0.10000
H 	H 	0.60270 0.22340 0.55410 0.06800
C 	C 	0.62702 0.20481 0.56355 0.00800
H 	H 	0.62780 0.19630 0.55140 0.03800
C 	C 	0.64067 0.20178 0.58011 -0.05200
C 	C 	0.63923 0.21504 0.59741 0.04300
H 	H 	0.64890 0.21330 0.60860 0.01000
C 	C 	0.65696 0.18567 0.57939 0.13400
N 	N 	0.73473 0.33907 0.63587 -0.22600
N 	N 	0.63623 0.39569 0.77354 -0.25800
N 	N 	0.64933 0.37727 0.73319 -0.22600
N 	N 	0.65364 0.32970 0.68948 -0.15300
N 	N 	0.68807 0.34010 0.68039 -0.15100
N 	N 	0.67285 0.31030 0.66477 -0.15500
N 	N 	0.62139 0.27534 0.64960 -0.23000
N 	N 	0.59250 0.25126 0.62278 -0.26200
N 	N 	0.62494 0.22999 0.59886 -0.22700
N 	N 	0.67137 0.18603 0.59440 -0.15100
S 	S 	0.66525 0.42311 0.79112 -0.06100
S 	S 	0.55016 0.24509 0.61570 -0.06200
C 	C 	0.83895 0.64916 0.21878 0.04100
H 	H 	0.85170 0.65600 0.21540 0.01100
C 	C 	0.82155 0.65367 0.20684 -0.05100
C 	C 	0.80267 0.64400 0.21194 0.00900
H 	H 	0.79040 0.64660 0.20400 0.03700
C 	C 	0.80240 0.63056 0.22884 -0.09900
H 	H 	0.78980 0.62390 0.23290 0.06600
C 	C 	0.82076 0.62690 0.23985 0.05900
H 	H 	0.82040 0.61770 0.25150 0.00000
C 	C 	0.90698 0.78121 0.14828 0.09600
C 	C 	0.89137 0.73466 0.16482 0.05600
H 	H 	0.90230 0.74470 0.16360 -0.00100
C 	C 	0.89056 0.72205 0.18264 -0.09800
H 	H 	0.90110 0.72310 0.19300 0.06500
C 	C 	0.87449 0.70823 0.18501 0.00900
H 	H 	0.87350 0.69980 0.19720 0.03700
C 	C 	0.85943 0.70667 0.16906 -0.05000
C 	C 	0.86174 0.71935 0.15169 0.03900
H 	H 	0.85170 0.71820 0.14080 0.01400
C 	C 	0.84209 0.69153 0.17038 0.13400
C 	C 	0.82381 0.66730 0.18823 0.13800
C 	C 	0.81447 0.67578 0.15570 0.14000
C 	C 	0.78758 0.65435 0.13725 0.04400
H 	H 	0.78720 0.64560 0.14930 0.00900
C 	C 	0.80122 0.67164 0.13729 -0.05300
C 	C 	0.80210 0.68399 0.11928 0.00800
H 	H 	0.81120 0.69570 0.11850 0.03800
C 	C 	0.78937 0.67859 0.10256 -0.09700
H 	H 	0.78970 0.68660 0.09000 0.06500
C 	C 	0.77623 0.66158 0.10415 0.05700
H 	H 	0.76750 0.65820 0.09260 0.00200
C 	C 	0.74874 0.61991 0.07496 0.10400
C 	C 	0.73240 0.58293 0.11136 0.06000
H 	H 	0.74270 0.58410 0.10070 0.00000
C 	C 	0.72075 0.56527 0.11214 -0.10000
H 	H 	0.72340 0.55410 0.10270 0.06800
C 	C 	0.70481 0.56355 0.12702 0.00800
H 	H 	0.69630 0.55140 0.12780 0.03800
C 	C 	0.70178 0.58011 0.14067 -0.05200
C 	C 	0.71504 0.59741 0.13923 0.04300
H 	H 	0.71330 0.60860 0.14890 0.01000
C 	C 	0.68567 0.57939 0.15696 0.13400
N 	N 	0.83907 0.63587 0.23473 -0.22600
N 	N 	0.89569 0.77354 0.13623 -0.25800
N 	N 	0.87727 0.73319 0.14933 -0.22600
N 	N 	0.82970 0.68948 0.15364 -0.15300
N 	N 	0.84010 0.68039 0.18807 -0.15100
N 	N 	0.81030 0.66477 0.17285 -0.15500
N 	N 	0.77534 0.64960 0.12139 -0.23000
N 	N 	0.75126 0.62278 0.09250 -0.26200
N 	N 	0.72999 0.59886 0.12494 -0.22700
N 	N 	0.68603 0.59440 0.17137 -0.15100
S 	S 	0.92311 0.79112 0.16525 -0.06100
S 	S 	0.74509 0.61570 0.05016 -0.06200
C 	C 	0.83895 0.14916 0.71878 0.04100
H 	H 	0.85170 0.15600 0.71540 0.01100
C 	C 	0.82155 0.15367 0.70684 -0.05100
C 	C 	0.80267 0.14400 0.71194 0.00900
H 	H 	0.79040 0.14660 0.70400 0.03700
C 	C 	0.80240 0.13056 0.72884 -0.09900
H 	H 	0.78980 0.12390 0.73290 0.06600
C 	C 	0.82076 0.12690 0.73985 0.05900
H 	H 	0.82040 0.11770 0.75150 0.00000
C 	C 	0.90698 0.28121 0.64828 0.09600
C 	C 	0.89137 0.23466 0.66482 0.05600
H 	H 	0.90230 0.24470 0.66360 -0.00100
C 	C 	0.89056 0.22205 0.68264 -0.09800
H 	H 	0.90110 0.22310 0.69300 0.06500
C 	C 	0.87449 0.20823 0.68501 0.00900
H 	H 	0.87350 0.19980 0.69720 0.03700
C 	C 	0.85943 0.20667 0.66906 -0.05000
C 	C 	0.86174 0.21935 0.65169 0.03900
H 	H 	0.85170 0.21820 0.64080 0.01400
C 	C 	0.84209 0.19153 0.67038 0.13400
C 	C 	0.82381 0.16730 0.68823 0.13800
C 	C 	0.81447 0.17578 0.65570 0.14000
C 	C 	0.78758 0.15435 0.63725 0.04400
H 	H 	0.78720 0.14560 0.64930 0.00900
C 	C 	0.80122 0.17164 0.63729 -0.05300
C 	C 	0.80210 0.18399 0.61928 0.00800
H 	H 	0.81120 0.19570 0.61850 0.03800
C 	C 	0.78937 0.17859 0.60256 -0.09700
H 	H 	0.78970 0.18660 0.59000 0.06500
C 	C 	0.77623 0.16158 0.60415 0.05700
H 	H 	0.76750 0.15820 0.59260 0.00200
C 	C 	0.74874 0.11991 0.57496 0.10400
C 	C 	0.73240 0.08293 0.61136 0.06000
H 	H 	0.74270 0.08410 0.60070 0.00000
C 	C 	0.72075 0.06527 0.61214 -0.10000
H 	H 	0.72340 0.05410 0.60270 0.06800
C 	C 	0.70481 0.06355 0.62702 0.00800
H 	H 	0.69630 0.05140 0.62780 0.03800
C 	C 	0.70178 0.08011 0.64067 -0.05200
C 	C 	0.71504 0.09741 0.63923 0.04300
H 	H 	0.71330 0.10860 0.64890 0.01000
C 	C 	0.68567 0.07939 0.65696 0.13400
N 	N 	0.83907 0.13587 0.73473 -0.22600
N 	N 	0.89569 0.27354 0.63623 -0.25800
N 	N 	0.87727 0.23319 0.64933 -0.22600
N 	N 	0.82970 0.18948 0.65364 -0.15300
N 	N 	0.84010 0.18039 0.68807 -0.15100
N 	N 	0.81030 0.16477 0.67285 -0.15500
N 	N 	0.77534 0.14960 0.62139 -0.23000
N 	N 	0.75126 0.12278 0.59250 -0.26200
N 	N 	0.72999 0.09886 0.62494 -0.22700
N 	N 	0.68603 0.09440 0.67137 -0.15100
S 	S 	0.92311 0.29112 0.66525 -0.06100
S 	S 	0.74509 0.11570 0.55016 -0.06200
C 	C 	0.33895 0.64916 0.71878 0.04100
H 	H 	0.35170 0.65600 0.71540 0.01100
C 	C 	0.32155 0.65367 0.70684 -0.05100
C 	C 	0.30267 0.64400 0.71194 0.00900
H 	H 	0.29040 0.64660 0.70400 0.03700
C 	C 	0.30240 0.63056 0.72884 -0.09900
H 	H 	0.28980 0.62390 0.73290 0.06600
C 	C 	0.32076 0.62690 0.73985 0.05900
H 	H 	0.32040 0.61770 0.75150 0.00000
C 	C 	0.40698 0.78121 0.64828 0.09600
C 	C 	0.39137 0.73466 0.66482 0.05600
H 	H 	0.40230 0.74470 0.66360 -0.00100
C 	C 	0.39056 0.72205 0.68264 -0.09800
H 	H 	0.40110 0.72310 0.69300 0.06500
C 	C 	0.37449 0.70823 0.68501 0.00900
H 	H 	0.37350 0.69980 0.69720 0.03700
C 	C 	0.35943 0.70667 0.66906 -0.05000
C 	C 	0.36174 0.71935 0.65169 0.03900
H 	H 	0.35170 0.71820 0.64080 0.01400
C 	C 	0.34209 0.69153 0.67038 0.13400
C 	C 	0.32381 0.66730 0.68823 0.13800
C 	C 	0.31447 0.67578 0.65570 0.14000
C 	C 	0.28758 0.65435 0.63725 0.04400
H 	H 	0.28720 0.64560 0.64930 0.00900
C 	C 	0.30122 0.67164 0.63729 -0.05300
C 	C 	0.30210 0.68399 0.61928 0.00800
H 	H 	0.31120 0.69570 0.61850 0.03800
C 	C 	0.28937 0.67859 0.60256 -0.09700
H 	H 	0.28970 0.68660 0.59000 0.06500
C 	C 	0.27623 0.66158 0.60415 0.05700
H 	H 	0.26750 0.65820 0.59260 0.00200
C 	C 	0.24874 0.61991 0.57496 0.10400
C 	C 	0.23240 0.58293 0.61136 0.06000
H 	H 	0.24270 0.58410 0.60070 0.00000
C 	C 	0.22075 0.56527 0.61214 -0.10000
H 	H 	0.22340 0.55410 0.60270 0.06800
C 	C 	0.20481 0.56355 0.62702 0.00800
H 	H 	0.19630 0.55140 0.62780 0.03800
C 	C 	0.20178 0.58011 0.64067 -0.05200
C 	C 	0.21504 0.59741 0.63923 0.04300
H 	H 	0.21330 0.60860 0.64890 0.01000
C 	C 	0.18567 0.57939 0.65696 0.13400
N 	N 	0.33907 0.63587 0.73473 -0.22600
N 	N 	0.39569 0.77354 0.63623 -0.25800
N 	N 	0.37727 0.73319 0.64933 -0.22600
N 	N 	0.32970 0.68948 0.65364 -0.15300
N 	N 	0.34010 0.68039 0.68807 -0.15100
N 	N 	0.31030 0.66477 0.67285 -0.15500
N 	N 	0.27534 0.64960 0.62139 -0.23000
N 	N 	0.25126 0.62278 0.59250 -0.26200
N 	N 	0.22999 0.59886 0.62494 -0.22700
N 	N 	0.18603 0.59440 0.67137 -0.15100
S 	S 	0.42311 0.79112 0.66525 -0.06100
S 	S 	0.24509 0.61570 0.55016 -0.06200
C 	C 	0.33895 0.14916 0.21878 0.04100
H 	H 	0.35170 0.15600 0.21540 0.01100
C 	C 	0.32155 0.15367 0.20684 -0.05100
C 	C 	0.30267 0.14400 0.21194 0.00900
H 	H 	0.29040 0.14660 0.20400 0.03700
C 	C 	0.30240 0.13056 0.22884 -0.09900
H 	H 	0.28980 0.12390 0.23290 0.06600
C 	C 	0.32076 0.12690 0.23985 0.05900
H 	H 	0.32040 0.11770 0.25150 0.00000
C 	C 	0.40698 0.28121 0.14828 0.09600
C 	C 	0.39137 0.23466 0.16482 0.05600
H 	H 	0.40230 0.24470 0.16360 -0.00100
C 	C 	0.39056 0.22205 0.18264 -0.09800
H 	H 	0.40110 0.22310 0.19300 0.06500
C 	C 	0.37449 0.20823 0.18501 0.00900
H 	H 	0.37350 0.19980 0.19720 0.03700
C 	C 	0.35943 0.20667 0.16906 -0.05000
C 	C 	0.36174 0.21935 0.15169 0.03900
H 	H 	0.35170 0.21820 0.14080 0.01400
C 	C 	0.34209 0.19153 0.17038 0.13400
C 	C 	0.32381 0.16730 0.18823 0.13800
C 	C 	0.31447 0.17578 0.15570 0.14000
C 	C 	0.28758 0.15435 0.13725 0.04400
H 	H 	0.28720 0.14560 0.14930 0.00900
C 	C 	0.30122 0.17164 0.13729 -0.05300
C 	C 	0.30210 0.18399 0.11928 0.00800
H 	H 	0.31120 0.19570 0.11850 0.03800
C 	C 	0.28937 0.17859 0.10256 -0.09700
H 	H 	0.28970 0.18660 0.09000 0.06500
C 	C 	0.27623 0.16158 0.10415 0.05700
H 	H 	0.26750 0.15820 0.09260 0.00200
C 	C 	0.24874 0.11991 0.07496 0.10400
C 	C 	0.23240 0.08293 0.11136 0.06000
H 	H 	0.24270 0.08410 0.10070 0.00000
C 	C 	0.22075 0.06527 0.11214 -0.10000
H 	H 	0.22340 0.05410 0.10270 0.06800
C 	C 	0.20481 0.06355 0.12702 0.00800
H 	H 	0.19630 0.05140 0.12780 0.03800
C 	C 	0.20178 0.08011 0.14067 -0.05200
C 	C 	0.21504 0.09741 0.13923 0.04300
H 	H 	0.21330 0.10860 0.14890 0.01000
C 	C 	0.18567 0.07939 0.15696 0.13400
N 	N 	0.33907 0.13587 0.23473 -0.22600
N 	N 	0.39569 0.27354 0.13623 -0.25800
N 	N 	0.37727 0.23319 0.14933 -0.22600
N 	N 	0.32970 0.18948 0.15364 -0.15300
N 	N 	0.34010 0.18039 0.18807 -0.15100
N 	N 	0.31030 0.16477 0.17285 -0.15500
N 	N 	0.27534 0.14960 0.12139 -0.23000
N 	N 	0.25126 0.12278 0.09250 -0.26200
N 	N 	0.22999 0.09886 0.12494 -0.22700
N 	N 	0.18603 0.09440 0.17137 -0.15100
S 	S 	0.42311 0.29112 0.16525 -0.06100
S 	S 	0.24509 0.11570 0.05016 -0.06200
C 	C 	0.41105 0.14916 0.53122 0.04100
H 	H 	0.39830 0.15600 0.53460 0.01100
C 	C 	0.42845 0.15367 0.54316 -0.05100
C 	C 	0.44733 0.14400 0.53806 0.00900
H 	H 	0.45960 0.14660 0.54600 0.03700
C 	C 	0.44760 0.13056 0.52116 -0.09900
H 	H 	0.46020 0.12390 0.51710 0.06600
C 	C 	0.42924 0.12690 0.51015 0.05900
H 	H 	0.42960 0.11770 0.49850 0.00000
C 	C 	0.34302 0.28121 0.60172 0.09600
C 	C 	0.35863 0.23466 0.58518 0.05600
H 	H 	0.34770 0.24470 0.58640 -0.00100
C 	C 	0.35944 0.22205 0.56736 -0.09800
H 	H 	0.34890 0.22310 0.55700 0.06500
C 	C 	0.37551 0.20823 0.56499 0.00900
H 	H 	0.37650 0.19980 0.55280 0.03700
C 	C 	0.39057 0.20667 0.58094 -0.05000
C 	C 	0.38826 0.21935 0.59831 0.03900
H 	H 	0.39830 0.21820 0.60920 0.01400
C 	C 	0.40791 0.19153 0.57962 0.13400
C 	C 	0.42619 0.16730 0.56177 0.13800
C 	C 	0.43553 0.17578 0.59430 0.14000
C 	C 	0.46242 0.15435 0.61275 0.04400
H 	H 	0.46280 0.14560 0.60070 0.00900
C 	C 	0.44878 0.17164 0.61271 -0.05300
C 	C 	0.44790 0.18399 0.63072 0.00800
H 	H 	0.43880 0.19570 0.63150 0.03800
C 	C 	0.46063 0.17859 0.64744 -0.09700
H 	H 	0.46030 0.18660 0.66000 0.06500
C 	C 	0.47377 0.16158 0.64585 0.05700
H 	H 	0.48250 0.15820 0.65740 0.00200
C 	C 	0.50126 0.11991 0.67504 0.10400
C 	C 	0.51760 0.08293 0.63864 0.06000
H 	H 	0.50730 0.08410 0.64930 0.00000
C 	C 	0.52925 0.06527 0.63786 -0.10000
H 	H 	0.52660 0.05410 0.64730 0.06800
C 	C 	0.54519 0.06355 0.62298 0.00800
H 	H 	0.55370 0.05140 0.62220 0.03800
C 	C 	0.54822 0.08011 0.60933 -0.05200
C 	C 	0.53496 0.09741 0.61077 0.04300
H 	H 	0.53670 0.10860 0.60110 0.01000
C 	C 	0.56433 0.07939 0.59304 0.13400
N 	N 	0.41093 0.13587 0.51527 -0.22600
N 	N 	0.35431 0.27354 0.61377 -0.25800
N 	N 	0.37273 0.23319 0.60067 -0.22600
N 	N 	0.42030 0.18948 0.59636 -0.15300
N 	N 	0.40990 0.18039 0.56193 -0.15100
N 	N 	0.43970 0.16477 0.57715 -0.15500
N 	N 	0.47466 0.14960 0.62861 -0.23000
N 	N 	0.49874 0.12278 0.65750 -0.26200
N 	N 	0.52001 0.09886 0.62506 -0.22700
N 	N 	0.56397 0.09440 0.57863 -0.15100
S 	S 	0.32689 0.29112 0.58475 -0.06100
S 	S 	0.50491 0.11570 0.69984 -0.06200
C 	C 	0.41105 0.64916 0.03122 0.04100
H 	H 	0.39830 0.65600 0.03460 0.01100
C 	C 	0.42845 0.65367 0.04316 -0.05100
C 	C 	0.44733 0.64400 0.03806 0.00800
H 	H 	0.45960 0.64660 0.04600 0.03700
C 	C 	0.44760 0.63056 0.02116 -0.09900
H 	H 	0.46020 0.62390 0.01710 0.06600
C 	C 	0.42924 0.62690 0.01015 0.05900
H 	H 	0.42960 0.61770 0.99850 0.00000
C 	C 	0.34302 0.78121 0.10172 0.09600
C 	C 	0.35863 0.73466 0.08518 0.05600
H 	H 	0.34770 0.74470 0.08640 -0.00100
C 	C 	0.35944 0.72205 0.06736 -0.09800
H 	H 	0.34890 0.72310 0.05700 0.06500
C 	C 	0.37551 0.70823 0.06499 0.00900
H 	H 	0.37650 0.69980 0.05280 0.03700
C 	C 	0.39057 0.70667 0.08094 -0.05000
C 	C 	0.38826 0.71935 0.09831 0.03900
H 	H 	0.39830 0.71820 0.10920 0.01400
C 	C 	0.40791 0.69153 0.07962 0.13400
C 	C 	0.42619 0.66730 0.06177 0.13800
C 	C 	0.43553 0.67578 0.09430 0.14000
C 	C 	0.46242 0.65435 0.11275 0.04400
H 	H 	0.46280 0.64560 0.10070 0.00900
C 	C 	0.44878 0.67164 0.11271 -0.05300
C 	C 	0.44790 0.68399 0.13072 0.00800
H 	H 	0.43880 0.69570 0.13150 0.03800
C 	C 	0.46063 0.67859 0.14744 -0.09700
H 	H 	0.46030 0.68660 0.16000 0.06500
C 	C 	0.47377 0.66158 0.14585 0.05700
H 	H 	0.48250 0.65820 0.15740 0.00200
C 	C 	0.50126 0.61991 0.17504 0.10400
C 	C 	0.51760 0.58293 0.13864 0.06000
H 	H 	0.50730 0.58410 0.14930 0.00000
C 	C 	0.52925 0.56527 0.13786 -0.10000
H 	H 	0.52660 0.55410 0.14730 0.06800
C 	C 	0.54519 0.56355 0.12298 0.00800
H 	H 	0.55370 0.55140 0.12220 0.03800
C 	C 	0.54822 0.58011 0.10933 -0.05200
C 	C 	0.53496 0.59741 0.11077 0.04300
H 	H 	0.53670 0.60860 0.10110 0.01000
C 	C 	0.56433 0.57939 0.09304 0.13400
N 	N 	0.41093 0.63587 0.01527 -0.22500
N 	N 	0.35431 0.77354 0.11377 -0.25800
N 	N 	0.37273 0.73319 0.10067 -0.22600
N 	N 	0.42030 0.68948 0.09636 -0.15300
N 	N 	0.40990 0.68039 0.06193 -0.15100
N 	N 	0.43970 0.66477 0.07715 -0.15500
N 	N 	0.47466 0.64960 0.12861 -0.23000
N 	N 	0.49874 0.62278 0.15750 -0.26200
N 	N 	0.52001 0.59886 0.12506 -0.22700
N 	N 	0.56397 0.59440 0.07863 -0.15100
S 	S 	0.32689 0.79112 0.08475 -0.06100
S 	S 	0.50491 0.61570 0.19984 -0.06200
C 	C 	0.91105 0.14916 0.03122 0.04100
H 	H 	0.89830 0.15600 0.03460 0.01100
C 	C 	0.92845 0.15367 0.04316 -0.05100
C 	C 	0.94733 0.14400 0.03806 0.00800
H 	H 	0.95960 0.14660 0.04600 0.03700
C 	C 	0.94760 0.13056 0.02116 -0.09900
H 	H 	0.96020 0.12390 0.01710 0.06600
C 	C 	0.92924 0.12690 0.01015 0.05900
H 	H 	0.92960 0.11770 0.99850 0.00000
C 	C 	0.84302 0.28121 0.10172 0.09600
C 	C 	0.85863 0.23466 0.08518 0.05600
H 	H 	0.84770 0.24470 0.08640 -0.00100
C 	C 	0.85944 0.22205 0.06736 -0.09800
H 	H 	0.84890 0.22310 0.05700 0.06500
C 	C 	0.87551 0.20823 0.06499 0.00900
H 	H 	0.87650 0.19980 0.05280 0.03700
C 	C 	0.89057 0.20667 0.08094 -0.05000
C 	C 	0.88826 0.21935 0.09831 0.03900
H 	H 	0.89830 0.21820 0.10920 0.01400
C 	C 	0.90791 0.19153 0.07962 0.13400
C 	C 	0.92619 0.16730 0.06177 0.13800
C 	C 	0.93553 0.17578 0.09430 0.14000
C 	C 	0.96242 0.15435 0.11275 0.04400
H 	H 	0.96280 0.14560 0.10070 0.00900
C 	C 	0.94878 0.17164 0.11271 -0.05300
C 	C 	0.94790 0.18399 0.13072 0.00800
H 	H 	0.93880 0.19570 0.13150 0.03800
C 	C 	0.96063 0.17859 0.14744 -0.09700
H 	H 	0.96030 0.18660 0.16000 0.06500
C 	C 	0.97377 0.16158 0.14585 0.05700
H 	H 	0.98250 0.15820 0.15740 0.00200
C 	C 	0.00126 0.11991 0.17504 0.10400
C 	C 	0.01760 0.08293 0.13864 0.06000
H 	H 	0.00730 0.08410 0.14930 0.00000
C 	C 	0.02925 0.06527 0.13786 -0.10000
H 	H 	0.02660 0.05410 0.14730 0.06800
C 	C 	0.04519 0.06355 0.12298 0.00800
H 	H 	0.05370 0.05140 0.12220 0.03800
C 	C 	0.04822 0.08011 0.10933 -0.05200
C 	C 	0.03496 0.09741 0.11077 0.04300
H 	H 	0.03670 0.10860 0.10110 0.01000
C 	C 	0.06433 0.07939 0.09304 0.13400
N 	N 	0.91093 0.13587 0.01527 -0.22500
N 	N 	0.85431 0.27354 0.11377 -0.25800
N 	N 	0.87273 0.23319 0.10067 -0.22600
N 	N 	0.92030 0.18948 0.09636 -0.15300
N 	N 	0.90990 0.18039 0.06193 -0.15100
N 	N 	0.93970 0.16477 0.07715 -0.15500
N 	N 	0.97466 0.14960 0.12861 -0.23000
N 	N 	0.99874 0.12278 0.15750 -0.26200
N 	N 	0.02001 0.09886 0.12506 -0.22700
N 	N 	0.06397 0.09440 0.07863 -0.15100
S 	S 	0.82689 0.29112 0.08475 -0.06100
S 	S 	0.00491 0.11570 0.19984 -0.06200
C 	C 	0.91105 0.64916 0.53122 0.04100
H 	H 	0.89830 0.65600 0.53460 0.01100
C 	C 	0.92845 0.65367 0.54316 -0.05100
C 	C 	0.94733 0.64400 0.53806 0.00900
H 	H 	0.95960 0.64660 0.54600 0.03700
C 	C 	0.94760 0.63056 0.52116 -0.09900
H 	H 	0.96020 0.62390 0.51710 0.06600
C 	C 	0.92924 0.62690 0.51015 0.05900
H 	H 	0.92960 0.61770 0.49850 0.00000
C 	C 	0.84302 0.78121 0.60172 0.09600
C 	C 	0.85863 0.73466 0.58518 0.05600
H 	H 	0.84770 0.74470 0.58640 -0.00100
C 	C 	0.85944 0.72205 0.56736 -0.09800
H 	H 	0.84890 0.72310 0.55700 0.06500
C 	C 	0.87551 0.70823 0.56499 0.00900
H 	H 	0.87650 0.69980 0.55280 0.03700
C 	C 	0.89057 0.70667 0.58094 -0.05000
C 	C 	0.88826 0.71935 0.59831 0.03900
H 	H 	0.89830 0.71820 0.60920 0.01400
C 	C 	0.90791 0.69153 0.57962 0.13400
C 	C 	0.92619 0.66730 0.56177 0.13800
C 	C 	0.93553 0.67578 0.59430 0.14000
C 	C 	0.96242 0.65435 0.61275 0.04400
H 	H 	0.96280 0.64560 0.60070 0.00900
C 	C 	0.94878 0.67164 0.61271 -0.05300
C 	C 	0.94790 0.68399 0.63072 0.00800
H 	H 	0.93880 0.69570 0.63150 0.03800
C 	C 	0.96063 0.67859 0.64744 -0.09700
H 	H 	0.96030 0.68660 0.66000 0.06500
C 	C 	0.97377 0.66158 0.64585 0.05700
H 	H 	0.98250 0.65820 0.65740 0.00200
C 	C 	0.00126 0.61991 0.67504 0.10400
C 	C 	0.01760 0.58293 0.63864 0.06000
H 	H 	0.00730 0.58410 0.64930 0.00000
C 	C 	0.02925 0.56527 0.63786 -0.10000
H 	H 	0.02660 0.55410 0.64730 0.06800
C 	C 	0.04519 0.56355 0.62298 0.00800
H 	H 	0.05370 0.55140 0.62220 0.03800
C 	C 	0.04822 0.58011 0.60933 -0.05200
C 	C 	0.03496 0.59741 0.61077 0.04300
H 	H 	0.03670 0.60860 0.60110 0.01000
C 	C 	0.06433 0.57939 0.59304 0.13400
N 	N 	0.91093 0.63587 0.51527 -0.22600
N 	N 	0.85431 0.77354 0.61377 -0.25800
N 	N 	0.87273 0.73319 0.60067 -0.22600
N 	N 	0.92030 0.68948 0.59636 -0.15300
N 	N 	0.90990 0.68039 0.56193 -0.15100
N 	N 	0.93970 0.66477 0.57715 -0.15500
N 	N 	0.97466 0.64960 0.62861 -0.23000
N 	N 	0.99874 0.62278 0.65750 -0.26200
N 	N 	0.02001 0.59886 0.62506 -0.22700
N 	N 	0.06397 0.59440 0.57863 -0.15100
S 	S 	0.82689 0.79112 0.58475 -0.06100
S 	S 	0.00491 0.61570 0.69984 -0.06200
C 	C 	0.91105 0.60084 0.71878 0.04100
H 	H 	0.89830 0.59400 0.71540 0.01100
C 	C 	0.92845 0.59633 0.70684 -0.05100
C 	C 	0.94733 0.60600 0.71194 0.00900
H 	H 	0.95960 0.60340 0.70400 0.03700
C 	C 	0.94760 0.61944 0.72884 -0.09900
H 	H 	0.96020 0.62610 0.73290 0.06600
C 	C 	0.92924 0.62310 0.73985 0.05900
H 	H 	0.92960 0.63230 0.75150 0.00000
C 	C 	0.84302 0.46879 0.64828 0.09600
C 	C 	0.85863 0.51534 0.66482 0.05600
H 	H 	0.84770 0.50530 0.66360 -0.00100
C 	C 	0.85944 0.52795 0.68264 -0.09800
H 	H 	0.84890 0.52690 0.69300 0.06500
C 	C 	0.87551 0.54177 0.68501 0.00900
H 	H 	0.87650 0.55020 0.69720 0.03700
C 	C 	0.89057 0.54333 0.66906 -0.05000
C 	C 	0.88826 0.53065 0.65169 0.03900
H 	H 	0.89830 0.53180 0.64080 0.01400
C 	C 	0.90791 0.55847 0.67038 0.13400
C 	C 	0.92619 0.58270 0.68823 0.13800
C 	C 	0.93553 0.57422 0.65570 0.14000
C 	C 	0.96242 0.59565 0.63725 0.04400
H 	H 	0.96280 0.60440 0.64930 0.00900
C 	C 	0.94878 0.57836 0.63729 -0.05300
C 	C 	0.94790 0.56601 0.61928 0.00800
H 	H 	0.93880 0.55430 0.61850 0.03800
C 	C 	0.96063 0.57141 0.60256 -0.09700
H 	H 	0.96030 0.56340 0.59000 0.06500
C 	C 	0.97377 0.58842 0.60415 0.05700
H 	H 	0.98250 0.59180 0.59260 0.00200
C 	C 	0.00126 0.63009 0.57496 0.10400
C 	C 	0.01760 0.66707 0.61136 0.06000
H 	H 	0.00730 0.66590 0.60070 0.00000
C 	C 	0.02925 0.68473 0.61214 -0.10000
H 	H 	0.02660 0.69590 0.60270 0.06800
C 	C 	0.04519 0.68645 0.62702 0.00800
H 	H 	0.05370 0.69860 0.62780 0.03800
C 	C 	0.04822 0.66989 0.64067 -0.05200
C 	C 	0.03496 0.65259 0.63923 0.04300
H 	H 	0.03670 0.64140 0.64890 0.01000
C 	C 	0.06433 0.67061 0.65696 0.13400
N 	N 	0.91093 0.61413 0.73473 -0.22600
N 	N 	0.85431 0.47646 0.63623 -0.25800
N 	N 	0.87273 0.51681 0.64933 -0.22600
N 	N 	0.92030 0.56052 0.65364 -0.15300
N 	N 	0.90990 0.56961 0.68807 -0.15100
N 	N 	0.93970 0.58523 0.67285 -0.15500
N 	N 	0.97466 0.60040 0.62139 -0.23000
N 	N 	0.99874 0.62722 0.59250 -0.26200
N 	N 	0.02001 0.65114 0.62494 -0.22700
N 	N 	0.06397 0.65560 0.67137 -0.15100
S 	S 	0.82689 0.45888 0.66525 -0.06100
S 	S 	0.00491 0.63430 0.55016 -0.06200
C 	C 	0.91105 0.10084 0.21878 0.04100
H 	H 	0.89830 0.09400 0.21540 0.01100
C 	C 	0.92845 0.09633 0.20684 -0.05100
C 	C 	0.94733 0.10600 0.21194 0.00900
H 	H 	0.95960 0.10340 0.20400 0.03700
C 	C 	0.94760 0.11944 0.22884 -0.09900
H 	H 	0.96020 0.12610 0.23290 0.06600
C 	C 	0.92924 0.12310 0.23985 0.05900
H 	H 	0.92960 0.13230 0.25150 0.00000
C 	C 	0.84302 0.96879 0.14828 0.09600
C 	C 	0.85863 0.01534 0.16482 0.05600
H 	H 	0.84770 0.00530 0.16360 -0.00100
C 	C 	0.85944 0.02795 0.18264 -0.09800
H 	H 	0.84890 0.02690 0.19300 0.06500
C 	C 	0.87551 0.04177 0.18501 0.00900
H 	H 	0.87650 0.05020 0.19720 0.03700
C 	C 	0.89057 0.04333 0.16906 -0.05000
C 	C 	0.88826 0.03065 0.15169 0.03900
H 	H 	0.89830 0.03180 0.14080 0.01400
C 	C 	0.90791 0.05847 0.17038 0.13400
C 	C 	0.92619 0.08270 0.18823 0.13800
C 	C 	0.93553 0.07422 0.15570 0.14000
C 	C 	0.96242 0.09565 0.13725 0.04400
H 	H 	0.96280 0.10440 0.14930 0.00900
C 	C 	0.94878 0.07836 0.13729 -0.05300
C 	C 	0.94790 0.06601 0.11928 0.00800
H 	H 	0.93880 0.05430 0.11850 0.03800
C 	C 	0.96063 0.07141 0.10256 -0.09700
H 	H 	0.96030 0.06340 0.09000 0.06500
C 	C 	0.97377 0.08842 0.10415 0.05700
H 	H 	0.98250 0.09180 0.09260 0.00200
C 	C 	0.00126 0.13009 0.07496 0.10400
C 	C 	0.01760 0.16707 0.11136 0.06000
H 	H 	0.00730 0.16590 0.10070 0.00000
C 	C 	0.02925 0.18473 0.11214 -0.10000
H 	H 	0.02660 0.19590 0.10270 0.06800
C 	C 	0.04519 0.18645 0.12702 0.00800
H 	H 	0.05370 0.19860 0.12780 0.03800
C 	C 	0.04822 0.16989 0.14067 -0.05200
C 	C 	0.03496 0.15259 0.13923 0.04300
H 	H 	0.03670 0.14140 0.14890 0.01000
C 	C 	0.06433 0.17061 0.15696 0.13400
N 	N 	0.91093 0.11413 0.23473 -0.22600
N 	N 	0.85431 0.97646 0.13623 -0.25800
N 	N 	0.87273 0.01681 0.14933 -0.22600
N 	N 	0.92030 0.06052 0.15364 -0.15300
N 	N 	0.90990 0.06961 0.18807 -0.15100
N 	N 	0.93970 0.08523 0.17285 -0.15500
N 	N 	0.97466 0.10040 0.12139 -0.23000
N 	N 	0.99874 0.12722 0.09250 -0.26200
N 	N 	0.02001 0.15114 0.12494 -0.22700
N 	N 	0.06397 0.15560 0.17137 -0.15100
S 	S 	0.82689 0.95888 0.16525 -0.06100
S 	S 	0.00491 0.13430 0.05016 -0.06200
C 	C 	0.41105 0.60084 0.21878 0.04100
H 	H 	0.39830 0.59400 0.21540 0.01100
C 	C 	0.42845 0.59633 0.20684 -0.05100
C 	C 	0.44733 0.60600 0.21194 0.00900
H 	H 	0.45960 0.60340 0.20400 0.03700
C 	C 	0.44760 0.61944 0.22884 -0.09900
H 	H 	0.46020 0.62610 0.23290 0.06600
C 	C 	0.42924 0.62310 0.23985 0.05900
H 	H 	0.42960 0.63230 0.25150 0.00000
C 	C 	0.34302 0.46879 0.14828 0.09600
C 	C 	0.35863 0.51534 0.16482 0.05600
H 	H 	0.34770 0.50530 0.16360 -0.00100
C 	C 	0.35944 0.52795 0.18264 -0.09800
H 	H 	0.34890 0.52690 0.19300 0.06500
C 	C 	0.37551 0.54177 0.18501 0.00900
H 	H 	0.37650 0.55020 0.19720 0.03700
C 	C 	0.39057 0.54333 0.16906 -0.05000
C 	C 	0.38826 0.53065 0.15169 0.03900
H 	H 	0.39830 0.53180 0.14080 0.01400
C 	C 	0.40791 0.55847 0.17038 0.13400
C 	C 	0.42619 0.58270 0.18823 0.13800
C 	C 	0.43553 0.57422 0.15570 0.14000
C 	C 	0.46242 0.59565 0.13725 0.04400
H 	H 	0.46280 0.60440 0.14930 0.00900
C 	C 	0.44878 0.57836 0.13729 -0.05300
C 	C 	0.44790 0.56601 0.11928 0.00800
H 	H 	0.43880 0.55430 0.11850 0.03800
C 	C 	0.46063 0.57141 0.10256 -0.09700
H 	H 	0.46030 0.56340 0.09000 0.06500
C 	C 	0.47377 0.58842 0.10415 0.05700
H 	H 	0.48250 0.59180 0.09260 0.00200
C 	C 	0.50126 0.63009 0.07496 0.10400
C 	C 	0.51760 0.66707 0.11136 0.06000
H 	H 	0.50730 0.66590 0.10070 0.00000
C 	C 	0.52925 0.68473 0.11214 -0.10000
H 	H 	0.52660 0.69590 0.10270 0.06800
C 	C 	0.54519 0.68645 0.12702 0.00800
H 	H 	0.55370 0.69860 0.12780 0.03800
C 	C 	0.54822 0.66989 0.14067 -0.05200
C 	C 	0.53496 0.65259 0.13923 0.04300
H 	H 	0.53670 0.64140 0.14890 0.01000
C 	C 	0.56433 0.67061 0.15696 0.13400
N 	N 	0.41093 0.61413 0.23473 -0.22600
N 	N 	0.35431 0.47646 0.13623 -0.25800
N 	N 	0.37273 0.51681 0.14933 -0.22600
N 	N 	0.42030 0.56052 0.15364 -0.15300
N 	N 	0.40990 0.56961 0.18807 -0.15100
N 	N 	0.43970 0.58523 0.17285 -0.15500
N 	N 	0.47466 0.60040 0.12139 -0.23000
N 	N 	0.49874 0.62722 0.09250 -0.26200
N 	N 	0.52001 0.65114 0.12494 -0.22700
N 	N 	0.56397 0.65560 0.17137 -0.15100
S 	S 	0.32689 0.45888 0.16525 -0.06100
S 	S 	0.50491 0.63430 0.05016 -0.06200
C 	C 	0.41105 0.10084 0.71878 0.04100
H 	H 	0.39830 0.09400 0.71540 0.01100
C 	C 	0.42845 0.09633 0.70684 -0.05100
C 	C 	0.44733 0.10600 0.71194 0.00900
H 	H 	0.45960 0.10340 0.70400 0.03700
C 	C 	0.44760 0.11944 0.72884 -0.09900
H 	H 	0.46020 0.12610 0.73290 0.06600
C 	C 	0.42924 0.12310 0.73985 0.05900
H 	H 	0.42960 0.13230 0.75150 0.00000
C 	C 	0.34302 0.96879 0.64828 0.09600
C 	C 	0.35863 0.01534 0.66482 0.05600
H 	H 	0.34770 0.00530 0.66360 -0.00100
C 	C 	0.35944 0.02795 0.68264 -0.09800
H 	H 	0.34890 0.02690 0.69300 0.06500
C 	C 	0.37551 0.04177 0.68501 0.00900
H 	H 	0.37650 0.05020 0.69720 0.03700
C 	C 	0.39057 0.04333 0.66906 -0.05000
C 	C 	0.38826 0.03065 0.65169 0.03900
H 	H 	0.39830 0.03180 0.64080 0.01400
C 	C 	0.40791 0.05847 0.67038 0.13400
C 	C 	0.42619 0.08270 0.68823 0.13800
C 	C 	0.43553 0.07422 0.65570 0.14000
C 	C 	0.46242 0.09565 0.63725 0.04400
H 	H 	0.46280 0.10440 0.64930 0.00900
C 	C 	0.44878 0.07836 0.63729 -0.05300
C 	C 	0.44790 0.06601 0.61928 0.00800
H 	H 	0.43880 0.05430 0.61850 0.03800
C 	C 	0.46063 0.07141 0.60256 -0.09700
H 	H 	0.46030 0.06340 0.59000 0.06500
C 	C 	0.47377 0.08842 0.60415 0.05700
H 	H 	0.48250 0.09180 0.59260 0.00200
C 	C 	0.50126 0.13009 0.57496 0.10400
C 	C 	0.51760 0.16707 0.61136 0.06000
H 	H 	0.50730 0.16590 0.60070 0.00000
C 	C 	0.52925 0.18473 0.61214 -0.10000
H 	H 	0.52660 0.19590 0.60270 0.06800
C 	C 	0.54519 0.18645 0.62702 0.00800
H 	H 	0.55370 0.19860 0.62780 0.03800
C 	C 	0.54822 0.16989 0.64067 -0.05200
C 	C 	0.53496 0.15259 0.63923 0.04300
H 	H 	0.53670 0.14140 0.64890 0.01000
C 	C 	0.56433 0.17061 0.65696 0.13400
N 	N 	0.41093 0.11413 0.73473 -0.22600
N 	N 	0.35431 0.97646 0.63623 -0.25800
N 	N 	0.37273 0.01681 0.64933 -0.22600
N 	N 	0.42030 0.06052 0.65364 -0.15300
N 	N 	0.40990 0.06961 0.68807 -0.15100
N 	N 	0.43970 0.08523 0.67285 -0.15500
N 	N 	0.47466 0.10040 0.62139 -0.23000
N 	N 	0.49874 0.12722 0.59250 -0.26200
N 	N 	0.52001 0.15114 0.62494 -0.22700
N 	N 	0.56397 0.15560 0.67137 -0.15100
S 	S 	0.32689 0.95888 0.66525 -0.06100
S 	S 	0.50491 0.13430 0.55016 -0.06200
C 	C 	0.33895 0.10084 0.03122 0.04100
H 	H 	0.35170 0.09400 0.03460 0.01100
C 	C 	0.32155 0.09633 0.04316 -0.05100
C 	C 	0.30267 0.10600 0.03806 0.00800
H 	H 	0.29040 0.10340 0.04600 0.03700
C 	C 	0.30240 0.11944 0.02116 -0.09900
H 	H 	0.28980 0.12610 0.01710 0.06600
C 	C 	0.32076 0.12310 0.01015 0.05900
H 	H 	0.32040 0.13230 0.99850 0.00000
C 	C 	0.40698 0.96879 0.10172 0.09600
C 	C 	0.39137 0.01534 0.08518 0.05600
H 	H 	0.40230 0.00530 0.08640 -0.00100
C 	C 	0.39056 0.02795 0.06736 -0.09800
H 	H 	0.40110 0.02690 0.05700 0.06500
C 	C 	0.37449 0.04177 0.06499 0.00900
H 	H 	0.37350 0.05020 0.05280 0.03700
C 	C 	0.35943 0.04333 0.08094 -0.05000
C 	C 	0.36174 0.03065 0.09831 0.03900
H 	H 	0.35170 0.03180 0.10920 0.01400
C 	C 	0.34209 0.05847 0.07962 0.13400
C 	C 	0.32381 0.08270 0.06177 0.13800
C 	C 	0.31447 0.07422 0.09430 0.14000
C 	C 	0.28758 0.09565 0.11275 0.04400
H 	H 	0.28720 0.10440 0.10070 0.00900
C 	C 	0.30122 0.07836 0.11271 -0.05300
C 	C 	0.30210 0.06601 0.13072 0.00800
H 	H 	0.31120 0.05430 0.13150 0.03800
C 	C 	0.28937 0.07141 0.14744 -0.09700
H 	H 	0.28970 0.06340 0.16000 0.06500
C 	C 	0.27623 0.08842 0.14585 0.05700
H 	H 	0.26750 0.09180 0.15740 0.00200
C 	C 	0.24874 0.13009 0.17504 0.10400
C 	C 	0.23240 0.16707 0.13864 0.06000
H 	H 	0.24270 0.16590 0.14930 0.00000
C 	C 	0.22075 0.18473 0.13786 -0.10000
H 	H 	0.22340 0.19590 0.14730 0.06800
C 	C 	0.20481 0.18645 0.12298 0.00800
H 	H 	0.19630 0.19860 0.12220 0.03800
C 	C 	0.20178 0.16989 0.10933 -0.05200
C 	C 	0.21504 0.15259 0.11077 0.04300
H 	H 	0.21330 0.14140 0.10110 0.01000
C 	C 	0.18567 0.17061 0.09304 0.13400
N 	N 	0.33907 0.11413 0.01527 -0.22500
N 	N 	0.39569 0.97646 0.11377 -0.25800
N 	N 	0.37727 0.01681 0.10067 -0.22600
N 	N 	0.32970 0.06052 0.09636 -0.15300
N 	N 	0.34010 0.06961 0.06193 -0.15100
N 	N 	0.31030 0.08523 0.07715 -0.15500
N 	N 	0.27534 0.10040 0.12861 -0.23000
N 	N 	0.25126 0.12722 0.15750 -0.26200
N 	N 	0.22999 0.15114 0.12506 -0.22700
N 	N 	0.18603 0.15560 0.07863 -0.15100
S 	S 	0.42311 0.95888 0.08475 -0.06100
S 	S 	0.24509 0.13430 0.19984 -0.06200
C 	C 	0.33895 0.60084 0.53122 0.04100
H 	H 	0.35170 0.59400 0.53460 0.01100
C 	C 	0.32155 0.59633 0.54316 -0.05100
C 	C 	0.30267 0.60600 0.53806 0.00900
H 	H 	0.29040 0.60340 0.54600 0.03700
C 	C 	0.30240 0.61944 0.52116 -0.09900
H 	H 	0.28980 0.62610 0.51710 0.06600
C 	C 	0.32076 0.62310 0.51015 0.05900
H 	H 	0.32040 0.63230 0.49850 0.00000
C 	C 	0.40698 0.46879 0.60172 0.09600
C 	C 	0.39137 0.51534 0.58518 0.05600
H 	H 	0.40230 0.50530 0.58640 -0.00100
C 	C 	0.39056 0.52795 0.56736 -0.09800
H 	H 	0.40110 0.52690 0.55700 0.06500
C 	C 	0.37449 0.54177 0.56499 0.00900
H 	H 	0.37350 0.55020 0.55280 0.03700
C 	C 	0.35943 0.54333 0.58094 -0.05000
C 	C 	0.36174 0.53065 0.59831 0.03900
H 	H 	0.35170 0.53180 0.60920 0.01400
C 	C 	0.34209 0.55847 0.57962 0.13400
C 	C 	0.32381 0.58270 0.56177 0.13800
C 	C 	0.31447 0.57422 0.59430 0.14000
C 	C 	0.28758 0.59565 0.61275 0.04400
H 	H 	0.28720 0.60440 0.60070 0.00900
C 	C 	0.30122 0.57836 0.61271 -0.05300
C 	C 	0.30210 0.56601 0.63072 0.00800
H 	H 	0.31120 0.55430 0.63150 0.03800
C 	C 	0.28937 0.57141 0.64744 -0.09700
H 	H 	0.28970 0.56340 0.66000 0.06500
C 	C 	0.27623 0.58842 0.64585 0.05700
H 	H 	0.26750 0.59180 0.65740 0.00200
C 	C 	0.24874 0.63009 0.67504 0.10400
C 	C 	0.23240 0.66707 0.63864 0.06000
H 	H 	0.24270 0.66590 0.64930 0.00000
C 	C 	0.22075 0.68473 0.63786 -0.10000
H 	H 	0.22340 0.69590 0.64730 0.06800
C 	C 	0.20481 0.68645 0.62298 0.00800
H 	H 	0.19630 0.69860 0.62220 0.03800
C 	C 	0.20178 0.66989 0.60933 -0.05200
C 	C 	0.21504 0.65259 0.61077 0.04300
H 	H 	0.21330 0.64140 0.60110 0.01000
C 	C 	0.18567 0.67061 0.59304 0.13400
N 	N 	0.33907 0.61413 0.51527 -0.22600
N 	N 	0.39569 0.47646 0.61377 -0.25800
N 	N 	0.37727 0.51681 0.60067 -0.22600
N 	N 	0.32970 0.56052 0.59636 -0.15300
N 	N 	0.34010 0.56961 0.56193 -0.15100
N 	N 	0.31030 0.58523 0.57715 -0.15500
N 	N 	0.27534 0.60040 0.62861 -0.23000
N 	N 	0.25126 0.62722 0.65750 -0.26200
N 	N 	0.22999 0.65114 0.62506 -0.22700
N 	N 	0.18603 0.65560 0.57863 -0.15100
S 	S 	0.42311 0.45888 0.58475 -0.06100
S 	S 	0.24509 0.63430 0.69984 -0.06200
C 	C 	0.83895 0.10084 0.53122 0.04100
H 	H 	0.85170 0.09400 0.53460 0.01100
C 	C 	0.82155 0.09633 0.54316 -0.05100
C 	C 	0.80267 0.10600 0.53806 0.00900
H 	H 	0.79040 0.10340 0.54600 0.03700
C 	C 	0.80240 0.11944 0.52116 -0.09900
H 	H 	0.78980 0.12610 0.51710 0.06600
C 	C 	0.82076 0.12310 0.51015 0.05900
H 	H 	0.82040 0.13230 0.49850 0.00000
C 	C 	0.90698 0.96879 0.60172 0.09600
C 	C 	0.89137 0.01534 0.58518 0.05600
H 	H 	0.90230 0.00530 0.58640 -0.00100
C 	C 	0.89056 0.02795 0.56736 -0.09800
H 	H 	0.90110 0.02690 0.55700 0.06500
C 	C 	0.87449 0.04177 0.56499 0.00900
H 	H 	0.87350 0.05020 0.55280 0.03700
C 	C 	0.85943 0.04333 0.58094 -0.05000
C 	C 	0.86174 0.03065 0.59831 0.03900
H 	H 	0.85170 0.03180 0.60920 0.01400
C 	C 	0.84209 0.05847 0.57962 0.13400
C 	C 	0.82381 0.08270 0.56177 0.13800
C 	C 	0.81447 0.07422 0.59430 0.14000
C 	C 	0.78758 0.09565 0.61275 0.04400
H 	H 	0.78720 0.10440 0.60070 0.00900
C 	C 	0.80122 0.07836 0.61271 -0.05300
C 	C 	0.80210 0.06601 0.63072 0.00800
H 	H 	0.81120 0.05430 0.63150 0.03800
C 	C 	0.78937 0.07141 0.64744 -0.09700
H 	H 	0.78970 0.06340 0.66000 0.06500
C 	C 	0.77623 0.08842 0.64585 0.05700
H 	H 	0.76750 0.09180 0.65740 0.00200
C 	C 	0.74874 0.13009 0.67504 0.10400
C 	C 	0.73240 0.16707 0.63864 0.06000
H 	H 	0.74270 0.16590 0.64930 0.00000
C 	C 	0.72075 0.18473 0.63786 -0.10000
H 	H 	0.72340 0.19590 0.64730 0.06800
C 	C 	0.70481 0.18645 0.62298 0.00800
H 	H 	0.69630 0.19860 0.62220 0.03800
C 	C 	0.70178 0.16989 0.60933 -0.05200
C 	C 	0.71504 0.15259 0.61077 0.04300
H 	H 	0.71330 0.14140 0.60110 0.01000
C 	C 	0.68567 0.17061 0.59304 0.13400
N 	N 	0.83907 0.11413 0.51527 -0.22600
N 	N 	0.89569 0.97646 0.61377 -0.25800
N 	N 	0.87727 0.01681 0.60067 -0.22600
N 	N 	0.82970 0.06052 0.59636 -0.15300
N 	N 	0.84010 0.06961 0.56193 -0.15100
N 	N 	0.81030 0.08523 0.57715 -0.15500
N 	N 	0.77534 0.10040 0.62861 -0.23000
N 	N 	0.75126 0.12722 0.65750 -0.26200
N 	N 	0.72999 0.15114 0.62506 -0.22700
N 	N 	0.68603 0.15560 0.57863 -0.15100
S 	S 	0.92311 0.95888 0.58475 -0.06100
S 	S 	0.74509 0.13430 0.69984 -0.06200
C 	C 	0.83895 0.60084 0.03122 0.04100
H 	H 	0.85170 0.59400 0.03460 0.01100
C 	C 	0.82155 0.59633 0.04316 -0.05100
C 	C 	0.80267 0.60600 0.03806 0.00800
H 	H 	0.79040 0.60340 0.04600 0.03700
C 	C 	0.80240 0.61944 0.02116 -0.09900
H 	H 	0.78980 0.62610 0.01710 0.06600
C 	C 	0.82076 0.62310 0.01015 0.05900
H 	H 	0.82040 0.63230 0.99850 0.00000
C 	C 	0.90698 0.46879 0.10172 0.09600
C 	C 	0.89137 0.51534 0.08518 0.05600
H 	H 	0.90230 0.50530 0.08640 -0.00100
C 	C 	0.89056 0.52795 0.06736 -0.09800
H 	H 	0.90110 0.52690 0.05700 0.06500
C 	C 	0.87449 0.54177 0.06499 0.00900
H 	H 	0.87350 0.55020 0.05280 0.03700
C 	C 	0.85943 0.54333 0.08094 -0.05000
C 	C 	0.86174 0.53065 0.09831 0.03900
H 	H 	0.85170 0.53180 0.10920 0.01400
C 	C 	0.84209 0.55847 0.07962 0.13400
C 	C 	0.82381 0.58270 0.06177 0.13800
C 	C 	0.81447 0.57422 0.09430 0.14000
C 	C 	0.78758 0.59565 0.11275 0.04400
H 	H 	0.78720 0.60440 0.10070 0.00900
C 	C 	0.80122 0.57836 0.11271 -0.05300
C 	C 	0.80210 0.56601 0.13072 0.00800
H 	H 	0.81120 0.55430 0.13150 0.03800
C 	C 	0.78937 0.57141 0.14744 -0.09700
H 	H 	0.78970 0.56340 0.16000 0.06500
C 	C 	0.77623 0.58842 0.14585 0.05700
H 	H 	0.76750 0.59180 0.15740 0.00200
C 	C 	0.74874 0.63009 0.17504 0.10400
C 	C 	0.73240 0.66707 0.13864 0.06000
H 	H 	0.74270 0.66590 0.14930 0.00000
C 	C 	0.72075 0.68473 0.13786 -0.10000
H 	H 	0.72340 0.69590 0.14730 0.06800
C 	C 	0.70481 0.68645 0.12298 0.00800
H 	H 	0.69630 0.69860 0.12220 0.03800
C 	C 	0.70178 0.66989 0.10933 -0.05200
C 	C 	0.71504 0.65259 0.11077 0.04300
H 	H 	0.71330 0.64140 0.10110 0.01000
C 	C 	0.68567 0.67061 0.09304 0.13400
N 	N 	0.83907 0.61413 0.01527 -0.22500
N 	N 	0.89569 0.47646 0.11377 -0.25800
N 	N 	0.87727 0.51681 0.10067 -0.22600
N 	N 	0.82970 0.56052 0.09636 -0.15300
N 	N 	0.84010 0.56961 0.06193 -0.15100
N 	N 	0.81030 0.58523 0.07715 -0.15500
N 	N 	0.77534 0.60040 0.12861 -0.23000
N 	N 	0.75126 0.62722 0.15750 -0.26200
N 	N 	0.72999 0.65114 0.12506 -0.22700
N 	N 	0.68603 0.65560 0.07863 -0.15100
S 	S 	0.92311 0.45888 0.08475 -0.06100
S 	S 	0.74509 0.63430 0.19984 -0.06200
C 	C 	0.14916 0.53122 0.41105 0.04100
H 	H 	0.15600 0.53460 0.39830 0.01100
C 	C 	0.15367 0.54316 0.42845 -0.05100
C 	C 	0.14400 0.53806 0.44733 0.00900
H 	H 	0.14660 0.54600 0.45960 0.03700
C 	C 	0.13056 0.52116 0.44760 -0.09900
H 	H 	0.12390 0.51710 0.46020 0.06600
C 	C 	0.12690 0.51015 0.42924 0.05900
H 	H 	0.11770 0.49850 0.42960 0.00000
C 	C 	0.28121 0.60172 0.34302 0.09600
C 	C 	0.23466 0.58518 0.35863 0.05600
H 	H 	0.24470 0.58640 0.34770 -0.00100
C 	C 	0.22205 0.56736 0.35944 -0.09800
H 	H 	0.22310 0.55700 0.34890 0.06500
C 	C 	0.20823 0.56499 0.37551 0.00900
H 	H 	0.19980 0.55280 0.37650 0.03700
C 	C 	0.20667 0.58094 0.39057 -0.05000
C 	C 	0.21935 0.59831 0.38826 0.03900
H 	H 	0.21820 0.60920 0.39830 0.01400
C 	C 	0.19153 0.57962 0.40791 0.13400
C 	C 	0.16730 0.56177 0.42619 0.13800
C 	C 	0.17578 0.59430 0.43553 0.14000
C 	C 	0.15435 0.61275 0.46242 0.04400
H 	H 	0.14560 0.60070 0.46280 0.00900
C 	C 	0.17164 0.61271 0.44878 -0.05300
C 	C 	0.18399 0.63072 0.44790 0.00800
H 	H 	0.19570 0.63150 0.43880 0.03800
C 	C 	0.17859 0.64744 0.46063 -0.09700
H 	H 	0.18660 0.66000 0.46030 0.06500
C 	C 	0.16158 0.64585 0.47377 0.05700
H 	H 	0.15820 0.65740 0.48250 0.00200
C 	C 	0.11991 0.67504 0.50126 0.10400
C 	C 	0.08293 0.63864 0.51760 0.06000
H 	H 	0.08410 0.64930 0.50730 0.00000
C 	C 	0.06527 0.63786 0.52925 -0.10000
H 	H 	0.05410 0.64730 0.52660 0.06800
C 	C 	0.06355 0.62298 0.54519 0.00800
H 	H 	0.05140 0.62220 0.55370 0.03800
C 	C 	0.08011 0.60933 0.54822 -0.05200
C 	C 	0.09741 0.61077 0.53496 0.04300
H 	H 	0.10860 0.60110 0.53670 0.01000
C 	C 	0.07939 0.59304 0.56433 0.13400
N 	N 	0.13587 0.51527 0.41093 -0.22600
N 	N 	0.27354 0.61377 0.35431 -0.25800
N 	N 	0.23319 0.60067 0.37273 -0.22600
N 	N 	0.18948 0.59636 0.42030 -0.15300
N 	N 	0.18039 0.56193 0.40990 -0.15100
N 	N 	0.16477 0.57715 0.43970 -0.15500
N 	N 	0.14960 0.62861 0.47466 -0.23000
N 	N 	0.12278 0.65750 0.49874 -0.26200
N 	N 	0.09886 0.62506 0.52001 -0.22700
N 	N 	0.09440 0.57863 0.56397 -0.15100
S 	S 	0.29112 0.58475 0.32689 -0.06100
S 	S 	0.11570 0.69984 0.50491 -0.06200
C 	C 	0.14916 0.03122 0.91105 0.04100
H 	H 	0.15600 0.03460 0.89830 0.01100
C 	C 	0.15367 0.04316 0.92845 -0.05100
C 	C 	0.14400 0.03806 0.94733 0.00800
H 	H 	0.14660 0.04600 0.95960 0.03700
C 	C 	0.13056 0.02116 0.94760 -0.09900
H 	H 	0.12390 0.01710 0.96020 0.06600
C 	C 	0.12690 0.01015 0.92924 0.05900
H 	H 	0.11770 0.99850 0.92960 0.00000
C 	C 	0.28121 0.10172 0.84302 0.09600
C 	C 	0.23466 0.08518 0.85863 0.05600
H 	H 	0.24470 0.08640 0.84770 -0.00100
C 	C 	0.22205 0.06736 0.85944 -0.09800
H 	H 	0.22310 0.05700 0.84890 0.06500
C 	C 	0.20823 0.06499 0.87551 0.00900
H 	H 	0.19980 0.05280 0.87650 0.03700
C 	C 	0.20667 0.08094 0.89057 -0.05000
C 	C 	0.21935 0.09831 0.88826 0.03900
H 	H 	0.21820 0.10920 0.89830 0.01400
C 	C 	0.19153 0.07962 0.90791 0.13400
C 	C 	0.16730 0.06177 0.92619 0.13800
C 	C 	0.17578 0.09430 0.93553 0.14000
C 	C 	0.15435 0.11275 0.96242 0.04400
H 	H 	0.14560 0.10070 0.96280 0.00900
C 	C 	0.17164 0.11271 0.94878 -0.05300
C 	C 	0.18399 0.13072 0.94790 0.00800
H 	H 	0.19570 0.13150 0.93880 0.03800
C 	C 	0.17859 0.14744 0.96063 -0.09700
H 	H 	0.18660 0.16000 0.96030 0.06500
C 	C 	0.16158 0.14585 0.97377 0.05700
H 	H 	0.15820 0.15740 0.98250 0.00200
C 	C 	0.11991 0.17504 0.00126 0.10400
C 	C 	0.08293 0.13864 0.01760 0.06000
H 	H 	0.08410 0.14930 0.00730 0.00000
C 	C 	0.06527 0.13786 0.02925 -0.10000
H 	H 	0.05410 0.14730 0.02660 0.06800
C 	C 	0.06355 0.12298 0.04519 0.00800
H 	H 	0.05140 0.12220 0.05370 0.03800
C 	C 	0.08011 0.10933 0.04822 -0.05200
C 	C 	0.09741 0.11077 0.03496 0.04300
H 	H 	0.10860 0.10110 0.03670 0.01000
C 	C 	0.07939 0.09304 0.06433 0.13400
N 	N 	0.13587 0.01527 0.91093 -0.22500
N 	N 	0.27354 0.11377 0.85431 -0.25800
N 	N 	0.23319 0.10067 0.87273 -0.22600
N 	N 	0.18948 0.09636 0.92030 -0.15300
N 	N 	0.18039 0.06193 0.90990 -0.15100
N 	N 	0.16477 0.07715 0.93970 -0.15500
N 	N 	0.14960 0.12861 0.97466 -0.23000
N 	N 	0.12278 0.15750 0.99874 -0.26200
N 	N 	0.09886 0.12506 0.02001 -0.22700
N 	N 	0.09440 0.07863 0.06397 -0.15100
S 	S 	0.29112 0.08475 0.82689 -0.06100
S 	S 	0.11570 0.19984 0.00491 -0.06200
C 	C 	0.64916 0.53122 0.91105 0.04100
H 	H 	0.65600 0.53460 0.89830 0.01100
C 	C 	0.65367 0.54316 0.92845 -0.05100
C 	C 	0.64400 0.53806 0.94733 0.00900
H 	H 	0.64660 0.54600 0.95960 0.03700
C 	C 	0.63056 0.52116 0.94760 -0.09900
H 	H 	0.62390 0.51710 0.96020 0.06600
C 	C 	0.62690 0.51015 0.92924 0.05900
H 	H 	0.61770 0.49850 0.92960 0.00000
C 	C 	0.78121 0.60172 0.84302 0.09600
C 	C 	0.73466 0.58518 0.85863 0.05600
H 	H 	0.74470 0.58640 0.84770 -0.00100
C 	C 	0.72205 0.56736 0.85944 -0.09800
H 	H 	0.72310 0.55700 0.84890 0.06500
C 	C 	0.70823 0.56499 0.87551 0.00900
H 	H 	0.69980 0.55280 0.87650 0.03700
C 	C 	0.70667 0.58094 0.89057 -0.05000
C 	C 	0.71935 0.59831 0.88826 0.03900
H 	H 	0.71820 0.60920 0.89830 0.01400
C 	C 	0.69153 0.57962 0.90791 0.13400
C 	C 	0.66730 0.56177 0.92619 0.13800
C 	C 	0.67578 0.59430 0.93553 0.14000
C 	C 	0.65435 0.61275 0.96242 0.04400
H 	H 	0.64560 0.60070 0.96280 0.00900
C 	C 	0.67164 0.61271 0.94878 -0.05300
C 	C 	0.68399 0.63072 0.94790 0.00800
H 	H 	0.69570 0.63150 0.93880 0.03800
C 	C 	0.67859 0.64744 0.96063 -0.09700
H 	H 	0.68660 0.66000 0.96030 0.06500
C 	C 	0.66158 0.64585 0.97377 0.05700
H 	H 	0.65820 0.65740 0.98250 0.00200
C 	C 	0.61991 0.67504 0.00126 0.10400
C 	C 	0.58293 0.63864 0.01760 0.06000
H 	H 	0.58410 0.64930 0.00730 0.00000
C 	C 	0.56527 0.63786 0.02925 -0.10000
H 	H 	0.55410 0.64730 0.02660 0.06800
C 	C 	0.56355 0.62298 0.04519 0.00800
H 	H 	0.55140 0.62220 0.05370 0.03800
C 	C 	0.58011 0.60933 0.04822 -0.05200
C 	C 	0.59741 0.61077 0.03496 0.04300
H 	H 	0.60860 0.60110 0.03670 0.01000
C 	C 	0.57939 0.59304 0.06433 0.13400
N 	N 	0.63587 0.51527 0.91093 -0.22600
N 	N 	0.77354 0.61377 0.85431 -0.25800
N 	N 	0.73319 0.60067 0.87273 -0.22600
N 	N 	0.68948 0.59636 0.92030 -0.15300
N 	N 	0.68039 0.56193 0.90990 -0.15100
N 	N 	0.66477 0.57715 0.93970 -0.15500
N 	N 	0.64960 0.62861 0.97466 -0.23000
N 	N 	0.62278 0.65750 0.99874 -0.26200
N 	N 	0.59886 0.62506 0.02001 -0.22700
N 	N 	0.59440 0.57863 0.06397 -0.15100
S 	S 	0.79112 0.58475 0.82689 -0.06100
S 	S 	0.61570 0.69984 0.00491 -0.06200
C 	C 	0.64916 0.03122 0.41105 0.04100
H 	H 	0.65600 0.03460 0.39830 0.01100
C 	C 	0.65367 0.04316 0.42845 -0.05100
C 	C 	0.64400 0.03806 0.44733 0.00800
H 	H 	0.64660 0.04600 0.45960 0.03700
C 	C 	0.63056 0.02116 0.44760 -0.09900
H 	H 	0.62390 0.01710 0.46020 0.06600
C 	C 	0.62690 0.01015 0.42924 0.05900
H 	H 	0.61770 0.99850 0.42960 0.00000
C 	C 	0.78121 0.10172 0.34302 0.09600
C 	C 	0.73466 0.08518 0.35863 0.05600
H 	H 	0.74470 0.08640 0.34770 -0.00100
C 	C 	0.72205 0.06736 0.35944 -0.09800
H 	H 	0.72310 0.05700 0.34890 0.06500
C 	C 	0.70823 0.06499 0.37551 0.00900
H 	H 	0.69980 0.05280 0.37650 0.03700
C 	C 	0.70667 0.08094 0.39057 -0.05000
C 	C 	0.71935 0.09831 0.38826 0.03900
H 	H 	0.71820 0.10920 0.39830 0.01400
C 	C 	0.69153 0.07962 0.40791 0.13400
C 	C 	0.66730 0.06177 0.42619 0.13800
C 	C 	0.67578 0.09430 0.43553 0.14000
C 	C 	0.65435 0.11275 0.46242 0.04400
H 	H 	0.64560 0.10070 0.46280 0.00900
C 	C 	0.67164 0.11271 0.44878 -0.05300
C 	C 	0.68399 0.13072 0.44790 0.00800
H 	H 	0.69570 0.13150 0.43880 0.03800
C 	C 	0.67859 0.14744 0.46063 -0.09700
H 	H 	0.68660 0.16000 0.46030 0.06500
C 	C 	0.66158 0.14585 0.47377 0.05700
H 	H 	0.65820 0.15740 0.48250 0.00200
C 	C 	0.61991 0.17504 0.50126 0.10400
C 	C 	0.58293 0.13864 0.51760 0.06000
H 	H 	0.58410 0.14930 0.50730 0.00000
C 	C 	0.56527 0.13786 0.52925 -0.10000
H 	H 	0.55410 0.14730 0.52660 0.06800
C 	C 	0.56355 0.12298 0.54519 0.00800
H 	H 	0.55140 0.12220 0.55370 0.03800
C 	C 	0.58011 0.10933 0.54822 -0.05200
C 	C 	0.59741 0.11077 0.53496 0.04300
H 	H 	0.60860 0.10110 0.53670 0.01000
C 	C 	0.57939 0.09304 0.56433 0.13400
N 	N 	0.63587 0.01527 0.41093 -0.22500
N 	N 	0.77354 0.11377 0.35431 -0.25800
N 	N 	0.73319 0.10067 0.37273 -0.22600
N 	N 	0.68948 0.09636 0.42030 -0.15300
N 	N 	0.68039 0.06193 0.40990 -0.15100
N 	N 	0.66477 0.07715 0.43970 -0.15500
N 	N 	0.64960 0.12861 0.47466 -0.23000
N 	N 	0.62278 0.15750 0.49874 -0.26200
N 	N 	0.59886 0.12506 0.52001 -0.22700
N 	N 	0.59440 0.07863 0.56397 -0.15100
S 	S 	0.79112 0.08475 0.32689 -0.06100
S 	S 	0.61570 0.19984 0.50491 -0.06200
C 	C 	0.64916 0.21878 0.83895 0.04100
H 	H 	0.65600 0.21540 0.85170 0.01100
C 	C 	0.65367 0.20684 0.82155 -0.05100
C 	C 	0.64400 0.21194 0.80267 0.00900
H 	H 	0.64660 0.20400 0.79040 0.03700
C 	C 	0.63056 0.22884 0.80240 -0.09900
H 	H 	0.62390 0.23290 0.78980 0.06600
C 	C 	0.62690 0.23985 0.82076 0.05900
H 	H 	0.61770 0.25150 0.82040 0.00000
C 	C 	0.78121 0.14828 0.90698 0.09600
C 	C 	0.73466 0.16482 0.89137 0.05600
H 	H 	0.74470 0.16360 0.90230 -0.00100
C 	C 	0.72205 0.18264 0.89056 -0.09800
H 	H 	0.72310 0.19300 0.90110 0.06500
C 	C 	0.70823 0.18501 0.87449 0.00900
H 	H 	0.69980 0.19720 0.87350 0.03700
C 	C 	0.70667 0.16906 0.85943 -0.05000
C 	C 	0.71935 0.15169 0.86174 0.03900
H 	H 	0.71820 0.14080 0.85170 0.01400
C 	C 	0.69153 0.17038 0.84209 0.13400
C 	C 	0.66730 0.18823 0.82381 0.13800
C 	C 	0.67578 0.15570 0.81447 0.14000
C 	C 	0.65435 0.13725 0.78758 0.04400
H 	H 	0.64560 0.14930 0.78720 0.00900
C 	C 	0.67164 0.13729 0.80122 -0.05300
C 	C 	0.68399 0.11928 0.80210 0.00800
H 	H 	0.69570 0.11850 0.81120 0.03800
C 	C 	0.67859 0.10256 0.78937 -0.09700
H 	H 	0.68660 0.09000 0.78970 0.06500
C 	C 	0.66158 0.10415 0.77623 0.05700
H 	H 	0.65820 0.09260 0.76750 0.00200
C 	C 	0.61991 0.07496 0.74874 0.10400
C 	C 	0.58293 0.11136 0.73240 0.06000
H 	H 	0.58410 0.10070 0.74270 0.00000
C 	C 	0.56527 0.11214 0.72075 -0.10000
H 	H 	0.55410 0.10270 0.72340 0.06800
C 	C 	0.56355 0.12702 0.70481 0.00800
H 	H 	0.55140 0.12780 0.69630 0.03800
C 	C 	0.58011 0.14067 0.70178 -0.05200
C 	C 	0.59741 0.13923 0.71504 0.04300
H 	H 	0.60860 0.14890 0.71330 0.01000
C 	C 	0.57939 0.15696 0.68567 0.13400
N 	N 	0.63587 0.23473 0.83907 -0.22600
N 	N 	0.77354 0.13623 0.89569 -0.25800
N 	N 	0.73319 0.14933 0.87727 -0.22600
N 	N 	0.68948 0.15364 0.82970 -0.15300
N 	N 	0.68039 0.18807 0.84010 -0.15100
N 	N 	0.66477 0.17285 0.81030 -0.15500
N 	N 	0.64960 0.12139 0.77534 -0.23000
N 	N 	0.62278 0.09250 0.75126 -0.26200
N 	N 	0.59886 0.12494 0.72999 -0.22700
N 	N 	0.59440 0.17137 0.68603 -0.15100
S 	S 	0.79112 0.16525 0.92311 -0.06100
S 	S 	0.61570 0.05016 0.74509 -0.06200
C 	C 	0.64916 0.71878 0.33895 0.04100
H 	H 	0.65600 0.71540 0.35170 0.01100
C 	C 	0.65367 0.70684 0.32155 -0.05100
C 	C 	0.64400 0.71194 0.30267 0.00900
H 	H 	0.64660 0.70400 0.29040 0.03700
C 	C 	0.63056 0.72884 0.30240 -0.09900
H 	H 	0.62390 0.73290 0.28980 0.06600
C 	C 	0.62690 0.73985 0.32076 0.05900
H 	H 	0.61770 0.75150 0.32040 0.00000
C 	C 	0.78121 0.64828 0.40698 0.09600
C 	C 	0.73466 0.66482 0.39137 0.05600
H 	H 	0.74470 0.66360 0.40230 -0.00100
C 	C 	0.72205 0.68264 0.39056 -0.09800
H 	H 	0.72310 0.69300 0.40110 0.06500
C 	C 	0.70823 0.68501 0.37449 0.00900
H 	H 	0.69980 0.69720 0.37350 0.03700
C 	C 	0.70667 0.66906 0.35943 -0.05000
C 	C 	0.71935 0.65169 0.36174 0.03900
H 	H 	0.71820 0.64080 0.35170 0.01400
C 	C 	0.69153 0.67038 0.34209 0.13400
C 	C 	0.66730 0.68823 0.32381 0.13800
C 	C 	0.67578 0.65570 0.31447 0.14000
C 	C 	0.65435 0.63725 0.28758 0.04400
H 	H 	0.64560 0.64930 0.28720 0.00900
C 	C 	0.67164 0.63729 0.30122 -0.05300
C 	C 	0.68399 0.61928 0.30210 0.00800
H 	H 	0.69570 0.61850 0.31120 0.03800
C 	C 	0.67859 0.60256 0.28937 -0.09700
H 	H 	0.68660 0.59000 0.28970 0.06500
C 	C 	0.66158 0.60415 0.27623 0.05700
H 	H 	0.65820 0.59260 0.26750 0.00200
C 	C 	0.61991 0.57496 0.24874 0.10400
C 	C 	0.58293 0.61136 0.23240 0.06000
H 	H 	0.58410 0.60070 0.24270 0.00000
C 	C 	0.56527 0.61214 0.22075 -0.10000
H 	H 	0.55410 0.60270 0.22340 0.06800
C 	C 	0.56355 0.62702 0.20481 0.00800
H 	H 	0.55140 0.62780 0.19630 0.03800
C 	C 	0.58011 0.64067 0.20178 -0.05200
C 	C 	0.59741 0.63923 0.21504 0.04300
H 	H 	0.60860 0.64890 0.21330 0.01000
C 	C 	0.57939 0.65696 0.18567 0.13400
N 	N 	0.63587 0.73473 0.33907 -0.22600
N 	N 	0.77354 0.63623 0.39569 -0.25800
N 	N 	0.73319 0.64933 0.37727 -0.22600
N 	N 	0.68948 0.65364 0.32970 -0.15300
N 	N 	0.68039 0.68807 0.34010 -0.15100
N 	N 	0.66477 0.67285 0.31030 -0.15500
N 	N 	0.64960 0.62139 0.27534 -0.23000
N 	N 	0.62278 0.59250 0.25126 -0.26200
N 	N 	0.59886 0.62494 0.22999 -0.22700
N 	N 	0.59440 0.67137 0.18603 -0.15100
S 	S 	0.79112 0.66525 0.42311 -0.06100
S 	S 	0.61570 0.55016 0.24509 -0.06200
C 	C 	0.14916 0.21878 0.33895 0.04100
H 	H 	0.15600 0.21540 0.35170 0.01100
C 	C 	0.15367 0.20684 0.32155 -0.05100
C 	C 	0.14400 0.21194 0.30267 0.00900
H 	H 	0.14660 0.20400 0.29040 0.03700
C 	C 	0.13056 0.22884 0.30240 -0.09900
H 	H 	0.12390 0.23290 0.28980 0.06600
C 	C 	0.12690 0.23985 0.32076 0.05900
H 	H 	0.11770 0.25150 0.32040 0.00000
C 	C 	0.28121 0.14828 0.40698 0.09600
C 	C 	0.23466 0.16482 0.39137 0.05600
H 	H 	0.24470 0.16360 0.40230 -0.00100
C 	C 	0.22205 0.18264 0.39056 -0.09800
H 	H 	0.22310 0.19300 0.40110 0.06500
C 	C 	0.20823 0.18501 0.37449 0.00900
H 	H 	0.19980 0.19720 0.37350 0.03700
C 	C 	0.20667 0.16906 0.35943 -0.05000
C 	C 	0.21935 0.15169 0.36174 0.03900
H 	H 	0.21820 0.14080 0.35170 0.01400
C 	C 	0.19153 0.17038 0.34209 0.13400
C 	C 	0.16730 0.18823 0.32381 0.13800
C 	C 	0.17578 0.15570 0.31447 0.14000
C 	C 	0.15435 0.13725 0.28758 0.04400
H 	H 	0.14560 0.14930 0.28720 0.00900
C 	C 	0.17164 0.13729 0.30122 -0.05300
C 	C 	0.18399 0.11928 0.30210 0.00800
H 	H 	0.19570 0.11850 0.31120 0.03800
C 	C 	0.17859 0.10256 0.28937 -0.09700
H 	H 	0.18660 0.09000 0.28970 0.06500
C 	C 	0.16158 0.10415 0.27623 0.05700
H 	H 	0.15820 0.09260 0.26750 0.00200
C 	C 	0.11991 0.07496 0.24874 0.10400
C 	C 	0.08293 0.11136 0.23240 0.06000
H 	H 	0.08410 0.10070 0.24270 0.00000
C 	C 	0.06527 0.11214 0.22075 -0.10000
H 	H 	0.05410 0.10270 0.22340 0.06800
C 	C 	0.06355 0.12702 0.20481 0.00800
H 	H 	0.05140 0.12780 0.19630 0.03800
C 	C 	0.08011 0.14067 0.20178 -0.05200
C 	C 	0.09741 0.13923 0.21504 0.04300
H 	H 	0.10860 0.14890 0.21330 0.01000
C 	C 	0.07939 0.15696 0.18567 0.13400
N 	N 	0.13587 0.23473 0.33907 -0.22600
N 	N 	0.27354 0.13623 0.39569 -0.25800
N 	N 	0.23319 0.14933 0.37727 -0.22600
N 	N 	0.18948 0.15364 0.32970 -0.15300
N 	N 	0.18039 0.18807 0.34010 -0.15100
N 	N 	0.16477 0.17285 0.31030 -0.15500
N 	N 	0.14960 0.12139 0.27534 -0.23000
N 	N 	0.12278 0.09250 0.25126 -0.26200
N 	N 	0.09886 0.12494 0.22999 -0.22700
N 	N 	0.09440 0.17137 0.18603 -0.15100
S 	S 	0.29112 0.16525 0.42311 -0.06100
S 	S 	0.11570 0.05016 0.24509 -0.06200
C 	C 	0.14916 0.71878 0.83895 0.04100
H 	H 	0.15600 0.71540 0.85170 0.01100
C 	C 	0.15367 0.70684 0.82155 -0.05100
C 	C 	0.14400 0.71194 0.80267 0.00900
H 	H 	0.14660 0.70400 0.79040 0.03700
C 	C 	0.13056 0.72884 0.80240 -0.09900
H 	H 	0.12390 0.73290 0.78980 0.06600
C 	C 	0.12690 0.73985 0.82076 0.05900
H 	H 	0.11770 0.75150 0.82040 0.00000
C 	C 	0.28121 0.64828 0.90698 0.09600
C 	C 	0.23466 0.66482 0.89137 0.05600
H 	H 	0.24470 0.66360 0.90230 -0.00100
C 	C 	0.22205 0.68264 0.89056 -0.09800
H 	H 	0.22310 0.69300 0.90110 0.06500
C 	C 	0.20823 0.68501 0.87449 0.00900
H 	H 	0.19980 0.69720 0.87350 0.03700
C 	C 	0.20667 0.66906 0.85943 -0.05000
C 	C 	0.21935 0.65169 0.86174 0.03900
H 	H 	0.21820 0.64080 0.85170 0.01400
C 	C 	0.19153 0.67038 0.84209 0.13400
C 	C 	0.16730 0.68823 0.82381 0.13800
C 	C 	0.17578 0.65570 0.81447 0.14000
C 	C 	0.15435 0.63725 0.78758 0.04400
H 	H 	0.14560 0.64930 0.78720 0.00900
C 	C 	0.17164 0.63729 0.80122 -0.05300
C 	C 	0.18399 0.61928 0.80210 0.00800
H 	H 	0.19570 0.61850 0.81120 0.03800
C 	C 	0.17859 0.60256 0.78937 -0.09700
H 	H 	0.18660 0.59000 0.78970 0.06500
C 	C 	0.16158 0.60415 0.77623 0.05700
H 	H 	0.15820 0.59260 0.76750 0.00200
C 	C 	0.11991 0.57496 0.74874 0.10400
C 	C 	0.08293 0.61136 0.73240 0.06000
H 	H 	0.08410 0.60070 0.74270 0.00000
C 	C 	0.06527 0.61214 0.72075 -0.10000
H 	H 	0.05410 0.60270 0.72340 0.06800
C 	C 	0.06355 0.62702 0.70481 0.00800
H 	H 	0.05140 0.62780 0.69630 0.03800
C 	C 	0.08011 0.64067 0.70178 -0.05200
C 	C 	0.09741 0.63923 0.71504 0.04300
H 	H 	0.10860 0.64890 0.71330 0.01000
C 	C 	0.07939 0.65696 0.68567 0.13400
N 	N 	0.13587 0.73473 0.83907 -0.22600
N 	N 	0.27354 0.63623 0.89569 -0.25800
N 	N 	0.23319 0.64933 0.87727 -0.22600
N 	N 	0.18948 0.65364 0.82970 -0.15300
N 	N 	0.18039 0.68807 0.84010 -0.15100
N 	N 	0.16477 0.67285 0.81030 -0.15500
N 	N 	0.14960 0.62139 0.77534 -0.23000
N 	N 	0.12278 0.59250 0.75126 -0.26200
N 	N 	0.09886 0.62494 0.72999 -0.22700
N 	N 	0.09440 0.67137 0.68603 -0.15100
S 	S 	0.29112 0.66525 0.92311 -0.06100
S 	S 	0.11570 0.55016 0.74509 -0.06200
C 	C 	0.10084 0.03122 0.33895 0.04100
H 	H 	0.09400 0.03460 0.35170 0.01100
C 	C 	0.09633 0.04316 0.32155 -0.05100
C 	C 	0.10600 0.03806 0.30267 0.00800
H 	H 	0.10340 0.04600 0.29040 0.03700
C 	C 	0.11944 0.02116 0.30240 -0.09900
H 	H 	0.12610 0.01710 0.28980 0.06600
C 	C 	0.12310 0.01015 0.32076 0.05900
H 	H 	0.13230 0.99850 0.32040 0.00000
C 	C 	0.96879 0.10172 0.40698 0.09600
C 	C 	0.01534 0.08518 0.39137 0.05600
H 	H 	0.00530 0.08640 0.40230 -0.00100
C 	C 	0.02795 0.06736 0.39056 -0.09800
H 	H 	0.02690 0.05700 0.40110 0.06500
C 	C 	0.04177 0.06499 0.37449 0.00900
H 	H 	0.05020 0.05280 0.37350 0.03700
C 	C 	0.04333 0.08094 0.35943 -0.05000
C 	C 	0.03065 0.09831 0.36174 0.03900
H 	H 	0.03180 0.10920 0.35170 0.01400
C 	C 	0.05847 0.07962 0.34209 0.13400
C 	C 	0.08270 0.06177 0.32381 0.13800
C 	C 	0.07422 0.09430 0.31447 0.14000
C 	C 	0.09565 0.11275 0.28758 0.04400
H 	H 	0.10440 0.10070 0.28720 0.00900
C 	C 	0.07836 0.11271 0.30122 -0.05300
C 	C 	0.06601 0.13072 0.30210 0.00800
H 	H 	0.05430 0.13150 0.31120 0.03800
C 	C 	0.07141 0.14744 0.28937 -0.09700
H 	H 	0.06340 0.16000 0.28970 0.06500
C 	C 	0.08842 0.14585 0.27623 0.05700
H 	H 	0.09180 0.15740 0.26750 0.00200
C 	C 	0.13009 0.17504 0.24874 0.10400
C 	C 	0.16707 0.13864 0.23240 0.06000
H 	H 	0.16590 0.14930 0.24270 0.00000
C 	C 	0.18473 0.13786 0.22075 -0.10000
H 	H 	0.19590 0.14730 0.22340 0.06800
C 	C 	0.18645 0.12298 0.20481 0.00800
H 	H 	0.19860 0.12220 0.19630 0.03800
C 	C 	0.16989 0.10933 0.20178 -0.05200
C 	C 	0.15259 0.11077 0.21504 0.04300
H 	H 	0.14140 0.10110 0.21330 0.01000
C 	C 	0.17061 0.09304 0.18567 0.13400
N 	N 	0.11413 0.01527 0.33907 -0.22500
N 	N 	0.97646 0.11377 0.39569 -0.25800
N 	N 	0.01681 0.10067 0.37727 -0.22600
N 	N 	0.06052 0.09636 0.32970 -0.15300
N 	N 	0.06961 0.06193 0.34010 -0.15100
N 	N 	0.08523 0.07715 0.31030 -0.15500
N 	N 	0.10040 0.12861 0.27534 -0.23000
N 	N 	0.12722 0.15750 0.25126 -0.26200
N 	N 	0.15114 0.12506 0.22999 -0.22700
N 	N 	0.15560 0.07863 0.18603 -0.15100
S 	S 	0.95888 0.08475 0.42311 -0.06100
S 	S 	0.13430 0.19984 0.24509 -0.06200
C 	C 	0.10084 0.53122 0.83895 0.04100
H 	H 	0.09400 0.53460 0.85170 0.01100
C 	C 	0.09633 0.54316 0.82155 -0.05100
C 	C 	0.10600 0.53806 0.80267 0.00900
H 	H 	0.10340 0.54600 0.79040 0.03700
C 	C 	0.11944 0.52116 0.80240 -0.09900
H 	H 	0.12610 0.51710 0.78980 0.06600
C 	C 	0.12310 0.51015 0.82076 0.05900
H 	H 	0.13230 0.49850 0.82040 0.00000
C 	C 	0.96879 0.60172 0.90698 0.09600
C 	C 	0.01534 0.58518 0.89137 0.05600
H 	H 	0.00530 0.58640 0.90230 -0.00100
C 	C 	0.02795 0.56736 0.89056 -0.09800
H 	H 	0.02690 0.55700 0.90110 0.06500
C 	C 	0.04177 0.56499 0.87449 0.00900
H 	H 	0.05020 0.55280 0.87350 0.03700
C 	C 	0.04333 0.58094 0.85943 -0.05000
C 	C 	0.03065 0.59831 0.86174 0.03900
H 	H 	0.03180 0.60920 0.85170 0.01400
C 	C 	0.05847 0.57962 0.84209 0.13400
C 	C 	0.08270 0.56177 0.82381 0.13800
C 	C 	0.07422 0.59430 0.81447 0.14000
C 	C 	0.09565 0.61275 0.78758 0.04400
H 	H 	0.10440 0.60070 0.78720 0.00900
C 	C 	0.07836 0.61271 0.80122 -0.05300
C 	C 	0.06601 0.63072 0.80210 0.00800
H 	H 	0.05430 0.63150 0.81120 0.03800
C 	C 	0.07141 0.64744 0.78937 -0.09700
H 	H 	0.06340 0.66000 0.78970 0.06500
C 	C 	0.08842 0.64585 0.77623 0.05700
H 	H 	0.09180 0.65740 0.76750 0.00200
C 	C 	0.13009 0.67504 0.74874 0.10400
C 	C 	0.16707 0.63864 0.73240 0.06000
H 	H 	0.16590 0.64930 0.74270 0.00000
C 	C 	0.18473 0.63786 0.72075 -0.10000
H 	H 	0.19590 0.64730 0.72340 0.06800
C 	C 	0.18645 0.62298 0.70481 0.00800
H 	H 	0.19860 0.62220 0.69630 0.03800
C 	C 	0.16989 0.60933 0.70178 -0.05200
C 	C 	0.15259 0.61077 0.71504 0.04300
H 	H 	0.14140 0.60110 0.71330 0.01000
C 	C 	0.17061 0.59304 0.68567 0.13400
N 	N 	0.11413 0.51527 0.83907 -0.22600
N 	N 	0.97646 0.61377 0.89569 -0.25800
N 	N 	0.01681 0.60067 0.87727 -0.22600
N 	N 	0.06052 0.59636 0.82970 -0.15300
N 	N 	0.06961 0.56193 0.84010 -0.15100
N 	N 	0.08523 0.57715 0.81030 -0.15500
N 	N 	0.10040 0.62861 0.77534 -0.23000
N 	N 	0.12722 0.65750 0.75126 -0.26200
N 	N 	0.15114 0.62506 0.72999 -0.22700
N 	N 	0.15560 0.57863 0.68603 -0.15100
S 	S 	0.95888 0.58475 0.92311 -0.06100
S 	S 	0.13430 0.69984 0.74509 -0.06200
C 	C 	0.60084 0.03122 0.83895 0.04100
H 	H 	0.59400 0.03460 0.85170 0.01100
C 	C 	0.59633 0.04316 0.82155 -0.05100
C 	C 	0.60600 0.03806 0.80267 0.00800
H 	H 	0.60340 0.04600 0.79040 0.03700
C 	C 	0.61944 0.02116 0.80240 -0.09900
H 	H 	0.62610 0.01710 0.78980 0.06600
C 	C 	0.62310 0.01015 0.82076 0.05900
H 	H 	0.63230 0.99850 0.82040 0.00000
C 	C 	0.46879 0.10172 0.90698 0.09600
C 	C 	0.51534 0.08518 0.89137 0.05600
H 	H 	0.50530 0.08640 0.90230 -0.00100
C 	C 	0.52795 0.06736 0.89056 -0.09800
H 	H 	0.52690 0.05700 0.90110 0.06500
C 	C 	0.54177 0.06499 0.87449 0.00900
H 	H 	0.55020 0.05280 0.87350 0.03700
C 	C 	0.54333 0.08094 0.85943 -0.05000
C 	C 	0.53065 0.09831 0.86174 0.03900
H 	H 	0.53180 0.10920 0.85170 0.01400
C 	C 	0.55847 0.07962 0.84209 0.13400
C 	C 	0.58270 0.06177 0.82381 0.13800
C 	C 	0.57422 0.09430 0.81447 0.14000
C 	C 	0.59565 0.11275 0.78758 0.04400
H 	H 	0.60440 0.10070 0.78720 0.00900
C 	C 	0.57836 0.11271 0.80122 -0.05300
C 	C 	0.56601 0.13072 0.80210 0.00800
H 	H 	0.55430 0.13150 0.81120 0.03800
C 	C 	0.57141 0.14744 0.78937 -0.09700
H 	H 	0.56340 0.16000 0.78970 0.06500
C 	C 	0.58842 0.14585 0.77623 0.05700
H 	H 	0.59180 0.15740 0.76750 0.00200
C 	C 	0.63009 0.17504 0.74874 0.10400
C 	C 	0.66707 0.13864 0.73240 0.06000
H 	H 	0.66590 0.14930 0.74270 0.00000
C 	C 	0.68473 0.13786 0.72075 -0.10000
H 	H 	0.69590 0.14730 0.72340 0.06800
C 	C 	0.68645 0.12298 0.70481 0.00800
H 	H 	0.69860 0.12220 0.69630 0.03800
C 	C 	0.66989 0.10933 0.70178 -0.05200
C 	C 	0.65259 0.11077 0.71504 0.04300
H 	H 	0.64140 0.10110 0.71330 0.01000
C 	C 	0.67061 0.09304 0.68567 0.13400
N 	N 	0.61413 0.01527 0.83907 -0.22500
N 	N 	0.47646 0.11377 0.89569 -0.25800
N 	N 	0.51681 0.10067 0.87727 -0.22600
N 	N 	0.56052 0.09636 0.82970 -0.15300
N 	N 	0.56961 0.06193 0.84010 -0.15100
N 	N 	0.58523 0.07715 0.81030 -0.15500
N 	N 	0.60040 0.12861 0.77534 -0.23000
N 	N 	0.62722 0.15750 0.75126 -0.26200
N 	N 	0.65114 0.12506 0.72999 -0.22700
N 	N 	0.65560 0.07863 0.68603 -0.15100
S 	S 	0.45888 0.08475 0.92311 -0.06100
S 	S 	0.63430 0.19984 0.74509 -0.06200
C 	C 	0.60084 0.53122 0.33895 0.04100
H 	H 	0.59400 0.53460 0.35170 0.01100
C 	C 	0.59633 0.54316 0.32155 -0.05100
C 	C 	0.60600 0.53806 0.30267 0.00900
H 	H 	0.60340 0.54600 0.29040 0.03700
C 	C 	0.61944 0.52116 0.30240 -0.09900
H 	H 	0.62610 0.51710 0.28980 0.06600
C 	C 	0.62310 0.51015 0.32076 0.05900
H 	H 	0.63230 0.49850 0.32040 0.00000
C 	C 	0.46879 0.60172 0.40698 0.09600
C 	C 	0.51534 0.58518 0.39137 0.05600
H 	H 	0.50530 0.58640 0.40230 -0.00100
C 	C 	0.52795 0.56736 0.39056 -0.09800
H 	H 	0.52690 0.55700 0.40110 0.06500
C 	C 	0.54177 0.56499 0.37449 0.00900
H 	H 	0.55020 0.55280 0.37350 0.03700
C 	C 	0.54333 0.58094 0.35943 -0.05000
C 	C 	0.53065 0.59831 0.36174 0.03900
H 	H 	0.53180 0.60920 0.35170 0.01400
C 	C 	0.55847 0.57962 0.34209 0.13400
C 	C 	0.58270 0.56177 0.32381 0.13800
C 	C 	0.57422 0.59430 0.31447 0.14000
C 	C 	0.59565 0.61275 0.28758 0.04400
H 	H 	0.60440 0.60070 0.28720 0.00900
C 	C 	0.57836 0.61271 0.30122 -0.05300
C 	C 	0.56601 0.63072 0.30210 0.00800
H 	H 	0.55430 0.63150 0.31120 0.03800
C 	C 	0.57141 0.64744 0.28937 -0.09700
H 	H 	0.56340 0.66000 0.28970 0.06500
C 	C 	0.58842 0.64585 0.27623 0.05700
H 	H 	0.59180 0.65740 0.26750 0.00200
C 	C 	0.63009 0.67504 0.24874 0.10400
C 	C 	0.66707 0.63864 0.23240 0.06000
H 	H 	0.66590 0.64930 0.24270 0.00000
C 	C 	0.68473 0.63786 0.22075 -0.10000
H 	H 	0.69590 0.64730 0.22340 0.06800
C 	C 	0.68645 0.62298 0.20481 0.00800
H 	H 	0.69860 0.62220 0.19630 0.03800
C 	C 	0.66989 0.60933 0.20178 -0.05200
C 	C 	0.65259 0.61077 0.21504 0.04300
H 	H 	0.64140 0.60110 0.21330 0.01000
C 	C 	0.67061 0.59304 0.18567 0.13400
N 	N 	0.61413 0.51527 0.33907 -0.22600
N 	N 	0.47646 0.61377 0.39569 -0.25800
N 	N 	0.51681 0.60067 0.37727 -0.22600
N 	N 	0.56052 0.59636 0.32970 -0.15300
N 	N 	0.56961 0.56193 0.34010 -0.15100
N 	N 	0.58523 0.57715 0.31030 -0.15500
N 	N 	0.60040 0.62861 0.27534 -0.23000
N 	N 	0.62722 0.65750 0.25126 -0.26200
N 	N 	0.65114 0.62506 0.22999 -0.22700
N 	N 	0.65560 0.57863 0.18603 -0.15100
S 	S 	0.45888 0.58475 0.42311 -0.06100
S 	S 	0.63430 0.69984 0.24509 -0.06200
C 	C 	0.60084 0.71878 0.91105 0.04100
H 	H 	0.59400 0.71540 0.89830 0.01100
C 	C 	0.59633 0.70684 0.92845 -0.05100
C 	C 	0.60600 0.71194 0.94733 0.00900
H 	H 	0.60340 0.70400 0.95960 0.03700
C 	C 	0.61944 0.72884 0.94760 -0.09900
H 	H 	0.62610 0.73290 0.96020 0.06600
C 	C 	0.62310 0.73985 0.92924 0.05900
H 	H 	0.63230 0.75150 0.92960 0.00000
C 	C 	0.46879 0.64828 0.84302 0.09600
C 	C 	0.51534 0.66482 0.85863 0.05600
H 	H 	0.50530 0.66360 0.84770 -0.00100
C 	C 	0.52795 0.68264 0.85944 -0.09800
H 	H 	0.52690 0.69300 0.84890 0.06500
C 	C 	0.54177 0.68501 0.87551 0.00900
H 	H 	0.55020 0.69720 0.87650 0.03700
C 	C 	0.54333 0.66906 0.89057 -0.05000
C 	C 	0.53065 0.65169 0.88826 0.03900
H 	H 	0.53180 0.64080 0.89830 0.01400
C 	C 	0.55847 0.67038 0.90791 0.13400
C 	C 	0.58270 0.68823 0.92619 0.13800
C 	C 	0.57422 0.65570 0.93553 0.14000
C 	C 	0.59565 0.63725 0.96242 0.04400
H 	H 	0.60440 0.64930 0.96280 0.00900
C 	C 	0.57836 0.63729 0.94878 -0.05300
C 	C 	0.56601 0.61928 0.94790 0.00800
H 	H 	0.55430 0.61850 0.93880 0.03800
C 	C 	0.57141 0.60256 0.96063 -0.09700
H 	H 	0.56340 0.59000 0.96030 0.06500
C 	C 	0.58842 0.60415 0.97377 0.05700
H 	H 	0.59180 0.59260 0.98250 0.00200
C 	C 	0.63009 0.57496 0.00126 0.10400
C 	C 	0.66707 0.61136 0.01760 0.06000
H 	H 	0.66590 0.60070 0.00730 0.00000
C 	C 	0.68473 0.61214 0.02925 -0.10000
H 	H 	0.69590 0.60270 0.02660 0.06800
C 	C 	0.68645 0.62702 0.04519 0.00800
H 	H 	0.69860 0.62780 0.05370 0.03800
C 	C 	0.66989 0.64067 0.04822 -0.05200
C 	C 	0.65259 0.63923 0.03496 0.04300
H 	H 	0.64140 0.64890 0.03670 0.01000
C 	C 	0.67061 0.65696 0.06433 0.13400
N 	N 	0.61413 0.73473 0.91093 -0.22600
N 	N 	0.47646 0.63623 0.85431 -0.25800
N 	N 	0.51681 0.64933 0.87273 -0.22600
N 	N 	0.56052 0.65364 0.92030 -0.15300
N 	N 	0.56961 0.68807 0.90990 -0.15100
N 	N 	0.58523 0.67285 0.93970 -0.15500
N 	N 	0.60040 0.62139 0.97466 -0.23000
N 	N 	0.62722 0.59250 0.99874 -0.26200
N 	N 	0.65114 0.62494 0.02001 -0.22700
N 	N 	0.65560 0.67137 0.06397 -0.15100
S 	S 	0.45888 0.66525 0.82689 -0.06100
S 	S 	0.63430 0.55016 0.00491 -0.06200
C 	C 	0.60084 0.21878 0.41105 0.04100
H 	H 	0.59400 0.21540 0.39830 0.01100
C 	C 	0.59633 0.20684 0.42845 -0.05100
C 	C 	0.60600 0.21194 0.44733 0.00900
H 	H 	0.60340 0.20400 0.45960 0.03700
C 	C 	0.61944 0.22884 0.44760 -0.09900
H 	H 	0.62610 0.23290 0.46020 0.06600
C 	C 	0.62310 0.23985 0.42924 0.05900
H 	H 	0.63230 0.25150 0.42960 0.00000
C 	C 	0.46879 0.14828 0.34302 0.09600
C 	C 	0.51534 0.16482 0.35863 0.05600
H 	H 	0.50530 0.16360 0.34770 -0.00100
C 	C 	0.52795 0.18264 0.35944 -0.09800
H 	H 	0.52690 0.19300 0.34890 0.06500
C 	C 	0.54177 0.18501 0.37551 0.00900
H 	H 	0.55020 0.19720 0.37650 0.03700
C 	C 	0.54333 0.16906 0.39057 -0.05000
C 	C 	0.53065 0.15169 0.38826 0.03900
H 	H 	0.53180 0.14080 0.39830 0.01400
C 	C 	0.55847 0.17038 0.40791 0.13400
C 	C 	0.58270 0.18823 0.42619 0.13800
C 	C 	0.57422 0.15570 0.43553 0.14000
C 	C 	0.59565 0.13725 0.46242 0.04400
H 	H 	0.60440 0.14930 0.46280 0.00900
C 	C 	0.57836 0.13729 0.44878 -0.05300
C 	C 	0.56601 0.11928 0.44790 0.00800
H 	H 	0.55430 0.11850 0.43880 0.03800
C 	C 	0.57141 0.10256 0.46063 -0.09700
H 	H 	0.56340 0.09000 0.46030 0.06500
C 	C 	0.58842 0.10415 0.47377 0.05700
H 	H 	0.59180 0.09260 0.48250 0.00200
C 	C 	0.63009 0.07496 0.50126 0.10400
C 	C 	0.66707 0.11136 0.51760 0.06000
H 	H 	0.66590 0.10070 0.50730 0.00000
C 	C 	0.68473 0.11214 0.52925 -0.10000
H 	H 	0.69590 0.10270 0.52660 0.06800
C 	C 	0.68645 0.12702 0.54519 0.00800
H 	H 	0.69860 0.12780 0.55370 0.03800
C 	C 	0.66989 0.14067 0.54822 -0.05200
C 	C 	0.65259 0.13923 0.53496 0.04300
H 	H 	0.64140 0.14890 0.53670 0.01000
C 	C 	0.67061 0.15696 0.56433 0.13400
N 	N 	0.61413 0.23473 0.41093 -0.22600
N 	N 	0.47646 0.13623 0.35431 -0.25800
N 	N 	0.51681 0.14933 0.37273 -0.22600
N 	N 	0.56052 0.15364 0.42030 -0.15300
N 	N 	0.56961 0.18807 0.40990 -0.15100
N 	N 	0.58523 0.17285 0.43970 -0.15500
N 	N 	0.60040 0.12139 0.47466 -0.23000
N 	N 	0.62722 0.09250 0.49874 -0.26200
N 	N 	0.65114 0.12494 0.52001 -0.22700
N 	N 	0.65560 0.17137 0.56397 -0.15100
S 	S 	0.45888 0.16525 0.32689 -0.06100
S 	S 	0.63430 0.05016 0.50491 -0.06200
C 	C 	0.10084 0.71878 0.41105 0.04100
H 	H 	0.09400 0.71540 0.39830 0.01100
C 	C 	0.09633 0.70684 0.42845 -0.05100
C 	C 	0.10600 0.71194 0.44733 0.00900
H 	H 	0.10340 0.70400 0.45960 0.03700
C 	C 	0.11944 0.72884 0.44760 -0.09900
H 	H 	0.12610 0.73290 0.46020 0.06600
C 	C 	0.12310 0.73985 0.42924 0.05900
H 	H 	0.13230 0.75150 0.42960 0.00000
C 	C 	0.96879 0.64828 0.34302 0.09600
C 	C 	0.01534 0.66482 0.35863 0.05600
H 	H 	0.00530 0.66360 0.34770 -0.00100
C 	C 	0.02795 0.68264 0.35944 -0.09800
H 	H 	0.02690 0.69300 0.34890 0.06500
C 	C 	0.04177 0.68501 0.37551 0.00900
H 	H 	0.05020 0.69720 0.37650 0.03700
C 	C 	0.04333 0.66906 0.39057 -0.05000
C 	C 	0.03065 0.65169 0.38826 0.03900
H 	H 	0.03180 0.64080 0.39830 0.01400
C 	C 	0.05847 0.67038 0.40791 0.13400
C 	C 	0.08270 0.68823 0.42619 0.13800
C 	C 	0.07422 0.65570 0.43553 0.14000
C 	C 	0.09565 0.63725 0.46242 0.04400
H 	H 	0.10440 0.64930 0.46280 0.00900
C 	C 	0.07836 0.63729 0.44878 -0.05300
C 	C 	0.06601 0.61928 0.44790 0.00800
H 	H 	0.05430 0.61850 0.43880 0.03800
C 	C 	0.07141 0.60256 0.46063 -0.09700
H 	H 	0.06340 0.59000 0.46030 0.06500
C 	C 	0.08842 0.60415 0.47377 0.05700
H 	H 	0.09180 0.59260 0.48250 0.00200
C 	C 	0.13009 0.57496 0.50126 0.10400
C 	C 	0.16707 0.61136 0.51760 0.06000
H 	H 	0.16590 0.60070 0.50730 0.00000
C 	C 	0.18473 0.61214 0.52925 -0.10000
H 	H 	0.19590 0.60270 0.52660 0.06800
C 	C 	0.18645 0.62702 0.54519 0.00800
H 	H 	0.19860 0.62780 0.55370 0.03800
C 	C 	0.16989 0.64067 0.54822 -0.05200
C 	C 	0.15259 0.63923 0.53496 0.04300
H 	H 	0.14140 0.64890 0.53670 0.01000
C 	C 	0.17061 0.65696 0.56433 0.13400
N 	N 	0.11413 0.73473 0.41093 -0.22600
N 	N 	0.97646 0.63623 0.35431 -0.25800
N 	N 	0.01681 0.64933 0.37273 -0.22600
N 	N 	0.06052 0.65364 0.42030 -0.15300
N 	N 	0.06961 0.68807 0.40990 -0.15100
N 	N 	0.08523 0.67285 0.43970 -0.15500
N 	N 	0.10040 0.62139 0.47466 -0.23000
N 	N 	0.12722 0.59250 0.49874 -0.26200
N 	N 	0.15114 0.62494 0.52001 -0.22700
N 	N 	0.15560 0.67137 0.56397 -0.15100
S 	S 	0.95888 0.66525 0.32689 -0.06100
S 	S 	0.13430 0.55016 0.50491 -0.06200
C 	C 	0.10084 0.21878 0.91105 0.04100
H 	H 	0.09400 0.21540 0.89830 0.01100
C 	C 	0.09633 0.20684 0.92845 -0.05100
C 	C 	0.10600 0.21194 0.94733 0.00900
H 	H 	0.10340 0.20400 0.95960 0.03700
C 	C 	0.11944 0.22884 0.94760 -0.09900
H 	H 	0.12610 0.23290 0.96020 0.06600
C 	C 	0.12310 0.23985 0.92924 0.05900
H 	H 	0.13230 0.25150 0.92960 0.00000
C 	C 	0.96879 0.14828 0.84302 0.09600
C 	C 	0.01534 0.16482 0.85863 0.05600
H 	H 	0.00530 0.16360 0.84770 -0.00100
C 	C 	0.02795 0.18264 0.85944 -0.09800
H 	H 	0.02690 0.19300 0.84890 0.06500
C 	C 	0.04177 0.18501 0.87551 0.00900
H 	H 	0.05020 0.19720 0.87650 0.03700
C 	C 	0.04333 0.16906 0.89057 -0.05000
C 	C 	0.03065 0.15169 0.88826 0.03900
H 	H 	0.03180 0.14080 0.89830 0.01400
C 	C 	0.05847 0.17038 0.90791 0.13400
C 	C 	0.08270 0.18823 0.92619 0.13800
C 	C 	0.07422 0.15570 0.93553 0.14000
C 	C 	0.09565 0.13725 0.96242 0.04400
H 	H 	0.10440 0.14930 0.96280 0.00900
C 	C 	0.07836 0.13729 0.94878 -0.05300
C 	C 	0.06601 0.11928 0.94790 0.00800
H 	H 	0.05430 0.11850 0.93880 0.03800
C 	C 	0.07141 0.10256 0.96063 -0.09700
H 	H 	0.06340 0.09000 0.96030 0.06500
C 	C 	0.08842 0.10415 0.97377 0.05700
H 	H 	0.09180 0.09260 0.98250 0.00200
C 	C 	0.13009 0.07496 0.00126 0.10400
C 	C 	0.16707 0.11136 0.01760 0.06000
H 	H 	0.16590 0.10070 0.00730 0.00000
C 	C 	0.18473 0.11214 0.02925 -0.10000
H 	H 	0.19590 0.10270 0.02660 0.06800
C 	C 	0.18645 0.12702 0.04519 0.00800
H 	H 	0.19860 0.12780 0.05370 0.03800
C 	C 	0.16989 0.14067 0.04822 -0.05200
C 	C 	0.15259 0.13923 0.03496 0.04300
H 	H 	0.14140 0.14890 0.03670 0.01000
C 	C 	0.17061 0.15696 0.06433 0.13400
N 	N 	0.11413 0.23473 0.91093 -0.22600
N 	N 	0.97646 0.13623 0.85431 -0.25800
N 	N 	0.01681 0.14933 0.87273 -0.22600
N 	N 	0.06052 0.15364 0.92030 -0.15300
N 	N 	0.06961 0.18807 0.90990 -0.15100
N 	N 	0.08523 0.17285 0.93970 -0.15500
N 	N 	0.10040 0.12139 0.97466 -0.23000
N 	N 	0.12722 0.09250 0.99874 -0.26200
N 	N 	0.15114 0.12494 0.02001 -0.22700
N 	N 	0.15560 0.17137 0.06397 -0.15100
S 	S 	0.95888 0.16525 0.82689 -0.06100
S 	S 	0.13430 0.05016 0.00491 -0.06200
Co	Co	0.36952 0.11952 -0.00000 1.11900
Co	Co	0.36952 0.61952 0.50000 1.11900
Co	Co	0.86952 0.61952 -0.00000 1.11900
Co	Co	0.88048 0.63048 0.50000 1.11900
Co	Co	0.88048 0.13048 -0.00000 1.11900
Co	Co	0.38048 0.63048 -0.00000 1.11900
Co	Co	0.38048 0.61952 0.25000 1.11900
Co	Co	0.38048 0.11952 0.75000 1.11900
Co	Co	0.86952 0.13048 0.75000 1.11900
Co	Co	0.86952 0.63048 0.25000 1.11900
Co	Co	0.00000 0.36952 0.11952 1.11900
Co	Co	-0.00000 0.86952 0.61952 1.11900
Co	Co	0.50000 0.36952 0.61952 1.11900
Co	Co	0.50000 0.88048 0.63048 1.11900
Co	Co	0.00000 0.88048 0.13048 1.11900
Co	Co	-0.00000 0.38048 0.63048 1.11900
Co	Co	0.25000 0.38048 0.61952 1.11900
Co	Co	0.75000 0.38048 0.11952 1.11900
Co	Co	0.75000 0.86952 0.13048 1.11900
Co	Co	0.25000 0.86952 0.63048 1.11900
Co	Co	0.11952 0.00000 0.36952 1.11900
Co	Co	0.11952 0.50000 0.86952 1.11900
Co	Co	0.61952 0.00000 0.86952 1.11900
Co	Co	0.63048 0.50000 0.88048 1.11900
Co	Co	0.63048 -0.00000 0.38048 1.11900
Co	Co	0.61952 0.25000 0.38048 1.11900
Co	Co	0.61952 0.75000 0.88048 1.11900
Co	Co	0.11952 0.75000 0.38048 1.11900
Co	Co	0.13048 0.75000 0.86952 1.11900
Co	Co	0.13048 0.25000 0.36952 1.11900
Co	Co	0.86952 0.11952 0.50000 1.11900
Co	Co	0.38048 0.13048 0.50000 1.11900
Co	Co	0.36952 0.63048 0.75000 1.11900
Co	Co	0.36952 0.13048 0.25000 1.11900
Co	Co	0.88048 0.11952 0.25000 1.11900
Co	Co	0.88048 0.61952 0.75000 1.11900
Co	Co	0.11952 0.25000 0.88048 1.11900
Co	Co	0.63048 0.75000 0.36952 1.11900
Co	Co	0.63048 0.25000 0.86952 1.11900
Co	Co	0.13048 0.50000 0.38048 1.11900
Co	Co	0.13048 -0.00000 0.88048 1.11900
Co	Co	0.61952 0.50000 0.36952 1.11900
Co	Co	0.75000 0.36952 0.63048 1.11900
Co	Co	0.25000 0.36952 0.13048 1.11900
Co	Co	0.25000 0.88048 0.11952 1.11900
Co	Co	0.75000 0.88048 0.61952 1.11900
Co	Co	0.50000 0.86952 0.11952 1.11900
Co	Co	0.50000 0.38048 0.13048 1.11900
Co	Co	0.63048 0.88048 -0.00000 1.11900
Co	Co	0.63048 0.38048 0.50000 1.11900
Co	Co	0.13048 0.38048 -0.00000 1.11900
Co	Co	0.11952 0.36952 0.50000 1.11900
Co	Co	0.11952 0.86952 -0.00000 1.11900
Co	Co	0.61952 0.38048 0.75000 1.11900
Co	Co	0.61952 0.88048 0.25000 1.11900
Co	Co	0.13048 0.86952 0.25000 1.11900
Co	Co	0.13048 0.36952 0.75000 1.11900
Co	Co	0.63048 0.86952 0.75000 1.11900
Co	Co	-0.00000 0.63048 0.88048 1.11900
Co	Co	-0.00000 0.13048 0.38048 1.11900
Co	Co	0.50000 0.63048 0.38048 1.11900
Co	Co	0.50000 0.11952 0.36952 1.11900
Co	Co	-0.00000 0.11952 0.86952 1.11900
Co	Co	0.75000 0.61952 0.38048 1.11900
Co	Co	0.25000 0.61952 0.88048 1.11900
Co	Co	0.25000 0.13048 0.86952 1.11900
Co	Co	0.75000 0.13048 0.36952 1.11900
Co	Co	0.75000 0.63048 0.86952 1.11900
Co	Co	0.88048 0.00000 0.63048 1.11900
Co	Co	0.88048 0.50000 0.13048 1.11900
Co	Co	0.38048 0.00000 0.13048 1.11900
Co	Co	0.36952 0.50000 0.11952 1.11900
Co	Co	0.36952 -0.00000 0.61952 1.11900
Co	Co	0.86952 0.00000 0.11952 1.11900
Co	Co	0.38048 0.75000 0.61952 1.11900
Co	Co	0.38048 0.25000 0.11952 1.11900
Co	Co	0.86952 0.25000 0.13048 1.11900
Co	Co	0.86952 0.75000 0.63048 1.11900
Co	Co	0.13048 0.88048 0.50000 1.11900
Co	Co	0.61952 0.86952 0.50000 1.11900
Co	Co	0.61952 0.36952 -0.00000 1.11900
Co	Co	0.63048 0.36952 0.25000 1.11900
Co	Co	0.11952 0.88048 0.75000 1.11900
Co	Co	0.11952 0.38048 0.25000 1.11900
Co	Co	0.88048 0.75000 0.11952 1.11900
Co	Co	0.88048 0.25000 0.61952 1.11900
Co	Co	0.36952 0.25000 0.63048 1.11900
Co	Co	0.36952 0.75000 0.13048 1.11900
Co	Co	0.86952 0.50000 0.61952 1.11900
Co	Co	0.38048 0.50000 0.63048 1.11900
Co	Co	0.25000 0.63048 0.36952 1.11900
Co	Co	0.75000 0.11952 0.88048 1.11900
Co	Co	0.25000 0.11952 0.38048 1.11900
Co	Co	0.50000 0.13048 0.88048 1.11900
Co	Co	0.50000 0.61952 0.86952 1.11900
Co	Co	-0.00000 0.61952 0.36952 1.11900
Co	Co	0.49781 0.12500 0.12500 1.12200
Co	Co	0.49781 0.62500 0.62500 1.12200
Co	Co	0.99781 0.12500 0.62500 1.12200
Co	Co	0.75219 0.62500 0.62500 1.12200
Co	Co	0.75219 0.12500 0.12500 1.12200
Co	Co	0.25219 0.12500 0.62500 1.12200
Co	Co	0.25219 0.62500 0.12500 1.12200
Co	Co	0.99781 0.62500 0.12500 1.12200
Co	Co	0.12500 0.49781 0.12500 1.12200
Co	Co	0.12500 0.99781 0.62500 1.12200
Co	Co	0.62500 0.99781 0.12500 1.12200
Co	Co	0.62500 0.75219 0.62500 1.12200
Co	Co	0.62500 0.25219 0.12500 1.12200
Co	Co	0.12500 0.25219 0.62500 1.12200
Co	Co	0.12500 0.75219 0.12500 1.12200
Co	Co	0.62500 0.49781 0.62500 1.12200
Co	Co	0.12500 0.12500 0.49781 1.12200
Co	Co	0.12500 0.62500 0.99781 1.12200
Co	Co	0.62500 0.12500 0.99781 1.12200
Co	Co	0.62500 0.62500 0.75219 1.12200
Co	Co	0.12500 0.62500 0.25219 1.12200
Co	Co	0.62500 0.12500 0.25219 1.12200
Co	Co	0.12500 0.12500 0.75219 1.12200
Co	Co	0.62500 0.62500 0.49781 1.12200
Co	Co	0.87500 0.74781 0.87500 1.12200
Co	Co	0.37500 0.74781 0.37500 1.12200
Co	Co	0.37500 0.00219 0.37500 1.12200
Co	Co	0.87500 0.00219 0.87500 1.12200
Co	Co	0.37500 0.50219 0.87500 1.12200
Co	Co	0.87500 0.50219 0.37500 1.12200
Co	Co	0.87500 0.24781 0.37500 1.12200
Co	Co	0.37500 0.24781 0.87500 1.12200
Co	Co	0.24781 0.37500 0.87500 1.12200
Co	Co	0.24781 0.87500 0.37500 1.12200
Co	Co	0.50219 0.87500 0.37500 1.12200
Co	Co	0.50219 0.37500 0.87500 1.12200
Co	Co	0.00219 0.87500 0.87500 1.12200
Co	Co	0.00219 0.37500 0.37500 1.12200
Co	Co	0.74781 0.87500 0.87500 1.12200
Co	Co	0.74781 0.37500 0.37500 1.12200
Co	Co	0.87500 0.37500 0.50219 1.12200
Co	Co	0.87500 0.87500 0.00219 1.12200
Co	Co	0.37500 0.87500 0.24781 1.12200
Co	Co	0.37500 0.37500 0.74781 1.12200
Co	Co	0.87500 0.87500 0.74781 1.12200
Co	Co	0.87500 0.37500 0.24781 1.12200
Co	Co	0.37500 0.37500 0.00219 1.12200
Co	Co	0.37500 0.87500 0.50219 1.12200
Co	Co	0.50219 0.87500 0.87500 1.12200
Co	Co	0.50219 0.37500 0.37500 1.12200
Co	Co	0.24781 0.37500 0.37500 1.12200
Co	Co	0.24781 0.87500 0.87500 1.12200
Co	Co	0.74781 0.37500 0.87500 1.12200
Co	Co	0.74781 0.87500 0.37500 1.12200
Co	Co	0.00219 0.87500 0.37500 1.12200
Co	Co	0.00219 0.37500 0.87500 1.12200
Co	Co	0.87500 0.50219 0.87500 1.12200
Co	Co	0.87500 0.00219 0.37500 1.12200
Co	Co	0.37500 0.24781 0.37500 1.12200
Co	Co	0.37500 0.74781 0.87500 1.12200
Co	Co	0.87500 0.24781 0.87500 1.12200
Co	Co	0.87500 0.74781 0.37500 1.12200
Co	Co	0.37500 0.00219 0.87500 1.12200
Co	Co	0.37500 0.50219 0.37500 1.12200
Co	Co	0.87500 0.87500 0.50219 1.12200
Co	Co	0.37500 0.87500 0.00219 1.12200
Co	Co	0.37500 0.37500 0.24781 1.12200
Co	Co	0.87500 0.37500 0.74781 1.12200
Co	Co	0.87500 0.87500 0.24781 1.12200
Co	Co	0.37500 0.87500 0.74781 1.12200
Co	Co	0.87500 0.37500 0.00219 1.12200
Co	Co	0.37500 0.37500 0.50219 1.12200
Co	Co	0.12500 0.25219 0.12500 1.12200
Co	Co	0.62500 0.25219 0.62500 1.12200
Co	Co	0.62500 0.99781 0.62500 1.12200
Co	Co	0.12500 0.99781 0.12500 1.12200
Co	Co	0.62500 0.49781 0.12500 1.12200
Co	Co	0.12500 0.49781 0.62500 1.12200
Co	Co	0.12500 0.75219 0.62500 1.12200
Co	Co	0.62500 0.75219 0.12500 1.12200
Co	Co	0.75219 0.62500 0.12500 1.12200
Co	Co	0.75219 0.12500 0.62500 1.12200
Co	Co	0.25219 0.62500 0.62500 1.12200
Co	Co	0.49781 0.12500 0.62500 1.12200
Co	Co	0.49781 0.62500 0.12500 1.12200
Co	Co	0.99781 0.62500 0.62500 1.12200
Co	Co	0.99781 0.12500 0.12500 1.12200
Co	Co	0.25219 0.12500 0.12500 1.12200
Co	Co	0.12500 0.62500 0.49781 1.12200
Co	Co	0.12500 0.12500 0.99781 1.12200
Co	Co	0.62500 0.62500 0.99781 1.12200
Co	Co	0.62500 0.12500 0.75219 1.12200
Co	Co	0.62500 0.62500 0.25219 1.12200
Co	Co	0.12500 0.12500 0.25219 1.12200
Co	Co	0.12500 0.62500 0.75219 1.12200
Co	Co	0.62500 0.12500 0.49781 1.12200
