data_crystal

_cell_length_a 64.23500
_cell_length_b 64.23500
_cell_length_c 64.23500
_cell_angle_alpha 90.00000
_cell_angle_beta  90.00000
_cell_angle_gamma 90.00000

_symmetry_space_group_name_	'P 1'
_symmetry_space_group_name_H-M	'P 1'

loop_
_symmetry_equiv_pos_as_xyz
  x,y,z

loop_
_atom_site_label
_atom_site_type_symbol
_atom_site_fract_x
_atom_site_fract_y
_atom_site_fract_z
_atom_site_charge
C 	C 	0.53178 0.33990 0.10166 0.03600
H 	H 	0.53490 0.35240 0.09430 0.01200
C 	C 	0.54417 0.32273 0.09811 -0.05300
C 	C 	0.53951 0.30437 0.10817 0.00900
H 	H 	0.54810 0.29240 0.10660 0.03600
C 	C 	0.52202 0.30383 0.12062 -0.10100
H 	H 	0.51760 0.29110 0.12670 0.06500
C 	C 	0.51099 0.32171 0.12422 0.05700
H 	H 	0.49960 0.32120 0.13370 0.00000
C 	C 	0.60151 0.40658 0.96900 0.09700
C 	C 	0.58516 0.39067 0.01673 0.06400
H 	H 	0.58600 0.40120 0.00640 -0.00400
C 	C 	0.56830 0.39077 0.02959 -0.10800
H 	H 	0.55820 0.40150 0.02870 0.06700
C 	C 	0.56624 0.37495 0.04389 0.01300
H 	H 	0.55470 0.37450 0.05310 0.03400
C 	C 	0.58154 0.35954 0.04454 -0.05600
C 	C 	0.59801 0.36115 0.03115 0.04200
H 	H 	0.60820 0.35050 0.03150 0.01200
C 	C 	0.58004 0.34207 0.05983 0.14100
C 	C 	0.59503 0.31478 0.07570 0.13500
C 	C 	0.56253 0.32474 0.08463 0.13800
C 	C 	0.61283 0.28764 0.09659 0.04700
H 	H 	0.60100 0.28740 0.10540 0.00800
C 	C 	0.61298 0.30177 0.07962 -0.05900
C 	C 	0.63086 0.30276 0.06788 0.01700
H 	H 	0.63190 0.31230 0.05670 0.03400
C 	C 	0.64724 0.28981 0.07249 -0.11100
H 	H 	0.65980 0.29040 0.06480 0.07000
C 	C 	0.64493 0.27587 0.08862 0.06800
H 	H 	0.65600 0.26640 0.09120 -0.00300
C 	C 	0.57552 0.24890 0.12190 0.10700
C 	C 	0.63780 0.23247 0.16748 0.05100
H 	H 	0.64790 0.24320 0.16650 0.00200
C 	C 	0.63726 0.22106 0.18479 -0.09700
H 	H 	0.64720 0.22330 0.19550 0.06500
C 	C 	0.62179 0.20561 0.18705 0.00400
H 	H 	0.62070 0.19760 0.19940 0.03800
C 	C 	0.60827 0.20256 0.17042 -0.05400
C 	C 	0.61005 0.21521 0.15304 0.04500
H 	H 	0.60030 0.21340 0.14210 0.01000
C 	C 	0.59207 0.18677 0.17139 0.13200
N 	N 	0.51561 0.34003 0.11490 -0.22500
N 	N 	0.61325 0.39535 0.97691 -0.26100
N 	N 	0.60068 0.37672 0.01757 -0.23000
N 	N 	0.56309 0.34057 0.07092 -0.15600
N 	N 	0.59658 0.32977 0.06142 -0.15400
N 	N 	0.57774 0.31151 0.08754 -0.15300
N 	N 	0.62827 0.27488 0.10074 -0.23500
N 	N 	0.62452 0.22967 0.15084 -0.22700
N 	N 	0.59297 0.25102 0.12293 -0.26800
N 	N 	0.57751 0.18687 0.15657 -0.15100
S 	S 	0.58435 0.42257 0.95983 -0.06400
S 	S 	0.54975 0.24641 0.12079 -0.06200
C 	C 	0.53178 0.83990 0.60166 0.03700
H 	H 	0.53490 0.85240 0.59430 0.01300
C 	C 	0.54417 0.82273 0.59811 -0.05200
C 	C 	0.53951 0.80437 0.60817 0.01000
H 	H 	0.54810 0.79240 0.60660 0.03700
C 	C 	0.52202 0.80383 0.62062 -0.10000
H 	H 	0.51760 0.79110 0.62670 0.06600
C 	C 	0.51099 0.82171 0.62422 0.05800
H 	H 	0.49960 0.82120 0.63370 0.00100
C 	C 	0.60151 0.90658 0.46900 0.09800
C 	C 	0.58516 0.89067 0.51673 0.06500
H 	H 	0.58600 0.90120 0.50640 -0.00300
C 	C 	0.56830 0.89077 0.52959 -0.10700
H 	H 	0.55820 0.90150 0.52870 0.06800
C 	C 	0.56624 0.87495 0.54389 0.01400
H 	H 	0.55470 0.87450 0.55310 0.03500
C 	C 	0.58154 0.85954 0.54454 -0.05500
C 	C 	0.59801 0.86115 0.53115 0.04300
H 	H 	0.60820 0.85050 0.53150 0.01300
C 	C 	0.58004 0.84207 0.55983 0.14200
C 	C 	0.59503 0.81478 0.57570 0.13600
C 	C 	0.56253 0.82474 0.58463 0.13900
C 	C 	0.61283 0.78764 0.59659 0.04800
H 	H 	0.60100 0.78740 0.60540 0.00900
C 	C 	0.61298 0.80177 0.57962 -0.05800
C 	C 	0.63086 0.80276 0.56788 0.01800
H 	H 	0.63190 0.81230 0.55670 0.03500
C 	C 	0.64724 0.78981 0.57249 -0.11000
H 	H 	0.65980 0.79040 0.56480 0.07100
C 	C 	0.64493 0.77587 0.58862 0.06900
H 	H 	0.65600 0.76640 0.59120 -0.00200
C 	C 	0.57552 0.74890 0.62190 0.10800
C 	C 	0.63780 0.73247 0.66748 0.05200
H 	H 	0.64790 0.74320 0.66650 0.00300
C 	C 	0.63726 0.72106 0.68479 -0.09600
H 	H 	0.64720 0.72330 0.69550 0.06600
C 	C 	0.62179 0.70561 0.68705 0.00500
H 	H 	0.62070 0.69760 0.69940 0.03900
C 	C 	0.60827 0.70256 0.67042 -0.05300
C 	C 	0.61005 0.71521 0.65304 0.04600
H 	H 	0.60030 0.71340 0.64210 0.01100
C 	C 	0.59207 0.68677 0.67139 0.13300
N 	N 	0.51561 0.84003 0.61490 -0.22400
N 	N 	0.61325 0.89535 0.47691 -0.26000
N 	N 	0.60068 0.87672 0.51757 -0.22900
N 	N 	0.56309 0.84057 0.57092 -0.15500
N 	N 	0.59658 0.82977 0.56142 -0.15300
N 	N 	0.57774 0.81151 0.58754 -0.15200
N 	N 	0.62827 0.77488 0.60074 -0.23400
N 	N 	0.62452 0.72967 0.65084 -0.22600
N 	N 	0.59297 0.75102 0.62293 -0.26700
N 	N 	0.57751 0.68687 0.65657 -0.15000
S 	S 	0.58435 0.92257 0.45983 -0.06300
S 	S 	0.54975 0.74641 0.62079 -0.06100
C 	C 	0.03178 0.33990 0.60166 0.03700
H 	H 	0.03490 0.35240 0.59430 0.01300
C 	C 	0.04417 0.32273 0.59811 -0.05200
C 	C 	0.03951 0.30437 0.60817 0.01000
H 	H 	0.04810 0.29240 0.60660 0.03700
C 	C 	0.02202 0.30383 0.62062 -0.10000
H 	H 	0.01760 0.29110 0.62670 0.06600
C 	C 	0.01099 0.32171 0.62422 0.05800
H 	H 	0.99960 0.32120 0.63370 0.00100
C 	C 	0.10151 0.40658 0.46900 0.09800
C 	C 	0.08516 0.39067 0.51673 0.06500
H 	H 	0.08600 0.40120 0.50640 -0.00300
C 	C 	0.06830 0.39077 0.52959 -0.10700
H 	H 	0.05820 0.40150 0.52870 0.06800
C 	C 	0.06624 0.37495 0.54389 0.01400
H 	H 	0.05470 0.37450 0.55310 0.03500
C 	C 	0.08154 0.35954 0.54454 -0.05500
C 	C 	0.09801 0.36115 0.53115 0.04300
H 	H 	0.10820 0.35050 0.53150 0.01300
C 	C 	0.08004 0.34207 0.55983 0.14200
C 	C 	0.09503 0.31478 0.57570 0.13600
C 	C 	0.06253 0.32474 0.58463 0.13900
C 	C 	0.11283 0.28764 0.59659 0.04800
H 	H 	0.10100 0.28740 0.60540 0.00900
C 	C 	0.11298 0.30177 0.57962 -0.05800
C 	C 	0.13086 0.30276 0.56788 0.01800
H 	H 	0.13190 0.31230 0.55670 0.03500
C 	C 	0.14724 0.28981 0.57249 -0.11000
H 	H 	0.15980 0.29040 0.56480 0.07100
C 	C 	0.14493 0.27587 0.58862 0.06900
H 	H 	0.15600 0.26640 0.59120 -0.00200
C 	C 	0.07552 0.24890 0.62190 0.10800
C 	C 	0.13780 0.23247 0.66748 0.05200
H 	H 	0.14790 0.24320 0.66650 0.00300
C 	C 	0.13726 0.22106 0.68479 -0.09600
H 	H 	0.14720 0.22330 0.69550 0.06600
C 	C 	0.12179 0.20561 0.68705 0.00500
H 	H 	0.12070 0.19760 0.69940 0.03900
C 	C 	0.10827 0.20256 0.67042 -0.05300
C 	C 	0.11005 0.21521 0.65304 0.04600
H 	H 	0.10030 0.21340 0.64210 0.01100
C 	C 	0.09207 0.18677 0.67139 0.13300
N 	N 	0.01561 0.34003 0.61490 -0.22400
N 	N 	0.11325 0.39535 0.47691 -0.26000
N 	N 	0.10068 0.37672 0.51757 -0.22900
N 	N 	0.06309 0.34057 0.57092 -0.15500
N 	N 	0.09658 0.32977 0.56142 -0.15300
N 	N 	0.07774 0.31151 0.58754 -0.15200
N 	N 	0.12827 0.27488 0.60074 -0.23400
N 	N 	0.12452 0.22967 0.65084 -0.22600
N 	N 	0.09297 0.25102 0.62293 -0.26700
N 	N 	0.07751 0.18687 0.65657 -0.15000
S 	S 	0.08435 0.42257 0.45983 -0.06300
S 	S 	0.04975 0.24641 0.62079 -0.06100
C 	C 	0.03178 0.83990 0.10166 0.03700
H 	H 	0.03490 0.85240 0.09430 0.01300
C 	C 	0.04417 0.82273 0.09811 -0.05200
C 	C 	0.03951 0.80437 0.10817 0.01000
H 	H 	0.04810 0.79240 0.10660 0.03700
C 	C 	0.02202 0.80383 0.12062 -0.10000
H 	H 	0.01760 0.79110 0.12670 0.06600
C 	C 	0.01099 0.82171 0.12422 0.05800
H 	H 	0.99960 0.82120 0.13370 0.00100
C 	C 	0.10151 0.90658 0.96900 0.09800
C 	C 	0.08516 0.89067 0.01673 0.06500
H 	H 	0.08600 0.90120 0.00640 -0.00300
C 	C 	0.06830 0.89077 0.02959 -0.10700
H 	H 	0.05820 0.90150 0.02870 0.06800
C 	C 	0.06624 0.87495 0.04389 0.01400
H 	H 	0.05470 0.87450 0.05310 0.03500
C 	C 	0.08154 0.85954 0.04454 -0.05500
C 	C 	0.09801 0.86115 0.03115 0.04300
H 	H 	0.10820 0.85050 0.03150 0.01300
C 	C 	0.08004 0.84207 0.05983 0.14200
C 	C 	0.09503 0.81478 0.07570 0.13600
C 	C 	0.06253 0.82474 0.08463 0.13900
C 	C 	0.11283 0.78764 0.09659 0.04800
H 	H 	0.10100 0.78740 0.10540 0.00900
C 	C 	0.11298 0.80177 0.07962 -0.05800
C 	C 	0.13086 0.80276 0.06788 0.01800
H 	H 	0.13190 0.81230 0.05670 0.03500
C 	C 	0.14724 0.78981 0.07249 -0.11000
H 	H 	0.15980 0.79040 0.06480 0.07100
C 	C 	0.14493 0.77587 0.08862 0.06900
H 	H 	0.15600 0.76640 0.09120 -0.00200
C 	C 	0.07552 0.74890 0.12190 0.10800
C 	C 	0.13780 0.73247 0.16748 0.05200
H 	H 	0.14790 0.74320 0.16650 0.00300
C 	C 	0.13726 0.72106 0.18479 -0.09600
H 	H 	0.14720 0.72330 0.19550 0.06600
C 	C 	0.12179 0.70561 0.18705 0.00500
H 	H 	0.12070 0.69760 0.19940 0.03900
C 	C 	0.10827 0.70256 0.17042 -0.05300
C 	C 	0.11005 0.71521 0.15304 0.04600
H 	H 	0.10030 0.71340 0.14210 0.01100
C 	C 	0.09207 0.68677 0.17139 0.13300
N 	N 	0.01561 0.84003 0.11490 -0.22400
N 	N 	0.11325 0.89535 0.97691 -0.26000
N 	N 	0.10068 0.87672 0.01757 -0.22900
N 	N 	0.06309 0.84057 0.07092 -0.15500
N 	N 	0.09658 0.82977 0.06142 -0.15300
N 	N 	0.07774 0.81151 0.08754 -0.15200
N 	N 	0.12827 0.77488 0.10074 -0.23400
N 	N 	0.12452 0.72967 0.15084 -0.22600
N 	N 	0.09297 0.75102 0.12293 -0.26700
N 	N 	0.07751 0.68687 0.15657 -0.15000
S 	S 	0.08435 0.92257 0.95983 -0.06300
S 	S 	0.04975 0.74641 0.12079 -0.06100
C 	C 	0.71822 0.41010 0.60166 0.03700
H 	H 	0.71510 0.39760 0.59430 0.01300
C 	C 	0.70583 0.42727 0.59811 -0.05200
C 	C 	0.71049 0.44563 0.60817 0.01000
H 	H 	0.70190 0.45760 0.60660 0.03700
C 	C 	0.72798 0.44617 0.62062 -0.10000
H 	H 	0.73240 0.45890 0.62670 0.06600
C 	C 	0.73901 0.42829 0.62422 0.05800
H 	H 	0.75040 0.42880 0.63370 0.00100
C 	C 	0.64849 0.34342 0.46900 0.09800
C 	C 	0.66484 0.35933 0.51673 0.06500
H 	H 	0.66400 0.34880 0.50640 -0.00300
C 	C 	0.68170 0.35923 0.52959 -0.10700
H 	H 	0.69180 0.34850 0.52870 0.06800
C 	C 	0.68376 0.37505 0.54389 0.01400
H 	H 	0.69530 0.37550 0.55310 0.03500
C 	C 	0.66846 0.39046 0.54454 -0.05500
C 	C 	0.65199 0.38885 0.53115 0.04300
H 	H 	0.64180 0.39950 0.53150 0.01300
C 	C 	0.66996 0.40793 0.55983 0.14200
C 	C 	0.65497 0.43522 0.57570 0.13600
C 	C 	0.68747 0.42526 0.58463 0.13900
C 	C 	0.63717 0.46236 0.59659 0.04800
H 	H 	0.64900 0.46260 0.60540 0.00900
C 	C 	0.63702 0.44823 0.57962 -0.05800
C 	C 	0.61914 0.44724 0.56788 0.01800
H 	H 	0.61810 0.43770 0.55670 0.03500
C 	C 	0.60276 0.46019 0.57249 -0.11000
H 	H 	0.59020 0.45960 0.56480 0.07100
C 	C 	0.60507 0.47413 0.58862 0.06900
H 	H 	0.59400 0.48360 0.59120 -0.00200
C 	C 	0.67448 0.50110 0.62190 0.10800
C 	C 	0.61220 0.51753 0.66748 0.05200
H 	H 	0.60210 0.50680 0.66650 0.00300
C 	C 	0.61274 0.52894 0.68479 -0.09600
H 	H 	0.60280 0.52670 0.69550 0.06600
C 	C 	0.62821 0.54439 0.68705 0.00500
H 	H 	0.62930 0.55240 0.69940 0.03900
C 	C 	0.64173 0.54744 0.67042 -0.05300
C 	C 	0.63995 0.53479 0.65304 0.04600
H 	H 	0.64970 0.53660 0.64210 0.01100
C 	C 	0.65793 0.56323 0.67139 0.13300
N 	N 	0.73439 0.40997 0.61490 -0.22400
N 	N 	0.63675 0.35465 0.47691 -0.26000
N 	N 	0.64932 0.37328 0.51757 -0.22900
N 	N 	0.68691 0.40943 0.57092 -0.15500
N 	N 	0.65342 0.42023 0.56142 -0.15300
N 	N 	0.67226 0.43849 0.58754 -0.15200
N 	N 	0.62173 0.47512 0.60074 -0.23400
N 	N 	0.62548 0.52033 0.65084 -0.22600
N 	N 	0.65703 0.49898 0.62293 -0.26700
N 	N 	0.67249 0.56313 0.65657 -0.15000
S 	S 	0.66565 0.32743 0.45983 -0.06300
S 	S 	0.70025 0.50359 0.62079 -0.06100
C 	C 	0.71822 0.91010 0.10166 0.03700
H 	H 	0.71510 0.89760 0.09430 0.01300
C 	C 	0.70583 0.92727 0.09811 -0.05200
C 	C 	0.71049 0.94563 0.10817 0.01000
H 	H 	0.70190 0.95760 0.10660 0.03700
C 	C 	0.72798 0.94617 0.12062 -0.10000
H 	H 	0.73240 0.95890 0.12670 0.06600
C 	C 	0.73901 0.92829 0.12422 0.05800
H 	H 	0.75040 0.92880 0.13370 0.00100
C 	C 	0.64849 0.84342 0.96900 0.09800
C 	C 	0.66484 0.85933 0.01673 0.06500
H 	H 	0.66400 0.84880 0.00640 -0.00300
C 	C 	0.68170 0.85923 0.02959 -0.10700
H 	H 	0.69180 0.84850 0.02870 0.06800
C 	C 	0.68376 0.87505 0.04389 0.01400
H 	H 	0.69530 0.87550 0.05310 0.03500
C 	C 	0.66846 0.89046 0.04454 -0.05500
C 	C 	0.65199 0.88885 0.03115 0.04300
H 	H 	0.64180 0.89950 0.03150 0.01300
C 	C 	0.66996 0.90793 0.05983 0.14200
C 	C 	0.65497 0.93522 0.07570 0.13600
C 	C 	0.68747 0.92526 0.08463 0.13900
C 	C 	0.63717 0.96236 0.09659 0.04800
H 	H 	0.64900 0.96260 0.10540 0.00900
C 	C 	0.63702 0.94823 0.07962 -0.05800
C 	C 	0.61914 0.94724 0.06788 0.01800
H 	H 	0.61810 0.93770 0.05670 0.03500
C 	C 	0.60276 0.96019 0.07249 -0.11000
H 	H 	0.59020 0.95960 0.06480 0.07100
C 	C 	0.60507 0.97413 0.08862 0.06900
H 	H 	0.59400 0.98360 0.09120 -0.00200
C 	C 	0.67448 0.00110 0.12190 0.10800
C 	C 	0.61220 0.01753 0.16748 0.05200
H 	H 	0.60210 0.00680 0.16650 0.00300
C 	C 	0.61274 0.02894 0.18479 -0.09600
H 	H 	0.60280 0.02670 0.19550 0.06600
C 	C 	0.62821 0.04439 0.18705 0.00500
H 	H 	0.62930 0.05240 0.19940 0.03900
C 	C 	0.64173 0.04744 0.17042 -0.05300
C 	C 	0.63995 0.03479 0.15304 0.04600
H 	H 	0.64970 0.03660 0.14210 0.01100
C 	C 	0.65793 0.06323 0.17139 0.13300
N 	N 	0.73439 0.90997 0.11490 -0.22400
N 	N 	0.63675 0.85465 0.97691 -0.26000
N 	N 	0.64932 0.87328 0.01757 -0.22900
N 	N 	0.68691 0.90943 0.07092 -0.15500
N 	N 	0.65342 0.92023 0.06142 -0.15300
N 	N 	0.67226 0.93849 0.08754 -0.15200
N 	N 	0.62173 0.97512 0.10074 -0.23400
N 	N 	0.62548 0.02033 0.15084 -0.22600
N 	N 	0.65703 0.99898 0.12293 -0.26700
N 	N 	0.67249 0.06313 0.15657 -0.15000
S 	S 	0.66565 0.82743 0.95983 -0.06300
S 	S 	0.70025 0.00359 0.12079 -0.06100
C 	C 	0.21822 0.41010 0.10166 0.03700
H 	H 	0.21510 0.39760 0.09430 0.01300
C 	C 	0.20583 0.42727 0.09811 -0.05200
C 	C 	0.21049 0.44563 0.10817 0.01000
H 	H 	0.20190 0.45760 0.10660 0.03700
C 	C 	0.22798 0.44617 0.12062 -0.10000
H 	H 	0.23240 0.45890 0.12670 0.06600
C 	C 	0.23901 0.42829 0.12422 0.05800
H 	H 	0.25040 0.42880 0.13370 0.00100
C 	C 	0.14849 0.34342 0.96900 0.09800
C 	C 	0.16484 0.35933 0.01673 0.06500
H 	H 	0.16400 0.34880 0.00640 -0.00300
C 	C 	0.18170 0.35923 0.02959 -0.10700
H 	H 	0.19180 0.34850 0.02870 0.06800
C 	C 	0.18376 0.37505 0.04389 0.01400
H 	H 	0.19530 0.37550 0.05310 0.03500
C 	C 	0.16846 0.39046 0.04454 -0.05500
C 	C 	0.15199 0.38885 0.03115 0.04300
H 	H 	0.14180 0.39950 0.03150 0.01300
C 	C 	0.16996 0.40793 0.05983 0.14200
C 	C 	0.15497 0.43522 0.07570 0.13600
C 	C 	0.18747 0.42526 0.08463 0.13900
C 	C 	0.13717 0.46236 0.09659 0.04800
H 	H 	0.14900 0.46260 0.10540 0.00900
C 	C 	0.13702 0.44823 0.07962 -0.05800
C 	C 	0.11914 0.44724 0.06788 0.01800
H 	H 	0.11810 0.43770 0.05670 0.03500
C 	C 	0.10276 0.46019 0.07249 -0.11000
H 	H 	0.09020 0.45960 0.06480 0.07100
C 	C 	0.10507 0.47413 0.08862 0.06900
H 	H 	0.09400 0.48360 0.09120 -0.00200
C 	C 	0.17448 0.50110 0.12190 0.10800
C 	C 	0.11220 0.51753 0.16748 0.05200
H 	H 	0.10210 0.50680 0.16650 0.00300
C 	C 	0.11274 0.52894 0.18479 -0.09600
H 	H 	0.10280 0.52670 0.19550 0.06600
C 	C 	0.12821 0.54439 0.18705 0.00500
H 	H 	0.12930 0.55240 0.19940 0.03900
C 	C 	0.14173 0.54744 0.17042 -0.05300
C 	C 	0.13995 0.53479 0.15304 0.04600
H 	H 	0.14970 0.53660 0.14210 0.01100
C 	C 	0.15793 0.56323 0.17139 0.13300
N 	N 	0.23439 0.40997 0.11490 -0.22400
N 	N 	0.13675 0.35465 0.97691 -0.26000
N 	N 	0.14932 0.37328 0.01757 -0.22900
N 	N 	0.18691 0.40943 0.07092 -0.15500
N 	N 	0.15342 0.42023 0.06142 -0.15300
N 	N 	0.17226 0.43849 0.08754 -0.15200
N 	N 	0.12173 0.47512 0.10074 -0.23400
N 	N 	0.12548 0.52033 0.15084 -0.22600
N 	N 	0.15703 0.49898 0.12293 -0.26700
N 	N 	0.17249 0.56313 0.15657 -0.15000
S 	S 	0.16565 0.32743 0.95983 -0.06300
S 	S 	0.20025 0.50359 0.12079 -0.06100
C 	C 	0.21822 0.91010 0.60166 0.03700
H 	H 	0.21510 0.89760 0.59430 0.01300
C 	C 	0.20583 0.92727 0.59811 -0.05200
C 	C 	0.21049 0.94563 0.60817 0.01000
H 	H 	0.20190 0.95760 0.60660 0.03700
C 	C 	0.22798 0.94617 0.62062 -0.10000
H 	H 	0.23240 0.95890 0.62670 0.06600
C 	C 	0.23901 0.92829 0.62422 0.05800
H 	H 	0.25040 0.92880 0.63370 0.00100
C 	C 	0.14849 0.84342 0.46900 0.09800
C 	C 	0.16484 0.85933 0.51673 0.06500
H 	H 	0.16400 0.84880 0.50640 -0.00300
C 	C 	0.18170 0.85923 0.52959 -0.10700
H 	H 	0.19180 0.84850 0.52870 0.06800
C 	C 	0.18376 0.87505 0.54389 0.01400
H 	H 	0.19530 0.87550 0.55310 0.03500
C 	C 	0.16846 0.89046 0.54454 -0.05500
C 	C 	0.15199 0.88885 0.53115 0.04300
H 	H 	0.14180 0.89950 0.53150 0.01300
C 	C 	0.16996 0.90793 0.55983 0.14200
C 	C 	0.15497 0.93522 0.57570 0.13600
C 	C 	0.18747 0.92526 0.58463 0.13900
C 	C 	0.13717 0.96236 0.59659 0.04800
H 	H 	0.14900 0.96260 0.60540 0.00900
C 	C 	0.13702 0.94823 0.57962 -0.05800
C 	C 	0.11914 0.94724 0.56788 0.01800
H 	H 	0.11810 0.93770 0.55670 0.03500
C 	C 	0.10276 0.96019 0.57249 -0.11000
H 	H 	0.09020 0.95960 0.56480 0.07100
C 	C 	0.10507 0.97413 0.58862 0.06900
H 	H 	0.09400 0.98360 0.59120 -0.00200
C 	C 	0.17448 0.00110 0.62190 0.10800
C 	C 	0.11220 0.01753 0.66748 0.05200
H 	H 	0.10210 0.00680 0.66650 0.00300
C 	C 	0.11274 0.02894 0.68479 -0.09600
H 	H 	0.10280 0.02670 0.69550 0.06600
C 	C 	0.12821 0.04439 0.68705 0.00500
H 	H 	0.12930 0.05240 0.69940 0.03900
C 	C 	0.14173 0.04744 0.67042 -0.05300
C 	C 	0.13995 0.03479 0.65304 0.04600
H 	H 	0.14970 0.03660 0.64210 0.01100
C 	C 	0.15793 0.06323 0.67139 0.13300
N 	N 	0.23439 0.90997 0.61490 -0.22400
N 	N 	0.13675 0.85465 0.47691 -0.26000
N 	N 	0.14932 0.87328 0.51757 -0.22900
N 	N 	0.18691 0.90943 0.57092 -0.15500
N 	N 	0.15342 0.92023 0.56142 -0.15300
N 	N 	0.17226 0.93849 0.58754 -0.15200
N 	N 	0.12173 0.97512 0.60074 -0.23400
N 	N 	0.12548 0.02033 0.65084 -0.22600
N 	N 	0.15703 0.99898 0.62293 -0.26700
N 	N 	0.17249 0.06313 0.65657 -0.15000
S 	S 	0.16565 0.82743 0.45983 -0.06300
S 	S 	0.20025 0.00359 0.62079 -0.06100
C 	C 	0.21822 0.83990 0.14834 0.03700
H 	H 	0.21510 0.85240 0.15570 0.01300
C 	C 	0.20583 0.82273 0.15189 -0.05200
C 	C 	0.21049 0.80437 0.14183 0.01000
H 	H 	0.20190 0.79240 0.14340 0.03700
C 	C 	0.22798 0.80383 0.12938 -0.10000
H 	H 	0.23240 0.79110 0.12330 0.06600
C 	C 	0.23901 0.82171 0.12578 0.05800
H 	H 	0.25040 0.82120 0.11630 0.00100
C 	C 	0.14849 0.90658 0.28100 0.09800
C 	C 	0.16484 0.89067 0.23327 0.06500
H 	H 	0.16400 0.90120 0.24360 -0.00300
C 	C 	0.18170 0.89077 0.22041 -0.10700
H 	H 	0.19180 0.90150 0.22130 0.06800
C 	C 	0.18376 0.87495 0.20611 0.01400
H 	H 	0.19530 0.87450 0.19690 0.03500
C 	C 	0.16846 0.85954 0.20546 -0.05500
C 	C 	0.15199 0.86115 0.21885 0.04300
H 	H 	0.14180 0.85050 0.21850 0.01300
C 	C 	0.16996 0.84207 0.19017 0.14200
C 	C 	0.15497 0.81478 0.17430 0.13600
C 	C 	0.18747 0.82474 0.16537 0.13900
C 	C 	0.13717 0.78764 0.15341 0.04800
H 	H 	0.14900 0.78740 0.14460 0.00900
C 	C 	0.13702 0.80177 0.17038 -0.05800
C 	C 	0.11914 0.80276 0.18212 0.01800
H 	H 	0.11810 0.81230 0.19330 0.03500
C 	C 	0.10276 0.78981 0.17751 -0.11000
H 	H 	0.09020 0.79040 0.18520 0.07100
C 	C 	0.10507 0.77587 0.16138 0.06900
H 	H 	0.09400 0.76640 0.15880 -0.00200
C 	C 	0.17448 0.74890 0.12810 0.10800
C 	C 	0.11220 0.73247 0.08252 0.05200
H 	H 	0.10210 0.74320 0.08350 0.00300
C 	C 	0.11274 0.72106 0.06521 -0.09600
H 	H 	0.10280 0.72330 0.05450 0.06600
C 	C 	0.12821 0.70561 0.06295 0.00500
H 	H 	0.12930 0.69760 0.05060 0.03900
C 	C 	0.14173 0.70256 0.07958 -0.05300
C 	C 	0.13995 0.71521 0.09696 0.04600
H 	H 	0.14970 0.71340 0.10790 0.01100
C 	C 	0.15793 0.68677 0.07861 0.13300
N 	N 	0.23439 0.84003 0.13510 -0.22400
N 	N 	0.13675 0.89535 0.27309 -0.26000
N 	N 	0.14932 0.87672 0.23243 -0.22900
N 	N 	0.18691 0.84057 0.17908 -0.15500
N 	N 	0.15342 0.82977 0.18858 -0.15300
N 	N 	0.17226 0.81151 0.16246 -0.15200
N 	N 	0.12173 0.77488 0.14926 -0.23400
N 	N 	0.12548 0.72967 0.09916 -0.22600
N 	N 	0.15703 0.75102 0.12707 -0.26700
N 	N 	0.17249 0.68687 0.09343 -0.15000
S 	S 	0.16565 0.92257 0.29017 -0.06300
S 	S 	0.20025 0.74641 0.12921 -0.06100
C 	C 	0.21822 0.33990 0.64834 0.03700
H 	H 	0.21510 0.35240 0.65570 0.01300
C 	C 	0.20583 0.32273 0.65189 -0.05200
C 	C 	0.21049 0.30437 0.64183 0.01000
H 	H 	0.20190 0.29240 0.64340 0.03700
C 	C 	0.22798 0.30383 0.62938 -0.10000
H 	H 	0.23240 0.29110 0.62330 0.06600
C 	C 	0.23901 0.32171 0.62578 0.05800
H 	H 	0.25040 0.32120 0.61630 0.00100
C 	C 	0.14849 0.40658 0.78100 0.09800
C 	C 	0.16484 0.39067 0.73327 0.06500
H 	H 	0.16400 0.40120 0.74360 -0.00300
C 	C 	0.18170 0.39077 0.72041 -0.10700
H 	H 	0.19180 0.40150 0.72130 0.06800
C 	C 	0.18376 0.37495 0.70611 0.01400
H 	H 	0.19530 0.37450 0.69690 0.03500
C 	C 	0.16846 0.35954 0.70546 -0.05500
C 	C 	0.15199 0.36115 0.71885 0.04300
H 	H 	0.14180 0.35050 0.71850 0.01300
C 	C 	0.16996 0.34207 0.69017 0.14200
C 	C 	0.15497 0.31478 0.67430 0.13600
C 	C 	0.18747 0.32474 0.66537 0.13900
C 	C 	0.13717 0.28764 0.65341 0.04800
H 	H 	0.14900 0.28740 0.64460 0.00900
C 	C 	0.13702 0.30177 0.67038 -0.05800
C 	C 	0.11914 0.30276 0.68212 0.01800
H 	H 	0.11810 0.31230 0.69330 0.03500
C 	C 	0.10276 0.28981 0.67751 -0.11000
H 	H 	0.09020 0.29040 0.68520 0.07100
C 	C 	0.10507 0.27587 0.66138 0.06900
H 	H 	0.09400 0.26640 0.65880 -0.00200
C 	C 	0.17448 0.24890 0.62810 0.10800
C 	C 	0.11220 0.23247 0.58252 0.05200
H 	H 	0.10210 0.24320 0.58350 0.00300
C 	C 	0.11274 0.22106 0.56521 -0.09600
H 	H 	0.10280 0.22330 0.55450 0.06600
C 	C 	0.12821 0.20561 0.56295 0.00500
H 	H 	0.12930 0.19760 0.55060 0.03900
C 	C 	0.14173 0.20256 0.57958 -0.05300
C 	C 	0.13995 0.21521 0.59696 0.04600
H 	H 	0.14970 0.21340 0.60790 0.01100
C 	C 	0.15793 0.18677 0.57861 0.13300
N 	N 	0.23439 0.34003 0.63510 -0.22400
N 	N 	0.13675 0.39535 0.77309 -0.26000
N 	N 	0.14932 0.37672 0.73243 -0.22900
N 	N 	0.18691 0.34057 0.67908 -0.15500
N 	N 	0.15342 0.32977 0.68858 -0.15300
N 	N 	0.17226 0.31151 0.66246 -0.15200
N 	N 	0.12173 0.27488 0.64926 -0.23400
N 	N 	0.12548 0.22967 0.59916 -0.22600
N 	N 	0.15703 0.25102 0.62707 -0.26700
N 	N 	0.17249 0.18687 0.59343 -0.15000
S 	S 	0.16565 0.42257 0.79017 -0.06300
S 	S 	0.20025 0.24641 0.62921 -0.06100
C 	C 	0.71822 0.83990 0.64834 0.03700
H 	H 	0.71510 0.85240 0.65570 0.01300
C 	C 	0.70583 0.82273 0.65189 -0.05200
C 	C 	0.71049 0.80437 0.64183 0.01000
H 	H 	0.70190 0.79240 0.64340 0.03700
C 	C 	0.72798 0.80383 0.62938 -0.10000
H 	H 	0.73240 0.79110 0.62330 0.06600
C 	C 	0.73901 0.82171 0.62578 0.05800
H 	H 	0.75040 0.82120 0.61630 0.00100
C 	C 	0.64849 0.90658 0.78100 0.09800
C 	C 	0.66484 0.89067 0.73327 0.06500
H 	H 	0.66400 0.90120 0.74360 -0.00300
C 	C 	0.68170 0.89077 0.72041 -0.10700
H 	H 	0.69180 0.90150 0.72130 0.06800
C 	C 	0.68376 0.87495 0.70611 0.01400
H 	H 	0.69530 0.87450 0.69690 0.03500
C 	C 	0.66846 0.85954 0.70546 -0.05500
C 	C 	0.65199 0.86115 0.71885 0.04300
H 	H 	0.64180 0.85050 0.71850 0.01300
C 	C 	0.66996 0.84207 0.69017 0.14200
C 	C 	0.65497 0.81478 0.67430 0.13600
C 	C 	0.68747 0.82474 0.66537 0.13900
C 	C 	0.63717 0.78764 0.65341 0.04800
H 	H 	0.64900 0.78740 0.64460 0.00900
C 	C 	0.63702 0.80177 0.67038 -0.05800
C 	C 	0.61914 0.80276 0.68212 0.01800
H 	H 	0.61810 0.81230 0.69330 0.03500
C 	C 	0.60276 0.78981 0.67751 -0.11000
H 	H 	0.59020 0.79040 0.68520 0.07100
C 	C 	0.60507 0.77587 0.66138 0.06900
H 	H 	0.59400 0.76640 0.65880 -0.00200
C 	C 	0.67448 0.74890 0.62810 0.10800
C 	C 	0.61220 0.73247 0.58252 0.05200
H 	H 	0.60210 0.74320 0.58350 0.00300
C 	C 	0.61274 0.72106 0.56521 -0.09600
H 	H 	0.60280 0.72330 0.55450 0.06600
C 	C 	0.62821 0.70561 0.56295 0.00500
H 	H 	0.62930 0.69760 0.55060 0.03900
C 	C 	0.64173 0.70256 0.57958 -0.05300
C 	C 	0.63995 0.71521 0.59696 0.04600
H 	H 	0.64970 0.71340 0.60790 0.01100
C 	C 	0.65793 0.68677 0.57861 0.13300
N 	N 	0.73439 0.84003 0.63510 -0.22400
N 	N 	0.63675 0.89535 0.77309 -0.26000
N 	N 	0.64932 0.87672 0.73243 -0.22900
N 	N 	0.68691 0.84057 0.67908 -0.15500
N 	N 	0.65342 0.82977 0.68858 -0.15300
N 	N 	0.67226 0.81151 0.66246 -0.15200
N 	N 	0.62173 0.77488 0.64926 -0.23400
N 	N 	0.62548 0.72967 0.59916 -0.22600
N 	N 	0.65703 0.75102 0.62707 -0.26700
N 	N 	0.67249 0.68687 0.59343 -0.15000
S 	S 	0.66565 0.92257 0.79017 -0.06300
S 	S 	0.70025 0.74641 0.62921 -0.06100
C 	C 	0.71822 0.33990 0.14834 0.03700
H 	H 	0.71510 0.35240 0.15570 0.01300
C 	C 	0.70583 0.32273 0.15189 -0.05200
C 	C 	0.71049 0.30437 0.14183 0.01000
H 	H 	0.70190 0.29240 0.14340 0.03700
C 	C 	0.72798 0.30383 0.12938 -0.10000
H 	H 	0.73240 0.29110 0.12330 0.06600
C 	C 	0.73901 0.32171 0.12578 0.05800
H 	H 	0.75040 0.32120 0.11630 0.00100
C 	C 	0.64849 0.40658 0.28100 0.09800
C 	C 	0.66484 0.39067 0.23327 0.06500
H 	H 	0.66400 0.40120 0.24360 -0.00300
C 	C 	0.68170 0.39077 0.22041 -0.10700
H 	H 	0.69180 0.40150 0.22130 0.06800
C 	C 	0.68376 0.37495 0.20611 0.01400
H 	H 	0.69530 0.37450 0.19690 0.03500
C 	C 	0.66846 0.35954 0.20546 -0.05500
C 	C 	0.65199 0.36115 0.21885 0.04300
H 	H 	0.64180 0.35050 0.21850 0.01300
C 	C 	0.66996 0.34207 0.19017 0.14200
C 	C 	0.65497 0.31478 0.17430 0.13600
C 	C 	0.68747 0.32474 0.16537 0.13900
C 	C 	0.63717 0.28764 0.15341 0.04800
H 	H 	0.64900 0.28740 0.14460 0.00900
C 	C 	0.63702 0.30177 0.17038 -0.05800
C 	C 	0.61914 0.30276 0.18212 0.01800
H 	H 	0.61810 0.31230 0.19330 0.03500
C 	C 	0.60276 0.28981 0.17751 -0.11000
H 	H 	0.59020 0.29040 0.18520 0.07100
C 	C 	0.60507 0.27587 0.16138 0.06900
H 	H 	0.59400 0.26640 0.15880 -0.00200
C 	C 	0.67448 0.24890 0.12810 0.10800
C 	C 	0.61220 0.23247 0.08252 0.05200
H 	H 	0.60210 0.24320 0.08350 0.00300
C 	C 	0.61274 0.22106 0.06521 -0.09600
H 	H 	0.60280 0.22330 0.05450 0.06600
C 	C 	0.62821 0.20561 0.06295 0.00500
H 	H 	0.62930 0.19760 0.05060 0.03900
C 	C 	0.64173 0.20256 0.07958 -0.05300
C 	C 	0.63995 0.21521 0.09696 0.04600
H 	H 	0.64970 0.21340 0.10790 0.01100
C 	C 	0.65793 0.18677 0.07861 0.13300
N 	N 	0.73439 0.34003 0.13510 -0.22400
N 	N 	0.63675 0.39535 0.27309 -0.26000
N 	N 	0.64932 0.37672 0.23243 -0.22900
N 	N 	0.68691 0.34057 0.17908 -0.15500
N 	N 	0.65342 0.32977 0.18858 -0.15300
N 	N 	0.67226 0.31151 0.16246 -0.15200
N 	N 	0.62173 0.27488 0.14926 -0.23400
N 	N 	0.62548 0.22967 0.09916 -0.22600
N 	N 	0.65703 0.25102 0.12707 -0.26700
N 	N 	0.67249 0.18687 0.09343 -0.15000
S 	S 	0.66565 0.42257 0.29017 -0.06300
S 	S 	0.70025 0.24641 0.12921 -0.06100
C 	C 	0.03178 0.91010 0.64834 0.03700
H 	H 	0.03490 0.89760 0.65570 0.01300
C 	C 	0.04417 0.92727 0.65189 -0.05200
C 	C 	0.03951 0.94563 0.64183 0.01000
H 	H 	0.04810 0.95760 0.64340 0.03700
C 	C 	0.02202 0.94617 0.62938 -0.10000
H 	H 	0.01760 0.95890 0.62330 0.06600
C 	C 	0.01099 0.92829 0.62578 0.05800
H 	H 	0.99960 0.92880 0.61630 0.00100
C 	C 	0.10151 0.84342 0.78100 0.09800
C 	C 	0.08516 0.85933 0.73327 0.06500
H 	H 	0.08600 0.84880 0.74360 -0.00300
C 	C 	0.06830 0.85923 0.72041 -0.10700
H 	H 	0.05820 0.84850 0.72130 0.06800
C 	C 	0.06624 0.87505 0.70611 0.01400
H 	H 	0.05470 0.87550 0.69690 0.03500
C 	C 	0.08154 0.89046 0.70546 -0.05500
C 	C 	0.09801 0.88885 0.71885 0.04300
H 	H 	0.10820 0.89950 0.71850 0.01300
C 	C 	0.08004 0.90793 0.69017 0.14200
C 	C 	0.09503 0.93522 0.67430 0.13600
C 	C 	0.06253 0.92526 0.66537 0.13900
C 	C 	0.11283 0.96236 0.65341 0.04800
H 	H 	0.10100 0.96260 0.64460 0.00900
C 	C 	0.11298 0.94823 0.67038 -0.05800
C 	C 	0.13086 0.94724 0.68212 0.01800
H 	H 	0.13190 0.93770 0.69330 0.03500
C 	C 	0.14724 0.96019 0.67751 -0.11000
H 	H 	0.15980 0.95960 0.68520 0.07100
C 	C 	0.14493 0.97413 0.66138 0.06900
H 	H 	0.15600 0.98360 0.65880 -0.00200
C 	C 	0.07552 0.00110 0.62810 0.10800
C 	C 	0.13780 0.01753 0.58252 0.05200
H 	H 	0.14790 0.00680 0.58350 0.00300
C 	C 	0.13726 0.02894 0.56521 -0.09600
H 	H 	0.14720 0.02670 0.55450 0.06600
C 	C 	0.12179 0.04439 0.56295 0.00500
H 	H 	0.12070 0.05240 0.55060 0.03900
C 	C 	0.10827 0.04744 0.57958 -0.05300
C 	C 	0.11005 0.03479 0.59696 0.04600
H 	H 	0.10030 0.03660 0.60790 0.01100
C 	C 	0.09207 0.06323 0.57861 0.13300
N 	N 	0.01561 0.90997 0.63510 -0.22400
N 	N 	0.11325 0.85465 0.77309 -0.26000
N 	N 	0.10068 0.87328 0.73243 -0.22900
N 	N 	0.06309 0.90943 0.67908 -0.15500
N 	N 	0.09658 0.92023 0.68858 -0.15300
N 	N 	0.07774 0.93849 0.66246 -0.15200
N 	N 	0.12827 0.97512 0.64926 -0.23400
N 	N 	0.12452 0.02033 0.59916 -0.22600
N 	N 	0.09297 0.99898 0.62707 -0.26700
N 	N 	0.07751 0.06313 0.59343 -0.15000
S 	S 	0.08435 0.82743 0.79017 -0.06300
S 	S 	0.04975 0.00359 0.62921 -0.06100
C 	C 	0.03178 0.41010 0.14834 0.03700
H 	H 	0.03490 0.39760 0.15570 0.01300
C 	C 	0.04417 0.42727 0.15189 -0.05200
C 	C 	0.03951 0.44563 0.14183 0.01000
H 	H 	0.04810 0.45760 0.14340 0.03700
C 	C 	0.02202 0.44617 0.12938 -0.10000
H 	H 	0.01760 0.45890 0.12330 0.06600
C 	C 	0.01099 0.42829 0.12578 0.05800
H 	H 	0.99960 0.42880 0.11630 0.00100
C 	C 	0.10151 0.34342 0.28100 0.09800
C 	C 	0.08516 0.35933 0.23327 0.06500
H 	H 	0.08600 0.34880 0.24360 -0.00300
C 	C 	0.06830 0.35923 0.22041 -0.10700
H 	H 	0.05820 0.34850 0.22130 0.06800
C 	C 	0.06624 0.37505 0.20611 0.01400
H 	H 	0.05470 0.37550 0.19690 0.03500
C 	C 	0.08154 0.39046 0.20546 -0.05500
C 	C 	0.09801 0.38885 0.21885 0.04300
H 	H 	0.10820 0.39950 0.21850 0.01300
C 	C 	0.08004 0.40793 0.19017 0.14200
C 	C 	0.09503 0.43522 0.17430 0.13600
C 	C 	0.06253 0.42526 0.16537 0.13900
C 	C 	0.11283 0.46236 0.15341 0.04800
H 	H 	0.10100 0.46260 0.14460 0.00900
C 	C 	0.11298 0.44823 0.17038 -0.05800
C 	C 	0.13086 0.44724 0.18212 0.01800
H 	H 	0.13190 0.43770 0.19330 0.03500
C 	C 	0.14724 0.46019 0.17751 -0.11000
H 	H 	0.15980 0.45960 0.18520 0.07100
C 	C 	0.14493 0.47413 0.16138 0.06900
H 	H 	0.15600 0.48360 0.15880 -0.00200
C 	C 	0.07552 0.50110 0.12810 0.10800
C 	C 	0.13780 0.51753 0.08252 0.05200
H 	H 	0.14790 0.50680 0.08350 0.00300
C 	C 	0.13726 0.52894 0.06521 -0.09600
H 	H 	0.14720 0.52670 0.05450 0.06600
C 	C 	0.12179 0.54439 0.06295 0.00500
H 	H 	0.12070 0.55240 0.05060 0.03900
C 	C 	0.10827 0.54744 0.07958 -0.05300
C 	C 	0.11005 0.53479 0.09696 0.04600
H 	H 	0.10030 0.53660 0.10790 0.01100
C 	C 	0.09207 0.56323 0.07861 0.13300
N 	N 	0.01561 0.40997 0.13510 -0.22400
N 	N 	0.11325 0.35465 0.27309 -0.26000
N 	N 	0.10068 0.37328 0.23243 -0.22900
N 	N 	0.06309 0.40943 0.17908 -0.15500
N 	N 	0.09658 0.42023 0.18858 -0.15300
N 	N 	0.07774 0.43849 0.16246 -0.15200
N 	N 	0.12827 0.47512 0.14926 -0.23400
N 	N 	0.12452 0.52033 0.09916 -0.22600
N 	N 	0.09297 0.49898 0.12707 -0.26700
N 	N 	0.07751 0.56313 0.09343 -0.15000
S 	S 	0.08435 0.32743 0.29017 -0.06300
S 	S 	0.04975 0.50359 0.12921 -0.06100
C 	C 	0.53178 0.91010 0.14834 0.03700
H 	H 	0.53490 0.89760 0.15570 0.01300
C 	C 	0.54417 0.92727 0.15189 -0.05200
C 	C 	0.53951 0.94563 0.14183 0.01000
H 	H 	0.54810 0.95760 0.14340 0.03700
C 	C 	0.52202 0.94617 0.12938 -0.10000
H 	H 	0.51760 0.95890 0.12330 0.06600
C 	C 	0.51099 0.92829 0.12578 0.05800
H 	H 	0.49960 0.92880 0.11630 0.00100
C 	C 	0.60151 0.84342 0.28100 0.09800
C 	C 	0.58516 0.85933 0.23327 0.06500
H 	H 	0.58600 0.84880 0.24360 -0.00300
C 	C 	0.56830 0.85923 0.22041 -0.10700
H 	H 	0.55820 0.84850 0.22130 0.06800
C 	C 	0.56624 0.87505 0.20611 0.01400
H 	H 	0.55470 0.87550 0.19690 0.03500
C 	C 	0.58154 0.89046 0.20546 -0.05500
C 	C 	0.59801 0.88885 0.21885 0.04300
H 	H 	0.60820 0.89950 0.21850 0.01300
C 	C 	0.58004 0.90793 0.19017 0.14200
C 	C 	0.59503 0.93522 0.17430 0.13600
C 	C 	0.56253 0.92526 0.16537 0.13900
C 	C 	0.61283 0.96236 0.15341 0.04800
H 	H 	0.60100 0.96260 0.14460 0.00900
C 	C 	0.61298 0.94823 0.17038 -0.05800
C 	C 	0.63086 0.94724 0.18212 0.01800
H 	H 	0.63190 0.93770 0.19330 0.03500
C 	C 	0.64724 0.96019 0.17751 -0.11000
H 	H 	0.65980 0.95960 0.18520 0.07100
C 	C 	0.64493 0.97413 0.16138 0.06900
H 	H 	0.65600 0.98360 0.15880 -0.00200
C 	C 	0.57552 0.00110 0.12810 0.10800
C 	C 	0.63780 0.01753 0.08252 0.05200
H 	H 	0.64790 0.00680 0.08350 0.00300
C 	C 	0.63726 0.02894 0.06521 -0.09600
H 	H 	0.64720 0.02670 0.05450 0.06600
C 	C 	0.62179 0.04439 0.06295 0.00500
H 	H 	0.62070 0.05240 0.05060 0.03900
C 	C 	0.60827 0.04744 0.07958 -0.05300
C 	C 	0.61005 0.03479 0.09696 0.04600
H 	H 	0.60030 0.03660 0.10790 0.01100
C 	C 	0.59207 0.06323 0.07861 0.13300
N 	N 	0.51561 0.90997 0.13510 -0.22400
N 	N 	0.61325 0.85465 0.27309 -0.26000
N 	N 	0.60068 0.87328 0.23243 -0.22900
N 	N 	0.56309 0.90943 0.17908 -0.15500
N 	N 	0.59658 0.92023 0.18858 -0.15300
N 	N 	0.57774 0.93849 0.16246 -0.15200
N 	N 	0.62827 0.97512 0.14926 -0.23400
N 	N 	0.62452 0.02033 0.09916 -0.22600
N 	N 	0.59297 0.99898 0.12707 -0.26700
N 	N 	0.57751 0.06313 0.09343 -0.15000
S 	S 	0.58435 0.82743 0.29017 -0.06300
S 	S 	0.54975 0.00359 0.12921 -0.06100
C 	C 	0.53178 0.41010 0.64834 0.03700
H 	H 	0.53490 0.39760 0.65570 0.01300
C 	C 	0.54417 0.42727 0.65189 -0.05200
C 	C 	0.53951 0.44563 0.64183 0.01000
H 	H 	0.54810 0.45760 0.64340 0.03700
C 	C 	0.52202 0.44617 0.62938 -0.10000
H 	H 	0.51760 0.45890 0.62330 0.06600
C 	C 	0.51099 0.42829 0.62578 0.05800
H 	H 	0.49960 0.42880 0.61630 0.00100
C 	C 	0.60151 0.34342 0.78100 0.09800
C 	C 	0.58516 0.35933 0.73327 0.06500
H 	H 	0.58600 0.34880 0.74360 -0.00300
C 	C 	0.56830 0.35923 0.72041 -0.10700
H 	H 	0.55820 0.34850 0.72130 0.06800
C 	C 	0.56624 0.37505 0.70611 0.01400
H 	H 	0.55470 0.37550 0.69690 0.03500
C 	C 	0.58154 0.39046 0.70546 -0.05500
C 	C 	0.59801 0.38885 0.71885 0.04300
H 	H 	0.60820 0.39950 0.71850 0.01300
C 	C 	0.58004 0.40793 0.69017 0.14200
C 	C 	0.59503 0.43522 0.67430 0.13600
C 	C 	0.56253 0.42526 0.66537 0.13900
C 	C 	0.61283 0.46236 0.65341 0.04800
H 	H 	0.60100 0.46260 0.64460 0.00900
C 	C 	0.61298 0.44823 0.67038 -0.05800
C 	C 	0.63086 0.44724 0.68212 0.01800
H 	H 	0.63190 0.43770 0.69330 0.03500
C 	C 	0.64724 0.46019 0.67751 -0.11000
H 	H 	0.65980 0.45960 0.68520 0.07100
C 	C 	0.64493 0.47413 0.66138 0.06900
H 	H 	0.65600 0.48360 0.65880 -0.00200
C 	C 	0.57552 0.50110 0.62810 0.10800
C 	C 	0.63780 0.51753 0.58252 0.05200
H 	H 	0.64790 0.50680 0.58350 0.00300
C 	C 	0.63726 0.52894 0.56521 -0.09600
H 	H 	0.64720 0.52670 0.55450 0.06600
C 	C 	0.62179 0.54439 0.56295 0.00500
H 	H 	0.62070 0.55240 0.55060 0.03900
C 	C 	0.60827 0.54744 0.57958 -0.05300
C 	C 	0.61005 0.53479 0.59696 0.04600
H 	H 	0.60030 0.53660 0.60790 0.01100
C 	C 	0.59207 0.56323 0.57861 0.13300
N 	N 	0.51561 0.40997 0.63510 -0.22400
N 	N 	0.61325 0.35465 0.77309 -0.26000
N 	N 	0.60068 0.37328 0.73243 -0.22900
N 	N 	0.56309 0.40943 0.67908 -0.15500
N 	N 	0.59658 0.42023 0.68858 -0.15300
N 	N 	0.57774 0.43849 0.66246 -0.15200
N 	N 	0.62827 0.47512 0.64926 -0.23400
N 	N 	0.62452 0.52033 0.59916 -0.22600
N 	N 	0.59297 0.49898 0.62707 -0.26700
N 	N 	0.57751 0.56313 0.59343 -0.15000
S 	S 	0.58435 0.32743 0.79017 -0.06300
S 	S 	0.54975 0.50359 0.62921 -0.06100
C 	C 	0.10166 0.53178 0.33990 0.03700
H 	H 	0.09430 0.53490 0.35240 0.01300
C 	C 	0.09811 0.54417 0.32273 -0.05200
C 	C 	0.10817 0.53951 0.30437 0.01000
H 	H 	0.10660 0.54810 0.29240 0.03700
C 	C 	0.12062 0.52202 0.30383 -0.10000
H 	H 	0.12670 0.51760 0.29110 0.06600
C 	C 	0.12422 0.51099 0.32171 0.05800
H 	H 	0.13370 0.49960 0.32120 0.00100
C 	C 	0.96900 0.60151 0.40658 0.09800
C 	C 	0.01673 0.58516 0.39067 0.06500
H 	H 	0.00640 0.58600 0.40120 -0.00300
C 	C 	0.02959 0.56830 0.39077 -0.10700
H 	H 	0.02870 0.55820 0.40150 0.06800
C 	C 	0.04389 0.56624 0.37495 0.01400
H 	H 	0.05310 0.55470 0.37450 0.03500
C 	C 	0.04454 0.58154 0.35954 -0.05500
C 	C 	0.03115 0.59801 0.36115 0.04300
H 	H 	0.03150 0.60820 0.35050 0.01300
C 	C 	0.05983 0.58004 0.34207 0.14200
C 	C 	0.07570 0.59503 0.31478 0.13600
C 	C 	0.08463 0.56253 0.32474 0.13900
C 	C 	0.09659 0.61283 0.28764 0.04800
H 	H 	0.10540 0.60100 0.28740 0.00900
C 	C 	0.07962 0.61298 0.30177 -0.05800
C 	C 	0.06788 0.63086 0.30276 0.01800
H 	H 	0.05670 0.63190 0.31230 0.03500
C 	C 	0.07249 0.64724 0.28981 -0.11000
H 	H 	0.06480 0.65980 0.29040 0.07100
C 	C 	0.08862 0.64493 0.27587 0.06900
H 	H 	0.09120 0.65600 0.26640 -0.00200
C 	C 	0.12190 0.57552 0.24890 0.10800
C 	C 	0.16748 0.63780 0.23247 0.05200
H 	H 	0.16650 0.64790 0.24320 0.00300
C 	C 	0.18479 0.63726 0.22106 -0.09600
H 	H 	0.19550 0.64720 0.22330 0.06600
C 	C 	0.18705 0.62179 0.20561 0.00500
H 	H 	0.19940 0.62070 0.19760 0.03900
C 	C 	0.17042 0.60827 0.20256 -0.05300
C 	C 	0.15304 0.61005 0.21521 0.04600
H 	H 	0.14210 0.60030 0.21340 0.01100
C 	C 	0.17139 0.59207 0.18677 0.13300
N 	N 	0.11490 0.51561 0.34003 -0.22400
N 	N 	0.97691 0.61325 0.39535 -0.26000
N 	N 	0.01757 0.60068 0.37672 -0.22900
N 	N 	0.07092 0.56309 0.34057 -0.15500
N 	N 	0.06142 0.59658 0.32977 -0.15300
N 	N 	0.08754 0.57774 0.31151 -0.15200
N 	N 	0.10074 0.62827 0.27488 -0.23400
N 	N 	0.15084 0.62452 0.22967 -0.22600
N 	N 	0.12293 0.59297 0.25102 -0.26700
N 	N 	0.15657 0.57751 0.18687 -0.15000
S 	S 	0.95983 0.58435 0.42257 -0.06300
S 	S 	0.12079 0.54975 0.24641 -0.06100
C 	C 	0.10166 0.03178 0.83990 0.03700
H 	H 	0.09430 0.03490 0.85240 0.01300
C 	C 	0.09811 0.04417 0.82273 -0.05200
C 	C 	0.10817 0.03951 0.80437 0.01000
H 	H 	0.10660 0.04810 0.79240 0.03700
C 	C 	0.12062 0.02202 0.80383 -0.10000
H 	H 	0.12670 0.01760 0.79110 0.06600
C 	C 	0.12422 0.01099 0.82171 0.05800
H 	H 	0.13370 0.99960 0.82120 0.00100
C 	C 	0.96900 0.10151 0.90658 0.09800
C 	C 	0.01673 0.08516 0.89067 0.06500
H 	H 	0.00640 0.08600 0.90120 -0.00300
C 	C 	0.02959 0.06830 0.89077 -0.10700
H 	H 	0.02870 0.05820 0.90150 0.06800
C 	C 	0.04389 0.06624 0.87495 0.01400
H 	H 	0.05310 0.05470 0.87450 0.03500
C 	C 	0.04454 0.08154 0.85954 -0.05500
C 	C 	0.03115 0.09801 0.86115 0.04300
H 	H 	0.03150 0.10820 0.85050 0.01300
C 	C 	0.05983 0.08004 0.84207 0.14200
C 	C 	0.07570 0.09503 0.81478 0.13600
C 	C 	0.08463 0.06253 0.82474 0.13900
C 	C 	0.09659 0.11283 0.78764 0.04800
H 	H 	0.10540 0.10100 0.78740 0.00900
C 	C 	0.07962 0.11298 0.80177 -0.05800
C 	C 	0.06788 0.13086 0.80276 0.01800
H 	H 	0.05670 0.13190 0.81230 0.03500
C 	C 	0.07249 0.14724 0.78981 -0.11000
H 	H 	0.06480 0.15980 0.79040 0.07100
C 	C 	0.08862 0.14493 0.77587 0.06900
H 	H 	0.09120 0.15600 0.76640 -0.00200
C 	C 	0.12190 0.07552 0.74890 0.10800
C 	C 	0.16748 0.13780 0.73247 0.05200
H 	H 	0.16650 0.14790 0.74320 0.00300
C 	C 	0.18479 0.13726 0.72106 -0.09600
H 	H 	0.19550 0.14720 0.72330 0.06600
C 	C 	0.18705 0.12179 0.70561 0.00500
H 	H 	0.19940 0.12070 0.69760 0.03900
C 	C 	0.17042 0.10827 0.70256 -0.05300
C 	C 	0.15304 0.11005 0.71521 0.04600
H 	H 	0.14210 0.10030 0.71340 0.01100
C 	C 	0.17139 0.09207 0.68677 0.13300
N 	N 	0.11490 0.01561 0.84003 -0.22400
N 	N 	0.97691 0.11325 0.89535 -0.26000
N 	N 	0.01757 0.10068 0.87672 -0.22900
N 	N 	0.07092 0.06309 0.84057 -0.15500
N 	N 	0.06142 0.09658 0.82977 -0.15300
N 	N 	0.08754 0.07774 0.81151 -0.15200
N 	N 	0.10074 0.12827 0.77488 -0.23400
N 	N 	0.15084 0.12452 0.72967 -0.22600
N 	N 	0.12293 0.09297 0.75102 -0.26700
N 	N 	0.15657 0.07751 0.68687 -0.15000
S 	S 	0.95983 0.08435 0.92257 -0.06300
S 	S 	0.12079 0.04975 0.74641 -0.06100
C 	C 	0.60166 0.53178 0.83990 0.03700
H 	H 	0.59430 0.53490 0.85240 0.01300
C 	C 	0.59811 0.54417 0.82273 -0.05200
C 	C 	0.60817 0.53951 0.80437 0.01000
H 	H 	0.60660 0.54810 0.79240 0.03700
C 	C 	0.62062 0.52202 0.80383 -0.10000
H 	H 	0.62670 0.51760 0.79110 0.06600
C 	C 	0.62422 0.51099 0.82171 0.05800
H 	H 	0.63370 0.49960 0.82120 0.00100
C 	C 	0.46900 0.60151 0.90658 0.09800
C 	C 	0.51673 0.58516 0.89067 0.06500
H 	H 	0.50640 0.58600 0.90120 -0.00300
C 	C 	0.52959 0.56830 0.89077 -0.10700
H 	H 	0.52870 0.55820 0.90150 0.06800
C 	C 	0.54389 0.56624 0.87495 0.01400
H 	H 	0.55310 0.55470 0.87450 0.03500
C 	C 	0.54454 0.58154 0.85954 -0.05500
C 	C 	0.53115 0.59801 0.86115 0.04300
H 	H 	0.53150 0.60820 0.85050 0.01300
C 	C 	0.55983 0.58004 0.84207 0.14200
C 	C 	0.57570 0.59503 0.81478 0.13600
C 	C 	0.58463 0.56253 0.82474 0.13900
C 	C 	0.59659 0.61283 0.78764 0.04800
H 	H 	0.60540 0.60100 0.78740 0.00900
C 	C 	0.57962 0.61298 0.80177 -0.05800
C 	C 	0.56788 0.63086 0.80276 0.01800
H 	H 	0.55670 0.63190 0.81230 0.03500
C 	C 	0.57249 0.64724 0.78981 -0.11000
H 	H 	0.56480 0.65980 0.79040 0.07100
C 	C 	0.58862 0.64493 0.77587 0.06900
H 	H 	0.59120 0.65600 0.76640 -0.00200
C 	C 	0.62190 0.57552 0.74890 0.10800
C 	C 	0.66748 0.63780 0.73247 0.05200
H 	H 	0.66650 0.64790 0.74320 0.00300
C 	C 	0.68479 0.63726 0.72106 -0.09600
H 	H 	0.69550 0.64720 0.72330 0.06600
C 	C 	0.68705 0.62179 0.70561 0.00500
H 	H 	0.69940 0.62070 0.69760 0.03900
C 	C 	0.67042 0.60827 0.70256 -0.05300
C 	C 	0.65304 0.61005 0.71521 0.04600
H 	H 	0.64210 0.60030 0.71340 0.01100
C 	C 	0.67139 0.59207 0.68677 0.13300
N 	N 	0.61490 0.51561 0.84003 -0.22400
N 	N 	0.47691 0.61325 0.89535 -0.26000
N 	N 	0.51757 0.60068 0.87672 -0.22900
N 	N 	0.57092 0.56309 0.84057 -0.15500
N 	N 	0.56142 0.59658 0.82977 -0.15300
N 	N 	0.58754 0.57774 0.81151 -0.15200
N 	N 	0.60074 0.62827 0.77488 -0.23400
N 	N 	0.65084 0.62452 0.72967 -0.22600
N 	N 	0.62293 0.59297 0.75102 -0.26700
N 	N 	0.65657 0.57751 0.68687 -0.15000
S 	S 	0.45983 0.58435 0.92257 -0.06300
S 	S 	0.62079 0.54975 0.74641 -0.06100
C 	C 	0.60166 0.03178 0.33990 0.03700
H 	H 	0.59430 0.03490 0.35240 0.01300
C 	C 	0.59811 0.04417 0.32273 -0.05200
C 	C 	0.60817 0.03951 0.30437 0.01000
H 	H 	0.60660 0.04810 0.29240 0.03700
C 	C 	0.62062 0.02202 0.30383 -0.10000
H 	H 	0.62670 0.01760 0.29110 0.06600
C 	C 	0.62422 0.01099 0.32171 0.05800
H 	H 	0.63370 0.99960 0.32120 0.00100
C 	C 	0.46900 0.10151 0.40658 0.09800
C 	C 	0.51673 0.08516 0.39067 0.06500
H 	H 	0.50640 0.08600 0.40120 -0.00300
C 	C 	0.52959 0.06830 0.39077 -0.10700
H 	H 	0.52870 0.05820 0.40150 0.06800
C 	C 	0.54389 0.06624 0.37495 0.01400
H 	H 	0.55310 0.05470 0.37450 0.03500
C 	C 	0.54454 0.08154 0.35954 -0.05500
C 	C 	0.53115 0.09801 0.36115 0.04300
H 	H 	0.53150 0.10820 0.35050 0.01300
C 	C 	0.55983 0.08004 0.34207 0.14200
C 	C 	0.57570 0.09503 0.31478 0.13600
C 	C 	0.58463 0.06253 0.32474 0.13900
C 	C 	0.59659 0.11283 0.28764 0.04800
H 	H 	0.60540 0.10100 0.28740 0.00900
C 	C 	0.57962 0.11298 0.30177 -0.05800
C 	C 	0.56788 0.13086 0.30276 0.01800
H 	H 	0.55670 0.13190 0.31230 0.03500
C 	C 	0.57249 0.14724 0.28981 -0.11000
H 	H 	0.56480 0.15980 0.29040 0.07100
C 	C 	0.58862 0.14493 0.27587 0.06900
H 	H 	0.59120 0.15600 0.26640 -0.00200
C 	C 	0.62190 0.07552 0.24890 0.10800
C 	C 	0.66748 0.13780 0.23247 0.05200
H 	H 	0.66650 0.14790 0.24320 0.00300
C 	C 	0.68479 0.13726 0.22106 -0.09600
H 	H 	0.69550 0.14720 0.22330 0.06600
C 	C 	0.68705 0.12179 0.20561 0.00500
H 	H 	0.69940 0.12070 0.19760 0.03900
C 	C 	0.67042 0.10827 0.20256 -0.05300
C 	C 	0.65304 0.11005 0.21521 0.04600
H 	H 	0.64210 0.10030 0.21340 0.01100
C 	C 	0.67139 0.09207 0.18677 0.13300
N 	N 	0.61490 0.01561 0.34003 -0.22400
N 	N 	0.47691 0.11325 0.39535 -0.26000
N 	N 	0.51757 0.10068 0.37672 -0.22900
N 	N 	0.57092 0.06309 0.34057 -0.15500
N 	N 	0.56142 0.09658 0.32977 -0.15300
N 	N 	0.58754 0.07774 0.31151 -0.15200
N 	N 	0.60074 0.12827 0.27488 -0.23400
N 	N 	0.65084 0.12452 0.22967 -0.22600
N 	N 	0.62293 0.09297 0.25102 -0.26700
N 	N 	0.65657 0.07751 0.18687 -0.15000
S 	S 	0.45983 0.08435 0.42257 -0.06300
S 	S 	0.62079 0.04975 0.24641 -0.06100
C 	C 	0.60166 0.71822 0.41010 0.03700
H 	H 	0.59430 0.71510 0.39760 0.01300
C 	C 	0.59811 0.70583 0.42727 -0.05200
C 	C 	0.60817 0.71049 0.44563 0.01000
H 	H 	0.60660 0.70190 0.45760 0.03700
C 	C 	0.62062 0.72798 0.44617 -0.10000
H 	H 	0.62670 0.73240 0.45890 0.06600
C 	C 	0.62422 0.73901 0.42829 0.05800
H 	H 	0.63370 0.75040 0.42880 0.00100
C 	C 	0.46900 0.64849 0.34342 0.09800
C 	C 	0.51673 0.66484 0.35933 0.06500
H 	H 	0.50640 0.66400 0.34880 -0.00300
C 	C 	0.52959 0.68170 0.35923 -0.10700
H 	H 	0.52870 0.69180 0.34850 0.06800
C 	C 	0.54389 0.68376 0.37505 0.01400
H 	H 	0.55310 0.69530 0.37550 0.03500
C 	C 	0.54454 0.66846 0.39046 -0.05500
C 	C 	0.53115 0.65199 0.38885 0.04300
H 	H 	0.53150 0.64180 0.39950 0.01300
C 	C 	0.55983 0.66996 0.40793 0.14200
C 	C 	0.57570 0.65497 0.43522 0.13600
C 	C 	0.58463 0.68747 0.42526 0.13900
C 	C 	0.59659 0.63717 0.46236 0.04800
H 	H 	0.60540 0.64900 0.46260 0.00900
C 	C 	0.57962 0.63702 0.44823 -0.05800
C 	C 	0.56788 0.61914 0.44724 0.01800
H 	H 	0.55670 0.61810 0.43770 0.03500
C 	C 	0.57249 0.60276 0.46019 -0.11000
H 	H 	0.56480 0.59020 0.45960 0.07100
C 	C 	0.58862 0.60507 0.47413 0.06900
H 	H 	0.59120 0.59400 0.48360 -0.00200
C 	C 	0.62190 0.67448 0.50110 0.10800
C 	C 	0.66748 0.61220 0.51753 0.05200
H 	H 	0.66650 0.60210 0.50680 0.00300
C 	C 	0.68479 0.61274 0.52894 -0.09600
H 	H 	0.69550 0.60280 0.52670 0.06600
C 	C 	0.68705 0.62821 0.54439 0.00500
H 	H 	0.69940 0.62930 0.55240 0.03900
C 	C 	0.67042 0.64173 0.54744 -0.05300
C 	C 	0.65304 0.63995 0.53479 0.04600
H 	H 	0.64210 0.64970 0.53660 0.01100
C 	C 	0.67139 0.65793 0.56323 0.13300
N 	N 	0.61490 0.73439 0.40997 -0.22400
N 	N 	0.47691 0.63675 0.35465 -0.26000
N 	N 	0.51757 0.64932 0.37328 -0.22900
N 	N 	0.57092 0.68691 0.40943 -0.15500
N 	N 	0.56142 0.65342 0.42023 -0.15300
N 	N 	0.58754 0.67226 0.43849 -0.15200
N 	N 	0.60074 0.62173 0.47512 -0.23400
N 	N 	0.65084 0.62548 0.52033 -0.22600
N 	N 	0.62293 0.65703 0.49898 -0.26700
N 	N 	0.65657 0.67249 0.56313 -0.15000
S 	S 	0.45983 0.66565 0.32743 -0.06300
S 	S 	0.62079 0.70025 0.50359 -0.06100
C 	C 	0.60166 0.21822 0.91010 0.03700
H 	H 	0.59430 0.21510 0.89760 0.01300
C 	C 	0.59811 0.20583 0.92727 -0.05200
C 	C 	0.60817 0.21049 0.94563 0.01000
H 	H 	0.60660 0.20190 0.95760 0.03700
C 	C 	0.62062 0.22798 0.94617 -0.10000
H 	H 	0.62670 0.23240 0.95890 0.06600
C 	C 	0.62422 0.23901 0.92829 0.05800
H 	H 	0.63370 0.25040 0.92880 0.00100
C 	C 	0.46900 0.14849 0.84342 0.09800
C 	C 	0.51673 0.16484 0.85933 0.06500
H 	H 	0.50640 0.16400 0.84880 -0.00300
C 	C 	0.52959 0.18170 0.85923 -0.10700
H 	H 	0.52870 0.19180 0.84850 0.06800
C 	C 	0.54389 0.18376 0.87505 0.01400
H 	H 	0.55310 0.19530 0.87550 0.03500
C 	C 	0.54454 0.16846 0.89046 -0.05500
C 	C 	0.53115 0.15199 0.88885 0.04300
H 	H 	0.53150 0.14180 0.89950 0.01300
C 	C 	0.55983 0.16996 0.90793 0.14200
C 	C 	0.57570 0.15497 0.93522 0.13600
C 	C 	0.58463 0.18747 0.92526 0.13900
C 	C 	0.59659 0.13717 0.96236 0.04800
H 	H 	0.60540 0.14900 0.96260 0.00900
C 	C 	0.57962 0.13702 0.94823 -0.05800
C 	C 	0.56788 0.11914 0.94724 0.01800
H 	H 	0.55670 0.11810 0.93770 0.03500
C 	C 	0.57249 0.10276 0.96019 -0.11000
H 	H 	0.56480 0.09020 0.95960 0.07100
C 	C 	0.58862 0.10507 0.97413 0.06900
H 	H 	0.59120 0.09400 0.98360 -0.00200
C 	C 	0.62190 0.17448 0.00110 0.10800
C 	C 	0.66748 0.11220 0.01753 0.05200
H 	H 	0.66650 0.10210 0.00680 0.00300
C 	C 	0.68479 0.11274 0.02894 -0.09600
H 	H 	0.69550 0.10280 0.02670 0.06600
C 	C 	0.68705 0.12821 0.04439 0.00500
H 	H 	0.69940 0.12930 0.05240 0.03900
C 	C 	0.67042 0.14173 0.04744 -0.05300
C 	C 	0.65304 0.13995 0.03479 0.04600
H 	H 	0.64210 0.14970 0.03660 0.01100
C 	C 	0.67139 0.15793 0.06323 0.13300
N 	N 	0.61490 0.23439 0.90997 -0.22400
N 	N 	0.47691 0.13675 0.85465 -0.26000
N 	N 	0.51757 0.14932 0.87328 -0.22900
N 	N 	0.57092 0.18691 0.90943 -0.15500
N 	N 	0.56142 0.15342 0.92023 -0.15300
N 	N 	0.58754 0.17226 0.93849 -0.15200
N 	N 	0.60074 0.12173 0.97512 -0.23400
N 	N 	0.65084 0.12548 0.02033 -0.22600
N 	N 	0.62293 0.15703 0.99898 -0.26700
N 	N 	0.65657 0.17249 0.06313 -0.15000
S 	S 	0.45983 0.16565 0.82743 -0.06300
S 	S 	0.62079 0.20025 0.00359 -0.06100
C 	C 	0.10166 0.71822 0.91010 0.03700
H 	H 	0.09430 0.71510 0.89760 0.01300
C 	C 	0.09811 0.70583 0.92727 -0.05200
C 	C 	0.10817 0.71049 0.94563 0.01000
H 	H 	0.10660 0.70190 0.95760 0.03700
C 	C 	0.12062 0.72798 0.94617 -0.10000
H 	H 	0.12670 0.73240 0.95890 0.06600
C 	C 	0.12422 0.73901 0.92829 0.05800
H 	H 	0.13370 0.75040 0.92880 0.00100
C 	C 	0.96900 0.64849 0.84342 0.09800
C 	C 	0.01673 0.66484 0.85933 0.06500
H 	H 	0.00640 0.66400 0.84880 -0.00300
C 	C 	0.02959 0.68170 0.85923 -0.10700
H 	H 	0.02870 0.69180 0.84850 0.06800
C 	C 	0.04389 0.68376 0.87505 0.01400
H 	H 	0.05310 0.69530 0.87550 0.03500
C 	C 	0.04454 0.66846 0.89046 -0.05500
C 	C 	0.03115 0.65199 0.88885 0.04300
H 	H 	0.03150 0.64180 0.89950 0.01300
C 	C 	0.05983 0.66996 0.90793 0.14200
C 	C 	0.07570 0.65497 0.93522 0.13600
C 	C 	0.08463 0.68747 0.92526 0.13900
C 	C 	0.09659 0.63717 0.96236 0.04800
H 	H 	0.10540 0.64900 0.96260 0.00900
C 	C 	0.07962 0.63702 0.94823 -0.05800
C 	C 	0.06788 0.61914 0.94724 0.01800
H 	H 	0.05670 0.61810 0.93770 0.03500
C 	C 	0.07249 0.60276 0.96019 -0.11000
H 	H 	0.06480 0.59020 0.95960 0.07100
C 	C 	0.08862 0.60507 0.97413 0.06900
H 	H 	0.09120 0.59400 0.98360 -0.00200
C 	C 	0.12190 0.67448 0.00110 0.10800
C 	C 	0.16748 0.61220 0.01753 0.05200
H 	H 	0.16650 0.60210 0.00680 0.00300
C 	C 	0.18479 0.61274 0.02894 -0.09600
H 	H 	0.19550 0.60280 0.02670 0.06600
C 	C 	0.18705 0.62821 0.04439 0.00500
H 	H 	0.19940 0.62930 0.05240 0.03900
C 	C 	0.17042 0.64173 0.04744 -0.05300
C 	C 	0.15304 0.63995 0.03479 0.04600
H 	H 	0.14210 0.64970 0.03660 0.01100
C 	C 	0.17139 0.65793 0.06323 0.13300
N 	N 	0.11490 0.73439 0.90997 -0.22400
N 	N 	0.97691 0.63675 0.85465 -0.26000
N 	N 	0.01757 0.64932 0.87328 -0.22900
N 	N 	0.07092 0.68691 0.90943 -0.15500
N 	N 	0.06142 0.65342 0.92023 -0.15300
N 	N 	0.08754 0.67226 0.93849 -0.15200
N 	N 	0.10074 0.62173 0.97512 -0.23400
N 	N 	0.15084 0.62548 0.02033 -0.22600
N 	N 	0.12293 0.65703 0.99898 -0.26700
N 	N 	0.15657 0.67249 0.06313 -0.15000
S 	S 	0.95983 0.66565 0.82743 -0.06300
S 	S 	0.12079 0.70025 0.00359 -0.06100
C 	C 	0.10166 0.21822 0.41010 0.03700
H 	H 	0.09430 0.21510 0.39760 0.01300
C 	C 	0.09811 0.20583 0.42727 -0.05200
C 	C 	0.10817 0.21049 0.44563 0.01000
H 	H 	0.10660 0.20190 0.45760 0.03700
C 	C 	0.12062 0.22798 0.44617 -0.10000
H 	H 	0.12670 0.23240 0.45890 0.06600
C 	C 	0.12422 0.23901 0.42829 0.05800
H 	H 	0.13370 0.25040 0.42880 0.00100
C 	C 	0.96900 0.14849 0.34342 0.09800
C 	C 	0.01673 0.16484 0.35933 0.06500
H 	H 	0.00640 0.16400 0.34880 -0.00300
C 	C 	0.02959 0.18170 0.35923 -0.10700
H 	H 	0.02870 0.19180 0.34850 0.06800
C 	C 	0.04389 0.18376 0.37505 0.01400
H 	H 	0.05310 0.19530 0.37550 0.03500
C 	C 	0.04454 0.16846 0.39046 -0.05500
C 	C 	0.03115 0.15199 0.38885 0.04300
H 	H 	0.03150 0.14180 0.39950 0.01300
C 	C 	0.05983 0.16996 0.40793 0.14200
C 	C 	0.07570 0.15497 0.43522 0.13600
C 	C 	0.08463 0.18747 0.42526 0.13900
C 	C 	0.09659 0.13717 0.46236 0.04800
H 	H 	0.10540 0.14900 0.46260 0.00900
C 	C 	0.07962 0.13702 0.44823 -0.05800
C 	C 	0.06788 0.11914 0.44724 0.01800
H 	H 	0.05670 0.11810 0.43770 0.03500
C 	C 	0.07249 0.10276 0.46019 -0.11000
H 	H 	0.06480 0.09020 0.45960 0.07100
C 	C 	0.08862 0.10507 0.47413 0.06900
H 	H 	0.09120 0.09400 0.48360 -0.00200
C 	C 	0.12190 0.17448 0.50110 0.10800
C 	C 	0.16748 0.11220 0.51753 0.05200
H 	H 	0.16650 0.10210 0.50680 0.00300
C 	C 	0.18479 0.11274 0.52894 -0.09600
H 	H 	0.19550 0.10280 0.52670 0.06600
C 	C 	0.18705 0.12821 0.54439 0.00500
H 	H 	0.19940 0.12930 0.55240 0.03900
C 	C 	0.17042 0.14173 0.54744 -0.05300
C 	C 	0.15304 0.13995 0.53479 0.04600
H 	H 	0.14210 0.14970 0.53660 0.01100
C 	C 	0.17139 0.15793 0.56323 0.13300
N 	N 	0.11490 0.23439 0.40997 -0.22400
N 	N 	0.97691 0.13675 0.35465 -0.26000
N 	N 	0.01757 0.14932 0.37328 -0.22900
N 	N 	0.07092 0.18691 0.40943 -0.15500
N 	N 	0.06142 0.15342 0.42023 -0.15300
N 	N 	0.08754 0.17226 0.43849 -0.15200
N 	N 	0.10074 0.12173 0.47512 -0.23400
N 	N 	0.15084 0.12548 0.52033 -0.22600
N 	N 	0.12293 0.15703 0.49898 -0.26700
N 	N 	0.15657 0.17249 0.56313 -0.15000
S 	S 	0.95983 0.16565 0.32743 -0.06300
S 	S 	0.12079 0.20025 0.50359 -0.06100
C 	C 	0.14834 0.21822 0.83990 0.03700
H 	H 	0.15570 0.21510 0.85240 0.01300
C 	C 	0.15189 0.20583 0.82273 -0.05200
C 	C 	0.14183 0.21049 0.80437 0.01000
H 	H 	0.14340 0.20190 0.79240 0.03700
C 	C 	0.12938 0.22798 0.80383 -0.10000
H 	H 	0.12330 0.23240 0.79110 0.06600
C 	C 	0.12578 0.23901 0.82171 0.05800
H 	H 	0.11630 0.25040 0.82120 0.00100
C 	C 	0.28100 0.14849 0.90658 0.09800
C 	C 	0.23327 0.16484 0.89067 0.06500
H 	H 	0.24360 0.16400 0.90120 -0.00300
C 	C 	0.22041 0.18170 0.89077 -0.10700
H 	H 	0.22130 0.19180 0.90150 0.06800
C 	C 	0.20611 0.18376 0.87495 0.01400
H 	H 	0.19690 0.19530 0.87450 0.03500
C 	C 	0.20546 0.16846 0.85954 -0.05500
C 	C 	0.21885 0.15199 0.86115 0.04300
H 	H 	0.21850 0.14180 0.85050 0.01300
C 	C 	0.19017 0.16996 0.84207 0.14200
C 	C 	0.17430 0.15497 0.81478 0.13600
C 	C 	0.16537 0.18747 0.82474 0.13900
C 	C 	0.15341 0.13717 0.78764 0.04800
H 	H 	0.14460 0.14900 0.78740 0.00900
C 	C 	0.17038 0.13702 0.80177 -0.05800
C 	C 	0.18212 0.11914 0.80276 0.01800
H 	H 	0.19330 0.11810 0.81230 0.03500
C 	C 	0.17751 0.10276 0.78981 -0.11000
H 	H 	0.18520 0.09020 0.79040 0.07100
C 	C 	0.16138 0.10507 0.77587 0.06900
H 	H 	0.15880 0.09400 0.76640 -0.00200
C 	C 	0.12810 0.17448 0.74890 0.10800
C 	C 	0.08252 0.11220 0.73247 0.05200
H 	H 	0.08350 0.10210 0.74320 0.00300
C 	C 	0.06521 0.11274 0.72106 -0.09600
H 	H 	0.05450 0.10280 0.72330 0.06600
C 	C 	0.06295 0.12821 0.70561 0.00500
H 	H 	0.05060 0.12930 0.69760 0.03900
C 	C 	0.07958 0.14173 0.70256 -0.05300
C 	C 	0.09696 0.13995 0.71521 0.04600
H 	H 	0.10790 0.14970 0.71340 0.01100
C 	C 	0.07861 0.15793 0.68677 0.13300
N 	N 	0.13510 0.23439 0.84003 -0.22400
N 	N 	0.27309 0.13675 0.89535 -0.26000
N 	N 	0.23243 0.14932 0.87672 -0.22900
N 	N 	0.17908 0.18691 0.84057 -0.15500
N 	N 	0.18858 0.15342 0.82977 -0.15300
N 	N 	0.16246 0.17226 0.81151 -0.15200
N 	N 	0.14926 0.12173 0.77488 -0.23400
N 	N 	0.09916 0.12548 0.72967 -0.22600
N 	N 	0.12707 0.15703 0.75102 -0.26700
N 	N 	0.09343 0.17249 0.68687 -0.15000
S 	S 	0.29017 0.16565 0.92257 -0.06300
S 	S 	0.12921 0.20025 0.74641 -0.06100
C 	C 	0.14834 0.71822 0.33990 0.03700
H 	H 	0.15570 0.71510 0.35240 0.01300
C 	C 	0.15189 0.70583 0.32273 -0.05200
C 	C 	0.14183 0.71049 0.30437 0.01000
H 	H 	0.14340 0.70190 0.29240 0.03700
C 	C 	0.12938 0.72798 0.30383 -0.10000
H 	H 	0.12330 0.73240 0.29110 0.06600
C 	C 	0.12578 0.73901 0.32171 0.05800
H 	H 	0.11630 0.75040 0.32120 0.00100
C 	C 	0.28100 0.64849 0.40658 0.09800
C 	C 	0.23327 0.66484 0.39067 0.06500
H 	H 	0.24360 0.66400 0.40120 -0.00300
C 	C 	0.22041 0.68170 0.39077 -0.10700
H 	H 	0.22130 0.69180 0.40150 0.06800
C 	C 	0.20611 0.68376 0.37495 0.01400
H 	H 	0.19690 0.69530 0.37450 0.03500
C 	C 	0.20546 0.66846 0.35954 -0.05500
C 	C 	0.21885 0.65199 0.36115 0.04300
H 	H 	0.21850 0.64180 0.35050 0.01300
C 	C 	0.19017 0.66996 0.34207 0.14200
C 	C 	0.17430 0.65497 0.31478 0.13600
C 	C 	0.16537 0.68747 0.32474 0.13900
C 	C 	0.15341 0.63717 0.28764 0.04800
H 	H 	0.14460 0.64900 0.28740 0.00900
C 	C 	0.17038 0.63702 0.30177 -0.05800
C 	C 	0.18212 0.61914 0.30276 0.01800
H 	H 	0.19330 0.61810 0.31230 0.03500
C 	C 	0.17751 0.60276 0.28981 -0.11000
H 	H 	0.18520 0.59020 0.29040 0.07100
C 	C 	0.16138 0.60507 0.27587 0.06900
H 	H 	0.15880 0.59400 0.26640 -0.00200
C 	C 	0.12810 0.67448 0.24890 0.10800
C 	C 	0.08252 0.61220 0.23247 0.05200
H 	H 	0.08350 0.60210 0.24320 0.00300
C 	C 	0.06521 0.61274 0.22106 -0.09600
H 	H 	0.05450 0.60280 0.22330 0.06600
C 	C 	0.06295 0.62821 0.20561 0.00500
H 	H 	0.05060 0.62930 0.19760 0.03900
C 	C 	0.07958 0.64173 0.20256 -0.05300
C 	C 	0.09696 0.63995 0.21521 0.04600
H 	H 	0.10790 0.64970 0.21340 0.01100
C 	C 	0.07861 0.65793 0.18677 0.13300
N 	N 	0.13510 0.73439 0.34003 -0.22400
N 	N 	0.27309 0.63675 0.39535 -0.26000
N 	N 	0.23243 0.64932 0.37672 -0.22900
N 	N 	0.17908 0.68691 0.34057 -0.15500
N 	N 	0.18858 0.65342 0.32977 -0.15300
N 	N 	0.16246 0.67226 0.31151 -0.15200
N 	N 	0.14926 0.62173 0.27488 -0.23400
N 	N 	0.09916 0.62548 0.22967 -0.22600
N 	N 	0.12707 0.65703 0.25102 -0.26700
N 	N 	0.09343 0.67249 0.18687 -0.15000
S 	S 	0.29017 0.66565 0.42257 -0.06300
S 	S 	0.12921 0.70025 0.24641 -0.06100
C 	C 	0.64834 0.21822 0.33990 0.03700
H 	H 	0.65570 0.21510 0.35240 0.01300
C 	C 	0.65189 0.20583 0.32273 -0.05200
C 	C 	0.64183 0.21049 0.30437 0.01000
H 	H 	0.64340 0.20190 0.29240 0.03700
C 	C 	0.62938 0.22798 0.30383 -0.10000
H 	H 	0.62330 0.23240 0.29110 0.06600
C 	C 	0.62578 0.23901 0.32171 0.05800
H 	H 	0.61630 0.25040 0.32120 0.00100
C 	C 	0.78100 0.14849 0.40658 0.09800
C 	C 	0.73327 0.16484 0.39067 0.06500
H 	H 	0.74360 0.16400 0.40120 -0.00300
C 	C 	0.72041 0.18170 0.39077 -0.10700
H 	H 	0.72130 0.19180 0.40150 0.06800
C 	C 	0.70611 0.18376 0.37495 0.01400
H 	H 	0.69690 0.19530 0.37450 0.03500
C 	C 	0.70546 0.16846 0.35954 -0.05500
C 	C 	0.71885 0.15199 0.36115 0.04300
H 	H 	0.71850 0.14180 0.35050 0.01300
C 	C 	0.69017 0.16996 0.34207 0.14200
C 	C 	0.67430 0.15497 0.31478 0.13600
C 	C 	0.66537 0.18747 0.32474 0.13900
C 	C 	0.65341 0.13717 0.28764 0.04800
H 	H 	0.64460 0.14900 0.28740 0.00900
C 	C 	0.67038 0.13702 0.30177 -0.05800
C 	C 	0.68212 0.11914 0.30276 0.01800
H 	H 	0.69330 0.11810 0.31230 0.03500
C 	C 	0.67751 0.10276 0.28981 -0.11000
H 	H 	0.68520 0.09020 0.29040 0.07100
C 	C 	0.66138 0.10507 0.27587 0.06900
H 	H 	0.65880 0.09400 0.26640 -0.00200
C 	C 	0.62810 0.17448 0.24890 0.10800
C 	C 	0.58252 0.11220 0.23247 0.05200
H 	H 	0.58350 0.10210 0.24320 0.00300
C 	C 	0.56521 0.11274 0.22106 -0.09600
H 	H 	0.55450 0.10280 0.22330 0.06600
C 	C 	0.56295 0.12821 0.20561 0.00500
H 	H 	0.55060 0.12930 0.19760 0.03900
C 	C 	0.57958 0.14173 0.20256 -0.05300
C 	C 	0.59696 0.13995 0.21521 0.04600
H 	H 	0.60790 0.14970 0.21340 0.01100
C 	C 	0.57861 0.15793 0.18677 0.13300
N 	N 	0.63510 0.23439 0.34003 -0.22400
N 	N 	0.77309 0.13675 0.39535 -0.26000
N 	N 	0.73243 0.14932 0.37672 -0.22900
N 	N 	0.67908 0.18691 0.34057 -0.15500
N 	N 	0.68858 0.15342 0.32977 -0.15300
N 	N 	0.66246 0.17226 0.31151 -0.15200
N 	N 	0.64926 0.12173 0.27488 -0.23400
N 	N 	0.59916 0.12548 0.22967 -0.22600
N 	N 	0.62707 0.15703 0.25102 -0.26700
N 	N 	0.59343 0.17249 0.18687 -0.15000
S 	S 	0.79017 0.16565 0.42257 -0.06300
S 	S 	0.62921 0.20025 0.24641 -0.06100
C 	C 	0.64834 0.71822 0.83990 0.03700
H 	H 	0.65570 0.71510 0.85240 0.01300
C 	C 	0.65189 0.70583 0.82273 -0.05200
C 	C 	0.64183 0.71049 0.80437 0.01000
H 	H 	0.64340 0.70190 0.79240 0.03700
C 	C 	0.62938 0.72798 0.80383 -0.10000
H 	H 	0.62330 0.73240 0.79110 0.06600
C 	C 	0.62578 0.73901 0.82171 0.05800
H 	H 	0.61630 0.75040 0.82120 0.00100
C 	C 	0.78100 0.64849 0.90658 0.09800
C 	C 	0.73327 0.66484 0.89067 0.06500
H 	H 	0.74360 0.66400 0.90120 -0.00300
C 	C 	0.72041 0.68170 0.89077 -0.10700
H 	H 	0.72130 0.69180 0.90150 0.06800
C 	C 	0.70611 0.68376 0.87495 0.01400
H 	H 	0.69690 0.69530 0.87450 0.03500
C 	C 	0.70546 0.66846 0.85954 -0.05500
C 	C 	0.71885 0.65199 0.86115 0.04300
H 	H 	0.71850 0.64180 0.85050 0.01300
C 	C 	0.69017 0.66996 0.84207 0.14200
C 	C 	0.67430 0.65497 0.81478 0.13600
C 	C 	0.66537 0.68747 0.82474 0.13900
C 	C 	0.65341 0.63717 0.78764 0.04800
H 	H 	0.64460 0.64900 0.78740 0.00900
C 	C 	0.67038 0.63702 0.80177 -0.05800
C 	C 	0.68212 0.61914 0.80276 0.01800
H 	H 	0.69330 0.61810 0.81230 0.03500
C 	C 	0.67751 0.60276 0.78981 -0.11000
H 	H 	0.68520 0.59020 0.79040 0.07100
C 	C 	0.66138 0.60507 0.77587 0.06900
H 	H 	0.65880 0.59400 0.76640 -0.00200
C 	C 	0.62810 0.67448 0.74890 0.10800
C 	C 	0.58252 0.61220 0.73247 0.05200
H 	H 	0.58350 0.60210 0.74320 0.00300
C 	C 	0.56521 0.61274 0.72106 -0.09600
H 	H 	0.55450 0.60280 0.72330 0.06600
C 	C 	0.56295 0.62821 0.70561 0.00500
H 	H 	0.55060 0.62930 0.69760 0.03900
C 	C 	0.57958 0.64173 0.70256 -0.05300
C 	C 	0.59696 0.63995 0.71521 0.04600
H 	H 	0.60790 0.64970 0.71340 0.01100
C 	C 	0.57861 0.65793 0.68677 0.13300
N 	N 	0.63510 0.73439 0.84003 -0.22400
N 	N 	0.77309 0.63675 0.89535 -0.26000
N 	N 	0.73243 0.64932 0.87672 -0.22900
N 	N 	0.67908 0.68691 0.84057 -0.15500
N 	N 	0.68858 0.65342 0.82977 -0.15300
N 	N 	0.66246 0.67226 0.81151 -0.15200
N 	N 	0.64926 0.62173 0.77488 -0.23400
N 	N 	0.59916 0.62548 0.72967 -0.22600
N 	N 	0.62707 0.65703 0.75102 -0.26700
N 	N 	0.59343 0.67249 0.68687 -0.15000
S 	S 	0.79017 0.66565 0.92257 -0.06300
S 	S 	0.62921 0.70025 0.74641 -0.06100
C 	C 	0.64834 0.03178 0.91010 0.03700
H 	H 	0.65570 0.03490 0.89760 0.01300
C 	C 	0.65189 0.04417 0.92727 -0.05200
C 	C 	0.64183 0.03951 0.94563 0.01000
H 	H 	0.64340 0.04810 0.95760 0.03700
C 	C 	0.62938 0.02202 0.94617 -0.10000
H 	H 	0.62330 0.01760 0.95890 0.06600
C 	C 	0.62578 0.01099 0.92829 0.05800
H 	H 	0.61630 0.99960 0.92880 0.00100
C 	C 	0.78100 0.10151 0.84342 0.09800
C 	C 	0.73327 0.08516 0.85933 0.06500
H 	H 	0.74360 0.08600 0.84880 -0.00300
C 	C 	0.72041 0.06830 0.85923 -0.10700
H 	H 	0.72130 0.05820 0.84850 0.06800
C 	C 	0.70611 0.06624 0.87505 0.01400
H 	H 	0.69690 0.05470 0.87550 0.03500
C 	C 	0.70546 0.08154 0.89046 -0.05500
C 	C 	0.71885 0.09801 0.88885 0.04300
H 	H 	0.71850 0.10820 0.89950 0.01300
C 	C 	0.69017 0.08004 0.90793 0.14200
C 	C 	0.67430 0.09503 0.93522 0.13600
C 	C 	0.66537 0.06253 0.92526 0.13900
C 	C 	0.65341 0.11283 0.96236 0.04800
H 	H 	0.64460 0.10100 0.96260 0.00900
C 	C 	0.67038 0.11298 0.94823 -0.05800
C 	C 	0.68212 0.13086 0.94724 0.01800
H 	H 	0.69330 0.13190 0.93770 0.03500
C 	C 	0.67751 0.14724 0.96019 -0.11000
H 	H 	0.68520 0.15980 0.95960 0.07100
C 	C 	0.66138 0.14493 0.97413 0.06900
H 	H 	0.65880 0.15600 0.98360 -0.00200
C 	C 	0.62810 0.07552 0.00110 0.10800
C 	C 	0.58252 0.13780 0.01753 0.05200
H 	H 	0.58350 0.14790 0.00680 0.00300
C 	C 	0.56521 0.13726 0.02894 -0.09600
H 	H 	0.55450 0.14720 0.02670 0.06600
C 	C 	0.56295 0.12179 0.04439 0.00500
H 	H 	0.55060 0.12070 0.05240 0.03900
C 	C 	0.57958 0.10827 0.04744 -0.05300
C 	C 	0.59696 0.11005 0.03479 0.04600
H 	H 	0.60790 0.10030 0.03660 0.01100
C 	C 	0.57861 0.09207 0.06323 0.13300
N 	N 	0.63510 0.01561 0.90997 -0.22400
N 	N 	0.77309 0.11325 0.85465 -0.26000
N 	N 	0.73243 0.10068 0.87328 -0.22900
N 	N 	0.67908 0.06309 0.90943 -0.15500
N 	N 	0.68858 0.09658 0.92023 -0.15300
N 	N 	0.66246 0.07774 0.93849 -0.15200
N 	N 	0.64926 0.12827 0.97512 -0.23400
N 	N 	0.59916 0.12452 0.02033 -0.22600
N 	N 	0.62707 0.09297 0.99898 -0.26700
N 	N 	0.59343 0.07751 0.06313 -0.15000
S 	S 	0.79017 0.08435 0.82743 -0.06300
S 	S 	0.62921 0.04975 0.00359 -0.06100
C 	C 	0.64834 0.53178 0.41010 0.03700
H 	H 	0.65570 0.53490 0.39760 0.01300
C 	C 	0.65189 0.54417 0.42727 -0.05200
C 	C 	0.64183 0.53951 0.44563 0.01000
H 	H 	0.64340 0.54810 0.45760 0.03700
C 	C 	0.62938 0.52202 0.44617 -0.10000
H 	H 	0.62330 0.51760 0.45890 0.06600
C 	C 	0.62578 0.51099 0.42829 0.05800
H 	H 	0.61630 0.49960 0.42880 0.00100
C 	C 	0.78100 0.60151 0.34342 0.09800
C 	C 	0.73327 0.58516 0.35933 0.06500
H 	H 	0.74360 0.58600 0.34880 -0.00300
C 	C 	0.72041 0.56830 0.35923 -0.10700
H 	H 	0.72130 0.55820 0.34850 0.06800
C 	C 	0.70611 0.56624 0.37505 0.01400
H 	H 	0.69690 0.55470 0.37550 0.03500
C 	C 	0.70546 0.58154 0.39046 -0.05500
C 	C 	0.71885 0.59801 0.38885 0.04300
H 	H 	0.71850 0.60820 0.39950 0.01300
C 	C 	0.69017 0.58004 0.40793 0.14200
C 	C 	0.67430 0.59503 0.43522 0.13600
C 	C 	0.66537 0.56253 0.42526 0.13900
C 	C 	0.65341 0.61283 0.46236 0.04800
H 	H 	0.64460 0.60100 0.46260 0.00900
C 	C 	0.67038 0.61298 0.44823 -0.05800
C 	C 	0.68212 0.63086 0.44724 0.01800
H 	H 	0.69330 0.63190 0.43770 0.03500
C 	C 	0.67751 0.64724 0.46019 -0.11000
H 	H 	0.68520 0.65980 0.45960 0.07100
C 	C 	0.66138 0.64493 0.47413 0.06900
H 	H 	0.65880 0.65600 0.48360 -0.00200
C 	C 	0.62810 0.57552 0.50110 0.10800
C 	C 	0.58252 0.63780 0.51753 0.05200
H 	H 	0.58350 0.64790 0.50680 0.00300
C 	C 	0.56521 0.63726 0.52894 -0.09600
H 	H 	0.55450 0.64720 0.52670 0.06600
C 	C 	0.56295 0.62179 0.54439 0.00500
H 	H 	0.55060 0.62070 0.55240 0.03900
C 	C 	0.57958 0.60827 0.54744 -0.05300
C 	C 	0.59696 0.61005 0.53479 0.04600
H 	H 	0.60790 0.60030 0.53660 0.01100
C 	C 	0.57861 0.59207 0.56323 0.13300
N 	N 	0.63510 0.51561 0.40997 -0.22400
N 	N 	0.77309 0.61325 0.35465 -0.26000
N 	N 	0.73243 0.60068 0.37328 -0.22900
N 	N 	0.67908 0.56309 0.40943 -0.15500
N 	N 	0.68858 0.59658 0.42023 -0.15300
N 	N 	0.66246 0.57774 0.43849 -0.15200
N 	N 	0.64926 0.62827 0.47512 -0.23400
N 	N 	0.59916 0.62452 0.52033 -0.22600
N 	N 	0.62707 0.59297 0.49898 -0.26700
N 	N 	0.59343 0.57751 0.56313 -0.15000
S 	S 	0.79017 0.58435 0.32743 -0.06300
S 	S 	0.62921 0.54975 0.50359 -0.06100
C 	C 	0.14834 0.03178 0.41010 0.03700
H 	H 	0.15570 0.03490 0.39760 0.01300
C 	C 	0.15189 0.04417 0.42727 -0.05200
C 	C 	0.14183 0.03951 0.44563 0.01000
H 	H 	0.14340 0.04810 0.45760 0.03700
C 	C 	0.12938 0.02202 0.44617 -0.10000
H 	H 	0.12330 0.01760 0.45890 0.06600
C 	C 	0.12578 0.01099 0.42829 0.05800
H 	H 	0.11630 0.99960 0.42880 0.00100
C 	C 	0.28100 0.10151 0.34342 0.09800
C 	C 	0.23327 0.08516 0.35933 0.06500
H 	H 	0.24360 0.08600 0.34880 -0.00300
C 	C 	0.22041 0.06830 0.35923 -0.10700
H 	H 	0.22130 0.05820 0.34850 0.06800
C 	C 	0.20611 0.06624 0.37505 0.01400
H 	H 	0.19690 0.05470 0.37550 0.03500
C 	C 	0.20546 0.08154 0.39046 -0.05500
C 	C 	0.21885 0.09801 0.38885 0.04300
H 	H 	0.21850 0.10820 0.39950 0.01300
C 	C 	0.19017 0.08004 0.40793 0.14200
C 	C 	0.17430 0.09503 0.43522 0.13600
C 	C 	0.16537 0.06253 0.42526 0.13900
C 	C 	0.15341 0.11283 0.46236 0.04800
H 	H 	0.14460 0.10100 0.46260 0.00900
C 	C 	0.17038 0.11298 0.44823 -0.05800
C 	C 	0.18212 0.13086 0.44724 0.01800
H 	H 	0.19330 0.13190 0.43770 0.03500
C 	C 	0.17751 0.14724 0.46019 -0.11000
H 	H 	0.18520 0.15980 0.45960 0.07100
C 	C 	0.16138 0.14493 0.47413 0.06900
H 	H 	0.15880 0.15600 0.48360 -0.00200
C 	C 	0.12810 0.07552 0.50110 0.10800
C 	C 	0.08252 0.13780 0.51753 0.05200
H 	H 	0.08350 0.14790 0.50680 0.00300
C 	C 	0.06521 0.13726 0.52894 -0.09600
H 	H 	0.05450 0.14720 0.52670 0.06600
C 	C 	0.06295 0.12179 0.54439 0.00500
H 	H 	0.05060 0.12070 0.55240 0.03900
C 	C 	0.07958 0.10827 0.54744 -0.05300
C 	C 	0.09696 0.11005 0.53479 0.04600
H 	H 	0.10790 0.10030 0.53660 0.01100
C 	C 	0.07861 0.09207 0.56323 0.13300
N 	N 	0.13510 0.01561 0.40997 -0.22400
N 	N 	0.27309 0.11325 0.35465 -0.26000
N 	N 	0.23243 0.10068 0.37328 -0.22900
N 	N 	0.17908 0.06309 0.40943 -0.15500
N 	N 	0.18858 0.09658 0.42023 -0.15300
N 	N 	0.16246 0.07774 0.43849 -0.15200
N 	N 	0.14926 0.12827 0.47512 -0.23400
N 	N 	0.09916 0.12452 0.52033 -0.22600
N 	N 	0.12707 0.09297 0.49898 -0.26700
N 	N 	0.09343 0.07751 0.56313 -0.15000
S 	S 	0.29017 0.08435 0.32743 -0.06300
S 	S 	0.12921 0.04975 0.50359 -0.06100
C 	C 	0.14834 0.53178 0.91010 0.03700
H 	H 	0.15570 0.53490 0.89760 0.01300
C 	C 	0.15189 0.54417 0.92727 -0.05200
C 	C 	0.14183 0.53951 0.94563 0.01000
H 	H 	0.14340 0.54810 0.95760 0.03700
C 	C 	0.12938 0.52202 0.94617 -0.10000
H 	H 	0.12330 0.51760 0.95890 0.06600
C 	C 	0.12578 0.51099 0.92829 0.05800
H 	H 	0.11630 0.49960 0.92880 0.00100
C 	C 	0.28100 0.60151 0.84342 0.09800
C 	C 	0.23327 0.58516 0.85933 0.06500
H 	H 	0.24360 0.58600 0.84880 -0.00300
C 	C 	0.22041 0.56830 0.85923 -0.10700
H 	H 	0.22130 0.55820 0.84850 0.06800
C 	C 	0.20611 0.56624 0.87505 0.01400
H 	H 	0.19690 0.55470 0.87550 0.03500
C 	C 	0.20546 0.58154 0.89046 -0.05500
C 	C 	0.21885 0.59801 0.88885 0.04300
H 	H 	0.21850 0.60820 0.89950 0.01300
C 	C 	0.19017 0.58004 0.90793 0.14200
C 	C 	0.17430 0.59503 0.93522 0.13600
C 	C 	0.16537 0.56253 0.92526 0.13900
C 	C 	0.15341 0.61283 0.96236 0.04800
H 	H 	0.14460 0.60100 0.96260 0.00900
C 	C 	0.17038 0.61298 0.94823 -0.05800
C 	C 	0.18212 0.63086 0.94724 0.01800
H 	H 	0.19330 0.63190 0.93770 0.03500
C 	C 	0.17751 0.64724 0.96019 -0.11000
H 	H 	0.18520 0.65980 0.95960 0.07100
C 	C 	0.16138 0.64493 0.97413 0.06900
H 	H 	0.15880 0.65600 0.98360 -0.00200
C 	C 	0.12810 0.57552 0.00110 0.10800
C 	C 	0.08252 0.63780 0.01753 0.05200
H 	H 	0.08350 0.64790 0.00680 0.00300
C 	C 	0.06521 0.63726 0.02894 -0.09600
H 	H 	0.05450 0.64720 0.02670 0.06600
C 	C 	0.06295 0.62179 0.04439 0.00500
H 	H 	0.05060 0.62070 0.05240 0.03900
C 	C 	0.07958 0.60827 0.04744 -0.05300
C 	C 	0.09696 0.61005 0.03479 0.04600
H 	H 	0.10790 0.60030 0.03660 0.01100
C 	C 	0.07861 0.59207 0.06323 0.13300
N 	N 	0.13510 0.51561 0.90997 -0.22400
N 	N 	0.27309 0.61325 0.85465 -0.26000
N 	N 	0.23243 0.60068 0.87328 -0.22900
N 	N 	0.17908 0.56309 0.90943 -0.15500
N 	N 	0.18858 0.59658 0.92023 -0.15300
N 	N 	0.16246 0.57774 0.93849 -0.15200
N 	N 	0.14926 0.62827 0.97512 -0.23400
N 	N 	0.09916 0.62452 0.02033 -0.22600
N 	N 	0.12707 0.59297 0.99898 -0.26700
N 	N 	0.09343 0.57751 0.06313 -0.15000
S 	S 	0.29017 0.58435 0.82743 -0.06300
S 	S 	0.12921 0.54975 0.00359 -0.06100
C 	C 	0.33990 0.10166 0.53178 0.03700
H 	H 	0.35240 0.09430 0.53490 0.01300
C 	C 	0.32273 0.09811 0.54417 -0.05200
C 	C 	0.30437 0.10817 0.53951 0.01000
H 	H 	0.29240 0.10660 0.54810 0.03700
C 	C 	0.30383 0.12062 0.52202 -0.10000
H 	H 	0.29110 0.12670 0.51760 0.06600
C 	C 	0.32171 0.12422 0.51099 0.05800
H 	H 	0.32120 0.13370 0.49960 0.00100
C 	C 	0.40658 0.96900 0.60151 0.09800
C 	C 	0.39067 0.01673 0.58516 0.06500
H 	H 	0.40120 0.00640 0.58600 -0.00300
C 	C 	0.39077 0.02959 0.56830 -0.10700
H 	H 	0.40150 0.02870 0.55820 0.06800
C 	C 	0.37495 0.04389 0.56624 0.01400
H 	H 	0.37450 0.05310 0.55470 0.03500
C 	C 	0.35954 0.04454 0.58154 -0.05500
C 	C 	0.36115 0.03115 0.59801 0.04300
H 	H 	0.35050 0.03150 0.60820 0.01300
C 	C 	0.34207 0.05983 0.58004 0.14200
C 	C 	0.31478 0.07570 0.59503 0.13600
C 	C 	0.32474 0.08463 0.56253 0.13900
C 	C 	0.28764 0.09659 0.61283 0.04800
H 	H 	0.28740 0.10540 0.60100 0.00900
C 	C 	0.30177 0.07962 0.61298 -0.05800
C 	C 	0.30276 0.06788 0.63086 0.01800
H 	H 	0.31230 0.05670 0.63190 0.03500
C 	C 	0.28981 0.07249 0.64724 -0.11000
H 	H 	0.29040 0.06480 0.65980 0.07100
C 	C 	0.27587 0.08862 0.64493 0.06900
H 	H 	0.26640 0.09120 0.65600 -0.00200
C 	C 	0.24890 0.12190 0.57552 0.10800
C 	C 	0.23247 0.16748 0.63780 0.05200
H 	H 	0.24320 0.16650 0.64790 0.00300
C 	C 	0.22106 0.18479 0.63726 -0.09600
H 	H 	0.22330 0.19550 0.64720 0.06600
C 	C 	0.20561 0.18705 0.62179 0.00500
H 	H 	0.19760 0.19940 0.62070 0.03900
C 	C 	0.20256 0.17042 0.60827 -0.05300
C 	C 	0.21521 0.15304 0.61005 0.04600
H 	H 	0.21340 0.14210 0.60030 0.01100
C 	C 	0.18677 0.17139 0.59207 0.13300
N 	N 	0.34003 0.11490 0.51561 -0.22400
N 	N 	0.39535 0.97691 0.61325 -0.26000
N 	N 	0.37672 0.01757 0.60068 -0.22900
N 	N 	0.34057 0.07092 0.56309 -0.15500
N 	N 	0.32977 0.06142 0.59658 -0.15300
N 	N 	0.31151 0.08754 0.57774 -0.15200
N 	N 	0.27488 0.10074 0.62827 -0.23400
N 	N 	0.22967 0.15084 0.62452 -0.22600
N 	N 	0.25102 0.12293 0.59297 -0.26700
N 	N 	0.18687 0.15657 0.57751 -0.15000
S 	S 	0.42257 0.95983 0.58435 -0.06300
S 	S 	0.24641 0.12079 0.54975 -0.06100
C 	C 	0.33990 0.60166 0.03178 0.03700
H 	H 	0.35240 0.59430 0.03490 0.01300
C 	C 	0.32273 0.59811 0.04417 -0.05200
C 	C 	0.30437 0.60817 0.03951 0.01000
H 	H 	0.29240 0.60660 0.04810 0.03700
C 	C 	0.30383 0.62062 0.02202 -0.10000
H 	H 	0.29110 0.62670 0.01760 0.06600
C 	C 	0.32171 0.62422 0.01099 0.05800
H 	H 	0.32120 0.63370 0.99960 0.00100
C 	C 	0.40658 0.46900 0.10151 0.09800
C 	C 	0.39067 0.51673 0.08516 0.06500
H 	H 	0.40120 0.50640 0.08600 -0.00300
C 	C 	0.39077 0.52959 0.06830 -0.10700
H 	H 	0.40150 0.52870 0.05820 0.06800
C 	C 	0.37495 0.54389 0.06624 0.01400
H 	H 	0.37450 0.55310 0.05470 0.03500
C 	C 	0.35954 0.54454 0.08154 -0.05500
C 	C 	0.36115 0.53115 0.09801 0.04300
H 	H 	0.35050 0.53150 0.10820 0.01300
C 	C 	0.34207 0.55983 0.08004 0.14200
C 	C 	0.31478 0.57570 0.09503 0.13600
C 	C 	0.32474 0.58463 0.06253 0.13900
C 	C 	0.28764 0.59659 0.11283 0.04800
H 	H 	0.28740 0.60540 0.10100 0.00900
C 	C 	0.30177 0.57962 0.11298 -0.05800
C 	C 	0.30276 0.56788 0.13086 0.01800
H 	H 	0.31230 0.55670 0.13190 0.03500
C 	C 	0.28981 0.57249 0.14724 -0.11000
H 	H 	0.29040 0.56480 0.15980 0.07100
C 	C 	0.27587 0.58862 0.14493 0.06900
H 	H 	0.26640 0.59120 0.15600 -0.00200
C 	C 	0.24890 0.62190 0.07552 0.10800
C 	C 	0.23247 0.66748 0.13780 0.05200
H 	H 	0.24320 0.66650 0.14790 0.00300
C 	C 	0.22106 0.68479 0.13726 -0.09600
H 	H 	0.22330 0.69550 0.14720 0.06600
C 	C 	0.20561 0.68705 0.12179 0.00500
H 	H 	0.19760 0.69940 0.12070 0.03900
C 	C 	0.20256 0.67042 0.10827 -0.05300
C 	C 	0.21521 0.65304 0.11005 0.04600
H 	H 	0.21340 0.64210 0.10030 0.01100
C 	C 	0.18677 0.67139 0.09207 0.13300
N 	N 	0.34003 0.61490 0.01561 -0.22400
N 	N 	0.39535 0.47691 0.11325 -0.26000
N 	N 	0.37672 0.51757 0.10068 -0.22900
N 	N 	0.34057 0.57092 0.06309 -0.15500
N 	N 	0.32977 0.56142 0.09658 -0.15300
N 	N 	0.31151 0.58754 0.07774 -0.15200
N 	N 	0.27488 0.60074 0.12827 -0.23400
N 	N 	0.22967 0.65084 0.12452 -0.22600
N 	N 	0.25102 0.62293 0.09297 -0.26700
N 	N 	0.18687 0.65657 0.07751 -0.15000
S 	S 	0.42257 0.45983 0.08435 -0.06300
S 	S 	0.24641 0.62079 0.04975 -0.06100
C 	C 	0.83990 0.10166 0.03178 0.03700
H 	H 	0.85240 0.09430 0.03490 0.01300
C 	C 	0.82273 0.09811 0.04417 -0.05200
C 	C 	0.80437 0.10817 0.03951 0.01000
H 	H 	0.79240 0.10660 0.04810 0.03700
C 	C 	0.80383 0.12062 0.02202 -0.10000
H 	H 	0.79110 0.12670 0.01760 0.06600
C 	C 	0.82171 0.12422 0.01099 0.05800
H 	H 	0.82120 0.13370 0.99960 0.00100
C 	C 	0.90658 0.96900 0.10151 0.09800
C 	C 	0.89067 0.01673 0.08516 0.06500
H 	H 	0.90120 0.00640 0.08600 -0.00300
C 	C 	0.89077 0.02959 0.06830 -0.10700
H 	H 	0.90150 0.02870 0.05820 0.06800
C 	C 	0.87495 0.04389 0.06624 0.01400
H 	H 	0.87450 0.05310 0.05470 0.03500
C 	C 	0.85954 0.04454 0.08154 -0.05500
C 	C 	0.86115 0.03115 0.09801 0.04300
H 	H 	0.85050 0.03150 0.10820 0.01300
C 	C 	0.84207 0.05983 0.08004 0.14200
C 	C 	0.81478 0.07570 0.09503 0.13600
C 	C 	0.82474 0.08463 0.06253 0.13900
C 	C 	0.78764 0.09659 0.11283 0.04800
H 	H 	0.78740 0.10540 0.10100 0.00900
C 	C 	0.80177 0.07962 0.11298 -0.05800
C 	C 	0.80276 0.06788 0.13086 0.01800
H 	H 	0.81230 0.05670 0.13190 0.03500
C 	C 	0.78981 0.07249 0.14724 -0.11000
H 	H 	0.79040 0.06480 0.15980 0.07100
C 	C 	0.77587 0.08862 0.14493 0.06900
H 	H 	0.76640 0.09120 0.15600 -0.00200
C 	C 	0.74890 0.12190 0.07552 0.10800
C 	C 	0.73247 0.16748 0.13780 0.05200
H 	H 	0.74320 0.16650 0.14790 0.00300
C 	C 	0.72106 0.18479 0.13726 -0.09600
H 	H 	0.72330 0.19550 0.14720 0.06600
C 	C 	0.70561 0.18705 0.12179 0.00500
H 	H 	0.69760 0.19940 0.12070 0.03900
C 	C 	0.70256 0.17042 0.10827 -0.05300
C 	C 	0.71521 0.15304 0.11005 0.04600
H 	H 	0.71340 0.14210 0.10030 0.01100
C 	C 	0.68677 0.17139 0.09207 0.13300
N 	N 	0.84003 0.11490 0.01561 -0.22400
N 	N 	0.89535 0.97691 0.11325 -0.26000
N 	N 	0.87672 0.01757 0.10068 -0.22900
N 	N 	0.84057 0.07092 0.06309 -0.15500
N 	N 	0.82977 0.06142 0.09658 -0.15300
N 	N 	0.81151 0.08754 0.07774 -0.15200
N 	N 	0.77488 0.10074 0.12827 -0.23400
N 	N 	0.72967 0.15084 0.12452 -0.22600
N 	N 	0.75102 0.12293 0.09297 -0.26700
N 	N 	0.68687 0.15657 0.07751 -0.15000
S 	S 	0.92257 0.95983 0.08435 -0.06300
S 	S 	0.74641 0.12079 0.04975 -0.06100
C 	C 	0.83990 0.60166 0.53178 0.03700
H 	H 	0.85240 0.59430 0.53490 0.01300
C 	C 	0.82273 0.59811 0.54417 -0.05200
C 	C 	0.80437 0.60817 0.53951 0.01000
H 	H 	0.79240 0.60660 0.54810 0.03700
C 	C 	0.80383 0.62062 0.52202 -0.10000
H 	H 	0.79110 0.62670 0.51760 0.06600
C 	C 	0.82171 0.62422 0.51099 0.05800
H 	H 	0.82120 0.63370 0.49960 0.00100
C 	C 	0.90658 0.46900 0.60151 0.09800
C 	C 	0.89067 0.51673 0.58516 0.06500
H 	H 	0.90120 0.50640 0.58600 -0.00300
C 	C 	0.89077 0.52959 0.56830 -0.10700
H 	H 	0.90150 0.52870 0.55820 0.06800
C 	C 	0.87495 0.54389 0.56624 0.01400
H 	H 	0.87450 0.55310 0.55470 0.03500
C 	C 	0.85954 0.54454 0.58154 -0.05500
C 	C 	0.86115 0.53115 0.59801 0.04300
H 	H 	0.85050 0.53150 0.60820 0.01300
C 	C 	0.84207 0.55983 0.58004 0.14200
C 	C 	0.81478 0.57570 0.59503 0.13600
C 	C 	0.82474 0.58463 0.56253 0.13900
C 	C 	0.78764 0.59659 0.61283 0.04800
H 	H 	0.78740 0.60540 0.60100 0.00900
C 	C 	0.80177 0.57962 0.61298 -0.05800
C 	C 	0.80276 0.56788 0.63086 0.01800
H 	H 	0.81230 0.55670 0.63190 0.03500
C 	C 	0.78981 0.57249 0.64724 -0.11000
H 	H 	0.79040 0.56480 0.65980 0.07100
C 	C 	0.77587 0.58862 0.64493 0.06900
H 	H 	0.76640 0.59120 0.65600 -0.00200
C 	C 	0.74890 0.62190 0.57552 0.10800
C 	C 	0.73247 0.66748 0.63780 0.05200
H 	H 	0.74320 0.66650 0.64790 0.00300
C 	C 	0.72106 0.68479 0.63726 -0.09600
H 	H 	0.72330 0.69550 0.64720 0.06600
C 	C 	0.70561 0.68705 0.62179 0.00500
H 	H 	0.69760 0.69940 0.62070 0.03900
C 	C 	0.70256 0.67042 0.60827 -0.05300
C 	C 	0.71521 0.65304 0.61005 0.04600
H 	H 	0.71340 0.64210 0.60030 0.01100
C 	C 	0.68677 0.67139 0.59207 0.13300
N 	N 	0.84003 0.61490 0.51561 -0.22400
N 	N 	0.89535 0.47691 0.61325 -0.26000
N 	N 	0.87672 0.51757 0.60068 -0.22900
N 	N 	0.84057 0.57092 0.56309 -0.15500
N 	N 	0.82977 0.56142 0.59658 -0.15300
N 	N 	0.81151 0.58754 0.57774 -0.15200
N 	N 	0.77488 0.60074 0.62827 -0.23400
N 	N 	0.72967 0.65084 0.62452 -0.22600
N 	N 	0.75102 0.62293 0.59297 -0.26700
N 	N 	0.68687 0.65657 0.57751 -0.15000
S 	S 	0.92257 0.45983 0.58435 -0.06300
S 	S 	0.74641 0.62079 0.54975 -0.06100
C 	C 	0.41010 0.60166 0.71822 0.03700
H 	H 	0.39760 0.59430 0.71510 0.01300
C 	C 	0.42727 0.59811 0.70583 -0.05200
C 	C 	0.44563 0.60817 0.71049 0.01000
H 	H 	0.45760 0.60660 0.70190 0.03700
C 	C 	0.44617 0.62062 0.72798 -0.10000
H 	H 	0.45890 0.62670 0.73240 0.06600
C 	C 	0.42829 0.62422 0.73901 0.05800
H 	H 	0.42880 0.63370 0.75040 0.00100
C 	C 	0.34342 0.46900 0.64849 0.09800
C 	C 	0.35933 0.51673 0.66484 0.06500
H 	H 	0.34880 0.50640 0.66400 -0.00300
C 	C 	0.35923 0.52959 0.68170 -0.10700
H 	H 	0.34850 0.52870 0.69180 0.06800
C 	C 	0.37505 0.54389 0.68376 0.01400
H 	H 	0.37550 0.55310 0.69530 0.03500
C 	C 	0.39046 0.54454 0.66846 -0.05500
C 	C 	0.38885 0.53115 0.65199 0.04300
H 	H 	0.39950 0.53150 0.64180 0.01300
C 	C 	0.40793 0.55983 0.66996 0.14200
C 	C 	0.43522 0.57570 0.65497 0.13600
C 	C 	0.42526 0.58463 0.68747 0.13900
C 	C 	0.46236 0.59659 0.63717 0.04800
H 	H 	0.46260 0.60540 0.64900 0.00900
C 	C 	0.44823 0.57962 0.63702 -0.05800
C 	C 	0.44724 0.56788 0.61914 0.01800
H 	H 	0.43770 0.55670 0.61810 0.03500
C 	C 	0.46019 0.57249 0.60276 -0.11000
H 	H 	0.45960 0.56480 0.59020 0.07100
C 	C 	0.47413 0.58862 0.60507 0.06900
H 	H 	0.48360 0.59120 0.59400 -0.00200
C 	C 	0.50110 0.62190 0.67448 0.10800
C 	C 	0.51753 0.66748 0.61220 0.05200
H 	H 	0.50680 0.66650 0.60210 0.00300
C 	C 	0.52894 0.68479 0.61274 -0.09600
H 	H 	0.52670 0.69550 0.60280 0.06600
C 	C 	0.54439 0.68705 0.62821 0.00500
H 	H 	0.55240 0.69940 0.62930 0.03900
C 	C 	0.54744 0.67042 0.64173 -0.05300
C 	C 	0.53479 0.65304 0.63995 0.04600
H 	H 	0.53660 0.64210 0.64970 0.01100
C 	C 	0.56323 0.67139 0.65793 0.13300
N 	N 	0.40997 0.61490 0.73439 -0.22400
N 	N 	0.35465 0.47691 0.63675 -0.26000
N 	N 	0.37328 0.51757 0.64932 -0.22900
N 	N 	0.40943 0.57092 0.68691 -0.15500
N 	N 	0.42023 0.56142 0.65342 -0.15300
N 	N 	0.43849 0.58754 0.67226 -0.15200
N 	N 	0.47512 0.60074 0.62173 -0.23400
N 	N 	0.52033 0.65084 0.62548 -0.22600
N 	N 	0.49898 0.62293 0.65703 -0.26700
N 	N 	0.56313 0.65657 0.67249 -0.15000
S 	S 	0.32743 0.45983 0.66565 -0.06300
S 	S 	0.50359 0.62079 0.70025 -0.06100
C 	C 	0.41010 0.10166 0.21822 0.03700
H 	H 	0.39760 0.09430 0.21510 0.01300
C 	C 	0.42727 0.09811 0.20583 -0.05200
C 	C 	0.44563 0.10817 0.21049 0.01000
H 	H 	0.45760 0.10660 0.20190 0.03700
C 	C 	0.44617 0.12062 0.22798 -0.10000
H 	H 	0.45890 0.12670 0.23240 0.06600
C 	C 	0.42829 0.12422 0.23901 0.05800
H 	H 	0.42880 0.13370 0.25040 0.00100
C 	C 	0.34342 0.96900 0.14849 0.09800
C 	C 	0.35933 0.01673 0.16484 0.06500
H 	H 	0.34880 0.00640 0.16400 -0.00300
C 	C 	0.35923 0.02959 0.18170 -0.10700
H 	H 	0.34850 0.02870 0.19180 0.06800
C 	C 	0.37505 0.04389 0.18376 0.01400
H 	H 	0.37550 0.05310 0.19530 0.03500
C 	C 	0.39046 0.04454 0.16846 -0.05500
C 	C 	0.38885 0.03115 0.15199 0.04300
H 	H 	0.39950 0.03150 0.14180 0.01300
C 	C 	0.40793 0.05983 0.16996 0.14200
C 	C 	0.43522 0.07570 0.15497 0.13600
C 	C 	0.42526 0.08463 0.18747 0.13900
C 	C 	0.46236 0.09659 0.13717 0.04800
H 	H 	0.46260 0.10540 0.14900 0.00900
C 	C 	0.44823 0.07962 0.13702 -0.05800
C 	C 	0.44724 0.06788 0.11914 0.01800
H 	H 	0.43770 0.05670 0.11810 0.03500
C 	C 	0.46019 0.07249 0.10276 -0.11000
H 	H 	0.45960 0.06480 0.09020 0.07100
C 	C 	0.47413 0.08862 0.10507 0.06900
H 	H 	0.48360 0.09120 0.09400 -0.00200
C 	C 	0.50110 0.12190 0.17448 0.10800
C 	C 	0.51753 0.16748 0.11220 0.05200
H 	H 	0.50680 0.16650 0.10210 0.00300
C 	C 	0.52894 0.18479 0.11274 -0.09600
H 	H 	0.52670 0.19550 0.10280 0.06600
C 	C 	0.54439 0.18705 0.12821 0.00500
H 	H 	0.55240 0.19940 0.12930 0.03900
C 	C 	0.54744 0.17042 0.14173 -0.05300
C 	C 	0.53479 0.15304 0.13995 0.04600
H 	H 	0.53660 0.14210 0.14970 0.01100
C 	C 	0.56323 0.17139 0.15793 0.13300
N 	N 	0.40997 0.11490 0.23439 -0.22400
N 	N 	0.35465 0.97691 0.13675 -0.26000
N 	N 	0.37328 0.01757 0.14932 -0.22900
N 	N 	0.40943 0.07092 0.18691 -0.15500
N 	N 	0.42023 0.06142 0.15342 -0.15300
N 	N 	0.43849 0.08754 0.17226 -0.15200
N 	N 	0.47512 0.10074 0.12173 -0.23400
N 	N 	0.52033 0.15084 0.12548 -0.22600
N 	N 	0.49898 0.12293 0.15703 -0.26700
N 	N 	0.56313 0.15657 0.17249 -0.15000
S 	S 	0.32743 0.95983 0.16565 -0.06300
S 	S 	0.50359 0.12079 0.20025 -0.06100
C 	C 	0.91010 0.60166 0.21822 0.03700
H 	H 	0.89760 0.59430 0.21510 0.01300
C 	C 	0.92727 0.59811 0.20583 -0.05200
C 	C 	0.94563 0.60817 0.21049 0.01000
H 	H 	0.95760 0.60660 0.20190 0.03700
C 	C 	0.94617 0.62062 0.22798 -0.10000
H 	H 	0.95890 0.62670 0.23240 0.06600
C 	C 	0.92829 0.62422 0.23901 0.05800
H 	H 	0.92880 0.63370 0.25040 0.00100
C 	C 	0.84342 0.46900 0.14849 0.09800
C 	C 	0.85933 0.51673 0.16484 0.06500
H 	H 	0.84880 0.50640 0.16400 -0.00300
C 	C 	0.85923 0.52959 0.18170 -0.10700
H 	H 	0.84850 0.52870 0.19180 0.06800
C 	C 	0.87505 0.54389 0.18376 0.01400
H 	H 	0.87550 0.55310 0.19530 0.03500
C 	C 	0.89046 0.54454 0.16846 -0.05500
C 	C 	0.88885 0.53115 0.15199 0.04300
H 	H 	0.89950 0.53150 0.14180 0.01300
C 	C 	0.90793 0.55983 0.16996 0.14200
C 	C 	0.93522 0.57570 0.15497 0.13600
C 	C 	0.92526 0.58463 0.18747 0.13900
C 	C 	0.96236 0.59659 0.13717 0.04800
H 	H 	0.96260 0.60540 0.14900 0.00900
C 	C 	0.94823 0.57962 0.13702 -0.05800
C 	C 	0.94724 0.56788 0.11914 0.01800
H 	H 	0.93770 0.55670 0.11810 0.03500
C 	C 	0.96019 0.57249 0.10276 -0.11000
H 	H 	0.95960 0.56480 0.09020 0.07100
C 	C 	0.97413 0.58862 0.10507 0.06900
H 	H 	0.98360 0.59120 0.09400 -0.00200
C 	C 	0.00110 0.62190 0.17448 0.10800
C 	C 	0.01753 0.66748 0.11220 0.05200
H 	H 	0.00680 0.66650 0.10210 0.00300
C 	C 	0.02894 0.68479 0.11274 -0.09600
H 	H 	0.02670 0.69550 0.10280 0.06600
C 	C 	0.04439 0.68705 0.12821 0.00500
H 	H 	0.05240 0.69940 0.12930 0.03900
C 	C 	0.04744 0.67042 0.14173 -0.05300
C 	C 	0.03479 0.65304 0.13995 0.04600
H 	H 	0.03660 0.64210 0.14970 0.01100
C 	C 	0.06323 0.67139 0.15793 0.13300
N 	N 	0.90997 0.61490 0.23439 -0.22400
N 	N 	0.85465 0.47691 0.13675 -0.26000
N 	N 	0.87328 0.51757 0.14932 -0.22900
N 	N 	0.90943 0.57092 0.18691 -0.15500
N 	N 	0.92023 0.56142 0.15342 -0.15300
N 	N 	0.93849 0.58754 0.17226 -0.15200
N 	N 	0.97512 0.60074 0.12173 -0.23400
N 	N 	0.02033 0.65084 0.12548 -0.22600
N 	N 	0.99898 0.62293 0.15703 -0.26700
N 	N 	0.06313 0.65657 0.17249 -0.15000
S 	S 	0.82743 0.45983 0.16565 -0.06300
S 	S 	0.00359 0.62079 0.20025 -0.06100
C 	C 	0.91010 0.10166 0.71822 0.03700
H 	H 	0.89760 0.09430 0.71510 0.01300
C 	C 	0.92727 0.09811 0.70583 -0.05200
C 	C 	0.94563 0.10817 0.71049 0.01000
H 	H 	0.95760 0.10660 0.70190 0.03700
C 	C 	0.94617 0.12062 0.72798 -0.10000
H 	H 	0.95890 0.12670 0.73240 0.06600
C 	C 	0.92829 0.12422 0.73901 0.05800
H 	H 	0.92880 0.13370 0.75040 0.00100
C 	C 	0.84342 0.96900 0.64849 0.09800
C 	C 	0.85933 0.01673 0.66484 0.06500
H 	H 	0.84880 0.00640 0.66400 -0.00300
C 	C 	0.85923 0.02959 0.68170 -0.10700
H 	H 	0.84850 0.02870 0.69180 0.06800
C 	C 	0.87505 0.04389 0.68376 0.01400
H 	H 	0.87550 0.05310 0.69530 0.03500
C 	C 	0.89046 0.04454 0.66846 -0.05500
C 	C 	0.88885 0.03115 0.65199 0.04300
H 	H 	0.89950 0.03150 0.64180 0.01300
C 	C 	0.90793 0.05983 0.66996 0.14200
C 	C 	0.93522 0.07570 0.65497 0.13600
C 	C 	0.92526 0.08463 0.68747 0.13900
C 	C 	0.96236 0.09659 0.63717 0.04800
H 	H 	0.96260 0.10540 0.64900 0.00900
C 	C 	0.94823 0.07962 0.63702 -0.05800
C 	C 	0.94724 0.06788 0.61914 0.01800
H 	H 	0.93770 0.05670 0.61810 0.03500
C 	C 	0.96019 0.07249 0.60276 -0.11000
H 	H 	0.95960 0.06480 0.59020 0.07100
C 	C 	0.97413 0.08862 0.60507 0.06900
H 	H 	0.98360 0.09120 0.59400 -0.00200
C 	C 	0.00110 0.12190 0.67448 0.10800
C 	C 	0.01753 0.16748 0.61220 0.05200
H 	H 	0.00680 0.16650 0.60210 0.00300
C 	C 	0.02894 0.18479 0.61274 -0.09600
H 	H 	0.02670 0.19550 0.60280 0.06600
C 	C 	0.04439 0.18705 0.62821 0.00500
H 	H 	0.05240 0.19940 0.62930 0.03900
C 	C 	0.04744 0.17042 0.64173 -0.05300
C 	C 	0.03479 0.15304 0.63995 0.04600
H 	H 	0.03660 0.14210 0.64970 0.01100
C 	C 	0.06323 0.17139 0.65793 0.13300
N 	N 	0.90997 0.11490 0.73439 -0.22400
N 	N 	0.85465 0.97691 0.63675 -0.26000
N 	N 	0.87328 0.01757 0.64932 -0.22900
N 	N 	0.90943 0.07092 0.68691 -0.15500
N 	N 	0.92023 0.06142 0.65342 -0.15300
N 	N 	0.93849 0.08754 0.67226 -0.15200
N 	N 	0.97512 0.10074 0.62173 -0.23400
N 	N 	0.02033 0.15084 0.62548 -0.22600
N 	N 	0.99898 0.12293 0.65703 -0.26700
N 	N 	0.06313 0.15657 0.67249 -0.15000
S 	S 	0.82743 0.95983 0.66565 -0.06300
S 	S 	0.00359 0.12079 0.70025 -0.06100
C 	C 	0.83990 0.14834 0.21822 0.03700
H 	H 	0.85240 0.15570 0.21510 0.01300
C 	C 	0.82273 0.15189 0.20583 -0.05200
C 	C 	0.80437 0.14183 0.21049 0.01000
H 	H 	0.79240 0.14340 0.20190 0.03700
C 	C 	0.80383 0.12938 0.22798 -0.10000
H 	H 	0.79110 0.12330 0.23240 0.06600
C 	C 	0.82171 0.12578 0.23901 0.05800
H 	H 	0.82120 0.11630 0.25040 0.00100
C 	C 	0.90658 0.28100 0.14849 0.09800
C 	C 	0.89067 0.23327 0.16484 0.06500
H 	H 	0.90120 0.24360 0.16400 -0.00300
C 	C 	0.89077 0.22041 0.18170 -0.10700
H 	H 	0.90150 0.22130 0.19180 0.06800
C 	C 	0.87495 0.20611 0.18376 0.01400
H 	H 	0.87450 0.19690 0.19530 0.03500
C 	C 	0.85954 0.20546 0.16846 -0.05500
C 	C 	0.86115 0.21885 0.15199 0.04300
H 	H 	0.85050 0.21850 0.14180 0.01300
C 	C 	0.84207 0.19017 0.16996 0.14200
C 	C 	0.81478 0.17430 0.15497 0.13600
C 	C 	0.82474 0.16537 0.18747 0.13900
C 	C 	0.78764 0.15341 0.13717 0.04800
H 	H 	0.78740 0.14460 0.14900 0.00900
C 	C 	0.80177 0.17038 0.13702 -0.05800
C 	C 	0.80276 0.18212 0.11914 0.01800
H 	H 	0.81230 0.19330 0.11810 0.03500
C 	C 	0.78981 0.17751 0.10276 -0.11000
H 	H 	0.79040 0.18520 0.09020 0.07100
C 	C 	0.77587 0.16138 0.10507 0.06900
H 	H 	0.76640 0.15880 0.09400 -0.00200
C 	C 	0.74890 0.12810 0.17448 0.10800
C 	C 	0.73247 0.08252 0.11220 0.05200
H 	H 	0.74320 0.08350 0.10210 0.00300
C 	C 	0.72106 0.06521 0.11274 -0.09600
H 	H 	0.72330 0.05450 0.10280 0.06600
C 	C 	0.70561 0.06295 0.12821 0.00500
H 	H 	0.69760 0.05060 0.12930 0.03900
C 	C 	0.70256 0.07958 0.14173 -0.05300
C 	C 	0.71521 0.09696 0.13995 0.04600
H 	H 	0.71340 0.10790 0.14970 0.01100
C 	C 	0.68677 0.07861 0.15793 0.13300
N 	N 	0.84003 0.13510 0.23439 -0.22400
N 	N 	0.89535 0.27309 0.13675 -0.26000
N 	N 	0.87672 0.23243 0.14932 -0.22900
N 	N 	0.84057 0.17908 0.18691 -0.15500
N 	N 	0.82977 0.18858 0.15342 -0.15300
N 	N 	0.81151 0.16246 0.17226 -0.15200
N 	N 	0.77488 0.14926 0.12173 -0.23400
N 	N 	0.72967 0.09916 0.12548 -0.22600
N 	N 	0.75102 0.12707 0.15703 -0.26700
N 	N 	0.68687 0.09343 0.17249 -0.15000
S 	S 	0.92257 0.29017 0.16565 -0.06300
S 	S 	0.74641 0.12921 0.20025 -0.06100
C 	C 	0.83990 0.64834 0.71822 0.03700
H 	H 	0.85240 0.65570 0.71510 0.01300
C 	C 	0.82273 0.65189 0.70583 -0.05200
C 	C 	0.80437 0.64183 0.71049 0.01000
H 	H 	0.79240 0.64340 0.70190 0.03700
C 	C 	0.80383 0.62938 0.72798 -0.10000
H 	H 	0.79110 0.62330 0.73240 0.06600
C 	C 	0.82171 0.62578 0.73901 0.05800
H 	H 	0.82120 0.61630 0.75040 0.00100
C 	C 	0.90658 0.78100 0.64849 0.09800
C 	C 	0.89067 0.73327 0.66484 0.06500
H 	H 	0.90120 0.74360 0.66400 -0.00300
C 	C 	0.89077 0.72041 0.68170 -0.10700
H 	H 	0.90150 0.72130 0.69180 0.06800
C 	C 	0.87495 0.70611 0.68376 0.01400
H 	H 	0.87450 0.69690 0.69530 0.03500
C 	C 	0.85954 0.70546 0.66846 -0.05500
C 	C 	0.86115 0.71885 0.65199 0.04300
H 	H 	0.85050 0.71850 0.64180 0.01300
C 	C 	0.84207 0.69017 0.66996 0.14200
C 	C 	0.81478 0.67430 0.65497 0.13600
C 	C 	0.82474 0.66537 0.68747 0.13900
C 	C 	0.78764 0.65341 0.63717 0.04800
H 	H 	0.78740 0.64460 0.64900 0.00900
C 	C 	0.80177 0.67038 0.63702 -0.05800
C 	C 	0.80276 0.68212 0.61914 0.01800
H 	H 	0.81230 0.69330 0.61810 0.03500
C 	C 	0.78981 0.67751 0.60276 -0.11000
H 	H 	0.79040 0.68520 0.59020 0.07100
C 	C 	0.77587 0.66138 0.60507 0.06900
H 	H 	0.76640 0.65880 0.59400 -0.00200
C 	C 	0.74890 0.62810 0.67448 0.10800
C 	C 	0.73247 0.58252 0.61220 0.05200
H 	H 	0.74320 0.58350 0.60210 0.00300
C 	C 	0.72106 0.56521 0.61274 -0.09600
H 	H 	0.72330 0.55450 0.60280 0.06600
C 	C 	0.70561 0.56295 0.62821 0.00500
H 	H 	0.69760 0.55060 0.62930 0.03900
C 	C 	0.70256 0.57958 0.64173 -0.05300
C 	C 	0.71521 0.59696 0.63995 0.04600
H 	H 	0.71340 0.60790 0.64970 0.01100
C 	C 	0.68677 0.57861 0.65793 0.13300
N 	N 	0.84003 0.63510 0.73439 -0.22400
N 	N 	0.89535 0.77309 0.63675 -0.26000
N 	N 	0.87672 0.73243 0.64932 -0.22900
N 	N 	0.84057 0.67908 0.68691 -0.15500
N 	N 	0.82977 0.68858 0.65342 -0.15300
N 	N 	0.81151 0.66246 0.67226 -0.15200
N 	N 	0.77488 0.64926 0.62173 -0.23400
N 	N 	0.72967 0.59916 0.62548 -0.22600
N 	N 	0.75102 0.62707 0.65703 -0.26700
N 	N 	0.68687 0.59343 0.67249 -0.15000
S 	S 	0.92257 0.79017 0.66565 -0.06300
S 	S 	0.74641 0.62921 0.70025 -0.06100
C 	C 	0.33990 0.14834 0.71822 0.03700
H 	H 	0.35240 0.15570 0.71510 0.01300
C 	C 	0.32273 0.15189 0.70583 -0.05200
C 	C 	0.30437 0.14183 0.71049 0.01000
H 	H 	0.29240 0.14340 0.70190 0.03700
C 	C 	0.30383 0.12938 0.72798 -0.10000
H 	H 	0.29110 0.12330 0.73240 0.06600
C 	C 	0.32171 0.12578 0.73901 0.05800
H 	H 	0.32120 0.11630 0.75040 0.00100
C 	C 	0.40658 0.28100 0.64849 0.09800
C 	C 	0.39067 0.23327 0.66484 0.06500
H 	H 	0.40120 0.24360 0.66400 -0.00300
C 	C 	0.39077 0.22041 0.68170 -0.10700
H 	H 	0.40150 0.22130 0.69180 0.06800
C 	C 	0.37495 0.20611 0.68376 0.01400
H 	H 	0.37450 0.19690 0.69530 0.03500
C 	C 	0.35954 0.20546 0.66846 -0.05500
C 	C 	0.36115 0.21885 0.65199 0.04300
H 	H 	0.35050 0.21850 0.64180 0.01300
C 	C 	0.34207 0.19017 0.66996 0.14200
C 	C 	0.31478 0.17430 0.65497 0.13600
C 	C 	0.32474 0.16537 0.68747 0.13900
C 	C 	0.28764 0.15341 0.63717 0.04800
H 	H 	0.28740 0.14460 0.64900 0.00900
C 	C 	0.30177 0.17038 0.63702 -0.05800
C 	C 	0.30276 0.18212 0.61914 0.01800
H 	H 	0.31230 0.19330 0.61810 0.03500
C 	C 	0.28981 0.17751 0.60276 -0.11000
H 	H 	0.29040 0.18520 0.59020 0.07100
C 	C 	0.27587 0.16138 0.60507 0.06900
H 	H 	0.26640 0.15880 0.59400 -0.00200
C 	C 	0.24890 0.12810 0.67448 0.10800
C 	C 	0.23247 0.08252 0.61220 0.05200
H 	H 	0.24320 0.08350 0.60210 0.00300
C 	C 	0.22106 0.06521 0.61274 -0.09600
H 	H 	0.22330 0.05450 0.60280 0.06600
C 	C 	0.20561 0.06295 0.62821 0.00500
H 	H 	0.19760 0.05060 0.62930 0.03900
C 	C 	0.20256 0.07958 0.64173 -0.05300
C 	C 	0.21521 0.09696 0.63995 0.04600
H 	H 	0.21340 0.10790 0.64970 0.01100
C 	C 	0.18677 0.07861 0.65793 0.13300
N 	N 	0.34003 0.13510 0.73439 -0.22400
N 	N 	0.39535 0.27309 0.63675 -0.26000
N 	N 	0.37672 0.23243 0.64932 -0.22900
N 	N 	0.34057 0.17908 0.68691 -0.15500
N 	N 	0.32977 0.18858 0.65342 -0.15300
N 	N 	0.31151 0.16246 0.67226 -0.15200
N 	N 	0.27488 0.14926 0.62173 -0.23400
N 	N 	0.22967 0.09916 0.62548 -0.22600
N 	N 	0.25102 0.12707 0.65703 -0.26700
N 	N 	0.18687 0.09343 0.67249 -0.15000
S 	S 	0.42257 0.29017 0.66565 -0.06300
S 	S 	0.24641 0.12921 0.70025 -0.06100
C 	C 	0.33990 0.64834 0.21822 0.03700
H 	H 	0.35240 0.65570 0.21510 0.01300
C 	C 	0.32273 0.65189 0.20583 -0.05200
C 	C 	0.30437 0.64183 0.21049 0.01000
H 	H 	0.29240 0.64340 0.20190 0.03700
C 	C 	0.30383 0.62938 0.22798 -0.10000
H 	H 	0.29110 0.62330 0.23240 0.06600
C 	C 	0.32171 0.62578 0.23901 0.05800
H 	H 	0.32120 0.61630 0.25040 0.00100
C 	C 	0.40658 0.78100 0.14849 0.09800
C 	C 	0.39067 0.73327 0.16484 0.06500
H 	H 	0.40120 0.74360 0.16400 -0.00300
C 	C 	0.39077 0.72041 0.18170 -0.10700
H 	H 	0.40150 0.72130 0.19180 0.06800
C 	C 	0.37495 0.70611 0.18376 0.01400
H 	H 	0.37450 0.69690 0.19530 0.03500
C 	C 	0.35954 0.70546 0.16846 -0.05500
C 	C 	0.36115 0.71885 0.15199 0.04300
H 	H 	0.35050 0.71850 0.14180 0.01300
C 	C 	0.34207 0.69017 0.16996 0.14200
C 	C 	0.31478 0.67430 0.15497 0.13600
C 	C 	0.32474 0.66537 0.18747 0.13900
C 	C 	0.28764 0.65341 0.13717 0.04800
H 	H 	0.28740 0.64460 0.14900 0.00900
C 	C 	0.30177 0.67038 0.13702 -0.05800
C 	C 	0.30276 0.68212 0.11914 0.01800
H 	H 	0.31230 0.69330 0.11810 0.03500
C 	C 	0.28981 0.67751 0.10276 -0.11000
H 	H 	0.29040 0.68520 0.09020 0.07100
C 	C 	0.27587 0.66138 0.10507 0.06900
H 	H 	0.26640 0.65880 0.09400 -0.00200
C 	C 	0.24890 0.62810 0.17448 0.10800
C 	C 	0.23247 0.58252 0.11220 0.05200
H 	H 	0.24320 0.58350 0.10210 0.00300
C 	C 	0.22106 0.56521 0.11274 -0.09600
H 	H 	0.22330 0.55450 0.10280 0.06600
C 	C 	0.20561 0.56295 0.12821 0.00500
H 	H 	0.19760 0.55060 0.12930 0.03900
C 	C 	0.20256 0.57958 0.14173 -0.05300
C 	C 	0.21521 0.59696 0.13995 0.04600
H 	H 	0.21340 0.60790 0.14970 0.01100
C 	C 	0.18677 0.57861 0.15793 0.13300
N 	N 	0.34003 0.63510 0.23439 -0.22400
N 	N 	0.39535 0.77309 0.13675 -0.26000
N 	N 	0.37672 0.73243 0.14932 -0.22900
N 	N 	0.34057 0.67908 0.18691 -0.15500
N 	N 	0.32977 0.68858 0.15342 -0.15300
N 	N 	0.31151 0.66246 0.17226 -0.15200
N 	N 	0.27488 0.64926 0.12173 -0.23400
N 	N 	0.22967 0.59916 0.12548 -0.22600
N 	N 	0.25102 0.62707 0.15703 -0.26700
N 	N 	0.18687 0.59343 0.17249 -0.15000
S 	S 	0.42257 0.79017 0.16565 -0.06300
S 	S 	0.24641 0.62921 0.20025 -0.06100
C 	C 	0.91010 0.64834 0.03178 0.03700
H 	H 	0.89760 0.65570 0.03490 0.01300
C 	C 	0.92727 0.65189 0.04417 -0.05200
C 	C 	0.94563 0.64183 0.03951 0.01000
H 	H 	0.95760 0.64340 0.04810 0.03700
C 	C 	0.94617 0.62938 0.02202 -0.10000
H 	H 	0.95890 0.62330 0.01760 0.06600
C 	C 	0.92829 0.62578 0.01099 0.05800
H 	H 	0.92880 0.61630 0.99960 0.00100
C 	C 	0.84342 0.78100 0.10151 0.09800
C 	C 	0.85933 0.73327 0.08516 0.06500
H 	H 	0.84880 0.74360 0.08600 -0.00300
C 	C 	0.85923 0.72041 0.06830 -0.10700
H 	H 	0.84850 0.72130 0.05820 0.06800
C 	C 	0.87505 0.70611 0.06624 0.01400
H 	H 	0.87550 0.69690 0.05470 0.03500
C 	C 	0.89046 0.70546 0.08154 -0.05500
C 	C 	0.88885 0.71885 0.09801 0.04300
H 	H 	0.89950 0.71850 0.10820 0.01300
C 	C 	0.90793 0.69017 0.08004 0.14200
C 	C 	0.93522 0.67430 0.09503 0.13600
C 	C 	0.92526 0.66537 0.06253 0.13900
C 	C 	0.96236 0.65341 0.11283 0.04800
H 	H 	0.96260 0.64460 0.10100 0.00900
C 	C 	0.94823 0.67038 0.11298 -0.05800
C 	C 	0.94724 0.68212 0.13086 0.01800
H 	H 	0.93770 0.69330 0.13190 0.03500
C 	C 	0.96019 0.67751 0.14724 -0.11000
H 	H 	0.95960 0.68520 0.15980 0.07100
C 	C 	0.97413 0.66138 0.14493 0.06900
H 	H 	0.98360 0.65880 0.15600 -0.00200
C 	C 	0.00110 0.62810 0.07552 0.10800
C 	C 	0.01753 0.58252 0.13780 0.05200
H 	H 	0.00680 0.58350 0.14790 0.00300
C 	C 	0.02894 0.56521 0.13726 -0.09600
H 	H 	0.02670 0.55450 0.14720 0.06600
C 	C 	0.04439 0.56295 0.12179 0.00500
H 	H 	0.05240 0.55060 0.12070 0.03900
C 	C 	0.04744 0.57958 0.10827 -0.05300
C 	C 	0.03479 0.59696 0.11005 0.04600
H 	H 	0.03660 0.60790 0.10030 0.01100
C 	C 	0.06323 0.57861 0.09207 0.13300
N 	N 	0.90997 0.63510 0.01561 -0.22400
N 	N 	0.85465 0.77309 0.11325 -0.26000
N 	N 	0.87328 0.73243 0.10068 -0.22900
N 	N 	0.90943 0.67908 0.06309 -0.15500
N 	N 	0.92023 0.68858 0.09658 -0.15300
N 	N 	0.93849 0.66246 0.07774 -0.15200
N 	N 	0.97512 0.64926 0.12827 -0.23400
N 	N 	0.02033 0.59916 0.12452 -0.22600
N 	N 	0.99898 0.62707 0.09297 -0.26700
N 	N 	0.06313 0.59343 0.07751 -0.15000
S 	S 	0.82743 0.79017 0.08435 -0.06300
S 	S 	0.00359 0.62921 0.04975 -0.06100
C 	C 	0.91010 0.14834 0.53178 0.03700
H 	H 	0.89760 0.15570 0.53490 0.01300
C 	C 	0.92727 0.15189 0.54417 -0.05200
C 	C 	0.94563 0.14183 0.53951 0.01000
H 	H 	0.95760 0.14340 0.54810 0.03700
C 	C 	0.94617 0.12938 0.52202 -0.10000
H 	H 	0.95890 0.12330 0.51760 0.06600
C 	C 	0.92829 0.12578 0.51099 0.05800
H 	H 	0.92880 0.11630 0.49960 0.00100
C 	C 	0.84342 0.28100 0.60151 0.09800
C 	C 	0.85933 0.23327 0.58516 0.06500
H 	H 	0.84880 0.24360 0.58600 -0.00300
C 	C 	0.85923 0.22041 0.56830 -0.10700
H 	H 	0.84850 0.22130 0.55820 0.06800
C 	C 	0.87505 0.20611 0.56624 0.01400
H 	H 	0.87550 0.19690 0.55470 0.03500
C 	C 	0.89046 0.20546 0.58154 -0.05500
C 	C 	0.88885 0.21885 0.59801 0.04300
H 	H 	0.89950 0.21850 0.60820 0.01300
C 	C 	0.90793 0.19017 0.58004 0.14200
C 	C 	0.93522 0.17430 0.59503 0.13600
C 	C 	0.92526 0.16537 0.56253 0.13900
C 	C 	0.96236 0.15341 0.61283 0.04800
H 	H 	0.96260 0.14460 0.60100 0.00900
C 	C 	0.94823 0.17038 0.61298 -0.05800
C 	C 	0.94724 0.18212 0.63086 0.01800
H 	H 	0.93770 0.19330 0.63190 0.03500
C 	C 	0.96019 0.17751 0.64724 -0.11000
H 	H 	0.95960 0.18520 0.65980 0.07100
C 	C 	0.97413 0.16138 0.64493 0.06900
H 	H 	0.98360 0.15880 0.65600 -0.00200
C 	C 	0.00110 0.12810 0.57552 0.10800
C 	C 	0.01753 0.08252 0.63780 0.05200
H 	H 	0.00680 0.08350 0.64790 0.00300
C 	C 	0.02894 0.06521 0.63726 -0.09600
H 	H 	0.02670 0.05450 0.64720 0.06600
C 	C 	0.04439 0.06295 0.62179 0.00500
H 	H 	0.05240 0.05060 0.62070 0.03900
C 	C 	0.04744 0.07958 0.60827 -0.05300
C 	C 	0.03479 0.09696 0.61005 0.04600
H 	H 	0.03660 0.10790 0.60030 0.01100
C 	C 	0.06323 0.07861 0.59207 0.13300
N 	N 	0.90997 0.13510 0.51561 -0.22400
N 	N 	0.85465 0.27309 0.61325 -0.26000
N 	N 	0.87328 0.23243 0.60068 -0.22900
N 	N 	0.90943 0.17908 0.56309 -0.15500
N 	N 	0.92023 0.18858 0.59658 -0.15300
N 	N 	0.93849 0.16246 0.57774 -0.15200
N 	N 	0.97512 0.14926 0.62827 -0.23400
N 	N 	0.02033 0.09916 0.62452 -0.22600
N 	N 	0.99898 0.12707 0.59297 -0.26700
N 	N 	0.06313 0.09343 0.57751 -0.15000
S 	S 	0.82743 0.29017 0.58435 -0.06300
S 	S 	0.00359 0.12921 0.54975 -0.06100
C 	C 	0.41010 0.64834 0.53178 0.03700
H 	H 	0.39760 0.65570 0.53490 0.01300
C 	C 	0.42727 0.65189 0.54417 -0.05200
C 	C 	0.44563 0.64183 0.53951 0.01000
H 	H 	0.45760 0.64340 0.54810 0.03700
C 	C 	0.44617 0.62938 0.52202 -0.10000
H 	H 	0.45890 0.62330 0.51760 0.06600
C 	C 	0.42829 0.62578 0.51099 0.05800
H 	H 	0.42880 0.61630 0.49960 0.00100
C 	C 	0.34342 0.78100 0.60151 0.09800
C 	C 	0.35933 0.73327 0.58516 0.06500
H 	H 	0.34880 0.74360 0.58600 -0.00300
C 	C 	0.35923 0.72041 0.56830 -0.10700
H 	H 	0.34850 0.72130 0.55820 0.06800
C 	C 	0.37505 0.70611 0.56624 0.01400
H 	H 	0.37550 0.69690 0.55470 0.03500
C 	C 	0.39046 0.70546 0.58154 -0.05500
C 	C 	0.38885 0.71885 0.59801 0.04300
H 	H 	0.39950 0.71850 0.60820 0.01300
C 	C 	0.40793 0.69017 0.58004 0.14200
C 	C 	0.43522 0.67430 0.59503 0.13600
C 	C 	0.42526 0.66537 0.56253 0.13900
C 	C 	0.46236 0.65341 0.61283 0.04800
H 	H 	0.46260 0.64460 0.60100 0.00900
C 	C 	0.44823 0.67038 0.61298 -0.05800
C 	C 	0.44724 0.68212 0.63086 0.01800
H 	H 	0.43770 0.69330 0.63190 0.03500
C 	C 	0.46019 0.67751 0.64724 -0.11000
H 	H 	0.45960 0.68520 0.65980 0.07100
C 	C 	0.47413 0.66138 0.64493 0.06900
H 	H 	0.48360 0.65880 0.65600 -0.00200
C 	C 	0.50110 0.62810 0.57552 0.10800
C 	C 	0.51753 0.58252 0.63780 0.05200
H 	H 	0.50680 0.58350 0.64790 0.00300
C 	C 	0.52894 0.56521 0.63726 -0.09600
H 	H 	0.52670 0.55450 0.64720 0.06600
C 	C 	0.54439 0.56295 0.62179 0.00500
H 	H 	0.55240 0.55060 0.62070 0.03900
C 	C 	0.54744 0.57958 0.60827 -0.05300
C 	C 	0.53479 0.59696 0.61005 0.04600
H 	H 	0.53660 0.60790 0.60030 0.01100
C 	C 	0.56323 0.57861 0.59207 0.13300
N 	N 	0.40997 0.63510 0.51561 -0.22400
N 	N 	0.35465 0.77309 0.61325 -0.26000
N 	N 	0.37328 0.73243 0.60068 -0.22900
N 	N 	0.40943 0.67908 0.56309 -0.15500
N 	N 	0.42023 0.68858 0.59658 -0.15300
N 	N 	0.43849 0.66246 0.57774 -0.15200
N 	N 	0.47512 0.64926 0.62827 -0.23400
N 	N 	0.52033 0.59916 0.62452 -0.22600
N 	N 	0.49898 0.62707 0.59297 -0.26700
N 	N 	0.56313 0.59343 0.57751 -0.15000
S 	S 	0.32743 0.79017 0.58435 -0.06300
S 	S 	0.50359 0.62921 0.54975 -0.06100
C 	C 	0.41010 0.14834 0.03178 0.03700
H 	H 	0.39760 0.15570 0.03490 0.01300
C 	C 	0.42727 0.15189 0.04417 -0.05200
C 	C 	0.44563 0.14183 0.03951 0.01000
H 	H 	0.45760 0.14340 0.04810 0.03700
C 	C 	0.44617 0.12938 0.02202 -0.10000
H 	H 	0.45890 0.12330 0.01760 0.06600
C 	C 	0.42829 0.12578 0.01099 0.05800
H 	H 	0.42880 0.11630 0.99960 0.00100
C 	C 	0.34342 0.28100 0.10151 0.09800
C 	C 	0.35933 0.23327 0.08516 0.06500
H 	H 	0.34880 0.24360 0.08600 -0.00300
C 	C 	0.35923 0.22041 0.06830 -0.10700
H 	H 	0.34850 0.22130 0.05820 0.06800
C 	C 	0.37505 0.20611 0.06624 0.01400
H 	H 	0.37550 0.19690 0.05470 0.03500
C 	C 	0.39046 0.20546 0.08154 -0.05500
C 	C 	0.38885 0.21885 0.09801 0.04300
H 	H 	0.39950 0.21850 0.10820 0.01300
C 	C 	0.40793 0.19017 0.08004 0.14200
C 	C 	0.43522 0.17430 0.09503 0.13600
C 	C 	0.42526 0.16537 0.06253 0.13900
C 	C 	0.46236 0.15341 0.11283 0.04800
H 	H 	0.46260 0.14460 0.10100 0.00900
C 	C 	0.44823 0.17038 0.11298 -0.05800
C 	C 	0.44724 0.18212 0.13086 0.01800
H 	H 	0.43770 0.19330 0.13190 0.03500
C 	C 	0.46019 0.17751 0.14724 -0.11000
H 	H 	0.45960 0.18520 0.15980 0.07100
C 	C 	0.47413 0.16138 0.14493 0.06900
H 	H 	0.48360 0.15880 0.15600 -0.00200
C 	C 	0.50110 0.12810 0.07552 0.10800
C 	C 	0.51753 0.08252 0.13780 0.05200
H 	H 	0.50680 0.08350 0.14790 0.00300
C 	C 	0.52894 0.06521 0.13726 -0.09600
H 	H 	0.52670 0.05450 0.14720 0.06600
C 	C 	0.54439 0.06295 0.12179 0.00500
H 	H 	0.55240 0.05060 0.12070 0.03900
C 	C 	0.54744 0.07958 0.10827 -0.05300
C 	C 	0.53479 0.09696 0.11005 0.04600
H 	H 	0.53660 0.10790 0.10030 0.01100
C 	C 	0.56323 0.07861 0.09207 0.13300
N 	N 	0.40997 0.13510 0.01561 -0.22400
N 	N 	0.35465 0.27309 0.11325 -0.26000
N 	N 	0.37328 0.23243 0.10068 -0.22900
N 	N 	0.40943 0.17908 0.06309 -0.15500
N 	N 	0.42023 0.18858 0.09658 -0.15300
N 	N 	0.43849 0.16246 0.07774 -0.15200
N 	N 	0.47512 0.14926 0.12827 -0.23400
N 	N 	0.52033 0.09916 0.12452 -0.22600
N 	N 	0.49898 0.12707 0.09297 -0.26700
N 	N 	0.56313 0.09343 0.07751 -0.15000
S 	S 	0.32743 0.29017 0.08435 -0.06300
S 	S 	0.50359 0.12921 0.04975 -0.06100
C 	C 	0.08990 0.78178 0.89834 0.03700
H 	H 	0.10240 0.78490 0.90570 0.01300
C 	C 	0.07273 0.79417 0.90189 -0.05200
C 	C 	0.05437 0.78951 0.89183 0.01000
H 	H 	0.04240 0.79810 0.89340 0.03700
C 	C 	0.05383 0.77202 0.87938 -0.10000
H 	H 	0.04110 0.76760 0.87330 0.06600
C 	C 	0.07171 0.76099 0.87578 0.05800
H 	H 	0.07120 0.74960 0.86630 0.00100
C 	C 	0.15658 0.85151 0.03100 0.09800
C 	C 	0.14067 0.83516 0.98327 0.06500
H 	H 	0.15120 0.83600 0.99360 -0.00300
C 	C 	0.14077 0.81830 0.97041 -0.10700
H 	H 	0.15150 0.80820 0.97130 0.06800
C 	C 	0.12495 0.81624 0.95611 0.01400
H 	H 	0.12450 0.80470 0.94690 0.03500
C 	C 	0.10954 0.83154 0.95546 -0.05500
C 	C 	0.11115 0.84801 0.96885 0.04300
H 	H 	0.10050 0.85820 0.96850 0.01300
C 	C 	0.09207 0.83004 0.94017 0.14200
C 	C 	0.06478 0.84503 0.92430 0.13600
C 	C 	0.07474 0.81253 0.91537 0.13900
C 	C 	0.03764 0.86283 0.90341 0.04800
H 	H 	0.03740 0.85100 0.89460 0.00900
C 	C 	0.05177 0.86298 0.92038 -0.05800
C 	C 	0.05276 0.88086 0.93212 0.01800
H 	H 	0.06230 0.88190 0.94330 0.03500
C 	C 	0.03981 0.89724 0.92751 -0.11000
H 	H 	0.04040 0.90980 0.93520 0.07100
C 	C 	0.02587 0.89493 0.91138 0.06900
H 	H 	0.01640 0.90600 0.90880 -0.00200
C 	C 	0.99890 0.82552 0.87810 0.10800
C 	C 	0.98247 0.88780 0.83252 0.05200
H 	H 	0.99320 0.89790 0.83350 0.00300
C 	C 	0.97106 0.88726 0.81521 -0.09600
H 	H 	0.97330 0.89720 0.80450 0.06600
C 	C 	0.95561 0.87179 0.81295 0.00500
H 	H 	0.94760 0.87070 0.80060 0.03900
C 	C 	0.95256 0.85827 0.82958 -0.05300
C 	C 	0.96521 0.86005 0.84696 0.04600
H 	H 	0.96340 0.85030 0.85790 0.01100
C 	C 	0.93677 0.84207 0.82861 0.13300
N 	N 	0.09003 0.76561 0.88510 -0.22400
N 	N 	0.14535 0.86325 0.02309 -0.26000
N 	N 	0.12672 0.85068 0.98243 -0.22900
N 	N 	0.09057 0.81309 0.92908 -0.15500
N 	N 	0.07977 0.84658 0.93858 -0.15300
N 	N 	0.06151 0.82774 0.91246 -0.15200
N 	N 	0.02488 0.87827 0.89926 -0.23400
N 	N 	0.97967 0.87452 0.84916 -0.22600
N 	N 	0.00102 0.84297 0.87707 -0.26700
N 	N 	0.93687 0.82751 0.84343 -0.15000
S 	S 	0.17257 0.83435 0.04017 -0.06300
S 	S 	0.99641 0.79975 0.87921 -0.06100
C 	C 	0.08990 0.28178 0.39834 0.03700
H 	H 	0.10240 0.28490 0.40570 0.01300
C 	C 	0.07273 0.29417 0.40189 -0.05200
C 	C 	0.05437 0.28951 0.39183 0.01000
H 	H 	0.04240 0.29810 0.39340 0.03700
C 	C 	0.05383 0.27202 0.37938 -0.10000
H 	H 	0.04110 0.26760 0.37330 0.06600
C 	C 	0.07171 0.26099 0.37578 0.05800
H 	H 	0.07120 0.24960 0.36630 0.00100
C 	C 	0.15658 0.35151 0.53100 0.09800
C 	C 	0.14067 0.33516 0.48327 0.06500
H 	H 	0.15120 0.33600 0.49360 -0.00300
C 	C 	0.14077 0.31830 0.47041 -0.10700
H 	H 	0.15150 0.30820 0.47130 0.06800
C 	C 	0.12495 0.31624 0.45611 0.01400
H 	H 	0.12450 0.30470 0.44690 0.03500
C 	C 	0.10954 0.33154 0.45546 -0.05500
C 	C 	0.11115 0.34801 0.46885 0.04300
H 	H 	0.10050 0.35820 0.46850 0.01300
C 	C 	0.09207 0.33004 0.44017 0.14200
C 	C 	0.06478 0.34503 0.42430 0.13600
C 	C 	0.07474 0.31253 0.41537 0.13900
C 	C 	0.03764 0.36283 0.40341 0.04800
H 	H 	0.03740 0.35100 0.39460 0.00900
C 	C 	0.05177 0.36298 0.42038 -0.05800
C 	C 	0.05276 0.38086 0.43212 0.01800
H 	H 	0.06230 0.38190 0.44330 0.03500
C 	C 	0.03981 0.39724 0.42751 -0.11000
H 	H 	0.04040 0.40980 0.43520 0.07100
C 	C 	0.02587 0.39493 0.41138 0.06900
H 	H 	0.01640 0.40600 0.40880 -0.00200
C 	C 	0.99890 0.32552 0.37810 0.10800
C 	C 	0.98247 0.38780 0.33252 0.05200
H 	H 	0.99320 0.39790 0.33350 0.00300
C 	C 	0.97106 0.38726 0.31521 -0.09600
H 	H 	0.97330 0.39720 0.30450 0.06600
C 	C 	0.95561 0.37179 0.31295 0.00500
H 	H 	0.94760 0.37070 0.30060 0.03900
C 	C 	0.95256 0.35827 0.32958 -0.05300
C 	C 	0.96521 0.36005 0.34696 0.04600
H 	H 	0.96340 0.35030 0.35790 0.01100
C 	C 	0.93677 0.34207 0.32861 0.13300
N 	N 	0.09003 0.26561 0.38510 -0.22400
N 	N 	0.14535 0.36325 0.52309 -0.26000
N 	N 	0.12672 0.35068 0.48243 -0.22900
N 	N 	0.09057 0.31309 0.42908 -0.15500
N 	N 	0.07977 0.34658 0.43858 -0.15300
N 	N 	0.06151 0.32774 0.41246 -0.15200
N 	N 	0.02488 0.37827 0.39926 -0.23400
N 	N 	0.97967 0.37452 0.34916 -0.22600
N 	N 	0.00102 0.34297 0.37707 -0.26700
N 	N 	0.93687 0.32751 0.34343 -0.15000
S 	S 	0.17257 0.33435 0.54017 -0.06300
S 	S 	0.99641 0.29975 0.37921 -0.06100
C 	C 	0.58990 0.78178 0.39834 0.03700
H 	H 	0.60240 0.78490 0.40570 0.01300
C 	C 	0.57273 0.79417 0.40189 -0.05200
C 	C 	0.55437 0.78951 0.39183 0.01000
H 	H 	0.54240 0.79810 0.39340 0.03700
C 	C 	0.55383 0.77202 0.37938 -0.10000
H 	H 	0.54110 0.76760 0.37330 0.06600
C 	C 	0.57171 0.76099 0.37578 0.05800
H 	H 	0.57120 0.74960 0.36630 0.00100
C 	C 	0.65658 0.85151 0.53100 0.09800
C 	C 	0.64067 0.83516 0.48327 0.06500
H 	H 	0.65120 0.83600 0.49360 -0.00300
C 	C 	0.64077 0.81830 0.47041 -0.10700
H 	H 	0.65150 0.80820 0.47130 0.06800
C 	C 	0.62495 0.81624 0.45611 0.01400
H 	H 	0.62450 0.80470 0.44690 0.03500
C 	C 	0.60954 0.83154 0.45546 -0.05500
C 	C 	0.61115 0.84801 0.46885 0.04300
H 	H 	0.60050 0.85820 0.46850 0.01300
C 	C 	0.59207 0.83004 0.44017 0.14200
C 	C 	0.56478 0.84503 0.42430 0.13600
C 	C 	0.57474 0.81253 0.41537 0.13900
C 	C 	0.53764 0.86283 0.40341 0.04800
H 	H 	0.53740 0.85100 0.39460 0.00900
C 	C 	0.55177 0.86298 0.42038 -0.05800
C 	C 	0.55276 0.88086 0.43212 0.01800
H 	H 	0.56230 0.88190 0.44330 0.03500
C 	C 	0.53981 0.89724 0.42751 -0.11000
H 	H 	0.54040 0.90980 0.43520 0.07100
C 	C 	0.52587 0.89493 0.41138 0.06900
H 	H 	0.51640 0.90600 0.40880 -0.00200
C 	C 	0.49890 0.82552 0.37810 0.10800
C 	C 	0.48247 0.88780 0.33252 0.05200
H 	H 	0.49320 0.89790 0.33350 0.00300
C 	C 	0.47106 0.88726 0.31521 -0.09600
H 	H 	0.47330 0.89720 0.30450 0.06600
C 	C 	0.45561 0.87179 0.31295 0.00500
H 	H 	0.44760 0.87070 0.30060 0.03900
C 	C 	0.45256 0.85827 0.32958 -0.05300
C 	C 	0.46521 0.86005 0.34696 0.04600
H 	H 	0.46340 0.85030 0.35790 0.01100
C 	C 	0.43677 0.84207 0.32861 0.13300
N 	N 	0.59003 0.76561 0.38510 -0.22400
N 	N 	0.64535 0.86325 0.52309 -0.26000
N 	N 	0.62672 0.85068 0.48243 -0.22900
N 	N 	0.59057 0.81309 0.42908 -0.15500
N 	N 	0.57977 0.84658 0.43858 -0.15300
N 	N 	0.56151 0.82774 0.41246 -0.15200
N 	N 	0.52488 0.87827 0.39926 -0.23400
N 	N 	0.47967 0.87452 0.34916 -0.22600
N 	N 	0.50102 0.84297 0.37707 -0.26700
N 	N 	0.43687 0.82751 0.34343 -0.15000
S 	S 	0.67257 0.83435 0.54017 -0.06300
S 	S 	0.49641 0.79975 0.37921 -0.06100
C 	C 	0.58990 0.28178 0.89834 0.03700
H 	H 	0.60240 0.28490 0.90570 0.01300
C 	C 	0.57273 0.29417 0.90189 -0.05200
C 	C 	0.55437 0.28951 0.89183 0.01000
H 	H 	0.54240 0.29810 0.89340 0.03700
C 	C 	0.55383 0.27202 0.87938 -0.10000
H 	H 	0.54110 0.26760 0.87330 0.06600
C 	C 	0.57171 0.26099 0.87578 0.05800
H 	H 	0.57120 0.24960 0.86630 0.00100
C 	C 	0.65658 0.35151 0.03100 0.09800
C 	C 	0.64067 0.33516 0.98327 0.06500
H 	H 	0.65120 0.33600 0.99360 -0.00300
C 	C 	0.64077 0.31830 0.97041 -0.10700
H 	H 	0.65150 0.30820 0.97130 0.06800
C 	C 	0.62495 0.31624 0.95611 0.01400
H 	H 	0.62450 0.30470 0.94690 0.03500
C 	C 	0.60954 0.33154 0.95546 -0.05500
C 	C 	0.61115 0.34801 0.96885 0.04300
H 	H 	0.60050 0.35820 0.96850 0.01300
C 	C 	0.59207 0.33004 0.94017 0.14200
C 	C 	0.56478 0.34503 0.92430 0.13600
C 	C 	0.57474 0.31253 0.91537 0.13900
C 	C 	0.53764 0.36283 0.90341 0.04800
H 	H 	0.53740 0.35100 0.89460 0.00900
C 	C 	0.55177 0.36298 0.92038 -0.05800
C 	C 	0.55276 0.38086 0.93212 0.01800
H 	H 	0.56230 0.38190 0.94330 0.03500
C 	C 	0.53981 0.39724 0.92751 -0.11000
H 	H 	0.54040 0.40980 0.93520 0.07100
C 	C 	0.52587 0.39493 0.91138 0.06900
H 	H 	0.51640 0.40600 0.90880 -0.00200
C 	C 	0.49890 0.32552 0.87810 0.10800
C 	C 	0.48247 0.38780 0.83252 0.05200
H 	H 	0.49320 0.39790 0.83350 0.00300
C 	C 	0.47106 0.38726 0.81521 -0.09600
H 	H 	0.47330 0.39720 0.80450 0.06600
C 	C 	0.45561 0.37179 0.81295 0.00500
H 	H 	0.44760 0.37070 0.80060 0.03900
C 	C 	0.45256 0.35827 0.82958 -0.05300
C 	C 	0.46521 0.36005 0.84696 0.04600
H 	H 	0.46340 0.35030 0.85790 0.01100
C 	C 	0.43677 0.34207 0.82861 0.13300
N 	N 	0.59003 0.26561 0.88510 -0.22400
N 	N 	0.64535 0.36325 0.02309 -0.26000
N 	N 	0.62672 0.35068 0.98243 -0.22900
N 	N 	0.59057 0.31309 0.92908 -0.15500
N 	N 	0.57977 0.34658 0.93858 -0.15300
N 	N 	0.56151 0.32774 0.91246 -0.15200
N 	N 	0.52488 0.37827 0.89926 -0.23400
N 	N 	0.47967 0.37452 0.84916 -0.22600
N 	N 	0.50102 0.34297 0.87707 -0.26700
N 	N 	0.43687 0.32751 0.84343 -0.15000
S 	S 	0.67257 0.33435 0.04017 -0.06300
S 	S 	0.49641 0.29975 0.87921 -0.06100
C 	C 	0.16010 0.96822 0.39834 0.03800
H 	H 	0.14760 0.96510 0.40570 0.01300
C 	C 	0.17727 0.95583 0.40189 -0.05200
C 	C 	0.19563 0.96049 0.39183 0.01000
H 	H 	0.20760 0.95190 0.39340 0.03700
C 	C 	0.19617 0.97798 0.37938 -0.10000
H 	H 	0.20890 0.98240 0.37330 0.06600
C 	C 	0.17829 0.98901 0.37578 0.05900
H 	H 	0.17880 0.00040 0.36630 0.00100
C 	C 	0.09342 0.89849 0.53100 0.09800
C 	C 	0.10933 0.91484 0.48327 0.06500
H 	H 	0.09880 0.91400 0.49360 -0.00300
C 	C 	0.10923 0.93170 0.47041 -0.10700
H 	H 	0.09850 0.94180 0.47130 0.06800
C 	C 	0.12505 0.93376 0.45611 0.01400
H 	H 	0.12550 0.94530 0.44690 0.03500
C 	C 	0.14046 0.91846 0.45546 -0.05500
C 	C 	0.13885 0.90199 0.46885 0.04300
H 	H 	0.14950 0.89180 0.46850 0.01300
C 	C 	0.15793 0.91996 0.44017 0.14200
C 	C 	0.18522 0.90497 0.42430 0.13600
C 	C 	0.17526 0.93747 0.41537 0.13900
C 	C 	0.21236 0.88717 0.40341 0.04800
H 	H 	0.21260 0.89900 0.39460 0.00900
C 	C 	0.19823 0.88702 0.42038 -0.05800
C 	C 	0.19724 0.86914 0.43212 0.01800
H 	H 	0.18770 0.86810 0.44330 0.03500
C 	C 	0.21019 0.85276 0.42751 -0.11000
H 	H 	0.20960 0.84020 0.43520 0.07100
C 	C 	0.22413 0.85507 0.41138 0.06900
H 	H 	0.23360 0.84400 0.40880 -0.00200
C 	C 	0.25110 0.92448 0.37810 0.10800
C 	C 	0.26753 0.86220 0.33252 0.05200
H 	H 	0.25680 0.85210 0.33350 0.00300
C 	C 	0.27894 0.86274 0.31521 -0.09600
H 	H 	0.27670 0.85280 0.30450 0.06600
C 	C 	0.29439 0.87821 0.31295 0.00500
H 	H 	0.30240 0.87930 0.30060 0.03900
C 	C 	0.29744 0.89173 0.32958 -0.05300
C 	C 	0.28479 0.88995 0.34696 0.04600
H 	H 	0.28660 0.89970 0.35790 0.01100
C 	C 	0.31323 0.90793 0.32861 0.13300
N 	N 	0.15997 0.98439 0.38510 -0.22400
N 	N 	0.10465 0.88675 0.52309 -0.26000
N 	N 	0.12328 0.89932 0.48243 -0.22900
N 	N 	0.15943 0.93691 0.42908 -0.15500
N 	N 	0.17023 0.90342 0.43858 -0.15300
N 	N 	0.18849 0.92226 0.41246 -0.15200
N 	N 	0.22512 0.87173 0.39926 -0.23400
N 	N 	0.27033 0.87548 0.34916 -0.22600
N 	N 	0.24898 0.90703 0.37707 -0.26700
N 	N 	0.31313 0.92249 0.34343 -0.15000
S 	S 	0.07743 0.91565 0.54017 -0.06300
S 	S 	0.25359 0.95025 0.37921 -0.06100
C 	C 	0.16010 0.46822 0.89834 0.03700
H 	H 	0.14760 0.46510 0.90570 0.01300
C 	C 	0.17727 0.45583 0.90189 -0.05200
C 	C 	0.19563 0.46049 0.89183 0.01000
H 	H 	0.20760 0.45190 0.89340 0.03700
C 	C 	0.19617 0.47798 0.87938 -0.10000
H 	H 	0.20890 0.48240 0.87330 0.06600
C 	C 	0.17829 0.48901 0.87578 0.05800
H 	H 	0.17880 0.50040 0.86630 0.00100
C 	C 	0.09342 0.39849 0.03100 0.09800
C 	C 	0.10933 0.41484 0.98327 0.06500
H 	H 	0.09880 0.41400 0.99360 -0.00300
C 	C 	0.10923 0.43170 0.97041 -0.10700
H 	H 	0.09850 0.44180 0.97130 0.06800
C 	C 	0.12505 0.43376 0.95611 0.01400
H 	H 	0.12550 0.44530 0.94690 0.03500
C 	C 	0.14046 0.41846 0.95546 -0.05500
C 	C 	0.13885 0.40199 0.96885 0.04300
H 	H 	0.14950 0.39180 0.96850 0.01300
C 	C 	0.15793 0.41996 0.94017 0.14200
C 	C 	0.18522 0.40497 0.92430 0.13600
C 	C 	0.17526 0.43747 0.91537 0.13900
C 	C 	0.21236 0.38717 0.90341 0.04800
H 	H 	0.21260 0.39900 0.89460 0.00900
C 	C 	0.19823 0.38702 0.92038 -0.05800
C 	C 	0.19724 0.36914 0.93212 0.01800
H 	H 	0.18770 0.36810 0.94330 0.03500
C 	C 	0.21019 0.35276 0.92751 -0.11000
H 	H 	0.20960 0.34020 0.93520 0.07100
C 	C 	0.22413 0.35507 0.91138 0.06900
H 	H 	0.23360 0.34400 0.90880 -0.00200
C 	C 	0.25110 0.42448 0.87810 0.10800
C 	C 	0.26753 0.36220 0.83252 0.05200
H 	H 	0.25680 0.35210 0.83350 0.00300
C 	C 	0.27894 0.36274 0.81521 -0.09600
H 	H 	0.27670 0.35280 0.80450 0.06600
C 	C 	0.29439 0.37821 0.81295 0.00500
H 	H 	0.30240 0.37930 0.80060 0.03900
C 	C 	0.29744 0.39173 0.82958 -0.05300
C 	C 	0.28479 0.38995 0.84696 0.04600
H 	H 	0.28660 0.39970 0.85790 0.01100
C 	C 	0.31323 0.40793 0.82861 0.13300
N 	N 	0.15997 0.48439 0.88510 -0.22400
N 	N 	0.10465 0.38675 0.02309 -0.26000
N 	N 	0.12328 0.39932 0.98243 -0.22900
N 	N 	0.15943 0.43691 0.92908 -0.15500
N 	N 	0.17023 0.40342 0.93858 -0.15300
N 	N 	0.18849 0.42226 0.91246 -0.15200
N 	N 	0.22512 0.37173 0.89926 -0.23400
N 	N 	0.27033 0.37548 0.84916 -0.22600
N 	N 	0.24898 0.40703 0.87707 -0.26700
N 	N 	0.31313 0.42249 0.84343 -0.15000
S 	S 	0.07743 0.41565 0.04017 -0.06300
S 	S 	0.25359 0.45025 0.87921 -0.06100
C 	C 	0.66010 0.96822 0.89834 0.03800
H 	H 	0.64760 0.96510 0.90570 0.01300
C 	C 	0.67727 0.95583 0.90189 -0.05200
C 	C 	0.69563 0.96049 0.89183 0.01000
H 	H 	0.70760 0.95190 0.89340 0.03700
C 	C 	0.69617 0.97798 0.87938 -0.10000
H 	H 	0.70890 0.98240 0.87330 0.06600
C 	C 	0.67829 0.98901 0.87578 0.05900
H 	H 	0.67880 0.00040 0.86630 0.00100
C 	C 	0.59342 0.89849 0.03100 0.09800
C 	C 	0.60933 0.91484 0.98327 0.06500
H 	H 	0.59880 0.91400 0.99360 -0.00300
C 	C 	0.60923 0.93170 0.97041 -0.10700
H 	H 	0.59850 0.94180 0.97130 0.06800
C 	C 	0.62505 0.93376 0.95611 0.01400
H 	H 	0.62550 0.94530 0.94690 0.03600
C 	C 	0.64046 0.91846 0.95546 -0.05500
C 	C 	0.63885 0.90199 0.96885 0.04300
H 	H 	0.64950 0.89180 0.96850 0.01300
C 	C 	0.65793 0.91996 0.94017 0.14200
C 	C 	0.68522 0.90497 0.92430 0.13600
C 	C 	0.67526 0.93747 0.91537 0.13900
C 	C 	0.71236 0.88717 0.90341 0.04800
H 	H 	0.71260 0.89900 0.89460 0.00900
C 	C 	0.69823 0.88702 0.92038 -0.05800
C 	C 	0.69724 0.86914 0.93212 0.01800
H 	H 	0.68770 0.86810 0.94330 0.03500
C 	C 	0.71019 0.85276 0.92751 -0.11000
H 	H 	0.70960 0.84020 0.93520 0.07100
C 	C 	0.72413 0.85507 0.91138 0.06900
H 	H 	0.73360 0.84400 0.90880 -0.00200
C 	C 	0.75110 0.92448 0.87810 0.10800
C 	C 	0.76753 0.86220 0.83252 0.05200
H 	H 	0.75680 0.85210 0.83350 0.00300
C 	C 	0.77894 0.86274 0.81521 -0.09600
H 	H 	0.77670 0.85280 0.80450 0.06600
C 	C 	0.79439 0.87821 0.81295 0.00500
H 	H 	0.80240 0.87930 0.80060 0.03900
C 	C 	0.79744 0.89173 0.82958 -0.05300
C 	C 	0.78479 0.88995 0.84696 0.04600
H 	H 	0.78660 0.89970 0.85790 0.01100
C 	C 	0.81323 0.90793 0.82861 0.13300
N 	N 	0.65997 0.98439 0.88510 -0.22400
N 	N 	0.60465 0.88675 0.02309 -0.26000
N 	N 	0.62328 0.89932 0.98243 -0.22900
N 	N 	0.65943 0.93691 0.92908 -0.15500
N 	N 	0.67023 0.90342 0.93858 -0.15300
N 	N 	0.68849 0.92226 0.91246 -0.15200
N 	N 	0.72512 0.87173 0.89926 -0.23400
N 	N 	0.77033 0.87548 0.84916 -0.22600
N 	N 	0.74898 0.90703 0.87707 -0.26700
N 	N 	0.81313 0.92249 0.84343 -0.15000
S 	S 	0.57743 0.91565 0.04017 -0.06300
S 	S 	0.75359 0.95025 0.87921 -0.06100
C 	C 	0.66010 0.46822 0.39834 0.03700
H 	H 	0.64760 0.46510 0.40570 0.01300
C 	C 	0.67727 0.45583 0.40189 -0.05200
C 	C 	0.69563 0.46049 0.39183 0.01000
H 	H 	0.70760 0.45190 0.39340 0.03700
C 	C 	0.69617 0.47798 0.37938 -0.10000
H 	H 	0.70890 0.48240 0.37330 0.06600
C 	C 	0.67829 0.48901 0.37578 0.05800
H 	H 	0.67880 0.50040 0.36630 0.00100
C 	C 	0.59342 0.39849 0.53100 0.09800
C 	C 	0.60933 0.41484 0.48327 0.06500
H 	H 	0.59880 0.41400 0.49360 -0.00300
C 	C 	0.60923 0.43170 0.47041 -0.10700
H 	H 	0.59850 0.44180 0.47130 0.06800
C 	C 	0.62505 0.43376 0.45611 0.01400
H 	H 	0.62550 0.44530 0.44690 0.03500
C 	C 	0.64046 0.41846 0.45546 -0.05500
C 	C 	0.63885 0.40199 0.46885 0.04300
H 	H 	0.64950 0.39180 0.46850 0.01300
C 	C 	0.65793 0.41996 0.44017 0.14200
C 	C 	0.68522 0.40497 0.42430 0.13600
C 	C 	0.67526 0.43747 0.41537 0.13900
C 	C 	0.71236 0.38717 0.40341 0.04800
H 	H 	0.71260 0.39900 0.39460 0.00900
C 	C 	0.69823 0.38702 0.42038 -0.05800
C 	C 	0.69724 0.36914 0.43212 0.01800
H 	H 	0.68770 0.36810 0.44330 0.03500
C 	C 	0.71019 0.35276 0.42751 -0.11000
H 	H 	0.70960 0.34020 0.43520 0.07100
C 	C 	0.72413 0.35507 0.41138 0.06900
H 	H 	0.73360 0.34400 0.40880 -0.00200
C 	C 	0.75110 0.42448 0.37810 0.10800
C 	C 	0.76753 0.36220 0.33252 0.05200
H 	H 	0.75680 0.35210 0.33350 0.00300
C 	C 	0.77894 0.36274 0.31521 -0.09600
H 	H 	0.77670 0.35280 0.30450 0.06600
C 	C 	0.79439 0.37821 0.31295 0.00500
H 	H 	0.80240 0.37930 0.30060 0.03900
C 	C 	0.79744 0.39173 0.32958 -0.05300
C 	C 	0.78479 0.38995 0.34696 0.04600
H 	H 	0.78660 0.39970 0.35790 0.01100
C 	C 	0.81323 0.40793 0.32861 0.13300
N 	N 	0.65997 0.48439 0.38510 -0.22400
N 	N 	0.60465 0.38675 0.52309 -0.26000
N 	N 	0.62328 0.39932 0.48243 -0.22900
N 	N 	0.65943 0.43691 0.42908 -0.15500
N 	N 	0.67023 0.40342 0.43858 -0.15300
N 	N 	0.68849 0.42226 0.41246 -0.15200
N 	N 	0.72512 0.37173 0.39926 -0.23400
N 	N 	0.77033 0.37548 0.34916 -0.22600
N 	N 	0.74898 0.40703 0.37707 -0.26700
N 	N 	0.81313 0.42249 0.34343 -0.15000
S 	S 	0.57743 0.41565 0.54017 -0.06300
S 	S 	0.75359 0.45025 0.37921 -0.06100
C 	C 	0.58990 0.46822 0.85166 0.03700
H 	H 	0.60240 0.46510 0.84430 0.01300
C 	C 	0.57273 0.45583 0.84811 -0.05200
C 	C 	0.55437 0.46049 0.85817 0.01000
H 	H 	0.54240 0.45190 0.85660 0.03700
C 	C 	0.55383 0.47798 0.87062 -0.10000
H 	H 	0.54110 0.48240 0.87670 0.06600
C 	C 	0.57171 0.48901 0.87422 0.05800
H 	H 	0.57120 0.50040 0.88370 0.00100
C 	C 	0.65658 0.39849 0.71900 0.09800
C 	C 	0.64067 0.41484 0.76673 0.06500
H 	H 	0.65120 0.41400 0.75640 -0.00300
C 	C 	0.64077 0.43170 0.77959 -0.10700
H 	H 	0.65150 0.44180 0.77870 0.06800
C 	C 	0.62495 0.43376 0.79389 0.01400
H 	H 	0.62450 0.44530 0.80310 0.03500
C 	C 	0.60954 0.41846 0.79454 -0.05500
C 	C 	0.61115 0.40199 0.78115 0.04300
H 	H 	0.60050 0.39180 0.78150 0.01300
C 	C 	0.59207 0.41996 0.80983 0.14200
C 	C 	0.56478 0.40497 0.82570 0.13600
C 	C 	0.57474 0.43747 0.83463 0.13900
C 	C 	0.53764 0.38717 0.84659 0.04800
H 	H 	0.53740 0.39900 0.85540 0.00900
C 	C 	0.55177 0.38702 0.82962 -0.05800
C 	C 	0.55276 0.36914 0.81788 0.01800
H 	H 	0.56230 0.36810 0.80670 0.03500
C 	C 	0.53981 0.35276 0.82249 -0.11000
H 	H 	0.54040 0.34020 0.81480 0.07100
C 	C 	0.52587 0.35507 0.83862 0.06900
H 	H 	0.51640 0.34400 0.84120 -0.00200
C 	C 	0.49890 0.42448 0.87190 0.10800
C 	C 	0.48247 0.36220 0.91748 0.05200
H 	H 	0.49320 0.35210 0.91650 0.00300
C 	C 	0.47106 0.36274 0.93479 -0.09600
H 	H 	0.47330 0.35280 0.94550 0.06600
C 	C 	0.45561 0.37821 0.93705 0.00500
H 	H 	0.44760 0.37930 0.94940 0.03900
C 	C 	0.45256 0.39173 0.92042 -0.05300
C 	C 	0.46521 0.38995 0.90304 0.04600
H 	H 	0.46340 0.39970 0.89210 0.01100
C 	C 	0.43677 0.40793 0.92139 0.13300
N 	N 	0.59003 0.48439 0.86490 -0.22400
N 	N 	0.64535 0.38675 0.72691 -0.26000
N 	N 	0.62672 0.39932 0.76757 -0.22900
N 	N 	0.59057 0.43691 0.82092 -0.15500
N 	N 	0.57977 0.40342 0.81142 -0.15300
N 	N 	0.56151 0.42226 0.83754 -0.15200
N 	N 	0.52488 0.37173 0.85074 -0.23400
N 	N 	0.47967 0.37548 0.90084 -0.22600
N 	N 	0.50102 0.40703 0.87293 -0.26700
N 	N 	0.43687 0.42249 0.90657 -0.15000
S 	S 	0.67257 0.41565 0.70983 -0.06300
S 	S 	0.49641 0.45025 0.87079 -0.06100
C 	C 	0.58990 0.96822 0.35166 0.03800
H 	H 	0.60240 0.96510 0.34430 0.01300
C 	C 	0.57273 0.95583 0.34811 -0.05200
C 	C 	0.55437 0.96049 0.35817 0.01000
H 	H 	0.54240 0.95190 0.35660 0.03700
C 	C 	0.55383 0.97798 0.37062 -0.10000
H 	H 	0.54110 0.98240 0.37670 0.06600
C 	C 	0.57171 0.98901 0.37422 0.05900
H 	H 	0.57120 0.00040 0.38370 0.00100
C 	C 	0.65658 0.89849 0.21900 0.09800
C 	C 	0.64067 0.91484 0.26673 0.06500
H 	H 	0.65120 0.91400 0.25640 -0.00300
C 	C 	0.64077 0.93170 0.27959 -0.10700
H 	H 	0.65150 0.94180 0.27870 0.06800
C 	C 	0.62495 0.93376 0.29389 0.01400
H 	H 	0.62450 0.94530 0.30310 0.03500
C 	C 	0.60954 0.91846 0.29454 -0.05500
C 	C 	0.61115 0.90199 0.28115 0.04300
H 	H 	0.60050 0.89180 0.28150 0.01300
C 	C 	0.59207 0.91996 0.30983 0.14200
C 	C 	0.56478 0.90497 0.32570 0.13600
C 	C 	0.57474 0.93747 0.33463 0.13900
C 	C 	0.53764 0.88717 0.34659 0.04800
H 	H 	0.53740 0.89900 0.35540 0.00900
C 	C 	0.55177 0.88702 0.32962 -0.05800
C 	C 	0.55276 0.86914 0.31788 0.01800
H 	H 	0.56230 0.86810 0.30670 0.03500
C 	C 	0.53981 0.85276 0.32249 -0.11000
H 	H 	0.54040 0.84020 0.31480 0.07100
C 	C 	0.52587 0.85507 0.33862 0.06900
H 	H 	0.51640 0.84400 0.34120 -0.00200
C 	C 	0.49890 0.92448 0.37190 0.10800
C 	C 	0.48247 0.86220 0.41748 0.05200
H 	H 	0.49320 0.85210 0.41650 0.00300
C 	C 	0.47106 0.86274 0.43479 -0.09600
H 	H 	0.47330 0.85280 0.44550 0.06600
C 	C 	0.45561 0.87821 0.43705 0.00500
H 	H 	0.44760 0.87930 0.44940 0.03900
C 	C 	0.45256 0.89173 0.42042 -0.05300
C 	C 	0.46521 0.88995 0.40304 0.04600
H 	H 	0.46340 0.89970 0.39210 0.01100
C 	C 	0.43677 0.90793 0.42139 0.13300
N 	N 	0.59003 0.98439 0.36490 -0.22400
N 	N 	0.64535 0.88675 0.22691 -0.26000
N 	N 	0.62672 0.89932 0.26757 -0.22900
N 	N 	0.59057 0.93691 0.32092 -0.15500
N 	N 	0.57977 0.90342 0.31142 -0.15300
N 	N 	0.56151 0.92226 0.33754 -0.15200
N 	N 	0.52488 0.87173 0.35074 -0.23400
N 	N 	0.47967 0.87548 0.40084 -0.22600
N 	N 	0.50102 0.90703 0.37293 -0.26700
N 	N 	0.43687 0.92249 0.40657 -0.15000
S 	S 	0.67257 0.91565 0.20983 -0.06300
S 	S 	0.49641 0.95025 0.37079 -0.06100
C 	C 	0.08990 0.46822 0.35166 0.03700
H 	H 	0.10240 0.46510 0.34430 0.01300
C 	C 	0.07273 0.45583 0.34811 -0.05200
C 	C 	0.05437 0.46049 0.35817 0.01000
H 	H 	0.04240 0.45190 0.35660 0.03700
C 	C 	0.05383 0.47798 0.37062 -0.10000
H 	H 	0.04110 0.48240 0.37670 0.06600
C 	C 	0.07171 0.48901 0.37422 0.05800
H 	H 	0.07120 0.50040 0.38370 0.00100
C 	C 	0.15658 0.39849 0.21900 0.09800
C 	C 	0.14067 0.41484 0.26673 0.06500
H 	H 	0.15120 0.41400 0.25640 -0.00300
C 	C 	0.14077 0.43170 0.27959 -0.10700
H 	H 	0.15150 0.44180 0.27870 0.06800
C 	C 	0.12495 0.43376 0.29389 0.01400
H 	H 	0.12450 0.44530 0.30310 0.03500
C 	C 	0.10954 0.41846 0.29454 -0.05500
C 	C 	0.11115 0.40199 0.28115 0.04300
H 	H 	0.10050 0.39180 0.28150 0.01300
C 	C 	0.09207 0.41996 0.30983 0.14200
C 	C 	0.06478 0.40497 0.32570 0.13600
C 	C 	0.07474 0.43747 0.33463 0.13900
C 	C 	0.03764 0.38717 0.34659 0.04800
H 	H 	0.03740 0.39900 0.35540 0.00900
C 	C 	0.05177 0.38702 0.32962 -0.05800
C 	C 	0.05276 0.36914 0.31788 0.01800
H 	H 	0.06230 0.36810 0.30670 0.03500
C 	C 	0.03981 0.35276 0.32249 -0.11000
H 	H 	0.04040 0.34020 0.31480 0.07100
C 	C 	0.02587 0.35507 0.33862 0.06900
H 	H 	0.01640 0.34400 0.34120 -0.00200
C 	C 	0.99890 0.42448 0.37190 0.10800
C 	C 	0.98247 0.36220 0.41748 0.05200
H 	H 	0.99320 0.35210 0.41650 0.00300
C 	C 	0.97106 0.36274 0.43479 -0.09600
H 	H 	0.97330 0.35280 0.44550 0.06600
C 	C 	0.95561 0.37821 0.43705 0.00500
H 	H 	0.94760 0.37930 0.44940 0.03900
C 	C 	0.95256 0.39173 0.42042 -0.05300
C 	C 	0.96521 0.38995 0.40304 0.04600
H 	H 	0.96340 0.39970 0.39210 0.01100
C 	C 	0.93677 0.40793 0.42139 0.13300
N 	N 	0.09003 0.48439 0.36490 -0.22400
N 	N 	0.14535 0.38675 0.22691 -0.26000
N 	N 	0.12672 0.39932 0.26757 -0.22900
N 	N 	0.09057 0.43691 0.32092 -0.15500
N 	N 	0.07977 0.40342 0.31142 -0.15300
N 	N 	0.06151 0.42226 0.33754 -0.15200
N 	N 	0.02488 0.37173 0.35074 -0.23400
N 	N 	0.97967 0.37548 0.40084 -0.22600
N 	N 	0.00102 0.40703 0.37293 -0.26700
N 	N 	0.93687 0.42249 0.40657 -0.15000
S 	S 	0.17257 0.41565 0.20983 -0.06300
S 	S 	0.99641 0.45025 0.37079 -0.06100
C 	C 	0.08990 0.96822 0.85166 0.03800
H 	H 	0.10240 0.96510 0.84430 0.01300
C 	C 	0.07273 0.95583 0.84811 -0.05200
C 	C 	0.05437 0.96049 0.85817 0.01000
H 	H 	0.04240 0.95190 0.85660 0.03700
C 	C 	0.05383 0.97798 0.87062 -0.10000
H 	H 	0.04110 0.98240 0.87670 0.06600
C 	C 	0.07171 0.98901 0.87422 0.05900
H 	H 	0.07120 0.00040 0.88370 0.00100
C 	C 	0.15658 0.89849 0.71900 0.09800
C 	C 	0.14067 0.91484 0.76673 0.06500
H 	H 	0.15120 0.91400 0.75640 -0.00300
C 	C 	0.14077 0.93170 0.77959 -0.10700
H 	H 	0.15150 0.94180 0.77870 0.06800
C 	C 	0.12495 0.93376 0.79389 0.01400
H 	H 	0.12450 0.94530 0.80310 0.03500
C 	C 	0.10954 0.91846 0.79454 -0.05500
C 	C 	0.11115 0.90199 0.78115 0.04300
H 	H 	0.10050 0.89180 0.78150 0.01300
C 	C 	0.09207 0.91996 0.80983 0.14200
C 	C 	0.06478 0.90497 0.82570 0.13600
C 	C 	0.07474 0.93747 0.83463 0.13900
C 	C 	0.03764 0.88717 0.84659 0.04800
H 	H 	0.03740 0.89900 0.85540 0.00900
C 	C 	0.05177 0.88702 0.82962 -0.05800
C 	C 	0.05276 0.86914 0.81788 0.01800
H 	H 	0.06230 0.86810 0.80670 0.03500
C 	C 	0.03981 0.85276 0.82249 -0.11000
H 	H 	0.04040 0.84020 0.81480 0.07100
C 	C 	0.02587 0.85507 0.83862 0.06900
H 	H 	0.01640 0.84400 0.84120 -0.00200
C 	C 	0.99890 0.92448 0.87190 0.10800
C 	C 	0.98247 0.86220 0.91748 0.05200
H 	H 	0.99320 0.85210 0.91650 0.00300
C 	C 	0.97106 0.86274 0.93479 -0.09600
H 	H 	0.97330 0.85280 0.94550 0.06600
C 	C 	0.95561 0.87821 0.93705 0.00500
H 	H 	0.94760 0.87930 0.94940 0.03900
C 	C 	0.95256 0.89173 0.92042 -0.05300
C 	C 	0.96521 0.88995 0.90304 0.04600
H 	H 	0.96340 0.89970 0.89210 0.01100
C 	C 	0.93677 0.90793 0.92139 0.13300
N 	N 	0.09003 0.98439 0.86490 -0.22400
N 	N 	0.14535 0.88675 0.72691 -0.26000
N 	N 	0.12672 0.89932 0.76757 -0.22900
N 	N 	0.09057 0.93691 0.82092 -0.15500
N 	N 	0.07977 0.90342 0.81142 -0.15300
N 	N 	0.06151 0.92226 0.83754 -0.15200
N 	N 	0.02488 0.87173 0.85074 -0.23400
N 	N 	0.97967 0.87548 0.90084 -0.22600
N 	N 	0.00102 0.90703 0.87293 -0.26700
N 	N 	0.93687 0.92249 0.90657 -0.15000
S 	S 	0.17257 0.91565 0.70983 -0.06300
S 	S 	0.99641 0.95025 0.87079 -0.06100
C 	C 	0.66010 0.28178 0.35166 0.03700
H 	H 	0.64760 0.28490 0.34430 0.01300
C 	C 	0.67727 0.29417 0.34811 -0.05200
C 	C 	0.69563 0.28951 0.35817 0.01000
H 	H 	0.70760 0.29810 0.35660 0.03700
C 	C 	0.69617 0.27202 0.37062 -0.10000
H 	H 	0.70890 0.26760 0.37670 0.06600
C 	C 	0.67829 0.26099 0.37422 0.05800
H 	H 	0.67880 0.24960 0.38370 0.00100
C 	C 	0.59342 0.35151 0.21900 0.09800
C 	C 	0.60933 0.33516 0.26673 0.06500
H 	H 	0.59880 0.33600 0.25640 -0.00300
C 	C 	0.60923 0.31830 0.27959 -0.10700
H 	H 	0.59850 0.30820 0.27870 0.06800
C 	C 	0.62505 0.31624 0.29389 0.01400
H 	H 	0.62550 0.30470 0.30310 0.03500
C 	C 	0.64046 0.33154 0.29454 -0.05500
C 	C 	0.63885 0.34801 0.28115 0.04300
H 	H 	0.64950 0.35820 0.28150 0.01300
C 	C 	0.65793 0.33004 0.30983 0.14200
C 	C 	0.68522 0.34503 0.32570 0.13600
C 	C 	0.67526 0.31253 0.33463 0.13900
C 	C 	0.71236 0.36283 0.34659 0.04800
H 	H 	0.71260 0.35100 0.35540 0.00900
C 	C 	0.69823 0.36298 0.32962 -0.05800
C 	C 	0.69724 0.38086 0.31788 0.01800
H 	H 	0.68770 0.38190 0.30670 0.03500
C 	C 	0.71019 0.39724 0.32249 -0.11000
H 	H 	0.70960 0.40980 0.31480 0.07100
C 	C 	0.72413 0.39493 0.33862 0.06900
H 	H 	0.73360 0.40600 0.34120 -0.00200
C 	C 	0.75110 0.32552 0.37190 0.10800
C 	C 	0.76753 0.38780 0.41748 0.05200
H 	H 	0.75680 0.39790 0.41650 0.00300
C 	C 	0.77894 0.38726 0.43479 -0.09600
H 	H 	0.77670 0.39720 0.44550 0.06600
C 	C 	0.79439 0.37179 0.43705 0.00500
H 	H 	0.80240 0.37070 0.44940 0.03900
C 	C 	0.79744 0.35827 0.42042 -0.05300
C 	C 	0.78479 0.36005 0.40304 0.04600
H 	H 	0.78660 0.35030 0.39210 0.01100
C 	C 	0.81323 0.34207 0.42139 0.13300
N 	N 	0.65997 0.26561 0.36490 -0.22400
N 	N 	0.60465 0.36325 0.22691 -0.26000
N 	N 	0.62328 0.35068 0.26757 -0.22900
N 	N 	0.65943 0.31309 0.32092 -0.15500
N 	N 	0.67023 0.34658 0.31142 -0.15300
N 	N 	0.68849 0.32774 0.33754 -0.15200
N 	N 	0.72512 0.37827 0.35074 -0.23400
N 	N 	0.77033 0.37452 0.40084 -0.22600
N 	N 	0.74898 0.34297 0.37293 -0.26700
N 	N 	0.81313 0.32751 0.40657 -0.15000
S 	S 	0.57743 0.33435 0.20983 -0.06300
S 	S 	0.75359 0.29975 0.37079 -0.06100
C 	C 	0.66010 0.78178 0.85166 0.03700
H 	H 	0.64760 0.78490 0.84430 0.01300
C 	C 	0.67727 0.79417 0.84811 -0.05200
C 	C 	0.69563 0.78951 0.85817 0.01000
H 	H 	0.70760 0.79810 0.85660 0.03700
C 	C 	0.69617 0.77202 0.87062 -0.10000
H 	H 	0.70890 0.76760 0.87670 0.06600
C 	C 	0.67829 0.76099 0.87422 0.05800
H 	H 	0.67880 0.74960 0.88370 0.00100
C 	C 	0.59342 0.85151 0.71900 0.09800
C 	C 	0.60933 0.83516 0.76673 0.06500
H 	H 	0.59880 0.83600 0.75640 -0.00300
C 	C 	0.60923 0.81830 0.77959 -0.10700
H 	H 	0.59850 0.80820 0.77870 0.06800
C 	C 	0.62505 0.81624 0.79389 0.01400
H 	H 	0.62550 0.80470 0.80310 0.03500
C 	C 	0.64046 0.83154 0.79454 -0.05500
C 	C 	0.63885 0.84801 0.78115 0.04300
H 	H 	0.64950 0.85820 0.78150 0.01300
C 	C 	0.65793 0.83004 0.80983 0.14200
C 	C 	0.68522 0.84503 0.82570 0.13600
C 	C 	0.67526 0.81253 0.83463 0.13900
C 	C 	0.71236 0.86283 0.84659 0.04800
H 	H 	0.71260 0.85100 0.85540 0.00900
C 	C 	0.69823 0.86298 0.82962 -0.05800
C 	C 	0.69724 0.88086 0.81788 0.01800
H 	H 	0.68770 0.88190 0.80670 0.03500
C 	C 	0.71019 0.89724 0.82249 -0.11000
H 	H 	0.70960 0.90980 0.81480 0.07100
C 	C 	0.72413 0.89493 0.83862 0.06900
H 	H 	0.73360 0.90600 0.84120 -0.00200
C 	C 	0.75110 0.82552 0.87190 0.10800
C 	C 	0.76753 0.88780 0.91748 0.05200
H 	H 	0.75680 0.89790 0.91650 0.00300
C 	C 	0.77894 0.88726 0.93479 -0.09600
H 	H 	0.77670 0.89720 0.94550 0.06600
C 	C 	0.79439 0.87179 0.93705 0.00500
H 	H 	0.80240 0.87070 0.94940 0.03900
C 	C 	0.79744 0.85827 0.92042 -0.05300
C 	C 	0.78479 0.86005 0.90304 0.04600
H 	H 	0.78660 0.85030 0.89210 0.01100
C 	C 	0.81323 0.84207 0.92139 0.13300
N 	N 	0.65997 0.76561 0.86490 -0.22400
N 	N 	0.60465 0.86325 0.72691 -0.26000
N 	N 	0.62328 0.85068 0.76757 -0.22900
N 	N 	0.65943 0.81309 0.82092 -0.15500
N 	N 	0.67023 0.84658 0.81142 -0.15300
N 	N 	0.68849 0.82774 0.83754 -0.15200
N 	N 	0.72512 0.87827 0.85074 -0.23400
N 	N 	0.77033 0.87452 0.90084 -0.22600
N 	N 	0.74898 0.84297 0.87293 -0.26700
N 	N 	0.81313 0.82751 0.90657 -0.15000
S 	S 	0.57743 0.83435 0.70983 -0.06300
S 	S 	0.75359 0.79975 0.87079 -0.06100
C 	C 	0.16010 0.28178 0.85166 0.03700
H 	H 	0.14760 0.28490 0.84430 0.01300
C 	C 	0.17727 0.29417 0.84811 -0.05200
C 	C 	0.19563 0.28951 0.85817 0.01000
H 	H 	0.20760 0.29810 0.85660 0.03700
C 	C 	0.19617 0.27202 0.87062 -0.10000
H 	H 	0.20890 0.26760 0.87670 0.06600
C 	C 	0.17829 0.26099 0.87422 0.05800
H 	H 	0.17880 0.24960 0.88370 0.00100
C 	C 	0.09342 0.35151 0.71900 0.09800
C 	C 	0.10933 0.33516 0.76673 0.06500
H 	H 	0.09880 0.33600 0.75640 -0.00300
C 	C 	0.10923 0.31830 0.77959 -0.10700
H 	H 	0.09850 0.30820 0.77870 0.06800
C 	C 	0.12505 0.31624 0.79389 0.01400
H 	H 	0.12550 0.30470 0.80310 0.03500
C 	C 	0.14046 0.33154 0.79454 -0.05500
C 	C 	0.13885 0.34801 0.78115 0.04300
H 	H 	0.14950 0.35820 0.78150 0.01300
C 	C 	0.15793 0.33004 0.80983 0.14200
C 	C 	0.18522 0.34503 0.82570 0.13600
C 	C 	0.17526 0.31253 0.83463 0.13900
C 	C 	0.21236 0.36283 0.84659 0.04800
H 	H 	0.21260 0.35100 0.85540 0.00900
C 	C 	0.19823 0.36298 0.82962 -0.05800
C 	C 	0.19724 0.38086 0.81788 0.01800
H 	H 	0.18770 0.38190 0.80670 0.03500
C 	C 	0.21019 0.39724 0.82249 -0.11000
H 	H 	0.20960 0.40980 0.81480 0.07100
C 	C 	0.22413 0.39493 0.83862 0.06900
H 	H 	0.23360 0.40600 0.84120 -0.00200
C 	C 	0.25110 0.32552 0.87190 0.10800
C 	C 	0.26753 0.38780 0.91748 0.05200
H 	H 	0.25680 0.39790 0.91650 0.00300
C 	C 	0.27894 0.38726 0.93479 -0.09600
H 	H 	0.27670 0.39720 0.94550 0.06600
C 	C 	0.29439 0.37179 0.93705 0.00500
H 	H 	0.30240 0.37070 0.94940 0.03900
C 	C 	0.29744 0.35827 0.92042 -0.05300
C 	C 	0.28479 0.36005 0.90304 0.04600
H 	H 	0.28660 0.35030 0.89210 0.01100
C 	C 	0.31323 0.34207 0.92139 0.13300
N 	N 	0.15997 0.26561 0.86490 -0.22400
N 	N 	0.10465 0.36325 0.72691 -0.26000
N 	N 	0.12328 0.35068 0.76757 -0.22900
N 	N 	0.15943 0.31309 0.82092 -0.15500
N 	N 	0.17023 0.34658 0.81142 -0.15300
N 	N 	0.18849 0.32774 0.83754 -0.15200
N 	N 	0.22512 0.37827 0.85074 -0.23400
N 	N 	0.27033 0.37452 0.90084 -0.22600
N 	N 	0.24898 0.34297 0.87293 -0.26700
N 	N 	0.31313 0.32751 0.90657 -0.15000
S 	S 	0.07743 0.33435 0.70983 -0.06300
S 	S 	0.25359 0.29975 0.87079 -0.06100
C 	C 	0.16010 0.78178 0.35166 0.03700
H 	H 	0.14760 0.78490 0.34430 0.01300
C 	C 	0.17727 0.79417 0.34811 -0.05200
C 	C 	0.19563 0.78951 0.35817 0.01000
H 	H 	0.20760 0.79810 0.35660 0.03700
C 	C 	0.19617 0.77202 0.37062 -0.10000
H 	H 	0.20890 0.76760 0.37670 0.06600
C 	C 	0.17829 0.76099 0.37422 0.05800
H 	H 	0.17880 0.74960 0.38370 0.00100
C 	C 	0.09342 0.85151 0.21900 0.09800
C 	C 	0.10933 0.83516 0.26673 0.06500
H 	H 	0.09880 0.83600 0.25640 -0.00300
C 	C 	0.10923 0.81830 0.27959 -0.10700
H 	H 	0.09850 0.80820 0.27870 0.06800
C 	C 	0.12505 0.81624 0.29389 0.01400
H 	H 	0.12550 0.80470 0.30310 0.03500
C 	C 	0.14046 0.83154 0.29454 -0.05500
C 	C 	0.13885 0.84801 0.28115 0.04300
H 	H 	0.14950 0.85820 0.28150 0.01300
C 	C 	0.15793 0.83004 0.30983 0.14200
C 	C 	0.18522 0.84503 0.32570 0.13600
C 	C 	0.17526 0.81253 0.33463 0.13900
C 	C 	0.21236 0.86283 0.34659 0.04800
H 	H 	0.21260 0.85100 0.35540 0.00900
C 	C 	0.19823 0.86298 0.32962 -0.05800
C 	C 	0.19724 0.88086 0.31788 0.01800
H 	H 	0.18770 0.88190 0.30670 0.03500
C 	C 	0.21019 0.89724 0.32249 -0.11000
H 	H 	0.20960 0.90980 0.31480 0.07100
C 	C 	0.22413 0.89493 0.33862 0.06900
H 	H 	0.23360 0.90600 0.34120 -0.00200
C 	C 	0.25110 0.82552 0.37190 0.10800
C 	C 	0.26753 0.88780 0.41748 0.05200
H 	H 	0.25680 0.89790 0.41650 0.00300
C 	C 	0.27894 0.88726 0.43479 -0.09600
H 	H 	0.27670 0.89720 0.44550 0.06600
C 	C 	0.29439 0.87179 0.43705 0.00500
H 	H 	0.30240 0.87070 0.44940 0.03900
C 	C 	0.29744 0.85827 0.42042 -0.05300
C 	C 	0.28479 0.86005 0.40304 0.04600
H 	H 	0.28660 0.85030 0.39210 0.01100
C 	C 	0.31323 0.84207 0.42139 0.13300
N 	N 	0.15997 0.76561 0.36490 -0.22400
N 	N 	0.10465 0.86325 0.22691 -0.26000
N 	N 	0.12328 0.85068 0.26757 -0.22900
N 	N 	0.15943 0.81309 0.32092 -0.15500
N 	N 	0.17023 0.84658 0.31142 -0.15300
N 	N 	0.18849 0.82774 0.33754 -0.15200
N 	N 	0.22512 0.87827 0.35074 -0.23400
N 	N 	0.27033 0.87452 0.40084 -0.22600
N 	N 	0.24898 0.84297 0.37293 -0.26700
N 	N 	0.31313 0.82751 0.40657 -0.15000
S 	S 	0.07743 0.83435 0.20983 -0.06300
S 	S 	0.25359 0.79975 0.37079 -0.06100
C 	C 	0.28178 0.35166 0.66010 0.03700
H 	H 	0.28490 0.34430 0.64760 0.01300
C 	C 	0.29417 0.34811 0.67727 -0.05200
C 	C 	0.28951 0.35817 0.69563 0.01000
H 	H 	0.29810 0.35660 0.70760 0.03700
C 	C 	0.27202 0.37062 0.69617 -0.10000
H 	H 	0.26760 0.37670 0.70890 0.06600
C 	C 	0.26099 0.37422 0.67829 0.05800
H 	H 	0.24960 0.38370 0.67880 0.00100
C 	C 	0.35151 0.21900 0.59342 0.09800
C 	C 	0.33516 0.26673 0.60933 0.06500
H 	H 	0.33600 0.25640 0.59880 -0.00300
C 	C 	0.31830 0.27959 0.60923 -0.10700
H 	H 	0.30820 0.27870 0.59850 0.06800
C 	C 	0.31624 0.29389 0.62505 0.01400
H 	H 	0.30470 0.30310 0.62550 0.03500
C 	C 	0.33154 0.29454 0.64046 -0.05500
C 	C 	0.34801 0.28115 0.63885 0.04300
H 	H 	0.35820 0.28150 0.64950 0.01300
C 	C 	0.33004 0.30983 0.65793 0.14200
C 	C 	0.34503 0.32570 0.68522 0.13600
C 	C 	0.31253 0.33463 0.67526 0.13900
C 	C 	0.36283 0.34659 0.71236 0.04800
H 	H 	0.35100 0.35540 0.71260 0.00900
C 	C 	0.36298 0.32962 0.69823 -0.05800
C 	C 	0.38086 0.31788 0.69724 0.01800
H 	H 	0.38190 0.30670 0.68770 0.03500
C 	C 	0.39724 0.32249 0.71019 -0.11000
H 	H 	0.40980 0.31480 0.70960 0.07100
C 	C 	0.39493 0.33862 0.72413 0.06900
H 	H 	0.40600 0.34120 0.73360 -0.00200
C 	C 	0.32552 0.37190 0.75110 0.10800
C 	C 	0.38780 0.41748 0.76753 0.05200
H 	H 	0.39790 0.41650 0.75680 0.00300
C 	C 	0.38726 0.43479 0.77894 -0.09600
H 	H 	0.39720 0.44550 0.77670 0.06600
C 	C 	0.37179 0.43705 0.79439 0.00500
H 	H 	0.37070 0.44940 0.80240 0.03900
C 	C 	0.35827 0.42042 0.79744 -0.05300
C 	C 	0.36005 0.40304 0.78479 0.04600
H 	H 	0.35030 0.39210 0.78660 0.01100
C 	C 	0.34207 0.42139 0.81323 0.13300
N 	N 	0.26561 0.36490 0.65997 -0.22400
N 	N 	0.36325 0.22691 0.60465 -0.26000
N 	N 	0.35068 0.26757 0.62328 -0.22900
N 	N 	0.31309 0.32092 0.65943 -0.15500
N 	N 	0.34658 0.31142 0.67023 -0.15300
N 	N 	0.32774 0.33754 0.68849 -0.15200
N 	N 	0.37827 0.35074 0.72512 -0.23400
N 	N 	0.37452 0.40084 0.77033 -0.22600
N 	N 	0.34297 0.37293 0.74898 -0.26700
N 	N 	0.32751 0.40657 0.81313 -0.15000
S 	S 	0.33435 0.20983 0.57743 -0.06300
S 	S 	0.29975 0.37079 0.75359 -0.06100
C 	C 	0.28178 0.85166 0.16010 0.03700
H 	H 	0.28490 0.84430 0.14760 0.01300
C 	C 	0.29417 0.84811 0.17727 -0.05200
C 	C 	0.28951 0.85817 0.19563 0.01000
H 	H 	0.29810 0.85660 0.20760 0.03700
C 	C 	0.27202 0.87062 0.19617 -0.10000
H 	H 	0.26760 0.87670 0.20890 0.06600
C 	C 	0.26099 0.87422 0.17829 0.05800
H 	H 	0.24960 0.88370 0.17880 0.00100
C 	C 	0.35151 0.71900 0.09342 0.09800
C 	C 	0.33516 0.76673 0.10933 0.06500
H 	H 	0.33600 0.75640 0.09880 -0.00300
C 	C 	0.31830 0.77959 0.10923 -0.10700
H 	H 	0.30820 0.77870 0.09850 0.06800
C 	C 	0.31624 0.79389 0.12505 0.01400
H 	H 	0.30470 0.80310 0.12550 0.03500
C 	C 	0.33154 0.79454 0.14046 -0.05500
C 	C 	0.34801 0.78115 0.13885 0.04300
H 	H 	0.35820 0.78150 0.14950 0.01300
C 	C 	0.33004 0.80983 0.15793 0.14200
C 	C 	0.34503 0.82570 0.18522 0.13600
C 	C 	0.31253 0.83463 0.17526 0.13900
C 	C 	0.36283 0.84659 0.21236 0.04800
H 	H 	0.35100 0.85540 0.21260 0.00900
C 	C 	0.36298 0.82962 0.19823 -0.05800
C 	C 	0.38086 0.81788 0.19724 0.01800
H 	H 	0.38190 0.80670 0.18770 0.03500
C 	C 	0.39724 0.82249 0.21019 -0.11000
H 	H 	0.40980 0.81480 0.20960 0.07100
C 	C 	0.39493 0.83862 0.22413 0.06900
H 	H 	0.40600 0.84120 0.23360 -0.00200
C 	C 	0.32552 0.87190 0.25110 0.10800
C 	C 	0.38780 0.91748 0.26753 0.05200
H 	H 	0.39790 0.91650 0.25680 0.00300
C 	C 	0.38726 0.93479 0.27894 -0.09600
H 	H 	0.39720 0.94550 0.27670 0.06600
C 	C 	0.37179 0.93705 0.29439 0.00500
H 	H 	0.37070 0.94940 0.30240 0.03900
C 	C 	0.35827 0.92042 0.29744 -0.05300
C 	C 	0.36005 0.90304 0.28479 0.04600
H 	H 	0.35030 0.89210 0.28660 0.01100
C 	C 	0.34207 0.92139 0.31323 0.13300
N 	N 	0.26561 0.86490 0.15997 -0.22400
N 	N 	0.36325 0.72691 0.10465 -0.26000
N 	N 	0.35068 0.76757 0.12328 -0.22900
N 	N 	0.31309 0.82092 0.15943 -0.15500
N 	N 	0.34658 0.81142 0.17023 -0.15300
N 	N 	0.32774 0.83754 0.18849 -0.15200
N 	N 	0.37827 0.85074 0.22512 -0.23400
N 	N 	0.37452 0.90084 0.27033 -0.22600
N 	N 	0.34297 0.87293 0.24898 -0.26700
N 	N 	0.32751 0.90657 0.31313 -0.15000
S 	S 	0.33435 0.70983 0.07743 -0.06300
S 	S 	0.29975 0.87079 0.25359 -0.06100
C 	C 	0.78178 0.35166 0.16010 0.03700
H 	H 	0.78490 0.34430 0.14760 0.01300
C 	C 	0.79417 0.34811 0.17727 -0.05200
C 	C 	0.78951 0.35817 0.19563 0.01000
H 	H 	0.79810 0.35660 0.20760 0.03700
C 	C 	0.77202 0.37062 0.19617 -0.10000
H 	H 	0.76760 0.37670 0.20890 0.06600
C 	C 	0.76099 0.37422 0.17829 0.05800
H 	H 	0.74960 0.38370 0.17880 0.00100
C 	C 	0.85151 0.21900 0.09342 0.09800
C 	C 	0.83516 0.26673 0.10933 0.06500
H 	H 	0.83600 0.25640 0.09880 -0.00300
C 	C 	0.81830 0.27959 0.10923 -0.10700
H 	H 	0.80820 0.27870 0.09850 0.06800
C 	C 	0.81624 0.29389 0.12505 0.01400
H 	H 	0.80470 0.30310 0.12550 0.03500
C 	C 	0.83154 0.29454 0.14046 -0.05500
C 	C 	0.84801 0.28115 0.13885 0.04300
H 	H 	0.85820 0.28150 0.14950 0.01300
C 	C 	0.83004 0.30983 0.15793 0.14200
C 	C 	0.84503 0.32570 0.18522 0.13600
C 	C 	0.81253 0.33463 0.17526 0.13900
C 	C 	0.86283 0.34659 0.21236 0.04800
H 	H 	0.85100 0.35540 0.21260 0.00900
C 	C 	0.86298 0.32962 0.19823 -0.05800
C 	C 	0.88086 0.31788 0.19724 0.01800
H 	H 	0.88190 0.30670 0.18770 0.03500
C 	C 	0.89724 0.32249 0.21019 -0.11000
H 	H 	0.90980 0.31480 0.20960 0.07100
C 	C 	0.89493 0.33862 0.22413 0.06900
H 	H 	0.90600 0.34120 0.23360 -0.00200
C 	C 	0.82552 0.37190 0.25110 0.10800
C 	C 	0.88780 0.41748 0.26753 0.05200
H 	H 	0.89790 0.41650 0.25680 0.00300
C 	C 	0.88726 0.43479 0.27894 -0.09600
H 	H 	0.89720 0.44550 0.27670 0.06600
C 	C 	0.87179 0.43705 0.29439 0.00500
H 	H 	0.87070 0.44940 0.30240 0.03900
C 	C 	0.85827 0.42042 0.29744 -0.05300
C 	C 	0.86005 0.40304 0.28479 0.04600
H 	H 	0.85030 0.39210 0.28660 0.01100
C 	C 	0.84207 0.42139 0.31323 0.13300
N 	N 	0.76561 0.36490 0.15997 -0.22400
N 	N 	0.86325 0.22691 0.10465 -0.26000
N 	N 	0.85068 0.26757 0.12328 -0.22900
N 	N 	0.81309 0.32092 0.15943 -0.15500
N 	N 	0.84658 0.31142 0.17023 -0.15300
N 	N 	0.82774 0.33754 0.18849 -0.15200
N 	N 	0.87827 0.35074 0.22512 -0.23400
N 	N 	0.87452 0.40084 0.27033 -0.22600
N 	N 	0.84297 0.37293 0.24898 -0.26700
N 	N 	0.82751 0.40657 0.31313 -0.15000
S 	S 	0.83435 0.20983 0.07743 -0.06300
S 	S 	0.79975 0.37079 0.25359 -0.06100
C 	C 	0.78178 0.85166 0.66010 0.03700
H 	H 	0.78490 0.84430 0.64760 0.01300
C 	C 	0.79417 0.84811 0.67727 -0.05200
C 	C 	0.78951 0.85817 0.69563 0.01000
H 	H 	0.79810 0.85660 0.70760 0.03700
C 	C 	0.77202 0.87062 0.69617 -0.10000
H 	H 	0.76760 0.87670 0.70890 0.06600
C 	C 	0.76099 0.87422 0.67829 0.05800
H 	H 	0.74960 0.88370 0.67880 0.00100
C 	C 	0.85151 0.71900 0.59342 0.09800
C 	C 	0.83516 0.76673 0.60933 0.06500
H 	H 	0.83600 0.75640 0.59880 -0.00300
C 	C 	0.81830 0.77959 0.60923 -0.10700
H 	H 	0.80820 0.77870 0.59850 0.06800
C 	C 	0.81624 0.79389 0.62505 0.01400
H 	H 	0.80470 0.80310 0.62550 0.03500
C 	C 	0.83154 0.79454 0.64046 -0.05500
C 	C 	0.84801 0.78115 0.63885 0.04300
H 	H 	0.85820 0.78150 0.64950 0.01300
C 	C 	0.83004 0.80983 0.65793 0.14200
C 	C 	0.84503 0.82570 0.68522 0.13600
C 	C 	0.81253 0.83463 0.67526 0.13900
C 	C 	0.86283 0.84659 0.71236 0.04800
H 	H 	0.85100 0.85540 0.71260 0.00900
C 	C 	0.86298 0.82962 0.69823 -0.05800
C 	C 	0.88086 0.81788 0.69724 0.01800
H 	H 	0.88190 0.80670 0.68770 0.03500
C 	C 	0.89724 0.82249 0.71019 -0.11000
H 	H 	0.90980 0.81480 0.70960 0.07100
C 	C 	0.89493 0.83862 0.72413 0.06900
H 	H 	0.90600 0.84120 0.73360 -0.00200
C 	C 	0.82552 0.87190 0.75110 0.10800
C 	C 	0.88780 0.91748 0.76753 0.05200
H 	H 	0.89790 0.91650 0.75680 0.00300
C 	C 	0.88726 0.93479 0.77894 -0.09600
H 	H 	0.89720 0.94550 0.77670 0.06600
C 	C 	0.87179 0.93705 0.79439 0.00500
H 	H 	0.87070 0.94940 0.80240 0.03900
C 	C 	0.85827 0.92042 0.79744 -0.05300
C 	C 	0.86005 0.90304 0.78479 0.04600
H 	H 	0.85030 0.89210 0.78660 0.01100
C 	C 	0.84207 0.92139 0.81323 0.13300
N 	N 	0.76561 0.86490 0.65997 -0.22400
N 	N 	0.86325 0.72691 0.60465 -0.26000
N 	N 	0.85068 0.76757 0.62328 -0.22900
N 	N 	0.81309 0.82092 0.65943 -0.15500
N 	N 	0.84658 0.81142 0.67023 -0.15300
N 	N 	0.82774 0.83754 0.68849 -0.15200
N 	N 	0.87827 0.85074 0.72512 -0.23400
N 	N 	0.87452 0.90084 0.77033 -0.22600
N 	N 	0.84297 0.87293 0.74898 -0.26700
N 	N 	0.82751 0.90657 0.81313 -0.15000
S 	S 	0.83435 0.70983 0.57743 -0.06300
S 	S 	0.79975 0.87079 0.75359 -0.06100
C 	C 	0.46822 0.85166 0.58990 0.03700
H 	H 	0.46510 0.84430 0.60240 0.01300
C 	C 	0.45583 0.84811 0.57273 -0.05200
C 	C 	0.46049 0.85817 0.55437 0.01000
H 	H 	0.45190 0.85660 0.54240 0.03700
C 	C 	0.47798 0.87062 0.55383 -0.10000
H 	H 	0.48240 0.87670 0.54110 0.06600
C 	C 	0.48901 0.87422 0.57171 0.05800
H 	H 	0.50040 0.88370 0.57120 0.00100
C 	C 	0.39849 0.71900 0.65658 0.09800
C 	C 	0.41484 0.76673 0.64067 0.06500
H 	H 	0.41400 0.75640 0.65120 -0.00300
C 	C 	0.43170 0.77959 0.64077 -0.10700
H 	H 	0.44180 0.77870 0.65150 0.06800
C 	C 	0.43376 0.79389 0.62495 0.01400
H 	H 	0.44530 0.80310 0.62450 0.03500
C 	C 	0.41846 0.79454 0.60954 -0.05500
C 	C 	0.40199 0.78115 0.61115 0.04300
H 	H 	0.39180 0.78150 0.60050 0.01300
C 	C 	0.41996 0.80983 0.59207 0.14200
C 	C 	0.40497 0.82570 0.56478 0.13600
C 	C 	0.43747 0.83463 0.57474 0.13900
C 	C 	0.38717 0.84659 0.53764 0.04800
H 	H 	0.39900 0.85540 0.53740 0.00900
C 	C 	0.38702 0.82962 0.55177 -0.05800
C 	C 	0.36914 0.81788 0.55276 0.01800
H 	H 	0.36810 0.80670 0.56230 0.03500
C 	C 	0.35276 0.82249 0.53981 -0.11000
H 	H 	0.34020 0.81480 0.54040 0.07100
C 	C 	0.35507 0.83862 0.52587 0.06900
H 	H 	0.34400 0.84120 0.51640 -0.00200
C 	C 	0.42448 0.87190 0.49890 0.10800
C 	C 	0.36220 0.91748 0.48247 0.05200
H 	H 	0.35210 0.91650 0.49320 0.00300
C 	C 	0.36274 0.93479 0.47106 -0.09600
H 	H 	0.35280 0.94550 0.47330 0.06600
C 	C 	0.37821 0.93705 0.45561 0.00500
H 	H 	0.37930 0.94940 0.44760 0.03900
C 	C 	0.39173 0.92042 0.45256 -0.05300
C 	C 	0.38995 0.90304 0.46521 0.04600
H 	H 	0.39970 0.89210 0.46340 0.01100
C 	C 	0.40793 0.92139 0.43677 0.13300
N 	N 	0.48439 0.86490 0.59003 -0.22400
N 	N 	0.38675 0.72691 0.64535 -0.26000
N 	N 	0.39932 0.76757 0.62672 -0.22900
N 	N 	0.43691 0.82092 0.59057 -0.15500
N 	N 	0.40342 0.81142 0.57977 -0.15300
N 	N 	0.42226 0.83754 0.56151 -0.15200
N 	N 	0.37173 0.85074 0.52488 -0.23400
N 	N 	0.37548 0.90084 0.47967 -0.22600
N 	N 	0.40703 0.87293 0.50102 -0.26700
N 	N 	0.42249 0.90657 0.43687 -0.15000
S 	S 	0.41565 0.70983 0.67257 -0.06300
S 	S 	0.45025 0.87079 0.49641 -0.06100
C 	C 	0.46822 0.35166 0.08990 0.03700
H 	H 	0.46510 0.34430 0.10240 0.01300
C 	C 	0.45583 0.34811 0.07273 -0.05200
C 	C 	0.46049 0.35817 0.05437 0.01000
H 	H 	0.45190 0.35660 0.04240 0.03700
C 	C 	0.47798 0.37062 0.05383 -0.10000
H 	H 	0.48240 0.37670 0.04110 0.06600
C 	C 	0.48901 0.37422 0.07171 0.05800
H 	H 	0.50040 0.38370 0.07120 0.00100
C 	C 	0.39849 0.21900 0.15658 0.09800
C 	C 	0.41484 0.26673 0.14067 0.06500
H 	H 	0.41400 0.25640 0.15120 -0.00300
C 	C 	0.43170 0.27959 0.14077 -0.10700
H 	H 	0.44180 0.27870 0.15150 0.06800
C 	C 	0.43376 0.29389 0.12495 0.01400
H 	H 	0.44530 0.30310 0.12450 0.03500
C 	C 	0.41846 0.29454 0.10954 -0.05500
C 	C 	0.40199 0.28115 0.11115 0.04300
H 	H 	0.39180 0.28150 0.10050 0.01300
C 	C 	0.41996 0.30983 0.09207 0.14200
C 	C 	0.40497 0.32570 0.06478 0.13600
C 	C 	0.43747 0.33463 0.07474 0.13900
C 	C 	0.38717 0.34659 0.03764 0.04800
H 	H 	0.39900 0.35540 0.03740 0.00900
C 	C 	0.38702 0.32962 0.05177 -0.05800
C 	C 	0.36914 0.31788 0.05276 0.01800
H 	H 	0.36810 0.30670 0.06230 0.03500
C 	C 	0.35276 0.32249 0.03981 -0.11000
H 	H 	0.34020 0.31480 0.04040 0.07100
C 	C 	0.35507 0.33862 0.02587 0.06900
H 	H 	0.34400 0.34120 0.01640 -0.00200
C 	C 	0.42448 0.37190 0.99890 0.10800
C 	C 	0.36220 0.41748 0.98247 0.05200
H 	H 	0.35210 0.41650 0.99320 0.00300
C 	C 	0.36274 0.43479 0.97106 -0.09600
H 	H 	0.35280 0.44550 0.97330 0.06600
C 	C 	0.37821 0.43705 0.95561 0.00500
H 	H 	0.37930 0.44940 0.94760 0.03900
C 	C 	0.39173 0.42042 0.95256 -0.05300
C 	C 	0.38995 0.40304 0.96521 0.04600
H 	H 	0.39970 0.39210 0.96340 0.01100
C 	C 	0.40793 0.42139 0.93677 0.13300
N 	N 	0.48439 0.36490 0.09003 -0.22400
N 	N 	0.38675 0.22691 0.14535 -0.26000
N 	N 	0.39932 0.26757 0.12672 -0.22900
N 	N 	0.43691 0.32092 0.09057 -0.15500
N 	N 	0.40342 0.31142 0.07977 -0.15300
N 	N 	0.42226 0.33754 0.06151 -0.15200
N 	N 	0.37173 0.35074 0.02488 -0.23400
N 	N 	0.37548 0.40084 0.97967 -0.22600
N 	N 	0.40703 0.37293 0.00102 -0.26700
N 	N 	0.42249 0.40657 0.93687 -0.15000
S 	S 	0.41565 0.20983 0.17257 -0.06300
S 	S 	0.45025 0.37079 0.99641 -0.06100
C 	C 	0.96822 0.85166 0.08990 0.03800
H 	H 	0.96510 0.84430 0.10240 0.01300
C 	C 	0.95583 0.84811 0.07273 -0.05200
C 	C 	0.96049 0.85817 0.05437 0.01000
H 	H 	0.95190 0.85660 0.04240 0.03700
C 	C 	0.97798 0.87062 0.05383 -0.10000
H 	H 	0.98240 0.87670 0.04110 0.06600
C 	C 	0.98901 0.87422 0.07171 0.05900
H 	H 	0.00040 0.88370 0.07120 0.00100
C 	C 	0.89849 0.71900 0.15658 0.09800
C 	C 	0.91484 0.76673 0.14067 0.06500
H 	H 	0.91400 0.75640 0.15120 -0.00300
C 	C 	0.93170 0.77959 0.14077 -0.10700
H 	H 	0.94180 0.77870 0.15150 0.06800
C 	C 	0.93376 0.79389 0.12495 0.01400
H 	H 	0.94530 0.80310 0.12450 0.03500
C 	C 	0.91846 0.79454 0.10954 -0.05500
C 	C 	0.90199 0.78115 0.11115 0.04300
H 	H 	0.89180 0.78150 0.10050 0.01300
C 	C 	0.91996 0.80983 0.09207 0.14200
C 	C 	0.90497 0.82570 0.06478 0.13600
C 	C 	0.93747 0.83463 0.07474 0.13900
C 	C 	0.88717 0.84659 0.03764 0.04800
H 	H 	0.89900 0.85540 0.03740 0.00900
C 	C 	0.88702 0.82962 0.05177 -0.05800
C 	C 	0.86914 0.81788 0.05276 0.01800
H 	H 	0.86810 0.80670 0.06230 0.03500
C 	C 	0.85276 0.82249 0.03981 -0.11000
H 	H 	0.84020 0.81480 0.04040 0.07100
C 	C 	0.85507 0.83862 0.02587 0.06900
H 	H 	0.84400 0.84120 0.01640 -0.00200
C 	C 	0.92448 0.87190 0.99890 0.10800
C 	C 	0.86220 0.91748 0.98247 0.05200
H 	H 	0.85210 0.91650 0.99320 0.00300
C 	C 	0.86274 0.93479 0.97106 -0.09600
H 	H 	0.85280 0.94550 0.97330 0.06600
C 	C 	0.87821 0.93705 0.95561 0.00500
H 	H 	0.87930 0.94940 0.94760 0.03900
C 	C 	0.89173 0.92042 0.95256 -0.05300
C 	C 	0.88995 0.90304 0.96521 0.04600
H 	H 	0.89970 0.89210 0.96340 0.01100
C 	C 	0.90793 0.92139 0.93677 0.13300
N 	N 	0.98439 0.86490 0.09003 -0.22400
N 	N 	0.88675 0.72691 0.14535 -0.26000
N 	N 	0.89932 0.76757 0.12672 -0.22900
N 	N 	0.93691 0.82092 0.09057 -0.15500
N 	N 	0.90342 0.81142 0.07977 -0.15300
N 	N 	0.92226 0.83754 0.06151 -0.15200
N 	N 	0.87173 0.85074 0.02488 -0.23400
N 	N 	0.87548 0.90084 0.97967 -0.22600
N 	N 	0.90703 0.87293 0.00102 -0.26700
N 	N 	0.92249 0.90657 0.93687 -0.15000
S 	S 	0.91565 0.70983 0.17257 -0.06300
S 	S 	0.95025 0.87079 0.99641 -0.06100
C 	C 	0.96822 0.35166 0.58990 0.03800
H 	H 	0.96510 0.34430 0.60240 0.01300
C 	C 	0.95583 0.34811 0.57273 -0.05200
C 	C 	0.96049 0.35817 0.55437 0.01000
H 	H 	0.95190 0.35660 0.54240 0.03700
C 	C 	0.97798 0.37062 0.55383 -0.10000
H 	H 	0.98240 0.37670 0.54110 0.06600
C 	C 	0.98901 0.37422 0.57171 0.05900
H 	H 	0.00040 0.38370 0.57120 0.00100
C 	C 	0.89849 0.21900 0.65658 0.09800
C 	C 	0.91484 0.26673 0.64067 0.06500
H 	H 	0.91400 0.25640 0.65120 -0.00300
C 	C 	0.93170 0.27959 0.64077 -0.10700
H 	H 	0.94180 0.27870 0.65150 0.06800
C 	C 	0.93376 0.29389 0.62495 0.01400
H 	H 	0.94530 0.30310 0.62450 0.03500
C 	C 	0.91846 0.29454 0.60954 -0.05500
C 	C 	0.90199 0.28115 0.61115 0.04300
H 	H 	0.89180 0.28150 0.60050 0.01300
C 	C 	0.91996 0.30983 0.59207 0.14200
C 	C 	0.90497 0.32570 0.56478 0.13600
C 	C 	0.93747 0.33463 0.57474 0.13900
C 	C 	0.88717 0.34659 0.53764 0.04800
H 	H 	0.89900 0.35540 0.53740 0.00900
C 	C 	0.88702 0.32962 0.55177 -0.05800
C 	C 	0.86914 0.31788 0.55276 0.01800
H 	H 	0.86810 0.30670 0.56230 0.03500
C 	C 	0.85276 0.32249 0.53981 -0.11000
H 	H 	0.84020 0.31480 0.54040 0.07100
C 	C 	0.85507 0.33862 0.52587 0.06900
H 	H 	0.84400 0.34120 0.51640 -0.00200
C 	C 	0.92448 0.37190 0.49890 0.10800
C 	C 	0.86220 0.41748 0.48247 0.05200
H 	H 	0.85210 0.41650 0.49320 0.00300
C 	C 	0.86274 0.43479 0.47106 -0.09600
H 	H 	0.85280 0.44550 0.47330 0.06600
C 	C 	0.87821 0.43705 0.45561 0.00500
H 	H 	0.87930 0.44940 0.44760 0.03900
C 	C 	0.89173 0.42042 0.45256 -0.05300
C 	C 	0.88995 0.40304 0.46521 0.04600
H 	H 	0.89970 0.39210 0.46340 0.01100
C 	C 	0.90793 0.42139 0.43677 0.13300
N 	N 	0.98439 0.36490 0.59003 -0.22400
N 	N 	0.88675 0.22691 0.64535 -0.26000
N 	N 	0.89932 0.26757 0.62672 -0.22900
N 	N 	0.93691 0.32092 0.59057 -0.15500
N 	N 	0.90342 0.31142 0.57977 -0.15300
N 	N 	0.92226 0.33754 0.56151 -0.15200
N 	N 	0.87173 0.35074 0.52488 -0.23400
N 	N 	0.87548 0.40084 0.47967 -0.22600
N 	N 	0.90703 0.37293 0.50102 -0.26700
N 	N 	0.92249 0.40657 0.43687 -0.15000
S 	S 	0.91565 0.20983 0.67257 -0.06300
S 	S 	0.95025 0.37079 0.49641 -0.06100
C 	C 	0.96822 0.39834 0.16010 0.03800
H 	H 	0.96510 0.40570 0.14760 0.01300
C 	C 	0.95583 0.40189 0.17727 -0.05200
C 	C 	0.96049 0.39183 0.19563 0.01000
H 	H 	0.95190 0.39340 0.20760 0.03700
C 	C 	0.97798 0.37938 0.19617 -0.10000
H 	H 	0.98240 0.37330 0.20890 0.06600
C 	C 	0.98901 0.37578 0.17829 0.05900
H 	H 	0.00040 0.36630 0.17880 0.00100
C 	C 	0.89849 0.53100 0.09342 0.09800
C 	C 	0.91484 0.48327 0.10933 0.06500
H 	H 	0.91400 0.49360 0.09880 -0.00300
C 	C 	0.93170 0.47041 0.10923 -0.10700
H 	H 	0.94180 0.47130 0.09850 0.06800
C 	C 	0.93376 0.45611 0.12505 0.01400
H 	H 	0.94530 0.44690 0.12550 0.03500
C 	C 	0.91846 0.45546 0.14046 -0.05500
C 	C 	0.90199 0.46885 0.13885 0.04300
H 	H 	0.89180 0.46850 0.14950 0.01300
C 	C 	0.91996 0.44017 0.15793 0.14200
C 	C 	0.90497 0.42430 0.18522 0.13600
C 	C 	0.93747 0.41537 0.17526 0.13900
C 	C 	0.88717 0.40341 0.21236 0.04800
H 	H 	0.89900 0.39460 0.21260 0.00900
C 	C 	0.88702 0.42038 0.19823 -0.05800
C 	C 	0.86914 0.43212 0.19724 0.01800
H 	H 	0.86810 0.44330 0.18770 0.03500
C 	C 	0.85276 0.42751 0.21019 -0.11000
H 	H 	0.84020 0.43520 0.20960 0.07100
C 	C 	0.85507 0.41138 0.22413 0.06900
H 	H 	0.84400 0.40880 0.23360 -0.00200
C 	C 	0.92448 0.37810 0.25110 0.10800
C 	C 	0.86220 0.33252 0.26753 0.05200
H 	H 	0.85210 0.33350 0.25680 0.00300
C 	C 	0.86274 0.31521 0.27894 -0.09600
H 	H 	0.85280 0.30450 0.27670 0.06600
C 	C 	0.87821 0.31295 0.29439 0.00500
H 	H 	0.87930 0.30060 0.30240 0.03900
C 	C 	0.89173 0.32958 0.29744 -0.05300
C 	C 	0.88995 0.34696 0.28479 0.04600
H 	H 	0.89970 0.35790 0.28660 0.01100
C 	C 	0.90793 0.32861 0.31323 0.13300
N 	N 	0.98439 0.38510 0.15997 -0.22400
N 	N 	0.88675 0.52309 0.10465 -0.26000
N 	N 	0.89932 0.48243 0.12328 -0.22900
N 	N 	0.93691 0.42908 0.15943 -0.15500
N 	N 	0.90342 0.43858 0.17023 -0.15300
N 	N 	0.92226 0.41246 0.18849 -0.15200
N 	N 	0.87173 0.39926 0.22512 -0.23400
N 	N 	0.87548 0.34916 0.27033 -0.22600
N 	N 	0.90703 0.37707 0.24898 -0.26700
N 	N 	0.92249 0.34343 0.31313 -0.15000
S 	S 	0.91565 0.54017 0.07743 -0.06300
S 	S 	0.95025 0.37921 0.25359 -0.06100
C 	C 	0.96822 0.89834 0.66010 0.03800
H 	H 	0.96510 0.90570 0.64760 0.01300
C 	C 	0.95583 0.90189 0.67727 -0.05200
C 	C 	0.96049 0.89183 0.69563 0.01000
H 	H 	0.95190 0.89340 0.70760 0.03700
C 	C 	0.97798 0.87938 0.69617 -0.10000
H 	H 	0.98240 0.87330 0.70890 0.06600
C 	C 	0.98901 0.87578 0.67829 0.05900
H 	H 	0.00040 0.86630 0.67880 0.00100
C 	C 	0.89849 0.03100 0.59342 0.09800
C 	C 	0.91484 0.98327 0.60933 0.06500
H 	H 	0.91400 0.99360 0.59880 -0.00300
C 	C 	0.93170 0.97041 0.60923 -0.10700
H 	H 	0.94180 0.97130 0.59850 0.06800
C 	C 	0.93376 0.95611 0.62505 0.01400
H 	H 	0.94530 0.94690 0.62550 0.03600
C 	C 	0.91846 0.95546 0.64046 -0.05500
C 	C 	0.90199 0.96885 0.63885 0.04300
H 	H 	0.89180 0.96850 0.64950 0.01300
C 	C 	0.91996 0.94017 0.65793 0.14200
C 	C 	0.90497 0.92430 0.68522 0.13600
C 	C 	0.93747 0.91537 0.67526 0.13900
C 	C 	0.88717 0.90341 0.71236 0.04800
H 	H 	0.89900 0.89460 0.71260 0.00900
C 	C 	0.88702 0.92038 0.69823 -0.05800
C 	C 	0.86914 0.93212 0.69724 0.01800
H 	H 	0.86810 0.94330 0.68770 0.03500
C 	C 	0.85276 0.92751 0.71019 -0.11000
H 	H 	0.84020 0.93520 0.70960 0.07100
C 	C 	0.85507 0.91138 0.72413 0.06900
H 	H 	0.84400 0.90880 0.73360 -0.00200
C 	C 	0.92448 0.87810 0.75110 0.10800
C 	C 	0.86220 0.83252 0.76753 0.05200
H 	H 	0.85210 0.83350 0.75680 0.00300
C 	C 	0.86274 0.81521 0.77894 -0.09600
H 	H 	0.85280 0.80450 0.77670 0.06600
C 	C 	0.87821 0.81295 0.79439 0.00500
H 	H 	0.87930 0.80060 0.80240 0.03900
C 	C 	0.89173 0.82958 0.79744 -0.05300
C 	C 	0.88995 0.84696 0.78479 0.04600
H 	H 	0.89970 0.85790 0.78660 0.01100
C 	C 	0.90793 0.82861 0.81323 0.13300
N 	N 	0.98439 0.88510 0.65997 -0.22400
N 	N 	0.88675 0.02309 0.60465 -0.26000
N 	N 	0.89932 0.98243 0.62328 -0.22900
N 	N 	0.93691 0.92908 0.65943 -0.15500
N 	N 	0.90342 0.93858 0.67023 -0.15300
N 	N 	0.92226 0.91246 0.68849 -0.15200
N 	N 	0.87173 0.89926 0.72512 -0.23400
N 	N 	0.87548 0.84916 0.77033 -0.22600
N 	N 	0.90703 0.87707 0.74898 -0.26700
N 	N 	0.92249 0.84343 0.81313 -0.15000
S 	S 	0.91565 0.04017 0.57743 -0.06300
S 	S 	0.95025 0.87921 0.75359 -0.06100
C 	C 	0.46822 0.39834 0.66010 0.03700
H 	H 	0.46510 0.40570 0.64760 0.01300
C 	C 	0.45583 0.40189 0.67727 -0.05200
C 	C 	0.46049 0.39183 0.69563 0.01000
H 	H 	0.45190 0.39340 0.70760 0.03700
C 	C 	0.47798 0.37938 0.69617 -0.10000
H 	H 	0.48240 0.37330 0.70890 0.06600
C 	C 	0.48901 0.37578 0.67829 0.05800
H 	H 	0.50040 0.36630 0.67880 0.00100
C 	C 	0.39849 0.53100 0.59342 0.09800
C 	C 	0.41484 0.48327 0.60933 0.06500
H 	H 	0.41400 0.49360 0.59880 -0.00300
C 	C 	0.43170 0.47041 0.60923 -0.10700
H 	H 	0.44180 0.47130 0.59850 0.06800
C 	C 	0.43376 0.45611 0.62505 0.01400
H 	H 	0.44530 0.44690 0.62550 0.03500
C 	C 	0.41846 0.45546 0.64046 -0.05500
C 	C 	0.40199 0.46885 0.63885 0.04300
H 	H 	0.39180 0.46850 0.64950 0.01300
C 	C 	0.41996 0.44017 0.65793 0.14200
C 	C 	0.40497 0.42430 0.68522 0.13600
C 	C 	0.43747 0.41537 0.67526 0.13900
C 	C 	0.38717 0.40341 0.71236 0.04800
H 	H 	0.39900 0.39460 0.71260 0.00900
C 	C 	0.38702 0.42038 0.69823 -0.05800
C 	C 	0.36914 0.43212 0.69724 0.01800
H 	H 	0.36810 0.44330 0.68770 0.03500
C 	C 	0.35276 0.42751 0.71019 -0.11000
H 	H 	0.34020 0.43520 0.70960 0.07100
C 	C 	0.35507 0.41138 0.72413 0.06900
H 	H 	0.34400 0.40880 0.73360 -0.00200
C 	C 	0.42448 0.37810 0.75110 0.10800
C 	C 	0.36220 0.33252 0.76753 0.05200
H 	H 	0.35210 0.33350 0.75680 0.00300
C 	C 	0.36274 0.31521 0.77894 -0.09600
H 	H 	0.35280 0.30450 0.77670 0.06600
C 	C 	0.37821 0.31295 0.79439 0.00500
H 	H 	0.37930 0.30060 0.80240 0.03900
C 	C 	0.39173 0.32958 0.79744 -0.05300
C 	C 	0.38995 0.34696 0.78479 0.04600
H 	H 	0.39970 0.35790 0.78660 0.01100
C 	C 	0.40793 0.32861 0.81323 0.13300
N 	N 	0.48439 0.38510 0.65997 -0.22400
N 	N 	0.38675 0.52309 0.60465 -0.26000
N 	N 	0.39932 0.48243 0.62328 -0.22900
N 	N 	0.43691 0.42908 0.65943 -0.15500
N 	N 	0.40342 0.43858 0.67023 -0.15300
N 	N 	0.42226 0.41246 0.68849 -0.15200
N 	N 	0.37173 0.39926 0.72512 -0.23400
N 	N 	0.37548 0.34916 0.77033 -0.22600
N 	N 	0.40703 0.37707 0.74898 -0.26700
N 	N 	0.42249 0.34343 0.81313 -0.15000
S 	S 	0.41565 0.54017 0.57743 -0.06300
S 	S 	0.45025 0.37921 0.75359 -0.06100
C 	C 	0.46822 0.89834 0.16010 0.03700
H 	H 	0.46510 0.90570 0.14760 0.01300
C 	C 	0.45583 0.90189 0.17727 -0.05200
C 	C 	0.46049 0.89183 0.19563 0.01000
H 	H 	0.45190 0.89340 0.20760 0.03700
C 	C 	0.47798 0.87938 0.19617 -0.10000
H 	H 	0.48240 0.87330 0.20890 0.06600
C 	C 	0.48901 0.87578 0.17829 0.05800
H 	H 	0.50040 0.86630 0.17880 0.00100
C 	C 	0.39849 0.03100 0.09342 0.09800
C 	C 	0.41484 0.98327 0.10933 0.06500
H 	H 	0.41400 0.99360 0.09880 -0.00300
C 	C 	0.43170 0.97041 0.10923 -0.10700
H 	H 	0.44180 0.97130 0.09850 0.06800
C 	C 	0.43376 0.95611 0.12505 0.01400
H 	H 	0.44530 0.94690 0.12550 0.03500
C 	C 	0.41846 0.95546 0.14046 -0.05500
C 	C 	0.40199 0.96885 0.13885 0.04300
H 	H 	0.39180 0.96850 0.14950 0.01300
C 	C 	0.41996 0.94017 0.15793 0.14200
C 	C 	0.40497 0.92430 0.18522 0.13600
C 	C 	0.43747 0.91537 0.17526 0.13900
C 	C 	0.38717 0.90341 0.21236 0.04800
H 	H 	0.39900 0.89460 0.21260 0.00900
C 	C 	0.38702 0.92038 0.19823 -0.05800
C 	C 	0.36914 0.93212 0.19724 0.01800
H 	H 	0.36810 0.94330 0.18770 0.03500
C 	C 	0.35276 0.92751 0.21019 -0.11000
H 	H 	0.34020 0.93520 0.20960 0.07100
C 	C 	0.35507 0.91138 0.22413 0.06900
H 	H 	0.34400 0.90880 0.23360 -0.00200
C 	C 	0.42448 0.87810 0.25110 0.10800
C 	C 	0.36220 0.83252 0.26753 0.05200
H 	H 	0.35210 0.83350 0.25680 0.00300
C 	C 	0.36274 0.81521 0.27894 -0.09600
H 	H 	0.35280 0.80450 0.27670 0.06600
C 	C 	0.37821 0.81295 0.29439 0.00500
H 	H 	0.37930 0.80060 0.30240 0.03900
C 	C 	0.39173 0.82958 0.29744 -0.05300
C 	C 	0.38995 0.84696 0.28479 0.04600
H 	H 	0.39970 0.85790 0.28660 0.01100
C 	C 	0.40793 0.82861 0.31323 0.13300
N 	N 	0.48439 0.88510 0.15997 -0.22400
N 	N 	0.38675 0.02309 0.10465 -0.26000
N 	N 	0.39932 0.98243 0.12328 -0.22900
N 	N 	0.43691 0.92908 0.15943 -0.15500
N 	N 	0.40342 0.93858 0.17023 -0.15300
N 	N 	0.42226 0.91246 0.18849 -0.15200
N 	N 	0.37173 0.89926 0.22512 -0.23400
N 	N 	0.37548 0.84916 0.27033 -0.22600
N 	N 	0.40703 0.87707 0.24898 -0.26700
N 	N 	0.42249 0.84343 0.31313 -0.15000
S 	S 	0.41565 0.04017 0.07743 -0.06300
S 	S 	0.45025 0.87921 0.25359 -0.06100
C 	C 	0.78178 0.89834 0.08990 0.03700
H 	H 	0.78490 0.90570 0.10240 0.01300
C 	C 	0.79417 0.90189 0.07273 -0.05200
C 	C 	0.78951 0.89183 0.05437 0.01000
H 	H 	0.79810 0.89340 0.04240 0.03700
C 	C 	0.77202 0.87938 0.05383 -0.10000
H 	H 	0.76760 0.87330 0.04110 0.06600
C 	C 	0.76099 0.87578 0.07171 0.05800
H 	H 	0.74960 0.86630 0.07120 0.00100
C 	C 	0.85151 0.03100 0.15658 0.09800
C 	C 	0.83516 0.98327 0.14067 0.06500
H 	H 	0.83600 0.99360 0.15120 -0.00300
C 	C 	0.81830 0.97041 0.14077 -0.10700
H 	H 	0.80820 0.97130 0.15150 0.06800
C 	C 	0.81624 0.95611 0.12495 0.01400
H 	H 	0.80470 0.94690 0.12450 0.03500
C 	C 	0.83154 0.95546 0.10954 -0.05500
C 	C 	0.84801 0.96885 0.11115 0.04300
H 	H 	0.85820 0.96850 0.10050 0.01300
C 	C 	0.83004 0.94017 0.09207 0.14200
C 	C 	0.84503 0.92430 0.06478 0.13600
C 	C 	0.81253 0.91537 0.07474 0.13900
C 	C 	0.86283 0.90341 0.03764 0.04800
H 	H 	0.85100 0.89460 0.03740 0.00900
C 	C 	0.86298 0.92038 0.05177 -0.05800
C 	C 	0.88086 0.93212 0.05276 0.01800
H 	H 	0.88190 0.94330 0.06230 0.03500
C 	C 	0.89724 0.92751 0.03981 -0.11000
H 	H 	0.90980 0.93520 0.04040 0.07100
C 	C 	0.89493 0.91138 0.02587 0.06900
H 	H 	0.90600 0.90880 0.01640 -0.00200
C 	C 	0.82552 0.87810 0.99890 0.10800
C 	C 	0.88780 0.83252 0.98247 0.05200
H 	H 	0.89790 0.83350 0.99320 0.00300
C 	C 	0.88726 0.81521 0.97106 -0.09600
H 	H 	0.89720 0.80450 0.97330 0.06600
C 	C 	0.87179 0.81295 0.95561 0.00500
H 	H 	0.87070 0.80060 0.94760 0.03900
C 	C 	0.85827 0.82958 0.95256 -0.05300
C 	C 	0.86005 0.84696 0.96521 0.04600
H 	H 	0.85030 0.85790 0.96340 0.01100
C 	C 	0.84207 0.82861 0.93677 0.13300
N 	N 	0.76561 0.88510 0.09003 -0.22400
N 	N 	0.86325 0.02309 0.14535 -0.26000
N 	N 	0.85068 0.98243 0.12672 -0.22900
N 	N 	0.81309 0.92908 0.09057 -0.15500
N 	N 	0.84658 0.93858 0.07977 -0.15300
N 	N 	0.82774 0.91246 0.06151 -0.15200
N 	N 	0.87827 0.89926 0.02488 -0.23400
N 	N 	0.87452 0.84916 0.97967 -0.22600
N 	N 	0.84297 0.87707 0.00102 -0.26700
N 	N 	0.82751 0.84343 0.93687 -0.15000
S 	S 	0.83435 0.04017 0.17257 -0.06300
S 	S 	0.79975 0.87921 0.99641 -0.06100
C 	C 	0.78178 0.39834 0.58990 0.03700
H 	H 	0.78490 0.40570 0.60240 0.01300
C 	C 	0.79417 0.40189 0.57273 -0.05200
C 	C 	0.78951 0.39183 0.55437 0.01000
H 	H 	0.79810 0.39340 0.54240 0.03700
C 	C 	0.77202 0.37938 0.55383 -0.10000
H 	H 	0.76760 0.37330 0.54110 0.06600
C 	C 	0.76099 0.37578 0.57171 0.05800
H 	H 	0.74960 0.36630 0.57120 0.00100
C 	C 	0.85151 0.53100 0.65658 0.09800
C 	C 	0.83516 0.48327 0.64067 0.06500
H 	H 	0.83600 0.49360 0.65120 -0.00300
C 	C 	0.81830 0.47041 0.64077 -0.10700
H 	H 	0.80820 0.47130 0.65150 0.06800
C 	C 	0.81624 0.45611 0.62495 0.01400
H 	H 	0.80470 0.44690 0.62450 0.03500
C 	C 	0.83154 0.45546 0.60954 -0.05500
C 	C 	0.84801 0.46885 0.61115 0.04300
H 	H 	0.85820 0.46850 0.60050 0.01300
C 	C 	0.83004 0.44017 0.59207 0.14200
C 	C 	0.84503 0.42430 0.56478 0.13600
C 	C 	0.81253 0.41537 0.57474 0.13900
C 	C 	0.86283 0.40341 0.53764 0.04800
H 	H 	0.85100 0.39460 0.53740 0.00900
C 	C 	0.86298 0.42038 0.55177 -0.05800
C 	C 	0.88086 0.43212 0.55276 0.01800
H 	H 	0.88190 0.44330 0.56230 0.03500
C 	C 	0.89724 0.42751 0.53981 -0.11000
H 	H 	0.90980 0.43520 0.54040 0.07100
C 	C 	0.89493 0.41138 0.52587 0.06900
H 	H 	0.90600 0.40880 0.51640 -0.00200
C 	C 	0.82552 0.37810 0.49890 0.10800
C 	C 	0.88780 0.33252 0.48247 0.05200
H 	H 	0.89790 0.33350 0.49320 0.00300
C 	C 	0.88726 0.31521 0.47106 -0.09600
H 	H 	0.89720 0.30450 0.47330 0.06600
C 	C 	0.87179 0.31295 0.45561 0.00500
H 	H 	0.87070 0.30060 0.44760 0.03900
C 	C 	0.85827 0.32958 0.45256 -0.05300
C 	C 	0.86005 0.34696 0.46521 0.04600
H 	H 	0.85030 0.35790 0.46340 0.01100
C 	C 	0.84207 0.32861 0.43677 0.13300
N 	N 	0.76561 0.38510 0.59003 -0.22400
N 	N 	0.86325 0.52309 0.64535 -0.26000
N 	N 	0.85068 0.48243 0.62672 -0.22900
N 	N 	0.81309 0.42908 0.59057 -0.15500
N 	N 	0.84658 0.43858 0.57977 -0.15300
N 	N 	0.82774 0.41246 0.56151 -0.15200
N 	N 	0.87827 0.39926 0.52488 -0.23400
N 	N 	0.87452 0.34916 0.47967 -0.22600
N 	N 	0.84297 0.37707 0.50102 -0.26700
N 	N 	0.82751 0.34343 0.43687 -0.15000
S 	S 	0.83435 0.54017 0.67257 -0.06300
S 	S 	0.79975 0.37921 0.49641 -0.06100
C 	C 	0.28178 0.89834 0.58990 0.03700
H 	H 	0.28490 0.90570 0.60240 0.01300
C 	C 	0.29417 0.90189 0.57273 -0.05200
C 	C 	0.28951 0.89183 0.55437 0.01000
H 	H 	0.29810 0.89340 0.54240 0.03700
C 	C 	0.27202 0.87938 0.55383 -0.10000
H 	H 	0.26760 0.87330 0.54110 0.06600
C 	C 	0.26099 0.87578 0.57171 0.05800
H 	H 	0.24960 0.86630 0.57120 0.00100
C 	C 	0.35151 0.03100 0.65658 0.09800
C 	C 	0.33516 0.98327 0.64067 0.06500
H 	H 	0.33600 0.99360 0.65120 -0.00300
C 	C 	0.31830 0.97041 0.64077 -0.10700
H 	H 	0.30820 0.97130 0.65150 0.06800
C 	C 	0.31624 0.95611 0.62495 0.01400
H 	H 	0.30470 0.94690 0.62450 0.03500
C 	C 	0.33154 0.95546 0.60954 -0.05500
C 	C 	0.34801 0.96885 0.61115 0.04300
H 	H 	0.35820 0.96850 0.60050 0.01300
C 	C 	0.33004 0.94017 0.59207 0.14200
C 	C 	0.34503 0.92430 0.56478 0.13600
C 	C 	0.31253 0.91537 0.57474 0.13900
C 	C 	0.36283 0.90341 0.53764 0.04800
H 	H 	0.35100 0.89460 0.53740 0.00900
C 	C 	0.36298 0.92038 0.55177 -0.05800
C 	C 	0.38086 0.93212 0.55276 0.01800
H 	H 	0.38190 0.94330 0.56230 0.03500
C 	C 	0.39724 0.92751 0.53981 -0.11000
H 	H 	0.40980 0.93520 0.54040 0.07100
C 	C 	0.39493 0.91138 0.52587 0.06900
H 	H 	0.40600 0.90880 0.51640 -0.00200
C 	C 	0.32552 0.87810 0.49890 0.10800
C 	C 	0.38780 0.83252 0.48247 0.05200
H 	H 	0.39790 0.83350 0.49320 0.00300
C 	C 	0.38726 0.81521 0.47106 -0.09600
H 	H 	0.39720 0.80450 0.47330 0.06600
C 	C 	0.37179 0.81295 0.45561 0.00500
H 	H 	0.37070 0.80060 0.44760 0.03900
C 	C 	0.35827 0.82958 0.45256 -0.05300
C 	C 	0.36005 0.84696 0.46521 0.04600
H 	H 	0.35030 0.85790 0.46340 0.01100
C 	C 	0.34207 0.82861 0.43677 0.13300
N 	N 	0.26561 0.88510 0.59003 -0.22400
N 	N 	0.36325 0.02309 0.64535 -0.26000
N 	N 	0.35068 0.98243 0.62672 -0.22900
N 	N 	0.31309 0.92908 0.59057 -0.15500
N 	N 	0.34658 0.93858 0.57977 -0.15300
N 	N 	0.32774 0.91246 0.56151 -0.15200
N 	N 	0.37827 0.89926 0.52488 -0.23400
N 	N 	0.37452 0.84916 0.47967 -0.22600
N 	N 	0.34297 0.87707 0.50102 -0.26700
N 	N 	0.32751 0.84343 0.43687 -0.15000
S 	S 	0.33435 0.04017 0.67257 -0.06300
S 	S 	0.29975 0.87921 0.49641 -0.06100
C 	C 	0.28178 0.39834 0.08990 0.03700
H 	H 	0.28490 0.40570 0.10240 0.01300
C 	C 	0.29417 0.40189 0.07273 -0.05200
C 	C 	0.28951 0.39183 0.05437 0.01000
H 	H 	0.29810 0.39340 0.04240 0.03700
C 	C 	0.27202 0.37938 0.05383 -0.10000
H 	H 	0.26760 0.37330 0.04110 0.06600
C 	C 	0.26099 0.37578 0.07171 0.05800
H 	H 	0.24960 0.36630 0.07120 0.00100
C 	C 	0.35151 0.53100 0.15658 0.09800
C 	C 	0.33516 0.48327 0.14067 0.06500
H 	H 	0.33600 0.49360 0.15120 -0.00300
C 	C 	0.31830 0.47041 0.14077 -0.10700
H 	H 	0.30820 0.47130 0.15150 0.06800
C 	C 	0.31624 0.45611 0.12495 0.01400
H 	H 	0.30470 0.44690 0.12450 0.03500
C 	C 	0.33154 0.45546 0.10954 -0.05500
C 	C 	0.34801 0.46885 0.11115 0.04300
H 	H 	0.35820 0.46850 0.10050 0.01300
C 	C 	0.33004 0.44017 0.09207 0.14200
C 	C 	0.34503 0.42430 0.06478 0.13600
C 	C 	0.31253 0.41537 0.07474 0.13900
C 	C 	0.36283 0.40341 0.03764 0.04800
H 	H 	0.35100 0.39460 0.03740 0.00900
C 	C 	0.36298 0.42038 0.05177 -0.05800
C 	C 	0.38086 0.43212 0.05276 0.01800
H 	H 	0.38190 0.44330 0.06230 0.03500
C 	C 	0.39724 0.42751 0.03981 -0.11000
H 	H 	0.40980 0.43520 0.04040 0.07100
C 	C 	0.39493 0.41138 0.02587 0.06900
H 	H 	0.40600 0.40880 0.01640 -0.00200
C 	C 	0.32552 0.37810 0.99890 0.10800
C 	C 	0.38780 0.33252 0.98247 0.05200
H 	H 	0.39790 0.33350 0.99320 0.00300
C 	C 	0.38726 0.31521 0.97106 -0.09600
H 	H 	0.39720 0.30450 0.97330 0.06600
C 	C 	0.37179 0.31295 0.95561 0.00500
H 	H 	0.37070 0.30060 0.94760 0.03900
C 	C 	0.35827 0.32958 0.95256 -0.05300
C 	C 	0.36005 0.34696 0.96521 0.04600
H 	H 	0.35030 0.35790 0.96340 0.01100
C 	C 	0.34207 0.32861 0.93677 0.13300
N 	N 	0.26561 0.38510 0.09003 -0.22400
N 	N 	0.36325 0.52309 0.14535 -0.26000
N 	N 	0.35068 0.48243 0.12672 -0.22900
N 	N 	0.31309 0.42908 0.09057 -0.15500
N 	N 	0.34658 0.43858 0.07977 -0.15300
N 	N 	0.32774 0.41246 0.06151 -0.15200
N 	N 	0.37827 0.39926 0.02488 -0.23400
N 	N 	0.37452 0.34916 0.97967 -0.22600
N 	N 	0.34297 0.37707 0.00102 -0.26700
N 	N 	0.32751 0.34343 0.93687 -0.15000
S 	S 	0.33435 0.54017 0.17257 -0.06300
S 	S 	0.29975 0.37921 0.99641 -0.06100
C 	C 	0.85166 0.58990 0.46822 0.03700
H 	H 	0.84430 0.60240 0.46510 0.01300
C 	C 	0.84811 0.57273 0.45583 -0.05200
C 	C 	0.85817 0.55437 0.46049 0.01000
H 	H 	0.85660 0.54240 0.45190 0.03700
C 	C 	0.87062 0.55383 0.47798 -0.10000
H 	H 	0.87670 0.54110 0.48240 0.06600
C 	C 	0.87422 0.57171 0.48901 0.05800
H 	H 	0.88370 0.57120 0.50040 0.00100
C 	C 	0.71900 0.65658 0.39849 0.09800
C 	C 	0.76673 0.64067 0.41484 0.06500
H 	H 	0.75640 0.65120 0.41400 -0.00300
C 	C 	0.77959 0.64077 0.43170 -0.10700
H 	H 	0.77870 0.65150 0.44180 0.06800
C 	C 	0.79389 0.62495 0.43376 0.01400
H 	H 	0.80310 0.62450 0.44530 0.03500
C 	C 	0.79454 0.60954 0.41846 -0.05500
C 	C 	0.78115 0.61115 0.40199 0.04300
H 	H 	0.78150 0.60050 0.39180 0.01300
C 	C 	0.80983 0.59207 0.41996 0.14200
C 	C 	0.82570 0.56478 0.40497 0.13600
C 	C 	0.83463 0.57474 0.43747 0.13900
C 	C 	0.84659 0.53764 0.38717 0.04800
H 	H 	0.85540 0.53740 0.39900 0.00900
C 	C 	0.82962 0.55177 0.38702 -0.05800
C 	C 	0.81788 0.55276 0.36914 0.01800
H 	H 	0.80670 0.56230 0.36810 0.03500
C 	C 	0.82249 0.53981 0.35276 -0.11000
H 	H 	0.81480 0.54040 0.34020 0.07100
C 	C 	0.83862 0.52587 0.35507 0.06900
H 	H 	0.84120 0.51640 0.34400 -0.00200
C 	C 	0.87190 0.49890 0.42448 0.10800
C 	C 	0.91748 0.48247 0.36220 0.05200
H 	H 	0.91650 0.49320 0.35210 0.00300
C 	C 	0.93479 0.47106 0.36274 -0.09600
H 	H 	0.94550 0.47330 0.35280 0.06600
C 	C 	0.93705 0.45561 0.37821 0.00500
H 	H 	0.94940 0.44760 0.37930 0.03900
C 	C 	0.92042 0.45256 0.39173 -0.05300
C 	C 	0.90304 0.46521 0.38995 0.04600
H 	H 	0.89210 0.46340 0.39970 0.01100
C 	C 	0.92139 0.43677 0.40793 0.13300
N 	N 	0.86490 0.59003 0.48439 -0.22400
N 	N 	0.72691 0.64535 0.38675 -0.26000
N 	N 	0.76757 0.62672 0.39932 -0.22900
N 	N 	0.82092 0.59057 0.43691 -0.15500
N 	N 	0.81142 0.57977 0.40342 -0.15300
N 	N 	0.83754 0.56151 0.42226 -0.15200
N 	N 	0.85074 0.52488 0.37173 -0.23400
N 	N 	0.90084 0.47967 0.37548 -0.22600
N 	N 	0.87293 0.50102 0.40703 -0.26700
N 	N 	0.90657 0.43687 0.42249 -0.15000
S 	S 	0.70983 0.67257 0.41565 -0.06300
S 	S 	0.87079 0.49641 0.45025 -0.06100
C 	C 	0.85166 0.08990 0.96822 0.03800
H 	H 	0.84430 0.10240 0.96510 0.01300
C 	C 	0.84811 0.07273 0.95583 -0.05200
C 	C 	0.85817 0.05437 0.96049 0.01000
H 	H 	0.85660 0.04240 0.95190 0.03700
C 	C 	0.87062 0.05383 0.97798 -0.10000
H 	H 	0.87670 0.04110 0.98240 0.06600
C 	C 	0.87422 0.07171 0.98901 0.05900
H 	H 	0.88370 0.07120 0.00040 0.00100
C 	C 	0.71900 0.15658 0.89849 0.09800
C 	C 	0.76673 0.14067 0.91484 0.06500
H 	H 	0.75640 0.15120 0.91400 -0.00300
C 	C 	0.77959 0.14077 0.93170 -0.10700
H 	H 	0.77870 0.15150 0.94180 0.06800
C 	C 	0.79389 0.12495 0.93376 0.01400
H 	H 	0.80310 0.12450 0.94530 0.03500
C 	C 	0.79454 0.10954 0.91846 -0.05500
C 	C 	0.78115 0.11115 0.90199 0.04300
H 	H 	0.78150 0.10050 0.89180 0.01300
C 	C 	0.80983 0.09207 0.91996 0.14200
C 	C 	0.82570 0.06478 0.90497 0.13600
C 	C 	0.83463 0.07474 0.93747 0.13900
C 	C 	0.84659 0.03764 0.88717 0.04800
H 	H 	0.85540 0.03740 0.89900 0.00900
C 	C 	0.82962 0.05177 0.88702 -0.05800
C 	C 	0.81788 0.05276 0.86914 0.01800
H 	H 	0.80670 0.06230 0.86810 0.03500
C 	C 	0.82249 0.03981 0.85276 -0.11000
H 	H 	0.81480 0.04040 0.84020 0.07100
C 	C 	0.83862 0.02587 0.85507 0.06900
H 	H 	0.84120 0.01640 0.84400 -0.00200
C 	C 	0.87190 0.99890 0.92448 0.10800
C 	C 	0.91748 0.98247 0.86220 0.05200
H 	H 	0.91650 0.99320 0.85210 0.00300
C 	C 	0.93479 0.97106 0.86274 -0.09600
H 	H 	0.94550 0.97330 0.85280 0.06600
C 	C 	0.93705 0.95561 0.87821 0.00500
H 	H 	0.94940 0.94760 0.87930 0.03900
C 	C 	0.92042 0.95256 0.89173 -0.05300
C 	C 	0.90304 0.96521 0.88995 0.04600
H 	H 	0.89210 0.96340 0.89970 0.01100
C 	C 	0.92139 0.93677 0.90793 0.13300
N 	N 	0.86490 0.09003 0.98439 -0.22400
N 	N 	0.72691 0.14535 0.88675 -0.26000
N 	N 	0.76757 0.12672 0.89932 -0.22900
N 	N 	0.82092 0.09057 0.93691 -0.15500
N 	N 	0.81142 0.07977 0.90342 -0.15300
N 	N 	0.83754 0.06151 0.92226 -0.15200
N 	N 	0.85074 0.02488 0.87173 -0.23400
N 	N 	0.90084 0.97967 0.87548 -0.22600
N 	N 	0.87293 0.00102 0.90703 -0.26700
N 	N 	0.90657 0.93687 0.92249 -0.15000
S 	S 	0.70983 0.17257 0.91565 -0.06300
S 	S 	0.87079 0.99641 0.95025 -0.06100
C 	C 	0.35166 0.58990 0.96822 0.03800
H 	H 	0.34430 0.60240 0.96510 0.01300
C 	C 	0.34811 0.57273 0.95583 -0.05200
C 	C 	0.35817 0.55437 0.96049 0.01000
H 	H 	0.35660 0.54240 0.95190 0.03700
C 	C 	0.37062 0.55383 0.97798 -0.10000
H 	H 	0.37670 0.54110 0.98240 0.06600
C 	C 	0.37422 0.57171 0.98901 0.05900
H 	H 	0.38370 0.57120 0.00040 0.00100
C 	C 	0.21900 0.65658 0.89849 0.09800
C 	C 	0.26673 0.64067 0.91484 0.06500
H 	H 	0.25640 0.65120 0.91400 -0.00300
C 	C 	0.27959 0.64077 0.93170 -0.10700
H 	H 	0.27870 0.65150 0.94180 0.06800
C 	C 	0.29389 0.62495 0.93376 0.01400
H 	H 	0.30310 0.62450 0.94530 0.03500
C 	C 	0.29454 0.60954 0.91846 -0.05500
C 	C 	0.28115 0.61115 0.90199 0.04300
H 	H 	0.28150 0.60050 0.89180 0.01300
C 	C 	0.30983 0.59207 0.91996 0.14200
C 	C 	0.32570 0.56478 0.90497 0.13600
C 	C 	0.33463 0.57474 0.93747 0.13900
C 	C 	0.34659 0.53764 0.88717 0.04800
H 	H 	0.35540 0.53740 0.89900 0.00900
C 	C 	0.32962 0.55177 0.88702 -0.05800
C 	C 	0.31788 0.55276 0.86914 0.01800
H 	H 	0.30670 0.56230 0.86810 0.03500
C 	C 	0.32249 0.53981 0.85276 -0.11000
H 	H 	0.31480 0.54040 0.84020 0.07100
C 	C 	0.33862 0.52587 0.85507 0.06900
H 	H 	0.34120 0.51640 0.84400 -0.00200
C 	C 	0.37190 0.49890 0.92448 0.10800
C 	C 	0.41748 0.48247 0.86220 0.05200
H 	H 	0.41650 0.49320 0.85210 0.00300
C 	C 	0.43479 0.47106 0.86274 -0.09600
H 	H 	0.44550 0.47330 0.85280 0.06600
C 	C 	0.43705 0.45561 0.87821 0.00500
H 	H 	0.44940 0.44760 0.87930 0.03900
C 	C 	0.42042 0.45256 0.89173 -0.05300
C 	C 	0.40304 0.46521 0.88995 0.04600
H 	H 	0.39210 0.46340 0.89970 0.01100
C 	C 	0.42139 0.43677 0.90793 0.13300
N 	N 	0.36490 0.59003 0.98439 -0.22400
N 	N 	0.22691 0.64535 0.88675 -0.26000
N 	N 	0.26757 0.62672 0.89932 -0.22900
N 	N 	0.32092 0.59057 0.93691 -0.15500
N 	N 	0.31142 0.57977 0.90342 -0.15300
N 	N 	0.33754 0.56151 0.92226 -0.15200
N 	N 	0.35074 0.52488 0.87173 -0.23400
N 	N 	0.40084 0.47967 0.87548 -0.22600
N 	N 	0.37293 0.50102 0.90703 -0.26700
N 	N 	0.40657 0.43687 0.92249 -0.15000
S 	S 	0.20983 0.67257 0.91565 -0.06300
S 	S 	0.37079 0.49641 0.95025 -0.06100
C 	C 	0.35166 0.08990 0.46822 0.03700
H 	H 	0.34430 0.10240 0.46510 0.01300
C 	C 	0.34811 0.07273 0.45583 -0.05200
C 	C 	0.35817 0.05437 0.46049 0.01000
H 	H 	0.35660 0.04240 0.45190 0.03700
C 	C 	0.37062 0.05383 0.47798 -0.10000
H 	H 	0.37670 0.04110 0.48240 0.06600
C 	C 	0.37422 0.07171 0.48901 0.05800
H 	H 	0.38370 0.07120 0.50040 0.00100
C 	C 	0.21900 0.15658 0.39849 0.09800
C 	C 	0.26673 0.14067 0.41484 0.06500
H 	H 	0.25640 0.15120 0.41400 -0.00300
C 	C 	0.27959 0.14077 0.43170 -0.10700
H 	H 	0.27870 0.15150 0.44180 0.06800
C 	C 	0.29389 0.12495 0.43376 0.01400
H 	H 	0.30310 0.12450 0.44530 0.03500
C 	C 	0.29454 0.10954 0.41846 -0.05500
C 	C 	0.28115 0.11115 0.40199 0.04300
H 	H 	0.28150 0.10050 0.39180 0.01300
C 	C 	0.30983 0.09207 0.41996 0.14200
C 	C 	0.32570 0.06478 0.40497 0.13600
C 	C 	0.33463 0.07474 0.43747 0.13900
C 	C 	0.34659 0.03764 0.38717 0.04800
H 	H 	0.35540 0.03740 0.39900 0.00900
C 	C 	0.32962 0.05177 0.38702 -0.05800
C 	C 	0.31788 0.05276 0.36914 0.01800
H 	H 	0.30670 0.06230 0.36810 0.03500
C 	C 	0.32249 0.03981 0.35276 -0.11000
H 	H 	0.31480 0.04040 0.34020 0.07100
C 	C 	0.33862 0.02587 0.35507 0.06900
H 	H 	0.34120 0.01640 0.34400 -0.00200
C 	C 	0.37190 0.99890 0.42448 0.10800
C 	C 	0.41748 0.98247 0.36220 0.05200
H 	H 	0.41650 0.99320 0.35210 0.00300
C 	C 	0.43479 0.97106 0.36274 -0.09600
H 	H 	0.44550 0.97330 0.35280 0.06600
C 	C 	0.43705 0.95561 0.37821 0.00500
H 	H 	0.44940 0.94760 0.37930 0.03900
C 	C 	0.42042 0.95256 0.39173 -0.05300
C 	C 	0.40304 0.96521 0.38995 0.04600
H 	H 	0.39210 0.96340 0.39970 0.01100
C 	C 	0.42139 0.93677 0.40793 0.13300
N 	N 	0.36490 0.09003 0.48439 -0.22400
N 	N 	0.22691 0.14535 0.38675 -0.26000
N 	N 	0.26757 0.12672 0.39932 -0.22900
N 	N 	0.32092 0.09057 0.43691 -0.15500
N 	N 	0.31142 0.07977 0.40342 -0.15300
N 	N 	0.33754 0.06151 0.42226 -0.15200
N 	N 	0.35074 0.02488 0.37173 -0.23400
N 	N 	0.40084 0.97967 0.37548 -0.22600
N 	N 	0.37293 0.00102 0.40703 -0.26700
N 	N 	0.40657 0.93687 0.42249 -0.15000
S 	S 	0.20983 0.17257 0.41565 -0.06300
S 	S 	0.37079 0.99641 0.45025 -0.06100
C 	C 	0.35166 0.66010 0.28178 0.03700
H 	H 	0.34430 0.64760 0.28490 0.01300
C 	C 	0.34811 0.67727 0.29417 -0.05200
C 	C 	0.35817 0.69563 0.28951 0.01000
H 	H 	0.35660 0.70760 0.29810 0.03700
C 	C 	0.37062 0.69617 0.27202 -0.10000
H 	H 	0.37670 0.70890 0.26760 0.06600
C 	C 	0.37422 0.67829 0.26099 0.05800
H 	H 	0.38370 0.67880 0.24960 0.00100
C 	C 	0.21900 0.59342 0.35151 0.09800
C 	C 	0.26673 0.60933 0.33516 0.06500
H 	H 	0.25640 0.59880 0.33600 -0.00300
C 	C 	0.27959 0.60923 0.31830 -0.10700
H 	H 	0.27870 0.59850 0.30820 0.06800
C 	C 	0.29389 0.62505 0.31624 0.01400
H 	H 	0.30310 0.62550 0.30470 0.03500
C 	C 	0.29454 0.64046 0.33154 -0.05500
C 	C 	0.28115 0.63885 0.34801 0.04300
H 	H 	0.28150 0.64950 0.35820 0.01300
C 	C 	0.30983 0.65793 0.33004 0.14200
C 	C 	0.32570 0.68522 0.34503 0.13600
C 	C 	0.33463 0.67526 0.31253 0.13900
C 	C 	0.34659 0.71236 0.36283 0.04800
H 	H 	0.35540 0.71260 0.35100 0.00900
C 	C 	0.32962 0.69823 0.36298 -0.05800
C 	C 	0.31788 0.69724 0.38086 0.01800
H 	H 	0.30670 0.68770 0.38190 0.03500
C 	C 	0.32249 0.71019 0.39724 -0.11000
H 	H 	0.31480 0.70960 0.40980 0.07100
C 	C 	0.33862 0.72413 0.39493 0.06900
H 	H 	0.34120 0.73360 0.40600 -0.00200
C 	C 	0.37190 0.75110 0.32552 0.10800
C 	C 	0.41748 0.76753 0.38780 0.05200
H 	H 	0.41650 0.75680 0.39790 0.00300
C 	C 	0.43479 0.77894 0.38726 -0.09600
H 	H 	0.44550 0.77670 0.39720 0.06600
C 	C 	0.43705 0.79439 0.37179 0.00500
H 	H 	0.44940 0.80240 0.37070 0.03900
C 	C 	0.42042 0.79744 0.35827 -0.05300
C 	C 	0.40304 0.78479 0.36005 0.04600
H 	H 	0.39210 0.78660 0.35030 0.01100
C 	C 	0.42139 0.81323 0.34207 0.13300
N 	N 	0.36490 0.65997 0.26561 -0.22400
N 	N 	0.22691 0.60465 0.36325 -0.26000
N 	N 	0.26757 0.62328 0.35068 -0.22900
N 	N 	0.32092 0.65943 0.31309 -0.15500
N 	N 	0.31142 0.67023 0.34658 -0.15300
N 	N 	0.33754 0.68849 0.32774 -0.15200
N 	N 	0.35074 0.72512 0.37827 -0.23400
N 	N 	0.40084 0.77033 0.37452 -0.22600
N 	N 	0.37293 0.74898 0.34297 -0.26700
N 	N 	0.40657 0.81313 0.32751 -0.15000
S 	S 	0.20983 0.57743 0.33435 -0.06300
S 	S 	0.37079 0.75359 0.29975 -0.06100
C 	C 	0.35166 0.16010 0.78178 0.03700
H 	H 	0.34430 0.14760 0.78490 0.01300
C 	C 	0.34811 0.17727 0.79417 -0.05200
C 	C 	0.35817 0.19563 0.78951 0.01000
H 	H 	0.35660 0.20760 0.79810 0.03700
C 	C 	0.37062 0.19617 0.77202 -0.10000
H 	H 	0.37670 0.20890 0.76760 0.06600
C 	C 	0.37422 0.17829 0.76099 0.05800
H 	H 	0.38370 0.17880 0.74960 0.00100
C 	C 	0.21900 0.09342 0.85151 0.09800
C 	C 	0.26673 0.10933 0.83516 0.06500
H 	H 	0.25640 0.09880 0.83600 -0.00300
C 	C 	0.27959 0.10923 0.81830 -0.10700
H 	H 	0.27870 0.09850 0.80820 0.06800
C 	C 	0.29389 0.12505 0.81624 0.01400
H 	H 	0.30310 0.12550 0.80470 0.03500
C 	C 	0.29454 0.14046 0.83154 -0.05500
C 	C 	0.28115 0.13885 0.84801 0.04300
H 	H 	0.28150 0.14950 0.85820 0.01300
C 	C 	0.30983 0.15793 0.83004 0.14200
C 	C 	0.32570 0.18522 0.84503 0.13600
C 	C 	0.33463 0.17526 0.81253 0.13900
C 	C 	0.34659 0.21236 0.86283 0.04800
H 	H 	0.35540 0.21260 0.85100 0.00900
C 	C 	0.32962 0.19823 0.86298 -0.05800
C 	C 	0.31788 0.19724 0.88086 0.01800
H 	H 	0.30670 0.18770 0.88190 0.03500
C 	C 	0.32249 0.21019 0.89724 -0.11000
H 	H 	0.31480 0.20960 0.90980 0.07100
C 	C 	0.33862 0.22413 0.89493 0.06900
H 	H 	0.34120 0.23360 0.90600 -0.00200
C 	C 	0.37190 0.25110 0.82552 0.10800
C 	C 	0.41748 0.26753 0.88780 0.05200
H 	H 	0.41650 0.25680 0.89790 0.00300
C 	C 	0.43479 0.27894 0.88726 -0.09600
H 	H 	0.44550 0.27670 0.89720 0.06600
C 	C 	0.43705 0.29439 0.87179 0.00500
H 	H 	0.44940 0.30240 0.87070 0.03900
C 	C 	0.42042 0.29744 0.85827 -0.05300
C 	C 	0.40304 0.28479 0.86005 0.04600
H 	H 	0.39210 0.28660 0.85030 0.01100
C 	C 	0.42139 0.31323 0.84207 0.13300
N 	N 	0.36490 0.15997 0.76561 -0.22400
N 	N 	0.22691 0.10465 0.86325 -0.26000
N 	N 	0.26757 0.12328 0.85068 -0.22900
N 	N 	0.32092 0.15943 0.81309 -0.15500
N 	N 	0.31142 0.17023 0.84658 -0.15300
N 	N 	0.33754 0.18849 0.82774 -0.15200
N 	N 	0.35074 0.22512 0.87827 -0.23400
N 	N 	0.40084 0.27033 0.87452 -0.22600
N 	N 	0.37293 0.24898 0.84297 -0.26700
N 	N 	0.40657 0.31313 0.82751 -0.15000
S 	S 	0.20983 0.07743 0.83435 -0.06300
S 	S 	0.37079 0.25359 0.79975 -0.06100
C 	C 	0.85166 0.66010 0.78178 0.03700
H 	H 	0.84430 0.64760 0.78490 0.01300
C 	C 	0.84811 0.67727 0.79417 -0.05200
C 	C 	0.85817 0.69563 0.78951 0.01000
H 	H 	0.85660 0.70760 0.79810 0.03700
C 	C 	0.87062 0.69617 0.77202 -0.10000
H 	H 	0.87670 0.70890 0.76760 0.06600
C 	C 	0.87422 0.67829 0.76099 0.05800
H 	H 	0.88370 0.67880 0.74960 0.00100
C 	C 	0.71900 0.59342 0.85151 0.09800
C 	C 	0.76673 0.60933 0.83516 0.06500
H 	H 	0.75640 0.59880 0.83600 -0.00300
C 	C 	0.77959 0.60923 0.81830 -0.10700
H 	H 	0.77870 0.59850 0.80820 0.06800
C 	C 	0.79389 0.62505 0.81624 0.01400
H 	H 	0.80310 0.62550 0.80470 0.03500
C 	C 	0.79454 0.64046 0.83154 -0.05500
C 	C 	0.78115 0.63885 0.84801 0.04300
H 	H 	0.78150 0.64950 0.85820 0.01300
C 	C 	0.80983 0.65793 0.83004 0.14200
C 	C 	0.82570 0.68522 0.84503 0.13600
C 	C 	0.83463 0.67526 0.81253 0.13900
C 	C 	0.84659 0.71236 0.86283 0.04800
H 	H 	0.85540 0.71260 0.85100 0.00900
C 	C 	0.82962 0.69823 0.86298 -0.05800
C 	C 	0.81788 0.69724 0.88086 0.01800
H 	H 	0.80670 0.68770 0.88190 0.03500
C 	C 	0.82249 0.71019 0.89724 -0.11000
H 	H 	0.81480 0.70960 0.90980 0.07100
C 	C 	0.83862 0.72413 0.89493 0.06900
H 	H 	0.84120 0.73360 0.90600 -0.00200
C 	C 	0.87190 0.75110 0.82552 0.10800
C 	C 	0.91748 0.76753 0.88780 0.05200
H 	H 	0.91650 0.75680 0.89790 0.00300
C 	C 	0.93479 0.77894 0.88726 -0.09600
H 	H 	0.94550 0.77670 0.89720 0.06600
C 	C 	0.93705 0.79439 0.87179 0.00500
H 	H 	0.94940 0.80240 0.87070 0.03900
C 	C 	0.92042 0.79744 0.85827 -0.05300
C 	C 	0.90304 0.78479 0.86005 0.04600
H 	H 	0.89210 0.78660 0.85030 0.01100
C 	C 	0.92139 0.81323 0.84207 0.13300
N 	N 	0.86490 0.65997 0.76561 -0.22400
N 	N 	0.72691 0.60465 0.86325 -0.26000
N 	N 	0.76757 0.62328 0.85068 -0.22900
N 	N 	0.82092 0.65943 0.81309 -0.15500
N 	N 	0.81142 0.67023 0.84658 -0.15300
N 	N 	0.83754 0.68849 0.82774 -0.15200
N 	N 	0.85074 0.72512 0.87827 -0.23400
N 	N 	0.90084 0.77033 0.87452 -0.22600
N 	N 	0.87293 0.74898 0.84297 -0.26700
N 	N 	0.90657 0.81313 0.82751 -0.15000
S 	S 	0.70983 0.57743 0.83435 -0.06300
S 	S 	0.87079 0.75359 0.79975 -0.06100
C 	C 	0.85166 0.16010 0.28178 0.03700
H 	H 	0.84430 0.14760 0.28490 0.01300
C 	C 	0.84811 0.17727 0.29417 -0.05200
C 	C 	0.85817 0.19563 0.28951 0.01000
H 	H 	0.85660 0.20760 0.29810 0.03700
C 	C 	0.87062 0.19617 0.27202 -0.10000
H 	H 	0.87670 0.20890 0.26760 0.06600
C 	C 	0.87422 0.17829 0.26099 0.05800
H 	H 	0.88370 0.17880 0.24960 0.00100
C 	C 	0.71900 0.09342 0.35151 0.09800
C 	C 	0.76673 0.10933 0.33516 0.06500
H 	H 	0.75640 0.09880 0.33600 -0.00300
C 	C 	0.77959 0.10923 0.31830 -0.10700
H 	H 	0.77870 0.09850 0.30820 0.06800
C 	C 	0.79389 0.12505 0.31624 0.01400
H 	H 	0.80310 0.12550 0.30470 0.03500
C 	C 	0.79454 0.14046 0.33154 -0.05500
C 	C 	0.78115 0.13885 0.34801 0.04300
H 	H 	0.78150 0.14950 0.35820 0.01300
C 	C 	0.80983 0.15793 0.33004 0.14200
C 	C 	0.82570 0.18522 0.34503 0.13600
C 	C 	0.83463 0.17526 0.31253 0.13900
C 	C 	0.84659 0.21236 0.36283 0.04800
H 	H 	0.85540 0.21260 0.35100 0.00900
C 	C 	0.82962 0.19823 0.36298 -0.05800
C 	C 	0.81788 0.19724 0.38086 0.01800
H 	H 	0.80670 0.18770 0.38190 0.03500
C 	C 	0.82249 0.21019 0.39724 -0.11000
H 	H 	0.81480 0.20960 0.40980 0.07100
C 	C 	0.83862 0.22413 0.39493 0.06900
H 	H 	0.84120 0.23360 0.40600 -0.00200
C 	C 	0.87190 0.25110 0.32552 0.10800
C 	C 	0.91748 0.26753 0.38780 0.05200
H 	H 	0.91650 0.25680 0.39790 0.00300
C 	C 	0.93479 0.27894 0.38726 -0.09600
H 	H 	0.94550 0.27670 0.39720 0.06600
C 	C 	0.93705 0.29439 0.37179 0.00500
H 	H 	0.94940 0.30240 0.37070 0.03900
C 	C 	0.92042 0.29744 0.35827 -0.05300
C 	C 	0.90304 0.28479 0.36005 0.04600
H 	H 	0.89210 0.28660 0.35030 0.01100
C 	C 	0.92139 0.31323 0.34207 0.13300
N 	N 	0.86490 0.15997 0.26561 -0.22400
N 	N 	0.72691 0.10465 0.36325 -0.26000
N 	N 	0.76757 0.12328 0.35068 -0.22900
N 	N 	0.82092 0.15943 0.31309 -0.15500
N 	N 	0.81142 0.17023 0.34658 -0.15300
N 	N 	0.83754 0.18849 0.32774 -0.15200
N 	N 	0.85074 0.22512 0.37827 -0.23400
N 	N 	0.90084 0.27033 0.37452 -0.22600
N 	N 	0.87293 0.24898 0.34297 -0.26700
N 	N 	0.90657 0.31313 0.32751 -0.15000
S 	S 	0.70983 0.07743 0.33435 -0.06300
S 	S 	0.87079 0.25359 0.29975 -0.06100
C 	C 	0.89834 0.08990 0.78178 0.03700
H 	H 	0.90570 0.10240 0.78490 0.01300
C 	C 	0.90189 0.07273 0.79417 -0.05200
C 	C 	0.89183 0.05437 0.78951 0.01000
H 	H 	0.89340 0.04240 0.79810 0.03700
C 	C 	0.87938 0.05383 0.77202 -0.10000
H 	H 	0.87330 0.04110 0.76760 0.06600
C 	C 	0.87578 0.07171 0.76099 0.05800
H 	H 	0.86630 0.07120 0.74960 0.00100
C 	C 	0.03100 0.15658 0.85151 0.09800
C 	C 	0.98327 0.14067 0.83516 0.06500
H 	H 	0.99360 0.15120 0.83600 -0.00300
C 	C 	0.97041 0.14077 0.81830 -0.10700
H 	H 	0.97130 0.15150 0.80820 0.06800
C 	C 	0.95611 0.12495 0.81624 0.01400
H 	H 	0.94690 0.12450 0.80470 0.03500
C 	C 	0.95546 0.10954 0.83154 -0.05500
C 	C 	0.96885 0.11115 0.84801 0.04300
H 	H 	0.96850 0.10050 0.85820 0.01300
C 	C 	0.94017 0.09207 0.83004 0.14200
C 	C 	0.92430 0.06478 0.84503 0.13600
C 	C 	0.91537 0.07474 0.81253 0.13900
C 	C 	0.90341 0.03764 0.86283 0.04800
H 	H 	0.89460 0.03740 0.85100 0.00900
C 	C 	0.92038 0.05177 0.86298 -0.05800
C 	C 	0.93212 0.05276 0.88086 0.01800
H 	H 	0.94330 0.06230 0.88190 0.03500
C 	C 	0.92751 0.03981 0.89724 -0.11000
H 	H 	0.93520 0.04040 0.90980 0.07100
C 	C 	0.91138 0.02587 0.89493 0.06900
H 	H 	0.90880 0.01640 0.90600 -0.00200
C 	C 	0.87810 0.99890 0.82552 0.10800
C 	C 	0.83252 0.98247 0.88780 0.05200
H 	H 	0.83350 0.99320 0.89790 0.00300
C 	C 	0.81521 0.97106 0.88726 -0.09600
H 	H 	0.80450 0.97330 0.89720 0.06600
C 	C 	0.81295 0.95561 0.87179 0.00500
H 	H 	0.80060 0.94760 0.87070 0.03900
C 	C 	0.82958 0.95256 0.85827 -0.05300
C 	C 	0.84696 0.96521 0.86005 0.04600
H 	H 	0.85790 0.96340 0.85030 0.01100
C 	C 	0.82861 0.93677 0.84207 0.13300
N 	N 	0.88510 0.09003 0.76561 -0.22400
N 	N 	0.02309 0.14535 0.86325 -0.26000
N 	N 	0.98243 0.12672 0.85068 -0.22900
N 	N 	0.92908 0.09057 0.81309 -0.15500
N 	N 	0.93858 0.07977 0.84658 -0.15300
N 	N 	0.91246 0.06151 0.82774 -0.15200
N 	N 	0.89926 0.02488 0.87827 -0.23400
N 	N 	0.84916 0.97967 0.87452 -0.22600
N 	N 	0.87707 0.00102 0.84297 -0.26700
N 	N 	0.84343 0.93687 0.82751 -0.15000
S 	S 	0.04017 0.17257 0.83435 -0.06300
S 	S 	0.87921 0.99641 0.79975 -0.06100
C 	C 	0.89834 0.58990 0.28178 0.03700
H 	H 	0.90570 0.60240 0.28490 0.01300
C 	C 	0.90189 0.57273 0.29417 -0.05200
C 	C 	0.89183 0.55437 0.28951 0.01000
H 	H 	0.89340 0.54240 0.29810 0.03700
C 	C 	0.87938 0.55383 0.27202 -0.10000
H 	H 	0.87330 0.54110 0.26760 0.06600
C 	C 	0.87578 0.57171 0.26099 0.05800
H 	H 	0.86630 0.57120 0.24960 0.00100
C 	C 	0.03100 0.65658 0.35151 0.09800
C 	C 	0.98327 0.64067 0.33516 0.06500
H 	H 	0.99360 0.65120 0.33600 -0.00300
C 	C 	0.97041 0.64077 0.31830 -0.10700
H 	H 	0.97130 0.65150 0.30820 0.06800
C 	C 	0.95611 0.62495 0.31624 0.01400
H 	H 	0.94690 0.62450 0.30470 0.03500
C 	C 	0.95546 0.60954 0.33154 -0.05500
C 	C 	0.96885 0.61115 0.34801 0.04300
H 	H 	0.96850 0.60050 0.35820 0.01300
C 	C 	0.94017 0.59207 0.33004 0.14200
C 	C 	0.92430 0.56478 0.34503 0.13600
C 	C 	0.91537 0.57474 0.31253 0.13900
C 	C 	0.90341 0.53764 0.36283 0.04800
H 	H 	0.89460 0.53740 0.35100 0.00900
C 	C 	0.92038 0.55177 0.36298 -0.05800
C 	C 	0.93212 0.55276 0.38086 0.01800
H 	H 	0.94330 0.56230 0.38190 0.03500
C 	C 	0.92751 0.53981 0.39724 -0.11000
H 	H 	0.93520 0.54040 0.40980 0.07100
C 	C 	0.91138 0.52587 0.39493 0.06900
H 	H 	0.90880 0.51640 0.40600 -0.00200
C 	C 	0.87810 0.49890 0.32552 0.10800
C 	C 	0.83252 0.48247 0.38780 0.05200
H 	H 	0.83350 0.49320 0.39790 0.00300
C 	C 	0.81521 0.47106 0.38726 -0.09600
H 	H 	0.80450 0.47330 0.39720 0.06600
C 	C 	0.81295 0.45561 0.37179 0.00500
H 	H 	0.80060 0.44760 0.37070 0.03900
C 	C 	0.82958 0.45256 0.35827 -0.05300
C 	C 	0.84696 0.46521 0.36005 0.04600
H 	H 	0.85790 0.46340 0.35030 0.01100
C 	C 	0.82861 0.43677 0.34207 0.13300
N 	N 	0.88510 0.59003 0.26561 -0.22400
N 	N 	0.02309 0.64535 0.36325 -0.26000
N 	N 	0.98243 0.62672 0.35068 -0.22900
N 	N 	0.92908 0.59057 0.31309 -0.15500
N 	N 	0.93858 0.57977 0.34658 -0.15300
N 	N 	0.91246 0.56151 0.32774 -0.15200
N 	N 	0.89926 0.52488 0.37827 -0.23400
N 	N 	0.84916 0.47967 0.37452 -0.22600
N 	N 	0.87707 0.50102 0.34297 -0.26700
N 	N 	0.84343 0.43687 0.32751 -0.15000
S 	S 	0.04017 0.67257 0.33435 -0.06300
S 	S 	0.87921 0.49641 0.29975 -0.06100
C 	C 	0.39834 0.08990 0.28178 0.03700
H 	H 	0.40570 0.10240 0.28490 0.01300
C 	C 	0.40189 0.07273 0.29417 -0.05200
C 	C 	0.39183 0.05437 0.28951 0.01000
H 	H 	0.39340 0.04240 0.29810 0.03700
C 	C 	0.37938 0.05383 0.27202 -0.10000
H 	H 	0.37330 0.04110 0.26760 0.06600
C 	C 	0.37578 0.07171 0.26099 0.05800
H 	H 	0.36630 0.07120 0.24960 0.00100
C 	C 	0.53100 0.15658 0.35151 0.09800
C 	C 	0.48327 0.14067 0.33516 0.06500
H 	H 	0.49360 0.15120 0.33600 -0.00300
C 	C 	0.47041 0.14077 0.31830 -0.10700
H 	H 	0.47130 0.15150 0.30820 0.06800
C 	C 	0.45611 0.12495 0.31624 0.01400
H 	H 	0.44690 0.12450 0.30470 0.03500
C 	C 	0.45546 0.10954 0.33154 -0.05500
C 	C 	0.46885 0.11115 0.34801 0.04300
H 	H 	0.46850 0.10050 0.35820 0.01300
C 	C 	0.44017 0.09207 0.33004 0.14200
C 	C 	0.42430 0.06478 0.34503 0.13600
C 	C 	0.41537 0.07474 0.31253 0.13900
C 	C 	0.40341 0.03764 0.36283 0.04800
H 	H 	0.39460 0.03740 0.35100 0.00900
C 	C 	0.42038 0.05177 0.36298 -0.05800
C 	C 	0.43212 0.05276 0.38086 0.01800
H 	H 	0.44330 0.06230 0.38190 0.03500
C 	C 	0.42751 0.03981 0.39724 -0.11000
H 	H 	0.43520 0.04040 0.40980 0.07100
C 	C 	0.41138 0.02587 0.39493 0.06900
H 	H 	0.40880 0.01640 0.40600 -0.00200
C 	C 	0.37810 0.99890 0.32552 0.10800
C 	C 	0.33252 0.98247 0.38780 0.05200
H 	H 	0.33350 0.99320 0.39790 0.00300
C 	C 	0.31521 0.97106 0.38726 -0.09600
H 	H 	0.30450 0.97330 0.39720 0.06600
C 	C 	0.31295 0.95561 0.37179 0.00500
H 	H 	0.30060 0.94760 0.37070 0.03900
C 	C 	0.32958 0.95256 0.35827 -0.05300
C 	C 	0.34696 0.96521 0.36005 0.04600
H 	H 	0.35790 0.96340 0.35030 0.01100
C 	C 	0.32861 0.93677 0.34207 0.13300
N 	N 	0.38510 0.09003 0.26561 -0.22400
N 	N 	0.52309 0.14535 0.36325 -0.26000
N 	N 	0.48243 0.12672 0.35068 -0.22900
N 	N 	0.42908 0.09057 0.31309 -0.15500
N 	N 	0.43858 0.07977 0.34658 -0.15300
N 	N 	0.41246 0.06151 0.32774 -0.15200
N 	N 	0.39926 0.02488 0.37827 -0.23400
N 	N 	0.34916 0.97967 0.37452 -0.22600
N 	N 	0.37707 0.00102 0.34297 -0.26700
N 	N 	0.34343 0.93687 0.32751 -0.15000
S 	S 	0.54017 0.17257 0.33435 -0.06300
S 	S 	0.37921 0.99641 0.29975 -0.06100
C 	C 	0.39834 0.58990 0.78178 0.03700
H 	H 	0.40570 0.60240 0.78490 0.01300
C 	C 	0.40189 0.57273 0.79417 -0.05200
C 	C 	0.39183 0.55437 0.78951 0.01000
H 	H 	0.39340 0.54240 0.79810 0.03700
C 	C 	0.37938 0.55383 0.77202 -0.10000
H 	H 	0.37330 0.54110 0.76760 0.06600
C 	C 	0.37578 0.57171 0.76099 0.05800
H 	H 	0.36630 0.57120 0.74960 0.00100
C 	C 	0.53100 0.65658 0.85151 0.09800
C 	C 	0.48327 0.64067 0.83516 0.06500
H 	H 	0.49360 0.65120 0.83600 -0.00300
C 	C 	0.47041 0.64077 0.81830 -0.10700
H 	H 	0.47130 0.65150 0.80820 0.06800
C 	C 	0.45611 0.62495 0.81624 0.01400
H 	H 	0.44690 0.62450 0.80470 0.03500
C 	C 	0.45546 0.60954 0.83154 -0.05500
C 	C 	0.46885 0.61115 0.84801 0.04300
H 	H 	0.46850 0.60050 0.85820 0.01300
C 	C 	0.44017 0.59207 0.83004 0.14200
C 	C 	0.42430 0.56478 0.84503 0.13600
C 	C 	0.41537 0.57474 0.81253 0.13900
C 	C 	0.40341 0.53764 0.86283 0.04800
H 	H 	0.39460 0.53740 0.85100 0.00900
C 	C 	0.42038 0.55177 0.86298 -0.05800
C 	C 	0.43212 0.55276 0.88086 0.01800
H 	H 	0.44330 0.56230 0.88190 0.03500
C 	C 	0.42751 0.53981 0.89724 -0.11000
H 	H 	0.43520 0.54040 0.90980 0.07100
C 	C 	0.41138 0.52587 0.89493 0.06900
H 	H 	0.40880 0.51640 0.90600 -0.00200
C 	C 	0.37810 0.49890 0.82552 0.10800
C 	C 	0.33252 0.48247 0.88780 0.05200
H 	H 	0.33350 0.49320 0.89790 0.00300
C 	C 	0.31521 0.47106 0.88726 -0.09600
H 	H 	0.30450 0.47330 0.89720 0.06600
C 	C 	0.31295 0.45561 0.87179 0.00500
H 	H 	0.30060 0.44760 0.87070 0.03900
C 	C 	0.32958 0.45256 0.85827 -0.05300
C 	C 	0.34696 0.46521 0.86005 0.04600
H 	H 	0.35790 0.46340 0.85030 0.01100
C 	C 	0.32861 0.43677 0.84207 0.13300
N 	N 	0.38510 0.59003 0.76561 -0.22400
N 	N 	0.52309 0.64535 0.86325 -0.26000
N 	N 	0.48243 0.62672 0.85068 -0.22900
N 	N 	0.42908 0.59057 0.81309 -0.15500
N 	N 	0.43858 0.57977 0.84658 -0.15300
N 	N 	0.41246 0.56151 0.82774 -0.15200
N 	N 	0.39926 0.52488 0.87827 -0.23400
N 	N 	0.34916 0.47967 0.87452 -0.22600
N 	N 	0.37707 0.50102 0.84297 -0.26700
N 	N 	0.34343 0.43687 0.82751 -0.15000
S 	S 	0.54017 0.67257 0.83435 -0.06300
S 	S 	0.37921 0.49641 0.79975 -0.06100
C 	C 	0.39834 0.16010 0.96822 0.03800
H 	H 	0.40570 0.14760 0.96510 0.01300
C 	C 	0.40189 0.17727 0.95583 -0.05200
C 	C 	0.39183 0.19563 0.96049 0.01000
H 	H 	0.39340 0.20760 0.95190 0.03700
C 	C 	0.37938 0.19617 0.97798 -0.10000
H 	H 	0.37330 0.20890 0.98240 0.06600
C 	C 	0.37578 0.17829 0.98901 0.05900
H 	H 	0.36630 0.17880 0.00040 0.00100
C 	C 	0.53100 0.09342 0.89849 0.09800
C 	C 	0.48327 0.10933 0.91484 0.06500
H 	H 	0.49360 0.09880 0.91400 -0.00300
C 	C 	0.47041 0.10923 0.93170 -0.10700
H 	H 	0.47130 0.09850 0.94180 0.06800
C 	C 	0.45611 0.12505 0.93376 0.01400
H 	H 	0.44690 0.12550 0.94530 0.03500
C 	C 	0.45546 0.14046 0.91846 -0.05500
C 	C 	0.46885 0.13885 0.90199 0.04300
H 	H 	0.46850 0.14950 0.89180 0.01300
C 	C 	0.44017 0.15793 0.91996 0.14200
C 	C 	0.42430 0.18522 0.90497 0.13600
C 	C 	0.41537 0.17526 0.93747 0.13900
C 	C 	0.40341 0.21236 0.88717 0.04800
H 	H 	0.39460 0.21260 0.89900 0.00900
C 	C 	0.42038 0.19823 0.88702 -0.05800
C 	C 	0.43212 0.19724 0.86914 0.01800
H 	H 	0.44330 0.18770 0.86810 0.03500
C 	C 	0.42751 0.21019 0.85276 -0.11000
H 	H 	0.43520 0.20960 0.84020 0.07100
C 	C 	0.41138 0.22413 0.85507 0.06900
H 	H 	0.40880 0.23360 0.84400 -0.00200
C 	C 	0.37810 0.25110 0.92448 0.10800
C 	C 	0.33252 0.26753 0.86220 0.05200
H 	H 	0.33350 0.25680 0.85210 0.00300
C 	C 	0.31521 0.27894 0.86274 -0.09600
H 	H 	0.30450 0.27670 0.85280 0.06600
C 	C 	0.31295 0.29439 0.87821 0.00500
H 	H 	0.30060 0.30240 0.87930 0.03900
C 	C 	0.32958 0.29744 0.89173 -0.05300
C 	C 	0.34696 0.28479 0.88995 0.04600
H 	H 	0.35790 0.28660 0.89970 0.01100
C 	C 	0.32861 0.31323 0.90793 0.13300
N 	N 	0.38510 0.15997 0.98439 -0.22400
N 	N 	0.52309 0.10465 0.88675 -0.26000
N 	N 	0.48243 0.12328 0.89932 -0.22900
N 	N 	0.42908 0.15943 0.93691 -0.15500
N 	N 	0.43858 0.17023 0.90342 -0.15300
N 	N 	0.41246 0.18849 0.92226 -0.15200
N 	N 	0.39926 0.22512 0.87173 -0.23400
N 	N 	0.34916 0.27033 0.87548 -0.22600
N 	N 	0.37707 0.24898 0.90703 -0.26700
N 	N 	0.34343 0.31313 0.92249 -0.15000
S 	S 	0.54017 0.07743 0.91565 -0.06300
S 	S 	0.37921 0.25359 0.95025 -0.06100
C 	C 	0.39834 0.66010 0.46822 0.03700
H 	H 	0.40570 0.64760 0.46510 0.01300
C 	C 	0.40189 0.67727 0.45583 -0.05200
C 	C 	0.39183 0.69563 0.46049 0.01000
H 	H 	0.39340 0.70760 0.45190 0.03700
C 	C 	0.37938 0.69617 0.47798 -0.10000
H 	H 	0.37330 0.70890 0.48240 0.06600
C 	C 	0.37578 0.67829 0.48901 0.05800
H 	H 	0.36630 0.67880 0.50040 0.00100
C 	C 	0.53100 0.59342 0.39849 0.09800
C 	C 	0.48327 0.60933 0.41484 0.06500
H 	H 	0.49360 0.59880 0.41400 -0.00300
C 	C 	0.47041 0.60923 0.43170 -0.10700
H 	H 	0.47130 0.59850 0.44180 0.06800
C 	C 	0.45611 0.62505 0.43376 0.01400
H 	H 	0.44690 0.62550 0.44530 0.03500
C 	C 	0.45546 0.64046 0.41846 -0.05500
C 	C 	0.46885 0.63885 0.40199 0.04300
H 	H 	0.46850 0.64950 0.39180 0.01300
C 	C 	0.44017 0.65793 0.41996 0.14200
C 	C 	0.42430 0.68522 0.40497 0.13600
C 	C 	0.41537 0.67526 0.43747 0.13900
C 	C 	0.40341 0.71236 0.38717 0.04800
H 	H 	0.39460 0.71260 0.39900 0.00900
C 	C 	0.42038 0.69823 0.38702 -0.05800
C 	C 	0.43212 0.69724 0.36914 0.01800
H 	H 	0.44330 0.68770 0.36810 0.03500
C 	C 	0.42751 0.71019 0.35276 -0.11000
H 	H 	0.43520 0.70960 0.34020 0.07100
C 	C 	0.41138 0.72413 0.35507 0.06900
H 	H 	0.40880 0.73360 0.34400 -0.00200
C 	C 	0.37810 0.75110 0.42448 0.10800
C 	C 	0.33252 0.76753 0.36220 0.05200
H 	H 	0.33350 0.75680 0.35210 0.00300
C 	C 	0.31521 0.77894 0.36274 -0.09600
H 	H 	0.30450 0.77670 0.35280 0.06600
C 	C 	0.31295 0.79439 0.37821 0.00500
H 	H 	0.30060 0.80240 0.37930 0.03900
C 	C 	0.32958 0.79744 0.39173 -0.05300
C 	C 	0.34696 0.78479 0.38995 0.04600
H 	H 	0.35790 0.78660 0.39970 0.01100
C 	C 	0.32861 0.81323 0.40793 0.13300
N 	N 	0.38510 0.65997 0.48439 -0.22400
N 	N 	0.52309 0.60465 0.38675 -0.26000
N 	N 	0.48243 0.62328 0.39932 -0.22900
N 	N 	0.42908 0.65943 0.43691 -0.15500
N 	N 	0.43858 0.67023 0.40342 -0.15300
N 	N 	0.41246 0.68849 0.42226 -0.15200
N 	N 	0.39926 0.72512 0.37173 -0.23400
N 	N 	0.34916 0.77033 0.37548 -0.22600
N 	N 	0.37707 0.74898 0.40703 -0.26700
N 	N 	0.34343 0.81313 0.42249 -0.15000
S 	S 	0.54017 0.57743 0.41565 -0.06300
S 	S 	0.37921 0.75359 0.45025 -0.06100
C 	C 	0.89834 0.16010 0.46822 0.03700
H 	H 	0.90570 0.14760 0.46510 0.01300
C 	C 	0.90189 0.17727 0.45583 -0.05200
C 	C 	0.89183 0.19563 0.46049 0.01000
H 	H 	0.89340 0.20760 0.45190 0.03700
C 	C 	0.87938 0.19617 0.47798 -0.10000
H 	H 	0.87330 0.20890 0.48240 0.06600
C 	C 	0.87578 0.17829 0.48901 0.05800
H 	H 	0.86630 0.17880 0.50040 0.00100
C 	C 	0.03100 0.09342 0.39849 0.09800
C 	C 	0.98327 0.10933 0.41484 0.06500
H 	H 	0.99360 0.09880 0.41400 -0.00300
C 	C 	0.97041 0.10923 0.43170 -0.10700
H 	H 	0.97130 0.09850 0.44180 0.06800
C 	C 	0.95611 0.12505 0.43376 0.01400
H 	H 	0.94690 0.12550 0.44530 0.03500
C 	C 	0.95546 0.14046 0.41846 -0.05500
C 	C 	0.96885 0.13885 0.40199 0.04300
H 	H 	0.96850 0.14950 0.39180 0.01300
C 	C 	0.94017 0.15793 0.41996 0.14200
C 	C 	0.92430 0.18522 0.40497 0.13600
C 	C 	0.91537 0.17526 0.43747 0.13900
C 	C 	0.90341 0.21236 0.38717 0.04800
H 	H 	0.89460 0.21260 0.39900 0.00900
C 	C 	0.92038 0.19823 0.38702 -0.05800
C 	C 	0.93212 0.19724 0.36914 0.01800
H 	H 	0.94330 0.18770 0.36810 0.03500
C 	C 	0.92751 0.21019 0.35276 -0.11000
H 	H 	0.93520 0.20960 0.34020 0.07100
C 	C 	0.91138 0.22413 0.35507 0.06900
H 	H 	0.90880 0.23360 0.34400 -0.00200
C 	C 	0.87810 0.25110 0.42448 0.10800
C 	C 	0.83252 0.26753 0.36220 0.05200
H 	H 	0.83350 0.25680 0.35210 0.00300
C 	C 	0.81521 0.27894 0.36274 -0.09600
H 	H 	0.80450 0.27670 0.35280 0.06600
C 	C 	0.81295 0.29439 0.37821 0.00500
H 	H 	0.80060 0.30240 0.37930 0.03900
C 	C 	0.82958 0.29744 0.39173 -0.05300
C 	C 	0.84696 0.28479 0.38995 0.04600
H 	H 	0.85790 0.28660 0.39970 0.01100
C 	C 	0.82861 0.31323 0.40793 0.13300
N 	N 	0.88510 0.15997 0.48439 -0.22400
N 	N 	0.02309 0.10465 0.38675 -0.26000
N 	N 	0.98243 0.12328 0.39932 -0.22900
N 	N 	0.92908 0.15943 0.43691 -0.15500
N 	N 	0.93858 0.17023 0.40342 -0.15300
N 	N 	0.91246 0.18849 0.42226 -0.15200
N 	N 	0.89926 0.22512 0.37173 -0.23400
N 	N 	0.84916 0.27033 0.37548 -0.22600
N 	N 	0.87707 0.24898 0.40703 -0.26700
N 	N 	0.84343 0.31313 0.42249 -0.15000
S 	S 	0.04017 0.07743 0.41565 -0.06300
S 	S 	0.87921 0.25359 0.45025 -0.06100
C 	C 	0.89834 0.66010 0.96822 0.03800
H 	H 	0.90570 0.64760 0.96510 0.01300
C 	C 	0.90189 0.67727 0.95583 -0.05200
C 	C 	0.89183 0.69563 0.96049 0.01000
H 	H 	0.89340 0.70760 0.95190 0.03700
C 	C 	0.87938 0.69617 0.97798 -0.10000
H 	H 	0.87330 0.70890 0.98240 0.06600
C 	C 	0.87578 0.67829 0.98901 0.05900
H 	H 	0.86630 0.67880 0.00040 0.00100
C 	C 	0.03100 0.59342 0.89849 0.09800
C 	C 	0.98327 0.60933 0.91484 0.06500
H 	H 	0.99360 0.59880 0.91400 -0.00300
C 	C 	0.97041 0.60923 0.93170 -0.10700
H 	H 	0.97130 0.59850 0.94180 0.06800
C 	C 	0.95611 0.62505 0.93376 0.01400
H 	H 	0.94690 0.62550 0.94530 0.03600
C 	C 	0.95546 0.64046 0.91846 -0.05500
C 	C 	0.96885 0.63885 0.90199 0.04300
H 	H 	0.96850 0.64950 0.89180 0.01300
C 	C 	0.94017 0.65793 0.91996 0.14200
C 	C 	0.92430 0.68522 0.90497 0.13600
C 	C 	0.91537 0.67526 0.93747 0.13900
C 	C 	0.90341 0.71236 0.88717 0.04800
H 	H 	0.89460 0.71260 0.89900 0.00900
C 	C 	0.92038 0.69823 0.88702 -0.05800
C 	C 	0.93212 0.69724 0.86914 0.01800
H 	H 	0.94330 0.68770 0.86810 0.03500
C 	C 	0.92751 0.71019 0.85276 -0.11000
H 	H 	0.93520 0.70960 0.84020 0.07100
C 	C 	0.91138 0.72413 0.85507 0.06900
H 	H 	0.90880 0.73360 0.84400 -0.00200
C 	C 	0.87810 0.75110 0.92448 0.10800
C 	C 	0.83252 0.76753 0.86220 0.05200
H 	H 	0.83350 0.75680 0.85210 0.00300
C 	C 	0.81521 0.77894 0.86274 -0.09600
H 	H 	0.80450 0.77670 0.85280 0.06600
C 	C 	0.81295 0.79439 0.87821 0.00500
H 	H 	0.80060 0.80240 0.87930 0.03900
C 	C 	0.82958 0.79744 0.89173 -0.05300
C 	C 	0.84696 0.78479 0.88995 0.04600
H 	H 	0.85790 0.78660 0.89970 0.01100
C 	C 	0.82861 0.81323 0.90793 0.13300
N 	N 	0.88510 0.65997 0.98439 -0.22400
N 	N 	0.02309 0.60465 0.88675 -0.26000
N 	N 	0.98243 0.62328 0.89932 -0.22900
N 	N 	0.92908 0.65943 0.93691 -0.15500
N 	N 	0.93858 0.67023 0.90342 -0.15300
N 	N 	0.91246 0.68849 0.92226 -0.15200
N 	N 	0.89926 0.72512 0.87173 -0.23400
N 	N 	0.84916 0.77033 0.87548 -0.22600
N 	N 	0.87707 0.74898 0.90703 -0.26700
N 	N 	0.84343 0.81313 0.92249 -0.15000
S 	S 	0.04017 0.57743 0.91565 -0.06300
S 	S 	0.87921 0.75359 0.95025 -0.06100
C 	C 	0.46822 0.66010 0.89834 0.03700
H 	H 	0.46510 0.64760 0.90570 0.01300
C 	C 	0.45583 0.67727 0.90189 -0.05200
C 	C 	0.46049 0.69563 0.89183 0.01000
H 	H 	0.45190 0.70760 0.89340 0.03700
C 	C 	0.47798 0.69617 0.87938 -0.10000
H 	H 	0.48240 0.70890 0.87330 0.06600
C 	C 	0.48901 0.67829 0.87578 0.05800
H 	H 	0.50040 0.67880 0.86630 0.00100
C 	C 	0.39849 0.59342 0.03100 0.09800
C 	C 	0.41484 0.60933 0.98327 0.06500
H 	H 	0.41400 0.59880 0.99360 -0.00300
C 	C 	0.43170 0.60923 0.97041 -0.10700
H 	H 	0.44180 0.59850 0.97130 0.06800
C 	C 	0.43376 0.62505 0.95611 0.01400
H 	H 	0.44530 0.62550 0.94690 0.03500
C 	C 	0.41846 0.64046 0.95546 -0.05500
C 	C 	0.40199 0.63885 0.96885 0.04300
H 	H 	0.39180 0.64950 0.96850 0.01300
C 	C 	0.41996 0.65793 0.94017 0.14200
C 	C 	0.40497 0.68522 0.92430 0.13600
C 	C 	0.43747 0.67526 0.91537 0.13900
C 	C 	0.38717 0.71236 0.90341 0.04800
H 	H 	0.39900 0.71260 0.89460 0.00900
C 	C 	0.38702 0.69823 0.92038 -0.05800
C 	C 	0.36914 0.69724 0.93212 0.01800
H 	H 	0.36810 0.68770 0.94330 0.03500
C 	C 	0.35276 0.71019 0.92751 -0.11000
H 	H 	0.34020 0.70960 0.93520 0.07100
C 	C 	0.35507 0.72413 0.91138 0.06900
H 	H 	0.34400 0.73360 0.90880 -0.00200
C 	C 	0.42448 0.75110 0.87810 0.10800
C 	C 	0.36220 0.76753 0.83252 0.05200
H 	H 	0.35210 0.75680 0.83350 0.00300
C 	C 	0.36274 0.77894 0.81521 -0.09600
H 	H 	0.35280 0.77670 0.80450 0.06600
C 	C 	0.37821 0.79439 0.81295 0.00500
H 	H 	0.37930 0.80240 0.80060 0.03900
C 	C 	0.39173 0.79744 0.82958 -0.05300
C 	C 	0.38995 0.78479 0.84696 0.04600
H 	H 	0.39970 0.78660 0.85790 0.01100
C 	C 	0.40793 0.81323 0.82861 0.13300
N 	N 	0.48439 0.65997 0.88510 -0.22400
N 	N 	0.38675 0.60465 0.02309 -0.26000
N 	N 	0.39932 0.62328 0.98243 -0.22900
N 	N 	0.43691 0.65943 0.92908 -0.15500
N 	N 	0.40342 0.67023 0.93858 -0.15300
N 	N 	0.42226 0.68849 0.91246 -0.15200
N 	N 	0.37173 0.72512 0.89926 -0.23400
N 	N 	0.37548 0.77033 0.84916 -0.22600
N 	N 	0.40703 0.74898 0.87707 -0.26700
N 	N 	0.42249 0.81313 0.84343 -0.15000
S 	S 	0.41565 0.57743 0.04017 -0.06300
S 	S 	0.45025 0.75359 0.87921 -0.06100
C 	C 	0.46822 0.16010 0.39834 0.03700
H 	H 	0.46510 0.14760 0.40570 0.01300
C 	C 	0.45583 0.17727 0.40189 -0.05200
C 	C 	0.46049 0.19563 0.39183 0.01000
H 	H 	0.45190 0.20760 0.39340 0.03700
C 	C 	0.47798 0.19617 0.37938 -0.10000
H 	H 	0.48240 0.20890 0.37330 0.06600
C 	C 	0.48901 0.17829 0.37578 0.05800
H 	H 	0.50040 0.17880 0.36630 0.00100
C 	C 	0.39849 0.09342 0.53100 0.09800
C 	C 	0.41484 0.10933 0.48327 0.06500
H 	H 	0.41400 0.09880 0.49360 -0.00300
C 	C 	0.43170 0.10923 0.47041 -0.10700
H 	H 	0.44180 0.09850 0.47130 0.06800
C 	C 	0.43376 0.12505 0.45611 0.01400
H 	H 	0.44530 0.12550 0.44690 0.03500
C 	C 	0.41846 0.14046 0.45546 -0.05500
C 	C 	0.40199 0.13885 0.46885 0.04300
H 	H 	0.39180 0.14950 0.46850 0.01300
C 	C 	0.41996 0.15793 0.44017 0.14200
C 	C 	0.40497 0.18522 0.42430 0.13600
C 	C 	0.43747 0.17526 0.41537 0.13900
C 	C 	0.38717 0.21236 0.40341 0.04800
H 	H 	0.39900 0.21260 0.39460 0.00900
C 	C 	0.38702 0.19823 0.42038 -0.05800
C 	C 	0.36914 0.19724 0.43212 0.01800
H 	H 	0.36810 0.18770 0.44330 0.03500
C 	C 	0.35276 0.21019 0.42751 -0.11000
H 	H 	0.34020 0.20960 0.43520 0.07100
C 	C 	0.35507 0.22413 0.41138 0.06900
H 	H 	0.34400 0.23360 0.40880 -0.00200
C 	C 	0.42448 0.25110 0.37810 0.10800
C 	C 	0.36220 0.26753 0.33252 0.05200
H 	H 	0.35210 0.25680 0.33350 0.00300
C 	C 	0.36274 0.27894 0.31521 -0.09600
H 	H 	0.35280 0.27670 0.30450 0.06600
C 	C 	0.37821 0.29439 0.31295 0.00500
H 	H 	0.37930 0.30240 0.30060 0.03900
C 	C 	0.39173 0.29744 0.32958 -0.05300
C 	C 	0.38995 0.28479 0.34696 0.04600
H 	H 	0.39970 0.28660 0.35790 0.01100
C 	C 	0.40793 0.31323 0.32861 0.13300
N 	N 	0.48439 0.15997 0.38510 -0.22400
N 	N 	0.38675 0.10465 0.52309 -0.26000
N 	N 	0.39932 0.12328 0.48243 -0.22900
N 	N 	0.43691 0.15943 0.42908 -0.15500
N 	N 	0.40342 0.17023 0.43858 -0.15300
N 	N 	0.42226 0.18849 0.41246 -0.15200
N 	N 	0.37173 0.22512 0.39926 -0.23400
N 	N 	0.37548 0.27033 0.34916 -0.22600
N 	N 	0.40703 0.24898 0.37707 -0.26700
N 	N 	0.42249 0.31313 0.34343 -0.15000
S 	S 	0.41565 0.07743 0.54017 -0.06300
S 	S 	0.45025 0.25359 0.37921 -0.06100
C 	C 	0.96822 0.66010 0.39834 0.03800
H 	H 	0.96510 0.64760 0.40570 0.01300
C 	C 	0.95583 0.67727 0.40189 -0.05200
C 	C 	0.96049 0.69563 0.39183 0.01000
H 	H 	0.95190 0.70760 0.39340 0.03700
C 	C 	0.97798 0.69617 0.37938 -0.10000
H 	H 	0.98240 0.70890 0.37330 0.06600
C 	C 	0.98901 0.67829 0.37578 0.05900
H 	H 	0.00040 0.67880 0.36630 0.00100
C 	C 	0.89849 0.59342 0.53100 0.09800
C 	C 	0.91484 0.60933 0.48327 0.06500
H 	H 	0.91400 0.59880 0.49360 -0.00300
C 	C 	0.93170 0.60923 0.47041 -0.10700
H 	H 	0.94180 0.59850 0.47130 0.06800
C 	C 	0.93376 0.62505 0.45611 0.01400
H 	H 	0.94530 0.62550 0.44690 0.03500
C 	C 	0.91846 0.64046 0.45546 -0.05500
C 	C 	0.90199 0.63885 0.46885 0.04300
H 	H 	0.89180 0.64950 0.46850 0.01300
C 	C 	0.91996 0.65793 0.44017 0.14200
C 	C 	0.90497 0.68522 0.42430 0.13600
C 	C 	0.93747 0.67526 0.41537 0.13900
C 	C 	0.88717 0.71236 0.40341 0.04800
H 	H 	0.89900 0.71260 0.39460 0.00900
C 	C 	0.88702 0.69823 0.42038 -0.05800
C 	C 	0.86914 0.69724 0.43212 0.01800
H 	H 	0.86810 0.68770 0.44330 0.03500
C 	C 	0.85276 0.71019 0.42751 -0.11000
H 	H 	0.84020 0.70960 0.43520 0.07100
C 	C 	0.85507 0.72413 0.41138 0.06900
H 	H 	0.84400 0.73360 0.40880 -0.00200
C 	C 	0.92448 0.75110 0.37810 0.10800
C 	C 	0.86220 0.76753 0.33252 0.05200
H 	H 	0.85210 0.75680 0.33350 0.00300
C 	C 	0.86274 0.77894 0.31521 -0.09600
H 	H 	0.85280 0.77670 0.30450 0.06600
C 	C 	0.87821 0.79439 0.31295 0.00500
H 	H 	0.87930 0.80240 0.30060 0.03900
C 	C 	0.89173 0.79744 0.32958 -0.05300
C 	C 	0.88995 0.78479 0.34696 0.04600
H 	H 	0.89970 0.78660 0.35790 0.01100
C 	C 	0.90793 0.81323 0.32861 0.13300
N 	N 	0.98439 0.65997 0.38510 -0.22400
N 	N 	0.88675 0.60465 0.52309 -0.26000
N 	N 	0.89932 0.62328 0.48243 -0.22900
N 	N 	0.93691 0.65943 0.42908 -0.15500
N 	N 	0.90342 0.67023 0.43858 -0.15300
N 	N 	0.92226 0.68849 0.41246 -0.15200
N 	N 	0.87173 0.72512 0.39926 -0.23400
N 	N 	0.87548 0.77033 0.34916 -0.22600
N 	N 	0.90703 0.74898 0.37707 -0.26700
N 	N 	0.92249 0.81313 0.34343 -0.15000
S 	S 	0.91565 0.57743 0.54017 -0.06300
S 	S 	0.95025 0.75359 0.37921 -0.06100
C 	C 	0.96822 0.16010 0.89834 0.03800
H 	H 	0.96510 0.14760 0.90570 0.01300
C 	C 	0.95583 0.17727 0.90189 -0.05200
C 	C 	0.96049 0.19563 0.89183 0.01000
H 	H 	0.95190 0.20760 0.89340 0.03700
C 	C 	0.97798 0.19617 0.87938 -0.10000
H 	H 	0.98240 0.20890 0.87330 0.06600
C 	C 	0.98901 0.17829 0.87578 0.05900
H 	H 	0.00040 0.17880 0.86630 0.00100
C 	C 	0.89849 0.09342 0.03100 0.09800
C 	C 	0.91484 0.10933 0.98327 0.06500
H 	H 	0.91400 0.09880 0.99360 -0.00300
C 	C 	0.93170 0.10923 0.97041 -0.10700
H 	H 	0.94180 0.09850 0.97130 0.06800
C 	C 	0.93376 0.12505 0.95611 0.01400
H 	H 	0.94530 0.12550 0.94690 0.03600
C 	C 	0.91846 0.14046 0.95546 -0.05500
C 	C 	0.90199 0.13885 0.96885 0.04300
H 	H 	0.89180 0.14950 0.96850 0.01300
C 	C 	0.91996 0.15793 0.94017 0.14200
C 	C 	0.90497 0.18522 0.92430 0.13600
C 	C 	0.93747 0.17526 0.91537 0.13900
C 	C 	0.88717 0.21236 0.90341 0.04800
H 	H 	0.89900 0.21260 0.89460 0.00900
C 	C 	0.88702 0.19823 0.92038 -0.05800
C 	C 	0.86914 0.19724 0.93212 0.01800
H 	H 	0.86810 0.18770 0.94330 0.03500
C 	C 	0.85276 0.21019 0.92751 -0.11000
H 	H 	0.84020 0.20960 0.93520 0.07100
C 	C 	0.85507 0.22413 0.91138 0.06900
H 	H 	0.84400 0.23360 0.90880 -0.00200
C 	C 	0.92448 0.25110 0.87810 0.10800
C 	C 	0.86220 0.26753 0.83252 0.05200
H 	H 	0.85210 0.25680 0.83350 0.00300
C 	C 	0.86274 0.27894 0.81521 -0.09600
H 	H 	0.85280 0.27670 0.80450 0.06600
C 	C 	0.87821 0.29439 0.81295 0.00500
H 	H 	0.87930 0.30240 0.80060 0.03900
C 	C 	0.89173 0.29744 0.82958 -0.05300
C 	C 	0.88995 0.28479 0.84696 0.04600
H 	H 	0.89970 0.28660 0.85790 0.01100
C 	C 	0.90793 0.31323 0.82861 0.13300
N 	N 	0.98439 0.15997 0.88510 -0.22400
N 	N 	0.88675 0.10465 0.02309 -0.26000
N 	N 	0.89932 0.12328 0.98243 -0.22900
N 	N 	0.93691 0.15943 0.92908 -0.15500
N 	N 	0.90342 0.17023 0.93858 -0.15300
N 	N 	0.92226 0.18849 0.91246 -0.15200
N 	N 	0.87173 0.22512 0.89926 -0.23400
N 	N 	0.87548 0.27033 0.84916 -0.22600
N 	N 	0.90703 0.24898 0.87707 -0.26700
N 	N 	0.92249 0.31313 0.84343 -0.15000
S 	S 	0.91565 0.07743 0.04017 -0.06300
S 	S 	0.95025 0.25359 0.87921 -0.06100
C 	C 	0.28178 0.58990 0.39834 0.03700
H 	H 	0.28490 0.60240 0.40570 0.01300
C 	C 	0.29417 0.57273 0.40189 -0.05200
C 	C 	0.28951 0.55437 0.39183 0.01000
H 	H 	0.29810 0.54240 0.39340 0.03700
C 	C 	0.27202 0.55383 0.37938 -0.10000
H 	H 	0.26760 0.54110 0.37330 0.06600
C 	C 	0.26099 0.57171 0.37578 0.05800
H 	H 	0.24960 0.57120 0.36630 0.00100
C 	C 	0.35151 0.65658 0.53100 0.09800
C 	C 	0.33516 0.64067 0.48327 0.06500
H 	H 	0.33600 0.65120 0.49360 -0.00300
C 	C 	0.31830 0.64077 0.47041 -0.10700
H 	H 	0.30820 0.65150 0.47130 0.06800
C 	C 	0.31624 0.62495 0.45611 0.01400
H 	H 	0.30470 0.62450 0.44690 0.03500
C 	C 	0.33154 0.60954 0.45546 -0.05500
C 	C 	0.34801 0.61115 0.46885 0.04300
H 	H 	0.35820 0.60050 0.46850 0.01300
C 	C 	0.33004 0.59207 0.44017 0.14200
C 	C 	0.34503 0.56478 0.42430 0.13600
C 	C 	0.31253 0.57474 0.41537 0.13900
C 	C 	0.36283 0.53764 0.40341 0.04800
H 	H 	0.35100 0.53740 0.39460 0.00900
C 	C 	0.36298 0.55177 0.42038 -0.05800
C 	C 	0.38086 0.55276 0.43212 0.01800
H 	H 	0.38190 0.56230 0.44330 0.03500
C 	C 	0.39724 0.53981 0.42751 -0.11000
H 	H 	0.40980 0.54040 0.43520 0.07100
C 	C 	0.39493 0.52587 0.41138 0.06900
H 	H 	0.40600 0.51640 0.40880 -0.00200
C 	C 	0.32552 0.49890 0.37810 0.10800
C 	C 	0.38780 0.48247 0.33252 0.05200
H 	H 	0.39790 0.49320 0.33350 0.00300
C 	C 	0.38726 0.47106 0.31521 -0.09600
H 	H 	0.39720 0.47330 0.30450 0.06600
C 	C 	0.37179 0.45561 0.31295 0.00500
H 	H 	0.37070 0.44760 0.30060 0.03900
C 	C 	0.35827 0.45256 0.32958 -0.05300
C 	C 	0.36005 0.46521 0.34696 0.04600
H 	H 	0.35030 0.46340 0.35790 0.01100
C 	C 	0.34207 0.43677 0.32861 0.13300
N 	N 	0.26561 0.59003 0.38510 -0.22400
N 	N 	0.36325 0.64535 0.52309 -0.26000
N 	N 	0.35068 0.62672 0.48243 -0.22900
N 	N 	0.31309 0.59057 0.42908 -0.15500
N 	N 	0.34658 0.57977 0.43858 -0.15300
N 	N 	0.32774 0.56151 0.41246 -0.15200
N 	N 	0.37827 0.52488 0.39926 -0.23400
N 	N 	0.37452 0.47967 0.34916 -0.22600
N 	N 	0.34297 0.50102 0.37707 -0.26700
N 	N 	0.32751 0.43687 0.34343 -0.15000
S 	S 	0.33435 0.67257 0.54017 -0.06300
S 	S 	0.29975 0.49641 0.37921 -0.06100
C 	C 	0.28178 0.08990 0.89834 0.03700
H 	H 	0.28490 0.10240 0.90570 0.01300
C 	C 	0.29417 0.07273 0.90189 -0.05200
C 	C 	0.28951 0.05437 0.89183 0.01000
H 	H 	0.29810 0.04240 0.89340 0.03700
C 	C 	0.27202 0.05383 0.87938 -0.10000
H 	H 	0.26760 0.04110 0.87330 0.06600
C 	C 	0.26099 0.07171 0.87578 0.05800
H 	H 	0.24960 0.07120 0.86630 0.00100
C 	C 	0.35151 0.15658 0.03100 0.09800
C 	C 	0.33516 0.14067 0.98327 0.06500
H 	H 	0.33600 0.15120 0.99360 -0.00300
C 	C 	0.31830 0.14077 0.97041 -0.10700
H 	H 	0.30820 0.15150 0.97130 0.06800
C 	C 	0.31624 0.12495 0.95611 0.01400
H 	H 	0.30470 0.12450 0.94690 0.03500
C 	C 	0.33154 0.10954 0.95546 -0.05500
C 	C 	0.34801 0.11115 0.96885 0.04300
H 	H 	0.35820 0.10050 0.96850 0.01300
C 	C 	0.33004 0.09207 0.94017 0.14200
C 	C 	0.34503 0.06478 0.92430 0.13600
C 	C 	0.31253 0.07474 0.91537 0.13900
C 	C 	0.36283 0.03764 0.90341 0.04800
H 	H 	0.35100 0.03740 0.89460 0.00900
C 	C 	0.36298 0.05177 0.92038 -0.05800
C 	C 	0.38086 0.05276 0.93212 0.01800
H 	H 	0.38190 0.06230 0.94330 0.03500
C 	C 	0.39724 0.03981 0.92751 -0.11000
H 	H 	0.40980 0.04040 0.93520 0.07100
C 	C 	0.39493 0.02587 0.91138 0.06900
H 	H 	0.40600 0.01640 0.90880 -0.00200
C 	C 	0.32552 0.99890 0.87810 0.10800
C 	C 	0.38780 0.98247 0.83252 0.05200
H 	H 	0.39790 0.99320 0.83350 0.00300
C 	C 	0.38726 0.97106 0.81521 -0.09600
H 	H 	0.39720 0.97330 0.80450 0.06600
C 	C 	0.37179 0.95561 0.81295 0.00500
H 	H 	0.37070 0.94760 0.80060 0.03900
C 	C 	0.35827 0.95256 0.82958 -0.05300
C 	C 	0.36005 0.96521 0.84696 0.04600
H 	H 	0.35030 0.96340 0.85790 0.01100
C 	C 	0.34207 0.93677 0.82861 0.13300
N 	N 	0.26561 0.09003 0.88510 -0.22400
N 	N 	0.36325 0.14535 0.02309 -0.26000
N 	N 	0.35068 0.12672 0.98243 -0.22900
N 	N 	0.31309 0.09057 0.92908 -0.15500
N 	N 	0.34658 0.07977 0.93858 -0.15300
N 	N 	0.32774 0.06151 0.91246 -0.15200
N 	N 	0.37827 0.02488 0.89926 -0.23400
N 	N 	0.37452 0.97967 0.84916 -0.22600
N 	N 	0.34297 0.00102 0.87707 -0.26700
N 	N 	0.32751 0.93687 0.84343 -0.15000
S 	S 	0.33435 0.17257 0.04017 -0.06300
S 	S 	0.29975 0.99641 0.87921 -0.06100
C 	C 	0.78178 0.58990 0.89834 0.03700
H 	H 	0.78490 0.60240 0.90570 0.01300
C 	C 	0.79417 0.57273 0.90189 -0.05200
C 	C 	0.78951 0.55437 0.89183 0.01000
H 	H 	0.79810 0.54240 0.89340 0.03700
C 	C 	0.77202 0.55383 0.87938 -0.10000
H 	H 	0.76760 0.54110 0.87330 0.06600
C 	C 	0.76099 0.57171 0.87578 0.05800
H 	H 	0.74960 0.57120 0.86630 0.00100
C 	C 	0.85151 0.65658 0.03100 0.09800
C 	C 	0.83516 0.64067 0.98327 0.06500
H 	H 	0.83600 0.65120 0.99360 -0.00300
C 	C 	0.81830 0.64077 0.97041 -0.10700
H 	H 	0.80820 0.65150 0.97130 0.06800
C 	C 	0.81624 0.62495 0.95611 0.01400
H 	H 	0.80470 0.62450 0.94690 0.03500
C 	C 	0.83154 0.60954 0.95546 -0.05500
C 	C 	0.84801 0.61115 0.96885 0.04300
H 	H 	0.85820 0.60050 0.96850 0.01300
C 	C 	0.83004 0.59207 0.94017 0.14200
C 	C 	0.84503 0.56478 0.92430 0.13600
C 	C 	0.81253 0.57474 0.91537 0.13900
C 	C 	0.86283 0.53764 0.90341 0.04800
H 	H 	0.85100 0.53740 0.89460 0.00900
C 	C 	0.86298 0.55177 0.92038 -0.05800
C 	C 	0.88086 0.55276 0.93212 0.01800
H 	H 	0.88190 0.56230 0.94330 0.03500
C 	C 	0.89724 0.53981 0.92751 -0.11000
H 	H 	0.90980 0.54040 0.93520 0.07100
C 	C 	0.89493 0.52587 0.91138 0.06900
H 	H 	0.90600 0.51640 0.90880 -0.00200
C 	C 	0.82552 0.49890 0.87810 0.10800
C 	C 	0.88780 0.48247 0.83252 0.05200
H 	H 	0.89790 0.49320 0.83350 0.00300
C 	C 	0.88726 0.47106 0.81521 -0.09600
H 	H 	0.89720 0.47330 0.80450 0.06600
C 	C 	0.87179 0.45561 0.81295 0.00500
H 	H 	0.87070 0.44760 0.80060 0.03900
C 	C 	0.85827 0.45256 0.82958 -0.05300
C 	C 	0.86005 0.46521 0.84696 0.04600
H 	H 	0.85030 0.46340 0.85790 0.01100
C 	C 	0.84207 0.43677 0.82861 0.13300
N 	N 	0.76561 0.59003 0.88510 -0.22400
N 	N 	0.86325 0.64535 0.02309 -0.26000
N 	N 	0.85068 0.62672 0.98243 -0.22900
N 	N 	0.81309 0.59057 0.92908 -0.15500
N 	N 	0.84658 0.57977 0.93858 -0.15300
N 	N 	0.82774 0.56151 0.91246 -0.15200
N 	N 	0.87827 0.52488 0.89926 -0.23400
N 	N 	0.87452 0.47967 0.84916 -0.22600
N 	N 	0.84297 0.50102 0.87707 -0.26700
N 	N 	0.82751 0.43687 0.84343 -0.15000
S 	S 	0.83435 0.67257 0.04017 -0.06300
S 	S 	0.79975 0.49641 0.87921 -0.06100
C 	C 	0.78178 0.08990 0.39834 0.03700
H 	H 	0.78490 0.10240 0.40570 0.01300
C 	C 	0.79417 0.07273 0.40189 -0.05200
C 	C 	0.78951 0.05437 0.39183 0.01000
H 	H 	0.79810 0.04240 0.39340 0.03700
C 	C 	0.77202 0.05383 0.37938 -0.10000
H 	H 	0.76760 0.04110 0.37330 0.06600
C 	C 	0.76099 0.07171 0.37578 0.05800
H 	H 	0.74960 0.07120 0.36630 0.00100
C 	C 	0.85151 0.15658 0.53100 0.09800
C 	C 	0.83516 0.14067 0.48327 0.06500
H 	H 	0.83600 0.15120 0.49360 -0.00300
C 	C 	0.81830 0.14077 0.47041 -0.10700
H 	H 	0.80820 0.15150 0.47130 0.06800
C 	C 	0.81624 0.12495 0.45611 0.01400
H 	H 	0.80470 0.12450 0.44690 0.03500
C 	C 	0.83154 0.10954 0.45546 -0.05500
C 	C 	0.84801 0.11115 0.46885 0.04300
H 	H 	0.85820 0.10050 0.46850 0.01300
C 	C 	0.83004 0.09207 0.44017 0.14200
C 	C 	0.84503 0.06478 0.42430 0.13600
C 	C 	0.81253 0.07474 0.41537 0.13900
C 	C 	0.86283 0.03764 0.40341 0.04800
H 	H 	0.85100 0.03740 0.39460 0.00900
C 	C 	0.86298 0.05177 0.42038 -0.05800
C 	C 	0.88086 0.05276 0.43212 0.01800
H 	H 	0.88190 0.06230 0.44330 0.03500
C 	C 	0.89724 0.03981 0.42751 -0.11000
H 	H 	0.90980 0.04040 0.43520 0.07100
C 	C 	0.89493 0.02587 0.41138 0.06900
H 	H 	0.90600 0.01640 0.40880 -0.00200
C 	C 	0.82552 0.99890 0.37810 0.10800
C 	C 	0.88780 0.98247 0.33252 0.05200
H 	H 	0.89790 0.99320 0.33350 0.00300
C 	C 	0.88726 0.97106 0.31521 -0.09600
H 	H 	0.89720 0.97330 0.30450 0.06600
C 	C 	0.87179 0.95561 0.31295 0.00500
H 	H 	0.87070 0.94760 0.30060 0.03900
C 	C 	0.85827 0.95256 0.32958 -0.05300
C 	C 	0.86005 0.96521 0.34696 0.04600
H 	H 	0.85030 0.96340 0.35790 0.01100
C 	C 	0.84207 0.93677 0.32861 0.13300
N 	N 	0.76561 0.09003 0.38510 -0.22400
N 	N 	0.86325 0.14535 0.52309 -0.26000
N 	N 	0.85068 0.12672 0.48243 -0.22900
N 	N 	0.81309 0.09057 0.42908 -0.15500
N 	N 	0.84658 0.07977 0.43858 -0.15300
N 	N 	0.82774 0.06151 0.41246 -0.15200
N 	N 	0.87827 0.02488 0.39926 -0.23400
N 	N 	0.87452 0.97967 0.34916 -0.22600
N 	N 	0.84297 0.00102 0.37707 -0.26700
N 	N 	0.82751 0.93687 0.34343 -0.15000
S 	S 	0.83435 0.17257 0.54017 -0.06300
S 	S 	0.79975 0.99641 0.37921 -0.06100
C 	C 	0.78178 0.16010 0.85166 0.03700
H 	H 	0.78490 0.14760 0.84430 0.01300
C 	C 	0.79417 0.17727 0.84811 -0.05200
C 	C 	0.78951 0.19563 0.85817 0.01000
H 	H 	0.79810 0.20760 0.85660 0.03700
C 	C 	0.77202 0.19617 0.87062 -0.10000
H 	H 	0.76760 0.20890 0.87670 0.06600
C 	C 	0.76099 0.17829 0.87422 0.05800
H 	H 	0.74960 0.17880 0.88370 0.00100
C 	C 	0.85151 0.09342 0.71900 0.09800
C 	C 	0.83516 0.10933 0.76673 0.06500
H 	H 	0.83600 0.09880 0.75640 -0.00300
C 	C 	0.81830 0.10923 0.77959 -0.10700
H 	H 	0.80820 0.09850 0.77870 0.06800
C 	C 	0.81624 0.12505 0.79389 0.01400
H 	H 	0.80470 0.12550 0.80310 0.03500
C 	C 	0.83154 0.14046 0.79454 -0.05500
C 	C 	0.84801 0.13885 0.78115 0.04300
H 	H 	0.85820 0.14950 0.78150 0.01300
C 	C 	0.83004 0.15793 0.80983 0.14200
C 	C 	0.84503 0.18522 0.82570 0.13600
C 	C 	0.81253 0.17526 0.83463 0.13900
C 	C 	0.86283 0.21236 0.84659 0.04800
H 	H 	0.85100 0.21260 0.85540 0.00900
C 	C 	0.86298 0.19823 0.82962 -0.05800
C 	C 	0.88086 0.19724 0.81788 0.01800
H 	H 	0.88190 0.18770 0.80670 0.03500
C 	C 	0.89724 0.21019 0.82249 -0.11000
H 	H 	0.90980 0.20960 0.81480 0.07100
C 	C 	0.89493 0.22413 0.83862 0.06900
H 	H 	0.90600 0.23360 0.84120 -0.00200
C 	C 	0.82552 0.25110 0.87190 0.10800
C 	C 	0.88780 0.26753 0.91748 0.05200
H 	H 	0.89790 0.25680 0.91650 0.00300
C 	C 	0.88726 0.27894 0.93479 -0.09600
H 	H 	0.89720 0.27670 0.94550 0.06600
C 	C 	0.87179 0.29439 0.93705 0.00500
H 	H 	0.87070 0.30240 0.94940 0.03900
C 	C 	0.85827 0.29744 0.92042 -0.05300
C 	C 	0.86005 0.28479 0.90304 0.04600
H 	H 	0.85030 0.28660 0.89210 0.01100
C 	C 	0.84207 0.31323 0.92139 0.13300
N 	N 	0.76561 0.15997 0.86490 -0.22400
N 	N 	0.86325 0.10465 0.72691 -0.26000
N 	N 	0.85068 0.12328 0.76757 -0.22900
N 	N 	0.81309 0.15943 0.82092 -0.15500
N 	N 	0.84658 0.17023 0.81142 -0.15300
N 	N 	0.82774 0.18849 0.83754 -0.15200
N 	N 	0.87827 0.22512 0.85074 -0.23400
N 	N 	0.87452 0.27033 0.90084 -0.22600
N 	N 	0.84297 0.24898 0.87293 -0.26700
N 	N 	0.82751 0.31313 0.90657 -0.15000
S 	S 	0.83435 0.07743 0.70983 -0.06300
S 	S 	0.79975 0.25359 0.87079 -0.06100
C 	C 	0.78178 0.66010 0.35166 0.03700
H 	H 	0.78490 0.64760 0.34430 0.01300
C 	C 	0.79417 0.67727 0.34811 -0.05200
C 	C 	0.78951 0.69563 0.35817 0.01000
H 	H 	0.79810 0.70760 0.35660 0.03700
C 	C 	0.77202 0.69617 0.37062 -0.10000
H 	H 	0.76760 0.70890 0.37670 0.06600
C 	C 	0.76099 0.67829 0.37422 0.05800
H 	H 	0.74960 0.67880 0.38370 0.00100
C 	C 	0.85151 0.59342 0.21900 0.09800
C 	C 	0.83516 0.60933 0.26673 0.06500
H 	H 	0.83600 0.59880 0.25640 -0.00300
C 	C 	0.81830 0.60923 0.27959 -0.10700
H 	H 	0.80820 0.59850 0.27870 0.06800
C 	C 	0.81624 0.62505 0.29389 0.01400
H 	H 	0.80470 0.62550 0.30310 0.03500
C 	C 	0.83154 0.64046 0.29454 -0.05500
C 	C 	0.84801 0.63885 0.28115 0.04300
H 	H 	0.85820 0.64950 0.28150 0.01300
C 	C 	0.83004 0.65793 0.30983 0.14200
C 	C 	0.84503 0.68522 0.32570 0.13600
C 	C 	0.81253 0.67526 0.33463 0.13900
C 	C 	0.86283 0.71236 0.34659 0.04800
H 	H 	0.85100 0.71260 0.35540 0.00900
C 	C 	0.86298 0.69823 0.32962 -0.05800
C 	C 	0.88086 0.69724 0.31788 0.01800
H 	H 	0.88190 0.68770 0.30670 0.03500
C 	C 	0.89724 0.71019 0.32249 -0.11000
H 	H 	0.90980 0.70960 0.31480 0.07100
C 	C 	0.89493 0.72413 0.33862 0.06900
H 	H 	0.90600 0.73360 0.34120 -0.00200
C 	C 	0.82552 0.75110 0.37190 0.10800
C 	C 	0.88780 0.76753 0.41748 0.05200
H 	H 	0.89790 0.75680 0.41650 0.00300
C 	C 	0.88726 0.77894 0.43479 -0.09600
H 	H 	0.89720 0.77670 0.44550 0.06600
C 	C 	0.87179 0.79439 0.43705 0.00500
H 	H 	0.87070 0.80240 0.44940 0.03900
C 	C 	0.85827 0.79744 0.42042 -0.05300
C 	C 	0.86005 0.78479 0.40304 0.04600
H 	H 	0.85030 0.78660 0.39210 0.01100
C 	C 	0.84207 0.81323 0.42139 0.13300
N 	N 	0.76561 0.65997 0.36490 -0.22400
N 	N 	0.86325 0.60465 0.22691 -0.26000
N 	N 	0.85068 0.62328 0.26757 -0.22900
N 	N 	0.81309 0.65943 0.32092 -0.15500
N 	N 	0.84658 0.67023 0.31142 -0.15300
N 	N 	0.82774 0.68849 0.33754 -0.15200
N 	N 	0.87827 0.72512 0.35074 -0.23400
N 	N 	0.87452 0.77033 0.40084 -0.22600
N 	N 	0.84297 0.74898 0.37293 -0.26700
N 	N 	0.82751 0.81313 0.40657 -0.15000
S 	S 	0.83435 0.57743 0.20983 -0.06300
S 	S 	0.79975 0.75359 0.37079 -0.06100
C 	C 	0.28178 0.16010 0.35166 0.03700
H 	H 	0.28490 0.14760 0.34430 0.01300
C 	C 	0.29417 0.17727 0.34811 -0.05200
C 	C 	0.28951 0.19563 0.35817 0.01000
H 	H 	0.29810 0.20760 0.35660 0.03700
C 	C 	0.27202 0.19617 0.37062 -0.10000
H 	H 	0.26760 0.20890 0.37670 0.06600
C 	C 	0.26099 0.17829 0.37422 0.05800
H 	H 	0.24960 0.17880 0.38370 0.00100
C 	C 	0.35151 0.09342 0.21900 0.09800
C 	C 	0.33516 0.10933 0.26673 0.06500
H 	H 	0.33600 0.09880 0.25640 -0.00300
C 	C 	0.31830 0.10923 0.27959 -0.10700
H 	H 	0.30820 0.09850 0.27870 0.06800
C 	C 	0.31624 0.12505 0.29389 0.01400
H 	H 	0.30470 0.12550 0.30310 0.03500
C 	C 	0.33154 0.14046 0.29454 -0.05500
C 	C 	0.34801 0.13885 0.28115 0.04300
H 	H 	0.35820 0.14950 0.28150 0.01300
C 	C 	0.33004 0.15793 0.30983 0.14200
C 	C 	0.34503 0.18522 0.32570 0.13600
C 	C 	0.31253 0.17526 0.33463 0.13900
C 	C 	0.36283 0.21236 0.34659 0.04800
H 	H 	0.35100 0.21260 0.35540 0.00900
C 	C 	0.36298 0.19823 0.32962 -0.05800
C 	C 	0.38086 0.19724 0.31788 0.01800
H 	H 	0.38190 0.18770 0.30670 0.03500
C 	C 	0.39724 0.21019 0.32249 -0.11000
H 	H 	0.40980 0.20960 0.31480 0.07100
C 	C 	0.39493 0.22413 0.33862 0.06900
H 	H 	0.40600 0.23360 0.34120 -0.00200
C 	C 	0.32552 0.25110 0.37190 0.10800
C 	C 	0.38780 0.26753 0.41748 0.05200
H 	H 	0.39790 0.25680 0.41650 0.00300
C 	C 	0.38726 0.27894 0.43479 -0.09600
H 	H 	0.39720 0.27670 0.44550 0.06600
C 	C 	0.37179 0.29439 0.43705 0.00500
H 	H 	0.37070 0.30240 0.44940 0.03900
C 	C 	0.35827 0.29744 0.42042 -0.05300
C 	C 	0.36005 0.28479 0.40304 0.04600
H 	H 	0.35030 0.28660 0.39210 0.01100
C 	C 	0.34207 0.31323 0.42139 0.13300
N 	N 	0.26561 0.15997 0.36490 -0.22400
N 	N 	0.36325 0.10465 0.22691 -0.26000
N 	N 	0.35068 0.12328 0.26757 -0.22900
N 	N 	0.31309 0.15943 0.32092 -0.15500
N 	N 	0.34658 0.17023 0.31142 -0.15300
N 	N 	0.32774 0.18849 0.33754 -0.15200
N 	N 	0.37827 0.22512 0.35074 -0.23400
N 	N 	0.37452 0.27033 0.40084 -0.22600
N 	N 	0.34297 0.24898 0.37293 -0.26700
N 	N 	0.32751 0.31313 0.40657 -0.15000
S 	S 	0.33435 0.07743 0.20983 -0.06300
S 	S 	0.29975 0.25359 0.37079 -0.06100
C 	C 	0.28178 0.66010 0.85166 0.03700
H 	H 	0.28490 0.64760 0.84430 0.01300
C 	C 	0.29417 0.67727 0.84811 -0.05200
C 	C 	0.28951 0.69563 0.85817 0.01000
H 	H 	0.29810 0.70760 0.85660 0.03700
C 	C 	0.27202 0.69617 0.87062 -0.10000
H 	H 	0.26760 0.70890 0.87670 0.06600
C 	C 	0.26099 0.67829 0.87422 0.05800
H 	H 	0.24960 0.67880 0.88370 0.00100
C 	C 	0.35151 0.59342 0.71900 0.09800
C 	C 	0.33516 0.60933 0.76673 0.06500
H 	H 	0.33600 0.59880 0.75640 -0.00300
C 	C 	0.31830 0.60923 0.77959 -0.10700
H 	H 	0.30820 0.59850 0.77870 0.06800
C 	C 	0.31624 0.62505 0.79389 0.01400
H 	H 	0.30470 0.62550 0.80310 0.03500
C 	C 	0.33154 0.64046 0.79454 -0.05500
C 	C 	0.34801 0.63885 0.78115 0.04300
H 	H 	0.35820 0.64950 0.78150 0.01300
C 	C 	0.33004 0.65793 0.80983 0.14200
C 	C 	0.34503 0.68522 0.82570 0.13600
C 	C 	0.31253 0.67526 0.83463 0.13900
C 	C 	0.36283 0.71236 0.84659 0.04800
H 	H 	0.35100 0.71260 0.85540 0.00900
C 	C 	0.36298 0.69823 0.82962 -0.05800
C 	C 	0.38086 0.69724 0.81788 0.01800
H 	H 	0.38190 0.68770 0.80670 0.03500
C 	C 	0.39724 0.71019 0.82249 -0.11000
H 	H 	0.40980 0.70960 0.81480 0.07100
C 	C 	0.39493 0.72413 0.83862 0.06900
H 	H 	0.40600 0.73360 0.84120 -0.00200
C 	C 	0.32552 0.75110 0.87190 0.10800
C 	C 	0.38780 0.76753 0.91748 0.05200
H 	H 	0.39790 0.75680 0.91650 0.00300
C 	C 	0.38726 0.77894 0.93479 -0.09600
H 	H 	0.39720 0.77670 0.94550 0.06600
C 	C 	0.37179 0.79439 0.93705 0.00500
H 	H 	0.37070 0.80240 0.94940 0.03900
C 	C 	0.35827 0.79744 0.92042 -0.05300
C 	C 	0.36005 0.78479 0.90304 0.04600
H 	H 	0.35030 0.78660 0.89210 0.01100
C 	C 	0.34207 0.81323 0.92139 0.13300
N 	N 	0.26561 0.65997 0.86490 -0.22400
N 	N 	0.36325 0.60465 0.72691 -0.26000
N 	N 	0.35068 0.62328 0.76757 -0.22900
N 	N 	0.31309 0.65943 0.82092 -0.15500
N 	N 	0.34658 0.67023 0.81142 -0.15300
N 	N 	0.32774 0.68849 0.83754 -0.15200
N 	N 	0.37827 0.72512 0.85074 -0.23400
N 	N 	0.37452 0.77033 0.90084 -0.22600
N 	N 	0.34297 0.74898 0.87293 -0.26700
N 	N 	0.32751 0.81313 0.90657 -0.15000
S 	S 	0.33435 0.57743 0.70983 -0.06300
S 	S 	0.29975 0.75359 0.87079 -0.06100
C 	C 	0.96822 0.08990 0.35166 0.03800
H 	H 	0.96510 0.10240 0.34430 0.01300
C 	C 	0.95583 0.07273 0.34811 -0.05200
C 	C 	0.96049 0.05437 0.35817 0.01000
H 	H 	0.95190 0.04240 0.35660 0.03700
C 	C 	0.97798 0.05383 0.37062 -0.10000
H 	H 	0.98240 0.04110 0.37670 0.06600
C 	C 	0.98901 0.07171 0.37422 0.05900
H 	H 	0.00040 0.07120 0.38370 0.00100
C 	C 	0.89849 0.15658 0.21900 0.09800
C 	C 	0.91484 0.14067 0.26673 0.06500
H 	H 	0.91400 0.15120 0.25640 -0.00300
C 	C 	0.93170 0.14077 0.27959 -0.10700
H 	H 	0.94180 0.15150 0.27870 0.06800
C 	C 	0.93376 0.12495 0.29389 0.01400
H 	H 	0.94530 0.12450 0.30310 0.03500
C 	C 	0.91846 0.10954 0.29454 -0.05500
C 	C 	0.90199 0.11115 0.28115 0.04300
H 	H 	0.89180 0.10050 0.28150 0.01300
C 	C 	0.91996 0.09207 0.30983 0.14200
C 	C 	0.90497 0.06478 0.32570 0.13600
C 	C 	0.93747 0.07474 0.33463 0.13900
C 	C 	0.88717 0.03764 0.34659 0.04800
H 	H 	0.89900 0.03740 0.35540 0.00900
C 	C 	0.88702 0.05177 0.32962 -0.05800
C 	C 	0.86914 0.05276 0.31788 0.01800
H 	H 	0.86810 0.06230 0.30670 0.03500
C 	C 	0.85276 0.03981 0.32249 -0.11000
H 	H 	0.84020 0.04040 0.31480 0.07100
C 	C 	0.85507 0.02587 0.33862 0.06900
H 	H 	0.84400 0.01640 0.34120 -0.00200
C 	C 	0.92448 0.99890 0.37190 0.10800
C 	C 	0.86220 0.98247 0.41748 0.05200
H 	H 	0.85210 0.99320 0.41650 0.00300
C 	C 	0.86274 0.97106 0.43479 -0.09600
H 	H 	0.85280 0.97330 0.44550 0.06600
C 	C 	0.87821 0.95561 0.43705 0.00500
H 	H 	0.87930 0.94760 0.44940 0.03900
C 	C 	0.89173 0.95256 0.42042 -0.05300
C 	C 	0.88995 0.96521 0.40304 0.04600
H 	H 	0.89970 0.96340 0.39210 0.01100
C 	C 	0.90793 0.93677 0.42139 0.13300
N 	N 	0.98439 0.09003 0.36490 -0.22400
N 	N 	0.88675 0.14535 0.22691 -0.26000
N 	N 	0.89932 0.12672 0.26757 -0.22900
N 	N 	0.93691 0.09057 0.32092 -0.15500
N 	N 	0.90342 0.07977 0.31142 -0.15300
N 	N 	0.92226 0.06151 0.33754 -0.15200
N 	N 	0.87173 0.02488 0.35074 -0.23400
N 	N 	0.87548 0.97967 0.40084 -0.22600
N 	N 	0.90703 0.00102 0.37293 -0.26700
N 	N 	0.92249 0.93687 0.40657 -0.15000
S 	S 	0.91565 0.17257 0.20983 -0.06300
S 	S 	0.95025 0.99641 0.37079 -0.06100
C 	C 	0.96822 0.58990 0.85166 0.03800
H 	H 	0.96510 0.60240 0.84430 0.01300
C 	C 	0.95583 0.57273 0.84811 -0.05200
C 	C 	0.96049 0.55437 0.85817 0.01000
H 	H 	0.95190 0.54240 0.85660 0.03700
C 	C 	0.97798 0.55383 0.87062 -0.10000
H 	H 	0.98240 0.54110 0.87670 0.06600
C 	C 	0.98901 0.57171 0.87422 0.05900
H 	H 	0.00040 0.57120 0.88370 0.00100
C 	C 	0.89849 0.65658 0.71900 0.09800
C 	C 	0.91484 0.64067 0.76673 0.06500
H 	H 	0.91400 0.65120 0.75640 -0.00300
C 	C 	0.93170 0.64077 0.77959 -0.10700
H 	H 	0.94180 0.65150 0.77870 0.06800
C 	C 	0.93376 0.62495 0.79389 0.01400
H 	H 	0.94530 0.62450 0.80310 0.03500
C 	C 	0.91846 0.60954 0.79454 -0.05500
C 	C 	0.90199 0.61115 0.78115 0.04300
H 	H 	0.89180 0.60050 0.78150 0.01300
C 	C 	0.91996 0.59207 0.80983 0.14200
C 	C 	0.90497 0.56478 0.82570 0.13600
C 	C 	0.93747 0.57474 0.83463 0.13900
C 	C 	0.88717 0.53764 0.84659 0.04800
H 	H 	0.89900 0.53740 0.85540 0.00900
C 	C 	0.88702 0.55177 0.82962 -0.05800
C 	C 	0.86914 0.55276 0.81788 0.01800
H 	H 	0.86810 0.56230 0.80670 0.03500
C 	C 	0.85276 0.53981 0.82249 -0.11000
H 	H 	0.84020 0.54040 0.81480 0.07100
C 	C 	0.85507 0.52587 0.83862 0.06900
H 	H 	0.84400 0.51640 0.84120 -0.00200
C 	C 	0.92448 0.49890 0.87190 0.10800
C 	C 	0.86220 0.48247 0.91748 0.05200
H 	H 	0.85210 0.49320 0.91650 0.00300
C 	C 	0.86274 0.47106 0.93479 -0.09600
H 	H 	0.85280 0.47330 0.94550 0.06600
C 	C 	0.87821 0.45561 0.93705 0.00500
H 	H 	0.87930 0.44760 0.94940 0.03900
C 	C 	0.89173 0.45256 0.92042 -0.05300
C 	C 	0.88995 0.46521 0.90304 0.04600
H 	H 	0.89970 0.46340 0.89210 0.01100
C 	C 	0.90793 0.43677 0.92139 0.13300
N 	N 	0.98439 0.59003 0.86490 -0.22400
N 	N 	0.88675 0.64535 0.72691 -0.26000
N 	N 	0.89932 0.62672 0.76757 -0.22900
N 	N 	0.93691 0.59057 0.82092 -0.15500
N 	N 	0.90342 0.57977 0.81142 -0.15300
N 	N 	0.92226 0.56151 0.83754 -0.15200
N 	N 	0.87173 0.52488 0.85074 -0.23400
N 	N 	0.87548 0.47967 0.90084 -0.22600
N 	N 	0.90703 0.50102 0.87293 -0.26700
N 	N 	0.92249 0.43687 0.90657 -0.15000
S 	S 	0.91565 0.67257 0.70983 -0.06300
S 	S 	0.95025 0.49641 0.87079 -0.06100
C 	C 	0.46822 0.08990 0.85166 0.03700
H 	H 	0.46510 0.10240 0.84430 0.01300
C 	C 	0.45583 0.07273 0.84811 -0.05200
C 	C 	0.46049 0.05437 0.85817 0.01000
H 	H 	0.45190 0.04240 0.85660 0.03700
C 	C 	0.47798 0.05383 0.87062 -0.10000
H 	H 	0.48240 0.04110 0.87670 0.06600
C 	C 	0.48901 0.07171 0.87422 0.05800
H 	H 	0.50040 0.07120 0.88370 0.00100
C 	C 	0.39849 0.15658 0.71900 0.09800
C 	C 	0.41484 0.14067 0.76673 0.06500
H 	H 	0.41400 0.15120 0.75640 -0.00300
C 	C 	0.43170 0.14077 0.77959 -0.10700
H 	H 	0.44180 0.15150 0.77870 0.06800
C 	C 	0.43376 0.12495 0.79389 0.01400
H 	H 	0.44530 0.12450 0.80310 0.03500
C 	C 	0.41846 0.10954 0.79454 -0.05500
C 	C 	0.40199 0.11115 0.78115 0.04300
H 	H 	0.39180 0.10050 0.78150 0.01300
C 	C 	0.41996 0.09207 0.80983 0.14200
C 	C 	0.40497 0.06478 0.82570 0.13600
C 	C 	0.43747 0.07474 0.83463 0.13900
C 	C 	0.38717 0.03764 0.84659 0.04800
H 	H 	0.39900 0.03740 0.85540 0.00900
C 	C 	0.38702 0.05177 0.82962 -0.05800
C 	C 	0.36914 0.05276 0.81788 0.01800
H 	H 	0.36810 0.06230 0.80670 0.03500
C 	C 	0.35276 0.03981 0.82249 -0.11000
H 	H 	0.34020 0.04040 0.81480 0.07100
C 	C 	0.35507 0.02587 0.83862 0.06900
H 	H 	0.34400 0.01640 0.84120 -0.00200
C 	C 	0.42448 0.99890 0.87190 0.10800
C 	C 	0.36220 0.98247 0.91748 0.05200
H 	H 	0.35210 0.99320 0.91650 0.00300
C 	C 	0.36274 0.97106 0.93479 -0.09600
H 	H 	0.35280 0.97330 0.94550 0.06600
C 	C 	0.37821 0.95561 0.93705 0.00500
H 	H 	0.37930 0.94760 0.94940 0.03900
C 	C 	0.39173 0.95256 0.92042 -0.05300
C 	C 	0.38995 0.96521 0.90304 0.04600
H 	H 	0.39970 0.96340 0.89210 0.01100
C 	C 	0.40793 0.93677 0.92139 0.13300
N 	N 	0.48439 0.09003 0.86490 -0.22400
N 	N 	0.38675 0.14535 0.72691 -0.26000
N 	N 	0.39932 0.12672 0.76757 -0.22900
N 	N 	0.43691 0.09057 0.82092 -0.15500
N 	N 	0.40342 0.07977 0.81142 -0.15300
N 	N 	0.42226 0.06151 0.83754 -0.15200
N 	N 	0.37173 0.02488 0.85074 -0.23400
N 	N 	0.37548 0.97967 0.90084 -0.22600
N 	N 	0.40703 0.00102 0.87293 -0.26700
N 	N 	0.42249 0.93687 0.90657 -0.15000
S 	S 	0.41565 0.17257 0.70983 -0.06300
S 	S 	0.45025 0.99641 0.87079 -0.06100
C 	C 	0.46822 0.58990 0.35166 0.03700
H 	H 	0.46510 0.60240 0.34430 0.01300
C 	C 	0.45583 0.57273 0.34811 -0.05200
C 	C 	0.46049 0.55437 0.35817 0.01000
H 	H 	0.45190 0.54240 0.35660 0.03700
C 	C 	0.47798 0.55383 0.37062 -0.10000
H 	H 	0.48240 0.54110 0.37670 0.06600
C 	C 	0.48901 0.57171 0.37422 0.05800
H 	H 	0.50040 0.57120 0.38370 0.00100
C 	C 	0.39849 0.65658 0.21900 0.09800
C 	C 	0.41484 0.64067 0.26673 0.06500
H 	H 	0.41400 0.65120 0.25640 -0.00300
C 	C 	0.43170 0.64077 0.27959 -0.10700
H 	H 	0.44180 0.65150 0.27870 0.06800
C 	C 	0.43376 0.62495 0.29389 0.01400
H 	H 	0.44530 0.62450 0.30310 0.03500
C 	C 	0.41846 0.60954 0.29454 -0.05500
C 	C 	0.40199 0.61115 0.28115 0.04300
H 	H 	0.39180 0.60050 0.28150 0.01300
C 	C 	0.41996 0.59207 0.30983 0.14200
C 	C 	0.40497 0.56478 0.32570 0.13600
C 	C 	0.43747 0.57474 0.33463 0.13900
C 	C 	0.38717 0.53764 0.34659 0.04800
H 	H 	0.39900 0.53740 0.35540 0.00900
C 	C 	0.38702 0.55177 0.32962 -0.05800
C 	C 	0.36914 0.55276 0.31788 0.01800
H 	H 	0.36810 0.56230 0.30670 0.03500
C 	C 	0.35276 0.53981 0.32249 -0.11000
H 	H 	0.34020 0.54040 0.31480 0.07100
C 	C 	0.35507 0.52587 0.33862 0.06900
H 	H 	0.34400 0.51640 0.34120 -0.00200
C 	C 	0.42448 0.49890 0.37190 0.10800
C 	C 	0.36220 0.48247 0.41748 0.05200
H 	H 	0.35210 0.49320 0.41650 0.00300
C 	C 	0.36274 0.47106 0.43479 -0.09600
H 	H 	0.35280 0.47330 0.44550 0.06600
C 	C 	0.37821 0.45561 0.43705 0.00500
H 	H 	0.37930 0.44760 0.44940 0.03900
C 	C 	0.39173 0.45256 0.42042 -0.05300
C 	C 	0.38995 0.46521 0.40304 0.04600
H 	H 	0.39970 0.46340 0.39210 0.01100
C 	C 	0.40793 0.43677 0.42139 0.13300
N 	N 	0.48439 0.59003 0.36490 -0.22400
N 	N 	0.38675 0.64535 0.22691 -0.26000
N 	N 	0.39932 0.62672 0.26757 -0.22900
N 	N 	0.43691 0.59057 0.32092 -0.15500
N 	N 	0.40342 0.57977 0.31142 -0.15300
N 	N 	0.42226 0.56151 0.33754 -0.15200
N 	N 	0.37173 0.52488 0.35074 -0.23400
N 	N 	0.37548 0.47967 0.40084 -0.22600
N 	N 	0.40703 0.50102 0.37293 -0.26700
N 	N 	0.42249 0.43687 0.40657 -0.15000
S 	S 	0.41565 0.67257 0.20983 -0.06300
S 	S 	0.45025 0.49641 0.37079 -0.06100
C 	C 	0.89834 0.46822 0.66010 0.03700
H 	H 	0.90570 0.46510 0.64760 0.01300
C 	C 	0.90189 0.45583 0.67727 -0.05200
C 	C 	0.89183 0.46049 0.69563 0.01000
H 	H 	0.89340 0.45190 0.70760 0.03700
C 	C 	0.87938 0.47798 0.69617 -0.10000
H 	H 	0.87330 0.48240 0.70890 0.06600
C 	C 	0.87578 0.48901 0.67829 0.05800
H 	H 	0.86630 0.50040 0.67880 0.00100
C 	C 	0.03100 0.39849 0.59342 0.09800
C 	C 	0.98327 0.41484 0.60933 0.06500
H 	H 	0.99360 0.41400 0.59880 -0.00300
C 	C 	0.97041 0.43170 0.60923 -0.10700
H 	H 	0.97130 0.44180 0.59850 0.06800
C 	C 	0.95611 0.43376 0.62505 0.01400
H 	H 	0.94690 0.44530 0.62550 0.03500
C 	C 	0.95546 0.41846 0.64046 -0.05500
C 	C 	0.96885 0.40199 0.63885 0.04300
H 	H 	0.96850 0.39180 0.64950 0.01300
C 	C 	0.94017 0.41996 0.65793 0.14200
C 	C 	0.92430 0.40497 0.68522 0.13600
C 	C 	0.91537 0.43747 0.67526 0.13900
C 	C 	0.90341 0.38717 0.71236 0.04800
H 	H 	0.89460 0.39900 0.71260 0.00900
C 	C 	0.92038 0.38702 0.69823 -0.05800
C 	C 	0.93212 0.36914 0.69724 0.01800
H 	H 	0.94330 0.36810 0.68770 0.03500
C 	C 	0.92751 0.35276 0.71019 -0.11000
H 	H 	0.93520 0.34020 0.70960 0.07100
C 	C 	0.91138 0.35507 0.72413 0.06900
H 	H 	0.90880 0.34400 0.73360 -0.00200
C 	C 	0.87810 0.42448 0.75110 0.10800
C 	C 	0.83252 0.36220 0.76753 0.05200
H 	H 	0.83350 0.35210 0.75680 0.00300
C 	C 	0.81521 0.36274 0.77894 -0.09600
H 	H 	0.80450 0.35280 0.77670 0.06600
C 	C 	0.81295 0.37821 0.79439 0.00500
H 	H 	0.80060 0.37930 0.80240 0.03900
C 	C 	0.82958 0.39173 0.79744 -0.05300
C 	C 	0.84696 0.38995 0.78479 0.04600
H 	H 	0.85790 0.39970 0.78660 0.01100
C 	C 	0.82861 0.40793 0.81323 0.13300
N 	N 	0.88510 0.48439 0.65997 -0.22400
N 	N 	0.02309 0.38675 0.60465 -0.26000
N 	N 	0.98243 0.39932 0.62328 -0.22900
N 	N 	0.92908 0.43691 0.65943 -0.15500
N 	N 	0.93858 0.40342 0.67023 -0.15300
N 	N 	0.91246 0.42226 0.68849 -0.15200
N 	N 	0.89926 0.37173 0.72512 -0.23400
N 	N 	0.84916 0.37548 0.77033 -0.22600
N 	N 	0.87707 0.40703 0.74898 -0.26700
N 	N 	0.84343 0.42249 0.81313 -0.15000
S 	S 	0.04017 0.41565 0.57743 -0.06300
S 	S 	0.87921 0.45025 0.75359 -0.06100
C 	C 	0.89834 0.96822 0.16010 0.03800
H 	H 	0.90570 0.96510 0.14760 0.01300
C 	C 	0.90189 0.95583 0.17727 -0.05200
C 	C 	0.89183 0.96049 0.19563 0.01000
H 	H 	0.89340 0.95190 0.20760 0.03700
C 	C 	0.87938 0.97798 0.19617 -0.10000
H 	H 	0.87330 0.98240 0.20890 0.06600
C 	C 	0.87578 0.98901 0.17829 0.05900
H 	H 	0.86630 0.00040 0.17880 0.00100
C 	C 	0.03100 0.89849 0.09342 0.09800
C 	C 	0.98327 0.91484 0.10933 0.06500
H 	H 	0.99360 0.91400 0.09880 -0.00300
C 	C 	0.97041 0.93170 0.10923 -0.10700
H 	H 	0.97130 0.94180 0.09850 0.06800
C 	C 	0.95611 0.93376 0.12505 0.01400
H 	H 	0.94690 0.94530 0.12550 0.03600
C 	C 	0.95546 0.91846 0.14046 -0.05500
C 	C 	0.96885 0.90199 0.13885 0.04300
H 	H 	0.96850 0.89180 0.14950 0.01300
C 	C 	0.94017 0.91996 0.15793 0.14200
C 	C 	0.92430 0.90497 0.18522 0.13600
C 	C 	0.91537 0.93747 0.17526 0.13900
C 	C 	0.90341 0.88717 0.21236 0.04800
H 	H 	0.89460 0.89900 0.21260 0.00900
C 	C 	0.92038 0.88702 0.19823 -0.05800
C 	C 	0.93212 0.86914 0.19724 0.01800
H 	H 	0.94330 0.86810 0.18770 0.03500
C 	C 	0.92751 0.85276 0.21019 -0.11000
H 	H 	0.93520 0.84020 0.20960 0.07100
C 	C 	0.91138 0.85507 0.22413 0.06900
H 	H 	0.90880 0.84400 0.23360 -0.00200
C 	C 	0.87810 0.92448 0.25110 0.10800
C 	C 	0.83252 0.86220 0.26753 0.05200
H 	H 	0.83350 0.85210 0.25680 0.00300
C 	C 	0.81521 0.86274 0.27894 -0.09600
H 	H 	0.80450 0.85280 0.27670 0.06600
C 	C 	0.81295 0.87821 0.29439 0.00500
H 	H 	0.80060 0.87930 0.30240 0.03900
C 	C 	0.82958 0.89173 0.29744 -0.05300
C 	C 	0.84696 0.88995 0.28479 0.04600
H 	H 	0.85790 0.89970 0.28660 0.01100
C 	C 	0.82861 0.90793 0.31323 0.13300
N 	N 	0.88510 0.98439 0.15997 -0.22400
N 	N 	0.02309 0.88675 0.10465 -0.26000
N 	N 	0.98243 0.89932 0.12328 -0.22900
N 	N 	0.92908 0.93691 0.15943 -0.15500
N 	N 	0.93858 0.90342 0.17023 -0.15300
N 	N 	0.91246 0.92226 0.18849 -0.15200
N 	N 	0.89926 0.87173 0.22512 -0.23400
N 	N 	0.84916 0.87548 0.27033 -0.22600
N 	N 	0.87707 0.90703 0.24898 -0.26700
N 	N 	0.84343 0.92249 0.31313 -0.15000
S 	S 	0.04017 0.91565 0.07743 -0.06300
S 	S 	0.87921 0.95025 0.25359 -0.06100
C 	C 	0.39834 0.46822 0.16010 0.03700
H 	H 	0.40570 0.46510 0.14760 0.01300
C 	C 	0.40189 0.45583 0.17727 -0.05200
C 	C 	0.39183 0.46049 0.19563 0.01000
H 	H 	0.39340 0.45190 0.20760 0.03700
C 	C 	0.37938 0.47798 0.19617 -0.10000
H 	H 	0.37330 0.48240 0.20890 0.06600
C 	C 	0.37578 0.48901 0.17829 0.05800
H 	H 	0.36630 0.50040 0.17880 0.00100
C 	C 	0.53100 0.39849 0.09342 0.09800
C 	C 	0.48327 0.41484 0.10933 0.06500
H 	H 	0.49360 0.41400 0.09880 -0.00300
C 	C 	0.47041 0.43170 0.10923 -0.10700
H 	H 	0.47130 0.44180 0.09850 0.06800
C 	C 	0.45611 0.43376 0.12505 0.01400
H 	H 	0.44690 0.44530 0.12550 0.03500
C 	C 	0.45546 0.41846 0.14046 -0.05500
C 	C 	0.46885 0.40199 0.13885 0.04300
H 	H 	0.46850 0.39180 0.14950 0.01300
C 	C 	0.44017 0.41996 0.15793 0.14200
C 	C 	0.42430 0.40497 0.18522 0.13600
C 	C 	0.41537 0.43747 0.17526 0.13900
C 	C 	0.40341 0.38717 0.21236 0.04800
H 	H 	0.39460 0.39900 0.21260 0.00900
C 	C 	0.42038 0.38702 0.19823 -0.05800
C 	C 	0.43212 0.36914 0.19724 0.01800
H 	H 	0.44330 0.36810 0.18770 0.03500
C 	C 	0.42751 0.35276 0.21019 -0.11000
H 	H 	0.43520 0.34020 0.20960 0.07100
C 	C 	0.41138 0.35507 0.22413 0.06900
H 	H 	0.40880 0.34400 0.23360 -0.00200
C 	C 	0.37810 0.42448 0.25110 0.10800
C 	C 	0.33252 0.36220 0.26753 0.05200
H 	H 	0.33350 0.35210 0.25680 0.00300
C 	C 	0.31521 0.36274 0.27894 -0.09600
H 	H 	0.30450 0.35280 0.27670 0.06600
C 	C 	0.31295 0.37821 0.29439 0.00500
H 	H 	0.30060 0.37930 0.30240 0.03900
C 	C 	0.32958 0.39173 0.29744 -0.05300
C 	C 	0.34696 0.38995 0.28479 0.04600
H 	H 	0.35790 0.39970 0.28660 0.01100
C 	C 	0.32861 0.40793 0.31323 0.13300
N 	N 	0.38510 0.48439 0.15997 -0.22400
N 	N 	0.52309 0.38675 0.10465 -0.26000
N 	N 	0.48243 0.39932 0.12328 -0.22900
N 	N 	0.42908 0.43691 0.15943 -0.15500
N 	N 	0.43858 0.40342 0.17023 -0.15300
N 	N 	0.41246 0.42226 0.18849 -0.15200
N 	N 	0.39926 0.37173 0.22512 -0.23400
N 	N 	0.34916 0.37548 0.27033 -0.22600
N 	N 	0.37707 0.40703 0.24898 -0.26700
N 	N 	0.34343 0.42249 0.31313 -0.15000
S 	S 	0.54017 0.41565 0.07743 -0.06300
S 	S 	0.37921 0.45025 0.25359 -0.06100
C 	C 	0.39834 0.96822 0.66010 0.03800
H 	H 	0.40570 0.96510 0.64760 0.01300
C 	C 	0.40189 0.95583 0.67727 -0.05200
C 	C 	0.39183 0.96049 0.69563 0.01000
H 	H 	0.39340 0.95190 0.70760 0.03700
C 	C 	0.37938 0.97798 0.69617 -0.10000
H 	H 	0.37330 0.98240 0.70890 0.06600
C 	C 	0.37578 0.98901 0.67829 0.05900
H 	H 	0.36630 0.00040 0.67880 0.00100
C 	C 	0.53100 0.89849 0.59342 0.09800
C 	C 	0.48327 0.91484 0.60933 0.06500
H 	H 	0.49360 0.91400 0.59880 -0.00300
C 	C 	0.47041 0.93170 0.60923 -0.10700
H 	H 	0.47130 0.94180 0.59850 0.06800
C 	C 	0.45611 0.93376 0.62505 0.01400
H 	H 	0.44690 0.94530 0.62550 0.03500
C 	C 	0.45546 0.91846 0.64046 -0.05500
C 	C 	0.46885 0.90199 0.63885 0.04300
H 	H 	0.46850 0.89180 0.64950 0.01300
C 	C 	0.44017 0.91996 0.65793 0.14200
C 	C 	0.42430 0.90497 0.68522 0.13600
C 	C 	0.41537 0.93747 0.67526 0.13900
C 	C 	0.40341 0.88717 0.71236 0.04800
H 	H 	0.39460 0.89900 0.71260 0.00900
C 	C 	0.42038 0.88702 0.69823 -0.05800
C 	C 	0.43212 0.86914 0.69724 0.01800
H 	H 	0.44330 0.86810 0.68770 0.03500
C 	C 	0.42751 0.85276 0.71019 -0.11000
H 	H 	0.43520 0.84020 0.70960 0.07100
C 	C 	0.41138 0.85507 0.72413 0.06900
H 	H 	0.40880 0.84400 0.73360 -0.00200
C 	C 	0.37810 0.92448 0.75110 0.10800
C 	C 	0.33252 0.86220 0.76753 0.05200
H 	H 	0.33350 0.85210 0.75680 0.00300
C 	C 	0.31521 0.86274 0.77894 -0.09600
H 	H 	0.30450 0.85280 0.77670 0.06600
C 	C 	0.31295 0.87821 0.79439 0.00500
H 	H 	0.30060 0.87930 0.80240 0.03900
C 	C 	0.32958 0.89173 0.79744 -0.05300
C 	C 	0.34696 0.88995 0.78479 0.04600
H 	H 	0.35790 0.89970 0.78660 0.01100
C 	C 	0.32861 0.90793 0.81323 0.13300
N 	N 	0.38510 0.98439 0.65997 -0.22400
N 	N 	0.52309 0.88675 0.60465 -0.26000
N 	N 	0.48243 0.89932 0.62328 -0.22900
N 	N 	0.42908 0.93691 0.65943 -0.15500
N 	N 	0.43858 0.90342 0.67023 -0.15300
N 	N 	0.41246 0.92226 0.68849 -0.15200
N 	N 	0.39926 0.87173 0.72512 -0.23400
N 	N 	0.34916 0.87548 0.77033 -0.22600
N 	N 	0.37707 0.90703 0.74898 -0.26700
N 	N 	0.34343 0.92249 0.81313 -0.15000
S 	S 	0.54017 0.91565 0.57743 -0.06300
S 	S 	0.37921 0.95025 0.75359 -0.06100
C 	C 	0.39834 0.28178 0.58990 0.03700
H 	H 	0.40570 0.28490 0.60240 0.01300
C 	C 	0.40189 0.29417 0.57273 -0.05200
C 	C 	0.39183 0.28951 0.55437 0.01000
H 	H 	0.39340 0.29810 0.54240 0.03700
C 	C 	0.37938 0.27202 0.55383 -0.10000
H 	H 	0.37330 0.26760 0.54110 0.06600
C 	C 	0.37578 0.26099 0.57171 0.05800
H 	H 	0.36630 0.24960 0.57120 0.00100
C 	C 	0.53100 0.35151 0.65658 0.09800
C 	C 	0.48327 0.33516 0.64067 0.06500
H 	H 	0.49360 0.33600 0.65120 -0.00300
C 	C 	0.47041 0.31830 0.64077 -0.10700
H 	H 	0.47130 0.30820 0.65150 0.06800
C 	C 	0.45611 0.31624 0.62495 0.01400
H 	H 	0.44690 0.30470 0.62450 0.03500
C 	C 	0.45546 0.33154 0.60954 -0.05500
C 	C 	0.46885 0.34801 0.61115 0.04300
H 	H 	0.46850 0.35820 0.60050 0.01300
C 	C 	0.44017 0.33004 0.59207 0.14200
C 	C 	0.42430 0.34503 0.56478 0.13600
C 	C 	0.41537 0.31253 0.57474 0.13900
C 	C 	0.40341 0.36283 0.53764 0.04800
H 	H 	0.39460 0.35100 0.53740 0.00900
C 	C 	0.42038 0.36298 0.55177 -0.05800
C 	C 	0.43212 0.38086 0.55276 0.01800
H 	H 	0.44330 0.38190 0.56230 0.03500
C 	C 	0.42751 0.39724 0.53981 -0.11000
H 	H 	0.43520 0.40980 0.54040 0.07100
C 	C 	0.41138 0.39493 0.52587 0.06900
H 	H 	0.40880 0.40600 0.51640 -0.00200
C 	C 	0.37810 0.32552 0.49890 0.10800
C 	C 	0.33252 0.38780 0.48247 0.05200
H 	H 	0.33350 0.39790 0.49320 0.00300
C 	C 	0.31521 0.38726 0.47106 -0.09600
H 	H 	0.30450 0.39720 0.47330 0.06600
C 	C 	0.31295 0.37179 0.45561 0.00500
H 	H 	0.30060 0.37070 0.44760 0.03900
C 	C 	0.32958 0.35827 0.45256 -0.05300
C 	C 	0.34696 0.36005 0.46521 0.04600
H 	H 	0.35790 0.35030 0.46340 0.01100
C 	C 	0.32861 0.34207 0.43677 0.13300
N 	N 	0.38510 0.26561 0.59003 -0.22400
N 	N 	0.52309 0.36325 0.64535 -0.26000
N 	N 	0.48243 0.35068 0.62672 -0.22900
N 	N 	0.42908 0.31309 0.59057 -0.15500
N 	N 	0.43858 0.34658 0.57977 -0.15300
N 	N 	0.41246 0.32774 0.56151 -0.15200
N 	N 	0.39926 0.37827 0.52488 -0.23400
N 	N 	0.34916 0.37452 0.47967 -0.22600
N 	N 	0.37707 0.34297 0.50102 -0.26700
N 	N 	0.34343 0.32751 0.43687 -0.15000
S 	S 	0.54017 0.33435 0.67257 -0.06300
S 	S 	0.37921 0.29975 0.49641 -0.06100
C 	C 	0.39834 0.78178 0.08990 0.03700
H 	H 	0.40570 0.78490 0.10240 0.01300
C 	C 	0.40189 0.79417 0.07273 -0.05200
C 	C 	0.39183 0.78951 0.05437 0.01000
H 	H 	0.39340 0.79810 0.04240 0.03700
C 	C 	0.37938 0.77202 0.05383 -0.10000
H 	H 	0.37330 0.76760 0.04110 0.06600
C 	C 	0.37578 0.76099 0.07171 0.05800
H 	H 	0.36630 0.74960 0.07120 0.00100
C 	C 	0.53100 0.85151 0.15658 0.09800
C 	C 	0.48327 0.83516 0.14067 0.06500
H 	H 	0.49360 0.83600 0.15120 -0.00300
C 	C 	0.47041 0.81830 0.14077 -0.10700
H 	H 	0.47130 0.80820 0.15150 0.06800
C 	C 	0.45611 0.81624 0.12495 0.01400
H 	H 	0.44690 0.80470 0.12450 0.03500
C 	C 	0.45546 0.83154 0.10954 -0.05500
C 	C 	0.46885 0.84801 0.11115 0.04300
H 	H 	0.46850 0.85820 0.10050 0.01300
C 	C 	0.44017 0.83004 0.09207 0.14200
C 	C 	0.42430 0.84503 0.06478 0.13600
C 	C 	0.41537 0.81253 0.07474 0.13900
C 	C 	0.40341 0.86283 0.03764 0.04800
H 	H 	0.39460 0.85100 0.03740 0.00900
C 	C 	0.42038 0.86298 0.05177 -0.05800
C 	C 	0.43212 0.88086 0.05276 0.01800
H 	H 	0.44330 0.88190 0.06230 0.03500
C 	C 	0.42751 0.89724 0.03981 -0.11000
H 	H 	0.43520 0.90980 0.04040 0.07100
C 	C 	0.41138 0.89493 0.02587 0.06900
H 	H 	0.40880 0.90600 0.01640 -0.00200
C 	C 	0.37810 0.82552 0.99890 0.10800
C 	C 	0.33252 0.88780 0.98247 0.05200
H 	H 	0.33350 0.89790 0.99320 0.00300
C 	C 	0.31521 0.88726 0.97106 -0.09600
H 	H 	0.30450 0.89720 0.97330 0.06600
C 	C 	0.31295 0.87179 0.95561 0.00500
H 	H 	0.30060 0.87070 0.94760 0.03900
C 	C 	0.32958 0.85827 0.95256 -0.05300
C 	C 	0.34696 0.86005 0.96521 0.04600
H 	H 	0.35790 0.85030 0.96340 0.01100
C 	C 	0.32861 0.84207 0.93677 0.13300
N 	N 	0.38510 0.76561 0.09003 -0.22400
N 	N 	0.52309 0.86325 0.14535 -0.26000
N 	N 	0.48243 0.85068 0.12672 -0.22900
N 	N 	0.42908 0.81309 0.09057 -0.15500
N 	N 	0.43858 0.84658 0.07977 -0.15300
N 	N 	0.41246 0.82774 0.06151 -0.15200
N 	N 	0.39926 0.87827 0.02488 -0.23400
N 	N 	0.34916 0.87452 0.97967 -0.22600
N 	N 	0.37707 0.84297 0.00102 -0.26700
N 	N 	0.34343 0.82751 0.93687 -0.15000
S 	S 	0.54017 0.83435 0.17257 -0.06300
S 	S 	0.37921 0.79975 0.99641 -0.06100
C 	C 	0.89834 0.28178 0.08990 0.03700
H 	H 	0.90570 0.28490 0.10240 0.01300
C 	C 	0.90189 0.29417 0.07273 -0.05200
C 	C 	0.89183 0.28951 0.05437 0.01000
H 	H 	0.89340 0.29810 0.04240 0.03700
C 	C 	0.87938 0.27202 0.05383 -0.10000
H 	H 	0.87330 0.26760 0.04110 0.06600
C 	C 	0.87578 0.26099 0.07171 0.05800
H 	H 	0.86630 0.24960 0.07120 0.00100
C 	C 	0.03100 0.35151 0.15658 0.09800
C 	C 	0.98327 0.33516 0.14067 0.06500
H 	H 	0.99360 0.33600 0.15120 -0.00300
C 	C 	0.97041 0.31830 0.14077 -0.10700
H 	H 	0.97130 0.30820 0.15150 0.06800
C 	C 	0.95611 0.31624 0.12495 0.01400
H 	H 	0.94690 0.30470 0.12450 0.03500
C 	C 	0.95546 0.33154 0.10954 -0.05500
C 	C 	0.96885 0.34801 0.11115 0.04300
H 	H 	0.96850 0.35820 0.10050 0.01300
C 	C 	0.94017 0.33004 0.09207 0.14200
C 	C 	0.92430 0.34503 0.06478 0.13600
C 	C 	0.91537 0.31253 0.07474 0.13900
C 	C 	0.90341 0.36283 0.03764 0.04800
H 	H 	0.89460 0.35100 0.03740 0.00900
C 	C 	0.92038 0.36298 0.05177 -0.05800
C 	C 	0.93212 0.38086 0.05276 0.01800
H 	H 	0.94330 0.38190 0.06230 0.03500
C 	C 	0.92751 0.39724 0.03981 -0.11000
H 	H 	0.93520 0.40980 0.04040 0.07100
C 	C 	0.91138 0.39493 0.02587 0.06900
H 	H 	0.90880 0.40600 0.01640 -0.00200
C 	C 	0.87810 0.32552 0.99890 0.10800
C 	C 	0.83252 0.38780 0.98247 0.05200
H 	H 	0.83350 0.39790 0.99320 0.00300
C 	C 	0.81521 0.38726 0.97106 -0.09600
H 	H 	0.80450 0.39720 0.97330 0.06600
C 	C 	0.81295 0.37179 0.95561 0.00500
H 	H 	0.80060 0.37070 0.94760 0.03900
C 	C 	0.82958 0.35827 0.95256 -0.05300
C 	C 	0.84696 0.36005 0.96521 0.04600
H 	H 	0.85790 0.35030 0.96340 0.01100
C 	C 	0.82861 0.34207 0.93677 0.13300
N 	N 	0.88510 0.26561 0.09003 -0.22400
N 	N 	0.02309 0.36325 0.14535 -0.26000
N 	N 	0.98243 0.35068 0.12672 -0.22900
N 	N 	0.92908 0.31309 0.09057 -0.15500
N 	N 	0.93858 0.34658 0.07977 -0.15300
N 	N 	0.91246 0.32774 0.06151 -0.15200
N 	N 	0.89926 0.37827 0.02488 -0.23400
N 	N 	0.84916 0.37452 0.97967 -0.22600
N 	N 	0.87707 0.34297 0.00102 -0.26700
N 	N 	0.84343 0.32751 0.93687 -0.15000
S 	S 	0.04017 0.33435 0.17257 -0.06300
S 	S 	0.87921 0.29975 0.99641 -0.06100
C 	C 	0.89834 0.78178 0.58990 0.03700
H 	H 	0.90570 0.78490 0.60240 0.01300
C 	C 	0.90189 0.79417 0.57273 -0.05200
C 	C 	0.89183 0.78951 0.55437 0.01000
H 	H 	0.89340 0.79810 0.54240 0.03700
C 	C 	0.87938 0.77202 0.55383 -0.10000
H 	H 	0.87330 0.76760 0.54110 0.06600
C 	C 	0.87578 0.76099 0.57171 0.05800
H 	H 	0.86630 0.74960 0.57120 0.00100
C 	C 	0.03100 0.85151 0.65658 0.09800
C 	C 	0.98327 0.83516 0.64067 0.06500
H 	H 	0.99360 0.83600 0.65120 -0.00300
C 	C 	0.97041 0.81830 0.64077 -0.10700
H 	H 	0.97130 0.80820 0.65150 0.06800
C 	C 	0.95611 0.81624 0.62495 0.01400
H 	H 	0.94690 0.80470 0.62450 0.03500
C 	C 	0.95546 0.83154 0.60954 -0.05500
C 	C 	0.96885 0.84801 0.61115 0.04300
H 	H 	0.96850 0.85820 0.60050 0.01300
C 	C 	0.94017 0.83004 0.59207 0.14200
C 	C 	0.92430 0.84503 0.56478 0.13600
C 	C 	0.91537 0.81253 0.57474 0.13900
C 	C 	0.90341 0.86283 0.53764 0.04800
H 	H 	0.89460 0.85100 0.53740 0.00900
C 	C 	0.92038 0.86298 0.55177 -0.05800
C 	C 	0.93212 0.88086 0.55276 0.01800
H 	H 	0.94330 0.88190 0.56230 0.03500
C 	C 	0.92751 0.89724 0.53981 -0.11000
H 	H 	0.93520 0.90980 0.54040 0.07100
C 	C 	0.91138 0.89493 0.52587 0.06900
H 	H 	0.90880 0.90600 0.51640 -0.00200
C 	C 	0.87810 0.82552 0.49890 0.10800
C 	C 	0.83252 0.88780 0.48247 0.05200
H 	H 	0.83350 0.89790 0.49320 0.00300
C 	C 	0.81521 0.88726 0.47106 -0.09600
H 	H 	0.80450 0.89720 0.47330 0.06600
C 	C 	0.81295 0.87179 0.45561 0.00500
H 	H 	0.80060 0.87070 0.44760 0.03900
C 	C 	0.82958 0.85827 0.45256 -0.05300
C 	C 	0.84696 0.86005 0.46521 0.04600
H 	H 	0.85790 0.85030 0.46340 0.01100
C 	C 	0.82861 0.84207 0.43677 0.13300
N 	N 	0.88510 0.76561 0.59003 -0.22400
N 	N 	0.02309 0.86325 0.64535 -0.26000
N 	N 	0.98243 0.85068 0.62672 -0.22900
N 	N 	0.92908 0.81309 0.59057 -0.15500
N 	N 	0.93858 0.84658 0.57977 -0.15300
N 	N 	0.91246 0.82774 0.56151 -0.15200
N 	N 	0.89926 0.87827 0.52488 -0.23400
N 	N 	0.84916 0.87452 0.47967 -0.22600
N 	N 	0.87707 0.84297 0.50102 -0.26700
N 	N 	0.84343 0.82751 0.43687 -0.15000
S 	S 	0.04017 0.83435 0.67257 -0.06300
S 	S 	0.87921 0.79975 0.49641 -0.06100
C 	C 	0.85166 0.78178 0.16010 0.03700
H 	H 	0.84430 0.78490 0.14760 0.01300
C 	C 	0.84811 0.79417 0.17727 -0.05200
C 	C 	0.85817 0.78951 0.19563 0.01000
H 	H 	0.85660 0.79810 0.20760 0.03700
C 	C 	0.87062 0.77202 0.19617 -0.10000
H 	H 	0.87670 0.76760 0.20890 0.06600
C 	C 	0.87422 0.76099 0.17829 0.05800
H 	H 	0.88370 0.74960 0.17880 0.00100
C 	C 	0.71900 0.85151 0.09342 0.09800
C 	C 	0.76673 0.83516 0.10933 0.06500
H 	H 	0.75640 0.83600 0.09880 -0.00300
C 	C 	0.77959 0.81830 0.10923 -0.10700
H 	H 	0.77870 0.80820 0.09850 0.06800
C 	C 	0.79389 0.81624 0.12505 0.01400
H 	H 	0.80310 0.80470 0.12550 0.03500
C 	C 	0.79454 0.83154 0.14046 -0.05500
C 	C 	0.78115 0.84801 0.13885 0.04300
H 	H 	0.78150 0.85820 0.14950 0.01300
C 	C 	0.80983 0.83004 0.15793 0.14200
C 	C 	0.82570 0.84503 0.18522 0.13600
C 	C 	0.83463 0.81253 0.17526 0.13900
C 	C 	0.84659 0.86283 0.21236 0.04800
H 	H 	0.85540 0.85100 0.21260 0.00900
C 	C 	0.82962 0.86298 0.19823 -0.05800
C 	C 	0.81788 0.88086 0.19724 0.01800
H 	H 	0.80670 0.88190 0.18770 0.03500
C 	C 	0.82249 0.89724 0.21019 -0.11000
H 	H 	0.81480 0.90980 0.20960 0.07100
C 	C 	0.83862 0.89493 0.22413 0.06900
H 	H 	0.84120 0.90600 0.23360 -0.00200
C 	C 	0.87190 0.82552 0.25110 0.10800
C 	C 	0.91748 0.88780 0.26753 0.05200
H 	H 	0.91650 0.89790 0.25680 0.00300
C 	C 	0.93479 0.88726 0.27894 -0.09600
H 	H 	0.94550 0.89720 0.27670 0.06600
C 	C 	0.93705 0.87179 0.29439 0.00500
H 	H 	0.94940 0.87070 0.30240 0.03900
C 	C 	0.92042 0.85827 0.29744 -0.05300
C 	C 	0.90304 0.86005 0.28479 0.04600
H 	H 	0.89210 0.85030 0.28660 0.01100
C 	C 	0.92139 0.84207 0.31323 0.13300
N 	N 	0.86490 0.76561 0.15997 -0.22400
N 	N 	0.72691 0.86325 0.10465 -0.26000
N 	N 	0.76757 0.85068 0.12328 -0.22900
N 	N 	0.82092 0.81309 0.15943 -0.15500
N 	N 	0.81142 0.84658 0.17023 -0.15300
N 	N 	0.83754 0.82774 0.18849 -0.15200
N 	N 	0.85074 0.87827 0.22512 -0.23400
N 	N 	0.90084 0.87452 0.27033 -0.22600
N 	N 	0.87293 0.84297 0.24898 -0.26700
N 	N 	0.90657 0.82751 0.31313 -0.15000
S 	S 	0.70983 0.83435 0.07743 -0.06300
S 	S 	0.87079 0.79975 0.25359 -0.06100
C 	C 	0.85166 0.28178 0.66010 0.03700
H 	H 	0.84430 0.28490 0.64760 0.01300
C 	C 	0.84811 0.29417 0.67727 -0.05200
C 	C 	0.85817 0.28951 0.69563 0.01000
H 	H 	0.85660 0.29810 0.70760 0.03700
C 	C 	0.87062 0.27202 0.69617 -0.10000
H 	H 	0.87670 0.26760 0.70890 0.06600
C 	C 	0.87422 0.26099 0.67829 0.05800
H 	H 	0.88370 0.24960 0.67880 0.00100
C 	C 	0.71900 0.35151 0.59342 0.09800
C 	C 	0.76673 0.33516 0.60933 0.06500
H 	H 	0.75640 0.33600 0.59880 -0.00300
C 	C 	0.77959 0.31830 0.60923 -0.10700
H 	H 	0.77870 0.30820 0.59850 0.06800
C 	C 	0.79389 0.31624 0.62505 0.01400
H 	H 	0.80310 0.30470 0.62550 0.03500
C 	C 	0.79454 0.33154 0.64046 -0.05500
C 	C 	0.78115 0.34801 0.63885 0.04300
H 	H 	0.78150 0.35820 0.64950 0.01300
C 	C 	0.80983 0.33004 0.65793 0.14200
C 	C 	0.82570 0.34503 0.68522 0.13600
C 	C 	0.83463 0.31253 0.67526 0.13900
C 	C 	0.84659 0.36283 0.71236 0.04800
H 	H 	0.85540 0.35100 0.71260 0.00900
C 	C 	0.82962 0.36298 0.69823 -0.05800
C 	C 	0.81788 0.38086 0.69724 0.01800
H 	H 	0.80670 0.38190 0.68770 0.03500
C 	C 	0.82249 0.39724 0.71019 -0.11000
H 	H 	0.81480 0.40980 0.70960 0.07100
C 	C 	0.83862 0.39493 0.72413 0.06900
H 	H 	0.84120 0.40600 0.73360 -0.00200
C 	C 	0.87190 0.32552 0.75110 0.10800
C 	C 	0.91748 0.38780 0.76753 0.05200
H 	H 	0.91650 0.39790 0.75680 0.00300
C 	C 	0.93479 0.38726 0.77894 -0.09600
H 	H 	0.94550 0.39720 0.77670 0.06600
C 	C 	0.93705 0.37179 0.79439 0.00500
H 	H 	0.94940 0.37070 0.80240 0.03900
C 	C 	0.92042 0.35827 0.79744 -0.05300
C 	C 	0.90304 0.36005 0.78479 0.04600
H 	H 	0.89210 0.35030 0.78660 0.01100
C 	C 	0.92139 0.34207 0.81323 0.13300
N 	N 	0.86490 0.26561 0.65997 -0.22400
N 	N 	0.72691 0.36325 0.60465 -0.26000
N 	N 	0.76757 0.35068 0.62328 -0.22900
N 	N 	0.82092 0.31309 0.65943 -0.15500
N 	N 	0.81142 0.34658 0.67023 -0.15300
N 	N 	0.83754 0.32774 0.68849 -0.15200
N 	N 	0.85074 0.37827 0.72512 -0.23400
N 	N 	0.90084 0.37452 0.77033 -0.22600
N 	N 	0.87293 0.34297 0.74898 -0.26700
N 	N 	0.90657 0.32751 0.81313 -0.15000
S 	S 	0.70983 0.33435 0.57743 -0.06300
S 	S 	0.87079 0.29975 0.75359 -0.06100
C 	C 	0.35166 0.78178 0.66010 0.03700
H 	H 	0.34430 0.78490 0.64760 0.01300
C 	C 	0.34811 0.79417 0.67727 -0.05200
C 	C 	0.35817 0.78951 0.69563 0.01000
H 	H 	0.35660 0.79810 0.70760 0.03700
C 	C 	0.37062 0.77202 0.69617 -0.10000
H 	H 	0.37670 0.76760 0.70890 0.06600
C 	C 	0.37422 0.76099 0.67829 0.05800
H 	H 	0.38370 0.74960 0.67880 0.00100
C 	C 	0.21900 0.85151 0.59342 0.09800
C 	C 	0.26673 0.83516 0.60933 0.06500
H 	H 	0.25640 0.83600 0.59880 -0.00300
C 	C 	0.27959 0.81830 0.60923 -0.10700
H 	H 	0.27870 0.80820 0.59850 0.06800
C 	C 	0.29389 0.81624 0.62505 0.01400
H 	H 	0.30310 0.80470 0.62550 0.03500
C 	C 	0.29454 0.83154 0.64046 -0.05500
C 	C 	0.28115 0.84801 0.63885 0.04300
H 	H 	0.28150 0.85820 0.64950 0.01300
C 	C 	0.30983 0.83004 0.65793 0.14200
C 	C 	0.32570 0.84503 0.68522 0.13600
C 	C 	0.33463 0.81253 0.67526 0.13900
C 	C 	0.34659 0.86283 0.71236 0.04800
H 	H 	0.35540 0.85100 0.71260 0.00900
C 	C 	0.32962 0.86298 0.69823 -0.05800
C 	C 	0.31788 0.88086 0.69724 0.01800
H 	H 	0.30670 0.88190 0.68770 0.03500
C 	C 	0.32249 0.89724 0.71019 -0.11000
H 	H 	0.31480 0.90980 0.70960 0.07100
C 	C 	0.33862 0.89493 0.72413 0.06900
H 	H 	0.34120 0.90600 0.73360 -0.00200
C 	C 	0.37190 0.82552 0.75110 0.10800
C 	C 	0.41748 0.88780 0.76753 0.05200
H 	H 	0.41650 0.89790 0.75680 0.00300
C 	C 	0.43479 0.88726 0.77894 -0.09600
H 	H 	0.44550 0.89720 0.77670 0.06600
C 	C 	0.43705 0.87179 0.79439 0.00500
H 	H 	0.44940 0.87070 0.80240 0.03900
C 	C 	0.42042 0.85827 0.79744 -0.05300
C 	C 	0.40304 0.86005 0.78479 0.04600
H 	H 	0.39210 0.85030 0.78660 0.01100
C 	C 	0.42139 0.84207 0.81323 0.13300
N 	N 	0.36490 0.76561 0.65997 -0.22400
N 	N 	0.22691 0.86325 0.60465 -0.26000
N 	N 	0.26757 0.85068 0.62328 -0.22900
N 	N 	0.32092 0.81309 0.65943 -0.15500
N 	N 	0.31142 0.84658 0.67023 -0.15300
N 	N 	0.33754 0.82774 0.68849 -0.15200
N 	N 	0.35074 0.87827 0.72512 -0.23400
N 	N 	0.40084 0.87452 0.77033 -0.22600
N 	N 	0.37293 0.84297 0.74898 -0.26700
N 	N 	0.40657 0.82751 0.81313 -0.15000
S 	S 	0.20983 0.83435 0.57743 -0.06300
S 	S 	0.37079 0.79975 0.75359 -0.06100
C 	C 	0.35166 0.28178 0.16010 0.03700
H 	H 	0.34430 0.28490 0.14760 0.01300
C 	C 	0.34811 0.29417 0.17727 -0.05200
C 	C 	0.35817 0.28951 0.19563 0.01000
H 	H 	0.35660 0.29810 0.20760 0.03700
C 	C 	0.37062 0.27202 0.19617 -0.10000
H 	H 	0.37670 0.26760 0.20890 0.06600
C 	C 	0.37422 0.26099 0.17829 0.05800
H 	H 	0.38370 0.24960 0.17880 0.00100
C 	C 	0.21900 0.35151 0.09342 0.09800
C 	C 	0.26673 0.33516 0.10933 0.06500
H 	H 	0.25640 0.33600 0.09880 -0.00300
C 	C 	0.27959 0.31830 0.10923 -0.10700
H 	H 	0.27870 0.30820 0.09850 0.06800
C 	C 	0.29389 0.31624 0.12505 0.01400
H 	H 	0.30310 0.30470 0.12550 0.03500
C 	C 	0.29454 0.33154 0.14046 -0.05500
C 	C 	0.28115 0.34801 0.13885 0.04300
H 	H 	0.28150 0.35820 0.14950 0.01300
C 	C 	0.30983 0.33004 0.15793 0.14200
C 	C 	0.32570 0.34503 0.18522 0.13600
C 	C 	0.33463 0.31253 0.17526 0.13900
C 	C 	0.34659 0.36283 0.21236 0.04800
H 	H 	0.35540 0.35100 0.21260 0.00900
C 	C 	0.32962 0.36298 0.19823 -0.05800
C 	C 	0.31788 0.38086 0.19724 0.01800
H 	H 	0.30670 0.38190 0.18770 0.03500
C 	C 	0.32249 0.39724 0.21019 -0.11000
H 	H 	0.31480 0.40980 0.20960 0.07100
C 	C 	0.33862 0.39493 0.22413 0.06900
H 	H 	0.34120 0.40600 0.23360 -0.00200
C 	C 	0.37190 0.32552 0.25110 0.10800
C 	C 	0.41748 0.38780 0.26753 0.05200
H 	H 	0.41650 0.39790 0.25680 0.00300
C 	C 	0.43479 0.38726 0.27894 -0.09600
H 	H 	0.44550 0.39720 0.27670 0.06600
C 	C 	0.43705 0.37179 0.29439 0.00500
H 	H 	0.44940 0.37070 0.30240 0.03900
C 	C 	0.42042 0.35827 0.29744 -0.05300
C 	C 	0.40304 0.36005 0.28479 0.04600
H 	H 	0.39210 0.35030 0.28660 0.01100
C 	C 	0.42139 0.34207 0.31323 0.13300
N 	N 	0.36490 0.26561 0.15997 -0.22400
N 	N 	0.22691 0.36325 0.10465 -0.26000
N 	N 	0.26757 0.35068 0.12328 -0.22900
N 	N 	0.32092 0.31309 0.15943 -0.15500
N 	N 	0.31142 0.34658 0.17023 -0.15300
N 	N 	0.33754 0.32774 0.18849 -0.15200
N 	N 	0.35074 0.37827 0.22512 -0.23400
N 	N 	0.40084 0.37452 0.27033 -0.22600
N 	N 	0.37293 0.34297 0.24898 -0.26700
N 	N 	0.40657 0.32751 0.31313 -0.15000
S 	S 	0.20983 0.33435 0.07743 -0.06300
S 	S 	0.37079 0.29975 0.25359 -0.06100
C 	C 	0.35166 0.96822 0.08990 0.03800
H 	H 	0.34430 0.96510 0.10240 0.01300
C 	C 	0.34811 0.95583 0.07273 -0.05200
C 	C 	0.35817 0.96049 0.05437 0.01000
H 	H 	0.35660 0.95190 0.04240 0.03700
C 	C 	0.37062 0.97798 0.05383 -0.10000
H 	H 	0.37670 0.98240 0.04110 0.06600
C 	C 	0.37422 0.98901 0.07171 0.05900
H 	H 	0.38370 0.00040 0.07120 0.00100
C 	C 	0.21900 0.89849 0.15658 0.09800
C 	C 	0.26673 0.91484 0.14067 0.06500
H 	H 	0.25640 0.91400 0.15120 -0.00300
C 	C 	0.27959 0.93170 0.14077 -0.10700
H 	H 	0.27870 0.94180 0.15150 0.06800
C 	C 	0.29389 0.93376 0.12495 0.01400
H 	H 	0.30310 0.94530 0.12450 0.03500
C 	C 	0.29454 0.91846 0.10954 -0.05500
C 	C 	0.28115 0.90199 0.11115 0.04300
H 	H 	0.28150 0.89180 0.10050 0.01300
C 	C 	0.30983 0.91996 0.09207 0.14200
C 	C 	0.32570 0.90497 0.06478 0.13600
C 	C 	0.33463 0.93747 0.07474 0.13900
C 	C 	0.34659 0.88717 0.03764 0.04800
H 	H 	0.35540 0.89900 0.03740 0.00900
C 	C 	0.32962 0.88702 0.05177 -0.05800
C 	C 	0.31788 0.86914 0.05276 0.01800
H 	H 	0.30670 0.86810 0.06230 0.03500
C 	C 	0.32249 0.85276 0.03981 -0.11000
H 	H 	0.31480 0.84020 0.04040 0.07100
C 	C 	0.33862 0.85507 0.02587 0.06900
H 	H 	0.34120 0.84400 0.01640 -0.00200
C 	C 	0.37190 0.92448 0.99890 0.10800
C 	C 	0.41748 0.86220 0.98247 0.05200
H 	H 	0.41650 0.85210 0.99320 0.00300
C 	C 	0.43479 0.86274 0.97106 -0.09600
H 	H 	0.44550 0.85280 0.97330 0.06600
C 	C 	0.43705 0.87821 0.95561 0.00500
H 	H 	0.44940 0.87930 0.94760 0.03900
C 	C 	0.42042 0.89173 0.95256 -0.05300
C 	C 	0.40304 0.88995 0.96521 0.04600
H 	H 	0.39210 0.89970 0.96340 0.01100
C 	C 	0.42139 0.90793 0.93677 0.13300
N 	N 	0.36490 0.98439 0.09003 -0.22400
N 	N 	0.22691 0.88675 0.14535 -0.26000
N 	N 	0.26757 0.89932 0.12672 -0.22900
N 	N 	0.32092 0.93691 0.09057 -0.15500
N 	N 	0.31142 0.90342 0.07977 -0.15300
N 	N 	0.33754 0.92226 0.06151 -0.15200
N 	N 	0.35074 0.87173 0.02488 -0.23400
N 	N 	0.40084 0.87548 0.97967 -0.22600
N 	N 	0.37293 0.90703 0.00102 -0.26700
N 	N 	0.40657 0.92249 0.93687 -0.15000
S 	S 	0.20983 0.91565 0.17257 -0.06300
S 	S 	0.37079 0.95025 0.99641 -0.06100
C 	C 	0.35166 0.46822 0.58990 0.03700
H 	H 	0.34430 0.46510 0.60240 0.01300
C 	C 	0.34811 0.45583 0.57273 -0.05200
C 	C 	0.35817 0.46049 0.55437 0.01000
H 	H 	0.35660 0.45190 0.54240 0.03700
C 	C 	0.37062 0.47798 0.55383 -0.10000
H 	H 	0.37670 0.48240 0.54110 0.06600
C 	C 	0.37422 0.48901 0.57171 0.05800
H 	H 	0.38370 0.50040 0.57120 0.00100
C 	C 	0.21900 0.39849 0.65658 0.09800
C 	C 	0.26673 0.41484 0.64067 0.06500
H 	H 	0.25640 0.41400 0.65120 -0.00300
C 	C 	0.27959 0.43170 0.64077 -0.10700
H 	H 	0.27870 0.44180 0.65150 0.06800
C 	C 	0.29389 0.43376 0.62495 0.01400
H 	H 	0.30310 0.44530 0.62450 0.03500
C 	C 	0.29454 0.41846 0.60954 -0.05500
C 	C 	0.28115 0.40199 0.61115 0.04300
H 	H 	0.28150 0.39180 0.60050 0.01300
C 	C 	0.30983 0.41996 0.59207 0.14200
C 	C 	0.32570 0.40497 0.56478 0.13600
C 	C 	0.33463 0.43747 0.57474 0.13900
C 	C 	0.34659 0.38717 0.53764 0.04800
H 	H 	0.35540 0.39900 0.53740 0.00900
C 	C 	0.32962 0.38702 0.55177 -0.05800
C 	C 	0.31788 0.36914 0.55276 0.01800
H 	H 	0.30670 0.36810 0.56230 0.03500
C 	C 	0.32249 0.35276 0.53981 -0.11000
H 	H 	0.31480 0.34020 0.54040 0.07100
C 	C 	0.33862 0.35507 0.52587 0.06900
H 	H 	0.34120 0.34400 0.51640 -0.00200
C 	C 	0.37190 0.42448 0.49890 0.10800
C 	C 	0.41748 0.36220 0.48247 0.05200
H 	H 	0.41650 0.35210 0.49320 0.00300
C 	C 	0.43479 0.36274 0.47106 -0.09600
H 	H 	0.44550 0.35280 0.47330 0.06600
C 	C 	0.43705 0.37821 0.45561 0.00500
H 	H 	0.44940 0.37930 0.44760 0.03900
C 	C 	0.42042 0.39173 0.45256 -0.05300
C 	C 	0.40304 0.38995 0.46521 0.04600
H 	H 	0.39210 0.39970 0.46340 0.01100
C 	C 	0.42139 0.40793 0.43677 0.13300
N 	N 	0.36490 0.48439 0.59003 -0.22400
N 	N 	0.22691 0.38675 0.64535 -0.26000
N 	N 	0.26757 0.39932 0.62672 -0.22900
N 	N 	0.32092 0.43691 0.59057 -0.15500
N 	N 	0.31142 0.40342 0.57977 -0.15300
N 	N 	0.33754 0.42226 0.56151 -0.15200
N 	N 	0.35074 0.37173 0.52488 -0.23400
N 	N 	0.40084 0.37548 0.47967 -0.22600
N 	N 	0.37293 0.40703 0.50102 -0.26700
N 	N 	0.40657 0.42249 0.43687 -0.15000
S 	S 	0.20983 0.41565 0.67257 -0.06300
S 	S 	0.37079 0.45025 0.49641 -0.06100
C 	C 	0.85166 0.96822 0.58990 0.03800
H 	H 	0.84430 0.96510 0.60240 0.01300
C 	C 	0.84811 0.95583 0.57273 -0.05200
C 	C 	0.85817 0.96049 0.55437 0.01000
H 	H 	0.85660 0.95190 0.54240 0.03700
C 	C 	0.87062 0.97798 0.55383 -0.10000
H 	H 	0.87670 0.98240 0.54110 0.06600
C 	C 	0.87422 0.98901 0.57171 0.05900
H 	H 	0.88370 0.00040 0.57120 0.00100
C 	C 	0.71900 0.89849 0.65658 0.09800
C 	C 	0.76673 0.91484 0.64067 0.06500
H 	H 	0.75640 0.91400 0.65120 -0.00300
C 	C 	0.77959 0.93170 0.64077 -0.10700
H 	H 	0.77870 0.94180 0.65150 0.06800
C 	C 	0.79389 0.93376 0.62495 0.01400
H 	H 	0.80310 0.94530 0.62450 0.03500
C 	C 	0.79454 0.91846 0.60954 -0.05500
C 	C 	0.78115 0.90199 0.61115 0.04300
H 	H 	0.78150 0.89180 0.60050 0.01300
C 	C 	0.80983 0.91996 0.59207 0.14200
C 	C 	0.82570 0.90497 0.56478 0.13600
C 	C 	0.83463 0.93747 0.57474 0.13900
C 	C 	0.84659 0.88717 0.53764 0.04800
H 	H 	0.85540 0.89900 0.53740 0.00900
C 	C 	0.82962 0.88702 0.55177 -0.05800
C 	C 	0.81788 0.86914 0.55276 0.01800
H 	H 	0.80670 0.86810 0.56230 0.03500
C 	C 	0.82249 0.85276 0.53981 -0.11000
H 	H 	0.81480 0.84020 0.54040 0.07100
C 	C 	0.83862 0.85507 0.52587 0.06900
H 	H 	0.84120 0.84400 0.51640 -0.00200
C 	C 	0.87190 0.92448 0.49890 0.10800
C 	C 	0.91748 0.86220 0.48247 0.05200
H 	H 	0.91650 0.85210 0.49320 0.00300
C 	C 	0.93479 0.86274 0.47106 -0.09600
H 	H 	0.94550 0.85280 0.47330 0.06600
C 	C 	0.93705 0.87821 0.45561 0.00500
H 	H 	0.94940 0.87930 0.44760 0.03900
C 	C 	0.92042 0.89173 0.45256 -0.05300
C 	C 	0.90304 0.88995 0.46521 0.04600
H 	H 	0.89210 0.89970 0.46340 0.01100
C 	C 	0.92139 0.90793 0.43677 0.13300
N 	N 	0.86490 0.98439 0.59003 -0.22400
N 	N 	0.72691 0.88675 0.64535 -0.26000
N 	N 	0.76757 0.89932 0.62672 -0.22900
N 	N 	0.82092 0.93691 0.59057 -0.15500
N 	N 	0.81142 0.90342 0.57977 -0.15300
N 	N 	0.83754 0.92226 0.56151 -0.15200
N 	N 	0.85074 0.87173 0.52488 -0.23400
N 	N 	0.90084 0.87548 0.47967 -0.22600
N 	N 	0.87293 0.90703 0.50102 -0.26700
N 	N 	0.90657 0.92249 0.43687 -0.15000
S 	S 	0.70983 0.91565 0.67257 -0.06300
S 	S 	0.87079 0.95025 0.49641 -0.06100
C 	C 	0.85166 0.46822 0.08990 0.03700
H 	H 	0.84430 0.46510 0.10240 0.01300
C 	C 	0.84811 0.45583 0.07273 -0.05200
C 	C 	0.85817 0.46049 0.05437 0.01000
H 	H 	0.85660 0.45190 0.04240 0.03700
C 	C 	0.87062 0.47798 0.05383 -0.10000
H 	H 	0.87670 0.48240 0.04110 0.06600
C 	C 	0.87422 0.48901 0.07171 0.05800
H 	H 	0.88370 0.50040 0.07120 0.00100
C 	C 	0.71900 0.39849 0.15658 0.09800
C 	C 	0.76673 0.41484 0.14067 0.06500
H 	H 	0.75640 0.41400 0.15120 -0.00300
C 	C 	0.77959 0.43170 0.14077 -0.10700
H 	H 	0.77870 0.44180 0.15150 0.06800
C 	C 	0.79389 0.43376 0.12495 0.01400
H 	H 	0.80310 0.44530 0.12450 0.03500
C 	C 	0.79454 0.41846 0.10954 -0.05500
C 	C 	0.78115 0.40199 0.11115 0.04300
H 	H 	0.78150 0.39180 0.10050 0.01300
C 	C 	0.80983 0.41996 0.09207 0.14200
C 	C 	0.82570 0.40497 0.06478 0.13600
C 	C 	0.83463 0.43747 0.07474 0.13900
C 	C 	0.84659 0.38717 0.03764 0.04800
H 	H 	0.85540 0.39900 0.03740 0.00900
C 	C 	0.82962 0.38702 0.05177 -0.05800
C 	C 	0.81788 0.36914 0.05276 0.01800
H 	H 	0.80670 0.36810 0.06230 0.03500
C 	C 	0.82249 0.35276 0.03981 -0.11000
H 	H 	0.81480 0.34020 0.04040 0.07100
C 	C 	0.83862 0.35507 0.02587 0.06900
H 	H 	0.84120 0.34400 0.01640 -0.00200
C 	C 	0.87190 0.42448 0.99890 0.10800
C 	C 	0.91748 0.36220 0.98247 0.05200
H 	H 	0.91650 0.35210 0.99320 0.00300
C 	C 	0.93479 0.36274 0.97106 -0.09600
H 	H 	0.94550 0.35280 0.97330 0.06600
C 	C 	0.93705 0.37821 0.95561 0.00500
H 	H 	0.94940 0.37930 0.94760 0.03900
C 	C 	0.92042 0.39173 0.95256 -0.05300
C 	C 	0.90304 0.38995 0.96521 0.04600
H 	H 	0.89210 0.39970 0.96340 0.01100
C 	C 	0.92139 0.40793 0.93677 0.13300
N 	N 	0.86490 0.48439 0.09003 -0.22400
N 	N 	0.72691 0.38675 0.14535 -0.26000
N 	N 	0.76757 0.39932 0.12672 -0.22900
N 	N 	0.82092 0.43691 0.09057 -0.15500
N 	N 	0.81142 0.40342 0.07977 -0.15300
N 	N 	0.83754 0.42226 0.06151 -0.15200
N 	N 	0.85074 0.37173 0.02488 -0.23400
N 	N 	0.90084 0.37548 0.97967 -0.22600
N 	N 	0.87293 0.40703 0.00102 -0.26700
N 	N 	0.90657 0.42249 0.93687 -0.15000
S 	S 	0.70983 0.41565 0.17257 -0.06300
S 	S 	0.87079 0.45025 0.99641 -0.06100
C 	C 	0.66010 0.89834 0.46822 0.03700
H 	H 	0.64760 0.90570 0.46510 0.01300
C 	C 	0.67727 0.90189 0.45583 -0.05200
C 	C 	0.69563 0.89183 0.46049 0.01000
H 	H 	0.70760 0.89340 0.45190 0.03700
C 	C 	0.69617 0.87938 0.47798 -0.10000
H 	H 	0.70890 0.87330 0.48240 0.06600
C 	C 	0.67829 0.87578 0.48901 0.05800
H 	H 	0.67880 0.86630 0.50040 0.00100
C 	C 	0.59342 0.03100 0.39849 0.09800
C 	C 	0.60933 0.98327 0.41484 0.06500
H 	H 	0.59880 0.99360 0.41400 -0.00300
C 	C 	0.60923 0.97041 0.43170 -0.10700
H 	H 	0.59850 0.97130 0.44180 0.06800
C 	C 	0.62505 0.95611 0.43376 0.01400
H 	H 	0.62550 0.94690 0.44530 0.03500
C 	C 	0.64046 0.95546 0.41846 -0.05500
C 	C 	0.63885 0.96885 0.40199 0.04300
H 	H 	0.64950 0.96850 0.39180 0.01300
C 	C 	0.65793 0.94017 0.41996 0.14200
C 	C 	0.68522 0.92430 0.40497 0.13600
C 	C 	0.67526 0.91537 0.43747 0.13900
C 	C 	0.71236 0.90341 0.38717 0.04800
H 	H 	0.71260 0.89460 0.39900 0.00900
C 	C 	0.69823 0.92038 0.38702 -0.05800
C 	C 	0.69724 0.93212 0.36914 0.01800
H 	H 	0.68770 0.94330 0.36810 0.03500
C 	C 	0.71019 0.92751 0.35276 -0.11000
H 	H 	0.70960 0.93520 0.34020 0.07100
C 	C 	0.72413 0.91138 0.35507 0.06900
H 	H 	0.73360 0.90880 0.34400 -0.00200
C 	C 	0.75110 0.87810 0.42448 0.10800
C 	C 	0.76753 0.83252 0.36220 0.05200
H 	H 	0.75680 0.83350 0.35210 0.00300
C 	C 	0.77894 0.81521 0.36274 -0.09600
H 	H 	0.77670 0.80450 0.35280 0.06600
C 	C 	0.79439 0.81295 0.37821 0.00500
H 	H 	0.80240 0.80060 0.37930 0.03900
C 	C 	0.79744 0.82958 0.39173 -0.05300
C 	C 	0.78479 0.84696 0.38995 0.04600
H 	H 	0.78660 0.85790 0.39970 0.01100
C 	C 	0.81323 0.82861 0.40793 0.13300
N 	N 	0.65997 0.88510 0.48439 -0.22400
N 	N 	0.60465 0.02309 0.38675 -0.26000
N 	N 	0.62328 0.98243 0.39932 -0.22900
N 	N 	0.65943 0.92908 0.43691 -0.15500
N 	N 	0.67023 0.93858 0.40342 -0.15300
N 	N 	0.68849 0.91246 0.42226 -0.15200
N 	N 	0.72512 0.89926 0.37173 -0.23400
N 	N 	0.77033 0.84916 0.37548 -0.22600
N 	N 	0.74898 0.87707 0.40703 -0.26700
N 	N 	0.81313 0.84343 0.42249 -0.15000
S 	S 	0.57743 0.04017 0.41565 -0.06300
S 	S 	0.75359 0.87921 0.45025 -0.06100
C 	C 	0.66010 0.39834 0.96822 0.03800
H 	H 	0.64760 0.40570 0.96510 0.01300
C 	C 	0.67727 0.40189 0.95583 -0.05200
C 	C 	0.69563 0.39183 0.96049 0.01000
H 	H 	0.70760 0.39340 0.95190 0.03700
C 	C 	0.69617 0.37938 0.97798 -0.10000
H 	H 	0.70890 0.37330 0.98240 0.06600
C 	C 	0.67829 0.37578 0.98901 0.05900
H 	H 	0.67880 0.36630 0.00040 0.00100
C 	C 	0.59342 0.53100 0.89849 0.09800
C 	C 	0.60933 0.48327 0.91484 0.06500
H 	H 	0.59880 0.49360 0.91400 -0.00300
C 	C 	0.60923 0.47041 0.93170 -0.10700
H 	H 	0.59850 0.47130 0.94180 0.06800
C 	C 	0.62505 0.45611 0.93376 0.01400
H 	H 	0.62550 0.44690 0.94530 0.03500
C 	C 	0.64046 0.45546 0.91846 -0.05500
C 	C 	0.63885 0.46885 0.90199 0.04300
H 	H 	0.64950 0.46850 0.89180 0.01300
C 	C 	0.65793 0.44017 0.91996 0.14200
C 	C 	0.68522 0.42430 0.90497 0.13600
C 	C 	0.67526 0.41537 0.93747 0.13900
C 	C 	0.71236 0.40341 0.88717 0.04800
H 	H 	0.71260 0.39460 0.89900 0.00900
C 	C 	0.69823 0.42038 0.88702 -0.05800
C 	C 	0.69724 0.43212 0.86914 0.01800
H 	H 	0.68770 0.44330 0.86810 0.03500
C 	C 	0.71019 0.42751 0.85276 -0.11000
H 	H 	0.70960 0.43520 0.84020 0.07100
C 	C 	0.72413 0.41138 0.85507 0.06900
H 	H 	0.73360 0.40880 0.84400 -0.00200
C 	C 	0.75110 0.37810 0.92448 0.10800
C 	C 	0.76753 0.33252 0.86220 0.05200
H 	H 	0.75680 0.33350 0.85210 0.00300
C 	C 	0.77894 0.31521 0.86274 -0.09600
H 	H 	0.77670 0.30450 0.85280 0.06600
C 	C 	0.79439 0.31295 0.87821 0.00500
H 	H 	0.80240 0.30060 0.87930 0.03900
C 	C 	0.79744 0.32958 0.89173 -0.05300
C 	C 	0.78479 0.34696 0.88995 0.04600
H 	H 	0.78660 0.35790 0.89970 0.01100
C 	C 	0.81323 0.32861 0.90793 0.13300
N 	N 	0.65997 0.38510 0.98439 -0.22400
N 	N 	0.60465 0.52309 0.88675 -0.26000
N 	N 	0.62328 0.48243 0.89932 -0.22900
N 	N 	0.65943 0.42908 0.93691 -0.15500
N 	N 	0.67023 0.43858 0.90342 -0.15300
N 	N 	0.68849 0.41246 0.92226 -0.15200
N 	N 	0.72512 0.39926 0.87173 -0.23400
N 	N 	0.77033 0.34916 0.87548 -0.22600
N 	N 	0.74898 0.37707 0.90703 -0.26700
N 	N 	0.81313 0.34343 0.92249 -0.15000
S 	S 	0.57743 0.54017 0.91565 -0.06300
S 	S 	0.75359 0.37921 0.95025 -0.06100
C 	C 	0.16010 0.89834 0.96822 0.03800
H 	H 	0.14760 0.90570 0.96510 0.01300
C 	C 	0.17727 0.90189 0.95583 -0.05200
C 	C 	0.19563 0.89183 0.96049 0.01000
H 	H 	0.20760 0.89340 0.95190 0.03700
C 	C 	0.19617 0.87938 0.97798 -0.10000
H 	H 	0.20890 0.87330 0.98240 0.06600
C 	C 	0.17829 0.87578 0.98901 0.05900
H 	H 	0.17880 0.86630 0.00040 0.00100
C 	C 	0.09342 0.03100 0.89849 0.09800
C 	C 	0.10933 0.98327 0.91484 0.06500
H 	H 	0.09880 0.99360 0.91400 -0.00300
C 	C 	0.10923 0.97041 0.93170 -0.10700
H 	H 	0.09850 0.97130 0.94180 0.06800
C 	C 	0.12505 0.95611 0.93376 0.01400
H 	H 	0.12550 0.94690 0.94530 0.03600
C 	C 	0.14046 0.95546 0.91846 -0.05500
C 	C 	0.13885 0.96885 0.90199 0.04300
H 	H 	0.14950 0.96850 0.89180 0.01300
C 	C 	0.15793 0.94017 0.91996 0.14200
C 	C 	0.18522 0.92430 0.90497 0.13600
C 	C 	0.17526 0.91537 0.93747 0.13900
C 	C 	0.21236 0.90341 0.88717 0.04800
H 	H 	0.21260 0.89460 0.89900 0.00900
C 	C 	0.19823 0.92038 0.88702 -0.05800
C 	C 	0.19724 0.93212 0.86914 0.01800
H 	H 	0.18770 0.94330 0.86810 0.03500
C 	C 	0.21019 0.92751 0.85276 -0.11000
H 	H 	0.20960 0.93520 0.84020 0.07100
C 	C 	0.22413 0.91138 0.85507 0.06900
H 	H 	0.23360 0.90880 0.84400 -0.00200
C 	C 	0.25110 0.87810 0.92448 0.10800
C 	C 	0.26753 0.83252 0.86220 0.05200
H 	H 	0.25680 0.83350 0.85210 0.00300
C 	C 	0.27894 0.81521 0.86274 -0.09600
H 	H 	0.27670 0.80450 0.85280 0.06600
C 	C 	0.29439 0.81295 0.87821 0.00500
H 	H 	0.30240 0.80060 0.87930 0.03900
C 	C 	0.29744 0.82958 0.89173 -0.05300
C 	C 	0.28479 0.84696 0.88995 0.04600
H 	H 	0.28660 0.85790 0.89970 0.01100
C 	C 	0.31323 0.82861 0.90793 0.13300
N 	N 	0.15997 0.88510 0.98439 -0.22400
N 	N 	0.10465 0.02309 0.88675 -0.26000
N 	N 	0.12328 0.98243 0.89932 -0.22900
N 	N 	0.15943 0.92908 0.93691 -0.15500
N 	N 	0.17023 0.93858 0.90342 -0.15300
N 	N 	0.18849 0.91246 0.92226 -0.15200
N 	N 	0.22512 0.89926 0.87173 -0.23400
N 	N 	0.27033 0.84916 0.87548 -0.22600
N 	N 	0.24898 0.87707 0.90703 -0.26700
N 	N 	0.31313 0.84343 0.92249 -0.15000
S 	S 	0.07743 0.04017 0.91565 -0.06300
S 	S 	0.25359 0.87921 0.95025 -0.06100
C 	C 	0.16010 0.39834 0.46822 0.03700
H 	H 	0.14760 0.40570 0.46510 0.01300
C 	C 	0.17727 0.40189 0.45583 -0.05200
C 	C 	0.19563 0.39183 0.46049 0.01000
H 	H 	0.20760 0.39340 0.45190 0.03700
C 	C 	0.19617 0.37938 0.47798 -0.10000
H 	H 	0.20890 0.37330 0.48240 0.06600
C 	C 	0.17829 0.37578 0.48901 0.05800
H 	H 	0.17880 0.36630 0.50040 0.00100
C 	C 	0.09342 0.53100 0.39849 0.09800
C 	C 	0.10933 0.48327 0.41484 0.06500
H 	H 	0.09880 0.49360 0.41400 -0.00300
C 	C 	0.10923 0.47041 0.43170 -0.10700
H 	H 	0.09850 0.47130 0.44180 0.06800
C 	C 	0.12505 0.45611 0.43376 0.01400
H 	H 	0.12550 0.44690 0.44530 0.03500
C 	C 	0.14046 0.45546 0.41846 -0.05500
C 	C 	0.13885 0.46885 0.40199 0.04300
H 	H 	0.14950 0.46850 0.39180 0.01300
C 	C 	0.15793 0.44017 0.41996 0.14200
C 	C 	0.18522 0.42430 0.40497 0.13600
C 	C 	0.17526 0.41537 0.43747 0.13900
C 	C 	0.21236 0.40341 0.38717 0.04800
H 	H 	0.21260 0.39460 0.39900 0.00900
C 	C 	0.19823 0.42038 0.38702 -0.05800
C 	C 	0.19724 0.43212 0.36914 0.01800
H 	H 	0.18770 0.44330 0.36810 0.03500
C 	C 	0.21019 0.42751 0.35276 -0.11000
H 	H 	0.20960 0.43520 0.34020 0.07100
C 	C 	0.22413 0.41138 0.35507 0.06900
H 	H 	0.23360 0.40880 0.34400 -0.00200
C 	C 	0.25110 0.37810 0.42448 0.10800
C 	C 	0.26753 0.33252 0.36220 0.05200
H 	H 	0.25680 0.33350 0.35210 0.00300
C 	C 	0.27894 0.31521 0.36274 -0.09600
H 	H 	0.27670 0.30450 0.35280 0.06600
C 	C 	0.29439 0.31295 0.37821 0.00500
H 	H 	0.30240 0.30060 0.37930 0.03900
C 	C 	0.29744 0.32958 0.39173 -0.05300
C 	C 	0.28479 0.34696 0.38995 0.04600
H 	H 	0.28660 0.35790 0.39970 0.01100
C 	C 	0.31323 0.32861 0.40793 0.13300
N 	N 	0.15997 0.38510 0.48439 -0.22400
N 	N 	0.10465 0.52309 0.38675 -0.26000
N 	N 	0.12328 0.48243 0.39932 -0.22900
N 	N 	0.15943 0.42908 0.43691 -0.15500
N 	N 	0.17023 0.43858 0.40342 -0.15300
N 	N 	0.18849 0.41246 0.42226 -0.15200
N 	N 	0.22512 0.39926 0.37173 -0.23400
N 	N 	0.27033 0.34916 0.37548 -0.22600
N 	N 	0.24898 0.37707 0.40703 -0.26700
N 	N 	0.31313 0.34343 0.42249 -0.15000
S 	S 	0.07743 0.54017 0.41565 -0.06300
S 	S 	0.25359 0.37921 0.45025 -0.06100
C 	C 	0.58990 0.39834 0.28178 0.03700
H 	H 	0.60240 0.40570 0.28490 0.01300
C 	C 	0.57273 0.40189 0.29417 -0.05200
C 	C 	0.55437 0.39183 0.28951 0.01000
H 	H 	0.54240 0.39340 0.29810 0.03700
C 	C 	0.55383 0.37938 0.27202 -0.10000
H 	H 	0.54110 0.37330 0.26760 0.06600
C 	C 	0.57171 0.37578 0.26099 0.05800
H 	H 	0.57120 0.36630 0.24960 0.00100
C 	C 	0.65658 0.53100 0.35151 0.09800
C 	C 	0.64067 0.48327 0.33516 0.06500
H 	H 	0.65120 0.49360 0.33600 -0.00300
C 	C 	0.64077 0.47041 0.31830 -0.10700
H 	H 	0.65150 0.47130 0.30820 0.06800
C 	C 	0.62495 0.45611 0.31624 0.01400
H 	H 	0.62450 0.44690 0.30470 0.03500
C 	C 	0.60954 0.45546 0.33154 -0.05500
C 	C 	0.61115 0.46885 0.34801 0.04300
H 	H 	0.60050 0.46850 0.35820 0.01300
C 	C 	0.59207 0.44017 0.33004 0.14200
C 	C 	0.56478 0.42430 0.34503 0.13600
C 	C 	0.57474 0.41537 0.31253 0.13900
C 	C 	0.53764 0.40341 0.36283 0.04800
H 	H 	0.53740 0.39460 0.35100 0.00900
C 	C 	0.55177 0.42038 0.36298 -0.05800
C 	C 	0.55276 0.43212 0.38086 0.01800
H 	H 	0.56230 0.44330 0.38190 0.03500
C 	C 	0.53981 0.42751 0.39724 -0.11000
H 	H 	0.54040 0.43520 0.40980 0.07100
C 	C 	0.52587 0.41138 0.39493 0.06900
H 	H 	0.51640 0.40880 0.40600 -0.00200
C 	C 	0.49890 0.37810 0.32552 0.10800
C 	C 	0.48247 0.33252 0.38780 0.05200
H 	H 	0.49320 0.33350 0.39790 0.00300
C 	C 	0.47106 0.31521 0.38726 -0.09600
H 	H 	0.47330 0.30450 0.39720 0.06600
C 	C 	0.45561 0.31295 0.37179 0.00500
H 	H 	0.44760 0.30060 0.37070 0.03900
C 	C 	0.45256 0.32958 0.35827 -0.05300
C 	C 	0.46521 0.34696 0.36005 0.04600
H 	H 	0.46340 0.35790 0.35030 0.01100
C 	C 	0.43677 0.32861 0.34207 0.13300
N 	N 	0.59003 0.38510 0.26561 -0.22400
N 	N 	0.64535 0.52309 0.36325 -0.26000
N 	N 	0.62672 0.48243 0.35068 -0.22900
N 	N 	0.59057 0.42908 0.31309 -0.15500
N 	N 	0.57977 0.43858 0.34658 -0.15300
N 	N 	0.56151 0.41246 0.32774 -0.15200
N 	N 	0.52488 0.39926 0.37827 -0.23400
N 	N 	0.47967 0.34916 0.37452 -0.22600
N 	N 	0.50102 0.37707 0.34297 -0.26700
N 	N 	0.43687 0.34343 0.32751 -0.15000
S 	S 	0.67257 0.54017 0.33435 -0.06300
S 	S 	0.49641 0.37921 0.29975 -0.06100
C 	C 	0.58990 0.89834 0.78178 0.03700
H 	H 	0.60240 0.90570 0.78490 0.01300
C 	C 	0.57273 0.90189 0.79417 -0.05200
C 	C 	0.55437 0.89183 0.78951 0.01000
H 	H 	0.54240 0.89340 0.79810 0.03700
C 	C 	0.55383 0.87938 0.77202 -0.10000
H 	H 	0.54110 0.87330 0.76760 0.06600
C 	C 	0.57171 0.87578 0.76099 0.05800
H 	H 	0.57120 0.86630 0.74960 0.00100
C 	C 	0.65658 0.03100 0.85151 0.09800
C 	C 	0.64067 0.98327 0.83516 0.06500
H 	H 	0.65120 0.99360 0.83600 -0.00300
C 	C 	0.64077 0.97041 0.81830 -0.10700
H 	H 	0.65150 0.97130 0.80820 0.06800
C 	C 	0.62495 0.95611 0.81624 0.01400
H 	H 	0.62450 0.94690 0.80470 0.03500
C 	C 	0.60954 0.95546 0.83154 -0.05500
C 	C 	0.61115 0.96885 0.84801 0.04300
H 	H 	0.60050 0.96850 0.85820 0.01300
C 	C 	0.59207 0.94017 0.83004 0.14200
C 	C 	0.56478 0.92430 0.84503 0.13600
C 	C 	0.57474 0.91537 0.81253 0.13900
C 	C 	0.53764 0.90341 0.86283 0.04800
H 	H 	0.53740 0.89460 0.85100 0.00900
C 	C 	0.55177 0.92038 0.86298 -0.05800
C 	C 	0.55276 0.93212 0.88086 0.01800
H 	H 	0.56230 0.94330 0.88190 0.03500
C 	C 	0.53981 0.92751 0.89724 -0.11000
H 	H 	0.54040 0.93520 0.90980 0.07100
C 	C 	0.52587 0.91138 0.89493 0.06900
H 	H 	0.51640 0.90880 0.90600 -0.00200
C 	C 	0.49890 0.87810 0.82552 0.10800
C 	C 	0.48247 0.83252 0.88780 0.05200
H 	H 	0.49320 0.83350 0.89790 0.00300
C 	C 	0.47106 0.81521 0.88726 -0.09600
H 	H 	0.47330 0.80450 0.89720 0.06600
C 	C 	0.45561 0.81295 0.87179 0.00500
H 	H 	0.44760 0.80060 0.87070 0.03900
C 	C 	0.45256 0.82958 0.85827 -0.05300
C 	C 	0.46521 0.84696 0.86005 0.04600
H 	H 	0.46340 0.85790 0.85030 0.01100
C 	C 	0.43677 0.82861 0.84207 0.13300
N 	N 	0.59003 0.88510 0.76561 -0.22400
N 	N 	0.64535 0.02309 0.86325 -0.26000
N 	N 	0.62672 0.98243 0.85068 -0.22900
N 	N 	0.59057 0.92908 0.81309 -0.15500
N 	N 	0.57977 0.93858 0.84658 -0.15300
N 	N 	0.56151 0.91246 0.82774 -0.15200
N 	N 	0.52488 0.89926 0.87827 -0.23400
N 	N 	0.47967 0.84916 0.87452 -0.22600
N 	N 	0.50102 0.87707 0.84297 -0.26700
N 	N 	0.43687 0.84343 0.82751 -0.15000
S 	S 	0.67257 0.04017 0.83435 -0.06300
S 	S 	0.49641 0.87921 0.79975 -0.06100
C 	C 	0.08990 0.39834 0.78178 0.03700
H 	H 	0.10240 0.40570 0.78490 0.01300
C 	C 	0.07273 0.40189 0.79417 -0.05200
C 	C 	0.05437 0.39183 0.78951 0.01000
H 	H 	0.04240 0.39340 0.79810 0.03700
C 	C 	0.05383 0.37938 0.77202 -0.10000
H 	H 	0.04110 0.37330 0.76760 0.06600
C 	C 	0.07171 0.37578 0.76099 0.05800
H 	H 	0.07120 0.36630 0.74960 0.00100
C 	C 	0.15658 0.53100 0.85151 0.09800
C 	C 	0.14067 0.48327 0.83516 0.06500
H 	H 	0.15120 0.49360 0.83600 -0.00300
C 	C 	0.14077 0.47041 0.81830 -0.10700
H 	H 	0.15150 0.47130 0.80820 0.06800
C 	C 	0.12495 0.45611 0.81624 0.01400
H 	H 	0.12450 0.44690 0.80470 0.03500
C 	C 	0.10954 0.45546 0.83154 -0.05500
C 	C 	0.11115 0.46885 0.84801 0.04300
H 	H 	0.10050 0.46850 0.85820 0.01300
C 	C 	0.09207 0.44017 0.83004 0.14200
C 	C 	0.06478 0.42430 0.84503 0.13600
C 	C 	0.07474 0.41537 0.81253 0.13900
C 	C 	0.03764 0.40341 0.86283 0.04800
H 	H 	0.03740 0.39460 0.85100 0.00900
C 	C 	0.05177 0.42038 0.86298 -0.05800
C 	C 	0.05276 0.43212 0.88086 0.01800
H 	H 	0.06230 0.44330 0.88190 0.03500
C 	C 	0.03981 0.42751 0.89724 -0.11000
H 	H 	0.04040 0.43520 0.90980 0.07100
C 	C 	0.02587 0.41138 0.89493 0.06900
H 	H 	0.01640 0.40880 0.90600 -0.00200
C 	C 	0.99890 0.37810 0.82552 0.10800
C 	C 	0.98247 0.33252 0.88780 0.05200
H 	H 	0.99320 0.33350 0.89790 0.00300
C 	C 	0.97106 0.31521 0.88726 -0.09600
H 	H 	0.97330 0.30450 0.89720 0.06600
C 	C 	0.95561 0.31295 0.87179 0.00500
H 	H 	0.94760 0.30060 0.87070 0.03900
C 	C 	0.95256 0.32958 0.85827 -0.05300
C 	C 	0.96521 0.34696 0.86005 0.04600
H 	H 	0.96340 0.35790 0.85030 0.01100
C 	C 	0.93677 0.32861 0.84207 0.13300
N 	N 	0.09003 0.38510 0.76561 -0.22400
N 	N 	0.14535 0.52309 0.86325 -0.26000
N 	N 	0.12672 0.48243 0.85068 -0.22900
N 	N 	0.09057 0.42908 0.81309 -0.15500
N 	N 	0.07977 0.43858 0.84658 -0.15300
N 	N 	0.06151 0.41246 0.82774 -0.15200
N 	N 	0.02488 0.39926 0.87827 -0.23400
N 	N 	0.97967 0.34916 0.87452 -0.22600
N 	N 	0.00102 0.37707 0.84297 -0.26700
N 	N 	0.93687 0.34343 0.82751 -0.15000
S 	S 	0.17257 0.54017 0.83435 -0.06300
S 	S 	0.99641 0.37921 0.79975 -0.06100
C 	C 	0.08990 0.89834 0.28178 0.03700
H 	H 	0.10240 0.90570 0.28490 0.01300
C 	C 	0.07273 0.90189 0.29417 -0.05200
C 	C 	0.05437 0.89183 0.28951 0.01000
H 	H 	0.04240 0.89340 0.29810 0.03700
C 	C 	0.05383 0.87938 0.27202 -0.10000
H 	H 	0.04110 0.87330 0.26760 0.06600
C 	C 	0.07171 0.87578 0.26099 0.05800
H 	H 	0.07120 0.86630 0.24960 0.00100
C 	C 	0.15658 0.03100 0.35151 0.09800
C 	C 	0.14067 0.98327 0.33516 0.06500
H 	H 	0.15120 0.99360 0.33600 -0.00300
C 	C 	0.14077 0.97041 0.31830 -0.10700
H 	H 	0.15150 0.97130 0.30820 0.06800
C 	C 	0.12495 0.95611 0.31624 0.01400
H 	H 	0.12450 0.94690 0.30470 0.03500
C 	C 	0.10954 0.95546 0.33154 -0.05500
C 	C 	0.11115 0.96885 0.34801 0.04300
H 	H 	0.10050 0.96850 0.35820 0.01300
C 	C 	0.09207 0.94017 0.33004 0.14200
C 	C 	0.06478 0.92430 0.34503 0.13600
C 	C 	0.07474 0.91537 0.31253 0.13900
C 	C 	0.03764 0.90341 0.36283 0.04800
H 	H 	0.03740 0.89460 0.35100 0.00900
C 	C 	0.05177 0.92038 0.36298 -0.05800
C 	C 	0.05276 0.93212 0.38086 0.01800
H 	H 	0.06230 0.94330 0.38190 0.03500
C 	C 	0.03981 0.92751 0.39724 -0.11000
H 	H 	0.04040 0.93520 0.40980 0.07100
C 	C 	0.02587 0.91138 0.39493 0.06900
H 	H 	0.01640 0.90880 0.40600 -0.00200
C 	C 	0.99890 0.87810 0.32552 0.10800
C 	C 	0.98247 0.83252 0.38780 0.05200
H 	H 	0.99320 0.83350 0.39790 0.00300
C 	C 	0.97106 0.81521 0.38726 -0.09600
H 	H 	0.97330 0.80450 0.39720 0.06600
C 	C 	0.95561 0.81295 0.37179 0.00500
H 	H 	0.94760 0.80060 0.37070 0.03900
C 	C 	0.95256 0.82958 0.35827 -0.05300
C 	C 	0.96521 0.84696 0.36005 0.04600
H 	H 	0.96340 0.85790 0.35030 0.01100
C 	C 	0.93677 0.82861 0.34207 0.13300
N 	N 	0.09003 0.88510 0.26561 -0.22400
N 	N 	0.14535 0.02309 0.36325 -0.26000
N 	N 	0.12672 0.98243 0.35068 -0.22900
N 	N 	0.09057 0.92908 0.31309 -0.15500
N 	N 	0.07977 0.93858 0.34658 -0.15300
N 	N 	0.06151 0.91246 0.32774 -0.15200
N 	N 	0.02488 0.89926 0.37827 -0.23400
N 	N 	0.97967 0.84916 0.37452 -0.22600
N 	N 	0.00102 0.87707 0.34297 -0.26700
N 	N 	0.93687 0.84343 0.32751 -0.15000
S 	S 	0.17257 0.04017 0.33435 -0.06300
S 	S 	0.99641 0.87921 0.29975 -0.06100
C 	C 	0.16010 0.85166 0.78178 0.03700
H 	H 	0.14760 0.84430 0.78490 0.01300
C 	C 	0.17727 0.84811 0.79417 -0.05200
C 	C 	0.19563 0.85817 0.78951 0.01000
H 	H 	0.20760 0.85660 0.79810 0.03700
C 	C 	0.19617 0.87062 0.77202 -0.10000
H 	H 	0.20890 0.87670 0.76760 0.06600
C 	C 	0.17829 0.87422 0.76099 0.05800
H 	H 	0.17880 0.88370 0.74960 0.00100
C 	C 	0.09342 0.71900 0.85151 0.09800
C 	C 	0.10933 0.76673 0.83516 0.06500
H 	H 	0.09880 0.75640 0.83600 -0.00300
C 	C 	0.10923 0.77959 0.81830 -0.10700
H 	H 	0.09850 0.77870 0.80820 0.06800
C 	C 	0.12505 0.79389 0.81624 0.01400
H 	H 	0.12550 0.80310 0.80470 0.03500
C 	C 	0.14046 0.79454 0.83154 -0.05500
C 	C 	0.13885 0.78115 0.84801 0.04300
H 	H 	0.14950 0.78150 0.85820 0.01300
C 	C 	0.15793 0.80983 0.83004 0.14200
C 	C 	0.18522 0.82570 0.84503 0.13600
C 	C 	0.17526 0.83463 0.81253 0.13900
C 	C 	0.21236 0.84659 0.86283 0.04800
H 	H 	0.21260 0.85540 0.85100 0.00900
C 	C 	0.19823 0.82962 0.86298 -0.05800
C 	C 	0.19724 0.81788 0.88086 0.01800
H 	H 	0.18770 0.80670 0.88190 0.03500
C 	C 	0.21019 0.82249 0.89724 -0.11000
H 	H 	0.20960 0.81480 0.90980 0.07100
C 	C 	0.22413 0.83862 0.89493 0.06900
H 	H 	0.23360 0.84120 0.90600 -0.00200
C 	C 	0.25110 0.87190 0.82552 0.10800
C 	C 	0.26753 0.91748 0.88780 0.05200
H 	H 	0.25680 0.91650 0.89790 0.00300
C 	C 	0.27894 0.93479 0.88726 -0.09600
H 	H 	0.27670 0.94550 0.89720 0.06600
C 	C 	0.29439 0.93705 0.87179 0.00500
H 	H 	0.30240 0.94940 0.87070 0.03900
C 	C 	0.29744 0.92042 0.85827 -0.05300
C 	C 	0.28479 0.90304 0.86005 0.04600
H 	H 	0.28660 0.89210 0.85030 0.01100
C 	C 	0.31323 0.92139 0.84207 0.13300
N 	N 	0.15997 0.86490 0.76561 -0.22400
N 	N 	0.10465 0.72691 0.86325 -0.26000
N 	N 	0.12328 0.76757 0.85068 -0.22900
N 	N 	0.15943 0.82092 0.81309 -0.15500
N 	N 	0.17023 0.81142 0.84658 -0.15300
N 	N 	0.18849 0.83754 0.82774 -0.15200
N 	N 	0.22512 0.85074 0.87827 -0.23400
N 	N 	0.27033 0.90084 0.87452 -0.22600
N 	N 	0.24898 0.87293 0.84297 -0.26700
N 	N 	0.31313 0.90657 0.82751 -0.15000
S 	S 	0.07743 0.70983 0.83435 -0.06300
S 	S 	0.25359 0.87079 0.79975 -0.06100
C 	C 	0.16010 0.35166 0.28178 0.03700
H 	H 	0.14760 0.34430 0.28490 0.01300
C 	C 	0.17727 0.34811 0.29417 -0.05200
C 	C 	0.19563 0.35817 0.28951 0.01000
H 	H 	0.20760 0.35660 0.29810 0.03700
C 	C 	0.19617 0.37062 0.27202 -0.10000
H 	H 	0.20890 0.37670 0.26760 0.06600
C 	C 	0.17829 0.37422 0.26099 0.05800
H 	H 	0.17880 0.38370 0.24960 0.00100
C 	C 	0.09342 0.21900 0.35151 0.09800
C 	C 	0.10933 0.26673 0.33516 0.06500
H 	H 	0.09880 0.25640 0.33600 -0.00300
C 	C 	0.10923 0.27959 0.31830 -0.10700
H 	H 	0.09850 0.27870 0.30820 0.06800
C 	C 	0.12505 0.29389 0.31624 0.01400
H 	H 	0.12550 0.30310 0.30470 0.03500
C 	C 	0.14046 0.29454 0.33154 -0.05500
C 	C 	0.13885 0.28115 0.34801 0.04300
H 	H 	0.14950 0.28150 0.35820 0.01300
C 	C 	0.15793 0.30983 0.33004 0.14200
C 	C 	0.18522 0.32570 0.34503 0.13600
C 	C 	0.17526 0.33463 0.31253 0.13900
C 	C 	0.21236 0.34659 0.36283 0.04800
H 	H 	0.21260 0.35540 0.35100 0.00900
C 	C 	0.19823 0.32962 0.36298 -0.05800
C 	C 	0.19724 0.31788 0.38086 0.01800
H 	H 	0.18770 0.30670 0.38190 0.03500
C 	C 	0.21019 0.32249 0.39724 -0.11000
H 	H 	0.20960 0.31480 0.40980 0.07100
C 	C 	0.22413 0.33862 0.39493 0.06900
H 	H 	0.23360 0.34120 0.40600 -0.00200
C 	C 	0.25110 0.37190 0.32552 0.10800
C 	C 	0.26753 0.41748 0.38780 0.05200
H 	H 	0.25680 0.41650 0.39790 0.00300
C 	C 	0.27894 0.43479 0.38726 -0.09600
H 	H 	0.27670 0.44550 0.39720 0.06600
C 	C 	0.29439 0.43705 0.37179 0.00500
H 	H 	0.30240 0.44940 0.37070 0.03900
C 	C 	0.29744 0.42042 0.35827 -0.05300
C 	C 	0.28479 0.40304 0.36005 0.04600
H 	H 	0.28660 0.39210 0.35030 0.01100
C 	C 	0.31323 0.42139 0.34207 0.13300
N 	N 	0.15997 0.36490 0.26561 -0.22400
N 	N 	0.10465 0.22691 0.36325 -0.26000
N 	N 	0.12328 0.26757 0.35068 -0.22900
N 	N 	0.15943 0.32092 0.31309 -0.15500
N 	N 	0.17023 0.31142 0.34658 -0.15300
N 	N 	0.18849 0.33754 0.32774 -0.15200
N 	N 	0.22512 0.35074 0.37827 -0.23400
N 	N 	0.27033 0.40084 0.37452 -0.22600
N 	N 	0.24898 0.37293 0.34297 -0.26700
N 	N 	0.31313 0.40657 0.32751 -0.15000
S 	S 	0.07743 0.20983 0.33435 -0.06300
S 	S 	0.25359 0.37079 0.29975 -0.06100
C 	C 	0.66010 0.85166 0.28178 0.03700
H 	H 	0.64760 0.84430 0.28490 0.01300
C 	C 	0.67727 0.84811 0.29417 -0.05200
C 	C 	0.69563 0.85817 0.28951 0.01000
H 	H 	0.70760 0.85660 0.29810 0.03700
C 	C 	0.69617 0.87062 0.27202 -0.10000
H 	H 	0.70890 0.87670 0.26760 0.06600
C 	C 	0.67829 0.87422 0.26099 0.05800
H 	H 	0.67880 0.88370 0.24960 0.00100
C 	C 	0.59342 0.71900 0.35151 0.09800
C 	C 	0.60933 0.76673 0.33516 0.06500
H 	H 	0.59880 0.75640 0.33600 -0.00300
C 	C 	0.60923 0.77959 0.31830 -0.10700
H 	H 	0.59850 0.77870 0.30820 0.06800
C 	C 	0.62505 0.79389 0.31624 0.01400
H 	H 	0.62550 0.80310 0.30470 0.03500
C 	C 	0.64046 0.79454 0.33154 -0.05500
C 	C 	0.63885 0.78115 0.34801 0.04300
H 	H 	0.64950 0.78150 0.35820 0.01300
C 	C 	0.65793 0.80983 0.33004 0.14200
C 	C 	0.68522 0.82570 0.34503 0.13600
C 	C 	0.67526 0.83463 0.31253 0.13900
C 	C 	0.71236 0.84659 0.36283 0.04800
H 	H 	0.71260 0.85540 0.35100 0.00900
C 	C 	0.69823 0.82962 0.36298 -0.05800
C 	C 	0.69724 0.81788 0.38086 0.01800
H 	H 	0.68770 0.80670 0.38190 0.03500
C 	C 	0.71019 0.82249 0.39724 -0.11000
H 	H 	0.70960 0.81480 0.40980 0.07100
C 	C 	0.72413 0.83862 0.39493 0.06900
H 	H 	0.73360 0.84120 0.40600 -0.00200
C 	C 	0.75110 0.87190 0.32552 0.10800
C 	C 	0.76753 0.91748 0.38780 0.05200
H 	H 	0.75680 0.91650 0.39790 0.00300
C 	C 	0.77894 0.93479 0.38726 -0.09600
H 	H 	0.77670 0.94550 0.39720 0.06600
C 	C 	0.79439 0.93705 0.37179 0.00500
H 	H 	0.80240 0.94940 0.37070 0.03900
C 	C 	0.79744 0.92042 0.35827 -0.05300
C 	C 	0.78479 0.90304 0.36005 0.04600
H 	H 	0.78660 0.89210 0.35030 0.01100
C 	C 	0.81323 0.92139 0.34207 0.13300
N 	N 	0.65997 0.86490 0.26561 -0.22400
N 	N 	0.60465 0.72691 0.36325 -0.26000
N 	N 	0.62328 0.76757 0.35068 -0.22900
N 	N 	0.65943 0.82092 0.31309 -0.15500
N 	N 	0.67023 0.81142 0.34658 -0.15300
N 	N 	0.68849 0.83754 0.32774 -0.15200
N 	N 	0.72512 0.85074 0.37827 -0.23400
N 	N 	0.77033 0.90084 0.37452 -0.22600
N 	N 	0.74898 0.87293 0.34297 -0.26700
N 	N 	0.81313 0.90657 0.32751 -0.15000
S 	S 	0.57743 0.70983 0.33435 -0.06300
S 	S 	0.75359 0.87079 0.29975 -0.06100
C 	C 	0.66010 0.35166 0.78178 0.03700
H 	H 	0.64760 0.34430 0.78490 0.01300
C 	C 	0.67727 0.34811 0.79417 -0.05200
C 	C 	0.69563 0.35817 0.78951 0.01000
H 	H 	0.70760 0.35660 0.79810 0.03700
C 	C 	0.69617 0.37062 0.77202 -0.10000
H 	H 	0.70890 0.37670 0.76760 0.06600
C 	C 	0.67829 0.37422 0.76099 0.05800
H 	H 	0.67880 0.38370 0.74960 0.00100
C 	C 	0.59342 0.21900 0.85151 0.09800
C 	C 	0.60933 0.26673 0.83516 0.06500
H 	H 	0.59880 0.25640 0.83600 -0.00300
C 	C 	0.60923 0.27959 0.81830 -0.10700
H 	H 	0.59850 0.27870 0.80820 0.06800
C 	C 	0.62505 0.29389 0.81624 0.01400
H 	H 	0.62550 0.30310 0.80470 0.03500
C 	C 	0.64046 0.29454 0.83154 -0.05500
C 	C 	0.63885 0.28115 0.84801 0.04300
H 	H 	0.64950 0.28150 0.85820 0.01300
C 	C 	0.65793 0.30983 0.83004 0.14200
C 	C 	0.68522 0.32570 0.84503 0.13600
C 	C 	0.67526 0.33463 0.81253 0.13900
C 	C 	0.71236 0.34659 0.86283 0.04800
H 	H 	0.71260 0.35540 0.85100 0.00900
C 	C 	0.69823 0.32962 0.86298 -0.05800
C 	C 	0.69724 0.31788 0.88086 0.01800
H 	H 	0.68770 0.30670 0.88190 0.03500
C 	C 	0.71019 0.32249 0.89724 -0.11000
H 	H 	0.70960 0.31480 0.90980 0.07100
C 	C 	0.72413 0.33862 0.89493 0.06900
H 	H 	0.73360 0.34120 0.90600 -0.00200
C 	C 	0.75110 0.37190 0.82552 0.10800
C 	C 	0.76753 0.41748 0.88780 0.05200
H 	H 	0.75680 0.41650 0.89790 0.00300
C 	C 	0.77894 0.43479 0.88726 -0.09600
H 	H 	0.77670 0.44550 0.89720 0.06600
C 	C 	0.79439 0.43705 0.87179 0.00500
H 	H 	0.80240 0.44940 0.87070 0.03900
C 	C 	0.79744 0.42042 0.85827 -0.05300
C 	C 	0.78479 0.40304 0.86005 0.04600
H 	H 	0.78660 0.39210 0.85030 0.01100
C 	C 	0.81323 0.42139 0.84207 0.13300
N 	N 	0.65997 0.36490 0.76561 -0.22400
N 	N 	0.60465 0.22691 0.86325 -0.26000
N 	N 	0.62328 0.26757 0.85068 -0.22900
N 	N 	0.65943 0.32092 0.81309 -0.15500
N 	N 	0.67023 0.31142 0.84658 -0.15300
N 	N 	0.68849 0.33754 0.82774 -0.15200
N 	N 	0.72512 0.35074 0.87827 -0.23400
N 	N 	0.77033 0.40084 0.87452 -0.22600
N 	N 	0.74898 0.37293 0.84297 -0.26700
N 	N 	0.81313 0.40657 0.82751 -0.15000
S 	S 	0.57743 0.20983 0.83435 -0.06300
S 	S 	0.75359 0.37079 0.79975 -0.06100
C 	C 	0.08990 0.35166 0.96822 0.03800
H 	H 	0.10240 0.34430 0.96510 0.01300
C 	C 	0.07273 0.34811 0.95583 -0.05200
C 	C 	0.05437 0.35817 0.96049 0.01000
H 	H 	0.04240 0.35660 0.95190 0.03700
C 	C 	0.05383 0.37062 0.97798 -0.10000
H 	H 	0.04110 0.37670 0.98240 0.06600
C 	C 	0.07171 0.37422 0.98901 0.05900
H 	H 	0.07120 0.38370 0.00040 0.00100
C 	C 	0.15658 0.21900 0.89849 0.09800
C 	C 	0.14067 0.26673 0.91484 0.06500
H 	H 	0.15120 0.25640 0.91400 -0.00300
C 	C 	0.14077 0.27959 0.93170 -0.10700
H 	H 	0.15150 0.27870 0.94180 0.06800
C 	C 	0.12495 0.29389 0.93376 0.01400
H 	H 	0.12450 0.30310 0.94530 0.03500
C 	C 	0.10954 0.29454 0.91846 -0.05500
C 	C 	0.11115 0.28115 0.90199 0.04300
H 	H 	0.10050 0.28150 0.89180 0.01300
C 	C 	0.09207 0.30983 0.91996 0.14200
C 	C 	0.06478 0.32570 0.90497 0.13600
C 	C 	0.07474 0.33463 0.93747 0.13900
C 	C 	0.03764 0.34659 0.88717 0.04800
H 	H 	0.03740 0.35540 0.89900 0.00900
C 	C 	0.05177 0.32962 0.88702 -0.05800
C 	C 	0.05276 0.31788 0.86914 0.01800
H 	H 	0.06230 0.30670 0.86810 0.03500
C 	C 	0.03981 0.32249 0.85276 -0.11000
H 	H 	0.04040 0.31480 0.84020 0.07100
C 	C 	0.02587 0.33862 0.85507 0.06900
H 	H 	0.01640 0.34120 0.84400 -0.00200
C 	C 	0.99890 0.37190 0.92448 0.10800
C 	C 	0.98247 0.41748 0.86220 0.05200
H 	H 	0.99320 0.41650 0.85210 0.00300
C 	C 	0.97106 0.43479 0.86274 -0.09600
H 	H 	0.97330 0.44550 0.85280 0.06600
C 	C 	0.95561 0.43705 0.87821 0.00500
H 	H 	0.94760 0.44940 0.87930 0.03900
C 	C 	0.95256 0.42042 0.89173 -0.05300
C 	C 	0.96521 0.40304 0.88995 0.04600
H 	H 	0.96340 0.39210 0.89970 0.01100
C 	C 	0.93677 0.42139 0.90793 0.13300
N 	N 	0.09003 0.36490 0.98439 -0.22400
N 	N 	0.14535 0.22691 0.88675 -0.26000
N 	N 	0.12672 0.26757 0.89932 -0.22900
N 	N 	0.09057 0.32092 0.93691 -0.15500
N 	N 	0.07977 0.31142 0.90342 -0.15300
N 	N 	0.06151 0.33754 0.92226 -0.15200
N 	N 	0.02488 0.35074 0.87173 -0.23400
N 	N 	0.97967 0.40084 0.87548 -0.22600
N 	N 	0.00102 0.37293 0.90703 -0.26700
N 	N 	0.93687 0.40657 0.92249 -0.15000
S 	S 	0.17257 0.20983 0.91565 -0.06300
S 	S 	0.99641 0.37079 0.95025 -0.06100
C 	C 	0.08990 0.85166 0.46822 0.03700
H 	H 	0.10240 0.84430 0.46510 0.01300
C 	C 	0.07273 0.84811 0.45583 -0.05200
C 	C 	0.05437 0.85817 0.46049 0.01000
H 	H 	0.04240 0.85660 0.45190 0.03700
C 	C 	0.05383 0.87062 0.47798 -0.10000
H 	H 	0.04110 0.87670 0.48240 0.06600
C 	C 	0.07171 0.87422 0.48901 0.05800
H 	H 	0.07120 0.88370 0.50040 0.00100
C 	C 	0.15658 0.71900 0.39849 0.09800
C 	C 	0.14067 0.76673 0.41484 0.06500
H 	H 	0.15120 0.75640 0.41400 -0.00300
C 	C 	0.14077 0.77959 0.43170 -0.10700
H 	H 	0.15150 0.77870 0.44180 0.06800
C 	C 	0.12495 0.79389 0.43376 0.01400
H 	H 	0.12450 0.80310 0.44530 0.03500
C 	C 	0.10954 0.79454 0.41846 -0.05500
C 	C 	0.11115 0.78115 0.40199 0.04300
H 	H 	0.10050 0.78150 0.39180 0.01300
C 	C 	0.09207 0.80983 0.41996 0.14200
C 	C 	0.06478 0.82570 0.40497 0.13600
C 	C 	0.07474 0.83463 0.43747 0.13900
C 	C 	0.03764 0.84659 0.38717 0.04800
H 	H 	0.03740 0.85540 0.39900 0.00900
C 	C 	0.05177 0.82962 0.38702 -0.05800
C 	C 	0.05276 0.81788 0.36914 0.01800
H 	H 	0.06230 0.80670 0.36810 0.03500
C 	C 	0.03981 0.82249 0.35276 -0.11000
H 	H 	0.04040 0.81480 0.34020 0.07100
C 	C 	0.02587 0.83862 0.35507 0.06900
H 	H 	0.01640 0.84120 0.34400 -0.00200
C 	C 	0.99890 0.87190 0.42448 0.10800
C 	C 	0.98247 0.91748 0.36220 0.05200
H 	H 	0.99320 0.91650 0.35210 0.00300
C 	C 	0.97106 0.93479 0.36274 -0.09600
H 	H 	0.97330 0.94550 0.35280 0.06600
C 	C 	0.95561 0.93705 0.37821 0.00500
H 	H 	0.94760 0.94940 0.37930 0.03900
C 	C 	0.95256 0.92042 0.39173 -0.05300
C 	C 	0.96521 0.90304 0.38995 0.04600
H 	H 	0.96340 0.89210 0.39970 0.01100
C 	C 	0.93677 0.92139 0.40793 0.13300
N 	N 	0.09003 0.86490 0.48439 -0.22400
N 	N 	0.14535 0.72691 0.38675 -0.26000
N 	N 	0.12672 0.76757 0.39932 -0.22900
N 	N 	0.09057 0.82092 0.43691 -0.15500
N 	N 	0.07977 0.81142 0.40342 -0.15300
N 	N 	0.06151 0.83754 0.42226 -0.15200
N 	N 	0.02488 0.85074 0.37173 -0.23400
N 	N 	0.97967 0.90084 0.37548 -0.22600
N 	N 	0.00102 0.87293 0.40703 -0.26700
N 	N 	0.93687 0.90657 0.42249 -0.15000
S 	S 	0.17257 0.70983 0.41565 -0.06300
S 	S 	0.99641 0.87079 0.45025 -0.06100
C 	C 	0.58990 0.35166 0.46822 0.03700
H 	H 	0.60240 0.34430 0.46510 0.01300
C 	C 	0.57273 0.34811 0.45583 -0.05200
C 	C 	0.55437 0.35817 0.46049 0.01000
H 	H 	0.54240 0.35660 0.45190 0.03700
C 	C 	0.55383 0.37062 0.47798 -0.10000
H 	H 	0.54110 0.37670 0.48240 0.06600
C 	C 	0.57171 0.37422 0.48901 0.05800
H 	H 	0.57120 0.38370 0.50040 0.00100
C 	C 	0.65658 0.21900 0.39849 0.09800
C 	C 	0.64067 0.26673 0.41484 0.06500
H 	H 	0.65120 0.25640 0.41400 -0.00300
C 	C 	0.64077 0.27959 0.43170 -0.10700
H 	H 	0.65150 0.27870 0.44180 0.06800
C 	C 	0.62495 0.29389 0.43376 0.01400
H 	H 	0.62450 0.30310 0.44530 0.03500
C 	C 	0.60954 0.29454 0.41846 -0.05500
C 	C 	0.61115 0.28115 0.40199 0.04300
H 	H 	0.60050 0.28150 0.39180 0.01300
C 	C 	0.59207 0.30983 0.41996 0.14200
C 	C 	0.56478 0.32570 0.40497 0.13600
C 	C 	0.57474 0.33463 0.43747 0.13900
C 	C 	0.53764 0.34659 0.38717 0.04800
H 	H 	0.53740 0.35540 0.39900 0.00900
C 	C 	0.55177 0.32962 0.38702 -0.05800
C 	C 	0.55276 0.31788 0.36914 0.01800
H 	H 	0.56230 0.30670 0.36810 0.03500
C 	C 	0.53981 0.32249 0.35276 -0.11000
H 	H 	0.54040 0.31480 0.34020 0.07100
C 	C 	0.52587 0.33862 0.35507 0.06900
H 	H 	0.51640 0.34120 0.34400 -0.00200
C 	C 	0.49890 0.37190 0.42448 0.10800
C 	C 	0.48247 0.41748 0.36220 0.05200
H 	H 	0.49320 0.41650 0.35210 0.00300
C 	C 	0.47106 0.43479 0.36274 -0.09600
H 	H 	0.47330 0.44550 0.35280 0.06600
C 	C 	0.45561 0.43705 0.37821 0.00500
H 	H 	0.44760 0.44940 0.37930 0.03900
C 	C 	0.45256 0.42042 0.39173 -0.05300
C 	C 	0.46521 0.40304 0.38995 0.04600
H 	H 	0.46340 0.39210 0.39970 0.01100
C 	C 	0.43677 0.42139 0.40793 0.13300
N 	N 	0.59003 0.36490 0.48439 -0.22400
N 	N 	0.64535 0.22691 0.38675 -0.26000
N 	N 	0.62672 0.26757 0.39932 -0.22900
N 	N 	0.59057 0.32092 0.43691 -0.15500
N 	N 	0.57977 0.31142 0.40342 -0.15300
N 	N 	0.56151 0.33754 0.42226 -0.15200
N 	N 	0.52488 0.35074 0.37173 -0.23400
N 	N 	0.47967 0.40084 0.37548 -0.22600
N 	N 	0.50102 0.37293 0.40703 -0.26700
N 	N 	0.43687 0.40657 0.42249 -0.15000
S 	S 	0.67257 0.20983 0.41565 -0.06300
S 	S 	0.49641 0.37079 0.45025 -0.06100
C 	C 	0.58990 0.85166 0.96822 0.03800
H 	H 	0.60240 0.84430 0.96510 0.01300
C 	C 	0.57273 0.84811 0.95583 -0.05200
C 	C 	0.55437 0.85817 0.96049 0.01000
H 	H 	0.54240 0.85660 0.95190 0.03700
C 	C 	0.55383 0.87062 0.97798 -0.10000
H 	H 	0.54110 0.87670 0.98240 0.06600
C 	C 	0.57171 0.87422 0.98901 0.05900
H 	H 	0.57120 0.88370 0.00040 0.00100
C 	C 	0.65658 0.71900 0.89849 0.09800
C 	C 	0.64067 0.76673 0.91484 0.06500
H 	H 	0.65120 0.75640 0.91400 -0.00300
C 	C 	0.64077 0.77959 0.93170 -0.10700
H 	H 	0.65150 0.77870 0.94180 0.06800
C 	C 	0.62495 0.79389 0.93376 0.01400
H 	H 	0.62450 0.80310 0.94530 0.03500
C 	C 	0.60954 0.79454 0.91846 -0.05500
C 	C 	0.61115 0.78115 0.90199 0.04300
H 	H 	0.60050 0.78150 0.89180 0.01300
C 	C 	0.59207 0.80983 0.91996 0.14200
C 	C 	0.56478 0.82570 0.90497 0.13600
C 	C 	0.57474 0.83463 0.93747 0.13900
C 	C 	0.53764 0.84659 0.88717 0.04800
H 	H 	0.53740 0.85540 0.89900 0.00900
C 	C 	0.55177 0.82962 0.88702 -0.05800
C 	C 	0.55276 0.81788 0.86914 0.01800
H 	H 	0.56230 0.80670 0.86810 0.03500
C 	C 	0.53981 0.82249 0.85276 -0.11000
H 	H 	0.54040 0.81480 0.84020 0.07100
C 	C 	0.52587 0.83862 0.85507 0.06900
H 	H 	0.51640 0.84120 0.84400 -0.00200
C 	C 	0.49890 0.87190 0.92448 0.10800
C 	C 	0.48247 0.91748 0.86220 0.05200
H 	H 	0.49320 0.91650 0.85210 0.00300
C 	C 	0.47106 0.93479 0.86274 -0.09600
H 	H 	0.47330 0.94550 0.85280 0.06600
C 	C 	0.45561 0.93705 0.87821 0.00500
H 	H 	0.44760 0.94940 0.87930 0.03900
C 	C 	0.45256 0.92042 0.89173 -0.05300
C 	C 	0.46521 0.90304 0.88995 0.04600
H 	H 	0.46340 0.89210 0.89970 0.01100
C 	C 	0.43677 0.92139 0.90793 0.13300
N 	N 	0.59003 0.86490 0.98439 -0.22400
N 	N 	0.64535 0.72691 0.88675 -0.26000
N 	N 	0.62672 0.76757 0.89932 -0.22900
N 	N 	0.59057 0.82092 0.93691 -0.15500
N 	N 	0.57977 0.81142 0.90342 -0.15300
N 	N 	0.56151 0.83754 0.92226 -0.15200
N 	N 	0.52488 0.85074 0.87173 -0.23400
N 	N 	0.47967 0.90084 0.87548 -0.22600
N 	N 	0.50102 0.87293 0.90703 -0.26700
N 	N 	0.43687 0.90657 0.92249 -0.15000
S 	S 	0.67257 0.70983 0.91565 -0.06300
S 	S 	0.49641 0.87079 0.95025 -0.06100
C 	C 	0.91010 0.21822 0.10166 0.03700
H 	H 	0.89760 0.21510 0.09430 0.01300
C 	C 	0.92727 0.20583 0.09811 -0.05200
C 	C 	0.94563 0.21049 0.10817 0.01000
H 	H 	0.95760 0.20190 0.10660 0.03700
C 	C 	0.94617 0.22798 0.12062 -0.10000
H 	H 	0.95890 0.23240 0.12670 0.06600
C 	C 	0.92829 0.23901 0.12422 0.05800
H 	H 	0.92880 0.25040 0.13370 0.00100
C 	C 	0.84342 0.14849 0.96900 0.09800
C 	C 	0.85933 0.16484 0.01673 0.06500
H 	H 	0.84880 0.16400 0.00640 -0.00300
C 	C 	0.85923 0.18170 0.02959 -0.10700
H 	H 	0.84850 0.19180 0.02870 0.06800
C 	C 	0.87505 0.18376 0.04389 0.01400
H 	H 	0.87550 0.19530 0.05310 0.03500
C 	C 	0.89046 0.16846 0.04454 -0.05500
C 	C 	0.88885 0.15199 0.03115 0.04300
H 	H 	0.89950 0.14180 0.03150 0.01300
C 	C 	0.90793 0.16996 0.05983 0.14200
C 	C 	0.93522 0.15497 0.07570 0.13600
C 	C 	0.92526 0.18747 0.08463 0.13900
C 	C 	0.96236 0.13717 0.09659 0.04800
H 	H 	0.96260 0.14900 0.10540 0.00900
C 	C 	0.94823 0.13702 0.07962 -0.05800
C 	C 	0.94724 0.11914 0.06788 0.01800
H 	H 	0.93770 0.11810 0.05670 0.03500
C 	C 	0.96019 0.10276 0.07249 -0.11000
H 	H 	0.95960 0.09020 0.06480 0.07100
C 	C 	0.97413 0.10507 0.08862 0.06900
H 	H 	0.98360 0.09400 0.09120 -0.00200
C 	C 	0.00110 0.17448 0.12190 0.10800
C 	C 	0.01753 0.11220 0.16748 0.05200
H 	H 	0.00680 0.10210 0.16650 0.00300
C 	C 	0.02894 0.11274 0.18479 -0.09600
H 	H 	0.02670 0.10280 0.19550 0.06600
C 	C 	0.04439 0.12821 0.18705 0.00500
H 	H 	0.05240 0.12930 0.19940 0.03900
C 	C 	0.04744 0.14173 0.17042 -0.05300
C 	C 	0.03479 0.13995 0.15304 0.04600
H 	H 	0.03660 0.14970 0.14210 0.01100
C 	C 	0.06323 0.15793 0.17139 0.13300
N 	N 	0.90997 0.23439 0.11490 -0.22400
N 	N 	0.85465 0.13675 0.97691 -0.26000
N 	N 	0.87328 0.14932 0.01757 -0.22900
N 	N 	0.90943 0.18691 0.07092 -0.15500
N 	N 	0.92023 0.15342 0.06142 -0.15300
N 	N 	0.93849 0.17226 0.08754 -0.15200
N 	N 	0.97512 0.12173 0.10074 -0.23400
N 	N 	0.02033 0.12548 0.15084 -0.22600
N 	N 	0.99898 0.15703 0.12293 -0.26700
N 	N 	0.06313 0.17249 0.15657 -0.15000
S 	S 	0.82743 0.16565 0.95983 -0.06300
S 	S 	0.00359 0.20025 0.12079 -0.06100
C 	C 	0.91010 0.71822 0.60166 0.03700
H 	H 	0.89760 0.71510 0.59430 0.01300
C 	C 	0.92727 0.70583 0.59811 -0.05200
C 	C 	0.94563 0.71049 0.60817 0.01000
H 	H 	0.95760 0.70190 0.60660 0.03700
C 	C 	0.94617 0.72798 0.62062 -0.10000
H 	H 	0.95890 0.73240 0.62670 0.06600
C 	C 	0.92829 0.73901 0.62422 0.05800
H 	H 	0.92880 0.75040 0.63370 0.00100
C 	C 	0.84342 0.64849 0.46900 0.09800
C 	C 	0.85933 0.66484 0.51673 0.06500
H 	H 	0.84880 0.66400 0.50640 -0.00300
C 	C 	0.85923 0.68170 0.52959 -0.10700
H 	H 	0.84850 0.69180 0.52870 0.06800
C 	C 	0.87505 0.68376 0.54389 0.01400
H 	H 	0.87550 0.69530 0.55310 0.03500
C 	C 	0.89046 0.66846 0.54454 -0.05500
C 	C 	0.88885 0.65199 0.53115 0.04300
H 	H 	0.89950 0.64180 0.53150 0.01300
C 	C 	0.90793 0.66996 0.55983 0.14200
C 	C 	0.93522 0.65497 0.57570 0.13600
C 	C 	0.92526 0.68747 0.58463 0.13900
C 	C 	0.96236 0.63717 0.59659 0.04800
H 	H 	0.96260 0.64900 0.60540 0.00900
C 	C 	0.94823 0.63702 0.57962 -0.05800
C 	C 	0.94724 0.61914 0.56788 0.01800
H 	H 	0.93770 0.61810 0.55670 0.03500
C 	C 	0.96019 0.60276 0.57249 -0.11000
H 	H 	0.95960 0.59020 0.56480 0.07100
C 	C 	0.97413 0.60507 0.58862 0.06900
H 	H 	0.98360 0.59400 0.59120 -0.00200
C 	C 	0.00110 0.67448 0.62190 0.10800
C 	C 	0.01753 0.61220 0.66748 0.05200
H 	H 	0.00680 0.60210 0.66650 0.00300
C 	C 	0.02894 0.61274 0.68479 -0.09600
H 	H 	0.02670 0.60280 0.69550 0.06600
C 	C 	0.04439 0.62821 0.68705 0.00500
H 	H 	0.05240 0.62930 0.69940 0.03900
C 	C 	0.04744 0.64173 0.67042 -0.05300
C 	C 	0.03479 0.63995 0.65304 0.04600
H 	H 	0.03660 0.64970 0.64210 0.01100
C 	C 	0.06323 0.65793 0.67139 0.13300
N 	N 	0.90997 0.73439 0.61490 -0.22400
N 	N 	0.85465 0.63675 0.47691 -0.26000
N 	N 	0.87328 0.64932 0.51757 -0.22900
N 	N 	0.90943 0.68691 0.57092 -0.15500
N 	N 	0.92023 0.65342 0.56142 -0.15300
N 	N 	0.93849 0.67226 0.58754 -0.15200
N 	N 	0.97512 0.62173 0.60074 -0.23400
N 	N 	0.02033 0.62548 0.65084 -0.22600
N 	N 	0.99898 0.65703 0.62293 -0.26700
N 	N 	0.06313 0.67249 0.65657 -0.15000
S 	S 	0.82743 0.66565 0.45983 -0.06300
S 	S 	0.00359 0.70025 0.62079 -0.06100
C 	C 	0.41010 0.21822 0.60166 0.03700
H 	H 	0.39760 0.21510 0.59430 0.01300
C 	C 	0.42727 0.20583 0.59811 -0.05200
C 	C 	0.44563 0.21049 0.60817 0.01000
H 	H 	0.45760 0.20190 0.60660 0.03700
C 	C 	0.44617 0.22798 0.62062 -0.10000
H 	H 	0.45890 0.23240 0.62670 0.06600
C 	C 	0.42829 0.23901 0.62422 0.05800
H 	H 	0.42880 0.25040 0.63370 0.00100
C 	C 	0.34342 0.14849 0.46900 0.09800
C 	C 	0.35933 0.16484 0.51673 0.06500
H 	H 	0.34880 0.16400 0.50640 -0.00300
C 	C 	0.35923 0.18170 0.52959 -0.10700
H 	H 	0.34850 0.19180 0.52870 0.06800
C 	C 	0.37505 0.18376 0.54389 0.01400
H 	H 	0.37550 0.19530 0.55310 0.03500
C 	C 	0.39046 0.16846 0.54454 -0.05500
C 	C 	0.38885 0.15199 0.53115 0.04300
H 	H 	0.39950 0.14180 0.53150 0.01300
C 	C 	0.40793 0.16996 0.55983 0.14200
C 	C 	0.43522 0.15497 0.57570 0.13600
C 	C 	0.42526 0.18747 0.58463 0.13900
C 	C 	0.46236 0.13717 0.59659 0.04800
H 	H 	0.46260 0.14900 0.60540 0.00900
C 	C 	0.44823 0.13702 0.57962 -0.05800
C 	C 	0.44724 0.11914 0.56788 0.01800
H 	H 	0.43770 0.11810 0.55670 0.03500
C 	C 	0.46019 0.10276 0.57249 -0.11000
H 	H 	0.45960 0.09020 0.56480 0.07100
C 	C 	0.47413 0.10507 0.58862 0.06900
H 	H 	0.48360 0.09400 0.59120 -0.00200
C 	C 	0.50110 0.17448 0.62190 0.10800
C 	C 	0.51753 0.11220 0.66748 0.05200
H 	H 	0.50680 0.10210 0.66650 0.00300
C 	C 	0.52894 0.11274 0.68479 -0.09600
H 	H 	0.52670 0.10280 0.69550 0.06600
C 	C 	0.54439 0.12821 0.68705 0.00500
H 	H 	0.55240 0.12930 0.69940 0.03900
C 	C 	0.54744 0.14173 0.67042 -0.05300
C 	C 	0.53479 0.13995 0.65304 0.04600
H 	H 	0.53660 0.14970 0.64210 0.01100
C 	C 	0.56323 0.15793 0.67139 0.13300
N 	N 	0.40997 0.23439 0.61490 -0.22400
N 	N 	0.35465 0.13675 0.47691 -0.26000
N 	N 	0.37328 0.14932 0.51757 -0.22900
N 	N 	0.40943 0.18691 0.57092 -0.15500
N 	N 	0.42023 0.15342 0.56142 -0.15300
N 	N 	0.43849 0.17226 0.58754 -0.15200
N 	N 	0.47512 0.12173 0.60074 -0.23400
N 	N 	0.52033 0.12548 0.65084 -0.22600
N 	N 	0.49898 0.15703 0.62293 -0.26700
N 	N 	0.56313 0.17249 0.65657 -0.15000
S 	S 	0.32743 0.16565 0.45983 -0.06300
S 	S 	0.50359 0.20025 0.62079 -0.06100
C 	C 	0.41010 0.71822 0.10166 0.03700
H 	H 	0.39760 0.71510 0.09430 0.01300
C 	C 	0.42727 0.70583 0.09811 -0.05200
C 	C 	0.44563 0.71049 0.10817 0.01000
H 	H 	0.45760 0.70190 0.10660 0.03700
C 	C 	0.44617 0.72798 0.12062 -0.10000
H 	H 	0.45890 0.73240 0.12670 0.06600
C 	C 	0.42829 0.73901 0.12422 0.05800
H 	H 	0.42880 0.75040 0.13370 0.00100
C 	C 	0.34342 0.64849 0.96900 0.09800
C 	C 	0.35933 0.66484 0.01673 0.06500
H 	H 	0.34880 0.66400 0.00640 -0.00300
C 	C 	0.35923 0.68170 0.02959 -0.10700
H 	H 	0.34850 0.69180 0.02870 0.06800
C 	C 	0.37505 0.68376 0.04389 0.01400
H 	H 	0.37550 0.69530 0.05310 0.03500
C 	C 	0.39046 0.66846 0.04454 -0.05500
C 	C 	0.38885 0.65199 0.03115 0.04300
H 	H 	0.39950 0.64180 0.03150 0.01300
C 	C 	0.40793 0.66996 0.05983 0.14200
C 	C 	0.43522 0.65497 0.07570 0.13600
C 	C 	0.42526 0.68747 0.08463 0.13900
C 	C 	0.46236 0.63717 0.09659 0.04800
H 	H 	0.46260 0.64900 0.10540 0.00900
C 	C 	0.44823 0.63702 0.07962 -0.05800
C 	C 	0.44724 0.61914 0.06788 0.01800
H 	H 	0.43770 0.61810 0.05670 0.03500
C 	C 	0.46019 0.60276 0.07249 -0.11000
H 	H 	0.45960 0.59020 0.06480 0.07100
C 	C 	0.47413 0.60507 0.08862 0.06900
H 	H 	0.48360 0.59400 0.09120 -0.00200
C 	C 	0.50110 0.67448 0.12190 0.10800
C 	C 	0.51753 0.61220 0.16748 0.05200
H 	H 	0.50680 0.60210 0.16650 0.00300
C 	C 	0.52894 0.61274 0.18479 -0.09600
H 	H 	0.52670 0.60280 0.19550 0.06600
C 	C 	0.54439 0.62821 0.18705 0.00500
H 	H 	0.55240 0.62930 0.19940 0.03900
C 	C 	0.54744 0.64173 0.17042 -0.05300
C 	C 	0.53479 0.63995 0.15304 0.04600
H 	H 	0.53660 0.64970 0.14210 0.01100
C 	C 	0.56323 0.65793 0.17139 0.13300
N 	N 	0.40997 0.73439 0.11490 -0.22400
N 	N 	0.35465 0.63675 0.97691 -0.26000
N 	N 	0.37328 0.64932 0.01757 -0.22900
N 	N 	0.40943 0.68691 0.07092 -0.15500
N 	N 	0.42023 0.65342 0.06142 -0.15300
N 	N 	0.43849 0.67226 0.08754 -0.15200
N 	N 	0.47512 0.62173 0.10074 -0.23400
N 	N 	0.52033 0.62548 0.15084 -0.22600
N 	N 	0.49898 0.65703 0.12293 -0.26700
N 	N 	0.56313 0.67249 0.15657 -0.15000
S 	S 	0.32743 0.66565 0.95983 -0.06300
S 	S 	0.50359 0.70025 0.12079 -0.06100
C 	C 	0.83990 0.03178 0.60166 0.03700
H 	H 	0.85240 0.03490 0.59430 0.01300
C 	C 	0.82273 0.04417 0.59811 -0.05200
C 	C 	0.80437 0.03951 0.60817 0.01000
H 	H 	0.79240 0.04810 0.60660 0.03700
C 	C 	0.80383 0.02202 0.62062 -0.10000
H 	H 	0.79110 0.01760 0.62670 0.06600
C 	C 	0.82171 0.01099 0.62422 0.05800
H 	H 	0.82120 0.99960 0.63370 0.00100
C 	C 	0.90658 0.10151 0.46900 0.09800
C 	C 	0.89067 0.08516 0.51673 0.06500
H 	H 	0.90120 0.08600 0.50640 -0.00300
C 	C 	0.89077 0.06830 0.52959 -0.10700
H 	H 	0.90150 0.05820 0.52870 0.06800
C 	C 	0.87495 0.06624 0.54389 0.01400
H 	H 	0.87450 0.05470 0.55310 0.03500
C 	C 	0.85954 0.08154 0.54454 -0.05500
C 	C 	0.86115 0.09801 0.53115 0.04300
H 	H 	0.85050 0.10820 0.53150 0.01300
C 	C 	0.84207 0.08004 0.55983 0.14200
C 	C 	0.81478 0.09503 0.57570 0.13600
C 	C 	0.82474 0.06253 0.58463 0.13900
C 	C 	0.78764 0.11283 0.59659 0.04800
H 	H 	0.78740 0.10100 0.60540 0.00900
C 	C 	0.80177 0.11298 0.57962 -0.05800
C 	C 	0.80276 0.13086 0.56788 0.01800
H 	H 	0.81230 0.13190 0.55670 0.03500
C 	C 	0.78981 0.14724 0.57249 -0.11000
H 	H 	0.79040 0.15980 0.56480 0.07100
C 	C 	0.77587 0.14493 0.58862 0.06900
H 	H 	0.76640 0.15600 0.59120 -0.00200
C 	C 	0.74890 0.07552 0.62190 0.10800
C 	C 	0.73247 0.13780 0.66748 0.05200
H 	H 	0.74320 0.14790 0.66650 0.00300
C 	C 	0.72106 0.13726 0.68479 -0.09600
H 	H 	0.72330 0.14720 0.69550 0.06600
C 	C 	0.70561 0.12179 0.68705 0.00500
H 	H 	0.69760 0.12070 0.69940 0.03900
C 	C 	0.70256 0.10827 0.67042 -0.05300
C 	C 	0.71521 0.11005 0.65304 0.04600
H 	H 	0.71340 0.10030 0.64210 0.01100
C 	C 	0.68677 0.09207 0.67139 0.13300
N 	N 	0.84003 0.01561 0.61490 -0.22400
N 	N 	0.89535 0.11325 0.47691 -0.26000
N 	N 	0.87672 0.10068 0.51757 -0.22900
N 	N 	0.84057 0.06309 0.57092 -0.15500
N 	N 	0.82977 0.09658 0.56142 -0.15300
N 	N 	0.81151 0.07774 0.58754 -0.15200
N 	N 	0.77488 0.12827 0.60074 -0.23400
N 	N 	0.72967 0.12452 0.65084 -0.22600
N 	N 	0.75102 0.09297 0.62293 -0.26700
N 	N 	0.68687 0.07751 0.65657 -0.15000
S 	S 	0.92257 0.08435 0.45983 -0.06300
S 	S 	0.74641 0.04975 0.62079 -0.06100
C 	C 	0.83990 0.53178 0.10166 0.03700
H 	H 	0.85240 0.53490 0.09430 0.01300
C 	C 	0.82273 0.54417 0.09811 -0.05200
C 	C 	0.80437 0.53951 0.10817 0.01000
H 	H 	0.79240 0.54810 0.10660 0.03700
C 	C 	0.80383 0.52202 0.12062 -0.10000
H 	H 	0.79110 0.51760 0.12670 0.06600
C 	C 	0.82171 0.51099 0.12422 0.05800
H 	H 	0.82120 0.49960 0.13370 0.00100
C 	C 	0.90658 0.60151 0.96900 0.09800
C 	C 	0.89067 0.58516 0.01673 0.06500
H 	H 	0.90120 0.58600 0.00640 -0.00300
C 	C 	0.89077 0.56830 0.02959 -0.10700
H 	H 	0.90150 0.55820 0.02870 0.06800
C 	C 	0.87495 0.56624 0.04389 0.01400
H 	H 	0.87450 0.55470 0.05310 0.03500
C 	C 	0.85954 0.58154 0.04454 -0.05500
C 	C 	0.86115 0.59801 0.03115 0.04300
H 	H 	0.85050 0.60820 0.03150 0.01300
C 	C 	0.84207 0.58004 0.05983 0.14200
C 	C 	0.81478 0.59503 0.07570 0.13600
C 	C 	0.82474 0.56253 0.08463 0.13900
C 	C 	0.78764 0.61283 0.09659 0.04800
H 	H 	0.78740 0.60100 0.10540 0.00900
C 	C 	0.80177 0.61298 0.07962 -0.05800
C 	C 	0.80276 0.63086 0.06788 0.01800
H 	H 	0.81230 0.63190 0.05670 0.03500
C 	C 	0.78981 0.64724 0.07249 -0.11000
H 	H 	0.79040 0.65980 0.06480 0.07100
C 	C 	0.77587 0.64493 0.08862 0.06900
H 	H 	0.76640 0.65600 0.09120 -0.00200
C 	C 	0.74890 0.57552 0.12190 0.10800
C 	C 	0.73247 0.63780 0.16748 0.05200
H 	H 	0.74320 0.64790 0.16650 0.00300
C 	C 	0.72106 0.63726 0.18479 -0.09600
H 	H 	0.72330 0.64720 0.19550 0.06600
C 	C 	0.70561 0.62179 0.18705 0.00500
H 	H 	0.69760 0.62070 0.19940 0.03900
C 	C 	0.70256 0.60827 0.17042 -0.05300
C 	C 	0.71521 0.61005 0.15304 0.04600
H 	H 	0.71340 0.60030 0.14210 0.01100
C 	C 	0.68677 0.59207 0.17139 0.13300
N 	N 	0.84003 0.51561 0.11490 -0.22400
N 	N 	0.89535 0.61325 0.97691 -0.26000
N 	N 	0.87672 0.60068 0.01757 -0.22900
N 	N 	0.84057 0.56309 0.07092 -0.15500
N 	N 	0.82977 0.59658 0.06142 -0.15300
N 	N 	0.81151 0.57774 0.08754 -0.15200
N 	N 	0.77488 0.62827 0.10074 -0.23400
N 	N 	0.72967 0.62452 0.15084 -0.22600
N 	N 	0.75102 0.59297 0.12293 -0.26700
N 	N 	0.68687 0.57751 0.15657 -0.15000
S 	S 	0.92257 0.58435 0.95983 -0.06300
S 	S 	0.74641 0.54975 0.12079 -0.06100
C 	C 	0.33990 0.03178 0.10166 0.03700
H 	H 	0.35240 0.03490 0.09430 0.01300
C 	C 	0.32273 0.04417 0.09811 -0.05200
C 	C 	0.30437 0.03951 0.10817 0.01000
H 	H 	0.29240 0.04810 0.10660 0.03700
C 	C 	0.30383 0.02202 0.12062 -0.10000
H 	H 	0.29110 0.01760 0.12670 0.06600
C 	C 	0.32171 0.01099 0.12422 0.05800
H 	H 	0.32120 0.99960 0.13370 0.00100
C 	C 	0.40658 0.10151 0.96900 0.09800
C 	C 	0.39067 0.08516 0.01673 0.06500
H 	H 	0.40120 0.08600 0.00640 -0.00300
C 	C 	0.39077 0.06830 0.02959 -0.10700
H 	H 	0.40150 0.05820 0.02870 0.06800
C 	C 	0.37495 0.06624 0.04389 0.01400
H 	H 	0.37450 0.05470 0.05310 0.03500
C 	C 	0.35954 0.08154 0.04454 -0.05500
C 	C 	0.36115 0.09801 0.03115 0.04300
H 	H 	0.35050 0.10820 0.03150 0.01300
C 	C 	0.34207 0.08004 0.05983 0.14200
C 	C 	0.31478 0.09503 0.07570 0.13600
C 	C 	0.32474 0.06253 0.08463 0.13900
C 	C 	0.28764 0.11283 0.09659 0.04800
H 	H 	0.28740 0.10100 0.10540 0.00900
C 	C 	0.30177 0.11298 0.07962 -0.05800
C 	C 	0.30276 0.13086 0.06788 0.01800
H 	H 	0.31230 0.13190 0.05670 0.03500
C 	C 	0.28981 0.14724 0.07249 -0.11000
H 	H 	0.29040 0.15980 0.06480 0.07100
C 	C 	0.27587 0.14493 0.08862 0.06900
H 	H 	0.26640 0.15600 0.09120 -0.00200
C 	C 	0.24890 0.07552 0.12190 0.10800
C 	C 	0.23247 0.13780 0.16748 0.05200
H 	H 	0.24320 0.14790 0.16650 0.00300
C 	C 	0.22106 0.13726 0.18479 -0.09600
H 	H 	0.22330 0.14720 0.19550 0.06600
C 	C 	0.20561 0.12179 0.18705 0.00500
H 	H 	0.19760 0.12070 0.19940 0.03900
C 	C 	0.20256 0.10827 0.17042 -0.05300
C 	C 	0.21521 0.11005 0.15304 0.04600
H 	H 	0.21340 0.10030 0.14210 0.01100
C 	C 	0.18677 0.09207 0.17139 0.13300
N 	N 	0.34003 0.01561 0.11490 -0.22400
N 	N 	0.39535 0.11325 0.97691 -0.26000
N 	N 	0.37672 0.10068 0.01757 -0.22900
N 	N 	0.34057 0.06309 0.07092 -0.15500
N 	N 	0.32977 0.09658 0.06142 -0.15300
N 	N 	0.31151 0.07774 0.08754 -0.15200
N 	N 	0.27488 0.12827 0.10074 -0.23400
N 	N 	0.22967 0.12452 0.15084 -0.22600
N 	N 	0.25102 0.09297 0.12293 -0.26700
N 	N 	0.18687 0.07751 0.15657 -0.15000
S 	S 	0.42257 0.08435 0.95983 -0.06300
S 	S 	0.24641 0.04975 0.12079 -0.06100
C 	C 	0.33990 0.53178 0.60166 0.03700
H 	H 	0.35240 0.53490 0.59430 0.01300
C 	C 	0.32273 0.54417 0.59811 -0.05200
C 	C 	0.30437 0.53951 0.60817 0.01000
H 	H 	0.29240 0.54810 0.60660 0.03700
C 	C 	0.30383 0.52202 0.62062 -0.10000
H 	H 	0.29110 0.51760 0.62670 0.06600
C 	C 	0.32171 0.51099 0.62422 0.05800
H 	H 	0.32120 0.49960 0.63370 0.00100
C 	C 	0.40658 0.60151 0.46900 0.09800
C 	C 	0.39067 0.58516 0.51673 0.06500
H 	H 	0.40120 0.58600 0.50640 -0.00300
C 	C 	0.39077 0.56830 0.52959 -0.10700
H 	H 	0.40150 0.55820 0.52870 0.06800
C 	C 	0.37495 0.56624 0.54389 0.01400
H 	H 	0.37450 0.55470 0.55310 0.03500
C 	C 	0.35954 0.58154 0.54454 -0.05500
C 	C 	0.36115 0.59801 0.53115 0.04300
H 	H 	0.35050 0.60820 0.53150 0.01300
C 	C 	0.34207 0.58004 0.55983 0.14200
C 	C 	0.31478 0.59503 0.57570 0.13600
C 	C 	0.32474 0.56253 0.58463 0.13900
C 	C 	0.28764 0.61283 0.59659 0.04800
H 	H 	0.28740 0.60100 0.60540 0.00900
C 	C 	0.30177 0.61298 0.57962 -0.05800
C 	C 	0.30276 0.63086 0.56788 0.01800
H 	H 	0.31230 0.63190 0.55670 0.03500
C 	C 	0.28981 0.64724 0.57249 -0.11000
H 	H 	0.29040 0.65980 0.56480 0.07100
C 	C 	0.27587 0.64493 0.58862 0.06900
H 	H 	0.26640 0.65600 0.59120 -0.00200
C 	C 	0.24890 0.57552 0.62190 0.10800
C 	C 	0.23247 0.63780 0.66748 0.05200
H 	H 	0.24320 0.64790 0.66650 0.00300
C 	C 	0.22106 0.63726 0.68479 -0.09600
H 	H 	0.22330 0.64720 0.69550 0.06600
C 	C 	0.20561 0.62179 0.68705 0.00500
H 	H 	0.19760 0.62070 0.69940 0.03900
C 	C 	0.20256 0.60827 0.67042 -0.05300
C 	C 	0.21521 0.61005 0.65304 0.04600
H 	H 	0.21340 0.60030 0.64210 0.01100
C 	C 	0.18677 0.59207 0.67139 0.13300
N 	N 	0.34003 0.51561 0.61490 -0.22400
N 	N 	0.39535 0.61325 0.47691 -0.26000
N 	N 	0.37672 0.60068 0.51757 -0.22900
N 	N 	0.34057 0.56309 0.57092 -0.15500
N 	N 	0.32977 0.59658 0.56142 -0.15300
N 	N 	0.31151 0.57774 0.58754 -0.15200
N 	N 	0.27488 0.62827 0.60074 -0.23400
N 	N 	0.22967 0.62452 0.65084 -0.22600
N 	N 	0.25102 0.59297 0.62293 -0.26700
N 	N 	0.18687 0.57751 0.65657 -0.15000
S 	S 	0.42257 0.58435 0.45983 -0.06300
S 	S 	0.24641 0.54975 0.62079 -0.06100
C 	C 	0.41010 0.53178 0.14834 0.03700
H 	H 	0.39760 0.53490 0.15570 0.01300
C 	C 	0.42727 0.54417 0.15189 -0.05200
C 	C 	0.44563 0.53951 0.14183 0.01000
H 	H 	0.45760 0.54810 0.14340 0.03700
C 	C 	0.44617 0.52202 0.12938 -0.10000
H 	H 	0.45890 0.51760 0.12330 0.06600
C 	C 	0.42829 0.51099 0.12578 0.05800
H 	H 	0.42880 0.49960 0.11630 0.00100
C 	C 	0.34342 0.60151 0.28100 0.09800
C 	C 	0.35933 0.58516 0.23327 0.06500
H 	H 	0.34880 0.58600 0.24360 -0.00300
C 	C 	0.35923 0.56830 0.22041 -0.10700
H 	H 	0.34850 0.55820 0.22130 0.06800
C 	C 	0.37505 0.56624 0.20611 0.01400
H 	H 	0.37550 0.55470 0.19690 0.03500
C 	C 	0.39046 0.58154 0.20546 -0.05500
C 	C 	0.38885 0.59801 0.21885 0.04300
H 	H 	0.39950 0.60820 0.21850 0.01300
C 	C 	0.40793 0.58004 0.19017 0.14200
C 	C 	0.43522 0.59503 0.17430 0.13600
C 	C 	0.42526 0.56253 0.16537 0.13900
C 	C 	0.46236 0.61283 0.15341 0.04800
H 	H 	0.46260 0.60100 0.14460 0.00900
C 	C 	0.44823 0.61298 0.17038 -0.05800
C 	C 	0.44724 0.63086 0.18212 0.01800
H 	H 	0.43770 0.63190 0.19330 0.03500
C 	C 	0.46019 0.64724 0.17751 -0.11000
H 	H 	0.45960 0.65980 0.18520 0.07100
C 	C 	0.47413 0.64493 0.16138 0.06900
H 	H 	0.48360 0.65600 0.15880 -0.00200
C 	C 	0.50110 0.57552 0.12810 0.10800
C 	C 	0.51753 0.63780 0.08252 0.05200
H 	H 	0.50680 0.64790 0.08350 0.00300
C 	C 	0.52894 0.63726 0.06521 -0.09600
H 	H 	0.52670 0.64720 0.05450 0.06600
C 	C 	0.54439 0.62179 0.06295 0.00500
H 	H 	0.55240 0.62070 0.05060 0.03900
C 	C 	0.54744 0.60827 0.07958 -0.05300
C 	C 	0.53479 0.61005 0.09696 0.04600
H 	H 	0.53660 0.60030 0.10790 0.01100
C 	C 	0.56323 0.59207 0.07861 0.13300
N 	N 	0.40997 0.51561 0.13510 -0.22400
N 	N 	0.35465 0.61325 0.27309 -0.26000
N 	N 	0.37328 0.60068 0.23243 -0.22900
N 	N 	0.40943 0.56309 0.17908 -0.15500
N 	N 	0.42023 0.59658 0.18858 -0.15300
N 	N 	0.43849 0.57774 0.16246 -0.15200
N 	N 	0.47512 0.62827 0.14926 -0.23400
N 	N 	0.52033 0.62452 0.09916 -0.22600
N 	N 	0.49898 0.59297 0.12707 -0.26700
N 	N 	0.56313 0.57751 0.09343 -0.15000
S 	S 	0.32743 0.58435 0.29017 -0.06300
S 	S 	0.50359 0.54975 0.12921 -0.06100
C 	C 	0.41010 0.03178 0.64834 0.03700
H 	H 	0.39760 0.03490 0.65570 0.01300
C 	C 	0.42727 0.04417 0.65189 -0.05200
C 	C 	0.44563 0.03951 0.64183 0.01000
H 	H 	0.45760 0.04810 0.64340 0.03700
C 	C 	0.44617 0.02202 0.62938 -0.10000
H 	H 	0.45890 0.01760 0.62330 0.06600
C 	C 	0.42829 0.01099 0.62578 0.05800
H 	H 	0.42880 0.99960 0.61630 0.00100
C 	C 	0.34342 0.10151 0.78100 0.09800
C 	C 	0.35933 0.08516 0.73327 0.06500
H 	H 	0.34880 0.08600 0.74360 -0.00300
C 	C 	0.35923 0.06830 0.72041 -0.10700
H 	H 	0.34850 0.05820 0.72130 0.06800
C 	C 	0.37505 0.06624 0.70611 0.01400
H 	H 	0.37550 0.05470 0.69690 0.03500
C 	C 	0.39046 0.08154 0.70546 -0.05500
C 	C 	0.38885 0.09801 0.71885 0.04300
H 	H 	0.39950 0.10820 0.71850 0.01300
C 	C 	0.40793 0.08004 0.69017 0.14200
C 	C 	0.43522 0.09503 0.67430 0.13600
C 	C 	0.42526 0.06253 0.66537 0.13900
C 	C 	0.46236 0.11283 0.65341 0.04800
H 	H 	0.46260 0.10100 0.64460 0.00900
C 	C 	0.44823 0.11298 0.67038 -0.05800
C 	C 	0.44724 0.13086 0.68212 0.01800
H 	H 	0.43770 0.13190 0.69330 0.03500
C 	C 	0.46019 0.14724 0.67751 -0.11000
H 	H 	0.45960 0.15980 0.68520 0.07100
C 	C 	0.47413 0.14493 0.66138 0.06900
H 	H 	0.48360 0.15600 0.65880 -0.00200
C 	C 	0.50110 0.07552 0.62810 0.10800
C 	C 	0.51753 0.13780 0.58252 0.05200
H 	H 	0.50680 0.14790 0.58350 0.00300
C 	C 	0.52894 0.13726 0.56521 -0.09600
H 	H 	0.52670 0.14720 0.55450 0.06600
C 	C 	0.54439 0.12179 0.56295 0.00500
H 	H 	0.55240 0.12070 0.55060 0.03900
C 	C 	0.54744 0.10827 0.57958 -0.05300
C 	C 	0.53479 0.11005 0.59696 0.04600
H 	H 	0.53660 0.10030 0.60790 0.01100
C 	C 	0.56323 0.09207 0.57861 0.13300
N 	N 	0.40997 0.01561 0.63510 -0.22400
N 	N 	0.35465 0.11325 0.77309 -0.26000
N 	N 	0.37328 0.10068 0.73243 -0.22900
N 	N 	0.40943 0.06309 0.67908 -0.15500
N 	N 	0.42023 0.09658 0.68858 -0.15300
N 	N 	0.43849 0.07774 0.66246 -0.15200
N 	N 	0.47512 0.12827 0.64926 -0.23400
N 	N 	0.52033 0.12452 0.59916 -0.22600
N 	N 	0.49898 0.09297 0.62707 -0.26700
N 	N 	0.56313 0.07751 0.59343 -0.15000
S 	S 	0.32743 0.08435 0.79017 -0.06300
S 	S 	0.50359 0.04975 0.62921 -0.06100
C 	C 	0.91010 0.53178 0.64834 0.03700
H 	H 	0.89760 0.53490 0.65570 0.01300
C 	C 	0.92727 0.54417 0.65189 -0.05200
C 	C 	0.94563 0.53951 0.64183 0.01000
H 	H 	0.95760 0.54810 0.64340 0.03700
C 	C 	0.94617 0.52202 0.62938 -0.10000
H 	H 	0.95890 0.51760 0.62330 0.06600
C 	C 	0.92829 0.51099 0.62578 0.05800
H 	H 	0.92880 0.49960 0.61630 0.00100
C 	C 	0.84342 0.60151 0.78100 0.09800
C 	C 	0.85933 0.58516 0.73327 0.06500
H 	H 	0.84880 0.58600 0.74360 -0.00300
C 	C 	0.85923 0.56830 0.72041 -0.10700
H 	H 	0.84850 0.55820 0.72130 0.06800
C 	C 	0.87505 0.56624 0.70611 0.01400
H 	H 	0.87550 0.55470 0.69690 0.03500
C 	C 	0.89046 0.58154 0.70546 -0.05500
C 	C 	0.88885 0.59801 0.71885 0.04300
H 	H 	0.89950 0.60820 0.71850 0.01300
C 	C 	0.90793 0.58004 0.69017 0.14200
C 	C 	0.93522 0.59503 0.67430 0.13600
C 	C 	0.92526 0.56253 0.66537 0.13900
C 	C 	0.96236 0.61283 0.65341 0.04800
H 	H 	0.96260 0.60100 0.64460 0.00900
C 	C 	0.94823 0.61298 0.67038 -0.05800
C 	C 	0.94724 0.63086 0.68212 0.01800
H 	H 	0.93770 0.63190 0.69330 0.03500
C 	C 	0.96019 0.64724 0.67751 -0.11000
H 	H 	0.95960 0.65980 0.68520 0.07100
C 	C 	0.97413 0.64493 0.66138 0.06900
H 	H 	0.98360 0.65600 0.65880 -0.00200
C 	C 	0.00110 0.57552 0.62810 0.10800
C 	C 	0.01753 0.63780 0.58252 0.05200
H 	H 	0.00680 0.64790 0.58350 0.00300
C 	C 	0.02894 0.63726 0.56521 -0.09600
H 	H 	0.02670 0.64720 0.55450 0.06600
C 	C 	0.04439 0.62179 0.56295 0.00500
H 	H 	0.05240 0.62070 0.55060 0.03900
C 	C 	0.04744 0.60827 0.57958 -0.05300
C 	C 	0.03479 0.61005 0.59696 0.04600
H 	H 	0.03660 0.60030 0.60790 0.01100
C 	C 	0.06323 0.59207 0.57861 0.13300
N 	N 	0.90997 0.51561 0.63510 -0.22400
N 	N 	0.85465 0.61325 0.77309 -0.26000
N 	N 	0.87328 0.60068 0.73243 -0.22900
N 	N 	0.90943 0.56309 0.67908 -0.15500
N 	N 	0.92023 0.59658 0.68858 -0.15300
N 	N 	0.93849 0.57774 0.66246 -0.15200
N 	N 	0.97512 0.62827 0.64926 -0.23400
N 	N 	0.02033 0.62452 0.59916 -0.22600
N 	N 	0.99898 0.59297 0.62707 -0.26700
N 	N 	0.06313 0.57751 0.59343 -0.15000
S 	S 	0.82743 0.58435 0.79017 -0.06300
S 	S 	0.00359 0.54975 0.62921 -0.06100
C 	C 	0.91010 0.03178 0.14834 0.03700
H 	H 	0.89760 0.03490 0.15570 0.01300
C 	C 	0.92727 0.04417 0.15189 -0.05200
C 	C 	0.94563 0.03951 0.14183 0.01000
H 	H 	0.95760 0.04810 0.14340 0.03700
C 	C 	0.94617 0.02202 0.12938 -0.10000
H 	H 	0.95890 0.01760 0.12330 0.06600
C 	C 	0.92829 0.01099 0.12578 0.05800
H 	H 	0.92880 0.99960 0.11630 0.00100
C 	C 	0.84342 0.10151 0.28100 0.09800
C 	C 	0.85933 0.08516 0.23327 0.06500
H 	H 	0.84880 0.08600 0.24360 -0.00300
C 	C 	0.85923 0.06830 0.22041 -0.10700
H 	H 	0.84850 0.05820 0.22130 0.06800
C 	C 	0.87505 0.06624 0.20611 0.01400
H 	H 	0.87550 0.05470 0.19690 0.03500
C 	C 	0.89046 0.08154 0.20546 -0.05500
C 	C 	0.88885 0.09801 0.21885 0.04300
H 	H 	0.89950 0.10820 0.21850 0.01300
C 	C 	0.90793 0.08004 0.19017 0.14200
C 	C 	0.93522 0.09503 0.17430 0.13600
C 	C 	0.92526 0.06253 0.16537 0.13900
C 	C 	0.96236 0.11283 0.15341 0.04800
H 	H 	0.96260 0.10100 0.14460 0.00900
C 	C 	0.94823 0.11298 0.17038 -0.05800
C 	C 	0.94724 0.13086 0.18212 0.01800
H 	H 	0.93770 0.13190 0.19330 0.03500
C 	C 	0.96019 0.14724 0.17751 -0.11000
H 	H 	0.95960 0.15980 0.18520 0.07100
C 	C 	0.97413 0.14493 0.16138 0.06900
H 	H 	0.98360 0.15600 0.15880 -0.00200
C 	C 	0.00110 0.07552 0.12810 0.10800
C 	C 	0.01753 0.13780 0.08252 0.05200
H 	H 	0.00680 0.14790 0.08350 0.00300
C 	C 	0.02894 0.13726 0.06521 -0.09600
H 	H 	0.02670 0.14720 0.05450 0.06600
C 	C 	0.04439 0.12179 0.06295 0.00500
H 	H 	0.05240 0.12070 0.05060 0.03900
C 	C 	0.04744 0.10827 0.07958 -0.05300
C 	C 	0.03479 0.11005 0.09696 0.04600
H 	H 	0.03660 0.10030 0.10790 0.01100
C 	C 	0.06323 0.09207 0.07861 0.13300
N 	N 	0.90997 0.01561 0.13510 -0.22400
N 	N 	0.85465 0.11325 0.27309 -0.26000
N 	N 	0.87328 0.10068 0.23243 -0.22900
N 	N 	0.90943 0.06309 0.17908 -0.15500
N 	N 	0.92023 0.09658 0.18858 -0.15300
N 	N 	0.93849 0.07774 0.16246 -0.15200
N 	N 	0.97512 0.12827 0.14926 -0.23400
N 	N 	0.02033 0.12452 0.09916 -0.22600
N 	N 	0.99898 0.09297 0.12707 -0.26700
N 	N 	0.06313 0.07751 0.09343 -0.15000
S 	S 	0.82743 0.08435 0.29017 -0.06300
S 	S 	0.00359 0.04975 0.12921 -0.06100
C 	C 	0.33990 0.71822 0.64834 0.03700
H 	H 	0.35240 0.71510 0.65570 0.01300
C 	C 	0.32273 0.70583 0.65189 -0.05200
C 	C 	0.30437 0.71049 0.64183 0.01000
H 	H 	0.29240 0.70190 0.64340 0.03700
C 	C 	0.30383 0.72798 0.62938 -0.10000
H 	H 	0.29110 0.73240 0.62330 0.06600
C 	C 	0.32171 0.73901 0.62578 0.05800
H 	H 	0.32120 0.75040 0.61630 0.00100
C 	C 	0.40658 0.64849 0.78100 0.09800
C 	C 	0.39067 0.66484 0.73327 0.06500
H 	H 	0.40120 0.66400 0.74360 -0.00300
C 	C 	0.39077 0.68170 0.72041 -0.10700
H 	H 	0.40150 0.69180 0.72130 0.06800
C 	C 	0.37495 0.68376 0.70611 0.01400
H 	H 	0.37450 0.69530 0.69690 0.03500
C 	C 	0.35954 0.66846 0.70546 -0.05500
C 	C 	0.36115 0.65199 0.71885 0.04300
H 	H 	0.35050 0.64180 0.71850 0.01300
C 	C 	0.34207 0.66996 0.69017 0.14200
C 	C 	0.31478 0.65497 0.67430 0.13600
C 	C 	0.32474 0.68747 0.66537 0.13900
C 	C 	0.28764 0.63717 0.65341 0.04800
H 	H 	0.28740 0.64900 0.64460 0.00900
C 	C 	0.30177 0.63702 0.67038 -0.05800
C 	C 	0.30276 0.61914 0.68212 0.01800
H 	H 	0.31230 0.61810 0.69330 0.03500
C 	C 	0.28981 0.60276 0.67751 -0.11000
H 	H 	0.29040 0.59020 0.68520 0.07100
C 	C 	0.27587 0.60507 0.66138 0.06900
H 	H 	0.26640 0.59400 0.65880 -0.00200
C 	C 	0.24890 0.67448 0.62810 0.10800
C 	C 	0.23247 0.61220 0.58252 0.05200
H 	H 	0.24320 0.60210 0.58350 0.00300
C 	C 	0.22106 0.61274 0.56521 -0.09600
H 	H 	0.22330 0.60280 0.55450 0.06600
C 	C 	0.20561 0.62821 0.56295 0.00500
H 	H 	0.19760 0.62930 0.55060 0.03900
C 	C 	0.20256 0.64173 0.57958 -0.05300
C 	C 	0.21521 0.63995 0.59696 0.04600
H 	H 	0.21340 0.64970 0.60790 0.01100
C 	C 	0.18677 0.65793 0.57861 0.13300
N 	N 	0.34003 0.73439 0.63510 -0.22400
N 	N 	0.39535 0.63675 0.77309 -0.26000
N 	N 	0.37672 0.64932 0.73243 -0.22900
N 	N 	0.34057 0.68691 0.67908 -0.15500
N 	N 	0.32977 0.65342 0.68858 -0.15300
N 	N 	0.31151 0.67226 0.66246 -0.15200
N 	N 	0.27488 0.62173 0.64926 -0.23400
N 	N 	0.22967 0.62548 0.59916 -0.22600
N 	N 	0.25102 0.65703 0.62707 -0.26700
N 	N 	0.18687 0.67249 0.59343 -0.15000
S 	S 	0.42257 0.66565 0.79017 -0.06300
S 	S 	0.24641 0.70025 0.62921 -0.06100
C 	C 	0.33990 0.21822 0.14834 0.03700
H 	H 	0.35240 0.21510 0.15570 0.01300
C 	C 	0.32273 0.20583 0.15189 -0.05200
C 	C 	0.30437 0.21049 0.14183 0.01000
H 	H 	0.29240 0.20190 0.14340 0.03700
C 	C 	0.30383 0.22798 0.12938 -0.10000
H 	H 	0.29110 0.23240 0.12330 0.06600
C 	C 	0.32171 0.23901 0.12578 0.05800
H 	H 	0.32120 0.25040 0.11630 0.00100
C 	C 	0.40658 0.14849 0.28100 0.09800
C 	C 	0.39067 0.16484 0.23327 0.06500
H 	H 	0.40120 0.16400 0.24360 -0.00300
C 	C 	0.39077 0.18170 0.22041 -0.10700
H 	H 	0.40150 0.19180 0.22130 0.06800
C 	C 	0.37495 0.18376 0.20611 0.01400
H 	H 	0.37450 0.19530 0.19690 0.03500
C 	C 	0.35954 0.16846 0.20546 -0.05500
C 	C 	0.36115 0.15199 0.21885 0.04300
H 	H 	0.35050 0.14180 0.21850 0.01300
C 	C 	0.34207 0.16996 0.19017 0.14200
C 	C 	0.31478 0.15497 0.17430 0.13600
C 	C 	0.32474 0.18747 0.16537 0.13900
C 	C 	0.28764 0.13717 0.15341 0.04800
H 	H 	0.28740 0.14900 0.14460 0.00900
C 	C 	0.30177 0.13702 0.17038 -0.05800
C 	C 	0.30276 0.11914 0.18212 0.01800
H 	H 	0.31230 0.11810 0.19330 0.03500
C 	C 	0.28981 0.10276 0.17751 -0.11000
H 	H 	0.29040 0.09020 0.18520 0.07100
C 	C 	0.27587 0.10507 0.16138 0.06900
H 	H 	0.26640 0.09400 0.15880 -0.00200
C 	C 	0.24890 0.17448 0.12810 0.10800
C 	C 	0.23247 0.11220 0.08252 0.05200
H 	H 	0.24320 0.10210 0.08350 0.00300
C 	C 	0.22106 0.11274 0.06521 -0.09600
H 	H 	0.22330 0.10280 0.05450 0.06600
C 	C 	0.20561 0.12821 0.06295 0.00500
H 	H 	0.19760 0.12930 0.05060 0.03900
C 	C 	0.20256 0.14173 0.07958 -0.05300
C 	C 	0.21521 0.13995 0.09696 0.04600
H 	H 	0.21340 0.14970 0.10790 0.01100
C 	C 	0.18677 0.15793 0.07861 0.13300
N 	N 	0.34003 0.23439 0.13510 -0.22400
N 	N 	0.39535 0.13675 0.27309 -0.26000
N 	N 	0.37672 0.14932 0.23243 -0.22900
N 	N 	0.34057 0.18691 0.17908 -0.15500
N 	N 	0.32977 0.15342 0.18858 -0.15300
N 	N 	0.31151 0.17226 0.16246 -0.15200
N 	N 	0.27488 0.12173 0.14926 -0.23400
N 	N 	0.22967 0.12548 0.09916 -0.22600
N 	N 	0.25102 0.15703 0.12707 -0.26700
N 	N 	0.18687 0.17249 0.09343 -0.15000
S 	S 	0.42257 0.16565 0.29017 -0.06300
S 	S 	0.24641 0.20025 0.12921 -0.06100
C 	C 	0.83990 0.71822 0.14834 0.03700
H 	H 	0.85240 0.71510 0.15570 0.01300
C 	C 	0.82273 0.70583 0.15189 -0.05200
C 	C 	0.80437 0.71049 0.14183 0.01000
H 	H 	0.79240 0.70190 0.14340 0.03700
C 	C 	0.80383 0.72798 0.12938 -0.10000
H 	H 	0.79110 0.73240 0.12330 0.06600
C 	C 	0.82171 0.73901 0.12578 0.05800
H 	H 	0.82120 0.75040 0.11630 0.00100
C 	C 	0.90658 0.64849 0.28100 0.09800
C 	C 	0.89067 0.66484 0.23327 0.06500
H 	H 	0.90120 0.66400 0.24360 -0.00300
C 	C 	0.89077 0.68170 0.22041 -0.10700
H 	H 	0.90150 0.69180 0.22130 0.06800
C 	C 	0.87495 0.68376 0.20611 0.01400
H 	H 	0.87450 0.69530 0.19690 0.03500
C 	C 	0.85954 0.66846 0.20546 -0.05500
C 	C 	0.86115 0.65199 0.21885 0.04300
H 	H 	0.85050 0.64180 0.21850 0.01300
C 	C 	0.84207 0.66996 0.19017 0.14200
C 	C 	0.81478 0.65497 0.17430 0.13600
C 	C 	0.82474 0.68747 0.16537 0.13900
C 	C 	0.78764 0.63717 0.15341 0.04800
H 	H 	0.78740 0.64900 0.14460 0.00900
C 	C 	0.80177 0.63702 0.17038 -0.05800
C 	C 	0.80276 0.61914 0.18212 0.01800
H 	H 	0.81230 0.61810 0.19330 0.03500
C 	C 	0.78981 0.60276 0.17751 -0.11000
H 	H 	0.79040 0.59020 0.18520 0.07100
C 	C 	0.77587 0.60507 0.16138 0.06900
H 	H 	0.76640 0.59400 0.15880 -0.00200
C 	C 	0.74890 0.67448 0.12810 0.10800
C 	C 	0.73247 0.61220 0.08252 0.05200
H 	H 	0.74320 0.60210 0.08350 0.00300
C 	C 	0.72106 0.61274 0.06521 -0.09600
H 	H 	0.72330 0.60280 0.05450 0.06600
C 	C 	0.70561 0.62821 0.06295 0.00500
H 	H 	0.69760 0.62930 0.05060 0.03900
C 	C 	0.70256 0.64173 0.07958 -0.05300
C 	C 	0.71521 0.63995 0.09696 0.04600
H 	H 	0.71340 0.64970 0.10790 0.01100
C 	C 	0.68677 0.65793 0.07861 0.13300
N 	N 	0.84003 0.73439 0.13510 -0.22400
N 	N 	0.89535 0.63675 0.27309 -0.26000
N 	N 	0.87672 0.64932 0.23243 -0.22900
N 	N 	0.84057 0.68691 0.17908 -0.15500
N 	N 	0.82977 0.65342 0.18858 -0.15300
N 	N 	0.81151 0.67226 0.16246 -0.15200
N 	N 	0.77488 0.62173 0.14926 -0.23400
N 	N 	0.72967 0.62548 0.09916 -0.22600
N 	N 	0.75102 0.65703 0.12707 -0.26700
N 	N 	0.68687 0.67249 0.09343 -0.15000
S 	S 	0.92257 0.66565 0.29017 -0.06300
S 	S 	0.74641 0.70025 0.12921 -0.06100
C 	C 	0.83990 0.21822 0.64834 0.03700
H 	H 	0.85240 0.21510 0.65570 0.01300
C 	C 	0.82273 0.20583 0.65189 -0.05200
C 	C 	0.80437 0.21049 0.64183 0.01000
H 	H 	0.79240 0.20190 0.64340 0.03700
C 	C 	0.80383 0.22798 0.62938 -0.10000
H 	H 	0.79110 0.23240 0.62330 0.06600
C 	C 	0.82171 0.23901 0.62578 0.05800
H 	H 	0.82120 0.25040 0.61630 0.00100
C 	C 	0.90658 0.14849 0.78100 0.09800
C 	C 	0.89067 0.16484 0.73327 0.06500
H 	H 	0.90120 0.16400 0.74360 -0.00300
C 	C 	0.89077 0.18170 0.72041 -0.10700
H 	H 	0.90150 0.19180 0.72130 0.06800
C 	C 	0.87495 0.18376 0.70611 0.01400
H 	H 	0.87450 0.19530 0.69690 0.03500
C 	C 	0.85954 0.16846 0.70546 -0.05500
C 	C 	0.86115 0.15199 0.71885 0.04300
H 	H 	0.85050 0.14180 0.71850 0.01300
C 	C 	0.84207 0.16996 0.69017 0.14200
C 	C 	0.81478 0.15497 0.67430 0.13600
C 	C 	0.82474 0.18747 0.66537 0.13900
C 	C 	0.78764 0.13717 0.65341 0.04800
H 	H 	0.78740 0.14900 0.64460 0.00900
C 	C 	0.80177 0.13702 0.67038 -0.05800
C 	C 	0.80276 0.11914 0.68212 0.01800
H 	H 	0.81230 0.11810 0.69330 0.03500
C 	C 	0.78981 0.10276 0.67751 -0.11000
H 	H 	0.79040 0.09020 0.68520 0.07100
C 	C 	0.77587 0.10507 0.66138 0.06900
H 	H 	0.76640 0.09400 0.65880 -0.00200
C 	C 	0.74890 0.17448 0.62810 0.10800
C 	C 	0.73247 0.11220 0.58252 0.05200
H 	H 	0.74320 0.10210 0.58350 0.00300
C 	C 	0.72106 0.11274 0.56521 -0.09600
H 	H 	0.72330 0.10280 0.55450 0.06600
C 	C 	0.70561 0.12821 0.56295 0.00500
H 	H 	0.69760 0.12930 0.55060 0.03900
C 	C 	0.70256 0.14173 0.57958 -0.05300
C 	C 	0.71521 0.13995 0.59696 0.04600
H 	H 	0.71340 0.14970 0.60790 0.01100
C 	C 	0.68677 0.15793 0.57861 0.13300
N 	N 	0.84003 0.23439 0.63510 -0.22400
N 	N 	0.89535 0.13675 0.77309 -0.26000
N 	N 	0.87672 0.14932 0.73243 -0.22900
N 	N 	0.84057 0.18691 0.67908 -0.15500
N 	N 	0.82977 0.15342 0.68858 -0.15300
N 	N 	0.81151 0.17226 0.66246 -0.15200
N 	N 	0.77488 0.12173 0.64926 -0.23400
N 	N 	0.72967 0.12548 0.59916 -0.22600
N 	N 	0.75102 0.15703 0.62707 -0.26700
N 	N 	0.68687 0.17249 0.59343 -0.15000
S 	S 	0.92257 0.16565 0.79017 -0.06300
S 	S 	0.74641 0.20025 0.62921 -0.06100
C 	C 	0.71822 0.64834 0.33990 0.03700
H 	H 	0.71510 0.65570 0.35240 0.01300
C 	C 	0.70583 0.65189 0.32273 -0.05200
C 	C 	0.71049 0.64183 0.30437 0.01000
H 	H 	0.70190 0.64340 0.29240 0.03700
C 	C 	0.72798 0.62938 0.30383 -0.10000
H 	H 	0.73240 0.62330 0.29110 0.06600
C 	C 	0.73901 0.62578 0.32171 0.05800
H 	H 	0.75040 0.61630 0.32120 0.00100
C 	C 	0.64849 0.78100 0.40658 0.09800
C 	C 	0.66484 0.73327 0.39067 0.06500
H 	H 	0.66400 0.74360 0.40120 -0.00300
C 	C 	0.68170 0.72041 0.39077 -0.10700
H 	H 	0.69180 0.72130 0.40150 0.06800
C 	C 	0.68376 0.70611 0.37495 0.01400
H 	H 	0.69530 0.69690 0.37450 0.03500
C 	C 	0.66846 0.70546 0.35954 -0.05500
C 	C 	0.65199 0.71885 0.36115 0.04300
H 	H 	0.64180 0.71850 0.35050 0.01300
C 	C 	0.66996 0.69017 0.34207 0.14200
C 	C 	0.65497 0.67430 0.31478 0.13600
C 	C 	0.68747 0.66537 0.32474 0.13900
C 	C 	0.63717 0.65341 0.28764 0.04800
H 	H 	0.64900 0.64460 0.28740 0.00900
C 	C 	0.63702 0.67038 0.30177 -0.05800
C 	C 	0.61914 0.68212 0.30276 0.01800
H 	H 	0.61810 0.69330 0.31230 0.03500
C 	C 	0.60276 0.67751 0.28981 -0.11000
H 	H 	0.59020 0.68520 0.29040 0.07100
C 	C 	0.60507 0.66138 0.27587 0.06900
H 	H 	0.59400 0.65880 0.26640 -0.00200
C 	C 	0.67448 0.62810 0.24890 0.10800
C 	C 	0.61220 0.58252 0.23247 0.05200
H 	H 	0.60210 0.58350 0.24320 0.00300
C 	C 	0.61274 0.56521 0.22106 -0.09600
H 	H 	0.60280 0.55450 0.22330 0.06600
C 	C 	0.62821 0.56295 0.20561 0.00500
H 	H 	0.62930 0.55060 0.19760 0.03900
C 	C 	0.64173 0.57958 0.20256 -0.05300
C 	C 	0.63995 0.59696 0.21521 0.04600
H 	H 	0.64970 0.60790 0.21340 0.01100
C 	C 	0.65793 0.57861 0.18677 0.13300
N 	N 	0.73439 0.63510 0.34003 -0.22400
N 	N 	0.63675 0.77309 0.39535 -0.26000
N 	N 	0.64932 0.73243 0.37672 -0.22900
N 	N 	0.68691 0.67908 0.34057 -0.15500
N 	N 	0.65342 0.68858 0.32977 -0.15300
N 	N 	0.67226 0.66246 0.31151 -0.15200
N 	N 	0.62173 0.64926 0.27488 -0.23400
N 	N 	0.62548 0.59916 0.22967 -0.22600
N 	N 	0.65703 0.62707 0.25102 -0.26700
N 	N 	0.67249 0.59343 0.18687 -0.15000
S 	S 	0.66565 0.79017 0.42257 -0.06300
S 	S 	0.70025 0.62921 0.24641 -0.06100
C 	C 	0.71822 0.14834 0.83990 0.03700
H 	H 	0.71510 0.15570 0.85240 0.01300
C 	C 	0.70583 0.15189 0.82273 -0.05200
C 	C 	0.71049 0.14183 0.80437 0.01000
H 	H 	0.70190 0.14340 0.79240 0.03700
C 	C 	0.72798 0.12938 0.80383 -0.10000
H 	H 	0.73240 0.12330 0.79110 0.06600
C 	C 	0.73901 0.12578 0.82171 0.05800
H 	H 	0.75040 0.11630 0.82120 0.00100
C 	C 	0.64849 0.28100 0.90658 0.09800
C 	C 	0.66484 0.23327 0.89067 0.06500
H 	H 	0.66400 0.24360 0.90120 -0.00300
C 	C 	0.68170 0.22041 0.89077 -0.10700
H 	H 	0.69180 0.22130 0.90150 0.06800
C 	C 	0.68376 0.20611 0.87495 0.01400
H 	H 	0.69530 0.19690 0.87450 0.03500
C 	C 	0.66846 0.20546 0.85954 -0.05500
C 	C 	0.65199 0.21885 0.86115 0.04300
H 	H 	0.64180 0.21850 0.85050 0.01300
C 	C 	0.66996 0.19017 0.84207 0.14200
C 	C 	0.65497 0.17430 0.81478 0.13600
C 	C 	0.68747 0.16537 0.82474 0.13900
C 	C 	0.63717 0.15341 0.78764 0.04800
H 	H 	0.64900 0.14460 0.78740 0.00900
C 	C 	0.63702 0.17038 0.80177 -0.05800
C 	C 	0.61914 0.18212 0.80276 0.01800
H 	H 	0.61810 0.19330 0.81230 0.03500
C 	C 	0.60276 0.17751 0.78981 -0.11000
H 	H 	0.59020 0.18520 0.79040 0.07100
C 	C 	0.60507 0.16138 0.77587 0.06900
H 	H 	0.59400 0.15880 0.76640 -0.00200
C 	C 	0.67448 0.12810 0.74890 0.10800
C 	C 	0.61220 0.08252 0.73247 0.05200
H 	H 	0.60210 0.08350 0.74320 0.00300
C 	C 	0.61274 0.06521 0.72106 -0.09600
H 	H 	0.60280 0.05450 0.72330 0.06600
C 	C 	0.62821 0.06295 0.70561 0.00500
H 	H 	0.62930 0.05060 0.69760 0.03900
C 	C 	0.64173 0.07958 0.70256 -0.05300
C 	C 	0.63995 0.09696 0.71521 0.04600
H 	H 	0.64970 0.10790 0.71340 0.01100
C 	C 	0.65793 0.07861 0.68677 0.13300
N 	N 	0.73439 0.13510 0.84003 -0.22400
N 	N 	0.63675 0.27309 0.89535 -0.26000
N 	N 	0.64932 0.23243 0.87672 -0.22900
N 	N 	0.68691 0.17908 0.84057 -0.15500
N 	N 	0.65342 0.18858 0.82977 -0.15300
N 	N 	0.67226 0.16246 0.81151 -0.15200
N 	N 	0.62173 0.14926 0.77488 -0.23400
N 	N 	0.62548 0.09916 0.72967 -0.22600
N 	N 	0.65703 0.12707 0.75102 -0.26700
N 	N 	0.67249 0.09343 0.68687 -0.15000
S 	S 	0.66565 0.29017 0.92257 -0.06300
S 	S 	0.70025 0.12921 0.74641 -0.06100
C 	C 	0.21822 0.64834 0.83990 0.03700
H 	H 	0.21510 0.65570 0.85240 0.01300
C 	C 	0.20583 0.65189 0.82273 -0.05200
C 	C 	0.21049 0.64183 0.80437 0.01000
H 	H 	0.20190 0.64340 0.79240 0.03700
C 	C 	0.22798 0.62938 0.80383 -0.10000
H 	H 	0.23240 0.62330 0.79110 0.06600
C 	C 	0.23901 0.62578 0.82171 0.05800
H 	H 	0.25040 0.61630 0.82120 0.00100
C 	C 	0.14849 0.78100 0.90658 0.09800
C 	C 	0.16484 0.73327 0.89067 0.06500
H 	H 	0.16400 0.74360 0.90120 -0.00300
C 	C 	0.18170 0.72041 0.89077 -0.10700
H 	H 	0.19180 0.72130 0.90150 0.06800
C 	C 	0.18376 0.70611 0.87495 0.01400
H 	H 	0.19530 0.69690 0.87450 0.03500
C 	C 	0.16846 0.70546 0.85954 -0.05500
C 	C 	0.15199 0.71885 0.86115 0.04300
H 	H 	0.14180 0.71850 0.85050 0.01300
C 	C 	0.16996 0.69017 0.84207 0.14200
C 	C 	0.15497 0.67430 0.81478 0.13600
C 	C 	0.18747 0.66537 0.82474 0.13900
C 	C 	0.13717 0.65341 0.78764 0.04800
H 	H 	0.14900 0.64460 0.78740 0.00900
C 	C 	0.13702 0.67038 0.80177 -0.05800
C 	C 	0.11914 0.68212 0.80276 0.01800
H 	H 	0.11810 0.69330 0.81230 0.03500
C 	C 	0.10276 0.67751 0.78981 -0.11000
H 	H 	0.09020 0.68520 0.79040 0.07100
C 	C 	0.10507 0.66138 0.77587 0.06900
H 	H 	0.09400 0.65880 0.76640 -0.00200
C 	C 	0.17448 0.62810 0.74890 0.10800
C 	C 	0.11220 0.58252 0.73247 0.05200
H 	H 	0.10210 0.58350 0.74320 0.00300
C 	C 	0.11274 0.56521 0.72106 -0.09600
H 	H 	0.10280 0.55450 0.72330 0.06600
C 	C 	0.12821 0.56295 0.70561 0.00500
H 	H 	0.12930 0.55060 0.69760 0.03900
C 	C 	0.14173 0.57958 0.70256 -0.05300
C 	C 	0.13995 0.59696 0.71521 0.04600
H 	H 	0.14970 0.60790 0.71340 0.01100
C 	C 	0.15793 0.57861 0.68677 0.13300
N 	N 	0.23439 0.63510 0.84003 -0.22400
N 	N 	0.13675 0.77309 0.89535 -0.26000
N 	N 	0.14932 0.73243 0.87672 -0.22900
N 	N 	0.18691 0.67908 0.84057 -0.15500
N 	N 	0.15342 0.68858 0.82977 -0.15300
N 	N 	0.17226 0.66246 0.81151 -0.15200
N 	N 	0.12173 0.64926 0.77488 -0.23400
N 	N 	0.12548 0.59916 0.72967 -0.22600
N 	N 	0.15703 0.62707 0.75102 -0.26700
N 	N 	0.17249 0.59343 0.68687 -0.15000
S 	S 	0.16565 0.79017 0.92257 -0.06300
S 	S 	0.20025 0.62921 0.74641 -0.06100
C 	C 	0.21822 0.14834 0.33990 0.03700
H 	H 	0.21510 0.15570 0.35240 0.01300
C 	C 	0.20583 0.15189 0.32273 -0.05200
C 	C 	0.21049 0.14183 0.30437 0.01000
H 	H 	0.20190 0.14340 0.29240 0.03700
C 	C 	0.22798 0.12938 0.30383 -0.10000
H 	H 	0.23240 0.12330 0.29110 0.06600
C 	C 	0.23901 0.12578 0.32171 0.05800
H 	H 	0.25040 0.11630 0.32120 0.00100
C 	C 	0.14849 0.28100 0.40658 0.09800
C 	C 	0.16484 0.23327 0.39067 0.06500
H 	H 	0.16400 0.24360 0.40120 -0.00300
C 	C 	0.18170 0.22041 0.39077 -0.10700
H 	H 	0.19180 0.22130 0.40150 0.06800
C 	C 	0.18376 0.20611 0.37495 0.01400
H 	H 	0.19530 0.19690 0.37450 0.03500
C 	C 	0.16846 0.20546 0.35954 -0.05500
C 	C 	0.15199 0.21885 0.36115 0.04300
H 	H 	0.14180 0.21850 0.35050 0.01300
C 	C 	0.16996 0.19017 0.34207 0.14200
C 	C 	0.15497 0.17430 0.31478 0.13600
C 	C 	0.18747 0.16537 0.32474 0.13900
C 	C 	0.13717 0.15341 0.28764 0.04800
H 	H 	0.14900 0.14460 0.28740 0.00900
C 	C 	0.13702 0.17038 0.30177 -0.05800
C 	C 	0.11914 0.18212 0.30276 0.01800
H 	H 	0.11810 0.19330 0.31230 0.03500
C 	C 	0.10276 0.17751 0.28981 -0.11000
H 	H 	0.09020 0.18520 0.29040 0.07100
C 	C 	0.10507 0.16138 0.27587 0.06900
H 	H 	0.09400 0.15880 0.26640 -0.00200
C 	C 	0.17448 0.12810 0.24890 0.10800
C 	C 	0.11220 0.08252 0.23247 0.05200
H 	H 	0.10210 0.08350 0.24320 0.00300
C 	C 	0.11274 0.06521 0.22106 -0.09600
H 	H 	0.10280 0.05450 0.22330 0.06600
C 	C 	0.12821 0.06295 0.20561 0.00500
H 	H 	0.12930 0.05060 0.19760 0.03900
C 	C 	0.14173 0.07958 0.20256 -0.05300
C 	C 	0.13995 0.09696 0.21521 0.04600
H 	H 	0.14970 0.10790 0.21340 0.01100
C 	C 	0.15793 0.07861 0.18677 0.13300
N 	N 	0.23439 0.13510 0.34003 -0.22400
N 	N 	0.13675 0.27309 0.39535 -0.26000
N 	N 	0.14932 0.23243 0.37672 -0.22900
N 	N 	0.18691 0.17908 0.34057 -0.15500
N 	N 	0.15342 0.18858 0.32977 -0.15300
N 	N 	0.17226 0.16246 0.31151 -0.15200
N 	N 	0.12173 0.14926 0.27488 -0.23400
N 	N 	0.12548 0.09916 0.22967 -0.22600
N 	N 	0.15703 0.12707 0.25102 -0.26700
N 	N 	0.17249 0.09343 0.18687 -0.15000
S 	S 	0.16565 0.29017 0.42257 -0.06300
S 	S 	0.20025 0.12921 0.24641 -0.06100
C 	C 	0.53178 0.14834 0.41010 0.03700
H 	H 	0.53490 0.15570 0.39760 0.01300
C 	C 	0.54417 0.15189 0.42727 -0.05200
C 	C 	0.53951 0.14183 0.44563 0.01000
H 	H 	0.54810 0.14340 0.45760 0.03700
C 	C 	0.52202 0.12938 0.44617 -0.10000
H 	H 	0.51760 0.12330 0.45890 0.06600
C 	C 	0.51099 0.12578 0.42829 0.05800
H 	H 	0.49960 0.11630 0.42880 0.00100
C 	C 	0.60151 0.28100 0.34342 0.09800
C 	C 	0.58516 0.23327 0.35933 0.06500
H 	H 	0.58600 0.24360 0.34880 -0.00300
C 	C 	0.56830 0.22041 0.35923 -0.10700
H 	H 	0.55820 0.22130 0.34850 0.06800
C 	C 	0.56624 0.20611 0.37505 0.01400
H 	H 	0.55470 0.19690 0.37550 0.03500
C 	C 	0.58154 0.20546 0.39046 -0.05500
C 	C 	0.59801 0.21885 0.38885 0.04300
H 	H 	0.60820 0.21850 0.39950 0.01300
C 	C 	0.58004 0.19017 0.40793 0.14200
C 	C 	0.59503 0.17430 0.43522 0.13600
C 	C 	0.56253 0.16537 0.42526 0.13900
C 	C 	0.61283 0.15341 0.46236 0.04800
H 	H 	0.60100 0.14460 0.46260 0.00900
C 	C 	0.61298 0.17038 0.44823 -0.05800
C 	C 	0.63086 0.18212 0.44724 0.01800
H 	H 	0.63190 0.19330 0.43770 0.03500
C 	C 	0.64724 0.17751 0.46019 -0.11000
H 	H 	0.65980 0.18520 0.45960 0.07100
C 	C 	0.64493 0.16138 0.47413 0.06900
H 	H 	0.65600 0.15880 0.48360 -0.00200
C 	C 	0.57552 0.12810 0.50110 0.10800
C 	C 	0.63780 0.08252 0.51753 0.05200
H 	H 	0.64790 0.08350 0.50680 0.00300
C 	C 	0.63726 0.06521 0.52894 -0.09600
H 	H 	0.64720 0.05450 0.52670 0.06600
C 	C 	0.62179 0.06295 0.54439 0.00500
H 	H 	0.62070 0.05060 0.55240 0.03900
C 	C 	0.60827 0.07958 0.54744 -0.05300
C 	C 	0.61005 0.09696 0.53479 0.04600
H 	H 	0.60030 0.10790 0.53660 0.01100
C 	C 	0.59207 0.07861 0.56323 0.13300
N 	N 	0.51561 0.13510 0.40997 -0.22400
N 	N 	0.61325 0.27309 0.35465 -0.26000
N 	N 	0.60068 0.23243 0.37328 -0.22900
N 	N 	0.56309 0.17908 0.40943 -0.15500
N 	N 	0.59658 0.18858 0.42023 -0.15300
N 	N 	0.57774 0.16246 0.43849 -0.15200
N 	N 	0.62827 0.14926 0.47512 -0.23400
N 	N 	0.62452 0.09916 0.52033 -0.22600
N 	N 	0.59297 0.12707 0.49898 -0.26700
N 	N 	0.57751 0.09343 0.56313 -0.15000
S 	S 	0.58435 0.29017 0.32743 -0.06300
S 	S 	0.54975 0.12921 0.50359 -0.06100
C 	C 	0.53178 0.64834 0.91010 0.03700
H 	H 	0.53490 0.65570 0.89760 0.01300
C 	C 	0.54417 0.65189 0.92727 -0.05200
C 	C 	0.53951 0.64183 0.94563 0.01000
H 	H 	0.54810 0.64340 0.95760 0.03700
C 	C 	0.52202 0.62938 0.94617 -0.10000
H 	H 	0.51760 0.62330 0.95890 0.06600
C 	C 	0.51099 0.62578 0.92829 0.05800
H 	H 	0.49960 0.61630 0.92880 0.00100
C 	C 	0.60151 0.78100 0.84342 0.09800
C 	C 	0.58516 0.73327 0.85933 0.06500
H 	H 	0.58600 0.74360 0.84880 -0.00300
C 	C 	0.56830 0.72041 0.85923 -0.10700
H 	H 	0.55820 0.72130 0.84850 0.06800
C 	C 	0.56624 0.70611 0.87505 0.01400
H 	H 	0.55470 0.69690 0.87550 0.03500
C 	C 	0.58154 0.70546 0.89046 -0.05500
C 	C 	0.59801 0.71885 0.88885 0.04300
H 	H 	0.60820 0.71850 0.89950 0.01300
C 	C 	0.58004 0.69017 0.90793 0.14200
C 	C 	0.59503 0.67430 0.93522 0.13600
C 	C 	0.56253 0.66537 0.92526 0.13900
C 	C 	0.61283 0.65341 0.96236 0.04800
H 	H 	0.60100 0.64460 0.96260 0.00900
C 	C 	0.61298 0.67038 0.94823 -0.05800
C 	C 	0.63086 0.68212 0.94724 0.01800
H 	H 	0.63190 0.69330 0.93770 0.03500
C 	C 	0.64724 0.67751 0.96019 -0.11000
H 	H 	0.65980 0.68520 0.95960 0.07100
C 	C 	0.64493 0.66138 0.97413 0.06900
H 	H 	0.65600 0.65880 0.98360 -0.00200
C 	C 	0.57552 0.62810 0.00110 0.10800
C 	C 	0.63780 0.58252 0.01753 0.05200
H 	H 	0.64790 0.58350 0.00680 0.00300
C 	C 	0.63726 0.56521 0.02894 -0.09600
H 	H 	0.64720 0.55450 0.02670 0.06600
C 	C 	0.62179 0.56295 0.04439 0.00500
H 	H 	0.62070 0.55060 0.05240 0.03900
C 	C 	0.60827 0.57958 0.04744 -0.05300
C 	C 	0.61005 0.59696 0.03479 0.04600
H 	H 	0.60030 0.60790 0.03660 0.01100
C 	C 	0.59207 0.57861 0.06323 0.13300
N 	N 	0.51561 0.63510 0.90997 -0.22400
N 	N 	0.61325 0.77309 0.85465 -0.26000
N 	N 	0.60068 0.73243 0.87328 -0.22900
N 	N 	0.56309 0.67908 0.90943 -0.15500
N 	N 	0.59658 0.68858 0.92023 -0.15300
N 	N 	0.57774 0.66246 0.93849 -0.15200
N 	N 	0.62827 0.64926 0.97512 -0.23400
N 	N 	0.62452 0.59916 0.02033 -0.22600
N 	N 	0.59297 0.62707 0.99898 -0.26700
N 	N 	0.57751 0.59343 0.06313 -0.15000
S 	S 	0.58435 0.79017 0.82743 -0.06300
S 	S 	0.54975 0.62921 0.00359 -0.06100
C 	C 	0.03178 0.14834 0.91010 0.03700
H 	H 	0.03490 0.15570 0.89760 0.01300
C 	C 	0.04417 0.15189 0.92727 -0.05200
C 	C 	0.03951 0.14183 0.94563 0.01000
H 	H 	0.04810 0.14340 0.95760 0.03700
C 	C 	0.02202 0.12938 0.94617 -0.10000
H 	H 	0.01760 0.12330 0.95890 0.06600
C 	C 	0.01099 0.12578 0.92829 0.05800
H 	H 	0.99960 0.11630 0.92880 0.00100
C 	C 	0.10151 0.28100 0.84342 0.09800
C 	C 	0.08516 0.23327 0.85933 0.06500
H 	H 	0.08600 0.24360 0.84880 -0.00300
C 	C 	0.06830 0.22041 0.85923 -0.10700
H 	H 	0.05820 0.22130 0.84850 0.06800
C 	C 	0.06624 0.20611 0.87505 0.01400
H 	H 	0.05470 0.19690 0.87550 0.03500
C 	C 	0.08154 0.20546 0.89046 -0.05500
C 	C 	0.09801 0.21885 0.88885 0.04300
H 	H 	0.10820 0.21850 0.89950 0.01300
C 	C 	0.08004 0.19017 0.90793 0.14200
C 	C 	0.09503 0.17430 0.93522 0.13600
C 	C 	0.06253 0.16537 0.92526 0.13900
C 	C 	0.11283 0.15341 0.96236 0.04800
H 	H 	0.10100 0.14460 0.96260 0.00900
C 	C 	0.11298 0.17038 0.94823 -0.05800
C 	C 	0.13086 0.18212 0.94724 0.01800
H 	H 	0.13190 0.19330 0.93770 0.03500
C 	C 	0.14724 0.17751 0.96019 -0.11000
H 	H 	0.15980 0.18520 0.95960 0.07100
C 	C 	0.14493 0.16138 0.97413 0.06900
H 	H 	0.15600 0.15880 0.98360 -0.00200
C 	C 	0.07552 0.12810 0.00110 0.10800
C 	C 	0.13780 0.08252 0.01753 0.05200
H 	H 	0.14790 0.08350 0.00680 0.00300
C 	C 	0.13726 0.06521 0.02894 -0.09600
H 	H 	0.14720 0.05450 0.02670 0.06600
C 	C 	0.12179 0.06295 0.04439 0.00500
H 	H 	0.12070 0.05060 0.05240 0.03900
C 	C 	0.10827 0.07958 0.04744 -0.05300
C 	C 	0.11005 0.09696 0.03479 0.04600
H 	H 	0.10030 0.10790 0.03660 0.01100
C 	C 	0.09207 0.07861 0.06323 0.13300
N 	N 	0.01561 0.13510 0.90997 -0.22400
N 	N 	0.11325 0.27309 0.85465 -0.26000
N 	N 	0.10068 0.23243 0.87328 -0.22900
N 	N 	0.06309 0.17908 0.90943 -0.15500
N 	N 	0.09658 0.18858 0.92023 -0.15300
N 	N 	0.07774 0.16246 0.93849 -0.15200
N 	N 	0.12827 0.14926 0.97512 -0.23400
N 	N 	0.12452 0.09916 0.02033 -0.22600
N 	N 	0.09297 0.12707 0.99898 -0.26700
N 	N 	0.07751 0.09343 0.06313 -0.15000
S 	S 	0.08435 0.29017 0.82743 -0.06300
S 	S 	0.04975 0.12921 0.00359 -0.06100
C 	C 	0.03178 0.64834 0.41010 0.03700
H 	H 	0.03490 0.65570 0.39760 0.01300
C 	C 	0.04417 0.65189 0.42727 -0.05200
C 	C 	0.03951 0.64183 0.44563 0.01000
H 	H 	0.04810 0.64340 0.45760 0.03700
C 	C 	0.02202 0.62938 0.44617 -0.10000
H 	H 	0.01760 0.62330 0.45890 0.06600
C 	C 	0.01099 0.62578 0.42829 0.05800
H 	H 	0.99960 0.61630 0.42880 0.00100
C 	C 	0.10151 0.78100 0.34342 0.09800
C 	C 	0.08516 0.73327 0.35933 0.06500
H 	H 	0.08600 0.74360 0.34880 -0.00300
C 	C 	0.06830 0.72041 0.35923 -0.10700
H 	H 	0.05820 0.72130 0.34850 0.06800
C 	C 	0.06624 0.70611 0.37505 0.01400
H 	H 	0.05470 0.69690 0.37550 0.03500
C 	C 	0.08154 0.70546 0.39046 -0.05500
C 	C 	0.09801 0.71885 0.38885 0.04300
H 	H 	0.10820 0.71850 0.39950 0.01300
C 	C 	0.08004 0.69017 0.40793 0.14200
C 	C 	0.09503 0.67430 0.43522 0.13600
C 	C 	0.06253 0.66537 0.42526 0.13900
C 	C 	0.11283 0.65341 0.46236 0.04800
H 	H 	0.10100 0.64460 0.46260 0.00900
C 	C 	0.11298 0.67038 0.44823 -0.05800
C 	C 	0.13086 0.68212 0.44724 0.01800
H 	H 	0.13190 0.69330 0.43770 0.03500
C 	C 	0.14724 0.67751 0.46019 -0.11000
H 	H 	0.15980 0.68520 0.45960 0.07100
C 	C 	0.14493 0.66138 0.47413 0.06900
H 	H 	0.15600 0.65880 0.48360 -0.00200
C 	C 	0.07552 0.62810 0.50110 0.10800
C 	C 	0.13780 0.58252 0.51753 0.05200
H 	H 	0.14790 0.58350 0.50680 0.00300
C 	C 	0.13726 0.56521 0.52894 -0.09600
H 	H 	0.14720 0.55450 0.52670 0.06600
C 	C 	0.12179 0.56295 0.54439 0.00500
H 	H 	0.12070 0.55060 0.55240 0.03900
C 	C 	0.10827 0.57958 0.54744 -0.05300
C 	C 	0.11005 0.59696 0.53479 0.04600
H 	H 	0.10030 0.60790 0.53660 0.01100
C 	C 	0.09207 0.57861 0.56323 0.13300
N 	N 	0.01561 0.63510 0.40997 -0.22400
N 	N 	0.11325 0.77309 0.35465 -0.26000
N 	N 	0.10068 0.73243 0.37328 -0.22900
N 	N 	0.06309 0.67908 0.40943 -0.15500
N 	N 	0.09658 0.68858 0.42023 -0.15300
N 	N 	0.07774 0.66246 0.43849 -0.15200
N 	N 	0.12827 0.64926 0.47512 -0.23400
N 	N 	0.12452 0.59916 0.52033 -0.22600
N 	N 	0.09297 0.62707 0.49898 -0.26700
N 	N 	0.07751 0.59343 0.56313 -0.15000
S 	S 	0.08435 0.79017 0.32743 -0.06300
S 	S 	0.04975 0.62921 0.50359 -0.06100
C 	C 	0.03178 0.60166 0.83990 0.03700
H 	H 	0.03490 0.59430 0.85240 0.01300
C 	C 	0.04417 0.59811 0.82273 -0.05200
C 	C 	0.03951 0.60817 0.80437 0.01000
H 	H 	0.04810 0.60660 0.79240 0.03700
C 	C 	0.02202 0.62062 0.80383 -0.10000
H 	H 	0.01760 0.62670 0.79110 0.06600
C 	C 	0.01099 0.62422 0.82171 0.05800
H 	H 	0.99960 0.63370 0.82120 0.00100
C 	C 	0.10151 0.46900 0.90658 0.09800
C 	C 	0.08516 0.51673 0.89067 0.06500
H 	H 	0.08600 0.50640 0.90120 -0.00300
C 	C 	0.06830 0.52959 0.89077 -0.10700
H 	H 	0.05820 0.52870 0.90150 0.06800
C 	C 	0.06624 0.54389 0.87495 0.01400
H 	H 	0.05470 0.55310 0.87450 0.03500
C 	C 	0.08154 0.54454 0.85954 -0.05500
C 	C 	0.09801 0.53115 0.86115 0.04300
H 	H 	0.10820 0.53150 0.85050 0.01300
C 	C 	0.08004 0.55983 0.84207 0.14200
C 	C 	0.09503 0.57570 0.81478 0.13600
C 	C 	0.06253 0.58463 0.82474 0.13900
C 	C 	0.11283 0.59659 0.78764 0.04800
H 	H 	0.10100 0.60540 0.78740 0.00900
C 	C 	0.11298 0.57962 0.80177 -0.05800
C 	C 	0.13086 0.56788 0.80276 0.01800
H 	H 	0.13190 0.55670 0.81230 0.03500
C 	C 	0.14724 0.57249 0.78981 -0.11000
H 	H 	0.15980 0.56480 0.79040 0.07100
C 	C 	0.14493 0.58862 0.77587 0.06900
H 	H 	0.15600 0.59120 0.76640 -0.00200
C 	C 	0.07552 0.62190 0.74890 0.10800
C 	C 	0.13780 0.66748 0.73247 0.05200
H 	H 	0.14790 0.66650 0.74320 0.00300
C 	C 	0.13726 0.68479 0.72106 -0.09600
H 	H 	0.14720 0.69550 0.72330 0.06600
C 	C 	0.12179 0.68705 0.70561 0.00500
H 	H 	0.12070 0.69940 0.69760 0.03900
C 	C 	0.10827 0.67042 0.70256 -0.05300
C 	C 	0.11005 0.65304 0.71521 0.04600
H 	H 	0.10030 0.64210 0.71340 0.01100
C 	C 	0.09207 0.67139 0.68677 0.13300
N 	N 	0.01561 0.61490 0.84003 -0.22400
N 	N 	0.11325 0.47691 0.89535 -0.26000
N 	N 	0.10068 0.51757 0.87672 -0.22900
N 	N 	0.06309 0.57092 0.84057 -0.15500
N 	N 	0.09658 0.56142 0.82977 -0.15300
N 	N 	0.07774 0.58754 0.81151 -0.15200
N 	N 	0.12827 0.60074 0.77488 -0.23400
N 	N 	0.12452 0.65084 0.72967 -0.22600
N 	N 	0.09297 0.62293 0.75102 -0.26700
N 	N 	0.07751 0.65657 0.68687 -0.15000
S 	S 	0.08435 0.45983 0.92257 -0.06300
S 	S 	0.04975 0.62079 0.74641 -0.06100
C 	C 	0.03178 0.10166 0.33990 0.03700
H 	H 	0.03490 0.09430 0.35240 0.01300
C 	C 	0.04417 0.09811 0.32273 -0.05200
C 	C 	0.03951 0.10817 0.30437 0.01000
H 	H 	0.04810 0.10660 0.29240 0.03700
C 	C 	0.02202 0.12062 0.30383 -0.10000
H 	H 	0.01760 0.12670 0.29110 0.06600
C 	C 	0.01099 0.12422 0.32171 0.05800
H 	H 	0.99960 0.13370 0.32120 0.00100
C 	C 	0.10151 0.96900 0.40658 0.09800
C 	C 	0.08516 0.01673 0.39067 0.06500
H 	H 	0.08600 0.00640 0.40120 -0.00300
C 	C 	0.06830 0.02959 0.39077 -0.10700
H 	H 	0.05820 0.02870 0.40150 0.06800
C 	C 	0.06624 0.04389 0.37495 0.01400
H 	H 	0.05470 0.05310 0.37450 0.03500
C 	C 	0.08154 0.04454 0.35954 -0.05500
C 	C 	0.09801 0.03115 0.36115 0.04300
H 	H 	0.10820 0.03150 0.35050 0.01300
C 	C 	0.08004 0.05983 0.34207 0.14200
C 	C 	0.09503 0.07570 0.31478 0.13600
C 	C 	0.06253 0.08463 0.32474 0.13900
C 	C 	0.11283 0.09659 0.28764 0.04800
H 	H 	0.10100 0.10540 0.28740 0.00900
C 	C 	0.11298 0.07962 0.30177 -0.05800
C 	C 	0.13086 0.06788 0.30276 0.01800
H 	H 	0.13190 0.05670 0.31230 0.03500
C 	C 	0.14724 0.07249 0.28981 -0.11000
H 	H 	0.15980 0.06480 0.29040 0.07100
C 	C 	0.14493 0.08862 0.27587 0.06900
H 	H 	0.15600 0.09120 0.26640 -0.00200
C 	C 	0.07552 0.12190 0.24890 0.10800
C 	C 	0.13780 0.16748 0.23247 0.05200
H 	H 	0.14790 0.16650 0.24320 0.00300
C 	C 	0.13726 0.18479 0.22106 -0.09600
H 	H 	0.14720 0.19550 0.22330 0.06600
C 	C 	0.12179 0.18705 0.20561 0.00500
H 	H 	0.12070 0.19940 0.19760 0.03900
C 	C 	0.10827 0.17042 0.20256 -0.05300
C 	C 	0.11005 0.15304 0.21521 0.04600
H 	H 	0.10030 0.14210 0.21340 0.01100
C 	C 	0.09207 0.17139 0.18677 0.13300
N 	N 	0.01561 0.11490 0.34003 -0.22400
N 	N 	0.11325 0.97691 0.39535 -0.26000
N 	N 	0.10068 0.01757 0.37672 -0.22900
N 	N 	0.06309 0.07092 0.34057 -0.15500
N 	N 	0.09658 0.06142 0.32977 -0.15300
N 	N 	0.07774 0.08754 0.31151 -0.15200
N 	N 	0.12827 0.10074 0.27488 -0.23400
N 	N 	0.12452 0.15084 0.22967 -0.22600
N 	N 	0.09297 0.12293 0.25102 -0.26700
N 	N 	0.07751 0.15657 0.18687 -0.15000
S 	S 	0.08435 0.95983 0.42257 -0.06300
S 	S 	0.04975 0.12079 0.24641 -0.06100
C 	C 	0.53178 0.60166 0.33990 0.03700
H 	H 	0.53490 0.59430 0.35240 0.01300
C 	C 	0.54417 0.59811 0.32273 -0.05200
C 	C 	0.53951 0.60817 0.30437 0.01000
H 	H 	0.54810 0.60660 0.29240 0.03700
C 	C 	0.52202 0.62062 0.30383 -0.10000
H 	H 	0.51760 0.62670 0.29110 0.06600
C 	C 	0.51099 0.62422 0.32171 0.05800
H 	H 	0.49960 0.63370 0.32120 0.00100
C 	C 	0.60151 0.46900 0.40658 0.09800
C 	C 	0.58516 0.51673 0.39067 0.06500
H 	H 	0.58600 0.50640 0.40120 -0.00300
C 	C 	0.56830 0.52959 0.39077 -0.10700
H 	H 	0.55820 0.52870 0.40150 0.06800
C 	C 	0.56624 0.54389 0.37495 0.01400
H 	H 	0.55470 0.55310 0.37450 0.03500
C 	C 	0.58154 0.54454 0.35954 -0.05500
C 	C 	0.59801 0.53115 0.36115 0.04300
H 	H 	0.60820 0.53150 0.35050 0.01300
C 	C 	0.58004 0.55983 0.34207 0.14200
C 	C 	0.59503 0.57570 0.31478 0.13600
C 	C 	0.56253 0.58463 0.32474 0.13900
C 	C 	0.61283 0.59659 0.28764 0.04800
H 	H 	0.60100 0.60540 0.28740 0.00900
C 	C 	0.61298 0.57962 0.30177 -0.05800
C 	C 	0.63086 0.56788 0.30276 0.01800
H 	H 	0.63190 0.55670 0.31230 0.03500
C 	C 	0.64724 0.57249 0.28981 -0.11000
H 	H 	0.65980 0.56480 0.29040 0.07100
C 	C 	0.64493 0.58862 0.27587 0.06900
H 	H 	0.65600 0.59120 0.26640 -0.00200
C 	C 	0.57552 0.62190 0.24890 0.10800
C 	C 	0.63780 0.66748 0.23247 0.05200
H 	H 	0.64790 0.66650 0.24320 0.00300
C 	C 	0.63726 0.68479 0.22106 -0.09600
H 	H 	0.64720 0.69550 0.22330 0.06600
C 	C 	0.62179 0.68705 0.20561 0.00500
H 	H 	0.62070 0.69940 0.19760 0.03900
C 	C 	0.60827 0.67042 0.20256 -0.05300
C 	C 	0.61005 0.65304 0.21521 0.04600
H 	H 	0.60030 0.64210 0.21340 0.01100
C 	C 	0.59207 0.67139 0.18677 0.13300
N 	N 	0.51561 0.61490 0.34003 -0.22400
N 	N 	0.61325 0.47691 0.39535 -0.26000
N 	N 	0.60068 0.51757 0.37672 -0.22900
N 	N 	0.56309 0.57092 0.34057 -0.15500
N 	N 	0.59658 0.56142 0.32977 -0.15300
N 	N 	0.57774 0.58754 0.31151 -0.15200
N 	N 	0.62827 0.60074 0.27488 -0.23400
N 	N 	0.62452 0.65084 0.22967 -0.22600
N 	N 	0.59297 0.62293 0.25102 -0.26700
N 	N 	0.57751 0.65657 0.18687 -0.15000
S 	S 	0.58435 0.45983 0.42257 -0.06300
S 	S 	0.54975 0.62079 0.24641 -0.06100
C 	C 	0.53178 0.10166 0.83990 0.03700
H 	H 	0.53490 0.09430 0.85240 0.01300
C 	C 	0.54417 0.09811 0.82273 -0.05200
C 	C 	0.53951 0.10817 0.80437 0.01000
H 	H 	0.54810 0.10660 0.79240 0.03700
C 	C 	0.52202 0.12062 0.80383 -0.10000
H 	H 	0.51760 0.12670 0.79110 0.06600
C 	C 	0.51099 0.12422 0.82171 0.05800
H 	H 	0.49960 0.13370 0.82120 0.00100
C 	C 	0.60151 0.96900 0.90658 0.09800
C 	C 	0.58516 0.01673 0.89067 0.06500
H 	H 	0.58600 0.00640 0.90120 -0.00300
C 	C 	0.56830 0.02959 0.89077 -0.10700
H 	H 	0.55820 0.02870 0.90150 0.06800
C 	C 	0.56624 0.04389 0.87495 0.01400
H 	H 	0.55470 0.05310 0.87450 0.03500
C 	C 	0.58154 0.04454 0.85954 -0.05500
C 	C 	0.59801 0.03115 0.86115 0.04300
H 	H 	0.60820 0.03150 0.85050 0.01300
C 	C 	0.58004 0.05983 0.84207 0.14200
C 	C 	0.59503 0.07570 0.81478 0.13600
C 	C 	0.56253 0.08463 0.82474 0.13900
C 	C 	0.61283 0.09659 0.78764 0.04800
H 	H 	0.60100 0.10540 0.78740 0.00900
C 	C 	0.61298 0.07962 0.80177 -0.05800
C 	C 	0.63086 0.06788 0.80276 0.01800
H 	H 	0.63190 0.05670 0.81230 0.03500
C 	C 	0.64724 0.07249 0.78981 -0.11000
H 	H 	0.65980 0.06480 0.79040 0.07100
C 	C 	0.64493 0.08862 0.77587 0.06900
H 	H 	0.65600 0.09120 0.76640 -0.00200
C 	C 	0.57552 0.12190 0.74890 0.10800
C 	C 	0.63780 0.16748 0.73247 0.05200
H 	H 	0.64790 0.16650 0.74320 0.00300
C 	C 	0.63726 0.18479 0.72106 -0.09600
H 	H 	0.64720 0.19550 0.72330 0.06600
C 	C 	0.62179 0.18705 0.70561 0.00500
H 	H 	0.62070 0.19940 0.69760 0.03900
C 	C 	0.60827 0.17042 0.70256 -0.05300
C 	C 	0.61005 0.15304 0.71521 0.04600
H 	H 	0.60030 0.14210 0.71340 0.01100
C 	C 	0.59207 0.17139 0.68677 0.13300
N 	N 	0.51561 0.11490 0.84003 -0.22400
N 	N 	0.61325 0.97691 0.89535 -0.26000
N 	N 	0.60068 0.01757 0.87672 -0.22900
N 	N 	0.56309 0.07092 0.84057 -0.15500
N 	N 	0.59658 0.06142 0.82977 -0.15300
N 	N 	0.57774 0.08754 0.81151 -0.15200
N 	N 	0.62827 0.10074 0.77488 -0.23400
N 	N 	0.62452 0.15084 0.72967 -0.22600
N 	N 	0.59297 0.12293 0.75102 -0.26700
N 	N 	0.57751 0.15657 0.68687 -0.15000
S 	S 	0.58435 0.95983 0.92257 -0.06300
S 	S 	0.54975 0.12079 0.74641 -0.06100
C 	C 	0.21822 0.10166 0.91010 0.03700
H 	H 	0.21510 0.09430 0.89760 0.01300
C 	C 	0.20583 0.09811 0.92727 -0.05200
C 	C 	0.21049 0.10817 0.94563 0.01000
H 	H 	0.20190 0.10660 0.95760 0.03700
C 	C 	0.22798 0.12062 0.94617 -0.10000
H 	H 	0.23240 0.12670 0.95890 0.06600
C 	C 	0.23901 0.12422 0.92829 0.05800
H 	H 	0.25040 0.13370 0.92880 0.00100
C 	C 	0.14849 0.96900 0.84342 0.09800
C 	C 	0.16484 0.01673 0.85933 0.06500
H 	H 	0.16400 0.00640 0.84880 -0.00300
C 	C 	0.18170 0.02959 0.85923 -0.10700
H 	H 	0.19180 0.02870 0.84850 0.06800
C 	C 	0.18376 0.04389 0.87505 0.01400
H 	H 	0.19530 0.05310 0.87550 0.03500
C 	C 	0.16846 0.04454 0.89046 -0.05500
C 	C 	0.15199 0.03115 0.88885 0.04300
H 	H 	0.14180 0.03150 0.89950 0.01300
C 	C 	0.16996 0.05983 0.90793 0.14200
C 	C 	0.15497 0.07570 0.93522 0.13600
C 	C 	0.18747 0.08463 0.92526 0.13900
C 	C 	0.13717 0.09659 0.96236 0.04800
H 	H 	0.14900 0.10540 0.96260 0.00900
C 	C 	0.13702 0.07962 0.94823 -0.05800
C 	C 	0.11914 0.06788 0.94724 0.01800
H 	H 	0.11810 0.05670 0.93770 0.03500
C 	C 	0.10276 0.07249 0.96019 -0.11000
H 	H 	0.09020 0.06480 0.95960 0.07100
C 	C 	0.10507 0.08862 0.97413 0.06900
H 	H 	0.09400 0.09120 0.98360 -0.00200
C 	C 	0.17448 0.12190 0.00110 0.10800
C 	C 	0.11220 0.16748 0.01753 0.05200
H 	H 	0.10210 0.16650 0.00680 0.00300
C 	C 	0.11274 0.18479 0.02894 -0.09600
H 	H 	0.10280 0.19550 0.02670 0.06600
C 	C 	0.12821 0.18705 0.04439 0.00500
H 	H 	0.12930 0.19940 0.05240 0.03900
C 	C 	0.14173 0.17042 0.04744 -0.05300
C 	C 	0.13995 0.15304 0.03479 0.04600
H 	H 	0.14970 0.14210 0.03660 0.01100
C 	C 	0.15793 0.17139 0.06323 0.13300
N 	N 	0.23439 0.11490 0.90997 -0.22400
N 	N 	0.13675 0.97691 0.85465 -0.26000
N 	N 	0.14932 0.01757 0.87328 -0.22900
N 	N 	0.18691 0.07092 0.90943 -0.15500
N 	N 	0.15342 0.06142 0.92023 -0.15300
N 	N 	0.17226 0.08754 0.93849 -0.15200
N 	N 	0.12173 0.10074 0.97512 -0.23400
N 	N 	0.12548 0.15084 0.02033 -0.22600
N 	N 	0.15703 0.12293 0.99898 -0.26700
N 	N 	0.17249 0.15657 0.06313 -0.15000
S 	S 	0.16565 0.95983 0.82743 -0.06300
S 	S 	0.20025 0.12079 0.00359 -0.06100
C 	C 	0.21822 0.60166 0.41010 0.03700
H 	H 	0.21510 0.59430 0.39760 0.01300
C 	C 	0.20583 0.59811 0.42727 -0.05200
C 	C 	0.21049 0.60817 0.44563 0.01000
H 	H 	0.20190 0.60660 0.45760 0.03700
C 	C 	0.22798 0.62062 0.44617 -0.10000
H 	H 	0.23240 0.62670 0.45890 0.06600
C 	C 	0.23901 0.62422 0.42829 0.05800
H 	H 	0.25040 0.63370 0.42880 0.00100
C 	C 	0.14849 0.46900 0.34342 0.09800
C 	C 	0.16484 0.51673 0.35933 0.06500
H 	H 	0.16400 0.50640 0.34880 -0.00300
C 	C 	0.18170 0.52959 0.35923 -0.10700
H 	H 	0.19180 0.52870 0.34850 0.06800
C 	C 	0.18376 0.54389 0.37505 0.01400
H 	H 	0.19530 0.55310 0.37550 0.03500
C 	C 	0.16846 0.54454 0.39046 -0.05500
C 	C 	0.15199 0.53115 0.38885 0.04300
H 	H 	0.14180 0.53150 0.39950 0.01300
C 	C 	0.16996 0.55983 0.40793 0.14200
C 	C 	0.15497 0.57570 0.43522 0.13600
C 	C 	0.18747 0.58463 0.42526 0.13900
C 	C 	0.13717 0.59659 0.46236 0.04800
H 	H 	0.14900 0.60540 0.46260 0.00900
C 	C 	0.13702 0.57962 0.44823 -0.05800
C 	C 	0.11914 0.56788 0.44724 0.01800
H 	H 	0.11810 0.55670 0.43770 0.03500
C 	C 	0.10276 0.57249 0.46019 -0.11000
H 	H 	0.09020 0.56480 0.45960 0.07100
C 	C 	0.10507 0.58862 0.47413 0.06900
H 	H 	0.09400 0.59120 0.48360 -0.00200
C 	C 	0.17448 0.62190 0.50110 0.10800
C 	C 	0.11220 0.66748 0.51753 0.05200
H 	H 	0.10210 0.66650 0.50680 0.00300
C 	C 	0.11274 0.68479 0.52894 -0.09600
H 	H 	0.10280 0.69550 0.52670 0.06600
C 	C 	0.12821 0.68705 0.54439 0.00500
H 	H 	0.12930 0.69940 0.55240 0.03900
C 	C 	0.14173 0.67042 0.54744 -0.05300
C 	C 	0.13995 0.65304 0.53479 0.04600
H 	H 	0.14970 0.64210 0.53660 0.01100
C 	C 	0.15793 0.67139 0.56323 0.13300
N 	N 	0.23439 0.61490 0.40997 -0.22400
N 	N 	0.13675 0.47691 0.35465 -0.26000
N 	N 	0.14932 0.51757 0.37328 -0.22900
N 	N 	0.18691 0.57092 0.40943 -0.15500
N 	N 	0.15342 0.56142 0.42023 -0.15300
N 	N 	0.17226 0.58754 0.43849 -0.15200
N 	N 	0.12173 0.60074 0.47512 -0.23400
N 	N 	0.12548 0.65084 0.52033 -0.22600
N 	N 	0.15703 0.62293 0.49898 -0.26700
N 	N 	0.17249 0.65657 0.56313 -0.15000
S 	S 	0.16565 0.45983 0.32743 -0.06300
S 	S 	0.20025 0.62079 0.50359 -0.06100
C 	C 	0.71822 0.10166 0.41010 0.03700
H 	H 	0.71510 0.09430 0.39760 0.01300
C 	C 	0.70583 0.09811 0.42727 -0.05200
C 	C 	0.71049 0.10817 0.44563 0.01000
H 	H 	0.70190 0.10660 0.45760 0.03700
C 	C 	0.72798 0.12062 0.44617 -0.10000
H 	H 	0.73240 0.12670 0.45890 0.06600
C 	C 	0.73901 0.12422 0.42829 0.05800
H 	H 	0.75040 0.13370 0.42880 0.00100
C 	C 	0.64849 0.96900 0.34342 0.09800
C 	C 	0.66484 0.01673 0.35933 0.06500
H 	H 	0.66400 0.00640 0.34880 -0.00300
C 	C 	0.68170 0.02959 0.35923 -0.10700
H 	H 	0.69180 0.02870 0.34850 0.06800
C 	C 	0.68376 0.04389 0.37505 0.01400
H 	H 	0.69530 0.05310 0.37550 0.03500
C 	C 	0.66846 0.04454 0.39046 -0.05500
C 	C 	0.65199 0.03115 0.38885 0.04300
H 	H 	0.64180 0.03150 0.39950 0.01300
C 	C 	0.66996 0.05983 0.40793 0.14200
C 	C 	0.65497 0.07570 0.43522 0.13600
C 	C 	0.68747 0.08463 0.42526 0.13900
C 	C 	0.63717 0.09659 0.46236 0.04800
H 	H 	0.64900 0.10540 0.46260 0.00900
C 	C 	0.63702 0.07962 0.44823 -0.05800
C 	C 	0.61914 0.06788 0.44724 0.01800
H 	H 	0.61810 0.05670 0.43770 0.03500
C 	C 	0.60276 0.07249 0.46019 -0.11000
H 	H 	0.59020 0.06480 0.45960 0.07100
C 	C 	0.60507 0.08862 0.47413 0.06900
H 	H 	0.59400 0.09120 0.48360 -0.00200
C 	C 	0.67448 0.12190 0.50110 0.10800
C 	C 	0.61220 0.16748 0.51753 0.05200
H 	H 	0.60210 0.16650 0.50680 0.00300
C 	C 	0.61274 0.18479 0.52894 -0.09600
H 	H 	0.60280 0.19550 0.52670 0.06600
C 	C 	0.62821 0.18705 0.54439 0.00500
H 	H 	0.62930 0.19940 0.55240 0.03900
C 	C 	0.64173 0.17042 0.54744 -0.05300
C 	C 	0.63995 0.15304 0.53479 0.04600
H 	H 	0.64970 0.14210 0.53660 0.01100
C 	C 	0.65793 0.17139 0.56323 0.13300
N 	N 	0.73439 0.11490 0.40997 -0.22400
N 	N 	0.63675 0.97691 0.35465 -0.26000
N 	N 	0.64932 0.01757 0.37328 -0.22900
N 	N 	0.68691 0.07092 0.40943 -0.15500
N 	N 	0.65342 0.06142 0.42023 -0.15300
N 	N 	0.67226 0.08754 0.43849 -0.15200
N 	N 	0.62173 0.10074 0.47512 -0.23400
N 	N 	0.62548 0.15084 0.52033 -0.22600
N 	N 	0.65703 0.12293 0.49898 -0.26700
N 	N 	0.67249 0.15657 0.56313 -0.15000
S 	S 	0.66565 0.95983 0.32743 -0.06300
S 	S 	0.70025 0.12079 0.50359 -0.06100
C 	C 	0.71822 0.60166 0.91010 0.03700
H 	H 	0.71510 0.59430 0.89760 0.01300
C 	C 	0.70583 0.59811 0.92727 -0.05200
C 	C 	0.71049 0.60817 0.94563 0.01000
H 	H 	0.70190 0.60660 0.95760 0.03700
C 	C 	0.72798 0.62062 0.94617 -0.10000
H 	H 	0.73240 0.62670 0.95890 0.06600
C 	C 	0.73901 0.62422 0.92829 0.05800
H 	H 	0.75040 0.63370 0.92880 0.00100
C 	C 	0.64849 0.46900 0.84342 0.09800
C 	C 	0.66484 0.51673 0.85933 0.06500
H 	H 	0.66400 0.50640 0.84880 -0.00300
C 	C 	0.68170 0.52959 0.85923 -0.10700
H 	H 	0.69180 0.52870 0.84850 0.06800
C 	C 	0.68376 0.54389 0.87505 0.01400
H 	H 	0.69530 0.55310 0.87550 0.03500
C 	C 	0.66846 0.54454 0.89046 -0.05500
C 	C 	0.65199 0.53115 0.88885 0.04300
H 	H 	0.64180 0.53150 0.89950 0.01300
C 	C 	0.66996 0.55983 0.90793 0.14200
C 	C 	0.65497 0.57570 0.93522 0.13600
C 	C 	0.68747 0.58463 0.92526 0.13900
C 	C 	0.63717 0.59659 0.96236 0.04800
H 	H 	0.64900 0.60540 0.96260 0.00900
C 	C 	0.63702 0.57962 0.94823 -0.05800
C 	C 	0.61914 0.56788 0.94724 0.01800
H 	H 	0.61810 0.55670 0.93770 0.03500
C 	C 	0.60276 0.57249 0.96019 -0.11000
H 	H 	0.59020 0.56480 0.95960 0.07100
C 	C 	0.60507 0.58862 0.97413 0.06900
H 	H 	0.59400 0.59120 0.98360 -0.00200
C 	C 	0.67448 0.62190 0.00110 0.10800
C 	C 	0.61220 0.66748 0.01753 0.05200
H 	H 	0.60210 0.66650 0.00680 0.00300
C 	C 	0.61274 0.68479 0.02894 -0.09600
H 	H 	0.60280 0.69550 0.02670 0.06600
C 	C 	0.62821 0.68705 0.04439 0.00500
H 	H 	0.62930 0.69940 0.05240 0.03900
C 	C 	0.64173 0.67042 0.04744 -0.05300
C 	C 	0.63995 0.65304 0.03479 0.04600
H 	H 	0.64970 0.64210 0.03660 0.01100
C 	C 	0.65793 0.67139 0.06323 0.13300
N 	N 	0.73439 0.61490 0.90997 -0.22400
N 	N 	0.63675 0.47691 0.85465 -0.26000
N 	N 	0.64932 0.51757 0.87328 -0.22900
N 	N 	0.68691 0.57092 0.90943 -0.15500
N 	N 	0.65342 0.56142 0.92023 -0.15300
N 	N 	0.67226 0.58754 0.93849 -0.15200
N 	N 	0.62173 0.60074 0.97512 -0.23400
N 	N 	0.62548 0.65084 0.02033 -0.22600
N 	N 	0.65703 0.62293 0.99898 -0.26700
N 	N 	0.67249 0.65657 0.06313 -0.15000
S 	S 	0.66565 0.45983 0.82743 -0.06300
S 	S 	0.70025 0.62079 0.00359 -0.06100
C 	C 	0.14834 0.41010 0.53178 0.03700
H 	H 	0.15570 0.39760 0.53490 0.01300
C 	C 	0.15189 0.42727 0.54417 -0.05200
C 	C 	0.14183 0.44563 0.53951 0.01000
H 	H 	0.14340 0.45760 0.54810 0.03700
C 	C 	0.12938 0.44617 0.52202 -0.10000
H 	H 	0.12330 0.45890 0.51760 0.06600
C 	C 	0.12578 0.42829 0.51099 0.05800
H 	H 	0.11630 0.42880 0.49960 0.00100
C 	C 	0.28100 0.34342 0.60151 0.09800
C 	C 	0.23327 0.35933 0.58516 0.06500
H 	H 	0.24360 0.34880 0.58600 -0.00300
C 	C 	0.22041 0.35923 0.56830 -0.10700
H 	H 	0.22130 0.34850 0.55820 0.06800
C 	C 	0.20611 0.37505 0.56624 0.01400
H 	H 	0.19690 0.37550 0.55470 0.03500
C 	C 	0.20546 0.39046 0.58154 -0.05500
C 	C 	0.21885 0.38885 0.59801 0.04300
H 	H 	0.21850 0.39950 0.60820 0.01300
C 	C 	0.19017 0.40793 0.58004 0.14200
C 	C 	0.17430 0.43522 0.59503 0.13600
C 	C 	0.16537 0.42526 0.56253 0.13900
C 	C 	0.15341 0.46236 0.61283 0.04800
H 	H 	0.14460 0.46260 0.60100 0.00900
C 	C 	0.17038 0.44823 0.61298 -0.05800
C 	C 	0.18212 0.44724 0.63086 0.01800
H 	H 	0.19330 0.43770 0.63190 0.03500
C 	C 	0.17751 0.46019 0.64724 -0.11000
H 	H 	0.18520 0.45960 0.65980 0.07100
C 	C 	0.16138 0.47413 0.64493 0.06900
H 	H 	0.15880 0.48360 0.65600 -0.00200
C 	C 	0.12810 0.50110 0.57552 0.10800
C 	C 	0.08252 0.51753 0.63780 0.05200
H 	H 	0.08350 0.50680 0.64790 0.00300
C 	C 	0.06521 0.52894 0.63726 -0.09600
H 	H 	0.05450 0.52670 0.64720 0.06600
C 	C 	0.06295 0.54439 0.62179 0.00500
H 	H 	0.05060 0.55240 0.62070 0.03900
C 	C 	0.07958 0.54744 0.60827 -0.05300
C 	C 	0.09696 0.53479 0.61005 0.04600
H 	H 	0.10790 0.53660 0.60030 0.01100
C 	C 	0.07861 0.56323 0.59207 0.13300
N 	N 	0.13510 0.40997 0.51561 -0.22400
N 	N 	0.27309 0.35465 0.61325 -0.26000
N 	N 	0.23243 0.37328 0.60068 -0.22900
N 	N 	0.17908 0.40943 0.56309 -0.15500
N 	N 	0.18858 0.42023 0.59658 -0.15300
N 	N 	0.16246 0.43849 0.57774 -0.15200
N 	N 	0.14926 0.47512 0.62827 -0.23400
N 	N 	0.09916 0.52033 0.62452 -0.22600
N 	N 	0.12707 0.49898 0.59297 -0.26700
N 	N 	0.09343 0.56313 0.57751 -0.15000
S 	S 	0.29017 0.32743 0.58435 -0.06300
S 	S 	0.12921 0.50359 0.54975 -0.06100
C 	C 	0.14834 0.91010 0.03178 0.03700
H 	H 	0.15570 0.89760 0.03490 0.01300
C 	C 	0.15189 0.92727 0.04417 -0.05200
C 	C 	0.14183 0.94563 0.03951 0.01000
H 	H 	0.14340 0.95760 0.04810 0.03700
C 	C 	0.12938 0.94617 0.02202 -0.10000
H 	H 	0.12330 0.95890 0.01760 0.06600
C 	C 	0.12578 0.92829 0.01099 0.05800
H 	H 	0.11630 0.92880 0.99960 0.00100
C 	C 	0.28100 0.84342 0.10151 0.09800
C 	C 	0.23327 0.85933 0.08516 0.06500
H 	H 	0.24360 0.84880 0.08600 -0.00300
C 	C 	0.22041 0.85923 0.06830 -0.10700
H 	H 	0.22130 0.84850 0.05820 0.06800
C 	C 	0.20611 0.87505 0.06624 0.01400
H 	H 	0.19690 0.87550 0.05470 0.03500
C 	C 	0.20546 0.89046 0.08154 -0.05500
C 	C 	0.21885 0.88885 0.09801 0.04300
H 	H 	0.21850 0.89950 0.10820 0.01300
C 	C 	0.19017 0.90793 0.08004 0.14200
C 	C 	0.17430 0.93522 0.09503 0.13600
C 	C 	0.16537 0.92526 0.06253 0.13900
C 	C 	0.15341 0.96236 0.11283 0.04800
H 	H 	0.14460 0.96260 0.10100 0.00900
C 	C 	0.17038 0.94823 0.11298 -0.05800
C 	C 	0.18212 0.94724 0.13086 0.01800
H 	H 	0.19330 0.93770 0.13190 0.03500
C 	C 	0.17751 0.96019 0.14724 -0.11000
H 	H 	0.18520 0.95960 0.15980 0.07100
C 	C 	0.16138 0.97413 0.14493 0.06900
H 	H 	0.15880 0.98360 0.15600 -0.00200
C 	C 	0.12810 0.00110 0.07552 0.10800
C 	C 	0.08252 0.01753 0.13780 0.05200
H 	H 	0.08350 0.00680 0.14790 0.00300
C 	C 	0.06521 0.02894 0.13726 -0.09600
H 	H 	0.05450 0.02670 0.14720 0.06600
C 	C 	0.06295 0.04439 0.12179 0.00500
H 	H 	0.05060 0.05240 0.12070 0.03900
C 	C 	0.07958 0.04744 0.10827 -0.05300
C 	C 	0.09696 0.03479 0.11005 0.04600
H 	H 	0.10790 0.03660 0.10030 0.01100
C 	C 	0.07861 0.06323 0.09207 0.13300
N 	N 	0.13510 0.90997 0.01561 -0.22400
N 	N 	0.27309 0.85465 0.11325 -0.26000
N 	N 	0.23243 0.87328 0.10068 -0.22900
N 	N 	0.17908 0.90943 0.06309 -0.15500
N 	N 	0.18858 0.92023 0.09658 -0.15300
N 	N 	0.16246 0.93849 0.07774 -0.15200
N 	N 	0.14926 0.97512 0.12827 -0.23400
N 	N 	0.09916 0.02033 0.12452 -0.22600
N 	N 	0.12707 0.99898 0.09297 -0.26700
N 	N 	0.09343 0.06313 0.07751 -0.15000
S 	S 	0.29017 0.82743 0.08435 -0.06300
S 	S 	0.12921 0.00359 0.04975 -0.06100
C 	C 	0.64834 0.41010 0.03178 0.03700
H 	H 	0.65570 0.39760 0.03490 0.01300
C 	C 	0.65189 0.42727 0.04417 -0.05200
C 	C 	0.64183 0.44563 0.03951 0.01000
H 	H 	0.64340 0.45760 0.04810 0.03700
C 	C 	0.62938 0.44617 0.02202 -0.10000
H 	H 	0.62330 0.45890 0.01760 0.06600
C 	C 	0.62578 0.42829 0.01099 0.05800
H 	H 	0.61630 0.42880 0.99960 0.00100
C 	C 	0.78100 0.34342 0.10151 0.09800
C 	C 	0.73327 0.35933 0.08516 0.06500
H 	H 	0.74360 0.34880 0.08600 -0.00300
C 	C 	0.72041 0.35923 0.06830 -0.10700
H 	H 	0.72130 0.34850 0.05820 0.06800
C 	C 	0.70611 0.37505 0.06624 0.01400
H 	H 	0.69690 0.37550 0.05470 0.03500
C 	C 	0.70546 0.39046 0.08154 -0.05500
C 	C 	0.71885 0.38885 0.09801 0.04300
H 	H 	0.71850 0.39950 0.10820 0.01300
C 	C 	0.69017 0.40793 0.08004 0.14200
C 	C 	0.67430 0.43522 0.09503 0.13600
C 	C 	0.66537 0.42526 0.06253 0.13900
C 	C 	0.65341 0.46236 0.11283 0.04800
H 	H 	0.64460 0.46260 0.10100 0.00900
C 	C 	0.67038 0.44823 0.11298 -0.05800
C 	C 	0.68212 0.44724 0.13086 0.01800
H 	H 	0.69330 0.43770 0.13190 0.03500
C 	C 	0.67751 0.46019 0.14724 -0.11000
H 	H 	0.68520 0.45960 0.15980 0.07100
C 	C 	0.66138 0.47413 0.14493 0.06900
H 	H 	0.65880 0.48360 0.15600 -0.00200
C 	C 	0.62810 0.50110 0.07552 0.10800
C 	C 	0.58252 0.51753 0.13780 0.05200
H 	H 	0.58350 0.50680 0.14790 0.00300
C 	C 	0.56521 0.52894 0.13726 -0.09600
H 	H 	0.55450 0.52670 0.14720 0.06600
C 	C 	0.56295 0.54439 0.12179 0.00500
H 	H 	0.55060 0.55240 0.12070 0.03900
C 	C 	0.57958 0.54744 0.10827 -0.05300
C 	C 	0.59696 0.53479 0.11005 0.04600
H 	H 	0.60790 0.53660 0.10030 0.01100
C 	C 	0.57861 0.56323 0.09207 0.13300
N 	N 	0.63510 0.40997 0.01561 -0.22400
N 	N 	0.77309 0.35465 0.11325 -0.26000
N 	N 	0.73243 0.37328 0.10068 -0.22900
N 	N 	0.67908 0.40943 0.06309 -0.15500
N 	N 	0.68858 0.42023 0.09658 -0.15300
N 	N 	0.66246 0.43849 0.07774 -0.15200
N 	N 	0.64926 0.47512 0.12827 -0.23400
N 	N 	0.59916 0.52033 0.12452 -0.22600
N 	N 	0.62707 0.49898 0.09297 -0.26700
N 	N 	0.59343 0.56313 0.07751 -0.15000
S 	S 	0.79017 0.32743 0.08435 -0.06300
S 	S 	0.62921 0.50359 0.04975 -0.06100
C 	C 	0.64834 0.91010 0.53178 0.03700
H 	H 	0.65570 0.89760 0.53490 0.01300
C 	C 	0.65189 0.92727 0.54417 -0.05200
C 	C 	0.64183 0.94563 0.53951 0.01000
H 	H 	0.64340 0.95760 0.54810 0.03700
C 	C 	0.62938 0.94617 0.52202 -0.10000
H 	H 	0.62330 0.95890 0.51760 0.06600
C 	C 	0.62578 0.92829 0.51099 0.05800
H 	H 	0.61630 0.92880 0.49960 0.00100
C 	C 	0.78100 0.84342 0.60151 0.09800
C 	C 	0.73327 0.85933 0.58516 0.06500
H 	H 	0.74360 0.84880 0.58600 -0.00300
C 	C 	0.72041 0.85923 0.56830 -0.10700
H 	H 	0.72130 0.84850 0.55820 0.06800
C 	C 	0.70611 0.87505 0.56624 0.01400
H 	H 	0.69690 0.87550 0.55470 0.03500
C 	C 	0.70546 0.89046 0.58154 -0.05500
C 	C 	0.71885 0.88885 0.59801 0.04300
H 	H 	0.71850 0.89950 0.60820 0.01300
C 	C 	0.69017 0.90793 0.58004 0.14200
C 	C 	0.67430 0.93522 0.59503 0.13600
C 	C 	0.66537 0.92526 0.56253 0.13900
C 	C 	0.65341 0.96236 0.61283 0.04800
H 	H 	0.64460 0.96260 0.60100 0.00900
C 	C 	0.67038 0.94823 0.61298 -0.05800
C 	C 	0.68212 0.94724 0.63086 0.01800
H 	H 	0.69330 0.93770 0.63190 0.03500
C 	C 	0.67751 0.96019 0.64724 -0.11000
H 	H 	0.68520 0.95960 0.65980 0.07100
C 	C 	0.66138 0.97413 0.64493 0.06900
H 	H 	0.65880 0.98360 0.65600 -0.00200
C 	C 	0.62810 0.00110 0.57552 0.10800
C 	C 	0.58252 0.01753 0.63780 0.05200
H 	H 	0.58350 0.00680 0.64790 0.00300
C 	C 	0.56521 0.02894 0.63726 -0.09600
H 	H 	0.55450 0.02670 0.64720 0.06600
C 	C 	0.56295 0.04439 0.62179 0.00500
H 	H 	0.55060 0.05240 0.62070 0.03900
C 	C 	0.57958 0.04744 0.60827 -0.05300
C 	C 	0.59696 0.03479 0.61005 0.04600
H 	H 	0.60790 0.03660 0.60030 0.01100
C 	C 	0.57861 0.06323 0.59207 0.13300
N 	N 	0.63510 0.90997 0.51561 -0.22400
N 	N 	0.77309 0.85465 0.61325 -0.26000
N 	N 	0.73243 0.87328 0.60068 -0.22900
N 	N 	0.67908 0.90943 0.56309 -0.15500
N 	N 	0.68858 0.92023 0.59658 -0.15300
N 	N 	0.66246 0.93849 0.57774 -0.15200
N 	N 	0.64926 0.97512 0.62827 -0.23400
N 	N 	0.59916 0.02033 0.62452 -0.22600
N 	N 	0.62707 0.99898 0.59297 -0.26700
N 	N 	0.59343 0.06313 0.57751 -0.15000
S 	S 	0.79017 0.82743 0.58435 -0.06300
S 	S 	0.62921 0.00359 0.54975 -0.06100
C 	C 	0.64834 0.33990 0.71822 0.03700
H 	H 	0.65570 0.35240 0.71510 0.01300
C 	C 	0.65189 0.32273 0.70583 -0.05200
C 	C 	0.64183 0.30437 0.71049 0.01000
H 	H 	0.64340 0.29240 0.70190 0.03700
C 	C 	0.62938 0.30383 0.72798 -0.10000
H 	H 	0.62330 0.29110 0.73240 0.06600
C 	C 	0.62578 0.32171 0.73901 0.05800
H 	H 	0.61630 0.32120 0.75040 0.00100
C 	C 	0.78100 0.40658 0.64849 0.09800
C 	C 	0.73327 0.39067 0.66484 0.06500
H 	H 	0.74360 0.40120 0.66400 -0.00300
C 	C 	0.72041 0.39077 0.68170 -0.10700
H 	H 	0.72130 0.40150 0.69180 0.06800
C 	C 	0.70611 0.37495 0.68376 0.01400
H 	H 	0.69690 0.37450 0.69530 0.03500
C 	C 	0.70546 0.35954 0.66846 -0.05500
C 	C 	0.71885 0.36115 0.65199 0.04300
H 	H 	0.71850 0.35050 0.64180 0.01300
C 	C 	0.69017 0.34207 0.66996 0.14200
C 	C 	0.67430 0.31478 0.65497 0.13600
C 	C 	0.66537 0.32474 0.68747 0.13900
C 	C 	0.65341 0.28764 0.63717 0.04800
H 	H 	0.64460 0.28740 0.64900 0.00900
C 	C 	0.67038 0.30177 0.63702 -0.05800
C 	C 	0.68212 0.30276 0.61914 0.01800
H 	H 	0.69330 0.31230 0.61810 0.03500
C 	C 	0.67751 0.28981 0.60276 -0.11000
H 	H 	0.68520 0.29040 0.59020 0.07100
C 	C 	0.66138 0.27587 0.60507 0.06900
H 	H 	0.65880 0.26640 0.59400 -0.00200
C 	C 	0.62810 0.24890 0.67448 0.10800
C 	C 	0.58252 0.23247 0.61220 0.05200
H 	H 	0.58350 0.24320 0.60210 0.00300
C 	C 	0.56521 0.22106 0.61274 -0.09600
H 	H 	0.55450 0.22330 0.60280 0.06600
C 	C 	0.56295 0.20561 0.62821 0.00500
H 	H 	0.55060 0.19760 0.62930 0.03900
C 	C 	0.57958 0.20256 0.64173 -0.05300
C 	C 	0.59696 0.21521 0.63995 0.04600
H 	H 	0.60790 0.21340 0.64970 0.01100
C 	C 	0.57861 0.18677 0.65793 0.13300
N 	N 	0.63510 0.34003 0.73439 -0.22400
N 	N 	0.77309 0.39535 0.63675 -0.26000
N 	N 	0.73243 0.37672 0.64932 -0.22900
N 	N 	0.67908 0.34057 0.68691 -0.15500
N 	N 	0.68858 0.32977 0.65342 -0.15300
N 	N 	0.66246 0.31151 0.67226 -0.15200
N 	N 	0.64926 0.27488 0.62173 -0.23400
N 	N 	0.59916 0.22967 0.62548 -0.22600
N 	N 	0.62707 0.25102 0.65703 -0.26700
N 	N 	0.59343 0.18687 0.67249 -0.15000
S 	S 	0.79017 0.42257 0.66565 -0.06300
S 	S 	0.62921 0.24641 0.70025 -0.06100
C 	C 	0.64834 0.83990 0.21822 0.03700
H 	H 	0.65570 0.85240 0.21510 0.01300
C 	C 	0.65189 0.82273 0.20583 -0.05200
C 	C 	0.64183 0.80437 0.21049 0.01000
H 	H 	0.64340 0.79240 0.20190 0.03700
C 	C 	0.62938 0.80383 0.22798 -0.10000
H 	H 	0.62330 0.79110 0.23240 0.06600
C 	C 	0.62578 0.82171 0.23901 0.05800
H 	H 	0.61630 0.82120 0.25040 0.00100
C 	C 	0.78100 0.90658 0.14849 0.09800
C 	C 	0.73327 0.89067 0.16484 0.06500
H 	H 	0.74360 0.90120 0.16400 -0.00300
C 	C 	0.72041 0.89077 0.18170 -0.10700
H 	H 	0.72130 0.90150 0.19180 0.06800
C 	C 	0.70611 0.87495 0.18376 0.01400
H 	H 	0.69690 0.87450 0.19530 0.03500
C 	C 	0.70546 0.85954 0.16846 -0.05500
C 	C 	0.71885 0.86115 0.15199 0.04300
H 	H 	0.71850 0.85050 0.14180 0.01300
C 	C 	0.69017 0.84207 0.16996 0.14200
C 	C 	0.67430 0.81478 0.15497 0.13600
C 	C 	0.66537 0.82474 0.18747 0.13900
C 	C 	0.65341 0.78764 0.13717 0.04800
H 	H 	0.64460 0.78740 0.14900 0.00900
C 	C 	0.67038 0.80177 0.13702 -0.05800
C 	C 	0.68212 0.80276 0.11914 0.01800
H 	H 	0.69330 0.81230 0.11810 0.03500
C 	C 	0.67751 0.78981 0.10276 -0.11000
H 	H 	0.68520 0.79040 0.09020 0.07100
C 	C 	0.66138 0.77587 0.10507 0.06900
H 	H 	0.65880 0.76640 0.09400 -0.00200
C 	C 	0.62810 0.74890 0.17448 0.10800
C 	C 	0.58252 0.73247 0.11220 0.05200
H 	H 	0.58350 0.74320 0.10210 0.00300
C 	C 	0.56521 0.72106 0.11274 -0.09600
H 	H 	0.55450 0.72330 0.10280 0.06600
C 	C 	0.56295 0.70561 0.12821 0.00500
H 	H 	0.55060 0.69760 0.12930 0.03900
C 	C 	0.57958 0.70256 0.14173 -0.05300
C 	C 	0.59696 0.71521 0.13995 0.04600
H 	H 	0.60790 0.71340 0.14970 0.01100
C 	C 	0.57861 0.68677 0.15793 0.13300
N 	N 	0.63510 0.84003 0.23439 -0.22400
N 	N 	0.77309 0.89535 0.13675 -0.26000
N 	N 	0.73243 0.87672 0.14932 -0.22900
N 	N 	0.67908 0.84057 0.18691 -0.15500
N 	N 	0.68858 0.82977 0.15342 -0.15300
N 	N 	0.66246 0.81151 0.17226 -0.15200
N 	N 	0.64926 0.77488 0.12173 -0.23400
N 	N 	0.59916 0.72967 0.12548 -0.22600
N 	N 	0.62707 0.75102 0.15703 -0.26700
N 	N 	0.59343 0.68687 0.17249 -0.15000
S 	S 	0.79017 0.92257 0.16565 -0.06300
S 	S 	0.62921 0.74641 0.20025 -0.06100
C 	C 	0.14834 0.33990 0.21822 0.03700
H 	H 	0.15570 0.35240 0.21510 0.01300
C 	C 	0.15189 0.32273 0.20583 -0.05200
C 	C 	0.14183 0.30437 0.21049 0.01000
H 	H 	0.14340 0.29240 0.20190 0.03700
C 	C 	0.12938 0.30383 0.22798 -0.10000
H 	H 	0.12330 0.29110 0.23240 0.06600
C 	C 	0.12578 0.32171 0.23901 0.05800
H 	H 	0.11630 0.32120 0.25040 0.00100
C 	C 	0.28100 0.40658 0.14849 0.09800
C 	C 	0.23327 0.39067 0.16484 0.06500
H 	H 	0.24360 0.40120 0.16400 -0.00300
C 	C 	0.22041 0.39077 0.18170 -0.10700
H 	H 	0.22130 0.40150 0.19180 0.06800
C 	C 	0.20611 0.37495 0.18376 0.01400
H 	H 	0.19690 0.37450 0.19530 0.03500
C 	C 	0.20546 0.35954 0.16846 -0.05500
C 	C 	0.21885 0.36115 0.15199 0.04300
H 	H 	0.21850 0.35050 0.14180 0.01300
C 	C 	0.19017 0.34207 0.16996 0.14200
C 	C 	0.17430 0.31478 0.15497 0.13600
C 	C 	0.16537 0.32474 0.18747 0.13900
C 	C 	0.15341 0.28764 0.13717 0.04800
H 	H 	0.14460 0.28740 0.14900 0.00900
C 	C 	0.17038 0.30177 0.13702 -0.05800
C 	C 	0.18212 0.30276 0.11914 0.01800
H 	H 	0.19330 0.31230 0.11810 0.03500
C 	C 	0.17751 0.28981 0.10276 -0.11000
H 	H 	0.18520 0.29040 0.09020 0.07100
C 	C 	0.16138 0.27587 0.10507 0.06900
H 	H 	0.15880 0.26640 0.09400 -0.00200
C 	C 	0.12810 0.24890 0.17448 0.10800
C 	C 	0.08252 0.23247 0.11220 0.05200
H 	H 	0.08350 0.24320 0.10210 0.00300
C 	C 	0.06521 0.22106 0.11274 -0.09600
H 	H 	0.05450 0.22330 0.10280 0.06600
C 	C 	0.06295 0.20561 0.12821 0.00500
H 	H 	0.05060 0.19760 0.12930 0.03900
C 	C 	0.07958 0.20256 0.14173 -0.05300
C 	C 	0.09696 0.21521 0.13995 0.04600
H 	H 	0.10790 0.21340 0.14970 0.01100
C 	C 	0.07861 0.18677 0.15793 0.13300
N 	N 	0.13510 0.34003 0.23439 -0.22400
N 	N 	0.27309 0.39535 0.13675 -0.26000
N 	N 	0.23243 0.37672 0.14932 -0.22900
N 	N 	0.17908 0.34057 0.18691 -0.15500
N 	N 	0.18858 0.32977 0.15342 -0.15300
N 	N 	0.16246 0.31151 0.17226 -0.15200
N 	N 	0.14926 0.27488 0.12173 -0.23400
N 	N 	0.09916 0.22967 0.12548 -0.22600
N 	N 	0.12707 0.25102 0.15703 -0.26700
N 	N 	0.09343 0.18687 0.17249 -0.15000
S 	S 	0.29017 0.42257 0.16565 -0.06300
S 	S 	0.12921 0.24641 0.20025 -0.06100
C 	C 	0.14834 0.83990 0.71822 0.03700
H 	H 	0.15570 0.85240 0.71510 0.01300
C 	C 	0.15189 0.82273 0.70583 -0.05200
C 	C 	0.14183 0.80437 0.71049 0.01000
H 	H 	0.14340 0.79240 0.70190 0.03700
C 	C 	0.12938 0.80383 0.72798 -0.10000
H 	H 	0.12330 0.79110 0.73240 0.06600
C 	C 	0.12578 0.82171 0.73901 0.05800
H 	H 	0.11630 0.82120 0.75040 0.00100
C 	C 	0.28100 0.90658 0.64849 0.09800
C 	C 	0.23327 0.89067 0.66484 0.06500
H 	H 	0.24360 0.90120 0.66400 -0.00300
C 	C 	0.22041 0.89077 0.68170 -0.10700
H 	H 	0.22130 0.90150 0.69180 0.06800
C 	C 	0.20611 0.87495 0.68376 0.01400
H 	H 	0.19690 0.87450 0.69530 0.03500
C 	C 	0.20546 0.85954 0.66846 -0.05500
C 	C 	0.21885 0.86115 0.65199 0.04300
H 	H 	0.21850 0.85050 0.64180 0.01300
C 	C 	0.19017 0.84207 0.66996 0.14200
C 	C 	0.17430 0.81478 0.65497 0.13600
C 	C 	0.16537 0.82474 0.68747 0.13900
C 	C 	0.15341 0.78764 0.63717 0.04800
H 	H 	0.14460 0.78740 0.64900 0.00900
C 	C 	0.17038 0.80177 0.63702 -0.05800
C 	C 	0.18212 0.80276 0.61914 0.01800
H 	H 	0.19330 0.81230 0.61810 0.03500
C 	C 	0.17751 0.78981 0.60276 -0.11000
H 	H 	0.18520 0.79040 0.59020 0.07100
C 	C 	0.16138 0.77587 0.60507 0.06900
H 	H 	0.15880 0.76640 0.59400 -0.00200
C 	C 	0.12810 0.74890 0.67448 0.10800
C 	C 	0.08252 0.73247 0.61220 0.05200
H 	H 	0.08350 0.74320 0.60210 0.00300
C 	C 	0.06521 0.72106 0.61274 -0.09600
H 	H 	0.05450 0.72330 0.60280 0.06600
C 	C 	0.06295 0.70561 0.62821 0.00500
H 	H 	0.05060 0.69760 0.62930 0.03900
C 	C 	0.07958 0.70256 0.64173 -0.05300
C 	C 	0.09696 0.71521 0.63995 0.04600
H 	H 	0.10790 0.71340 0.64970 0.01100
C 	C 	0.07861 0.68677 0.65793 0.13300
N 	N 	0.13510 0.84003 0.73439 -0.22400
N 	N 	0.27309 0.89535 0.63675 -0.26000
N 	N 	0.23243 0.87672 0.64932 -0.22900
N 	N 	0.17908 0.84057 0.68691 -0.15500
N 	N 	0.18858 0.82977 0.65342 -0.15300
N 	N 	0.16246 0.81151 0.67226 -0.15200
N 	N 	0.14926 0.77488 0.62173 -0.23400
N 	N 	0.09916 0.72967 0.62548 -0.22600
N 	N 	0.12707 0.75102 0.65703 -0.26700
N 	N 	0.09343 0.68687 0.67249 -0.15000
S 	S 	0.29017 0.92257 0.66565 -0.06300
S 	S 	0.12921 0.74641 0.70025 -0.06100
C 	C 	0.10166 0.91010 0.21822 0.03700
H 	H 	0.09430 0.89760 0.21510 0.01300
C 	C 	0.09811 0.92727 0.20583 -0.05200
C 	C 	0.10817 0.94563 0.21049 0.01000
H 	H 	0.10660 0.95760 0.20190 0.03700
C 	C 	0.12062 0.94617 0.22798 -0.10000
H 	H 	0.12670 0.95890 0.23240 0.06600
C 	C 	0.12422 0.92829 0.23901 0.05800
H 	H 	0.13370 0.92880 0.25040 0.00100
C 	C 	0.96900 0.84342 0.14849 0.09800
C 	C 	0.01673 0.85933 0.16484 0.06500
H 	H 	0.00640 0.84880 0.16400 -0.00300
C 	C 	0.02959 0.85923 0.18170 -0.10700
H 	H 	0.02870 0.84850 0.19180 0.06800
C 	C 	0.04389 0.87505 0.18376 0.01400
H 	H 	0.05310 0.87550 0.19530 0.03500
C 	C 	0.04454 0.89046 0.16846 -0.05500
C 	C 	0.03115 0.88885 0.15199 0.04300
H 	H 	0.03150 0.89950 0.14180 0.01300
C 	C 	0.05983 0.90793 0.16996 0.14200
C 	C 	0.07570 0.93522 0.15497 0.13600
C 	C 	0.08463 0.92526 0.18747 0.13900
C 	C 	0.09659 0.96236 0.13717 0.04800
H 	H 	0.10540 0.96260 0.14900 0.00900
C 	C 	0.07962 0.94823 0.13702 -0.05800
C 	C 	0.06788 0.94724 0.11914 0.01800
H 	H 	0.05670 0.93770 0.11810 0.03500
C 	C 	0.07249 0.96019 0.10276 -0.11000
H 	H 	0.06480 0.95960 0.09020 0.07100
C 	C 	0.08862 0.97413 0.10507 0.06900
H 	H 	0.09120 0.98360 0.09400 -0.00200
C 	C 	0.12190 0.00110 0.17448 0.10800
C 	C 	0.16748 0.01753 0.11220 0.05200
H 	H 	0.16650 0.00680 0.10210 0.00300
C 	C 	0.18479 0.02894 0.11274 -0.09600
H 	H 	0.19550 0.02670 0.10280 0.06600
C 	C 	0.18705 0.04439 0.12821 0.00500
H 	H 	0.19940 0.05240 0.12930 0.03900
C 	C 	0.17042 0.04744 0.14173 -0.05300
C 	C 	0.15304 0.03479 0.13995 0.04600
H 	H 	0.14210 0.03660 0.14970 0.01100
C 	C 	0.17139 0.06323 0.15793 0.13300
N 	N 	0.11490 0.90997 0.23439 -0.22400
N 	N 	0.97691 0.85465 0.13675 -0.26000
N 	N 	0.01757 0.87328 0.14932 -0.22900
N 	N 	0.07092 0.90943 0.18691 -0.15500
N 	N 	0.06142 0.92023 0.15342 -0.15300
N 	N 	0.08754 0.93849 0.17226 -0.15200
N 	N 	0.10074 0.97512 0.12173 -0.23400
N 	N 	0.15084 0.02033 0.12548 -0.22600
N 	N 	0.12293 0.99898 0.15703 -0.26700
N 	N 	0.15657 0.06313 0.17249 -0.15000
S 	S 	0.95983 0.82743 0.16565 -0.06300
S 	S 	0.12079 0.00359 0.20025 -0.06100
C 	C 	0.10166 0.41010 0.71822 0.03700
H 	H 	0.09430 0.39760 0.71510 0.01300
C 	C 	0.09811 0.42727 0.70583 -0.05200
C 	C 	0.10817 0.44563 0.71049 0.01000
H 	H 	0.10660 0.45760 0.70190 0.03700
C 	C 	0.12062 0.44617 0.72798 -0.10000
H 	H 	0.12670 0.45890 0.73240 0.06600
C 	C 	0.12422 0.42829 0.73901 0.05800
H 	H 	0.13370 0.42880 0.75040 0.00100
C 	C 	0.96900 0.34342 0.64849 0.09800
C 	C 	0.01673 0.35933 0.66484 0.06500
H 	H 	0.00640 0.34880 0.66400 -0.00300
C 	C 	0.02959 0.35923 0.68170 -0.10700
H 	H 	0.02870 0.34850 0.69180 0.06800
C 	C 	0.04389 0.37505 0.68376 0.01400
H 	H 	0.05310 0.37550 0.69530 0.03500
C 	C 	0.04454 0.39046 0.66846 -0.05500
C 	C 	0.03115 0.38885 0.65199 0.04300
H 	H 	0.03150 0.39950 0.64180 0.01300
C 	C 	0.05983 0.40793 0.66996 0.14200
C 	C 	0.07570 0.43522 0.65497 0.13600
C 	C 	0.08463 0.42526 0.68747 0.13900
C 	C 	0.09659 0.46236 0.63717 0.04800
H 	H 	0.10540 0.46260 0.64900 0.00900
C 	C 	0.07962 0.44823 0.63702 -0.05800
C 	C 	0.06788 0.44724 0.61914 0.01800
H 	H 	0.05670 0.43770 0.61810 0.03500
C 	C 	0.07249 0.46019 0.60276 -0.11000
H 	H 	0.06480 0.45960 0.59020 0.07100
C 	C 	0.08862 0.47413 0.60507 0.06900
H 	H 	0.09120 0.48360 0.59400 -0.00200
C 	C 	0.12190 0.50110 0.67448 0.10800
C 	C 	0.16748 0.51753 0.61220 0.05200
H 	H 	0.16650 0.50680 0.60210 0.00300
C 	C 	0.18479 0.52894 0.61274 -0.09600
H 	H 	0.19550 0.52670 0.60280 0.06600
C 	C 	0.18705 0.54439 0.62821 0.00500
H 	H 	0.19940 0.55240 0.62930 0.03900
C 	C 	0.17042 0.54744 0.64173 -0.05300
C 	C 	0.15304 0.53479 0.63995 0.04600
H 	H 	0.14210 0.53660 0.64970 0.01100
C 	C 	0.17139 0.56323 0.65793 0.13300
N 	N 	0.11490 0.40997 0.73439 -0.22400
N 	N 	0.97691 0.35465 0.63675 -0.26000
N 	N 	0.01757 0.37328 0.64932 -0.22900
N 	N 	0.07092 0.40943 0.68691 -0.15500
N 	N 	0.06142 0.42023 0.65342 -0.15300
N 	N 	0.08754 0.43849 0.67226 -0.15200
N 	N 	0.10074 0.47512 0.62173 -0.23400
N 	N 	0.15084 0.52033 0.62548 -0.22600
N 	N 	0.12293 0.49898 0.65703 -0.26700
N 	N 	0.15657 0.56313 0.67249 -0.15000
S 	S 	0.95983 0.32743 0.66565 -0.06300
S 	S 	0.12079 0.50359 0.70025 -0.06100
C 	C 	0.60166 0.91010 0.71822 0.03700
H 	H 	0.59430 0.89760 0.71510 0.01300
C 	C 	0.59811 0.92727 0.70583 -0.05200
C 	C 	0.60817 0.94563 0.71049 0.01000
H 	H 	0.60660 0.95760 0.70190 0.03700
C 	C 	0.62062 0.94617 0.72798 -0.10000
H 	H 	0.62670 0.95890 0.73240 0.06600
C 	C 	0.62422 0.92829 0.73901 0.05800
H 	H 	0.63370 0.92880 0.75040 0.00100
C 	C 	0.46900 0.84342 0.64849 0.09800
C 	C 	0.51673 0.85933 0.66484 0.06500
H 	H 	0.50640 0.84880 0.66400 -0.00300
C 	C 	0.52959 0.85923 0.68170 -0.10700
H 	H 	0.52870 0.84850 0.69180 0.06800
C 	C 	0.54389 0.87505 0.68376 0.01400
H 	H 	0.55310 0.87550 0.69530 0.03500
C 	C 	0.54454 0.89046 0.66846 -0.05500
C 	C 	0.53115 0.88885 0.65199 0.04300
H 	H 	0.53150 0.89950 0.64180 0.01300
C 	C 	0.55983 0.90793 0.66996 0.14200
C 	C 	0.57570 0.93522 0.65497 0.13600
C 	C 	0.58463 0.92526 0.68747 0.13900
C 	C 	0.59659 0.96236 0.63717 0.04800
H 	H 	0.60540 0.96260 0.64900 0.00900
C 	C 	0.57962 0.94823 0.63702 -0.05800
C 	C 	0.56788 0.94724 0.61914 0.01800
H 	H 	0.55670 0.93770 0.61810 0.03500
C 	C 	0.57249 0.96019 0.60276 -0.11000
H 	H 	0.56480 0.95960 0.59020 0.07100
C 	C 	0.58862 0.97413 0.60507 0.06900
H 	H 	0.59120 0.98360 0.59400 -0.00200
C 	C 	0.62190 0.00110 0.67448 0.10800
C 	C 	0.66748 0.01753 0.61220 0.05200
H 	H 	0.66650 0.00680 0.60210 0.00300
C 	C 	0.68479 0.02894 0.61274 -0.09600
H 	H 	0.69550 0.02670 0.60280 0.06600
C 	C 	0.68705 0.04439 0.62821 0.00500
H 	H 	0.69940 0.05240 0.62930 0.03900
C 	C 	0.67042 0.04744 0.64173 -0.05300
C 	C 	0.65304 0.03479 0.63995 0.04600
H 	H 	0.64210 0.03660 0.64970 0.01100
C 	C 	0.67139 0.06323 0.65793 0.13300
N 	N 	0.61490 0.90997 0.73439 -0.22400
N 	N 	0.47691 0.85465 0.63675 -0.26000
N 	N 	0.51757 0.87328 0.64932 -0.22900
N 	N 	0.57092 0.90943 0.68691 -0.15500
N 	N 	0.56142 0.92023 0.65342 -0.15300
N 	N 	0.58754 0.93849 0.67226 -0.15200
N 	N 	0.60074 0.97512 0.62173 -0.23400
N 	N 	0.65084 0.02033 0.62548 -0.22600
N 	N 	0.62293 0.99898 0.65703 -0.26700
N 	N 	0.65657 0.06313 0.67249 -0.15000
S 	S 	0.45983 0.82743 0.66565 -0.06300
S 	S 	0.62079 0.00359 0.70025 -0.06100
C 	C 	0.60166 0.41010 0.21822 0.03700
H 	H 	0.59430 0.39760 0.21510 0.01300
C 	C 	0.59811 0.42727 0.20583 -0.05200
C 	C 	0.60817 0.44563 0.21049 0.01000
H 	H 	0.60660 0.45760 0.20190 0.03700
C 	C 	0.62062 0.44617 0.22798 -0.10000
H 	H 	0.62670 0.45890 0.23240 0.06600
C 	C 	0.62422 0.42829 0.23901 0.05800
H 	H 	0.63370 0.42880 0.25040 0.00100
C 	C 	0.46900 0.34342 0.14849 0.09800
C 	C 	0.51673 0.35933 0.16484 0.06500
H 	H 	0.50640 0.34880 0.16400 -0.00300
C 	C 	0.52959 0.35923 0.18170 -0.10700
H 	H 	0.52870 0.34850 0.19180 0.06800
C 	C 	0.54389 0.37505 0.18376 0.01400
H 	H 	0.55310 0.37550 0.19530 0.03500
C 	C 	0.54454 0.39046 0.16846 -0.05500
C 	C 	0.53115 0.38885 0.15199 0.04300
H 	H 	0.53150 0.39950 0.14180 0.01300
C 	C 	0.55983 0.40793 0.16996 0.14200
C 	C 	0.57570 0.43522 0.15497 0.13600
C 	C 	0.58463 0.42526 0.18747 0.13900
C 	C 	0.59659 0.46236 0.13717 0.04800
H 	H 	0.60540 0.46260 0.14900 0.00900
C 	C 	0.57962 0.44823 0.13702 -0.05800
C 	C 	0.56788 0.44724 0.11914 0.01800
H 	H 	0.55670 0.43770 0.11810 0.03500
C 	C 	0.57249 0.46019 0.10276 -0.11000
H 	H 	0.56480 0.45960 0.09020 0.07100
C 	C 	0.58862 0.47413 0.10507 0.06900
H 	H 	0.59120 0.48360 0.09400 -0.00200
C 	C 	0.62190 0.50110 0.17448 0.10800
C 	C 	0.66748 0.51753 0.11220 0.05200
H 	H 	0.66650 0.50680 0.10210 0.00300
C 	C 	0.68479 0.52894 0.11274 -0.09600
H 	H 	0.69550 0.52670 0.10280 0.06600
C 	C 	0.68705 0.54439 0.12821 0.00500
H 	H 	0.69940 0.55240 0.12930 0.03900
C 	C 	0.67042 0.54744 0.14173 -0.05300
C 	C 	0.65304 0.53479 0.13995 0.04600
H 	H 	0.64210 0.53660 0.14970 0.01100
C 	C 	0.67139 0.56323 0.15793 0.13300
N 	N 	0.61490 0.40997 0.23439 -0.22400
N 	N 	0.47691 0.35465 0.13675 -0.26000
N 	N 	0.51757 0.37328 0.14932 -0.22900
N 	N 	0.57092 0.40943 0.18691 -0.15500
N 	N 	0.56142 0.42023 0.15342 -0.15300
N 	N 	0.58754 0.43849 0.17226 -0.15200
N 	N 	0.60074 0.47512 0.12173 -0.23400
N 	N 	0.65084 0.52033 0.12548 -0.22600
N 	N 	0.62293 0.49898 0.15703 -0.26700
N 	N 	0.65657 0.56313 0.17249 -0.15000
S 	S 	0.45983 0.32743 0.16565 -0.06300
S 	S 	0.62079 0.50359 0.20025 -0.06100
C 	C 	0.60166 0.83990 0.03178 0.03700
H 	H 	0.59430 0.85240 0.03490 0.01300
C 	C 	0.59811 0.82273 0.04417 -0.05200
C 	C 	0.60817 0.80437 0.03951 0.01000
H 	H 	0.60660 0.79240 0.04810 0.03700
C 	C 	0.62062 0.80383 0.02202 -0.10000
H 	H 	0.62670 0.79110 0.01760 0.06600
C 	C 	0.62422 0.82171 0.01099 0.05800
H 	H 	0.63370 0.82120 0.99960 0.00100
C 	C 	0.46900 0.90658 0.10151 0.09800
C 	C 	0.51673 0.89067 0.08516 0.06500
H 	H 	0.50640 0.90120 0.08600 -0.00300
C 	C 	0.52959 0.89077 0.06830 -0.10700
H 	H 	0.52870 0.90150 0.05820 0.06800
C 	C 	0.54389 0.87495 0.06624 0.01400
H 	H 	0.55310 0.87450 0.05470 0.03500
C 	C 	0.54454 0.85954 0.08154 -0.05500
C 	C 	0.53115 0.86115 0.09801 0.04300
H 	H 	0.53150 0.85050 0.10820 0.01300
C 	C 	0.55983 0.84207 0.08004 0.14200
C 	C 	0.57570 0.81478 0.09503 0.13600
C 	C 	0.58463 0.82474 0.06253 0.13900
C 	C 	0.59659 0.78764 0.11283 0.04800
H 	H 	0.60540 0.78740 0.10100 0.00900
C 	C 	0.57962 0.80177 0.11298 -0.05800
C 	C 	0.56788 0.80276 0.13086 0.01800
H 	H 	0.55670 0.81230 0.13190 0.03500
C 	C 	0.57249 0.78981 0.14724 -0.11000
H 	H 	0.56480 0.79040 0.15980 0.07100
C 	C 	0.58862 0.77587 0.14493 0.06900
H 	H 	0.59120 0.76640 0.15600 -0.00200
C 	C 	0.62190 0.74890 0.07552 0.10800
C 	C 	0.66748 0.73247 0.13780 0.05200
H 	H 	0.66650 0.74320 0.14790 0.00300
C 	C 	0.68479 0.72106 0.13726 -0.09600
H 	H 	0.69550 0.72330 0.14720 0.06600
C 	C 	0.68705 0.70561 0.12179 0.00500
H 	H 	0.69940 0.69760 0.12070 0.03900
C 	C 	0.67042 0.70256 0.10827 -0.05300
C 	C 	0.65304 0.71521 0.11005 0.04600
H 	H 	0.64210 0.71340 0.10030 0.01100
C 	C 	0.67139 0.68677 0.09207 0.13300
N 	N 	0.61490 0.84003 0.01561 -0.22400
N 	N 	0.47691 0.89535 0.11325 -0.26000
N 	N 	0.51757 0.87672 0.10068 -0.22900
N 	N 	0.57092 0.84057 0.06309 -0.15500
N 	N 	0.56142 0.82977 0.09658 -0.15300
N 	N 	0.58754 0.81151 0.07774 -0.15200
N 	N 	0.60074 0.77488 0.12827 -0.23400
N 	N 	0.65084 0.72967 0.12452 -0.22600
N 	N 	0.62293 0.75102 0.09297 -0.26700
N 	N 	0.65657 0.68687 0.07751 -0.15000
S 	S 	0.45983 0.92257 0.08435 -0.06300
S 	S 	0.62079 0.74641 0.04975 -0.06100
C 	C 	0.60166 0.33990 0.53178 0.03700
H 	H 	0.59430 0.35240 0.53490 0.01300
C 	C 	0.59811 0.32273 0.54417 -0.05200
C 	C 	0.60817 0.30437 0.53951 0.01000
H 	H 	0.60660 0.29240 0.54810 0.03700
C 	C 	0.62062 0.30383 0.52202 -0.10000
H 	H 	0.62670 0.29110 0.51760 0.06600
C 	C 	0.62422 0.32171 0.51099 0.05800
H 	H 	0.63370 0.32120 0.49960 0.00100
C 	C 	0.46900 0.40658 0.60151 0.09800
C 	C 	0.51673 0.39067 0.58516 0.06500
H 	H 	0.50640 0.40120 0.58600 -0.00300
C 	C 	0.52959 0.39077 0.56830 -0.10700
H 	H 	0.52870 0.40150 0.55820 0.06800
C 	C 	0.54389 0.37495 0.56624 0.01400
H 	H 	0.55310 0.37450 0.55470 0.03500
C 	C 	0.54454 0.35954 0.58154 -0.05500
C 	C 	0.53115 0.36115 0.59801 0.04300
H 	H 	0.53150 0.35050 0.60820 0.01300
C 	C 	0.55983 0.34207 0.58004 0.14200
C 	C 	0.57570 0.31478 0.59503 0.13600
C 	C 	0.58463 0.32474 0.56253 0.13900
C 	C 	0.59659 0.28764 0.61283 0.04800
H 	H 	0.60540 0.28740 0.60100 0.00900
C 	C 	0.57962 0.30177 0.61298 -0.05800
C 	C 	0.56788 0.30276 0.63086 0.01800
H 	H 	0.55670 0.31230 0.63190 0.03500
C 	C 	0.57249 0.28981 0.64724 -0.11000
H 	H 	0.56480 0.29040 0.65980 0.07100
C 	C 	0.58862 0.27587 0.64493 0.06900
H 	H 	0.59120 0.26640 0.65600 -0.00200
C 	C 	0.62190 0.24890 0.57552 0.10800
C 	C 	0.66748 0.23247 0.63780 0.05200
H 	H 	0.66650 0.24320 0.64790 0.00300
C 	C 	0.68479 0.22106 0.63726 -0.09600
H 	H 	0.69550 0.22330 0.64720 0.06600
C 	C 	0.68705 0.20561 0.62179 0.00500
H 	H 	0.69940 0.19760 0.62070 0.03900
C 	C 	0.67042 0.20256 0.60827 -0.05300
C 	C 	0.65304 0.21521 0.61005 0.04600
H 	H 	0.64210 0.21340 0.60030 0.01100
C 	C 	0.67139 0.18677 0.59207 0.13300
N 	N 	0.61490 0.34003 0.51561 -0.22400
N 	N 	0.47691 0.39535 0.61325 -0.26000
N 	N 	0.51757 0.37672 0.60068 -0.22900
N 	N 	0.57092 0.34057 0.56309 -0.15500
N 	N 	0.56142 0.32977 0.59658 -0.15300
N 	N 	0.58754 0.31151 0.57774 -0.15200
N 	N 	0.60074 0.27488 0.62827 -0.23400
N 	N 	0.65084 0.22967 0.62452 -0.22600
N 	N 	0.62293 0.25102 0.59297 -0.26700
N 	N 	0.65657 0.18687 0.57751 -0.15000
S 	S 	0.45983 0.42257 0.58435 -0.06300
S 	S 	0.62079 0.24641 0.54975 -0.06100
C 	C 	0.10166 0.83990 0.53178 0.03700
H 	H 	0.09430 0.85240 0.53490 0.01300
C 	C 	0.09811 0.82273 0.54417 -0.05200
C 	C 	0.10817 0.80437 0.53951 0.01000
H 	H 	0.10660 0.79240 0.54810 0.03700
C 	C 	0.12062 0.80383 0.52202 -0.10000
H 	H 	0.12670 0.79110 0.51760 0.06600
C 	C 	0.12422 0.82171 0.51099 0.05800
H 	H 	0.13370 0.82120 0.49960 0.00100
C 	C 	0.96900 0.90658 0.60151 0.09800
C 	C 	0.01673 0.89067 0.58516 0.06500
H 	H 	0.00640 0.90120 0.58600 -0.00300
C 	C 	0.02959 0.89077 0.56830 -0.10700
H 	H 	0.02870 0.90150 0.55820 0.06800
C 	C 	0.04389 0.87495 0.56624 0.01400
H 	H 	0.05310 0.87450 0.55470 0.03500
C 	C 	0.04454 0.85954 0.58154 -0.05500
C 	C 	0.03115 0.86115 0.59801 0.04300
H 	H 	0.03150 0.85050 0.60820 0.01300
C 	C 	0.05983 0.84207 0.58004 0.14200
C 	C 	0.07570 0.81478 0.59503 0.13600
C 	C 	0.08463 0.82474 0.56253 0.13900
C 	C 	0.09659 0.78764 0.61283 0.04800
H 	H 	0.10540 0.78740 0.60100 0.00900
C 	C 	0.07962 0.80177 0.61298 -0.05800
C 	C 	0.06788 0.80276 0.63086 0.01800
H 	H 	0.05670 0.81230 0.63190 0.03500
C 	C 	0.07249 0.78981 0.64724 -0.11000
H 	H 	0.06480 0.79040 0.65980 0.07100
C 	C 	0.08862 0.77587 0.64493 0.06900
H 	H 	0.09120 0.76640 0.65600 -0.00200
C 	C 	0.12190 0.74890 0.57552 0.10800
C 	C 	0.16748 0.73247 0.63780 0.05200
H 	H 	0.16650 0.74320 0.64790 0.00300
C 	C 	0.18479 0.72106 0.63726 -0.09600
H 	H 	0.19550 0.72330 0.64720 0.06600
C 	C 	0.18705 0.70561 0.62179 0.00500
H 	H 	0.19940 0.69760 0.62070 0.03900
C 	C 	0.17042 0.70256 0.60827 -0.05300
C 	C 	0.15304 0.71521 0.61005 0.04600
H 	H 	0.14210 0.71340 0.60030 0.01100
C 	C 	0.17139 0.68677 0.59207 0.13300
N 	N 	0.11490 0.84003 0.51561 -0.22400
N 	N 	0.97691 0.89535 0.61325 -0.26000
N 	N 	0.01757 0.87672 0.60068 -0.22900
N 	N 	0.07092 0.84057 0.56309 -0.15500
N 	N 	0.06142 0.82977 0.59658 -0.15300
N 	N 	0.08754 0.81151 0.57774 -0.15200
N 	N 	0.10074 0.77488 0.62827 -0.23400
N 	N 	0.15084 0.72967 0.62452 -0.22600
N 	N 	0.12293 0.75102 0.59297 -0.26700
N 	N 	0.15657 0.68687 0.57751 -0.15000
S 	S 	0.95983 0.92257 0.58435 -0.06300
S 	S 	0.12079 0.74641 0.54975 -0.06100
C 	C 	0.10166 0.33990 0.03178 0.03700
H 	H 	0.09430 0.35240 0.03490 0.01300
C 	C 	0.09811 0.32273 0.04417 -0.05200
C 	C 	0.10817 0.30437 0.03951 0.01000
H 	H 	0.10660 0.29240 0.04810 0.03700
C 	C 	0.12062 0.30383 0.02202 -0.10000
H 	H 	0.12670 0.29110 0.01760 0.06600
C 	C 	0.12422 0.32171 0.01099 0.05800
H 	H 	0.13370 0.32120 0.99960 0.00100
C 	C 	0.96900 0.40658 0.10151 0.09800
C 	C 	0.01673 0.39067 0.08516 0.06500
H 	H 	0.00640 0.40120 0.08600 -0.00300
C 	C 	0.02959 0.39077 0.06830 -0.10700
H 	H 	0.02870 0.40150 0.05820 0.06800
C 	C 	0.04389 0.37495 0.06624 0.01400
H 	H 	0.05310 0.37450 0.05470 0.03500
C 	C 	0.04454 0.35954 0.08154 -0.05500
C 	C 	0.03115 0.36115 0.09801 0.04300
H 	H 	0.03150 0.35050 0.10820 0.01300
C 	C 	0.05983 0.34207 0.08004 0.14200
C 	C 	0.07570 0.31478 0.09503 0.13600
C 	C 	0.08463 0.32474 0.06253 0.13900
C 	C 	0.09659 0.28764 0.11283 0.04800
H 	H 	0.10540 0.28740 0.10100 0.00900
C 	C 	0.07962 0.30177 0.11298 -0.05800
C 	C 	0.06788 0.30276 0.13086 0.01800
H 	H 	0.05670 0.31230 0.13190 0.03500
C 	C 	0.07249 0.28981 0.14724 -0.11000
H 	H 	0.06480 0.29040 0.15980 0.07100
C 	C 	0.08862 0.27587 0.14493 0.06900
H 	H 	0.09120 0.26640 0.15600 -0.00200
C 	C 	0.12190 0.24890 0.07552 0.10800
C 	C 	0.16748 0.23247 0.13780 0.05200
H 	H 	0.16650 0.24320 0.14790 0.00300
C 	C 	0.18479 0.22106 0.13726 -0.09600
H 	H 	0.19550 0.22330 0.14720 0.06600
C 	C 	0.18705 0.20561 0.12179 0.00500
H 	H 	0.19940 0.19760 0.12070 0.03900
C 	C 	0.17042 0.20256 0.10827 -0.05300
C 	C 	0.15304 0.21521 0.11005 0.04600
H 	H 	0.14210 0.21340 0.10030 0.01100
C 	C 	0.17139 0.18677 0.09207 0.13300
N 	N 	0.11490 0.34003 0.01561 -0.22400
N 	N 	0.97691 0.39535 0.11325 -0.26000
N 	N 	0.01757 0.37672 0.10068 -0.22900
N 	N 	0.07092 0.34057 0.06309 -0.15500
N 	N 	0.06142 0.32977 0.09658 -0.15300
N 	N 	0.08754 0.31151 0.07774 -0.15200
N 	N 	0.10074 0.27488 0.12827 -0.23400
N 	N 	0.15084 0.22967 0.12452 -0.22600
N 	N 	0.12293 0.25102 0.09297 -0.26700
N 	N 	0.15657 0.18687 0.07751 -0.15000
S 	S 	0.95983 0.42257 0.08435 -0.06300
S 	S 	0.12079 0.24641 0.04975 -0.06100
Co	Co	0.62986 0.37986 -0.00000 1.11900
Co	Co	0.62986 0.87986 0.50000 1.11900
Co	Co	0.12986 0.87986 -0.00000 1.11900
Co	Co	0.62014 0.37014 0.50000 1.11900
Co	Co	0.62014 0.87014 -0.00000 1.11900
Co	Co	0.12014 0.37014 -0.00000 1.11900
Co	Co	0.12014 0.87986 0.25000 1.11900
Co	Co	0.12014 0.37986 0.75000 1.11900
Co	Co	0.12986 0.87014 0.75000 1.11900
Co	Co	0.12986 0.37014 0.25000 1.11900
Co	Co	-0.00000 0.62986 0.37986 1.11900
Co	Co	-0.00000 0.12986 0.87986 1.11900
Co	Co	0.50000 0.62986 0.87986 1.11900
Co	Co	0.50000 0.62014 0.37014 1.11900
Co	Co	-0.00000 0.62014 0.87014 1.11900
Co	Co	0.00000 0.12014 0.37014 1.11900
Co	Co	0.25000 0.12014 0.87986 1.11900
Co	Co	0.75000 0.12014 0.37986 1.11900
Co	Co	0.75000 0.12986 0.87014 1.11900
Co	Co	0.25000 0.12986 0.37014 1.11900
Co	Co	0.37986 0.00000 0.62986 1.11900
Co	Co	0.37986 0.50000 0.12986 1.11900
Co	Co	0.87986 0.00000 0.12986 1.11900
Co	Co	0.37014 0.50000 0.62014 1.11900
Co	Co	0.37014 -0.00000 0.12014 1.11900
Co	Co	0.87986 0.25000 0.12014 1.11900
Co	Co	0.87986 0.75000 0.62014 1.11900
Co	Co	0.37986 0.75000 0.12014 1.11900
Co	Co	0.87014 0.75000 0.12986 1.11900
Co	Co	0.87014 0.25000 0.62986 1.11900
Co	Co	0.12986 0.37986 0.50000 1.11900
Co	Co	0.12014 0.87014 0.50000 1.11900
Co	Co	0.62986 0.37014 0.75000 1.11900
Co	Co	0.62986 0.87014 0.25000 1.11900
Co	Co	0.62014 0.37986 0.25000 1.11900
Co	Co	0.62014 0.87986 0.75000 1.11900
Co	Co	0.37986 0.25000 0.62014 1.11900
Co	Co	0.37014 0.75000 0.62986 1.11900
Co	Co	0.37014 0.25000 0.12986 1.11900
Co	Co	0.87014 0.50000 0.12014 1.11900
Co	Co	0.87014 0.00000 0.62014 1.11900
Co	Co	0.87986 0.50000 0.62986 1.11900
Co	Co	0.75000 0.62986 0.37014 1.11900
Co	Co	0.25000 0.62986 0.87014 1.11900
Co	Co	0.25000 0.62014 0.37986 1.11900
Co	Co	0.75000 0.62014 0.87986 1.11900
Co	Co	0.50000 0.12986 0.37986 1.11900
Co	Co	0.50000 0.12014 0.87014 1.11900
Co	Co	0.37014 0.62014 -0.00000 1.11900
Co	Co	0.37014 0.12014 0.50000 1.11900
Co	Co	0.87014 0.12014 -0.00000 1.11900
Co	Co	0.37986 0.62986 0.50000 1.11900
Co	Co	0.37986 0.12986 -0.00000 1.11900
Co	Co	0.87986 0.12014 0.75000 1.11900
Co	Co	0.87986 0.62014 0.25000 1.11900
Co	Co	0.87014 0.12986 0.25000 1.11900
Co	Co	0.87014 0.62986 0.75000 1.11900
Co	Co	0.37014 0.12986 0.75000 1.11900
Co	Co	-0.00000 0.37014 0.62014 1.11900
Co	Co	-0.00000 0.87014 0.12014 1.11900
Co	Co	0.50000 0.37014 0.12014 1.11900
Co	Co	0.50000 0.37986 0.62986 1.11900
Co	Co	-0.00000 0.37986 0.12986 1.11900
Co	Co	0.75000 0.87986 0.12014 1.11900
Co	Co	0.25000 0.87986 0.62014 1.11900
Co	Co	0.25000 0.87014 0.12986 1.11900
Co	Co	0.75000 0.87014 0.62986 1.11900
Co	Co	0.75000 0.37014 0.12986 1.11900
Co	Co	0.62014 0.00000 0.37014 1.11900
Co	Co	0.62014 0.50000 0.87014 1.11900
Co	Co	0.12014 -0.00000 0.87014 1.11900
Co	Co	0.62986 0.50000 0.37986 1.11900
Co	Co	0.62986 0.00000 0.87986 1.11900
Co	Co	0.12986 -0.00000 0.37986 1.11900
Co	Co	0.12014 0.75000 0.87986 1.11900
Co	Co	0.12014 0.25000 0.37986 1.11900
Co	Co	0.12986 0.25000 0.87014 1.11900
Co	Co	0.12986 0.75000 0.37014 1.11900
Co	Co	0.87014 0.62014 0.50000 1.11900
Co	Co	0.87986 0.12986 0.50000 1.11900
Co	Co	0.87986 0.62986 -0.00000 1.11900
Co	Co	0.37014 0.62986 0.25000 1.11900
Co	Co	0.37986 0.62014 0.75000 1.11900
Co	Co	0.37986 0.12014 0.25000 1.11900
Co	Co	0.62014 0.75000 0.37986 1.11900
Co	Co	0.62014 0.25000 0.87986 1.11900
Co	Co	0.62986 0.25000 0.37014 1.11900
Co	Co	0.62986 0.75000 0.87014 1.11900
Co	Co	0.12986 0.50000 0.87986 1.11900
Co	Co	0.12014 0.50000 0.37014 1.11900
Co	Co	0.25000 0.37014 0.62986 1.11900
Co	Co	0.75000 0.37986 0.62014 1.11900
Co	Co	0.25000 0.37986 0.12014 1.11900
Co	Co	0.50000 0.87014 0.62014 1.11900
Co	Co	0.50000 0.87986 0.12986 1.11900
Co	Co	0.00000 0.87986 0.62986 1.11900
Co	Co	0.62500 0.25180 0.12500 1.12500
Co	Co	0.62500 0.75180 0.62500 1.12500
Co	Co	0.62500 0.49820 0.62500 1.12500
Co	Co	0.62500 0.99820 0.12500 1.12500
Co	Co	0.12500 0.75180 0.12500 1.12500
Co	Co	0.12500 0.25180 0.62500 1.12500
Co	Co	0.12500 0.99820 0.62500 1.12500
Co	Co	0.12500 0.49820 0.12500 1.12500
Co	Co	0.12500 0.62500 0.25180 1.12500
Co	Co	0.62500 0.62500 0.75180 1.12500
Co	Co	0.62500 0.62500 0.49820 1.12500
Co	Co	0.12500 0.62500 0.99820 1.12500
Co	Co	0.12500 0.12500 0.75180 1.12500
Co	Co	0.62500 0.12500 0.25180 1.12500
Co	Co	0.62500 0.12500 0.99820 1.12500
Co	Co	0.12500 0.12500 0.49820 1.12500
Co	Co	0.25180 0.12500 0.62500 1.12500
Co	Co	0.25180 0.62500 0.12500 1.12500
Co	Co	0.75180 0.62500 0.62500 1.12500
Co	Co	0.49820 0.62500 0.62500 1.12500
Co	Co	0.49820 0.12500 0.12500 1.12500
Co	Co	0.75180 0.12500 0.12500 1.12500
Co	Co	0.99820 0.62500 0.12500 1.12500
Co	Co	0.99820 0.12500 0.62500 1.12500
Co	Co	0.00180 0.87500 0.87500 1.12500
Co	Co	0.00180 0.37500 0.37500 1.12500
Co	Co	0.24820 0.87500 0.37500 1.12500
Co	Co	0.24820 0.37500 0.87500 1.12500
Co	Co	0.50180 0.37500 0.87500 1.12500
Co	Co	0.50180 0.87500 0.37500 1.12500
Co	Co	0.74820 0.37500 0.37500 1.12500
Co	Co	0.74820 0.87500 0.87500 1.12500
Co	Co	0.37500 0.37500 0.74820 1.12500
Co	Co	0.37500 0.87500 0.24820 1.12500
Co	Co	0.37500 0.87500 0.50180 1.12500
Co	Co	0.37500 0.37500 0.00180 1.12500
Co	Co	0.87500 0.37500 0.24820 1.12500
Co	Co	0.87500 0.87500 0.74820 1.12500
Co	Co	0.87500 0.87500 0.00180 1.12500
Co	Co	0.87500 0.37500 0.50180 1.12500
Co	Co	0.87500 0.50180 0.37500 1.12500
Co	Co	0.37500 0.50180 0.87500 1.12500
Co	Co	0.37500 0.74820 0.37500 1.12500
Co	Co	0.87500 0.74820 0.87500 1.12500
Co	Co	0.87500 0.00180 0.87500 1.12500
Co	Co	0.37500 0.00180 0.37500 1.12500
Co	Co	0.37500 0.24820 0.87500 1.12500
Co	Co	0.87500 0.24820 0.37500 1.12500
Co	Co	0.37500 0.74820 0.87500 1.12500
Co	Co	0.37500 0.24820 0.37500 1.12500
Co	Co	0.37500 0.50180 0.37500 1.12500
Co	Co	0.37500 0.00180 0.87500 1.12500
Co	Co	0.87500 0.24820 0.87500 1.12500
Co	Co	0.87500 0.74820 0.37500 1.12500
Co	Co	0.87500 0.00180 0.37500 1.12500
Co	Co	0.87500 0.50180 0.87500 1.12500
Co	Co	0.87500 0.37500 0.74820 1.12500
Co	Co	0.37500 0.37500 0.24820 1.12500
Co	Co	0.37500 0.37500 0.50180 1.12500
Co	Co	0.87500 0.37500 0.00180 1.12500
Co	Co	0.87500 0.87500 0.24820 1.12500
Co	Co	0.37500 0.87500 0.74820 1.12500
Co	Co	0.37500 0.87500 0.00180 1.12500
Co	Co	0.87500 0.87500 0.50180 1.12500
Co	Co	0.74820 0.87500 0.37500 1.12500
Co	Co	0.74820 0.37500 0.87500 1.12500
Co	Co	0.50180 0.37500 0.37500 1.12500
Co	Co	0.50180 0.87500 0.87500 1.12500
Co	Co	0.24820 0.87500 0.87500 1.12500
Co	Co	0.24820 0.37500 0.37500 1.12500
Co	Co	0.00180 0.37500 0.87500 1.12500
Co	Co	0.00180 0.87500 0.37500 1.12500
Co	Co	0.99820 0.12500 0.12500 1.12500
Co	Co	0.99820 0.62500 0.62500 1.12500
Co	Co	0.49820 0.62500 0.12500 1.12500
Co	Co	0.75180 0.12500 0.62500 1.12500
Co	Co	0.75180 0.62500 0.12500 1.12500
Co	Co	0.49820 0.12500 0.62500 1.12500
Co	Co	0.25180 0.62500 0.62500 1.12500
Co	Co	0.25180 0.12500 0.12500 1.12500
Co	Co	0.62500 0.62500 0.25180 1.12500
Co	Co	0.62500 0.12500 0.75180 1.12500
Co	Co	0.62500 0.12500 0.49820 1.12500
Co	Co	0.62500 0.62500 0.99820 1.12500
Co	Co	0.12500 0.62500 0.75180 1.12500
Co	Co	0.12500 0.12500 0.25180 1.12500
Co	Co	0.12500 0.12500 0.99820 1.12500
Co	Co	0.12500 0.62500 0.49820 1.12500
Co	Co	0.12500 0.49820 0.62500 1.12500
Co	Co	0.62500 0.49820 0.12500 1.12500
Co	Co	0.62500 0.25180 0.62500 1.12500
Co	Co	0.12500 0.25180 0.12500 1.12500
Co	Co	0.12500 0.99820 0.12500 1.12500
Co	Co	0.62500 0.99820 0.62500 1.12500
Co	Co	0.62500 0.75180 0.12500 1.12500
Co	Co	0.12500 0.75180 0.62500 1.12500
