data_crystal

_cell_length_a 27.08600
_cell_length_b 27.08600
_cell_length_c 6.70520
_cell_angle_alpha 90.00000
_cell_angle_beta  90.00000
_cell_angle_gamma 90.00000

_symmetry_space_group_name_	'P 1'
_symmetry_space_group_name_H-M	'P 1'

loop_
_symmetry_equiv_pos_as_xyz
  x,y,z

loop_
_atom_site_label
_atom_site_type_symbol
_atom_site_fract_x
_atom_site_fract_y
_atom_site_fract_z
_atom_site_charge
C 	C 	0.49113 0.08374 0.83620 0.34500
C 	C 	0.48770 0.13355 0.73890 -0.04900
C 	C 	0.46563 0.13756 0.55450 -0.10100
H 	H 	0.45280 0.10980 0.49170 0.08300
C 	C 	0.46274 0.18349 0.46340 0.12000
C 	C 	0.48291 0.22561 0.55130 -0.00600
C 	C 	0.50385 0.22068 0.73590 -0.04900
H 	H 	0.51660 0.24840 0.79960 0.06100
C 	C 	0.50643 0.17522 0.82980 -0.01700
H 	H 	0.52090 0.17280 0.95520 0.05600
C 	C 	0.41240 0.15184 0.20320 -0.22900
H 	H 	0.39850 0.16200 0.07810 0.11000
H 	H 	0.38630 0.14310 0.29350 0.10600
H 	H 	0.43350 0.12380 0.18230 0.11300
O 	O 	0.51076 0.08266 0.00480 -0.40900
O 	O 	0.47496 0.04689 0.74550 -0.41400
O 	O 	0.44024 0.19096 0.28500 -0.16000
C 	C 	0.00887 0.41626 0.83620 0.34400
C 	C 	0.01230 0.36645 0.73890 -0.05000
C 	C 	0.03437 0.36244 0.55450 -0.10200
H 	H 	0.04720 0.39020 0.49170 0.08200
C 	C 	0.03726 0.31651 0.46340 0.11900
C 	C 	0.01709 0.27439 0.55130 -0.00700
C 	C 	0.99615 0.27932 0.73590 -0.05100
H 	H 	0.98340 0.25160 0.79960 0.06000
C 	C 	0.99357 0.32478 0.82980 -0.01800
H 	H 	0.97910 0.32720 0.95520 0.05500
C 	C 	0.08760 0.34816 0.20320 -0.23000
H 	H 	0.10150 0.33800 0.07810 0.10900
H 	H 	0.11370 0.35690 0.29350 0.10600
H 	H 	0.06650 0.37620 0.18230 0.11300
O 	O 	0.98924 0.41734 0.00480 -0.41000
O 	O 	0.02504 0.45311 0.74550 -0.41400
O 	O 	0.05976 0.30904 0.28500 -0.16000
C 	C 	0.41626 0.49113 0.83620 0.34400
C 	C 	0.36645 0.48770 0.73890 -0.05000
C 	C 	0.36244 0.46563 0.55450 -0.10200
H 	H 	0.39020 0.45280 0.49170 0.08200
C 	C 	0.31651 0.46274 0.46340 0.11900
C 	C 	0.27439 0.48291 0.55130 -0.00700
C 	C 	0.27932 0.50385 0.73590 -0.05000
H 	H 	0.25160 0.51660 0.79960 0.06000
C 	C 	0.32478 0.50643 0.82980 -0.01800
H 	H 	0.32720 0.52090 0.95520 0.05500
C 	C 	0.34816 0.41240 0.20320 -0.23000
H 	H 	0.33800 0.39850 0.07810 0.10900
H 	H 	0.35690 0.38630 0.29350 0.10600
H 	H 	0.37620 0.43350 0.18230 0.11300
O 	O 	0.41734 0.51076 0.00480 -0.40900
O 	O 	0.45311 0.47496 0.74550 -0.41400
O 	O 	0.30904 0.44024 0.28500 -0.16000
C 	C 	0.08374 0.00887 0.83620 0.34500
C 	C 	0.13355 0.01230 0.73890 -0.05000
C 	C 	0.13756 0.03437 0.55450 -0.10200
H 	H 	0.10980 0.04720 0.49170 0.08200
C 	C 	0.18349 0.03726 0.46340 0.11900
C 	C 	0.22561 0.01709 0.55130 -0.00700
C 	C 	0.22068 0.99615 0.73590 -0.05100
H 	H 	0.24840 0.98340 0.79960 0.06000
C 	C 	0.17522 0.99357 0.82980 -0.01800
H 	H 	0.17280 0.97910 0.95520 0.05500
C 	C 	0.15184 0.08760 0.20320 -0.23000
H 	H 	0.16200 0.10150 0.07810 0.10900
H 	H 	0.14310 0.11370 0.29350 0.10600
H 	H 	0.12380 0.06650 0.18230 0.11400
O 	O 	0.08266 0.98924 0.00480 -0.41000
O 	O 	0.04689 0.02504 0.74550 -0.41300
O 	O 	0.19096 0.05976 0.28500 -0.16000
C 	C 	0.00887 0.08374 0.16380 0.34500
C 	C 	0.01230 0.13355 0.26110 -0.05000
C 	C 	0.03437 0.13756 0.44550 -0.10200
H 	H 	0.04720 0.10980 0.50830 0.08200
C 	C 	0.03726 0.18349 0.53660 0.11900
C 	C 	0.01709 0.22561 0.44870 -0.00700
C 	C 	0.99615 0.22068 0.26410 -0.05100
H 	H 	0.98340 0.24840 0.20040 0.06000
C 	C 	0.99357 0.17522 0.17020 -0.01800
H 	H 	0.97910 0.17280 0.04480 0.05500
C 	C 	0.08760 0.15184 0.79680 -0.23000
H 	H 	0.10150 0.16200 0.92190 0.10900
H 	H 	0.11370 0.14310 0.70650 0.10600
H 	H 	0.06650 0.12380 0.81770 0.11400
O 	O 	0.98924 0.08266 0.99520 -0.41000
O 	O 	0.02504 0.04689 0.25450 -0.41300
O 	O 	0.05976 0.19096 0.71500 -0.16000
C 	C 	0.49113 0.41626 0.16380 0.34400
C 	C 	0.48770 0.36645 0.26110 -0.05000
C 	C 	0.46563 0.36244 0.44550 -0.10200
H 	H 	0.45280 0.39020 0.50830 0.08200
C 	C 	0.46274 0.31651 0.53660 0.11900
C 	C 	0.48291 0.27439 0.44870 -0.00700
C 	C 	0.50385 0.27932 0.26410 -0.05000
H 	H 	0.51660 0.25160 0.20040 0.06000
C 	C 	0.50643 0.32478 0.17020 -0.01800
H 	H 	0.52090 0.32720 0.04480 0.05500
C 	C 	0.41240 0.34816 0.79680 -0.23000
H 	H 	0.39850 0.33800 0.92190 0.10900
H 	H 	0.38630 0.35690 0.70650 0.10600
H 	H 	0.43350 0.37620 0.81770 0.11300
O 	O 	0.51076 0.41734 0.99520 -0.40900
O 	O 	0.47496 0.45311 0.25450 -0.41400
O 	O 	0.44024 0.30904 0.71500 -0.16000
C 	C 	0.08374 0.49113 0.16380 0.34400
C 	C 	0.13355 0.48770 0.26110 -0.05000
C 	C 	0.13756 0.46563 0.44550 -0.10200
H 	H 	0.10980 0.45280 0.50830 0.08200
C 	C 	0.18349 0.46274 0.53660 0.11900
C 	C 	0.22561 0.48291 0.44870 -0.00700
C 	C 	0.22068 0.50385 0.26410 -0.05000
H 	H 	0.24840 0.51660 0.20040 0.06000
C 	C 	0.17522 0.50643 0.17020 -0.01800
H 	H 	0.17280 0.52090 0.04480 0.05500
C 	C 	0.15184 0.41240 0.79680 -0.23000
H 	H 	0.16200 0.39850 0.92190 0.10900
H 	H 	0.14310 0.38630 0.70650 0.10600
H 	H 	0.12380 0.43350 0.81770 0.11300
O 	O 	0.08266 0.51076 0.99520 -0.40900
O 	O 	0.04689 0.47496 0.25450 -0.41400
O 	O 	0.19096 0.44024 0.71500 -0.16000
C 	C 	0.41626 0.00887 0.16380 0.34400
C 	C 	0.36645 0.01230 0.26110 -0.05000
C 	C 	0.36244 0.03437 0.44550 -0.10200
H 	H 	0.39020 0.04720 0.50830 0.08200
C 	C 	0.31651 0.03726 0.53660 0.11900
C 	C 	0.27439 0.01709 0.44870 -0.00700
C 	C 	0.27932 0.99615 0.26410 -0.05100
H 	H 	0.25160 0.98340 0.20040 0.06000
C 	C 	0.32478 0.99357 0.17020 -0.01800
H 	H 	0.32720 0.97910 0.04480 0.05500
C 	C 	0.34816 0.08760 0.79680 -0.23000
H 	H 	0.33800 0.10150 0.92190 0.10900
H 	H 	0.35690 0.11370 0.70650 0.10600
H 	H 	0.37620 0.06650 0.81770 0.11300
O 	O 	0.41734 0.98924 0.99520 -0.41000
O 	O 	0.45311 0.02504 0.25450 -0.41400
O 	O 	0.30904 0.05976 0.71500 -0.16000
C 	C 	0.50887 0.91626 0.16380 0.34400
C 	C 	0.51230 0.86645 0.26110 -0.05000
C 	C 	0.53437 0.86244 0.44550 -0.10200
H 	H 	0.54720 0.89020 0.50830 0.08200
C 	C 	0.53726 0.81651 0.53660 0.11900
C 	C 	0.51709 0.77439 0.44870 -0.00700
C 	C 	0.49615 0.77932 0.26410 -0.05000
H 	H 	0.48340 0.75160 0.20040 0.06000
C 	C 	0.49357 0.82478 0.17020 -0.01800
H 	H 	0.47910 0.82720 0.04480 0.05500
C 	C 	0.58760 0.84816 0.79680 -0.23000
H 	H 	0.60150 0.83800 0.92190 0.10900
H 	H 	0.61370 0.85690 0.70650 0.10600
H 	H 	0.56650 0.87620 0.81770 0.11300
O 	O 	0.48924 0.91734 0.99520 -0.40900
O 	O 	0.52504 0.95311 0.25450 -0.41400
O 	O 	0.55976 0.80904 0.71500 -0.16000
C 	C 	0.99113 0.58374 0.16380 0.34400
C 	C 	0.98770 0.63355 0.26110 -0.05000
C 	C 	0.96563 0.63756 0.44550 -0.10200
H 	H 	0.95280 0.60980 0.50830 0.08200
C 	C 	0.96274 0.68349 0.53660 0.11900
C 	C 	0.98291 0.72561 0.44870 -0.00700
C 	C 	0.00385 0.72068 0.26410 -0.05100
H 	H 	0.01660 0.74840 0.20040 0.06000
C 	C 	0.00643 0.67522 0.17020 -0.01800
H 	H 	0.02090 0.67280 0.04480 0.05500
C 	C 	0.91240 0.65184 0.79680 -0.23000
H 	H 	0.89850 0.66200 0.92190 0.10900
H 	H 	0.88630 0.64310 0.70650 0.10600
H 	H 	0.93350 0.62380 0.81770 0.11300
O 	O 	0.01076 0.58266 0.99520 -0.41000
O 	O 	0.97496 0.54689 0.25450 -0.41400
O 	O 	0.94024 0.69096 0.71500 -0.16000
C 	C 	0.58374 0.50887 0.16380 0.34400
C 	C 	0.63355 0.51230 0.26110 -0.05000
C 	C 	0.63756 0.53437 0.44550 -0.10200
H 	H 	0.60980 0.54720 0.50830 0.08200
C 	C 	0.68349 0.53726 0.53660 0.11900
C 	C 	0.72561 0.51709 0.44870 -0.00700
C 	C 	0.72068 0.49615 0.26410 -0.05000
H 	H 	0.74840 0.48340 0.20040 0.06000
C 	C 	0.67522 0.49357 0.17020 -0.01800
H 	H 	0.67280 0.47910 0.04480 0.05500
C 	C 	0.65184 0.58760 0.79680 -0.23000
H 	H 	0.66200 0.60150 0.92190 0.10900
H 	H 	0.64310 0.61370 0.70650 0.10600
H 	H 	0.62380 0.56650 0.81770 0.11300
O 	O 	0.58266 0.48924 0.99520 -0.40900
O 	O 	0.54689 0.52504 0.25450 -0.41400
O 	O 	0.69096 0.55976 0.71500 -0.16000
C 	C 	0.91626 0.99113 0.16380 0.34500
C 	C 	0.86645 0.98770 0.26110 -0.05000
C 	C 	0.86244 0.96563 0.44550 -0.10200
H 	H 	0.89020 0.95280 0.50830 0.08200
C 	C 	0.81651 0.96274 0.53660 0.11900
C 	C 	0.77439 0.98291 0.44870 -0.00700
C 	C 	0.77932 0.00385 0.26410 -0.05100
H 	H 	0.75160 0.01660 0.20040 0.06000
C 	C 	0.82478 0.00643 0.17020 -0.01800
H 	H 	0.82720 0.02090 0.04480 0.05500
C 	C 	0.84816 0.91240 0.79680 -0.23000
H 	H 	0.83800 0.89850 0.92190 0.10900
H 	H 	0.85690 0.88630 0.70650 0.10600
H 	H 	0.87620 0.93350 0.81770 0.11400
O 	O 	0.91734 0.01076 0.99520 -0.41000
O 	O 	0.95311 0.97496 0.25450 -0.41300
O 	O 	0.80904 0.94024 0.71500 -0.16000
C 	C 	0.99113 0.91626 0.83620 0.34500
C 	C 	0.98770 0.86645 0.73890 -0.05000
C 	C 	0.96563 0.86244 0.55450 -0.10200
H 	H 	0.95280 0.89020 0.49170 0.08200
C 	C 	0.96274 0.81651 0.46340 0.11900
C 	C 	0.98291 0.77439 0.55130 -0.00700
C 	C 	0.00385 0.77932 0.73590 -0.05100
H 	H 	0.01660 0.75160 0.79960 0.06000
C 	C 	0.00643 0.82478 0.82980 -0.01800
H 	H 	0.02090 0.82720 0.95520 0.05500
C 	C 	0.91240 0.84816 0.20320 -0.23000
H 	H 	0.89850 0.83800 0.07810 0.10900
H 	H 	0.88630 0.85690 0.29350 0.10600
H 	H 	0.93350 0.87620 0.18230 0.11400
O 	O 	0.01076 0.91734 0.00480 -0.41000
O 	O 	0.97496 0.95311 0.74550 -0.41300
O 	O 	0.94024 0.80904 0.28500 -0.16000
C 	C 	0.50887 0.58374 0.83620 0.34400
C 	C 	0.51230 0.63355 0.73890 -0.05000
C 	C 	0.53437 0.63756 0.55450 -0.10200
H 	H 	0.54720 0.60980 0.49170 0.08200
C 	C 	0.53726 0.68349 0.46340 0.11900
C 	C 	0.51709 0.72561 0.55130 -0.00700
C 	C 	0.49615 0.72068 0.73590 -0.05000
H 	H 	0.48340 0.74840 0.79960 0.06000
C 	C 	0.49357 0.67522 0.82980 -0.01800
H 	H 	0.47910 0.67280 0.95520 0.05500
C 	C 	0.58760 0.65184 0.20320 -0.23000
H 	H 	0.60150 0.66200 0.07810 0.10900
H 	H 	0.61370 0.64310 0.29350 0.10600
H 	H 	0.56650 0.62380 0.18230 0.11300
O 	O 	0.48924 0.58266 0.00480 -0.40900
O 	O 	0.52504 0.54689 0.74550 -0.41400
O 	O 	0.55976 0.69096 0.28500 -0.16000
C 	C 	0.91626 0.50887 0.83620 0.34400
C 	C 	0.86645 0.51230 0.73890 -0.05000
C 	C 	0.86244 0.53437 0.55450 -0.10200
H 	H 	0.89020 0.54720 0.49170 0.08200
C 	C 	0.81651 0.53726 0.46340 0.11900
C 	C 	0.77439 0.51709 0.55130 -0.00700
C 	C 	0.77932 0.49615 0.73590 -0.05000
H 	H 	0.75160 0.48340 0.79960 0.06000
C 	C 	0.82478 0.49357 0.82980 -0.01800
H 	H 	0.82720 0.47910 0.95520 0.05500
C 	C 	0.84816 0.58760 0.20320 -0.23000
H 	H 	0.83800 0.60150 0.07810 0.10900
H 	H 	0.85690 0.61370 0.29350 0.10600
H 	H 	0.87620 0.56650 0.18230 0.11300
O 	O 	0.91734 0.48924 0.00480 -0.40900
O 	O 	0.95311 0.52504 0.74550 -0.41400
O 	O 	0.80904 0.55976 0.28500 -0.16000
C 	C 	0.58374 0.99113 0.83620 0.34400
C 	C 	0.63355 0.98770 0.73890 -0.05000
C 	C 	0.63756 0.96563 0.55450 -0.10200
H 	H 	0.60980 0.95280 0.49170 0.08200
C 	C 	0.68349 0.96274 0.46340 0.11900
C 	C 	0.72561 0.98291 0.55130 -0.00700
C 	C 	0.72068 0.00385 0.73590 -0.05100
H 	H 	0.74840 0.01660 0.79960 0.06000
C 	C 	0.67522 0.00643 0.82980 -0.01800
H 	H 	0.67280 0.02090 0.95520 0.05500
C 	C 	0.65184 0.91240 0.20320 -0.23000
H 	H 	0.66200 0.89850 0.07810 0.10900
H 	H 	0.64310 0.88630 0.29350 0.10600
H 	H 	0.62380 0.93350 0.18230 0.11300
O 	O 	0.58266 0.01076 0.00480 -0.41000
O 	O 	0.54689 0.97496 0.74550 -0.41400
O 	O 	0.69096 0.94024 0.28500 -0.16000
Cu	Cu	0.52097 0.02097 0.15159 0.90300
Cu	Cu	0.97903 0.47903 0.15159 0.90300
Cu	Cu	0.47903 0.52097 0.15159 0.90300
Cu	Cu	0.02097 0.97903 0.15159 0.90300
Cu	Cu	0.97903 0.02097 0.84841 0.90300
Cu	Cu	0.52097 0.47903 0.84841 0.90300
Cu	Cu	0.02097 0.52097 0.84841 0.90300
Cu	Cu	0.47903 0.97903 0.84841 0.90300
