data_crystal

_cell_length_a 21.76900
_cell_length_b 21.76900
_cell_length_c 44.42600
_cell_angle_alpha 90.00000
_cell_angle_beta  90.00000
_cell_angle_gamma 90.00000

_symmetry_space_group_name_	'P 1'
_symmetry_space_group_name_H-M	'P 1'

loop_
_symmetry_equiv_pos_as_xyz
  x,y,z

loop_
_atom_site_label
_atom_site_type_symbol
_atom_site_fract_x
_atom_site_fract_y
_atom_site_fract_z
_atom_site_charge
Cd	Cd	0.88045 0.61822 0.07603 1.23300
O 	O 	0.92530 0.54039 0.04591 -0.46600
O 	O 	0.83430 0.57420 0.03186 -0.35200
O 	O 	0.92087 0.20440 0.85302 -0.39500
O 	O 	0.82160 0.19282 0.85924 -0.49100
O 	O 	0.94900 0.34400 0.98338 -0.16700
O 	O 	0.77340 0.33460 0.94711 -0.15300
O 	O 	0.95580 0.57520 0.10868 -0.46100
O 	O 	0.94482 0.67245 0.11198 -0.52600
O 	O 	0.29894 0.61070 0.29876 -0.45000
O 	O 	0.21657 0.62480 0.32801 -0.42900
O 	O 	0.13780 0.53750 0.18368 -0.17800
O 	O 	0.05330 0.62890 0.25550 -0.20600
C 	C 	0.88260 0.53790 0.02968 0.31900
C 	C 	0.88090 0.49290 0.00347 -0.03700
C 	C 	0.83460 0.49260 0.98234 -0.02400
H 	H 	0.80360 0.52190 0.98340 0.05400
C 	C 	0.83370 0.44970 0.95987 -0.05200
H 	H 	0.80200 0.45110 0.94580 0.06200
C 	C 	0.87750 0.40490 0.95715 -0.00700
C 	C 	0.91570 0.39970 0.98354 0.12600
C 	C 	0.92040 0.44340 0.00347 -0.11000
H 	H 	0.95100 0.44110 0.01800 0.07400
C 	C 	0.87300 0.35840 0.93309 0.00200
C 	C 	0.92260 0.34730 0.91612 -0.06300
H 	H 	0.95780 0.37050 0.91950 0.07000
C 	C 	0.92420 0.30140 0.89294 -0.00100
H 	H 	0.95950 0.29550 0.88150 0.04900
C 	C 	0.87260 0.26620 0.88795 -0.07900
C 	C 	0.82100 0.27960 0.90583 -0.07100
H 	H 	0.78440 0.25910 0.90200 0.06300
C 	C 	0.82300 0.32290 0.92919 0.10200
C 	C 	0.87140 0.21620 0.86590 0.35100
C 	C 	0.99180 0.33090 0.01220 -0.19400
H 	H 	0.01310 0.29260 0.00950 0.09800
H 	H 	0.96670 0.32860 0.03000 0.08900
H 	H 	0.02110 0.36350 0.01440 0.08500
C 	C 	0.74030 0.32370 0.97970 -0.26000
H 	H 	0.74160 0.36110 0.99110 0.11800
H 	H 	0.76150 0.29190 0.99040 0.11800
H 	H 	0.69830 0.31180 0.97660 0.10100
C 	C 	0.97050 0.62630 0.12078 0.40600
C 	C 	0.01340 0.62800 0.14643 -0.14100
C 	C 	0.04980 0.57620 0.15337 -0.03000
H 	H 	0.04560 0.53950 0.14280 0.03900
C 	C 	0.09290 0.58240 0.17710 0.06300
C 	C 	0.09080 0.62850 0.19721 0.08800
C 	C 	0.06380 0.68140 0.18687 -0.12300
H 	H 	0.07340 0.71860 0.19600 0.07800
C 	C 	0.02170 0.68040 0.16277 0.04100
H 	H 	0.99960 0.71560 0.15800 0.01900
C 	C 	0.13240 0.62790 0.22397 -0.16400
C 	C 	0.10750 0.63590 0.25270 0.26200
C 	C 	0.14140 0.63870 0.27780 -0.20300
H 	H 	0.12390 0.65060 0.29600 0.11400
C 	C 	0.20380 0.62330 0.27604 0.03400
C 	C 	0.23050 0.62100 0.24730 -0.19500
H 	H 	0.27300 0.62170 0.24530 0.11900
C 	C 	0.19420 0.61770 0.22239 0.22100
C 	C 	0.24360 0.61830 0.30343 0.35100
C 	C 	0.17040 0.51540 0.15490 -0.08600
H 	H 	0.19730 0.48180 0.15970 0.03400
H 	H 	0.19400 0.54850 0.14650 0.07800
H 	H 	0.14030 0.50210 0.14050 0.04500
C 	C 	0.01600 0.65120 0.27930 -0.28400
H 	H 	0.98150 0.67290 0.27110 0.15400
H 	H 	0.03960 0.67840 0.29170 0.12900
H 	H 	0.00160 0.61730 0.29110 0.16500
C 	C 	0.71810 0.30060 0.94220 -0.13000
H 	H 	0.70860 0.30040 0.92110 0.07900
H 	H 	0.68500 0.31940 0.95310 0.06100
H 	H 	0.72360 0.25910 0.94910 0.07300
C 	C 	0.13060 0.48210 0.16480 -0.12400
H 	H 	0.10590 0.45250 0.17530 0.06600
H 	H 	0.17030 0.46480 0.16070 0.06300
H 	H 	0.11100 0.49300 0.14620 0.04800
O 	O 	0.22030 0.61400 0.19440 -0.20000
Cd	Cd	0.38045 0.11822 0.57603 1.23200
O 	O 	0.42530 0.04039 0.54591 -0.47200
O 	O 	0.33430 0.07420 0.53186 -0.35500
O 	O 	0.42087 0.70440 0.35302 -0.39700
O 	O 	0.32160 0.69282 0.35924 -0.49100
O 	O 	0.44900 0.84400 0.48338 -0.15600
O 	O 	0.27340 0.83460 0.44711 -0.15300
O 	O 	0.45580 0.07520 0.60868 -0.46500
O 	O 	0.44482 0.17245 0.61198 -0.52600
O 	O 	0.79894 0.11070 0.79876 -0.45000
O 	O 	0.71657 0.12480 0.82801 -0.42900
O 	O 	0.63780 0.03750 0.68368 -0.18100
O 	O 	0.55330 0.12890 0.75550 -0.21700
C 	C 	0.38260 0.03790 0.52968 0.31400
C 	C 	0.38090 0.99290 0.50347 -0.04200
C 	C 	0.33460 0.99260 0.48234 0.01000
H 	H 	0.30360 0.02190 0.48340 0.03300
C 	C 	0.33370 0.94970 0.45987 -0.07300
H 	H 	0.30200 0.95110 0.44580 0.07100
C 	C 	0.37750 0.90490 0.45715 0.00400
C 	C 	0.41570 0.89970 0.48354 0.11500
C 	C 	0.42040 0.94340 0.50347 -0.10000
H 	H 	0.45100 0.94110 0.51800 0.07000
C 	C 	0.37300 0.85840 0.43309 -0.00400
C 	C 	0.42260 0.84730 0.41612 -0.06000
H 	H 	0.45780 0.87050 0.41950 0.06700
C 	C 	0.42420 0.80140 0.39294 -0.00400
H 	H 	0.45950 0.79550 0.38150 0.04800
C 	C 	0.37260 0.76620 0.38795 -0.07900
C 	C 	0.32100 0.77960 0.40583 -0.07300
H 	H 	0.28440 0.75910 0.40200 0.06300
C 	C 	0.32300 0.82290 0.42919 0.10400
C 	C 	0.37140 0.71620 0.36590 0.35100
C 	C 	0.49180 0.83090 0.51220 -0.28800
H 	H 	0.51310 0.79260 0.50950 0.13400
H 	H 	0.46670 0.82860 0.53000 0.11400
H 	H 	0.52110 0.86350 0.51440 0.12100
C 	C 	0.24030 0.82370 0.47970 -0.26000
H 	H 	0.24160 0.86110 0.49110 0.11800
H 	H 	0.26150 0.79190 0.49040 0.11800
H 	H 	0.19830 0.81180 0.47660 0.10100
C 	C 	0.47050 0.12630 0.62078 0.39900
C 	C 	0.51340 0.12800 0.64643 -0.14100
C 	C 	0.54980 0.07620 0.65337 -0.02500
H 	H 	0.54560 0.03950 0.64280 0.03600
C 	C 	0.59290 0.08240 0.67710 0.05700
C 	C 	0.59080 0.12850 0.69721 0.09800
C 	C 	0.56380 0.18140 0.68687 -0.13900
H 	H 	0.57340 0.21860 0.69600 0.08600
C 	C 	0.52170 0.18040 0.66277 0.07000
H 	H 	0.49960 0.21560 0.65800 0.00200
C 	C 	0.63240 0.12790 0.72397 -0.17100
C 	C 	0.60750 0.13590 0.75270 0.27200
C 	C 	0.64140 0.13870 0.77780 -0.21100
H 	H 	0.62390 0.15060 0.79600 0.11700
C 	C 	0.70380 0.12330 0.77604 0.03800
C 	C 	0.73050 0.12100 0.74730 -0.19800
H 	H 	0.77300 0.12170 0.74530 0.12000
C 	C 	0.69420 0.11770 0.72239 0.22500
C 	C 	0.74360 0.11830 0.80343 0.35000
C 	C 	0.67040 0.01540 0.65490 -0.05900
H 	H 	0.69730 0.98180 0.65970 0.02600
H 	H 	0.69400 0.04850 0.64650 0.06800
H 	H 	0.64030 0.00210 0.64050 0.01500
C 	C 	0.51600 0.15120 0.77930 -0.23200
H 	H 	0.48150 0.17290 0.77110 0.13100
H 	H 	0.53960 0.17840 0.79170 0.11500
H 	H 	0.50160 0.11730 0.79110 0.15400
C 	C 	0.21810 0.80060 0.44220 -0.12900
H 	H 	0.20860 0.80040 0.42110 0.07900
H 	H 	0.18500 0.81940 0.45310 0.06100
H 	H 	0.22360 0.75910 0.44910 0.07200
C 	C 	0.63060 0.98210 0.66480 -0.15300
H 	H 	0.60590 0.95250 0.67530 0.07800
H 	H 	0.67030 0.96480 0.66070 0.07700
H 	H 	0.61100 0.99300 0.64620 0.08000
O 	O 	0.72030 0.11400 0.69440 -0.20100
Cd	Cd	0.11955 0.38178 0.07603 1.23200
O 	O 	0.07470 0.45961 0.04591 -0.47300
O 	O 	0.16570 0.42580 0.03186 -0.35400
O 	O 	0.07913 0.79560 0.85302 -0.40000
O 	O 	0.17840 0.80718 0.85924 -0.49100
O 	O 	0.05100 0.65600 0.98338 -0.14800
O 	O 	0.22660 0.66540 0.94711 -0.15300
O 	O 	0.04420 0.42480 0.10868 -0.46400
O 	O 	0.05518 0.32755 0.11198 -0.52500
O 	O 	0.70106 0.38930 0.29876 -0.45000
O 	O 	0.78343 0.37520 0.32801 -0.42900
O 	O 	0.86220 0.46250 0.18368 -0.17600
O 	O 	0.94670 0.37110 0.25550 -0.22500
C 	C 	0.11740 0.46210 0.02968 0.32300
C 	C 	0.11910 0.50710 0.00347 -0.04700
C 	C 	0.16540 0.50740 0.98234 -0.01700
H 	H 	0.19640 0.47810 0.98340 0.05100
C 	C 	0.16630 0.55030 0.95987 -0.05900
H 	H 	0.19800 0.54890 0.94580 0.06400
C 	C 	0.12250 0.59510 0.95715 -0.00200
C 	C 	0.08430 0.60030 0.98354 0.11100
C 	C 	0.07960 0.55660 0.00347 -0.09900
H 	H 	0.04900 0.55890 0.01800 0.06300
C 	C 	0.12700 0.64160 0.93309 -0.00300
C 	C 	0.07740 0.65270 0.91612 -0.06200
H 	H 	0.04220 0.62950 0.91950 0.06400
C 	C 	0.07580 0.69860 0.89294 -0.00400
H 	H 	0.04050 0.70450 0.88150 0.04400
C 	C 	0.12740 0.73380 0.88795 -0.08000
C 	C 	0.17900 0.72040 0.90583 -0.07200
H 	H 	0.21560 0.74090 0.90200 0.06300
C 	C 	0.17700 0.67710 0.92919 0.10300
C 	C 	0.12860 0.78380 0.86590 0.35200
C 	C 	0.00820 0.66910 0.01220 -0.37500
H 	H 	0.98690 0.70740 0.00950 0.16700
H 	H 	0.03330 0.67140 0.03000 0.13700
H 	H 	0.97890 0.63650 0.01440 0.15400
C 	C 	0.25970 0.67630 0.97970 -0.25900
H 	H 	0.25840 0.63890 0.99110 0.11700
H 	H 	0.23850 0.70810 0.99040 0.11800
H 	H 	0.30170 0.68820 0.97660 0.10100
C 	C 	0.02950 0.37370 0.12078 0.38900
C 	C 	0.98660 0.37200 0.14643 -0.13700
C 	C 	0.95020 0.42380 0.15337 -0.02400
H 	H 	0.95440 0.46050 0.14280 0.04400
C 	C 	0.90710 0.41760 0.17710 0.05600
C 	C 	0.90920 0.37150 0.19721 0.10700
C 	C 	0.93620 0.31860 0.18687 -0.15200
H 	H 	0.92660 0.28140 0.19600 0.09300
C 	C 	0.97830 0.31960 0.16277 0.09600
H 	H 	0.00040 0.28440 0.15800 -0.01500
C 	C 	0.86760 0.37210 0.22397 -0.17500
C 	C 	0.89250 0.36410 0.25270 0.28000
C 	C 	0.85860 0.36130 0.27780 -0.21600
H 	H 	0.87610 0.34940 0.29600 0.11900
C 	C 	0.79620 0.37670 0.27604 0.04000
C 	C 	0.76950 0.37900 0.24730 -0.20100
H 	H 	0.72700 0.37830 0.24530 0.12100
C 	C 	0.80580 0.38230 0.22239 0.22700
C 	C 	0.75640 0.38170 0.30343 0.34900
C 	C 	0.82960 0.48460 0.15490 -0.09100
H 	H 	0.80270 0.51820 0.15970 0.03600
H 	H 	0.80600 0.45150 0.14650 0.08000
H 	H 	0.85970 0.49790 0.14050 0.04700
C 	C 	0.98400 0.34880 0.27930 -0.18200
H 	H 	0.01850 0.32710 0.27110 0.11000
H 	H 	0.96040 0.32160 0.29170 0.10200
H 	H 	0.99840 0.38270 0.29110 0.14500
C 	C 	0.28190 0.69940 0.94220 -0.13000
H 	H 	0.29140 0.69960 0.92110 0.07900
H 	H 	0.31500 0.68060 0.95310 0.06100
H 	H 	0.27640 0.74090 0.94910 0.07200
C 	C 	0.86940 0.51790 0.16480 -0.12200
H 	H 	0.89410 0.54750 0.17530 0.06800
H 	H 	0.82970 0.53520 0.16070 0.06200
H 	H 	0.88900 0.50700 0.14620 0.04800
O 	O 	0.77970 0.38600 0.19440 -0.20100
Cd	Cd	0.61955 0.88178 0.57603 1.23200
O 	O 	0.57470 0.95961 0.54591 -0.46800
O 	O 	0.66570 0.92580 0.53186 -0.35200
O 	O 	0.57913 0.29560 0.35302 -0.39800
O 	O 	0.67840 0.30718 0.35924 -0.49100
O 	O 	0.55100 0.15600 0.48338 -0.15900
O 	O 	0.72660 0.16540 0.44711 -0.15300
O 	O 	0.54420 0.92480 0.60868 -0.45900
O 	O 	0.55518 0.82755 0.61198 -0.52500
O 	O 	0.20106 0.88930 0.79876 -0.45100
O 	O 	0.28343 0.87520 0.82801 -0.42800
O 	O 	0.36220 0.96250 0.68368 -0.17300
O 	O 	0.44670 0.87110 0.75550 -0.21300
C 	C 	0.61740 0.96210 0.52968 0.32800
C 	C 	0.61910 0.00710 0.50347 -0.04200
C 	C 	0.66540 0.00740 0.48234 -0.05000
H 	H 	0.69640 0.97810 0.48340 0.07100
C 	C 	0.66630 0.05030 0.45987 -0.03900
H 	H 	0.69800 0.04890 0.44580 0.05500
C 	C 	0.62250 0.09510 0.45715 -0.01300
C 	C 	0.58430 0.10030 0.48354 0.12200
C 	C 	0.57960 0.05660 0.50347 -0.10900
H 	H 	0.54900 0.05890 0.51800 0.06700
C 	C 	0.62700 0.14160 0.43309 0.00300
C 	C 	0.57740 0.15270 0.41612 -0.06500
H 	H 	0.54220 0.12950 0.41950 0.06600
C 	C 	0.57580 0.19860 0.39294 -0.00200
H 	H 	0.54050 0.20450 0.38150 0.04500
C 	C 	0.62740 0.23380 0.38795 -0.08100
C 	C 	0.67900 0.22040 0.40583 -0.07100
H 	H 	0.71560 0.24090 0.40200 0.06200
C 	C 	0.67700 0.17710 0.42919 0.10000
C 	C 	0.62860 0.28380 0.36590 0.35200
C 	C 	0.50820 0.16910 0.51220 -0.28500
H 	H 	0.48690 0.20740 0.50950 0.13300
H 	H 	0.53330 0.17140 0.53000 0.11200
H 	H 	0.47890 0.13650 0.51440 0.11800
C 	C 	0.75970 0.17630 0.47970 -0.25900
H 	H 	0.75840 0.13890 0.49110 0.11700
H 	H 	0.73850 0.20810 0.49040 0.11800
H 	H 	0.80170 0.18820 0.47660 0.10100
C 	C 	0.52950 0.87370 0.62078 0.39700
C 	C 	0.48660 0.87200 0.64643 -0.13700
C 	C 	0.45020 0.92380 0.65337 -0.02900
H 	H 	0.45440 0.96050 0.64280 0.04700
C 	C 	0.40710 0.91760 0.67710 0.06200
C 	C 	0.40920 0.87150 0.69721 0.09600
C 	C 	0.43620 0.81860 0.68687 -0.13600
H 	H 	0.42660 0.78140 0.69600 0.08500
C 	C 	0.47830 0.81960 0.66277 0.06700
H 	H 	0.50040 0.78440 0.65800 0.00300
C 	C 	0.36760 0.87210 0.72397 -0.16800
C 	C 	0.39250 0.86410 0.75270 0.27000
C 	C 	0.35860 0.86130 0.77780 -0.20800
H 	H 	0.37610 0.84940 0.79600 0.11600
C 	C 	0.29620 0.87670 0.77604 0.03700
C 	C 	0.26950 0.87900 0.74730 -0.19800
H 	H 	0.22700 0.87830 0.74530 0.11900
C 	C 	0.30580 0.88230 0.72239 0.22300
C 	C 	0.25640 0.88170 0.80343 0.35100
C 	C 	0.32960 0.98460 0.65490 -0.11800
H 	H 	0.30270 0.01820 0.65970 0.04500
H 	H 	0.30600 0.95150 0.64650 0.09000
H 	H 	0.35970 0.99790 0.64050 0.07700
C 	C 	0.48400 0.84880 0.77930 -0.23600
H 	H 	0.51850 0.82710 0.77110 0.13300
H 	H 	0.46040 0.82160 0.79170 0.11600
H 	H 	0.49840 0.88270 0.79110 0.15700
C 	C 	0.78190 0.19940 0.44220 -0.13100
H 	H 	0.79140 0.19960 0.42110 0.08000
H 	H 	0.81500 0.18060 0.45310 0.06200
H 	H 	0.77640 0.24090 0.44910 0.07300
C 	C 	0.36940 0.01790 0.66480 -0.09100
H 	H 	0.39410 0.04750 0.67530 0.05600
H 	H 	0.32970 0.03520 0.66070 0.04700
H 	H 	0.38900 0.00700 0.64620 0.01600
O 	O 	0.27970 0.88600 0.69440 -0.20000
Cd	Cd	0.61822 0.11955 0.92397 1.23200
O 	O 	0.54039 0.07470 0.95409 -0.47300
O 	O 	0.57420 0.16570 0.96814 -0.35400
O 	O 	0.20440 0.07913 0.14698 -0.40100
O 	O 	0.19282 0.17840 0.14076 -0.49200
O 	O 	0.34400 0.05100 0.01662 -0.14800
O 	O 	0.33460 0.22660 0.05289 -0.15300
O 	O 	0.57520 0.04420 0.89132 -0.46400
O 	O 	0.67245 0.05518 0.88802 -0.52500
O 	O 	0.61070 0.70106 0.70124 -0.45000
O 	O 	0.62480 0.78343 0.67199 -0.42900
O 	O 	0.53750 0.86220 0.81632 -0.17600
O 	O 	0.62890 0.94670 0.74450 -0.22400
C 	C 	0.53790 0.11740 0.97032 0.32300
C 	C 	0.49290 0.11910 0.99653 -0.04700
C 	C 	0.49260 0.16540 0.01766 -0.01700
H 	H 	0.52190 0.19640 0.01660 0.05100
C 	C 	0.44970 0.16630 0.04013 -0.05900
H 	H 	0.45110 0.19800 0.05420 0.06400
C 	C 	0.40490 0.12250 0.04285 -0.00200
C 	C 	0.39970 0.08430 0.01646 0.11100
C 	C 	0.44340 0.07960 0.99653 -0.09900
H 	H 	0.44110 0.04900 0.98200 0.06300
C 	C 	0.35840 0.12700 0.06691 -0.00300
C 	C 	0.34730 0.07740 0.08388 -0.06200
H 	H 	0.37050 0.04220 0.08050 0.06400
C 	C 	0.30140 0.07580 0.10706 -0.00400
H 	H 	0.29550 0.04050 0.11850 0.04400
C 	C 	0.26620 0.12740 0.11205 -0.08100
C 	C 	0.27960 0.17900 0.09417 -0.07200
H 	H 	0.25910 0.21560 0.09800 0.06300
C 	C 	0.32290 0.17700 0.07081 0.10300
C 	C 	0.21620 0.12860 0.13410 0.35200
C 	C 	0.33090 0.00820 0.98780 -0.37800
H 	H 	0.29260 0.98690 0.99050 0.16800
H 	H 	0.32860 0.03330 0.97000 0.13700
H 	H 	0.36350 0.97890 0.98560 0.15500
C 	C 	0.32370 0.25970 0.02030 -0.25900
H 	H 	0.36110 0.25840 0.00890 0.11700
H 	H 	0.29190 0.23850 0.00960 0.11800
H 	H 	0.31180 0.30170 0.02340 0.10100
C 	C 	0.62630 0.02950 0.87922 0.38900
C 	C 	0.62800 0.98660 0.85357 -0.13600
C 	C 	0.57620 0.95020 0.84663 -0.02400
H 	H 	0.53950 0.95440 0.85720 0.04400
C 	C 	0.58240 0.90710 0.82290 0.05700
C 	C 	0.62850 0.90920 0.80279 0.10700
C 	C 	0.68140 0.93620 0.81313 -0.15100
H 	H 	0.71860 0.92660 0.80400 0.09300
C 	C 	0.68040 0.97830 0.83723 0.09500
H 	H 	0.71560 0.00040 0.84200 -0.01400
C 	C 	0.62790 0.86760 0.77603 -0.17500
C 	C 	0.63590 0.89250 0.74730 0.28000
C 	C 	0.63870 0.85860 0.72220 -0.21500
H 	H 	0.65060 0.87610 0.70400 0.11900
C 	C 	0.62330 0.79620 0.72396 0.04000
C 	C 	0.62100 0.76950 0.75270 -0.20100
H 	H 	0.62170 0.72700 0.75470 0.12100
C 	C 	0.61770 0.80580 0.77761 0.22700
C 	C 	0.61830 0.75640 0.69657 0.34900
C 	C 	0.51540 0.82960 0.84510 -0.09100
H 	H 	0.48180 0.80270 0.84030 0.03600
H 	H 	0.54850 0.80600 0.85350 0.08000
H 	H 	0.50210 0.85970 0.85950 0.04700
C 	C 	0.65120 0.98400 0.72070 -0.18400
H 	H 	0.67290 0.01850 0.72890 0.11000
H 	H 	0.67840 0.96040 0.70830 0.10200
H 	H 	0.61730 0.99840 0.70890 0.14500
C 	C 	0.30060 0.28190 0.05780 -0.13000
H 	H 	0.30040 0.29140 0.07890 0.07900
H 	H 	0.31940 0.31500 0.04690 0.06100
H 	H 	0.25910 0.27640 0.05090 0.07200
C 	C 	0.48210 0.86940 0.83520 -0.12200
H 	H 	0.45250 0.89410 0.82470 0.06800
H 	H 	0.46480 0.82970 0.83930 0.06200
H 	H 	0.49300 0.88900 0.85380 0.04800
O 	O 	0.61400 0.77970 0.80560 -0.20100
Cd	Cd	0.11822 0.61955 0.42397 1.23200
O 	O 	0.04039 0.57470 0.45409 -0.47200
O 	O 	0.07420 0.66570 0.46814 -0.35400
O 	O 	0.70440 0.57913 0.64698 -0.39700
O 	O 	0.69282 0.67840 0.64076 -0.49100
O 	O 	0.84400 0.55100 0.51662 -0.15600
O 	O 	0.83460 0.72660 0.55289 -0.15200
O 	O 	0.07520 0.54420 0.39132 -0.46500
O 	O 	0.17245 0.55518 0.38802 -0.52600
O 	O 	0.11070 0.20106 0.20124 -0.45000
O 	O 	0.12480 0.28343 0.17199 -0.42900
O 	O 	0.03750 0.36220 0.31632 -0.18200
O 	O 	0.12890 0.44670 0.24450 -0.21700
C 	C 	0.03790 0.61740 0.47032 0.31400
C 	C 	0.99290 0.61910 0.49653 -0.04100
C 	C 	0.99260 0.66540 0.51766 0.00900
H 	H 	0.02190 0.69640 0.51660 0.03500
C 	C 	0.94970 0.66630 0.54013 -0.07200
H 	H 	0.95110 0.69800 0.55420 0.07200
C 	C 	0.90490 0.62250 0.54285 0.00400
C 	C 	0.89970 0.58430 0.51646 0.11500
C 	C 	0.94340 0.57960 0.49653 -0.10100
H 	H 	0.94110 0.54900 0.48200 0.07000
C 	C 	0.85840 0.62700 0.56691 -0.00400
C 	C 	0.84730 0.57740 0.58388 -0.06000
H 	H 	0.87050 0.54220 0.58050 0.06700
C 	C 	0.80140 0.57580 0.60706 -0.00400
H 	H 	0.79550 0.54050 0.61850 0.04700
C 	C 	0.76620 0.62740 0.61205 -0.07900
C 	C 	0.77960 0.67900 0.59417 -0.07300
H 	H 	0.75910 0.71560 0.59800 0.06300
C 	C 	0.82290 0.67700 0.57081 0.10400
C 	C 	0.71620 0.62860 0.63410 0.35100
C 	C 	0.83090 0.50820 0.48780 -0.28800
H 	H 	0.79260 0.48690 0.49050 0.13400
H 	H 	0.82860 0.53330 0.47000 0.11400
H 	H 	0.86350 0.47890 0.48560 0.12100
C 	C 	0.82370 0.75970 0.52030 -0.26300
H 	H 	0.86110 0.75840 0.50890 0.12000
H 	H 	0.79190 0.73850 0.50960 0.12000
H 	H 	0.81180 0.80170 0.52340 0.10300
C 	C 	0.12630 0.52950 0.37922 0.39900
C 	C 	0.12800 0.48660 0.35357 -0.14100
C 	C 	0.07620 0.45020 0.34663 -0.02600
H 	H 	0.03950 0.45440 0.35720 0.03600
C 	C 	0.08240 0.40710 0.32290 0.05700
C 	C 	0.12850 0.40920 0.30279 0.09800
C 	C 	0.18140 0.43620 0.31313 -0.13900
H 	H 	0.21860 0.42660 0.30400 0.08600
C 	C 	0.18040 0.47830 0.33723 0.06900
H 	H 	0.21560 0.50040 0.34200 0.00200
C 	C 	0.12790 0.36760 0.27603 -0.17100
C 	C 	0.13590 0.39250 0.24730 0.27200
C 	C 	0.13870 0.35860 0.22220 -0.21100
H 	H 	0.15060 0.37610 0.20400 0.11700
C 	C 	0.12330 0.29620 0.22396 0.03800
C 	C 	0.12100 0.26950 0.25270 -0.19800
H 	H 	0.12170 0.22700 0.25470 0.11900
C 	C 	0.11770 0.30580 0.27761 0.22500
C 	C 	0.11830 0.25640 0.19657 0.35000
C 	C 	0.01540 0.32960 0.34510 -0.05900
H 	H 	0.98180 0.30270 0.34030 0.02600
H 	H 	0.04850 0.30600 0.35350 0.06700
H 	H 	0.00210 0.35970 0.35950 0.01400
C 	C 	0.15120 0.48400 0.22070 -0.23200
H 	H 	0.17290 0.51850 0.22890 0.13100
H 	H 	0.17840 0.46040 0.20830 0.11500
H 	H 	0.11730 0.49840 0.20890 0.15400
C 	C 	0.80060 0.78190 0.55780 -0.13200
H 	H 	0.80040 0.79140 0.57890 0.08100
H 	H 	0.81940 0.81500 0.54690 0.06300
H 	H 	0.75910 0.77640 0.55090 0.07300
C 	C 	0.98210 0.36940 0.33520 -0.15300
H 	H 	0.95250 0.39410 0.32470 0.07800
H 	H 	0.96480 0.32970 0.33930 0.07800
H 	H 	0.99300 0.38900 0.35380 0.08000
O 	O 	0.11400 0.27970 0.30560 -0.20300
Cd	Cd	0.38178 0.88045 0.92397 1.23200
O 	O 	0.45961 0.92530 0.95409 -0.46700
O 	O 	0.42580 0.83430 0.96814 -0.35300
O 	O 	0.79560 0.92087 0.14698 -0.39400
O 	O 	0.80718 0.82160 0.14076 -0.49100
O 	O 	0.65600 0.94900 0.01662 -0.16700
O 	O 	0.66540 0.77340 0.05289 -0.15300
O 	O 	0.42480 0.95580 0.89132 -0.46100
O 	O 	0.32755 0.94482 0.88802 -0.52600
O 	O 	0.38930 0.29894 0.70124 -0.45100
O 	O 	0.37520 0.21657 0.67199 -0.42900
O 	O 	0.46250 0.13780 0.81632 -0.17800
O 	O 	0.37110 0.05330 0.74450 -0.20600
C 	C 	0.46210 0.88260 0.97032 0.31900
C 	C 	0.50710 0.88090 0.99653 -0.03700
C 	C 	0.50740 0.83460 0.01766 -0.02400
H 	H 	0.47810 0.80360 0.01660 0.05400
C 	C 	0.55030 0.83370 0.04013 -0.05200
H 	H 	0.54890 0.80200 0.05420 0.06200
C 	C 	0.59510 0.87750 0.04285 -0.00700
C 	C 	0.60030 0.91570 0.01646 0.12600
C 	C 	0.55660 0.92040 0.99653 -0.11000
H 	H 	0.55890 0.95100 0.98200 0.07400
C 	C 	0.64160 0.87300 0.06691 0.00200
C 	C 	0.65270 0.92260 0.08388 -0.06300
H 	H 	0.62950 0.95780 0.08050 0.07000
C 	C 	0.69860 0.92420 0.10706 -0.00200
H 	H 	0.70450 0.95950 0.11850 0.04900
C 	C 	0.73380 0.87260 0.11205 -0.07900
C 	C 	0.72040 0.82100 0.09417 -0.07100
H 	H 	0.74090 0.78440 0.09800 0.06300
C 	C 	0.67710 0.82300 0.07081 0.10200
C 	C 	0.78380 0.87140 0.13410 0.35100
C 	C 	0.66910 0.99180 0.98780 -0.19700
H 	H 	0.70740 0.01310 0.99050 0.09900
H 	H 	0.67140 0.96670 0.97000 0.09000
H 	H 	0.63650 0.02110 0.98560 0.08500
C 	C 	0.67630 0.74030 0.02030 -0.26000
H 	H 	0.63890 0.74160 0.00890 0.11800
H 	H 	0.70810 0.76150 0.00960 0.11900
H 	H 	0.68820 0.69830 0.02340 0.10100
C 	C 	0.37370 0.97050 0.87922 0.40600
C 	C 	0.37200 0.01340 0.85357 -0.14100
C 	C 	0.42380 0.04980 0.84663 -0.03100
H 	H 	0.46050 0.04560 0.85720 0.04000
C 	C 	0.41760 0.09290 0.82290 0.06300
C 	C 	0.37150 0.09080 0.80279 0.08800
C 	C 	0.31860 0.06380 0.81313 -0.12300
H 	H 	0.28140 0.07340 0.80400 0.07700
C 	C 	0.31960 0.02170 0.83723 0.04000
H 	H 	0.28440 0.99960 0.84200 0.01900
C 	C 	0.37210 0.13240 0.77603 -0.16400
C 	C 	0.36410 0.10750 0.74730 0.26100
C 	C 	0.36130 0.14140 0.72220 -0.20300
H 	H 	0.34940 0.12390 0.70400 0.11400
C 	C 	0.37670 0.20380 0.72396 0.03400
C 	C 	0.37900 0.23050 0.75270 -0.19500
H 	H 	0.37830 0.27300 0.75470 0.11900
C 	C 	0.38230 0.19420 0.77761 0.22100
C 	C 	0.38170 0.24360 0.69657 0.35100
C 	C 	0.48460 0.17040 0.84510 -0.08600
H 	H 	0.51820 0.19730 0.84030 0.03400
H 	H 	0.45150 0.19400 0.85350 0.07800
H 	H 	0.49790 0.14030 0.85950 0.04500
C 	C 	0.34880 0.01600 0.72070 -0.28600
H 	H 	0.32710 0.98150 0.72890 0.15500
H 	H 	0.32160 0.03960 0.70830 0.12900
H 	H 	0.38270 0.00160 0.70890 0.16600
C 	C 	0.69940 0.71810 0.05780 -0.13000
H 	H 	0.69960 0.70860 0.07890 0.07900
H 	H 	0.68060 0.68500 0.04690 0.06100
H 	H 	0.74090 0.72360 0.05090 0.07300
C 	C 	0.51790 0.13060 0.83520 -0.12400
H 	H 	0.54750 0.10590 0.82470 0.06600
H 	H 	0.53520 0.17030 0.83930 0.06300
H 	H 	0.50700 0.11100 0.85380 0.04800
O 	O 	0.38600 0.22030 0.80560 -0.20000
Cd	Cd	0.88178 0.38045 0.42397 1.23200
O 	O 	0.95961 0.42530 0.45409 -0.46800
O 	O 	0.92580 0.33430 0.46814 -0.35300
O 	O 	0.29560 0.42087 0.64698 -0.39800
O 	O 	0.30718 0.32160 0.64076 -0.49100
O 	O 	0.15600 0.44900 0.51662 -0.15900
O 	O 	0.16540 0.27340 0.55289 -0.15400
O 	O 	0.92480 0.45580 0.39132 -0.45900
O 	O 	0.82755 0.44482 0.38802 -0.52500
O 	O 	0.88930 0.79894 0.20124 -0.45000
O 	O 	0.87520 0.71657 0.17199 -0.42800
O 	O 	0.96250 0.63780 0.31632 -0.17300
O 	O 	0.87110 0.55330 0.24450 -0.21300
C 	C 	0.96210 0.38260 0.47032 0.32900
C 	C 	0.00710 0.38090 0.49653 -0.04200
C 	C 	0.00740 0.33460 0.51766 -0.05100
H 	H 	0.97810 0.30360 0.51660 0.07100
C 	C 	0.05030 0.33370 0.54013 -0.03900
H 	H 	0.04890 0.30200 0.55420 0.05400
C 	C 	0.09510 0.37750 0.54285 -0.01300
C 	C 	0.10030 0.41570 0.51646 0.12200
C 	C 	0.05660 0.42040 0.49653 -0.10900
H 	H 	0.05890 0.45100 0.48200 0.06700
C 	C 	0.14160 0.37300 0.56691 0.00200
C 	C 	0.15270 0.42260 0.58388 -0.06500
H 	H 	0.12950 0.45780 0.58050 0.06600
C 	C 	0.19860 0.42420 0.60706 -0.00200
H 	H 	0.20450 0.45950 0.61850 0.04500
C 	C 	0.23380 0.37260 0.61205 -0.08100
C 	C 	0.22040 0.32100 0.59417 -0.07100
H 	H 	0.24090 0.28440 0.59800 0.06300
C 	C 	0.17710 0.32300 0.57081 0.10100
C 	C 	0.28380 0.37140 0.63410 0.35200
C 	C 	0.16910 0.49180 0.48780 -0.28500
H 	H 	0.20740 0.51310 0.49050 0.13300
H 	H 	0.17140 0.46670 0.47000 0.11200
H 	H 	0.13650 0.52110 0.48560 0.11800
C 	C 	0.17630 0.24030 0.52030 -0.25600
H 	H 	0.13890 0.24160 0.50890 0.11500
H 	H 	0.20810 0.26150 0.50960 0.11700
H 	H 	0.18820 0.19830 0.52340 0.09900
C 	C 	0.87370 0.47050 0.37922 0.39700
C 	C 	0.87200 0.51340 0.35357 -0.13700
C 	C 	0.92380 0.54980 0.34663 -0.02900
H 	H 	0.96050 0.54560 0.35720 0.04700
C 	C 	0.91760 0.59290 0.32290 0.06200
C 	C 	0.87150 0.59080 0.30279 0.09700
C 	C 	0.81860 0.56380 0.31313 -0.13600
H 	H 	0.78140 0.57340 0.30400 0.08500
C 	C 	0.81960 0.52170 0.33723 0.06700
H 	H 	0.78440 0.49960 0.34200 0.00300
C 	C 	0.87210 0.63240 0.27603 -0.16800
C 	C 	0.86410 0.60750 0.24730 0.27000
C 	C 	0.86130 0.64140 0.22220 -0.20800
H 	H 	0.84940 0.62390 0.20400 0.11600
C 	C 	0.87670 0.70380 0.22396 0.03700
C 	C 	0.87900 0.73050 0.25270 -0.19800
H 	H 	0.87830 0.77300 0.25470 0.12000
C 	C 	0.88230 0.69420 0.27761 0.22300
C 	C 	0.88170 0.74360 0.19657 0.35100
C 	C 	0.98460 0.67040 0.34510 -0.11600
H 	H 	0.01820 0.69730 0.34030 0.04400
H 	H 	0.95150 0.69400 0.35350 0.09000
H 	H 	0.99790 0.64030 0.35950 0.07600
C 	C 	0.84880 0.51600 0.22070 -0.23600
H 	H 	0.82710 0.48150 0.22890 0.13300
H 	H 	0.82160 0.53960 0.20830 0.11600
H 	H 	0.88270 0.50160 0.20890 0.15700
C 	C 	0.19940 0.21810 0.55780 -0.12800
H 	H 	0.19960 0.20860 0.57890 0.07800
H 	H 	0.18060 0.18500 0.54690 0.05900
H 	H 	0.24090 0.22360 0.55090 0.07200
C 	C 	0.01790 0.63060 0.33520 -0.09300
H 	H 	0.04750 0.60590 0.32470 0.05700
H 	H 	0.03520 0.67030 0.33930 0.04800
H 	H 	0.00700 0.61100 0.35380 0.01700
O 	O 	0.88600 0.72030 0.30560 -0.19800
Cd	Cd	0.61955 0.61822 0.67397 1.23200
O 	O 	0.57470 0.54039 0.70409 -0.47000
O 	O 	0.66570 0.57420 0.71814 -0.35300
O 	O 	0.57913 0.20440 0.89698 -0.39800
O 	O 	0.67840 0.19282 0.89076 -0.49100
O 	O 	0.55100 0.34400 0.76662 -0.15700
O 	O 	0.72660 0.33460 0.80289 -0.15200
O 	O 	0.54420 0.57520 0.64132 -0.46200
O 	O 	0.55518 0.67245 0.63802 -0.52600
O 	O 	0.20106 0.61070 0.45124 -0.45000
O 	O 	0.28343 0.62480 0.42199 -0.42900
O 	O 	0.36220 0.53750 0.56632 -0.17700
O 	O 	0.44670 0.62890 0.49450 -0.21500
C 	C 	0.61740 0.53790 0.72032 0.32200
C 	C 	0.61910 0.49290 0.74653 -0.04200
C 	C 	0.66540 0.49260 0.76766 -0.02000
H 	H 	0.69640 0.52190 0.76660 0.05300
C 	C 	0.66630 0.44970 0.79013 -0.05500
H 	H 	0.69800 0.45110 0.80420 0.06400
C 	C 	0.62250 0.40490 0.79285 -0.00400
C 	C 	0.58430 0.39970 0.76646 0.11800
C 	C 	0.57960 0.44340 0.74653 -0.10500
H 	H 	0.54900 0.44110 0.73200 0.06800
C 	C 	0.62700 0.35840 0.81691 -0.00000
C 	C 	0.57740 0.34730 0.83388 -0.06300
H 	H 	0.54220 0.37050 0.83050 0.06700
C 	C 	0.57580 0.30140 0.85706 -0.00300
H 	H 	0.54050 0.29550 0.86850 0.04600
C 	C 	0.62740 0.26620 0.86205 -0.08000
C 	C 	0.67900 0.27960 0.84417 -0.07200
H 	H 	0.71560 0.25910 0.84800 0.06300
C 	C 	0.67700 0.32290 0.82081 0.10200
C 	C 	0.62860 0.21620 0.88410 0.35200
C 	C 	0.50820 0.33090 0.73780 -0.28600
H 	H 	0.48690 0.29260 0.74050 0.13300
H 	H 	0.53330 0.32860 0.72000 0.11300
H 	H 	0.47890 0.36350 0.73560 0.12000
C 	C 	0.75970 0.32370 0.77030 -0.26100
H 	H 	0.75840 0.36110 0.75890 0.11800
H 	H 	0.73850 0.29190 0.75960 0.11900
H 	H 	0.80170 0.31180 0.77340 0.10200
C 	C 	0.52950 0.62630 0.62922 0.39800
C 	C 	0.48660 0.62800 0.60357 -0.13900
C 	C 	0.45020 0.57620 0.59663 -0.02700
H 	H 	0.45440 0.53950 0.60720 0.04100
C 	C 	0.40710 0.58240 0.57290 0.06000
C 	C 	0.40920 0.62850 0.55279 0.09700
C 	C 	0.43620 0.68140 0.56313 -0.13700
H 	H 	0.42660 0.71860 0.55400 0.08500
C 	C 	0.47830 0.68040 0.58723 0.06800
H 	H 	0.50040 0.71560 0.59200 0.00200
C 	C 	0.36760 0.62790 0.52603 -0.17000
C 	C 	0.39250 0.63590 0.49730 0.27100
C 	C 	0.35860 0.63870 0.47220 -0.20900
H 	H 	0.37610 0.65060 0.45400 0.11600
C 	C 	0.29620 0.62330 0.47396 0.03700
C 	C 	0.26950 0.62100 0.50270 -0.19800
H 	H 	0.22700 0.62170 0.50470 0.11900
C 	C 	0.30580 0.61770 0.52761 0.22400
C 	C 	0.25640 0.61830 0.44657 0.35000
C 	C 	0.32960 0.51540 0.59510 -0.08800
H 	H 	0.30270 0.48180 0.59030 0.03500
H 	H 	0.30600 0.54850 0.60350 0.07900
H 	H 	0.35970 0.50210 0.60950 0.04600
C 	C 	0.48400 0.65120 0.47070 -0.23400
H 	H 	0.51850 0.67290 0.47890 0.13200
H 	H 	0.46040 0.67840 0.45830 0.11500
H 	H 	0.49840 0.61730 0.45890 0.15500
C 	C 	0.78190 0.30060 0.80780 -0.13100
H 	H 	0.79140 0.30040 0.82890 0.08000
H 	H 	0.81500 0.31940 0.79690 0.06200
H 	H 	0.77640 0.25910 0.80090 0.07300
C 	C 	0.36940 0.48210 0.58520 -0.12200
H 	H 	0.39410 0.45250 0.57470 0.06700
H 	H 	0.32970 0.46480 0.58930 0.06200
H 	H 	0.38900 0.49300 0.60380 0.04800
O 	O 	0.27970 0.61400 0.55560 -0.20100
Cd	Cd	0.11955 0.11822 0.17397 1.23200
O 	O 	0.07470 0.04039 0.20409 -0.47500
O 	O 	0.16570 0.07420 0.21814 -0.35500
O 	O 	0.07913 0.70440 0.39698 -0.40000
O 	O 	0.17840 0.69282 0.39076 -0.49100
O 	O 	0.05100 0.84400 0.26662 -0.14700
O 	O 	0.22660 0.83460 0.30289 -0.15300
O 	O 	0.04420 0.07520 0.14132 -0.46600
O 	O 	0.05518 0.17245 0.13802 -0.52500
O 	O 	0.70106 0.11070 0.95124 -0.45000
O 	O 	0.78343 0.12480 0.92199 -0.42900
O 	O 	0.86220 0.03750 0.06632 -0.18000
O 	O 	0.94670 0.12890 0.99450 -0.22700
C 	C 	0.11740 0.03790 0.22032 0.31600
C 	C 	0.11910 0.99290 0.24653 -0.04600
C 	C 	0.16540 0.99260 0.26766 0.01300
H 	H 	0.19640 0.02190 0.26660 0.03200
C 	C 	0.16630 0.94970 0.29013 -0.07600
H 	H 	0.19800 0.95110 0.30420 0.07200
C 	C 	0.12250 0.90490 0.29285 0.00700
C 	C 	0.08430 0.89970 0.26646 0.10800
C 	C 	0.07960 0.94340 0.24653 -0.09500
H 	H 	0.04900 0.94110 0.23200 0.06500
C 	C 	0.12700 0.85840 0.31691 -0.00600
C 	C 	0.07740 0.84730 0.33388 -0.05900
H 	H 	0.04220 0.87050 0.33050 0.06400
C 	C 	0.07580 0.80140 0.35706 -0.00500
H 	H 	0.04050 0.79550 0.36850 0.04500
C 	C 	0.12740 0.76620 0.36205 -0.07900
C 	C 	0.17900 0.77960 0.34417 -0.07300
H 	H 	0.21560 0.75910 0.34800 0.06300
C 	C 	0.17700 0.82290 0.32081 0.10500
C 	C 	0.12860 0.71620 0.38410 0.35200
C 	C 	0.00820 0.83090 0.23780 -0.37500
H 	H 	0.98690 0.79260 0.24050 0.16700
H 	H 	0.03330 0.82860 0.22000 0.13700
H 	H 	0.97890 0.86350 0.23560 0.15400
C 	C 	0.25970 0.82370 0.27030 -0.26100
H 	H 	0.25840 0.86110 0.25890 0.11900
H 	H 	0.23850 0.79190 0.25960 0.11900
H 	H 	0.30170 0.81180 0.27340 0.10200
C 	C 	0.02950 0.12630 0.12922 0.39000
C 	C 	0.98660 0.12800 0.10357 -0.13800
C 	C 	0.95020 0.07620 0.09663 -0.02200
H 	H 	0.95440 0.03950 0.10720 0.03800
C 	C 	0.90710 0.08240 0.07290 0.05400
C 	C 	0.90920 0.12850 0.05279 0.10800
C 	C 	0.93620 0.18140 0.06313 -0.15300
H 	H 	0.92660 0.21860 0.05400 0.09400
C 	C 	0.97830 0.18040 0.08723 0.09800
H 	H 	0.00040 0.21560 0.09200 -0.01600
C 	C 	0.86760 0.12790 0.02603 -0.17700
C 	C 	0.89250 0.13590 0.99730 0.28100
C 	C 	0.85860 0.13870 0.97220 -0.21700
H 	H 	0.87610 0.15060 0.95400 0.11900
C 	C 	0.79620 0.12330 0.97396 0.04100
C 	C 	0.76950 0.12100 0.00270 -0.20100
H 	H 	0.72700 0.12170 0.00470 0.12100
C 	C 	0.80580 0.11770 0.02761 0.22900
C 	C 	0.75640 0.11830 0.94657 0.34900
C 	C 	0.82960 0.01540 0.09510 -0.06300
H 	H 	0.80270 0.98180 0.09030 0.02700
H 	H 	0.80600 0.04850 0.10350 0.06900
H 	H 	0.85970 0.00210 0.10950 0.01700
C 	C 	0.98400 0.15120 0.97070 -0.18000
H 	H 	0.01850 0.17290 0.97890 0.10900
H 	H 	0.96040 0.17840 0.95830 0.10100
H 	H 	0.99840 0.11730 0.95890 0.14300
C 	C 	0.28190 0.80060 0.30780 -0.13000
H 	H 	0.29140 0.80040 0.32890 0.08000
H 	H 	0.31500 0.81940 0.29690 0.06200
H 	H 	0.27640 0.75910 0.30090 0.07300
C 	C 	0.86940 0.98210 0.08520 -0.15200
H 	H 	0.89410 0.95250 0.07470 0.07900
H 	H 	0.82970 0.96480 0.08930 0.07700
H 	H 	0.88900 0.99300 0.10380 0.07900
O 	O 	0.77970 0.11400 0.05560 -0.20300
Cd	Cd	0.38045 0.38178 0.67397 1.23200
O 	O 	0.42530 0.45961 0.70409 -0.47000
O 	O 	0.33430 0.42580 0.71814 -0.35400
O 	O 	0.42087 0.79560 0.89698 -0.39700
O 	O 	0.32160 0.80718 0.89076 -0.49100
O 	O 	0.44900 0.65600 0.76662 -0.15700
O 	O 	0.27340 0.66540 0.80289 -0.15400
O 	O 	0.45580 0.42480 0.64132 -0.46200
O 	O 	0.44482 0.32755 0.63802 -0.52600
O 	O 	0.79894 0.38930 0.45124 -0.45000
O 	O 	0.71657 0.37520 0.42199 -0.42900
O 	O 	0.63780 0.46250 0.56632 -0.17700
O 	O 	0.55330 0.37110 0.49450 -0.21500
C 	C 	0.38260 0.46210 0.72032 0.32200
C 	C 	0.38090 0.50710 0.74653 -0.04200
C 	C 	0.33460 0.50740 0.76766 -0.02000
H 	H 	0.30360 0.47810 0.76660 0.05200
C 	C 	0.33370 0.55030 0.79013 -0.05600
H 	H 	0.30200 0.54890 0.80420 0.06300
C 	C 	0.37750 0.59510 0.79285 -0.00400
C 	C 	0.41570 0.60030 0.76646 0.11800
C 	C 	0.42040 0.55660 0.74653 -0.10400
H 	H 	0.45100 0.55890 0.73200 0.06800
C 	C 	0.37300 0.64160 0.81691 -0.00100
C 	C 	0.42260 0.65270 0.83388 -0.06200
H 	H 	0.45780 0.62950 0.83050 0.06700
C 	C 	0.42420 0.69860 0.85706 -0.00300
H 	H 	0.45950 0.70450 0.86850 0.04600
C 	C 	0.37260 0.73380 0.86205 -0.08000
C 	C 	0.32100 0.72040 0.84417 -0.07200
H 	H 	0.28440 0.74090 0.84800 0.06300
C 	C 	0.32300 0.67710 0.82081 0.10300
C 	C 	0.37140 0.78380 0.88410 0.35200
C 	C 	0.49180 0.66910 0.73780 -0.28600
H 	H 	0.51310 0.70740 0.74050 0.13300
H 	H 	0.46670 0.67140 0.72000 0.11300
H 	H 	0.52110 0.63650 0.73560 0.12000
C 	C 	0.24030 0.67630 0.77030 -0.25800
H 	H 	0.24160 0.63890 0.75890 0.11700
H 	H 	0.26150 0.70810 0.75960 0.11800
H 	H 	0.19830 0.68820 0.77340 0.10000
C 	C 	0.47050 0.37370 0.62922 0.39800
C 	C 	0.51340 0.37200 0.60357 -0.13900
C 	C 	0.54980 0.42380 0.59663 -0.02700
H 	H 	0.54560 0.46050 0.60720 0.04100
C 	C 	0.59290 0.41760 0.57290 0.06000
C 	C 	0.59080 0.37150 0.55279 0.09700
C 	C 	0.56380 0.31860 0.56313 -0.13700
H 	H 	0.57340 0.28140 0.55400 0.08500
C 	C 	0.52170 0.31960 0.58723 0.06800
H 	H 	0.49960 0.28440 0.59200 0.00200
C 	C 	0.63240 0.37210 0.52603 -0.17000
C 	C 	0.60750 0.36410 0.49730 0.27100
C 	C 	0.64140 0.36130 0.47220 -0.20900
H 	H 	0.62390 0.34940 0.45400 0.11600
C 	C 	0.70380 0.37670 0.47396 0.03700
C 	C 	0.73050 0.37900 0.50270 -0.19800
H 	H 	0.77300 0.37830 0.50470 0.12000
C 	C 	0.69420 0.38230 0.52761 0.22400
C 	C 	0.74360 0.38170 0.44657 0.35000
C 	C 	0.67040 0.48460 0.59510 -0.08800
H 	H 	0.69730 0.51820 0.59030 0.03500
H 	H 	0.69400 0.45150 0.60350 0.07900
H 	H 	0.64030 0.49790 0.60950 0.04600
C 	C 	0.51600 0.34880 0.47070 -0.23400
H 	H 	0.48150 0.32710 0.47890 0.13200
H 	H 	0.53960 0.32160 0.45830 0.11500
H 	H 	0.50160 0.38270 0.45890 0.15500
C 	C 	0.21810 0.69940 0.80780 -0.12800
H 	H 	0.20860 0.69960 0.82890 0.07900
H 	H 	0.18500 0.68060 0.79690 0.06000
H 	H 	0.22360 0.74090 0.80090 0.07200
C 	C 	0.63060 0.51790 0.58520 -0.12300
H 	H 	0.60590 0.54750 0.57470 0.06700
H 	H 	0.67030 0.53520 0.58930 0.06200
H 	H 	0.61100 0.50700 0.60380 0.04800
O 	O 	0.72030 0.38600 0.55560 -0.20000
Cd	Cd	0.88045 0.88178 0.17397 1.23200
O 	O 	0.92530 0.95961 0.20409 -0.46500
O 	O 	0.83430 0.92580 0.21814 -0.35200
O 	O 	0.92087 0.29560 0.39698 -0.39500
O 	O 	0.82160 0.30718 0.39076 -0.49100
O 	O 	0.94900 0.15600 0.26662 -0.16800
O 	O 	0.77340 0.16540 0.30289 -0.15300
O 	O 	0.95580 0.92480 0.14132 -0.45800
O 	O 	0.94482 0.82755 0.13802 -0.52600
O 	O 	0.29894 0.88930 0.95124 -0.45100
O 	O 	0.21657 0.87520 0.92199 -0.42800
O 	O 	0.13780 0.96250 0.06632 -0.17400
O 	O 	0.05330 0.87110 0.99450 -0.20400
C 	C 	0.88260 0.96210 0.22032 0.32600
C 	C 	0.88090 0.00710 0.24653 -0.03700
C 	C 	0.83460 0.00740 0.26766 -0.05300
H 	H 	0.80360 0.97810 0.26660 0.07200
C 	C 	0.83370 0.05030 0.29013 -0.03600
H 	H 	0.80200 0.04890 0.30420 0.05400
C 	C 	0.87750 0.09510 0.29285 -0.01600
C 	C 	0.91570 0.10030 0.26646 0.13000
C 	C 	0.92040 0.05660 0.24653 -0.11500
H 	H 	0.95100 0.05890 0.23200 0.07300
C 	C 	0.87300 0.14160 0.31691 0.00500
C 	C 	0.92260 0.15270 0.33388 -0.06500
H 	H 	0.95780 0.12950 0.33050 0.06900
C 	C 	0.92420 0.19860 0.35706 -0.00100
H 	H 	0.95950 0.20450 0.36850 0.04800
C 	C 	0.87260 0.23380 0.36205 -0.08000
C 	C 	0.82100 0.22040 0.34417 -0.07100
H 	H 	0.78440 0.24090 0.34800 0.06200
C 	C 	0.82300 0.17710 0.32081 0.10000
C 	C 	0.87140 0.28380 0.38410 0.35100
C 	C 	0.99180 0.16910 0.23780 -0.19200
H 	H 	0.01310 0.20740 0.24050 0.09800
H 	H 	0.96670 0.17140 0.22000 0.08800
H 	H 	0.02110 0.13650 0.23560 0.08300
C 	C 	0.74030 0.17630 0.27030 -0.25800
H 	H 	0.74160 0.13890 0.25890 0.11600
H 	H 	0.76150 0.20810 0.25960 0.11800
H 	H 	0.69830 0.18820 0.27340 0.10000
C 	C 	0.97050 0.87370 0.12922 0.40500
C 	C 	0.01340 0.87200 0.10357 -0.13900
C 	C 	0.04980 0.92380 0.09663 -0.03200
H 	H 	0.04560 0.96050 0.10720 0.04600
C 	C 	0.09290 0.91760 0.07290 0.06500
C 	C 	0.09080 0.87150 0.05279 0.08700
C 	C 	0.06380 0.81860 0.06313 -0.12200
H 	H 	0.07340 0.78140 0.05400 0.07700
C 	C 	0.02170 0.81960 0.08723 0.04000
H 	H 	0.99960 0.78440 0.09200 0.01900
C 	C 	0.13240 0.87210 0.02603 -0.16300
C 	C 	0.10750 0.86410 0.99730 0.26100
C 	C 	0.14140 0.86130 0.97220 -0.20200
H 	H 	0.12390 0.84940 0.95400 0.11400
C 	C 	0.20380 0.87670 0.97396 0.03400
C 	C 	0.23050 0.87900 0.00270 -0.19500
H 	H 	0.27300 0.87830 0.00470 0.11800
C 	C 	0.19420 0.88230 0.02761 0.22000
C 	C 	0.24360 0.88170 0.94657 0.35200
C 	C 	0.17040 0.98460 0.09510 -0.11500
H 	H 	0.19730 0.01820 0.09030 0.04400
H 	H 	0.19400 0.95150 0.10350 0.09000
H 	H 	0.14030 0.99790 0.10950 0.07600
C 	C 	0.01600 0.84880 0.97070 -0.28500
H 	H 	0.98150 0.82710 0.97890 0.15400
H 	H 	0.03960 0.82160 0.95830 0.12900
H 	H 	0.00160 0.88270 0.95890 0.16700
C 	C 	0.71810 0.19940 0.30780 -0.12900
H 	H 	0.70860 0.19960 0.32890 0.07900
H 	H 	0.68500 0.18060 0.29690 0.06100
H 	H 	0.72360 0.24090 0.30090 0.07200
C 	C 	0.13060 0.01790 0.08520 -0.09200
H 	H 	0.10590 0.04750 0.07470 0.05500
H 	H 	0.17030 0.03520 0.08930 0.04700
H 	H 	0.11100 0.00700 0.10380 0.01600
O 	O 	0.22030 0.88600 0.05560 -0.19800
Cd	Cd	0.88178 0.11955 0.82603 1.23200
O 	O 	0.95961 0.07470 0.79591 -0.47000
O 	O 	0.92580 0.16570 0.78186 -0.35300
O 	O 	0.29560 0.07913 0.60302 -0.40100
O 	O 	0.30718 0.17840 0.60924 -0.49200
O 	O 	0.15600 0.05100 0.73338 -0.14900
O 	O 	0.16540 0.22660 0.69711 -0.15400
O 	O 	0.92480 0.04420 0.85868 -0.46100
O 	O 	0.82755 0.05518 0.86198 -0.52400
O 	O 	0.88930 0.70106 0.04876 -0.45000
O 	O 	0.87520 0.78343 0.07801 -0.42800
O 	O 	0.96250 0.86220 0.93368 -0.17200
O 	O 	0.87110 0.94670 0.00550 -0.22200
C 	C 	0.96210 0.11740 0.77968 0.33100
C 	C 	0.00710 0.11910 0.75347 -0.04700
C 	C 	0.00740 0.16540 0.73234 -0.04700
H 	H 	0.97810 0.19640 0.73340 0.07000
C 	C 	0.05030 0.16630 0.70987 -0.04200
H 	H 	0.04890 0.19800 0.69580 0.05600
C 	C 	0.09510 0.12250 0.70715 -0.01100
C 	C 	0.10030 0.08430 0.73354 0.11400
C 	C 	0.05660 0.07960 0.75347 -0.10300
H 	H 	0.05890 0.04900 0.76800 0.06200
C 	C 	0.14160 0.12700 0.68309 0.00000
C 	C 	0.15270 0.07740 0.66612 -0.06500
H 	H 	0.12950 0.04220 0.66950 0.06300
C 	C 	0.19860 0.07580 0.64294 -0.00300
H 	H 	0.20450 0.04050 0.63150 0.04300
C 	C 	0.23380 0.12740 0.63795 -0.08200
C 	C 	0.22040 0.17900 0.65583 -0.07100
H 	H 	0.24090 0.21560 0.65200 0.06300
C 	C 	0.17710 0.17700 0.67919 0.10100
C 	C 	0.28380 0.12860 0.61590 0.35300
C 	C 	0.16910 0.00820 0.76220 -0.37700
H 	H 	0.20740 0.98690 0.75950 0.16800
H 	H 	0.17140 0.03330 0.78000 0.13700
H 	H 	0.13650 0.97890 0.76440 0.15400
C 	C 	0.17630 0.25970 0.72970 -0.25700
H 	H 	0.13890 0.25840 0.74110 0.11500
H 	H 	0.20810 0.23850 0.74040 0.11700
H 	H 	0.18820 0.30170 0.72660 0.10000
C 	C 	0.87370 0.02950 0.87078 0.38900
C 	C 	0.87200 0.98660 0.89643 -0.13500
C 	C 	0.92380 0.95020 0.90337 -0.02600
H 	H 	0.96050 0.95440 0.89280 0.04900
C 	C 	0.91760 0.90710 0.92710 0.05900
C 	C 	0.87150 0.90920 0.94721 0.10600
C 	C 	0.81860 0.93620 0.93687 -0.15000
H 	H 	0.78140 0.92660 0.94600 0.09300
C 	C 	0.81960 0.97830 0.91277 0.09400
H 	H 	0.78440 0.00040 0.90800 -0.01400
C 	C 	0.87210 0.86760 0.97397 -0.17400
C 	C 	0.86410 0.89250 0.00270 0.27900
C 	C 	0.86130 0.85860 0.02780 -0.21400
H 	H 	0.84940 0.87610 0.04600 0.11800
C 	C 	0.87670 0.79620 0.02604 0.04000
C 	C 	0.87900 0.76950 0.99730 -0.20100
H 	H 	0.87830 0.72700 0.99530 0.12000
C 	C 	0.88230 0.80580 0.97239 0.22600
C 	C 	0.88170 0.75640 0.05343 0.35000
C 	C 	0.98460 0.82960 0.90490 -0.11900
H 	H 	0.01820 0.80270 0.90970 0.04500
H 	H 	0.95150 0.80600 0.89650 0.09100
H 	H 	0.99790 0.85970 0.89050 0.07700
C 	C 	0.84880 0.98400 0.02930 -0.18700
H 	H 	0.82710 0.01850 0.02110 0.11100
H 	H 	0.82160 0.96040 0.04170 0.10300
H 	H 	0.88270 0.99840 0.04110 0.14700
C 	C 	0.19940 0.28190 0.69220 -0.12900
H 	H 	0.19960 0.29140 0.67110 0.07900
H 	H 	0.18060 0.31500 0.70310 0.06000
H 	H 	0.24090 0.27640 0.69910 0.07200
C 	C 	0.01790 0.86940 0.91480 -0.09200
H 	H 	0.04750 0.89410 0.92530 0.05800
H 	H 	0.03520 0.82970 0.91070 0.04700
H 	H 	0.00700 0.88900 0.89620 0.01800
O 	O 	0.88600 0.77970 0.94440 -0.20000
Cd	Cd	0.38178 0.61955 0.32603 1.23200
O 	O 	0.45961 0.57470 0.29591 -0.47000
O 	O 	0.42580 0.66570 0.28186 -0.35300
O 	O 	0.79560 0.57913 0.10302 -0.39700
O 	O 	0.80718 0.67840 0.10924 -0.49100
O 	O 	0.65600 0.55100 0.23338 -0.15700
O 	O 	0.66540 0.72660 0.19711 -0.15200
O 	O 	0.42480 0.54420 0.35868 -0.46200
O 	O 	0.32755 0.55518 0.36198 -0.52600
O 	O 	0.38930 0.20106 0.54876 -0.45000
O 	O 	0.37520 0.28343 0.57801 -0.42900
O 	O 	0.46250 0.36220 0.43368 -0.17700
O 	O 	0.37110 0.44670 0.50550 -0.21500
C 	C 	0.46210 0.61740 0.27968 0.32200
C 	C 	0.50710 0.61910 0.25347 -0.04200
C 	C 	0.50740 0.66540 0.23234 -0.02000
H 	H 	0.47810 0.69640 0.23340 0.05300
C 	C 	0.55030 0.66630 0.20987 -0.05500
H 	H 	0.54890 0.69800 0.19580 0.06300
C 	C 	0.59510 0.62250 0.20715 -0.00400
C 	C 	0.60030 0.58430 0.23354 0.11800
C 	C 	0.55660 0.57960 0.25347 -0.10500
H 	H 	0.55890 0.54900 0.26800 0.06800
C 	C 	0.64160 0.62700 0.18309 -0.00000
C 	C 	0.65270 0.57740 0.16612 -0.06200
H 	H 	0.62950 0.54220 0.16950 0.06700
C 	C 	0.69860 0.57580 0.14294 -0.00300
H 	H 	0.70450 0.54050 0.13150 0.04600
C 	C 	0.73380 0.62740 0.13795 -0.08000
C 	C 	0.72040 0.67900 0.15583 -0.07200
H 	H 	0.74090 0.71560 0.15200 0.06300
C 	C 	0.67710 0.67700 0.17919 0.10200
C 	C 	0.78380 0.62860 0.11590 0.35200
C 	C 	0.66910 0.50820 0.26220 -0.28600
H 	H 	0.70740 0.48690 0.25950 0.13300
H 	H 	0.67140 0.53330 0.28000 0.11300
H 	H 	0.63650 0.47890 0.26440 0.12000
C 	C 	0.67630 0.75970 0.22970 -0.26100
H 	H 	0.63890 0.75840 0.24110 0.11900
H 	H 	0.70810 0.73850 0.24040 0.11900
H 	H 	0.68820 0.80170 0.22660 0.10200
C 	C 	0.37370 0.52950 0.37078 0.39800
C 	C 	0.37200 0.48660 0.39643 -0.13900
C 	C 	0.42380 0.45020 0.40337 -0.02700
H 	H 	0.46050 0.45440 0.39280 0.04100
C 	C 	0.41760 0.40710 0.42710 0.06000
C 	C 	0.37150 0.40920 0.44721 0.09700
C 	C 	0.31860 0.43620 0.43687 -0.13700
H 	H 	0.28140 0.42660 0.44600 0.08500
C 	C 	0.31960 0.47830 0.41277 0.06800
H 	H 	0.28440 0.50040 0.40800 0.00200
C 	C 	0.37210 0.36760 0.47397 -0.17000
C 	C 	0.36410 0.39250 0.50270 0.27100
C 	C 	0.36130 0.35860 0.52780 -0.20900
H 	H 	0.34940 0.37610 0.54600 0.11600
C 	C 	0.37670 0.29620 0.52604 0.03700
C 	C 	0.37900 0.26950 0.49730 -0.19800
H 	H 	0.37830 0.22700 0.49530 0.11900
C 	C 	0.38230 0.30580 0.47239 0.22400
C 	C 	0.38170 0.25640 0.55343 0.35000
C 	C 	0.48460 0.32960 0.40490 -0.08900
H 	H 	0.51820 0.30270 0.40970 0.03500
H 	H 	0.45150 0.30600 0.39650 0.07900
H 	H 	0.49790 0.35970 0.39050 0.04600
C 	C 	0.34880 0.48400 0.52930 -0.23400
H 	H 	0.32710 0.51850 0.52110 0.13200
H 	H 	0.32160 0.46040 0.54170 0.11500
H 	H 	0.38270 0.49840 0.54110 0.15500
C 	C 	0.69940 0.78190 0.19220 -0.13100
H 	H 	0.69960 0.79140 0.17110 0.08000
H 	H 	0.68060 0.81500 0.20310 0.06200
H 	H 	0.74090 0.77640 0.19910 0.07300
C 	C 	0.51790 0.36940 0.41480 -0.12200
H 	H 	0.54750 0.39410 0.42530 0.06700
H 	H 	0.53520 0.32970 0.41070 0.06200
H 	H 	0.50700 0.38900 0.39620 0.04800
O 	O 	0.38600 0.27970 0.44440 -0.20100
Cd	Cd	0.11822 0.88045 0.82603 1.23200
O 	O 	0.04039 0.92530 0.79591 -0.46900
O 	O 	0.07420 0.83430 0.78186 -0.35400
O 	O 	0.70440 0.92087 0.60302 -0.39400
O 	O 	0.69282 0.82160 0.60924 -0.49100
O 	O 	0.84400 0.94900 0.73338 -0.16500
O 	O 	0.83460 0.77340 0.69711 -0.15200
O 	O 	0.07520 0.95580 0.85868 -0.46300
O 	O 	0.17245 0.94482 0.86198 -0.52700
O 	O 	0.11070 0.29894 0.04876 -0.45000
O 	O 	0.12480 0.21657 0.07801 -0.43000
O 	O 	0.03750 0.13780 0.93368 -0.18300
O 	O 	0.12890 0.05330 0.00550 -0.20800
C 	C 	0.03790 0.88260 0.77968 0.31300
C 	C 	0.99290 0.88090 0.75347 -0.03700
C 	C 	0.99260 0.83460 0.73234 0.00500
H 	H 	0.02190 0.80360 0.73340 0.03600
C 	C 	0.94970 0.83370 0.70987 -0.06800
H 	H 	0.95110 0.80200 0.69580 0.07000
C 	C 	0.90490 0.87750 0.70715 0.00100
C 	C 	0.89970 0.91570 0.73354 0.12200
C 	C 	0.94340 0.92040 0.75347 -0.10600
H 	H 	0.94110 0.95100 0.76800 0.07500
C 	C 	0.85840 0.87300 0.68309 -0.00100
C 	C 	0.84730 0.92260 0.66612 -0.06000
H 	H 	0.87050 0.95780 0.66950 0.07000
C 	C 	0.80140 0.92420 0.64294 -0.00300
H 	H 	0.79550 0.95950 0.63150 0.05000
C 	C 	0.76620 0.87260 0.63795 -0.07800
C 	C 	0.77960 0.82100 0.65583 -0.07200
H 	H 	0.75910 0.78440 0.65200 0.06300
C 	C 	0.82290 0.82300 0.67919 0.10300
C 	C 	0.71620 0.87140 0.61590 0.35100
C 	C 	0.83090 0.99180 0.76220 -0.20000
H 	H 	0.79260 0.01310 0.75950 0.10100
H 	H 	0.82860 0.96670 0.78000 0.09100
H 	H 	0.86350 0.02110 0.76440 0.08700
C 	C 	0.82370 0.74030 0.72970 -0.26200
H 	H 	0.86110 0.74160 0.74110 0.12000
H 	H 	0.79190 0.76150 0.74040 0.11900
H 	H 	0.81180 0.69830 0.72660 0.10200
C 	C 	0.12630 0.97050 0.87078 0.40800
C 	C 	0.12800 0.01340 0.89643 -0.14300
C 	C 	0.07620 0.04980 0.90337 -0.02900
H 	H 	0.03950 0.04560 0.89280 0.03400
C 	C 	0.08240 0.09290 0.92710 0.06100
C 	C 	0.12850 0.09080 0.94721 0.08900
C 	C 	0.18140 0.06380 0.93687 -0.12400
H 	H 	0.21860 0.07340 0.94600 0.07800
C 	C 	0.18040 0.02170 0.91277 0.04100
H 	H 	0.21560 0.99960 0.90800 0.01900
C 	C 	0.12790 0.13240 0.97397 -0.16500
C 	C 	0.13590 0.10750 0.00270 0.26200
C 	C 	0.13870 0.14140 0.02780 -0.20500
H 	H 	0.15060 0.12390 0.04600 0.11400
C 	C 	0.12330 0.20380 0.02604 0.03400
C 	C 	0.12100 0.23050 0.99730 -0.19500
H 	H 	0.12170 0.27300 0.99530 0.11900
C 	C 	0.11770 0.19420 0.97239 0.22200
C 	C 	0.11830 0.24360 0.05343 0.35100
C 	C 	0.01540 0.17040 0.90490 -0.05600
H 	H 	0.98180 0.19730 0.90970 0.02500
H 	H 	0.04850 0.19400 0.89650 0.06600
H 	H 	0.00210 0.14030 0.89050 0.01300
C 	C 	0.15120 0.01600 0.02930 -0.28400
H 	H 	0.17290 0.98150 0.02110 0.15400
H 	H 	0.17840 0.03960 0.04170 0.12800
H 	H 	0.11730 0.00160 0.04110 0.16400
C 	C 	0.80060 0.71810 0.69220 -0.13000
H 	H 	0.80040 0.70860 0.67110 0.08000
H 	H 	0.81940 0.68500 0.70310 0.06200
H 	H 	0.75910 0.72360 0.69910 0.07300
C 	C 	0.98210 0.13060 0.91480 -0.15500
H 	H 	0.95250 0.10590 0.92530 0.07700
H 	H 	0.96480 0.17030 0.91070 0.07800
H 	H 	0.99300 0.11100 0.89620 0.08100
O 	O 	0.11400 0.22030 0.94440 -0.20100
Cd	Cd	0.61822 0.38045 0.32603 1.23200
O 	O 	0.54039 0.42530 0.29591 -0.47000
O 	O 	0.57420 0.33430 0.28186 -0.35400
O 	O 	0.20440 0.42087 0.10302 -0.39800
O 	O 	0.19282 0.32160 0.10924 -0.49100
O 	O 	0.34400 0.44900 0.23338 -0.15700
O 	O 	0.33460 0.27340 0.19711 -0.15400
O 	O 	0.57520 0.45580 0.35868 -0.46200
O 	O 	0.67245 0.44482 0.36198 -0.52600
O 	O 	0.61070 0.79894 0.54876 -0.45000
O 	O 	0.62480 0.71657 0.57801 -0.42900
O 	O 	0.53750 0.63780 0.43368 -0.17700
O 	O 	0.62890 0.55330 0.50550 -0.21500
C 	C 	0.53790 0.38260 0.27968 0.32200
C 	C 	0.49290 0.38090 0.25347 -0.04200
C 	C 	0.49260 0.33460 0.23234 -0.02000
H 	H 	0.52190 0.30360 0.23340 0.05200
C 	C 	0.44970 0.33370 0.20987 -0.05600
H 	H 	0.45110 0.30200 0.19580 0.06300
C 	C 	0.40490 0.37750 0.20715 -0.00400
C 	C 	0.39970 0.41570 0.23354 0.11800
C 	C 	0.44340 0.42040 0.25347 -0.10400
H 	H 	0.44110 0.45100 0.26800 0.06800
C 	C 	0.35840 0.37300 0.18309 -0.00100
C 	C 	0.34730 0.42260 0.16612 -0.06200
H 	H 	0.37050 0.45780 0.16950 0.06700
C 	C 	0.30140 0.42420 0.14294 -0.00300
H 	H 	0.29550 0.45950 0.13150 0.04600
C 	C 	0.26620 0.37260 0.13795 -0.08000
C 	C 	0.27960 0.32100 0.15583 -0.07200
H 	H 	0.25910 0.28440 0.15200 0.06300
C 	C 	0.32290 0.32300 0.17919 0.10300
C 	C 	0.21620 0.37140 0.11590 0.35200
C 	C 	0.33090 0.49180 0.26220 -0.28600
H 	H 	0.29260 0.51310 0.25950 0.13300
H 	H 	0.32860 0.46670 0.28000 0.11300
H 	H 	0.36350 0.52110 0.26440 0.12000
C 	C 	0.32370 0.24030 0.22970 -0.25800
H 	H 	0.36110 0.24160 0.24110 0.11600
H 	H 	0.29190 0.26150 0.24040 0.11700
H 	H 	0.31180 0.19830 0.22660 0.10000
C 	C 	0.62630 0.47050 0.37078 0.39800
C 	C 	0.62800 0.51340 0.39643 -0.13900
C 	C 	0.57620 0.54980 0.40337 -0.02700
H 	H 	0.53950 0.54560 0.39280 0.04100
C 	C 	0.58240 0.59290 0.42710 0.06000
C 	C 	0.62850 0.59080 0.44721 0.09800
C 	C 	0.68140 0.56380 0.43687 -0.13700
H 	H 	0.71860 0.57340 0.44600 0.08600
C 	C 	0.68040 0.52170 0.41277 0.06800
H 	H 	0.71560 0.49960 0.40800 0.00200
C 	C 	0.62790 0.63240 0.47397 -0.17000
C 	C 	0.63590 0.60750 0.50270 0.27100
C 	C 	0.63870 0.64140 0.52780 -0.20900
H 	H 	0.65060 0.62390 0.54600 0.11600
C 	C 	0.62330 0.70380 0.52604 0.03700
C 	C 	0.62100 0.73050 0.49730 -0.19800
H 	H 	0.62170 0.77300 0.49530 0.12000
C 	C 	0.61770 0.69420 0.47239 0.22400
C 	C 	0.61830 0.74360 0.55343 0.35000
C 	C 	0.51540 0.67040 0.40490 -0.08800
H 	H 	0.48180 0.69730 0.40970 0.03500
H 	H 	0.54850 0.69400 0.39650 0.07900
H 	H 	0.50210 0.64030 0.39050 0.04600
C 	C 	0.65120 0.51600 0.52930 -0.23400
H 	H 	0.67290 0.48150 0.52110 0.13200
H 	H 	0.67840 0.53960 0.54170 0.11500
H 	H 	0.61730 0.50160 0.54110 0.15500
C 	C 	0.30060 0.21810 0.19220 -0.12900
H 	H 	0.30040 0.20860 0.17110 0.07900
H 	H 	0.31940 0.18500 0.20310 0.06000
H 	H 	0.25910 0.22360 0.19910 0.07200
C 	C 	0.48210 0.63060 0.41480 -0.12300
H 	H 	0.45250 0.60590 0.42530 0.06700
H 	H 	0.46480 0.67030 0.41070 0.06300
H 	H 	0.49300 0.61100 0.39620 0.04800
O 	O 	0.61400 0.72030 0.44440 -0.20000
Cd	Cd	0.87801 0.75000 0.12500 1.24800
Cd	Cd	0.12199 0.25000 0.12500 1.24800
Cd	Cd	0.75000 0.12199 0.87500 1.24800
Cd	Cd	0.25000 0.62199 0.37500 1.24800
Cd	Cd	0.25000 0.87801 0.87500 1.24800
Cd	Cd	0.75000 0.37801 0.37500 1.24800
Cd	Cd	0.62199 0.75000 0.62500 1.24800
Cd	Cd	0.37801 0.25000 0.62500 1.24800
Na	Na	0.00000 0.50000 0.07677 0.58100
Na	Na	0.50000 0.00000 0.57677 0.58100
Na	Na	0.50000 0.00000 0.92323 0.58100
Na	Na	0.00000 0.50000 0.42323 0.58100
Na	Na	0.50000 0.50000 0.67323 0.58300
Na	Na	0.00000 0.00000 0.17323 0.57900
Na	Na	0.00000 0.00000 0.82677 0.57900
Na	Na	0.50000 0.50000 0.32677 0.58300
