data_crystal

_cell_length_a 13.83530
_cell_length_b 27.55040
_cell_length_c 44.53980
_cell_angle_alpha 90.00000
_cell_angle_beta  90.00000
_cell_angle_gamma 90.00000

_symmetry_space_group_name_	'P 1'
_symmetry_space_group_name_H-M	'P 1'

loop_
_symmetry_equiv_pos_as_xyz
  x,y,z

loop_
_atom_site_label
_atom_site_type_symbol
_atom_site_fract_x
_atom_site_fract_y
_atom_site_fract_z
_atom_site_charge
Zn	Zn	0.12455 0.47772 0.58477 1.17400
Zn	Zn	0.15556 0.95398 0.58434 1.17500
Zn	Zn	0.84444 0.54602 0.08434 1.17600
Zn	Zn	0.65556 0.04602 0.91566 1.17500
Zn	Zn	0.67407 0.23991 0.17879 1.17200
Zn	Zn	0.17407 0.76009 0.32121 1.17200
Zn	Zn	0.37545 0.97772 0.41523 1.17500
Zn	Zn	0.34444 0.45398 0.41566 1.17600
Zn	Zn	0.82593 0.73991 0.82121 1.17100
Zn	Zn	0.32593 0.26009 0.67879 1.17100
Zn	Zn	0.87545 0.02228 0.08477 1.17300
Zn	Zn	0.62455 0.52228 0.91523 1.17400
H 	H 	0.43620 0.19820 0.72300 0.00200
H 	H 	0.08020 0.65780 0.59420 0.08100
H 	H 	0.47450 0.58180 0.88450 -0.00400
H 	H 	0.62660 0.08530 0.02420 0.08200
H 	H 	0.31900 0.61080 0.89210 0.10300
H 	H 	0.18100 0.11080 0.10790 0.10300
H 	H 	0.70430 0.06410 0.98120 -0.00100
H 	H 	0.53430 0.14980 0.83270 0.08000
H 	H 	0.61760 0.16080 0.22180 -0.00400
H 	H 	0.89680 0.91640 0.07020 -0.00600
H 	H 	0.62990 0.15360 0.93140 -0.01200
H 	H 	0.37820 0.36560 0.59000 0.08100
H 	H 	0.09700 0.77500 0.59160 0.08000
H 	H 	0.43050 0.01410 0.35320 -0.00300
H 	H 	0.55400 0.15170 0.26900 0.07700
H 	H 	0.02550 0.08180 0.11550 -0.00300
H 	H 	0.79570 0.56410 0.01880 -0.00100
H 	H 	0.46570 0.35020 0.33270 0.08000
H 	H 	0.05400 0.84830 0.23100 0.07700
H 	H 	0.94600 0.65170 0.73100 0.07700
H 	H 	0.20620 0.83140 0.37090 0.00900
H 	H 	0.54160 0.46720 0.44130 -0.00800
H 	H 	0.45840 0.03280 0.94130 -0.00800
H 	H 	0.81900 0.38920 0.60790 0.10300
H 	H 	0.96570 0.64980 0.16730 0.08000
H 	H 	0.43490 0.42040 0.35840 -0.00400
H 	H 	0.37350 0.18100 0.12610 0.08300
H 	H 	0.62180 0.13440 0.09000 0.08100
H 	H 	0.10320 0.58360 0.57020 -0.00600
H 	H 	0.87350 0.81900 0.37390 0.08300
H 	H 	0.06510 0.92040 0.64160 -0.00400
H 	H 	0.95840 0.96720 0.55870 -0.00900
H 	H 	0.37200 0.05500 0.98370 0.09300
H 	H 	0.49760 0.20370 0.77140 0.08000
H 	H 	0.52550 0.91820 0.38450 -0.00300
H 	H 	0.46130 0.08530 0.32880 0.08000
H 	H 	0.96130 0.91470 0.17120 0.08000
H 	H 	0.56380 0.30180 0.22300 0.00200
H 	H 	0.01850 0.02920 0.03340 -0.00700
H 	H 	0.56950 0.48590 0.85320 -0.00300
H 	H 	0.99760 0.79630 0.72860 0.08100
H 	H 	0.20430 0.93590 0.51880 -0.00200
H 	H 	0.70620 0.16860 0.12910 0.00900
H 	H 	0.87010 0.65360 0.06860 -0.01200
H 	H 	0.12180 0.86560 0.41000 0.08100
H 	H 	0.93050 0.98590 0.14680 -0.00300
H 	H 	0.98150 0.47080 0.53340 -0.00700
H 	H 	0.46500 0.22080 0.16380 -0.00900
H 	H 	0.62800 0.44500 0.48370 0.09200
H 	H 	0.44600 0.34830 0.76900 0.07700
H 	H 	0.96500 0.77920 0.33620 -0.00900
H 	H 	0.48150 0.52920 0.96660 -0.00700
H 	H 	0.29570 0.43590 0.48120 -0.00100
H 	H 	0.11760 0.83920 0.27820 -0.00400
H 	H 	0.06950 0.51410 0.64680 -0.00300
H 	H 	0.82620 0.44590 0.52460 0.09900
H 	H 	0.51850 0.97080 0.46660 -0.00700
H 	H 	0.87340 0.58530 0.97580 0.08200
H 	H 	0.12650 0.68100 0.87390 0.08300
H 	H 	0.60320 0.41640 0.92980 -0.00600
H 	H 	0.38240 0.33920 0.72180 -0.00400
H 	H 	0.40300 0.27500 0.40840 0.08000
H 	H 	0.62650 0.31900 0.62610 0.08300
H 	H 	0.03870 0.58530 0.67120 0.08000
H 	H 	0.91980 0.84220 0.09420 0.08100
H 	H 	0.12990 0.84640 0.56860 -0.01200
H 	H 	0.12800 0.55500 0.01630 0.09200
H 	H 	0.12660 0.91470 0.47580 0.08200
H 	H 	0.37010 0.34640 0.43140 -0.01200
H 	H 	0.59700 0.22500 0.90840 0.08000
H 	H 	0.67380 0.94590 0.47540 0.09900
H 	H 	0.50240 0.29630 0.27140 0.08000
H 	H 	0.37340 0.41470 0.52420 0.08200
H 	H 	0.39680 0.08360 0.42980 -0.00600
H 	H 	0.41980 0.15780 0.40580 0.08100
H 	H 	0.17380 0.05410 0.02460 0.09900
H 	H 	0.90300 0.72500 0.09160 0.08000
H 	H 	0.03430 0.85020 0.66730 0.08000
H 	H 	0.93490 0.57960 0.14160 -0.00400
H 	H 	0.32620 0.55410 0.97540 0.09900
H 	H 	0.00240 0.70370 0.22860 0.08000
H 	H 	0.87820 0.63440 0.91000 0.08100
H 	H 	0.87200 0.94500 0.51630 0.09300
H 	H 	0.58020 0.34220 0.90580 0.08100
H 	H 	0.06380 0.69820 0.27700 0.00200
H 	H 	0.93620 0.80180 0.77700 0.00200
H 	H 	0.68100 0.88920 0.39210 0.10300
H 	H 	0.79380 0.66860 0.87090 0.00900
H 	H 	0.04160 0.53280 0.05870 -0.00800
H 	H 	0.97450 0.41820 0.61550 -0.00300
H 	H 	0.29380 0.33140 0.62910 0.00900
H 	H 	0.53870 0.41470 0.82880 0.08000
H 	H 	0.53500 0.27920 0.66380 -0.00900
H 	H 	0.56510 0.07960 0.85840 -0.00400
H 	H 	0.88240 0.66080 0.77820 -0.00400
H 	H 	0.03500 0.72080 0.83620 -0.00900
C 	C 	0.56270 0.19610 0.86726 0.05100
C 	C 	0.38930 0.34680 0.41089 0.07100
C 	C 	0.54690 0.24150 0.85078 0.10000
C 	C 	0.93730 0.69610 0.13274 0.05100
C 	C 	0.05600 0.07650 0.09670 0.07600
C 	C 	0.05940 0.62980 0.63555 0.05600
C 	C 	0.95470 0.82320 0.15119 0.10400
C 	C 	0.04530 0.67680 0.65119 0.10400
C 	C 	0.44580 0.08590 0.34957 -0.11500
C 	C 	0.42260 0.12850 0.39453 -0.11300
C 	C 	0.09170 0.58390 0.59123 0.07400
C 	C 	0.94600 0.65140 0.14686 -0.11400
C 	C 	0.99140 0.78010 0.19214 0.10600
C 	C 	0.63570 0.06310 0.98151 0.07500
C 	C 	0.11070 0.84680 0.58911 0.07100
C 	C 	0.63810 0.17280 0.12810 0.05400
C 	C 	0.59170 0.41610 0.90877 0.07400
C 	C 	0.43700 0.22900 0.73272 0.06500
C 	C 	0.40830 0.08390 0.40877 0.07400
C 	C 	0.54530 0.32320 0.84881 0.10400
C 	C 	0.57740 0.37150 0.89453 -0.11300
C 	C 	0.69360 0.91510 0.43457 0.06500
C 	C 	0.06430 0.62880 0.91999 0.10500
C 	C 	0.93720 0.91090 0.46433 0.09700
C 	C 	0.59010 0.07530 0.00720 -0.11900
C 	C 	0.49230 0.04500 0.95825 0.06600
C 	C 	0.05950 0.55740 0.01646 -0.11900
C 	C 	0.86190 0.67280 0.87190 0.05400
C 	C 	0.55800 0.32100 0.62610 -0.11600
C 	C 	0.94400 0.42350 0.59670 0.07600
C 	C 	0.43570 0.12880 0.08001 0.10500
C 	C 	0.36190 0.32720 0.62810 0.05400
C 	C 	0.43730 0.30390 0.36726 0.05100
C 	C 	0.59360 0.18850 0.23212 0.05400
C 	C 	0.04690 0.75850 0.64922 0.10000
C 	C 	0.93700 0.77100 0.76728 0.06600
C 	C 	0.59140 0.19550 0.89753 -0.12000
C 	C 	0.90860 0.69550 0.10247 -0.12000
C 	C 	0.06270 0.80390 0.63274 0.05100
C 	C 	0.29740 0.09720 0.06141 0.08500
C 	C 	0.92900 0.95630 0.13570 0.06600
C 	C 	0.51060 0.34660 0.60444 0.06300
C 	C 	0.44270 0.31700 0.76017 -0.10600
C 	C 	0.85130 0.40650 0.59244 -0.13500
C 	C 	0.07100 0.54370 0.63570 0.06600
C 	C 	0.49140 0.21990 0.30786 0.10600
C 	C 	0.57370 0.10970 0.86841 0.06300
C 	C 	0.92630 0.60970 0.13159 0.06300
C 	C 	0.02410 0.77590 0.22374 0.04500
C 	C 	0.44400 0.57650 0.90330 0.07600
C 	C 	0.61070 0.15320 0.91089 0.07100
C 	C 	0.40860 0.30450 0.39753 -0.12000
C 	C 	0.20260 0.59720 0.93859 0.08500
C 	C 	0.35130 0.59350 0.90756 -0.13500
C 	C 	0.79740 0.90280 0.43859 0.08500
C 	C 	0.01060 0.65340 0.89556 0.06100
C 	C 	0.94060 0.87020 0.13555 0.05600
C 	C 	0.55420 0.41410 0.84957 -0.11500
C 	C 	0.56300 0.27100 0.23272 0.06500
C 	C 	0.36430 0.43690 0.48151 0.07500
C 	C 	0.00240 0.70270 0.85131 0.07100
C 	C 	0.41210 0.34880 0.60530 -0.10600
C 	C 	0.47590 0.27590 0.77626 0.04500
C 	C 	0.90640 0.68850 0.76788 0.05400
C 	C 	0.99760 0.79730 0.35131 0.07200
C 	C 	0.47380 0.23200 0.76169 -0.10900
C 	C 	0.95310 0.74150 0.14922 0.10000
C 	C 	0.44600 0.34860 0.35314 -0.11400
C 	C 	0.56430 0.37120 0.58001 0.10500
C 	C 	0.07740 0.62850 0.60547 -0.11300
C 	C 	0.44750 0.54560 0.95100 0.08900
C 	C 	0.05250 0.04560 0.04900 0.08900
C 	C 	0.48960 0.07350 0.00886 0.05400
C 	C 	0.55600 0.92350 0.40330 0.07600
C 	C 	0.94750 0.45440 0.54900 0.08900
C 	C 	0.45310 0.25850 0.35078 0.10000
C 	C 	0.55400 0.15140 0.85314 -0.11400
C 	C 	0.94200 0.82100 0.37390 -0.11700
C 	C 	0.92260 0.87150 0.10547 -0.11300
C 	C 	0.93570 0.87120 0.41999 0.10500
C 	C 	0.14420 0.06050 0.04340 -0.14500
C 	C 	0.06280 0.58910 0.96433 0.09800
C 	C 	0.91210 0.65120 0.89470 -0.10500
C 	C 	0.19360 0.08490 0.06543 0.06500
C 	C 	0.49760 0.20270 0.14869 0.07200
C 	C 	0.05400 0.84860 0.64686 -0.11400
C 	C 	0.70260 0.40280 0.56141 0.08500
C 	C 	0.64870 0.90650 0.40756 -0.13500
C 	C 	0.55950 0.44260 0.48354 -0.11900
C 	C 	0.42630 0.39030 0.36841 0.06300
C 	C 	0.09360 0.81150 0.26788 0.05400
C 	C 	0.40990 0.42470 0.50720 -0.11900
C 	C 	0.94050 0.94260 0.51646 -0.12000
C 	C 	0.05730 0.81700 0.23983 -0.10600
C 	C 	0.08790 0.84880 0.39470 -0.10700
C 	C 	0.85580 0.43950 0.54340 -0.14500
C 	C 	0.50240 0.29730 0.64869 0.07200
C 	C 	0.05420 0.58590 0.65043 -0.11500
C 	C 	0.13570 0.93690 0.51849 0.07600
C 	C 	0.86430 0.56310 0.01849 0.07500
C 	C 	0.56280 0.41090 0.53567 0.09800
C 	C 	0.07370 0.89030 0.63159 0.06300
C 	C 	0.43720 0.08910 0.03567 0.09800
C 	C 	0.98960 0.92650 0.49114 0.05500
C 	C 	0.40640 0.31150 0.73212 0.05400
C 	C 	0.00860 0.71990 0.69214 0.10500
C 	C 	0.09140 0.80450 0.60247 -0.12000
C 	C 	0.14870 0.09350 0.09244 -0.13500
C 	C 	0.45470 0.17680 0.34881 0.10400
C 	C 	0.52410 0.22410 0.27626 0.04500
C 	C 	0.44200 0.17900 0.12610 -0.11600
C 	C 	0.51040 0.42650 0.50886 0.05400
C 	C 	0.50770 0.45500 0.45825 0.06600
C 	C 	0.35580 0.56050 0.95660 -0.14500
C 	C 	0.88930 0.65320 0.08911 0.07100
C 	C 	0.94580 0.91410 0.15043 -0.11500
C 	C 	0.06300 0.72900 0.26728 0.06500
C 	C 	0.42900 0.04370 0.36430 0.06600
C 	C 	0.55250 0.95440 0.45100 0.08900
C 	C 	0.97590 0.72410 0.72374 0.04600
C 	C 	0.99230 0.95500 0.54175 0.06700
C 	C 	0.02620 0.73200 0.23831 -0.10900
C 	C 	0.44060 0.12980 0.36445 0.05600
C 	C 	0.80640 0.41510 0.56543 0.06500
C 	C 	0.01040 0.57350 0.99114 0.05400
C 	C 	0.48940 0.15340 0.10444 0.06300
C 	C 	0.90990 0.57530 0.99280 -0.11800
C 	C 	0.50860 0.28010 0.80786 0.10600
C 	C 	0.13810 0.82720 0.37190 0.05500
C 	C 	0.05800 0.67900 0.87390 -0.11600
C 	C 	0.98940 0.84660 0.39556 0.06300
C 	C 	0.00770 0.54500 0.04175 0.06600
C 	C 	0.55730 0.18300 0.26017 -0.10600
C 	C 	0.94270 0.68300 0.73983 -0.10700
C 	C 	0.57100 0.45630 0.86430 0.06600
C 	C 	0.64420 0.93950 0.45660 -0.14500
C 	C 	0.97380 0.76800 0.73831 -0.11000
C 	C 	0.90830 0.91610 0.09123 0.07400
C 	C 	0.58790 0.15120 0.10530 -0.10600
C 	C 	0.30640 0.58490 0.93457 0.06500
C 	C 	0.44050 0.05740 0.98354 -0.11900
C 	C 	0.55940 0.37020 0.86445 0.05600
C 	C 	0.52620 0.26800 0.26169 -0.10900
C 	C 	0.09010 0.92470 0.49280 -0.12000
I 	I 	0.79990 0.07231 0.12246 -0.39500
I 	I 	0.17590 0.67487 0.33574 -0.39400
I 	I 	0.33015 0.80226 0.31549 -0.38400
I 	I 	0.83015 0.19774 0.18451 -0.38500
I 	I 	0.58091 0.98380 0.88706 -0.39300
I 	I 	0.91909 0.48380 0.11294 -0.39400
I 	I 	0.66985 0.69774 0.81549 -0.38400
I 	I 	0.82410 0.82513 0.83574 -0.39300
I 	I 	0.82864 0.05983 0.92218 -0.40300
I 	I 	0.29960 0.99760 0.46291 -0.41800
I 	I 	0.70010 0.57231 0.87754 -0.39500
I 	I 	0.79960 0.00240 0.03709 -0.41900
I 	I 	0.32410 0.17487 0.66426 -0.39400
I 	I 	0.41909 0.51620 0.38706 -0.39300
I 	I 	0.16985 0.30226 0.68451 -0.38400
I 	I 	0.70040 0.50240 0.96291 -0.41800
I 	I 	0.17136 0.44017 0.42218 -0.40200
I 	I 	0.32864 0.94017 0.57782 -0.40200
I 	I 	0.67590 0.32513 0.16426 -0.39400
I 	I 	0.29990 0.92769 0.37754 -0.39500
I 	I 	0.67136 0.55983 0.07782 -0.40200
I 	I 	0.20040 0.49760 0.53709 -0.41800
I 	I 	0.20010 0.42769 0.62246 -0.39500
I 	I 	0.08091 0.01620 0.61294 -0.39300
N 	N 	0.44060 0.21630 0.36541 -0.13900
N 	N 	0.00740 0.05280 0.07519 -0.27300
N 	N 	0.40710 0.29950 0.64941 -0.27000
N 	N 	0.83990 0.87640 0.41670 -0.12900
N 	N 	0.09680 0.76710 0.28192 -0.26600
N 	N 	0.15740 0.57950 0.96259 -0.14200
N 	N 	0.10460 0.89070 0.60317 -0.26800
N 	N 	0.90710 0.70050 0.85059 -0.27000
N 	N 	0.60460 0.10930 0.89683 -0.26800
N 	N 	0.90320 0.73290 0.78192 -0.26600
N 	N 	0.52020 0.23750 0.82179 -0.13900
N 	N 	0.52010 0.32360 0.81991 -0.14100
N 	N 	0.97990 0.82360 0.18009 -0.14100
N 	N 	0.66010 0.37640 0.58330 -0.12900
N 	N 	0.65740 0.42050 0.53741 -0.14200
N 	N 	0.09290 0.79950 0.35059 -0.27100
N 	N 	0.39540 0.39070 0.39683 -0.26800
N 	N 	0.59000 0.45810 0.89428 -0.26700
N 	N 	0.59290 0.20050 0.14941 -0.27000
N 	N 	0.99260 0.44720 0.57519 -0.27300
N 	N 	0.97980 0.73750 0.17821 -0.13900
N 	N 	0.55940 0.28370 0.86541 -0.13900
N 	N 	0.41000 0.04190 0.39428 -0.26700
N 	N 	0.40320 0.26710 0.71808 -0.26600
N 	N 	0.01240 0.61240 0.94343 -0.13800
N 	N 	0.41010 0.45050 0.45663 -0.27200
N 	N 	0.84260 0.92050 0.46259 -0.14200
N 	N 	0.16010 0.62360 0.91670 -0.13000
N 	N 	0.49260 0.55280 0.92481 -0.27300
N 	N 	0.08990 0.95050 0.54337 -0.27300
N 	N 	0.59680 0.23290 0.21808 -0.26600
N 	N 	0.02010 0.67640 0.68009 -0.14100
N 	N 	0.94060 0.78370 0.13459 -0.13900
N 	N 	0.91010 0.54950 0.04337 -0.27200
N 	N 	0.47990 0.17640 0.31991 -0.14100
N 	N 	0.33990 0.12360 0.08330 -0.12900
N 	N 	0.48760 0.11240 0.05657 -0.13800
N 	N 	0.98760 0.88760 0.44343 -0.13700
N 	N 	0.51240 0.38760 0.55657 -0.13800
N 	N 	0.34260 0.07950 0.03741 -0.14200
N 	N 	0.02020 0.76250 0.67821 -0.13900
N 	N 	0.58990 0.04950 0.95663 -0.27200
N 	N 	0.91000 0.95810 0.10572 -0.26700
N 	N 	0.50740 0.94720 0.42481 -0.27300
N 	N 	0.05940 0.71630 0.63459 -0.13900
N 	N 	0.89540 0.60930 0.10317 -0.26800
N 	N 	0.09000 0.54190 0.60572 -0.26700
N 	N 	0.47980 0.26250 0.32179 -0.13900
Zn	Zn	0.67407 0.73991 0.32121 1.17100
Zn	Zn	0.12455 0.97772 0.91523 1.17300
Zn	Zn	0.15556 0.45398 0.91566 1.17500
Zn	Zn	0.65556 0.54602 0.58434 1.17500
Zn	Zn	0.87545 0.52228 0.41523 1.17300
Zn	Zn	0.34444 0.95398 0.08434 1.17400
Zn	Zn	0.17407 0.26009 0.17879 1.17100
Zn	Zn	0.82593 0.23991 0.67879 1.17100
Zn	Zn	0.32593 0.76009 0.82121 1.17100
Zn	Zn	0.62455 0.02228 0.58477 1.17400
Zn	Zn	0.84444 0.04602 0.41566 1.17400
Zn	Zn	0.37545 0.47772 0.08477 1.17400
H 	H 	0.03870 0.08530 0.82880 0.08000
H 	H 	0.79380 0.16860 0.62910 0.00900
H 	H 	0.01850 0.52920 0.46660 -0.00700
H 	H 	0.03430 0.35020 0.83270 0.08000
H 	H 	0.29380 0.83140 0.87090 0.00900
H 	H 	0.12660 0.41470 0.02420 0.08200
H 	H 	0.37820 0.86560 0.91000 0.08100
H 	H 	0.55400 0.65170 0.23100 0.07700
H 	H 	0.12180 0.36560 0.09000 0.08100
H 	H 	0.70620 0.66860 0.37090 0.00900
H 	H 	0.97450 0.91820 0.88450 -0.00300
H 	H 	0.06510 0.42040 0.85840 -0.00400
H 	H 	0.87200 0.44500 0.98370 0.09200
H 	H 	0.06950 0.01410 0.85320 -0.00300
H 	H 	0.50240 0.79630 0.22860 0.08000
H 	H 	0.96130 0.41470 0.32880 0.08000
H 	H 	0.60320 0.91640 0.57020 -0.00600
H 	H 	0.59700 0.72500 0.59160 0.08000
H 	H 	0.79570 0.06410 0.48120 -0.00200
H 	H 	0.46570 0.85020 0.16730 0.08000
H 	H 	0.00240 0.20370 0.27140 0.08100
H 	H 	0.29570 0.93590 0.01880 -0.00100
H 	H 	0.87820 0.13440 0.59000 0.08100
H 	H 	0.40300 0.77500 0.09160 0.08000
H 	H 	0.46130 0.58530 0.17120 0.08000
H 	H 	0.38240 0.83920 0.77820 -0.00400
H 	H 	0.10320 0.08360 0.92980 -0.00600
H 	H 	0.56950 0.98590 0.64680 -0.00300
H 	H 	0.98150 0.97080 0.96660 -0.00700
H 	H 	0.09700 0.27500 0.90840 0.08000
H 	H 	0.87350 0.31900 0.12610 0.08300
H 	H 	0.93620 0.30180 0.72300 0.00200
H 	H 	0.37350 0.68100 0.37390 0.08300
H 	H 	0.56380 0.80180 0.27700 0.00200
H 	H 	0.96500 0.27920 0.16380 -0.00900
H 	H 	0.39680 0.58360 0.07020 -0.00600
H 	H 	0.12990 0.34640 0.93140 -0.01200
H 	H 	0.31900 0.11080 0.60790 0.10300
H 	H 	0.47450 0.08180 0.61550 -0.00300
H 	H 	0.94600 0.15170 0.76900 0.07700
H 	H 	0.08020 0.15780 0.90580 0.08100
H 	H 	0.68100 0.38920 0.10790 0.10300
H 	H 	0.37010 0.84640 0.06860 -0.01200
H 	H 	0.03500 0.22080 0.66380 -0.00900
H 	H 	0.54160 0.96720 0.05870 -0.00800
H 	H 	0.44600 0.84830 0.73100 0.07700
H 	H 	0.62800 0.94500 0.01630 0.09300
H 	H 	0.12650 0.18100 0.62610 0.08300
H 	H 	0.05400 0.34830 0.26900 0.07700
H 	H 	0.06380 0.19820 0.22300 0.00200
H 	H 	0.52550 0.41820 0.11550 -0.00400
H 	H 	0.62650 0.81900 0.87390 0.08300
H 	H 	0.62180 0.63440 0.41000 0.08100
H 	H 	0.53430 0.64980 0.66730 0.08000
H 	H 	0.61760 0.66080 0.27820 -0.00400
H 	H 	0.37200 0.55500 0.51630 0.09200
H 	H 	0.93050 0.48590 0.35320 -0.00300
H 	H 	0.48150 0.02920 0.53340 -0.00700
H 	H 	0.53500 0.77920 0.83620 -0.00900
H 	H 	0.88240 0.16080 0.72180 -0.00400
H 	H 	0.43050 0.51410 0.14680 -0.00300
H 	H 	0.58020 0.84220 0.59420 0.08100
H 	H 	0.51850 0.47080 0.03340 -0.00700
H 	H 	0.20620 0.33140 0.12910 0.00900
H 	H 	0.62660 0.58530 0.47580 0.08200
H 	H 	0.91980 0.34220 0.40580 0.08100
H 	H 	0.87010 0.15360 0.43140 -0.01200
H 	H 	0.37340 0.91470 0.97580 0.08200
H 	H 	0.82620 0.94590 0.97540 0.09900
H 	H 	0.67380 0.44590 0.02460 0.09900
H 	H 	0.43490 0.92040 0.14160 -0.00400
H 	H 	0.02550 0.58180 0.38450 -0.00300
H 	H 	0.04160 0.03280 0.44130 -0.00900
H 	H 	0.49760 0.70370 0.72860 0.08000
H 	H 	0.45840 0.53280 0.55870 -0.00800
H 	H 	0.12800 0.05500 0.48370 0.09300
H 	H 	0.89680 0.41640 0.42980 -0.00600
H 	H 	0.18100 0.61080 0.39210 0.10300
H 	H 	0.17380 0.55410 0.47540 0.09900
H 	H 	0.87340 0.08530 0.52420 0.08200
H 	H 	0.90300 0.22500 0.40840 0.08000
H 	H 	0.20430 0.43590 0.98120 -0.00100
H 	H 	0.56510 0.57960 0.64160 -0.00400
H 	H 	0.32620 0.05410 0.52460 0.09900
H 	H 	0.62990 0.65360 0.56860 -0.01200
H 	H 	0.53870 0.91470 0.67120 0.08000
H 	H 	0.95840 0.46720 0.94130 -0.00800
H 	H 	0.93490 0.07960 0.35840 -0.00400
H 	H 	0.99760 0.29630 0.77140 0.08000
H 	H 	0.11760 0.33920 0.22180 -0.00400
H 	H 	0.41980 0.65780 0.09420 0.08100
H 	H 	0.70430 0.56410 0.51880 -0.00100
H 	H 	0.81900 0.88920 0.89210 0.10300
H 	H 	0.96570 0.14980 0.33270 0.08000
H 	H 	0.43620 0.69820 0.77700 0.00200
H 	H 	0.46500 0.72080 0.33620 -0.00900
C 	C 	0.05800 0.17900 0.62610 -0.11700
C 	C 	0.45310 0.75850 0.14922 0.10000
C 	C 	0.94200 0.32100 0.12610 -0.11600
C 	C 	0.07740 0.12850 0.89453 -0.11300
C 	C 	0.05950 0.05740 0.48354 -0.12000
C 	C 	0.41210 0.84880 0.89470 -0.10600
C 	C 	0.20260 0.09720 0.56141 0.08500
C 	C 	0.59140 0.69550 0.60247 -0.12000
C 	C 	0.01040 0.07350 0.50886 0.05500
C 	C 	0.06280 0.08910 0.53567 0.09700
C 	C 	0.56300 0.77100 0.26728 0.06500
C 	C 	0.36430 0.93690 0.01849 0.07500
C 	C 	0.00240 0.20270 0.64869 0.07200
C 	C 	0.49140 0.71990 0.19214 0.10600
C 	C 	0.95470 0.32320 0.34881 0.10400
C 	C 	0.05400 0.34860 0.85314 -0.11400
C 	C 	0.93730 0.19610 0.36726 0.05100
C 	C 	0.35130 0.09350 0.59244 -0.13500
C 	C 	0.94050 0.44260 0.98354 -0.11900
C 	C 	0.40640 0.81150 0.76788 0.05400
C 	C 	0.43720 0.58910 0.46433 0.09800
C 	C 	0.94600 0.15140 0.35314 -0.11400
C 	C 	0.58790 0.65120 0.39470 -0.10600
C 	C 	0.88930 0.15320 0.41089 0.07100
C 	C 	0.44580 0.58590 0.15043 -0.11500
C 	C 	0.45470 0.67680 0.15119 0.10400
C 	C 	0.49230 0.54500 0.54175 0.06600
C 	C 	0.57740 0.87150 0.60547 -0.11300
C 	C 	0.01060 0.15340 0.60444 0.06300
C 	C 	0.11070 0.34680 0.91089 0.07100
C 	C 	0.55600 0.42350 0.09670 0.07600
C 	C 	0.94060 0.37020 0.36445 0.05600
C 	C 	0.92900 0.45630 0.36430 0.06600
C 	C 	0.92260 0.37150 0.39453 -0.11300
C 	C 	0.04530 0.17680 0.84881 0.10400
C 	C 	0.02410 0.27590 0.27626 0.04600
C 	C 	0.93700 0.27100 0.73272 0.06500
C 	C 	0.05940 0.12980 0.86445 0.05600
C 	C 	0.47380 0.73200 0.73831 -0.10900
C 	C 	0.44750 0.04560 0.54900 0.08900
C 	C 	0.44200 0.67900 0.37390 -0.11600
C 	C 	0.30640 0.08490 0.56543 0.06500
C 	C 	0.48960 0.57350 0.49114 0.05400
C 	C 	0.63570 0.56310 0.51849 0.07500
C 	C 	0.90830 0.41610 0.40877 0.07400
C 	C 	0.98940 0.34660 0.10444 0.06100
C 	C 	0.55940 0.87020 0.63555 0.05600
C 	C 	0.99760 0.29730 0.14869 0.07100
C 	C 	0.00770 0.04500 0.45825 0.06700
C 	C 	0.64420 0.43950 0.04340 -0.14500
C 	C 	0.47590 0.77590 0.72374 0.04500
C 	C 	0.54690 0.74150 0.64922 0.10000
C 	C 	0.69360 0.41510 0.06543 0.06500
C 	C 	0.94750 0.95440 0.95100 0.08900
C 	C 	0.55420 0.91410 0.65043 -0.11500
C 	C 	0.90640 0.18850 0.73212 0.05400
C 	C 	0.05730 0.31700 0.26017 -0.10700
C 	C 	0.93570 0.37120 0.08001 0.10500
C 	C 	0.08790 0.34880 0.10530 -0.10500
C 	C 	0.42900 0.54370 0.13570 0.06600
C 	C 	0.92630 0.10970 0.36841 0.06300
C 	C 	0.54530 0.82320 0.65119 0.10400
C 	C 	0.44400 0.07650 0.59670 0.07600
C 	C 	0.44050 0.55740 0.51646 -0.11900
C 	C 	0.98960 0.42650 0.00886 0.05400
C 	C 	0.55400 0.65140 0.64686 -0.11400
C 	C 	0.94400 0.92350 0.90330 0.07600
C 	C 	0.44270 0.81700 0.73983 -0.10600
C 	C 	0.99230 0.45500 0.95825 0.06600
C 	C 	0.35580 0.06050 0.54340 -0.14500
C 	C 	0.56430 0.87120 0.91999 0.10500
C 	C 	0.70260 0.90280 0.93859 0.08500
C 	C 	0.44060 0.62980 0.13555 0.05600
C 	C 	0.90990 0.07530 0.50720 -0.12000
C 	C 	0.50860 0.78010 0.69214 0.10600
C 	C 	0.90860 0.19550 0.39753 -0.12000
C 	C 	0.14420 0.56050 0.45660 -0.14500
C 	C 	0.55950 0.94260 0.01646 -0.11900
C 	C 	0.06430 0.12880 0.58001 0.10500
C 	C 	0.48940 0.65340 0.39556 0.06300
C 	C 	0.43730 0.80390 0.13274 0.05100
C 	C 	0.51040 0.92650 0.99114 0.05400
C 	C 	0.63810 0.67280 0.37190 0.05400
C 	C 	0.86190 0.17280 0.62810 0.05500
C 	C 	0.51060 0.84660 0.89556 0.06300
C 	C 	0.86430 0.06310 0.48151 0.07600
C 	C 	0.09170 0.08390 0.90877 0.07400
C 	C 	0.36190 0.82720 0.87190 0.05400
C 	C 	0.56270 0.69610 0.63274 0.05100
C 	C 	0.43700 0.72900 0.76728 0.06500
C 	C 	0.50240 0.79730 0.85131 0.07200
C 	C 	0.55250 0.45440 0.04900 0.08900
C 	C 	0.42260 0.62850 0.10547 -0.11300
C 	C 	0.52410 0.72410 0.22374 0.04500
C 	C 	0.57370 0.60970 0.63159 0.06300
C 	C 	0.97380 0.26800 0.76169 -0.10900
C 	C 	0.05250 0.54560 0.45100 0.08900
C 	C 	0.64870 0.40650 0.09244 -0.13500
C 	C 	0.40990 0.92470 0.99280 -0.11900
C 	C 	0.42630 0.89030 0.13159 0.06300
C 	C 	0.85130 0.90650 0.90756 -0.13500
C 	C 	0.57100 0.95630 0.63570 0.06600
C 	C 	0.55730 0.68300 0.23983 -0.10600
C 	C 	0.99140 0.28010 0.30786 0.10500
C 	C 	0.05420 0.08590 0.84957 -0.11500
C 	C 	0.05600 0.57650 0.40330 0.07600
C 	C 	0.00860 0.21990 0.80786 0.10600
C 	C 	0.50770 0.95500 0.04175 0.06600
C 	C 	0.04690 0.25850 0.85078 0.10000
C 	C 	0.59360 0.68850 0.26788 0.05400
C 	C 	0.13570 0.43690 0.98151 0.07500
C 	C 	0.09140 0.30450 0.89753 -0.12000
C 	C 	0.59010 0.57530 0.49280 -0.11900
C 	C 	0.93720 0.41090 0.03567 0.09800
C 	C 	0.97590 0.22410 0.77626 0.04500
C 	C 	0.61070 0.65320 0.58911 0.07100
C 	C 	0.85580 0.93950 0.95660 -0.14500
C 	C 	0.09010 0.42470 0.00720 -0.11800
C 	C 	0.09360 0.31150 0.23212 0.05400
C 	C 	0.49760 0.70270 0.35131 0.07200
C 	C 	0.52620 0.76800 0.23831 -0.10900
C 	C 	0.07370 0.39030 0.86841 0.06300
C 	C 	0.40860 0.80450 0.10247 -0.12000
C 	C 	0.95310 0.24150 0.35078 0.10000
C 	C 	0.02620 0.23200 0.26169 -0.11000
C 	C 	0.13810 0.32720 0.12810 0.05400
C 	C 	0.79740 0.40280 0.06141 0.08500
C 	C 	0.06300 0.22900 0.23272 0.06600
C 	C 	0.40830 0.58390 0.09123 0.07400
C 	C 	0.91210 0.15120 0.60530 -0.10700
C 	C 	0.94580 0.41410 0.34957 -0.11500
C 	C 	0.38930 0.84680 0.08911 0.07100
C 	C 	0.29740 0.59720 0.43859 0.08500
C 	C 	0.06270 0.30390 0.86726 0.05100
C 	C 	0.59170 0.91610 0.59123 0.07400
C 	C 	0.94270 0.18300 0.76017 -0.10600
C 	C 	0.19360 0.58490 0.43457 0.06500
C 	C 	0.55800 0.82100 0.87390 -0.11600
C 	C 	0.14870 0.59350 0.40756 -0.13500
C 	C 	0.07100 0.04370 0.86430 0.06600
C 	C 	0.44600 0.84860 0.14686 -0.11400
C 	C 	0.80640 0.91510 0.93457 0.06500
C 	C 	0.56280 0.91090 0.96433 0.09800
C 	C 	0.43570 0.62880 0.41999 0.10500
I 	I 	0.82410 0.32513 0.66426 -0.39400
I 	I 	0.32410 0.67487 0.83574 -0.39400
I 	I 	0.79990 0.57231 0.37754 -0.39500
I 	I 	0.83015 0.69774 0.31549 -0.38400
I 	I 	0.17136 0.94017 0.07782 -0.40300
I 	I 	0.33015 0.30226 0.18451 -0.38400
I 	I 	0.66985 0.19774 0.68451 -0.38400
I 	I 	0.70040 0.00240 0.53709 -0.41800
I 	I 	0.67590 0.82513 0.33574 -0.39400
I 	I 	0.29990 0.42769 0.12246 -0.39500
I 	I 	0.70010 0.07231 0.62246 -0.39500
I 	I 	0.08091 0.51620 0.88706 -0.39400
I 	I 	0.20010 0.92769 0.87754 -0.39500
I 	I 	0.79960 0.50240 0.46291 -0.41800
I 	I 	0.67136 0.05983 0.42218 -0.40200
I 	I 	0.29960 0.49760 0.03709 -0.41800
I 	I 	0.91909 0.98380 0.38706 -0.39300
I 	I 	0.16985 0.80226 0.81549 -0.38500
I 	I 	0.20040 0.99760 0.96291 -0.41900
I 	I 	0.82864 0.55983 0.57782 -0.40200
I 	I 	0.58091 0.48380 0.61294 -0.39300
I 	I 	0.32864 0.44017 0.92218 -0.40200
I 	I 	0.17590 0.17487 0.16426 -0.39300
I 	I 	0.41909 0.01620 0.11294 -0.39300
N 	N 	0.02020 0.26250 0.82179 -0.13900
N 	N 	0.94060 0.28370 0.36541 -0.13900
N 	N 	0.60460 0.60930 0.60317 -0.26800
N 	N 	0.97990 0.32360 0.31991 -0.14100
N 	N 	0.90710 0.20050 0.64941 -0.27100
N 	N 	0.51240 0.88760 0.94343 -0.13800
N 	N 	0.59680 0.73290 0.28192 -0.26600
N 	N 	0.58990 0.54950 0.54337 -0.27200
N 	N 	0.65740 0.92050 0.96259 -0.14200
N 	N 	0.59000 0.95810 0.60572 -0.26700
N 	N 	0.91000 0.45810 0.39428 -0.26700
N 	N 	0.89540 0.10930 0.39683 -0.26800
N 	N 	0.66010 0.87640 0.91670 -0.12900
N 	N 	0.09000 0.04190 0.89428 -0.26700
N 	N 	0.97980 0.23750 0.32179 -0.13900
N 	N 	0.90320 0.23290 0.71808 -0.26600
N 	N 	0.09290 0.29950 0.14941 -0.27000
N 	N 	0.59290 0.70050 0.35059 -0.27000
N 	N 	0.99260 0.94720 0.92481 -0.27300
N 	N 	0.91010 0.04950 0.45663 -0.27300
N 	N 	0.02010 0.17640 0.81991 -0.14100
N 	N 	0.05940 0.21630 0.86541 -0.13900
N 	N 	0.52010 0.82360 0.68009 -0.14100
N 	N 	0.49260 0.05280 0.57519 -0.27300
N 	N 	0.83990 0.37640 0.08330 -0.13000
N 	N 	0.00740 0.55280 0.42481 -0.27300
N 	N 	0.01240 0.11240 0.55657 -0.13700
N 	N 	0.44060 0.71630 0.13459 -0.13900
N 	N 	0.98760 0.38760 0.05657 -0.13800
N 	N 	0.15740 0.07950 0.53741 -0.14200
N 	N 	0.08990 0.45050 0.95663 -0.27200
N 	N 	0.41000 0.54190 0.10572 -0.26700
N 	N 	0.40320 0.76710 0.78192 -0.26600
N 	N 	0.55940 0.78370 0.63459 -0.13900
N 	N 	0.47990 0.67640 0.18009 -0.14100
N 	N 	0.47980 0.76250 0.17821 -0.13900
N 	N 	0.50740 0.44720 0.07519 -0.27300
N 	N 	0.84260 0.42050 0.03741 -0.14200
N 	N 	0.40710 0.79950 0.85059 -0.27000
N 	N 	0.34260 0.57950 0.46259 -0.14200
N 	N 	0.48760 0.61240 0.44343 -0.13800
N 	N 	0.41010 0.95050 0.04337 -0.27200
N 	N 	0.52020 0.73750 0.67821 -0.13900
N 	N 	0.33990 0.62360 0.41670 -0.12900
N 	N 	0.16010 0.12360 0.58330 -0.12900
N 	N 	0.10460 0.39070 0.89683 -0.26800
N 	N 	0.09680 0.26710 0.21808 -0.26600
N 	N 	0.39540 0.89070 0.10317 -0.26800
