data_crystal

_cell_length_a 27.77400
_cell_length_b 13.89330
_cell_length_c 44.58500
_cell_angle_alpha 90.00000
_cell_angle_beta  90.00000
_cell_angle_gamma 90.00000

_symmetry_space_group_name_	'P 1'
_symmetry_space_group_name_H-M	'P 1'

loop_
_symmetry_equiv_pos_as_xyz
  x,y,z

loop_
_atom_site_label
_atom_site_type_symbol
_atom_site_fract_x
_atom_site_fract_y
_atom_site_fract_z
_atom_site_charge
Zn	Zn	0.25844 0.32326 0.18005 1.16600
Zn	Zn	0.52501 0.62037 0.41474 1.16400
Zn	Zn	0.04854 0.64696 0.41340 1.16400
I 	I 	0.16846 0.32309 0.16770 -0.37000
I 	I 	0.30023 0.16057 0.18576 -0.37100
I 	I 	0.57558 0.70797 0.37588 -0.36700
I 	I 	0.50552 0.69580 0.46582 -0.38900
I 	I 	0.98311 0.56306 0.38314 -0.36100
I 	I 	0.05705 0.82852 0.42067 -0.38200
C 	C 	0.23180 0.43770 0.23299 0.06600
H 	H 	0.20140 0.43860 0.22320 -0.00100
C 	C 	0.23560 0.47520 0.26143 -0.11300
H 	H 	0.20790 0.49980 0.27130 0.08100
C 	C 	0.28020 0.47680 0.27561 0.05100
C 	C 	0.31960 0.44330 0.26000 -0.11800
H 	H 	0.35090 0.44650 0.26850 0.08000
C 	C 	0.31260 0.40470 0.23170 0.06900
H 	H 	0.33960 0.38040 0.22110 -0.01100
C 	C 	0.45950 0.56490 0.36444 0.06600
H 	H 	0.48910 0.55930 0.35390 -0.00800
C 	C 	0.41760 0.54920 0.34930 -0.11100
H 	H 	0.41860 0.53120 0.32880 0.07800
C 	C 	0.37320 0.55940 0.36376 0.04900
C 	C 	0.37520 0.58170 0.39400 -0.10900
H 	H 	0.34620 0.58730 0.40520 0.07800
C 	C 	0.41880 0.59600 0.40824 0.07000
H 	H 	0.41890 0.61200 0.42900 -0.00800
C 	C 	0.15530 0.61500 0.40908 0.07600
H 	H 	0.15500 0.63750 0.42920 -0.01700
C 	C 	0.19870 0.59640 0.39592 -0.12300
H 	H 	0.22770 0.60300 0.40710 0.08000
C 	C 	0.20020 0.56780 0.36629 0.05200
C 	C 	0.15630 0.55510 0.35135 -0.11500
H 	H 	0.15550 0.53440 0.33100 0.07900
C 	C 	0.11450 0.57300 0.36660 0.06200
H 	H 	0.08480 0.56350 0.35640 -0.01100
C 	C 	0.28430 0.50960 0.30744 0.10500
C 	C 	0.32760 0.54710 0.34845 0.10100
C 	C 	0.24570 0.55130 0.35017 0.10000
C 	C 	0.04410 0.49000 0.45870 0.06600
H 	H 	0.02950 0.45570 0.44270 -0.01300
C 	C 	0.05580 0.44190 0.48510 -0.12500
H 	H 	0.04930 0.37510 0.48700 0.09300
C 	C 	0.07660 0.49030 0.50806 0.06000
C 	C 	0.08390 0.58920 0.50540 -0.12200
H 	H 	0.09700 0.62550 0.52150 0.08100
C 	C 	0.07170 0.63210 0.47900 0.07300
H 	H 	0.07660 0.69960 0.47720 -0.00500
C 	C 	0.18890 0.63890 0.62400 0.08400
H 	H 	0.19270 0.70660 0.62220 -0.01700
C 	C 	0.16670 0.59090 0.60090 -0.12800
H 	H 	0.15720 0.62390 0.58320 0.08400
C 	C 	0.15850 0.49330 0.60404 0.07500
C 	C 	0.17290 0.44970 0.62950 -0.13800
H 	H 	0.16720 0.38300 0.63260 0.09100
C 	C 	0.19640 0.50430 0.65119 0.09000
H 	H 	0.20650 0.47270 0.66900 -0.01700
C 	C 	0.07360 0.06490 0.59980 0.07000
H 	H 	0.07610 0.03640 0.61910 -0.00600
C 	C 	0.08920 0.15870 0.59580 -0.12800
H 	H 	0.10250 0.19390 0.61210 0.09600
C 	C 	0.08510 0.20030 0.56790 0.05400
C 	C 	0.06530 0.14760 0.54440 -0.12700
H 	H 	0.06180 0.17530 0.52500 0.09200
C 	C 	0.05120 0.05520 0.54980 0.07300
H 	H 	0.03800 0.01880 0.53380 -0.00500
C 	C 	0.09280 0.43990 0.53560 0.09100
C 	C 	0.13240 0.43900 0.57956 0.10300
C 	C 	0.09880 0.30330 0.56310 0.08700
N 	N 	0.26930 0.40050 0.21880 -0.27400
N 	N 	0.46070 0.58800 0.39394 -0.26900
N 	N 	0.11330 0.60320 0.39507 -0.27500
N 	N 	0.32760 0.52090 0.31940 -0.13900
N 	N 	0.28750 0.56420 0.36446 -0.13800
N 	N 	0.24240 0.52350 0.32123 -0.14000
N 	N 	0.05330 0.58500 0.45551 -0.27200
N 	N 	0.20560 0.59710 0.64862 -0.28300
N 	N 	0.05500 0.01310 0.57710 -0.27100
N 	N 	0.11820 0.49080 0.55616 -0.13800
N 	N 	0.12440 0.34640 0.58441 -0.13500
N 	N 	0.08160 0.34670 0.53802 -0.14100
Zn	Zn	0.24156 0.67674 0.68005 1.16500
Zn	Zn	0.97499 0.37963 0.91474 1.16300
Zn	Zn	0.45146 0.35304 0.91340 1.16300
I 	I 	0.33154 0.67691 0.66770 -0.37100
I 	I 	0.19977 0.83943 0.68576 -0.37300
I 	I 	0.92442 0.29203 0.87588 -0.36800
I 	I 	0.99448 0.30420 0.96582 -0.39000
I 	I 	0.51689 0.43694 0.88314 -0.36200
I 	I 	0.44295 0.17148 0.92067 -0.38200
C 	C 	0.26820 0.56230 0.73299 0.06500
H 	H 	0.29860 0.56140 0.72320 -0.00200
C 	C 	0.26440 0.52480 0.76143 -0.11400
H 	H 	0.29210 0.50020 0.77130 0.08100
C 	C 	0.21980 0.52320 0.77561 0.05100
C 	C 	0.18040 0.55670 0.76000 -0.11800
H 	H 	0.14910 0.55350 0.76850 0.08000
C 	C 	0.18740 0.59530 0.73170 0.06900
H 	H 	0.16040 0.61960 0.72110 -0.01100
C 	C 	0.04050 0.43510 0.86444 0.06600
H 	H 	0.01090 0.44070 0.85390 -0.00800
C 	C 	0.08240 0.45080 0.84930 -0.11100
H 	H 	0.08140 0.46880 0.82880 0.07800
C 	C 	0.12680 0.44060 0.86376 0.04900
C 	C 	0.12480 0.41830 0.89400 -0.10900
H 	H 	0.15380 0.41270 0.90520 0.07800
C 	C 	0.08120 0.40400 0.90824 0.07000
H 	H 	0.08110 0.38800 0.92900 -0.00800
C 	C 	0.34470 0.38500 0.90908 0.07700
H 	H 	0.34500 0.36250 0.92920 -0.01700
C 	C 	0.30130 0.40360 0.89592 -0.12300
H 	H 	0.27230 0.39700 0.90710 0.08000
C 	C 	0.29980 0.43220 0.86629 0.05200
C 	C 	0.34370 0.44490 0.85135 -0.11500
H 	H 	0.34450 0.46560 0.83100 0.07900
C 	C 	0.38550 0.42700 0.86660 0.06200
H 	H 	0.41520 0.43650 0.85640 -0.01100
C 	C 	0.21570 0.49040 0.80744 0.10500
C 	C 	0.17240 0.45290 0.84845 0.10100
C 	C 	0.25430 0.44870 0.85017 0.10000
C 	C 	0.45590 0.51000 0.95870 0.06600
H 	H 	0.47050 0.54430 0.94270 -0.01300
C 	C 	0.44420 0.55810 0.98510 -0.12500
H 	H 	0.45070 0.62490 0.98700 0.09300
C 	C 	0.42340 0.50970 0.00806 0.06000
C 	C 	0.41610 0.41080 0.00540 -0.12200
H 	H 	0.40300 0.37450 0.02150 0.08100
C 	C 	0.42830 0.36790 0.97900 0.07300
H 	H 	0.42340 0.30040 0.97720 -0.00500
C 	C 	0.31110 0.36110 0.12400 0.08400
H 	H 	0.30730 0.29340 0.12220 -0.01700
C 	C 	0.33330 0.40910 0.10090 -0.12800
H 	H 	0.34280 0.37610 0.08320 0.08400
C 	C 	0.34150 0.50670 0.10404 0.07500
C 	C 	0.32710 0.55030 0.12950 -0.13800
H 	H 	0.33280 0.61700 0.13260 0.09100
C 	C 	0.30360 0.49570 0.15119 0.09000
H 	H 	0.29350 0.52730 0.16900 -0.01700
C 	C 	0.42640 0.93510 0.09980 0.07000
H 	H 	0.42390 0.96360 0.11910 -0.00600
C 	C 	0.41080 0.84130 0.09580 -0.12800
H 	H 	0.39750 0.80610 0.11210 0.09600
C 	C 	0.41490 0.79970 0.06790 0.05400
C 	C 	0.43470 0.85240 0.04440 -0.12700
H 	H 	0.43820 0.82470 0.02500 0.09200
C 	C 	0.44880 0.94480 0.04980 0.07300
H 	H 	0.46200 0.98120 0.03380 -0.00500
C 	C 	0.40720 0.56010 0.03560 0.09100
C 	C 	0.36760 0.56100 0.07956 0.10300
C 	C 	0.40120 0.69670 0.06310 0.08700
N 	N 	0.23070 0.59950 0.71880 -0.27400
N 	N 	0.03930 0.41200 0.89394 -0.26900
N 	N 	0.38670 0.39680 0.89507 -0.27500
N 	N 	0.17240 0.47910 0.81940 -0.13900
N 	N 	0.21250 0.43580 0.86446 -0.13800
N 	N 	0.25760 0.47650 0.82123 -0.14000
N 	N 	0.44670 0.41500 0.95551 -0.27200
N 	N 	0.29440 0.40290 0.14862 -0.28300
N 	N 	0.44500 0.98690 0.07710 -0.27100
N 	N 	0.38180 0.50920 0.05616 -0.13800
N 	N 	0.37560 0.65360 0.08441 -0.13500
N 	N 	0.41840 0.65330 0.03802 -0.14100
Zn	Zn	0.74156 0.82326 0.31995 1.16500
Zn	Zn	0.47499 0.12037 0.08526 1.16300
Zn	Zn	0.95146 0.14696 0.08660 1.16300
I 	I 	0.83154 0.82309 0.33230 -0.37100
I 	I 	0.69977 0.66057 0.31424 -0.37200
I 	I 	0.42442 0.20797 0.12412 -0.36800
I 	I 	0.49448 0.19580 0.03418 -0.39000
I 	I 	0.01689 0.06306 0.11686 -0.36100
I 	I 	0.94295 0.32852 0.07933 -0.38200
C 	C 	0.76820 0.93770 0.26701 0.06500
H 	H 	0.79860 0.93860 0.27680 -0.00200
C 	C 	0.76440 0.97520 0.23857 -0.11400
H 	H 	0.79210 0.99980 0.22870 0.08100
C 	C 	0.71980 0.97680 0.22439 0.05100
C 	C 	0.68040 0.94330 0.24000 -0.11800
H 	H 	0.64910 0.94650 0.23150 0.08000
C 	C 	0.68740 0.90470 0.26830 0.06900
H 	H 	0.66040 0.88040 0.27890 -0.01100
C 	C 	0.54050 0.06490 0.13556 0.06500
H 	H 	0.51090 0.05930 0.14610 -0.00800
C 	C 	0.58240 0.04920 0.15070 -0.11100
H 	H 	0.58140 0.03120 0.17120 0.07800
C 	C 	0.62680 0.05940 0.13624 0.04900
C 	C 	0.62480 0.08170 0.10600 -0.10900
H 	H 	0.65380 0.08730 0.09480 0.07800
C 	C 	0.58120 0.09600 0.09176 0.07000
H 	H 	0.58110 0.11200 0.07100 -0.00800
C 	C 	0.84470 0.11500 0.09092 0.07600
H 	H 	0.84500 0.13750 0.07080 -0.01700
C 	C 	0.80130 0.09640 0.10408 -0.12300
H 	H 	0.77230 0.10300 0.09290 0.08000
C 	C 	0.79980 0.06780 0.13371 0.05200
C 	C 	0.84370 0.05510 0.14865 -0.11500
H 	H 	0.84450 0.03440 0.16900 0.07900
C 	C 	0.88550 0.07300 0.13340 0.06200
H 	H 	0.91520 0.06350 0.14360 -0.01100
C 	C 	0.71570 0.00960 0.19256 0.10400
C 	C 	0.67240 0.04710 0.15155 0.10100
C 	C 	0.75430 0.05130 0.14983 0.10000
C 	C 	0.95590 0.99000 0.04130 0.06700
H 	H 	0.97050 0.95570 0.05730 -0.01300
C 	C 	0.94420 0.94190 0.01490 -0.12600
H 	H 	0.95070 0.87510 0.01300 0.09300
C 	C 	0.92340 0.99030 0.99194 0.06100
C 	C 	0.91610 0.08920 0.99460 -0.12400
H 	H 	0.90300 0.12550 0.97850 0.08100
C 	C 	0.92830 0.13210 0.02100 0.07300
H 	H 	0.92340 0.19960 0.02280 -0.00500
C 	C 	0.81110 0.13890 0.87600 0.08400
H 	H 	0.80730 0.20660 0.87780 -0.01700
C 	C 	0.83330 0.09090 0.89910 -0.12900
H 	H 	0.84280 0.12390 0.91680 0.08400
C 	C 	0.84150 0.99330 0.89596 0.07600
C 	C 	0.82710 0.94970 0.87050 -0.13700
H 	H 	0.83280 0.88300 0.86740 0.09100
C 	C 	0.80360 0.00430 0.84881 0.08900
H 	H 	0.79350 0.97270 0.83100 -0.01600
C 	C 	0.92640 0.56490 0.90020 0.07000
H 	H 	0.92390 0.53640 0.88090 -0.00600
C 	C 	0.91080 0.65870 0.90420 -0.12800
H 	H 	0.89750 0.69390 0.88790 0.09600
C 	C 	0.91490 0.70030 0.93210 0.05400
C 	C 	0.93470 0.64760 0.95560 -0.12700
H 	H 	0.93820 0.67530 0.97500 0.09200
C 	C 	0.94880 0.55520 0.95020 0.07300
H 	H 	0.96200 0.51880 0.96620 -0.00500
C 	C 	0.90720 0.93990 0.96440 0.09100
C 	C 	0.86760 0.93900 0.92044 0.10300
C 	C 	0.90120 0.80330 0.93690 0.08700
N 	N 	0.73070 0.90050 0.28120 -0.27400
N 	N 	0.53930 0.08800 0.10606 -0.26900
N 	N 	0.88670 0.10320 0.10493 -0.27500
N 	N 	0.67240 0.02090 0.18060 -0.13900
N 	N 	0.71250 0.06420 0.13554 -0.13800
N 	N 	0.75760 0.02350 0.17877 -0.14000
N 	N 	0.94670 0.08500 0.04449 -0.27200
N 	N 	0.79440 0.09710 0.85138 -0.28200
N 	N 	0.94500 0.51310 0.92290 -0.27100
N 	N 	0.88180 0.99080 0.94384 -0.13700
N 	N 	0.87560 0.84640 0.91559 -0.13500
N 	N 	0.91840 0.84670 0.96198 -0.14100
Zn	Zn	0.75844 0.17674 0.81995 1.16500
Zn	Zn	0.02501 0.87963 0.58526 1.16300
Zn	Zn	0.54854 0.85304 0.58660 1.16300
I 	I 	0.66846 0.17691 0.83230 -0.37100
I 	I 	0.80023 0.33943 0.81424 -0.37200
I 	I 	0.07558 0.79203 0.62412 -0.36800
I 	I 	0.00552 0.80420 0.53418 -0.39000
I 	I 	0.48311 0.93694 0.61686 -0.36200
I 	I 	0.55705 0.67148 0.57933 -0.38200
C 	C 	0.73180 0.06230 0.76701 0.06500
H 	H 	0.70140 0.06140 0.77680 -0.00200
C 	C 	0.73560 0.02480 0.73857 -0.11300
H 	H 	0.70790 0.00020 0.72870 0.08100
C 	C 	0.78020 0.02320 0.72439 0.05000
C 	C 	0.81960 0.05670 0.74000 -0.11800
H 	H 	0.85090 0.05350 0.73150 0.08000
C 	C 	0.81260 0.09530 0.76830 0.06800
H 	H 	0.83960 0.11960 0.77890 -0.01100
C 	C 	0.95950 0.93510 0.63556 0.06600
H 	H 	0.98910 0.94070 0.64610 -0.00800
C 	C 	0.91760 0.95080 0.65070 -0.11100
H 	H 	0.91860 0.96880 0.67120 0.07900
C 	C 	0.87320 0.94060 0.63624 0.04900
C 	C 	0.87520 0.91830 0.60600 -0.10900
H 	H 	0.84620 0.91270 0.59480 0.07800
C 	C 	0.91880 0.90400 0.59176 0.07000
H 	H 	0.91890 0.88800 0.57100 -0.00800
C 	C 	0.65530 0.88500 0.59092 0.07700
H 	H 	0.65500 0.86250 0.57080 -0.01700
C 	C 	0.69870 0.90360 0.60408 -0.12300
H 	H 	0.72770 0.89700 0.59290 0.08000
C 	C 	0.70020 0.93220 0.63371 0.05200
C 	C 	0.65630 0.94490 0.64865 -0.11500
H 	H 	0.65550 0.96560 0.66900 0.07900
C 	C 	0.61450 0.92700 0.63340 0.06200
H 	H 	0.58480 0.93650 0.64360 -0.01100
C 	C 	0.78430 0.99040 0.69256 0.10500
C 	C 	0.82760 0.95290 0.65155 0.10100
C 	C 	0.74570 0.94870 0.64983 0.10000
C 	C 	0.54410 0.01000 0.54130 0.06600
H 	H 	0.52950 0.04430 0.55730 -0.01300
C 	C 	0.55580 0.05810 0.51490 -0.12500
H 	H 	0.54930 0.12490 0.51300 0.09300
C 	C 	0.57660 0.00970 0.49194 0.06000
C 	C 	0.58390 0.91080 0.49460 -0.12200
H 	H 	0.59700 0.87450 0.47850 0.08100
C 	C 	0.57170 0.86790 0.52100 0.07300
H 	H 	0.57660 0.80040 0.52280 -0.00500
C 	C 	0.68890 0.86110 0.37600 0.08400
H 	H 	0.69270 0.79340 0.37780 -0.01700
C 	C 	0.66670 0.90910 0.39910 -0.12800
H 	H 	0.65720 0.87610 0.41680 0.08400
C 	C 	0.65850 0.00670 0.39596 0.07500
C 	C 	0.67290 0.05030 0.37050 -0.13900
H 	H 	0.66720 0.11700 0.36740 0.09100
C 	C 	0.69640 0.99570 0.34881 0.09100
H 	H 	0.70650 0.02730 0.33100 -0.01800
C 	C 	0.57360 0.43510 0.40020 0.07000
H 	H 	0.57610 0.46360 0.38090 -0.00600
C 	C 	0.58920 0.34130 0.40420 -0.12800
H 	H 	0.60250 0.30610 0.38790 0.09600
C 	C 	0.58510 0.29970 0.43210 0.05400
C 	C 	0.56530 0.35240 0.45560 -0.12700
H 	H 	0.56180 0.32470 0.47500 0.09200
C 	C 	0.55120 0.44480 0.45020 0.07300
H 	H 	0.53800 0.48120 0.46620 -0.00500
C 	C 	0.59280 0.06010 0.46440 0.09100
C 	C 	0.63240 0.06100 0.42044 0.10300
C 	C 	0.59880 0.19670 0.43690 0.08700
N 	N 	0.76930 0.09950 0.78120 -0.27400
N 	N 	0.96070 0.91200 0.60606 -0.26800
N 	N 	0.61330 0.89680 0.60493 -0.27500
N 	N 	0.82760 0.97910 0.68060 -0.13900
N 	N 	0.78750 0.93580 0.63554 -0.13800
N 	N 	0.74240 0.97650 0.67877 -0.14000
N 	N 	0.55330 0.91500 0.54449 -0.27100
N 	N 	0.70560 0.90290 0.35138 -0.28300
N 	N 	0.55500 0.48690 0.42290 -0.27100
N 	N 	0.61820 0.00920 0.44384 -0.13800
N 	N 	0.62440 0.15360 0.41559 -0.13500
N 	N 	0.58160 0.15330 0.46198 -0.14100
Zn	Zn	0.74156 0.67674 0.81995 1.16500
Zn	Zn	0.47499 0.37963 0.58526 1.16300
Zn	Zn	0.95146 0.35304 0.58660 1.16300
I 	I 	0.83154 0.67691 0.83230 -0.37100
I 	I 	0.69977 0.83943 0.81424 -0.37200
I 	I 	0.42442 0.29203 0.62412 -0.36800
I 	I 	0.49448 0.30420 0.53418 -0.39000
I 	I 	0.01689 0.43694 0.61686 -0.36200
I 	I 	0.94295 0.17148 0.57933 -0.38300
C 	C 	0.76820 0.56230 0.76701 0.06500
H 	H 	0.79860 0.56140 0.77680 -0.00200
C 	C 	0.76440 0.52480 0.73857 -0.11400
H 	H 	0.79210 0.50020 0.72870 0.08100
C 	C 	0.71980 0.52320 0.72439 0.05100
C 	C 	0.68040 0.55670 0.74000 -0.11800
H 	H 	0.64910 0.55350 0.73150 0.08000
C 	C 	0.68740 0.59530 0.76830 0.06900
H 	H 	0.66040 0.61960 0.77890 -0.01100
C 	C 	0.54050 0.43510 0.63556 0.06600
H 	H 	0.51090 0.44070 0.64610 -0.00800
C 	C 	0.58240 0.45080 0.65070 -0.11100
H 	H 	0.58140 0.46880 0.67120 0.07800
C 	C 	0.62680 0.44060 0.63624 0.04900
C 	C 	0.62480 0.41830 0.60600 -0.10900
H 	H 	0.65380 0.41270 0.59480 0.07800
C 	C 	0.58120 0.40400 0.59176 0.07000
H 	H 	0.58110 0.38800 0.57100 -0.00800
C 	C 	0.84470 0.38500 0.59092 0.07600
H 	H 	0.84500 0.36250 0.57080 -0.01700
C 	C 	0.80130 0.40360 0.60408 -0.12300
H 	H 	0.77230 0.39700 0.59290 0.08000
C 	C 	0.79980 0.43220 0.63371 0.05200
C 	C 	0.84370 0.44490 0.64865 -0.11500
H 	H 	0.84450 0.46560 0.66900 0.07900
C 	C 	0.88550 0.42700 0.63340 0.06200
H 	H 	0.91520 0.43650 0.64360 -0.01100
C 	C 	0.71570 0.49040 0.69256 0.10500
C 	C 	0.67240 0.45290 0.65155 0.10100
C 	C 	0.75430 0.44870 0.64983 0.10000
C 	C 	0.95590 0.51000 0.54130 0.06600
H 	H 	0.97050 0.54430 0.55730 -0.01300
C 	C 	0.94420 0.55810 0.51490 -0.12500
H 	H 	0.95070 0.62490 0.51300 0.09300
C 	C 	0.92340 0.50970 0.49194 0.06000
C 	C 	0.91610 0.41080 0.49460 -0.12200
H 	H 	0.90300 0.37450 0.47850 0.08100
C 	C 	0.92830 0.36790 0.52100 0.07300
H 	H 	0.92340 0.30040 0.52280 -0.00500
C 	C 	0.81110 0.36110 0.37600 0.08400
H 	H 	0.80730 0.29340 0.37780 -0.01700
C 	C 	0.83330 0.40910 0.39910 -0.12800
H 	H 	0.84280 0.37610 0.41680 0.08400
C 	C 	0.84150 0.50670 0.39596 0.07500
C 	C 	0.82710 0.55030 0.37050 -0.13800
H 	H 	0.83280 0.61700 0.36740 0.09100
C 	C 	0.80360 0.49570 0.34881 0.09000
H 	H 	0.79350 0.52730 0.33100 -0.01700
C 	C 	0.92640 0.93510 0.40020 0.07000
H 	H 	0.92390 0.96360 0.38090 -0.00600
C 	C 	0.91080 0.84130 0.40420 -0.12800
H 	H 	0.89750 0.80610 0.38790 0.09600
C 	C 	0.91490 0.79970 0.43210 0.05400
C 	C 	0.93470 0.85240 0.45560 -0.12700
H 	H 	0.93820 0.82470 0.47500 0.09200
C 	C 	0.94880 0.94480 0.45020 0.07300
H 	H 	0.96200 0.98120 0.46620 -0.00500
C 	C 	0.90720 0.56010 0.46440 0.09100
C 	C 	0.86760 0.56100 0.42044 0.10300
C 	C 	0.90120 0.69670 0.43690 0.08700
N 	N 	0.73070 0.59950 0.78120 -0.27400
N 	N 	0.53930 0.41200 0.60606 -0.26900
N 	N 	0.88670 0.39680 0.60493 -0.27500
N 	N 	0.67240 0.47910 0.68060 -0.13900
N 	N 	0.71250 0.43580 0.63554 -0.13800
N 	N 	0.75760 0.47650 0.67877 -0.14000
N 	N 	0.94670 0.41500 0.54449 -0.27200
N 	N 	0.79440 0.40290 0.35138 -0.28300
N 	N 	0.94500 0.98690 0.42290 -0.27100
N 	N 	0.88180 0.50920 0.44384 -0.13800
N 	N 	0.87560 0.65360 0.41559 -0.13500
N 	N 	0.91840 0.65330 0.46198 -0.14100
Zn	Zn	0.75844 0.32326 0.31995 1.16500
Zn	Zn	0.02501 0.62037 0.08526 1.16300
Zn	Zn	0.54854 0.64696 0.08660 1.16300
I 	I 	0.66846 0.32309 0.33230 -0.37100
I 	I 	0.80023 0.16057 0.31424 -0.37300
I 	I 	0.07558 0.70797 0.12412 -0.36800
I 	I 	0.00552 0.69580 0.03418 -0.39000
I 	I 	0.48311 0.56306 0.11686 -0.36200
I 	I 	0.55705 0.82852 0.07933 -0.38200
C 	C 	0.73180 0.43770 0.26701 0.06500
H 	H 	0.70140 0.43860 0.27680 -0.00200
C 	C 	0.73560 0.47520 0.23857 -0.11400
H 	H 	0.70790 0.49980 0.22870 0.08100
C 	C 	0.78020 0.47680 0.22439 0.05100
C 	C 	0.81960 0.44330 0.24000 -0.11800
H 	H 	0.85090 0.44650 0.23150 0.08000
C 	C 	0.81260 0.40470 0.26830 0.06900
H 	H 	0.83960 0.38040 0.27890 -0.01100
C 	C 	0.95950 0.56490 0.13556 0.06600
H 	H 	0.98910 0.55930 0.14610 -0.00800
C 	C 	0.91760 0.54920 0.15070 -0.11100
H 	H 	0.91860 0.53120 0.17120 0.07800
C 	C 	0.87320 0.55940 0.13624 0.04900
C 	C 	0.87520 0.58170 0.10600 -0.10900
H 	H 	0.84620 0.58730 0.09480 0.07800
C 	C 	0.91880 0.59600 0.09176 0.07000
H 	H 	0.91890 0.61200 0.07100 -0.00800
C 	C 	0.65530 0.61500 0.09092 0.07700
H 	H 	0.65500 0.63750 0.07080 -0.01700
C 	C 	0.69870 0.59640 0.10408 -0.12300
H 	H 	0.72770 0.60300 0.09290 0.08000
C 	C 	0.70020 0.56780 0.13371 0.05200
C 	C 	0.65630 0.55510 0.14865 -0.11500
H 	H 	0.65550 0.53440 0.16900 0.07900
C 	C 	0.61450 0.57300 0.13340 0.06200
H 	H 	0.58480 0.56350 0.14360 -0.01100
C 	C 	0.78430 0.50960 0.19256 0.10500
C 	C 	0.82760 0.54710 0.15155 0.10100
C 	C 	0.74570 0.55130 0.14983 0.10000
C 	C 	0.54410 0.49000 0.04130 0.06600
H 	H 	0.52950 0.45570 0.05730 -0.01300
C 	C 	0.55580 0.44190 0.01490 -0.12500
H 	H 	0.54930 0.37510 0.01300 0.09300
C 	C 	0.57660 0.49030 0.99194 0.06000
C 	C 	0.58390 0.58920 0.99460 -0.12200
H 	H 	0.59700 0.62550 0.97850 0.08100
C 	C 	0.57170 0.63210 0.02100 0.07300
H 	H 	0.57660 0.69960 0.02280 -0.00500
C 	C 	0.68890 0.63890 0.87600 0.08400
H 	H 	0.69270 0.70660 0.87780 -0.01700
C 	C 	0.66670 0.59090 0.89910 -0.12800
H 	H 	0.65720 0.62390 0.91680 0.08400
C 	C 	0.65850 0.49330 0.89596 0.07500
C 	C 	0.67290 0.44970 0.87050 -0.13800
H 	H 	0.66720 0.38300 0.86740 0.09100
C 	C 	0.69640 0.50430 0.84881 0.09000
H 	H 	0.70650 0.47270 0.83100 -0.01700
C 	C 	0.57360 0.06490 0.90020 0.07000
H 	H 	0.57610 0.03640 0.88090 -0.00600
C 	C 	0.58920 0.15870 0.90420 -0.12800
H 	H 	0.60250 0.19390 0.88790 0.09600
C 	C 	0.58510 0.20030 0.93210 0.05400
C 	C 	0.56530 0.14760 0.95560 -0.12700
H 	H 	0.56180 0.17530 0.97500 0.09200
C 	C 	0.55120 0.05520 0.95020 0.07300
H 	H 	0.53800 0.01880 0.96620 -0.00500
C 	C 	0.59280 0.43990 0.96440 0.09100
C 	C 	0.63240 0.43900 0.92044 0.10300
C 	C 	0.59880 0.30330 0.93690 0.08700
N 	N 	0.76930 0.40050 0.28120 -0.27400
N 	N 	0.96070 0.58800 0.10606 -0.26900
N 	N 	0.61330 0.60320 0.10493 -0.27500
N 	N 	0.82760 0.52090 0.18060 -0.13900
N 	N 	0.78750 0.56420 0.13554 -0.13800
N 	N 	0.74240 0.52350 0.17877 -0.14000
N 	N 	0.55330 0.58500 0.04449 -0.27200
N 	N 	0.70560 0.59710 0.85138 -0.28300
N 	N 	0.55500 0.01310 0.92290 -0.27100
N 	N 	0.61820 0.49080 0.94384 -0.13800
N 	N 	0.62440 0.34640 0.91559 -0.13500
N 	N 	0.58160 0.34670 0.96198 -0.14100
Zn	Zn	0.25844 0.17674 0.68005 1.16500
Zn	Zn	0.52501 0.87963 0.91474 1.16300
Zn	Zn	0.04854 0.85304 0.91340 1.16300
I 	I 	0.16846 0.17691 0.66770 -0.37100
I 	I 	0.30023 0.33943 0.68576 -0.37200
I 	I 	0.57558 0.79203 0.87588 -0.36800
I 	I 	0.50552 0.80420 0.96582 -0.39000
I 	I 	0.98311 0.93694 0.88314 -0.36100
I 	I 	0.05705 0.67148 0.92067 -0.38200
C 	C 	0.23180 0.06230 0.73299 0.06500
H 	H 	0.20140 0.06140 0.72320 -0.00200
C 	C 	0.23560 0.02480 0.76143 -0.11400
H 	H 	0.20790 0.00020 0.77130 0.08100
C 	C 	0.28020 0.02320 0.77561 0.05100
C 	C 	0.31960 0.05670 0.76000 -0.11800
H 	H 	0.35090 0.05350 0.76850 0.08000
C 	C 	0.31260 0.09530 0.73170 0.06900
H 	H 	0.33960 0.11960 0.72110 -0.01100
C 	C 	0.45950 0.93510 0.86444 0.06500
H 	H 	0.48910 0.94070 0.85390 -0.00800
C 	C 	0.41760 0.95080 0.84930 -0.11100
H 	H 	0.41860 0.96880 0.82880 0.07800
C 	C 	0.37320 0.94060 0.86376 0.04900
C 	C 	0.37520 0.91830 0.89400 -0.10900
H 	H 	0.34620 0.91270 0.90520 0.07800
C 	C 	0.41880 0.90400 0.90824 0.07000
H 	H 	0.41890 0.88800 0.92900 -0.00800
C 	C 	0.15530 0.88500 0.90908 0.07600
H 	H 	0.15500 0.86250 0.92920 -0.01700
C 	C 	0.19870 0.90360 0.89592 -0.12300
H 	H 	0.22770 0.89700 0.90710 0.08000
C 	C 	0.20020 0.93220 0.86629 0.05200
C 	C 	0.15630 0.94490 0.85135 -0.11500
H 	H 	0.15550 0.96560 0.83100 0.07900
C 	C 	0.11450 0.92700 0.86660 0.06200
H 	H 	0.08480 0.93650 0.85640 -0.01100
C 	C 	0.28430 0.99040 0.80744 0.10400
C 	C 	0.32760 0.95290 0.84845 0.10100
C 	C 	0.24570 0.94870 0.85017 0.10000
C 	C 	0.04410 0.01000 0.95870 0.06700
H 	H 	0.02950 0.04430 0.94270 -0.01300
C 	C 	0.05580 0.05810 0.98510 -0.12600
H 	H 	0.04930 0.12490 0.98700 0.09300
C 	C 	0.07660 0.00970 0.00806 0.06100
C 	C 	0.08390 0.91080 0.00540 -0.12400
H 	H 	0.09700 0.87450 0.02150 0.08100
C 	C 	0.07170 0.86790 0.97900 0.07300
H 	H 	0.07660 0.80040 0.97720 -0.00500
C 	C 	0.18890 0.86110 0.12400 0.08400
H 	H 	0.19270 0.79340 0.12220 -0.01700
C 	C 	0.16670 0.90910 0.10090 -0.12900
H 	H 	0.15720 0.87610 0.08320 0.08400
C 	C 	0.15850 0.00670 0.10404 0.07600
C 	C 	0.17290 0.05030 0.12950 -0.13700
H 	H 	0.16720 0.11700 0.13260 0.09100
C 	C 	0.19640 0.99570 0.15119 0.08900
H 	H 	0.20650 0.02730 0.16900 -0.01600
C 	C 	0.07360 0.43510 0.09980 0.07000
H 	H 	0.07610 0.46360 0.11910 -0.00600
C 	C 	0.08920 0.34130 0.09580 -0.12800
H 	H 	0.10250 0.30610 0.11210 0.09600
C 	C 	0.08510 0.29970 0.06790 0.05400
C 	C 	0.06530 0.35240 0.04440 -0.12700
H 	H 	0.06180 0.32470 0.02500 0.09200
C 	C 	0.05120 0.44480 0.04980 0.07300
H 	H 	0.03800 0.48120 0.03380 -0.00500
C 	C 	0.09280 0.06010 0.03560 0.09100
C 	C 	0.13240 0.06100 0.07956 0.10300
C 	C 	0.09880 0.19670 0.06310 0.08700
N 	N 	0.26930 0.09950 0.71880 -0.27400
N 	N 	0.46070 0.91200 0.89394 -0.26900
N 	N 	0.11330 0.89680 0.89507 -0.27500
N 	N 	0.32760 0.97910 0.81940 -0.13900
N 	N 	0.28750 0.93580 0.86446 -0.13800
N 	N 	0.24240 0.97650 0.82123 -0.14000
N 	N 	0.05330 0.91500 0.95551 -0.27200
N 	N 	0.20560 0.90290 0.14862 -0.28200
N 	N 	0.05500 0.48690 0.07710 -0.27100
N 	N 	0.11820 0.00920 0.05616 -0.13700
N 	N 	0.12440 0.15360 0.08441 -0.13500
N 	N 	0.08160 0.15330 0.03802 -0.14100
Zn	Zn	0.24156 0.82326 0.18005 1.16500
Zn	Zn	0.97499 0.12037 0.41474 1.16300
Zn	Zn	0.45146 0.14696 0.41340 1.16300
I 	I 	0.33154 0.82309 0.16770 -0.37100
I 	I 	0.19977 0.66057 0.18576 -0.37200
I 	I 	0.92442 0.20797 0.37588 -0.36800
I 	I 	0.99448 0.19580 0.46582 -0.39000
I 	I 	0.51689 0.06306 0.38314 -0.36200
I 	I 	0.44295 0.32852 0.42067 -0.38200
C 	C 	0.26820 0.93770 0.23299 0.06500
H 	H 	0.29860 0.93860 0.22320 -0.00200
C 	C 	0.26440 0.97520 0.26143 -0.11300
H 	H 	0.29210 0.99980 0.27130 0.08100
C 	C 	0.21980 0.97680 0.27561 0.05000
C 	C 	0.18040 0.94330 0.26000 -0.11800
H 	H 	0.14910 0.94650 0.26850 0.08000
C 	C 	0.18740 0.90470 0.23170 0.06800
H 	H 	0.16040 0.88040 0.22110 -0.01100
C 	C 	0.04050 0.06490 0.36444 0.06600
H 	H 	0.01090 0.05930 0.35390 -0.00800
C 	C 	0.08240 0.04920 0.34930 -0.11100
H 	H 	0.08140 0.03120 0.32880 0.07900
C 	C 	0.12680 0.05940 0.36376 0.04900
C 	C 	0.12480 0.08170 0.39400 -0.10900
H 	H 	0.15380 0.08730 0.40520 0.07800
C 	C 	0.08120 0.09600 0.40824 0.07000
H 	H 	0.08110 0.11200 0.42900 -0.00800
C 	C 	0.34470 0.11500 0.40908 0.07700
H 	H 	0.34500 0.13750 0.42920 -0.01700
C 	C 	0.30130 0.09640 0.39592 -0.12300
H 	H 	0.27230 0.10300 0.40710 0.08000
C 	C 	0.29980 0.06780 0.36629 0.05200
C 	C 	0.34370 0.05510 0.35135 -0.11500
H 	H 	0.34450 0.03440 0.33100 0.07900
C 	C 	0.38550 0.07300 0.36660 0.06200
H 	H 	0.41520 0.06350 0.35640 -0.01100
C 	C 	0.21570 0.00960 0.30744 0.10500
C 	C 	0.17240 0.04710 0.34845 0.10100
C 	C 	0.25430 0.05130 0.35017 0.10000
C 	C 	0.45590 0.99000 0.45870 0.06600
H 	H 	0.47050 0.95570 0.44270 -0.01300
C 	C 	0.44420 0.94190 0.48510 -0.12500
H 	H 	0.45070 0.87510 0.48700 0.09300
C 	C 	0.42340 0.99030 0.50806 0.06000
C 	C 	0.41610 0.08920 0.50540 -0.12200
H 	H 	0.40300 0.12550 0.52150 0.08100
C 	C 	0.42830 0.13210 0.47900 0.07300
H 	H 	0.42340 0.19960 0.47720 -0.00500
C 	C 	0.31110 0.13890 0.62400 0.08400
H 	H 	0.30730 0.20660 0.62220 -0.01700
C 	C 	0.33330 0.09090 0.60090 -0.12800
H 	H 	0.34280 0.12390 0.58320 0.08400
C 	C 	0.34150 0.99330 0.60404 0.07500
C 	C 	0.32710 0.94970 0.62950 -0.13900
H 	H 	0.33280 0.88300 0.63260 0.09100
C 	C 	0.30360 0.00430 0.65119 0.09100
H 	H 	0.29350 0.97270 0.66900 -0.01800
C 	C 	0.42640 0.56490 0.59980 0.07000
H 	H 	0.42390 0.53640 0.61910 -0.00600
C 	C 	0.41080 0.65870 0.59580 -0.12800
H 	H 	0.39750 0.69390 0.61210 0.09600
C 	C 	0.41490 0.70030 0.56790 0.05400
C 	C 	0.43470 0.64760 0.54440 -0.12700
H 	H 	0.43820 0.67530 0.52500 0.09200
C 	C 	0.44880 0.55520 0.54980 0.07300
H 	H 	0.46200 0.51880 0.53380 -0.00500
C 	C 	0.40720 0.93990 0.53560 0.09100
C 	C 	0.36760 0.93900 0.57956 0.10300
C 	C 	0.40120 0.80330 0.56310 0.08700
N 	N 	0.23070 0.90050 0.21880 -0.27400
N 	N 	0.03930 0.08800 0.39394 -0.26800
N 	N 	0.38670 0.10320 0.39507 -0.27500
N 	N 	0.17240 0.02090 0.31940 -0.13900
N 	N 	0.21250 0.06420 0.36446 -0.13800
N 	N 	0.25760 0.02350 0.32123 -0.14000
N 	N 	0.44670 0.08500 0.45551 -0.27100
N 	N 	0.29440 0.09710 0.64862 -0.28300
N 	N 	0.44500 0.51310 0.57710 -0.27100
N 	N 	0.38180 0.99080 0.55616 -0.13800
N 	N 	0.37560 0.84640 0.58441 -0.13500
N 	N 	0.41840 0.84670 0.53802 -0.14100
