data_crystal

_cell_length_a 13.78760
_cell_length_b 27.87470
_cell_length_c 45.41500
_cell_angle_alpha 90.00000
_cell_angle_beta  90.00000
_cell_angle_gamma 90.00000

_symmetry_space_group_name_	'P 1'
_symmetry_space_group_name_H-M	'P 1'

loop_
_symmetry_equiv_pos_as_xyz
  x,y,z

loop_
_atom_site_label
_atom_site_type_symbol
_atom_site_fract_x
_atom_site_fract_y
_atom_site_fract_z
_atom_site_charge
Zn	Zn	0.16105 0.25673 0.31384 1.16300
Zn	Zn	0.33895 0.75673 0.68616 1.16300
Zn	Zn	0.15056 0.44887 0.57684 1.16200
Zn	Zn	0.65056 0.55113 0.92316 1.16200
Zn	Zn	0.36946 0.47500 0.41202 1.16300
Zn	Zn	0.66105 0.74327 0.18616 1.16300
Zn	Zn	0.86946 0.52500 0.08798 1.16300
Zn	Zn	0.83895 0.24327 0.81384 1.16300
Zn	Zn	0.13054 0.97500 0.58798 1.16200
Zn	Zn	0.84944 0.05113 0.07684 1.16200
Zn	Zn	0.34944 0.94887 0.42316 1.16200
Zn	Zn	0.63054 0.02500 0.91202 1.16300
H 	H 	0.81520 0.89880 0.61600 0.09800
H 	H 	0.47110 0.07170 0.87810 -0.01200
H 	H 	0.96470 0.15410 0.72760 0.07600
H 	H 	0.63600 0.81010 0.63180 0.07700
H 	H 	0.18480 0.60120 0.11600 0.09800
H 	H 	0.99390 0.95570 0.53750 -0.00800
H 	H 	0.90430 0.34690 0.09260 0.07900
H 	H 	0.12830 0.05170 0.00570 0.08800
H 	H 	0.95140 0.27170 0.33220 -0.01500
H 	H 	0.62830 0.94830 0.49430 0.08800
H 	H 	0.11530 0.07820 0.57120 -0.01000
H 	H 	0.00610 0.54430 0.03750 -0.00800
H 	H 	0.98770 0.20260 0.22330 0.07400
H 	H 	0.63390 0.65690 0.93590 -0.01700
H 	H 	0.54750 0.65240 0.83760 0.07900
H 	H 	0.95140 0.30450 0.77070 0.00400
H 	H 	0.19460 0.40760 0.51710 -0.00400
H 	H 	0.03530 0.34590 0.22760 0.07700
H 	H 	0.45140 0.72830 0.16780 -0.01500
H 	H 	0.95650 0.46820 0.54810 -0.01000
H 	H 	0.69460 0.59240 0.98290 -0.00300
H 	H 	0.88330 0.14880 0.90550 0.08300
H 	H 	0.48770 0.79740 0.27670 0.07700
H 	H 	0.97110 0.92830 0.62190 -0.01100
H 	H 	0.11350 0.38430 0.47430 0.07600
H 	H 	0.61350 0.61570 0.02570 0.07600
H 	H 	0.92280 0.08330 0.13610 -0.00800
H 	H 	0.56400 0.98550 0.85320 -0.00900
H 	H 	0.45650 0.53180 0.95190 -0.00900
H 	H 	0.87170 0.44830 0.50570 0.08900
H 	H 	0.04860 0.19550 0.27070 0.00600
H 	H 	0.09370 0.33550 0.27430 -0.00900
H 	H 	0.54860 0.80450 0.22930 0.00500
H 	H 	0.59570 0.84690 0.90740 0.08000
H 	H 	0.86610 0.15690 0.06410 -0.01600
H 	H 	0.80540 0.09240 0.01710 -0.00300
H 	H 	0.40430 0.65310 0.40740 0.08000
H 	H 	0.09570 0.15310 0.59260 0.08000
H 	H 	0.37170 0.55170 0.99430 0.08900
H 	H 	0.61670 0.64880 0.09450 0.08300
H 	H 	0.39530 0.77090 0.41160 0.07800
H 	H 	0.60470 0.72910 0.91160 0.07800
H 	H 	0.49390 0.04430 0.96250 -0.00700
H 	H 	0.93600 0.48550 0.14680 -0.00900
H 	H 	0.40630 0.83550 0.72570 -0.00900
H 	H 	0.51230 0.70260 0.77670 0.07700
H 	H 	0.46030 0.58780 0.32990 0.08000
H 	H 	0.96030 0.41220 0.17010 0.08000
H 	H 	0.02890 0.57170 0.12190 -0.01100
H 	H 	0.36400 0.68990 0.13180 0.07800
H 	H 	0.03970 0.08780 0.67010 0.08000
H 	H 	0.68480 0.39880 0.38400 0.09900
H 	H 	0.88650 0.11570 0.97430 0.07700
H 	H 	0.38650 0.88430 0.52570 0.07600
H 	H 	0.01230 0.29740 0.72330 0.07600
H 	H 	0.11670 0.35120 0.40550 0.08200
H 	H 	0.30540 0.90760 0.48290 -0.00300
H 	H 	0.54350 0.96820 0.45190 -0.00900
H 	H 	0.45140 0.69550 0.72930 0.00500
H 	H 	0.53970 0.91220 0.82990 0.08000
H 	H 	0.52890 0.42830 0.37810 -0.01100
H 	H 	0.04750 0.34760 0.66240 0.08000
H 	H 	0.10470 0.27090 0.58840 0.07800
H 	H 	0.53530 0.65410 0.27240 0.07700
H 	H 	0.54860 0.77170 0.66780 -0.01400
H 	H 	0.69710 0.68350 0.13350 -0.00900
H 	H 	0.50610 0.45570 0.46250 -0.00700
H 	H 	0.16070 0.57270 0.02900 0.08900
H 	H 	0.42280 0.91670 0.36390 -0.00800
H 	H 	0.43600 0.51450 0.35320 -0.00900
H 	H 	0.06400 0.01450 0.64680 -0.00900
H 	H 	0.38330 0.85120 0.59450 0.08300
H 	H 	0.80290 0.18350 0.86650 -0.00900
H 	H 	0.19710 0.31650 0.36650 -0.00800
H 	H 	0.45250 0.84760 0.33760 0.08000
H 	H 	0.90630 0.16450 0.77430 -0.00900
H 	H 	0.30290 0.81650 0.63350 -0.00900
H 	H 	0.07720 0.41670 0.63610 -0.00800
H 	H 	0.57720 0.58330 0.86390 -0.00800
H 	H 	0.59370 0.66450 0.22570 -0.00900
H 	H 	0.13390 0.34310 0.56410 -0.01600
H 	H 	0.66070 0.42730 0.47100 0.08900
H 	H 	0.36610 0.84310 0.43590 -0.01600
H 	H 	0.61530 0.92180 0.92880 -0.00900
H 	H 	0.88470 0.42180 0.07120 -0.00900
H 	H 	0.38470 0.57820 0.42880 -0.00900
H 	H 	0.31520 0.10120 0.88400 0.09900
H 	H 	0.83930 0.92730 0.52900 0.08900
H 	H 	0.33930 0.07270 0.97100 0.08900
H 	H 	0.95250 0.15240 0.16240 0.08000
H 	H 	0.86400 0.31010 0.36820 0.07800
H 	H 	0.04350 0.03180 0.04810 -0.00900
H 	H 	0.89530 0.22910 0.08840 0.07800
H 	H 	0.46470 0.84590 0.77240 0.07700
H 	H 	0.04860 0.22830 0.83220 -0.01400
H 	H 	0.13600 0.18990 0.86820 0.07800
C 	C 	0.07990 0.40110 0.48933 -0.10900
C 	C 	0.37230 0.91510 0.48497 0.05800
C 	C 	0.54270 0.44380 0.44639 0.08000
C 	C 	0.98280 0.41230 0.48620 0.05000
C 	C 	0.44270 0.75660 0.35484 0.10300
C 	C 	0.05640 0.57220 0.10268 0.07800
C 	C 	0.43460 0.84580 0.35772 -0.11400
C 	C 	0.09920 0.30050 0.59866 -0.11800
C 	C 	0.06710 0.18880 0.86855 -0.12100
C 	C 	0.99160 0.22480 0.71912 0.04100
C 	C 	0.07340 0.30810 0.26354 0.06200
C 	C 	0.48910 0.73030 0.76673 -0.10000
C 	C 	0.94360 0.92780 0.60268 0.07800
C 	C 	0.58330 0.61340 0.87351 0.06000
C 	C 	0.57340 0.69190 0.23646 0.06200
C 	C 	0.85090 0.91020 0.59958 -0.13500
C 	C 	0.07110 0.04320 0.63576 0.06900
C 	C 	0.44380 0.58670 0.35024 -0.11600
C 	C 	0.35090 0.08980 0.90042 -0.13500
C 	C 	0.58870 0.87500 0.89583 -0.11400
C 	C 	0.39860 0.58020 0.40830 0.06900
C 	C 	0.13460 0.57290 0.04840 -0.13200
C 	C 	0.37170 0.81460 0.63277 0.07200
C 	C 	0.60140 0.91980 0.90830 0.06900
C 	C 	0.14910 0.58980 0.09958 -0.13500
C 	C 	0.55620 0.91330 0.85024 -0.11600
C 	C 	0.63460 0.42710 0.45160 -0.13200
C 	C 	0.62770 0.58490 0.98497 0.05800
C 	C 	0.55640 0.42780 0.39732 0.07800
C 	C 	0.01090 0.23030 0.23327 -0.09700
C 	C 	0.38360 0.84360 0.41567 0.07000
C 	C 	0.64910 0.41020 0.40042 -0.13500
C 	C 	0.97820 0.27950 0.18809 0.10600
C 	C 	0.36540 0.07290 0.95160 -0.13200
C 	C 	0.50840 0.72480 0.28088 0.04100
C 	C 	0.10140 0.08020 0.59170 0.06900
C 	C 	0.07110 0.10340 0.95943 0.09800
C 	C 	0.06550 0.12850 0.63372 0.05300
C 	C 	0.51490 0.78920 0.65300 0.07200
C 	C 	0.92890 0.45680 0.13576 0.06900
C 	C 	0.08110 0.33600 0.39025 -0.11200
C 	C 	0.01490 0.21080 0.84700 0.07100
C 	C 	0.57110 0.89660 0.54057 0.09800
C 	C 	0.89860 0.41980 0.09170 0.06900
C 	C 	0.48510 0.71080 0.15300 0.07200
C 	C 	0.56270 0.93860 0.49208 -0.12100
C 	C 	0.52180 0.77950 0.81191 0.10700
C 	C 	0.42890 0.54320 0.36424 0.06900
C 	C 	0.51090 0.76970 0.26673 -0.10000
C 	C 	0.92730 0.35990 0.41514 0.10700
C 	C 	0.42730 0.64010 0.08486 0.10700
C 	C 	0.90080 0.19950 0.09866 -0.11800
C 	C 	0.95300 0.27380 0.76155 0.05100
C 	C 	0.02180 0.22050 0.68809 0.10700
C 	C 	0.93450 0.37150 0.13372 0.05300
C 	C 	0.91890 0.16400 0.89025 -0.11400
C 	C 	0.08870 0.12500 0.60417 -0.11400
C 	C 	0.44360 0.07220 0.89732 0.07800
C 	C 	0.93290 0.31120 0.36855 -0.11900
C 	C 	0.41670 0.88660 0.37351 0.06000
C 	C 	0.81160 0.91000 0.57153 0.06000
C 	C 	0.41890 0.83600 0.60975 -0.11500
C 	C 	0.01720 0.08770 0.98620 0.05200
C 	C 	0.55440 0.82400 0.85206 0.10300
C 	C 	0.05440 0.17600 0.64794 0.10300
C 	C 	0.12830 0.31460 0.36723 0.07100
C 	C 	0.57270 0.85990 0.58486 0.10700
C 	C 	0.05620 0.08670 0.64976 -0.11600
C 	C 	0.41130 0.62500 0.39583 -0.11400
C 	C 	0.93460 0.15420 0.14228 -0.11400
C 	C 	0.98910 0.26970 0.73327 -0.09900
C 	C 	0.56540 0.65420 0.85772 -0.11400
C 	C 	0.61640 0.65640 0.91567 0.07000
C 	C 	0.48870 0.54930 0.96700 0.06700
C 	C 	0.62830 0.68540 0.13277 0.07200
C 	C 	0.06540 0.34580 0.64228 -0.11400
C 	C 	0.57400 0.69860 0.87188 0.05100
C 	C 	0.12770 0.41510 0.51503 0.05800
C 	C 	0.01130 0.04930 0.03300 0.06900
C 	C 	0.45300 0.72620 0.73845 0.05200
C 	C 	0.51130 0.95070 0.46700 0.06700
C 	C 	0.06270 0.06140 0.00792 -0.12200
C 	C 	0.57990 0.59890 0.01067 -0.10900
C 	C 	0.43450 0.62850 0.36628 0.05300
C 	C 	0.51720 0.91230 0.51380 0.05100
C 	C 	0.00840 0.27520 0.21912 0.04100
C 	C 	0.87170 0.18540 0.86723 0.07100
C 	C 	0.96120 0.18550 0.73572 -0.10900
C 	C 	0.03880 0.31450 0.23572 -0.10900
C 	C 	0.92010 0.09890 0.98933 -0.11000
C 	C 	0.45730 0.05620 0.94639 0.08000
C 	C 	0.42890 0.60340 0.04057 0.09800
C 	C 	0.79180 0.39440 0.43257 0.09300
C 	C 	0.07270 0.14010 0.91514 0.10700
C 	C 	0.56710 0.81120 0.63145 -0.12100
C 	C 	0.47820 0.72050 0.31191 0.10700
C 	C 	0.93730 0.43860 0.50792 -0.12100
C 	C 	0.40080 0.80050 0.40134 -0.11800
C 	C 	0.98030 0.33500 0.39092 0.05800
C 	C 	0.92600 0.19860 0.12812 0.05100
C 	C 	0.08330 0.38660 0.62649 0.05900
C 	C 	0.20820 0.10560 0.93257 0.09300
C 	C 	0.29180 0.60560 0.06743 0.09300
C 	C 	0.43730 0.56140 0.99208 -0.12100
C 	C 	0.43290 0.68880 0.13145 -0.12100
C 	C 	0.53880 0.68550 0.26428 -0.10900
C 	C 	0.48030 0.66500 0.10908 0.06100
C 	C 	0.05730 0.25660 0.64516 0.10300
C 	C 	0.31160 0.09000 0.92847 0.06000
C 	C 	0.04270 0.55620 0.05361 0.08000
C 	C 	0.46120 0.81450 0.76428 -0.10900
C 	C 	0.54700 0.77380 0.23845 0.05200
C 	C 	0.91130 0.37500 0.10417 -0.11400
C 	C 	0.59920 0.69950 0.90134 -0.11800
C 	C 	0.42600 0.80140 0.37188 0.05100
C 	C 	0.42660 0.80810 0.73646 0.06200
C 	C 	0.70820 0.89440 0.56743 0.09300
C 	C 	0.56550 0.87150 0.86628 0.05300
C 	C 	0.01970 0.16500 0.89092 0.06000
C 	C 	0.44560 0.67600 0.35206 0.10300
C 	C 	0.94560 0.32400 0.14794 0.10300
C 	C 	0.68840 0.41000 0.42847 0.06000
C 	C 	0.92660 0.19190 0.76354 0.06200
C 	C 	0.07400 0.30140 0.62812 0.05100
C 	C 	0.88360 0.15640 0.08433 0.07000
C 	C 	0.49160 0.77520 0.78088 0.04100
C 	C 	0.51970 0.83500 0.60908 0.06100
C 	C 	0.98870 0.45070 0.53300 0.06700
C 	C 	0.87230 0.08490 0.01503 0.05900
C 	C 	0.58110 0.66400 0.10975 -0.11500
C 	C 	0.92890 0.39660 0.45943 0.09800
C 	C 	0.94380 0.41330 0.14976 -0.11600
C 	C 	0.48280 0.58770 0.01380 0.05100
C 	C 	0.86540 0.92710 0.54840 -0.13200
C 	C 	0.42010 0.90110 0.51067 -0.10900
C 	C 	0.18840 0.59000 0.07153 0.06000
C 	C 	0.95730 0.94380 0.55361 0.08000
C 	C 	0.55730 0.74340 0.85484 0.10300
C 	C 	0.11640 0.34360 0.58433 0.07000
C 	C 	0.04700 0.22620 0.26155 0.05100
C 	C 	0.98510 0.28920 0.34700 0.06900
C 	C 	0.94270 0.24340 0.14516 0.10300
C 	C 	0.57110 0.95680 0.86424 0.06900
C 	C 	0.91670 0.11340 0.12649 0.05900
I 	I 	0.43551 0.01477 0.39455 -0.36300
I 	I 	0.66734 0.05705 0.06759 -0.38200
I 	I 	0.33266 0.44295 0.56759 -0.38200
I 	I 	0.32359 0.66712 0.67455 -0.37100
I 	I 	0.18337 0.80511 0.69433 -0.37000
I 	I 	0.70916 0.00879 0.96218 -0.38500
I 	I 	0.29084 0.49121 0.46218 -0.38500
I 	I 	0.28359 0.42705 0.37231 -0.36600
I 	I 	0.56449 0.48523 0.89455 -0.36300
I 	I 	0.17641 0.16712 0.32545 -0.37000
I 	I 	0.21641 0.92705 0.62769 -0.36700
I 	I 	0.31663 0.30511 0.30567 -0.36900
I 	I 	0.78359 0.57295 0.12769 -0.36700
I 	I 	0.83266 0.55705 0.93241 -0.38200
I 	I 	0.82359 0.33288 0.82545 -0.37000
I 	I 	0.68337 0.19489 0.80567 -0.36900
I 	I 	0.71641 0.07295 0.87231 -0.36700
I 	I 	0.67641 0.83288 0.17455 -0.37100
I 	I 	0.79084 0.50879 0.03782 -0.38500
I 	I 	0.16734 0.94295 0.43241 -0.38300
I 	I 	0.20916 0.99121 0.53782 -0.38500
I 	I 	0.06449 0.51477 0.60545 -0.36300
I 	I 	0.93551 0.98523 0.10545 -0.36200
I 	I 	0.81663 0.69489 0.19433 -0.36900
N 	N 	0.66470 0.90850 0.54242 -0.14300
N 	N 	0.03120 0.17670 0.67653 -0.14000
N 	N 	0.58270 0.70880 0.15429 -0.27700
N 	N 	0.08270 0.29120 0.34571 -0.27500
N 	N 	0.03430 0.26140 0.67362 -0.14100
N 	N 	0.53430 0.73860 0.82638 -0.14100
N 	N 	0.16470 0.09150 0.95758 -0.14300
N 	N 	0.89070 0.11420 0.09790 -0.27000
N 	N 	0.91750 0.06120 0.03702 -0.27200
N 	N 	0.33530 0.59150 0.04242 -0.14300
N 	N 	0.83310 0.36880 0.41122 -0.13300
N 	N 	0.90500 0.46010 0.10728 -0.27000
N 	N 	0.93140 0.28540 0.13134 -0.14000
N 	N 	0.53120 0.82330 0.82347 -0.14000
N 	N 	0.09500 0.03990 0.60728 -0.27000
N 	N 	0.50240 0.44410 0.41969 -0.27700
N 	N 	0.66690 0.86880 0.58878 -0.13300
N 	N 	0.41730 0.79120 0.65429 -0.27700
N 	N 	0.41990 0.76480 0.72350 -0.27100
N 	N 	0.40500 0.53990 0.39272 -0.27000
N 	N 	0.56860 0.78540 0.86866 -0.14000
N 	N 	0.16690 0.13120 0.91122 -0.13300
N 	N 	0.46570 0.76140 0.32638 -0.14100
N 	N 	0.33310 0.63120 0.08878 -0.13300
N 	N 	0.52070 0.87270 0.56124 -0.13700
N 	N 	0.91730 0.20880 0.84571 -0.27600
N 	N 	0.91990 0.23520 0.77650 -0.27100
N 	N 	0.99760 0.94410 0.58031 -0.27700
N 	N 	0.47930 0.62730 0.06124 -0.13700
N 	N 	0.96880 0.32330 0.17653 -0.14000
N 	N 	0.97930 0.37270 0.43876 -0.13700
N 	N 	0.49760 0.05590 0.91969 -0.27700
N 	N 	0.41750 0.93880 0.46298 -0.27100
N 	N 	0.58010 0.73520 0.22350 -0.27100
N 	N 	0.10930 0.38580 0.59790 -0.27000
N 	N 	0.96570 0.23860 0.17362 -0.14100
N 	N 	0.43140 0.71460 0.36866 -0.14000
N 	N 	0.59500 0.96010 0.89272 -0.27000
N 	N 	0.46880 0.67670 0.32347 -0.14000
N 	N 	0.83530 0.40850 0.45758 -0.14300
N 	N 	0.08250 0.43880 0.53702 -0.27100
N 	N 	0.02070 0.12730 0.93876 -0.13700
N 	N 	0.06860 0.21460 0.63134 -0.14000
N 	N 	0.00240 0.55590 0.08031 -0.27700
N 	N 	0.08010 0.26480 0.27650 -0.27000
N 	N 	0.39070 0.88580 0.40210 -0.27000
N 	N 	0.60930 0.61420 0.90210 -0.27000
N 	N 	0.58250 0.56120 0.96298 -0.27100
Zn	Zn	0.84944 0.55113 0.42316 1.16300
Zn	Zn	0.34944 0.44887 0.07684 1.16300
Zn	Zn	0.36946 0.97500 0.08798 1.16400
Zn	Zn	0.63054 0.52500 0.58798 1.16400
Zn	Zn	0.15056 0.94887 0.92316 1.16300
Zn	Zn	0.66105 0.24327 0.31384 1.16400
Zn	Zn	0.65056 0.05113 0.57684 1.16300
Zn	Zn	0.33895 0.25673 0.81384 1.16400
Zn	Zn	0.13054 0.47500 0.91202 1.16400
Zn	Zn	0.16105 0.75673 0.18616 1.16400
Zn	Zn	0.86946 0.02500 0.41202 1.16300
Zn	Zn	0.83895 0.74327 0.68616 1.16400
H 	H 	0.87170 0.94830 0.99430 0.08900
H 	H 	0.04860 0.72830 0.66780 -0.01400
H 	H 	0.93600 0.98550 0.35320 -0.00900
H 	H 	0.39530 0.27090 0.08840 0.07800
H 	H 	0.89530 0.72910 0.41160 0.07800
H 	H 	0.63390 0.15690 0.56410 -0.01600
H 	H 	0.13390 0.84310 0.93590 -0.01600
H 	H 	0.11530 0.57820 0.92880 -0.00900
H 	H 	0.33930 0.57270 0.52900 0.08900
H 	H 	0.88650 0.61570 0.52570 0.07600
H 	H 	0.69710 0.18350 0.36650 -0.00900
H 	H 	0.09370 0.83550 0.22570 -0.00900
H 	H 	0.47110 0.57170 0.62190 -0.01100
H 	H 	0.88330 0.64880 0.59450 0.08200
H 	H 	0.92280 0.58330 0.36390 -0.00800
H 	H 	0.46470 0.34590 0.72760 0.07700
H 	H 	0.61530 0.42180 0.57120 -0.00900
H 	H 	0.37170 0.05170 0.50570 0.08900
H 	H 	0.59370 0.16450 0.27430 -0.00900
H 	H 	0.62830 0.44830 0.00570 0.08900
H 	H 	0.96470 0.65410 0.77240 0.07800
H 	H 	0.18480 0.10120 0.38400 0.09900
H 	H 	0.56400 0.48550 0.64680 -0.00900
H 	H 	0.11670 0.85120 0.09450 0.08300
H 	H 	0.48770 0.29740 0.22330 0.07700
H 	H 	0.38650 0.38430 0.97430 0.07600
H 	H 	0.36610 0.34310 0.06410 -0.01600
H 	H 	0.10470 0.77090 0.91160 0.07800
H 	H 	0.52890 0.92830 0.12190 -0.01100
H 	H 	0.30540 0.40760 0.01710 -0.00300
H 	H 	0.63600 0.31010 0.86820 0.07800
H 	H 	0.61350 0.11570 0.47430 0.07600
H 	H 	0.46030 0.08780 0.17010 0.08000
H 	H 	0.31520 0.60120 0.61600 0.09900
H 	H 	0.97110 0.42830 0.87810 -0.01100
H 	H 	0.30290 0.31650 0.86650 -0.00900
H 	H 	0.16070 0.07270 0.47100 0.08900
H 	H 	0.68480 0.89880 0.11600 0.09900
H 	H 	0.95140 0.80450 0.72930 0.00600
H 	H 	0.61670 0.14880 0.40550 0.08300
H 	H 	0.38330 0.35120 0.90550 0.08300
H 	H 	0.54350 0.46820 0.04810 -0.00900
H 	H 	0.50610 0.95570 0.03750 -0.00700
H 	H 	0.59570 0.34690 0.59260 0.08000
H 	H 	0.04350 0.53180 0.45190 -0.00900
H 	H 	0.66070 0.92730 0.02900 0.08900
H 	H 	0.57720 0.08330 0.63610 -0.00800
H 	H 	0.13600 0.68990 0.63180 0.07800
H 	H 	0.09570 0.65310 0.90740 0.08000
H 	H 	0.90630 0.66450 0.72570 -0.00900
H 	H 	0.38470 0.07820 0.07120 -0.00900
H 	H 	0.95140 0.77170 0.16780 -0.01400
H 	H 	0.96030 0.91220 0.32990 0.08000
H 	H 	0.88470 0.92180 0.42880 -0.00900
H 	H 	0.40630 0.33550 0.77430 -0.00900
H 	H 	0.99390 0.45570 0.96250 -0.00700
H 	H 	0.95650 0.96820 0.95190 -0.00900
H 	H 	0.53970 0.41220 0.67010 0.08000
H 	H 	0.45140 0.19550 0.77070 0.00500
H 	H 	0.45140 0.22830 0.33220 -0.01400
H 	H 	0.69460 0.09240 0.51710 -0.00300
H 	H 	0.03970 0.58780 0.82990 0.08000
H 	H 	0.01230 0.79740 0.77670 0.07500
H 	H 	0.90430 0.84690 0.40740 0.08000
H 	H 	0.04750 0.84760 0.83760 0.08000
H 	H 	0.80540 0.59240 0.48290 -0.00300
H 	H 	0.49390 0.54430 0.53750 -0.00700
H 	H 	0.54860 0.27170 0.83220 -0.01400
H 	H 	0.40430 0.15310 0.09260 0.08000
H 	H 	0.11350 0.88430 0.02570 0.07700
H 	H 	0.60470 0.22910 0.58840 0.07800
H 	H 	0.98770 0.70260 0.27670 0.07600
H 	H 	0.07720 0.91670 0.86390 -0.00800
H 	H 	0.04860 0.69550 0.22930 0.00500
H 	H 	0.51230 0.20260 0.72330 0.07700
H 	H 	0.81520 0.39880 0.88400 0.09900
H 	H 	0.95250 0.65240 0.33760 0.08000
H 	H 	0.02890 0.07170 0.37810 -0.01100
H 	H 	0.00610 0.04430 0.46250 -0.00700
H 	H 	0.54750 0.15240 0.66240 0.08000
H 	H 	0.53530 0.15410 0.22760 0.07700
H 	H 	0.45650 0.03180 0.54810 -0.00900
H 	H 	0.03530 0.84590 0.27240 0.07700
H 	H 	0.12830 0.55170 0.49430 0.08900
H 	H 	0.54860 0.30450 0.27070 0.00500
H 	H 	0.80290 0.68350 0.63350 -0.00800
H 	H 	0.19460 0.90760 0.98290 -0.00300
H 	H 	0.86400 0.81010 0.13180 0.07800
H 	H 	0.83930 0.42730 0.97100 0.08900
H 	H 	0.19710 0.81650 0.13350 -0.00900
H 	H 	0.86610 0.65690 0.43590 -0.01600
H 	H 	0.42280 0.41670 0.13610 -0.00800
H 	H 	0.43600 0.01450 0.14680 -0.00900
H 	H 	0.06400 0.51450 0.85320 -0.00900
H 	H 	0.36400 0.18990 0.36820 0.07800
H 	H 	0.45250 0.34760 0.16240 0.08000
C 	C 	0.45730 0.55620 0.55361 0.08000
C 	C 	0.12770 0.91510 0.98497 0.05900
C 	C 	0.99160 0.72480 0.78088 0.04100
C 	C 	0.43730 0.06140 0.50792 -0.12100
C 	C 	0.45300 0.22620 0.76155 0.05200
C 	C 	0.37230 0.41510 0.01503 0.05800
C 	C 	0.92890 0.95680 0.36424 0.06900
C 	C 	0.92010 0.59890 0.51067 -0.10900
C 	C 	0.05640 0.07220 0.39732 0.07800
C 	C 	0.55440 0.32400 0.64794 0.10300
C 	C 	0.57110 0.45680 0.63576 0.06900
C 	C 	0.94360 0.42780 0.89732 0.07800
C 	C 	0.93730 0.93860 0.99208 -0.12200
C 	C 	0.63460 0.92710 0.04840 -0.13200
C 	C 	0.79180 0.89440 0.06743 0.09300
C 	C 	0.09920 0.80050 0.90134 -0.11800
C 	C 	0.05730 0.75660 0.85484 0.10300
C 	C 	0.01490 0.71080 0.65300 0.06900
C 	C 	0.01720 0.58770 0.51380 0.05000
C 	C 	0.61640 0.15640 0.58433 0.07000
C 	C 	0.98510 0.78920 0.15300 0.07100
C 	C 	0.20820 0.60560 0.56743 0.09300
C 	C 	0.35090 0.58980 0.59958 -0.13500
C 	C 	0.29180 0.10560 0.43257 0.09300
C 	C 	0.06540 0.84580 0.85772 -0.11400
C 	C 	0.62830 0.18540 0.36723 0.07200
C 	C 	0.95730 0.44380 0.94639 0.08000
C 	C 	0.52180 0.27950 0.68809 0.10700
C 	C 	0.40080 0.30050 0.09866 -0.11800
C 	C 	0.42890 0.10340 0.45943 0.09800
C 	C 	0.43460 0.34580 0.14228 -0.11400
C 	C 	0.05440 0.67600 0.85206 0.10300
C 	C 	0.41670 0.38660 0.12649 0.06000
C 	C 	0.07990 0.90110 0.01067 -0.11000
C 	C 	0.57340 0.19190 0.26354 0.06200
C 	C 	0.94270 0.74340 0.35484 0.10300
C 	C 	0.06270 0.56140 0.49208 -0.12100
C 	C 	0.55640 0.92780 0.10268 0.07800
C 	C 	0.08870 0.62500 0.89583 -0.11400
C 	C 	0.51720 0.41230 0.98620 0.05100
C 	C 	0.87170 0.68540 0.63277 0.07100
C 	C 	0.88360 0.65640 0.41567 0.07000
C 	C 	0.14910 0.08980 0.40042 -0.13500
C 	C 	0.87230 0.58490 0.48497 0.05800
C 	C 	0.47820 0.22050 0.18809 0.10700
C 	C 	0.42660 0.30810 0.76354 0.06200
C 	C 	0.56540 0.15420 0.64228 -0.11400
C 	C 	0.57400 0.19860 0.62812 0.05100
C 	C 	0.58110 0.16400 0.39025 -0.11500
C 	C 	0.93450 0.87150 0.36628 0.05300
C 	C 	0.07340 0.80810 0.23646 0.06200
C 	C 	0.57990 0.09890 0.48933 -0.10900
C 	C 	0.93460 0.65420 0.35772 -0.11400
C 	C 	0.56550 0.37150 0.63372 0.05300
C 	C 	0.04700 0.72620 0.23845 0.05100
C 	C 	0.46120 0.31450 0.73572 -0.10900
C 	C 	0.11640 0.84360 0.91567 0.07000
C 	C 	0.01130 0.54930 0.46700 0.06700
C 	C 	0.42010 0.40110 0.98933 -0.10900
C 	C 	0.42890 0.04320 0.13576 0.06900
C 	C 	0.90080 0.69950 0.40134 -0.11800
C 	C 	0.12830 0.81460 0.13277 0.07100
C 	C 	0.68840 0.91000 0.07153 0.06000
C 	C 	0.03880 0.81450 0.26428 -0.10900
C 	C 	0.39860 0.08020 0.09170 0.06900
C 	C 	0.36540 0.57290 0.54840 -0.13200
C 	C 	0.92660 0.69190 0.73646 0.06200
C 	C 	0.02180 0.72050 0.81191 0.10600
C 	C 	0.92600 0.69860 0.37188 0.05100
C 	C 	0.48280 0.08770 0.48620 0.05100
C 	C 	0.50840 0.22480 0.21912 0.04100
C 	C 	0.43450 0.12850 0.13372 0.05300
C 	C 	0.44380 0.08670 0.14976 -0.11600
C 	C 	0.48030 0.16500 0.39092 0.06100
C 	C 	0.44360 0.57220 0.60268 0.07800
C 	C 	0.48910 0.23030 0.73327 -0.10000
C 	C 	0.55730 0.24340 0.64516 0.10300
C 	C 	0.91670 0.61340 0.37351 0.05900
C 	C 	0.41890 0.33600 0.89025 -0.11500
C 	C 	0.08330 0.88660 0.87351 0.05900
C 	C 	0.18840 0.09000 0.42847 0.06000
C 	C 	0.85090 0.41020 0.90042 -0.13500
C 	C 	0.07400 0.80140 0.87188 0.05100
C 	C 	0.51090 0.26970 0.23327 -0.10000
C 	C 	0.43290 0.18880 0.36855 -0.12100
C 	C 	0.01970 0.66500 0.60908 0.05800
C 	C 	0.81160 0.41000 0.92847 0.06000
C 	C 	0.48510 0.21080 0.34700 0.07200
C 	C 	0.57270 0.35990 0.91514 0.10700
C 	C 	0.44560 0.17600 0.14794 0.10300
C 	C 	0.70820 0.39440 0.93257 0.09300
C 	C 	0.42600 0.30140 0.12812 0.05100
C 	C 	0.07110 0.54320 0.86424 0.06900
C 	C 	0.94560 0.82400 0.35206 0.10300
C 	C 	0.49160 0.27520 0.71912 0.04100
C 	C 	0.92890 0.89660 0.04057 0.09800
C 	C 	0.07110 0.60340 0.54057 0.09800
C 	C 	0.55620 0.41330 0.64976 -0.11600
C 	C 	0.56270 0.43860 0.00792 -0.12100
C 	C 	0.51130 0.45070 0.03300 0.06700
C 	C 	0.31160 0.59000 0.57153 0.06000
C 	C 	0.93290 0.81120 0.13145 -0.12100
C 	C 	0.51490 0.28920 0.84700 0.07200
C 	C 	0.58870 0.37500 0.60417 -0.11400
C 	C 	0.98910 0.76970 0.76673 -0.09700
C 	C 	0.98280 0.91230 0.01380 0.05200
C 	C 	0.57110 0.39660 0.95943 0.09800
C 	C 	0.07270 0.64010 0.58486 0.10700
C 	C 	0.59920 0.19950 0.59866 -0.11800
C 	C 	0.54270 0.94380 0.05361 0.08000
C 	C 	0.98870 0.95070 0.96700 0.06900
C 	C 	0.04270 0.05620 0.44639 0.08000
C 	C 	0.01090 0.73030 0.26673 -0.09900
C 	C 	0.97820 0.77950 0.31191 0.10700
C 	C 	0.05620 0.58670 0.85024 -0.11600
C 	C 	0.44270 0.25660 0.14516 0.10300
C 	C 	0.41130 0.12500 0.10417 -0.11400
C 	C 	0.89860 0.91980 0.40830 0.06900
C 	C 	0.58330 0.11340 0.62649 0.06000
C 	C 	0.86540 0.42710 0.95160 -0.13200
C 	C 	0.48870 0.04930 0.53300 0.06700
C 	C 	0.08110 0.83600 0.10975 -0.11400
C 	C 	0.94380 0.91330 0.35024 -0.11600
C 	C 	0.96120 0.68550 0.76428 -0.10900
C 	C 	0.00840 0.77520 0.28088 0.04100
C 	C 	0.37170 0.31460 0.86723 0.07200
C 	C 	0.91130 0.87500 0.39583 -0.11400
C 	C 	0.10140 0.58020 0.90830 0.06900
C 	C 	0.91890 0.66400 0.60975 -0.11200
C 	C 	0.06710 0.68880 0.63145 -0.11900
C 	C 	0.54700 0.27380 0.26155 0.05200
C 	C 	0.92730 0.85990 0.08486 0.10700
C 	C 	0.62770 0.08490 0.51503 0.05800
C 	C 	0.53880 0.18550 0.23572 -0.10900
C 	C 	0.60140 0.41980 0.59170 0.06900
C 	C 	0.38360 0.34360 0.08433 0.07000
C 	C 	0.13460 0.07290 0.45160 -0.13200
C 	C 	0.42730 0.14010 0.41514 0.10700
C 	C 	0.95300 0.77380 0.73845 0.05100
C 	C 	0.06550 0.62850 0.86628 0.05300
C 	C 	0.98030 0.83500 0.10908 0.06000
C 	C 	0.51970 0.33500 0.89092 0.06100
C 	C 	0.64910 0.91020 0.09958 -0.13500
C 	C 	0.56710 0.31120 0.86855 -0.12100
I 	I 	0.66734 0.55705 0.43241 -0.38200
I 	I 	0.20916 0.49121 0.96218 -0.38500
I 	I 	0.29084 0.99121 0.03782 -0.38500
I 	I 	0.93551 0.48523 0.39455 -0.36300
I 	I 	0.33266 0.94295 0.93241 -0.38200
I 	I 	0.68337 0.69489 0.69433 -0.36900
I 	I 	0.71641 0.57295 0.62769 -0.36600
I 	I 	0.43551 0.51477 0.10545 -0.36300
I 	I 	0.56449 0.98523 0.60545 -0.36300
I 	I 	0.06449 0.01477 0.89455 -0.36200
I 	I 	0.28359 0.92705 0.12769 -0.36700
I 	I 	0.16734 0.44295 0.06759 -0.38200
I 	I 	0.17641 0.66712 0.17455 -0.37000
I 	I 	0.81663 0.19489 0.30567 -0.37000
I 	I 	0.18337 0.30511 0.80567 -0.36900
I 	I 	0.78359 0.07295 0.37231 -0.36700
I 	I 	0.83266 0.05705 0.56759 -0.38300
I 	I 	0.21641 0.42705 0.87231 -0.36700
I 	I 	0.31663 0.80511 0.19433 -0.36900
I 	I 	0.79084 0.00879 0.46218 -0.38500
I 	I 	0.32359 0.16712 0.82545 -0.37100
I 	I 	0.67641 0.33288 0.32545 -0.37100
I 	I 	0.70916 0.50879 0.53782 -0.38500
I 	I 	0.82359 0.83288 0.67455 -0.37000
N 	N 	0.56860 0.28540 0.63134 -0.14000
N 	N 	0.02070 0.62730 0.56124 -0.13700
N 	N 	0.40500 0.03990 0.10728 -0.27000
N 	N 	0.43140 0.21460 0.13134 -0.14000
N 	N 	0.49760 0.55590 0.58031 -0.27700
N 	N 	0.08250 0.93880 0.96298 -0.27200
N 	N 	0.83530 0.90850 0.04242 -0.14300
N 	N 	0.83310 0.86880 0.08878 -0.13300
N 	N 	0.41730 0.29120 0.84571 -0.27700
N 	N 	0.00240 0.05590 0.41969 -0.27700
N 	N 	0.58250 0.06120 0.53702 -0.27100
N 	N 	0.91750 0.56120 0.46298 -0.27100
N 	N 	0.16470 0.59150 0.54242 -0.14300
N 	N 	0.41990 0.26480 0.77650 -0.27100
N 	N 	0.53430 0.23860 0.67362 -0.14100
N 	N 	0.90500 0.96010 0.39272 -0.27000
N 	N 	0.58270 0.20880 0.34571 -0.27700
N 	N 	0.16690 0.63120 0.58878 -0.13300
N 	N 	0.08010 0.76480 0.22350 -0.27100
N 	N 	0.66690 0.36880 0.91122 -0.13300
N 	N 	0.89070 0.61420 0.40210 -0.27000
N 	N 	0.52070 0.37270 0.93876 -0.13700
N 	N 	0.60930 0.11420 0.59790 -0.27000
N 	N 	0.96880 0.82330 0.32347 -0.14000
N 	N 	0.58010 0.23520 0.27650 -0.27100
N 	N 	0.41750 0.43880 0.03702 -0.27100
N 	N 	0.03120 0.67670 0.82347 -0.14000
N 	N 	0.33310 0.13120 0.41122 -0.13300
N 	N 	0.59500 0.46010 0.60728 -0.27000
N 	N 	0.46880 0.17670 0.17653 -0.14000
N 	N 	0.09500 0.53990 0.89272 -0.27000
N 	N 	0.53120 0.32330 0.67653 -0.14000
N 	N 	0.66470 0.40850 0.95758 -0.14300
N 	N 	0.47930 0.12730 0.43876 -0.13700
N 	N 	0.08270 0.79120 0.15429 -0.27600
N 	N 	0.91990 0.73520 0.72350 -0.27000
N 	N 	0.46570 0.26140 0.17362 -0.14100
N 	N 	0.33530 0.09150 0.45758 -0.14300
N 	N 	0.93140 0.78540 0.36866 -0.14000
N 	N 	0.06860 0.71460 0.86866 -0.14000
N 	N 	0.39070 0.38580 0.09790 -0.27000
N 	N 	0.10930 0.88580 0.90210 -0.27000
N 	N 	0.03430 0.76140 0.82638 -0.14100
N 	N 	0.50240 0.94410 0.08031 -0.27700
N 	N 	0.96570 0.73860 0.32638 -0.14100
N 	N 	0.91730 0.70880 0.65429 -0.27500
N 	N 	0.99760 0.44410 0.91969 -0.27700
N 	N 	0.97930 0.87270 0.06124 -0.13700
