data_crystal

_cell_length_a 13.79810
_cell_length_b 27.67750
_cell_length_c 44.34150
_cell_angle_alpha 90.00000
_cell_angle_beta  90.00000
_cell_angle_gamma 90.00000

_symmetry_space_group_name_	'P 1'
_symmetry_space_group_name_H-M	'P 1'

loop_
_symmetry_equiv_pos_as_xyz
  x,y,z

loop_
_atom_site_label
_atom_site_type_symbol
_atom_site_fract_x
_atom_site_fract_y
_atom_site_fract_z
_atom_site_charge
Zn	Zn	0.37000 0.47915 0.08295 1.18000
Zn	Zn	0.65692 0.54634 0.58328 1.17900
Zn	Zn	0.34259 0.75208 0.82086 1.18000
Zn	Zn	0.63000 0.02085 0.58295 1.18000
Zn	Zn	0.84308 0.04634 0.41672 1.17900
Zn	Zn	0.34308 0.95366 0.08328 1.17900
Zn	Zn	0.13000 0.97915 0.91705 1.18000
Zn	Zn	0.15692 0.45366 0.91672 1.17900
Zn	Zn	0.15741 0.25208 0.17914 1.18000
Zn	Zn	0.87000 0.52085 0.41705 1.18000
Zn	Zn	0.65741 0.74792 0.32086 1.18000
Zn	Zn	0.84259 0.24792 0.67914 1.18000
H 	H 	0.36600 0.68360 0.37350 0.08100
H 	H 	0.48580 0.07990 0.61550 0.00400
H 	H 	0.95980 0.15050 0.33330 0.08300
H 	H 	0.67500 0.39050 0.10900 0.09800
H 	H 	0.98900 0.96890 0.96700 0.00000
H 	H 	0.60300 0.72490 0.58910 0.08600
H 	H 	0.04590 0.19420 0.22450 0.00300
H 	H 	0.95850 0.15430 0.76800 0.08400
H 	H 	0.11690 0.36710 0.09520 0.08800
H 	H 	0.45980 0.84950 0.16670 0.08200
H 	H 	0.89450 0.41370 0.43050 -0.00300
H 	H 	0.39910 0.83380 0.78080 -0.01100
H 	H 	0.01420 0.57990 0.38450 0.00300
H 	H 	0.46160 0.52970 0.55740 -0.01100
H 	H 	0.95200 0.41570 0.32840 0.07500
H 	H 	0.57610 0.58130 0.64070 -0.00800
H 	H 	0.45410 0.69420 0.77550 0.00200
H 	H 	0.79860 0.06700 0.48150 -0.00900
H 	H 	0.91220 0.34350 0.40780 0.07900
H 	H 	0.98580 0.92010 0.88450 0.00300
H 	H 	0.50800 0.70180 0.72720 0.08400
H 	H 	0.99200 0.20180 0.27280 0.08200
H 	H 	0.92890 0.48750 0.35480 0.00000
H 	H 	0.63400 0.81640 0.87350 0.08000
H 	H 	0.41220 0.65650 0.09220 0.07900
H 	H 	0.10090 0.33380 0.21920 -0.01100
H 	H 	0.04500 0.21970 0.66580 -0.00200
H 	H 	0.45200 0.58430 0.17160 0.07500
H 	H 	0.20140 0.43300 0.98150 -0.00900
H 	H 	0.07110 0.01250 0.85480 0.00000
H 	H 	0.32500 0.10950 0.60900 0.09700
H 	H 	0.42890 0.51250 0.14520 0.00000
H 	H 	0.51420 0.42010 0.11550 0.00300
H 	H 	0.82500 0.89050 0.89100 0.09700
H 	H 	0.45500 0.71970 0.33420 -0.00200
H 	H 	0.95410 0.30580 0.72450 0.00200
H 	H 	0.86600 0.31640 0.12650 0.07900
H 	H 	0.17550 0.55360 0.47610 0.09600
H 	H 	0.49200 0.79820 0.22720 0.08400
H 	H 	0.48900 0.03110 0.53300 -0.00100
H 	H 	0.95500 0.28030 0.16580 -0.00200
H 	H 	0.45850 0.84570 0.73200 0.08300
H 	H 	0.19630 0.33210 0.13320 0.01000
H 	H 	0.54590 0.80580 0.27550 0.00200
H 	H 	0.57110 0.98750 0.64520 0.00000
H 	H 	0.32450 0.05360 0.52390 0.09600
H 	H 	0.54500 0.78030 0.83420 -0.00200
H 	H 	0.13930 0.34960 0.93190 -0.02800
H 	H 	0.00800 0.29820 0.77280 0.08300
H 	H 	0.67550 0.44640 0.02390 0.09600
H 	H 	0.54150 0.65430 0.23200 0.08300
H 	H 	0.38310 0.86710 0.90480 0.08800
H 	H 	0.04020 0.34950 0.83330 0.08200
H 	H 	0.63930 0.65040 0.56810 -0.02800
H 	H 	0.88310 0.13290 0.59520 0.08800
H 	H 	0.37290 0.90960 0.97460 0.08600
H 	H 	0.04150 0.34570 0.26800 0.08300
H 	H 	0.39450 0.58630 0.06950 -0.00300
H 	H 	0.01100 0.53110 0.46700 -0.00100
H 	H 	0.80370 0.16790 0.63320 0.01000
H 	H 	0.54020 0.65050 0.66670 0.08200
H 	H 	0.12720 0.05200 0.48550 0.09700
H 	H 	0.10550 0.08630 0.93050 -0.00300
H 	H 	0.86070 0.15040 0.43190 -0.02800
H 	H 	0.07610 0.41870 0.85930 -0.00800
H 	H 	0.96160 0.47030 0.94260 -0.01100
H 	H 	0.10300 0.27510 0.91090 0.08500
H 	H 	0.60550 0.91370 0.56950 -0.00300
H 	H 	0.30370 0.83210 0.86680 0.01000
H 	H 	0.12710 0.40960 0.02540 0.08600
H 	H 	0.42390 0.91870 0.14070 -0.00800
H 	H 	0.39700 0.77510 0.08910 0.08500
H 	H 	0.69630 0.66790 0.36680 0.01000
H 	H 	0.54800 0.91570 0.67160 0.07500
H 	H 	0.17500 0.60950 0.39100 0.09700
H 	H 	0.08780 0.15650 0.90780 0.07900
H 	H 	0.03840 0.02970 0.44260 -0.01100
H 	H 	0.87280 0.44800 0.98550 0.09600
H 	H 	0.37280 0.55200 0.51450 0.09600
H 	H 	0.53840 0.97030 0.05740 -0.01100
H 	H 	0.04800 0.08430 0.82840 0.07500
H 	H 	0.61690 0.63290 0.40480 0.08800
H 	H 	0.89700 0.22490 0.41090 0.08500
H 	H 	0.70140 0.56700 0.51850 -0.00900
H 	H 	0.92390 0.08130 0.35930 -0.00800
H 	H 	0.58780 0.84350 0.59220 0.08000
H 	H 	0.89910 0.16620 0.71920 -0.01100
H 	H 	0.82450 0.94640 0.97610 0.09600
H 	H 	0.13400 0.18360 0.62650 0.08000
H 	H 	0.29860 0.93300 0.01850 -0.00900
H 	H 	0.62710 0.59040 0.47460 0.08600
H 	H 	0.87290 0.09040 0.52540 0.08600
H 	H 	0.36070 0.84960 0.06810 -0.02800
H 	H 	0.60090 0.66620 0.28080 -0.01100
H 	H 	0.51100 0.46890 0.03300 -0.00100
H 	H 	0.62720 0.94800 0.01450 0.09600
C 	C 	0.69270 0.41800 0.06710 0.04700
C 	C 	0.51650 0.84620 0.89450 0.06200
C 	C 	0.49420 0.54310 0.54040 0.07100
C 	C 	0.70220 0.90300 0.93710 0.10300
C 	C 	0.05530 0.25790 0.85180 0.09700
C 	C 	0.44130 0.55530 0.51470 -0.13000
C 	C 	0.98030 0.27880 0.30790 0.09600
C 	C 	0.56370 0.86990 0.63550 0.04200
C 	C 	0.51150 0.79590 0.85020 0.07400
C 	C 	0.43980 0.58530 0.15050 -0.09900
C 	C 	0.90510 0.41370 0.40940 0.07300
C 	C 	0.93980 0.41470 0.34950 -0.09900
C 	C 	0.91920 0.15170 0.60920 -0.11500
C 	C 	0.01650 0.15380 0.60550 0.06200
C 	C 	0.30730 0.08200 0.56710 0.04700
C 	C 	0.64500 0.44060 0.04270 -0.12000
C 	C 	0.42890 0.80240 0.13170 0.05500
C 	C 	0.57830 0.69300 0.26940 0.07400
C 	C 	0.42550 0.54240 0.13480 0.05700
C 	C 	0.85570 0.90830 0.90670 -0.11400
C 	C 	0.95350 0.95420 0.95110 0.07700
C 	C 	0.04670 0.22500 0.23390 0.06900
C 	C 	0.56020 0.91470 0.65050 -0.09900
C 	C 	0.59860 0.69620 0.60080 -0.13600
C 	C 	0.57110 0.69760 0.63170 0.05500
C 	C 	0.40140 0.80380 0.10080 -0.13600
C 	C 	0.08330 0.12760 0.89630 -0.11100
C 	C 	0.48840 0.57170 0.49030 0.06400
C 	C 	0.48350 0.65380 0.39450 0.06200
C 	C 	0.43420 0.58880 0.46230 0.10300
C 	C 	0.94130 0.44470 0.98530 -0.13000
C 	C 	0.48030 0.72120 0.19210 0.09700
C 	C 	0.91670 0.37240 0.39630 -0.11100
C 	C 	0.14500 0.55940 0.45730 -0.12000
C 	C 	0.85500 0.94060 0.95730 -0.12000
C 	C 	0.11870 0.34870 0.91150 0.10900
C 	C 	0.08250 0.38840 0.86920 0.06900
C 	C 	0.19270 0.58200 0.43290 0.04700
C 	C 	0.44810 0.67670 0.15050 0.11000
C 	C 	0.54670 0.77500 0.26610 0.07100
C 	C 	0.55870 0.94470 0.01470 -0.13100
C 	C 	0.43870 0.84770 0.14640 -0.12000
C 	C 	0.90140 0.19620 0.39920 -0.13600
C 	C 	0.13280 0.43510 0.98230 0.09800
C 	C 	0.98350 0.34620 0.10550 0.06000
C 	C 	0.44470 0.75790 0.14820 0.09800
C 	C 	0.01970 0.22120 0.80790 0.09600
C 	C 	0.56550 0.81920 0.87290 -0.11300
C 	C 	0.20220 0.09700 0.56290 0.10300
C 	C 	0.95570 0.18580 0.75960 -0.12200
C 	C 	0.98530 0.27070 0.76210 -0.11800
C 	C 	0.59100 0.57800 0.49120 -0.13400
C 	C 	0.98850 0.29590 0.14980 0.07200
C 	C 	0.36720 0.93510 0.01770 0.09800
C 	C 	0.38130 0.84870 0.08850 0.10900
C 	C 	0.45350 0.04580 0.54890 0.07700
C 	C 	0.09860 0.30380 0.89920 -0.13600
C 	C 	0.56130 0.65230 0.64640 -0.12000
C 	C 	0.54650 0.45420 0.04890 0.07700
C 	C 	0.98510 0.22510 0.77590 0.06000
C 	C 	0.43630 0.63010 0.13550 0.04200
C 	C 	0.06020 0.08530 0.84950 -0.09900
C 	C 	0.58080 0.65170 0.39080 -0.11500
C 	C 	0.37110 0.82630 0.86920 0.06900
C 	C 	0.93420 0.41120 0.03770 0.10300
C 	C 	0.58330 0.87240 0.60370 -0.11100
C 	C 	0.43450 0.68080 0.37290 -0.11300
C 	C 	0.41750 0.88840 0.13080 0.06900
C 	C 	0.51490 0.72510 0.22410 0.06000
C 	C 	0.41670 0.62760 0.10370 -0.11100
C 	C 	0.79780 0.40300 0.06290 0.10300
C 	C 	0.04430 0.31420 0.25960 -0.12200
C 	C 	0.09490 0.08630 0.90940 0.07300
C 	C 	0.45330 0.72500 0.76610 0.07100
C 	C 	0.95330 0.27500 0.73390 0.07000
C 	C 	0.56580 0.91120 0.96230 0.10300
C 	C 	0.94470 0.24210 0.35180 0.09700
C 	C 	0.93210 0.37240 0.08150 0.10800
C 	C 	0.99420 0.45690 0.95960 0.07100
C 	C 	0.50580 0.95690 0.04040 0.07100
C 	C 	0.04670 0.57470 0.40310 0.06600
C 	C 	0.29780 0.59700 0.43710 0.10300
C 	C 	0.54430 0.68580 0.24040 -0.12200
C 	C 	0.06790 0.12760 0.58150 0.10800
C 	C 	0.05870 0.05530 0.48530 -0.13100
C 	C 	0.63280 0.56490 0.51770 0.09800
C 	C 	0.07110 0.30240 0.86830 0.05500
C 	C 	0.48510 0.77490 0.72410 0.06000
C 	C 	0.61870 0.65130 0.58850 0.10900
C 	C 	0.06580 0.08880 0.53770 0.10300
C 	C 	0.59490 0.91370 0.59060 0.07400
C 	C 	0.93450 0.31920 0.12710 -0.11100
C 	C 	0.55530 0.74210 0.64820 0.09800
C 	C 	0.09100 0.42200 0.00880 -0.13400
C 	C 	0.35570 0.09170 0.59330 -0.11400
C 	C 	0.90900 0.07800 0.50880 -0.13600
C 	C 	0.07830 0.30700 0.23060 0.07400
C 	C 	0.06130 0.34770 0.85360 -0.12000
C 	C 	0.57450 0.95760 0.63480 0.05700
C 	C 	0.07450 0.04240 0.86520 0.05700
C 	C 	0.95330 0.92530 0.90310 0.06600
C 	C 	0.80730 0.91800 0.93290 0.04700
C 	C 	0.86720 0.06490 0.48230 0.09900
C 	C 	0.51970 0.77880 0.69210 0.09700
C 	C 	0.92550 0.45760 0.36520 0.05700
C 	C 	0.51160 0.92830 0.99030 0.06400
C 	C 	0.55190 0.82330 0.65050 0.11000
C 	C 	0.56790 0.87240 0.91850 0.10800
C 	C 	0.88130 0.15130 0.41150 0.10900
C 	C 	0.01490 0.27490 0.27590 0.06000
C 	C 	0.93870 0.15230 0.35360 -0.12000
C 	C 	0.92170 0.19300 0.73060 0.07400
C 	C 	0.01160 0.07170 0.50970 0.06500
C 	C 	0.06370 0.13010 0.86450 0.04100
C 	C 	0.91750 0.11160 0.36920 0.06900
C 	C 	0.62890 0.67370 0.36920 0.06900
C 	C 	0.58250 0.61160 0.63080 0.06900
C 	C 	0.40900 0.92200 0.99120 -0.13400
C 	C 	0.08080 0.34830 0.10920 -0.11200
C 	C 	0.43210 0.62760 0.41850 0.10800
C 	C 	0.14430 0.59170 0.40670 -0.11400
C 	C 	0.93630 0.36990 0.36450 0.04100
C 	C 	0.45570 0.81420 0.74040 -0.12200
C 	C 	0.54670 0.42530 0.09690 0.06600
C 	C 	0.35500 0.05940 0.54270 -0.12000
C 	C 	0.12890 0.32630 0.13080 0.06700
C 	C 	0.04650 0.54580 0.45110 0.07700
C 	C 	0.06550 0.18080 0.62710 -0.11200
C 	C 	0.48530 0.72930 0.73790 -0.11900
C 	C 	0.45330 0.07470 0.59690 0.06600
C 	C 	0.01150 0.20410 0.64980 0.07400
C 	C 	0.48850 0.70410 0.35020 0.07400
C 	C 	0.01470 0.22930 0.26210 -0.11600
C 	C 	0.40510 0.58630 0.09060 0.07400
C 	C 	0.64430 0.40830 0.09330 -0.11400
C 	C 	0.41920 0.84830 0.89080 -0.11500
C 	C 	0.05190 0.17670 0.84950 0.11000
C 	C 	0.92890 0.19760 0.36830 0.05500
C 	C 	0.94810 0.32330 0.34950 0.11000
C 	C 	0.87110 0.17370 0.63080 0.06800
C 	C 	0.42170 0.80700 0.76940 0.07400
C 	C 	0.51470 0.77070 0.23790 -0.11900
C 	C 	0.00580 0.04310 0.45960 0.07200
C 	C 	0.98840 0.42830 0.00970 0.06300
I 	I 	0.41798 0.01433 0.11219 -0.39700
I 	I 	0.78995 0.56936 0.38150 -0.41000
I 	I 	0.81439 0.71601 0.31497 -0.41600
I 	I 	0.19611 0.99981 0.96460 -0.43000
I 	I 	0.28995 0.43064 0.11850 -0.40900
I 	I 	0.86110 0.32850 0.66325 -0.40600
I 	I 	0.31439 0.28399 0.18503 -0.41600
I 	I 	0.82466 0.55512 0.57655 -0.42000
I 	I 	0.13890 0.17150 0.16325 -0.40600
I 	I 	0.58202 0.48567 0.61219 -0.39700
I 	I 	0.67534 0.05512 0.42345 -0.42100
I 	I 	0.32466 0.44488 0.92345 -0.42000
I 	I 	0.17534 0.94488 0.07655 -0.42100
I 	I 	0.36110 0.67150 0.83675 -0.40600
I 	I 	0.80389 0.50019 0.46460 -0.43000
I 	I 	0.69611 0.00019 0.53540 -0.43000
I 	I 	0.71005 0.06936 0.61850 -0.40900
I 	I 	0.30389 0.49981 0.03540 -0.43000
I 	I 	0.21005 0.93064 0.88150 -0.41000
I 	I 	0.68561 0.21601 0.68503 -0.41600
I 	I 	0.18561 0.78399 0.81497 -0.41700
I 	I 	0.91798 0.98567 0.38781 -0.39700
I 	I 	0.08202 0.51433 0.88781 -0.39800
I 	I 	0.63890 0.82850 0.33675 -0.40600
N 	N 	0.88790 0.11190 0.39780 -0.27600
N 	N 	0.91990 0.23670 0.71830 -0.26600
N 	N 	0.91740 0.20480 0.64960 -0.26800
N 	N 	0.06670 0.21510 0.86590 -0.14000
N 	N 	0.66010 0.92010 0.96130 -0.14800
N 	N 	0.09320 0.04260 0.89510 -0.25900
N 	N 	0.97250 0.32360 0.32010 -0.13700
N 	N 	0.93330 0.28490 0.36590 -0.14000
N 	N 	0.33620 0.62220 0.41520 -0.13500
N 	N 	0.52750 0.82360 0.67990 -0.13700
N 	N 	0.09060 0.45010 0.95820 -0.27700
N 	N 	0.66380 0.87780 0.91520 -0.13500
N 	N 	0.00120 0.55200 0.42520 -0.27000
N 	N 	0.56670 0.78490 0.63410 -0.14000
N 	N 	0.47070 0.76350 0.17750 -0.13600
N 	N 	0.97070 0.23650 0.32250 -0.13600
N 	N 	0.99880 0.94800 0.92520 -0.26900
N 	N 	0.33990 0.57990 0.46130 -0.14800
N 	N 	0.59320 0.95740 0.60490 -0.25900
N 	N 	0.58010 0.73670 0.28170 -0.26600
N 	N 	0.58260 0.70480 0.35040 -0.26900
N 	N 	0.08010 0.26330 0.21830 -0.26600
N 	N 	0.83990 0.42010 0.03870 -0.14800
N 	N 	0.48300 0.61230 0.44220 -0.14100
N 	N 	0.16380 0.12220 0.58480 -0.13600
N 	N 	0.59060 0.54990 0.54180 -0.27700
N 	N 	0.52930 0.73650 0.67750 -0.13600
N 	N 	0.47250 0.67640 0.17990 -0.13700
N 	N 	0.83620 0.37780 0.08480 -0.13600
N 	N 	0.43330 0.71510 0.13410 -0.14000
N 	N 	0.51700 0.88770 0.94220 -0.14100
N 	N 	0.40680 0.54260 0.10490 -0.25900
N 	N 	0.02750 0.17640 0.82010 -0.13700
N 	N 	0.11210 0.38810 0.89780 -0.27600
N 	N 	0.41740 0.79520 0.85040 -0.26900
N 	N 	0.61210 0.61190 0.60220 -0.27600
N 	N 	0.16010 0.07990 0.53870 -0.14800
N 	N 	0.08260 0.29520 0.14960 -0.26800
N 	N 	0.41990 0.76330 0.78170 -0.26600
N 	N 	0.50120 0.44800 0.07480 -0.27000
N 	N 	0.90680 0.45740 0.39510 -0.25900
N 	N 	0.90940 0.04990 0.45820 -0.27800
N 	N 	0.38790 0.88810 0.10220 -0.27600
N 	N 	0.40940 0.95010 0.04180 -0.27700
N 	N 	0.02930 0.26350 0.82250 -0.13600
N 	N 	0.01700 0.11230 0.55780 -0.14100
N 	N 	0.49880 0.05200 0.57480 -0.27000
N 	N 	0.98300 0.38770 0.05780 -0.14100
Zn	Zn	0.15741 0.75208 0.32086 1.17900
Zn	Zn	0.65692 0.04634 0.91672 1.17800
Zn	Zn	0.15692 0.95366 0.58328 1.17800
Zn	Zn	0.34259 0.25208 0.67914 1.17900
Zn	Zn	0.84259 0.74792 0.82086 1.17900
Zn	Zn	0.63000 0.52085 0.91705 1.17900
Zn	Zn	0.34308 0.45366 0.41672 1.17800
Zn	Zn	0.37000 0.97915 0.41705 1.17900
Zn	Zn	0.13000 0.47915 0.58295 1.17900
Zn	Zn	0.87000 0.02085 0.08295 1.17900
Zn	Zn	0.65741 0.24792 0.17914 1.17900
Zn	Zn	0.84308 0.54634 0.08328 1.17800
H 	H 	0.61690 0.13290 0.09520 0.08800
H 	H 	0.60090 0.16620 0.21920 -0.01100
H 	H 	0.57110 0.48750 0.85480 0.00000
H 	H 	0.10550 0.58630 0.56950 -0.00300
H 	H 	0.17500 0.10950 0.10900 0.09700
H 	H 	0.62720 0.44800 0.48550 0.09600
H 	H 	0.45410 0.19420 0.72450 0.00200
H 	H 	0.00800 0.79820 0.72720 0.08200
H 	H 	0.62710 0.09040 0.02540 0.08600
H 	H 	0.29860 0.43300 0.48150 -0.00900
H 	H 	0.79860 0.56700 0.01850 -0.00900
H 	H 	0.12720 0.55200 0.01450 0.09600
H 	H 	0.10090 0.83380 0.28080 -0.01100
H 	H 	0.54020 0.15050 0.83330 0.08200
H 	H 	0.54150 0.15430 0.26800 0.08300
H 	H 	0.03840 0.52970 0.05740 -0.01100
H 	H 	0.89700 0.72490 0.08910 0.08500
H 	H 	0.32500 0.60950 0.89100 0.09700
H 	H 	0.69630 0.16790 0.13320 0.01000
H 	H 	0.01100 0.03110 0.03300 -0.00100
H 	H 	0.41220 0.15650 0.40780 0.08000
H 	H 	0.88310 0.63290 0.90480 0.08800
H 	H 	0.89910 0.66620 0.78080 -0.01100
H 	H 	0.39910 0.33380 0.71920 -0.01100
H 	H 	0.51100 0.96890 0.46700 -0.00100
H 	H 	0.54590 0.30580 0.22450 0.00200
H 	H 	0.51420 0.92010 0.38450 0.00300
H 	H 	0.57610 0.08130 0.85930 -0.00800
H 	H 	0.99200 0.70180 0.22720 0.08300
H 	H 	0.91220 0.84350 0.09220 0.07900
H 	H 	0.37280 0.05200 0.98550 0.09600
H 	H 	0.95500 0.78030 0.33420 -0.00200
H 	H 	0.60550 0.41370 0.93050 -0.00300
H 	H 	0.48900 0.53110 0.96700 -0.00100
H 	H 	0.04500 0.71970 0.83420 -0.00200
H 	H 	0.60300 0.22490 0.91090 0.08500
H 	H 	0.19630 0.83210 0.36680 0.01000
H 	H 	0.20140 0.93300 0.51850 -0.00900
H 	H 	0.36600 0.18360 0.12650 0.08000
H 	H 	0.70140 0.06700 0.98150 -0.00900
H 	H 	0.92890 0.98750 0.14520 0.00000
H 	H 	0.96160 0.97030 0.55740 -0.01100
H 	H 	0.36070 0.34960 0.43190 -0.02800
H 	H 	0.38310 0.36710 0.59520 0.08800
H 	H 	0.17550 0.05360 0.02390 0.09600
H 	H 	0.01420 0.07990 0.11550 0.00300
H 	H 	0.54800 0.41570 0.82840 0.07500
H 	H 	0.46160 0.02970 0.94260 -0.01100
H 	H 	0.13930 0.84960 0.56810 -0.02800
H 	H 	0.87280 0.94800 0.51450 0.09700
H 	H 	0.45980 0.34950 0.33330 0.08200
H 	H 	0.95410 0.80580 0.77550 0.00200
H 	H 	0.42390 0.41870 0.35930 -0.00800
H 	H 	0.39700 0.27510 0.41090 0.08500
H 	H 	0.86070 0.65040 0.06810 -0.02800
H 	H 	0.87290 0.59040 0.97460 0.08600
H 	H 	0.89450 0.91370 0.06950 -0.00300
H 	H 	0.45850 0.34570 0.76800 0.08300
H 	H 	0.04150 0.84570 0.23200 0.08300
H 	H 	0.30370 0.33210 0.63320 0.01000
H 	H 	0.98580 0.42010 0.61550 0.00300
H 	H 	0.53840 0.47030 0.44260 -0.01100
H 	H 	0.67500 0.89050 0.39100 0.09700
H 	H 	0.42890 0.01250 0.35480 0.00000
H 	H 	0.63400 0.31640 0.62650 0.08000
H 	H 	0.07110 0.51250 0.64520 0.00000
H 	H 	0.12710 0.90960 0.47460 0.08600
H 	H 	0.13400 0.68360 0.87350 0.07900
H 	H 	0.04020 0.84950 0.66670 0.08200
H 	H 	0.07610 0.91870 0.64070 -0.00800
H 	H 	0.48580 0.57990 0.88450 0.00300
H 	H 	0.45500 0.21970 0.16580 -0.00200
H 	H 	0.39450 0.08630 0.43050 -0.00300
H 	H 	0.86600 0.81640 0.37350 0.08000
H 	H 	0.95200 0.91570 0.17160 0.07500
H 	H 	0.10300 0.77510 0.58910 0.08500
H 	H 	0.37290 0.40960 0.52540 0.08600
H 	H 	0.58780 0.34350 0.90780 0.07900
H 	H 	0.45200 0.08430 0.32840 0.07500
H 	H 	0.63930 0.15040 0.93190 -0.02800
H 	H 	0.04590 0.69420 0.27550 0.00200
H 	H 	0.54500 0.28030 0.66580 -0.00200
H 	H 	0.98900 0.46890 0.53300 -0.00100
H 	H 	0.50800 0.20180 0.77280 0.08400
H 	H 	0.32450 0.55360 0.97610 0.09600
H 	H 	0.67550 0.94640 0.47610 0.09600
H 	H 	0.95980 0.65050 0.16670 0.08200
H 	H 	0.08780 0.65650 0.59220 0.07900
H 	H 	0.80370 0.66790 0.86680 0.01000
H 	H 	0.82450 0.44640 0.52390 0.09600
H 	H 	0.49200 0.29820 0.27280 0.08400
H 	H 	0.11690 0.86710 0.40480 0.08800
H 	H 	0.82500 0.39050 0.60900 0.09700
H 	H 	0.04800 0.58430 0.67160 0.07500
H 	H 	0.95850 0.65430 0.73200 0.08300
H 	H 	0.92390 0.58130 0.14070 -0.00800
C 	C 	0.98850 0.79590 0.35020 0.07400
C 	C 	0.04670 0.72500 0.26610 0.07000
C 	C 	0.45350 0.54580 0.95110 0.07700
C 	C 	0.40900 0.42200 0.50880 -0.13400
C 	C 	0.93450 0.81920 0.37290 -0.11200
C 	C 	0.55190 0.32330 0.84950 0.11000
C 	C 	0.45330 0.57470 0.90310 0.06600
C 	C 	0.50580 0.45690 0.45960 0.07100
C 	C 	0.91920 0.65170 0.89080 -0.11200
C 	C 	0.11870 0.84870 0.58850 0.10900
C 	C 	0.19270 0.08200 0.06710 0.04700
C 	C 	0.79780 0.90300 0.43710 0.10300
C 	C 	0.95350 0.45420 0.54890 0.07700
C 	C 	0.48840 0.07170 0.00970 0.06400
C 	C 	0.09860 0.80380 0.60080 -0.13600
C 	C 	0.37110 0.32630 0.63080 0.06900
C 	C 	0.51970 0.27880 0.80790 0.09700
C 	C 	0.54430 0.18580 0.25960 -0.12200
C 	C 	0.90140 0.69620 0.10080 -0.13600
C 	C 	0.48530 0.22930 0.76210 -0.11900
C 	C 	0.61870 0.15130 0.91150 0.10900
C 	C 	0.57110 0.19760 0.86830 0.05500
C 	C 	0.06020 0.58530 0.65050 -0.09900
C 	C 	0.94810 0.82330 0.15050 0.11000
C 	C 	0.43980 0.08530 0.34950 -0.09900
C 	C 	0.45570 0.31420 0.75960 -0.12200
C 	C 	0.95330 0.77500 0.76610 0.06900
C 	C 	0.35570 0.59170 0.90670 -0.11400
C 	C 	0.93210 0.87240 0.41850 0.10800
C 	C 	0.30730 0.58200 0.93290 0.04700
C 	C 	0.51490 0.22510 0.27590 0.06000
C 	C 	0.06550 0.68080 0.87290 -0.11100
C 	C 	0.59100 0.07800 0.00880 -0.13400
C 	C 	0.57450 0.45760 0.86520 0.05700
C 	C 	0.54650 0.95420 0.45110 0.07700
C 	C 	0.06580 0.58880 0.96230 0.10300
C 	C 	0.09100 0.92200 0.49120 -0.13600
C 	C 	0.54670 0.92530 0.40310 0.06600
C 	C 	0.85500 0.44060 0.54270 -0.12000
C 	C 	0.56370 0.36990 0.86450 0.04200
C 	C 	0.58330 0.37240 0.89630 -0.11100
C 	C 	0.01970 0.72120 0.69210 0.09600
C 	C 	0.93630 0.86990 0.13550 0.04100
C 	C 	0.56130 0.15230 0.85360 -0.12000
C 	C 	0.41920 0.34830 0.60920 -0.11500
C 	C 	0.58080 0.15170 0.10920 -0.11500
C 	C 	0.08080 0.84830 0.39080 -0.11500
C 	C 	0.90900 0.57800 0.99120 -0.13400
C 	C 	0.05870 0.55530 0.01470 -0.13000
C 	C 	0.98030 0.77880 0.19210 0.09600
C 	C 	0.43870 0.34770 0.35360 -0.12000
C 	C 	0.06370 0.63010 0.63550 0.04100
C 	C 	0.48850 0.20410 0.14980 0.07400
C 	C 	0.44810 0.17670 0.34950 0.11000
C 	C 	0.41670 0.12760 0.39630 -0.11100
C 	C 	0.44130 0.05530 0.98530 -0.13100
C 	C 	0.93980 0.91470 0.15050 -0.09900
C 	C 	0.14500 0.05940 0.04270 -0.12000
C 	C 	0.94130 0.94470 0.51470 -0.13100
C 	C 	0.92550 0.95760 0.13480 0.05700
C 	C 	0.01650 0.65380 0.89450 0.06000
C 	C 	0.08250 0.88840 0.63080 0.06900
C 	C 	0.91670 0.87240 0.10370 -0.11100
C 	C 	0.38130 0.34870 0.41150 0.10900
C 	C 	0.48030 0.22120 0.30790 0.09700
C 	C 	0.99420 0.95690 0.54040 0.07200
C 	C 	0.00580 0.54310 0.04040 0.07100
C 	C 	0.07110 0.80240 0.63170 0.05500
C 	C 	0.64430 0.90830 0.40670 -0.11400
C 	C 	0.98350 0.84620 0.39450 0.06200
C 	C 	0.09490 0.58630 0.59060 0.07300
C 	C 	0.70220 0.40300 0.56290 0.10300
C 	C 	0.92890 0.69760 0.13170 0.05500
C 	C 	0.07450 0.54240 0.63480 0.05700
C 	C 	0.01150 0.70410 0.85020 0.07200
C 	C 	0.36720 0.43510 0.48230 0.09800
C 	C 	0.42890 0.30240 0.36830 0.05500
C 	C 	0.91750 0.61160 0.13080 0.06900
C 	C 	0.58250 0.11160 0.86920 0.06900
C 	C 	0.90510 0.91370 0.09060 0.07300
C 	C 	0.56020 0.41470 0.84950 -0.09900
C 	C 	0.51160 0.42830 0.50970 0.06400
C 	C 	0.63280 0.06490 0.98230 0.09800
C 	C 	0.01490 0.77490 0.22410 0.06000
C 	C 	0.98840 0.92830 0.49030 0.06500
C 	C 	0.43420 0.08880 0.03770 0.10300
C 	C 	0.14430 0.09170 0.09330 -0.11400
C 	C 	0.98530 0.77070 0.73790 -0.11600
C 	C 	0.06130 0.84770 0.64640 -0.12000
C 	C 	0.42170 0.30700 0.73060 0.07400
C 	C 	0.20220 0.59700 0.93710 0.10300
C 	C 	0.62890 0.17370 0.13080 0.06900
C 	C 	0.92170 0.69300 0.76940 0.07400
C 	C 	0.48510 0.27490 0.77590 0.06000
C 	C 	0.93870 0.65230 0.14640 -0.12000
C 	C 	0.88130 0.65130 0.08850 0.10900
C 	C 	0.51470 0.27070 0.26210 -0.11900
C 	C 	0.42550 0.04240 0.36520 0.05700
C 	C 	0.64500 0.94060 0.45730 -0.12000
C 	C 	0.87110 0.67370 0.86920 0.06700
C 	C 	0.40510 0.08630 0.40940 0.07400
C 	C 	0.43450 0.18080 0.12710 -0.11300
C 	C 	0.41750 0.38840 0.36920 0.06900
C 	C 	0.54670 0.27500 0.23390 0.07100
C 	C 	0.13280 0.93510 0.51770 0.09900
C 	C 	0.01470 0.72930 0.23790 -0.11800
C 	C 	0.51650 0.34620 0.60550 0.06200
C 	C 	0.06790 0.62760 0.91850 0.10800
C 	C 	0.98510 0.72510 0.72410 0.06000
C 	C 	0.01160 0.57170 0.99030 0.06300
C 	C 	0.51150 0.29590 0.64980 0.07400
C 	C 	0.95330 0.42530 0.59690 0.06600
C 	C 	0.86720 0.56490 0.01770 0.09800
C 	C 	0.56790 0.37240 0.58150 0.10800
C 	C 	0.55870 0.44470 0.48530 -0.13000
C 	C 	0.43630 0.13010 0.36450 0.04200
C 	C 	0.56580 0.41120 0.53770 0.10300
C 	C 	0.29780 0.09700 0.06290 0.10300
C 	C 	0.95570 0.68580 0.74040 -0.12200
C 	C 	0.69270 0.91800 0.43290 0.04700
C 	C 	0.45330 0.22500 0.73390 0.07100
C 	C 	0.80730 0.41800 0.56710 0.04700
C 	C 	0.48350 0.15380 0.10550 0.06200
C 	C 	0.93420 0.91120 0.46230 0.10300
C 	C 	0.85570 0.40830 0.59330 -0.11400
C 	C 	0.44470 0.25790 0.35180 0.09800
C 	C 	0.43210 0.12760 0.08150 0.10800
C 	C 	0.04670 0.07470 0.09690 0.06600
C 	C 	0.56550 0.31920 0.62710 -0.11300
C 	C 	0.40140 0.30380 0.39920 -0.13600
C 	C 	0.59860 0.19620 0.89920 -0.13600
C 	C 	0.04430 0.81420 0.24040 -0.12200
C 	C 	0.94470 0.74210 0.14820 0.09700
C 	C 	0.55530 0.24210 0.85180 0.09800
C 	C 	0.59490 0.41370 0.90940 0.07400
C 	C 	0.49420 0.04310 0.95960 0.07100
C 	C 	0.12890 0.82630 0.36920 0.06800
C 	C 	0.07830 0.80700 0.26940 0.07400
C 	C 	0.04650 0.04580 0.04890 0.07700
C 	C 	0.35500 0.55940 0.95730 -0.12000
C 	C 	0.08330 0.62760 0.60370 -0.11100
C 	C 	0.05530 0.75790 0.64820 0.09700
C 	C 	0.05190 0.67670 0.65050 0.11000
C 	C 	0.57830 0.19300 0.23060 0.07400
I 	I 	0.30389 0.99981 0.46460 -0.43000
I 	I 	0.21005 0.43064 0.61850 -0.41000
I 	I 	0.80389 0.00019 0.03540 -0.43000
I 	I 	0.32466 0.94488 0.57655 -0.42100
I 	I 	0.67534 0.55512 0.07655 -0.42000
I 	I 	0.78995 0.06936 0.11850 -0.41000
I 	I 	0.18561 0.28399 0.68503 -0.41600
I 	I 	0.63890 0.32850 0.16325 -0.40600
I 	I 	0.69611 0.50019 0.96460 -0.43000
I 	I 	0.68561 0.71601 0.81497 -0.41600
I 	I 	0.31439 0.78399 0.31497 -0.41600
I 	I 	0.81439 0.21601 0.18503 -0.41700
I 	I 	0.28995 0.93064 0.38150 -0.40900
I 	I 	0.19611 0.49981 0.53540 -0.43000
I 	I 	0.08202 0.01433 0.61219 -0.39700
I 	I 	0.36110 0.17150 0.66325 -0.40600
I 	I 	0.58202 0.98567 0.88781 -0.39700
I 	I 	0.71005 0.56936 0.88150 -0.40900
I 	I 	0.86110 0.82850 0.83675 -0.40600
I 	I 	0.17534 0.44488 0.42345 -0.42000
I 	I 	0.41798 0.51433 0.38781 -0.39700
I 	I 	0.82466 0.05512 0.92345 -0.42100
I 	I 	0.91798 0.48567 0.11219 -0.39800
I 	I 	0.13890 0.67150 0.33675 -0.40600
N 	N 	0.33620 0.12220 0.08480 -0.13500
N 	N 	0.66380 0.37780 0.58480 -0.13500
N 	N 	0.50120 0.94800 0.42520 -0.27000
N 	N 	0.09320 0.54260 0.60490 -0.25900
N 	N 	0.52930 0.23650 0.82250 -0.13600
N 	N 	0.58010 0.23670 0.21830 -0.26600
N 	N 	0.59060 0.04990 0.95820 -0.27700
N 	N 	0.08010 0.76330 0.28170 -0.26600
N 	N 	0.11210 0.88810 0.60220 -0.27600
N 	N 	0.88790 0.61190 0.10220 -0.27600
N 	N 	0.51700 0.38770 0.55780 -0.14100
N 	N 	0.98300 0.88770 0.44220 -0.14100
N 	N 	0.33990 0.07990 0.03870 -0.14800
N 	N 	0.90680 0.95740 0.10490 -0.25900
N 	N 	0.83620 0.87780 0.41520 -0.13600
N 	N 	0.09060 0.95010 0.54180 -0.27800
N 	N 	0.40940 0.45010 0.45820 -0.27700
N 	N 	0.91990 0.73670 0.78170 -0.26600
N 	N 	0.83990 0.92010 0.46130 -0.14800
N 	N 	0.41740 0.29520 0.64960 -0.26900
N 	N 	0.06670 0.71510 0.63410 -0.14000
N 	N 	0.93330 0.78490 0.13410 -0.14000
N 	N 	0.02930 0.76350 0.67750 -0.13600
N 	N 	0.90940 0.54990 0.04180 -0.27700
N 	N 	0.38790 0.38810 0.39780 -0.27600
N 	N 	0.59320 0.45740 0.89510 -0.25900
N 	N 	0.47070 0.26350 0.32250 -0.13600
N 	N 	0.40680 0.04260 0.39510 -0.25900
N 	N 	0.99880 0.44800 0.57480 -0.27000
N 	N 	0.61210 0.11190 0.89780 -0.27600
N 	N 	0.49880 0.55200 0.92520 -0.27000
N 	N 	0.52750 0.32360 0.82010 -0.13700
N 	N 	0.97250 0.82360 0.17990 -0.13700
N 	N 	0.97070 0.73650 0.17750 -0.13600
N 	N 	0.02750 0.67640 0.67990 -0.13700
N 	N 	0.66010 0.42010 0.53870 -0.14800
N 	N 	0.16010 0.57990 0.96130 -0.14800
N 	N 	0.56670 0.28490 0.86590 -0.14000
N 	N 	0.01700 0.61230 0.94220 -0.14100
N 	N 	0.08260 0.79520 0.35040 -0.26800
N 	N 	0.47250 0.17640 0.32010 -0.13700
N 	N 	0.91740 0.70480 0.85040 -0.26800
N 	N 	0.00120 0.05200 0.07480 -0.26900
N 	N 	0.58260 0.20480 0.14960 -0.26900
N 	N 	0.48300 0.11230 0.05780 -0.14100
N 	N 	0.41990 0.26330 0.71830 -0.26600
N 	N 	0.16380 0.62220 0.91520 -0.13600
N 	N 	0.43330 0.21510 0.36590 -0.14000
