data_crystal

_cell_length_a 23.11200
_cell_length_b 6.95340
_cell_length_c 22.63800
_cell_angle_alpha 90.00000
_cell_angle_beta  90.00000
_cell_angle_gamma 90.00000

_symmetry_space_group_name_	'P 1'
_symmetry_space_group_name_H-M	'P 1'

loop_
_symmetry_equiv_pos_as_xyz
  x,y,z

loop_
_atom_site_label
_atom_site_type_symbol
_atom_site_fract_x
_atom_site_fract_y
_atom_site_fract_z
_atom_site_charge
Ca	Ca	0.46847 0.93570 0.50113 1.50500
Ca	Ca	0.45707 0.56320 0.99093 1.50300
P 	P 	0.41484 0.43750 0.52588 0.46800
P 	P 	0.46557 0.91840 0.34265 0.42600
P 	P 	0.40479 0.06400 0.96294 0.45400
O 	O 	0.45130 0.61190 0.51480 -0.55000
O 	O 	0.45080 0.25860 0.51350 -0.56200
O 	O 	0.39110 0.44290 0.59080 -0.40900
H 	H 	0.38030 0.33220 0.60080 0.24800
O 	O 	0.35070 0.30270 0.30160 -0.45600
H 	H 	0.34660 0.26150 0.26690 0.29500
O 	O 	0.25300 0.31790 0.29680 -0.25400
O 	O 	0.19080 0.58170 0.55680 -0.47100
H 	H 	0.15690 0.59490 0.56940 0.28600
O 	O 	0.14510 0.56150 0.46930 -0.43200
O 	O 	0.43410 0.91360 0.40160 -0.41600
O 	O 	0.52340 0.81090 0.33990 -0.28000
O 	O 	0.47400 0.13610 0.32870 -0.42300
H 	H 	0.47630 0.15150 0.29190 0.25500
O 	O 	0.41610 0.58660 0.08700 -0.43200
O 	O 	0.48230 0.46280 0.14660 -0.27800
O 	O 	0.23940 0.81890 0.30030 -0.42700
H 	H 	0.20310 0.81130 0.30060 0.27200
O 	O 	0.23010 0.68520 0.20910 -0.23200
O 	O 	0.44000 0.23460 0.98090 -0.57200
O 	O 	0.44150 0.88390 0.97320 -0.55600
O 	O 	0.38320 0.07740 0.89740 -0.42800
H 	H 	0.41000 0.12030 0.87600 0.27600
O 	O 	0.24500 0.17320 0.18980 -0.44100
H 	H 	0.24950 0.15600 0.22620 0.29300
O 	O 	0.34210 0.20570 0.18640 -0.28900
O 	O 	0.17620 0.92610 0.93230 -0.43600
H 	H 	0.14160 0.91600 0.92130 0.26300
O 	O 	0.13460 0.95080 0.02140 -0.40600
C 	C 	0.34970 0.44020 0.48130 -0.11200
C 	C 	0.35180 0.39210 0.42140 0.04900
H 	H 	0.38730 0.35500 0.40380 0.03300
C 	C 	0.30100 0.39870 0.38750 -0.09600
C 	C 	0.30050 0.33800 0.32420 0.37000
C 	C 	0.24850 0.45000 0.41360 0.06700
H 	H 	0.21410 0.45090 0.39060 0.04900
C 	C 	0.24620 0.49980 0.47290 -0.12400
C 	C 	0.18960 0.55170 0.49890 0.41600
C 	C 	0.29750 0.49600 0.50620 0.06100
H 	H 	0.29640 0.53260 0.54660 0.05700
C 	C 	0.41930 0.81900 0.28580 -0.07200
C 	C 	0.44410 0.73600 0.23600 0.01800
H 	H 	0.48510 0.72950 0.23280 0.04600
C 	C 	0.41040 0.66300 0.19150 -0.07600
C 	C 	0.44160 0.56900 0.13840 0.32300
C 	C 	0.35080 0.67290 0.19460 0.02300
H 	H 	0.32750 0.62650 0.16310 0.06400
C 	C 	0.32450 0.75600 0.24680 -0.07200
C 	C 	0.25960 0.74800 0.24980 0.34500
C 	C 	0.35940 0.82500 0.29030 0.02600
H 	H 	0.34230 0.87740 0.32490 0.06700
C 	C 	0.33930 0.05410 0.00470 -0.04100
C 	C 	0.34120 0.09810 0.06450 0.01500
H 	H 	0.37760 0.12760 0.08180 0.02800
C 	C 	0.29200 0.10100 0.10010 -0.07500
C 	C 	0.29540 0.16600 0.16320 0.36900
C 	C 	0.23930 0.04890 0.07490 0.02600
H 	H 	0.20540 0.04600 0.09870 0.06400
C 	C 	0.23560 0.00080 0.01480 -0.04100
C 	C 	0.17790 0.95730 0.99130 0.34000
C 	C 	0.28590 0.00750 0.98030 -0.02900
H 	H 	0.28340 0.97950 0.93930 0.08700
Ca	Ca	0.53153 0.06430 0.00113 1.50900
Ca	Ca	0.54293 0.43680 0.49093 1.50700
P 	P 	0.58516 0.56250 0.02588 0.48900
P 	P 	0.53443 0.08160 0.84265 0.42700
P 	P 	0.59521 0.93600 0.46294 0.47600
O 	O 	0.54870 0.38810 0.01480 -0.54200
O 	O 	0.54920 0.74140 0.01350 -0.55400
O 	O 	0.60890 0.55710 0.09080 -0.41100
H 	H 	0.61970 0.66780 0.10080 0.25000
O 	O 	0.64930 0.69730 0.80160 -0.45900
H 	H 	0.65340 0.73850 0.76690 0.29600
O 	O 	0.74700 0.68210 0.79680 -0.25700
O 	O 	0.80920 0.41830 0.05680 -0.45700
H 	H 	0.84310 0.40510 0.06940 0.28500
O 	O 	0.85490 0.43850 0.96930 -0.43600
O 	O 	0.56590 0.08640 0.90160 -0.41900
O 	O 	0.47660 0.18910 0.83990 -0.28100
O 	O 	0.52600 0.86390 0.82870 -0.42400
H 	H 	0.52370 0.84850 0.79190 0.25500
O 	O 	0.58390 0.41340 0.58700 -0.43800
O 	O 	0.51770 0.53720 0.64660 -0.27900
O 	O 	0.76060 0.18110 0.80030 -0.42800
H 	H 	0.79690 0.18870 0.80060 0.27200
O 	O 	0.76990 0.31480 0.70910 -0.23200
O 	O 	0.56000 0.76540 0.48090 -0.56500
O 	O 	0.55850 0.11610 0.47320 -0.55000
O 	O 	0.61680 0.92260 0.39740 -0.42900
H 	H 	0.59000 0.87970 0.37600 0.27600
O 	O 	0.75500 0.82680 0.68980 -0.44500
H 	H 	0.75050 0.84400 0.72620 0.29400
O 	O 	0.65790 0.79430 0.68640 -0.29300
O 	O 	0.82380 0.07390 0.43230 -0.45300
H 	H 	0.85840 0.08400 0.42130 0.27100
O 	O 	0.86540 0.04920 0.52140 -0.44000
C 	C 	0.65030 0.55980 0.98130 -0.17600
C 	C 	0.64820 0.60790 0.92140 0.08400
H 	H 	0.61270 0.64500 0.90380 0.01900
C 	C 	0.69900 0.60130 0.88750 -0.12200
C 	C 	0.69950 0.66200 0.82420 0.37800
C 	C 	0.75150 0.55000 0.91360 0.09700
H 	H 	0.78590 0.54910 0.89060 0.03900
C 	C 	0.75380 0.50020 0.97290 -0.17400
C 	C 	0.81040 0.44830 0.99890 0.40900
C 	C 	0.70250 0.50400 0.00620 0.14600
H 	H 	0.70360 0.46740 0.04660 0.03300
C 	C 	0.58070 0.18100 0.78580 -0.07300
C 	C 	0.55590 0.26400 0.73600 0.01900
H 	H 	0.51490 0.27050 0.73280 0.04500
C 	C 	0.58960 0.33700 0.69150 -0.07700
C 	C 	0.55840 0.43100 0.63840 0.32500
C 	C 	0.64920 0.32710 0.69460 0.02400
H 	H 	0.67250 0.37350 0.66310 0.06400
C 	C 	0.67550 0.24400 0.74680 -0.07300
C 	C 	0.74040 0.25200 0.74980 0.34500
C 	C 	0.64060 0.17500 0.79030 0.02700
H 	H 	0.65770 0.12260 0.82490 0.06600
C 	C 	0.66070 0.94590 0.50470 -0.11600
C 	C 	0.65880 0.90190 0.56450 0.05900
H 	H 	0.62240 0.87240 0.58180 0.01100
C 	C 	0.70800 0.89900 0.60010 -0.11300
C 	C 	0.70460 0.83400 0.66320 0.38200
C 	C 	0.76070 0.95110 0.57490 0.07700
H 	H 	0.79460 0.95400 0.59870 0.04700
C 	C 	0.76440 0.99920 0.51480 -0.13400
C 	C 	0.82210 0.04270 0.49130 0.41200
C 	C 	0.71410 0.99250 0.48030 0.07300
H 	H 	0.71660 0.02050 0.43930 0.05600
Ca	Ca	0.96847 0.06430 0.50113 1.50600
Ca	Ca	0.95707 0.43680 0.99093 1.50400
P 	P 	0.91484 0.56250 0.52588 0.46900
P 	P 	0.96557 0.08160 0.34265 0.42600
P 	P 	0.90479 0.93600 0.96294 0.45400
O 	O 	0.95130 0.38810 0.51480 -0.54800
O 	O 	0.95080 0.74140 0.51350 -0.56000
O 	O 	0.89110 0.55710 0.59080 -0.40900
H 	H 	0.88030 0.66780 0.60080 0.24900
O 	O 	0.85070 0.69730 0.30160 -0.45600
H 	H 	0.84660 0.73850 0.26690 0.29500
O 	O 	0.75300 0.68210 0.29680 -0.25400
O 	O 	0.69080 0.41830 0.55680 -0.47100
H 	H 	0.65690 0.40510 0.56940 0.28600
O 	O 	0.64510 0.43850 0.46930 -0.43100
O 	O 	0.93410 0.08640 0.40160 -0.41600
O 	O 	0.02340 0.18910 0.33990 -0.28000
O 	O 	0.97400 0.86390 0.32870 -0.42200
H 	H 	0.97630 0.84850 0.29190 0.25500
O 	O 	0.91610 0.41340 0.08700 -0.43200
O 	O 	0.98230 0.53720 0.14660 -0.27700
O 	O 	0.73940 0.18110 0.30030 -0.42700
H 	H 	0.70310 0.18870 0.30060 0.27300
O 	O 	0.73010 0.31480 0.20910 -0.23200
O 	O 	0.94000 0.76540 0.98090 -0.57200
O 	O 	0.94150 0.11610 0.97320 -0.55700
O 	O 	0.88320 0.92260 0.89740 -0.42800
H 	H 	0.91000 0.87970 0.87600 0.27600
O 	O 	0.74500 0.82680 0.18980 -0.44100
H 	H 	0.74950 0.84400 0.22620 0.29200
O 	O 	0.84210 0.79430 0.18640 -0.28900
O 	O 	0.67620 0.07390 0.93230 -0.43400
H 	H 	0.64160 0.08400 0.92130 0.26200
O 	O 	0.63460 0.04920 0.02140 -0.40300
C 	C 	0.84970 0.55980 0.48130 -0.11200
C 	C 	0.85180 0.60790 0.42140 0.04900
H 	H 	0.88730 0.64500 0.40380 0.03300
C 	C 	0.80100 0.60130 0.38750 -0.09600
C 	C 	0.80050 0.66200 0.32420 0.37000
C 	C 	0.74850 0.55000 0.41360 0.06700
H 	H 	0.71410 0.54910 0.39060 0.04900
C 	C 	0.74620 0.50020 0.47290 -0.12400
C 	C 	0.68960 0.44830 0.49890 0.41600
C 	C 	0.79750 0.50400 0.50620 0.06100
H 	H 	0.79640 0.46740 0.54660 0.05700
C 	C 	0.91930 0.18100 0.28580 -0.07200
C 	C 	0.94410 0.26400 0.23600 0.01800
H 	H 	0.98510 0.27050 0.23280 0.04600
C 	C 	0.91040 0.33700 0.19150 -0.07600
C 	C 	0.94160 0.43100 0.13840 0.32300
C 	C 	0.85080 0.32710 0.19460 0.02300
H 	H 	0.82750 0.37350 0.16310 0.06400
C 	C 	0.82450 0.24400 0.24680 -0.07200
C 	C 	0.75960 0.25200 0.24980 0.34500
C 	C 	0.85940 0.17500 0.29030 0.02600
H 	H 	0.84230 0.12260 0.32490 0.06700
C 	C 	0.83930 0.94590 0.00470 -0.03700
C 	C 	0.84120 0.90190 0.06450 0.01300
H 	H 	0.87760 0.87240 0.08180 0.02900
C 	C 	0.79200 0.89900 0.10010 -0.07300
C 	C 	0.79540 0.83400 0.16320 0.36800
C 	C 	0.73930 0.95110 0.07490 0.02300
H 	H 	0.70540 0.95400 0.09870 0.06500
C 	C 	0.73560 0.99920 0.01480 -0.03600
C 	C 	0.67790 0.04270 0.99130 0.33500
C 	C 	0.78590 0.99250 0.98030 -0.03500
H 	H 	0.78340 0.02050 0.93930 0.08900
Ca	Ca	0.03153 0.93570 0.00113 1.50900
Ca	Ca	0.04293 0.56320 0.49093 1.50700
P 	P 	0.08516 0.43750 0.02588 0.48800
P 	P 	0.03443 0.91840 0.84265 0.42600
P 	P 	0.09521 0.06400 0.46294 0.47700
O 	O 	0.04870 0.61190 0.01480 -0.54300
O 	O 	0.04920 0.25860 0.01350 -0.55400
O 	O 	0.10890 0.44290 0.09080 -0.41100
H 	H 	0.11970 0.33220 0.10080 0.25000
O 	O 	0.14930 0.30270 0.80160 -0.45900
H 	H 	0.15340 0.26150 0.76690 0.29600
O 	O 	0.24700 0.31790 0.79680 -0.25700
O 	O 	0.30920 0.58170 0.05680 -0.45800
H 	H 	0.34310 0.59490 0.06940 0.28500
O 	O 	0.35490 0.56150 0.96930 -0.43500
O 	O 	0.06590 0.91360 0.90160 -0.41900
O 	O 	0.97660 0.81090 0.83990 -0.28000
O 	O 	0.02600 0.13610 0.82870 -0.42300
H 	H 	0.02370 0.15150 0.79190 0.25500
O 	O 	0.08390 0.58660 0.58700 -0.43800
O 	O 	0.01770 0.46280 0.64660 -0.27900
O 	O 	0.26060 0.81890 0.80030 -0.42800
H 	H 	0.29690 0.81130 0.80060 0.27200
O 	O 	0.26990 0.68520 0.70910 -0.23200
O 	O 	0.06000 0.23460 0.48090 -0.56500
O 	O 	0.05850 0.88390 0.47320 -0.55100
O 	O 	0.11680 0.07740 0.39740 -0.42900
H 	H 	0.09000 0.12030 0.37600 0.27600
O 	O 	0.25500 0.17320 0.68980 -0.44500
H 	H 	0.25050 0.15600 0.72620 0.29400
O 	O 	0.15790 0.20570 0.68640 -0.29300
O 	O 	0.32380 0.92610 0.43230 -0.45300
H 	H 	0.35840 0.91600 0.42130 0.27100
O 	O 	0.36540 0.95080 0.52140 -0.44000
C 	C 	0.15030 0.44020 0.98130 -0.17100
C 	C 	0.14820 0.39210 0.92140 0.08100
H 	H 	0.11270 0.35500 0.90380 0.02000
C 	C 	0.19900 0.39870 0.88750 -0.12000
C 	C 	0.19950 0.33800 0.82420 0.37800
C 	C 	0.25150 0.45000 0.91360 0.09500
H 	H 	0.28590 0.45090 0.89060 0.04000
C 	C 	0.25380 0.49980 0.97290 -0.17100
C 	C 	0.31040 0.55170 0.99890 0.41000
C 	C 	0.20250 0.49600 0.00620 0.14000
H 	H 	0.20360 0.53260 0.04660 0.03400
C 	C 	0.08070 0.81900 0.78580 -0.07300
C 	C 	0.05590 0.73600 0.73600 0.01800
H 	H 	0.01490 0.72950 0.73280 0.04500
C 	C 	0.08960 0.66300 0.69150 -0.07700
C 	C 	0.05840 0.56900 0.63840 0.32500
C 	C 	0.14920 0.67290 0.69460 0.02400
H 	H 	0.17250 0.62650 0.66310 0.06400
C 	C 	0.17550 0.75600 0.74680 -0.07300
C 	C 	0.24040 0.74800 0.74980 0.34500
C 	C 	0.14060 0.82500 0.79030 0.02700
H 	H 	0.15770 0.87740 0.82490 0.06600
C 	C 	0.16070 0.05410 0.50470 -0.11600
C 	C 	0.15880 0.09810 0.56450 0.05900
H 	H 	0.12240 0.12760 0.58180 0.01100
C 	C 	0.20800 0.10100 0.60010 -0.11300
C 	C 	0.20460 0.16600 0.66320 0.38200
C 	C 	0.26070 0.04890 0.57490 0.07800
H 	H 	0.29460 0.04600 0.59870 0.04600
C 	C 	0.26440 0.00080 0.51480 -0.13400
C 	C 	0.32210 0.95730 0.49130 0.41200
C 	C 	0.21410 0.00750 0.48030 0.07400
H 	H 	0.21660 0.97950 0.43930 0.05600
