data_crystal

_cell_length_a 11.02900
_cell_length_b 22.76200
_cell_length_c 14.48000
_cell_angle_alpha 90.00000
_cell_angle_beta  97.14700
_cell_angle_gamma 90.00000

_symmetry_space_group_name_	'P 1'
_symmetry_space_group_name_H-M	'P 1'

loop_
_symmetry_equiv_pos_as_xyz
  x,y,z

loop_
_atom_site_label
_atom_site_type_symbol
_atom_site_fract_x
_atom_site_fract_y
_atom_site_fract_z
_atom_site_charge
Cd	Cd	0.63583 0.92555 0.21634 1.17000
C 	C 	0.93750 0.90520 0.27470 0.07900
H 	H 	0.91460 0.89160 0.33050 -0.02200
C 	C 	0.05960 0.90770 0.26600 -0.13900
H 	H 	0.11720 0.89580 0.31480 0.08000
C 	C 	0.09660 0.92812 0.18400 0.06200
C 	C 	0.00550 0.94340 0.11340 -0.13700
H 	H 	0.02570 0.95640 0.05640 0.08400
C 	C 	0.88620 0.93930 0.12800 0.08600
H 	H 	0.82680 0.94970 0.07940 -0.02200
C 	C 	0.22500 0.93570 0.16930 0.08900
C 	C 	0.58210 0.70910 0.76260 0.05800
H 	H 	0.55220 0.70830 0.69970 -0.00400
C 	C 	0.57730 0.76090 0.80920 -0.09900
H 	H 	0.54620 0.79440 0.77810 0.07300
C 	C 	0.61920 0.76315 0.90320 0.00700
C 	C 	0.66580 0.71205 0.94530 -0.02200
H 	H 	0.69540 0.71160 0.00830 0.01300
C 	C 	0.66780 0.66163 0.89250 0.02400
H 	H 	0.69940 0.62750 0.92170 -0.01100
C 	C 	0.61230 0.81717 0.95660 0.14300
N 	N 	0.84930 0.92122 0.20760 -0.24500
N 	N 	0.25670 0.96094 0.09260 -0.10000
N 	N 	0.37690 0.96008 0.10470 -0.17100
N 	N 	0.41760 0.93478 0.18600 -0.16900
N 	N 	0.32200 0.91896 0.22840 -0.10000
N 	N 	0.62710 0.65922 0.80210 -0.24500
N 	N 	0.57330 0.86870 0.91910 -0.09800
N 	N 	0.57770 0.90511 0.99110 -0.14000
N 	N 	0.61670 0.87661 0.06910 -0.18000
N 	N 	0.63950 0.82086 0.04890 -0.12400
N 	N 	0.63610 0.01183 0.13190 -0.33400
N 	N 	0.69780 0.05254 0.15220 -0.05900
N 	N 	0.75720 0.09280 0.17310 -0.09900
Cd	Cd	0.36417 0.42555 0.28366 1.16400
C 	C 	0.06250 0.40520 0.22530 0.08200
H 	H 	0.08540 0.39160 0.16950 -0.03000
C 	C 	0.94040 0.40770 0.23400 -0.14700
H 	H 	0.88280 0.39580 0.18520 0.07500
C 	C 	0.90340 0.42812 0.31600 0.06300
C 	C 	0.99450 0.44340 0.38660 -0.14500
H 	H 	0.97430 0.45640 0.44360 0.08700
C 	C 	0.11380 0.43930 0.37200 0.08900
H 	H 	0.17320 0.44970 0.42060 -0.02400
C 	C 	0.77500 0.43570 0.33070 0.08500
C 	C 	0.41790 0.20910 0.73740 0.08000
H 	H 	0.44780 0.20830 0.80030 -0.01000
C 	C 	0.42270 0.26090 0.69080 -0.14000
H 	H 	0.45380 0.29440 0.72190 0.08600
C 	C 	0.38080 0.26315 0.59680 0.06300
C 	C 	0.33420 0.21205 0.55470 -0.14500
H 	H 	0.30460 0.21160 0.49170 0.08000
C 	C 	0.33220 0.16163 0.60750 0.08000
H 	H 	0.30060 0.12750 0.57830 -0.04600
C 	C 	0.38770 0.31717 0.54340 0.08800
N 	N 	0.15070 0.42122 0.29240 -0.25100
N 	N 	0.74330 0.46094 0.40740 -0.10000
N 	N 	0.62310 0.46008 0.39530 -0.17500
N 	N 	0.58240 0.43478 0.31400 -0.17400
N 	N 	0.67800 0.41896 0.27160 -0.10500
N 	N 	0.37290 0.15922 0.69790 -0.26200
N 	N 	0.42670 0.36870 0.58090 -0.09600
N 	N 	0.42230 0.40511 0.50890 -0.17000
N 	N 	0.38330 0.37661 0.43090 -0.16800
N 	N 	0.36050 0.32086 0.45110 -0.10000
N 	N 	0.36390 0.51183 0.36810 -0.31400
N 	N 	0.30220 0.55254 0.34780 -0.05200
N 	N 	0.24280 0.59280 0.32690 -0.09000
Cd	Cd	0.36417 0.07445 0.78366 1.16100
C 	C 	0.06250 0.09480 0.72530 0.08000
H 	H 	0.08540 0.10840 0.66950 -0.02800
C 	C 	0.94040 0.09230 0.73400 -0.14500
H 	H 	0.88280 0.10420 0.68520 0.07700
C 	C 	0.90340 0.07188 0.81600 0.06200
C 	C 	0.99450 0.05660 0.88660 -0.14300
H 	H 	0.97430 0.04360 0.94360 0.08900
C 	C 	0.11380 0.06070 0.87200 0.08500
H 	H 	0.17320 0.05030 0.92060 -0.02400
C 	C 	0.77500 0.06430 0.83070 0.08500
C 	C 	0.41790 0.29090 0.23740 0.10200
H 	H 	0.44780 0.29170 0.30030 -0.02200
C 	C 	0.42270 0.23910 0.19080 -0.18200
H 	H 	0.45380 0.20560 0.22190 0.09400
C 	C 	0.38080 0.23685 0.09680 0.11900
C 	C 	0.33420 0.28795 0.05470 -0.26500
H 	H 	0.30460 0.28840 0.99170 0.15100
C 	C 	0.33220 0.33837 0.10750 0.13600
H 	H 	0.30060 0.37250 0.07830 -0.06900
C 	C 	0.38770 0.18283 0.04340 0.03300
N 	N 	0.15070 0.07878 0.79240 -0.25200
N 	N 	0.74330 0.03906 0.90740 -0.09900
N 	N 	0.62310 0.03992 0.89530 -0.17300
N 	N 	0.58240 0.06522 0.81400 -0.17500
N 	N 	0.67800 0.08104 0.77160 -0.10400
N 	N 	0.37290 0.34078 0.19790 -0.27700
N 	N 	0.42670 0.13130 0.08090 -0.09600
N 	N 	0.42230 0.09489 0.00890 -0.19500
N 	N 	0.38330 0.12339 0.93090 -0.15400
N 	N 	0.36050 0.17914 0.95110 -0.07400
N 	N 	0.36390 0.98817 0.86810 -0.28500
N 	N 	0.30220 0.94746 0.84780 -0.04300
N 	N 	0.24280 0.90720 0.82690 -0.07400
Cd	Cd	0.63583 0.57445 0.71634 1.16700
C 	C 	0.93750 0.59480 0.77470 0.08200
H 	H 	0.91460 0.60840 0.83050 -0.02000
C 	C 	0.05960 0.59230 0.76600 -0.14100
H 	H 	0.11720 0.60420 0.81480 0.08500
C 	C 	0.09660 0.57188 0.68400 0.06400
C 	C 	0.00550 0.55660 0.61340 -0.14100
H 	H 	0.02570 0.54360 0.55640 0.08700
C 	C 	0.88620 0.56070 0.62800 0.08800
H 	H 	0.82680 0.55030 0.57940 -0.02400
C 	C 	0.22500 0.56430 0.66930 0.08800
C 	C 	0.58210 0.79090 0.26260 0.07900
H 	H 	0.55220 0.79170 0.19970 -0.01600
C 	C 	0.57730 0.73910 0.30920 -0.14100
H 	H 	0.54620 0.70560 0.27810 0.08000
C 	C 	0.61920 0.73685 0.40320 0.06200
C 	C 	0.66580 0.78795 0.44530 -0.14200
H 	H 	0.69540 0.78840 0.50830 0.08400
C 	C 	0.66780 0.83837 0.39250 0.08000
H 	H 	0.69940 0.87250 0.42170 -0.03500
C 	C 	0.61230 0.68283 0.45660 0.08800
N 	N 	0.84930 0.57878 0.70760 -0.24800
N 	N 	0.25670 0.53906 0.59260 -0.10000
N 	N 	0.37690 0.53992 0.60470 -0.17400
N 	N 	0.41760 0.56522 0.68600 -0.17100
N 	N 	0.32200 0.58104 0.72840 -0.09900
N 	N 	0.62710 0.84078 0.30210 -0.26000
N 	N 	0.57330 0.63130 0.41910 -0.09800
N 	N 	0.57770 0.59489 0.49110 -0.17100
N 	N 	0.61670 0.62339 0.56910 -0.16700
N 	N 	0.63950 0.67914 0.54890 -0.09800
N 	N 	0.63610 0.48817 0.63190 -0.31200
N 	N 	0.69780 0.44746 0.65220 -0.05000
N 	N 	0.75720 0.40720 0.67310 -0.08400
Cd	Cd	0.50000 0.00000 -0.00000 1.15600
Cd	Cd	0.50000 0.50000 0.50000 1.18100
