data_crystal

_cell_length_a 10.97400
_cell_length_b 22.66900
_cell_length_c 14.10600
_cell_angle_alpha 90.00000
_cell_angle_beta  96.63700
_cell_angle_gamma 90.00000

_symmetry_space_group_name_	'P 1'
_symmetry_space_group_name_H-M	'P 1'

loop_
_symmetry_equiv_pos_as_xyz
  x,y,z

loop_
_atom_site_label
_atom_site_type_symbol
_atom_site_fract_x
_atom_site_fract_y
_atom_site_fract_z
_atom_site_charge
Cd	Cd	0.86819 0.07323 0.77806 1.17600
C 	C 	0.61810 0.05650 0.86830 0.08800
H 	H 	0.67760 0.04440 0.91670 -0.02400
C 	C 	0.49870 0.05420 0.88420 -0.14700
H 	H 	0.47840 0.04050 0.94250 0.08700
C 	C 	0.40770 0.07190 0.81560 0.06200
C 	C 	0.44410 0.09280 0.73140 -0.15100
H 	H 	0.38630 0.10640 0.68290 0.07000
C 	C 	0.56640 0.09320 0.72030 0.08600
H 	H 	0.58930 0.10680 0.66280 -0.03100
C 	C 	0.27970 0.06620 0.83070 0.07700
C 	C 	0.92030 0.29230 0.23460 0.12800
H 	H 	0.95070 0.29370 0.29890 -0.01400
C 	C 	0.92390 0.24000 0.18870 -0.19700
H 	H 	0.95690 0.20690 0.22090 0.11700
C 	C 	0.87820 0.23640 0.09390 0.13900
C 	C 	0.83160 0.28680 0.04950 -0.27300
H 	H 	0.79980 0.28650 0.98540 0.15500
C 	C 	0.83330 0.33760 0.10230 0.15600
H 	H 	0.80200 0.37160 0.07180 -0.06800
C 	C 	0.88260 0.18140 0.04070 0.04200
N 	N 	0.65400 0.07530 0.78640 -0.25300
N 	N 	0.24680 0.03980 0.90900 -0.10200
N 	N 	0.12550 0.04300 0.89760 -0.18900
N 	N 	0.08720 0.06930 0.81530 -0.20000
N 	N 	0.18290 0.08480 0.77230 -0.11800
N 	N 	0.87620 0.34160 0.19370 -0.27900
N 	N 	0.92100 0.13080 0.08110 -0.08200
N 	N 	0.91620 0.09320 0.00860 -0.17500
N 	N 	0.87810 0.12120 0.92850 -0.14600
N 	N 	0.85570 0.17730 0.94690 -0.07400
N 	N 	0.87120 0.98720 0.86150 -0.26400
N 	N 	0.81400 0.94500 0.83740 -0.03300
N 	N 	0.75990 0.90500 0.81230 -0.05800
Cd	Cd	0.13181 0.57323 0.72194 1.15700
C 	C 	0.38190 0.55650 0.63170 0.09800
H 	H 	0.32240 0.54440 0.58330 -0.03000
C 	C 	0.50130 0.55420 0.61580 -0.15300
H 	H 	0.52160 0.54050 0.55750 0.09100
C 	C 	0.59230 0.57190 0.68440 0.08000
C 	C 	0.55590 0.59280 0.76860 -0.15500
H 	H 	0.61370 0.60640 0.81710 0.09800
C 	C 	0.43360 0.59320 0.77970 0.09800
H 	H 	0.41070 0.60680 0.83720 -0.02400
C 	C 	0.72030 0.56620 0.66930 0.09000
C 	C 	0.07970 0.79230 0.26540 0.08400
H 	H 	0.04930 0.79370 0.20110 -0.03300
C 	C 	0.07610 0.74000 0.31130 -0.15700
H 	H 	0.04310 0.70690 0.27910 0.07000
C 	C 	0.12180 0.73640 0.40610 0.06400
C 	C 	0.16840 0.78680 0.45050 -0.15700
H 	H 	0.20020 0.78650 0.51460 0.08600
C 	C 	0.16670 0.83760 0.39770 0.08500
H 	H 	0.19800 0.87160 0.42820 -0.04600
C 	C 	0.11740 0.68140 0.45930 0.08200
N 	N 	0.34600 0.57530 0.71360 -0.25400
N 	N 	0.75320 0.53980 0.59100 -0.09600
N 	N 	0.87450 0.54300 0.60240 -0.15300
N 	N 	0.91280 0.56930 0.68470 -0.13800
N 	N 	0.81710 0.58480 0.72770 -0.08400
N 	N 	0.12380 0.84160 0.30630 -0.27600
N 	N 	0.07900 0.63080 0.41890 -0.11200
N 	N 	0.08380 0.59320 0.49140 -0.18600
N 	N 	0.12190 0.62120 0.57150 -0.17600
N 	N 	0.14430 0.67730 0.55310 -0.10200
N 	N 	0.12880 0.48720 0.63850 -0.33500
N 	N 	0.18600 0.44500 0.66260 -0.06000
N 	N 	0.24010 0.40500 0.68770 -0.10200
Cd	Cd	0.13181 0.92677 0.22194 1.16000
C 	C 	0.38190 0.94350 0.13170 0.09900
H 	H 	0.32240 0.95560 0.08330 -0.02800
C 	C 	0.50130 0.94580 0.11580 -0.15300
H 	H 	0.52160 0.95950 0.05750 0.09000
C 	C 	0.59230 0.92810 0.18440 0.07900
C 	C 	0.55590 0.90720 0.26860 -0.15400
H 	H 	0.61370 0.89360 0.31710 0.09600
C 	C 	0.43360 0.90680 0.27970 0.09800
H 	H 	0.41070 0.89320 0.33720 -0.02500
C 	C 	0.72030 0.93380 0.16930 0.09000
C 	C 	0.07970 0.70770 0.76540 0.05900
H 	H 	0.04930 0.70630 0.70110 -0.02000
C 	C 	0.07610 0.76000 0.81130 -0.11000
H 	H 	0.04310 0.79310 0.77910 0.06100
C 	C 	0.12180 0.76360 0.90610 0.00300
C 	C 	0.16840 0.71320 0.95050 -0.03000
H 	H 	0.20020 0.71350 0.01460 0.01200
C 	C 	0.16670 0.66240 0.89770 0.02400
H 	H 	0.19800 0.62840 0.92820 -0.02000
C 	C 	0.11740 0.81860 0.95930 0.14000
N 	N 	0.34600 0.92470 0.21360 -0.25200
N 	N 	0.75320 0.96020 0.09100 -0.09600
N 	N 	0.87450 0.95700 0.10240 -0.14900
N 	N 	0.91280 0.93070 0.18470 -0.13600
N 	N 	0.81710 0.91520 0.22770 -0.08400
N 	N 	0.12380 0.65840 0.80630 -0.25900
N 	N 	0.07900 0.86920 0.91890 -0.11200
N 	N 	0.08380 0.90680 0.99140 -0.15500
N 	N 	0.12190 0.87880 0.07150 -0.18900
N 	N 	0.14430 0.82270 0.05310 -0.12900
N 	N 	0.12880 0.01280 0.13850 -0.35700
N 	N 	0.18600 0.05500 0.16260 -0.06800
N 	N 	0.24010 0.09500 0.18770 -0.11700
Cd	Cd	0.86819 0.42677 0.27806 1.18000
C 	C 	0.61810 0.44350 0.36830 0.08900
H 	H 	0.67760 0.45560 0.41670 -0.02300
C 	C 	0.49870 0.44580 0.38420 -0.14600
H 	H 	0.47840 0.45950 0.44250 0.08600
C 	C 	0.40770 0.42810 0.31560 0.06100
C 	C 	0.44410 0.40720 0.23140 -0.15000
H 	H 	0.38630 0.39360 0.18290 0.06700
C 	C 	0.56640 0.40680 0.22030 0.08600
H 	H 	0.58930 0.39320 0.16280 -0.03300
C 	C 	0.27970 0.43380 0.33070 0.07700
C 	C 	0.92030 0.20770 0.73460 0.10500
H 	H 	0.95070 0.20630 0.79890 -0.00200
C 	C 	0.92390 0.26000 0.68870 -0.15300
H 	H 	0.95690 0.29310 0.72090 0.10800
C 	C 	0.87820 0.26360 0.59390 0.08300
C 	C 	0.83160 0.21320 0.54950 -0.15700
H 	H 	0.79980 0.21350 0.48540 0.08700
C 	C 	0.83330 0.16240 0.60230 0.10000
H 	H 	0.80200 0.12840 0.57180 -0.04500
C 	C 	0.88260 0.31860 0.54070 0.09500
N 	N 	0.65400 0.42470 0.28640 -0.25100
N 	N 	0.24680 0.46020 0.40900 -0.10400
N 	N 	0.12550 0.45700 0.39760 -0.19300
N 	N 	0.08720 0.43070 0.31530 -0.20100
N 	N 	0.18290 0.41520 0.27230 -0.11900
N 	N 	0.87620 0.15840 0.69370 -0.26400
N 	N 	0.92100 0.36920 0.58110 -0.08300
N 	N 	0.91620 0.40680 0.50860 -0.15100
N 	N 	0.87810 0.37880 0.42850 -0.15800
N 	N 	0.85570 0.32270 0.44690 -0.09700
N 	N 	0.87120 0.51280 0.36150 -0.29000
N 	N 	0.81400 0.55500 0.33740 -0.04100
N 	N 	0.75990 0.59500 0.31230 -0.07200
Cd	Cd	-0.00000 0.00000 -0.00000 1.12900
Cd	Cd	0.00000 0.50000 0.50000 1.15300
