data_crystal

_cell_length_a 9.63800
_cell_length_b 15.44300
_cell_length_c 18.71700
_cell_angle_alpha 90.00000
_cell_angle_beta  90.00000
_cell_angle_gamma 90.00000

_symmetry_space_group_name_	'P 1'
_symmetry_space_group_name_H-M	'P 1'

loop_
_symmetry_equiv_pos_as_xyz
  x,y,z

loop_
_atom_site_label
_atom_site_type_symbol
_atom_site_fract_x
_atom_site_fract_y
_atom_site_fract_z
_atom_site_charge
Cd	Cd	0.11647 0.78310 0.93902 1.19400
C 	C 	0.41810 0.85540 0.98340 0.08700
H 	H 	0.35750 0.89270 0.00690 -0.02900
C 	C 	0.55700 0.86990 0.99090 -0.01400
H 	H 	0.58890 0.91620 0.01810 0.04700
C 	C 	0.64890 0.81530 0.95770 -0.05800
C 	C 	0.59300 0.74850 0.91830 -0.05300
H 	H 	0.65140 0.70950 0.89530 0.06700
C 	C 	0.45270 0.73900 0.91280 0.04700
H 	H 	0.41830 0.69370 0.88520 -0.00400
C 	C 	0.80190 0.83110 0.96310 0.41200
C 	C 	0.05070 0.82730 0.29940 -0.01700
H 	H 	0.99360 0.85340 0.33320 0.06300
C 	C 	0.04640 0.85770 0.23060 -0.16700
H 	H 	0.99010 0.90440 0.21870 0.16400
C 	C 	0.12570 0.81830 0.18000 -0.00700
C 	C 	0.20870 0.75030 0.20090 -0.08600
H 	H 	0.26310 0.72130 0.16760 0.06200
C 	C 	0.21050 0.72560 0.27150 0.05600
H 	H 	0.26930 0.68080 0.28520 -0.00000
C 	C 	0.11890 0.84720 0.10310 0.35700
N 	N 	0.36350 0.79130 0.94480 -0.22500
N 	N 	0.13210 0.76270 0.32060 -0.23100
N 	N 	0.12120 0.92850 0.91490 -0.27700
N 	N 	0.17100 0.96320 0.86670 -0.03300
N 	N 	0.21500 0.99760 0.81810 -0.06300
O 	O 	0.10660 0.92590 0.09189 -0.41900
O 	O 	0.12880 0.78830 0.05798 -0.48100
O 	O 	0.83880 0.89290 0.00070 -0.43000
O 	O 	0.87950 0.78040 0.92967 -0.41000
Cd	Cd	0.88353 0.28310 0.56098 1.20800
C 	C 	0.58190 0.35540 0.51660 0.04300
H 	H 	0.64250 0.39270 0.49310 -0.00100
C 	C 	0.44300 0.36990 0.50910 -0.06100
H 	H 	0.41110 0.41620 0.48190 0.06300
C 	C 	0.35110 0.31530 0.54230 -0.06000
C 	C 	0.40700 0.24850 0.58170 -0.06400
H 	H 	0.34860 0.20950 0.60470 0.05000
C 	C 	0.54730 0.23900 0.58720 0.04000
H 	H 	0.58170 0.19370 0.61480 -0.01100
C 	C 	0.19810 0.33110 0.53690 0.37100
C 	C 	0.94930 0.32730 0.20060 0.11100
H 	H 	0.00640 0.35340 0.16680 -0.08000
C 	C 	0.95360 0.35770 0.26940 0.03100
H 	H 	0.00990 0.40440 0.28130 -0.00900
C 	C 	0.87430 0.31830 0.32000 -0.08100
C 	C 	0.79130 0.25030 0.29910 -0.04200
H 	H 	0.73690 0.22130 0.33240 0.04700
C 	C 	0.78950 0.22560 0.22850 0.03500
H 	H 	0.73070 0.18080 0.21480 0.00400
C 	C 	0.88110 0.34720 0.39690 0.39800
N 	N 	0.63650 0.29130 0.55520 -0.22300
N 	N 	0.86790 0.26270 0.17940 -0.23600
N 	N 	0.87880 0.42850 0.58510 -0.27100
N 	N 	0.82900 0.46320 0.63330 -0.03400
N 	N 	0.78500 0.49760 0.68190 -0.07500
O 	O 	0.89340 0.42590 0.40811 -0.40500
O 	O 	0.87120 0.28830 0.44202 -0.45400
O 	O 	0.16120 0.39290 0.49930 -0.46000
O 	O 	0.12050 0.28040 0.57033 -0.47100
Cd	Cd	0.88353 0.21690 0.06098 1.20100
C 	C 	0.58190 0.14460 0.01660 0.00300
H 	H 	0.64250 0.10730 0.99310 0.03200
C 	C 	0.44300 0.13010 0.00910 -0.13900
H 	H 	0.41110 0.08380 0.98190 0.10100
C 	C 	0.35110 0.18470 0.04230 -0.02500
C 	C 	0.40700 0.25150 0.08170 -0.09000
H 	H 	0.34860 0.29050 0.10470 0.06100
C 	C 	0.54730 0.26100 0.08720 0.05100
H 	H 	0.58170 0.30630 0.11480 -0.01200
C 	C 	0.19810 0.16890 0.03690 0.30400
C 	C 	0.94930 0.17270 0.70060 0.10900
H 	H 	0.00640 0.14660 0.66680 -0.08400
C 	C 	0.95360 0.14230 0.76940 0.03300
H 	H 	0.00990 0.09560 0.78130 -0.02200
C 	C 	0.87430 0.18170 0.82000 -0.08200
C 	C 	0.79130 0.24970 0.79910 -0.04100
H 	H 	0.73690 0.27870 0.83240 0.05700
C 	C 	0.78950 0.27440 0.72850 0.03700
H 	H 	0.73070 0.31920 0.71480 0.01100
C 	C 	0.88110 0.15280 0.89690 0.39700
N 	N 	0.63650 0.20870 0.05520 -0.22400
N 	N 	0.86790 0.23730 0.67940 -0.23500
N 	N 	0.87880 0.07150 0.08510 -0.29000
N 	N 	0.82900 0.03680 0.13330 -0.04500
N 	N 	0.78500 0.00240 0.18190 -0.10500
O 	O 	0.89340 0.07410 0.90811 -0.41400
O 	O 	0.87120 0.21170 0.94202 -0.43200
O 	O 	0.16120 0.10710 0.99930 -0.42100
O 	O 	0.12050 0.21960 0.07033 -0.46200
Cd	Cd	0.11647 0.71690 0.43902 1.18900
C 	C 	0.41810 0.64460 0.48340 0.05300
H 	H 	0.35750 0.60730 0.50690 -0.00500
C 	C 	0.55700 0.63010 0.49090 -0.07000
H 	H 	0.58890 0.58380 0.51810 0.07000
C 	C 	0.64890 0.68470 0.45770 -0.03500
C 	C 	0.59300 0.75150 0.41830 -0.07100
H 	H 	0.65140 0.79050 0.39530 0.07500
C 	C 	0.45270 0.76100 0.41280 0.05400
H 	H 	0.41830 0.80630 0.38520 -0.00300
C 	C 	0.80190 0.66890 0.46310 0.36400
C 	C 	0.05070 0.67270 0.79940 -0.02100
H 	H 	0.99360 0.64660 0.83320 0.06000
C 	C 	0.04640 0.64230 0.73060 -0.16600
H 	H 	0.99010 0.59560 0.71870 0.15000
C 	C 	0.12570 0.68170 0.68000 -0.01000
C 	C 	0.20870 0.74970 0.70090 -0.08300
H 	H 	0.26310 0.77870 0.66760 0.07100
C 	C 	0.21050 0.77440 0.77150 0.05700
H 	H 	0.26930 0.81920 0.78520 0.00600
C 	C 	0.11890 0.65280 0.60310 0.35900
N 	N 	0.36350 0.70870 0.44480 -0.22600
N 	N 	0.13210 0.73730 0.82060 -0.22900
N 	N 	0.12120 0.57150 0.41490 -0.30100
N 	N 	0.17100 0.53680 0.36670 -0.04300
N 	N 	0.21500 0.50240 0.31810 -0.09100
O 	O 	0.10660 0.57410 0.59189 -0.44100
O 	O 	0.12880 0.71170 0.55798 -0.46500
O 	O 	0.83880 0.60710 0.50070 -0.41300
O 	O 	0.87950 0.71960 0.42967 -0.40500
Cd	Cd	-0.00000 0.00000 -0.00000 1.17300
Cd	Cd	-0.00000 0.50000 0.50000 1.20800
