data_crystal

_cell_length_a 9.62800
_cell_length_b 21.33700
_cell_length_c 13.20800
_cell_angle_alpha 90.00000
_cell_angle_beta  91.95300
_cell_angle_gamma 90.00000

_symmetry_space_group_name_	'P 1'
_symmetry_space_group_name_H-M	'P 1'

loop_
_symmetry_equiv_pos_as_xyz
  x,y,z

loop_
_atom_site_label
_atom_site_type_symbol
_atom_site_fract_x
_atom_site_fract_y
_atom_site_fract_z
_atom_site_charge
Cd	Cd	0.40554 0.90841 0.72577 1.20600
C 	C 	0.47510 0.73295 0.29050 0.04700
H 	H 	0.51560 0.73160 0.22760 0.01000
C 	C 	0.48040 0.78823 0.34490 -0.06500
H 	H 	0.52470 0.82320 0.31900 0.06700
C 	C 	0.41970 0.79123 0.43770 -0.04300
C 	C 	0.35820 0.73803 0.47210 -0.06600
H 	H 	0.31780 0.73800 0.53510 0.06300
C 	C 	0.35570 0.68462 0.41420 0.04200
H 	H 	0.31140 0.64920 0.43840 -0.01900
C 	C 	0.42000 0.85098 0.49920 0.37500
C 	C 	0.09880 0.91779 0.61900 0.05700
H 	H 	0.15720 0.92170 0.56480 0.00700
C 	C 	0.95850 0.92595 0.60150 -0.06400
H 	H 	0.92390 0.93650 0.53720 0.08000
C 	C 	0.87000 0.91847 0.67990 -0.03700
C 	C 	0.92810 0.90290 0.77280 -0.06600
H 	H 	0.87160 0.89630 0.82750 0.07100
C 	C 	0.06980 0.89700 0.78490 0.05600
H 	H 	0.10710 0.88740 0.84880 -0.00300
C 	C 	0.71610 0.92910 0.66400 0.38100
N 	N 	0.41440 0.68174 0.32450 -0.22700
N 	N 	0.15530 0.90453 0.71000 -0.21600
N 	N 	0.37740 0.00025 0.64190 -0.31900
N 	N 	0.29890 0.04101 0.65870 -0.05100
N 	N 	0.22340 0.08060 0.67540 -0.08700
O 	O 	0.43030 0.90074 0.45150 -0.41100
O 	O 	0.40580 0.84411 0.59144 -0.44200
O 	O 	0.68010 0.95362 0.58300 -0.42700
O 	O 	0.64020 0.91237 0.73390 -0.43800
Cd	Cd	0.59446 0.40841 0.77423 1.19800
C 	C 	0.52490 0.23295 0.20950 0.07100
H 	H 	0.48440 0.23160 0.27240 0.00300
C 	C 	0.51960 0.28823 0.15510 -0.11300
H 	H 	0.47530 0.32320 0.18100 0.08000
C 	C 	0.58030 0.29123 0.06230 0.02300
C 	C 	0.64180 0.23803 0.02790 -0.20500
H 	H 	0.68220 0.23800 0.96490 0.13600
C 	C 	0.64430 0.18462 0.08580 0.10700
H 	H 	0.68860 0.14920 0.06160 -0.05800
C 	C 	0.58000 0.35098 0.00080 0.29900
C 	C 	0.90120 0.41779 0.88100 0.05100
H 	H 	0.84280 0.42170 0.93520 0.01000
C 	C 	0.04150 0.42595 0.89850 -0.06200
H 	H 	0.07610 0.43650 0.96280 0.08400
C 	C 	0.13000 0.41847 0.82010 -0.04300
C 	C 	0.07190 0.40290 0.72720 -0.06700
H 	H 	0.12840 0.39630 0.67250 0.06100
C 	C 	0.93020 0.39700 0.71510 0.04900
H 	H 	0.89290 0.38740 0.65120 -0.01100
C 	C 	0.28390 0.42910 0.83600 0.38000
N 	N 	0.58560 0.18174 0.17550 -0.24800
N 	N 	0.84470 0.40453 0.79000 -0.22000
N 	N 	0.62260 0.50025 0.85810 -0.29100
N 	N 	0.70110 0.54101 0.84130 -0.04200
N 	N 	0.77660 0.58060 0.82460 -0.07600
O 	O 	0.56970 0.40074 0.04850 -0.41700
O 	O 	0.59420 0.34411 0.90856 -0.40200
O 	O 	0.31990 0.45362 0.91700 -0.42800
O 	O 	0.35980 0.41237 0.76610 -0.44900
Cd	Cd	0.59446 0.09159 0.27423 1.18900
C 	C 	0.52490 0.26705 0.70950 0.04200
H 	H 	0.48440 0.26840 0.77240 0.01600
C 	C 	0.51960 0.21177 0.65510 -0.05900
H 	H 	0.47530 0.17680 0.68100 0.06500
C 	C 	0.58030 0.20877 0.56230 -0.04900
C 	C 	0.64180 0.26197 0.52790 -0.06200
H 	H 	0.68220 0.26200 0.46490 0.06000
C 	C 	0.64430 0.31538 0.58580 0.04000
H 	H 	0.68860 0.35080 0.56160 -0.01900
C 	C 	0.58000 0.14902 0.50080 0.38100
C 	C 	0.90120 0.08221 0.38100 0.03600
H 	H 	0.84280 0.07830 0.43520 -0.00700
C 	C 	0.04150 0.07405 0.39850 -0.05900
H 	H 	0.07610 0.06350 0.46280 0.06200
C 	C 	0.13000 0.08153 0.32010 -0.06200
C 	C 	0.07190 0.09710 0.22720 -0.06200
H 	H 	0.12840 0.10370 0.17250 0.04800
C 	C 	0.93020 0.10300 0.21510 0.03500
H 	H 	0.89290 0.11260 0.15120 -0.01800
C 	C 	0.28390 0.07090 0.33600 0.38400
N 	N 	0.58560 0.31826 0.67550 -0.22600
N 	N 	0.84470 0.09547 0.29000 -0.22500
N 	N 	0.62260 0.99975 0.35810 -0.27600
N 	N 	0.70110 0.95899 0.34130 -0.04100
N 	N 	0.77660 0.91940 0.32460 -0.07700
O 	O 	0.56970 0.09926 0.54850 -0.43500
O 	O 	0.59420 0.15589 0.40856 -0.45000
O 	O 	0.31990 0.04638 0.41700 -0.46100
O 	O 	0.35980 0.08763 0.26610 -0.46600
Cd	Cd	0.40554 0.59159 0.22577 1.19700
C 	C 	0.47510 0.76705 0.79050 0.01800
H 	H 	0.51560 0.76840 0.72760 0.02300
C 	C 	0.48040 0.71177 0.84490 -0.01200
H 	H 	0.52470 0.67680 0.81900 0.05100
C 	C 	0.41970 0.70877 0.93770 -0.11400
C 	C 	0.35820 0.76197 0.97210 0.07500
H 	H 	0.31780 0.76200 0.03510 -0.01100
C 	C 	0.35570 0.81538 0.91420 -0.02400
H 	H 	0.31140 0.85080 0.93840 0.01900
C 	C 	0.42000 0.64902 0.99920 0.45700
C 	C 	0.09880 0.58221 0.11900 0.04600
H 	H 	0.15720 0.57830 0.06480 -0.01100
C 	C 	0.95850 0.57405 0.10150 -0.06400
H 	H 	0.92390 0.56350 0.03720 0.05900
C 	C 	0.87000 0.58153 0.17990 -0.05500
C 	C 	0.92810 0.59710 0.27280 -0.06400
H 	H 	0.87160 0.60370 0.32750 0.05900
C 	C 	0.06980 0.60300 0.28490 0.04500
H 	H 	0.10710 0.61260 0.34880 -0.01000
C 	C 	0.71610 0.57090 0.16400 0.38400
N 	N 	0.41440 0.81826 0.82450 -0.20600
N 	N 	0.15530 0.59547 0.21000 -0.22100
N 	N 	0.37740 0.49975 0.14190 -0.30500
N 	N 	0.29890 0.45899 0.15870 -0.05000
N 	N 	0.22340 0.41940 0.17540 -0.08900
O 	O 	0.43030 0.59926 0.95150 -0.42900
O 	O 	0.40580 0.65589 0.09144 -0.49100
O 	O 	0.68010 0.54638 0.08300 -0.46000
O 	O 	0.64020 0.58763 0.23390 -0.45500
Cd	Cd	0.50000 0.00000 0.50000 1.21500
Cd	Cd	0.50000 0.50000 -0.00000 1.21800
