data_crystal

_cell_length_a 11.05400
_cell_length_b 22.72300
_cell_length_c 14.66600
_cell_angle_alpha 90.00000
_cell_angle_beta  96.80000
_cell_angle_gamma 90.00000

_symmetry_space_group_name_	'P 1'
_symmetry_space_group_name_H-M	'P 1'

loop_
_symmetry_equiv_pos_as_xyz
  x,y,z

loop_
_atom_site_label
_atom_site_type_symbol
_atom_site_fract_x
_atom_site_fract_y
_atom_site_fract_z
_atom_site_charge
Cd	Cd	0.13925 0.92455 0.21106 1.15700
C 	C 	0.10570 0.71143 0.75730 0.04200
H 	H 	0.09080 0.71250 0.69360 -0.01000
C 	C 	0.09670 0.76300 0.80530 -0.09500
H 	H 	0.07670 0.79800 0.77430 0.05700
C 	C 	0.11760 0.76210 0.90013 -0.00500
C 	C 	0.15000 0.70911 0.94210 -0.02400
H 	H 	0.16660 0.70690 0.00560 0.00700
C 	C 	0.15740 0.65968 0.88900 0.01600
H 	H 	0.17920 0.62430 0.91820 -0.02000
C 	C 	0.10720 0.81598 0.95316 0.13800
C 	C 	0.39030 0.93255 0.12040 0.08600
H 	H 	0.33190 0.94030 0.07090 -0.01900
C 	C 	0.51010 0.93596 0.10720 -0.13700
H 	H 	0.53170 0.94630 0.04990 0.08700
C 	C 	0.60020 0.92398 0.17960 0.06700
C 	C 	0.56200 0.90716 0.26170 -0.13900
H 	H 	0.61870 0.89690 0.31110 0.09000
C 	C 	0.43850 0.90560 0.27040 0.08200
H 	H 	0.41460 0.89500 0.32680 -0.02200
C 	C 	0.72840 0.93167 0.16536 0.09600
N 	N 	0.13480 0.65996 0.79792 -0.25000
N 	N 	0.06960 0.86742 0.91689 -0.11300
N 	N 	0.07340 0.90321 0.98799 -0.15200
N 	N 	0.11290 0.87453 0.06417 -0.18600
N 	N 	0.13420 0.81901 0.04378 -0.12800
N 	N 	0.35210 0.91856 0.20182 -0.24500
N 	N 	0.76120 0.95916 0.09230 -0.09600
N 	N 	0.88120 0.95899 0.10483 -0.15000
N 	N 	0.92020 0.93192 0.18243 -0.13700
N 	N 	0.82460 0.91404 0.22294 -0.08500
N 	N 	0.14270 0.00862 0.12526 -0.35800
N 	N 	0.21900 0.04515 0.13470 -0.06900
N 	N 	0.29310 0.08010 0.14340 -0.11200
Cd	Cd	0.86075 0.42455 0.28894 1.17700
C 	C 	0.89430 0.21143 0.74270 0.08400
H 	H 	0.90920 0.21250 0.80640 -0.00100
C 	C 	0.90330 0.26300 0.69470 -0.13300
H 	H 	0.92330 0.29800 0.72570 0.09400
C 	C 	0.88240 0.26210 0.59987 0.07000
C 	C 	0.85000 0.20911 0.55790 -0.14400
H 	H 	0.83340 0.20690 0.49440 0.08400
C 	C 	0.84260 0.15968 0.61100 0.09000
H 	H 	0.82080 0.12430 0.58180 -0.04000
C 	C 	0.89280 0.31598 0.54684 0.09700
C 	C 	0.60970 0.43255 0.37960 0.07600
H 	H 	0.66810 0.44030 0.42910 -0.01400
C 	C 	0.48990 0.43596 0.39280 -0.13200
H 	H 	0.46830 0.44630 0.45010 0.08400
C 	C 	0.39980 0.42398 0.32040 0.04900
C 	C 	0.43800 0.40716 0.23830 -0.13600
H 	H 	0.38130 0.39690 0.18890 0.06100
C 	C 	0.56150 0.40560 0.22960 0.07000
H 	H 	0.58540 0.39500 0.17320 -0.02900
C 	C 	0.27160 0.43167 0.33464 0.08300
N 	N 	0.86520 0.15996 0.70208 -0.25400
N 	N 	0.93040 0.36742 0.58311 -0.08600
N 	N 	0.92660 0.40321 0.51201 -0.14600
N 	N 	0.88710 0.37453 0.43583 -0.15300
N 	N 	0.86580 0.31901 0.45622 -0.09700
N 	N 	0.64790 0.41856 0.29818 -0.24400
N 	N 	0.23880 0.45916 0.40770 -0.10400
N 	N 	0.11880 0.45899 0.39517 -0.19400
N 	N 	0.07980 0.43192 0.31757 -0.20100
N 	N 	0.17540 0.41404 0.27706 -0.12000
N 	N 	0.85730 0.50862 0.37474 -0.29200
N 	N 	0.78100 0.54515 0.36530 -0.04500
N 	N 	0.70690 0.58010 0.35660 -0.07400
Cd	Cd	0.86075 0.07545 0.78894 1.17300
C 	C 	0.89430 0.28857 0.24270 0.10300
H 	H 	0.90920 0.28750 0.30640 -0.01100
C 	C 	0.90330 0.23700 0.19470 -0.17000
H 	H 	0.92330 0.20200 0.22570 0.10000
C 	C 	0.88240 0.23790 0.09987 0.11900
C 	C 	0.85000 0.29089 0.05790 -0.25100
H 	H 	0.83340 0.29310 0.99440 0.14700
C 	C 	0.84260 0.34032 0.11100 0.14100
H 	H 	0.82080 0.37570 0.08180 -0.06100
C 	C 	0.89280 0.18402 0.04684 0.04900
C 	C 	0.60970 0.06745 0.87960 0.07400
H 	H 	0.66810 0.05970 0.92910 -0.01500
C 	C 	0.48990 0.06404 0.89280 -0.13300
H 	H 	0.46830 0.05370 0.95010 0.08700
C 	C 	0.39980 0.07602 0.82040 0.05100
C 	C 	0.43800 0.09284 0.73830 -0.13600
H 	H 	0.38130 0.10310 0.68890 0.06400
C 	C 	0.56150 0.09440 0.72960 0.07100
H 	H 	0.58540 0.10500 0.67320 -0.02700
C 	C 	0.27160 0.06833 0.83464 0.08300
N 	N 	0.86520 0.34004 0.20208 -0.26700
N 	N 	0.93040 0.13258 0.08311 -0.08500
N 	N 	0.92660 0.09679 0.01201 -0.16900
N 	N 	0.88710 0.12547 0.93583 -0.14200
N 	N 	0.86580 0.18099 0.95622 -0.07400
N 	N 	0.64790 0.08144 0.79818 -0.24600
N 	N 	0.23880 0.04084 0.90770 -0.10200
N 	N 	0.11880 0.04101 0.89517 -0.19000
N 	N 	0.07980 0.06808 0.81757 -0.20000
N 	N 	0.17540 0.08596 0.77706 -0.11900
N 	N 	0.85730 0.99138 0.87474 -0.26700
N 	N 	0.78100 0.95485 0.86530 -0.03600
N 	N 	0.70690 0.91990 0.85660 -0.05900
Cd	Cd	0.13925 0.57545 0.71106 1.15300
C 	C 	0.10570 0.78857 0.25730 0.06200
H 	H 	0.09080 0.78750 0.19360 -0.02100
C 	C 	0.09670 0.73700 0.30530 -0.13600
H 	H 	0.07670 0.70200 0.27430 0.06400
C 	C 	0.11760 0.73790 0.40013 0.05000
C 	C 	0.15000 0.79089 0.44210 -0.14400
H 	H 	0.16660 0.79310 0.50560 0.07800
C 	C 	0.15740 0.84032 0.38900 0.07300
H 	H 	0.17920 0.87570 0.41820 -0.04400
C 	C 	0.10720 0.68402 0.45316 0.08400
C 	C 	0.39030 0.56745 0.62040 0.08400
H 	H 	0.33190 0.55970 0.57090 -0.01900
C 	C 	0.51010 0.56404 0.60720 -0.13700
H 	H 	0.53170 0.55370 0.54990 0.09000
C 	C 	0.60020 0.57602 0.67960 0.06800
C 	C 	0.56200 0.59284 0.76170 -0.13900
H 	H 	0.61870 0.60310 0.81110 0.09200
C 	C 	0.43850 0.59440 0.77040 0.08200
H 	H 	0.41460 0.60500 0.82680 -0.02000
C 	C 	0.72840 0.56833 0.66536 0.09600
N 	N 	0.13480 0.84004 0.29792 -0.26500
N 	N 	0.06960 0.63258 0.41689 -0.11300
N 	N 	0.07340 0.59679 0.48799 -0.18200
N 	N 	0.11290 0.62547 0.56417 -0.17300
N 	N 	0.13420 0.68099 0.54378 -0.10300
N 	N 	0.35210 0.58144 0.70182 -0.24700
N 	N 	0.76120 0.54084 0.59230 -0.09600
N 	N 	0.88120 0.54101 0.60483 -0.15400
N 	N 	0.92020 0.56808 0.68243 -0.13900
N 	N 	0.82460 0.58596 0.72294 -0.08500
N 	N 	0.14270 0.49138 0.62526 -0.33700
N 	N 	0.21900 0.45485 0.63470 -0.06000
N 	N 	0.29310 0.41990 0.64340 -0.09600
Cd	Cd	-0.00000 0.00000 -0.00000 1.12800
Cd	Cd	0.00000 0.50000 0.50000 1.15100
