data_crystal

_cell_length_a 11.07700
_cell_length_b 14.81560
_cell_length_c 13.43360
_cell_angle_alpha 99.04600
_cell_angle_beta  90.00000
_cell_angle_gamma 90.00000

_symmetry_space_group_name_	'P 1'
_symmetry_space_group_name_H-M	'P 1'

loop_
_symmetry_equiv_pos_as_xyz
  x,y,z

loop_
_atom_site_label
_atom_site_type_symbol
_atom_site_fract_x
_atom_site_fract_y
_atom_site_fract_z
_atom_site_charge
Ni	Ni	0.99863 0.95653 0.88825 1.09300
Ni	Ni	0.14819 0.86488 0.09248 1.08800
Ni	Ni	0.49863 0.04347 0.61175 1.09800
Ni	Ni	0.64819 0.13512 0.40752 1.08900
Ni	Ni	0.00137 0.04347 0.11175 1.09300
Ni	Ni	0.85181 0.13512 0.90752 1.08800
Ni	Ni	0.50137 0.95653 0.38825 1.09700
Ni	Ni	0.35181 0.86488 0.59248 1.08800
H 	H 	0.06210 0.11430 0.96250 0.26600
H 	H 	0.36600 0.04710 0.92740 0.07200
H 	H 	0.39750 0.94690 0.09000 0.06800
H 	H 	0.49730 0.87810 0.91180 0.09100
H 	H 	0.10430 0.70050 0.19310 -0.00700
H 	H 	0.05550 0.55100 0.15740 0.08100
H 	H 	0.00870 0.58200 0.87630 0.08300
H 	H 	0.07170 0.72920 0.91840 -0.03300
H 	H 	0.56210 0.88570 0.53750 0.27000
H 	H 	0.86600 0.95290 0.57260 0.06600
H 	H 	0.89750 0.05310 0.41000 0.07700
H 	H 	0.99730 0.12190 0.58820 0.09000
H 	H 	0.60430 0.29950 0.30690 -0.00700
H 	H 	0.55550 0.44900 0.34260 0.08200
H 	H 	0.50870 0.41800 0.62370 0.08300
H 	H 	0.57170 0.27080 0.58160 -0.03400
H 	H 	0.93790 0.88570 0.03750 0.26600
H 	H 	0.63400 0.95290 0.07260 0.07200
H 	H 	0.60250 0.05310 0.91000 0.06800
H 	H 	0.50270 0.12190 0.08820 0.09100
H 	H 	0.89570 0.29950 0.80690 -0.00700
H 	H 	0.94450 0.44900 0.84260 0.08100
H 	H 	0.99130 0.41800 0.12370 0.08300
H 	H 	0.92830 0.27080 0.08160 -0.03300
H 	H 	0.43790 0.11430 0.46250 0.27000
H 	H 	0.13400 0.04710 0.42740 0.06600
H 	H 	0.10250 0.94690 0.59000 0.07700
H 	H 	0.00270 0.87810 0.41180 0.09000
H 	H 	0.39570 0.70050 0.69310 -0.00700
H 	H 	0.44450 0.55100 0.65740 0.08200
H 	H 	0.49130 0.58200 0.37630 0.08300
H 	H 	0.42830 0.72920 0.41840 -0.03400
C 	C 	0.37820 0.98850 0.95100 -0.09700
C 	C 	0.39380 0.00630 0.06670 -0.11400
C 	C 	0.49150 0.94100 0.89810 -0.10800
C 	C 	0.26440 0.92900 0.92610 0.33900
C 	C 	0.28080 0.05560 0.11130 0.35400
C 	C 	0.47550 0.94090 0.78500 0.39300
C 	C 	0.08760 0.67600 0.12640 0.09800
C 	C 	0.05460 0.58640 0.10610 -0.15600
C 	C 	0.02050 0.54830 0.01180 0.07000
C 	C 	0.02890 0.60370 0.94290 -0.16200
C 	C 	0.06730 0.69320 0.96910 0.11500
C 	C 	0.87820 0.01150 0.54900 -0.08700
C 	C 	0.89380 0.99370 0.43330 -0.13400
C 	C 	0.99150 0.05900 0.60190 -0.09800
C 	C 	0.76440 0.07100 0.57390 0.33600
C 	C 	0.78080 0.94440 0.38870 0.35800
C 	C 	0.97550 0.05910 0.71500 0.38900
C 	C 	0.58760 0.32400 0.37360 0.09900
C 	C 	0.55460 0.41360 0.39390 -0.15800
C 	C 	0.52050 0.45170 0.48820 0.07400
C 	C 	0.52890 0.39630 0.55710 -0.16700
C 	C 	0.56730 0.30680 0.53090 0.11300
C 	C 	0.62180 0.01150 0.04900 -0.09700
C 	C 	0.60620 0.99370 0.93330 -0.11400
C 	C 	0.50850 0.05900 0.10190 -0.10800
C 	C 	0.73560 0.07100 0.07390 0.33900
C 	C 	0.71920 0.94440 0.88870 0.35400
C 	C 	0.52450 0.05910 0.21500 0.39300
C 	C 	0.91240 0.32400 0.87360 0.09800
C 	C 	0.94540 0.41360 0.89390 -0.15600
C 	C 	0.97950 0.45170 0.98820 0.07000
C 	C 	0.97110 0.39630 0.05710 -0.16200
C 	C 	0.93270 0.30680 0.03090 0.11500
C 	C 	0.12180 0.98850 0.45100 -0.08700
C 	C 	0.10620 0.00630 0.56670 -0.13400
C 	C 	0.00850 0.94100 0.39810 -0.09800
C 	C 	0.23560 0.92900 0.42610 0.33600
C 	C 	0.21920 0.05560 0.61130 0.35800
C 	C 	0.02450 0.94090 0.28500 0.38900
C 	C 	0.41240 0.67600 0.62640 0.09900
C 	C 	0.44540 0.58640 0.60610 -0.15800
C 	C 	0.47950 0.54830 0.51180 0.07400
C 	C 	0.47110 0.60370 0.44290 -0.16700
C 	C 	0.43270 0.69320 0.46910 0.11300
N 	N 	0.09720 0.72970 0.05860 -0.25900
N 	N 	0.59720 0.27030 0.44140 -0.25800
N 	N 	0.90280 0.27030 0.94140 -0.25900
N 	N 	0.40280 0.72970 0.55860 -0.25800
O 	O 	0.18570 0.95890 0.87320 -0.41200
O 	O 	0.25600 0.85540 0.96220 -0.41100
O 	O 	0.18650 0.00650 0.11300 -0.52300
O 	O 	0.28200 0.13880 0.14100 -0.29500
O 	O 	0.42590 0.87280 0.73450 -0.43400
O 	O 	0.50940 0.01050 0.75170 -0.44300
O 	O 	0.99840 0.08500 0.97250 -0.76000
O 	O 	0.68570 0.04110 0.62680 -0.41300
O 	O 	0.75600 0.14460 0.53780 -0.41200
O 	O 	0.68650 0.99350 0.38700 -0.52200
O 	O 	0.78200 0.86120 0.35900 -0.29600
O 	O 	0.92590 0.12720 0.76550 -0.43300
O 	O 	0.00940 0.98950 0.74830 -0.43500
O 	O 	0.49840 0.91500 0.52750 -0.76600
O 	O 	0.81430 0.04110 0.12680 -0.41200
O 	O 	0.74400 0.14460 0.03780 -0.41100
O 	O 	0.81350 0.99350 0.88700 -0.52300
O 	O 	0.71800 0.86120 0.85900 -0.29500
O 	O 	0.57410 0.12720 0.26550 -0.43400
O 	O 	0.49060 0.98950 0.24830 -0.44300
O 	O 	0.00160 0.91500 0.02750 -0.76000
O 	O 	0.31430 0.95890 0.37320 -0.41300
O 	O 	0.24400 0.85540 0.46220 -0.41200
O 	O 	0.31350 0.00650 0.61300 -0.52200
O 	O 	0.21800 0.13880 0.64100 -0.29600
O 	O 	0.07410 0.87280 0.23450 -0.43300
O 	O 	0.99060 0.01050 0.25170 -0.43500
O 	O 	0.50160 0.08500 0.47250 -0.76600
