data_crystal

_cell_length_a 7.32850
_cell_length_b 7.32850
_cell_length_c 24.43100
_cell_angle_alpha 90.00000
_cell_angle_beta  90.00000
_cell_angle_gamma 120.00000

_symmetry_space_group_name_	'P 1'
_symmetry_space_group_name_H-M	'P 1'

loop_
_symmetry_equiv_pos_as_xyz
  x,y,z

loop_
_atom_site_label
_atom_site_type_symbol
_atom_site_fract_x
_atom_site_fract_y
_atom_site_fract_z
_atom_site_charge
O 	O 	0.33750 0.45060 0.13220 -0.33800
O 	O 	0.92200 0.29820 0.96490 -0.31100
O 	O 	0.14110 0.41730 0.03380 -0.35200
C 	C 	0.03240 0.42990 0.99860 0.43700
H 	H 	0.03310 0.55710 0.99690 -0.08500
O 	O 	0.54940 0.88690 0.46553 -0.30400
O 	O 	0.70180 0.62380 0.29823 -0.33300
O 	O 	0.58270 0.72380 0.36713 -0.33500
C 	C 	0.57010 0.60250 0.33193 0.46700
H 	H 	0.44290 0.47600 0.33023 -0.09300
O 	O 	0.11310 0.66250 0.79887 -0.32400
O 	O 	0.37620 0.07800 0.63157 -0.36200
O 	O 	0.27620 0.85890 0.70047 -0.35200
C 	C 	0.39750 0.96760 0.66527 0.49700
H 	H 	0.52400 0.96690 0.66357 -0.09400
O 	O 	0.66250 0.54940 0.63220 -0.32600
O 	O 	0.07800 0.70180 0.46490 -0.35600
O 	O 	0.85890 0.58270 0.53380 -0.34500
C 	C 	0.96760 0.57010 0.49860 0.49600
H 	H 	0.96690 0.44290 0.49690 -0.09600
O 	O 	0.45060 0.11310 0.96553 -0.31600
O 	O 	0.29820 0.37620 0.79823 -0.34600
O 	O 	0.41730 0.27620 0.86713 -0.35000
C 	C 	0.42990 0.39750 0.83193 0.46800
H 	H 	0.55710 0.52400 0.83023 -0.08900
O 	O 	0.88690 0.33750 0.29887 -0.31100
O 	O 	0.62380 0.92200 0.13157 -0.30500
O 	O 	0.72380 0.14110 0.20047 -0.33100
C 	C 	0.60250 0.03240 0.16527 0.41700
H 	H 	0.47600 0.03310 0.16357 -0.08400
O 	O 	0.45060 0.33750 0.20113 -0.33800
O 	O 	0.29820 0.92200 0.36843 -0.31000
O 	O 	0.41730 0.14110 0.29953 -0.33900
C 	C 	0.42990 0.03240 0.33473 0.41600
H 	H 	0.55710 0.03310 0.33643 -0.08100
O 	O 	0.88690 0.54940 0.86780 -0.30300
O 	O 	0.62380 0.70180 0.03510 -0.32900
O 	O 	0.72380 0.58270 0.96620 -0.32100
C 	C 	0.60250 0.57010 0.00140 0.44400
H 	H 	0.47600 0.44290 0.00310 -0.08900
O 	O 	0.66250 0.11310 0.53447 -0.32400
O 	O 	0.07800 0.37620 0.70177 -0.36300
O 	O 	0.85890 0.27620 0.63287 -0.35200
C 	C 	0.96760 0.39750 0.66807 0.49900
H 	H 	0.96690 0.52400 0.66977 -0.09500
O 	O 	0.54940 0.66250 0.70113 -0.32600
O 	O 	0.70180 0.07800 0.86843 -0.35300
O 	O 	0.58270 0.85890 0.79953 -0.34500
C 	C 	0.57010 0.96760 0.83473 0.49400
H 	H 	0.44290 0.96690 0.83643 -0.09500
O 	O 	0.11310 0.45060 0.36780 -0.32900
O 	O 	0.37620 0.29820 0.53510 -0.34600
O 	O 	0.27620 0.41730 0.46620 -0.35000
C 	C 	0.39750 0.42990 0.50140 0.46800
H 	H 	0.52400 0.55710 0.50310 -0.08900
O 	O 	0.33750 0.88690 0.03447 -0.30900
O 	O 	0.92200 0.62380 0.20177 -0.30500
O 	O 	0.14110 0.72380 0.13287 -0.33200
C 	C 	0.03240 0.60250 0.16807 0.41700
H 	H 	0.03310 0.47600 0.16977 -0.08400
Cu	Cu	0.36451 0.68226 0.08333 0.95400
Cu	Cu	0.31774 0.68226 0.41667 0.95500
Cu	Cu	0.31774 0.63549 0.75000 0.95600
Cu	Cu	0.63549 0.31774 0.58333 0.95600
Cu	Cu	0.68226 0.31774 0.91667 0.95500
Cu	Cu	0.68225 0.36451 0.25000 0.95400
C 	C 	0.47700 0.47700 0.16667 0.39200
H 	H 	0.60390 0.60390 0.16667 -0.06500
C 	C 	0.52300 0.00000 0.50000 0.35200
H 	H 	0.39610 0.00000 0.50000 -0.06300
C 	C 	0.00000 0.52300 0.83333 0.35100
H 	H 	-0.00000 0.39610 0.83333 -0.06300
C 	C 	0.52300 0.52300 0.66667 0.38900
H 	H 	0.39610 0.39610 0.66667 -0.06900
C 	C 	0.47700 0.00000 -0.00000 0.33500
H 	H 	0.60390 0.00000 -0.00000 -0.05900
C 	C 	0.00000 0.47700 0.33333 0.35600
H 	H 	-0.00000 0.60390 0.33333 -0.06100
