data_crystal

_cell_length_a 7.80800
_cell_length_b 17.45600
_cell_length_c 18.31250
_cell_angle_alpha 90.00000
_cell_angle_beta  97.72120
_cell_angle_gamma 90.00000

_symmetry_space_group_name_	'P 1'
_symmetry_space_group_name_H-M	'P 1'

loop_
_symmetry_equiv_pos_as_xyz
  x,y,z

loop_
_atom_site_label
_atom_site_type_symbol
_atom_site_fract_x
_atom_site_fract_y
_atom_site_fract_z
_atom_site_charge
Zn	Zn	0.84572 0.37996 0.38647 1.18400
Zn	Zn	0.34572 0.12004 0.88647 1.18400
Zn	Zn	0.98933 0.20199 0.78017 1.23600
Zn	Zn	0.15428 0.62004 0.61353 1.18400
Zn	Zn	0.01067 0.79801 0.21983 1.23600
Zn	Zn	0.51067 0.70199 0.71983 1.23700
Zn	Zn	0.48933 0.29801 0.28017 1.23700
Zn	Zn	0.65428 0.87996 0.11353 1.18400
H 	H 	0.59360 0.54000 0.97250 0.19300
H 	H 	0.45520 0.96490 0.52860 0.29400
H 	H 	0.26600 0.39860 0.72430 0.05900
H 	H 	0.95520 0.53510 0.02860 0.28200
H 	H 	0.17310 0.51000 0.92950 0.29600
H 	H 	0.94830 0.19480 0.48650 -0.06300
H 	H 	0.90300 0.50740 0.87020 -0.15900
H 	H 	0.69420 0.60760 0.93980 0.20700
H 	H 	0.76600 0.10140 0.22430 0.05800
H 	H 	0.71400 0.59550 0.10030 -0.13400
H 	H 	0.27600 0.73940 0.03550 0.08000
H 	H 	0.29620 0.72260 0.43060 0.06100
H 	H 	0.72400 0.26060 0.96450 0.08000
H 	H 	0.53940 0.02450 0.32270 -0.15000
H 	H 	0.21100 0.98710 0.28250 0.10200
H 	H 	0.82930 0.79310 0.65950 0.10600
H 	H 	0.22400 0.23940 0.46450 0.08300
H 	H 	0.40300 0.99260 0.37020 -0.17000
H 	H 	0.19420 0.89240 0.43980 0.21000
H 	H 	0.86530 0.34350 0.16800 0.09400
H 	H 	0.15610 0.35860 0.94070 -0.13200
H 	H 	0.71100 0.51290 0.78250 0.10400
H 	H 	0.40640 0.46000 0.02750 0.19200
H 	H 	0.36530 0.15650 0.66800 0.09500
H 	H 	0.55170 0.69480 0.01350 -0.06300
H 	H 	0.30580 0.39240 0.06020 0.20700
H 	H 	0.96060 0.52450 0.17730 -0.13800
H 	H 	0.79620 0.77740 0.93060 0.06100
H 	H 	0.67070 0.29310 0.84050 0.10600
H 	H 	0.78600 0.09550 0.39970 -0.14400
H 	H 	0.28900 0.48710 0.21750 0.10400
H 	H 	0.82690 0.49000 0.07050 0.29600
H 	H 	0.32930 0.70690 0.15950 0.10600
H 	H 	0.78900 0.01290 0.71750 0.10200
H 	H 	0.59700 0.00740 0.62980 -0.17000
H 	H 	0.17070 0.20690 0.34050 0.10600
H 	H 	0.67310 0.99000 0.42950 0.30900
H 	H 	0.77600 0.76060 0.53550 0.08300
H 	H 	0.93820 0.87420 0.53460 -0.05900
H 	H 	0.34390 0.85860 0.55930 -0.14200
H 	H 	0.44830 0.30520 0.98650 -0.06300
H 	H 	0.73400 0.60140 0.27570 0.05900
H 	H 	0.46060 0.97550 0.67730 -0.15000
H 	H 	0.54480 0.03510 0.47140 0.29300
H 	H 	0.63470 0.84350 0.33200 0.09500
H 	H 	0.09360 0.96000 0.47250 0.19400
H 	H 	0.70380 0.27740 0.56940 0.06100
H 	H 	0.03940 0.47550 0.82270 -0.13800
H 	H 	0.13470 0.65650 0.83200 0.09400
H 	H 	0.04480 0.46490 0.97140 0.28200
H 	H 	0.32690 0.01000 0.57050 0.30900
H 	H 	0.09700 0.49260 0.12980 -0.15900
H 	H 	0.90640 0.04000 0.52750 0.19400
H 	H 	0.20380 0.22260 0.06940 0.06100
H 	H 	0.56180 0.37420 0.96540 -0.06100
H 	H 	0.65610 0.14140 0.44070 -0.14200
H 	H 	0.43820 0.62580 0.03460 -0.06100
H 	H 	0.80580 0.10760 0.56020 0.21000
H 	H 	0.28600 0.40450 0.89970 -0.13400
H 	H 	0.06180 0.12580 0.46540 -0.05900
H 	H 	0.21400 0.90450 0.60030 -0.14400
H 	H 	0.23400 0.89860 0.77570 0.05800
H 	H 	0.84390 0.64140 0.05930 -0.13200
H 	H 	0.05170 0.80520 0.51350 -0.06300
C 	C 	0.44940 0.33570 0.78640 -0.03000
C 	C 	0.49910 0.35390 0.00340 0.30700
C 	C 	0.14680 0.03210 0.28220 -0.16000
C 	C 	0.90510 0.75560 0.93160 -0.03100
C 	C 	0.01880 0.53480 0.13480 0.60000
C 	C 	0.80730 0.26720 0.00530 -0.13000
C 	C 	0.47240 0.69960 0.56140 0.39300
C 	C 	0.00090 0.85390 0.49660 0.30500
C 	C 	0.99910 0.14610 0.50340 0.30500
C 	C 	0.62050 0.33700 0.81800 -0.15000
C 	C 	0.05510 0.28520 0.12930 -0.01800
C 	C 	0.87870 0.10010 0.24850 -0.01600
C 	C 	0.16260 0.76830 0.70140 0.37900
C 	C 	0.87950 0.83700 0.68200 -0.14900
C 	C 	0.76930 0.30790 0.06610 0.19300
C 	C 	0.60730 0.81630 0.37260 -0.14500
C 	C 	0.89890 0.96270 0.21280 0.38500
C 	C 	0.10730 0.68370 0.87260 -0.14200
C 	C 	0.63990 0.59120 0.98180 -0.54800
C 	C 	0.69270 0.76720 0.49470 -0.13500
C 	C 	0.02720 0.76390 0.99380 -0.05200
C 	C 	0.39890 0.53730 0.71280 0.38300
C 	C 	0.50090 0.64610 0.99660 0.30700
C 	C 	0.37950 0.66300 0.18200 -0.15000
C 	C 	0.40510 0.74440 0.43160 -0.03400
C 	C 	0.60710 0.03710 0.42910 -0.94900
C 	C 	0.64680 0.46790 0.78220 -0.16400
C 	C 	0.66260 0.73170 0.20140 0.37900
C 	C 	0.47700 0.46520 0.74690 -0.03900
C 	C 	0.52760 0.30040 0.43860 0.39300
C 	C 	0.23070 0.69210 0.93390 0.19300
C 	C 	0.55510 0.21480 0.62930 -0.01600
C 	C 	0.02760 0.19960 0.93860 0.39900
C 	C 	0.97280 0.23610 0.00620 -0.05200
C 	C 	0.33740 0.26830 0.79860 0.37900
C 	C 	0.71750 0.40310 0.81650 0.23800
C 	C 	0.73070 0.80790 0.43390 0.19500
C 	C 	0.69350 0.20100 0.69310 0.29000
C 	C 	0.05060 0.83570 0.71360 -0.03100
C 	C 	0.12130 0.89990 0.75150 -0.01600
C 	C 	0.19350 0.29900 0.19310 0.29000
C 	C 	0.83740 0.23170 0.29860 0.37900
C 	C 	0.97240 0.80040 0.06140 0.39900
C 	C 	0.52300 0.53480 0.25310 -0.03900
C 	C 	0.48120 0.03480 0.36520 0.63600
C 	C 	0.47280 0.26390 0.50620 -0.04700
C 	C 	0.78000 0.59380 0.05900 0.59000
C 	C 	0.10110 0.03730 0.78720 0.38500
C 	C 	0.12050 0.16300 0.31800 -0.14900
C 	C 	0.85320 0.96790 0.71780 -0.16000
C 	C 	0.36010 0.40880 0.01820 -0.54800
C 	C 	0.55060 0.66430 0.21360 -0.03000
C 	C 	0.51880 0.96520 0.63480 0.63600
C 	C 	0.72000 0.09380 0.44100 0.62200
C 	C 	0.89290 0.53710 0.07090 -0.90500
C 	C 	0.94490 0.71480 0.87070 -0.01800
C 	C 	0.62130 0.60010 0.25150 -0.01800
C 	C 	0.02300 0.96520 0.75310 -0.04100
C 	C 	0.13990 0.90880 0.48180 -0.55800
C 	C 	0.09490 0.24440 0.06840 -0.03100
C 	C 	0.97700 0.03480 0.24690 -0.04100
C 	C 	0.60110 0.46270 0.28720 0.38300
C 	C 	0.78250 0.90310 0.68350 0.23900
C 	C 	0.80650 0.70100 0.80690 0.29000
C 	C 	0.10710 0.46290 0.92910 -0.90500
C 	C 	0.22000 0.40620 0.94100 0.59000
C 	C 	0.89270 0.31630 0.12740 -0.14200
C 	C 	0.44490 0.78520 0.37070 -0.01600
C 	C 	0.59490 0.25560 0.56840 -0.03400
C 	C 	0.39270 0.18370 0.62740 -0.14500
C 	C 	0.30730 0.23280 0.50530 -0.13500
C 	C 	0.19270 0.73280 0.99470 -0.13000
C 	C 	0.39290 0.96290 0.57090 -0.94900
C 	C 	0.26930 0.19210 0.56610 0.19500
C 	C 	0.35320 0.53210 0.21780 -0.16400
C 	C 	0.28250 0.59690 0.18350 0.23800
C 	C 	0.21750 0.09690 0.31650 0.23900
C 	C 	0.86010 0.09120 0.51820 -0.55800
C 	C 	0.98120 0.46520 0.86520 0.60000
C 	C 	0.28000 0.90620 0.55900 0.62200
C 	C 	0.52720 0.73610 0.49380 -0.04700
C 	C 	0.37870 0.39990 0.74850 -0.01800
C 	C 	0.30650 0.79900 0.30690 0.29000
C 	C 	0.94940 0.16430 0.28640 -0.03100
O 	O 	0.43870 0.59880 0.74300 -0.50800
O 	O 	0.93870 0.90120 0.24300 -0.50700
O 	O 	0.32720 0.25590 0.19910 -0.41400
O 	O 	0.79170 0.96940 0.15390 -0.50200
O 	O 	0.81840 0.72940 0.23100 -0.46400
O 	O 	0.16940 0.16680 0.94570 -0.50600
O 	O 	0.32330 0.85150 0.26300 -0.32900
O 	O 	0.88700 0.84340 0.43030 -0.29200
O 	O 	0.68160 0.22940 0.26900 -0.46600
O 	O 	0.59340 0.78470 0.16000 -0.50700
O 	O 	0.88360 0.39780 0.85190 -0.35400
O 	O 	0.07510 0.79400 0.12070 -0.48900
O 	O 	0.11300 0.15660 0.56970 -0.29200
O 	O 	0.40660 0.21530 0.84000 -0.50700
O 	O 	0.38700 0.65660 0.93030 -0.29300
O 	O 	0.83060 0.83320 0.05430 -0.50600
O 	O 	0.06130 0.09880 0.75700 -0.50700
O 	O 	0.17670 0.35150 0.23700 -0.32900
O 	O 	0.11640 0.60220 0.14810 -0.35400
O 	O 	0.09340 0.71530 0.66000 -0.50700
O 	O 	0.42490 0.29400 0.37930 -0.48500
O 	O 	0.38360 0.10220 0.35190 -0.36000
O 	O 	0.29170 0.53060 0.65390 -0.50200
O 	O 	0.82330 0.64850 0.76300 -0.32900
O 	O 	0.17280 0.75590 0.30090 -0.41500
O 	O 	0.67280 0.74410 0.80090 -0.41400
O 	O 	0.92490 0.20600 0.87930 -0.48900
O 	O 	0.56130 0.40120 0.25700 -0.50800
O 	O 	0.82720 0.24410 0.69910 -0.41500
O 	O 	0.31840 0.77060 0.73100 -0.46600
O 	O 	0.57510 0.70600 0.62070 -0.48500
O 	O 	0.61300 0.34340 0.06970 -0.29300
O 	O 	0.67670 0.14850 0.73700 -0.32900
O 	O 	0.33060 0.66680 0.55430 -0.50500
O 	O 	0.70830 0.46940 0.34610 -0.50200
O 	O 	0.18160 0.27060 0.76900 -0.46400
O 	O 	0.66940 0.33320 0.44570 -0.50500
O 	O 	0.90660 0.28470 0.34000 -0.50700
O 	O 	0.61640 0.89780 0.64810 -0.36000
O 	O 	0.20830 0.03060 0.84610 -0.50200
