data_crystal

_cell_length_a 12.91470
_cell_length_b 12.91470
_cell_length_c 12.91470
_cell_angle_alpha 90.00000
_cell_angle_beta  90.00000
_cell_angle_gamma 90.00000

_symmetry_space_group_name_	'P 1'
_symmetry_space_group_name_H-M	'P 1'

loop_
_symmetry_equiv_pos_as_xyz
  x,y,z

loop_
_atom_site_label
_atom_site_type_symbol
_atom_site_fract_x
_atom_site_fract_y
_atom_site_fract_z
_atom_site_charge
N 	N 	0.64311 0.94068 0.95666 -0.08100
N 	N 	0.72550 0.98155 0.96628 0.09200
N 	N 	0.80685 0.01692 0.97285 -0.11800
N 	N 	0.85689 0.05932 0.45666 -0.13800
N 	N 	0.77450 0.01845 0.46628 -0.11100
N 	N 	0.69315 0.98308 0.47285 0.01700
N 	N 	0.35689 0.44068 0.54334 -0.17600
N 	N 	0.27450 0.48155 0.53372 -0.02700
N 	N 	0.19315 0.51692 0.52715 -0.11600
N 	N 	0.14311 0.55932 0.04334 -0.22800
N 	N 	0.22550 0.51845 0.03372 -0.04700
N 	N 	0.30685 0.48308 0.02715 -0.14000
N 	N 	0.95666 0.64311 0.94068 -0.08200
N 	N 	0.96628 0.72550 0.98155 0.09100
N 	N 	0.97285 0.80685 0.01692 -0.11900
N 	N 	0.45666 0.85689 0.05932 -0.13900
N 	N 	0.46628 0.77450 0.01845 -0.11100
N 	N 	0.47285 0.69315 0.98308 0.01700
N 	N 	0.54334 0.35689 0.44068 -0.17600
N 	N 	0.53372 0.27450 0.48155 -0.02700
N 	N 	0.52715 0.19315 0.51692 -0.11600
N 	N 	0.04334 0.14311 0.55932 -0.22800
N 	N 	0.03372 0.22550 0.51845 -0.04700
N 	N 	0.02715 0.30685 0.48308 -0.14000
N 	N 	0.94068 0.95666 0.64311 -0.08200
N 	N 	0.98155 0.96628 0.72550 0.09100
N 	N 	0.01692 0.97285 0.80685 -0.11900
N 	N 	0.05932 0.45666 0.85689 -0.13900
N 	N 	0.01845 0.46628 0.77450 -0.11100
N 	N 	0.98308 0.47285 0.69315 0.01700
N 	N 	0.44068 0.54334 0.35689 -0.17600
N 	N 	0.48155 0.53372 0.27450 -0.02700
N 	N 	0.51692 0.52715 0.19315 -0.11600
N 	N 	0.55932 0.04334 0.14311 -0.22800
N 	N 	0.51845 0.03372 0.22550 -0.04700
N 	N 	0.48308 0.02715 0.30685 -0.14000
N 	N 	0.35689 0.05932 0.04334 -0.22300
N 	N 	0.27450 0.01845 0.03372 -0.14200
N 	N 	0.19315 0.98308 0.02715 -0.04700
N 	N 	0.14311 0.94068 0.54334 -0.16200
N 	N 	0.22550 0.98155 0.53372 0.06900
N 	N 	0.30685 0.01692 0.52715 -0.20000
N 	N 	0.64311 0.55932 0.45666 -0.16500
N 	N 	0.72550 0.51845 0.46628 -0.02000
N 	N 	0.80685 0.48308 0.47285 -0.06700
N 	N 	0.85689 0.44068 0.95666 -0.07600
N 	N 	0.77450 0.48155 0.96628 0.00300
N 	N 	0.69315 0.51692 0.97285 -0.04200
N 	N 	0.04334 0.35689 0.05932 -0.22300
N 	N 	0.03372 0.27450 0.01845 -0.14200
N 	N 	0.02715 0.19315 0.98308 -0.04700
N 	N 	0.54334 0.14311 0.94068 -0.16200
N 	N 	0.53372 0.22550 0.98155 0.06900
N 	N 	0.52715 0.30685 0.01692 -0.20000
N 	N 	0.45666 0.64311 0.55932 -0.16500
N 	N 	0.46628 0.72550 0.51845 -0.02000
N 	N 	0.47285 0.80685 0.48308 -0.06700
N 	N 	0.95666 0.85689 0.44068 -0.07600
N 	N 	0.96628 0.77450 0.48155 0.00300
N 	N 	0.97285 0.69315 0.51692 -0.04200
N 	N 	0.05932 0.04334 0.35689 -0.22300
N 	N 	0.01845 0.03372 0.27450 -0.14200
N 	N 	0.98308 0.02715 0.19315 -0.04700
N 	N 	0.94068 0.54334 0.14311 -0.16200
N 	N 	0.98155 0.53372 0.22550 0.06900
N 	N 	0.01692 0.52715 0.30685 -0.20000
N 	N 	0.55932 0.45666 0.64311 -0.16500
N 	N 	0.51845 0.46628 0.72550 -0.02000
N 	N 	0.48308 0.47285 0.80685 -0.06700
N 	N 	0.44068 0.95666 0.85689 -0.07600
N 	N 	0.48155 0.96628 0.77450 0.00300
N 	N 	0.51692 0.97285 0.69315 -0.04200
Fe	Fe	0.50000 0.00000 -0.00000 1.02100
Fe	Fe	0.00000 0.00000 0.50000 1.02100
Fe	Fe	0.50000 0.50000 0.50000 1.16400
Fe	Fe	-0.00000 0.50000 -0.00000 1.02100
Na	Na	-0.00000 0.00000 -0.00000 0.52400
Na	Na	0.50000 0.00000 0.50000 0.56400
Na	Na	0.00000 0.50000 0.50000 0.56400
Na	Na	0.50000 0.50000 -0.00000 0.56400
