data_crystal

_cell_length_a 12.82590
_cell_length_b 12.82590
_cell_length_c 12.82590
_cell_angle_alpha 90.00000
_cell_angle_beta  90.00000
_cell_angle_gamma 90.00000

_symmetry_space_group_name_	'P 1'
_symmetry_space_group_name_H-M	'P 1'

loop_
_symmetry_equiv_pos_as_xyz
  x,y,z

loop_
_atom_site_label
_atom_site_type_symbol
_atom_site_fract_x
_atom_site_fract_y
_atom_site_fract_z
_atom_site_charge
N 	N 	0.64298 0.93825 0.95534 -0.08000
N 	N 	0.72564 0.98011 0.96431 0.09000
N 	N 	0.80746 0.01774 0.97076 -0.11800
N 	N 	0.85702 0.06175 0.45534 -0.13800
N 	N 	0.77436 0.01989 0.46431 -0.11100
N 	N 	0.69254 0.98226 0.47076 0.01700
N 	N 	0.35702 0.43825 0.54466 -0.17500
N 	N 	0.27436 0.48011 0.53569 -0.02800
N 	N 	0.19254 0.51774 0.52924 -0.11600
N 	N 	0.14298 0.56175 0.04466 -0.22800
N 	N 	0.22564 0.51989 0.03569 -0.04800
N 	N 	0.30746 0.48226 0.02924 -0.14000
N 	N 	0.95534 0.64298 0.93825 -0.08100
N 	N 	0.96431 0.72564 0.98011 0.09000
N 	N 	0.97076 0.80746 0.01774 -0.11800
N 	N 	0.45534 0.85702 0.06175 -0.13800
N 	N 	0.46431 0.77436 0.01989 -0.11100
N 	N 	0.47076 0.69254 0.98226 0.01700
N 	N 	0.54466 0.35702 0.43825 -0.17500
N 	N 	0.53569 0.27436 0.48011 -0.02800
N 	N 	0.52924 0.19254 0.51774 -0.11600
N 	N 	0.04466 0.14298 0.56175 -0.22800
N 	N 	0.03569 0.22564 0.51989 -0.04800
N 	N 	0.02924 0.30746 0.48226 -0.14000
N 	N 	0.93825 0.95534 0.64298 -0.08100
N 	N 	0.98011 0.96431 0.72564 0.09000
N 	N 	0.01774 0.97076 0.80746 -0.11800
N 	N 	0.06175 0.45534 0.85702 -0.13800
N 	N 	0.01989 0.46431 0.77436 -0.11100
N 	N 	0.98226 0.47076 0.69254 0.01700
N 	N 	0.43825 0.54466 0.35702 -0.17500
N 	N 	0.48011 0.53569 0.27436 -0.02800
N 	N 	0.51774 0.52924 0.19254 -0.11600
N 	N 	0.56175 0.04466 0.14298 -0.22800
N 	N 	0.51989 0.03569 0.22564 -0.04800
N 	N 	0.48226 0.02924 0.30746 -0.14000
N 	N 	0.35702 0.06175 0.04466 -0.22200
N 	N 	0.27436 0.01989 0.03569 -0.14300
N 	N 	0.19254 0.98226 0.02924 -0.04800
N 	N 	0.14298 0.93825 0.54466 -0.16100
N 	N 	0.22564 0.98011 0.53569 0.06800
N 	N 	0.30746 0.01774 0.52924 -0.20000
N 	N 	0.64298 0.56175 0.45534 -0.16400
N 	N 	0.72564 0.51989 0.46431 -0.02100
N 	N 	0.80746 0.48226 0.47076 -0.06700
N 	N 	0.85702 0.43825 0.95534 -0.07400
N 	N 	0.77436 0.48011 0.96431 0.00300
N 	N 	0.69254 0.51774 0.97076 -0.04200
N 	N 	0.04466 0.35702 0.06175 -0.22200
N 	N 	0.03569 0.27436 0.01989 -0.14300
N 	N 	0.02924 0.19254 0.98226 -0.04800
N 	N 	0.54466 0.14298 0.93825 -0.16100
N 	N 	0.53569 0.22564 0.98011 0.06800
N 	N 	0.52924 0.30746 0.01774 -0.20000
N 	N 	0.45534 0.64298 0.56175 -0.16400
N 	N 	0.46431 0.72564 0.51989 -0.02100
N 	N 	0.47076 0.80746 0.48226 -0.06700
N 	N 	0.95534 0.85702 0.43825 -0.07400
N 	N 	0.96431 0.77436 0.48011 0.00300
N 	N 	0.97076 0.69254 0.51774 -0.04200
N 	N 	0.06175 0.04466 0.35702 -0.22200
N 	N 	0.01989 0.03569 0.27436 -0.14300
N 	N 	0.98226 0.02924 0.19254 -0.04800
N 	N 	0.93825 0.54466 0.14298 -0.16100
N 	N 	0.98011 0.53569 0.22564 0.06800
N 	N 	0.01774 0.52924 0.30746 -0.20000
N 	N 	0.56175 0.45534 0.64298 -0.16400
N 	N 	0.51989 0.46431 0.72564 -0.02100
N 	N 	0.48226 0.47076 0.80746 -0.06700
N 	N 	0.43825 0.95534 0.85702 -0.07400
N 	N 	0.48011 0.96431 0.77436 0.00300
N 	N 	0.51774 0.97076 0.69254 -0.04200
Fe	Fe	0.50000 0.00000 -0.00000 1.02000
Fe	Fe	0.00000 0.00000 0.50000 1.02000
Fe	Fe	0.50000 0.50000 0.50000 1.16400
Fe	Fe	-0.00000 0.50000 -0.00000 1.02000
Na	Na	-0.00000 0.00000 -0.00000 0.52400
Na	Na	0.50000 0.00000 0.50000 0.56400
Na	Na	0.00000 0.50000 0.50000 0.56400
Na	Na	0.50000 0.50000 -0.00000 0.56400
