data_crystal

_cell_length_a 12.89870
_cell_length_b 12.89870
_cell_length_c 12.89870
_cell_angle_alpha 90.00000
_cell_angle_beta  90.00000
_cell_angle_gamma 90.00000

_symmetry_space_group_name_	'P 1'
_symmetry_space_group_name_H-M	'P 1'

loop_
_symmetry_equiv_pos_as_xyz
  x,y,z

loop_
_atom_site_label
_atom_site_type_symbol
_atom_site_fract_x
_atom_site_fract_y
_atom_site_fract_z
_atom_site_charge
N 	N 	0.64301 0.93989 0.95619 -0.08100
N 	N 	0.72548 0.98096 0.96543 0.09000
N 	N 	0.80704 0.01736 0.97196 -0.11800
N 	N 	0.85699 0.06011 0.45619 -0.13900
N 	N 	0.77452 0.01904 0.46543 -0.11100
N 	N 	0.69296 0.98264 0.47196 0.01700
N 	N 	0.35699 0.43989 0.54381 -0.17500
N 	N 	0.27452 0.48096 0.53457 -0.02700
N 	N 	0.19296 0.51736 0.52804 -0.11600
N 	N 	0.14301 0.56011 0.04381 -0.22800
N 	N 	0.22548 0.51904 0.03457 -0.04800
N 	N 	0.30704 0.48264 0.02804 -0.14000
N 	N 	0.95619 0.64301 0.93989 -0.08200
N 	N 	0.96543 0.72548 0.98096 0.09000
N 	N 	0.97196 0.80704 0.01736 -0.11800
N 	N 	0.45619 0.85699 0.06011 -0.13900
N 	N 	0.46543 0.77452 0.01904 -0.11100
N 	N 	0.47196 0.69296 0.98264 0.01700
N 	N 	0.54381 0.35699 0.43989 -0.17500
N 	N 	0.53457 0.27452 0.48096 -0.02700
N 	N 	0.52804 0.19296 0.51736 -0.11600
N 	N 	0.04381 0.14301 0.56011 -0.22800
N 	N 	0.03457 0.22548 0.51904 -0.04800
N 	N 	0.02804 0.30704 0.48264 -0.14000
N 	N 	0.93989 0.95619 0.64301 -0.08200
N 	N 	0.98096 0.96543 0.72548 0.09000
N 	N 	0.01736 0.97196 0.80704 -0.11800
N 	N 	0.06011 0.45619 0.85699 -0.13900
N 	N 	0.01904 0.46543 0.77452 -0.11100
N 	N 	0.98264 0.47196 0.69296 0.01700
N 	N 	0.43989 0.54381 0.35699 -0.17500
N 	N 	0.48096 0.53457 0.27452 -0.02700
N 	N 	0.51736 0.52804 0.19296 -0.11600
N 	N 	0.56011 0.04381 0.14301 -0.22800
N 	N 	0.51904 0.03457 0.22548 -0.04800
N 	N 	0.48264 0.02804 0.30704 -0.14000
N 	N 	0.35699 0.06011 0.04381 -0.22300
N 	N 	0.27452 0.01904 0.03457 -0.14200
N 	N 	0.19296 0.98264 0.02804 -0.04700
N 	N 	0.14301 0.93989 0.54381 -0.16100
N 	N 	0.22548 0.98096 0.53457 0.06800
N 	N 	0.30704 0.01736 0.52804 -0.20000
N 	N 	0.64301 0.56011 0.45619 -0.16400
N 	N 	0.72548 0.51904 0.46543 -0.02000
N 	N 	0.80704 0.48264 0.47196 -0.06700
N 	N 	0.85699 0.43989 0.95619 -0.07500
N 	N 	0.77452 0.48096 0.96543 0.00300
N 	N 	0.69296 0.51736 0.97196 -0.04200
N 	N 	0.04381 0.35699 0.06011 -0.22300
N 	N 	0.03457 0.27452 0.01904 -0.14200
N 	N 	0.02804 0.19296 0.98264 -0.04700
N 	N 	0.54381 0.14301 0.93989 -0.16100
N 	N 	0.53457 0.22548 0.98096 0.06800
N 	N 	0.52804 0.30704 0.01736 -0.20000
N 	N 	0.45619 0.64301 0.56011 -0.16400
N 	N 	0.46543 0.72548 0.51904 -0.02000
N 	N 	0.47196 0.80704 0.48264 -0.06700
N 	N 	0.95619 0.85699 0.43989 -0.07500
N 	N 	0.96543 0.77452 0.48096 0.00300
N 	N 	0.97196 0.69296 0.51736 -0.04200
N 	N 	0.06011 0.04381 0.35699 -0.22300
N 	N 	0.01904 0.03457 0.27452 -0.14200
N 	N 	0.98264 0.02804 0.19296 -0.04700
N 	N 	0.93989 0.54381 0.14301 -0.16100
N 	N 	0.98096 0.53457 0.22548 0.06800
N 	N 	0.01736 0.52804 0.30704 -0.20000
N 	N 	0.56011 0.45619 0.64301 -0.16400
N 	N 	0.51904 0.46543 0.72548 -0.02000
N 	N 	0.48264 0.47196 0.80704 -0.06700
N 	N 	0.43989 0.95619 0.85699 -0.07500
N 	N 	0.48096 0.96543 0.77452 0.00300
N 	N 	0.51736 0.97196 0.69296 -0.04200
Fe	Fe	0.50000 0.00000 -0.00000 1.02000
Fe	Fe	-0.00000 -0.00000 0.50000 1.02000
Fe	Fe	0.50000 0.50000 0.50000 1.16400
Fe	Fe	-0.00000 0.50000 -0.00000 1.02000
Na	Na	-0.00000 0.00000 -0.00000 0.52400
Na	Na	0.50000 -0.00000 0.50000 0.56400
Na	Na	-0.00000 0.50000 0.50000 0.56400
Na	Na	0.50000 0.50000 -0.00000 0.56400
