data_crystal

_cell_length_a 13.22350
_cell_length_b 13.22350
_cell_length_c 13.22350
_cell_angle_alpha 90.00000
_cell_angle_beta  90.00000
_cell_angle_gamma 90.00000

_symmetry_space_group_name_	'P 1'
_symmetry_space_group_name_H-M	'P 1'

loop_
_symmetry_equiv_pos_as_xyz
  x,y,z

loop_
_atom_site_label
_atom_site_type_symbol
_atom_site_fract_x
_atom_site_fract_y
_atom_site_fract_z
_atom_site_charge
N 	N 	0.63712 0.93657 0.95544 -0.08200
N 	N 	0.71552 0.98061 0.96162 0.08800
N 	N 	0.79247 0.02080 0.96570 -0.12100
N 	N 	0.86288 0.06343 0.45544 -0.13700
N 	N 	0.78448 0.01939 0.46162 -0.11700
N 	N 	0.70753 0.97920 0.46570 0.01600
N 	N 	0.36288 0.43657 0.54456 -0.17700
N 	N 	0.28448 0.48061 0.53838 -0.03300
N 	N 	0.20753 0.52080 0.53430 -0.11600
N 	N 	0.13712 0.56343 0.04456 -0.23100
N 	N 	0.21552 0.51939 0.03838 -0.05300
N 	N 	0.29247 0.47920 0.03430 -0.14200
N 	N 	0.95544 0.63712 0.93657 -0.08300
N 	N 	0.96162 0.71552 0.98061 0.08700
N 	N 	0.96570 0.79247 0.02080 -0.12200
N 	N 	0.45544 0.86288 0.06343 -0.13800
N 	N 	0.46162 0.78448 0.01939 -0.11800
N 	N 	0.46570 0.70753 0.97920 0.01500
N 	N 	0.54456 0.36288 0.43657 -0.17700
N 	N 	0.53838 0.28448 0.48061 -0.03300
N 	N 	0.53430 0.20753 0.52080 -0.11600
N 	N 	0.04456 0.13712 0.56343 -0.23100
N 	N 	0.03838 0.21552 0.51939 -0.05300
N 	N 	0.03430 0.29247 0.47920 -0.14200
N 	N 	0.93657 0.95544 0.63712 -0.08300
N 	N 	0.98061 0.96162 0.71552 0.08700
N 	N 	0.02080 0.96570 0.79247 -0.12200
N 	N 	0.06343 0.45544 0.86288 -0.13800
N 	N 	0.01939 0.46162 0.78448 -0.11800
N 	N 	0.97920 0.46570 0.70753 0.01500
N 	N 	0.43657 0.54456 0.36288 -0.17700
N 	N 	0.48061 0.53838 0.28448 -0.03300
N 	N 	0.52080 0.53430 0.20753 -0.11600
N 	N 	0.56343 0.04456 0.13712 -0.23100
N 	N 	0.51939 0.03838 0.21552 -0.05300
N 	N 	0.47920 0.03430 0.29247 -0.14200
N 	N 	0.36288 0.06343 0.04456 -0.22300
N 	N 	0.28448 0.01939 0.03838 -0.14900
N 	N 	0.20753 0.97920 0.03430 -0.04500
N 	N 	0.13712 0.93657 0.54456 -0.16500
N 	N 	0.21552 0.98061 0.53838 0.06500
N 	N 	0.29247 0.02080 0.53430 -0.20300
N 	N 	0.63712 0.56343 0.45544 -0.16500
N 	N 	0.71552 0.51939 0.46162 -0.02600
N 	N 	0.79247 0.47920 0.46570 -0.07200
N 	N 	0.86288 0.43657 0.95544 -0.07500
N 	N 	0.78448 0.48061 0.96162 -0.00300
N 	N 	0.70753 0.52080 0.96570 -0.04500
N 	N 	0.04456 0.36288 0.06343 -0.22300
N 	N 	0.03838 0.28448 0.01939 -0.14900
N 	N 	0.03430 0.20753 0.97920 -0.04500
N 	N 	0.54456 0.13712 0.93657 -0.16500
N 	N 	0.53838 0.21552 0.98061 0.06500
N 	N 	0.53430 0.29247 0.02080 -0.20300
N 	N 	0.45544 0.63712 0.56343 -0.16500
N 	N 	0.46162 0.71552 0.51939 -0.02600
N 	N 	0.46570 0.79247 0.47920 -0.07200
N 	N 	0.95544 0.86288 0.43657 -0.07500
N 	N 	0.96162 0.78448 0.48061 -0.00300
N 	N 	0.96570 0.70753 0.52080 -0.04500
N 	N 	0.06343 0.04456 0.36288 -0.22300
N 	N 	0.01939 0.03838 0.28448 -0.14900
N 	N 	0.97920 0.03430 0.20753 -0.04500
N 	N 	0.93657 0.54456 0.13712 -0.16500
N 	N 	0.98061 0.53838 0.21552 0.06500
N 	N 	0.02080 0.53430 0.29247 -0.20300
N 	N 	0.56343 0.45544 0.63712 -0.16500
N 	N 	0.51939 0.46162 0.71552 -0.02600
N 	N 	0.47920 0.46570 0.79247 -0.07200
N 	N 	0.43657 0.95544 0.86288 -0.07500
N 	N 	0.48061 0.96162 0.78448 -0.00300
N 	N 	0.52080 0.96570 0.70753 -0.04500
Fe	Fe	0.50000 0.00000 -0.00000 1.01700
Fe	Fe	0.00000 0.00000 0.50000 1.01700
Fe	Fe	0.50000 0.50000 0.50000 1.16200
Fe	Fe	0.00000 0.50000 -0.00000 1.01700
K 	K 	-0.00000 0.00000 -0.00000 0.56000
K 	K 	0.50000 0.00000 0.50000 0.62400
K 	K 	0.00000 0.50000 0.50000 0.62400
K 	K 	0.50000 0.50000 -0.00000 0.62400
