data_crystal

_cell_length_a 13.13190
_cell_length_b 13.13190
_cell_length_c 13.13190
_cell_angle_alpha 90.00000
_cell_angle_beta  90.00000
_cell_angle_gamma 90.00000

_symmetry_space_group_name_	'P 1'
_symmetry_space_group_name_H-M	'P 1'

loop_
_symmetry_equiv_pos_as_xyz
  x,y,z

loop_
_atom_site_label
_atom_site_type_symbol
_atom_site_fract_x
_atom_site_fract_y
_atom_site_fract_z
_atom_site_charge
N 	N 	0.63678 0.93413 0.95434 -0.08300
N 	N 	0.71535 0.97950 0.95918 0.08600
N 	N 	0.79275 0.02155 0.96282 -0.12100
N 	N 	0.86322 0.06587 0.45434 -0.13600
N 	N 	0.78465 0.02050 0.45918 -0.11900
N 	N 	0.70725 0.97845 0.46282 0.01500
N 	N 	0.36322 0.43413 0.54566 -0.17600
N 	N 	0.28465 0.47950 0.54082 -0.03400
N 	N 	0.20725 0.52155 0.53718 -0.11600
N 	N 	0.13678 0.56587 0.04566 -0.23100
N 	N 	0.21535 0.52050 0.04082 -0.05400
N 	N 	0.29275 0.47845 0.03718 -0.14200
N 	N 	0.95434 0.63678 0.93413 -0.08200
N 	N 	0.95918 0.71535 0.97950 0.08600
N 	N 	0.96282 0.79275 0.02155 -0.12100
N 	N 	0.45434 0.86322 0.06587 -0.13600
N 	N 	0.45918 0.78465 0.02050 -0.11900
N 	N 	0.46282 0.70725 0.97845 0.01500
N 	N 	0.54566 0.36322 0.43413 -0.17600
N 	N 	0.54082 0.28465 0.47950 -0.03400
N 	N 	0.53718 0.20725 0.52155 -0.11600
N 	N 	0.04566 0.13678 0.56587 -0.23100
N 	N 	0.04082 0.21535 0.52050 -0.05400
N 	N 	0.03718 0.29275 0.47845 -0.14200
N 	N 	0.93413 0.95434 0.63678 -0.08200
N 	N 	0.97950 0.95918 0.71535 0.08600
N 	N 	0.02155 0.96282 0.79275 -0.12100
N 	N 	0.06587 0.45434 0.86322 -0.13600
N 	N 	0.02050 0.45918 0.78465 -0.11900
N 	N 	0.97845 0.46282 0.70725 0.01500
N 	N 	0.43413 0.54566 0.36322 -0.17600
N 	N 	0.47950 0.54082 0.28465 -0.03400
N 	N 	0.52155 0.53718 0.20725 -0.11600
N 	N 	0.56587 0.04566 0.13678 -0.23100
N 	N 	0.52050 0.04082 0.21535 -0.05400
N 	N 	0.47845 0.03718 0.29275 -0.14200
N 	N 	0.36322 0.06587 0.04566 -0.22300
N 	N 	0.28465 0.02050 0.04082 -0.15000
N 	N 	0.20725 0.97845 0.03718 -0.04500
N 	N 	0.13678 0.93413 0.54566 -0.16400
N 	N 	0.21535 0.97950 0.54082 0.06400
N 	N 	0.29275 0.02155 0.53718 -0.20300
N 	N 	0.63678 0.56587 0.45434 -0.16400
N 	N 	0.71535 0.52050 0.45918 -0.02700
N 	N 	0.79275 0.47845 0.46282 -0.07200
N 	N 	0.86322 0.43413 0.95434 -0.07300
N 	N 	0.78465 0.47950 0.95918 -0.00300
N 	N 	0.70725 0.52155 0.96282 -0.04400
N 	N 	0.04566 0.36322 0.06587 -0.22300
N 	N 	0.04082 0.28465 0.02050 -0.15000
N 	N 	0.03718 0.20725 0.97845 -0.04500
N 	N 	0.54566 0.13678 0.93413 -0.16400
N 	N 	0.54082 0.21535 0.97950 0.06400
N 	N 	0.53718 0.29275 0.02155 -0.20300
N 	N 	0.45434 0.63678 0.56587 -0.16400
N 	N 	0.45918 0.71535 0.52050 -0.02700
N 	N 	0.46282 0.79275 0.47845 -0.07200
N 	N 	0.95434 0.86322 0.43413 -0.07300
N 	N 	0.95918 0.78465 0.47950 -0.00300
N 	N 	0.96282 0.70725 0.52155 -0.04400
N 	N 	0.06587 0.04566 0.36322 -0.22300
N 	N 	0.02050 0.04082 0.28465 -0.15000
N 	N 	0.97845 0.03718 0.20725 -0.04500
N 	N 	0.93413 0.54566 0.13678 -0.16400
N 	N 	0.97950 0.54082 0.21535 0.06400
N 	N 	0.02155 0.53718 0.29275 -0.20300
N 	N 	0.56587 0.45434 0.63678 -0.16400
N 	N 	0.52050 0.45918 0.71535 -0.02700
N 	N 	0.47845 0.46282 0.79275 -0.07200
N 	N 	0.43413 0.95434 0.86322 -0.07300
N 	N 	0.47950 0.95918 0.78465 -0.00300
N 	N 	0.52155 0.96282 0.70725 -0.04400
Fe	Fe	0.50000 0.00000 -0.00000 1.01600
Fe	Fe	0.00000 0.00000 0.50000 1.01600
Fe	Fe	0.50000 0.50000 0.50000 1.16300
Fe	Fe	0.00000 0.50000 -0.00000 1.01600
K 	K 	-0.00000 0.00000 -0.00000 0.56000
K 	K 	0.50000 0.00000 0.50000 0.62400
K 	K 	0.00000 0.50000 0.50000 0.62400
K 	K 	0.50000 0.50000 -0.00000 0.62400
