data_crystal

_cell_length_a 13.25300
_cell_length_b 13.25300
_cell_length_c 13.25300
_cell_angle_alpha 90.00000
_cell_angle_beta  90.00000
_cell_angle_gamma 90.00000

_symmetry_space_group_name_	'P 1'
_symmetry_space_group_name_H-M	'P 1'

loop_
_symmetry_equiv_pos_as_xyz
  x,y,z

loop_
_atom_site_label
_atom_site_type_symbol
_atom_site_fract_x
_atom_site_fract_y
_atom_site_fract_z
_atom_site_charge
N 	N 	0.63679 0.93712 0.95602 -0.08200
N 	N 	0.71590 0.98130 0.96310 0.08800
N 	N 	0.79240 0.02060 0.96790 -0.12100
N 	N 	0.86321 0.06288 0.45602 -0.13800
N 	N 	0.78410 0.01870 0.46310 -0.11800
N 	N 	0.70760 0.97940 0.46790 0.01600
N 	N 	0.36321 0.43712 0.54398 -0.17700
N 	N 	0.28410 0.48130 0.53690 -0.03300
N 	N 	0.20760 0.52060 0.53210 -0.11600
N 	N 	0.13679 0.56288 0.04398 -0.23100
N 	N 	0.21590 0.51870 0.03690 -0.05400
N 	N 	0.29240 0.47940 0.03210 -0.14200
N 	N 	0.95602 0.63679 0.93712 -0.08300
N 	N 	0.96310 0.71590 0.98130 0.08700
N 	N 	0.96790 0.79240 0.02060 -0.12200
N 	N 	0.45602 0.86321 0.06288 -0.13900
N 	N 	0.46310 0.78410 0.01870 -0.11800
N 	N 	0.46790 0.70760 0.97940 0.01600
N 	N 	0.54398 0.36321 0.43712 -0.17700
N 	N 	0.53690 0.28410 0.48130 -0.03300
N 	N 	0.53210 0.20760 0.52060 -0.11600
N 	N 	0.04398 0.13679 0.56288 -0.23100
N 	N 	0.03690 0.21590 0.51870 -0.05400
N 	N 	0.03210 0.29240 0.47940 -0.14200
N 	N 	0.93712 0.95602 0.63679 -0.08300
N 	N 	0.98130 0.96310 0.71590 0.08700
N 	N 	0.02060 0.96790 0.79240 -0.12200
N 	N 	0.06288 0.45602 0.86321 -0.13900
N 	N 	0.01870 0.46310 0.78410 -0.11800
N 	N 	0.97940 0.46790 0.70760 0.01600
N 	N 	0.43712 0.54398 0.36321 -0.17700
N 	N 	0.48130 0.53690 0.28410 -0.03300
N 	N 	0.52060 0.53210 0.20760 -0.11600
N 	N 	0.56288 0.04398 0.13679 -0.23100
N 	N 	0.51870 0.03690 0.21590 -0.05400
N 	N 	0.47940 0.03210 0.29240 -0.14200
N 	N 	0.36321 0.06288 0.04398 -0.22400
N 	N 	0.28410 0.01870 0.03690 -0.15000
N 	N 	0.20760 0.97940 0.03210 -0.04400
N 	N 	0.13679 0.93712 0.54398 -0.16500
N 	N 	0.21590 0.98130 0.53690 0.06500
N 	N 	0.29240 0.02060 0.53210 -0.20300
N 	N 	0.63679 0.56288 0.45602 -0.16600
N 	N 	0.71590 0.51870 0.46310 -0.02600
N 	N 	0.79240 0.47940 0.46790 -0.07200
N 	N 	0.86321 0.43712 0.95602 -0.07500
N 	N 	0.78410 0.48130 0.96310 -0.00300
N 	N 	0.70760 0.52060 0.96790 -0.04400
N 	N 	0.04398 0.36321 0.06288 -0.22400
N 	N 	0.03690 0.28410 0.01870 -0.15000
N 	N 	0.03210 0.20760 0.97940 -0.04400
N 	N 	0.54398 0.13679 0.93712 -0.16500
N 	N 	0.53690 0.21590 0.98130 0.06500
N 	N 	0.53210 0.29240 0.02060 -0.20300
N 	N 	0.45602 0.63679 0.56288 -0.16600
N 	N 	0.46310 0.71590 0.51870 -0.02600
N 	N 	0.46790 0.79240 0.47940 -0.07200
N 	N 	0.95602 0.86321 0.43712 -0.07500
N 	N 	0.96310 0.78410 0.48130 -0.00300
N 	N 	0.96790 0.70760 0.52060 -0.04400
N 	N 	0.06288 0.04398 0.36321 -0.22400
N 	N 	0.01870 0.03690 0.28410 -0.15000
N 	N 	0.97940 0.03210 0.20760 -0.04400
N 	N 	0.93712 0.54398 0.13679 -0.16500
N 	N 	0.98130 0.53690 0.21590 0.06500
N 	N 	0.02060 0.53210 0.29240 -0.20300
N 	N 	0.56288 0.45602 0.63679 -0.16600
N 	N 	0.51870 0.46310 0.71590 -0.02600
N 	N 	0.47940 0.46790 0.79240 -0.07200
N 	N 	0.43712 0.95602 0.86321 -0.07500
N 	N 	0.48130 0.96310 0.78410 -0.00300
N 	N 	0.52060 0.96790 0.70760 -0.04400
Fe	Fe	0.50000 0.00000 -0.00000 1.01900
Fe	Fe	0.00000 0.00000 0.50000 1.01900
Fe	Fe	0.50000 0.50000 0.50000 1.16300
Fe	Fe	-0.00000 0.50000 -0.00000 1.01900
K 	K 	-0.00000 0.00000 -0.00000 0.56100
K 	K 	0.50000 0.00000 0.50000 0.62400
K 	K 	0.00000 0.50000 0.50000 0.62400
K 	K 	0.50000 0.50000 -0.00000 0.62400
