data_crystal

_cell_length_a 12.74600
_cell_length_b 12.74600
_cell_length_c 12.74600
_cell_angle_alpha 90.00000
_cell_angle_beta  90.00000
_cell_angle_gamma 90.00000

_symmetry_space_group_name_	'P 1'
_symmetry_space_group_name_H-M	'P 1'

loop_
_symmetry_equiv_pos_as_xyz
  x,y,z

loop_
_atom_site_label
_atom_site_type_symbol
_atom_site_fract_x
_atom_site_fract_y
_atom_site_fract_z
_atom_site_charge
N 	N 	0.06187 0.04418 0.35893 -0.28900
N 	N 	0.02008 0.03511 0.27575 -0.17100
N 	N 	0.98316 0.02954 0.19269 -0.04200
N 	N 	0.43813 0.95582 0.85893 -0.10600
N 	N 	0.47992 0.96489 0.77575 0.00600
N 	N 	0.51684 0.97046 0.69269 -0.03600
N 	N 	0.93813 0.54418 0.14107 -0.21400
N 	N 	0.97992 0.53511 0.22425 0.08600
N 	N 	0.01684 0.52954 0.30731 -0.22800
N 	N 	0.56187 0.45582 0.64107 -0.21200
N 	N 	0.52008 0.46489 0.72425 -0.02100
N 	N 	0.48316 0.47046 0.80731 -0.06600
N 	N 	0.35893 0.06187 0.04418 -0.28800
N 	N 	0.27575 0.02008 0.03511 -0.17100
N 	N 	0.19269 0.98316 0.02954 -0.04200
N 	N 	0.85893 0.43813 0.95582 -0.10600
N 	N 	0.77575 0.47992 0.96489 0.00600
N 	N 	0.69269 0.51684 0.97046 -0.03600
N 	N 	0.14107 0.93813 0.54418 -0.21400
N 	N 	0.22425 0.97992 0.53511 0.08600
N 	N 	0.30731 0.01684 0.52954 -0.22800
N 	N 	0.64107 0.56187 0.45582 -0.21200
N 	N 	0.72425 0.52008 0.46489 -0.02100
N 	N 	0.80731 0.48316 0.47046 -0.06600
N 	N 	0.04418 0.35893 0.06187 -0.28800
N 	N 	0.03511 0.27575 0.02008 -0.17100
N 	N 	0.02954 0.19269 0.98316 -0.04200
N 	N 	0.95582 0.85893 0.43813 -0.10600
N 	N 	0.96489 0.77575 0.47992 0.00600
N 	N 	0.97046 0.69269 0.51684 -0.03600
N 	N 	0.54418 0.14107 0.93813 -0.21400
N 	N 	0.53511 0.22425 0.97992 0.08600
N 	N 	0.52954 0.30731 0.01684 -0.22800
N 	N 	0.45582 0.64107 0.56187 -0.21200
N 	N 	0.46489 0.72425 0.52008 -0.02100
N 	N 	0.47046 0.80731 0.48316 -0.06600
N 	N 	0.93813 0.95582 0.64107 -0.11500
N 	N 	0.97992 0.96489 0.72425 0.11300
N 	N 	0.01684 0.97046 0.80731 -0.12800
N 	N 	0.56187 0.04418 0.14107 -0.29600
N 	N 	0.52008 0.03511 0.22425 -0.05600
N 	N 	0.48316 0.02954 0.30731 -0.15500
N 	N 	0.06187 0.45582 0.85893 -0.18400
N 	N 	0.02008 0.46489 0.77575 -0.13300
N 	N 	0.98316 0.47046 0.69269 0.03700
N 	N 	0.43813 0.54418 0.35893 -0.22500
N 	N 	0.47992 0.53511 0.27575 -0.03000
N 	N 	0.51684 0.52954 0.19269 -0.12500
N 	N 	0.64107 0.93813 0.95582 -0.11500
N 	N 	0.72425 0.97992 0.96489 0.11300
N 	N 	0.80731 0.01684 0.97046 -0.12800
N 	N 	0.14107 0.56187 0.04418 -0.29600
N 	N 	0.22425 0.52008 0.03511 -0.05600
N 	N 	0.30731 0.48316 0.02954 -0.15500
N 	N 	0.85893 0.06187 0.45582 -0.18400
N 	N 	0.77575 0.02008 0.46489 -0.13300
N 	N 	0.69269 0.98316 0.47046 0.03700
N 	N 	0.35893 0.43813 0.54418 -0.22500
N 	N 	0.27575 0.47992 0.53511 -0.03000
N 	N 	0.19269 0.51684 0.52954 -0.12500
N 	N 	0.95582 0.64107 0.93813 -0.11500
N 	N 	0.96489 0.72425 0.97992 0.11300
N 	N 	0.97046 0.80731 0.01684 -0.12800
N 	N 	0.04418 0.14107 0.56187 -0.29600
N 	N 	0.03511 0.22425 0.52008 -0.05600
N 	N 	0.02954 0.30731 0.48316 -0.15500
N 	N 	0.45582 0.85893 0.06187 -0.18400
N 	N 	0.46489 0.77575 0.02008 -0.13300
N 	N 	0.47046 0.69269 0.98316 0.03700
N 	N 	0.54418 0.35893 0.43813 -0.22500
N 	N 	0.53511 0.27575 0.47992 -0.03000
N 	N 	0.52954 0.19269 0.51684 -0.12500
Cr	Cr	0.00000 0.00000 0.50000 1.36100
Cr	Cr	0.50000 0.00000 -0.00000 1.36100
Cr	Cr	-0.00000 0.50000 -0.00000 1.36100
Cr	Cr	0.50000 0.50000 0.50000 1.49400
Na	Na	-0.00000 0.00000 -0.00000 0.51100
Na	Na	0.50000 0.00000 0.50000 0.56000
Na	Na	0.00000 0.50000 0.50000 0.56000
Na	Na	0.50000 0.50000 -0.00000 0.56000
