data_crystal

_cell_length_a 12.79810
_cell_length_b 12.79810
_cell_length_c 12.79810
_cell_angle_alpha 90.00000
_cell_angle_beta  90.00000
_cell_angle_gamma 90.00000

_symmetry_space_group_name_	'P 1'
_symmetry_space_group_name_H-M	'P 1'

loop_
_symmetry_equiv_pos_as_xyz
  x,y,z

loop_
_atom_site_label
_atom_site_type_symbol
_atom_site_fract_x
_atom_site_fract_y
_atom_site_fract_z
_atom_site_charge
N 	N 	0.06006 0.04328 0.35892 -0.28800
N 	N 	0.01940 0.03400 0.27600 -0.16900
N 	N 	0.98340 0.02840 0.19332 -0.04100
N 	N 	0.43994 0.95672 0.85892 -0.10700
N 	N 	0.48060 0.96600 0.77600 0.00800
N 	N 	0.51660 0.97160 0.69332 -0.03500
N 	N 	0.93994 0.54328 0.14108 -0.21400
N 	N 	0.98060 0.53400 0.22400 0.08800
N 	N 	0.01660 0.52840 0.30668 -0.22700
N 	N 	0.56006 0.45672 0.64108 -0.21200
N 	N 	0.51940 0.46600 0.72400 -0.01900
N 	N 	0.48340 0.47160 0.80668 -0.06600
N 	N 	0.35892 0.06006 0.04328 -0.28900
N 	N 	0.27600 0.01940 0.03400 -0.17000
N 	N 	0.19332 0.98340 0.02840 -0.04200
N 	N 	0.85892 0.43994 0.95672 -0.10800
N 	N 	0.77600 0.48060 0.96600 0.00700
N 	N 	0.69332 0.51660 0.97160 -0.03600
N 	N 	0.14108 0.93994 0.54328 -0.21500
N 	N 	0.22400 0.98060 0.53400 0.08700
N 	N 	0.30668 0.01660 0.52840 -0.22800
N 	N 	0.64108 0.56006 0.45672 -0.21300
N 	N 	0.72400 0.51940 0.46600 -0.02000
N 	N 	0.80668 0.48340 0.47160 -0.06600
N 	N 	0.04328 0.35892 0.06006 -0.28900
N 	N 	0.03400 0.27600 0.01940 -0.17000
N 	N 	0.02840 0.19332 0.98340 -0.04200
N 	N 	0.95672 0.85892 0.43994 -0.10800
N 	N 	0.96600 0.77600 0.48060 0.00700
N 	N 	0.97160 0.69332 0.51660 -0.03600
N 	N 	0.54328 0.14108 0.93994 -0.21500
N 	N 	0.53400 0.22400 0.98060 0.08700
N 	N 	0.52840 0.30668 0.01660 -0.22800
N 	N 	0.45672 0.64108 0.56006 -0.21300
N 	N 	0.46600 0.72400 0.51940 -0.02000
N 	N 	0.47160 0.80668 0.48340 -0.06600
N 	N 	0.93994 0.95672 0.64108 -0.11700
N 	N 	0.98060 0.96600 0.72400 0.11400
N 	N 	0.01660 0.97160 0.80668 -0.12900
N 	N 	0.56006 0.04328 0.14108 -0.29600
N 	N 	0.51940 0.03400 0.22400 -0.05500
N 	N 	0.48340 0.02840 0.30668 -0.15500
N 	N 	0.06006 0.45672 0.85892 -0.18600
N 	N 	0.01940 0.46600 0.77600 -0.13200
N 	N 	0.98340 0.47160 0.69332 0.03600
N 	N 	0.43994 0.54328 0.35892 -0.22600
N 	N 	0.48060 0.53400 0.27600 -0.02900
N 	N 	0.51660 0.52840 0.19332 -0.12500
N 	N 	0.64108 0.93994 0.95672 -0.11700
N 	N 	0.72400 0.98060 0.96600 0.11400
N 	N 	0.80668 0.01660 0.97160 -0.12900
N 	N 	0.14108 0.56006 0.04328 -0.29600
N 	N 	0.22400 0.51940 0.03400 -0.05500
N 	N 	0.30668 0.48340 0.02840 -0.15500
N 	N 	0.85892 0.06006 0.45672 -0.18600
N 	N 	0.77600 0.01940 0.46600 -0.13200
N 	N 	0.69332 0.98340 0.47160 0.03600
N 	N 	0.35892 0.43994 0.54328 -0.22600
N 	N 	0.27600 0.48060 0.53400 -0.02900
N 	N 	0.19332 0.51660 0.52840 -0.12500
N 	N 	0.95672 0.64108 0.93994 -0.11700
N 	N 	0.96600 0.72400 0.98060 0.11400
N 	N 	0.97160 0.80668 0.01660 -0.12900
N 	N 	0.04328 0.14108 0.56006 -0.29600
N 	N 	0.03400 0.22400 0.51940 -0.05500
N 	N 	0.02840 0.30668 0.48340 -0.15500
N 	N 	0.45672 0.85892 0.06006 -0.18600
N 	N 	0.46600 0.77600 0.01940 -0.13200
N 	N 	0.47160 0.69332 0.98340 0.03600
N 	N 	0.54328 0.35892 0.43994 -0.22600
N 	N 	0.53400 0.27600 0.48060 -0.02900
N 	N 	0.52840 0.19332 0.51660 -0.12500
Cr	Cr	0.00000 0.00000 0.50000 1.36200
Cr	Cr	0.50000 0.00000 -0.00000 1.36200
Cr	Cr	-0.00000 0.50000 -0.00000 1.36200
Cr	Cr	0.50000 0.50000 0.50000 1.49400
Na	Na	-0.00000 0.00000 -0.00000 0.51100
Na	Na	0.50000 0.00000 0.50000 0.55900
Na	Na	0.00000 0.50000 0.50000 0.55900
Na	Na	0.50000 0.50000 -0.00000 0.55900
