data_crystal

_cell_length_a 12.76210
_cell_length_b 12.76210
_cell_length_c 12.76210
_cell_angle_alpha 90.00000
_cell_angle_beta  90.00000
_cell_angle_gamma 90.00000

_symmetry_space_group_name_	'P 1'
_symmetry_space_group_name_H-M	'P 1'

loop_
_symmetry_equiv_pos_as_xyz
  x,y,z

loop_
_atom_site_label
_atom_site_type_symbol
_atom_site_fract_x
_atom_site_fract_y
_atom_site_fract_z
_atom_site_charge
N 	N 	0.06126 0.04380 0.35894 -0.28900
N 	N 	0.01984 0.03456 0.27582 -0.17200
N 	N 	0.98319 0.02907 0.19299 -0.04300
N 	N 	0.43874 0.95620 0.85894 -0.10800
N 	N 	0.48016 0.96544 0.77582 0.00600
N 	N 	0.51681 0.97093 0.69299 -0.03700
N 	N 	0.93874 0.54380 0.14106 -0.21500
N 	N 	0.98016 0.53456 0.22418 0.08700
N 	N 	0.01681 0.52907 0.30701 -0.22800
N 	N 	0.56126 0.45620 0.64106 -0.21200
N 	N 	0.51984 0.46544 0.72418 -0.02100
N 	N 	0.48319 0.47093 0.80701 -0.06600
N 	N 	0.35894 0.06126 0.04380 -0.28800
N 	N 	0.27582 0.01984 0.03456 -0.17100
N 	N 	0.19299 0.98319 0.02907 -0.04200
N 	N 	0.85894 0.43874 0.95620 -0.10700
N 	N 	0.77582 0.48016 0.96544 0.00700
N 	N 	0.69299 0.51681 0.97093 -0.03600
N 	N 	0.14106 0.93874 0.54380 -0.21400
N 	N 	0.22418 0.98016 0.53456 0.08700
N 	N 	0.30701 0.01681 0.52907 -0.22800
N 	N 	0.64106 0.56126 0.45620 -0.21200
N 	N 	0.72418 0.51984 0.46544 -0.02100
N 	N 	0.80701 0.48319 0.47093 -0.06600
N 	N 	0.04380 0.35894 0.06126 -0.28800
N 	N 	0.03456 0.27582 0.01984 -0.17100
N 	N 	0.02907 0.19299 0.98319 -0.04200
N 	N 	0.95620 0.85894 0.43874 -0.10700
N 	N 	0.96544 0.77582 0.48016 0.00700
N 	N 	0.97093 0.69299 0.51681 -0.03600
N 	N 	0.54380 0.14106 0.93874 -0.21400
N 	N 	0.53456 0.22418 0.98016 0.08700
N 	N 	0.52907 0.30701 0.01681 -0.22800
N 	N 	0.45620 0.64106 0.56126 -0.21200
N 	N 	0.46544 0.72418 0.51984 -0.02100
N 	N 	0.47093 0.80701 0.48319 -0.06600
N 	N 	0.93874 0.95620 0.64106 -0.11600
N 	N 	0.98016 0.96544 0.72418 0.11400
N 	N 	0.01681 0.97093 0.80701 -0.12800
N 	N 	0.56126 0.04380 0.14106 -0.29600
N 	N 	0.51984 0.03456 0.22418 -0.05600
N 	N 	0.48319 0.02907 0.30701 -0.15500
N 	N 	0.06126 0.45620 0.85894 -0.18500
N 	N 	0.01984 0.46544 0.77582 -0.13200
N 	N 	0.98319 0.47093 0.69299 0.03700
N 	N 	0.43874 0.54380 0.35894 -0.22500
N 	N 	0.48016 0.53456 0.27582 -0.03000
N 	N 	0.51681 0.52907 0.19299 -0.12500
N 	N 	0.64106 0.93874 0.95620 -0.11600
N 	N 	0.72418 0.98016 0.96544 0.11400
N 	N 	0.80701 0.01681 0.97093 -0.12800
N 	N 	0.14106 0.56126 0.04380 -0.29600
N 	N 	0.22418 0.51984 0.03456 -0.05600
N 	N 	0.30701 0.48319 0.02907 -0.15500
N 	N 	0.85894 0.06126 0.45620 -0.18500
N 	N 	0.77582 0.01984 0.46544 -0.13200
N 	N 	0.69299 0.98319 0.47093 0.03700
N 	N 	0.35894 0.43874 0.54380 -0.22500
N 	N 	0.27582 0.48016 0.53456 -0.03000
N 	N 	0.19299 0.51681 0.52907 -0.12500
N 	N 	0.95620 0.64106 0.93874 -0.11600
N 	N 	0.96544 0.72418 0.98016 0.11400
N 	N 	0.97093 0.80701 0.01681 -0.12800
N 	N 	0.04380 0.14106 0.56126 -0.29600
N 	N 	0.03456 0.22418 0.51984 -0.05600
N 	N 	0.02907 0.30701 0.48319 -0.15500
N 	N 	0.45620 0.85894 0.06126 -0.18500
N 	N 	0.46544 0.77582 0.01984 -0.13200
N 	N 	0.47093 0.69299 0.98319 0.03700
N 	N 	0.54380 0.35894 0.43874 -0.22500
N 	N 	0.53456 0.27582 0.48016 -0.03000
N 	N 	0.52907 0.19299 0.51681 -0.12500
Cr	Cr	0.00000 0.00000 0.50000 1.36200
Cr	Cr	0.50000 0.00000 -0.00000 1.36200
Cr	Cr	-0.00000 0.50000 -0.00000 1.36200
Cr	Cr	0.50000 0.50000 0.50000 1.49400
Na	Na	-0.00000 0.00000 -0.00000 0.51100
Na	Na	0.50000 0.00000 0.50000 0.56000
Na	Na	0.00000 0.50000 0.50000 0.56000
Na	Na	0.50000 0.50000 -0.00000 0.56000
