data_crystal

_cell_length_a 12.84340
_cell_length_b 12.84340
_cell_length_c 12.84340
_cell_angle_alpha 90.00000
_cell_angle_beta  90.00000
_cell_angle_gamma 90.00000

_symmetry_space_group_name_	'P 1'
_symmetry_space_group_name_H-M	'P 1'

loop_
_symmetry_equiv_pos_as_xyz
  x,y,z

loop_
_atom_site_label
_atom_site_type_symbol
_atom_site_fract_x
_atom_site_fract_y
_atom_site_fract_z
_atom_site_charge
N 	N 	0.05915 0.04250 0.35886 -0.29000
N 	N 	0.01850 0.03290 0.27594 -0.17100
N 	N 	0.98380 0.02720 0.19383 -0.04200
N 	N 	0.44085 0.95750 0.85886 -0.11000
N 	N 	0.48150 0.96710 0.77594 0.00700
N 	N 	0.51620 0.97280 0.69383 -0.03600
N 	N 	0.94085 0.54250 0.14114 -0.21500
N 	N 	0.98150 0.53290 0.22406 0.08800
N 	N 	0.01620 0.52720 0.30617 -0.22800
N 	N 	0.55915 0.45750 0.64114 -0.21300
N 	N 	0.51850 0.46710 0.72406 -0.02000
N 	N 	0.48380 0.47280 0.80617 -0.06600
N 	N 	0.35886 0.05915 0.04250 -0.28900
N 	N 	0.27594 0.01850 0.03290 -0.17000
N 	N 	0.19383 0.98380 0.02720 -0.04100
N 	N 	0.85886 0.44085 0.95750 -0.10900
N 	N 	0.77594 0.48150 0.96710 0.00700
N 	N 	0.69383 0.51620 0.97280 -0.03600
N 	N 	0.14114 0.94085 0.54250 -0.21500
N 	N 	0.22406 0.98150 0.53290 0.08800
N 	N 	0.30617 0.01620 0.52720 -0.22800
N 	N 	0.64114 0.55915 0.45750 -0.21300
N 	N 	0.72406 0.51850 0.46710 -0.02000
N 	N 	0.80617 0.48380 0.47280 -0.06600
N 	N 	0.04250 0.35886 0.05915 -0.28900
N 	N 	0.03290 0.27594 0.01850 -0.17000
N 	N 	0.02720 0.19383 0.98380 -0.04100
N 	N 	0.95750 0.85886 0.44085 -0.10900
N 	N 	0.96710 0.77594 0.48150 0.00700
N 	N 	0.97280 0.69383 0.51620 -0.03600
N 	N 	0.54250 0.14114 0.94085 -0.21500
N 	N 	0.53290 0.22406 0.98150 0.08800
N 	N 	0.52720 0.30617 0.01620 -0.22800
N 	N 	0.45750 0.64114 0.55915 -0.21300
N 	N 	0.46710 0.72406 0.51850 -0.02000
N 	N 	0.47280 0.80617 0.48380 -0.06600
N 	N 	0.94085 0.95750 0.64114 -0.11700
N 	N 	0.98150 0.96710 0.72406 0.11500
N 	N 	0.01620 0.97280 0.80617 -0.12900
N 	N 	0.55915 0.04250 0.14114 -0.29600
N 	N 	0.51850 0.03290 0.22406 -0.05400
N 	N 	0.48380 0.02720 0.30617 -0.15400
N 	N 	0.05915 0.45750 0.85886 -0.18700
N 	N 	0.01850 0.46710 0.77594 -0.13200
N 	N 	0.98380 0.47280 0.69383 0.03700
N 	N 	0.44085 0.54250 0.35886 -0.22600
N 	N 	0.48150 0.53290 0.27594 -0.02900
N 	N 	0.51620 0.52720 0.19383 -0.12500
N 	N 	0.64114 0.94085 0.95750 -0.11700
N 	N 	0.72406 0.98150 0.96710 0.11500
N 	N 	0.80617 0.01620 0.97280 -0.12900
N 	N 	0.14114 0.55915 0.04250 -0.29600
N 	N 	0.22406 0.51850 0.03290 -0.05400
N 	N 	0.30617 0.48380 0.02720 -0.15400
N 	N 	0.85886 0.05915 0.45750 -0.18700
N 	N 	0.77594 0.01850 0.46710 -0.13200
N 	N 	0.69383 0.98380 0.47280 0.03700
N 	N 	0.35886 0.44085 0.54250 -0.22600
N 	N 	0.27594 0.48150 0.53290 -0.02900
N 	N 	0.19383 0.51620 0.52720 -0.12500
N 	N 	0.95750 0.64114 0.94085 -0.11700
N 	N 	0.96710 0.72406 0.98150 0.11500
N 	N 	0.97280 0.80617 0.01620 -0.12900
N 	N 	0.04250 0.14114 0.55915 -0.29600
N 	N 	0.03290 0.22406 0.51850 -0.05400
N 	N 	0.02720 0.30617 0.48380 -0.15400
N 	N 	0.45750 0.85886 0.05915 -0.18700
N 	N 	0.46710 0.77594 0.01850 -0.13200
N 	N 	0.47280 0.69383 0.98380 0.03700
N 	N 	0.54250 0.35886 0.44085 -0.22600
N 	N 	0.53290 0.27594 0.48150 -0.02900
N 	N 	0.52720 0.19383 0.51620 -0.12500
Cr	Cr	0.00000 0.00000 0.50000 1.36300
Cr	Cr	0.50000 0.00000 -0.00000 1.36300
Cr	Cr	-0.00000 0.50000 -0.00000 1.36300
Cr	Cr	0.50000 0.50000 0.50000 1.49400
Na	Na	-0.00000 0.00000 -0.00000 0.51100
Na	Na	0.50000 0.00000 0.50000 0.55900
Na	Na	0.00000 0.50000 0.50000 0.55900
Na	Na	0.50000 0.50000 -0.00000 0.55900
