data_crystal

_cell_length_a 13.04840
_cell_length_b 13.04840
_cell_length_c 13.04840
_cell_angle_alpha 90.00000
_cell_angle_beta  90.00000
_cell_angle_gamma 90.00000

_symmetry_space_group_name_	'P 1'
_symmetry_space_group_name_H-M	'P 1'

loop_
_symmetry_equiv_pos_as_xyz
  x,y,z

loop_
_atom_site_label
_atom_site_type_symbol
_atom_site_fract_x
_atom_site_fract_y
_atom_site_fract_z
_atom_site_charge
N 	N 	0.43416 0.45478 0.13490 -0.27800
N 	N 	0.47962 0.45946 0.21405 -0.04500
N 	N 	0.52098 0.46214 0.29280 -0.11300
N 	N 	0.06584 0.54522 0.63490 -0.23200
N 	N 	0.02038 0.54054 0.71405 -0.14900
N 	N 	0.97902 0.53786 0.79280 0.08400
N 	N 	0.56584 0.95478 0.36510 -0.15200
N 	N 	0.52038 0.95946 0.28595 -0.00900
N 	N 	0.47902 0.96214 0.20720 -0.07500
N 	N 	0.93416 0.04522 0.86510 -0.15300
N 	N 	0.97962 0.04054 0.78595 0.08100
N 	N 	0.02098 0.03786 0.70720 -0.27400
N 	N 	0.13490 0.43416 0.45478 -0.27700
N 	N 	0.21405 0.47962 0.45946 -0.04500
N 	N 	0.29280 0.52098 0.46214 -0.11300
N 	N 	0.63490 0.06584 0.54522 -0.23200
N 	N 	0.71405 0.02038 0.54054 -0.14900
N 	N 	0.79280 0.97902 0.53786 0.08400
N 	N 	0.36510 0.56584 0.95478 -0.15200
N 	N 	0.28595 0.52038 0.95946 -0.00900
N 	N 	0.20720 0.47902 0.96214 -0.07500
N 	N 	0.86510 0.93416 0.04522 -0.15300
N 	N 	0.78595 0.97962 0.04054 0.08100
N 	N 	0.70720 0.02098 0.03786 -0.27400
N 	N 	0.45478 0.13490 0.43416 -0.27700
N 	N 	0.45946 0.21405 0.47962 -0.04500
N 	N 	0.46214 0.29280 0.52098 -0.11300
N 	N 	0.54522 0.63490 0.06584 -0.23200
N 	N 	0.54054 0.71405 0.02038 -0.14900
N 	N 	0.53786 0.79280 0.97902 0.08400
N 	N 	0.95478 0.36510 0.56584 -0.15200
N 	N 	0.95946 0.28595 0.52038 -0.00900
N 	N 	0.96214 0.20720 0.47902 -0.07500
N 	N 	0.04522 0.86510 0.93416 -0.15300
N 	N 	0.04054 0.78595 0.97962 0.08100
N 	N 	0.03786 0.70720 0.02098 -0.27400
N 	N 	0.56584 0.54522 0.86510 -0.14200
N 	N 	0.52038 0.54054 0.78595 -0.02000
N 	N 	0.47902 0.53786 0.70720 -0.08900
N 	N 	0.93416 0.45478 0.36510 -0.18400
N 	N 	0.97962 0.45946 0.28595 0.09000
N 	N 	0.02098 0.46214 0.20720 -0.27600
N 	N 	0.43416 0.04522 0.63490 -0.26400
N 	N 	0.47962 0.04054 0.71405 -0.05400
N 	N 	0.52098 0.03786 0.79280 -0.10600
N 	N 	0.06584 0.95478 0.13490 -0.22100
N 	N 	0.02038 0.95946 0.21405 -0.13600
N 	N 	0.97902 0.96214 0.29280 0.08900
N 	N 	0.86510 0.56584 0.54522 -0.14200
N 	N 	0.78595 0.52038 0.54054 -0.02000
N 	N 	0.70720 0.47902 0.53786 -0.08900
N 	N 	0.36510 0.93416 0.45478 -0.18400
N 	N 	0.28595 0.97962 0.45946 0.09000
N 	N 	0.20720 0.02098 0.46214 -0.27600
N 	N 	0.63490 0.43416 0.04522 -0.26400
N 	N 	0.71405 0.47962 0.04054 -0.05400
N 	N 	0.79280 0.52098 0.03786 -0.10600
N 	N 	0.13490 0.06584 0.95478 -0.22100
N 	N 	0.21405 0.02038 0.95946 -0.13600
N 	N 	0.29280 0.97902 0.96214 0.08900
N 	N 	0.54522 0.86510 0.56584 -0.14200
N 	N 	0.54054 0.78595 0.52038 -0.02000
N 	N 	0.53786 0.70720 0.47902 -0.08900
N 	N 	0.45478 0.36510 0.93416 -0.18400
N 	N 	0.45946 0.28595 0.97962 0.09000
N 	N 	0.46214 0.20720 0.02098 -0.27600
N 	N 	0.04522 0.63490 0.43416 -0.26400
N 	N 	0.04054 0.71405 0.47962 -0.05400
N 	N 	0.03786 0.79280 0.52098 -0.10600
N 	N 	0.95478 0.13490 0.06584 -0.22100
N 	N 	0.95946 0.21405 0.02038 -0.13600
N 	N 	0.96214 0.29280 0.97902 0.08900
Cr	Cr	0.50000 0.50000 -0.00000 1.41800
Cr	Cr	-0.00000 0.50000 0.50000 1.41800
Cr	Cr	0.50000 -0.00000 0.50000 1.41800
Cr	Cr	-0.00000 0.00000 -0.00000 1.26500
K 	K 	0.50000 0.50000 0.50000 0.65600
K 	K 	-0.00000 0.50000 -0.00000 0.56900
K 	K 	0.50000 0.00000 -0.00000 0.56900
K 	K 	-0.00000 -0.00000 0.50000 0.56900
