data_crystal

_cell_length_a 13.16420
_cell_length_b 13.16420
_cell_length_c 13.16420
_cell_angle_alpha 90.00000
_cell_angle_beta  90.00000
_cell_angle_gamma 90.00000

_symmetry_space_group_name_	'P 1'
_symmetry_space_group_name_H-M	'P 1'

loop_
_symmetry_equiv_pos_as_xyz
  x,y,z

loop_
_atom_site_label
_atom_site_type_symbol
_atom_site_fract_x
_atom_site_fract_y
_atom_site_fract_z
_atom_site_charge
N 	N 	0.43840 0.45750 0.13530 -0.27800
N 	N 	0.48220 0.46440 0.21440 -0.04100
N 	N 	0.51850 0.46830 0.29220 -0.11300
N 	N 	0.06160 0.54250 0.63530 -0.23500
N 	N 	0.01780 0.53560 0.71440 -0.14900
N 	N 	0.98150 0.53170 0.79220 0.08600
N 	N 	0.56160 0.95750 0.36470 -0.15600
N 	N 	0.51780 0.96440 0.28560 -0.00700
N 	N 	0.48150 0.96830 0.20780 -0.07500
N 	N 	0.93840 0.04250 0.86470 -0.15700
N 	N 	0.98220 0.03560 0.78560 0.08700
N 	N 	0.01850 0.03170 0.70780 -0.27700
N 	N 	0.13530 0.43840 0.45750 -0.27900
N 	N 	0.21440 0.48220 0.46440 -0.04200
N 	N 	0.29220 0.51850 0.46830 -0.11400
N 	N 	0.63530 0.06160 0.54250 -0.23500
N 	N 	0.71440 0.01780 0.53560 -0.14900
N 	N 	0.79220 0.98150 0.53170 0.08600
N 	N 	0.36470 0.56160 0.95750 -0.15600
N 	N 	0.28560 0.51780 0.96440 -0.00700
N 	N 	0.20780 0.48150 0.96830 -0.07500
N 	N 	0.86470 0.93840 0.04250 -0.15700
N 	N 	0.78560 0.98220 0.03560 0.08700
N 	N 	0.70780 0.01850 0.03170 -0.27700
N 	N 	0.45750 0.13530 0.43840 -0.27900
N 	N 	0.46440 0.21440 0.48220 -0.04200
N 	N 	0.46830 0.29220 0.51850 -0.11400
N 	N 	0.54250 0.63530 0.06160 -0.23500
N 	N 	0.53560 0.71440 0.01780 -0.14900
N 	N 	0.53170 0.79220 0.98150 0.08600
N 	N 	0.95750 0.36470 0.56160 -0.15600
N 	N 	0.96440 0.28560 0.51780 -0.00700
N 	N 	0.96830 0.20780 0.48150 -0.07500
N 	N 	0.04250 0.86470 0.93840 -0.15700
N 	N 	0.03560 0.78560 0.98220 0.08700
N 	N 	0.03170 0.70780 0.01850 -0.27700
N 	N 	0.56160 0.54250 0.86470 -0.14600
N 	N 	0.51780 0.53560 0.78560 -0.01700
N 	N 	0.48150 0.53170 0.70780 -0.08900
N 	N 	0.93840 0.45750 0.36470 -0.18800
N 	N 	0.98220 0.46440 0.28560 0.09700
N 	N 	0.01850 0.46830 0.20780 -0.27800
N 	N 	0.43840 0.04250 0.63530 -0.26600
N 	N 	0.48220 0.03560 0.71440 -0.05000
N 	N 	0.51850 0.03170 0.79220 -0.10700
N 	N 	0.06160 0.95750 0.13530 -0.22400
N 	N 	0.01780 0.96440 0.21440 -0.13700
N 	N 	0.98150 0.96830 0.29220 0.09000
N 	N 	0.86470 0.56160 0.54250 -0.14600
N 	N 	0.78560 0.51780 0.53560 -0.01700
N 	N 	0.70780 0.48150 0.53170 -0.08900
N 	N 	0.36470 0.93840 0.45750 -0.18800
N 	N 	0.28560 0.98220 0.46440 0.09700
N 	N 	0.20780 0.01850 0.46830 -0.27800
N 	N 	0.63530 0.43840 0.04250 -0.26600
N 	N 	0.71440 0.48220 0.03560 -0.05000
N 	N 	0.79220 0.51850 0.03170 -0.10700
N 	N 	0.13530 0.06160 0.95750 -0.22400
N 	N 	0.21440 0.01780 0.96440 -0.13700
N 	N 	0.29220 0.98150 0.96830 0.09000
N 	N 	0.54250 0.86470 0.56160 -0.14600
N 	N 	0.53560 0.78560 0.51780 -0.01700
N 	N 	0.53170 0.70780 0.48150 -0.08900
N 	N 	0.45750 0.36470 0.93840 -0.18800
N 	N 	0.46440 0.28560 0.98220 0.09700
N 	N 	0.46830 0.20780 0.01850 -0.27800
N 	N 	0.04250 0.63530 0.43840 -0.26600
N 	N 	0.03560 0.71440 0.48220 -0.05000
N 	N 	0.03170 0.79220 0.51850 -0.10700
N 	N 	0.95750 0.13530 0.06160 -0.22400
N 	N 	0.96440 0.21440 0.01780 -0.13700
N 	N 	0.96830 0.29220 0.98150 0.09000
Cr	Cr	0.50000 0.50000 -0.00000 1.42100
Cr	Cr	0.00000 0.50000 0.50000 1.42100
Cr	Cr	0.50000 0.00000 0.50000 1.42100
Cr	Cr	-0.00000 0.00000 -0.00000 1.27100
K 	K 	0.50000 0.50000 0.50000 0.65500
K 	K 	0.00000 0.50000 -0.00000 0.56900
K 	K 	0.50000 0.00000 -0.00000 0.56900
K 	K 	0.00000 0.00000 0.50000 0.56900
