data_crystal

_cell_length_a 8.65470
_cell_length_b 17.37200
_cell_length_c 17.37200
_cell_angle_alpha 120.00000
_cell_angle_beta  90.00000
_cell_angle_gamma 90.00000

_symmetry_space_group_name_	'P 1'
_symmetry_space_group_name_H-M	'P 1'

loop_
_symmetry_equiv_pos_as_xyz
  x,y,z

loop_
_atom_site_label
_atom_site_type_symbol
_atom_site_fract_x
_atom_site_fract_y
_atom_site_fract_z
_atom_site_charge
Co	Co	-0.00000 0.53031 -0.00000 1.10200
Co	Co	0.33333 0.46969 0.46969 1.13500
Co	Co	0.66667 0.00000 0.53031 1.11400
H 	H 	0.54873 0.88040 0.69190 0.07000
H 	H 	0.52757 0.04150 0.24110 0.00700
H 	H 	0.82760 0.15350 0.57840 0.28100
H 	H 	0.13910 0.24110 0.04150 -0.02400
H 	H 	0.86090 0.19960 0.95850 0.10700
H 	H 	0.16093 0.42490 0.84650 0.27600
H 	H 	0.88207 0.81150 0.11960 0.04300
H 	H 	0.19423 0.75890 0.80040 0.05500
H 	H 	0.66307 0.23430 0.53530 0.11100
H 	H 	0.32973 0.46470 0.69900 0.10100
H 	H 	0.33693 0.69900 0.46470 0.10100
H 	H 	0.11793 0.69190 0.88040 0.06100
H 	H 	0.47243 0.80040 0.75890 0.05900
H 	H 	0.21540 0.30810 0.18850 0.07900
H 	H 	0.78460 0.11960 0.81150 0.01600
H 	H 	0.50573 0.84650 0.42490 0.28000
H 	H 	0.99640 0.30100 0.76570 0.07200
H 	H 	0.49427 0.42160 0.57510 0.27900
H 	H 	0.83907 0.57840 0.15350 0.28400
H 	H 	0.00360 0.53530 0.23430 0.13200
H 	H 	0.17240 0.57510 0.42160 0.27600
H 	H 	0.80577 0.95850 0.19960 0.08300
H 	H 	0.45127 0.18850 0.30810 0.05700
H 	H 	0.67027 0.76570 0.30100 0.09400
C 	C 	0.49093 0.82721 0.65925 -0.02900
C 	C 	0.17573 0.65925 0.82721 -0.02800
C 	C 	0.83777 0.67936 0.15302 0.39100
C 	C 	0.45203 0.79672 0.57093 -0.03400
C 	C 	0.82427 0.83204 0.17279 0.01100
C 	C 	0.35893 0.70142 0.65440 -0.03300
C 	C 	0.21463 0.57093 0.79672 -0.03800
C 	C 	0.82890 0.15302 0.67936 0.41100
C 	C 	0.84240 0.17279 0.83204 0.07300
C 	C 	0.30193 0.52474 0.71945 -0.12500
C 	C 	0.03140 0.47526 0.19471 -0.25600
C 	C 	0.96860 0.28055 0.80529 -0.00400
C 	C 	0.49557 0.32064 0.47366 0.37200
C 	C 	0.34873 0.56511 0.67215 0.15900
C 	C 	0.88130 0.20328 0.77421 -0.11800
C 	C 	0.17110 0.47366 0.32064 0.35100
C 	C 	0.97440 0.29858 0.95298 0.17700
C 	C 	0.01540 0.32785 0.89296 0.01900
C 	C 	0.64107 0.04702 0.34560 -0.13100
C 	C 	0.15760 0.34075 0.16796 -0.13700
C 	C 	0.54797 0.22579 0.42907 -0.02200
C 	C 	0.77787 0.91940 0.22070 -0.08700
C 	C 	0.68207 0.10704 0.43489 0.19000
C 	C 	0.30773 0.65440 0.70142 -0.03200
C 	C 	0.36473 0.71945 0.52474 -0.12600
C 	C 	0.69227 0.95298 0.29858 0.06100
C 	C 	0.63527 0.19471 0.47526 -0.15400
C 	C 	0.50443 0.84698 0.52634 0.37800
C 	C 	0.55547 0.08060 0.30130 0.01100
C 	C 	0.11870 0.42907 0.22579 0.03100
C 	C 	0.44453 0.77930 0.69870 -0.03100
C 	C 	0.78537 0.77421 0.20328 -0.06400
C 	C 	0.11120 0.30130 0.08060 0.09100
C 	C 	0.02560 0.34560 0.04702 -0.25500
C 	C 	0.69807 0.80529 0.28055 -0.09500
C 	C 	0.65127 0.89296 0.32785 0.12600
C 	C 	0.22213 0.69870 0.77930 -0.03500
C 	C 	0.98460 0.43489 0.10704 0.30900
C 	C 	0.50907 0.16796 0.34075 -0.06900
C 	C 	0.88880 0.22070 0.91940 -0.16500
C 	C 	0.16223 0.52634 0.84698 0.37900
C 	C 	0.31793 0.67215 0.56511 0.16100
O 	O 	0.24090 0.42819 0.34619 -0.44900
O 	O 	0.47143 0.81329 0.44321 -0.48300
O 	O 	0.89740 0.48030 0.07736 -0.42000
O 	O 	0.09243 0.57181 0.91800 -0.43400
O 	O 	0.42577 0.34619 0.42819 -0.45300
O 	O 	0.75910 0.08200 0.65381 -0.47000
O 	O 	0.80477 0.62992 0.18671 -0.49000
O 	O 	0.86190 0.18671 0.62992 -0.49400
O 	O 	0.10260 0.40294 0.92264 -0.33800
O 	O 	0.43593 0.51970 0.59706 -0.38100
O 	O 	0.52857 0.37008 0.55679 -0.48300
O 	O 	0.56407 0.92264 0.40294 -0.35500
O 	O 	0.76927 0.07736 0.48030 -0.40500
O 	O 	0.90757 0.65381 0.08200 -0.45100
O 	O 	0.57423 0.91800 0.57181 -0.42200
O 	O 	0.19523 0.44321 0.81329 -0.48500
O 	O 	0.13810 0.55679 0.37008 -0.48400
O 	O 	0.23073 0.59706 0.51970 -0.38700
