data_crystal

_cell_length_a 14.29900
_cell_length_b 19.03100
_cell_length_c 19.31940
_cell_angle_alpha 119.50700
_cell_angle_beta  90.00000
_cell_angle_gamma 90.00000

_symmetry_space_group_name_	'P 1'
_symmetry_space_group_name_H-M	'P 1'

loop_
_symmetry_equiv_pos_as_xyz
  x,y,z

loop_
_atom_site_label
_atom_site_type_symbol
_atom_site_fract_x
_atom_site_fract_y
_atom_site_fract_z
_atom_site_charge
Co	Co	0.66661 0.67211 0.76620 1.03400
Co	Co	0.66661 0.82789 0.23380 1.03400
Co	Co	0.83339 0.09409 0.76620 1.03300
Co	Co	0.83339 0.40591 0.23380 1.03400
Co	Co	0.33339 0.32789 0.23380 1.03400
Co	Co	0.33339 0.17211 0.76620 1.03400
Co	Co	0.16661 0.90591 0.23380 1.03400
Co	Co	0.16661 0.59409 0.76620 1.03500
H 	H 	0.70140 0.81880 0.74380 -0.02600
H 	H 	0.62640 0.93150 0.75780 0.04200
H 	H 	0.46490 0.93500 0.75880 0.02200
H 	H 	0.46440 0.71520 0.73700 -0.02400
H 	H 	0.31420 0.77960 0.74680 0.00800
H 	H 	0.62870 0.63190 0.59340 -0.01200
H 	H 	0.61680 0.52510 0.46720 0.04700
H 	H 	0.61480 0.39500 0.44740 0.03900
H 	H 	0.64360 0.48860 0.68260 -0.01300
H 	H 	0.63520 0.34680 0.60640 0.04600
H 	H 	0.83330 0.73590 0.88740 -0.03900
H 	H 	0.87310 0.84530 0.00760 0.04600
H 	H 	0.76680 0.94960 0.07180 0.03600
H 	H 	0.58640 0.82520 0.89600 0.00300
H 	H 	0.60330 0.00790 0.07320 0.04000
H 	H 	0.70140 0.68120 0.25620 -0.02600
H 	H 	0.62640 0.56850 0.24220 0.04200
H 	H 	0.46490 0.56500 0.24120 0.02200
H 	H 	0.46440 0.78480 0.26300 -0.02400
H 	H 	0.31420 0.72040 0.25320 0.00800
H 	H 	0.62870 0.86810 0.40660 -0.01200
H 	H 	0.61680 0.97490 0.53280 0.04700
H 	H 	0.61480 0.10500 0.55260 0.03900
H 	H 	0.64360 0.01140 0.31740 -0.01300
H 	H 	0.63520 0.15320 0.39360 0.04600
H 	H 	0.83330 0.76410 0.11260 -0.04100
H 	H 	0.87310 0.65470 0.99240 0.05100
H 	H 	0.76680 0.55040 0.92820 0.03200
H 	H 	0.58640 0.67480 0.10400 0.00100
H 	H 	0.60330 0.49210 0.92680 0.03600
H 	H 	0.79860 0.92500 0.74380 -0.02500
H 	H 	0.87360 0.82630 0.75780 0.04000
H 	H 	0.03510 0.82380 0.75880 0.02300
H 	H 	0.03560 0.02180 0.73700 -0.02200
H 	H 	0.18580 0.96720 0.74680 0.00800
H 	H 	0.87130 0.96150 0.59340 -0.00900
H 	H 	0.88320 0.94210 0.46720 0.04400
H 	H 	0.88520 0.05240 0.44740 0.04100
H 	H 	0.85640 0.19400 0.68260 -0.01200
H 	H 	0.86480 0.25960 0.60640 0.04700
H 	H 	0.66670 0.15150 0.88740 -0.04300
H 	H 	0.62690 0.16230 0.00760 0.05400
H 	H 	0.73320 0.12220 0.07180 0.02900
H 	H 	0.91360 0.07080 0.89600 -0.00100
H 	H 	0.89670 0.06530 0.07320 0.03400
H 	H 	0.79860 0.57500 0.25620 -0.02500
H 	H 	0.87360 0.67370 0.24220 0.04100
H 	H 	0.03510 0.67620 0.24120 0.02200
H 	H 	0.03560 0.47820 0.26300 -0.02400
H 	H 	0.18580 0.53280 0.25320 0.00800
H 	H 	0.87130 0.53850 0.40660 -0.01200
H 	H 	0.88320 0.55790 0.53280 0.04700
H 	H 	0.88520 0.44760 0.55260 0.03900
H 	H 	0.85640 0.30600 0.31740 -0.01300
H 	H 	0.86480 0.24040 0.39360 0.04600
H 	H 	0.66670 0.34850 0.11260 -0.04000
H 	H 	0.62690 0.33770 0.99240 0.04800
H 	H 	0.73320 0.37780 0.92820 0.03500
H 	H 	0.91360 0.42920 0.10400 0.00200
H 	H 	0.89670 0.43470 0.92680 0.03700
H 	H 	0.29860 0.18120 0.25620 -0.02600
H 	H 	0.37360 0.06850 0.24220 0.04200
H 	H 	0.53510 0.06500 0.24120 0.02200
H 	H 	0.53560 0.28480 0.26300 -0.02400
H 	H 	0.68580 0.22040 0.25320 0.00800
H 	H 	0.37130 0.36810 0.40660 -0.01200
H 	H 	0.38320 0.47490 0.53280 0.04700
H 	H 	0.38520 0.60500 0.55260 0.03900
H 	H 	0.35640 0.51140 0.31740 -0.01300
H 	H 	0.36480 0.65320 0.39360 0.04600
H 	H 	0.16670 0.26410 0.11260 -0.03900
H 	H 	0.12690 0.15470 0.99240 0.04600
H 	H 	0.23320 0.05040 0.92820 0.03600
H 	H 	0.41360 0.17480 0.10400 0.00300
H 	H 	0.39670 0.99210 0.92680 0.04000
H 	H 	0.29860 0.31880 0.74380 -0.02600
H 	H 	0.37360 0.43150 0.75780 0.04200
H 	H 	0.53510 0.43500 0.75880 0.02200
H 	H 	0.53560 0.21520 0.73700 -0.02400
H 	H 	0.68580 0.27960 0.74680 0.00800
H 	H 	0.37130 0.13190 0.59340 -0.01200
H 	H 	0.38320 0.02510 0.46720 0.04700
H 	H 	0.38520 0.89500 0.44740 0.03900
H 	H 	0.35640 0.98860 0.68260 -0.01300
H 	H 	0.36480 0.84680 0.60640 0.04600
H 	H 	0.16670 0.23590 0.88740 -0.04100
H 	H 	0.12690 0.34530 0.00760 0.05100
H 	H 	0.23320 0.44960 0.07180 0.03200
H 	H 	0.41360 0.32520 0.89600 0.00100
H 	H 	0.39670 0.50790 0.07320 0.03600
H 	H 	0.20140 0.07500 0.25620 -0.02500
H 	H 	0.12640 0.17370 0.24220 0.04000
H 	H 	0.96490 0.17620 0.24120 0.02300
H 	H 	0.96440 0.97820 0.26300 -0.02200
H 	H 	0.81420 0.03280 0.25320 0.00800
H 	H 	0.12870 0.03850 0.40660 -0.00900
H 	H 	0.11680 0.05790 0.53280 0.04400
H 	H 	0.11480 0.94760 0.55260 0.04100
H 	H 	0.14360 0.80600 0.31740 -0.01200
H 	H 	0.13520 0.74040 0.39360 0.04700
H 	H 	0.33330 0.84850 0.11260 -0.04300
H 	H 	0.37310 0.83770 0.99240 0.05400
H 	H 	0.26680 0.87780 0.92820 0.02900
H 	H 	0.08640 0.92920 0.10400 -0.00100
H 	H 	0.10330 0.93470 0.92680 0.03400
H 	H 	0.20140 0.42500 0.74380 -0.02500
H 	H 	0.12640 0.32630 0.75780 0.04100
H 	H 	0.96490 0.32380 0.75880 0.02200
H 	H 	0.96440 0.52180 0.73700 -0.02400
H 	H 	0.81420 0.46720 0.74680 0.00800
H 	H 	0.12870 0.46150 0.59340 -0.01200
H 	H 	0.11680 0.44210 0.46720 0.04700
H 	H 	0.11480 0.55240 0.44740 0.03900
H 	H 	0.14360 0.69400 0.68260 -0.01300
H 	H 	0.13520 0.75960 0.60640 0.04600
H 	H 	0.33330 0.65150 0.88740 -0.04000
H 	H 	0.37310 0.66230 0.00760 0.04800
H 	H 	0.26680 0.62220 0.07180 0.03500
H 	H 	0.08640 0.57080 0.89600 0.00200
H 	H 	0.10330 0.56530 0.07320 0.03700
C 	C 	0.63640 0.82023 0.74586 0.05400
C 	C 	0.59190 0.88806 0.75332 -0.09800
C 	C 	0.49640 0.89007 0.75398 -0.00700
C 	C 	0.44710 0.82431 0.74728 -0.03100
C 	C 	0.49740 0.75933 0.74130 0.02100
C 	C 	0.34530 0.82331 0.74848 0.02300
C 	C 	0.62930 0.57986 0.58632 0.03800
C 	C 	0.62150 0.51597 0.51014 -0.08700
C 	C 	0.62080 0.43906 0.49832 -0.02700
C 	C 	0.62920 0.42803 0.56394 -0.00800
C 	C 	0.63770 0.49598 0.63864 -0.00200
C 	C 	0.62900 0.34921 0.55962 0.00900
C 	C 	0.78990 0.77715 0.91350 0.04300
C 	C 	0.81470 0.84296 0.98532 -0.08700
C 	C 	0.75170 0.90485 0.02330 -0.04400
C 	C 	0.66580 0.90013 0.98886 -0.00900
C 	C 	0.64550 0.83037 0.91814 0.00400
C 	C 	0.59680 0.96568 0.02136 -0.00600
C 	C 	0.63640 0.67977 0.25414 0.05400
C 	C 	0.59190 0.61194 0.24668 -0.09800
C 	C 	0.49640 0.60993 0.24602 -0.00700
C 	C 	0.44710 0.67569 0.25272 -0.03100
C 	C 	0.49740 0.74067 0.25870 0.02100
C 	C 	0.34530 0.67669 0.25152 0.02300
C 	C 	0.62930 0.92014 0.41368 0.03800
C 	C 	0.62150 0.98403 0.48986 -0.08700
C 	C 	0.62080 0.06094 0.50168 -0.02800
C 	C 	0.62920 0.07197 0.43606 -0.00800
C 	C 	0.63770 0.00402 0.36136 -0.00200
C 	C 	0.62900 0.15079 0.44038 0.00900
C 	C 	0.78990 0.72285 0.08650 0.04800
C 	C 	0.81470 0.65704 0.01468 -0.09800
C 	C 	0.75170 0.59515 0.97670 -0.03200
C 	C 	0.66580 0.59987 0.01114 -0.01800
C 	C 	0.64550 0.66963 0.08186 0.00900
C 	C 	0.59680 0.53432 0.97864 0.00300
C 	C 	0.86360 0.92563 0.74586 0.05200
C 	C 	0.90810 0.86526 0.75332 -0.09400
C 	C 	0.00360 0.86391 0.75398 -0.01000
C 	C 	0.05290 0.92297 0.74728 -0.02800
C 	C 	0.00260 0.98197 0.74130 0.01700
C 	C 	0.15470 0.92517 0.74848 0.02200
C 	C 	0.87070 0.00646 0.58632 0.03000
C 	C 	0.87850 0.99417 0.51014 -0.07800
C 	C 	0.87920 0.05926 0.49832 -0.03300
C 	C 	0.87080 0.13591 0.56394 -0.00500
C 	C 	0.86230 0.14266 0.63864 -0.00400
C 	C 	0.87100 0.21041 0.55962 0.00800
C 	C 	0.71010 0.13635 0.91350 0.05300
C 	C 	0.68530 0.14236 0.98532 -0.10700
C 	C 	0.74830 0.11845 0.02330 -0.02200
C 	C 	0.83420 0.08873 0.98886 -0.02600
C 	C 	0.85450 0.08777 0.91814 0.01300
C 	C 	0.90320 0.05568 0.02136 0.00900
C 	C 	0.86360 0.57437 0.25414 0.05300
C 	C 	0.90810 0.63474 0.24668 -0.09600
C 	C 	0.00360 0.63609 0.24602 -0.00800
C 	C 	0.05290 0.57703 0.25272 -0.03000
C 	C 	0.00260 0.51803 0.25870 0.02000
C 	C 	0.15470 0.57483 0.25152 0.02300
C 	C 	0.87070 0.49354 0.41368 0.03800
C 	C 	0.87850 0.50583 0.48986 -0.08700
C 	C 	0.87920 0.44074 0.50168 -0.02700
C 	C 	0.87080 0.36409 0.43606 -0.00800
C 	C 	0.86230 0.35734 0.36136 -0.00200
C 	C 	0.87100 0.28959 0.44038 0.00900
C 	C 	0.71010 0.36365 0.08650 0.04500
C 	C 	0.68530 0.35764 0.01468 -0.09200
C 	C 	0.74830 0.38155 0.97670 -0.03800
C 	C 	0.83420 0.41127 0.01114 -0.01400
C 	C 	0.85450 0.41223 0.08186 0.00700
C 	C 	0.90320 0.44432 0.97864 -0.00000
C 	C 	0.36360 0.17977 0.25414 0.05400
C 	C 	0.40810 0.11194 0.24668 -0.09800
C 	C 	0.50360 0.10993 0.24602 -0.00700
C 	C 	0.55290 0.17569 0.25272 -0.03100
C 	C 	0.50260 0.24067 0.25870 0.02100
C 	C 	0.65470 0.17669 0.25152 0.02300
C 	C 	0.37070 0.42014 0.41368 0.03800
C 	C 	0.37850 0.48403 0.48986 -0.08700
C 	C 	0.37920 0.56094 0.50168 -0.02700
C 	C 	0.37080 0.57197 0.43606 -0.00800
C 	C 	0.36230 0.50402 0.36136 -0.00200
C 	C 	0.37100 0.65079 0.44038 0.00900
C 	C 	0.21010 0.22285 0.08650 0.04300
C 	C 	0.18530 0.15704 0.01468 -0.08700
C 	C 	0.24830 0.09515 0.97670 -0.04400
C 	C 	0.33420 0.09987 0.01114 -0.00900
C 	C 	0.35450 0.16963 0.08186 0.00400
C 	C 	0.40320 0.03432 0.97864 -0.00600
C 	C 	0.36360 0.32023 0.74586 0.05400
C 	C 	0.40810 0.38806 0.75332 -0.09800
C 	C 	0.50360 0.39007 0.75398 -0.00700
C 	C 	0.55290 0.32431 0.74728 -0.03100
C 	C 	0.50260 0.25933 0.74130 0.02100
C 	C 	0.65470 0.32331 0.74848 0.02300
C 	C 	0.37070 0.07986 0.58632 0.03800
C 	C 	0.37850 0.01597 0.51014 -0.08700
C 	C 	0.37920 0.93906 0.49832 -0.02800
C 	C 	0.37080 0.92803 0.56394 -0.00800
C 	C 	0.36230 0.99598 0.63864 -0.00200
C 	C 	0.37100 0.84921 0.55962 0.00900
C 	C 	0.21010 0.27715 0.91350 0.04800
C 	C 	0.18530 0.34296 0.98532 -0.09800
C 	C 	0.24830 0.40485 0.02330 -0.03200
C 	C 	0.33420 0.40013 0.98886 -0.01800
C 	C 	0.35450 0.33037 0.91814 0.00900
C 	C 	0.40320 0.46568 0.02136 0.00300
C 	C 	0.13640 0.07437 0.25414 0.05200
C 	C 	0.09190 0.13474 0.24668 -0.09400
C 	C 	0.99640 0.13609 0.24602 -0.01000
C 	C 	0.94710 0.07703 0.25272 -0.02800
C 	C 	0.99740 0.01803 0.25870 0.01700
C 	C 	0.84530 0.07483 0.25152 0.02200
C 	C 	0.12930 0.99354 0.41368 0.03000
C 	C 	0.12150 0.00583 0.48986 -0.07800
C 	C 	0.12080 0.94074 0.50168 -0.03300
C 	C 	0.12920 0.86409 0.43606 -0.00500
C 	C 	0.13770 0.85734 0.36136 -0.00400
C 	C 	0.12900 0.78959 0.44038 0.00800
C 	C 	0.28990 0.86365 0.08650 0.05300
C 	C 	0.31470 0.85764 0.01468 -0.10700
C 	C 	0.25170 0.88155 0.97670 -0.02200
C 	C 	0.16580 0.91127 0.01114 -0.02600
C 	C 	0.14550 0.91223 0.08186 0.01300
C 	C 	0.09680 0.94432 0.97864 0.00900
C 	C 	0.13640 0.42563 0.74586 0.05300
C 	C 	0.09190 0.36526 0.75332 -0.09600
C 	C 	0.99640 0.36391 0.75398 -0.00800
C 	C 	0.94710 0.42297 0.74728 -0.03000
C 	C 	0.99740 0.48197 0.74130 0.02000
C 	C 	0.84530 0.42517 0.74848 0.02300
C 	C 	0.12930 0.50646 0.58632 0.03800
C 	C 	0.12150 0.49417 0.51014 -0.08700
C 	C 	0.12080 0.55926 0.49832 -0.02700
C 	C 	0.12920 0.63591 0.56394 -0.00800
C 	C 	0.13770 0.64266 0.63864 -0.00200
C 	C 	0.12900 0.71041 0.55962 0.00900
C 	C 	0.28990 0.63635 0.91350 0.04500
C 	C 	0.31470 0.64236 0.98532 -0.09200
C 	C 	0.25170 0.61845 0.02330 -0.03800
C 	C 	0.16580 0.58873 0.98886 -0.01400
C 	C 	0.14550 0.58777 0.91814 0.00700
C 	C 	0.09680 0.55568 0.02136 -0.00000
N 	N 	0.59159 0.75674 0.74144 -0.24800
N 	N 	0.29870 0.88156 0.75180 -0.09900
N 	N 	0.63770 0.57147 0.65076 -0.25900
N 	N 	0.62070 0.28438 0.49474 -0.08300
N 	N 	0.70660 0.77034 0.88032 -0.25900
N 	N 	0.52830 0.96556 0.97942 -0.08700
N 	N 	0.59159 0.74326 0.25856 -0.24800
N 	N 	0.29870 0.61844 0.24820 -0.09900
N 	N 	0.63770 0.92853 0.34924 -0.25900
N 	N 	0.62070 0.21562 0.50526 -0.08300
N 	N 	0.70660 0.72966 0.11968 -0.26100
N 	N 	0.52830 0.53444 0.02058 -0.08900
N 	N 	0.90841 0.98470 0.74144 -0.24600
N 	N 	0.20130 0.87024 0.75180 -0.09900
N 	N 	0.86230 0.07929 0.65076 -0.25800
N 	N 	0.87930 0.21036 0.49474 -0.08300
N 	N 	0.79340 0.10998 0.88032 -0.26300
N 	N 	0.97170 0.01386 0.97942 -0.09100
N 	N 	0.90841 0.51530 0.25856 -0.24700
N 	N 	0.20130 0.62976 0.24820 -0.09900
N 	N 	0.86230 0.42071 0.34924 -0.25900
N 	N 	0.87930 0.28964 0.50526 -0.08300
N 	N 	0.79340 0.39002 0.11968 -0.26000
N 	N 	0.97170 0.48614 0.02058 -0.08800
N 	N 	0.40841 0.24326 0.25856 -0.24800
N 	N 	0.70130 0.11844 0.24820 -0.09900
N 	N 	0.36230 0.42853 0.34924 -0.25900
N 	N 	0.37930 0.71562 0.50526 -0.08300
N 	N 	0.29340 0.22966 0.11968 -0.25900
N 	N 	0.47170 0.03444 0.02058 -0.08700
N 	N 	0.40841 0.25674 0.74144 -0.24800
N 	N 	0.70130 0.38156 0.75180 -0.09900
N 	N 	0.36230 0.07147 0.65076 -0.25900
N 	N 	0.37930 0.78438 0.49474 -0.08300
N 	N 	0.29340 0.27034 0.88032 -0.26100
N 	N 	0.47170 0.46556 0.97942 -0.08900
N 	N 	0.09159 0.01530 0.25856 -0.24600
N 	N 	0.79870 0.12976 0.24820 -0.09900
N 	N 	0.13770 0.92071 0.34924 -0.25800
N 	N 	0.12070 0.78964 0.50526 -0.08300
N 	N 	0.20660 0.89002 0.11968 -0.26300
N 	N 	0.02830 0.98614 0.02058 -0.09100
N 	N 	0.09159 0.48470 0.74144 -0.24700
N 	N 	0.79870 0.37024 0.75180 -0.09900
N 	N 	0.13770 0.57929 0.65076 -0.25900
N 	N 	0.12070 0.71036 0.49474 -0.08300
N 	N 	0.20660 0.60998 0.88032 -0.26000
N 	N 	0.02830 0.51386 0.97942 -0.08800
