data_crystal

_cell_length_a 33.26100
_cell_length_b 33.26100
_cell_length_c 33.26100
_cell_angle_alpha 90.00000
_cell_angle_beta  90.00000
_cell_angle_gamma 90.00000

_symmetry_space_group_name_	'P 1'
_symmetry_space_group_name_H-M	'P 1'

loop_
_symmetry_equiv_pos_as_xyz
  x,y,z

loop_
_atom_site_label
_atom_site_type_symbol
_atom_site_fract_x
_atom_site_fract_y
_atom_site_fract_z
_atom_site_charge
O 	O 	0.37364 0.62649 0.06079 -0.46100
O 	O 	0.39440 0.57440 0.02630 -0.55300
C 	C 	0.31840 0.65140 0.00701 -0.04500
H 	H 	0.32210 0.66790 0.02930 0.06600
C 	C 	0.34127 0.61670 0.00280 -0.06900
C 	C 	0.33580 0.59201 0.96950 -0.05500
H 	H 	0.35110 0.56880 0.96670 0.06200
C 	C 	0.30750 0.60210 0.94040 0.04500
C 	C 	0.28470 0.63680 0.94460 -0.10800
H 	H 	0.26580 0.64360 0.92520 0.07400
C 	C 	0.29020 0.66150 0.97790 0.04500
C 	C 	0.37370 0.60220 0.03170 0.44100
C 	C 	0.26340 0.69260 0.98370 -0.00600
C 	C 	0.24010 0.71970 0.98580 -0.05000
C 	C 	0.17560 0.75310 0.96890 -0.17500
H 	H 	0.17260 0.73780 0.94570 0.09700
C 	C 	0.14910 0.78440 0.97690 0.11500
C 	C 	0.15360 0.80720 0.01170 -0.15700
H 	H 	0.13590 0.82820 0.01700 0.08700
C 	C 	0.18460 0.79870 0.03840 0.07300
H 	H 	0.18760 0.81400 0.06160 -0.00000
C 	C 	0.21110 0.76740 0.03040 -0.16000
H 	H 	0.23180 0.76170 0.04830 0.08800
C 	C 	0.20660 0.74460 0.99570 0.11400
C 	C 	0.29960 0.55330 0.87780 -0.05000
C 	C 	0.30310 0.57610 0.90480 -0.00900
O 	O 	0.12636 0.37351 0.56079 -0.46200
O 	O 	0.10560 0.42560 0.52630 -0.55400
C 	C 	0.18160 0.34860 0.50701 -0.04600
H 	H 	0.17790 0.33210 0.52930 0.06500
C 	C 	0.15873 0.38330 0.50280 -0.07000
C 	C 	0.16420 0.40799 0.46950 -0.05600
H 	H 	0.14890 0.43120 0.46670 0.06100
C 	C 	0.19250 0.39790 0.44040 0.04400
C 	C 	0.21530 0.36320 0.44460 -0.10900
H 	H 	0.23420 0.35640 0.42520 0.07300
C 	C 	0.20980 0.33850 0.47790 0.04400
C 	C 	0.12630 0.39780 0.53170 0.44000
C 	C 	0.23660 0.30740 0.48370 -0.00700
C 	C 	0.25990 0.28030 0.48580 -0.05100
C 	C 	0.32440 0.24690 0.46890 -0.17600
H 	H 	0.32740 0.26220 0.44570 0.09600
C 	C 	0.35090 0.21560 0.47690 0.11400
C 	C 	0.34640 0.19280 0.51170 -0.15800
H 	H 	0.36410 0.17180 0.51700 0.08600
C 	C 	0.31540 0.20130 0.53840 0.07300
H 	H 	0.31240 0.18600 0.56160 -0.00000
C 	C 	0.28890 0.23260 0.53040 -0.16000
H 	H 	0.26820 0.23830 0.54830 0.08800
C 	C 	0.29340 0.25540 0.49570 0.11400
C 	C 	0.20040 0.44670 0.37780 -0.05000
C 	C 	0.19690 0.42390 0.40480 -0.00900
O 	O 	0.62636 0.12649 0.43921 -0.46200
O 	O 	0.60560 0.07440 0.47370 -0.55400
C 	C 	0.68160 0.15140 0.49299 -0.04600
H 	H 	0.67790 0.16790 0.47070 0.06500
C 	C 	0.65873 0.11670 0.49720 -0.07000
C 	C 	0.66420 0.09201 0.53050 -0.05600
H 	H 	0.64890 0.06880 0.53330 0.06100
C 	C 	0.69250 0.10210 0.55960 0.04400
C 	C 	0.71530 0.13680 0.55540 -0.10900
H 	H 	0.73420 0.14360 0.57480 0.07300
C 	C 	0.70980 0.16150 0.52210 0.04400
C 	C 	0.62630 0.10220 0.46830 0.44000
C 	C 	0.73660 0.19260 0.51630 -0.00700
C 	C 	0.75990 0.21970 0.51420 -0.05100
C 	C 	0.82440 0.25310 0.53110 -0.17600
H 	H 	0.82740 0.23780 0.55430 0.09600
C 	C 	0.85090 0.28440 0.52310 0.11400
C 	C 	0.84640 0.30720 0.48830 -0.15800
H 	H 	0.86410 0.32820 0.48300 0.08600
C 	C 	0.81540 0.29870 0.46160 0.07300
H 	H 	0.81240 0.31400 0.43840 -0.00000
C 	C 	0.78890 0.26740 0.46960 -0.16000
H 	H 	0.76820 0.26170 0.45170 0.08800
C 	C 	0.79340 0.24460 0.50430 0.11400
C 	C 	0.70040 0.05330 0.62220 -0.05000
C 	C 	0.69690 0.07610 0.59520 -0.00900
O 	O 	0.87364 0.87351 0.93921 -0.46200
O 	O 	0.89440 0.92560 0.97370 -0.55400
C 	C 	0.81840 0.84860 0.99299 -0.04600
H 	H 	0.82210 0.83210 0.97070 0.06500
C 	C 	0.84127 0.88330 0.99720 -0.07000
C 	C 	0.83580 0.90799 0.03050 -0.05600
H 	H 	0.85110 0.93120 0.03330 0.06100
C 	C 	0.80750 0.89790 0.05960 0.04400
C 	C 	0.78470 0.86320 0.05540 -0.10900
H 	H 	0.76580 0.85640 0.07480 0.07300
C 	C 	0.79020 0.83850 0.02210 0.04400
C 	C 	0.87370 0.89780 0.96830 0.44000
C 	C 	0.76340 0.80740 0.01630 -0.00700
C 	C 	0.74010 0.78030 0.01420 -0.05100
C 	C 	0.67560 0.74690 0.03110 -0.17500
H 	H 	0.67260 0.76220 0.05430 0.09600
C 	C 	0.64910 0.71560 0.02310 0.11400
C 	C 	0.65360 0.69280 0.98830 -0.15800
H 	H 	0.63590 0.67180 0.98300 0.08600
C 	C 	0.68460 0.70130 0.96160 0.07300
H 	H 	0.68760 0.68600 0.93840 -0.00000
C 	C 	0.71110 0.73260 0.96960 -0.16000
H 	H 	0.73180 0.73830 0.95170 0.08800
C 	C 	0.70660 0.75540 0.00430 0.11400
C 	C 	0.79960 0.94670 0.12220 -0.05000
C 	C 	0.80310 0.92390 0.09520 -0.00900
O 	O 	0.06079 0.37364 0.62649 -0.46200
O 	O 	0.02630 0.39440 0.57440 -0.55400
C 	C 	0.00701 0.31840 0.65140 -0.04600
H 	H 	0.02930 0.32210 0.66790 0.06500
C 	C 	0.00280 0.34127 0.61670 -0.07000
C 	C 	0.96950 0.33580 0.59201 -0.05600
H 	H 	0.96670 0.35110 0.56880 0.06100
C 	C 	0.94040 0.30750 0.60210 0.04400
C 	C 	0.94460 0.28470 0.63680 -0.10900
H 	H 	0.92520 0.26580 0.64360 0.07300
C 	C 	0.97790 0.29020 0.66150 0.04400
C 	C 	0.03170 0.37370 0.60220 0.44000
C 	C 	0.98370 0.26340 0.69260 -0.00700
C 	C 	0.98580 0.24010 0.71970 -0.05100
C 	C 	0.96890 0.17560 0.75310 -0.17600
H 	H 	0.94570 0.17260 0.73780 0.09600
C 	C 	0.97690 0.14910 0.78440 0.11400
C 	C 	0.01170 0.15360 0.80720 -0.15800
H 	H 	0.01700 0.13590 0.82820 0.08600
C 	C 	0.03840 0.18460 0.79870 0.07300
H 	H 	0.06160 0.18760 0.81400 -0.00000
C 	C 	0.03040 0.21110 0.76740 -0.16000
H 	H 	0.04830 0.23180 0.76170 0.08800
C 	C 	0.99570 0.20660 0.74460 0.11400
C 	C 	0.87780 0.29960 0.55330 -0.05000
C 	C 	0.90480 0.30310 0.57610 -0.00900
O 	O 	0.56079 0.12636 0.37351 -0.46200
O 	O 	0.52630 0.10560 0.42560 -0.55400
C 	C 	0.50701 0.18160 0.34860 -0.04600
H 	H 	0.52930 0.17790 0.33210 0.06500
C 	C 	0.50280 0.15873 0.38330 -0.07000
C 	C 	0.46950 0.16420 0.40799 -0.05600
H 	H 	0.46670 0.14890 0.43120 0.06100
C 	C 	0.44040 0.19250 0.39790 0.04400
C 	C 	0.44460 0.21530 0.36320 -0.10900
H 	H 	0.42520 0.23420 0.35640 0.07300
C 	C 	0.47790 0.20980 0.33850 0.04400
C 	C 	0.53170 0.12630 0.39780 0.44000
C 	C 	0.48370 0.23660 0.30740 -0.00700
C 	C 	0.48580 0.25990 0.28030 -0.05100
C 	C 	0.46890 0.32440 0.24690 -0.17600
H 	H 	0.44570 0.32740 0.26220 0.09600
C 	C 	0.47690 0.35090 0.21560 0.11400
C 	C 	0.51170 0.34640 0.19280 -0.15800
H 	H 	0.51700 0.36410 0.17180 0.08600
C 	C 	0.53840 0.31540 0.20130 0.07300
H 	H 	0.56160 0.31240 0.18600 -0.00000
C 	C 	0.53040 0.28890 0.23260 -0.16000
H 	H 	0.54830 0.26820 0.23830 0.08800
C 	C 	0.49570 0.29340 0.25540 0.11400
C 	C 	0.37780 0.20040 0.44670 -0.05000
C 	C 	0.40480 0.19690 0.42390 -0.00900
O 	O 	0.43921 0.62636 0.12649 -0.46200
O 	O 	0.47370 0.60560 0.07440 -0.55400
C 	C 	0.49299 0.68160 0.15140 -0.04600
H 	H 	0.47070 0.67790 0.16790 0.06500
C 	C 	0.49720 0.65873 0.11670 -0.07000
C 	C 	0.53050 0.66420 0.09201 -0.05600
H 	H 	0.53330 0.64890 0.06880 0.06100
C 	C 	0.55960 0.69250 0.10210 0.04400
C 	C 	0.55540 0.71530 0.13680 -0.10900
H 	H 	0.57480 0.73420 0.14360 0.07300
C 	C 	0.52210 0.70980 0.16150 0.04400
C 	C 	0.46830 0.62630 0.10220 0.44000
C 	C 	0.51630 0.73660 0.19260 -0.00700
C 	C 	0.51420 0.75990 0.21970 -0.05100
C 	C 	0.53110 0.82440 0.25310 -0.17600
H 	H 	0.55430 0.82740 0.23780 0.09600
C 	C 	0.52310 0.85090 0.28440 0.11400
C 	C 	0.48830 0.84640 0.30720 -0.15800
H 	H 	0.48300 0.86410 0.32820 0.08600
C 	C 	0.46160 0.81540 0.29870 0.07300
H 	H 	0.43840 0.81240 0.31400 -0.00000
C 	C 	0.46960 0.78890 0.26740 -0.16000
H 	H 	0.45170 0.76820 0.26170 0.08800
C 	C 	0.50430 0.79340 0.24460 0.11400
C 	C 	0.62220 0.70040 0.05330 -0.05000
C 	C 	0.59520 0.69690 0.07610 -0.00900
O 	O 	0.93921 0.87364 0.87351 -0.46200
O 	O 	0.97370 0.89440 0.92560 -0.55400
C 	C 	0.99299 0.81840 0.84860 -0.04600
H 	H 	0.97070 0.82210 0.83210 0.06500
C 	C 	0.99720 0.84127 0.88330 -0.07000
C 	C 	0.03050 0.83580 0.90799 -0.05600
H 	H 	0.03330 0.85110 0.93120 0.06100
C 	C 	0.05960 0.80750 0.89790 0.04400
C 	C 	0.05540 0.78470 0.86320 -0.10900
H 	H 	0.07480 0.76580 0.85640 0.07300
C 	C 	0.02210 0.79020 0.83850 0.04400
C 	C 	0.96830 0.87370 0.89780 0.44000
C 	C 	0.01630 0.76340 0.80740 -0.00700
C 	C 	0.01420 0.74010 0.78030 -0.05100
C 	C 	0.03110 0.67560 0.74690 -0.17500
H 	H 	0.05430 0.67260 0.76220 0.09600
C 	C 	0.02310 0.64910 0.71560 0.11400
C 	C 	0.98830 0.65360 0.69280 -0.15800
H 	H 	0.98300 0.63590 0.67180 0.08600
C 	C 	0.96160 0.68460 0.70130 0.07300
H 	H 	0.93840 0.68760 0.68600 -0.00000
C 	C 	0.96960 0.71110 0.73260 -0.16000
H 	H 	0.95170 0.73180 0.73830 0.08800
C 	C 	0.00430 0.70660 0.75540 0.11400
C 	C 	0.12220 0.79960 0.94670 -0.05000
C 	C 	0.09520 0.80310 0.92390 -0.00900
O 	O 	0.62649 0.06079 0.37364 -0.46200
O 	O 	0.57440 0.02630 0.39440 -0.55400
C 	C 	0.65140 0.00701 0.31840 -0.04600
H 	H 	0.66790 0.02930 0.32210 0.06500
C 	C 	0.61670 0.00280 0.34127 -0.07000
C 	C 	0.59201 0.96950 0.33580 -0.05600
H 	H 	0.56880 0.96670 0.35110 0.06100
C 	C 	0.60210 0.94040 0.30750 0.04400
C 	C 	0.63680 0.94460 0.28470 -0.10900
H 	H 	0.64360 0.92520 0.26580 0.07300
C 	C 	0.66150 0.97790 0.29020 0.04400
C 	C 	0.60220 0.03170 0.37370 0.44000
C 	C 	0.69260 0.98370 0.26340 -0.00700
C 	C 	0.71970 0.98580 0.24010 -0.05100
C 	C 	0.75310 0.96890 0.17560 -0.17600
H 	H 	0.73780 0.94570 0.17260 0.09600
C 	C 	0.78440 0.97690 0.14910 0.11400
C 	C 	0.80720 0.01170 0.15360 -0.15800
H 	H 	0.82820 0.01700 0.13590 0.08600
C 	C 	0.79870 0.03840 0.18460 0.07300
H 	H 	0.81400 0.06160 0.18760 -0.00000
C 	C 	0.76740 0.03040 0.21110 -0.16000
H 	H 	0.76170 0.04830 0.23180 0.08800
C 	C 	0.74460 0.99570 0.20660 0.11400
C 	C 	0.55330 0.87780 0.29960 -0.05000
C 	C 	0.57610 0.90480 0.30310 -0.00900
O 	O 	0.37351 0.56079 0.12636 -0.46200
O 	O 	0.42560 0.52630 0.10560 -0.55400
C 	C 	0.34860 0.50701 0.18160 -0.04600
H 	H 	0.33210 0.52930 0.17790 0.06500
C 	C 	0.38330 0.50280 0.15873 -0.07000
C 	C 	0.40799 0.46950 0.16420 -0.05600
H 	H 	0.43120 0.46670 0.14890 0.06100
C 	C 	0.39790 0.44040 0.19250 0.04400
C 	C 	0.36320 0.44460 0.21530 -0.10900
H 	H 	0.35640 0.42520 0.23420 0.07300
C 	C 	0.33850 0.47790 0.20980 0.04400
C 	C 	0.39780 0.53170 0.12630 0.44000
C 	C 	0.30740 0.48370 0.23660 -0.00700
C 	C 	0.28030 0.48580 0.25990 -0.05100
C 	C 	0.24690 0.46890 0.32440 -0.17600
H 	H 	0.26220 0.44570 0.32740 0.09600
C 	C 	0.21560 0.47690 0.35090 0.11400
C 	C 	0.19280 0.51170 0.34640 -0.15800
H 	H 	0.17180 0.51700 0.36410 0.08600
C 	C 	0.20130 0.53840 0.31540 0.07300
H 	H 	0.18600 0.56160 0.31240 -0.00000
C 	C 	0.23260 0.53040 0.28890 -0.16000
H 	H 	0.23830 0.54830 0.26820 0.08800
C 	C 	0.25540 0.49570 0.29340 0.11400
C 	C 	0.44670 0.37780 0.20040 -0.05000
C 	C 	0.42390 0.40480 0.19690 -0.00900
O 	O 	0.12649 0.43921 0.62636 -0.46200
O 	O 	0.07440 0.47370 0.60560 -0.55400
C 	C 	0.15140 0.49299 0.68160 -0.04600
H 	H 	0.16790 0.47070 0.67790 0.06500
C 	C 	0.11670 0.49720 0.65873 -0.07000
C 	C 	0.09201 0.53050 0.66420 -0.05600
H 	H 	0.06880 0.53330 0.64890 0.06100
C 	C 	0.10210 0.55960 0.69250 0.04400
C 	C 	0.13680 0.55540 0.71530 -0.10900
H 	H 	0.14360 0.57480 0.73420 0.07300
C 	C 	0.16150 0.52210 0.70980 0.04400
C 	C 	0.10220 0.46830 0.62630 0.44000
C 	C 	0.19260 0.51630 0.73660 -0.00700
C 	C 	0.21970 0.51420 0.75990 -0.05100
C 	C 	0.25310 0.53110 0.82440 -0.17600
H 	H 	0.23780 0.55430 0.82740 0.09600
C 	C 	0.28440 0.52310 0.85090 0.11400
C 	C 	0.30720 0.48830 0.84640 -0.15800
H 	H 	0.32820 0.48300 0.86410 0.08600
C 	C 	0.29870 0.46160 0.81540 0.07300
H 	H 	0.31400 0.43840 0.81240 -0.00000
C 	C 	0.26740 0.46960 0.78890 -0.16000
H 	H 	0.26170 0.45170 0.76820 0.08800
C 	C 	0.24460 0.50430 0.79340 0.11400
C 	C 	0.05330 0.62220 0.70040 -0.05000
C 	C 	0.07610 0.59520 0.69690 -0.00900
O 	O 	0.87351 0.93921 0.87364 -0.46200
O 	O 	0.92560 0.97370 0.89440 -0.55400
C 	C 	0.84860 0.99299 0.81840 -0.04600
H 	H 	0.83210 0.97070 0.82210 0.06500
C 	C 	0.88330 0.99720 0.84127 -0.07000
C 	C 	0.90799 0.03050 0.83580 -0.05600
H 	H 	0.93120 0.03330 0.85110 0.06100
C 	C 	0.89790 0.05960 0.80750 0.04400
C 	C 	0.86320 0.05540 0.78470 -0.10900
H 	H 	0.85640 0.07480 0.76580 0.07300
C 	C 	0.83850 0.02210 0.79020 0.04400
C 	C 	0.89780 0.96830 0.87370 0.44000
C 	C 	0.80740 0.01630 0.76340 -0.00700
C 	C 	0.78030 0.01420 0.74010 -0.05100
C 	C 	0.74690 0.03110 0.67560 -0.17500
H 	H 	0.76220 0.05430 0.67260 0.09600
C 	C 	0.71560 0.02310 0.64910 0.11400
C 	C 	0.69280 0.98830 0.65360 -0.15800
H 	H 	0.67180 0.98300 0.63590 0.08600
C 	C 	0.70130 0.96160 0.68460 0.07300
H 	H 	0.68600 0.93840 0.68760 -0.00000
C 	C 	0.73260 0.96960 0.71110 -0.16000
H 	H 	0.73830 0.95170 0.73180 0.08800
C 	C 	0.75540 0.00430 0.70660 0.11400
C 	C 	0.94670 0.12220 0.79960 -0.05000
C 	C 	0.92390 0.09520 0.80310 -0.00900
O 	O 	0.37649 0.62364 0.18921 -0.46200
O 	O 	0.32440 0.64440 0.22370 -0.55400
C 	C 	0.40140 0.56840 0.24299 -0.04600
H 	H 	0.41790 0.57210 0.22070 0.06500
C 	C 	0.36670 0.59127 0.24720 -0.07000
C 	C 	0.34201 0.58580 0.28050 -0.05600
H 	H 	0.31880 0.60110 0.28330 0.06100
C 	C 	0.35210 0.55750 0.30960 0.04400
C 	C 	0.38680 0.53470 0.30540 -0.10900
H 	H 	0.39360 0.51580 0.32480 0.07300
C 	C 	0.41150 0.54020 0.27210 0.04400
C 	C 	0.35220 0.62370 0.21830 0.44000
C 	C 	0.44260 0.51340 0.26630 -0.00700
C 	C 	0.46970 0.49010 0.26420 -0.05100
C 	C 	0.50310 0.42560 0.28110 -0.17600
H 	H 	0.48780 0.42260 0.30430 0.09600
C 	C 	0.53440 0.39910 0.27310 0.11400
C 	C 	0.55720 0.40360 0.23830 -0.15800
H 	H 	0.57820 0.38590 0.23300 0.08600
C 	C 	0.54870 0.43460 0.21160 0.07300
H 	H 	0.56400 0.43760 0.18840 -0.00000
C 	C 	0.51740 0.46110 0.21960 -0.16000
H 	H 	0.51170 0.48180 0.20170 0.08800
C 	C 	0.49460 0.45660 0.25430 0.11400
C 	C 	0.30330 0.54960 0.37220 -0.05000
C 	C 	0.32610 0.55310 0.34520 -0.00900
O 	O 	0.12351 0.37636 0.68921 -0.46200
O 	O 	0.17560 0.35560 0.72370 -0.55400
C 	C 	0.09860 0.43160 0.74299 -0.04600
H 	H 	0.08210 0.42790 0.72070 0.06500
C 	C 	0.13330 0.40873 0.74720 -0.07000
C 	C 	0.15799 0.41420 0.78050 -0.05600
H 	H 	0.18120 0.39890 0.78330 0.06100
C 	C 	0.14790 0.44250 0.80960 0.04400
C 	C 	0.11320 0.46530 0.80540 -0.10900
H 	H 	0.10640 0.48420 0.82480 0.07300
C 	C 	0.08850 0.45980 0.77210 0.04400
C 	C 	0.14780 0.37630 0.71830 0.44000
C 	C 	0.05740 0.48660 0.76630 -0.00700
C 	C 	0.03030 0.50990 0.76420 -0.05100
C 	C 	0.99690 0.57440 0.78110 -0.17500
H 	H 	0.01220 0.57740 0.80430 0.09600
C 	C 	0.96560 0.60090 0.77310 0.11400
C 	C 	0.94280 0.59640 0.73830 -0.15800
H 	H 	0.92180 0.61410 0.73300 0.08600
C 	C 	0.95130 0.56540 0.71160 0.07300
H 	H 	0.93600 0.56240 0.68840 -0.00000
C 	C 	0.98260 0.53890 0.71960 -0.16000
H 	H 	0.98830 0.51820 0.70170 0.08800
C 	C 	0.00540 0.54340 0.75430 0.11400
C 	C 	0.19670 0.45040 0.87220 -0.05000
C 	C 	0.17390 0.44690 0.84520 -0.00900
O 	O 	0.87649 0.87636 0.81079 -0.46200
O 	O 	0.82440 0.85560 0.77630 -0.55400
C 	C 	0.90140 0.93160 0.75701 -0.04600
H 	H 	0.91790 0.92790 0.77930 0.06500
C 	C 	0.86670 0.90873 0.75280 -0.07000
C 	C 	0.84201 0.91420 0.71950 -0.05600
H 	H 	0.81880 0.89890 0.71670 0.06100
C 	C 	0.85210 0.94250 0.69040 0.04400
C 	C 	0.88680 0.96530 0.69460 -0.10900
H 	H 	0.89360 0.98420 0.67520 0.07300
C 	C 	0.91150 0.95980 0.72790 0.04400
C 	C 	0.85220 0.87630 0.78170 0.44000
C 	C 	0.94260 0.98660 0.73370 -0.00700
C 	C 	0.96970 0.00990 0.73580 -0.05100
C 	C 	0.00310 0.07440 0.71890 -0.17500
H 	H 	0.98780 0.07740 0.69570 0.09600
C 	C 	0.03440 0.10090 0.72690 0.11400
C 	C 	0.05720 0.09640 0.76170 -0.15800
H 	H 	0.07820 0.11410 0.76700 0.08600
C 	C 	0.04870 0.06540 0.78840 0.07300
H 	H 	0.06400 0.06240 0.81160 -0.00000
C 	C 	0.01740 0.03890 0.78040 -0.16000
H 	H 	0.01170 0.01820 0.79830 0.08800
C 	C 	0.99460 0.04340 0.74570 0.11400
C 	C 	0.80330 0.95040 0.62780 -0.05000
C 	C 	0.82610 0.94690 0.65480 -0.00900
O 	O 	0.62351 0.12364 0.31079 -0.46200
O 	O 	0.67560 0.14440 0.27630 -0.55400
C 	C 	0.59860 0.06840 0.25701 -0.04600
H 	H 	0.58210 0.07210 0.27930 0.06500
C 	C 	0.63330 0.09127 0.25280 -0.07000
C 	C 	0.65799 0.08580 0.21950 -0.05600
H 	H 	0.68120 0.10110 0.21670 0.06100
C 	C 	0.64790 0.05750 0.19040 0.04400
C 	C 	0.61320 0.03470 0.19460 -0.10900
H 	H 	0.60640 0.01580 0.17520 0.07300
C 	C 	0.58850 0.04020 0.22790 0.04400
C 	C 	0.64780 0.12370 0.28170 0.44000
C 	C 	0.55740 0.01340 0.23370 -0.00700
C 	C 	0.53030 0.99010 0.23580 -0.05100
C 	C 	0.49690 0.92560 0.21890 -0.17600
H 	H 	0.51220 0.92260 0.19570 0.09600
C 	C 	0.46560 0.89910 0.22690 0.11400
C 	C 	0.44280 0.90360 0.26170 -0.15800
H 	H 	0.42180 0.88590 0.26700 0.08600
C 	C 	0.45130 0.93460 0.28840 0.07300
H 	H 	0.43600 0.93760 0.31160 -0.00000
C 	C 	0.48260 0.96110 0.28040 -0.16000
H 	H 	0.48830 0.98180 0.29830 0.08800
C 	C 	0.50540 0.95660 0.24570 0.11400
C 	C 	0.69670 0.04960 0.12780 -0.05000
C 	C 	0.67390 0.05310 0.15480 -0.00900
O 	O 	0.12364 0.31079 0.62351 -0.46200
O 	O 	0.14440 0.27630 0.67560 -0.55400
C 	C 	0.06840 0.25701 0.59860 -0.04600
H 	H 	0.07210 0.27930 0.58210 0.06500
C 	C 	0.09127 0.25280 0.63330 -0.07000
C 	C 	0.08580 0.21950 0.65799 -0.05600
H 	H 	0.10110 0.21670 0.68120 0.06100
C 	C 	0.05750 0.19040 0.64790 0.04400
C 	C 	0.03470 0.19460 0.61320 -0.10900
H 	H 	0.01580 0.17520 0.60640 0.07300
C 	C 	0.04020 0.22790 0.58850 0.04400
C 	C 	0.12370 0.28170 0.64780 0.44000
C 	C 	0.01340 0.23370 0.55740 -0.00700
C 	C 	0.99010 0.23580 0.53030 -0.05100
C 	C 	0.92560 0.21890 0.49690 -0.17600
H 	H 	0.92260 0.19570 0.51220 0.09600
C 	C 	0.89910 0.22690 0.46560 0.11400
C 	C 	0.90360 0.26170 0.44280 -0.15800
H 	H 	0.88590 0.26700 0.42180 0.08600
C 	C 	0.93460 0.28840 0.45130 0.07300
H 	H 	0.93760 0.31160 0.43600 -0.00000
C 	C 	0.96110 0.28040 0.48260 -0.16000
H 	H 	0.98180 0.29830 0.48830 0.08800
C 	C 	0.95660 0.24570 0.50540 0.11400
C 	C 	0.04960 0.12780 0.69670 -0.05000
C 	C 	0.05310 0.15480 0.67390 -0.00900
O 	O 	0.87636 0.81079 0.87649 -0.46200
O 	O 	0.85560 0.77630 0.82440 -0.55400
C 	C 	0.93160 0.75701 0.90140 -0.04600
H 	H 	0.92790 0.77930 0.91790 0.06500
C 	C 	0.90873 0.75280 0.86670 -0.07000
C 	C 	0.91420 0.71950 0.84201 -0.05600
H 	H 	0.89890 0.71670 0.81880 0.06100
C 	C 	0.94250 0.69040 0.85210 0.04400
C 	C 	0.96530 0.69460 0.88680 -0.10900
H 	H 	0.98420 0.67520 0.89360 0.07300
C 	C 	0.95980 0.72790 0.91150 0.04400
C 	C 	0.87630 0.78170 0.85220 0.44000
C 	C 	0.98660 0.73370 0.94260 -0.00700
C 	C 	0.00990 0.73580 0.96970 -0.05100
C 	C 	0.07440 0.71890 0.00310 -0.17500
H 	H 	0.07740 0.69570 0.98780 0.09600
C 	C 	0.10090 0.72690 0.03440 0.11400
C 	C 	0.09640 0.76170 0.05720 -0.15800
H 	H 	0.11410 0.76700 0.07820 0.08600
C 	C 	0.06540 0.78840 0.04870 0.07300
H 	H 	0.06240 0.81160 0.06400 -0.00000
C 	C 	0.03890 0.78040 0.01740 -0.16000
H 	H 	0.01820 0.79830 0.01170 0.08800
C 	C 	0.04340 0.74570 0.99460 0.11400
C 	C 	0.95040 0.62780 0.80330 -0.05000
C 	C 	0.94690 0.65480 0.82610 -0.00900
O 	O 	0.37636 0.68921 0.12351 -0.46200
O 	O 	0.35560 0.72370 0.17560 -0.55400
C 	C 	0.43160 0.74299 0.09860 -0.04600
H 	H 	0.42790 0.72070 0.08210 0.06500
C 	C 	0.40873 0.74720 0.13330 -0.07000
C 	C 	0.41420 0.78050 0.15799 -0.05600
H 	H 	0.39890 0.78330 0.18120 0.06100
C 	C 	0.44250 0.80960 0.14790 0.04400
C 	C 	0.46530 0.80540 0.11320 -0.10900
H 	H 	0.48420 0.82480 0.10640 0.07300
C 	C 	0.45980 0.77210 0.08850 0.04400
C 	C 	0.37630 0.71830 0.14780 0.44000
C 	C 	0.48660 0.76630 0.05740 -0.00700
C 	C 	0.50990 0.76420 0.03030 -0.05100
C 	C 	0.57440 0.78110 0.99690 -0.17500
H 	H 	0.57740 0.80430 0.01220 0.09600
C 	C 	0.60090 0.77310 0.96560 0.11400
C 	C 	0.59640 0.73830 0.94280 -0.15800
H 	H 	0.61410 0.73300 0.92180 0.08600
C 	C 	0.56540 0.71160 0.95130 0.07300
H 	H 	0.56240 0.68840 0.93600 -0.00000
C 	C 	0.53890 0.71960 0.98260 -0.16000
H 	H 	0.51820 0.70170 0.98830 0.08800
C 	C 	0.54340 0.75430 0.00540 0.11400
C 	C 	0.45040 0.87220 0.19670 -0.05000
C 	C 	0.44690 0.84520 0.17390 -0.00900
O 	O 	0.62364 0.18921 0.37649 -0.46200
O 	O 	0.64440 0.22370 0.32440 -0.55400
C 	C 	0.56840 0.24299 0.40140 -0.04600
H 	H 	0.57210 0.22070 0.41790 0.06500
C 	C 	0.59127 0.24720 0.36670 -0.07000
C 	C 	0.58580 0.28050 0.34201 -0.05600
H 	H 	0.60110 0.28330 0.31880 0.06100
C 	C 	0.55750 0.30960 0.35210 0.04400
C 	C 	0.53470 0.30540 0.38680 -0.10900
H 	H 	0.51580 0.32480 0.39360 0.07300
C 	C 	0.54020 0.27210 0.41150 0.04400
C 	C 	0.62370 0.21830 0.35220 0.44000
C 	C 	0.51340 0.26630 0.44260 -0.00700
C 	C 	0.49010 0.26420 0.46970 -0.05100
C 	C 	0.42560 0.28110 0.50310 -0.17600
H 	H 	0.42260 0.30430 0.48780 0.09600
C 	C 	0.39910 0.27310 0.53440 0.11400
C 	C 	0.40360 0.23830 0.55720 -0.15800
H 	H 	0.38590 0.23300 0.57820 0.08600
C 	C 	0.43460 0.21160 0.54870 0.07300
H 	H 	0.43760 0.18840 0.56400 -0.00000
C 	C 	0.46110 0.21960 0.51740 -0.16000
H 	H 	0.48180 0.20170 0.51170 0.08800
C 	C 	0.45660 0.25430 0.49460 0.11400
C 	C 	0.54960 0.37220 0.30330 -0.05000
C 	C 	0.55310 0.34520 0.32610 -0.00900
O 	O 	0.81079 0.87649 0.87636 -0.46200
O 	O 	0.77630 0.82440 0.85560 -0.55400
C 	C 	0.75701 0.90140 0.93160 -0.04600
H 	H 	0.77930 0.91790 0.92790 0.06500
C 	C 	0.75280 0.86670 0.90873 -0.07000
C 	C 	0.71950 0.84201 0.91420 -0.05600
H 	H 	0.71670 0.81880 0.89890 0.06100
C 	C 	0.69040 0.85210 0.94250 0.04400
C 	C 	0.69460 0.88680 0.96530 -0.10900
H 	H 	0.67520 0.89360 0.98420 0.07300
C 	C 	0.72790 0.91150 0.95980 0.04400
C 	C 	0.78170 0.85220 0.87630 0.44000
C 	C 	0.73370 0.94260 0.98660 -0.00700
C 	C 	0.73580 0.96970 0.00990 -0.05100
C 	C 	0.71890 0.00310 0.07440 -0.17500
H 	H 	0.69570 0.98780 0.07740 0.09600
C 	C 	0.72690 0.03440 0.10090 0.11400
C 	C 	0.76170 0.05720 0.09640 -0.15800
H 	H 	0.76700 0.07820 0.11410 0.08600
C 	C 	0.78840 0.04870 0.06540 0.07300
H 	H 	0.81160 0.06400 0.06240 -0.00000
C 	C 	0.78040 0.01740 0.03890 -0.16000
H 	H 	0.79830 0.01170 0.01820 0.08800
C 	C 	0.74570 0.99460 0.04340 0.11400
C 	C 	0.62780 0.80330 0.95040 -0.05000
C 	C 	0.65480 0.82610 0.94690 -0.00900
O 	O 	0.31079 0.62351 0.12364 -0.46200
O 	O 	0.27630 0.67560 0.14440 -0.55400
C 	C 	0.25701 0.59860 0.06840 -0.04600
H 	H 	0.27930 0.58210 0.07210 0.06500
C 	C 	0.25280 0.63330 0.09127 -0.07000
C 	C 	0.21950 0.65799 0.08580 -0.05600
H 	H 	0.21670 0.68120 0.10110 0.06100
C 	C 	0.19040 0.64790 0.05750 0.04400
C 	C 	0.19460 0.61320 0.03470 -0.10900
H 	H 	0.17520 0.60640 0.01580 0.07300
C 	C 	0.22790 0.58850 0.04020 0.04400
C 	C 	0.28170 0.64780 0.12370 0.44000
C 	C 	0.23370 0.55740 0.01340 -0.00700
C 	C 	0.23580 0.53030 0.99010 -0.05100
C 	C 	0.21890 0.49690 0.92560 -0.17600
H 	H 	0.19570 0.51220 0.92260 0.09600
C 	C 	0.22690 0.46560 0.89910 0.11400
C 	C 	0.26170 0.44280 0.90360 -0.15800
H 	H 	0.26700 0.42180 0.88590 0.08600
C 	C 	0.28840 0.45130 0.93460 0.07300
H 	H 	0.31160 0.43600 0.93760 -0.00000
C 	C 	0.28040 0.48260 0.96110 -0.16000
H 	H 	0.29830 0.48830 0.98180 0.08800
C 	C 	0.24570 0.50540 0.95660 0.11400
C 	C 	0.12780 0.69670 0.04960 -0.05000
C 	C 	0.15480 0.67390 0.05310 -0.00900
O 	O 	0.18921 0.37649 0.62364 -0.46200
O 	O 	0.22370 0.32440 0.64440 -0.55400
C 	C 	0.24299 0.40140 0.56840 -0.04600
H 	H 	0.22070 0.41790 0.57210 0.06500
C 	C 	0.24720 0.36670 0.59127 -0.07000
C 	C 	0.28050 0.34201 0.58580 -0.05600
H 	H 	0.28330 0.31880 0.60110 0.06100
C 	C 	0.30960 0.35210 0.55750 0.04400
C 	C 	0.30540 0.38680 0.53470 -0.10900
H 	H 	0.32480 0.39360 0.51580 0.07300
C 	C 	0.27210 0.41150 0.54020 0.04400
C 	C 	0.21830 0.35220 0.62370 0.44000
C 	C 	0.26630 0.44260 0.51340 -0.00700
C 	C 	0.26420 0.46970 0.49010 -0.05100
C 	C 	0.28110 0.50310 0.42560 -0.17600
H 	H 	0.30430 0.48780 0.42260 0.09600
C 	C 	0.27310 0.53440 0.39910 0.11400
C 	C 	0.23830 0.55720 0.40360 -0.15800
H 	H 	0.23300 0.57820 0.38590 0.08600
C 	C 	0.21160 0.54870 0.43460 0.07300
H 	H 	0.18840 0.56400 0.43760 -0.00000
C 	C 	0.21960 0.51740 0.46110 -0.16000
H 	H 	0.20170 0.51170 0.48180 0.08800
C 	C 	0.25430 0.49460 0.45660 0.11400
C 	C 	0.37220 0.30330 0.54960 -0.05000
C 	C 	0.34520 0.32610 0.55310 -0.00900
O 	O 	0.68921 0.12351 0.37636 -0.46200
O 	O 	0.72370 0.17560 0.35560 -0.55400
C 	C 	0.74299 0.09860 0.43160 -0.04600
H 	H 	0.72070 0.08210 0.42790 0.06500
C 	C 	0.74720 0.13330 0.40873 -0.07000
C 	C 	0.78050 0.15799 0.41420 -0.05600
H 	H 	0.78330 0.18120 0.39890 0.06100
C 	C 	0.80960 0.14790 0.44250 0.04400
C 	C 	0.80540 0.11320 0.46530 -0.10900
H 	H 	0.82480 0.10640 0.48420 0.07300
C 	C 	0.77210 0.08850 0.45980 0.04400
C 	C 	0.71830 0.14780 0.37630 0.44000
C 	C 	0.76630 0.05740 0.48660 -0.00700
C 	C 	0.76420 0.03030 0.50990 -0.05100
C 	C 	0.78110 0.99690 0.57440 -0.17500
H 	H 	0.80430 0.01220 0.57740 0.09600
C 	C 	0.77310 0.96560 0.60090 0.11400
C 	C 	0.73830 0.94280 0.59640 -0.15800
H 	H 	0.73300 0.92180 0.61410 0.08600
C 	C 	0.71160 0.95130 0.56540 0.07300
H 	H 	0.68840 0.93600 0.56240 -0.00000
C 	C 	0.71960 0.98260 0.53890 -0.16000
H 	H 	0.70170 0.98830 0.51820 0.08800
C 	C 	0.75430 0.00540 0.54340 0.11400
C 	C 	0.87220 0.19670 0.45040 -0.05000
C 	C 	0.84520 0.17390 0.44690 -0.00900
Zn	Zn	0.37500 0.62500 0.12500 1.23500
Zn	Zn	0.12500 0.37500 0.62500 1.23500
Zn	Zn	0.62500 0.12500 0.37500 1.23500
Zn	Zn	0.87500 0.87500 0.87500 1.23500
Zn	Zn	0.43692 0.56308 0.06308 1.20900
Zn	Zn	0.06308 0.43692 0.56308 1.20900
Zn	Zn	0.56308 0.06308 0.43692 1.20900
Zn	Zn	0.93692 0.93692 0.93692 1.20900
Zn	Zn	0.31308 0.68692 0.18692 1.20900
Zn	Zn	0.18692 0.31308 0.68692 1.20900
Zn	Zn	0.81308 0.81308 0.81308 1.20900
Zn	Zn	0.68692 0.18692 0.31308 1.20900
