data_crystal

_cell_length_a 20.73660
_cell_length_b 20.73660
_cell_length_c 20.73660
_cell_angle_alpha 90.00000
_cell_angle_beta  90.00000
_cell_angle_gamma 90.00000

_symmetry_space_group_name_	'P 1'
_symmetry_space_group_name_H-M	'P 1'

loop_
_symmetry_equiv_pos_as_xyz
  x,y,z

loop_
_atom_site_label
_atom_site_type_symbol
_atom_site_fract_x
_atom_site_fract_y
_atom_site_fract_z
_atom_site_charge
Zr	Zr	0.11955 0.00000 -0.00000 3.23500
Zr	Zr	0.11955 0.50000 0.50000 3.29500
Zr	Zr	0.61955 0.00000 0.50000 3.23600
Zr	Zr	0.61955 0.50000 -0.00000 3.23600
Zr	Zr	0.88045 0.00000 -0.00000 3.18000
Zr	Zr	0.88045 0.50000 0.50000 3.23600
Zr	Zr	0.38045 0.00000 0.50000 3.23600
Zr	Zr	0.38045 0.50000 -0.00000 3.23600
Zr	Zr	0.00000 0.11955 -0.00000 3.23500
Zr	Zr	-0.00000 0.61955 0.50000 3.23600
Zr	Zr	0.50000 0.11955 0.50000 3.29400
Zr	Zr	0.50000 0.61955 -0.00000 3.23500
Zr	Zr	-0.00000 0.88045 -0.00000 3.17900
Zr	Zr	0.00000 0.38045 0.50000 3.23500
Zr	Zr	0.50000 0.88045 0.50000 3.23500
Zr	Zr	0.50000 0.38045 -0.00000 3.23500
Zr	Zr	0.00000 0.00000 0.11955 3.23400
Zr	Zr	-0.00000 0.50000 0.61955 3.23500
Zr	Zr	0.50000 -0.00000 0.61955 3.23500
Zr	Zr	0.50000 0.50000 0.11955 3.29400
Zr	Zr	0.00000 0.00000 0.88045 3.17900
Zr	Zr	0.00000 0.50000 0.38045 3.23500
Zr	Zr	0.50000 0.00000 0.38045 3.23500
Zr	Zr	0.50000 0.50000 0.88045 3.23500
O 	O 	0.17160 0.09350 -0.00000 -0.66600
C 	C 	0.26660 0.18580 -0.00000 0.00800
H 	H 	0.27850 0.14150 -0.00000 -0.00900
O 	O 	0.19750 0.07340 -0.00000 -0.10900
O 	O 	0.17160 0.59350 0.50000 -0.87700
C 	C 	0.26660 0.68580 0.50000 -0.02500
H 	H 	0.27850 0.64150 0.50000 0.04400
O 	O 	0.19750 0.57340 0.50000 0.18100
O 	O 	0.67160 0.09350 0.50000 -0.91600
C 	C 	0.76660 0.18580 0.50000 -0.01300
H 	H 	0.77850 0.14150 0.50000 0.05900
O 	O 	0.69750 0.07340 0.50000 0.21600
O 	O 	0.67160 0.59350 -0.00000 -0.55600
C 	C 	0.76660 0.68580 -0.00000 -0.16000
H 	H 	0.77850 0.64150 -0.00000 0.08300
O 	O 	0.69750 0.57340 -0.00000 -0.17500
O 	O 	0.82840 0.90650 -0.00000 -1.21700
C 	C 	0.73340 0.81420 -0.00000 0.19100
H 	H 	0.72150 0.85850 -0.00000 -0.02700
O 	O 	0.80250 0.92660 -0.00000 0.50500
O 	O 	0.82840 0.40650 0.50000 -1.05900
C 	C 	0.73340 0.31420 0.50000 0.12000
H 	H 	0.72150 0.35850 0.50000 -0.01400
O 	O 	0.80250 0.42660 0.50000 0.29900
O 	O 	0.32840 0.90650 0.50000 -1.29400
C 	C 	0.23340 0.81420 0.50000 0.12700
H 	H 	0.22150 0.85850 0.50000 0.03200
O 	O 	0.30250 0.92660 0.50000 0.70700
O 	O 	0.32840 0.40650 -0.00000 -0.54900
C 	C 	0.23340 0.31420 -0.00000 -0.06500
H 	H 	0.22150 0.35850 -0.00000 0.01800
O 	O 	0.30250 0.42660 -0.00000 -0.19500
O 	O 	0.82840 0.09350 -0.00000 -0.84700
C 	C 	0.73340 0.18580 -0.00000 0.10100
H 	H 	0.72150 0.14150 -0.00000 -0.04900
O 	O 	0.80250 0.07340 -0.00000 0.01000
O 	O 	0.82840 0.59350 0.50000 -1.04400
C 	C 	0.73340 0.68580 0.50000 0.06400
H 	H 	0.72150 0.64150 0.50000 0.00600
O 	O 	0.80250 0.57340 0.50000 0.28800
O 	O 	0.32840 0.09350 0.50000 -0.90600
C 	C 	0.23340 0.18580 0.50000 0.03000
H 	H 	0.22150 0.14150 0.50000 0.01300
O 	O 	0.30250 0.07340 0.50000 0.19500
O 	O 	0.32840 0.59350 -0.00000 -0.54000
C 	C 	0.23340 0.68580 -0.00000 -0.12200
H 	H 	0.22150 0.64150 -0.00000 0.03800
O 	O 	0.30250 0.57340 -0.00000 -0.20100
O 	O 	0.17160 0.90650 -0.00000 -1.06100
C 	C 	0.26660 0.81420 -0.00000 0.10800
H 	H 	0.27850 0.85850 -0.00000 0.00900
O 	O 	0.19750 0.92660 -0.00000 0.41000
O 	O 	0.17160 0.40650 0.50000 -0.88600
C 	C 	0.26660 0.31420 0.50000 0.03000
H 	H 	0.27850 0.35850 0.50000 0.02500
O 	O 	0.19750 0.42660 0.50000 0.18800
O 	O 	0.67160 0.90650 0.50000 -1.29400
C 	C 	0.76660 0.81420 0.50000 0.08200
H 	H 	0.77850 0.85850 0.50000 0.07700
O 	O 	0.69750 0.92660 0.50000 0.71700
O 	O 	0.67160 0.40650 -0.00000 -0.56100
C 	C 	0.76660 0.31420 -0.00000 -0.11000
H 	H 	0.77850 0.35850 -0.00000 0.06500
O 	O 	0.69750 0.42660 -0.00000 -0.17100
O 	O 	-0.00000 0.17160 0.09350 -0.66600
C 	C 	-0.00000 0.26660 0.18580 0.00800
H 	H 	-0.00000 0.27850 0.14150 -0.00900
O 	O 	-0.00000 0.19750 0.07340 -0.10900
O 	O 	0.00000 0.67160 0.59350 -0.55600
C 	C 	0.00000 0.76660 0.68580 -0.16000
H 	H 	0.00000 0.77850 0.64150 0.08300
O 	O 	-0.00000 0.69750 0.57340 -0.17500
O 	O 	0.50000 0.17160 0.59350 -0.87700
C 	C 	0.50000 0.26660 0.68580 -0.02500
H 	H 	0.50000 0.27850 0.64150 0.04400
O 	O 	0.50000 0.19750 0.57340 0.18100
O 	O 	0.50000 0.67160 0.09350 -0.91600
C 	C 	0.50000 0.76660 0.18580 -0.01300
H 	H 	0.50000 0.77850 0.14150 0.05900
O 	O 	0.50000 0.69750 0.07340 0.21600
O 	O 	0.00000 0.82840 0.90650 -1.21700
C 	C 	-0.00000 0.73340 0.81420 0.19100
H 	H 	-0.00000 0.72150 0.85850 -0.02700
O 	O 	0.00000 0.80250 0.92660 0.50500
O 	O 	-0.00000 0.32840 0.40650 -0.54900
C 	C 	0.00000 0.23340 0.31420 -0.06500
H 	H 	0.00000 0.22150 0.35850 0.01800
O 	O 	-0.00000 0.30250 0.42660 -0.19500
O 	O 	0.50000 0.82840 0.40650 -1.05900
C 	C 	0.50000 0.73340 0.31420 0.12000
H 	H 	0.50000 0.72150 0.35850 -0.01400
O 	O 	0.50000 0.80250 0.42660 0.29900
O 	O 	0.50000 0.32840 0.90650 -1.29400
C 	C 	0.50000 0.23340 0.81420 0.12700
H 	H 	0.50000 0.22150 0.85850 0.03200
O 	O 	0.50000 0.30250 0.92660 0.70700
O 	O 	0.00000 0.82840 0.09350 -0.84700
C 	C 	0.00000 0.73340 0.18580 0.10100
H 	H 	0.00000 0.72150 0.14150 -0.04900
O 	O 	-0.00000 0.80250 0.07340 0.01000
O 	O 	0.00000 0.32840 0.59350 -0.54000
C 	C 	0.00000 0.23340 0.68580 -0.12200
H 	H 	-0.00000 0.22150 0.64150 0.03800
O 	O 	0.00000 0.30250 0.57340 -0.20100
O 	O 	0.50000 0.82840 0.59350 -1.04400
C 	C 	0.50000 0.73340 0.68580 0.06400
H 	H 	0.50000 0.72150 0.64150 0.00600
O 	O 	0.50000 0.80250 0.57340 0.28800
O 	O 	0.50000 0.32840 0.09350 -0.90600
C 	C 	0.50000 0.23340 0.18580 0.03000
H 	H 	0.50000 0.22150 0.14150 0.01300
O 	O 	0.50000 0.30250 0.07340 0.19500
O 	O 	0.00000 0.17160 0.90650 -1.06100
C 	C 	-0.00000 0.26660 0.81420 0.10800
H 	H 	0.00000 0.27850 0.85850 0.00900
O 	O 	0.00000 0.19750 0.92660 0.41000
O 	O 	0.00000 0.67160 0.40650 -0.56100
C 	C 	0.00000 0.76660 0.31420 -0.11000
H 	H 	0.00000 0.77850 0.35850 0.06500
O 	O 	0.00000 0.69750 0.42660 -0.17100
O 	O 	0.50000 0.17160 0.40650 -0.88600
C 	C 	0.50000 0.26660 0.31420 0.03000
H 	H 	0.50000 0.27850 0.35850 0.02500
O 	O 	0.50000 0.19750 0.42660 0.18800
O 	O 	0.50000 0.67160 0.90650 -1.29400
C 	C 	0.50000 0.76660 0.81420 0.08200
H 	H 	0.50000 0.77850 0.85850 0.07700
O 	O 	0.50000 0.69750 0.92660 0.71700
O 	O 	0.09350 0.00000 0.17160 -0.66600
C 	C 	0.18580 -0.00000 0.26660 0.00800
H 	H 	0.14150 0.00000 0.27850 -0.00900
O 	O 	0.07340 -0.00000 0.19750 -0.10900
O 	O 	0.09350 0.50000 0.67160 -0.91600
C 	C 	0.18580 0.50000 0.76660 -0.01300
H 	H 	0.14150 0.50000 0.77850 0.05900
O 	O 	0.07340 0.50000 0.69750 0.21600
O 	O 	0.59350 0.00000 0.67160 -0.55600
C 	C 	0.68580 -0.00000 0.76660 -0.16000
H 	H 	0.64150 0.00000 0.77850 0.08300
O 	O 	0.57340 0.00000 0.69750 -0.17500
O 	O 	0.59350 0.50000 0.17160 -0.87700
C 	C 	0.68580 0.50000 0.26660 -0.02500
H 	H 	0.64150 0.50000 0.27850 0.04400
O 	O 	0.57340 0.50000 0.19750 0.18100
O 	O 	0.90650 0.00000 0.82840 -1.21700
C 	C 	0.81420 0.00000 0.73340 0.19100
H 	H 	0.85850 -0.00000 0.72150 -0.02700
O 	O 	0.92660 -0.00000 0.80250 0.50500
O 	O 	0.90650 0.50000 0.32840 -1.29400
C 	C 	0.81420 0.50000 0.23340 0.12700
H 	H 	0.85850 0.50000 0.22150 0.03200
O 	O 	0.92660 0.50000 0.30250 0.70700
O 	O 	0.40650 0.00000 0.32840 -0.54900
C 	C 	0.31420 0.00000 0.23340 -0.06500
H 	H 	0.35850 0.00000 0.22150 0.01800
O 	O 	0.42660 0.00000 0.30250 -0.19500
O 	O 	0.40650 0.50000 0.82840 -1.05900
C 	C 	0.31420 0.50000 0.73340 0.12000
H 	H 	0.35850 0.50000 0.72150 -0.01400
O 	O 	0.42660 0.50000 0.80250 0.29900
O 	O 	0.09350 0.00000 0.82840 -0.84700
C 	C 	0.18580 0.00000 0.73340 0.10100
H 	H 	0.14150 -0.00000 0.72150 -0.04900
O 	O 	0.07340 -0.00000 0.80250 0.01000
O 	O 	0.09350 0.50000 0.32840 -0.90600
C 	C 	0.18580 0.50000 0.23340 0.03000
H 	H 	0.14150 0.50000 0.22150 0.01300
O 	O 	0.07340 0.50000 0.30250 0.19500
O 	O 	0.59350 0.00000 0.32840 -0.54000
C 	C 	0.68580 0.00000 0.23340 -0.12200
H 	H 	0.64150 0.00000 0.22150 0.03800
O 	O 	0.57340 0.00000 0.30250 -0.20100
O 	O 	0.59350 0.50000 0.82840 -1.04400
C 	C 	0.68580 0.50000 0.73340 0.06400
H 	H 	0.64150 0.50000 0.72150 0.00600
O 	O 	0.57340 0.50000 0.80250 0.28800
O 	O 	0.90650 0.00000 0.17160 -1.06100
C 	C 	0.81420 -0.00000 0.26660 0.10800
H 	H 	0.85850 0.00000 0.27850 0.00900
O 	O 	0.92660 -0.00000 0.19750 0.41000
O 	O 	0.90650 0.50000 0.67160 -1.29400
C 	C 	0.81420 0.50000 0.76660 0.08200
H 	H 	0.85850 0.50000 0.77850 0.07700
O 	O 	0.92660 0.50000 0.69750 0.71700
O 	O 	0.40650 0.00000 0.67160 -0.56100
C 	C 	0.31420 -0.00000 0.76660 -0.11000
H 	H 	0.35850 0.00000 0.77850 0.06500
O 	O 	0.42660 0.00000 0.69750 -0.17100
O 	O 	0.40650 0.50000 0.17160 -0.88600
C 	C 	0.31420 0.50000 0.26660 0.03000
H 	H 	0.35850 0.50000 0.27850 0.02500
O 	O 	0.42660 0.50000 0.19750 0.18800
O 	O 	0.09350 0.17160 -0.00000 -0.66600
C 	C 	0.18580 0.26660 -0.00000 0.00800
H 	H 	0.14150 0.27850 -0.00000 -0.00900
O 	O 	0.07340 0.19750 -0.00000 -0.10900
O 	O 	0.09350 0.67160 0.50000 -0.91600
C 	C 	0.18580 0.76660 0.50000 -0.01300
H 	H 	0.14150 0.77850 0.50000 0.05900
O 	O 	0.07340 0.69750 0.50000 0.21600
O 	O 	0.59350 0.17160 0.50000 -0.87700
C 	C 	0.68580 0.26660 0.50000 -0.02500
H 	H 	0.64150 0.27850 0.50000 0.04400
O 	O 	0.57340 0.19750 0.50000 0.18100
O 	O 	0.59350 0.67160 -0.00000 -0.55600
C 	C 	0.68580 0.76660 -0.00000 -0.16000
H 	H 	0.64150 0.77850 -0.00000 0.08300
O 	O 	0.57340 0.69750 -0.00000 -0.17500
O 	O 	0.90650 0.82840 -0.00000 -1.21700
C 	C 	0.81420 0.73340 -0.00000 0.19100
H 	H 	0.85850 0.72150 -0.00000 -0.02700
O 	O 	0.92660 0.80250 -0.00000 0.50500
O 	O 	0.90650 0.32840 0.50000 -1.29400
C 	C 	0.81420 0.23340 0.50000 0.12700
H 	H 	0.85850 0.22150 0.50000 0.03200
O 	O 	0.92660 0.30250 0.50000 0.70700
O 	O 	0.40650 0.82840 0.50000 -1.05900
C 	C 	0.31420 0.73340 0.50000 0.12000
H 	H 	0.35850 0.72150 0.50000 -0.01400
O 	O 	0.42660 0.80250 0.50000 0.29900
O 	O 	0.40650 0.32840 -0.00000 -0.54900
C 	C 	0.31420 0.23340 -0.00000 -0.06500
H 	H 	0.35850 0.22150 -0.00000 0.01800
O 	O 	0.42660 0.30250 -0.00000 -0.19500
O 	O 	0.09350 0.82840 -0.00000 -0.84700
C 	C 	0.18580 0.73340 -0.00000 0.10100
H 	H 	0.14150 0.72150 -0.00000 -0.04900
O 	O 	0.07340 0.80250 -0.00000 0.01000
O 	O 	0.09350 0.32840 0.50000 -0.90600
C 	C 	0.18580 0.23340 0.50000 0.03000
H 	H 	0.14150 0.22150 0.50000 0.01300
O 	O 	0.07340 0.30250 0.50000 0.19500
O 	O 	0.59350 0.82840 0.50000 -1.04400
C 	C 	0.68580 0.73340 0.50000 0.06400
H 	H 	0.64150 0.72150 0.50000 0.00600
O 	O 	0.57340 0.80250 0.50000 0.28800
O 	O 	0.59350 0.32840 -0.00000 -0.54000
C 	C 	0.68580 0.23340 -0.00000 -0.12200
H 	H 	0.64150 0.22150 -0.00000 0.03800
O 	O 	0.57340 0.30250 -0.00000 -0.20100
O 	O 	0.90650 0.17160 -0.00000 -1.06100
C 	C 	0.81420 0.26660 -0.00000 0.10800
H 	H 	0.85850 0.27850 -0.00000 0.00900
O 	O 	0.92660 0.19750 -0.00000 0.41000
O 	O 	0.90650 0.67160 0.50000 -1.29400
C 	C 	0.81420 0.76660 0.50000 0.08200
H 	H 	0.85850 0.77850 0.50000 0.07700
O 	O 	0.92660 0.69750 0.50000 0.71700
O 	O 	0.40650 0.17160 0.50000 -0.88600
C 	C 	0.31420 0.26660 0.50000 0.03000
H 	H 	0.35850 0.27850 0.50000 0.02500
O 	O 	0.42660 0.19750 0.50000 0.18800
O 	O 	0.40650 0.67160 -0.00000 -0.56100
C 	C 	0.31420 0.76660 -0.00000 -0.11000
H 	H 	0.35850 0.77850 -0.00000 0.06500
O 	O 	0.42660 0.69750 -0.00000 -0.17100
O 	O 	0.17160 0.00000 0.90650 -1.06100
C 	C 	0.26660 -0.00000 0.81420 0.10800
H 	H 	0.27850 0.00000 0.85850 0.00900
O 	O 	0.19750 0.00000 0.92660 0.41000
O 	O 	0.17160 0.50000 0.40650 -0.88600
C 	C 	0.26660 0.50000 0.31420 0.03000
H 	H 	0.27850 0.50000 0.35850 0.02500
O 	O 	0.19750 0.50000 0.42660 0.18800
O 	O 	0.67160 0.00000 0.40650 -0.56100
C 	C 	0.76660 0.00000 0.31420 -0.11000
H 	H 	0.77850 -0.00000 0.35850 0.06500
O 	O 	0.69750 0.00000 0.42660 -0.17100
O 	O 	0.67160 0.50000 0.90650 -1.29400
C 	C 	0.76660 0.50000 0.81420 0.08200
H 	H 	0.77850 0.50000 0.85850 0.07700
O 	O 	0.69750 0.50000 0.92660 0.71700
O 	O 	0.82840 0.00000 0.09350 -0.84700
C 	C 	0.73340 0.00000 0.18580 0.10100
H 	H 	0.72150 0.00000 0.14150 -0.04900
O 	O 	0.80250 0.00000 0.07340 0.01000
O 	O 	0.82840 0.50000 0.59350 -1.04400
C 	C 	0.73340 0.50000 0.68580 0.06400
H 	H 	0.72150 0.50000 0.64150 0.00600
O 	O 	0.80250 0.50000 0.57340 0.28800
O 	O 	0.32840 0.00000 0.59350 -0.54000
C 	C 	0.23340 -0.00000 0.68580 -0.12200
H 	H 	0.22150 0.00000 0.64150 0.03800
O 	O 	0.30250 0.00000 0.57340 -0.20100
O 	O 	0.32840 0.50000 0.09350 -0.90600
C 	C 	0.23340 0.50000 0.18580 0.03000
H 	H 	0.22150 0.50000 0.14150 0.01300
O 	O 	0.30250 0.50000 0.07340 0.19500
O 	O 	0.82840 0.00000 0.90650 -1.21700
C 	C 	0.73340 -0.00000 0.81420 0.19100
H 	H 	0.72150 0.00000 0.85850 -0.02700
O 	O 	0.80250 0.00000 0.92660 0.50500
O 	O 	0.82840 0.50000 0.40650 -1.05900
C 	C 	0.73340 0.50000 0.31420 0.12000
H 	H 	0.72150 0.50000 0.35850 -0.01400
O 	O 	0.80250 0.50000 0.42660 0.29900
O 	O 	0.32840 0.00000 0.40650 -0.54900
C 	C 	0.23340 0.00000 0.31420 -0.06500
H 	H 	0.22150 -0.00000 0.35850 0.01800
O 	O 	0.30250 0.00000 0.42660 -0.19500
O 	O 	0.32840 0.50000 0.90650 -1.29400
C 	C 	0.23340 0.50000 0.81420 0.12700
H 	H 	0.22150 0.50000 0.85850 0.03200
O 	O 	0.30250 0.50000 0.92660 0.70700
O 	O 	0.17160 0.00000 0.09350 -0.66600
C 	C 	0.26660 0.00000 0.18580 0.00800
H 	H 	0.27850 0.00000 0.14150 -0.00900
O 	O 	0.19750 0.00000 0.07340 -0.10900
O 	O 	0.17160 0.50000 0.59350 -0.87700
C 	C 	0.26660 0.50000 0.68580 -0.02500
H 	H 	0.27850 0.50000 0.64150 0.04400
O 	O 	0.19750 0.50000 0.57340 0.18100
O 	O 	0.67160 0.00000 0.59350 -0.55600
C 	C 	0.76660 -0.00000 0.68580 -0.16000
H 	H 	0.77850 0.00000 0.64150 0.08300
O 	O 	0.69750 0.00000 0.57340 -0.17500
O 	O 	0.67160 0.50000 0.09350 -0.91600
C 	C 	0.76660 0.50000 0.18580 -0.01300
H 	H 	0.77850 0.50000 0.14150 0.05900
O 	O 	0.69750 0.50000 0.07340 0.21600
O 	O 	0.00000 0.09350 0.82840 -0.84700
C 	C 	0.00000 0.18580 0.73340 0.10100
H 	H 	0.00000 0.14150 0.72150 -0.04900
O 	O 	-0.00000 0.07340 0.80250 0.01000
O 	O 	0.00000 0.59350 0.32840 -0.54000
C 	C 	0.00000 0.68580 0.23340 -0.12200
H 	H 	-0.00000 0.64150 0.22150 0.03800
O 	O 	0.00000 0.57340 0.30250 -0.20100
O 	O 	0.50000 0.09350 0.32840 -0.90600
C 	C 	0.50000 0.18580 0.23340 0.03000
H 	H 	0.50000 0.14150 0.22150 0.01300
O 	O 	0.50000 0.07340 0.30250 0.19500
O 	O 	0.50000 0.59350 0.82840 -1.04400
C 	C 	0.50000 0.68580 0.73340 0.06400
H 	H 	0.50000 0.64150 0.72150 0.00600
O 	O 	0.50000 0.57340 0.80250 0.28800
O 	O 	0.00000 0.90650 0.17160 -1.06100
C 	C 	-0.00000 0.81420 0.26660 0.10800
H 	H 	-0.00000 0.85850 0.27850 0.00900
O 	O 	0.00000 0.92660 0.19750 0.41000
O 	O 	0.00000 0.40650 0.67160 -0.56100
C 	C 	0.00000 0.31420 0.76660 -0.11000
H 	H 	0.00000 0.35850 0.77850 0.06500
O 	O 	0.00000 0.42660 0.69750 -0.17100
O 	O 	0.50000 0.90650 0.67160 -1.29400
C 	C 	0.50000 0.81420 0.76660 0.08200
H 	H 	0.50000 0.85850 0.77850 0.07700
O 	O 	0.50000 0.92660 0.69750 0.71700
O 	O 	0.50000 0.40650 0.17160 -0.88600
C 	C 	0.50000 0.31420 0.26660 0.03000
H 	H 	0.50000 0.35850 0.27850 0.02500
O 	O 	0.50000 0.42660 0.19750 0.18800
O 	O 	-0.00000 0.09350 0.17160 -0.66600
C 	C 	-0.00000 0.18580 0.26660 0.00800
H 	H 	-0.00000 0.14150 0.27850 -0.00900
O 	O 	-0.00000 0.07340 0.19750 -0.10900
O 	O 	0.00000 0.59350 0.67160 -0.55600
C 	C 	0.00000 0.68580 0.76660 -0.16000
H 	H 	-0.00000 0.64150 0.77850 0.08300
O 	O 	-0.00000 0.57340 0.69750 -0.17500
O 	O 	0.50000 0.09350 0.67160 -0.91600
C 	C 	0.50000 0.18580 0.76660 -0.01300
H 	H 	0.50000 0.14150 0.77850 0.05900
O 	O 	0.50000 0.07340 0.69750 0.21600
O 	O 	0.50000 0.59350 0.17160 -0.87700
C 	C 	0.50000 0.68580 0.26660 -0.02500
H 	H 	0.50000 0.64150 0.27850 0.04400
O 	O 	0.50000 0.57340 0.19750 0.18100
O 	O 	0.00000 0.90650 0.82840 -1.21700
C 	C 	-0.00000 0.81420 0.73340 0.19100
H 	H 	-0.00000 0.85850 0.72150 -0.02700
O 	O 	0.00000 0.92660 0.80250 0.50500
O 	O 	-0.00000 0.40650 0.32840 -0.54900
C 	C 	0.00000 0.31420 0.23340 -0.06500
H 	H 	0.00000 0.35850 0.22150 0.01800
O 	O 	-0.00000 0.42660 0.30250 -0.19500
O 	O 	0.50000 0.90650 0.32840 -1.29400
C 	C 	0.50000 0.81420 0.23340 0.12700
H 	H 	0.50000 0.85850 0.22150 0.03200
O 	O 	0.50000 0.92660 0.30250 0.70700
O 	O 	0.50000 0.40650 0.82840 -1.05900
C 	C 	0.50000 0.31420 0.73340 0.12000
H 	H 	0.50000 0.35850 0.72150 -0.01400
O 	O 	0.50000 0.42660 0.80250 0.29900
C 	C 	0.15190 0.15190 -0.00000 0.43300
C 	C 	0.20280 0.20280 -0.00000 -0.14100
C 	C 	0.15190 0.65190 0.50000 0.68100
C 	C 	0.20280 0.70280 0.50000 -0.13500
C 	C 	0.65190 0.15190 0.50000 0.68100
C 	C 	0.70280 0.20280 0.50000 -0.13500
C 	C 	0.65190 0.65190 -0.00000 0.30500
C 	C 	0.70280 0.70280 -0.00000 0.02000
C 	C 	0.84810 0.84810 -0.00000 0.93400
C 	C 	0.79720 0.79720 -0.00000 -0.38000
C 	C 	0.84810 0.34810 0.50000 0.94200
C 	C 	0.79720 0.29720 0.50000 -0.30300
C 	C 	0.34810 0.84810 0.50000 0.94200
C 	C 	0.29720 0.79720 0.50000 -0.30300
C 	C 	0.34810 0.34810 -0.00000 0.31300
C 	C 	0.29720 0.29720 -0.00000 -0.06800
C 	C 	0.84810 0.15190 -0.00000 0.69500
C 	C 	0.79720 0.20280 -0.00000 -0.26700
C 	C 	0.84810 0.65190 0.50000 0.92800
C 	C 	0.79720 0.70280 0.50000 -0.25500
C 	C 	0.34810 0.15190 0.50000 0.68800
C 	C 	0.29720 0.20280 0.50000 -0.18100
C 	C 	0.34810 0.65190 -0.00000 0.30700
C 	C 	0.29720 0.70280 -0.00000 -0.02100
C 	C 	0.15190 0.84810 -0.00000 0.69500
C 	C 	0.20280 0.79720 -0.00000 -0.26700
C 	C 	0.15190 0.34810 0.50000 0.68800
C 	C 	0.20280 0.29720 0.50000 -0.18100
C 	C 	0.65190 0.84810 0.50000 0.92800
C 	C 	0.70280 0.79720 0.50000 -0.25500
C 	C 	0.65190 0.34810 -0.00000 0.30700
C 	C 	0.70280 0.29720 -0.00000 -0.02100
C 	C 	0.00000 0.15190 0.15190 0.43300
C 	C 	0.00000 0.20280 0.20280 -0.14100
C 	C 	0.00000 0.65190 0.65190 0.30500
C 	C 	-0.00000 0.70280 0.70280 0.02000
C 	C 	0.50000 0.15190 0.65190 0.68100
C 	C 	0.50000 0.20280 0.70280 -0.13500
C 	C 	0.50000 0.65190 0.15190 0.68100
C 	C 	0.50000 0.70280 0.20280 -0.13500
C 	C 	0.00000 0.84810 0.84810 0.93400
C 	C 	0.00000 0.79720 0.79720 -0.38000
C 	C 	-0.00000 0.34810 0.34810 0.31300
C 	C 	-0.00000 0.29720 0.29720 -0.06800
C 	C 	0.50000 0.84810 0.34810 0.94200
C 	C 	0.50000 0.79720 0.29720 -0.30300
C 	C 	0.50000 0.34810 0.84810 0.94200
C 	C 	0.50000 0.29720 0.79720 -0.30300
C 	C 	-0.00000 0.84810 0.15190 0.69500
C 	C 	0.00000 0.79720 0.20280 -0.26700
C 	C 	-0.00000 0.34810 0.65190 0.30700
C 	C 	-0.00000 0.29720 0.70280 -0.02100
C 	C 	0.50000 0.84810 0.65190 0.92800
C 	C 	0.50000 0.79720 0.70280 -0.25500
C 	C 	0.50000 0.34810 0.15190 0.68800
C 	C 	0.50000 0.29720 0.20280 -0.18100
C 	C 	0.00000 0.15190 0.84810 0.69500
C 	C 	0.00000 0.20280 0.79720 -0.26700
C 	C 	0.00000 0.65190 0.34810 0.30700
C 	C 	0.00000 0.70280 0.29720 -0.02100
C 	C 	0.50000 0.15190 0.34810 0.68800
C 	C 	0.50000 0.20280 0.29720 -0.18100
C 	C 	0.50000 0.65190 0.84810 0.92800
C 	C 	0.50000 0.70280 0.79720 -0.25500
C 	C 	0.15190 0.00000 0.15190 0.43300
C 	C 	0.20280 0.00000 0.20280 -0.14100
C 	C 	0.15190 0.50000 0.65190 0.68100
C 	C 	0.20280 0.50000 0.70280 -0.13500
C 	C 	0.65190 0.00000 0.65190 0.30500
C 	C 	0.70280 0.00000 0.70280 0.02000
C 	C 	0.65190 0.50000 0.15190 0.68100
C 	C 	0.70280 0.50000 0.20280 -0.13500
C 	C 	0.84810 0.00000 0.84810 0.93400
C 	C 	0.79720 0.00000 0.79720 -0.38000
C 	C 	0.84810 0.50000 0.34810 0.94200
C 	C 	0.79720 0.50000 0.29720 -0.30300
C 	C 	0.34810 0.00000 0.34810 0.31300
C 	C 	0.29720 0.00000 0.29720 -0.06800
C 	C 	0.34810 0.50000 0.84810 0.94200
C 	C 	0.29720 0.50000 0.79720 -0.30300
C 	C 	0.15190 0.00000 0.84810 0.69500
C 	C 	0.20280 0.00000 0.79720 -0.26700
C 	C 	0.15190 0.50000 0.34810 0.68800
C 	C 	0.20280 0.50000 0.29720 -0.18100
C 	C 	0.65190 0.00000 0.34810 0.30700
C 	C 	0.70280 0.00000 0.29720 -0.02100
C 	C 	0.65190 0.50000 0.84810 0.92800
C 	C 	0.70280 0.50000 0.79720 -0.25500
C 	C 	0.84810 0.00000 0.15190 0.69500
C 	C 	0.79720 0.00000 0.20280 -0.26700
C 	C 	0.84810 0.50000 0.65190 0.92800
C 	C 	0.79720 0.50000 0.70280 -0.25500
C 	C 	0.34810 0.00000 0.65190 0.30700
C 	C 	0.29720 0.00000 0.70280 -0.02100
C 	C 	0.34810 0.50000 0.15190 0.68800
C 	C 	0.29720 0.50000 0.20280 -0.18100
O 	O 	0.06800 0.06800 0.06800 6.14300
O 	O 	0.05070 0.05070 0.05070 -6.32900
H 	H 	0.09530 0.09530 0.09530 -1.87200
O 	O 	0.06800 0.56800 0.56800 3.44500
O 	O 	0.05070 0.55070 0.55070 -3.90400
H 	H 	0.09530 0.59530 0.59530 -1.05800
O 	O 	0.56800 0.06800 0.56800 3.44500
O 	O 	0.55070 0.05070 0.55070 -3.90400
H 	H 	0.59530 0.09530 0.59530 -1.05800
O 	O 	0.56800 0.56800 0.06800 3.44500
O 	O 	0.55070 0.55070 0.05070 -3.90400
H 	H 	0.59530 0.59530 0.09530 -1.05800
O 	O 	0.93200 0.93200 0.06800 0.46400
O 	O 	0.94930 0.94930 0.05070 -1.13600
H 	H 	0.90470 0.90470 0.09530 -0.04000
O 	O 	0.93200 0.43200 0.56800 0.40800
O 	O 	0.94930 0.44930 0.55070 -1.13200
H 	H 	0.90470 0.40470 0.59530 -0.08500
O 	O 	0.43200 0.93200 0.56800 0.40800
O 	O 	0.44930 0.94930 0.55070 -1.13200
H 	H 	0.40470 0.90470 0.59530 -0.08500
O 	O 	0.43200 0.43200 0.06800 3.46000
O 	O 	0.44930 0.44930 0.05070 -3.91700
H 	H 	0.40470 0.40470 0.09530 -1.06800
O 	O 	0.93200 0.06800 0.93200 0.46400
O 	O 	0.94930 0.05070 0.94930 -1.13600
H 	H 	0.90470 0.09530 0.90470 -0.04000
O 	O 	0.93200 0.56800 0.43200 0.40800
O 	O 	0.94930 0.55070 0.44930 -1.13200
H 	H 	0.90470 0.59530 0.40470 -0.08500
O 	O 	0.43200 0.06800 0.43200 3.46000
O 	O 	0.44930 0.05070 0.44930 -3.91700
H 	H 	0.40470 0.09530 0.40470 -1.06800
O 	O 	0.43200 0.56800 0.93200 0.40800
O 	O 	0.44930 0.55070 0.94930 -1.13200
H 	H 	0.40470 0.59530 0.90470 -0.08500
O 	O 	0.06800 0.93200 0.93200 0.46400
O 	O 	0.05070 0.94930 0.94930 -1.13600
H 	H 	0.09530 0.90470 0.90470 -0.04000
O 	O 	0.06800 0.43200 0.43200 3.46000
O 	O 	0.05070 0.44930 0.44930 -3.91700
H 	H 	0.09530 0.40470 0.40470 -1.06800
O 	O 	0.56800 0.93200 0.43200 0.40800
O 	O 	0.55070 0.94930 0.44930 -1.13200
H 	H 	0.59530 0.90470 0.40470 -0.08500
O 	O 	0.56800 0.43200 0.93200 0.40800
O 	O 	0.55070 0.44930 0.94930 -1.13200
H 	H 	0.59530 0.40470 0.90470 -0.08500
O 	O 	0.06800 0.06800 0.93200 3.40400
O 	O 	0.05070 0.05070 0.94930 -3.81800
H 	H 	0.09530 0.09530 0.90470 -0.98400
O 	O 	0.06800 0.56800 0.43200 3.45300
O 	O 	0.05070 0.55070 0.44930 -3.91100
H 	H 	0.09530 0.59530 0.40470 -1.06300
O 	O 	0.56800 0.06800 0.43200 3.45300
O 	O 	0.55070 0.05070 0.44930 -3.91100
H 	H 	0.59530 0.09530 0.40470 -1.06300
O 	O 	0.56800 0.56800 0.93200 0.38900
O 	O 	0.55070 0.55070 0.94930 -1.11600
H 	H 	0.59530 0.59530 0.90470 -0.07800
O 	O 	0.93200 0.93200 0.93200 -2.67600
O 	O 	0.94930 0.94930 0.94930 1.71900
H 	H 	0.90470 0.90470 0.90470 0.95900
O 	O 	0.93200 0.43200 0.43200 0.42600
O 	O 	0.94930 0.44930 0.44930 -1.14700
H 	H 	0.90470 0.40470 0.40470 -0.09200
O 	O 	0.43200 0.93200 0.43200 0.42600
O 	O 	0.44930 0.94930 0.44930 -1.14700
H 	H 	0.40470 0.90470 0.40470 -0.09200
O 	O 	0.43200 0.43200 0.93200 0.42600
O 	O 	0.44930 0.44930 0.94930 -1.14700
H 	H 	0.40470 0.40470 0.90470 -0.09200
O 	O 	0.06800 0.93200 0.06800 3.40400
O 	O 	0.05070 0.94930 0.05070 -3.81800
H 	H 	0.09530 0.90470 0.09530 -0.98400
O 	O 	0.06800 0.43200 0.56800 3.45300
O 	O 	0.05070 0.44930 0.55070 -3.91100
H 	H 	0.09530 0.40470 0.59530 -1.06300
O 	O 	0.56800 0.93200 0.56800 0.38900
O 	O 	0.55070 0.94930 0.55070 -1.11600
H 	H 	0.59530 0.90470 0.59530 -0.07800
O 	O 	0.56800 0.43200 0.06800 3.45300
O 	O 	0.55070 0.44930 0.05070 -3.91100
H 	H 	0.59530 0.40470 0.09530 -1.06300
O 	O 	0.93200 0.06800 0.06800 3.40400
O 	O 	0.94930 0.05070 0.05070 -3.81800
H 	H 	0.90470 0.09530 0.09530 -0.98400
O 	O 	0.93200 0.56800 0.56800 0.38900
O 	O 	0.94930 0.55070 0.55070 -1.11600
H 	H 	0.90470 0.59530 0.59530 -0.07800
O 	O 	0.43200 0.06800 0.56800 3.45300
O 	O 	0.44930 0.05070 0.55070 -3.91100
H 	H 	0.40470 0.09530 0.59530 -1.06300
O 	O 	0.43200 0.56800 0.06800 3.45300
O 	O 	0.44930 0.55070 0.05070 -3.91100
H 	H 	0.40470 0.59530 0.09530 -1.06300
