data_crystal

_cell_length_a 20.73430
_cell_length_b 20.73430
_cell_length_c 20.73430
_cell_angle_alpha 90.00000
_cell_angle_beta  90.00000
_cell_angle_gamma 90.00000

_symmetry_space_group_name_	'P 1'
_symmetry_space_group_name_H-M	'P 1'

loop_
_symmetry_equiv_pos_as_xyz
  x,y,z

loop_
_atom_site_label
_atom_site_type_symbol
_atom_site_fract_x
_atom_site_fract_y
_atom_site_fract_z
_atom_site_charge
Zr	Zr	0.11957 0.00000 -0.00000 3.25600
Zr	Zr	0.11957 0.50000 0.50000 3.30400
Zr	Zr	0.61957 0.00000 0.50000 3.26700
Zr	Zr	0.61957 0.50000 -0.00000 3.26700
Zr	Zr	0.88043 0.00000 -0.00000 3.23100
Zr	Zr	0.88043 0.50000 0.50000 3.27700
Zr	Zr	0.38043 0.00000 0.50000 3.26800
Zr	Zr	0.38043 0.50000 -0.00000 3.26800
Zr	Zr	-0.00000 0.11957 -0.00000 3.25500
Zr	Zr	0.00000 0.61957 0.50000 3.26600
Zr	Zr	0.50000 0.11957 0.50000 3.30300
Zr	Zr	0.50000 0.61957 -0.00000 3.26600
Zr	Zr	-0.00000 0.88043 -0.00000 3.23000
Zr	Zr	0.00000 0.38043 0.50000 3.26800
Zr	Zr	0.50000 0.88043 0.50000 3.27600
Zr	Zr	0.50000 0.38043 -0.00000 3.26800
Zr	Zr	0.00000 0.00000 0.11957 3.25500
Zr	Zr	0.00000 0.50000 0.61957 3.26600
Zr	Zr	0.50000 -0.00000 0.61957 3.26600
Zr	Zr	0.50000 0.50000 0.11957 3.30300
Zr	Zr	0.00000 0.00000 0.88043 3.23000
Zr	Zr	0.00000 0.50000 0.38043 3.26800
Zr	Zr	0.50000 0.00000 0.38043 3.26800
Zr	Zr	0.50000 0.50000 0.88043 3.27600
O 	O 	0.17130 0.09380 -0.00000 -16.27500
C 	C 	0.26610 0.18580 -0.00000 1.66300
H 	H 	0.27800 0.14160 -0.00000 -1.55200
O 	O 	0.19400 0.07500 -0.00000 11.63500
O 	O 	0.17130 0.59380 0.50000 -15.18000
C 	C 	0.26610 0.68580 0.50000 1.58700
H 	H 	0.27800 0.64160 0.50000 -1.43000
O 	O 	0.19400 0.57500 0.50000 10.85800
O 	O 	0.67130 0.09380 0.50000 -15.24100
C 	C 	0.76610 0.18580 0.50000 1.59400
H 	H 	0.77800 0.14160 0.50000 -1.42100
O 	O 	0.69400 0.07500 0.50000 10.91700
O 	O 	0.67130 0.59380 -0.00000 -15.11500
C 	C 	0.76610 0.68580 -0.00000 1.56900
H 	H 	0.77800 0.64160 -0.00000 -1.42700
O 	O 	0.69400 0.57500 -0.00000 10.77000
O 	O 	0.82870 0.90620 -0.00000 -14.59100
C 	C 	0.73390 0.81420 -0.00000 1.24400
H 	H 	0.72200 0.85840 -0.00000 -1.27800
O 	O 	0.80600 0.92500 -0.00000 10.45600
O 	O 	0.82870 0.40620 0.50000 -14.73100
C 	C 	0.73390 0.31420 0.50000 1.27000
H 	H 	0.72200 0.35840 0.50000 -1.29600
O 	O 	0.80600 0.42500 0.50000 10.56200
O 	O 	0.32870 0.90620 0.50000 -14.67800
C 	C 	0.23390 0.81420 0.50000 1.27500
H 	H 	0.22200 0.85840 0.50000 -1.27500
O 	O 	0.30600 0.92500 0.50000 10.56700
O 	O 	0.32870 0.40620 -0.00000 -15.79500
C 	C 	0.23390 0.31420 -0.00000 1.35800
H 	H 	0.22200 0.35840 -0.00000 -1.42400
O 	O 	0.30600 0.42500 -0.00000 11.30800
O 	O 	0.82870 0.09380 -0.00000 -15.39900
C 	C 	0.73390 0.18580 -0.00000 1.44900
H 	H 	0.72200 0.14160 -0.00000 -1.43300
O 	O 	0.80600 0.07500 -0.00000 10.97500
O 	O 	0.82870 0.59380 0.50000 -14.32200
C 	C 	0.73390 0.68580 0.50000 1.37400
H 	H 	0.72200 0.64160 0.50000 -1.31100
O 	O 	0.80600 0.57500 0.50000 10.21100
O 	O 	0.32870 0.09380 0.50000 -15.49300
C 	C 	0.23390 0.18580 0.50000 1.48300
H 	H 	0.22200 0.14160 0.50000 -1.43100
O 	O 	0.30600 0.07500 0.50000 11.08900
O 	O 	0.32870 0.59380 -0.00000 -15.36600
C 	C 	0.23390 0.68580 -0.00000 1.45900
H 	H 	0.22200 0.64160 -0.00000 -1.43800
O 	O 	0.30600 0.57500 -0.00000 10.93900
O 	O 	0.17130 0.90620 -0.00000 -15.45800
C 	C 	0.26610 0.81420 -0.00000 1.45600
H 	H 	0.27800 0.85840 -0.00000 -1.39600
O 	O 	0.19400 0.92500 -0.00000 11.11300
O 	O 	0.17130 0.40620 0.50000 -15.60700
C 	C 	0.26610 0.31420 0.50000 1.48500
H 	H 	0.27800 0.35840 0.50000 -1.41600
O 	O 	0.19400 0.42500 0.50000 11.22500
O 	O 	0.67130 0.90620 0.50000 -14.43300
C 	C 	0.76610 0.81420 0.50000 1.38700
H 	H 	0.77800 0.85840 0.50000 -1.26700
O 	O 	0.69400 0.92500 0.50000 10.39800
O 	O 	0.67130 0.40620 -0.00000 -15.54200
C 	C 	0.76610 0.31420 -0.00000 1.46900
H 	H 	0.77800 0.35840 -0.00000 -1.41300
O 	O 	0.69400 0.42500 -0.00000 11.13700
O 	O 	0.00000 0.17130 0.09380 -16.27500
C 	C 	0.00000 0.26610 0.18580 1.66300
H 	H 	0.00000 0.27800 0.14160 -1.55200
O 	O 	0.00000 0.19400 0.07500 11.63500
O 	O 	0.00000 0.67130 0.59380 -15.11500
C 	C 	-0.00000 0.76610 0.68580 1.56900
H 	H 	0.00000 0.77800 0.64160 -1.42700
O 	O 	0.00000 0.69400 0.57500 10.77000
O 	O 	0.50000 0.17130 0.59380 -15.18000
C 	C 	0.50000 0.26610 0.68580 1.58700
H 	H 	0.50000 0.27800 0.64160 -1.43000
O 	O 	0.50000 0.19400 0.57500 10.85800
O 	O 	0.50000 0.67130 0.09380 -15.24100
C 	C 	0.50000 0.76610 0.18580 1.59400
H 	H 	0.50000 0.77800 0.14160 -1.42100
O 	O 	0.50000 0.69400 0.07500 10.91700
O 	O 	0.00000 0.82870 0.90620 -14.59100
C 	C 	0.00000 0.73390 0.81420 1.24400
H 	H 	-0.00000 0.72200 0.85840 -1.27800
O 	O 	0.00000 0.80600 0.92500 10.45600
O 	O 	0.00000 0.32870 0.40620 -15.79500
C 	C 	-0.00000 0.23390 0.31420 1.35800
H 	H 	-0.00000 0.22200 0.35840 -1.42400
O 	O 	-0.00000 0.30600 0.42500 11.30800
O 	O 	0.50000 0.82870 0.40620 -14.73100
C 	C 	0.50000 0.73390 0.31420 1.27000
H 	H 	0.50000 0.72200 0.35840 -1.29600
O 	O 	0.50000 0.80600 0.42500 10.56200
O 	O 	0.50000 0.32870 0.90620 -14.67800
C 	C 	0.50000 0.23390 0.81420 1.27500
H 	H 	0.50000 0.22200 0.85840 -1.27500
O 	O 	0.50000 0.30600 0.92500 10.56700
O 	O 	0.00000 0.82870 0.09380 -15.39900
C 	C 	-0.00000 0.73390 0.18580 1.44900
H 	H 	-0.00000 0.72200 0.14160 -1.43300
O 	O 	0.00000 0.80600 0.07500 10.97500
O 	O 	-0.00000 0.32870 0.59380 -15.36600
C 	C 	0.00000 0.23390 0.68580 1.45900
H 	H 	0.00000 0.22200 0.64160 -1.43800
O 	O 	0.00000 0.30600 0.57500 10.93900
O 	O 	0.50000 0.82870 0.59380 -14.32200
C 	C 	0.50000 0.73390 0.68580 1.37400
H 	H 	0.50000 0.72200 0.64160 -1.31100
O 	O 	0.50000 0.80600 0.57500 10.21100
O 	O 	0.50000 0.32870 0.09380 -15.49300
C 	C 	0.50000 0.23390 0.18580 1.48300
H 	H 	0.50000 0.22200 0.14160 -1.43100
O 	O 	0.50000 0.30600 0.07500 11.08900
O 	O 	-0.00000 0.17130 0.90620 -15.45800
C 	C 	-0.00000 0.26610 0.81420 1.45600
H 	H 	0.00000 0.27800 0.85840 -1.39600
O 	O 	0.00000 0.19400 0.92500 11.11300
O 	O 	-0.00000 0.67130 0.40620 -15.54200
C 	C 	-0.00000 0.76610 0.31420 1.46900
H 	H 	-0.00000 0.77800 0.35840 -1.41300
O 	O 	0.00000 0.69400 0.42500 11.13700
O 	O 	0.50000 0.17130 0.40620 -15.60700
C 	C 	0.50000 0.26610 0.31420 1.48500
H 	H 	0.50000 0.27800 0.35840 -1.41600
O 	O 	0.50000 0.19400 0.42500 11.22500
O 	O 	0.50000 0.67130 0.90620 -14.43300
C 	C 	0.50000 0.76610 0.81420 1.38700
H 	H 	0.50000 0.77800 0.85840 -1.26700
O 	O 	0.50000 0.69400 0.92500 10.39800
O 	O 	0.09380 0.00000 0.17130 -16.27500
C 	C 	0.18580 0.00000 0.26610 1.66300
H 	H 	0.14160 0.00000 0.27800 -1.55200
O 	O 	0.07500 0.00000 0.19400 11.63500
O 	O 	0.09380 0.50000 0.67130 -15.24100
C 	C 	0.18580 0.50000 0.76610 1.59400
H 	H 	0.14160 0.50000 0.77800 -1.42100
O 	O 	0.07500 0.50000 0.69400 10.91700
O 	O 	0.59380 0.00000 0.67130 -15.11500
C 	C 	0.68580 -0.00000 0.76610 1.56900
H 	H 	0.64160 0.00000 0.77800 -1.42700
O 	O 	0.57500 0.00000 0.69400 10.77000
O 	O 	0.59380 0.50000 0.17130 -15.18000
C 	C 	0.68580 0.50000 0.26610 1.58700
H 	H 	0.64160 0.50000 0.27800 -1.43000
O 	O 	0.57500 0.50000 0.19400 10.85800
O 	O 	0.90620 0.00000 0.82870 -14.59100
C 	C 	0.81420 0.00000 0.73390 1.24400
H 	H 	0.85840 0.00000 0.72200 -1.27800
O 	O 	0.92500 0.00000 0.80600 10.45600
O 	O 	0.90620 0.50000 0.32870 -14.67800
C 	C 	0.81420 0.50000 0.23390 1.27500
H 	H 	0.85840 0.50000 0.22200 -1.27500
O 	O 	0.92500 0.50000 0.30600 10.56700
O 	O 	0.40620 0.00000 0.32870 -15.79500
C 	C 	0.31420 0.00000 0.23390 1.35800
H 	H 	0.35840 0.00000 0.22200 -1.42400
O 	O 	0.42500 0.00000 0.30600 11.30800
O 	O 	0.40620 0.50000 0.82870 -14.73100
C 	C 	0.31420 0.50000 0.73390 1.27000
H 	H 	0.35840 0.50000 0.72200 -1.29600
O 	O 	0.42500 0.50000 0.80600 10.56200
O 	O 	0.09380 0.00000 0.82870 -15.39900
C 	C 	0.18580 0.00000 0.73390 1.44900
H 	H 	0.14160 0.00000 0.72200 -1.43300
O 	O 	0.07500 0.00000 0.80600 10.97500
O 	O 	0.09380 0.50000 0.32870 -15.49300
C 	C 	0.18580 0.50000 0.23390 1.48300
H 	H 	0.14160 0.50000 0.22200 -1.43100
O 	O 	0.07500 0.50000 0.30600 11.08900
O 	O 	0.59380 0.00000 0.32870 -15.36600
C 	C 	0.68580 0.00000 0.23390 1.45900
H 	H 	0.64160 0.00000 0.22200 -1.43800
O 	O 	0.57500 0.00000 0.30600 10.93900
O 	O 	0.59380 0.50000 0.82870 -14.32200
C 	C 	0.68580 0.50000 0.73390 1.37400
H 	H 	0.64160 0.50000 0.72200 -1.31100
O 	O 	0.57500 0.50000 0.80600 10.21100
O 	O 	0.90620 0.00000 0.17130 -15.45800
C 	C 	0.81420 0.00000 0.26610 1.45600
H 	H 	0.85840 0.00000 0.27800 -1.39600
O 	O 	0.92500 0.00000 0.19400 11.11300
O 	O 	0.90620 0.50000 0.67130 -14.43300
C 	C 	0.81420 0.50000 0.76610 1.38700
H 	H 	0.85840 0.50000 0.77800 -1.26700
O 	O 	0.92500 0.50000 0.69400 10.39800
O 	O 	0.40620 0.00000 0.67130 -15.54200
C 	C 	0.31420 -0.00000 0.76610 1.46900
H 	H 	0.35840 0.00000 0.77800 -1.41300
O 	O 	0.42500 0.00000 0.69400 11.13700
O 	O 	0.40620 0.50000 0.17130 -15.60700
C 	C 	0.31420 0.50000 0.26610 1.48500
H 	H 	0.35840 0.50000 0.27800 -1.41600
O 	O 	0.42500 0.50000 0.19400 11.22500
O 	O 	0.09380 0.17130 -0.00000 -16.27500
C 	C 	0.18580 0.26610 -0.00000 1.66300
H 	H 	0.14160 0.27800 -0.00000 -1.55200
O 	O 	0.07500 0.19400 -0.00000 11.63500
O 	O 	0.09380 0.67130 0.50000 -15.24100
C 	C 	0.18580 0.76610 0.50000 1.59400
H 	H 	0.14160 0.77800 0.50000 -1.42100
O 	O 	0.07500 0.69400 0.50000 10.91700
O 	O 	0.59380 0.17130 0.50000 -15.18000
C 	C 	0.68580 0.26610 0.50000 1.58700
H 	H 	0.64160 0.27800 0.50000 -1.43000
O 	O 	0.57500 0.19400 0.50000 10.85800
O 	O 	0.59380 0.67130 -0.00000 -15.11500
C 	C 	0.68580 0.76610 -0.00000 1.56900
H 	H 	0.64160 0.77800 -0.00000 -1.42700
O 	O 	0.57500 0.69400 -0.00000 10.77000
O 	O 	0.90620 0.82870 -0.00000 -14.59100
C 	C 	0.81420 0.73390 -0.00000 1.24400
H 	H 	0.85840 0.72200 -0.00000 -1.27800
O 	O 	0.92500 0.80600 -0.00000 10.45600
O 	O 	0.90620 0.32870 0.50000 -14.67800
C 	C 	0.81420 0.23390 0.50000 1.27500
H 	H 	0.85840 0.22200 0.50000 -1.27500
O 	O 	0.92500 0.30600 0.50000 10.56700
O 	O 	0.40620 0.82870 0.50000 -14.73100
C 	C 	0.31420 0.73390 0.50000 1.27000
H 	H 	0.35840 0.72200 0.50000 -1.29600
O 	O 	0.42500 0.80600 0.50000 10.56200
O 	O 	0.40620 0.32870 -0.00000 -15.79500
C 	C 	0.31420 0.23390 -0.00000 1.35800
H 	H 	0.35840 0.22200 -0.00000 -1.42400
O 	O 	0.42500 0.30600 -0.00000 11.30800
O 	O 	0.09380 0.82870 -0.00000 -15.39900
C 	C 	0.18580 0.73390 -0.00000 1.44900
H 	H 	0.14160 0.72200 -0.00000 -1.43300
O 	O 	0.07500 0.80600 -0.00000 10.97500
O 	O 	0.09380 0.32870 0.50000 -15.49300
C 	C 	0.18580 0.23390 0.50000 1.48300
H 	H 	0.14160 0.22200 0.50000 -1.43100
O 	O 	0.07500 0.30600 0.50000 11.08900
O 	O 	0.59380 0.82870 0.50000 -14.32200
C 	C 	0.68580 0.73390 0.50000 1.37400
H 	H 	0.64160 0.72200 0.50000 -1.31100
O 	O 	0.57500 0.80600 0.50000 10.21100
O 	O 	0.59380 0.32870 -0.00000 -15.36600
C 	C 	0.68580 0.23390 -0.00000 1.45900
H 	H 	0.64160 0.22200 -0.00000 -1.43800
O 	O 	0.57500 0.30600 -0.00000 10.93900
O 	O 	0.90620 0.17130 -0.00000 -15.45800
C 	C 	0.81420 0.26610 -0.00000 1.45600
H 	H 	0.85840 0.27800 -0.00000 -1.39600
O 	O 	0.92500 0.19400 -0.00000 11.11300
O 	O 	0.90620 0.67130 0.50000 -14.43300
C 	C 	0.81420 0.76610 0.50000 1.38700
H 	H 	0.85840 0.77800 0.50000 -1.26700
O 	O 	0.92500 0.69400 0.50000 10.39800
O 	O 	0.40620 0.17130 0.50000 -15.60700
C 	C 	0.31420 0.26610 0.50000 1.48500
H 	H 	0.35840 0.27800 0.50000 -1.41600
O 	O 	0.42500 0.19400 0.50000 11.22500
O 	O 	0.40620 0.67130 -0.00000 -15.54200
C 	C 	0.31420 0.76610 -0.00000 1.46900
H 	H 	0.35840 0.77800 -0.00000 -1.41300
O 	O 	0.42500 0.69400 -0.00000 11.13700
O 	O 	0.17130 0.00000 0.90620 -15.45800
C 	C 	0.26610 0.00000 0.81420 1.45600
H 	H 	0.27800 0.00000 0.85840 -1.39600
O 	O 	0.19400 0.00000 0.92500 11.11300
O 	O 	0.17130 0.50000 0.40620 -15.60700
C 	C 	0.26610 0.50000 0.31420 1.48500
H 	H 	0.27800 0.50000 0.35840 -1.41600
O 	O 	0.19400 0.50000 0.42500 11.22500
O 	O 	0.67130 0.00000 0.40620 -15.54200
C 	C 	0.76610 0.00000 0.31420 1.46900
H 	H 	0.77800 0.00000 0.35840 -1.41300
O 	O 	0.69400 -0.00000 0.42500 11.13700
O 	O 	0.67130 0.50000 0.90620 -14.43300
C 	C 	0.76610 0.50000 0.81420 1.38700
H 	H 	0.77800 0.50000 0.85840 -1.26700
O 	O 	0.69400 0.50000 0.92500 10.39800
O 	O 	0.82870 0.00000 0.09380 -15.39900
C 	C 	0.73390 0.00000 0.18580 1.44900
H 	H 	0.72200 0.00000 0.14160 -1.43300
O 	O 	0.80600 0.00000 0.07500 10.97500
O 	O 	0.82870 0.50000 0.59380 -14.32200
C 	C 	0.73390 0.50000 0.68580 1.37400
H 	H 	0.72200 0.50000 0.64160 -1.31100
O 	O 	0.80600 0.50000 0.57500 10.21100
O 	O 	0.32870 0.00000 0.59380 -15.36600
C 	C 	0.23390 0.00000 0.68580 1.45900
H 	H 	0.22200 0.00000 0.64160 -1.43800
O 	O 	0.30600 0.00000 0.57500 10.93900
O 	O 	0.32870 0.50000 0.09380 -15.49300
C 	C 	0.23390 0.50000 0.18580 1.48300
H 	H 	0.22200 0.50000 0.14160 -1.43100
O 	O 	0.30600 0.50000 0.07500 11.08900
O 	O 	0.82870 0.00000 0.90620 -14.59100
C 	C 	0.73390 0.00000 0.81420 1.24400
H 	H 	0.72200 0.00000 0.85840 -1.27800
O 	O 	0.80600 0.00000 0.92500 10.45600
O 	O 	0.82870 0.50000 0.40620 -14.73100
C 	C 	0.73390 0.50000 0.31420 1.27000
H 	H 	0.72200 0.50000 0.35840 -1.29600
O 	O 	0.80600 0.50000 0.42500 10.56200
O 	O 	0.32870 0.00000 0.40620 -15.79500
C 	C 	0.23390 0.00000 0.31420 1.35800
H 	H 	0.22200 0.00000 0.35840 -1.42400
O 	O 	0.30600 -0.00000 0.42500 11.30800
O 	O 	0.32870 0.50000 0.90620 -14.67800
C 	C 	0.23390 0.50000 0.81420 1.27500
H 	H 	0.22200 0.50000 0.85840 -1.27500
O 	O 	0.30600 0.50000 0.92500 10.56700
O 	O 	0.17130 0.00000 0.09380 -16.27500
C 	C 	0.26610 0.00000 0.18580 1.66300
H 	H 	0.27800 0.00000 0.14160 -1.55200
O 	O 	0.19400 0.00000 0.07500 11.63500
O 	O 	0.17130 0.50000 0.59380 -15.18000
C 	C 	0.26610 0.50000 0.68580 1.58700
H 	H 	0.27800 0.50000 0.64160 -1.43000
O 	O 	0.19400 0.50000 0.57500 10.85800
O 	O 	0.67130 0.00000 0.59380 -15.11500
C 	C 	0.76610 0.00000 0.68580 1.56900
H 	H 	0.77800 0.00000 0.64160 -1.42700
O 	O 	0.69400 0.00000 0.57500 10.77000
O 	O 	0.67130 0.50000 0.09380 -15.24100
C 	C 	0.76610 0.50000 0.18580 1.59400
H 	H 	0.77800 0.50000 0.14160 -1.42100
O 	O 	0.69400 0.50000 0.07500 10.91700
O 	O 	0.00000 0.09380 0.82870 -15.39900
C 	C 	-0.00000 0.18580 0.73390 1.44900
H 	H 	-0.00000 0.14160 0.72200 -1.43300
O 	O 	0.00000 0.07500 0.80600 10.97500
O 	O 	0.00000 0.59380 0.32870 -15.36600
C 	C 	0.00000 0.68580 0.23390 1.45900
H 	H 	0.00000 0.64160 0.22200 -1.43800
O 	O 	0.00000 0.57500 0.30600 10.93900
O 	O 	0.50000 0.09380 0.32870 -15.49300
C 	C 	0.50000 0.18580 0.23390 1.48300
H 	H 	0.50000 0.14160 0.22200 -1.43100
O 	O 	0.50000 0.07500 0.30600 11.08900
O 	O 	0.50000 0.59380 0.82870 -14.32200
C 	C 	0.50000 0.68580 0.73390 1.37400
H 	H 	0.50000 0.64160 0.72200 -1.31100
O 	O 	0.50000 0.57500 0.80600 10.21100
O 	O 	-0.00000 0.90620 0.17130 -15.45800
C 	C 	-0.00000 0.81420 0.26610 1.45600
H 	H 	0.00000 0.85840 0.27800 -1.39600
O 	O 	0.00000 0.92500 0.19400 11.11300
O 	O 	0.00000 0.40620 0.67130 -15.54200
C 	C 	-0.00000 0.31420 0.76610 1.46900
H 	H 	-0.00000 0.35840 0.77800 -1.41300
O 	O 	0.00000 0.42500 0.69400 11.13700
O 	O 	0.50000 0.90620 0.67130 -14.43300
C 	C 	0.50000 0.81420 0.76610 1.38700
H 	H 	0.50000 0.85840 0.77800 -1.26700
O 	O 	0.50000 0.92500 0.69400 10.39800
O 	O 	0.50000 0.40620 0.17130 -15.60700
C 	C 	0.50000 0.31420 0.26610 1.48500
H 	H 	0.50000 0.35840 0.27800 -1.41600
O 	O 	0.50000 0.42500 0.19400 11.22500
O 	O 	0.00000 0.09380 0.17130 -16.27500
C 	C 	0.00000 0.18580 0.26610 1.66300
H 	H 	0.00000 0.14160 0.27800 -1.55200
O 	O 	0.00000 0.07500 0.19400 11.63500
O 	O 	0.00000 0.59380 0.67130 -15.11500
C 	C 	-0.00000 0.68580 0.76610 1.56900
H 	H 	0.00000 0.64160 0.77800 -1.42700
O 	O 	0.00000 0.57500 0.69400 10.77000
O 	O 	0.50000 0.09380 0.67130 -15.24100
C 	C 	0.50000 0.18580 0.76610 1.59400
H 	H 	0.50000 0.14160 0.77800 -1.42100
O 	O 	0.50000 0.07500 0.69400 10.91700
O 	O 	0.50000 0.59380 0.17130 -15.18000
C 	C 	0.50000 0.68580 0.26610 1.58700
H 	H 	0.50000 0.64160 0.27800 -1.43000
O 	O 	0.50000 0.57500 0.19400 10.85800
O 	O 	0.00000 0.90620 0.82870 -14.59100
C 	C 	0.00000 0.81420 0.73390 1.24400
H 	H 	-0.00000 0.85840 0.72200 -1.27800
O 	O 	0.00000 0.92500 0.80600 10.45600
O 	O 	0.00000 0.40620 0.32870 -15.79500
C 	C 	-0.00000 0.31420 0.23390 1.35800
H 	H 	0.00000 0.35840 0.22200 -1.42400
O 	O 	-0.00000 0.42500 0.30600 11.30800
O 	O 	0.50000 0.90620 0.32870 -14.67800
C 	C 	0.50000 0.81420 0.23390 1.27500
H 	H 	0.50000 0.85840 0.22200 -1.27500
O 	O 	0.50000 0.92500 0.30600 10.56700
O 	O 	0.50000 0.40620 0.82870 -14.73100
C 	C 	0.50000 0.31420 0.73390 1.27000
H 	H 	0.50000 0.35840 0.72200 -1.29600
O 	O 	0.50000 0.42500 0.80600 10.56200
C 	C 	0.15180 0.15180 -0.00000 12.53100
C 	C 	0.20290 0.20290 -0.00000 -5.27600
C 	C 	0.15180 0.65180 0.50000 11.77500
C 	C 	0.20290 0.70290 0.50000 -4.93000
C 	C 	0.65180 0.15180 0.50000 11.77500
C 	C 	0.70290 0.20290 0.50000 -4.93000
C 	C 	0.65180 0.65180 -0.00000 11.63800
C 	C 	0.70290 0.70290 -0.00000 -4.90500
C 	C 	0.84820 0.84820 -0.00000 11.21400
C 	C 	0.79710 0.79710 -0.00000 -4.53000
C 	C 	0.84820 0.34820 0.50000 11.34500
C 	C 	0.79710 0.29710 0.50000 -4.57000
C 	C 	0.34820 0.84820 0.50000 11.34500
C 	C 	0.29710 0.79710 0.50000 -4.57000
C 	C 	0.34820 0.34820 -0.00000 12.10100
C 	C 	0.29710 0.29710 -0.00000 -4.93600
C 	C 	0.84820 0.15180 -0.00000 11.86900
C 	C 	0.79710 0.20290 -0.00000 -4.90100
C 	C 	0.84820 0.65180 0.50000 11.12200
C 	C 	0.79710 0.70290 0.50000 -4.56000
C 	C 	0.34820 0.15180 0.50000 12.00700
C 	C 	0.29710 0.20290 0.50000 -4.94500
C 	C 	0.34820 0.65180 -0.00000 11.86900
C 	C 	0.29710 0.70290 -0.00000 -4.92100
C 	C 	0.15180 0.84820 -0.00000 11.86900
C 	C 	0.20290 0.79710 -0.00000 -4.90100
C 	C 	0.15180 0.34820 0.50000 12.00700
C 	C 	0.20290 0.29710 0.50000 -4.94500
C 	C 	0.65180 0.84820 0.50000 11.12200
C 	C 	0.70290 0.79710 0.50000 -4.56000
C 	C 	0.65180 0.34820 -0.00000 11.86900
C 	C 	0.70290 0.29710 -0.00000 -4.92100
C 	C 	0.00000 0.15180 0.15180 12.53100
C 	C 	0.00000 0.20290 0.20290 -5.27600
C 	C 	0.00000 0.65180 0.65180 11.63800
C 	C 	-0.00000 0.70290 0.70290 -4.90500
C 	C 	0.50000 0.15180 0.65180 11.77500
C 	C 	0.50000 0.20290 0.70290 -4.93000
C 	C 	0.50000 0.65180 0.15180 11.77500
C 	C 	0.50000 0.70290 0.20290 -4.93000
C 	C 	0.00000 0.84820 0.84820 11.21400
C 	C 	0.00000 0.79710 0.79710 -4.53000
C 	C 	0.00000 0.34820 0.34820 12.10100
C 	C 	0.00000 0.29710 0.29710 -4.93600
C 	C 	0.50000 0.84820 0.34820 11.34500
C 	C 	0.50000 0.79710 0.29710 -4.57000
C 	C 	0.50000 0.34820 0.84820 11.34500
C 	C 	0.50000 0.29710 0.79710 -4.57000
C 	C 	0.00000 0.84820 0.15180 11.86900
C 	C 	0.00000 0.79710 0.20290 -4.90100
C 	C 	-0.00000 0.34820 0.65180 11.86900
C 	C 	-0.00000 0.29710 0.70290 -4.92100
C 	C 	0.50000 0.84820 0.65180 11.12200
C 	C 	0.50000 0.79710 0.70290 -4.56000
C 	C 	0.50000 0.34820 0.15180 12.00700
C 	C 	0.50000 0.29710 0.20290 -4.94500
C 	C 	0.00000 0.15180 0.84820 11.86900
C 	C 	0.00000 0.20290 0.79710 -4.90100
C 	C 	-0.00000 0.65180 0.34820 11.86900
C 	C 	-0.00000 0.70290 0.29710 -4.92100
C 	C 	0.50000 0.15180 0.34820 12.00700
C 	C 	0.50000 0.20290 0.29710 -4.94500
C 	C 	0.50000 0.65180 0.84820 11.12200
C 	C 	0.50000 0.70290 0.79710 -4.56000
C 	C 	0.15180 0.00000 0.15180 12.53100
C 	C 	0.20290 0.00000 0.20290 -5.27600
C 	C 	0.15180 0.50000 0.65180 11.77500
C 	C 	0.20290 0.50000 0.70290 -4.93000
C 	C 	0.65180 0.00000 0.65180 11.63800
C 	C 	0.70290 -0.00000 0.70290 -4.90500
C 	C 	0.65180 0.50000 0.15180 11.77500
C 	C 	0.70290 0.50000 0.20290 -4.93000
C 	C 	0.84820 0.00000 0.84820 11.21400
C 	C 	0.79710 0.00000 0.79710 -4.53000
C 	C 	0.84820 0.50000 0.34820 11.34500
C 	C 	0.79710 0.50000 0.29710 -4.57000
C 	C 	0.34820 0.00000 0.34820 12.10100
C 	C 	0.29710 0.00000 0.29710 -4.93600
C 	C 	0.34820 0.50000 0.84820 11.34500
C 	C 	0.29710 0.50000 0.79710 -4.57000
C 	C 	0.15180 0.00000 0.84820 11.86900
C 	C 	0.20290 0.00000 0.79710 -4.90100
C 	C 	0.15180 0.50000 0.34820 12.00700
C 	C 	0.20290 0.50000 0.29710 -4.94500
C 	C 	0.65180 0.00000 0.34820 11.86900
C 	C 	0.70290 0.00000 0.29710 -4.92100
C 	C 	0.65180 0.50000 0.84820 11.12200
C 	C 	0.70290 0.50000 0.79710 -4.56000
C 	C 	0.84820 0.00000 0.15180 11.86900
C 	C 	0.79710 0.00000 0.20290 -4.90100
C 	C 	0.84820 0.50000 0.65180 11.12200
C 	C 	0.79710 0.50000 0.70290 -4.56000
C 	C 	0.34820 0.00000 0.65180 11.86900
C 	C 	0.29710 -0.00000 0.70290 -4.92100
C 	C 	0.34820 0.50000 0.15180 12.00700
C 	C 	0.29710 0.50000 0.20290 -4.94500
O 	O 	0.06850 0.06850 0.06850 4.46300
O 	O 	0.05090 0.05090 0.05090 -3.99100
H 	H 	0.09630 0.09630 0.09630 -0.91600
O 	O 	0.06850 0.56850 0.56850 3.06900
O 	O 	0.05090 0.55090 0.55090 -2.73700
H 	H 	0.09630 0.59630 0.59630 -0.53700
O 	O 	0.56850 0.06850 0.56850 3.06900
O 	O 	0.55090 0.05090 0.55090 -2.73700
H 	H 	0.59630 0.09630 0.59630 -0.53700
O 	O 	0.56850 0.56850 0.06850 3.06900
O 	O 	0.55090 0.55090 0.05090 -2.73700
H 	H 	0.59630 0.59630 0.09630 -0.53700
O 	O 	0.93150 0.93150 0.06850 1.89500
O 	O 	0.94910 0.94910 0.05090 -1.53400
H 	H 	0.90370 0.90370 0.09630 -0.08900
O 	O 	0.93150 0.43150 0.56850 1.95700
O 	O 	0.94910 0.44910 0.55090 -1.65200
H 	H 	0.90370 0.40370 0.59630 -0.16800
O 	O 	0.43150 0.93150 0.56850 1.95700
O 	O 	0.44910 0.94910 0.55090 -1.65200
H 	H 	0.40370 0.90370 0.59630 -0.16800
O 	O 	0.43150 0.43150 0.06850 3.18100
O 	O 	0.44910 0.44910 0.05090 -2.80700
H 	H 	0.40370 0.40370 0.09630 -0.56000
O 	O 	0.93150 0.06850 0.93150 1.89500
O 	O 	0.94910 0.05090 0.94910 -1.53400
H 	H 	0.90370 0.09630 0.90370 -0.08900
O 	O 	0.93150 0.56850 0.43150 1.95700
O 	O 	0.94910 0.55090 0.44910 -1.65200
H 	H 	0.90370 0.59630 0.40370 -0.16800
O 	O 	0.43150 0.06850 0.43150 3.18100
O 	O 	0.44910 0.05090 0.44910 -2.80700
H 	H 	0.40370 0.09630 0.40370 -0.56000
O 	O 	0.43150 0.56850 0.93150 1.95700
O 	O 	0.44910 0.55090 0.94910 -1.65200
H 	H 	0.40370 0.59630 0.90370 -0.16800
O 	O 	0.06850 0.93150 0.93150 1.89500
O 	O 	0.05090 0.94910 0.94910 -1.53400
H 	H 	0.09630 0.90370 0.90370 -0.08900
O 	O 	0.06850 0.43150 0.43150 3.18100
O 	O 	0.05090 0.44910 0.44910 -2.80700
H 	H 	0.09630 0.40370 0.40370 -0.56000
O 	O 	0.56850 0.93150 0.43150 1.95700
O 	O 	0.55090 0.94910 0.44910 -1.65200
H 	H 	0.59630 0.90370 0.40370 -0.16800
O 	O 	0.56850 0.43150 0.93150 1.95700
O 	O 	0.55090 0.44910 0.94910 -1.65200
H 	H 	0.59630 0.40370 0.90370 -0.16800
O 	O 	0.06850 0.06850 0.93150 3.02600
O 	O 	0.05090 0.05090 0.94910 -2.61700
H 	H 	0.09630 0.09630 0.90370 -0.45600
O 	O 	0.06850 0.56850 0.43150 3.12400
O 	O 	0.05090 0.55090 0.44910 -2.77200
H 	H 	0.09630 0.59630 0.40370 -0.54800
O 	O 	0.56850 0.06850 0.43150 3.12400
O 	O 	0.55090 0.05090 0.44910 -2.77200
H 	H 	0.59630 0.09630 0.40370 -0.54800
O 	O 	0.56850 0.56850 0.93150 1.92100
O 	O 	0.55090 0.55090 0.94910 -1.63600
H 	H 	0.59630 0.59630 0.90370 -0.16300
O 	O 	0.93150 0.93150 0.93150 1.07200
O 	O 	0.94910 0.94910 0.94910 -0.74400
H 	H 	0.90370 0.90370 0.90370 0.18500
O 	O 	0.93150 0.43150 0.43150 1.99500
O 	O 	0.94910 0.44910 0.44910 -1.66900
H 	H 	0.90370 0.40370 0.40370 -0.17400
O 	O 	0.43150 0.93150 0.43150 1.99500
O 	O 	0.44910 0.94910 0.44910 -1.66900
H 	H 	0.40370 0.90370 0.40370 -0.17400
O 	O 	0.43150 0.43150 0.93150 1.99500
O 	O 	0.44910 0.44910 0.94910 -1.66900
H 	H 	0.40370 0.40370 0.90370 -0.17400
O 	O 	0.06850 0.93150 0.06850 3.02600
O 	O 	0.05090 0.94910 0.05090 -2.61700
H 	H 	0.09630 0.90370 0.09630 -0.45600
O 	O 	0.06850 0.43150 0.56850 3.12400
O 	O 	0.05090 0.44910 0.55090 -2.77200
H 	H 	0.09630 0.40370 0.59630 -0.54800
O 	O 	0.56850 0.93150 0.56850 1.92100
O 	O 	0.55090 0.94910 0.55090 -1.63600
H 	H 	0.59630 0.90370 0.59630 -0.16300
O 	O 	0.56850 0.43150 0.06850 3.12400
O 	O 	0.55090 0.44910 0.05090 -2.77200
H 	H 	0.59630 0.40370 0.09630 -0.54800
O 	O 	0.93150 0.06850 0.06850 3.02600
O 	O 	0.94910 0.05090 0.05090 -2.61700
H 	H 	0.90370 0.09630 0.09630 -0.45600
O 	O 	0.93150 0.56850 0.56850 1.92100
O 	O 	0.94910 0.55090 0.55090 -1.63600
H 	H 	0.90370 0.59630 0.59630 -0.16300
O 	O 	0.43150 0.06850 0.56850 3.12400
O 	O 	0.44910 0.05090 0.55090 -2.77200
H 	H 	0.40370 0.09630 0.59630 -0.54800
O 	O 	0.43150 0.56850 0.06850 3.12400
O 	O 	0.44910 0.55090 0.05090 -2.77200
H 	H 	0.40370 0.59630 0.09630 -0.54800
