data_crystal

_cell_length_a 20.72660
_cell_length_b 20.72660
_cell_length_c 20.72660
_cell_angle_alpha 90.00000
_cell_angle_beta  90.00000
_cell_angle_gamma 90.00000

_symmetry_space_group_name_	'P 1'
_symmetry_space_group_name_H-M	'P 1'

loop_
_symmetry_equiv_pos_as_xyz
  x,y,z

loop_
_atom_site_label
_atom_site_type_symbol
_atom_site_fract_x
_atom_site_fract_y
_atom_site_fract_z
_atom_site_charge
Zr	Zr	0.11966 0.00000 -0.00000 3.21200
Zr	Zr	0.11966 0.50000 0.50000 3.27500
Zr	Zr	0.61966 0.00000 0.50000 3.22600
Zr	Zr	0.61966 0.50000 -0.00000 3.22600
Zr	Zr	0.88034 0.00000 -0.00000 3.17700
Zr	Zr	0.88034 0.50000 0.50000 3.23800
Zr	Zr	0.38034 0.00000 0.50000 3.22600
Zr	Zr	0.38034 0.50000 -0.00000 3.22600
Zr	Zr	-0.00000 0.11966 -0.00000 3.21200
Zr	Zr	-0.00000 0.61966 0.50000 3.22600
Zr	Zr	0.50000 0.11966 0.50000 3.27500
Zr	Zr	0.50000 0.61966 -0.00000 3.22600
Zr	Zr	-0.00000 0.88034 -0.00000 3.17800
Zr	Zr	-0.00000 0.38034 0.50000 3.22700
Zr	Zr	0.50000 0.88034 0.50000 3.23900
Zr	Zr	0.50000 0.38034 -0.00000 3.22700
Zr	Zr	0.00000 0.00000 0.11966 3.21300
Zr	Zr	-0.00000 0.50000 0.61966 3.22700
Zr	Zr	0.50000 0.00000 0.61966 3.22700
Zr	Zr	0.50000 0.50000 0.11966 3.27600
Zr	Zr	0.00000 0.00000 0.88034 3.17800
Zr	Zr	-0.00000 0.50000 0.38034 3.22700
Zr	Zr	0.50000 0.00000 0.38034 3.22700
Zr	Zr	0.50000 0.50000 0.88034 3.23900
O 	O 	0.17340 0.09250 -0.00000 -0.42700
C 	C 	0.26610 0.18690 -0.00000 -0.05300
H 	H 	0.27820 0.14260 -0.00000 0.03200
O 	O 	0.20100 0.06700 -0.00000 -0.29900
O 	O 	0.17340 0.59250 0.50000 -0.50500
C 	C 	0.26610 0.68690 0.50000 -0.02900
H 	H 	0.27820 0.64260 0.50000 0.08100
O 	O 	0.20100 0.56700 0.50000 -0.09700
O 	O 	0.67340 0.09250 0.50000 -0.51000
C 	C 	0.76610 0.18690 0.50000 -0.01600
H 	H 	0.77820 0.14260 0.50000 0.09500
O 	O 	0.70100 0.06700 0.50000 -0.10400
O 	O 	0.67340 0.59250 -0.00000 -0.45500
C 	C 	0.76610 0.68690 -0.00000 -0.07000
H 	H 	0.77820 0.64260 -0.00000 0.07900
O 	O 	0.70100 0.56700 -0.00000 -0.25000
O 	O 	0.82660 0.90750 -0.00000 -0.61800
C 	C 	0.73390 0.81310 -0.00000 0.02300
H 	H 	0.72180 0.85740 -0.00000 0.07300
O 	O 	0.79900 0.93300 -0.00000 0.06900
O 	O 	0.82660 0.40750 0.50000 -0.54800
C 	C 	0.73390 0.31310 0.50000 0.02100
H 	H 	0.72180 0.35740 0.50000 0.06300
O 	O 	0.79900 0.43300 0.50000 -0.07500
O 	O 	0.32660 0.90750 0.50000 -0.64700
C 	C 	0.23390 0.81310 0.50000 0.02600
H 	H 	0.22180 0.85740 0.50000 0.11000
O 	O 	0.29900 0.93300 0.50000 0.22000
O 	O 	0.32660 0.40750 -0.00000 -0.43900
C 	C 	0.23390 0.31310 -0.00000 -0.05600
H 	H 	0.22180 0.35740 -0.00000 0.03500
O 	O 	0.29900 0.43300 -0.00000 -0.27800
O 	O 	0.82660 0.09250 -0.00000 -0.50700
C 	C 	0.73390 0.18690 -0.00000 -0.00500
H 	H 	0.72180 0.14260 -0.00000 0.01900
O 	O 	0.79900 0.06700 -0.00000 -0.25300
O 	O 	0.82660 0.59250 0.50000 -0.54700
C 	C 	0.73390 0.68690 0.50000 0.00500
H 	H 	0.72180 0.64260 0.50000 0.07000
O 	O 	0.79900 0.56700 0.50000 -0.07500
O 	O 	0.32660 0.09250 0.50000 -0.49500
C 	C 	0.23390 0.18690 0.50000 -0.01600
H 	H 	0.22180 0.14260 0.50000 0.05800
O 	O 	0.29900 0.06700 0.50000 -0.12900
O 	O 	0.32660 0.59250 -0.00000 -0.44100
C 	C 	0.23390 0.68690 -0.00000 -0.07600
H 	H 	0.22180 0.64260 -0.00000 0.04500
O 	O 	0.29900 0.56700 -0.00000 -0.27600
O 	O 	0.17340 0.90750 -0.00000 -0.61000
C 	C 	0.26610 0.81310 -0.00000 0.00100
H 	H 	0.27820 0.85740 -0.00000 0.08200
O 	O 	0.20100 0.93300 -0.00000 0.07000
O 	O 	0.17340 0.40750 0.50000 -0.50000
C 	C 	0.26610 0.31310 0.50000 -0.01500
H 	H 	0.27820 0.35740 0.50000 0.07400
O 	O 	0.20100 0.43300 0.50000 -0.10100
O 	O 	0.67340 0.90750 0.50000 -0.65300
C 	C 	0.76610 0.81310 0.50000 0.02300
H 	H 	0.77820 0.85740 0.50000 0.14500
O 	O 	0.70100 0.93300 0.50000 0.23400
O 	O 	0.67340 0.40750 -0.00000 -0.45100
C 	C 	0.76610 0.31310 -0.00000 -0.06300
H 	H 	0.77820 0.35740 -0.00000 0.07500
O 	O 	0.70100 0.43300 -0.00000 -0.25300
O 	O 	-0.00000 0.17340 0.09250 -0.42700
C 	C 	0.00000 0.26610 0.18690 -0.05300
H 	H 	-0.00000 0.27820 0.14260 0.03200
O 	O 	-0.00000 0.20100 0.06700 -0.29900
O 	O 	0.00000 0.67340 0.59250 -0.45500
C 	C 	0.00000 0.76610 0.68690 -0.07000
H 	H 	0.00000 0.77820 0.64260 0.07900
O 	O 	-0.00000 0.70100 0.56700 -0.25000
O 	O 	0.50000 0.17340 0.59250 -0.50500
C 	C 	0.50000 0.26610 0.68690 -0.02900
H 	H 	0.50000 0.27820 0.64260 0.08100
O 	O 	0.50000 0.20100 0.56700 -0.09700
O 	O 	0.50000 0.67340 0.09250 -0.51000
C 	C 	0.50000 0.76610 0.18690 -0.01600
H 	H 	0.50000 0.77820 0.14260 0.09500
O 	O 	0.50000 0.70100 0.06700 -0.10400
O 	O 	0.00000 0.82660 0.90750 -0.61800
C 	C 	-0.00000 0.73390 0.81310 0.02300
H 	H 	0.00000 0.72180 0.85740 0.07300
O 	O 	-0.00000 0.79900 0.93300 0.06900
O 	O 	-0.00000 0.32660 0.40750 -0.43900
C 	C 	-0.00000 0.23390 0.31310 -0.05600
H 	H 	-0.00000 0.22180 0.35740 0.03500
O 	O 	-0.00000 0.29900 0.43300 -0.27800
O 	O 	0.50000 0.82660 0.40750 -0.54800
C 	C 	0.50000 0.73390 0.31310 0.02100
H 	H 	0.50000 0.72180 0.35740 0.06300
O 	O 	0.50000 0.79900 0.43300 -0.07500
O 	O 	0.50000 0.32660 0.90750 -0.64700
C 	C 	0.50000 0.23390 0.81310 0.02600
H 	H 	0.50000 0.22180 0.85740 0.11000
O 	O 	0.50000 0.29900 0.93300 0.22000
O 	O 	-0.00000 0.82660 0.09250 -0.50700
C 	C 	-0.00000 0.73390 0.18690 -0.00500
H 	H 	0.00000 0.72180 0.14260 0.01900
O 	O 	-0.00000 0.79900 0.06700 -0.25300
O 	O 	-0.00000 0.32660 0.59250 -0.44100
C 	C 	0.00000 0.23390 0.68690 -0.07600
H 	H 	0.00000 0.22180 0.64260 0.04500
O 	O 	-0.00000 0.29900 0.56700 -0.27600
O 	O 	0.50000 0.82660 0.59250 -0.54700
C 	C 	0.50000 0.73390 0.68690 0.00500
H 	H 	0.50000 0.72180 0.64260 0.07000
O 	O 	0.50000 0.79900 0.56700 -0.07500
O 	O 	0.50000 0.32660 0.09250 -0.49500
C 	C 	0.50000 0.23390 0.18690 -0.01600
H 	H 	0.50000 0.22180 0.14260 0.05800
O 	O 	0.50000 0.29900 0.06700 -0.12900
O 	O 	0.00000 0.17340 0.90750 -0.61000
C 	C 	-0.00000 0.26610 0.81310 0.00100
H 	H 	-0.00000 0.27820 0.85740 0.08200
O 	O 	-0.00000 0.20100 0.93300 0.07000
O 	O 	0.00000 0.67340 0.40750 -0.45100
C 	C 	-0.00000 0.76610 0.31310 -0.06300
H 	H 	-0.00000 0.77820 0.35740 0.07500
O 	O 	-0.00000 0.70100 0.43300 -0.25300
O 	O 	0.50000 0.17340 0.40750 -0.50000
C 	C 	0.50000 0.26610 0.31310 -0.01500
H 	H 	0.50000 0.27820 0.35740 0.07400
O 	O 	0.50000 0.20100 0.43300 -0.10100
O 	O 	0.50000 0.67340 0.90750 -0.65300
C 	C 	0.50000 0.76610 0.81310 0.02300
H 	H 	0.50000 0.77820 0.85740 0.14500
O 	O 	0.50000 0.70100 0.93300 0.23400
O 	O 	0.09250 0.00000 0.17340 -0.42700
C 	C 	0.18690 0.00000 0.26610 -0.05300
H 	H 	0.14260 0.00000 0.27820 0.03200
O 	O 	0.06700 0.00000 0.20100 -0.29900
O 	O 	0.09250 0.50000 0.67340 -0.51000
C 	C 	0.18690 0.50000 0.76610 -0.01600
H 	H 	0.14260 0.50000 0.77820 0.09500
O 	O 	0.06700 0.50000 0.70100 -0.10400
O 	O 	0.59250 0.00000 0.67340 -0.45500
C 	C 	0.68690 -0.00000 0.76610 -0.07000
H 	H 	0.64260 -0.00000 0.77820 0.07900
O 	O 	0.56700 0.00000 0.70100 -0.25000
O 	O 	0.59250 0.50000 0.17340 -0.50500
C 	C 	0.68690 0.50000 0.26610 -0.02900
H 	H 	0.64260 0.50000 0.27820 0.08100
O 	O 	0.56700 0.50000 0.20100 -0.09700
O 	O 	0.90750 0.00000 0.82660 -0.61800
C 	C 	0.81310 -0.00000 0.73390 0.02300
H 	H 	0.85740 0.00000 0.72180 0.07300
O 	O 	0.93300 -0.00000 0.79900 0.06900
O 	O 	0.90750 0.50000 0.32660 -0.64700
C 	C 	0.81310 0.50000 0.23390 0.02600
H 	H 	0.85740 0.50000 0.22180 0.11000
O 	O 	0.93300 0.50000 0.29900 0.22000
O 	O 	0.40750 0.00000 0.32660 -0.43900
C 	C 	0.31310 0.00000 0.23390 -0.05600
H 	H 	0.35740 0.00000 0.22180 0.03500
O 	O 	0.43300 -0.00000 0.29900 -0.27800
O 	O 	0.40750 0.50000 0.82660 -0.54800
C 	C 	0.31310 0.50000 0.73390 0.02100
H 	H 	0.35740 0.50000 0.72180 0.06300
O 	O 	0.43300 0.50000 0.79900 -0.07500
O 	O 	0.09250 0.00000 0.82660 -0.50700
C 	C 	0.18690 -0.00000 0.73390 -0.00500
H 	H 	0.14260 0.00000 0.72180 0.01900
O 	O 	0.06700 -0.00000 0.79900 -0.25300
O 	O 	0.09250 0.50000 0.32660 -0.49500
C 	C 	0.18690 0.50000 0.23390 -0.01600
H 	H 	0.14260 0.50000 0.22180 0.05800
O 	O 	0.06700 0.50000 0.29900 -0.12900
O 	O 	0.59250 0.00000 0.32660 -0.44100
C 	C 	0.68690 0.00000 0.23390 -0.07600
H 	H 	0.64260 0.00000 0.22180 0.04500
O 	O 	0.56700 -0.00000 0.29900 -0.27600
O 	O 	0.59250 0.50000 0.82660 -0.54700
C 	C 	0.68690 0.50000 0.73390 0.00500
H 	H 	0.64260 0.50000 0.72180 0.07000
O 	O 	0.56700 0.50000 0.79900 -0.07500
O 	O 	0.90750 0.00000 0.17340 -0.61000
C 	C 	0.81310 0.00000 0.26610 0.00100
H 	H 	0.85740 0.00000 0.27820 0.08200
O 	O 	0.93300 0.00000 0.20100 0.07000
O 	O 	0.90750 0.50000 0.67340 -0.65300
C 	C 	0.81310 0.50000 0.76610 0.02300
H 	H 	0.85740 0.50000 0.77820 0.14500
O 	O 	0.93300 0.50000 0.70100 0.23400
O 	O 	0.40750 0.00000 0.67340 -0.45100
C 	C 	0.31310 -0.00000 0.76610 -0.06300
H 	H 	0.35740 -0.00000 0.77820 0.07500
O 	O 	0.43300 0.00000 0.70100 -0.25300
O 	O 	0.40750 0.50000 0.17340 -0.50000
C 	C 	0.31310 0.50000 0.26610 -0.01500
H 	H 	0.35740 0.50000 0.27820 0.07400
O 	O 	0.43300 0.50000 0.20100 -0.10100
O 	O 	0.09250 0.17340 -0.00000 -0.42700
C 	C 	0.18690 0.26610 -0.00000 -0.05300
H 	H 	0.14260 0.27820 -0.00000 0.03200
O 	O 	0.06700 0.20100 -0.00000 -0.29900
O 	O 	0.09250 0.67340 0.50000 -0.51000
C 	C 	0.18690 0.76610 0.50000 -0.01600
H 	H 	0.14260 0.77820 0.50000 0.09500
O 	O 	0.06700 0.70100 0.50000 -0.10400
O 	O 	0.59250 0.17340 0.50000 -0.50500
C 	C 	0.68690 0.26610 0.50000 -0.02900
H 	H 	0.64260 0.27820 0.50000 0.08100
O 	O 	0.56700 0.20100 0.50000 -0.09700
O 	O 	0.59250 0.67340 -0.00000 -0.45500
C 	C 	0.68690 0.76610 -0.00000 -0.07000
H 	H 	0.64260 0.77820 -0.00000 0.07900
O 	O 	0.56700 0.70100 -0.00000 -0.25000
O 	O 	0.90750 0.82660 -0.00000 -0.61800
C 	C 	0.81310 0.73390 -0.00000 0.02300
H 	H 	0.85740 0.72180 -0.00000 0.07300
O 	O 	0.93300 0.79900 -0.00000 0.06900
O 	O 	0.90750 0.32660 0.50000 -0.64700
C 	C 	0.81310 0.23390 0.50000 0.02600
H 	H 	0.85740 0.22180 0.50000 0.11000
O 	O 	0.93300 0.29900 0.50000 0.22000
O 	O 	0.40750 0.82660 0.50000 -0.54800
C 	C 	0.31310 0.73390 0.50000 0.02100
H 	H 	0.35740 0.72180 0.50000 0.06300
O 	O 	0.43300 0.79900 0.50000 -0.07500
O 	O 	0.40750 0.32660 -0.00000 -0.43900
C 	C 	0.31310 0.23390 -0.00000 -0.05600
H 	H 	0.35740 0.22180 -0.00000 0.03500
O 	O 	0.43300 0.29900 -0.00000 -0.27800
O 	O 	0.09250 0.82660 -0.00000 -0.50700
C 	C 	0.18690 0.73390 -0.00000 -0.00500
H 	H 	0.14260 0.72180 -0.00000 0.01900
O 	O 	0.06700 0.79900 -0.00000 -0.25300
O 	O 	0.09250 0.32660 0.50000 -0.49500
C 	C 	0.18690 0.23390 0.50000 -0.01600
H 	H 	0.14260 0.22180 0.50000 0.05800
O 	O 	0.06700 0.29900 0.50000 -0.12900
O 	O 	0.59250 0.82660 0.50000 -0.54700
C 	C 	0.68690 0.73390 0.50000 0.00500
H 	H 	0.64260 0.72180 0.50000 0.07000
O 	O 	0.56700 0.79900 0.50000 -0.07500
O 	O 	0.59250 0.32660 -0.00000 -0.44100
C 	C 	0.68690 0.23390 -0.00000 -0.07600
H 	H 	0.64260 0.22180 -0.00000 0.04500
O 	O 	0.56700 0.29900 -0.00000 -0.27600
O 	O 	0.90750 0.17340 -0.00000 -0.61000
C 	C 	0.81310 0.26610 -0.00000 0.00100
H 	H 	0.85740 0.27820 -0.00000 0.08200
O 	O 	0.93300 0.20100 -0.00000 0.07000
O 	O 	0.90750 0.67340 0.50000 -0.65300
C 	C 	0.81310 0.76610 0.50000 0.02300
H 	H 	0.85740 0.77820 0.50000 0.14500
O 	O 	0.93300 0.70100 0.50000 0.23400
O 	O 	0.40750 0.17340 0.50000 -0.50000
C 	C 	0.31310 0.26610 0.50000 -0.01500
H 	H 	0.35740 0.27820 0.50000 0.07400
O 	O 	0.43300 0.20100 0.50000 -0.10100
O 	O 	0.40750 0.67340 -0.00000 -0.45100
C 	C 	0.31310 0.76610 -0.00000 -0.06300
H 	H 	0.35740 0.77820 -0.00000 0.07500
O 	O 	0.43300 0.70100 -0.00000 -0.25300
O 	O 	0.17340 0.00000 0.90750 -0.61000
C 	C 	0.26610 -0.00000 0.81310 0.00100
H 	H 	0.27820 0.00000 0.85740 0.08200
O 	O 	0.20100 -0.00000 0.93300 0.07000
O 	O 	0.17340 0.50000 0.40750 -0.50000
C 	C 	0.26610 0.50000 0.31310 -0.01500
H 	H 	0.27820 0.50000 0.35740 0.07400
O 	O 	0.20100 0.50000 0.43300 -0.10100
O 	O 	0.67340 -0.00000 0.40750 -0.45100
C 	C 	0.76610 0.00000 0.31310 -0.06300
H 	H 	0.77820 0.00000 0.35740 0.07500
O 	O 	0.70100 0.00000 0.43300 -0.25300
O 	O 	0.67340 0.50000 0.90750 -0.65300
C 	C 	0.76610 0.50000 0.81310 0.02300
H 	H 	0.77820 0.50000 0.85740 0.14500
O 	O 	0.70100 0.50000 0.93300 0.23400
O 	O 	0.82660 0.00000 0.09250 -0.50700
C 	C 	0.73390 0.00000 0.18690 -0.00500
H 	H 	0.72180 0.00000 0.14260 0.01900
O 	O 	0.79900 0.00000 0.06700 -0.25300
O 	O 	0.82660 0.50000 0.59250 -0.54700
C 	C 	0.73390 0.50000 0.68690 0.00500
H 	H 	0.72180 0.50000 0.64260 0.07000
O 	O 	0.79900 0.50000 0.56700 -0.07500
O 	O 	0.32660 -0.00000 0.59250 -0.44100
C 	C 	0.23390 0.00000 0.68690 -0.07600
H 	H 	0.22180 0.00000 0.64260 0.04500
O 	O 	0.29900 -0.00000 0.56700 -0.27600
O 	O 	0.32660 0.50000 0.09250 -0.49500
C 	C 	0.23390 0.50000 0.18690 -0.01600
H 	H 	0.22180 0.50000 0.14260 0.05800
O 	O 	0.29900 0.50000 0.06700 -0.12900
O 	O 	0.82660 0.00000 0.90750 -0.61800
C 	C 	0.73390 -0.00000 0.81310 0.02300
H 	H 	0.72180 0.00000 0.85740 0.07300
O 	O 	0.79900 -0.00000 0.93300 0.06900
O 	O 	0.82660 0.50000 0.40750 -0.54800
C 	C 	0.73390 0.50000 0.31310 0.02100
H 	H 	0.72180 0.50000 0.35740 0.06300
O 	O 	0.79900 0.50000 0.43300 -0.07500
O 	O 	0.32660 -0.00000 0.40750 -0.43900
C 	C 	0.23390 0.00000 0.31310 -0.05600
H 	H 	0.22180 0.00000 0.35740 0.03500
O 	O 	0.29900 0.00000 0.43300 -0.27800
O 	O 	0.32660 0.50000 0.90750 -0.64700
C 	C 	0.23390 0.50000 0.81310 0.02600
H 	H 	0.22180 0.50000 0.85740 0.11000
O 	O 	0.29900 0.50000 0.93300 0.22000
O 	O 	0.17340 0.00000 0.09250 -0.42700
C 	C 	0.26610 0.00000 0.18690 -0.05300
H 	H 	0.27820 0.00000 0.14260 0.03200
O 	O 	0.20100 0.00000 0.06700 -0.29900
O 	O 	0.17340 0.50000 0.59250 -0.50500
C 	C 	0.26610 0.50000 0.68690 -0.02900
H 	H 	0.27820 0.50000 0.64260 0.08100
O 	O 	0.20100 0.50000 0.56700 -0.09700
O 	O 	0.67340 -0.00000 0.59250 -0.45500
C 	C 	0.76610 0.00000 0.68690 -0.07000
H 	H 	0.77820 0.00000 0.64260 0.07900
O 	O 	0.70100 -0.00000 0.56700 -0.25000
O 	O 	0.67340 0.50000 0.09250 -0.51000
C 	C 	0.76610 0.50000 0.18690 -0.01600
H 	H 	0.77820 0.50000 0.14260 0.09500
O 	O 	0.70100 0.50000 0.06700 -0.10400
O 	O 	-0.00000 0.09250 0.82660 -0.50700
C 	C 	-0.00000 0.18690 0.73390 -0.00500
H 	H 	0.00000 0.14260 0.72180 0.01900
O 	O 	-0.00000 0.06700 0.79900 -0.25300
O 	O 	-0.00000 0.59250 0.32660 -0.44100
C 	C 	0.00000 0.68690 0.23390 -0.07600
H 	H 	0.00000 0.64260 0.22180 0.04500
O 	O 	-0.00000 0.56700 0.29900 -0.27600
O 	O 	0.50000 0.09250 0.32660 -0.49500
C 	C 	0.50000 0.18690 0.23390 -0.01600
H 	H 	0.50000 0.14260 0.22180 0.05800
O 	O 	0.50000 0.06700 0.29900 -0.12900
O 	O 	0.50000 0.59250 0.82660 -0.54700
C 	C 	0.50000 0.68690 0.73390 0.00500
H 	H 	0.50000 0.64260 0.72180 0.07000
O 	O 	0.50000 0.56700 0.79900 -0.07500
O 	O 	0.00000 0.90750 0.17340 -0.61000
C 	C 	-0.00000 0.81310 0.26610 0.00100
H 	H 	-0.00000 0.85740 0.27820 0.08200
O 	O 	-0.00000 0.93300 0.20100 0.07000
O 	O 	0.00000 0.40750 0.67340 -0.45100
C 	C 	-0.00000 0.31310 0.76610 -0.06300
H 	H 	-0.00000 0.35740 0.77820 0.07500
O 	O 	-0.00000 0.43300 0.70100 -0.25300
O 	O 	0.50000 0.90750 0.67340 -0.65300
C 	C 	0.50000 0.81310 0.76610 0.02300
H 	H 	0.50000 0.85740 0.77820 0.14500
O 	O 	0.50000 0.93300 0.70100 0.23400
O 	O 	0.50000 0.40750 0.17340 -0.50000
C 	C 	0.50000 0.31310 0.26610 -0.01500
H 	H 	0.50000 0.35740 0.27820 0.07400
O 	O 	0.50000 0.43300 0.20100 -0.10100
O 	O 	-0.00000 0.09250 0.17340 -0.42700
C 	C 	0.00000 0.18690 0.26610 -0.05300
H 	H 	-0.00000 0.14260 0.27820 0.03200
O 	O 	-0.00000 0.06700 0.20100 -0.29900
O 	O 	0.00000 0.59250 0.67340 -0.45500
C 	C 	-0.00000 0.68690 0.76610 -0.07000
H 	H 	-0.00000 0.64260 0.77820 0.07900
O 	O 	-0.00000 0.56700 0.70100 -0.25000
O 	O 	0.50000 0.09250 0.67340 -0.51000
C 	C 	0.50000 0.18690 0.76610 -0.01600
H 	H 	0.50000 0.14260 0.77820 0.09500
O 	O 	0.50000 0.06700 0.70100 -0.10400
O 	O 	0.50000 0.59250 0.17340 -0.50500
C 	C 	0.50000 0.68690 0.26610 -0.02900
H 	H 	0.50000 0.64260 0.27820 0.08100
O 	O 	0.50000 0.56700 0.20100 -0.09700
O 	O 	0.00000 0.90750 0.82660 -0.61800
C 	C 	0.00000 0.81310 0.73390 0.02300
H 	H 	0.00000 0.85740 0.72180 0.07300
O 	O 	-0.00000 0.93300 0.79900 0.06900
O 	O 	-0.00000 0.40750 0.32660 -0.43900
C 	C 	-0.00000 0.31310 0.23390 -0.05600
H 	H 	0.00000 0.35740 0.22180 0.03500
O 	O 	-0.00000 0.43300 0.29900 -0.27800
O 	O 	0.50000 0.90750 0.32660 -0.64700
C 	C 	0.50000 0.81310 0.23390 0.02600
H 	H 	0.50000 0.85740 0.22180 0.11000
O 	O 	0.50000 0.93300 0.29900 0.22000
O 	O 	0.50000 0.40750 0.82660 -0.54800
C 	C 	0.50000 0.31310 0.73390 0.02100
H 	H 	0.50000 0.35740 0.72180 0.06300
O 	O 	0.50000 0.43300 0.79900 -0.07500
C 	C 	0.15200 0.15200 -0.00000 0.18100
C 	C 	0.20310 0.20310 -0.00000 -0.02500
C 	C 	0.15200 0.65200 0.50000 0.34400
C 	C 	0.20310 0.70310 0.50000 -0.01700
C 	C 	0.65200 0.15200 0.50000 0.34400
C 	C 	0.70310 0.20310 0.50000 -0.01700
C 	C 	0.65200 0.65200 -0.00000 0.20200
C 	C 	0.70310 0.70310 -0.00000 0.00500
C 	C 	0.84800 0.84800 -0.00000 0.41200
C 	C 	0.79690 0.79690 -0.00000 -0.09300
C 	C 	0.84800 0.34800 0.50000 0.45200
C 	C 	0.79690 0.29690 0.50000 -0.06800
C 	C 	0.34800 0.84800 0.50000 0.45200
C 	C 	0.29690 0.79690 0.50000 -0.06800
C 	C 	0.34800 0.34800 -0.00000 0.18500
C 	C 	0.29690 0.29690 -0.00000 -0.02800
C 	C 	0.84800 0.15200 -0.00000 0.33000
C 	C 	0.79690 0.20310 -0.00000 -0.06800
C 	C 	0.84800 0.65200 0.50000 0.45500
C 	C 	0.79690 0.70310 0.50000 -0.05100
C 	C 	0.34800 0.15200 0.50000 0.33400
C 	C 	0.29690 0.20310 0.50000 -0.03400
C 	C 	0.34800 0.65200 -0.00000 0.19200
C 	C 	0.29690 0.70310 -0.00000 -0.00500
C 	C 	0.15200 0.84800 -0.00000 0.33000
C 	C 	0.20310 0.79690 -0.00000 -0.06800
C 	C 	0.15200 0.34800 0.50000 0.33400
C 	C 	0.20310 0.29690 0.50000 -0.03400
C 	C 	0.65200 0.84800 0.50000 0.45500
C 	C 	0.70310 0.79690 0.50000 -0.05100
C 	C 	0.65200 0.34800 -0.00000 0.19200
C 	C 	0.70310 0.29690 -0.00000 -0.00500
C 	C 	0.00000 0.15200 0.15200 0.18100
C 	C 	-0.00000 0.20310 0.20310 -0.02500
C 	C 	0.00000 0.65200 0.65200 0.20200
C 	C 	-0.00000 0.70310 0.70310 0.00500
C 	C 	0.50000 0.15200 0.65200 0.34400
C 	C 	0.50000 0.20310 0.70310 -0.01700
C 	C 	0.50000 0.65200 0.15200 0.34400
C 	C 	0.50000 0.70310 0.20310 -0.01700
C 	C 	0.00000 0.84800 0.84800 0.41200
C 	C 	0.00000 0.79690 0.79690 -0.09300
C 	C 	-0.00000 0.34800 0.34800 0.18500
C 	C 	0.00000 0.29690 0.29690 -0.02800
C 	C 	0.50000 0.84800 0.34800 0.45200
C 	C 	0.50000 0.79690 0.29690 -0.06800
C 	C 	0.50000 0.34800 0.84800 0.45200
C 	C 	0.50000 0.29690 0.79690 -0.06800
C 	C 	0.00000 0.84800 0.15200 0.33000
C 	C 	0.00000 0.79690 0.20310 -0.06800
C 	C 	0.00000 0.34800 0.65200 0.19200
C 	C 	0.00000 0.29690 0.70310 -0.00500
C 	C 	0.50000 0.84800 0.65200 0.45500
C 	C 	0.50000 0.79690 0.70310 -0.05100
C 	C 	0.50000 0.34800 0.15200 0.33400
C 	C 	0.50000 0.29690 0.20310 -0.03400
C 	C 	0.00000 0.15200 0.84800 0.33000
C 	C 	0.00000 0.20310 0.79690 -0.06800
C 	C 	0.00000 0.65200 0.34800 0.19200
C 	C 	0.00000 0.70310 0.29690 -0.00500
C 	C 	0.50000 0.15200 0.34800 0.33400
C 	C 	0.50000 0.20310 0.29690 -0.03400
C 	C 	0.50000 0.65200 0.84800 0.45500
C 	C 	0.50000 0.70310 0.79690 -0.05100
C 	C 	0.15200 0.00000 0.15200 0.18100
C 	C 	0.20310 -0.00000 0.20310 -0.02500
C 	C 	0.15200 0.50000 0.65200 0.34400
C 	C 	0.20310 0.50000 0.70310 -0.01700
C 	C 	0.65200 0.00000 0.65200 0.20200
C 	C 	0.70310 -0.00000 0.70310 0.00500
C 	C 	0.65200 0.50000 0.15200 0.34400
C 	C 	0.70310 0.50000 0.20310 -0.01700
C 	C 	0.84800 0.00000 0.84800 0.41200
C 	C 	0.79690 0.00000 0.79690 -0.09300
C 	C 	0.84800 0.50000 0.34800 0.45200
C 	C 	0.79690 0.50000 0.29690 -0.06800
C 	C 	0.34800 -0.00000 0.34800 0.18500
C 	C 	0.29690 0.00000 0.29690 -0.02800
C 	C 	0.34800 0.50000 0.84800 0.45200
C 	C 	0.29690 0.50000 0.79690 -0.06800
C 	C 	0.15200 0.00000 0.84800 0.33000
C 	C 	0.20310 0.00000 0.79690 -0.06800
C 	C 	0.15200 0.50000 0.34800 0.33400
C 	C 	0.20310 0.50000 0.29690 -0.03400
C 	C 	0.65200 -0.00000 0.34800 0.19200
C 	C 	0.70310 0.00000 0.29690 -0.00500
C 	C 	0.65200 0.50000 0.84800 0.45500
C 	C 	0.70310 0.50000 0.79690 -0.05100
C 	C 	0.84800 0.00000 0.15200 0.33000
C 	C 	0.79690 -0.00000 0.20310 -0.06800
C 	C 	0.84800 0.50000 0.65200 0.45500
C 	C 	0.79690 0.50000 0.70310 -0.05100
C 	C 	0.34800 0.00000 0.65200 0.19200
C 	C 	0.29690 -0.00000 0.70310 -0.00500
C 	C 	0.34800 0.50000 0.15200 0.33400
C 	C 	0.29690 0.50000 0.20310 -0.03400
O 	O 	0.06810 0.06810 0.06810 0.41200
O 	O 	0.05070 0.05070 0.05070 -1.30800
H 	H 	0.09600 0.09600 0.09600 -0.16700
O 	O 	0.06810 0.56810 0.56810 2.60400
O 	O 	0.05070 0.55070 0.55070 -3.28200
H 	H 	0.09600 0.59600 0.59600 -0.78600
O 	O 	0.56810 0.06810 0.56810 2.60400
O 	O 	0.55070 0.05070 0.55070 -3.28200
H 	H 	0.59600 0.09600 0.59600 -0.78600
O 	O 	0.56810 0.56810 0.06810 2.60400
O 	O 	0.55070 0.55070 0.05070 -3.28200
H 	H 	0.59600 0.59600 0.09600 -0.78600
O 	O 	0.93190 0.93190 0.06810 1.89700
O 	O 	0.94930 0.94930 0.05070 -2.49100
H 	H 	0.90400 0.90400 0.09600 -0.44500
O 	O 	0.93190 0.43190 0.56810 0.67300
O 	O 	0.94930 0.44930 0.55070 -1.41800
H 	H 	0.90400 0.40400 0.59600 -0.16100
O 	O 	0.43190 0.93190 0.56810 0.67300
O 	O 	0.44930 0.94930 0.55070 -1.41800
H 	H 	0.40400 0.90400 0.59600 -0.16100
O 	O 	0.43190 0.43190 0.06810 2.28900
O 	O 	0.44930 0.44930 0.05070 -2.99100
H 	H 	0.40400 0.40400 0.09600 -0.70200
O 	O 	0.93190 0.06810 0.93190 1.89700
O 	O 	0.94930 0.05070 0.94930 -2.49100
H 	H 	0.90400 0.09600 0.90400 -0.44500
O 	O 	0.93190 0.56810 0.43190 0.67300
O 	O 	0.94930 0.55070 0.44930 -1.41800
H 	H 	0.90400 0.59600 0.40400 -0.16100
O 	O 	0.43190 0.06810 0.43190 2.28900
O 	O 	0.44930 0.05070 0.44930 -2.99100
H 	H 	0.40400 0.09600 0.40400 -0.70200
O 	O 	0.43190 0.56810 0.93190 0.67300
O 	O 	0.44930 0.55070 0.94930 -1.41800
H 	H 	0.40400 0.59600 0.90400 -0.16100
O 	O 	0.06810 0.93190 0.93190 1.89700
O 	O 	0.05070 0.94930 0.94930 -2.49100
H 	H 	0.09600 0.90400 0.90400 -0.44500
O 	O 	0.06810 0.43190 0.43190 2.28900
O 	O 	0.05070 0.44930 0.44930 -2.99100
H 	H 	0.09600 0.40400 0.40400 -0.70200
O 	O 	0.56810 0.93190 0.43190 0.67300
O 	O 	0.55070 0.94930 0.44930 -1.41800
H 	H 	0.59600 0.90400 0.40400 -0.16100
O 	O 	0.56810 0.43190 0.93190 0.67300
O 	O 	0.55070 0.44930 0.94930 -1.41800
H 	H 	0.59600 0.40400 0.90400 -0.16100
O 	O 	0.06810 0.06810 0.93190 3.65200
O 	O 	0.05070 0.05070 0.94930 -4.19000
H 	H 	0.09600 0.09600 0.90400 -1.02000
O 	O 	0.06810 0.56810 0.43190 2.49100
O 	O 	0.05070 0.55070 0.44930 -3.17700
H 	H 	0.09600 0.59600 0.40400 -0.75700
O 	O 	0.56810 0.06810 0.43190 2.49100
O 	O 	0.55070 0.05070 0.44930 -3.17700
H 	H 	0.59600 0.09600 0.40400 -0.75700
O 	O 	0.56810 0.56810 0.93190 0.45500
O 	O 	0.55070 0.55070 0.94930 -1.21900
H 	H 	0.59600 0.59600 0.90400 -0.09700
O 	O 	0.93190 0.93190 0.93190 -4.85400
O 	O 	0.94930 0.94930 0.94930 3.78700
H 	H 	0.90400 0.90400 0.90400 1.55700
O 	O 	0.93190 0.43190 0.43190 0.80200
O 	O 	0.94930 0.44930 0.44930 -1.53600
H 	H 	0.90400 0.40400 0.40400 -0.20000
O 	O 	0.43190 0.93190 0.43190 0.80200
O 	O 	0.44930 0.94930 0.44930 -1.53600
H 	H 	0.40400 0.90400 0.40400 -0.20000
O 	O 	0.43190 0.43190 0.93190 0.80200
O 	O 	0.44930 0.44930 0.94930 -1.53600
H 	H 	0.40400 0.40400 0.90400 -0.20000
O 	O 	0.06810 0.93190 0.06810 3.65200
O 	O 	0.05070 0.94930 0.05070 -4.19000
H 	H 	0.09600 0.90400 0.09600 -1.02000
O 	O 	0.06810 0.43190 0.56810 2.49100
O 	O 	0.05070 0.44930 0.55070 -3.17700
H 	H 	0.09600 0.40400 0.59600 -0.75700
O 	O 	0.56810 0.93190 0.56810 0.45500
O 	O 	0.55070 0.94930 0.55070 -1.21900
H 	H 	0.59600 0.90400 0.59600 -0.09700
O 	O 	0.56810 0.43190 0.06810 2.49100
O 	O 	0.55070 0.44930 0.05070 -3.17700
H 	H 	0.59600 0.40400 0.09600 -0.75700
O 	O 	0.93190 0.06810 0.06810 3.65200
O 	O 	0.94930 0.05070 0.05070 -4.19000
H 	H 	0.90400 0.09600 0.09600 -1.02000
O 	O 	0.93190 0.56810 0.56810 0.45500
O 	O 	0.94930 0.55070 0.55070 -1.21900
H 	H 	0.90400 0.59600 0.59600 -0.09700
O 	O 	0.43190 0.06810 0.56810 2.49100
O 	O 	0.44930 0.05070 0.55070 -3.17700
H 	H 	0.40400 0.09600 0.59600 -0.75700
O 	O 	0.43190 0.56810 0.06810 2.49100
O 	O 	0.44930 0.55070 0.05070 -3.17700
H 	H 	0.40400 0.59600 0.09600 -0.75700
