data_crystal

_cell_length_a 20.74250
_cell_length_b 20.74250
_cell_length_c 20.74250
_cell_angle_alpha 90.00000
_cell_angle_beta  90.00000
_cell_angle_gamma 90.00000

_symmetry_space_group_name_	'P 1'
_symmetry_space_group_name_H-M	'P 1'

loop_
_symmetry_equiv_pos_as_xyz
  x,y,z

loop_
_atom_site_label
_atom_site_type_symbol
_atom_site_fract_x
_atom_site_fract_y
_atom_site_fract_z
_atom_site_charge
Zr	Zr	0.11958 0.00000 -0.00000 3.27300
Zr	Zr	0.11958 0.50000 0.50000 3.32200
Zr	Zr	0.61958 -0.00000 0.50000 3.24400
Zr	Zr	0.61958 0.50000 -0.00000 3.24400
Zr	Zr	0.88042 0.00000 -0.00000 3.16200
Zr	Zr	0.88042 0.50000 0.50000 3.20500
Zr	Zr	0.38042 -0.00000 0.50000 3.25000
Zr	Zr	0.38042 0.50000 -0.00000 3.25000
Zr	Zr	-0.00000 0.11958 -0.00000 3.27300
Zr	Zr	0.00000 0.61958 0.50000 3.24400
Zr	Zr	0.50000 0.11958 0.50000 3.32200
Zr	Zr	0.50000 0.61958 -0.00000 3.24400
Zr	Zr	-0.00000 0.88042 -0.00000 3.16200
Zr	Zr	-0.00000 0.38042 0.50000 3.25000
Zr	Zr	0.50000 0.88042 0.50000 3.20500
Zr	Zr	0.50000 0.38042 -0.00000 3.25000
Zr	Zr	-0.00000 -0.00000 0.11958 3.27300
Zr	Zr	0.00000 0.50000 0.61958 3.24400
Zr	Zr	0.50000 0.00000 0.61958 3.24400
Zr	Zr	0.50000 0.50000 0.11958 3.32300
Zr	Zr	0.00000 0.00000 0.88042 3.16300
Zr	Zr	-0.00000 0.50000 0.38042 3.25100
Zr	Zr	0.50000 0.00000 0.38042 3.25100
Zr	Zr	0.50000 0.50000 0.88042 3.20600
O 	O 	0.17140 0.09380 -0.00000 0.19100
C 	C 	0.26680 0.18590 -0.00000 -0.98800
H 	H 	0.27870 0.14170 -0.00000 0.35200
O 	O 	0.19540 0.07390 -0.00000 -0.75100
O 	O 	0.17140 0.59380 0.50000 -0.13500
C 	C 	0.26680 0.68590 0.50000 -0.39500
H 	H 	0.27870 0.64170 0.50000 0.20100
O 	O 	0.19540 0.57390 0.50000 -0.35100
O 	O 	0.67140 0.09380 0.50000 0.39600
C 	C 	0.76680 0.18590 0.50000 -0.39100
H 	H 	0.77870 0.14170 0.50000 0.18900
O 	O 	0.69540 0.07390 0.50000 -1.02200
O 	O 	0.67140 0.59380 -0.00000 -2.65800
C 	C 	0.76680 0.68590 -0.00000 0.41200
H 	H 	0.77870 0.64170 -0.00000 -0.18100
O 	O 	0.69540 0.57390 -0.00000 1.57000
O 	O 	0.82860 0.90620 -0.00000 -1.75500
C 	C 	0.73320 0.81410 -0.00000 -0.12200
H 	H 	0.72130 0.85830 -0.00000 0.03900
O 	O 	0.80460 0.92610 -0.00000 0.93400
O 	O 	0.82860 0.40620 0.50000 -1.37100
C 	C 	0.73320 0.31410 0.50000 0.39400
H 	H 	0.72130 0.35830 0.50000 -0.11300
O 	O 	0.80460 0.42610 0.50000 0.56900
O 	O 	0.32860 0.90620 0.50000 -1.13500
C 	C 	0.23320 0.81410 0.50000 0.39400
H 	H 	0.22130 0.85830 0.50000 -0.09800
O 	O 	0.30460 0.92610 0.50000 0.37100
O 	O 	0.32860 0.40620 -0.00000 -3.54300
C 	C 	0.23320 0.31410 -0.00000 1.15800
H 	H 	0.22130 0.35830 -0.00000 -0.48500
O 	O 	0.30460 0.42610 -0.00000 2.24700
O 	O 	0.82860 0.09380 -0.00000 -0.56100
C 	C 	0.73320 0.18590 -0.00000 -0.57700
H 	H 	0.72130 0.14170 -0.00000 0.17600
O 	O 	0.80460 0.07390 -0.00000 -0.22800
O 	O 	0.82860 0.59380 0.50000 -0.85300
C 	C 	0.73320 0.68590 0.50000 0.02200
H 	H 	0.72130 0.64170 0.50000 0.02400
O 	O 	0.80460 0.57390 0.50000 0.14400
O 	O 	0.32860 0.09380 0.50000 0.04800
C 	C 	0.23320 0.18590 0.50000 -0.03400
H 	H 	0.22130 0.14170 0.50000 0.02900
O 	O 	0.30460 0.07390 0.50000 -0.78700
O 	O 	0.32860 0.59380 -0.00000 -3.10300
C 	C 	0.23320 0.68590 -0.00000 0.80400
H 	H 	0.22130 0.64170 -0.00000 -0.35600
O 	O 	0.30460 0.57390 -0.00000 1.88400
O 	O 	0.17140 0.90620 -0.00000 -0.98900
C 	C 	0.26680 0.81410 -0.00000 -0.57000
H 	H 	0.27870 0.85830 -0.00000 0.22900
O 	O 	0.19540 0.92610 -0.00000 0.40400
O 	O 	0.17140 0.40620 0.50000 -0.60900
C 	C 	0.26680 0.31410 0.50000 -0.02700
H 	H 	0.27870 0.35830 0.50000 0.06700
O 	O 	0.19540 0.42610 0.50000 0.03900
O 	O 	0.67140 0.90620 0.50000 -0.73800
C 	C 	0.76680 0.81410 0.50000 0.03200
H 	H 	0.77870 0.85830 0.50000 0.06300
O 	O 	0.69540 0.92610 0.50000 0.09100
O 	O 	0.67140 0.40620 -0.00000 -3.22900
C 	C 	0.76680 0.31410 -0.00000 0.81500
H 	H 	0.77870 0.35830 -0.00000 -0.33000
O 	O 	0.69540 0.42610 -0.00000 2.03900
O 	O 	-0.00000 0.17140 0.09380 0.19100
C 	C 	-0.00000 0.26680 0.18590 -0.98800
H 	H 	0.00000 0.27870 0.14170 0.35200
O 	O 	-0.00000 0.19540 0.07390 -0.75100
O 	O 	-0.00000 0.67140 0.59380 -2.65800
C 	C 	0.00000 0.76680 0.68590 0.41200
H 	H 	-0.00000 0.77870 0.64170 -0.18100
O 	O 	-0.00000 0.69540 0.57390 1.57000
O 	O 	0.50000 0.17140 0.59380 -0.13500
C 	C 	0.50000 0.26680 0.68590 -0.39500
H 	H 	0.50000 0.27870 0.64170 0.20100
O 	O 	0.50000 0.19540 0.57390 -0.35100
O 	O 	0.50000 0.67140 0.09380 0.39600
C 	C 	0.50000 0.76680 0.18590 -0.39100
H 	H 	0.50000 0.77870 0.14170 0.18900
O 	O 	0.50000 0.69540 0.07390 -1.02200
O 	O 	-0.00000 0.82860 0.90620 -1.75500
C 	C 	0.00000 0.73320 0.81410 -0.12200
H 	H 	-0.00000 0.72130 0.85830 0.03900
O 	O 	0.00000 0.80460 0.92610 0.93400
O 	O 	-0.00000 0.32860 0.40620 -3.54300
C 	C 	0.00000 0.23320 0.31410 1.15800
H 	H 	-0.00000 0.22130 0.35830 -0.48500
O 	O 	-0.00000 0.30460 0.42610 2.24700
O 	O 	0.50000 0.82860 0.40620 -1.37100
C 	C 	0.50000 0.73320 0.31410 0.39400
H 	H 	0.50000 0.72130 0.35830 -0.11300
O 	O 	0.50000 0.80460 0.42610 0.56900
O 	O 	0.50000 0.32860 0.90620 -1.13500
C 	C 	0.50000 0.23320 0.81410 0.39400
H 	H 	0.50000 0.22130 0.85830 -0.09800
O 	O 	0.50000 0.30460 0.92610 0.37100
O 	O 	-0.00000 0.82860 0.09380 -0.56100
C 	C 	0.00000 0.73320 0.18590 -0.57700
H 	H 	-0.00000 0.72130 0.14170 0.17600
O 	O 	-0.00000 0.80460 0.07390 -0.22800
O 	O 	-0.00000 0.32860 0.59380 -3.10300
C 	C 	0.00000 0.23320 0.68590 0.80400
H 	H 	0.00000 0.22130 0.64170 -0.35600
O 	O 	-0.00000 0.30460 0.57390 1.88400
O 	O 	0.50000 0.82860 0.59380 -0.85300
C 	C 	0.50000 0.73320 0.68590 0.02200
H 	H 	0.50000 0.72130 0.64170 0.02400
O 	O 	0.50000 0.80460 0.57390 0.14400
O 	O 	0.50000 0.32860 0.09380 0.04800
C 	C 	0.50000 0.23320 0.18590 -0.03400
H 	H 	0.50000 0.22130 0.14170 0.02900
O 	O 	0.50000 0.30460 0.07390 -0.78700
O 	O 	0.00000 0.17140 0.90620 -0.98900
C 	C 	-0.00000 0.26680 0.81410 -0.57000
H 	H 	-0.00000 0.27870 0.85830 0.22900
O 	O 	-0.00000 0.19540 0.92610 0.40400
O 	O 	0.00000 0.67140 0.40620 -3.22900
C 	C 	-0.00000 0.76680 0.31410 0.81500
H 	H 	-0.00000 0.77870 0.35830 -0.33000
O 	O 	-0.00000 0.69540 0.42610 2.03900
O 	O 	0.50000 0.17140 0.40620 -0.60900
C 	C 	0.50000 0.26680 0.31410 -0.02700
H 	H 	0.50000 0.27870 0.35830 0.06700
O 	O 	0.50000 0.19540 0.42610 0.03900
O 	O 	0.50000 0.67140 0.90620 -0.73800
C 	C 	0.50000 0.76680 0.81410 0.03200
H 	H 	0.50000 0.77870 0.85830 0.06300
O 	O 	0.50000 0.69540 0.92610 0.09100
O 	O 	0.09380 0.00000 0.17140 0.19100
C 	C 	0.18590 -0.00000 0.26680 -0.98800
H 	H 	0.14170 -0.00000 0.27870 0.35200
O 	O 	0.07390 -0.00000 0.19540 -0.75100
O 	O 	0.09380 0.50000 0.67140 0.39600
C 	C 	0.18590 0.50000 0.76680 -0.39100
H 	H 	0.14170 0.50000 0.77870 0.18900
O 	O 	0.07390 0.50000 0.69540 -1.02200
O 	O 	0.59380 -0.00000 0.67140 -2.65800
C 	C 	0.68590 -0.00000 0.76680 0.41200
H 	H 	0.64170 -0.00000 0.77870 -0.18100
O 	O 	0.57390 0.00000 0.69540 1.57000
O 	O 	0.59380 0.50000 0.17140 -0.13500
C 	C 	0.68590 0.50000 0.26680 -0.39500
H 	H 	0.64170 0.50000 0.27870 0.20100
O 	O 	0.57390 0.50000 0.19540 -0.35100
O 	O 	0.90620 -0.00000 0.82860 -1.75500
C 	C 	0.81410 0.00000 0.73320 -0.12200
H 	H 	0.85830 -0.00000 0.72130 0.03900
O 	O 	0.92610 0.00000 0.80460 0.93400
O 	O 	0.90620 0.50000 0.32860 -1.13500
C 	C 	0.81410 0.50000 0.23320 0.39400
H 	H 	0.85830 0.50000 0.22130 -0.09800
O 	O 	0.92610 0.50000 0.30460 0.37100
O 	O 	0.40620 -0.00000 0.32860 -3.54300
C 	C 	0.31410 0.00000 0.23320 1.15800
H 	H 	0.35830 0.00000 0.22130 -0.48500
O 	O 	0.42610 0.00000 0.30460 2.24700
O 	O 	0.40620 0.50000 0.82860 -1.37100
C 	C 	0.31410 0.50000 0.73320 0.39400
H 	H 	0.35830 0.50000 0.72130 -0.11300
O 	O 	0.42610 0.50000 0.80460 0.56900
O 	O 	0.09380 -0.00000 0.82860 -0.56100
C 	C 	0.18590 0.00000 0.73320 -0.57700
H 	H 	0.14170 -0.00000 0.72130 0.17600
O 	O 	0.07390 0.00000 0.80460 -0.22800
O 	O 	0.09380 0.50000 0.32860 0.04800
C 	C 	0.18590 0.50000 0.23320 -0.03400
H 	H 	0.14170 0.50000 0.22130 0.02900
O 	O 	0.07390 0.50000 0.30460 -0.78700
O 	O 	0.59380 -0.00000 0.32860 -3.10300
C 	C 	0.68590 0.00000 0.23320 0.80400
H 	H 	0.64170 0.00000 0.22130 -0.35600
O 	O 	0.57390 0.00000 0.30460 1.88400
O 	O 	0.59380 0.50000 0.82860 -0.85300
C 	C 	0.68590 0.50000 0.73320 0.02200
H 	H 	0.64170 0.50000 0.72130 0.02400
O 	O 	0.57390 0.50000 0.80460 0.14400
O 	O 	0.90620 0.00000 0.17140 -0.98900
C 	C 	0.81410 -0.00000 0.26680 -0.57000
H 	H 	0.85830 -0.00000 0.27870 0.22900
O 	O 	0.92610 -0.00000 0.19540 0.40400
O 	O 	0.90620 0.50000 0.67140 -0.73800
C 	C 	0.81410 0.50000 0.76680 0.03200
H 	H 	0.85830 0.50000 0.77870 0.06300
O 	O 	0.92610 0.50000 0.69540 0.09100
O 	O 	0.40620 -0.00000 0.67140 -3.22900
C 	C 	0.31410 -0.00000 0.76680 0.81500
H 	H 	0.35830 -0.00000 0.77870 -0.33000
O 	O 	0.42610 0.00000 0.69540 2.03900
O 	O 	0.40620 0.50000 0.17140 -0.60900
C 	C 	0.31410 0.50000 0.26680 -0.02700
H 	H 	0.35830 0.50000 0.27870 0.06700
O 	O 	0.42610 0.50000 0.19540 0.03900
O 	O 	0.09380 0.17140 -0.00000 0.19100
C 	C 	0.18590 0.26680 -0.00000 -0.98800
H 	H 	0.14170 0.27870 -0.00000 0.35200
O 	O 	0.07390 0.19540 -0.00000 -0.75100
O 	O 	0.09380 0.67140 0.50000 0.39600
C 	C 	0.18590 0.76680 0.50000 -0.39100
H 	H 	0.14170 0.77870 0.50000 0.18900
O 	O 	0.07390 0.69540 0.50000 -1.02200
O 	O 	0.59380 0.17140 0.50000 -0.13500
C 	C 	0.68590 0.26680 0.50000 -0.39500
H 	H 	0.64170 0.27870 0.50000 0.20100
O 	O 	0.57390 0.19540 0.50000 -0.35100
O 	O 	0.59380 0.67140 -0.00000 -2.65800
C 	C 	0.68590 0.76680 -0.00000 0.41200
H 	H 	0.64170 0.77870 -0.00000 -0.18100
O 	O 	0.57390 0.69540 -0.00000 1.57000
O 	O 	0.90620 0.82860 -0.00000 -1.75500
C 	C 	0.81410 0.73320 -0.00000 -0.12200
H 	H 	0.85830 0.72130 -0.00000 0.03900
O 	O 	0.92610 0.80460 -0.00000 0.93400
O 	O 	0.90620 0.32860 0.50000 -1.13500
C 	C 	0.81410 0.23320 0.50000 0.39400
H 	H 	0.85830 0.22130 0.50000 -0.09800
O 	O 	0.92610 0.30460 0.50000 0.37100
O 	O 	0.40620 0.82860 0.50000 -1.37100
C 	C 	0.31410 0.73320 0.50000 0.39400
H 	H 	0.35830 0.72130 0.50000 -0.11300
O 	O 	0.42610 0.80460 0.50000 0.56900
O 	O 	0.40620 0.32860 -0.00000 -3.54300
C 	C 	0.31410 0.23320 -0.00000 1.15800
H 	H 	0.35830 0.22130 -0.00000 -0.48500
O 	O 	0.42610 0.30460 -0.00000 2.24700
O 	O 	0.09380 0.82860 -0.00000 -0.56100
C 	C 	0.18590 0.73320 -0.00000 -0.57700
H 	H 	0.14170 0.72130 -0.00000 0.17600
O 	O 	0.07390 0.80460 -0.00000 -0.22800
O 	O 	0.09380 0.32860 0.50000 0.04800
C 	C 	0.18590 0.23320 0.50000 -0.03400
H 	H 	0.14170 0.22130 0.50000 0.02900
O 	O 	0.07390 0.30460 0.50000 -0.78700
O 	O 	0.59380 0.82860 0.50000 -0.85300
C 	C 	0.68590 0.73320 0.50000 0.02200
H 	H 	0.64170 0.72130 0.50000 0.02400
O 	O 	0.57390 0.80460 0.50000 0.14400
O 	O 	0.59380 0.32860 -0.00000 -3.10300
C 	C 	0.68590 0.23320 -0.00000 0.80400
H 	H 	0.64170 0.22130 -0.00000 -0.35600
O 	O 	0.57390 0.30460 -0.00000 1.88400
O 	O 	0.90620 0.17140 -0.00000 -0.98900
C 	C 	0.81410 0.26680 -0.00000 -0.57000
H 	H 	0.85830 0.27870 -0.00000 0.22900
O 	O 	0.92610 0.19540 -0.00000 0.40400
O 	O 	0.90620 0.67140 0.50000 -0.73800
C 	C 	0.81410 0.76680 0.50000 0.03200
H 	H 	0.85830 0.77870 0.50000 0.06300
O 	O 	0.92610 0.69540 0.50000 0.09100
O 	O 	0.40620 0.17140 0.50000 -0.60900
C 	C 	0.31410 0.26680 0.50000 -0.02700
H 	H 	0.35830 0.27870 0.50000 0.06700
O 	O 	0.42610 0.19540 0.50000 0.03900
O 	O 	0.40620 0.67140 -0.00000 -3.22900
C 	C 	0.31410 0.76680 -0.00000 0.81500
H 	H 	0.35830 0.77870 -0.00000 -0.33000
O 	O 	0.42610 0.69540 -0.00000 2.03900
O 	O 	0.17140 -0.00000 0.90620 -0.98900
C 	C 	0.26680 0.00000 0.81410 -0.57000
H 	H 	0.27870 -0.00000 0.85830 0.22900
O 	O 	0.19540 0.00000 0.92610 0.40400
O 	O 	0.17140 0.50000 0.40620 -0.60900
C 	C 	0.26680 0.50000 0.31410 -0.02700
H 	H 	0.27870 0.50000 0.35830 0.06700
O 	O 	0.19540 0.50000 0.42610 0.03900
O 	O 	0.67140 0.00000 0.40620 -3.22900
C 	C 	0.76680 0.00000 0.31410 0.81500
H 	H 	0.77870 -0.00000 0.35830 -0.33000
O 	O 	0.69540 0.00000 0.42610 2.03900
O 	O 	0.67140 0.50000 0.90620 -0.73800
C 	C 	0.76680 0.50000 0.81410 0.03200
H 	H 	0.77870 0.50000 0.85830 0.06300
O 	O 	0.69540 0.50000 0.92610 0.09100
O 	O 	0.82860 -0.00000 0.09380 -0.56100
C 	C 	0.73320 -0.00000 0.18590 -0.57700
H 	H 	0.72130 -0.00000 0.14170 0.17600
O 	O 	0.80460 0.00000 0.07390 -0.22800
O 	O 	0.82860 0.50000 0.59380 -0.85300
C 	C 	0.73320 0.50000 0.68590 0.02200
H 	H 	0.72130 0.50000 0.64170 0.02400
O 	O 	0.80460 0.50000 0.57390 0.14400
O 	O 	0.32860 -0.00000 0.59380 -3.10300
C 	C 	0.23320 0.00000 0.68590 0.80400
H 	H 	0.22130 0.00000 0.64170 -0.35600
O 	O 	0.30460 -0.00000 0.57390 1.88400
O 	O 	0.32860 0.50000 0.09380 0.04800
C 	C 	0.23320 0.50000 0.18590 -0.03400
H 	H 	0.22130 0.50000 0.14170 0.02900
O 	O 	0.30460 0.50000 0.07390 -0.78700
O 	O 	0.82860 -0.00000 0.90620 -1.75500
C 	C 	0.73320 0.00000 0.81410 -0.12200
H 	H 	0.72130 -0.00000 0.85830 0.03900
O 	O 	0.80460 0.00000 0.92610 0.93400
O 	O 	0.82860 0.50000 0.40620 -1.37100
C 	C 	0.73320 0.50000 0.31410 0.39400
H 	H 	0.72130 0.50000 0.35830 -0.11300
O 	O 	0.80460 0.50000 0.42610 0.56900
O 	O 	0.32860 0.00000 0.40620 -3.54300
C 	C 	0.23320 0.00000 0.31410 1.15800
H 	H 	0.22130 -0.00000 0.35830 -0.48500
O 	O 	0.30460 0.00000 0.42610 2.24700
O 	O 	0.32860 0.50000 0.90620 -1.13500
C 	C 	0.23320 0.50000 0.81410 0.39400
H 	H 	0.22130 0.50000 0.85830 -0.09800
O 	O 	0.30460 0.50000 0.92610 0.37100
O 	O 	0.17140 -0.00000 0.09380 0.19100
C 	C 	0.26680 -0.00000 0.18590 -0.98800
H 	H 	0.27870 -0.00000 0.14170 0.35200
O 	O 	0.19540 0.00000 0.07390 -0.75100
O 	O 	0.17140 0.50000 0.59380 -0.13500
C 	C 	0.26680 0.50000 0.68590 -0.39500
H 	H 	0.27870 0.50000 0.64170 0.20100
O 	O 	0.19540 0.50000 0.57390 -0.35100
O 	O 	0.67140 -0.00000 0.59380 -2.65800
C 	C 	0.76680 0.00000 0.68590 0.41200
H 	H 	0.77870 0.00000 0.64170 -0.18100
O 	O 	0.69540 -0.00000 0.57390 1.57000
O 	O 	0.67140 0.50000 0.09380 0.39600
C 	C 	0.76680 0.50000 0.18590 -0.39100
H 	H 	0.77870 0.50000 0.14170 0.18900
O 	O 	0.69540 0.50000 0.07390 -1.02200
O 	O 	-0.00000 0.09380 0.82860 -0.56100
C 	C 	0.00000 0.18590 0.73320 -0.57700
H 	H 	-0.00000 0.14170 0.72130 0.17600
O 	O 	-0.00000 0.07390 0.80460 -0.22800
O 	O 	-0.00000 0.59380 0.32860 -3.10300
C 	C 	0.00000 0.68590 0.23320 0.80400
H 	H 	0.00000 0.64170 0.22130 -0.35600
O 	O 	-0.00000 0.57390 0.30460 1.88400
O 	O 	0.50000 0.09380 0.32860 0.04800
C 	C 	0.50000 0.18590 0.23320 -0.03400
H 	H 	0.50000 0.14170 0.22130 0.02900
O 	O 	0.50000 0.07390 0.30460 -0.78700
O 	O 	0.50000 0.59380 0.82860 -0.85300
C 	C 	0.50000 0.68590 0.73320 0.02200
H 	H 	0.50000 0.64170 0.72130 0.02400
O 	O 	0.50000 0.57390 0.80460 0.14400
O 	O 	0.00000 0.90620 0.17140 -0.98900
C 	C 	-0.00000 0.81410 0.26680 -0.57000
H 	H 	-0.00000 0.85830 0.27870 0.22900
O 	O 	-0.00000 0.92610 0.19540 0.40400
O 	O 	0.00000 0.40620 0.67140 -3.22900
C 	C 	-0.00000 0.31410 0.76680 0.81500
H 	H 	-0.00000 0.35830 0.77870 -0.33000
O 	O 	-0.00000 0.42610 0.69540 2.03900
O 	O 	0.50000 0.90620 0.67140 -0.73800
C 	C 	0.50000 0.81410 0.76680 0.03200
H 	H 	0.50000 0.85830 0.77870 0.06300
O 	O 	0.50000 0.92610 0.69540 0.09100
O 	O 	0.50000 0.40620 0.17140 -0.60900
C 	C 	0.50000 0.31410 0.26680 -0.02700
H 	H 	0.50000 0.35830 0.27870 0.06700
O 	O 	0.50000 0.42610 0.19540 0.03900
O 	O 	-0.00000 0.09380 0.17140 0.19100
C 	C 	-0.00000 0.18590 0.26680 -0.98800
H 	H 	-0.00000 0.14170 0.27870 0.35200
O 	O 	-0.00000 0.07390 0.19540 -0.75100
O 	O 	-0.00000 0.59380 0.67140 -2.65800
C 	C 	0.00000 0.68590 0.76680 0.41200
H 	H 	-0.00000 0.64170 0.77870 -0.18100
O 	O 	-0.00000 0.57390 0.69540 1.57000
O 	O 	0.50000 0.09380 0.67140 0.39600
C 	C 	0.50000 0.18590 0.76680 -0.39100
H 	H 	0.50000 0.14170 0.77870 0.18900
O 	O 	0.50000 0.07390 0.69540 -1.02200
O 	O 	0.50000 0.59380 0.17140 -0.13500
C 	C 	0.50000 0.68590 0.26680 -0.39500
H 	H 	0.50000 0.64170 0.27870 0.20100
O 	O 	0.50000 0.57390 0.19540 -0.35100
O 	O 	-0.00000 0.90620 0.82860 -1.75500
C 	C 	0.00000 0.81410 0.73320 -0.12200
H 	H 	-0.00000 0.85830 0.72130 0.03900
O 	O 	-0.00000 0.92610 0.80460 0.93400
O 	O 	-0.00000 0.40620 0.32860 -3.54300
C 	C 	0.00000 0.31410 0.23320 1.15800
H 	H 	-0.00000 0.35830 0.22130 -0.48500
O 	O 	-0.00000 0.42610 0.30460 2.24700
O 	O 	0.50000 0.90620 0.32860 -1.13500
C 	C 	0.50000 0.81410 0.23320 0.39400
H 	H 	0.50000 0.85830 0.22130 -0.09800
O 	O 	0.50000 0.92610 0.30460 0.37100
O 	O 	0.50000 0.40620 0.82860 -1.37100
C 	C 	0.50000 0.31410 0.73320 0.39400
H 	H 	0.50000 0.35830 0.72130 -0.11300
O 	O 	0.50000 0.42610 0.80460 0.56900
C 	C 	0.15180 0.15180 -0.00000 -0.39700
C 	C 	0.20290 0.20290 -0.00000 0.78900
C 	C 	0.15180 0.65180 0.50000 -0.18000
C 	C 	0.20290 0.70290 0.50000 0.36600
C 	C 	0.65180 0.15180 0.50000 -0.18000
C 	C 	0.70290 0.20290 0.50000 0.36600
C 	C 	0.65180 0.65180 -0.00000 2.07100
C 	C 	0.70290 0.70290 -0.00000 -0.88700
C 	C 	0.84820 0.84820 -0.00000 1.27900
C 	C 	0.79710 0.79710 -0.00000 -0.29300
C 	C 	0.84820 0.34820 0.50000 1.04500
C 	C 	0.79710 0.29710 0.50000 -0.53300
C 	C 	0.34820 0.84820 0.50000 1.04500
C 	C 	0.29710 0.79710 0.50000 -0.53300
C 	C 	0.34820 0.34820 -0.00000 2.90400
C 	C 	0.29710 0.29710 -0.00000 -1.64600
C 	C 	0.84820 0.15180 -0.00000 0.43300
C 	C 	0.79710 0.20290 -0.00000 0.26300
C 	C 	0.84820 0.65180 0.50000 0.61700
C 	C 	0.79710 0.70290 0.50000 -0.15600
C 	C 	0.34820 0.15180 0.50000 0.21000
C 	C 	0.29710 0.20290 0.50000 0.00200
C 	C 	0.34820 0.65180 -0.00000 2.54300
C 	C 	0.29710 0.70290 -0.00000 -1.29900
C 	C 	0.15180 0.84820 -0.00000 0.43300
C 	C 	0.20290 0.79710 -0.00000 0.26300
C 	C 	0.15180 0.34820 0.50000 0.21000
C 	C 	0.20290 0.29710 0.50000 0.00200
C 	C 	0.65180 0.84820 0.50000 0.61700
C 	C 	0.70290 0.79710 0.50000 -0.15600
C 	C 	0.65180 0.34820 -0.00000 2.54300
C 	C 	0.70290 0.29710 -0.00000 -1.29900
C 	C 	-0.00000 0.15180 0.15180 -0.39700
C 	C 	-0.00000 0.20290 0.20290 0.78900
C 	C 	-0.00000 0.65180 0.65180 2.07100
C 	C 	-0.00000 0.70290 0.70290 -0.88700
C 	C 	0.50000 0.15180 0.65180 -0.18000
C 	C 	0.50000 0.20290 0.70290 0.36600
C 	C 	0.50000 0.65180 0.15180 -0.18000
C 	C 	0.50000 0.70290 0.20290 0.36600
C 	C 	-0.00000 0.84820 0.84820 1.27900
C 	C 	-0.00000 0.79710 0.79710 -0.29300
C 	C 	0.00000 0.34820 0.34820 2.90400
C 	C 	-0.00000 0.29710 0.29710 -1.64600
C 	C 	0.50000 0.84820 0.34820 1.04500
C 	C 	0.50000 0.79710 0.29710 -0.53300
C 	C 	0.50000 0.34820 0.84820 1.04500
C 	C 	0.50000 0.29710 0.79710 -0.53300
C 	C 	-0.00000 0.84820 0.15180 0.43300
C 	C 	-0.00000 0.79710 0.20290 0.26300
C 	C 	-0.00000 0.34820 0.65180 2.54300
C 	C 	-0.00000 0.29710 0.70290 -1.29900
C 	C 	0.50000 0.84820 0.65180 0.61700
C 	C 	0.50000 0.79710 0.70290 -0.15600
C 	C 	0.50000 0.34820 0.15180 0.21000
C 	C 	0.50000 0.29710 0.20290 0.00200
C 	C 	-0.00000 0.15180 0.84820 0.43300
C 	C 	-0.00000 0.20290 0.79710 0.26300
C 	C 	-0.00000 0.65180 0.34820 2.54300
C 	C 	-0.00000 0.70290 0.29710 -1.29900
C 	C 	0.50000 0.15180 0.34820 0.21000
C 	C 	0.50000 0.20290 0.29710 0.00200
C 	C 	0.50000 0.65180 0.84820 0.61700
C 	C 	0.50000 0.70290 0.79710 -0.15600
C 	C 	0.15180 -0.00000 0.15180 -0.39700
C 	C 	0.20290 -0.00000 0.20290 0.78900
C 	C 	0.15180 0.50000 0.65180 -0.18000
C 	C 	0.20290 0.50000 0.70290 0.36600
C 	C 	0.65180 0.00000 0.65180 2.07100
C 	C 	0.70290 -0.00000 0.70290 -0.88700
C 	C 	0.65180 0.50000 0.15180 -0.18000
C 	C 	0.70290 0.50000 0.20290 0.36600
C 	C 	0.84820 0.00000 0.84820 1.27900
C 	C 	0.79710 -0.00000 0.79710 -0.29300
C 	C 	0.84820 0.50000 0.34820 1.04500
C 	C 	0.79710 0.50000 0.29710 -0.53300
C 	C 	0.34820 0.00000 0.34820 2.90400
C 	C 	0.29710 -0.00000 0.29710 -1.64600
C 	C 	0.34820 0.50000 0.84820 1.04500
C 	C 	0.29710 0.50000 0.79710 -0.53300
C 	C 	0.15180 0.00000 0.84820 0.43300
C 	C 	0.20290 -0.00000 0.79710 0.26300
C 	C 	0.15180 0.50000 0.34820 0.21000
C 	C 	0.20290 0.50000 0.29710 0.00200
C 	C 	0.65180 0.00000 0.34820 2.54300
C 	C 	0.70290 -0.00000 0.29710 -1.29900
C 	C 	0.65180 0.50000 0.84820 0.61700
C 	C 	0.70290 0.50000 0.79710 -0.15600
C 	C 	0.84820 -0.00000 0.15180 0.43300
C 	C 	0.79710 -0.00000 0.20290 0.26300
C 	C 	0.84820 0.50000 0.65180 0.61700
C 	C 	0.79710 0.50000 0.70290 -0.15600
C 	C 	0.34820 0.00000 0.65180 2.54300
C 	C 	0.29710 -0.00000 0.70290 -1.29900
C 	C 	0.34820 0.50000 0.15180 0.21000
C 	C 	0.29710 0.50000 0.20290 0.00200
O 	O 	0.06770 0.06770 0.06770 11.41000
O 	O 	0.05060 0.05060 0.05060 -10.81100
H 	H 	0.09500 0.09500 0.09500 -3.44300
O 	O 	0.06770 0.56770 0.56770 5.29100
O 	O 	0.05060 0.55060 0.55060 -5.43000
H 	H 	0.09500 0.59500 0.59500 -1.60300
O 	O 	0.56770 0.06770 0.56770 5.29100
O 	O 	0.55060 0.05060 0.55060 -5.43000
H 	H 	0.59500 0.09500 0.59500 -1.60300
O 	O 	0.56770 0.56770 0.06770 5.29100
O 	O 	0.55060 0.55060 0.05060 -5.43000
H 	H 	0.59500 0.59500 0.09500 -1.60300
O 	O 	0.93230 0.93230 0.06770 -0.88600
O 	O 	0.94940 0.94940 0.05060 0.03500
H 	H 	0.90500 0.90500 0.09500 0.34300
O 	O 	0.93230 0.43230 0.56770 -0.93800
O 	O 	0.94940 0.44940 0.55060 0.08100
H 	H 	0.90500 0.40500 0.59500 0.32100
O 	O 	0.43230 0.93230 0.56770 -0.93800
O 	O 	0.44940 0.94940 0.55060 0.08100
H 	H 	0.40500 0.90500 0.59500 0.32100
O 	O 	0.43230 0.43230 0.06770 5.76000
O 	O 	0.44940 0.44940 0.05060 -5.80000
H 	H 	0.40500 0.40500 0.09500 -1.72800
O 	O 	0.93230 0.06770 0.93230 -0.88600
O 	O 	0.94940 0.05060 0.94940 0.03500
H 	H 	0.90500 0.09500 0.90500 0.34300
O 	O 	0.93230 0.56770 0.43230 -0.93800
O 	O 	0.94940 0.55060 0.44940 0.08100
H 	H 	0.90500 0.59500 0.40500 0.32100
O 	O 	0.43230 0.06770 0.43230 5.76000
O 	O 	0.44940 0.05060 0.44940 -5.80000
H 	H 	0.40500 0.09500 0.40500 -1.72800
O 	O 	0.43230 0.56770 0.93230 -0.93800
O 	O 	0.44940 0.55060 0.94940 0.08100
H 	H 	0.40500 0.59500 0.90500 0.32100
O 	O 	0.06770 0.93230 0.93230 -0.88600
O 	O 	0.05060 0.94940 0.94940 0.03500
H 	H 	0.09500 0.90500 0.90500 0.34300
O 	O 	0.06770 0.43230 0.43230 5.76000
O 	O 	0.05060 0.44940 0.44940 -5.80000
H 	H 	0.09500 0.40500 0.40500 -1.72800
O 	O 	0.56770 0.93230 0.43230 -0.93800
O 	O 	0.55060 0.94940 0.44940 0.08100
H 	H 	0.59500 0.90500 0.40500 0.32100
O 	O 	0.56770 0.43230 0.93230 -0.93800
O 	O 	0.55060 0.44940 0.94940 0.08100
H 	H 	0.59500 0.40500 0.90500 0.32100
O 	O 	0.06770 0.06770 0.93230 5.32200
O 	O 	0.05060 0.05060 0.94940 -5.43800
H 	H 	0.09500 0.09500 0.90500 -1.56600
O 	O 	0.06770 0.56770 0.43230 5.52100
O 	O 	0.05060 0.55060 0.44940 -5.61000
H 	H 	0.09500 0.59500 0.40500 -1.66400
O 	O 	0.56770 0.06770 0.43230 5.52100
O 	O 	0.55060 0.05060 0.44940 -5.61000
H 	H 	0.59500 0.09500 0.40500 -1.66400
O 	O 	0.56770 0.56770 0.93230 -1.17100
O 	O 	0.55060 0.55060 0.94940 0.26100
H 	H 	0.59500 0.59500 0.90500 0.38100
O 	O 	0.93230 0.93230 0.93230 -7.21500
O 	O 	0.94940 0.94940 0.94940 5.60700
H 	H 	0.90500 0.90500 0.90500 2.28400
O 	O 	0.93230 0.43230 0.43230 -0.69500
O 	O 	0.94940 0.44940 0.44940 -0.11000
H 	H 	0.90500 0.40500 0.40500 0.25700
O 	O 	0.43230 0.93230 0.43230 -0.69500
O 	O 	0.44940 0.94940 0.44940 -0.11000
H 	H 	0.40500 0.90500 0.40500 0.25700
O 	O 	0.43230 0.43230 0.93230 -0.69500
O 	O 	0.44940 0.44940 0.94940 -0.11000
H 	H 	0.40500 0.40500 0.90500 0.25700
O 	O 	0.06770 0.93230 0.06770 5.32200
O 	O 	0.05060 0.94940 0.05060 -5.43800
H 	H 	0.09500 0.90500 0.09500 -1.56600
O 	O 	0.06770 0.43230 0.56770 5.52100
O 	O 	0.05060 0.44940 0.55060 -5.61000
H 	H 	0.09500 0.40500 0.59500 -1.66400
O 	O 	0.56770 0.93230 0.56770 -1.17100
O 	O 	0.55060 0.94940 0.55060 0.26100
H 	H 	0.59500 0.90500 0.59500 0.38100
O 	O 	0.56770 0.43230 0.06770 5.52100
O 	O 	0.55060 0.44940 0.05060 -5.61000
H 	H 	0.59500 0.40500 0.09500 -1.66400
O 	O 	0.93230 0.06770 0.06770 5.32200
O 	O 	0.94940 0.05060 0.05060 -5.43800
H 	H 	0.90500 0.09500 0.09500 -1.56600
O 	O 	0.93230 0.56770 0.56770 -1.17100
O 	O 	0.94940 0.55060 0.55060 0.26100
H 	H 	0.90500 0.59500 0.59500 0.38100
O 	O 	0.43230 0.06770 0.56770 5.52100
O 	O 	0.44940 0.05060 0.55060 -5.61000
H 	H 	0.40500 0.09500 0.59500 -1.66400
O 	O 	0.43230 0.56770 0.06770 5.52100
O 	O 	0.44940 0.55060 0.05060 -5.61000
H 	H 	0.40500 0.59500 0.09500 -1.66400
