data_crystal

_cell_length_a 20.73660
_cell_length_b 20.73660
_cell_length_c 20.73660
_cell_angle_alpha 90.00000
_cell_angle_beta  90.00000
_cell_angle_gamma 90.00000

_symmetry_space_group_name_	'P 1'
_symmetry_space_group_name_H-M	'P 1'

loop_
_symmetry_equiv_pos_as_xyz
  x,y,z

loop_
_atom_site_label
_atom_site_type_symbol
_atom_site_fract_x
_atom_site_fract_y
_atom_site_fract_z
_atom_site_charge
Zr	Zr	0.11941 0.00000 -0.00000 3.17900
Zr	Zr	0.11941 0.50000 0.50000 3.24700
Zr	Zr	0.61941 0.00000 0.50000 3.24200
Zr	Zr	0.61941 0.50000 -0.00000 3.24200
Zr	Zr	0.88059 0.00000 -0.00000 3.15100
Zr	Zr	0.88059 0.50000 0.50000 3.21600
Zr	Zr	0.38059 0.00000 0.50000 3.24800
Zr	Zr	0.38059 0.50000 -0.00000 3.24800
Zr	Zr	-0.00000 0.11941 -0.00000 3.17800
Zr	Zr	0.00000 0.61941 0.50000 3.24100
Zr	Zr	0.50000 0.11941 0.50000 3.24600
Zr	Zr	0.50000 0.61941 -0.00000 3.24100
Zr	Zr	-0.00000 0.88059 -0.00000 3.15000
Zr	Zr	0.00000 0.38059 0.50000 3.24800
Zr	Zr	0.50000 0.88059 0.50000 3.21500
Zr	Zr	0.50000 0.38059 -0.00000 3.24800
Zr	Zr	0.00000 0.00000 0.11941 3.17800
Zr	Zr	0.00000 0.50000 0.61941 3.24100
Zr	Zr	0.50000 -0.00000 0.61941 3.24100
Zr	Zr	0.50000 0.50000 0.11941 3.24600
Zr	Zr	0.00000 0.00000 0.88059 3.15000
Zr	Zr	0.00000 0.50000 0.38059 3.24800
Zr	Zr	0.50000 0.00000 0.38059 3.24800
Zr	Zr	0.50000 0.50000 0.88059 3.21500
O 	O 	0.17088 0.09373 -0.00000 2.49500
C 	C 	0.26700 0.18540 -0.00000 -3.76500
H 	H 	0.27850 0.14210 -0.00000 1.38100
O 	O 	0.19640 0.07570 -0.00000 -2.51800
O 	O 	0.17088 0.59373 0.50000 1.79000
C 	C 	0.26700 0.68540 0.50000 -1.01400
H 	H 	0.27850 0.64210 0.50000 0.53600
O 	O 	0.19640 0.57570 0.50000 -1.71300
O 	O 	0.67088 0.09373 0.50000 3.82700
C 	C 	0.76700 0.18540 0.50000 -1.02000
H 	H 	0.77850 0.14210 0.50000 0.45800
O 	O 	0.69640 0.07570 0.50000 -4.19900
O 	O 	0.67088 0.59373 -0.00000 -9.04700
C 	C 	0.76700 0.68540 -0.00000 2.87100
H 	H 	0.77850 0.64210 -0.00000 -1.27700
O 	O 	0.69640 0.57570 -0.00000 6.75700
O 	O 	0.82912 0.90627 -0.00000 -1.21200
C 	C 	0.73300 0.81460 -0.00000 -1.99600
H 	H 	0.72150 0.85790 -0.00000 0.70800
O 	O 	0.80360 0.92430 -0.00000 0.62600
O 	O 	0.82912 0.40627 0.50000 -0.56600
C 	C 	0.73300 0.31460 0.50000 0.60700
H 	H 	0.72150 0.35790 0.50000 -0.12700
O 	O 	0.80360 0.42430 0.50000 0.05400
O 	O 	0.32912 0.90627 0.50000 0.94900
C 	C 	0.23300 0.81460 0.50000 0.59100
H 	H 	0.22150 0.85790 0.50000 -0.16100
O 	O 	0.30360 0.92430 0.50000 -1.65700
O 	O 	0.32912 0.40627 -0.00000 -10.65200
C 	C 	0.23300 0.31460 -0.00000 4.38300
H 	H 	0.22150 0.35790 -0.00000 -1.90600
O 	O 	0.30360 0.42430 -0.00000 7.98300
O 	O 	0.82912 0.09373 -0.00000 1.31200
C 	C 	0.73300 0.18540 -0.00000 -3.10000
H 	H 	0.72150 0.14210 -0.00000 1.08700
O 	O 	0.80360 0.07570 -0.00000 -1.70600
O 	O 	0.82912 0.59373 0.50000 0.32000
C 	C 	0.73300 0.68540 0.50000 -0.14700
H 	H 	0.72150 0.64210 0.50000 0.16200
O 	O 	0.80360 0.57570 0.50000 -0.66800
O 	O 	0.32912 0.09373 0.50000 3.17400
C 	C 	0.23300 0.18540 0.50000 -0.28900
H 	H 	0.22150 0.14210 0.50000 0.12900
O 	O 	0.30360 0.07570 0.50000 -3.75100
O 	O 	0.32912 0.59373 -0.00000 -10.15200
C 	C 	0.23300 0.68540 -0.00000 3.84300
H 	H 	0.22150 0.64210 -0.00000 -1.70400
O 	O 	0.30360 0.57570 -0.00000 7.57400
O 	O 	0.17088 0.90627 -0.00000 0.58700
C 	C 	0.26700 0.81460 -0.00000 -3.09100
H 	H 	0.27850 0.85790 -0.00000 1.17300
O 	O 	0.19640 0.92430 -0.00000 -0.68400
O 	O 	0.17088 0.40627 0.50000 0.93400
C 	C 	0.26700 0.31460 0.50000 -0.26400
H 	H 	0.27850 0.35790 0.50000 0.25000
O 	O 	0.19640 0.42430 0.50000 -1.01400
O 	O 	0.67088 0.90627 0.50000 1.63600
C 	C 	0.76700 0.81460 0.50000 -0.14400
H 	H 	0.77850 0.85790 0.50000 0.16900
O 	O 	0.69640 0.92430 0.50000 -2.13700
O 	O 	0.67088 0.40627 -0.00000 -10.35200
C 	C 	0.76700 0.31460 -0.00000 3.86200
H 	H 	0.77850 0.35790 -0.00000 -1.66200
O 	O 	0.69640 0.42430 -0.00000 7.82000
O 	O 	-0.00000 0.17088 0.09373 2.49500
C 	C 	0.00000 0.26700 0.18540 -3.76500
H 	H 	0.00000 0.27850 0.14210 1.38100
O 	O 	0.00000 0.19640 0.07570 -2.51800
O 	O 	0.00000 0.67088 0.59373 -9.04700
C 	C 	0.00000 0.76700 0.68540 2.87100
H 	H 	0.00000 0.77850 0.64210 -1.27700
O 	O 	0.00000 0.69640 0.57570 6.75700
O 	O 	0.50000 0.17088 0.59373 1.79000
C 	C 	0.50000 0.26700 0.68540 -1.01400
H 	H 	0.50000 0.27850 0.64210 0.53600
O 	O 	0.50000 0.19640 0.57570 -1.71300
O 	O 	0.50000 0.67088 0.09373 3.82700
C 	C 	0.50000 0.76700 0.18540 -1.02000
H 	H 	0.50000 0.77850 0.14210 0.45800
O 	O 	0.50000 0.69640 0.07570 -4.19900
O 	O 	0.00000 0.82912 0.90627 -1.21200
C 	C 	-0.00000 0.73300 0.81460 -1.99600
H 	H 	0.00000 0.72150 0.85790 0.70800
O 	O 	-0.00000 0.80360 0.92430 0.62600
O 	O 	-0.00000 0.32912 0.40627 -10.65200
C 	C 	0.00000 0.23300 0.31460 4.38300
H 	H 	-0.00000 0.22150 0.35790 -1.90600
O 	O 	-0.00000 0.30360 0.42430 7.98300
O 	O 	0.50000 0.82912 0.40627 -0.56600
C 	C 	0.50000 0.73300 0.31460 0.60700
H 	H 	0.50000 0.72150 0.35790 -0.12700
O 	O 	0.50000 0.80360 0.42430 0.05400
O 	O 	0.50000 0.32912 0.90627 0.94900
C 	C 	0.50000 0.23300 0.81460 0.59100
H 	H 	0.50000 0.22150 0.85790 -0.16100
O 	O 	0.50000 0.30360 0.92430 -1.65700
O 	O 	0.00000 0.82912 0.09373 1.31200
C 	C 	0.00000 0.73300 0.18540 -3.10000
H 	H 	0.00000 0.72150 0.14210 1.08700
O 	O 	-0.00000 0.80360 0.07570 -1.70600
O 	O 	-0.00000 0.32912 0.59373 -10.15200
C 	C 	0.00000 0.23300 0.68540 3.84300
H 	H 	-0.00000 0.22150 0.64210 -1.70400
O 	O 	-0.00000 0.30360 0.57570 7.57400
O 	O 	0.50000 0.82912 0.59373 0.32000
C 	C 	0.50000 0.73300 0.68540 -0.14700
H 	H 	0.50000 0.72150 0.64210 0.16200
O 	O 	0.50000 0.80360 0.57570 -0.66800
O 	O 	0.50000 0.32912 0.09373 3.17400
C 	C 	0.50000 0.23300 0.18540 -0.28900
H 	H 	0.50000 0.22150 0.14210 0.12900
O 	O 	0.50000 0.30360 0.07570 -3.75100
O 	O 	0.00000 0.17088 0.90627 0.58700
C 	C 	-0.00000 0.26700 0.81460 -3.09100
H 	H 	0.00000 0.27850 0.85790 1.17300
O 	O 	0.00000 0.19640 0.92430 -0.68400
O 	O 	-0.00000 0.67088 0.40627 -10.35200
C 	C 	0.00000 0.76700 0.31460 3.86200
H 	H 	0.00000 0.77850 0.35790 -1.66200
O 	O 	0.00000 0.69640 0.42430 7.82000
O 	O 	0.50000 0.17088 0.40627 0.93400
C 	C 	0.50000 0.26700 0.31460 -0.26400
H 	H 	0.50000 0.27850 0.35790 0.25000
O 	O 	0.50000 0.19640 0.42430 -1.01400
O 	O 	0.50000 0.67088 0.90627 1.63600
C 	C 	0.50000 0.76700 0.81460 -0.14400
H 	H 	0.50000 0.77850 0.85790 0.16900
O 	O 	0.50000 0.69640 0.92430 -2.13700
O 	O 	0.09373 0.00000 0.17088 2.49500
C 	C 	0.18540 0.00000 0.26700 -3.76500
H 	H 	0.14210 0.00000 0.27850 1.38100
O 	O 	0.07570 0.00000 0.19640 -2.51800
O 	O 	0.09373 0.50000 0.67088 3.82700
C 	C 	0.18540 0.50000 0.76700 -1.02000
H 	H 	0.14210 0.50000 0.77850 0.45800
O 	O 	0.07570 0.50000 0.69640 -4.19900
O 	O 	0.59373 0.00000 0.67088 -9.04700
C 	C 	0.68540 0.00000 0.76700 2.87100
H 	H 	0.64210 0.00000 0.77850 -1.27700
O 	O 	0.57570 0.00000 0.69640 6.75700
O 	O 	0.59373 0.50000 0.17088 1.79000
C 	C 	0.68540 0.50000 0.26700 -1.01400
H 	H 	0.64210 0.50000 0.27850 0.53600
O 	O 	0.57570 0.50000 0.19640 -1.71300
O 	O 	0.90627 0.00000 0.82912 -1.21200
C 	C 	0.81460 -0.00000 0.73300 -1.99600
H 	H 	0.85790 -0.00000 0.72150 0.70800
O 	O 	0.92430 0.00000 0.80360 0.62600
O 	O 	0.90627 0.50000 0.32912 0.94900
C 	C 	0.81460 0.50000 0.23300 0.59100
H 	H 	0.85790 0.50000 0.22150 -0.16100
O 	O 	0.92430 0.50000 0.30360 -1.65700
O 	O 	0.40627 0.00000 0.32912 -10.65200
C 	C 	0.31460 0.00000 0.23300 4.38300
H 	H 	0.35790 0.00000 0.22150 -1.90600
O 	O 	0.42430 0.00000 0.30360 7.98300
O 	O 	0.40627 0.50000 0.82912 -0.56600
C 	C 	0.31460 0.50000 0.73300 0.60700
H 	H 	0.35790 0.50000 0.72150 -0.12700
O 	O 	0.42430 0.50000 0.80360 0.05400
O 	O 	0.09373 0.00000 0.82912 1.31200
C 	C 	0.18540 -0.00000 0.73300 -3.10000
H 	H 	0.14210 -0.00000 0.72150 1.08700
O 	O 	0.07570 0.00000 0.80360 -1.70600
O 	O 	0.09373 0.50000 0.32912 3.17400
C 	C 	0.18540 0.50000 0.23300 -0.28900
H 	H 	0.14210 0.50000 0.22150 0.12900
O 	O 	0.07570 0.50000 0.30360 -3.75100
O 	O 	0.59373 0.00000 0.32912 -10.15200
C 	C 	0.68540 0.00000 0.23300 3.84300
H 	H 	0.64210 0.00000 0.22150 -1.70400
O 	O 	0.57570 0.00000 0.30360 7.57400
O 	O 	0.59373 0.50000 0.82912 0.32000
C 	C 	0.68540 0.50000 0.73300 -0.14700
H 	H 	0.64210 0.50000 0.72150 0.16200
O 	O 	0.57570 0.50000 0.80360 -0.66800
O 	O 	0.90627 0.00000 0.17088 0.58700
C 	C 	0.81460 0.00000 0.26700 -3.09100
H 	H 	0.85790 0.00000 0.27850 1.17300
O 	O 	0.92430 0.00000 0.19640 -0.68400
O 	O 	0.90627 0.50000 0.67088 1.63600
C 	C 	0.81460 0.50000 0.76700 -0.14400
H 	H 	0.85790 0.50000 0.77850 0.16900
O 	O 	0.92430 0.50000 0.69640 -2.13700
O 	O 	0.40627 0.00000 0.67088 -10.35200
C 	C 	0.31460 0.00000 0.76700 3.86200
H 	H 	0.35790 0.00000 0.77850 -1.66200
O 	O 	0.42430 0.00000 0.69640 7.82000
O 	O 	0.40627 0.50000 0.17088 0.93400
C 	C 	0.31460 0.50000 0.26700 -0.26400
H 	H 	0.35790 0.50000 0.27850 0.25000
O 	O 	0.42430 0.50000 0.19640 -1.01400
O 	O 	0.09373 0.17088 -0.00000 2.49500
C 	C 	0.18540 0.26700 -0.00000 -3.76500
H 	H 	0.14210 0.27850 -0.00000 1.38100
O 	O 	0.07570 0.19640 -0.00000 -2.51800
O 	O 	0.09373 0.67088 0.50000 3.82700
C 	C 	0.18540 0.76700 0.50000 -1.02000
H 	H 	0.14210 0.77850 0.50000 0.45800
O 	O 	0.07570 0.69640 0.50000 -4.19900
O 	O 	0.59373 0.17088 0.50000 1.79000
C 	C 	0.68540 0.26700 0.50000 -1.01400
H 	H 	0.64210 0.27850 0.50000 0.53600
O 	O 	0.57570 0.19640 0.50000 -1.71300
O 	O 	0.59373 0.67088 -0.00000 -9.04700
C 	C 	0.68540 0.76700 -0.00000 2.87100
H 	H 	0.64210 0.77850 -0.00000 -1.27700
O 	O 	0.57570 0.69640 -0.00000 6.75700
O 	O 	0.90627 0.82912 -0.00000 -1.21200
C 	C 	0.81460 0.73300 -0.00000 -1.99600
H 	H 	0.85790 0.72150 -0.00000 0.70800
O 	O 	0.92430 0.80360 -0.00000 0.62600
O 	O 	0.90627 0.32912 0.50000 0.94900
C 	C 	0.81460 0.23300 0.50000 0.59100
H 	H 	0.85790 0.22150 0.50000 -0.16100
O 	O 	0.92430 0.30360 0.50000 -1.65700
O 	O 	0.40627 0.82912 0.50000 -0.56600
C 	C 	0.31460 0.73300 0.50000 0.60700
H 	H 	0.35790 0.72150 0.50000 -0.12700
O 	O 	0.42430 0.80360 0.50000 0.05400
O 	O 	0.40627 0.32912 -0.00000 -10.65200
C 	C 	0.31460 0.23300 -0.00000 4.38300
H 	H 	0.35790 0.22150 -0.00000 -1.90600
O 	O 	0.42430 0.30360 -0.00000 7.98300
O 	O 	0.09373 0.82912 -0.00000 1.31200
C 	C 	0.18540 0.73300 -0.00000 -3.10000
H 	H 	0.14210 0.72150 -0.00000 1.08700
O 	O 	0.07570 0.80360 -0.00000 -1.70600
O 	O 	0.09373 0.32912 0.50000 3.17400
C 	C 	0.18540 0.23300 0.50000 -0.28900
H 	H 	0.14210 0.22150 0.50000 0.12900
O 	O 	0.07570 0.30360 0.50000 -3.75100
O 	O 	0.59373 0.82912 0.50000 0.32000
C 	C 	0.68540 0.73300 0.50000 -0.14700
H 	H 	0.64210 0.72150 0.50000 0.16200
O 	O 	0.57570 0.80360 0.50000 -0.66800
O 	O 	0.59373 0.32912 -0.00000 -10.15200
C 	C 	0.68540 0.23300 -0.00000 3.84300
H 	H 	0.64210 0.22150 -0.00000 -1.70400
O 	O 	0.57570 0.30360 -0.00000 7.57400
O 	O 	0.90627 0.17088 -0.00000 0.58700
C 	C 	0.81460 0.26700 -0.00000 -3.09100
H 	H 	0.85790 0.27850 -0.00000 1.17300
O 	O 	0.92430 0.19640 -0.00000 -0.68400
O 	O 	0.90627 0.67088 0.50000 1.63600
C 	C 	0.81460 0.76700 0.50000 -0.14400
H 	H 	0.85790 0.77850 0.50000 0.16900
O 	O 	0.92430 0.69640 0.50000 -2.13700
O 	O 	0.40627 0.17088 0.50000 0.93400
C 	C 	0.31460 0.26700 0.50000 -0.26400
H 	H 	0.35790 0.27850 0.50000 0.25000
O 	O 	0.42430 0.19640 0.50000 -1.01400
O 	O 	0.40627 0.67088 -0.00000 -10.35200
C 	C 	0.31460 0.76700 -0.00000 3.86200
H 	H 	0.35790 0.77850 -0.00000 -1.66200
O 	O 	0.42430 0.69640 -0.00000 7.82000
O 	O 	0.17088 0.00000 0.90627 0.58700
C 	C 	0.26700 -0.00000 0.81460 -3.09100
H 	H 	0.27850 0.00000 0.85790 1.17300
O 	O 	0.19640 0.00000 0.92430 -0.68400
O 	O 	0.17088 0.50000 0.40627 0.93400
C 	C 	0.26700 0.50000 0.31460 -0.26400
H 	H 	0.27850 0.50000 0.35790 0.25000
O 	O 	0.19640 0.50000 0.42430 -1.01400
O 	O 	0.67088 0.00000 0.40627 -10.35200
C 	C 	0.76700 -0.00000 0.31460 3.86200
H 	H 	0.77850 0.00000 0.35790 -1.66200
O 	O 	0.69640 0.00000 0.42430 7.82000
O 	O 	0.67088 0.50000 0.90627 1.63600
C 	C 	0.76700 0.50000 0.81460 -0.14400
H 	H 	0.77850 0.50000 0.85790 0.16900
O 	O 	0.69640 0.50000 0.92430 -2.13700
O 	O 	0.82912 0.00000 0.09373 1.31200
C 	C 	0.73300 0.00000 0.18540 -3.10000
H 	H 	0.72150 0.00000 0.14210 1.08700
O 	O 	0.80360 -0.00000 0.07570 -1.70600
O 	O 	0.82912 0.50000 0.59373 0.32000
C 	C 	0.73300 0.50000 0.68540 -0.14700
H 	H 	0.72150 0.50000 0.64210 0.16200
O 	O 	0.80360 0.50000 0.57570 -0.66800
O 	O 	0.32912 -0.00000 0.59373 -10.15200
C 	C 	0.23300 0.00000 0.68540 3.84300
H 	H 	0.22150 0.00000 0.64210 -1.70400
O 	O 	0.30360 0.00000 0.57570 7.57400
O 	O 	0.32912 0.50000 0.09373 3.17400
C 	C 	0.23300 0.50000 0.18540 -0.28900
H 	H 	0.22150 0.50000 0.14210 0.12900
O 	O 	0.30360 0.50000 0.07570 -3.75100
O 	O 	0.82912 0.00000 0.90627 -1.21200
C 	C 	0.73300 -0.00000 0.81460 -1.99600
H 	H 	0.72150 0.00000 0.85790 0.70800
O 	O 	0.80360 0.00000 0.92430 0.62600
O 	O 	0.82912 0.50000 0.40627 -0.56600
C 	C 	0.73300 0.50000 0.31460 0.60700
H 	H 	0.72150 0.50000 0.35790 -0.12700
O 	O 	0.80360 0.50000 0.42430 0.05400
O 	O 	0.32912 0.00000 0.40627 -10.65200
C 	C 	0.23300 -0.00000 0.31460 4.38300
H 	H 	0.22150 0.00000 0.35790 -1.90600
O 	O 	0.30360 0.00000 0.42430 7.98300
O 	O 	0.32912 0.50000 0.90627 0.94900
C 	C 	0.23300 0.50000 0.81460 0.59100
H 	H 	0.22150 0.50000 0.85790 -0.16100
O 	O 	0.30360 0.50000 0.92430 -1.65700
O 	O 	0.17088 0.00000 0.09373 2.49500
C 	C 	0.26700 0.00000 0.18540 -3.76500
H 	H 	0.27850 0.00000 0.14210 1.38100
O 	O 	0.19640 -0.00000 0.07570 -2.51800
O 	O 	0.17088 0.50000 0.59373 1.79000
C 	C 	0.26700 0.50000 0.68540 -1.01400
H 	H 	0.27850 0.50000 0.64210 0.53600
O 	O 	0.19640 0.50000 0.57570 -1.71300
O 	O 	0.67088 -0.00000 0.59373 -9.04700
C 	C 	0.76700 0.00000 0.68540 2.87100
H 	H 	0.77850 0.00000 0.64210 -1.27700
O 	O 	0.69640 0.00000 0.57570 6.75700
O 	O 	0.67088 0.50000 0.09373 3.82700
C 	C 	0.76700 0.50000 0.18540 -1.02000
H 	H 	0.77850 0.50000 0.14210 0.45800
O 	O 	0.69640 0.50000 0.07570 -4.19900
O 	O 	0.00000 0.09373 0.82912 1.31200
C 	C 	-0.00000 0.18540 0.73300 -3.10000
H 	H 	0.00000 0.14210 0.72150 1.08700
O 	O 	-0.00000 0.07570 0.80360 -1.70600
O 	O 	-0.00000 0.59373 0.32912 -10.15200
C 	C 	0.00000 0.68540 0.23300 3.84300
H 	H 	0.00000 0.64210 0.22150 -1.70400
O 	O 	0.00000 0.57570 0.30360 7.57400
O 	O 	0.50000 0.09373 0.32912 3.17400
C 	C 	0.50000 0.18540 0.23300 -0.28900
H 	H 	0.50000 0.14210 0.22150 0.12900
O 	O 	0.50000 0.07570 0.30360 -3.75100
O 	O 	0.50000 0.59373 0.82912 0.32000
C 	C 	0.50000 0.68540 0.73300 -0.14700
H 	H 	0.50000 0.64210 0.72150 0.16200
O 	O 	0.50000 0.57570 0.80360 -0.66800
O 	O 	0.00000 0.90627 0.17088 0.58700
C 	C 	0.00000 0.81460 0.26700 -3.09100
H 	H 	0.00000 0.85790 0.27850 1.17300
O 	O 	0.00000 0.92430 0.19640 -0.68400
O 	O 	-0.00000 0.40627 0.67088 -10.35200
C 	C 	0.00000 0.31460 0.76700 3.86200
H 	H 	0.00000 0.35790 0.77850 -1.66200
O 	O 	0.00000 0.42430 0.69640 7.82000
O 	O 	0.50000 0.90627 0.67088 1.63600
C 	C 	0.50000 0.81460 0.76700 -0.14400
H 	H 	0.50000 0.85790 0.77850 0.16900
O 	O 	0.50000 0.92430 0.69640 -2.13700
O 	O 	0.50000 0.40627 0.17088 0.93400
C 	C 	0.50000 0.31460 0.26700 -0.26400
H 	H 	0.50000 0.35790 0.27850 0.25000
O 	O 	0.50000 0.42430 0.19640 -1.01400
O 	O 	-0.00000 0.09373 0.17088 2.49500
C 	C 	0.00000 0.18540 0.26700 -3.76500
H 	H 	-0.00000 0.14210 0.27850 1.38100
O 	O 	0.00000 0.07570 0.19640 -2.51800
O 	O 	0.00000 0.59373 0.67088 -9.04700
C 	C 	0.00000 0.68540 0.76700 2.87100
H 	H 	0.00000 0.64210 0.77850 -1.27700
O 	O 	0.00000 0.57570 0.69640 6.75700
O 	O 	0.50000 0.09373 0.67088 3.82700
C 	C 	0.50000 0.18540 0.76700 -1.02000
H 	H 	0.50000 0.14210 0.77850 0.45800
O 	O 	0.50000 0.07570 0.69640 -4.19900
O 	O 	0.50000 0.59373 0.17088 1.79000
C 	C 	0.50000 0.68540 0.26700 -1.01400
H 	H 	0.50000 0.64210 0.27850 0.53600
O 	O 	0.50000 0.57570 0.19640 -1.71300
O 	O 	0.00000 0.90627 0.82912 -1.21200
C 	C 	-0.00000 0.81460 0.73300 -1.99600
H 	H 	0.00000 0.85790 0.72150 0.70800
O 	O 	-0.00000 0.92430 0.80360 0.62600
O 	O 	0.00000 0.40627 0.32912 -10.65200
C 	C 	0.00000 0.31460 0.23300 4.38300
H 	H 	0.00000 0.35790 0.22150 -1.90600
O 	O 	0.00000 0.42430 0.30360 7.98300
O 	O 	0.50000 0.90627 0.32912 0.94900
C 	C 	0.50000 0.81460 0.23300 0.59100
H 	H 	0.50000 0.85790 0.22150 -0.16100
O 	O 	0.50000 0.92430 0.30360 -1.65700
O 	O 	0.50000 0.40627 0.82912 -0.56600
C 	C 	0.50000 0.31460 0.73300 0.60700
H 	H 	0.50000 0.35790 0.72150 -0.12700
O 	O 	0.50000 0.42430 0.80360 0.05400
C 	C 	0.15150 0.15150 -0.00000 -2.77800
C 	C 	0.20280 0.20280 -0.00000 3.26700
C 	C 	0.15150 0.65150 0.50000 -2.38300
C 	C 	0.20280 0.70280 0.50000 1.41700
C 	C 	0.65150 0.15150 0.50000 -2.38300
C 	C 	0.70280 0.20280 0.50000 1.41700
C 	C 	0.65150 0.65150 -0.00000 7.44400
C 	C 	0.70280 0.70280 -0.00000 -4.13000
C 	C 	0.84850 0.84850 -0.00000 0.49200
C 	C 	0.79720 0.79720 -0.00000 1.17100
C 	C 	0.84850 0.34850 0.50000 -0.01900
C 	C 	0.79720 0.29720 0.50000 -0.34600
C 	C 	0.34850 0.84850 0.50000 -0.01900
C 	C 	0.29720 0.79720 0.50000 -0.34600
C 	C 	0.34850 0.34850 -0.00000 8.97300
C 	C 	0.29720 0.29720 -0.00000 -5.61200
C 	C 	0.84850 0.15150 -0.00000 -1.42100
C 	C 	0.79720 0.20280 -0.00000 2.44600
C 	C 	0.84850 0.65150 0.50000 -0.76900
C 	C 	0.79720 0.70280 0.50000 0.38300
C 	C 	0.34850 0.15150 0.50000 -1.65900
C 	C 	0.29720 0.20280 0.50000 0.69800
C 	C 	0.34850 0.65150 -0.00000 8.56300
C 	C 	0.29720 0.70280 -0.00000 -5.12600
C 	C 	0.15150 0.84850 -0.00000 -1.42100
C 	C 	0.20280 0.79720 -0.00000 2.44600
C 	C 	0.15150 0.34850 0.50000 -1.65900
C 	C 	0.20280 0.29720 0.50000 0.69800
C 	C 	0.65150 0.84850 0.50000 -0.76900
C 	C 	0.70280 0.79720 0.50000 0.38300
C 	C 	0.65150 0.34850 -0.00000 8.56300
C 	C 	0.70280 0.29720 -0.00000 -5.12600
C 	C 	0.00000 0.15150 0.15150 -2.77800
C 	C 	0.00000 0.20280 0.20280 3.26700
C 	C 	0.00000 0.65150 0.65150 7.44400
C 	C 	-0.00000 0.70280 0.70280 -4.13000
C 	C 	0.50000 0.15150 0.65150 -2.38300
C 	C 	0.50000 0.20280 0.70280 1.41700
C 	C 	0.50000 0.65150 0.15150 -2.38300
C 	C 	0.50000 0.70280 0.20280 1.41700
C 	C 	0.00000 0.84850 0.84850 0.49200
C 	C 	0.00000 0.79720 0.79720 1.17100
C 	C 	0.00000 0.34850 0.34850 8.97300
C 	C 	-0.00000 0.29720 0.29720 -5.61200
C 	C 	0.50000 0.84850 0.34850 -0.01900
C 	C 	0.50000 0.79720 0.29720 -0.34600
C 	C 	0.50000 0.34850 0.84850 -0.01900
C 	C 	0.50000 0.29720 0.79720 -0.34600
C 	C 	0.00000 0.84850 0.15150 -1.42100
C 	C 	0.00000 0.79720 0.20280 2.44600
C 	C 	0.00000 0.34850 0.65150 8.56300
C 	C 	-0.00000 0.29720 0.70280 -5.12600
C 	C 	0.50000 0.84850 0.65150 -0.76900
C 	C 	0.50000 0.79720 0.70280 0.38300
C 	C 	0.50000 0.34850 0.15150 -1.65900
C 	C 	0.50000 0.29720 0.20280 0.69800
C 	C 	0.00000 0.15150 0.84850 -1.42100
C 	C 	0.00000 0.20280 0.79720 2.44600
C 	C 	0.00000 0.65150 0.34850 8.56300
C 	C 	0.00000 0.70280 0.29720 -5.12600
C 	C 	0.50000 0.15150 0.34850 -1.65900
C 	C 	0.50000 0.20280 0.29720 0.69800
C 	C 	0.50000 0.65150 0.84850 -0.76900
C 	C 	0.50000 0.70280 0.79720 0.38300
C 	C 	0.15150 0.00000 0.15150 -2.77800
C 	C 	0.20280 0.00000 0.20280 3.26700
C 	C 	0.15150 0.50000 0.65150 -2.38300
C 	C 	0.20280 0.50000 0.70280 1.41700
C 	C 	0.65150 0.00000 0.65150 7.44400
C 	C 	0.70280 0.00000 0.70280 -4.13000
C 	C 	0.65150 0.50000 0.15150 -2.38300
C 	C 	0.70280 0.50000 0.20280 1.41700
C 	C 	0.84850 0.00000 0.84850 0.49200
C 	C 	0.79720 0.00000 0.79720 1.17100
C 	C 	0.84850 0.50000 0.34850 -0.01900
C 	C 	0.79720 0.50000 0.29720 -0.34600
C 	C 	0.34850 -0.00000 0.34850 8.97300
C 	C 	0.29720 0.00000 0.29720 -5.61200
C 	C 	0.34850 0.50000 0.84850 -0.01900
C 	C 	0.29720 0.50000 0.79720 -0.34600
C 	C 	0.15150 0.00000 0.84850 -1.42100
C 	C 	0.20280 0.00000 0.79720 2.44600
C 	C 	0.15150 0.50000 0.34850 -1.65900
C 	C 	0.20280 0.50000 0.29720 0.69800
C 	C 	0.65150 -0.00000 0.34850 8.56300
C 	C 	0.70280 0.00000 0.29720 -5.12600
C 	C 	0.65150 0.50000 0.84850 -0.76900
C 	C 	0.70280 0.50000 0.79720 0.38300
C 	C 	0.84850 0.00000 0.15150 -1.42100
C 	C 	0.79720 0.00000 0.20280 2.44600
C 	C 	0.84850 0.50000 0.65150 -0.76900
C 	C 	0.79720 0.50000 0.70280 0.38300
C 	C 	0.34850 0.00000 0.65150 8.56300
C 	C 	0.29720 0.00000 0.70280 -5.12600
C 	C 	0.34850 0.50000 0.15150 -1.65900
C 	C 	0.29720 0.50000 0.20280 0.69800
O 	O 	0.06750 0.06750 0.06750 3.14200
O 	O 	0.05010 0.05010 0.05010 -4.05000
H 	H 	0.09530 0.09530 0.09530 -1.05000
O 	O 	0.06750 0.56750 0.56750 2.71400
O 	O 	0.05010 0.55010 0.55010 -3.35300
H 	H 	0.09530 0.59530 0.59530 -0.81400
O 	O 	0.56750 0.06750 0.56750 2.71400
O 	O 	0.55010 0.05010 0.55010 -3.35300
H 	H 	0.59530 0.09530 0.59530 -0.81400
O 	O 	0.56750 0.56750 0.06750 2.71400
O 	O 	0.55010 0.55010 0.05010 -3.35300
H 	H 	0.59530 0.59530 0.09530 -0.81400
O 	O 	0.93250 0.93250 0.06750 0.69500
O 	O 	0.94990 0.94990 0.05010 -1.41600
H 	H 	0.90470 0.90470 0.09530 -0.08300
O 	O 	0.93250 0.43250 0.56750 0.36100
O 	O 	0.94990 0.44990 0.55010 -0.94400
H 	H 	0.90470 0.40470 0.59530 0.01700
O 	O 	0.43250 0.93250 0.56750 0.36100
O 	O 	0.44990 0.94990 0.55010 -0.94400
H 	H 	0.40470 0.90470 0.59530 0.01700
O 	O 	0.43250 0.43250 0.06750 2.93600
O 	O 	0.44990 0.44990 0.05010 -3.47900
H 	H 	0.40470 0.40470 0.09530 -0.85200
O 	O 	0.93250 0.06750 0.93250 0.69500
O 	O 	0.94990 0.05010 0.94990 -1.41600
H 	H 	0.90470 0.09530 0.90470 -0.08300
O 	O 	0.93250 0.56750 0.43250 0.36100
O 	O 	0.94990 0.55010 0.44990 -0.94400
H 	H 	0.90470 0.59530 0.40470 0.01700
O 	O 	0.43250 0.06750 0.43250 2.93600
O 	O 	0.44990 0.05010 0.44990 -3.47900
H 	H 	0.40470 0.09530 0.40470 -0.85200
O 	O 	0.43250 0.56750 0.93250 0.36100
O 	O 	0.44990 0.55010 0.94990 -0.94400
H 	H 	0.40470 0.59530 0.90470 0.01700
O 	O 	0.06750 0.93250 0.93250 0.69500
O 	O 	0.05010 0.94990 0.94990 -1.41600
H 	H 	0.09530 0.90470 0.90470 -0.08300
O 	O 	0.06750 0.43250 0.43250 2.93600
O 	O 	0.05010 0.44990 0.44990 -3.47900
H 	H 	0.09530 0.40470 0.40470 -0.85200
O 	O 	0.56750 0.93250 0.43250 0.36100
O 	O 	0.55010 0.94990 0.44990 -0.94400
H 	H 	0.59530 0.90470 0.40470 0.01700
O 	O 	0.56750 0.43250 0.93250 0.36100
O 	O 	0.55010 0.44990 0.94990 -0.94400
H 	H 	0.59530 0.40470 0.90470 0.01700
O 	O 	0.06750 0.06750 0.93250 2.71600
O 	O 	0.05010 0.05010 0.94990 -3.46800
H 	H 	0.09530 0.09530 0.90470 -0.79800
O 	O 	0.06750 0.56750 0.43250 2.46200
O 	O 	0.05010 0.55010 0.44990 -3.07300
H 	H 	0.09530 0.59530 0.40470 -0.72300
O 	O 	0.56750 0.06750 0.43250 2.46200
O 	O 	0.55010 0.05010 0.44990 -3.07300
H 	H 	0.59530 0.09530 0.40470 -0.72300
O 	O 	0.56750 0.56750 0.93250 0.58600
O 	O 	0.55010 0.55010 0.94990 -1.20000
H 	H 	0.59530 0.59530 0.90470 -0.06600
O 	O 	0.93250 0.93250 0.93250 -2.92000
O 	O 	0.94990 0.94990 0.94990 2.10600
H 	H 	0.90470 0.90470 0.90470 1.09500
O 	O 	0.93250 0.43250 0.43250 0.86300
O 	O 	0.94990 0.44990 0.44990 -1.37400
H 	H 	0.90470 0.40470 0.40470 -0.11800
O 	O 	0.43250 0.93250 0.43250 0.86300
O 	O 	0.44990 0.94990 0.44990 -1.37400
H 	H 	0.40470 0.90470 0.40470 -0.11800
O 	O 	0.43250 0.43250 0.93250 0.86300
O 	O 	0.44990 0.44990 0.94990 -1.37400
H 	H 	0.40470 0.40470 0.90470 -0.11800
O 	O 	0.06750 0.93250 0.06750 2.71600
O 	O 	0.05010 0.94990 0.05010 -3.46800
H 	H 	0.09530 0.90470 0.09530 -0.79800
O 	O 	0.06750 0.43250 0.56750 2.46200
O 	O 	0.05010 0.44990 0.55010 -3.07300
H 	H 	0.09530 0.40470 0.59530 -0.72300
O 	O 	0.56750 0.93250 0.56750 0.58600
O 	O 	0.55010 0.94990 0.55010 -1.20000
H 	H 	0.59530 0.90470 0.59530 -0.06600
O 	O 	0.56750 0.43250 0.06750 2.46200
O 	O 	0.55010 0.44990 0.05010 -3.07300
H 	H 	0.59530 0.40470 0.09530 -0.72300
O 	O 	0.93250 0.06750 0.06750 2.71600
O 	O 	0.94990 0.05010 0.05010 -3.46800
H 	H 	0.90470 0.09530 0.09530 -0.79800
O 	O 	0.93250 0.56750 0.56750 0.58600
O 	O 	0.94990 0.55010 0.55010 -1.20000
H 	H 	0.90470 0.59530 0.59530 -0.06600
O 	O 	0.43250 0.06750 0.56750 2.46200
O 	O 	0.44990 0.05010 0.55010 -3.07300
H 	H 	0.40470 0.09530 0.59530 -0.72300
O 	O 	0.43250 0.56750 0.06750 2.46200
O 	O 	0.44990 0.55010 0.05010 -3.07300
H 	H 	0.40470 0.59530 0.09530 -0.72300
