data_crystal

_cell_length_a 20.75700
_cell_length_b 20.75700
_cell_length_c 20.75700
_cell_angle_alpha 90.00000
_cell_angle_beta  90.00000
_cell_angle_gamma 90.00000

_symmetry_space_group_name_	'P 1'
_symmetry_space_group_name_H-M	'P 1'

loop_
_symmetry_equiv_pos_as_xyz
  x,y,z

loop_
_atom_site_label
_atom_site_type_symbol
_atom_site_fract_x
_atom_site_fract_y
_atom_site_fract_z
_atom_site_charge
Zr	Zr	0.11940 0.00000 -0.00000 3.08800
Zr	Zr	0.11940 0.50000 0.50000 3.19100
Zr	Zr	0.61940 -0.00000 0.50000 3.23300
Zr	Zr	0.61940 0.50000 -0.00000 3.23300
Zr	Zr	0.88060 0.00000 -0.00000 3.27900
Zr	Zr	0.88060 0.50000 0.50000 3.38800
Zr	Zr	0.38060 -0.00000 0.50000 3.23200
Zr	Zr	0.38060 0.50000 -0.00000 3.23200
Zr	Zr	-0.00000 0.11940 -0.00000 3.08800
Zr	Zr	-0.00000 0.61940 0.50000 3.23300
Zr	Zr	0.50000 0.11940 0.50000 3.19100
Zr	Zr	0.50000 0.61940 -0.00000 3.23300
Zr	Zr	-0.00000 0.88060 -0.00000 3.27900
Zr	Zr	0.00000 0.38060 0.50000 3.23200
Zr	Zr	0.50000 0.88060 0.50000 3.38700
Zr	Zr	0.50000 0.38060 -0.00000 3.23100
Zr	Zr	0.00000 0.00000 0.11940 3.08700
Zr	Zr	-0.00000 0.50000 0.61940 3.23200
Zr	Zr	0.50000 -0.00000 0.61940 3.23200
Zr	Zr	0.50000 0.50000 0.11940 3.19000
Zr	Zr	-0.00000 -0.00000 0.88060 3.27800
Zr	Zr	0.00000 0.50000 0.38060 3.23100
Zr	Zr	0.50000 -0.00000 0.38060 3.23100
Zr	Zr	0.50000 0.50000 0.88060 3.38700
O 	O 	0.17130 0.09340 -0.00000 -0.07700
C 	C 	0.26660 0.18610 -0.00000 -0.14300
H 	H 	0.27860 0.14200 -0.00000 0.00700
O 	O 	0.19710 0.07440 -0.00000 -0.66300
O 	O 	0.17130 0.59340 0.50000 -0.82700
C 	C 	0.26660 0.68610 0.50000 -0.30100
H 	H 	0.27860 0.64200 0.50000 0.12800
O 	O 	0.19710 0.57440 0.50000 0.14200
O 	O 	0.67130 0.09340 0.50000 -0.88300
C 	C 	0.76660 0.18610 0.50000 -0.28000
H 	H 	0.77860 0.14200 0.50000 0.15800
O 	O 	0.69710 0.07440 0.50000 0.23100
O 	O 	0.67130 0.59340 -0.00000 0.07000
C 	C 	0.76660 0.68610 -0.00000 -0.69100
H 	H 	0.77860 0.64200 -0.00000 0.26500
O 	O 	0.69710 0.57440 -0.00000 -0.76400
O 	O 	0.82870 0.90660 -0.00000 -2.54300
C 	C 	0.73340 0.81390 -0.00000 0.79900
H 	H 	0.72140 0.85800 -0.00000 -0.26100
O 	O 	0.80290 0.92560 -0.00000 1.57300
O 	O 	0.82870 0.40660 0.50000 -1.92800
C 	C 	0.73340 0.31390 0.50000 0.51000
H 	H 	0.72140 0.35800 0.50000 -0.18400
O 	O 	0.80290 0.42560 0.50000 0.94000
O 	O 	0.32870 0.90660 0.50000 -2.60000
C 	C 	0.23340 0.81390 0.50000 0.52300
H 	H 	0.22140 0.85800 0.50000 -0.09800
O 	O 	0.30290 0.92560 0.50000 1.91600
O 	O 	0.32870 0.40660 -0.00000 -0.19500
C 	C 	0.23340 0.31390 -0.00000 -0.06800
H 	H 	0.22140 0.35800 -0.00000 -0.01800
O 	O 	0.30290 0.42560 -0.00000 -0.59100
O 	O 	0.82870 0.09340 -0.00000 -0.98600
C 	C 	0.73340 0.18610 -0.00000 0.32500
H 	H 	0.72140 0.14200 -0.00000 -0.18100
O 	O 	0.80290 0.07440 -0.00000 -0.01400
O 	O 	0.82870 0.59340 0.50000 -1.74600
C 	C 	0.73340 0.68610 0.50000 0.17600
H 	H 	0.72140 0.64200 0.50000 -0.06300
O 	O 	0.80290 0.57440 0.50000 0.79600
O 	O 	0.32870 0.09340 0.50000 -0.99600
C 	C 	0.23340 0.18610 0.50000 0.03100
H 	H 	0.22140 0.14200 0.50000 -0.01300
O 	O 	0.30290 0.07440 0.50000 0.28500
O 	O 	0.32870 0.59340 -0.00000 -0.02700
C 	C 	0.23340 0.68610 -0.00000 -0.39400
H 	H 	0.22140 0.64200 -0.00000 0.09900
O 	O 	0.30290 0.57440 -0.00000 -0.72400
O 	O 	0.17130 0.90660 -0.00000 -1.65500
C 	C 	0.26660 0.81390 -0.00000 0.33900
H 	H 	0.27860 0.85800 -0.00000 -0.07600
O 	O 	0.19710 0.92560 -0.00000 0.94400
O 	O 	0.17130 0.40660 0.50000 -1.00400
C 	C 	0.26660 0.31390 0.50000 0.03200
H 	H 	0.27860 0.35800 0.50000 0.00800
O 	O 	0.19710 0.42560 0.50000 0.28200
O 	O 	0.67130 0.90660 0.50000 -2.47800
C 	C 	0.76660 0.81390 0.50000 0.21100
H 	H 	0.77860 0.85800 0.50000 0.07300
O 	O 	0.69710 0.92560 0.50000 1.85300
O 	O 	0.67130 0.40660 -0.00000 -0.09300
C 	C 	0.76660 0.31390 -0.00000 -0.37100
H 	H 	0.77860 0.35800 -0.00000 0.15000
O 	O 	0.69710 0.42560 -0.00000 -0.63500
O 	O 	0.00000 0.17130 0.09340 -0.07700
C 	C 	-0.00000 0.26660 0.18610 -0.14300
H 	H 	0.00000 0.27860 0.14200 0.00700
O 	O 	0.00000 0.19710 0.07440 -0.66300
O 	O 	0.00000 0.67130 0.59340 0.07000
C 	C 	0.00000 0.76660 0.68610 -0.69100
H 	H 	-0.00000 0.77860 0.64200 0.26500
O 	O 	0.00000 0.69710 0.57440 -0.76400
O 	O 	0.50000 0.17130 0.59340 -0.82700
C 	C 	0.50000 0.26660 0.68610 -0.30100
H 	H 	0.50000 0.27860 0.64200 0.12800
O 	O 	0.50000 0.19710 0.57440 0.14200
O 	O 	0.50000 0.67130 0.09340 -0.88300
C 	C 	0.50000 0.76660 0.18610 -0.28000
H 	H 	0.50000 0.77860 0.14200 0.15800
O 	O 	0.50000 0.69710 0.07440 0.23100
O 	O 	0.00000 0.82870 0.90660 -2.54300
C 	C 	-0.00000 0.73340 0.81390 0.79900
H 	H 	-0.00000 0.72140 0.85800 -0.26100
O 	O 	0.00000 0.80290 0.92560 1.57300
O 	O 	-0.00000 0.32870 0.40660 -0.19500
C 	C 	0.00000 0.23340 0.31390 -0.06800
H 	H 	-0.00000 0.22140 0.35800 -0.01800
O 	O 	-0.00000 0.30290 0.42560 -0.59100
O 	O 	0.50000 0.82870 0.40660 -1.92800
C 	C 	0.50000 0.73340 0.31390 0.51000
H 	H 	0.50000 0.72140 0.35800 -0.18400
O 	O 	0.50000 0.80290 0.42560 0.94000
O 	O 	0.50000 0.32870 0.90660 -2.60000
C 	C 	0.50000 0.23340 0.81390 0.52300
H 	H 	0.50000 0.22140 0.85800 -0.09800
O 	O 	0.50000 0.30290 0.92560 1.91600
O 	O 	-0.00000 0.82870 0.09340 -0.98600
C 	C 	-0.00000 0.73340 0.18610 0.32500
H 	H 	-0.00000 0.72140 0.14200 -0.18100
O 	O 	0.00000 0.80290 0.07440 -0.01400
O 	O 	-0.00000 0.32870 0.59340 -0.02700
C 	C 	0.00000 0.23340 0.68610 -0.39400
H 	H 	-0.00000 0.22140 0.64200 0.09900
O 	O 	0.00000 0.30290 0.57440 -0.72400
O 	O 	0.50000 0.82870 0.59340 -1.74600
C 	C 	0.50000 0.73340 0.68610 0.17600
H 	H 	0.50000 0.72140 0.64200 -0.06300
O 	O 	0.50000 0.80290 0.57440 0.79600
O 	O 	0.50000 0.32870 0.09340 -0.99600
C 	C 	0.50000 0.23340 0.18610 0.03100
H 	H 	0.50000 0.22140 0.14200 -0.01300
O 	O 	0.50000 0.30290 0.07440 0.28500
O 	O 	-0.00000 0.17130 0.90660 -1.65500
C 	C 	-0.00000 0.26660 0.81390 0.33900
H 	H 	0.00000 0.27860 0.85800 -0.07600
O 	O 	0.00000 0.19710 0.92560 0.94400
O 	O 	-0.00000 0.67130 0.40660 -0.09300
C 	C 	-0.00000 0.76660 0.31390 -0.37100
H 	H 	-0.00000 0.77860 0.35800 0.15000
O 	O 	-0.00000 0.69710 0.42560 -0.63500
O 	O 	0.50000 0.17130 0.40660 -1.00400
C 	C 	0.50000 0.26660 0.31390 0.03200
H 	H 	0.50000 0.27860 0.35800 0.00800
O 	O 	0.50000 0.19710 0.42560 0.28200
O 	O 	0.50000 0.67130 0.90660 -2.47800
C 	C 	0.50000 0.76660 0.81390 0.21100
H 	H 	0.50000 0.77860 0.85800 0.07300
O 	O 	0.50000 0.69710 0.92560 1.85300
O 	O 	0.09340 -0.00000 0.17130 -0.07700
C 	C 	0.18610 0.00000 0.26660 -0.14300
H 	H 	0.14200 0.00000 0.27860 0.00700
O 	O 	0.07440 -0.00000 0.19710 -0.66300
O 	O 	0.09340 0.50000 0.67130 -0.88300
C 	C 	0.18610 0.50000 0.76660 -0.28000
H 	H 	0.14200 0.50000 0.77860 0.15800
O 	O 	0.07440 0.50000 0.69710 0.23100
O 	O 	0.59340 0.00000 0.67130 0.07000
C 	C 	0.68610 -0.00000 0.76660 -0.69100
H 	H 	0.64200 0.00000 0.77860 0.26500
O 	O 	0.57440 -0.00000 0.69710 -0.76400
O 	O 	0.59340 0.50000 0.17130 -0.82700
C 	C 	0.68610 0.50000 0.26660 -0.30100
H 	H 	0.64200 0.50000 0.27860 0.12800
O 	O 	0.57440 0.50000 0.19710 0.14200
O 	O 	0.90660 0.00000 0.82870 -2.54300
C 	C 	0.81390 0.00000 0.73340 0.79900
H 	H 	0.85800 0.00000 0.72140 -0.26100
O 	O 	0.92560 0.00000 0.80290 1.57300
O 	O 	0.90660 0.50000 0.32870 -2.60000
C 	C 	0.81390 0.50000 0.23340 0.52300
H 	H 	0.85800 0.50000 0.22140 -0.09800
O 	O 	0.92560 0.50000 0.30290 1.91600
O 	O 	0.40660 -0.00000 0.32870 -0.19500
C 	C 	0.31390 0.00000 0.23340 -0.06800
H 	H 	0.35800 0.00000 0.22140 -0.01800
O 	O 	0.42560 0.00000 0.30290 -0.59100
O 	O 	0.40660 0.50000 0.82870 -1.92800
C 	C 	0.31390 0.50000 0.73340 0.51000
H 	H 	0.35800 0.50000 0.72140 -0.18400
O 	O 	0.42560 0.50000 0.80290 0.94000
O 	O 	0.09340 0.00000 0.82870 -0.98600
C 	C 	0.18610 0.00000 0.73340 0.32500
H 	H 	0.14200 0.00000 0.72140 -0.18100
O 	O 	0.07440 0.00000 0.80290 -0.01400
O 	O 	0.09340 0.50000 0.32870 -0.99600
C 	C 	0.18610 0.50000 0.23340 0.03100
H 	H 	0.14200 0.50000 0.22140 -0.01300
O 	O 	0.07440 0.50000 0.30290 0.28500
O 	O 	0.59340 -0.00000 0.32870 -0.02700
C 	C 	0.68610 0.00000 0.23340 -0.39400
H 	H 	0.64200 0.00000 0.22140 0.09900
O 	O 	0.57440 0.00000 0.30290 -0.72400
O 	O 	0.59340 0.50000 0.82870 -1.74600
C 	C 	0.68610 0.50000 0.73340 0.17600
H 	H 	0.64200 0.50000 0.72140 -0.06300
O 	O 	0.57440 0.50000 0.80290 0.79600
O 	O 	0.90660 -0.00000 0.17130 -1.65500
C 	C 	0.81390 0.00000 0.26660 0.33900
H 	H 	0.85800 0.00000 0.27860 -0.07600
O 	O 	0.92560 -0.00000 0.19710 0.94400
O 	O 	0.90660 0.50000 0.67130 -2.47800
C 	C 	0.81390 0.50000 0.76660 0.21100
H 	H 	0.85800 0.50000 0.77860 0.07300
O 	O 	0.92560 0.50000 0.69710 1.85300
O 	O 	0.40660 0.00000 0.67130 -0.09300
C 	C 	0.31390 -0.00000 0.76660 -0.37100
H 	H 	0.35800 0.00000 0.77860 0.15000
O 	O 	0.42560 -0.00000 0.69710 -0.63500
O 	O 	0.40660 0.50000 0.17130 -1.00400
C 	C 	0.31390 0.50000 0.26660 0.03200
H 	H 	0.35800 0.50000 0.27860 0.00800
O 	O 	0.42560 0.50000 0.19710 0.28200
O 	O 	0.09340 0.17130 -0.00000 -0.07700
C 	C 	0.18610 0.26660 -0.00000 -0.14300
H 	H 	0.14200 0.27860 -0.00000 0.00700
O 	O 	0.07440 0.19710 -0.00000 -0.66300
O 	O 	0.09340 0.67130 0.50000 -0.88300
C 	C 	0.18610 0.76660 0.50000 -0.28000
H 	H 	0.14200 0.77860 0.50000 0.15800
O 	O 	0.07440 0.69710 0.50000 0.23100
O 	O 	0.59340 0.17130 0.50000 -0.82700
C 	C 	0.68610 0.26660 0.50000 -0.30100
H 	H 	0.64200 0.27860 0.50000 0.12800
O 	O 	0.57440 0.19710 0.50000 0.14200
O 	O 	0.59340 0.67130 -0.00000 0.07000
C 	C 	0.68610 0.76660 -0.00000 -0.69100
H 	H 	0.64200 0.77860 -0.00000 0.26500
O 	O 	0.57440 0.69710 -0.00000 -0.76400
O 	O 	0.90660 0.82870 -0.00000 -2.54300
C 	C 	0.81390 0.73340 -0.00000 0.79900
H 	H 	0.85800 0.72140 -0.00000 -0.26100
O 	O 	0.92560 0.80290 -0.00000 1.57300
O 	O 	0.90660 0.32870 0.50000 -2.60000
C 	C 	0.81390 0.23340 0.50000 0.52300
H 	H 	0.85800 0.22140 0.50000 -0.09800
O 	O 	0.92560 0.30290 0.50000 1.91600
O 	O 	0.40660 0.82870 0.50000 -1.92800
C 	C 	0.31390 0.73340 0.50000 0.51000
H 	H 	0.35800 0.72140 0.50000 -0.18400
O 	O 	0.42560 0.80290 0.50000 0.94000
O 	O 	0.40660 0.32870 -0.00000 -0.19500
C 	C 	0.31390 0.23340 -0.00000 -0.06800
H 	H 	0.35800 0.22140 -0.00000 -0.01800
O 	O 	0.42560 0.30290 -0.00000 -0.59100
O 	O 	0.09340 0.82870 -0.00000 -0.98600
C 	C 	0.18610 0.73340 -0.00000 0.32500
H 	H 	0.14200 0.72140 -0.00000 -0.18100
O 	O 	0.07440 0.80290 -0.00000 -0.01400
O 	O 	0.09340 0.32870 0.50000 -0.99600
C 	C 	0.18610 0.23340 0.50000 0.03100
H 	H 	0.14200 0.22140 0.50000 -0.01300
O 	O 	0.07440 0.30290 0.50000 0.28500
O 	O 	0.59340 0.82870 0.50000 -1.74600
C 	C 	0.68610 0.73340 0.50000 0.17600
H 	H 	0.64200 0.72140 0.50000 -0.06300
O 	O 	0.57440 0.80290 0.50000 0.79600
O 	O 	0.59340 0.32870 -0.00000 -0.02700
C 	C 	0.68610 0.23340 -0.00000 -0.39400
H 	H 	0.64200 0.22140 -0.00000 0.09900
O 	O 	0.57440 0.30290 -0.00000 -0.72400
O 	O 	0.90660 0.17130 -0.00000 -1.65500
C 	C 	0.81390 0.26660 -0.00000 0.33900
H 	H 	0.85800 0.27860 -0.00000 -0.07600
O 	O 	0.92560 0.19710 -0.00000 0.94400
O 	O 	0.90660 0.67130 0.50000 -2.47800
C 	C 	0.81390 0.76660 0.50000 0.21100
H 	H 	0.85800 0.77860 0.50000 0.07300
O 	O 	0.92560 0.69710 0.50000 1.85300
O 	O 	0.40660 0.17130 0.50000 -1.00400
C 	C 	0.31390 0.26660 0.50000 0.03200
H 	H 	0.35800 0.27860 0.50000 0.00800
O 	O 	0.42560 0.19710 0.50000 0.28200
O 	O 	0.40660 0.67130 -0.00000 -0.09300
C 	C 	0.31390 0.76660 -0.00000 -0.37100
H 	H 	0.35800 0.77860 -0.00000 0.15000
O 	O 	0.42560 0.69710 -0.00000 -0.63500
O 	O 	0.17130 0.00000 0.90660 -1.65500
C 	C 	0.26660 -0.00000 0.81390 0.33900
H 	H 	0.27860 -0.00000 0.85800 -0.07600
O 	O 	0.19710 0.00000 0.92560 0.94400
O 	O 	0.17130 0.50000 0.40660 -1.00400
C 	C 	0.26660 0.50000 0.31390 0.03200
H 	H 	0.27860 0.50000 0.35800 0.00800
O 	O 	0.19710 0.50000 0.42560 0.28200
O 	O 	0.67130 -0.00000 0.40660 -0.09300
C 	C 	0.76660 -0.00000 0.31390 -0.37100
H 	H 	0.77860 0.00000 0.35800 0.15000
O 	O 	0.69710 -0.00000 0.42560 -0.63500
O 	O 	0.67130 0.50000 0.90660 -2.47800
C 	C 	0.76660 0.50000 0.81390 0.21100
H 	H 	0.77860 0.50000 0.85800 0.07300
O 	O 	0.69710 0.50000 0.92560 1.85300
O 	O 	0.82870 -0.00000 0.09340 -0.98600
C 	C 	0.73340 0.00000 0.18610 0.32500
H 	H 	0.72140 0.00000 0.14200 -0.18100
O 	O 	0.80290 0.00000 0.07440 -0.01400
O 	O 	0.82870 0.50000 0.59340 -1.74600
C 	C 	0.73340 0.50000 0.68610 0.17600
H 	H 	0.72140 0.50000 0.64200 -0.06300
O 	O 	0.80290 0.50000 0.57440 0.79600
O 	O 	0.32870 0.00000 0.59340 -0.02700
C 	C 	0.23340 0.00000 0.68610 -0.39400
H 	H 	0.22140 -0.00000 0.64200 0.09900
O 	O 	0.30290 -0.00000 0.57440 -0.72400
O 	O 	0.32870 0.50000 0.09340 -0.99600
C 	C 	0.23340 0.50000 0.18610 0.03100
H 	H 	0.22140 0.50000 0.14200 -0.01300
O 	O 	0.30290 0.50000 0.07440 0.28500
O 	O 	0.82870 0.00000 0.90660 -2.54300
C 	C 	0.73340 -0.00000 0.81390 0.79900
H 	H 	0.72140 -0.00000 0.85800 -0.26100
O 	O 	0.80290 0.00000 0.92560 1.57300
O 	O 	0.82870 0.50000 0.40660 -1.92800
C 	C 	0.73340 0.50000 0.31390 0.51000
H 	H 	0.72140 0.50000 0.35800 -0.18400
O 	O 	0.80290 0.50000 0.42560 0.94000
O 	O 	0.32870 -0.00000 0.40660 -0.19500
C 	C 	0.23340 -0.00000 0.31390 -0.06800
H 	H 	0.22140 0.00000 0.35800 -0.01800
O 	O 	0.30290 -0.00000 0.42560 -0.59100
O 	O 	0.32870 0.50000 0.90660 -2.60000
C 	C 	0.23340 0.50000 0.81390 0.52300
H 	H 	0.22140 0.50000 0.85800 -0.09800
O 	O 	0.30290 0.50000 0.92560 1.91600
O 	O 	0.17130 -0.00000 0.09340 -0.07700
C 	C 	0.26660 0.00000 0.18610 -0.14300
H 	H 	0.27860 0.00000 0.14200 0.00700
O 	O 	0.19710 0.00000 0.07440 -0.66300
O 	O 	0.17130 0.50000 0.59340 -0.82700
C 	C 	0.26660 0.50000 0.68610 -0.30100
H 	H 	0.27860 0.50000 0.64200 0.12800
O 	O 	0.19710 0.50000 0.57440 0.14200
O 	O 	0.67130 0.00000 0.59340 0.07000
C 	C 	0.76660 0.00000 0.68610 -0.69100
H 	H 	0.77860 -0.00000 0.64200 0.26500
O 	O 	0.69710 -0.00000 0.57440 -0.76400
O 	O 	0.67130 0.50000 0.09340 -0.88300
C 	C 	0.76660 0.50000 0.18610 -0.28000
H 	H 	0.77860 0.50000 0.14200 0.15800
O 	O 	0.69710 0.50000 0.07440 0.23100
O 	O 	-0.00000 0.09340 0.82870 -0.98600
C 	C 	-0.00000 0.18610 0.73340 0.32500
H 	H 	-0.00000 0.14200 0.72140 -0.18100
O 	O 	0.00000 0.07440 0.80290 -0.01400
O 	O 	-0.00000 0.59340 0.32870 -0.02700
C 	C 	0.00000 0.68610 0.23340 -0.39400
H 	H 	-0.00000 0.64200 0.22140 0.09900
O 	O 	0.00000 0.57440 0.30290 -0.72400
O 	O 	0.50000 0.09340 0.32870 -0.99600
C 	C 	0.50000 0.18610 0.23340 0.03100
H 	H 	0.50000 0.14200 0.22140 -0.01300
O 	O 	0.50000 0.07440 0.30290 0.28500
O 	O 	0.50000 0.59340 0.82870 -1.74600
C 	C 	0.50000 0.68610 0.73340 0.17600
H 	H 	0.50000 0.64200 0.72140 -0.06300
O 	O 	0.50000 0.57440 0.80290 0.79600
O 	O 	-0.00000 0.90660 0.17130 -1.65500
C 	C 	-0.00000 0.81390 0.26660 0.33900
H 	H 	-0.00000 0.85800 0.27860 -0.07600
O 	O 	-0.00000 0.92560 0.19710 0.94400
O 	O 	-0.00000 0.40660 0.67130 -0.09300
C 	C 	-0.00000 0.31390 0.76660 -0.37100
H 	H 	-0.00000 0.35800 0.77860 0.15000
O 	O 	-0.00000 0.42560 0.69710 -0.63500
O 	O 	0.50000 0.90660 0.67130 -2.47800
C 	C 	0.50000 0.81390 0.76660 0.21100
H 	H 	0.50000 0.85800 0.77860 0.07300
O 	O 	0.50000 0.92560 0.69710 1.85300
O 	O 	0.50000 0.40660 0.17130 -1.00400
C 	C 	0.50000 0.31390 0.26660 0.03200
H 	H 	0.50000 0.35800 0.27860 0.00800
O 	O 	0.50000 0.42560 0.19710 0.28200
O 	O 	-0.00000 0.09340 0.17130 -0.07700
C 	C 	-0.00000 0.18610 0.26660 -0.14300
H 	H 	0.00000 0.14200 0.27860 0.00700
O 	O 	0.00000 0.07440 0.19710 -0.66300
O 	O 	0.00000 0.59340 0.67130 0.07000
C 	C 	0.00000 0.68610 0.76660 -0.69100
H 	H 	-0.00000 0.64200 0.77860 0.26500
O 	O 	0.00000 0.57440 0.69710 -0.76400
O 	O 	0.50000 0.09340 0.67130 -0.88300
C 	C 	0.50000 0.18610 0.76660 -0.28000
H 	H 	0.50000 0.14200 0.77860 0.15800
O 	O 	0.50000 0.07440 0.69710 0.23100
O 	O 	0.50000 0.59340 0.17130 -0.82700
C 	C 	0.50000 0.68610 0.26660 -0.30100
H 	H 	0.50000 0.64200 0.27860 0.12800
O 	O 	0.50000 0.57440 0.19710 0.14200
O 	O 	0.00000 0.90660 0.82870 -2.54300
C 	C 	-0.00000 0.81390 0.73340 0.79900
H 	H 	-0.00000 0.85800 0.72140 -0.26100
O 	O 	0.00000 0.92560 0.80290 1.57300
O 	O 	-0.00000 0.40660 0.32870 -0.19500
C 	C 	0.00000 0.31390 0.23340 -0.06800
H 	H 	-0.00000 0.35800 0.22140 -0.01800
O 	O 	0.00000 0.42560 0.30290 -0.59100
O 	O 	0.50000 0.90660 0.32870 -2.60000
C 	C 	0.50000 0.81390 0.23340 0.52300
H 	H 	0.50000 0.85800 0.22140 -0.09800
O 	O 	0.50000 0.92560 0.30290 1.91600
O 	O 	0.50000 0.40660 0.82870 -1.92800
C 	C 	0.50000 0.31390 0.73340 0.51000
H 	H 	0.50000 0.35800 0.72140 -0.18400
O 	O 	0.50000 0.42560 0.80290 0.94000
C 	C 	0.15170 0.15170 -0.00000 -0.16200
C 	C 	0.20260 0.20260 -0.00000 0.05000
C 	C 	0.15170 0.65170 0.50000 0.57000
C 	C 	0.20260 0.70260 0.50000 0.06900
C 	C 	0.65170 0.15170 0.50000 0.57000
C 	C 	0.70260 0.20260 0.50000 0.06900
C 	C 	0.65170 0.65170 -0.00000 -0.33500
C 	C 	0.70260 0.70260 -0.00000 0.54700
C 	C 	0.84830 0.84830 -0.00000 2.11800
C 	C 	0.79740 0.79740 -0.00000 -1.09600
C 	C 	0.84830 0.34830 0.50000 1.90900
C 	C 	0.79740 0.29740 0.50000 -0.81500
C 	C 	0.34830 0.84830 0.50000 1.90900
C 	C 	0.29740 0.79740 0.50000 -0.81500
C 	C 	0.34830 0.34830 -0.00000 -0.01700
C 	C 	0.29740 0.29740 -0.00000 -0.02100
C 	C 	0.84830 0.15170 -0.00000 0.98700
C 	C 	0.79740 0.20260 -0.00000 -0.52800
C 	C 	0.84830 0.65170 0.50000 1.73400
C 	C 	0.79740 0.70260 0.50000 -0.51800
C 	C 	0.34830 0.15170 0.50000 0.74000
C 	C 	0.29740 0.20260 0.50000 -0.22600
C 	C 	0.34830 0.65170 -0.00000 -0.17900
C 	C 	0.29740 0.70260 -0.00000 0.26600
C 	C 	0.15170 0.84830 -0.00000 0.98700
C 	C 	0.20260 0.79740 -0.00000 -0.52800
C 	C 	0.15170 0.34830 0.50000 0.74000
C 	C 	0.20260 0.29740 0.50000 -0.22600
C 	C 	0.65170 0.84830 0.50000 1.73400
C 	C 	0.70260 0.79740 0.50000 -0.51800
C 	C 	0.65170 0.34830 -0.00000 -0.17900
C 	C 	0.70260 0.29740 -0.00000 0.26600
C 	C 	0.00000 0.15170 0.15170 -0.16200
C 	C 	0.00000 0.20260 0.20260 0.05000
C 	C 	-0.00000 0.65170 0.65170 -0.33500
C 	C 	-0.00000 0.70260 0.70260 0.54700
C 	C 	0.50000 0.15170 0.65170 0.57000
C 	C 	0.50000 0.20260 0.70260 0.06900
C 	C 	0.50000 0.65170 0.15170 0.57000
C 	C 	0.50000 0.70260 0.20260 0.06900
C 	C 	0.00000 0.84830 0.84830 2.11800
C 	C 	-0.00000 0.79740 0.79740 -1.09600
C 	C 	0.00000 0.34830 0.34830 -0.01700
C 	C 	0.00000 0.29740 0.29740 -0.02100
C 	C 	0.50000 0.84830 0.34830 1.90900
C 	C 	0.50000 0.79740 0.29740 -0.81500
C 	C 	0.50000 0.34830 0.84830 1.90900
C 	C 	0.50000 0.29740 0.79740 -0.81500
C 	C 	0.00000 0.84830 0.15170 0.98700
C 	C 	-0.00000 0.79740 0.20260 -0.52800
C 	C 	-0.00000 0.34830 0.65170 -0.17900
C 	C 	-0.00000 0.29740 0.70260 0.26600
C 	C 	0.50000 0.84830 0.65170 1.73400
C 	C 	0.50000 0.79740 0.70260 -0.51800
C 	C 	0.50000 0.34830 0.15170 0.74000
C 	C 	0.50000 0.29740 0.20260 -0.22600
C 	C 	0.00000 0.15170 0.84830 0.98700
C 	C 	-0.00000 0.20260 0.79740 -0.52800
C 	C 	-0.00000 0.65170 0.34830 -0.17900
C 	C 	-0.00000 0.70260 0.29740 0.26600
C 	C 	0.50000 0.15170 0.34830 0.74000
C 	C 	0.50000 0.20260 0.29740 -0.22600
C 	C 	0.50000 0.65170 0.84830 1.73400
C 	C 	0.50000 0.70260 0.79740 -0.51800
C 	C 	0.15170 0.00000 0.15170 -0.16200
C 	C 	0.20260 -0.00000 0.20260 0.05000
C 	C 	0.15170 0.50000 0.65170 0.57000
C 	C 	0.20260 0.50000 0.70260 0.06900
C 	C 	0.65170 -0.00000 0.65170 -0.33500
C 	C 	0.70260 0.00000 0.70260 0.54700
C 	C 	0.65170 0.50000 0.15170 0.57000
C 	C 	0.70260 0.50000 0.20260 0.06900
C 	C 	0.84830 0.00000 0.84830 2.11800
C 	C 	0.79740 -0.00000 0.79740 -1.09600
C 	C 	0.84830 0.50000 0.34830 1.90900
C 	C 	0.79740 0.50000 0.29740 -0.81500
C 	C 	0.34830 0.00000 0.34830 -0.01700
C 	C 	0.29740 0.00000 0.29740 -0.02100
C 	C 	0.34830 0.50000 0.84830 1.90900
C 	C 	0.29740 0.50000 0.79740 -0.81500
C 	C 	0.15170 0.00000 0.84830 0.98700
C 	C 	0.20260 -0.00000 0.79740 -0.52800
C 	C 	0.15170 0.50000 0.34830 0.74000
C 	C 	0.20260 0.50000 0.29740 -0.22600
C 	C 	0.65170 0.00000 0.34830 -0.17900
C 	C 	0.70260 0.00000 0.29740 0.26600
C 	C 	0.65170 0.50000 0.84830 1.73400
C 	C 	0.70260 0.50000 0.79740 -0.51800
C 	C 	0.84830 0.00000 0.15170 0.98700
C 	C 	0.79740 -0.00000 0.20260 -0.52800
C 	C 	0.84830 0.50000 0.65170 1.73400
C 	C 	0.79740 0.50000 0.70260 -0.51800
C 	C 	0.34830 -0.00000 0.65170 -0.17900
C 	C 	0.29740 0.00000 0.70260 0.26600
C 	C 	0.34830 0.50000 0.15170 0.74000
C 	C 	0.29740 0.50000 0.20260 -0.22600
O 	O 	0.05070 0.05070 0.05070 9.59200
O 	O 	0.06750 0.06750 0.06750 -12.60200
H 	H 	0.09480 0.09480 0.09480 3.61600
O 	O 	0.05070 0.55070 0.55070 0.93600
O 	O 	0.06750 0.56750 0.56750 -2.16000
H 	H 	0.09480 0.59480 0.59480 0.59200
O 	O 	0.55070 0.05070 0.55070 0.93600
O 	O 	0.56750 0.06750 0.56750 -2.16000
H 	H 	0.59480 0.09480 0.59480 0.59200
O 	O 	0.55070 0.55070 0.05070 0.93600
O 	O 	0.56750 0.56750 0.06750 -2.16000
H 	H 	0.59480 0.59480 0.09480 0.59200
O 	O 	0.94930 0.94930 0.05070 -7.36700
O 	O 	0.93250 0.93250 0.06750 8.09100
H 	H 	0.90520 0.90520 0.09480 -2.15100
O 	O 	0.94930 0.44930 0.55070 -7.71000
O 	O 	0.93250 0.43250 0.56750 8.39800
H 	H 	0.90520 0.40520 0.59480 -2.35400
O 	O 	0.44930 0.94930 0.55070 -7.71000
O 	O 	0.43250 0.93250 0.56750 8.39800
H 	H 	0.40520 0.90520 0.59480 -2.35400
O 	O 	0.44930 0.44930 0.05070 1.15600
O 	O 	0.43250 0.43250 0.06750 -2.40600
H 	H 	0.40520 0.40520 0.09480 0.65700
O 	O 	0.94930 0.05070 0.94930 -7.36700
O 	O 	0.93250 0.06750 0.93250 8.09100
H 	H 	0.90520 0.09480 0.90520 -2.15100
O 	O 	0.94930 0.55070 0.44930 -7.71000
O 	O 	0.93250 0.56750 0.43250 8.39800
H 	H 	0.90520 0.59480 0.40520 -2.35400
O 	O 	0.44930 0.05070 0.44930 1.15600
O 	O 	0.43250 0.06750 0.43250 -2.40600
H 	H 	0.40520 0.09480 0.40520 0.65700
O 	O 	0.44930 0.55070 0.94930 -7.71000
O 	O 	0.43250 0.56750 0.93250 8.39800
H 	H 	0.40520 0.59480 0.90520 -2.35400
O 	O 	0.05070 0.94930 0.94930 -7.36700
O 	O 	0.06750 0.93250 0.93250 8.09100
H 	H 	0.09480 0.90520 0.90520 -2.15100
O 	O 	0.05070 0.44930 0.44930 1.15600
O 	O 	0.06750 0.43250 0.43250 -2.40600
H 	H 	0.09480 0.40520 0.40520 0.65700
O 	O 	0.55070 0.94930 0.44930 -7.71000
O 	O 	0.56750 0.93250 0.43250 8.39800
H 	H 	0.59480 0.90520 0.40520 -2.35400
O 	O 	0.55070 0.44930 0.94930 -7.71000
O 	O 	0.56750 0.43250 0.93250 8.39800
H 	H 	0.59480 0.40520 0.90520 -2.35400
O 	O 	0.05070 0.05070 0.94930 1.09400
O 	O 	0.06750 0.06750 0.93250 -2.23200
H 	H 	0.09480 0.09480 0.90520 0.72700
O 	O 	0.05070 0.55070 0.44930 1.04600
O 	O 	0.06750 0.56750 0.43250 -2.28300
H 	H 	0.09480 0.59480 0.40520 0.62500
O 	O 	0.55070 0.05070 0.44930 1.04600
O 	O 	0.56750 0.06750 0.43250 -2.28300
H 	H 	0.59480 0.09480 0.40520 0.62500
O 	O 	0.55070 0.55070 0.94930 -7.81800
O 	O 	0.56750 0.56750 0.93250 8.51800
H 	H 	0.59480 0.59480 0.90520 -2.38700
O 	O 	0.94930 0.94930 0.94930 -15.79300
O 	O 	0.93250 0.93250 0.93250 18.36600
H 	H 	0.90520 0.90520 0.90520 -5.01700
O 	O 	0.94930 0.44930 0.44930 -7.60100
O 	O 	0.93250 0.43250 0.43250 8.27700
H 	H 	0.90520 0.40520 0.40520 -2.32200
O 	O 	0.44930 0.94930 0.44930 -7.60100
O 	O 	0.43250 0.93250 0.43250 8.27700
H 	H 	0.40520 0.90520 0.40520 -2.32200
O 	O 	0.44930 0.44930 0.94930 -7.60100
O 	O 	0.43250 0.43250 0.93250 8.27700
H 	H 	0.40520 0.40520 0.90520 -2.32200
O 	O 	0.05070 0.94930 0.05070 1.09400
O 	O 	0.06750 0.93250 0.06750 -2.23200
H 	H 	0.09480 0.90520 0.09480 0.72700
O 	O 	0.05070 0.44930 0.55070 1.04600
O 	O 	0.06750 0.43250 0.56750 -2.28300
H 	H 	0.09480 0.40520 0.59480 0.62500
O 	O 	0.55070 0.94930 0.55070 -7.81800
O 	O 	0.56750 0.93250 0.56750 8.51800
H 	H 	0.59480 0.90520 0.59480 -2.38700
O 	O 	0.55070 0.44930 0.05070 1.04600
O 	O 	0.56750 0.43250 0.06750 -2.28300
H 	H 	0.59480 0.40520 0.09480 0.62500
O 	O 	0.94930 0.05070 0.05070 1.09400
O 	O 	0.93250 0.06750 0.06750 -2.23200
H 	H 	0.90520 0.09480 0.09480 0.72700
O 	O 	0.94930 0.55070 0.55070 -7.81800
O 	O 	0.93250 0.56750 0.56750 8.51800
H 	H 	0.90520 0.59480 0.59480 -2.38700
O 	O 	0.44930 0.05070 0.55070 1.04600
O 	O 	0.43250 0.06750 0.56750 -2.28300
H 	H 	0.40520 0.09480 0.59480 0.62500
O 	O 	0.44930 0.55070 0.05070 1.04600
O 	O 	0.43250 0.56750 0.06750 -2.28300
H 	H 	0.40520 0.59480 0.09480 0.62500
