data_crystal

_cell_length_a 28.97300
_cell_length_b 28.97300
_cell_length_c 28.97300
_cell_angle_alpha 90.00000
_cell_angle_beta  90.00000
_cell_angle_gamma 90.00000

_symmetry_space_group_name_	'P 1'
_symmetry_space_group_name_H-M	'P 1'

loop_
_symmetry_equiv_pos_as_xyz
  x,y,z

loop_
_atom_site_label
_atom_site_type_symbol
_atom_site_fract_x
_atom_site_fract_y
_atom_site_fract_z
_atom_site_charge
O 	O 	0.54790 0.71280 0.04719 -0.52400
B 	B 	0.62740 0.75830 0.18660 0.49600
H 	H 	0.61360 0.76450 0.22180 -0.20400
B 	B 	0.64600 0.76650 0.09280 0.02900
H 	H 	0.65830 0.77870 0.05870 -0.06600
B 	B 	0.60850 0.78930 0.12940 0.56800
H 	H 	0.58990 0.82270 0.12740 -0.21100
B 	B 	0.66530 0.79110 0.14750 0.05000
H 	H 	0.68180 0.82540 0.15190 -0.07200
O 	O 	0.45210 0.28720 0.04719 -0.52300
B 	B 	0.37260 0.24170 0.18660 0.49600
H 	H 	0.38640 0.23550 0.22180 -0.20400
B 	B 	0.35400 0.23350 0.09280 0.03000
H 	H 	0.34170 0.22130 0.05870 -0.06900
B 	B 	0.39150 0.21070 0.12940 0.56800
H 	H 	0.41010 0.17730 0.12740 -0.21500
B 	B 	0.33470 0.20890 0.14750 0.04800
H 	H 	0.31820 0.17460 0.15190 -0.07700
O 	O 	0.45210 0.71280 0.95281 -0.50500
B 	B 	0.37260 0.75830 0.81340 0.50300
H 	H 	0.38640 0.76450 0.77820 -0.20400
B 	B 	0.35400 0.76650 0.90720 0.02600
H 	H 	0.34170 0.77870 0.94130 -0.05400
B 	B 	0.39150 0.78930 0.87060 0.57100
H 	H 	0.41010 0.82270 0.87260 -0.20800
B 	B 	0.33470 0.79110 0.85250 0.05100
H 	H 	0.31820 0.82540 0.84810 -0.06900
O 	O 	0.54790 0.28720 0.95281 -0.50500
B 	B 	0.62740 0.24170 0.81340 0.50100
H 	H 	0.61360 0.23550 0.77820 -0.20500
B 	B 	0.64600 0.23350 0.90720 0.02600
H 	H 	0.65830 0.22130 0.94130 -0.05600
B 	B 	0.60850 0.21070 0.87060 0.57000
H 	H 	0.58990 0.17730 0.87260 -0.21200
B 	B 	0.66530 0.20890 0.85250 0.05000
H 	H 	0.68180 0.17460 0.84810 -0.07200
O 	O 	0.04719 0.54790 0.71280 -0.52300
B 	B 	0.18660 0.62740 0.75830 0.49700
H 	H 	0.22180 0.61360 0.76450 -0.20300
B 	B 	0.09280 0.64600 0.76650 0.03000
H 	H 	0.05870 0.65830 0.77870 -0.06500
B 	B 	0.12940 0.60850 0.78930 0.56900
H 	H 	0.12740 0.58990 0.82270 -0.21100
B 	B 	0.14750 0.66530 0.79110 0.05000
H 	H 	0.15190 0.68180 0.82540 -0.07200
O 	O 	0.04719 0.45210 0.28720 -0.52300
B 	B 	0.18660 0.37260 0.24170 0.49600
H 	H 	0.22180 0.38640 0.23550 -0.20400
B 	B 	0.09280 0.35400 0.23350 0.03000
H 	H 	0.05870 0.34170 0.22130 -0.06900
B 	B 	0.12940 0.39150 0.21070 0.56800
H 	H 	0.12740 0.41010 0.17730 -0.21500
B 	B 	0.14750 0.33470 0.20890 0.04800
H 	H 	0.15190 0.31820 0.17460 -0.07700
O 	O 	0.95281 0.45210 0.71280 -0.50500
B 	B 	0.81340 0.37260 0.75830 0.50300
H 	H 	0.77820 0.38640 0.76450 -0.20400
B 	B 	0.90720 0.35400 0.76650 0.02600
H 	H 	0.94130 0.34170 0.77870 -0.05400
B 	B 	0.87060 0.39150 0.78930 0.57100
H 	H 	0.87260 0.41010 0.82270 -0.20800
B 	B 	0.85250 0.33470 0.79110 0.05100
H 	H 	0.84810 0.31820 0.82540 -0.06900
O 	O 	0.95281 0.54790 0.28720 -0.50500
B 	B 	0.81340 0.62740 0.24170 0.50100
H 	H 	0.77820 0.61360 0.23550 -0.20500
B 	B 	0.90720 0.64600 0.23350 0.02600
H 	H 	0.94130 0.65830 0.22130 -0.05600
B 	B 	0.87060 0.60850 0.21070 0.57000
H 	H 	0.87260 0.58990 0.17730 -0.21200
B 	B 	0.85250 0.66530 0.20890 0.05000
H 	H 	0.84810 0.68180 0.17460 -0.07200
O 	O 	0.71280 0.04719 0.54790 -0.52300
B 	B 	0.75830 0.18660 0.62740 0.49700
H 	H 	0.76450 0.22180 0.61360 -0.20300
B 	B 	0.76650 0.09280 0.64600 0.03000
H 	H 	0.77870 0.05870 0.65830 -0.06500
B 	B 	0.78930 0.12940 0.60850 0.56900
H 	H 	0.82270 0.12740 0.58990 -0.21100
B 	B 	0.79110 0.14750 0.66530 0.05000
H 	H 	0.82540 0.15190 0.68180 -0.07200
O 	O 	0.28720 0.04719 0.45210 -0.52300
B 	B 	0.24170 0.18660 0.37260 0.49600
H 	H 	0.23550 0.22180 0.38640 -0.20400
B 	B 	0.23350 0.09280 0.35400 0.03000
H 	H 	0.22130 0.05870 0.34170 -0.06900
B 	B 	0.21070 0.12940 0.39150 0.56800
H 	H 	0.17730 0.12740 0.41010 -0.21500
B 	B 	0.20890 0.14750 0.33470 0.04800
H 	H 	0.17460 0.15190 0.31820 -0.07700
O 	O 	0.71280 0.95281 0.45210 -0.50500
B 	B 	0.75830 0.81340 0.37260 0.50300
H 	H 	0.76450 0.77820 0.38640 -0.20400
B 	B 	0.76650 0.90720 0.35400 0.02600
H 	H 	0.77870 0.94130 0.34170 -0.05400
B 	B 	0.78930 0.87060 0.39150 0.57100
H 	H 	0.82270 0.87260 0.41010 -0.20800
B 	B 	0.79110 0.85250 0.33470 0.05100
H 	H 	0.82540 0.84810 0.31820 -0.06900
O 	O 	0.28720 0.95281 0.54790 -0.50500
B 	B 	0.24170 0.81340 0.62740 0.50100
H 	H 	0.23550 0.77820 0.61360 -0.20500
B 	B 	0.23350 0.90720 0.64600 0.02600
H 	H 	0.22130 0.94130 0.65830 -0.05600
B 	B 	0.21070 0.87060 0.60850 0.57000
H 	H 	0.17730 0.87260 0.58990 -0.21200
B 	B 	0.20890 0.85250 0.66530 0.05000
H 	H 	0.17460 0.84810 0.68180 -0.07200
O 	O 	0.21280 0.04790 0.45281 -0.52400
B 	B 	0.25830 0.12740 0.31340 0.49500
H 	H 	0.26450 0.11360 0.27820 -0.20800
B 	B 	0.26650 0.14600 0.40720 0.03200
H 	H 	0.27870 0.15830 0.44130 -0.06300
B 	B 	0.28930 0.10850 0.37060 0.56700
H 	H 	0.32270 0.08990 0.37260 -0.21500
B 	B 	0.29110 0.16530 0.35250 0.04900
H 	H 	0.32540 0.18180 0.34810 -0.07400
O 	O 	0.78720 0.95210 0.45281 -0.50400
B 	B 	0.74170 0.87260 0.31340 0.50300
H 	H 	0.73550 0.88640 0.27820 -0.20300
B 	B 	0.73350 0.85400 0.40720 0.02300
H 	H 	0.72130 0.84170 0.44130 -0.05900
B 	B 	0.71070 0.89150 0.37060 0.57200
H 	H 	0.67730 0.91010 0.37260 -0.20900
B 	B 	0.70890 0.83470 0.35250 0.04900
H 	H 	0.67460 0.81820 0.34810 -0.07200
O 	O 	0.21280 0.95210 0.54719 -0.50700
B 	B 	0.25830 0.87260 0.68660 0.50300
H 	H 	0.26450 0.88640 0.72180 -0.20200
B 	B 	0.26650 0.85400 0.59280 0.02400
H 	H 	0.27870 0.84170 0.55870 -0.06000
B 	B 	0.28930 0.89150 0.62940 0.57200
H 	H 	0.32270 0.91010 0.62740 -0.20900
B 	B 	0.29110 0.83470 0.64750 0.05000
H 	H 	0.32540 0.81820 0.65190 -0.07200
O 	O 	0.78720 0.04790 0.54719 -0.52100
B 	B 	0.74170 0.12740 0.68660 0.49700
H 	H 	0.73550 0.11360 0.72180 -0.20500
B 	B 	0.73350 0.14600 0.59280 0.03100
H 	H 	0.72130 0.15830 0.55870 -0.06200
B 	B 	0.71070 0.10850 0.62940 0.56700
H 	H 	0.67730 0.08990 0.62740 -0.21400
B 	B 	0.70890 0.16530 0.64750 0.05000
H 	H 	0.67460 0.18180 0.65190 -0.07400
O 	O 	0.04790 0.54719 0.78720 -0.52100
B 	B 	0.12740 0.68660 0.74170 0.49700
H 	H 	0.11360 0.72180 0.73550 -0.20500
B 	B 	0.14600 0.59280 0.73350 0.03100
H 	H 	0.15830 0.55870 0.72130 -0.06200
B 	B 	0.10850 0.62940 0.71070 0.56700
H 	H 	0.08990 0.62740 0.67730 -0.21400
B 	B 	0.16530 0.64750 0.70890 0.05000
H 	H 	0.18180 0.65190 0.67460 -0.07400
O 	O 	0.95210 0.54719 0.21280 -0.50700
B 	B 	0.87260 0.68660 0.25830 0.50300
H 	H 	0.88640 0.72180 0.26450 -0.20200
B 	B 	0.85400 0.59280 0.26650 0.02400
H 	H 	0.84170 0.55870 0.27870 -0.06000
B 	B 	0.89150 0.62940 0.28930 0.57200
H 	H 	0.91010 0.62740 0.32270 -0.20900
B 	B 	0.83470 0.64750 0.29110 0.05000
H 	H 	0.81820 0.65190 0.32540 -0.07200
O 	O 	0.95210 0.45281 0.78720 -0.50400
B 	B 	0.87260 0.31340 0.74170 0.50300
H 	H 	0.88640 0.27820 0.73550 -0.20300
B 	B 	0.85400 0.40720 0.73350 0.02300
H 	H 	0.84170 0.44130 0.72130 -0.05900
B 	B 	0.89150 0.37060 0.71070 0.57200
H 	H 	0.91010 0.37260 0.67730 -0.20900
B 	B 	0.83470 0.35250 0.70890 0.04900
H 	H 	0.81820 0.34810 0.67460 -0.07200
O 	O 	0.04790 0.45281 0.21280 -0.52400
B 	B 	0.12740 0.31340 0.25830 0.49500
H 	H 	0.11360 0.27820 0.26450 -0.20800
B 	B 	0.14600 0.40720 0.26650 0.03200
H 	H 	0.15830 0.44130 0.27870 -0.06300
B 	B 	0.10850 0.37060 0.28930 0.56700
H 	H 	0.08990 0.37260 0.32270 -0.21500
B 	B 	0.16530 0.35250 0.29110 0.04900
H 	H 	0.18180 0.34810 0.32540 -0.07400
O 	O 	0.54719 0.21280 0.95210 -0.50700
B 	B 	0.68660 0.25830 0.87260 0.50300
H 	H 	0.72180 0.26450 0.88640 -0.20200
B 	B 	0.59280 0.26650 0.85400 0.02400
H 	H 	0.55870 0.27870 0.84170 -0.06000
B 	B 	0.62940 0.28930 0.89150 0.57200
H 	H 	0.62740 0.32270 0.91010 -0.20900
B 	B 	0.64750 0.29110 0.83470 0.05000
H 	H 	0.65190 0.32540 0.81820 -0.07200
O 	O 	0.54719 0.78720 0.04790 -0.52100
B 	B 	0.68660 0.74170 0.12740 0.49700
H 	H 	0.72180 0.73550 0.11360 -0.20500
B 	B 	0.59280 0.73350 0.14600 0.03100
H 	H 	0.55870 0.72130 0.15830 -0.06200
B 	B 	0.62940 0.71070 0.10850 0.56700
H 	H 	0.62740 0.67730 0.08990 -0.21400
B 	B 	0.64750 0.70890 0.16530 0.05000
H 	H 	0.65190 0.67460 0.18180 -0.07400
O 	O 	0.45281 0.21280 0.04790 -0.52400
B 	B 	0.31340 0.25830 0.12740 0.49500
H 	H 	0.27820 0.26450 0.11360 -0.20800
B 	B 	0.40720 0.26650 0.14600 0.03200
H 	H 	0.44130 0.27870 0.15830 -0.06300
B 	B 	0.37060 0.28930 0.10850 0.56700
H 	H 	0.37260 0.32270 0.08990 -0.21500
B 	B 	0.35250 0.29110 0.16530 0.04900
H 	H 	0.34810 0.32540 0.18180 -0.07400
O 	O 	0.45281 0.78720 0.95210 -0.50400
B 	B 	0.31340 0.74170 0.87260 0.50300
H 	H 	0.27820 0.73550 0.88640 -0.20300
B 	B 	0.40720 0.73350 0.85400 0.02300
H 	H 	0.44130 0.72130 0.84170 -0.05900
B 	B 	0.37060 0.71070 0.89150 0.57200
H 	H 	0.37260 0.67730 0.91010 -0.20900
B 	B 	0.35250 0.70890 0.83470 0.04900
H 	H 	0.34810 0.67460 0.81820 -0.07200
O 	O 	0.45210 0.28720 0.95281 -0.50500
B 	B 	0.37260 0.24170 0.81340 0.50100
H 	H 	0.38640 0.23550 0.77820 -0.20500
B 	B 	0.35400 0.23350 0.90720 0.02600
H 	H 	0.34170 0.22130 0.94130 -0.05700
B 	B 	0.39150 0.21070 0.87060 0.57000
H 	H 	0.41010 0.17730 0.87260 -0.21200
B 	B 	0.33470 0.20890 0.85250 0.04900
H 	H 	0.31820 0.17460 0.84810 -0.07300
O 	O 	0.54790 0.71280 0.95281 -0.50500
B 	B 	0.62740 0.75830 0.81340 0.50300
H 	H 	0.61360 0.76450 0.77820 -0.20400
B 	B 	0.64600 0.76650 0.90720 0.02600
H 	H 	0.65830 0.77870 0.94130 -0.05300
B 	B 	0.60850 0.78930 0.87060 0.57100
H 	H 	0.58990 0.82270 0.87260 -0.20800
B 	B 	0.66530 0.79110 0.85250 0.05200
H 	H 	0.68180 0.82540 0.84810 -0.06800
O 	O 	0.54790 0.28720 0.04719 -0.52300
B 	B 	0.62740 0.24170 0.18660 0.49600
H 	H 	0.61360 0.23550 0.22180 -0.20400
B 	B 	0.64600 0.23350 0.09280 0.03000
H 	H 	0.65830 0.22130 0.05870 -0.06800
B 	B 	0.60850 0.21070 0.12940 0.56800
H 	H 	0.58990 0.17730 0.12740 -0.21500
B 	B 	0.66530 0.20890 0.14750 0.04800
H 	H 	0.68180 0.17460 0.15190 -0.07600
O 	O 	0.45210 0.71280 0.04719 -0.52300
B 	B 	0.37260 0.75830 0.18660 0.49700
H 	H 	0.38640 0.76450 0.22180 -0.20300
B 	B 	0.35400 0.76650 0.09280 0.03000
H 	H 	0.34170 0.77870 0.05870 -0.06600
B 	B 	0.39150 0.78930 0.12940 0.56900
H 	H 	0.41010 0.82270 0.12740 -0.21100
B 	B 	0.33470 0.79110 0.14750 0.04900
H 	H 	0.31820 0.82540 0.15190 -0.07300
O 	O 	0.95281 0.45210 0.28720 -0.50500
B 	B 	0.81340 0.37260 0.24170 0.50100
H 	H 	0.77820 0.38640 0.23550 -0.20500
B 	B 	0.90720 0.35400 0.23350 0.02600
H 	H 	0.94130 0.34170 0.22130 -0.05700
B 	B 	0.87060 0.39150 0.21070 0.57000
H 	H 	0.87260 0.41010 0.17730 -0.21200
B 	B 	0.85250 0.33470 0.20890 0.04900
H 	H 	0.84810 0.31820 0.17460 -0.07300
O 	O 	0.95281 0.54790 0.71280 -0.50500
B 	B 	0.81340 0.62740 0.75830 0.50300
H 	H 	0.77820 0.61360 0.76450 -0.20400
B 	B 	0.90720 0.64600 0.76650 0.02600
H 	H 	0.94130 0.65830 0.77870 -0.05300
B 	B 	0.87060 0.60850 0.78930 0.57100
H 	H 	0.87260 0.58990 0.82270 -0.20800
B 	B 	0.85250 0.66530 0.79110 0.05200
H 	H 	0.84810 0.68180 0.82540 -0.06800
O 	O 	0.04719 0.54790 0.28720 -0.52300
B 	B 	0.18660 0.62740 0.24170 0.49600
H 	H 	0.22180 0.61360 0.23550 -0.20400
B 	B 	0.09280 0.64600 0.23350 0.03000
H 	H 	0.05870 0.65830 0.22130 -0.06800
B 	B 	0.12940 0.60850 0.21070 0.56800
H 	H 	0.12740 0.58990 0.17730 -0.21500
B 	B 	0.14750 0.66530 0.20890 0.04800
H 	H 	0.15190 0.68180 0.17460 -0.07600
O 	O 	0.04719 0.45210 0.71280 -0.52300
B 	B 	0.18660 0.37260 0.75830 0.49700
H 	H 	0.22180 0.38640 0.76450 -0.20300
B 	B 	0.09280 0.35400 0.76650 0.03000
H 	H 	0.05870 0.34170 0.77870 -0.06600
B 	B 	0.12940 0.39150 0.78930 0.56900
H 	H 	0.12740 0.41010 0.82270 -0.21100
B 	B 	0.14750 0.33470 0.79110 0.04900
H 	H 	0.15190 0.31820 0.82540 -0.07300
O 	O 	0.28720 0.95281 0.45210 -0.50500
B 	B 	0.24170 0.81340 0.37260 0.50100
H 	H 	0.23550 0.77820 0.38640 -0.20500
B 	B 	0.23350 0.90720 0.35400 0.02600
H 	H 	0.22130 0.94130 0.34170 -0.05700
B 	B 	0.21070 0.87060 0.39150 0.57000
H 	H 	0.17730 0.87260 0.41010 -0.21200
B 	B 	0.20890 0.85250 0.33470 0.04900
H 	H 	0.17460 0.84810 0.31820 -0.07300
O 	O 	0.71280 0.95281 0.54790 -0.50500
B 	B 	0.75830 0.81340 0.62740 0.50300
H 	H 	0.76450 0.77820 0.61360 -0.20400
B 	B 	0.76650 0.90720 0.64600 0.02600
H 	H 	0.77870 0.94130 0.65830 -0.05300
B 	B 	0.78930 0.87060 0.60850 0.57100
H 	H 	0.82270 0.87260 0.58990 -0.20800
B 	B 	0.79110 0.85250 0.66530 0.05200
H 	H 	0.82540 0.84810 0.68180 -0.06800
O 	O 	0.28720 0.04719 0.54790 -0.52300
B 	B 	0.24170 0.18660 0.62740 0.49600
H 	H 	0.23550 0.22180 0.61360 -0.20400
B 	B 	0.23350 0.09280 0.64600 0.03000
H 	H 	0.22130 0.05870 0.65830 -0.06800
B 	B 	0.21070 0.12940 0.60850 0.56800
H 	H 	0.17730 0.12740 0.58990 -0.21500
B 	B 	0.20890 0.14750 0.66530 0.04800
H 	H 	0.17460 0.15190 0.68180 -0.07600
O 	O 	0.71280 0.04719 0.45210 -0.52300
B 	B 	0.75830 0.18660 0.37260 0.49700
H 	H 	0.76450 0.22180 0.38640 -0.20300
B 	B 	0.76650 0.09280 0.35400 0.03000
H 	H 	0.77870 0.05870 0.34170 -0.06600
B 	B 	0.78930 0.12940 0.39150 0.56900
H 	H 	0.82270 0.12740 0.41010 -0.21100
B 	B 	0.79110 0.14750 0.33470 0.04900
H 	H 	0.82540 0.15190 0.31820 -0.07300
O 	O 	0.78720 0.95210 0.54719 -0.50300
B 	B 	0.74170 0.87260 0.68660 0.50400
H 	H 	0.73550 0.88640 0.72180 -0.20100
B 	B 	0.73350 0.85400 0.59280 0.02300
H 	H 	0.72130 0.84170 0.55870 -0.05900
B 	B 	0.71070 0.89150 0.62940 0.57200
H 	H 	0.67730 0.91010 0.62740 -0.20800
B 	B 	0.70890 0.83470 0.64750 0.05000
H 	H 	0.67460 0.81820 0.65190 -0.07200
O 	O 	0.21280 0.04790 0.54719 -0.52400
B 	B 	0.25830 0.12740 0.68660 0.49600
H 	H 	0.26450 0.11360 0.72180 -0.20600
B 	B 	0.26650 0.14600 0.59280 0.03200
H 	H 	0.27870 0.15830 0.55870 -0.06300
B 	B 	0.28930 0.10850 0.62940 0.56700
H 	H 	0.32270 0.08990 0.62740 -0.21400
B 	B 	0.29110 0.16530 0.64750 0.05000
H 	H 	0.32540 0.18180 0.65190 -0.07400
O 	O 	0.78720 0.04790 0.45281 -0.52100
B 	B 	0.74170 0.12740 0.31340 0.49600
H 	H 	0.73550 0.11360 0.27820 -0.20700
B 	B 	0.73350 0.14600 0.40720 0.03200
H 	H 	0.72130 0.15830 0.44130 -0.06200
B 	B 	0.71070 0.10850 0.37060 0.56600
H 	H 	0.67730 0.08990 0.37260 -0.21500
B 	B 	0.70890 0.16530 0.35250 0.04900
H 	H 	0.67460 0.18180 0.34810 -0.07400
O 	O 	0.21280 0.95210 0.45281 -0.50700
B 	B 	0.25830 0.87260 0.31340 0.50200
H 	H 	0.26450 0.88640 0.27820 -0.20400
B 	B 	0.26650 0.85400 0.40720 0.02400
H 	H 	0.27870 0.84170 0.44130 -0.06000
B 	B 	0.28930 0.89150 0.37060 0.57200
H 	H 	0.32270 0.91010 0.37260 -0.20900
B 	B 	0.29110 0.83470 0.35250 0.04900
H 	H 	0.32540 0.81820 0.34810 -0.07200
O 	O 	0.95210 0.45281 0.21280 -0.50700
B 	B 	0.87260 0.31340 0.25830 0.50200
H 	H 	0.88640 0.27820 0.26450 -0.20400
B 	B 	0.85400 0.40720 0.26650 0.02400
H 	H 	0.84170 0.44130 0.27870 -0.06000
B 	B 	0.89150 0.37060 0.28930 0.57200
H 	H 	0.91010 0.37260 0.32270 -0.20900
B 	B 	0.83470 0.35250 0.29110 0.04900
H 	H 	0.81820 0.34810 0.32540 -0.07200
O 	O 	0.04790 0.45281 0.78720 -0.52100
B 	B 	0.12740 0.31340 0.74170 0.49600
H 	H 	0.11360 0.27820 0.73550 -0.20700
B 	B 	0.14600 0.40720 0.73350 0.03200
H 	H 	0.15830 0.44130 0.72130 -0.06200
B 	B 	0.10850 0.37060 0.71070 0.56600
H 	H 	0.08990 0.37260 0.67730 -0.21500
B 	B 	0.16530 0.35250 0.70890 0.04900
H 	H 	0.18180 0.34810 0.67460 -0.07400
O 	O 	0.04790 0.54719 0.21280 -0.52400
B 	B 	0.12740 0.68660 0.25830 0.49600
H 	H 	0.11360 0.72180 0.26450 -0.20600
B 	B 	0.14600 0.59280 0.26650 0.03200
H 	H 	0.15830 0.55870 0.27870 -0.06300
B 	B 	0.10850 0.62940 0.28930 0.56700
H 	H 	0.08990 0.62740 0.32270 -0.21400
B 	B 	0.16530 0.64750 0.29110 0.05000
H 	H 	0.18180 0.65190 0.32540 -0.07400
O 	O 	0.95210 0.54719 0.78720 -0.50300
B 	B 	0.87260 0.68660 0.74170 0.50400
H 	H 	0.88640 0.72180 0.73550 -0.20100
B 	B 	0.85400 0.59280 0.73350 0.02300
H 	H 	0.84170 0.55870 0.72130 -0.05900
B 	B 	0.89150 0.62940 0.71070 0.57200
H 	H 	0.91010 0.62740 0.67730 -0.20800
B 	B 	0.83470 0.64750 0.70890 0.05000
H 	H 	0.81820 0.65190 0.67460 -0.07200
O 	O 	0.45281 0.78720 0.04790 -0.52100
B 	B 	0.31340 0.74170 0.12740 0.49600
H 	H 	0.27820 0.73550 0.11360 -0.20700
B 	B 	0.40720 0.73350 0.14600 0.03200
H 	H 	0.44130 0.72130 0.15830 -0.06200
B 	B 	0.37060 0.71070 0.10850 0.56600
H 	H 	0.37260 0.67730 0.08990 -0.21500
B 	B 	0.35250 0.70890 0.16530 0.04900
H 	H 	0.34810 0.67460 0.18180 -0.07400
O 	O 	0.45281 0.21280 0.95210 -0.50700
B 	B 	0.31340 0.25830 0.87260 0.50200
H 	H 	0.27820 0.26450 0.88640 -0.20400
B 	B 	0.40720 0.26650 0.85400 0.02400
H 	H 	0.44130 0.27870 0.84170 -0.06000
B 	B 	0.37060 0.28930 0.89150 0.57200
H 	H 	0.37260 0.32270 0.91010 -0.20900
B 	B 	0.35250 0.29110 0.83470 0.04900
H 	H 	0.34810 0.32540 0.81820 -0.07200
O 	O 	0.54719 0.78720 0.95210 -0.50300
B 	B 	0.68660 0.74170 0.87260 0.50400
H 	H 	0.72180 0.73550 0.88640 -0.20100
B 	B 	0.59280 0.73350 0.85400 0.02300
H 	H 	0.55870 0.72130 0.84170 -0.05900
B 	B 	0.62940 0.71070 0.89150 0.57200
H 	H 	0.62740 0.67730 0.91010 -0.20800
B 	B 	0.64750 0.70890 0.83470 0.05000
H 	H 	0.65190 0.67460 0.81820 -0.07200
O 	O 	0.54719 0.21280 0.04790 -0.52400
B 	B 	0.68660 0.25830 0.12740 0.49600
H 	H 	0.72180 0.26450 0.11360 -0.20600
B 	B 	0.59280 0.26650 0.14600 0.03200
H 	H 	0.55870 0.27870 0.15830 -0.06300
B 	B 	0.62940 0.28930 0.10850 0.56700
H 	H 	0.62740 0.32270 0.08990 -0.21400
B 	B 	0.64750 0.29110 0.16530 0.05000
H 	H 	0.65190 0.32540 0.18180 -0.07400
Cu	Cu	0.50000 0.70375 -0.00000 0.90600
Cu	Cu	0.50000 0.29625 -0.00000 0.90600
Cu	Cu	0.00000 0.50000 0.70375 0.90600
Cu	Cu	-0.00000 0.50000 0.29625 0.90600
Cu	Cu	0.70375 0.00000 0.50000 0.90600
Cu	Cu	0.29625 0.00000 0.50000 0.90600
Cu	Cu	0.20375 0.00000 0.50000 0.90500
Cu	Cu	0.79625 0.00000 0.50000 0.90600
Cu	Cu	-0.00000 0.50000 0.79625 0.90600
Cu	Cu	0.00000 0.50000 0.20375 0.90500
Cu	Cu	0.50000 0.20375 -0.00000 0.90500
Cu	Cu	0.50000 0.79625 -0.00000 0.90600
C 	C 	0.59660 0.75000 0.09660 -0.74000
C 	C 	0.67800 0.75000 0.17800 -0.65500
C 	C 	0.56170 0.75000 0.06170 0.66600
C 	C 	0.71670 0.75000 0.21670 0.43500
C 	C 	0.40340 0.25000 0.09660 -0.74200
C 	C 	0.32200 0.25000 0.17800 -0.65400
C 	C 	0.43830 0.25000 0.06170 0.66700
C 	C 	0.28330 0.25000 0.21670 0.43000
C 	C 	0.40340 0.75000 0.90340 -0.73300
C 	C 	0.32200 0.75000 0.82200 -0.65900
C 	C 	0.43830 0.75000 0.93830 0.66200
C 	C 	0.28330 0.75000 0.78330 0.43600
C 	C 	0.59660 0.25000 0.90340 -0.73400
C 	C 	0.67800 0.25000 0.82200 -0.65800
C 	C 	0.56170 0.25000 0.93830 0.66200
C 	C 	0.71670 0.25000 0.78330 0.43600
C 	C 	0.09660 0.59660 0.75000 -0.74000
C 	C 	0.17800 0.67800 0.75000 -0.65500
C 	C 	0.06170 0.56170 0.75000 0.66600
C 	C 	0.21670 0.71670 0.75000 0.43500
C 	C 	0.09660 0.40340 0.25000 -0.74200
C 	C 	0.17800 0.32200 0.25000 -0.65400
C 	C 	0.06170 0.43830 0.25000 0.66700
C 	C 	0.21670 0.28330 0.25000 0.43000
C 	C 	0.90340 0.40340 0.75000 -0.73300
C 	C 	0.82200 0.32200 0.75000 -0.65900
C 	C 	0.93830 0.43830 0.75000 0.66200
C 	C 	0.78330 0.28330 0.75000 0.43600
C 	C 	0.90340 0.59660 0.25000 -0.73400
C 	C 	0.82200 0.67800 0.25000 -0.65800
C 	C 	0.93830 0.56170 0.25000 0.66200
C 	C 	0.78330 0.71670 0.25000 0.43600
C 	C 	0.75000 0.09660 0.59660 -0.74000
C 	C 	0.75000 0.17800 0.67800 -0.65500
C 	C 	0.75000 0.06170 0.56170 0.66600
C 	C 	0.75000 0.21670 0.71670 0.43500
C 	C 	0.25000 0.09660 0.40340 -0.74200
C 	C 	0.25000 0.17800 0.32200 -0.65400
C 	C 	0.25000 0.06170 0.43830 0.66700
C 	C 	0.25000 0.21670 0.28330 0.43000
C 	C 	0.75000 0.90340 0.40340 -0.73300
C 	C 	0.75000 0.82200 0.32200 -0.65900
C 	C 	0.75000 0.93830 0.43830 0.66200
C 	C 	0.75000 0.78330 0.28330 0.43600
C 	C 	0.25000 0.90340 0.59660 -0.73400
C 	C 	0.25000 0.82200 0.67800 -0.65800
C 	C 	0.25000 0.93830 0.56170 0.66200
C 	C 	0.25000 0.78330 0.71670 0.43600
C 	C 	0.40340 0.25000 0.90340 -0.73400
C 	C 	0.32200 0.25000 0.82200 -0.65800
C 	C 	0.43830 0.25000 0.93830 0.66200
C 	C 	0.28330 0.25000 0.78330 0.43400
C 	C 	0.59660 0.75000 0.90340 -0.73300
C 	C 	0.67800 0.75000 0.82200 -0.65900
C 	C 	0.56170 0.75000 0.93830 0.66200
C 	C 	0.71670 0.75000 0.78330 0.43800
C 	C 	0.59660 0.25000 0.09660 -0.74100
C 	C 	0.67800 0.25000 0.17800 -0.65400
C 	C 	0.56170 0.25000 0.06170 0.66700
C 	C 	0.71670 0.25000 0.21670 0.43200
C 	C 	0.40340 0.75000 0.09660 -0.74000
C 	C 	0.32200 0.75000 0.17800 -0.65500
C 	C 	0.43830 0.75000 0.06170 0.66600
C 	C 	0.28330 0.75000 0.21670 0.43300
C 	C 	0.90340 0.40340 0.25000 -0.73400
C 	C 	0.82200 0.32200 0.25000 -0.65800
C 	C 	0.93830 0.43830 0.25000 0.66200
C 	C 	0.78330 0.28330 0.25000 0.43400
C 	C 	0.90340 0.59660 0.75000 -0.73300
C 	C 	0.82200 0.67800 0.75000 -0.65900
C 	C 	0.93830 0.56170 0.75000 0.66200
C 	C 	0.78330 0.71670 0.75000 0.43800
C 	C 	0.09660 0.59660 0.25000 -0.74100
C 	C 	0.17800 0.67800 0.25000 -0.65400
C 	C 	0.06170 0.56170 0.25000 0.66700
C 	C 	0.21670 0.71670 0.25000 0.43200
C 	C 	0.09660 0.40340 0.75000 -0.74000
C 	C 	0.17800 0.32200 0.75000 -0.65500
C 	C 	0.06170 0.43830 0.75000 0.66600
C 	C 	0.21670 0.28330 0.75000 0.43300
C 	C 	0.25000 0.90340 0.40340 -0.73400
C 	C 	0.25000 0.82200 0.32200 -0.65800
C 	C 	0.25000 0.93830 0.43830 0.66200
C 	C 	0.25000 0.78330 0.28330 0.43400
C 	C 	0.75000 0.90340 0.59660 -0.73300
C 	C 	0.75000 0.82200 0.67800 -0.65900
C 	C 	0.75000 0.93830 0.56170 0.66200
C 	C 	0.75000 0.78330 0.71670 0.43800
C 	C 	0.25000 0.09660 0.59660 -0.74100
C 	C 	0.25000 0.17800 0.67800 -0.65400
C 	C 	0.25000 0.06170 0.56170 0.66700
C 	C 	0.25000 0.21670 0.71670 0.43200
C 	C 	0.75000 0.09660 0.40340 -0.74000
C 	C 	0.75000 0.17800 0.32200 -0.65500
C 	C 	0.75000 0.06170 0.43830 0.66600
C 	C 	0.75000 0.21670 0.28330 0.43300
C 	C 	0.71620 0.78380 0.25000 -0.50300
H 	H 	0.69320 0.80680 0.25000 0.18000
C 	C 	0.28380 0.21620 0.25000 -0.50000
H 	H 	0.30680 0.19320 0.25000 0.17700
C 	C 	0.28380 0.78380 0.75000 -0.50300
H 	H 	0.30680 0.80680 0.75000 0.18100
C 	C 	0.71620 0.21620 0.75000 -0.50200
H 	H 	0.69320 0.19320 0.75000 0.17900
C 	C 	0.25000 0.71620 0.78380 -0.50300
H 	H 	0.25000 0.69320 0.80680 0.18000
C 	C 	0.25000 0.28380 0.21620 -0.50000
H 	H 	0.25000 0.30680 0.19320 0.17700
C 	C 	0.75000 0.28380 0.78380 -0.50300
H 	H 	0.75000 0.30680 0.80680 0.18100
C 	C 	0.75000 0.71620 0.21620 -0.50200
H 	H 	0.75000 0.69320 0.19320 0.17900
C 	C 	0.78380 0.25000 0.71620 -0.50300
H 	H 	0.80680 0.25000 0.69320 0.18000
C 	C 	0.21620 0.25000 0.28380 -0.50000
H 	H 	0.19320 0.25000 0.30680 0.17700
C 	C 	0.78380 0.75000 0.28380 -0.50300
H 	H 	0.80680 0.75000 0.30680 0.18100
C 	C 	0.21620 0.75000 0.71620 -0.50200
H 	H 	0.19320 0.75000 0.69320 0.17900
C 	C 	0.28380 0.21620 0.75000 -0.50100
H 	H 	0.30680 0.19320 0.75000 0.17800
C 	C 	0.71620 0.78380 0.75000 -0.50400
H 	H 	0.69320 0.80680 0.75000 0.18100
C 	C 	0.71620 0.21620 0.25000 -0.50100
H 	H 	0.69320 0.19320 0.25000 0.17700
C 	C 	0.28380 0.78380 0.25000 -0.50100
H 	H 	0.30680 0.80680 0.25000 0.17900
C 	C 	0.75000 0.28380 0.21620 -0.50100
H 	H 	0.75000 0.30680 0.19320 0.17800
C 	C 	0.75000 0.71620 0.78380 -0.50400
H 	H 	0.75000 0.69320 0.80680 0.18100
C 	C 	0.25000 0.71620 0.21620 -0.50100
H 	H 	0.25000 0.69320 0.19320 0.17700
C 	C 	0.25000 0.28380 0.78380 -0.50100
H 	H 	0.25000 0.30680 0.80680 0.17900
C 	C 	0.21620 0.75000 0.28380 -0.50100
H 	H 	0.19320 0.75000 0.30680 0.17800
C 	C 	0.78380 0.75000 0.71620 -0.50400
H 	H 	0.80680 0.75000 0.69320 0.18100
C 	C 	0.21620 0.25000 0.71620 -0.50100
H 	H 	0.19320 0.25000 0.69320 0.17700
C 	C 	0.78380 0.25000 0.28380 -0.50100
H 	H 	0.80680 0.25000 0.30680 0.17900
