data_crystal

_cell_length_a 13.65460
_cell_length_b 14.21260
_cell_length_c 14.63770
_cell_angle_alpha 76.05700
_cell_angle_beta  86.39000
_cell_angle_gamma 67.91000

_symmetry_space_group_name_	'P 1'
_symmetry_space_group_name_H-M	'P 1'

loop_
_symmetry_equiv_pos_as_xyz
  x,y,z

loop_
_atom_site_label
_atom_site_type_symbol
_atom_site_fract_x
_atom_site_fract_y
_atom_site_fract_z
_atom_site_charge
Zn	Zn	0.66531 0.14237 0.22925 1.22600
Zn	Zn	0.01581 0.37062 0.14125 1.23000
Zn	Zn	0.85043 0.24347 0.22410 1.22800
Zn	Zn	0.26143 0.23310 0.10812 1.20800
Zn	Zn	0.51164 0.05299 0.12742 1.22100
O 	O 	0.81730 0.81850 0.77610 -0.48600
O 	O 	0.36180 0.07730 0.10020 -0.54900
O 	O 	0.64410 0.71550 0.99250 -0.47100
O 	O 	0.15120 0.38530 0.09160 -0.54400
O 	O 	0.74240 0.81460 0.64490 -0.30200
O 	O 	0.89760 0.51140 0.08170 -0.58800
H 	H 	0.86700 0.54800 0.02920 0.30600
O 	O 	0.93970 0.31180 0.24640 -0.55500
O 	O 	0.99540 0.28810 0.05960 -0.48300
O 	O 	0.47430 0.82090 0.95890 -0.49900
O 	O 	0.09360 0.88460 0.82020 -0.51200
O 	O 	0.59310 0.29250 0.19800 -0.51300
O 	O 	0.16180 0.20860 0.01830 -0.44700
O 	O 	0.62370 0.94080 0.07120 -0.58700
H 	H 	0.63700 0.92900 0.01600 0.29300
O 	O 	0.55260 0.09010 0.24140 -0.56900
O 	O 	0.81100 0.19590 0.35540 -0.49200
O 	O 	0.72600 0.34870 0.15270 -0.51000
O 	O 	0.22940 0.92110 0.85600 -0.50800
O 	O 	0.73620 0.08060 0.35290 -0.49000
N 	N 	0.50780 0.91880 0.23240 -0.11400
C 	C 	0.13190 0.93850 0.85040 0.41800
C 	C 	0.06700 0.22680 0.01630 0.38100
N 	N 	0.02650 0.45900 0.23800 -0.11300
C 	C 	0.58260 0.55040 0.08300 0.09800
H 	H 	0.65450 0.53690 0.07610 0.02100
C 	C 	0.79670 0.98110 0.54070 0.05400
H 	H 	0.75250 0.96060 0.51100 0.03300
C 	C 	0.62990 0.36150 0.16250 0.41700
C 	C 	0.17100 0.46190 0.12860 0.12900
H 	H 	0.13250 0.53120 0.09040 -0.01300
H 	H 	0.24580 0.44970 0.12590 -0.02700
C 	C 	0.09470 0.08780 0.92930 0.06300
H 	H 	0.16710 0.06770 0.93890 0.03900
C 	C 	0.33730 0.98940 0.14770 0.15500
H 	H 	0.35520 0.93970 0.10830 -0.01900
H 	H 	0.26180 0.01200 0.15770 -0.01700
C 	C 	0.90270 0.95770 0.67370 0.03800
H 	H 	0.92930 0.92220 0.73450 0.01600
C 	C 	0.83310 0.93030 0.63210 -0.12400
C 	C 	0.13630 0.45590 0.23040 -0.24200
H 	H 	0.18340 0.39170 0.27060 0.09100
H 	H 	0.14050 0.51410 0.25130 0.10300
C 	C 	0.66150 0.84160 0.13960 0.18400
H 	H 	0.71300 0.84110 0.18260 -0.02800
H 	H 	0.69540 0.78550 0.10780 -0.01600
C 	C 	0.92060 0.36080 0.32500 0.17000
H 	H 	0.92020 0.31040 0.38290 -0.02100
H 	H 	0.85210 0.41770 0.31630 -0.03000
C 	C 	0.53580 0.02770 0.32750 0.16900
H 	H 	0.46270 0.05800 0.34460 -0.02300
H 	H 	0.58030 0.02740 0.37670 -0.02500
C 	C 	0.05610 0.03230 0.88310 -0.13500
C 	C 	0.88120 0.15040 0.89770 -0.12400
H 	H 	0.80900 0.17450 0.88410 0.07200
C 	C 	0.56000 0.91750 0.32080 -0.25100
H 	H 	0.53410 0.88090 0.37550 0.11000
H 	H 	0.63590 0.88120 0.31920 0.10200
C 	C 	0.91780 0.20100 0.94450 0.05100
H 	H 	0.87040 0.25670 0.96680 0.01500
C 	C 	0.82660 0.06340 0.49280 -0.13400
C 	C 	0.50890 0.65080 0.04830 -0.16300
C 	C 	0.79460 0.84740 0.68870 0.33700
C 	C 	0.02550 0.17170 0.96020 -0.12000
C 	C 	0.55000 0.47250 0.12660 -0.16300
C 	C 	0.89490 0.09080 0.53670 0.05600
H 	H 	0.91480 0.14570 0.50540 0.02300
C 	C 	0.40280 0.67150 0.06030 0.08400
H 	H 	0.35290 0.73800 0.03680 0.00800
C 	C 	0.93330 0.03790 0.62530 -0.11900
H 	H 	0.98070 0.05590 0.65370 0.07300
C 	C 	0.94870 0.06260 0.86910 0.05500
H 	H 	0.92210 0.02480 0.84090 0.02400
C 	C 	0.39650 0.93550 0.24260 -0.24700
H 	H 	0.36660 0.97830 0.28750 0.10100
H 	H 	0.38880 0.86890 0.26660 0.10900
C 	C 	0.44400 0.49270 0.13980 0.09200
H 	H 	0.42180 0.43910 0.17020 0.00300
C 	C 	0.56740 0.82540 0.19450 -0.24500
H 	H 	0.52140 0.81510 0.15320 0.10700
H 	H 	0.59260 0.76370 0.24580 0.10700
C 	C 	0.85550 0.57310 0.15080 0.21500
H 	H 	0.80920 0.54580 0.19230 -0.03400
H 	H 	0.81510 0.64510 0.11970 -0.03100
C 	C 	0.94570 0.56730 0.20550 -0.25300
H 	H 	0.91900 0.59540 0.26020 0.10700
H 	H 	0.98000 0.61110 0.16700 0.11400
C 	C 	0.78740 0.11880 0.39240 0.39700
C 	C 	0.54600 0.73490 0.99650 0.39500
C 	C 	0.00590 0.40180 0.33140 -0.25100
H 	H 	0.98490 0.44820 0.37410 0.10700
H 	H 	0.07040 0.34390 0.35700 0.10700
C 	C 	0.37190 0.59090 0.10830 -0.15700
H 	H 	0.30060 0.60430 0.11920 0.08000
Zn	Zn	0.33469 0.85763 0.77075 1.22700
Zn	Zn	0.98419 0.62938 0.85875 1.23100
Zn	Zn	0.14957 0.75653 0.77590 1.22900
Zn	Zn	0.73857 0.76690 0.89188 1.20900
Zn	Zn	0.48836 0.94701 0.87258 1.22100
O 	O 	0.18270 0.18150 0.22390 -0.48600
O 	O 	0.63820 0.92270 0.89980 -0.54900
O 	O 	0.35590 0.28450 0.00750 -0.47100
O 	O 	0.84880 0.61470 0.90840 -0.54400
O 	O 	0.25760 0.18540 0.35510 -0.30200
O 	O 	0.10240 0.48860 0.91830 -0.58800
H 	H 	0.13300 0.45200 0.97080 0.30600
O 	O 	0.06030 0.68820 0.75360 -0.55500
O 	O 	0.00460 0.71190 0.94040 -0.48300
O 	O 	0.52570 0.17910 0.04110 -0.49900
O 	O 	0.90640 0.11540 0.17980 -0.51200
O 	O 	0.40690 0.70750 0.80200 -0.51300
O 	O 	0.83820 0.79140 0.98170 -0.44700
O 	O 	0.37630 0.05920 0.92880 -0.58700
H 	H 	0.36300 0.07100 0.98400 0.29300
O 	O 	0.44740 0.90990 0.75860 -0.56900
O 	O 	0.18900 0.80410 0.64460 -0.49200
O 	O 	0.27400 0.65130 0.84730 -0.51000
O 	O 	0.77060 0.07890 0.14400 -0.50800
O 	O 	0.26380 0.91940 0.64710 -0.49000
N 	N 	0.49220 0.08120 0.76760 -0.11400
C 	C 	0.86810 0.06150 0.14960 0.41800
C 	C 	0.93300 0.77320 0.98370 0.38100
N 	N 	0.97350 0.54100 0.76200 -0.11300
C 	C 	0.41740 0.44960 0.91700 0.09800
H 	H 	0.34550 0.46310 0.92390 0.02100
C 	C 	0.20330 0.01890 0.45930 0.05400
H 	H 	0.24750 0.03940 0.48900 0.03300
C 	C 	0.37010 0.63850 0.83750 0.41700
C 	C 	0.82900 0.53810 0.87140 0.12900
H 	H 	0.86750 0.46880 0.90960 -0.01300
H 	H 	0.75420 0.55030 0.87410 -0.02700
C 	C 	0.90530 0.91220 0.07070 0.06300
H 	H 	0.83290 0.93230 0.06110 0.03900
C 	C 	0.66270 0.01060 0.85230 0.15500
H 	H 	0.64480 0.06030 0.89170 -0.01900
H 	H 	0.73820 0.98800 0.84230 -0.01700
C 	C 	0.09730 0.04230 0.32630 0.03800
H 	H 	0.07070 0.07780 0.26550 0.01600
C 	C 	0.16690 0.06970 0.36790 -0.12400
C 	C 	0.86370 0.54410 0.76960 -0.24200
H 	H 	0.81660 0.60830 0.72940 0.09100
H 	H 	0.85950 0.48590 0.74870 0.10300
C 	C 	0.33850 0.15840 0.86040 0.18400
H 	H 	0.28700 0.15890 0.81740 -0.02800
H 	H 	0.30460 0.21450 0.89220 -0.01600
C 	C 	0.07940 0.63920 0.67500 0.17000
H 	H 	0.07980 0.68960 0.61710 -0.02100
H 	H 	0.14790 0.58230 0.68370 -0.03000
C 	C 	0.46420 0.97230 0.67250 0.16900
H 	H 	0.53730 0.94200 0.65540 -0.02300
H 	H 	0.41970 0.97260 0.62330 -0.02500
C 	C 	0.94390 0.96770 0.11690 -0.13500
C 	C 	0.11880 0.84960 0.10230 -0.12400
H 	H 	0.19100 0.82550 0.11590 0.07200
C 	C 	0.44000 0.08250 0.67920 -0.25100
H 	H 	0.46590 0.11910 0.62450 0.11000
H 	H 	0.36410 0.11880 0.68080 0.10200
C 	C 	0.08220 0.79900 0.05550 0.05100
H 	H 	0.12960 0.74330 0.03320 0.01500
C 	C 	0.17340 0.93660 0.50720 -0.13400
C 	C 	0.49110 0.34920 0.95170 -0.16300
C 	C 	0.20540 0.15260 0.31130 0.33700
C 	C 	0.97450 0.82830 0.03980 -0.12000
C 	C 	0.45000 0.52750 0.87340 -0.16300
C 	C 	0.10510 0.90920 0.46330 0.05600
H 	H 	0.08520 0.85430 0.49460 0.02300
C 	C 	0.59720 0.32850 0.93970 0.08400
H 	H 	0.64710 0.26200 0.96320 0.00800
C 	C 	0.06670 0.96210 0.37470 -0.11900
H 	H 	0.01930 0.94410 0.34630 0.07300
C 	C 	0.05130 0.93740 0.13090 0.05500
H 	H 	0.07790 0.97520 0.15910 0.02400
C 	C 	0.60350 0.06450 0.75740 -0.24700
H 	H 	0.63340 0.02170 0.71250 0.10100
H 	H 	0.61120 0.13110 0.73340 0.10900
C 	C 	0.55600 0.50730 0.86020 0.09200
H 	H 	0.57820 0.56090 0.82980 0.00300
C 	C 	0.43260 0.17460 0.80550 -0.24500
H 	H 	0.47860 0.18490 0.84680 0.10700
H 	H 	0.40740 0.23630 0.75420 0.10700
C 	C 	0.14450 0.42690 0.84920 0.21500
H 	H 	0.19080 0.45420 0.80770 -0.03400
H 	H 	0.18490 0.35490 0.88030 -0.03100
C 	C 	0.05430 0.43270 0.79450 -0.25300
H 	H 	0.08100 0.40460 0.73980 0.10700
H 	H 	0.02000 0.38890 0.83300 0.11400
C 	C 	0.21260 0.88120 0.60760 0.39700
C 	C 	0.45400 0.26510 0.00350 0.39500
C 	C 	0.99410 0.59820 0.66860 -0.25100
H 	H 	0.01510 0.55180 0.62590 0.10700
H 	H 	0.92960 0.65610 0.64300 0.10700
C 	C 	0.62810 0.40910 0.89170 -0.15700
H 	H 	0.69940 0.39570 0.88080 0.08000
