data_crystal

_cell_length_a 11.34070
_cell_length_b 11.38470
_cell_length_c 13.19080
_cell_angle_alpha 88.86800
_cell_angle_beta  69.33900
_cell_angle_gamma 85.72600

_symmetry_space_group_name_	'P 1'
_symmetry_space_group_name_H-M	'P 1'

loop_
_symmetry_equiv_pos_as_xyz
  x,y,z

loop_
_atom_site_label
_atom_site_type_symbol
_atom_site_fract_x
_atom_site_fract_y
_atom_site_fract_z
_atom_site_charge
Co	Co	0.99062 0.11658 0.25175 1.22100
O 	O 	0.04550 0.97680 0.33300 -0.37700
N 	N 	0.12310 0.88690 0.27700 -0.03400
C 	C 	0.24780 0.88650 0.26120 0.01100
H 	H 	0.28030 0.94690 0.29020 0.06400
C 	C 	0.32600 0.79370 0.20070 -0.04500
H 	H 	0.41400 0.79160 0.18790 0.04900
C 	C 	0.28170 0.70670 0.15970 -0.03300
H 	H 	0.33750 0.64420 0.11910 0.03200
C 	C 	0.15290 0.70950 0.17740 -0.03500
H 	H 	0.12040 0.64850 0.14920 0.02400
C 	C 	0.07160 0.80180 0.23660 -0.04800
C 	C 	0.93190 0.80650 0.26410 0.19300
C 	C 	0.86270 0.71970 0.32270 -0.17200
H 	H 	0.90100 0.65800 0.35270 0.12400
C 	C 	0.73460 0.72280 0.33810 0.08000
H 	H 	0.68430 0.66240 0.37750 0.00800
C 	C 	0.68290 0.81340 0.29600 -0.12200
H 	H 	0.59530 0.81790 0.30660 0.08100
C 	C 	0.75840 0.89990 0.23720 0.07000
H 	H 	0.72270 0.96280 0.20640 0.05100
N 	N 	0.87840 0.89510 0.22420 -0.08200
O 	O 	0.94850 0.98000 0.16780 -0.29800
O 	O 	0.99870 0.81780 0.00110 -0.34200
C 	C 	0.03330 0.74120 0.92800 0.33200
O 	O 	0.08460 0.75930 0.82770 -0.40300
C 	C 	0.01780 0.61550 0.96430 -0.12900
C 	C 	0.08490 0.52260 0.89750 0.03400
H 	H 	0.14340 0.53720 0.82720 0.03100
C 	C 	0.93420 0.59230 0.06560 0.05900
H 	H 	0.88840 0.65600 0.11150 0.03400
O 	O 	0.81650 0.00700 0.00960 -0.49500
C 	C 	0.77130 0.95780 0.94930 0.43400
O 	O 	0.82860 0.89340 0.86840 -0.37900
C 	C 	0.63060 0.97700 0.97730 0.15300
C 	C 	0.55870 0.05620 0.05970 -0.31100
H 	H 	0.59880 0.09490 0.10050 0.12700
C 	C 	0.56900 0.92100 0.91750 -0.20700
H 	H 	0.61610 0.86720 0.86110 0.12500
O 	O 	0.05100 0.24130 0.32550 -0.43700
C 	C 	0.01390 0.25940 0.42810 0.30400
O 	O 	0.98490 0.18310 0.49950 -0.32500
C 	C 	0.00650 0.38540 0.46390 -0.25000
C 	C 	0.08470 0.46500 0.39850 0.13200
H 	H 	0.14160 0.44200 0.32840 -0.00800
C 	C 	0.07970 0.57980 0.43610 -0.25000
H 	H 	0.13570 0.63410 0.39270 0.11800
O 	O 	0.81410 0.00330 0.51510 -0.41700
C 	C 	0.75880 0.05060 0.45410 0.40100
O 	O 	0.81210 0.11100 0.37050 -0.41200
C 	C 	0.62310 0.02730 0.48030 -0.24800
C 	C 	0.55490 0.08440 0.42460 0.12800
H 	H 	0.59230 0.14250 0.37300 -0.00300
C 	C 	0.56930 0.94170 0.55700 0.18500
H 	H 	0.61650 0.90210 0.59600 0.00200
Co	Co	0.00938 0.88342 0.74825 1.19000
O 	O 	0.95450 0.02320 0.66700 -0.35500
N 	N 	0.87690 0.11310 0.72300 -0.07300
C 	C 	0.75220 0.11350 0.73880 0.04100
H 	H 	0.71970 0.05310 0.70980 0.02300
C 	C 	0.67400 0.20630 0.79930 -0.10900
H 	H 	0.58600 0.20840 0.81210 0.07300
C 	C 	0.71830 0.29330 0.84030 0.06600
H 	H 	0.66250 0.35580 0.88090 0.02300
C 	C 	0.84710 0.29050 0.82260 -0.14600
H 	H 	0.87960 0.35150 0.85080 0.11700
C 	C 	0.92840 0.19820 0.76340 0.17500
C 	C 	0.06810 0.19350 0.73590 -0.04300
C 	C 	0.13730 0.28030 0.67730 -0.04400
H 	H 	0.09900 0.34200 0.64730 0.03200
C 	C 	0.26540 0.27720 0.66190 -0.02300
H 	H 	0.31570 0.33760 0.62250 0.03900
C 	C 	0.31710 0.18660 0.70400 -0.06000
H 	H 	0.40470 0.18210 0.69340 0.05000
C 	C 	0.24160 0.10010 0.76280 0.00600
H 	H 	0.27730 0.03720 0.79360 0.03100
N 	N 	0.12160 0.10490 0.77580 -0.04300
O 	O 	0.05150 0.02000 0.83220 -0.41900
O 	O 	0.00130 0.18220 0.99890 -0.41900
C 	C 	0.96670 0.25880 0.07200 0.36500
O 	O 	0.91540 0.24070 0.17230 -0.39500
C 	C 	0.98220 0.38450 0.03570 -0.00400
C 	C 	0.91510 0.47740 0.10250 -0.07000
H 	H 	0.85660 0.46280 0.17280 0.07300
C 	C 	0.06580 0.40770 0.93440 -0.10200
H 	H 	0.11160 0.34400 0.88850 0.08000
O 	O 	0.18350 0.99300 0.99040 -0.29700
C 	C 	0.22870 0.04220 0.05070 0.29200
O 	O 	0.17140 0.10660 0.13160 -0.43800
C 	C 	0.36940 0.02300 0.02270 -0.30800
C 	C 	0.44130 0.94380 0.94030 0.27600
H 	H 	0.40120 0.90510 0.89950 -0.02500
C 	C 	0.43100 0.07900 0.08250 0.16300
H 	H 	0.38390 0.13280 0.13890 -0.02100
O 	O 	0.94900 0.75870 0.67450 -0.37400
C 	C 	0.98610 0.74060 0.57190 0.38300
O 	O 	0.01510 0.81690 0.50050 -0.45000
C 	C 	0.99350 0.61460 0.53610 0.11600
C 	C 	0.91530 0.53500 0.60150 -0.17200
H 	H 	0.85840 0.55800 0.67160 0.11000
C 	C 	0.92030 0.42020 0.56390 0.20500
H 	H 	0.86430 0.36590 0.60730 -0.00900
O 	O 	0.18590 0.99670 0.48490 -0.36300
C 	C 	0.24120 0.94940 0.54590 0.30100
O 	O 	0.18790 0.88900 0.62950 -0.38100
C 	C 	0.37690 0.97270 0.51970 0.10800
C 	C 	0.44510 0.91560 0.57540 -0.16800
H 	H 	0.40770 0.85750 0.62700 0.10800
C 	C 	0.43070 0.05830 0.44300 -0.22900
H 	H 	0.38350 0.09790 0.40400 0.10000
Co	Co	0.00000 0.00000 0.50000 1.13700
Co	Co	-0.00000 0.00000 -0.00000 1.11200
