data_crystal

_cell_length_a 27.31300
_cell_length_b 22.01700
_cell_length_c 15.83600
_cell_angle_alpha 90.00000
_cell_angle_beta  103.21800
_cell_angle_gamma 90.00000

_symmetry_space_group_name_	'P 1'
_symmetry_space_group_name_H-M	'P 1'

loop_
_symmetry_equiv_pos_as_xyz
  x,y,z

loop_
_atom_site_label
_atom_site_type_symbol
_atom_site_fract_x
_atom_site_fract_y
_atom_site_fract_z
_atom_site_charge
Cu	Cu	0.81065 0.42414 0.75286 0.87800
N 	N 	0.74800 0.41390 0.87510 -0.26300
N 	N 	0.77740 0.38190 0.83290 -0.25400
N 	N 	0.75530 0.32190 0.92900 -0.28700
N 	N 	0.84770 0.46850 0.68230 -0.26200
O 	O 	0.79760 0.35590 0.67320 -0.43200
O 	O 	0.72570 0.39480 0.59960 -0.31900
O 	O 	0.93320 0.43840 0.45550 -0.41500
O 	O 	0.99670 0.43880 0.38580 -0.41200
O 	O 	0.78460 0.29500 0.10430 -0.42400
O 	O 	0.84810 0.25640 0.06340 -0.37900
C 	C 	0.70360 0.39300 0.99210 -0.62800
H 	H 	0.69590 0.43560 0.98700 0.17700
H 	H 	0.72140 0.38420 0.05040 0.17000
H 	H 	0.67300 0.37000 0.97830 0.21000
C 	C 	0.73520 0.37680 0.93170 0.26500
C 	C 	0.78070 0.32610 0.86490 0.31400
C 	C 	0.80890 0.27340 0.83920 -0.85900
H 	H 	0.83570 0.28820 0.81500 0.26700
H 	H 	0.78640 0.24920 0.79690 0.28300
H 	H 	0.82250 0.24910 0.88940 0.27500
C 	C 	0.88100 0.45170 0.63720 0.33200
C 	C 	0.89380 0.38850 0.61800 -0.92800
H 	H 	0.88020 0.37980 0.55780 0.31300
H 	H 	0.87990 0.36080 0.65300 0.29400
H 	H 	0.92970 0.38390 0.63070 0.30800
C 	C 	0.75790 0.35610 0.61260 0.33600
C 	C 	0.75460 0.29990 0.55490 -0.07300
C 	C 	0.71670 0.29380 0.48650 -0.03000
H 	H 	0.69250 0.32430 0.47540 0.04400
C 	C 	0.78920 0.25660 0.57120 -0.02800
H 	H 	0.81640 0.25910 0.61860 0.03200
C 	C 	0.83100 0.28690 0.11260 0.35200
C 	C 	0.86160 0.31820 0.19130 -0.09300
C 	C 	0.84250 0.34060 0.25550 -0.01300
H 	H 	0.80850 0.33490 0.25350 0.03400
C 	C 	0.91350 0.32320 0.19570 -0.03100
H 	H 	0.92840 0.30510 0.15480 0.02900
C 	C 	0.95300 0.42260 0.39690 0.34100
C 	C 	0.92120 0.38290 0.32800 -0.07400
C 	C 	0.87320 0.37340 0.32800 -0.03000
H 	H 	0.85960 0.38740 0.37320 0.04500
C 	C 	0.94170 0.35750 0.26610 -0.02500
H 	H 	0.97600 0.36280 0.26990 0.02900
Cu	Cu	0.31065 0.92414 0.75286 0.88600
N 	N 	0.24800 0.91390 0.87510 -0.25700
N 	N 	0.27740 0.88190 0.83290 -0.25100
N 	N 	0.25530 0.82190 0.92900 -0.29000
N 	N 	0.34770 0.96850 0.68230 -0.25200
O 	O 	0.29760 0.85590 0.67320 -0.43200
O 	O 	0.22570 0.89480 0.59960 -0.31100
O 	O 	0.43320 0.93840 0.45550 -0.40200
O 	O 	0.49670 0.93880 0.38580 -0.39800
O 	O 	0.28460 0.79500 0.10430 -0.42400
O 	O 	0.34810 0.75640 0.06340 -0.37800
C 	C 	0.20360 0.89300 0.99210 -0.65400
H 	H 	0.19590 0.93560 0.98700 0.19300
H 	H 	0.22140 0.88420 0.05040 0.18100
H 	H 	0.17300 0.87000 0.97830 0.22100
C 	C 	0.23520 0.87680 0.93170 0.27600
C 	C 	0.28070 0.82610 0.86490 0.31700
C 	C 	0.30890 0.77340 0.83920 -0.86600
H 	H 	0.33570 0.78820 0.81500 0.27100
H 	H 	0.28640 0.74920 0.79690 0.28600
H 	H 	0.32250 0.74910 0.88940 0.27900
C 	C 	0.38100 0.95170 0.63720 0.37000
C 	C 	0.39380 0.88850 0.61800 -0.96600
H 	H 	0.38020 0.87980 0.55780 0.32700
H 	H 	0.37990 0.86080 0.65300 0.30600
H 	H 	0.42970 0.88390 0.63070 0.32200
C 	C 	0.25790 0.85610 0.61260 0.33500
C 	C 	0.25460 0.79990 0.55490 -0.07000
C 	C 	0.21670 0.79380 0.48650 -0.03000
H 	H 	0.19250 0.82430 0.47540 0.04700
C 	C 	0.28920 0.75660 0.57120 -0.02800
H 	H 	0.31640 0.75910 0.61860 0.03300
C 	C 	0.33100 0.78690 0.11260 0.35300
C 	C 	0.36160 0.81820 0.19130 -0.09200
C 	C 	0.34250 0.84060 0.25550 -0.00900
H 	H 	0.30850 0.83490 0.25350 0.03600
C 	C 	0.41350 0.82320 0.19570 -0.02700
H 	H 	0.42840 0.80510 0.15480 0.03100
C 	C 	0.45300 0.92260 0.39690 0.33900
C 	C 	0.42120 0.88290 0.32800 -0.06900
C 	C 	0.37320 0.87340 0.32800 -0.03000
H 	H 	0.35960 0.88740 0.37320 0.04900
C 	C 	0.44170 0.85750 0.26610 -0.02500
H 	H 	0.47600 0.86280 0.26990 0.03200
Cu	Cu	0.18935 0.42414 0.24714 0.87400
N 	N 	0.25200 0.41390 0.12490 -0.29300
N 	N 	0.22260 0.38190 0.16710 -0.25400
N 	N 	0.24470 0.32190 0.07100 -0.32600
N 	N 	0.15230 0.46850 0.31770 -0.26400
O 	O 	0.20240 0.35590 0.32680 -0.43400
O 	O 	0.27430 0.39480 0.40040 -0.32000
O 	O 	0.06680 0.43840 0.54450 -0.41600
O 	O 	0.00330 0.43880 0.61420 -0.41000
O 	O 	0.21540 0.29500 0.89570 -0.40300
O 	O 	0.15190 0.25640 0.93660 -0.33600
C 	C 	0.29640 0.39300 0.00790 -1.09100
H 	H 	0.30410 0.43560 0.01300 0.28300
H 	H 	0.27860 0.38420 0.94960 0.37000
H 	H 	0.32700 0.37000 0.02170 0.32200
C 	C 	0.26480 0.37680 0.06830 0.36500
C 	C 	0.21930 0.32610 0.13510 0.28800
C 	C 	0.19110 0.27340 0.16080 -0.80900
H 	H 	0.16430 0.28820 0.18500 0.24300
H 	H 	0.21360 0.24920 0.20310 0.26500
H 	H 	0.17750 0.24910 0.11060 0.24000
C 	C 	0.11900 0.45170 0.36280 0.32800
C 	C 	0.10620 0.38850 0.38200 -0.92100
H 	H 	0.11980 0.37980 0.44220 0.31200
H 	H 	0.12010 0.36080 0.34700 0.28900
H 	H 	0.07030 0.38390 0.36930 0.30400
C 	C 	0.24210 0.35610 0.38740 0.33700
C 	C 	0.24540 0.29990 0.44510 -0.07300
C 	C 	0.28330 0.29380 0.51350 -0.02900
H 	H 	0.30750 0.32430 0.52460 0.04500
C 	C 	0.21080 0.25660 0.42880 -0.02700
H 	H 	0.18360 0.25910 0.38140 0.03000
C 	C 	0.16900 0.28690 0.88740 0.34500
C 	C 	0.13840 0.31820 0.80870 -0.07700
C 	C 	0.15750 0.34060 0.74450 -0.01800
H 	H 	0.19150 0.33490 0.74650 0.03800
C 	C 	0.08650 0.32320 0.80430 -0.03400
H 	H 	0.07160 0.30510 0.84520 0.04500
C 	C 	0.04700 0.42260 0.60310 0.34300
C 	C 	0.07880 0.38290 0.67200 -0.07700
C 	C 	0.12680 0.37340 0.67200 -0.02200
H 	H 	0.14040 0.38740 0.62680 0.04400
C 	C 	0.05830 0.35750 0.73390 -0.01500
H 	H 	0.02400 0.36280 0.73010 0.03300
Cu	Cu	0.68935 0.92414 0.24714 0.88300
N 	N 	0.75200 0.91390 0.12490 -0.28500
N 	N 	0.72260 0.88190 0.16710 -0.25000
N 	N 	0.74470 0.82190 0.07100 -0.32800
N 	N 	0.65230 0.96850 0.31770 -0.25300
O 	O 	0.70240 0.85590 0.32680 -0.43300
O 	O 	0.77430 0.89480 0.40040 -0.31100
O 	O 	0.56680 0.93840 0.54450 -0.40200
O 	O 	0.50330 0.93880 0.61420 -0.39600
O 	O 	0.71540 0.79500 0.89570 -0.40200
O 	O 	0.65190 0.75640 0.93660 -0.33500
C 	C 	0.79640 0.89300 0.00790 -1.11200
H 	H 	0.80410 0.93560 0.01300 0.30000
H 	H 	0.77860 0.88420 0.94960 0.38000
H 	H 	0.82700 0.87000 0.02170 0.33100
C 	C 	0.76480 0.87680 0.06830 0.37500
C 	C 	0.71930 0.82610 0.13510 0.29100
C 	C 	0.69110 0.77340 0.16080 -0.81500
H 	H 	0.66430 0.78820 0.18500 0.24700
H 	H 	0.71360 0.74920 0.20310 0.26800
H 	H 	0.67750 0.74910 0.11060 0.24300
C 	C 	0.61900 0.95170 0.36280 0.36500
C 	C 	0.60620 0.88850 0.38200 -0.95800
H 	H 	0.61980 0.87980 0.44220 0.32500
H 	H 	0.62010 0.86080 0.34700 0.30100
H 	H 	0.57030 0.88390 0.36930 0.31700
C 	C 	0.74210 0.85610 0.38740 0.33500
C 	C 	0.74540 0.79990 0.44510 -0.07100
C 	C 	0.78330 0.79380 0.51350 -0.02900
H 	H 	0.80750 0.82430 0.52460 0.04900
C 	C 	0.71080 0.75660 0.42880 -0.02700
H 	H 	0.68360 0.75910 0.38140 0.03100
C 	C 	0.66900 0.78690 0.88740 0.34700
C 	C 	0.63840 0.81820 0.80870 -0.07700
C 	C 	0.65750 0.84060 0.74450 -0.01500
H 	H 	0.69150 0.83490 0.74650 0.03900
C 	C 	0.58650 0.82320 0.80430 -0.03100
H 	H 	0.57160 0.80510 0.84520 0.04700
C 	C 	0.54700 0.92260 0.60310 0.34100
C 	C 	0.57880 0.88290 0.67200 -0.07200
C 	C 	0.62680 0.87340 0.67200 -0.02300
H 	H 	0.64040 0.88740 0.62680 0.04700
C 	C 	0.55830 0.85750 0.73390 -0.01500
H 	H 	0.52400 0.86280 0.73010 0.03500
Cu	Cu	0.18935 0.57586 0.24714 0.87500
N 	N 	0.25200 0.58610 0.12490 -0.29300
N 	N 	0.22260 0.61810 0.16710 -0.25400
N 	N 	0.24470 0.67810 0.07100 -0.32700
N 	N 	0.15230 0.53150 0.31770 -0.26400
O 	O 	0.20240 0.64410 0.32680 -0.43400
O 	O 	0.27430 0.60520 0.40040 -0.32100
O 	O 	0.06680 0.56160 0.54450 -0.41600
O 	O 	0.00330 0.56120 0.61420 -0.41000
O 	O 	0.21540 0.70500 0.89570 -0.40300
O 	O 	0.15190 0.74360 0.93660 -0.33400
C 	C 	0.29640 0.60700 0.00790 -1.09100
H 	H 	0.30410 0.56440 0.01300 0.28400
H 	H 	0.27860 0.61580 0.94960 0.37000
H 	H 	0.32700 0.63000 0.02170 0.32200
C 	C 	0.26480 0.62320 0.06830 0.36500
C 	C 	0.21930 0.67390 0.13510 0.29000
C 	C 	0.19110 0.72660 0.16080 -0.81800
H 	H 	0.16430 0.71180 0.18500 0.24700
H 	H 	0.21360 0.75080 0.20310 0.27000
H 	H 	0.17750 0.75090 0.11060 0.24500
C 	C 	0.11900 0.54830 0.36280 0.32900
C 	C 	0.10620 0.61150 0.38200 -0.92500
H 	H 	0.11980 0.62020 0.44220 0.31400
H 	H 	0.12010 0.63920 0.34700 0.29100
H 	H 	0.07030 0.61610 0.36930 0.30600
C 	C 	0.24210 0.64390 0.38740 0.33800
C 	C 	0.24540 0.70010 0.44510 -0.07700
C 	C 	0.28330 0.70620 0.51350 -0.02400
H 	H 	0.30750 0.67570 0.52460 0.04400
C 	C 	0.21080 0.74340 0.42880 -0.02100
H 	H 	0.18360 0.74090 0.38140 0.03000
C 	C 	0.16900 0.71310 0.88740 0.34500
C 	C 	0.13840 0.68180 0.80870 -0.07600
C 	C 	0.15750 0.65940 0.74450 -0.01900
H 	H 	0.19150 0.66510 0.74650 0.03800
C 	C 	0.08650 0.67680 0.80430 -0.03400
H 	H 	0.07160 0.69490 0.84520 0.04700
C 	C 	0.04700 0.57740 0.60310 0.34400
C 	C 	0.07880 0.61710 0.67200 -0.07700
C 	C 	0.12680 0.62660 0.67200 -0.02100
H 	H 	0.14040 0.61260 0.62680 0.04400
C 	C 	0.05830 0.64250 0.73390 -0.01300
H 	H 	0.02400 0.63720 0.73010 0.03300
Cu	Cu	0.68935 0.07586 0.24714 0.87200
N 	N 	0.75200 0.08610 0.12490 -0.29300
N 	N 	0.72260 0.11810 0.16710 -0.25500
N 	N 	0.74470 0.17810 0.07100 -0.32500
N 	N 	0.65230 0.03150 0.31770 -0.27600
O 	O 	0.70240 0.14410 0.32680 -0.43600
O 	O 	0.77430 0.10520 0.40040 -0.32800
O 	O 	0.56680 0.06160 0.54450 -0.42200
O 	O 	0.50330 0.06120 0.61420 -0.41600
O 	O 	0.71540 0.20500 0.89570 -0.40400
O 	O 	0.65190 0.24360 0.93660 -0.33600
C 	C 	0.79640 0.10700 0.00790 -1.06200
H 	H 	0.80410 0.06440 0.01300 0.26800
H 	H 	0.77860 0.11580 0.94960 0.35800
H 	H 	0.82700 0.13000 0.02170 0.31000
C 	C 	0.76480 0.12320 0.06830 0.35500
C 	C 	0.71930 0.17390 0.13510 0.28800
C 	C 	0.69110 0.22660 0.16080 -0.81200
H 	H 	0.66430 0.21180 0.18500 0.24400
H 	H 	0.71360 0.25080 0.20310 0.26700
H 	H 	0.67750 0.25090 0.11060 0.24100
C 	C 	0.61900 0.04830 0.36280 0.32100
C 	C 	0.60620 0.11150 0.38200 -0.91700
H 	H 	0.61980 0.12020 0.44220 0.31000
H 	H 	0.62010 0.13920 0.34700 0.28800
H 	H 	0.57030 0.11610 0.36930 0.30200
C 	C 	0.74210 0.14390 0.38740 0.33900
C 	C 	0.74540 0.20010 0.44510 -0.07800
C 	C 	0.78330 0.20620 0.51350 -0.02400
H 	H 	0.80750 0.17570 0.52460 0.04100
C 	C 	0.71080 0.24340 0.42880 -0.02200
H 	H 	0.68360 0.24090 0.38140 0.02900
C 	C 	0.66900 0.21310 0.88740 0.34500
C 	C 	0.63840 0.18180 0.80870 -0.07700
C 	C 	0.65750 0.15940 0.74450 -0.02100
H 	H 	0.69150 0.16510 0.74650 0.03700
C 	C 	0.58650 0.17680 0.80430 -0.03600
H 	H 	0.57160 0.19490 0.84520 0.04500
C 	C 	0.54700 0.07740 0.60310 0.34200
C 	C 	0.57880 0.11710 0.67200 -0.08000
C 	C 	0.62680 0.12660 0.67200 -0.02200
H 	H 	0.64040 0.11260 0.62680 0.04000
C 	C 	0.55830 0.14250 0.73390 -0.01400
H 	H 	0.52400 0.13720 0.73010 0.03100
Cu	Cu	0.81065 0.57586 0.75286 0.87800
N 	N 	0.74800 0.58610 0.87510 -0.26400
N 	N 	0.77740 0.61810 0.83290 -0.25500
N 	N 	0.75530 0.67810 0.92900 -0.28900
N 	N 	0.84770 0.53150 0.68230 -0.26300
O 	O 	0.79760 0.64410 0.67320 -0.43300
O 	O 	0.72570 0.60520 0.59960 -0.32100
O 	O 	0.93320 0.56160 0.45550 -0.41600
O 	O 	0.99670 0.56120 0.38580 -0.41300
O 	O 	0.78460 0.70500 0.10430 -0.42500
O 	O 	0.84810 0.74360 0.06340 -0.37700
C 	C 	0.70360 0.60700 0.99210 -0.63000
H 	H 	0.69590 0.56440 0.98700 0.17600
H 	H 	0.72140 0.61580 0.05040 0.17000
H 	H 	0.67300 0.63000 0.97830 0.21000
C 	C 	0.73520 0.62320 0.93170 0.26500
C 	C 	0.78070 0.67390 0.86490 0.31600
C 	C 	0.80890 0.72660 0.83920 -0.86800
H 	H 	0.83570 0.71180 0.81500 0.27100
H 	H 	0.78640 0.75080 0.79690 0.28700
H 	H 	0.82250 0.75090 0.88940 0.28000
C 	C 	0.88100 0.54830 0.63720 0.33300
C 	C 	0.89380 0.61150 0.61800 -0.93200
H 	H 	0.88020 0.62020 0.55780 0.31500
H 	H 	0.87990 0.63920 0.65300 0.29600
H 	H 	0.92970 0.61610 0.63070 0.31000
C 	C 	0.75790 0.64390 0.61260 0.33700
C 	C 	0.75460 0.70010 0.55490 -0.07600
C 	C 	0.71670 0.70620 0.48650 -0.02500
H 	H 	0.69250 0.67570 0.47540 0.04300
C 	C 	0.78920 0.74340 0.57120 -0.02200
H 	H 	0.81640 0.74090 0.61860 0.03200
C 	C 	0.83100 0.71310 0.11260 0.35200
C 	C 	0.86160 0.68180 0.19130 -0.09100
C 	C 	0.84250 0.65940 0.25550 -0.01300
H 	H 	0.80850 0.66510 0.25350 0.03500
C 	C 	0.91350 0.67680 0.19570 -0.03100
H 	H 	0.92840 0.69490 0.15480 0.03100
C 	C 	0.95300 0.57740 0.39690 0.34200
C 	C 	0.92120 0.61710 0.32800 -0.07400
C 	C 	0.87320 0.62660 0.32800 -0.02900
H 	H 	0.85960 0.61260 0.37320 0.04500
C 	C 	0.94170 0.64250 0.26610 -0.02300
H 	H 	0.97600 0.63720 0.26990 0.03000
Cu	Cu	0.31065 0.07586 0.75286 0.87500
N 	N 	0.24800 0.08610 0.87510 -0.26500
N 	N 	0.27740 0.11810 0.83290 -0.25600
N 	N 	0.25530 0.17810 0.92900 -0.28700
N 	N 	0.34770 0.03150 0.68230 -0.27500
O 	O 	0.29760 0.14410 0.67320 -0.43500
O 	O 	0.22570 0.10520 0.59960 -0.32800
O 	O 	0.43320 0.06160 0.45550 -0.42200
O 	O 	0.49670 0.06120 0.38580 -0.41800
O 	O 	0.28460 0.20500 0.10430 -0.42600
O 	O 	0.34810 0.24360 0.06340 -0.37900
C 	C 	0.20360 0.10700 0.99210 -0.60500
H 	H 	0.19590 0.06440 0.98700 0.16100
H 	H 	0.22140 0.11580 0.05040 0.15900
H 	H 	0.17300 0.13000 0.97830 0.20000
C 	C 	0.23520 0.12320 0.93170 0.25600
C 	C 	0.28070 0.17390 0.86490 0.31400
C 	C 	0.30890 0.22660 0.83920 -0.86200
H 	H 	0.33570 0.21180 0.81500 0.26800
H 	H 	0.28640 0.25080 0.79690 0.28400
H 	H 	0.32250 0.25090 0.88940 0.27700
C 	C 	0.38100 0.04830 0.63720 0.32600
C 	C 	0.39380 0.11150 0.61800 -0.92500
H 	H 	0.38020 0.12020 0.55780 0.31200
H 	H 	0.37990 0.13920 0.65300 0.29300
H 	H 	0.42970 0.11610 0.63070 0.30700
C 	C 	0.25790 0.14390 0.61260 0.33800
C 	C 	0.25460 0.20010 0.55490 -0.07800
C 	C 	0.21670 0.20620 0.48650 -0.02500
H 	H 	0.19250 0.17570 0.47540 0.04000
C 	C 	0.28920 0.24340 0.57120 -0.02300
H 	H 	0.31640 0.24090 0.61860 0.03100
C 	C 	0.33100 0.21310 0.11260 0.35100
C 	C 	0.36160 0.18180 0.19130 -0.09200
C 	C 	0.34250 0.15940 0.25550 -0.01500
H 	H 	0.30850 0.16510 0.25350 0.03300
C 	C 	0.41350 0.17680 0.19570 -0.03200
H 	H 	0.42840 0.19490 0.15480 0.02900
C 	C 	0.45300 0.07740 0.39690 0.34000
C 	C 	0.42120 0.11710 0.32800 -0.07800
C 	C 	0.37320 0.12660 0.32800 -0.03000
H 	H 	0.35960 0.11260 0.37320 0.04200
C 	C 	0.44170 0.14250 0.26610 -0.02400
H 	H 	0.47600 0.13720 0.26990 0.02800
Cu	Cu	0.73927 0.50000 0.84891 0.82500
Cu	Cu	0.96182 0.50000 0.54203 0.92300
N 	N 	0.90290 0.50000 0.60620 -0.28800
O 	O 	0.80630 0.50000 0.81830 -0.70900
H 	H 	0.83330 0.50000 0.86300 0.19200
Cu	Cu	0.23927 0.00000 0.84891 0.81400
Cu	Cu	0.46182 0.00000 0.54203 0.91100
N 	N 	0.40290 0.00000 0.60620 -0.31000
O 	O 	0.30630 0.00000 0.81830 -0.72200
H 	H 	0.33330 0.00000 0.86300 0.18600
Cu	Cu	0.26073 0.50000 0.15109 0.81800
Cu	Cu	0.03818 0.50000 0.45797 0.92300
N 	N 	0.09710 0.50000 0.39380 -0.28700
O 	O 	0.19370 0.50000 0.18170 -0.70900
H 	H 	0.16670 0.50000 0.13700 0.17600
Cu	Cu	0.76073 0.00000 0.15109 0.80700
Cu	Cu	0.53818 0.00000 0.45797 0.91000
N 	N 	0.59710 0.00000 0.39380 -0.30900
O 	O 	0.69370 0.00000 0.18170 -0.72300
H 	H 	0.66670 0.00000 0.13700 0.17000
Cu	Cu	0.75000 0.25000 -0.00000 0.88700
Cu	Cu	0.25000 0.25000 -0.00000 0.88700
Cu	Cu	0.25000 0.75000 -0.00000 0.88700
Cu	Cu	0.75000 0.75000 -0.00000 0.88800
