data_crystal

_cell_length_a 11.41640
_cell_length_b 7.19850
_cell_length_c 6.64050
_cell_angle_alpha 90.00000
_cell_angle_beta  109.82900
_cell_angle_gamma 90.00000

_symmetry_space_group_name_	'P 1'
_symmetry_space_group_name_H-M	'P 1'

loop_
_symmetry_equiv_pos_as_xyz
  x,y,z

loop_
_atom_site_label
_atom_site_type_symbol
_atom_site_fract_x
_atom_site_fract_y
_atom_site_fract_z
_atom_site_charge
O 	O 	0.99140 0.52950 0.66170 -0.14200
O 	O 	0.82640 0.47630 0.88200 -0.42500
O 	O 	0.65430 0.33850 0.88240 -0.51100
C 	C 	0.76350 0.38090 0.96440 0.89000
H 	H 	0.80400 0.33750 0.10260 -0.33600
O 	O 	0.49140 0.02950 0.66170 -0.43100
O 	O 	0.32640 0.97630 0.88200 -0.45500
O 	O 	0.15430 0.83850 0.88240 -0.50900
C 	C 	0.26350 0.88090 0.96440 0.90400
H 	H 	0.30400 0.83750 0.10260 -0.34100
O 	O 	0.00860 0.52950 0.33830 -0.41000
O 	O 	0.17360 0.47630 0.11800 -0.43200
O 	O 	0.34570 0.33850 0.11760 -0.45100
C 	C 	0.23650 0.38090 0.03560 0.24800
H 	H 	0.19600 0.33750 0.89740 0.00300
O 	O 	0.50860 0.02950 0.33830 -0.48300
O 	O 	0.67360 0.97630 0.11800 -0.34700
O 	O 	0.84570 0.83850 0.11760 -0.31400
C 	C 	0.73650 0.88090 0.03560 0.21000
H 	H 	0.69600 0.83750 0.89740 0.07600
Eu	Eu	-0.00000 0.67660 -0.00000 1.26100
Eu	Eu	0.50000 0.17660 -0.00000 1.48700
C 	C 	-0.00000 0.60830 0.50000 0.21300
H 	H 	-0.00000 0.73750 0.50000 -0.07700
C 	C 	0.50000 0.10830 0.50000 0.52700
H 	H 	0.50000 0.23750 0.50000 -0.15500
