data_crystal

_cell_length_a 11.17200
_cell_length_b 7.10200
_cell_length_c 6.53900
_cell_angle_alpha 90.00000
_cell_angle_beta  109.47200
_cell_angle_gamma 90.00000

_symmetry_space_group_name_	'P 1'
_symmetry_space_group_name_H-M	'P 1'

loop_
_symmetry_equiv_pos_as_xyz
  x,y,z

loop_
_atom_site_label
_atom_site_type_symbol
_atom_site_fract_x
_atom_site_fract_y
_atom_site_fract_z
_atom_site_charge
O 	O 	0.50710 0.09830 0.33460 -0.42200
O 	O 	0.67040 0.14870 0.11470 -0.31800
O 	O 	0.84610 0.29360 0.11820 -0.30100
C 	C 	0.73560 0.24720 0.03360 0.15900
H 	H 	0.69530 0.28980 0.89290 0.08700
O 	O 	0.00710 0.59830 0.33460 -0.41100
O 	O 	0.17040 0.64870 0.11470 -0.44000
O 	O 	0.34610 0.79360 0.11820 -0.44900
C 	C 	0.23560 0.74720 0.03360 0.20000
H 	H 	0.19530 0.78980 0.89290 0.00700
O 	O 	0.49290 0.09830 0.66540 -0.37400
O 	O 	0.32960 0.14870 0.88530 -0.42300
O 	O 	0.15390 0.29360 0.88180 -0.50000
C 	C 	0.26440 0.24720 0.96640 0.84500
H 	H 	0.30470 0.28980 0.10710 -0.32400
O 	O 	0.99290 0.59830 0.66540 -0.13000
O 	O 	0.82960 0.64870 0.88530 -0.42300
O 	O 	0.65390 0.79360 0.88180 -0.50500
C 	C 	0.76440 0.74720 0.96640 0.82900
H 	H 	0.80470 0.78980 0.10710 -0.32000
Tm	Tm	0.50000 0.95252 -0.00000 1.35600
Tm	Tm	0.00000 0.45252 -0.00000 1.33900
C 	C 	0.50000 0.01620 0.50000 0.70100
H 	H 	0.50000 0.88520 0.50000 -0.27600
C 	C 	0.00000 0.51620 0.50000 0.15500
H 	H 	0.00000 0.38520 0.50000 -0.06200
