data_crystal

_cell_length_a 11.24870
_cell_length_b 7.12960
_cell_length_c 6.57310
_cell_angle_alpha 90.00000
_cell_angle_beta  109.51000
_cell_angle_gamma 90.00000

_symmetry_space_group_name_	'P 1'
_symmetry_space_group_name_H-M	'P 1'

loop_
_symmetry_equiv_pos_as_xyz
  x,y,z

loop_
_atom_site_label
_atom_site_type_symbol
_atom_site_fract_x
_atom_site_fract_y
_atom_site_fract_z
_atom_site_charge
O 	O 	0.99250 0.75930 0.66470 -0.16400
O 	O 	0.17060 0.70700 0.11450 -0.41600
O 	O 	0.34630 0.56420 0.11780 -0.44800
C 	C 	0.23580 0.60930 0.03510 0.25700
H 	H 	0.19550 0.56520 0.89580 0.01500
O 	O 	0.49250 0.25930 0.66470 -0.36500
O 	O 	0.67060 0.20700 0.11450 -0.37800
O 	O 	0.84630 0.06420 0.11780 -0.25500
C 	C 	0.73580 0.10930 0.03510 0.22500
H 	H 	0.69550 0.06520 0.89580 0.08000
O 	O 	0.00750 0.75930 0.33530 -0.38600
O 	O 	0.82940 0.70700 0.88550 -0.41200
O 	O 	0.65370 0.56420 0.88220 -0.50000
C 	C 	0.76420 0.60930 0.96490 0.83600
H 	H 	0.80450 0.56520 0.10420 -0.29500
O 	O 	0.50750 0.25930 0.33530 -0.41100
O 	O 	0.32940 0.20700 0.88550 -0.46400
O 	O 	0.15370 0.06420 0.88220 -0.41100
C 	C 	0.26420 0.10930 0.96490 0.83800
H 	H 	0.30450 0.06520 0.10420 -0.28800
Ho	Ho	-0.00000 0.90470 -0.00000 0.99500
Ho	Ho	0.50000 0.40470 -0.00000 1.45700
C 	C 	0.00000 0.83790 0.50000 0.24300
H 	H 	0.00000 0.96840 0.50000 -0.12000
C 	C 	0.50000 0.33790 0.50000 0.51700
H 	H 	0.50000 0.46840 0.50000 -0.15000
