data_crystal

_cell_length_a 11.08100
_cell_length_b 7.02260
_cell_length_c 6.48500
_cell_angle_alpha 90.00000
_cell_angle_beta  109.12900
_cell_angle_gamma 90.00000

_symmetry_space_group_name_	'P 1'
_symmetry_space_group_name_H-M	'P 1'

loop_
_symmetry_equiv_pos_as_xyz
  x,y,z

loop_
_atom_site_label
_atom_site_type_symbol
_atom_site_fract_x
_atom_site_fract_y
_atom_site_fract_z
_atom_site_charge
O 	O 	0.99380 0.32910 0.66710 -0.11900
O 	O 	0.82930 0.37450 0.88480 -0.34700
O 	O 	0.65220 0.52010 0.87800 -0.40000
C 	C 	0.76430 0.47580 0.96570 0.71200
H 	H 	0.80460 0.52230 0.10580 -0.22700
O 	O 	0.49380 0.82910 0.66710 -0.32600
O 	O 	0.32930 0.87450 0.88480 -0.36800
O 	O 	0.15220 0.02010 0.87800 -0.34500
C 	C 	0.26430 0.97580 0.96570 0.53900
H 	H 	0.30460 0.02230 0.10580 -0.16300
O 	O 	0.00620 0.32910 0.33290 -0.33900
O 	O 	0.17070 0.37450 0.11520 -0.36100
O 	O 	0.34780 0.52010 0.12200 -0.35700
C 	C 	0.23570 0.47580 0.03430 0.23700
H 	H 	0.19540 0.52230 0.89420 0.01700
O 	O 	0.50620 0.82910 0.33290 -0.36400
O 	O 	0.67070 0.87450 0.11520 -0.28900
O 	O 	0.84780 0.02010 0.12200 -0.19600
C 	C 	0.73570 0.97580 0.03430 0.01800
H 	H 	0.69540 0.02230 0.89420 0.15200
Lu	Lu	-0.00000 0.18130 -0.00000 0.95700
Lu	Lu	0.50000 0.68130 -0.00000 1.08600
C 	C 	0.00000 0.24640 0.50000 0.19700
H 	H 	0.00000 0.11390 0.50000 -0.04800
C 	C 	0.50000 0.74640 0.50000 0.42700
H 	H 	0.50000 0.61390 0.50000 -0.09300
