data_crystal

_cell_length_a 11.12700
_cell_length_b 7.08700
_cell_length_c 6.51830
_cell_angle_alpha 90.00000
_cell_angle_beta  109.33400
_cell_angle_gamma 90.00000

_symmetry_space_group_name_	'P 1'
_symmetry_space_group_name_H-M	'P 1'

loop_
_symmetry_equiv_pos_as_xyz
  x,y,z

loop_
_atom_site_label
_atom_site_type_symbol
_atom_site_fract_x
_atom_site_fract_y
_atom_site_fract_z
_atom_site_charge
O 	O 	0.00720 0.78850 0.33400 -0.38500
O 	O 	0.83060 0.83800 0.88600 -0.38400
O 	O 	0.65480 0.98300 0.88000 -0.39200
C 	C 	0.76330 0.93500 0.96600 0.80400
H 	H 	0.80190 0.97600 0.10800 -0.24300
O 	O 	0.50720 0.28850 0.33400 -0.43300
O 	O 	0.33060 0.33800 0.88600 -0.51900
O 	O 	0.15480 0.48300 0.88000 -0.56700
C 	C 	0.26330 0.43500 0.96600 0.90100
H 	H 	0.30190 0.47600 0.10800 -0.36200
O 	O 	0.99280 0.78850 0.66600 -0.10600
O 	O 	0.16940 0.83800 0.11400 -0.40700
O 	O 	0.34520 0.98300 0.12000 -0.33000
C 	C 	0.23670 0.93500 0.03400 0.19700
H 	H 	0.19810 0.97600 0.89200 0.06700
O 	O 	0.49280 0.28850 0.66600 -0.38000
O 	O 	0.66940 0.33800 0.11400 -0.41200
O 	O 	0.84520 0.48300 0.12000 -0.35300
C 	C 	0.73670 0.43500 0.03400 0.17100
H 	H 	0.69810 0.47600 0.89200 0.07300
Yb	Yb	-0.00000 0.64300 -0.00000 1.34300
Yb	Yb	0.50000 0.14300 -0.00000 1.36900
C 	C 	-0.00000 0.70800 0.50000 0.16800
H 	H 	-0.00000 0.57660 0.50000 -0.08600
C 	C 	0.50000 0.20800 0.50000 0.45300
H 	H 	0.50000 0.07660 0.50000 -0.18700
