data_crystal

_cell_length_a 20.10490
_cell_length_b 12.75750
_cell_length_c 14.42700
_cell_angle_alpha 90.00000
_cell_angle_beta  90.00000
_cell_angle_gamma 90.00000

_symmetry_space_group_name_	'P 1'
_symmetry_space_group_name_H-M	'P 1'

loop_
_symmetry_equiv_pos_as_xyz
  x,y,z

loop_
_atom_site_label
_atom_site_type_symbol
_atom_site_fract_x
_atom_site_fract_y
_atom_site_fract_z
_atom_site_charge
Zn	Zn	0.23262 0.70643 0.33937 1.17700
Zn	Zn	0.26797 0.53213 0.17437 1.12200
N 	N 	0.17100 0.56860 0.15690 -0.32500
N 	N 	0.27510 0.48860 0.30750 -0.29300
N 	N 	0.18370 0.16900 0.82620 -0.29600
N 	N 	0.06990 0.56550 0.08340 -0.25300
O 	O 	0.04740 0.36920 0.96190 -0.50000
C 	C 	0.07020 0.64040 0.15450 -0.05000
N 	N 	0.25540 0.55940 0.37390 -0.27200
N 	N 	0.19890 0.23770 0.75790 -0.27700
O 	O 	0.26600 0.34550 0.59320 -0.45800
O 	O 	0.30500 0.23350 0.49290 -0.36200
C 	C 	0.13970 0.21370 0.88260 0.09100
H 	H 	0.12130 0.18230 0.93480 -0.05300
C 	C 	0.25700 0.50860 0.45590 0.10100
H 	H 	0.24610 0.53830 0.51280 -0.00300
C 	C 	0.27720 0.40690 0.44330 -0.18400
C 	C 	0.12980 0.63950 0.19790 0.09800
C 	C 	0.16490 0.32340 0.77410 0.10900
H 	H 	0.16740 0.38320 0.73740 -0.01700
C 	C 	0.08120 0.39660 0.89170 0.40900
N 	N 	0.14430 0.70070 0.27230 -0.30700
C 	C 	0.13290 0.52480 0.09020 0.05900
H 	H 	0.14820 0.47140 0.05190 -0.05600
N 	N 	0.96210 0.72580 0.13880 -0.29000
H 	H 	0.93500 0.77410 0.15610 0.15000
H 	H 	0.95220 0.68620 0.09250 0.14700
C 	C 	0.12530 0.31510 0.85130 -0.19600
C 	C 	0.09440 0.76300 0.29620 0.09400
H 	H 	0.10150 0.80480 0.34810 -0.01900
O 	O 	0.07960 0.48160 0.86260 -0.40400
C 	C 	0.28660 0.39970 0.35080 0.11300
H 	H 	0.29970 0.33850 0.32090 -0.04500
C 	C 	0.02100 0.71200 0.18470 0.10100
N 	N 	0.03500 0.77330 0.25500 -0.15900
C 	C 	0.28360 0.32510 0.51070 0.34700
Zn	Zn	0.76738 0.29357 0.33937 1.17600
Zn	Zn	0.73203 0.46787 0.17437 1.12300
N 	N 	0.82900 0.43140 0.15690 -0.32500
N 	N 	0.72490 0.51140 0.30750 -0.29100
N 	N 	0.81630 0.83100 0.82620 -0.28300
N 	N 	0.93010 0.43450 0.08340 -0.23300
O 	O 	0.95260 0.63080 0.96190 -0.46100
C 	C 	0.92980 0.35960 0.15450 -0.05600
N 	N 	0.74460 0.44060 0.37390 -0.27000
N 	N 	0.80110 0.76230 0.75790 -0.27000
O 	O 	0.73400 0.65450 0.59320 -0.45300
O 	O 	0.69500 0.76650 0.49290 -0.34900
C 	C 	0.86030 0.78630 0.88260 0.09400
H 	H 	0.87870 0.81770 0.93480 -0.03200
C 	C 	0.74300 0.49140 0.45590 0.10200
H 	H 	0.75390 0.46170 0.51280 0.00000
C 	C 	0.72280 0.59310 0.44330 -0.17600
C 	C 	0.87020 0.36050 0.19790 0.10600
C 	C 	0.83510 0.67660 0.77410 0.11000
H 	H 	0.83260 0.61680 0.73740 -0.00800
C 	C 	0.91880 0.60340 0.89170 0.40300
N 	N 	0.85570 0.29930 0.27230 -0.30800
C 	C 	0.86710 0.47520 0.09020 0.06400
H 	H 	0.85180 0.52860 0.05190 -0.05400
N 	N 	0.03790 0.27420 0.13880 -0.33800
H 	H 	0.06500 0.22590 0.15610 0.12900
H 	H 	0.04780 0.31380 0.09250 0.13700
C 	C 	0.87470 0.68490 0.85130 -0.17700
C 	C 	0.90560 0.23700 0.29620 0.10000
H 	H 	0.89850 0.19520 0.34810 -0.01800
O 	O 	0.92040 0.51840 0.86260 -0.37300
C 	C 	0.71340 0.60030 0.35080 0.11300
H 	H 	0.70030 0.66150 0.32090 -0.03600
C 	C 	0.97900 0.28800 0.18470 0.17500
N 	N 	0.96500 0.22670 0.25500 -0.15900
C 	C 	0.71640 0.67490 0.51070 0.34700
Zn	Zn	0.26738 0.20643 0.66063 1.17400
Zn	Zn	0.23203 0.03213 0.82563 1.11100
N 	N 	0.32900 0.06860 0.84310 -0.32100
N 	N 	0.22490 0.98860 0.69250 -0.26800
N 	N 	0.31630 0.66900 0.17380 -0.29000
N 	N 	0.43010 0.06550 0.91660 -0.24200
O 	O 	0.45260 0.86920 0.03810 -0.47100
C 	C 	0.42980 0.14040 0.84550 -0.05400
N 	N 	0.24460 0.05940 0.62610 -0.27700
N 	N 	0.30110 0.73770 0.24210 -0.27200
O 	O 	0.23400 0.84550 0.40680 -0.44300
O 	O 	0.19500 0.73350 0.50710 -0.35300
C 	C 	0.36030 0.71370 0.11740 0.09100
H 	H 	0.37870 0.68230 0.06520 -0.04100
C 	C 	0.24300 0.00860 0.54410 0.03200
H 	H 	0.25390 0.03830 0.48720 0.00900
C 	C 	0.22280 0.90690 0.55670 -0.11900
C 	C 	0.37020 0.13950 0.80210 0.09900
C 	C 	0.33510 0.82340 0.22590 0.10800
H 	H 	0.33260 0.88320 0.26260 -0.00600
C 	C 	0.41880 0.89660 0.10830 0.40100
N 	N 	0.35570 0.20070 0.72770 -0.30900
C 	C 	0.36710 0.02480 0.90980 -0.00600
H 	H 	0.35180 0.97140 0.94810 -0.01000
N 	N 	0.53790 0.22580 0.86120 -0.31300
H 	H 	0.56500 0.27410 0.84390 0.13800
H 	H 	0.54780 0.18620 0.90750 0.13900
C 	C 	0.37470 0.81510 0.14870 -0.17900
C 	C 	0.40560 0.26300 0.70380 0.09500
H 	H 	0.39850 0.30480 0.65190 -0.01900
O 	O 	0.42040 0.98160 0.13740 -0.36800
C 	C 	0.21340 0.89970 0.64920 0.09200
H 	H 	0.20030 0.83850 0.67910 -0.03200
C 	C 	0.47900 0.21200 0.81530 0.13300
N 	N 	0.46500 0.27330 0.74500 -0.15900
C 	C 	0.21640 0.82510 0.48930 0.32600
Zn	Zn	0.73262 0.79357 0.66063 1.17800
Zn	Zn	0.76797 0.96787 0.82563 1.13200
N 	N 	0.67100 0.93140 0.84310 -0.33000
N 	N 	0.77510 0.01140 0.69250 -0.31700
N 	N 	0.68370 0.33100 0.17380 -0.29100
N 	N 	0.56990 0.93450 0.91660 -0.24400
O 	O 	0.54740 0.13080 0.03810 -0.49300
C 	C 	0.57020 0.85960 0.84550 -0.05100
N 	N 	0.75540 0.94060 0.62610 -0.26500
N 	N 	0.69890 0.26230 0.24210 -0.27500
O 	O 	0.76600 0.15450 0.40680 -0.46700
O 	O 	0.80500 0.26650 0.50710 -0.35700
C 	C 	0.63970 0.28630 0.11740 0.09400
H 	H 	0.62130 0.31770 0.06520 -0.04400
C 	C 	0.75700 0.99140 0.54410 0.16700
H 	H 	0.74610 0.96170 0.48720 -0.01100
C 	C 	0.77720 0.09310 0.55670 -0.23600
C 	C 	0.62980 0.86050 0.80210 0.10500
C 	C 	0.66490 0.17660 0.22590 0.11100
H 	H 	0.66740 0.11680 0.26260 -0.01900
C 	C 	0.58120 0.10340 0.10830 0.41100
N 	N 	0.64430 0.79930 0.72770 -0.30600
C 	C 	0.63290 0.97520 0.90980 0.12700
H 	H 	0.64820 0.02860 0.94810 -0.09800
N 	N 	0.46210 0.77420 0.86120 -0.31400
H 	H 	0.43500 0.72590 0.84390 0.14100
H 	H 	0.45220 0.81380 0.90750 0.14600
C 	C 	0.62530 0.18490 0.14870 -0.19300
C 	C 	0.59440 0.73700 0.70380 0.09900
H 	H 	0.60150 0.69520 0.65190 -0.01800
O 	O 	0.57960 0.01840 0.13740 -0.41000
C 	C 	0.78660 0.10030 0.64920 0.13200
H 	H 	0.79970 0.16150 0.67910 -0.04700
C 	C 	0.52100 0.78800 0.81530 0.14200
N 	N 	0.53500 0.72670 0.74500 -0.15800
C 	C 	0.78360 0.17490 0.48930 0.36600
Zn	Zn	-0.00000 0.50000 0.99806 1.19300
Zn	Zn	0.50000 0.00000 0.00194 1.19600
