data_crystal

_cell_length_a 11.78650
_cell_length_b 16.71600
_cell_length_c 52.89200
_cell_angle_alpha 90.00000
_cell_angle_beta  90.00000
_cell_angle_gamma 90.00000

_symmetry_space_group_name_	'P 1'
_symmetry_space_group_name_H-M	'P 1'

loop_
_symmetry_equiv_pos_as_xyz
  x,y,z

loop_
_atom_site_label
_atom_site_type_symbol
_atom_site_fract_x
_atom_site_fract_y
_atom_site_fract_z
_atom_site_charge
C 	C 	0.81230 0.43670 0.85722 0.35400
C 	C 	0.77200 0.50390 0.87345 -0.08500
C 	C 	0.69670 0.55940 0.86376 -0.01700
H 	H 	0.66920 0.55330 0.84740 0.04500
C 	C 	0.66220 0.62330 0.87801 -0.02100
H 	H 	0.60920 0.65920 0.87160 0.03200
C 	C 	0.70690 0.63420 0.90208 -0.08900
C 	C 	0.78170 0.57960 0.91162 -0.01400
H 	H 	0.81100 0.58700 0.92780 0.04600
C 	C 	0.81480 0.51350 0.89765 -0.02500
H 	H 	0.86480 0.47620 0.90440 0.03600
C 	C 	0.67070 0.70430 0.91750 0.35800
C 	C 	0.05970 0.20750 0.82965 0.34000
C 	C 	0.13980 0.13850 0.83320 -0.08300
C 	C 	0.14540 0.09890 0.85579 -0.01700
H 	H 	0.09950 0.11470 0.86920 0.04600
C 	C 	0.21910 0.03540 0.85875 -0.01600
H 	H 	0.22110 0.00860 0.87420 0.05000
C 	C 	0.28960 0.01060 0.83957 -0.07800
C 	C 	0.28080 0.04880 0.81639 -0.01800
H 	H 	0.32590 0.03210 0.80300 0.04800
C 	C 	0.20610 0.11110 0.81303 -0.01900
H 	H 	0.19960 0.13510 0.79720 0.04400
C 	C 	0.37280 0.94140 0.84315 0.38900
C 	C 	0.86940 0.31350 0.76371 0.12300
H 	H 	0.92270 0.27330 0.76630 -0.02200
C 	C 	0.81570 0.31570 0.74012 -0.21900
H 	H 	0.83610 0.27960 0.72750 0.11500
C 	C 	0.73360 0.37080 0.73570 0.16100
C 	C 	0.71590 0.42430 0.75467 -0.21300
H 	H 	0.66400 0.46580 0.75260 0.10300
C 	C 	0.77580 0.41650 0.77697 0.12100
H 	H 	0.76040 0.45380 0.78960 -0.01400
C 	C 	0.66770 0.37390 0.71185 -0.10800
C 	C 	0.69980 0.32860 0.69103 0.06400
H 	H 	0.76340 0.29590 0.69230 0.00900
C 	C 	0.64100 0.33030 0.66847 -0.18000
H 	H 	0.66560 0.29950 0.65490 0.09600
C 	C 	0.54560 0.37760 0.66608 0.16500
C 	C 	0.51360 0.42370 0.68690 -0.17900
H 	H 	0.45060 0.45700 0.68570 0.10500
C 	C 	0.57360 0.42070 0.70917 0.06900
H 	H 	0.54930 0.45140 0.72280 0.00200
C 	C 	0.50000 0.36020 0.61961 0.18700
C 	C 	0.40650 0.34230 0.60447 -0.20900
H 	H 	0.33400 0.34540 0.61130 0.11400
C 	C 	0.41920 0.32060 0.58000 0.10000
H 	H 	0.35520 0.31020 0.57030 -0.01900
C 	C 	0.52710 0.31350 0.56897 -0.13500
C 	C 	0.61880 0.33200 0.58468 0.09800
H 	H 	0.69160 0.32920 0.57800 -0.00300
C 	C 	0.60660 0.35400 0.60928 -0.21400
H 	H 	0.67030 0.36470 0.61910 0.11200
C 	C 	0.46480 0.25300 0.50224 0.12700
H 	H 	0.40070 0.24750 0.49210 -0.01900
C 	C 	0.44900 0.28160 0.52638 -0.21600
H 	H 	0.37740 0.29790 0.53170 0.09300
C 	C 	0.54050 0.28610 0.54263 0.19000
C 	C 	0.63940 0.27000 0.53193 -0.25800
H 	H 	0.70630 0.27860 0.54080 0.13000
C 	C 	0.64360 0.24030 0.50736 0.17900
H 	H 	0.71450 0.22420 0.50160 -0.05100
C 	C 	0.13850 0.20660 0.92366 0.40000
C 	C 	0.21510 0.13530 0.92735 -0.09700
C 	C 	0.19660 0.08530 0.94748 -0.00700
H 	H 	0.13670 0.09540 0.95850 0.04200
C 	C 	0.26610 0.01980 0.95158 -0.02600
H 	H 	0.25460 0.98710 0.96560 0.04900
C 	C 	0.35270 0.00320 0.93473 -0.08100
C 	C 	0.37050 0.05420 0.91509 -0.02400
H 	H 	0.42970 0.04430 0.90390 0.04500
C 	C 	0.30270 0.11960 0.91151 -0.00500
H 	H 	0.31700 0.15380 0.89800 0.04600
C 	C 	0.42610 0.93270 0.93931 0.34000
Cd	Cd	0.91535 0.33579 0.82221 1.21300
Cd	Cd	0.02490 0.32415 0.88513 1.24500
Cd	Cd	0.56716 0.80678 0.95058 1.21500
N 	N 	0.85170 0.36220 0.78221 -0.26400
N 	N 	0.56310 0.23260 0.49220 -0.27400
N 	N 	0.47660 0.38360 0.64448 -0.16200
O 	O 	0.78050 0.43370 0.83476 -0.39600
O 	O 	0.87540 0.38260 0.86608 -0.50000
O 	O 	0.62210 0.76141 0.90693 -0.48900
O 	O 	0.69060 0.70462 0.94070 -0.40900
O 	O 	0.01740 0.24122 0.84882 -0.49800
O 	O 	0.03520 0.23020 0.80783 -0.40400
O 	O 	0.36620 0.90806 0.86437 -0.44600
O 	O 	0.44040 0.92676 0.82610 -0.43800
O 	O 	0.48480 0.90376 0.92158 -0.49800
O 	O 	0.43020 0.90330 0.96091 -0.39700
O 	O 	0.07790 0.22400 0.94215 -0.44500
O 	O 	0.14240 0.24051 0.90306 -0.45400
C 	C 	0.68770 0.06330 0.35722 0.35500
C 	C 	0.72800 0.99610 0.37345 -0.08500
C 	C 	0.80330 0.94060 0.36376 -0.01400
H 	H 	0.83080 0.94670 0.34740 0.04700
C 	C 	0.83780 0.87670 0.37801 -0.02200
H 	H 	0.89080 0.84080 0.37160 0.03500
C 	C 	0.79310 0.86580 0.40208 -0.08600
C 	C 	0.71830 0.92040 0.41162 -0.01500
H 	H 	0.68900 0.91300 0.42780 0.04600
C 	C 	0.68520 0.98650 0.39765 -0.02200
H 	H 	0.63520 0.02380 0.40440 0.03300
C 	C 	0.82930 0.79570 0.41750 0.35800
C 	C 	0.44030 0.29250 0.32965 0.34000
C 	C 	0.36020 0.36150 0.33320 -0.08000
C 	C 	0.35460 0.40110 0.35579 -0.02000
H 	H 	0.40050 0.38530 0.36920 0.04700
C 	C 	0.28090 0.46460 0.35875 -0.01400
H 	H 	0.27890 0.49140 0.37420 0.05000
C 	C 	0.21040 0.48940 0.33957 -0.08100
C 	C 	0.21920 0.45120 0.31639 -0.01600
H 	H 	0.17410 0.46790 0.30300 0.04700
C 	C 	0.29390 0.38890 0.31303 -0.02100
H 	H 	0.30040 0.36490 0.29720 0.04500
C 	C 	0.12720 0.55860 0.34315 0.39100
C 	C 	0.63060 0.18650 0.26371 0.12200
H 	H 	0.57730 0.22670 0.26630 -0.02400
C 	C 	0.68430 0.18430 0.24012 -0.21700
H 	H 	0.66390 0.22040 0.22750 0.11400
C 	C 	0.76640 0.12920 0.23570 0.15800
C 	C 	0.78410 0.07570 0.25467 -0.21100
H 	H 	0.83600 0.03420 0.25260 0.10300
C 	C 	0.72420 0.08350 0.27697 0.12000
H 	H 	0.73960 0.04620 0.28960 -0.01400
C 	C 	0.83230 0.12610 0.21185 -0.10100
C 	C 	0.80020 0.17140 0.19103 0.05900
H 	H 	0.73660 0.20410 0.19230 0.01100
C 	C 	0.85900 0.16970 0.16847 -0.17500
H 	H 	0.83440 0.20050 0.15490 0.09500
C 	C 	0.95440 0.12240 0.16608 0.16200
C 	C 	0.98640 0.07630 0.18690 -0.16000
H 	H 	0.04940 0.04300 0.18570 0.09400
C 	C 	0.92640 0.07930 0.20917 0.05800
H 	H 	0.95070 0.04860 0.22280 0.00800
C 	C 	-0.00000 0.13980 0.11961 0.16600
C 	C 	0.09350 0.15770 0.10447 -0.19000
H 	H 	0.16600 0.15460 0.11130 0.10700
C 	C 	0.08080 0.17940 0.08000 0.07500
H 	H 	0.14480 0.18980 0.07030 -0.01100
C 	C 	0.97290 0.18650 0.06897 -0.11600
C 	C 	0.88120 0.16800 0.08468 0.08000
H 	H 	0.80840 0.17080 0.07800 0.00400
C 	C 	0.89340 0.14600 0.10928 -0.18800
H 	H 	0.82970 0.13530 0.11910 0.10400
C 	C 	0.03520 0.24700 0.00224 0.12100
H 	H 	0.09930 0.25250 0.99210 -0.01700
C 	C 	0.05100 0.21840 0.02638 -0.21800
H 	H 	0.12260 0.20210 0.03170 0.09200
C 	C 	0.95950 0.21390 0.04263 0.18900
C 	C 	0.86060 0.23000 0.03193 -0.25500
H 	H 	0.79370 0.22140 0.04080 0.12900
C 	C 	0.85640 0.25970 0.00736 0.17800
H 	H 	0.78550 0.27580 0.00160 -0.05100
C 	C 	0.36150 0.29340 0.42366 0.40000
C 	C 	0.28490 0.36470 0.42735 -0.09500
C 	C 	0.30340 0.41470 0.44748 -0.00800
H 	H 	0.36330 0.40460 0.45850 0.04300
C 	C 	0.23390 0.48020 0.45158 -0.02500
H 	H 	0.24540 0.51290 0.46560 0.04900
C 	C 	0.14730 0.49680 0.43473 -0.08300
C 	C 	0.12950 0.44580 0.41509 -0.02200
H 	H 	0.07030 0.45570 0.40390 0.04400
C 	C 	0.19730 0.38040 0.41151 -0.00700
H 	H 	0.18300 0.34620 0.39800 0.04600
C 	C 	0.07390 0.56730 0.43931 0.34100
Cd	Cd	0.58465 0.16421 0.32221 1.21100
Cd	Cd	0.47510 0.17585 0.38513 1.24600
Cd	Cd	0.93284 0.69322 0.45058 1.21700
N 	N 	0.64830 0.13780 0.28221 -0.26500
N 	N 	0.93690 0.26740 0.99220 -0.27000
N 	N 	0.02340 0.11640 0.14448 -0.16100
O 	O 	0.71950 0.06630 0.33476 -0.39600
O 	O 	0.62460 0.11740 0.36608 -0.50200
O 	O 	0.87790 0.73859 0.40693 -0.48700
O 	O 	0.80940 0.79538 0.44070 -0.40800
O 	O 	0.48260 0.25878 0.34882 -0.49500
O 	O 	0.46480 0.26980 0.30783 -0.40100
O 	O 	0.13380 0.59194 0.36437 -0.44700
O 	O 	0.05960 0.57324 0.32610 -0.44100
O 	O 	0.01520 0.59624 0.42158 -0.50000
O 	O 	0.06980 0.59670 0.46091 -0.40000
O 	O 	0.42210 0.27600 0.44215 -0.44300
O 	O 	0.35760 0.25949 0.40306 -0.45300
C 	C 	0.81230 0.56330 0.35722 0.35500
C 	C 	0.77200 0.49610 0.37345 -0.08400
C 	C 	0.69670 0.44060 0.36376 -0.01600
H 	H 	0.66920 0.44670 0.34740 0.04600
C 	C 	0.66220 0.37670 0.37801 -0.02000
H 	H 	0.60920 0.34080 0.37160 0.03300
C 	C 	0.70690 0.36580 0.40208 -0.08800
C 	C 	0.78170 0.42040 0.41162 -0.01300
H 	H 	0.81100 0.41300 0.42780 0.04600
C 	C 	0.81480 0.48650 0.39765 -0.02500
H 	H 	0.86480 0.52380 0.40440 0.03600
C 	C 	0.67070 0.29570 0.41750 0.35800
C 	C 	0.05970 0.79250 0.32965 0.34000
C 	C 	0.13980 0.86150 0.33320 -0.08300
C 	C 	0.14540 0.90110 0.35579 -0.01700
H 	H 	0.09950 0.88530 0.36920 0.04600
C 	C 	0.21910 0.96460 0.35875 -0.01600
H 	H 	0.22110 0.99140 0.37420 0.05000
C 	C 	0.28960 0.98940 0.33957 -0.07800
C 	C 	0.28080 0.95120 0.31639 -0.01800
H 	H 	0.32590 0.96790 0.30300 0.04800
C 	C 	0.20610 0.88890 0.31303 -0.01900
H 	H 	0.19960 0.86490 0.29720 0.04400
C 	C 	0.37280 0.05860 0.34315 0.38900
C 	C 	0.86940 0.68650 0.26371 0.12300
H 	H 	0.92270 0.72670 0.26630 -0.02200
C 	C 	0.81570 0.68430 0.24012 -0.21900
H 	H 	0.83610 0.72040 0.22750 0.11500
C 	C 	0.73360 0.62920 0.23570 0.16100
C 	C 	0.71590 0.57570 0.25467 -0.21300
H 	H 	0.66400 0.53420 0.25260 0.10300
C 	C 	0.77580 0.58350 0.27697 0.12100
H 	H 	0.76040 0.54620 0.28960 -0.01400
C 	C 	0.66770 0.62610 0.21185 -0.10800
C 	C 	0.69980 0.67140 0.19103 0.06400
H 	H 	0.76340 0.70410 0.19230 0.00900
C 	C 	0.64100 0.66970 0.16847 -0.18000
H 	H 	0.66560 0.70050 0.15490 0.09600
C 	C 	0.54560 0.62240 0.16608 0.16500
C 	C 	0.51360 0.57630 0.18690 -0.17900
H 	H 	0.45060 0.54300 0.18570 0.10500
C 	C 	0.57360 0.57930 0.20917 0.06900
H 	H 	0.54930 0.54860 0.22280 0.00200
C 	C 	0.50000 0.63980 0.11961 0.18700
C 	C 	0.40650 0.65770 0.10447 -0.20900
H 	H 	0.33400 0.65460 0.11130 0.11400
C 	C 	0.41920 0.67940 0.08000 0.10000
H 	H 	0.35520 0.68980 0.07030 -0.01900
C 	C 	0.52710 0.68650 0.06897 -0.13500
C 	C 	0.61880 0.66800 0.08468 0.09800
H 	H 	0.69160 0.67080 0.07800 -0.00300
C 	C 	0.60660 0.64600 0.10928 -0.21400
H 	H 	0.67030 0.63530 0.11910 0.11200
C 	C 	0.46480 0.74700 0.00224 0.12700
H 	H 	0.40070 0.75250 0.99210 -0.01900
C 	C 	0.44900 0.71840 0.02638 -0.21600
H 	H 	0.37740 0.70210 0.03170 0.09300
C 	C 	0.54050 0.71390 0.04263 0.19000
C 	C 	0.63940 0.73000 0.03193 -0.25800
H 	H 	0.70630 0.72140 0.04080 0.13000
C 	C 	0.64360 0.75970 0.00736 0.17900
H 	H 	0.71450 0.77580 0.00160 -0.05100
C 	C 	0.13850 0.79340 0.42366 0.40000
C 	C 	0.21510 0.86470 0.42735 -0.09700
C 	C 	0.19660 0.91470 0.44748 -0.00700
H 	H 	0.13670 0.90460 0.45850 0.04200
C 	C 	0.26610 0.98020 0.45158 -0.02600
H 	H 	0.25460 0.01290 0.46560 0.04900
C 	C 	0.35270 0.99680 0.43473 -0.08100
C 	C 	0.37050 0.94580 0.41509 -0.02400
H 	H 	0.42970 0.95570 0.40390 0.04500
C 	C 	0.30270 0.88040 0.41151 -0.00500
H 	H 	0.31700 0.84620 0.39800 0.04600
C 	C 	0.42610 0.06730 0.43931 0.34000
Cd	Cd	0.91535 0.66421 0.32221 1.21300
Cd	Cd	0.02490 0.67585 0.38513 1.24500
Cd	Cd	0.56716 0.19322 0.45058 1.21500
N 	N 	0.85170 0.63780 0.28221 -0.26400
N 	N 	0.56310 0.76740 0.99220 -0.27400
N 	N 	0.47660 0.61640 0.14448 -0.16200
O 	O 	0.78050 0.56630 0.33476 -0.39600
O 	O 	0.87540 0.61740 0.36608 -0.50000
O 	O 	0.62210 0.23859 0.40693 -0.48900
O 	O 	0.69060 0.29538 0.44070 -0.40900
O 	O 	0.01740 0.75878 0.34882 -0.49800
O 	O 	0.03520 0.76980 0.30783 -0.40400
O 	O 	0.36620 0.09194 0.36437 -0.44600
O 	O 	0.44040 0.07324 0.32610 -0.43800
O 	O 	0.48480 0.09624 0.42158 -0.49800
O 	O 	0.43020 0.09670 0.46091 -0.39700
O 	O 	0.07790 0.77600 0.44215 -0.44500
O 	O 	0.14240 0.75949 0.40306 -0.45400
C 	C 	0.68770 0.93670 0.85722 0.35500
C 	C 	0.72800 0.00390 0.87345 -0.08500
C 	C 	0.80330 0.05940 0.86376 -0.01400
H 	H 	0.83080 0.05330 0.84740 0.04700
C 	C 	0.83780 0.12330 0.87801 -0.02200
H 	H 	0.89080 0.15920 0.87160 0.03500
C 	C 	0.79310 0.13420 0.90208 -0.08600
C 	C 	0.71830 0.07960 0.91162 -0.01500
H 	H 	0.68900 0.08700 0.92780 0.04600
C 	C 	0.68520 0.01350 0.89765 -0.02200
H 	H 	0.63520 0.97620 0.90440 0.03300
C 	C 	0.82930 0.20430 0.91750 0.35800
C 	C 	0.44030 0.70750 0.82965 0.34000
C 	C 	0.36020 0.63850 0.83320 -0.08000
C 	C 	0.35460 0.59890 0.85579 -0.02000
H 	H 	0.40050 0.61470 0.86920 0.04700
C 	C 	0.28090 0.53540 0.85875 -0.01400
H 	H 	0.27890 0.50860 0.87420 0.05000
C 	C 	0.21040 0.51060 0.83957 -0.08100
C 	C 	0.21920 0.54880 0.81639 -0.01600
H 	H 	0.17410 0.53210 0.80300 0.04700
C 	C 	0.29390 0.61110 0.81303 -0.02100
H 	H 	0.30040 0.63510 0.79720 0.04500
C 	C 	0.12720 0.44140 0.84315 0.39100
C 	C 	0.63060 0.81350 0.76371 0.12200
H 	H 	0.57730 0.77330 0.76630 -0.02400
C 	C 	0.68430 0.81570 0.74012 -0.21700
H 	H 	0.66390 0.77960 0.72750 0.11400
C 	C 	0.76640 0.87080 0.73570 0.15800
C 	C 	0.78410 0.92430 0.75467 -0.21100
H 	H 	0.83600 0.96580 0.75260 0.10300
C 	C 	0.72420 0.91650 0.77697 0.12000
H 	H 	0.73960 0.95380 0.78960 -0.01400
C 	C 	0.83230 0.87390 0.71185 -0.10100
C 	C 	0.80020 0.82860 0.69103 0.05900
H 	H 	0.73660 0.79590 0.69230 0.01100
C 	C 	0.85900 0.83030 0.66847 -0.17500
H 	H 	0.83440 0.79950 0.65490 0.09500
C 	C 	0.95440 0.87760 0.66608 0.16200
C 	C 	0.98640 0.92370 0.68690 -0.16000
H 	H 	0.04940 0.95700 0.68570 0.09400
C 	C 	0.92640 0.92070 0.70917 0.05800
H 	H 	0.95070 0.95140 0.72280 0.00800
C 	C 	-0.00000 0.86020 0.61961 0.16600
C 	C 	0.09350 0.84230 0.60447 -0.19000
H 	H 	0.16600 0.84540 0.61130 0.10700
C 	C 	0.08080 0.82060 0.58000 0.07500
H 	H 	0.14480 0.81020 0.57030 -0.01100
C 	C 	0.97290 0.81350 0.56897 -0.11600
C 	C 	0.88120 0.83200 0.58468 0.08000
H 	H 	0.80840 0.82920 0.57800 0.00400
C 	C 	0.89340 0.85400 0.60928 -0.18800
H 	H 	0.82970 0.86470 0.61910 0.10400
C 	C 	0.03520 0.75300 0.50224 0.12100
H 	H 	0.09930 0.74750 0.49210 -0.01700
C 	C 	0.05100 0.78160 0.52638 -0.21800
H 	H 	0.12260 0.79790 0.53170 0.09200
C 	C 	0.95950 0.78610 0.54263 0.18900
C 	C 	0.86060 0.77000 0.53193 -0.25500
H 	H 	0.79370 0.77860 0.54080 0.12900
C 	C 	0.85640 0.74030 0.50736 0.17800
H 	H 	0.78550 0.72420 0.50160 -0.05100
C 	C 	0.36150 0.70660 0.92366 0.40000
C 	C 	0.28490 0.63530 0.92735 -0.09500
C 	C 	0.30340 0.58530 0.94748 -0.00800
H 	H 	0.36330 0.59540 0.95850 0.04300
C 	C 	0.23390 0.51980 0.95158 -0.02500
H 	H 	0.24540 0.48710 0.96560 0.04900
C 	C 	0.14730 0.50320 0.93473 -0.08300
C 	C 	0.12950 0.55420 0.91509 -0.02200
H 	H 	0.07030 0.54430 0.90390 0.04400
C 	C 	0.19730 0.61960 0.91151 -0.00700
H 	H 	0.18300 0.65380 0.89800 0.04600
C 	C 	0.07390 0.43270 0.93931 0.34100
Cd	Cd	0.58465 0.83579 0.82221 1.21100
Cd	Cd	0.47510 0.82415 0.88513 1.24600
Cd	Cd	0.93284 0.30678 0.95058 1.21700
N 	N 	0.64830 0.86220 0.78221 -0.26500
N 	N 	0.93690 0.73260 0.49220 -0.27000
N 	N 	0.02340 0.88360 0.64448 -0.16100
O 	O 	0.71950 0.93370 0.83476 -0.39600
O 	O 	0.62460 0.88260 0.86608 -0.50200
O 	O 	0.87790 0.26141 0.90693 -0.48700
O 	O 	0.80940 0.20462 0.94070 -0.40800
O 	O 	0.48260 0.74122 0.84882 -0.49500
O 	O 	0.46480 0.73020 0.80783 -0.40100
O 	O 	0.13380 0.40806 0.86437 -0.44700
O 	O 	0.05960 0.42676 0.82610 -0.44100
O 	O 	0.01520 0.40376 0.92158 -0.50000
O 	O 	0.06980 0.40330 0.96091 -0.40000
O 	O 	0.42210 0.72400 0.94215 -0.44300
O 	O 	0.35760 0.74051 0.90306 -0.45300
C 	C 	0.18770 0.43670 0.64278 0.35600
C 	C 	0.22800 0.50390 0.62655 -0.08700
C 	C 	0.30330 0.55940 0.63624 -0.01500
H 	H 	0.33080 0.55330 0.65260 0.04600
C 	C 	0.33780 0.62330 0.62199 -0.02200
H 	H 	0.39080 0.65920 0.62840 0.03300
C 	C 	0.29310 0.63420 0.59792 -0.08700
C 	C 	0.21830 0.57960 0.58838 -0.01500
H 	H 	0.18900 0.58700 0.57220 0.04500
C 	C 	0.18520 0.51350 0.60235 -0.02400
H 	H 	0.13520 0.47620 0.59560 0.03200
C 	C 	0.32930 0.70430 0.58250 0.35800
C 	C 	0.94030 0.20750 0.67035 0.33900
C 	C 	0.86020 0.13850 0.66680 -0.07900
C 	C 	0.85460 0.09890 0.64421 -0.01900
H 	H 	0.90050 0.11470 0.63080 0.04900
C 	C 	0.78090 0.03540 0.64125 -0.01400
H 	H 	0.77890 0.00860 0.62580 0.05000
C 	C 	0.71040 0.01060 0.66043 -0.07900
C 	C 	0.71920 0.04880 0.68361 -0.01600
H 	H 	0.67410 0.03210 0.69700 0.04800
C 	C 	0.79390 0.11110 0.68697 -0.02000
H 	H 	0.80040 0.13510 0.70280 0.04500
C 	C 	0.62720 0.94140 0.65685 0.38900
C 	C 	0.13060 0.31350 0.73629 0.12300
H 	H 	0.07730 0.27330 0.73370 -0.02700
C 	C 	0.18430 0.31570 0.75988 -0.22100
H 	H 	0.16390 0.27960 0.77250 0.11500
C 	C 	0.26640 0.37080 0.76430 0.16200
C 	C 	0.28410 0.42430 0.74533 -0.21400
H 	H 	0.33600 0.46580 0.74740 0.10300
C 	C 	0.22420 0.41650 0.72303 0.12100
H 	H 	0.23960 0.45380 0.71040 -0.01500
C 	C 	0.33230 0.37390 0.78815 -0.10900
C 	C 	0.30020 0.32860 0.80897 0.06500
H 	H 	0.23660 0.29590 0.80770 0.00900
C 	C 	0.35900 0.33030 0.83153 -0.18000
H 	H 	0.33440 0.29950 0.84510 0.09600
C 	C 	0.45440 0.37760 0.83392 0.16500
C 	C 	0.48640 0.42370 0.81310 -0.17900
H 	H 	0.54940 0.45700 0.81430 0.10500
C 	C 	0.42640 0.42070 0.79083 0.07000
H 	H 	0.45070 0.45140 0.77720 0.00200
C 	C 	0.50000 0.36020 0.88039 0.18700
C 	C 	0.59350 0.34230 0.89553 -0.20900
H 	H 	0.66600 0.34540 0.88870 0.11400
C 	C 	0.58080 0.32060 0.92000 0.10000
H 	H 	0.64480 0.31020 0.92970 -0.01900
C 	C 	0.47290 0.31350 0.93103 -0.13500
C 	C 	0.38120 0.33200 0.91532 0.09800
H 	H 	0.30840 0.32920 0.92200 -0.00300
C 	C 	0.39340 0.35400 0.89072 -0.21400
H 	H 	0.32970 0.36470 0.88090 0.11200
C 	C 	0.53520 0.25300 0.99776 0.12800
H 	H 	0.59930 0.24750 0.00790 -0.01900
C 	C 	0.55100 0.28160 0.97362 -0.21600
H 	H 	0.62260 0.29790 0.96830 0.09300
C 	C 	0.45950 0.28610 0.95737 0.19000
C 	C 	0.36060 0.27000 0.96807 -0.25800
H 	H 	0.29370 0.27860 0.95920 0.13000
C 	C 	0.35640 0.24030 0.99264 0.17900
H 	H 	0.28550 0.22420 0.99840 -0.05200
C 	C 	0.86150 0.20660 0.57634 0.40000
C 	C 	0.78490 0.13530 0.57265 -0.09500
C 	C 	0.80340 0.08530 0.55252 -0.00800
H 	H 	0.86330 0.09540 0.54150 0.04400
C 	C 	0.73390 0.01980 0.54842 -0.02500
H 	H 	0.74540 0.98710 0.53440 0.05000
C 	C 	0.64730 0.00320 0.56527 -0.08100
C 	C 	0.62950 0.05420 0.58491 -0.02300
H 	H 	0.57030 0.04430 0.59610 0.04500
C 	C 	0.69730 0.11960 0.58849 -0.00600
H 	H 	0.68300 0.15380 0.60200 0.04600
C 	C 	0.57390 0.93270 0.56069 0.34000
Cd	Cd	0.08465 0.33579 0.67779 1.20900
Cd	Cd	0.97510 0.32415 0.61487 1.24800
Cd	Cd	0.43284 0.80678 0.54942 1.21500
N 	N 	0.14830 0.36220 0.71779 -0.26600
N 	N 	0.43690 0.23260 0.00780 -0.27400
N 	N 	0.52340 0.38360 0.85552 -0.16200
O 	O 	0.21950 0.43370 0.66524 -0.39700
O 	O 	0.12460 0.38260 0.63392 -0.50500
O 	O 	0.37790 0.76141 0.59307 -0.48900
O 	O 	0.30940 0.70462 0.55930 -0.41000
O 	O 	0.98260 0.24122 0.65118 -0.49200
O 	O 	0.96480 0.23020 0.69217 -0.39800
O 	O 	0.63380 0.90806 0.63563 -0.44600
O 	O 	0.55960 0.92676 0.67390 -0.43900
O 	O 	0.51520 0.90376 0.57842 -0.49800
O 	O 	0.56980 0.90330 0.53909 -0.39700
O 	O 	0.92210 0.22400 0.55785 -0.44100
O 	O 	0.85760 0.24051 0.59694 -0.45200
C 	C 	0.31230 0.06330 0.14278 0.35400
C 	C 	0.27200 0.99610 0.12655 -0.08500
C 	C 	0.19670 0.94060 0.13624 -0.01700
H 	H 	0.16920 0.94670 0.15260 0.04600
C 	C 	0.16220 0.87670 0.12199 -0.02000
H 	H 	0.10920 0.84080 0.12840 0.03100
C 	C 	0.20690 0.86580 0.09792 -0.08900
C 	C 	0.28170 0.92040 0.08838 -0.01400
H 	H 	0.31100 0.91300 0.07220 0.04500
C 	C 	0.31480 0.98650 0.10235 -0.02400
H 	H 	0.36480 0.02380 0.09560 0.03400
C 	C 	0.17070 0.79570 0.08250 0.35800
C 	C 	0.55970 0.29250 0.17035 0.34000
C 	C 	0.63980 0.36150 0.16680 -0.08100
C 	C 	0.64540 0.40110 0.14421 -0.01900
H 	H 	0.59950 0.38530 0.13080 0.04700
C 	C 	0.71910 0.46460 0.14125 -0.01400
H 	H 	0.72110 0.49140 0.12580 0.05000
C 	C 	0.78960 0.48940 0.16043 -0.07900
C 	C 	0.78080 0.45120 0.18361 -0.01600
H 	H 	0.82590 0.46790 0.19700 0.04800
C 	C 	0.70610 0.38890 0.18697 -0.01900
H 	H 	0.69960 0.36490 0.20280 0.04500
C 	C 	0.87280 0.55860 0.15685 0.39000
C 	C 	0.36940 0.18650 0.23629 0.12300
H 	H 	0.42270 0.22670 0.23370 -0.02500
C 	C 	0.31570 0.18430 0.25988 -0.22200
H 	H 	0.33610 0.22040 0.27250 0.11600
C 	C 	0.23360 0.12920 0.26430 0.16400
C 	C 	0.21590 0.07570 0.24533 -0.21500
H 	H 	0.16400 0.03420 0.24740 0.10200
C 	C 	0.27580 0.08350 0.22303 0.12100
H 	H 	0.26040 0.04620 0.21040 -0.01500
C 	C 	0.16770 0.12610 0.28815 -0.11400
C 	C 	0.19980 0.17140 0.30897 0.06800
H 	H 	0.26340 0.20410 0.30770 0.00800
C 	C 	0.14100 0.16970 0.33153 -0.18300
H 	H 	0.16560 0.20050 0.34510 0.09600
C 	C 	0.04560 0.12240 0.33392 0.16600
C 	C 	0.01360 0.07630 0.31310 -0.19400
H 	H 	0.95060 0.04300 0.31430 0.11400
C 	C 	0.07360 0.07930 0.29083 0.07900
H 	H 	0.04930 0.04860 0.27720 -0.00300
C 	C 	-0.00000 0.13980 0.38039 0.17300
C 	C 	0.90650 0.15770 0.39553 -0.19700
H 	H 	0.83400 0.15460 0.38870 0.11000
C 	C 	0.91920 0.17940 0.42000 0.10000
H 	H 	0.85520 0.18980 0.42970 -0.01800
C 	C 	0.02710 0.18650 0.43103 -0.13500
C 	C 	0.11880 0.16800 0.41532 0.09200
H 	H 	0.19160 0.17080 0.42200 -0.00100
C 	C 	0.10660 0.14600 0.39072 -0.20600
H 	H 	0.17030 0.13530 0.38090 0.10900
C 	C 	0.96480 0.24700 0.49776 0.13100
H 	H 	0.90070 0.25250 0.50790 -0.01900
C 	C 	0.94900 0.21840 0.47362 -0.20700
H 	H 	0.87740 0.20210 0.46830 0.09100
C 	C 	0.04050 0.21390 0.45737 0.18000
C 	C 	0.13940 0.23000 0.46807 -0.25400
H 	H 	0.20630 0.22140 0.45920 0.12900
C 	C 	0.14360 0.25970 0.49264 0.17500
H 	H 	0.21450 0.27580 0.49840 -0.05100
C 	C 	0.63850 0.29340 0.07634 0.40000
C 	C 	0.71510 0.36470 0.07265 -0.09700
C 	C 	0.69660 0.41470 0.05252 -0.00600
H 	H 	0.63670 0.40460 0.04150 0.04200
C 	C 	0.76610 0.48020 0.04842 -0.02700
H 	H 	0.75460 0.51290 0.03440 0.05100
C 	C 	0.85270 0.49680 0.06527 -0.07900
C 	C 	0.87050 0.44580 0.08491 -0.02400
H 	H 	0.92970 0.45570 0.09610 0.04700
C 	C 	0.80270 0.38040 0.08849 -0.00500
H 	H 	0.81700 0.34620 0.10200 0.04600
C 	C 	0.92610 0.56730 0.06069 0.34000
Cd	Cd	0.41535 0.16421 0.17779 1.21100
Cd	Cd	0.52490 0.17585 0.11487 1.24600
Cd	Cd	0.06716 0.69322 0.04942 1.21300
N 	N 	0.35170 0.13780 0.21779 -0.26600
N 	N 	0.06310 0.26740 0.50780 -0.27700
N 	N 	0.97660 0.11640 0.35552 -0.15500
O 	O 	0.28050 0.06630 0.16524 -0.39700
O 	O 	0.37540 0.11740 0.13392 -0.50200
O 	O 	0.12210 0.73859 0.09307 -0.49200
O 	O 	0.19060 0.79538 0.05930 -0.41100
O 	O 	0.51740 0.25878 0.15118 -0.49500
O 	O 	0.53520 0.26980 0.19217 -0.40100
O 	O 	0.86620 0.59194 0.13563 -0.44500
O 	O 	0.94040 0.57324 0.17390 -0.43600
O 	O 	0.98480 0.59624 0.07842 -0.49400
O 	O 	0.93020 0.59670 0.03909 -0.39500
O 	O 	0.57790 0.27600 0.05785 -0.44300
O 	O 	0.64240 0.25949 0.09694 -0.45300
C 	C 	0.18770 0.56330 0.14278 0.35600
C 	C 	0.22800 0.49610 0.12655 -0.08700
C 	C 	0.30330 0.44060 0.13624 -0.01500
H 	H 	0.33080 0.44670 0.15260 0.04600
C 	C 	0.33780 0.37670 0.12199 -0.02200
H 	H 	0.39080 0.34080 0.12840 0.03300
C 	C 	0.29310 0.36580 0.09792 -0.08700
C 	C 	0.21830 0.42040 0.08838 -0.01500
H 	H 	0.18900 0.41300 0.07220 0.04500
C 	C 	0.18520 0.48650 0.10235 -0.02400
H 	H 	0.13520 0.52380 0.09560 0.03200
C 	C 	0.32930 0.29570 0.08250 0.35800
C 	C 	0.94030 0.79250 0.17035 0.33900
C 	C 	0.86020 0.86150 0.16680 -0.07900
C 	C 	0.85460 0.90110 0.14421 -0.01900
H 	H 	0.90050 0.88530 0.13080 0.04900
C 	C 	0.78090 0.96460 0.14125 -0.01400
H 	H 	0.77890 0.99140 0.12580 0.05000
C 	C 	0.71040 0.98940 0.16043 -0.07900
C 	C 	0.71920 0.95120 0.18361 -0.01600
H 	H 	0.67410 0.96790 0.19700 0.04800
C 	C 	0.79390 0.88890 0.18697 -0.02000
H 	H 	0.80040 0.86490 0.20280 0.04500
C 	C 	0.62720 0.05860 0.15685 0.38900
C 	C 	0.13060 0.68650 0.23629 0.12300
H 	H 	0.07730 0.72670 0.23370 -0.02700
C 	C 	0.18430 0.68430 0.25988 -0.22100
H 	H 	0.16390 0.72040 0.27250 0.11500
C 	C 	0.26640 0.62920 0.26430 0.16200
C 	C 	0.28410 0.57570 0.24533 -0.21400
H 	H 	0.33600 0.53420 0.24740 0.10300
C 	C 	0.22420 0.58350 0.22303 0.12100
H 	H 	0.23960 0.54620 0.21040 -0.01500
C 	C 	0.33230 0.62610 0.28815 -0.10900
C 	C 	0.30020 0.67140 0.30897 0.06500
H 	H 	0.23660 0.70410 0.30770 0.00900
C 	C 	0.35900 0.66970 0.33153 -0.18000
H 	H 	0.33440 0.70050 0.34510 0.09600
C 	C 	0.45440 0.62240 0.33392 0.16500
C 	C 	0.48640 0.57630 0.31310 -0.17900
H 	H 	0.54940 0.54300 0.31430 0.10500
C 	C 	0.42640 0.57930 0.29083 0.07000
H 	H 	0.45070 0.54860 0.27720 0.00200
C 	C 	0.50000 0.63980 0.38039 0.18700
C 	C 	0.59350 0.65770 0.39553 -0.20900
H 	H 	0.66600 0.65460 0.38870 0.11400
C 	C 	0.58080 0.67940 0.42000 0.10000
H 	H 	0.64480 0.68980 0.42970 -0.01900
C 	C 	0.47290 0.68650 0.43103 -0.13500
C 	C 	0.38120 0.66800 0.41532 0.09800
H 	H 	0.30840 0.67080 0.42200 -0.00300
C 	C 	0.39340 0.64600 0.39072 -0.21400
H 	H 	0.32970 0.63530 0.38090 0.11200
C 	C 	0.53520 0.74700 0.49776 0.12800
H 	H 	0.59930 0.75250 0.50790 -0.01900
C 	C 	0.55100 0.71840 0.47362 -0.21600
H 	H 	0.62260 0.70210 0.46830 0.09300
C 	C 	0.45950 0.71390 0.45737 0.19000
C 	C 	0.36060 0.73000 0.46807 -0.25800
H 	H 	0.29370 0.72140 0.45920 0.13000
C 	C 	0.35640 0.75970 0.49264 0.17900
H 	H 	0.28550 0.77580 0.49840 -0.05200
C 	C 	0.86150 0.79340 0.07634 0.40000
C 	C 	0.78490 0.86470 0.07265 -0.09500
C 	C 	0.80340 0.91470 0.05252 -0.00800
H 	H 	0.86330 0.90460 0.04150 0.04400
C 	C 	0.73390 0.98020 0.04842 -0.02500
H 	H 	0.74540 0.01290 0.03440 0.05000
C 	C 	0.64730 0.99680 0.06527 -0.08100
C 	C 	0.62950 0.94580 0.08491 -0.02300
H 	H 	0.57030 0.95570 0.09610 0.04500
C 	C 	0.69730 0.88040 0.08849 -0.00600
H 	H 	0.68300 0.84620 0.10200 0.04600
C 	C 	0.57390 0.06730 0.06069 0.34000
Cd	Cd	0.08465 0.66421 0.17779 1.20900
Cd	Cd	0.97510 0.67585 0.11487 1.24800
Cd	Cd	0.43284 0.19322 0.04942 1.21500
N 	N 	0.14830 0.63780 0.21779 -0.26600
N 	N 	0.43690 0.76740 0.50780 -0.27400
N 	N 	0.52340 0.61640 0.35552 -0.16200
O 	O 	0.21950 0.56630 0.16524 -0.39700
O 	O 	0.12460 0.61740 0.13392 -0.50500
O 	O 	0.37790 0.23859 0.09307 -0.48900
O 	O 	0.30940 0.29538 0.05930 -0.41000
O 	O 	0.98260 0.75878 0.15118 -0.49200
O 	O 	0.96480 0.76980 0.19217 -0.39800
O 	O 	0.63380 0.09194 0.13563 -0.44600
O 	O 	0.55960 0.07324 0.17390 -0.43900
O 	O 	0.51520 0.09624 0.07842 -0.49800
O 	O 	0.56980 0.09670 0.03909 -0.39700
O 	O 	0.92210 0.77600 0.05785 -0.44100
O 	O 	0.85760 0.75949 0.09694 -0.45200
C 	C 	0.31230 0.93670 0.64278 0.35400
C 	C 	0.27200 0.00390 0.62655 -0.08500
C 	C 	0.19670 0.05940 0.63624 -0.01700
H 	H 	0.16920 0.05330 0.65260 0.04600
C 	C 	0.16220 0.12330 0.62199 -0.02000
H 	H 	0.10920 0.15920 0.62840 0.03100
C 	C 	0.20690 0.13420 0.59792 -0.08900
C 	C 	0.28170 0.07960 0.58838 -0.01400
H 	H 	0.31100 0.08700 0.57220 0.04500
C 	C 	0.31480 0.01350 0.60235 -0.02400
H 	H 	0.36480 0.97620 0.59560 0.03400
C 	C 	0.17070 0.20430 0.58250 0.35800
C 	C 	0.55970 0.70750 0.67035 0.34000
C 	C 	0.63980 0.63850 0.66680 -0.08100
C 	C 	0.64540 0.59890 0.64421 -0.01900
H 	H 	0.59950 0.61470 0.63080 0.04700
C 	C 	0.71910 0.53540 0.64125 -0.01400
H 	H 	0.72110 0.50860 0.62580 0.05000
C 	C 	0.78960 0.51060 0.66043 -0.07900
C 	C 	0.78080 0.54880 0.68361 -0.01600
H 	H 	0.82590 0.53210 0.69700 0.04800
C 	C 	0.70610 0.61110 0.68697 -0.01900
H 	H 	0.69960 0.63510 0.70280 0.04500
C 	C 	0.87280 0.44140 0.65685 0.39000
C 	C 	0.36940 0.81350 0.73629 0.12300
H 	H 	0.42270 0.77330 0.73370 -0.02500
C 	C 	0.31570 0.81570 0.75988 -0.22200
H 	H 	0.33610 0.77960 0.77250 0.11600
C 	C 	0.23360 0.87080 0.76430 0.16400
C 	C 	0.21590 0.92430 0.74533 -0.21500
H 	H 	0.16400 0.96580 0.74740 0.10200
C 	C 	0.27580 0.91650 0.72303 0.12100
H 	H 	0.26040 0.95380 0.71040 -0.01500
C 	C 	0.16770 0.87390 0.78815 -0.11400
C 	C 	0.19980 0.82860 0.80897 0.06800
H 	H 	0.26340 0.79590 0.80770 0.00800
C 	C 	0.14100 0.83030 0.83153 -0.18300
H 	H 	0.16560 0.79950 0.84510 0.09600
C 	C 	0.04560 0.87760 0.83392 0.16600
C 	C 	0.01360 0.92370 0.81310 -0.19400
H 	H 	0.95060 0.95700 0.81430 0.11400
C 	C 	0.07360 0.92070 0.79083 0.07800
H 	H 	0.04930 0.95140 0.77720 -0.00300
C 	C 	-0.00000 0.86020 0.88039 0.17300
C 	C 	0.90650 0.84230 0.89553 -0.19700
H 	H 	0.83400 0.84540 0.88870 0.11000
C 	C 	0.91920 0.82060 0.92000 0.10000
H 	H 	0.85520 0.81020 0.92970 -0.01800
C 	C 	0.02710 0.81350 0.93103 -0.13500
C 	C 	0.11880 0.83200 0.91532 0.09200
H 	H 	0.19160 0.82920 0.92200 -0.00100
C 	C 	0.10660 0.85400 0.89072 -0.20600
H 	H 	0.17030 0.86470 0.88090 0.10900
C 	C 	0.96480 0.75300 0.99776 0.13100
H 	H 	0.90070 0.74750 0.00790 -0.01900
C 	C 	0.94900 0.78160 0.97362 -0.20600
H 	H 	0.87740 0.79790 0.96830 0.09100
C 	C 	0.04050 0.78610 0.95737 0.18000
C 	C 	0.13940 0.77000 0.96807 -0.25400
H 	H 	0.20630 0.77860 0.95920 0.12900
C 	C 	0.14360 0.74030 0.99264 0.17500
H 	H 	0.21450 0.72420 0.99840 -0.05100
C 	C 	0.63850 0.70660 0.57634 0.40000
C 	C 	0.71510 0.63530 0.57265 -0.09700
C 	C 	0.69660 0.58530 0.55252 -0.00600
H 	H 	0.63670 0.59540 0.54150 0.04200
C 	C 	0.76610 0.51980 0.54842 -0.02700
H 	H 	0.75460 0.48710 0.53440 0.05100
C 	C 	0.85270 0.50320 0.56527 -0.07900
C 	C 	0.87050 0.55420 0.58491 -0.02400
H 	H 	0.92970 0.54430 0.59610 0.04700
C 	C 	0.80270 0.61960 0.58849 -0.00500
H 	H 	0.81700 0.65380 0.60200 0.04600
C 	C 	0.92610 0.43270 0.56069 0.34000
Cd	Cd	0.41535 0.83579 0.67779 1.21100
Cd	Cd	0.52490 0.82415 0.61487 1.24600
Cd	Cd	0.06716 0.30678 0.54942 1.21300
N 	N 	0.35170 0.86220 0.71779 -0.26600
N 	N 	0.06310 0.73260 0.00780 -0.27700
N 	N 	0.97660 0.88360 0.85552 -0.15500
O 	O 	0.28050 0.93370 0.66524 -0.39700
O 	O 	0.37540 0.88260 0.63392 -0.50200
O 	O 	0.12210 0.26141 0.59307 -0.49200
O 	O 	0.19060 0.20462 0.55930 -0.41100
O 	O 	0.51740 0.74122 0.65118 -0.49500
O 	O 	0.53520 0.73020 0.69217 -0.40100
O 	O 	0.86620 0.40806 0.63563 -0.44500
O 	O 	0.94040 0.42676 0.67390 -0.43600
O 	O 	0.98480 0.40376 0.57842 -0.49400
O 	O 	0.93020 0.40330 0.53909 -0.39500
O 	O 	0.57790 0.72400 0.55785 -0.44300
O 	O 	0.64240 0.74051 0.59694 -0.45300
