data_crystal

_cell_length_a 54.07600
_cell_length_b 15.30880
_cell_length_c 16.03090
_cell_angle_alpha 90.00000
_cell_angle_beta  90.00000
_cell_angle_gamma 90.00000

_symmetry_space_group_name_	'P 1'
_symmetry_space_group_name_H-M	'P 1'

loop_
_symmetry_equiv_pos_as_xyz
  x,y,z

loop_
_atom_site_label
_atom_site_type_symbol
_atom_site_fract_x
_atom_site_fract_y
_atom_site_fract_z
_atom_site_charge
Zn	Zn	0.25296 0.93899 0.54909 1.22800
Zn	Zn	0.20057 0.94878 0.65008 1.23500
Zn	Zn	0.09555 0.67407 0.29350 1.22600
Zn	Zn	0.07028 0.84885 0.33811 1.23300
O 	O 	0.10090 0.77870 0.36190 -0.58200
O 	O 	0.16430 0.91850 0.16180 -0.28700
O 	O 	0.18410 0.00660 0.24640 -0.41100
O 	O 	0.15900 0.85120 0.59700 -0.27000
O 	O 	0.18693 0.93330 0.53900 -0.44200
O 	O 	0.22972 0.01780 0.61540 -0.55900
O 	O 	0.24330 0.04390 0.92970 -0.37100
O 	O 	0.27230 0.14500 0.93860 -0.28000
O 	O 	0.07210 0.85520 0.21730 -0.45700
O 	O 	0.07530 0.03380 0.86520 -0.46200
O 	O 	0.13490 0.65060 0.24600 -0.34800
O 	O 	0.08290 0.71810 0.18270 -0.45000
O 	O 	0.06510 0.63390 0.35030 -0.44900
O 	O 	0.04490 0.76310 0.36430 -0.48800
O 	O 	0.10720 0.55120 0.27220 -0.40400
O 	O 	0.21400 0.44620 0.03690 -0.32500
O 	O 	0.21648 0.56090 0.11830 -0.40500
O 	O 	0.28490 0.34210 0.70010 -0.43500
O 	O 	0.26200 0.32280 0.58450 -0.45300
O 	O 	0.14800 0.26780 0.20470 -0.16600
O 	O 	0.07180 0.07740 0.99050 -0.32400
C 	C 	0.12340 0.82330 0.36810 0.28400
C 	C 	0.13440 0.85710 0.29860 -0.23800
H 	H 	0.12730 0.84810 0.24650 0.12100
C 	C 	0.13310 0.83200 0.44520 -0.22200
H 	H 	0.12510 0.80880 0.49160 0.14300
C 	C 	0.15620 0.90530 0.30530 0.05300
C 	C 	0.15560 0.87730 0.45350 0.04300
C 	C 	0.16620 0.91440 0.38620 -0.09200
H 	H 	0.18060 0.94700 0.39330 0.10400
C 	C 	0.16820 0.94350 0.23020 0.28700
C 	C 	0.16830 0.88620 0.53560 0.31100
C 	C 	0.24010 0.07810 0.67090 0.28700
C 	C 	0.24860 0.15550 0.63600 -0.22700
H 	H 	0.24650 0.16750 0.57960 0.14500
C 	C 	0.24230 0.05990 0.75160 -0.25800
H 	H 	0.23520 0.00880 0.77220 0.12900
C 	C 	0.26000 0.21280 0.68740 0.05600
C 	C 	0.25470 0.11480 0.80590 0.07600
C 	C 	0.26520 0.19420 0.77230 -0.10800
H 	H 	0.27480 0.23140 0.80480 0.11200
C 	C 	0.25710 0.10110 0.89570 0.24400
C 	C 	0.20600 0.48970 0.09370 0.29000
C 	C 	0.18280 0.46780 0.13820 0.00500
C 	C 	0.04610 0.68310 0.36230 0.35600
C 	C 	0.27010 0.30130 0.65300 0.32500
C 	C 	0.17570 0.37750 0.14480 -0.14200
H 	H 	0.18540 0.33510 0.11930 0.11000
C 	C 	0.07830 0.79560 0.16350 0.33000
C 	C 	0.16750 0.52870 0.17100 -0.05600
H 	H 	0.17170 0.58740 0.16600 0.08800
C 	C 	0.15490 0.35250 0.18790 0.19800
C 	C 	0.12710 0.57340 0.24430 0.28900
C 	C 	0.14580 0.50610 0.21200 0.01300
C 	C 	0.13830 0.41870 0.21800 -0.13600
H 	H 	0.12300 0.40400 0.24080 0.12400
C 	C 	0.08270 0.82000 0.07620 0.01100
C 	C 	0.07600 0.90420 0.04950 -0.09400
H 	H 	0.06850 0.94250 0.08670 0.08900
C 	C 	0.09080 0.76150 0.01850 -0.18300
H 	H 	0.09600 0.70650 0.03590 0.12100
C 	C 	0.07500 0.02320 0.94260 0.36300
C 	C 	0.09170 0.78210 0.93500 0.23300
C 	C 	0.08050 0.92970 0.97100 0.03300
O 	O 	0.10170 0.72630 0.87200 -0.17200
C 	C 	0.08980 0.87040 0.91400 -0.15200
H 	H 	0.09480 0.88950 0.86160 0.12600
C 	C 	0.01950 0.54600 0.37400 -0.10800
H 	H 	0.03370 0.51800 0.35610 0.08600
C 	C 	0.02170 0.63900 0.38800 0.01200
C 	C 	0.02270 0.54500 0.40400 -0.00200
H 	H 	0.03770 0.51640 0.41310 0.04500
C 	C 	0.02040 0.63300 0.37100 -0.03400
Zn	Zn	0.75296 0.43899 0.54909 1.23100
Zn	Zn	0.70057 0.44878 0.65008 1.23700
Zn	Zn	0.59555 0.17407 0.29350 1.22700
Zn	Zn	0.57028 0.34885 0.33811 1.23400
O 	O 	0.60090 0.27870 0.36190 -0.58000
O 	O 	0.66430 0.41850 0.16180 -0.28600
O 	O 	0.68410 0.50660 0.24640 -0.41600
O 	O 	0.65900 0.35120 0.59700 -0.26800
O 	O 	0.68693 0.43330 0.53900 -0.44000
O 	O 	0.72972 0.51780 0.61540 -0.56300
O 	O 	0.74330 0.54390 0.92970 -0.37400
O 	O 	0.77230 0.64500 0.93860 -0.28200
O 	O 	0.57210 0.35520 0.21730 -0.45600
O 	O 	0.57530 0.53380 0.86520 -0.46200
O 	O 	0.63490 0.15060 0.24600 -0.34800
O 	O 	0.58290 0.21810 0.18270 -0.44900
O 	O 	0.56510 0.13390 0.35030 -0.44800
O 	O 	0.54490 0.26310 0.36430 -0.48700
O 	O 	0.60720 0.05120 0.27220 -0.40200
O 	O 	0.71400 0.94620 0.03690 -0.32500
O 	O 	0.71648 0.06090 0.11830 -0.40100
O 	O 	0.78490 0.84210 0.70010 -0.43600
O 	O 	0.76200 0.82280 0.58450 -0.45300
O 	O 	0.64800 0.76780 0.20470 -0.16700
O 	O 	0.57180 0.57740 0.99050 -0.32300
C 	C 	0.62340 0.32330 0.36810 0.28400
C 	C 	0.63440 0.35710 0.29860 -0.23700
H 	H 	0.62730 0.34810 0.24650 0.12100
C 	C 	0.63310 0.33200 0.44520 -0.22200
H 	H 	0.62510 0.30880 0.49160 0.14400
C 	C 	0.65620 0.40530 0.30530 0.05200
C 	C 	0.65560 0.37730 0.45350 0.04400
C 	C 	0.66620 0.41440 0.38620 -0.09100
H 	H 	0.68060 0.44700 0.39330 0.10400
C 	C 	0.66820 0.44350 0.23020 0.29200
C 	C 	0.66830 0.38620 0.53560 0.31100
C 	C 	0.74010 0.57810 0.67090 0.28600
C 	C 	0.74860 0.65550 0.63600 -0.22600
H 	H 	0.74650 0.66750 0.57960 0.14400
C 	C 	0.74230 0.55990 0.75160 -0.25700
H 	H 	0.73520 0.50880 0.77220 0.12700
C 	C 	0.76000 0.71280 0.68740 0.05500
C 	C 	0.75470 0.61480 0.80590 0.07400
C 	C 	0.76520 0.69420 0.77230 -0.10700
H 	H 	0.77480 0.73140 0.80480 0.11100
C 	C 	0.75710 0.60110 0.89570 0.24400
C 	C 	0.70600 0.98970 0.09370 0.28600
C 	C 	0.68280 0.96780 0.13820 0.00100
C 	C 	0.54610 0.18310 0.36230 0.35700
C 	C 	0.77010 0.80130 0.65300 0.32500
C 	C 	0.67570 0.87750 0.14480 -0.14200
H 	H 	0.68540 0.83510 0.11930 0.11100
C 	C 	0.57830 0.29560 0.16350 0.32600
C 	C 	0.66750 0.02870 0.17100 -0.05100
H 	H 	0.67170 0.08740 0.16600 0.08700
C 	C 	0.65490 0.85250 0.18790 0.19900
C 	C 	0.62710 0.07340 0.24430 0.28800
C 	C 	0.64580 0.00610 0.21200 0.01900
C 	C 	0.63830 0.91870 0.21800 -0.14400
H 	H 	0.62300 0.90400 0.24080 0.12500
C 	C 	0.58270 0.32000 0.07620 0.02000
C 	C 	0.57600 0.40420 0.04950 -0.10900
H 	H 	0.56850 0.44250 0.08670 0.09500
C 	C 	0.59080 0.26150 0.01850 -0.19400
H 	H 	0.59600 0.20650 0.03590 0.12400
C 	C 	0.57500 0.52320 0.94260 0.35200
C 	C 	0.59170 0.28210 0.93500 0.24300
C 	C 	0.58050 0.42970 0.97100 0.05100
O 	O 	0.60170 0.22630 0.87200 -0.17100
C 	C 	0.58980 0.37040 0.91400 -0.16300
H 	H 	0.59480 0.38950 0.86160 0.13200
C 	C 	0.51950 0.04600 0.37400 -0.05700
H 	H 	0.53370 0.01800 0.35610 0.07000
C 	C 	0.52170 0.13900 0.38800 0.00100
C 	C 	0.52270 0.04500 0.40400 -0.05100
H 	H 	0.53770 0.01640 0.41310 0.06600
C 	C 	0.52040 0.13300 0.37100 -0.02300
Zn	Zn	0.74704 0.06101 0.04909 1.22600
Zn	Zn	0.79943 0.05122 0.15008 1.23700
Zn	Zn	0.90445 0.32593 0.79350 1.22800
Zn	Zn	0.92972 0.15115 0.83811 1.23500
O 	O 	0.89910 0.22130 0.86190 -0.58200
O 	O 	0.83570 0.08150 0.66180 -0.28000
O 	O 	0.81590 0.99340 0.74640 -0.42000
O 	O 	0.84100 0.14880 0.09700 -0.26600
O 	O 	0.81307 0.06670 0.03900 -0.44100
O 	O 	0.77028 0.98220 0.11540 -0.56900
O 	O 	0.75670 0.95610 0.42970 -0.38900
O 	O 	0.72770 0.85500 0.43860 -0.29600
O 	O 	0.92790 0.14480 0.71730 -0.45800
O 	O 	0.92470 0.96620 0.36520 -0.47100
O 	O 	0.86510 0.34940 0.74600 -0.34500
O 	O 	0.91710 0.28190 0.68270 -0.45100
O 	O 	0.93490 0.36610 0.85030 -0.44500
O 	O 	0.95510 0.23690 0.86430 -0.48400
O 	O 	0.89280 0.44880 0.77220 -0.40000
O 	O 	0.78600 0.55380 0.53690 -0.31500
O 	O 	0.78352 0.43910 0.61830 -0.40000
O 	O 	0.71510 0.65790 0.20010 -0.43700
O 	O 	0.73800 0.67720 0.08450 -0.46100
O 	O 	0.85200 0.73220 0.70470 -0.16200
O 	O 	0.92820 0.92260 0.49050 -0.34000
C 	C 	0.87660 0.17670 0.86810 0.30100
C 	C 	0.86560 0.14290 0.79860 -0.25000
H 	H 	0.87270 0.15190 0.74650 0.12700
C 	C 	0.86690 0.16800 0.94520 -0.24600
H 	H 	0.87490 0.19120 0.99160 0.16000
C 	C 	0.84380 0.09470 0.80530 0.06700
C 	C 	0.84440 0.12270 0.95350 0.09000
C 	C 	0.83380 0.08560 0.88620 -0.11600
H 	H 	0.81940 0.05300 0.89330 0.12000
C 	C 	0.83180 0.05650 0.73020 0.29400
C 	C 	0.83170 0.11380 0.03560 0.27500
C 	C 	0.75990 0.92190 0.17090 0.28200
C 	C 	0.75140 0.84450 0.13600 -0.22300
H 	H 	0.75350 0.83250 0.07960 0.13800
C 	C 	0.75770 0.94010 0.25160 -0.25400
H 	H 	0.76480 0.99120 0.27220 0.12300
C 	C 	0.74000 0.78720 0.18740 0.05100
C 	C 	0.74530 0.88520 0.30590 0.06700
C 	C 	0.73480 0.80580 0.27230 -0.10400
H 	H 	0.72520 0.76860 0.30480 0.10800
C 	C 	0.74290 0.89890 0.39570 0.24700
C 	C 	0.79400 0.51030 0.59370 0.28800
C 	C 	0.81720 0.53220 0.63820 0.01100
C 	C 	0.95390 0.31690 0.86230 0.35700
C 	C 	0.72990 0.69870 0.15300 0.32800
C 	C 	0.82430 0.62250 0.64480 -0.14300
H 	H 	0.81460 0.66490 0.61930 0.11400
C 	C 	0.92170 0.20440 0.66350 0.34800
C 	C 	0.83250 0.47130 0.67100 -0.05700
H 	H 	0.82830 0.41260 0.66600 0.09100
C 	C 	0.84510 0.64750 0.68790 0.20200
C 	C 	0.87290 0.42660 0.74430 0.28900
C 	C 	0.85420 0.49390 0.71200 0.01800
C 	C 	0.86170 0.58130 0.71800 -0.13600
H 	H 	0.87700 0.59600 0.74080 0.12700
C 	C 	0.91730 0.18000 0.57620 -0.03200
C 	C 	0.92400 0.09580 0.54950 -0.02100
H 	H 	0.93150 0.05750 0.58670 0.07400
C 	C 	0.90920 0.23850 0.51850 -0.10800
H 	H 	0.90400 0.29350 0.53590 0.10300
C 	C 	0.92500 0.97680 0.44260 0.37300
C 	C 	0.90830 0.21790 0.43500 0.17300
C 	C 	0.91950 0.07030 0.47100 -0.02200
O 	O 	0.89830 0.27370 0.37200 -0.16700
C 	C 	0.91020 0.12960 0.41400 -0.10900
H 	H 	0.90520 0.11050 0.36160 0.11200
C 	C 	0.98050 0.45400 0.87400 -0.10300
H 	H 	0.96630 0.48200 0.85610 0.08600
C 	C 	0.97830 0.36100 0.88800 0.01300
C 	C 	0.97730 0.45500 0.90400 -0.00800
H 	H 	0.96230 0.48360 0.91310 0.05100
C 	C 	0.97960 0.36700 0.87100 -0.03000
Zn	Zn	0.24704 0.56101 0.04909 1.22600
Zn	Zn	0.29943 0.55122 0.15008 1.23600
Zn	Zn	0.40445 0.82593 0.79350 1.22800
Zn	Zn	0.42972 0.65115 0.83811 1.23400
O 	O 	0.39910 0.72130 0.86190 -0.58300
O 	O 	0.33570 0.58150 0.66180 -0.28000
O 	O 	0.31590 0.49340 0.74640 -0.41200
O 	O 	0.34100 0.64880 0.09700 -0.26700
O 	O 	0.31307 0.56670 0.03900 -0.44200
O 	O 	0.27028 0.48220 0.11540 -0.56700
O 	O 	0.25670 0.45610 0.42970 -0.38700
O 	O 	0.22770 0.35500 0.43860 -0.29500
O 	O 	0.42790 0.64480 0.71730 -0.45900
O 	O 	0.42470 0.46620 0.36520 -0.47100
O 	O 	0.36510 0.84940 0.74600 -0.34600
O 	O 	0.41710 0.78190 0.68270 -0.45200
O 	O 	0.43490 0.86610 0.85030 -0.44600
O 	O 	0.45510 0.73690 0.86430 -0.48500
O 	O 	0.39280 0.94880 0.77220 -0.40300
O 	O 	0.28600 0.05380 0.53690 -0.31400
O 	O 	0.28352 0.93910 0.61830 -0.40600
O 	O 	0.21510 0.15790 0.20010 -0.43700
O 	O 	0.23800 0.17720 0.08450 -0.46100
O 	O 	0.35200 0.23220 0.70470 -0.16100
O 	O 	0.42820 0.42260 0.49050 -0.34000
C 	C 	0.37660 0.67670 0.86810 0.30000
C 	C 	0.36560 0.64290 0.79860 -0.25000
H 	H 	0.37270 0.65190 0.74650 0.12700
C 	C 	0.36690 0.66800 0.94520 -0.24500
H 	H 	0.37490 0.69120 0.99160 0.15800
C 	C 	0.34380 0.59470 0.80530 0.06800
C 	C 	0.34440 0.62270 0.95350 0.08700
C 	C 	0.33380 0.58560 0.88620 -0.11500
H 	H 	0.31940 0.55300 0.89330 0.11900
C 	C 	0.33180 0.55650 0.73020 0.28600
C 	C 	0.33170 0.61380 0.03560 0.27700
C 	C 	0.25990 0.42190 0.17090 0.28300
C 	C 	0.25140 0.34450 0.13600 -0.22300
H 	H 	0.25350 0.33250 0.07960 0.13800
C 	C 	0.25770 0.44010 0.25160 -0.25400
H 	H 	0.26480 0.49120 0.27220 0.12400
C 	C 	0.24000 0.28720 0.18740 0.05100
C 	C 	0.24530 0.38520 0.30590 0.06800
C 	C 	0.23480 0.30580 0.27230 -0.10400
H 	H 	0.22520 0.26860 0.30480 0.10800
C 	C 	0.24290 0.39890 0.39570 0.24700
C 	C 	0.29400 0.01030 0.59370 0.29400
C 	C 	0.31720 0.03220 0.63820 0.01700
C 	C 	0.45390 0.81690 0.86230 0.35500
C 	C 	0.22990 0.19870 0.15300 0.32800
C 	C 	0.32430 0.12250 0.64480 -0.14200
H 	H 	0.31460 0.16490 0.61930 0.11400
C 	C 	0.42170 0.70440 0.66350 0.34900
C 	C 	0.33250 0.97130 0.67100 -0.06400
H 	H 	0.32830 0.91260 0.66600 0.09300
C 	C 	0.34510 0.14750 0.68790 0.20000
C 	C 	0.37290 0.92660 0.74430 0.29000
C 	C 	0.35420 0.99390 0.71200 0.01000
C 	C 	0.36170 0.08130 0.71800 -0.12500
H 	H 	0.37700 0.09600 0.74080 0.12600
C 	C 	0.41730 0.68000 0.57620 -0.03500
C 	C 	0.42400 0.59580 0.54950 -0.01700
H 	H 	0.43150 0.55750 0.58670 0.07200
C 	C 	0.40920 0.73850 0.51850 -0.10600
H 	H 	0.40400 0.79350 0.53590 0.10200
C 	C 	0.42500 0.47680 0.44260 0.37800
C 	C 	0.40830 0.71790 0.43500 0.17000
C 	C 	0.41950 0.57030 0.47100 -0.02900
O 	O 	0.39830 0.77370 0.37200 -0.16800
C 	C 	0.41020 0.62960 0.41400 -0.10500
H 	H 	0.40520 0.61050 0.36160 0.10900
C 	C 	0.48050 0.95400 0.87400 -0.16900
H 	H 	0.46630 0.98200 0.85610 0.10600
C 	C 	0.47830 0.86100 0.88800 0.02700
C 	C 	0.47730 0.95500 0.90400 0.05600
H 	H 	0.46230 0.98360 0.91310 0.02500
C 	C 	0.47960 0.86700 0.87100 -0.04500
Zn	Zn	0.25296 0.06101 0.04909 1.22600
Zn	Zn	0.20057 0.05122 0.15008 1.23700
Zn	Zn	0.09555 0.32593 0.79350 1.22800
Zn	Zn	0.07028 0.15115 0.83811 1.23500
O 	O 	0.10090 0.22130 0.86190 -0.58200
O 	O 	0.16430 0.08150 0.66180 -0.28000
O 	O 	0.18410 0.99340 0.74640 -0.42000
O 	O 	0.15900 0.14880 0.09700 -0.26600
O 	O 	0.18693 0.06670 0.03900 -0.44100
O 	O 	0.22972 0.98220 0.11540 -0.56900
O 	O 	0.24330 0.95610 0.42970 -0.38900
O 	O 	0.27230 0.85500 0.43860 -0.29600
O 	O 	0.07210 0.14480 0.71730 -0.45800
O 	O 	0.07530 0.96620 0.36520 -0.47100
O 	O 	0.13490 0.34940 0.74600 -0.34500
O 	O 	0.08290 0.28190 0.68270 -0.45100
O 	O 	0.06510 0.36610 0.85030 -0.44500
O 	O 	0.04490 0.23690 0.86430 -0.48400
O 	O 	0.10720 0.44880 0.77220 -0.40000
O 	O 	0.21400 0.55380 0.53690 -0.31500
O 	O 	0.21648 0.43910 0.61830 -0.40000
O 	O 	0.28490 0.65790 0.20010 -0.43700
O 	O 	0.26200 0.67720 0.08450 -0.46100
O 	O 	0.14800 0.73220 0.70470 -0.16200
O 	O 	0.07180 0.92260 0.49050 -0.34000
C 	C 	0.12340 0.17670 0.86810 0.30100
C 	C 	0.13440 0.14290 0.79860 -0.25000
H 	H 	0.12730 0.15190 0.74650 0.12700
C 	C 	0.13310 0.16800 0.94520 -0.24600
H 	H 	0.12510 0.19120 0.99160 0.16000
C 	C 	0.15620 0.09470 0.80530 0.06700
C 	C 	0.15560 0.12270 0.95350 0.09000
C 	C 	0.16620 0.08560 0.88620 -0.11600
H 	H 	0.18060 0.05300 0.89330 0.12000
C 	C 	0.16820 0.05650 0.73020 0.29400
C 	C 	0.16830 0.11380 0.03560 0.27500
C 	C 	0.24010 0.92190 0.17090 0.28200
C 	C 	0.24860 0.84450 0.13600 -0.22300
H 	H 	0.24650 0.83250 0.07960 0.13800
C 	C 	0.24230 0.94010 0.25160 -0.25400
H 	H 	0.23520 0.99120 0.27220 0.12300
C 	C 	0.26000 0.78720 0.18740 0.05100
C 	C 	0.25470 0.88520 0.30590 0.06700
C 	C 	0.26520 0.80580 0.27230 -0.10400
H 	H 	0.27480 0.76860 0.30480 0.10800
C 	C 	0.25710 0.89890 0.39570 0.24700
C 	C 	0.20600 0.51030 0.59370 0.28800
C 	C 	0.18280 0.53220 0.63820 0.01100
C 	C 	0.04610 0.31690 0.86230 0.35700
C 	C 	0.27010 0.69870 0.15300 0.32800
C 	C 	0.17570 0.62250 0.64480 -0.14300
H 	H 	0.18540 0.66490 0.61930 0.11400
C 	C 	0.07830 0.20440 0.66350 0.34800
C 	C 	0.16750 0.47130 0.67100 -0.05700
H 	H 	0.17170 0.41260 0.66600 0.09100
C 	C 	0.15490 0.64750 0.68790 0.20200
C 	C 	0.12710 0.42660 0.74430 0.28900
C 	C 	0.14580 0.49390 0.71200 0.01800
C 	C 	0.13830 0.58130 0.71800 -0.13600
H 	H 	0.12300 0.59600 0.74080 0.12700
C 	C 	0.08270 0.18000 0.57620 -0.03300
C 	C 	0.07600 0.09580 0.54950 -0.02100
H 	H 	0.06850 0.05750 0.58670 0.07400
C 	C 	0.09080 0.23850 0.51850 -0.10800
H 	H 	0.09600 0.29350 0.53590 0.10300
C 	C 	0.07500 0.97680 0.44260 0.37300
C 	C 	0.09170 0.21790 0.43500 0.17300
C 	C 	0.08050 0.07030 0.47100 -0.02200
O 	O 	0.10170 0.27370 0.37200 -0.16700
C 	C 	0.08980 0.12960 0.41400 -0.10900
H 	H 	0.09480 0.11050 0.36160 0.11200
C 	C 	0.01950 0.45400 0.87400 -0.10300
H 	H 	0.03370 0.48200 0.85610 0.08600
C 	C 	0.02170 0.36100 0.88800 0.01200
C 	C 	0.02270 0.45500 0.90400 -0.00800
H 	H 	0.03770 0.48360 0.91310 0.05100
C 	C 	0.02040 0.36700 0.87100 -0.03000
Zn	Zn	0.75296 0.56101 0.04909 1.22600
Zn	Zn	0.70057 0.55122 0.15008 1.23600
Zn	Zn	0.59555 0.82593 0.79350 1.22800
Zn	Zn	0.57028 0.65115 0.83811 1.23400
O 	O 	0.60090 0.72130 0.86190 -0.58300
O 	O 	0.66430 0.58150 0.66180 -0.28000
O 	O 	0.68410 0.49340 0.74640 -0.41200
O 	O 	0.65900 0.64880 0.09700 -0.26700
O 	O 	0.68693 0.56670 0.03900 -0.44200
O 	O 	0.72972 0.48220 0.11540 -0.56700
O 	O 	0.74330 0.45610 0.42970 -0.38700
O 	O 	0.77230 0.35500 0.43860 -0.29500
O 	O 	0.57210 0.64480 0.71730 -0.45900
O 	O 	0.57530 0.46620 0.36520 -0.47100
O 	O 	0.63490 0.84940 0.74600 -0.34600
O 	O 	0.58290 0.78190 0.68270 -0.45200
O 	O 	0.56510 0.86610 0.85030 -0.44600
O 	O 	0.54490 0.73690 0.86430 -0.48500
O 	O 	0.60720 0.94880 0.77220 -0.40300
O 	O 	0.71400 0.05380 0.53690 -0.31400
O 	O 	0.71648 0.93910 0.61830 -0.40600
O 	O 	0.78490 0.15790 0.20010 -0.43700
O 	O 	0.76200 0.17720 0.08450 -0.46100
O 	O 	0.64800 0.23220 0.70470 -0.16100
O 	O 	0.57180 0.42260 0.49050 -0.34000
C 	C 	0.62340 0.67670 0.86810 0.30000
C 	C 	0.63440 0.64290 0.79860 -0.25000
H 	H 	0.62730 0.65190 0.74650 0.12700
C 	C 	0.63310 0.66800 0.94520 -0.24500
H 	H 	0.62510 0.69120 0.99160 0.15800
C 	C 	0.65620 0.59470 0.80530 0.06800
C 	C 	0.65560 0.62270 0.95350 0.08700
C 	C 	0.66620 0.58560 0.88620 -0.11500
H 	H 	0.68060 0.55300 0.89330 0.11900
C 	C 	0.66820 0.55650 0.73020 0.28600
C 	C 	0.66830 0.61380 0.03560 0.27700
C 	C 	0.74010 0.42190 0.17090 0.28300
C 	C 	0.74860 0.34450 0.13600 -0.22300
H 	H 	0.74650 0.33250 0.07960 0.13800
C 	C 	0.74230 0.44010 0.25160 -0.25400
H 	H 	0.73520 0.49120 0.27220 0.12400
C 	C 	0.76000 0.28720 0.18740 0.05100
C 	C 	0.75470 0.38520 0.30590 0.06800
C 	C 	0.76520 0.30580 0.27230 -0.10400
H 	H 	0.77480 0.26860 0.30480 0.10800
C 	C 	0.75710 0.39890 0.39570 0.24700
C 	C 	0.70600 0.01030 0.59370 0.29400
C 	C 	0.68280 0.03220 0.63820 0.01700
C 	C 	0.54610 0.81690 0.86230 0.35500
C 	C 	0.77010 0.19870 0.15300 0.32800
C 	C 	0.67570 0.12250 0.64480 -0.14200
H 	H 	0.68540 0.16490 0.61930 0.11400
C 	C 	0.57830 0.70440 0.66350 0.34900
C 	C 	0.66750 0.97130 0.67100 -0.06400
H 	H 	0.67170 0.91260 0.66600 0.09300
C 	C 	0.65490 0.14750 0.68790 0.20000
C 	C 	0.62710 0.92660 0.74430 0.29000
C 	C 	0.64580 0.99390 0.71200 0.01000
C 	C 	0.63830 0.08130 0.71800 -0.12500
H 	H 	0.62300 0.09600 0.74080 0.12600
C 	C 	0.58270 0.68000 0.57620 -0.03500
C 	C 	0.57600 0.59580 0.54950 -0.01700
H 	H 	0.56850 0.55750 0.58670 0.07200
C 	C 	0.59080 0.73850 0.51850 -0.10600
H 	H 	0.59600 0.79350 0.53590 0.10200
C 	C 	0.57500 0.47680 0.44260 0.37800
C 	C 	0.59170 0.71790 0.43500 0.17000
C 	C 	0.58050 0.57030 0.47100 -0.02900
O 	O 	0.60170 0.77370 0.37200 -0.16800
C 	C 	0.58980 0.62960 0.41400 -0.10500
H 	H 	0.59480 0.61050 0.36160 0.10900
C 	C 	0.51950 0.95400 0.87400 -0.16900
H 	H 	0.53370 0.98200 0.85610 0.10600
C 	C 	0.52170 0.86100 0.88800 0.02700
C 	C 	0.52270 0.95500 0.90400 0.05600
H 	H 	0.53770 0.98360 0.91310 0.02500
C 	C 	0.52040 0.86700 0.87100 -0.04500
Zn	Zn	0.74704 0.93899 0.54909 1.22900
Zn	Zn	0.79943 0.94878 0.65008 1.23600
Zn	Zn	0.90445 0.67407 0.29350 1.22700
Zn	Zn	0.92972 0.84885 0.33811 1.23400
O 	O 	0.89910 0.77870 0.36190 -0.58100
O 	O 	0.83570 0.91850 0.16180 -0.28600
O 	O 	0.81590 0.00660 0.24640 -0.41100
O 	O 	0.84100 0.85120 0.59700 -0.27000
O 	O 	0.81307 0.93330 0.53900 -0.44200
O 	O 	0.77028 0.01780 0.61540 -0.55900
O 	O 	0.75670 0.04390 0.92970 -0.37100
O 	O 	0.72770 0.14500 0.93860 -0.28000
O 	O 	0.92790 0.85520 0.21730 -0.45700
O 	O 	0.92470 0.03380 0.86520 -0.46200
O 	O 	0.86510 0.65060 0.24600 -0.34800
O 	O 	0.91710 0.71810 0.18270 -0.45000
O 	O 	0.93490 0.63390 0.35030 -0.44900
O 	O 	0.95510 0.76310 0.36430 -0.48800
O 	O 	0.89280 0.55120 0.27220 -0.40400
O 	O 	0.78600 0.44620 0.03690 -0.32500
O 	O 	0.78352 0.56090 0.11830 -0.40500
O 	O 	0.71510 0.34210 0.70010 -0.43500
O 	O 	0.73800 0.32280 0.58450 -0.45300
O 	O 	0.85200 0.26780 0.20470 -0.16600
O 	O 	0.92820 0.07740 0.99050 -0.32400
C 	C 	0.87660 0.82330 0.36810 0.28400
C 	C 	0.86560 0.85710 0.29860 -0.23800
H 	H 	0.87270 0.84810 0.24650 0.12100
C 	C 	0.86690 0.83200 0.44520 -0.22200
H 	H 	0.87490 0.80880 0.49160 0.14300
C 	C 	0.84380 0.90530 0.30530 0.05300
C 	C 	0.84440 0.87730 0.45350 0.04300
C 	C 	0.83380 0.91440 0.38620 -0.09200
H 	H 	0.81940 0.94700 0.39330 0.10400
C 	C 	0.83180 0.94350 0.23020 0.28700
C 	C 	0.83170 0.88620 0.53560 0.31100
C 	C 	0.75990 0.07810 0.67090 0.28700
C 	C 	0.75140 0.15550 0.63600 -0.22700
H 	H 	0.75350 0.16750 0.57960 0.14500
C 	C 	0.75770 0.05990 0.75160 -0.25800
H 	H 	0.76480 0.00880 0.77220 0.12900
C 	C 	0.74000 0.21280 0.68740 0.05600
C 	C 	0.74530 0.11480 0.80590 0.07600
C 	C 	0.73480 0.19420 0.77230 -0.10800
H 	H 	0.72520 0.23140 0.80480 0.11200
C 	C 	0.74290 0.10110 0.89570 0.24400
C 	C 	0.79400 0.48970 0.09370 0.29000
C 	C 	0.81720 0.46780 0.13820 0.00500
C 	C 	0.95390 0.68310 0.36230 0.35600
C 	C 	0.72990 0.30130 0.65300 0.32500
C 	C 	0.82430 0.37750 0.14480 -0.14200
H 	H 	0.81460 0.33510 0.11930 0.11000
C 	C 	0.92170 0.79560 0.16350 0.33000
C 	C 	0.83250 0.52870 0.17100 -0.05600
H 	H 	0.82830 0.58740 0.16600 0.08800
C 	C 	0.84510 0.35250 0.18790 0.19800
C 	C 	0.87290 0.57340 0.24430 0.28900
C 	C 	0.85420 0.50610 0.21200 0.01300
C 	C 	0.86170 0.41870 0.21800 -0.13600
H 	H 	0.87700 0.40400 0.24080 0.12400
C 	C 	0.91730 0.82000 0.07620 0.01100
C 	C 	0.92400 0.90420 0.04950 -0.09400
H 	H 	0.93150 0.94250 0.08670 0.08900
C 	C 	0.90920 0.76150 0.01850 -0.18300
H 	H 	0.90400 0.70650 0.03590 0.12100
C 	C 	0.92500 0.02320 0.94260 0.36300
C 	C 	0.90830 0.78210 0.93500 0.23300
C 	C 	0.91950 0.92970 0.97100 0.03300
O 	O 	0.89830 0.72630 0.87200 -0.17200
C 	C 	0.91020 0.87040 0.91400 -0.15200
H 	H 	0.90520 0.88950 0.86160 0.12600
C 	C 	0.98050 0.54600 0.37400 -0.10800
H 	H 	0.96630 0.51800 0.35610 0.08600
C 	C 	0.97830 0.63900 0.38800 0.01200
C 	C 	0.97730 0.54500 0.40400 -0.00200
H 	H 	0.96230 0.51640 0.41310 0.04500
C 	C 	0.97960 0.63300 0.37100 -0.03400
Zn	Zn	0.24704 0.43899 0.54909 1.23100
Zn	Zn	0.29943 0.44878 0.65008 1.23700
Zn	Zn	0.40445 0.17407 0.29350 1.22700
Zn	Zn	0.42972 0.34885 0.33811 1.23400
O 	O 	0.39910 0.27870 0.36190 -0.58000
O 	O 	0.33570 0.41850 0.16180 -0.28600
O 	O 	0.31590 0.50660 0.24640 -0.41600
O 	O 	0.34100 0.35120 0.59700 -0.26800
O 	O 	0.31307 0.43330 0.53900 -0.44000
O 	O 	0.27028 0.51780 0.61540 -0.56300
O 	O 	0.25670 0.54390 0.92970 -0.37400
O 	O 	0.22770 0.64500 0.93860 -0.28200
O 	O 	0.42790 0.35520 0.21730 -0.45600
O 	O 	0.42470 0.53380 0.86520 -0.46200
O 	O 	0.36510 0.15060 0.24600 -0.34800
O 	O 	0.41710 0.21810 0.18270 -0.44900
O 	O 	0.43490 0.13390 0.35030 -0.44800
O 	O 	0.45510 0.26310 0.36430 -0.48700
O 	O 	0.39280 0.05120 0.27220 -0.40200
O 	O 	0.28600 0.94620 0.03690 -0.32500
O 	O 	0.28352 0.06090 0.11830 -0.40100
O 	O 	0.21510 0.84210 0.70010 -0.43600
O 	O 	0.23800 0.82280 0.58450 -0.45300
O 	O 	0.35200 0.76780 0.20470 -0.16700
O 	O 	0.42820 0.57740 0.99050 -0.32300
C 	C 	0.37660 0.32330 0.36810 0.28400
C 	C 	0.36560 0.35710 0.29860 -0.23700
H 	H 	0.37270 0.34810 0.24650 0.12100
C 	C 	0.36690 0.33200 0.44520 -0.22200
H 	H 	0.37490 0.30880 0.49160 0.14400
C 	C 	0.34380 0.40530 0.30530 0.05200
C 	C 	0.34440 0.37730 0.45350 0.04400
C 	C 	0.33380 0.41440 0.38620 -0.09100
H 	H 	0.31940 0.44700 0.39330 0.10400
C 	C 	0.33180 0.44350 0.23020 0.29200
C 	C 	0.33170 0.38620 0.53560 0.31100
C 	C 	0.25990 0.57810 0.67090 0.28600
C 	C 	0.25140 0.65550 0.63600 -0.22600
H 	H 	0.25350 0.66750 0.57960 0.14400
C 	C 	0.25770 0.55990 0.75160 -0.25700
H 	H 	0.26480 0.50880 0.77220 0.12700
C 	C 	0.24000 0.71280 0.68740 0.05500
C 	C 	0.24530 0.61480 0.80590 0.07400
C 	C 	0.23480 0.69420 0.77230 -0.10700
H 	H 	0.22520 0.73140 0.80480 0.11100
C 	C 	0.24290 0.60110 0.89570 0.24400
C 	C 	0.29400 0.98970 0.09370 0.28600
C 	C 	0.31720 0.96780 0.13820 0.00100
C 	C 	0.45390 0.18310 0.36230 0.35700
C 	C 	0.22990 0.80130 0.65300 0.32500
C 	C 	0.32430 0.87750 0.14480 -0.14200
H 	H 	0.31460 0.83510 0.11930 0.11100
C 	C 	0.42170 0.29560 0.16350 0.32600
C 	C 	0.33250 0.02870 0.17100 -0.05100
H 	H 	0.32830 0.08740 0.16600 0.08700
C 	C 	0.34510 0.85250 0.18790 0.19900
C 	C 	0.37290 0.07340 0.24430 0.28800
C 	C 	0.35420 0.00610 0.21200 0.01900
C 	C 	0.36170 0.91870 0.21800 -0.14400
H 	H 	0.37700 0.90400 0.24080 0.12500
C 	C 	0.41730 0.32000 0.07620 0.02000
C 	C 	0.42400 0.40420 0.04950 -0.10900
H 	H 	0.43150 0.44250 0.08670 0.09500
C 	C 	0.40920 0.26150 0.01850 -0.19400
H 	H 	0.40400 0.20650 0.03590 0.12400
C 	C 	0.42500 0.52320 0.94260 0.35200
C 	C 	0.40830 0.28210 0.93500 0.24300
C 	C 	0.41950 0.42970 0.97100 0.05100
O 	O 	0.39830 0.22630 0.87200 -0.17100
C 	C 	0.41020 0.37040 0.91400 -0.16300
H 	H 	0.40520 0.38950 0.86160 0.13200
C 	C 	0.48050 0.04600 0.37400 -0.05700
H 	H 	0.46630 0.01800 0.35610 0.07000
C 	C 	0.47830 0.13900 0.38800 0.00100
C 	C 	0.47730 0.04500 0.40400 -0.05100
H 	H 	0.46230 0.01640 0.41310 0.06600
C 	C 	0.47960 0.13300 0.37100 -0.02300
O 	O 	0.00000 0.40900 0.38600 -0.05900
C 	C 	0.00000 0.49800 0.38300 -0.02900
C 	C 	-0.00000 0.67600 0.36900 -0.01800
H 	H 	0.00000 0.72990 0.34160 0.04200
C 	C 	0.00000 0.50800 0.41900 0.18900
O 	O 	0.00000 0.41600 0.43600 -0.12800
C 	C 	-0.00000 0.67600 0.38200 -0.02200
H 	H 	-0.00000 0.73480 0.39680 0.05100
O 	O 	0.50000 0.90900 0.38600 -0.11200
C 	C 	0.50000 0.99800 0.38300 0.11000
C 	C 	0.50000 0.17600 0.36900 -0.01500
H 	H 	0.50000 0.22990 0.34160 0.04000
C 	C 	0.50000 0.00800 0.41900 0.04600
O 	O 	0.50000 0.91600 0.43600 -0.08400
C 	C 	0.50000 0.17600 0.38200 -0.02600
H 	H 	0.50000 0.23480 0.39680 0.05500
O 	O 	0.00000 0.59100 0.88600 -0.06300
C 	C 	0.00000 0.50200 0.88300 -0.01500
C 	C 	0.00000 0.32400 0.86900 -0.01900
H 	H 	-0.00000 0.27010 0.84160 0.04400
C 	C 	0.00000 0.49200 0.91900 0.17800
O 	O 	-0.00000 0.58400 0.93600 -0.11700
C 	C 	0.00000 0.32400 0.88200 -0.02400
H 	H 	0.00000 0.26520 0.89680 0.05500
O 	O 	0.50000 0.09100 0.88600 0.00700
C 	C 	0.50000 0.00200 0.88300 -0.19900
C 	C 	0.50000 0.82400 0.86900 -0.02200
H 	H 	0.50000 0.77010 0.84160 0.04600
C 	C 	0.50000 0.99200 0.91900 0.36600
O 	O 	0.50000 0.08400 0.93600 -0.17300
C 	C 	0.50000 0.82400 0.88200 -0.01800
H 	H 	0.50000 0.76520 0.89680 0.05000
