data_crystal

_cell_length_a 14.61630
_cell_length_b 23.16390
_cell_length_c 15.71130
_cell_angle_alpha 90.00000
_cell_angle_beta  108.06100
_cell_angle_gamma 90.00000

_symmetry_space_group_name_	'P 1'
_symmetry_space_group_name_H-M	'P 1'

loop_
_symmetry_equiv_pos_as_xyz
  x,y,z

loop_
_atom_site_label
_atom_site_type_symbol
_atom_site_fract_x
_atom_site_fract_y
_atom_site_fract_z
_atom_site_charge
Cd	Cd	0.73518 0.43898 0.08513 1.23600
Cd	Cd	0.76406 0.30267 0.20212 1.21600
O 	O 	0.54640 0.40770 0.01720 -0.49200
O 	O 	0.39350 0.48510 0.06700 -0.46500
O 	O 	0.83010 0.34513 0.09940 -0.52100
O 	O 	0.27740 0.54871 0.05800 -0.43000
O 	O 	0.65030 0.37831 0.14160 -0.53100
O 	O 	0.39130 0.01854 0.36740 -0.47100
O 	O 	0.66970 0.27775 0.70310 -0.38400
O 	O 	0.89800 0.42775 0.11910 -0.39600
C 	C 	0.28400 0.21300 0.23040 0.17800
O 	O 	0.23990 0.02669 0.36340 -0.43000
O 	O 	0.65430 0.24323 0.56960 -0.35300
C 	C 	0.35390 0.17450 0.21900 -0.21200
H 	H 	0.39140 0.18470 0.18310 0.11400
C 	C 	0.50610 0.32680 0.19890 0.12900
H 	H 	0.56690 0.33000 0.24080 -0.00500
N 	N 	0.26830 0.26689 0.18610 -0.20100
C 	C 	0.54940 0.32000 0.58040 -0.13500
N 	N 	0.34760 0.44841 0.45440 -0.18700
C 	C 	0.48480 0.31100 0.49680 0.08300
H 	H 	0.48800 0.27690 0.46650 0.01700
C 	C 	0.48950 0.34954 0.11330 -0.19400
C 	C 	0.43370 0.29966 0.22230 -0.22200
H 	H 	0.44590 0.28470 0.27970 0.11700
C 	C 	0.33850 0.49457 0.19190 -0.17900
C 	C 	0.41720 0.46612 0.24720 0.12200
H 	H 	0.46810 0.45660 0.22610 0.00300
C 	C 	0.31670 0.49090 0.50580 0.15600
C 	C 	0.41190 0.40410 0.50030 0.16300
C 	C 	0.54190 0.37030 0.62470 0.08000
H 	H 	0.58350 0.37630 0.68220 0.02000
C 	C 	0.34340 0.29460 0.16130 0.18600
C 	C 	0.56570 0.38094 0.08820 0.42500
C 	C 	0.42150 0.45160 0.33290 -0.21800
H 	H 	0.47650 0.43370 0.36990 0.11400
O 	O 	0.26270 0.67040 0.66450 -0.37300
C 	C 	0.26210 0.50720 0.22380 0.11300
H 	H 	0.20940 0.52730 0.18750 0.00700
C 	C 	0.22960 0.19800 0.28600 -0.21300
H 	H 	0.18710 0.22420 0.29820 0.10400
C 	C 	0.36640 0.12160 0.26130 0.11900
H 	H 	0.41520 0.09710 0.25710 0.00000
C 	C 	0.62960 0.27780 0.62040 0.32000
C 	C 	0.30650 0.10490 0.31020 -0.18000
C 	C 	0.33620 0.51127 0.09890 0.40600
C 	C 	0.00420 0.28860 0.11600 0.14000
H 	H 	0.94860 0.26660 0.09410 -0.02900
C 	C 	0.26320 0.49020 0.30880 -0.21100
H 	H 	0.20990 0.49680 0.32780 0.11100
C 	C 	0.34470 0.46310 0.36560 0.17600
C 	C 	0.99750 0.34640 0.13170 -0.22200
C 	C 	0.39800 0.34410 0.05230 0.09200
H 	H 	0.38540 0.35870 0.99460 0.02500
C 	C 	0.31550 0.04600 0.35050 0.38900
C 	C 	0.47390 0.41190 0.58570 -0.19600
H 	H 	0.47000 0.44530 0.61720 0.10600
C 	C 	0.24010 0.14280 0.32280 0.11700
H 	H 	0.20120 0.13150 0.35680 0.00200
C 	C 	0.17750 0.29430 0.16620 0.20000
C 	C 	0.32510 0.31680 0.07680 -0.20300
H 	H 	0.26380 0.31370 0.03580 0.10200
C 	C 	0.09340 0.26280 0.13270 -0.24400
H 	H 	0.09700 0.22360 0.12130 0.11300
O 	O 	0.18460 0.60280 0.71670 -0.38100
C 	C 	0.33000 0.54970 0.49520 -0.18800
H 	H 	0.35840 0.56190 0.45300 0.10400
C 	C 	0.41490 0.35160 0.45660 -0.18900
H 	H 	0.37030 0.34410 0.40100 0.10000
C 	C 	0.27570 0.47330 0.57080 -0.17700
H 	H 	0.26800 0.43430 0.58080 0.09900
C 	C 	0.90100 0.37290 0.11560 0.42100
C 	C 	0.08240 0.37890 0.16300 0.14200
H 	H 	0.07890 0.41840 0.17200 -0.00200
C 	C 	0.30160 0.58980 0.54630 0.07700
H 	H 	0.31010 0.62890 0.53740 0.02300
C 	C 	0.17180 0.35250 0.18060 -0.24000
H 	H 	0.22770 0.37430 0.20220 0.12300
C 	C 	0.24630 0.51600 0.62120 0.07300
H 	H 	0.21630 0.50470 0.66280 0.02200
C 	C 	0.26090 0.57320 0.61030 -0.12200
C 	C 	0.23220 0.61940 0.66690 0.31000
Cd	Cd	0.26482 0.93898 0.41487 1.24100
Cd	Cd	0.23594 0.80267 0.29788 1.21500
O 	O 	0.45360 0.90770 0.48280 -0.48300
O 	O 	0.60650 0.98510 0.43300 -0.43100
O 	O 	0.16990 0.84513 0.40060 -0.51800
O 	O 	0.72260 0.04871 0.44200 -0.41000
O 	O 	0.34970 0.87831 0.35840 -0.53100
O 	O 	0.60870 0.51854 0.13260 -0.46500
O 	O 	0.33030 0.77775 0.79690 -0.38400
O 	O 	0.10200 0.92775 0.38090 -0.38700
C 	C 	0.71600 0.71300 0.26960 0.17800
O 	O 	0.76010 0.52669 0.13660 -0.42400
O 	O 	0.34570 0.74323 0.93040 -0.34700
C 	C 	0.64610 0.67450 0.28100 -0.21200
H 	H 	0.60860 0.68470 0.31690 0.11500
C 	C 	0.49390 0.82680 0.30110 0.15100
H 	H 	0.43310 0.83000 0.25920 -0.01200
N 	N 	0.73170 0.76689 0.31390 -0.20300
C 	C 	0.45060 0.82000 0.91960 -0.12100
N 	N 	0.65240 0.94841 0.04560 -0.20900
C 	C 	0.51520 0.81100 0.00320 0.07000
H 	H 	0.51200 0.77690 0.03350 0.01600
C 	C 	0.51050 0.84954 0.38670 -0.22000
C 	C 	0.56630 0.79966 0.27770 -0.24200
H 	H 	0.55410 0.78470 0.22030 0.12300
C 	C 	0.66150 0.99457 0.30810 -0.08600
C 	C 	0.58280 0.96612 0.25280 0.05600
H 	H 	0.53190 0.95660 0.27390 0.02900
C 	C 	0.68330 0.99090 0.99420 0.24200
C 	C 	0.58810 0.90410 0.99970 0.20200
C 	C 	0.45810 0.87030 0.87530 0.08800
H 	H 	0.41650 0.87630 0.81780 0.01900
C 	C 	0.65660 0.79460 0.33870 0.20500
C 	C 	0.43430 0.88094 0.41180 0.43500
C 	C 	0.57850 0.95160 0.16710 -0.16400
H 	H 	0.52350 0.93370 0.13010 0.09400
O 	O 	0.73730 0.17040 0.83550 -0.37400
C 	C 	0.73790 0.00720 0.27620 0.00400
H 	H 	0.79060 0.02730 0.31250 0.04100
C 	C 	0.77040 0.69800 0.21400 -0.21300
H 	H 	0.81290 0.72420 0.20180 0.10200
C 	C 	0.63360 0.62160 0.23870 0.11700
H 	H 	0.58480 0.59710 0.24290 0.00200
C 	C 	0.37040 0.77780 0.87960 0.31800
C 	C 	0.69350 0.60490 0.18980 -0.17800
C 	C 	0.66380 0.01127 0.40110 0.34300
C 	C 	0.99580 0.78860 0.38400 0.13700
H 	H 	0.05140 0.76660 0.40590 -0.02500
C 	C 	0.73680 0.99020 0.19120 -0.13000
H 	H 	0.79010 0.99680 0.17220 0.08500
C 	C 	0.65530 0.96310 0.13440 0.13700
C 	C 	0.00250 0.84640 0.36830 -0.21700
C 	C 	0.60200 0.84410 0.44770 0.15200
H 	H 	0.61460 0.85870 0.50540 -0.01000
C 	C 	0.68450 0.54600 0.14950 0.38600
C 	C 	0.52610 0.91190 0.91430 -0.21100
H 	H 	0.53000 0.94530 0.88280 0.11600
C 	C 	0.75990 0.64280 0.17720 0.11600
H 	H 	0.79880 0.63150 0.14320 0.00000
C 	C 	0.82250 0.79430 0.33380 0.19900
C 	C 	0.67490 0.81680 0.42320 -0.23800
H 	H 	0.73620 0.81370 0.46420 0.12000
C 	C 	0.90660 0.76280 0.36730 -0.24100
H 	H 	0.90300 0.72360 0.37870 0.11500
O 	O 	0.81540 0.10280 0.78330 -0.38500
C 	C 	0.67000 0.04970 0.00480 -0.31400
H 	H 	0.64160 0.06190 0.04700 0.13900
C 	C 	0.58510 0.85160 0.04340 -0.21700
H 	H 	0.62970 0.84410 0.09900 0.10700
C 	C 	0.72430 0.97330 0.92920 -0.20700
H 	H 	0.73200 0.93430 0.91920 0.11300
C 	C 	0.09900 0.87290 0.38440 0.42000
C 	C 	0.91760 0.87890 0.33700 0.14000
H 	H 	0.92110 0.91840 0.32800 0.00300
C 	C 	0.69840 0.08980 0.95370 0.16600
H 	H 	0.68990 0.12890 0.96260 -0.00300
C 	C 	0.82820 0.85250 0.31940 -0.23700
H 	H 	0.77230 0.87430 0.29780 0.12300
C 	C 	0.75370 0.01600 0.87880 0.09700
H 	H 	0.78370 0.00470 0.83720 0.00800
C 	C 	0.73910 0.07320 0.88970 -0.16400
C 	C 	0.76780 0.11940 0.83310 0.32400
Cd	Cd	0.26482 0.56102 0.91487 1.24000
Cd	Cd	0.23594 0.69733 0.79788 1.21600
O 	O 	0.45360 0.59230 0.98280 -0.47900
O 	O 	0.60650 0.51490 0.93300 -0.45200
O 	O 	0.16990 0.65487 0.90060 -0.51500
O 	O 	0.72260 0.45129 0.94200 -0.41200
O 	O 	0.34970 0.62169 0.85840 -0.53400
O 	O 	0.60870 0.98146 0.63260 -0.45200
O 	O 	0.33030 0.72225 0.29690 -0.38800
O 	O 	0.10200 0.57225 0.88090 -0.38700
C 	C 	0.71600 0.78700 0.76960 0.17800
O 	O 	0.76010 0.97331 0.63660 -0.41100
O 	O 	0.34570 0.75677 0.43040 -0.35400
C 	C 	0.64610 0.82550 0.78100 -0.20900
H 	H 	0.60860 0.81530 0.81690 0.11500
C 	C 	0.49390 0.67320 0.80110 0.17300
H 	H 	0.43310 0.67000 0.75920 -0.01900
N 	N 	0.73170 0.73311 0.81390 -0.20600
C 	C 	0.45060 0.68000 0.41960 -0.13600
N 	N 	0.65240 0.55159 0.54560 -0.18700
C 	C 	0.51520 0.68900 0.50320 0.08400
H 	H 	0.51200 0.72310 0.53350 0.01700
C 	C 	0.51050 0.65046 0.88670 -0.24500
C 	C 	0.56630 0.70034 0.77770 -0.26200
H 	H 	0.55410 0.71530 0.72030 0.13100
C 	C 	0.66150 0.50543 0.80810 -0.17300
C 	C 	0.58280 0.53388 0.75280 0.11800
H 	H 	0.53190 0.54340 0.77390 0.00500
C 	C 	0.68330 0.50910 0.49420 0.15600
C 	C 	0.58810 0.59590 0.49970 0.16400
C 	C 	0.45810 0.62970 0.37530 0.08100
H 	H 	0.41650 0.62370 0.31780 0.01800
C 	C 	0.65660 0.70540 0.83870 0.22500
C 	C 	0.43430 0.61906 0.91180 0.44500
C 	C 	0.57850 0.54840 0.66710 -0.21600
H 	H 	0.52350 0.56630 0.63010 0.11300
O 	O 	0.73730 0.32960 0.33550 -0.37400
C 	C 	0.73790 0.49280 0.77620 0.11000
H 	H 	0.79060 0.47270 0.81250 0.01200
C 	C 	0.77040 0.80200 0.71400 -0.20900
H 	H 	0.81290 0.77580 0.70180 0.10400
C 	C 	0.63360 0.87840 0.73870 0.11500
H 	H 	0.58480 0.90290 0.74290 0.00500
C 	C 	0.37040 0.72220 0.37960 0.32100
C 	C 	0.69350 0.89510 0.68980 -0.17200
C 	C 	0.66380 0.48873 0.90110 0.40300
C 	C 	0.99580 0.71140 0.88400 0.13500
H 	H 	0.05140 0.73340 0.90590 -0.02100
C 	C 	0.73680 0.50980 0.69120 -0.20800
H 	H 	0.79010 0.50320 0.67220 0.11000
C 	C 	0.65530 0.53690 0.63440 0.17500
C 	C 	0.00250 0.65360 0.86830 -0.21300
C 	C 	0.60200 0.65590 0.94770 0.21100
H 	H 	0.61460 0.64130 0.00540 -0.04400
C 	C 	0.68450 0.95400 0.64950 0.38400
C 	C 	0.52610 0.58810 0.41430 -0.19700
H 	H 	0.53000 0.55470 0.38280 0.10700
C 	C 	0.75990 0.85720 0.67720 0.11400
H 	H 	0.79880 0.86850 0.64320 0.00600
C 	C 	0.82250 0.70570 0.83380 0.20000
C 	C 	0.67490 0.68320 0.92320 -0.27300
H 	H 	0.73620 0.68630 0.96420 0.13600
C 	C 	0.90660 0.73720 0.86730 -0.23800
H 	H 	0.90300 0.77640 0.87870 0.11700
O 	O 	0.81540 0.39720 0.28330 -0.38100
C 	C 	0.67000 0.45030 0.50480 -0.18800
H 	H 	0.64160 0.43810 0.54700 0.10400
C 	C 	0.58510 0.64840 0.54340 -0.19000
H 	H 	0.62970 0.65590 0.59900 0.10000
C 	C 	0.72430 0.52670 0.42920 -0.17700
H 	H 	0.73200 0.56570 0.41920 0.09900
C 	C 	0.09900 0.62710 0.88440 0.42000
C 	C 	0.91760 0.62110 0.83700 0.13900
H 	H 	0.92110 0.58160 0.82800 0.00200
C 	C 	0.69840 0.41020 0.45370 0.07700
H 	H 	0.68990 0.37110 0.46260 0.02300
C 	C 	0.82820 0.64750 0.81940 -0.23500
H 	H 	0.77230 0.62570 0.79780 0.12200
C 	C 	0.75370 0.48400 0.37880 0.07300
H 	H 	0.78370 0.49530 0.33720 0.02100
C 	C 	0.73910 0.42680 0.38970 -0.12300
C 	C 	0.76780 0.38060 0.33310 0.31000
Cd	Cd	0.73518 0.06102 0.58513 1.23400
Cd	Cd	0.76406 0.19733 0.70212 1.21600
O 	O 	0.54640 0.09230 0.51720 -0.48900
O 	O 	0.39350 0.01490 0.56700 -0.48600
O 	O 	0.83010 0.15487 0.59940 -0.52000
O 	O 	0.27740 0.95129 0.55800 -0.43200
O 	O 	0.65030 0.12169 0.64160 -0.53400
O 	O 	0.39130 0.48146 0.86740 -0.45800
O 	O 	0.66970 0.22225 0.20310 -0.38900
O 	O 	0.89800 0.07225 0.61910 -0.39700
C 	C 	0.28400 0.28700 0.73040 0.17800
O 	O 	0.23990 0.47331 0.86340 -0.41700
O 	O 	0.65430 0.25677 0.06960 -0.36100
C 	C 	0.35390 0.32550 0.71900 -0.21000
H 	H 	0.39140 0.31530 0.68310 0.11500
C 	C 	0.50610 0.17320 0.69890 0.15200
H 	H 	0.56690 0.17000 0.74080 -0.01200
N 	N 	0.26830 0.23311 0.68610 -0.20400
C 	C 	0.54940 0.18000 0.08040 -0.15100
N 	N 	0.34760 0.05159 0.95440 -0.16300
C 	C 	0.48480 0.18900 0.99680 0.09700
H 	H 	0.48800 0.22310 0.96650 0.01800
C 	C 	0.48950 0.15046 0.61330 -0.22000
C 	C 	0.43370 0.20034 0.72230 -0.24300
H 	H 	0.44590 0.21530 0.77970 0.12500
C 	C 	0.33850 0.00543 0.69190 -0.26200
C 	C 	0.41720 0.03388 0.74720 0.18100
H 	H 	0.46810 0.04340 0.72610 -0.02000
C 	C 	0.31670 0.00910 0.00580 0.07000
C 	C 	0.41190 0.09590 0.00030 0.12300
C 	C 	0.54190 0.12970 0.12470 0.07300
H 	H 	0.58350 0.12370 0.18220 0.01900
C 	C 	0.34340 0.20540 0.66130 0.20600
C 	C 	0.56570 0.11906 0.58820 0.43600
C 	C 	0.42150 0.04840 0.83290 -0.26700
H 	H 	0.47650 0.06630 0.86990 0.13200
O 	O 	0.26270 0.82960 0.16450 -0.37300
C 	C 	0.26210 0.99280 0.72380 0.21300
H 	H 	0.20940 0.97270 0.68750 -0.02000
C 	C 	0.22960 0.30200 0.78600 -0.21000
H 	H 	0.18710 0.27580 0.79820 0.10600
C 	C 	0.36640 0.37840 0.76130 0.11700
H 	H 	0.41520 0.40290 0.75710 0.00400
C 	C 	0.62960 0.22220 0.12040 0.32400
C 	C 	0.30650 0.39510 0.81020 -0.17400
C 	C 	0.33620 0.98873 0.59890 0.46300
C 	C 	0.00420 0.21140 0.61600 0.14600
H 	H 	0.94860 0.23340 0.59410 -0.02900
C 	C 	0.26320 0.00980 0.80880 -0.28500
H 	H 	0.20990 0.00320 0.82780 0.13500
C 	C 	0.34470 0.03690 0.86560 0.21200
C 	C 	0.99750 0.15360 0.63170 -0.22500
C 	C 	0.39800 0.15590 0.55230 0.15300
H 	H 	0.38540 0.14130 0.49460 -0.01000
C 	C 	0.31550 0.45400 0.85050 0.38600
C 	C 	0.47390 0.08810 0.08570 -0.18100
H 	H 	0.47000 0.05470 0.11720 0.09600
C 	C 	0.24010 0.35720 0.82280 0.11500
H 	H 	0.20120 0.36850 0.85680 0.00800
C 	C 	0.17750 0.20570 0.66620 0.20400
C 	C 	0.32510 0.18320 0.57680 -0.23900
H 	H 	0.26380 0.18630 0.53580 0.11900
C 	C 	0.09340 0.23720 0.63270 -0.24700
H 	H 	0.09700 0.27640 0.62130 0.11700
O 	O 	0.18460 0.89720 0.21670 -0.37700
C 	C 	0.33000 0.95030 0.99520 -0.06200
H 	H 	0.35840 0.93810 0.95300 0.06900
C 	C 	0.41490 0.14840 0.95660 -0.16000
H 	H 	0.37030 0.15590 0.90100 0.09200
C 	C 	0.27570 0.02670 0.07080 -0.14600
H 	H 	0.26800 0.06570 0.08080 0.08400
C 	C 	0.90100 0.12710 0.61560 0.42400
C 	C 	0.08240 0.12110 0.66300 0.14800
H 	H 	0.07890 0.08160 0.67200 -0.00400
C 	C 	0.30160 0.91020 0.04630 -0.01100
H 	H 	0.31010 0.87110 0.03740 0.04800
C 	C 	0.17180 0.14750 0.68060 -0.24300
H 	H 	0.22770 0.12570 0.70220 0.12400
C 	C 	0.24630 0.98400 0.12120 0.04900
H 	H 	0.21630 0.99530 0.16280 0.03400
C 	C 	0.26090 0.92680 0.11030 -0.08100
C 	C 	0.23220 0.88060 0.16690 0.29500
Cd	Cd	0.50000 0.50000 -0.00000 1.25100
Cd	Cd	0.50000 0.00000 0.50000 1.25200
