data_crystal

_cell_length_a 14.79790
_cell_length_b 18.64130
_cell_length_c 22.28790
_cell_angle_alpha 86.67200
_cell_angle_beta  79.48500
_cell_angle_gamma 75.82500

_symmetry_space_group_name_	'P 1'
_symmetry_space_group_name_H-M	'P 1'

loop_
_symmetry_equiv_pos_as_xyz
  x,y,z

loop_
_atom_site_label
_atom_site_type_symbol
_atom_site_fract_x
_atom_site_fract_y
_atom_site_fract_z
_atom_site_charge
Zn	Zn	0.40363 0.80348 0.87209 1.17800
Zn	Zn	0.36145 0.06322 0.69566 1.20900
Zn	Zn	0.31222 0.70247 0.13319 1.21100
Zn	Zn	0.27045 0.95898 0.95561 1.16000
O 	O 	0.14149 0.79778 0.19063 -0.32100
O 	O 	0.12940 0.03402 0.06348 -0.33500
O 	O 	0.53778 0.73632 0.76636 -0.31400
O 	O 	0.44089 0.64721 0.13907 -0.45000
O 	O 	0.18534 0.15774 0.74954 -0.33000
N 	N 	0.36100 0.00201 0.77339 -0.30500
N 	N 	0.27740 0.02136 0.65273 -0.27400
N 	N 	0.39700 0.67450 0.98475 -0.31300
H 	H 	0.35180 0.65580 0.97830 0.12700
H 	H 	0.43780 0.67260 0.95140 0.11900
O 	O 	0.32493 0.17115 0.70336 -0.45900
N 	N 	0.31950 0.76660 0.05856 -0.31000
O 	O 	0.53972 0.75867 0.86261 -0.47800
C 	C 	0.36230 0.74654 0.00089 0.17800
C 	C 	0.53440 0.99200 0.62738 0.33300
N 	N 	0.37900 0.90307 0.83542 -0.29800
C 	C 	0.39080 0.92753 0.77820 0.17800
O 	O 	0.28150 0.74301 0.21496 -0.44600
N 	N 	0.22150 0.63967 0.12296 -0.27100
N 	N 	0.31560 0.86634 0.99787 -0.31200
N 	N 	0.32540 0.74719 0.83561 -0.28900
N 	N 	0.33740 0.96717 0.87122 -0.30300
N 	N 	0.36190 0.80223 0.96281 -0.29800
N 	N 	0.24890 0.88628 0.10224 -0.32800
H 	H 	0.20980 0.92420 0.09020 0.13500
H 	H 	0.21860 0.86200 0.12930 0.14400
O 	O 	0.49512 0.05081 0.65765 -0.44800
O 	O 	0.43757 0.56097 0.07512 -0.29100
N 	N 	0.42680 0.88164 0.73021 -0.31300
H 	H 	0.41400 0.83930 0.73930 0.13600
H 	H 	0.40100 0.90080 0.69950 0.13600
C 	C 	0.68610 0.91551 0.57324 0.02700
H 	H 	0.65150 0.88520 0.56120 0.03800
O 	O 	0.21560 0.05878 0.97539 -0.51800
C 	C 	0.72990 0.65120 0.75636 0.03200
H 	H 	0.69440 0.63560 0.73160 0.03400
O 	O 	0.49199 0.94638 0.61586 -0.30700
N 	N 	0.97330 0.88941 0.49975 -0.13100
C 	C 	0.57960 0.73429 0.80972 0.34100
N 	N 	0.92190 0.41932 0.06577 -0.13300
C 	C 	0.24060 0.19645 0.72761 0.33800
C 	C 	0.20470 0.99830 0.68521 0.07700
H 	H 	0.19280 0.00400 0.72730 -0.02100
C 	C 	0.14660 0.66948 0.09585 0.08300
H 	H 	0.13500 0.71960 0.08570 -0.02200
N 	N 	0.01790 0.54518 0.75757 -0.13000
C 	C 	0.03600 0.85910 0.37478 -0.09300
H 	H 	0.97340 0.88430 0.38750 0.07500
N 	N 	0.29350 0.09505 0.84910 -0.32800
H 	H 	0.25840 0.11820 0.82370 0.14500
H 	H 	0.25990 0.09720 0.88520 0.14100
C 	C 	0.82650 0.62277 0.74802 -0.10200
H 	H 	0.85470 0.58690 0.71860 0.07500
C 	C 	0.16130 0.80134 0.29457 -0.08900
C 	C 	0.29220 0.84219 0.05338 0.17000
C 	C 	0.09820 0.84333 0.41619 0.02900
C 	C 	0.68500 0.70294 0.80137 -0.10500
C 	C 	0.16190 0.95713 0.59672 0.05900
C 	C 	0.64030 0.97650 0.60805 -0.09800
C 	C 	0.06740 0.83730 0.31433 0.01600
H 	H 	0.02520 0.84700 0.28700 0.04300
C 	C 	0.78360 0.89890 0.55604 -0.09900
H 	H 	0.81360 0.85800 0.53180 0.07500
C 	C 	0.17930 0.52369 0.12681 -0.14500
H 	H 	0.19270 0.47380 0.13770 0.08900
C 	C 	0.14550 0.96620 0.65926 -0.13900
H 	H 	0.09550 0.95090 0.68380 0.07600
C 	C 	0.29330 0.63380 0.81357 -0.14200
H 	H 	0.31230 0.58240 0.81240 0.08500
C 	C 	0.08650 0.62979 0.08238 -0.14300
H 	H 	0.03580 0.65240 0.06310 0.08400
C 	C 	0.32740 0.02327 0.83301 0.18000
C 	C 	0.01550 0.39255 0.05911 0.07600
C 	C 	0.05100 0.31207 0.04563 0.04000
C 	C 	0.19150 0.80570 0.39622 -0.09500
H 	H 	0.23370 0.79490 0.42350 0.06400
C 	C 	0.07700 0.43455 0.06896 -0.12600
H 	H 	0.14170 0.41370 0.06460 0.07700
C 	C 	0.88250 0.64652 0.78246 0.03800
C 	C 	0.23610 0.56864 0.13909 0.09400
H 	H 	0.28620 0.54810 0.15940 -0.01000
C 	C 	0.98640 0.61607 0.77393 0.07900
C 	C 	0.10310 0.55359 0.09836 0.06400
C 	C 	0.19520 0.77978 0.22886 0.31400
C 	C 	0.06720 0.87385 0.47890 0.08300
C 	C 	0.94370 0.53654 0.09031 -0.12500
H 	H 	0.91730 0.58610 0.09960 0.07600
C 	C 	0.14390 0.62830 0.77902 0.05100
C 	C 	0.29440 0.01092 0.59172 0.08900
H 	H 	0.34560 0.02590 0.56840 -0.00800
C 	C 	0.74030 0.72560 0.83681 0.03900
H 	H 	0.71160 0.75920 0.86790 0.02500
C 	C 	0.13070 0.89229 0.51007 -0.13300
H 	H 	0.19510 0.88040 0.49420 0.07800
C 	C 	0.83640 0.69938 0.82690 -0.11000
H 	H 	0.87200 0.71710 0.85030 0.07200
C 	C 	0.79020 0.00320 0.60949 -0.10800
H 	H 	0.82480 0.03290 0.62250 0.07100
C 	C 	0.24650 0.78301 0.81537 0.07700
H 	H 	0.23160 0.83450 0.81460 -0.04600
C 	C 	0.09800 0.92868 0.56528 0.05800
C 	C 	0.24060 0.97971 0.56272 -0.14100
H 	H 	0.25570 0.97330 0.52070 0.08800
C 	C 	0.83680 0.94231 0.57440 0.03800
C 	C 	0.00170 0.94457 0.58709 -0.13300
H 	H 	0.97730 0.96850 0.62410 0.07800
C 	C 	0.04050 0.50808 0.08534 0.05600
C 	C 	0.04720 0.65786 0.78504 -0.12400
H 	H 	0.02260 0.70680 0.79680 0.07300
C 	C 	0.17520 0.55461 0.76087 -0.12400
H 	H 	0.23960 0.53230 0.75490 0.07400
C 	C 	0.78240 0.51685 0.08802 0.02900
C 	C 	0.94160 0.92459 0.55353 0.08200
C 	C 	0.63510 0.59800 0.13302 0.02400
H 	H 	0.60320 0.63660 0.15930 0.03700
C 	C 	0.58470 0.56391 0.10215 -0.09700
C 	C 	0.63400 0.50533 0.06373 0.01400
H 	H 	0.60130 0.48230 0.04200 0.04500
C 	C 	0.69360 0.02080 0.62543 0.03100
H 	H 	0.66340 0.06290 0.64820 0.03500
C 	C 	0.88600 0.49048 0.08127 0.08300
C 	C 	0.18660 0.74740 0.79572 -0.14700
H 	H 	0.13180 0.77470 0.78290 0.07700
C 	C 	0.20800 0.66994 0.79505 0.06100
C 	C 	0.20620 0.28036 0.73044 -0.09700
C 	C 	0.48060 0.59115 0.10616 0.33200
C 	C 	0.14270 0.43360 0.74039 0.03300
C 	C 	0.11240 0.51426 0.75157 0.07900
C 	C 	0.73120 0.48134 0.05775 -0.09000
H 	H 	0.76300 0.44100 0.03320 0.06700
C 	C 	0.02630 0.18838 0.06058 0.04000
H 	H 	0.98800 0.15640 0.07620 0.00600
C 	C 	0.99210 0.26492 0.06723 -0.11800
H 	H 	0.93000 0.28430 0.08610 0.07300
C 	C 	0.14140 0.28310 0.01522 -0.11900
H 	H 	0.18080 0.31440 0.00020 0.07000
C 	C 	0.11770 0.16090 0.03048 -0.12500
C 	C 	0.08150 0.38860 0.75691 -0.09700
H 	H 	0.01790 0.40960 0.77130 0.07600
C 	C 	0.34900 0.67270 0.83327 0.08300
H 	H 	0.40510 0.64700 0.84550 -0.02100
C 	C 	0.22210 0.78430 0.33606 0.02000
H 	H 	0.28430 0.75810 0.32350 0.04200
C 	C 	0.73280 0.57530 0.12517 -0.10100
H 	H 	0.76570 0.59990 0.14540 0.06700
C 	C 	0.17390 0.20760 0.00697 0.04300
H 	H 	0.23430 0.18850 0.98530 0.02000
C 	C 	0.23810 0.40060 0.71630 -0.09800
H 	H 	0.28050 0.43010 0.70330 0.06500
C 	C 	0.11250 0.31260 0.75253 0.02300
H 	H 	0.06990 0.28300 0.76450 0.04000
C 	C 	0.26840 0.32460 0.71200 0.02600
H 	H 	0.33150 0.30320 0.69650 0.03900
C 	C 	0.15470 0.07910 0.02410 0.33700
Zn	Zn	0.59637 0.19652 0.12791 1.17700
Zn	Zn	0.63855 0.93678 0.30434 1.20800
Zn	Zn	0.68778 0.29753 0.86681 1.21000
Zn	Zn	0.72955 0.04102 0.04439 1.15900
O 	O 	0.85851 0.20222 0.80937 -0.32200
O 	O 	0.87060 0.96598 0.93652 -0.33600
O 	O 	0.46222 0.26368 0.23364 -0.31400
O 	O 	0.55911 0.35279 0.86093 -0.45000
O 	O 	0.81466 0.84226 0.25046 -0.33000
N 	N 	0.63900 0.99799 0.22661 -0.30500
N 	N 	0.72260 0.97864 0.34727 -0.27400
N 	N 	0.60300 0.32550 0.01525 -0.31300
H 	H 	0.64820 0.34420 0.02170 0.12700
H 	H 	0.56220 0.32740 0.04860 0.11900
O 	O 	0.67507 0.82885 0.29664 -0.45900
N 	N 	0.68050 0.23340 0.94144 -0.31000
O 	O 	0.46028 0.24133 0.13739 -0.47800
C 	C 	0.63770 0.25346 0.99911 0.17800
C 	C 	0.46560 0.00800 0.37262 0.33300
N 	N 	0.62100 0.09693 0.16458 -0.29800
C 	C 	0.60920 0.07247 0.22180 0.17800
O 	O 	0.71850 0.25699 0.78504 -0.44600
N 	N 	0.77850 0.36033 0.87704 -0.27100
N 	N 	0.68440 0.13366 0.00213 -0.31200
N 	N 	0.67460 0.25281 0.16439 -0.28900
N 	N 	0.66260 0.03283 0.12878 -0.30300
N 	N 	0.63810 0.19777 0.03719 -0.29800
N 	N 	0.75110 0.11372 0.89776 -0.32800
H 	H 	0.79020 0.07580 0.90980 0.13500
H 	H 	0.78140 0.13800 0.87070 0.14400
O 	O 	0.50488 0.94919 0.34235 -0.44800
O 	O 	0.56243 0.43903 0.92488 -0.29100
N 	N 	0.57320 0.11836 0.26979 -0.31300
H 	H 	0.58600 0.16070 0.26070 0.13600
H 	H 	0.59900 0.09920 0.30050 0.13600
C 	C 	0.31390 0.08449 0.42676 0.02700
H 	H 	0.34850 0.11480 0.43880 0.03800
O 	O 	0.78440 0.94122 0.02461 -0.51800
C 	C 	0.27010 0.34880 0.24364 0.03200
H 	H 	0.30560 0.36440 0.26840 0.03400
O 	O 	0.50801 0.05362 0.38414 -0.30700
N 	N 	0.02670 0.11059 0.50025 -0.13100
C 	C 	0.42040 0.26571 0.19028 0.34100
N 	N 	0.07810 0.58068 0.93423 -0.13300
C 	C 	0.75940 0.80355 0.27239 0.33800
C 	C 	0.79530 0.00170 0.31479 0.07700
H 	H 	0.80720 0.99600 0.27270 -0.02100
C 	C 	0.85340 0.33052 0.90415 0.08300
H 	H 	0.86500 0.28040 0.91430 -0.02200
N 	N 	0.98210 0.45482 0.24243 -0.13000
C 	C 	0.96400 0.14090 0.62522 -0.09300
H 	H 	0.02660 0.11570 0.61250 0.07500
N 	N 	0.70650 0.90495 0.15090 -0.32800
H 	H 	0.74160 0.88180 0.17630 0.14500
H 	H 	0.74010 0.90280 0.11480 0.14100
C 	C 	0.17350 0.37723 0.25198 -0.10200
H 	H 	0.14530 0.41310 0.28140 0.07500
C 	C 	0.83870 0.19866 0.70543 -0.08900
C 	C 	0.70780 0.15781 0.94662 0.17000
C 	C 	0.90180 0.15667 0.58381 0.02900
C 	C 	0.31500 0.29706 0.19863 -0.10500
C 	C 	0.83810 0.04287 0.40328 0.05900
C 	C 	0.35970 0.02350 0.39195 -0.09800
C 	C 	0.93260 0.16270 0.68567 0.01600
H 	H 	0.97480 0.15300 0.71300 0.04300
C 	C 	0.21640 0.10110 0.44396 -0.09900
H 	H 	0.18640 0.14200 0.46820 0.07500
C 	C 	0.82070 0.47631 0.87319 -0.14500
H 	H 	0.80730 0.52620 0.86230 0.08900
C 	C 	0.85450 0.03380 0.34074 -0.13900
H 	H 	0.90450 0.04910 0.31620 0.07600
C 	C 	0.70670 0.36620 0.18643 -0.14200
H 	H 	0.68770 0.41760 0.18760 0.08500
C 	C 	0.91350 0.37021 0.91762 -0.14300
H 	H 	0.96420 0.34760 0.93690 0.08400
C 	C 	0.67260 0.97673 0.16699 0.18000
C 	C 	0.98450 0.60745 0.94089 0.07600
C 	C 	0.94900 0.68793 0.95437 0.04000
C 	C 	0.80850 0.19430 0.60378 -0.09500
H 	H 	0.76630 0.20510 0.57650 0.06400
C 	C 	0.92300 0.56545 0.93104 -0.12600
H 	H 	0.85830 0.58630 0.93540 0.07700
C 	C 	0.11750 0.35348 0.21754 0.03800
C 	C 	0.76390 0.43136 0.86091 0.09400
H 	H 	0.71380 0.45190 0.84060 -0.01000
C 	C 	0.01360 0.38393 0.22607 0.07900
C 	C 	0.89690 0.44641 0.90164 0.06400
C 	C 	0.80480 0.22022 0.77114 0.31400
C 	C 	0.93280 0.12615 0.52110 0.08300
C 	C 	0.05630 0.46346 0.90969 -0.12500
H 	H 	0.08270 0.41390 0.90040 0.07600
C 	C 	0.85610 0.37170 0.22098 0.05100
C 	C 	0.70560 0.98908 0.40828 0.08900
H 	H 	0.65440 0.97410 0.43160 -0.00800
C 	C 	0.25970 0.27440 0.16319 0.03900
H 	H 	0.28840 0.24080 0.13210 0.02500
C 	C 	0.86930 0.10771 0.48993 -0.13300
H 	H 	0.80490 0.11960 0.50580 0.07800
C 	C 	0.16360 0.30062 0.17310 -0.11000
H 	H 	0.12800 0.28290 0.14970 0.07200
C 	C 	0.20980 0.99680 0.39051 -0.10800
H 	H 	0.17520 0.96710 0.37750 0.07100
C 	C 	0.75350 0.21699 0.18463 0.07700
H 	H 	0.76840 0.16550 0.18540 -0.04600
C 	C 	0.90200 0.07132 0.43472 0.05800
C 	C 	0.75940 0.02029 0.43728 -0.14100
H 	H 	0.74430 0.02670 0.47930 0.08800
C 	C 	0.16320 0.05769 0.42560 0.03800
C 	C 	0.99830 0.05543 0.41291 -0.13300
H 	H 	0.02270 0.03150 0.37590 0.07800
C 	C 	0.95950 0.49192 0.91466 0.05600
C 	C 	0.95280 0.34214 0.21496 -0.12400
H 	H 	0.97740 0.29320 0.20320 0.07300
C 	C 	0.82480 0.44539 0.23913 -0.12400
H 	H 	0.76040 0.46770 0.24510 0.07400
C 	C 	0.21760 0.48315 0.91198 0.02900
C 	C 	0.05840 0.07541 0.44647 0.08200
C 	C 	0.36490 0.40200 0.86698 0.02400
H 	H 	0.39680 0.36340 0.84070 0.03700
C 	C 	0.41530 0.43609 0.89785 -0.09700
C 	C 	0.36600 0.49467 0.93627 0.01400
H 	H 	0.39870 0.51770 0.95800 0.04500
C 	C 	0.30640 0.97920 0.37457 0.03100
H 	H 	0.33660 0.93710 0.35180 0.03500
C 	C 	0.11400 0.50952 0.91873 0.08300
C 	C 	0.81340 0.25260 0.20428 -0.14700
H 	H 	0.86820 0.22530 0.21710 0.07700
C 	C 	0.79200 0.33006 0.20495 0.06100
C 	C 	0.79380 0.71964 0.26956 -0.09700
C 	C 	0.51940 0.40885 0.89384 0.33200
C 	C 	0.85730 0.56640 0.25961 0.03300
C 	C 	0.88760 0.48574 0.24843 0.07900
C 	C 	0.26880 0.51866 0.94225 -0.09000
H 	H 	0.23700 0.55900 0.96680 0.06700
C 	C 	0.97370 0.81162 0.93942 0.04000
H 	H 	0.01200 0.84360 0.92380 0.00600
C 	C 	0.00790 0.73508 0.93277 -0.11800
H 	H 	0.07000 0.71570 0.91390 0.07300
C 	C 	0.85860 0.71690 0.98478 -0.11900
H 	H 	0.81920 0.68560 0.99980 0.07000
C 	C 	0.88230 0.83910 0.96952 -0.12500
C 	C 	0.91850 0.61140 0.24309 -0.09700
H 	H 	0.98210 0.59040 0.22870 0.07600
C 	C 	0.65100 0.32730 0.16673 0.08300
H 	H 	0.59490 0.35300 0.15450 -0.02100
C 	C 	0.77790 0.21570 0.66394 0.02000
H 	H 	0.71570 0.24190 0.67650 0.04200
C 	C 	0.26720 0.42470 0.87483 -0.10100
H 	H 	0.23430 0.40010 0.85460 0.06700
C 	C 	0.82610 0.79240 0.99303 0.04300
H 	H 	0.76570 0.81150 0.01470 0.02000
C 	C 	0.76190 0.59940 0.28370 -0.09800
H 	H 	0.71950 0.56990 0.29670 0.06500
C 	C 	0.88750 0.68740 0.24747 0.02300
H 	H 	0.93010 0.71700 0.23550 0.04000
C 	C 	0.73160 0.67540 0.28800 0.02600
H 	H 	0.66850 0.69680 0.30350 0.03900
C 	C 	0.84530 0.92090 0.97590 0.33700
