data_crystal

_cell_length_a 17.58000
_cell_length_b 17.58000
_cell_length_c 17.58000
_cell_angle_alpha 90.00000
_cell_angle_beta  90.00000
_cell_angle_gamma 90.00000

_symmetry_space_group_name_	'P 1'
_symmetry_space_group_name_H-M	'P 1'

loop_
_symmetry_equiv_pos_as_xyz
  x,y,z

loop_
_atom_site_label
_atom_site_type_symbol
_atom_site_fract_x
_atom_site_fract_y
_atom_site_fract_z
_atom_site_charge
Cu	Cu	0.50127 0.40556 0.84804 0.90200
C 	C 	0.49230 0.26370 0.90900 0.03500
C 	C 	0.41360 0.28980 0.88530 0.27700
C 	C 	0.48710 0.24230 0.00040 0.28900
O 	O 	0.54610 0.32220 0.90210 -0.43700
O 	O 	0.50900 0.19870 0.87310 -0.29800
O 	O 	0.45310 0.17650 0.01210 -0.38100
O 	O 	0.36080 0.24020 0.88900 -0.36200
O 	O 	0.40190 0.35600 0.86760 -0.34600
O 	O 	0.51910 0.28110 0.04630 -0.36300
Cu	Cu	0.99873 0.59444 0.34804 0.90100
C 	C 	0.00770 0.73630 0.40900 0.03500
C 	C 	0.08640 0.71020 0.38530 0.27600
C 	C 	0.01290 0.75770 0.50040 0.28800
O 	O 	0.95390 0.67780 0.40210 -0.43700
O 	O 	0.99100 0.80130 0.37310 -0.29800
O 	O 	0.04690 0.82350 0.51210 -0.38100
O 	O 	0.13920 0.75980 0.38900 -0.36200
O 	O 	0.09810 0.64400 0.36760 -0.34500
O 	O 	0.98090 0.71890 0.54630 -0.36300
Cu	Cu	0.49873 0.90556 0.65196 0.90100
C 	C 	0.50770 0.76370 0.59100 0.03400
C 	C 	0.58640 0.78980 0.61470 0.27600
C 	C 	0.51290 0.74230 0.49960 0.28800
O 	O 	0.45390 0.82220 0.59790 -0.43700
O 	O 	0.49100 0.69870 0.62690 -0.29800
O 	O 	0.54690 0.67650 0.48790 -0.38100
O 	O 	0.63920 0.74020 0.61100 -0.36200
O 	O 	0.59810 0.85600 0.63240 -0.34600
O 	O 	0.48090 0.78110 0.45370 -0.36300
Cu	Cu	0.00127 0.09444 0.15196 0.90200
C 	C 	0.99230 0.23630 0.09100 0.03200
C 	C 	0.91360 0.21020 0.11470 0.27700
C 	C 	0.98710 0.25770 0.99960 0.28800
O 	O 	0.04610 0.17780 0.09790 -0.43600
O 	O 	0.00900 0.30130 0.12690 -0.29600
O 	O 	0.95310 0.32350 0.98790 -0.38100
O 	O 	0.86080 0.25980 0.11100 -0.36200
O 	O 	0.90190 0.14400 0.13240 -0.34600
O 	O 	0.01910 0.21890 0.95370 -0.36400
Cu	Cu	0.84804 0.50127 0.40556 0.90100
C 	C 	0.90900 0.49230 0.26370 0.03400
C 	C 	0.88530 0.41360 0.28980 0.27600
C 	C 	0.00040 0.48710 0.24230 0.28800
O 	O 	0.90210 0.54610 0.32220 -0.43700
O 	O 	0.87310 0.50900 0.19870 -0.29800
O 	O 	0.01210 0.45310 0.17650 -0.38100
O 	O 	0.88900 0.36080 0.24020 -0.36200
O 	O 	0.86760 0.40190 0.35600 -0.34600
O 	O 	0.04630 0.51910 0.28110 -0.36300
Cu	Cu	0.34804 0.99873 0.59444 0.90100
C 	C 	0.40900 0.00770 0.73630 0.03500
C 	C 	0.38530 0.08640 0.71020 0.27600
C 	C 	0.50040 0.01290 0.75770 0.28800
O 	O 	0.40210 0.95390 0.67780 -0.43700
O 	O 	0.37310 0.99100 0.80130 -0.29800
O 	O 	0.51210 0.04690 0.82350 -0.38100
O 	O 	0.38900 0.13920 0.75980 -0.36200
O 	O 	0.36760 0.09810 0.64400 -0.34500
O 	O 	0.54630 0.98090 0.71890 -0.36300
Cu	Cu	0.65196 0.49873 0.90556 0.90100
C 	C 	0.59100 0.50770 0.76370 0.03400
C 	C 	0.61470 0.58640 0.78980 0.27600
C 	C 	0.49960 0.51290 0.74230 0.28800
O 	O 	0.59790 0.45390 0.82220 -0.43700
O 	O 	0.62690 0.49100 0.69870 -0.29800
O 	O 	0.48790 0.54690 0.67650 -0.38100
O 	O 	0.61100 0.63920 0.74020 -0.36200
O 	O 	0.63240 0.59810 0.85600 -0.34600
O 	O 	0.45370 0.48090 0.78110 -0.36300
Cu	Cu	0.15196 0.00127 0.09444 0.90200
C 	C 	0.09100 0.99230 0.23630 0.03200
C 	C 	0.11470 0.91360 0.21020 0.27700
C 	C 	0.99960 0.98710 0.25770 0.28800
O 	O 	0.09790 0.04610 0.17780 -0.43600
O 	O 	0.12690 0.00900 0.30130 -0.29600
O 	O 	0.98790 0.95310 0.32350 -0.38100
O 	O 	0.11100 0.86080 0.25980 -0.36200
O 	O 	0.13240 0.90190 0.14400 -0.34600
O 	O 	0.95370 0.01910 0.21890 -0.36400
Cu	Cu	0.40556 0.84804 0.50127 0.90100
C 	C 	0.26370 0.90900 0.49230 0.03400
C 	C 	0.28980 0.88530 0.41360 0.27600
C 	C 	0.24230 0.00040 0.48710 0.28800
O 	O 	0.32220 0.90210 0.54610 -0.43700
O 	O 	0.19870 0.87310 0.50900 -0.29800
O 	O 	0.17650 0.01210 0.45310 -0.38100
O 	O 	0.24020 0.88900 0.36080 -0.36200
O 	O 	0.35600 0.86760 0.40190 -0.34600
O 	O 	0.28110 0.04630 0.51910 -0.36300
Cu	Cu	0.59444 0.34804 0.99873 0.90100
C 	C 	0.73630 0.40900 0.00770 0.03500
C 	C 	0.71020 0.38530 0.08640 0.27600
C 	C 	0.75770 0.50040 0.01290 0.28800
O 	O 	0.67780 0.40210 0.95390 -0.43700
O 	O 	0.80130 0.37310 0.99100 -0.29800
O 	O 	0.82350 0.51210 0.04690 -0.38100
O 	O 	0.75980 0.38900 0.13920 -0.36200
O 	O 	0.64400 0.36760 0.09810 -0.34500
O 	O 	0.71890 0.54630 0.98090 -0.36300
Cu	Cu	0.90556 0.65196 0.49873 0.90100
C 	C 	0.76370 0.59100 0.50770 0.03400
C 	C 	0.78980 0.61470 0.58640 0.27600
C 	C 	0.74230 0.49960 0.51290 0.28800
O 	O 	0.82220 0.59790 0.45390 -0.43700
O 	O 	0.69870 0.62690 0.49100 -0.29800
O 	O 	0.67650 0.48790 0.54690 -0.38100
O 	O 	0.74020 0.61100 0.63920 -0.36200
O 	O 	0.85600 0.63240 0.59810 -0.34600
O 	O 	0.78110 0.45370 0.48090 -0.36300
Cu	Cu	0.09444 0.15196 0.00127 0.90200
C 	C 	0.23630 0.09100 0.99230 0.03200
C 	C 	0.21020 0.11470 0.91360 0.27700
C 	C 	0.25770 0.99960 0.98710 0.28800
O 	O 	0.17780 0.09790 0.04610 -0.43600
O 	O 	0.30130 0.12690 0.00900 -0.29600
O 	O 	0.32350 0.98790 0.95310 -0.38100
O 	O 	0.25980 0.11100 0.86080 -0.36200
O 	O 	0.14400 0.13240 0.90190 -0.34600
O 	O 	0.21890 0.95370 0.01910 -0.36400
Pr	Pr	0.39864 0.10136 0.89864 2.06000
Pr	Pr	0.10136 0.89864 0.39864 2.06000
Pr	Pr	0.60136 0.60136 0.60136 2.06000
Pr	Pr	0.89864 0.39864 0.10136 2.06000
