data_crystal

_cell_length_a 17.51540
_cell_length_b 17.51540
_cell_length_c 17.51540
_cell_angle_alpha 90.00000
_cell_angle_beta  90.00000
_cell_angle_gamma 90.00000

_symmetry_space_group_name_	'P 1'
_symmetry_space_group_name_H-M	'P 1'

loop_
_symmetry_equiv_pos_as_xyz
  x,y,z

loop_
_atom_site_label
_atom_site_type_symbol
_atom_site_fract_x
_atom_site_fract_y
_atom_site_fract_z
_atom_site_charge
C 	C 	0.74180 0.99710 0.01450 0.32200
C 	C 	0.76530 0.91280 0.00890 -0.00700
C 	C 	0.79090 0.88590 0.09030 0.32800
O 	O 	0.85930 0.86720 0.09790 -0.37300
O 	O 	0.74100 0.88690 0.14030 -0.39500
O 	O 	0.82180 0.90290 0.95520 -0.42200
O 	O 	0.69930 0.87070 0.99240 -0.28300
O 	O 	0.68020 0.00830 0.04960 -0.40600
O 	O 	0.78010 0.04630 0.98180 -0.37600
Cu	Cu	0.90772 0.84875 0.00006 0.89500
C 	C 	0.75820 0.00290 0.51450 0.31800
C 	C 	0.73470 0.08720 0.50890 0.00500
C 	C 	0.70910 0.11410 0.59030 0.32500
O 	O 	0.64070 0.13280 0.59790 -0.37300
O 	O 	0.75900 0.11310 0.64030 -0.39500
O 	O 	0.67820 0.09710 0.45520 -0.43200
O 	O 	0.80070 0.12930 0.49240 -0.29100
O 	O 	0.81980 0.99170 0.54960 -0.40600
O 	O 	0.71990 0.95370 0.48180 -0.37200
Cu	Cu	0.59228 0.15125 0.50006 0.89800
C 	C 	0.25820 0.49710 0.48550 0.32500
C 	C 	0.23470 0.41280 0.49110 0.00400
C 	C 	0.20910 0.38590 0.40970 0.32600
O 	O 	0.14070 0.36720 0.40210 -0.37100
O 	O 	0.25900 0.38690 0.35970 -0.39400
O 	O 	0.17820 0.40290 0.54480 -0.43200
O 	O 	0.30070 0.37070 0.50760 -0.29100
O 	O 	0.31980 0.50830 0.45040 -0.41200
O 	O 	0.21990 0.54630 0.51820 -0.37500
Cu	Cu	0.09228 0.34875 0.49994 0.89900
C 	C 	0.24180 0.50290 0.98550 0.32000
C 	C 	0.26530 0.58720 0.99110 0.00100
C 	C 	0.29090 0.61410 0.90970 0.32600
O 	O 	0.35930 0.63280 0.90210 -0.37300
O 	O 	0.24100 0.61310 0.85970 -0.39400
O 	O 	0.32180 0.59710 0.04480 -0.43000
O 	O 	0.19930 0.62930 0.00760 -0.28700
O 	O 	0.18020 0.49170 0.95040 -0.41100
O 	O 	0.28010 0.45370 0.01820 -0.37000
Cu	Cu	0.40772 0.65125 0.99994 0.89800
C 	C 	0.01450 0.74180 0.99710 0.32100
C 	C 	0.00890 0.76530 0.91280 -0.00800
C 	C 	0.09030 0.79090 0.88590 0.32700
O 	O 	0.09790 0.85930 0.86720 -0.37400
O 	O 	0.14030 0.74100 0.88690 -0.39500
O 	O 	0.95520 0.82180 0.90290 -0.42200
O 	O 	0.99240 0.69930 0.87070 -0.28300
O 	O 	0.04960 0.68020 0.00830 -0.40600
O 	O 	0.98180 0.78010 0.04630 -0.37600
Cu	Cu	0.00006 0.90772 0.84875 0.89500
C 	C 	0.51450 0.75820 0.00290 0.31800
C 	C 	0.50890 0.73470 0.08720 0.00500
C 	C 	0.59030 0.70910 0.11410 0.32500
O 	O 	0.59790 0.64070 0.13280 -0.37300
O 	O 	0.64030 0.75900 0.11310 -0.39500
O 	O 	0.45520 0.67820 0.09710 -0.43200
O 	O 	0.49240 0.80070 0.12930 -0.29100
O 	O 	0.54960 0.81980 0.99170 -0.40600
O 	O 	0.48180 0.71990 0.95370 -0.37200
Cu	Cu	0.50006 0.59228 0.15125 0.89800
C 	C 	0.48550 0.25820 0.49710 0.32500
C 	C 	0.49110 0.23470 0.41280 0.00400
C 	C 	0.40970 0.20910 0.38590 0.32600
O 	O 	0.40210 0.14070 0.36720 -0.37100
O 	O 	0.35970 0.25900 0.38690 -0.39400
O 	O 	0.54480 0.17820 0.40290 -0.43200
O 	O 	0.50760 0.30070 0.37070 -0.29100
O 	O 	0.45040 0.31980 0.50830 -0.41200
O 	O 	0.51820 0.21990 0.54630 -0.37500
Cu	Cu	0.49994 0.09228 0.34875 0.89900
C 	C 	0.98550 0.24180 0.50290 0.32000
C 	C 	0.99110 0.26530 0.58720 0.00100
C 	C 	0.90970 0.29090 0.61410 0.32600
O 	O 	0.90210 0.35930 0.63280 -0.37300
O 	O 	0.85970 0.24100 0.61310 -0.39400
O 	O 	0.04480 0.32180 0.59710 -0.43000
O 	O 	0.00760 0.19930 0.62930 -0.28700
O 	O 	0.95040 0.18020 0.49170 -0.41100
O 	O 	0.01820 0.28010 0.45370 -0.37000
Cu	Cu	0.99994 0.40772 0.65125 0.89800
C 	C 	0.99710 0.01450 0.74180 0.32100
C 	C 	0.91280 0.00890 0.76530 -0.00800
C 	C 	0.88590 0.09030 0.79090 0.32700
O 	O 	0.86720 0.09790 0.85930 -0.37400
O 	O 	0.88690 0.14030 0.74100 -0.39500
O 	O 	0.90290 0.95520 0.82180 -0.42200
O 	O 	0.87070 0.99240 0.69930 -0.28300
O 	O 	0.00830 0.04960 0.68020 -0.40600
O 	O 	0.04630 0.98180 0.78010 -0.37600
Cu	Cu	0.84875 0.00006 0.90772 0.89500
C 	C 	0.00290 0.51450 0.75820 0.31800
C 	C 	0.08720 0.50890 0.73470 0.00500
C 	C 	0.11410 0.59030 0.70910 0.32500
O 	O 	0.13280 0.59790 0.64070 -0.37300
O 	O 	0.11310 0.64030 0.75900 -0.39500
O 	O 	0.09710 0.45520 0.67820 -0.43200
O 	O 	0.12930 0.49240 0.80070 -0.29100
O 	O 	0.99170 0.54960 0.81980 -0.40600
O 	O 	0.95370 0.48180 0.71990 -0.37200
Cu	Cu	0.15125 0.50006 0.59228 0.89800
C 	C 	0.49710 0.48550 0.25820 0.32500
C 	C 	0.41280 0.49110 0.23470 0.00400
C 	C 	0.38590 0.40970 0.20910 0.32600
O 	O 	0.36720 0.40210 0.14070 -0.37100
O 	O 	0.38690 0.35970 0.25900 -0.39400
O 	O 	0.40290 0.54480 0.17820 -0.43200
O 	O 	0.37070 0.50760 0.30070 -0.29100
O 	O 	0.50830 0.45040 0.31980 -0.41200
O 	O 	0.54630 0.51820 0.21990 -0.37500
Cu	Cu	0.34875 0.49994 0.09228 0.89900
C 	C 	0.50290 0.98550 0.24180 0.32000
C 	C 	0.58720 0.99110 0.26530 0.00100
C 	C 	0.61410 0.90970 0.29090 0.32600
O 	O 	0.63280 0.90210 0.35930 -0.37300
O 	O 	0.61310 0.85970 0.24100 -0.39400
O 	O 	0.59710 0.04480 0.32180 -0.43000
O 	O 	0.62930 0.00760 0.19930 -0.28700
O 	O 	0.49170 0.95040 0.18020 -0.41100
O 	O 	0.45370 0.01820 0.28010 -0.37000
Cu	Cu	0.65125 0.99994 0.40772 0.89800
Nd	Nd	0.60324 0.89676 0.10324 2.16000
Nd	Nd	0.89676 0.10324 0.60324 2.16000
Nd	Nd	0.39676 0.39676 0.39676 2.17100
Nd	Nd	0.10324 0.60324 0.89676 2.16000
