data_crystal

_cell_length_a 17.61800
_cell_length_b 17.61800
_cell_length_c 17.61800
_cell_angle_alpha 90.00000
_cell_angle_beta  90.00000
_cell_angle_gamma 90.00000

_symmetry_space_group_name_	'P 1'
_symmetry_space_group_name_H-M	'P 1'

loop_
_symmetry_equiv_pos_as_xyz
  x,y,z

loop_
_atom_site_label
_atom_site_type_symbol
_atom_site_fract_x
_atom_site_fract_y
_atom_site_fract_z
_atom_site_charge
C 	C 	0.48700 0.25920 0.49690 0.30700
C 	C 	0.49040 0.23410 0.41320 -0.00600
C 	C 	0.41090 0.20840 0.38640 0.32100
O 	O 	0.40319 0.14150 0.36720 -0.36500
O 	O 	0.54404 0.17705 0.40356 -0.42400
O 	O 	0.36056 0.25713 0.38740 -0.38500
O 	O 	0.50782 0.29930 0.37120 -0.29100
O 	O 	0.45060 0.31900 0.50940 -0.40600
O 	O 	0.51830 0.21850 0.54570 -0.36100
Cu	Cu	0.49998 0.09204 0.34945 0.90200
C 	C 	0.01300 0.74080 0.99690 0.30300
C 	C 	0.00960 0.76590 0.91320 -0.01800
C 	C 	0.08910 0.79160 0.88640 0.32200
O 	O 	0.09681 0.85850 0.86720 -0.36700
O 	O 	0.95596 0.82295 0.90356 -0.41500
O 	O 	0.13944 0.74287 0.88740 -0.38800
O 	O 	0.99218 0.70070 0.87120 -0.28400
O 	O 	0.04940 0.68100 0.00940 -0.40200
O 	O 	0.98170 0.78150 0.04570 -0.36200
Cu	Cu	0.00002 0.90796 0.84945 0.89900
C 	C 	0.51300 0.75920 0.00310 0.30000
C 	C 	0.50960 0.73410 0.08680 -0.00600
C 	C 	0.58910 0.70840 0.11360 0.31900
O 	O 	0.59681 0.64150 0.13280 -0.36600
O 	O 	0.45596 0.67705 0.09644 -0.42400
O 	O 	0.63944 0.75713 0.11260 -0.38700
O 	O 	0.49218 0.79930 0.12880 -0.29200
O 	O 	0.54940 0.81900 0.99060 -0.40200
O 	O 	0.48170 0.71850 0.95430 -0.35800
Cu	Cu	0.50002 0.59204 0.15055 0.90200
C 	C 	0.98700 0.24080 0.50310 0.30200
C 	C 	0.99040 0.26590 0.58680 -0.01000
C 	C 	0.91090 0.29160 0.61360 0.32000
O 	O 	0.90319 0.35850 0.63280 -0.36600
O 	O 	0.04404 0.32295 0.59644 -0.42200
O 	O 	0.86056 0.24287 0.61260 -0.38600
O 	O 	0.00782 0.20070 0.62880 -0.28800
O 	O 	0.95060 0.18100 0.49060 -0.40600
O 	O 	0.01830 0.28150 0.45430 -0.35600
Cu	Cu	0.99998 0.40796 0.65055 0.90200
C 	C 	0.49690 0.48700 0.25920 0.30600
C 	C 	0.41320 0.49040 0.23410 -0.00700
C 	C 	0.38640 0.41090 0.20840 0.32000
O 	O 	0.36720 0.40319 0.14150 -0.36500
O 	O 	0.40356 0.54404 0.17705 -0.42400
O 	O 	0.38740 0.36056 0.25713 -0.38500
O 	O 	0.37120 0.50782 0.29930 -0.29100
O 	O 	0.50940 0.45060 0.31900 -0.40600
O 	O 	0.54570 0.51830 0.21850 -0.36100
Cu	Cu	0.34945 0.49998 0.09204 0.90200
C 	C 	0.99690 0.01300 0.74080 0.30300
C 	C 	0.91320 0.00960 0.76590 -0.01800
C 	C 	0.88640 0.08910 0.79160 0.32200
O 	O 	0.86720 0.09681 0.85850 -0.36700
O 	O 	0.90356 0.95596 0.82295 -0.41500
O 	O 	0.88740 0.13944 0.74287 -0.38800
O 	O 	0.87120 0.99218 0.70070 -0.28400
O 	O 	0.00940 0.04940 0.68100 -0.40200
O 	O 	0.04570 0.98170 0.78150 -0.36200
Cu	Cu	0.84945 0.00002 0.90796 0.89900
C 	C 	0.00310 0.51300 0.75920 0.30000
C 	C 	0.08680 0.50960 0.73410 -0.00600
C 	C 	0.11360 0.58910 0.70840 0.31900
O 	O 	0.13280 0.59681 0.64150 -0.36600
O 	O 	0.09644 0.45596 0.67705 -0.42400
O 	O 	0.11260 0.63944 0.75713 -0.38700
O 	O 	0.12880 0.49218 0.79930 -0.29200
O 	O 	0.99060 0.54940 0.81900 -0.40200
O 	O 	0.95430 0.48170 0.71850 -0.35800
Cu	Cu	0.15055 0.50002 0.59204 0.90200
C 	C 	0.50310 0.98700 0.24080 0.30200
C 	C 	0.58680 0.99040 0.26590 -0.01000
C 	C 	0.61360 0.91090 0.29160 0.32000
O 	O 	0.63280 0.90319 0.35850 -0.36600
O 	O 	0.59644 0.04404 0.32295 -0.42200
O 	O 	0.61260 0.86056 0.24287 -0.38600
O 	O 	0.62880 0.00782 0.20070 -0.28800
O 	O 	0.49060 0.95060 0.18100 -0.40600
O 	O 	0.45430 0.01830 0.28150 -0.35600
Cu	Cu	0.65055 0.99998 0.40796 0.90200
C 	C 	0.25920 0.49690 0.48700 0.30600
C 	C 	0.23410 0.41320 0.49040 -0.00700
C 	C 	0.20840 0.38640 0.41090 0.32000
O 	O 	0.14150 0.36720 0.40319 -0.36500
O 	O 	0.17705 0.40356 0.54404 -0.42400
O 	O 	0.25713 0.38740 0.36056 -0.38500
O 	O 	0.29930 0.37120 0.50782 -0.29100
O 	O 	0.31900 0.50940 0.45060 -0.40600
O 	O 	0.21850 0.54570 0.51830 -0.36100
Cu	Cu	0.09204 0.34945 0.49998 0.90200
C 	C 	0.74080 0.99690 0.01300 0.30300
C 	C 	0.76590 0.91320 0.00960 -0.01800
C 	C 	0.79160 0.88640 0.08910 0.32200
O 	O 	0.85850 0.86720 0.09681 -0.36700
O 	O 	0.82295 0.90356 0.95596 -0.41500
O 	O 	0.74287 0.88740 0.13944 -0.38800
O 	O 	0.70070 0.87120 0.99218 -0.28400
O 	O 	0.68100 0.00940 0.04940 -0.40200
O 	O 	0.78150 0.04570 0.98170 -0.36200
Cu	Cu	0.90796 0.84945 0.00002 0.89900
C 	C 	0.75920 0.00310 0.51300 0.30000
C 	C 	0.73410 0.08680 0.50960 -0.00600
C 	C 	0.70840 0.11360 0.58910 0.31900
O 	O 	0.64150 0.13280 0.59681 -0.36600
O 	O 	0.67705 0.09644 0.45596 -0.42400
O 	O 	0.75713 0.11260 0.63944 -0.38700
O 	O 	0.79930 0.12880 0.49218 -0.29200
O 	O 	0.81900 0.99060 0.54940 -0.40200
O 	O 	0.71850 0.95430 0.48170 -0.35800
Cu	Cu	0.59204 0.15055 0.50002 0.90200
C 	C 	0.24080 0.50310 0.98700 0.30200
C 	C 	0.26590 0.58680 0.99040 -0.01000
C 	C 	0.29160 0.61360 0.91090 0.32000
O 	O 	0.35850 0.63280 0.90319 -0.36600
O 	O 	0.32295 0.59644 0.04404 -0.42200
O 	O 	0.24287 0.61260 0.86056 -0.38600
O 	O 	0.20070 0.62880 0.00782 -0.28800
O 	O 	0.18100 0.49060 0.95060 -0.40600
O 	O 	0.28150 0.45430 0.01830 -0.35600
Cu	Cu	0.40796 0.65055 0.99998 0.90200
Ce	Ce	0.39726 0.39726 0.39726 2.13600
Ce	Ce	0.10274 0.60274 0.89726 2.13400
Ce	Ce	0.60274 0.89726 0.10274 2.13400
Ce	Ce	0.89726 0.10274 0.60274 2.13400
