data_crystal

_cell_length_a 17.52350
_cell_length_b 17.52350
_cell_length_c 17.52350
_cell_angle_alpha 90.00000
_cell_angle_beta  90.00000
_cell_angle_gamma 90.00000

_symmetry_space_group_name_	'P 1'
_symmetry_space_group_name_H-M	'P 1'

loop_
_symmetry_equiv_pos_as_xyz
  x,y,z

loop_
_atom_site_label
_atom_site_type_symbol
_atom_site_fract_x
_atom_site_fract_y
_atom_site_fract_z
_atom_site_charge
Cu	Cu	0.91463 0.35388 0.99524 0.89900
C 	C 	0.02060 0.24540 0.00030 0.28100
O 	O 	0.98920 0.28510 0.95050 -0.35700
O 	O 	0.05600 0.18460 0.98840 -0.33000
C 	C 	0.01350 0.27010 0.08390 0.01600
O 	O 	0.96130 0.32820 0.09160 -0.43000
O 	O 	0.99670 0.20570 0.12850 -0.24500
C 	C 	0.09350 0.29490 0.11140 0.27800
O 	O 	0.10230 0.36520 0.12950 -0.34900
O 	O 	0.14450 0.24580 0.11390 -0.31900
Cu	Cu	0.58537 0.64612 0.49524 0.90200
C 	C 	0.47940 0.75460 0.50030 0.29000
O 	O 	0.51080 0.71490 0.45050 -0.35800
O 	O 	0.44400 0.81540 0.48840 -0.33700
C 	C 	0.48650 0.72990 0.58390 0.02300
O 	O 	0.53870 0.67180 0.59160 -0.43600
O 	O 	0.50330 0.79430 0.62850 -0.25100
C 	C 	0.40650 0.70510 0.61140 0.27700
O 	O 	0.39770 0.63480 0.62950 -0.34800
O 	O 	0.35550 0.75420 0.61390 -0.31800
Cu	Cu	0.08537 0.85388 0.50476 0.90200
C 	C 	0.97940 0.74540 0.49970 0.28400
O 	O 	0.01080 0.78510 0.54950 -0.35300
O 	O 	0.94400 0.68460 0.51160 -0.33700
C 	C 	0.98650 0.77010 0.41610 0.01700
O 	O 	0.03870 0.82820 0.40840 -0.43200
O 	O 	0.00330 0.70570 0.37150 -0.24700
C 	C 	0.90650 0.79490 0.38860 0.27800
O 	O 	0.89770 0.86520 0.37050 -0.35000
O 	O 	0.85550 0.74580 0.38610 -0.31900
Cu	Cu	0.41463 0.14612 0.00476 0.90100
C 	C 	0.52060 0.25460 0.99970 0.29100
O 	O 	0.48920 0.21490 0.04950 -0.35900
O 	O 	0.55600 0.31540 0.01160 -0.33700
C 	C 	0.51350 0.22990 0.91610 0.02200
O 	O 	0.46130 0.17180 0.90840 -0.43500
O 	O 	0.49670 0.29430 0.87150 -0.25000
C 	C 	0.59350 0.20510 0.88860 0.27700
O 	O 	0.60230 0.13480 0.87050 -0.34700
O 	O 	0.64450 0.25420 0.88610 -0.31800
Cu	Cu	0.99524 0.91463 0.35388 0.90000
C 	C 	0.00030 0.02060 0.24540 0.28200
O 	O 	0.95050 0.98920 0.28510 -0.35700
O 	O 	0.98840 0.05600 0.18460 -0.33000
C 	C 	0.08390 0.01350 0.27010 0.01600
O 	O 	0.09160 0.96130 0.32820 -0.43000
O 	O 	0.12850 0.99670 0.20570 -0.24500
C 	C 	0.11140 0.09350 0.29490 0.27800
O 	O 	0.12950 0.10230 0.36520 -0.34900
O 	O 	0.11390 0.14450 0.24580 -0.31900
Cu	Cu	0.49524 0.58537 0.64612 0.90200
C 	C 	0.50030 0.47940 0.75460 0.29000
O 	O 	0.45050 0.51080 0.71490 -0.35800
O 	O 	0.48840 0.44400 0.81540 -0.33700
C 	C 	0.58390 0.48650 0.72990 0.02300
O 	O 	0.59160 0.53870 0.67180 -0.43600
O 	O 	0.62850 0.50330 0.79430 -0.25100
C 	C 	0.61140 0.40650 0.70510 0.27700
O 	O 	0.62950 0.39770 0.63480 -0.34800
O 	O 	0.61390 0.35550 0.75420 -0.31800
Cu	Cu	0.50476 0.08537 0.85388 0.90200
C 	C 	0.49970 0.97940 0.74540 0.28400
O 	O 	0.54950 0.01080 0.78510 -0.35300
O 	O 	0.51160 0.94400 0.68460 -0.33700
C 	C 	0.41610 0.98650 0.77010 0.01700
O 	O 	0.40840 0.03870 0.82820 -0.43200
O 	O 	0.37150 0.00330 0.70570 -0.24700
C 	C 	0.38860 0.90650 0.79490 0.27800
O 	O 	0.37050 0.89770 0.86520 -0.35000
O 	O 	0.38610 0.85550 0.74580 -0.31900
Cu	Cu	0.00476 0.41463 0.14612 0.90100
C 	C 	0.99970 0.52060 0.25460 0.29100
O 	O 	0.04950 0.48920 0.21490 -0.35900
O 	O 	0.01160 0.55600 0.31540 -0.33700
C 	C 	0.91610 0.51350 0.22990 0.02200
O 	O 	0.90840 0.46130 0.17180 -0.43500
O 	O 	0.87150 0.49670 0.29430 -0.25000
C 	C 	0.88860 0.59350 0.20510 0.27700
O 	O 	0.87050 0.60230 0.13480 -0.34700
O 	O 	0.88610 0.64450 0.25420 -0.31800
Cu	Cu	0.35388 0.99524 0.91463 0.90000
C 	C 	0.24540 0.00030 0.02060 0.28200
O 	O 	0.28510 0.95050 0.98920 -0.35700
O 	O 	0.18460 0.98840 0.05600 -0.33000
C 	C 	0.27010 0.08390 0.01350 0.01600
O 	O 	0.32820 0.09160 0.96130 -0.43000
O 	O 	0.20570 0.12850 0.99670 -0.24500
C 	C 	0.29490 0.11140 0.09350 0.27800
O 	O 	0.36520 0.12950 0.10230 -0.34900
O 	O 	0.24580 0.11390 0.14450 -0.31900
Cu	Cu	0.64612 0.49524 0.58537 0.90200
C 	C 	0.75460 0.50030 0.47940 0.29000
O 	O 	0.71490 0.45050 0.51080 -0.35800
O 	O 	0.81540 0.48840 0.44400 -0.33700
C 	C 	0.72990 0.58390 0.48650 0.02300
O 	O 	0.67180 0.59160 0.53870 -0.43600
O 	O 	0.79430 0.62850 0.50330 -0.25100
C 	C 	0.70510 0.61140 0.40650 0.27700
O 	O 	0.63480 0.62950 0.39770 -0.34800
O 	O 	0.75420 0.61390 0.35550 -0.31800
Cu	Cu	0.85388 0.50476 0.08537 0.90200
C 	C 	0.74540 0.49970 0.97940 0.28400
O 	O 	0.78510 0.54950 0.01080 -0.35300
O 	O 	0.68460 0.51160 0.94400 -0.33700
C 	C 	0.77010 0.41610 0.98650 0.01700
O 	O 	0.82820 0.40840 0.03870 -0.43200
O 	O 	0.70570 0.37150 0.00330 -0.24700
C 	C 	0.79490 0.38860 0.90650 0.27800
O 	O 	0.86520 0.37050 0.89770 -0.35000
O 	O 	0.74580 0.38610 0.85550 -0.31900
Cu	Cu	0.14612 0.00476 0.41463 0.90100
C 	C 	0.25460 0.99970 0.52060 0.29100
O 	O 	0.21490 0.04950 0.48920 -0.35900
O 	O 	0.31540 0.01160 0.55600 -0.33700
C 	C 	0.22990 0.91610 0.51350 0.02200
O 	O 	0.17180 0.90840 0.46130 -0.43500
O 	O 	0.29430 0.87150 0.49670 -0.25000
C 	C 	0.20510 0.88860 0.59350 0.27700
O 	O 	0.13480 0.87050 0.60230 -0.34700
O 	O 	0.25420 0.88610 0.64450 -0.31800
La	La	0.10547 0.10547 0.10547 1.66100
La	La	0.39453 0.89453 0.60547 1.66900
La	La	0.89453 0.60547 0.39453 1.66900
La	La	0.60547 0.39453 0.89453 1.66900
