data_crystal

_cell_length_a 26.12840
_cell_length_b 26.12840
_cell_length_c 34.16630
_cell_angle_alpha 90.00000
_cell_angle_beta  90.00000
_cell_angle_gamma 90.00000

_symmetry_space_group_name_	'P 1'
_symmetry_space_group_name_H-M	'P 1'

loop_
_symmetry_equiv_pos_as_xyz
  x,y,z

loop_
_atom_site_label
_atom_site_type_symbol
_atom_site_fract_x
_atom_site_fract_y
_atom_site_fract_z
_atom_site_charge
Cu	Cu	0.59977 0.23092 0.78121 0.90300
O 	O 	0.75442 0.96367 0.74371 -0.40000
O 	O 	0.65934 0.21854 0.81539 -0.39900
Cu	Cu	0.57499 0.29635 0.83657 0.90800
O 	O 	0.86525 0.20993 0.74319 -0.39600
C 	C 	0.78580 0.99310 0.72733 0.34200
C 	C 	0.66770 0.24290 0.84648 0.34900
O 	O 	0.80757 0.98600 0.69501 -0.40300
O 	O 	0.63907 0.27691 0.86085 -0.40000
C 	C 	0.80130 0.04080 0.74951 -0.04200
C 	C 	0.71500 0.23060 0.86888 -0.06200
C 	C 	0.78960 0.04620 0.78844 -0.07800
C 	C 	0.82840 0.07930 0.72986 -0.00700
C 	C 	0.74350 0.18700 0.86001 -0.04500
C 	C 	0.73110 0.26320 0.89857 0.00800
C 	C 	0.80440 0.08870 0.80927 0.09700
H 	H 	0.77090 0.01990 0.80130 0.07500
H 	H 	0.83820 0.07500 0.70330 0.06500
C 	C 	0.84070 0.12370 0.74980 -0.04700
H 	H 	0.73250 0.16460 0.83980 0.07100
C 	C 	0.78800 0.17630 0.88094 0.04800
C 	C 	0.77670 0.25420 0.91780 -0.05600
H 	H 	0.71060 0.29170 0.90570 0.06700
N 	N 	0.79410 0.08970 0.85102 -0.17800
C 	C 	0.82820 0.12820 0.78932 -0.07400
C 	C 	0.86640 0.16620 0.72785 0.34500
C 	C 	0.80500 0.21050 0.90891 -0.05300
C 	C 	0.81690 0.12970 0.87459 -0.08700
C 	C 	0.79580 0.29050 0.94794 0.33700
H 	H 	0.77430 0.06640 0.86180 0.11700
H 	H 	0.83610 0.15900 0.80280 0.07400
O 	O 	0.88806 0.15438 0.69647 -0.40100
H 	H 	0.83630 0.20420 0.92220 0.06600
H 	H 	0.84980 0.13930 0.86230 0.06200
H 	H 	0.82490 0.11490 0.90060 0.06200
O 	O 	0.76377 0.32415 0.95964 -0.36100
O 	O 	0.84053 0.28570 0.96022 -0.38600
O 	O 	0.56062 0.18027 0.81126 -0.39500
O 	O 	0.41887 0.19235 0.95959 -0.36000
O 	O 	0.38168 0.11453 0.95912 -0.38200
C 	C 	0.41330 0.14710 0.94714 0.32900
C 	C 	0.44700 0.13140 0.91321 -0.03400
C 	C 	0.44680 0.08110 0.90010 -0.07400
C 	C 	0.47830 0.16720 0.89494 -0.00900
H 	H 	0.42470 0.05690 0.91210 0.08500
C 	C 	0.47820 0.06580 0.87000 0.09500
C 	C 	0.50830 0.15270 0.86350 -0.04500
H 	H 	0.47910 0.20160 0.90400 0.07300
C 	C 	0.50800 0.10260 0.85060 -0.06600
N 	N 	0.47970 0.01160 0.86040 -0.08100
C 	C 	0.53920 0.19300 0.84297 0.34200
H 	H 	0.52790 0.09300 0.82850 0.08000
O 	O 	0.54258 0.23575 0.85932 -0.40000
O 	O 	0.70470 0.40770 0.01480 -0.55300
H 	H 	0.70210 0.43680 0.00390 0.24100
Cu	Cu	0.09977 0.73092 0.28121 0.90200
O 	O 	0.25442 0.46367 0.24371 -0.40100
O 	O 	0.15934 0.71854 0.31539 -0.40100
Cu	Cu	0.07499 0.79635 0.33657 0.90700
O 	O 	0.36525 0.70993 0.24319 -0.39700
C 	C 	0.28580 0.49310 0.22733 0.34200
C 	C 	0.16770 0.74290 0.34648 0.35000
O 	O 	0.30757 0.48600 0.19501 -0.40300
O 	O 	0.13907 0.77691 0.36085 -0.40200
C 	C 	0.30130 0.54080 0.24951 -0.04300
C 	C 	0.21500 0.73060 0.36888 -0.06600
C 	C 	0.28960 0.54620 0.28844 -0.07800
C 	C 	0.32840 0.57930 0.22986 -0.00700
C 	C 	0.24350 0.68700 0.36001 -0.04300
C 	C 	0.23110 0.76320 0.39857 0.01100
C 	C 	0.30440 0.58870 0.30927 0.09600
H 	H 	0.27090 0.51990 0.30130 0.07400
H 	H 	0.33820 0.57500 0.20330 0.06500
C 	C 	0.34070 0.62370 0.24980 -0.04800
H 	H 	0.23250 0.66460 0.33980 0.06900
C 	C 	0.28800 0.67630 0.38094 0.04300
C 	C 	0.27670 0.75420 0.41780 -0.06300
H 	H 	0.21060 0.79170 0.40570 0.06300
N 	N 	0.29410 0.58970 0.35102 -0.17900
C 	C 	0.32820 0.62820 0.28932 -0.07300
C 	C 	0.36640 0.66620 0.22785 0.34600
C 	C 	0.30500 0.71050 0.40891 -0.05000
C 	C 	0.31690 0.62970 0.37459 -0.08300
C 	C 	0.29580 0.79050 0.44794 0.34000
H 	H 	0.27430 0.56640 0.36180 0.11400
H 	H 	0.33610 0.65900 0.30280 0.07400
O 	O 	0.38806 0.65438 0.19647 -0.40100
H 	H 	0.33630 0.70420 0.42220 0.06100
H 	H 	0.34980 0.63930 0.36230 0.05900
H 	H 	0.32490 0.61490 0.40060 0.05600
O 	O 	0.26377 0.82415 0.45964 -0.37500
O 	O 	0.34053 0.78570 0.46022 -0.40300
O 	O 	0.06062 0.68027 0.31126 -0.39600
O 	O 	0.91887 0.69235 0.45959 -0.37400
O 	O 	0.88168 0.61453 0.45912 -0.39800
C 	C 	0.91330 0.64710 0.44714 0.33100
C 	C 	0.94700 0.63140 0.41321 -0.04000
C 	C 	0.94680 0.58110 0.40010 -0.07200
C 	C 	0.97830 0.66720 0.39494 -0.00700
H 	H 	0.92470 0.55690 0.41210 0.08100
C 	C 	0.97820 0.56580 0.37000 0.09200
C 	C 	0.00830 0.65270 0.36350 -0.04800
H 	H 	0.97910 0.70160 0.40400 0.07000
C 	C 	0.00800 0.60260 0.35060 -0.06400
N 	N 	0.97970 0.51160 0.36040 -0.08200
C 	C 	0.03920 0.69300 0.34297 0.34300
H 	H 	0.02790 0.59300 0.32850 0.08000
O 	O 	0.04258 0.73575 0.35932 -0.40200
O 	O 	0.20470 0.90770 0.51480 -0.50900
H 	H 	0.20210 0.93680 0.50390 0.18500
Cu	Cu	0.40023 0.76908 0.78121 0.90200
O 	O 	0.24558 0.03633 0.74371 -0.40100
O 	O 	0.34066 0.78146 0.81539 -0.40000
Cu	Cu	0.42501 0.70365 0.83657 0.90700
O 	O 	0.13475 0.79007 0.74319 -0.39600
C 	C 	0.21420 0.00690 0.72733 0.34200
C 	C 	0.33230 0.75710 0.84648 0.34900
O 	O 	0.19243 0.01400 0.69501 -0.40300
O 	O 	0.36093 0.72309 0.86085 -0.40000
C 	C 	0.19870 0.95920 0.74951 -0.04200
C 	C 	0.28500 0.76940 0.86888 -0.06200
C 	C 	0.21040 0.95380 0.78844 -0.07800
C 	C 	0.17160 0.92070 0.72986 -0.00700
C 	C 	0.25650 0.81300 0.86001 -0.04500
C 	C 	0.26890 0.73680 0.89857 0.00800
C 	C 	0.19560 0.91130 0.80927 0.09700
H 	H 	0.22910 0.98010 0.80130 0.07500
H 	H 	0.16180 0.92500 0.70330 0.06500
C 	C 	0.15930 0.87630 0.74980 -0.04700
H 	H 	0.26750 0.83540 0.83980 0.07100
C 	C 	0.21200 0.82370 0.88094 0.04800
C 	C 	0.22330 0.74580 0.91780 -0.05600
H 	H 	0.28940 0.70830 0.90570 0.06700
N 	N 	0.20590 0.91030 0.85102 -0.17800
C 	C 	0.17180 0.87180 0.78932 -0.07400
C 	C 	0.13360 0.83380 0.72785 0.34500
C 	C 	0.19500 0.78950 0.90891 -0.05300
C 	C 	0.18310 0.87030 0.87459 -0.08700
C 	C 	0.20420 0.70950 0.94794 0.33700
H 	H 	0.22570 0.93360 0.86180 0.11700
H 	H 	0.16390 0.84100 0.80280 0.07400
O 	O 	0.11194 0.84562 0.69647 -0.40100
H 	H 	0.16370 0.79580 0.92220 0.06600
H 	H 	0.15020 0.86070 0.86230 0.06200
H 	H 	0.17510 0.88510 0.90060 0.06200
O 	O 	0.23623 0.67585 0.95964 -0.36100
O 	O 	0.15947 0.71430 0.96022 -0.38600
O 	O 	0.43938 0.81973 0.81126 -0.39500
O 	O 	0.58113 0.80765 0.95959 -0.36000
O 	O 	0.61832 0.88547 0.95912 -0.38200
C 	C 	0.58670 0.85290 0.94714 0.32900
C 	C 	0.55300 0.86860 0.91321 -0.03400
C 	C 	0.55320 0.91890 0.90010 -0.07400
C 	C 	0.52170 0.83280 0.89494 -0.00900
H 	H 	0.57530 0.94310 0.91210 0.08500
C 	C 	0.52180 0.93420 0.87000 0.09500
C 	C 	0.49170 0.84730 0.86350 -0.04500
H 	H 	0.52090 0.79840 0.90400 0.07300
C 	C 	0.49200 0.89740 0.85060 -0.06600
N 	N 	0.52030 0.98840 0.86040 -0.08100
C 	C 	0.46080 0.80700 0.84297 0.34200
H 	H 	0.47210 0.90700 0.82850 0.08000
O 	O 	0.45742 0.76425 0.85932 -0.40000
O 	O 	0.29530 0.59230 0.01480 -0.55300
H 	H 	0.29790 0.56320 0.00390 0.24100
Cu	Cu	0.90023 0.26908 0.28121 0.90200
O 	O 	0.74558 0.53633 0.24371 -0.40100
O 	O 	0.84066 0.28146 0.31539 -0.40100
Cu	Cu	0.92501 0.20365 0.33657 0.90700
O 	O 	0.63475 0.29007 0.24319 -0.39700
C 	C 	0.71420 0.50690 0.22733 0.34200
C 	C 	0.83230 0.25710 0.34648 0.35000
O 	O 	0.69243 0.51400 0.19501 -0.40300
O 	O 	0.86093 0.22309 0.36085 -0.40200
C 	C 	0.69870 0.45920 0.24951 -0.04300
C 	C 	0.78500 0.26940 0.36888 -0.06600
C 	C 	0.71040 0.45380 0.28844 -0.07800
C 	C 	0.67160 0.42070 0.22986 -0.00700
C 	C 	0.75650 0.31300 0.36001 -0.04300
C 	C 	0.76890 0.23680 0.39857 0.01100
C 	C 	0.69560 0.41130 0.30927 0.09600
H 	H 	0.72910 0.48010 0.30130 0.07400
H 	H 	0.66180 0.42500 0.20330 0.06500
C 	C 	0.65930 0.37630 0.24980 -0.04800
H 	H 	0.76750 0.33540 0.33980 0.06900
C 	C 	0.71200 0.32370 0.38094 0.04300
C 	C 	0.72330 0.24580 0.41780 -0.06300
H 	H 	0.78940 0.20830 0.40570 0.06300
N 	N 	0.70590 0.41030 0.35102 -0.17900
C 	C 	0.67180 0.37180 0.28932 -0.07300
C 	C 	0.63360 0.33380 0.22785 0.34600
C 	C 	0.69500 0.28950 0.40891 -0.05000
C 	C 	0.68310 0.37030 0.37459 -0.08300
C 	C 	0.70420 0.20950 0.44794 0.34000
H 	H 	0.72570 0.43360 0.36180 0.11400
H 	H 	0.66390 0.34100 0.30280 0.07400
O 	O 	0.61194 0.34562 0.19647 -0.40100
H 	H 	0.66370 0.29580 0.42220 0.06100
H 	H 	0.65020 0.36070 0.36230 0.05900
H 	H 	0.67510 0.38510 0.40060 0.05600
O 	O 	0.73623 0.17585 0.45964 -0.37500
O 	O 	0.65947 0.21430 0.46022 -0.40300
O 	O 	0.93938 0.31973 0.31126 -0.39600
O 	O 	0.08113 0.30765 0.45959 -0.37400
O 	O 	0.11832 0.38547 0.45912 -0.39800
C 	C 	0.08670 0.35290 0.44714 0.33100
C 	C 	0.05300 0.36860 0.41321 -0.04000
C 	C 	0.05320 0.41890 0.40010 -0.07200
C 	C 	0.02170 0.33280 0.39494 -0.00700
H 	H 	0.07530 0.44310 0.41210 0.08100
C 	C 	0.02180 0.43420 0.37000 0.09200
C 	C 	0.99170 0.34730 0.36350 -0.04800
H 	H 	0.02090 0.29840 0.40400 0.07000
C 	C 	0.99200 0.39740 0.35060 -0.06400
N 	N 	0.02030 0.48840 0.36040 -0.08200
C 	C 	0.96080 0.30700 0.34297 0.34300
H 	H 	0.97210 0.40700 0.32850 0.08000
O 	O 	0.95742 0.26425 0.35932 -0.40200
O 	O 	0.79530 0.09230 0.51480 -0.50900
H 	H 	0.79790 0.06320 0.50390 0.18500
Cu	Cu	0.76908 0.59977 0.78121 0.90200
O 	O 	0.03633 0.75442 0.74371 -0.40100
O 	O 	0.78146 0.65934 0.81539 -0.40000
Cu	Cu	0.70365 0.57499 0.83657 0.90700
O 	O 	0.79007 0.86525 0.74319 -0.39600
C 	C 	0.00690 0.78580 0.72733 0.34200
C 	C 	0.75710 0.66770 0.84648 0.34900
O 	O 	0.01400 0.80757 0.69501 -0.40300
O 	O 	0.72309 0.63907 0.86085 -0.40000
C 	C 	0.95920 0.80130 0.74951 -0.04200
C 	C 	0.76940 0.71500 0.86888 -0.06200
C 	C 	0.95380 0.78960 0.78844 -0.07800
C 	C 	0.92070 0.82840 0.72986 -0.00700
C 	C 	0.81300 0.74350 0.86001 -0.04500
C 	C 	0.73680 0.73110 0.89857 0.00800
C 	C 	0.91130 0.80440 0.80927 0.09700
H 	H 	0.98010 0.77090 0.80130 0.07500
H 	H 	0.92500 0.83820 0.70330 0.06500
C 	C 	0.87630 0.84070 0.74980 -0.04700
H 	H 	0.83540 0.73250 0.83980 0.07100
C 	C 	0.82370 0.78800 0.88094 0.04800
C 	C 	0.74580 0.77670 0.91780 -0.05600
H 	H 	0.70830 0.71060 0.90570 0.06700
N 	N 	0.91030 0.79410 0.85102 -0.17800
C 	C 	0.87180 0.82820 0.78932 -0.07400
C 	C 	0.83380 0.86640 0.72785 0.34500
C 	C 	0.78950 0.80500 0.90891 -0.05300
C 	C 	0.87030 0.81690 0.87459 -0.08700
C 	C 	0.70950 0.79580 0.94794 0.33700
H 	H 	0.93360 0.77430 0.86180 0.11700
H 	H 	0.84100 0.83610 0.80280 0.07400
O 	O 	0.84562 0.88806 0.69647 -0.40100
H 	H 	0.79580 0.83630 0.92220 0.06600
H 	H 	0.86070 0.84980 0.86230 0.06200
H 	H 	0.88510 0.82490 0.90060 0.06200
O 	O 	0.67585 0.76377 0.95964 -0.36100
O 	O 	0.71430 0.84053 0.96022 -0.38600
O 	O 	0.81973 0.56062 0.81126 -0.39500
O 	O 	0.80765 0.41887 0.95959 -0.36000
O 	O 	0.88547 0.38168 0.95912 -0.38200
C 	C 	0.85290 0.41330 0.94714 0.32900
C 	C 	0.86860 0.44700 0.91321 -0.03400
C 	C 	0.91890 0.44680 0.90010 -0.07400
C 	C 	0.83280 0.47830 0.89494 -0.00900
H 	H 	0.94310 0.42470 0.91210 0.08500
C 	C 	0.93420 0.47820 0.87000 0.09500
C 	C 	0.84730 0.50830 0.86350 -0.04500
H 	H 	0.79840 0.47910 0.90400 0.07300
C 	C 	0.89740 0.50800 0.85060 -0.06600
N 	N 	0.98840 0.47970 0.86040 -0.08100
C 	C 	0.80700 0.53920 0.84297 0.34200
H 	H 	0.90700 0.52790 0.82850 0.08000
O 	O 	0.76425 0.54258 0.85932 -0.40000
O 	O 	0.59230 0.70470 0.01480 -0.55300
H 	H 	0.56320 0.70210 0.00390 0.24100
Cu	Cu	0.26908 0.09977 0.28121 0.90200
O 	O 	0.53633 0.25442 0.24371 -0.40100
O 	O 	0.28146 0.15934 0.31539 -0.40100
Cu	Cu	0.20365 0.07499 0.33657 0.90700
O 	O 	0.29007 0.36525 0.24319 -0.39700
C 	C 	0.50690 0.28580 0.22733 0.34200
C 	C 	0.25710 0.16770 0.34648 0.35000
O 	O 	0.51400 0.30757 0.19501 -0.40300
O 	O 	0.22309 0.13907 0.36085 -0.40200
C 	C 	0.45920 0.30130 0.24951 -0.04300
C 	C 	0.26940 0.21500 0.36888 -0.06600
C 	C 	0.45380 0.28960 0.28844 -0.07800
C 	C 	0.42070 0.32840 0.22986 -0.00700
C 	C 	0.31300 0.24350 0.36001 -0.04300
C 	C 	0.23680 0.23110 0.39857 0.01100
C 	C 	0.41130 0.30440 0.30927 0.09600
H 	H 	0.48010 0.27090 0.30130 0.07400
H 	H 	0.42500 0.33820 0.20330 0.06500
C 	C 	0.37630 0.34070 0.24980 -0.04800
H 	H 	0.33540 0.23250 0.33980 0.06900
C 	C 	0.32370 0.28800 0.38094 0.04300
C 	C 	0.24580 0.27670 0.41780 -0.06300
H 	H 	0.20830 0.21060 0.40570 0.06300
N 	N 	0.41030 0.29410 0.35102 -0.17900
C 	C 	0.37180 0.32820 0.28932 -0.07300
C 	C 	0.33380 0.36640 0.22785 0.34600
C 	C 	0.28950 0.30500 0.40891 -0.05000
C 	C 	0.37030 0.31690 0.37459 -0.08300
C 	C 	0.20950 0.29580 0.44794 0.34000
H 	H 	0.43360 0.27430 0.36180 0.11400
H 	H 	0.34100 0.33610 0.30280 0.07400
O 	O 	0.34562 0.38806 0.19647 -0.40100
H 	H 	0.29580 0.33630 0.42220 0.06100
H 	H 	0.36070 0.34980 0.36230 0.05900
H 	H 	0.38510 0.32490 0.40060 0.05600
O 	O 	0.17585 0.26377 0.45964 -0.37500
O 	O 	0.21430 0.34053 0.46022 -0.40300
O 	O 	0.31973 0.06062 0.31126 -0.39600
O 	O 	0.30765 0.91887 0.45959 -0.37400
O 	O 	0.38547 0.88168 0.45912 -0.39800
C 	C 	0.35290 0.91330 0.44714 0.33100
C 	C 	0.36860 0.94700 0.41321 -0.04000
C 	C 	0.41890 0.94680 0.40010 -0.07200
C 	C 	0.33280 0.97830 0.39494 -0.00700
H 	H 	0.44310 0.92470 0.41210 0.08100
C 	C 	0.43420 0.97820 0.37000 0.09200
C 	C 	0.34730 0.00830 0.36350 -0.04800
H 	H 	0.29840 0.97910 0.40400 0.07000
C 	C 	0.39740 0.00800 0.35060 -0.06400
N 	N 	0.48840 0.97970 0.36040 -0.08200
C 	C 	0.30700 0.03920 0.34297 0.34300
H 	H 	0.40700 0.02790 0.32850 0.08000
O 	O 	0.26425 0.04258 0.35932 -0.40200
O 	O 	0.09230 0.20470 0.51480 -0.50900
H 	H 	0.06320 0.20210 0.50390 0.18500
Cu	Cu	0.23092 0.40023 0.78121 0.90200
O 	O 	0.96367 0.24558 0.74371 -0.40100
O 	O 	0.21854 0.34066 0.81539 -0.40000
Cu	Cu	0.29635 0.42501 0.83657 0.90700
O 	O 	0.20993 0.13475 0.74319 -0.39600
C 	C 	0.99310 0.21420 0.72733 0.34200
C 	C 	0.24290 0.33230 0.84648 0.34900
O 	O 	0.98600 0.19243 0.69501 -0.40300
O 	O 	0.27691 0.36093 0.86085 -0.40000
C 	C 	0.04080 0.19870 0.74951 -0.04200
C 	C 	0.23060 0.28500 0.86888 -0.06200
C 	C 	0.04620 0.21040 0.78844 -0.07800
C 	C 	0.07930 0.17160 0.72986 -0.00700
C 	C 	0.18700 0.25650 0.86001 -0.04500
C 	C 	0.26320 0.26890 0.89857 0.00800
C 	C 	0.08870 0.19560 0.80927 0.09700
H 	H 	0.01990 0.22910 0.80130 0.07500
H 	H 	0.07500 0.16180 0.70330 0.06500
C 	C 	0.12370 0.15930 0.74980 -0.04700
H 	H 	0.16460 0.26750 0.83980 0.07100
C 	C 	0.17630 0.21200 0.88094 0.04800
C 	C 	0.25420 0.22330 0.91780 -0.05600
H 	H 	0.29170 0.28940 0.90570 0.06700
N 	N 	0.08970 0.20590 0.85102 -0.17800
C 	C 	0.12820 0.17180 0.78932 -0.07400
C 	C 	0.16620 0.13360 0.72785 0.34500
C 	C 	0.21050 0.19500 0.90891 -0.05300
C 	C 	0.12970 0.18310 0.87459 -0.08700
C 	C 	0.29050 0.20420 0.94794 0.33700
H 	H 	0.06640 0.22570 0.86180 0.11700
H 	H 	0.15900 0.16390 0.80280 0.07400
O 	O 	0.15438 0.11194 0.69647 -0.40100
H 	H 	0.20420 0.16370 0.92220 0.06600
H 	H 	0.13930 0.15020 0.86230 0.06200
H 	H 	0.11490 0.17510 0.90060 0.06200
O 	O 	0.32415 0.23623 0.95964 -0.36100
O 	O 	0.28570 0.15947 0.96022 -0.38600
O 	O 	0.18027 0.43938 0.81126 -0.39500
O 	O 	0.19235 0.58113 0.95959 -0.36000
O 	O 	0.11453 0.61832 0.95912 -0.38200
C 	C 	0.14710 0.58670 0.94714 0.32900
C 	C 	0.13140 0.55300 0.91321 -0.03400
C 	C 	0.08110 0.55320 0.90010 -0.07400
C 	C 	0.16720 0.52170 0.89494 -0.00900
H 	H 	0.05690 0.57530 0.91210 0.08500
C 	C 	0.06580 0.52180 0.87000 0.09500
C 	C 	0.15270 0.49170 0.86350 -0.04500
H 	H 	0.20160 0.52090 0.90400 0.07300
C 	C 	0.10260 0.49200 0.85060 -0.06600
N 	N 	0.01160 0.52030 0.86040 -0.08100
C 	C 	0.19300 0.46080 0.84297 0.34200
H 	H 	0.09300 0.47210 0.82850 0.08000
O 	O 	0.23575 0.45742 0.85932 -0.40000
O 	O 	0.40770 0.29530 0.01480 -0.55300
H 	H 	0.43680 0.29790 0.00390 0.24100
Cu	Cu	0.73092 0.90023 0.28121 0.90200
O 	O 	0.46367 0.74558 0.24371 -0.40100
O 	O 	0.71854 0.84066 0.31539 -0.40100
Cu	Cu	0.79635 0.92501 0.33657 0.90700
O 	O 	0.70993 0.63475 0.24319 -0.39700
C 	C 	0.49310 0.71420 0.22733 0.34200
C 	C 	0.74290 0.83230 0.34648 0.35000
O 	O 	0.48600 0.69243 0.19501 -0.40300
O 	O 	0.77691 0.86093 0.36085 -0.40200
C 	C 	0.54080 0.69870 0.24951 -0.04300
C 	C 	0.73060 0.78500 0.36888 -0.06600
C 	C 	0.54620 0.71040 0.28844 -0.07800
C 	C 	0.57930 0.67160 0.22986 -0.00700
C 	C 	0.68700 0.75650 0.36001 -0.04300
C 	C 	0.76320 0.76890 0.39857 0.01100
C 	C 	0.58870 0.69560 0.30927 0.09600
H 	H 	0.51990 0.72910 0.30130 0.07400
H 	H 	0.57500 0.66180 0.20330 0.06500
C 	C 	0.62370 0.65930 0.24980 -0.04800
H 	H 	0.66460 0.76750 0.33980 0.06900
C 	C 	0.67630 0.71200 0.38094 0.04300
C 	C 	0.75420 0.72330 0.41780 -0.06300
H 	H 	0.79170 0.78940 0.40570 0.06300
N 	N 	0.58970 0.70590 0.35102 -0.17900
C 	C 	0.62820 0.67180 0.28932 -0.07300
C 	C 	0.66620 0.63360 0.22785 0.34600
C 	C 	0.71050 0.69500 0.40891 -0.05000
C 	C 	0.62970 0.68310 0.37459 -0.08300
C 	C 	0.79050 0.70420 0.44794 0.34000
H 	H 	0.56640 0.72570 0.36180 0.11400
H 	H 	0.65900 0.66390 0.30280 0.07400
O 	O 	0.65438 0.61194 0.19647 -0.40100
H 	H 	0.70420 0.66370 0.42220 0.06100
H 	H 	0.63930 0.65020 0.36230 0.05900
H 	H 	0.61490 0.67510 0.40060 0.05600
O 	O 	0.82415 0.73623 0.45964 -0.37500
O 	O 	0.78570 0.65947 0.46022 -0.40300
O 	O 	0.68027 0.93938 0.31126 -0.39600
O 	O 	0.69235 0.08113 0.45959 -0.37400
O 	O 	0.61453 0.11832 0.45912 -0.39800
C 	C 	0.64710 0.08670 0.44714 0.33100
C 	C 	0.63140 0.05300 0.41321 -0.04000
C 	C 	0.58110 0.05320 0.40010 -0.07200
C 	C 	0.66720 0.02170 0.39494 -0.00700
H 	H 	0.55690 0.07530 0.41210 0.08100
C 	C 	0.56580 0.02180 0.37000 0.09200
C 	C 	0.65270 0.99170 0.36350 -0.04800
H 	H 	0.70160 0.02090 0.40400 0.07000
C 	C 	0.60260 0.99200 0.35060 -0.06400
N 	N 	0.51160 0.02030 0.36040 -0.08200
C 	C 	0.69300 0.96080 0.34297 0.34300
H 	H 	0.59300 0.97210 0.32850 0.08000
O 	O 	0.73575 0.95742 0.35932 -0.40200
O 	O 	0.90770 0.79530 0.51480 -0.50900
H 	H 	0.93680 0.79790 0.50390 0.18500
Cu	Cu	0.40023 0.76908 0.21879 0.90300
O 	O 	0.24558 0.03633 0.25629 -0.40100
O 	O 	0.34066 0.78146 0.18461 -0.40100
Cu	Cu	0.42501 0.70365 0.16343 0.90600
O 	O 	0.13475 0.79007 0.25681 -0.39700
C 	C 	0.21420 0.00690 0.27267 0.34200
C 	C 	0.33230 0.75710 0.15352 0.35100
O 	O 	0.19243 0.01400 0.30499 -0.40300
O 	O 	0.36093 0.72309 0.13915 -0.40400
C 	C 	0.19870 0.95920 0.25049 -0.04300
C 	C 	0.28500 0.76940 0.13112 -0.06900
C 	C 	0.21040 0.95380 0.21156 -0.07800
C 	C 	0.17160 0.92070 0.27014 -0.00700
C 	C 	0.25650 0.81300 0.13999 -0.04100
C 	C 	0.26890 0.73680 0.10143 0.01200
C 	C 	0.19560 0.91130 0.19073 0.09500
H 	H 	0.22910 0.98010 0.19870 0.07300
H 	H 	0.16180 0.92500 0.29670 0.06500
C 	C 	0.15930 0.87630 0.25020 -0.04800
H 	H 	0.26750 0.83540 0.16020 0.06800
C 	C 	0.21200 0.82370 0.11906 0.03800
C 	C 	0.22330 0.74580 0.08220 -0.06800
H 	H 	0.28940 0.70830 0.09430 0.06100
N 	N 	0.20590 0.91030 0.14898 -0.17900
C 	C 	0.17180 0.87180 0.21068 -0.07300
C 	C 	0.13360 0.83380 0.27215 0.34600
C 	C 	0.19500 0.78950 0.09109 -0.04800
C 	C 	0.18310 0.87030 0.12541 -0.08000
C 	C 	0.20420 0.70950 0.05206 0.34000
H 	H 	0.22570 0.93360 0.13820 0.11200
H 	H 	0.16390 0.84100 0.19720 0.07400
O 	O 	0.11194 0.84562 0.30353 -0.40100
H 	H 	0.16370 0.79580 0.07780 0.05600
H 	H 	0.15020 0.86070 0.13770 0.05700
H 	H 	0.17510 0.88510 0.09940 0.05100
O 	O 	0.23623 0.67585 0.04036 -0.38100
O 	O 	0.15947 0.71430 0.03978 -0.41100
O 	O 	0.43938 0.81973 0.18874 -0.39600
O 	O 	0.58113 0.80765 0.04041 -0.38100
O 	O 	0.61832 0.88547 0.04088 -0.40600
C 	C 	0.58670 0.85290 0.05286 0.33100
C 	C 	0.55300 0.86860 0.08679 -0.04400
C 	C 	0.55320 0.91890 0.09990 -0.07100
C 	C 	0.52170 0.83280 0.10506 -0.00600
H 	H 	0.57530 0.94310 0.08790 0.07700
C 	C 	0.52180 0.93420 0.13000 0.09000
C 	C 	0.49170 0.84730 0.13650 -0.05100
H 	H 	0.52090 0.79840 0.09600 0.06700
C 	C 	0.49200 0.89740 0.14940 -0.06300
N 	N 	0.52030 0.98840 0.13960 -0.08300
C 	C 	0.46080 0.80700 0.15703 0.34400
H 	H 	0.47210 0.90700 0.17150 0.07900
O 	O 	0.45742 0.76425 0.14068 -0.40400
O 	O 	0.29530 0.59230 0.98520 -0.41200
H 	H 	0.29790 0.56320 0.99610 0.11500
Cu	Cu	0.90023 0.26908 0.71879 0.90200
O 	O 	0.74558 0.53633 0.75629 -0.40100
O 	O 	0.84066 0.28146 0.68461 -0.40100
Cu	Cu	0.92501 0.20365 0.66343 0.90700
O 	O 	0.63475 0.29007 0.75681 -0.39700
C 	C 	0.71420 0.50690 0.77267 0.34200
C 	C 	0.83230 0.25710 0.65352 0.35000
O 	O 	0.69243 0.51400 0.80499 -0.40200
O 	O 	0.86093 0.22309 0.63915 -0.40200
C 	C 	0.69870 0.45920 0.75049 -0.04200
C 	C 	0.78500 0.26940 0.63112 -0.06600
C 	C 	0.71040 0.45380 0.71156 -0.07800
C 	C 	0.67160 0.42070 0.77014 -0.00800
C 	C 	0.75650 0.31300 0.63999 -0.04300
C 	C 	0.76890 0.23680 0.60143 0.01100
C 	C 	0.69560 0.41130 0.69073 0.09600
H 	H 	0.72910 0.48010 0.69870 0.07400
H 	H 	0.66180 0.42500 0.79670 0.06600
C 	C 	0.65930 0.37630 0.75020 -0.04700
H 	H 	0.76750 0.33540 0.66020 0.06900
C 	C 	0.71200 0.32370 0.61906 0.04300
C 	C 	0.72330 0.24580 0.58220 -0.06300
H 	H 	0.78940 0.20830 0.59430 0.06300
N 	N 	0.70590 0.41030 0.64898 -0.17900
C 	C 	0.67180 0.37180 0.71068 -0.07400
C 	C 	0.63360 0.33380 0.77215 0.34500
C 	C 	0.69500 0.28950 0.59109 -0.05000
C 	C 	0.68310 0.37030 0.62541 -0.08300
C 	C 	0.70420 0.20950 0.55206 0.34000
H 	H 	0.72570 0.43360 0.63820 0.11400
H 	H 	0.66390 0.34100 0.69720 0.07400
O 	O 	0.61194 0.34562 0.80353 -0.40000
H 	H 	0.66370 0.29580 0.57780 0.06000
H 	H 	0.65020 0.36070 0.63770 0.05900
H 	H 	0.67510 0.38510 0.59940 0.05600
O 	O 	0.73623 0.17585 0.54036 -0.37500
O 	O 	0.65947 0.21430 0.53978 -0.40300
O 	O 	0.93938 0.31973 0.68874 -0.39600
O 	O 	0.08113 0.30765 0.54041 -0.37400
O 	O 	0.11832 0.38547 0.54088 -0.39800
C 	C 	0.08670 0.35290 0.55286 0.33100
C 	C 	0.05300 0.36860 0.58679 -0.04000
C 	C 	0.05320 0.41890 0.59990 -0.07200
C 	C 	0.02170 0.33280 0.60506 -0.00700
H 	H 	0.07530 0.44310 0.58790 0.08000
C 	C 	0.02180 0.43420 0.63000 0.09200
C 	C 	0.99170 0.34730 0.63650 -0.04900
H 	H 	0.02090 0.29840 0.59600 0.07000
C 	C 	0.99200 0.39740 0.64940 -0.06400
N 	N 	0.02030 0.48840 0.63960 -0.08200
C 	C 	0.96080 0.30700 0.65703 0.34300
H 	H 	0.97210 0.40700 0.67150 0.08000
O 	O 	0.95742 0.26425 0.64068 -0.40200
O 	O 	0.79530 0.09230 0.48520 -0.50900
H 	H 	0.79790 0.06320 0.49610 0.18500
Cu	Cu	0.59977 0.23092 0.21879 0.90300
O 	O 	0.75442 0.96367 0.25629 -0.40100
O 	O 	0.65934 0.21854 0.18461 -0.40100
Cu	Cu	0.57499 0.29635 0.16343 0.90600
O 	O 	0.86525 0.20993 0.25681 -0.39700
C 	C 	0.78580 0.99310 0.27267 0.34200
C 	C 	0.66770 0.24290 0.15352 0.35100
O 	O 	0.80757 0.98600 0.30499 -0.40300
O 	O 	0.63907 0.27691 0.13915 -0.40400
C 	C 	0.80130 0.04080 0.25049 -0.04300
C 	C 	0.71500 0.23060 0.13112 -0.06900
C 	C 	0.78960 0.04620 0.21156 -0.07800
C 	C 	0.82840 0.07930 0.27014 -0.00700
C 	C 	0.74350 0.18700 0.13999 -0.04100
C 	C 	0.73110 0.26320 0.10143 0.01200
C 	C 	0.80440 0.08870 0.19073 0.09500
H 	H 	0.77090 0.01990 0.19870 0.07300
H 	H 	0.83820 0.07500 0.29670 0.06500
C 	C 	0.84070 0.12370 0.25020 -0.04800
H 	H 	0.73250 0.16460 0.16020 0.06800
C 	C 	0.78800 0.17630 0.11906 0.03800
C 	C 	0.77670 0.25420 0.08220 -0.06800
H 	H 	0.71060 0.29170 0.09430 0.06100
N 	N 	0.79410 0.08970 0.14898 -0.17900
C 	C 	0.82820 0.12820 0.21068 -0.07300
C 	C 	0.86640 0.16620 0.27215 0.34600
C 	C 	0.80500 0.21050 0.09109 -0.04800
C 	C 	0.81690 0.12970 0.12541 -0.08000
C 	C 	0.79580 0.29050 0.05206 0.34000
H 	H 	0.77430 0.06640 0.13820 0.11200
H 	H 	0.83610 0.15900 0.19720 0.07400
O 	O 	0.88806 0.15438 0.30353 -0.40100
H 	H 	0.83630 0.20420 0.07780 0.05600
H 	H 	0.84980 0.13930 0.13770 0.05700
H 	H 	0.82490 0.11490 0.09940 0.05100
O 	O 	0.76377 0.32415 0.04036 -0.38100
O 	O 	0.84053 0.28570 0.03978 -0.41100
O 	O 	0.56062 0.18027 0.18874 -0.39600
O 	O 	0.41887 0.19235 0.04041 -0.38100
O 	O 	0.38168 0.11453 0.04088 -0.40600
C 	C 	0.41330 0.14710 0.05286 0.33100
C 	C 	0.44700 0.13140 0.08679 -0.04400
C 	C 	0.44680 0.08110 0.09990 -0.07100
C 	C 	0.47830 0.16720 0.10506 -0.00600
H 	H 	0.42470 0.05690 0.08790 0.07700
C 	C 	0.47820 0.06580 0.13000 0.09000
C 	C 	0.50830 0.15270 0.13650 -0.05100
H 	H 	0.47910 0.20160 0.09600 0.06700
C 	C 	0.50800 0.10260 0.14940 -0.06300
N 	N 	0.47970 0.01160 0.13960 -0.08300
C 	C 	0.53920 0.19300 0.15703 0.34400
H 	H 	0.52790 0.09300 0.17150 0.07900
O 	O 	0.54258 0.23575 0.14068 -0.40400
O 	O 	0.70470 0.40770 0.98520 -0.41200
H 	H 	0.70210 0.43680 0.99610 0.11500
Cu	Cu	0.09977 0.73092 0.71879 0.90200
O 	O 	0.25442 0.46367 0.75629 -0.40100
O 	O 	0.15934 0.71854 0.68461 -0.40100
Cu	Cu	0.07499 0.79635 0.66343 0.90700
O 	O 	0.36525 0.70993 0.75681 -0.39700
C 	C 	0.28580 0.49310 0.77267 0.34200
C 	C 	0.16770 0.74290 0.65352 0.35000
O 	O 	0.30757 0.48600 0.80499 -0.40200
O 	O 	0.13907 0.77691 0.63915 -0.40200
C 	C 	0.30130 0.54080 0.75049 -0.04200
C 	C 	0.21500 0.73060 0.63112 -0.06600
C 	C 	0.28960 0.54620 0.71156 -0.07800
C 	C 	0.32840 0.57930 0.77014 -0.00800
C 	C 	0.24350 0.68700 0.63999 -0.04300
C 	C 	0.23110 0.76320 0.60143 0.01100
C 	C 	0.30440 0.58870 0.69073 0.09600
H 	H 	0.27090 0.51990 0.69870 0.07400
H 	H 	0.33820 0.57500 0.79670 0.06600
C 	C 	0.34070 0.62370 0.75020 -0.04700
H 	H 	0.23250 0.66460 0.66020 0.06900
C 	C 	0.28800 0.67630 0.61906 0.04300
C 	C 	0.27670 0.75420 0.58220 -0.06300
H 	H 	0.21060 0.79170 0.59430 0.06300
N 	N 	0.29410 0.58970 0.64898 -0.17900
C 	C 	0.32820 0.62820 0.71068 -0.07400
C 	C 	0.36640 0.66620 0.77215 0.34500
C 	C 	0.30500 0.71050 0.59109 -0.05000
C 	C 	0.31690 0.62970 0.62541 -0.08300
C 	C 	0.29580 0.79050 0.55206 0.34000
H 	H 	0.27430 0.56640 0.63820 0.11400
H 	H 	0.33610 0.65900 0.69720 0.07400
O 	O 	0.38806 0.65438 0.80353 -0.40000
H 	H 	0.33630 0.70420 0.57780 0.06000
H 	H 	0.34980 0.63930 0.63770 0.05900
H 	H 	0.32490 0.61490 0.59940 0.05600
O 	O 	0.26377 0.82415 0.54036 -0.37500
O 	O 	0.34053 0.78570 0.53978 -0.40300
O 	O 	0.06062 0.68027 0.68874 -0.39600
O 	O 	0.91887 0.69235 0.54041 -0.37400
O 	O 	0.88168 0.61453 0.54088 -0.39800
C 	C 	0.91330 0.64710 0.55286 0.33100
C 	C 	0.94700 0.63140 0.58679 -0.04000
C 	C 	0.94680 0.58110 0.59990 -0.07200
C 	C 	0.97830 0.66720 0.60506 -0.00700
H 	H 	0.92470 0.55690 0.58790 0.08000
C 	C 	0.97820 0.56580 0.63000 0.09200
C 	C 	0.00830 0.65270 0.63650 -0.04900
H 	H 	0.97910 0.70160 0.59600 0.07000
C 	C 	0.00800 0.60260 0.64940 -0.06400
N 	N 	0.97970 0.51160 0.63960 -0.08200
C 	C 	0.03920 0.69300 0.65703 0.34300
H 	H 	0.02790 0.59300 0.67150 0.08000
O 	O 	0.04258 0.73575 0.64068 -0.40200
O 	O 	0.20470 0.90770 0.48520 -0.50900
H 	H 	0.20210 0.93680 0.49610 0.18500
Cu	Cu	0.23092 0.40023 0.21879 0.90300
O 	O 	0.96367 0.24558 0.25629 -0.40100
O 	O 	0.21854 0.34066 0.18461 -0.40100
Cu	Cu	0.29635 0.42501 0.16343 0.90600
O 	O 	0.20993 0.13475 0.25681 -0.39700
C 	C 	0.99310 0.21420 0.27267 0.34200
C 	C 	0.24290 0.33230 0.15352 0.35100
O 	O 	0.98600 0.19243 0.30499 -0.40300
O 	O 	0.27691 0.36093 0.13915 -0.40400
C 	C 	0.04080 0.19870 0.25049 -0.04300
C 	C 	0.23060 0.28500 0.13112 -0.06900
C 	C 	0.04620 0.21040 0.21156 -0.07800
C 	C 	0.07930 0.17160 0.27014 -0.00700
C 	C 	0.18700 0.25650 0.13999 -0.04100
C 	C 	0.26320 0.26890 0.10143 0.01200
C 	C 	0.08870 0.19560 0.19073 0.09500
H 	H 	0.01990 0.22910 0.19870 0.07300
H 	H 	0.07500 0.16180 0.29670 0.06500
C 	C 	0.12370 0.15930 0.25020 -0.04800
H 	H 	0.16460 0.26750 0.16020 0.06800
C 	C 	0.17630 0.21200 0.11906 0.03800
C 	C 	0.25420 0.22330 0.08220 -0.06800
H 	H 	0.29170 0.28940 0.09430 0.06100
N 	N 	0.08970 0.20590 0.14898 -0.17900
C 	C 	0.12820 0.17180 0.21068 -0.07300
C 	C 	0.16620 0.13360 0.27215 0.34600
C 	C 	0.21050 0.19500 0.09109 -0.04800
C 	C 	0.12970 0.18310 0.12541 -0.08000
C 	C 	0.29050 0.20420 0.05206 0.34000
H 	H 	0.06640 0.22570 0.13820 0.11200
H 	H 	0.15900 0.16390 0.19720 0.07400
O 	O 	0.15438 0.11194 0.30353 -0.40100
H 	H 	0.20420 0.16370 0.07780 0.05600
H 	H 	0.13930 0.15020 0.13770 0.05700
H 	H 	0.11490 0.17510 0.09940 0.05100
O 	O 	0.32415 0.23623 0.04036 -0.38100
O 	O 	0.28570 0.15947 0.03978 -0.41100
O 	O 	0.18027 0.43938 0.18874 -0.39600
O 	O 	0.19235 0.58113 0.04041 -0.38100
O 	O 	0.11453 0.61832 0.04088 -0.40600
C 	C 	0.14710 0.58670 0.05286 0.33100
C 	C 	0.13140 0.55300 0.08679 -0.04400
C 	C 	0.08110 0.55320 0.09990 -0.07100
C 	C 	0.16720 0.52170 0.10506 -0.00600
H 	H 	0.05690 0.57530 0.08790 0.07700
C 	C 	0.06580 0.52180 0.13000 0.09000
C 	C 	0.15270 0.49170 0.13650 -0.05100
H 	H 	0.20160 0.52090 0.09600 0.06700
C 	C 	0.10260 0.49200 0.14940 -0.06300
N 	N 	0.01160 0.52030 0.13960 -0.08300
C 	C 	0.19300 0.46080 0.15703 0.34400
H 	H 	0.09300 0.47210 0.17150 0.07900
O 	O 	0.23575 0.45742 0.14068 -0.40400
O 	O 	0.40770 0.29530 0.98520 -0.41200
H 	H 	0.43680 0.29790 0.99610 0.11500
Cu	Cu	0.73092 0.90023 0.71879 0.90200
O 	O 	0.46367 0.74558 0.75629 -0.40100
O 	O 	0.71854 0.84066 0.68461 -0.40100
Cu	Cu	0.79635 0.92501 0.66343 0.90700
O 	O 	0.70993 0.63475 0.75681 -0.39700
C 	C 	0.49310 0.71420 0.77267 0.34200
C 	C 	0.74290 0.83230 0.65352 0.35000
O 	O 	0.48600 0.69243 0.80499 -0.40200
O 	O 	0.77691 0.86093 0.63915 -0.40200
C 	C 	0.54080 0.69870 0.75049 -0.04200
C 	C 	0.73060 0.78500 0.63112 -0.06600
C 	C 	0.54620 0.71040 0.71156 -0.07800
C 	C 	0.57930 0.67160 0.77014 -0.00800
C 	C 	0.68700 0.75650 0.63999 -0.04300
C 	C 	0.76320 0.76890 0.60143 0.01100
C 	C 	0.58870 0.69560 0.69073 0.09600
H 	H 	0.51990 0.72910 0.69870 0.07400
H 	H 	0.57500 0.66180 0.79670 0.06600
C 	C 	0.62370 0.65930 0.75020 -0.04700
H 	H 	0.66460 0.76750 0.66020 0.06900
C 	C 	0.67630 0.71200 0.61906 0.04300
C 	C 	0.75420 0.72330 0.58220 -0.06300
H 	H 	0.79170 0.78940 0.59430 0.06300
N 	N 	0.58970 0.70590 0.64898 -0.17900
C 	C 	0.62820 0.67180 0.71068 -0.07400
C 	C 	0.66620 0.63360 0.77215 0.34500
C 	C 	0.71050 0.69500 0.59109 -0.05000
C 	C 	0.62970 0.68310 0.62541 -0.08300
C 	C 	0.79050 0.70420 0.55206 0.34000
H 	H 	0.56640 0.72570 0.63820 0.11400
H 	H 	0.65900 0.66390 0.69720 0.07400
O 	O 	0.65438 0.61194 0.80353 -0.40000
H 	H 	0.70420 0.66370 0.57780 0.06000
H 	H 	0.63930 0.65020 0.63770 0.05900
H 	H 	0.61490 0.67510 0.59940 0.05600
O 	O 	0.82415 0.73623 0.54036 -0.37500
O 	O 	0.78570 0.65947 0.53978 -0.40300
O 	O 	0.68027 0.93938 0.68874 -0.39600
O 	O 	0.69235 0.08113 0.54041 -0.37400
O 	O 	0.61453 0.11832 0.54088 -0.39800
C 	C 	0.64710 0.08670 0.55286 0.33100
C 	C 	0.63140 0.05300 0.58679 -0.04000
C 	C 	0.58110 0.05320 0.59990 -0.07200
C 	C 	0.66720 0.02170 0.60506 -0.00700
H 	H 	0.55690 0.07530 0.58790 0.08000
C 	C 	0.56580 0.02180 0.63000 0.09200
C 	C 	0.65270 0.99170 0.63650 -0.04900
H 	H 	0.70160 0.02090 0.59600 0.07000
C 	C 	0.60260 0.99200 0.64940 -0.06400
N 	N 	0.51160 0.02030 0.63960 -0.08200
C 	C 	0.69300 0.96080 0.65703 0.34300
H 	H 	0.59300 0.97210 0.67150 0.08000
O 	O 	0.73575 0.95742 0.64068 -0.40200
O 	O 	0.90770 0.79530 0.48520 -0.50900
H 	H 	0.93680 0.79790 0.49610 0.18500
Cu	Cu	0.76908 0.59977 0.21879 0.90300
O 	O 	0.03633 0.75442 0.25629 -0.40100
O 	O 	0.78146 0.65934 0.18461 -0.40100
Cu	Cu	0.70365 0.57499 0.16343 0.90600
O 	O 	0.79007 0.86525 0.25681 -0.39700
C 	C 	0.00690 0.78580 0.27267 0.34200
C 	C 	0.75710 0.66770 0.15352 0.35100
O 	O 	0.01400 0.80757 0.30499 -0.40300
O 	O 	0.72309 0.63907 0.13915 -0.40400
C 	C 	0.95920 0.80130 0.25049 -0.04300
C 	C 	0.76940 0.71500 0.13112 -0.06900
C 	C 	0.95380 0.78960 0.21156 -0.07800
C 	C 	0.92070 0.82840 0.27014 -0.00700
C 	C 	0.81300 0.74350 0.13999 -0.04100
C 	C 	0.73680 0.73110 0.10143 0.01200
C 	C 	0.91130 0.80440 0.19073 0.09500
H 	H 	0.98010 0.77090 0.19870 0.07300
H 	H 	0.92500 0.83820 0.29670 0.06500
C 	C 	0.87630 0.84070 0.25020 -0.04800
H 	H 	0.83540 0.73250 0.16020 0.06800
C 	C 	0.82370 0.78800 0.11906 0.03800
C 	C 	0.74580 0.77670 0.08220 -0.06800
H 	H 	0.70830 0.71060 0.09430 0.06100
N 	N 	0.91030 0.79410 0.14898 -0.17900
C 	C 	0.87180 0.82820 0.21068 -0.07300
C 	C 	0.83380 0.86640 0.27215 0.34600
C 	C 	0.78950 0.80500 0.09109 -0.04800
C 	C 	0.87030 0.81690 0.12541 -0.08000
C 	C 	0.70950 0.79580 0.05206 0.34000
H 	H 	0.93360 0.77430 0.13820 0.11200
H 	H 	0.84100 0.83610 0.19720 0.07400
O 	O 	0.84562 0.88806 0.30353 -0.40100
H 	H 	0.79580 0.83630 0.07780 0.05600
H 	H 	0.86070 0.84980 0.13770 0.05700
H 	H 	0.88510 0.82490 0.09940 0.05100
O 	O 	0.67585 0.76377 0.04036 -0.38100
O 	O 	0.71430 0.84053 0.03978 -0.41100
O 	O 	0.81973 0.56062 0.18874 -0.39600
O 	O 	0.80765 0.41887 0.04041 -0.38100
O 	O 	0.88547 0.38168 0.04088 -0.40600
C 	C 	0.85290 0.41330 0.05286 0.33100
C 	C 	0.86860 0.44700 0.08679 -0.04400
C 	C 	0.91890 0.44680 0.09990 -0.07100
C 	C 	0.83280 0.47830 0.10506 -0.00600
H 	H 	0.94310 0.42470 0.08790 0.07700
C 	C 	0.93420 0.47820 0.13000 0.09000
C 	C 	0.84730 0.50830 0.13650 -0.05100
H 	H 	0.79840 0.47910 0.09600 0.06700
C 	C 	0.89740 0.50800 0.14940 -0.06300
N 	N 	0.98840 0.47970 0.13960 -0.08300
C 	C 	0.80700 0.53920 0.15703 0.34400
H 	H 	0.90700 0.52790 0.17150 0.07900
O 	O 	0.76425 0.54258 0.14068 -0.40400
O 	O 	0.59230 0.70470 0.98520 -0.41200
H 	H 	0.56320 0.70210 0.99610 0.11500
Cu	Cu	0.26908 0.09977 0.71879 0.90200
O 	O 	0.53633 0.25442 0.75629 -0.40100
O 	O 	0.28146 0.15934 0.68461 -0.40100
Cu	Cu	0.20365 0.07499 0.66343 0.90700
O 	O 	0.29007 0.36525 0.75681 -0.39700
C 	C 	0.50690 0.28580 0.77267 0.34200
C 	C 	0.25710 0.16770 0.65352 0.35000
O 	O 	0.51400 0.30757 0.80499 -0.40200
O 	O 	0.22309 0.13907 0.63915 -0.40200
C 	C 	0.45920 0.30130 0.75049 -0.04200
C 	C 	0.26940 0.21500 0.63112 -0.06600
C 	C 	0.45380 0.28960 0.71156 -0.07800
C 	C 	0.42070 0.32840 0.77014 -0.00800
C 	C 	0.31300 0.24350 0.63999 -0.04300
C 	C 	0.23680 0.23110 0.60143 0.01100
C 	C 	0.41130 0.30440 0.69073 0.09600
H 	H 	0.48010 0.27090 0.69870 0.07400
H 	H 	0.42500 0.33820 0.79670 0.06600
C 	C 	0.37630 0.34070 0.75020 -0.04700
H 	H 	0.33540 0.23250 0.66020 0.06900
C 	C 	0.32370 0.28800 0.61906 0.04300
C 	C 	0.24580 0.27670 0.58220 -0.06300
H 	H 	0.20830 0.21060 0.59430 0.06300
N 	N 	0.41030 0.29410 0.64898 -0.17900
C 	C 	0.37180 0.32820 0.71068 -0.07400
C 	C 	0.33380 0.36640 0.77215 0.34500
C 	C 	0.28950 0.30500 0.59109 -0.05000
C 	C 	0.37030 0.31690 0.62541 -0.08300
C 	C 	0.20950 0.29580 0.55206 0.34000
H 	H 	0.43360 0.27430 0.63820 0.11400
H 	H 	0.34100 0.33610 0.69720 0.07400
O 	O 	0.34562 0.38806 0.80353 -0.40000
H 	H 	0.29580 0.33630 0.57780 0.06000
H 	H 	0.36070 0.34980 0.63770 0.05900
H 	H 	0.38510 0.32490 0.59940 0.05600
O 	O 	0.17585 0.26377 0.54036 -0.37500
O 	O 	0.21430 0.34053 0.53978 -0.40300
O 	O 	0.31973 0.06062 0.68874 -0.39600
O 	O 	0.30765 0.91887 0.54041 -0.37400
O 	O 	0.38547 0.88168 0.54088 -0.39800
C 	C 	0.35290 0.91330 0.55286 0.33100
C 	C 	0.36860 0.94700 0.58679 -0.04000
C 	C 	0.41890 0.94680 0.59990 -0.07200
C 	C 	0.33280 0.97830 0.60506 -0.00700
H 	H 	0.44310 0.92470 0.58790 0.08000
C 	C 	0.43420 0.97820 0.63000 0.09200
C 	C 	0.34730 0.00830 0.63650 -0.04900
H 	H 	0.29840 0.97910 0.59600 0.07000
C 	C 	0.39740 0.00800 0.64940 -0.06400
N 	N 	0.48840 0.97970 0.63960 -0.08200
C 	C 	0.30700 0.03920 0.65703 0.34300
H 	H 	0.40700 0.02790 0.67150 0.08000
O 	O 	0.26425 0.04258 0.64068 -0.40200
O 	O 	0.09230 0.20470 0.48520 -0.50900
H 	H 	0.06320 0.20210 0.49610 0.18500
Cu	Cu	0.77905 0.37512 -0.00000 0.93000
Cu	Cu	0.87014 0.33081 -0.00000 0.88700
H 	H 	0.68590 0.38880 -0.00000 0.41800
Cu	Cu	0.27905 0.87512 0.50000 0.94700
Cu	Cu	0.37014 0.83081 0.50000 0.90200
H 	H 	0.18590 0.88880 0.50000 0.45800
Cu	Cu	0.22095 0.62488 -0.00000 0.93000
Cu	Cu	0.12986 0.66919 -0.00000 0.88700
H 	H 	0.31410 0.61120 -0.00000 0.41800
Cu	Cu	0.72095 0.12488 0.50000 0.94700
Cu	Cu	0.62986 0.16919 0.50000 0.90200
H 	H 	0.81410 0.11120 0.50000 0.45800
Cu	Cu	0.62488 0.77905 -0.00000 0.93000
Cu	Cu	0.66919 0.87014 -0.00000 0.88700
H 	H 	0.61120 0.68590 -0.00000 0.41800
Cu	Cu	0.12488 0.27905 0.50000 0.94700
Cu	Cu	0.16919 0.37014 0.50000 0.90200
H 	H 	0.11120 0.18590 0.50000 0.45800
Cu	Cu	0.37512 0.22095 -0.00000 0.93000
Cu	Cu	0.33081 0.12986 -0.00000 0.88700
H 	H 	0.38880 0.31410 -0.00000 0.41800
Cu	Cu	0.87512 0.72095 0.50000 0.94700
Cu	Cu	0.83081 0.62986 0.50000 0.90200
H 	H 	0.88880 0.81410 0.50000 0.45800
