data_crystal

_cell_length_a 22.01800
_cell_length_b 20.78300
_cell_length_c 37.06200
_cell_angle_alpha 90.00000
_cell_angle_beta  94.84500
_cell_angle_gamma 90.00000

_symmetry_space_group_name_	'P 1'
_symmetry_space_group_name_H-M	'P 1'

loop_
_symmetry_equiv_pos_as_xyz
  x,y,z

loop_
_atom_site_label
_atom_site_type_symbol
_atom_site_fract_x
_atom_site_fract_y
_atom_site_fract_z
_atom_site_charge
Zn	Zn	0.77166 0.17991 0.64890 1.21500
N 	N 	0.77933 0.09145 0.67472 -0.19100
O 	O 	0.82903 0.23243 0.68440 -0.47000
O 	O 	0.83772 0.17308 0.61534 -0.46600
O 	O 	0.70313 0.21707 0.67372 -0.49400
O 	O 	0.71007 0.15567 0.60647 -0.47100
C 	C 	0.84119 0.08606 0.69233 -0.03700
C 	C 	0.76811 0.03724 0.64832 -0.04800
C 	C 	0.73494 0.08422 0.70324 -0.02000
C 	C 	0.83571 0.29160 0.68513 0.40600
C 	C 	0.84594 0.21560 0.59171 0.40100
C 	C 	0.67692 0.27070 0.67378 0.42500
C 	C 	0.68495 0.19700 0.58683 0.43700
N 	N 	0.85074 0.02425 0.71127 -0.19100
H 	H 	0.84850 0.12170 0.70990 0.03900
H 	H 	0.87090 0.09020 0.67390 0.04000
N 	N 	0.77732 0.97427 0.66705 -0.18400
H 	H 	0.72590 0.03990 0.63690 0.05600
H 	H 	0.79640 0.04090 0.62900 0.05000
N 	N 	0.74332 0.02231 0.72182 -0.08400
H 	H 	0.74110 0.11960 0.72110 0.04100
H 	H 	0.69280 0.08720 0.69180 0.04600
O 	O 	0.81786 0.32997 0.66041 -0.47400
C 	C 	0.86675 0.32052 0.71893 -0.12700
O 	O 	0.82151 0.26925 0.58949 -0.47200
C 	C 	0.88978 0.19789 0.56452 -0.13400
O 	O 	0.69055 0.31808 0.65588 -0.46300
C 	C 	0.62577 0.27720 0.69733 -0.15600
O 	O 	0.69482 0.25610 0.58880 -0.49400
C 	C 	0.63660 0.17490 0.55801 -0.16400
Zn	Zn	0.93903 0.01971 0.73461 1.21400
C 	C 	0.83990 0.97100 0.68482 -0.04300
C 	C 	0.80546 0.01793 0.73924 -0.02500
Zn	Zn	0.76524 0.89764 0.63057 1.24800
C 	C 	0.73320 0.97042 0.69608 -0.03000
Zn	Zn	0.75526 0.30814 0.61938 1.21400
C 	C 	0.90459 0.28360 0.74291 0.04500
C 	C 	0.85670 0.38500 0.72788 0.04600
C 	C 	0.92210 0.14070 0.56781 0.05400
C 	C 	0.89875 0.23710 0.53541 0.06000
C 	C 	0.61100 0.22620 0.71862 0.07600
C 	C 	0.59230 0.33150 0.69856 0.07700
C 	C 	0.62280 0.11430 0.55196 0.10000
C 	C 	0.60510 0.21990 0.53701 0.08000
O 	O 	0.98114 0.96157 0.70101 -0.45400
O 	O 	0.92894 0.94298 0.76716 -0.45200
O 	O 	0.92629 0.07798 0.77664 -0.46500
O 	O 	0.97399 0.09534 0.70871 -0.44900
H 	H 	0.86960 0.97390 0.66630 0.04100
H 	H 	0.84600 0.92920 0.69740 0.04300
H 	H 	0.81110 0.97600 0.75180 0.04700
H 	H 	0.81220 0.05250 0.75750 0.04600
O 	O 	0.79910 0.83730 0.66976 -0.22700
O 	O 	0.82500 0.86120 0.60137 -0.43700
O 	O 	0.70110 0.90650 0.59280 -0.22200
H 	H 	0.69090 0.97270 0.68470 0.06400
H 	H 	0.73830 0.92870 0.70890 0.05400
N 	N 	0.74146 0.39703 0.59549 -0.20200
H 	H 	0.91230 0.24000 0.73720 0.03300
C 	C 	0.93100 0.30950 0.77480 -0.10300
C 	C 	0.88090 0.41010 0.76027 -0.10500
H 	H 	0.83290 0.41170 0.71140 0.02900
H 	H 	0.91710 0.11290 0.58770 0.03700
C 	C 	0.96220 0.12350 0.54207 -0.11600
C 	C 	0.93817 0.22050 0.51014 -0.12600
H 	H 	0.87710 0.27660 0.53280 0.02600
H 	H 	0.63460 0.18790 0.71870 0.01900
C 	C 	0.56320 0.22980 0.73945 -0.12900
C 	C 	0.54300 0.33460 0.71903 -0.12900
H 	H 	0.60280 0.36810 0.68510 0.01900
H 	H 	0.64460 0.08200 0.56580 0.01900
C 	C 	0.57740 0.09620 0.52608 -0.15800
C 	C 	0.55810 0.20080 0.51128 -0.13900
H 	H 	0.61500 0.26420 0.53980 0.01800
C 	C 	0.03150 0.93310 0.70635 0.35700
C 	C 	0.79181 0.41076 0.57374 -0.03100
C 	C 	0.68370 0.40250 0.57184 -0.01200
C 	C 	0.74050 0.45030 0.62371 -0.01800
H 	H 	0.95760 0.28400 0.79040 0.07500
C 	C 	0.91870 0.37350 0.78422 0.04100
H 	H 	0.87160 0.45310 0.76640 0.07000
H 	H 	0.98360 0.08390 0.54440 0.07600
C 	C 	0.97090 0.16380 0.51326 0.06800
H 	H 	0.94300 0.24840 0.49030 0.08300
H 	H 	0.55440 0.19420 0.75420 0.07600
C 	C 	0.52750 0.28370 0.73957 0.05700
H 	H 	0.51940 0.37280 0.71890 0.07500
H 	H 	0.56890 0.05160 0.52330 0.08300
C 	C 	0.54570 0.13580 0.50542 0.08300
H 	H 	0.53470 0.23230 0.49780 0.07800
C 	C 	0.04540 0.88090 0.68040 -0.09300
N 	N 	0.78693 0.47422 0.55648 -0.20600
H 	H 	0.79310 0.37740 0.55480 0.02700
H 	H 	0.83050 0.40850 0.58930 0.03000
N 	N 	0.67660 0.46660 0.55503 -0.09700
H 	H 	0.68320 0.36940 0.55260 0.03900
H 	H 	0.64890 0.39410 0.58640 0.03800
N 	N 	0.73600 0.51210 0.60771 -0.09400
H 	H 	0.70540 0.44360 0.63830 0.04400
H 	H 	0.77820 0.44800 0.64020 0.04200
C 	C 	0.94579 0.40025 0.81942 0.05700
C 	C 	0.01480 0.14650 0.48673 0.02500
C 	C 	0.49490 0.11480 0.48010 0.02100
C 	C 	0.00200 0.86780 0.65122 0.00900
C 	C 	0.10100 0.84980 0.68302 0.02700
Zn	Zn	0.86371 0.48381 0.52824 1.21700
C 	C 	0.72860 0.47740 0.53388 -0.01100
C 	C 	0.78590 0.52330 0.58599 -0.01200
C 	C 	0.67950 0.51360 0.58370 0.00400
C 	C 	0.91210 0.43770 0.84116 -0.10300
C 	C 	0.00557 0.38650 0.83137 -0.11600
C 	C 	0.01930 0.08390 0.47377 -0.12000
C 	C 	0.05340 0.19240 0.47429 -0.09100
C 	C 	0.50470 0.07650 0.45120 -0.10600
C 	C 	0.43600 0.14120 0.48360 -0.16100
H 	H 	0.96530 0.89180 0.64770 0.05500
C 	C 	0.01510 0.81770 0.62756 -0.10100
C 	C 	0.11340 0.80330 0.65784 -0.08900
H 	H 	0.13080 0.86020 0.70210 0.04100
O 	O 	0.81815 0.55529 0.48767 -0.38200
O 	O 	0.91514 0.55306 0.50529 -0.53400
O 	O 	0.91832 0.46462 0.57191 -0.48700
O 	O 	0.84663 0.41110 0.49255 -0.44100
H 	H 	0.72460 0.52030 0.52220 0.04100
H 	H 	0.72850 0.44460 0.51450 0.03900
H 	H 	0.82470 0.52150 0.60150 0.03400
H 	H 	0.78210 0.56680 0.57520 0.02800
H 	H 	0.64470 0.50660 0.59850 0.04100
H 	H 	0.67490 0.55700 0.57280 0.04200
H 	H 	0.87110 0.44840 0.83320 0.06700
C 	C 	0.93698 0.46000 0.87441 0.03700
C 	C 	0.03112 0.40960 0.86435 0.02400
H 	H 	0.02950 0.36090 0.81680 0.07400
H 	H 	0.99330 0.05150 0.48190 0.07900
C 	C 	0.06080 0.06830 0.44945 0.04400
C 	C 	0.09590 0.17740 0.44972 0.02400
H 	H 	0.05090 0.23550 0.48270 0.06000
H 	H 	0.54450 0.06010 0.44910 0.06600
C 	C 	0.45980 0.06130 0.42560 0.04000
C 	C 	0.38860 0.12530 0.45750 0.14000
H 	H 	0.42900 0.16900 0.50320 0.08600
H 	H 	0.98510 0.80560 0.60890 0.08000
C 	C 	0.06960 0.78580 0.63060 0.03100
H 	H 	0.15230 0.78330 0.65930 0.06400
C 	C 	0.87050 0.57490 0.48419 0.34300
H 	H 	0.91270 0.48520 0.88900 0.03500
C 	C 	0.99689 0.44607 0.88673 -0.09300
H 	H 	0.07260 0.40040 0.87180 0.03800
H 	H 	0.06310 0.02510 0.44120 0.02700
C 	C 	0.09860 0.11320 0.43690 -0.10800
H 	H 	0.12240 0.20950 0.44170 0.03900
H 	H 	0.46970 0.03620 0.40540 0.03100
C 	C 	0.40370 0.07940 0.42730 -0.06100
H 	H 	0.34880 0.14240 0.45850 0.00200
C 	C 	0.08130 0.73600 0.60293 0.06600
C 	C 	0.88340 0.62350 0.45618 -0.11400
O 	O 	0.01108 0.48997 0.55527 -0.46600
O 	O 	0.05256 0.57997 0.50293 -0.49500
C 	C 	0.02398 0.46863 0.92267 0.36600
C 	C 	0.14280 0.09500 0.40958 0.36400
C 	C 	0.35250 0.06640 0.39890 0.46600
C 	C 	0.13740 0.72900 0.58894 -0.12600
C 	C 	0.03340 0.69730 0.58972 -0.15100
C 	C 	0.84110 0.63470 0.42737 0.04100
C 	C 	0.93860 0.65660 0.45837 0.03600
O 	O 	0.14595 0.04020 0.39922 -0.33900
O 	O 	0.36010 0.04040 0.37302 -0.33400
H 	H 	0.17070 0.75490 0.59810 0.07500
C 	C 	0.14530 0.68530 0.56219 0.06200
C 	C 	0.04110 0.65210 0.56328 0.06900
H 	H 	0.99470 0.70190 0.59900 0.09300
H 	H 	0.80300 0.61300 0.42570 0.03100
C 	C 	0.85460 0.67800 0.40083 -0.10500
C 	C 	0.95100 0.69930 0.43178 -0.10100
H 	H 	0.96780 0.64940 0.47830 0.03700
H 	H 	0.18380 0.68150 0.55260 0.02500
C 	C 	0.09710 0.64640 0.54898 -0.14000
H 	H 	0.00820 0.62490 0.55490 0.01400
H 	H 	0.82510 0.68590 0.38110 0.06700
C 	C 	0.90860 0.70950 0.40210 0.05000
H 	H 	0.98860 0.72200 0.43350 0.07600
C 	C 	0.10180 0.60090 0.51831 0.37500
C 	C 	0.92418 0.75580 0.37328 0.03900
C 	C 	0.87840 0.78970 0.35276 -0.10400
C 	C 	0.98459 0.76670 0.36660 -0.09100
H 	H 	0.83680 0.78260 0.35660 0.06700
C 	C 	0.89374 0.83370 0.32691 0.04900
C 	C 	0.99922 0.81020 0.34104 0.06300
H 	H 	0.01610 0.74360 0.38000 0.05800
H 	H 	0.86250 0.85660 0.31320 0.03000
C 	C 	0.95404 0.84460 0.32090 -0.13400
H 	H 	0.04080 0.81710 0.33700 0.02300
C 	C 	0.96994 0.89393 0.29449 0.40200
C 	C 	0.49480 0.12480 0.47790 -0.00600
C 	C 	0.44940 0.08140 0.48480 0.06800
H 	H 	0.45350 0.05760 0.50680 0.00300
C 	C 	0.39780 0.07150 0.46080 -0.13600
H 	H 	0.36640 0.04380 0.46760 0.08300
C 	C 	0.39180 0.09890 0.42950 -0.03200
C 	C 	0.43430 0.14870 0.41870 -0.04500
H 	H 	0.42730 0.17260 0.39680 0.06900
C 	C 	0.48830 0.15850 0.44410 -0.02000
H 	H 	0.51920 0.18760 0.43810 0.03900
C 	C 	0.33710 0.09080 0.40410 -0.00600
O 	O 	0.29840 0.05400 0.40880 -0.22200
O 	O 	0.32260 0.13060 0.37650 -0.26100
O 	O 	0.73840 0.82620 0.66100 -0.20100
Zn	Zn	0.22834 0.17991 0.85110 1.21600
N 	N 	0.22067 0.09145 0.82528 -0.19000
O 	O 	0.17097 0.23243 0.81560 -0.46900
O 	O 	0.16228 0.17308 0.88466 -0.46400
O 	O 	0.29687 0.21707 0.82628 -0.49300
O 	O 	0.28993 0.15567 0.89353 -0.46900
C 	C 	0.15881 0.08606 0.80767 -0.03500
C 	C 	0.23189 0.03724 0.85168 -0.04700
C 	C 	0.26506 0.08422 0.79676 -0.01900
C 	C 	0.16429 0.29160 0.81487 0.40600
C 	C 	0.15406 0.21560 0.90829 0.39700
C 	C 	0.32308 0.27070 0.82622 0.42500
C 	C 	0.31505 0.19700 0.91317 0.43600
N 	N 	0.14926 0.02425 0.78873 -0.19100
H 	H 	0.15150 0.12170 0.79010 0.03900
H 	H 	0.12910 0.09020 0.82610 0.03900
N 	N 	0.22268 0.97427 0.83295 -0.18500
H 	H 	0.27410 0.03990 0.86310 0.05600
H 	H 	0.20360 0.04090 0.87100 0.04900
N 	N 	0.25668 0.02231 0.77818 -0.08400
H 	H 	0.25890 0.11960 0.77890 0.04000
H 	H 	0.30720 0.08720 0.80820 0.04600
O 	O 	0.18214 0.32997 0.83959 -0.47400
C 	C 	0.13325 0.32052 0.78107 -0.12900
O 	O 	0.17849 0.26925 0.91051 -0.47100
C 	C 	0.11022 0.19789 0.93548 -0.12400
O 	O 	0.30945 0.31808 0.84412 -0.46200
C 	C 	0.37423 0.27720 0.80267 -0.15600
O 	O 	0.30518 0.25610 0.91120 -0.49400
C 	C 	0.36340 0.17490 0.94199 -0.16100
Zn	Zn	0.06097 0.01971 0.76539 1.21200
C 	C 	0.16010 0.97100 0.81518 -0.04200
C 	C 	0.19454 0.01793 0.76076 -0.02400
Zn	Zn	0.23476 0.89764 0.86943 1.24800
C 	C 	0.26680 0.97042 0.80392 -0.03000
Zn	Zn	0.24473 0.30814 0.88062 1.21400
C 	C 	0.09541 0.28360 0.75709 0.04400
C 	C 	0.14330 0.38500 0.77212 0.04600
C 	C 	0.07790 0.14070 0.93219 0.03900
C 	C 	0.10125 0.23710 0.96459 0.04100
C 	C 	0.38900 0.22620 0.78138 0.07600
C 	C 	0.40770 0.33150 0.80144 0.07700
C 	C 	0.37720 0.11430 0.94804 0.09700
C 	C 	0.39490 0.21990 0.96299 0.07400
O 	O 	0.01886 0.96157 0.79899 -0.48200
O 	O 	0.07106 0.94298 0.73284 -0.44700
O 	O 	0.07371 0.07798 0.72336 -0.45900
O 	O 	0.02601 0.09534 0.79129 -0.47500
H 	H 	0.13040 0.97390 0.83370 0.04100
H 	H 	0.15400 0.92920 0.80260 0.04200
H 	H 	0.18890 0.97600 0.74820 0.04600
H 	H 	0.18780 0.05250 0.74250 0.04500
O 	O 	0.20090 0.83730 0.83024 -0.22900
O 	O 	0.17500 0.86120 0.89863 -0.43900
O 	O 	0.29890 0.90650 0.90720 -0.22200
H 	H 	0.30910 0.97270 0.81530 0.06400
H 	H 	0.26170 0.92870 0.79110 0.05300
N 	N 	0.25854 0.39703 0.90451 -0.20200
H 	H 	0.08770 0.24000 0.76280 0.03100
C 	C 	0.06900 0.30950 0.72520 -0.10700
C 	C 	0.11910 0.41010 0.73973 -0.10700
H 	H 	0.16710 0.41170 0.78860 0.02800
H 	H 	0.08290 0.11290 0.91230 0.04000
C 	C 	0.03780 0.12350 0.95793 -0.10100
C 	C 	0.06183 0.22050 0.98986 -0.10400
H 	H 	0.12290 0.27660 0.96720 0.03200
H 	H 	0.36540 0.18790 0.78130 0.01900
C 	C 	0.43680 0.22980 0.76055 -0.12900
C 	C 	0.45700 0.33460 0.78097 -0.12900
H 	H 	0.39720 0.36810 0.81490 0.01900
H 	H 	0.35540 0.08200 0.93420 0.02000
C 	C 	0.42260 0.09620 0.97392 -0.15600
C 	C 	0.44190 0.20080 0.98872 -0.12900
H 	H 	0.38500 0.26420 0.96020 0.02100
C 	C 	0.96850 0.93310 0.79365 0.39800
C 	C 	0.20819 0.41076 0.92626 -0.03000
C 	C 	0.31630 0.40250 0.92816 -0.01200
C 	C 	0.25950 0.45030 0.87629 -0.01800
H 	H 	0.04240 0.28400 0.70960 0.07100
C 	C 	0.08130 0.37350 0.71578 0.04100
H 	H 	0.12840 0.45310 0.73360 0.06900
H 	H 	0.01640 0.08390 0.95560 0.06400
C 	C 	0.02910 0.16380 0.98674 0.03700
H 	H 	0.05700 0.24840 0.00970 0.06700
H 	H 	0.44560 0.19420 0.74580 0.07600
C 	C 	0.47250 0.28370 0.76043 0.05700
H 	H 	0.48060 0.37280 0.78110 0.07500
H 	H 	0.43110 0.05160 0.97670 0.08300
C 	C 	0.45430 0.13580 0.99458 0.08100
H 	H 	0.46530 0.23230 0.00220 0.07200
C 	C 	0.95460 0.88090 0.81960 -0.11800
N 	N 	0.21307 0.47422 0.94352 -0.20600
H 	H 	0.20690 0.37740 0.94520 0.02700
H 	H 	0.16950 0.40850 0.91070 0.02800
N 	N 	0.32340 0.46660 0.94497 -0.09600
H 	H 	0.31680 0.36940 0.94740 0.04000
H 	H 	0.35110 0.39410 0.91360 0.03900
N 	N 	0.26400 0.51210 0.89229 -0.09400
H 	H 	0.29460 0.44360 0.86170 0.04300
H 	H 	0.22180 0.44800 0.85980 0.04100
C 	C 	0.05421 0.40025 0.68058 0.04400
C 	C 	0.98520 0.14650 0.01327 0.03500
C 	C 	0.50510 0.11480 0.01990 0.02100
C 	C 	0.99800 0.86780 0.84878 0.06000
C 	C 	0.89900 0.84980 0.81698 0.04800
Zn	Zn	0.13629 0.48381 0.97176 1.21700
C 	C 	0.27140 0.47740 0.96612 -0.01200
C 	C 	0.21410 0.52330 0.91401 -0.01100
C 	C 	0.32050 0.51360 0.91630 0.00400
C 	C 	0.08790 0.43770 0.65884 -0.12000
C 	C 	0.99443 0.38650 0.66863 -0.10800
C 	C 	0.98070 0.08390 0.02623 -0.06800
C 	C 	0.94660 0.19240 0.02571 -0.08800
C 	C 	0.49530 0.07650 0.04880 -0.10700
C 	C 	0.56400 0.14120 0.01640 -0.16700
H 	H 	0.03470 0.89180 0.85230 0.02400
C 	C 	0.98490 0.81770 0.87244 -0.08600
C 	C 	0.88660 0.80330 0.84216 -0.10500
H 	H 	0.86920 0.86020 0.79790 0.03500
O 	O 	0.18185 0.55529 0.01233 -0.38300
O 	O 	0.08486 0.55306 0.99471 -0.53600
O 	O 	0.08168 0.46462 0.92809 -0.47300
O 	O 	0.15337 0.41110 0.00745 -0.44700
H 	H 	0.27540 0.52030 0.97780 0.04200
H 	H 	0.27150 0.44460 0.98550 0.04000
H 	H 	0.17530 0.52150 0.89850 0.03100
H 	H 	0.21790 0.56680 0.92480 0.02700
H 	H 	0.35530 0.50660 0.90150 0.04100
H 	H 	0.32510 0.55700 0.92720 0.04200
H 	H 	0.12890 0.44840 0.66680 0.07200
C 	C 	0.06302 0.46000 0.62559 0.07200
C 	C 	0.96888 0.40960 0.63565 0.08200
H 	H 	0.97050 0.36090 0.68320 0.07800
H 	H 	0.00670 0.05150 0.01810 0.04200
C 	C 	0.93920 0.06830 0.05055 0.01800
C 	C 	0.90410 0.17740 0.05028 0.01800
H 	H 	0.94910 0.23550 0.01730 0.06500
H 	H 	0.45550 0.06010 0.05090 0.06500
C 	C 	0.54020 0.06130 0.07440 0.04100
C 	C 	0.61140 0.12530 0.04250 0.14200
H 	H 	0.57100 0.16900 0.99680 0.09000
H 	H 	0.01490 0.80560 0.89110 0.06000
C 	C 	0.93040 0.78580 0.86940 0.04800
H 	H 	0.84770 0.78330 0.84070 0.07000
C 	C 	0.12950 0.57490 0.01581 0.34000
H 	H 	0.08730 0.48520 0.61100 0.02100
C 	C 	0.00311 0.44607 0.61327 -0.17200
H 	H 	0.92740 0.40040 0.62820 0.02100
H 	H 	0.93690 0.02510 0.05880 0.04000
C 	C 	0.90140 0.11320 0.06310 -0.09500
H 	H 	0.87760 0.20950 0.05830 0.04200
H 	H 	0.53030 0.03620 0.09460 0.03000
C 	C 	0.59630 0.07940 0.07270 -0.06300
H 	H 	0.65120 0.14240 0.04150 0.00100
C 	C 	0.91870 0.73600 0.89707 0.03200
C 	C 	0.11660 0.62350 0.04382 -0.11300
O 	O 	0.98892 0.48997 0.94473 -0.42800
O 	O 	0.94744 0.57997 0.99707 -0.48100
C 	C 	0.97602 0.46863 0.57733 0.44100
C 	C 	0.85720 0.09500 0.09042 0.35900
C 	C 	0.64750 0.06640 0.10110 0.46600
C 	C 	0.86260 0.72900 0.91106 -0.09600
C 	C 	0.96660 0.69730 0.91028 -0.07000
C 	C 	0.15890 0.63470 0.07263 0.03800
C 	C 	0.06140 0.65660 0.04163 0.03300
O 	O 	0.85405 0.04020 0.10078 -0.33700
O 	O 	0.63990 0.04040 0.12698 -0.33400
H 	H 	0.82930 0.75490 0.90190 0.06600
C 	C 	0.85470 0.68530 0.93781 0.03500
C 	C 	0.95890 0.65210 0.93672 0.02200
H 	H 	0.00530 0.70190 0.90100 0.04800
H 	H 	0.19700 0.61300 0.07430 0.03200
C 	C 	0.14540 0.67800 0.09917 -0.10100
C 	C 	0.04900 0.69930 0.06822 -0.09900
H 	H 	0.03220 0.64940 0.02170 0.02800
H 	H 	0.81620 0.68150 0.94740 0.03500
C 	C 	0.90290 0.64640 0.95102 -0.11100
H 	H 	0.99180 0.62490 0.94510 0.03800
H 	H 	0.17490 0.68590 0.11890 0.06500
C 	C 	0.09140 0.70950 0.09790 0.04200
H 	H 	0.01140 0.72200 0.06650 0.06400
C 	C 	0.89820 0.60090 0.98169 0.36300
C 	C 	0.07582 0.75580 0.12672 0.04500
C 	C 	0.12160 0.78970 0.14724 -0.10300
C 	C 	0.01541 0.76670 0.13340 -0.11900
H 	H 	0.16320 0.78260 0.14340 0.06600
C 	C 	0.10626 0.83370 0.17309 0.03900
C 	C 	0.00078 0.81020 0.15896 0.02200
H 	H 	0.98390 0.74360 0.12000 0.08400
H 	H 	0.13750 0.85660 0.18680 0.03300
C 	C 	0.04596 0.84460 0.17910 -0.11400
H 	H 	0.95920 0.81710 0.16300 0.05000
C 	C 	0.03006 0.89393 0.20551 0.36400
C 	C 	0.50520 0.12480 0.02210 -0.00600
C 	C 	0.55060 0.08140 0.01520 0.06300
H 	H 	0.54650 0.05760 0.99320 0.00700
C 	C 	0.60220 0.07150 0.03920 -0.13400
H 	H 	0.63360 0.04380 0.03240 0.08200
C 	C 	0.60820 0.09890 0.07050 -0.03300
C 	C 	0.56570 0.14870 0.08130 -0.04500
H 	H 	0.57270 0.17260 0.10320 0.06800
C 	C 	0.51170 0.15850 0.05590 -0.02100
H 	H 	0.48080 0.18760 0.06190 0.03800
C 	C 	0.66290 0.09080 0.09590 -0.00500
O 	O 	0.70160 0.05400 0.09120 -0.22200
O 	O 	0.67740 0.13060 0.12350 -0.26100
O 	O 	0.26160 0.82620 0.83900 -0.20200
Zn	Zn	0.22834 0.82009 0.35110 1.21600
N 	N 	0.22067 0.90855 0.32528 -0.19000
O 	O 	0.17097 0.76757 0.31560 -0.46900
O 	O 	0.16228 0.82692 0.38466 -0.46500
O 	O 	0.29687 0.78293 0.32628 -0.49300
O 	O 	0.28993 0.84433 0.39353 -0.47000
C 	C 	0.15881 0.91394 0.30767 -0.03500
C 	C 	0.23189 0.96276 0.35168 -0.04700
C 	C 	0.26506 0.91578 0.29676 -0.01900
C 	C 	0.16429 0.70840 0.31487 0.40600
C 	C 	0.15406 0.78440 0.40829 0.39700
C 	C 	0.32308 0.72930 0.32622 0.42500
C 	C 	0.31505 0.80300 0.41317 0.43700
N 	N 	0.14926 0.97575 0.28873 -0.19100
H 	H 	0.15150 0.87830 0.29010 0.03900
H 	H 	0.12910 0.90980 0.32610 0.03900
N 	N 	0.22268 0.02573 0.33295 -0.18500
H 	H 	0.27410 0.96010 0.36310 0.05600
H 	H 	0.20360 0.95910 0.37100 0.04900
N 	N 	0.25668 0.97769 0.27818 -0.08400
H 	H 	0.25890 0.88040 0.27890 0.04000
H 	H 	0.30720 0.91280 0.30820 0.04600
O 	O 	0.18214 0.67003 0.33959 -0.47400
C 	C 	0.13325 0.67948 0.28107 -0.12900
O 	O 	0.17849 0.73075 0.41051 -0.47200
C 	C 	0.11022 0.80211 0.43548 -0.12600
O 	O 	0.30945 0.68192 0.34412 -0.46200
C 	C 	0.37423 0.72280 0.30267 -0.15600
O 	O 	0.30518 0.74390 0.41120 -0.49400
C 	C 	0.36340 0.82510 0.44199 -0.16400
Zn	Zn	0.06097 0.98029 0.26539 1.21200
C 	C 	0.16010 0.02900 0.31518 -0.04200
C 	C 	0.19454 0.98207 0.26076 -0.02400
Zn	Zn	0.23476 0.10236 0.36943 1.24800
C 	C 	0.26680 0.02958 0.30392 -0.03000
Zn	Zn	0.24473 0.69186 0.38062 1.21400
C 	C 	0.09541 0.71640 0.25709 0.04400
C 	C 	0.14330 0.61500 0.27212 0.04600
C 	C 	0.07790 0.85930 0.43219 0.03900
C 	C 	0.10125 0.76290 0.46459 0.04500
C 	C 	0.38900 0.77380 0.28138 0.07600
C 	C 	0.40770 0.66850 0.30144 0.07700
C 	C 	0.37720 0.88570 0.44804 0.10000
C 	C 	0.39490 0.78010 0.46299 0.08000
O 	O 	0.01886 0.03843 0.29899 -0.48200
O 	O 	0.07106 0.05702 0.23284 -0.44700
O 	O 	0.07371 0.92202 0.22336 -0.45900
O 	O 	0.02601 0.90466 0.29129 -0.47500
H 	H 	0.13040 0.02610 0.33370 0.04100
H 	H 	0.15400 0.07080 0.30260 0.04200
H 	H 	0.18890 0.02400 0.24820 0.04600
H 	H 	0.18780 0.94750 0.24250 0.04500
O 	O 	0.20090 0.16270 0.33024 -0.22900
O 	O 	0.17500 0.13880 0.39863 -0.43900
O 	O 	0.29890 0.09350 0.40720 -0.22200
H 	H 	0.30910 0.02730 0.31530 0.06400
H 	H 	0.26170 0.07130 0.29110 0.05300
N 	N 	0.25854 0.60297 0.40451 -0.20200
H 	H 	0.08770 0.76000 0.26280 0.03100
C 	C 	0.06900 0.69050 0.22520 -0.10700
C 	C 	0.11910 0.58990 0.23973 -0.10700
H 	H 	0.16710 0.58830 0.28860 0.02800
H 	H 	0.08290 0.88710 0.41230 0.03900
C 	C 	0.03780 0.87650 0.45793 -0.10100
C 	C 	0.06183 0.77950 0.48986 -0.11100
H 	H 	0.12290 0.72340 0.46720 0.03000
H 	H 	0.36540 0.81210 0.28130 0.01900
C 	C 	0.43680 0.77020 0.26055 -0.12900
C 	C 	0.45700 0.66540 0.28097 -0.12900
H 	H 	0.39720 0.63190 0.31490 0.01900
H 	H 	0.35540 0.91800 0.43420 0.01900
C 	C 	0.42260 0.90380 0.47392 -0.15800
C 	C 	0.44190 0.79920 0.48872 -0.13900
H 	H 	0.38500 0.73580 0.46020 0.01800
C 	C 	0.96850 0.06690 0.29365 0.39800
C 	C 	0.20819 0.58924 0.42626 -0.03000
C 	C 	0.31630 0.59750 0.42816 -0.01200
C 	C 	0.25950 0.54970 0.37629 -0.01800
H 	H 	0.04240 0.71600 0.20960 0.07100
C 	C 	0.08130 0.62650 0.21578 0.04100
H 	H 	0.12840 0.54690 0.23360 0.06900
H 	H 	0.01640 0.91610 0.45560 0.06300
C 	C 	0.02910 0.83620 0.48674 0.03500
H 	H 	0.05700 0.75160 0.50970 0.07200
H 	H 	0.44560 0.80580 0.24580 0.07600
C 	C 	0.47250 0.71630 0.26043 0.05700
H 	H 	0.48060 0.62720 0.28110 0.07500
H 	H 	0.43110 0.94840 0.47670 0.08300
C 	C 	0.45430 0.86420 0.49458 0.08300
H 	H 	0.46530 0.76770 0.50220 0.07800
C 	C 	0.95460 0.11910 0.31960 -0.11800
N 	N 	0.21307 0.52578 0.44352 -0.20700
H 	H 	0.20690 0.62260 0.44520 0.02700
H 	H 	0.16950 0.59150 0.41070 0.02800
N 	N 	0.32340 0.53340 0.44497 -0.09700
H 	H 	0.31680 0.63060 0.44740 0.03900
H 	H 	0.35110 0.60590 0.41360 0.03800
N 	N 	0.26400 0.48790 0.39229 -0.09400
H 	H 	0.29460 0.55640 0.36170 0.04300
H 	H 	0.22180 0.55200 0.35980 0.04100
C 	C 	0.05421 0.59975 0.18058 0.04400
C 	C 	0.98520 0.85350 0.51327 0.04000
C 	C 	0.50510 0.88520 0.51990 0.02100
C 	C 	0.99800 0.13220 0.34878 0.05900
C 	C 	0.89900 0.15020 0.31698 0.04800
Zn	Zn	0.13629 0.51619 0.47176 1.21600
C 	C 	0.27140 0.52260 0.46612 -0.01100
C 	C 	0.21410 0.47670 0.41401 -0.01100
C 	C 	0.32050 0.48640 0.41630 0.00400
C 	C 	0.08790 0.56230 0.15884 -0.12000
C 	C 	0.99443 0.61350 0.16863 -0.10800
C 	C 	0.98070 0.91610 0.52623 -0.07000
C 	C 	0.94660 0.80760 0.52571 -0.09100
C 	C 	0.49530 0.92350 0.54880 -0.10600
C 	C 	0.56400 0.85880 0.51640 -0.16100
H 	H 	0.03470 0.10820 0.35230 0.02500
C 	C 	0.98490 0.18230 0.37244 -0.08600
C 	C 	0.88660 0.19670 0.34216 -0.10500
H 	H 	0.86920 0.13980 0.29790 0.03500
O 	O 	0.18185 0.44471 0.51233 -0.38200
O 	O 	0.08486 0.44694 0.49471 -0.54000
O 	O 	0.08168 0.53538 0.42809 -0.47300
O 	O 	0.15337 0.58890 0.50745 -0.44400
H 	H 	0.27540 0.47970 0.47780 0.04000
H 	H 	0.27150 0.55540 0.48550 0.03900
H 	H 	0.17530 0.47850 0.39850 0.03100
H 	H 	0.21790 0.43320 0.42480 0.02700
H 	H 	0.35530 0.49340 0.40150 0.04100
H 	H 	0.32510 0.44300 0.42720 0.04100
H 	H 	0.12890 0.55160 0.16680 0.07200
C 	C 	0.06302 0.54000 0.12559 0.07200
C 	C 	0.96888 0.59040 0.13565 0.08100
H 	H 	0.97050 0.63910 0.18320 0.07800
H 	H 	0.00670 0.94850 0.51810 0.04400
C 	C 	0.93920 0.93170 0.55055 0.02000
C 	C 	0.90410 0.82260 0.55028 0.02000
H 	H 	0.94910 0.76450 0.51730 0.06700
H 	H 	0.45550 0.93990 0.55090 0.06600
C 	C 	0.54020 0.93870 0.57440 0.04000
C 	C 	0.61140 0.87470 0.54250 0.14000
H 	H 	0.57100 0.83100 0.49680 0.08600
H 	H 	0.01490 0.19440 0.39110 0.06000
C 	C 	0.93040 0.21420 0.36940 0.04800
H 	H 	0.84770 0.21670 0.34070 0.07000
C 	C 	0.12950 0.42510 0.51581 0.34400
H 	H 	0.08730 0.51480 0.11100 0.02100
C 	C 	0.00311 0.55393 0.11327 -0.17200
H 	H 	0.92740 0.59960 0.12820 0.02100
H 	H 	0.93690 0.97490 0.55880 0.03900
C 	C 	0.90140 0.88680 0.56310 -0.09600
H 	H 	0.87760 0.79050 0.55830 0.04200
H 	H 	0.53030 0.96380 0.59460 0.03100
C 	C 	0.59630 0.92060 0.57270 -0.06100
H 	H 	0.65120 0.85760 0.54150 0.00200
C 	C 	0.91870 0.26400 0.39707 0.03200
C 	C 	0.11660 0.37650 0.54382 -0.11400
O 	O 	0.98892 0.51003 0.44473 -0.42900
O 	O 	0.94744 0.42003 0.49707 -0.48300
C 	C 	0.97602 0.53137 0.07733 0.44100
C 	C 	0.85720 0.90500 0.59042 0.36000
C 	C 	0.64750 0.93360 0.60110 0.46500
C 	C 	0.86260 0.27100 0.41106 -0.09700
C 	C 	0.96660 0.30270 0.41028 -0.07000
C 	C 	0.15890 0.36530 0.57263 0.03900
C 	C 	0.06140 0.34340 0.54163 0.03400
O 	O 	0.85405 0.95980 0.60078 -0.33700
O 	O 	0.63990 0.95960 0.62698 -0.33400
H 	H 	0.82930 0.24510 0.40190 0.06600
C 	C 	0.85470 0.31470 0.43781 0.03500
C 	C 	0.95890 0.34790 0.43672 0.02200
H 	H 	0.00530 0.29810 0.40100 0.04800
H 	H 	0.19700 0.38700 0.57430 0.03200
C 	C 	0.14540 0.32200 0.59917 -0.10100
C 	C 	0.04900 0.30070 0.56822 -0.09900
H 	H 	0.03220 0.35060 0.52170 0.02900
H 	H 	0.81620 0.31850 0.44740 0.03400
C 	C 	0.90290 0.35360 0.45102 -0.11200
H 	H 	0.99180 0.37510 0.44510 0.03800
H 	H 	0.17490 0.31410 0.61890 0.06500
C 	C 	0.09140 0.29050 0.59790 0.04200
H 	H 	0.01140 0.27800 0.56650 0.06500
C 	C 	0.89820 0.39910 0.48169 0.36400
C 	C 	0.07582 0.24420 0.62672 0.04500
C 	C 	0.12160 0.21030 0.64724 -0.10300
C 	C 	0.01541 0.23330 0.63340 -0.11900
H 	H 	0.16320 0.21740 0.64340 0.06600
C 	C 	0.10626 0.16630 0.67309 0.03900
C 	C 	0.00078 0.18980 0.65896 0.02200
H 	H 	0.98390 0.25640 0.62000 0.08400
H 	H 	0.13750 0.14340 0.68680 0.03300
C 	C 	0.04596 0.15540 0.67910 -0.11400
H 	H 	0.95920 0.18290 0.66300 0.05000
C 	C 	0.03006 0.10607 0.70551 0.36400
C 	C 	0.50520 0.87520 0.52210 -0.00600
C 	C 	0.55060 0.91860 0.51520 0.06800
H 	H 	0.54650 0.94240 0.49320 0.00300
C 	C 	0.60220 0.92850 0.53920 -0.13600
H 	H 	0.63360 0.95620 0.53240 0.08300
C 	C 	0.60820 0.90110 0.57050 -0.03200
C 	C 	0.56570 0.85130 0.58130 -0.04500
H 	H 	0.57270 0.82740 0.60320 0.06900
C 	C 	0.51170 0.84150 0.55590 -0.02000
H 	H 	0.48080 0.81240 0.56190 0.03900
C 	C 	0.66290 0.90920 0.59590 -0.00600
O 	O 	0.70160 0.94600 0.59120 -0.22200
O 	O 	0.67740 0.86940 0.62350 -0.26100
O 	O 	0.26160 0.17380 0.33900 -0.20200
Zn	Zn	0.77166 0.82009 0.14890 1.21600
N 	N 	0.77933 0.90855 0.17472 -0.19000
O 	O 	0.82903 0.76757 0.18440 -0.46900
O 	O 	0.83772 0.82692 0.11534 -0.46500
O 	O 	0.70313 0.78293 0.17372 -0.49300
O 	O 	0.71007 0.84433 0.10647 -0.47000
C 	C 	0.84119 0.91394 0.19233 -0.03600
C 	C 	0.76811 0.96276 0.14832 -0.04700
C 	C 	0.73494 0.91578 0.20324 -0.01900
C 	C 	0.83571 0.70840 0.18513 0.40600
C 	C 	0.84594 0.78440 0.09171 0.40200
C 	C 	0.67692 0.72930 0.17378 0.42500
C 	C 	0.68495 0.80300 0.08683 0.43800
N 	N 	0.85074 0.97575 0.21127 -0.19100
H 	H 	0.84850 0.87830 0.20990 0.03900
H 	H 	0.87090 0.90980 0.17390 0.04000
N 	N 	0.77732 0.02573 0.16705 -0.18400
H 	H 	0.72590 0.96010 0.13690 0.05600
H 	H 	0.79640 0.95910 0.12900 0.04900
N 	N 	0.74332 0.97769 0.22182 -0.08400
H 	H 	0.74110 0.88040 0.22110 0.04100
H 	H 	0.69280 0.91280 0.19180 0.04600
O 	O 	0.81786 0.67003 0.16041 -0.47400
C 	C 	0.86675 0.67948 0.21893 -0.12700
O 	O 	0.82151 0.73075 0.08949 -0.47200
C 	C 	0.88978 0.80211 0.06452 -0.13600
O 	O 	0.69055 0.68192 0.15588 -0.46300
C 	C 	0.62577 0.72280 0.19733 -0.15600
O 	O 	0.69482 0.74390 0.08880 -0.49500
C 	C 	0.63660 0.82510 0.05801 -0.16800
Zn	Zn	0.93903 0.98029 0.23461 1.21400
C 	C 	0.83990 0.02900 0.18482 -0.04300
C 	C 	0.80546 0.98207 0.23924 -0.02500
Zn	Zn	0.76524 0.10236 0.13057 1.24800
C 	C 	0.73320 0.02958 0.19608 -0.03000
Zn	Zn	0.75526 0.69186 0.11938 1.21400
C 	C 	0.90459 0.71640 0.24291 0.04500
C 	C 	0.85670 0.61500 0.22788 0.04600
C 	C 	0.92210 0.85930 0.06781 0.05500
C 	C 	0.89875 0.76290 0.03541 0.06400
C 	C 	0.61100 0.77380 0.21862 0.07600
C 	C 	0.59230 0.66850 0.19856 0.07700
C 	C 	0.62280 0.88570 0.05196 0.10300
C 	C 	0.60510 0.78010 0.03701 0.08500
O 	O 	0.98114 0.03843 0.20101 -0.45400
O 	O 	0.92894 0.05702 0.26716 -0.45200
O 	O 	0.92629 0.92202 0.27664 -0.46500
O 	O 	0.97399 0.90466 0.20871 -0.44900
H 	H 	0.86960 0.02610 0.16630 0.04100
H 	H 	0.84600 0.07080 0.19740 0.04300
H 	H 	0.81110 0.02400 0.25180 0.04700
H 	H 	0.81220 0.94750 0.25750 0.04600
O 	O 	0.79910 0.16270 0.16976 -0.22700
O 	O 	0.82500 0.13880 0.10137 -0.43700
O 	O 	0.70110 0.09350 0.09280 -0.22300
H 	H 	0.69090 0.02730 0.18470 0.06400
H 	H 	0.73830 0.07130 0.20890 0.05400
N 	N 	0.74146 0.60297 0.09549 -0.20200
H 	H 	0.91230 0.76000 0.23720 0.03300
C 	C 	0.93100 0.69050 0.27480 -0.10300
C 	C 	0.88090 0.58990 0.26027 -0.10500
H 	H 	0.83290 0.58830 0.21140 0.02900
H 	H 	0.91710 0.88710 0.08770 0.03700
C 	C 	0.96220 0.87650 0.04207 -0.11600
C 	C 	0.93817 0.77950 0.01014 -0.13400
H 	H 	0.87710 0.72340 0.03280 0.02400
H 	H 	0.63460 0.81210 0.21870 0.01900
C 	C 	0.56320 0.77020 0.23945 -0.12900
C 	C 	0.54300 0.66540 0.21903 -0.12900
H 	H 	0.60280 0.63190 0.18510 0.01900
H 	H 	0.64460 0.91800 0.06580 0.01800
C 	C 	0.57740 0.90380 0.02608 -0.16100
C 	C 	0.55810 0.79920 0.01128 -0.15000
H 	H 	0.61500 0.73580 0.03980 0.01500
C 	C 	0.03150 0.06690 0.20635 0.35700
C 	C 	0.79181 0.58924 0.07374 -0.03100
C 	C 	0.68370 0.59750 0.07184 -0.01200
C 	C 	0.74050 0.54970 0.12371 -0.01800
H 	H 	0.95760 0.71600 0.29040 0.07500
C 	C 	0.91870 0.62650 0.28422 0.04100
H 	H 	0.87160 0.54690 0.26640 0.07000
H 	H 	0.98360 0.91610 0.04440 0.07500
C 	C 	0.97090 0.83620 0.01326 0.06600
H 	H 	0.94300 0.75160 0.99030 0.08800
H 	H 	0.55440 0.80580 0.25420 0.07600
C 	C 	0.52750 0.71630 0.23957 0.05700
H 	H 	0.51940 0.62720 0.21890 0.07500
H 	H 	0.56890 0.94840 0.02330 0.08300
C 	C 	0.54570 0.86420 0.00542 0.08500
H 	H 	0.53470 0.76770 0.99780 0.08500
C 	C 	0.04540 0.11910 0.18040 -0.09300
N 	N 	0.78693 0.52578 0.05648 -0.20700
H 	H 	0.79310 0.62260 0.05480 0.02700
H 	H 	0.83050 0.59150 0.08930 0.03000
N 	N 	0.67660 0.53340 0.05503 -0.09700
H 	H 	0.68320 0.63060 0.05260 0.03900
H 	H 	0.64890 0.60590 0.08640 0.03800
N 	N 	0.73600 0.48790 0.10771 -0.09400
H 	H 	0.70540 0.55640 0.13830 0.04400
H 	H 	0.77820 0.55200 0.14020 0.04200
C 	C 	0.94579 0.59975 0.31942 0.05700
C 	C 	0.01480 0.85350 0.98673 0.03100
C 	C 	0.49490 0.88520 0.98010 0.02100
C 	C 	0.00200 0.13220 0.15122 0.00900
C 	C 	0.10100 0.15020 0.18302 0.02700
Zn	Zn	0.86371 0.51619 0.02824 1.21600
C 	C 	0.72860 0.52260 0.03388 -0.01100
C 	C 	0.78590 0.47670 0.08599 -0.01200
C 	C 	0.67950 0.48640 0.08370 0.00400
C 	C 	0.91210 0.56230 0.34116 -0.10300
C 	C 	0.00557 0.61350 0.33137 -0.11600
C 	C 	0.01930 0.91610 0.97377 -0.12300
C 	C 	0.05340 0.80760 0.97429 -0.09300
C 	C 	0.50470 0.92350 0.95120 -0.10600
C 	C 	0.43600 0.85880 0.98360 -0.15700
H 	H 	0.96530 0.10820 0.14770 0.05500
C 	C 	0.01510 0.18230 0.12756 -0.10100
C 	C 	0.11340 0.19670 0.15784 -0.08900
H 	H 	0.13080 0.13980 0.20210 0.04100
O 	O 	0.81815 0.44471 0.98767 -0.38100
O 	O 	0.91514 0.44694 0.00529 -0.53800
O 	O 	0.91832 0.53538 0.07191 -0.48700
O 	O 	0.84663 0.58890 0.99255 -0.43800
H 	H 	0.72460 0.47970 0.02220 0.03900
H 	H 	0.72850 0.55540 0.01450 0.03700
H 	H 	0.82470 0.47850 0.10150 0.03400
H 	H 	0.78210 0.43320 0.07520 0.02800
H 	H 	0.64470 0.49340 0.09850 0.04000
H 	H 	0.67490 0.44300 0.07280 0.04100
H 	H 	0.87110 0.55160 0.33320 0.06700
C 	C 	0.93698 0.54000 0.37441 0.03700
C 	C 	0.03112 0.59040 0.36435 0.02400
H 	H 	0.02950 0.63910 0.31680 0.07400
H 	H 	0.99330 0.94850 0.98190 0.08100
C 	C 	0.06080 0.93170 0.94945 0.04700
C 	C 	0.09590 0.82260 0.94972 0.02600
H 	H 	0.05090 0.76450 0.98270 0.06300
H 	H 	0.54450 0.93990 0.94910 0.06700
C 	C 	0.45980 0.93870 0.92560 0.04000
C 	C 	0.38860 0.87470 0.95750 0.14000
H 	H 	0.42900 0.83100 0.00320 0.08100
H 	H 	0.98510 0.19440 0.10890 0.08000
C 	C 	0.06960 0.21420 0.13060 0.03100
H 	H 	0.15230 0.21670 0.15930 0.06300
C 	C 	0.87050 0.42510 0.98419 0.34800
H 	H 	0.91270 0.51480 0.38900 0.03500
C 	C 	0.99689 0.55393 0.38673 -0.09300
H 	H 	0.07260 0.59960 0.37180 0.03800
H 	H 	0.06310 0.97490 0.94120 0.02700
C 	C 	0.09860 0.88680 0.93690 -0.11000
H 	H 	0.12240 0.79050 0.94170 0.03900
H 	H 	0.46970 0.96380 0.90540 0.03100
C 	C 	0.40370 0.92060 0.92730 -0.06000
H 	H 	0.34880 0.85760 0.95850 0.00300
C 	C 	0.08130 0.26400 0.10293 0.06600
C 	C 	0.88340 0.37650 0.95618 -0.11400
O 	O 	0.01108 0.51003 0.05527 -0.46600
O 	O 	0.05256 0.42003 0.00293 -0.49700
C 	C 	0.02398 0.53137 0.42267 0.36600
C 	C 	0.14280 0.90500 0.90958 0.36500
C 	C 	0.35250 0.93360 0.89890 0.46500
C 	C 	0.13740 0.27100 0.08894 -0.12700
C 	C 	0.03340 0.30270 0.08972 -0.15100
C 	C 	0.84110 0.36530 0.92737 0.04200
C 	C 	0.93860 0.34340 0.95837 0.03700
O 	O 	0.14595 0.95980 0.89922 -0.33900
O 	O 	0.36010 0.95960 0.87302 -0.33300
H 	H 	0.17070 0.24510 0.09810 0.07400
C 	C 	0.14530 0.31470 0.06219 0.06200
C 	C 	0.04110 0.34790 0.06328 0.06900
H 	H 	0.99470 0.29810 0.09900 0.09300
H 	H 	0.80300 0.38700 0.92570 0.03100
C 	C 	0.85460 0.32200 0.90083 -0.10500
C 	C 	0.95100 0.30070 0.93178 -0.10100
H 	H 	0.96780 0.35060 0.97830 0.03800
H 	H 	0.18380 0.31850 0.05260 0.02400
C 	C 	0.09710 0.35360 0.04898 -0.14100
H 	H 	0.00820 0.37510 0.05490 0.01300
H 	H 	0.82510 0.31410 0.88110 0.06700
C 	C 	0.90860 0.29050 0.90210 0.05000
H 	H 	0.98860 0.27800 0.93350 0.07600
C 	C 	0.10180 0.39910 0.01831 0.37600
C 	C 	0.92418 0.24420 0.87328 0.03900
C 	C 	0.87840 0.21030 0.85276 -0.10400
C 	C 	0.98459 0.23330 0.86660 -0.09100
H 	H 	0.83680 0.21740 0.85660 0.06700
C 	C 	0.89374 0.16630 0.82691 0.04900
C 	C 	0.99922 0.18980 0.84104 0.06300
H 	H 	0.01610 0.25640 0.88000 0.05800
H 	H 	0.86250 0.14340 0.81320 0.03000
C 	C 	0.95404 0.15540 0.82090 -0.13400
H 	H 	0.04080 0.18290 0.83700 0.02300
C 	C 	0.96994 0.10607 0.79449 0.40200
C 	C 	0.49480 0.87520 0.97790 -0.00700
C 	C 	0.44940 0.91860 0.98480 0.07600
H 	H 	0.45350 0.94240 0.00680 -0.00300
C 	C 	0.39780 0.92850 0.96080 -0.14100
H 	H 	0.36640 0.95620 0.96760 0.08500
C 	C 	0.39180 0.90110 0.92950 -0.03100
C 	C 	0.43430 0.85130 0.91870 -0.04600
H 	H 	0.42730 0.82740 0.89680 0.06900
C 	C 	0.48830 0.84150 0.94410 -0.01900
H 	H 	0.51920 0.81240 0.93810 0.03900
C 	C 	0.33710 0.90920 0.90410 -0.00600
O 	O 	0.29840 0.94600 0.90880 -0.22200
O 	O 	0.32260 0.86940 0.87650 -0.26100
O 	O 	0.73840 0.17380 0.16100 -0.20100
Zn	Zn	0.00000 0.50000 0.50000 1.23900
Zn	Zn	-0.00000 0.50000 -0.00000 1.23800
