data_crystal

_cell_length_a 22.06110
_cell_length_b 22.06110
_cell_length_c 22.06110
_cell_angle_alpha 109.47100
_cell_angle_beta  109.47100
_cell_angle_gamma 109.47100

_symmetry_space_group_name_	'P 1'
_symmetry_space_group_name_H-M	'P 1'

loop_
_symmetry_equiv_pos_as_xyz
  x,y,z

loop_
_atom_site_label
_atom_site_type_symbol
_atom_site_fract_x
_atom_site_fract_y
_atom_site_fract_z
_atom_site_charge
Fe	Fe	0.40922 0.50000 0.90922 1.08600
Fe	Fe	0.59078 0.50000 0.09078 1.08400
Fe	Fe	0.90922 0.40922 0.50000 1.08500
Fe	Fe	0.09078 0.59078 0.50000 1.08500
Fe	Fe	0.50000 0.09078 0.59078 1.08500
Fe	Fe	0.50000 0.90922 0.40922 1.08500
Fe	Fe	0.50000 0.59078 0.09078 1.08400
Fe	Fe	0.50000 0.40922 0.90922 1.08600
Fe	Fe	0.59078 0.09078 0.50000 1.08500
Fe	Fe	0.40922 0.90922 0.50000 1.08500
Fe	Fe	0.90922 0.50000 0.40922 1.08500
Fe	Fe	0.09078 0.50000 0.59078 1.08500
H 	H 	0.43980 0.68740 0.88700 0.05100
H 	H 	0.47010 0.79990 0.88840 0.06600
H 	H 	0.80040 0.55280 0.11300 0.05100
H 	H 	0.91150 0.58170 0.11160 0.06600
H 	H 	0.19960 0.31260 0.75240 0.05100
H 	H 	0.08850 0.20010 0.67020 0.06700
H 	H 	0.56020 0.44720 0.24760 0.05100
H 	H 	0.52990 0.41830 0.32980 0.06600
H 	H 	0.75240 0.19960 0.31260 0.05100
H 	H 	0.67020 0.08850 0.20010 0.06600
H 	H 	0.24760 0.56020 0.44720 0.05100
H 	H 	0.32980 0.52990 0.41830 0.06600
H 	H 	0.88700 0.43980 0.68740 0.05200
H 	H 	0.88840 0.47010 0.79990 0.06600
H 	H 	0.11300 0.80040 0.55280 0.05000
H 	H 	0.11160 0.91150 0.58170 0.06800
H 	H 	0.55280 0.11300 0.80040 0.05200
H 	H 	0.58170 0.11160 0.91150 0.06800
H 	H 	0.68740 0.88700 0.43980 0.05100
H 	H 	0.79990 0.88840 0.47010 0.06600
H 	H 	0.44720 0.24760 0.56020 0.05100
H 	H 	0.41830 0.32980 0.52990 0.06600
H 	H 	0.31260 0.75240 0.19960 0.05100
H 	H 	0.20010 0.67020 0.08850 0.06500
H 	H 	0.31260 0.56020 0.11300 0.05100
H 	H 	0.20010 0.52990 0.11160 0.06600
H 	H 	0.44720 0.19960 0.88700 0.05000
H 	H 	0.41830 0.08850 0.88840 0.06500
H 	H 	0.68740 0.80040 0.24760 0.05100
H 	H 	0.79990 0.91150 0.32980 0.06700
H 	H 	0.55280 0.43980 0.75240 0.05100
H 	H 	0.58170 0.47010 0.67020 0.06700
H 	H 	0.80040 0.24760 0.68740 0.05200
H 	H 	0.91150 0.32980 0.79990 0.06600
H 	H 	0.43980 0.75240 0.55280 0.05100
H 	H 	0.47010 0.67020 0.58170 0.06700
H 	H 	0.56020 0.11300 0.31260 0.05000
H 	H 	0.52990 0.11160 0.20010 0.06800
H 	H 	0.19960 0.88700 0.44720 0.05100
H 	H 	0.08850 0.88840 0.41830 0.06700
H 	H 	0.88700 0.44720 0.19960 0.05100
H 	H 	0.88840 0.41830 0.08850 0.06500
H 	H 	0.11300 0.31260 0.56020 0.05100
H 	H 	0.11160 0.20010 0.52990 0.06700
H 	H 	0.75240 0.55280 0.43980 0.05100
H 	H 	0.67020 0.58170 0.47010 0.06700
H 	H 	0.24760 0.68740 0.80040 0.05200
H 	H 	0.32980 0.79990 0.91150 0.06800
H 	H 	0.56020 0.31260 0.11300 0.05100
H 	H 	0.52990 0.20010 0.11160 0.06600
H 	H 	0.19960 0.44720 0.88700 0.05000
H 	H 	0.08850 0.41830 0.88840 0.06500
H 	H 	0.80040 0.68740 0.24760 0.05100
H 	H 	0.91150 0.79990 0.32980 0.06600
H 	H 	0.43980 0.55280 0.75240 0.05100
H 	H 	0.47010 0.58170 0.67020 0.06700
H 	H 	0.24760 0.80040 0.68740 0.05200
H 	H 	0.32980 0.91150 0.79990 0.06600
H 	H 	0.75240 0.43980 0.55280 0.05100
H 	H 	0.67020 0.47010 0.58170 0.06700
H 	H 	0.11300 0.56020 0.31260 0.05100
H 	H 	0.11160 0.52990 0.20010 0.06600
H 	H 	0.88700 0.19960 0.44720 0.05100
H 	H 	0.88840 0.08850 0.41830 0.06700
H 	H 	0.44720 0.88700 0.19960 0.05000
H 	H 	0.41830 0.88840 0.08850 0.06700
H 	H 	0.31260 0.11300 0.56020 0.05100
H 	H 	0.20010 0.11160 0.52990 0.06700
H 	H 	0.55280 0.75240 0.43980 0.05100
H 	H 	0.58170 0.67020 0.47010 0.06700
H 	H 	0.68740 0.24760 0.80040 0.05200
H 	H 	0.79990 0.32980 0.91150 0.06800
H 	H 	0.68740 0.43980 0.88700 0.05000
H 	H 	0.79990 0.47010 0.88840 0.06500
H 	H 	0.55280 0.80040 0.11300 0.05100
H 	H 	0.58170 0.91150 0.11160 0.06600
H 	H 	0.31260 0.19960 0.75240 0.05100
H 	H 	0.20010 0.08850 0.67020 0.06700
H 	H 	0.44720 0.56020 0.24760 0.05100
H 	H 	0.41830 0.52990 0.32980 0.06600
H 	H 	0.19960 0.75240 0.31260 0.05100
H 	H 	0.08850 0.67020 0.20010 0.06700
H 	H 	0.56020 0.24760 0.44720 0.05100
H 	H 	0.52990 0.32980 0.41830 0.06600
H 	H 	0.43980 0.88700 0.68740 0.05200
H 	H 	0.47010 0.88840 0.79990 0.06600
H 	H 	0.80040 0.11300 0.55280 0.05100
H 	H 	0.91150 0.11160 0.58170 0.06700
H 	H 	0.11300 0.55280 0.80040 0.05200
H 	H 	0.11160 0.58170 0.91150 0.06800
H 	H 	0.88700 0.68740 0.43980 0.05000
H 	H 	0.88840 0.79990 0.47010 0.06800
H 	H 	0.24760 0.44720 0.56020 0.05100
H 	H 	0.32980 0.41830 0.52990 0.06600
H 	H 	0.75240 0.31260 0.19960 0.05100
H 	H 	0.67020 0.20010 0.08850 0.06500
C 	C 	0.47060 0.73290 0.93290 0.00800
C 	C 	0.48970 0.80030 0.93400 -0.05900
C 	C 	0.80000 0.53770 0.06710 0.00100
C 	C 	0.86630 0.55570 0.06600 -0.06700
C 	C 	0.20000 0.26710 0.73770 0.00200
C 	C 	0.13370 0.19970 0.68940 -0.06800
C 	C 	0.52940 0.46230 0.26230 0.00100
C 	C 	0.51030 0.44430 0.31060 -0.06800
C 	C 	0.73770 0.20000 0.26710 0.00100
C 	C 	0.68940 0.13370 0.19970 -0.06800
C 	C 	0.26230 0.52940 0.46230 0.00100
C 	C 	0.31060 0.51030 0.44430 -0.06800
C 	C 	0.93290 0.47060 0.73290 0.00000
C 	C 	0.93400 0.48970 0.80030 -0.06600
C 	C 	0.06710 0.80000 0.53770 0.00500
C 	C 	0.06600 0.86630 0.55570 -0.07100
C 	C 	0.53770 0.06710 0.80000 -0.00000
C 	C 	0.55570 0.06600 0.86630 -0.06500
C 	C 	0.73290 0.93290 0.47060 0.00200
C 	C 	0.80030 0.93400 0.48970 -0.06700
C 	C 	0.46230 0.26230 0.52940 0.00100
C 	C 	0.44430 0.31060 0.51030 -0.06800
C 	C 	0.26710 0.73770 0.20000 0.00100
C 	C 	0.19970 0.68940 0.13370 -0.06700
C 	C 	0.26710 0.52940 0.06710 0.00100
C 	C 	0.19970 0.51030 0.06600 -0.06700
C 	C 	0.46230 0.20000 0.93290 0.00900
C 	C 	0.44430 0.13370 0.93400 -0.05900
C 	C 	0.73290 0.80000 0.26230 0.00100
C 	C 	0.80030 0.86630 0.31060 -0.06800
C 	C 	0.53770 0.47060 0.73770 0.00100
C 	C 	0.55570 0.48970 0.68940 -0.06700
C 	C 	0.80000 0.26230 0.73290 0.00000
C 	C 	0.86630 0.31060 0.80030 -0.06600
C 	C 	0.47060 0.73770 0.53770 0.00100
C 	C 	0.48970 0.68940 0.55570 -0.06800
C 	C 	0.52940 0.06710 0.26710 0.00400
C 	C 	0.51030 0.06600 0.19970 -0.07200
C 	C 	0.20000 0.93290 0.46230 0.00300
C 	C 	0.13370 0.93400 0.44430 -0.06800
C 	C 	0.93290 0.46230 0.20000 0.00000
C 	C 	0.93400 0.44430 0.13370 -0.06800
C 	C 	0.06710 0.26710 0.52940 0.00100
C 	C 	0.06600 0.19970 0.51030 -0.06800
C 	C 	0.73770 0.53770 0.47060 0.00100
C 	C 	0.68940 0.55570 0.48970 -0.06800
C 	C 	0.26230 0.73290 0.80000 0.00000
C 	C 	0.31060 0.80030 0.86630 -0.06500
C 	C 	0.52940 0.26710 0.06710 0.00100
C 	C 	0.51030 0.19970 0.06600 -0.06700
C 	C 	0.20000 0.46230 0.93290 0.00800
C 	C 	0.13370 0.44430 0.93400 -0.05900
C 	C 	0.80000 0.73290 0.26230 0.00100
C 	C 	0.86630 0.80030 0.31060 -0.06800
C 	C 	0.47060 0.53770 0.73770 0.00100
C 	C 	0.48970 0.55570 0.68940 -0.06700
C 	C 	0.26230 0.80000 0.73290 0.00000
C 	C 	0.31060 0.86630 0.80030 -0.06600
C 	C 	0.73770 0.47060 0.53770 0.00100
C 	C 	0.68940 0.48970 0.55570 -0.06800
C 	C 	0.06710 0.52940 0.26710 0.00100
C 	C 	0.06600 0.51030 0.19970 -0.06800
C 	C 	0.93290 0.20000 0.46230 0.00100
C 	C 	0.93400 0.13370 0.44430 -0.06900
C 	C 	0.46230 0.93290 0.20000 0.00400
C 	C 	0.44430 0.93400 0.13370 -0.07100
C 	C 	0.26710 0.06710 0.52940 0.00300
C 	C 	0.19970 0.06600 0.51030 -0.06900
C 	C 	0.53770 0.73770 0.47060 0.00100
C 	C 	0.55570 0.68940 0.48970 -0.06800
C 	C 	0.73290 0.26230 0.80000 0.00000
C 	C 	0.80030 0.31060 0.86630 -0.06600
C 	C 	0.73290 0.47060 0.93290 0.00900
C 	C 	0.80030 0.48970 0.93400 -0.05900
C 	C 	0.53770 0.80000 0.06710 0.00100
C 	C 	0.55570 0.86630 0.06600 -0.06700
C 	C 	0.26710 0.20000 0.73770 0.00100
C 	C 	0.19970 0.13370 0.68940 -0.06800
C 	C 	0.46230 0.52940 0.26230 0.00100
C 	C 	0.44430 0.51030 0.31060 -0.06800
C 	C 	0.20000 0.73770 0.26710 0.00100
C 	C 	0.13370 0.68940 0.19970 -0.06800
C 	C 	0.52940 0.26230 0.46230 0.00100
C 	C 	0.51030 0.31060 0.44430 -0.06800
C 	C 	0.47060 0.93290 0.73290 0.00000
C 	C 	0.48970 0.93400 0.80030 -0.06400
C 	C 	0.80000 0.06710 0.53770 0.00100
C 	C 	0.86630 0.06600 0.55570 -0.06800
C 	C 	0.06710 0.53770 0.80000 0.00100
C 	C 	0.06600 0.55570 0.86630 -0.06500
C 	C 	0.93290 0.73290 0.47060 0.00500
C 	C 	0.93400 0.80030 0.48970 -0.07200
C 	C 	0.26230 0.46230 0.52940 0.00100
C 	C 	0.31060 0.44430 0.51030 -0.06800
C 	C 	0.73770 0.26710 0.20000 0.00100
C 	C 	0.68940 0.19970 0.13370 -0.06800
C 	C 	0.47670 0.66930 -0.00000 0.20800
C 	C 	0.49710 0.73270 -0.00000 -0.08000
C 	C 	0.53669 0.86831 -0.00000 0.00900
C 	C 	0.55710 0.93550 -0.00000 0.09800
C 	C 	0.66930 0.47670 -0.00000 0.20800
C 	C 	0.73270 0.49710 -0.00000 -0.08000
C 	C 	0.86831 0.53669 -0.00000 0.00900
C 	C 	0.93550 0.55710 -0.00000 0.09600
C 	C 	0.33070 0.33070 0.80740 0.21400
C 	C 	0.26730 0.26730 0.76440 -0.07300
C 	C 	0.13169 0.13169 0.66838 0.01700
C 	C 	0.06450 0.06450 0.62160 0.10100
C 	C 	0.52330 0.52330 0.19260 0.21300
C 	C 	0.50290 0.50290 0.23560 -0.07300
C 	C 	0.46331 0.46331 0.33162 0.01700
C 	C 	0.44290 0.44290 0.37840 0.10100
C 	C 	0.80740 0.33070 0.33070 0.21300
C 	C 	0.76440 0.26730 0.26730 -0.07300
C 	C 	0.66838 0.13169 0.13169 0.01600
C 	C 	0.62160 0.06450 0.06450 0.10000
C 	C 	0.19260 0.52330 0.52330 0.21400
C 	C 	0.23560 0.50290 0.50290 -0.07300
C 	C 	0.33162 0.46331 0.46331 0.01700
C 	C 	0.37840 0.44290 0.44290 0.10100
C 	C 	1.00000 0.47670 0.66930 0.21300
C 	C 	1.00000 0.49710 0.73270 -0.07300
C 	C 	1.00000 0.53669 0.86831 0.01400
C 	C 	1.00000 0.55710 0.93550 0.10900
C 	C 	-0.00000 0.66930 0.47670 0.21600
C 	C 	1.00000 0.73270 0.49710 -0.07700
C 	C 	0.00000 0.86831 0.53669 0.02100
C 	C 	1.00000 0.93550 0.55710 0.09900
C 	C 	0.47670 -0.00000 0.66930 0.21300
C 	C 	0.49710 0.00000 0.73270 -0.07200
C 	C 	0.53669 -0.00000 0.86831 0.01300
C 	C 	0.55710 1.00000 0.93550 0.11100
C 	C 	0.66930 -0.00000 0.47670 0.21300
C 	C 	0.73270 -0.00000 0.49710 -0.07400
C 	C 	0.86831 0.00000 0.53669 0.01600
C 	C 	0.93550 -0.00000 0.55710 0.10100
C 	C 	0.52330 0.19260 0.52330 0.21300
C 	C 	0.50290 0.23560 0.50290 -0.07300
C 	C 	0.46331 0.33162 0.46331 0.01700
C 	C 	0.44290 0.37840 0.44290 0.10100
C 	C 	0.33070 0.80740 0.33070 0.21300
C 	C 	0.26730 0.76440 0.26730 -0.07300
C 	C 	0.13169 0.66838 0.13169 0.01600
C 	C 	0.06450 0.62160 0.06450 0.10000
C 	C 	0.33070 0.52330 -0.00000 0.20800
C 	C 	0.26730 0.50290 -0.00000 -0.08000
C 	C 	0.13169 0.46331 -0.00000 0.00800
C 	C 	0.06450 0.44290 -0.00000 0.09800
C 	C 	0.52330 0.33070 -0.00000 0.20800
C 	C 	0.50290 0.26730 -0.00000 -0.08000
C 	C 	0.46331 0.13169 -0.00000 0.00800
C 	C 	0.44290 0.06450 -0.00000 0.09700
C 	C 	0.66930 0.66930 0.19260 0.21300
C 	C 	0.73270 0.73270 0.23560 -0.07300
C 	C 	0.86831 0.86831 0.33162 0.01700
C 	C 	0.93550 0.93550 0.37840 0.10100
C 	C 	0.47670 0.47670 0.80740 0.21400
C 	C 	0.49710 0.49710 0.76440 -0.07300
C 	C 	0.53669 0.53669 0.66838 0.01700
C 	C 	0.55710 0.55710 0.62160 0.10200
C 	C 	0.66930 0.19260 0.66930 0.21300
C 	C 	0.73270 0.23560 0.73270 -0.07200
C 	C 	0.86831 0.33162 0.86831 0.01500
C 	C 	0.93550 0.37840 0.93550 0.10900
C 	C 	0.47670 0.80740 0.47670 0.21400
C 	C 	0.49710 0.76440 0.49710 -0.07300
C 	C 	0.53669 0.66838 0.53669 0.01700
C 	C 	0.55710 0.62160 0.55710 0.10200
C 	C 	0.52330 -0.00000 0.33070 0.21400
C 	C 	0.50290 0.00000 0.26730 -0.07600
C 	C 	0.46331 1.00000 0.13169 0.02100
C 	C 	0.44290 0.00000 0.06450 0.09700
C 	C 	0.33070 1.00000 0.52330 0.21600
C 	C 	0.26730 0.00000 0.50290 -0.07600
C 	C 	0.13169 -0.00000 0.46331 0.01700
C 	C 	0.06450 -0.00000 0.44290 0.10100
C 	C 	-0.00000 0.52330 0.33070 0.21400
C 	C 	-0.00000 0.50290 0.26730 -0.07200
C 	C 	0.00000 0.46331 0.13169 0.01700
C 	C 	-0.00000 0.44290 0.06450 0.10100
C 	C 	-0.00000 0.33070 0.52330 0.21400
C 	C 	-0.00000 0.26730 0.50290 -0.07300
C 	C 	-0.00000 0.13169 0.46331 0.01800
C 	C 	1.00000 0.06450 0.44290 0.10000
C 	C 	0.80740 0.47670 0.47670 0.21400
C 	C 	0.76440 0.49710 0.49710 -0.07300
C 	C 	0.66838 0.53669 0.53669 0.01700
C 	C 	0.62160 0.55710 0.55710 0.10200
C 	C 	0.19260 0.66930 0.66930 0.21300
C 	C 	0.23560 0.73270 0.73270 -0.07200
C 	C 	0.33162 0.86831 0.86831 0.01500
C 	C 	0.37840 0.93550 0.93550 0.11000
N 	N 	0.60350 0.00000 0.06870 -0.13300
N 	N 	0.93130 0.53480 0.93130 -0.12900
N 	N 	0.06870 1.00000 0.60350 -0.13100
N 	N 	0.39650 0.46520 0.39650 -0.13300
N 	N 	0.60350 0.06870 -0.00000 -0.13800
N 	N 	0.39650 0.39650 0.46520 -0.13300
N 	N 	0.06870 0.60350 -0.00000 -0.13700
N 	N 	0.93130 0.93130 0.53480 -0.13200
N 	N 	0.53480 0.93130 0.93130 -0.13000
N 	N 	-0.00000 0.06870 0.60350 -0.13200
N 	N 	0.46520 0.39650 0.39650 -0.13300
N 	N 	-0.00000 0.60350 0.06870 -0.13200
N 	N 	1.00000 0.39650 0.93130 -0.13000
N 	N 	0.46520 0.06870 0.06870 -0.13200
N 	N 	-0.00000 0.93130 0.39650 -0.13200
N 	N 	0.53480 0.60350 0.60350 -0.13200
N 	N 	0.93130 0.39650 -0.00000 -0.13800
N 	N 	0.60350 0.60350 0.53480 -0.13200
N 	N 	0.39650 0.93130 -0.00000 -0.13700
N 	N 	0.06870 0.06870 0.46520 -0.13200
N 	N 	0.06870 0.46520 0.06870 -0.13300
N 	N 	0.93130 -0.00000 0.39650 -0.13300
N 	N 	0.60350 0.53480 0.60350 -0.13200
N 	N 	0.39650 -0.00000 0.93130 -0.13000
O 	O 	0.42730 0.60080 0.93170 -0.38000
O 	O 	0.66910 0.49560 0.06830 -0.38600
O 	O 	0.33090 0.39920 0.82650 -0.38500
O 	O 	0.57270 0.50440 0.17350 -0.38600
O 	O 	0.82650 0.33090 0.39920 -0.38500
O 	O 	0.17350 0.57270 0.50440 -0.38500
O 	O 	0.93170 0.42730 0.60080 -0.38500
O 	O 	0.06830 0.66910 0.49560 -0.38600
O 	O 	0.49560 0.06830 0.66910 -0.38500
O 	O 	0.60080 0.93170 0.42730 -0.38500
O 	O 	0.50440 0.17350 0.57270 -0.38500
O 	O 	0.39920 0.82650 0.33090 -0.38500
O 	O 	0.39920 0.57270 0.06830 -0.38600
O 	O 	0.50440 0.33090 0.93170 -0.38000
O 	O 	0.60080 0.66910 0.17350 -0.38600
O 	O 	0.49560 0.42730 0.82650 -0.38500
O 	O 	0.66910 0.17350 0.60080 -0.38500
O 	O 	0.42730 0.82650 0.49560 -0.38500
O 	O 	0.57270 0.06830 0.39920 -0.38600
O 	O 	0.33090 0.93170 0.50440 -0.38600
O 	O 	0.93170 0.50440 0.33090 -0.38600
O 	O 	0.06830 0.39920 0.57270 -0.38500
O 	O 	0.82650 0.49560 0.42730 -0.38500
O 	O 	0.17350 0.60080 0.66910 -0.38500
O 	O 	0.57270 0.39920 0.06830 -0.38600
O 	O 	0.33090 0.50440 0.93170 -0.38000
O 	O 	0.66910 0.60080 0.17350 -0.38600
O 	O 	0.42730 0.49560 0.82650 -0.38500
O 	O 	0.17350 0.66910 0.60080 -0.38500
O 	O 	0.82650 0.42730 0.49560 -0.38500
O 	O 	0.06830 0.57270 0.39920 -0.38500
O 	O 	0.93170 0.33090 0.50440 -0.38600
O 	O 	0.50440 0.93170 0.33090 -0.38500
O 	O 	0.39920 0.06830 0.57270 -0.38600
O 	O 	0.49560 0.82650 0.42730 -0.38500
O 	O 	0.60080 0.17350 0.66910 -0.38500
O 	O 	0.60080 0.42730 0.93170 -0.38000
O 	O 	0.49560 0.66910 0.06830 -0.38600
O 	O 	0.39920 0.33090 0.82650 -0.38500
O 	O 	0.50440 0.57270 0.17350 -0.38600
O 	O 	0.33090 0.82650 0.39920 -0.38500
O 	O 	0.57270 0.17350 0.50440 -0.38500
O 	O 	0.42730 0.93170 0.60080 -0.38500
O 	O 	0.66910 0.06830 0.49560 -0.38500
O 	O 	0.06830 0.49560 0.66910 -0.38500
O 	O 	0.93170 0.60080 0.42730 -0.38600
O 	O 	0.17350 0.50440 0.57270 -0.38500
O 	O 	0.82650 0.39920 0.33090 -0.38600
