data_crystal

_cell_length_a 7.66810
_cell_length_b 31.90900
_cell_length_c 15.42680
_cell_angle_alpha 90.00000
_cell_angle_beta  90.00000
_cell_angle_gamma 90.00000

_symmetry_space_group_name_	'P 1'
_symmetry_space_group_name_H-M	'P 1'

loop_
_symmetry_equiv_pos_as_xyz
  x,y,z

loop_
_atom_site_label
_atom_site_type_symbol
_atom_site_fract_x
_atom_site_fract_y
_atom_site_fract_z
_atom_site_charge
Cu	Cu	0.08571 0.06192 0.32611 0.76500
Cu	Cu	0.07830 0.03422 0.02995 0.76000
Cu	Cu	0.24911 0.22911 0.87333 0.89200
I 	I 	0.26207 0.02377 0.45058 -0.57200
I 	I 	0.25545 0.04787 0.17888 -0.56300
C 	C 	0.48340 0.16950 0.92960 0.30100
C 	C 	0.30550 0.14860 0.93550 -0.04800
C 	C 	0.28030 0.10810 0.96490 0.03100
H 	H 	0.37580 0.09240 0.98300 0.03200
C 	C 	0.98790 0.11420 0.93920 -0.01500
H 	H 	0.87630 0.10280 0.93880 0.02800
C 	C 	0.01250 0.15500 0.91020 0.02000
H 	H 	0.91700 0.17060 0.89160 0.03600
C 	C 	0.48670 0.20570 0.36090 0.30800
C 	C 	0.31070 0.18510 0.35990 -0.04200
C 	C 	0.28620 0.14200 0.35030 0.05200
H 	H 	0.38250 0.12440 0.34540 0.03100
C 	C 	0.99090 0.15240 0.35810 -0.00200
H 	H 	0.87810 0.14160 0.35840 0.03100
C 	C 	0.01390 0.19504 0.36790 0.01700
H 	H 	0.91730 0.21240 0.37440 0.04100
N 	N 	0.12090 0.09112 0.96770 -0.21900
N 	N 	0.17120 0.17226 0.90880 -0.19400
N 	N 	0.12610 0.12576 0.34810 -0.21800
N 	N 	0.17430 0.21159 0.36810 -0.18900
O 	O 	0.47890 0.20715 0.89930 -0.39000
O 	O 	0.61220 0.15115 0.95460 -0.25500
O 	O 	0.61890 0.18490 0.35550 -0.25800
O 	O 	0.48340 0.24600 0.36590 -0.38700
Cu	Cu	0.41429 0.43808 0.82611 0.76600
Cu	Cu	0.42170 0.46578 0.52995 0.76100
Cu	Cu	0.25089 0.27089 0.37333 0.89300
I 	I 	0.23793 0.47623 0.95058 -0.57200
I 	I 	0.24455 0.45213 0.67888 -0.56300
C 	C 	0.01660 0.33050 0.42960 0.30200
C 	C 	0.19450 0.35140 0.43550 -0.04700
C 	C 	0.21970 0.39190 0.46490 0.03200
H 	H 	0.12420 0.40760 0.48300 0.03300
C 	C 	0.51210 0.38580 0.43920 -0.01100
H 	H 	0.62370 0.39720 0.43880 0.02700
C 	C 	0.48750 0.34500 0.41020 0.01600
H 	H 	0.58300 0.32940 0.39160 0.03800
C 	C 	0.01330 0.29430 0.86090 0.30900
C 	C 	0.18930 0.31490 0.85990 -0.04300
C 	C 	0.21380 0.35800 0.85030 0.05200
H 	H 	0.11750 0.37560 0.84540 0.03100
C 	C 	0.50910 0.34760 0.85810 -0.00400
H 	H 	0.62190 0.35840 0.85840 0.03100
C 	C 	0.48610 0.30496 0.86790 0.01800
H 	H 	0.58270 0.28760 0.87440 0.04100
N 	N 	0.37910 0.40888 0.46770 -0.22000
N 	N 	0.32880 0.32774 0.40880 -0.19300
N 	N 	0.37390 0.37424 0.84810 -0.21800
N 	N 	0.32570 0.28841 0.86810 -0.18900
O 	O 	0.02110 0.29285 0.39930 -0.39000
O 	O 	0.88780 0.34885 0.45460 -0.25500
O 	O 	0.88110 0.31510 0.85550 -0.25900
O 	O 	0.01660 0.25400 0.86590 -0.38600
Cu	Cu	0.91429 0.06192 0.17389 0.76700
Cu	Cu	0.92170 0.03422 0.47005 0.76100
Cu	Cu	0.75089 0.22911 0.62667 0.89300
I 	I 	0.73793 0.02377 0.04942 -0.57100
I 	I 	0.74455 0.04787 0.32112 -0.56100
C 	C 	0.51660 0.16950 0.57040 0.30200
C 	C 	0.69450 0.14860 0.56450 -0.04700
C 	C 	0.71970 0.10810 0.53510 0.03300
H 	H 	0.62420 0.09240 0.51700 0.03300
C 	C 	0.01210 0.11420 0.56080 -0.01000
H 	H 	0.12370 0.10280 0.56120 0.02600
C 	C 	0.98750 0.15500 0.58980 0.01500
H 	H 	0.08300 0.17060 0.60840 0.03800
C 	C 	0.51330 0.20570 0.13910 0.30800
C 	C 	0.68930 0.18510 0.14010 -0.04200
C 	C 	0.71380 0.14200 0.14970 0.05200
H 	H 	0.61750 0.12440 0.15460 0.03100
C 	C 	0.00910 0.15240 0.14190 -0.00600
H 	H 	0.12190 0.14160 0.14160 0.03200
C 	C 	0.98610 0.19504 0.13210 0.02200
H 	H 	0.08270 0.21240 0.12560 0.03900
N 	N 	0.87910 0.09112 0.53230 -0.22000
N 	N 	0.82880 0.17226 0.59120 -0.19300
N 	N 	0.87390 0.12576 0.15190 -0.21700
N 	N 	0.82570 0.21159 0.13190 -0.19000
O 	O 	0.52110 0.20715 0.60070 -0.39000
O 	O 	0.38780 0.15115 0.54540 -0.25500
O 	O 	0.38110 0.18490 0.14450 -0.25800
O 	O 	0.51660 0.24600 0.13410 -0.38700
Cu	Cu	0.58571 0.43808 0.67389 0.76600
Cu	Cu	0.57830 0.46578 0.97005 0.76100
Cu	Cu	0.74911 0.27089 0.12667 0.89300
I 	I 	0.76207 0.47623 0.54942 -0.57300
I 	I 	0.75545 0.45213 0.82112 -0.56300
C 	C 	0.98340 0.33050 0.07040 0.30300
C 	C 	0.80550 0.35140 0.06450 -0.04800
C 	C 	0.78030 0.39190 0.03510 0.03300
H 	H 	0.87580 0.40760 0.01700 0.03300
C 	C 	0.48790 0.38580 0.06080 -0.01100
H 	H 	0.37630 0.39720 0.06120 0.02600
C 	C 	0.51250 0.34500 0.08980 0.01600
H 	H 	0.41700 0.32940 0.10840 0.03800
C 	C 	0.98670 0.29430 0.63910 0.30700
C 	C 	0.81070 0.31490 0.64010 -0.04200
C 	C 	0.78620 0.35800 0.64970 0.05200
H 	H 	0.88250 0.37560 0.65460 0.03000
C 	C 	0.49090 0.34760 0.64190 -0.00400
H 	H 	0.37810 0.35840 0.64160 0.03100
C 	C 	0.51390 0.30496 0.63210 0.01800
H 	H 	0.41730 0.28760 0.62560 0.04100
N 	N 	0.62090 0.40888 0.03230 -0.22000
N 	N 	0.67120 0.32774 0.09120 -0.19300
N 	N 	0.62610 0.37424 0.65190 -0.21800
N 	N 	0.67430 0.28841 0.63190 -0.18900
O 	O 	0.97890 0.29285 0.10070 -0.39000
O 	O 	0.11220 0.34885 0.04540 -0.25600
O 	O 	0.11890 0.31510 0.64450 -0.25800
O 	O 	0.98340 0.25400 0.63410 -0.38600
Cu	Cu	0.91429 0.93808 0.67389 0.76600
Cu	Cu	0.92170 0.96578 0.97005 0.76100
Cu	Cu	0.75089 0.77089 0.12667 0.89300
I 	I 	0.73793 0.97623 0.54942 -0.57100
I 	I 	0.74455 0.95213 0.82112 -0.56200
C 	C 	0.51660 0.83050 0.07040 0.30200
C 	C 	0.69450 0.85140 0.06450 -0.04700
C 	C 	0.71970 0.89190 0.03510 0.03200
H 	H 	0.62420 0.90760 0.01700 0.03300
C 	C 	0.01210 0.88580 0.06080 -0.01400
H 	H 	0.12370 0.89720 0.06120 0.02800
C 	C 	0.98750 0.84500 0.08980 0.02000
H 	H 	0.08300 0.82940 0.10840 0.03600
C 	C 	0.51330 0.79430 0.63910 0.30800
C 	C 	0.68930 0.81490 0.64010 -0.04200
C 	C 	0.71380 0.85800 0.64970 0.05200
H 	H 	0.61750 0.87560 0.65460 0.03100
C 	C 	0.00910 0.84760 0.64190 -0.00200
H 	H 	0.12190 0.85840 0.64160 0.03100
C 	C 	0.98610 0.80496 0.63210 0.01700
H 	H 	0.08270 0.78760 0.62560 0.04100
N 	N 	0.87910 0.90888 0.03230 -0.21900
N 	N 	0.82880 0.82774 0.09120 -0.19400
N 	N 	0.87390 0.87424 0.65190 -0.21800
N 	N 	0.82570 0.78841 0.63190 -0.18900
O 	O 	0.52110 0.79285 0.10070 -0.39000
O 	O 	0.38780 0.84885 0.04540 -0.25500
O 	O 	0.38110 0.81510 0.64450 -0.25800
O 	O 	0.51660 0.75400 0.63410 -0.38700
Cu	Cu	0.58571 0.56192 0.17389 0.76600
Cu	Cu	0.57830 0.53422 0.47005 0.76100
Cu	Cu	0.74911 0.72911 0.62667 0.89300
I 	I 	0.76207 0.52377 0.04942 -0.57200
I 	I 	0.75545 0.54787 0.32112 -0.56300
C 	C 	0.98340 0.66950 0.57040 0.30200
C 	C 	0.80550 0.64860 0.56450 -0.04700
C 	C 	0.78030 0.60810 0.53510 0.03200
H 	H 	0.87580 0.59240 0.51700 0.03300
C 	C 	0.48790 0.61420 0.56080 -0.01100
H 	H 	0.37630 0.60280 0.56120 0.02700
C 	C 	0.51250 0.65500 0.58980 0.01600
H 	H 	0.41700 0.67060 0.60840 0.03800
C 	C 	0.98670 0.70570 0.13910 0.30900
C 	C 	0.81070 0.68510 0.14010 -0.04300
C 	C 	0.78620 0.64200 0.14970 0.05200
H 	H 	0.88250 0.62440 0.15460 0.03100
C 	C 	0.49090 0.65240 0.14190 -0.00400
H 	H 	0.37810 0.64160 0.14160 0.03100
C 	C 	0.51390 0.69504 0.13210 0.01800
H 	H 	0.41730 0.71240 0.12560 0.04100
N 	N 	0.62090 0.59112 0.53230 -0.22000
N 	N 	0.67120 0.67226 0.59120 -0.19300
N 	N 	0.62610 0.62576 0.15190 -0.21800
N 	N 	0.67430 0.71159 0.13190 -0.18900
O 	O 	0.97890 0.70715 0.60070 -0.39000
O 	O 	0.11220 0.65115 0.54540 -0.25500
O 	O 	0.11890 0.68490 0.14450 -0.25900
O 	O 	0.98340 0.74600 0.13410 -0.38600
Cu	Cu	0.08571 0.93808 0.82611 0.76700
Cu	Cu	0.07830 0.96578 0.52995 0.76100
Cu	Cu	0.24911 0.77089 0.37333 0.89300
I 	I 	0.26207 0.97623 0.95058 -0.57100
I 	I 	0.25545 0.95213 0.67888 -0.56100
C 	C 	0.48340 0.83050 0.42960 0.30200
C 	C 	0.30550 0.85140 0.43550 -0.04700
C 	C 	0.28030 0.89190 0.46490 0.03300
H 	H 	0.37580 0.90760 0.48300 0.03300
C 	C 	0.98790 0.88580 0.43920 -0.01000
H 	H 	0.87630 0.89720 0.43880 0.02600
C 	C 	0.01250 0.84500 0.41020 0.01500
H 	H 	0.91700 0.82940 0.39160 0.03800
C 	C 	0.48670 0.79430 0.86090 0.30800
C 	C 	0.31070 0.81490 0.85990 -0.04200
C 	C 	0.28620 0.85800 0.85030 0.05200
H 	H 	0.38250 0.87560 0.84540 0.03100
C 	C 	0.99090 0.84760 0.85810 -0.00600
H 	H 	0.87810 0.85840 0.85840 0.03200
C 	C 	0.01390 0.80496 0.86790 0.02200
H 	H 	0.91730 0.78760 0.87440 0.03900
N 	N 	0.12090 0.90888 0.46770 -0.22000
N 	N 	0.17120 0.82774 0.40880 -0.19300
N 	N 	0.12610 0.87424 0.84810 -0.21700
N 	N 	0.17430 0.78841 0.86810 -0.19000
O 	O 	0.47890 0.79285 0.39930 -0.39000
O 	O 	0.61220 0.84885 0.45460 -0.25500
O 	O 	0.61890 0.81510 0.85550 -0.25800
O 	O 	0.48340 0.75400 0.86590 -0.38700
Cu	Cu	0.41429 0.56192 0.32611 0.76600
Cu	Cu	0.42170 0.53422 0.02995 0.76100
Cu	Cu	0.25089 0.72911 0.87333 0.89300
I 	I 	0.23793 0.52377 0.45058 -0.57300
I 	I 	0.24455 0.54787 0.17888 -0.56300
C 	C 	0.01660 0.66950 0.92960 0.30300
C 	C 	0.19450 0.64860 0.93550 -0.04800
C 	C 	0.21970 0.60810 0.96490 0.03300
H 	H 	0.12420 0.59240 0.98300 0.03300
C 	C 	0.51210 0.61420 0.93920 -0.01100
H 	H 	0.62370 0.60280 0.93880 0.02600
C 	C 	0.48750 0.65500 0.91020 0.01600
H 	H 	0.58300 0.67060 0.89160 0.03800
C 	C 	0.01330 0.70570 0.36090 0.30700
C 	C 	0.18930 0.68510 0.35990 -0.04200
C 	C 	0.21380 0.64200 0.35030 0.05200
H 	H 	0.11750 0.62440 0.34540 0.03000
C 	C 	0.50910 0.65240 0.35810 -0.00400
H 	H 	0.62190 0.64160 0.35840 0.03100
C 	C 	0.48610 0.69504 0.36790 0.01800
H 	H 	0.58270 0.71240 0.37440 0.04100
N 	N 	0.37910 0.59112 0.96770 -0.22000
N 	N 	0.32880 0.67226 0.90880 -0.19300
N 	N 	0.37390 0.62576 0.34810 -0.21800
N 	N 	0.32570 0.71159 0.36810 -0.18900
O 	O 	0.02110 0.70715 0.89930 -0.39000
O 	O 	0.88780 0.65115 0.95460 -0.25600
O 	O 	0.88110 0.68490 0.35550 -0.25800
O 	O 	0.01660 0.74600 0.36590 -0.38600
