data_crystal

_cell_length_a 27.01900
_cell_length_b 38.42700
_cell_length_c 38.73800
_cell_angle_alpha 90.00000
_cell_angle_beta  90.00000
_cell_angle_gamma 90.00000

_symmetry_space_group_name_	'P 1'
_symmetry_space_group_name_H-M	'P 1'

loop_
_symmetry_equiv_pos_as_xyz
  x,y,z

loop_
_atom_site_label
_atom_site_type_symbol
_atom_site_fract_x
_atom_site_fract_y
_atom_site_fract_z
_atom_site_charge
W 	W 	0.82488 0.56810 0.35524 0.98700
W 	W 	0.72723 0.51528 0.35717 1.00600
W 	W 	0.65749 0.59545 0.32578 0.99900
W 	W 	0.75496 0.64861 0.32468 0.99800
W 	W 	0.68785 0.72590 0.36110 1.36000
W 	W 	0.58793 0.67689 0.35011 1.00900
W 	W 	0.57684 0.59941 0.40347 0.99400
W 	W 	0.79523 0.68733 0.40600 1.04700
W 	W 	0.86219 0.60894 0.43827 1.02600
W 	W 	0.64578 0.51982 0.43208 1.35800
W 	W 	0.76216 0.46883 0.43916 1.00700
W 	W 	0.86711 0.51487 0.43160 1.05200
W 	W 	0.86678 0.51374 0.52991 1.02900
W 	W 	0.76210 0.46907 0.53726 1.00900
W 	W 	0.64611 0.51680 0.52878 1.01100
W 	W 	0.85988 0.61010 0.53499 1.03000
W 	W 	0.78934 0.68908 0.56274 1.31000
W 	W 	0.57795 0.59565 0.55938 1.31400
W 	W 	0.53394 0.64641 0.48320 1.07300
W 	W 	0.75047 0.73702 0.48331 1.05500
W 	W 	0.64392 0.77522 0.43990 0.99800
W 	W 	0.54336 0.72609 0.42978 1.24100
W 	W 	0.53762 0.73038 0.52662 1.00400
W 	W 	0.64644 0.77093 0.53609 0.97800
W 	W 	0.68549 0.71940 0.61479 0.96900
W 	W 	0.57601 0.67968 0.60633 1.01000
W 	W 	0.64424 0.60238 0.64112 1.02400
W 	W 	0.75533 0.63958 0.64126 0.98300
W 	W 	0.82493 0.55983 0.61039 0.99200
W 	W 	0.71419 0.52232 0.61169 1.03300
Co	Co	0.45828 0.54628 0.57617 1.06900
Co	Co	0.41130 0.76256 0.41929 1.13200
Co	Co	0.72281 0.80431 0.30688 1.07900
Co	Co	0.92176 0.67644 0.14097 0.99100
K 	K 	0.75830 0.64393 0.48481 0.80200
P 	P 	0.68490 0.64493 0.39720 0.55300
P 	P 	0.75920 0.55878 0.43110 0.56800
P 	P 	0.75590 0.55854 0.53640 0.54600
P 	P 	0.68090 0.64442 0.56920 0.58600
P 	P 	0.63620 0.69803 0.48300 0.55900
O 	O 	0.70760 0.62200 0.30010 -0.44800
O 	O 	0.69680 0.55680 0.33070 -0.43800
O 	O 	0.79130 0.60180 0.33240 -0.44200
O 	O 	0.78630 0.52970 0.33500 -0.44300
O 	O 	0.85440 0.52780 0.38860 -0.45100
O 	O 	0.75510 0.48490 0.38770 -0.44500
O 	O 	0.67060 0.52060 0.38610 -0.48700
O 	O 	0.76060 0.55830 0.39050 -0.35100
O 	O 	0.85060 0.59720 0.38980 -0.46400
O 	O 	0.79330 0.66250 0.36400 -0.47000
O 	O 	0.70320 0.62560 0.36470 -0.35400
O 	O 	0.61320 0.58710 0.36070 -0.46900
O 	O 	0.62110 0.64420 0.32570 -0.44900
O 	O 	0.71790 0.68850 0.32810 -0.44600
O 	O 	0.71090 0.75920 0.33510 -0.55300
O 	O 	0.62770 0.71580 0.33650 -0.46800
O 	O 	0.56560 0.64330 0.38270 -0.46500
O 	O 	0.65760 0.67880 0.38490 -0.37600
O 	O 	0.74480 0.71640 0.38590 -0.48900
O 	O 	0.73000 0.65510 0.41940 -0.28700
O 	O 	0.64950 0.62270 0.41950 -0.28600
O 	O 	0.60910 0.56050 0.42800 -0.50000
O 	O 	0.82690 0.65250 0.43230 -0.47200
O 	O 	0.78470 0.59070 0.44510 -0.29500
O 	O 	0.70540 0.55640 0.44320 -0.32100
O 	O 	0.60040 0.48910 0.42310 -0.61900
O 	O 	0.69710 0.48630 0.44170 -0.47300
O 	O 	0.78660 0.52460 0.44200 -0.35400
O 	O 	0.87810 0.56090 0.44430 -0.47600
O 	O 	0.83330 0.47030 0.42890 -0.44100
O 	O 	0.77100 0.46520 0.48590 -0.44300
O 	O 	0.86790 0.50630 0.48390 -0.43700
O 	O 	0.85750 0.61840 0.48490 -0.46900
O 	O 	0.63700 0.52240 0.48040 -0.49700
O 	O 	0.55540 0.61500 0.44720 -0.47700
O 	O 	0.77790 0.70730 0.44940 -0.47100
O 	O 	0.65920 0.75170 0.39340 -0.48100
O 	O 	0.56320 0.71080 0.38750 -0.44800
O 	O 	0.48490 0.74170 0.41590 -0.52000
O 	O 	0.57560 0.77180 0.42500 -0.44000
O 	O 	0.70930 0.75800 0.44920 -0.44800
O 	O 	0.61840 0.71960 0.44980 -0.36900
O 	O 	0.52750 0.68130 0.44950 -0.48700
O 	O 	0.61290 0.66230 0.48250 -0.30500
O 	O 	0.69420 0.69600 0.48340 -0.28800
O 	O 	0.77810 0.70690 0.51800 -0.48700
O 	O 	0.55840 0.61530 0.51600 -0.49300
O 	O 	0.52010 0.57550 0.56750 -0.60300
O 	O 	0.64730 0.62160 0.54680 -0.32300
O 	O 	0.72500 0.65650 0.54840 -0.31900
O 	O 	0.84140 0.71500 0.57220 -0.57100
O 	O 	0.82360 0.65260 0.53790 -0.47600
O 	O 	0.60630 0.56010 0.53340 -0.49400
O 	O 	0.70410 0.55660 0.52120 -0.29000
O 	O 	0.78160 0.59150 0.52310 -0.27500
O 	O 	0.87400 0.56200 0.52570 -0.46500
O 	O 	0.78510 0.52580 0.52440 -0.33600
O 	O 	0.69570 0.48400 0.52080 -0.44600
O 	O 	0.83160 0.47090 0.54150 -0.45400
O 	O 	0.85030 0.52770 0.57960 -0.44600
O 	O 	0.74790 0.48690 0.57880 -0.45300
O 	O 	0.66450 0.52020 0.57740 -0.46500
O 	O 	0.75370 0.55820 0.57760 -0.34800
O 	O 	0.84660 0.59610 0.57990 -0.46900
O 	O 	0.78820 0.66160 0.60410 -0.48600
O 	O 	0.69680 0.62490 0.60200 -0.36700
O 	O 	0.61070 0.58400 0.60320 -0.48500
O 	O 	0.56370 0.64020 0.57890 -0.47200
O 	O 	0.65170 0.67670 0.58030 -0.34900
O 	O 	0.74000 0.71730 0.58310 -0.47700
O 	O 	0.70930 0.75810 0.51630 -0.46500
O 	O 	0.61940 0.71840 0.51430 -0.34400
O 	O 	0.52560 0.68150 0.51660 -0.45800
O 	O 	0.53450 0.74120 0.48290 -0.47500
O 	O 	0.63400 0.78320 0.48560 -0.46100
O 	O 	0.57510 0.77040 0.54250 -0.45000
O 	O 	0.55720 0.71020 0.57370 -0.45300
O 	O 	0.65640 0.74940 0.57800 -0.45700
O 	O 	0.61780 0.71250 0.63080 -0.44800
O 	O 	0.61080 0.64220 0.63830 -0.46400
O 	O 	0.71370 0.68430 0.64150 -0.44800
O 	O 	0.69950 0.62130 0.66800 -0.44100
O 	O 	0.68820 0.55990 0.63470 -0.44600
O 	O 	0.78660 0.59710 0.63510 -0.43900
O 	O 	0.77750 0.52820 0.63230 -0.44400
N 	N 	0.34730 0.56940 0.39300 -0.30200
H 	H 	0.35710 0.55050 0.38730 0.13000
N 	N 	0.30990 0.58210 0.37420 -0.14200
N 	N 	0.34130 0.70660 0.44710 -0.22200
H 	H 	0.33050 0.72180 0.46150 0.08300
N 	N 	0.38210 0.71290 0.42660 -0.24400
N 	N 	0.44410 0.81180 0.40890 -0.24400
N 	N 	0.48790 0.81940 0.42780 -0.21600
H 	H 	0.49850 0.80840 0.44560 0.09700
C 	C 	0.51110 0.84850 0.41200 0.28400
C 	C 	0.48170 0.85880 0.38340 -0.20800
C 	C 	0.44030 0.83610 0.38150 0.30200
N 	N 	0.68750 0.74160 0.26610 -0.21000
H 	H 	0.70700 0.72970 0.27900 0.12500
N 	N 	0.67830 0.77670 0.26970 -0.22300
N 	N 	0.93500 0.55580 0.97820 -0.14500
N 	N 	0.89060 0.57030 0.97320 -0.21700
H 	H 	0.86920 0.56270 0.95860 0.13500
N 	N 	0.94000 0.64950 0.09590 -0.29200
N 	N 	0.97280 0.66290 0.07350 -0.22400
H 	H 	0.99100 0.68030 0.07920 0.05500
N 	N 	0.93410 0.73740 0.19190 -0.21400
H 	H 	0.96240 0.74160 0.18250 0.05800
N 	N 	0.90490 0.70680 0.18490 -0.30600
N 	N 	0.78460 0.77860 0.28440 -0.26000
N 	N 	0.81100 0.75740 0.30790 -0.25100
H 	H 	0.80540 0.75580 0.32970 0.11100
N 	N 	0.74930 0.82270 0.38040 -0.19300
H 	H 	0.72090 0.81410 0.38570 0.07200
N 	N 	0.76670 0.82370 0.34790 -0.24600
C 	C 	0.40660 0.58730 0.43250 -1.14600
H 	H 	0.41300 0.56280 0.43390 0.31100
H 	H 	0.39890 0.59610 0.45510 0.32700
H 	H 	0.43540 0.59900 0.42370 0.32000
C 	C 	0.36920 0.59290 0.41180 0.46300
C 	C 	0.34160 0.62650 0.40410 -0.18200
C 	C 	0.30570 0.61340 0.37960 0.17000
C 	C 	0.26800 0.64170 0.36470 -0.52300
H 	H 	0.24100 0.64480 0.38050 0.13400
H 	H 	0.25540 0.63400 0.34280 0.14300
H 	H 	0.28490 0.66350 0.36170 0.15100
C 	C 	0.27470 0.66730 0.46380 -0.64000
H 	H 	0.25770 0.68790 0.47130 0.18400
H 	H 	0.28390 0.65360 0.48350 0.18300
H 	H 	0.25320 0.65390 0.44910 0.17900
C 	C 	0.32110 0.67760 0.44370 0.22600
C 	C 	0.35100 0.65980 0.42040 -0.14700
C 	C 	0.38780 0.68140 0.41050 0.22800
C 	C 	0.42880 0.67310 0.38510 -0.70300
H 	H 	0.43640 0.69350 0.37180 0.22200
H 	H 	0.41820 0.65480 0.36990 0.21000
H 	H 	0.45770 0.66570 0.39750 0.21700
C 	C 	0.55640 0.86180 0.42750 -0.79600
H 	H 	0.54830 0.87970 0.44390 0.25000
H 	H 	0.57730 0.87120 0.40980 0.24600
H 	H 	0.57330 0.84320 0.43910 0.24100
C 	C 	0.39900 0.84050 0.35900 -0.83200
H 	H 	0.40700 0.83150 0.33660 0.25100
H 	H 	0.39120 0.86480 0.35720 0.25400
H 	H 	0.37100 0.82820 0.36810 0.25400
C 	C 	0.47280 0.93820 0.40920 -0.60400
H 	H 	0.44130 0.92890 0.41600 0.17900
H 	H 	0.47100 0.96320 0.40850 0.17600
H 	H 	0.49760 0.93130 0.42560 0.18800
C 	C 	0.50250 0.88700 0.33040 0.12600
C 	C 	0.48860 0.88920 0.36570 -0.06200
C 	C 	0.48610 0.92500 0.37480 0.16800
N 	N 	0.49840 0.94480 0.34510 -0.13100
N 	N 	0.50850 0.92140 0.31770 -0.18300
H 	H 	0.51690 0.92700 0.29700 0.09600
C 	C 	0.51000 0.85560 0.30270 -0.51800
H 	H 	0.53400 0.83930 0.31150 0.15300
H 	H 	0.52190 0.86500 0.28130 0.15200
H 	H 	0.47920 0.84390 0.29900 0.15400
C 	C 	0.52200 0.76050 0.21190 -0.90900
H 	H 	0.51820 0.73790 0.22200 0.26900
H 	H 	0.49220 0.76750 0.20080 0.27900
H 	H 	0.53060 0.77700 0.22960 0.26800
C 	C 	0.61310 0.75430 0.19020 -0.29800
C 	C 	0.63330 0.75170 0.15640 0.50900
N 	N 	0.59390 0.75510 0.13240 -0.29000
N 	N 	0.54940 0.75990 0.15130 -0.23200
H 	H 	0.52030 0.76260 0.14270 0.11900
C 	C 	0.56130 0.75940 0.18700 0.33400
C 	C 	0.68130 0.74930 0.15100 -1.28000
H 	H 	0.69750 0.76940 0.16040 0.37600
H 	H 	0.68760 0.74800 0.12670 0.38300
H 	H 	0.69390 0.72880 0.16210 0.37600
C 	C 	0.67270 0.69110 0.22870 -0.64100
H 	H 	0.70740 0.68830 0.22420 0.18500
H 	H 	0.65430 0.68600 0.20810 0.19100
H 	H 	0.66290 0.67540 0.24680 0.20500
C 	C 	0.66220 0.72890 0.24010 0.21300
C 	C 	0.63900 0.75160 0.22350 -0.08100
C 	C 	0.64710 0.78520 0.24220 0.12500
C 	C 	0.62780 0.82210 0.23870 -0.53100
H 	H 	0.64520 0.83700 0.25440 0.11700
H 	H 	0.59310 0.82250 0.24390 0.14900
H 	H 	0.63300 0.83010 0.21550 0.14400
C 	C 	0.01030 0.56400 0.01230 -0.62800
H 	H 	0.01920 0.54150 0.00330 0.18100
H 	H 	0.01430 0.56400 0.03690 0.18500
H 	H 	0.03130 0.58140 0.00230 0.18400
C 	C 	0.95840 0.57150 0.00360 0.19900
C 	C 	0.92870 0.59920 0.01520 -0.12500
C 	C 	0.88350 0.59740 0.99340 0.22600
C 	C 	0.83780 0.61820 0.99520 -0.66200
H 	H 	0.84320 0.64030 0.98430 0.18800
H 	H 	0.82890 0.62170 0.01890 0.19100
H 	H 	0.81160 0.60610 0.98350 0.18900
C 	C 	0.87620 0.60510 0.09000 -0.80200
H 	H 	0.88610 0.59420 0.11120 0.21100
H 	H 	0.86550 0.58770 0.07400 0.25600
H 	H 	0.84950 0.62100 0.09450 0.19800
C 	C 	0.91590 0.62330 0.07620 0.24300
C 	C 	0.93740 0.62490 0.03970 -0.15500
C 	C 	0.97630 0.64920 0.04360 0.25200
C 	C 	0.00740 0.66060 0.01470 -0.70700
H 	H 	0.02140 0.68300 0.01990 0.19900
H 	H 	0.98760 0.66220 0.99420 0.22300
H 	H 	0.03350 0.64410 0.01110 0.19700
C 	C 	0.82510 0.68830 0.20820 -0.72400
H 	H 	0.81550 0.68260 0.18500 0.17100
H 	H 	0.79900 0.70110 0.21920 0.21800
H 	H 	0.83120 0.66730 0.22090 0.19000
C 	C 	0.86930 0.70900 0.20750 0.23600
C 	C 	0.87670 0.73880 0.22890 -0.12000
C 	C 	0.91300 0.75780 0.21400 0.20100
C 	C 	0.93940 0.79190 0.22510 -0.60800
H 	H 	0.97010 0.78630 0.23630 0.16900
H 	H 	0.91860 0.80450 0.24080 0.18200
H 	H 	0.94580 0.80590 0.20510 0.17800
C 	C 	0.78010 0.79220 0.22420 -0.72000
H 	H 	0.74750 0.80040 0.23000 0.19000
H 	H 	0.77800 0.77640 0.20510 0.21700
H 	H 	0.80060 0.81160 0.21790 0.21900
C 	C 	0.80220 0.77390 0.25480 0.26600
C 	C 	0.84100 0.74790 0.25490 -0.24600
C 	C 	0.84790 0.73940 0.28970 0.44500
C 	C 	0.87650 0.71600 0.30460 -1.08500
H 	H 	0.90910 0.71710 0.29480 0.31000
H 	H 	0.86290 0.69320 0.30100 0.30400
H 	H 	0.87830 0.72070 0.32900 0.29900
C 	C 	0.84660 0.84200 0.32230 -0.65800
H 	H 	0.87040 0.82350 0.32290 0.19800
H 	H 	0.86340 0.86400 0.32270 0.19000
H 	H 	0.82720 0.84020 0.30160 0.17200
C 	C 	0.81370 0.83930 0.35280 0.20800
C 	C 	0.82230 0.84710 0.38620 -0.13700
C 	C 	0.78070 0.83650 0.40440 0.16700
C 	C 	0.76890 0.84130 0.44380 -0.55300
H 	H 	0.73570 0.84980 0.44640 0.15000
H 	H 	0.79170 0.85770 0.45360 0.16400
H 	H 	0.77210 0.81930 0.45540 0.15400
C 	C 	0.90110 0.81630 0.44680 -0.54800
H 	H 	0.91820 0.80010 0.43230 0.15200
H 	H 	0.86880 0.80730 0.45230 0.15700
H 	H 	0.91950 0.81970 0.46770 0.15800
C 	C 	0.87450 0.89950 0.39560 0.20600
N 	N 	0.91400 0.90900 0.41790 -0.24800
N 	N 	0.92710 0.87940 0.43770 -0.19400
H 	H 	0.95000 0.87840 0.45310 0.07900
C 	C 	0.89570 0.85150 0.42770 0.15900
C 	C 	0.86320 0.86400 0.40170 -0.11900
C 	C 	0.85300 0.92500 0.37230 -0.68400
H 	H 	0.85480 0.94770 0.38250 0.20100
H 	H 	0.81900 0.91910 0.36800 0.20100
H 	H 	0.87100 0.92490 0.35090 0.18100
O 	O 	0.68140 0.61050 0.48140 -0.48200
K 	K 	0.64970 0.59880 0.48200 0.81000
O 	O 	0.72800 0.62960 0.48640 -0.44700
W 	W 	0.67512 0.93190 0.85524 0.98800
W 	W 	0.77277 0.98472 0.85717 1.00800
W 	W 	0.84251 0.90455 0.82578 1.00000
W 	W 	0.74504 0.85139 0.82468 0.99900
W 	W 	0.81215 0.77410 0.86110 1.36100
W 	W 	0.91207 0.82311 0.85011 1.01000
W 	W 	0.92316 0.90059 0.90347 0.99500
W 	W 	0.70477 0.81267 0.90600 1.04800
W 	W 	0.63781 0.89106 0.93827 1.02700
W 	W 	0.85422 0.98018 0.93208 1.35900
W 	W 	0.73784 0.03117 0.93916 1.00800
W 	W 	0.63289 0.98513 0.93160 1.05300
W 	W 	0.63322 0.98626 0.02991 1.03000
W 	W 	0.73790 0.03093 0.03726 1.01000
W 	W 	0.85389 0.98320 0.02878 1.01200
W 	W 	0.64012 0.88990 0.03499 1.03100
W 	W 	0.71066 0.81092 0.06274 1.31100
W 	W 	0.92205 0.90435 0.05938 1.31500
W 	W 	0.96606 0.85359 0.98320 1.07400
W 	W 	0.74953 0.76298 0.98331 1.05600
W 	W 	0.85608 0.72478 0.93990 0.99900
W 	W 	0.95664 0.77391 0.92978 1.24200
W 	W 	0.96238 0.76962 0.02662 1.00500
W 	W 	0.85356 0.72907 0.03609 0.97900
W 	W 	0.81451 0.78060 0.11479 0.97000
W 	W 	0.92399 0.82032 0.10633 1.01100
W 	W 	0.85576 0.89762 0.14112 1.02500
W 	W 	0.74467 0.86042 0.14126 0.98400
W 	W 	0.67507 0.94017 0.11039 0.99300
W 	W 	0.78581 0.97768 0.11169 1.03400
Co	Co	0.04172 0.95372 0.07617 1.07000
Co	Co	0.08870 0.73744 0.91929 1.13300
Co	Co	0.77719 0.69569 0.80688 1.08000
Co	Co	0.57824 0.82356 0.64097 0.99200
K 	K 	0.74170 0.85607 0.98481 0.80200
P 	P 	0.81510 0.85507 0.89720 0.55300
P 	P 	0.74080 0.94122 0.93110 0.56800
P 	P 	0.74410 0.94146 0.03640 0.54600
P 	P 	0.81910 0.85558 0.06920 0.58600
P 	P 	0.86380 0.80197 0.98300 0.55900
O 	O 	0.79240 0.87800 0.80010 -0.44800
O 	O 	0.80320 0.94320 0.83070 -0.43800
O 	O 	0.70870 0.89820 0.83240 -0.44200
O 	O 	0.71370 0.97030 0.83500 -0.44300
O 	O 	0.64560 0.97220 0.88860 -0.45100
O 	O 	0.74490 0.01510 0.88770 -0.44500
O 	O 	0.82940 0.97940 0.88610 -0.48700
O 	O 	0.73940 0.94170 0.89050 -0.35100
O 	O 	0.64940 0.90280 0.88980 -0.46400
O 	O 	0.70670 0.83750 0.86400 -0.47000
O 	O 	0.79680 0.87440 0.86470 -0.35400
O 	O 	0.88680 0.91290 0.86070 -0.46900
O 	O 	0.87890 0.85580 0.82570 -0.44900
O 	O 	0.78210 0.81150 0.82810 -0.44600
O 	O 	0.78910 0.74080 0.83510 -0.55300
O 	O 	0.87230 0.78420 0.83650 -0.46800
O 	O 	0.93440 0.85670 0.88270 -0.46500
O 	O 	0.84240 0.82120 0.88490 -0.37600
O 	O 	0.75520 0.78360 0.88590 -0.48900
O 	O 	0.77000 0.84490 0.91940 -0.28700
O 	O 	0.85050 0.87730 0.91950 -0.28600
O 	O 	0.89090 0.93950 0.92800 -0.50000
O 	O 	0.67310 0.84750 0.93230 -0.47200
O 	O 	0.71530 0.90930 0.94510 -0.29600
O 	O 	0.79460 0.94360 0.94320 -0.32100
O 	O 	0.89960 0.01090 0.92310 -0.61900
O 	O 	0.80290 0.01370 0.94170 -0.47300
O 	O 	0.71340 0.97540 0.94200 -0.35400
O 	O 	0.62190 0.93910 0.94430 -0.47600
O 	O 	0.66670 0.02970 0.92890 -0.44100
O 	O 	0.72900 0.03480 0.98590 -0.44300
O 	O 	0.63210 0.99370 0.98390 -0.43700
O 	O 	0.64250 0.88160 0.98490 -0.46900
O 	O 	0.86300 0.97760 0.98040 -0.49700
O 	O 	0.94460 0.88500 0.94720 -0.47700
O 	O 	0.72210 0.79270 0.94940 -0.47100
O 	O 	0.84080 0.74830 0.89340 -0.48100
O 	O 	0.93680 0.78920 0.88750 -0.44800
O 	O 	0.01510 0.75830 0.91590 -0.52000
O 	O 	0.92440 0.72820 0.92500 -0.44000
O 	O 	0.79070 0.74200 0.94920 -0.44800
O 	O 	0.88160 0.78040 0.94980 -0.36900
O 	O 	0.97250 0.81870 0.94950 -0.48700
O 	O 	0.88710 0.83770 0.98250 -0.30500
O 	O 	0.80580 0.80400 0.98340 -0.28800
O 	O 	0.72190 0.79310 0.01800 -0.48700
O 	O 	0.94160 0.88470 0.01600 -0.49300
O 	O 	0.97990 0.92450 0.06750 -0.60300
O 	O 	0.85270 0.87840 0.04680 -0.32300
O 	O 	0.77500 0.84350 0.04840 -0.31900
O 	O 	0.65860 0.78500 0.07220 -0.57100
O 	O 	0.67640 0.84740 0.03790 -0.47600
O 	O 	0.89370 0.93990 0.03340 -0.49400
O 	O 	0.79590 0.94340 0.02120 -0.29000
O 	O 	0.71840 0.90850 0.02310 -0.27500
O 	O 	0.62600 0.93800 0.02570 -0.46500
O 	O 	0.71490 0.97420 0.02440 -0.33600
O 	O 	0.80430 0.01600 0.02080 -0.44600
O 	O 	0.66840 0.02910 0.04150 -0.45400
O 	O 	0.64970 0.97230 0.07960 -0.44600
O 	O 	0.75210 0.01310 0.07880 -0.45300
O 	O 	0.83550 0.97980 0.07740 -0.46500
O 	O 	0.74630 0.94180 0.07760 -0.34800
O 	O 	0.65340 0.90390 0.07990 -0.46900
O 	O 	0.71180 0.83840 0.10410 -0.48600
O 	O 	0.80320 0.87510 0.10200 -0.36700
O 	O 	0.88930 0.91600 0.10320 -0.48500
O 	O 	0.93630 0.85980 0.07890 -0.47200
O 	O 	0.84830 0.82330 0.08030 -0.34900
O 	O 	0.76000 0.78270 0.08310 -0.47700
O 	O 	0.79070 0.74190 0.01630 -0.46500
O 	O 	0.88060 0.78160 0.01430 -0.34400
O 	O 	0.97440 0.81850 0.01660 -0.45800
O 	O 	0.96550 0.75880 0.98290 -0.47500
O 	O 	0.86600 0.71680 0.98560 -0.46100
O 	O 	0.92490 0.72960 0.04250 -0.45000
O 	O 	0.94280 0.78980 0.07370 -0.45300
O 	O 	0.84360 0.75060 0.07800 -0.45700
O 	O 	0.88220 0.78750 0.13080 -0.44800
O 	O 	0.88920 0.85780 0.13830 -0.46400
O 	O 	0.78630 0.81570 0.14150 -0.44800
O 	O 	0.80050 0.87870 0.16800 -0.44100
O 	O 	0.81180 0.94010 0.13470 -0.44600
O 	O 	0.71340 0.90290 0.13510 -0.43900
O 	O 	0.72250 0.97180 0.13230 -0.44400
N 	N 	0.15270 0.93060 0.89300 -0.30200
H 	H 	0.14290 0.94950 0.88730 0.13000
N 	N 	0.19010 0.91790 0.87420 -0.14200
N 	N 	0.15870 0.79340 0.94710 -0.22200
H 	H 	0.16950 0.77820 0.96150 0.08300
N 	N 	0.11790 0.78710 0.92660 -0.24400
N 	N 	0.05590 0.68820 0.90890 -0.24400
N 	N 	0.01210 0.68060 0.92780 -0.21600
H 	H 	0.00150 0.69160 0.94560 0.09700
C 	C 	0.98890 0.65150 0.91200 0.28400
C 	C 	0.01830 0.64120 0.88340 -0.20800
C 	C 	0.05970 0.66390 0.88150 0.30200
N 	N 	0.81250 0.75840 0.76610 -0.21000
H 	H 	0.79300 0.77030 0.77900 0.12500
N 	N 	0.82170 0.72330 0.76970 -0.22300
N 	N 	0.56500 0.94420 0.47820 -0.14500
N 	N 	0.60940 0.92970 0.47320 -0.21700
H 	H 	0.63080 0.93730 0.45860 0.13500
N 	N 	0.56000 0.85050 0.59590 -0.29200
N 	N 	0.52720 0.83710 0.57350 -0.22400
H 	H 	0.50900 0.81970 0.57920 0.05500
N 	N 	0.56590 0.76260 0.69190 -0.21400
H 	H 	0.53760 0.75840 0.68250 0.05800
N 	N 	0.59510 0.79320 0.68490 -0.30600
N 	N 	0.71540 0.72140 0.78440 -0.26000
N 	N 	0.68900 0.74260 0.80790 -0.25100
H 	H 	0.69460 0.74420 0.82970 0.11100
N 	N 	0.75070 0.67730 0.88040 -0.19300
H 	H 	0.77910 0.68590 0.88570 0.07200
N 	N 	0.73330 0.67630 0.84790 -0.24600
C 	C 	0.09340 0.91270 0.93250 -1.14600
H 	H 	0.08700 0.93720 0.93390 0.31100
H 	H 	0.10110 0.90390 0.95510 0.32700
H 	H 	0.06460 0.90100 0.92370 0.32000
C 	C 	0.13080 0.90710 0.91180 0.46300
C 	C 	0.15840 0.87350 0.90410 -0.18200
C 	C 	0.19430 0.88660 0.87960 0.17000
C 	C 	0.23200 0.85830 0.86470 -0.52300
H 	H 	0.25900 0.85520 0.88050 0.13400
H 	H 	0.24460 0.86600 0.84280 0.14300
H 	H 	0.21510 0.83650 0.86170 0.15100
C 	C 	0.22530 0.83270 0.96380 -0.64000
H 	H 	0.24230 0.81210 0.97130 0.18400
H 	H 	0.21610 0.84640 0.98350 0.18300
H 	H 	0.24680 0.84610 0.94910 0.17900
C 	C 	0.17890 0.82240 0.94370 0.22600
C 	C 	0.14900 0.84020 0.92040 -0.14700
C 	C 	0.11220 0.81860 0.91050 0.22800
C 	C 	0.07120 0.82690 0.88510 -0.70300
H 	H 	0.06360 0.80650 0.87180 0.22200
H 	H 	0.08180 0.84520 0.86990 0.21000
H 	H 	0.04230 0.83430 0.89750 0.21700
C 	C 	0.94360 0.63820 0.92750 -0.79600
H 	H 	0.95170 0.62030 0.94390 0.25000
H 	H 	0.92270 0.62880 0.90980 0.24600
H 	H 	0.92670 0.65680 0.93910 0.24100
C 	C 	0.10100 0.65950 0.85900 -0.83200
H 	H 	0.09300 0.66850 0.83660 0.25100
H 	H 	0.10880 0.63520 0.85720 0.25400
H 	H 	0.12900 0.67180 0.86810 0.25400
C 	C 	0.02720 0.56180 0.90920 -0.60400
H 	H 	0.05870 0.57110 0.91600 0.17900
H 	H 	0.02900 0.53680 0.90850 0.17600
H 	H 	0.00240 0.56870 0.92560 0.18800
C 	C 	0.99750 0.61300 0.83040 0.12600
C 	C 	0.01140 0.61080 0.86570 -0.06200
C 	C 	0.01390 0.57500 0.87480 0.16800
N 	N 	0.00160 0.55520 0.84510 -0.13100
N 	N 	0.99150 0.57860 0.81770 -0.18300
H 	H 	0.98310 0.57300 0.79700 0.09600
C 	C 	0.99000 0.64440 0.80270 -0.51800
H 	H 	0.96600 0.66070 0.81150 0.15300
H 	H 	0.97810 0.63500 0.78130 0.15200
H 	H 	0.02080 0.65610 0.79900 0.15400
C 	C 	0.97800 0.73950 0.71190 -0.91000
H 	H 	0.98180 0.76210 0.72200 0.26900
H 	H 	0.00780 0.73250 0.70080 0.27900
H 	H 	0.96940 0.72300 0.72960 0.26800
C 	C 	0.88690 0.74570 0.69020 -0.29800
C 	C 	0.86670 0.74830 0.65640 0.50900
N 	N 	0.90610 0.74490 0.63240 -0.29000
N 	N 	0.95060 0.74010 0.65130 -0.23200
H 	H 	0.97970 0.73740 0.64270 0.11900
C 	C 	0.93870 0.74060 0.68700 0.33400
C 	C 	0.81870 0.75070 0.65100 -1.28000
H 	H 	0.80250 0.73060 0.66040 0.37600
H 	H 	0.81240 0.75200 0.62670 0.38300
H 	H 	0.80610 0.77120 0.66210 0.37600
C 	C 	0.82730 0.80890 0.72870 -0.64100
H 	H 	0.79260 0.81170 0.72420 0.18500
H 	H 	0.84570 0.81400 0.70810 0.19100
H 	H 	0.83710 0.82460 0.74680 0.20500
C 	C 	0.83780 0.77110 0.74010 0.21300
C 	C 	0.86100 0.74840 0.72350 -0.08100
C 	C 	0.85290 0.71480 0.74220 0.12500
C 	C 	0.87220 0.67790 0.73870 -0.53100
H 	H 	0.85480 0.66300 0.75440 0.11700
H 	H 	0.90690 0.67750 0.74390 0.14900
H 	H 	0.86700 0.66990 0.71550 0.14400
C 	C 	0.48970 0.93600 0.51230 -0.62800
H 	H 	0.48080 0.95850 0.50330 0.18200
H 	H 	0.48570 0.93600 0.53690 0.18500
H 	H 	0.46870 0.91860 0.50230 0.18400
C 	C 	0.54160 0.92850 0.50360 0.19900
C 	C 	0.57130 0.90080 0.51520 -0.12500
C 	C 	0.61650 0.90260 0.49340 0.22600
C 	C 	0.66220 0.88180 0.49520 -0.66200
H 	H 	0.65680 0.85970 0.48430 0.18800
H 	H 	0.67110 0.87830 0.51890 0.19100
H 	H 	0.68840 0.89390 0.48350 0.18900
C 	C 	0.62380 0.89490 0.59000 -0.80200
H 	H 	0.61390 0.90580 0.61120 0.21100
H 	H 	0.63450 0.91230 0.57400 0.25600
H 	H 	0.65050 0.87900 0.59450 0.19800
C 	C 	0.58410 0.87670 0.57620 0.24300
C 	C 	0.56260 0.87510 0.53970 -0.15500
C 	C 	0.52370 0.85080 0.54360 0.25200
C 	C 	0.49260 0.83940 0.51470 -0.70700
H 	H 	0.47860 0.81700 0.51990 0.19900
H 	H 	0.51240 0.83780 0.49420 0.22300
H 	H 	0.46650 0.85590 0.51110 0.19700
C 	C 	0.67490 0.81170 0.70820 -0.72400
H 	H 	0.68450 0.81740 0.68500 0.17100
H 	H 	0.70100 0.79890 0.71920 0.21800
H 	H 	0.66880 0.83270 0.72090 0.19000
C 	C 	0.63070 0.79100 0.70750 0.23600
C 	C 	0.62330 0.76120 0.72890 -0.12000
C 	C 	0.58700 0.74220 0.71400 0.20100
C 	C 	0.56060 0.70810 0.72510 -0.60800
H 	H 	0.52990 0.71370 0.73630 0.16900
H 	H 	0.58140 0.69550 0.74080 0.18200
H 	H 	0.55420 0.69410 0.70510 0.17800
C 	C 	0.71990 0.70780 0.72420 -0.72000
H 	H 	0.75250 0.69960 0.73000 0.19000
H 	H 	0.72200 0.72360 0.70510 0.21700
H 	H 	0.69940 0.68840 0.71790 0.21900
C 	C 	0.69780 0.72610 0.75480 0.26600
C 	C 	0.65900 0.75210 0.75490 -0.24600
C 	C 	0.65210 0.76060 0.78970 0.44500
C 	C 	0.62350 0.78400 0.80460 -1.08500
H 	H 	0.59090 0.78290 0.79480 0.31000
H 	H 	0.63710 0.80680 0.80100 0.30400
H 	H 	0.62170 0.77930 0.82900 0.29900
C 	C 	0.65340 0.65800 0.82230 -0.65800
H 	H 	0.62960 0.67650 0.82290 0.19800
H 	H 	0.63660 0.63600 0.82270 0.19000
H 	H 	0.67280 0.65980 0.80160 0.17200
C 	C 	0.68630 0.66070 0.85280 0.20800
C 	C 	0.67770 0.65290 0.88620 -0.13700
C 	C 	0.71930 0.66350 0.90440 0.16700
C 	C 	0.73110 0.65870 0.94380 -0.55300
H 	H 	0.76430 0.65020 0.94640 0.15000
H 	H 	0.70830 0.64230 0.95360 0.16400
H 	H 	0.72790 0.68070 0.95540 0.15400
C 	C 	0.59890 0.68370 0.94680 -0.54800
H 	H 	0.58180 0.69990 0.93230 0.15200
H 	H 	0.63120 0.69270 0.95230 0.15700
H 	H 	0.58050 0.68030 0.96770 0.15800
C 	C 	0.62550 0.60050 0.89560 0.20600
N 	N 	0.58600 0.59100 0.91790 -0.24800
N 	N 	0.57290 0.62060 0.93770 -0.19400
H 	H 	0.55000 0.62160 0.95310 0.07900
C 	C 	0.60430 0.64850 0.92770 0.15900
C 	C 	0.63680 0.63600 0.90170 -0.11900
C 	C 	0.64700 0.57500 0.87230 -0.68400
H 	H 	0.64520 0.55230 0.88250 0.20100
H 	H 	0.68100 0.58090 0.86800 0.20100
H 	H 	0.62900 0.57510 0.85090 0.18100
O 	O 	0.81860 0.88950 0.98140 -0.48200
K 	K 	0.85030 0.90120 0.98200 0.81000
O 	O 	0.77200 0.87040 0.98640 -0.44700
W 	W 	0.17512 0.56810 0.14476 0.98800
W 	W 	0.27277 0.51528 0.14283 1.00700
W 	W 	0.34251 0.59545 0.17422 1.00000
W 	W 	0.24504 0.64861 0.17532 0.99900
W 	W 	0.31215 0.72590 0.13890 1.36100
W 	W 	0.41207 0.67689 0.14989 1.01000
W 	W 	0.42316 0.59941 0.09653 0.99500
W 	W 	0.20477 0.68733 0.09400 1.04800
W 	W 	0.13781 0.60894 0.06173 1.02700
W 	W 	0.35422 0.51982 0.06792 1.35900
W 	W 	0.23784 0.46883 0.06084 1.00700
W 	W 	0.13289 0.51487 0.06840 1.05300
W 	W 	0.13322 0.51374 0.97009 1.03000
W 	W 	0.23790 0.46907 0.96274 1.01000
W 	W 	0.35389 0.51680 0.97122 1.01200
W 	W 	0.14012 0.61010 0.96501 1.03100
W 	W 	0.21066 0.68908 0.93726 1.31100
W 	W 	0.42205 0.59565 0.94062 1.31500
W 	W 	0.46606 0.64641 0.01680 1.07400
W 	W 	0.24953 0.73702 0.01669 1.05600
W 	W 	0.35608 0.77522 0.06010 0.99900
W 	W 	0.45664 0.72609 0.07022 1.24200
W 	W 	0.46238 0.73038 0.97338 1.00500
W 	W 	0.35356 0.77093 0.96391 0.97900
W 	W 	0.31451 0.71940 0.88521 0.97000
W 	W 	0.42399 0.67968 0.89367 1.01100
W 	W 	0.35576 0.60238 0.85888 1.02500
W 	W 	0.24467 0.63958 0.85874 0.98400
W 	W 	0.17507 0.55983 0.88961 0.99300
W 	W 	0.28581 0.52232 0.88831 1.03400
Co	Co	0.54172 0.54628 0.92383 1.07000
Co	Co	0.58870 0.76256 0.08071 1.13300
Co	Co	0.27719 0.80431 0.19312 1.08000
Co	Co	0.07824 0.67644 0.35903 0.99200
K 	K 	0.24170 0.64393 0.01519 0.80200
P 	P 	0.31510 0.64493 0.10280 0.55300
P 	P 	0.24080 0.55878 0.06890 0.56800
P 	P 	0.24410 0.55854 0.96360 0.54600
P 	P 	0.31910 0.64442 0.93080 0.58600
P 	P 	0.36380 0.69803 0.01700 0.55900
O 	O 	0.29240 0.62200 0.19990 -0.44800
O 	O 	0.30320 0.55680 0.16930 -0.43800
O 	O 	0.20870 0.60180 0.16760 -0.44200
O 	O 	0.21370 0.52970 0.16500 -0.44300
O 	O 	0.14560 0.52780 0.11140 -0.45100
O 	O 	0.24490 0.48490 0.11230 -0.44500
O 	O 	0.32940 0.52060 0.11390 -0.48700
O 	O 	0.23940 0.55830 0.10950 -0.35100
O 	O 	0.14940 0.59720 0.11020 -0.46400
O 	O 	0.20670 0.66250 0.13600 -0.47000
O 	O 	0.29680 0.62560 0.13530 -0.35400
O 	O 	0.38680 0.58710 0.13930 -0.46900
O 	O 	0.37890 0.64420 0.17430 -0.44900
O 	O 	0.28210 0.68850 0.17190 -0.44600
O 	O 	0.28910 0.75920 0.16490 -0.55300
O 	O 	0.37230 0.71580 0.16350 -0.46800
O 	O 	0.43440 0.64330 0.11730 -0.46500
O 	O 	0.34240 0.67880 0.11510 -0.37600
O 	O 	0.25520 0.71640 0.11410 -0.48900
O 	O 	0.27000 0.65510 0.08060 -0.28700
O 	O 	0.35050 0.62270 0.08050 -0.28600
O 	O 	0.39090 0.56050 0.07200 -0.50000
O 	O 	0.17310 0.65250 0.06770 -0.47200
O 	O 	0.21530 0.59070 0.05490 -0.29600
O 	O 	0.29460 0.55640 0.05680 -0.32100
O 	O 	0.39960 0.48910 0.07690 -0.61900
O 	O 	0.30290 0.48630 0.05830 -0.47300
O 	O 	0.21340 0.52460 0.05800 -0.35400
O 	O 	0.12190 0.56090 0.05570 -0.47600
O 	O 	0.16670 0.47030 0.07110 -0.44100
O 	O 	0.22900 0.46520 0.01410 -0.44300
O 	O 	0.13210 0.50630 0.01610 -0.43700
O 	O 	0.14250 0.61840 0.01510 -0.46900
O 	O 	0.36300 0.52240 0.01960 -0.49700
O 	O 	0.44460 0.61500 0.05280 -0.47700
O 	O 	0.22210 0.70730 0.05060 -0.47100
O 	O 	0.34080 0.75170 0.10660 -0.48100
O 	O 	0.43680 0.71080 0.11250 -0.44800
O 	O 	0.51510 0.74170 0.08410 -0.52000
O 	O 	0.42440 0.77180 0.07500 -0.44000
O 	O 	0.29070 0.75800 0.05080 -0.44800
O 	O 	0.38160 0.71960 0.05020 -0.36900
O 	O 	0.47250 0.68130 0.05050 -0.48700
O 	O 	0.38710 0.66230 0.01750 -0.30500
O 	O 	0.30580 0.69600 0.01660 -0.28800
O 	O 	0.22190 0.70690 0.98200 -0.48700
O 	O 	0.44160 0.61530 0.98400 -0.49300
O 	O 	0.47990 0.57550 0.93250 -0.60300
O 	O 	0.35270 0.62160 0.95320 -0.32300
O 	O 	0.27500 0.65650 0.95160 -0.31900
O 	O 	0.15860 0.71500 0.92780 -0.57100
O 	O 	0.17640 0.65260 0.96210 -0.47600
O 	O 	0.39370 0.56010 0.96660 -0.49400
O 	O 	0.29590 0.55660 0.97880 -0.29000
O 	O 	0.21840 0.59150 0.97690 -0.27600
O 	O 	0.12600 0.56200 0.97430 -0.46500
O 	O 	0.21490 0.52580 0.97560 -0.33600
O 	O 	0.30430 0.48400 0.97920 -0.44600
O 	O 	0.16840 0.47090 0.95850 -0.45400
O 	O 	0.14970 0.52770 0.92040 -0.44600
O 	O 	0.25210 0.48690 0.92120 -0.45300
O 	O 	0.33550 0.52020 0.92260 -0.46500
O 	O 	0.24630 0.55820 0.92240 -0.34800
O 	O 	0.15340 0.59610 0.92010 -0.46900
O 	O 	0.21180 0.66160 0.89590 -0.48600
O 	O 	0.30320 0.62490 0.89800 -0.36700
O 	O 	0.38930 0.58400 0.89680 -0.48500
O 	O 	0.43630 0.64020 0.92110 -0.47200
O 	O 	0.34830 0.67670 0.91970 -0.34900
O 	O 	0.26000 0.71730 0.91690 -0.47700
O 	O 	0.29070 0.75810 0.98370 -0.46500
O 	O 	0.38060 0.71840 0.98570 -0.34400
O 	O 	0.47440 0.68150 0.98340 -0.45800
O 	O 	0.46550 0.74120 0.01710 -0.47500
O 	O 	0.36600 0.78320 0.01440 -0.46100
O 	O 	0.42490 0.77040 0.95750 -0.45000
O 	O 	0.44280 0.71020 0.92630 -0.45300
O 	O 	0.34360 0.74940 0.92200 -0.45700
O 	O 	0.38220 0.71250 0.86920 -0.44800
O 	O 	0.38920 0.64220 0.86170 -0.46400
O 	O 	0.28630 0.68430 0.85850 -0.44800
O 	O 	0.30050 0.62130 0.83200 -0.44100
O 	O 	0.31180 0.55990 0.86530 -0.44600
O 	O 	0.21340 0.59710 0.86490 -0.43900
O 	O 	0.22250 0.52820 0.86770 -0.44400
N 	N 	0.65270 0.56940 0.10700 -0.30200
H 	H 	0.64290 0.55050 0.11270 0.13000
N 	N 	0.69010 0.58210 0.12580 -0.14200
N 	N 	0.65870 0.70660 0.05290 -0.22200
H 	H 	0.66950 0.72180 0.03850 0.08300
N 	N 	0.61790 0.71290 0.07340 -0.24400
N 	N 	0.55590 0.81180 0.09110 -0.24400
N 	N 	0.51210 0.81940 0.07220 -0.21600
H 	H 	0.50150 0.80840 0.05440 0.09700
C 	C 	0.48890 0.84850 0.08800 0.28400
C 	C 	0.51830 0.85880 0.11660 -0.20800
C 	C 	0.55970 0.83610 0.11850 0.30200
N 	N 	0.31250 0.74160 0.23390 -0.21000
H 	H 	0.29300 0.72970 0.22100 0.12500
N 	N 	0.32170 0.77670 0.23030 -0.22300
N 	N 	0.06500 0.55580 0.52180 -0.14500
N 	N 	0.10940 0.57030 0.52680 -0.21700
H 	H 	0.13080 0.56270 0.54140 0.13500
N 	N 	0.06000 0.64950 0.40410 -0.29200
N 	N 	0.02720 0.66290 0.42650 -0.22400
H 	H 	0.00900 0.68030 0.42080 0.05500
N 	N 	0.06590 0.73740 0.30810 -0.21400
H 	H 	0.03760 0.74160 0.31750 0.05800
N 	N 	0.09510 0.70680 0.31510 -0.30600
N 	N 	0.21540 0.77860 0.21560 -0.26000
N 	N 	0.18900 0.75740 0.19210 -0.25100
H 	H 	0.19460 0.75580 0.17030 0.11100
N 	N 	0.25070 0.82270 0.11960 -0.19300
H 	H 	0.27910 0.81410 0.11430 0.07200
N 	N 	0.23330 0.82370 0.15210 -0.24600
C 	C 	0.59340 0.58730 0.06750 -1.14600
H 	H 	0.58700 0.56280 0.06610 0.31100
H 	H 	0.60110 0.59610 0.04490 0.32700
H 	H 	0.56460 0.59900 0.07630 0.32000
C 	C 	0.63080 0.59290 0.08820 0.46300
C 	C 	0.65840 0.62650 0.09590 -0.18200
C 	C 	0.69430 0.61340 0.12040 0.17000
C 	C 	0.73200 0.64170 0.13530 -0.52300
H 	H 	0.75900 0.64480 0.11950 0.13400
H 	H 	0.74460 0.63400 0.15720 0.14300
H 	H 	0.71510 0.66350 0.13830 0.15100
C 	C 	0.72530 0.66730 0.03620 -0.64000
H 	H 	0.74230 0.68790 0.02870 0.18400
H 	H 	0.71610 0.65360 0.01650 0.18300
H 	H 	0.74680 0.65390 0.05090 0.17900
C 	C 	0.67890 0.67760 0.05630 0.22600
C 	C 	0.64900 0.65980 0.07960 -0.14700
C 	C 	0.61220 0.68140 0.08950 0.22800
C 	C 	0.57120 0.67310 0.11490 -0.70300
H 	H 	0.56360 0.69350 0.12820 0.22200
H 	H 	0.58180 0.65480 0.13010 0.21000
H 	H 	0.54230 0.66570 0.10250 0.21700
C 	C 	0.44360 0.86180 0.07250 -0.79600
H 	H 	0.45170 0.87970 0.05610 0.25000
H 	H 	0.42270 0.87120 0.09020 0.24600
H 	H 	0.42670 0.84320 0.06090 0.24100
C 	C 	0.60100 0.84050 0.14100 -0.83300
H 	H 	0.59300 0.83150 0.16340 0.25100
H 	H 	0.60880 0.86480 0.14280 0.25400
H 	H 	0.62900 0.82820 0.13190 0.25400
C 	C 	0.52720 0.93820 0.09080 -0.60400
H 	H 	0.55870 0.92890 0.08400 0.17900
H 	H 	0.52900 0.96320 0.09150 0.17600
H 	H 	0.50240 0.93130 0.07440 0.18800
C 	C 	0.49750 0.88700 0.16960 0.12600
C 	C 	0.51140 0.88920 0.13430 -0.06200
C 	C 	0.51390 0.92500 0.12520 0.16800
N 	N 	0.50160 0.94480 0.15490 -0.13100
N 	N 	0.49150 0.92140 0.18230 -0.18300
H 	H 	0.48310 0.92700 0.20300 0.09600
C 	C 	0.49000 0.85560 0.19730 -0.51800
H 	H 	0.46600 0.83930 0.18850 0.15300
H 	H 	0.47810 0.86500 0.21870 0.15200
H 	H 	0.52080 0.84390 0.20100 0.15400
C 	C 	0.47800 0.76050 0.28810 -0.90900
H 	H 	0.48180 0.73790 0.27800 0.26900
H 	H 	0.50780 0.76750 0.29920 0.27900
H 	H 	0.46940 0.77700 0.27040 0.26800
C 	C 	0.38690 0.75430 0.30980 -0.29800
C 	C 	0.36670 0.75170 0.34360 0.50900
N 	N 	0.40610 0.75510 0.36760 -0.29000
N 	N 	0.45060 0.75990 0.34870 -0.23200
H 	H 	0.47970 0.76260 0.35730 0.11900
C 	C 	0.43870 0.75940 0.31300 0.33400
C 	C 	0.31870 0.74930 0.34900 -1.28000
H 	H 	0.30250 0.76940 0.33960 0.37600
H 	H 	0.31240 0.74800 0.37330 0.38300
H 	H 	0.30610 0.72880 0.33790 0.37600
C 	C 	0.32730 0.69110 0.27130 -0.64100
H 	H 	0.29260 0.68830 0.27580 0.18500
H 	H 	0.34570 0.68600 0.29190 0.19100
H 	H 	0.33710 0.67540 0.25320 0.20500
C 	C 	0.33780 0.72890 0.25990 0.21300
C 	C 	0.36100 0.75160 0.27650 -0.08100
C 	C 	0.35290 0.78520 0.25780 0.12500
C 	C 	0.37220 0.82210 0.26130 -0.53100
H 	H 	0.35480 0.83700 0.24560 0.11700
H 	H 	0.40690 0.82250 0.25610 0.14900
H 	H 	0.36700 0.83010 0.28450 0.14400
C 	C 	0.98970 0.56400 0.48770 -0.62800
H 	H 	0.98080 0.54150 0.49670 0.18200
H 	H 	0.98570 0.56400 0.46310 0.18500
H 	H 	0.96870 0.58140 0.49770 0.18400
C 	C 	0.04160 0.57150 0.49640 0.19900
C 	C 	0.07130 0.59920 0.48480 -0.12500
C 	C 	0.11650 0.59740 0.50660 0.22600
C 	C 	0.16220 0.61820 0.50480 -0.66200
H 	H 	0.15680 0.64030 0.51570 0.18800
H 	H 	0.17110 0.62170 0.48110 0.19100
H 	H 	0.18840 0.60610 0.51650 0.18900
C 	C 	0.12380 0.60510 0.41000 -0.80200
H 	H 	0.11390 0.59420 0.38880 0.21100
H 	H 	0.13450 0.58770 0.42600 0.25600
H 	H 	0.15050 0.62100 0.40550 0.19800
C 	C 	0.08410 0.62330 0.42380 0.24300
C 	C 	0.06260 0.62490 0.46030 -0.15500
C 	C 	0.02370 0.64920 0.45640 0.25200
C 	C 	0.99260 0.66060 0.48530 -0.70700
H 	H 	0.97860 0.68300 0.48010 0.19900
H 	H 	0.01240 0.66220 0.50580 0.22300
H 	H 	0.96650 0.64410 0.48890 0.19700
C 	C 	0.17490 0.68830 0.29180 -0.72400
H 	H 	0.18450 0.68260 0.31500 0.17100
H 	H 	0.20100 0.70110 0.28080 0.21800
H 	H 	0.16880 0.66730 0.27910 0.19000
C 	C 	0.13070 0.70900 0.29250 0.23600
C 	C 	0.12330 0.73880 0.27110 -0.12000
C 	C 	0.08700 0.75780 0.28600 0.20100
C 	C 	0.06060 0.79190 0.27490 -0.60800
H 	H 	0.02990 0.78630 0.26370 0.16900
H 	H 	0.08140 0.80450 0.25920 0.18200
H 	H 	0.05420 0.80590 0.29490 0.17800
C 	C 	0.21990 0.79220 0.27580 -0.72000
H 	H 	0.25250 0.80040 0.27000 0.19000
H 	H 	0.22200 0.77640 0.29490 0.21700
H 	H 	0.19940 0.81160 0.28210 0.21900
C 	C 	0.19780 0.77390 0.24520 0.26600
C 	C 	0.15900 0.74790 0.24510 -0.24600
C 	C 	0.15210 0.73940 0.21030 0.44500
C 	C 	0.12350 0.71600 0.19540 -1.08500
H 	H 	0.09090 0.71710 0.20520 0.31000
H 	H 	0.13710 0.69320 0.19900 0.30400
H 	H 	0.12170 0.72070 0.17100 0.29900
C 	C 	0.15340 0.84200 0.17770 -0.65800
H 	H 	0.12960 0.82350 0.17710 0.19800
H 	H 	0.13660 0.86400 0.17730 0.19000
H 	H 	0.17280 0.84020 0.19840 0.17200
C 	C 	0.18630 0.83930 0.14720 0.20800
C 	C 	0.17770 0.84710 0.11380 -0.13700
C 	C 	0.21930 0.83650 0.09560 0.16700
C 	C 	0.23110 0.84130 0.05620 -0.55300
H 	H 	0.26430 0.84980 0.05360 0.15000
H 	H 	0.20830 0.85770 0.04640 0.16400
H 	H 	0.22790 0.81930 0.04460 0.15400
C 	C 	0.09890 0.81630 0.05320 -0.54800
H 	H 	0.08180 0.80010 0.06770 0.15200
H 	H 	0.13120 0.80730 0.04770 0.15700
H 	H 	0.08050 0.81970 0.03230 0.15800
C 	C 	0.12550 0.89950 0.10440 0.20600
N 	N 	0.08600 0.90900 0.08210 -0.24800
N 	N 	0.07290 0.87940 0.06230 -0.19400
H 	H 	0.05000 0.87840 0.04690 0.07900
C 	C 	0.10430 0.85150 0.07230 0.15900
C 	C 	0.13680 0.86400 0.09830 -0.11900
C 	C 	0.14700 0.92500 0.12770 -0.68400
H 	H 	0.14520 0.94770 0.11750 0.20100
H 	H 	0.18100 0.91910 0.13200 0.20100
H 	H 	0.12900 0.92490 0.14910 0.18100
O 	O 	0.31860 0.61050 0.01860 -0.48200
K 	K 	0.35030 0.59880 0.01800 0.81000
O 	O 	0.27200 0.62960 0.01360 -0.44700
W 	W 	0.32488 0.93190 0.64476 0.98800
W 	W 	0.22723 0.98472 0.64283 1.00800
W 	W 	0.15749 0.90455 0.67422 1.00000
W 	W 	0.25496 0.85139 0.67532 0.99900
W 	W 	0.18785 0.77410 0.63890 1.36100
W 	W 	0.08793 0.82311 0.64989 1.01000
W 	W 	0.07684 0.90059 0.59653 0.99500
W 	W 	0.29523 0.81267 0.59400 1.04800
W 	W 	0.36219 0.89106 0.56173 1.02700
W 	W 	0.14578 0.98018 0.56792 1.35900
W 	W 	0.26216 0.03117 0.56084 1.00800
W 	W 	0.36711 0.98513 0.56840 1.05300
W 	W 	0.36678 0.98626 0.47009 1.03000
W 	W 	0.26210 0.03093 0.46274 1.01000
W 	W 	0.14611 0.98320 0.47122 1.01200
W 	W 	0.35988 0.88990 0.46501 1.03100
W 	W 	0.28934 0.81092 0.43726 1.31100
W 	W 	0.07795 0.90435 0.44062 1.31500
W 	W 	0.03394 0.85359 0.51680 1.07400
W 	W 	0.25047 0.76298 0.51669 1.05600
W 	W 	0.14392 0.72478 0.56010 0.99900
W 	W 	0.04336 0.77391 0.57022 1.24200
W 	W 	0.03762 0.76962 0.47338 1.00500
W 	W 	0.14644 0.72907 0.46391 0.97900
W 	W 	0.18549 0.78060 0.38521 0.97000
W 	W 	0.07601 0.82032 0.39367 1.01100
W 	W 	0.14424 0.89762 0.35888 1.02500
W 	W 	0.25533 0.86042 0.35874 0.98400
W 	W 	0.32493 0.94017 0.38961 0.99300
W 	W 	0.21419 0.97768 0.38831 1.03400
Co	Co	0.95828 0.95372 0.42383 1.07000
Co	Co	0.91130 0.73744 0.58071 1.13300
Co	Co	0.22281 0.69569 0.69312 1.08000
Co	Co	0.42176 0.82356 0.85903 0.99200
K 	K 	0.25830 0.85607 0.51519 0.80200
P 	P 	0.18490 0.85507 0.60280 0.55300
P 	P 	0.25920 0.94122 0.56890 0.56800
P 	P 	0.25590 0.94146 0.46360 0.54600
P 	P 	0.18090 0.85558 0.43080 0.58600
P 	P 	0.13620 0.80197 0.51700 0.55900
O 	O 	0.20760 0.87800 0.69990 -0.44800
O 	O 	0.19680 0.94320 0.66930 -0.43800
O 	O 	0.29130 0.89820 0.66760 -0.44200
O 	O 	0.28630 0.97030 0.66500 -0.44300
O 	O 	0.35440 0.97220 0.61140 -0.45100
O 	O 	0.25510 0.01510 0.61230 -0.44500
O 	O 	0.17060 0.97940 0.61390 -0.48700
O 	O 	0.26060 0.94170 0.60950 -0.35100
O 	O 	0.35060 0.90280 0.61020 -0.46400
O 	O 	0.29330 0.83750 0.63600 -0.47000
O 	O 	0.20320 0.87440 0.63530 -0.35400
O 	O 	0.11320 0.91290 0.63930 -0.46900
O 	O 	0.12110 0.85580 0.67430 -0.44900
O 	O 	0.21790 0.81150 0.67190 -0.44600
O 	O 	0.21090 0.74080 0.66490 -0.55300
O 	O 	0.12770 0.78420 0.66350 -0.46800
O 	O 	0.06560 0.85670 0.61730 -0.46500
O 	O 	0.15760 0.82120 0.61510 -0.37600
O 	O 	0.24480 0.78360 0.61410 -0.48900
O 	O 	0.23000 0.84490 0.58060 -0.28700
O 	O 	0.14950 0.87730 0.58050 -0.28600
O 	O 	0.10910 0.93950 0.57200 -0.50000
O 	O 	0.32690 0.84750 0.56770 -0.47200
O 	O 	0.28470 0.90930 0.55490 -0.29500
O 	O 	0.20540 0.94360 0.55680 -0.32100
O 	O 	0.10040 0.01090 0.57690 -0.61900
O 	O 	0.19710 0.01370 0.55830 -0.47300
O 	O 	0.28660 0.97540 0.55800 -0.35400
O 	O 	0.37810 0.93910 0.55570 -0.47600
O 	O 	0.33330 0.02970 0.57110 -0.44100
O 	O 	0.27100 0.03480 0.51410 -0.44300
O 	O 	0.36790 0.99370 0.51610 -0.43700
O 	O 	0.35750 0.88160 0.51510 -0.46900
O 	O 	0.13700 0.97760 0.51960 -0.49700
O 	O 	0.05540 0.88500 0.55280 -0.47700
O 	O 	0.27790 0.79270 0.55060 -0.47100
O 	O 	0.15920 0.74830 0.60660 -0.48100
O 	O 	0.06320 0.78920 0.61250 -0.44800
O 	O 	0.98490 0.75830 0.58410 -0.52000
O 	O 	0.07560 0.72820 0.57500 -0.44000
O 	O 	0.20930 0.74200 0.55080 -0.44800
O 	O 	0.11840 0.78040 0.55020 -0.36900
O 	O 	0.02750 0.81870 0.55050 -0.48700
O 	O 	0.11290 0.83770 0.51750 -0.30500
O 	O 	0.19420 0.80400 0.51660 -0.28800
O 	O 	0.27810 0.79310 0.48200 -0.48700
O 	O 	0.05840 0.88470 0.48400 -0.49300
O 	O 	0.02010 0.92450 0.43250 -0.60300
O 	O 	0.14730 0.87840 0.45320 -0.32300
O 	O 	0.22500 0.84350 0.45160 -0.31900
O 	O 	0.34140 0.78500 0.42780 -0.57100
O 	O 	0.32360 0.84740 0.46210 -0.47600
O 	O 	0.10630 0.93990 0.46660 -0.49400
O 	O 	0.20410 0.94340 0.47880 -0.29000
O 	O 	0.28160 0.90850 0.47690 -0.27500
O 	O 	0.37400 0.93800 0.47430 -0.46500
O 	O 	0.28510 0.97420 0.47560 -0.33600
O 	O 	0.19570 0.01600 0.47920 -0.44600
O 	O 	0.33160 0.02910 0.45850 -0.45400
O 	O 	0.35030 0.97230 0.42040 -0.44600
O 	O 	0.24790 0.01310 0.42120 -0.45300
O 	O 	0.16450 0.97980 0.42260 -0.46500
O 	O 	0.25370 0.94180 0.42240 -0.34800
O 	O 	0.34660 0.90390 0.42010 -0.46900
O 	O 	0.28820 0.83840 0.39590 -0.48600
O 	O 	0.19680 0.87510 0.39800 -0.36700
O 	O 	0.11070 0.91600 0.39680 -0.48500
O 	O 	0.06370 0.85980 0.42110 -0.47200
O 	O 	0.15170 0.82330 0.41970 -0.34900
O 	O 	0.24000 0.78270 0.41690 -0.47700
O 	O 	0.20930 0.74190 0.48370 -0.46500
O 	O 	0.11940 0.78160 0.48570 -0.34400
O 	O 	0.02560 0.81850 0.48340 -0.45800
O 	O 	0.03450 0.75880 0.51710 -0.47500
O 	O 	0.13400 0.71680 0.51440 -0.46100
O 	O 	0.07510 0.72960 0.45750 -0.45000
O 	O 	0.05720 0.78980 0.42630 -0.45300
O 	O 	0.15640 0.75060 0.42200 -0.45700
O 	O 	0.11780 0.78750 0.36920 -0.44800
O 	O 	0.11080 0.85780 0.36170 -0.46400
O 	O 	0.21370 0.81570 0.35850 -0.44800
O 	O 	0.19950 0.87870 0.33200 -0.44100
O 	O 	0.18820 0.94010 0.36530 -0.44600
O 	O 	0.28660 0.90290 0.36490 -0.43900
O 	O 	0.27750 0.97180 0.36770 -0.44400
N 	N 	0.84730 0.93060 0.60700 -0.30200
H 	H 	0.85710 0.94950 0.61270 0.13000
N 	N 	0.80990 0.91790 0.62580 -0.14200
N 	N 	0.84130 0.79340 0.55290 -0.22200
H 	H 	0.83050 0.77820 0.53850 0.08300
N 	N 	0.88210 0.78710 0.57340 -0.24400
N 	N 	0.94410 0.68820 0.59110 -0.24400
N 	N 	0.98790 0.68060 0.57220 -0.21600
H 	H 	0.99850 0.69160 0.55440 0.09700
C 	C 	0.01110 0.65150 0.58800 0.28400
C 	C 	0.98170 0.64120 0.61660 -0.20800
C 	C 	0.94030 0.66390 0.61850 0.30200
N 	N 	0.18750 0.75840 0.73390 -0.21000
H 	H 	0.20700 0.77030 0.72100 0.12500
N 	N 	0.17830 0.72330 0.73030 -0.22300
N 	N 	0.43500 0.94420 0.02180 -0.14500
N 	N 	0.39060 0.92970 0.02680 -0.21700
H 	H 	0.36920 0.93730 0.04140 0.13500
N 	N 	0.44000 0.85050 0.90410 -0.29200
N 	N 	0.47280 0.83710 0.92650 -0.22400
H 	H 	0.49100 0.81970 0.92080 0.05500
N 	N 	0.43410 0.76260 0.80810 -0.21400
H 	H 	0.46240 0.75840 0.81750 0.05800
N 	N 	0.40490 0.79320 0.81510 -0.30600
N 	N 	0.28460 0.72140 0.71560 -0.26000
N 	N 	0.31100 0.74260 0.69210 -0.25100
H 	H 	0.30540 0.74420 0.67030 0.11100
N 	N 	0.24930 0.67730 0.61960 -0.19300
H 	H 	0.22090 0.68590 0.61430 0.07200
N 	N 	0.26670 0.67630 0.65210 -0.24600
C 	C 	0.90660 0.91270 0.56750 -1.14600
H 	H 	0.91300 0.93720 0.56610 0.31100
H 	H 	0.89890 0.90390 0.54490 0.32700
H 	H 	0.93540 0.90100 0.57630 0.32000
C 	C 	0.86920 0.90710 0.58820 0.46300
C 	C 	0.84160 0.87350 0.59590 -0.18200
C 	C 	0.80570 0.88660 0.62040 0.17000
C 	C 	0.76800 0.85830 0.63530 -0.52300
H 	H 	0.74100 0.85520 0.61950 0.13400
H 	H 	0.75540 0.86600 0.65720 0.14300
H 	H 	0.78490 0.83650 0.63830 0.15100
C 	C 	0.77470 0.83270 0.53620 -0.64000
H 	H 	0.75770 0.81210 0.52870 0.18400
H 	H 	0.78390 0.84640 0.51650 0.18300
H 	H 	0.75320 0.84610 0.55090 0.17900
C 	C 	0.82110 0.82240 0.55630 0.22600
C 	C 	0.85100 0.84020 0.57960 -0.14700
C 	C 	0.88780 0.81860 0.58950 0.22800
C 	C 	0.92880 0.82690 0.61490 -0.70300
H 	H 	0.93640 0.80650 0.62820 0.22200
H 	H 	0.91820 0.84520 0.63010 0.21000
H 	H 	0.95770 0.83430 0.60250 0.21700
C 	C 	0.05640 0.63820 0.57250 -0.79600
H 	H 	0.04830 0.62030 0.55610 0.25000
H 	H 	0.07730 0.62880 0.59020 0.24600
H 	H 	0.07330 0.65680 0.56090 0.24100
C 	C 	0.89900 0.65950 0.64100 -0.83200
H 	H 	0.90700 0.66850 0.66340 0.25100
H 	H 	0.89120 0.63520 0.64280 0.25400
H 	H 	0.87100 0.67180 0.63190 0.25400
C 	C 	0.97280 0.56180 0.59080 -0.60400
H 	H 	0.94130 0.57110 0.58400 0.17900
H 	H 	0.97100 0.53680 0.59150 0.17600
H 	H 	0.99760 0.56870 0.57440 0.18800
C 	C 	0.00250 0.61300 0.66960 0.12600
C 	C 	0.98860 0.61080 0.63430 -0.06200
C 	C 	0.98610 0.57500 0.62520 0.16800
N 	N 	0.99840 0.55520 0.65490 -0.13100
N 	N 	0.00850 0.57860 0.68230 -0.18300
H 	H 	0.01690 0.57300 0.70300 0.09600
C 	C 	0.01000 0.64440 0.69730 -0.51800
H 	H 	0.03400 0.66070 0.68850 0.15300
H 	H 	0.02190 0.63500 0.71870 0.15200
H 	H 	0.97920 0.65610 0.70100 0.15400
C 	C 	0.02200 0.73950 0.78810 -0.90900
H 	H 	0.01820 0.76210 0.77800 0.26900
H 	H 	0.99220 0.73250 0.79920 0.27900
H 	H 	0.03060 0.72300 0.77040 0.26800
C 	C 	0.11310 0.74570 0.80980 -0.29800
C 	C 	0.13330 0.74830 0.84360 0.50900
N 	N 	0.09390 0.74490 0.86760 -0.29000
N 	N 	0.04940 0.74010 0.84870 -0.23200
H 	H 	0.02030 0.73740 0.85730 0.11900
C 	C 	0.06130 0.74060 0.81300 0.33400
C 	C 	0.18130 0.75070 0.84900 -1.28000
H 	H 	0.19750 0.73060 0.83960 0.37600
H 	H 	0.18760 0.75200 0.87330 0.38300
H 	H 	0.19390 0.77120 0.83790 0.37600
C 	C 	0.17270 0.80890 0.77130 -0.64100
H 	H 	0.20740 0.81170 0.77580 0.18500
H 	H 	0.15430 0.81400 0.79190 0.19100
H 	H 	0.16290 0.82460 0.75320 0.20500
C 	C 	0.16220 0.77110 0.75990 0.21300
C 	C 	0.13900 0.74840 0.77650 -0.08100
C 	C 	0.14710 0.71480 0.75780 0.12500
C 	C 	0.12780 0.67790 0.76130 -0.53100
H 	H 	0.14520 0.66300 0.74560 0.11700
H 	H 	0.09310 0.67750 0.75610 0.14900
H 	H 	0.13300 0.66990 0.78450 0.14400
C 	C 	0.51030 0.93600 0.98770 -0.62800
H 	H 	0.51920 0.95850 0.99670 0.18100
H 	H 	0.51430 0.93600 0.96310 0.18500
H 	H 	0.53130 0.91860 0.99770 0.18400
C 	C 	0.45840 0.92850 0.99640 0.19900
C 	C 	0.42870 0.90080 0.98480 -0.12500
C 	C 	0.38350 0.90260 0.00660 0.22600
C 	C 	0.33780 0.88180 0.00480 -0.66200
H 	H 	0.34320 0.85970 0.01570 0.18800
H 	H 	0.32890 0.87830 0.98110 0.19100
H 	H 	0.31160 0.89390 0.01650 0.18900
C 	C 	0.37620 0.89490 0.91000 -0.80200
H 	H 	0.38610 0.90580 0.88880 0.21100
H 	H 	0.36550 0.91230 0.92600 0.25600
H 	H 	0.34950 0.87900 0.90550 0.19800
C 	C 	0.41590 0.87670 0.92380 0.24300
C 	C 	0.43740 0.87510 0.96030 -0.15500
C 	C 	0.47630 0.85080 0.95640 0.25200
C 	C 	0.50740 0.83940 0.98530 -0.70700
H 	H 	0.52140 0.81700 0.98010 0.19900
H 	H 	0.48760 0.83780 0.00580 0.22300
H 	H 	0.53350 0.85590 0.98890 0.19700
C 	C 	0.32510 0.81170 0.79180 -0.72400
H 	H 	0.31550 0.81740 0.81500 0.17100
H 	H 	0.29900 0.79890 0.78080 0.21800
H 	H 	0.33120 0.83270 0.77910 0.19000
C 	C 	0.36930 0.79100 0.79250 0.23600
C 	C 	0.37670 0.76120 0.77110 -0.12000
C 	C 	0.41300 0.74220 0.78600 0.20100
C 	C 	0.43940 0.70810 0.77490 -0.60800
H 	H 	0.47010 0.71370 0.76370 0.16900
H 	H 	0.41860 0.69550 0.75920 0.18200
H 	H 	0.44580 0.69410 0.79490 0.17800
C 	C 	0.28010 0.70780 0.77580 -0.72000
H 	H 	0.24750 0.69960 0.77000 0.19000
H 	H 	0.27800 0.72360 0.79490 0.21700
H 	H 	0.30060 0.68840 0.78210 0.21900
C 	C 	0.30220 0.72610 0.74520 0.26600
C 	C 	0.34100 0.75210 0.74510 -0.24600
C 	C 	0.34790 0.76060 0.71030 0.44400
C 	C 	0.37650 0.78400 0.69540 -1.08500
H 	H 	0.40910 0.78290 0.70520 0.31000
H 	H 	0.36290 0.80680 0.69900 0.30400
H 	H 	0.37830 0.77930 0.67100 0.29900
C 	C 	0.34660 0.65800 0.67770 -0.65800
H 	H 	0.37040 0.67650 0.67710 0.19800
H 	H 	0.36340 0.63600 0.67730 0.19000
H 	H 	0.32720 0.65980 0.69840 0.17200
C 	C 	0.31370 0.66070 0.64720 0.20800
C 	C 	0.32230 0.65290 0.61380 -0.13700
C 	C 	0.28070 0.66350 0.59560 0.16700
C 	C 	0.26890 0.65870 0.55620 -0.55300
H 	H 	0.23570 0.65020 0.55360 0.15000
H 	H 	0.29170 0.64230 0.54640 0.16400
H 	H 	0.27210 0.68070 0.54460 0.15400
C 	C 	0.40110 0.68370 0.55320 -0.54800
H 	H 	0.41820 0.69990 0.56770 0.15200
H 	H 	0.36880 0.69270 0.54770 0.15700
H 	H 	0.41950 0.68030 0.53230 0.15800
C 	C 	0.37450 0.60050 0.60440 0.20600
N 	N 	0.41400 0.59100 0.58210 -0.24800
N 	N 	0.42710 0.62060 0.56230 -0.19400
H 	H 	0.45000 0.62160 0.54690 0.07900
C 	C 	0.39570 0.64850 0.57230 0.15900
C 	C 	0.36320 0.63600 0.59830 -0.11900
C 	C 	0.35300 0.57500 0.62770 -0.68400
H 	H 	0.35480 0.55230 0.61750 0.20100
H 	H 	0.31900 0.58090 0.63200 0.20100
H 	H 	0.37100 0.57510 0.64910 0.18100
O 	O 	0.18140 0.88950 0.51860 -0.48200
K 	K 	0.14970 0.90120 0.51800 0.81000
O 	O 	0.22800 0.87040 0.51360 -0.44700
W 	W 	0.17512 0.43190 0.64476 0.98800
W 	W 	0.27277 0.48472 0.64283 1.00700
W 	W 	0.34251 0.40455 0.67422 1.00000
W 	W 	0.24504 0.35139 0.67532 0.99900
W 	W 	0.31215 0.27410 0.63890 1.36100
W 	W 	0.41207 0.32311 0.64989 1.01000
W 	W 	0.42316 0.40059 0.59653 0.99500
W 	W 	0.20477 0.31267 0.59400 1.04800
W 	W 	0.13781 0.39106 0.56173 1.02700
W 	W 	0.35422 0.48018 0.56792 1.35900
W 	W 	0.23784 0.53117 0.56084 1.00800
W 	W 	0.13289 0.48513 0.56840 1.05300
W 	W 	0.13322 0.48626 0.47009 1.03000
W 	W 	0.23790 0.53093 0.46274 1.01000
W 	W 	0.35389 0.48320 0.47122 1.01200
W 	W 	0.14012 0.38990 0.46501 1.03100
W 	W 	0.21066 0.31092 0.43726 1.31100
W 	W 	0.42205 0.40435 0.44062 1.31500
W 	W 	0.46606 0.35359 0.51680 1.07400
W 	W 	0.24953 0.26298 0.51669 1.05600
W 	W 	0.35608 0.22478 0.56010 0.99900
W 	W 	0.45664 0.27391 0.57022 1.24200
W 	W 	0.46238 0.26962 0.47338 1.00500
W 	W 	0.35356 0.22907 0.46391 0.97900
W 	W 	0.31451 0.28060 0.38521 0.97000
W 	W 	0.42399 0.32032 0.39367 1.01100
W 	W 	0.35576 0.39762 0.35888 1.02500
W 	W 	0.24467 0.36042 0.35874 0.98400
W 	W 	0.17507 0.44017 0.38961 0.99300
W 	W 	0.28581 0.47768 0.38831 1.03400
Co	Co	0.54172 0.45372 0.42383 1.07000
Co	Co	0.58870 0.23744 0.58071 1.13300
Co	Co	0.27719 0.19569 0.69312 1.08000
Co	Co	0.07824 0.32356 0.85903 0.99200
K 	K 	0.24170 0.35607 0.51519 0.80200
P 	P 	0.31510 0.35507 0.60280 0.55300
P 	P 	0.24080 0.44122 0.56890 0.56800
P 	P 	0.24410 0.44146 0.46360 0.54600
P 	P 	0.31910 0.35558 0.43080 0.58600
P 	P 	0.36380 0.30197 0.51700 0.55900
O 	O 	0.29240 0.37800 0.69990 -0.44800
O 	O 	0.30320 0.44320 0.66930 -0.43800
O 	O 	0.20870 0.39820 0.66760 -0.44200
O 	O 	0.21370 0.47030 0.66500 -0.44300
O 	O 	0.14560 0.47220 0.61140 -0.45100
O 	O 	0.24490 0.51510 0.61230 -0.44500
O 	O 	0.32940 0.47940 0.61390 -0.48700
O 	O 	0.23940 0.44170 0.60950 -0.35100
O 	O 	0.14940 0.40280 0.61020 -0.46400
O 	O 	0.20670 0.33750 0.63600 -0.47000
O 	O 	0.29680 0.37440 0.63530 -0.35400
O 	O 	0.38680 0.41290 0.63930 -0.46900
O 	O 	0.37890 0.35580 0.67430 -0.44900
O 	O 	0.28210 0.31150 0.67190 -0.44600
O 	O 	0.28910 0.24080 0.66490 -0.55300
O 	O 	0.37230 0.28420 0.66350 -0.46800
O 	O 	0.43440 0.35670 0.61730 -0.46500
O 	O 	0.34240 0.32120 0.61510 -0.37600
O 	O 	0.25520 0.28360 0.61410 -0.48900
O 	O 	0.27000 0.34490 0.58060 -0.28700
O 	O 	0.35050 0.37730 0.58050 -0.28600
O 	O 	0.39090 0.43950 0.57200 -0.50000
O 	O 	0.17310 0.34750 0.56770 -0.47200
O 	O 	0.21530 0.40930 0.55490 -0.29500
O 	O 	0.29460 0.44360 0.55680 -0.32100
O 	O 	0.39960 0.51090 0.57690 -0.61900
O 	O 	0.30290 0.51370 0.55830 -0.47300
O 	O 	0.21340 0.47540 0.55800 -0.35400
O 	O 	0.12190 0.43910 0.55570 -0.47600
O 	O 	0.16670 0.52970 0.57110 -0.44100
O 	O 	0.22900 0.53480 0.51410 -0.44300
O 	O 	0.13210 0.49370 0.51610 -0.43700
O 	O 	0.14250 0.38160 0.51510 -0.46900
O 	O 	0.36300 0.47760 0.51960 -0.49700
O 	O 	0.44460 0.38500 0.55280 -0.47700
O 	O 	0.22210 0.29270 0.55060 -0.47100
O 	O 	0.34080 0.24830 0.60660 -0.48100
O 	O 	0.43680 0.28920 0.61250 -0.44800
O 	O 	0.51510 0.25830 0.58410 -0.52000
O 	O 	0.42440 0.22820 0.57500 -0.44000
O 	O 	0.29070 0.24200 0.55080 -0.44800
O 	O 	0.38160 0.28040 0.55020 -0.36900
O 	O 	0.47250 0.31870 0.55050 -0.48700
O 	O 	0.38710 0.33770 0.51750 -0.30500
O 	O 	0.30580 0.30400 0.51660 -0.28800
O 	O 	0.22190 0.29310 0.48200 -0.48700
O 	O 	0.44160 0.38470 0.48400 -0.49300
O 	O 	0.47990 0.42450 0.43250 -0.60300
O 	O 	0.35270 0.37840 0.45320 -0.32300
O 	O 	0.27500 0.34350 0.45160 -0.31900
O 	O 	0.15860 0.28500 0.42780 -0.57100
O 	O 	0.17640 0.34740 0.46210 -0.47600
O 	O 	0.39370 0.43990 0.46660 -0.49400
O 	O 	0.29590 0.44340 0.47880 -0.29000
O 	O 	0.21840 0.40850 0.47690 -0.27500
O 	O 	0.12600 0.43800 0.47430 -0.46500
O 	O 	0.21490 0.47420 0.47560 -0.33600
O 	O 	0.30430 0.51600 0.47920 -0.44600
O 	O 	0.16840 0.52910 0.45850 -0.45400
O 	O 	0.14970 0.47230 0.42040 -0.44600
O 	O 	0.25210 0.51310 0.42120 -0.45300
O 	O 	0.33550 0.47980 0.42260 -0.46500
O 	O 	0.24630 0.44180 0.42240 -0.34800
O 	O 	0.15340 0.40390 0.42010 -0.46900
O 	O 	0.21180 0.33840 0.39590 -0.48600
O 	O 	0.30320 0.37510 0.39800 -0.36700
O 	O 	0.38930 0.41600 0.39680 -0.48500
O 	O 	0.43630 0.35980 0.42110 -0.47200
O 	O 	0.34830 0.32330 0.41970 -0.34900
O 	O 	0.26000 0.28270 0.41690 -0.47700
O 	O 	0.29070 0.24190 0.48370 -0.46500
O 	O 	0.38060 0.28160 0.48570 -0.34400
O 	O 	0.47440 0.31850 0.48340 -0.45800
O 	O 	0.46550 0.25880 0.51710 -0.47500
O 	O 	0.36600 0.21680 0.51440 -0.46100
O 	O 	0.42490 0.22960 0.45750 -0.45000
O 	O 	0.44280 0.28980 0.42630 -0.45300
O 	O 	0.34360 0.25060 0.42200 -0.45700
O 	O 	0.38220 0.28750 0.36920 -0.44800
O 	O 	0.38920 0.35780 0.36170 -0.46400
O 	O 	0.28630 0.31570 0.35850 -0.44800
O 	O 	0.30050 0.37870 0.33200 -0.44100
O 	O 	0.31180 0.44010 0.36530 -0.44600
O 	O 	0.21340 0.40290 0.36490 -0.43900
O 	O 	0.22250 0.47180 0.36770 -0.44400
N 	N 	0.65270 0.43060 0.60700 -0.30200
H 	H 	0.64290 0.44950 0.61270 0.13000
N 	N 	0.69010 0.41790 0.62580 -0.14200
N 	N 	0.65870 0.29340 0.55290 -0.22200
H 	H 	0.66950 0.27820 0.53850 0.08300
N 	N 	0.61790 0.28710 0.57340 -0.24400
N 	N 	0.55590 0.18820 0.59110 -0.24400
N 	N 	0.51210 0.18060 0.57220 -0.21600
H 	H 	0.50150 0.19160 0.55440 0.09700
C 	C 	0.48890 0.15150 0.58800 0.28400
C 	C 	0.51830 0.14120 0.61660 -0.20800
C 	C 	0.55970 0.16390 0.61850 0.30200
N 	N 	0.31250 0.25840 0.73390 -0.21000
H 	H 	0.29300 0.27030 0.72100 0.12500
N 	N 	0.32170 0.22330 0.73030 -0.22300
N 	N 	0.06500 0.44420 0.02180 -0.14500
N 	N 	0.10940 0.42970 0.02680 -0.21700
H 	H 	0.13080 0.43730 0.04140 0.13500
N 	N 	0.06000 0.35050 0.90410 -0.29200
N 	N 	0.02720 0.33710 0.92650 -0.22400
H 	H 	0.00900 0.31970 0.92080 0.05500
N 	N 	0.06590 0.26260 0.80810 -0.21400
H 	H 	0.03760 0.25840 0.81750 0.05800
N 	N 	0.09510 0.29320 0.81510 -0.30600
N 	N 	0.21540 0.22140 0.71560 -0.26000
N 	N 	0.18900 0.24260 0.69210 -0.25100
H 	H 	0.19460 0.24420 0.67030 0.11100
N 	N 	0.25070 0.17730 0.61960 -0.19300
H 	H 	0.27910 0.18590 0.61430 0.07200
N 	N 	0.23330 0.17630 0.65210 -0.24600
C 	C 	0.59340 0.41270 0.56750 -1.14600
H 	H 	0.58700 0.43720 0.56610 0.31100
H 	H 	0.60110 0.40390 0.54490 0.32700
H 	H 	0.56460 0.40100 0.57630 0.32000
C 	C 	0.63080 0.40710 0.58820 0.46300
C 	C 	0.65840 0.37350 0.59590 -0.18200
C 	C 	0.69430 0.38660 0.62040 0.17000
C 	C 	0.73200 0.35830 0.63530 -0.52300
H 	H 	0.75900 0.35520 0.61950 0.13400
H 	H 	0.74460 0.36600 0.65720 0.14300
H 	H 	0.71510 0.33650 0.63830 0.15100
C 	C 	0.72530 0.33270 0.53620 -0.64000
H 	H 	0.74230 0.31210 0.52870 0.18400
H 	H 	0.71610 0.34640 0.51650 0.18300
H 	H 	0.74680 0.34610 0.55090 0.17900
C 	C 	0.67890 0.32240 0.55630 0.22600
C 	C 	0.64900 0.34020 0.57960 -0.14700
C 	C 	0.61220 0.31860 0.58950 0.22800
C 	C 	0.57120 0.32690 0.61490 -0.70300
H 	H 	0.56360 0.30650 0.62820 0.22200
H 	H 	0.58180 0.34520 0.63010 0.21000
H 	H 	0.54230 0.33430 0.60250 0.21700
C 	C 	0.44360 0.13820 0.57250 -0.79600
H 	H 	0.45170 0.12030 0.55610 0.25000
H 	H 	0.42270 0.12880 0.59020 0.24600
H 	H 	0.42670 0.15680 0.56090 0.24100
C 	C 	0.60100 0.15950 0.64100 -0.83200
H 	H 	0.59300 0.16850 0.66340 0.25100
H 	H 	0.60880 0.13520 0.64280 0.25400
H 	H 	0.62900 0.17180 0.63190 0.25400
C 	C 	0.52720 0.06180 0.59080 -0.60400
H 	H 	0.55870 0.07110 0.58400 0.17900
H 	H 	0.52900 0.03680 0.59150 0.17600
H 	H 	0.50240 0.06870 0.57440 0.18800
C 	C 	0.49750 0.11300 0.66960 0.12600
C 	C 	0.51140 0.11080 0.63430 -0.06200
C 	C 	0.51390 0.07500 0.62520 0.16800
N 	N 	0.50160 0.05520 0.65490 -0.13100
N 	N 	0.49150 0.07860 0.68230 -0.18300
H 	H 	0.48310 0.07300 0.70300 0.09600
C 	C 	0.49000 0.14440 0.69730 -0.51800
H 	H 	0.46600 0.16070 0.68850 0.15300
H 	H 	0.47810 0.13500 0.71870 0.15200
H 	H 	0.52080 0.15610 0.70100 0.15400
C 	C 	0.47800 0.23950 0.78810 -0.90900
H 	H 	0.48180 0.26210 0.77800 0.26900
H 	H 	0.50780 0.23250 0.79920 0.27900
H 	H 	0.46940 0.22300 0.77040 0.26800
C 	C 	0.38690 0.24570 0.80980 -0.29800
C 	C 	0.36670 0.24830 0.84360 0.50900
N 	N 	0.40610 0.24490 0.86760 -0.29000
N 	N 	0.45060 0.24010 0.84870 -0.23200
H 	H 	0.47970 0.23740 0.85730 0.11900
C 	C 	0.43870 0.24060 0.81300 0.33400
C 	C 	0.31870 0.25070 0.84900 -1.28000
H 	H 	0.30250 0.23060 0.83960 0.37600
H 	H 	0.31240 0.25200 0.87330 0.38300
H 	H 	0.30610 0.27120 0.83790 0.37600
C 	C 	0.32730 0.30890 0.77130 -0.64100
H 	H 	0.29260 0.31170 0.77580 0.18500
H 	H 	0.34570 0.31400 0.79190 0.19100
H 	H 	0.33710 0.32460 0.75320 0.20500
C 	C 	0.33780 0.27110 0.75990 0.21300
C 	C 	0.36100 0.24840 0.77650 -0.08100
C 	C 	0.35290 0.21480 0.75780 0.12500
C 	C 	0.37220 0.17790 0.76130 -0.53100
H 	H 	0.35480 0.16300 0.74560 0.11700
H 	H 	0.40690 0.17750 0.75610 0.14900
H 	H 	0.36700 0.16990 0.78450 0.14400
C 	C 	0.98970 0.43600 0.98770 -0.62800
H 	H 	0.98080 0.45850 0.99670 0.18100
H 	H 	0.98570 0.43600 0.96310 0.18500
H 	H 	0.96870 0.41860 0.99770 0.18400
C 	C 	0.04160 0.42850 0.99640 0.19900
C 	C 	0.07130 0.40080 0.98480 -0.12500
C 	C 	0.11650 0.40260 0.00660 0.22600
C 	C 	0.16220 0.38180 0.00480 -0.66200
H 	H 	0.15680 0.35970 0.01570 0.18800
H 	H 	0.17110 0.37830 0.98110 0.19100
H 	H 	0.18840 0.39390 0.01650 0.18900
C 	C 	0.12380 0.39490 0.91000 -0.80200
H 	H 	0.11390 0.40580 0.88880 0.21100
H 	H 	0.13450 0.41230 0.92600 0.25600
H 	H 	0.15050 0.37900 0.90550 0.19800
C 	C 	0.08410 0.37670 0.92380 0.24300
C 	C 	0.06260 0.37510 0.96030 -0.15500
C 	C 	0.02370 0.35080 0.95640 0.25200
C 	C 	0.99260 0.33940 0.98530 -0.70700
H 	H 	0.97860 0.31700 0.98010 0.19900
H 	H 	0.01240 0.33780 0.00580 0.22300
H 	H 	0.96650 0.35590 0.98890 0.19700
C 	C 	0.17490 0.31170 0.79180 -0.72400
H 	H 	0.18450 0.31740 0.81500 0.17100
H 	H 	0.20100 0.29890 0.78080 0.21800
H 	H 	0.16880 0.33270 0.77910 0.19000
C 	C 	0.13070 0.29100 0.79250 0.23600
C 	C 	0.12330 0.26120 0.77110 -0.12000
C 	C 	0.08700 0.24220 0.78600 0.20100
C 	C 	0.06060 0.20810 0.77490 -0.60800
H 	H 	0.02990 0.21370 0.76370 0.16900
H 	H 	0.08140 0.19550 0.75920 0.18200
H 	H 	0.05420 0.19410 0.79490 0.17800
C 	C 	0.21990 0.20780 0.77580 -0.72000
H 	H 	0.25250 0.19960 0.77000 0.19000
H 	H 	0.22200 0.22360 0.79490 0.21700
H 	H 	0.19940 0.18840 0.78210 0.21900
C 	C 	0.19780 0.22610 0.74520 0.26600
C 	C 	0.15900 0.25210 0.74510 -0.24600
C 	C 	0.15210 0.26060 0.71030 0.44500
C 	C 	0.12350 0.28400 0.69540 -1.08500
H 	H 	0.09090 0.28290 0.70520 0.31000
H 	H 	0.13710 0.30680 0.69900 0.30400
H 	H 	0.12170 0.27930 0.67100 0.29900
C 	C 	0.15340 0.15800 0.67770 -0.65800
H 	H 	0.12960 0.17650 0.67710 0.19800
H 	H 	0.13660 0.13600 0.67730 0.19000
H 	H 	0.17280 0.15980 0.69840 0.17200
C 	C 	0.18630 0.16070 0.64720 0.20800
C 	C 	0.17770 0.15290 0.61380 -0.13700
C 	C 	0.21930 0.16350 0.59560 0.16700
C 	C 	0.23110 0.15870 0.55620 -0.55300
H 	H 	0.26430 0.15020 0.55360 0.15000
H 	H 	0.20830 0.14230 0.54640 0.16400
H 	H 	0.22790 0.18070 0.54460 0.15400
C 	C 	0.09890 0.18370 0.55320 -0.54800
H 	H 	0.08180 0.19990 0.56770 0.15200
H 	H 	0.13120 0.19270 0.54770 0.15700
H 	H 	0.08050 0.18030 0.53230 0.15800
C 	C 	0.12550 0.10050 0.60440 0.20600
N 	N 	0.08600 0.09100 0.58210 -0.24800
N 	N 	0.07290 0.12060 0.56230 -0.19400
H 	H 	0.05000 0.12160 0.54690 0.07900
C 	C 	0.10430 0.14850 0.57230 0.15900
C 	C 	0.13680 0.13600 0.59830 -0.11900
C 	C 	0.14700 0.07500 0.62770 -0.68400
H 	H 	0.14520 0.05230 0.61750 0.20100
H 	H 	0.18100 0.08090 0.63200 0.20100
H 	H 	0.12900 0.07510 0.64910 0.18100
O 	O 	0.31860 0.38950 0.51860 -0.48200
K 	K 	0.35030 0.40120 0.51800 0.81000
O 	O 	0.27200 0.37040 0.51360 -0.44700
W 	W 	0.32488 0.06810 0.14476 0.98800
W 	W 	0.22723 0.01528 0.14283 1.00800
W 	W 	0.15749 0.09545 0.17422 1.00000
W 	W 	0.25496 0.14861 0.17532 0.99900
W 	W 	0.18785 0.22590 0.13890 1.36100
W 	W 	0.08793 0.17689 0.14989 1.01000
W 	W 	0.07684 0.09941 0.09653 0.99500
W 	W 	0.29523 0.18733 0.09400 1.04800
W 	W 	0.36219 0.10894 0.06173 1.02700
W 	W 	0.14578 0.01982 0.06792 1.35900
W 	W 	0.26216 0.96883 0.06084 1.00800
W 	W 	0.36711 0.01487 0.06840 1.05300
W 	W 	0.36678 0.01374 0.97009 1.03000
W 	W 	0.26210 0.96907 0.96274 1.01000
W 	W 	0.14611 0.01680 0.97122 1.01200
W 	W 	0.35988 0.11010 0.96501 1.03100
W 	W 	0.28934 0.18908 0.93726 1.31100
W 	W 	0.07795 0.09565 0.94062 1.31500
W 	W 	0.03394 0.14641 0.01680 1.07400
W 	W 	0.25047 0.23702 0.01669 1.05600
W 	W 	0.14392 0.27522 0.06010 0.99900
W 	W 	0.04336 0.22609 0.07022 1.24200
W 	W 	0.03762 0.23038 0.97338 1.00500
W 	W 	0.14644 0.27093 0.96391 0.97900
W 	W 	0.18549 0.21940 0.88521 0.97000
W 	W 	0.07601 0.17968 0.89367 1.01100
W 	W 	0.14424 0.10238 0.85888 1.02500
W 	W 	0.25533 0.13958 0.85874 0.98400
W 	W 	0.32493 0.05983 0.88961 0.99300
W 	W 	0.21419 0.02232 0.88831 1.03400
Co	Co	0.95828 0.04628 0.92383 1.07000
Co	Co	0.91130 0.26256 0.08071 1.13300
Co	Co	0.22281 0.30431 0.19312 1.08000
Co	Co	0.42176 0.17644 0.35903 0.99200
K 	K 	0.25830 0.14393 0.01519 0.80200
P 	P 	0.18490 0.14493 0.10280 0.55300
P 	P 	0.25920 0.05878 0.06890 0.56800
P 	P 	0.25590 0.05854 0.96360 0.54600
P 	P 	0.18090 0.14442 0.93080 0.58600
P 	P 	0.13620 0.19803 0.01700 0.55900
O 	O 	0.20760 0.12200 0.19990 -0.44800
O 	O 	0.19680 0.05680 0.16930 -0.43800
O 	O 	0.29130 0.10180 0.16760 -0.44200
O 	O 	0.28630 0.02970 0.16500 -0.44300
O 	O 	0.35440 0.02780 0.11140 -0.45100
O 	O 	0.25510 0.98490 0.11230 -0.44500
O 	O 	0.17060 0.02060 0.11390 -0.48700
O 	O 	0.26060 0.05830 0.10950 -0.35100
O 	O 	0.35060 0.09720 0.11020 -0.46400
O 	O 	0.29330 0.16250 0.13600 -0.47000
O 	O 	0.20320 0.12560 0.13530 -0.35400
O 	O 	0.11320 0.08710 0.13930 -0.46900
O 	O 	0.12110 0.14420 0.17430 -0.44900
O 	O 	0.21790 0.18850 0.17190 -0.44600
O 	O 	0.21090 0.25920 0.16490 -0.55300
O 	O 	0.12770 0.21580 0.16350 -0.46800
O 	O 	0.06560 0.14330 0.11730 -0.46500
O 	O 	0.15760 0.17880 0.11510 -0.37600
O 	O 	0.24480 0.21640 0.11410 -0.48900
O 	O 	0.23000 0.15510 0.08060 -0.28700
O 	O 	0.14950 0.12270 0.08050 -0.28600
O 	O 	0.10910 0.06050 0.07200 -0.50000
O 	O 	0.32690 0.15250 0.06770 -0.47200
O 	O 	0.28470 0.09070 0.05490 -0.29600
O 	O 	0.20540 0.05640 0.05680 -0.32100
O 	O 	0.10040 0.98910 0.07690 -0.61900
O 	O 	0.19710 0.98630 0.05830 -0.47300
O 	O 	0.28660 0.02460 0.05800 -0.35400
O 	O 	0.37810 0.06090 0.05570 -0.47600
O 	O 	0.33330 0.97030 0.07110 -0.44100
O 	O 	0.27100 0.96520 0.01410 -0.44300
O 	O 	0.36790 0.00630 0.01610 -0.43700
O 	O 	0.35750 0.11840 0.01510 -0.46900
O 	O 	0.13700 0.02240 0.01960 -0.49700
O 	O 	0.05540 0.11500 0.05280 -0.47700
O 	O 	0.27790 0.20730 0.05060 -0.47100
O 	O 	0.15920 0.25170 0.10660 -0.48100
O 	O 	0.06320 0.21080 0.11250 -0.44800
O 	O 	0.98490 0.24170 0.08410 -0.52000
O 	O 	0.07560 0.27180 0.07500 -0.44000
O 	O 	0.20930 0.25800 0.05080 -0.44800
O 	O 	0.11840 0.21960 0.05020 -0.36900
O 	O 	0.02750 0.18130 0.05050 -0.48700
O 	O 	0.11290 0.16230 0.01750 -0.30500
O 	O 	0.19420 0.19600 0.01660 -0.28800
O 	O 	0.27810 0.20690 0.98200 -0.48700
O 	O 	0.05840 0.11530 0.98400 -0.49300
O 	O 	0.02010 0.07550 0.93250 -0.60300
O 	O 	0.14730 0.12160 0.95320 -0.32300
O 	O 	0.22500 0.15650 0.95160 -0.31900
O 	O 	0.34140 0.21500 0.92780 -0.57100
O 	O 	0.32360 0.15260 0.96210 -0.47600
O 	O 	0.10630 0.06010 0.96660 -0.49400
O 	O 	0.20410 0.05660 0.97880 -0.29000
O 	O 	0.28160 0.09150 0.97690 -0.27500
O 	O 	0.37400 0.06200 0.97430 -0.46500
O 	O 	0.28510 0.02580 0.97560 -0.33600
O 	O 	0.19570 0.98400 0.97920 -0.44600
O 	O 	0.33160 0.97090 0.95850 -0.45400
O 	O 	0.35030 0.02770 0.92040 -0.44600
O 	O 	0.24790 0.98690 0.92120 -0.45300
O 	O 	0.16450 0.02020 0.92260 -0.46500
O 	O 	0.25370 0.05820 0.92240 -0.34800
O 	O 	0.34660 0.09610 0.92010 -0.46900
O 	O 	0.28820 0.16160 0.89590 -0.48600
O 	O 	0.19680 0.12490 0.89800 -0.36700
O 	O 	0.11070 0.08400 0.89680 -0.48500
O 	O 	0.06370 0.14020 0.92110 -0.47200
O 	O 	0.15170 0.17670 0.91970 -0.34900
O 	O 	0.24000 0.21730 0.91690 -0.47700
O 	O 	0.20930 0.25810 0.98370 -0.46500
O 	O 	0.11940 0.21840 0.98570 -0.34400
O 	O 	0.02560 0.18150 0.98340 -0.45800
O 	O 	0.03450 0.24120 0.01710 -0.47500
O 	O 	0.13400 0.28320 0.01440 -0.46100
O 	O 	0.07510 0.27040 0.95750 -0.45000
O 	O 	0.05720 0.21020 0.92630 -0.45300
O 	O 	0.15640 0.24940 0.92200 -0.45700
O 	O 	0.11780 0.21250 0.86920 -0.44800
O 	O 	0.11080 0.14220 0.86170 -0.46400
O 	O 	0.21370 0.18430 0.85850 -0.44800
O 	O 	0.19950 0.12130 0.83200 -0.44100
O 	O 	0.18820 0.05990 0.86530 -0.44600
O 	O 	0.28660 0.09710 0.86490 -0.43900
O 	O 	0.27750 0.02820 0.86770 -0.44400
N 	N 	0.84730 0.06940 0.10700 -0.30200
H 	H 	0.85710 0.05050 0.11270 0.13000
N 	N 	0.80990 0.08210 0.12580 -0.14200
N 	N 	0.84130 0.20660 0.05290 -0.22200
H 	H 	0.83050 0.22180 0.03850 0.08300
N 	N 	0.88210 0.21290 0.07340 -0.24400
N 	N 	0.94410 0.31180 0.09110 -0.24400
N 	N 	0.98790 0.31940 0.07220 -0.21600
H 	H 	0.99850 0.30840 0.05440 0.09700
C 	C 	0.01110 0.34850 0.08800 0.28400
C 	C 	0.98170 0.35880 0.11660 -0.20800
C 	C 	0.94030 0.33610 0.11850 0.30200
N 	N 	0.18750 0.24160 0.23390 -0.21000
H 	H 	0.20700 0.22970 0.22100 0.12500
N 	N 	0.17830 0.27670 0.23030 -0.22300
N 	N 	0.43500 0.05580 0.52180 -0.14500
N 	N 	0.39060 0.07030 0.52680 -0.21700
H 	H 	0.36920 0.06270 0.54140 0.13500
N 	N 	0.44000 0.14950 0.40410 -0.29200
N 	N 	0.47280 0.16290 0.42650 -0.22400
H 	H 	0.49100 0.18030 0.42080 0.05500
N 	N 	0.43410 0.23740 0.30810 -0.21400
H 	H 	0.46240 0.24160 0.31750 0.05800
N 	N 	0.40490 0.20680 0.31510 -0.30600
N 	N 	0.28460 0.27860 0.21560 -0.26000
N 	N 	0.31100 0.25740 0.19210 -0.25100
H 	H 	0.30540 0.25580 0.17030 0.11100
N 	N 	0.24930 0.32270 0.11960 -0.19300
H 	H 	0.22090 0.31410 0.11430 0.07200
N 	N 	0.26670 0.32370 0.15210 -0.24600
C 	C 	0.90660 0.08730 0.06750 -1.14600
H 	H 	0.91300 0.06280 0.06610 0.31100
H 	H 	0.89890 0.09610 0.04490 0.32700
H 	H 	0.93540 0.09900 0.07630 0.32000
C 	C 	0.86920 0.09290 0.08820 0.46300
C 	C 	0.84160 0.12650 0.09590 -0.18200
C 	C 	0.80570 0.11340 0.12040 0.17000
C 	C 	0.76800 0.14170 0.13530 -0.52300
H 	H 	0.74100 0.14480 0.11950 0.13400
H 	H 	0.75540 0.13400 0.15720 0.14300
H 	H 	0.78490 0.16350 0.13830 0.15100
C 	C 	0.77470 0.16730 0.03620 -0.64000
H 	H 	0.75770 0.18790 0.02870 0.18400
H 	H 	0.78390 0.15360 0.01650 0.18300
H 	H 	0.75320 0.15390 0.05090 0.17900
C 	C 	0.82110 0.17760 0.05630 0.22600
C 	C 	0.85100 0.15980 0.07960 -0.14700
C 	C 	0.88780 0.18140 0.08950 0.22800
C 	C 	0.92880 0.17310 0.11490 -0.70300
H 	H 	0.93640 0.19350 0.12820 0.22200
H 	H 	0.91820 0.15480 0.13010 0.21000
H 	H 	0.95770 0.16570 0.10250 0.21700
C 	C 	0.05640 0.36180 0.07250 -0.79600
H 	H 	0.04830 0.37970 0.05610 0.25000
H 	H 	0.07730 0.37120 0.09020 0.24600
H 	H 	0.07330 0.34320 0.06090 0.24100
C 	C 	0.89900 0.34050 0.14100 -0.83200
H 	H 	0.90700 0.33150 0.16340 0.25100
H 	H 	0.89120 0.36480 0.14280 0.25400
H 	H 	0.87100 0.32820 0.13190 0.25400
C 	C 	0.97280 0.43820 0.09080 -0.60400
H 	H 	0.94130 0.42890 0.08400 0.17900
H 	H 	0.97100 0.46320 0.09150 0.17600
H 	H 	0.99760 0.43130 0.07440 0.18800
C 	C 	0.00250 0.38700 0.16960 0.12600
C 	C 	0.98860 0.38920 0.13430 -0.06200
C 	C 	0.98610 0.42500 0.12520 0.16800
N 	N 	0.99840 0.44480 0.15490 -0.13100
N 	N 	0.00850 0.42140 0.18230 -0.18300
H 	H 	0.01690 0.42700 0.20300 0.09600
C 	C 	0.01000 0.35560 0.19730 -0.51800
H 	H 	0.03400 0.33930 0.18850 0.15300
H 	H 	0.02190 0.36500 0.21870 0.15200
H 	H 	0.97920 0.34390 0.20100 0.15400
C 	C 	0.02200 0.26050 0.28810 -0.91000
H 	H 	0.01820 0.23790 0.27800 0.26900
H 	H 	0.99220 0.26750 0.29920 0.27900
H 	H 	0.03060 0.27700 0.27040 0.26800
C 	C 	0.11310 0.25430 0.30980 -0.29800
C 	C 	0.13330 0.25170 0.34360 0.50900
N 	N 	0.09390 0.25510 0.36760 -0.29000
N 	N 	0.04940 0.25990 0.34870 -0.23200
H 	H 	0.02030 0.26260 0.35730 0.11900
C 	C 	0.06130 0.25940 0.31300 0.33400
C 	C 	0.18130 0.24930 0.34900 -1.28000
H 	H 	0.19750 0.26940 0.33960 0.37600
H 	H 	0.18760 0.24800 0.37330 0.38300
H 	H 	0.19390 0.22880 0.33790 0.37600
C 	C 	0.17270 0.19110 0.27130 -0.64100
H 	H 	0.20740 0.18830 0.27580 0.18500
H 	H 	0.15430 0.18600 0.29190 0.19100
H 	H 	0.16290 0.17540 0.25320 0.20500
C 	C 	0.16220 0.22890 0.25990 0.21300
C 	C 	0.13900 0.25160 0.27650 -0.08100
C 	C 	0.14710 0.28520 0.25780 0.12500
C 	C 	0.12780 0.32210 0.26130 -0.53100
H 	H 	0.14520 0.33700 0.24560 0.11700
H 	H 	0.09310 0.32250 0.25610 0.14900
H 	H 	0.13300 0.33010 0.28450 0.14400
C 	C 	0.51030 0.06400 0.48770 -0.62800
H 	H 	0.51920 0.04150 0.49670 0.18200
H 	H 	0.51430 0.06400 0.46310 0.18500
H 	H 	0.53130 0.08140 0.49770 0.18400
C 	C 	0.45840 0.07150 0.49640 0.19900
C 	C 	0.42870 0.09920 0.48480 -0.12500
C 	C 	0.38350 0.09740 0.50660 0.22600
C 	C 	0.33780 0.11820 0.50480 -0.66200
H 	H 	0.34320 0.14030 0.51570 0.18800
H 	H 	0.32890 0.12170 0.48110 0.19100
H 	H 	0.31160 0.10610 0.51650 0.18900
C 	C 	0.37620 0.10510 0.41000 -0.80200
H 	H 	0.38610 0.09420 0.38880 0.21100
H 	H 	0.36550 0.08770 0.42600 0.25600
H 	H 	0.34950 0.12100 0.40550 0.19800
C 	C 	0.41590 0.12330 0.42380 0.24300
C 	C 	0.43740 0.12490 0.46030 -0.15500
C 	C 	0.47630 0.14920 0.45640 0.25200
C 	C 	0.50740 0.16060 0.48530 -0.70700
H 	H 	0.52140 0.18300 0.48010 0.19900
H 	H 	0.48760 0.16220 0.50580 0.22300
H 	H 	0.53350 0.14410 0.48890 0.19700
C 	C 	0.32510 0.18830 0.29180 -0.72400
H 	H 	0.31550 0.18260 0.31500 0.17100
H 	H 	0.29900 0.20110 0.28080 0.21800
H 	H 	0.33120 0.16730 0.27910 0.19000
C 	C 	0.36930 0.20900 0.29250 0.23600
C 	C 	0.37670 0.23880 0.27110 -0.12000
C 	C 	0.41300 0.25780 0.28600 0.20100
C 	C 	0.43940 0.29190 0.27490 -0.60800
H 	H 	0.47010 0.28630 0.26370 0.16900
H 	H 	0.41860 0.30450 0.25920 0.18200
H 	H 	0.44580 0.30590 0.29490 0.17800
C 	C 	0.28010 0.29220 0.27580 -0.72000
H 	H 	0.24750 0.30040 0.27000 0.19000
H 	H 	0.27800 0.27640 0.29490 0.21700
H 	H 	0.30060 0.31160 0.28210 0.21900
C 	C 	0.30220 0.27390 0.24520 0.26600
C 	C 	0.34100 0.24790 0.24510 -0.24600
C 	C 	0.34790 0.23940 0.21030 0.44500
C 	C 	0.37650 0.21600 0.19540 -1.08500
H 	H 	0.40910 0.21710 0.20520 0.31000
H 	H 	0.36290 0.19320 0.19900 0.30400
H 	H 	0.37830 0.22070 0.17100 0.29900
C 	C 	0.34660 0.34200 0.17770 -0.65800
H 	H 	0.37040 0.32350 0.17710 0.19800
H 	H 	0.36340 0.36400 0.17730 0.19000
H 	H 	0.32720 0.34020 0.19840 0.17200
C 	C 	0.31370 0.33930 0.14720 0.20800
C 	C 	0.32230 0.34710 0.11380 -0.13700
C 	C 	0.28070 0.33650 0.09560 0.16700
C 	C 	0.26890 0.34130 0.05620 -0.55300
H 	H 	0.23570 0.34980 0.05360 0.15000
H 	H 	0.29170 0.35770 0.04640 0.16400
H 	H 	0.27210 0.31930 0.04460 0.15400
C 	C 	0.40110 0.31630 0.05320 -0.54800
H 	H 	0.41820 0.30010 0.06770 0.15200
H 	H 	0.36880 0.30730 0.04770 0.15700
H 	H 	0.41950 0.31970 0.03230 0.15800
C 	C 	0.37450 0.39950 0.10440 0.20600
N 	N 	0.41400 0.40900 0.08210 -0.24800
N 	N 	0.42710 0.37940 0.06230 -0.19400
H 	H 	0.45000 0.37840 0.04690 0.07900
C 	C 	0.39570 0.35150 0.07230 0.15900
C 	C 	0.36320 0.36400 0.09830 -0.11900
C 	C 	0.35300 0.42500 0.12770 -0.68400
H 	H 	0.35480 0.44770 0.11750 0.20100
H 	H 	0.31900 0.41910 0.13200 0.20100
H 	H 	0.37100 0.42490 0.14910 0.18100
O 	O 	0.18140 0.11050 0.01860 -0.48200
K 	K 	0.14970 0.09880 0.01800 0.81000
O 	O 	0.22800 0.12960 0.01360 -0.44700
W 	W 	0.82488 0.43190 0.85524 0.98800
W 	W 	0.72723 0.48472 0.85717 1.00700
W 	W 	0.65749 0.40455 0.82578 1.00000
W 	W 	0.75496 0.35139 0.82468 0.99900
W 	W 	0.68785 0.27410 0.86110 1.36100
W 	W 	0.58793 0.32311 0.85011 1.01000
W 	W 	0.57684 0.40059 0.90347 0.99500
W 	W 	0.79523 0.31267 0.90600 1.04800
W 	W 	0.86219 0.39106 0.93827 1.02700
W 	W 	0.64578 0.48018 0.93208 1.35900
W 	W 	0.76216 0.53117 0.93916 1.00700
W 	W 	0.86711 0.48513 0.93160 1.05300
W 	W 	0.86678 0.48626 0.02991 1.03000
W 	W 	0.76210 0.53093 0.03726 1.01000
W 	W 	0.64611 0.48320 0.02878 1.01200
W 	W 	0.85988 0.38990 0.03499 1.03100
W 	W 	0.78934 0.31092 0.06274 1.31100
W 	W 	0.57795 0.40435 0.05938 1.31500
W 	W 	0.53394 0.35359 0.98320 1.07400
W 	W 	0.75047 0.26298 0.98331 1.05600
W 	W 	0.64392 0.22478 0.93990 0.99900
W 	W 	0.54336 0.27391 0.92978 1.24200
W 	W 	0.53762 0.26962 0.02662 1.00500
W 	W 	0.64644 0.22907 0.03609 0.97900
W 	W 	0.68549 0.28060 0.11479 0.97000
W 	W 	0.57601 0.32032 0.10633 1.01100
W 	W 	0.64424 0.39762 0.14112 1.02500
W 	W 	0.75533 0.36042 0.14126 0.98400
W 	W 	0.82493 0.44017 0.11039 0.99300
W 	W 	0.71419 0.47768 0.11169 1.03400
Co	Co	0.45828 0.45372 0.07617 1.07000
Co	Co	0.41130 0.23744 0.91929 1.13300
Co	Co	0.72281 0.19569 0.80688 1.08000
Co	Co	0.92176 0.32356 0.64097 0.99200
K 	K 	0.75830 0.35607 0.98481 0.80200
P 	P 	0.68490 0.35507 0.89720 0.55300
P 	P 	0.75920 0.44122 0.93110 0.56800
P 	P 	0.75590 0.44146 0.03640 0.54600
P 	P 	0.68090 0.35558 0.06920 0.58600
P 	P 	0.63620 0.30197 0.98300 0.55900
O 	O 	0.70760 0.37800 0.80010 -0.44800
O 	O 	0.69680 0.44320 0.83070 -0.43800
O 	O 	0.79130 0.39820 0.83240 -0.44200
O 	O 	0.78630 0.47030 0.83500 -0.44300
O 	O 	0.85440 0.47220 0.88860 -0.45100
O 	O 	0.75510 0.51510 0.88770 -0.44500
O 	O 	0.67060 0.47940 0.88610 -0.48700
O 	O 	0.76060 0.44170 0.89050 -0.35100
O 	O 	0.85060 0.40280 0.88980 -0.46400
O 	O 	0.79330 0.33750 0.86400 -0.47000
O 	O 	0.70320 0.37440 0.86470 -0.35400
O 	O 	0.61320 0.41290 0.86070 -0.46900
O 	O 	0.62110 0.35580 0.82570 -0.44900
O 	O 	0.71790 0.31150 0.82810 -0.44600
O 	O 	0.71090 0.24080 0.83510 -0.55300
O 	O 	0.62770 0.28420 0.83650 -0.46800
O 	O 	0.56560 0.35670 0.88270 -0.46500
O 	O 	0.65760 0.32120 0.88490 -0.37600
O 	O 	0.74480 0.28360 0.88590 -0.48900
O 	O 	0.73000 0.34490 0.91940 -0.28700
O 	O 	0.64950 0.37730 0.91950 -0.28600
O 	O 	0.60910 0.43950 0.92800 -0.50000
O 	O 	0.82690 0.34750 0.93230 -0.47200
O 	O 	0.78470 0.40930 0.94510 -0.29600
O 	O 	0.70540 0.44360 0.94320 -0.32100
O 	O 	0.60040 0.51090 0.92310 -0.61900
O 	O 	0.69710 0.51370 0.94170 -0.47300
O 	O 	0.78660 0.47540 0.94200 -0.35400
O 	O 	0.87810 0.43910 0.94430 -0.47600
O 	O 	0.83330 0.52970 0.92890 -0.44100
O 	O 	0.77100 0.53480 0.98590 -0.44300
O 	O 	0.86790 0.49370 0.98390 -0.43700
O 	O 	0.85750 0.38160 0.98490 -0.46900
O 	O 	0.63700 0.47760 0.98040 -0.49700
O 	O 	0.55540 0.38500 0.94720 -0.47700
O 	O 	0.77790 0.29270 0.94940 -0.47100
O 	O 	0.65920 0.24830 0.89340 -0.48100
O 	O 	0.56320 0.28920 0.88750 -0.44800
O 	O 	0.48490 0.25830 0.91590 -0.52000
O 	O 	0.57560 0.22820 0.92500 -0.44000
O 	O 	0.70930 0.24200 0.94920 -0.44800
O 	O 	0.61840 0.28040 0.94980 -0.36900
O 	O 	0.52750 0.31870 0.94950 -0.48700
O 	O 	0.61290 0.33770 0.98250 -0.30500
O 	O 	0.69420 0.30400 0.98340 -0.28800
O 	O 	0.77810 0.29310 0.01800 -0.48700
O 	O 	0.55840 0.38470 0.01600 -0.49300
O 	O 	0.52010 0.42450 0.06750 -0.60300
O 	O 	0.64730 0.37840 0.04680 -0.32300
O 	O 	0.72500 0.34350 0.04840 -0.31900
O 	O 	0.84140 0.28500 0.07220 -0.57100
O 	O 	0.82360 0.34740 0.03790 -0.47600
O 	O 	0.60630 0.43990 0.03340 -0.49400
O 	O 	0.70410 0.44340 0.02120 -0.29000
O 	O 	0.78160 0.40850 0.02310 -0.27600
O 	O 	0.87400 0.43800 0.02570 -0.46500
O 	O 	0.78510 0.47420 0.02440 -0.33600
O 	O 	0.69570 0.51600 0.02080 -0.44600
O 	O 	0.83160 0.52910 0.04150 -0.45400
O 	O 	0.85030 0.47230 0.07960 -0.44600
O 	O 	0.74790 0.51310 0.07880 -0.45300
O 	O 	0.66450 0.47980 0.07740 -0.46500
O 	O 	0.75370 0.44180 0.07760 -0.34800
O 	O 	0.84660 0.40390 0.07990 -0.46900
O 	O 	0.78820 0.33840 0.10410 -0.48600
O 	O 	0.69680 0.37510 0.10200 -0.36700
O 	O 	0.61070 0.41600 0.10320 -0.48500
O 	O 	0.56370 0.35980 0.07890 -0.47200
O 	O 	0.65170 0.32330 0.08030 -0.34900
O 	O 	0.74000 0.28270 0.08310 -0.47700
O 	O 	0.70930 0.24190 0.01630 -0.46500
O 	O 	0.61940 0.28160 0.01430 -0.34400
O 	O 	0.52560 0.31850 0.01660 -0.45800
O 	O 	0.53450 0.25880 0.98290 -0.47500
O 	O 	0.63400 0.21680 0.98560 -0.46100
O 	O 	0.57510 0.22960 0.04250 -0.45000
O 	O 	0.55720 0.28980 0.07370 -0.45300
O 	O 	0.65640 0.25060 0.07800 -0.45700
O 	O 	0.61780 0.28750 0.13080 -0.44800
O 	O 	0.61080 0.35780 0.13830 -0.46400
O 	O 	0.71370 0.31570 0.14150 -0.44800
O 	O 	0.69950 0.37870 0.16800 -0.44100
O 	O 	0.68820 0.44010 0.13470 -0.44600
O 	O 	0.78660 0.40290 0.13510 -0.43900
O 	O 	0.77750 0.47180 0.13230 -0.44400
N 	N 	0.34730 0.43060 0.89300 -0.30200
H 	H 	0.35710 0.44950 0.88730 0.13000
N 	N 	0.30990 0.41790 0.87420 -0.14200
N 	N 	0.34130 0.29340 0.94710 -0.22200
H 	H 	0.33050 0.27820 0.96150 0.08300
N 	N 	0.38210 0.28710 0.92660 -0.24400
N 	N 	0.44410 0.18820 0.90890 -0.24400
N 	N 	0.48790 0.18060 0.92780 -0.21600
H 	H 	0.49850 0.19160 0.94560 0.09700
C 	C 	0.51110 0.15150 0.91200 0.28400
C 	C 	0.48170 0.14120 0.88340 -0.20800
C 	C 	0.44030 0.16390 0.88150 0.30200
N 	N 	0.68750 0.25840 0.76610 -0.21000
H 	H 	0.70700 0.27030 0.77900 0.12500
N 	N 	0.67830 0.22330 0.76970 -0.22300
N 	N 	0.93500 0.44420 0.47820 -0.14500
N 	N 	0.89060 0.42970 0.47320 -0.21700
H 	H 	0.86920 0.43730 0.45860 0.13500
N 	N 	0.94000 0.35050 0.59590 -0.29200
N 	N 	0.97280 0.33710 0.57350 -0.22400
H 	H 	0.99100 0.31970 0.57920 0.05500
N 	N 	0.93410 0.26260 0.69190 -0.21400
H 	H 	0.96240 0.25840 0.68250 0.05800
N 	N 	0.90490 0.29320 0.68490 -0.30600
N 	N 	0.78460 0.22140 0.78440 -0.26000
N 	N 	0.81100 0.24260 0.80790 -0.25100
H 	H 	0.80540 0.24420 0.82970 0.11100
N 	N 	0.74930 0.17730 0.88040 -0.19300
H 	H 	0.72090 0.18590 0.88570 0.07200
N 	N 	0.76670 0.17630 0.84790 -0.24600
C 	C 	0.40660 0.41270 0.93250 -1.14600
H 	H 	0.41300 0.43720 0.93390 0.31100
H 	H 	0.39890 0.40390 0.95510 0.32700
H 	H 	0.43540 0.40100 0.92370 0.32000
C 	C 	0.36920 0.40710 0.91180 0.46300
C 	C 	0.34160 0.37350 0.90410 -0.18200
C 	C 	0.30570 0.38660 0.87960 0.17000
C 	C 	0.26800 0.35830 0.86470 -0.52300
H 	H 	0.24100 0.35520 0.88050 0.13400
H 	H 	0.25540 0.36600 0.84280 0.14300
H 	H 	0.28490 0.33650 0.86170 0.15100
C 	C 	0.27470 0.33270 0.96380 -0.64000
H 	H 	0.25770 0.31210 0.97130 0.18400
H 	H 	0.28390 0.34640 0.98350 0.18300
H 	H 	0.25320 0.34610 0.94910 0.17900
C 	C 	0.32110 0.32240 0.94370 0.22600
C 	C 	0.35100 0.34020 0.92040 -0.14700
C 	C 	0.38780 0.31860 0.91050 0.22800
C 	C 	0.42880 0.32690 0.88510 -0.70300
H 	H 	0.43640 0.30650 0.87180 0.22200
H 	H 	0.41820 0.34520 0.86990 0.21000
H 	H 	0.45770 0.33430 0.89750 0.21700
C 	C 	0.55640 0.13820 0.92750 -0.79600
H 	H 	0.54830 0.12030 0.94390 0.25000
H 	H 	0.57730 0.12880 0.90980 0.24600
H 	H 	0.57330 0.15680 0.93910 0.24100
C 	C 	0.39900 0.15950 0.85900 -0.83300
H 	H 	0.40700 0.16850 0.83660 0.25100
H 	H 	0.39120 0.13520 0.85720 0.25400
H 	H 	0.37100 0.17180 0.86810 0.25400
C 	C 	0.47280 0.06180 0.90920 -0.60400
H 	H 	0.44130 0.07110 0.91600 0.17900
H 	H 	0.47100 0.03680 0.90850 0.17600
H 	H 	0.49760 0.06870 0.92560 0.18800
C 	C 	0.50250 0.11300 0.83040 0.12600
C 	C 	0.48860 0.11080 0.86570 -0.06200
C 	C 	0.48610 0.07500 0.87480 0.16800
N 	N 	0.49840 0.05520 0.84510 -0.13100
N 	N 	0.50850 0.07860 0.81770 -0.18300
H 	H 	0.51690 0.07300 0.79700 0.09600
C 	C 	0.51000 0.14440 0.80270 -0.51800
H 	H 	0.53400 0.16070 0.81150 0.15300
H 	H 	0.52190 0.13500 0.78130 0.15200
H 	H 	0.47920 0.15610 0.79900 0.15400
C 	C 	0.52200 0.23950 0.71190 -0.90900
H 	H 	0.51820 0.26210 0.72200 0.26900
H 	H 	0.49220 0.23250 0.70080 0.27900
H 	H 	0.53060 0.22300 0.72960 0.26800
C 	C 	0.61310 0.24570 0.69020 -0.29800
C 	C 	0.63330 0.24830 0.65640 0.50900
N 	N 	0.59390 0.24490 0.63240 -0.29000
N 	N 	0.54940 0.24010 0.65130 -0.23200
H 	H 	0.52030 0.23740 0.64270 0.11900
C 	C 	0.56130 0.24060 0.68700 0.33400
C 	C 	0.68130 0.25070 0.65100 -1.28000
H 	H 	0.69750 0.23060 0.66040 0.37600
H 	H 	0.68760 0.25200 0.62670 0.38300
H 	H 	0.69390 0.27120 0.66210 0.37600
C 	C 	0.67270 0.30890 0.72870 -0.64100
H 	H 	0.70740 0.31170 0.72420 0.18500
H 	H 	0.65430 0.31400 0.70810 0.19100
H 	H 	0.66290 0.32460 0.74680 0.20500
C 	C 	0.66220 0.27110 0.74010 0.21300
C 	C 	0.63900 0.24840 0.72350 -0.08100
C 	C 	0.64710 0.21480 0.74220 0.12500
C 	C 	0.62780 0.17790 0.73870 -0.53100
H 	H 	0.64520 0.16300 0.75440 0.11700
H 	H 	0.59310 0.17750 0.74390 0.14900
H 	H 	0.63300 0.16990 0.71550 0.14400
C 	C 	0.01030 0.43600 0.51230 -0.62800
H 	H 	0.01920 0.45850 0.50330 0.18200
H 	H 	0.01430 0.43600 0.53690 0.18500
H 	H 	0.03130 0.41860 0.50230 0.18400
C 	C 	0.95840 0.42850 0.50360 0.19900
C 	C 	0.92870 0.40080 0.51520 -0.12500
C 	C 	0.88350 0.40260 0.49340 0.22600
C 	C 	0.83780 0.38180 0.49520 -0.66200
H 	H 	0.84320 0.35970 0.48430 0.18800
H 	H 	0.82890 0.37830 0.51890 0.19100
H 	H 	0.81160 0.39390 0.48350 0.18900
C 	C 	0.87620 0.39490 0.59000 -0.80200
H 	H 	0.88610 0.40580 0.61120 0.21100
H 	H 	0.86550 0.41230 0.57400 0.25600
H 	H 	0.84950 0.37900 0.59450 0.19800
C 	C 	0.91590 0.37670 0.57620 0.24300
C 	C 	0.93740 0.37510 0.53970 -0.15500
C 	C 	0.97630 0.35080 0.54360 0.25200
C 	C 	0.00740 0.33940 0.51470 -0.70700
H 	H 	0.02140 0.31700 0.51990 0.19900
H 	H 	0.98760 0.33780 0.49420 0.22300
H 	H 	0.03350 0.35590 0.51110 0.19700
C 	C 	0.82510 0.31170 0.70820 -0.72400
H 	H 	0.81550 0.31740 0.68500 0.17100
H 	H 	0.79900 0.29890 0.71920 0.21800
H 	H 	0.83120 0.33270 0.72090 0.19000
C 	C 	0.86930 0.29100 0.70750 0.23600
C 	C 	0.87670 0.26120 0.72890 -0.12000
C 	C 	0.91300 0.24220 0.71400 0.20100
C 	C 	0.93940 0.20810 0.72510 -0.60800
H 	H 	0.97010 0.21370 0.73630 0.16900
H 	H 	0.91860 0.19550 0.74080 0.18200
H 	H 	0.94580 0.19410 0.70510 0.17800
C 	C 	0.78010 0.20780 0.72420 -0.72000
H 	H 	0.74750 0.19960 0.73000 0.19000
H 	H 	0.77800 0.22360 0.70510 0.21700
H 	H 	0.80060 0.18840 0.71790 0.21900
C 	C 	0.80220 0.22610 0.75480 0.26600
C 	C 	0.84100 0.25210 0.75490 -0.24600
C 	C 	0.84790 0.26060 0.78970 0.44500
C 	C 	0.87650 0.28400 0.80460 -1.08500
H 	H 	0.90910 0.28290 0.79480 0.31000
H 	H 	0.86290 0.30680 0.80100 0.30400
H 	H 	0.87830 0.27930 0.82900 0.29900
C 	C 	0.84660 0.15800 0.82230 -0.65800
H 	H 	0.87040 0.17650 0.82290 0.19800
H 	H 	0.86340 0.13600 0.82270 0.19000
H 	H 	0.82720 0.15980 0.80160 0.17200
C 	C 	0.81370 0.16070 0.85280 0.20800
C 	C 	0.82230 0.15290 0.88620 -0.13700
C 	C 	0.78070 0.16350 0.90440 0.16700
C 	C 	0.76890 0.15870 0.94380 -0.55300
H 	H 	0.73570 0.15020 0.94640 0.15000
H 	H 	0.79170 0.14230 0.95360 0.16400
H 	H 	0.77210 0.18070 0.95540 0.15400
C 	C 	0.90110 0.18370 0.94680 -0.54800
H 	H 	0.91820 0.19990 0.93230 0.15200
H 	H 	0.86880 0.19270 0.95230 0.15700
H 	H 	0.91950 0.18030 0.96770 0.15800
C 	C 	0.87450 0.10050 0.89560 0.20600
N 	N 	0.91400 0.09100 0.91790 -0.24800
N 	N 	0.92710 0.12060 0.93770 -0.19400
H 	H 	0.95000 0.12160 0.95310 0.07900
C 	C 	0.89570 0.14850 0.92770 0.15900
C 	C 	0.86320 0.13600 0.90170 -0.11900
C 	C 	0.85300 0.07500 0.87230 -0.68400
H 	H 	0.85480 0.05230 0.88250 0.20100
H 	H 	0.81900 0.08090 0.86800 0.20100
H 	H 	0.87100 0.07510 0.85090 0.18100
O 	O 	0.68140 0.38950 0.98140 -0.48200
K 	K 	0.64970 0.40120 0.98200 0.81000
O 	O 	0.72800 0.37040 0.98640 -0.44700
W 	W 	0.67512 0.06810 0.35524 0.98800
W 	W 	0.77277 0.01528 0.35717 1.00800
W 	W 	0.84251 0.09545 0.32578 1.00000
W 	W 	0.74504 0.14861 0.32468 0.99900
W 	W 	0.81215 0.22590 0.36110 1.36100
W 	W 	0.91207 0.17689 0.35011 1.01000
W 	W 	0.92316 0.09941 0.40347 0.99500
W 	W 	0.70477 0.18733 0.40600 1.04800
W 	W 	0.63781 0.10894 0.43827 1.02700
W 	W 	0.85422 0.01982 0.43208 1.35900
W 	W 	0.73784 0.96883 0.43916 1.00800
W 	W 	0.63289 0.01487 0.43160 1.05300
W 	W 	0.63322 0.01374 0.52991 1.03000
W 	W 	0.73790 0.96907 0.53726 1.01000
W 	W 	0.85389 0.01680 0.52878 1.01200
W 	W 	0.64012 0.11010 0.53499 1.03100
W 	W 	0.71066 0.18908 0.56274 1.31100
W 	W 	0.92205 0.09565 0.55938 1.31500
W 	W 	0.96606 0.14641 0.48320 1.07400
W 	W 	0.74953 0.23702 0.48331 1.05600
W 	W 	0.85608 0.27522 0.43990 0.99900
W 	W 	0.95664 0.22609 0.42978 1.24200
W 	W 	0.96238 0.23038 0.52662 1.00500
W 	W 	0.85356 0.27093 0.53609 0.97900
W 	W 	0.81451 0.21940 0.61479 0.97000
W 	W 	0.92399 0.17968 0.60633 1.01100
W 	W 	0.85576 0.10238 0.64112 1.02500
W 	W 	0.74467 0.13958 0.64126 0.98400
W 	W 	0.67507 0.05983 0.61039 0.99300
W 	W 	0.78581 0.02232 0.61169 1.03400
Co	Co	0.04172 0.04628 0.57617 1.07000
Co	Co	0.08870 0.26256 0.41929 1.13300
Co	Co	0.77719 0.30431 0.30688 1.08000
Co	Co	0.57824 0.17644 0.14097 0.99200
K 	K 	0.74170 0.14393 0.48481 0.80200
P 	P 	0.81510 0.14493 0.39720 0.55300
P 	P 	0.74080 0.05878 0.43110 0.56800
P 	P 	0.74410 0.05854 0.53640 0.54600
P 	P 	0.81910 0.14442 0.56920 0.58600
P 	P 	0.86380 0.19803 0.48300 0.55900
O 	O 	0.79240 0.12200 0.30010 -0.44800
O 	O 	0.80320 0.05680 0.33070 -0.43800
O 	O 	0.70870 0.10180 0.33240 -0.44200
O 	O 	0.71370 0.02970 0.33500 -0.44300
O 	O 	0.64560 0.02780 0.38860 -0.45100
O 	O 	0.74490 0.98490 0.38770 -0.44500
O 	O 	0.82940 0.02060 0.38610 -0.48700
O 	O 	0.73940 0.05830 0.39050 -0.35100
O 	O 	0.64940 0.09720 0.38980 -0.46400
O 	O 	0.70670 0.16250 0.36400 -0.47000
O 	O 	0.79680 0.12560 0.36470 -0.35400
O 	O 	0.88680 0.08710 0.36070 -0.46900
O 	O 	0.87890 0.14420 0.32570 -0.44900
O 	O 	0.78210 0.18850 0.32810 -0.44600
O 	O 	0.78910 0.25920 0.33510 -0.55300
O 	O 	0.87230 0.21580 0.33650 -0.46800
O 	O 	0.93440 0.14330 0.38270 -0.46500
O 	O 	0.84240 0.17880 0.38490 -0.37600
O 	O 	0.75520 0.21640 0.38590 -0.48900
O 	O 	0.77000 0.15510 0.41940 -0.28700
O 	O 	0.85050 0.12270 0.41950 -0.28600
O 	O 	0.89090 0.06050 0.42800 -0.50000
O 	O 	0.67310 0.15250 0.43230 -0.47200
O 	O 	0.71530 0.09070 0.44510 -0.29500
O 	O 	0.79460 0.05640 0.44320 -0.32100
O 	O 	0.89960 0.98910 0.42310 -0.61900
O 	O 	0.80290 0.98630 0.44170 -0.47300
O 	O 	0.71340 0.02460 0.44200 -0.35400
O 	O 	0.62190 0.06090 0.44430 -0.47600
O 	O 	0.66670 0.97030 0.42890 -0.44100
O 	O 	0.72900 0.96520 0.48590 -0.44300
O 	O 	0.63210 0.00630 0.48390 -0.43700
O 	O 	0.64250 0.11840 0.48490 -0.46900
O 	O 	0.86300 0.02240 0.48040 -0.49700
O 	O 	0.94460 0.11500 0.44720 -0.47700
O 	O 	0.72210 0.20730 0.44940 -0.47100
O 	O 	0.84080 0.25170 0.39340 -0.48100
O 	O 	0.93680 0.21080 0.38750 -0.44800
O 	O 	0.01510 0.24170 0.41590 -0.52000
O 	O 	0.92440 0.27180 0.42500 -0.44000
O 	O 	0.79070 0.25800 0.44920 -0.44800
O 	O 	0.88160 0.21960 0.44980 -0.36900
O 	O 	0.97250 0.18130 0.44950 -0.48700
O 	O 	0.88710 0.16230 0.48250 -0.30500
O 	O 	0.80580 0.19600 0.48340 -0.28800
O 	O 	0.72190 0.20690 0.51800 -0.48700
O 	O 	0.94160 0.11530 0.51600 -0.49300
O 	O 	0.97990 0.07550 0.56750 -0.60300
O 	O 	0.85270 0.12160 0.54680 -0.32300
O 	O 	0.77500 0.15650 0.54840 -0.31900
O 	O 	0.65860 0.21500 0.57220 -0.57100
O 	O 	0.67640 0.15260 0.53790 -0.47600
O 	O 	0.89370 0.06010 0.53340 -0.49400
O 	O 	0.79590 0.05660 0.52120 -0.29000
O 	O 	0.71840 0.09150 0.52310 -0.27500
O 	O 	0.62600 0.06200 0.52570 -0.46500
O 	O 	0.71490 0.02580 0.52440 -0.33600
O 	O 	0.80430 0.98400 0.52080 -0.44600
O 	O 	0.66840 0.97090 0.54150 -0.45400
O 	O 	0.64970 0.02770 0.57960 -0.44600
O 	O 	0.75210 0.98690 0.57880 -0.45300
O 	O 	0.83550 0.02020 0.57740 -0.46500
O 	O 	0.74630 0.05820 0.57760 -0.34800
O 	O 	0.65340 0.09610 0.57990 -0.46900
O 	O 	0.71180 0.16160 0.60410 -0.48600
O 	O 	0.80320 0.12490 0.60200 -0.36700
O 	O 	0.88930 0.08400 0.60320 -0.48500
O 	O 	0.93630 0.14020 0.57890 -0.47200
O 	O 	0.84830 0.17670 0.58030 -0.34900
O 	O 	0.76000 0.21730 0.58310 -0.47700
O 	O 	0.79070 0.25810 0.51630 -0.46500
O 	O 	0.88060 0.21840 0.51430 -0.34400
O 	O 	0.97440 0.18150 0.51660 -0.45800
O 	O 	0.96550 0.24120 0.48290 -0.47500
O 	O 	0.86600 0.28320 0.48560 -0.46100
O 	O 	0.92490 0.27040 0.54250 -0.45000
O 	O 	0.94280 0.21020 0.57370 -0.45300
O 	O 	0.84360 0.24940 0.57800 -0.45700
O 	O 	0.88220 0.21250 0.63080 -0.44800
O 	O 	0.88920 0.14220 0.63830 -0.46400
O 	O 	0.78630 0.18430 0.64150 -0.44800
O 	O 	0.80050 0.12130 0.66800 -0.44100
O 	O 	0.81180 0.05990 0.63470 -0.44600
O 	O 	0.71340 0.09710 0.63510 -0.43900
O 	O 	0.72250 0.02820 0.63230 -0.44400
N 	N 	0.15270 0.06940 0.39300 -0.30200
H 	H 	0.14290 0.05050 0.38730 0.13000
N 	N 	0.19010 0.08210 0.37420 -0.14200
N 	N 	0.15870 0.20660 0.44710 -0.22200
H 	H 	0.16950 0.22180 0.46150 0.08300
N 	N 	0.11790 0.21290 0.42660 -0.24400
N 	N 	0.05590 0.31180 0.40890 -0.24400
N 	N 	0.01210 0.31940 0.42780 -0.21600
H 	H 	0.00150 0.30840 0.44560 0.09700
C 	C 	0.98890 0.34850 0.41200 0.28400
C 	C 	0.01830 0.35880 0.38340 -0.20800
C 	C 	0.05970 0.33610 0.38150 0.30200
N 	N 	0.81250 0.24160 0.26610 -0.21000
H 	H 	0.79300 0.22970 0.27900 0.12500
N 	N 	0.82170 0.27670 0.26970 -0.22300
N 	N 	0.56500 0.05580 0.97820 -0.14500
N 	N 	0.60940 0.07030 0.97320 -0.21700
H 	H 	0.63080 0.06270 0.95860 0.13500
N 	N 	0.56000 0.14950 0.09590 -0.29200
N 	N 	0.52720 0.16290 0.07350 -0.22400
H 	H 	0.50900 0.18030 0.07920 0.05500
N 	N 	0.56590 0.23740 0.19190 -0.21400
H 	H 	0.53760 0.24160 0.18250 0.05800
N 	N 	0.59510 0.20680 0.18490 -0.30600
N 	N 	0.71540 0.27860 0.28440 -0.26000
N 	N 	0.68900 0.25740 0.30790 -0.25100
H 	H 	0.69460 0.25580 0.32970 0.11100
N 	N 	0.75070 0.32270 0.38040 -0.19300
H 	H 	0.77910 0.31410 0.38570 0.07200
N 	N 	0.73330 0.32370 0.34790 -0.24600
C 	C 	0.09340 0.08730 0.43250 -1.14600
H 	H 	0.08700 0.06280 0.43390 0.31100
H 	H 	0.10110 0.09610 0.45510 0.32700
H 	H 	0.06460 0.09900 0.42370 0.32000
C 	C 	0.13080 0.09290 0.41180 0.46300
C 	C 	0.15840 0.12650 0.40410 -0.18200
C 	C 	0.19430 0.11340 0.37960 0.17000
C 	C 	0.23200 0.14170 0.36470 -0.52300
H 	H 	0.25900 0.14480 0.38050 0.13400
H 	H 	0.24460 0.13400 0.34280 0.14300
H 	H 	0.21510 0.16350 0.36170 0.15100
C 	C 	0.22530 0.16730 0.46380 -0.64000
H 	H 	0.24230 0.18790 0.47130 0.18400
H 	H 	0.21610 0.15360 0.48350 0.18300
H 	H 	0.24680 0.15390 0.44910 0.17900
C 	C 	0.17890 0.17760 0.44370 0.22600
C 	C 	0.14900 0.15980 0.42040 -0.14700
C 	C 	0.11220 0.18140 0.41050 0.22800
C 	C 	0.07120 0.17310 0.38510 -0.70300
H 	H 	0.06360 0.19350 0.37180 0.22200
H 	H 	0.08180 0.15480 0.36990 0.21000
H 	H 	0.04230 0.16570 0.39750 0.21700
C 	C 	0.94360 0.36180 0.42750 -0.79600
H 	H 	0.95170 0.37970 0.44390 0.25000
H 	H 	0.92270 0.37120 0.40980 0.24600
H 	H 	0.92670 0.34320 0.43910 0.24100
C 	C 	0.10100 0.34050 0.35900 -0.83200
H 	H 	0.09300 0.33150 0.33660 0.25100
H 	H 	0.10880 0.36480 0.35720 0.25400
H 	H 	0.12900 0.32820 0.36810 0.25400
C 	C 	0.02720 0.43820 0.40920 -0.60400
H 	H 	0.05870 0.42890 0.41600 0.17900
H 	H 	0.02900 0.46320 0.40850 0.17600
H 	H 	0.00240 0.43130 0.42560 0.18800
C 	C 	0.99750 0.38700 0.33040 0.12600
C 	C 	0.01140 0.38920 0.36570 -0.06200
C 	C 	0.01390 0.42500 0.37480 0.16800
N 	N 	0.00160 0.44480 0.34510 -0.13100
N 	N 	0.99150 0.42140 0.31770 -0.18300
H 	H 	0.98310 0.42700 0.29700 0.09600
C 	C 	0.99000 0.35560 0.30270 -0.51800
H 	H 	0.96600 0.33930 0.31150 0.15300
H 	H 	0.97810 0.36500 0.28130 0.15200
H 	H 	0.02080 0.34390 0.29900 0.15400
C 	C 	0.97800 0.26050 0.21190 -0.90900
H 	H 	0.98180 0.23790 0.22200 0.26900
H 	H 	0.00780 0.26750 0.20080 0.27900
H 	H 	0.96940 0.27700 0.22960 0.26800
C 	C 	0.88690 0.25430 0.19020 -0.29800
C 	C 	0.86670 0.25170 0.15640 0.50900
N 	N 	0.90610 0.25510 0.13240 -0.29000
N 	N 	0.95060 0.25990 0.15130 -0.23200
H 	H 	0.97970 0.26260 0.14270 0.11900
C 	C 	0.93870 0.25940 0.18700 0.33400
C 	C 	0.81870 0.24930 0.15100 -1.28000
H 	H 	0.80250 0.26940 0.16040 0.37600
H 	H 	0.81240 0.24800 0.12670 0.38300
H 	H 	0.80610 0.22880 0.16210 0.37600
C 	C 	0.82730 0.19110 0.22870 -0.64100
H 	H 	0.79260 0.18830 0.22420 0.18500
H 	H 	0.84570 0.18600 0.20810 0.19100
H 	H 	0.83710 0.17540 0.24680 0.20500
C 	C 	0.83780 0.22890 0.24010 0.21300
C 	C 	0.86100 0.25160 0.22350 -0.08100
C 	C 	0.85290 0.28520 0.24220 0.12500
C 	C 	0.87220 0.32210 0.23870 -0.53100
H 	H 	0.85480 0.33700 0.25440 0.11700
H 	H 	0.90690 0.32250 0.24390 0.14900
H 	H 	0.86700 0.33010 0.21550 0.14400
C 	C 	0.48970 0.06400 0.01230 -0.62800
H 	H 	0.48080 0.04150 0.00330 0.18100
H 	H 	0.48570 0.06400 0.03690 0.18500
H 	H 	0.46870 0.08140 0.00230 0.18400
C 	C 	0.54160 0.07150 0.00360 0.19900
C 	C 	0.57130 0.09920 0.01520 -0.12500
C 	C 	0.61650 0.09740 0.99340 0.22600
C 	C 	0.66220 0.11820 0.99520 -0.66200
H 	H 	0.65680 0.14030 0.98430 0.18800
H 	H 	0.67110 0.12170 0.01890 0.19100
H 	H 	0.68840 0.10610 0.98350 0.18900
C 	C 	0.62380 0.10510 0.09000 -0.80200
H 	H 	0.61390 0.09420 0.11120 0.21100
H 	H 	0.63450 0.08770 0.07400 0.25600
H 	H 	0.65050 0.12100 0.09450 0.19800
C 	C 	0.58410 0.12330 0.07620 0.24300
C 	C 	0.56260 0.12490 0.03970 -0.15500
C 	C 	0.52370 0.14920 0.04360 0.25200
C 	C 	0.49260 0.16060 0.01470 -0.70700
H 	H 	0.47860 0.18300 0.01990 0.19900
H 	H 	0.51240 0.16220 0.99420 0.22300
H 	H 	0.46650 0.14410 0.01110 0.19700
C 	C 	0.67490 0.18830 0.20820 -0.72400
H 	H 	0.68450 0.18260 0.18500 0.17100
H 	H 	0.70100 0.20110 0.21920 0.21800
H 	H 	0.66880 0.16730 0.22090 0.19000
C 	C 	0.63070 0.20900 0.20750 0.23600
C 	C 	0.62330 0.23880 0.22890 -0.12000
C 	C 	0.58700 0.25780 0.21400 0.20100
C 	C 	0.56060 0.29190 0.22510 -0.60800
H 	H 	0.52990 0.28630 0.23630 0.16900
H 	H 	0.58140 0.30450 0.24080 0.18200
H 	H 	0.55420 0.30590 0.20510 0.17800
C 	C 	0.71990 0.29220 0.22420 -0.72000
H 	H 	0.75250 0.30040 0.23000 0.19000
H 	H 	0.72200 0.27640 0.20510 0.21700
H 	H 	0.69940 0.31160 0.21790 0.21900
C 	C 	0.69780 0.27390 0.25480 0.26600
C 	C 	0.65900 0.24790 0.25490 -0.24600
C 	C 	0.65210 0.23940 0.28970 0.44400
C 	C 	0.62350 0.21600 0.30460 -1.08500
H 	H 	0.59090 0.21710 0.29480 0.31000
H 	H 	0.63710 0.19320 0.30100 0.30400
H 	H 	0.62170 0.22070 0.32900 0.29900
C 	C 	0.65340 0.34200 0.32230 -0.65800
H 	H 	0.62960 0.32350 0.32290 0.19800
H 	H 	0.63660 0.36400 0.32270 0.19000
H 	H 	0.67280 0.34020 0.30160 0.17200
C 	C 	0.68630 0.33930 0.35280 0.20800
C 	C 	0.67770 0.34710 0.38620 -0.13700
C 	C 	0.71930 0.33650 0.40440 0.16700
C 	C 	0.73110 0.34130 0.44380 -0.55300
H 	H 	0.76430 0.34980 0.44640 0.15000
H 	H 	0.70830 0.35770 0.45360 0.16400
H 	H 	0.72790 0.31930 0.45540 0.15400
C 	C 	0.59890 0.31630 0.44680 -0.54800
H 	H 	0.58180 0.30010 0.43230 0.15200
H 	H 	0.63120 0.30730 0.45230 0.15700
H 	H 	0.58050 0.31970 0.46770 0.15800
C 	C 	0.62550 0.39950 0.39560 0.20600
N 	N 	0.58600 0.40900 0.41790 -0.24800
N 	N 	0.57290 0.37940 0.43770 -0.19400
H 	H 	0.55000 0.37840 0.45310 0.07900
C 	C 	0.60430 0.35150 0.42770 0.15900
C 	C 	0.63680 0.36400 0.40170 -0.11900
C 	C 	0.64700 0.42500 0.37230 -0.68400
H 	H 	0.64520 0.44770 0.38250 0.20100
H 	H 	0.68100 0.41910 0.36800 0.20100
H 	H 	0.62900 0.42490 0.35090 0.18100
O 	O 	0.81860 0.11050 0.48140 -0.48200
K 	K 	0.85030 0.09880 0.48200 0.81000
O 	O 	0.77200 0.12960 0.48640 -0.44700
