data_crystal

_cell_length_a 10.35410
_cell_length_b 11.36800
_cell_length_c 12.91600
_cell_angle_alpha 72.85900
_cell_angle_beta  90.02800
_cell_angle_gamma 87.23200

_symmetry_space_group_name_	'P 1'
_symmetry_space_group_name_H-M	'P 1'

loop_
_symmetry_equiv_pos_as_xyz
  x,y,z

loop_
_atom_site_label
_atom_site_type_symbol
_atom_site_fract_x
_atom_site_fract_y
_atom_site_fract_z
_atom_site_charge
Gd	Gd	0.47833 0.04611 0.33838 1.47000
C 	C 	0.49460 0.26620 0.16770 0.33000
C 	C 	0.51050 0.75370 0.50460 0.42500
C 	C 	0.26580 0.00970 0.56410 0.38400
C 	C 	0.49830 0.38480 0.08430 -0.11200
C 	C 	0.50560 0.62120 0.50530 -0.14400
C 	C 	0.12950 0.00480 0.53130 -0.14300
C 	C 	0.44860 0.49410 0.10300 0.05400
C 	C 	0.39010 0.56190 0.52760 0.05200
C 	C 	0.07620 0.09710 0.44180 0.03100
C 	C 	0.39770 0.49680 0.20550 -0.08700
H 	H 	0.39840 0.42390 0.26220 0.08000
C 	C 	0.27520 0.62120 0.55280 -0.08000
H 	H 	0.27750 0.70140 0.55690 0.06400
C 	C 	0.14930 0.19820 0.38090 -0.07300
H 	H 	0.23460 0.20320 0.40130 0.04800
C 	C 	0.34950 0.60040 0.22220 -0.01700
H 	H 	0.31850 0.59890 0.29010 0.04000
C 	C 	0.16440 0.56390 0.57070 -0.03000
H 	H 	0.09030 0.60510 0.58590 0.04400
C 	C 	0.09670 0.28650 0.29440 -0.04500
H 	H 	0.14530 0.35170 0.25660 0.05200
C 	C 	0.34500 0.71300 0.13710 -0.03300
H 	H 	0.30990 0.78430 0.14970 0.03000
C 	C 	0.15850 0.44190 0.56690 -0.02100
H 	H 	0.08020 0.40350 0.57890 0.03800
C 	C 	0.96830 0.27920 0.26220 -0.00900
H 	H 	0.93390 0.33840 0.20120 0.04000
C 	C 	0.39090 0.71810 0.03800 -0.06900
H 	H 	0.38670 0.79260 0.98310 0.05100
C 	C 	0.26490 0.37960 0.54600 -0.08800
H 	H 	0.25990 0.29790 0.54690 0.06900
C 	C 	0.89380 0.18780 0.31800 -0.10200
H 	H 	0.80830 0.18670 0.29630 0.08800
C 	C 	0.44620 0.60930 0.01710 0.04100
C 	C 	0.38450 0.43790 0.52260 0.05400
C 	C 	0.94490 0.09250 0.41050 0.05800
O 	O 	0.38650 0.21830 0.19070 -0.39200
O 	O 	0.49120 0.83220 0.41360 -0.44800
O 	O 	0.35860 0.99270 0.50620 -0.48900
O 	O 	0.59660 0.21490 0.21630 -0.37000
O 	O 	0.53280 0.77530 0.59250 -0.41100
O 	O 	0.28670 0.02040 0.65610 -0.37900
Gd	Gd	0.52167 0.95389 0.66162 1.46900
C 	C 	0.50540 0.73380 0.83230 0.32900
C 	C 	0.48950 0.24630 0.49540 0.42500
C 	C 	0.73420 0.99030 0.43590 0.38400
C 	C 	0.50170 0.61520 0.91570 -0.11200
C 	C 	0.49440 0.37880 0.49470 -0.14400
C 	C 	0.87050 0.99520 0.46870 -0.14300
C 	C 	0.55140 0.50590 0.89700 0.05400
C 	C 	0.60990 0.43810 0.47240 0.05200
C 	C 	0.92380 0.90290 0.55820 0.03100
C 	C 	0.60230 0.50320 0.79450 -0.08700
H 	H 	0.60160 0.57610 0.73780 0.08000
C 	C 	0.72480 0.37880 0.44720 -0.08000
H 	H 	0.72250 0.29860 0.44310 0.06400
C 	C 	0.85070 0.80180 0.61910 -0.07300
H 	H 	0.76540 0.79680 0.59870 0.04800
C 	C 	0.65050 0.39960 0.77780 -0.01700
H 	H 	0.68150 0.40110 0.70990 0.04000
C 	C 	0.83560 0.43610 0.42930 -0.03000
H 	H 	0.90970 0.39490 0.41410 0.04400
C 	C 	0.90330 0.71350 0.70560 -0.04500
H 	H 	0.85470 0.64830 0.74340 0.05200
C 	C 	0.65500 0.28700 0.86290 -0.03300
H 	H 	0.69010 0.21570 0.85030 0.03000
C 	C 	0.84150 0.55810 0.43310 -0.02100
H 	H 	0.91980 0.59650 0.42110 0.03800
C 	C 	0.03170 0.72080 0.73780 -0.00900
H 	H 	0.06610 0.66160 0.79880 0.04000
C 	C 	0.60910 0.28190 0.96200 -0.06900
H 	H 	0.61330 0.20740 0.01690 0.05100
C 	C 	0.73510 0.62040 0.45400 -0.08800
H 	H 	0.74010 0.70210 0.45310 0.06900
C 	C 	0.10620 0.81220 0.68200 -0.10200
H 	H 	0.19170 0.81330 0.70370 0.08800
C 	C 	0.55380 0.39070 0.98290 0.04100
C 	C 	0.61550 0.56210 0.47740 0.05400
C 	C 	0.05510 0.90750 0.58950 0.05800
O 	O 	0.61350 0.78170 0.80930 -0.39200
O 	O 	0.50880 0.16780 0.58640 -0.44800
O 	O 	0.64140 0.00730 0.49380 -0.48900
O 	O 	0.40340 0.78510 0.78370 -0.37000
O 	O 	0.46720 0.22470 0.40750 -0.41100
O 	O 	0.71330 0.97960 0.34390 -0.37900
