data_crystal

_cell_length_a 8.87640
_cell_length_b 9.19080
_cell_length_c 15.82000
_cell_angle_alpha 90.00000
_cell_angle_beta  90.00000
_cell_angle_gamma 90.00000

_symmetry_space_group_name_	'P 1'
_symmetry_space_group_name_H-M	'P 1'

loop_
_symmetry_equiv_pos_as_xyz
  x,y,z

loop_
_atom_site_label
_atom_site_type_symbol
_atom_site_fract_x
_atom_site_fract_y
_atom_site_fract_z
_atom_site_charge
Eu	Eu	-0.00000 0.72847 0.81552 1.35300
Eu	Eu	-0.00000 0.27153 0.18448 1.35300
Eu	Eu	0.50000 0.77153 0.31552 1.55300
Eu	Eu	0.50000 0.22847 0.68448 1.55300
H 	H 	0.64830 0.38910 0.93730 0.07700
H 	H 	0.64830 0.61090 0.06270 0.07700
H 	H 	0.85170 0.11090 0.43730 0.08500
H 	H 	0.85170 0.88910 0.56270 0.08500
H 	H 	0.35170 0.61090 0.06270 0.07000
H 	H 	0.35170 0.38910 0.93730 0.07000
H 	H 	0.14830 0.88910 0.56270 0.05800
H 	H 	0.14830 0.11090 0.43730 0.05800
H 	H 	0.50000 0.66430 0.92190 0.07000
H 	H 	0.50000 0.33570 0.07810 0.07000
H 	H 	-0.00000 0.83570 0.42190 0.06500
H 	H 	-0.00000 0.16430 0.57810 0.06500
C 	C 	0.77830 0.56890 0.91160 0.30200
C 	C 	0.64410 0.49270 0.95180 -0.08000
C 	C 	0.77830 0.43110 0.08840 0.30200
C 	C 	0.64410 0.50730 0.04820 -0.08000
C 	C 	0.72170 0.93110 0.41160 0.30200
C 	C 	0.85590 0.00730 0.45180 -0.00200
C 	C 	0.72170 0.06890 0.58840 0.30200
C 	C 	0.85590 0.99270 0.54820 -0.00200
C 	C 	0.22170 0.43110 0.08840 0.30700
C 	C 	0.35590 0.50730 0.04820 -0.08800
C 	C 	0.22170 0.56890 0.91160 0.30700
C 	C 	0.35590 0.49270 0.95180 -0.08800
C 	C 	0.27830 0.06890 0.58840 0.30500
C 	C 	0.14410 0.99270 0.54820 -0.07200
C 	C 	0.27830 0.93110 0.41160 0.30500
C 	C 	0.14410 0.00730 0.45180 -0.07200
C 	C 	0.50000 0.55880 0.91280 -0.13100
C 	C 	0.50000 0.52860 0.82060 0.36200
C 	C 	0.50000 0.44120 0.08720 -0.13100
C 	C 	0.50000 0.47140 0.17940 0.36200
C 	C 	-0.00000 0.94120 0.41280 -0.23000
C 	C 	-0.00000 0.97140 0.32060 0.36600
C 	C 	-0.00000 0.05880 0.58720 -0.23000
C 	C 	-0.00000 0.02860 0.67940 0.36600
O 	O 	0.83450 0.68340 0.94330 -0.32500
O 	O 	0.82800 0.52190 0.84120 -0.33800
O 	O 	0.83450 0.31660 0.05670 -0.32500
O 	O 	0.82800 0.47810 0.15880 -0.33800
O 	O 	0.66550 0.81660 0.44330 -0.37500
O 	O 	0.67200 0.97810 0.34120 -0.38000
O 	O 	0.66550 0.18340 0.55670 -0.37500
O 	O 	0.67200 0.02190 0.65880 -0.38000
O 	O 	0.16550 0.31660 0.05670 -0.40200
O 	O 	0.17200 0.47810 0.15880 -0.41400
O 	O 	0.16550 0.68340 0.94330 -0.40200
O 	O 	0.17200 0.52190 0.84120 -0.41400
O 	O 	0.33450 0.18340 0.55670 -0.39700
O 	O 	0.32800 0.02190 0.65880 -0.40600
O 	O 	0.33450 0.81660 0.44330 -0.39700
O 	O 	0.32800 0.97810 0.34120 -0.40600
O 	O 	0.50000 0.39430 0.79780 -0.47400
O 	O 	0.50000 0.63280 0.76710 -0.30900
O 	O 	0.50000 0.60570 0.20220 -0.47400
O 	O 	0.50000 0.36720 0.23290 -0.30900
O 	O 	-0.00000 0.10570 0.29780 -0.49400
O 	O 	0.00000 0.86720 0.26710 -0.35800
O 	O 	-0.00000 0.89430 0.70220 -0.49400
O 	O 	-0.00000 0.13280 0.73290 -0.35800
