data_crystal

_cell_length_a 17.38840
_cell_length_b 17.38840
_cell_length_c 17.38840
_cell_angle_alpha 65.35440
_cell_angle_beta  65.35440
_cell_angle_gamma 65.35440

_symmetry_space_group_name_	'P 1'
_symmetry_space_group_name_H-M	'P 1'

loop_
_symmetry_equiv_pos_as_xyz
  x,y,z

loop_
_atom_site_label
_atom_site_type_symbol
_atom_site_fract_x
_atom_site_fract_y
_atom_site_fract_z
_atom_site_charge
Cu	Cu	0.57302 0.00388 0.00388 0.89900
Cu	Cu	0.00388 0.57302 0.00388 0.89900
Cu	Cu	0.00388 0.00388 0.57302 0.89900
Cu	Cu	0.99612 0.42698 0.99612 0.89900
Cu	Cu	0.42698 0.99612 0.99612 0.89900
Cu	Cu	0.99612 0.99612 0.42698 0.89900
H 	H 	0.50640 0.72100 0.02020 0.06500
H 	H 	0.02020 0.50640 0.72100 0.06500
H 	H 	0.72100 0.02020 0.50640 0.06500
H 	H 	0.27900 0.49360 0.97980 0.06500
H 	H 	0.49360 0.97980 0.27900 0.06500
H 	H 	0.97980 0.27900 0.49360 0.06500
H 	H 	0.49360 0.27900 0.97980 0.06600
H 	H 	0.97980 0.49360 0.27900 0.06600
H 	H 	0.27900 0.97980 0.49360 0.06600
H 	H 	0.72100 0.50640 0.02020 0.06600
H 	H 	0.50640 0.02020 0.72100 0.06600
H 	H 	0.02020 0.72100 0.50640 0.06600
H 	H 	0.73050 0.73050 0.02780 0.05900
H 	H 	0.02780 0.73050 0.73050 0.05900
H 	H 	0.73050 0.02780 0.73050 0.05900
H 	H 	0.26950 0.26950 0.97220 0.05900
H 	H 	0.26950 0.97220 0.26950 0.05900
H 	H 	0.97220 0.26950 0.26950 0.05900
C 	C 	0.61175 0.74055 0.02475 -0.06700
C 	C 	0.56483 0.69393 0.02133 -0.03900
C 	C 	0.56902 0.83642 0.02102 0.35600
C 	C 	0.02475 0.61175 0.74055 -0.06700
C 	C 	0.02133 0.56483 0.69393 -0.03900
C 	C 	0.02102 0.56902 0.83642 0.35600
C 	C 	0.74055 0.02475 0.61175 -0.06700
C 	C 	0.69393 0.02133 0.56483 -0.03900
C 	C 	0.83642 0.02102 0.56902 0.35600
C 	C 	0.25945 0.38825 0.97525 -0.06700
C 	C 	0.30607 0.43517 0.97867 -0.03900
C 	C 	0.16358 0.43098 0.97898 0.35600
C 	C 	0.38825 0.97525 0.25945 -0.06700
C 	C 	0.43517 0.97867 0.30607 -0.03900
C 	C 	0.43098 0.97898 0.16358 0.35600
C 	C 	0.97525 0.25945 0.38825 -0.06700
C 	C 	0.97867 0.30607 0.43517 -0.03900
C 	C 	0.97898 0.16358 0.43098 0.35600
C 	C 	0.38825 0.25945 0.97525 -0.06700
C 	C 	0.43517 0.30607 0.97867 -0.03900
C 	C 	0.43098 0.16358 0.97898 0.35600
C 	C 	0.97525 0.38825 0.25945 -0.06700
C 	C 	0.97867 0.43517 0.30607 -0.03900
C 	C 	0.97898 0.43098 0.16358 0.35600
C 	C 	0.25945 0.97525 0.38825 -0.06700
C 	C 	0.30607 0.97867 0.43517 -0.03900
C 	C 	0.16358 0.97898 0.43098 0.35600
C 	C 	0.74055 0.61175 0.02475 -0.06700
C 	C 	0.69393 0.56483 0.02133 -0.03900
C 	C 	0.83642 0.56902 0.02102 0.35600
C 	C 	0.61175 0.02475 0.74055 -0.06700
C 	C 	0.56483 0.02133 0.69393 -0.03900
C 	C 	0.56902 0.02102 0.83642 0.35600
C 	C 	0.02475 0.74055 0.61175 -0.06700
C 	C 	0.02133 0.69393 0.56483 -0.03900
C 	C 	0.02102 0.83642 0.56902 0.35600
C 	C 	0.56020 0.56020 0.01410 -0.02200
C 	C 	0.52260 0.52260 0.00470 0.00100
C 	C 	0.69922 0.69922 0.02607 0.01300
C 	C 	0.60640 0.60640 0.01965 0.03100
C 	C 	0.01410 0.56020 0.56020 -0.02200
C 	C 	0.00470 0.52260 0.52260 0.00100
C 	C 	0.02607 0.69922 0.69922 0.01300
C 	C 	0.01965 0.60640 0.60640 0.03100
C 	C 	0.56020 0.01410 0.56020 -0.02200
C 	C 	0.52260 0.00470 0.52260 0.00100
C 	C 	0.69922 0.02607 0.69922 0.01300
C 	C 	0.60640 0.01965 0.60640 0.03100
C 	C 	0.43980 0.43980 0.98590 -0.02200
C 	C 	0.47740 0.47740 0.99530 0.00100
C 	C 	0.30078 0.30078 0.97393 0.01300
C 	C 	0.39360 0.39360 0.98035 0.03100
C 	C 	0.43980 0.98590 0.43980 -0.02200
C 	C 	0.47740 0.99530 0.47740 0.00100
C 	C 	0.30078 0.97393 0.30078 0.01300
C 	C 	0.39360 0.98035 0.39360 0.03100
C 	C 	0.98590 0.43980 0.43980 -0.02200
C 	C 	0.99530 0.47740 0.47740 0.00100
C 	C 	0.97393 0.30078 0.30078 0.01300
C 	C 	0.98035 0.39360 0.39360 0.03100
O 	O 	0.61482 0.87616 0.02134 -0.40100
O 	O 	0.49165 0.86961 0.01558 -0.40500
O 	O 	0.02134 0.61482 0.87616 -0.40100
O 	O 	0.01558 0.49165 0.86961 -0.40500
O 	O 	0.87616 0.02134 0.61482 -0.40100
O 	O 	0.86961 0.01558 0.49165 -0.40500
O 	O 	0.12384 0.38518 0.97866 -0.40100
O 	O 	0.13039 0.50835 0.98442 -0.40500
O 	O 	0.38518 0.97866 0.12384 -0.40100
O 	O 	0.50835 0.98442 0.13039 -0.40500
O 	O 	0.97866 0.12384 0.38518 -0.40100
O 	O 	0.98442 0.13039 0.50835 -0.40500
O 	O 	0.38518 0.12384 0.97866 -0.40100
O 	O 	0.50835 0.13039 0.98442 -0.40500
O 	O 	0.97866 0.38518 0.12384 -0.40100
O 	O 	0.98442 0.50835 0.13039 -0.40500
O 	O 	0.12384 0.97866 0.38518 -0.40100
O 	O 	0.13039 0.98442 0.50835 -0.40500
O 	O 	0.87616 0.61482 0.02134 -0.40100
O 	O 	0.86961 0.49165 0.01558 -0.40500
O 	O 	0.61482 0.02134 0.87616 -0.40100
O 	O 	0.49165 0.01558 0.86961 -0.40500
O 	O 	0.02134 0.87616 0.61482 -0.40100
O 	O 	0.01558 0.86961 0.49165 -0.40500
