data_crystal

_cell_length_a 9.48000
_cell_length_b 9.96800
_cell_length_c 11.25500
_cell_angle_alpha 92.32900
_cell_angle_beta  98.80400
_cell_angle_gamma 110.79600

_symmetry_space_group_name_	'P 1'
_symmetry_space_group_name_H-M	'P 1'

loop_
_symmetry_equiv_pos_as_xyz
  x,y,z

loop_
_atom_site_label
_atom_site_type_symbol
_atom_site_fract_x
_atom_site_fract_y
_atom_site_fract_z
_atom_site_charge
La	La	0.71630 0.95561 0.01522 1.65000
La	La	0.28370 0.04439 0.98478 1.65000
H 	H 	0.67600 0.50570 0.95780 0.05500
H 	H 	0.80280 0.21950 0.78360 0.09900
H 	H 	0.07980 0.63630 0.84100 0.10600
H 	H 	0.83690 0.41280 0.56960 0.13400
H 	H 	0.74950 0.29070 0.37670 -0.00500
H 	H 	0.06120 0.10380 0.43420 -0.00700
H 	H 	0.15080 0.22560 0.62710 0.14600
H 	H 	0.76800 0.86700 0.79100 0.24300
H 	H 	0.90600 0.98700 0.79600 0.29900
H 	H 	0.32400 0.49430 0.04220 0.05500
H 	H 	0.19720 0.78050 0.21640 0.09900
H 	H 	0.92020 0.36370 0.15900 0.10600
H 	H 	0.16310 0.58720 0.43040 0.13400
H 	H 	0.25050 0.70930 0.62330 -0.00500
H 	H 	0.93880 0.89620 0.56580 -0.00700
H 	H 	0.84920 0.77440 0.37290 0.14600
H 	H 	0.23200 0.13300 0.20900 0.24300
H 	H 	0.09400 0.01300 0.20400 0.29900
C 	C 	0.92400 0.74370 0.97050 0.36800
C 	C 	0.88520 0.59350 0.91200 -0.04600
C 	C 	0.74770 0.48490 0.92020 -0.02700
C 	C 	0.71750 0.34470 0.87210 -0.03500
C 	C 	0.57320 0.22770 0.89120 0.31100
C 	C 	0.82090 0.31400 0.81230 -0.14700
C 	C 	0.95170 0.42530 0.79530 0.20500
C 	C 	0.98800 0.56370 0.84800 -0.14800
C 	C 	0.99940 0.32770 0.61740 0.28600
C 	C 	0.88090 0.35000 0.54300 -0.27000
C 	C 	0.82900 0.27670 0.42770 0.14400
C 	C 	0.89480 0.18250 0.38760 -0.17400
C 	C 	0.83150 0.09640 0.26460 0.34100
C 	C 	0.01550 0.16470 0.46170 0.13100
C 	C 	0.06920 0.23730 0.57720 -0.26500
C 	C 	0.07600 0.25630 0.02950 0.36800
C 	C 	0.11480 0.40650 0.08800 -0.04600
C 	C 	0.25230 0.51510 0.07980 -0.02700
C 	C 	0.28250 0.65530 0.12790 -0.03500
C 	C 	0.42680 0.77230 0.10880 0.31100
C 	C 	0.17910 0.68600 0.18770 -0.14700
C 	C 	0.04830 0.57470 0.20470 0.20500
C 	C 	0.01200 0.43630 0.15200 -0.14800
C 	C 	0.00060 0.67230 0.38260 0.28600
C 	C 	0.11910 0.65000 0.45700 -0.27000
C 	C 	0.17100 0.72330 0.57230 0.14400
C 	C 	0.10520 0.81750 0.61240 -0.17400
C 	C 	0.16850 0.90360 0.73540 0.34100
C 	C 	0.98450 0.83530 0.53830 0.13100
C 	C 	0.93080 0.76270 0.42280 -0.26500
O 	O 	0.81780 0.76620 0.01570 -0.42700
O 	O 	0.05190 0.83490 0.97290 -0.42300
O 	O 	0.45060 0.25160 0.87980 -0.37100
O 	O 	0.57690 0.10570 0.91950 -0.46800
O 	O 	0.05670 0.39750 0.73360 -0.28000
O 	O 	0.72190 0.11760 0.19760 -0.38300
O 	O 	0.88680 0.00680 0.23200 -0.37000
O 	O 	0.81160 0.96010 0.80860 -0.67200
O 	O 	0.18220 0.23380 0.98430 -0.42700
O 	O 	0.94810 0.16510 0.02710 -0.42300
O 	O 	0.54940 0.74840 0.12020 -0.37100
O 	O 	0.42310 0.89430 0.08050 -0.46800
O 	O 	0.94330 0.60250 0.26640 -0.28000
O 	O 	0.27810 0.88240 0.80240 -0.38300
O 	O 	0.11320 0.99320 0.76800 -0.37000
O 	O 	0.18840 0.03990 0.19140 -0.67200
