data_crystal

_cell_length_a 9.36000
_cell_length_b 9.93600
_cell_length_c 11.38400
_cell_angle_alpha 93.18200
_cell_angle_beta  97.61700
_cell_angle_gamma 110.27100

_symmetry_space_group_name_	'P 1'
_symmetry_space_group_name_H-M	'P 1'

loop_
_symmetry_equiv_pos_as_xyz
  x,y,z

loop_
_atom_site_label
_atom_site_type_symbol
_atom_site_fract_x
_atom_site_fract_y
_atom_site_fract_z
_atom_site_charge
La	La	0.71561 0.95199 0.01691 1.59700
La	La	0.28439 0.04801 0.98309 1.59700
H 	H 	0.68670 0.50590 0.96560 0.05300
H 	H 	0.80960 0.21620 0.77930 0.07000
H 	H 	0.08580 0.63550 0.83520 0.10300
H 	H 	0.82950 0.40090 0.57110 0.13300
H 	H 	0.74100 0.27740 0.38150 -0.01200
H 	H 	0.07020 0.10710 0.42570 -0.01500
H 	H 	0.16040 0.22840 0.61510 0.15000
H 	H 	0.31330 0.49410 0.03440 0.05300
H 	H 	0.19040 0.78380 0.22070 0.07000
H 	H 	0.91420 0.36450 0.16480 0.10300
H 	H 	0.17050 0.59910 0.42890 0.13300
H 	H 	0.25900 0.72260 0.61850 -0.01200
H 	H 	0.92980 0.89290 0.57430 -0.01500
H 	H 	0.83960 0.77160 0.38490 0.15000
C 	C 	0.92820 0.74190 0.97040 0.35700
C 	C 	0.89200 0.59280 0.91100 -0.04900
C 	C 	0.75640 0.48470 0.92370 -0.02100
C 	C 	0.72380 0.34410 0.87380 -0.04800
C 	C 	0.57830 0.22650 0.89230 0.30900
C 	C 	0.82720 0.31050 0.80950 -0.12700
C 	C 	0.95800 0.42550 0.79300 0.19300
C 	C 	0.99450 0.56300 0.84440 -0.14200
C 	C 	0.00430 0.32400 0.61140 0.28600
C 	C 	0.87710 0.34090 0.54190 -0.27000
C 	C 	0.82420 0.26640 0.42910 0.15300
C 	C 	0.89330 0.17620 0.38650 -0.18900
C 	C 	0.82920 0.08920 0.26780 0.34100
C 	C 	0.02070 0.16480 0.45570 0.14600
C 	C 	0.07560 0.23800 0.56870 -0.28500
C 	C 	0.07180 0.25810 0.02960 0.35700
C 	C 	0.10800 0.40720 0.08900 -0.04900
C 	C 	0.24360 0.51530 0.07630 -0.02100
C 	C 	0.27620 0.65590 0.12620 -0.04800
C 	C 	0.42170 0.77350 0.10770 0.30900
C 	C 	0.17280 0.68950 0.19050 -0.12700
C 	C 	0.04200 0.57450 0.20700 0.19300
C 	C 	0.00550 0.43700 0.15560 -0.14200
C 	C 	0.99570 0.67600 0.38860 0.28600
C 	C 	0.12290 0.65910 0.45810 -0.27000
C 	C 	0.17580 0.73360 0.57090 0.15300
C 	C 	0.10670 0.82380 0.61350 -0.18900
C 	C 	0.17080 0.91080 0.73220 0.34100
C 	C 	0.97930 0.83520 0.54430 0.14600
C 	C 	0.92440 0.76200 0.43130 -0.28500
O 	O 	0.05800 0.83610 0.97020 -0.43700
O 	O 	0.82220 0.76410 0.01870 -0.43300
O 	O 	0.45550 0.25440 0.88160 -0.37000
O 	O 	0.58320 0.10540 0.92180 -0.48500
O 	O 	0.06230 0.39780 0.72480 -0.27700
O 	O 	0.71360 0.10610 0.20430 -0.37800
O 	O 	0.88620 0.00160 0.22890 -0.35300
O 	O 	0.94200 0.16390 0.02980 -0.43700
O 	O 	0.17780 0.23590 0.98130 -0.43300
O 	O 	0.54450 0.74560 0.11840 -0.37000
O 	O 	0.41680 0.89460 0.07820 -0.48500
O 	O 	0.93770 0.60220 0.27520 -0.27700
O 	O 	0.28640 0.89390 0.79570 -0.37800
O 	O 	0.11380 0.99840 0.77110 -0.35300
