data_crystal

_cell_length_a 37.15300
_cell_length_b 8.93810
_cell_length_c 29.41400
_cell_angle_alpha 90.00000
_cell_angle_beta  127.96400
_cell_angle_gamma 90.00000

_symmetry_space_group_name_	'P 1'
_symmetry_space_group_name_H-M	'P 1'

loop_
_symmetry_equiv_pos_as_xyz
  x,y,z

loop_
_atom_site_label
_atom_site_type_symbol
_atom_site_fract_x
_atom_site_fract_y
_atom_site_fract_z
_atom_site_charge
O 	O 	0.19939 0.42270 0.45408 -0.40400
O 	O 	0.17308 0.46870 0.50336 -0.29700
O 	O 	0.05683 0.92850 0.29470 -0.22800
O 	O 	0.99691 0.31960 0.19460 -0.22600
O 	O 	0.08402 0.77270 0.11962 -0.29300
O 	O 	0.01006 0.82360 0.05682 -0.42100
N 	N 	0.24105 0.23680 0.56145 -0.23900
H 	H 	0.21950 0.31600 0.55290 0.10400
N 	N 	0.19766 0.08960 0.45422 -0.16600
N 	N 	0.18819 0.11760 0.36933 -0.10000
N 	N 	0.99418 0.84490 0.94233 -0.14300
N 	N 	0.06819 0.02340 0.04391 -0.23400
H 	H 	0.08290 0.94400 0.07310 0.10900
N 	N 	0.06642 0.88830 0.96864 -0.07000
C 	C 	0.01827 0.90370 0.92050 -0.04000
H 	H 	0.01050 0.84610 0.88760 0.05700
H 	H 	0.01040 0.00770 0.90920 0.03500
C 	C 	0.06836 0.74000 0.99280 0.01500
H 	H 	0.08820 0.74410 0.03460 0.01600
H 	H 	0.08000 0.66480 0.98100 0.04800
C 	C 	0.01870 0.70170 0.96870 -0.12700
H 	H 	0.00610 0.62260 0.94020 0.07700
H 	H 	0.01740 0.67150 0.99940 0.08300
C 	C 	0.08564 0.00980 0.00980 -0.19100
H 	H 	0.07950 0.10290 0.98920 0.11400
H 	H 	0.11850 0.99710 0.03640 0.09100
C 	C 	0.07996 0.16760 0.07550 -0.08800
H 	H 	0.07020 0.25090 0.04920 0.04400
H 	H 	0.11270 0.17470 0.10530 0.05400
C 	C 	0.94420 0.82720 0.89760 -0.11400
H 	H 	0.93790 0.73240 0.87790 0.07300
H 	H 	0.93270 0.90660 0.86930 0.07200
C 	C 	0.16426 0.14050 0.39376 -0.06000
H 	H 	0.13650 0.08140 0.37350 0.06100
H 	H 	0.15660 0.24510 0.39210 0.05300
C 	C 	0.21074 0.94370 0.44410 -0.06600
H 	H 	0.18860 0.86700 0.43450 0.06100
H 	H 	0.24060 0.91230 0.47800 0.05200
C 	C 	0.21150 0.97220 0.39400 -0.06600
H 	H 	0.24270 0.97690 0.40720 0.06300
H 	H 	0.19550 0.89330 0.36550 0.05900
C 	C 	0.28215 0.25860 0.62209 -0.04100
H 	H 	0.27240 0.27680 0.64560 0.05000
H 	H 	0.29980 0.16680 0.63570 0.04700
C 	C 	0.21744 0.09310 0.55080 -0.05500
H 	H 	0.20530 0.08940 0.57200 0.04600
H 	H 	0.23870 0.01070 0.56350 0.04100
C 	C 	0.17906 0.08020 0.48690 -0.15800
H 	H 	0.16340 0.98550 0.47880 0.09100
H 	H 	0.15720 0.16010 0.47470 0.07900
C 	C 	0.17389 0.49070 0.46209 0.36200
C 	C 	0.14194 0.60530 0.41726 -0.19500
C 	C 	0.13502 0.61830 0.36513 0.15300
H 	H 	0.15040 0.55380 0.35750 -0.01700
C 	C 	0.10628 0.72350 0.32502 -0.27400
H 	H 	0.10160 0.72870 0.29020 0.14000
C 	C 	0.08414 0.82240 0.33658 0.27500
C 	C 	0.09054 0.81460 0.38817 -0.27200
H 	H 	0.07590 0.88180 0.39610 0.12900
C 	C 	0.11902 0.70520 0.42763 0.14000
H 	H 	0.12300 0.69830 0.46200 -0.01100
C 	C 	0.03084 0.02400 0.30333 -0.03300
H 	H 	0.05110 0.08640 0.33700 0.04800
H 	H 	0.01250 0.96450 0.30970 0.06400
C 	C 	0.02869 0.22040 0.24087 -0.00600
H 	H 	0.05110 0.27640 0.27560 0.05100
H 	H 	0.04450 0.16000 0.23070 0.03800
C 	C 	0.01217 0.42800 0.17746 0.25200
C 	C 	0.97764 0.51630 0.13240 -0.25000
H 	H 	0.94760 0.50360 0.11840 0.13400
C 	C 	0.98845 0.62290 0.10880 0.15900
H 	H 	0.96530 0.68070 0.07820 -0.01700
C 	C 	0.03332 0.64600 0.12966 -0.20900
C 	C 	0.06717 0.56170 0.17609 0.14300
H 	H 	0.09750 0.57900 0.19180 -0.01000
C 	C 	0.05702 0.45050 0.20024 -0.26600
H 	H 	0.08010 0.39310 0.23110 0.12300
C 	C 	0.04341 0.75620 0.10026 0.36900
O 	O 	0.69939 0.92270 0.45408 -0.40300
O 	O 	0.67308 0.96870 0.50336 -0.29600
O 	O 	0.55683 0.42850 0.29470 -0.24700
O 	O 	0.49691 0.81960 0.19460 -0.24900
O 	O 	0.58402 0.27270 0.11962 -0.29500
O 	O 	0.51006 0.32360 0.05682 -0.41800
N 	N 	0.74105 0.73680 0.56145 -0.23600
H 	H 	0.71950 0.81600 0.55290 0.10600
N 	N 	0.69766 0.58960 0.45422 -0.16500
N 	N 	0.68819 0.61760 0.36933 -0.09300
N 	N 	0.49418 0.34490 0.94233 -0.15400
N 	N 	0.56819 0.52340 0.04391 -0.22800
H 	H 	0.58290 0.44400 0.07310 0.10000
N 	N 	0.56642 0.38830 0.96864 -0.07700
C 	C 	0.51827 0.40370 0.92050 -0.06000
H 	H 	0.51050 0.34610 0.88760 0.06300
H 	H 	0.51040 0.50770 0.90920 0.05400
C 	C 	0.56836 0.24000 0.99280 0.01500
H 	H 	0.58820 0.24410 0.03460 0.01400
H 	H 	0.58000 0.16480 0.98100 0.04500
C 	C 	0.51870 0.20170 0.96870 -0.11700
H 	H 	0.50610 0.12260 0.94020 0.07500
H 	H 	0.51740 0.17150 0.99940 0.08100
C 	C 	0.58564 0.50980 0.00980 -0.15700
H 	H 	0.57950 0.60290 0.98920 0.10800
H 	H 	0.61850 0.49710 0.03640 0.07100
C 	C 	0.57996 0.66760 0.07550 -0.08700
H 	H 	0.57020 0.75090 0.04920 0.04700
H 	H 	0.61270 0.67470 0.10530 0.05700
C 	C 	0.44420 0.32720 0.89760 -0.11400
H 	H 	0.43790 0.23240 0.87790 0.06900
H 	H 	0.43270 0.40660 0.86930 0.06600
C 	C 	0.66426 0.64050 0.39376 -0.05900
H 	H 	0.63650 0.58140 0.37350 0.06600
H 	H 	0.65660 0.74510 0.39210 0.05400
C 	C 	0.71074 0.44370 0.44410 -0.07400
H 	H 	0.68860 0.36700 0.43450 0.06100
H 	H 	0.74060 0.41230 0.47800 0.05000
C 	C 	0.71150 0.47220 0.39400 -0.07500
H 	H 	0.74270 0.47690 0.40720 0.06000
H 	H 	0.69550 0.39330 0.36550 0.05800
C 	C 	0.78215 0.75860 0.62209 -0.04300
H 	H 	0.77240 0.77680 0.64560 0.05300
H 	H 	0.79980 0.66680 0.63570 0.05000
C 	C 	0.71744 0.59310 0.55080 -0.07500
H 	H 	0.70530 0.58940 0.57200 0.05400
H 	H 	0.73870 0.51070 0.56350 0.05100
C 	C 	0.67906 0.58020 0.48690 -0.12100
H 	H 	0.66340 0.48550 0.47880 0.07000
H 	H 	0.65720 0.66010 0.47470 0.07000
C 	C 	0.67389 0.99070 0.46209 0.37800
C 	C 	0.64194 0.10530 0.41726 -0.21800
C 	C 	0.63502 0.11830 0.36513 0.16900
H 	H 	0.65040 0.05380 0.35750 -0.02700
C 	C 	0.60628 0.22350 0.32502 -0.29000
H 	H 	0.60160 0.22870 0.29020 0.14400
C 	C 	0.58414 0.32240 0.33658 0.28700
C 	C 	0.59054 0.31460 0.38817 -0.28700
H 	H 	0.57590 0.38180 0.39610 0.13200
C 	C 	0.61902 0.20520 0.42763 0.15600
H 	H 	0.62300 0.19830 0.46200 -0.01900
C 	C 	0.53084 0.52400 0.30333 0.01600
H 	H 	0.55110 0.58640 0.33700 0.03700
H 	H 	0.51250 0.46450 0.30970 0.04300
C 	C 	0.52869 0.72040 0.24087 0.01700
H 	H 	0.55110 0.77640 0.27560 0.04600
H 	H 	0.54450 0.66000 0.23070 0.03600
C 	C 	0.51217 0.92800 0.17746 0.29800
C 	C 	0.47764 0.01630 0.13240 -0.29300
H 	H 	0.44760 0.00360 0.11840 0.14400
C 	C 	0.48845 0.12290 0.10880 0.15800
H 	H 	0.46530 0.18070 0.07820 -0.02100
C 	C 	0.53332 0.14600 0.12966 -0.20100
C 	C 	0.56717 0.06170 0.17609 0.13400
H 	H 	0.59750 0.07900 0.19180 -0.01000
C 	C 	0.55702 0.95050 0.20024 -0.26900
H 	H 	0.58010 0.89310 0.23110 0.12800
C 	C 	0.54341 0.25620 0.10026 0.36700
O 	O 	0.80061 0.42270 0.04592 -0.40100
O 	O 	0.82692 0.46870 0.99664 -0.24900
O 	O 	0.94317 0.92850 0.20530 -0.22500
O 	O 	0.00309 0.31960 0.30540 -0.27500
O 	O 	0.91598 0.77270 0.38038 -0.28900
O 	O 	0.98994 0.82360 0.44318 -0.39400
N 	N 	0.75895 0.23680 0.93855 -0.23900
H 	H 	0.78050 0.31600 0.94710 0.11100
N 	N 	0.80234 0.08960 0.04578 -0.16500
N 	N 	0.81181 0.11760 0.13067 -0.09800
N 	N 	0.00582 0.84490 0.55767 -0.17600
N 	N 	0.93181 0.02340 0.45609 -0.23800
H 	H 	0.91710 0.94400 0.42690 0.11100
N 	N 	0.93358 0.88830 0.53136 -0.08900
C 	C 	0.98173 0.90370 0.57950 -0.02100
H 	H 	0.98950 0.84610 0.61240 0.05900
H 	H 	0.98960 0.00770 0.59080 0.03700
C 	C 	0.93164 0.74000 0.50720 -0.08400
H 	H 	0.91180 0.74410 0.46540 0.06900
H 	H 	0.92000 0.66480 0.51900 0.06800
C 	C 	0.98130 0.70170 0.53130 -0.06500
H 	H 	0.99390 0.62260 0.55980 0.06300
H 	H 	0.98260 0.67150 0.50060 0.05300
C 	C 	0.91436 0.00980 0.49020 -0.08000
H 	H 	0.92050 0.10290 0.51080 0.05800
H 	H 	0.88150 0.99710 0.46360 0.06800
C 	C 	0.92004 0.16760 0.42450 -0.08500
H 	H 	0.92980 0.25090 0.45080 0.05700
H 	H 	0.88730 0.17470 0.39470 0.05500
C 	C 	0.05580 0.82720 0.60240 -0.11400
H 	H 	0.06210 0.73240 0.62210 0.06800
H 	H 	0.06730 0.90660 0.63070 0.06900
C 	C 	0.83574 0.14050 0.10624 -0.06200
H 	H 	0.86350 0.08140 0.12650 0.06300
H 	H 	0.84340 0.24510 0.10790 0.05400
C 	C 	0.78926 0.94370 0.05590 -0.06200
H 	H 	0.81140 0.86700 0.06550 0.05600
H 	H 	0.75940 0.91230 0.02200 0.03700
C 	C 	0.78850 0.97220 0.10600 -0.07000
H 	H 	0.75730 0.97690 0.09280 0.06100
H 	H 	0.80450 0.89330 0.13450 0.05900
C 	C 	0.71785 0.25860 0.87791 -0.03800
H 	H 	0.72760 0.27680 0.85440 0.04900
H 	H 	0.70020 0.16680 0.86430 0.04600
C 	C 	0.78256 0.09310 0.94920 0.00400
H 	H 	0.79470 0.08940 0.92800 0.03500
H 	H 	0.76130 0.01070 0.93650 0.03200
C 	C 	0.82094 0.08020 0.01310 -0.21400
H 	H 	0.83660 0.98550 0.02120 0.09900
H 	H 	0.84280 0.16010 0.02530 0.08600
C 	C 	0.82611 0.49070 0.03791 0.30700
C 	C 	0.85806 0.60530 0.08274 -0.18000
C 	C 	0.86498 0.61830 0.13487 0.14100
H 	H 	0.84960 0.55380 0.14250 -0.01300
C 	C 	0.89372 0.72350 0.17498 -0.26500
H 	H 	0.89840 0.72870 0.20980 0.13800
C 	C 	0.91586 0.82240 0.16342 0.27100
C 	C 	0.90946 0.81460 0.11183 -0.26400
H 	H 	0.92410 0.88180 0.10390 0.12600
C 	C 	0.88098 0.70520 0.07237 0.12800
H 	H 	0.87700 0.69830 0.03800 -0.01600
C 	C 	0.96916 0.02400 0.19667 -0.02100
H 	H 	0.94890 0.08640 0.16300 0.04500
H 	H 	0.98750 0.96450 0.19030 0.06700
C 	C 	0.97131 0.22040 0.25913 0.04800
H 	H 	0.94890 0.27640 0.22440 0.03600
H 	H 	0.95550 0.16000 0.26930 0.02600
C 	C 	0.98783 0.42800 0.32254 0.32500
C 	C 	0.02236 0.51630 0.36760 -0.30400
H 	H 	0.05240 0.50360 0.38160 0.15300
C 	C 	0.01155 0.62290 0.39120 0.15100
H 	H 	0.03470 0.68070 0.42180 -0.01600
C 	C 	0.96668 0.64600 0.37034 -0.19100
C 	C 	0.93283 0.56170 0.32391 0.15700
H 	H 	0.90250 0.57900 0.30820 -0.01400
C 	C 	0.94298 0.45050 0.29976 -0.30000
H 	H 	0.91990 0.39310 0.26890 0.13700
C 	C 	0.95659 0.75620 0.39974 0.36600
O 	O 	0.30061 0.92270 0.04592 -0.40100
O 	O 	0.32692 0.96870 0.99664 -0.24700
O 	O 	0.44317 0.42850 0.20530 -0.24500
O 	O 	0.50309 0.81960 0.30540 -0.24900
O 	O 	0.41598 0.27270 0.38038 -0.29300
O 	O 	0.48994 0.32360 0.44318 -0.40500
N 	N 	0.25895 0.73680 0.93855 -0.23600
H 	H 	0.28050 0.81600 0.94710 0.11200
N 	N 	0.30234 0.58960 0.04578 -0.16300
N 	N 	0.31181 0.61760 0.13067 -0.09200
N 	N 	0.50582 0.34490 0.55767 -0.16600
N 	N 	0.43181 0.52340 0.45609 -0.23500
H 	H 	0.41710 0.44400 0.42690 0.10100
N 	N 	0.43358 0.38830 0.53136 -0.09600
C 	C 	0.48173 0.40370 0.57950 -0.05600
H 	H 	0.48950 0.34610 0.61240 0.06300
H 	H 	0.48960 0.50770 0.59080 0.05000
C 	C 	0.43164 0.24000 0.50720 -0.07900
H 	H 	0.41180 0.24410 0.46540 0.06500
H 	H 	0.42000 0.16480 0.51900 0.06300
C 	C 	0.48130 0.20170 0.53130 -0.07500
H 	H 	0.49390 0.12260 0.55980 0.05900
H 	H 	0.48260 0.17150 0.50060 0.05100
C 	C 	0.41436 0.50980 0.49020 -0.04200
H 	H 	0.42050 0.60290 0.51080 0.04800
H 	H 	0.38150 0.49710 0.46360 0.04800
C 	C 	0.42004 0.66760 0.42450 -0.08500
H 	H 	0.42980 0.75090 0.45080 0.05700
H 	H 	0.38730 0.67470 0.39470 0.05900
C 	C 	0.55580 0.32720 0.60240 -0.11500
H 	H 	0.56210 0.23240 0.62210 0.06800
H 	H 	0.56730 0.40660 0.63070 0.06500
C 	C 	0.33574 0.64050 0.10624 -0.06100
H 	H 	0.36350 0.58140 0.12650 0.06700
H 	H 	0.34340 0.74510 0.10790 0.05500
C 	C 	0.28926 0.44370 0.05590 -0.06900
H 	H 	0.31140 0.36700 0.06550 0.05600
H 	H 	0.25940 0.41230 0.02200 0.03500
C 	C 	0.28850 0.47220 0.10600 -0.07900
H 	H 	0.25730 0.47690 0.09280 0.05800
H 	H 	0.30450 0.39330 0.13450 0.05800
C 	C 	0.21785 0.75860 0.87791 -0.04000
H 	H 	0.22760 0.77680 0.85440 0.05300
H 	H 	0.20020 0.66680 0.86430 0.05000
C 	C 	0.28256 0.59310 0.94920 -0.01100
H 	H 	0.29470 0.58940 0.92800 0.04200
H 	H 	0.26130 0.51070 0.93650 0.04100
C 	C 	0.32094 0.58020 0.01310 -0.18300
H 	H 	0.33660 0.48550 0.02120 0.08000
H 	H 	0.34280 0.66010 0.02530 0.07900
C 	C 	0.32611 0.99070 0.03791 0.32300
C 	C 	0.35806 0.10530 0.08274 -0.20200
C 	C 	0.36498 0.11830 0.13487 0.15500
H 	H 	0.34960 0.05380 0.14250 -0.02200
C 	C 	0.39372 0.22350 0.17498 -0.28100
H 	H 	0.39840 0.22870 0.20980 0.14100
C 	C 	0.41586 0.32240 0.16342 0.28100
C 	C 	0.40946 0.31460 0.11183 -0.27900
H 	H 	0.42410 0.38180 0.10390 0.12800
C 	C 	0.38098 0.20520 0.07237 0.14200
H 	H 	0.37700 0.19830 0.03800 -0.02400
C 	C 	0.46916 0.52400 0.19667 0.01600
H 	H 	0.44890 0.58640 0.16300 0.03700
H 	H 	0.48750 0.46450 0.19030 0.04400
C 	C 	0.47131 0.72040 0.25913 0.01700
H 	H 	0.44890 0.77640 0.22440 0.04600
H 	H 	0.45550 0.66000 0.26930 0.03600
C 	C 	0.48783 0.92800 0.32254 0.29700
C 	C 	0.52236 0.01630 0.36760 -0.29200
H 	H 	0.55240 0.00360 0.38160 0.14600
C 	C 	0.51155 0.12290 0.39120 0.15700
H 	H 	0.53470 0.18070 0.42180 -0.01700
C 	C 	0.46668 0.14600 0.37034 -0.19800
C 	C 	0.43283 0.06170 0.32391 0.13300
H 	H 	0.40250 0.07900 0.30820 -0.00900
C 	C 	0.44298 0.95050 0.29976 -0.26800
H 	H 	0.41990 0.89310 0.26890 0.12800
C 	C 	0.45659 0.25620 0.39974 0.36700
O 	O 	0.80061 0.57730 0.54592 -0.40400
O 	O 	0.82692 0.53130 0.49664 -0.29800
O 	O 	0.94317 0.07150 0.70530 -0.26800
O 	O 	0.00309 0.68040 0.80540 -0.27900
O 	O 	0.91598 0.22730 0.88038 -0.28900
O 	O 	0.98994 0.17640 0.94318 -0.38100
N 	N 	0.75895 0.76320 0.43855 -0.23300
H 	H 	0.78050 0.68400 0.44710 0.10300
N 	N 	0.80234 0.91040 0.54578 -0.16400
N 	N 	0.81181 0.88240 0.63067 -0.08800
N 	N 	0.00582 0.15510 0.05767 -0.18400
N 	N 	0.93181 0.97660 0.95609 -0.23100
H 	H 	0.91710 0.05600 0.92690 0.09500
N 	N 	0.93358 0.11170 0.03136 -0.12100
C 	C 	0.98173 0.09630 0.07950 -0.06800
H 	H 	0.98950 0.15390 0.11240 0.06900
H 	H 	0.98960 0.99230 0.09080 0.06400
C 	C 	0.93164 0.26000 0.00720 -0.17100
H 	H 	0.91180 0.25590 0.96540 0.11500
H 	H 	0.92000 0.33520 0.01900 0.08400
C 	C 	0.98130 0.29830 0.03130 -0.02600
H 	H 	0.99390 0.37740 0.05980 0.04800
H 	H 	0.98260 0.32850 0.00060 0.02400
C 	C 	0.91436 0.99020 0.99020 0.11300
H 	H 	0.92050 0.89710 0.01080 -0.02100
H 	H 	0.88150 0.00290 0.96360 0.00300
C 	C 	0.92004 0.83240 0.92450 -0.07800
H 	H 	0.92980 0.74910 0.95080 0.06700
H 	H 	0.88730 0.82530 0.89470 0.06200
C 	C 	0.05580 0.17280 0.10240 -0.11400
H 	H 	0.06210 0.26760 0.12210 0.06600
H 	H 	0.06730 0.09340 0.13070 0.06000
C 	C 	0.83574 0.85950 0.60624 -0.05700
H 	H 	0.86350 0.91860 0.62650 0.07000
H 	H 	0.84340 0.75490 0.60790 0.05300
C 	C 	0.78926 0.05630 0.55590 -0.08100
H 	H 	0.81140 0.13300 0.56550 0.06200
H 	H 	0.75940 0.08770 0.52200 0.04900
C 	C 	0.78850 0.02780 0.60600 -0.08500
H 	H 	0.75730 0.02310 0.59280 0.05900
H 	H 	0.80450 0.10670 0.63450 0.06000
C 	C 	0.71785 0.74140 0.37791 -0.04500
H 	H 	0.72760 0.72320 0.35440 0.05200
H 	H 	0.70020 0.83320 0.36430 0.05200
C 	C 	0.78256 0.90690 0.44920 -0.09200
H 	H 	0.79470 0.91060 0.42800 0.06100
H 	H 	0.76130 0.98930 0.43650 0.06000
C 	C 	0.82094 0.91980 0.51310 -0.08700
H 	H 	0.83660 0.01450 0.52120 0.05100
H 	H 	0.84280 0.83990 0.52530 0.06100
C 	C 	0.82611 0.50930 0.53791 0.36500
C 	C 	0.85806 0.39470 0.58274 -0.20200
C 	C 	0.86498 0.38170 0.63487 0.16300
H 	H 	0.84960 0.44620 0.64250 -0.01900
C 	C 	0.89372 0.27650 0.67498 -0.28700
H 	H 	0.89840 0.27130 0.70980 0.14500
C 	C 	0.91586 0.17760 0.66342 0.29100
C 	C 	0.90946 0.18540 0.61183 -0.28500
H 	H 	0.92410 0.11820 0.60390 0.13000
C 	C 	0.88098 0.29480 0.57237 0.15000
H 	H 	0.87700 0.30170 0.53800 -0.01600
C 	C 	0.96916 0.97600 0.69667 0.10500
H 	H 	0.94890 0.91360 0.66300 0.01500
H 	H 	0.98750 0.03550 0.69030 0.01300
C 	C 	0.97131 0.77960 0.75913 0.08200
H 	H 	0.94890 0.72360 0.72440 0.02700
H 	H 	0.95550 0.84000 0.76930 0.02300
C 	C 	0.98783 0.57200 0.82254 0.32800
C 	C 	0.02236 0.48370 0.86760 -0.30500
H 	H 	0.05240 0.49640 0.88160 0.15600
C 	C 	0.01155 0.37710 0.89120 0.15200
H 	H 	0.03470 0.31930 0.92180 -0.01400
C 	C 	0.96668 0.35400 0.87034 -0.18900
C 	C 	0.93283 0.43830 0.82391 0.15700
H 	H 	0.90250 0.42100 0.80820 -0.01300
C 	C 	0.94298 0.54950 0.79976 -0.30100
H 	H 	0.91990 0.60690 0.76890 0.13900
C 	C 	0.95659 0.24380 0.89974 0.36600
O 	O 	0.30061 0.07730 0.54592 -0.40300
O 	O 	0.32692 0.03130 0.49664 -0.29900
O 	O 	0.44317 0.57150 0.70530 -0.24300
O 	O 	0.50309 0.18040 0.80540 -0.25000
O 	O 	0.41598 0.72730 0.88038 -0.28800
O 	O 	0.48994 0.67640 0.94318 -0.38700
N 	N 	0.25895 0.26320 0.43855 -0.23600
H 	H 	0.28050 0.18400 0.44710 0.10200
N 	N 	0.30234 0.41040 0.54578 -0.16500
N 	N 	0.31181 0.38240 0.63067 -0.09400
N 	N 	0.50582 0.65510 0.05767 -0.17500
N 	N 	0.43181 0.47660 0.95609 -0.23900
H 	H 	0.41710 0.55600 0.92690 0.10400
N 	N 	0.43358 0.61170 0.03136 -0.11400
C 	C 	0.48173 0.59630 0.07950 -0.05200
H 	H 	0.48950 0.65390 0.11240 0.06300
H 	H 	0.48960 0.49230 0.09080 0.04700
C 	C 	0.43164 0.76000 0.00720 -0.17400
H 	H 	0.41180 0.75590 0.96540 0.11900
H 	H 	0.42000 0.83520 0.01900 0.08700
C 	C 	0.48130 0.79830 0.03130 -0.03500
H 	H 	0.49390 0.87740 0.05980 0.04900
H 	H 	0.48260 0.82850 0.00060 0.02500
C 	C 	0.41436 0.49020 0.99020 0.07500
H 	H 	0.42050 0.39710 0.01080 -0.01300
H 	H 	0.38150 0.50290 0.96360 0.02400
C 	C 	0.42004 0.33240 0.92450 -0.08000
H 	H 	0.42980 0.24910 0.95080 0.06400
H 	H 	0.38730 0.32530 0.89470 0.05800
C 	C 	0.55580 0.67280 0.10240 -0.11400
H 	H 	0.56210 0.76760 0.12210 0.07000
H 	H 	0.56730 0.59340 0.13070 0.06600
C 	C 	0.33574 0.35950 0.60624 -0.05700
H 	H 	0.36350 0.41860 0.62650 0.06500
H 	H 	0.34340 0.25490 0.60790 0.05200
C 	C 	0.28926 0.55630 0.55590 -0.07400
H 	H 	0.31140 0.63300 0.56550 0.06200
H 	H 	0.25940 0.58770 0.52200 0.05100
C 	C 	0.28850 0.52780 0.60600 -0.07600
H 	H 	0.25730 0.52310 0.59280 0.06200
H 	H 	0.30450 0.60670 0.63450 0.06100
C 	C 	0.21785 0.24140 0.37791 -0.04300
H 	H 	0.22760 0.22320 0.35440 0.04900
H 	H 	0.20020 0.33320 0.36430 0.04900
C 	C 	0.28256 0.40690 0.44920 -0.07500
H 	H 	0.29470 0.41060 0.42800 0.05400
H 	H 	0.26130 0.48930 0.43650 0.05100
C 	C 	0.32094 0.41980 0.51310 -0.12100
H 	H 	0.33660 0.51450 0.52120 0.07000
H 	H 	0.34280 0.33990 0.52530 0.07000
C 	C 	0.32611 0.00930 0.53791 0.34700
C 	C 	0.35806 0.89470 0.58274 -0.17700
C 	C 	0.36498 0.88170 0.63487 0.14400
H 	H 	0.34960 0.94620 0.64250 -0.00800
C 	C 	0.39372 0.77650 0.67498 -0.26800
H 	H 	0.39840 0.77130 0.70980 0.13900
C 	C 	0.41586 0.67760 0.66342 0.27400
C 	C 	0.40946 0.68540 0.61183 -0.26700
H 	H 	0.42410 0.61820 0.60390 0.12500
C 	C 	0.38098 0.79480 0.57237 0.13100
H 	H 	0.37700 0.80170 0.53800 -0.00600
C 	C 	0.46916 0.47600 0.69667 0.01500
H 	H 	0.44890 0.41360 0.66300 0.03700
H 	H 	0.48750 0.53550 0.69030 0.04400
C 	C 	0.47131 0.27960 0.75913 0.01800
H 	H 	0.44890 0.22360 0.72440 0.04300
H 	H 	0.45550 0.34000 0.76930 0.03600
C 	C 	0.48783 0.07200 0.82254 0.27800
C 	C 	0.52236 0.98370 0.86760 -0.26000
H 	H 	0.55240 0.99640 0.88160 0.14500
C 	C 	0.51155 0.87710 0.89120 0.15200
H 	H 	0.53470 0.81930 0.92180 -0.01000
C 	C 	0.46668 0.85400 0.87034 -0.19800
C 	C 	0.43283 0.93830 0.82391 0.16700
H 	H 	0.40250 0.92100 0.80820 -0.01300
C 	C 	0.44298 0.04950 0.79976 -0.29800
H 	H 	0.41990 0.10690 0.76890 0.13300
C 	C 	0.45659 0.74380 0.89974 0.36900
O 	O 	0.19939 0.57730 0.95408 -0.40100
O 	O 	0.17308 0.53130 0.00336 -0.34500
O 	O 	0.05683 0.07150 0.79470 -0.27400
O 	O 	0.99691 0.68040 0.69460 -0.23100
O 	O 	0.08402 0.22730 0.61962 -0.29500
O 	O 	0.01006 0.17640 0.55682 -0.41400
N 	N 	0.24105 0.76320 0.06145 -0.22900
H 	H 	0.21950 0.68400 0.05290 0.09700
N 	N 	0.19766 0.91040 0.95422 -0.16200
N 	N 	0.18819 0.88240 0.86933 -0.08800
N 	N 	0.99418 0.15510 0.44233 -0.15300
N 	N 	0.06819 0.97660 0.54391 -0.23000
H 	H 	0.08290 0.05600 0.57310 0.09200
N 	N 	0.06642 0.11170 0.46864 -0.10300
C 	C 	0.01827 0.09630 0.42050 -0.09400
H 	H 	0.01050 0.15390 0.38760 0.06900
H 	H 	0.01040 0.99230 0.40920 0.06600
C 	C 	0.06836 0.26000 0.49280 -0.07400
H 	H 	0.08820 0.25590 0.53460 0.06300
H 	H 	0.08000 0.33520 0.48100 0.06400
C 	C 	0.01870 0.29830 0.46870 -0.08800
H 	H 	0.00610 0.37740 0.44020 0.06200
H 	H 	0.01740 0.32850 0.49940 0.05300
C 	C 	0.08564 0.99020 0.50980 0.00000
H 	H 	0.07950 0.89710 0.48920 0.03600
H 	H 	0.11850 0.00290 0.53640 0.02600
C 	C 	0.07996 0.83240 0.57550 -0.08300
H 	H 	0.07020 0.74910 0.54920 0.05400
H 	H 	0.11270 0.82530 0.60530 0.06100
C 	C 	0.94420 0.17280 0.39760 -0.11600
H 	H 	0.93790 0.26760 0.37790 0.07200
H 	H 	0.93270 0.09340 0.36930 0.06300
C 	C 	0.16426 0.85950 0.89376 -0.05300
H 	H 	0.13650 0.91860 0.87350 0.06900
H 	H 	0.15660 0.75490 0.89210 0.05300
C 	C 	0.21074 0.05630 0.94410 -0.08700
H 	H 	0.18860 0.13300 0.93450 0.06700
H 	H 	0.24060 0.08770 0.97800 0.06500
C 	C 	0.21150 0.02780 0.89400 -0.08100
H 	H 	0.24270 0.02310 0.90720 0.06100
H 	H 	0.19550 0.10670 0.86550 0.06000
C 	C 	0.28215 0.74140 0.12209 -0.04800
H 	H 	0.27240 0.72320 0.14560 0.05300
H 	H 	0.29980 0.83320 0.13570 0.05300
C 	C 	0.21744 0.90690 0.05080 -0.15500
H 	H 	0.20530 0.91060 0.07200 0.07300
H 	H 	0.23870 0.98930 0.06350 0.07000
C 	C 	0.17906 0.91980 0.98690 -0.02200
H 	H 	0.16340 0.01450 0.97880 0.03900
H 	H 	0.15720 0.83990 0.97470 0.05300
C 	C 	0.17389 0.50930 0.96209 0.41800
C 	C 	0.14194 0.39470 0.91726 -0.21700
C 	C 	0.13502 0.38170 0.86513 0.17500
H 	H 	0.15040 0.44620 0.85750 -0.02300
C 	C 	0.10628 0.27650 0.82502 -0.29600
H 	H 	0.10160 0.27130 0.79020 0.14700
C 	C 	0.08414 0.17760 0.83658 0.29600
C 	C 	0.09054 0.18540 0.88817 -0.29300
H 	H 	0.07590 0.11820 0.89610 0.13200
C 	C 	0.11902 0.29480 0.92763 0.16200
H 	H 	0.12300 0.30170 0.96200 -0.01100
C 	C 	0.03084 0.97600 0.80333 0.09900
H 	H 	0.05110 0.91360 0.83700 0.01700
H 	H 	0.01250 0.03550 0.80970 0.00600
C 	C 	0.02869 0.77960 0.74087 0.03000
H 	H 	0.05110 0.72360 0.77560 0.04100
H 	H 	0.04450 0.84000 0.73070 0.03300
C 	C 	0.01217 0.57200 0.67746 0.25600
C 	C 	0.97764 0.48370 0.63240 -0.25400
H 	H 	0.94760 0.49640 0.61840 0.13800
C 	C 	0.98845 0.37710 0.60880 0.16200
H 	H 	0.96530 0.31930 0.57820 -0.01600
C 	C 	0.03332 0.35400 0.62966 -0.21000
C 	C 	0.06717 0.43830 0.67609 0.14500
H 	H 	0.09750 0.42100 0.69180 -0.01000
C 	C 	0.05702 0.54950 0.70024 -0.27000
H 	H 	0.08010 0.60690 0.73110 0.12600
C 	C 	0.04341 0.24380 0.60026 0.37000
O 	O 	0.69939 0.07730 0.95408 -0.40000
O 	O 	0.67308 0.03130 0.00336 -0.34500
O 	O 	0.55683 0.57150 0.79470 -0.24400
O 	O 	0.49691 0.18040 0.69460 -0.25000
O 	O 	0.58402 0.72730 0.61962 -0.29100
O 	O 	0.51006 0.67640 0.55682 -0.40500
N 	N 	0.74105 0.26320 0.06145 -0.23200
H 	H 	0.71950 0.18400 0.05290 0.09600
N 	N 	0.69766 0.41040 0.95422 -0.16300
N 	N 	0.68819 0.38240 0.86933 -0.09500
N 	N 	0.49418 0.65510 0.44233 -0.16600
N 	N 	0.56819 0.47660 0.54391 -0.23600
H 	H 	0.58290 0.55600 0.57310 0.10200
N 	N 	0.56642 0.61170 0.46864 -0.09500
C 	C 	0.51827 0.59630 0.42050 -0.05600
H 	H 	0.51050 0.65390 0.38760 0.06400
H 	H 	0.51040 0.49230 0.40920 0.05000
C 	C 	0.56836 0.76000 0.49280 -0.08000
H 	H 	0.58820 0.75590 0.53460 0.06700
H 	H 	0.58000 0.83520 0.48100 0.06900
C 	C 	0.51870 0.79830 0.46870 -0.07800
H 	H 	0.50610 0.87740 0.44020 0.06600
H 	H 	0.51740 0.82850 0.49940 0.05500
C 	C 	0.58564 0.49020 0.50980 -0.04200
H 	H 	0.57950 0.39710 0.48920 0.04700
H 	H 	0.61850 0.50290 0.53640 0.04800
C 	C 	0.57996 0.33240 0.57550 -0.08400
H 	H 	0.57020 0.24910 0.54920 0.05400
H 	H 	0.61270 0.32530 0.60530 0.05700
C 	C 	0.44420 0.67280 0.39760 -0.11500
H 	H 	0.43790 0.76760 0.37790 0.07100
H 	H 	0.43270 0.59340 0.36930 0.06600
C 	C 	0.66426 0.35950 0.89376 -0.05400
H 	H 	0.63650 0.41860 0.87350 0.06300
H 	H 	0.65660 0.25490 0.89210 0.05200
C 	C 	0.71074 0.55630 0.94410 -0.07900
H 	H 	0.68860 0.63300 0.93450 0.06700
H 	H 	0.74060 0.58770 0.97800 0.06700
C 	C 	0.71150 0.52780 0.89400 -0.07100
H 	H 	0.74270 0.52310 0.90720 0.06400
H 	H 	0.69550 0.60670 0.86550 0.06100
C 	C 	0.78215 0.24140 0.12209 -0.04600
H 	H 	0.77240 0.22320 0.14560 0.04900
H 	H 	0.79980 0.33320 0.13570 0.05000
C 	C 	0.71744 0.40690 0.05080 -0.13600
H 	H 	0.70530 0.41060 0.07200 0.06500
H 	H 	0.73870 0.48930 0.06350 0.06100
C 	C 	0.67906 0.41980 0.98690 -0.05800
H 	H 	0.66340 0.51450 0.97880 0.06000
H 	H 	0.65720 0.33990 0.97470 0.06100
C 	C 	0.67389 0.00930 0.96209 0.39900
C 	C 	0.64194 0.89470 0.91726 -0.19200
C 	C 	0.63502 0.88170 0.86513 0.15600
H 	H 	0.65040 0.94620 0.85750 -0.01200
C 	C 	0.60628 0.77650 0.82502 -0.27600
H 	H 	0.60160 0.77130 0.79020 0.14200
C 	C 	0.58414 0.67760 0.83658 0.28000
C 	C 	0.59054 0.68540 0.88817 -0.27400
H 	H 	0.57590 0.61820 0.89610 0.12800
C 	C 	0.61902 0.79480 0.92763 0.14400
H 	H 	0.62300 0.80170 0.96200 -0.00100
C 	C 	0.53084 0.47600 0.80333 0.01500
H 	H 	0.55110 0.41360 0.83700 0.03700
H 	H 	0.51250 0.53550 0.80970 0.04400
C 	C 	0.52869 0.27960 0.74087 0.01800
H 	H 	0.55110 0.22360 0.77560 0.04300
H 	H 	0.54450 0.34000 0.73070 0.03600
C 	C 	0.51217 0.07200 0.67746 0.27900
C 	C 	0.47764 0.98370 0.63240 -0.26100
H 	H 	0.44760 0.99640 0.61840 0.14300
C 	C 	0.48845 0.87710 0.60880 0.15400
H 	H 	0.46530 0.81930 0.57820 -0.01400
C 	C 	0.53332 0.85400 0.62966 -0.20200
C 	C 	0.56717 0.93830 0.67609 0.16800
H 	H 	0.59750 0.92100 0.69180 -0.01400
C 	C 	0.55702 0.04950 0.70024 -0.29900
H 	H 	0.58010 0.10690 0.73110 0.13400
C 	C 	0.54341 0.74380 0.60026 0.37000
Ni	Ni	-0.00000 0.00000 -0.00000 1.06800
Ni	Ni	0.50000 0.50000 -0.00000 1.07800
Ni	Ni	0.00000 0.00000 0.50000 1.08400
Ni	Ni	0.50000 0.50000 0.50000 1.09600
Ni	Ni	0.25000 0.25000 0.50000 1.09500
Ni	Ni	0.75000 0.25000 -0.00000 1.07800
Ni	Ni	0.75000 0.75000 0.50000 1.09500
Ni	Ni	0.25000 0.75000 -0.00000 1.07800
C 	C 	0.00000 0.12180 0.25000 0.01200
C 	C 	0.50000 0.62180 0.25000 0.01200
C 	C 	0.00000 0.87820 0.75000 -0.05400
C 	C 	0.50000 0.37820 0.75000 0.01100
