data_crystal

_cell_length_a 37.52600
_cell_length_b 8.84680
_cell_length_c 29.72000
_cell_angle_alpha 90.00000
_cell_angle_beta  127.61000
_cell_angle_gamma 90.00000

_symmetry_space_group_name_	'P 1'
_symmetry_space_group_name_H-M	'P 1'

loop_
_symmetry_equiv_pos_as_xyz
  x,y,z

loop_
_atom_site_label
_atom_site_type_symbol
_atom_site_fract_x
_atom_site_fract_y
_atom_site_fract_z
_atom_site_charge
N 	N 	0.25887 0.76090 0.93804 -0.22600
H 	H 	0.27960 0.67970 0.94540 0.10700
N 	N 	0.20350 0.57720 0.96054 -0.22200
H 	H 	0.21980 0.48200 0.96880 0.08800
N 	N 	0.19239 0.60440 0.87055 -0.06000
C 	C 	0.21710 0.74130 0.87946 -0.05400
H 	H 	0.19760 0.82740 0.86990 0.05600
H 	H 	0.22470 0.74120 0.85360 0.05200
C 	C 	0.17129 0.59500 0.89803 -0.06100
H 	H 	0.15070 0.50990 0.88230 0.06200
H 	H 	0.15370 0.68590 0.88940 0.05600
C 	C 	0.28185 0.90670 0.94700 -0.04800
H 	H 	0.26040 0.98920 0.93220 0.05300
H 	H 	0.29510 0.90620 0.92740 0.05000
C 	C 	0.18154 0.57320 0.98920 -0.05600
H 	H 	0.16630 0.47740 0.98170 0.05600
H 	H 	0.15950 0.65370 0.97470 0.05500
C 	C 	0.21569 0.46480 0.87500 -0.38700
H 	H 	0.24080 0.44740 0.91400 0.15200
H 	H 	0.22630 0.47490 0.85280 0.14800
H 	H 	0.19520 0.38110 0.86100 0.14800
N 	N 	0.56865 0.96830 0.04884 -0.20800
H 	H 	0.58290 0.05680 0.07360 0.08700
N 	N 	0.49785 0.14230 0.94341 -0.21300
H 	H 	0.50740 0.24290 0.96080 0.09200
N 	N 	0.57524 0.08080 0.97848 -0.00100
C 	C 	0.44976 0.15230 0.89348 -0.09900
H 	H 	0.44120 0.06330 0.86980 0.05500
H 	H 	0.44490 0.24050 0.87100 0.06400
C 	C 	0.52873 0.09470 0.92980 -0.10700
H 	H 	0.51850 0.99820 0.91030 0.07500
H 	H 	0.52650 0.16790 0.90390 0.07400
C 	C 	0.57849 0.83650 0.08578 -0.08900
H 	H 	0.61020 0.83530 0.11800 0.05900
H 	H 	0.57150 0.74350 0.06460 0.04800
C 	C 	0.58657 0.95510 0.01580 -0.15600
H 	H 	0.61910 0.94610 0.04220 0.07700
H 	H 	0.57490 0.86320 0.99340 0.10500
C 	C 	0.59670 0.22410 0.00670 -0.61500
H 	H 	0.58240 0.26610 0.02180 0.21000
H 	H 	0.59380 0.29330 0.97970 0.24300
H 	H 	0.62800 0.20720 0.03700 0.21000
O 	O 	0.49527 0.68810 0.19101 -0.24900
C 	C 	0.52778 0.77840 0.23971 0.03000
H 	H 	0.54510 0.83940 0.23220 0.03600
H 	H 	0.54820 0.71480 0.27250 0.04100
O 	O 	0.50766 0.19430 0.04795 -0.41900
O 	O 	0.58124 0.23720 0.11302 -0.29900
O 	O 	0.30148 0.58360 0.04808 -0.40200
C 	C 	0.52963 0.37290 0.11982 -0.18800
C 	C 	0.46914 0.97810 0.19741 0.09200
H 	H 	0.48680 0.03460 0.18940 0.01100
H 	H 	0.44800 0.91520 0.16480 0.02000
C 	C 	0.41771 0.18390 0.16621 0.26800
C 	C 	0.38174 0.29890 0.07464 0.12300
H 	H 	0.37780 0.30540 0.04060 -0.01500
C 	C 	0.35793 0.39680 0.08410 -0.17300
C 	C 	0.56357 0.44200 0.17067 0.13700
H 	H 	0.59340 0.41680 0.18770 -0.01000
C 	C 	0.50953 0.58330 0.17138 0.27300
C 	C 	0.55414 0.54820 0.19684 -0.26700
H 	H 	0.57730 0.59450 0.23060 0.12500
C 	C 	0.41126 0.19180 0.11455 -0.25800
H 	H 	0.42650 0.12640 0.10710 0.11900
C 	C 	0.54024 0.26040 0.09120 0.35700
O 	O 	0.32640 0.53100 0.99810 -0.25800
C 	C 	0.39452 0.28140 0.17649 -0.26100
H 	H 	0.39900 0.27670 0.21090 0.13100
C 	C 	0.36479 0.38530 0.13595 0.13000
H 	H 	0.34900 0.44880 0.14310 -0.01200
C 	C 	0.48518 0.41010 0.09538 0.14400
H 	H 	0.46200 0.36430 0.06150 -0.01600
C 	C 	0.32596 0.51120 0.03972 0.30700
C 	C 	0.47499 0.51330 0.12040 -0.26300
H 	H 	0.44510 0.53680 0.10360 0.13200
O 	O 	0.44539 0.07970 0.20785 -0.26600
N 	N 	0.75887 0.26090 0.93804 -0.23000
H 	H 	0.77960 0.17970 0.94540 0.10500
N 	N 	0.70350 0.07720 0.96054 -0.22700
H 	H 	0.71980 0.98200 0.96880 0.09900
N 	N 	0.69239 0.10440 0.87055 -0.06700
C 	C 	0.71710 0.24130 0.87946 -0.05100
H 	H 	0.69760 0.32740 0.86990 0.05200
H 	H 	0.72470 0.24120 0.85360 0.04800
C 	C 	0.67129 0.09500 0.89803 -0.05900
H 	H 	0.65070 0.00990 0.88230 0.05500
H 	H 	0.65370 0.18590 0.88940 0.05300
C 	C 	0.78185 0.40670 0.94700 -0.02500
H 	H 	0.76040 0.48920 0.93220 0.04100
H 	H 	0.79510 0.40620 0.92740 0.04000
C 	C 	0.68154 0.07320 0.98920 -0.08800
H 	H 	0.66630 0.97740 0.98170 0.07500
H 	H 	0.65950 0.15370 0.97470 0.06300
C 	C 	0.71569 0.96480 0.87500 -0.37200
H 	H 	0.74080 0.94740 0.91400 0.15200
H 	H 	0.72630 0.97490 0.85280 0.14900
H 	H 	0.69520 0.88110 0.86100 0.14800
N 	N 	0.06865 0.46830 0.04884 -0.22000
H 	H 	0.08290 0.55680 0.07360 0.10000
N 	N 	0.99785 0.64230 0.94341 -0.20100
H 	H 	0.00740 0.74290 0.96080 0.08200
N 	N 	0.07524 0.58080 0.97848 0.00300
C 	C 	0.94976 0.65230 0.89348 -0.09900
H 	H 	0.94120 0.56330 0.86980 0.06200
H 	H 	0.94490 0.74050 0.87100 0.06800
C 	C 	0.02873 0.59470 0.92980 -0.08700
H 	H 	0.01850 0.49820 0.91030 0.05500
H 	H 	0.02650 0.66790 0.90390 0.06900
C 	C 	0.07849 0.33650 0.08578 -0.09000
H 	H 	0.11020 0.33530 0.11800 0.05500
H 	H 	0.07150 0.24350 0.06460 0.04400
C 	C 	0.08657 0.45510 0.01580 -0.16900
H 	H 	0.11910 0.44610 0.04220 0.07600
H 	H 	0.07490 0.36320 0.99340 0.10500
C 	C 	0.09670 0.72410 0.00670 -0.60700
H 	H 	0.08240 0.76610 0.02180 0.21000
H 	H 	0.09380 0.79330 0.97970 0.24100
H 	H 	0.12800 0.70720 0.03700 0.21200
O 	O 	0.99527 0.18810 0.19101 -0.23500
C 	C 	0.02778 0.27840 0.23971 0.00900
H 	H 	0.04510 0.33940 0.23220 0.03600
H 	H 	0.04820 0.21480 0.27250 0.04500
O 	O 	0.00766 0.69430 0.04795 -0.42400
O 	O 	0.08124 0.73720 0.11302 -0.29800
O 	O 	0.80148 0.08360 0.04808 -0.40100
C 	C 	0.02963 0.87290 0.11982 -0.22300
C 	C 	0.96914 0.47810 0.19741 0.03700
H 	H 	0.98680 0.53460 0.18940 0.04300
H 	H 	0.94800 0.41520 0.16480 0.03200
C 	C 	0.91771 0.68390 0.16621 0.25600
C 	C 	0.88174 0.79890 0.07464 0.10700
H 	H 	0.87780 0.80540 0.04060 -0.00600
C 	C 	0.85793 0.89680 0.08410 -0.14700
C 	C 	0.06357 0.94200 0.17067 0.17500
H 	H 	0.09340 0.91680 0.18770 -0.02000
C 	C 	0.00953 0.08330 0.17138 0.26700
C 	C 	0.05414 0.04820 0.19684 -0.29700
H 	H 	0.07730 0.09450 0.23060 0.13100
C 	C 	0.91126 0.69180 0.11455 -0.24000
H 	H 	0.92650 0.62640 0.10710 0.11700
C 	C 	0.04024 0.76040 0.09120 0.36900
O 	O 	0.82640 0.03100 0.99810 -0.25800
C 	C 	0.89452 0.78140 0.17649 -0.24300
H 	H 	0.89900 0.77670 0.21090 0.12800
C 	C 	0.86479 0.88530 0.13595 0.11400
H 	H 	0.84900 0.94880 0.14310 -0.00100
C 	C 	0.98518 0.91010 0.09538 0.19500
H 	H 	0.96200 0.86430 0.06150 -0.02900
C 	C 	0.82596 0.01120 0.03972 0.28800
C 	C 	0.97499 0.01330 0.12040 -0.28600
H 	H 	0.94510 0.03680 0.10360 0.13700
O 	O 	0.94539 0.57970 0.20785 -0.23900
N 	N 	0.74113 0.76090 0.56196 -0.22600
H 	H 	0.72040 0.67970 0.55460 0.10000
N 	N 	0.79650 0.57720 0.53946 -0.22200
H 	H 	0.78020 0.48200 0.53120 0.07900
N 	N 	0.80761 0.60440 0.62945 -0.06000
C 	C 	0.78290 0.74130 0.62054 -0.05600
H 	H 	0.80240 0.82740 0.63010 0.05600
H 	H 	0.77530 0.74120 0.64640 0.05300
C 	C 	0.82871 0.59500 0.60197 -0.06400
H 	H 	0.84930 0.50990 0.61770 0.06300
H 	H 	0.84630 0.68590 0.61060 0.05600
C 	C 	0.71815 0.90670 0.55300 -0.10000
H 	H 	0.73960 0.98920 0.56780 0.06100
H 	H 	0.70490 0.90620 0.57260 0.05900
C 	C 	0.81846 0.57320 0.51080 -0.11000
H 	H 	0.83370 0.47740 0.51830 0.06400
H 	H 	0.84050 0.65370 0.52530 0.06300
C 	C 	0.78431 0.46480 0.62500 -0.37900
H 	H 	0.75920 0.44740 0.58600 0.14500
H 	H 	0.77370 0.47490 0.64720 0.14500
H 	H 	0.80480 0.38110 0.63900 0.14500
N 	N 	0.43135 0.96830 0.45116 -0.21700
H 	H 	0.41710 0.05680 0.42640 0.09000
N 	N 	0.50215 0.14230 0.55659 -0.22100
H 	H 	0.49260 0.24290 0.53920 0.08200
N 	N 	0.42476 0.08080 0.52152 -0.06400
C 	C 	0.55024 0.15230 0.60652 -0.10000
H 	H 	0.55880 0.06330 0.63020 0.05500
H 	H 	0.55510 0.24050 0.62900 0.06400
C 	C 	0.47127 0.09470 0.57020 -0.09900
H 	H 	0.48150 0.99820 0.58970 0.07100
H 	H 	0.47350 0.16790 0.59610 0.07100
C 	C 	0.42151 0.83650 0.41422 -0.08700
H 	H 	0.38980 0.83530 0.38200 0.05900
H 	H 	0.42850 0.74350 0.43540 0.05600
C 	C 	0.41343 0.95510 0.48420 -0.04300
H 	H 	0.38090 0.94610 0.45780 0.05200
H 	H 	0.42510 0.86320 0.50660 0.05000
C 	C 	0.40330 0.22410 0.49330 -0.39600
H 	H 	0.41760 0.26610 0.47820 0.15500
H 	H 	0.40620 0.29330 0.52030 0.15500
H 	H 	0.37200 0.20720 0.46300 0.15200
O 	O 	0.50473 0.68810 0.30899 -0.24900
C 	C 	0.47222 0.77840 0.26029 0.03000
H 	H 	0.45490 0.83940 0.26780 0.03600
H 	H 	0.45180 0.71480 0.22750 0.04100
O 	O 	0.49234 0.19430 0.45205 -0.40800
O 	O 	0.41876 0.23720 0.38698 -0.29400
O 	O 	0.69852 0.58360 0.45192 -0.40500
C 	C 	0.47037 0.37290 0.38018 -0.18400
C 	C 	0.53086 0.97810 0.30259 0.09200
H 	H 	0.51320 0.03460 0.31060 0.01100
H 	H 	0.55200 0.91520 0.33520 0.02000
C 	C 	0.58229 0.18390 0.33379 0.27300
C 	C 	0.61826 0.29890 0.42536 0.13500
H 	H 	0.62220 0.30540 0.45940 -0.01100
C 	C 	0.64207 0.39680 0.41590 -0.18700
C 	C 	0.43643 0.44200 0.32933 0.13500
H 	H 	0.40660 0.41680 0.31230 -0.00900
C 	C 	0.49047 0.58330 0.32862 0.27200
C 	C 	0.44586 0.54820 0.30316 -0.26500
H 	H 	0.42270 0.59450 0.26940 0.12400
C 	C 	0.58874 0.19180 0.38545 -0.26400
H 	H 	0.57350 0.12640 0.39290 0.12200
C 	C 	0.45976 0.26040 0.40880 0.35600
O 	O 	0.67360 0.53100 0.50190 -0.30300
C 	C 	0.60548 0.28140 0.32351 -0.26800
H 	H 	0.60100 0.27670 0.28910 0.13300
C 	C 	0.63521 0.38530 0.36405 0.14100
H 	H 	0.65100 0.44880 0.35690 -0.01500
C 	C 	0.51482 0.41010 0.40462 0.14200
H 	H 	0.53800 0.36430 0.43850 -0.01200
C 	C 	0.67404 0.51120 0.46028 0.35500
C 	C 	0.52501 0.51330 0.37960 -0.26100
H 	H 	0.55490 0.53680 0.39640 0.13100
O 	O 	0.55461 0.07970 0.29215 -0.26700
N 	N 	0.24113 0.26090 0.56196 -0.23000
H 	H 	0.22040 0.17970 0.55460 0.09900
N 	N 	0.29650 0.07720 0.53946 -0.22600
H 	H 	0.28020 0.98200 0.53120 0.09000
N 	N 	0.30761 0.10440 0.62945 -0.06800
C 	C 	0.28290 0.24130 0.62054 -0.05300
H 	H 	0.30240 0.32740 0.63010 0.05200
H 	H 	0.27530 0.24120 0.64640 0.04900
C 	C 	0.32871 0.09500 0.60197 -0.06200
H 	H 	0.34930 0.00990 0.61770 0.05600
H 	H 	0.34630 0.18590 0.61060 0.05300
C 	C 	0.21815 0.40670 0.55300 -0.07900
H 	H 	0.23960 0.48920 0.56780 0.05000
H 	H 	0.20490 0.40620 0.57260 0.04900
C 	C 	0.31846 0.07320 0.51080 -0.14600
H 	H 	0.33370 0.97740 0.51830 0.08600
H 	H 	0.34050 0.15370 0.52530 0.07200
C 	C 	0.28431 0.96480 0.62500 -0.36400
H 	H 	0.25920 0.94740 0.58600 0.14600
H 	H 	0.27370 0.97490 0.64720 0.14600
H 	H 	0.30480 0.88110 0.63900 0.14400
N 	N 	0.93135 0.46830 0.45116 -0.22700
H 	H 	0.91710 0.55680 0.42640 0.10200
N 	N 	0.00215 0.64230 0.55659 -0.23600
H 	H 	0.99260 0.74290 0.53920 0.09400
N 	N 	0.92476 0.58080 0.52152 -0.06000
C 	C 	0.05024 0.65230 0.60652 -0.09700
H 	H 	0.05880 0.56330 0.63020 0.05800
H 	H 	0.05510 0.74050 0.62900 0.06300
C 	C 	0.97127 0.59470 0.57020 -0.05800
H 	H 	0.98150 0.49820 0.58970 0.05300
H 	H 	0.97350 0.66790 0.59610 0.06400
C 	C 	0.92151 0.33650 0.41422 -0.08400
H 	H 	0.88980 0.33530 0.38200 0.05400
H 	H 	0.92850 0.24350 0.43540 0.05400
C 	C 	0.91343 0.45510 0.48420 -0.05500
H 	H 	0.88090 0.44610 0.45780 0.05000
H 	H 	0.92510 0.36320 0.50660 0.05200
C 	C 	0.90330 0.72410 0.49330 -0.40000
H 	H 	0.91760 0.76610 0.47820 0.15800
H 	H 	0.90620 0.79330 0.52030 0.15900
H 	H 	0.87200 0.70720 0.46300 0.15700
O 	O 	0.00473 0.18810 0.30899 -0.28100
C 	C 	0.97222 0.27840 0.26029 0.06000
H 	H 	0.95490 0.33940 0.26780 0.02500
H 	H 	0.95180 0.21480 0.22750 0.03200
O 	O 	0.99234 0.69430 0.45205 -0.40000
O 	O 	0.91876 0.73720 0.38698 -0.29100
O 	O 	0.19852 0.08360 0.45192 -0.40400
C 	C 	0.97037 0.87290 0.38018 -0.20100
C 	C 	0.03086 0.47810 0.30259 0.02800
H 	H 	0.01320 0.53460 0.31060 0.03700
H 	H 	0.05200 0.41520 0.33520 0.03400
C 	C 	0.08229 0.68390 0.33379 0.26000
C 	C 	0.11826 0.79890 0.42536 0.11900
H 	H 	0.12220 0.80540 0.45940 -0.00300
C 	C 	0.14207 0.89680 0.41590 -0.16300
C 	C 	0.93643 0.94200 0.32933 0.18500
H 	H 	0.90660 0.91680 0.31230 -0.02200
C 	C 	0.99047 0.08330 0.32862 0.33300
C 	C 	0.94586 0.04820 0.30316 -0.32500
H 	H 	0.92270 0.09450 0.26940 0.14200
C 	C 	0.08874 0.69180 0.38545 -0.24700
H 	H 	0.07350 0.62640 0.39290 0.11900
C 	C 	0.95976 0.76040 0.40880 0.36500
O 	O 	0.17360 0.03100 0.50190 -0.30400
C 	C 	0.10548 0.78140 0.32351 -0.25200
H 	H 	0.10100 0.77670 0.28910 0.12900
C 	C 	0.13521 0.88530 0.36405 0.12600
H 	H 	0.15100 0.94880 0.35690 -0.00500
C 	C 	0.01482 0.91010 0.40462 0.18200
H 	H 	0.03800 0.86430 0.43850 -0.02600
C 	C 	0.17404 0.01120 0.46028 0.33800
C 	C 	0.02501 0.01330 0.37960 -0.33100
H 	H 	0.05490 0.03680 0.39640 0.15100
O 	O 	0.05461 0.57970 0.29215 -0.24400
N 	N 	0.74113 0.23910 0.06196 -0.22900
H 	H 	0.72040 0.32030 0.05460 0.09500
N 	N 	0.79650 0.42280 0.03946 -0.21800
H 	H 	0.78020 0.51800 0.03120 0.07100
N 	N 	0.80761 0.39560 0.12945 -0.06200
C 	C 	0.78290 0.25870 0.12054 -0.05300
H 	H 	0.80240 0.17260 0.13010 0.04900
H 	H 	0.77530 0.25880 0.14640 0.04800
C 	C 	0.82871 0.40500 0.10197 -0.06500
H 	H 	0.84930 0.49010 0.11770 0.06300
H 	H 	0.84630 0.31410 0.11060 0.05400
C 	C 	0.71815 0.09330 0.05300 -0.11600
H 	H 	0.73960 0.01080 0.06780 0.04800
H 	H 	0.70490 0.09380 0.07260 0.04900
C 	C 	0.81846 0.42680 0.01080 -0.16300
H 	H 	0.83370 0.52260 0.01830 0.07300
H 	H 	0.84050 0.34630 0.02530 0.07100
C 	C 	0.78431 0.53520 0.12500 -0.37600
H 	H 	0.75920 0.55260 0.08600 0.14100
H 	H 	0.77370 0.52510 0.14720 0.14300
H 	H 	0.80480 0.61890 0.13900 0.14400
N 	N 	0.43135 0.03170 0.95116 -0.24300
H 	H 	0.41710 0.94320 0.92640 0.11600
N 	N 	0.50215 0.85770 0.05659 -0.22700
H 	H 	0.49260 0.75710 0.03920 0.07400
N 	N 	0.42476 0.91920 0.02152 -0.11600
C 	C 	0.55024 0.84770 0.10652 -0.09900
H 	H 	0.55880 0.93670 0.13020 0.06600
H 	H 	0.55510 0.75950 0.12900 0.06400
C 	C 	0.47127 0.90530 0.07020 -0.02300
H 	H 	0.48150 0.00180 0.08970 0.02700
H 	H 	0.47350 0.83210 0.09610 0.05200
C 	C 	0.42151 0.16350 0.91422 -0.08400
H 	H 	0.38980 0.16470 0.88200 0.05500
H 	H 	0.42850 0.25650 0.93540 0.06400
C 	C 	0.41343 0.04490 0.98420 0.04600
H 	H 	0.38090 0.05390 0.95780 0.02400
H 	H 	0.42510 0.13680 0.00660 -0.00100
C 	C 	0.40330 0.77590 0.99330 -0.18500
H 	H 	0.41760 0.73390 0.97820 0.10200
H 	H 	0.40620 0.70670 0.02030 0.07100
H 	H 	0.37200 0.79280 0.96300 0.10000
O 	O 	0.50473 0.31190 0.80899 -0.24400
C 	C 	0.47222 0.22160 0.76029 -0.01000
H 	H 	0.45490 0.16060 0.76780 0.04100
H 	H 	0.45180 0.28520 0.72750 0.05200
O 	O 	0.49234 0.80570 0.95205 -0.38700
O 	O 	0.41876 0.76280 0.88698 -0.28300
O 	O 	0.69852 0.41640 0.95192 -0.40200
C 	C 	0.47037 0.62710 0.88018 -0.17600
C 	C 	0.53086 0.02190 0.80259 -0.05600
H 	H 	0.51320 0.96540 0.81060 0.07400
H 	H 	0.55200 0.08480 0.83520 0.05500
C 	C 	0.58229 0.81610 0.83379 0.26200
C 	C 	0.61826 0.70110 0.92536 0.13700
H 	H 	0.62220 0.69460 0.95940 -0.00300
C 	C 	0.64207 0.60320 0.91590 -0.19300
C 	C 	0.43643 0.55800 0.82933 0.12900
H 	H 	0.40660 0.58320 0.81230 -0.00500
C 	C 	0.49047 0.41670 0.82862 0.26500
C 	C 	0.44586 0.45180 0.80316 -0.25900
H 	H 	0.42270 0.40550 0.76940 0.12100
C 	C 	0.58874 0.80820 0.88545 -0.25400
H 	H 	0.57350 0.87360 0.89290 0.12400
C 	C 	0.45976 0.73960 0.90880 0.35300
O 	O 	0.67360 0.46900 0.00190 -0.34600
C 	C 	0.60548 0.71860 0.82351 -0.26100
H 	H 	0.60100 0.72330 0.78910 0.13200
C 	C 	0.63521 0.61470 0.86405 0.14400
H 	H 	0.65100 0.55120 0.85690 -0.01500
C 	C 	0.51482 0.58990 0.90462 0.13600
H 	H 	0.53800 0.63570 0.93850 -0.00700
C 	C 	0.67404 0.48880 0.96028 0.39900
C 	C 	0.52501 0.48670 0.87960 -0.25400
H 	H 	0.55490 0.46320 0.89640 0.12800
O 	O 	0.55461 0.92030 0.79215 -0.21900
N 	N 	0.24113 0.73910 0.06196 -0.22600
H 	H 	0.22040 0.82030 0.05460 0.09700
N 	N 	0.29650 0.92280 0.03946 -0.21300
H 	H 	0.28020 0.01800 0.03120 0.05800
N 	N 	0.30761 0.89560 0.12945 -0.05300
C 	C 	0.28290 0.75870 0.12054 -0.05500
H 	H 	0.30240 0.67260 0.13010 0.05200
H 	H 	0.27530 0.75880 0.14640 0.05300
C 	C 	0.32871 0.90500 0.10197 -0.06600
H 	H 	0.34930 0.99010 0.11770 0.07100
H 	H 	0.34630 0.81410 0.11060 0.05700
C 	C 	0.21815 0.59330 0.05300 -0.13100
H 	H 	0.23960 0.51080 0.06780 0.05700
H 	H 	0.20490 0.59380 0.07260 0.05700
C 	C 	0.31846 0.92680 0.01080 -0.11800
H 	H 	0.33370 0.02260 0.01830 0.04800
H 	H 	0.34050 0.84630 0.02530 0.06000
C 	C 	0.28431 0.03520 0.12500 -0.39400
H 	H 	0.25920 0.05260 0.08600 0.14100
H 	H 	0.27370 0.02510 0.14720 0.14300
H 	H 	0.30480 0.11890 0.13900 0.14500
N 	N 	0.93135 0.53170 0.95116 -0.23200
H 	H 	0.91710 0.44320 0.92640 0.10400
N 	N 	0.00215 0.35770 0.05659 -0.23900
H 	H 	0.99260 0.25710 0.03920 0.08200
N 	N 	0.92476 0.41920 0.02152 -0.12300
C 	C 	0.05024 0.34770 0.10652 -0.09900
H 	H 	0.05880 0.43670 0.13020 0.05900
H 	H 	0.05510 0.25950 0.12900 0.06000
C 	C 	0.97127 0.40530 0.07020 -0.04900
H 	H 	0.98150 0.50180 0.08970 0.05000
H 	H 	0.97350 0.33210 0.09610 0.06000
C 	C 	0.92151 0.66350 0.91422 -0.08400
H 	H 	0.88980 0.66470 0.88200 0.05800
H 	H 	0.92850 0.75650 0.93540 0.06700
C 	C 	0.91343 0.54490 0.98420 0.05700
H 	H 	0.88090 0.55390 0.95780 0.02600
H 	H 	0.92510 0.63680 0.00660 -0.00000
C 	C 	0.90330 0.27590 0.99330 -0.17700
H 	H 	0.91760 0.23390 0.97820 0.09900
H 	H 	0.90620 0.20670 0.02030 0.06700
H 	H 	0.87200 0.29280 0.96300 0.09500
O 	O 	0.00473 0.81190 0.80899 -0.26400
C 	C 	0.97222 0.72160 0.76029 0.05000
H 	H 	0.95490 0.66060 0.76780 0.02900
H 	H 	0.95180 0.78520 0.72750 0.03800
O 	O 	0.99234 0.30570 0.95205 -0.38100
O 	O 	0.91876 0.26280 0.88698 -0.28400
O 	O 	0.19852 0.91640 0.95192 -0.40200
C 	C 	0.97037 0.12710 0.88018 -0.14000
C 	C 	0.03086 0.52190 0.80259 0.02800
H 	H 	0.01320 0.46540 0.81060 0.03500
H 	H 	0.05200 0.58480 0.83520 0.03400
C 	C 	0.08229 0.31610 0.83379 0.27600
C 	C 	0.11826 0.20110 0.92536 0.15300
H 	H 	0.12220 0.19460 0.95940 -0.01300
C 	C 	0.14207 0.10320 0.91590 -0.21800
C 	C 	0.93643 0.05800 0.82933 0.09200
H 	H 	0.90660 0.08320 0.81230 0.00400
C 	C 	0.99047 0.91670 0.82862 0.27600
C 	C 	0.94586 0.95180 0.80316 -0.23100
H 	H 	0.92270 0.90550 0.76940 0.11600
C 	C 	0.08874 0.30820 0.88545 -0.27300
H 	H 	0.07350 0.37360 0.89290 0.12700
C 	C 	0.95976 0.23960 0.90880 0.34100
O 	O 	0.17360 0.96900 0.00190 -0.34200
C 	C 	0.10548 0.21860 0.82351 -0.28000
H 	H 	0.10100 0.22330 0.78910 0.13600
C 	C 	0.13521 0.11470 0.86405 0.16000
H 	H 	0.15100 0.05120 0.85690 -0.02600
C 	C 	0.01482 0.08990 0.90462 0.08500
H 	H 	0.03800 0.13570 0.93850 0.00500
C 	C 	0.17404 0.98880 0.96028 0.41500
C 	C 	0.02501 0.98670 0.87960 -0.23500
H 	H 	0.05490 0.96320 0.89640 0.12500
O 	O 	0.05461 0.42030 0.79215 -0.24900
N 	N 	0.25887 0.23910 0.43804 -0.23200
H 	H 	0.27960 0.32030 0.44540 0.10100
N 	N 	0.20350 0.42280 0.46054 -0.22200
H 	H 	0.21980 0.51800 0.46880 0.08000
N 	N 	0.19239 0.39560 0.37055 -0.06100
C 	C 	0.21710 0.25870 0.37946 -0.05100
H 	H 	0.19760 0.17260 0.36990 0.04900
H 	H 	0.22470 0.25880 0.35360 0.04800
C 	C 	0.17129 0.40500 0.39803 -0.06300
H 	H 	0.15070 0.49010 0.38230 0.06300
H 	H 	0.15370 0.31410 0.38940 0.05400
C 	C 	0.28185 0.09330 0.44700 -0.06000
H 	H 	0.26040 0.01080 0.43220 0.03900
H 	H 	0.29510 0.09380 0.42740 0.04000
C 	C 	0.18154 0.42680 0.48920 -0.10900
H 	H 	0.16630 0.52260 0.48170 0.06500
H 	H 	0.15950 0.34630 0.47470 0.06200
C 	C 	0.21569 0.53520 0.37500 -0.38300
H 	H 	0.24080 0.55260 0.41400 0.14800
H 	H 	0.22630 0.52510 0.35280 0.14700
H 	H 	0.19520 0.61890 0.36100 0.14800
N 	N 	0.56865 0.03170 0.54884 -0.23700
H 	H 	0.58290 0.94320 0.57360 0.11300
N 	N 	0.49785 0.85770 0.44341 -0.22300
H 	H 	0.50740 0.75710 0.46080 0.08200
N 	N 	0.57524 0.91920 0.47848 -0.05400
C 	C 	0.44976 0.84770 0.39348 -0.09800
H 	H 	0.44120 0.93670 0.36980 0.06600
H 	H 	0.44490 0.75950 0.37100 0.06500
C 	C 	0.52873 0.90530 0.42980 -0.03500
H 	H 	0.51850 0.00180 0.41030 0.03200
H 	H 	0.52650 0.83210 0.40390 0.05700
C 	C 	0.57849 0.16350 0.58578 -0.08800
H 	H 	0.61020 0.16470 0.61800 0.05400
H 	H 	0.57150 0.25650 0.56460 0.05600
C 	C 	0.58657 0.04490 0.51580 -0.07200
H 	H 	0.61910 0.05390 0.54220 0.05100
H 	H 	0.57490 0.13680 0.49340 0.05600
C 	C 	0.59670 0.77590 0.50670 -0.39700
H 	H 	0.58240 0.73390 0.52180 0.15600
H 	H 	0.59380 0.70670 0.47970 0.15600
H 	H 	0.62800 0.79280 0.53700 0.15700
O 	O 	0.49527 0.31190 0.69101 -0.24400
C 	C 	0.52778 0.22160 0.73971 -0.01000
H 	H 	0.54510 0.16060 0.73220 0.04100
H 	H 	0.54820 0.28520 0.77250 0.05200
O 	O 	0.50766 0.80570 0.54795 -0.40200
O 	O 	0.58124 0.76280 0.61302 -0.28900
O 	O 	0.30148 0.41640 0.54808 -0.40400
C 	C 	0.52963 0.62710 0.61982 -0.18000
C 	C 	0.46914 0.02190 0.69741 -0.05700
H 	H 	0.48680 0.96540 0.68940 0.07500
H 	H 	0.44800 0.08480 0.66480 0.05500
C 	C 	0.41771 0.81610 0.66621 0.25700
C 	C 	0.38174 0.70110 0.57464 0.12600
H 	H 	0.37780 0.69460 0.54060 -0.00700
C 	C 	0.35793 0.60320 0.58410 -0.17900
C 	C 	0.56357 0.55800 0.67067 0.13200
H 	H 	0.59340 0.58320 0.68770 -0.00600
C 	C 	0.50953 0.41670 0.67138 0.26600
C 	C 	0.55414 0.45180 0.69684 -0.26100
H 	H 	0.57730 0.40550 0.73060 0.12200
C 	C 	0.41126 0.80820 0.61455 -0.24800
H 	H 	0.42650 0.87360 0.60710 0.12100
C 	C 	0.54024 0.73960 0.59120 0.35500
O 	O 	0.32640 0.46900 0.49810 -0.30200
C 	C 	0.39452 0.71860 0.67649 -0.25400
H 	H 	0.39900 0.72330 0.71090 0.13000
C 	C 	0.36479 0.61470 0.63595 0.13300
H 	H 	0.34900 0.55120 0.64310 -0.01200
C 	C 	0.48518 0.58990 0.59538 0.13800
H 	H 	0.46200 0.63570 0.56150 -0.01100
C 	C 	0.32596 0.48880 0.53972 0.35200
C 	C 	0.47499 0.48670 0.62040 -0.25700
H 	H 	0.44510 0.46320 0.60360 0.12900
O 	O 	0.44539 0.92030 0.70785 -0.21800
N 	N 	0.75887 0.73910 0.43804 -0.22900
H 	H 	0.77960 0.82030 0.44540 0.10300
N 	N 	0.70350 0.92280 0.46054 -0.21700
H 	H 	0.71980 0.01800 0.46880 0.06700
N 	N 	0.69239 0.89560 0.37055 -0.05200
C 	C 	0.71710 0.75870 0.37946 -0.05400
H 	H 	0.69760 0.67260 0.36990 0.05200
H 	H 	0.72470 0.75880 0.35360 0.05300
C 	C 	0.67129 0.90500 0.39803 -0.06400
H 	H 	0.65070 0.99010 0.38230 0.07100
H 	H 	0.65370 0.81410 0.38940 0.05600
C 	C 	0.78185 0.59330 0.44700 -0.07800
H 	H 	0.76040 0.51080 0.43220 0.04900
H 	H 	0.79510 0.59380 0.42740 0.04900
C 	C 	0.68154 0.92680 0.48920 -0.06900
H 	H 	0.66630 0.02260 0.48170 0.04100
H 	H 	0.65950 0.84630 0.47470 0.05300
C 	C 	0.71569 0.03520 0.37500 -0.40100
H 	H 	0.74080 0.05260 0.41400 0.14700
H 	H 	0.72630 0.02510 0.35280 0.14600
H 	H 	0.69520 0.11890 0.36100 0.14900
N 	N 	0.06865 0.53170 0.54884 -0.22800
H 	H 	0.08290 0.44320 0.57360 0.10100
N 	N 	0.99785 0.35770 0.44341 -0.20800
H 	H 	0.00740 0.25710 0.46080 0.07100
N 	N 	0.07524 0.41920 0.47848 -0.05900
C 	C 	0.94976 0.34770 0.39348 -0.10200
H 	H 	0.94120 0.43670 0.36980 0.06300
H 	H 	0.94490 0.25950 0.37100 0.06600
C 	C 	0.02873 0.40530 0.42980 -0.07900
H 	H 	0.01850 0.50180 0.41030 0.05200
H 	H 	0.02650 0.33210 0.40390 0.06500
C 	C 	0.07849 0.66350 0.58578 -0.09000
H 	H 	0.11020 0.66470 0.61800 0.05900
H 	H 	0.07150 0.75650 0.56460 0.05700
C 	C 	0.08657 0.54490 0.51580 -0.05900
H 	H 	0.11910 0.55390 0.54220 0.05200
H 	H 	0.07490 0.63680 0.49340 0.05300
C 	C 	0.09670 0.27590 0.50670 -0.39300
H 	H 	0.08240 0.23390 0.52180 0.15300
H 	H 	0.09380 0.20670 0.47970 0.15300
H 	H 	0.12800 0.29280 0.53700 0.15300
O 	O 	0.99527 0.81190 0.69101 -0.21600
C 	C 	0.02778 0.72160 0.73971 -0.00400
H 	H 	0.04510 0.66060 0.73220 0.04100
H 	H 	0.04820 0.78520 0.77250 0.05200
O 	O 	0.00766 0.30570 0.54795 -0.41000
O 	O 	0.08124 0.26280 0.61302 -0.29100
O 	O 	0.80148 0.91640 0.54808 -0.40400
C 	C 	0.02963 0.12710 0.61982 -0.16100
C 	C 	0.96914 0.52190 0.69741 0.03700
H 	H 	0.98680 0.46540 0.68940 0.04100
H 	H 	0.94800 0.58480 0.66480 0.03200
C 	C 	0.91771 0.31610 0.66621 0.27400
C 	C 	0.88174 0.20110 0.57464 0.14500
H 	H 	0.87780 0.19460 0.54060 -0.01700
C 	C 	0.85793 0.10320 0.58410 -0.20700
C 	C 	0.06357 0.05800 0.67067 0.07800
H 	H 	0.09340 0.08320 0.68770 0.00800
C 	C 	0.00953 0.91670 0.67138 0.20500
C 	C 	0.05414 0.95180 0.69684 -0.20000
H 	H 	0.07730 0.90550 0.73060 0.10300
C 	C 	0.91126 0.30820 0.61455 -0.26800
H 	H 	0.92650 0.37360 0.60710 0.12600
C 	C 	0.04024 0.23960 0.59120 0.34500
O 	O 	0.82640 0.96900 0.49810 -0.30100
C 	C 	0.89452 0.21860 0.67649 -0.27300
H 	H 	0.89900 0.22330 0.71090 0.13500
C 	C 	0.86479 0.11470 0.63595 0.15100
H 	H 	0.84900 0.05120 0.64310 -0.02400
C 	C 	0.98518 0.08990 0.59538 0.09400
H 	H 	0.96200 0.13570 0.56150 0.00400
C 	C 	0.82596 0.98880 0.53972 0.37200
C 	C 	0.97499 0.98670 0.62040 -0.18300
H 	H 	0.94510 0.96320 0.60360 0.10800
O 	O 	0.94539 0.42030 0.70785 -0.24400
Ni	Ni	0.25000 0.75000 -0.00000 1.08000
Ni	Ni	0.75000 0.75000 0.50000 1.09500
Ni	Ni	0.75000 0.25000 -0.00000 1.07900
Ni	Ni	0.25000 0.25000 0.50000 1.09400
Ni	Ni	0.50000 0.00000 -0.00000 1.07200
Ni	Ni	-0.00000 0.50000 -0.00000 1.07500
Ni	Ni	0.50000 0.00000 0.50000 1.08800
Ni	Ni	0.00000 0.50000 0.50000 1.08900
C 	C 	0.50000 0.87920 0.25000 -0.02200
C 	C 	0.00000 0.37920 0.25000 -0.01600
C 	C 	0.50000 0.12080 0.75000 0.05200
C 	C 	0.00000 0.62080 0.75000 -0.01200
