data_crystal

_cell_length_a 37.35200
_cell_length_b 8.83400
_cell_length_c 29.56200
_cell_angle_alpha 90.00000
_cell_angle_beta  126.83800
_cell_angle_gamma 90.00000

_symmetry_space_group_name_	'P 1'
_symmetry_space_group_name_H-M	'P 1'

loop_
_symmetry_equiv_pos_as_xyz
  x,y,z

loop_
_atom_site_label
_atom_site_type_symbol
_atom_site_fract_x
_atom_site_fract_y
_atom_site_fract_z
_atom_site_charge
O 	O 	0.19847 0.08070 0.45298 -0.40200
O 	O 	0.16439 0.05330 0.49413 -0.30000
O 	O 	0.91413 0.72090 0.37838 -0.28400
O 	O 	0.98769 0.68470 0.44343 -0.39400
O 	O 	0.00165 0.17680 0.30251 -0.27000
O 	O 	0.05666 0.57560 0.29425 -0.24800
N 	N 	0.18898 0.37470 0.36722 -0.10200
N 	N 	0.20098 0.42350 0.45692 -0.16700
N 	N 	0.24033 0.26230 0.56070 -0.23600
H 	H 	0.22060 0.17840 0.55430 0.09600
N 	N 	0.93823 0.59310 0.54267 -0.10500
N 	N 	0.93301 0.48090 0.46174 -0.23400
H 	H 	0.91850 0.56970 0.43740 0.09900
N 	N 	0.00939 0.65640 0.56065 -0.18100
C 	C 	0.97125 0.28150 0.25900 0.05400
H 	H 	0.95630 0.34160 0.27060 0.02600
H 	H 	0.94880 0.22820 0.22440 0.03400
C 	C 	0.02990 0.48070 0.30258 0.02200
H 	H 	0.01170 0.54250 0.30870 0.03900
H 	H 	0.04900 0.41690 0.33550 0.03500
C 	C 	0.98583 0.06730 0.31916 0.30300
C 	C 	0.01880 0.97110 0.36050 -0.27900
H 	H 	0.04790 0.97810 0.37160 0.14900
C 	C 	0.00837 0.86550 0.38500 0.14700
H 	H 	0.03070 0.80310 0.41350 -0.01500
C 	C 	0.96437 0.85080 0.36765 -0.19300
C 	C 	0.93192 0.94240 0.32378 0.17600
H 	H 	0.90230 0.93010 0.31030 -0.01800
C 	C 	0.94186 0.05170 0.29916 -0.31700
H 	H 	0.91950 0.11250 0.27000 0.13900
C 	C 	0.08329 0.68170 0.33546 0.27600
C 	C 	0.09035 0.68780 0.38684 -0.27500
H 	H 	0.07700 0.61740 0.39580 0.12800
C 	C 	0.11771 0.80030 0.42498 0.13400
H 	H 	0.12170 0.80650 0.45920 -0.00900
C 	C 	0.13913 0.90330 0.41365 -0.17700
C 	C 	0.16975 0.02140 0.45707 0.33900
C 	C 	0.13231 0.89190 0.36210 0.14200
H 	H 	0.14690 0.95900 0.35380 -0.00900
C 	C 	0.10457 0.78390 0.32310 -0.26500
H 	H 	0.10000 0.77910 0.28850 0.13700
C 	C 	0.95488 0.74480 0.39880 0.35400
C 	C 	0.91791 0.34630 0.42430 -0.07300
H 	H 	0.88570 0.35000 0.39570 0.05300
H 	H 	0.92520 0.25460 0.44620 0.04700
C 	C 	0.05877 0.65450 0.60394 -0.11900
H 	H 	0.06740 0.56520 0.62750 0.06700
H 	H 	0.06800 0.74290 0.62800 0.07000
C 	C 	0.99517 0.81660 0.54440 0.00700
H 	H 	0.00830 0.85730 0.52680 0.02300
H 	H 	0.00630 0.87560 0.57810 0.03600
C 	C 	0.94429 0.83200 0.50340 -0.16300
H 	H 	0.93640 0.93830 0.49910 0.08500
H 	H 	0.93400 0.79370 0.46660 0.08800
C 	C 	0.98606 0.59720 0.58410 -0.05000
H 	H 	0.99680 0.49580 0.59860 0.05100
H 	H 	0.99350 0.66070 0.61540 0.06400
C 	C 	0.91976 0.47550 0.50048 -0.03800
H 	H 	0.88740 0.48080 0.47780 0.04400
H 	H 	0.92880 0.37830 0.51960 0.04500
C 	C 	0.92057 0.74650 0.52330 -0.02700
H 	H 	0.92400 0.80220 0.55390 0.05400
H 	H 	0.88890 0.74060 0.49250 0.04800
C 	C 	0.16849 0.37830 0.39604 -0.05900
H 	H 	0.15650 0.27890 0.39390 0.05100
H 	H 	0.14380 0.44940 0.37700 0.06400
C 	C 	0.20470 0.52600 0.36670 -0.03100
H 	H 	0.17900 0.59070 0.34210 0.04700
H 	H 	0.22110 0.51920 0.35090 0.04100
C 	C 	0.23447 0.59860 0.42470 -0.14100
H 	H 	0.23800 0.70530 0.42050 0.06900
H 	H 	0.26380 0.55210 0.44590 0.07700
C 	C 	0.21517 0.58140 0.45730 -0.04300
H 	H 	0.23750 0.61280 0.49610 0.04000
H 	H 	0.18960 0.64810 0.44100 0.05200
C 	C 	0.17995 0.41950 0.48630 -0.12400
H 	H 	0.15940 0.33460 0.47250 0.06900
H 	H 	0.16300 0.51170 0.47820 0.06900
C 	C 	0.21538 0.40430 0.54964 -0.07200
H 	H 	0.23560 0.49000 0.56390 0.04700
H 	H 	0.20140 0.40220 0.56860 0.05100
C 	C 	0.28146 0.25070 0.62038 -0.04100
H 	H 	0.29830 0.34390 0.62990 0.04900
H 	H 	0.27230 0.24290 0.64490 0.04600
O 	O 	0.69847 0.58070 0.45298 -0.40200
O 	O 	0.66439 0.55330 0.49413 -0.29700
O 	O 	0.41413 0.22090 0.37838 -0.28700
O 	O 	0.48769 0.18470 0.44343 -0.40100
O 	O 	0.50165 0.67680 0.30251 -0.25100
O 	O 	0.55666 0.07560 0.29425 -0.27000
N 	N 	0.68898 0.87470 0.36722 -0.09100
N 	N 	0.70098 0.92350 0.45692 -0.16400
N 	N 	0.74033 0.76230 0.56070 -0.23300
H 	H 	0.72060 0.67840 0.55430 0.09800
N 	N 	0.43823 0.09310 0.54267 -0.10700
N 	N 	0.43301 0.98090 0.46174 -0.22400
H 	H 	0.41850 0.06970 0.43740 0.08800
N 	N 	0.50939 0.15640 0.56065 -0.16700
C 	C 	0.47125 0.78150 0.25900 0.03900
H 	H 	0.45630 0.84160 0.27060 0.03200
H 	H 	0.44880 0.72820 0.22440 0.03900
C 	C 	0.52990 0.98070 0.30258 0.08600
H 	H 	0.51170 0.04250 0.30870 0.01300
H 	H 	0.54900 0.91690 0.33550 0.02100
C 	C 	0.48583 0.56730 0.31916 0.28800
C 	C 	0.51880 0.47110 0.36050 -0.27700
H 	H 	0.54790 0.47810 0.37160 0.14500
C 	C 	0.50837 0.36550 0.38500 0.15300
H 	H 	0.53070 0.30310 0.41350 -0.01700
C 	C 	0.46437 0.35080 0.36765 -0.19600
C 	C 	0.43192 0.44240 0.32378 0.15000
H 	H 	0.40230 0.43010 0.31030 -0.01300
C 	C 	0.44186 0.55170 0.29916 -0.28600
H 	H 	0.41950 0.61250 0.27000 0.13200
C 	C 	0.58329 0.18170 0.33546 0.29000
C 	C 	0.59035 0.18780 0.38684 -0.29300
H 	H 	0.57700 0.11740 0.39580 0.13200
C 	C 	0.61771 0.30030 0.42498 0.15300
H 	H 	0.62170 0.30650 0.45920 -0.01800
C 	C 	0.63913 0.40330 0.41365 -0.20300
C 	C 	0.66975 0.52140 0.45707 0.35800
C 	C 	0.63231 0.39190 0.36210 0.16000
H 	H 	0.64690 0.45900 0.35380 -0.02000
C 	C 	0.60457 0.28390 0.32310 -0.28400
H 	H 	0.60000 0.27910 0.28850 0.14100
C 	C 	0.45488 0.24480 0.39880 0.35400
C 	C 	0.41791 0.84630 0.42430 -0.07500
H 	H 	0.38570 0.85000 0.39570 0.05700
H 	H 	0.42520 0.75460 0.44620 0.04900
C 	C 	0.55877 0.15450 0.60394 -0.12300
H 	H 	0.56740 0.06520 0.62750 0.06300
H 	H 	0.56800 0.24290 0.62800 0.06900
C 	C 	0.49517 0.31660 0.54440 -0.04700
H 	H 	0.50830 0.35730 0.52680 0.04300
H 	H 	0.50630 0.37560 0.57810 0.05500
C 	C 	0.44429 0.33200 0.50340 -0.13300
H 	H 	0.43640 0.43830 0.49910 0.07100
H 	H 	0.43400 0.29370 0.46660 0.07700
C 	C 	0.48606 0.09720 0.58410 -0.08800
H 	H 	0.49680 0.99580 0.59860 0.06900
H 	H 	0.49350 0.16070 0.61540 0.07000
C 	C 	0.41976 0.97550 0.50048 -0.02600
H 	H 	0.38740 0.98080 0.47780 0.04600
H 	H 	0.42880 0.87830 0.51960 0.04300
C 	C 	0.42057 0.24650 0.52330 -0.04100
H 	H 	0.42400 0.30220 0.55390 0.05500
H 	H 	0.38890 0.24060 0.49250 0.04900
C 	C 	0.66849 0.87830 0.39604 -0.05900
H 	H 	0.65650 0.77890 0.39390 0.05300
H 	H 	0.64380 0.94940 0.37700 0.07100
C 	C 	0.70470 0.02600 0.36670 -0.05500
H 	H 	0.67900 0.09070 0.34210 0.05000
H 	H 	0.72110 0.01920 0.35090 0.04300
C 	C 	0.73447 0.09860 0.42470 -0.11900
H 	H 	0.73800 0.20530 0.42050 0.06000
H 	H 	0.76380 0.05210 0.44590 0.06500
C 	C 	0.71517 0.08140 0.45730 -0.06700
H 	H 	0.73750 0.11280 0.49610 0.04300
H 	H 	0.68960 0.14810 0.44100 0.05700
C 	C 	0.67995 0.91950 0.48630 -0.08400
H 	H 	0.65940 0.83460 0.47250 0.05900
H 	H 	0.66300 0.01170 0.47820 0.04600
C 	C 	0.71538 0.90430 0.54964 -0.09300
H 	H 	0.73560 0.99000 0.56390 0.05800
H 	H 	0.70140 0.90220 0.56860 0.06100
C 	C 	0.78146 0.75070 0.62038 -0.04400
H 	H 	0.79830 0.84390 0.62990 0.05300
H 	H 	0.77230 0.74290 0.64490 0.05000
O 	O 	0.80153 0.08070 0.04702 -0.41100
O 	O 	0.83561 0.05330 0.00587 -0.31700
O 	O 	0.08587 0.72090 0.12162 -0.28300
O 	O 	0.01231 0.68470 0.05657 -0.41300
O 	O 	0.99835 0.17680 0.19749 -0.23300
O 	O 	0.94334 0.57560 0.20575 -0.24600
N 	N 	0.81102 0.37470 0.13278 -0.10000
N 	N 	0.79902 0.42350 0.04308 -0.16500
N 	N 	0.75967 0.26230 0.93930 -0.23700
H 	H 	0.77940 0.17840 0.94570 0.10600
N 	N 	0.06177 0.59310 0.95733 -0.10700
N 	N 	0.06699 0.48090 0.03826 -0.26100
H 	H 	0.08150 0.56970 0.06260 0.10100
N 	N 	0.99061 0.65640 0.93935 -0.14400
C 	C 	0.02875 0.28150 0.24100 0.01500
H 	H 	0.04370 0.34160 0.22940 0.03400
H 	H 	0.05120 0.22820 0.27560 0.04400
C 	C 	0.97010 0.48070 0.19742 0.03000
H 	H 	0.98830 0.54250 0.19130 0.04300
H 	H 	0.95100 0.41690 0.16450 0.03300
C 	C 	0.01417 0.06730 0.18084 0.25200
C 	C 	0.98120 0.97110 0.13950 -0.24000
H 	H 	0.95210 0.97810 0.12840 0.13600
C 	C 	0.99163 0.86550 0.11500 0.15600
H 	H 	0.96930 0.80310 0.08650 -0.01900
C 	C 	0.03563 0.85080 0.13235 -0.20700
C 	C 	0.06808 0.94240 0.17622 0.16800
H 	H 	0.09770 0.93010 0.18970 -0.01600
C 	C 	0.05814 0.05170 0.20084 -0.29200
H 	H 	0.08050 0.11250 0.23000 0.13000
C 	C 	0.91671 0.68170 0.16454 0.28000
C 	C 	0.90965 0.68780 0.11316 -0.28000
H 	H 	0.92300 0.61740 0.10420 0.12900
C 	C 	0.88229 0.80030 0.07502 0.14000
H 	H 	0.87830 0.80650 0.04080 -0.01800
C 	C 	0.86087 0.90330 0.08635 -0.18300
C 	C 	0.83025 0.02140 0.04293 0.34000
C 	C 	0.86769 0.89190 0.13790 0.14700
H 	H 	0.85310 0.95900 0.14620 -0.01000
C 	C 	0.89543 0.78390 0.17690 -0.26800
H 	H 	0.90000 0.77910 0.21150 0.13900
C 	C 	0.04512 0.74480 0.10120 0.35900
C 	C 	0.08209 0.34630 0.07570 -0.06900
H 	H 	0.11430 0.35000 0.10430 0.05000
H 	H 	0.07480 0.25460 0.05380 0.03900
C 	C 	0.94123 0.65450 0.89606 -0.12100
H 	H 	0.93260 0.56520 0.87250 0.07000
H 	H 	0.93200 0.74290 0.87200 0.07100
C 	C 	0.00483 0.81660 0.95560 -0.17100
H 	H 	0.99170 0.85730 0.97320 0.09900
H 	H 	0.99370 0.87560 0.92190 0.10200
C 	C 	0.05571 0.83200 0.99660 0.05700
H 	H 	0.06360 0.93830 0.00090 -0.00700
H 	H 	0.06600 0.79370 0.03340 0.00400
C 	C 	0.01394 0.59720 0.91590 -0.06100
H 	H 	0.00320 0.49580 0.90140 0.04700
H 	H 	0.00650 0.66070 0.88460 0.06100
C 	C 	0.08024 0.47550 0.99952 0.05800
H 	H 	0.11260 0.48080 0.02220 -0.00600
H 	H 	0.07120 0.37830 0.98040 0.02500
C 	C 	0.07943 0.74650 0.97670 -0.05900
H 	H 	0.07600 0.80220 0.94610 0.06700
H 	H 	0.11110 0.74060 0.00750 0.03600
C 	C 	0.83151 0.37830 0.10396 -0.06000
H 	H 	0.84350 0.27890 0.10610 0.05200
H 	H 	0.85620 0.44940 0.12300 0.06500
C 	C 	0.79530 0.52600 0.13330 -0.03400
H 	H 	0.82100 0.59070 0.15790 0.04800
H 	H 	0.77890 0.51920 0.14910 0.04100
C 	C 	0.76553 0.59860 0.07530 -0.13500
H 	H 	0.76200 0.70530 0.07950 0.06200
H 	H 	0.73620 0.55210 0.05410 0.06700
C 	C 	0.78483 0.58140 0.04270 -0.04400
H 	H 	0.76250 0.61280 0.00390 0.02700
H 	H 	0.81040 0.64810 0.05900 0.05000
C 	C 	0.82005 0.41950 0.01370 -0.17400
H 	H 	0.84060 0.33460 0.02750 0.07700
H 	H 	0.83700 0.51170 0.02180 0.07600
C 	C 	0.78462 0.40430 0.95036 -0.01900
H 	H 	0.76440 0.49000 0.93610 0.03800
H 	H 	0.79860 0.40220 0.93140 0.04000
C 	C 	0.71854 0.25070 0.87962 -0.03800
H 	H 	0.70170 0.34390 0.87010 0.04900
H 	H 	0.72770 0.24290 0.85510 0.04500
O 	O 	0.30153 0.58070 0.04702 -0.41100
O 	O 	0.33561 0.55330 0.00587 -0.31600
O 	O 	0.58587 0.22090 0.12162 -0.28700
O 	O 	0.51231 0.18470 0.05657 -0.41000
O 	O 	0.49835 0.67680 0.19749 -0.25100
O 	O 	0.44334 0.07560 0.20575 -0.27100
N 	N 	0.31102 0.87470 0.13278 -0.09000
N 	N 	0.29902 0.92350 0.04308 -0.16100
N 	N 	0.25967 0.76230 0.93930 -0.23400
H 	H 	0.27940 0.67840 0.94570 0.10800
N 	N 	0.56177 0.09310 0.95733 -0.11500
N 	N 	0.56699 0.98090 0.03826 -0.24800
H 	H 	0.58150 0.06970 0.06260 0.08900
N 	N 	0.49061 0.15640 0.93935 -0.15500
C 	C 	0.52875 0.78150 0.24100 0.03900
H 	H 	0.54370 0.84160 0.22940 0.03200
H 	H 	0.55120 0.72820 0.27560 0.03900
C 	C 	0.47010 0.98070 0.19742 0.08700
H 	H 	0.48830 0.04250 0.19130 0.01200
H 	H 	0.45100 0.91690 0.16450 0.02000
C 	C 	0.51417 0.56730 0.18084 0.29000
C 	C 	0.48120 0.47110 0.13950 -0.27900
H 	H 	0.45210 0.47810 0.12840 0.14500
C 	C 	0.49163 0.36550 0.11500 0.15500
H 	H 	0.46930 0.30310 0.08650 -0.02200
C 	C 	0.53563 0.35080 0.13235 -0.20000
C 	C 	0.56808 0.44240 0.17622 0.15300
H 	H 	0.59770 0.43010 0.18970 -0.01500
C 	C 	0.55814 0.55170 0.20084 -0.28800
H 	H 	0.58050 0.61250 0.23000 0.13300
C 	C 	0.41671 0.18170 0.16454 0.29400
C 	C 	0.40965 0.18780 0.11316 -0.29900
H 	H 	0.42300 0.11740 0.10420 0.13200
C 	C 	0.38229 0.30030 0.07502 0.15800
H 	H 	0.37830 0.30650 0.04080 -0.02800
C 	C 	0.36087 0.40330 0.08635 -0.21100
C 	C 	0.33025 0.52140 0.04293 0.36000
C 	C 	0.36769 0.39190 0.13790 0.16500
H 	H 	0.35310 0.45900 0.14620 -0.02200
C 	C 	0.39543 0.28390 0.17690 -0.28800
H 	H 	0.40000 0.27910 0.21150 0.14300
C 	C 	0.54512 0.24480 0.10120 0.35600
C 	C 	0.58209 0.84630 0.07570 -0.06800
H 	H 	0.61430 0.85000 0.10430 0.05400
H 	H 	0.57480 0.75460 0.05380 0.04100
C 	C 	0.44123 0.15450 0.89606 -0.11800
H 	H 	0.43260 0.06520 0.87250 0.06200
H 	H 	0.43200 0.24290 0.87200 0.06800
C 	C 	0.50483 0.31660 0.95560 -0.12000
H 	H 	0.49170 0.35730 0.97320 0.07600
H 	H 	0.49370 0.37560 0.92190 0.07800
C 	C 	0.55571 0.33200 0.99660 0.03200
H 	H 	0.56360 0.43830 0.00090 -0.00300
H 	H 	0.56600 0.29370 0.03340 0.01000
C 	C 	0.51394 0.09720 0.91590 -0.08500
H 	H 	0.50320 0.99580 0.90140 0.06700
H 	H 	0.50650 0.16070 0.88460 0.06800
C 	C 	0.58024 0.97550 0.99952 0.06900
H 	H 	0.61260 0.98080 0.02220 -0.00300
H 	H 	0.57120 0.87830 0.98040 0.02300
C 	C 	0.57943 0.24650 0.97670 -0.04300
H 	H 	0.57600 0.30220 0.94610 0.06000
H 	H 	0.61110 0.24060 0.00750 0.02700
C 	C 	0.33151 0.87830 0.10396 -0.06100
H 	H 	0.34350 0.77890 0.10610 0.05400
H 	H 	0.35620 0.94940 0.12300 0.07200
C 	C 	0.29530 0.02600 0.13330 -0.05900
H 	H 	0.32100 0.09070 0.15790 0.05100
H 	H 	0.27890 0.01920 0.14910 0.04400
C 	C 	0.26553 0.09860 0.07530 -0.11400
H 	H 	0.26200 0.20530 0.07950 0.05300
H 	H 	0.23620 0.05210 0.05410 0.05500
C 	C 	0.28483 0.08140 0.04270 -0.06800
H 	H 	0.26250 0.11280 0.00390 0.03000
H 	H 	0.31040 0.14810 0.05900 0.05400
C 	C 	0.32005 0.91950 0.01370 -0.13300
H 	H 	0.34060 0.83460 0.02750 0.06700
H 	H 	0.33700 0.01170 0.02180 0.05300
C 	C 	0.28462 0.90430 0.95036 -0.04000
H 	H 	0.26440 0.99000 0.93610 0.04900
H 	H 	0.29860 0.90220 0.93140 0.05000
C 	C 	0.21854 0.75070 0.87962 -0.04100
H 	H 	0.20170 0.84390 0.87010 0.05300
H 	H 	0.22770 0.74290 0.85510 0.04900
O 	O 	0.80153 0.91930 0.54702 -0.40100
O 	O 	0.83561 0.94670 0.50587 -0.29500
O 	O 	0.08587 0.27910 0.62162 -0.28500
O 	O 	0.01231 0.31530 0.55657 -0.40400
O 	O 	0.99835 0.82320 0.69749 -0.23300
O 	O 	0.94334 0.42440 0.70575 -0.24900
N 	N 	0.81102 0.62530 0.63278 -0.09900
N 	N 	0.79902 0.57650 0.54308 -0.16700
N 	N 	0.75967 0.73770 0.43930 -0.23600
H 	H 	0.77940 0.82160 0.44570 0.10200
N 	N 	0.06177 0.40690 0.45733 -0.09900
N 	N 	0.06699 0.51910 0.53826 -0.23500
H 	H 	0.08150 0.43030 0.56260 0.09900
N 	N 	0.99061 0.34360 0.43935 -0.15500
C 	C 	0.02875 0.71850 0.74100 0.01400
H 	H 	0.04370 0.65840 0.72940 0.03500
H 	H 	0.05120 0.77180 0.77560 0.04800
C 	C 	0.97010 0.51930 0.69742 0.02800
H 	H 	0.98830 0.45750 0.69130 0.04200
H 	H 	0.95100 0.58310 0.66450 0.03400
C 	C 	0.01417 0.93270 0.68084 0.27100
C 	C 	0.98120 0.02890 0.63950 -0.27300
H 	H 	0.95210 0.02190 0.62840 0.13900
C 	C 	0.99163 0.13450 0.61500 0.15600
H 	H 	0.96930 0.19690 0.58650 -0.01700
C 	C 	0.03563 0.14920 0.63235 -0.19700
C 	C 	0.06808 0.05760 0.67622 0.12400
H 	H 	0.09770 0.06990 0.68970 -0.00700
C 	C 	0.05814 0.94830 0.70084 -0.25500
H 	H 	0.08050 0.88750 0.73000 0.12300
C 	C 	0.91671 0.31830 0.66454 0.29200
C 	C 	0.90965 0.31220 0.61316 -0.29800
H 	H 	0.92300 0.38260 0.60420 0.13700
C 	C 	0.88229 0.19970 0.57502 0.16400
H 	H 	0.87830 0.19350 0.54080 -0.02400
C 	C 	0.86087 0.09670 0.58635 -0.22300
C 	C 	0.83025 0.97860 0.54293 0.37500
C 	C 	0.86769 0.10810 0.63790 0.17100
H 	H 	0.85310 0.04100 0.64620 -0.02900
C 	C 	0.89543 0.21610 0.67690 -0.29000
H 	H 	0.90000 0.22090 0.71150 0.14400
C 	C 	0.04512 0.25520 0.60120 0.35200
C 	C 	0.08209 0.65370 0.57570 -0.07900
H 	H 	0.11430 0.65000 0.60430 0.05700
H 	H 	0.07480 0.74540 0.55380 0.05200
C 	C 	0.94123 0.34550 0.39606 -0.12500
H 	H 	0.93260 0.43480 0.37250 0.07100
H 	H 	0.93200 0.25710 0.37200 0.07000
C 	C 	0.00483 0.18340 0.45560 -0.10200
H 	H 	0.99170 0.14270 0.47320 0.06300
H 	H 	0.99370 0.12440 0.42190 0.07400
C 	C 	0.05571 0.16800 0.49660 -0.10000
H 	H 	0.06360 0.06170 0.50090 0.05600
H 	H 	0.06600 0.20630 0.53340 0.06700
C 	C 	0.01394 0.40280 0.41590 -0.06500
H 	H 	0.00320 0.50420 0.40140 0.04800
H 	H 	0.00650 0.33930 0.38460 0.06200
C 	C 	0.08024 0.52450 0.49952 -0.04200
H 	H 	0.11260 0.51920 0.52220 0.04600
H 	H 	0.07120 0.62170 0.48040 0.04600
C 	C 	0.07943 0.25350 0.47670 -0.05800
H 	H 	0.07600 0.19780 0.44610 0.05900
H 	H 	0.11110 0.25940 0.50750 0.05600
C 	C 	0.83151 0.62170 0.60396 -0.06000
H 	H 	0.84350 0.72110 0.60610 0.05400
H 	H 	0.85620 0.55060 0.62300 0.06500
C 	C 	0.79530 0.47400 0.63330 -0.03300
H 	H 	0.82100 0.40930 0.65790 0.04600
H 	H 	0.77890 0.48080 0.64910 0.04100
C 	C 	0.76553 0.40140 0.57530 -0.13700
H 	H 	0.76200 0.29470 0.57950 0.06300
H 	H 	0.73620 0.44790 0.55410 0.07500
C 	C 	0.78483 0.41860 0.54270 -0.04500
H 	H 	0.76250 0.38720 0.50390 0.04000
H 	H 	0.81040 0.35190 0.55900 0.05200
C 	C 	0.82005 0.58050 0.51370 -0.12400
H 	H 	0.84060 0.66540 0.52750 0.06900
H 	H 	0.83700 0.48830 0.52180 0.06900
C 	C 	0.78462 0.59570 0.45036 -0.07200
H 	H 	0.76440 0.51000 0.43610 0.04700
H 	H 	0.79860 0.59780 0.43140 0.05200
C 	C 	0.71854 0.74930 0.37962 -0.04100
H 	H 	0.70170 0.65610 0.37010 0.05000
H 	H 	0.72770 0.75710 0.35510 0.05100
O 	O 	0.30153 0.41930 0.54702 -0.40100
O 	O 	0.33561 0.44670 0.50587 -0.29700
O 	O 	0.58587 0.77910 0.62162 -0.28100
O 	O 	0.51231 0.81530 0.55657 -0.39500
O 	O 	0.49835 0.32320 0.69749 -0.24500
O 	O 	0.44334 0.92440 0.70575 -0.22200
N 	N 	0.31102 0.12530 0.63278 -0.10800
N 	N 	0.29902 0.07650 0.54308 -0.17000
N 	N 	0.25967 0.23770 0.43930 -0.23900
H 	H 	0.27940 0.32160 0.44570 0.09900
N 	N 	0.56177 0.90690 0.45733 -0.09700
N 	N 	0.56699 0.01910 0.53826 -0.24400
H 	H 	0.58150 0.93030 0.56260 0.11100
N 	N 	0.49061 0.84360 0.43935 -0.16900
C 	C 	0.52875 0.21850 0.74100 -0.00100
H 	H 	0.54370 0.15840 0.72940 0.03700
H 	H 	0.55120 0.27180 0.77560 0.05000
C 	C 	0.47010 0.01930 0.69742 -0.06100
H 	H 	0.48830 0.95750 0.69130 0.07600
H 	H 	0.45100 0.08310 0.66450 0.05600
C 	C 	0.51417 0.43270 0.68084 0.28200
C 	C 	0.48120 0.52890 0.63950 -0.27200
H 	H 	0.45210 0.52190 0.62840 0.14200
C 	C 	0.49163 0.63450 0.61500 0.14800
H 	H 	0.46930 0.69690 0.58650 -0.01500
C 	C 	0.53563 0.64920 0.63235 -0.19200
C 	C 	0.56808 0.55760 0.67622 0.14600
H 	H 	0.59770 0.56990 0.68970 -0.01100
C 	C 	0.55814 0.44830 0.70084 -0.28200
H 	H 	0.58050 0.38750 0.73000 0.12900
C 	C 	0.41671 0.81830 0.66454 0.27500
C 	C 	0.40965 0.81220 0.61316 -0.27800
H 	H 	0.42300 0.88260 0.60420 0.13200
C 	C 	0.38229 0.69970 0.57502 0.14400
H 	H 	0.37830 0.69350 0.54080 -0.01400
C 	C 	0.36087 0.59670 0.58635 -0.19600
C 	C 	0.33025 0.47860 0.54293 0.35500
C 	C 	0.36769 0.60810 0.63790 0.15200
H 	H 	0.35310 0.54100 0.64620 -0.01700
C 	C 	0.39543 0.71610 0.67690 -0.27000
H 	H 	0.40000 0.72090 0.71150 0.13800
C 	C 	0.54512 0.75520 0.60120 0.35200
C 	C 	0.58209 0.15370 0.57570 -0.07600
H 	H 	0.61430 0.15000 0.60430 0.05200
H 	H 	0.57480 0.24540 0.55380 0.05000
C 	C 	0.44123 0.84550 0.39606 -0.12100
H 	H 	0.43260 0.93480 0.37250 0.07500
H 	H 	0.43200 0.75710 0.37200 0.07000
C 	C 	0.50483 0.68340 0.45560 -0.04700
H 	H 	0.49170 0.64270 0.47320 0.04300
H 	H 	0.49370 0.62440 0.42190 0.05500
C 	C 	0.55571 0.66800 0.49660 -0.13100
H 	H 	0.56360 0.56170 0.50090 0.07000
H 	H 	0.56600 0.70630 0.53340 0.07800
C 	C 	0.51394 0.90280 0.41590 -0.02500
H 	H 	0.50320 0.00420 0.40140 0.03000
H 	H 	0.50650 0.83930 0.38460 0.05600
C 	C 	0.58024 0.02450 0.49952 -0.05400
H 	H 	0.61260 0.01920 0.52220 0.04400
H 	H 	0.57120 0.12170 0.48040 0.04900
C 	C 	0.57943 0.75350 0.47670 -0.04300
H 	H 	0.57600 0.69780 0.44610 0.05700
H 	H 	0.61110 0.75940 0.50750 0.05500
C 	C 	0.33151 0.12170 0.60396 -0.06000
H 	H 	0.34350 0.22110 0.60610 0.05200
H 	H 	0.35620 0.05060 0.62300 0.05900
C 	C 	0.29530 0.97400 0.63330 -0.00900
H 	H 	0.32100 0.90930 0.65790 0.04300
H 	H 	0.27890 0.98080 0.64910 0.03900
C 	C 	0.26553 0.90140 0.57530 -0.15700
H 	H 	0.26200 0.79470 0.57950 0.07300
H 	H 	0.23620 0.94790 0.55410 0.08700
C 	C 	0.28483 0.91860 0.54270 -0.02200
H 	H 	0.26250 0.88720 0.50390 0.03800
H 	H 	0.31040 0.85190 0.55900 0.04700
C 	C 	0.32005 0.08050 0.51370 -0.16400
H 	H 	0.34060 0.16540 0.52750 0.07900
H 	H 	0.33700 0.98830 0.52180 0.09100
C 	C 	0.28462 0.09570 0.45036 -0.05100
H 	H 	0.26440 0.01000 0.43610 0.03500
H 	H 	0.29860 0.09780 0.43140 0.04100
C 	C 	0.21854 0.24930 0.37962 -0.03800
H 	H 	0.20170 0.15610 0.37010 0.04600
H 	H 	0.22770 0.25710 0.35510 0.04600
O 	O 	0.19847 0.91930 0.95298 -0.38700
O 	O 	0.16439 0.94670 0.99413 -0.27600
O 	O 	0.91413 0.27910 0.87838 -0.28400
O 	O 	0.98769 0.31530 0.94343 -0.38100
O 	O 	0.00165 0.82320 0.80251 -0.26500
O 	O 	0.05666 0.42440 0.79425 -0.25000
N 	N 	0.18898 0.62530 0.86722 -0.10000
N 	N 	0.20098 0.57650 0.95692 -0.16600
N 	N 	0.24033 0.73770 0.06070 -0.23100
H 	H 	0.22060 0.82160 0.05430 0.09300
N 	N 	0.93823 0.40690 0.04267 -0.09800
N 	N 	0.93301 0.51910 0.96174 -0.20700
H 	H 	0.91850 0.43030 0.93740 0.09800
N 	N 	0.00939 0.34360 0.06065 -0.19200
C 	C 	0.97125 0.71850 0.75900 0.04900
H 	H 	0.95630 0.65840 0.77060 0.02800
H 	H 	0.94880 0.77180 0.72440 0.03800
C 	C 	0.02990 0.51930 0.80258 0.02100
H 	H 	0.01170 0.45750 0.80870 0.03900
H 	H 	0.04900 0.58310 0.83550 0.03600
C 	C 	0.98583 0.93270 0.81916 0.31700
C 	C 	0.01880 0.02890 0.86050 -0.30700
H 	H 	0.04790 0.02190 0.87160 0.15100
C 	C 	0.00837 0.13450 0.88500 0.14700
H 	H 	0.03070 0.19690 0.91350 -0.01300
C 	C 	0.96437 0.14920 0.86765 -0.18300
C 	C 	0.93192 0.05760 0.82378 0.13000
H 	H 	0.90230 0.06990 0.81030 -0.00900
C 	C 	0.94186 0.94830 0.79916 -0.27700
H 	H 	0.91950 0.88750 0.77000 0.13100
C 	C 	0.08329 0.31830 0.83546 0.28700
C 	C 	0.09035 0.31220 0.88684 -0.29100
H 	H 	0.07700 0.38260 0.89580 0.13600
C 	C 	0.11771 0.19970 0.92498 0.15700
H 	H 	0.12170 0.19350 0.95920 -0.01400
C 	C 	0.13913 0.09670 0.91365 -0.21400
C 	C 	0.16975 0.97860 0.95707 0.37100
C 	C 	0.13231 0.10810 0.86210 0.16500
H 	H 	0.14690 0.04100 0.85380 -0.02600
C 	C 	0.10457 0.21610 0.82310 -0.28500
H 	H 	0.10000 0.22090 0.78850 0.14100
C 	C 	0.95488 0.25520 0.89880 0.34600
C 	C 	0.91791 0.65370 0.92430 -0.08100
H 	H 	0.88570 0.65000 0.89570 0.05900
H 	H 	0.92520 0.74540 0.94620 0.05900
C 	C 	0.05877 0.34550 0.10394 -0.12200
H 	H 	0.06740 0.43480 0.12750 0.06800
H 	H 	0.06800 0.25710 0.12800 0.06700
C 	C 	0.99517 0.18340 0.04440 0.08600
H 	H 	0.00830 0.14270 0.02680 -0.01700
H 	H 	0.00630 0.12440 0.07810 0.00400
C 	C 	0.94429 0.16800 0.00340 -0.32400
H 	H 	0.93640 0.06170 0.99910 0.14900
H 	H 	0.93400 0.20630 0.96660 0.15200
C 	C 	0.98606 0.40280 0.08410 -0.05100
H 	H 	0.99680 0.50420 0.09860 0.05200
H 	H 	0.99350 0.33930 0.11540 0.06500
C 	C 	0.91976 0.52450 0.00048 -0.13200
H 	H 	0.88740 0.51920 0.97780 0.09300
H 	H 	0.92880 0.62170 0.01960 0.06600
C 	C 	0.92057 0.25350 0.02330 -0.02200
H 	H 	0.92400 0.19780 0.05390 0.04400
H 	H 	0.88890 0.25940 0.99250 0.06700
C 	C 	0.16849 0.62170 0.89604 -0.05700
H 	H 	0.15650 0.72110 0.89390 0.05400
H 	H 	0.14380 0.55060 0.87700 0.06400
C 	C 	0.20470 0.47400 0.86670 -0.02900
H 	H 	0.17900 0.40930 0.84210 0.04500
H 	H 	0.22110 0.48080 0.85090 0.04100
C 	C 	0.23447 0.40140 0.92470 -0.14200
H 	H 	0.23800 0.29470 0.92050 0.07100
H 	H 	0.26380 0.44790 0.94590 0.08600
C 	C 	0.21517 0.41860 0.95730 -0.04400
H 	H 	0.23750 0.38720 0.99610 0.05400
H 	H 	0.18960 0.35190 0.94100 0.05400
C 	C 	0.17995 0.58050 0.98630 -0.07100
H 	H 	0.15940 0.66540 0.97250 0.06100
H 	H 	0.16300 0.48830 0.97820 0.06100
C 	C 	0.21538 0.59570 0.04964 -0.12500
H 	H 	0.23560 0.51000 0.06390 0.05600
H 	H 	0.20140 0.59780 0.06860 0.06300
C 	C 	0.28146 0.74930 0.12038 -0.04300
H 	H 	0.29830 0.65610 0.12990 0.05000
H 	H 	0.27230 0.75710 0.14490 0.05100
O 	O 	0.69847 0.41930 0.95298 -0.38700
O 	O 	0.66439 0.44670 0.99413 -0.27700
O 	O 	0.41413 0.77910 0.87838 -0.28000
O 	O 	0.48769 0.81530 0.94343 -0.38200
O 	O 	0.50165 0.32320 0.80251 -0.24400
O 	O 	0.55666 0.92440 0.79425 -0.22100
N 	N 	0.68898 0.12530 0.86722 -0.10900
N 	N 	0.70098 0.07650 0.95692 -0.17000
N 	N 	0.74033 0.23770 0.06070 -0.23400
H 	H 	0.72060 0.32160 0.05430 0.09000
N 	N 	0.43823 0.90690 0.04267 -0.08900
N 	N 	0.43301 0.01910 0.96174 -0.21500
H 	H 	0.41850 0.93030 0.93740 0.10900
N 	N 	0.50939 0.84360 0.06065 -0.17800
C 	C 	0.47125 0.21850 0.75900 -0.00100
H 	H 	0.45630 0.15840 0.77060 0.03700
H 	H 	0.44880 0.27180 0.72440 0.05000
C 	C 	0.52990 0.01930 0.80258 -0.06100
H 	H 	0.51170 0.95750 0.80870 0.07600
H 	H 	0.54900 0.08310 0.83550 0.05600
C 	C 	0.48583 0.43270 0.81916 0.27900
C 	C 	0.51880 0.52890 0.86050 -0.26900
H 	H 	0.54790 0.52190 0.87160 0.14200
C 	C 	0.50837 0.63450 0.88500 0.14500
H 	H 	0.53070 0.69690 0.91350 -0.00900
C 	C 	0.46437 0.64920 0.86765 -0.18800
C 	C 	0.43192 0.55760 0.82378 0.14200
H 	H 	0.40230 0.56990 0.81030 -0.01000
C 	C 	0.44186 0.44830 0.79916 -0.27900
H 	H 	0.41950 0.38750 0.77000 0.12800
C 	C 	0.58329 0.81830 0.83546 0.27100
C 	C 	0.59035 0.81220 0.88684 -0.27200
H 	H 	0.57700 0.88260 0.89580 0.13200
C 	C 	0.61771 0.69970 0.92498 0.13800
H 	H 	0.62170 0.69350 0.95920 -0.00500
C 	C 	0.63913 0.59670 0.91365 -0.18800
C 	C 	0.66975 0.47860 0.95707 0.35200
C 	C 	0.63231 0.60810 0.86210 0.14700
H 	H 	0.64690 0.54100 0.85380 -0.01500
C 	C 	0.60457 0.71610 0.82310 -0.26500
H 	H 	0.60000 0.72090 0.78850 0.13700
C 	C 	0.45488 0.75520 0.89880 0.34800
C 	C 	0.41791 0.15370 0.92430 -0.08300
H 	H 	0.38570 0.15000 0.89570 0.05600
H 	H 	0.42520 0.24540 0.94620 0.05800
C 	C 	0.55877 0.84550 0.10394 -0.12400
H 	H 	0.56740 0.93480 0.12750 0.07600
H 	H 	0.56800 0.75710 0.12800 0.07100
C 	C 	0.49517 0.68340 0.04440 0.02500
H 	H 	0.50830 0.64270 0.02680 0.01100
H 	H 	0.50630 0.62440 0.07810 0.03100
C 	C 	0.44429 0.66800 0.00340 -0.29400
H 	H 	0.43640 0.56170 0.99910 0.14400
H 	H 	0.43400 0.70630 0.96660 0.14500
C 	C 	0.48606 0.90280 0.08410 -0.02600
H 	H 	0.49680 0.00420 0.09860 0.03100
H 	H 	0.49350 0.83930 0.11540 0.05700
C 	C 	0.41976 0.02450 0.00048 -0.15200
H 	H 	0.38740 0.01920 0.97780 0.09500
H 	H 	0.42880 0.12170 0.01960 0.07000
C 	C 	0.42057 0.75350 0.02330 -0.04000
H 	H 	0.42400 0.69780 0.05390 0.05200
H 	H 	0.38890 0.75940 0.99250 0.07600
C 	C 	0.66849 0.12170 0.89604 -0.05700
H 	H 	0.65650 0.22110 0.89390 0.05200
H 	H 	0.64380 0.05060 0.87700 0.05800
C 	C 	0.70470 0.97400 0.86670 -0.00600
H 	H 	0.67900 0.90930 0.84210 0.04200
H 	H 	0.72110 0.98080 0.85090 0.03900
C 	C 	0.73447 0.90140 0.92470 -0.16200
H 	H 	0.73800 0.79470 0.92050 0.07900
H 	H 	0.76380 0.94790 0.94590 0.09700
C 	C 	0.71517 0.91860 0.95730 -0.02200
H 	H 	0.73750 0.88720 0.99610 0.05100
H 	H 	0.68960 0.85190 0.94100 0.05000
C 	C 	0.67995 0.08050 0.98630 -0.10900
H 	H 	0.65940 0.16540 0.97250 0.07100
H 	H 	0.66300 0.98830 0.97820 0.08200
C 	C 	0.71538 0.09570 0.04964 -0.10500
H 	H 	0.73560 0.01000 0.06390 0.04500
H 	H 	0.70140 0.09780 0.06860 0.05300
C 	C 	0.78146 0.24930 0.12038 -0.04000
H 	H 	0.79830 0.15610 0.12990 0.04600
H 	H 	0.77230 0.25710 0.14490 0.04600
Ni	Ni	0.00000 0.50000 0.50000 1.08700
Ni	Ni	0.50000 0.00000 0.50000 1.08400
Ni	Ni	-0.00000 0.50000 -0.00000 1.07300
Ni	Ni	0.50000 0.00000 -0.00000 1.07000
Ni	Ni	0.25000 0.25000 0.50000 1.09200
Ni	Ni	0.75000 0.25000 -0.00000 1.07800
Ni	Ni	0.75000 0.75000 0.50000 1.09300
Ni	Ni	0.25000 0.75000 -0.00000 1.07900
C 	C 	0.00000 0.38300 0.25000 -0.01100
C 	C 	0.50000 0.88300 0.25000 -0.02400
C 	C 	0.00000 0.61700 0.75000 -0.00700
C 	C 	0.50000 0.11700 0.75000 0.05000
