data_crystal

_cell_length_a 19.47520
_cell_length_b 25.54320
_cell_length_c 20.96920
_cell_angle_alpha 90.00000
_cell_angle_beta  114.29500
_cell_angle_gamma 90.00000

_symmetry_space_group_name_	'P 1'
_symmetry_space_group_name_H-M	'P 1'

loop_
_symmetry_equiv_pos_as_xyz
  x,y,z

loop_
_atom_site_label
_atom_site_type_symbol
_atom_site_fract_x
_atom_site_fract_y
_atom_site_fract_z
_atom_site_charge
Ag	Ag	0.70551 0.02783 0.64324 0.52600
Ag	Ag	0.29121 0.06981 0.87248 0.49000
S 	S 	0.22292 0.99712 0.79019 -0.15500
C 	C 	0.13880 0.02540 0.72490 -0.00000
C 	C 	0.08560 0.99350 0.67320 -0.01000
C 	C 	0.02400 0.01810 0.62140 0.00100
C 	C 	0.01550 0.07150 0.61900 -0.00900
H 	H 	0.97240 0.08700 0.58330 0.02300
C 	C 	0.07020 0.10370 0.66930 -0.16000
C 	C 	0.12910 0.07930 0.72280 0.00300
H 	H 	0.16410 0.10000 0.75930 -0.01500
S 	S 	0.09901 0.92463 0.67376 0.01600
C 	C 	0.15130 0.92130 0.61910 -0.22400
H 	H 	0.12140 0.93580 0.57200 0.09100
H 	H 	0.19950 0.94060 0.64070 0.09000
C 	C 	0.16490 0.86280 0.61540 0.13500
C 	C 	0.23310 0.84200 0.66000 -0.16100
H 	H 	0.27320 0.86410 0.68850 0.07100
C 	C 	0.24180 0.78840 0.66240 0.03300
H 	H 	0.28580 0.77300 0.69690 -0.00500
C 	C 	0.18700 0.75720 0.61490 -0.08000
C 	C 	0.12010 0.77830 0.56750 0.02800
H 	H 	0.08160 0.75690 0.53520 -0.00600
C 	C 	0.11150 0.83160 0.56900 -0.16600
H 	H 	0.06640 0.84720 0.53630 0.06400
C 	C 	0.19580 0.70030 0.61880 0.07700
N 	N 	0.20190 0.65630 0.62280 -0.21700
C 	C 	0.06140 0.16330 0.66380 0.52100
C 	C 	0.97790 0.17860 0.64230 -0.79800
H 	H 	0.95130 0.17800 0.59120 0.25500
H 	H 	0.97530 0.21390 0.65950 0.24200
H 	H 	0.95420 0.15370 0.66260 0.25200
C 	C 	0.08050 0.17870 0.60030 -0.78500
H 	H 	0.13410 0.18740 0.61740 0.23600
H 	H 	0.05020 0.20910 0.57620 0.23500
H 	H 	0.06900 0.14920 0.56770 0.24700
C 	C 	0.10560 0.18760 0.73550 -0.82500
H 	H 	0.07790 0.18260 0.76490 0.25000
H 	H 	0.11230 0.22510 0.73010 0.24900
H 	H 	0.15500 0.17070 0.75760 0.25500
S 	S 	0.95442 0.98171 0.55164 -0.04100
C 	C 	0.90860 0.94530 0.59580 0.00000
C 	C 	0.86630 0.96880 0.62940 -0.01800
C 	C 	0.84000 0.93540 0.66680 -0.00000
C 	C 	0.84760 0.88110 0.66560 -0.01700
H 	H 	0.82800 0.85970 0.69120 0.02700
C 	C 	0.88300 0.85780 0.62790 -0.13600
C 	C 	0.91480 0.89150 0.59360 -0.01600
H 	H 	0.94100 0.87680 0.56840 0.02200
S 	S 	0.84691 0.03717 0.62469 -0.04300
C 	C 	0.79550 0.04840 0.53100 -0.21500
H 	H 	0.80090 0.08570 0.52110 0.09300
H 	H 	0.81910 0.02720 0.50590 0.09000
C 	C 	0.71280 0.03510 0.50230 0.09600
C 	C 	0.65940 0.07450 0.47350 -0.15400
H 	H 	0.67490 0.10990 0.47460 0.07900
C 	C 	0.58310 0.06190 0.44300 0.02100
H 	H 	0.54690 0.08880 0.42270 0.01100
C 	C 	0.55930 0.01090 0.44190 -0.08100
C 	C 	0.61440 0.97070 0.47380 0.02100
H 	H 	0.59860 0.93570 0.47570 0.00900
C 	C 	0.68870 0.98240 0.50100 -0.16800
H 	H 	0.72500 0.95540 0.51940 0.07400
C 	C 	0.48140 0.99830 0.41280 0.09700
N 	N 	0.42080 0.98890 0.39290 -0.20400
C 	C 	0.89370 0.79880 0.63000 0.45200
C 	C 	0.91720 0.77980 0.57210 -0.48000
H 	H 	0.92340 0.74160 0.57500 0.13600
H 	H 	0.96490 0.79630 0.57820 0.14700
H 	H 	0.87810 0.78930 0.52620 0.04100
C 	C 	0.82050 0.77020 0.61990 -0.42600
H 	H 	0.81230 0.74100 0.58710 0.16800
H 	H 	0.77800 0.79460 0.60100 0.12300
H 	H 	0.82450 0.75660 0.66500 0.06400
C 	C 	0.95920 0.79040 0.70110 -0.36700
H 	H 	0.94020 0.77560 0.73390 0.13900
H 	H 	0.98380 0.82390 0.71920 0.12800
H 	H 	0.99560 0.76610 0.69600 0.05500
S 	S 	0.79443 0.95841 0.72094 -0.13100
C 	C 	0.86750 0.99450 0.78910 -0.00900
C 	C 	0.93060 0.96800 0.83790 -0.00400
C 	C 	0.98330 0.99930 0.89060 -0.01000
C 	C 	0.97220 0.05280 0.89640 0.02400
H 	H 	0.00970 0.07250 0.93230 0.00800
C 	C 	0.90760 0.07740 0.85070 -0.19100
S 	S 	0.94019 0.89940 0.83700 0.00700
C 	C 	0.85660 0.04720 0.79460 0.01100
H 	H 	0.81370 0.06370 0.76000 -0.01500
C 	C 	0.88270 0.88040 0.88250 -0.20700
H 	H 	0.90990 0.88790 0.93310 0.08100
H 	H 	0.83530 0.90090 0.86440 0.08700
C 	C 	0.86510 0.82250 0.87150 0.11000
C 	C 	0.91890 0.78650 0.91250 -0.13400
H 	H 	0.96590 0.79870 0.94620 0.05600
C 	C 	0.90480 0.73310 0.90490 0.00400
H 	H 	0.94160 0.70850 0.93250 0.01500
C 	C 	0.83360 0.71650 0.85430 -0.06000
C 	C 	0.78120 0.75240 0.81200 0.00800
H 	H 	0.73440 0.74050 0.77760 0.00300
C 	C 	0.79680 0.80590 0.81970 -0.13800
H 	H 	0.76150 0.83050 0.79010 0.06500
C 	C 	0.81790 0.66090 0.84820 0.07000
N 	N 	0.80440 0.61720 0.84290 -0.19800
C 	C 	0.89140 0.13540 0.85580 0.57900
C 	C 	0.89910 0.16430 0.79590 -0.87700
H 	H 	0.94900 0.15750 0.79680 0.26400
H 	H 	0.89300 0.20190 0.80070 0.26300
H 	H 	0.86030 0.15200 0.75140 0.27300
C 	C 	0.94510 0.15900 0.92580 -0.85000
H 	H 	0.99670 0.14730 0.93650 0.26300
H 	H 	0.93030 0.14740 0.96290 0.26200
H 	H 	0.94280 0.19730 0.92260 0.25500
C 	C 	0.81040 0.14320 0.85140 -0.83300
H 	H 	0.80190 0.18040 0.85690 0.24900
H 	H 	0.80460 0.12320 0.88870 0.25300
H 	H 	0.77370 0.13090 0.80590 0.25600
S 	S 	0.06512 0.97140 0.95974 -0.04400
C 	C 	0.12040 0.94940 0.91480 0.01800
C 	C 	0.15080 0.98330 0.88160 -0.03400
C 	C 	0.18810 0.95970 0.84300 0.02000
C 	C 	0.19970 0.90700 0.84520 -0.07300
H 	H 	0.22640 0.89270 0.82010 0.04500
C 	C 	0.17410 0.87340 0.88280 -0.04200
C 	C 	0.13270 0.89510 0.91620 -0.06400
H 	H 	0.11230 0.87300 0.94050 0.03200
S 	S 	0.14733 0.05267 0.88685 -0.04800
C 	C 	0.19610 0.06380 0.98160 -0.20700
H 	H 	0.16280 0.05350 0.00470 0.08600
H 	H 	0.24210 0.04200 0.00110 0.06200
C 	C 	0.21670 0.12030 0.99560 0.09700
C 	C 	0.16360 0.16030 0.96140 -0.12700
H 	H 	0.11470 0.15120 0.92790 0.05200
C 	C 	0.18280 0.21200 0.97650 0.00700
H 	H 	0.14740 0.23870 0.95310 0.01700
C 	C 	0.25090 0.22470 0.02400 -0.04500
C 	C 	0.30370 0.18800 0.05750 0.00400
H 	H 	0.35250 0.19790 0.09030 0.01100
C 	C 	0.28440 0.13410 0.04240 -0.14000
H 	H 	0.32050 0.10790 0.06620 0.05200
C 	C 	0.27190 0.27930 0.04230 0.06400
N 	N 	0.28710 0.32280 0.05760 -0.14200
C 	C 	0.18940 0.81420 0.88790 0.21200
C 	C 	0.27580 0.80580 0.92880 -0.38700
H 	H 	0.30080 0.83990 0.94180 0.11400
H 	H 	0.29540 0.78700 0.89910 0.11100
H 	H 	0.28550 0.78530 0.97110 0.15800
C 	C 	0.14650 0.78360 0.91980 -0.17800
H 	H 	0.17980 0.77460 0.96810 0.05500
H 	H 	0.12740 0.75140 0.89280 0.04100
H 	H 	0.10420 0.80450 0.91930 0.04800
C 	C 	0.16910 0.79560 0.80980 -0.08800
H 	H 	0.18680 0.75960 0.81020 0.07000
H 	H 	0.19360 0.81870 0.78820 0.03400
H 	H 	0.11430 0.79690 0.78280 0.03000
C 	C 	0.87300 0.77440 0.68800 -0.36500
H 	H 	0.88510 0.79940 0.72690 0.10700
H 	H 	0.90180 0.74220 0.70580 0.09900
H 	H 	0.81900 0.76650 0.66880 0.15800
C 	C 	0.84300 0.77260 0.55940 -0.15100
H 	H 	0.83590 0.73560 0.56740 -0.02600
H 	H 	0.86760 0.77530 0.52700 0.13200
H 	H 	0.79420 0.79020 0.53940 0.04700
C 	C 	0.97790 0.78580 0.64900 -0.24400
H 	H 	0.98190 0.76590 0.61050 0.09300
H 	H 	0.99820 0.76490 0.69180 0.09600
H 	H 	0.00660 0.81840 0.65590 0.08300
C 	C 	0.25600 0.80600 0.95960 -0.07600
H 	H 	0.23680 0.79610 0.99430 -0.00600
H 	H 	0.28490 0.83860 0.97420 0.02900
H 	H 	0.28870 0.77820 0.95570 -0.00600
C 	C 	0.11980 0.78570 0.88450 -0.17700
H 	H 	0.09940 0.80370 0.91420 0.04700
H 	H 	0.13310 0.74970 0.90100 0.06100
H 	H 	0.08180 0.78530 0.83600 0.05800
C 	C 	0.21160 0.79650 0.82870 -0.20600
H 	H 	0.18380 0.76460 0.80700 0.00900
H 	H 	0.26580 0.78930 0.84810 0.04900
H 	H 	0.19940 0.82420 0.79350 0.05900
Ag	Ag	0.79449 0.52783 0.85676 0.52600
Ag	Ag	0.20879 0.56981 0.62752 0.48900
S 	S 	0.27708 0.49712 0.70981 -0.15500
C 	C 	0.36120 0.52540 0.77510 0.00000
C 	C 	0.41440 0.49350 0.82680 -0.01100
C 	C 	0.47600 0.51810 0.87860 0.00100
C 	C 	0.48450 0.57150 0.88100 -0.00900
H 	H 	0.52760 0.58700 0.91670 0.02300
C 	C 	0.42980 0.60370 0.83070 -0.16000
C 	C 	0.37090 0.57930 0.77720 0.00300
H 	H 	0.33590 0.60000 0.74070 -0.01400
S 	S 	0.40099 0.42463 0.82624 0.01600
C 	C 	0.34870 0.42130 0.88090 -0.22400
H 	H 	0.37860 0.43580 0.92800 0.09100
H 	H 	0.30050 0.44060 0.85930 0.09000
C 	C 	0.33510 0.36280 0.88460 0.13500
C 	C 	0.26690 0.34200 0.84000 -0.16100
H 	H 	0.22680 0.36410 0.81150 0.07100
C 	C 	0.25820 0.28840 0.83760 0.03300
H 	H 	0.21420 0.27300 0.80310 -0.00500
C 	C 	0.31300 0.25720 0.88510 -0.08000
C 	C 	0.37990 0.27830 0.93250 0.02800
H 	H 	0.41840 0.25690 0.96480 -0.00700
C 	C 	0.38850 0.33160 0.93100 -0.16600
H 	H 	0.43360 0.34720 0.96370 0.06400
C 	C 	0.30420 0.20030 0.88120 0.07700
N 	N 	0.29810 0.15630 0.87720 -0.21700
C 	C 	0.43860 0.66330 0.83620 0.52000
C 	C 	0.52210 0.67860 0.85770 -0.79800
H 	H 	0.54870 0.67800 0.90880 0.25400
H 	H 	0.52470 0.71390 0.84050 0.24200
H 	H 	0.54580 0.65370 0.83740 0.25200
C 	C 	0.41950 0.67870 0.89970 -0.78500
H 	H 	0.36590 0.68740 0.88260 0.23600
H 	H 	0.44980 0.70910 0.92380 0.23500
H 	H 	0.43100 0.64920 0.93230 0.24700
C 	C 	0.39440 0.68760 0.76450 -0.82500
H 	H 	0.42210 0.68260 0.73510 0.25000
H 	H 	0.38770 0.72510 0.76990 0.24900
H 	H 	0.34500 0.67070 0.74240 0.25500
S 	S 	0.54558 0.48171 0.94836 -0.04100
C 	C 	0.59140 0.44530 0.90420 0.00000
C 	C 	0.63370 0.46880 0.87060 -0.01800
C 	C 	0.66000 0.43540 0.83320 -0.00000
C 	C 	0.65240 0.38110 0.83440 -0.01700
H 	H 	0.67200 0.35970 0.80880 0.02700
C 	C 	0.61700 0.35780 0.87210 -0.13600
C 	C 	0.58520 0.39150 0.90640 -0.01600
H 	H 	0.55900 0.37680 0.93160 0.02200
S 	S 	0.65309 0.53717 0.87531 -0.04300
C 	C 	0.70450 0.54840 0.96900 -0.21500
H 	H 	0.69910 0.58570 0.97890 0.09300
H 	H 	0.68090 0.52720 0.99410 0.09000
C 	C 	0.78720 0.53510 0.99770 0.09600
C 	C 	0.84060 0.57450 0.02650 -0.15400
H 	H 	0.82510 0.60990 0.02540 0.07900
C 	C 	0.91690 0.56190 0.05700 0.02100
H 	H 	0.95310 0.58880 0.07730 0.01100
C 	C 	0.94070 0.51090 0.05810 -0.08100
C 	C 	0.88560 0.47070 0.02620 0.02200
H 	H 	0.90140 0.43570 0.02430 0.00900
C 	C 	0.81130 0.48240 0.99900 -0.16800
H 	H 	0.77500 0.45540 0.98060 0.07400
C 	C 	0.01860 0.49830 0.08720 0.09600
N 	N 	0.07920 0.48890 0.10710 -0.20400
C 	C 	0.60630 0.29880 0.87000 0.45200
C 	C 	0.58280 0.27980 0.92790 -0.48000
H 	H 	0.57660 0.24160 0.92500 0.13600
H 	H 	0.53510 0.29630 0.92180 0.14700
H 	H 	0.62190 0.28930 0.97380 0.04000
C 	C 	0.67950 0.27020 0.88010 -0.42600
H 	H 	0.68770 0.24100 0.91290 0.16800
H 	H 	0.72200 0.29460 0.89900 0.12300
H 	H 	0.67550 0.25660 0.83500 0.06400
C 	C 	0.54080 0.29040 0.79890 -0.36700
H 	H 	0.55980 0.27560 0.76610 0.13900
H 	H 	0.51620 0.32390 0.78080 0.12800
H 	H 	0.50440 0.26610 0.80400 0.05500
S 	S 	0.70557 0.45841 0.77906 -0.13100
C 	C 	0.63250 0.49450 0.71090 -0.01000
C 	C 	0.56940 0.46800 0.66210 -0.00400
C 	C 	0.51670 0.49930 0.60940 -0.01000
C 	C 	0.52780 0.55280 0.60360 0.02600
H 	H 	0.49030 0.57250 0.56770 0.00700
C 	C 	0.59240 0.57740 0.64930 -0.19200
S 	S 	0.55981 0.39940 0.66300 0.00700
C 	C 	0.64340 0.54720 0.70540 0.01200
H 	H 	0.68630 0.56370 0.74000 -0.01500
C 	C 	0.61730 0.38040 0.61750 -0.20700
H 	H 	0.59010 0.38790 0.56690 0.08100
H 	H 	0.66470 0.40090 0.63560 0.08700
C 	C 	0.63490 0.32250 0.62850 0.11000
C 	C 	0.58110 0.28650 0.58750 -0.13400
H 	H 	0.53410 0.29870 0.55380 0.05600
C 	C 	0.59520 0.23310 0.59510 0.00400
H 	H 	0.55840 0.20850 0.56750 0.01500
C 	C 	0.66640 0.21650 0.64570 -0.06000
C 	C 	0.71880 0.25240 0.68800 0.00800
H 	H 	0.76560 0.24050 0.72240 0.00300
C 	C 	0.70320 0.30590 0.68030 -0.13800
H 	H 	0.73850 0.33050 0.70990 0.06500
C 	C 	0.68210 0.16090 0.65180 0.07000
N 	N 	0.69560 0.11720 0.65710 -0.19800
C 	C 	0.60860 0.63540 0.64420 0.58000
C 	C 	0.60090 0.66430 0.70410 -0.87800
H 	H 	0.55100 0.65750 0.70320 0.26500
H 	H 	0.60700 0.70190 0.69930 0.26400
H 	H 	0.63970 0.65200 0.74860 0.27300
C 	C 	0.55490 0.65900 0.57420 -0.85100
H 	H 	0.50330 0.64730 0.56350 0.26400
H 	H 	0.56970 0.64740 0.53710 0.26300
H 	H 	0.55720 0.69730 0.57740 0.25500
C 	C 	0.68960 0.64320 0.64860 -0.83400
H 	H 	0.69810 0.68040 0.64310 0.25000
H 	H 	0.69540 0.62320 0.61130 0.25400
H 	H 	0.72630 0.63090 0.69410 0.25700
S 	S 	0.43488 0.47140 0.54026 -0.04500
C 	C 	0.37960 0.44940 0.58520 0.01800
C 	C 	0.34920 0.48330 0.61840 -0.03400
C 	C 	0.31190 0.45970 0.65700 0.02000
C 	C 	0.30030 0.40700 0.65480 -0.07300
H 	H 	0.27360 0.39270 0.67990 0.04500
C 	C 	0.32590 0.37340 0.61720 -0.04200
C 	C 	0.36730 0.39510 0.58380 -0.06500
H 	H 	0.38770 0.37300 0.55950 0.03100
S 	S 	0.35267 0.55267 0.61315 -0.04700
C 	C 	0.30390 0.56380 0.51840 -0.20600
H 	H 	0.33720 0.55350 0.49530 0.08600
H 	H 	0.25790 0.54200 0.49890 0.06200
C 	C 	0.28330 0.62030 0.50440 0.09700
C 	C 	0.33640 0.66030 0.53860 -0.12700
H 	H 	0.38530 0.65120 0.57210 0.05200
C 	C 	0.31720 0.71200 0.52350 0.00700
H 	H 	0.35260 0.73870 0.54690 0.01700
C 	C 	0.24910 0.72470 0.47600 -0.04500
C 	C 	0.19630 0.68800 0.44250 0.00400
H 	H 	0.14750 0.69790 0.40970 0.01100
C 	C 	0.21560 0.63410 0.45760 -0.14000
H 	H 	0.17950 0.60790 0.43380 0.05200
C 	C 	0.22810 0.77930 0.45770 0.06400
N 	N 	0.21290 0.82280 0.44240 -0.14200
C 	C 	0.31060 0.31420 0.61210 0.21200
C 	C 	0.22420 0.30580 0.57120 -0.38700
H 	H 	0.19920 0.33990 0.55820 0.11300
H 	H 	0.20460 0.28700 0.60090 0.11100
H 	H 	0.21450 0.28530 0.52890 0.15800
C 	C 	0.35350 0.28360 0.58020 -0.17800
H 	H 	0.32020 0.27460 0.53190 0.05500
H 	H 	0.37260 0.25140 0.60720 0.04100
H 	H 	0.39580 0.30450 0.58070 0.04800
C 	C 	0.33090 0.29560 0.69020 -0.08800
H 	H 	0.31320 0.25960 0.68980 0.07000
H 	H 	0.30640 0.31870 0.71180 0.03400
H 	H 	0.38570 0.29690 0.71720 0.03000
C 	C 	0.62700 0.27440 0.81200 -0.36400
H 	H 	0.61490 0.29940 0.77310 0.10700
H 	H 	0.59820 0.24220 0.79420 0.09900
H 	H 	0.68100 0.26650 0.83120 0.15800
C 	C 	0.65700 0.27260 0.94060 -0.15100
H 	H 	0.66410 0.23560 0.93260 -0.02700
H 	H 	0.63240 0.27530 0.97300 0.13300
H 	H 	0.70580 0.29020 0.96060 0.04600
C 	C 	0.52210 0.28580 0.85100 -0.24300
H 	H 	0.51810 0.26590 0.88950 0.09300
H 	H 	0.50180 0.26490 0.80820 0.09700
H 	H 	0.49340 0.31840 0.84410 0.08200
C 	C 	0.24400 0.30600 0.54040 -0.07600
H 	H 	0.26320 0.29610 0.50570 -0.00600
H 	H 	0.21510 0.33860 0.52580 0.02900
H 	H 	0.21130 0.27820 0.54430 -0.00600
C 	C 	0.38020 0.28570 0.61550 -0.17700
H 	H 	0.40060 0.30370 0.58580 0.04700
H 	H 	0.36690 0.24970 0.59900 0.06100
H 	H 	0.41820 0.28530 0.66400 0.05800
C 	C 	0.28840 0.29650 0.67130 -0.20600
H 	H 	0.31620 0.26460 0.69300 0.00900
H 	H 	0.23420 0.28930 0.65190 0.04900
H 	H 	0.30060 0.32420 0.70650 0.05900
Ag	Ag	0.29449 0.97217 0.35676 0.52500
Ag	Ag	0.70879 0.93019 0.12752 0.48900
S 	S 	0.77708 0.00288 0.20981 -0.15500
C 	C 	0.86120 0.97460 0.27510 -0.00000
C 	C 	0.91440 0.00650 0.32680 -0.01000
C 	C 	0.97600 0.98190 0.37860 0.00100
C 	C 	0.98450 0.92850 0.38100 -0.00900
H 	H 	0.02760 0.91300 0.41670 0.02300
C 	C 	0.92980 0.89630 0.33070 -0.16000
C 	C 	0.87090 0.92070 0.27720 0.00300
H 	H 	0.83590 0.90000 0.24070 -0.01500
S 	S 	0.90099 0.07537 0.32624 0.01600
C 	C 	0.84870 0.07870 0.38090 -0.22400
H 	H 	0.87860 0.06420 0.42800 0.09100
H 	H 	0.80050 0.05940 0.35930 0.09000
C 	C 	0.83510 0.13720 0.38460 0.13500
C 	C 	0.76690 0.15800 0.34000 -0.16100
H 	H 	0.72680 0.13590 0.31150 0.07100
C 	C 	0.75820 0.21160 0.33760 0.03300
H 	H 	0.71420 0.22700 0.30310 -0.00500
C 	C 	0.81300 0.24280 0.38510 -0.08000
C 	C 	0.87990 0.22170 0.43250 0.02800
H 	H 	0.91840 0.24310 0.46480 -0.00600
C 	C 	0.88850 0.16840 0.43100 -0.16600
H 	H 	0.93360 0.15280 0.46370 0.06400
C 	C 	0.80420 0.29970 0.38120 0.07700
N 	N 	0.79810 0.34370 0.37720 -0.21700
C 	C 	0.93860 0.83670 0.33620 0.52100
C 	C 	0.02210 0.82140 0.35770 -0.79800
H 	H 	0.04870 0.82200 0.40880 0.25500
H 	H 	0.02470 0.78610 0.34050 0.24200
H 	H 	0.04580 0.84630 0.33740 0.25200
C 	C 	0.91950 0.82130 0.39970 -0.78500
H 	H 	0.86590 0.81260 0.38260 0.23600
H 	H 	0.94980 0.79090 0.42380 0.23500
H 	H 	0.93100 0.85080 0.43230 0.24700
C 	C 	0.89440 0.81240 0.26450 -0.82500
H 	H 	0.92210 0.81740 0.23510 0.25000
H 	H 	0.88770 0.77490 0.26990 0.24900
H 	H 	0.84500 0.82930 0.24240 0.25500
S 	S 	0.04558 0.01829 0.44836 -0.04100
C 	C 	0.09140 0.05470 0.40420 0.00000
C 	C 	0.13370 0.03120 0.37060 -0.01800
C 	C 	0.16000 0.06460 0.33320 -0.00000
C 	C 	0.15240 0.11890 0.33440 -0.01700
H 	H 	0.17200 0.14030 0.30880 0.02700
C 	C 	0.11700 0.14220 0.37210 -0.13600
C 	C 	0.08520 0.10850 0.40640 -0.01600
H 	H 	0.05900 0.12320 0.43160 0.02200
S 	S 	0.15309 0.96283 0.37531 -0.04300
C 	C 	0.20450 0.95160 0.46900 -0.21500
H 	H 	0.19910 0.91430 0.47890 0.09300
H 	H 	0.18090 0.97280 0.49410 0.09000
C 	C 	0.28720 0.96490 0.49770 0.09600
C 	C 	0.34060 0.92550 0.52650 -0.15400
H 	H 	0.32510 0.89010 0.52540 0.07900
C 	C 	0.41690 0.93810 0.55700 0.02100
H 	H 	0.45310 0.91120 0.57730 0.01100
C 	C 	0.44070 0.98910 0.55810 -0.08100
C 	C 	0.38560 0.02930 0.52620 0.02100
H 	H 	0.40140 0.06430 0.52430 0.00900
C 	C 	0.31130 0.01760 0.49900 -0.16800
H 	H 	0.27500 0.04460 0.48060 0.07400
C 	C 	0.51860 0.00170 0.58720 0.09700
N 	N 	0.57920 0.01110 0.60710 -0.20400
C 	C 	0.10630 0.20120 0.37000 0.45200
C 	C 	0.08280 0.22020 0.42790 -0.48000
H 	H 	0.07660 0.25840 0.42500 0.13600
H 	H 	0.03510 0.20370 0.42180 0.14700
H 	H 	0.12190 0.21070 0.47380 0.04100
C 	C 	0.17950 0.22980 0.38010 -0.42600
H 	H 	0.18770 0.25900 0.41290 0.16800
H 	H 	0.22200 0.20540 0.39900 0.12300
H 	H 	0.17550 0.24340 0.33500 0.06400
C 	C 	0.04080 0.20960 0.29890 -0.36700
H 	H 	0.05980 0.22440 0.26610 0.13900
H 	H 	0.01620 0.17610 0.28080 0.12800
H 	H 	0.00440 0.23390 0.30400 0.05500
S 	S 	0.20557 0.04159 0.27906 -0.13100
C 	C 	0.13250 0.00550 0.21090 -0.00900
C 	C 	0.06940 0.03200 0.16210 -0.00400
C 	C 	0.01670 0.00070 0.10940 -0.01000
C 	C 	0.02780 0.94720 0.10360 0.02400
H 	H 	0.99030 0.92750 0.06770 0.00800
C 	C 	0.09240 0.92260 0.14930 -0.19100
S 	S 	0.05981 0.10060 0.16300 0.00700
C 	C 	0.14340 0.95280 0.20540 0.01100
H 	H 	0.18630 0.93630 0.24000 -0.01500
C 	C 	0.11730 0.11960 0.11750 -0.20700
H 	H 	0.09010 0.11210 0.06690 0.08100
H 	H 	0.16470 0.09910 0.13560 0.08700
C 	C 	0.13490 0.17750 0.12850 0.11000
C 	C 	0.08110 0.21350 0.08750 -0.13400
H 	H 	0.03410 0.20130 0.05380 0.05600
C 	C 	0.09520 0.26690 0.09510 0.00400
H 	H 	0.05840 0.29150 0.06750 0.01500
C 	C 	0.16640 0.28350 0.14570 -0.06000
C 	C 	0.21880 0.24760 0.18800 0.00800
H 	H 	0.26560 0.25950 0.22240 0.00300
C 	C 	0.20320 0.19410 0.18030 -0.13800
H 	H 	0.23850 0.16950 0.20990 0.06500
C 	C 	0.18210 0.33910 0.15180 0.07000
N 	N 	0.19560 0.38280 0.15710 -0.19800
C 	C 	0.10860 0.86460 0.14420 0.57900
C 	C 	0.10090 0.83570 0.20410 -0.87700
H 	H 	0.05100 0.84250 0.20320 0.26400
H 	H 	0.10700 0.79810 0.19930 0.26300
H 	H 	0.13970 0.84800 0.24860 0.27300
C 	C 	0.05490 0.84100 0.07420 -0.85000
H 	H 	0.00330 0.85270 0.06350 0.26300
H 	H 	0.06970 0.85260 0.03710 0.26200
H 	H 	0.05720 0.80270 0.07740 0.25500
C 	C 	0.18960 0.85680 0.14860 -0.83300
H 	H 	0.19810 0.81960 0.14310 0.24900
H 	H 	0.19540 0.87680 0.11130 0.25300
H 	H 	0.22630 0.86910 0.19410 0.25600
S 	S 	0.93488 0.02860 0.04026 -0.04400
C 	C 	0.87960 0.05060 0.08520 0.01800
C 	C 	0.84920 0.01670 0.11840 -0.03400
C 	C 	0.81190 0.04030 0.15700 0.02000
C 	C 	0.80030 0.09300 0.15480 -0.07300
H 	H 	0.77360 0.10730 0.17990 0.04500
C 	C 	0.82590 0.12660 0.11720 -0.04200
C 	C 	0.86730 0.10490 0.08380 -0.06400
H 	H 	0.88770 0.12700 0.05950 0.03200
S 	S 	0.85267 0.94733 0.11315 -0.04800
C 	C 	0.80390 0.93620 0.01840 -0.20700
H 	H 	0.83720 0.94650 0.99530 0.08600
H 	H 	0.75790 0.95800 0.99890 0.06200
C 	C 	0.78330 0.87970 0.00440 0.09700
C 	C 	0.83640 0.83970 0.03860 -0.12700
H 	H 	0.88530 0.84880 0.07210 0.05200
C 	C 	0.81720 0.78800 0.02350 0.00700
H 	H 	0.85260 0.76130 0.04690 0.01700
C 	C 	0.74910 0.77530 0.97600 -0.04500
C 	C 	0.69630 0.81200 0.94250 0.00400
H 	H 	0.64750 0.80210 0.90970 0.01100
C 	C 	0.71560 0.86590 0.95760 -0.14000
H 	H 	0.67950 0.89210 0.93380 0.05200
C 	C 	0.72810 0.72070 0.95770 0.06400
N 	N 	0.71290 0.67720 0.94240 -0.14200
C 	C 	0.81060 0.18580 0.11210 0.21200
C 	C 	0.72420 0.19420 0.07120 -0.38700
H 	H 	0.69920 0.16010 0.05820 0.11400
H 	H 	0.70460 0.21300 0.10090 0.11100
H 	H 	0.71450 0.21470 0.02890 0.15800
C 	C 	0.85350 0.21640 0.08020 -0.17800
H 	H 	0.82020 0.22540 0.03190 0.05500
H 	H 	0.87260 0.24860 0.10720 0.04100
H 	H 	0.89580 0.19550 0.08070 0.04800
C 	C 	0.83090 0.20440 0.19020 -0.08800
H 	H 	0.81320 0.24040 0.18980 0.07000
H 	H 	0.80640 0.18130 0.21180 0.03400
H 	H 	0.88570 0.20310 0.21720 0.03000
C 	C 	0.12700 0.22560 0.31200 -0.36500
H 	H 	0.11490 0.20060 0.27310 0.10700
H 	H 	0.09820 0.25780 0.29420 0.09900
H 	H 	0.18100 0.23350 0.33120 0.15800
C 	C 	0.15700 0.22740 0.44060 -0.15100
H 	H 	0.16410 0.26440 0.43260 -0.02600
H 	H 	0.13240 0.22470 0.47300 0.13200
H 	H 	0.20580 0.20980 0.46060 0.04700
C 	C 	0.02210 0.21420 0.35100 -0.24400
H 	H 	0.01810 0.23410 0.38950 0.09300
H 	H 	0.00180 0.23510 0.30820 0.09600
H 	H 	0.99340 0.18160 0.34410 0.08300
C 	C 	0.74400 0.19400 0.04040 -0.07600
H 	H 	0.76320 0.20390 0.00570 -0.00600
H 	H 	0.71510 0.16140 0.02580 0.02900
H 	H 	0.71130 0.22180 0.04430 -0.00600
C 	C 	0.88020 0.21430 0.11550 -0.17700
H 	H 	0.90060 0.19630 0.08580 0.04700
H 	H 	0.86690 0.25030 0.09900 0.06100
H 	H 	0.91820 0.21470 0.16400 0.05800
C 	C 	0.78840 0.20350 0.17130 -0.20600
H 	H 	0.81620 0.23540 0.19300 0.00900
H 	H 	0.73420 0.21070 0.15190 0.04900
H 	H 	0.80060 0.17580 0.20650 0.05900
Ag	Ag	0.20551 0.47217 0.14324 0.52600
Ag	Ag	0.79121 0.43019 0.37248 0.48900
S 	S 	0.72292 0.50288 0.29019 -0.15500
C 	C 	0.63880 0.47460 0.22490 0.00000
C 	C 	0.58560 0.50650 0.17320 -0.01100
C 	C 	0.52400 0.48190 0.12140 0.00100
C 	C 	0.51550 0.42850 0.11900 -0.00900
H 	H 	0.47240 0.41300 0.08330 0.02300
C 	C 	0.57020 0.39630 0.16930 -0.16000
C 	C 	0.62910 0.42070 0.22280 0.00300
H 	H 	0.66410 0.40000 0.25930 -0.01400
S 	S 	0.59901 0.57537 0.17376 0.01600
C 	C 	0.65130 0.57870 0.11910 -0.22400
H 	H 	0.62140 0.56420 0.07200 0.09100
H 	H 	0.69950 0.55940 0.14070 0.09000
C 	C 	0.66490 0.63720 0.11540 0.13500
C 	C 	0.73310 0.65800 0.16000 -0.16100
H 	H 	0.77320 0.63590 0.18850 0.07100
C 	C 	0.74180 0.71160 0.16240 0.03300
H 	H 	0.78580 0.72700 0.19690 -0.00500
C 	C 	0.68700 0.74280 0.11490 -0.08000
C 	C 	0.62010 0.72170 0.06750 0.02800
H 	H 	0.58160 0.74310 0.03520 -0.00700
C 	C 	0.61150 0.66840 0.06900 -0.16600
H 	H 	0.56640 0.65280 0.03630 0.06400
C 	C 	0.69580 0.79970 0.11880 0.07700
N 	N 	0.70190 0.84370 0.12280 -0.21700
C 	C 	0.56140 0.33670 0.16380 0.52000
C 	C 	0.47790 0.32140 0.14230 -0.79800
H 	H 	0.45130 0.32200 0.09120 0.25400
H 	H 	0.47530 0.28610 0.15950 0.24200
H 	H 	0.45420 0.34630 0.16260 0.25200
C 	C 	0.58050 0.32130 0.10030 -0.78500
H 	H 	0.63410 0.31260 0.11740 0.23600
H 	H 	0.55020 0.29090 0.07620 0.23500
H 	H 	0.56900 0.35080 0.06770 0.24700
C 	C 	0.60560 0.31240 0.23550 -0.82500
H 	H 	0.57790 0.31740 0.26490 0.25000
H 	H 	0.61230 0.27490 0.23010 0.24900
H 	H 	0.65500 0.32930 0.25760 0.25500
S 	S 	0.45442 0.51829 0.05164 -0.04100
C 	C 	0.40860 0.55470 0.09580 0.00000
C 	C 	0.36630 0.53120 0.12940 -0.01800
C 	C 	0.34000 0.56460 0.16680 -0.00000
C 	C 	0.34760 0.61890 0.16560 -0.01700
H 	H 	0.32800 0.64030 0.19120 0.02700
C 	C 	0.38300 0.64220 0.12790 -0.13600
C 	C 	0.41480 0.60850 0.09360 -0.01600
H 	H 	0.44100 0.62320 0.06840 0.02200
S 	S 	0.34691 0.46283 0.12469 -0.04300
C 	C 	0.29550 0.45160 0.03100 -0.21500
H 	H 	0.30090 0.41430 0.02110 0.09300
H 	H 	0.31910 0.47280 0.00590 0.09000
C 	C 	0.21280 0.46490 0.00230 0.09600
C 	C 	0.15940 0.42550 0.97350 -0.15400
H 	H 	0.17490 0.39010 0.97460 0.07900
C 	C 	0.08310 0.43810 0.94300 0.02100
H 	H 	0.04690 0.41120 0.92270 0.01100
C 	C 	0.05930 0.48910 0.94190 -0.08100
C 	C 	0.11440 0.52930 0.97380 0.02200
H 	H 	0.09860 0.56430 0.97570 0.00900
C 	C 	0.18870 0.51760 0.00100 -0.16800
H 	H 	0.22500 0.54460 0.01940 0.07400
C 	C 	0.98140 0.50170 0.91280 0.09600
N 	N 	0.92080 0.51110 0.89290 -0.20400
C 	C 	0.39370 0.70120 0.13000 0.45200
C 	C 	0.41720 0.72020 0.07210 -0.48000
H 	H 	0.42340 0.75840 0.07500 0.13600
H 	H 	0.46490 0.70370 0.07820 0.14700
H 	H 	0.37810 0.71070 0.02620 0.04000
C 	C 	0.32050 0.72980 0.11990 -0.42600
H 	H 	0.31230 0.75900 0.08710 0.16800
H 	H 	0.27800 0.70540 0.10100 0.12300
H 	H 	0.32450 0.74340 0.16500 0.06400
C 	C 	0.45920 0.70960 0.20110 -0.36700
H 	H 	0.44020 0.72440 0.23390 0.13900
H 	H 	0.48380 0.67610 0.21920 0.12800
H 	H 	0.49560 0.73390 0.19600 0.05500
S 	S 	0.29443 0.54159 0.22094 -0.13100
C 	C 	0.36750 0.50550 0.28910 -0.01000
C 	C 	0.43060 0.53200 0.33790 -0.00400
C 	C 	0.48330 0.50070 0.39060 -0.01000
C 	C 	0.47220 0.44720 0.39640 0.02600
H 	H 	0.50970 0.42750 0.43230 0.00700
C 	C 	0.40760 0.42260 0.35070 -0.19200
S 	S 	0.44019 0.60060 0.33700 0.00700
C 	C 	0.35660 0.45280 0.29460 0.01200
H 	H 	0.31370 0.43630 0.26000 -0.01500
C 	C 	0.38270 0.61960 0.38250 -0.20700
H 	H 	0.40990 0.61210 0.43310 0.08100
H 	H 	0.33530 0.59910 0.36440 0.08700
C 	C 	0.36510 0.67750 0.37150 0.11000
C 	C 	0.41890 0.71350 0.41250 -0.13400
H 	H 	0.46590 0.70130 0.44620 0.05600
C 	C 	0.40480 0.76690 0.40490 0.00400
H 	H 	0.44160 0.79150 0.43250 0.01500
C 	C 	0.33360 0.78350 0.35430 -0.06000
C 	C 	0.28120 0.74760 0.31200 0.00800
H 	H 	0.23440 0.75950 0.27760 0.00300
C 	C 	0.29680 0.69410 0.31970 -0.13800
H 	H 	0.26150 0.66950 0.29010 0.06500
C 	C 	0.31790 0.83910 0.34820 0.07000
N 	N 	0.30440 0.88280 0.34290 -0.19800
C 	C 	0.39140 0.36460 0.35580 0.58000
C 	C 	0.39910 0.33570 0.29590 -0.87800
H 	H 	0.44900 0.34250 0.29680 0.26500
H 	H 	0.39300 0.29810 0.30070 0.26400
H 	H 	0.36030 0.34800 0.25140 0.27300
C 	C 	0.44510 0.34100 0.42580 -0.85100
H 	H 	0.49670 0.35270 0.43650 0.26400
H 	H 	0.43030 0.35260 0.46290 0.26300
H 	H 	0.44280 0.30270 0.42260 0.25500
C 	C 	0.31040 0.35680 0.35140 -0.83400
H 	H 	0.30190 0.31960 0.35690 0.25000
H 	H 	0.30460 0.37680 0.38870 0.25400
H 	H 	0.27370 0.36910 0.30590 0.25700
S 	S 	0.56512 0.52860 0.45974 -0.04500
C 	C 	0.62040 0.55060 0.41480 0.01800
C 	C 	0.65080 0.51670 0.38160 -0.03400
C 	C 	0.68810 0.54030 0.34300 0.02000
C 	C 	0.69970 0.59300 0.34520 -0.07300
H 	H 	0.72640 0.60730 0.32010 0.04500
C 	C 	0.67410 0.62660 0.38280 -0.04200
C 	C 	0.63270 0.60490 0.41620 -0.06500
H 	H 	0.61230 0.62700 0.44050 0.03100
S 	S 	0.64733 0.44733 0.38685 -0.04700
C 	C 	0.69610 0.43620 0.48160 -0.20600
H 	H 	0.66280 0.44650 0.50470 0.08600
H 	H 	0.74210 0.45800 0.50110 0.06200
C 	C 	0.71670 0.37970 0.49560 0.09700
C 	C 	0.66360 0.33970 0.46140 -0.12700
H 	H 	0.61470 0.34880 0.42790 0.05200
C 	C 	0.68280 0.28800 0.47650 0.00700
H 	H 	0.64740 0.26130 0.45310 0.01700
C 	C 	0.75090 0.27530 0.52400 -0.04500
C 	C 	0.80370 0.31200 0.55750 0.00400
H 	H 	0.85250 0.30210 0.59030 0.01100
C 	C 	0.78440 0.36590 0.54240 -0.14000
H 	H 	0.82050 0.39210 0.56620 0.05200
C 	C 	0.77190 0.22070 0.54230 0.06400
N 	N 	0.78710 0.17720 0.55760 -0.14200
C 	C 	0.68940 0.68580 0.38790 0.21200
C 	C 	0.77580 0.69420 0.42880 -0.38700
H 	H 	0.80080 0.66010 0.44180 0.11300
H 	H 	0.79540 0.71300 0.39910 0.11100
H 	H 	0.78550 0.71470 0.47110 0.15800
C 	C 	0.64650 0.71640 0.41980 -0.17800
H 	H 	0.67980 0.72540 0.46810 0.05500
H 	H 	0.62740 0.74860 0.39280 0.04100
H 	H 	0.60420 0.69550 0.41930 0.04800
C 	C 	0.66910 0.70440 0.30980 -0.08800
H 	H 	0.68680 0.74040 0.31020 0.07000
H 	H 	0.69360 0.68130 0.28820 0.03400
H 	H 	0.61430 0.70310 0.28280 0.03000
C 	C 	0.37300 0.72560 0.18800 -0.36400
H 	H 	0.38510 0.70060 0.22690 0.10700
H 	H 	0.40180 0.75780 0.20580 0.09900
H 	H 	0.31900 0.73350 0.16880 0.15800
C 	C 	0.34300 0.72740 0.05940 -0.15100
H 	H 	0.33590 0.76440 0.06740 -0.02700
H 	H 	0.36760 0.72470 0.02700 0.13300
H 	H 	0.29420 0.70980 0.03940 0.04600
C 	C 	0.47790 0.71420 0.14900 -0.24300
H 	H 	0.48190 0.73410 0.11050 0.09300
H 	H 	0.49820 0.73510 0.19180 0.09700
H 	H 	0.50660 0.68160 0.15590 0.08200
C 	C 	0.75600 0.69400 0.45960 -0.07600
H 	H 	0.73680 0.70390 0.49430 -0.00600
H 	H 	0.78490 0.66140 0.47420 0.02900
H 	H 	0.78870 0.72180 0.45570 -0.00600
C 	C 	0.61980 0.71430 0.38450 -0.17700
H 	H 	0.59940 0.69630 0.41420 0.04700
H 	H 	0.63310 0.75030 0.40100 0.06100
H 	H 	0.58180 0.71470 0.33600 0.05800
C 	C 	0.71160 0.70350 0.32870 -0.20600
H 	H 	0.68380 0.73540 0.30700 0.00900
H 	H 	0.76580 0.71070 0.34810 0.04900
H 	H 	0.69940 0.67580 0.29350 0.05900
