data_crystal

_cell_length_a 24.24470
_cell_length_b 24.24470
_cell_length_c 13.17050
_cell_angle_alpha 90.00000
_cell_angle_beta  90.00000
_cell_angle_gamma 120.00000

_symmetry_space_group_name_	'P 1'
_symmetry_space_group_name_H-M	'P 1'

loop_
_symmetry_equiv_pos_as_xyz
  x,y,z

loop_
_atom_site_label
_atom_site_type_symbol
_atom_site_fract_x
_atom_site_fract_y
_atom_site_fract_z
_atom_site_charge
O 	O 	0.76480 0.03570 0.10940 -0.38700
O 	O 	0.71580 0.06980 0.00040 -0.46300
O 	O 	0.99290 0.56730 0.08350 -0.41900
C 	C 	0.94220 0.25380 0.01200 0.18800
C 	C 	0.88440 0.24680 0.97700 -0.21600
H 	H 	0.88380 0.28110 0.94660 0.11200
C 	C 	0.82780 0.18860 0.98760 0.12700
H 	H 	0.79020 0.18500 0.96250 -0.01600
C 	C 	0.82550 0.13850 0.03190 -0.17100
C 	C 	0.94030 0.20080 0.06260 -0.18900
H 	H 	0.97760 0.20450 0.08870 0.10600
C 	C 	0.88150 0.14180 0.07390 0.08900
H 	H 	0.87990 0.10720 0.10710 0.01400
C 	C 	0.76600 0.07710 0.04690 0.33800
C 	C 	0.97240 0.38400 0.07690 -0.27400
H 	H 	0.95250 0.35470 0.12910 0.13600
C 	C 	0.97370 0.44030 0.07780 0.23400
H 	H 	0.95620 0.45010 0.13300 -0.03300
O 	O 	0.43147 0.36903 0.44273 -0.37200
O 	O 	0.38247 0.40313 0.33373 -0.45500
O 	O 	0.65957 0.90063 0.41683 -0.45000
C 	C 	0.60887 0.58713 0.34533 0.15400
C 	C 	0.55107 0.58013 0.31033 -0.19600
H 	H 	0.55047 0.61443 0.27993 0.10000
C 	C 	0.49447 0.52193 0.32093 0.11100
H 	H 	0.45687 0.51833 0.29583 -0.01100
C 	C 	0.49217 0.47183 0.36523 -0.15900
C 	C 	0.60697 0.53413 0.39593 -0.17200
H 	H 	0.64427 0.53783 0.42203 0.09000
C 	C 	0.54817 0.47513 0.40723 0.07400
H 	H 	0.54657 0.44053 0.44043 0.02000
C 	C 	0.43267 0.41043 0.38023 0.33400
C 	C 	0.63907 0.71733 0.41023 -0.33100
H 	H 	0.61917 0.68803 0.46243 0.15000
C 	C 	0.64037 0.77363 0.41113 0.22000
H 	H 	0.62287 0.78343 0.46633 -0.03600
O 	O 	0.09813 0.70237 0.77607 -0.37800
O 	O 	0.04913 0.73647 0.66707 -0.46300
O 	O 	0.32623 0.23397 0.75017 -0.45900
C 	C 	0.27553 0.92047 0.67867 0.15900
C 	C 	0.21773 0.91347 0.64367 -0.19700
H 	H 	0.21713 0.94777 0.61327 0.10800
C 	C 	0.16113 0.85527 0.65427 0.11400
H 	H 	0.12353 0.85167 0.62917 -0.01200
C 	C 	0.15883 0.80517 0.69857 -0.16000
C 	C 	0.27363 0.86747 0.72927 -0.17300
H 	H 	0.31093 0.87117 0.75537 0.09200
C 	C 	0.21483 0.80847 0.74057 0.07700
H 	H 	0.21323 0.77387 0.77377 0.02000
C 	C 	0.09933 0.74377 0.71357 0.33600
C 	C 	0.30573 0.05067 0.74357 -0.30100
H 	H 	0.28583 0.02137 0.79577 0.12800
C 	C 	0.30703 0.10697 0.74447 0.19300
H 	H 	0.28953 0.11677 0.79967 -0.03000
O 	O 	0.96430 0.72910 0.10940 -0.35700
O 	O 	0.93020 0.64600 0.00040 -0.45000
O 	O 	0.43270 0.42560 0.08350 -0.46000
C 	C 	0.74620 0.68840 0.01200 0.14700
C 	C 	0.75320 0.63760 0.97700 -0.18900
H 	H 	0.71890 0.60270 0.94660 0.10000
C 	C 	0.81140 0.63920 0.98760 0.11400
H 	H 	0.81500 0.60520 0.96250 -0.01000
C 	C 	0.86150 0.68700 0.03190 -0.16100
C 	C 	0.79920 0.73950 0.06260 -0.17000
H 	H 	0.79550 0.77310 0.08870 0.09100
C 	C 	0.85820 0.73970 0.07390 0.07400
H 	H 	0.89280 0.77270 0.10710 0.02500
C 	C 	0.92290 0.68890 0.04690 0.33500
C 	C 	0.61600 0.58840 0.07690 -0.32900
H 	H 	0.64530 0.59780 0.12910 0.14900
C 	C 	0.55970 0.53340 0.07780 0.21900
H 	H 	0.54990 0.50610 0.13300 -0.03600
O 	O 	0.63097 0.06243 0.44273 -0.37000
O 	O 	0.59687 0.97933 0.33373 -0.43000
O 	O 	0.09937 0.75893 0.41683 -0.46300
C 	C 	0.41287 0.02173 0.34533 0.12700
C 	C 	0.41987 0.97093 0.31033 -0.17200
H 	H 	0.38557 0.93603 0.27993 0.09600
C 	C 	0.47807 0.97253 0.32093 0.14400
H 	H 	0.48167 0.93853 0.29583 -0.01800
C 	C 	0.52817 0.02033 0.36523 -0.18800
C 	C 	0.46587 0.07283 0.39593 -0.17100
H 	H 	0.46217 0.10643 0.42203 0.09000
C 	C 	0.52487 0.07303 0.40723 0.07800
H 	H 	0.55947 0.10603 0.44043 0.01800
C 	C 	0.58957 0.02223 0.38023 0.31200
C 	C 	0.28267 0.92173 0.41023 -0.36500
H 	H 	0.31197 0.93113 0.46243 0.16600
C 	C 	0.22637 0.86673 0.41113 0.24800
H 	H 	0.21657 0.83943 0.46633 -0.04500
O 	O 	0.29763 0.39577 0.77607 -0.37200
O 	O 	0.26353 0.31267 0.66707 -0.45600
O 	O 	0.76603 0.09227 0.75017 -0.46500
C 	C 	0.07953 0.35507 0.67867 0.15100
C 	C 	0.08653 0.30427 0.64367 -0.19700
H 	H 	0.05223 0.26937 0.61327 0.09200
C 	C 	0.14473 0.30587 0.65427 0.10900
H 	H 	0.14833 0.27187 0.62917 -0.01300
C 	C 	0.19483 0.35367 0.69857 -0.15800
C 	C 	0.13253 0.40617 0.72927 -0.17100
H 	H 	0.12883 0.43977 0.75537 0.09100
C 	C 	0.19153 0.40637 0.74057 0.07400
H 	H 	0.22613 0.43937 0.77377 0.02100
C 	C 	0.25623 0.35557 0.71357 0.33400
C 	C 	0.94933 0.25507 0.74357 -0.36600
H 	H 	0.97863 0.26447 0.79577 0.17200
C 	C 	0.89303 0.20007 0.74447 0.25000
H 	H 	0.88323 0.17277 0.79967 -0.04600
O 	O 	0.27090 0.23520 0.10940 -0.37600
O 	O 	0.35400 0.28420 0.00040 -0.45900
O 	O 	0.57440 0.00710 0.08350 -0.46500
C 	C 	0.31160 0.05780 0.01200 0.14400
C 	C 	0.36240 0.11560 0.97700 -0.19100
H 	H 	0.39730 0.11620 0.94660 0.09900
C 	C 	0.36080 0.17220 0.98760 0.11600
H 	H 	0.39480 0.20980 0.96250 -0.01100
C 	C 	0.31300 0.17450 0.03190 -0.16600
C 	C 	0.26050 0.05970 0.06260 -0.17500
H 	H 	0.22690 0.02240 0.08870 0.07800
C 	C 	0.26030 0.11850 0.07390 0.07300
H 	H 	0.22730 0.12010 0.10710 0.01400
C 	C 	0.31110 0.23400 0.04690 0.33600
C 	C 	0.41160 0.02760 0.07690 -0.31000
H 	H 	0.40220 0.04750 0.12910 0.13900
C 	C 	0.46660 0.02630 0.07780 0.20500
H 	H 	0.49390 0.04380 0.13300 -0.03400
O 	O 	0.93757 0.56853 0.44273 -0.36800
O 	O 	0.02067 0.61753 0.33373 -0.47800
O 	O 	0.24107 0.34043 0.41683 -0.46000
C 	C 	0.97827 0.39113 0.34533 0.18400
C 	C 	0.02907 0.44893 0.31033 -0.22300
H 	H 	0.06397 0.44953 0.27993 0.10500
C 	C 	0.02747 0.50553 0.32093 0.07400
H 	H 	0.06147 0.54313 0.29583 -0.00300
C 	C 	0.97967 0.50783 0.36523 -0.12500
C 	C 	0.92717 0.39303 0.39593 -0.17500
H 	H 	0.89357 0.35573 0.42203 0.09100
C 	C 	0.92697 0.45183 0.40723 0.07000
H 	H 	0.89397 0.45343 0.44043 0.02200
C 	C 	0.97777 0.56733 0.38023 0.35900
C 	C 	0.07827 0.36093 0.41023 -0.30200
H 	H 	0.06887 0.38083 0.46243 0.13500
C 	C 	0.13327 0.35963 0.41113 0.19500
H 	H 	0.16057 0.37713 0.46633 -0.02800
O 	O 	0.60423 0.90187 0.77607 -0.36300
O 	O 	0.68733 0.95087 0.66707 -0.43600
O 	O 	0.90773 0.67377 0.75017 -0.45400
C 	C 	0.64493 0.72447 0.67867 0.15300
C 	C 	0.69573 0.78227 0.64367 -0.19300
H 	H 	0.73063 0.78287 0.61327 0.10200
C 	C 	0.69413 0.83887 0.65427 0.10700
H 	H 	0.72813 0.87647 0.62917 -0.00400
C 	C 	0.64633 0.84117 0.69857 -0.15400
C 	C 	0.59383 0.72637 0.72927 -0.17000
H 	H 	0.56023 0.68907 0.75537 0.09000
C 	C 	0.59363 0.78517 0.74057 0.07200
H 	H 	0.56063 0.78677 0.77377 0.02200
C 	C 	0.64443 0.90067 0.71357 0.33100
C 	C 	0.74493 0.69427 0.74357 -0.33000
H 	H 	0.73553 0.71417 0.79577 0.15000
C 	C 	0.79993 0.69297 0.74447 0.22000
H 	H 	0.82723 0.71047 0.79967 -0.03300
O 	O 	0.03570 0.76480 0.89060 -0.38200
O 	O 	0.06980 0.71580 0.99960 -0.45500
O 	O 	0.56730 0.99290 0.91650 -0.41900
C 	C 	0.25380 0.94220 0.98800 0.20200
C 	C 	0.24680 0.88440 0.02300 -0.22600
H 	H 	0.28110 0.88380 0.05340 0.11200
C 	C 	0.18860 0.82780 0.01240 0.11000
H 	H 	0.18500 0.79020 0.03750 -0.01400
C 	C 	0.13850 0.82550 0.96810 -0.15300
C 	C 	0.20080 0.94030 0.93740 -0.18800
H 	H 	0.20450 0.97760 0.91130 0.10900
C 	C 	0.14180 0.88150 0.92610 0.08500
H 	H 	0.10720 0.87990 0.89290 0.01700
C 	C 	0.07710 0.76600 0.95310 0.33400
C 	C 	0.38400 0.97240 0.92310 -0.27500
H 	H 	0.35470 0.95250 0.87090 0.13800
C 	C 	0.44030 0.97370 0.92220 0.23700
H 	H 	0.45010 0.95620 0.86700 -0.03400
O 	O 	0.70237 0.09813 0.22393 -0.37800
O 	O 	0.73647 0.04913 0.33293 -0.46300
O 	O 	0.23397 0.32623 0.24983 -0.46100
C 	C 	0.92047 0.27553 0.32133 0.15900
C 	C 	0.91347 0.21773 0.35633 -0.19700
H 	H 	0.94777 0.21713 0.38673 0.10900
C 	C 	0.85527 0.16113 0.34573 0.11500
H 	H 	0.85167 0.12353 0.37083 -0.01200
C 	C 	0.80517 0.15883 0.30143 -0.16100
C 	C 	0.86747 0.27363 0.27073 -0.17400
H 	H 	0.87117 0.31093 0.24463 0.09100
C 	C 	0.80847 0.21483 0.25943 0.07700
H 	H 	0.77387 0.21323 0.22623 0.01900
C 	C 	0.74377 0.09933 0.28643 0.33600
C 	C 	0.05067 0.30573 0.25643 -0.30100
H 	H 	0.02137 0.28583 0.20423 0.12800
C 	C 	0.10697 0.30703 0.25553 0.19400
H 	H 	0.11677 0.28953 0.20033 -0.03100
O 	O 	0.36903 0.43147 0.55727 -0.37200
O 	O 	0.40313 0.38247 0.66627 -0.45500
O 	O 	0.90063 0.65957 0.58317 -0.45000
C 	C 	0.58713 0.60887 0.65467 0.15400
C 	C 	0.58013 0.55107 0.68967 -0.19600
H 	H 	0.61443 0.55047 0.72007 0.10100
C 	C 	0.52193 0.49447 0.67907 0.11100
H 	H 	0.51833 0.45687 0.70417 -0.01000
C 	C 	0.47183 0.49217 0.63477 -0.15800
C 	C 	0.53413 0.60697 0.60407 -0.17200
H 	H 	0.53783 0.64427 0.57797 0.09000
C 	C 	0.47513 0.54817 0.59277 0.07400
H 	H 	0.44053 0.54657 0.55957 0.02000
C 	C 	0.41043 0.43267 0.61977 0.33500
C 	C 	0.71733 0.63907 0.58977 -0.33000
H 	H 	0.68803 0.61917 0.53757 0.15000
C 	C 	0.77363 0.64037 0.58887 0.22000
H 	H 	0.78343 0.62287 0.53367 -0.03500
O 	O 	0.72910 0.96430 0.89060 -0.35300
O 	O 	0.64600 0.93020 0.99960 -0.44200
O 	O 	0.42560 0.43270 0.91650 -0.45500
C 	C 	0.68840 0.74620 0.98800 0.16400
C 	C 	0.63760 0.75320 0.02300 -0.20100
H 	H 	0.60270 0.71890 0.05340 0.10100
C 	C 	0.63920 0.81140 0.01240 0.09800
H 	H 	0.60520 0.81500 0.03750 -0.00900
C 	C 	0.68700 0.86150 0.96810 -0.14400
C 	C 	0.73950 0.79920 0.93740 -0.17100
H 	H 	0.77310 0.79550 0.91130 0.09400
C 	C 	0.73970 0.85820 0.92610 0.07100
H 	H 	0.77270 0.89280 0.89290 0.02700
C 	C 	0.68890 0.92290 0.95310 0.33100
C 	C 	0.58840 0.61600 0.92310 -0.32300
H 	H 	0.59780 0.64530 0.87090 0.14800
C 	C 	0.53340 0.55970 0.92220 0.22500
H 	H 	0.50610 0.54990 0.86700 -0.03600
O 	O 	0.39577 0.29763 0.22393 -0.37200
O 	O 	0.31267 0.26353 0.33293 -0.45600
O 	O 	0.09227 0.76603 0.24983 -0.46600
C 	C 	0.35507 0.07953 0.32133 0.15100
C 	C 	0.30427 0.08653 0.35633 -0.19700
H 	H 	0.26937 0.05223 0.38673 0.09300
C 	C 	0.30587 0.14473 0.34573 0.10900
H 	H 	0.27187 0.14833 0.37083 -0.01400
C 	C 	0.35367 0.19483 0.30143 -0.15900
C 	C 	0.40617 0.13253 0.27073 -0.17200
H 	H 	0.43977 0.12883 0.24463 0.09000
C 	C 	0.40637 0.19153 0.25943 0.07300
H 	H 	0.43937 0.22613 0.22623 0.02000
C 	C 	0.35557 0.25623 0.28643 0.33500
C 	C 	0.25507 0.94933 0.25643 -0.36600
H 	H 	0.26447 0.97863 0.20423 0.17100
C 	C 	0.20007 0.89303 0.25553 0.25000
H 	H 	0.17277 0.88323 0.20033 -0.04700
O 	O 	0.06243 0.63097 0.55727 -0.37000
O 	O 	0.97933 0.59687 0.66627 -0.42900
O 	O 	0.75893 0.09937 0.58317 -0.46200
C 	C 	0.02173 0.41287 0.65467 0.12700
C 	C 	0.97093 0.41987 0.68967 -0.17200
H 	H 	0.93603 0.38557 0.72007 0.09700
C 	C 	0.97253 0.47807 0.67907 0.14500
H 	H 	0.93853 0.48167 0.70417 -0.01700
C 	C 	0.02033 0.52817 0.63477 -0.18800
C 	C 	0.07283 0.46587 0.60407 -0.17100
H 	H 	0.10643 0.46217 0.57797 0.09000
C 	C 	0.07303 0.52487 0.59277 0.07800
H 	H 	0.10603 0.55947 0.55957 0.01800
C 	C 	0.02223 0.58957 0.61977 0.31200
C 	C 	0.92173 0.28267 0.58977 -0.36400
H 	H 	0.93113 0.31197 0.53757 0.16600
C 	C 	0.86673 0.22637 0.58887 0.24800
H 	H 	0.83943 0.21657 0.53367 -0.04500
O 	O 	0.23520 0.27090 0.89060 -0.37300
O 	O 	0.28420 0.35400 0.99960 -0.45000
O 	O 	0.00710 0.57440 0.91650 -0.45500
C 	C 	0.05780 0.31160 0.98800 0.16300
C 	C 	0.11560 0.36240 0.02300 -0.20500
H 	H 	0.11620 0.39730 0.05340 0.10100
C 	C 	0.17220 0.36080 0.01240 0.10000
H 	H 	0.20980 0.39480 0.03750 -0.01000
C 	C 	0.17450 0.31300 0.96810 -0.14900
C 	C 	0.05970 0.26050 0.93740 -0.17800
H 	H 	0.02240 0.22690 0.91130 0.08200
C 	C 	0.11850 0.26030 0.92610 0.07100
H 	H 	0.12010 0.22730 0.89290 0.01700
C 	C 	0.23400 0.31110 0.95310 0.33200
C 	C 	0.02760 0.41160 0.92310 -0.29800
H 	H 	0.04750 0.40220 0.87090 0.13700
C 	C 	0.02630 0.46660 0.92220 0.21300
H 	H 	0.04380 0.49390 0.86700 -0.03500
O 	O 	0.90187 0.60423 0.22393 -0.36400
O 	O 	0.95087 0.68733 0.33293 -0.43600
O 	O 	0.67377 0.90773 0.24983 -0.45600
C 	C 	0.72447 0.64493 0.32133 0.15300
C 	C 	0.78227 0.69573 0.35633 -0.19300
H 	H 	0.78287 0.73063 0.38673 0.10200
C 	C 	0.83887 0.69413 0.34573 0.10700
H 	H 	0.87647 0.72813 0.37083 -0.00400
C 	C 	0.84117 0.64633 0.30143 -0.15400
C 	C 	0.72637 0.59383 0.27073 -0.17100
H 	H 	0.68907 0.56023 0.24463 0.09000
C 	C 	0.78517 0.59363 0.25943 0.07200
H 	H 	0.78677 0.56063 0.22623 0.02000
C 	C 	0.90067 0.64443 0.28643 0.33100
C 	C 	0.69427 0.74493 0.25643 -0.33100
H 	H 	0.71417 0.73553 0.20423 0.15000
C 	C 	0.69297 0.79993 0.25553 0.22100
H 	H 	0.71047 0.82723 0.20033 -0.03400
O 	O 	0.56853 0.93757 0.55727 -0.36800
O 	O 	0.61753 0.02067 0.66627 -0.47800
O 	O 	0.34043 0.24107 0.58317 -0.45900
C 	C 	0.39113 0.97827 0.65467 0.18400
C 	C 	0.44893 0.02907 0.68967 -0.22300
H 	H 	0.44953 0.06397 0.72007 0.10600
C 	C 	0.50553 0.02747 0.67907 0.07500
H 	H 	0.54313 0.06147 0.70417 -0.00300
C 	C 	0.50783 0.97967 0.63477 -0.12500
C 	C 	0.39303 0.92717 0.60407 -0.17400
H 	H 	0.35573 0.89357 0.57797 0.09100
C 	C 	0.45183 0.92697 0.59277 0.07000
H 	H 	0.45343 0.89397 0.55957 0.02200
C 	C 	0.56733 0.97777 0.61977 0.35900
C 	C 	0.36093 0.07827 0.58977 -0.30200
H 	H 	0.38083 0.06887 0.53757 0.13500
C 	C 	0.35963 0.13327 0.58887 0.19500
H 	H 	0.37713 0.16057 0.53367 -0.02800
La	La	0.64903 0.98236 0.16667 1.66800
La	La	0.31570 0.31570 0.50000 1.64200
La	La	0.01764 0.66667 0.16667 1.60600
La	La	0.68430 0.00000 0.50000 1.61400
La	La	0.33333 0.35097 0.16667 1.64100
La	La	-0.00000 0.68430 0.50000 1.61400
La	La	0.98236 0.64903 0.83333 1.67300
La	La	0.66667 0.01764 0.83333 1.61100
La	La	0.35097 0.33333 0.83333 1.64500
N 	N 	-0.00000 0.31160 -0.00000 -0.22100
C 	C 	-0.00000 0.37050 -0.00000 0.21000
C 	C 	-0.00000 0.48390 -0.00000 -0.29700
C 	C 	-0.00000 0.54570 -0.00000 0.39000
N 	N 	0.66667 0.64493 0.33333 -0.20600
C 	C 	0.66667 0.70383 0.33333 0.27400
C 	C 	0.66667 0.81723 0.33333 -0.27200
C 	C 	0.66667 0.87903 0.33333 0.43700
N 	N 	0.33333 0.97827 0.66667 -0.19200
C 	C 	0.33333 0.03717 0.66667 0.22900
C 	C 	0.33333 0.15057 0.66667 -0.25700
C 	C 	0.33333 0.21237 0.66667 0.43000
N 	N 	0.68840 0.68840 -0.00000 -0.20800
C 	C 	0.62950 0.62950 -0.00000 0.26400
C 	C 	0.51610 0.51610 -0.00000 -0.27900
C 	C 	0.45430 0.45430 -0.00000 0.43100
N 	N 	0.35507 0.02173 0.33333 -0.21900
C 	C 	0.29617 0.96283 0.33333 0.31900
C 	C 	0.18277 0.84943 0.33333 -0.29500
C 	C 	0.12097 0.78763 0.33333 0.44400
N 	N 	0.02173 0.35507 0.66667 -0.21900
C 	C 	0.96283 0.29617 0.66667 0.31900
C 	C 	0.84943 0.18277 0.66667 -0.29400
C 	C 	0.78763 0.12097 0.66667 0.44400
N 	N 	0.31160 0.00000 -0.00000 -0.21900
C 	C 	0.37050 0.00000 -0.00000 0.22100
C 	C 	0.48390 0.00000 -0.00000 -0.29100
C 	C 	0.54570 0.00000 -0.00000 0.40200
N 	N 	0.97827 0.33333 0.33333 -0.19200
C 	C 	0.03717 0.33333 0.33333 0.22900
C 	C 	0.15057 0.33333 0.33333 -0.25800
C 	C 	0.21237 0.33333 0.33333 0.43000
N 	N 	0.64493 0.66667 0.66667 -0.20600
C 	C 	0.70383 0.66667 0.66667 0.27300
C 	C 	0.81723 0.66667 0.66667 -0.27100
C 	C 	0.87903 0.66667 0.66667 0.43700
