data_crystal

_cell_length_a 24.18430
_cell_length_b 24.18430
_cell_length_c 13.02170
_cell_angle_alpha 90.00000
_cell_angle_beta  90.00000
_cell_angle_gamma 120.00000

_symmetry_space_group_name_	'P 1'
_symmetry_space_group_name_H-M	'P 1'

loop_
_symmetry_equiv_pos_as_xyz
  x,y,z

loop_
_atom_site_label
_atom_site_type_symbol
_atom_site_fract_x
_atom_site_fract_y
_atom_site_fract_z
_atom_site_charge
O 	O 	0.90292 0.29840 0.22530 -0.38600
O 	O 	0.95103 0.26428 0.33000 -0.45500
O 	O 	0.67770 0.76820 0.25020 -0.45500
C 	C 	0.72520 0.08190 0.32110 0.22000
C 	C 	0.78090 0.08730 0.35760 -0.26600
H 	H 	0.78080 0.05280 0.38940 0.12100
C 	C 	0.83730 0.14460 0.34640 0.17800
H 	H 	0.87480 0.14830 0.37240 -0.03200
C 	C 	0.83960 0.19500 0.29940 -0.22900
C 	C 	0.78480 0.18830 0.26200 0.16900
H 	H 	0.78590 0.22280 0.22840 -0.01100
C 	C 	0.72630 0.13180 0.27130 -0.26500
H 	H 	0.68920 0.12840 0.24430 0.12400
C 	C 	0.90090 0.25750 0.28530 0.38900
C 	C 	0.69960 0.95200 0.25540 -0.20100
H 	H 	0.72180 0.98230 0.20480 0.11500
C 	C 	0.69850 0.89350 0.25510 0.10500
H 	H 	0.71880 0.88400 0.20300 0.00600
O 	O 	0.56959 0.63173 0.55863 -0.39600
O 	O 	0.61770 0.59761 0.66333 -0.47400
O 	O 	0.34437 0.10153 0.58353 -0.45700
C 	C 	0.39187 0.41523 0.65443 0.22600
C 	C 	0.44757 0.42063 0.69093 -0.27300
H 	H 	0.44747 0.38613 0.72273 0.12800
C 	C 	0.50397 0.47793 0.67973 0.18500
H 	H 	0.54147 0.48163 0.70573 -0.03800
C 	C 	0.50627 0.52833 0.63273 -0.23700
C 	C 	0.45147 0.52163 0.59533 0.17500
H 	H 	0.45257 0.55613 0.56173 -0.01500
C 	C 	0.39297 0.46513 0.60463 -0.27200
H 	H 	0.35587 0.46173 0.57763 0.12500
C 	C 	0.56757 0.59083 0.61863 0.39400
C 	C 	0.36627 0.28533 0.58873 -0.19000
H 	H 	0.38847 0.31563 0.53813 0.10000
C 	C 	0.36517 0.22683 0.58843 0.09100
H 	H 	0.38547 0.21733 0.53633 0.00800
O 	O 	0.23625 0.96507 0.89197 -0.37800
O 	O 	0.28436 0.93095 0.99667 -0.46000
O 	O 	0.01103 0.43487 0.91687 -0.45200
C 	C 	0.05853 0.74857 0.98777 0.24000
C 	C 	0.11423 0.75397 0.02427 -0.28300
H 	H 	0.11413 0.71947 0.05607 0.12900
C 	C 	0.17063 0.81127 0.01307 0.17000
H 	H 	0.20813 0.81497 0.03907 -0.03600
C 	C 	0.17293 0.86167 0.96607 -0.22100
C 	C 	0.11813 0.85497 0.92867 0.17000
H 	H 	0.11923 0.88947 0.89507 -0.01100
C 	C 	0.05963 0.79847 0.93797 -0.27500
H 	H 	0.02253 0.79507 0.91097 0.12000
C 	C 	0.23423 0.92417 0.95197 0.38900
C 	C 	0.03293 0.61867 0.92207 -0.17300
H 	H 	0.05513 0.64897 0.87147 0.09300
C 	C 	0.03183 0.56017 0.92177 0.09600
H 	H 	0.05213 0.55067 0.86967 0.00500
O 	O 	0.70160 0.60452 0.22530 -0.39600
O 	O 	0.73572 0.68675 0.33000 -0.47300
O 	O 	0.23180 0.90950 0.25020 -0.45200
C 	C 	0.91810 0.64330 0.32110 0.23200
C 	C 	0.91270 0.69360 0.35760 -0.27400
H 	H 	0.94720 0.72800 0.38940 0.13800
C 	C 	0.85540 0.69270 0.34640 0.18800
H 	H 	0.85170 0.72650 0.37240 -0.03500
C 	C 	0.80500 0.64460 0.29940 -0.23800
C 	C 	0.81170 0.59650 0.26200 0.17700
H 	H 	0.77720 0.56310 0.22840 -0.01500
C 	C 	0.86820 0.59450 0.27130 -0.27400
H 	H 	0.87160 0.56080 0.24430 0.12600
C 	C 	0.74250 0.64340 0.28530 0.39400
C 	C 	0.04800 0.74760 0.25540 -0.17300
H 	H 	0.01770 0.73950 0.20480 0.08300
C 	C 	0.10650 0.80500 0.25510 0.07600
H 	H 	0.11600 0.83480 0.20300 0.01100
O 	O 	0.36827 0.93785 0.55863 -0.39300
O 	O 	0.40239 0.02008 0.66333 -0.49800
O 	O 	0.89847 0.24283 0.58353 -0.44600
C 	C 	0.58477 0.97663 0.65443 0.26100
C 	C 	0.57937 0.02693 0.69093 -0.30600
H 	H 	0.61387 0.06133 0.72273 0.13500
C 	C 	0.52207 0.02603 0.67973 0.15500
H 	H 	0.51837 0.05983 0.70573 -0.03200
C 	C 	0.47167 0.97793 0.63273 -0.20900
C 	C 	0.47837 0.92983 0.59533 0.17500
H 	H 	0.44387 0.89643 0.56173 -0.01400
C 	C 	0.53487 0.92783 0.60463 -0.28000
H 	H 	0.53827 0.89413 0.57763 0.12800
C 	C 	0.40917 0.97673 0.61863 0.42000
C 	C 	0.71467 0.08093 0.58873 -0.17400
H 	H 	0.68437 0.07283 0.53813 0.09000
C 	C 	0.77317 0.13833 0.58843 0.07800
H 	H 	0.78267 0.16813 0.53633 0.01300
O 	O 	0.03493 0.27119 0.89197 -0.40900
O 	O 	0.06905 0.35342 0.99667 -0.47700
O 	O 	0.56513 0.57617 0.91687 -0.45200
C 	C 	0.25143 0.30997 0.98777 0.23700
C 	C 	0.24603 0.36027 0.02427 -0.28100
H 	H 	0.28053 0.39467 0.05607 0.13000
C 	C 	0.18873 0.35937 0.01307 0.18000
H 	H 	0.18503 0.39317 0.03907 -0.03800
C 	C 	0.13833 0.31127 0.96607 -0.23400
C 	C 	0.14503 0.26317 0.92867 0.17600
H 	H 	0.11053 0.22977 0.89507 -0.02000
C 	C 	0.20153 0.26117 0.93797 -0.27700
H 	H 	0.20493 0.22747 0.91097 0.12500
C 	C 	0.07583 0.31007 0.95197 0.39300
C 	C 	0.38133 0.41427 0.92207 -0.18400
H 	H 	0.35103 0.40617 0.87147 0.09900
C 	C 	0.43983 0.47167 0.92177 0.09500
H 	H 	0.44933 0.50147 0.86967 0.00800
O 	O 	0.39548 0.09708 0.22530 -0.40200
O 	O 	0.31325 0.04897 0.33000 -0.48400
O 	O 	0.09050 0.32230 0.25020 -0.46100
C 	C 	0.35670 0.27480 0.32110 0.22700
C 	C 	0.30640 0.21910 0.35760 -0.27500
H 	H 	0.27200 0.21920 0.38940 0.12700
C 	C 	0.30730 0.16270 0.34640 0.18700
H 	H 	0.27350 0.12520 0.37240 -0.04200
C 	C 	0.35540 0.16040 0.29940 -0.24000
C 	C 	0.40350 0.21520 0.26200 0.17700
H 	H 	0.43690 0.21410 0.22840 -0.01600
C 	C 	0.40550 0.27370 0.27130 -0.27400
H 	H 	0.43920 0.31080 0.24430 0.12600
C 	C 	0.35660 0.09910 0.28530 0.39600
C 	C 	0.25240 0.30040 0.25540 -0.19100
H 	H 	0.26050 0.27820 0.20480 0.09900
C 	C 	0.19500 0.30150 0.25510 0.09100
H 	H 	0.16520 0.28120 0.20300 0.00400
O 	O 	0.06215 0.43041 0.55863 -0.39200
O 	O 	0.97992 0.38230 0.66333 -0.44700
O 	O 	0.75717 0.65563 0.58353 -0.45600
C 	C 	0.02337 0.60813 0.65443 0.19400
C 	C 	0.97307 0.55243 0.69093 -0.24300
H 	H 	0.93867 0.55253 0.72273 0.12200
C 	C 	0.97397 0.49603 0.67973 0.21200
H 	H 	0.94017 0.45853 0.70573 -0.04200
C 	C 	0.02207 0.49373 0.63273 -0.26200
C 	C 	0.07017 0.54853 0.59533 0.17500
H 	H 	0.10357 0.54743 0.56173 -0.01500
C 	C 	0.07217 0.60703 0.60463 -0.26400
H 	H 	0.10587 0.64413 0.57763 0.12300
C 	C 	0.02327 0.43243 0.61863 0.36800
C 	C 	0.91907 0.63373 0.58873 -0.20200
H 	H 	0.92717 0.61153 0.53813 0.10800
C 	C 	0.86167 0.63483 0.58843 0.10100
H 	H 	0.83187 0.61453 0.53633 0.00500
O 	O 	0.72881 0.76375 0.89197 -0.39300
O 	O 	0.64658 0.71564 0.99667 -0.47200
O 	O 	0.42383 0.98897 0.91687 -0.41600
C 	C 	0.69003 0.94147 0.98777 0.27200
C 	C 	0.63973 0.88577 0.02427 -0.30500
H 	H 	0.60533 0.88587 0.05607 0.14100
C 	C 	0.64063 0.82937 0.01307 0.19800
H 	H 	0.60683 0.79187 0.03907 -0.04400
C 	C 	0.68873 0.82707 0.96607 -0.24400
C 	C 	0.73683 0.88187 0.92867 0.19500
H 	H 	0.77023 0.88077 0.89507 -0.01600
C 	C 	0.73883 0.94037 0.93797 -0.29600
H 	H 	0.77253 0.97747 0.91097 0.14700
C 	C 	0.68993 0.76577 0.95197 0.39700
C 	C 	0.58573 0.96707 0.92207 -0.15600
H 	H 	0.59383 0.94487 0.87147 0.09400
C 	C 	0.52833 0.96817 0.92177 0.12000
H 	H 	0.49853 0.94787 0.86967 0.00500
O 	O 	0.29840 0.90292 0.77470 -0.38600
O 	O 	0.26428 0.95103 0.67000 -0.45600
O 	O 	0.76820 0.67770 0.74980 -0.45500
C 	C 	0.08190 0.72520 0.67890 0.21900
C 	C 	0.08730 0.78090 0.64240 -0.26700
H 	H 	0.05280 0.78080 0.61060 0.12000
C 	C 	0.14460 0.83730 0.65360 0.17700
H 	H 	0.14830 0.87480 0.62760 -0.03300
C 	C 	0.19500 0.83960 0.70060 -0.22900
C 	C 	0.18830 0.78480 0.73800 0.16800
H 	H 	0.22280 0.78590 0.77160 -0.01100
C 	C 	0.13180 0.72630 0.72870 -0.26500
H 	H 	0.12840 0.68920 0.75570 0.12400
C 	C 	0.25750 0.90090 0.71470 0.38800
C 	C 	0.95200 0.69960 0.74460 -0.20100
H 	H 	0.98230 0.72180 0.79520 0.11500
C 	C 	0.89350 0.69850 0.74490 0.10300
H 	H 	0.88400 0.71880 0.79700 0.00800
O 	O 	0.96507 0.23625 0.10803 -0.38000
O 	O 	0.93095 0.28436 0.00333 -0.46500
O 	O 	0.43487 0.01103 0.08313 -0.46000
C 	C 	0.74857 0.05853 0.01223 0.21900
C 	C 	0.75397 0.11423 0.97573 -0.26800
H 	H 	0.71947 0.11413 0.94393 0.12500
C 	C 	0.81127 0.17063 0.98693 0.17600
H 	H 	0.81497 0.20813 0.96093 -0.03500
C 	C 	0.86167 0.17293 0.03393 -0.22900
C 	C 	0.85497 0.11813 0.07133 0.16800
H 	H 	0.88947 0.11923 0.10493 -0.01100
C 	C 	0.79847 0.05963 0.06203 -0.26800
H 	H 	0.79507 0.02253 0.08903 0.11500
C 	C 	0.92417 0.23423 0.04803 0.39000
C 	C 	0.61867 0.03293 0.07793 -0.18500
H 	H 	0.64897 0.05513 0.12853 0.09600
C 	C 	0.56017 0.03183 0.07823 0.08900
H 	H 	0.55067 0.05213 0.13033 0.00600
O 	O 	0.63173 0.56959 0.44137 -0.39600
O 	O 	0.59761 0.61770 0.33667 -0.47400
O 	O 	0.10153 0.34437 0.41647 -0.45700
C 	C 	0.41523 0.39187 0.34557 0.22600
C 	C 	0.42063 0.44757 0.30907 -0.27300
H 	H 	0.38613 0.44747 0.27727 0.12800
C 	C 	0.47793 0.50397 0.32027 0.18500
H 	H 	0.48163 0.54147 0.29427 -0.03800
C 	C 	0.52833 0.50627 0.36727 -0.23700
C 	C 	0.52163 0.45147 0.40467 0.17500
H 	H 	0.55613 0.45257 0.43827 -0.01500
C 	C 	0.46513 0.39297 0.39537 -0.27200
H 	H 	0.46173 0.35587 0.42237 0.12500
C 	C 	0.59083 0.56757 0.38137 0.39400
C 	C 	0.28533 0.36627 0.41127 -0.19000
H 	H 	0.31563 0.38847 0.46187 0.10000
C 	C 	0.22683 0.36517 0.41157 0.09100
H 	H 	0.21733 0.38547 0.46367 0.00800
O 	O 	0.60452 0.70160 0.77470 -0.39500
O 	O 	0.68675 0.73572 0.67000 -0.47300
O 	O 	0.90950 0.23180 0.74980 -0.45100
C 	C 	0.64330 0.91810 0.67890 0.23100
C 	C 	0.69360 0.91270 0.64240 -0.27300
H 	H 	0.72800 0.94720 0.61060 0.13700
C 	C 	0.69270 0.85540 0.65360 0.18800
H 	H 	0.72650 0.85170 0.62760 -0.03500
C 	C 	0.64460 0.80500 0.70060 -0.23800
C 	C 	0.59650 0.81170 0.73800 0.17700
H 	H 	0.56310 0.77720 0.77160 -0.01500
C 	C 	0.59450 0.86820 0.72870 -0.27300
H 	H 	0.56080 0.87160 0.75570 0.12700
C 	C 	0.64340 0.74250 0.71470 0.39400
C 	C 	0.74760 0.04800 0.74460 -0.17200
H 	H 	0.73950 0.01770 0.79520 0.08300
C 	C 	0.80500 0.10650 0.74490 0.07600
H 	H 	0.83480 0.11600 0.79700 0.01300
O 	O 	0.27119 0.03493 0.10803 -0.41200
O 	O 	0.35342 0.06905 0.00333 -0.48300
O 	O 	0.57617 0.56513 0.08313 -0.45500
C 	C 	0.30997 0.25143 0.01223 0.22300
C 	C 	0.36027 0.24603 0.97573 -0.27000
H 	H 	0.39467 0.28053 0.94393 0.12800
C 	C 	0.35937 0.18873 0.98693 0.19100
H 	H 	0.39317 0.18503 0.96093 -0.03900
C 	C 	0.31127 0.13833 0.03393 -0.24600
C 	C 	0.26317 0.14503 0.07133 0.17700
H 	H 	0.22977 0.11053 0.10493 -0.02100
C 	C 	0.26117 0.20153 0.06203 -0.27500
H 	H 	0.22747 0.20493 0.08903 0.12200
C 	C 	0.31007 0.07583 0.04803 0.39600
C 	C 	0.41427 0.38133 0.07793 -0.18800
H 	H 	0.40617 0.35103 0.12853 0.09900
C 	C 	0.47167 0.43983 0.07823 0.09100
H 	H 	0.50147 0.44933 0.13033 0.00800
O 	O 	0.93785 0.36827 0.44137 -0.39300
O 	O 	0.02008 0.40239 0.33667 -0.49800
O 	O 	0.24283 0.89847 0.41647 -0.44600
C 	C 	0.97663 0.58477 0.34557 0.26100
C 	C 	0.02693 0.57937 0.30907 -0.30600
H 	H 	0.06133 0.61387 0.27727 0.13500
C 	C 	0.02603 0.52207 0.32027 0.15500
H 	H 	0.05983 0.51837 0.29427 -0.03300
C 	C 	0.97793 0.47167 0.36727 -0.20900
C 	C 	0.92983 0.47837 0.40467 0.17500
H 	H 	0.89643 0.44387 0.43827 -0.01400
C 	C 	0.92783 0.53487 0.39537 -0.28000
H 	H 	0.89413 0.53827 0.42237 0.12800
C 	C 	0.97673 0.40917 0.38137 0.42000
C 	C 	0.08093 0.71467 0.41127 -0.17400
H 	H 	0.07283 0.68437 0.46187 0.09000
C 	C 	0.13833 0.77317 0.41157 0.07800
H 	H 	0.16813 0.78267 0.46367 0.01300
O 	O 	0.09708 0.39548 0.77470 -0.40100
O 	O 	0.04897 0.31325 0.67000 -0.48400
O 	O 	0.32230 0.09050 0.74980 -0.46000
C 	C 	0.27480 0.35670 0.67890 0.22700
C 	C 	0.21910 0.30640 0.64240 -0.27500
H 	H 	0.21920 0.27200 0.61060 0.12700
C 	C 	0.16270 0.30730 0.65360 0.18700
H 	H 	0.12520 0.27350 0.62760 -0.04200
C 	C 	0.16040 0.35540 0.70060 -0.24000
C 	C 	0.21520 0.40350 0.73800 0.17700
H 	H 	0.21410 0.43690 0.77160 -0.01500
C 	C 	0.27370 0.40550 0.72870 -0.27300
H 	H 	0.31080 0.43920 0.75570 0.12600
C 	C 	0.09910 0.35660 0.71470 0.39600
C 	C 	0.30040 0.25240 0.74460 -0.19100
H 	H 	0.27820 0.26050 0.79520 0.10000
C 	C 	0.30150 0.19500 0.74490 0.09100
H 	H 	0.28120 0.16520 0.79700 0.00600
O 	O 	0.76375 0.72881 0.10803 -0.39600
O 	O 	0.71564 0.64658 0.00333 -0.47800
O 	O 	0.98897 0.42383 0.08313 -0.41600
C 	C 	0.94147 0.69003 0.01223 0.26500
C 	C 	0.88577 0.63973 0.97573 -0.29900
H 	H 	0.88587 0.60533 0.94393 0.14200
C 	C 	0.82937 0.64063 0.98693 0.21200
H 	H 	0.79187 0.60683 0.96093 -0.04600
C 	C 	0.82707 0.68873 0.03393 -0.25800
C 	C 	0.88187 0.73683 0.07133 0.20000
H 	H 	0.88077 0.77023 0.10493 -0.01900
C 	C 	0.94037 0.73883 0.06203 -0.29800
H 	H 	0.97747 0.77253 0.08903 0.14600
C 	C 	0.76577 0.68993 0.04803 0.40100
C 	C 	0.96707 0.58573 0.07793 -0.15200
H 	H 	0.94487 0.59383 0.12853 0.09200
C 	C 	0.96817 0.52833 0.07823 0.11800
H 	H 	0.94787 0.49853 0.13033 0.00500
O 	O 	0.43041 0.06215 0.44137 -0.39200
O 	O 	0.38230 0.97992 0.33667 -0.44800
O 	O 	0.65563 0.75717 0.41647 -0.45600
C 	C 	0.60813 0.02337 0.34557 0.19400
C 	C 	0.55243 0.97307 0.30907 -0.24300
H 	H 	0.55253 0.93867 0.27727 0.12200
C 	C 	0.49603 0.97397 0.32027 0.21200
H 	H 	0.45853 0.94017 0.29427 -0.04300
C 	C 	0.49373 0.02207 0.36727 -0.26200
C 	C 	0.54853 0.07017 0.40467 0.17500
H 	H 	0.54743 0.10357 0.43827 -0.01500
C 	C 	0.60703 0.07217 0.39537 -0.26500
H 	H 	0.64413 0.10587 0.42237 0.12300
C 	C 	0.43243 0.02327 0.38137 0.36800
C 	C 	0.63373 0.91907 0.41127 -0.20200
H 	H 	0.61153 0.92717 0.46187 0.10800
C 	C 	0.63483 0.86167 0.41157 0.10100
H 	H 	0.61453 0.83187 0.46367 0.00500
La	La	0.01823 0.35157 0.16667 1.61300
La	La	0.68490 0.68490 0.50000 1.65100
La	La	0.64843 0.66667 0.16667 1.64700
La	La	0.31510 -0.00000 0.50000 1.61700
La	La	0.33333 0.98177 0.16667 1.67200
La	La	0.00000 0.31510 0.50000 1.61700
La	La	0.35157 0.01823 0.83333 1.61600
La	La	0.66667 0.64843 0.83333 1.65100
La	La	0.98177 0.33333 0.83333 1.67500
N 	N 	0.66667 0.02398 0.33333 -0.21600
C 	C 	0.66667 0.96458 0.33333 0.18400
C 	C 	0.66667 0.84948 0.33333 -0.18000
C 	C 	0.66667 0.78658 0.33333 0.41300
N 	N 	0.97602 0.64268 0.33333 -0.19700
C 	C 	0.03542 0.70208 0.33333 0.12300
C 	C 	0.15052 0.81718 0.33333 -0.16400
C 	C 	0.21342 0.88008 0.33333 0.40600
N 	N 	0.35732 0.33333 0.33333 -0.20800
C 	C 	0.29792 0.33333 0.33333 0.15600
C 	C 	0.18282 0.33333 0.33333 -0.17600
C 	C 	0.11992 0.33333 0.33333 0.40900
N 	N 	0.02398 0.66667 0.66667 -0.21600
C 	C 	0.96458 0.66667 0.66667 0.18400
C 	C 	0.84948 0.66667 0.66667 -0.17900
C 	C 	0.78658 0.66667 0.66667 0.41300
N 	N 	0.69065 0.00000 -0.00000 -0.22100
C 	C 	0.63125 0.00000 -0.00000 0.12200
C 	C 	0.51615 0.00000 -0.00000 -0.19800
C 	C 	0.45325 0.00000 -0.00000 0.37600
N 	N 	0.64268 0.97602 0.66667 -0.19700
C 	C 	0.70208 0.03542 0.66667 0.12300
C 	C 	0.81718 0.15052 0.66667 -0.16400
C 	C 	0.88008 0.21342 0.66667 0.40500
N 	N 	0.30935 0.30935 -0.00000 -0.21000
C 	C 	0.36875 0.36875 -0.00000 0.15000
C 	C 	0.48385 0.48385 -0.00000 -0.17800
C 	C 	0.54675 0.54675 -0.00000 0.40500
N 	N 	0.33333 0.35732 0.66667 -0.20700
C 	C 	0.33333 0.29792 0.66667 0.15600
C 	C 	0.33333 0.18282 0.66667 -0.17500
C 	C 	0.33333 0.11992 0.66667 0.40800
N 	N 	-0.00000 0.69065 -0.00000 -0.22600
C 	C 	-0.00000 0.63125 -0.00000 0.10900
C 	C 	-0.00000 0.51615 -0.00000 -0.20500
C 	C 	-0.00000 0.45325 -0.00000 0.36800
