data_crystal

_cell_length_a 24.20090
_cell_length_b 24.20090
_cell_length_c 12.96480
_cell_angle_alpha 90.00000
_cell_angle_beta  90.00000
_cell_angle_gamma 120.00000

_symmetry_space_group_name_	'P 1'
_symmetry_space_group_name_H-M	'P 1'

loop_
_symmetry_equiv_pos_as_xyz
  x,y,z

loop_
_atom_site_label
_atom_site_type_symbol
_atom_site_fract_x
_atom_site_fract_y
_atom_site_fract_z
_atom_site_charge
O 	O 	0.56930 0.93660 0.05750 -0.40300
O 	O 	0.61850 0.02050 0.16260 -0.50000
O 	O 	0.32230 0.23120 0.25150 -0.45300
C 	C 	0.39120 0.97620 0.15500 0.19000
C 	C 	0.44850 0.02760 0.18980 -0.24500
H 	H 	0.44830 0.06230 0.22010 0.10800
C 	C 	0.50540 0.02790 0.18000 0.07700
H 	H 	0.54290 0.06190 0.20540 -0.01700
C 	C 	0.50650 0.97680 0.13190 -0.15600
C 	C 	0.45030 0.92560 0.09370 0.08900
H 	H 	0.45130 0.89190 0.06080 -0.00700
C 	C 	0.39210 0.92510 0.10510 -0.21200
H 	H 	0.35450 0.89110 0.07970 0.07900
C 	C 	0.56790 0.97740 0.11740 0.37400
C 	C 	0.36330 0.07870 0.08730 -0.18200
H 	H 	0.38380 0.06960 0.03490 0.05600
C 	C 	0.36280 0.13660 0.08590 0.06300
H 	H 	0.38180 0.16530 0.03200 -0.01500
O 	O 	0.23597 0.26993 0.39083 -0.37700
O 	O 	0.28517 0.35383 0.49593 -0.46500
O 	O 	0.98897 0.56453 0.58483 -0.41800
C 	C 	0.05787 0.30953 0.48833 0.16300
C 	C 	0.11517 0.36093 0.52313 -0.20100
H 	H 	0.11497 0.39563 0.55343 0.10400
C 	C 	0.17207 0.36123 0.51333 0.10600
H 	H 	0.20957 0.39523 0.53873 -0.01100
C 	C 	0.17317 0.31013 0.46523 -0.16400
C 	C 	0.11697 0.25893 0.42703 0.09400
H 	H 	0.11797 0.22523 0.39413 0.00600
C 	C 	0.05877 0.25843 0.43843 -0.19500
H 	H 	0.02117 0.22443 0.41303 0.08700
C 	C 	0.23457 0.31073 0.45073 0.34900
C 	C 	0.02997 0.41203 0.42063 -0.18600
H 	H 	0.05047 0.40293 0.36823 0.09900
C 	C 	0.02947 0.46993 0.41923 0.08400
H 	H 	0.04847 0.49863 0.36533 0.00900
O 	O 	0.90263 0.60327 0.72417 -0.36400
O 	O 	0.95183 0.68717 0.82927 -0.41800
O 	O 	0.65563 0.89787 0.91817 -0.38400
C 	C 	0.72453 0.64287 0.82167 0.17800
C 	C 	0.78183 0.69427 0.85647 -0.18800
H 	H 	0.78163 0.72897 0.88677 0.12300
C 	C 	0.83873 0.69457 0.84667 0.11200
H 	H 	0.87623 0.72857 0.87207 0.01300
C 	C 	0.83983 0.64347 0.79857 -0.14500
C 	C 	0.78363 0.59227 0.76037 0.09500
H 	H 	0.78463 0.55857 0.72747 0.01600
C 	C 	0.72543 0.59177 0.77177 -0.18700
H 	H 	0.68783 0.55777 0.74637 0.09800
C 	C 	0.90123 0.64407 0.78407 0.34300
C 	C 	0.69663 0.74537 0.75397 -0.18700
H 	H 	0.71713 0.73627 0.70157 0.10200
C 	C 	0.69613 0.80327 0.75257 0.08600
H 	H 	0.71513 0.83197 0.69867 0.01700
O 	O 	0.06340 0.63270 0.05750 -0.40200
O 	O 	0.97950 0.59800 0.16260 -0.45000
O 	O 	0.76880 0.09110 0.25150 -0.45500
C 	C 	0.02380 0.41500 0.15500 0.12700
C 	C 	0.97240 0.42090 0.18980 -0.17900
H 	H 	0.93770 0.38600 0.22010 0.09400
C 	C 	0.97210 0.47750 0.18000 0.12200
H 	H 	0.93810 0.48100 0.20540 -0.02400
C 	C 	0.02320 0.52970 0.13190 -0.19900
C 	C 	0.07440 0.52470 0.09370 0.08500
H 	H 	0.10810 0.55940 0.06080 -0.00700
C 	C 	0.07490 0.46700 0.10510 -0.19700
H 	H 	0.10890 0.46340 0.07970 0.07300
C 	C 	0.02260 0.59050 0.11740 0.32100
C 	C 	0.92130 0.28460 0.08730 -0.21300
H 	H 	0.93040 0.31420 0.03490 0.07600
C 	C 	0.86340 0.22620 0.08590 0.08900
H 	H 	0.83470 0.21650 0.03200 -0.02300
O 	O 	0.73007 0.96603 0.39083 -0.35900
O 	O 	0.64617 0.93133 0.49593 -0.45700
O 	O 	0.43547 0.42443 0.58483 -0.44800
C 	C 	0.69047 0.74833 0.48833 0.16700
C 	C 	0.63907 0.75423 0.52313 -0.20100
H 	H 	0.60437 0.71933 0.55343 0.10500
C 	C 	0.63877 0.81083 0.51333 0.10600
H 	H 	0.60477 0.81433 0.53873 -0.01000
C 	C 	0.68987 0.86303 0.46523 -0.15900
C 	C 	0.74107 0.85803 0.42703 0.09500
H 	H 	0.77477 0.89273 0.39413 0.01600
C 	C 	0.74157 0.80033 0.43843 -0.19100
H 	H 	0.77557 0.79673 0.41303 0.09900
C 	C 	0.68927 0.92383 0.45073 0.34800
C 	C 	0.58797 0.61793 0.42063 -0.19200
H 	H 	0.59707 0.64753 0.36823 0.10300
C 	C 	0.53007 0.55953 0.41923 0.08700
H 	H 	0.50137 0.54983 0.36533 0.01100
O 	O 	0.39673 0.29937 0.72417 -0.37100
O 	O 	0.31283 0.26467 0.82927 -0.43400
O 	O 	0.10213 0.75777 0.91817 -0.39400
C 	C 	0.35713 0.08167 0.82167 0.17500
C 	C 	0.30573 0.08757 0.85647 -0.19000
H 	H 	0.27103 0.05267 0.88677 0.11400
C 	C 	0.30543 0.14417 0.84667 0.11200
H 	H 	0.27143 0.14767 0.87207 0.00500
C 	C 	0.35653 0.19637 0.79857 -0.14800
C 	C 	0.40773 0.19137 0.76037 0.09600
H 	H 	0.44143 0.22607 0.72747 0.01600
C 	C 	0.40823 0.13367 0.77177 -0.18700
H 	H 	0.44223 0.13007 0.74637 0.09800
C 	C 	0.35593 0.25717 0.78407 0.34600
C 	C 	0.25463 0.95127 0.75397 -0.20500
H 	H 	0.26373 0.98087 0.70157 0.11900
C 	C 	0.19673 0.89287 0.75257 0.10200
H 	H 	0.16803 0.88317 0.69867 0.01000
O 	O 	0.36730 0.43070 0.05750 -0.40600
O 	O 	0.40200 0.38150 0.16260 -0.47500
O 	O 	0.90890 0.67770 0.25150 -0.44600
C 	C 	0.58500 0.60880 0.15500 0.15600
C 	C 	0.57910 0.55150 0.18980 -0.20900
H 	H 	0.61400 0.55170 0.22010 0.10000
C 	C 	0.52250 0.49460 0.18000 0.10100
H 	H 	0.51900 0.45710 0.20540 -0.02100
C 	C 	0.47030 0.49350 0.13190 -0.18000
C 	C 	0.47530 0.54970 0.09370 0.08700
H 	H 	0.44060 0.54870 0.06080 -0.00800
C 	C 	0.53300 0.60790 0.10510 -0.20400
H 	H 	0.53660 0.64550 0.07970 0.07600
C 	C 	0.40950 0.43210 0.11740 0.34500
C 	C 	0.71540 0.63670 0.08730 -0.19600
H 	H 	0.68580 0.61620 0.03490 0.06600
C 	C 	0.77380 0.63720 0.08590 0.07500
H 	H 	0.78350 0.61820 0.03200 -0.01800
O 	O 	0.03397 0.76403 0.39083 -0.38800
O 	O 	0.06867 0.71483 0.49593 -0.47200
O 	O 	0.57557 0.01103 0.58483 -0.45400
C 	C 	0.25167 0.94213 0.48833 0.20100
C 	C 	0.24577 0.88483 0.52313 -0.22300
H 	H 	0.28067 0.88503 0.55343 0.11600
C 	C 	0.18917 0.82793 0.51333 0.12400
H 	H 	0.18567 0.79043 0.53873 -0.01700
C 	C 	0.13697 0.82683 0.46523 -0.17500
C 	C 	0.14197 0.88303 0.42703 0.11200
H 	H 	0.10727 0.88203 0.39413 0.00400
C 	C 	0.19967 0.94123 0.43843 -0.21100
H 	H 	0.20327 0.97883 0.41303 0.11400
C 	C 	0.07617 0.76543 0.45073 0.35300
C 	C 	0.38207 0.97003 0.42063 -0.15700
H 	H 	0.35247 0.94953 0.36823 0.09700
C 	C 	0.44047 0.97053 0.41923 0.11100
H 	H 	0.45017 0.95153 0.36533 0.00900
O 	O 	0.70063 0.09737 0.72417 -0.37700
O 	O 	0.73533 0.04817 0.82927 -0.44200
O 	O 	0.24223 0.34437 0.91817 -0.39200
C 	C 	0.91833 0.27547 0.82167 0.18400
C 	C 	0.91243 0.21817 0.85647 -0.19200
H 	H 	0.94733 0.21837 0.88677 0.12900
C 	C 	0.85583 0.16127 0.84667 0.11800
H 	H 	0.85233 0.12377 0.87207 0.00600
C 	C 	0.80363 0.16017 0.79857 -0.15100
C 	C 	0.80863 0.21637 0.76037 0.10000
H 	H 	0.77393 0.21537 0.72747 0.01500
C 	C 	0.86633 0.27457 0.77177 -0.19100
H 	H 	0.86993 0.31217 0.74637 0.10000
C 	C 	0.74283 0.09877 0.78407 0.34900
C 	C 	0.04873 0.30337 0.75397 -0.17500
H 	H 	0.01913 0.28287 0.70157 0.08800
C 	C 	0.10713 0.30387 0.75257 0.07400
H 	H 	0.11683 0.28487 0.69867 0.01500
O 	O 	0.93660 0.56930 0.94250 -0.31900
O 	O 	0.02050 0.61850 0.83740 -0.46200
O 	O 	0.23120 0.32230 0.74850 -0.43900
C 	C 	0.97620 0.39120 0.84500 0.20800
C 	C 	0.02760 0.44850 0.81020 -0.22500
H 	H 	0.06230 0.44830 0.77990 0.11400
C 	C 	0.02790 0.50540 0.82000 0.09300
H 	H 	0.06190 0.54290 0.79460 -0.00100
C 	C 	0.97680 0.50650 0.86810 -0.12500
C 	C 	0.92560 0.45030 0.90630 0.10400
H 	H 	0.89190 0.45130 0.93920 0.03200
C 	C 	0.92510 0.39210 0.89490 -0.18900
H 	H 	0.89110 0.35450 0.92030 0.12400
C 	C 	0.97740 0.56790 0.88260 0.37400
C 	C 	0.07870 0.36330 0.91270 -0.16900
H 	H 	0.06960 0.38380 0.96510 0.12900
C 	C 	0.13660 0.36280 0.91410 0.08300
H 	H 	0.16530 0.38180 0.96800 0.04600
O 	O 	0.60327 0.90263 0.27583 -0.36600
O 	O 	0.68717 0.95183 0.17073 -0.45000
O 	O 	0.89787 0.65563 0.08183 -0.46500
C 	C 	0.64287 0.72453 0.17833 0.15300
C 	C 	0.69427 0.78183 0.14353 -0.20900
H 	H 	0.72897 0.78163 0.11323 0.08800
C 	C 	0.69457 0.83873 0.15333 0.09300
H 	H 	0.72857 0.87623 0.12793 -0.02000
C 	C 	0.64347 0.83983 0.20143 -0.16600
C 	C 	0.59227 0.78363 0.23963 0.08600
H 	H 	0.55857 0.78463 0.27253 0.01100
C 	C 	0.59177 0.72543 0.22823 -0.19400
H 	H 	0.55777 0.68783 0.25363 0.09700
C 	C 	0.64407 0.90123 0.21593 0.34000
C 	C 	0.74537 0.69663 0.24603 -0.18900
H 	H 	0.73627 0.71713 0.29843 0.10200
C 	C 	0.80327 0.69613 0.24743 0.08300
H 	H 	0.83197 0.71513 0.30133 0.01200
O 	O 	0.26993 0.23597 0.60917 -0.37400
O 	O 	0.35383 0.28517 0.50407 -0.46600
O 	O 	0.56453 0.98897 0.41517 -0.41400
C 	C 	0.30953 0.05787 0.51167 0.16100
C 	C 	0.36093 0.11517 0.47687 -0.20000
H 	H 	0.39563 0.11497 0.44657 0.10100
C 	C 	0.36123 0.17207 0.48667 0.10500
H 	H 	0.39523 0.20957 0.46127 -0.01400
C 	C 	0.31013 0.17317 0.53477 -0.16300
C 	C 	0.25893 0.11697 0.57297 0.09100
H 	H 	0.22523 0.11797 0.60587 0.01100
C 	C 	0.25843 0.05877 0.56157 -0.19500
H 	H 	0.22443 0.02117 0.58697 0.08900
C 	C 	0.31073 0.23457 0.54927 0.34700
C 	C 	0.41203 0.02997 0.57937 -0.18500
H 	H 	0.40293 0.05047 0.63177 0.09600
C 	C 	0.46993 0.02947 0.58077 0.08300
H 	H 	0.49863 0.04847 0.63467 0.00800
O 	O 	0.63270 0.06340 0.94250 -0.31600
O 	O 	0.59800 0.97950 0.83740 -0.41600
O 	O 	0.09110 0.76880 0.74850 -0.44200
C 	C 	0.41500 0.02380 0.84500 0.14800
C 	C 	0.42090 0.97240 0.81020 -0.16500
H 	H 	0.38600 0.93770 0.77990 0.10200
C 	C 	0.47750 0.97210 0.82000 0.13500
H 	H 	0.48100 0.93810 0.79460 -0.00700
C 	C 	0.52970 0.02320 0.86810 -0.16500
C 	C 	0.52470 0.07440 0.90630 0.10100
H 	H 	0.55940 0.10810 0.93920 0.03200
C 	C 	0.46700 0.07490 0.89490 -0.17600
H 	H 	0.46340 0.10890 0.92030 0.11900
C 	C 	0.59050 0.02260 0.88260 0.32400
C 	C 	0.28460 0.92130 0.91270 -0.19800
H 	H 	0.31420 0.93040 0.96510 0.14600
C 	C 	0.22620 0.86340 0.91410 0.10600
H 	H 	0.21650 0.83470 0.96800 0.03700
O 	O 	0.29937 0.39673 0.27583 -0.37400
O 	O 	0.26467 0.31283 0.17073 -0.47100
O 	O 	0.75777 0.10213 0.08183 -0.47500
C 	C 	0.08167 0.35713 0.17833 0.15000
C 	C 	0.08757 0.30573 0.14353 -0.21200
H 	H 	0.05267 0.27103 0.11323 0.07800
C 	C 	0.14417 0.30543 0.15333 0.09400
H 	H 	0.14767 0.27143 0.12793 -0.03000
C 	C 	0.19637 0.35653 0.20143 -0.17100
C 	C 	0.19137 0.40773 0.23963 0.08700
H 	H 	0.22607 0.44143 0.27253 0.01100
C 	C 	0.13367 0.40823 0.22823 -0.19400
H 	H 	0.13007 0.44223 0.25363 0.09700
C 	C 	0.25717 0.35593 0.21593 0.34400
C 	C 	0.95127 0.25463 0.24603 -0.20800
H 	H 	0.98087 0.26373 0.29843 0.11800
C 	C 	0.89287 0.19673 0.24743 0.09800
H 	H 	0.88317 0.16803 0.30133 0.00400
O 	O 	0.96603 0.73007 0.60917 -0.35700
O 	O 	0.93133 0.64617 0.50407 -0.45900
O 	O 	0.42443 0.43547 0.41517 -0.44900
C 	C 	0.74833 0.69047 0.51167 0.16600
C 	C 	0.75423 0.63907 0.47687 -0.20100
H 	H 	0.71933 0.60437 0.44657 0.10200
C 	C 	0.81083 0.63877 0.48667 0.10500
H 	H 	0.81433 0.60477 0.46127 -0.01400
C 	C 	0.86303 0.68987 0.53477 -0.15900
C 	C 	0.85803 0.74107 0.57297 0.09300
H 	H 	0.89273 0.77477 0.60587 0.02100
C 	C 	0.80033 0.74157 0.56157 -0.19100
H 	H 	0.79673 0.77557 0.58697 0.10200
C 	C 	0.92383 0.68927 0.54927 0.34600
C 	C 	0.61793 0.58797 0.57937 -0.19100
H 	H 	0.64753 0.59707 0.63177 0.10100
C 	C 	0.55953 0.53007 0.58077 0.08700
H 	H 	0.54983 0.50137 0.63467 0.01000
O 	O 	0.43070 0.36730 0.94250 -0.32000
O 	O 	0.38150 0.40200 0.83740 -0.44100
O 	O 	0.67770 0.90890 0.74850 -0.43300
C 	C 	0.60880 0.58500 0.84500 0.17900
C 	C 	0.55150 0.57910 0.81020 -0.19600
H 	H 	0.55170 0.61400 0.77990 0.10800
C 	C 	0.49460 0.52250 0.82000 0.11300
H 	H 	0.45710 0.51900 0.79460 -0.00400
C 	C 	0.49350 0.47030 0.86810 -0.14500
C 	C 	0.54970 0.47530 0.90630 0.10300
H 	H 	0.54870 0.44060 0.93920 0.03200
C 	C 	0.60790 0.53300 0.89490 -0.18200
H 	H 	0.64550 0.53660 0.92030 0.12100
C 	C 	0.43210 0.40950 0.88260 0.35000
C 	C 	0.63670 0.71540 0.91270 -0.18100
H 	H 	0.61620 0.68580 0.96510 0.13700
C 	C 	0.63720 0.77380 0.91410 0.09300
H 	H 	0.61820 0.78350 0.96800 0.04300
O 	O 	0.09737 0.70063 0.27583 -0.38000
O 	O 	0.04817 0.73533 0.17073 -0.47700
O 	O 	0.34437 0.24223 0.08183 -0.47400
C 	C 	0.27547 0.91833 0.17833 0.16000
C 	C 	0.21817 0.91243 0.14353 -0.21400
H 	H 	0.21837 0.94733 0.11323 0.09500
C 	C 	0.16127 0.85583 0.15333 0.10000
H 	H 	0.12377 0.85233 0.12793 -0.02800
C 	C 	0.16017 0.80363 0.20143 -0.17300
C 	C 	0.21637 0.80863 0.23963 0.09100
H 	H 	0.21537 0.77393 0.27253 0.00900
C 	C 	0.27457 0.86633 0.22823 -0.19800
H 	H 	0.31217 0.86993 0.25363 0.09800
C 	C 	0.09877 0.74283 0.21593 0.34700
C 	C 	0.30337 0.04873 0.24603 -0.17500
H 	H 	0.28287 0.01913 0.29843 0.08600
C 	C 	0.30387 0.10713 0.24743 0.06800
H 	H 	0.28487 0.11683 0.30133 0.01100
O 	O 	0.76403 0.03397 0.60917 -0.38600
O 	O 	0.71483 0.06867 0.50407 -0.47400
O 	O 	0.01103 0.57557 0.41517 -0.45400
C 	C 	0.94213 0.25167 0.51167 0.19700
C 	C 	0.88483 0.24577 0.47687 -0.22100
H 	H 	0.88503 0.28067 0.44657 0.11200
C 	C 	0.82793 0.18917 0.48667 0.12100
H 	H 	0.79043 0.18567 0.46127 -0.01900
C 	C 	0.82683 0.13697 0.53477 -0.17400
C 	C 	0.88303 0.14197 0.57297 0.10800
H 	H 	0.88203 0.10727 0.60587 0.01000
C 	C 	0.94123 0.19967 0.56157 -0.20900
H 	H 	0.97883 0.20327 0.58697 0.11400
C 	C 	0.76543 0.07617 0.54927 0.35100
C 	C 	0.97003 0.38207 0.57937 -0.16100
H 	H 	0.94953 0.35247 0.63177 0.09600
C 	C 	0.97053 0.44047 0.58077 0.10800
H 	H 	0.95153 0.45017 0.63467 0.00800
La	La	0.66667 0.01888 0.33333 1.61000
La	La	0.98112 0.64778 0.33333 1.66800
La	La	0.35222 0.33333 0.33333 1.64100
La	La	0.01888 0.66667 0.66667 1.61900
La	La	0.68555 0.00000 -0.00000 1.50000
La	La	0.64778 0.98112 0.66667 1.67600
La	La	0.31445 0.31445 -0.00000 1.52800
La	La	0.33333 0.35222 0.66667 1.64600
La	La	0.00000 0.68555 -0.00000 1.50700
N 	N 	0.33333 0.97572 0.16667 -0.18400
C 	C 	0.33333 0.03492 0.16667 0.11700
C 	C 	0.33333 0.15002 0.16667 -0.16600
C 	C 	0.33333 0.21322 0.16667 0.38400
N 	N 	0.00000 0.30905 0.50000 -0.20300
C 	C 	-0.00000 0.36825 0.50000 0.13100
C 	C 	0.00000 0.48335 0.50000 -0.18200
C 	C 	0.00000 0.54655 0.50000 0.36200
N 	N 	0.02428 0.35762 0.16667 -0.20400
C 	C 	0.96508 0.29842 0.16667 0.18100
C 	C 	0.84998 0.18332 0.16667 -0.18300
C 	C 	0.78678 0.12012 0.16667 0.39000
N 	N 	0.69095 0.69095 0.50000 -0.19200
C 	C 	0.63175 0.63175 0.50000 0.16100
C 	C 	0.51665 0.51665 0.50000 -0.16300
C 	C 	0.45345 0.45345 0.50000 0.38900
N 	N 	0.64238 0.66667 0.16667 -0.19500
C 	C 	0.70158 0.66667 0.16667 0.15000
C 	C 	0.81668 0.66667 0.16667 -0.17100
C 	C 	0.87988 0.66667 0.16667 0.38700
N 	N 	0.30905 0.00000 0.50000 -0.20400
C 	C 	0.36825 0.00000 0.50000 0.12700
C 	C 	0.48335 0.00000 0.50000 -0.18500
C 	C 	0.54655 0.00000 0.50000 0.35900
N 	N 	0.97572 0.33333 0.83333 -0.18000
C 	C 	0.03492 0.33333 0.83333 0.14300
C 	C 	0.15002 0.33333 0.83333 -0.14000
C 	C 	0.21322 0.33333 0.83333 0.37900
N 	N 	0.35762 0.02428 0.83333 -0.19900
C 	C 	0.29842 0.96508 0.83333 0.20200
C 	C 	0.18332 0.84998 0.83333 -0.15500
C 	C 	0.12012 0.78678 0.83333 0.38500
N 	N 	0.66667 0.64238 0.83333 -0.18900
C 	C 	0.66667 0.70158 0.83333 0.17000
C 	C 	0.66667 0.81668 0.83333 -0.14300
C 	C 	0.66667 0.87988 0.83333 0.38100
