data_crystal

_cell_length_a 24.23720
_cell_length_b 24.23720
_cell_length_c 13.21350
_cell_angle_alpha 90.00000
_cell_angle_beta  90.00000
_cell_angle_gamma 120.00000

_symmetry_space_group_name_	'P 1'
_symmetry_space_group_name_H-M	'P 1'

loop_
_symmetry_equiv_pos_as_xyz
  x,y,z

loop_
_atom_site_label
_atom_site_type_symbol
_atom_site_fract_x
_atom_site_fract_y
_atom_site_fract_z
_atom_site_charge
O 	O 	0.76530 0.03760 0.10810 -0.40700
O 	O 	0.71660 0.06980 0.99880 -0.46400
O 	O 	0.99400 0.56900 0.08380 -0.42800
C 	C 	0.94070 0.25270 0.01290 0.20400
C 	C 	0.88460 0.24680 0.97440 -0.22700
H 	H 	0.88520 0.28120 0.94190 0.11700
C 	C 	0.82770 0.18960 0.98430 0.13500
H 	H 	0.79020 0.18560 0.95850 -0.01800
C 	C 	0.82680 0.13830 0.03290 -0.19200
C 	C 	0.88290 0.14420 0.07140 0.13000
H 	H 	0.88230 0.10990 0.10390 -0.00100
C 	C 	0.93980 0.20140 0.06150 -0.22800
H 	H 	0.97730 0.20540 0.08730 0.12000
C 	C 	0.76700 0.07710 0.04610 0.36300
C 	C 	0.97210 0.38560 0.07730 -0.23700
H 	H 	0.95290 0.35690 0.13010 0.12300
C 	C 	0.97250 0.44170 0.07700 0.20400
H 	H 	0.95360 0.45140 0.13020 -0.02400
O 	O 	0.43197 0.37093 0.44143 -0.39200
O 	O 	0.38327 0.40313 0.33213 -0.45800
O 	O 	0.66067 0.90233 0.41713 -0.45800
C 	C 	0.60737 0.58603 0.34623 0.17200
C 	C 	0.55127 0.58013 0.30773 -0.20900
H 	H 	0.55187 0.61453 0.27523 0.10500
C 	C 	0.49437 0.52293 0.31763 0.11600
H 	H 	0.45687 0.51893 0.29183 -0.01300
C 	C 	0.49347 0.47163 0.36623 -0.17700
C 	C 	0.54957 0.47753 0.40473 0.11200
H 	H 	0.54897 0.44323 0.43723 0.00600
C 	C 	0.60647 0.53473 0.39483 -0.20800
H 	H 	0.64397 0.53873 0.42063 0.10300
C 	C 	0.43367 0.41043 0.37943 0.36100
C 	C 	0.63877 0.71893 0.41063 -0.28000
H 	H 	0.61957 0.69023 0.46343 0.13200
C 	C 	0.63917 0.77503 0.41033 0.18000
H 	H 	0.62027 0.78473 0.46353 -0.02200
O 	O 	0.09863 0.70427 0.77477 -0.39800
O 	O 	0.04993 0.73647 0.66547 -0.46700
O 	O 	0.32733 0.23567 0.75047 -0.46800
C 	C 	0.27403 0.91937 0.67957 0.17800
C 	C 	0.21793 0.91347 0.64107 -0.21100
H 	H 	0.21853 0.94787 0.60857 0.11300
C 	C 	0.16103 0.85627 0.65097 0.12100
H 	H 	0.12353 0.85227 0.62517 -0.01400
C 	C 	0.16013 0.80497 0.69957 -0.17900
C 	C 	0.21623 0.81087 0.73807 0.11600
H 	H 	0.21563 0.77657 0.77057 0.00600
C 	C 	0.27313 0.86807 0.72817 -0.21100
H 	H 	0.31063 0.87207 0.75397 0.10500
C 	C 	0.10033 0.74377 0.71277 0.36300
C 	C 	0.30543 0.05227 0.74397 -0.25600
H 	H 	0.28623 0.02357 0.79677 0.11400
C 	C 	0.30583 0.10837 0.74367 0.15800
H 	H 	0.28693 0.11807 0.79687 -0.01800
O 	O 	0.96240 0.72770 0.10810 -0.37500
O 	O 	0.93020 0.64680 0.99880 -0.44600
O 	O 	0.43100 0.42500 0.08380 -0.46800
C 	C 	0.74730 0.68800 0.01290 0.16400
C 	C 	0.75320 0.63780 0.97440 -0.20000
H 	H 	0.71880 0.60400 0.94190 0.10400
C 	C 	0.81040 0.63810 0.98430 0.11700
H 	H 	0.81440 0.60460 0.95850 -0.01200
C 	C 	0.86170 0.68850 0.03290 -0.17600
C 	C 	0.85580 0.73870 0.07140 0.10900
H 	H 	0.89010 0.77240 0.10390 0.01300
C 	C 	0.79860 0.73840 0.06150 -0.20300
H 	H 	0.79460 0.77190 0.08730 0.10300
C 	C 	0.92290 0.68990 0.04610 0.35500
C 	C 	0.61440 0.58650 0.07730 -0.28000
H 	H 	0.64310 0.59600 0.13010 0.13200
C 	C 	0.55830 0.53080 0.07700 0.18100
H 	H 	0.54860 0.50220 0.13020 -0.02300
O 	O 	0.62907 0.06103 0.44143 -0.38900
O 	O 	0.59687 0.98013 0.33213 -0.43200
O 	O 	0.09767 0.75833 0.41713 -0.47000
C 	C 	0.41397 0.02133 0.34623 0.13900
C 	C 	0.41987 0.97113 0.30773 -0.17600
H 	H 	0.38547 0.93733 0.27523 0.09900
C 	C 	0.47707 0.97143 0.31763 0.14000
H 	H 	0.48107 0.93793 0.29183 -0.01600
C 	C 	0.52837 0.02183 0.36623 -0.19900
C 	C 	0.52247 0.07203 0.40473 0.11000
H 	H 	0.55677 0.10573 0.43723 0.00600
C 	C 	0.46527 0.07173 0.39483 -0.20000
H 	H 	0.46127 0.10523 0.42063 0.10000
C 	C 	0.58957 0.02323 0.37943 0.33500
C 	C 	0.28107 0.91983 0.41063 -0.30900
H 	H 	0.30977 0.92933 0.46343 0.14700
C 	C 	0.22497 0.86413 0.41033 0.20600
H 	H 	0.21527 0.83553 0.46353 -0.03100
O 	O 	0.29573 0.39437 0.77477 -0.39100
O 	O 	0.26353 0.31347 0.66547 -0.46000
O 	O 	0.76433 0.09167 0.75047 -0.47200
C 	C 	0.08063 0.35467 0.67957 0.16700
C 	C 	0.08653 0.30447 0.64107 -0.20800
H 	H 	0.05213 0.27067 0.60857 0.09600
C 	C 	0.14373 0.30477 0.65097 0.11400
H 	H 	0.14773 0.27127 0.62517 -0.01500
C 	C 	0.19503 0.35517 0.69957 -0.17600
C 	C 	0.18913 0.40537 0.73807 0.11000
H 	H 	0.22343 0.43907 0.77057 0.00800
C 	C 	0.13193 0.40507 0.72817 -0.20500
H 	H 	0.12793 0.43857 0.75397 0.10300
C 	C 	0.25623 0.35657 0.71277 0.36000
C 	C 	0.94773 0.25317 0.74397 -0.31000
H 	H 	0.97643 0.26267 0.79677 0.15300
C 	C 	0.89163 0.19747 0.74367 0.20800
H 	H 	0.88193 0.16887 0.79687 -0.03100
O 	O 	0.27230 0.23470 0.10810 -0.39400
O 	O 	0.35320 0.28340 0.99880 -0.45300
O 	O 	0.57500 0.00600 0.08380 -0.47400
C 	C 	0.31200 0.05930 0.01290 0.16000
C 	C 	0.36220 0.11540 0.97440 -0.20100
H 	H 	0.39600 0.11480 0.94190 0.10300
C 	C 	0.36190 0.17230 0.98430 0.11800
H 	H 	0.39540 0.20980 0.95850 -0.01200
C 	C 	0.31150 0.17320 0.03290 -0.18000
C 	C 	0.26130 0.11710 0.07140 0.10800
H 	H 	0.22760 0.11770 0.10390 0.00200
C 	C 	0.26160 0.06020 0.06150 -0.20800
H 	H 	0.22810 0.02270 0.08730 0.09000
C 	C 	0.31010 0.23300 0.04610 0.35500
C 	C 	0.41350 0.02790 0.07730 -0.26900
H 	H 	0.40400 0.04710 0.13010 0.12500
C 	C 	0.46920 0.02750 0.07700 0.17500
H 	H 	0.49780 0.04640 0.13020 -0.02400
O 	O 	0.93897 0.56803 0.44143 -0.38900
O 	O 	0.01987 0.61673 0.33213 -0.48200
O 	O 	0.24167 0.33933 0.41713 -0.46800
C 	C 	0.97867 0.39263 0.34623 0.20800
C 	C 	0.02887 0.44873 0.30773 -0.24400
H 	H 	0.06267 0.44813 0.27523 0.11300
C 	C 	0.02857 0.50563 0.31763 0.09100
H 	H 	0.06207 0.54313 0.29183 -0.00900
C 	C 	0.97817 0.50653 0.36623 -0.15200
C 	C 	0.92797 0.45043 0.40473 0.11400
H 	H 	0.89427 0.45103 0.43723 0.00600
C 	C 	0.92827 0.39353 0.39483 -0.21700
H 	H 	0.89477 0.35603 0.42063 0.10600
C 	C 	0.97677 0.56633 0.37943 0.38800
C 	C 	0.08017 0.36123 0.41063 -0.25700
H 	H 	0.07067 0.38043 0.46343 0.11900
C 	C 	0.13587 0.36083 0.41033 0.16000
H 	H 	0.16447 0.37973 0.46353 -0.01600
O 	O 	0.60563 0.90137 0.77477 -0.38300
O 	O 	0.68653 0.95007 0.66547 -0.44000
O 	O 	0.90833 0.67267 0.75047 -0.46300
C 	C 	0.64533 0.72597 0.67957 0.17000
C 	C 	0.69553 0.78207 0.64107 -0.20500
H 	H 	0.72933 0.78147 0.60857 0.10700
C 	C 	0.69523 0.83897 0.65097 0.11300
H 	H 	0.72873 0.87647 0.62517 -0.00600
C 	C 	0.64483 0.83987 0.69957 -0.17100
C 	C 	0.59463 0.78377 0.73807 0.10900
H 	H 	0.56093 0.78437 0.77057 0.00800
C 	C 	0.59493 0.72687 0.72817 -0.20500
H 	H 	0.56143 0.68937 0.75397 0.10300
C 	C 	0.64343 0.89967 0.71277 0.35700
C 	C 	0.74683 0.69457 0.74397 -0.27900
H 	H 	0.73733 0.71377 0.79677 0.13300
C 	C 	0.80253 0.69417 0.74367 0.18000
H 	H 	0.83113 0.71307 0.79687 -0.01900
O 	O 	0.03760 0.76530 0.89190 -0.40600
O 	O 	0.06980 0.71660 0.00120 -0.47500
O 	O 	0.56900 0.99400 0.91620 -0.42700
C 	C 	0.25270 0.94070 0.98710 0.22100
C 	C 	0.24680 0.88460 0.02560 -0.24300
H 	H 	0.28120 0.88520 0.05810 0.11900
C 	C 	0.18960 0.82770 0.01570 0.12800
H 	H 	0.18560 0.79020 0.04150 -0.01800
C 	C 	0.13830 0.82680 0.96710 -0.18500
C 	C 	0.14420 0.88290 0.92860 0.13300
H 	H 	0.10990 0.88230 0.89610 -0.00000
C 	C 	0.20140 0.93980 0.93850 -0.23300
H 	H 	0.20540 0.97730 0.91270 0.12400
C 	C 	0.07710 0.76700 0.95390 0.37400
C 	C 	0.38560 0.97210 0.92270 -0.23500
H 	H 	0.35690 0.95290 0.86990 0.12300
C 	C 	0.44170 0.97250 0.92300 0.20700
H 	H 	0.45140 0.95360 0.86980 -0.02400
O 	O 	0.70427 0.09863 0.22523 -0.39900
O 	O 	0.73647 0.04993 0.33453 -0.46700
O 	O 	0.23567 0.32733 0.24953 -0.46900
C 	C 	0.91937 0.27403 0.32043 0.17800
C 	C 	0.91347 0.21793 0.35893 -0.21200
H 	H 	0.94787 0.21853 0.39143 0.11400
C 	C 	0.85627 0.16103 0.34903 0.12100
H 	H 	0.85227 0.12353 0.37483 -0.01400
C 	C 	0.80497 0.16013 0.30043 -0.18000
C 	C 	0.81087 0.21623 0.26193 0.11600
H 	H 	0.77657 0.21563 0.22943 0.00500
C 	C 	0.86807 0.27313 0.27183 -0.21100
H 	H 	0.87207 0.31063 0.24603 0.10500
C 	C 	0.74377 0.10033 0.28723 0.36400
C 	C 	0.05227 0.30543 0.25603 -0.25700
H 	H 	0.02357 0.28623 0.20323 0.11300
C 	C 	0.10837 0.30583 0.25633 0.15800
H 	H 	0.11807 0.28693 0.20313 -0.01900
O 	O 	0.37093 0.43197 0.55857 -0.39200
O 	O 	0.40313 0.38327 0.66787 -0.45800
O 	O 	0.90233 0.66067 0.58287 -0.45800
C 	C 	0.58603 0.60737 0.65377 0.17200
C 	C 	0.58013 0.55127 0.69227 -0.20900
H 	H 	0.61453 0.55187 0.72477 0.10600
C 	C 	0.52293 0.49437 0.68237 0.11600
H 	H 	0.51893 0.45687 0.70817 -0.01200
C 	C 	0.47163 0.49347 0.63377 -0.17600
C 	C 	0.47753 0.54957 0.59527 0.11200
H 	H 	0.44323 0.54897 0.56277 0.00600
C 	C 	0.53473 0.60647 0.60517 -0.20800
H 	H 	0.53873 0.64397 0.57937 0.10300
C 	C 	0.41043 0.43367 0.62057 0.36100
C 	C 	0.71893 0.63877 0.58937 -0.27900
H 	H 	0.69023 0.61957 0.53657 0.13200
C 	C 	0.77503 0.63917 0.58967 0.18000
H 	H 	0.78473 0.62027 0.53647 -0.02200
O 	O 	0.72770 0.96240 0.89190 -0.37600
O 	O 	0.64680 0.93020 0.00120 -0.45800
O 	O 	0.42500 0.43100 0.91620 -0.46300
C 	C 	0.68800 0.74730 0.98710 0.18300
C 	C 	0.63780 0.75320 0.02560 -0.21700
H 	H 	0.60400 0.71880 0.05810 0.10700
C 	C 	0.63810 0.81040 0.01570 0.11000
H 	H 	0.60460 0.81440 0.04150 -0.01200
C 	C 	0.68850 0.86170 0.96710 -0.16900
C 	C 	0.73870 0.85580 0.92860 0.11300
H 	H 	0.77240 0.89010 0.89610 0.01300
C 	C 	0.73840 0.79860 0.93850 -0.20900
H 	H 	0.77190 0.79460 0.91270 0.10800
C 	C 	0.68990 0.92290 0.95390 0.36600
C 	C 	0.58650 0.61440 0.92270 -0.27400
H 	H 	0.59600 0.64310 0.86990 0.13100
C 	C 	0.53080 0.55830 0.92300 0.18600
H 	H 	0.50220 0.54860 0.86980 -0.02400
O 	O 	0.39437 0.29573 0.22523 -0.39200
O 	O 	0.31347 0.26353 0.33453 -0.46000
O 	O 	0.09167 0.76433 0.24953 -0.47300
C 	C 	0.35467 0.08063 0.32043 0.16700
C 	C 	0.30447 0.08653 0.35893 -0.20900
H 	H 	0.27067 0.05213 0.39143 0.09700
C 	C 	0.30477 0.14373 0.34903 0.11400
H 	H 	0.27127 0.14773 0.37483 -0.01500
C 	C 	0.35517 0.19503 0.30043 -0.17600
C 	C 	0.40537 0.18913 0.26193 0.11100
H 	H 	0.43907 0.22343 0.22943 0.00600
C 	C 	0.40507 0.13193 0.27183 -0.20600
H 	H 	0.43857 0.12793 0.24603 0.10200
C 	C 	0.35657 0.25623 0.28723 0.36100
C 	C 	0.25317 0.94773 0.25603 -0.31100
H 	H 	0.26267 0.97643 0.20323 0.15300
C 	C 	0.19747 0.89163 0.25633 0.20800
H 	H 	0.16887 0.88193 0.20313 -0.03300
O 	O 	0.06103 0.62907 0.55857 -0.38900
O 	O 	0.98013 0.59687 0.66787 -0.43200
O 	O 	0.75833 0.09767 0.58287 -0.47000
C 	C 	0.02133 0.41397 0.65377 0.13800
C 	C 	0.97113 0.41987 0.69227 -0.17500
H 	H 	0.93733 0.38547 0.72477 0.09900
C 	C 	0.97143 0.47707 0.68237 0.14100
H 	H 	0.93793 0.48107 0.70817 -0.01600
C 	C 	0.02183 0.52837 0.63377 -0.19900
C 	C 	0.07203 0.52247 0.59527 0.11000
H 	H 	0.10573 0.55677 0.56277 0.00600
C 	C 	0.07173 0.46527 0.60517 -0.20000
H 	H 	0.10523 0.46127 0.57937 0.10000
C 	C 	0.02323 0.58957 0.62057 0.33500
C 	C 	0.91983 0.28107 0.58937 -0.30900
H 	H 	0.92933 0.30977 0.53657 0.14700
C 	C 	0.86413 0.22497 0.58967 0.20600
H 	H 	0.83553 0.21527 0.53647 -0.03100
O 	O 	0.23470 0.27230 0.89190 -0.39500
O 	O 	0.28340 0.35320 0.00120 -0.46500
O 	O 	0.00600 0.57500 0.91620 -0.46700
C 	C 	0.05930 0.31200 0.98710 0.18100
C 	C 	0.11540 0.36220 0.02560 -0.21900
H 	H 	0.11480 0.39600 0.05810 0.10700
C 	C 	0.17230 0.36190 0.01570 0.11200
H 	H 	0.20980 0.39540 0.04150 -0.01300
C 	C 	0.17320 0.31150 0.96710 -0.17400
C 	C 	0.11710 0.26130 0.92860 0.11300
H 	H 	0.11770 0.22760 0.89610 0.00200
C 	C 	0.06020 0.26160 0.93850 -0.21500
H 	H 	0.02270 0.22810 0.91270 0.09500
C 	C 	0.23300 0.31010 0.95390 0.36700
C 	C 	0.02790 0.41350 0.92270 -0.26100
H 	H 	0.04710 0.40400 0.86990 0.12300
C 	C 	0.02750 0.46920 0.92300 0.18200
H 	H 	0.04640 0.49780 0.86980 -0.02500
O 	O 	0.90137 0.60563 0.22523 -0.38400
O 	O 	0.95007 0.68653 0.33453 -0.44000
O 	O 	0.67267 0.90833 0.24953 -0.46400
C 	C 	0.72597 0.64533 0.32043 0.17000
C 	C 	0.78207 0.69553 0.35893 -0.20600
H 	H 	0.78147 0.72933 0.39143 0.10700
C 	C 	0.83897 0.69523 0.34903 0.11300
H 	H 	0.87647 0.72873 0.37483 -0.00600
C 	C 	0.83987 0.64483 0.30043 -0.17200
C 	C 	0.78377 0.59463 0.26193 0.10900
H 	H 	0.78437 0.56093 0.22943 0.00700
C 	C 	0.72687 0.59493 0.27183 -0.20600
H 	H 	0.68937 0.56143 0.24603 0.10200
C 	C 	0.89967 0.64343 0.28723 0.35700
C 	C 	0.69457 0.74683 0.25603 -0.27900
H 	H 	0.71377 0.73733 0.20323 0.13200
C 	C 	0.69417 0.80253 0.25633 0.18100
H 	H 	0.71307 0.83113 0.20313 -0.02100
O 	O 	0.56803 0.93897 0.55857 -0.38900
O 	O 	0.61673 0.01987 0.66787 -0.48200
O 	O 	0.33933 0.24167 0.58287 -0.46800
C 	C 	0.39263 0.97867 0.65377 0.20700
C 	C 	0.44873 0.02887 0.69227 -0.24300
H 	H 	0.44813 0.06267 0.72477 0.11300
C 	C 	0.50563 0.02857 0.68237 0.09200
H 	H 	0.54313 0.06207 0.70817 -0.00800
C 	C 	0.50653 0.97817 0.63377 -0.15200
C 	C 	0.45043 0.92797 0.59527 0.11400
H 	H 	0.45103 0.89427 0.56277 0.00600
C 	C 	0.39353 0.92827 0.60517 -0.21600
H 	H 	0.35603 0.89477 0.57937 0.10600
C 	C 	0.56633 0.97677 0.62057 0.38700
C 	C 	0.36123 0.08017 0.58937 -0.25700
H 	H 	0.38043 0.07067 0.53657 0.11900
C 	C 	0.36083 0.13587 0.58967 0.16000
H 	H 	0.37973 0.16447 0.53647 -0.01600
La	La	0.65071 0.98404 0.16667 1.68300
La	La	0.31738 0.31738 0.50000 1.65300
La	La	0.01596 0.66667 0.16667 1.62000
La	La	0.68262 0.00000 0.50000 1.62400
La	La	0.33333 0.34929 0.16667 1.65200
La	La	-0.00000 0.68262 0.50000 1.62400
La	La	0.98404 0.65071 0.83333 1.68600
La	La	0.66667 0.01596 0.83333 1.62300
La	La	0.34929 0.33333 0.83333 1.65500
N 	N 	-0.00000 0.31080 -0.00000 -0.21300
C 	C 	0.00000 0.37150 -0.00000 0.17300
C 	C 	-0.00000 0.48410 -0.00000 -0.26500
C 	C 	0.00000 0.54840 -0.00000 0.39300
N 	N 	0.66667 0.64413 0.33333 -0.19700
C 	C 	0.66667 0.70483 0.33333 0.22400
C 	C 	0.66667 0.81743 0.33333 -0.23400
C 	C 	0.66667 0.88173 0.33333 0.43400
N 	N 	0.33333 0.97747 0.66667 -0.18700
C 	C 	0.33333 0.03817 0.66667 0.18500
C 	C 	0.33333 0.15077 0.66667 -0.22300
C 	C 	0.33333 0.21507 0.66667 0.42800
N 	N 	0.68920 0.68920 -0.00000 -0.20000
C 	C 	0.62850 0.62850 -0.00000 0.21600
C 	C 	0.51590 0.51590 -0.00000 -0.24200
C 	C 	0.45160 0.45160 -0.00000 0.42800
N 	N 	0.35587 0.02253 0.33333 -0.20800
C 	C 	0.29517 0.96183 0.33333 0.26500
C 	C 	0.18257 0.84923 0.33333 -0.25500
C 	C 	0.11827 0.78493 0.33333 0.43900
N 	N 	0.02253 0.35587 0.66667 -0.20800
C 	C 	0.96183 0.29517 0.66667 0.26500
C 	C 	0.84923 0.18257 0.66667 -0.25400
C 	C 	0.78493 0.11827 0.66667 0.43900
N 	N 	0.31080 0.00000 -0.00000 -0.21200
C 	C 	0.37150 0.00000 -0.00000 0.17800
C 	C 	0.48410 0.00000 -0.00000 -0.26100
C 	C 	0.54840 0.00000 -0.00000 0.39800
N 	N 	0.97747 0.33333 0.33333 -0.18600
C 	C 	0.03817 0.33333 0.33333 0.18500
C 	C 	0.15077 0.33333 0.33333 -0.22300
C 	C 	0.21507 0.33333 0.33333 0.42800
N 	N 	0.64413 0.66667 0.66667 -0.19700
C 	C 	0.70483 0.66667 0.66667 0.22300
C 	C 	0.81743 0.66667 0.66667 -0.23300
C 	C 	0.88173 0.66667 0.66667 0.43400
