data_crystal

_cell_length_a 24.17190
_cell_length_b 24.17190
_cell_length_c 13.01100
_cell_angle_alpha 90.00000
_cell_angle_beta  90.00000
_cell_angle_gamma 120.00000

_symmetry_space_group_name_	'P 1'
_symmetry_space_group_name_H-M	'P 1'

loop_
_symmetry_equiv_pos_as_xyz
  x,y,z

loop_
_atom_site_label
_atom_site_type_symbol
_atom_site_fract_x
_atom_site_fract_y
_atom_site_fract_z
_atom_site_charge
O 	O 	0.56910 0.93810 0.05780 -0.42600
O 	O 	0.61780 0.01960 0.16360 -0.50200
O 	O 	0.32190 0.23200 0.24900 -0.46300
C 	C 	0.39160 0.97680 0.15380 0.21000
C 	C 	0.44790 0.02760 0.19170 -0.26000
H 	H 	0.44730 0.06150 0.22430 0.11500
C 	C 	0.50510 0.02770 0.18080 0.09300
H 	H 	0.54280 0.06170 0.20620 -0.02100
C 	C 	0.50610 0.97700 0.13210 -0.17300
C 	C 	0.44980 0.92620 0.09420 0.11300
H 	H 	0.45040 0.89230 0.06160 -0.01500
C 	C 	0.39253 0.92610 0.10510 -0.23400
H 	H 	0.35490 0.89210 0.07970 0.08600
C 	C 	0.56690 0.97470 0.12000 0.40700
C 	C 	0.36600 0.08130 0.09070 -0.20400
H 	H 	0.38900 0.07420 0.04030 0.06400
C 	C 	0.36450 0.13750 0.08950 0.09900
H 	H 	0.38460 0.16650 0.03650 -0.02900
O 	O 	0.23577 0.27143 0.39113 -0.40000
O 	O 	0.28447 0.35293 0.49693 -0.46800
O 	O 	0.98857 0.56533 0.58233 -0.43000
C 	C 	0.05827 0.31013 0.48713 0.17900
C 	C 	0.11457 0.36093 0.52503 -0.21700
H 	H 	0.11397 0.39483 0.55763 0.10900
C 	C 	0.17177 0.36103 0.51413 0.12100
H 	H 	0.20947 0.39503 0.53953 -0.01500
C 	C 	0.17277 0.31033 0.46543 -0.18000
C 	C 	0.11647 0.25953 0.42753 0.11600
H 	H 	0.11707 0.22563 0.39493 -0.00200
C 	C 	0.05920 0.25943 0.43843 -0.21700
H 	H 	0.02157 0.22543 0.41303 0.09400
C 	C 	0.23357 0.30803 0.45333 0.37900
C 	C 	0.03267 0.41463 0.42403 -0.21000
H 	H 	0.05567 0.40753 0.37363 0.10600
C 	C 	0.03117 0.47083 0.42283 0.12100
H 	H 	0.05127 0.49983 0.36983 -0.00500
O 	O 	0.90243 0.60477 0.72447 -0.38700
O 	O 	0.95113 0.68627 0.83027 -0.42200
O 	O 	0.65523 0.89867 0.91567 -0.39500
C 	C 	0.72493 0.64347 0.82047 0.19300
C 	C 	0.78123 0.69427 0.85837 -0.20400
H 	H 	0.78063 0.72817 0.89097 0.12900
C 	C 	0.83843 0.69437 0.84747 0.12700
H 	H 	0.87613 0.72837 0.87287 0.00800
C 	C 	0.83943 0.64367 0.79877 -0.16200
C 	C 	0.78313 0.59287 0.76087 0.11700
H 	H 	0.78373 0.55897 0.72827 0.00800
C 	C 	0.72586 0.59277 0.77177 -0.20900
H 	H 	0.68823 0.55877 0.74637 0.10500
C 	C 	0.90023 0.64137 0.78667 0.37400
C 	C 	0.69933 0.74797 0.75737 -0.20700
H 	H 	0.72233 0.74087 0.70697 0.10800
C 	C 	0.69783 0.80417 0.75617 0.12100
H 	H 	0.71793 0.83317 0.70317 0.00400
O 	O 	0.06190 0.63100 0.05780 -0.42600
O 	O 	0.98040 0.59820 0.16360 -0.45500
O 	O 	0.76800 0.08990 0.24900 -0.46800
C 	C 	0.02320 0.41480 0.15380 0.14200
C 	C 	0.97240 0.42030 0.19170 -0.19500
H 	H 	0.93850 0.38580 0.22430 0.10000
C 	C 	0.97230 0.47740 0.18080 0.13900
H 	H 	0.93830 0.48110 0.20620 -0.02900
C 	C 	0.02300 0.52910 0.13210 -0.22000
C 	C 	0.07380 0.52360 0.09420 0.10800
H 	H 	0.10770 0.55810 0.06160 -0.01600
C 	C 	0.07390 0.46643 0.10510 -0.22000
H 	H 	0.10790 0.46280 0.07970 0.08000
C 	C 	0.02530 0.59220 0.12000 0.35500
C 	C 	0.91870 0.28470 0.09070 -0.23600
H 	H 	0.92580 0.31480 0.04030 0.08400
C 	C 	0.86250 0.22700 0.08950 0.12800
H 	H 	0.83350 0.21810 0.03650 -0.03800
O 	O 	0.72857 0.96433 0.39113 -0.38100
O 	O 	0.64707 0.93153 0.49693 -0.46000
O 	O 	0.43467 0.42323 0.58233 -0.46100
C 	C 	0.68987 0.74813 0.48713 0.18300
C 	C 	0.63907 0.75363 0.52503 -0.21700
H 	H 	0.60517 0.71913 0.55763 0.11000
C 	C 	0.63897 0.81073 0.51413 0.12000
H 	H 	0.60497 0.81443 0.53953 -0.01500
C 	C 	0.68967 0.86243 0.46543 -0.17600
C 	C 	0.74047 0.85693 0.42753 0.11600
H 	H 	0.77437 0.89143 0.39493 0.00800
C 	C 	0.74057 0.79976 0.43843 -0.21300
H 	H 	0.77457 0.79613 0.41303 0.10600
C 	C 	0.69197 0.92553 0.45333 0.37800
C 	C 	0.58537 0.61803 0.42403 -0.21400
H 	H 	0.59247 0.64813 0.37363 0.11000
C 	C 	0.52917 0.56033 0.42283 0.12400
H 	H 	0.50017 0.55143 0.36983 -0.00300
O 	O 	0.39523 0.29767 0.72447 -0.39400
O 	O 	0.31373 0.26487 0.83027 -0.43800
O 	O 	0.10133 0.75657 0.91567 -0.40600
C 	C 	0.35653 0.08147 0.82047 0.19000
C 	C 	0.30573 0.08697 0.85837 -0.20600
H 	H 	0.27183 0.05247 0.89097 0.12000
C 	C 	0.30563 0.14407 0.84747 0.12800
H 	H 	0.27163 0.14777 0.87287 0.00100
C 	C 	0.35633 0.19577 0.79877 -0.16500
C 	C 	0.40713 0.19027 0.76087 0.11800
H 	H 	0.44103 0.22477 0.72827 0.00800
C 	C 	0.40723 0.13310 0.77177 -0.20900
H 	H 	0.44123 0.12947 0.74637 0.10500
C 	C 	0.35863 0.25887 0.78667 0.37800
C 	C 	0.25203 0.95137 0.75737 -0.22700
H 	H 	0.25913 0.98147 0.70697 0.12500
C 	C 	0.19583 0.89367 0.75617 0.13800
H 	H 	0.16683 0.88477 0.70317 -0.00400
O 	O 	0.36900 0.43090 0.05780 -0.43000
O 	O 	0.40180 0.38220 0.16360 -0.47900
O 	O 	0.91010 0.67810 0.24900 -0.45800
C 	C 	0.58520 0.60840 0.15380 0.17200
C 	C 	0.57970 0.55210 0.19170 -0.22500
H 	H 	0.61420 0.55270 0.22430 0.10600
C 	C 	0.52260 0.49490 0.18080 0.11800
H 	H 	0.51890 0.45720 0.20620 -0.02700
C 	C 	0.47090 0.49390 0.13210 -0.20000
C 	C 	0.47640 0.55020 0.09420 0.11000
H 	H 	0.44190 0.54960 0.06160 -0.01700
C 	C 	0.53357 0.60747 0.10510 -0.22700
H 	H 	0.53720 0.64510 0.07970 0.08300
C 	C 	0.40780 0.43310 0.12000 0.37900
C 	C 	0.71530 0.63400 0.09070 -0.21800
H 	H 	0.68520 0.61100 0.04030 0.07400
C 	C 	0.77300 0.63550 0.08950 0.11300
H 	H 	0.78190 0.61540 0.03650 -0.03200
O 	O 	0.03567 0.76423 0.39113 -0.41100
O 	O 	0.06847 0.71553 0.49693 -0.47600
O 	O 	0.57677 0.01143 0.58233 -0.46600
C 	C 	0.25187 0.94173 0.48713 0.21900
C 	C 	0.24637 0.88543 0.52503 -0.24000
H 	H 	0.28087 0.88603 0.55763 0.12200
C 	C 	0.18927 0.82823 0.51413 0.13900
H 	H 	0.18557 0.79053 0.53953 -0.02100
C 	C 	0.13757 0.82723 0.46543 -0.19300
C 	C 	0.14307 0.88353 0.42753 0.13600
H 	H 	0.10857 0.88293 0.39493 -0.00500
C 	C 	0.20024 0.94080 0.43843 -0.23600
H 	H 	0.20387 0.97843 0.41303 0.12200
C 	C 	0.07447 0.76643 0.45333 0.38400
C 	C 	0.38197 0.96733 0.42403 -0.18100
H 	H 	0.35187 0.94433 0.37363 0.10400
C 	C 	0.43967 0.96883 0.42283 0.14700
H 	H 	0.44857 0.94873 0.36983 -0.00500
O 	O 	0.70233 0.09757 0.72447 -0.40100
O 	O 	0.73513 0.04887 0.83027 -0.44600
O 	O 	0.24343 0.34477 0.91567 -0.40300
C 	C 	0.91853 0.27507 0.82047 0.20000
C 	C 	0.91303 0.21877 0.85837 -0.20800
H 	H 	0.94753 0.21937 0.89097 0.13500
C 	C 	0.85593 0.16157 0.84747 0.13400
H 	H 	0.85223 0.12387 0.87287 0.00100
C 	C 	0.80423 0.16057 0.79877 -0.16900
C 	C 	0.80973 0.21687 0.76087 0.12300
H 	H 	0.77523 0.21627 0.72827 0.00600
C 	C 	0.86690 0.27414 0.77177 -0.21400
H 	H 	0.87053 0.31177 0.74637 0.10700
C 	C 	0.74113 0.09977 0.78667 0.38100
C 	C 	0.04863 0.30067 0.75737 -0.19500
H 	H 	0.01853 0.27767 0.70697 0.09400
C 	C 	0.10633 0.30217 0.75617 0.10800
H 	H 	0.11523 0.28207 0.70317 0.00200
O 	O 	0.93810 0.56910 0.94220 -0.33800
O 	O 	0.01960 0.61780 0.83640 -0.46300
O 	O 	0.23200 0.32190 0.75100 -0.45000
C 	C 	0.97680 0.39160 0.84620 0.22500
C 	C 	0.02760 0.44790 0.80830 -0.24000
H 	H 	0.06150 0.44730 0.77570 0.11900
C 	C 	0.02770 0.50510 0.81920 0.10400
H 	H 	0.06170 0.54280 0.79380 -0.00400
C 	C 	0.97700 0.50610 0.86790 -0.13700
C 	C 	0.92620 0.44980 0.90580 0.12300
H 	H 	0.89230 0.45040 0.93840 0.02500
C 	C 	0.92610 0.39253 0.89490 -0.21100
H 	H 	0.89210 0.35490 0.92030 0.13100
C 	C 	0.97470 0.56690 0.88000 0.39700
C 	C 	0.08130 0.36600 0.90930 -0.18900
H 	H 	0.07420 0.38900 0.95970 0.13400
C 	C 	0.13750 0.36450 0.91050 0.11600
H 	H 	0.16650 0.38460 0.96350 0.03300
O 	O 	0.60477 0.90243 0.27553 -0.38800
O 	O 	0.68627 0.95113 0.16973 -0.45300
O 	O 	0.89867 0.65523 0.08433 -0.47700
C 	C 	0.64347 0.72493 0.17953 0.17000
C 	C 	0.69427 0.78123 0.14163 -0.22300
H 	H 	0.72817 0.78063 0.10903 0.09200
C 	C 	0.69437 0.83843 0.15253 0.10700
H 	H 	0.72837 0.87613 0.12713 -0.02500
C 	C 	0.64367 0.83943 0.20123 -0.18200
C 	C 	0.59287 0.78313 0.23913 0.10700
H 	H 	0.55897 0.78373 0.27173 0.00300
C 	C 	0.59277 0.72586 0.22823 -0.21600
H 	H 	0.55877 0.68823 0.25363 0.10300
C 	C 	0.64137 0.90023 0.21333 0.36900
C 	C 	0.74797 0.69933 0.24263 -0.21200
H 	H 	0.74087 0.72233 0.29303 0.10900
C 	C 	0.80417 0.69783 0.24383 0.12000
H 	H 	0.83317 0.71793 0.29683 -0.00200
O 	O 	0.27143 0.23577 0.60887 -0.39700
O 	O 	0.35293 0.28447 0.50307 -0.46900
O 	O 	0.56533 0.98857 0.41767 -0.42500
C 	C 	0.31013 0.05827 0.51287 0.17800
C 	C 	0.36093 0.11457 0.47497 -0.21600
H 	H 	0.39483 0.11397 0.44237 0.10600
C 	C 	0.36103 0.17177 0.48587 0.11900
H 	H 	0.39503 0.20947 0.46047 -0.01800
C 	C 	0.31033 0.17277 0.53457 -0.18000
C 	C 	0.25953 0.11647 0.57247 0.11200
H 	H 	0.22563 0.11707 0.60507 0.00300
C 	C 	0.25943 0.05920 0.56157 -0.21700
H 	H 	0.22543 0.02157 0.58697 0.09500
C 	C 	0.30803 0.23357 0.54667 0.37700
C 	C 	0.41463 0.03267 0.57597 -0.20900
H 	H 	0.40753 0.05567 0.62637 0.10400
C 	C 	0.47083 0.03117 0.57717 0.11900
H 	H 	0.49983 0.05127 0.63017 -0.00600
O 	O 	0.63100 0.06190 0.94220 -0.33600
O 	O 	0.59820 0.98040 0.83640 -0.41800
O 	O 	0.08990 0.76800 0.75100 -0.45400
C 	C 	0.41480 0.02320 0.84620 0.16300
C 	C 	0.42030 0.97240 0.80830 -0.17900
H 	H 	0.38580 0.93850 0.77570 0.10600
C 	C 	0.47740 0.97230 0.81920 0.14800
H 	H 	0.48110 0.93830 0.79380 -0.01100
C 	C 	0.52910 0.02300 0.86790 -0.17900
C 	C 	0.52360 0.07380 0.90580 0.12000
H 	H 	0.55810 0.10770 0.93840 0.02500
C 	C 	0.46643 0.07390 0.89490 -0.19600
H 	H 	0.46280 0.10790 0.92030 0.12600
C 	C 	0.59220 0.02530 0.88000 0.34800
C 	C 	0.28470 0.91870 0.90930 -0.22000
H 	H 	0.31480 0.92580 0.95970 0.15100
C 	C 	0.22700 0.86250 0.91050 0.14200
H 	H 	0.21810 0.83350 0.96350 0.02300
O 	O 	0.29767 0.39523 0.27553 -0.39600
O 	O 	0.26487 0.31373 0.16973 -0.47400
O 	O 	0.75657 0.10133 0.08433 -0.48700
C 	C 	0.08147 0.35653 0.17953 0.16700
C 	C 	0.08697 0.30573 0.14163 -0.22700
H 	H 	0.05247 0.27183 0.10903 0.08200
C 	C 	0.14407 0.30563 0.15253 0.10800
H 	H 	0.14777 0.27163 0.12713 -0.03400
C 	C 	0.19577 0.35633 0.20123 -0.18700
C 	C 	0.19027 0.40713 0.23913 0.10800
H 	H 	0.22477 0.44103 0.27173 0.00200
C 	C 	0.13310 0.40723 0.22823 -0.21600
H 	H 	0.12947 0.44123 0.25363 0.10400
C 	C 	0.25887 0.35863 0.21333 0.37300
C 	C 	0.95137 0.25203 0.24263 -0.23200
H 	H 	0.98147 0.25913 0.29303 0.12400
C 	C 	0.89367 0.19583 0.24383 0.13600
H 	H 	0.88477 0.16683 0.29683 -0.01000
O 	O 	0.96433 0.72857 0.60887 -0.38000
O 	O 	0.93153 0.64707 0.50307 -0.46200
O 	O 	0.42323 0.43467 0.41767 -0.46100
C 	C 	0.74813 0.68987 0.51287 0.18200
C 	C 	0.75363 0.63907 0.47497 -0.21700
H 	H 	0.71913 0.60517 0.44237 0.10700
C 	C 	0.81073 0.63897 0.48587 0.11900
H 	H 	0.81443 0.60497 0.46047 -0.01800
C 	C 	0.86243 0.68967 0.53457 -0.17600
C 	C 	0.85693 0.74047 0.57247 0.11400
H 	H 	0.89143 0.77437 0.60507 0.01300
C 	C 	0.79976 0.74057 0.56157 -0.21300
H 	H 	0.79613 0.77457 0.58697 0.10900
C 	C 	0.92553 0.69197 0.54667 0.37600
C 	C 	0.61803 0.58537 0.57597 -0.21400
H 	H 	0.64813 0.59247 0.62637 0.10800
C 	C 	0.56033 0.52917 0.57717 0.12300
H 	H 	0.55143 0.50017 0.63017 -0.00400
O 	O 	0.43090 0.36900 0.94220 -0.33900
O 	O 	0.38220 0.40180 0.83640 -0.44200
O 	O 	0.67810 0.91010 0.75100 -0.44400
C 	C 	0.60840 0.58520 0.84620 0.19400
C 	C 	0.55210 0.57970 0.80830 -0.21000
H 	H 	0.55270 0.61420 0.77570 0.11200
C 	C 	0.49490 0.52260 0.81920 0.12500
H 	H 	0.45720 0.51890 0.79380 -0.00700
C 	C 	0.49390 0.47090 0.86790 -0.15700
C 	C 	0.55020 0.47640 0.90580 0.12200
H 	H 	0.54960 0.44190 0.93840 0.02500
C 	C 	0.60747 0.53357 0.89490 -0.20300
H 	H 	0.64510 0.53720 0.92030 0.12800
C 	C 	0.43310 0.40780 0.88000 0.37400
C 	C 	0.63400 0.71530 0.90930 -0.20200
H 	H 	0.61100 0.68520 0.95970 0.14200
C 	C 	0.63550 0.77300 0.91050 0.12600
H 	H 	0.61540 0.78190 0.96350 0.02900
O 	O 	0.09757 0.70233 0.27553 -0.40300
O 	O 	0.04887 0.73513 0.16973 -0.48100
O 	O 	0.34477 0.24343 0.08433 -0.48600
C 	C 	0.27507 0.91853 0.17953 0.17800
C 	C 	0.21877 0.91303 0.14163 -0.22900
H 	H 	0.21937 0.94753 0.10903 0.09900
C 	C 	0.16157 0.85593 0.15253 0.11500
H 	H 	0.12387 0.85223 0.12713 -0.03200
C 	C 	0.16057 0.80423 0.20123 -0.19000
C 	C 	0.21687 0.80973 0.23913 0.11300
H 	H 	0.21627 0.77523 0.27173 0.00100
C 	C 	0.27414 0.86690 0.22823 -0.22100
H 	H 	0.31177 0.87053 0.25363 0.10600
C 	C 	0.09977 0.74113 0.21333 0.37600
C 	C 	0.30067 0.04863 0.24263 -0.19700
H 	H 	0.27767 0.01853 0.29303 0.09100
C 	C 	0.30217 0.10633 0.24383 0.10400
H 	H 	0.28207 0.11523 0.29683 -0.00300
O 	O 	0.76423 0.03567 0.60887 -0.40900
O 	O 	0.71553 0.06847 0.50307 -0.47700
O 	O 	0.01143 0.57677 0.41767 -0.46600
C 	C 	0.94173 0.25187 0.51287 0.21400
C 	C 	0.88543 0.24637 0.47497 -0.23700
H 	H 	0.88603 0.28087 0.44237 0.11800
C 	C 	0.82823 0.18927 0.48587 0.13600
H 	H 	0.79053 0.18557 0.46047 -0.02400
C 	C 	0.82723 0.13757 0.53457 -0.19200
C 	C 	0.88353 0.14307 0.57247 0.13100
H 	H 	0.88293 0.10857 0.60507 0.00100
C 	C 	0.94080 0.20024 0.56157 -0.23400
H 	H 	0.97843 0.20387 0.58697 0.12200
C 	C 	0.76643 0.07447 0.54667 0.38200
C 	C 	0.96733 0.38197 0.57597 -0.18500
H 	H 	0.94433 0.35187 0.62637 0.10200
C 	C 	0.96883 0.43967 0.57717 0.14400
H 	H 	0.94873 0.44857 0.63017 -0.00600
La	La	0.66667 0.01805 0.33333 1.61900
La	La	0.98195 0.64861 0.33333 1.67700
La	La	0.35139 0.33333 0.33333 1.64900
La	La	0.01805 0.66667 0.66667 1.62800
La	La	0.68472 0.00000 -0.00000 1.50700
La	La	0.64861 0.98195 0.66667 1.68500
La	La	0.31528 0.31528 -0.00000 1.53500
La	La	0.33333 0.35139 0.66667 1.65400
La	La	-0.00000 0.68472 -0.00000 1.51400
N 	N 	0.33333 0.97552 0.16667 -0.19100
C 	C 	0.33333 0.03422 0.16667 0.12700
C 	C 	0.33333 0.15142 0.16667 -0.21100
C 	C 	0.33333 0.21302 0.16667 0.42300
N 	N 	0.00000 0.30885 0.50000 -0.21000
C 	C 	0.00000 0.36755 0.50000 0.14300
C 	C 	-0.00000 0.48475 0.50000 -0.22600
C 	C 	-0.00000 0.54635 0.50000 0.40100
N 	N 	0.02448 0.35782 0.16667 -0.21100
C 	C 	0.96578 0.29912 0.16667 0.19200
C 	C 	0.84858 0.18192 0.16667 -0.22900
C 	C 	0.78698 0.12032 0.16667 0.43100
N 	N 	0.69115 0.69115 0.50000 -0.19900
C 	C 	0.63245 0.63245 0.50000 0.17200
C 	C 	0.51525 0.51525 0.50000 -0.20700
C 	C 	0.45365 0.45365 0.50000 0.42800
N 	N 	0.64218 0.66667 0.16667 -0.20200
C 	C 	0.70088 0.66667 0.16667 0.16000
C 	C 	0.81808 0.66667 0.16667 -0.21600
C 	C 	0.87968 0.66667 0.16667 0.42600
N 	N 	0.30885 0.00000 0.50000 -0.21200
C 	C 	0.36755 0.00000 0.50000 0.13900
C 	C 	0.48475 0.00000 0.50000 -0.22900
C 	C 	0.54635 0.00000 0.50000 0.39700
N 	N 	0.97552 0.33333 0.83333 -0.18800
C 	C 	0.03422 0.33333 0.83333 0.15300
C 	C 	0.15142 0.33333 0.83333 -0.18000
C 	C 	0.21302 0.33333 0.83333 0.41500
N 	N 	0.35782 0.02448 0.83333 -0.20600
C 	C 	0.29912 0.96578 0.83333 0.21300
C 	C 	0.18192 0.84858 0.83333 -0.19800
C 	C 	0.12032 0.78698 0.83333 0.42200
N 	N 	0.66667 0.64218 0.83333 -0.19600
C 	C 	0.66667 0.70088 0.83333 0.18000
C 	C 	0.66667 0.81808 0.83333 -0.18500
C 	C 	0.66667 0.87968 0.83333 0.41800
