data_crystal

_cell_length_a 9.90960
_cell_length_b 15.67800
_cell_length_c 13.80220
_cell_angle_alpha 90.00000
_cell_angle_beta  90.00000
_cell_angle_gamma 90.00000

_symmetry_space_group_name_	'P 1'
_symmetry_space_group_name_H-M	'P 1'

loop_
_symmetry_equiv_pos_as_xyz
  x,y,z

loop_
_atom_site_label
_atom_site_type_symbol
_atom_site_fract_x
_atom_site_fract_y
_atom_site_fract_z
_atom_site_charge
Zn	Zn	0.04004 0.58253 0.60735 1.21100
P 	P 	0.23491 0.61362 0.78443 0.47600
H 	H 	0.27400 0.53300 0.77290 -0.06000
P 	P 	0.97169 0.38334 0.61392 0.56200
H 	H 	0.87000 0.39590 0.68400 -0.04500
O 	O 	0.35740 0.66430 0.80520 -0.44600
O 	O 	0.16500 0.64020 0.69220 -0.48500
O 	O 	0.14670 0.61670 0.87370 -0.47100
O 	O 	0.05110 0.30390 0.64370 -0.48200
O 	O 	0.90200 0.37080 0.51710 -0.41800
O 	O 	0.06130 0.46040 0.61620 -0.55100
Zn	Zn	0.45996 0.91747 0.10735 1.22500
P 	P 	0.26509 0.88638 0.28443 0.47600
H 	H 	0.22600 0.96700 0.27290 -0.07100
P 	P 	0.52831 0.11666 0.11392 0.43700
H 	H 	0.63000 0.10410 0.18400 -0.03800
O 	O 	0.14260 0.83570 0.30520 -0.46800
O 	O 	0.33500 0.85980 0.19220 -0.47200
O 	O 	0.35330 0.88330 0.37370 -0.44500
O 	O 	0.44890 0.19610 0.14370 -0.41100
O 	O 	0.59800 0.12920 0.01710 -0.41800
O 	O 	0.43870 0.03960 0.11620 -0.48100
Zn	Zn	0.95996 0.58253 0.89265 1.24600
P 	P 	0.76509 0.61362 0.71557 0.47600
H 	H 	0.72600 0.53300 0.72710 -0.05400
P 	P 	0.02831 0.38334 0.88608 0.31400
H 	H 	0.13000 0.39590 0.81600 -0.04400
O 	O 	0.64260 0.66430 0.69480 -0.44000
O 	O 	0.83500 0.64020 0.80780 -0.44500
O 	O 	0.85330 0.61670 0.62630 -0.40500
O 	O 	0.94890 0.30390 0.85630 -0.32500
O 	O 	0.09800 0.37080 0.98290 -0.43000
O 	O 	0.93870 0.46040 0.88380 -0.40600
Zn	Zn	0.54004 0.91747 0.39265 1.22800
P 	P 	0.73491 0.88638 0.21557 0.47400
H 	H 	0.77400 0.96700 0.22710 -0.04400
P 	P 	0.47169 0.11666 0.38608 0.43500
H 	H 	0.37000 0.10410 0.31600 -0.05000
O 	O 	0.85740 0.83570 0.19480 -0.40600
O 	O 	0.66500 0.85980 0.30780 -0.45900
O 	O 	0.64670 0.88330 0.12630 -0.43600
O 	O 	0.55110 0.19610 0.35630 -0.40400
O 	O 	0.40200 0.12920 0.48290 -0.43100
O 	O 	0.56130 0.03960 0.38380 -0.47200
Zn	Zn	0.95996 0.41747 0.39265 1.24600
P 	P 	0.76509 0.38638 0.21557 0.47600
H 	H 	0.72600 0.46700 0.22710 -0.05400
P 	P 	0.02831 0.61666 0.38608 0.30900
H 	H 	0.13000 0.60410 0.31600 -0.04400
O 	O 	0.64260 0.33570 0.19480 -0.44000
O 	O 	0.83500 0.35980 0.30780 -0.44500
O 	O 	0.85330 0.38330 0.12630 -0.40500
O 	O 	0.94890 0.69610 0.35630 -0.32100
O 	O 	0.09800 0.62920 0.48290 -0.43100
O 	O 	0.93870 0.53960 0.38380 -0.40200
Zn	Zn	0.54004 0.08253 0.89265 1.22700
P 	P 	0.73491 0.11362 0.71557 0.47400
H 	H 	0.77400 0.03300 0.72710 -0.04500
P 	P 	0.47169 0.88334 0.88608 0.43500
H 	H 	0.37000 0.89590 0.81600 -0.05000
O 	O 	0.85740 0.16430 0.69480 -0.40700
O 	O 	0.66500 0.14020 0.80780 -0.46000
O 	O 	0.64670 0.11670 0.62630 -0.43400
O 	O 	0.55110 0.80390 0.85630 -0.40300
O 	O 	0.40200 0.87080 0.98290 -0.42800
O 	O 	0.56130 0.96040 0.88380 -0.47100
Zn	Zn	0.04004 0.41747 0.10735 1.20900
P 	P 	0.23491 0.38638 0.28443 0.47600
H 	H 	0.27400 0.46700 0.27290 -0.06000
P 	P 	0.97169 0.61666 0.11392 0.56500
H 	H 	0.87000 0.60410 0.18400 -0.04500
O 	O 	0.35740 0.33570 0.30520 -0.44700
O 	O 	0.16500 0.35980 0.19220 -0.48600
O 	O 	0.14670 0.38330 0.37370 -0.47300
O 	O 	0.05110 0.69610 0.14370 -0.48500
O 	O 	0.90200 0.62920 0.01710 -0.42000
O 	O 	0.06130 0.53960 0.11620 -0.55400
Zn	Zn	0.45996 0.08253 0.60735 1.22700
P 	P 	0.26509 0.11362 0.78443 0.47600
H 	H 	0.22600 0.03300 0.77290 -0.07000
P 	P 	0.52831 0.88334 0.61392 0.43700
H 	H 	0.63000 0.89590 0.68400 -0.03900
O 	O 	0.14260 0.16430 0.80520 -0.46700
O 	O 	0.33500 0.14020 0.69220 -0.47100
O 	O 	0.35330 0.11670 0.87370 -0.44600
O 	O 	0.44890 0.80390 0.64370 -0.41100
O 	O 	0.59800 0.87080 0.51710 -0.41800
O 	O 	0.43870 0.96040 0.61620 -0.48100
Zn	Zn	0.00000 0.22788 0.75000 1.21400
Zn	Zn	0.50000 0.27212 0.25000 1.24100
Zn	Zn	0.00000 0.77212 0.25000 1.21300
Zn	Zn	0.50000 0.72788 0.75000 1.24100
