data_crystal

_cell_length_a 6.57600
_cell_length_b 7.61200
_cell_length_c 10.47260
_cell_angle_alpha 111.31100
_cell_angle_beta  103.24800
_cell_angle_gamma 90.00000

_symmetry_space_group_name_	'P 1'
_symmetry_space_group_name_H-M	'P 1'

loop_
_symmetry_equiv_pos_as_xyz
  x,y,z

loop_
_atom_site_label
_atom_site_type_symbol
_atom_site_fract_x
_atom_site_fract_y
_atom_site_fract_z
_atom_site_charge
Al	Al	0.00100 0.00120 0.00240 2.35600
Al	Al	0.50100 0.00120 0.00240 2.36300
C 	C 	0.16000 0.07250 0.78700 0.73000
C 	C 	0.83500 0.93140 0.21280 0.35600
C 	C 	0.87100 0.07680 0.59960 0.46900
C 	C 	0.13000 0.96160 0.40720 -0.41500
C 	C 	0.78100 0.02560 0.45120 -0.60600
C 	C 	0.21200 0.97640 0.55080 0.70600
C 	C 	0.07800 0.02920 0.63640 -0.90100
C 	C 	0.91000 0.95160 0.35920 0.54100
C 	C 	0.66000 0.71450 0.78700 0.46400
C 	C 	0.33500 0.28140 0.21280 0.53400
C 	C 	0.37100 0.52280 0.59960 -0.01900
C 	C 	0.63000 0.44560 0.40720 0.04000
C 	C 	0.28100 0.42560 0.45120 0.02100
C 	C 	0.71200 0.57440 0.55080 0.01000
C 	C 	0.57800 0.60720 0.63640 -0.05400
C 	C 	0.41000 0.40760 0.35920 -0.20400
O 	O 	0.25600 0.89000 -0.00000 -1.03700
O 	O 	0.05100 0.10920 0.87240 -0.68600
O 	O 	0.94000 0.88250 0.12500 -0.57100
O 	O 	0.34000 0.00760 0.81720 -0.69000
O 	O 	0.63700 0.93440 0.16880 -0.47700
O 	O 	0.75600 0.11000 -0.00000 -1.33600
O 	O 	0.55100 0.76320 0.87240 -0.41400
O 	O 	0.44000 0.24250 0.12500 -0.85300
O 	O 	0.84000 0.80960 0.81720 -0.31100
O 	O 	0.13700 0.23440 0.16880 -0.80000
H 	H 	0.77599 0.15100 0.67912 -0.04700
H 	H 	0.24164 0.95842 0.33779 0.18700
H 	H 	0.60939 0.04588 0.41200 0.05500
H 	H 	0.38030 0.94449 0.58640 0.00700
H 	H 	0.27599 0.52812 0.67912 0.06500
H 	H 	0.74164 0.37938 0.33779 0.01800
H 	H 	0.10939 0.36612 0.41200 -0.03500
H 	H 	0.88030 0.64192 0.58640 0.12700
H 	H 	0.75600 0.25101 0.03725 0.27300
H 	H 	0.25600 0.74899 -0.03725 0.13400
