data_crystal

_cell_length_a 10.54600
_cell_length_b 10.65300
_cell_length_c 11.42200
_cell_angle_alpha 82.68000
_cell_angle_beta  74.10000
_cell_angle_gamma 69.42000

_symmetry_space_group_name_	'P 1'
_symmetry_space_group_name_H-M	'P 1'

loop_
_symmetry_equiv_pos_as_xyz
  x,y,z

loop_
_atom_site_label
_atom_site_type_symbol
_atom_site_fract_x
_atom_site_fract_y
_atom_site_fract_z
_atom_site_charge
Nd	Nd	0.58900 0.59851 0.62829 2.13900
O 	O 	0.39790 0.62240 0.40690 -0.58400
O 	O 	0.47160 0.75110 0.49050 -0.54900
O 	O 	0.26770 0.25400 0.44830 -0.52500
O 	O 	0.04150 0.32060 0.45530 -0.45300
O 	O 	0.87970 0.05940 0.25800 -0.11800
O 	O 	0.95580 0.84780 0.27420 -0.10200
O 	O 	0.00720 0.43940 0.66780 -0.46400
O 	O 	0.77910 0.48840 0.71720 -0.57600
O 	O 	0.53450 0.47590 0.16120 -0.40500
O 	O 	0.66070 0.38660 0.29420 -0.44400
O 	O 	0.17180 0.25200 0.15560 -0.14300
O 	O 	0.27020 0.23720 0.96510 -0.11700
N 	N 	0.96440 0.95570 0.28330 0.01200
N 	N 	0.16700 0.26410 0.05000 -0.00200
C 	C 	0.28060 0.85740 0.40460 -0.15400
C 	C 	0.27660 0.98340 0.43090 0.07800
H 	H 	0.34650 0.99020 0.46210 0.02700
C 	C 	0.17030 0.09770 0.41120 -0.10400
C 	C 	0.06590 0.08790 0.36390 -0.06700
H 	H 	0.99190 0.16380 0.35260 0.11200
C 	C 	0.07440 0.96360 0.33420 0.04400
C 	C 	0.17890 0.84660 0.35410 0.00700
H 	H 	0.18110 0.76360 0.33450 0.04000
C 	C 	0.39180 0.73340 0.43490 0.51900
C 	C 	0.16150 0.23460 0.44050 0.44800
C 	C 	0.89900 0.41370 0.87380 -0.08100
C 	C 	0.77600 0.43790 0.96580 0.03900
H 	H 	0.69000 0.47610 0.94650 0.04300
C 	C 	0.78180 0.40490 0.08690 -0.06500
C 	C 	0.91110 0.34660 0.11550 -0.00100
H 	H 	0.91660 0.32370 0.19570 0.07500
C 	C 	0.03010 0.32370 0.02200 0.04400
C 	C 	0.02700 0.35500 0.90110 -0.04700
H 	H 	0.10930 0.33690 0.83980 0.08500
C 	C 	0.89390 0.45060 0.74350 0.50800
C 	C 	0.65060 0.42530 0.18610 0.31200
Nd	Nd	0.41100 0.40149 0.37171 2.12500
O 	O 	0.60210 0.37760 0.59310 -0.58400
O 	O 	0.52840 0.24890 0.50950 -0.55000
O 	O 	0.73230 0.74600 0.55170 -0.52800
O 	O 	0.95850 0.67940 0.54470 -0.42200
O 	O 	0.12030 0.94060 0.74200 -0.12900
O 	O 	0.04420 0.15220 0.72580 -0.12500
O 	O 	0.99280 0.56060 0.33220 -0.39300
O 	O 	0.22090 0.51160 0.28280 -0.56300
O 	O 	0.46550 0.52410 0.83880 -0.40300
O 	O 	0.33930 0.61340 0.70580 -0.44400
O 	O 	0.82820 0.74800 0.84440 -0.12700
O 	O 	0.72980 0.76280 0.03490 -0.11500
N 	N 	0.03560 0.04430 0.71670 -0.00700
N 	N 	0.83300 0.73590 0.95000 -0.00900
C 	C 	0.71940 0.14260 0.59540 -0.17200
C 	C 	0.72340 0.01660 0.56910 0.11300
H 	H 	0.65350 0.00980 0.53790 0.01500
C 	C 	0.82970 0.90230 0.58880 -0.15700
C 	C 	0.93410 0.91210 0.63610 0.08200
H 	H 	0.00810 0.83620 0.64740 0.01400
C 	C 	0.92560 0.03640 0.66580 0.04300
C 	C 	0.82110 0.15340 0.64590 0.02900
H 	H 	0.81890 0.23640 0.66550 0.04600
C 	C 	0.60820 0.26660 0.56510 0.52600
C 	C 	0.83850 0.76540 0.55950 0.46700
C 	C 	0.10100 0.58630 0.12620 -0.13000
C 	C 	0.22400 0.56210 0.03420 0.03200
H 	H 	0.31000 0.52390 0.05350 0.04600
C 	C 	0.21820 0.59510 0.91310 -0.03900
C 	C 	0.08890 0.65340 0.88450 -0.10300
H 	H 	0.08340 0.67630 0.80430 0.09400
C 	C 	0.96990 0.67630 0.97800 0.11700
C 	C 	0.97300 0.64500 0.09890 0.01100
H 	H 	0.89070 0.66310 0.16020 0.07200
C 	C 	0.10610 0.54940 0.25650 0.43500
C 	C 	0.34940 0.57470 0.81390 0.30200
Cu	Cu	0.00000 0.50000 0.50000 0.90000
