data_crystal

_cell_length_a 10.41400
_cell_length_b 10.61500
_cell_length_c 11.31700
_cell_angle_alpha 83.45000
_cell_angle_beta  75.04000
_cell_angle_gamma 69.61000

_symmetry_space_group_name_	'P 1'
_symmetry_space_group_name_H-M	'P 1'

loop_
_symmetry_equiv_pos_as_xyz
  x,y,z

loop_
_atom_site_label
_atom_site_type_symbol
_atom_site_fract_x
_atom_site_fract_y
_atom_site_fract_z
_atom_site_charge
Ho	Ho	0.58673 0.59671 0.63225 1.72100
O 	O 	0.39600 0.61610 0.40550 -0.50900
O 	O 	0.47140 0.74080 0.49800 -0.48200
O 	O 	0.28400 0.24920 0.43890 -0.45700
O 	O 	0.05210 0.31840 0.45520 -0.43500
O 	O 	0.87230 0.06250 0.26180 -0.11100
O 	O 	0.95000 0.84830 0.27360 -0.09700
O 	O 	0.00160 0.44210 0.67060 -0.44500
O 	O 	0.76990 0.49650 0.72000 -0.51800
O 	O 	0.52920 0.48290 0.16420 -0.35700
O 	O 	0.65850 0.39240 0.29790 -0.38800
O 	O 	0.17390 0.24660 0.15990 -0.13300
O 	O 	0.27130 0.23260 0.96800 -0.10700
N 	N 	0.95790 0.95670 0.28570 0.00900
N 	N 	0.16790 0.26210 0.05290 -0.00500
C 	C 	0.28170 0.85270 0.40650 -0.11700
C 	C 	0.28230 0.97730 0.43170 0.04700
H 	H 	0.35460 0.98270 0.46270 0.04600
C 	C 	0.17580 0.09420 0.41090 -0.06900
C 	C 	0.06910 0.08590 0.36410 -0.09000
H 	H 	0.99550 0.16290 0.35220 0.12400
C 	C 	0.07330 0.96220 0.33530 0.06300
C 	C 	0.17670 0.84360 0.35590 -0.01900
H 	H 	0.17620 0.76100 0.33660 0.05600
C 	C 	0.39050 0.72650 0.43860 0.47500
C 	C 	0.17370 0.23120 0.43670 0.41700
C 	C 	0.89350 0.41880 0.87680 -0.06000
C 	C 	0.77130 0.44450 0.96980 0.02200
H 	H 	0.68400 0.48440 0.95070 0.05800
C 	C 	0.77800 0.41140 0.09050 -0.05000
C 	C 	0.90960 0.35030 0.11890 -0.01200
H 	H 	0.91650 0.32760 0.19940 0.08100
C 	C 	0.02870 0.32480 0.02450 0.05500
C 	C 	0.02470 0.35730 0.90450 -0.06400
H 	H 	0.10720 0.33880 0.84320 0.09500
C 	C 	0.88720 0.45590 0.74670 0.47700
C 	C 	0.64640 0.43200 0.19010 0.30200
Ho	Ho	0.41327 0.40329 0.36775 1.71000
O 	O 	0.60400 0.38390 0.59450 -0.51000
O 	O 	0.52860 0.25920 0.50200 -0.48400
O 	O 	0.71600 0.75080 0.56110 -0.46000
O 	O 	0.94790 0.68160 0.54480 -0.40500
O 	O 	0.12770 0.93750 0.73820 -0.12200
O 	O 	0.05000 0.15170 0.72640 -0.11900
O 	O 	0.99840 0.55790 0.32940 -0.37200
O 	O 	0.23010 0.50350 0.28000 -0.50500
O 	O 	0.47080 0.51710 0.83580 -0.35400
O 	O 	0.34150 0.60760 0.70210 -0.38800
O 	O 	0.82610 0.75340 0.84010 -0.11700
O 	O 	0.72870 0.76740 0.03200 -0.10500
N 	N 	0.04210 0.04330 0.71430 -0.01000
N 	N 	0.83210 0.73790 0.94710 -0.01200
C 	C 	0.71830 0.14730 0.59350 -0.13600
C 	C 	0.71770 0.02270 0.56830 0.08400
H 	H 	0.64540 0.01730 0.53730 0.03400
C 	C 	0.82420 0.90580 0.58910 -0.12400
C 	C 	0.93090 0.91410 0.63590 0.06400
H 	H 	0.00450 0.83710 0.64780 0.02300
C 	C 	0.92670 0.03780 0.66470 0.06200
C 	C 	0.82330 0.15640 0.64410 0.00400
H 	H 	0.82380 0.23900 0.66340 0.06200
C 	C 	0.60950 0.27350 0.56140 0.48300
C 	C 	0.82630 0.76880 0.56330 0.43700
C 	C 	0.10650 0.58120 0.12320 -0.10700
C 	C 	0.22870 0.55550 0.03020 0.01500
H 	H 	0.31600 0.51560 0.04930 0.06000
C 	C 	0.22200 0.58860 0.90950 -0.02400
C 	C 	0.09040 0.64970 0.88110 -0.11500
H 	H 	0.08350 0.67240 0.80060 0.10000
C 	C 	0.97130 0.67520 0.97550 0.13000
C 	C 	0.97530 0.64270 0.09550 -0.00800
H 	H 	0.89280 0.66120 0.15680 0.08300
C 	C 	0.11280 0.54410 0.25330 0.40300
C 	C 	0.35360 0.56800 0.80990 0.29100
Cu	Cu	-0.00000 0.50000 0.50000 0.90900
