data_crystal

_cell_length_a 13.81200
_cell_length_b 27.54000
_cell_length_c 45.02200
_cell_angle_alpha 90.00000
_cell_angle_beta  90.00000
_cell_angle_gamma 90.00000

_symmetry_space_group_name_	'P 1'
_symmetry_space_group_name_H-M	'P 1'

loop_
_symmetry_equiv_pos_as_xyz
  x,y,z

loop_
_atom_site_label
_atom_site_type_symbol
_atom_site_fract_x
_atom_site_fract_y
_atom_site_fract_z
_atom_site_charge
Zn	Zn	0.14989 0.54598 0.08331 1.16200
Zn	Zn	0.37732 0.52592 0.91475 1.16300
Zn	Zn	0.67336 0.25762 0.68205 1.16300
Zn	Zn	0.85011 0.95402 0.58331 1.16200
Zn	Zn	0.62268 0.97408 0.41475 1.16400
Zn	Zn	0.32664 0.24238 0.18205 1.16400
Zn	Zn	0.64989 0.45402 0.41669 1.16300
Zn	Zn	0.87732 0.47408 0.58525 1.16300
Zn	Zn	0.17336 0.74238 0.81795 1.16400
Zn	Zn	0.35011 0.04598 0.91669 1.16300
Zn	Zn	0.12268 0.02592 0.08525 1.16300
Zn	Zn	0.82664 0.75762 0.31795 1.16400
H 	H 	0.95960 0.52840 0.05400 -0.01200
H 	H 	0.87570 0.54920 0.01070 0.09100
H 	H 	0.12690 0.60380 0.97770 0.07900
H 	H 	0.20230 0.57940 0.02100 -0.00500
H 	H 	0.52810 0.58280 0.88310 -0.00800
H 	H 	0.68790 0.60880 0.88920 0.09400
H 	H 	0.67340 0.56390 0.97520 0.08900
H 	H 	0.51790 0.53650 0.96560 -0.00500
H 	H 	0.20900 0.68880 0.87380 -0.00900
H 	H 	0.12630 0.65150 0.91200 0.08000
H 	H 	0.87490 0.68500 0.87100 0.08000
H 	H 	0.96500 0.72220 0.83400 -0.01600
H 	H 	0.39740 0.41900 0.92950 -0.00700
H 	H 	0.41300 0.34420 0.90580 0.08200
H 	H 	0.45940 0.41610 0.82930 0.08300
H 	H 	0.43820 0.48830 0.85430 -0.01000
H 	H 	0.43560 0.08050 0.85940 -0.01000
H 	H 	0.46600 0.15100 0.83380 0.08000
H 	H 	0.40160 0.22650 0.90860 0.07900
H 	H 	0.37350 0.15260 0.93200 -0.01500
H 	H 	0.60540 0.33820 0.72170 -0.01000
H 	H 	0.54610 0.34910 0.76950 0.07900
H 	H 	0.49960 0.20350 0.77370 0.07800
H 	H 	0.55790 0.19780 0.72530 0.00400
H 	H 	0.04040 0.97160 0.55400 -0.01200
H 	H 	0.12430 0.95080 0.51070 0.09100
H 	H 	0.87310 0.89620 0.47770 0.07900
H 	H 	0.79770 0.92060 0.52100 -0.00500
H 	H 	0.47190 0.91720 0.38310 -0.00800
H 	H 	0.31210 0.89120 0.38920 0.09400
H 	H 	0.32660 0.93610 0.47520 0.08900
H 	H 	0.48210 0.96350 0.46560 -0.00500
H 	H 	0.79100 0.81120 0.37380 -0.00900
H 	H 	0.87370 0.84850 0.41200 0.08000
H 	H 	0.12510 0.81500 0.37100 0.08000
H 	H 	0.03500 0.77780 0.33400 -0.01700
H 	H 	0.60260 0.08100 0.42950 -0.00700
H 	H 	0.58700 0.15580 0.40580 0.08200
H 	H 	0.54060 0.08390 0.32930 0.08300
H 	H 	0.56180 0.01170 0.35430 -0.01000
H 	H 	0.56440 0.41950 0.35940 -0.01000
H 	H 	0.53400 0.34900 0.33380 0.08000
H 	H 	0.59840 0.27350 0.40860 0.07900
H 	H 	0.62650 0.34740 0.43200 -0.01500
H 	H 	0.39460 0.16180 0.22170 -0.01000
H 	H 	0.45390 0.15090 0.26950 0.07900
H 	H 	0.50040 0.29650 0.27370 0.07800
H 	H 	0.44210 0.30220 0.22530 0.00400
H 	H 	0.45960 0.47160 0.44600 -0.01200
H 	H 	0.37570 0.45080 0.48930 0.09100
H 	H 	0.62690 0.39620 0.52230 0.07900
H 	H 	0.70230 0.42060 0.47900 -0.00500
H 	H 	0.02810 0.41720 0.61690 -0.00800
H 	H 	0.18790 0.39120 0.61080 0.09400
H 	H 	0.17340 0.43610 0.52480 0.08900
H 	H 	0.01790 0.46350 0.53440 -0.00500
H 	H 	0.70900 0.31120 0.62620 -0.00900
H 	H 	0.62630 0.34850 0.58800 0.08000
H 	H 	0.37490 0.31500 0.62900 0.08000
H 	H 	0.46500 0.27780 0.66600 -0.01700
H 	H 	0.89740 0.58100 0.57050 -0.00700
H 	H 	0.91300 0.65580 0.59420 0.08200
H 	H 	0.95940 0.58390 0.67070 0.08300
H 	H 	0.93820 0.51170 0.64570 -0.01100
H 	H 	0.93560 0.91950 0.64060 -0.01000
H 	H 	0.96600 0.84900 0.66620 0.08000
H 	H 	0.90160 0.77350 0.59140 0.07900
H 	H 	0.87350 0.84740 0.56800 -0.01500
H 	H 	0.10540 0.66180 0.77830 -0.01000
H 	H 	0.04610 0.65090 0.73050 0.07900
H 	H 	0.99960 0.79650 0.72630 0.07600
H 	H 	0.05790 0.80220 0.77470 0.00500
H 	H 	0.54040 0.02840 0.94600 -0.01200
H 	H 	0.62430 0.04920 0.98930 0.09100
H 	H 	0.37310 0.10380 0.02230 0.07900
H 	H 	0.29770 0.07940 0.97900 -0.00500
H 	H 	0.97190 0.08280 0.11690 -0.00700
H 	H 	0.81210 0.10880 0.11080 0.09400
H 	H 	0.82660 0.06390 0.02480 0.08900
H 	H 	0.98210 0.03650 0.03440 -0.00500
H 	H 	0.29100 0.18880 0.12620 -0.00900
H 	H 	0.37370 0.15150 0.08800 0.08000
H 	H 	0.62510 0.18500 0.12900 0.08000
H 	H 	0.53500 0.22220 0.16600 -0.01700
H 	H 	0.10260 0.91900 0.07050 -0.00700
H 	H 	0.08700 0.84420 0.09420 0.08200
H 	H 	0.04060 0.91610 0.17070 0.08300
H 	H 	0.06180 0.98830 0.14570 -0.01000
H 	H 	0.06440 0.58050 0.14060 -0.01000
H 	H 	0.03400 0.65100 0.16620 0.08000
H 	H 	0.09840 0.72650 0.09140 0.07900
H 	H 	0.12650 0.65260 0.06800 -0.01500
H 	H 	0.89460 0.83820 0.27830 -0.01000
H 	H 	0.95390 0.84910 0.23050 0.07900
H 	H 	0.00040 0.70350 0.22630 0.07700
H 	H 	0.94210 0.69780 0.27470 0.00400
C 	C 	0.99330 0.54430 0.03840 0.06500
C 	C 	0.94240 0.55690 0.01270 -0.11900
C 	C 	0.99200 0.58110 0.99023 0.05300
C 	C 	0.09060 0.58890 0.99310 -0.11700
C 	C 	0.13450 0.57440 0.01920 0.07000
C 	C 	0.55910 0.57810 0.90170 0.07000
C 	C 	0.65400 0.59450 0.90540 -0.12500
C 	C 	0.69820 0.58980 0.93260 0.04800
C 	C 	0.64570 0.56760 0.95600 -0.12400
C 	C 	0.55330 0.55160 0.95010 0.07000
C 	C 	0.14030 0.68780 0.87330 0.06500
C 	C 	0.09110 0.66570 0.89610 -0.10900
C 	C 	0.99220 0.66380 0.89610 0.05900
C 	C 	0.94360 0.68540 0.87210 -0.12000
C 	C 	0.99810 0.70720 0.85010 0.07800
C 	C 	0.93870 0.59770 0.96330 0.09500
C 	C 	0.80110 0.60420 0.93710 0.09100
C 	C 	0.93680 0.63870 0.91986 0.10400
C 	C 	0.40770 0.41830 0.90860 0.07300
C 	C 	0.41940 0.37350 0.89480 -0.11800
C 	C 	0.44010 0.37250 0.86530 0.06200
C 	C 	0.44590 0.41590 0.85000 -0.12300
C 	C 	0.43210 0.45860 0.86500 0.07700
C 	C 	0.42770 0.11070 0.86930 0.06400
C 	C 	0.44640 0.15250 0.85400 -0.11600
C 	C 	0.43670 0.19700 0.86801 0.05100
C 	C 	0.40860 0.19690 0.89800 -0.11900
C 	C 	0.39140 0.15270 0.91160 0.07400
C 	C 	0.58530 0.31060 0.73270 0.06700
C 	C 	0.54980 0.31740 0.76120 -0.11300
C 	C 	0.52010 0.27780 0.77754 0.04500
C 	C 	0.52210 0.23160 0.76360 -0.10400
C 	C 	0.55780 0.22850 0.73490 0.05500
C 	C 	0.45330 0.32510 0.84980 0.09700
C 	C 	0.45190 0.24310 0.85136 0.10400
C 	C 	0.48880 0.28130 0.80900 0.10600
C 	C 	0.00670 0.95570 0.53840 0.06600
C 	C 	0.05760 0.94310 0.51270 -0.12000
C 	C 	0.00800 0.91890 0.49023 0.05500
C 	C 	0.90940 0.91110 0.49310 -0.11900
C 	C 	0.86550 0.92560 0.51920 0.07100
C 	C 	0.44090 0.92190 0.40170 0.07000
C 	C 	0.34600 0.90550 0.40540 -0.12500
C 	C 	0.30180 0.91020 0.43260 0.04800
C 	C 	0.35430 0.93240 0.45600 -0.12400
C 	C 	0.44670 0.94840 0.45010 0.07000
C 	C 	0.85970 0.81220 0.37330 0.06600
C 	C 	0.90890 0.83430 0.39610 -0.11100
C 	C 	0.00780 0.83620 0.39610 0.06000
C 	C 	0.05640 0.81460 0.37210 -0.12100
C 	C 	0.00190 0.79280 0.35010 0.07900
C 	C 	0.06130 0.90230 0.46330 0.09500
C 	C 	0.19890 0.89580 0.43710 0.09100
C 	C 	0.06320 0.86130 0.41986 0.10300
C 	C 	0.59230 0.08170 0.40860 0.07300
C 	C 	0.58060 0.12650 0.39480 -0.11800
C 	C 	0.55990 0.12750 0.36530 0.06200
C 	C 	0.55410 0.08410 0.35000 -0.12300
C 	C 	0.56790 0.04140 0.36500 0.07700
C 	C 	0.57230 0.38930 0.36930 0.06400
C 	C 	0.55360 0.34750 0.35400 -0.11600
C 	C 	0.56330 0.30300 0.36801 0.05100
C 	C 	0.59140 0.30310 0.39800 -0.11900
C 	C 	0.60860 0.34730 0.41160 0.07400
C 	C 	0.41470 0.18940 0.23270 0.06700
C 	C 	0.45020 0.18260 0.26120 -0.11300
C 	C 	0.47990 0.22220 0.27754 0.04500
C 	C 	0.47790 0.26840 0.26360 -0.10400
C 	C 	0.44220 0.27150 0.23490 0.05500
C 	C 	0.54670 0.17490 0.34980 0.09700
C 	C 	0.54810 0.25690 0.35136 0.10400
C 	C 	0.51120 0.21870 0.30900 0.10600
C 	C 	0.49330 0.45570 0.46160 0.06500
C 	C 	0.44240 0.44310 0.48730 -0.12000
C 	C 	0.49200 0.41890 0.50977 0.05400
C 	C 	0.59060 0.41110 0.50690 -0.11800
C 	C 	0.63450 0.42560 0.48080 0.07100
C 	C 	0.05910 0.42190 0.59830 0.07000
C 	C 	0.15400 0.40550 0.59460 -0.12500
C 	C 	0.19820 0.41020 0.56740 0.04800
C 	C 	0.14570 0.43240 0.54400 -0.12400
C 	C 	0.05330 0.44840 0.54990 0.07000
C 	C 	0.64030 0.31220 0.62670 0.06600
C 	C 	0.59110 0.33430 0.60390 -0.11100
C 	C 	0.49220 0.33620 0.60390 0.06100
C 	C 	0.44360 0.31460 0.62790 -0.12100
C 	C 	0.49810 0.29280 0.64990 0.08000
C 	C 	0.43870 0.40230 0.53670 0.09500
C 	C 	0.30110 0.39580 0.56290 0.09100
C 	C 	0.43680 0.36130 0.58014 0.10300
C 	C 	0.90770 0.58170 0.59140 0.07300
C 	C 	0.91940 0.62650 0.60520 -0.11800
C 	C 	0.94010 0.62750 0.63470 0.06200
C 	C 	0.94590 0.58410 0.65000 -0.12300
C 	C 	0.93210 0.54140 0.63500 0.07700
C 	C 	0.92770 0.88930 0.63070 0.06300
C 	C 	0.94640 0.84750 0.64600 -0.11700
C 	C 	0.93670 0.80300 0.63199 0.05100
C 	C 	0.90860 0.80310 0.60200 -0.11900
C 	C 	0.89140 0.84730 0.58840 0.07400
C 	C 	0.08530 0.68940 0.76730 0.06800
C 	C 	0.04980 0.68260 0.73880 -0.11300
C 	C 	0.02010 0.72220 0.72246 0.04500
C 	C 	0.02210 0.76840 0.73640 -0.10100
C 	C 	0.05780 0.77150 0.76510 0.05400
C 	C 	0.95330 0.67490 0.65020 0.09700
C 	C 	0.95190 0.75690 0.64864 0.10300
C 	C 	0.98880 0.71870 0.69100 0.10400
C 	C 	0.50670 0.04430 0.96160 0.06500
C 	C 	0.55760 0.05690 0.98730 -0.12000
C 	C 	0.50800 0.08110 0.00977 0.05400
C 	C 	0.40940 0.08890 0.00690 -0.11800
C 	C 	0.36550 0.07440 0.98080 0.07100
C 	C 	0.94090 0.07810 0.09830 0.07000
C 	C 	0.84600 0.09450 0.09460 -0.12500
C 	C 	0.80180 0.08980 0.06740 0.04800
C 	C 	0.85430 0.06760 0.04400 -0.12400
C 	C 	0.94670 0.05160 0.04990 0.07000
C 	C 	0.35970 0.18780 0.12670 0.06600
C 	C 	0.40890 0.16570 0.10390 -0.11100
C 	C 	0.50780 0.16380 0.10390 0.06100
C 	C 	0.55640 0.18540 0.12790 -0.12100
C 	C 	0.50190 0.20720 0.14990 0.08000
C 	C 	0.56130 0.09770 0.03670 0.09500
C 	C 	0.69890 0.10420 0.06290 0.09100
C 	C 	0.56320 0.13870 0.08014 0.10300
C 	C 	0.09230 0.91830 0.09140 0.07300
C 	C 	0.08060 0.87350 0.10520 -0.11800
C 	C 	0.05990 0.87250 0.13470 0.06200
C 	C 	0.05410 0.91590 0.15000 -0.12300
C 	C 	0.06790 0.95860 0.13500 0.07700
C 	C 	0.07230 0.61070 0.13070 0.06300
C 	C 	0.05360 0.65250 0.14600 -0.11600
C 	C 	0.06330 0.69700 0.13199 0.05100
C 	C 	0.09140 0.69690 0.10200 -0.11900
C 	C 	0.10860 0.65270 0.08840 0.07400
C 	C 	0.91470 0.81060 0.26730 0.06700
C 	C 	0.95020 0.81740 0.23880 -0.11300
C 	C 	0.97990 0.77780 0.22246 0.04500
C 	C 	0.97790 0.73160 0.23640 -0.10200
C 	C 	0.94220 0.72850 0.26510 0.05400
C 	C 	0.04670 0.82510 0.15020 0.09700
C 	C 	0.04810 0.74310 0.14864 0.10400
C 	C 	0.01120 0.78130 0.19100 0.10500
I 	I 	0.06496 0.47932 0.11211 -0.36300
I 	I 	0.33109 0.55938 0.07815 -0.38600
I 	I 	0.30024 0.50523 0.96516 -0.38900
I 	I 	0.29270 0.57615 0.87599 -0.37400
I 	I 	0.68515 0.16696 0.67110 -0.37300
I 	I 	0.83040 0.30501 0.69032 -0.36900
I 	I 	0.93504 0.02068 0.61211 -0.36200
I 	I 	0.66891 0.94062 0.57815 -0.38600
I 	I 	0.69976 0.99477 0.46516 -0.38900
I 	I 	0.70730 0.92385 0.37599 -0.37500
I 	I 	0.31485 0.33304 0.17110 -0.37300
I 	I 	0.16960 0.19499 0.19032 -0.37000
I 	I 	0.56496 0.52068 0.38789 -0.36200
I 	I 	0.83109 0.44062 0.42185 -0.38500
I 	I 	0.80024 0.49477 0.53484 -0.38900
I 	I 	0.79270 0.42385 0.62401 -0.37500
I 	I 	0.18515 0.83304 0.82890 -0.37200
I 	I 	0.33040 0.69499 0.80968 -0.36900
I 	I 	0.43504 0.97932 0.88789 -0.36200
I 	I 	0.16891 0.05938 0.92185 -0.38600
I 	I 	0.19976 0.00523 0.03484 -0.39000
I 	I 	0.20730 0.07615 0.12401 -0.37500
I 	I 	0.81485 0.66696 0.32890 -0.37300
I 	I 	0.66960 0.80501 0.30968 -0.36900
N 	N 	0.08830 0.55380 0.04191 -0.27300
N 	N 	0.51050 0.55610 0.92329 -0.27400
N 	N 	0.09360 0.70820 0.85016 -0.27500
N 	N 	0.84490 0.58610 0.96147 -0.14400
N 	N 	0.84200 0.63130 0.91614 -0.13400
N 	N 	0.98990 0.62280 0.94315 -0.13700
N 	N 	0.41050 0.46040 0.89382 -0.26800
N 	N 	0.39870 0.11050 0.89759 -0.27000
N 	N 	0.59220 0.26720 0.72005 -0.27000
N 	N 	0.47830 0.32550 0.82083 -0.13800
N 	N 	0.44030 0.28500 0.86630 -0.13800
N 	N 	0.47620 0.23930 0.82304 -0.14100
N 	N 	0.91170 0.94620 0.54191 -0.27400
N 	N 	0.48950 0.94390 0.42329 -0.27400
N 	N 	0.90640 0.79180 0.35016 -0.27600
N 	N 	0.15510 0.91390 0.46147 -0.14400
N 	N 	0.15800 0.86870 0.41614 -0.13300
N 	N 	0.01010 0.87720 0.44315 -0.13700
N 	N 	0.58950 0.03960 0.39382 -0.26800
N 	N 	0.60130 0.38950 0.39759 -0.27000
N 	N 	0.40780 0.23280 0.22005 -0.27000
N 	N 	0.52170 0.17450 0.32083 -0.13800
N 	N 	0.55970 0.21500 0.36630 -0.13800
N 	N 	0.52380 0.26070 0.32304 -0.14100
N 	N 	0.58830 0.44620 0.45809 -0.27300
N 	N 	0.01050 0.44390 0.57671 -0.27300
N 	N 	0.59360 0.29180 0.64984 -0.27600
N 	N 	0.34490 0.41390 0.53853 -0.14400
N 	N 	0.34200 0.36870 0.58386 -0.13300
N 	N 	0.48990 0.37720 0.55685 -0.13700
N 	N 	0.91050 0.53960 0.60618 -0.26800
N 	N 	0.89870 0.88950 0.60241 -0.27000
N 	N 	0.09220 0.73280 0.77995 -0.26900
N 	N 	0.97830 0.67450 0.67917 -0.13800
N 	N 	0.94030 0.71500 0.63370 -0.13800
N 	N 	0.97620 0.76070 0.67696 -0.14100
N 	N 	0.41170 0.05380 0.95809 -0.27300
N 	N 	0.98950 0.05610 0.07671 -0.27300
N 	N 	0.40640 0.20820 0.14984 -0.27600
N 	N 	0.65510 0.08610 0.03853 -0.14400
N 	N 	0.65800 0.13130 0.08386 -0.13300
N 	N 	0.51010 0.12280 0.05685 -0.13700
N 	N 	0.08950 0.96040 0.10618 -0.26800
N 	N 	0.10130 0.61050 0.10241 -0.27000
N 	N 	0.90780 0.76720 0.27995 -0.27000
N 	N 	0.02170 0.82550 0.17917 -0.13800
N 	N 	0.05970 0.78500 0.13370 -0.13800
N 	N 	0.02380 0.73930 0.17696 -0.14100
Zn	Zn	0.85011 0.45402 0.91669 1.16300
Zn	Zn	0.62268 0.47408 0.08525 1.16400
Zn	Zn	0.32664 0.74238 0.31795 1.16400
Zn	Zn	0.14989 0.04598 0.41669 1.16300
Zn	Zn	0.37732 0.02592 0.58525 1.16400
Zn	Zn	0.67336 0.75762 0.81795 1.16400
Zn	Zn	0.35011 0.54598 0.58331 1.16300
Zn	Zn	0.12268 0.52592 0.41475 1.16300
Zn	Zn	0.82664 0.25762 0.18205 1.16400
Zn	Zn	0.64989 0.95402 0.08331 1.16300
Zn	Zn	0.87732 0.97408 0.91475 1.16300
Zn	Zn	0.17336 0.24238 0.68205 1.16400
H 	H 	0.04040 0.47160 0.94600 -0.01200
H 	H 	0.12430 0.45080 0.98930 0.09100
H 	H 	0.87310 0.39620 0.02230 0.07900
H 	H 	0.79770 0.42060 0.97900 -0.00500
H 	H 	0.47190 0.41720 0.11690 -0.00800
H 	H 	0.31210 0.39120 0.11080 0.09400
H 	H 	0.32660 0.43610 0.02480 0.08900
H 	H 	0.48210 0.46350 0.03440 -0.00500
H 	H 	0.79100 0.31120 0.12620 -0.00900
H 	H 	0.87370 0.34850 0.08800 0.08000
H 	H 	0.12510 0.31500 0.12900 0.08000
H 	H 	0.03500 0.27780 0.16600 -0.01600
H 	H 	0.60260 0.58100 0.07050 -0.00700
H 	H 	0.58700 0.65580 0.09420 0.08200
H 	H 	0.54060 0.58390 0.17070 0.08300
H 	H 	0.56180 0.51170 0.14570 -0.01000
H 	H 	0.56440 0.91950 0.14060 -0.01000
H 	H 	0.53400 0.84900 0.16620 0.08000
H 	H 	0.59840 0.77350 0.09140 0.07900
H 	H 	0.62650 0.84740 0.06800 -0.01500
H 	H 	0.39460 0.66180 0.27830 -0.01000
H 	H 	0.45390 0.65090 0.23050 0.07900
H 	H 	0.50040 0.79650 0.22630 0.07800
H 	H 	0.44210 0.80220 0.27470 0.00400
H 	H 	0.95960 0.02840 0.44600 -0.01200
H 	H 	0.87570 0.04920 0.48930 0.09100
H 	H 	0.12690 0.10380 0.52230 0.07900
H 	H 	0.20230 0.07940 0.47900 -0.00500
H 	H 	0.52810 0.08280 0.61690 -0.00800
H 	H 	0.68790 0.10880 0.61080 0.09400
H 	H 	0.67340 0.06390 0.52480 0.08900
H 	H 	0.51790 0.03650 0.53440 -0.00500
H 	H 	0.20900 0.18880 0.62620 -0.00900
H 	H 	0.12630 0.15150 0.58800 0.08000
H 	H 	0.87490 0.18500 0.62900 0.08000
H 	H 	0.96500 0.22220 0.66600 -0.01700
H 	H 	0.39740 0.91900 0.57050 -0.00700
H 	H 	0.41300 0.84420 0.59420 0.08200
H 	H 	0.45940 0.91610 0.67070 0.08300
H 	H 	0.43820 0.98830 0.64570 -0.01000
H 	H 	0.43560 0.58050 0.64060 -0.01000
H 	H 	0.46600 0.65100 0.66620 0.08000
H 	H 	0.40160 0.72650 0.59140 0.07900
H 	H 	0.37350 0.65260 0.56800 -0.01500
H 	H 	0.60540 0.83820 0.77830 -0.01000
H 	H 	0.54610 0.84910 0.73050 0.07900
H 	H 	0.49960 0.70350 0.72630 0.07800
H 	H 	0.55790 0.69780 0.77470 0.00400
H 	H 	0.54040 0.52840 0.55400 -0.01200
H 	H 	0.62430 0.54920 0.51070 0.09100
H 	H 	0.37310 0.60380 0.47770 0.07900
H 	H 	0.29770 0.57940 0.52100 -0.00500
H 	H 	0.97190 0.58280 0.38310 -0.00800
H 	H 	0.81210 0.60880 0.38920 0.09400
H 	H 	0.82660 0.56390 0.47520 0.08900
H 	H 	0.98210 0.53650 0.46560 -0.00500
H 	H 	0.29100 0.68880 0.37380 -0.00900
H 	H 	0.37370 0.65150 0.41200 0.08000
H 	H 	0.62510 0.68500 0.37100 0.08000
H 	H 	0.53500 0.72220 0.33400 -0.01700
H 	H 	0.10260 0.41900 0.42950 -0.00700
H 	H 	0.08700 0.34420 0.40580 0.08200
H 	H 	0.04060 0.41610 0.32930 0.08300
H 	H 	0.06180 0.48830 0.35430 -0.01100
H 	H 	0.06440 0.08050 0.35940 -0.01000
H 	H 	0.03400 0.15100 0.33380 0.08000
H 	H 	0.09840 0.22650 0.40860 0.07900
H 	H 	0.12650 0.15260 0.43200 -0.01500
H 	H 	0.89460 0.33820 0.22170 -0.01000
H 	H 	0.95390 0.34910 0.26950 0.07900
H 	H 	0.00040 0.20350 0.27370 0.07600
H 	H 	0.94210 0.19780 0.22530 0.00500
H 	H 	0.45960 0.97160 0.05400 -0.01200
H 	H 	0.37570 0.95080 0.01070 0.09100
H 	H 	0.62690 0.89620 0.97770 0.07900
H 	H 	0.70230 0.92060 0.02100 -0.00500
H 	H 	0.02810 0.91720 0.88310 -0.00700
H 	H 	0.18790 0.89120 0.88920 0.09400
H 	H 	0.17340 0.93610 0.97520 0.08900
H 	H 	0.01790 0.96350 0.96560 -0.00500
H 	H 	0.70900 0.81120 0.87380 -0.00900
H 	H 	0.62630 0.84850 0.91200 0.08000
H 	H 	0.37490 0.81500 0.87100 0.08000
H 	H 	0.46500 0.77780 0.83400 -0.01700
H 	H 	0.89740 0.08100 0.92950 -0.00700
H 	H 	0.91300 0.15580 0.90580 0.08200
H 	H 	0.95940 0.08390 0.82930 0.08300
H 	H 	0.93820 0.01170 0.85430 -0.01000
H 	H 	0.93560 0.41950 0.85940 -0.01000
H 	H 	0.96600 0.34900 0.83380 0.08000
H 	H 	0.90160 0.27350 0.90860 0.07900
H 	H 	0.87350 0.34740 0.93200 -0.01500
H 	H 	0.10540 0.16180 0.72170 -0.01000
H 	H 	0.04610 0.15090 0.76950 0.07900
H 	H 	0.99960 0.29650 0.77370 0.07700
H 	H 	0.05790 0.30220 0.72530 0.00400
C 	C 	0.00670 0.45570 0.96160 0.06500
C 	C 	0.05760 0.44310 0.98730 -0.11900
C 	C 	0.00800 0.41890 0.00977 0.05300
C 	C 	0.90940 0.41110 0.00690 -0.11700
C 	C 	0.86550 0.42560 0.98080 0.07000
C 	C 	0.44090 0.42190 0.09830 0.07000
C 	C 	0.34600 0.40550 0.09460 -0.12500
C 	C 	0.30180 0.41020 0.06740 0.04800
C 	C 	0.35430 0.43240 0.04400 -0.12400
C 	C 	0.44670 0.44840 0.04990 0.07000
C 	C 	0.85970 0.31220 0.12670 0.06500
C 	C 	0.90890 0.33430 0.10390 -0.10900
C 	C 	0.00780 0.33620 0.10390 0.05900
C 	C 	0.05640 0.31460 0.12790 -0.12000
C 	C 	0.00190 0.29280 0.14990 0.07800
C 	C 	0.06130 0.40230 0.03670 0.09500
C 	C 	0.19890 0.39580 0.06290 0.09100
C 	C 	0.06320 0.36130 0.08014 0.10400
C 	C 	0.59230 0.58170 0.09140 0.07300
C 	C 	0.58060 0.62650 0.10520 -0.11800
C 	C 	0.55990 0.62750 0.13470 0.06200
C 	C 	0.55410 0.58410 0.15000 -0.12300
C 	C 	0.56790 0.54140 0.13500 0.07700
C 	C 	0.57230 0.88930 0.13070 0.06400
C 	C 	0.55360 0.84750 0.14600 -0.11600
C 	C 	0.56330 0.80300 0.13199 0.05100
C 	C 	0.59140 0.80310 0.10200 -0.11900
C 	C 	0.60860 0.84730 0.08840 0.07400
C 	C 	0.41470 0.68940 0.26730 0.06700
C 	C 	0.45020 0.68260 0.23880 -0.11300
C 	C 	0.47990 0.72220 0.22246 0.04500
C 	C 	0.47790 0.76840 0.23640 -0.10400
C 	C 	0.44220 0.77150 0.26510 0.05500
C 	C 	0.54670 0.67490 0.15020 0.09700
C 	C 	0.54810 0.75690 0.14864 0.10400
C 	C 	0.51120 0.71870 0.19100 0.10600
C 	C 	0.99330 0.04430 0.46160 0.06600
C 	C 	0.94240 0.05690 0.48730 -0.12000
C 	C 	0.99200 0.08110 0.50977 0.05500
C 	C 	0.09060 0.08890 0.50690 -0.11900
C 	C 	0.13450 0.07440 0.48080 0.07100
C 	C 	0.55910 0.07810 0.59830 0.07000
C 	C 	0.65400 0.09450 0.59460 -0.12500
C 	C 	0.69820 0.08980 0.56740 0.04800
C 	C 	0.64570 0.06760 0.54400 -0.12400
C 	C 	0.55330 0.05160 0.54990 0.07000
C 	C 	0.14030 0.18780 0.62670 0.06600
C 	C 	0.09110 0.16570 0.60390 -0.11100
C 	C 	0.99220 0.16380 0.60390 0.06000
C 	C 	0.94360 0.18540 0.62790 -0.12100
C 	C 	0.99810 0.20720 0.64990 0.07900
C 	C 	0.93870 0.09770 0.53670 0.09500
C 	C 	0.80110 0.10420 0.56290 0.09100
C 	C 	0.93680 0.13870 0.58014 0.10300
C 	C 	0.40770 0.91830 0.59140 0.07300
C 	C 	0.41940 0.87350 0.60520 -0.11800
C 	C 	0.44010 0.87250 0.63470 0.06200
C 	C 	0.44590 0.91590 0.65000 -0.12300
C 	C 	0.43210 0.95860 0.63500 0.07700
C 	C 	0.42770 0.61070 0.63070 0.06400
C 	C 	0.44640 0.65250 0.64600 -0.11600
C 	C 	0.43670 0.69700 0.63199 0.05100
C 	C 	0.40860 0.69690 0.60200 -0.11900
C 	C 	0.39140 0.65270 0.58840 0.07400
C 	C 	0.58530 0.81060 0.76730 0.06700
C 	C 	0.54980 0.81740 0.73880 -0.11300
C 	C 	0.52010 0.77780 0.72246 0.04500
C 	C 	0.52210 0.73160 0.73640 -0.10400
C 	C 	0.55780 0.72850 0.76510 0.05500
C 	C 	0.45330 0.82510 0.65020 0.09700
C 	C 	0.45190 0.74310 0.64864 0.10400
C 	C 	0.48880 0.78130 0.69100 0.10600
C 	C 	0.50670 0.54430 0.53840 0.06500
C 	C 	0.55760 0.55690 0.51270 -0.12000
C 	C 	0.50800 0.58110 0.49023 0.05400
C 	C 	0.40940 0.58890 0.49310 -0.11800
C 	C 	0.36550 0.57440 0.51920 0.07100
C 	C 	0.94090 0.57810 0.40170 0.07000
C 	C 	0.84600 0.59450 0.40540 -0.12500
C 	C 	0.80180 0.58980 0.43260 0.04800
C 	C 	0.85430 0.56760 0.45600 -0.12400
C 	C 	0.94670 0.55160 0.45010 0.07000
C 	C 	0.35970 0.68780 0.37330 0.06600
C 	C 	0.40890 0.66570 0.39610 -0.11100
C 	C 	0.50780 0.66380 0.39610 0.06100
C 	C 	0.55640 0.68540 0.37210 -0.12100
C 	C 	0.50190 0.70720 0.35010 0.08000
C 	C 	0.56130 0.59770 0.46330 0.09500
C 	C 	0.69890 0.60420 0.43710 0.09100
C 	C 	0.56320 0.63870 0.41986 0.10300
C 	C 	0.09230 0.41830 0.40860 0.07300
C 	C 	0.08060 0.37350 0.39480 -0.11800
C 	C 	0.05990 0.37250 0.36530 0.06200
C 	C 	0.05410 0.41590 0.35000 -0.12300
C 	C 	0.06790 0.45860 0.36500 0.07700
C 	C 	0.07230 0.11070 0.36930 0.06300
C 	C 	0.05360 0.15250 0.35400 -0.11700
C 	C 	0.06330 0.19700 0.36801 0.05100
C 	C 	0.09140 0.19690 0.39800 -0.11900
C 	C 	0.10860 0.15270 0.41160 0.07400
C 	C 	0.91470 0.31060 0.23270 0.06800
C 	C 	0.95020 0.31740 0.26120 -0.11300
C 	C 	0.97990 0.27780 0.27754 0.04500
C 	C 	0.97790 0.23160 0.26360 -0.10100
C 	C 	0.94220 0.22850 0.23490 0.05400
C 	C 	0.04670 0.32510 0.34980 0.09700
C 	C 	0.04810 0.24310 0.35136 0.10300
C 	C 	0.01120 0.28130 0.30900 0.10400
C 	C 	0.49330 0.95570 0.03840 0.06500
C 	C 	0.44240 0.94310 0.01270 -0.12000
C 	C 	0.49200 0.91890 0.99023 0.05400
C 	C 	0.59060 0.91110 0.99310 -0.11800
C 	C 	0.63450 0.92560 0.01920 0.07100
C 	C 	0.05910 0.92190 0.90170 0.07000
C 	C 	0.15400 0.90550 0.90540 -0.12500
C 	C 	0.19820 0.91020 0.93260 0.04800
C 	C 	0.14570 0.93240 0.95600 -0.12400
C 	C 	0.05330 0.94840 0.95010 0.07000
C 	C 	0.64030 0.81220 0.87330 0.06600
C 	C 	0.59110 0.83430 0.89610 -0.11100
C 	C 	0.49220 0.83620 0.89610 0.06100
C 	C 	0.44360 0.81460 0.87210 -0.12100
C 	C 	0.49810 0.79280 0.85010 0.08000
C 	C 	0.43870 0.90230 0.96330 0.09500
C 	C 	0.30110 0.89580 0.93710 0.09100
C 	C 	0.43680 0.86130 0.91986 0.10300
C 	C 	0.90770 0.08170 0.90860 0.07300
C 	C 	0.91940 0.12650 0.89480 -0.11800
C 	C 	0.94010 0.12750 0.86530 0.06200
C 	C 	0.94590 0.08410 0.85000 -0.12300
C 	C 	0.93210 0.04140 0.86500 0.07700
C 	C 	0.92770 0.38930 0.86930 0.06300
C 	C 	0.94640 0.34750 0.85400 -0.11600
C 	C 	0.93670 0.30300 0.86801 0.05100
C 	C 	0.90860 0.30310 0.89800 -0.11900
C 	C 	0.89140 0.34730 0.91160 0.07400
C 	C 	0.08530 0.18940 0.73270 0.06700
C 	C 	0.04980 0.18260 0.76120 -0.11300
C 	C 	0.02010 0.22220 0.77754 0.04500
C 	C 	0.02210 0.26840 0.76360 -0.10200
C 	C 	0.05780 0.27150 0.73490 0.05400
C 	C 	0.95330 0.17490 0.84980 0.09700
C 	C 	0.95190 0.25690 0.85136 0.10400
C 	C 	0.98880 0.21870 0.80900 0.10500
I 	I 	0.93504 0.52068 0.88789 -0.36300
I 	I 	0.66891 0.44062 0.92185 -0.38600
I 	I 	0.69976 0.49477 0.03484 -0.38900
I 	I 	0.70730 0.42385 0.12401 -0.37400
I 	I 	0.31485 0.83304 0.32890 -0.37300
I 	I 	0.16960 0.69499 0.30968 -0.36900
I 	I 	0.06496 0.97932 0.38789 -0.36200
I 	I 	0.33109 0.05938 0.42185 -0.38600
I 	I 	0.30024 0.00523 0.53484 -0.38900
I 	I 	0.29270 0.07615 0.62401 -0.37500
I 	I 	0.68515 0.66696 0.82890 -0.37300
I 	I 	0.83040 0.80501 0.80968 -0.37000
I 	I 	0.43504 0.47932 0.61211 -0.36200
I 	I 	0.16891 0.55938 0.57815 -0.38500
I 	I 	0.19976 0.50523 0.46516 -0.38900
I 	I 	0.20730 0.57615 0.37599 -0.37500
I 	I 	0.81485 0.16696 0.17110 -0.37200
I 	I 	0.66960 0.30501 0.19032 -0.36900
I 	I 	0.56496 0.02068 0.11211 -0.36200
I 	I 	0.83109 0.94062 0.07815 -0.38600
I 	I 	0.80024 0.99477 0.96516 -0.39000
I 	I 	0.79270 0.92385 0.87599 -0.37500
I 	I 	0.18515 0.33304 0.67110 -0.37300
I 	I 	0.33040 0.19499 0.69032 -0.36900
N 	N 	0.91170 0.44620 0.95809 -0.27300
N 	N 	0.48950 0.44390 0.07671 -0.27400
N 	N 	0.90640 0.29180 0.14984 -0.27500
N 	N 	0.15510 0.41390 0.03853 -0.14400
N 	N 	0.15800 0.36870 0.08386 -0.13400
N 	N 	0.01010 0.37720 0.05685 -0.13700
N 	N 	0.58950 0.53960 0.10618 -0.26800
N 	N 	0.60130 0.88950 0.10241 -0.27000
N 	N 	0.40780 0.73280 0.27995 -0.27000
N 	N 	0.52170 0.67450 0.17917 -0.13800
N 	N 	0.55970 0.71500 0.13370 -0.13800
N 	N 	0.52380 0.76070 0.17696 -0.14100
N 	N 	0.08830 0.05380 0.45809 -0.27400
N 	N 	0.51050 0.05610 0.57671 -0.27400
N 	N 	0.09360 0.20820 0.64984 -0.27600
N 	N 	0.84490 0.08610 0.53853 -0.14400
N 	N 	0.84200 0.13130 0.58386 -0.13300
N 	N 	0.98990 0.12280 0.55685 -0.13700
N 	N 	0.41050 0.96040 0.60618 -0.26800
N 	N 	0.39870 0.61050 0.60241 -0.27000
N 	N 	0.59220 0.76720 0.77995 -0.27000
N 	N 	0.47830 0.82550 0.67917 -0.13800
N 	N 	0.44030 0.78500 0.63370 -0.13800
N 	N 	0.47620 0.73930 0.67696 -0.14100
N 	N 	0.41170 0.55380 0.54191 -0.27300
N 	N 	0.98950 0.55610 0.42329 -0.27300
N 	N 	0.40640 0.70820 0.35016 -0.27600
N 	N 	0.65510 0.58610 0.46147 -0.14400
N 	N 	0.65800 0.63130 0.41614 -0.13300
N 	N 	0.51010 0.62280 0.44315 -0.13700
N 	N 	0.08950 0.46040 0.39382 -0.26800
N 	N 	0.10130 0.11050 0.39759 -0.27000
N 	N 	0.90780 0.26720 0.22005 -0.26900
N 	N 	0.02170 0.32550 0.32083 -0.13800
N 	N 	0.05970 0.28500 0.36630 -0.13800
N 	N 	0.02380 0.23930 0.32304 -0.14100
N 	N 	0.58830 0.94620 0.04191 -0.27300
N 	N 	0.01050 0.94390 0.92329 -0.27300
N 	N 	0.59360 0.79180 0.85016 -0.27600
N 	N 	0.34490 0.91390 0.96147 -0.14400
N 	N 	0.34200 0.86870 0.91614 -0.13300
N 	N 	0.48990 0.87720 0.94315 -0.13700
N 	N 	0.91050 0.03960 0.89382 -0.26800
N 	N 	0.89870 0.38950 0.89759 -0.27000
N 	N 	0.09220 0.23280 0.72005 -0.27000
N 	N 	0.97830 0.17450 0.82083 -0.13800
N 	N 	0.94030 0.21500 0.86630 -0.13800
N 	N 	0.97620 0.26070 0.82304 -0.14100
