data_crystal

_cell_length_a 13.73770
_cell_length_b 27.39400
_cell_length_c 45.07200
_cell_angle_alpha 90.00000
_cell_angle_beta  90.00000
_cell_angle_gamma 90.00000

_symmetry_space_group_name_	'P 1'
_symmetry_space_group_name_H-M	'P 1'

loop_
_symmetry_equiv_pos_as_xyz
  x,y,z

loop_
_atom_site_label
_atom_site_type_symbol
_atom_site_fract_x
_atom_site_fract_y
_atom_site_fract_z
_atom_site_charge
Zn	Zn	0.82900 0.25695 0.81670 1.16300
Zn	Zn	0.85259 0.45403 0.08130 1.16400
Zn	Zn	0.12407 0.52598 0.58518 1.16500
Zn	Zn	0.17100 0.24305 0.31670 1.16300
Zn	Zn	0.14741 0.04597 0.58130 1.16400
Zn	Zn	0.87593 0.97402 0.08518 1.16400
Zn	Zn	0.32900 0.74305 0.68330 1.16300
Zn	Zn	0.35259 0.54597 0.41870 1.16400
Zn	Zn	0.62407 0.47402 0.91482 1.16500
Zn	Zn	0.67100 0.75695 0.18330 1.16300
Zn	Zn	0.64741 0.95403 0.91870 1.16400
Zn	Zn	0.37593 0.02598 0.41482 1.16500
H 	H 	0.03800 0.27210 0.83490 -0.02000
H 	H 	0.12650 0.31080 0.87090 0.08100
H 	H 	0.87520 0.35180 0.90850 0.08600
H 	H 	0.79290 0.31540 0.87060 -0.01200
H 	H 	0.79960 0.41700 0.02090 -0.01200
H 	H 	0.87660 0.39030 0.97790 0.08200
H 	H 	0.12210 0.45160 0.00790 0.09300
H 	H 	0.04180 0.47150 0.05170 -0.01400
H 	H 	0.48260 0.46140 0.96530 -0.00500
H 	H 	0.32680 0.43310 0.97380 0.08900
H 	H 	0.31610 0.38920 0.88840 0.09600
H 	H 	0.47120 0.41770 0.88210 -0.00800
H 	H 	0.06110 0.08010 0.63880 -0.00800
H 	H 	0.03230 0.15000 0.66490 0.08200
H 	H 	0.10320 0.22740 0.59160 0.08300
H 	H 	0.13220 0.15390 0.56750 -0.02000
H 	H 	0.10520 0.41910 0.57020 -0.00800
H 	H 	0.08580 0.34440 0.59370 0.08100
H 	H 	0.04260 0.41590 0.67050 0.08400
H 	H 	0.06800 0.48780 0.64550 -0.01000
H 	H 	0.90140 0.33760 0.77740 -0.01200
H 	H 	0.95860 0.34820 0.72990 0.08300
H 	H 	0.99980 0.20330 0.72530 0.08500
H 	H 	0.94350 0.19680 0.77310 -0.00300
H 	H 	0.96200 0.22790 0.33490 -0.02000
H 	H 	0.87350 0.18920 0.37090 0.08200
H 	H 	0.12480 0.14820 0.40850 0.08600
H 	H 	0.20710 0.18460 0.37060 -0.01200
H 	H 	0.20040 0.08300 0.52090 -0.01200
H 	H 	0.12340 0.10970 0.47790 0.08300
H 	H 	0.87790 0.04840 0.50790 0.09400
H 	H 	0.95820 0.02850 0.55170 -0.01500
H 	H 	0.51740 0.03860 0.46530 -0.00500
H 	H 	0.67320 0.06690 0.47380 0.08900
H 	H 	0.68390 0.11080 0.38840 0.09600
H 	H 	0.52880 0.08230 0.38210 -0.00800
H 	H 	0.93890 0.41990 0.13880 -0.00800
H 	H 	0.96770 0.35000 0.16490 0.08200
H 	H 	0.89680 0.27260 0.09160 0.08300
H 	H 	0.86780 0.34610 0.06750 -0.01900
H 	H 	0.89480 0.08090 0.07020 -0.00800
H 	H 	0.91420 0.15560 0.09370 0.08100
H 	H 	0.95740 0.08410 0.17050 0.08400
H 	H 	0.93200 0.01220 0.14550 -0.01000
H 	H 	0.09860 0.16240 0.27740 -0.01100
H 	H 	0.04140 0.15180 0.22990 0.08300
H 	H 	0.00020 0.29670 0.22530 0.08500
H 	H 	0.05650 0.30320 0.27310 -0.00300
H 	H 	0.53800 0.72790 0.66510 -0.02000
H 	H 	0.62650 0.68920 0.62910 0.08200
H 	H 	0.37520 0.64820 0.59150 0.08600
H 	H 	0.29290 0.68460 0.62940 -0.01200
H 	H 	0.29960 0.58300 0.47910 -0.01200
H 	H 	0.37660 0.60970 0.52210 0.08300
H 	H 	0.62210 0.54840 0.49210 0.09300
H 	H 	0.54180 0.52850 0.44830 -0.01400
H 	H 	0.98260 0.53860 0.53470 -0.00500
H 	H 	0.82680 0.56690 0.52620 0.08900
H 	H 	0.81610 0.61080 0.61160 0.09600
H 	H 	0.97120 0.58230 0.61790 -0.00800
H 	H 	0.56110 0.91990 0.86120 -0.00800
H 	H 	0.53230 0.85000 0.83510 0.08200
H 	H 	0.60320 0.77260 0.90840 0.08300
H 	H 	0.63220 0.84610 0.93250 -0.01900
H 	H 	0.60520 0.58090 0.92980 -0.00800
H 	H 	0.58580 0.65560 0.90630 0.08100
H 	H 	0.54260 0.58410 0.82950 0.08400
H 	H 	0.56800 0.51220 0.85450 -0.01000
H 	H 	0.40140 0.66240 0.72260 -0.01100
H 	H 	0.45860 0.65180 0.77010 0.08300
H 	H 	0.49980 0.79670 0.77470 0.08500
H 	H 	0.44350 0.80320 0.72690 -0.00300
H 	H 	0.46200 0.77210 0.16510 -0.02000
H 	H 	0.37350 0.81080 0.12910 0.08200
H 	H 	0.62480 0.85180 0.09150 0.08600
H 	H 	0.70710 0.81540 0.12940 -0.01200
H 	H 	0.70040 0.91700 0.97910 -0.01200
H 	H 	0.62340 0.89030 0.02210 0.08300
H 	H 	0.37790 0.95160 0.99210 0.09400
H 	H 	0.45820 0.97150 0.94830 -0.01400
H 	H 	0.01740 0.96140 0.03470 -0.00400
H 	H 	0.17320 0.93310 0.02620 0.08900
H 	H 	0.18390 0.88920 0.11160 0.09600
H 	H 	0.02880 0.91770 0.11790 -0.00800
H 	H 	0.43890 0.58010 0.36120 -0.00800
H 	H 	0.46770 0.65000 0.33510 0.08200
H 	H 	0.39680 0.72740 0.40840 0.08300
H 	H 	0.36780 0.65390 0.43250 -0.01900
H 	H 	0.39480 0.91910 0.42980 -0.00800
H 	H 	0.41420 0.84440 0.40630 0.08100
H 	H 	0.45740 0.91590 0.32950 0.08400
H 	H 	0.43200 0.98780 0.35450 -0.01000
H 	H 	0.59860 0.83760 0.22260 -0.01100
H 	H 	0.54140 0.84820 0.27010 0.08300
H 	H 	0.50020 0.70330 0.27470 0.08500
H 	H 	0.55650 0.69680 0.22690 -0.00300
C 	C 	0.00440 0.28940 0.85010 0.08400
C 	C 	0.05740 0.31150 0.87160 -0.13100
C 	C 	0.00990 0.33510 0.89460 0.06900
C 	C 	0.91080 0.33570 0.89330 -0.12300
C 	C 	0.86200 0.31400 0.87090 0.08000
C 	C 	0.86730 0.42290 0.01870 0.08500
C 	C 	0.91230 0.40740 0.99260 -0.12900
C 	C 	0.00900 0.41740 0.98890 0.06300
C 	C 	0.05590 0.44260 0.01050 -0.13000
C 	C 	0.00720 0.45530 0.03630 0.07300
C 	C 	0.44800 0.44660 0.94950 0.07000
C 	C 	0.35510 0.42990 0.95470 -0.12700
C 	C 	0.30320 0.40850 0.93180 0.05300
C 	C 	0.34910 0.40410 0.90460 -0.13200
C 	C 	0.44130 0.42120 0.90100 0.07600
C 	C 	0.06490 0.36030 0.91850 0.10100
C 	C 	0.06150 0.39960 0.96230 0.09400
C 	C 	0.20000 0.39350 0.93600 0.09000
C 	C 	0.07090 0.11070 0.62930 0.06300
C 	C 	0.05360 0.15170 0.64490 -0.12300
C 	C 	0.06750 0.19620 0.63110 0.06000
C 	C 	0.09550 0.19730 0.60180 -0.13100
C 	C 	0.11210 0.15340 0.58770 0.08600
C 	C 	0.09410 0.41840 0.59100 0.07400
C 	C 	0.08090 0.37380 0.60490 -0.11600
C 	C 	0.06090 0.37200 0.63460 0.05900
C 	C 	0.05630 0.41540 0.64990 -0.12400
C 	C 	0.07180 0.45800 0.63480 0.07900
C 	C 	0.92010 0.30970 0.76620 0.07300
C 	C 	0.95440 0.31630 0.73810 -0.12500
C 	C 	0.98290 0.27670 0.72180 0.05900
C 	C 	0.97860 0.23170 0.73550 -0.12400
C 	C 	0.94400 0.22790 0.76390 0.07600
C 	C 	0.05180 0.24310 0.64770 0.10200
C 	C 	0.04960 0.32440 0.64960 0.10200
C 	C 	0.01360 0.28010 0.69010 0.10400
C 	C 	0.99560 0.21060 0.35010 0.08600
C 	C 	0.94260 0.18850 0.37160 -0.13200
C 	C 	0.99010 0.16490 0.39460 0.07100
C 	C 	0.08920 0.16430 0.39330 -0.12500
C 	C 	0.13800 0.18600 0.37090 0.08100
C 	C 	0.13270 0.07710 0.51870 0.08600
C 	C 	0.08770 0.09260 0.49260 -0.13100
C 	C 	0.99100 0.08260 0.48890 0.06500
C 	C 	0.94410 0.05740 0.51050 -0.13200
C 	C 	0.99280 0.04470 0.53630 0.07500
C 	C 	0.55200 0.05340 0.44950 0.07000
C 	C 	0.64490 0.07010 0.45470 -0.12700
C 	C 	0.69680 0.09150 0.43180 0.05300
C 	C 	0.65090 0.09590 0.40460 -0.13200
C 	C 	0.55870 0.07880 0.40100 0.07600
C 	C 	0.93510 0.13970 0.41850 0.10100
C 	C 	0.93850 0.10040 0.46230 0.09400
C 	C 	0.80000 0.10650 0.43600 0.09000
C 	C 	0.92910 0.38930 0.12930 0.06300
C 	C 	0.94640 0.34830 0.14490 -0.12300
C 	C 	0.93250 0.30380 0.13110 0.06000
C 	C 	0.90450 0.30270 0.10180 -0.13100
C 	C 	0.88790 0.34660 0.08770 0.08600
C 	C 	0.90590 0.08160 0.09100 0.07400
C 	C 	0.91910 0.12620 0.10490 -0.11600
C 	C 	0.93910 0.12800 0.13460 0.05900
C 	C 	0.94370 0.08460 0.14990 -0.12400
C 	C 	0.92820 0.04200 0.13480 0.07900
C 	C 	0.07990 0.19030 0.26620 0.07300
C 	C 	0.04560 0.18370 0.23810 -0.12400
C 	C 	0.01710 0.22330 0.22180 0.05800
C 	C 	0.02140 0.26830 0.23550 -0.12300
C 	C 	0.05600 0.27210 0.26390 0.07600
C 	C 	0.94820 0.25690 0.14770 0.10200
C 	C 	0.95040 0.17560 0.14960 0.10200
C 	C 	0.98640 0.21990 0.19010 0.10500
C 	C 	0.50440 0.71060 0.64990 0.08600
C 	C 	0.55740 0.68850 0.62840 -0.13200
C 	C 	0.50990 0.66490 0.60540 0.07100
C 	C 	0.41080 0.66430 0.60670 -0.12500
C 	C 	0.36200 0.68600 0.62910 0.08100
C 	C 	0.36730 0.57710 0.48130 0.08500
C 	C 	0.41230 0.59260 0.50740 -0.13000
C 	C 	0.50900 0.58260 0.51110 0.06400
C 	C 	0.55590 0.55740 0.48950 -0.13100
C 	C 	0.50720 0.54470 0.46370 0.07300
C 	C 	0.94800 0.55340 0.55050 0.07000
C 	C 	0.85510 0.57010 0.54530 -0.12700
C 	C 	0.80320 0.59150 0.56820 0.05300
C 	C 	0.84910 0.59590 0.59540 -0.13200
C 	C 	0.94130 0.57880 0.59900 0.07600
C 	C 	0.56490 0.63970 0.58150 0.10100
C 	C 	0.56150 0.60040 0.53770 0.09400
C 	C 	0.70000 0.60650 0.56400 0.09000
C 	C 	0.57090 0.88930 0.87070 0.06400
C 	C 	0.55360 0.84830 0.85510 -0.12300
C 	C 	0.56750 0.80380 0.86890 0.06000
C 	C 	0.59550 0.80270 0.89820 -0.13100
C 	C 	0.61210 0.84660 0.91230 0.08600
C 	C 	0.59410 0.58160 0.90900 0.07400
C 	C 	0.58090 0.62620 0.89510 -0.11600
C 	C 	0.56090 0.62800 0.86540 0.05900
C 	C 	0.55630 0.58460 0.85010 -0.12400
C 	C 	0.57180 0.54200 0.86520 0.07900
C 	C 	0.42010 0.69030 0.73380 0.07300
C 	C 	0.45440 0.68370 0.76190 -0.12400
C 	C 	0.48290 0.72330 0.77820 0.05800
C 	C 	0.47860 0.76830 0.76450 -0.12300
C 	C 	0.44400 0.77210 0.73610 0.07600
C 	C 	0.55180 0.75690 0.85230 0.10200
C 	C 	0.54960 0.67560 0.85040 0.10200
C 	C 	0.51360 0.71990 0.80990 0.10500
C 	C 	0.49560 0.78940 0.14990 0.08600
C 	C 	0.44260 0.81150 0.12840 -0.13200
C 	C 	0.49010 0.83510 0.10540 0.07100
C 	C 	0.58920 0.83570 0.10670 -0.12500
C 	C 	0.63800 0.81400 0.12910 0.08100
C 	C 	0.63270 0.92290 0.98130 0.08500
C 	C 	0.58770 0.90740 0.00740 -0.13000
C 	C 	0.49100 0.91740 0.01110 0.06400
C 	C 	0.44410 0.94260 0.98950 -0.13100
C 	C 	0.49280 0.95530 0.96370 0.07300
C 	C 	0.05200 0.94660 0.05050 0.07000
C 	C 	0.14490 0.92990 0.04530 -0.12700
C 	C 	0.19680 0.90850 0.06820 0.05300
C 	C 	0.15090 0.90410 0.09540 -0.13200
C 	C 	0.05870 0.92120 0.09900 0.07600
C 	C 	0.43510 0.86030 0.08150 0.10100
C 	C 	0.43850 0.89960 0.03770 0.09400
C 	C 	0.30000 0.89350 0.06400 0.09000
C 	C 	0.42910 0.61070 0.37070 0.06400
C 	C 	0.44640 0.65170 0.35510 -0.12300
C 	C 	0.43250 0.69620 0.36890 0.06000
C 	C 	0.40450 0.69730 0.39820 -0.13100
C 	C 	0.38790 0.65340 0.41230 0.08600
C 	C 	0.40590 0.91840 0.40900 0.07400
C 	C 	0.41910 0.87380 0.39510 -0.11600
C 	C 	0.43910 0.87200 0.36540 0.05900
C 	C 	0.44370 0.91540 0.35010 -0.12400
C 	C 	0.42820 0.95800 0.36520 0.07900
C 	C 	0.57990 0.80970 0.23380 0.07300
C 	C 	0.54560 0.81630 0.26190 -0.12400
C 	C 	0.51710 0.77670 0.27820 0.05800
C 	C 	0.52140 0.73170 0.26450 -0.12300
C 	C 	0.55600 0.72790 0.23610 0.07600
C 	C 	0.44820 0.74310 0.35230 0.10200
C 	C 	0.45040 0.82440 0.35040 0.10200
C 	C 	0.48640 0.78010 0.30990 0.10500
I 	I 	0.81495 0.16630 0.82741 -0.37600
I 	I 	0.67432 0.30677 0.80774 -0.36800
I 	I 	0.67003 0.44230 0.07722 -0.38600
I 	I 	0.94160 0.51959 0.10962 -0.36500
I 	I 	0.20065 0.50592 0.53499 -0.39100
I 	I 	0.20962 0.57457 0.62441 -0.37400
I 	I 	0.18505 0.33370 0.32741 -0.37600
I 	I 	0.32568 0.19323 0.30774 -0.36800
I 	I 	0.32997 0.05770 0.57722 -0.38600
I 	I 	0.05840 0.98041 0.60962 -0.36400
I 	I 	0.79935 0.99408 0.03499 -0.39100
I 	I 	0.79038 0.92543 0.12441 -0.37500
I 	I 	0.31495 0.83370 0.67259 -0.37600
I 	I 	0.17432 0.69323 0.69226 -0.36800
I 	I 	0.17003 0.55770 0.42278 -0.38500
I 	I 	0.44160 0.48041 0.39038 -0.36500
I 	I 	0.70065 0.49408 0.96501 -0.39100
I 	I 	0.70962 0.42543 0.87559 -0.37400
I 	I 	0.68505 0.66630 0.17259 -0.37600
I 	I 	0.82568 0.80677 0.19226 -0.36800
I 	I 	0.82997 0.94230 0.92278 -0.38600
I 	I 	0.55840 0.01959 0.89038 -0.36500
I 	I 	0.29935 0.00592 0.46501 -0.39100
I 	I 	0.29038 0.07457 0.37559 -0.37400
N 	N 	0.90790 0.29080 0.84910 -0.28100
N 	N 	0.91270 0.44510 0.04010 -0.28000
N 	N 	0.49230 0.44280 0.92270 -0.27700
N 	N 	0.15920 0.36760 0.91460 -0.13400
N 	N 	0.01100 0.37490 0.94230 -0.13700
N 	N 	0.15550 0.41140 0.96047 -0.14400
N 	N 	0.10170 0.11090 0.60070 -0.27300
N 	N 	0.09170 0.46030 0.60590 -0.27000
N 	N 	0.91150 0.26570 0.77882 -0.27500
N 	N 	0.02630 0.23850 0.67633 -0.14100
N 	N 	0.06200 0.28500 0.63353 -0.14200
N 	N 	0.02340 0.32460 0.67856 -0.13900
N 	N 	0.09210 0.20920 0.34910 -0.28200
N 	N 	0.08730 0.05490 0.54010 -0.28100
N 	N 	0.50770 0.05720 0.42270 -0.27700
N 	N 	0.84080 0.13240 0.41460 -0.13400
N 	N 	0.98900 0.12510 0.44230 -0.13600
N 	N 	0.84450 0.08860 0.46047 -0.14400
N 	N 	0.89830 0.38910 0.10070 -0.27300
N 	N 	0.90830 0.03970 0.10590 -0.27000
N 	N 	0.08850 0.23430 0.27882 -0.27500
N 	N 	0.97370 0.26150 0.17633 -0.14100
N 	N 	0.93800 0.21500 0.13353 -0.14200
N 	N 	0.97660 0.17540 0.17856 -0.13900
N 	N 	0.40790 0.70920 0.65090 -0.28200
N 	N 	0.41270 0.55490 0.45990 -0.28000
N 	N 	0.99230 0.55720 0.57730 -0.27700
N 	N 	0.65920 0.63240 0.58540 -0.13400
N 	N 	0.51100 0.62510 0.55770 -0.13600
N 	N 	0.65550 0.58860 0.53953 -0.14400
N 	N 	0.60170 0.88910 0.89930 -0.27300
N 	N 	0.59170 0.53970 0.89410 -0.27000
N 	N 	0.41150 0.73430 0.72118 -0.27500
N 	N 	0.52630 0.76150 0.82367 -0.14100
N 	N 	0.56200 0.71500 0.86647 -0.14200
N 	N 	0.52340 0.67540 0.82144 -0.13900
N 	N 	0.59210 0.79080 0.15090 -0.28200
N 	N 	0.58730 0.94510 0.95990 -0.28000
N 	N 	0.00770 0.94280 0.07730 -0.27700
N 	N 	0.34080 0.86760 0.08540 -0.13400
N 	N 	0.48900 0.87490 0.05770 -0.13600
N 	N 	0.34450 0.91140 0.03953 -0.14400
N 	N 	0.39830 0.61090 0.39930 -0.27300
N 	N 	0.40830 0.96030 0.39410 -0.27000
N 	N 	0.58850 0.76570 0.22118 -0.27500
N 	N 	0.47370 0.73850 0.32367 -0.14100
N 	N 	0.43800 0.78500 0.36647 -0.14200
N 	N 	0.47660 0.82460 0.32144 -0.13900
Zn	Zn	0.17100 0.74305 0.18330 1.16400
Zn	Zn	0.14741 0.54597 0.91870 1.16500
Zn	Zn	0.87593 0.47402 0.41482 1.16600
Zn	Zn	0.82900 0.75695 0.68330 1.16400
Zn	Zn	0.85259 0.95403 0.41870 1.16500
Zn	Zn	0.12407 0.02598 0.91482 1.16500
Zn	Zn	0.67100 0.25695 0.31670 1.16400
Zn	Zn	0.64741 0.45403 0.58130 1.16500
Zn	Zn	0.37593 0.52598 0.08518 1.16600
Zn	Zn	0.32900 0.24305 0.81670 1.16400
Zn	Zn	0.35259 0.04597 0.08130 1.16500
Zn	Zn	0.62407 0.97402 0.58518 1.16600
H 	H 	0.96200 0.72790 0.16510 -0.02000
H 	H 	0.87350 0.68920 0.12910 0.08100
H 	H 	0.12480 0.64820 0.09150 0.08600
H 	H 	0.20710 0.68460 0.12940 -0.01200
H 	H 	0.20040 0.58300 0.97910 -0.01200
H 	H 	0.12340 0.60970 0.02210 0.08200
H 	H 	0.87790 0.54840 0.99210 0.09300
H 	H 	0.95820 0.52850 0.94830 -0.01400
H 	H 	0.51740 0.53860 0.03470 -0.00500
H 	H 	0.67320 0.56690 0.02620 0.08900
H 	H 	0.68390 0.61080 0.11160 0.09600
H 	H 	0.52880 0.58230 0.11790 -0.00800
H 	H 	0.93890 0.91990 0.36120 -0.00800
H 	H 	0.96770 0.85000 0.33510 0.08200
H 	H 	0.89680 0.77260 0.40840 0.08300
H 	H 	0.86780 0.84610 0.43250 -0.02000
H 	H 	0.89480 0.58090 0.42980 -0.00800
H 	H 	0.91420 0.65560 0.40630 0.08100
H 	H 	0.95740 0.58410 0.32950 0.08400
H 	H 	0.93200 0.51220 0.35450 -0.01000
H 	H 	0.09860 0.66240 0.22260 -0.01200
H 	H 	0.04140 0.65180 0.27010 0.08300
H 	H 	0.00020 0.79670 0.27470 0.08500
H 	H 	0.05650 0.80320 0.22690 -0.00300
H 	H 	0.03800 0.77210 0.66510 -0.02000
H 	H 	0.12650 0.81080 0.62910 0.08200
H 	H 	0.87520 0.85180 0.59150 0.08600
H 	H 	0.79290 0.81540 0.62940 -0.01200
H 	H 	0.79960 0.91700 0.47910 -0.01200
H 	H 	0.87660 0.89030 0.52210 0.08300
H 	H 	0.12210 0.95160 0.49210 0.09400
H 	H 	0.04180 0.97150 0.44830 -0.01500
H 	H 	0.48260 0.96140 0.53470 -0.00500
H 	H 	0.32680 0.93310 0.52620 0.08900
H 	H 	0.31610 0.88920 0.61160 0.09600
H 	H 	0.47120 0.91770 0.61790 -0.00800
H 	H 	0.06110 0.58010 0.86120 -0.00800
H 	H 	0.03230 0.65000 0.83510 0.08200
H 	H 	0.10320 0.72740 0.90840 0.08300
H 	H 	0.13220 0.65390 0.93250 -0.01900
H 	H 	0.10520 0.91910 0.92980 -0.00800
H 	H 	0.08580 0.84440 0.90630 0.08100
H 	H 	0.04260 0.91590 0.82950 0.08400
H 	H 	0.06800 0.98780 0.85450 -0.01000
H 	H 	0.90140 0.83760 0.72260 -0.01100
H 	H 	0.95860 0.84820 0.77010 0.08300
H 	H 	0.99980 0.70330 0.77470 0.08500
H 	H 	0.94350 0.69680 0.72690 -0.00300
H 	H 	0.46200 0.27210 0.33490 -0.02000
H 	H 	0.37350 0.31080 0.37090 0.08200
H 	H 	0.62480 0.35180 0.40850 0.08600
H 	H 	0.70710 0.31540 0.37060 -0.01200
H 	H 	0.70040 0.41700 0.52090 -0.01200
H 	H 	0.62340 0.39030 0.47790 0.08300
H 	H 	0.37790 0.45160 0.50790 0.09300
H 	H 	0.45820 0.47150 0.55170 -0.01400
H 	H 	0.01740 0.46140 0.46530 -0.00500
H 	H 	0.17320 0.43310 0.47380 0.08900
H 	H 	0.18390 0.38920 0.38840 0.09600
H 	H 	0.02880 0.41770 0.38210 -0.00800
H 	H 	0.43890 0.08010 0.13880 -0.00800
H 	H 	0.46770 0.15000 0.16490 0.08200
H 	H 	0.39680 0.22740 0.09160 0.08300
H 	H 	0.36780 0.15390 0.06750 -0.01900
H 	H 	0.39480 0.41910 0.07020 -0.00800
H 	H 	0.41420 0.34440 0.09370 0.08100
H 	H 	0.45740 0.41590 0.17050 0.08400
H 	H 	0.43200 0.48780 0.14550 -0.01000
H 	H 	0.59860 0.33760 0.27740 -0.01100
H 	H 	0.54140 0.34820 0.22990 0.08300
H 	H 	0.50020 0.20330 0.22530 0.08500
H 	H 	0.55650 0.19680 0.27310 -0.00300
H 	H 	0.53800 0.22790 0.83490 -0.02000
H 	H 	0.62650 0.18920 0.87090 0.08200
H 	H 	0.37520 0.14820 0.90850 0.08600
H 	H 	0.29290 0.18460 0.87060 -0.01200
H 	H 	0.29960 0.08300 0.02090 -0.01200
H 	H 	0.37660 0.10970 0.97790 0.08300
H 	H 	0.62210 0.04840 0.00790 0.09400
H 	H 	0.54180 0.02850 0.05170 -0.01400
H 	H 	0.98260 0.03860 0.96530 -0.00400
H 	H 	0.82680 0.06690 0.97380 0.08900
H 	H 	0.81610 0.11080 0.88840 0.09600
H 	H 	0.97120 0.08230 0.88210 -0.00800
H 	H 	0.56110 0.41990 0.63880 -0.00800
H 	H 	0.53230 0.35000 0.66490 0.08200
H 	H 	0.60320 0.27260 0.59160 0.08300
H 	H 	0.63220 0.34610 0.56750 -0.01900
H 	H 	0.60520 0.08090 0.57020 -0.00800
H 	H 	0.58580 0.15560 0.59370 0.08100
H 	H 	0.54260 0.08410 0.67050 0.08400
H 	H 	0.56800 0.01220 0.64550 -0.01000
H 	H 	0.40140 0.16240 0.77740 -0.01100
H 	H 	0.45860 0.15180 0.72990 0.08300
H 	H 	0.49980 0.29670 0.72530 0.08500
H 	H 	0.44350 0.30320 0.77310 -0.00300
C 	C 	0.99560 0.71060 0.14990 0.08400
C 	C 	0.94260 0.68850 0.12840 -0.13100
C 	C 	0.99010 0.66490 0.10540 0.06900
C 	C 	0.08920 0.66430 0.10670 -0.12300
C 	C 	0.13800 0.68600 0.12910 0.08000
C 	C 	0.13270 0.57710 0.98130 0.08500
C 	C 	0.08770 0.59260 0.00740 -0.12900
C 	C 	0.99100 0.58260 0.01110 0.06300
C 	C 	0.94410 0.55740 0.98950 -0.13000
C 	C 	0.99280 0.54470 0.96370 0.07300
C 	C 	0.55200 0.55340 0.05050 0.07000
C 	C 	0.64490 0.57010 0.04530 -0.12700
C 	C 	0.69680 0.59150 0.06820 0.05300
C 	C 	0.65090 0.59590 0.09540 -0.13200
C 	C 	0.55870 0.57880 0.09900 0.07600
C 	C 	0.93510 0.63970 0.08150 0.10100
C 	C 	0.93850 0.60040 0.03770 0.09400
C 	C 	0.80000 0.60650 0.06400 0.09000
C 	C 	0.92910 0.88930 0.37070 0.06300
C 	C 	0.94640 0.84830 0.35510 -0.12300
C 	C 	0.93250 0.80380 0.36890 0.06000
C 	C 	0.90450 0.80270 0.39820 -0.13100
C 	C 	0.88790 0.84660 0.41230 0.08600
C 	C 	0.90590 0.58160 0.40900 0.07400
C 	C 	0.91910 0.62620 0.39510 -0.11600
C 	C 	0.93910 0.62800 0.36540 0.05900
C 	C 	0.94370 0.58460 0.35010 -0.12400
C 	C 	0.92820 0.54200 0.36520 0.07900
C 	C 	0.07990 0.69030 0.23380 0.07300
C 	C 	0.04560 0.68370 0.26190 -0.12500
C 	C 	0.01710 0.72330 0.27820 0.05900
C 	C 	0.02140 0.76830 0.26450 -0.12400
C 	C 	0.05600 0.77210 0.23610 0.07600
C 	C 	0.94820 0.75690 0.35230 0.10200
C 	C 	0.95040 0.67560 0.35040 0.10200
C 	C 	0.98640 0.71990 0.30990 0.10400
C 	C 	0.00440 0.78940 0.64990 0.08600
C 	C 	0.05740 0.81150 0.62840 -0.13200
C 	C 	0.00990 0.83510 0.60540 0.07100
C 	C 	0.91080 0.83570 0.60670 -0.12500
C 	C 	0.86200 0.81400 0.62910 0.08100
C 	C 	0.86730 0.92290 0.48130 0.08600
C 	C 	0.91230 0.90740 0.50740 -0.13100
C 	C 	0.00900 0.91740 0.51110 0.06500
C 	C 	0.05590 0.94260 0.48950 -0.13200
C 	C 	0.00720 0.95530 0.46370 0.07500
C 	C 	0.44800 0.94660 0.55050 0.07000
C 	C 	0.35510 0.92990 0.54530 -0.12700
C 	C 	0.30320 0.90850 0.56820 0.05300
C 	C 	0.34910 0.90410 0.59540 -0.13200
C 	C 	0.44130 0.92120 0.59900 0.07600
C 	C 	0.06490 0.86030 0.58150 0.10100
C 	C 	0.06150 0.89960 0.53770 0.09400
C 	C 	0.20000 0.89350 0.56400 0.09000
C 	C 	0.07090 0.61070 0.87070 0.06300
C 	C 	0.05360 0.65170 0.85510 -0.12300
C 	C 	0.06750 0.69620 0.86890 0.06000
C 	C 	0.09550 0.69730 0.89820 -0.13100
C 	C 	0.11210 0.65340 0.91230 0.08600
C 	C 	0.09410 0.91840 0.90900 0.07400
C 	C 	0.08090 0.87380 0.89510 -0.11600
C 	C 	0.06090 0.87200 0.86540 0.05900
C 	C 	0.05630 0.91540 0.85010 -0.12400
C 	C 	0.07180 0.95800 0.86520 0.07900
C 	C 	0.92010 0.80970 0.73380 0.07300
C 	C 	0.95440 0.81630 0.76190 -0.12400
C 	C 	0.98290 0.77670 0.77820 0.05800
C 	C 	0.97860 0.73170 0.76450 -0.12300
C 	C 	0.94400 0.72790 0.73610 0.07600
C 	C 	0.05180 0.74310 0.85230 0.10200
C 	C 	0.04960 0.82440 0.85040 0.10200
C 	C 	0.01360 0.78010 0.80990 0.10500
C 	C 	0.49560 0.28940 0.35010 0.08600
C 	C 	0.44260 0.31150 0.37160 -0.13200
C 	C 	0.49010 0.33510 0.39460 0.07100
C 	C 	0.58920 0.33570 0.39330 -0.12500
C 	C 	0.63800 0.31400 0.37090 0.08100
C 	C 	0.63270 0.42290 0.51870 0.08500
C 	C 	0.58770 0.40740 0.49260 -0.13000
C 	C 	0.49100 0.41740 0.48890 0.06400
C 	C 	0.44410 0.44260 0.51050 -0.13100
C 	C 	0.49280 0.45530 0.53630 0.07300
C 	C 	0.05200 0.44660 0.44950 0.07000
C 	C 	0.14490 0.42990 0.45470 -0.12700
C 	C 	0.19680 0.40850 0.43180 0.05300
C 	C 	0.15090 0.40410 0.40460 -0.13200
C 	C 	0.05870 0.42120 0.40100 0.07600
C 	C 	0.43510 0.36030 0.41850 0.10100
C 	C 	0.43850 0.39960 0.46230 0.09400
C 	C 	0.30000 0.39350 0.43600 0.09000
C 	C 	0.42910 0.11070 0.12930 0.06400
C 	C 	0.44640 0.15170 0.14490 -0.12300
C 	C 	0.43250 0.19620 0.13110 0.06000
C 	C 	0.40450 0.19730 0.10180 -0.13100
C 	C 	0.38790 0.15340 0.08770 0.08600
C 	C 	0.40590 0.41840 0.09100 0.07400
C 	C 	0.41910 0.37380 0.10490 -0.11600
C 	C 	0.43910 0.37200 0.13460 0.05900
C 	C 	0.44370 0.41540 0.14990 -0.12400
C 	C 	0.42820 0.45800 0.13480 0.07900
C 	C 	0.57990 0.30970 0.26620 0.07300
C 	C 	0.54560 0.31630 0.23810 -0.12400
C 	C 	0.51710 0.27670 0.22180 0.05800
C 	C 	0.52140 0.23170 0.23550 -0.12300
C 	C 	0.55600 0.22790 0.26390 0.07600
C 	C 	0.44820 0.24310 0.14770 0.10200
C 	C 	0.45040 0.32440 0.14960 0.10200
C 	C 	0.48640 0.28010 0.19010 0.10500
C 	C 	0.50440 0.21060 0.85010 0.08600
C 	C 	0.55740 0.18850 0.87160 -0.13200
C 	C 	0.50990 0.16490 0.89460 0.07100
C 	C 	0.41080 0.16430 0.89330 -0.12500
C 	C 	0.36200 0.18600 0.87090 0.08100
C 	C 	0.36730 0.07710 0.01870 0.08500
C 	C 	0.41230 0.09260 0.99260 -0.13000
C 	C 	0.50900 0.08260 0.98890 0.06400
C 	C 	0.55590 0.05740 0.01050 -0.13100
C 	C 	0.50720 0.04470 0.03630 0.07300
C 	C 	0.94800 0.05340 0.94950 0.07000
C 	C 	0.85510 0.07010 0.95470 -0.12700
C 	C 	0.80320 0.09150 0.93180 0.05300
C 	C 	0.84910 0.09590 0.90460 -0.13200
C 	C 	0.94130 0.07880 0.90100 0.07600
C 	C 	0.56490 0.13970 0.91850 0.10100
C 	C 	0.56150 0.10040 0.96230 0.09400
C 	C 	0.70000 0.10650 0.93600 0.09000
C 	C 	0.57090 0.38930 0.62930 0.06400
C 	C 	0.55360 0.34830 0.64490 -0.12300
C 	C 	0.56750 0.30380 0.63110 0.06000
C 	C 	0.59550 0.30270 0.60180 -0.13100
C 	C 	0.61210 0.34660 0.58770 0.08600
C 	C 	0.59410 0.08160 0.59100 0.07400
C 	C 	0.58090 0.12620 0.60490 -0.11600
C 	C 	0.56090 0.12800 0.63460 0.05900
C 	C 	0.55630 0.08460 0.64990 -0.12400
C 	C 	0.57180 0.04200 0.63480 0.07900
C 	C 	0.42010 0.19030 0.76620 0.07300
C 	C 	0.45440 0.18370 0.73810 -0.12400
C 	C 	0.48290 0.22330 0.72180 0.05800
C 	C 	0.47860 0.26830 0.73550 -0.12300
C 	C 	0.44400 0.27210 0.76390 0.07600
C 	C 	0.55180 0.25690 0.64770 0.10200
C 	C 	0.54960 0.17560 0.64960 0.10200
C 	C 	0.51360 0.21990 0.69010 0.10500
I 	I 	0.18505 0.83370 0.17259 -0.37600
I 	I 	0.32568 0.69323 0.19226 -0.36800
I 	I 	0.32997 0.55770 0.92278 -0.38600
I 	I 	0.05840 0.48041 0.89038 -0.36500
I 	I 	0.79935 0.49408 0.46501 -0.39100
I 	I 	0.79038 0.42543 0.37559 -0.37400
I 	I 	0.81495 0.66630 0.67259 -0.37600
I 	I 	0.67432 0.80677 0.69226 -0.36800
I 	I 	0.67003 0.94230 0.42278 -0.38600
I 	I 	0.94160 0.01959 0.39038 -0.36400
I 	I 	0.20065 0.00592 0.96501 -0.39100
I 	I 	0.20962 0.07457 0.87559 -0.37500
I 	I 	0.68505 0.16630 0.32741 -0.37600
I 	I 	0.82568 0.30677 0.30774 -0.36800
I 	I 	0.82997 0.44230 0.57722 -0.38500
I 	I 	0.55840 0.51959 0.60962 -0.36500
I 	I 	0.29935 0.50592 0.03499 -0.39100
I 	I 	0.29038 0.57457 0.12441 -0.37400
I 	I 	0.31495 0.33370 0.82741 -0.37600
I 	I 	0.17432 0.19323 0.80774 -0.36800
I 	I 	0.17003 0.05770 0.07722 -0.38600
I 	I 	0.44160 0.98041 0.10962 -0.36500
I 	I 	0.70065 0.99408 0.53499 -0.39100
I 	I 	0.70962 0.92543 0.62441 -0.37400
N 	N 	0.09210 0.70920 0.15090 -0.28100
N 	N 	0.08730 0.55490 0.95990 -0.28000
N 	N 	0.50770 0.55720 0.07730 -0.27700
N 	N 	0.84080 0.63240 0.08540 -0.13400
N 	N 	0.98900 0.62510 0.05770 -0.13700
N 	N 	0.84450 0.58860 0.03953 -0.14400
N 	N 	0.89830 0.88910 0.39930 -0.27300
N 	N 	0.90830 0.53970 0.39410 -0.27000
N 	N 	0.08850 0.73430 0.22118 -0.27500
N 	N 	0.97370 0.76150 0.32367 -0.14100
N 	N 	0.93800 0.71500 0.36647 -0.14200
N 	N 	0.97660 0.67540 0.32144 -0.13900
N 	N 	0.90790 0.79080 0.65090 -0.28200
N 	N 	0.91270 0.94510 0.45990 -0.28100
N 	N 	0.49230 0.94280 0.57730 -0.27700
N 	N 	0.15920 0.86760 0.58540 -0.13400
N 	N 	0.01100 0.87490 0.55770 -0.13600
N 	N 	0.15550 0.91140 0.53953 -0.14400
N 	N 	0.10170 0.61090 0.89930 -0.27300
N 	N 	0.09170 0.96030 0.89410 -0.27000
N 	N 	0.91150 0.76570 0.72118 -0.27500
N 	N 	0.02630 0.73850 0.82367 -0.14100
N 	N 	0.06200 0.78500 0.86647 -0.14200
N 	N 	0.02340 0.82460 0.82144 -0.13900
N 	N 	0.59210 0.29080 0.34910 -0.28200
N 	N 	0.58730 0.44510 0.54010 -0.28000
N 	N 	0.00770 0.44280 0.42270 -0.27700
N 	N 	0.34080 0.36760 0.41460 -0.13400
N 	N 	0.48900 0.37490 0.44230 -0.13600
N 	N 	0.34450 0.41140 0.46047 -0.14400
N 	N 	0.39830 0.11090 0.10070 -0.27300
N 	N 	0.40830 0.46030 0.10590 -0.27000
N 	N 	0.58850 0.26570 0.27882 -0.27500
N 	N 	0.47370 0.23850 0.17633 -0.14100
N 	N 	0.43800 0.28500 0.13353 -0.14200
N 	N 	0.47660 0.32460 0.17856 -0.13900
N 	N 	0.40790 0.20920 0.84910 -0.28200
N 	N 	0.41270 0.05490 0.04010 -0.28000
N 	N 	0.99230 0.05720 0.92270 -0.27700
N 	N 	0.65920 0.13240 0.91460 -0.13400
N 	N 	0.51100 0.12510 0.94230 -0.13600
N 	N 	0.65550 0.08860 0.96047 -0.14400
N 	N 	0.60170 0.38910 0.60070 -0.27300
N 	N 	0.59170 0.03970 0.60590 -0.27000
N 	N 	0.41150 0.23430 0.77882 -0.27500
N 	N 	0.52630 0.26150 0.67633 -0.14100
N 	N 	0.56200 0.21500 0.63353 -0.14200
N 	N 	0.52340 0.17540 0.67856 -0.13900
