data_crystal

_cell_length_a 10.24100
_cell_length_b 10.24100
_cell_length_c 14.40260
_cell_angle_alpha 90.00000
_cell_angle_beta  90.00000
_cell_angle_gamma 90.00000

_symmetry_space_group_name_	'P 1'
_symmetry_space_group_name_H-M	'P 1'

loop_
_symmetry_equiv_pos_as_xyz
  x,y,z

loop_
_atom_site_label
_atom_site_type_symbol
_atom_site_fract_x
_atom_site_fract_y
_atom_site_fract_z
_atom_site_charge
Yb	Yb	0.85287 0.85287 0.12500 1.56900
Yb	Yb	0.14713 0.14713 0.62500 1.55100
Yb	Yb	0.14713 0.85287 0.87500 1.56600
Yb	Yb	0.85287 0.14713 0.37500 1.56200
H 	H 	0.44350 0.92670 0.12020 0.00100
H 	H 	0.55650 0.07330 0.62020 0.01300
H 	H 	0.07330 0.44350 0.87020 0.00600
H 	H 	0.92670 0.55650 0.37020 0.00900
H 	H 	0.55650 0.92670 0.87980 0.01400
H 	H 	0.44350 0.07330 0.37980 0.00800
H 	H 	0.92670 0.44350 0.12980 0.00600
H 	H 	0.07330 0.55650 0.62980 0.01300
H 	H 	0.10510 0.00000 0.25000 -0.01400
H 	H 	0.89490 -0.00000 0.75000 0.01100
H 	H 	-0.00000 0.10510 -0.00000 -0.01200
H 	H 	0.00000 0.89490 0.50000 0.01000
C 	C 	0.39810 0.95670 0.17190 0.15200
C 	C 	0.26170 0.95860 0.17180 -0.16500
C 	C 	0.18420 0.91510 0.08770 0.44200
C 	C 	0.60190 0.04330 0.67190 0.11000
C 	C 	0.73830 0.04140 0.67180 -0.16800
C 	C 	0.81580 0.08490 0.58770 0.43200
C 	C 	0.04330 0.39810 0.92190 0.13500
C 	C 	0.04140 0.26170 0.92180 -0.17200
C 	C 	0.08490 0.18420 0.83770 0.43600
C 	C 	0.95670 0.60190 0.42190 0.14200
C 	C 	0.95860 0.73830 0.42180 -0.14400
C 	C 	0.91510 0.81580 0.33770 0.43300
C 	C 	0.60190 0.95670 0.82810 0.14000
C 	C 	0.73830 0.95860 0.82820 -0.13800
C 	C 	0.81580 0.91510 0.91230 0.43100
C 	C 	0.39810 0.04330 0.32810 0.12100
C 	C 	0.26170 0.04140 0.32820 -0.19000
C 	C 	0.18420 0.08490 0.41230 0.44000
C 	C 	0.95670 0.39810 0.07810 0.14500
C 	C 	0.95860 0.26170 0.07820 -0.16100
C 	C 	0.91510 0.18420 0.16230 0.43800
C 	C 	0.04330 0.60190 0.57810 0.11200
C 	C 	0.04140 0.73830 0.57820 -0.17000
C 	C 	0.08490 0.81580 0.66230 0.43200
C 	C 	0.61360 0.00000 0.25000 0.42000
C 	C 	0.46580 0.00000 0.25000 -0.21400
C 	C 	0.19590 0.00000 0.25000 0.08900
C 	C 	0.38640 -0.00000 0.75000 0.41600
C 	C 	0.53420 -0.00000 0.75000 -0.20000
C 	C 	0.80410 -0.00000 0.75000 0.07400
C 	C 	-0.00000 0.61360 -0.00000 0.40400
C 	C 	-0.00000 0.46580 -0.00000 -0.22300
C 	C 	-0.00000 0.19590 -0.00000 0.06700
C 	C 	0.00000 0.38640 0.50000 0.41700
C 	C 	0.00000 0.53420 0.50000 -0.20300
C 	C 	0.00000 0.80410 0.50000 0.07700
O 	O 	0.66770 0.92780 0.19200 -0.42800
O 	O 	0.06810 0.88870 0.09870 -0.47000
O 	O 	0.24160 0.90780 0.01120 -0.45100
O 	O 	0.33230 0.07220 0.69200 -0.45000
O 	O 	0.93190 0.11130 0.59870 -0.44500
O 	O 	0.75840 0.09220 0.51120 -0.44500
O 	O 	0.07220 0.66770 0.94200 -0.43600
O 	O 	0.11130 0.06810 0.84870 -0.47900
O 	O 	0.09220 0.24160 0.76120 -0.45100
O 	O 	0.92780 0.33230 0.44200 -0.42300
O 	O 	0.88870 0.93190 0.34870 -0.43000
O 	O 	0.90780 0.75840 0.26120 -0.43300
O 	O 	0.33230 0.92780 0.80800 -0.41900
O 	O 	0.93190 0.88870 0.90130 -0.42200
O 	O 	0.75840 0.90780 0.98880 -0.41900
O 	O 	0.66770 0.07220 0.30800 -0.45300
O 	O 	0.06810 0.11130 0.40130 -0.48300
O 	O 	0.24160 0.09220 0.48880 -0.45300
O 	O 	0.92780 0.66770 0.05800 -0.42800
O 	O 	0.88870 0.06810 0.15130 -0.47000
O 	O 	0.90780 0.24160 0.23880 -0.44000
O 	O 	0.07220 0.33230 0.55800 -0.45100
O 	O 	0.11130 0.93190 0.65130 -0.44600
O 	O 	0.09220 0.75840 0.73880 -0.44500
