data_crystal

_cell_length_a 10.42780
_cell_length_b 10.42780
_cell_length_c 14.26020
_cell_angle_alpha 90.00000
_cell_angle_beta  90.00000
_cell_angle_gamma 90.00000

_symmetry_space_group_name_	'P 1'
_symmetry_space_group_name_H-M	'P 1'

loop_
_symmetry_equiv_pos_as_xyz
  x,y,z

loop_
_atom_site_label
_atom_site_type_symbol
_atom_site_fract_x
_atom_site_fract_y
_atom_site_fract_z
_atom_site_charge
Nd	Nd	0.86886 0.13405 0.62473 2.36200
Nd	Nd	0.13114 0.86595 0.12473 2.37800
Nd	Nd	0.86595 0.86886 0.87473 2.33700
Nd	Nd	0.13405 0.13114 0.37473 2.36700
H 	H 	0.99400 0.87780 0.50020 -0.09700
H 	H 	0.08270 0.54740 0.37810 -0.03800
H 	H 	0.96470 0.55130 0.64350 -0.03400
H 	H 	0.00600 0.12220 0.00020 -0.10200
H 	H 	0.91730 0.45260 0.87810 -0.03400
H 	H 	0.03530 0.44870 0.14350 -0.03400
H 	H 	0.12220 0.99400 0.75020 -0.09200
H 	H 	0.45260 0.08270 0.62810 -0.03700
H 	H 	0.44870 0.96470 0.89350 -0.03800
H 	H 	0.87780 0.00600 0.25020 -0.09500
H 	H 	0.54740 0.91730 0.12810 -0.03500
H 	H 	0.55130 0.03530 0.39350 -0.03300
C 	C 	0.94390 0.80010 0.67550 0.52500
C 	C 	0.97850 0.72920 0.58870 -0.32300
C 	C 	0.00340 0.78930 0.50370 0.27200
C 	C 	0.04070 0.72550 0.42590 -0.32800
C 	C 	0.05310 0.59260 0.43000 0.23100
C 	C 	0.02160 0.52850 0.51060 -0.30800
C 	C 	0.98520 0.59580 0.58900 0.22300
C 	C 	0.07200 0.79580 0.33710 0.52300
C 	C 	0.02840 0.37910 0.51310 0.60200
C 	C 	0.05610 0.19990 0.17550 0.53100
C 	C 	0.02150 0.27080 0.08870 -0.33100
C 	C 	0.99660 0.21070 0.00370 0.30900
C 	C 	0.95930 0.27450 0.92590 -0.35400
C 	C 	0.94690 0.40740 0.93000 0.20900
C 	C 	0.97840 0.47150 0.01060 -0.28900
C 	C 	0.01480 0.40420 0.08900 0.22500
C 	C 	0.92800 0.20420 0.83710 0.52700
C 	C 	0.97160 0.62090 0.01310 0.62700
C 	C 	0.19990 0.94390 0.92550 0.49600
C 	C 	0.27080 0.97850 0.83870 -0.31300
C 	C 	0.21070 0.00340 0.75370 0.26300
C 	C 	0.27450 0.04070 0.67590 -0.32400
C 	C 	0.40740 0.05310 0.68000 0.22700
C 	C 	0.47150 0.02160 0.76060 -0.30700
C 	C 	0.40420 0.98520 0.83900 0.21700
C 	C 	0.20420 0.07200 0.58710 0.52100
C 	C 	0.62090 0.02840 0.76310 0.59900
C 	C 	0.80010 0.05610 0.42550 0.52500
C 	C 	0.72920 0.02150 0.33870 -0.32000
C 	C 	0.78930 0.99660 0.25370 0.26900
C 	C 	0.72550 0.95930 0.17590 -0.32400
C 	C 	0.59260 0.94690 0.18000 0.22900
C 	C 	0.52850 0.97840 0.26060 -0.30700
C 	C 	0.59580 0.01480 0.33900 0.22300
C 	C 	0.79580 0.92800 0.08710 0.52000
C 	C 	0.37910 0.97160 0.26310 0.60100
O 	O 	0.89860 0.90940 0.67260 -0.63500
O 	O 	0.95980 0.74150 0.75210 -0.55800
O 	O 	0.07570 0.91750 0.33710 -0.62700
O 	O 	0.09510 0.73200 0.26430 -0.53800
O 	O 	0.08860 0.32680 0.44940 -0.63300
O 	O 	0.97200 0.32700 0.57920 -0.62200
O 	O 	0.10140 0.09060 0.17260 -0.63800
O 	O 	0.04020 0.25850 0.25210 -0.56000
O 	O 	0.92430 0.08250 0.83710 -0.62900
O 	O 	0.90490 0.26800 0.76430 -0.53900
O 	O 	0.91140 0.67320 0.94940 -0.65600
O 	O 	0.02800 0.67300 0.07920 -0.62600
O 	O 	0.09060 0.89860 0.92260 -0.63400
O 	O 	0.25850 0.95980 0.00210 -0.53700
O 	O 	0.08250 0.07570 0.58710 -0.62500
O 	O 	0.26800 0.09510 0.51430 -0.53700
O 	O 	0.67320 0.08860 0.69940 -0.63300
O 	O 	0.67300 0.97200 0.82920 -0.62300
O 	O 	0.90940 0.10140 0.42260 -0.63600
O 	O 	0.74150 0.04020 0.50210 -0.55900
O 	O 	0.91750 0.92430 0.08710 -0.62000
O 	O 	0.73200 0.90490 0.01430 -0.52200
O 	O 	0.32680 0.91140 0.19940 -0.63300
O 	O 	0.32700 0.02800 0.32920 -0.62100
