data_crystal

_cell_length_a 30.77300
_cell_length_b 9.30880
_cell_length_c 30.41100
_cell_angle_alpha 90.00000
_cell_angle_beta  111.27200
_cell_angle_gamma 90.00000

_symmetry_space_group_name_	'P 1'
_symmetry_space_group_name_H-M	'P 1'

loop_
_symmetry_equiv_pos_as_xyz
  x,y,z

loop_
_atom_site_label
_atom_site_type_symbol
_atom_site_fract_x
_atom_site_fract_y
_atom_site_fract_z
_atom_site_charge
Tb	Tb	0.24487 0.95471 0.47780 1.96600
C 	C 	0.31810 0.24360 0.52020 0.53600
C 	C 	0.36530 0.26990 0.51750 -0.12500
C 	C 	0.38130 0.17950 0.48980 -0.00700
H 	H 	0.36360 0.10060 0.47480 0.01800
C 	C 	0.42300 0.20740 0.48490 -0.03200
H 	H 	0.43220 0.15240 0.46420 0.03900
C 	C 	0.45230 0.31890 0.51090 -0.13500
H 	H 	0.48140 0.33560 0.50900 0.08300
C 	C 	0.43600 0.40220 0.53940 0.16100
C 	C 	0.39300 0.38350 0.54170 -0.08800
H 	H 	0.38230 0.44610 0.55940 0.06800
C 	C 	0.67630 0.75170 0.92210 0.39500
C 	C 	0.63640 0.84060 0.89050 -0.03300
C 	C 	0.61440 0.79430 0.84360 -0.16000
H 	H 	0.62440 0.71160 0.83300 0.09000
C 	C 	0.57710 0.87460 0.81330 0.22200
C 	C 	0.56240 0.99710 0.83010 -0.21800
H 	H 	0.53840 0.05220 0.80950 0.10900
C 	C 	0.58210 0.03800 0.87560 0.07200
H 	H 	0.57040 0.11600 0.88690 -0.00100
C 	C 	0.62050 0.96060 0.90560 -0.09800
H 	H 	0.63560 0.99170 0.93650 0.06000
C 	C 	0.69030 0.30430 0.54490 0.46200
C 	C 	0.65040 0.32080 0.56240 -0.06400
C 	C 	0.63330 0.45440 0.56850 -0.06200
H 	H 	0.64680 0.53740 0.56200 0.05700
C 	C 	0.59740 0.46410 0.58360 0.03700
H 	H 	0.58700 0.55470 0.58820 0.02100
C 	C 	0.57500 0.34120 0.59280 -0.19000
H 	H 	0.54980 0.34880 0.60270 0.10000
C 	C 	0.59270 0.20670 0.58620 0.19900
C 	C 	0.62970 0.19800 0.57180 -0.14000
H 	H 	0.64120 0.10820 0.56820 0.08300
C 	C 	0.44950 0.61200 0.58830 0.20000
H 	H 	0.43620 0.56320 0.60860 -0.03200
H 	H 	0.42530 0.66890 0.56560 -0.02800
C 	C 	0.57440 0.74260 0.74430 0.20200
H 	H 	0.57010 0.64390 0.75220 -0.04500
H 	H 	0.60750 0.76130 0.75310 -0.04400
C 	C 	0.53520 0.08080 0.60840 0.21400
H 	H 	0.50730 0.10660 0.58190 -0.03800
H 	H 	0.53970 0.15110 0.63320 -0.04500
C 	C 	0.48910 0.70790 0.61730 -0.33800
C 	C 	0.51510 0.67200 0.66360 0.41800
C 	C 	0.54800 0.77200 0.69160 -0.33300
C 	C 	0.55540 0.90000 0.67310 0.41000
C 	C 	0.52970 0.93480 0.62580 -0.34200
C 	C 	0.49680 0.83700 0.59740 0.42200
C 	C 	0.50680 0.53060 0.68370 -0.91400
H 	H 	0.48800 0.54640 0.70250 0.29600
H 	H 	0.53620 0.48980 0.70310 0.29000
H 	H 	0.49100 0.46570 0.65850 0.30500
C 	C 	0.59190 0.00570 0.70350 -0.88400
H 	H 	0.60110 0.06900 0.68350 0.29800
H 	H 	0.61860 0.95370 0.72370 0.29000
H 	H 	0.57890 0.06100 0.72240 0.29300
C 	C 	0.46970 0.87120 0.54600 -0.94400
H 	H 	0.48630 0.94210 0.53530 0.31200
H 	H 	0.43950 0.90770 0.54270 0.31300
H 	H 	0.46620 0.78550 0.52750 0.32100
O 	O 	0.30150 0.12170 0.50950 -0.57200
O 	O 	0.30090 0.34370 0.53440 -0.55700
O 	O 	0.67910 0.62630 0.91310 -0.48700
O 	O 	0.70630 0.81100 0.95900 -0.54700
O 	O 	0.70100 0.41320 0.52590 -0.50100
O 	O 	0.70890 0.18650 0.55080 -0.54100
O 	O 	0.46740 0.51010 0.56460 -0.26400
O 	O 	0.55350 0.84150 0.76750 -0.26800
O 	O 	0.57490 0.07950 0.59410 -0.28500
Tb	Tb	0.74487 0.45471 0.47780 1.96700
C 	C 	0.81810 0.74360 0.52020 0.53600
C 	C 	0.86530 0.76990 0.51750 -0.12600
C 	C 	0.88130 0.67950 0.48980 -0.00600
H 	H 	0.86360 0.60060 0.47480 0.01700
C 	C 	0.92300 0.70740 0.48490 -0.03300
H 	H 	0.93220 0.65240 0.46420 0.04000
C 	C 	0.95230 0.81890 0.51090 -0.13400
H 	H 	0.98140 0.83560 0.50900 0.08300
C 	C 	0.93600 0.90220 0.53940 0.16000
C 	C 	0.89300 0.88350 0.54170 -0.08700
H 	H 	0.88230 0.94610 0.55940 0.06700
C 	C 	0.17630 0.25170 0.92210 0.39900
C 	C 	0.13640 0.34060 0.89050 -0.04400
C 	C 	0.11440 0.29430 0.84360 -0.14900
H 	H 	0.12440 0.21160 0.83300 0.08700
C 	C 	0.07710 0.37460 0.81330 0.21000
C 	C 	0.06240 0.49710 0.83010 -0.19200
H 	H 	0.03840 0.55220 0.80950 0.09700
C 	C 	0.08210 0.53800 0.87560 0.04500
H 	H 	0.07040 0.61600 0.88690 0.00800
C 	C 	0.12050 0.46060 0.90560 -0.07900
H 	H 	0.13560 0.49170 0.93650 0.05400
C 	C 	0.19030 0.80430 0.54490 0.46200
C 	C 	0.15040 0.82080 0.56240 -0.06400
C 	C 	0.13330 0.95440 0.56850 -0.06300
H 	H 	0.14680 0.03740 0.56200 0.05900
C 	C 	0.09740 0.96410 0.58360 0.03300
H 	H 	0.08700 0.05470 0.58820 0.02300
C 	C 	0.07500 0.84120 0.59280 -0.18800
H 	H 	0.04980 0.84880 0.60270 0.10000
C 	C 	0.09270 0.70670 0.58620 0.19800
C 	C 	0.12970 0.69800 0.57180 -0.14000
H 	H 	0.14120 0.60820 0.56820 0.08300
C 	C 	0.94950 0.11200 0.58830 0.19700
H 	H 	0.93620 0.06320 0.60860 -0.03100
H 	H 	0.92530 0.16890 0.56560 -0.02700
C 	C 	0.07440 0.24260 0.74430 0.19900
H 	H 	0.07010 0.14390 0.75220 -0.04300
H 	H 	0.10750 0.26130 0.75310 -0.04300
C 	C 	0.03520 0.58080 0.60840 0.21200
H 	H 	0.00730 0.60660 0.58190 -0.03800
H 	H 	0.03970 0.65110 0.63320 -0.04400
C 	C 	0.98910 0.20790 0.61730 -0.33400
C 	C 	0.01510 0.17200 0.66360 0.41000
C 	C 	0.04800 0.27200 0.69160 -0.33100
C 	C 	0.05540 0.40000 0.67310 0.41600
C 	C 	0.02970 0.43480 0.62580 -0.34100
C 	C 	0.99680 0.33700 0.59740 0.42100
C 	C 	0.00680 0.03060 0.68370 -0.88500
H 	H 	0.98800 0.04640 0.70250 0.28900
H 	H 	0.03620 0.98980 0.70310 0.27900
H 	H 	0.99100 0.96570 0.65850 0.29400
C 	C 	0.09190 0.50570 0.70350 -0.90600
H 	H 	0.10110 0.56900 0.68350 0.30300
H 	H 	0.11860 0.45370 0.72370 0.29800
H 	H 	0.07890 0.56100 0.72240 0.29800
C 	C 	0.96970 0.37120 0.54600 -0.94200
H 	H 	0.98630 0.44210 0.53530 0.31100
H 	H 	0.93950 0.40770 0.54270 0.31200
H 	H 	0.96620 0.28550 0.52750 0.32000
O 	O 	0.80150 0.62170 0.50950 -0.57200
O 	O 	0.80090 0.84370 0.53440 -0.55700
O 	O 	0.17910 0.12630 0.91310 -0.48800
O 	O 	0.20630 0.31100 0.95900 -0.54800
O 	O 	0.20100 0.91320 0.52590 -0.50100
O 	O 	0.20890 0.68650 0.55080 -0.54100
O 	O 	0.96740 0.01010 0.56460 -0.26200
O 	O 	0.05350 0.34150 0.76750 -0.26400
O 	O 	0.07490 0.57950 0.59410 -0.28500
Tb	Tb	0.75513 0.95471 0.02220 1.96600
C 	C 	0.68190 0.24360 0.97980 0.53600
C 	C 	0.63470 0.26990 0.98250 -0.12500
C 	C 	0.61870 0.17950 0.01020 -0.00700
H 	H 	0.63640 0.10060 0.02520 0.01800
C 	C 	0.57700 0.20740 0.01510 -0.03200
H 	H 	0.56780 0.15240 0.03580 0.03900
C 	C 	0.54770 0.31890 0.98910 -0.13500
H 	H 	0.51860 0.33560 0.99100 0.08300
C 	C 	0.56400 0.40220 0.96060 0.16200
C 	C 	0.60700 0.38350 0.95830 -0.08800
H 	H 	0.61770 0.44610 0.94060 0.06800
C 	C 	0.32370 0.75170 0.57790 0.39500
C 	C 	0.36360 0.84060 0.60950 -0.03300
C 	C 	0.38560 0.79430 0.65640 -0.16000
H 	H 	0.37560 0.71160 0.66700 0.09000
C 	C 	0.42290 0.87460 0.68670 0.22200
C 	C 	0.43760 0.99710 0.66990 -0.21800
H 	H 	0.46160 0.05220 0.69050 0.10900
C 	C 	0.41790 0.03800 0.62440 0.07200
H 	H 	0.42960 0.11600 0.61310 -0.00100
C 	C 	0.37950 0.96060 0.59440 -0.09800
H 	H 	0.36440 0.99170 0.56350 0.06000
C 	C 	0.30970 0.30430 0.95510 0.46200
C 	C 	0.34960 0.32080 0.93760 -0.06400
C 	C 	0.36670 0.45440 0.93150 -0.06200
H 	H 	0.35320 0.53740 0.93800 0.05700
C 	C 	0.40260 0.46410 0.91640 0.03700
H 	H 	0.41300 0.55470 0.91180 0.02100
C 	C 	0.42500 0.34120 0.90720 -0.19000
H 	H 	0.45020 0.34880 0.89730 0.10000
C 	C 	0.40730 0.20670 0.91380 0.19900
C 	C 	0.37030 0.19800 0.92820 -0.14000
H 	H 	0.35880 0.10820 0.93180 0.08300
C 	C 	0.55050 0.61200 0.91170 0.20000
H 	H 	0.56380 0.56320 0.89140 -0.03200
H 	H 	0.57470 0.66890 0.93440 -0.02800
C 	C 	0.42560 0.74260 0.75570 0.20200
H 	H 	0.42990 0.64390 0.74780 -0.04500
H 	H 	0.39250 0.76130 0.74690 -0.04400
C 	C 	0.46480 0.08080 0.89160 0.21400
H 	H 	0.49270 0.10660 0.91810 -0.03800
H 	H 	0.46030 0.15110 0.86680 -0.04500
C 	C 	0.51090 0.70790 0.88270 -0.33800
C 	C 	0.48490 0.67200 0.83640 0.41800
C 	C 	0.45200 0.77200 0.80840 -0.33300
C 	C 	0.44460 0.90000 0.82690 0.41000
C 	C 	0.47030 0.93480 0.87420 -0.34200
C 	C 	0.50320 0.83700 0.90260 0.42200
C 	C 	0.49320 0.53060 0.81630 -0.91400
H 	H 	0.51200 0.54640 0.79750 0.29600
H 	H 	0.46380 0.48980 0.79690 0.29000
H 	H 	0.50900 0.46570 0.84150 0.30500
C 	C 	0.40810 0.00570 0.79650 -0.88400
H 	H 	0.39890 0.06900 0.81650 0.29800
H 	H 	0.38140 0.95370 0.77630 0.29000
H 	H 	0.42110 0.06100 0.77760 0.29300
C 	C 	0.53030 0.87120 0.95400 -0.94400
H 	H 	0.51370 0.94210 0.96470 0.31200
H 	H 	0.56050 0.90770 0.95730 0.31300
H 	H 	0.53380 0.78550 0.97250 0.32100
O 	O 	0.69850 0.12170 0.99050 -0.57100
O 	O 	0.69910 0.34370 0.96560 -0.55700
O 	O 	0.32090 0.62630 0.58690 -0.48700
O 	O 	0.29370 0.81100 0.54100 -0.54800
O 	O 	0.29900 0.41320 0.97410 -0.50100
O 	O 	0.29110 0.18650 0.94920 -0.54100
O 	O 	0.53260 0.51010 0.93540 -0.26400
O 	O 	0.44650 0.84150 0.73250 -0.26800
O 	O 	0.42510 0.07950 0.90590 -0.28500
Tb	Tb	0.25513 0.45471 0.02220 1.96700
C 	C 	0.18190 0.74360 0.97980 0.53600
C 	C 	0.13470 0.76990 0.98250 -0.12600
C 	C 	0.11870 0.67950 0.01020 -0.00600
H 	H 	0.13640 0.60060 0.02520 0.01700
C 	C 	0.07700 0.70740 0.01510 -0.03200
H 	H 	0.06780 0.65240 0.03580 0.04000
C 	C 	0.04770 0.81890 0.98910 -0.13400
H 	H 	0.01860 0.83560 0.99100 0.08300
C 	C 	0.06400 0.90220 0.96060 0.16000
C 	C 	0.10700 0.88350 0.95830 -0.08700
H 	H 	0.11770 0.94610 0.94060 0.06700
C 	C 	0.82370 0.25170 0.57790 0.39900
C 	C 	0.86360 0.34060 0.60950 -0.04400
C 	C 	0.88560 0.29430 0.65640 -0.14900
H 	H 	0.87560 0.21160 0.66700 0.08700
C 	C 	0.92290 0.37460 0.68670 0.21000
C 	C 	0.93760 0.49710 0.66990 -0.19200
H 	H 	0.96160 0.55220 0.69050 0.09700
C 	C 	0.91790 0.53800 0.62440 0.04500
H 	H 	0.92960 0.61600 0.61310 0.00800
C 	C 	0.87950 0.46060 0.59440 -0.07900
H 	H 	0.86440 0.49170 0.56350 0.05400
C 	C 	0.80970 0.80430 0.95510 0.46200
C 	C 	0.84960 0.82080 0.93760 -0.06400
C 	C 	0.86670 0.95440 0.93150 -0.06300
H 	H 	0.85320 0.03740 0.93800 0.05900
C 	C 	0.90260 0.96410 0.91640 0.03300
H 	H 	0.91300 0.05470 0.91180 0.02300
C 	C 	0.92500 0.84120 0.90720 -0.18800
H 	H 	0.95020 0.84880 0.89730 0.10000
C 	C 	0.90730 0.70670 0.91380 0.19800
C 	C 	0.87030 0.69800 0.92820 -0.13900
H 	H 	0.85880 0.60820 0.93180 0.08300
C 	C 	0.05050 0.11200 0.91170 0.19700
H 	H 	0.06380 0.06320 0.89140 -0.03100
H 	H 	0.07470 0.16890 0.93440 -0.02700
C 	C 	0.92560 0.24260 0.75570 0.19900
H 	H 	0.92990 0.14390 0.74780 -0.04300
H 	H 	0.89250 0.26130 0.74690 -0.04300
C 	C 	0.96480 0.58080 0.89160 0.21200
H 	H 	0.99270 0.60660 0.91810 -0.03800
H 	H 	0.96030 0.65110 0.86680 -0.04400
C 	C 	0.01090 0.20790 0.88270 -0.33300
C 	C 	0.98490 0.17200 0.83640 0.40900
C 	C 	0.95200 0.27200 0.80840 -0.33000
C 	C 	0.94460 0.40000 0.82690 0.41500
C 	C 	0.97030 0.43480 0.87420 -0.34100
C 	C 	0.00320 0.33700 0.90260 0.42000
C 	C 	0.99320 0.03060 0.81630 -0.88300
H 	H 	0.01200 0.04640 0.79750 0.28800
H 	H 	0.96380 0.98980 0.79690 0.27800
H 	H 	0.00900 0.96570 0.84150 0.29300
C 	C 	0.90810 0.50570 0.79650 -0.90500
H 	H 	0.89890 0.56900 0.81650 0.30300
H 	H 	0.88140 0.45370 0.77630 0.29800
H 	H 	0.92110 0.56100 0.77760 0.29800
C 	C 	0.03030 0.37120 0.95400 -0.94200
H 	H 	0.01370 0.44210 0.96470 0.31100
H 	H 	0.06050 0.40770 0.95730 0.31200
H 	H 	0.03380 0.28550 0.97250 0.32000
O 	O 	0.19850 0.62170 0.99050 -0.57200
O 	O 	0.19910 0.84370 0.96560 -0.55700
O 	O 	0.82090 0.12630 0.58690 -0.48800
O 	O 	0.79370 0.31100 0.54100 -0.54800
O 	O 	0.79900 0.91320 0.97410 -0.50100
O 	O 	0.79110 0.68650 0.94920 -0.54100
O 	O 	0.03260 0.01010 0.93540 -0.26200
O 	O 	0.94650 0.34150 0.73250 -0.26400
O 	O 	0.92510 0.57950 0.90590 -0.28500
Tb	Tb	0.75513 0.04529 0.52220 1.96600
C 	C 	0.68190 0.75640 0.47980 0.53600
C 	C 	0.63470 0.73010 0.48250 -0.12500
C 	C 	0.61870 0.82050 0.51020 -0.00700
H 	H 	0.63640 0.89940 0.52520 0.01800
C 	C 	0.57700 0.79260 0.51510 -0.03200
H 	H 	0.56780 0.84760 0.53580 0.03900
C 	C 	0.54770 0.68110 0.48910 -0.13500
H 	H 	0.51860 0.66440 0.49100 0.08300
C 	C 	0.56400 0.59780 0.46060 0.16100
C 	C 	0.60700 0.61650 0.45830 -0.08800
H 	H 	0.61770 0.55390 0.44060 0.06800
C 	C 	0.32370 0.24830 0.07790 0.39500
C 	C 	0.36360 0.15940 0.10950 -0.03300
C 	C 	0.38560 0.20570 0.15640 -0.16000
H 	H 	0.37560 0.28840 0.16700 0.09000
C 	C 	0.42290 0.12540 0.18670 0.22200
C 	C 	0.43760 0.00290 0.16990 -0.21800
H 	H 	0.46160 0.94780 0.19050 0.10900
C 	C 	0.41790 0.96200 0.12440 0.07200
H 	H 	0.42960 0.88400 0.11310 -0.00100
C 	C 	0.37950 0.03940 0.09440 -0.09800
H 	H 	0.36440 0.00830 0.06350 0.06000
C 	C 	0.30970 0.69570 0.45510 0.46200
C 	C 	0.34960 0.67920 0.43760 -0.06400
C 	C 	0.36670 0.54560 0.43150 -0.06200
H 	H 	0.35320 0.46260 0.43800 0.05700
C 	C 	0.40260 0.53590 0.41640 0.03700
H 	H 	0.41300 0.44530 0.41180 0.02100
C 	C 	0.42500 0.65880 0.40720 -0.19000
H 	H 	0.45020 0.65120 0.39730 0.10000
C 	C 	0.40730 0.79330 0.41380 0.19900
C 	C 	0.37030 0.80200 0.42820 -0.14000
H 	H 	0.35880 0.89180 0.43180 0.08300
C 	C 	0.55050 0.38800 0.41170 0.20000
H 	H 	0.56380 0.43680 0.39140 -0.03200
H 	H 	0.57470 0.33110 0.43440 -0.02800
C 	C 	0.42560 0.25740 0.25570 0.20200
H 	H 	0.42990 0.35610 0.24780 -0.04500
H 	H 	0.39250 0.23870 0.24690 -0.04400
C 	C 	0.46480 0.91920 0.39160 0.21400
H 	H 	0.49270 0.89340 0.41810 -0.03800
H 	H 	0.46030 0.84890 0.36680 -0.04500
C 	C 	0.51090 0.29210 0.38270 -0.33800
C 	C 	0.48490 0.32800 0.33640 0.41800
C 	C 	0.45200 0.22800 0.30840 -0.33300
C 	C 	0.44460 0.10000 0.32690 0.41000
C 	C 	0.47030 0.06520 0.37420 -0.34200
C 	C 	0.50320 0.16300 0.40260 0.42200
C 	C 	0.49320 0.46940 0.31630 -0.91400
H 	H 	0.51200 0.45360 0.29750 0.29600
H 	H 	0.46380 0.51020 0.29690 0.29000
H 	H 	0.50900 0.53430 0.34150 0.30500
C 	C 	0.40810 0.99430 0.29650 -0.88400
H 	H 	0.39890 0.93100 0.31650 0.29800
H 	H 	0.38140 0.04630 0.27630 0.29000
H 	H 	0.42110 0.93900 0.27760 0.29300
C 	C 	0.53030 0.12880 0.45400 -0.94400
H 	H 	0.51370 0.05790 0.46470 0.31200
H 	H 	0.56050 0.09230 0.45730 0.31300
H 	H 	0.53380 0.21450 0.47250 0.32100
O 	O 	0.69850 0.87830 0.49050 -0.57200
O 	O 	0.69910 0.65630 0.46560 -0.55700
O 	O 	0.32090 0.37370 0.08690 -0.48700
O 	O 	0.29370 0.18900 0.04100 -0.54700
O 	O 	0.29900 0.58680 0.47410 -0.50100
O 	O 	0.29110 0.81350 0.44920 -0.54100
O 	O 	0.53260 0.48990 0.43540 -0.26400
O 	O 	0.44650 0.15850 0.23250 -0.26800
O 	O 	0.42510 0.92050 0.40590 -0.28500
Tb	Tb	0.25513 0.54529 0.52220 1.96700
C 	C 	0.18190 0.25640 0.47980 0.53600
C 	C 	0.13470 0.23010 0.48250 -0.12600
C 	C 	0.11870 0.32050 0.51020 -0.00600
H 	H 	0.13640 0.39940 0.52520 0.01700
C 	C 	0.07700 0.29260 0.51510 -0.03300
H 	H 	0.06780 0.34760 0.53580 0.04000
C 	C 	0.04770 0.18110 0.48910 -0.13400
H 	H 	0.01860 0.16440 0.49100 0.08300
C 	C 	0.06400 0.09780 0.46060 0.16000
C 	C 	0.10700 0.11650 0.45830 -0.08700
H 	H 	0.11770 0.05390 0.44060 0.06700
C 	C 	0.82370 0.74830 0.07790 0.39900
C 	C 	0.86360 0.65940 0.10950 -0.04400
C 	C 	0.88560 0.70570 0.15640 -0.14900
H 	H 	0.87560 0.78840 0.16700 0.08700
C 	C 	0.92290 0.62540 0.18670 0.21000
C 	C 	0.93760 0.50290 0.16990 -0.19200
H 	H 	0.96160 0.44780 0.19050 0.09700
C 	C 	0.91790 0.46200 0.12440 0.04500
H 	H 	0.92960 0.38400 0.11310 0.00800
C 	C 	0.87950 0.53940 0.09440 -0.07900
H 	H 	0.86440 0.50830 0.06350 0.05400
C 	C 	0.80970 0.19570 0.45510 0.46200
C 	C 	0.84960 0.17920 0.43760 -0.06400
C 	C 	0.86670 0.04560 0.43150 -0.06300
H 	H 	0.85320 0.96260 0.43800 0.05900
C 	C 	0.90260 0.03590 0.41640 0.03300
H 	H 	0.91300 0.94530 0.41180 0.02300
C 	C 	0.92500 0.15880 0.40720 -0.18800
H 	H 	0.95020 0.15120 0.39730 0.10000
C 	C 	0.90730 0.29330 0.41380 0.19800
C 	C 	0.87030 0.30200 0.42820 -0.14000
H 	H 	0.85880 0.39180 0.43180 0.08300
C 	C 	0.05050 0.88800 0.41170 0.19700
H 	H 	0.06380 0.93680 0.39140 -0.03100
H 	H 	0.07470 0.83110 0.43440 -0.02700
C 	C 	0.92560 0.75740 0.25570 0.19900
H 	H 	0.92990 0.85610 0.24780 -0.04300
H 	H 	0.89250 0.73870 0.24690 -0.04300
C 	C 	0.96480 0.41920 0.39160 0.21200
H 	H 	0.99270 0.39340 0.41810 -0.03800
H 	H 	0.96030 0.34890 0.36680 -0.04400
C 	C 	0.01090 0.79210 0.38270 -0.33400
C 	C 	0.98490 0.82800 0.33640 0.41000
C 	C 	0.95200 0.72800 0.30840 -0.33100
C 	C 	0.94460 0.60000 0.32690 0.41600
C 	C 	0.97030 0.56520 0.37420 -0.34100
C 	C 	0.00320 0.66300 0.40260 0.42100
C 	C 	0.99320 0.96940 0.31630 -0.88500
H 	H 	0.01200 0.95360 0.29750 0.28900
H 	H 	0.96380 0.01020 0.29690 0.27900
H 	H 	0.00900 0.03430 0.34150 0.29400
C 	C 	0.90810 0.49430 0.29650 -0.90600
H 	H 	0.89890 0.43100 0.31650 0.30300
H 	H 	0.88140 0.54630 0.27630 0.29800
H 	H 	0.92110 0.43900 0.27760 0.29800
C 	C 	0.03030 0.62880 0.45400 -0.94200
H 	H 	0.01370 0.55790 0.46470 0.31100
H 	H 	0.06050 0.59230 0.45730 0.31200
H 	H 	0.03380 0.71450 0.47250 0.32000
O 	O 	0.19850 0.37830 0.49050 -0.57200
O 	O 	0.19910 0.15630 0.46560 -0.55700
O 	O 	0.82090 0.87370 0.08690 -0.48800
O 	O 	0.79370 0.68900 0.04100 -0.54800
O 	O 	0.79900 0.08680 0.47410 -0.50100
O 	O 	0.79110 0.31350 0.44920 -0.54100
O 	O 	0.03260 0.98990 0.43540 -0.26200
O 	O 	0.94650 0.65850 0.23250 -0.26400
O 	O 	0.92510 0.42050 0.40590 -0.28500
Tb	Tb	0.24487 0.04529 0.97780 1.96600
C 	C 	0.31810 0.75640 0.02020 0.53600
C 	C 	0.36530 0.73010 0.01750 -0.12500
C 	C 	0.38130 0.82050 0.98980 -0.00700
H 	H 	0.36360 0.89940 0.97480 0.01800
C 	C 	0.42300 0.79260 0.98490 -0.03200
H 	H 	0.43220 0.84760 0.96420 0.03900
C 	C 	0.45230 0.68110 0.01090 -0.13500
H 	H 	0.48140 0.66440 0.00900 0.08300
C 	C 	0.43600 0.59780 0.03940 0.16200
C 	C 	0.39300 0.61650 0.04170 -0.08800
H 	H 	0.38230 0.55390 0.05940 0.06800
C 	C 	0.67630 0.24830 0.42210 0.39500
C 	C 	0.63640 0.15940 0.39050 -0.03300
C 	C 	0.61440 0.20570 0.34360 -0.16000
H 	H 	0.62440 0.28840 0.33300 0.09000
C 	C 	0.57710 0.12540 0.31330 0.22200
C 	C 	0.56240 0.00290 0.33010 -0.21800
H 	H 	0.53840 0.94780 0.30950 0.10900
C 	C 	0.58210 0.96200 0.37560 0.07200
H 	H 	0.57040 0.88400 0.38690 -0.00100
C 	C 	0.62050 0.03940 0.40560 -0.09800
H 	H 	0.63560 0.00830 0.43650 0.06000
C 	C 	0.69030 0.69570 0.04490 0.46200
C 	C 	0.65040 0.67920 0.06240 -0.06400
C 	C 	0.63330 0.54560 0.06850 -0.06200
H 	H 	0.64680 0.46260 0.06200 0.05700
C 	C 	0.59740 0.53590 0.08360 0.03700
H 	H 	0.58700 0.44530 0.08820 0.02100
C 	C 	0.57500 0.65880 0.09280 -0.19000
H 	H 	0.54980 0.65120 0.10270 0.10000
C 	C 	0.59270 0.79330 0.08620 0.19900
C 	C 	0.62970 0.80200 0.07180 -0.14000
H 	H 	0.64120 0.89180 0.06820 0.08300
C 	C 	0.44950 0.38800 0.08830 0.20000
H 	H 	0.43620 0.43680 0.10860 -0.03200
H 	H 	0.42530 0.33110 0.06560 -0.02800
C 	C 	0.57440 0.25740 0.24430 0.20200
H 	H 	0.57010 0.35610 0.25220 -0.04500
H 	H 	0.60750 0.23870 0.25310 -0.04400
C 	C 	0.53520 0.91920 0.10840 0.21400
H 	H 	0.50730 0.89340 0.08190 -0.03800
H 	H 	0.53970 0.84890 0.13320 -0.04500
C 	C 	0.48910 0.29210 0.11730 -0.33800
C 	C 	0.51510 0.32800 0.16360 0.41800
C 	C 	0.54800 0.22800 0.19160 -0.33300
C 	C 	0.55540 0.10000 0.17310 0.41000
C 	C 	0.52970 0.06520 0.12580 -0.34200
C 	C 	0.49680 0.16300 0.09740 0.42200
C 	C 	0.50680 0.46940 0.18370 -0.91400
H 	H 	0.48800 0.45360 0.20250 0.29600
H 	H 	0.53620 0.51020 0.20310 0.29000
H 	H 	0.49100 0.53430 0.15850 0.30500
C 	C 	0.59190 0.99430 0.20350 -0.88400
H 	H 	0.60110 0.93100 0.18350 0.29800
H 	H 	0.61860 0.04630 0.22370 0.29000
H 	H 	0.57890 0.93900 0.22240 0.29300
C 	C 	0.46970 0.12880 0.04600 -0.94400
H 	H 	0.48630 0.05790 0.03530 0.31200
H 	H 	0.43950 0.09230 0.04270 0.31300
H 	H 	0.46620 0.21450 0.02750 0.32100
O 	O 	0.30150 0.87830 0.00950 -0.57100
O 	O 	0.30090 0.65630 0.03440 -0.55700
O 	O 	0.67910 0.37370 0.41310 -0.48700
O 	O 	0.70630 0.18900 0.45900 -0.54800
O 	O 	0.70100 0.58680 0.02590 -0.50100
O 	O 	0.70890 0.81350 0.05080 -0.54100
O 	O 	0.46740 0.48990 0.06460 -0.26400
O 	O 	0.55350 0.15850 0.26750 -0.26800
O 	O 	0.57490 0.92050 0.09410 -0.28500
Tb	Tb	0.74487 0.54529 0.97780 1.96700
C 	C 	0.81810 0.25640 0.02020 0.53600
C 	C 	0.86530 0.23010 0.01750 -0.12600
C 	C 	0.88130 0.32050 0.98980 -0.00600
H 	H 	0.86360 0.39940 0.97480 0.01700
C 	C 	0.92300 0.29260 0.98490 -0.03200
H 	H 	0.93220 0.34760 0.96420 0.04000
C 	C 	0.95230 0.18110 0.01090 -0.13400
H 	H 	0.98140 0.16440 0.00900 0.08300
C 	C 	0.93600 0.09780 0.03940 0.16000
C 	C 	0.89300 0.11650 0.04170 -0.08700
H 	H 	0.88230 0.05390 0.05940 0.06700
C 	C 	0.17630 0.74830 0.42210 0.39900
C 	C 	0.13640 0.65940 0.39050 -0.04400
C 	C 	0.11440 0.70570 0.34360 -0.14900
H 	H 	0.12440 0.78840 0.33300 0.08700
C 	C 	0.07710 0.62540 0.31330 0.21000
C 	C 	0.06240 0.50290 0.33010 -0.19200
H 	H 	0.03840 0.44780 0.30950 0.09700
C 	C 	0.08210 0.46200 0.37560 0.04500
H 	H 	0.07040 0.38400 0.38690 0.00800
C 	C 	0.12050 0.53940 0.40560 -0.07900
H 	H 	0.13560 0.50830 0.43650 0.05400
C 	C 	0.19030 0.19570 0.04490 0.46200
C 	C 	0.15040 0.17920 0.06240 -0.06400
C 	C 	0.13330 0.04560 0.06850 -0.06300
H 	H 	0.14680 0.96260 0.06200 0.05900
C 	C 	0.09740 0.03590 0.08360 0.03300
H 	H 	0.08700 0.94530 0.08820 0.02300
C 	C 	0.07500 0.15880 0.09280 -0.18800
H 	H 	0.04980 0.15120 0.10270 0.10000
C 	C 	0.09270 0.29330 0.08620 0.19800
C 	C 	0.12970 0.30200 0.07180 -0.13900
H 	H 	0.14120 0.39180 0.06820 0.08300
C 	C 	0.94950 0.88800 0.08830 0.19700
H 	H 	0.93620 0.93680 0.10860 -0.03100
H 	H 	0.92530 0.83110 0.06560 -0.02700
C 	C 	0.07440 0.75740 0.24430 0.19900
H 	H 	0.07010 0.85610 0.25220 -0.04300
H 	H 	0.10750 0.73870 0.25310 -0.04300
C 	C 	0.03520 0.41920 0.10840 0.21200
H 	H 	0.00730 0.39340 0.08190 -0.03800
H 	H 	0.03970 0.34890 0.13320 -0.04400
C 	C 	0.98910 0.79210 0.11730 -0.33300
C 	C 	0.01510 0.82800 0.16360 0.40900
C 	C 	0.04800 0.72800 0.19160 -0.33000
C 	C 	0.05540 0.60000 0.17310 0.41500
C 	C 	0.02970 0.56520 0.12580 -0.34100
C 	C 	0.99680 0.66300 0.09740 0.42000
C 	C 	0.00680 0.96940 0.18370 -0.88300
H 	H 	0.98800 0.95360 0.20250 0.28800
H 	H 	0.03620 0.01020 0.20310 0.27800
H 	H 	0.99100 0.03430 0.15850 0.29300
C 	C 	0.09190 0.49430 0.20350 -0.90500
H 	H 	0.10110 0.43100 0.18350 0.30300
H 	H 	0.11860 0.54630 0.22370 0.29800
H 	H 	0.07890 0.43900 0.22240 0.29800
C 	C 	0.96970 0.62880 0.04600 -0.94200
H 	H 	0.98630 0.55790 0.03530 0.31100
H 	H 	0.93950 0.59230 0.04270 0.31200
H 	H 	0.96620 0.71450 0.02750 0.32000
O 	O 	0.80150 0.37830 0.00950 -0.57200
O 	O 	0.80090 0.15630 0.03440 -0.55700
O 	O 	0.17910 0.87370 0.41310 -0.48800
O 	O 	0.20630 0.68900 0.45900 -0.54800
O 	O 	0.20100 0.08680 0.02590 -0.50100
O 	O 	0.20890 0.31350 0.05080 -0.54100
O 	O 	0.96740 0.98990 0.06460 -0.26200
O 	O 	0.05350 0.65850 0.26750 -0.26400
O 	O 	0.07490 0.42050 0.09410 -0.28500
