data_crystal

_cell_length_a 11.42210
_cell_length_b 21.27420
_cell_length_c 19.06470
_cell_angle_alpha 90.00000
_cell_angle_beta  95.41920
_cell_angle_gamma 90.00000

_symmetry_space_group_name_	'P 1'
_symmetry_space_group_name_H-M	'P 1'

loop_
_symmetry_equiv_pos_as_xyz
  x,y,z

loop_
_atom_site_label
_atom_site_type_symbol
_atom_site_fract_x
_atom_site_fract_y
_atom_site_fract_z
_atom_site_charge
Zn	Zn	0.61566 0.98653 0.08484 1.22400
O 	O 	0.77440 0.96465 0.06814 -0.45400
O 	O 	0.76340 0.90544 0.16174 -0.32000
O 	O 	0.39720 0.57302 0.45043 -0.52100
O 	O 	0.51070 0.58012 0.54851 -0.53200
O 	O 	0.35480 0.95399 0.52815 -0.25700
O 	O 	0.22830 0.85707 0.58366 -0.17600
O 	O 	0.01050 0.79453 0.59160 -0.15900
O 	O 	0.22170 0.15763 0.45755 -0.25200
N 	N 	0.09520 0.92197 0.33609 -0.12800
N 	N 	0.18370 0.87298 0.43087 -0.21200
H 	H 	0.20087 0.86283 0.47540 0.15300
N 	N 	0.53940 0.00149 0.17452 -0.25500
C 	C 	0.82000 0.92830 0.11630 0.31600
C 	C 	0.95040 0.91727 0.11600 -0.05900
C 	C 	0.01360 0.89488 0.17787 -0.04800
H 	H 	0.97286 0.88489 0.21764 0.06700
C 	C 	0.13500 0.88717 0.18150 0.03600
C 	C 	0.19300 0.90300 0.12320 -0.07200
H 	H 	0.27615 0.89926 0.12539 0.05700
C 	C 	0.13080 0.92420 0.06180 -0.03100
H 	H 	0.17118 0.93367 0.02172 0.04700
C 	C 	0.01020 0.93170 0.05870 -0.01800
H 	H 	0.96832 0.94696 0.01676 0.05000
C 	C 	0.19950 0.86064 0.24622 -0.01700
C 	C 	0.17330 0.87653 0.31432 0.03500
C 	C 	0.23030 0.84654 0.37367 0.06300
C 	C 	0.31610 0.80002 0.36915 -0.03100
C 	C 	0.34330 0.78652 0.30180 -0.04100
H 	H 	0.40240 0.75616 0.29554 0.04200
C 	C 	0.28710 0.81586 0.24270 -0.05100
H 	H 	0.30974 0.80468 0.19770 0.04400
C 	C 	0.37650 0.76873 0.43277 0.02100
C 	C 	0.43120 0.80325 0.48770 -0.05700
H 	H 	0.42881 0.84785 0.48552 0.06900
C 	C 	0.48980 0.77399 0.54620 -0.04200
H 	H 	0.52474 0.79859 0.58413 0.04500
C 	C 	0.49710 0.70959 0.54900 0.00900
H 	H 	0.54026 0.68960 0.58783 0.03600
C 	C 	0.44130 0.67389 0.49493 -0.12200
C 	C 	0.38160 0.70335 0.43736 -0.01500
H 	H 	0.34347 0.67862 0.40048 0.04500
C 	C 	0.45160 0.60357 0.49780 0.46400
C 	C 	0.10610 0.91767 0.40543 0.13200
C 	C 	0.04780 0.95917 0.45294 -0.01100
C 	C 	0.03040 0.02203 0.43580 -0.03500
H 	H 	0.05090 0.03726 0.39171 0.05800
C 	C 	0.01660 0.93733 0.51780 -0.04200
H 	H 	0.02769 0.89431 0.53004 0.07600
C 	C 	0.28060 0.10450 0.44060 0.30600
C 	C 	0.32270 0.09360 0.37650 -0.27800
H 	H 	0.31562 0.12477 0.34064 0.12300
C 	C 	0.37690 0.03520 0.36470 0.16600
C 	C 	0.38650 0.99040 0.41660 -0.26900
H 	H 	0.42257 0.95124 0.40835 0.13400
C 	C 	0.34360 0.00210 0.48140 0.31300
C 	C 	0.29320 0.05930 0.49430 -0.33300
H 	H 	0.26721 0.06801 0.53922 0.15900
C 	C 	0.30550 0.96020 0.59340 0.04200
H 	H 	0.22389 0.97608 0.58567 0.03300
H 	H 	0.35244 0.98990 0.62451 0.02400
C 	C 	0.30720 0.89640 0.62580 -0.01700
H 	H 	0.38770 0.87871 0.62841 0.04800
H 	H 	0.28295 0.89900 0.67421 0.03900
C 	C 	0.21630 0.79710 0.61430 0.00500
H 	H 	0.20311 0.80185 0.66460 0.04200
H 	H 	0.28948 0.77263 0.61152 0.03200
C 	C 	0.11580 0.76330 0.57650 -0.01900
H 	H 	0.12281 0.76362 0.52518 0.05100
H 	H 	0.11454 0.71902 0.59254 0.04300
C 	C 	0.90770 0.75880 0.57580 -0.03300
H 	H 	0.91317 0.71880 0.60243 0.05000
H 	H 	0.89735 0.74900 0.52488 0.06000
C 	C 	0.19360 0.20340 0.40390 0.05100
H 	H 	0.17273 0.18241 0.35810 0.02700
H 	H 	0.26217 0.23106 0.39928 0.02000
C 	C 	0.42750 0.02388 0.29740 -0.00100
C 	C 	0.46160 0.07250 0.25520 -0.09000
H 	H 	0.44627 0.11478 0.26745 0.05400
C 	C 	0.51670 0.06020 0.19650 0.04600
H 	H 	0.54048 0.09472 0.16962 0.00300
C 	C 	0.50420 0.95450 0.21350 0.06300
H 	H 	0.51874 0.91269 0.19895 0.00300
C 	C 	0.44850 0.96270 0.27300 -0.09600
H 	H 	0.42380 0.92726 0.29800 0.06500
Zn	Zn	0.38434 0.48653 0.41516 1.22500
O 	O 	0.22560 0.46465 0.43186 -0.45200
O 	O 	0.23660 0.40544 0.33826 -0.31800
O 	O 	0.60280 0.07302 0.04957 -0.52000
O 	O 	0.48930 0.08012 0.95149 -0.53200
O 	O 	0.64520 0.45399 0.97185 -0.25700
O 	O 	0.77170 0.35707 0.91634 -0.17600
O 	O 	0.98950 0.29453 0.90840 -0.15900
O 	O 	0.77830 0.65763 0.04245 -0.25300
N 	N 	0.90480 0.42197 0.16391 -0.12800
N 	N 	0.81630 0.37298 0.06913 -0.21200
H 	H 	0.79913 0.36283 0.02460 0.15300
N 	N 	0.46060 0.50149 0.32548 -0.25600
C 	C 	0.18000 0.42830 0.38370 0.31300
C 	C 	0.04960 0.41727 0.38400 -0.05100
C 	C 	0.98640 0.39488 0.32213 -0.05700
H 	H 	0.02714 0.38489 0.28236 0.07100
C 	C 	0.86500 0.38717 0.31850 0.04000
C 	C 	0.80700 0.40300 0.37680 -0.07800
H 	H 	0.72385 0.39926 0.37461 0.05900
C 	C 	0.86920 0.42420 0.43820 -0.02400
H 	H 	0.82882 0.43367 0.47828 0.04500
C 	C 	0.98980 0.43170 0.44130 -0.02800
H 	H 	0.03168 0.44696 0.48324 0.05400
C 	C 	0.80050 0.36064 0.25378 -0.01900
C 	C 	0.82670 0.37653 0.18568 0.03500
C 	C 	0.76970 0.34654 0.12633 0.06300
C 	C 	0.68390 0.30002 0.13085 -0.03000
C 	C 	0.65670 0.28652 0.19820 -0.04200
H 	H 	0.59760 0.25616 0.20446 0.04300
C 	C 	0.71290 0.31586 0.25730 -0.05000
H 	H 	0.69026 0.30468 0.30230 0.04300
C 	C 	0.62350 0.26873 0.06723 0.02100
C 	C 	0.56880 0.30325 0.01230 -0.05600
H 	H 	0.57119 0.34785 0.01448 0.06900
C 	C 	0.51020 0.27399 0.95380 -0.04300
H 	H 	0.47526 0.29859 0.91587 0.04600
C 	C 	0.50290 0.20959 0.95100 0.00900
H 	H 	0.45974 0.18960 0.91217 0.03600
C 	C 	0.55870 0.17389 0.00507 -0.12200
C 	C 	0.61840 0.20335 0.06264 -0.01500
H 	H 	0.65653 0.17862 0.09952 0.04500
C 	C 	0.54840 0.10357 0.00220 0.46500
C 	C 	0.89390 0.41767 0.09457 0.13200
C 	C 	0.95220 0.45917 0.04706 -0.01200
C 	C 	0.96960 0.52203 0.06420 -0.03200
H 	H 	0.94910 0.53726 0.10829 0.05700
C 	C 	0.98340 0.43733 0.98220 -0.04300
H 	H 	0.97231 0.39431 0.96996 0.07600
C 	C 	0.71940 0.60450 0.05940 0.30700
C 	C 	0.67730 0.59360 0.12350 -0.27900
H 	H 	0.68438 0.62477 0.15936 0.12300
C 	C 	0.62310 0.53520 0.13530 0.16700
C 	C 	0.61350 0.49040 0.08340 -0.27000
H 	H 	0.57743 0.45124 0.09165 0.13400
C 	C 	0.65640 0.50210 0.01860 0.31500
C 	C 	0.70680 0.55930 0.00570 -0.33500
H 	H 	0.73279 0.56801 0.96078 0.16000
C 	C 	0.69450 0.46020 0.90660 0.04200
H 	H 	0.77611 0.47608 0.91433 0.03300
H 	H 	0.64756 0.48990 0.87549 0.02400
C 	C 	0.69280 0.39640 0.87420 -0.01700
H 	H 	0.61230 0.37871 0.87159 0.04800
H 	H 	0.71705 0.39900 0.82579 0.03900
C 	C 	0.78370 0.29710 0.88570 0.00500
H 	H 	0.79689 0.30185 0.83540 0.04100
H 	H 	0.71052 0.27263 0.88848 0.03200
C 	C 	0.88420 0.26330 0.92350 -0.01900
H 	H 	0.87719 0.26362 0.97482 0.05000
H 	H 	0.88546 0.21902 0.90746 0.04300
C 	C 	0.09230 0.25880 0.92420 -0.03300
H 	H 	0.08683 0.21880 0.89757 0.05000
H 	H 	0.10265 0.24900 0.97512 0.06000
C 	C 	0.80640 0.70340 0.09610 0.05100
H 	H 	0.82727 0.68241 0.14190 0.02700
H 	H 	0.73783 0.73106 0.10072 0.02000
C 	C 	0.57250 0.52388 0.20260 -0.00200
C 	C 	0.53840 0.57250 0.24480 -0.09000
H 	H 	0.55373 0.61478 0.23255 0.05400
C 	C 	0.48330 0.56020 0.30350 0.04600
H 	H 	0.45952 0.59472 0.33038 0.00300
C 	C 	0.49580 0.45450 0.28650 0.06400
H 	H 	0.48126 0.41269 0.30105 0.00300
C 	C 	0.55150 0.46270 0.22700 -0.09600
H 	H 	0.57620 0.42726 0.20200 0.06500
Zn	Zn	0.38434 0.01347 0.91516 1.22500
O 	O 	0.22560 0.03535 0.93186 -0.45300
O 	O 	0.23660 0.09456 0.83826 -0.31900
O 	O 	0.60280 0.42698 0.54957 -0.52000
O 	O 	0.48930 0.41988 0.45149 -0.53100
O 	O 	0.64520 0.04601 0.47185 -0.25600
O 	O 	0.77170 0.14293 0.41634 -0.17600
O 	O 	0.98950 0.20547 0.40840 -0.15900
O 	O 	0.77830 0.84237 0.54245 -0.25200
N 	N 	0.90480 0.07803 0.66391 -0.12800
N 	N 	0.81630 0.12702 0.56913 -0.21200
H 	H 	0.79913 0.13717 0.52460 0.15300
N 	N 	0.46060 0.99851 0.82548 -0.25500
C 	C 	0.18000 0.07170 0.88370 0.31600
C 	C 	0.04960 0.08273 0.88400 -0.05900
C 	C 	0.98640 0.10512 0.82213 -0.04800
H 	H 	0.02714 0.11511 0.78236 0.06700
C 	C 	0.86500 0.11283 0.81850 0.03600
C 	C 	0.80700 0.09700 0.87680 -0.07200
H 	H 	0.72385 0.10074 0.87461 0.05700
C 	C 	0.86920 0.07580 0.93820 -0.03100
H 	H 	0.82882 0.06633 0.97828 0.04700
C 	C 	0.98980 0.06830 0.94130 -0.01800
H 	H 	0.03168 0.05304 0.98324 0.05000
C 	C 	0.80050 0.13936 0.75378 -0.01700
C 	C 	0.82670 0.12347 0.68568 0.03500
C 	C 	0.76970 0.15346 0.62633 0.06300
C 	C 	0.68390 0.19998 0.63085 -0.03100
C 	C 	0.65670 0.21348 0.69820 -0.04100
H 	H 	0.59760 0.24384 0.70446 0.04200
C 	C 	0.71290 0.18414 0.75730 -0.05100
H 	H 	0.69026 0.19532 0.80230 0.04400
C 	C 	0.62350 0.23127 0.56723 0.02100
C 	C 	0.56880 0.19675 0.51230 -0.05700
H 	H 	0.57119 0.15215 0.51448 0.06900
C 	C 	0.51020 0.22601 0.45380 -0.04200
H 	H 	0.47526 0.20141 0.41587 0.04500
C 	C 	0.50290 0.29041 0.45100 0.00900
H 	H 	0.45974 0.31040 0.41217 0.03600
C 	C 	0.55870 0.32611 0.50507 -0.12200
C 	C 	0.61840 0.29665 0.56264 -0.01500
H 	H 	0.65653 0.32138 0.59952 0.04500
C 	C 	0.54840 0.39643 0.50220 0.46400
C 	C 	0.89390 0.08233 0.59457 0.13200
C 	C 	0.95220 0.04083 0.54706 -0.01100
C 	C 	0.96960 0.97797 0.56420 -0.03500
H 	H 	0.94910 0.96274 0.60829 0.05800
C 	C 	0.98340 0.06267 0.48220 -0.04200
H 	H 	0.97231 0.10569 0.46996 0.07600
C 	C 	0.71940 0.89550 0.55940 0.30600
C 	C 	0.67730 0.90640 0.62350 -0.27800
H 	H 	0.68438 0.87523 0.65936 0.12300
C 	C 	0.62310 0.96480 0.63530 0.16600
C 	C 	0.61350 0.00960 0.58340 -0.26900
H 	H 	0.57743 0.04876 0.59165 0.13400
C 	C 	0.65640 0.99790 0.51860 0.31300
C 	C 	0.70680 0.94070 0.50570 -0.33300
H 	H 	0.73279 0.93199 0.46078 0.15900
C 	C 	0.69450 0.03980 0.40660 0.04200
H 	H 	0.77611 0.02392 0.41433 0.03300
H 	H 	0.64756 0.01010 0.37549 0.02400
C 	C 	0.69280 0.10360 0.37420 -0.01700
H 	H 	0.61230 0.12129 0.37159 0.04800
H 	H 	0.71705 0.10100 0.32579 0.03900
C 	C 	0.78370 0.20290 0.38570 0.00500
H 	H 	0.79689 0.19815 0.33540 0.04200
H 	H 	0.71052 0.22737 0.38848 0.03200
C 	C 	0.88420 0.23670 0.42350 -0.01900
H 	H 	0.87719 0.23638 0.47482 0.05100
H 	H 	0.88546 0.28098 0.40746 0.04300
C 	C 	0.09230 0.24120 0.42420 -0.03300
H 	H 	0.08683 0.28120 0.39757 0.05000
H 	H 	0.10265 0.25100 0.47512 0.06000
C 	C 	0.80640 0.79660 0.59610 0.05100
H 	H 	0.82727 0.81759 0.64190 0.02700
H 	H 	0.73783 0.76894 0.60072 0.02000
C 	C 	0.57250 0.97612 0.70260 -0.00100
C 	C 	0.53840 0.92750 0.74480 -0.09000
H 	H 	0.55373 0.88522 0.73255 0.05400
C 	C 	0.48330 0.93980 0.80350 0.04600
H 	H 	0.45952 0.90528 0.83038 0.00300
C 	C 	0.49580 0.04550 0.78650 0.06300
H 	H 	0.48126 0.08731 0.80105 0.00300
C 	C 	0.55150 0.03730 0.72700 -0.09600
H 	H 	0.57620 0.07274 0.70200 0.06500
Zn	Zn	0.61566 0.51347 0.58484 1.22500
O 	O 	0.77440 0.53535 0.56814 -0.45200
O 	O 	0.76340 0.59456 0.66174 -0.31800
O 	O 	0.39720 0.92698 0.95043 -0.52000
O 	O 	0.51070 0.91988 0.04851 -0.53200
O 	O 	0.35480 0.54601 0.02815 -0.25700
O 	O 	0.22830 0.64293 0.08366 -0.17600
O 	O 	0.01050 0.70547 0.09160 -0.15900
O 	O 	0.22170 0.34237 0.95755 -0.25300
N 	N 	0.09520 0.57803 0.83609 -0.12800
N 	N 	0.18370 0.62702 0.93087 -0.21200
H 	H 	0.20087 0.63717 0.97540 0.15300
N 	N 	0.53940 0.49851 0.67452 -0.25600
C 	C 	0.82000 0.57170 0.61630 0.31300
C 	C 	0.95040 0.58273 0.61600 -0.05100
C 	C 	0.01360 0.60512 0.67787 -0.05700
H 	H 	0.97286 0.61511 0.71764 0.07100
C 	C 	0.13500 0.61283 0.68150 0.04000
C 	C 	0.19300 0.59700 0.62320 -0.07800
H 	H 	0.27615 0.60074 0.62539 0.05900
C 	C 	0.13080 0.57580 0.56180 -0.02400
H 	H 	0.17118 0.56633 0.52172 0.04500
C 	C 	0.01020 0.56830 0.55870 -0.02800
H 	H 	0.96832 0.55304 0.51676 0.05400
C 	C 	0.19950 0.63936 0.74622 -0.01900
C 	C 	0.17330 0.62347 0.81432 0.03500
C 	C 	0.23030 0.65346 0.87367 0.06300
C 	C 	0.31610 0.69998 0.86915 -0.03000
C 	C 	0.34330 0.71348 0.80180 -0.04200
H 	H 	0.40240 0.74384 0.79554 0.04300
C 	C 	0.28710 0.68414 0.74270 -0.05000
H 	H 	0.30974 0.69532 0.69770 0.04300
C 	C 	0.37650 0.73127 0.93277 0.02100
C 	C 	0.43120 0.69675 0.98770 -0.05600
H 	H 	0.42881 0.65215 0.98552 0.06900
C 	C 	0.48980 0.72601 0.04620 -0.04300
H 	H 	0.52474 0.70141 0.08413 0.04600
C 	C 	0.49710 0.79041 0.04900 0.00900
H 	H 	0.54026 0.81040 0.08783 0.03600
C 	C 	0.44130 0.82611 0.99493 -0.12200
C 	C 	0.38160 0.79665 0.93736 -0.01500
H 	H 	0.34347 0.82138 0.90048 0.04500
C 	C 	0.45160 0.89643 0.99780 0.46500
C 	C 	0.10610 0.58233 0.90543 0.13200
C 	C 	0.04780 0.54083 0.95294 -0.01200
C 	C 	0.03040 0.47797 0.93580 -0.03200
H 	H 	0.05090 0.46274 0.89171 0.05700
C 	C 	0.01660 0.56267 0.01780 -0.04300
H 	H 	0.02769 0.60569 0.03004 0.07600
C 	C 	0.28060 0.39550 0.94060 0.30700
C 	C 	0.32270 0.40640 0.87650 -0.27900
H 	H 	0.31562 0.37523 0.84064 0.12300
C 	C 	0.37690 0.46480 0.86470 0.16700
C 	C 	0.38650 0.50960 0.91660 -0.27000
H 	H 	0.42257 0.54876 0.90835 0.13400
C 	C 	0.34360 0.49790 0.98140 0.31500
C 	C 	0.29320 0.44070 0.99430 -0.33500
H 	H 	0.26721 0.43199 0.03922 0.16000
C 	C 	0.30550 0.53980 0.09340 0.04200
H 	H 	0.22389 0.52392 0.08567 0.03300
H 	H 	0.35244 0.51010 0.12451 0.02400
C 	C 	0.30720 0.60360 0.12580 -0.01700
H 	H 	0.38770 0.62129 0.12841 0.04800
H 	H 	0.28295 0.60100 0.17421 0.03900
C 	C 	0.21630 0.70290 0.11430 0.00500
H 	H 	0.20311 0.69815 0.16460 0.04100
H 	H 	0.28948 0.72737 0.11152 0.03200
C 	C 	0.11580 0.73670 0.07650 -0.01900
H 	H 	0.12281 0.73638 0.02518 0.05000
H 	H 	0.11454 0.78098 0.09254 0.04300
C 	C 	0.90770 0.74120 0.07580 -0.03300
H 	H 	0.91317 0.78120 0.10243 0.05000
H 	H 	0.89735 0.75100 0.02488 0.06000
C 	C 	0.19360 0.29660 0.90390 0.05100
H 	H 	0.17273 0.31759 0.85810 0.02700
H 	H 	0.26217 0.26894 0.89928 0.02000
C 	C 	0.42750 0.47612 0.79740 -0.00200
C 	C 	0.46160 0.42750 0.75520 -0.09000
H 	H 	0.44627 0.38522 0.76745 0.05400
C 	C 	0.51670 0.43980 0.69650 0.04600
H 	H 	0.54048 0.40528 0.66962 0.00300
C 	C 	0.50420 0.54550 0.71350 0.06400
H 	H 	0.51874 0.58731 0.69895 0.00300
C 	C 	0.44850 0.53730 0.77300 -0.09600
H 	H 	0.42380 0.57274 0.79800 0.06500
