data_crystal

_cell_length_a 19.78220
_cell_length_b 19.78220
_cell_length_c 19.78220
_cell_angle_alpha 90.00000
_cell_angle_beta  90.00000
_cell_angle_gamma 90.00000

_symmetry_space_group_name_	'P 1'
_symmetry_space_group_name_H-M	'P 1'

loop_
_symmetry_equiv_pos_as_xyz
  x,y,z

loop_
_atom_site_label
_atom_site_type_symbol
_atom_site_fract_x
_atom_site_fract_y
_atom_site_fract_z
_atom_site_charge
Gd	Gd	0.75369 0.84613 0.50883 1.26600
O 	O 	0.85427 0.79431 0.55046 -0.42600
O 	O 	0.65885 0.79011 0.46002 -0.43000
O 	O 	0.91662 0.70601 0.58250 -0.40400
O 	O 	0.60916 0.70310 0.40927 -0.40800
N 	N 	0.75981 0.71894 0.50069 -0.16800
C 	C 	0.86580 0.73100 0.55550 0.33900
C 	C 	0.65410 0.72800 0.44530 0.34800
C 	C 	0.70920 0.68370 0.47260 -0.05900
C 	C 	0.81260 0.68560 0.52620 -0.05500
C 	C 	0.70930 0.61400 0.47000 -0.02400
H 	H 	0.67380 0.59040 0.45010 0.02600
C 	C 	0.81580 0.61580 0.52640 -0.02500
H 	H 	0.85250 0.59350 0.54560 0.03000
C 	C 	0.76400 0.58030 0.49790 -0.05500
H 	H 	0.76540 0.53330 0.49720 0.03100
Gd	Gd	0.74631 0.15387 0.00883 1.26600
O 	O 	0.64573 0.20569 0.05046 -0.42600
O 	O 	0.84115 0.20989 0.96002 -0.43000
O 	O 	0.58338 0.29399 0.08250 -0.40400
O 	O 	0.89084 0.29690 0.90927 -0.40800
N 	N 	0.74019 0.28106 0.00069 -0.16800
C 	C 	0.63420 0.26900 0.05550 0.33900
C 	C 	0.84590 0.27200 0.94530 0.34800
C 	C 	0.79080 0.31630 0.97260 -0.05900
C 	C 	0.68740 0.31440 0.02620 -0.05500
C 	C 	0.79070 0.38600 0.97000 -0.02400
H 	H 	0.82620 0.40960 0.95010 0.02600
C 	C 	0.68420 0.38420 0.02640 -0.02600
H 	H 	0.64750 0.40650 0.04560 0.03000
C 	C 	0.73600 0.41970 0.99790 -0.05400
H 	H 	0.73460 0.46670 0.99720 0.03100
Gd	Gd	0.24631 0.34613 0.99117 1.26400
O 	O 	0.14573 0.29431 0.94954 -0.42600
O 	O 	0.34115 0.29011 0.03998 -0.42900
O 	O 	0.08338 0.20601 0.91750 -0.40400
O 	O 	0.39084 0.20310 0.09073 -0.40800
N 	N 	0.24019 0.21894 0.99931 -0.17000
C 	C 	0.13420 0.23100 0.94450 0.33900
C 	C 	0.34590 0.22800 0.05470 0.34700
C 	C 	0.29080 0.18370 0.02740 -0.05600
C 	C 	0.18740 0.18560 0.97380 -0.05300
C 	C 	0.29070 0.11400 0.03000 -0.02800
H 	H 	0.32620 0.09040 0.04990 0.02800
C 	C 	0.18420 0.11580 0.97360 -0.03100
H 	H 	0.14750 0.09350 0.95440 0.03100
C 	C 	0.23600 0.08030 0.00210 -0.04800
H 	H 	0.23460 0.03330 0.00280 0.03000
Gd	Gd	0.25369 0.65387 0.49117 1.26600
O 	O 	0.35427 0.70569 0.44954 -0.42500
O 	O 	0.15885 0.70989 0.53998 -0.42900
O 	O 	0.41662 0.79399 0.41750 -0.40300
O 	O 	0.10916 0.79690 0.59073 -0.40700
N 	N 	0.25981 0.78106 0.49931 -0.16700
C 	C 	0.36580 0.76900 0.44450 0.34100
C 	C 	0.15410 0.77200 0.55470 0.34900
C 	C 	0.20920 0.81630 0.52740 -0.05800
C 	C 	0.31260 0.81440 0.47380 -0.05400
C 	C 	0.20930 0.88600 0.53000 -0.02300
H 	H 	0.17380 0.90960 0.54990 0.02700
C 	C 	0.31580 0.88420 0.47360 -0.02400
H 	H 	0.35250 0.90650 0.45440 0.03100
C 	C 	0.26400 0.91970 0.50210 -0.05400
H 	H 	0.26540 0.96670 0.50280 0.03200
Gd	Gd	0.50883 0.75369 0.84613 1.26700
O 	O 	0.55046 0.85427 0.79431 -0.42500
O 	O 	0.46002 0.65885 0.79011 -0.42900
O 	O 	0.58250 0.91662 0.70601 -0.40300
O 	O 	0.40927 0.60916 0.70310 -0.40700
N 	N 	0.50069 0.75981 0.71894 -0.16700
C 	C 	0.55550 0.86580 0.73100 0.34000
C 	C 	0.44530 0.65410 0.72800 0.34900
C 	C 	0.47260 0.70920 0.68370 -0.05800
C 	C 	0.52620 0.81260 0.68560 -0.05400
C 	C 	0.47000 0.70930 0.61400 -0.02300
H 	H 	0.45010 0.67380 0.59040 0.02700
C 	C 	0.52640 0.81580 0.61580 -0.02400
H 	H 	0.54560 0.85250 0.59350 0.03100
C 	C 	0.49790 0.76400 0.58030 -0.05400
H 	H 	0.49720 0.76540 0.53330 0.03200
Gd	Gd	0.00883 0.74631 0.15387 1.26700
O 	O 	0.05046 0.64573 0.20569 -0.42500
O 	O 	0.96002 0.84115 0.20989 -0.42900
O 	O 	0.08250 0.58338 0.29399 -0.40300
O 	O 	0.90927 0.89084 0.29690 -0.40700
N 	N 	0.00069 0.74019 0.28106 -0.16700
C 	C 	0.05550 0.63420 0.26900 0.34000
C 	C 	0.94530 0.84590 0.27200 0.34900
C 	C 	0.97260 0.79080 0.31630 -0.05800
C 	C 	0.02620 0.68740 0.31440 -0.05400
C 	C 	0.97000 0.79070 0.38600 -0.02300
H 	H 	0.95010 0.82620 0.40960 0.02700
C 	C 	0.02640 0.68420 0.38420 -0.02500
H 	H 	0.04560 0.64750 0.40650 0.03100
C 	C 	0.99790 0.73600 0.41970 -0.05300
H 	H 	0.99720 0.73460 0.46670 0.03200
Gd	Gd	0.99117 0.24631 0.34613 1.26500
O 	O 	0.94954 0.14573 0.29431 -0.42500
O 	O 	0.03998 0.34115 0.29011 -0.42800
O 	O 	0.91750 0.08338 0.20601 -0.40300
O 	O 	0.09073 0.39084 0.20310 -0.40700
N 	N 	0.99931 0.24019 0.21894 -0.16900
C 	C 	0.94450 0.13420 0.23100 0.34000
C 	C 	0.05470 0.34590 0.22800 0.34800
C 	C 	0.02740 0.29080 0.18370 -0.05500
C 	C 	0.97380 0.18740 0.18560 -0.05200
C 	C 	0.03000 0.29070 0.11400 -0.02700
H 	H 	0.04990 0.32620 0.09040 0.02900
C 	C 	0.97360 0.18420 0.11580 -0.03000
H 	H 	0.95440 0.14750 0.09350 0.03200
C 	C 	0.00210 0.23600 0.08030 -0.04700
H 	H 	0.00280 0.23460 0.03330 0.03100
Gd	Gd	0.49117 0.25369 0.65387 1.26600
O 	O 	0.44954 0.35427 0.70569 -0.42500
O 	O 	0.53998 0.15885 0.70989 -0.42900
O 	O 	0.41750 0.41662 0.79399 -0.40300
O 	O 	0.59073 0.10916 0.79690 -0.40700
N 	N 	0.49931 0.25981 0.78106 -0.16700
C 	C 	0.44450 0.36580 0.76900 0.34100
C 	C 	0.55470 0.15410 0.77200 0.34900
C 	C 	0.52740 0.20920 0.81630 -0.05800
C 	C 	0.47380 0.31260 0.81440 -0.05400
C 	C 	0.53000 0.20930 0.88600 -0.02300
H 	H 	0.54990 0.17380 0.90960 0.02700
C 	C 	0.47360 0.31580 0.88420 -0.02400
H 	H 	0.45440 0.35250 0.90650 0.03100
C 	C 	0.50210 0.26400 0.91970 -0.05400
H 	H 	0.50280 0.26540 0.96670 0.03200
Gd	Gd	0.84613 0.50883 0.75369 1.26700
O 	O 	0.79431 0.55046 0.85427 -0.42500
O 	O 	0.79011 0.46002 0.65885 -0.42900
O 	O 	0.70601 0.58250 0.91662 -0.40300
O 	O 	0.70310 0.40927 0.60916 -0.40700
N 	N 	0.71894 0.50069 0.75981 -0.16700
C 	C 	0.73100 0.55550 0.86580 0.34000
C 	C 	0.72800 0.44530 0.65410 0.34900
C 	C 	0.68370 0.47260 0.70920 -0.05800
C 	C 	0.68560 0.52620 0.81260 -0.05400
C 	C 	0.61400 0.47000 0.70930 -0.02300
H 	H 	0.59040 0.45010 0.67380 0.02700
C 	C 	0.61580 0.52640 0.81580 -0.02400
H 	H 	0.59350 0.54560 0.85250 0.03100
C 	C 	0.58030 0.49790 0.76400 -0.05400
H 	H 	0.53330 0.49720 0.76540 0.03200
Gd	Gd	0.15387 0.00883 0.74631 1.26700
O 	O 	0.20569 0.05046 0.64573 -0.42500
O 	O 	0.20989 0.96002 0.84115 -0.42900
O 	O 	0.29399 0.08250 0.58338 -0.40300
O 	O 	0.29690 0.90927 0.89084 -0.40700
N 	N 	0.28106 0.00069 0.74019 -0.16700
C 	C 	0.26900 0.05550 0.63420 0.34000
C 	C 	0.27200 0.94530 0.84590 0.34900
C 	C 	0.31630 0.97260 0.79080 -0.05800
C 	C 	0.31440 0.02620 0.68740 -0.05400
C 	C 	0.38600 0.97000 0.79070 -0.02300
H 	H 	0.40960 0.95010 0.82620 0.02700
C 	C 	0.38420 0.02640 0.68420 -0.02500
H 	H 	0.40650 0.04560 0.64750 0.03100
C 	C 	0.41970 0.99790 0.73600 -0.05300
H 	H 	0.46670 0.99720 0.73460 0.03200
Gd	Gd	0.34613 0.99117 0.24631 1.26500
O 	O 	0.29431 0.94954 0.14573 -0.42500
O 	O 	0.29011 0.03998 0.34115 -0.42800
O 	O 	0.20601 0.91750 0.08338 -0.40300
O 	O 	0.20310 0.09073 0.39084 -0.40700
N 	N 	0.21894 0.99931 0.24019 -0.16900
C 	C 	0.23100 0.94450 0.13420 0.34000
C 	C 	0.22800 0.05470 0.34590 0.34800
C 	C 	0.18370 0.02740 0.29080 -0.05500
C 	C 	0.18560 0.97380 0.18740 -0.05200
C 	C 	0.11400 0.03000 0.29070 -0.02700
H 	H 	0.09040 0.04990 0.32620 0.02900
C 	C 	0.11580 0.97360 0.18420 -0.03000
H 	H 	0.09350 0.95440 0.14750 0.03200
C 	C 	0.08030 0.00210 0.23600 -0.04700
H 	H 	0.03330 0.00280 0.23460 0.03100
Gd	Gd	0.65387 0.49117 0.25369 1.26600
O 	O 	0.70569 0.44954 0.35427 -0.42500
O 	O 	0.70989 0.53998 0.15885 -0.42900
O 	O 	0.79399 0.41750 0.41662 -0.40300
O 	O 	0.79690 0.59073 0.10916 -0.40700
N 	N 	0.78106 0.49931 0.25981 -0.16700
C 	C 	0.76900 0.44450 0.36580 0.34100
C 	C 	0.77200 0.55470 0.15410 0.34900
C 	C 	0.81630 0.52740 0.20920 -0.05800
C 	C 	0.81440 0.47380 0.31260 -0.05400
C 	C 	0.88600 0.53000 0.20930 -0.02300
H 	H 	0.90960 0.54990 0.17380 0.02700
C 	C 	0.88420 0.47360 0.31580 -0.02400
H 	H 	0.90650 0.45440 0.35250 0.03100
C 	C 	0.91970 0.50210 0.26400 -0.05400
H 	H 	0.96670 0.50280 0.26540 0.03200
Gd	Gd	0.24631 0.15387 0.49117 1.26700
O 	O 	0.14573 0.20569 0.44954 -0.42500
O 	O 	0.34115 0.20989 0.53998 -0.42900
O 	O 	0.08338 0.29399 0.41750 -0.40300
O 	O 	0.39084 0.29690 0.59073 -0.40700
N 	N 	0.24019 0.28106 0.49931 -0.16700
C 	C 	0.13420 0.26900 0.44450 0.34000
C 	C 	0.34590 0.27200 0.55470 0.34900
C 	C 	0.29080 0.31630 0.52740 -0.05800
C 	C 	0.18740 0.31440 0.47380 -0.05400
C 	C 	0.29070 0.38600 0.53000 -0.02300
H 	H 	0.32620 0.40960 0.54990 0.02700
C 	C 	0.18420 0.38420 0.47360 -0.02400
H 	H 	0.14750 0.40650 0.45440 0.03100
C 	C 	0.23600 0.41970 0.50210 -0.05400
H 	H 	0.23460 0.46670 0.50280 0.03200
Gd	Gd	0.25369 0.84613 0.99117 1.26700
O 	O 	0.35427 0.79431 0.94954 -0.42500
O 	O 	0.15885 0.79011 0.03998 -0.42900
O 	O 	0.41662 0.70601 0.91750 -0.40300
O 	O 	0.10916 0.70310 0.09073 -0.40700
N 	N 	0.25981 0.71894 0.99931 -0.16700
C 	C 	0.36580 0.73100 0.94450 0.34000
C 	C 	0.15410 0.72800 0.05470 0.34900
C 	C 	0.20920 0.68370 0.02740 -0.05800
C 	C 	0.31260 0.68560 0.97380 -0.05400
C 	C 	0.20930 0.61400 0.03000 -0.02300
H 	H 	0.17380 0.59040 0.04990 0.02700
C 	C 	0.31580 0.61580 0.97360 -0.02500
H 	H 	0.35250 0.59350 0.95440 0.03100
C 	C 	0.26400 0.58030 0.00210 -0.05300
H 	H 	0.26540 0.53330 0.00280 0.03200
Gd	Gd	0.75369 0.65387 0.00883 1.26500
O 	O 	0.85427 0.70569 0.05046 -0.42500
O 	O 	0.65885 0.70989 0.96002 -0.42800
O 	O 	0.91662 0.79399 0.08250 -0.40300
O 	O 	0.60916 0.79690 0.90927 -0.40700
N 	N 	0.75981 0.78106 0.00069 -0.16900
C 	C 	0.86580 0.76900 0.05550 0.34000
C 	C 	0.65410 0.77200 0.94530 0.34800
C 	C 	0.70920 0.81630 0.97260 -0.05500
C 	C 	0.81260 0.81440 0.02620 -0.05200
C 	C 	0.70930 0.88600 0.97000 -0.02700
H 	H 	0.67380 0.90960 0.95010 0.02900
C 	C 	0.81580 0.88420 0.02640 -0.03000
H 	H 	0.85250 0.90650 0.04560 0.03200
C 	C 	0.76400 0.91970 0.99790 -0.04700
H 	H 	0.76540 0.96670 0.99720 0.03100
Gd	Gd	0.74631 0.34613 0.50883 1.26600
O 	O 	0.64573 0.29431 0.55046 -0.42500
O 	O 	0.84115 0.29011 0.46002 -0.42900
O 	O 	0.58338 0.20601 0.58250 -0.40300
O 	O 	0.89084 0.20310 0.40927 -0.40700
N 	N 	0.74019 0.21894 0.50069 -0.16700
C 	C 	0.63420 0.23100 0.55550 0.34100
C 	C 	0.84590 0.22800 0.44530 0.34900
C 	C 	0.79080 0.18370 0.47260 -0.05800
C 	C 	0.68740 0.18560 0.52620 -0.05400
C 	C 	0.79070 0.11400 0.47000 -0.02300
H 	H 	0.82620 0.09040 0.45010 0.02700
C 	C 	0.68420 0.11580 0.52640 -0.02400
H 	H 	0.64750 0.09350 0.54560 0.03100
C 	C 	0.73600 0.08030 0.49790 -0.05400
H 	H 	0.73460 0.03330 0.49720 0.03200
Gd	Gd	0.49117 0.24631 0.15387 1.26700
O 	O 	0.44954 0.14573 0.20569 -0.42500
O 	O 	0.53998 0.34115 0.20989 -0.42900
O 	O 	0.41750 0.08338 0.29399 -0.40300
O 	O 	0.59073 0.39084 0.29690 -0.40700
N 	N 	0.49931 0.24019 0.28106 -0.16700
C 	C 	0.44450 0.13420 0.26900 0.34000
C 	C 	0.55470 0.34590 0.27200 0.34900
C 	C 	0.52740 0.29080 0.31630 -0.05800
C 	C 	0.47380 0.18740 0.31440 -0.05400
C 	C 	0.53000 0.29070 0.38600 -0.02300
H 	H 	0.54990 0.32620 0.40960 0.02700
C 	C 	0.47360 0.18420 0.38420 -0.02400
H 	H 	0.45440 0.14750 0.40650 0.03100
C 	C 	0.50210 0.23600 0.41970 -0.05400
H 	H 	0.50280 0.23460 0.46670 0.03200
Gd	Gd	0.99117 0.25369 0.84613 1.26700
O 	O 	0.94954 0.35427 0.79431 -0.42500
O 	O 	0.03998 0.15885 0.79011 -0.42900
O 	O 	0.91750 0.41662 0.70601 -0.40300
O 	O 	0.09073 0.10916 0.70310 -0.40700
N 	N 	0.99931 0.25981 0.71894 -0.16700
C 	C 	0.94450 0.36580 0.73100 0.34000
C 	C 	0.05470 0.15410 0.72800 0.34900
C 	C 	0.02740 0.20920 0.68370 -0.05800
C 	C 	0.97380 0.31260 0.68560 -0.05400
C 	C 	0.03000 0.20930 0.61400 -0.02300
H 	H 	0.04990 0.17380 0.59040 0.02700
C 	C 	0.97360 0.31580 0.61580 -0.02500
H 	H 	0.95440 0.35250 0.59350 0.03100
C 	C 	0.00210 0.26400 0.58030 -0.05300
H 	H 	0.00280 0.26540 0.53330 0.03200
Gd	Gd	0.00883 0.75369 0.65387 1.26500
O 	O 	0.05046 0.85427 0.70569 -0.42500
O 	O 	0.96002 0.65885 0.70989 -0.42800
O 	O 	0.08250 0.91662 0.79399 -0.40300
O 	O 	0.90927 0.60916 0.79690 -0.40700
N 	N 	0.00069 0.75981 0.78106 -0.16900
C 	C 	0.05550 0.86580 0.76900 0.34000
C 	C 	0.94530 0.65410 0.77200 0.34800
C 	C 	0.97260 0.70920 0.81630 -0.05500
C 	C 	0.02620 0.81260 0.81440 -0.05200
C 	C 	0.97000 0.70930 0.88600 -0.02700
H 	H 	0.95010 0.67380 0.90960 0.02900
C 	C 	0.02640 0.81580 0.88420 -0.03000
H 	H 	0.04560 0.85250 0.90650 0.03200
C 	C 	0.99790 0.76400 0.91970 -0.04700
H 	H 	0.99720 0.76540 0.96670 0.03100
Gd	Gd	0.50883 0.74631 0.34613 1.26600
O 	O 	0.55046 0.64573 0.29431 -0.42500
O 	O 	0.46002 0.84115 0.29011 -0.42900
O 	O 	0.58250 0.58338 0.20601 -0.40300
O 	O 	0.40927 0.89084 0.20310 -0.40700
N 	N 	0.50069 0.74019 0.21894 -0.16700
C 	C 	0.55550 0.63420 0.23100 0.34100
C 	C 	0.44530 0.84590 0.22800 0.34900
C 	C 	0.47260 0.79080 0.18370 -0.05800
C 	C 	0.52620 0.68740 0.18560 -0.05400
C 	C 	0.47000 0.79070 0.11400 -0.02300
H 	H 	0.45010 0.82620 0.09040 0.02700
C 	C 	0.52640 0.68420 0.11580 -0.02400
H 	H 	0.54560 0.64750 0.09350 0.03100
C 	C 	0.49790 0.73600 0.08030 -0.05400
H 	H 	0.49720 0.73460 0.03330 0.03200
Gd	Gd	0.15387 0.49117 0.24631 1.26700
O 	O 	0.20569 0.44954 0.14573 -0.42500
O 	O 	0.20989 0.53998 0.34115 -0.42900
O 	O 	0.29399 0.41750 0.08338 -0.40300
O 	O 	0.29690 0.59073 0.39084 -0.40700
N 	N 	0.28106 0.49931 0.24019 -0.16700
C 	C 	0.26900 0.44450 0.13420 0.34000
C 	C 	0.27200 0.55470 0.34590 0.34900
C 	C 	0.31630 0.52740 0.29080 -0.05800
C 	C 	0.31440 0.47380 0.18740 -0.05400
C 	C 	0.38600 0.53000 0.29070 -0.02300
H 	H 	0.40960 0.54990 0.32620 0.02700
C 	C 	0.38420 0.47360 0.18420 -0.02400
H 	H 	0.40650 0.45440 0.14750 0.03100
C 	C 	0.41970 0.50210 0.23600 -0.05400
H 	H 	0.46670 0.50280 0.23460 0.03200
Gd	Gd	0.84613 0.99117 0.25369 1.26700
O 	O 	0.79431 0.94954 0.35427 -0.42500
O 	O 	0.79011 0.03998 0.15885 -0.42900
O 	O 	0.70601 0.91750 0.41662 -0.40300
O 	O 	0.70310 0.09073 0.10916 -0.40700
N 	N 	0.71894 0.99931 0.25981 -0.16700
C 	C 	0.73100 0.94450 0.36580 0.34000
C 	C 	0.72800 0.05470 0.15410 0.34900
C 	C 	0.68370 0.02740 0.20920 -0.05800
C 	C 	0.68560 0.97380 0.31260 -0.05400
C 	C 	0.61400 0.03000 0.20930 -0.02300
H 	H 	0.59040 0.04990 0.17380 0.02700
C 	C 	0.61580 0.97360 0.31580 -0.02500
H 	H 	0.59350 0.95440 0.35250 0.03100
C 	C 	0.58030 0.00210 0.26400 -0.05300
H 	H 	0.53330 0.00280 0.26540 0.03200
Gd	Gd	0.65387 0.00883 0.75369 1.26500
O 	O 	0.70569 0.05046 0.85427 -0.42500
O 	O 	0.70989 0.96002 0.65885 -0.42800
O 	O 	0.79399 0.08250 0.91662 -0.40300
O 	O 	0.79690 0.90927 0.60916 -0.40700
N 	N 	0.78106 0.00069 0.75981 -0.16900
C 	C 	0.76900 0.05550 0.86580 0.34000
C 	C 	0.77200 0.94530 0.65410 0.34800
C 	C 	0.81630 0.97260 0.70920 -0.05500
C 	C 	0.81440 0.02620 0.81260 -0.05200
C 	C 	0.88600 0.97000 0.70930 -0.02700
H 	H 	0.90960 0.95010 0.67380 0.02900
C 	C 	0.88420 0.02640 0.81580 -0.03000
H 	H 	0.90650 0.04560 0.85250 0.03200
C 	C 	0.91970 0.99790 0.76400 -0.04700
H 	H 	0.96670 0.99720 0.76540 0.03100
Gd	Gd	0.34613 0.50883 0.74631 1.26600
O 	O 	0.29431 0.55046 0.64573 -0.42500
O 	O 	0.29011 0.46002 0.84115 -0.42900
O 	O 	0.20601 0.58250 0.58338 -0.40300
O 	O 	0.20310 0.40927 0.89084 -0.40700
N 	N 	0.21894 0.50069 0.74019 -0.16700
C 	C 	0.23100 0.55550 0.63420 0.34100
C 	C 	0.22800 0.44530 0.84590 0.34900
C 	C 	0.18370 0.47260 0.79080 -0.05800
C 	C 	0.18560 0.52620 0.68740 -0.05400
C 	C 	0.11400 0.47000 0.79070 -0.02300
H 	H 	0.09040 0.45010 0.82620 0.02700
C 	C 	0.11580 0.52640 0.68420 -0.02400
H 	H 	0.09350 0.54560 0.64750 0.03100
C 	C 	0.08030 0.49790 0.73600 -0.05400
H 	H 	0.03330 0.49720 0.73460 0.03200
