data_crystal

_cell_length_a 32.03190
_cell_length_b 32.03190
_cell_length_c 32.03190
_cell_angle_alpha 60.00000
_cell_angle_beta  60.00000
_cell_angle_gamma 60.00000

_symmetry_space_group_name_	'P 1'
_symmetry_space_group_name_H-M	'P 1'

loop_
_symmetry_equiv_pos_as_xyz
  x,y,z

loop_
_atom_site_label
_atom_site_type_symbol
_atom_site_fract_x
_atom_site_fract_y
_atom_site_fract_z
_atom_site_charge
Na	Na	0.75000 0.25000 0.75000 0.57800
Na	Na	0.25000 0.75000 0.25000 0.57800
Na	Na	0.75000 0.75000 0.25000 0.57800
Na	Na	0.25000 0.25000 0.75000 0.57800
Na	Na	0.75000 0.25000 0.25000 0.57800
Na	Na	0.25000 0.75000 0.75000 0.57800
Cd	Cd	0.62364 0.87636 0.25000 1.22100
Cd	Cd	0.87636 0.62364 0.25000 1.22100
Cd	Cd	0.25000 0.25000 0.62364 1.22100
Cd	Cd	0.25000 0.25000 0.87636 1.22100
Cd	Cd	0.62364 0.25000 0.25000 1.22100
Cd	Cd	0.87636 0.25000 0.25000 1.22100
Cd	Cd	0.25000 0.62364 0.87636 1.22100
Cd	Cd	0.25000 0.87636 0.62364 1.22100
Cd	Cd	0.62364 0.25000 0.87636 1.22100
Cd	Cd	0.87636 0.25000 0.62364 1.22100
Cd	Cd	0.25000 0.87636 0.25000 1.22100
Cd	Cd	0.25000 0.62364 0.25000 1.22100
Cd	Cd	0.37636 0.12364 0.75000 1.22100
Cd	Cd	0.12364 0.37636 0.75000 1.22100
Cd	Cd	0.75000 0.75000 0.37636 1.22100
Cd	Cd	0.75000 0.75000 0.12364 1.22100
Cd	Cd	0.37636 0.75000 0.75000 1.22100
Cd	Cd	0.12364 0.75000 0.75000 1.22100
Cd	Cd	0.75000 0.37636 0.12364 1.22100
Cd	Cd	0.75000 0.12364 0.37636 1.22100
Cd	Cd	0.37636 0.75000 0.12364 1.22100
Cd	Cd	0.12364 0.75000 0.37636 1.22100
Cd	Cd	0.75000 0.12364 0.75000 1.22100
Cd	Cd	0.75000 0.37636 0.75000 1.22100
H 	H 	0.63040 0.15920 0.97300 0.13900
H 	H 	0.57370 0.06490 0.13970 0.01000
H 	H 	0.58380 0.12960 0.06020 0.11000
H 	H 	0.70870 0.02810 0.99590 0.08700
H 	H 	0.69860 0.96340 0.07520 0.02000
H 	H 	0.15920 0.63040 0.23740 0.13900
H 	H 	0.06490 0.57370 0.22170 0.01000
H 	H 	0.12960 0.58380 0.22640 0.11000
H 	H 	0.02810 0.70870 0.26730 0.08700
H 	H 	0.96340 0.69860 0.26280 0.02000
H 	H 	0.97300 0.23740 0.63040 0.13900
H 	H 	0.13970 0.22170 0.57370 0.01000
H 	H 	0.06020 0.22640 0.58380 0.11000
H 	H 	0.99590 0.26730 0.70870 0.08700
H 	H 	0.07520 0.26280 0.69860 0.02000
H 	H 	0.23740 0.97300 0.15920 0.13900
H 	H 	0.22170 0.13970 0.06490 0.01000
H 	H 	0.22640 0.06020 0.12960 0.11000
H 	H 	0.26730 0.99590 0.02810 0.08600
H 	H 	0.26280 0.07520 0.96340 0.02000
H 	H 	0.63040 0.97300 0.23740 0.13900
H 	H 	0.57370 0.13970 0.22170 0.01000
H 	H 	0.58380 0.06020 0.22640 0.11000
H 	H 	0.70870 0.99590 0.26730 0.08700
H 	H 	0.69860 0.07520 0.26280 0.02000
H 	H 	0.15920 0.23740 0.97300 0.13900
H 	H 	0.06490 0.22170 0.13970 0.01000
H 	H 	0.12960 0.22640 0.06020 0.11000
H 	H 	0.02810 0.26730 0.99590 0.08600
H 	H 	0.96340 0.26280 0.07520 0.02000
H 	H 	0.97300 0.63040 0.15920 0.13900
H 	H 	0.13970 0.57370 0.06490 0.01000
H 	H 	0.06020 0.58380 0.12960 0.11000
H 	H 	0.99590 0.70870 0.02810 0.08700
H 	H 	0.07520 0.69860 0.96340 0.02000
H 	H 	0.23740 0.15920 0.63040 0.13900
H 	H 	0.22170 0.06490 0.57370 0.01000
H 	H 	0.22640 0.12960 0.58380 0.11000
H 	H 	0.26730 0.02810 0.70870 0.08700
H 	H 	0.26280 0.96340 0.69860 0.02000
H 	H 	0.63040 0.23740 0.15920 0.13900
H 	H 	0.57370 0.22170 0.06490 0.01000
H 	H 	0.58380 0.22640 0.12960 0.11000
H 	H 	0.70870 0.26730 0.02810 0.08700
H 	H 	0.69860 0.26280 0.96340 0.02000
H 	H 	0.15920 0.97300 0.63040 0.13900
H 	H 	0.06490 0.13970 0.57370 0.01000
H 	H 	0.12960 0.06020 0.58380 0.11000
H 	H 	0.02810 0.99590 0.70870 0.08700
H 	H 	0.96340 0.07520 0.69860 0.02000
H 	H 	0.97300 0.15920 0.23740 0.13900
H 	H 	0.13970 0.06490 0.22170 0.01000
H 	H 	0.06020 0.12960 0.22640 0.11000
H 	H 	0.99590 0.02810 0.26730 0.08600
H 	H 	0.07520 0.96340 0.26280 0.02000
H 	H 	0.23740 0.63040 0.97300 0.13900
H 	H 	0.22170 0.57370 0.13970 0.01000
H 	H 	0.22640 0.58380 0.06020 0.11000
H 	H 	0.26730 0.70870 0.99590 0.08700
H 	H 	0.26280 0.69860 0.07520 0.02000
H 	H 	0.34080 0.86960 0.52700 0.13900
H 	H 	0.43510 0.92630 0.36030 0.01000
H 	H 	0.37040 0.91620 0.43980 0.11000
H 	H 	0.47190 0.79130 0.50410 0.08700
H 	H 	0.53660 0.80140 0.42480 0.02000
H 	H 	0.86960 0.34080 0.26260 0.13900
H 	H 	0.92630 0.43510 0.27830 0.01000
H 	H 	0.91620 0.37040 0.27360 0.11000
H 	H 	0.79130 0.47190 0.23270 0.08700
H 	H 	0.80140 0.53660 0.23720 0.02000
H 	H 	0.26260 0.52700 0.86960 0.13900
H 	H 	0.27830 0.36030 0.92630 0.01000
H 	H 	0.27360 0.43980 0.91620 0.11000
H 	H 	0.23270 0.50410 0.79130 0.08700
H 	H 	0.23720 0.42480 0.80140 0.02000
H 	H 	0.52700 0.26260 0.34080 0.13900
H 	H 	0.36030 0.27830 0.43510 0.01000
H 	H 	0.43980 0.27360 0.37040 0.11000
H 	H 	0.50410 0.23270 0.47190 0.08700
H 	H 	0.42480 0.23720 0.53660 0.02000
H 	H 	0.52700 0.86960 0.26260 0.13900
H 	H 	0.36030 0.92630 0.27830 0.01000
H 	H 	0.43980 0.91620 0.27360 0.11000
H 	H 	0.50410 0.79130 0.23270 0.08700
H 	H 	0.42480 0.80140 0.23720 0.02000
H 	H 	0.26260 0.34080 0.52700 0.13900
H 	H 	0.27830 0.43510 0.36030 0.01000
H 	H 	0.27360 0.37040 0.43980 0.11000
H 	H 	0.23270 0.47190 0.50410 0.08700
H 	H 	0.23720 0.53660 0.42480 0.02000
H 	H 	0.86960 0.52700 0.34080 0.13900
H 	H 	0.92630 0.36030 0.43510 0.01000
H 	H 	0.91620 0.43980 0.37040 0.11000
H 	H 	0.79130 0.50410 0.47190 0.08700
H 	H 	0.80140 0.42480 0.53660 0.02000
H 	H 	0.34080 0.26260 0.86960 0.13900
H 	H 	0.43510 0.27830 0.92630 0.01000
H 	H 	0.37040 0.27360 0.91620 0.11000
H 	H 	0.47190 0.23270 0.79130 0.08700
H 	H 	0.53660 0.23720 0.80140 0.02000
H 	H 	0.26260 0.86960 0.34080 0.13900
H 	H 	0.27830 0.92630 0.43510 0.01000
H 	H 	0.27360 0.91620 0.37040 0.11000
H 	H 	0.23270 0.79130 0.47190 0.08700
H 	H 	0.23720 0.80140 0.53660 0.02000
H 	H 	0.52700 0.34080 0.86960 0.13900
H 	H 	0.36030 0.43510 0.92630 0.01000
H 	H 	0.43980 0.37040 0.91620 0.11000
H 	H 	0.50410 0.47190 0.79130 0.08700
H 	H 	0.42480 0.53660 0.80140 0.02000
H 	H 	0.34080 0.52700 0.26260 0.13900
H 	H 	0.43510 0.36030 0.27830 0.01000
H 	H 	0.37040 0.43980 0.27360 0.11000
H 	H 	0.47190 0.50410 0.23270 0.08700
H 	H 	0.53660 0.42480 0.23720 0.02000
H 	H 	0.86960 0.26260 0.52700 0.13900
H 	H 	0.92630 0.27830 0.36030 0.01000
H 	H 	0.91620 0.27360 0.43980 0.11000
H 	H 	0.79130 0.23270 0.50410 0.08700
H 	H 	0.80140 0.23720 0.42480 0.02000
H 	H 	0.36960 0.84080 0.02700 0.13900
H 	H 	0.42630 0.93510 0.86030 0.01000
H 	H 	0.41620 0.87040 0.93980 0.11000
H 	H 	0.29130 0.97190 0.00410 0.08700
H 	H 	0.30140 0.03660 0.92480 0.02000
H 	H 	0.84080 0.36960 0.76260 0.13900
H 	H 	0.93510 0.42630 0.77830 0.01000
H 	H 	0.87040 0.41620 0.77360 0.11000
H 	H 	0.97190 0.29130 0.73270 0.08700
H 	H 	0.03660 0.30140 0.73720 0.02000
H 	H 	0.02700 0.76260 0.36960 0.13900
H 	H 	0.86030 0.77830 0.42630 0.01000
H 	H 	0.93980 0.77360 0.41620 0.11000
H 	H 	0.00410 0.73270 0.29130 0.08700
H 	H 	0.92480 0.73720 0.30140 0.02000
H 	H 	0.76260 0.02700 0.84080 0.13900
H 	H 	0.77830 0.86030 0.93510 0.01000
H 	H 	0.77360 0.93980 0.87040 0.11000
H 	H 	0.73270 0.00410 0.97190 0.08600
H 	H 	0.73720 0.92480 0.03660 0.02000
H 	H 	0.36960 0.02700 0.76260 0.13900
H 	H 	0.42630 0.86030 0.77830 0.01000
H 	H 	0.41620 0.93980 0.77360 0.11000
H 	H 	0.29130 0.00410 0.73270 0.08700
H 	H 	0.30140 0.92480 0.73720 0.02000
H 	H 	0.84080 0.76260 0.02700 0.13900
H 	H 	0.93510 0.77830 0.86030 0.01000
H 	H 	0.87040 0.77360 0.93980 0.11000
H 	H 	0.97190 0.73270 0.00410 0.08600
H 	H 	0.03660 0.73720 0.92480 0.02000
H 	H 	0.02700 0.36960 0.84080 0.13900
H 	H 	0.86030 0.42630 0.93510 0.01000
H 	H 	0.93980 0.41620 0.87040 0.11000
H 	H 	0.00410 0.29130 0.97190 0.08700
H 	H 	0.92480 0.30140 0.03660 0.02000
H 	H 	0.76260 0.84080 0.36960 0.13900
H 	H 	0.77830 0.93510 0.42630 0.01000
H 	H 	0.77360 0.87040 0.41620 0.11000
H 	H 	0.73270 0.97190 0.29130 0.08700
H 	H 	0.73720 0.03660 0.30140 0.02000
H 	H 	0.36960 0.76260 0.84080 0.13900
H 	H 	0.42630 0.77830 0.93510 0.01000
H 	H 	0.41620 0.77360 0.87040 0.11000
H 	H 	0.29130 0.73270 0.97190 0.08700
H 	H 	0.30140 0.73720 0.03660 0.02000
H 	H 	0.84080 0.02700 0.36960 0.13900
H 	H 	0.93510 0.86030 0.42630 0.01000
H 	H 	0.87040 0.93980 0.41620 0.11000
H 	H 	0.97190 0.00410 0.29130 0.08700
H 	H 	0.03660 0.92480 0.30140 0.02000
H 	H 	0.02700 0.84080 0.76260 0.13900
H 	H 	0.86030 0.93510 0.77830 0.01000
H 	H 	0.93980 0.87040 0.77360 0.11000
H 	H 	0.00410 0.97190 0.73270 0.08600
H 	H 	0.92480 0.03660 0.73720 0.02000
H 	H 	0.76260 0.36960 0.02700 0.13900
H 	H 	0.77830 0.42630 0.86030 0.01000
H 	H 	0.77360 0.41620 0.93980 0.11000
H 	H 	0.73270 0.29130 0.00410 0.08700
H 	H 	0.73720 0.30140 0.92480 0.02000
H 	H 	0.65920 0.13040 0.47300 0.13900
H 	H 	0.56490 0.07370 0.63970 0.01000
H 	H 	0.62960 0.08380 0.56020 0.11000
H 	H 	0.52810 0.20870 0.49590 0.08700
H 	H 	0.46340 0.19860 0.57520 0.02000
H 	H 	0.13040 0.65920 0.73740 0.13900
H 	H 	0.07370 0.56490 0.72170 0.01000
H 	H 	0.08380 0.62960 0.72640 0.11000
H 	H 	0.20870 0.52810 0.76730 0.08700
H 	H 	0.19860 0.46340 0.76280 0.02000
H 	H 	0.73740 0.47300 0.13040 0.13900
H 	H 	0.72170 0.63970 0.07370 0.01000
H 	H 	0.72640 0.56020 0.08380 0.11000
H 	H 	0.76730 0.49590 0.20870 0.08700
H 	H 	0.76280 0.57520 0.19860 0.02000
H 	H 	0.47300 0.73740 0.65920 0.13900
H 	H 	0.63970 0.72170 0.56490 0.01000
H 	H 	0.56020 0.72640 0.62960 0.11000
H 	H 	0.49590 0.76730 0.52810 0.08700
H 	H 	0.57520 0.76280 0.46340 0.02000
H 	H 	0.47300 0.13040 0.73740 0.13900
H 	H 	0.63970 0.07370 0.72170 0.01000
H 	H 	0.56020 0.08380 0.72640 0.11000
H 	H 	0.49590 0.20870 0.76730 0.08700
H 	H 	0.57520 0.19860 0.76280 0.02000
H 	H 	0.73740 0.65920 0.47300 0.13900
H 	H 	0.72170 0.56490 0.63970 0.01000
H 	H 	0.72640 0.62960 0.56020 0.11000
H 	H 	0.76730 0.52810 0.49590 0.08700
H 	H 	0.76280 0.46340 0.57520 0.02000
H 	H 	0.13040 0.47300 0.65920 0.13900
H 	H 	0.07370 0.63970 0.56490 0.01000
H 	H 	0.08380 0.56020 0.62960 0.11000
H 	H 	0.20870 0.49590 0.52810 0.08700
H 	H 	0.19860 0.57520 0.46340 0.02000
H 	H 	0.65920 0.73740 0.13040 0.13900
H 	H 	0.56490 0.72170 0.07370 0.01000
H 	H 	0.62960 0.72640 0.08380 0.11000
H 	H 	0.52810 0.76730 0.20870 0.08700
H 	H 	0.46340 0.76280 0.19860 0.02000
H 	H 	0.73740 0.13040 0.65920 0.13900
H 	H 	0.72170 0.07370 0.56490 0.01000
H 	H 	0.72640 0.08380 0.62960 0.11000
H 	H 	0.76730 0.20870 0.52810 0.08700
H 	H 	0.76280 0.19860 0.46340 0.02000
H 	H 	0.47300 0.65920 0.13040 0.13900
H 	H 	0.63970 0.56490 0.07370 0.01000
H 	H 	0.56020 0.62960 0.08380 0.11000
H 	H 	0.49590 0.52810 0.20870 0.08700
H 	H 	0.57520 0.46340 0.19860 0.02000
H 	H 	0.65920 0.47300 0.73740 0.13900
H 	H 	0.56490 0.63970 0.72170 0.01000
H 	H 	0.62960 0.56020 0.72640 0.11000
H 	H 	0.52810 0.49590 0.76730 0.08700
H 	H 	0.46340 0.57520 0.76280 0.02000
H 	H 	0.13040 0.73740 0.47300 0.13900
H 	H 	0.07370 0.72170 0.63970 0.01000
H 	H 	0.08380 0.72640 0.56020 0.11000
H 	H 	0.20870 0.76730 0.49590 0.08700
H 	H 	0.19860 0.76280 0.57520 0.02000
C 	C 	0.62850 0.96370 0.16510 0.42700
C 	C 	0.63520 0.00796 0.11506 -0.16200
C 	C 	0.60094 0.05750 0.11062 0.10500
C 	C 	0.60694 0.09604 0.06330 -0.19600
C 	C 	0.64722 0.08502 0.02044 0.18000
C 	C 	0.68148 0.03548 0.02488 -0.17200
C 	C 	0.67543 0.99697 0.07217 0.09100
C 	C 	0.67216 0.12304 0.92670 0.21900
C 	C 	0.96370 0.62850 0.24270 0.42800
C 	C 	0.00796 0.63520 0.24178 -0.16200
C 	C 	0.05750 0.60094 0.23094 0.10600
C 	C 	0.09604 0.60694 0.23372 -0.19700
C 	C 	0.08502 0.64722 0.24732 0.18100
C 	C 	0.03548 0.68148 0.25816 -0.17200
C 	C 	0.99697 0.67543 0.25543 0.09200
C 	C 	0.12304 0.67216 0.27810 0.21900
C 	C 	0.16510 0.24270 0.62850 0.42800
C 	C 	0.11506 0.24178 0.63520 -0.16200
C 	C 	0.11062 0.23094 0.60094 0.10600
C 	C 	0.06330 0.23372 0.60694 -0.19700
C 	C 	0.02044 0.24732 0.64722 0.18100
C 	C 	0.02488 0.25816 0.68148 -0.17200
C 	C 	0.07217 0.25543 0.67543 0.09200
C 	C 	0.92670 0.27810 0.67216 0.21900
C 	C 	0.24270 0.16510 0.96370 0.42700
C 	C 	0.24178 0.11506 0.00796 -0.16100
C 	C 	0.23094 0.11062 0.05750 0.10500
C 	C 	0.23372 0.06330 0.09604 -0.19600
C 	C 	0.24732 0.02044 0.08502 0.18000
C 	C 	0.25816 0.02488 0.03548 -0.17000
C 	C 	0.25543 0.07217 0.99697 0.08900
C 	C 	0.27810 0.92670 0.12304 0.21900
C 	C 	0.62850 0.16510 0.24270 0.42800
C 	C 	0.63520 0.11506 0.24178 -0.16200
C 	C 	0.60094 0.11062 0.23094 0.10600
C 	C 	0.60694 0.06330 0.23372 -0.19700
C 	C 	0.64722 0.02044 0.24732 0.18100
C 	C 	0.68148 0.02488 0.25816 -0.17200
C 	C 	0.67543 0.07217 0.25543 0.09200
C 	C 	0.67216 0.92670 0.27810 0.21900
C 	C 	0.96370 0.24270 0.16510 0.42700
C 	C 	0.00796 0.24178 0.11506 -0.16100
C 	C 	0.05750 0.23094 0.11062 0.10500
C 	C 	0.09604 0.23372 0.06330 -0.19600
C 	C 	0.08502 0.24732 0.02044 0.18000
C 	C 	0.03548 0.25816 0.02488 -0.17000
C 	C 	0.99697 0.25543 0.07217 0.08900
C 	C 	0.12304 0.27810 0.92670 0.21900
C 	C 	0.16510 0.62850 0.96370 0.42700
C 	C 	0.11506 0.63520 0.00796 -0.16200
C 	C 	0.11062 0.60094 0.05750 0.10500
C 	C 	0.06330 0.60694 0.09604 -0.19600
C 	C 	0.02044 0.64722 0.08502 0.18000
C 	C 	0.02488 0.68148 0.03548 -0.17200
C 	C 	0.07217 0.67543 0.99697 0.09100
C 	C 	0.92670 0.67216 0.12304 0.21900
C 	C 	0.24270 0.96370 0.62850 0.42800
C 	C 	0.24178 0.00796 0.63520 -0.16200
C 	C 	0.23094 0.05750 0.60094 0.10600
C 	C 	0.23372 0.09604 0.60694 -0.19700
C 	C 	0.24732 0.08502 0.64722 0.18100
C 	C 	0.25816 0.03548 0.68148 -0.17200
C 	C 	0.25543 0.99697 0.67543 0.09200
C 	C 	0.27810 0.12304 0.67216 0.21900
C 	C 	0.62850 0.24270 0.96370 0.42800
C 	C 	0.63520 0.24178 0.00796 -0.16200
C 	C 	0.60094 0.23094 0.05750 0.10600
C 	C 	0.60694 0.23372 0.09604 -0.19700
C 	C 	0.64722 0.24732 0.08502 0.18100
C 	C 	0.68148 0.25816 0.03548 -0.17200
C 	C 	0.67543 0.25543 0.99697 0.09200
C 	C 	0.67216 0.27810 0.12304 0.21900
C 	C 	0.96370 0.16510 0.62850 0.42700
C 	C 	0.00796 0.11506 0.63520 -0.16200
C 	C 	0.05750 0.11062 0.60094 0.10500
C 	C 	0.09604 0.06330 0.60694 -0.19600
C 	C 	0.08502 0.02044 0.64722 0.18000
C 	C 	0.03548 0.02488 0.68148 -0.17200
C 	C 	0.99697 0.07217 0.67543 0.09100
C 	C 	0.12304 0.92670 0.67216 0.21900
C 	C 	0.16510 0.96370 0.24270 0.42700
C 	C 	0.11506 0.00796 0.24178 -0.16100
C 	C 	0.11062 0.05750 0.23094 0.10500
C 	C 	0.06330 0.09604 0.23372 -0.19600
C 	C 	0.02044 0.08502 0.24732 0.18000
C 	C 	0.02488 0.03548 0.25816 -0.17000
C 	C 	0.07217 0.99697 0.25543 0.08900
C 	C 	0.92670 0.12304 0.27810 0.21900
C 	C 	0.24270 0.62850 0.16510 0.42800
C 	C 	0.24178 0.63520 0.11506 -0.16200
C 	C 	0.23094 0.60094 0.11062 0.10600
C 	C 	0.23372 0.60694 0.06330 -0.19700
C 	C 	0.24732 0.64722 0.02044 0.18100
C 	C 	0.25816 0.68148 0.02488 -0.17200
C 	C 	0.25543 0.67543 0.07217 0.09200
C 	C 	0.27810 0.67216 0.92670 0.21900
C 	C 	0.53630 0.87150 0.33490 0.42800
C 	C 	0.49204 0.86480 0.38494 -0.16200
C 	C 	0.44250 0.89906 0.38938 0.10600
C 	C 	0.40396 0.89306 0.43670 -0.19700
C 	C 	0.41498 0.85278 0.47956 0.18100
C 	C 	0.46452 0.81852 0.47512 -0.17200
C 	C 	0.50303 0.82457 0.42783 0.09200
C 	C 	0.37696 0.82784 0.57330 0.21900
C 	C 	0.87150 0.53630 0.25730 0.42800
C 	C 	0.86480 0.49204 0.25822 -0.16200
C 	C 	0.89906 0.44250 0.26906 0.10600
C 	C 	0.89306 0.40396 0.26628 -0.19700
C 	C 	0.85278 0.41498 0.25268 0.18100
C 	C 	0.81852 0.46452 0.24184 -0.17200
C 	C 	0.82457 0.50303 0.24457 0.09200
C 	C 	0.82784 0.37696 0.22190 0.21900
C 	C 	0.25730 0.33490 0.87150 0.42800
C 	C 	0.25822 0.38494 0.86480 -0.16200
C 	C 	0.26906 0.38938 0.89906 0.10600
C 	C 	0.26628 0.43670 0.89306 -0.19700
C 	C 	0.25268 0.47956 0.85278 0.18100
C 	C 	0.24184 0.47512 0.81852 -0.17200
C 	C 	0.24457 0.42783 0.82457 0.09200
C 	C 	0.22190 0.57330 0.82784 0.21900
C 	C 	0.33490 0.25730 0.53630 0.42800
C 	C 	0.38494 0.25822 0.49204 -0.16200
C 	C 	0.38938 0.26906 0.44250 0.10600
C 	C 	0.43670 0.26628 0.40396 -0.19700
C 	C 	0.47956 0.25268 0.41498 0.18100
C 	C 	0.47512 0.24184 0.46452 -0.17200
C 	C 	0.42783 0.24457 0.50303 0.09200
C 	C 	0.57330 0.22190 0.37696 0.21900
C 	C 	0.33490 0.87150 0.25730 0.42800
C 	C 	0.38494 0.86480 0.25822 -0.16200
C 	C 	0.38938 0.89906 0.26906 0.10600
C 	C 	0.43670 0.89306 0.26628 -0.19700
C 	C 	0.47956 0.85278 0.25268 0.18100
C 	C 	0.47512 0.81852 0.24184 -0.17200
C 	C 	0.42783 0.82457 0.24457 0.09200
C 	C 	0.57330 0.82784 0.22190 0.21900
C 	C 	0.25730 0.53630 0.33490 0.42800
C 	C 	0.25822 0.49204 0.38494 -0.16200
C 	C 	0.26906 0.44250 0.38938 0.10600
C 	C 	0.26628 0.40396 0.43670 -0.19700
C 	C 	0.25268 0.41498 0.47956 0.18100
C 	C 	0.24184 0.46452 0.47512 -0.17200
C 	C 	0.24457 0.50303 0.42783 0.09200
C 	C 	0.22190 0.37696 0.57330 0.21900
C 	C 	0.87150 0.33490 0.53630 0.42800
C 	C 	0.86480 0.38494 0.49204 -0.16200
C 	C 	0.89906 0.38938 0.44250 0.10600
C 	C 	0.89306 0.43670 0.40396 -0.19700
C 	C 	0.85278 0.47956 0.41498 0.18100
C 	C 	0.81852 0.47512 0.46452 -0.17200
C 	C 	0.82457 0.42783 0.50303 0.09200
C 	C 	0.82784 0.57330 0.37696 0.21900
C 	C 	0.53630 0.25730 0.87150 0.42800
C 	C 	0.49204 0.25822 0.86480 -0.16200
C 	C 	0.44250 0.26906 0.89906 0.10600
C 	C 	0.40396 0.26628 0.89306 -0.19700
C 	C 	0.41498 0.25268 0.85278 0.18100
C 	C 	0.46452 0.24184 0.81852 -0.17200
C 	C 	0.50303 0.24457 0.82457 0.09200
C 	C 	0.37696 0.22190 0.82784 0.21900
C 	C 	0.25730 0.87150 0.53630 0.42800
C 	C 	0.25822 0.86480 0.49204 -0.16200
C 	C 	0.26906 0.89906 0.44250 0.10600
C 	C 	0.26628 0.89306 0.40396 -0.19700
C 	C 	0.25268 0.85278 0.41498 0.18100
C 	C 	0.24184 0.81852 0.46452 -0.17200
C 	C 	0.24457 0.82457 0.50303 0.09200
C 	C 	0.22190 0.82784 0.37696 0.21900
C 	C 	0.33490 0.53630 0.87150 0.42800
C 	C 	0.38494 0.49204 0.86480 -0.16200
C 	C 	0.38938 0.44250 0.89906 0.10600
C 	C 	0.43670 0.40396 0.89306 -0.19700
C 	C 	0.47956 0.41498 0.85278 0.18100
C 	C 	0.47512 0.46452 0.81852 -0.17200
C 	C 	0.42783 0.50303 0.82457 0.09200
C 	C 	0.57330 0.37696 0.82784 0.21900
C 	C 	0.53630 0.33490 0.25730 0.42800
C 	C 	0.49204 0.38494 0.25822 -0.16200
C 	C 	0.44250 0.38938 0.26906 0.10600
C 	C 	0.40396 0.43670 0.26628 -0.19700
C 	C 	0.41498 0.47956 0.25268 0.18100
C 	C 	0.46452 0.47512 0.24184 -0.17200
C 	C 	0.50303 0.42783 0.24457 0.09200
C 	C 	0.37696 0.57330 0.22190 0.21900
C 	C 	0.87150 0.25730 0.33490 0.42800
C 	C 	0.86480 0.25822 0.38494 -0.16200
C 	C 	0.89906 0.26906 0.38938 0.10600
C 	C 	0.89306 0.26628 0.43670 -0.19700
C 	C 	0.85278 0.25268 0.47956 0.18100
C 	C 	0.81852 0.24184 0.47512 -0.17200
C 	C 	0.82457 0.24457 0.42783 0.09200
C 	C 	0.82784 0.22190 0.57330 0.21900
C 	C 	0.37150 0.03630 0.83490 0.42700
C 	C 	0.36480 0.99204 0.88494 -0.16200
C 	C 	0.39906 0.94250 0.88938 0.10500
C 	C 	0.39306 0.90396 0.93670 -0.19600
C 	C 	0.35278 0.91498 0.97956 0.18000
C 	C 	0.31852 0.96452 0.97512 -0.17200
C 	C 	0.32457 0.00303 0.92783 0.09100
C 	C 	0.32784 0.87696 0.07330 0.21900
C 	C 	0.03630 0.37150 0.75730 0.42800
C 	C 	0.99204 0.36480 0.75822 -0.16200
C 	C 	0.94250 0.39906 0.76906 0.10600
C 	C 	0.90396 0.39306 0.76628 -0.19700
C 	C 	0.91498 0.35278 0.75268 0.18100
C 	C 	0.96452 0.31852 0.74184 -0.17200
C 	C 	0.00303 0.32457 0.74457 0.09200
C 	C 	0.87696 0.32784 0.72190 0.21900
C 	C 	0.83490 0.75730 0.37150 0.42800
C 	C 	0.88494 0.75822 0.36480 -0.16200
C 	C 	0.88938 0.76906 0.39906 0.10600
C 	C 	0.93670 0.76628 0.39306 -0.19700
C 	C 	0.97956 0.75268 0.35278 0.18100
C 	C 	0.97512 0.74184 0.31852 -0.17200
C 	C 	0.92783 0.74457 0.32457 0.09200
C 	C 	0.07330 0.72190 0.32784 0.21900
C 	C 	0.75730 0.83490 0.03630 0.42700
C 	C 	0.75822 0.88494 0.99204 -0.16100
C 	C 	0.76906 0.88938 0.94250 0.10500
C 	C 	0.76628 0.93670 0.90396 -0.19600
C 	C 	0.75268 0.97956 0.91498 0.18000
C 	C 	0.74184 0.97512 0.96452 -0.17000
C 	C 	0.74457 0.92783 0.00303 0.08900
C 	C 	0.72190 0.07330 0.87696 0.21900
C 	C 	0.37150 0.83490 0.75730 0.42800
C 	C 	0.36480 0.88494 0.75822 -0.16200
C 	C 	0.39906 0.88938 0.76906 0.10600
C 	C 	0.39306 0.93670 0.76628 -0.19700
C 	C 	0.35278 0.97956 0.75268 0.18100
C 	C 	0.31852 0.97512 0.74184 -0.17200
C 	C 	0.32457 0.92783 0.74457 0.09200
C 	C 	0.32784 0.07330 0.72190 0.21900
C 	C 	0.03630 0.75730 0.83490 0.42700
C 	C 	0.99204 0.75822 0.88494 -0.16100
C 	C 	0.94250 0.76906 0.88938 0.10500
C 	C 	0.90396 0.76628 0.93670 -0.19600
C 	C 	0.91498 0.75268 0.97956 0.18000
C 	C 	0.96452 0.74184 0.97512 -0.17000
C 	C 	0.00303 0.74457 0.92783 0.08900
C 	C 	0.87696 0.72190 0.07330 0.21900
C 	C 	0.83490 0.37150 0.03630 0.42700
C 	C 	0.88494 0.36480 0.99204 -0.16200
C 	C 	0.88938 0.39906 0.94250 0.10500
C 	C 	0.93670 0.39306 0.90396 -0.19600
C 	C 	0.97956 0.35278 0.91498 0.18000
C 	C 	0.97512 0.31852 0.96452 -0.17200
C 	C 	0.92783 0.32457 0.00303 0.09100
C 	C 	0.07330 0.32784 0.87696 0.21900
C 	C 	0.75730 0.03630 0.37150 0.42800
C 	C 	0.75822 0.99204 0.36480 -0.16200
C 	C 	0.76906 0.94250 0.39906 0.10600
C 	C 	0.76628 0.90396 0.39306 -0.19700
C 	C 	0.75268 0.91498 0.35278 0.18100
C 	C 	0.74184 0.96452 0.31852 -0.17200
C 	C 	0.74457 0.00303 0.32457 0.09200
C 	C 	0.72190 0.87696 0.32784 0.21900
C 	C 	0.37150 0.75730 0.03630 0.42800
C 	C 	0.36480 0.75822 0.99204 -0.16200
C 	C 	0.39906 0.76906 0.94250 0.10600
C 	C 	0.39306 0.76628 0.90396 -0.19700
C 	C 	0.35278 0.75268 0.91498 0.18100
C 	C 	0.31852 0.74184 0.96452 -0.17200
C 	C 	0.32457 0.74457 0.00303 0.09200
C 	C 	0.32784 0.72190 0.87696 0.21900
C 	C 	0.03630 0.83490 0.37150 0.42700
C 	C 	0.99204 0.88494 0.36480 -0.16200
C 	C 	0.94250 0.88938 0.39906 0.10500
C 	C 	0.90396 0.93670 0.39306 -0.19600
C 	C 	0.91498 0.97956 0.35278 0.18000
C 	C 	0.96452 0.97512 0.31852 -0.17200
C 	C 	0.00303 0.92783 0.32457 0.09100
C 	C 	0.87696 0.07330 0.32784 0.21900
C 	C 	0.83490 0.03630 0.75730 0.42700
C 	C 	0.88494 0.99204 0.75822 -0.16100
C 	C 	0.88938 0.94250 0.76906 0.10500
C 	C 	0.93670 0.90396 0.76628 -0.19600
C 	C 	0.97956 0.91498 0.75268 0.18000
C 	C 	0.97512 0.96452 0.74184 -0.17000
C 	C 	0.92783 0.00303 0.74457 0.08900
C 	C 	0.07330 0.87696 0.72190 0.21900
C 	C 	0.75730 0.37150 0.83490 0.42800
C 	C 	0.75822 0.36480 0.88494 -0.16200
C 	C 	0.76906 0.39906 0.88938 0.10600
C 	C 	0.76628 0.39306 0.93670 -0.19700
C 	C 	0.75268 0.35278 0.97956 0.18100
C 	C 	0.74184 0.31852 0.97512 -0.17200
C 	C 	0.74457 0.32457 0.92783 0.09200
C 	C 	0.72190 0.32784 0.07330 0.21900
C 	C 	0.46370 0.12850 0.66510 0.42800
C 	C 	0.50796 0.13520 0.61506 -0.16200
C 	C 	0.55750 0.10094 0.61062 0.10600
C 	C 	0.59604 0.10694 0.56330 -0.19700
C 	C 	0.58502 0.14722 0.52044 0.18100
C 	C 	0.53548 0.18148 0.52488 -0.17200
C 	C 	0.49697 0.17543 0.57217 0.09200
C 	C 	0.62304 0.17216 0.42670 0.21900
C 	C 	0.12850 0.46370 0.74270 0.42800
C 	C 	0.13520 0.50796 0.74178 -0.16200
C 	C 	0.10094 0.55750 0.73094 0.10600
C 	C 	0.10694 0.59604 0.73372 -0.19700
C 	C 	0.14722 0.58502 0.74732 0.18100
C 	C 	0.18148 0.53548 0.75816 -0.17200
C 	C 	0.17543 0.49697 0.75543 0.09200
C 	C 	0.17216 0.62304 0.77810 0.21900
C 	C 	0.74270 0.66510 0.12850 0.42800
C 	C 	0.74178 0.61506 0.13520 -0.16200
C 	C 	0.73094 0.61062 0.10094 0.10600
C 	C 	0.73372 0.56330 0.10694 -0.19700
C 	C 	0.74732 0.52044 0.14722 0.18100
C 	C 	0.75816 0.52488 0.18148 -0.17200
C 	C 	0.75543 0.57217 0.17543 0.09200
C 	C 	0.77810 0.42670 0.17216 0.21900
C 	C 	0.66510 0.74270 0.46370 0.42800
C 	C 	0.61506 0.74178 0.50796 -0.16200
C 	C 	0.61062 0.73094 0.55750 0.10600
C 	C 	0.56330 0.73372 0.59604 -0.19700
C 	C 	0.52044 0.74732 0.58502 0.18100
C 	C 	0.52488 0.75816 0.53548 -0.17200
C 	C 	0.57217 0.75543 0.49697 0.09200
C 	C 	0.42670 0.77810 0.62304 0.21900
C 	C 	0.66510 0.12850 0.74270 0.42800
C 	C 	0.61506 0.13520 0.74178 -0.16200
C 	C 	0.61062 0.10094 0.73094 0.10600
C 	C 	0.56330 0.10694 0.73372 -0.19700
C 	C 	0.52044 0.14722 0.74732 0.18100
C 	C 	0.52488 0.18148 0.75816 -0.17200
C 	C 	0.57217 0.17543 0.75543 0.09200
C 	C 	0.42670 0.17216 0.77810 0.21900
C 	C 	0.74270 0.46370 0.66510 0.42800
C 	C 	0.74178 0.50796 0.61506 -0.16200
C 	C 	0.73094 0.55750 0.61062 0.10600
C 	C 	0.73372 0.59604 0.56330 -0.19700
C 	C 	0.74732 0.58502 0.52044 0.18100
C 	C 	0.75816 0.53548 0.52488 -0.17200
C 	C 	0.75543 0.49697 0.57217 0.09200
C 	C 	0.77810 0.62304 0.42670 0.21900
C 	C 	0.12850 0.66510 0.46370 0.42800
C 	C 	0.13520 0.61506 0.50796 -0.16200
C 	C 	0.10094 0.61062 0.55750 0.10600
C 	C 	0.10694 0.56330 0.59604 -0.19700
C 	C 	0.14722 0.52044 0.58502 0.18100
C 	C 	0.18148 0.52488 0.53548 -0.17200
C 	C 	0.17543 0.57217 0.49697 0.09200
C 	C 	0.17216 0.42670 0.62304 0.21900
C 	C 	0.46370 0.74270 0.12850 0.42800
C 	C 	0.50796 0.74178 0.13520 -0.16200
C 	C 	0.55750 0.73094 0.10094 0.10600
C 	C 	0.59604 0.73372 0.10694 -0.19700
C 	C 	0.58502 0.74732 0.14722 0.18100
C 	C 	0.53548 0.75816 0.18148 -0.17200
C 	C 	0.49697 0.75543 0.17543 0.09200
C 	C 	0.62304 0.77810 0.17216 0.21900
C 	C 	0.74270 0.12850 0.46370 0.42800
C 	C 	0.74178 0.13520 0.50796 -0.16200
C 	C 	0.73094 0.10094 0.55750 0.10600
C 	C 	0.73372 0.10694 0.59604 -0.19700
C 	C 	0.74732 0.14722 0.58502 0.18100
C 	C 	0.75816 0.18148 0.53548 -0.17200
C 	C 	0.75543 0.17543 0.49697 0.09200
C 	C 	0.77810 0.17216 0.62304 0.21900
C 	C 	0.66510 0.46370 0.12850 0.42800
C 	C 	0.61506 0.50796 0.13520 -0.16200
C 	C 	0.61062 0.55750 0.10094 0.10600
C 	C 	0.56330 0.59604 0.10694 -0.19700
C 	C 	0.52044 0.58502 0.14722 0.18100
C 	C 	0.52488 0.53548 0.18148 -0.17200
C 	C 	0.57217 0.49697 0.17543 0.09200
C 	C 	0.42670 0.62304 0.17216 0.21900
C 	C 	0.46370 0.66510 0.74270 0.42800
C 	C 	0.50796 0.61506 0.74178 -0.16200
C 	C 	0.55750 0.61062 0.73094 0.10600
C 	C 	0.59604 0.56330 0.73372 -0.19700
C 	C 	0.58502 0.52044 0.74732 0.18100
C 	C 	0.53548 0.52488 0.75816 -0.17200
C 	C 	0.49697 0.57217 0.75543 0.09200
C 	C 	0.62304 0.42670 0.77810 0.21900
C 	C 	0.12850 0.74270 0.66510 0.42800
C 	C 	0.13520 0.74178 0.61506 -0.16200
C 	C 	0.10094 0.73094 0.61062 0.10600
C 	C 	0.10694 0.73372 0.56330 -0.19700
C 	C 	0.14722 0.74732 0.52044 0.18100
C 	C 	0.18148 0.75816 0.52488 -0.17200
C 	C 	0.17543 0.75543 0.57217 0.09200
C 	C 	0.17216 0.77810 0.42670 0.21900
C 	C 	0.69623 0.16143 0.83857 0.26300
C 	C 	0.16143 0.69623 0.30377 0.26300
C 	C 	0.83857 0.30377 0.69623 0.26300
C 	C 	0.30377 0.83857 0.16143 0.26300
C 	C 	0.69623 0.83857 0.30377 0.26300
C 	C 	0.16143 0.30377 0.83857 0.26300
C 	C 	0.83857 0.69623 0.16143 0.26300
C 	C 	0.30377 0.16143 0.69623 0.26300
C 	C 	0.69623 0.30377 0.16143 0.26300
C 	C 	0.16143 0.83857 0.69623 0.26300
C 	C 	0.83857 0.16143 0.30377 0.26300
C 	C 	0.30377 0.69623 0.83857 0.26300
C 	C 	0.33857 0.80377 0.66143 0.26300
C 	C 	0.80377 0.33857 0.19623 0.26300
C 	C 	0.19623 0.66143 0.80377 0.26300
C 	C 	0.66143 0.19623 0.33857 0.26300
C 	C 	0.66143 0.80377 0.19623 0.26300
C 	C 	0.19623 0.33857 0.66143 0.26300
C 	C 	0.80377 0.66143 0.33857 0.26300
C 	C 	0.33857 0.19623 0.80377 0.26300
C 	C 	0.19623 0.80377 0.33857 0.26300
C 	C 	0.66143 0.33857 0.80377 0.26300
C 	C 	0.33857 0.66143 0.19623 0.26300
C 	C 	0.80377 0.19623 0.66143 0.26300
N 	N 	0.64765 0.12833 0.97155 -0.25400
N 	N 	0.67072 0.16604 0.88590 -0.29100
N 	N 	0.12833 0.64765 0.25247 -0.25400
N 	N 	0.16604 0.67072 0.27734 -0.29100
N 	N 	0.97155 0.25247 0.64765 -0.25400
N 	N 	0.88590 0.27734 0.67072 -0.29100
N 	N 	0.25247 0.97155 0.12833 -0.25400
N 	N 	0.27734 0.88590 0.16604 -0.29100
N 	N 	0.64765 0.97155 0.25247 -0.25400
N 	N 	0.67072 0.88590 0.27734 -0.29100
N 	N 	0.12833 0.25247 0.97155 -0.25400
N 	N 	0.16604 0.27734 0.88590 -0.29100
N 	N 	0.97155 0.64765 0.12833 -0.25400
N 	N 	0.88590 0.67072 0.16604 -0.29100
N 	N 	0.25247 0.12833 0.64765 -0.25400
N 	N 	0.27734 0.16604 0.67072 -0.29100
N 	N 	0.64765 0.25247 0.12833 -0.25400
N 	N 	0.67072 0.27734 0.16604 -0.29100
N 	N 	0.12833 0.97155 0.64765 -0.25400
N 	N 	0.16604 0.88590 0.67072 -0.29100
N 	N 	0.97155 0.12833 0.25247 -0.25400
N 	N 	0.88590 0.16604 0.27734 -0.29100
N 	N 	0.25247 0.64765 0.97155 -0.25400
N 	N 	0.27734 0.67072 0.88590 -0.29100
N 	N 	0.37167 0.85235 0.52845 -0.25400
N 	N 	0.33396 0.82928 0.61410 -0.29100
N 	N 	0.85235 0.37167 0.24753 -0.25400
N 	N 	0.82928 0.33396 0.22266 -0.29100
N 	N 	0.24753 0.52845 0.85235 -0.25400
N 	N 	0.22266 0.61410 0.82928 -0.29100
N 	N 	0.52845 0.24753 0.37167 -0.25400
N 	N 	0.61410 0.22266 0.33396 -0.29100
N 	N 	0.52845 0.85235 0.24753 -0.25400
N 	N 	0.61410 0.82928 0.22266 -0.29100
N 	N 	0.24753 0.37167 0.52845 -0.25400
N 	N 	0.22266 0.33396 0.61410 -0.29100
N 	N 	0.85235 0.52845 0.37167 -0.25400
N 	N 	0.82928 0.61410 0.33396 -0.29100
N 	N 	0.37167 0.24753 0.85235 -0.25400
N 	N 	0.33396 0.22266 0.82928 -0.29100
N 	N 	0.24753 0.85235 0.37167 -0.25400
N 	N 	0.22266 0.82928 0.33396 -0.29100
N 	N 	0.52845 0.37167 0.85235 -0.25400
N 	N 	0.61410 0.33396 0.82928 -0.29100
N 	N 	0.37167 0.52845 0.24753 -0.25400
N 	N 	0.33396 0.61410 0.22266 -0.29100
N 	N 	0.85235 0.24753 0.52845 -0.25400
N 	N 	0.82928 0.22266 0.61410 -0.29100
N 	N 	0.35235 0.87167 0.02845 -0.25400
N 	N 	0.32928 0.83396 0.11410 -0.29100
N 	N 	0.87167 0.35235 0.74753 -0.25400
N 	N 	0.83396 0.32928 0.72266 -0.29100
N 	N 	0.02845 0.74753 0.35235 -0.25400
N 	N 	0.11410 0.72266 0.32928 -0.29100
N 	N 	0.74753 0.02845 0.87167 -0.25400
N 	N 	0.72266 0.11410 0.83396 -0.29100
N 	N 	0.35235 0.02845 0.74753 -0.25400
N 	N 	0.32928 0.11410 0.72266 -0.29100
N 	N 	0.87167 0.74753 0.02845 -0.25400
N 	N 	0.83396 0.72266 0.11410 -0.29100
N 	N 	0.02845 0.35235 0.87167 -0.25400
N 	N 	0.11410 0.32928 0.83396 -0.29100
N 	N 	0.74753 0.87167 0.35235 -0.25400
N 	N 	0.72266 0.83396 0.32928 -0.29100
N 	N 	0.35235 0.74753 0.87167 -0.25400
N 	N 	0.32928 0.72266 0.83396 -0.29100
N 	N 	0.87167 0.02845 0.35235 -0.25400
N 	N 	0.83396 0.11410 0.32928 -0.29100
N 	N 	0.02845 0.87167 0.74753 -0.25400
N 	N 	0.11410 0.83396 0.72266 -0.29100
N 	N 	0.74753 0.35235 0.02845 -0.25400
N 	N 	0.72266 0.32928 0.11410 -0.29100
N 	N 	0.62833 0.14765 0.47155 -0.25400
N 	N 	0.66604 0.17072 0.38590 -0.29100
N 	N 	0.14765 0.62833 0.75247 -0.25400
N 	N 	0.17072 0.66604 0.77734 -0.29100
N 	N 	0.75247 0.47155 0.14765 -0.25400
N 	N 	0.77734 0.38590 0.17072 -0.29100
N 	N 	0.47155 0.75247 0.62833 -0.25400
N 	N 	0.38590 0.77734 0.66604 -0.29100
N 	N 	0.47155 0.14765 0.75247 -0.25400
N 	N 	0.38590 0.17072 0.77734 -0.29100
N 	N 	0.75247 0.62833 0.47155 -0.25400
N 	N 	0.77734 0.66604 0.38590 -0.29100
N 	N 	0.14765 0.47155 0.62833 -0.25400
N 	N 	0.17072 0.38590 0.66604 -0.29100
N 	N 	0.62833 0.75247 0.14765 -0.25400
N 	N 	0.66604 0.77734 0.17072 -0.29100
N 	N 	0.75247 0.14765 0.62833 -0.25400
N 	N 	0.77734 0.17072 0.66604 -0.29100
N 	N 	0.47155 0.62833 0.14765 -0.25400
N 	N 	0.38590 0.66604 0.17072 -0.29100
N 	N 	0.62833 0.47155 0.75247 -0.25400
N 	N 	0.66604 0.38590 0.77734 -0.29100
N 	N 	0.14765 0.75247 0.47155 -0.25400
N 	N 	0.17072 0.77734 0.38590 -0.29100
N 	N 	0.69784 0.07596 0.92404 -0.18400
N 	N 	0.07596 0.69784 0.30216 -0.18400
N 	N 	0.92404 0.30216 0.69784 -0.18400
N 	N 	0.30216 0.92404 0.07596 -0.18400
N 	N 	0.69784 0.92404 0.30216 -0.18400
N 	N 	0.07596 0.30216 0.92404 -0.18400
N 	N 	0.92404 0.69784 0.07596 -0.18400
N 	N 	0.30216 0.07596 0.69784 -0.18400
N 	N 	0.69784 0.30216 0.07596 -0.18400
N 	N 	0.07596 0.92404 0.69784 -0.18400
N 	N 	0.92404 0.07596 0.30216 -0.18400
N 	N 	0.30216 0.69784 0.92404 -0.18400
N 	N 	0.42404 0.80216 0.57596 -0.18400
N 	N 	0.80216 0.42404 0.19784 -0.18400
N 	N 	0.19784 0.57596 0.80216 -0.18400
N 	N 	0.57596 0.19784 0.42404 -0.18400
N 	N 	0.57596 0.80216 0.19784 -0.18400
N 	N 	0.19784 0.42404 0.57596 -0.18400
N 	N 	0.80216 0.57596 0.42404 -0.18400
N 	N 	0.42404 0.19784 0.80216 -0.18400
N 	N 	0.19784 0.80216 0.42404 -0.18400
N 	N 	0.57596 0.42404 0.80216 -0.18400
N 	N 	0.42404 0.57596 0.19784 -0.18400
N 	N 	0.80216 0.19784 0.57596 -0.18400
O 	O 	0.65966 0.92262 0.16574 -0.42800
O 	O 	0.59551 0.97309 0.20191 -0.40300
O 	O 	0.92262 0.65966 0.25198 -0.42800
O 	O 	0.97309 0.59551 0.22949 -0.40300
O 	O 	0.16574 0.25198 0.65966 -0.42800
O 	O 	0.20191 0.22949 0.59551 -0.40300
O 	O 	0.25198 0.16574 0.92262 -0.42800
O 	O 	0.22949 0.20191 0.97309 -0.40300
O 	O 	0.65966 0.16574 0.25198 -0.42800
O 	O 	0.59551 0.20191 0.22949 -0.40300
O 	O 	0.92262 0.25198 0.16574 -0.42800
O 	O 	0.97309 0.22949 0.20191 -0.40300
O 	O 	0.16574 0.65966 0.92262 -0.42800
O 	O 	0.20191 0.59551 0.97309 -0.40300
O 	O 	0.25198 0.92262 0.65966 -0.42800
O 	O 	0.22949 0.97309 0.59551 -0.40300
O 	O 	0.65966 0.25198 0.92262 -0.42800
O 	O 	0.59551 0.22949 0.97309 -0.40300
O 	O 	0.92262 0.16574 0.65966 -0.42800
O 	O 	0.97309 0.20191 0.59551 -0.40300
O 	O 	0.16574 0.92262 0.25198 -0.42800
O 	O 	0.20191 0.97309 0.22949 -0.40300
O 	O 	0.25198 0.65966 0.16574 -0.42800
O 	O 	0.22949 0.59551 0.20191 -0.40300
O 	O 	0.57738 0.84034 0.33426 -0.42800
O 	O 	0.52691 0.90449 0.29809 -0.40300
O 	O 	0.84034 0.57738 0.24802 -0.42800
O 	O 	0.90449 0.52691 0.27051 -0.40300
O 	O 	0.24802 0.33426 0.84034 -0.42800
O 	O 	0.27051 0.29809 0.90449 -0.40300
O 	O 	0.33426 0.24802 0.57738 -0.42800
O 	O 	0.29809 0.27051 0.52691 -0.40300
O 	O 	0.33426 0.84034 0.24802 -0.42800
O 	O 	0.29809 0.90449 0.27051 -0.40300
O 	O 	0.24802 0.57738 0.33426 -0.42800
O 	O 	0.27051 0.52691 0.29809 -0.40300
O 	O 	0.84034 0.33426 0.57738 -0.42800
O 	O 	0.90449 0.29809 0.52691 -0.40300
O 	O 	0.57738 0.24802 0.84034 -0.42800
O 	O 	0.52691 0.27051 0.90449 -0.40300
O 	O 	0.24802 0.84034 0.57738 -0.42800
O 	O 	0.27051 0.90449 0.52691 -0.40300
O 	O 	0.33426 0.57738 0.84034 -0.42800
O 	O 	0.29809 0.52691 0.90449 -0.40300
O 	O 	0.57738 0.33426 0.24802 -0.42800
O 	O 	0.52691 0.29809 0.27051 -0.40300
O 	O 	0.84034 0.24802 0.33426 -0.42800
O 	O 	0.90449 0.27051 0.29809 -0.40300
O 	O 	0.34034 0.07738 0.83426 -0.42800
O 	O 	0.40449 0.02691 0.79809 -0.40300
O 	O 	0.07738 0.34034 0.74802 -0.42800
O 	O 	0.02691 0.40449 0.77051 -0.40300
O 	O 	0.83426 0.74802 0.34034 -0.42800
O 	O 	0.79809 0.77051 0.40449 -0.40300
O 	O 	0.74802 0.83426 0.07738 -0.42800
O 	O 	0.77051 0.79809 0.02691 -0.40300
O 	O 	0.34034 0.83426 0.74802 -0.42800
O 	O 	0.40449 0.79809 0.77051 -0.40300
O 	O 	0.07738 0.74802 0.83426 -0.42800
O 	O 	0.02691 0.77051 0.79809 -0.40300
O 	O 	0.83426 0.34034 0.07738 -0.42800
O 	O 	0.79809 0.40449 0.02691 -0.40300
O 	O 	0.74802 0.07738 0.34034 -0.42800
O 	O 	0.77051 0.02691 0.40449 -0.40300
O 	O 	0.34034 0.74802 0.07738 -0.42800
O 	O 	0.40449 0.77051 0.02691 -0.40300
O 	O 	0.07738 0.83426 0.34034 -0.42800
O 	O 	0.02691 0.79809 0.40449 -0.40300
O 	O 	0.83426 0.07738 0.74802 -0.42800
O 	O 	0.79809 0.02691 0.77051 -0.40300
O 	O 	0.74802 0.34034 0.83426 -0.42800
O 	O 	0.77051 0.40449 0.79809 -0.40300
O 	O 	0.42262 0.15966 0.66574 -0.42800
O 	O 	0.47309 0.09551 0.70191 -0.40300
O 	O 	0.15966 0.42262 0.75198 -0.42800
O 	O 	0.09551 0.47309 0.72949 -0.40300
O 	O 	0.75198 0.66574 0.15966 -0.42800
O 	O 	0.72949 0.70191 0.09551 -0.40300
O 	O 	0.66574 0.75198 0.42262 -0.42800
O 	O 	0.70191 0.72949 0.47309 -0.40300
O 	O 	0.66574 0.15966 0.75198 -0.42800
O 	O 	0.70191 0.09551 0.72949 -0.40300
O 	O 	0.75198 0.42262 0.66574 -0.42800
O 	O 	0.72949 0.47309 0.70191 -0.40300
O 	O 	0.15966 0.66574 0.42262 -0.42800
O 	O 	0.09551 0.70191 0.47309 -0.40300
O 	O 	0.42262 0.75198 0.15966 -0.42800
O 	O 	0.47309 0.72949 0.09551 -0.40300
O 	O 	0.75198 0.15966 0.42262 -0.42800
O 	O 	0.72949 0.09551 0.47309 -0.40300
O 	O 	0.66574 0.42262 0.15966 -0.42800
O 	O 	0.70191 0.47309 0.09551 -0.40300
O 	O 	0.42262 0.66574 0.75198 -0.42800
O 	O 	0.47309 0.70191 0.72949 -0.40300
O 	O 	0.15966 0.75198 0.66574 -0.42800
O 	O 	0.09551 0.72949 0.70191 -0.40300
O 	O 	0.69642 0.19998 0.80002 -0.41300
O 	O 	0.19998 0.69642 0.30358 -0.41300
O 	O 	0.80002 0.30358 0.69642 -0.41300
O 	O 	0.30358 0.80002 0.19998 -0.41300
O 	O 	0.69642 0.80002 0.30358 -0.41300
O 	O 	0.19998 0.30358 0.80002 -0.41300
O 	O 	0.80002 0.69642 0.19998 -0.41300
O 	O 	0.30358 0.19998 0.69642 -0.41300
O 	O 	0.69642 0.30358 0.19998 -0.41300
O 	O 	0.19998 0.80002 0.69642 -0.41300
O 	O 	0.80002 0.19998 0.30358 -0.41300
O 	O 	0.30358 0.69642 0.80002 -0.41300
O 	O 	0.30002 0.80358 0.69998 -0.41300
O 	O 	0.80358 0.30002 0.19642 -0.41300
O 	O 	0.19642 0.69998 0.80358 -0.41300
O 	O 	0.69998 0.19642 0.30002 -0.41300
O 	O 	0.69998 0.80358 0.19642 -0.41300
O 	O 	0.19642 0.30002 0.69998 -0.41300
O 	O 	0.80358 0.69998 0.30002 -0.41300
O 	O 	0.30002 0.19642 0.80358 -0.41300
O 	O 	0.19642 0.80358 0.30002 -0.41300
O 	O 	0.69998 0.30002 0.80358 -0.41300
O 	O 	0.30002 0.69998 0.19642 -0.41300
O 	O 	0.80358 0.19642 0.69998 -0.41300
