data_crystal

_cell_length_a 25.86270
_cell_length_b 25.86270
_cell_length_c 25.45910
_cell_angle_alpha 90.00000
_cell_angle_beta  90.00000
_cell_angle_gamma 120.00000

_symmetry_space_group_name_	'P 1'
_symmetry_space_group_name_H-M	'P 1'

loop_
_symmetry_equiv_pos_as_xyz
  x,y,z

loop_
_atom_site_label
_atom_site_type_symbol
_atom_site_fract_x
_atom_site_fract_y
_atom_site_fract_z
_atom_site_charge
Ce	Ce	0.38348 0.46705 0.47570 2.11700
O 	O 	0.41820 0.43650 0.54740 -0.82300
O 	O 	0.32410 0.47480 0.53667 -0.59000
O 	O 	0.37897 0.49680 0.60917 -0.48000
C 	C 	0.33140 0.48890 0.58485 0.39300
C 	C 	0.29690 0.50040 0.62635 -0.02500
C 	C 	0.27790 0.50340 0.67740 0.01200
O 	O 	0.37120 0.45270 0.38734 -0.57500
O 	O 	0.44130 0.44060 0.34578 -0.49800
C 	C 	0.39210 0.44150 0.34500 0.38100
C 	C 	0.35510 0.43220 0.29570 -0.02900
C 	C 	0.30360 0.42840 0.27740 -0.02200
Ce	Ce	0.53295 0.91643 0.47570 2.11600
O 	O 	0.56350 0.98170 0.54740 -0.82400
O 	O 	0.52520 0.84930 0.53667 -0.59100
O 	O 	0.50320 0.88217 0.60917 -0.48100
C 	C 	0.51110 0.84250 0.58485 0.39200
C 	C 	0.49960 0.79650 0.62635 -0.02600
C 	C 	0.49660 0.77450 0.67740 0.01200
O 	O 	0.54730 0.91850 0.38734 -0.57500
O 	O 	0.55940 0.00070 0.34578 -0.49600
C 	C 	0.55850 0.95060 0.34500 0.37900
C 	C 	0.56780 0.92290 0.29570 -0.02800
C 	C 	0.57160 0.87520 0.27740 -0.02200
Ce	Ce	0.08357 0.61652 0.47570 2.11600
O 	O 	0.01830 0.58180 0.54740 -0.82400
O 	O 	0.15070 0.67590 0.53667 -0.59100
O 	O 	0.11783 0.62103 0.60917 -0.48100
C 	C 	0.15750 0.66860 0.58485 0.39200
C 	C 	0.20350 0.70310 0.62635 -0.02600
C 	C 	0.22550 0.72210 0.67740 0.01200
O 	O 	0.08150 0.62880 0.38734 -0.57500
O 	O 	0.99930 0.55870 0.34578 -0.49600
C 	C 	0.04940 0.60790 0.34500 0.37900
C 	C 	0.07710 0.64490 0.29570 -0.02800
C 	C 	0.12480 0.69640 0.27740 -0.02200
Ce	Ce	0.61652 0.53295 0.97570 2.11600
O 	O 	0.58180 0.56350 0.04740 -0.82300
O 	O 	0.67590 0.52520 0.03667 -0.59000
O 	O 	0.62103 0.50320 0.10917 -0.48100
C 	C 	0.66860 0.51110 0.08485 0.39200
C 	C 	0.70310 0.49960 0.12635 -0.02600
C 	C 	0.72210 0.49660 0.17740 0.01200
O 	O 	0.62880 0.54730 0.88734 -0.57600
O 	O 	0.55870 0.55940 0.84578 -0.49800
C 	C 	0.60790 0.55850 0.84500 0.38100
C 	C 	0.64490 0.56780 0.79570 -0.02900
C 	C 	0.69640 0.57160 0.77740 -0.02200
Ce	Ce	0.46705 0.08357 0.97570 2.11400
O 	O 	0.43650 0.01830 0.04740 -0.82100
O 	O 	0.47480 0.15070 0.03667 -0.58900
O 	O 	0.49680 0.11783 0.10917 -0.48000
C 	C 	0.48890 0.15750 0.08485 0.39200
C 	C 	0.50040 0.20350 0.12635 -0.02600
C 	C 	0.50340 0.22550 0.17740 0.01200
O 	O 	0.45270 0.08150 0.88734 -0.57600
O 	O 	0.44060 0.99930 0.84578 -0.49400
C 	C 	0.44150 0.04940 0.84500 0.37600
C 	C 	0.43220 0.07710 0.79570 -0.02800
C 	C 	0.42840 0.12480 0.77740 -0.02200
Ce	Ce	0.91643 0.38348 0.97570 2.11300
O 	O 	0.98170 0.41820 0.04740 -0.82000
O 	O 	0.84930 0.32410 0.03667 -0.58800
O 	O 	0.88217 0.37897 0.10917 -0.48000
C 	C 	0.84250 0.33140 0.08485 0.39200
C 	C 	0.79650 0.29690 0.12635 -0.02600
C 	C 	0.77450 0.27790 0.17740 0.01200
O 	O 	0.91850 0.37120 0.88734 -0.57600
O 	O 	0.00070 0.44130 0.84578 -0.49400
C 	C 	0.95060 0.39210 0.84500 0.37600
C 	C 	0.92290 0.35510 0.79570 -0.02800
C 	C 	0.87520 0.30360 0.77740 -0.02300
Ce	Ce	0.46705 0.38348 0.52430 2.11600
O 	O 	0.43650 0.41820 0.45260 -0.82400
O 	O 	0.47480 0.32410 0.46333 -0.59100
O 	O 	0.49680 0.37897 0.39083 -0.48100
C 	C 	0.48890 0.33140 0.41515 0.39200
C 	C 	0.50040 0.29690 0.37365 -0.02600
C 	C 	0.50340 0.27790 0.32260 0.01200
O 	O 	0.45270 0.37120 0.61266 -0.57500
O 	O 	0.44060 0.44130 0.65422 -0.49800
C 	C 	0.44150 0.39210 0.65500 0.38100
C 	C 	0.43220 0.35510 0.70430 -0.02900
C 	C 	0.42840 0.30360 0.72260 -0.02200
Ce	Ce	0.91643 0.53295 0.52430 2.11600
O 	O 	0.98170 0.56350 0.45260 -0.82400
O 	O 	0.84930 0.52520 0.46333 -0.59100
O 	O 	0.88217 0.50320 0.39083 -0.48100
C 	C 	0.84250 0.51110 0.41515 0.39200
C 	C 	0.79650 0.49960 0.37365 -0.02600
C 	C 	0.77450 0.49660 0.32260 0.01200
O 	O 	0.91850 0.54730 0.61266 -0.57500
O 	O 	0.00070 0.55940 0.65422 -0.49600
C 	C 	0.95060 0.55850 0.65500 0.37900
C 	C 	0.92290 0.56780 0.70430 -0.02800
C 	C 	0.87520 0.57160 0.72260 -0.02200
Ce	Ce	0.61652 0.08357 0.52430 2.11600
O 	O 	0.58180 0.01830 0.45260 -0.82400
O 	O 	0.67590 0.15070 0.46333 -0.59100
O 	O 	0.62103 0.11783 0.39083 -0.48100
C 	C 	0.66860 0.15750 0.41515 0.39200
C 	C 	0.70310 0.20350 0.37365 -0.02600
C 	C 	0.72210 0.22550 0.32260 0.01200
O 	O 	0.62880 0.08150 0.61266 -0.57500
O 	O 	0.55870 0.99930 0.65422 -0.49600
C 	C 	0.60790 0.04940 0.65500 0.37900
C 	C 	0.64490 0.07710 0.70430 -0.02800
C 	C 	0.69640 0.12480 0.72260 -0.02200
Ce	Ce	0.53295 0.61652 0.02430 2.11600
O 	O 	0.56350 0.58180 0.95260 -0.82300
O 	O 	0.52520 0.67590 0.96333 -0.59000
O 	O 	0.50320 0.62103 0.89083 -0.48100
C 	C 	0.51110 0.66860 0.91515 0.39200
C 	C 	0.49960 0.70310 0.87365 -0.02600
C 	C 	0.49660 0.72210 0.82260 0.01200
O 	O 	0.54730 0.62880 0.11266 -0.57600
O 	O 	0.55940 0.55870 0.15422 -0.49800
C 	C 	0.55850 0.60790 0.15500 0.38100
C 	C 	0.56780 0.64490 0.20430 -0.02900
C 	C 	0.57160 0.69640 0.22260 -0.02200
Ce	Ce	0.08357 0.46705 0.02430 2.11400
O 	O 	0.01830 0.43650 0.95260 -0.82100
O 	O 	0.15070 0.47480 0.96333 -0.58900
O 	O 	0.11783 0.49680 0.89083 -0.48000
C 	C 	0.15750 0.48890 0.91515 0.39200
C 	C 	0.20350 0.50040 0.87365 -0.02600
C 	C 	0.22550 0.50340 0.82260 0.01200
O 	O 	0.08150 0.45270 0.11266 -0.57600
O 	O 	0.99930 0.44060 0.15422 -0.49400
C 	C 	0.04940 0.44150 0.15500 0.37600
C 	C 	0.07710 0.43220 0.20430 -0.02800
C 	C 	0.12480 0.42840 0.22260 -0.02200
Ce	Ce	0.38348 0.91643 0.02430 2.11300
O 	O 	0.41820 0.98170 0.95260 -0.82000
O 	O 	0.32410 0.84930 0.96333 -0.58800
O 	O 	0.37897 0.88217 0.89083 -0.48000
C 	C 	0.33140 0.84250 0.91515 0.39200
C 	C 	0.29690 0.79650 0.87365 -0.02600
C 	C 	0.27790 0.77450 0.82260 0.01200
O 	O 	0.37120 0.91850 0.11266 -0.57600
O 	O 	0.44130 0.00070 0.15422 -0.49400
C 	C 	0.39210 0.95060 0.15500 0.37600
C 	C 	0.35510 0.92290 0.20430 -0.02800
C 	C 	0.30360 0.87520 0.22260 -0.02300
Ce	Ce	0.61652 0.53295 0.52430 2.11600
O 	O 	0.58180 0.56350 0.45260 -0.82400
O 	O 	0.67590 0.52520 0.46333 -0.59100
O 	O 	0.62103 0.50320 0.39083 -0.48100
C 	C 	0.66860 0.51110 0.41515 0.39200
C 	C 	0.70310 0.49960 0.37365 -0.02600
C 	C 	0.72210 0.49660 0.32260 0.01200
O 	O 	0.62880 0.54730 0.61266 -0.57500
O 	O 	0.55870 0.55940 0.65422 -0.49800
C 	C 	0.60790 0.55850 0.65500 0.38100
C 	C 	0.64490 0.56780 0.70430 -0.02900
C 	C 	0.69640 0.57160 0.72260 -0.02200
Ce	Ce	0.46705 0.08357 0.52430 2.11600
O 	O 	0.43650 0.01830 0.45260 -0.82400
O 	O 	0.47480 0.15070 0.46333 -0.59100
O 	O 	0.49680 0.11783 0.39083 -0.48100
C 	C 	0.48890 0.15750 0.41515 0.39200
C 	C 	0.50040 0.20350 0.37365 -0.02600
C 	C 	0.50340 0.22550 0.32260 0.01200
O 	O 	0.45270 0.08150 0.61266 -0.57500
O 	O 	0.44060 0.99930 0.65422 -0.49600
C 	C 	0.44150 0.04940 0.65500 0.37900
C 	C 	0.43220 0.07710 0.70430 -0.02800
C 	C 	0.42840 0.12480 0.72260 -0.02200
Ce	Ce	0.91643 0.38348 0.52430 2.11600
O 	O 	0.98170 0.41820 0.45260 -0.82400
O 	O 	0.84930 0.32410 0.46333 -0.59100
O 	O 	0.88217 0.37897 0.39083 -0.48100
C 	C 	0.84250 0.33140 0.41515 0.39200
C 	C 	0.79650 0.29690 0.37365 -0.02600
C 	C 	0.77450 0.27790 0.32260 0.01200
O 	O 	0.91850 0.37120 0.61266 -0.57500
O 	O 	0.00070 0.44130 0.65422 -0.49600
C 	C 	0.95060 0.39210 0.65500 0.37900
C 	C 	0.92290 0.35510 0.70430 -0.02800
C 	C 	0.87520 0.30360 0.72260 -0.02200
Ce	Ce	0.38348 0.46705 0.02430 2.11600
O 	O 	0.41820 0.43650 0.95260 -0.82300
O 	O 	0.32410 0.47480 0.96333 -0.59000
O 	O 	0.37897 0.49680 0.89083 -0.48100
C 	C 	0.33140 0.48890 0.91515 0.39200
C 	C 	0.29690 0.50040 0.87365 -0.02600
C 	C 	0.27790 0.50340 0.82260 0.01200
O 	O 	0.37120 0.45270 0.11266 -0.57600
O 	O 	0.44130 0.44060 0.15422 -0.49800
C 	C 	0.39210 0.44150 0.15500 0.38100
C 	C 	0.35510 0.43220 0.20430 -0.02900
C 	C 	0.30360 0.42840 0.22260 -0.02200
Ce	Ce	0.53295 0.91643 0.02430 2.11400
O 	O 	0.56350 0.98170 0.95260 -0.82100
O 	O 	0.52520 0.84930 0.96333 -0.58900
O 	O 	0.50320 0.88217 0.89083 -0.48000
C 	C 	0.51110 0.84250 0.91515 0.39200
C 	C 	0.49960 0.79650 0.87365 -0.02600
C 	C 	0.49660 0.77450 0.82260 0.01200
O 	O 	0.54730 0.91850 0.11266 -0.57600
O 	O 	0.55940 0.00070 0.15422 -0.49400
C 	C 	0.55850 0.95060 0.15500 0.37600
C 	C 	0.56780 0.92290 0.20430 -0.02800
C 	C 	0.57160 0.87520 0.22260 -0.02200
Ce	Ce	0.08357 0.61652 0.02430 2.11300
O 	O 	0.01830 0.58180 0.95260 -0.82000
O 	O 	0.15070 0.67590 0.96333 -0.58800
O 	O 	0.11783 0.62103 0.89083 -0.48000
C 	C 	0.15750 0.66860 0.91515 0.39200
C 	C 	0.20350 0.70310 0.87365 -0.02600
C 	C 	0.22550 0.72210 0.82260 0.01200
O 	O 	0.08150 0.62880 0.11266 -0.57600
O 	O 	0.99930 0.55870 0.15422 -0.49400
C 	C 	0.04940 0.60790 0.15500 0.37600
C 	C 	0.07710 0.64490 0.20430 -0.02800
C 	C 	0.12480 0.69640 0.22260 -0.02300
Ce	Ce	0.53295 0.61652 0.47570 2.11600
O 	O 	0.56350 0.58180 0.54740 -0.82400
O 	O 	0.52520 0.67590 0.53667 -0.59100
O 	O 	0.50320 0.62103 0.60917 -0.48100
C 	C 	0.51110 0.66860 0.58485 0.39200
C 	C 	0.49960 0.70310 0.62635 -0.02600
C 	C 	0.49660 0.72210 0.67740 0.01200
O 	O 	0.54730 0.62880 0.38734 -0.57500
O 	O 	0.55940 0.55870 0.34578 -0.49800
C 	C 	0.55850 0.60790 0.34500 0.38100
C 	C 	0.56780 0.64490 0.29570 -0.02900
C 	C 	0.57160 0.69640 0.27740 -0.02200
Ce	Ce	0.08357 0.46705 0.47570 2.11600
O 	O 	0.01830 0.43650 0.54740 -0.82400
O 	O 	0.15070 0.47480 0.53667 -0.59100
O 	O 	0.11783 0.49680 0.60917 -0.48100
C 	C 	0.15750 0.48890 0.58485 0.39200
C 	C 	0.20350 0.50040 0.62635 -0.02600
C 	C 	0.22550 0.50340 0.67740 0.01200
O 	O 	0.08150 0.45270 0.38734 -0.57500
O 	O 	0.99930 0.44060 0.34578 -0.49600
C 	C 	0.04940 0.44150 0.34500 0.37900
C 	C 	0.07710 0.43220 0.29570 -0.02800
C 	C 	0.12480 0.42840 0.27740 -0.02200
Ce	Ce	0.38348 0.91643 0.47570 2.11600
O 	O 	0.41820 0.98170 0.54740 -0.82400
O 	O 	0.32410 0.84930 0.53667 -0.59100
O 	O 	0.37897 0.88217 0.60917 -0.48100
C 	C 	0.33140 0.84250 0.58485 0.39200
C 	C 	0.29690 0.79650 0.62635 -0.02600
C 	C 	0.27790 0.77450 0.67740 0.01200
O 	O 	0.37120 0.91850 0.38734 -0.57500
O 	O 	0.44130 0.00070 0.34578 -0.49600
C 	C 	0.39210 0.95060 0.34500 0.37900
C 	C 	0.35510 0.92290 0.29570 -0.02800
C 	C 	0.30360 0.87520 0.27740 -0.02200
Ce	Ce	0.46705 0.38348 0.97570 2.11600
O 	O 	0.43650 0.41820 0.04740 -0.82300
O 	O 	0.47480 0.32410 0.03667 -0.59000
O 	O 	0.49680 0.37897 0.10917 -0.48100
C 	C 	0.48890 0.33140 0.08485 0.39200
C 	C 	0.50040 0.29690 0.12635 -0.02600
C 	C 	0.50340 0.27790 0.17740 0.01200
O 	O 	0.45270 0.37120 0.88734 -0.57600
O 	O 	0.44060 0.44130 0.84578 -0.49800
C 	C 	0.44150 0.39210 0.84500 0.38100
C 	C 	0.43220 0.35510 0.79570 -0.02900
C 	C 	0.42840 0.30360 0.77740 -0.02200
Ce	Ce	0.91643 0.53295 0.97570 2.11400
O 	O 	0.98170 0.56350 0.04740 -0.82100
O 	O 	0.84930 0.52520 0.03667 -0.58900
O 	O 	0.88217 0.50320 0.10917 -0.48000
C 	C 	0.84250 0.51110 0.08485 0.39200
C 	C 	0.79650 0.49960 0.12635 -0.02600
C 	C 	0.77450 0.49660 0.17740 0.01200
O 	O 	0.91850 0.54730 0.88734 -0.57600
O 	O 	0.00070 0.55940 0.84578 -0.49400
C 	C 	0.95060 0.55850 0.84500 0.37600
C 	C 	0.92290 0.56780 0.79570 -0.02800
C 	C 	0.87520 0.57160 0.77740 -0.02200
Ce	Ce	0.61652 0.08357 0.97570 2.11300
O 	O 	0.58180 0.01830 0.04740 -0.82000
O 	O 	0.67590 0.15070 0.03667 -0.58800
O 	O 	0.62103 0.11783 0.10917 -0.48000
C 	C 	0.66860 0.15750 0.08485 0.39200
C 	C 	0.70310 0.20350 0.12635 -0.02600
C 	C 	0.72210 0.22550 0.17740 0.01200
O 	O 	0.62880 0.08150 0.88734 -0.57600
O 	O 	0.55870 0.99930 0.84578 -0.49400
C 	C 	0.60790 0.04940 0.84500 0.37600
C 	C 	0.64490 0.07710 0.79570 -0.02800
C 	C 	0.69640 0.12480 0.77740 -0.02300
Ce	Ce	0.48003 0.51997 0.59957 2.20000
O 	O 	0.46750 0.53250 0.42440 -0.76600
O 	O 	0.44970 0.55030 0.52550 -0.82200
Ce	Ce	0.48003 0.96006 0.59957 2.20000
O 	O 	0.46750 0.93500 0.42440 -0.76700
O 	O 	0.44970 0.89940 0.52550 -0.82200
Ce	Ce	0.03994 0.51997 0.59957 2.20000
O 	O 	0.06500 0.53250 0.42440 -0.76700
O 	O 	0.10060 0.55030 0.52550 -0.82200
Ce	Ce	0.51997 0.48003 0.09957 2.20000
O 	O 	0.53250 0.46750 0.92440 -0.76700
O 	O 	0.55030 0.44970 0.02550 -0.82100
Ce	Ce	0.51997 0.03994 0.09957 2.20100
O 	O 	0.53250 0.06500 0.92440 -0.77000
O 	O 	0.55030 0.10060 0.02550 -0.81900
Ce	Ce	0.96006 0.48003 0.09957 2.20100
O 	O 	0.93500 0.46750 0.92440 -0.77000
O 	O 	0.89940 0.44970 0.02550 -0.81900
Ce	Ce	0.51997 0.48003 0.40043 2.20000
O 	O 	0.53250 0.46750 0.57560 -0.76600
O 	O 	0.55030 0.44970 0.47450 -0.82200
Ce	Ce	0.96006 0.48003 0.40043 2.20000
O 	O 	0.93500 0.46750 0.57560 -0.76700
O 	O 	0.89940 0.44970 0.47450 -0.82200
Ce	Ce	0.51997 0.03994 0.40043 2.20000
O 	O 	0.53250 0.06500 0.57560 -0.76700
O 	O 	0.55030 0.10060 0.47450 -0.82200
Ce	Ce	0.48003 0.51997 0.90043 2.20000
O 	O 	0.46750 0.53250 0.07560 -0.76700
O 	O 	0.44970 0.55030 0.97450 -0.82100
Ce	Ce	0.03994 0.51997 0.90043 2.20100
O 	O 	0.06500 0.53250 0.07560 -0.77000
O 	O 	0.10060 0.55030 0.97450 -0.81900
Ce	Ce	0.48003 0.96006 0.90043 2.20100
O 	O 	0.46750 0.93500 0.07560 -0.77000
O 	O 	0.44970 0.89940 0.97450 -0.81900
O 	O 	0.24620 0.49240 0.59810 -0.17800
O 	O 	0.50760 0.75380 0.59810 -0.17800
O 	O 	0.24620 0.75380 0.59810 -0.17800
O 	O 	0.75380 0.50760 0.09810 -0.17800
O 	O 	0.49240 0.24620 0.09810 -0.17800
O 	O 	0.75380 0.24620 0.09810 -0.17700
O 	O 	0.49240 0.24620 0.40190 -0.17800
O 	O 	0.75380 0.50760 0.40190 -0.17800
O 	O 	0.75380 0.24620 0.40190 -0.17800
O 	O 	0.50760 0.75380 0.90190 -0.17800
O 	O 	0.24620 0.49240 0.90190 -0.17800
O 	O 	0.24620 0.75380 0.90190 -0.17700
O 	O 	0.38580 0.43320 0.25000 -0.14600
O 	O 	0.56680 0.95260 0.25000 -0.14800
O 	O 	0.04740 0.61420 0.25000 -0.14800
O 	O 	0.61420 0.56680 0.75000 -0.14600
O 	O 	0.43320 0.04740 0.75000 -0.14800
O 	O 	0.95260 0.38580 0.75000 -0.14800
O 	O 	0.43320 0.38580 0.75000 -0.14600
O 	O 	0.95260 0.56680 0.75000 -0.14800
O 	O 	0.61420 0.04740 0.75000 -0.14800
O 	O 	0.56680 0.61420 0.25000 -0.14600
O 	O 	0.04740 0.43320 0.25000 -0.14800
O 	O 	0.38580 0.95260 0.25000 -0.14800
