data_crystal

_cell_length_a 7.44660
_cell_length_b 14.38210
_cell_length_c 20.91400
_cell_angle_alpha 90.00000
_cell_angle_beta  90.00000
_cell_angle_gamma 90.00000

_symmetry_space_group_name_	'P 1'
_symmetry_space_group_name_H-M	'P 1'

loop_
_symmetry_equiv_pos_as_xyz
  x,y,z

loop_
_atom_site_label
_atom_site_type_symbol
_atom_site_fract_x
_atom_site_fract_y
_atom_site_fract_z
_atom_site_charge
Cd	Cd	0.49001 0.11007 0.07558 1.26700
Cd	Cd	0.48697 0.89034 0.92446 1.26700
Cd	Cd	0.49269 0.60996 0.42482 1.26800
Cd	Cd	0.49848 0.38937 0.57575 1.26800
H 	H 	0.82325 0.23731 0.01931 0.03500
H 	H 	0.82270 0.97878 0.11533 0.03400
H 	H 	0.82035 0.76149 0.96900 0.03400
H 	H 	0.82054 0.03316 0.89196 0.03300
H 	H 	0.16004 0.73796 0.47969 0.03600
H 	H 	0.15721 0.47736 0.38638 0.02800
H 	H 	0.16518 0.26068 0.52125 0.03800
H 	H 	0.16517 0.52148 0.61434 0.03200
H 	H 	0.15394 0.76173 0.96902 0.03600
H 	H 	0.15201 0.03399 0.89305 0.03200
H 	H 	0.15710 0.23727 0.01979 0.03800
H 	H 	0.15450 0.97819 0.11508 0.03000
H 	H 	0.83122 0.26100 0.52124 0.03600
H 	H 	0.83355 0.52246 0.61338 0.02800
H 	H 	0.82610 0.73816 0.48009 0.03800
H 	H 	0.82551 0.47823 0.38586 0.03300
H 	H 	0.59749 0.20067 0.40441 0.07100
H 	H 	0.39348 0.44579 0.31274 0.05400
H 	H 	0.40220 0.36802 0.20931 0.06300
H 	H 	0.38033 0.79646 0.59617 0.07000
H 	H 	0.60115 0.55522 0.68761 0.06000
H 	H 	0.59008 0.63342 0.79106 0.06600
H 	H 	0.58959 0.70012 0.09527 0.07200
H 	H 	0.39286 0.94600 0.18794 0.05400
H 	H 	0.40470 0.86825 0.29133 0.06300
H 	H 	0.60558 0.29653 0.90424 0.07100
H 	H 	0.38082 0.05575 0.81346 0.05900
H 	H 	0.39262 0.13355 0.70979 0.06600
C 	C 	0.89384 0.17867 0.03971 0.02200
C 	C 	0.89340 0.03564 0.09275 0.02100
C 	C 	0.89108 0.82289 0.95294 0.02000
C 	C 	0.89071 0.97324 0.91057 0.02000
C 	C 	0.08885 0.67910 0.45985 0.00900
C 	C 	0.08766 0.53512 0.40809 0.00900
C 	C 	0.09449 0.31981 0.54092 0.00900
C 	C 	0.09471 0.46410 0.59232 0.00800
C 	C 	0.08292 0.82306 0.95301 0.00800
C 	C 	0.08246 0.97356 0.91094 0.01100
C 	C 	0.08600 0.17869 0.04005 0.00800
C 	C 	0.08492 0.03553 0.09288 0.00600
C 	C 	0.90231 0.32003 0.54088 0.02200
C 	C 	0.90322 0.46450 0.59199 0.02400
C 	C 	0.89667 0.67920 0.46011 0.02200
C 	C 	0.89616 0.53539 0.40809 0.02200
C 	C 	0.50421 0.23720 0.24515 -0.08400
C 	C 	0.56008 0.19080 0.30203 0.10100
C 	C 	0.55297 0.23717 0.36197 -0.03000
C 	C 	0.49671 0.33038 0.36749 -0.07500
C 	C 	0.44335 0.37565 0.31091 -0.00800
C 	C 	0.44735 0.33027 0.25113 0.00900
C 	C 	0.49762 0.18976 0.18037 0.32300
C 	C 	0.49521 0.37917 0.43181 0.35900
C 	C 	0.47875 0.76209 0.75527 -0.08400
C 	C 	0.41847 0.80724 0.69851 0.10200
C 	C 	0.42820 0.76099 0.63857 -0.02900
C 	C 	0.49065 0.66888 0.63301 -0.07500
C 	C 	0.54740 0.62459 0.68953 -0.00900
C 	C 	0.54160 0.67007 0.74928 0.00800
C 	C 	0.48344 0.80993 0.81992 0.32300
C 	C 	0.49435 0.62013 0.56872 0.35900
C 	C 	0.50342 0.73703 0.25504 -0.08400
C 	C 	0.55628 0.69042 0.19787 0.10200
C 	C 	0.54734 0.73679 0.13793 -0.03000
C 	C 	0.49218 0.83022 0.13265 -0.07400
C 	C 	0.44181 0.87567 0.18952 -0.00800
C 	C 	0.44761 0.83031 0.24930 0.00900
C 	C 	0.49862 0.68962 0.31991 0.32300
C 	C 	0.48891 0.87914 0.06834 0.35800
C 	C 	0.50594 0.26194 0.74528 -0.08400
C 	C 	0.56706 0.30710 0.80192 0.10200
C 	C 	0.55702 0.26110 0.86193 -0.02900
C 	C 	0.49341 0.16923 0.86768 -0.07500
C 	C 	0.43570 0.12491 0.81131 -0.00900
C 	C 	0.44184 0.17017 0.75147 0.00800
C 	C 	0.50169 0.30955 0.68054 0.32300
C 	C 	0.48948 0.12078 0.93205 0.35800
N 	N 	0.79732 0.10730 0.06642 -0.18900
N 	N 	0.79456 0.89777 0.93140 -0.18900
N 	N 	0.18468 0.60726 0.43342 -0.18800
N 	N 	0.19092 0.39168 0.56703 -0.18600
N 	N 	0.17912 0.89818 0.93170 -0.18600
N 	N 	0.18190 0.10733 0.06704 -0.18700
N 	N 	0.80635 0.39219 0.56682 -0.18900
N 	N 	0.80010 0.60750 0.43387 -0.18800
N 	N 	0.63141 0.09812 0.29994 -0.01900
N 	N 	0.33885 0.89808 0.70081 -0.01900
N 	N 	0.62635 0.59746 0.19959 -0.01900
N 	N 	0.64781 0.39767 0.79941 -0.01900
O 	O 	0.49732 0.10236 0.17337 -0.39200
O 	O 	0.49007 0.23305 0.12745 -0.39100
O 	O 	0.76032 0.07798 0.26028 -0.09700
O 	O 	0.36713 0.95675 0.65453 -0.10300
O 	O 	0.58455 0.53882 0.15461 -0.10000
O 	O 	0.62076 0.45653 0.84566 -0.10200
O 	O 	0.48744 0.89742 0.82654 -0.39100
O 	O 	0.48531 0.76696 0.87305 -0.39200
O 	O 	0.21223 0.91567 0.74196 -0.10400
O 	O 	0.59230 0.03932 0.34513 -0.10100
O 	O 	0.49830 0.39702 0.67370 -0.39100
O 	O 	0.49958 0.26634 0.62752 -0.39100
O 	O 	0.77419 0.41475 0.75807 -0.10200
O 	O 	0.49829 0.60222 0.32697 -0.39100
O 	O 	0.49256 0.73294 0.37285 -0.39100
O 	O 	0.75666 0.57685 0.23855 -0.09600
O 	O 	0.49406 0.46804 0.43620 -0.45600
O 	O 	0.49824 0.33188 0.48405 -0.41700
O 	O 	0.49628 0.53127 0.56432 -0.45700
O 	O 	0.49215 0.66746 0.51650 -0.41700
O 	O 	0.48896 0.96804 0.06407 -0.45400
O 	O 	0.48859 0.83198 0.01599 -0.41500
O 	O 	0.48811 0.03197 0.93674 -0.45600
O 	O 	0.49118 0.16825 0.98418 -0.41600
