data_crystal

_cell_length_a 18.30940
_cell_length_b 18.30940
_cell_length_c 19.89460
_cell_angle_alpha 90.00000
_cell_angle_beta  90.00000
_cell_angle_gamma 120.00000

_symmetry_space_group_name_	'P 1'
_symmetry_space_group_name_H-M	'P 1'

loop_
_symmetry_equiv_pos_as_xyz
  x,y,z

loop_
_atom_site_label
_atom_site_type_symbol
_atom_site_fract_x
_atom_site_fract_y
_atom_site_fract_z
_atom_site_charge
Sm	Sm	0.41655 0.50730 0.55584 2.26800
O 	O 	0.31520 0.36290 0.51810 -0.53200
O 	O 	0.33040 0.57370 0.70380 -0.56000
O 	O 	0.37730 0.49010 0.66780 -0.59300
C 	C 	0.35050 0.51870 0.71350 0.56800
C 	C 	0.40900 0.52970 0.90080 0.53700
C 	C 	0.34640 0.48330 0.78130 -0.40400
H 	H 	0.37380 0.44910 0.78370 0.15900
C 	C 	0.35410 0.53060 0.84630 -0.38300
H 	H 	0.35490 0.58410 0.84060 0.13500
C 	C 	0.36590 0.35370 0.48260 0.45700
C 	C 	0.33810 0.26580 0.45280 -0.12900
H 	H 	0.28340 0.22190 0.47010 0.08500
C 	C 	0.27120 0.45260 0.82850 0.70900
C 	C 	0.19920 0.46700 0.81170 -1.26900
H 	H 	0.22050 0.51990 0.78870 0.41300
H 	H 	0.17150 0.46800 0.85240 0.39000
H 	H 	0.15970 0.42220 0.78330 0.37400
C 	C 	0.24390 0.36960 0.86540 -1.21200
H 	H 	0.20320 0.32350 0.83870 0.35200
H 	H 	0.21930 0.37010 0.90780 0.37300
H 	H 	0.29220 0.36310 0.87270 0.38100
C 	C 	0.39190 0.23020 0.42440 -0.13400
H 	H 	0.36470 0.16870 0.42750 -0.04900
O 	O 	0.53690 0.35010 0.40850 -0.66500
O 	O 	0.51750 0.22740 0.43820 -0.66200
C 	C 	0.48680 0.27420 0.42640 0.53200
C 	C 	0.27480 0.19550 0.33670 -1.00200
H 	H 	0.25290 0.14200 0.35890 0.25400
H 	H 	0.29410 0.19220 0.29260 0.26000
H 	H 	0.23130 0.21000 0.33320 0.27000
O 	O 	0.43810 0.41570 0.46810 -0.66400
O 	O 	0.42590 0.57970 0.95010 -0.56900
O 	O 	0.43470 0.47750 0.89490 -0.58100
C 	C 	0.34620 0.26110 0.37620 0.08100
C 	C 	0.39100 0.33930 0.33230 -0.11300
H 	H 	0.35040 0.35250 0.31400 -0.01200
H 	H 	0.41950 0.32890 0.29620 -0.02900
H 	H 	0.43140 0.38590 0.35880 -0.06100
C 	C 	0.33240 0.23720 0.39070 0.40100
C 	C 	0.36100 0.30270 0.33650 -0.53600
H 	H 	0.33190 0.33390 0.34090 0.19000
H 	H 	0.34890 0.27570 0.29330 0.17800
H 	H 	0.42060 0.34050 0.34050 0.28000
C 	C 	0.33980 0.26990 0.45940 -0.14300
H 	H 	0.29480 0.22800 0.48800 -0.00900
C 	C 	0.39640 0.23630 0.43410 -0.18800
H 	H 	0.37420 0.17890 0.45140 0.14400
C 	C 	0.25790 0.15930 0.36530 0.07700
H 	H 	0.21380 0.17120 0.35430 0.02400
H 	H 	0.23830 0.11650 0.39930 -0.12300
H 	H 	0.27340 0.14000 0.32590 0.03900
Sm	Sm	0.49270 0.90925 0.55584 2.27000
O 	O 	0.63710 0.95230 0.51810 -0.53100
O 	O 	0.42630 0.75670 0.70380 -0.55900
O 	O 	0.50990 0.88720 0.66780 -0.59200
C 	C 	0.48130 0.83180 0.71350 0.57000
C 	C 	0.47030 0.87930 0.90080 0.53800
C 	C 	0.51670 0.86310 0.78130 -0.40300
H 	H 	0.55090 0.92470 0.78370 0.16100
C 	C 	0.46940 0.82350 0.84630 -0.38200
H 	H 	0.41590 0.77080 0.84060 0.13600
C 	C 	0.64630 0.01220 0.48260 0.45700
C 	C 	0.73420 0.07230 0.45280 -0.12800
H 	H 	0.77810 0.06150 0.47010 0.08300
C 	C 	0.54740 0.81860 0.82850 0.70900
C 	C 	0.53300 0.73220 0.81170 -1.26800
H 	H 	0.48010 0.70060 0.78870 0.41300
H 	H 	0.53200 0.70350 0.85240 0.39000
H 	H 	0.57780 0.73750 0.78330 0.37400
C 	C 	0.63040 0.87430 0.86540 -1.21300
H 	H 	0.67650 0.87970 0.83870 0.35300
H 	H 	0.62990 0.84920 0.90780 0.37300
H 	H 	0.63690 0.92910 0.87270 0.38200
C 	C 	0.76980 0.16170 0.42440 -0.13400
H 	H 	0.83130 0.19600 0.42750 -0.04800
O 	O 	0.64990 0.18680 0.40850 -0.66500
O 	O 	0.77260 0.29010 0.43820 -0.66200
C 	C 	0.72580 0.21260 0.42640 0.53200
C 	C 	0.80450 0.07930 0.33670 -1.00200
H 	H 	0.85800 0.11090 0.35890 0.25400
H 	H 	0.80780 0.10190 0.29260 0.26100
H 	H 	0.79000 0.02130 0.33320 0.27000
O 	O 	0.58430 0.02240 0.46810 -0.66400
O 	O 	0.42030 0.84620 0.95010 -0.56800
O 	O 	0.52250 0.95720 0.89490 -0.57900
C 	C 	0.73890 0.08510 0.37620 0.08200
C 	C 	0.66070 0.05170 0.33230 -0.11200
H 	H 	0.64750 0.99790 0.31400 -0.01200
H 	H 	0.67110 0.09060 0.29620 -0.02900
H 	H 	0.61410 0.04550 0.35880 -0.06000
C 	C 	0.76280 0.09520 0.39070 0.39900
C 	C 	0.69730 0.05830 0.33650 -0.53300
H 	H 	0.66610 0.99800 0.34090 0.18900
H 	H 	0.72430 0.07320 0.29330 0.17700
H 	H 	0.65950 0.08010 0.34050 0.27900
C 	C 	0.73010 0.06990 0.45940 -0.14300
H 	H 	0.77200 0.06680 0.48800 -0.00700
C 	C 	0.76370 0.16010 0.43410 -0.18800
H 	H 	0.82110 0.19530 0.45140 0.14400
C 	C 	0.84070 0.09860 0.36530 0.07700
H 	H 	0.82880 0.04260 0.35430 0.02400
H 	H 	0.88350 0.12180 0.39930 -0.12200
H 	H 	0.86000 0.13340 0.32590 0.03900
Sm	Sm	0.09075 0.58345 0.55584 2.27000
O 	O 	0.04770 0.68480 0.51810 -0.53100
O 	O 	0.24330 0.66960 0.70380 -0.55900
O 	O 	0.11280 0.62270 0.66780 -0.59200
C 	C 	0.16820 0.64950 0.71350 0.57000
C 	C 	0.12070 0.59100 0.90080 0.53800
C 	C 	0.13690 0.65360 0.78130 -0.40300
H 	H 	0.07530 0.62620 0.78370 0.16100
C 	C 	0.17650 0.64590 0.84630 -0.38200
H 	H 	0.22920 0.64510 0.84060 0.13700
C 	C 	0.98780 0.63410 0.48260 0.45800
C 	C 	0.92770 0.66190 0.45280 -0.12800
H 	H 	0.93850 0.71660 0.47010 0.08300
C 	C 	0.18140 0.72880 0.82850 0.71100
C 	C 	0.26780 0.80080 0.81170 -1.27000
H 	H 	0.29940 0.77950 0.78870 0.41300
H 	H 	0.29650 0.82850 0.85240 0.39100
H 	H 	0.26250 0.84030 0.78330 0.37500
C 	C 	0.12570 0.75610 0.86540 -1.21600
H 	H 	0.12030 0.79680 0.83870 0.35400
H 	H 	0.15080 0.78070 0.90780 0.37500
H 	H 	0.07090 0.70780 0.87270 0.38300
C 	C 	0.83830 0.60810 0.42440 -0.13400
H 	H 	0.80400 0.63530 0.42750 -0.04800
O 	O 	0.81320 0.46310 0.40850 -0.66500
O 	O 	0.70990 0.48250 0.43820 -0.66200
C 	C 	0.78740 0.51320 0.42640 0.53200
C 	C 	0.92070 0.72520 0.33670 -1.00200
H 	H 	0.88910 0.74710 0.35890 0.25400
H 	H 	0.89810 0.70590 0.29260 0.26100
H 	H 	0.97870 0.76870 0.33320 0.27000
O 	O 	0.97760 0.56190 0.46810 -0.66400
O 	O 	0.15380 0.57410 0.95010 -0.56800
O 	O 	0.04280 0.56530 0.89490 -0.57900
C 	C 	0.91490 0.65380 0.37620 0.08200
C 	C 	0.94830 0.60900 0.33230 -0.11200
H 	H 	0.00210 0.64960 0.31400 -0.01200
H 	H 	0.90940 0.58050 0.29620 -0.02900
H 	H 	0.95450 0.56860 0.35880 -0.06000
C 	C 	0.90480 0.66760 0.39070 0.39900
C 	C 	0.94170 0.63900 0.33650 -0.53300
H 	H 	0.00200 0.66810 0.34090 0.18900
H 	H 	0.92680 0.65110 0.29330 0.17700
H 	H 	0.91990 0.57940 0.34050 0.27800
C 	C 	0.93010 0.66020 0.45940 -0.14300
H 	H 	0.93320 0.70520 0.48800 -0.00700
C 	C 	0.83990 0.60360 0.43410 -0.18800
H 	H 	0.80470 0.62580 0.45140 0.14400
C 	C 	0.90140 0.74210 0.36530 0.07700
H 	H 	0.95740 0.78620 0.35430 0.02400
H 	H 	0.87820 0.76170 0.39930 -0.12200
H 	H 	0.86660 0.72660 0.32590 0.03900
Sm	Sm	0.50730 0.41655 0.94416 2.26900
O 	O 	0.36290 0.31520 0.98190 -0.53100
O 	O 	0.57370 0.33040 0.79620 -0.55900
O 	O 	0.49010 0.37730 0.83220 -0.59200
C 	C 	0.51870 0.35050 0.78650 0.56900
C 	C 	0.52970 0.40900 0.59920 0.53800
C 	C 	0.48330 0.34640 0.71870 -0.40200
H 	H 	0.44910 0.37380 0.71630 0.16000
C 	C 	0.53060 0.35410 0.65370 -0.38200
H 	H 	0.58410 0.35490 0.65940 0.13600
C 	C 	0.35370 0.36590 0.01740 0.45800
C 	C 	0.26580 0.33810 0.04720 -0.12800
H 	H 	0.22190 0.28340 0.02990 0.08400
C 	C 	0.45260 0.27120 0.67150 0.70800
C 	C 	0.46700 0.19920 0.68830 -1.26700
H 	H 	0.51990 0.22050 0.71130 0.41200
H 	H 	0.46800 0.17150 0.64760 0.38900
H 	H 	0.42220 0.15970 0.71670 0.37400
C 	C 	0.36960 0.24390 0.63460 -1.21000
H 	H 	0.32350 0.20320 0.66130 0.35200
H 	H 	0.37010 0.21930 0.59220 0.37200
H 	H 	0.36310 0.29220 0.62730 0.38000
C 	C 	0.23020 0.39190 0.07560 -0.13400
H 	H 	0.16870 0.36470 0.07250 -0.04900
O 	O 	0.35010 0.53690 0.09150 -0.66500
O 	O 	0.22740 0.51750 0.06180 -0.66200
C 	C 	0.27420 0.48680 0.07360 0.53200
C 	C 	0.19550 0.27480 0.16330 -1.00200
H 	H 	0.14200 0.25290 0.14110 0.25400
H 	H 	0.19220 0.29410 0.20740 0.26000
H 	H 	0.21000 0.23130 0.16680 0.27000
O 	O 	0.41570 0.43810 0.03190 -0.66400
O 	O 	0.57970 0.42590 0.54990 -0.57000
O 	O 	0.47750 0.43470 0.60510 -0.58100
C 	C 	0.26110 0.34620 0.12380 0.08100
C 	C 	0.33930 0.39100 0.16770 -0.11300
H 	H 	0.35250 0.35040 0.18600 -0.01200
H 	H 	0.32890 0.41950 0.20380 -0.02900
H 	H 	0.38590 0.43140 0.14120 -0.06100
C 	C 	0.23720 0.33240 0.10930 0.40100
C 	C 	0.30270 0.36100 0.16350 -0.53600
H 	H 	0.33390 0.33190 0.15910 0.19100
H 	H 	0.27570 0.34890 0.20670 0.17800
H 	H 	0.34050 0.42060 0.15950 0.28000
C 	C 	0.26990 0.33980 0.04060 -0.14300
H 	H 	0.22800 0.29480 0.01200 -0.00800
C 	C 	0.23630 0.39640 0.06590 -0.18800
H 	H 	0.17890 0.37420 0.04860 0.14400
C 	C 	0.15930 0.25790 0.13470 0.07700
H 	H 	0.17120 0.21380 0.14570 0.02400
H 	H 	0.11650 0.23830 0.10070 -0.12300
H 	H 	0.14000 0.27340 0.17410 0.03900
Sm	Sm	0.90925 0.49270 0.94416 2.26600
O 	O 	0.95230 0.63710 0.98190 -0.53100
O 	O 	0.75670 0.42630 0.79620 -0.55800
O 	O 	0.88720 0.50990 0.83220 -0.59200
C 	C 	0.83180 0.48130 0.78650 0.56900
C 	C 	0.87930 0.47030 0.59920 0.53800
C 	C 	0.86310 0.51670 0.71870 -0.40200
H 	H 	0.92470 0.55090 0.71630 0.16000
C 	C 	0.82350 0.46940 0.65370 -0.38200
H 	H 	0.77080 0.41590 0.65940 0.13600
C 	C 	0.01220 0.64630 0.01740 0.45600
C 	C 	0.07230 0.73420 0.04720 -0.12800
H 	H 	0.06150 0.77810 0.02990 0.08300
C 	C 	0.81860 0.54740 0.67150 0.70800
C 	C 	0.73220 0.53300 0.68830 -1.26700
H 	H 	0.70060 0.48010 0.71130 0.41200
H 	H 	0.70350 0.53200 0.64760 0.39000
H 	H 	0.73750 0.57780 0.71670 0.37400
C 	C 	0.87430 0.63040 0.63460 -1.21000
H 	H 	0.87970 0.67650 0.66130 0.35100
H 	H 	0.84920 0.62990 0.59220 0.37200
H 	H 	0.92910 0.63690 0.62730 0.38000
C 	C 	0.16170 0.76980 0.07560 -0.13500
H 	H 	0.19600 0.83130 0.07250 -0.04900
O 	O 	0.18680 0.64990 0.09150 -0.66500
O 	O 	0.29010 0.77260 0.06180 -0.66200
C 	C 	0.21260 0.72580 0.07360 0.53200
C 	C 	0.07930 0.80450 0.16330 -1.00200
H 	H 	0.11090 0.85800 0.14110 0.25300
H 	H 	0.10190 0.80780 0.20740 0.26000
H 	H 	0.02130 0.79000 0.16680 0.26900
O 	O 	0.02240 0.58430 0.03190 -0.66400
O 	O 	0.84620 0.42030 0.54990 -0.57000
O 	O 	0.95720 0.52250 0.60510 -0.58100
C 	C 	0.08510 0.73890 0.12380 0.07900
C 	C 	0.05170 0.66070 0.16770 -0.11400
H 	H 	0.99790 0.64750 0.18600 -0.01100
H 	H 	0.09060 0.67110 0.20380 -0.02900
H 	H 	0.04550 0.61410 0.14120 -0.06200
C 	C 	0.09520 0.76280 0.10930 0.40500
C 	C 	0.05830 0.69730 0.16350 -0.54200
H 	H 	0.99800 0.66610 0.15910 0.19400
H 	H 	0.07320 0.72430 0.20670 0.18000
H 	H 	0.08010 0.65950 0.15950 0.28300
C 	C 	0.06990 0.73010 0.04060 -0.14400
H 	H 	0.06680 0.77200 0.01200 -0.00800
C 	C 	0.16010 0.76370 0.06590 -0.18900
H 	H 	0.19530 0.82110 0.04860 0.14400
C 	C 	0.09860 0.84070 0.13470 0.07800
H 	H 	0.04260 0.82880 0.14570 0.02400
H 	H 	0.12180 0.88350 0.10070 -0.12300
H 	H 	0.13340 0.86000 0.17410 0.03900
Sm	Sm	0.58345 0.09075 0.94416 2.26600
O 	O 	0.68480 0.04770 0.98190 -0.53300
O 	O 	0.66960 0.24330 0.79620 -0.55800
O 	O 	0.62270 0.11280 0.83220 -0.59200
C 	C 	0.64950 0.16820 0.78650 0.56900
C 	C 	0.59100 0.12070 0.59920 0.53800
C 	C 	0.65360 0.13690 0.71870 -0.40200
H 	H 	0.62620 0.07530 0.71630 0.16000
C 	C 	0.64590 0.17650 0.65370 -0.38200
H 	H 	0.64510 0.22920 0.65940 0.13600
C 	C 	0.63410 0.98780 0.01740 0.45900
C 	C 	0.66190 0.92770 0.04720 -0.12800
H 	H 	0.71660 0.93850 0.02990 0.08600
C 	C 	0.72880 0.18140 0.67150 0.70800
C 	C 	0.80080 0.26780 0.68830 -1.26600
H 	H 	0.77950 0.29940 0.71130 0.41200
H 	H 	0.82850 0.29650 0.64760 0.38900
H 	H 	0.84030 0.26250 0.71670 0.37300
C 	C 	0.75610 0.12570 0.63460 -1.21000
H 	H 	0.79680 0.12030 0.66130 0.35100
H 	H 	0.78070 0.15080 0.59220 0.37200
H 	H 	0.70780 0.07090 0.62730 0.38000
C 	C 	0.60810 0.83830 0.07560 -0.13400
H 	H 	0.63530 0.80400 0.07250 -0.04900
O 	O 	0.46310 0.81320 0.09150 -0.66500
O 	O 	0.48250 0.70990 0.06180 -0.66200
C 	C 	0.51320 0.78740 0.07360 0.53200
C 	C 	0.72520 0.92070 0.16330 -1.00300
H 	H 	0.74710 0.88910 0.14110 0.25300
H 	H 	0.70590 0.89810 0.20740 0.26000
H 	H 	0.76870 0.97870 0.16680 0.27000
O 	O 	0.56190 0.97760 0.03190 -0.66500
O 	O 	0.57410 0.15380 0.54990 -0.57000
O 	O 	0.56530 0.04280 0.60510 -0.58100
C 	C 	0.65380 0.91490 0.12380 0.07900
C 	C 	0.60900 0.94830 0.16770 -0.11400
H 	H 	0.64960 0.00210 0.18600 -0.01200
H 	H 	0.58050 0.90940 0.20380 -0.02900
H 	H 	0.56860 0.95450 0.14120 -0.06200
C 	C 	0.66760 0.90480 0.10930 0.40500
C 	C 	0.63900 0.94170 0.16350 -0.54200
H 	H 	0.66810 0.00200 0.15910 0.19400
H 	H 	0.65110 0.92680 0.20670 0.18000
H 	H 	0.57940 0.91990 0.15950 0.28300
C 	C 	0.66020 0.93010 0.04060 -0.14400
H 	H 	0.70520 0.93320 0.01200 -0.01000
C 	C 	0.60360 0.83990 0.06590 -0.18900
H 	H 	0.62580 0.80470 0.04860 0.14500
C 	C 	0.74210 0.90140 0.13470 0.07800
H 	H 	0.78620 0.95740 0.14570 0.02400
H 	H 	0.76170 0.87820 0.10070 -0.12300
H 	H 	0.72660 0.86660 0.17410 0.04000
Sm	Sm	0.58345 0.49270 0.44416 2.26900
O 	O 	0.68480 0.63710 0.48190 -0.53100
O 	O 	0.66960 0.42630 0.29620 -0.55900
O 	O 	0.62270 0.50990 0.33220 -0.59200
C 	C 	0.64950 0.48130 0.28650 0.56900
C 	C 	0.59100 0.47030 0.09920 0.53800
C 	C 	0.65360 0.51670 0.21870 -0.40300
H 	H 	0.62620 0.55090 0.21630 0.16000
C 	C 	0.64590 0.46940 0.15370 -0.38200
H 	H 	0.64510 0.41590 0.15940 0.13600
C 	C 	0.63410 0.64630 0.51740 0.45800
C 	C 	0.66190 0.73420 0.54720 -0.12800
H 	H 	0.71660 0.77810 0.52990 0.08500
C 	C 	0.72880 0.54740 0.17150 0.70900
C 	C 	0.80080 0.53300 0.18830 -1.26900
H 	H 	0.77950 0.48010 0.21130 0.41300
H 	H 	0.82850 0.53200 0.14760 0.39000
H 	H 	0.84030 0.57780 0.21670 0.37400
C 	C 	0.75610 0.63040 0.13460 -1.21200
H 	H 	0.79680 0.67650 0.16130 0.35200
H 	H 	0.78070 0.62990 0.09220 0.37300
H 	H 	0.70780 0.63690 0.12730 0.38100
C 	C 	0.60810 0.76980 0.57560 -0.13400
H 	H 	0.63530 0.83130 0.57250 -0.04900
O 	O 	0.46310 0.64990 0.59150 -0.66500
O 	O 	0.48250 0.77260 0.56180 -0.66200
C 	C 	0.51320 0.72580 0.57360 0.53200
C 	C 	0.72520 0.80450 0.66330 -1.00200
H 	H 	0.74710 0.85800 0.64110 0.25400
H 	H 	0.70590 0.80780 0.70740 0.26000
H 	H 	0.76870 0.79000 0.66680 0.27000
O 	O 	0.56190 0.58430 0.53190 -0.66400
O 	O 	0.57410 0.42030 0.04990 -0.56900
O 	O 	0.56530 0.52250 0.10510 -0.58100
C 	C 	0.65380 0.73890 0.62380 0.08100
C 	C 	0.60900 0.66070 0.66770 -0.11300
H 	H 	0.64960 0.64750 0.68600 -0.01200
H 	H 	0.58050 0.67110 0.70380 -0.02900
H 	H 	0.56860 0.61410 0.64120 -0.06100
C 	C 	0.66760 0.76280 0.60930 0.40100
C 	C 	0.63900 0.69730 0.66350 -0.53600
H 	H 	0.66810 0.66610 0.65910 0.19000
H 	H 	0.65110 0.72430 0.70670 0.17800
H 	H 	0.57940 0.65950 0.65950 0.28000
C 	C 	0.66020 0.73010 0.54060 -0.14300
H 	H 	0.70520 0.77200 0.51200 -0.00900
C 	C 	0.60360 0.76370 0.56590 -0.18800
H 	H 	0.62580 0.82110 0.54860 0.14400
C 	C 	0.74210 0.84070 0.63470 0.07700
H 	H 	0.78620 0.82880 0.64570 0.02400
H 	H 	0.76170 0.88350 0.60070 -0.12300
H 	H 	0.72660 0.86000 0.67410 0.03900
Sm	Sm	0.50730 0.09075 0.44416 2.27000
O 	O 	0.36290 0.04770 0.48190 -0.53100
O 	O 	0.57370 0.24330 0.29620 -0.55900
O 	O 	0.49010 0.11280 0.33220 -0.59200
C 	C 	0.51870 0.16820 0.28650 0.57000
C 	C 	0.52970 0.12070 0.09920 0.53800
C 	C 	0.48330 0.13690 0.21870 -0.40300
H 	H 	0.44910 0.07530 0.21630 0.16100
C 	C 	0.53060 0.17650 0.15370 -0.38200
H 	H 	0.58410 0.22920 0.15940 0.13600
C 	C 	0.35370 0.98780 0.51740 0.45700
C 	C 	0.26580 0.92770 0.54720 -0.12800
H 	H 	0.22190 0.93850 0.52990 0.08300
C 	C 	0.45260 0.18140 0.17150 0.70900
C 	C 	0.46700 0.26780 0.18830 -1.26800
H 	H 	0.51990 0.29940 0.21130 0.41300
H 	H 	0.46800 0.29650 0.14760 0.39000
H 	H 	0.42220 0.26250 0.21670 0.37400
C 	C 	0.36960 0.12570 0.13460 -1.21300
H 	H 	0.32350 0.12030 0.16130 0.35300
H 	H 	0.37010 0.15080 0.09220 0.37300
H 	H 	0.36310 0.07090 0.12730 0.38200
C 	C 	0.23020 0.83830 0.57560 -0.13400
H 	H 	0.16870 0.80400 0.57250 -0.04800
O 	O 	0.35010 0.81320 0.59150 -0.66500
O 	O 	0.22740 0.70990 0.56180 -0.66200
C 	C 	0.27420 0.78740 0.57360 0.53200
C 	C 	0.19550 0.92070 0.66330 -1.00200
H 	H 	0.14200 0.88910 0.64110 0.25400
H 	H 	0.19220 0.89810 0.70740 0.26100
H 	H 	0.21000 0.97870 0.66680 0.27000
O 	O 	0.41570 0.97760 0.53190 -0.66400
O 	O 	0.57970 0.15380 0.04990 -0.56800
O 	O 	0.47750 0.04280 0.10510 -0.57900
C 	C 	0.26110 0.91490 0.62380 0.08200
C 	C 	0.33930 0.94830 0.66770 -0.11200
H 	H 	0.35250 0.00210 0.68600 -0.01200
H 	H 	0.32890 0.90940 0.70380 -0.02900
H 	H 	0.38590 0.95450 0.64120 -0.06000
C 	C 	0.23720 0.90480 0.60930 0.39900
C 	C 	0.30270 0.94170 0.66350 -0.53300
H 	H 	0.33390 0.00200 0.65910 0.18900
H 	H 	0.27570 0.92680 0.70670 0.17700
H 	H 	0.34050 0.91990 0.65950 0.27900
C 	C 	0.26990 0.93010 0.54060 -0.14300
H 	H 	0.22800 0.93320 0.51200 -0.00700
C 	C 	0.23630 0.83990 0.56590 -0.18800
H 	H 	0.17890 0.80470 0.54860 0.14400
C 	C 	0.15930 0.90140 0.63470 0.07700
H 	H 	0.17120 0.95740 0.64570 0.02400
H 	H 	0.11650 0.87820 0.60070 -0.12200
H 	H 	0.14000 0.86660 0.67410 0.03900
Sm	Sm	0.90925 0.41655 0.44416 2.27000
O 	O 	0.95230 0.31520 0.48190 -0.53100
O 	O 	0.75670 0.33040 0.29620 -0.55900
O 	O 	0.88720 0.37730 0.33220 -0.59200
C 	C 	0.83180 0.35050 0.28650 0.57000
C 	C 	0.87930 0.40900 0.09920 0.53800
C 	C 	0.86310 0.34640 0.21870 -0.40300
H 	H 	0.92470 0.37380 0.21630 0.16100
C 	C 	0.82350 0.35410 0.15370 -0.38200
H 	H 	0.77080 0.35490 0.15940 0.13700
C 	C 	0.01220 0.36590 0.51740 0.45800
C 	C 	0.07230 0.33810 0.54720 -0.12800
H 	H 	0.06150 0.28340 0.52990 0.08300
C 	C 	0.81860 0.27120 0.17150 0.71100
C 	C 	0.73220 0.19920 0.18830 -1.27000
H 	H 	0.70060 0.22050 0.21130 0.41300
H 	H 	0.70350 0.17150 0.14760 0.39100
H 	H 	0.73750 0.15970 0.21670 0.37500
C 	C 	0.87430 0.24390 0.13460 -1.21600
H 	H 	0.87970 0.20320 0.16130 0.35400
H 	H 	0.84920 0.21930 0.09220 0.37500
H 	H 	0.92910 0.29220 0.12730 0.38300
C 	C 	0.16170 0.39190 0.57560 -0.13400
H 	H 	0.19600 0.36470 0.57250 -0.04800
O 	O 	0.18680 0.53690 0.59150 -0.66500
O 	O 	0.29010 0.51750 0.56180 -0.66200
C 	C 	0.21260 0.48680 0.57360 0.53200
C 	C 	0.07930 0.27480 0.66330 -1.00200
H 	H 	0.11090 0.25290 0.64110 0.25400
H 	H 	0.10190 0.29410 0.70740 0.26100
H 	H 	0.02130 0.23130 0.66680 0.27000
O 	O 	0.02240 0.43810 0.53190 -0.66400
O 	O 	0.84620 0.42590 0.04990 -0.56800
O 	O 	0.95720 0.43470 0.10510 -0.57900
C 	C 	0.08510 0.34620 0.62380 0.08200
C 	C 	0.05170 0.39100 0.66770 -0.11200
H 	H 	0.99790 0.35040 0.68600 -0.01200
H 	H 	0.09060 0.41950 0.70380 -0.02900
H 	H 	0.04550 0.43140 0.64120 -0.06000
C 	C 	0.09520 0.33240 0.60930 0.39900
C 	C 	0.05830 0.36100 0.66350 -0.53300
H 	H 	0.99800 0.33190 0.65910 0.18900
H 	H 	0.07320 0.34890 0.70670 0.17700
H 	H 	0.08010 0.42060 0.65950 0.27800
C 	C 	0.06990 0.33980 0.54060 -0.14300
H 	H 	0.06680 0.29480 0.51200 -0.00700
C 	C 	0.16010 0.39640 0.56590 -0.18800
H 	H 	0.19530 0.37420 0.54860 0.14400
C 	C 	0.09860 0.25790 0.63470 0.07700
H 	H 	0.04260 0.21380 0.64570 0.02400
H 	H 	0.12180 0.23830 0.60070 -0.12200
H 	H 	0.13340 0.27340 0.67410 0.03900
Sm	Sm	0.49270 0.58345 0.05584 2.26900
O 	O 	0.63710 0.68480 0.01810 -0.53100
O 	O 	0.42630 0.66960 0.20380 -0.55900
O 	O 	0.50990 0.62270 0.16780 -0.59200
C 	C 	0.48130 0.64950 0.21350 0.56900
C 	C 	0.47030 0.59100 0.40080 0.53800
C 	C 	0.51670 0.65360 0.28130 -0.40200
H 	H 	0.55090 0.62620 0.28370 0.16000
C 	C 	0.46940 0.64590 0.34630 -0.38200
H 	H 	0.41590 0.64510 0.34060 0.13600
C 	C 	0.64630 0.63410 0.98260 0.45800
C 	C 	0.73420 0.66190 0.95280 -0.12800
H 	H 	0.77810 0.71660 0.97010 0.08400
C 	C 	0.54740 0.72880 0.32850 0.70800
C 	C 	0.53300 0.80080 0.31170 -1.26700
H 	H 	0.48010 0.77950 0.28870 0.41200
H 	H 	0.53200 0.82850 0.35240 0.38900
H 	H 	0.57780 0.84030 0.28330 0.37400
C 	C 	0.63040 0.75610 0.36540 -1.21000
H 	H 	0.67650 0.79680 0.33870 0.35200
H 	H 	0.62990 0.78070 0.40780 0.37200
H 	H 	0.63690 0.70780 0.37270 0.38000
C 	C 	0.76980 0.60810 0.92440 -0.13400
H 	H 	0.83130 0.63530 0.92750 -0.04900
O 	O 	0.64990 0.46310 0.90850 -0.66500
O 	O 	0.77260 0.48250 0.93820 -0.66200
C 	C 	0.72580 0.51320 0.92640 0.53200
C 	C 	0.80450 0.72520 0.83670 -1.00200
H 	H 	0.85800 0.74710 0.85890 0.25400
H 	H 	0.80780 0.70590 0.79260 0.26000
H 	H 	0.79000 0.76870 0.83320 0.27000
O 	O 	0.58430 0.56190 0.96810 -0.66400
O 	O 	0.42030 0.57410 0.45010 -0.57000
O 	O 	0.52250 0.56530 0.39490 -0.58100
C 	C 	0.73890 0.65380 0.87620 0.08100
C 	C 	0.66070 0.60900 0.83230 -0.11300
H 	H 	0.64750 0.64960 0.81400 -0.01200
H 	H 	0.67110 0.58050 0.79620 -0.02900
H 	H 	0.61410 0.56860 0.85880 -0.06100
C 	C 	0.76280 0.66760 0.89070 0.40100
C 	C 	0.69730 0.63900 0.83650 -0.53600
H 	H 	0.66610 0.66810 0.84090 0.19100
H 	H 	0.72430 0.65110 0.79330 0.17800
H 	H 	0.65950 0.57940 0.84050 0.28000
C 	C 	0.73010 0.66020 0.95940 -0.14300
H 	H 	0.77200 0.70520 0.98800 -0.00800
C 	C 	0.76370 0.60360 0.93410 -0.18800
H 	H 	0.82110 0.62580 0.95140 0.14400
C 	C 	0.84070 0.74210 0.86530 0.07700
H 	H 	0.82880 0.78620 0.85430 0.02400
H 	H 	0.88350 0.76170 0.89930 -0.12300
H 	H 	0.86000 0.72660 0.82590 0.03900
Sm	Sm	0.09075 0.50730 0.05584 2.26600
O 	O 	0.04770 0.36290 0.01810 -0.53100
O 	O 	0.24330 0.57370 0.20380 -0.55800
O 	O 	0.11280 0.49010 0.16780 -0.59200
C 	C 	0.16820 0.51870 0.21350 0.56900
C 	C 	0.12070 0.52970 0.40080 0.53800
C 	C 	0.13690 0.48330 0.28130 -0.40200
H 	H 	0.07530 0.44910 0.28370 0.16000
C 	C 	0.17650 0.53060 0.34630 -0.38200
H 	H 	0.22920 0.58410 0.34060 0.13600
C 	C 	0.98780 0.35370 0.98260 0.45600
C 	C 	0.92770 0.26580 0.95280 -0.12800
H 	H 	0.93850 0.22190 0.97010 0.08300
C 	C 	0.18140 0.45260 0.32850 0.70800
C 	C 	0.26780 0.46700 0.31170 -1.26700
H 	H 	0.29940 0.51990 0.28870 0.41200
H 	H 	0.29650 0.46800 0.35240 0.39000
H 	H 	0.26250 0.42220 0.28330 0.37400
C 	C 	0.12570 0.36960 0.36540 -1.21000
H 	H 	0.12030 0.32350 0.33870 0.35100
H 	H 	0.15080 0.37010 0.40780 0.37200
H 	H 	0.07090 0.36310 0.37270 0.38000
C 	C 	0.83830 0.23020 0.92440 -0.13500
H 	H 	0.80400 0.16870 0.92750 -0.04900
O 	O 	0.81320 0.35010 0.90850 -0.66500
O 	O 	0.70990 0.22740 0.93820 -0.66200
C 	C 	0.78740 0.27420 0.92640 0.53200
C 	C 	0.92070 0.19550 0.83670 -1.00200
H 	H 	0.88910 0.14200 0.85890 0.25300
H 	H 	0.89810 0.19220 0.79260 0.26000
H 	H 	0.97870 0.21000 0.83320 0.26900
O 	O 	0.97760 0.41570 0.96810 -0.66400
O 	O 	0.15380 0.57970 0.45010 -0.57000
O 	O 	0.04280 0.47750 0.39490 -0.58100
C 	C 	0.91490 0.26110 0.87620 0.07900
C 	C 	0.94830 0.33930 0.83230 -0.11400
H 	H 	0.00210 0.35250 0.81400 -0.01100
H 	H 	0.90940 0.32890 0.79620 -0.02900
H 	H 	0.95450 0.38590 0.85880 -0.06200
C 	C 	0.90480 0.23720 0.89070 0.40500
C 	C 	0.94170 0.30270 0.83650 -0.54200
H 	H 	0.00200 0.33390 0.84090 0.19400
H 	H 	0.92680 0.27570 0.79330 0.18000
H 	H 	0.91990 0.34050 0.84050 0.28300
C 	C 	0.93010 0.26990 0.95940 -0.14400
H 	H 	0.93320 0.22800 0.98800 -0.00800
C 	C 	0.83990 0.23630 0.93410 -0.18900
H 	H 	0.80470 0.17890 0.95140 0.14400
C 	C 	0.90140 0.15930 0.86530 0.07800
H 	H 	0.95740 0.17120 0.85430 0.02400
H 	H 	0.87820 0.11650 0.89930 -0.12300
H 	H 	0.86660 0.14000 0.82590 0.03900
Sm	Sm	0.41655 0.90925 0.05584 2.26600
O 	O 	0.31520 0.95230 0.01810 -0.53300
O 	O 	0.33040 0.75670 0.20380 -0.55800
O 	O 	0.37730 0.88720 0.16780 -0.59200
C 	C 	0.35050 0.83180 0.21350 0.56900
C 	C 	0.40900 0.87930 0.40080 0.53800
C 	C 	0.34640 0.86310 0.28130 -0.40200
H 	H 	0.37380 0.92470 0.28370 0.16000
C 	C 	0.35410 0.82350 0.34630 -0.38200
H 	H 	0.35490 0.77080 0.34060 0.13600
C 	C 	0.36590 0.01220 0.98260 0.45900
C 	C 	0.33810 0.07230 0.95280 -0.12800
H 	H 	0.28340 0.06150 0.97010 0.08600
C 	C 	0.27120 0.81860 0.32850 0.70800
C 	C 	0.19920 0.73220 0.31170 -1.26600
H 	H 	0.22050 0.70060 0.28870 0.41200
H 	H 	0.17150 0.70350 0.35240 0.38900
H 	H 	0.15970 0.73750 0.28330 0.37300
C 	C 	0.24390 0.87430 0.36540 -1.21000
H 	H 	0.20320 0.87970 0.33870 0.35100
H 	H 	0.21930 0.84920 0.40780 0.37200
H 	H 	0.29220 0.92910 0.37270 0.38000
C 	C 	0.39190 0.16170 0.92440 -0.13400
H 	H 	0.36470 0.19600 0.92750 -0.04900
O 	O 	0.53690 0.18680 0.90850 -0.66500
O 	O 	0.51750 0.29010 0.93820 -0.66200
C 	C 	0.48680 0.21260 0.92640 0.53200
C 	C 	0.27480 0.07930 0.83670 -1.00300
H 	H 	0.25290 0.11090 0.85890 0.25300
H 	H 	0.29410 0.10190 0.79260 0.26000
H 	H 	0.23130 0.02130 0.83320 0.27000
O 	O 	0.43810 0.02240 0.96810 -0.66500
O 	O 	0.42590 0.84620 0.45010 -0.57000
O 	O 	0.43470 0.95720 0.39490 -0.58100
C 	C 	0.34620 0.08510 0.87620 0.07900
C 	C 	0.39100 0.05170 0.83230 -0.11400
H 	H 	0.35040 0.99790 0.81400 -0.01200
H 	H 	0.41950 0.09060 0.79620 -0.02900
H 	H 	0.43140 0.04550 0.85880 -0.06200
C 	C 	0.33240 0.09520 0.89070 0.40500
C 	C 	0.36100 0.05830 0.83650 -0.54200
H 	H 	0.33190 0.99800 0.84090 0.19400
H 	H 	0.34890 0.07320 0.79330 0.18000
H 	H 	0.42060 0.08010 0.84050 0.28300
C 	C 	0.33980 0.06990 0.95940 -0.14400
H 	H 	0.29480 0.06680 0.98800 -0.01000
C 	C 	0.39640 0.16010 0.93410 -0.18900
H 	H 	0.37420 0.19530 0.95140 0.14500
C 	C 	0.25790 0.09860 0.86530 0.07800
H 	H 	0.21380 0.04260 0.85430 0.02400
H 	H 	0.23830 0.12180 0.89930 -0.12300
H 	H 	0.27340 0.13340 0.82590 0.04000
Sm	Sm	0.33333 0.66667 0.61872 2.03200
Sm	Sm	0.66667 0.33333 0.88128 2.03200
Sm	Sm	0.66667 0.33333 0.38128 2.03200
Sm	Sm	0.33333 0.66667 0.11872 2.03200
