data_crystal

_cell_length_a 18.17120
_cell_length_b 18.17120
_cell_length_c 19.75810
_cell_angle_alpha 90.00000
_cell_angle_beta  90.00000
_cell_angle_gamma 120.00000

_symmetry_space_group_name_	'P 1'
_symmetry_space_group_name_H-M	'P 1'

loop_
_symmetry_equiv_pos_as_xyz
  x,y,z

loop_
_atom_site_label
_atom_site_type_symbol
_atom_site_fract_x
_atom_site_fract_y
_atom_site_fract_z
_atom_site_charge
Tb	Tb	0.58274 0.49181 0.55565 2.08900
O 	O 	0.67016 0.42537 0.70240 -0.54000
O 	O 	0.68356 0.63493 0.51999 -0.51200
C 	C 	0.64580 0.46890 0.84601 -0.40900
H 	H 	0.64520 0.41500 0.84090 0.14700
C 	C 	0.65280 0.51600 0.78056 -0.42700
H 	H 	0.62460 0.55000 0.78290 0.17000
C 	C 	0.72860 0.54790 0.82787 0.81400
C 	C 	0.64850 0.47980 0.71213 0.56500
C 	C 	0.63360 0.64540 0.48285 0.45200
C 	C 	0.59010 0.47110 0.90066 0.53800
C 	C 	0.66290 0.73190 0.45210 -0.11200
H 	H 	0.71810 0.77610 0.46920 0.06900
C 	C 	0.60790 0.76690 0.42420 -0.11200
H 	H 	0.63640 0.82900 0.42700 0.01400
C 	C 	0.80130 0.53410 0.81150 -1.40800
H 	H 	0.82720 0.53030 0.85270 0.43300
H 	H 	0.84260 0.58100 0.78500 0.41700
H 	H 	0.78090 0.48240 0.78620 0.45800
C 	C 	0.65280 0.73640 0.37440 0.07400
C 	C 	0.75600 0.63100 0.86350 -1.37500
H 	H 	0.70700 0.63600 0.87340 0.43600
H 	H 	0.79410 0.67720 0.83490 0.40100
H 	H 	0.78440 0.63270 0.90490 0.42300
C 	C 	0.60580 0.65620 0.33230 -0.20000
H 	H 	0.56910 0.66240 0.30070 -0.11200
H 	H 	0.57250 0.60870 0.36150 0.00500
H 	H 	0.64600 0.64670 0.30800 0.04500
C 	C 	0.72940 0.80810 0.33960 -0.98700
H 	H 	0.75720 0.78510 0.31280 0.27900
H 	H 	0.76820 0.84590 0.37310 0.38600
H 	H 	0.71130 0.83870 0.31090 0.35300
O 	O 	0.62191 0.50929 0.66659 -0.57100
O 	O 	0.48166 0.77365 0.43867 -0.62400
C 	C 	0.51230 0.72600 0.42735 0.51800
O 	O 	0.46221 0.64998 0.40949 -0.63700
O 	O 	0.57266 0.42032 0.95052 -0.54700
O 	O 	0.56433 0.52293 0.89473 -0.56500
O 	O 	0.56107 0.58299 0.46871 -0.63700
C 	C 	0.66080 0.73130 0.46150 -0.17000
H 	H 	0.70840 0.77300 0.48890 0.01000
C 	C 	0.60410 0.76630 0.43670 -0.20200
H 	H 	0.62700 0.82500 0.45210 0.08800
C 	C 	0.66690 0.76040 0.38940 0.42800
C 	C 	0.63510 0.69150 0.33620 -0.63200
H 	H 	0.65410 0.65220 0.34680 0.21200
H 	H 	0.65670 0.71650 0.29270 0.20400
H 	H 	0.57410 0.66190 0.33520 0.38100
C 	C 	0.74350 0.84270 0.36780 -0.02300
H 	H 	0.75990 0.88350 0.40370 -0.09800
H 	H 	0.72970 0.86400 0.32820 -0.07900
H 	H 	0.78960 0.83300 0.35770 -0.04800
Tb	Tb	0.50819 0.09093 0.55565 2.08800
O 	O 	0.57463 0.24479 0.70240 -0.54100
O 	O 	0.36507 0.04863 0.51999 -0.51300
C 	C 	0.53110 0.17690 0.84601 -0.41000
H 	H 	0.58500 0.23020 0.84090 0.14600
C 	C 	0.48400 0.13680 0.78056 -0.42800
H 	H 	0.45000 0.07460 0.78290 0.17000
C 	C 	0.45210 0.18070 0.82787 0.81300
C 	C 	0.52020 0.16870 0.71213 0.56500
C 	C 	0.35460 0.98820 0.48285 0.45200
C 	C 	0.52890 0.11900 0.90066 0.53800
C 	C 	0.26810 0.93100 0.45210 -0.11300
H 	H 	0.22390 0.94200 0.46920 0.06500
C 	C 	0.23310 0.84100 0.42420 -0.11200
H 	H 	0.17100 0.80740 0.42700 0.01400
C 	C 	0.46590 0.26720 0.81150 -1.40800
H 	H 	0.46970 0.29690 0.85270 0.43300
H 	H 	0.41900 0.26160 0.78500 0.41700
H 	H 	0.51760 0.29850 0.78620 0.45800
C 	C 	0.26360 0.91640 0.37440 0.07500
C 	C 	0.36900 0.12500 0.86350 -1.37700
H 	H 	0.36400 0.07100 0.87340 0.43700
H 	H 	0.32280 0.11690 0.83490 0.40200
H 	H 	0.36730 0.15170 0.90490 0.42400
C 	C 	0.34380 0.94960 0.33230 -0.20000
H 	H 	0.33760 0.90670 0.30070 -0.11200
H 	H 	0.39130 0.96380 0.36150 0.00500
H 	H 	0.35330 0.99930 0.30800 0.04600
C 	C 	0.19190 0.92130 0.33960 -0.98700
H 	H 	0.21490 0.97210 0.31280 0.27900
H 	H 	0.15410 0.92230 0.37310 0.38700
H 	H 	0.16130 0.87260 0.31090 0.35300
O 	O 	0.49071 0.11262 0.66659 -0.57100
O 	O 	0.22635 0.70801 0.43867 -0.62400
C 	C 	0.27400 0.78630 0.42735 0.51900
O 	O 	0.35002 0.81223 0.40949 -0.63700
O 	O 	0.57968 0.15234 0.95052 -0.54600
O 	O 	0.47707 0.04140 0.89473 -0.56300
O 	O 	0.41701 0.97808 0.46871 -0.63700
C 	C 	0.26870 0.92950 0.46150 -0.16900
H 	H 	0.22700 0.93540 0.48890 0.01400
C 	C 	0.23370 0.83780 0.43670 -0.20200
H 	H 	0.17500 0.80200 0.45210 0.08800
C 	C 	0.23960 0.90650 0.38940 0.42700
C 	C 	0.30850 0.94360 0.33620 -0.63100
H 	H 	0.34780 0.00190 0.34680 0.21100
H 	H 	0.28350 0.94020 0.29270 0.20400
H 	H 	0.33810 0.91220 0.33520 0.38000
C 	C 	0.15730 0.90080 0.36780 -0.02300
H 	H 	0.11650 0.87640 0.40370 -0.09800
H 	H 	0.13600 0.86570 0.32820 -0.07900
H 	H 	0.16700 0.95660 0.35770 -0.04800
Tb	Tb	0.90907 0.41726 0.55565 2.08800
O 	O 	0.75521 0.32984 0.70240 -0.54100
O 	O 	0.95137 0.31644 0.51999 -0.51300
C 	C 	0.82310 0.35420 0.84601 -0.41000
H 	H 	0.76980 0.35480 0.84090 0.14700
C 	C 	0.86320 0.34720 0.78056 -0.42900
H 	H 	0.92540 0.37540 0.78290 0.17000
C 	C 	0.81930 0.27140 0.82787 0.81400
C 	C 	0.83130 0.35150 0.71213 0.56500
C 	C 	0.01180 0.36640 0.48285 0.45200
C 	C 	0.88100 0.40990 0.90066 0.53800
C 	C 	0.06900 0.33710 0.45210 -0.11300
H 	H 	0.05800 0.28190 0.46920 0.06500
C 	C 	0.15900 0.39210 0.42420 -0.11200
H 	H 	0.19260 0.36360 0.42700 0.01400
C 	C 	0.73280 0.19870 0.81150 -1.40900
H 	H 	0.70310 0.17280 0.85270 0.43400
H 	H 	0.73840 0.15740 0.78500 0.41800
H 	H 	0.70150 0.21910 0.78620 0.45800
C 	C 	0.08360 0.34720 0.37440 0.07500
C 	C 	0.87500 0.24400 0.86350 -1.37800
H 	H 	0.92900 0.29300 0.87340 0.43700
H 	H 	0.88310 0.20590 0.83490 0.40300
H 	H 	0.84830 0.21560 0.90490 0.42500
C 	C 	0.05040 0.39420 0.33230 -0.20000
H 	H 	0.09330 0.43090 0.30070 -0.11200
H 	H 	0.03620 0.42750 0.36150 0.00500
H 	H 	0.00070 0.35400 0.30800 0.04600
C 	C 	0.07870 0.27060 0.33960 -0.98700
H 	H 	0.02790 0.24280 0.31280 0.27900
H 	H 	0.07770 0.23180 0.37310 0.38700
H 	H 	0.12740 0.28870 0.31090 0.35300
O 	O 	0.88738 0.37809 0.66659 -0.57100
O 	O 	0.29199 0.51834 0.43867 -0.62400
C 	C 	0.21370 0.48770 0.42735 0.51800
O 	O 	0.18777 0.53779 0.40949 -0.63700
O 	O 	0.84766 0.42734 0.95052 -0.54600
O 	O 	0.95860 0.43567 0.89473 -0.56300
O 	O 	0.02192 0.43893 0.46871 -0.63700
C 	C 	0.07050 0.33920 0.46150 -0.16900
H 	H 	0.06460 0.29160 0.48890 0.01400
C 	C 	0.16220 0.39590 0.43670 -0.20200
H 	H 	0.19800 0.37300 0.45210 0.08800
C 	C 	0.09350 0.33310 0.38940 0.42700
C 	C 	0.05640 0.36490 0.33620 -0.63100
H 	H 	0.99810 0.34590 0.34680 0.21100
H 	H 	0.05980 0.34330 0.29270 0.20400
H 	H 	0.08780 0.42590 0.33520 0.38000
C 	C 	0.09920 0.25650 0.36780 -0.02300
H 	H 	0.12360 0.24010 0.40370 -0.09800
H 	H 	0.13430 0.27030 0.32820 -0.07900
H 	H 	0.04340 0.21040 0.35770 -0.04800
Tb	Tb	0.49181 0.58274 0.94435 2.08800
O 	O 	0.42537 0.67016 0.79760 -0.54100
O 	O 	0.63493 0.68356 0.98001 -0.51300
C 	C 	0.46890 0.64580 0.65399 -0.41000
H 	H 	0.41500 0.64520 0.65910 0.14600
C 	C 	0.51600 0.65280 0.71944 -0.42800
H 	H 	0.55000 0.62460 0.71710 0.16900
C 	C 	0.54790 0.72860 0.67213 0.81200
C 	C 	0.47980 0.64850 0.78787 0.56500
C 	C 	0.64540 0.63360 0.01715 0.45200
C 	C 	0.47110 0.59010 0.59934 0.53800
C 	C 	0.73190 0.66290 0.04790 -0.11300
H 	H 	0.77610 0.71810 0.03080 0.06600
C 	C 	0.76690 0.60790 0.07580 -0.11200
H 	H 	0.82900 0.63640 0.07300 0.01400
C 	C 	0.53410 0.80130 0.68850 -1.40600
H 	H 	0.53030 0.82720 0.64730 0.43300
H 	H 	0.58100 0.84260 0.71500 0.41700
H 	H 	0.48240 0.78090 0.71380 0.45700
C 	C 	0.73640 0.65280 0.12560 0.07500
C 	C 	0.63100 0.75600 0.63650 -1.37400
H 	H 	0.63600 0.70700 0.62660 0.43500
H 	H 	0.67720 0.79410 0.66510 0.40100
H 	H 	0.63270 0.78440 0.59510 0.42300
C 	C 	0.65620 0.60580 0.16770 -0.20100
H 	H 	0.66240 0.56910 0.19930 -0.11200
H 	H 	0.60870 0.57250 0.13850 0.00500
H 	H 	0.64670 0.64600 0.19200 0.04500
C 	C 	0.80810 0.72940 0.16040 -0.98700
H 	H 	0.78510 0.75720 0.18720 0.27900
H 	H 	0.84590 0.76820 0.12690 0.38600
H 	H 	0.83870 0.71130 0.18910 0.35300
O 	O 	0.50929 0.62191 0.83341 -0.57100
O 	O 	0.77365 0.48166 0.06133 -0.62400
C 	C 	0.72600 0.51230 0.07265 0.51800
O 	O 	0.64998 0.46221 0.09051 -0.63700
O 	O 	0.42032 0.57266 0.54948 -0.54800
O 	O 	0.52293 0.56433 0.60527 -0.56500
O 	O 	0.58299 0.56107 0.03129 -0.63700
C 	C 	0.73130 0.66080 0.03850 -0.16900
H 	H 	0.77300 0.70840 0.01110 0.01300
C 	C 	0.76630 0.60410 0.06330 -0.20200
H 	H 	0.82500 0.62700 0.04790 0.08800
C 	C 	0.76040 0.66690 0.11060 0.42800
C 	C 	0.69150 0.63510 0.16380 -0.63300
H 	H 	0.65220 0.65410 0.15320 0.21200
H 	H 	0.71650 0.65670 0.20730 0.20400
H 	H 	0.66190 0.57410 0.16480 0.38100
C 	C 	0.84270 0.74350 0.13220 -0.02300
H 	H 	0.88350 0.75990 0.09630 -0.09800
H 	H 	0.86400 0.72970 0.17180 -0.07900
H 	H 	0.83300 0.78960 0.14230 -0.04800
Tb	Tb	0.09093 0.50819 0.94435 2.08500
O 	O 	0.24479 0.57463 0.79760 -0.54100
O 	O 	0.04863 0.36507 0.98001 -0.51200
C 	C 	0.17690 0.53110 0.65399 -0.41000
H 	H 	0.23020 0.58500 0.65910 0.14600
C 	C 	0.13680 0.48400 0.71944 -0.42800
H 	H 	0.07460 0.45000 0.71710 0.16900
C 	C 	0.18070 0.45210 0.67213 0.81200
C 	C 	0.16870 0.52020 0.78787 0.56500
C 	C 	0.98820 0.35460 0.01715 0.45000
C 	C 	0.11900 0.52890 0.59934 0.53800
C 	C 	0.93100 0.26810 0.04790 -0.11300
H 	H 	0.94200 0.22390 0.03080 0.05900
C 	C 	0.84100 0.23310 0.07580 -0.11200
H 	H 	0.80740 0.17100 0.07300 0.01500
C 	C 	0.26720 0.46590 0.68850 -1.40600
H 	H 	0.29690 0.46970 0.64730 0.43300
H 	H 	0.26160 0.41900 0.71500 0.41700
H 	H 	0.29850 0.51760 0.71380 0.45700
C 	C 	0.91640 0.26360 0.12560 0.07400
C 	C 	0.12500 0.36900 0.63650 -1.37300
H 	H 	0.07100 0.36400 0.62660 0.43500
H 	H 	0.11690 0.32280 0.66510 0.40100
H 	H 	0.15170 0.36730 0.59510 0.42200
C 	C 	0.94960 0.34380 0.16770 -0.20300
H 	H 	0.90670 0.33760 0.19930 -0.11300
H 	H 	0.96380 0.39130 0.13850 0.00400
H 	H 	0.99930 0.35330 0.19200 0.04400
C 	C 	0.92130 0.19190 0.16040 -0.98900
H 	H 	0.97210 0.21490 0.18720 0.27900
H 	H 	0.92230 0.15410 0.12690 0.38700
H 	H 	0.87260 0.16130 0.18910 0.35300
O 	O 	0.11262 0.49071 0.83341 -0.57100
O 	O 	0.70801 0.22635 0.06133 -0.62400
C 	C 	0.78630 0.27400 0.07265 0.51800
O 	O 	0.81223 0.35002 0.09051 -0.63700
O 	O 	0.15234 0.57968 0.54948 -0.54800
O 	O 	0.04140 0.47707 0.60527 -0.56500
O 	O 	0.97808 0.41701 0.03129 -0.63700
C 	C 	0.92950 0.26870 0.03850 -0.16800
H 	H 	0.93540 0.22700 0.01110 0.01900
C 	C 	0.83780 0.23370 0.06330 -0.20300
H 	H 	0.80200 0.17500 0.04790 0.08700
C 	C 	0.90650 0.23960 0.11060 0.43100
C 	C 	0.94360 0.30850 0.16380 -0.63700
H 	H 	0.00190 0.34780 0.15320 0.21700
H 	H 	0.94020 0.28350 0.20730 0.20600
H 	H 	0.91220 0.33810 0.16480 0.38500
C 	C 	0.90080 0.15730 0.13220 -0.02300
H 	H 	0.87640 0.11650 0.09630 -0.09900
H 	H 	0.86570 0.13600 0.17180 -0.08000
H 	H 	0.95660 0.16700 0.14230 -0.04800
Tb	Tb	0.41726 0.90907 0.94435 2.08500
O 	O 	0.32984 0.75521 0.79760 -0.54100
O 	O 	0.31644 0.95137 0.98001 -0.51400
C 	C 	0.35420 0.82310 0.65399 -0.41000
H 	H 	0.35480 0.76980 0.65910 0.14600
C 	C 	0.34720 0.86320 0.71944 -0.42800
H 	H 	0.37540 0.92540 0.71710 0.16900
C 	C 	0.27140 0.81930 0.67213 0.81100
C 	C 	0.35150 0.83130 0.78787 0.56500
C 	C 	0.36640 0.01180 0.01715 0.45300
C 	C 	0.40990 0.88100 0.59934 0.53800
C 	C 	0.33710 0.06900 0.04790 -0.11200
H 	H 	0.28190 0.05800 0.03080 0.07300
C 	C 	0.39210 0.15900 0.07580 -0.11200
H 	H 	0.36360 0.19260 0.07300 0.01400
C 	C 	0.19870 0.73280 0.68850 -1.40600
H 	H 	0.17280 0.70310 0.64730 0.43200
H 	H 	0.15740 0.73840 0.71500 0.41600
H 	H 	0.21910 0.70150 0.71380 0.45700
C 	C 	0.34720 0.08360 0.12560 0.07300
C 	C 	0.24400 0.87500 0.63650 -1.37300
H 	H 	0.29300 0.92900 0.62660 0.43500
H 	H 	0.20590 0.88310 0.66510 0.40000
H 	H 	0.21560 0.84830 0.59510 0.42200
C 	C 	0.39420 0.05040 0.16770 -0.20200
H 	H 	0.43090 0.09330 0.19930 -0.11300
H 	H 	0.42750 0.03620 0.13850 0.00400
H 	H 	0.35400 0.00070 0.19200 0.04400
C 	C 	0.27060 0.07870 0.16040 -0.98800
H 	H 	0.24280 0.02790 0.18720 0.27900
H 	H 	0.23180 0.07770 0.12690 0.38600
H 	H 	0.28870 0.12740 0.18910 0.35300
O 	O 	0.37809 0.88738 0.83341 -0.57100
O 	O 	0.51834 0.29199 0.06133 -0.62400
C 	C 	0.48770 0.21370 0.07265 0.51800
O 	O 	0.53779 0.18777 0.09051 -0.63700
O 	O 	0.42734 0.84766 0.54948 -0.54800
O 	O 	0.43567 0.95860 0.60527 -0.56500
O 	O 	0.43893 0.02192 0.03129 -0.63700
C 	C 	0.33920 0.07050 0.03850 -0.17100
H 	H 	0.29160 0.06460 0.01110 0.00600
C 	C 	0.39590 0.16220 0.06330 -0.20200
H 	H 	0.37300 0.19800 0.04790 0.08800
C 	C 	0.33310 0.09350 0.11060 0.43000
C 	C 	0.36490 0.05640 0.16380 -0.63600
H 	H 	0.34590 0.99810 0.15320 0.21600
H 	H 	0.34330 0.05980 0.20730 0.20500
H 	H 	0.42590 0.08780 0.16480 0.38400
C 	C 	0.25650 0.09920 0.13220 -0.02300
H 	H 	0.24010 0.12360 0.09630 -0.09800
H 	H 	0.27030 0.13430 0.17180 -0.07900
H 	H 	0.21040 0.04340 0.14230 -0.04800
Tb	Tb	0.41726 0.50819 0.44435 2.08800
O 	O 	0.32984 0.57463 0.29760 -0.54100
O 	O 	0.31644 0.36507 0.48001 -0.51300
C 	C 	0.35420 0.53110 0.15399 -0.41000
H 	H 	0.35480 0.58500 0.15910 0.14600
C 	C 	0.34720 0.48400 0.21944 -0.42800
H 	H 	0.37540 0.45000 0.21710 0.16900
C 	C 	0.27140 0.45210 0.17213 0.81300
C 	C 	0.35150 0.52020 0.28787 0.56500
C 	C 	0.36640 0.35460 0.51715 0.45200
C 	C 	0.40990 0.52890 0.09934 0.53800
C 	C 	0.33710 0.26810 0.54790 -0.11200
H 	H 	0.28190 0.22390 0.53080 0.06900
C 	C 	0.39210 0.23310 0.57580 -0.11200
H 	H 	0.36360 0.17100 0.57300 0.01400
C 	C 	0.19870 0.46590 0.18850 -1.40800
H 	H 	0.17280 0.46970 0.14730 0.43300
H 	H 	0.15740 0.41900 0.21500 0.41700
H 	H 	0.21910 0.51760 0.21380 0.45800
C 	C 	0.34720 0.26360 0.62560 0.07400
C 	C 	0.24400 0.36900 0.13650 -1.37500
H 	H 	0.29300 0.36400 0.12660 0.43600
H 	H 	0.20590 0.32280 0.16510 0.40100
H 	H 	0.21560 0.36730 0.09510 0.42300
C 	C 	0.39420 0.34380 0.66770 -0.20000
H 	H 	0.43090 0.33760 0.69930 -0.11200
H 	H 	0.42750 0.39130 0.63850 0.00500
H 	H 	0.35400 0.35330 0.69200 0.04500
C 	C 	0.27060 0.19190 0.66040 -0.98700
H 	H 	0.24280 0.21490 0.68720 0.27900
H 	H 	0.23180 0.15410 0.62690 0.38600
H 	H 	0.28870 0.16130 0.68910 0.35300
O 	O 	0.37809 0.49071 0.33341 -0.57100
O 	O 	0.51834 0.22635 0.56133 -0.62400
C 	C 	0.48770 0.27400 0.57265 0.51800
O 	O 	0.53779 0.35002 0.59051 -0.63700
O 	O 	0.42734 0.57968 0.04948 -0.54700
O 	O 	0.43567 0.47707 0.10527 -0.56500
O 	O 	0.43893 0.41701 0.53129 -0.63700
C 	C 	0.33920 0.26870 0.53850 -0.17000
H 	H 	0.29160 0.22700 0.51110 0.01000
C 	C 	0.39590 0.23370 0.56330 -0.20200
H 	H 	0.37300 0.17500 0.54790 0.08800
C 	C 	0.33310 0.23960 0.61060 0.42800
C 	C 	0.36490 0.30850 0.66380 -0.63200
H 	H 	0.34590 0.34780 0.65320 0.21200
H 	H 	0.34330 0.28350 0.70730 0.20400
H 	H 	0.42590 0.33810 0.66480 0.38100
C 	C 	0.25650 0.15730 0.63220 -0.02300
H 	H 	0.24010 0.11650 0.59630 -0.09800
H 	H 	0.27030 0.13600 0.67180 -0.07900
H 	H 	0.21040 0.16700 0.64230 -0.04800
Tb	Tb	0.49181 0.90907 0.44435 2.08800
O 	O 	0.42537 0.75521 0.29760 -0.54100
O 	O 	0.63493 0.95137 0.48001 -0.51300
C 	C 	0.46890 0.82310 0.15399 -0.41000
H 	H 	0.41500 0.76980 0.15910 0.14600
C 	C 	0.51600 0.86320 0.21944 -0.42800
H 	H 	0.55000 0.92540 0.21710 0.17000
C 	C 	0.54790 0.81930 0.17213 0.81300
C 	C 	0.47980 0.83130 0.28787 0.56500
C 	C 	0.64540 0.01180 0.51715 0.45200
C 	C 	0.47110 0.88100 0.09934 0.53800
C 	C 	0.73190 0.06900 0.54790 -0.11300
H 	H 	0.77610 0.05800 0.53080 0.06500
C 	C 	0.76690 0.15900 0.57580 -0.11200
H 	H 	0.82900 0.19260 0.57300 0.01400
C 	C 	0.53410 0.73280 0.18850 -1.40800
H 	H 	0.53030 0.70310 0.14730 0.43300
H 	H 	0.58100 0.73840 0.21500 0.41700
H 	H 	0.48240 0.70150 0.21380 0.45800
C 	C 	0.73640 0.08360 0.62560 0.07500
C 	C 	0.63100 0.87500 0.13650 -1.37700
H 	H 	0.63600 0.92900 0.12660 0.43700
H 	H 	0.67720 0.88310 0.16510 0.40200
H 	H 	0.63270 0.84830 0.09510 0.42400
C 	C 	0.65620 0.05040 0.66770 -0.20000
H 	H 	0.66240 0.09330 0.69930 -0.11200
H 	H 	0.60870 0.03620 0.63850 0.00500
H 	H 	0.64670 0.00070 0.69200 0.04600
C 	C 	0.80810 0.07870 0.66040 -0.98700
H 	H 	0.78510 0.02790 0.68720 0.27900
H 	H 	0.84590 0.07770 0.62690 0.38700
H 	H 	0.83870 0.12740 0.68910 0.35300
O 	O 	0.50929 0.88738 0.33341 -0.57100
O 	O 	0.77365 0.29199 0.56133 -0.62400
C 	C 	0.72600 0.21370 0.57265 0.51900
O 	O 	0.64998 0.18777 0.59051 -0.63700
O 	O 	0.42032 0.84766 0.04948 -0.54600
O 	O 	0.52293 0.95860 0.10527 -0.56300
O 	O 	0.58299 0.02192 0.53129 -0.63700
C 	C 	0.73130 0.07050 0.53850 -0.16900
H 	H 	0.77300 0.06460 0.51110 0.01400
C 	C 	0.76630 0.16220 0.56330 -0.20200
H 	H 	0.82500 0.19800 0.54790 0.08800
C 	C 	0.76040 0.09350 0.61060 0.42700
C 	C 	0.69150 0.05640 0.66380 -0.63100
H 	H 	0.65220 0.99810 0.65320 0.21100
H 	H 	0.71650 0.05980 0.70730 0.20400
H 	H 	0.66190 0.08780 0.66480 0.38000
C 	C 	0.84270 0.09920 0.63220 -0.02300
H 	H 	0.88350 0.12360 0.59630 -0.09800
H 	H 	0.86400 0.13430 0.67180 -0.07900
H 	H 	0.83300 0.04340 0.64230 -0.04800
Tb	Tb	0.09093 0.58274 0.44435 2.08800
O 	O 	0.24479 0.67016 0.29760 -0.54100
O 	O 	0.04863 0.68356 0.48001 -0.51300
C 	C 	0.17690 0.64580 0.15399 -0.41000
H 	H 	0.23020 0.64520 0.15910 0.14700
C 	C 	0.13680 0.65280 0.21944 -0.42900
H 	H 	0.07460 0.62460 0.21710 0.17000
C 	C 	0.18070 0.72860 0.17213 0.81400
C 	C 	0.16870 0.64850 0.28787 0.56500
C 	C 	0.98820 0.63360 0.51715 0.45200
C 	C 	0.11900 0.59010 0.09934 0.53800
C 	C 	0.93100 0.66290 0.54790 -0.11300
H 	H 	0.94200 0.71810 0.53080 0.06500
C 	C 	0.84100 0.60790 0.57580 -0.11200
H 	H 	0.80740 0.63640 0.57300 0.01400
C 	C 	0.26720 0.80130 0.18850 -1.40900
H 	H 	0.29690 0.82720 0.14730 0.43400
H 	H 	0.26160 0.84260 0.21500 0.41800
H 	H 	0.29850 0.78090 0.21380 0.45800
C 	C 	0.91640 0.65280 0.62560 0.07500
C 	C 	0.12500 0.75600 0.13650 -1.37800
H 	H 	0.07100 0.70700 0.12660 0.43700
H 	H 	0.11690 0.79410 0.16510 0.40300
H 	H 	0.15170 0.78440 0.09510 0.42500
C 	C 	0.94960 0.60580 0.66770 -0.20000
H 	H 	0.90670 0.56910 0.69930 -0.11200
H 	H 	0.96380 0.57250 0.63850 0.00500
H 	H 	0.99930 0.64600 0.69200 0.04600
C 	C 	0.92130 0.72940 0.66040 -0.98700
H 	H 	0.97210 0.75720 0.68720 0.27900
H 	H 	0.92230 0.76820 0.62690 0.38700
H 	H 	0.87260 0.71130 0.68910 0.35300
O 	O 	0.11262 0.62191 0.33341 -0.57100
O 	O 	0.70801 0.48166 0.56133 -0.62400
C 	C 	0.78630 0.51230 0.57265 0.51800
O 	O 	0.81223 0.46221 0.59051 -0.63700
O 	O 	0.15234 0.57266 0.04948 -0.54600
O 	O 	0.04140 0.56433 0.10527 -0.56300
O 	O 	0.97808 0.56107 0.53129 -0.63700
C 	C 	0.92950 0.66080 0.53850 -0.16900
H 	H 	0.93540 0.70840 0.51110 0.01400
C 	C 	0.83780 0.60410 0.56330 -0.20200
H 	H 	0.80200 0.62700 0.54790 0.08800
C 	C 	0.90650 0.66690 0.61060 0.42700
C 	C 	0.94360 0.63510 0.66380 -0.63100
H 	H 	0.00190 0.65410 0.65320 0.21100
H 	H 	0.94020 0.65670 0.70730 0.20400
H 	H 	0.91220 0.57410 0.66480 0.38000
C 	C 	0.90080 0.74350 0.63220 -0.02300
H 	H 	0.87640 0.75990 0.59630 -0.09800
H 	H 	0.86570 0.72970 0.67180 -0.07900
H 	H 	0.95660 0.78960 0.64230 -0.04800
Tb	Tb	0.50819 0.41726 0.05565 2.08800
O 	O 	0.57463 0.32984 0.20240 -0.54100
O 	O 	0.36507 0.31644 0.01999 -0.51300
C 	C 	0.53110 0.35420 0.34601 -0.41000
H 	H 	0.58500 0.35480 0.34090 0.14600
C 	C 	0.48400 0.34720 0.28056 -0.42800
H 	H 	0.45000 0.37540 0.28290 0.16900
C 	C 	0.45210 0.27140 0.32787 0.81200
C 	C 	0.52020 0.35150 0.21213 0.56500
C 	C 	0.35460 0.36640 0.98285 0.45200
C 	C 	0.52890 0.40990 0.40066 0.53800
C 	C 	0.26810 0.33710 0.95210 -0.11300
H 	H 	0.22390 0.28190 0.96920 0.06600
C 	C 	0.23310 0.39210 0.92420 -0.11200
H 	H 	0.17100 0.36360 0.92700 0.01400
C 	C 	0.46590 0.19870 0.31150 -1.40600
H 	H 	0.46970 0.17280 0.35270 0.43300
H 	H 	0.41900 0.15740 0.28500 0.41700
H 	H 	0.51760 0.21910 0.28620 0.45700
C 	C 	0.26360 0.34720 0.87440 0.07500
C 	C 	0.36900 0.24400 0.36350 -1.37400
H 	H 	0.36400 0.29300 0.37340 0.43500
H 	H 	0.32280 0.20590 0.33490 0.40100
H 	H 	0.36730 0.21560 0.40490 0.42300
C 	C 	0.34380 0.39420 0.83230 -0.20100
H 	H 	0.33760 0.43090 0.80070 -0.11200
H 	H 	0.39130 0.42750 0.86150 0.00500
H 	H 	0.35330 0.35400 0.80800 0.04500
C 	C 	0.19190 0.27060 0.83960 -0.98700
H 	H 	0.21490 0.24280 0.81280 0.27900
H 	H 	0.15410 0.23180 0.87310 0.38600
H 	H 	0.16130 0.28870 0.81090 0.35300
O 	O 	0.49071 0.37809 0.16659 -0.57100
O 	O 	0.22635 0.51834 0.93867 -0.62400
C 	C 	0.27400 0.48770 0.92735 0.51800
O 	O 	0.35002 0.53779 0.90949 -0.63700
O 	O 	0.57968 0.42734 0.45052 -0.54800
O 	O 	0.47707 0.43567 0.39473 -0.56500
O 	O 	0.41701 0.43893 0.96871 -0.63700
C 	C 	0.26870 0.33920 0.96150 -0.16900
H 	H 	0.22700 0.29160 0.98890 0.01300
C 	C 	0.23370 0.39590 0.93670 -0.20200
H 	H 	0.17500 0.37300 0.95210 0.08800
C 	C 	0.23960 0.33310 0.88940 0.42800
C 	C 	0.30850 0.36490 0.83620 -0.63300
H 	H 	0.34780 0.34590 0.84680 0.21200
H 	H 	0.28350 0.34330 0.79270 0.20400
H 	H 	0.33810 0.42590 0.83520 0.38100
C 	C 	0.15730 0.25650 0.86780 -0.02300
H 	H 	0.11650 0.24010 0.90370 -0.09800
H 	H 	0.13600 0.27030 0.82820 -0.07900
H 	H 	0.16700 0.21040 0.85770 -0.04800
Tb	Tb	0.90907 0.49181 0.05565 2.08500
O 	O 	0.75521 0.42537 0.20240 -0.54100
O 	O 	0.95137 0.63493 0.01999 -0.51200
C 	C 	0.82310 0.46890 0.34601 -0.41000
H 	H 	0.76980 0.41500 0.34090 0.14600
C 	C 	0.86320 0.51600 0.28056 -0.42800
H 	H 	0.92540 0.55000 0.28290 0.16900
C 	C 	0.81930 0.54790 0.32787 0.81200
C 	C 	0.83130 0.47980 0.21213 0.56500
C 	C 	0.01180 0.64540 0.98285 0.45000
C 	C 	0.88100 0.47110 0.40066 0.53800
C 	C 	0.06900 0.73190 0.95210 -0.11300
H 	H 	0.05800 0.77610 0.96920 0.05900
C 	C 	0.15900 0.76690 0.92420 -0.11200
H 	H 	0.19260 0.82900 0.92700 0.01500
C 	C 	0.73280 0.53410 0.31150 -1.40600
H 	H 	0.70310 0.53030 0.35270 0.43300
H 	H 	0.73840 0.58100 0.28500 0.41700
H 	H 	0.70150 0.48240 0.28620 0.45700
C 	C 	0.08360 0.73640 0.87440 0.07400
C 	C 	0.87500 0.63100 0.36350 -1.37300
H 	H 	0.92900 0.63600 0.37340 0.43500
H 	H 	0.88310 0.67720 0.33490 0.40100
H 	H 	0.84830 0.63270 0.40490 0.42200
C 	C 	0.05040 0.65620 0.83230 -0.20300
H 	H 	0.09330 0.66240 0.80070 -0.11300
H 	H 	0.03620 0.60870 0.86150 0.00400
H 	H 	0.00070 0.64670 0.80800 0.04400
C 	C 	0.07870 0.80810 0.83960 -0.98900
H 	H 	0.02790 0.78510 0.81280 0.27900
H 	H 	0.07770 0.84590 0.87310 0.38700
H 	H 	0.12740 0.83870 0.81090 0.35300
O 	O 	0.88738 0.50929 0.16659 -0.57100
O 	O 	0.29199 0.77365 0.93867 -0.62400
C 	C 	0.21370 0.72600 0.92735 0.51800
O 	O 	0.18777 0.64998 0.90949 -0.63700
O 	O 	0.84766 0.42032 0.45052 -0.54800
O 	O 	0.95860 0.52293 0.39473 -0.56500
O 	O 	0.02192 0.58299 0.96871 -0.63700
C 	C 	0.07050 0.73130 0.96150 -0.16800
H 	H 	0.06460 0.77300 0.98890 0.01900
C 	C 	0.16220 0.76630 0.93670 -0.20300
H 	H 	0.19800 0.82500 0.95210 0.08700
C 	C 	0.09350 0.76040 0.88940 0.43100
C 	C 	0.05640 0.69150 0.83620 -0.63700
H 	H 	0.99810 0.65220 0.84680 0.21700
H 	H 	0.05980 0.71650 0.79270 0.20600
H 	H 	0.08780 0.66190 0.83520 0.38500
C 	C 	0.09920 0.84270 0.86780 -0.02300
H 	H 	0.12360 0.88350 0.90370 -0.09900
H 	H 	0.13430 0.86400 0.82820 -0.08000
H 	H 	0.04340 0.83300 0.85770 -0.04800
Tb	Tb	0.58274 0.09093 0.05565 2.08500
O 	O 	0.67016 0.24479 0.20240 -0.54100
O 	O 	0.68356 0.04863 0.01999 -0.51400
C 	C 	0.64580 0.17690 0.34601 -0.41000
H 	H 	0.64520 0.23020 0.34090 0.14600
C 	C 	0.65280 0.13680 0.28056 -0.42800
H 	H 	0.62460 0.07460 0.28290 0.16900
C 	C 	0.72860 0.18070 0.32787 0.81100
C 	C 	0.64850 0.16870 0.21213 0.56500
C 	C 	0.63360 0.98820 0.98285 0.45300
C 	C 	0.59010 0.11900 0.40066 0.53800
C 	C 	0.66290 0.93100 0.95210 -0.11200
H 	H 	0.71810 0.94200 0.96920 0.07300
C 	C 	0.60790 0.84100 0.92420 -0.11200
H 	H 	0.63640 0.80740 0.92700 0.01400
C 	C 	0.80130 0.26720 0.31150 -1.40600
H 	H 	0.82720 0.29690 0.35270 0.43200
H 	H 	0.84260 0.26160 0.28500 0.41600
H 	H 	0.78090 0.29850 0.28620 0.45700
C 	C 	0.65280 0.91640 0.87440 0.07300
C 	C 	0.75600 0.12500 0.36350 -1.37300
H 	H 	0.70700 0.07100 0.37340 0.43500
H 	H 	0.79410 0.11690 0.33490 0.40000
H 	H 	0.78440 0.15170 0.40490 0.42200
C 	C 	0.60580 0.94960 0.83230 -0.20200
H 	H 	0.56910 0.90670 0.80070 -0.11300
H 	H 	0.57250 0.96380 0.86150 0.00400
H 	H 	0.64600 0.99930 0.80800 0.04400
C 	C 	0.72940 0.92130 0.83960 -0.98800
H 	H 	0.75720 0.97210 0.81280 0.27900
H 	H 	0.76820 0.92230 0.87310 0.38600
H 	H 	0.71130 0.87260 0.81090 0.35300
O 	O 	0.62191 0.11262 0.16659 -0.57100
O 	O 	0.48166 0.70801 0.93867 -0.62400
C 	C 	0.51230 0.78630 0.92735 0.51800
O 	O 	0.46221 0.81223 0.90949 -0.63700
O 	O 	0.57266 0.15234 0.45052 -0.54800
O 	O 	0.56433 0.04140 0.39473 -0.56500
O 	O 	0.56107 0.97808 0.96871 -0.63700
C 	C 	0.66080 0.92950 0.96150 -0.17100
H 	H 	0.70840 0.93540 0.98890 0.00600
C 	C 	0.60410 0.83780 0.93670 -0.20200
H 	H 	0.62700 0.80200 0.95210 0.08800
C 	C 	0.66690 0.90650 0.88940 0.43000
C 	C 	0.63510 0.94360 0.83620 -0.63600
H 	H 	0.65410 0.00190 0.84680 0.21600
H 	H 	0.65670 0.94020 0.79270 0.20500
H 	H 	0.57410 0.91220 0.83520 0.38400
C 	C 	0.74350 0.90080 0.86780 -0.02300
H 	H 	0.75990 0.87640 0.90370 -0.09800
H 	H 	0.72970 0.86570 0.82820 -0.07900
H 	H 	0.78960 0.95660 0.85770 -0.04800
Tb	Tb	0.66667 0.33333 0.61768 1.87700
Tb	Tb	0.33333 0.66667 0.88232 1.87700
Tb	Tb	0.33333 0.66667 0.38232 1.87700
Tb	Tb	0.66667 0.33333 0.11768 1.87700
