data_crystal

_cell_length_a 18.24510
_cell_length_b 18.24510
_cell_length_c 19.80560
_cell_angle_alpha 90.00000
_cell_angle_beta  90.00000
_cell_angle_gamma 120.00000

_symmetry_space_group_name_	'P 1'
_symmetry_space_group_name_H-M	'P 1'

loop_
_symmetry_equiv_pos_as_xyz
  x,y,z

loop_
_atom_site_label
_atom_site_type_symbol
_atom_site_fract_x
_atom_site_fract_y
_atom_site_fract_z
_atom_site_charge
Gd	Gd	0.58289 0.49211 0.55586 1.72500
O 	O 	0.66990 0.42563 0.70292 -0.48600
O 	O 	0.68402 0.63569 0.51971 -0.45300
C 	C 	0.64590 0.46900 0.84612 -0.36100
H 	H 	0.64530 0.41530 0.84070 0.13500
C 	C 	0.65310 0.51640 0.78105 -0.38300
H 	H 	0.62510 0.55030 0.78340 0.15600
C 	C 	0.72840 0.54760 0.82804 0.68800
C 	C 	0.64860 0.48000 0.71263 0.51000
C 	C 	0.63360 0.64580 0.48267 0.33900
C 	C 	0.59040 0.47060 0.90064 0.47400
C 	C 	0.66290 0.73190 0.45210 -0.18100
H 	H 	0.71780 0.77580 0.46930 -0.97200
C 	C 	0.60800 0.76740 0.42450 -0.13200
H 	H 	0.63620 0.82920 0.42770 0.05400
C 	C 	0.80100 0.53360 0.81160 -1.25800
H 	H 	0.82720 0.53050 0.85270 0.39200
H 	H 	0.84180 0.57980 0.78460 0.36900
H 	H 	0.78030 0.48170 0.78690 0.41200
C 	C 	0.65310 0.73740 0.37540 0.21400
C 	C 	0.75610 0.63060 0.86400 -1.11600
H 	H 	0.70760 0.63640 0.87310 0.32500
H 	H 	0.79510 0.67660 0.83600 0.31300
H 	H 	0.78320 0.63140 0.90580 0.28500
C 	C 	0.60700 0.65770 0.33250 -0.31600
H 	H 	0.57980 0.66810 0.29520 -0.02400
H 	H 	0.56520 0.61230 0.35950 0.02900
H 	H 	0.64690 0.64240 0.31570 0.00900
C 	C 	0.72910 0.80940 0.34060 -1.07300
H 	H 	0.75930 0.78720 0.31620 0.29900
H 	H 	0.76580 0.84920 0.37380 0.41100
H 	H 	0.71040 0.83720 0.30980 0.32000
O 	O 	0.62190 0.50951 0.66730 -0.50500
O 	O 	0.48177 0.77333 0.43828 -0.54100
C 	C 	0.51260 0.72610 0.42688 0.47400
O 	O 	0.46269 0.64995 0.40903 -0.55700
O 	O 	0.57309 0.41989 0.95037 -0.47900
O 	O 	0.56461 0.52266 0.89495 -0.49900
O 	O 	0.56148 0.58321 0.46842 -0.53300
C 	C 	0.66060 0.73180 0.46160 0.01800
H 	H 	0.70790 0.77340 0.48900 1.00700
C 	C 	0.60430 0.76690 0.43620 -0.21200
H 	H 	0.62700 0.82540 0.45150 0.05600
C 	C 	0.66700 0.76080 0.38920 0.37000
C 	C 	0.63540 0.69260 0.33640 -0.63800
H 	H 	0.65240 0.65220 0.34790 0.27700
H 	H 	0.65870 0.71730 0.29330 0.21800
H 	H 	0.57470 0.66470 0.33430 0.36500
C 	C 	0.74290 0.84280 0.36840 -0.02300
H 	H 	0.75900 0.88290 0.40460 -0.11300
H 	H 	0.72940 0.86450 0.32920 -0.01700
H 	H 	0.78900 0.83330 0.35820 -0.00200
Gd	Gd	0.50789 0.09078 0.55586 1.69700
O 	O 	0.57437 0.24427 0.70292 -0.48700
O 	O 	0.36431 0.04833 0.51971 -0.42700
C 	C 	0.53100 0.17690 0.84612 -0.36600
H 	H 	0.58470 0.23000 0.84070 0.13700
C 	C 	0.48360 0.13670 0.78105 -0.38900
H 	H 	0.44970 0.07480 0.78340 0.15800
C 	C 	0.45240 0.18080 0.82804 0.70800
C 	C 	0.52000 0.16860 0.71263 0.51000
C 	C 	0.35420 0.98780 0.48267 0.13200
C 	C 	0.52940 0.11980 0.90064 0.47700
C 	C 	0.26810 0.93100 0.45210 -0.39900
H 	H 	0.22420 0.94200 0.46930 -3.91400
C 	C 	0.23260 0.84060 0.42450 -0.21000
H 	H 	0.17080 0.80700 0.42770 0.22200
C 	C 	0.46640 0.26740 0.81160 -1.28200
H 	H 	0.46950 0.29670 0.85270 0.39900
H 	H 	0.42020 0.26200 0.78460 0.37700
H 	H 	0.51830 0.29860 0.78690 0.42000
C 	C 	0.26260 0.91570 0.37540 0.48600
C 	C 	0.36940 0.12550 0.86400 -1.16200
H 	H 	0.36360 0.07120 0.87310 0.34500
H 	H 	0.32340 0.11850 0.83600 0.33000
H 	H 	0.36860 0.15180 0.90580 0.31200
C 	C 	0.34230 0.94930 0.33250 -0.56000
H 	H 	0.33190 0.91170 0.29520 -0.01300
H 	H 	0.38770 0.95290 0.35950 0.06100
H 	H 	0.35760 0.00450 0.31570 0.04100
C 	C 	0.19060 0.91970 0.34060 -1.33700
H 	H 	0.21280 0.97210 0.31620 0.38500
H 	H 	0.15080 0.91660 0.37380 0.55500
H 	H 	0.16280 0.87320 0.30980 0.39300
O 	O 	0.49049 0.11239 0.66730 -0.50600
O 	O 	0.22667 0.70844 0.43828 -0.55800
C 	C 	0.27390 0.78650 0.42688 0.51600
O 	O 	0.35005 0.81274 0.40903 -0.58300
O 	O 	0.58011 0.15320 0.95037 -0.47800
O 	O 	0.47734 0.04195 0.89495 -0.49800
O 	O 	0.41679 0.97827 0.46842 -0.48700
C 	C 	0.26820 0.92880 0.46160 0.51800
H 	H 	0.22660 0.93450 0.48900 3.81200
C 	C 	0.23310 0.83740 0.43620 -0.32200
H 	H 	0.17460 0.80160 0.45150 -0.07000
C 	C 	0.23920 0.90620 0.38920 0.43100
C 	C 	0.30740 0.94280 0.33640 -0.89900
H 	H 	0.34780 0.00020 0.34790 0.41300
H 	H 	0.28270 0.94140 0.29330 0.31500
H 	H 	0.33530 0.91000 0.33430 0.54100
C 	C 	0.15720 0.90010 0.36840 -0.04700
H 	H 	0.11710 0.87610 0.40460 -0.08900
H 	H 	0.13550 0.86490 0.32920 -0.01400
H 	H 	0.16670 0.95570 0.35820 0.03100
Gd	Gd	0.90922 0.41711 0.55586 1.72000
O 	O 	0.75573 0.33010 0.70292 -0.48900
O 	O 	0.95167 0.31598 0.51971 -0.45600
C 	C 	0.82310 0.35410 0.84612 -0.36700
H 	H 	0.77000 0.35470 0.84070 0.13700
C 	C 	0.86330 0.34690 0.78105 -0.39300
H 	H 	0.92520 0.37490 0.78340 0.15900
C 	C 	0.81920 0.27160 0.82804 0.71500
C 	C 	0.83140 0.35140 0.71263 0.51100
C 	C 	0.01220 0.36640 0.48267 0.30600
C 	C 	0.88020 0.40960 0.90064 0.48000
C 	C 	0.06900 0.33710 0.45210 -0.21500
H 	H 	0.05800 0.28220 0.46930 -1.43800
C 	C 	0.15940 0.39200 0.42450 -0.14400
H 	H 	0.19300 0.36380 0.42770 0.09200
C 	C 	0.73260 0.19900 0.81160 -1.28300
H 	H 	0.70330 0.17280 0.85270 0.40000
H 	H 	0.73800 0.15820 0.78460 0.37000
H 	H 	0.70140 0.21970 0.78690 0.41700
C 	C 	0.08430 0.34690 0.37540 0.25600
C 	C 	0.87450 0.24390 0.86400 -1.19400
H 	H 	0.92880 0.29240 0.87310 0.36200
H 	H 	0.88150 0.20490 0.83600 0.34000
H 	H 	0.84820 0.21680 0.90580 0.33600
C 	C 	0.05070 0.39300 0.33250 -0.35300
H 	H 	0.08830 0.42020 0.29520 -0.02200
H 	H 	0.04710 0.43480 0.35950 0.03500
H 	H 	0.99550 0.35310 0.31570 0.01600
C 	C 	0.08030 0.27090 0.34060 -1.11200
H 	H 	0.02790 0.24070 0.31620 0.31200
H 	H 	0.08340 0.23420 0.37380 0.43000
H 	H 	0.12680 0.28960 0.30980 0.33000
O 	O 	0.88761 0.37810 0.66730 -0.50700
O 	O 	0.29156 0.51823 0.43828 -0.54600
C 	C 	0.21350 0.48740 0.42688 0.48300
O 	O 	0.18726 0.53731 0.40903 -0.56100
O 	O 	0.84680 0.42691 0.95037 -0.47900
O 	O 	0.95805 0.43539 0.89495 -0.49700
O 	O 	0.02173 0.43852 0.46842 -0.52600
C 	C 	0.07120 0.33940 0.46160 0.09600
H 	H 	0.06550 0.29210 0.48900 1.44600
C 	C 	0.16260 0.39570 0.43620 -0.23100
H 	H 	0.19840 0.37300 0.45150 0.02700
C 	C 	0.09380 0.33300 0.38920 0.37800
C 	C 	0.05720 0.36460 0.33640 -0.67600
H 	H 	0.99980 0.34760 0.34790 0.29500
H 	H 	0.05860 0.34130 0.29330 0.23400
H 	H 	0.09000 0.42530 0.33430 0.39100
C 	C 	0.09990 0.25710 0.36840 -0.02500
H 	H 	0.12390 0.24100 0.40460 -0.10300
H 	H 	0.13510 0.27060 0.32920 -0.01200
H 	H 	0.04430 0.21100 0.35820 0.00300
Gd	Gd	0.49211 0.58289 0.94414 1.71100
O 	O 	0.42563 0.66990 0.79708 -0.48900
O 	O 	0.63569 0.68402 0.98029 -0.44200
C 	C 	0.46900 0.64590 0.65388 -0.37700
H 	H 	0.41530 0.64530 0.65930 0.14000
C 	C 	0.51640 0.65310 0.71895 -0.40100
H 	H 	0.55030 0.62510 0.71660 0.16200
C 	C 	0.54760 0.72840 0.67196 0.74500
C 	C 	0.48000 0.64860 0.78737 0.51400
C 	C 	0.64580 0.63360 0.01733 0.23300
C 	C 	0.47060 0.59040 0.59936 0.48400
C 	C 	0.73190 0.66290 0.04790 -0.29300
H 	H 	0.77580 0.71780 0.03070 -2.48500
C 	C 	0.76740 0.60800 0.07550 -0.17200
H 	H 	0.82920 0.63620 0.07230 0.14500
C 	C 	0.53360 0.80100 0.68840 -1.32100
H 	H 	0.53050 0.82720 0.64730 0.41200
H 	H 	0.57980 0.84180 0.71540 0.38500
H 	H 	0.48170 0.78030 0.71310 0.43000
C 	C 	0.73740 0.65310 0.12460 0.35300
C 	C 	0.63060 0.75610 0.63600 -1.25700
H 	H 	0.63640 0.70760 0.62690 0.38800
H 	H 	0.67660 0.79510 0.66400 0.36500
H 	H 	0.63140 0.78320 0.59420 0.37200
C 	C 	0.65770 0.60700 0.16750 -0.44200
H 	H 	0.66810 0.57980 0.20480 -0.01800
H 	H 	0.61230 0.56520 0.14050 0.04600
H 	H 	0.64240 0.64690 0.18430 0.02700
C 	C 	0.80940 0.72910 0.15940 -1.21000
H 	H 	0.78720 0.75930 0.18380 0.34500
H 	H 	0.84920 0.76580 0.12620 0.48500
H 	H 	0.83720 0.71040 0.19020 0.35700
O 	O 	0.50951 0.62190 0.83270 -0.50700
O 	O 	0.77333 0.48177 0.06172 -0.55100
C 	C 	0.72610 0.51260 0.07312 0.49700
O 	O 	0.64995 0.46269 0.09097 -0.57100
O 	O 	0.41989 0.57309 0.54963 -0.48100
O 	O 	0.52266 0.56461 0.60505 -0.49900
O 	O 	0.58321 0.56148 0.03158 -0.51000
C 	C 	0.73180 0.66060 0.03840 0.27400
H 	H 	0.77340 0.70790 0.01100 2.44800
C 	C 	0.76690 0.60430 0.06380 -0.27000
H 	H 	0.82540 0.62700 0.04850 -0.01200
C 	C 	0.76080 0.66700 0.11080 0.40200
C 	C 	0.69260 0.63540 0.16360 -0.77400
H 	H 	0.65220 0.65240 0.15210 0.34700
H 	H 	0.71730 0.65870 0.20670 0.27000
H 	H 	0.66470 0.57470 0.16570 0.45600
C 	C 	0.84280 0.74290 0.13160 -0.03500
H 	H 	0.88290 0.75900 0.09540 -0.09800
H 	H 	0.86450 0.72940 0.17080 -0.01400
H 	H 	0.83330 0.78900 0.14180 0.01500
Gd	Gd	0.09078 0.50789 0.94414 1.71800
O 	O 	0.24427 0.57437 0.79708 -0.48700
O 	O 	0.04833 0.36431 0.98029 -0.45100
C 	C 	0.17690 0.53100 0.65388 -0.36800
H 	H 	0.23000 0.58470 0.65930 0.13800
C 	C 	0.13670 0.48360 0.71895 -0.39200
H 	H 	0.07480 0.44970 0.71660 0.15800
C 	C 	0.18080 0.45240 0.67196 0.71600
C 	C 	0.16860 0.52000 0.78737 0.51200
C 	C 	0.98780 0.35420 0.01733 0.30100
C 	C 	0.11980 0.52940 0.59936 0.48100
C 	C 	0.93100 0.26810 0.04790 -0.21900
H 	H 	0.94200 0.22420 0.03070 -1.48800
C 	C 	0.84060 0.23260 0.07550 -0.14500
H 	H 	0.80700 0.17080 0.07230 0.09000
C 	C 	0.26740 0.46640 0.68840 -1.28800
H 	H 	0.29670 0.46950 0.64730 0.40100
H 	H 	0.26200 0.42020 0.71540 0.37500
H 	H 	0.29860 0.51830 0.71310 0.42000
C 	C 	0.91570 0.26260 0.12460 0.26000
C 	C 	0.12550 0.36940 0.63600 -1.19100
H 	H 	0.07120 0.36360 0.62690 0.36000
H 	H 	0.11850 0.32340 0.66400 0.33800
H 	H 	0.15180 0.36860 0.59420 0.33300
C 	C 	0.94930 0.34230 0.16750 -0.36000
H 	H 	0.91170 0.33190 0.20480 -0.02100
H 	H 	0.95290 0.38770 0.14050 0.03500
H 	H 	0.00450 0.35760 0.18430 0.01600
C 	C 	0.91970 0.19060 0.15940 -1.12400
H 	H 	0.97210 0.21280 0.18380 0.31600
H 	H 	0.91660 0.15080 0.12620 0.43700
H 	H 	0.87320 0.16280 0.19020 0.33500
O 	O 	0.11239 0.49049 0.83270 -0.50700
O 	O 	0.70844 0.22667 0.06172 -0.54500
C 	C 	0.78650 0.27390 0.07312 0.48300
O 	O 	0.81274 0.35005 0.09097 -0.56200
O 	O 	0.15320 0.58011 0.54963 -0.48000
O 	O 	0.04195 0.47734 0.60505 -0.49900
O 	O 	0.97827 0.41679 0.03158 -0.52500
C 	C 	0.92880 0.26820 0.03840 0.10400
H 	H 	0.93450 0.22660 0.01100 1.49600
C 	C 	0.83740 0.23310 0.06380 -0.23300
H 	H 	0.80160 0.17460 0.04850 0.03000
C 	C 	0.90620 0.23920 0.11080 0.38500
C 	C 	0.94280 0.30740 0.16360 -0.69000
H 	H 	0.00020 0.34780 0.15210 0.30300
H 	H 	0.94140 0.28270 0.20670 0.23900
H 	H 	0.91000 0.33530 0.16570 0.39900
C 	C 	0.90010 0.15720 0.13160 -0.02700
H 	H 	0.87610 0.11710 0.09540 -0.10700
H 	H 	0.86490 0.13550 0.17080 -0.01500
H 	H 	0.95570 0.16670 0.14180 0.00300
Gd	Gd	0.41711 0.90922 0.94414 1.71200
O 	O 	0.33010 0.75573 0.79708 -0.48400
O 	O 	0.31598 0.95167 0.98029 -0.44500
C 	C 	0.35410 0.82310 0.65388 -0.34700
H 	H 	0.35470 0.77000 0.65930 0.13000
C 	C 	0.34690 0.86330 0.71895 -0.36800
H 	H 	0.37490 0.92520 0.71660 0.15100
C 	C 	0.27160 0.81920 0.67196 0.63700
C 	C 	0.35140 0.83140 0.78737 0.50300
C 	C 	0.36640 0.01220 0.01733 0.26200
C 	C 	0.40960 0.88020 0.59936 0.46500
C 	C 	0.33710 0.06900 0.04790 -0.26200
H 	H 	0.28220 0.05800 0.03070 -2.06200
C 	C 	0.39200 0.15940 0.07550 -0.16100
H 	H 	0.36380 0.19300 0.07230 0.11800
C 	C 	0.19900 0.73260 0.68840 -1.19900
H 	H 	0.17280 0.70330 0.64730 0.37300
H 	H 	0.15820 0.73800 0.71540 0.35100
H 	H 	0.21970 0.70140 0.71310 0.39500
C 	C 	0.34690 0.08430 0.12460 0.31300
C 	C 	0.24390 0.87450 0.63600 -0.99400
H 	H 	0.29240 0.92880 0.62690 0.26900
H 	H 	0.20490 0.88150 0.66400 0.26800
H 	H 	0.21680 0.84820 0.59420 0.21000
C 	C 	0.39300 0.05070 0.16750 -0.40600
H 	H 	0.42020 0.08830 0.20480 -0.02200
H 	H 	0.43480 0.04710 0.14050 0.04000
H 	H 	0.35310 0.99550 0.18430 0.01900
C 	C 	0.27090 0.08030 0.15940 -1.16700
H 	H 	0.24070 0.02790 0.18380 0.32700
H 	H 	0.23420 0.08340 0.12620 0.46100
H 	H 	0.28960 0.12680 0.19020 0.34500
O 	O 	0.37810 0.88761 0.83270 -0.50400
O 	O 	0.51823 0.29156 0.06172 -0.54800
C 	C 	0.48740 0.21350 0.07312 0.49000
O 	O 	0.53731 0.18726 0.09097 -0.56700
O 	O 	0.42691 0.84680 0.54963 -0.47800
O 	O 	0.43539 0.95805 0.60505 -0.49900
O 	O 	0.43852 0.02173 0.03158 -0.51700
C 	C 	0.33940 0.07120 0.03840 0.20300
H 	H 	0.29210 0.06550 0.01100 2.04500
C 	C 	0.39570 0.16260 0.06380 -0.25300
H 	H 	0.37300 0.19840 0.04850 0.00800
C 	C 	0.33300 0.09380 0.11080 0.39400
C 	C 	0.36460 0.05720 0.16360 -0.73800
H 	H 	0.34760 0.99980 0.15210 0.33000
H 	H 	0.34130 0.05860 0.20670 0.25300
H 	H 	0.42530 0.09000 0.16570 0.43200
C 	C 	0.25710 0.09990 0.13160 -0.03000
H 	H 	0.24100 0.12390 0.09540 -0.10300
H 	H 	0.27060 0.13510 0.17080 -0.01500
H 	H 	0.21100 0.04430 0.14180 0.01100
Gd	Gd	0.41711 0.50789 0.44414 1.72500
O 	O 	0.33010 0.57437 0.29708 -0.48600
O 	O 	0.31598 0.36431 0.48029 -0.45300
C 	C 	0.35410 0.53100 0.15388 -0.36100
H 	H 	0.35470 0.58470 0.15930 0.13500
C 	C 	0.34690 0.48360 0.21895 -0.38300
H 	H 	0.37490 0.44970 0.21660 0.15600
C 	C 	0.27160 0.45240 0.17196 0.68800
C 	C 	0.35140 0.52000 0.28737 0.51000
C 	C 	0.36640 0.35420 0.51733 0.33900
C 	C 	0.40960 0.52940 0.09936 0.47400
C 	C 	0.33710 0.26810 0.54790 -0.18100
H 	H 	0.28220 0.22420 0.53070 -0.97200
C 	C 	0.39200 0.23260 0.57550 -0.13200
H 	H 	0.36380 0.17080 0.57230 0.05400
C 	C 	0.19900 0.46640 0.18840 -1.25800
H 	H 	0.17280 0.46950 0.14730 0.39200
H 	H 	0.15820 0.42020 0.21540 0.36900
H 	H 	0.21970 0.51830 0.21310 0.41200
C 	C 	0.34690 0.26260 0.62460 0.21400
C 	C 	0.24390 0.36940 0.13600 -1.11600
H 	H 	0.29240 0.36360 0.12690 0.32500
H 	H 	0.20490 0.32340 0.16400 0.31300
H 	H 	0.21680 0.36860 0.09420 0.28500
C 	C 	0.39300 0.34230 0.66750 -0.31600
H 	H 	0.42020 0.33190 0.70480 -0.02400
H 	H 	0.43480 0.38770 0.64050 0.02900
H 	H 	0.35310 0.35760 0.68430 0.00900
C 	C 	0.27090 0.19060 0.65940 -1.07300
H 	H 	0.24070 0.21280 0.68380 0.29900
H 	H 	0.23420 0.15080 0.62620 0.41100
H 	H 	0.28960 0.16280 0.69020 0.32000
O 	O 	0.37810 0.49049 0.33270 -0.50500
O 	O 	0.51823 0.22667 0.56172 -0.54100
C 	C 	0.48740 0.27390 0.57312 0.47400
O 	O 	0.53731 0.35005 0.59097 -0.55700
O 	O 	0.42691 0.58011 0.04963 -0.47900
O 	O 	0.43539 0.47734 0.10505 -0.49900
O 	O 	0.43852 0.41679 0.53158 -0.53300
C 	C 	0.33940 0.26820 0.53840 0.01800
H 	H 	0.29210 0.22660 0.51100 1.00700
C 	C 	0.39570 0.23310 0.56380 -0.21200
H 	H 	0.37300 0.17460 0.54850 0.05600
C 	C 	0.33300 0.23920 0.61080 0.37000
C 	C 	0.36460 0.30740 0.66360 -0.63800
H 	H 	0.34760 0.34780 0.65210 0.27700
H 	H 	0.34130 0.28270 0.70670 0.21800
H 	H 	0.42530 0.33530 0.66570 0.36500
C 	C 	0.25710 0.15720 0.63160 -0.02300
H 	H 	0.24100 0.11710 0.59540 -0.11300
H 	H 	0.27060 0.13550 0.67080 -0.01700
H 	H 	0.21100 0.16670 0.64180 -0.00200
Gd	Gd	0.49211 0.90922 0.44414 1.69700
O 	O 	0.42563 0.75573 0.29708 -0.48700
O 	O 	0.63569 0.95167 0.48029 -0.42700
C 	C 	0.46900 0.82310 0.15388 -0.36600
H 	H 	0.41530 0.77000 0.15930 0.13700
C 	C 	0.51640 0.86330 0.21895 -0.38900
H 	H 	0.55030 0.92520 0.21660 0.15800
C 	C 	0.54760 0.81920 0.17196 0.70800
C 	C 	0.48000 0.83140 0.28737 0.51000
C 	C 	0.64580 0.01220 0.51733 0.13200
C 	C 	0.47060 0.88020 0.09936 0.47700
C 	C 	0.73190 0.06900 0.54790 -0.39900
H 	H 	0.77580 0.05800 0.53070 -3.91400
C 	C 	0.76740 0.15940 0.57550 -0.21000
H 	H 	0.82920 0.19300 0.57230 0.22200
C 	C 	0.53360 0.73260 0.18840 -1.28200
H 	H 	0.53050 0.70330 0.14730 0.39900
H 	H 	0.57980 0.73800 0.21540 0.37700
H 	H 	0.48170 0.70140 0.21310 0.42000
C 	C 	0.73740 0.08430 0.62460 0.48600
C 	C 	0.63060 0.87450 0.13600 -1.16200
H 	H 	0.63640 0.92880 0.12690 0.34500
H 	H 	0.67660 0.88150 0.16400 0.33000
H 	H 	0.63140 0.84820 0.09420 0.31200
C 	C 	0.65770 0.05070 0.66750 -0.56000
H 	H 	0.66810 0.08830 0.70480 -0.01300
H 	H 	0.61230 0.04710 0.64050 0.06100
H 	H 	0.64240 0.99550 0.68430 0.04100
C 	C 	0.80940 0.08030 0.65940 -1.33700
H 	H 	0.78720 0.02790 0.68380 0.38500
H 	H 	0.84920 0.08340 0.62620 0.55500
H 	H 	0.83720 0.12680 0.69020 0.39300
O 	O 	0.50951 0.88761 0.33270 -0.50600
O 	O 	0.77333 0.29156 0.56172 -0.55800
C 	C 	0.72610 0.21350 0.57312 0.51600
O 	O 	0.64995 0.18726 0.59097 -0.58300
O 	O 	0.41989 0.84680 0.04963 -0.47800
O 	O 	0.52266 0.95805 0.10505 -0.49800
O 	O 	0.58321 0.02173 0.53158 -0.48700
C 	C 	0.73180 0.07120 0.53840 0.51800
H 	H 	0.77340 0.06550 0.51100 3.81200
C 	C 	0.76690 0.16260 0.56380 -0.32200
H 	H 	0.82540 0.19840 0.54850 -0.07000
C 	C 	0.76080 0.09380 0.61080 0.43100
C 	C 	0.69260 0.05720 0.66360 -0.89900
H 	H 	0.65220 0.99980 0.65210 0.41300
H 	H 	0.71730 0.05860 0.70670 0.31500
H 	H 	0.66470 0.09000 0.66570 0.54100
C 	C 	0.84280 0.09990 0.63160 -0.04700
H 	H 	0.88290 0.12390 0.59540 -0.08900
H 	H 	0.86450 0.13510 0.67080 -0.01400
H 	H 	0.83330 0.04430 0.64180 0.03100
Gd	Gd	0.09078 0.58289 0.44414 1.72000
O 	O 	0.24427 0.66990 0.29708 -0.48900
O 	O 	0.04833 0.68402 0.48029 -0.45600
C 	C 	0.17690 0.64590 0.15388 -0.36700
H 	H 	0.23000 0.64530 0.15930 0.13700
C 	C 	0.13670 0.65310 0.21895 -0.39300
H 	H 	0.07480 0.62510 0.21660 0.15900
C 	C 	0.18080 0.72840 0.17196 0.71500
C 	C 	0.16860 0.64860 0.28737 0.51100
C 	C 	0.98780 0.63360 0.51733 0.30600
C 	C 	0.11980 0.59040 0.09936 0.48000
C 	C 	0.93100 0.66290 0.54790 -0.21500
H 	H 	0.94200 0.71780 0.53070 -1.43800
C 	C 	0.84060 0.60800 0.57550 -0.14400
H 	H 	0.80700 0.63620 0.57230 0.09200
C 	C 	0.26740 0.80100 0.18840 -1.28300
H 	H 	0.29670 0.82720 0.14730 0.40000
H 	H 	0.26200 0.84180 0.21540 0.37000
H 	H 	0.29860 0.78030 0.21310 0.41700
C 	C 	0.91570 0.65310 0.62460 0.25600
C 	C 	0.12550 0.75610 0.13600 -1.19400
H 	H 	0.07120 0.70760 0.12690 0.36200
H 	H 	0.11850 0.79510 0.16400 0.34000
H 	H 	0.15180 0.78320 0.09420 0.33600
C 	C 	0.94930 0.60700 0.66750 -0.35300
H 	H 	0.91170 0.57980 0.70480 -0.02200
H 	H 	0.95290 0.56520 0.64050 0.03500
H 	H 	0.00450 0.64690 0.68430 0.01600
C 	C 	0.91970 0.72910 0.65940 -1.11200
H 	H 	0.97210 0.75930 0.68380 0.31200
H 	H 	0.91660 0.76580 0.62620 0.43000
H 	H 	0.87320 0.71040 0.69020 0.33000
O 	O 	0.11239 0.62190 0.33270 -0.50700
O 	O 	0.70844 0.48177 0.56172 -0.54600
C 	C 	0.78650 0.51260 0.57312 0.48300
O 	O 	0.81274 0.46269 0.59097 -0.56100
O 	O 	0.15320 0.57309 0.04963 -0.47900
O 	O 	0.04195 0.56461 0.10505 -0.49700
O 	O 	0.97827 0.56148 0.53158 -0.52600
C 	C 	0.92880 0.66060 0.53840 0.09600
H 	H 	0.93450 0.70790 0.51100 1.44600
C 	C 	0.83740 0.60430 0.56380 -0.23100
H 	H 	0.80160 0.62700 0.54850 0.02700
C 	C 	0.90620 0.66700 0.61080 0.37800
C 	C 	0.94280 0.63540 0.66360 -0.67600
H 	H 	0.00020 0.65240 0.65210 0.29500
H 	H 	0.94140 0.65870 0.70670 0.23400
H 	H 	0.91000 0.57470 0.66570 0.39100
C 	C 	0.90010 0.74290 0.63160 -0.02500
H 	H 	0.87610 0.75900 0.59540 -0.10300
H 	H 	0.86490 0.72940 0.67080 -0.01200
H 	H 	0.95570 0.78900 0.64180 0.00300
Gd	Gd	0.50789 0.41711 0.05586 1.71100
O 	O 	0.57437 0.33010 0.20292 -0.48900
O 	O 	0.36431 0.31598 0.01971 -0.44200
C 	C 	0.53100 0.35410 0.34612 -0.37700
H 	H 	0.58470 0.35470 0.34070 0.14000
C 	C 	0.48360 0.34690 0.28105 -0.40100
H 	H 	0.44970 0.37490 0.28340 0.16200
C 	C 	0.45240 0.27160 0.32804 0.74500
C 	C 	0.52000 0.35140 0.21263 0.51400
C 	C 	0.35420 0.36640 0.98267 0.23300
C 	C 	0.52940 0.40960 0.40064 0.48400
C 	C 	0.26810 0.33710 0.95210 -0.29300
H 	H 	0.22420 0.28220 0.96930 -2.48500
C 	C 	0.23260 0.39200 0.92450 -0.17200
H 	H 	0.17080 0.36380 0.92770 0.14500
C 	C 	0.46640 0.19900 0.31160 -1.32100
H 	H 	0.46950 0.17280 0.35270 0.41200
H 	H 	0.42020 0.15820 0.28460 0.38500
H 	H 	0.51830 0.21970 0.28690 0.43000
C 	C 	0.26260 0.34690 0.87540 0.35300
C 	C 	0.36940 0.24390 0.36400 -1.25700
H 	H 	0.36360 0.29240 0.37310 0.38800
H 	H 	0.32340 0.20490 0.33600 0.36500
H 	H 	0.36860 0.21680 0.40580 0.37200
C 	C 	0.34230 0.39300 0.83250 -0.44200
H 	H 	0.33190 0.42020 0.79520 -0.01800
H 	H 	0.38770 0.43480 0.85950 0.04600
H 	H 	0.35760 0.35310 0.81570 0.02700
C 	C 	0.19060 0.27090 0.84060 -1.21000
H 	H 	0.21280 0.24070 0.81620 0.34500
H 	H 	0.15080 0.23420 0.87380 0.48500
H 	H 	0.16280 0.28960 0.80980 0.35700
O 	O 	0.49049 0.37810 0.16730 -0.50700
O 	O 	0.22667 0.51823 0.93828 -0.55100
C 	C 	0.27390 0.48740 0.92688 0.49700
O 	O 	0.35005 0.53731 0.90903 -0.57100
O 	O 	0.58011 0.42691 0.45037 -0.48100
O 	O 	0.47734 0.43539 0.39495 -0.49900
O 	O 	0.41679 0.43852 0.96842 -0.51000
C 	C 	0.26820 0.33940 0.96160 0.27400
H 	H 	0.22660 0.29210 0.98900 2.44800
C 	C 	0.23310 0.39570 0.93620 -0.27000
H 	H 	0.17460 0.37300 0.95150 -0.01200
C 	C 	0.23920 0.33300 0.88920 0.40200
C 	C 	0.30740 0.36460 0.83640 -0.77400
H 	H 	0.34780 0.34760 0.84790 0.34700
H 	H 	0.28270 0.34130 0.79330 0.27000
H 	H 	0.33530 0.42530 0.83430 0.45600
C 	C 	0.15720 0.25710 0.86840 -0.03500
H 	H 	0.11710 0.24100 0.90460 -0.09800
H 	H 	0.13550 0.27060 0.82920 -0.01400
H 	H 	0.16670 0.21100 0.85820 0.01500
Gd	Gd	0.90922 0.49211 0.05586 1.71800
O 	O 	0.75573 0.42563 0.20292 -0.48700
O 	O 	0.95167 0.63569 0.01971 -0.45100
C 	C 	0.82310 0.46900 0.34612 -0.36800
H 	H 	0.77000 0.41530 0.34070 0.13800
C 	C 	0.86330 0.51640 0.28105 -0.39200
H 	H 	0.92520 0.55030 0.28340 0.15800
C 	C 	0.81920 0.54760 0.32804 0.71600
C 	C 	0.83140 0.48000 0.21263 0.51200
C 	C 	0.01220 0.64580 0.98267 0.30100
C 	C 	0.88020 0.47060 0.40064 0.48100
C 	C 	0.06900 0.73190 0.95210 -0.21900
H 	H 	0.05800 0.77580 0.96930 -1.48800
C 	C 	0.15940 0.76740 0.92450 -0.14500
H 	H 	0.19300 0.82920 0.92770 0.09000
C 	C 	0.73260 0.53360 0.31160 -1.28800
H 	H 	0.70330 0.53050 0.35270 0.40100
H 	H 	0.73800 0.57980 0.28460 0.37500
H 	H 	0.70140 0.48170 0.28690 0.42000
C 	C 	0.08430 0.73740 0.87540 0.26000
C 	C 	0.87450 0.63060 0.36400 -1.19100
H 	H 	0.92880 0.63640 0.37310 0.36000
H 	H 	0.88150 0.67660 0.33600 0.33800
H 	H 	0.84820 0.63140 0.40580 0.33300
C 	C 	0.05070 0.65770 0.83250 -0.36000
H 	H 	0.08830 0.66810 0.79520 -0.02100
H 	H 	0.04710 0.61230 0.85950 0.03500
H 	H 	0.99550 0.64240 0.81570 0.01600
C 	C 	0.08030 0.80940 0.84060 -1.12400
H 	H 	0.02790 0.78720 0.81620 0.31600
H 	H 	0.08340 0.84920 0.87380 0.43700
H 	H 	0.12680 0.83720 0.80980 0.33500
O 	O 	0.88761 0.50951 0.16730 -0.50700
O 	O 	0.29156 0.77333 0.93828 -0.54500
C 	C 	0.21350 0.72610 0.92688 0.48300
O 	O 	0.18726 0.64995 0.90903 -0.56200
O 	O 	0.84680 0.41989 0.45037 -0.48000
O 	O 	0.95805 0.52266 0.39495 -0.49900
O 	O 	0.02173 0.58321 0.96842 -0.52500
C 	C 	0.07120 0.73180 0.96160 0.10400
H 	H 	0.06550 0.77340 0.98900 1.49600
C 	C 	0.16260 0.76690 0.93620 -0.23300
H 	H 	0.19840 0.82540 0.95150 0.03000
C 	C 	0.09380 0.76080 0.88920 0.38500
C 	C 	0.05720 0.69260 0.83640 -0.69000
H 	H 	0.99980 0.65220 0.84790 0.30300
H 	H 	0.05860 0.71730 0.79330 0.23900
H 	H 	0.09000 0.66470 0.83430 0.39900
C 	C 	0.09990 0.84280 0.86840 -0.02700
H 	H 	0.12390 0.88290 0.90460 -0.10700
H 	H 	0.13510 0.86450 0.82920 -0.01500
H 	H 	0.04430 0.83330 0.85820 0.00300
Gd	Gd	0.58289 0.09078 0.05586 1.71200
O 	O 	0.66990 0.24427 0.20292 -0.48400
O 	O 	0.68402 0.04833 0.01971 -0.44500
C 	C 	0.64590 0.17690 0.34612 -0.34700
H 	H 	0.64530 0.23000 0.34070 0.13000
C 	C 	0.65310 0.13670 0.28105 -0.36800
H 	H 	0.62510 0.07480 0.28340 0.15100
C 	C 	0.72840 0.18080 0.32804 0.63700
C 	C 	0.64860 0.16860 0.21263 0.50300
C 	C 	0.63360 0.98780 0.98267 0.26200
C 	C 	0.59040 0.11980 0.40064 0.46500
C 	C 	0.66290 0.93100 0.95210 -0.26200
H 	H 	0.71780 0.94200 0.96930 -2.06200
C 	C 	0.60800 0.84060 0.92450 -0.16100
H 	H 	0.63620 0.80700 0.92770 0.11800
C 	C 	0.80100 0.26740 0.31160 -1.19900
H 	H 	0.82720 0.29670 0.35270 0.37300
H 	H 	0.84180 0.26200 0.28460 0.35100
H 	H 	0.78030 0.29860 0.28690 0.39500
C 	C 	0.65310 0.91570 0.87540 0.31300
C 	C 	0.75610 0.12550 0.36400 -0.99400
H 	H 	0.70760 0.07120 0.37310 0.26900
H 	H 	0.79510 0.11850 0.33600 0.26800
H 	H 	0.78320 0.15180 0.40580 0.21000
C 	C 	0.60700 0.94930 0.83250 -0.40600
H 	H 	0.57980 0.91170 0.79520 -0.02200
H 	H 	0.56520 0.95290 0.85950 0.04000
H 	H 	0.64690 0.00450 0.81570 0.01900
C 	C 	0.72910 0.91970 0.84060 -1.16700
H 	H 	0.75930 0.97210 0.81620 0.32700
H 	H 	0.76580 0.91660 0.87380 0.46100
H 	H 	0.71040 0.87320 0.80980 0.34500
O 	O 	0.62190 0.11239 0.16730 -0.50400
O 	O 	0.48177 0.70844 0.93828 -0.54800
C 	C 	0.51260 0.78650 0.92688 0.49000
O 	O 	0.46269 0.81274 0.90903 -0.56700
O 	O 	0.57309 0.15320 0.45037 -0.47800
O 	O 	0.56461 0.04195 0.39495 -0.49900
O 	O 	0.56148 0.97827 0.96842 -0.51700
C 	C 	0.66060 0.92880 0.96160 0.20300
H 	H 	0.70790 0.93450 0.98900 2.04500
C 	C 	0.60430 0.83740 0.93620 -0.25300
H 	H 	0.62700 0.80160 0.95150 0.00800
C 	C 	0.66700 0.90620 0.88920 0.39400
C 	C 	0.63540 0.94280 0.83640 -0.73800
H 	H 	0.65240 0.00020 0.84790 0.33000
H 	H 	0.65870 0.94140 0.79330 0.25300
H 	H 	0.57470 0.91000 0.83430 0.43200
C 	C 	0.74290 0.90010 0.86840 -0.03000
H 	H 	0.75900 0.87610 0.90460 -0.10300
H 	H 	0.72940 0.86490 0.82920 -0.01500
H 	H 	0.78900 0.95570 0.85820 0.01100
Gd	Gd	0.66667 0.33333 0.61818 1.58700
Gd	Gd	0.33333 0.66667 0.88182 1.58700
Gd	Gd	0.33333 0.66667 0.38182 1.58700
Gd	Gd	0.66667 0.33333 0.11818 1.58700
