data_crystal

_cell_length_a 18.28740
_cell_length_b 18.28740
_cell_length_c 19.84880
_cell_angle_alpha 90.00000
_cell_angle_beta  90.00000
_cell_angle_gamma 120.00000

_symmetry_space_group_name_	'P 1'
_symmetry_space_group_name_H-M	'P 1'

loop_
_symmetry_equiv_pos_as_xyz
  x,y,z

loop_
_atom_site_label
_atom_site_type_symbol
_atom_site_fract_x
_atom_site_fract_y
_atom_site_fract_z
_atom_site_charge
Eu	Eu	0.41688 0.50759 0.55600 2.15400
O 	O 	0.31572 0.36343 0.51937 -0.51200
O 	O 	0.33016 0.57419 0.70344 -0.54800
O 	O 	0.37750 0.49010 0.66758 -0.57700
C 	C 	0.35120 0.51960 0.71301 0.56300
C 	C 	0.40970 0.52960 0.90101 0.53500
C 	C 	0.34650 0.48330 0.78126 -0.42300
H 	H 	0.37410 0.44920 0.78370 0.16700
C 	C 	0.35420 0.53110 0.84641 -0.39800
H 	H 	0.35500 0.58480 0.84090 0.14200
C 	C 	0.36620 0.35390 0.48255 0.43800
C 	C 	0.33740 0.26610 0.45370 -0.12700
H 	H 	0.28280 0.22250 0.47150 0.05300
C 	C 	0.27140 0.45260 0.82834 0.78800
C 	C 	0.19950 0.46680 0.81190 -1.37300
H 	H 	0.22030 0.51880 0.78750 0.44400
H 	H 	0.17310 0.46970 0.85280 0.42400
H 	H 	0.15890 0.42100 0.78470 0.40600
C 	C 	0.24380 0.37010 0.86420 -1.32500
H 	H 	0.20290 0.32430 0.83720 0.38600
H 	H 	0.21900 0.37040 0.90680 0.40600
H 	H 	0.29180 0.36310 0.87150 0.41700
C 	C 	0.39190 0.23020 0.42440 -0.11800
H 	H 	0.36460 0.16860 0.42750 -0.01800
O 	O 	0.53699 0.34987 0.40864 -0.63700
O 	O 	0.51801 0.22684 0.43797 -0.63600
C 	C 	0.48730 0.27400 0.42652 0.51200
C 	C 	0.27270 0.19030 0.33940 -0.95000
H 	H 	0.25550 0.13750 0.36160 0.33700
H 	H 	0.28930 0.18770 0.29400 0.25500
H 	H 	0.22650 0.20120 0.33890 0.27600
O 	O 	0.43802 0.41615 0.46835 -0.64700
O 	O 	0.42652 0.58007 0.95033 -0.55500
O 	O 	0.43484 0.47741 0.89508 -0.57200
C 	C 	0.34600 0.26010 0.37660 0.12700
C 	C 	0.39070 0.33860 0.33250 -0.23900
H 	H 	0.35630 0.36450 0.32880 -0.02400
H 	H 	0.39980 0.32300 0.28850 -0.02100
H 	H 	0.44400 0.37790 0.35240 0.01700
C 	C 	0.33240 0.23720 0.39070 0.34300
C 	C 	0.36160 0.30310 0.33740 -0.51100
H 	H 	0.37950 0.35710 0.35770 0.28300
H 	H 	0.31620 0.28980 0.30660 0.18500
H 	H 	0.40810 0.30490 0.31340 0.23300
C 	C 	0.33980 0.26990 0.45940 -0.13800
H 	H 	0.29410 0.22820 0.48780 0.02500
C 	C 	0.39610 0.23550 0.43540 -0.18500
H 	H 	0.37370 0.17810 0.45290 0.11200
C 	C 	0.25570 0.15840 0.36840 -0.03200
H 	H 	0.21170 0.17060 0.35790 -0.00300
H 	H 	0.23720 0.11720 0.40380 -0.10400
H 	H 	0.26890 0.13670 0.32900 0.02400
Eu	Eu	0.49241 0.90929 0.55600 2.15400
O 	O 	0.63657 0.95229 0.51937 -0.51300
O 	O 	0.42581 0.75597 0.70344 -0.54900
O 	O 	0.50990 0.88740 0.66758 -0.57700
C 	C 	0.48040 0.83160 0.71301 0.56200
C 	C 	0.47040 0.88010 0.90101 0.53300
C 	C 	0.51670 0.86320 0.78126 -0.42400
H 	H 	0.55080 0.92490 0.78370 0.16700
C 	C 	0.46890 0.82310 0.84641 -0.39800
H 	H 	0.41520 0.77020 0.84090 0.14100
C 	C 	0.64610 0.01230 0.48255 0.43700
C 	C 	0.73390 0.07130 0.45370 -0.12800
H 	H 	0.77750 0.06030 0.47150 0.05200
C 	C 	0.54740 0.81880 0.82834 0.78800
C 	C 	0.53320 0.73270 0.81190 -1.37300
H 	H 	0.48120 0.70150 0.78750 0.44300
H 	H 	0.53030 0.70340 0.85280 0.42300
H 	H 	0.57900 0.73790 0.78470 0.40400
C 	C 	0.62990 0.87370 0.86420 -1.32700
H 	H 	0.67570 0.87860 0.83720 0.38600
H 	H 	0.62960 0.84860 0.90680 0.40600
H 	H 	0.63690 0.92870 0.87150 0.41700
C 	C 	0.76980 0.16170 0.42440 -0.11900
H 	H 	0.83140 0.19600 0.42750 -0.01900
O 	O 	0.65013 0.18712 0.40864 -0.63800
O 	O 	0.77316 0.29117 0.43797 -0.63700
C 	C 	0.72600 0.21330 0.42652 0.51100
C 	C 	0.80970 0.08240 0.33940 -0.95200
H 	H 	0.86250 0.11800 0.36160 0.33700
H 	H 	0.81230 0.10160 0.29400 0.25500
H 	H 	0.79880 0.02530 0.33890 0.27500
O 	O 	0.58385 0.02187 0.46835 -0.64800
O 	O 	0.41993 0.84645 0.95033 -0.55300
O 	O 	0.52259 0.95743 0.89508 -0.57000
C 	C 	0.73990 0.08590 0.37660 0.12700
C 	C 	0.66140 0.05210 0.33250 -0.24000
H 	H 	0.63550 0.99180 0.32880 -0.02600
H 	H 	0.67700 0.07680 0.28850 -0.02100
H 	H 	0.62210 0.06610 0.35240 0.01700
C 	C 	0.76280 0.09520 0.39070 0.34300
C 	C 	0.69690 0.05850 0.33740 -0.51100
H 	H 	0.64290 0.02240 0.35770 0.28500
H 	H 	0.71020 0.02640 0.30660 0.18600
H 	H 	0.69510 0.10320 0.31340 0.23300
C 	C 	0.73010 0.06990 0.45940 -0.13800
H 	H 	0.77180 0.06590 0.48780 0.02500
C 	C 	0.76450 0.16060 0.43540 -0.18500
H 	H 	0.82190 0.19560 0.45290 0.11200
C 	C 	0.84160 0.09730 0.36840 -0.03200
H 	H 	0.82940 0.04110 0.35790 -0.00300
H 	H 	0.88280 0.12000 0.40380 -0.10400
H 	H 	0.86330 0.13220 0.32900 0.02400
Eu	Eu	0.09071 0.58312 0.55600 2.15400
O 	O 	0.04771 0.68428 0.51937 -0.51300
O 	O 	0.24403 0.66984 0.70344 -0.54900
O 	O 	0.11260 0.62250 0.66758 -0.57700
C 	C 	0.16840 0.64880 0.71301 0.56300
C 	C 	0.11990 0.59030 0.90101 0.53400
C 	C 	0.13680 0.65350 0.78126 -0.42400
H 	H 	0.07510 0.62590 0.78370 0.16700
C 	C 	0.17690 0.64580 0.84641 -0.39900
H 	H 	0.22980 0.64500 0.84090 0.14100
C 	C 	0.98770 0.63380 0.48255 0.43700
C 	C 	0.92870 0.66260 0.45370 -0.12800
H 	H 	0.93970 0.71720 0.47150 0.05200
C 	C 	0.18120 0.72860 0.82834 0.78900
C 	C 	0.26730 0.80050 0.81190 -1.37600
H 	H 	0.29850 0.77970 0.78750 0.44300
H 	H 	0.29660 0.82690 0.85280 0.42400
H 	H 	0.26210 0.84110 0.78470 0.40500
C 	C 	0.12630 0.75620 0.86420 -1.33000
H 	H 	0.12140 0.79710 0.83720 0.38700
H 	H 	0.15140 0.78100 0.90680 0.40800
H 	H 	0.07130 0.70820 0.87150 0.41900
C 	C 	0.83830 0.60810 0.42440 -0.11900
H 	H 	0.80400 0.63540 0.42750 -0.01900
O 	O 	0.81288 0.46301 0.40864 -0.63800
O 	O 	0.70883 0.48199 0.43797 -0.63700
C 	C 	0.78670 0.51270 0.42652 0.51100
C 	C 	0.91760 0.72730 0.33940 -0.95200
H 	H 	0.88200 0.74450 0.36160 0.33700
H 	H 	0.89840 0.71070 0.29400 0.25500
H 	H 	0.97470 0.77350 0.33890 0.27500
O 	O 	0.97813 0.56198 0.46835 -0.64800
O 	O 	0.15355 0.57348 0.95033 -0.55300
O 	O 	0.04257 0.56516 0.89508 -0.57000
C 	C 	0.91410 0.65400 0.37660 0.12700
C 	C 	0.94790 0.60930 0.33250 -0.24000
H 	H 	0.00820 0.64370 0.32880 -0.02600
H 	H 	0.92320 0.60020 0.28850 -0.02100
H 	H 	0.93390 0.55600 0.35240 0.01700
C 	C 	0.90480 0.66760 0.39070 0.34300
C 	C 	0.94150 0.63840 0.33740 -0.51100
H 	H 	0.97760 0.62050 0.35770 0.28500
H 	H 	0.97360 0.68380 0.30660 0.18600
H 	H 	0.89680 0.59190 0.31340 0.23300
C 	C 	0.93010 0.66020 0.45940 -0.13800
H 	H 	0.93410 0.70590 0.48780 0.02500
C 	C 	0.83940 0.60390 0.43540 -0.18500
H 	H 	0.80440 0.62630 0.45290 0.11200
C 	C 	0.90270 0.74430 0.36840 -0.03200
H 	H 	0.95890 0.78830 0.35790 -0.00300
H 	H 	0.88000 0.76280 0.40380 -0.10400
H 	H 	0.86780 0.73110 0.32900 0.02400
Eu	Eu	0.50759 0.41688 0.94400 2.15300
O 	O 	0.36343 0.31572 0.98063 -0.51300
O 	O 	0.57419 0.33016 0.79656 -0.54900
O 	O 	0.49010 0.37750 0.83242 -0.57700
C 	C 	0.51960 0.35120 0.78699 0.56200
C 	C 	0.52960 0.40970 0.59899 0.53400
C 	C 	0.48330 0.34650 0.71874 -0.42300
H 	H 	0.44920 0.37410 0.71630 0.16600
C 	C 	0.53110 0.35420 0.65359 -0.39900
H 	H 	0.58480 0.35500 0.65910 0.14100
C 	C 	0.35390 0.36620 0.01745 0.43700
C 	C 	0.26610 0.33740 0.04630 -0.12800
H 	H 	0.22250 0.28280 0.02850 0.05200
C 	C 	0.45260 0.27140 0.67166 0.78600
C 	C 	0.46680 0.19950 0.68810 -1.37200
H 	H 	0.51880 0.22030 0.71250 0.44200
H 	H 	0.46970 0.17310 0.64720 0.42200
H 	H 	0.42100 0.15890 0.71530 0.40400
C 	C 	0.37010 0.24380 0.63580 -1.32400
H 	H 	0.32430 0.20290 0.66280 0.38500
H 	H 	0.37040 0.21900 0.59320 0.40400
H 	H 	0.36310 0.29180 0.62850 0.41600
C 	C 	0.23020 0.39190 0.07560 -0.11900
H 	H 	0.16860 0.36460 0.07250 -0.01900
O 	O 	0.34987 0.53699 0.09136 -0.63800
O 	O 	0.22684 0.51801 0.06203 -0.63700
C 	C 	0.27400 0.48730 0.07348 0.51100
C 	C 	0.19030 0.27270 0.16060 -0.95100
H 	H 	0.13750 0.25550 0.13840 0.33600
H 	H 	0.18770 0.28930 0.20600 0.25400
H 	H 	0.20120 0.22650 0.16110 0.27500
O 	O 	0.41615 0.43802 0.03165 -0.64800
O 	O 	0.58007 0.42652 0.54967 -0.55600
O 	O 	0.47741 0.43484 0.60492 -0.57200
C 	C 	0.26010 0.34600 0.12340 0.12700
C 	C 	0.33860 0.39070 0.16750 -0.23900
H 	H 	0.36450 0.35630 0.17120 -0.02400
H 	H 	0.32300 0.39980 0.21150 -0.02100
H 	H 	0.37790 0.44400 0.14760 0.01700
C 	C 	0.23720 0.33240 0.10930 0.34300
C 	C 	0.30310 0.36160 0.16260 -0.51100
H 	H 	0.35710 0.37950 0.14230 0.28300
H 	H 	0.28980 0.31620 0.19340 0.18500
H 	H 	0.30490 0.40810 0.18660 0.23300
C 	C 	0.26990 0.33980 0.04060 -0.13800
H 	H 	0.22820 0.29410 0.01220 0.02600
C 	C 	0.23550 0.39610 0.06460 -0.18500
H 	H 	0.17810 0.37370 0.04710 0.11200
C 	C 	0.15840 0.25570 0.13160 -0.03200
H 	H 	0.17060 0.21170 0.14210 -0.00300
H 	H 	0.11720 0.23720 0.09620 -0.10400
H 	H 	0.13670 0.26890 0.17100 0.02400
Eu	Eu	0.90929 0.49241 0.94400 2.14900
O 	O 	0.95229 0.63657 0.98063 -0.51300
O 	O 	0.75597 0.42581 0.79656 -0.54900
O 	O 	0.88740 0.50990 0.83242 -0.57800
C 	C 	0.83160 0.48040 0.78699 0.56200
C 	C 	0.88010 0.47040 0.59899 0.53400
C 	C 	0.86320 0.51670 0.71874 -0.42300
H 	H 	0.92490 0.55080 0.71630 0.16600
C 	C 	0.82310 0.46890 0.65359 -0.39900
H 	H 	0.77020 0.41520 0.65910 0.14100
C 	C 	0.01230 0.64610 0.01745 0.43500
C 	C 	0.07130 0.73390 0.04630 -0.12800
H 	H 	0.06030 0.77750 0.02850 0.05000
C 	C 	0.81880 0.54740 0.67166 0.78600
C 	C 	0.73270 0.53320 0.68810 -1.37200
H 	H 	0.70150 0.48120 0.71250 0.44200
H 	H 	0.70340 0.53030 0.64720 0.42200
H 	H 	0.73790 0.57900 0.71530 0.40400
C 	C 	0.87370 0.62990 0.63580 -1.32300
H 	H 	0.87860 0.67570 0.66280 0.38400
H 	H 	0.84860 0.62960 0.59320 0.40400
H 	H 	0.92870 0.63690 0.62850 0.41500
C 	C 	0.16170 0.76980 0.07560 -0.11900
H 	H 	0.19600 0.83140 0.07250 -0.01800
O 	O 	0.18712 0.65013 0.09136 -0.63800
O 	O 	0.29117 0.77316 0.06203 -0.63700
C 	C 	0.21330 0.72600 0.07348 0.51100
C 	C 	0.08240 0.80970 0.16060 -0.94900
H 	H 	0.11800 0.86250 0.13840 0.33500
H 	H 	0.10160 0.81230 0.20600 0.25400
H 	H 	0.02530 0.79880 0.16110 0.27400
O 	O 	0.02187 0.58385 0.03165 -0.64800
O 	O 	0.84645 0.41993 0.54967 -0.55600
O 	O 	0.95743 0.52259 0.60492 -0.57300
C 	C 	0.08590 0.73990 0.12340 0.12700
C 	C 	0.05210 0.66140 0.16750 -0.23800
H 	H 	0.99180 0.63550 0.17120 -0.02100
H 	H 	0.07680 0.67700 0.21150 -0.02200
H 	H 	0.06610 0.62210 0.14760 0.01700
C 	C 	0.09520 0.76280 0.10930 0.34200
C 	C 	0.05850 0.69690 0.16260 -0.51000
H 	H 	0.02240 0.64290 0.14230 0.28000
H 	H 	0.02640 0.71020 0.19340 0.18400
H 	H 	0.10320 0.69510 0.18660 0.23300
C 	C 	0.06990 0.73010 0.04060 -0.13700
H 	H 	0.06590 0.77180 0.01220 0.02600
C 	C 	0.16060 0.76450 0.06460 -0.18500
H 	H 	0.19560 0.82190 0.04710 0.11100
C 	C 	0.09730 0.84160 0.13160 -0.03200
H 	H 	0.04110 0.82940 0.14210 -0.00400
H 	H 	0.12000 0.88280 0.09620 -0.10500
H 	H 	0.13220 0.86330 0.17100 0.02400
Eu	Eu	0.58312 0.09071 0.94400 2.14900
O 	O 	0.68428 0.04771 0.98063 -0.51500
O 	O 	0.66984 0.24403 0.79656 -0.54900
O 	O 	0.62250 0.11260 0.83242 -0.57800
C 	C 	0.64880 0.16840 0.78699 0.56200
C 	C 	0.59030 0.11990 0.59899 0.53400
C 	C 	0.65350 0.13680 0.71874 -0.42300
H 	H 	0.62590 0.07510 0.71630 0.16600
C 	C 	0.64580 0.17690 0.65359 -0.39900
H 	H 	0.64500 0.22980 0.65910 0.14100
C 	C 	0.63380 0.98770 0.01745 0.43800
C 	C 	0.66260 0.92870 0.04630 -0.12800
H 	H 	0.71720 0.93970 0.02850 0.05200
C 	C 	0.72860 0.18120 0.67166 0.78600
C 	C 	0.80050 0.26730 0.68810 -1.37100
H 	H 	0.77970 0.29850 0.71250 0.44200
H 	H 	0.82690 0.29660 0.64720 0.42200
H 	H 	0.84110 0.26210 0.71530 0.40400
C 	C 	0.75620 0.12630 0.63580 -1.32300
H 	H 	0.79710 0.12140 0.66280 0.38400
H 	H 	0.78100 0.15140 0.59320 0.40400
H 	H 	0.70820 0.07130 0.62850 0.41500
C 	C 	0.60810 0.83830 0.07560 -0.11900
H 	H 	0.63540 0.80400 0.07250 -0.01800
O 	O 	0.46301 0.81288 0.09136 -0.63800
O 	O 	0.48199 0.70883 0.06203 -0.63700
C 	C 	0.51270 0.78670 0.07348 0.51100
C 	C 	0.72730 0.91760 0.16060 -0.95000
H 	H 	0.74450 0.88200 0.13840 0.33600
H 	H 	0.71070 0.89840 0.20600 0.25400
H 	H 	0.77350 0.97470 0.16110 0.27400
O 	O 	0.56198 0.97813 0.03165 -0.64800
O 	O 	0.57348 0.15355 0.54967 -0.55600
O 	O 	0.56516 0.04257 0.60492 -0.57300
C 	C 	0.65400 0.91410 0.12340 0.12700
C 	C 	0.60930 0.94790 0.16750 -0.23800
H 	H 	0.64370 0.00820 0.17120 -0.02100
H 	H 	0.60020 0.92320 0.21150 -0.02200
H 	H 	0.55600 0.93390 0.14760 0.01700
C 	C 	0.66760 0.90480 0.10930 0.34200
C 	C 	0.63840 0.94150 0.16260 -0.51000
H 	H 	0.62050 0.97760 0.14230 0.28100
H 	H 	0.68380 0.97360 0.19340 0.18400
H 	H 	0.59190 0.89680 0.18660 0.23300
C 	C 	0.66020 0.93010 0.04060 -0.13800
H 	H 	0.70590 0.93410 0.01220 0.02600
C 	C 	0.60390 0.83940 0.06460 -0.18500
H 	H 	0.62630 0.80440 0.04710 0.11200
C 	C 	0.74430 0.90270 0.13160 -0.03200
H 	H 	0.78830 0.95890 0.14210 -0.00300
H 	H 	0.76280 0.88000 0.09620 -0.10400
H 	H 	0.73110 0.86780 0.17100 0.02400
Eu	Eu	0.58312 0.49241 0.44400 2.15300
O 	O 	0.68428 0.63657 0.48063 -0.51300
O 	O 	0.66984 0.42581 0.29656 -0.54900
O 	O 	0.62250 0.50990 0.33242 -0.57800
C 	C 	0.64880 0.48040 0.28699 0.56200
C 	C 	0.59030 0.47040 0.09899 0.53400
C 	C 	0.65350 0.51670 0.21874 -0.42400
H 	H 	0.62590 0.55080 0.21630 0.16600
C 	C 	0.64580 0.46890 0.15359 -0.39900
H 	H 	0.64500 0.41520 0.15910 0.14100
C 	C 	0.63380 0.64610 0.51745 0.43700
C 	C 	0.66260 0.73390 0.54630 -0.12800
H 	H 	0.71720 0.77750 0.52850 0.05200
C 	C 	0.72860 0.54740 0.17166 0.78700
C 	C 	0.80050 0.53320 0.18810 -1.37400
H 	H 	0.77970 0.48120 0.21250 0.44300
H 	H 	0.82690 0.53030 0.14720 0.42300
H 	H 	0.84110 0.57900 0.21530 0.40500
C 	C 	0.75620 0.62990 0.13580 -1.32600
H 	H 	0.79710 0.67570 0.16280 0.38500
H 	H 	0.78100 0.62960 0.09320 0.40500
H 	H 	0.70820 0.63690 0.12850 0.41600
C 	C 	0.60810 0.76980 0.57560 -0.11900
H 	H 	0.63540 0.83140 0.57250 -0.01900
O 	O 	0.46301 0.65013 0.59136 -0.63800
O 	O 	0.48199 0.77316 0.56203 -0.63700
C 	C 	0.51270 0.72600 0.57348 0.51100
C 	C 	0.72730 0.80970 0.66060 -0.95100
H 	H 	0.74450 0.86250 0.63840 0.33600
H 	H 	0.71070 0.81230 0.70600 0.25400
H 	H 	0.77350 0.79880 0.66110 0.27500
O 	O 	0.56198 0.58385 0.53165 -0.64800
O 	O 	0.57348 0.41993 0.04967 -0.55500
O 	O 	0.56516 0.52259 0.10492 -0.57200
C 	C 	0.65400 0.73990 0.62340 0.12700
C 	C 	0.60930 0.66140 0.66750 -0.23900
H 	H 	0.64370 0.63550 0.67120 -0.02400
H 	H 	0.60020 0.67700 0.71150 -0.02100
H 	H 	0.55600 0.62210 0.64760 0.01700
C 	C 	0.66760 0.76280 0.60930 0.34300
C 	C 	0.63840 0.69690 0.66260 -0.51100
H 	H 	0.62050 0.64290 0.64230 0.28300
H 	H 	0.68380 0.71020 0.69340 0.18500
H 	H 	0.59190 0.69510 0.68660 0.23300
C 	C 	0.66020 0.73010 0.54060 -0.13800
H 	H 	0.70590 0.77180 0.51220 0.02500
C 	C 	0.60390 0.76450 0.56460 -0.18500
H 	H 	0.62630 0.82190 0.54710 0.11200
C 	C 	0.74430 0.84160 0.63160 -0.03200
H 	H 	0.78830 0.82940 0.64210 -0.00300
H 	H 	0.76280 0.88280 0.59620 -0.10400
H 	H 	0.73110 0.86330 0.67100 0.02400
Eu	Eu	0.50759 0.09071 0.44400 2.15400
O 	O 	0.36343 0.04771 0.48063 -0.51300
O 	O 	0.57419 0.24403 0.29656 -0.54900
O 	O 	0.49010 0.11260 0.33242 -0.57700
C 	C 	0.51960 0.16840 0.28699 0.56200
C 	C 	0.52960 0.11990 0.09899 0.53300
C 	C 	0.48330 0.13680 0.21874 -0.42400
H 	H 	0.44920 0.07510 0.21630 0.16700
C 	C 	0.53110 0.17690 0.15359 -0.39800
H 	H 	0.58480 0.22980 0.15910 0.14100
C 	C 	0.35390 0.98770 0.51745 0.43700
C 	C 	0.26610 0.92870 0.54630 -0.12800
H 	H 	0.22250 0.93970 0.52850 0.05200
C 	C 	0.45260 0.18120 0.17166 0.78800
C 	C 	0.46680 0.26730 0.18810 -1.37300
H 	H 	0.51880 0.29850 0.21250 0.44300
H 	H 	0.46970 0.29660 0.14720 0.42300
H 	H 	0.42100 0.26210 0.21530 0.40400
C 	C 	0.37010 0.12630 0.13580 -1.32700
H 	H 	0.32430 0.12140 0.16280 0.38600
H 	H 	0.37040 0.15140 0.09320 0.40600
H 	H 	0.36310 0.07130 0.12850 0.41700
C 	C 	0.23020 0.83830 0.57560 -0.11900
H 	H 	0.16860 0.80400 0.57250 -0.01900
O 	O 	0.34987 0.81288 0.59136 -0.63800
O 	O 	0.22684 0.70883 0.56203 -0.63700
C 	C 	0.27400 0.78670 0.57348 0.51100
C 	C 	0.19030 0.91760 0.66060 -0.95200
H 	H 	0.13750 0.88200 0.63840 0.33700
H 	H 	0.18770 0.89840 0.70600 0.25500
H 	H 	0.20120 0.97470 0.66110 0.27500
O 	O 	0.41615 0.97813 0.53165 -0.64800
O 	O 	0.58007 0.15355 0.04967 -0.55300
O 	O 	0.47741 0.04257 0.10492 -0.57000
C 	C 	0.26010 0.91410 0.62340 0.12700
C 	C 	0.33860 0.94790 0.66750 -0.24000
H 	H 	0.36450 0.00820 0.67120 -0.02600
H 	H 	0.32300 0.92320 0.71150 -0.02100
H 	H 	0.37790 0.93390 0.64760 0.01700
C 	C 	0.23720 0.90480 0.60930 0.34300
C 	C 	0.30310 0.94150 0.66260 -0.51100
H 	H 	0.35710 0.97760 0.64230 0.28500
H 	H 	0.28980 0.97360 0.69340 0.18600
H 	H 	0.30490 0.89680 0.68660 0.23300
C 	C 	0.26990 0.93010 0.54060 -0.13800
H 	H 	0.22820 0.93410 0.51220 0.02500
C 	C 	0.23550 0.83940 0.56460 -0.18500
H 	H 	0.17810 0.80440 0.54710 0.11200
C 	C 	0.15840 0.90270 0.63160 -0.03200
H 	H 	0.17060 0.95890 0.64210 -0.00300
H 	H 	0.11720 0.88000 0.59620 -0.10400
H 	H 	0.13670 0.86780 0.67100 0.02400
Eu	Eu	0.90929 0.41688 0.44400 2.15400
O 	O 	0.95229 0.31572 0.48063 -0.51300
O 	O 	0.75597 0.33016 0.29656 -0.54900
O 	O 	0.88740 0.37750 0.33242 -0.57700
C 	C 	0.83160 0.35120 0.28699 0.56300
C 	C 	0.88010 0.40970 0.09899 0.53400
C 	C 	0.86320 0.34650 0.21874 -0.42400
H 	H 	0.92490 0.37410 0.21630 0.16700
C 	C 	0.82310 0.35420 0.15359 -0.39900
H 	H 	0.77020 0.35500 0.15910 0.14100
C 	C 	0.01230 0.36620 0.51745 0.43700
C 	C 	0.07130 0.33740 0.54630 -0.12800
H 	H 	0.06030 0.28280 0.52850 0.05200
C 	C 	0.81880 0.27140 0.17166 0.78900
C 	C 	0.73270 0.19950 0.18810 -1.37600
H 	H 	0.70150 0.22030 0.21250 0.44300
H 	H 	0.70340 0.17310 0.14720 0.42400
H 	H 	0.73790 0.15890 0.21530 0.40500
C 	C 	0.87370 0.24380 0.13580 -1.33000
H 	H 	0.87860 0.20290 0.16280 0.38700
H 	H 	0.84860 0.21900 0.09320 0.40800
H 	H 	0.92870 0.29180 0.12850 0.41900
C 	C 	0.16170 0.39190 0.57560 -0.11900
H 	H 	0.19600 0.36460 0.57250 -0.01900
O 	O 	0.18712 0.53699 0.59136 -0.63800
O 	O 	0.29117 0.51801 0.56203 -0.63700
C 	C 	0.21330 0.48730 0.57348 0.51100
C 	C 	0.08240 0.27270 0.66060 -0.95200
H 	H 	0.11800 0.25550 0.63840 0.33700
H 	H 	0.10160 0.28930 0.70600 0.25500
H 	H 	0.02530 0.22650 0.66110 0.27500
O 	O 	0.02187 0.43802 0.53165 -0.64800
O 	O 	0.84645 0.42652 0.04967 -0.55300
O 	O 	0.95743 0.43484 0.10492 -0.57000
C 	C 	0.08590 0.34600 0.62340 0.12700
C 	C 	0.05210 0.39070 0.66750 -0.24000
H 	H 	0.99180 0.35630 0.67120 -0.02600
H 	H 	0.07680 0.39980 0.71150 -0.02100
H 	H 	0.06610 0.44400 0.64760 0.01700
C 	C 	0.09520 0.33240 0.60930 0.34300
C 	C 	0.05850 0.36160 0.66260 -0.51100
H 	H 	0.02240 0.37950 0.64230 0.28500
H 	H 	0.02640 0.31620 0.69340 0.18600
H 	H 	0.10320 0.40810 0.68660 0.23300
C 	C 	0.06990 0.33980 0.54060 -0.13800
H 	H 	0.06590 0.29410 0.51220 0.02500
C 	C 	0.16060 0.39610 0.56460 -0.18500
H 	H 	0.19560 0.37370 0.54710 0.11200
C 	C 	0.09730 0.25570 0.63160 -0.03200
H 	H 	0.04110 0.21170 0.64210 -0.00300
H 	H 	0.12000 0.23720 0.59620 -0.10400
H 	H 	0.13220 0.26890 0.67100 0.02400
Eu	Eu	0.49241 0.58312 0.05600 2.15300
O 	O 	0.63657 0.68428 0.01937 -0.51300
O 	O 	0.42581 0.66984 0.20344 -0.54900
O 	O 	0.50990 0.62250 0.16758 -0.57700
C 	C 	0.48040 0.64880 0.21301 0.56200
C 	C 	0.47040 0.59030 0.40101 0.53400
C 	C 	0.51670 0.65350 0.28126 -0.42300
H 	H 	0.55080 0.62590 0.28370 0.16600
C 	C 	0.46890 0.64580 0.34641 -0.39900
H 	H 	0.41520 0.64500 0.34090 0.14100
C 	C 	0.64610 0.63380 0.98255 0.43700
C 	C 	0.73390 0.66260 0.95370 -0.12800
H 	H 	0.77750 0.71720 0.97150 0.05200
C 	C 	0.54740 0.72860 0.32834 0.78600
C 	C 	0.53320 0.80050 0.31190 -1.37200
H 	H 	0.48120 0.77970 0.28750 0.44200
H 	H 	0.53030 0.82690 0.35280 0.42200
H 	H 	0.57900 0.84110 0.28470 0.40400
C 	C 	0.62990 0.75620 0.36420 -1.32400
H 	H 	0.67570 0.79710 0.33720 0.38500
H 	H 	0.62960 0.78100 0.40680 0.40400
H 	H 	0.63690 0.70820 0.37150 0.41600
C 	C 	0.76980 0.60810 0.92440 -0.11900
H 	H 	0.83140 0.63540 0.92750 -0.01900
O 	O 	0.65013 0.46301 0.90864 -0.63800
O 	O 	0.77316 0.48199 0.93797 -0.63700
C 	C 	0.72600 0.51270 0.92652 0.51100
C 	C 	0.80970 0.72730 0.83940 -0.95100
H 	H 	0.86250 0.74450 0.86160 0.33600
H 	H 	0.81230 0.71070 0.79400 0.25400
H 	H 	0.79880 0.77350 0.83890 0.27500
O 	O 	0.58385 0.56198 0.96835 -0.64800
O 	O 	0.41993 0.57348 0.45033 -0.55600
O 	O 	0.52259 0.56516 0.39508 -0.57200
C 	C 	0.73990 0.65400 0.87660 0.12700
C 	C 	0.66140 0.60930 0.83250 -0.23900
H 	H 	0.63550 0.64370 0.82880 -0.02400
H 	H 	0.67700 0.60020 0.78850 -0.02100
H 	H 	0.62210 0.55600 0.85240 0.01700
C 	C 	0.76280 0.66760 0.89070 0.34300
C 	C 	0.69690 0.63840 0.83740 -0.51100
H 	H 	0.64290 0.62050 0.85770 0.28300
H 	H 	0.71020 0.68380 0.80660 0.18500
H 	H 	0.69510 0.59190 0.81340 0.23300
C 	C 	0.73010 0.66020 0.95940 -0.13800
H 	H 	0.77180 0.70590 0.98780 0.02600
C 	C 	0.76450 0.60390 0.93540 -0.18500
H 	H 	0.82190 0.62630 0.95290 0.11200
C 	C 	0.84160 0.74430 0.86840 -0.03200
H 	H 	0.82940 0.78830 0.85790 -0.00300
H 	H 	0.88280 0.76280 0.90380 -0.10400
H 	H 	0.86330 0.73110 0.82900 0.02400
Eu	Eu	0.09071 0.50759 0.05600 2.14900
O 	O 	0.04771 0.36343 0.01937 -0.51300
O 	O 	0.24403 0.57419 0.20344 -0.54900
O 	O 	0.11260 0.49010 0.16758 -0.57800
C 	C 	0.16840 0.51960 0.21301 0.56200
C 	C 	0.11990 0.52960 0.40101 0.53400
C 	C 	0.13680 0.48330 0.28126 -0.42300
H 	H 	0.07510 0.44920 0.28370 0.16600
C 	C 	0.17690 0.53110 0.34641 -0.39900
H 	H 	0.22980 0.58480 0.34090 0.14100
C 	C 	0.98770 0.35390 0.98255 0.43500
C 	C 	0.92870 0.26610 0.95370 -0.12800
H 	H 	0.93970 0.22250 0.97150 0.05000
C 	C 	0.18120 0.45260 0.32834 0.78600
C 	C 	0.26730 0.46680 0.31190 -1.37200
H 	H 	0.29850 0.51880 0.28750 0.44200
H 	H 	0.29660 0.46970 0.35280 0.42200
H 	H 	0.26210 0.42100 0.28470 0.40400
C 	C 	0.12630 0.37010 0.36420 -1.32300
H 	H 	0.12140 0.32430 0.33720 0.38400
H 	H 	0.15140 0.37040 0.40680 0.40400
H 	H 	0.07130 0.36310 0.37150 0.41500
C 	C 	0.83830 0.23020 0.92440 -0.11900
H 	H 	0.80400 0.16860 0.92750 -0.01800
O 	O 	0.81288 0.34987 0.90864 -0.63800
O 	O 	0.70883 0.22684 0.93797 -0.63700
C 	C 	0.78670 0.27400 0.92652 0.51100
C 	C 	0.91760 0.19030 0.83940 -0.94900
H 	H 	0.88200 0.13750 0.86160 0.33500
H 	H 	0.89840 0.18770 0.79400 0.25400
H 	H 	0.97470 0.20120 0.83890 0.27400
O 	O 	0.97813 0.41615 0.96835 -0.64800
O 	O 	0.15355 0.58007 0.45033 -0.55600
O 	O 	0.04257 0.47741 0.39508 -0.57300
C 	C 	0.91410 0.26010 0.87660 0.12700
C 	C 	0.94790 0.33860 0.83250 -0.23800
H 	H 	0.00820 0.36450 0.82880 -0.02100
H 	H 	0.92320 0.32300 0.78850 -0.02200
H 	H 	0.93390 0.37790 0.85240 0.01700
C 	C 	0.90480 0.23720 0.89070 0.34200
C 	C 	0.94150 0.30310 0.83740 -0.51000
H 	H 	0.97760 0.35710 0.85770 0.28000
H 	H 	0.97360 0.28980 0.80660 0.18400
H 	H 	0.89680 0.30490 0.81340 0.23300
C 	C 	0.93010 0.26990 0.95940 -0.13700
H 	H 	0.93410 0.22820 0.98780 0.02600
C 	C 	0.83940 0.23550 0.93540 -0.18500
H 	H 	0.80440 0.17810 0.95290 0.11100
C 	C 	0.90270 0.15840 0.86840 -0.03200
H 	H 	0.95890 0.17060 0.85790 -0.00400
H 	H 	0.88000 0.11720 0.90380 -0.10500
H 	H 	0.86780 0.13670 0.82900 0.02400
Eu	Eu	0.41688 0.90929 0.05600 2.14900
O 	O 	0.31572 0.95229 0.01937 -0.51500
O 	O 	0.33016 0.75597 0.20344 -0.54900
O 	O 	0.37750 0.88740 0.16758 -0.57800
C 	C 	0.35120 0.83160 0.21301 0.56200
C 	C 	0.40970 0.88010 0.40101 0.53400
C 	C 	0.34650 0.86320 0.28126 -0.42300
H 	H 	0.37410 0.92490 0.28370 0.16600
C 	C 	0.35420 0.82310 0.34641 -0.39900
H 	H 	0.35500 0.77020 0.34090 0.14100
C 	C 	0.36620 0.01230 0.98255 0.43800
C 	C 	0.33740 0.07130 0.95370 -0.12800
H 	H 	0.28280 0.06030 0.97150 0.05200
C 	C 	0.27140 0.81880 0.32834 0.78600
C 	C 	0.19950 0.73270 0.31190 -1.37100
H 	H 	0.22030 0.70150 0.28750 0.44200
H 	H 	0.17310 0.70340 0.35280 0.42200
H 	H 	0.15890 0.73790 0.28470 0.40400
C 	C 	0.24380 0.87370 0.36420 -1.32300
H 	H 	0.20290 0.87860 0.33720 0.38400
H 	H 	0.21900 0.84860 0.40680 0.40400
H 	H 	0.29180 0.92870 0.37150 0.41500
C 	C 	0.39190 0.16170 0.92440 -0.11900
H 	H 	0.36460 0.19600 0.92750 -0.01800
O 	O 	0.53699 0.18712 0.90864 -0.63800
O 	O 	0.51801 0.29117 0.93797 -0.63700
C 	C 	0.48730 0.21330 0.92652 0.51100
C 	C 	0.27270 0.08240 0.83940 -0.95000
H 	H 	0.25550 0.11800 0.86160 0.33600
H 	H 	0.28930 0.10160 0.79400 0.25400
H 	H 	0.22650 0.02530 0.83890 0.27400
O 	O 	0.43802 0.02187 0.96835 -0.64800
O 	O 	0.42652 0.84645 0.45033 -0.55600
O 	O 	0.43484 0.95743 0.39508 -0.57300
C 	C 	0.34600 0.08590 0.87660 0.12700
C 	C 	0.39070 0.05210 0.83250 -0.23800
H 	H 	0.35630 0.99180 0.82880 -0.02100
H 	H 	0.39980 0.07680 0.78850 -0.02200
H 	H 	0.44400 0.06610 0.85240 0.01700
C 	C 	0.33240 0.09520 0.89070 0.34200
C 	C 	0.36160 0.05850 0.83740 -0.51000
H 	H 	0.37950 0.02240 0.85770 0.28100
H 	H 	0.31620 0.02640 0.80660 0.18400
H 	H 	0.40810 0.10320 0.81340 0.23300
C 	C 	0.33980 0.06990 0.95940 -0.13800
H 	H 	0.29410 0.06590 0.98780 0.02600
C 	C 	0.39610 0.16060 0.93540 -0.18500
H 	H 	0.37370 0.19560 0.95290 0.11200
C 	C 	0.25570 0.09730 0.86840 -0.03200
H 	H 	0.21170 0.04110 0.85790 -0.00300
H 	H 	0.23720 0.12000 0.90380 -0.10400
H 	H 	0.26890 0.13220 0.82900 0.02400
Eu	Eu	0.33333 0.66667 0.61850 1.94700
Eu	Eu	0.66667 0.33333 0.88150 1.94600
Eu	Eu	0.66667 0.33333 0.38150 1.94700
Eu	Eu	0.33333 0.66667 0.11850 1.94600
