data_crystal

_cell_length_a 18.32230
_cell_length_b 11.40050
_cell_length_c 18.85360
_cell_angle_alpha 90.00000
_cell_angle_beta  108.68100
_cell_angle_gamma 90.00000

_symmetry_space_group_name_	'P 1'
_symmetry_space_group_name_H-M	'P 1'

loop_
_symmetry_equiv_pos_as_xyz
  x,y,z

loop_
_atom_site_label
_atom_site_type_symbol
_atom_site_fract_x
_atom_site_fract_y
_atom_site_fract_z
_atom_site_charge
Sm	Sm	0.50082 0.43320 0.89650 2.32300
O 	O 	0.57530 0.33240 0.00010 -0.60300
O 	O 	0.40500 0.32460 0.92270 -0.55300
O 	O 	0.91110 0.07490 0.27940 -0.58300
O 	O 	0.91460 0.03150 0.16560 -0.60500
O 	O 	0.57900 0.40900 0.11140 -0.56100
O 	O 	0.42250 0.42960 0.02480 -0.62000
N 	N 	0.66800 0.30010 0.23900 -0.10800
N 	N 	0.30180 0.15010 0.88970 -0.10800
C 	C 	0.60290 0.33960 0.07100 0.52500
C 	C 	0.66970 0.26200 0.10910 -0.18400
C 	C 	0.69960 0.25030 0.18850 0.13100
C 	C 	0.76760 0.18550 0.21900 -0.05800
H 	H 	0.78800 0.17660 0.27180 0.06900
C 	C 	0.70620 0.20350 0.06500 0.02600
H 	H 	0.68440 0.20630 0.01200 0.01400
C 	C 	0.38710 0.35380 0.98020 0.51500
C 	C 	0.31630 0.29760 0.98940 -0.15300
C 	C 	0.27730 0.20300 0.94440 0.11800
C 	C 	0.28840 0.34110 0.04520 -0.04200
H 	H 	0.31560 0.40260 0.07670 0.06100
C 	C 	0.88250 0.07660 0.20940 0.51500
C 	C 	0.80560 0.13440 0.17440 -0.12900
C 	C 	0.77380 0.14150 0.09690 -0.02000
H 	H 	0.79840 0.10360 0.06590 0.01700
Sm	Sm	0.00082 0.93320 0.89650 2.29700
O 	O 	0.07530 0.83240 0.00010 -0.59100
O 	O 	0.90500 0.82460 0.92270 -0.54900
O 	O 	0.41110 0.57490 0.27940 -0.58100
O 	O 	0.41460 0.53150 0.16560 -0.60600
O 	O 	0.07900 0.90900 0.11140 -0.55200
O 	O 	0.92250 0.92960 0.02480 -0.61500
N 	N 	0.16800 0.80010 0.23900 -0.10700
N 	N 	0.80180 0.65010 0.88970 -0.10800
C 	C 	0.10290 0.83960 0.07100 0.52100
C 	C 	0.16970 0.76200 0.10910 -0.18000
C 	C 	0.19960 0.75030 0.18850 0.13100
C 	C 	0.26760 0.68550 0.21900 -0.05700
H 	H 	0.28800 0.67660 0.27180 0.06900
C 	C 	0.20620 0.70350 0.06500 0.02600
H 	H 	0.18440 0.70630 0.01200 0.01900
C 	C 	0.88710 0.85380 0.98020 0.51100
C 	C 	0.81630 0.79760 0.98940 -0.15200
C 	C 	0.77730 0.70300 0.94440 0.11700
C 	C 	0.78840 0.84110 0.04520 -0.04300
H 	H 	0.81560 0.90260 0.07670 0.06300
C 	C 	0.38250 0.57660 0.20940 0.51600
C 	C 	0.30560 0.63440 0.17440 -0.12900
C 	C 	0.27380 0.64150 0.09690 -0.01700
H 	H 	0.29840 0.60360 0.06590 0.02000
Sm	Sm	0.49918 0.43320 0.60350 2.32100
O 	O 	0.42470 0.33240 0.49990 -0.60000
O 	O 	0.59500 0.32460 0.57730 -0.55300
O 	O 	0.08890 0.07490 0.22060 -0.57700
O 	O 	0.08540 0.03150 0.33440 -0.60600
O 	O 	0.42100 0.40900 0.38860 -0.56000
O 	O 	0.57750 0.42960 0.47520 -0.62000
N 	N 	0.33200 0.30010 0.26100 -0.10800
N 	N 	0.69820 0.15010 0.61030 -0.10800
C 	C 	0.39710 0.33960 0.42900 0.52400
C 	C 	0.33030 0.26200 0.39090 -0.18300
C 	C 	0.30040 0.25030 0.31150 0.13200
C 	C 	0.23240 0.18550 0.28100 -0.05900
H 	H 	0.21200 0.17660 0.22820 0.06900
C 	C 	0.29380 0.20350 0.43500 0.02700
H 	H 	0.31560 0.20630 0.48800 0.01600
C 	C 	0.61290 0.35380 0.51980 0.51500
C 	C 	0.68370 0.29760 0.51060 -0.15200
C 	C 	0.72270 0.20300 0.55560 0.11700
C 	C 	0.71160 0.34110 0.45480 -0.04200
H 	H 	0.68440 0.40260 0.42330 0.06100
C 	C 	0.11750 0.07660 0.29060 0.51500
C 	C 	0.19440 0.13440 0.32560 -0.12800
C 	C 	0.22620 0.14150 0.40310 -0.01900
H 	H 	0.20160 0.10360 0.43410 0.01900
Sm	Sm	0.99918 0.93320 0.60350 2.33100
O 	O 	0.92470 0.83240 0.49990 -0.60100
O 	O 	0.09500 0.82460 0.57730 -0.55500
O 	O 	0.58890 0.57490 0.22060 -0.58100
O 	O 	0.58540 0.53150 0.33440 -0.60600
O 	O 	0.92100 0.90900 0.38860 -0.56100
O 	O 	0.07750 0.92960 0.47520 -0.62100
N 	N 	0.83200 0.80010 0.26100 -0.10700
N 	N 	0.19820 0.65010 0.61030 -0.10800
C 	C 	0.89710 0.83960 0.42900 0.52500
C 	C 	0.83030 0.76200 0.39090 -0.18300
C 	C 	0.80040 0.75030 0.31150 0.13200
C 	C 	0.73240 0.68550 0.28100 -0.05800
H 	H 	0.71200 0.67660 0.22820 0.07000
C 	C 	0.79380 0.70350 0.43500 0.02700
H 	H 	0.81560 0.70630 0.48800 0.01600
C 	C 	0.11290 0.85380 0.51980 0.51600
C 	C 	0.18370 0.79760 0.51060 -0.15300
C 	C 	0.22270 0.70300 0.55560 0.11700
C 	C 	0.21160 0.84110 0.45480 -0.04200
H 	H 	0.18440 0.90260 0.42330 0.06100
C 	C 	0.61750 0.57660 0.29060 0.51600
C 	C 	0.69440 0.63440 0.32560 -0.12800
C 	C 	0.72620 0.64150 0.40310 -0.01900
H 	H 	0.70160 0.60360 0.43410 0.02000
Sm	Sm	0.49918 0.56680 0.10350 2.32400
O 	O 	0.42470 0.66760 0.99990 -0.60200
O 	O 	0.59500 0.67540 0.07730 -0.55300
O 	O 	0.08890 0.92510 0.72060 -0.58300
O 	O 	0.08540 0.96850 0.83440 -0.60500
O 	O 	0.42100 0.59100 0.88860 -0.56100
O 	O 	0.57750 0.57040 0.97520 -0.62000
N 	N 	0.33200 0.69990 0.76100 -0.10800
N 	N 	0.69820 0.84990 0.11030 -0.10800
C 	C 	0.39710 0.66040 0.92900 0.52500
C 	C 	0.33030 0.73800 0.89090 -0.18400
C 	C 	0.30040 0.74970 0.81150 0.13100
C 	C 	0.23240 0.81450 0.78100 -0.05800
H 	H 	0.21200 0.82340 0.72820 0.06900
C 	C 	0.29380 0.79650 0.93500 0.02600
H 	H 	0.31560 0.79370 0.98800 0.01400
C 	C 	0.61290 0.64620 0.01980 0.51500
C 	C 	0.68370 0.70240 0.01060 -0.15300
C 	C 	0.72270 0.79700 0.05560 0.11800
C 	C 	0.71160 0.65890 0.95480 -0.04200
H 	H 	0.68440 0.59740 0.92330 0.06100
C 	C 	0.11750 0.92340 0.79060 0.51500
C 	C 	0.19440 0.86560 0.82560 -0.12900
C 	C 	0.22620 0.85850 0.90310 -0.02000
H 	H 	0.20160 0.89640 0.93410 0.01700
Sm	Sm	0.99918 0.06680 0.10350 2.29700
O 	O 	0.92470 0.16760 0.99990 -0.59100
O 	O 	0.09500 0.17540 0.07730 -0.54900
O 	O 	0.58890 0.42510 0.72060 -0.58100
O 	O 	0.58540 0.46850 0.83440 -0.60600
O 	O 	0.92100 0.09100 0.88860 -0.55200
O 	O 	0.07750 0.07040 0.97520 -0.61500
N 	N 	0.83200 0.19990 0.76100 -0.10700
N 	N 	0.19820 0.34990 0.11030 -0.10800
C 	C 	0.89710 0.16040 0.92900 0.52100
C 	C 	0.83030 0.23800 0.89090 -0.18000
C 	C 	0.80040 0.24970 0.81150 0.13100
C 	C 	0.73240 0.31450 0.78100 -0.05700
H 	H 	0.71200 0.32340 0.72820 0.06900
C 	C 	0.79380 0.29650 0.93500 0.02600
H 	H 	0.81560 0.29370 0.98800 0.01900
C 	C 	0.11290 0.14620 0.01980 0.51100
C 	C 	0.18370 0.20240 0.01060 -0.15200
C 	C 	0.22270 0.29700 0.05560 0.11700
C 	C 	0.21160 0.15890 0.95480 -0.04300
H 	H 	0.18440 0.09740 0.92330 0.06300
C 	C 	0.61750 0.42340 0.79060 0.51600
C 	C 	0.69440 0.36560 0.82560 -0.12900
C 	C 	0.72620 0.35850 0.90310 -0.01700
H 	H 	0.70160 0.39640 0.93410 0.02000
Sm	Sm	0.50082 0.56680 0.39650 2.32100
O 	O 	0.57530 0.66760 0.50010 -0.60000
O 	O 	0.40500 0.67540 0.42270 -0.55300
O 	O 	0.91110 0.92510 0.77940 -0.57700
O 	O 	0.91460 0.96850 0.66560 -0.60600
O 	O 	0.57900 0.59100 0.61140 -0.56000
O 	O 	0.42250 0.57040 0.52480 -0.62000
N 	N 	0.66800 0.69990 0.73900 -0.10800
N 	N 	0.30180 0.84990 0.38970 -0.10800
C 	C 	0.60290 0.66040 0.57100 0.52400
C 	C 	0.66970 0.73800 0.60910 -0.18300
C 	C 	0.69960 0.74970 0.68850 0.13200
C 	C 	0.76760 0.81450 0.71900 -0.05900
H 	H 	0.78800 0.82340 0.77180 0.06900
C 	C 	0.70620 0.79650 0.56500 0.02700
H 	H 	0.68440 0.79370 0.51200 0.01600
C 	C 	0.38710 0.64620 0.48020 0.51500
C 	C 	0.31630 0.70240 0.48940 -0.15200
C 	C 	0.27730 0.79700 0.44440 0.11700
C 	C 	0.28840 0.65890 0.54520 -0.04200
H 	H 	0.31560 0.59740 0.57670 0.06100
C 	C 	0.88250 0.92340 0.70940 0.51500
C 	C 	0.80560 0.86560 0.67440 -0.12800
C 	C 	0.77380 0.85850 0.59690 -0.01900
H 	H 	0.79840 0.89640 0.56590 0.01900
Sm	Sm	0.00082 0.06680 0.39650 2.33100
O 	O 	0.07530 0.16760 0.50010 -0.60100
O 	O 	0.90500 0.17540 0.42270 -0.55500
O 	O 	0.41110 0.42510 0.77940 -0.58100
O 	O 	0.41460 0.46850 0.66560 -0.60600
O 	O 	0.07900 0.09100 0.61140 -0.56100
O 	O 	0.92250 0.07040 0.52480 -0.62100
N 	N 	0.16800 0.19990 0.73900 -0.10700
N 	N 	0.80180 0.34990 0.38970 -0.10800
C 	C 	0.10290 0.16040 0.57100 0.52500
C 	C 	0.16970 0.23800 0.60910 -0.18300
C 	C 	0.19960 0.24970 0.68850 0.13200
C 	C 	0.26760 0.31450 0.71900 -0.05800
H 	H 	0.28800 0.32340 0.77180 0.07000
C 	C 	0.20620 0.29650 0.56500 0.02700
H 	H 	0.18440 0.29370 0.51200 0.01600
C 	C 	0.88710 0.14620 0.48020 0.51600
C 	C 	0.81630 0.20240 0.48940 -0.15300
C 	C 	0.77730 0.29700 0.44440 0.11700
C 	C 	0.78840 0.15890 0.54520 -0.04200
H 	H 	0.81560 0.09740 0.57670 0.06100
C 	C 	0.38250 0.42340 0.70940 0.51600
C 	C 	0.30560 0.36560 0.67440 -0.12800
C 	C 	0.27380 0.35850 0.59690 -0.01900
H 	H 	0.29840 0.39640 0.56590 0.02000
