data_crystal

_cell_length_a 18.50680
_cell_length_b 11.42600
_cell_length_c 19.03210
_cell_angle_alpha 90.00000
_cell_angle_beta  108.34100
_cell_angle_gamma 90.00000

_symmetry_space_group_name_	'P 1'
_symmetry_space_group_name_H-M	'P 1'

loop_
_symmetry_equiv_pos_as_xyz
  x,y,z

loop_
_atom_site_label
_atom_site_type_symbol
_atom_site_fract_x
_atom_site_fract_y
_atom_site_fract_z
_atom_site_charge
C 	C 	0.89777 0.82710 0.92695 0.47700
C 	C 	0.83019 0.75270 0.88941 -0.21800
C 	C 	0.79289 0.69770 0.93336 0.07500
H 	H 	0.81390 0.70170 0.98460 0.00400
C 	C 	0.72576 0.63750 0.90325 -0.08000
H 	H 	0.70130 0.60280 0.93380 0.03800
C 	C 	0.69483 0.62920 0.82647 -0.04600
C 	C 	0.73270 0.67900 0.78204 -0.14200
H 	H 	0.71280 0.67050 0.73100 0.10900
C 	C 	0.80020 0.74190 0.81188 0.21800
C 	C 	0.61984 0.56890 0.79237 0.40300
C 	C 	0.88263 0.15600 0.96931 0.50900
C 	C 	0.81452 0.20630 0.98521 -0.38700
C 	C 	0.79106 0.15980 0.04168 -0.49000
H 	H 	0.81910 0.09940 0.07030 0.22400
N 	N 	0.83350 0.78930 0.76319 -0.34000
H 	H 	0.81500 0.79300 0.71560 0.18600
H 	H 	0.86700 0.84300 0.77900 0.18100
O 	O 	0.92463 0.89160 0.88782 -0.53700
O 	O 	0.92323 0.82250 0.99635 -0.55000
O 	O 	0.58927 0.52055 0.83596 -0.54500
O 	O 	0.59184 0.56810 0.72395 -0.52500
O 	O 	0.91949 0.07355 0.00797 -0.60200
O 	O 	0.90051 0.19650 0.91595 -0.49900
Ce	Ce	0.00045 0.06549 0.89850 2.13300
C 	C 	0.72683 0.20090 0.05684 1.23600
N 	N 	0.70670 0.14300 0.11190 1.64300
H 	H 	0.67900 0.17000 0.13500 -0.34400
H 	H 	0.71800 0.07200 0.12500 -0.45300
H 	H 	0.72000 0.17700 0.10000 -1.66900
C 	C 	0.39777 0.32710 0.92695 0.47800
C 	C 	0.33019 0.25270 0.88941 -0.22000
C 	C 	0.29289 0.19770 0.93336 0.07500
H 	H 	0.31390 0.20170 0.98460 0.00000
C 	C 	0.22576 0.13750 0.90325 -0.08100
H 	H 	0.20130 0.10280 0.93380 0.03500
C 	C 	0.19483 0.12920 0.82647 -0.04700
C 	C 	0.23270 0.17900 0.78204 -0.14200
H 	H 	0.21280 0.17050 0.73100 0.10800
C 	C 	0.30020 0.24190 0.81188 0.21700
C 	C 	0.11984 0.06890 0.79237 0.40300
C 	C 	0.38263 0.65600 0.96931 0.51100
C 	C 	0.31452 0.70630 0.98521 -0.38700
C 	C 	0.29106 0.65980 0.04168 -0.49000
H 	H 	0.31910 0.59940 0.07030 0.22300
N 	N 	0.33350 0.28930 0.76319 -0.34000
H 	H 	0.31500 0.29300 0.71560 0.18500
H 	H 	0.36700 0.34300 0.77900 0.18000
O 	O 	0.42463 0.39160 0.88782 -0.54100
O 	O 	0.42323 0.32250 0.99635 -0.55600
O 	O 	0.08927 0.02055 0.83596 -0.54700
O 	O 	0.09184 0.06810 0.72395 -0.52600
O 	O 	0.41949 0.57355 0.00797 -0.60300
O 	O 	0.40051 0.69650 0.91595 -0.50000
Ce	Ce	0.50045 0.56549 0.89850 2.13700
C 	C 	0.22683 0.70090 0.05684 1.23500
N 	N 	0.20670 0.64300 0.11190 1.64200
H 	H 	0.17900 0.67000 0.13500 -0.34400
H 	H 	0.21800 0.57200 0.12500 -0.45300
H 	H 	0.22000 0.67700 0.10000 -1.66800
C 	C 	0.10223 0.82710 0.57305 0.47800
C 	C 	0.16981 0.75270 0.61059 -0.21900
C 	C 	0.20711 0.69770 0.56664 0.07600
H 	H 	0.18610 0.70170 0.51540 0.00300
C 	C 	0.27424 0.63750 0.59675 -0.08000
H 	H 	0.29870 0.60280 0.56620 0.03800
C 	C 	0.30517 0.62920 0.67353 -0.04600
C 	C 	0.26730 0.67900 0.71796 -0.14200
H 	H 	0.28720 0.67050 0.76900 0.10900
C 	C 	0.19980 0.74190 0.68812 0.21800
C 	C 	0.38016 0.56890 0.70763 0.40300
C 	C 	0.11737 0.15600 0.53069 0.51000
C 	C 	0.18548 0.20630 0.51479 -0.38600
C 	C 	0.20894 0.15980 0.45832 -0.49000
H 	H 	0.18090 0.09940 0.42970 0.22300
N 	N 	0.16650 0.78930 0.73681 -0.34000
H 	H 	0.18500 0.79300 0.78440 0.18600
H 	H 	0.13300 0.84300 0.72100 0.18100
O 	O 	0.07537 0.89160 0.61218 -0.54000
O 	O 	0.07677 0.82250 0.50365 -0.55300
O 	O 	0.41073 0.52055 0.66404 -0.54500
O 	O 	0.40816 0.56810 0.77605 -0.52500
O 	O 	0.08051 0.07355 0.49203 -0.60200
O 	O 	0.09949 0.19650 0.58405 -0.50000
Ce	Ce	0.99955 0.06549 0.60150 2.13800
C 	C 	0.27317 0.20090 0.44316 1.23600
N 	N 	0.29330 0.14300 0.38810 1.64300
H 	H 	0.32100 0.17000 0.36500 -0.34400
H 	H 	0.28200 0.07200 0.37500 -0.45400
H 	H 	0.28000 0.17700 0.40000 -1.66900
C 	C 	0.60223 0.32710 0.57305 0.47800
C 	C 	0.66981 0.25270 0.61059 -0.22000
C 	C 	0.70711 0.19770 0.56664 0.07600
H 	H 	0.68610 0.20170 0.51540 0.00200
C 	C 	0.77424 0.13750 0.59675 -0.08000
H 	H 	0.79870 0.10280 0.56620 0.03800
C 	C 	0.80517 0.12920 0.67353 -0.04600
C 	C 	0.76730 0.17900 0.71796 -0.14200
H 	H 	0.78720 0.17050 0.76900 0.10900
C 	C 	0.69980 0.24190 0.68812 0.21700
C 	C 	0.88016 0.06890 0.70763 0.40200
C 	C 	0.61737 0.65600 0.53069 0.51100
C 	C 	0.68548 0.70630 0.51479 -0.38700
C 	C 	0.70894 0.65980 0.45832 -0.48900
H 	H 	0.68090 0.59940 0.42970 0.22300
N 	N 	0.66650 0.28930 0.73681 -0.34000
H 	H 	0.68500 0.29300 0.78440 0.18500
H 	H 	0.63300 0.34300 0.72100 0.18000
O 	O 	0.57537 0.39160 0.61218 -0.54100
O 	O 	0.57677 0.32250 0.50365 -0.55400
O 	O 	0.91073 0.02055 0.66404 -0.54400
O 	O 	0.90816 0.06810 0.77605 -0.52400
O 	O 	0.58051 0.57355 0.49203 -0.60200
O 	O 	0.59949 0.69650 0.58405 -0.50000
Ce	Ce	0.49955 0.56549 0.60150 2.13600
C 	C 	0.77317 0.70090 0.44316 1.23500
N 	N 	0.79330 0.64300 0.38810 1.64300
H 	H 	0.82100 0.67000 0.36500 -0.34400
H 	H 	0.78200 0.57200 0.37500 -0.45400
H 	H 	0.78000 0.67700 0.40000 -1.66800
C 	C 	0.10223 0.17290 0.07305 0.47700
C 	C 	0.16981 0.24730 0.11059 -0.21800
C 	C 	0.20711 0.30230 0.06664 0.07500
H 	H 	0.18610 0.29830 0.01540 0.00400
C 	C 	0.27424 0.36250 0.09675 -0.08000
H 	H 	0.29870 0.39720 0.06620 0.03800
C 	C 	0.30517 0.37080 0.17353 -0.04600
C 	C 	0.26730 0.32100 0.21796 -0.14200
H 	H 	0.28720 0.32950 0.26900 0.10900
C 	C 	0.19980 0.25810 0.18812 0.21800
C 	C 	0.38016 0.43110 0.20763 0.40300
C 	C 	0.11737 0.84400 0.03069 0.50900
C 	C 	0.18548 0.79370 0.01479 -0.38700
C 	C 	0.20894 0.84020 0.95832 -0.49000
H 	H 	0.18090 0.90060 0.92970 0.22400
N 	N 	0.16650 0.21070 0.23681 -0.34000
H 	H 	0.18500 0.20700 0.28440 0.18600
H 	H 	0.13300 0.15700 0.22100 0.18100
O 	O 	0.07537 0.10840 0.11218 -0.53700
O 	O 	0.07677 0.17750 0.00365 -0.55000
O 	O 	0.41073 0.47945 0.16404 -0.54500
O 	O 	0.40816 0.43190 0.27605 -0.52500
O 	O 	0.08051 0.92645 0.99203 -0.60200
O 	O 	0.09949 0.80350 0.08405 -0.49900
Ce	Ce	0.99955 0.93451 0.10150 2.13300
C 	C 	0.27317 0.79910 0.94316 1.23600
N 	N 	0.29330 0.85700 0.88810 1.64300
H 	H 	0.32100 0.83000 0.86500 -0.34400
H 	H 	0.28200 0.92800 0.87500 -0.45300
H 	H 	0.28000 0.82300 0.90000 -1.66900
C 	C 	0.60223 0.67290 0.07305 0.47800
C 	C 	0.66981 0.74730 0.11059 -0.22000
C 	C 	0.70711 0.80230 0.06664 0.07500
H 	H 	0.68610 0.79830 0.01540 0.00000
C 	C 	0.77424 0.86250 0.09675 -0.08100
H 	H 	0.79870 0.89720 0.06620 0.03500
C 	C 	0.80517 0.87080 0.17353 -0.04700
C 	C 	0.76730 0.82100 0.21796 -0.14200
H 	H 	0.78720 0.82950 0.26900 0.10800
C 	C 	0.69980 0.75810 0.18812 0.21700
C 	C 	0.88016 0.93110 0.20763 0.40300
C 	C 	0.61737 0.34400 0.03069 0.51100
C 	C 	0.68548 0.29370 0.01479 -0.38700
C 	C 	0.70894 0.34020 0.95832 -0.49000
H 	H 	0.68090 0.40060 0.92970 0.22300
N 	N 	0.66650 0.71070 0.23681 -0.34000
H 	H 	0.68500 0.70700 0.28440 0.18500
H 	H 	0.63300 0.65700 0.22100 0.18000
O 	O 	0.57537 0.60840 0.11218 -0.54100
O 	O 	0.57677 0.67750 0.00365 -0.55600
O 	O 	0.91073 0.97945 0.16404 -0.54700
O 	O 	0.90816 0.93190 0.27605 -0.52600
O 	O 	0.58051 0.42645 0.99203 -0.60300
O 	O 	0.59949 0.30350 0.08405 -0.50000
Ce	Ce	0.49955 0.43451 0.10150 2.13700
C 	C 	0.77317 0.29910 0.94316 1.23500
N 	N 	0.79330 0.35700 0.88810 1.64200
H 	H 	0.82100 0.33000 0.86500 -0.34400
H 	H 	0.78200 0.42800 0.87500 -0.45300
H 	H 	0.78000 0.32300 0.90000 -1.66800
C 	C 	0.89777 0.17290 0.42695 0.47800
C 	C 	0.83019 0.24730 0.38941 -0.21900
C 	C 	0.79289 0.30230 0.43336 0.07600
H 	H 	0.81390 0.29830 0.48460 0.00300
C 	C 	0.72576 0.36250 0.40325 -0.08000
H 	H 	0.70130 0.39720 0.43380 0.03800
C 	C 	0.69483 0.37080 0.32647 -0.04600
C 	C 	0.73270 0.32100 0.28204 -0.14200
H 	H 	0.71280 0.32950 0.23100 0.10900
C 	C 	0.80020 0.25810 0.31188 0.21800
C 	C 	0.61984 0.43110 0.29237 0.40300
C 	C 	0.88263 0.84400 0.46931 0.51000
C 	C 	0.81452 0.79370 0.48521 -0.38600
C 	C 	0.79106 0.84020 0.54168 -0.49000
H 	H 	0.81910 0.90060 0.57030 0.22300
N 	N 	0.83350 0.21070 0.26319 -0.34000
H 	H 	0.81500 0.20700 0.21560 0.18600
H 	H 	0.86700 0.15700 0.27900 0.18100
O 	O 	0.92463 0.10840 0.38782 -0.54000
O 	O 	0.92323 0.17750 0.49635 -0.55300
O 	O 	0.58927 0.47945 0.33596 -0.54500
O 	O 	0.59184 0.43190 0.22395 -0.52500
O 	O 	0.91949 0.92645 0.50797 -0.60200
O 	O 	0.90051 0.80350 0.41595 -0.50000
Ce	Ce	0.00045 0.93451 0.39850 2.13800
C 	C 	0.72683 0.79910 0.55684 1.23600
N 	N 	0.70670 0.85700 0.61190 1.64300
H 	H 	0.67900 0.83000 0.63500 -0.34400
H 	H 	0.71800 0.92800 0.62500 -0.45400
H 	H 	0.72000 0.82300 0.60000 -1.66900
C 	C 	0.39777 0.67290 0.42695 0.47800
C 	C 	0.33019 0.74730 0.38941 -0.22000
C 	C 	0.29289 0.80230 0.43336 0.07600
H 	H 	0.31390 0.79830 0.48460 0.00200
C 	C 	0.22576 0.86250 0.40325 -0.08000
H 	H 	0.20130 0.89720 0.43380 0.03800
C 	C 	0.19483 0.87080 0.32647 -0.04600
C 	C 	0.23270 0.82100 0.28204 -0.14200
H 	H 	0.21280 0.82950 0.23100 0.10900
C 	C 	0.30020 0.75810 0.31188 0.21700
C 	C 	0.11984 0.93110 0.29237 0.40200
C 	C 	0.38263 0.34400 0.46931 0.51100
C 	C 	0.31452 0.29370 0.48521 -0.38700
C 	C 	0.29106 0.34020 0.54168 -0.48900
H 	H 	0.31910 0.40060 0.57030 0.22300
N 	N 	0.33350 0.71070 0.26319 -0.34000
H 	H 	0.31500 0.70700 0.21560 0.18500
H 	H 	0.36700 0.65700 0.27900 0.18000
O 	O 	0.42463 0.60840 0.38782 -0.54100
O 	O 	0.42323 0.67750 0.49635 -0.55400
O 	O 	0.08927 0.97945 0.33596 -0.54400
O 	O 	0.09184 0.93190 0.22395 -0.52400
O 	O 	0.41949 0.42645 0.50797 -0.60200
O 	O 	0.40051 0.30350 0.41595 -0.50000
Ce	Ce	0.50045 0.43451 0.39850 2.13600
C 	C 	0.22683 0.29910 0.55684 1.23500
N 	N 	0.20670 0.35700 0.61190 1.64300
H 	H 	0.17900 0.33000 0.63500 -0.34400
H 	H 	0.21800 0.42800 0.62500 -0.45400
H 	H 	0.22000 0.32300 0.60000 -1.66800
