data_crystal

_cell_length_a 26.43910
_cell_length_b 26.43910
_cell_length_c 26.43910
_cell_angle_alpha 90.00000
_cell_angle_beta  90.00000
_cell_angle_gamma 90.00000

_symmetry_space_group_name_	'P 1'
_symmetry_space_group_name_H-M	'P 1'

loop_
_symmetry_equiv_pos_as_xyz
  x,y,z

loop_
_atom_site_label
_atom_site_type_symbol
_atom_site_fract_x
_atom_site_fract_y
_atom_site_fract_z
_atom_site_charge
O 	O 	0.33890 0.97200 0.00750 -0.31800
O 	O 	0.42120 0.98260 0.01180 -0.28900
C 	C 	0.37710 0.00040 0.00700 0.17300
C 	C 	0.37010 0.05670 0.00330 -0.31900
H 	H 	0.38440 0.07300 0.03290 0.11900
H 	H 	0.38740 0.06950 0.97360 0.20400
O 	O 	0.33890 0.47200 0.50750 -0.44700
O 	O 	0.42120 0.48260 0.51180 -0.42000
C 	C 	0.37710 0.50040 0.50700 0.42300
C 	C 	0.37010 0.55670 0.50330 -0.28300
H 	H 	0.38440 0.57300 0.53290 0.12400
H 	H 	0.38740 0.56950 0.47360 0.12500
O 	O 	0.83890 0.97200 0.50750 -0.28000
O 	O 	0.92120 0.98260 0.51180 -0.22300
C 	C 	0.87710 0.00040 0.50700 0.13200
C 	C 	0.87010 0.05670 0.50330 -0.13100
H 	H 	0.88440 0.07300 0.53290 0.07500
H 	H 	0.88740 0.06950 0.47360 0.07900
O 	O 	0.83890 0.47200 0.00750 -0.47900
O 	O 	0.92120 0.48260 0.01180 -0.43100
C 	C 	0.87710 0.50040 0.00700 0.45700
C 	C 	0.87010 0.55670 0.00330 -0.45700
H 	H 	0.88440 0.57300 0.03290 0.16600
H 	H 	0.88740 0.56950 0.97360 0.25000
O 	O 	0.91110 0.77800 0.50750 -0.41500
O 	O 	0.82880 0.76740 0.51180 -0.41400
C 	C 	0.87290 0.74960 0.50700 0.42400
C 	C 	0.87990 0.69330 0.50330 -0.30200
H 	H 	0.86560 0.67700 0.53290 0.13100
H 	H 	0.86260 0.68050 0.47360 0.13300
O 	O 	0.91110 0.27800 0.00750 -0.45500
O 	O 	0.82880 0.26740 0.01180 -0.45900
C 	C 	0.87290 0.24960 0.00700 0.46700
C 	C 	0.87990 0.19330 0.00330 -0.48700
H 	H 	0.86560 0.17700 0.03290 0.17500
H 	H 	0.86260 0.18050 0.97360 0.25800
O 	O 	0.41110 0.77800 0.00750 -0.48300
O 	O 	0.32880 0.76740 0.01180 -0.46100
C 	C 	0.37290 0.74960 0.00700 0.46800
C 	C 	0.37990 0.69330 0.00330 -0.46700
H 	H 	0.36560 0.67700 0.03290 0.16900
H 	H 	0.36260 0.68050 0.97360 0.25200
O 	O 	0.41110 0.27800 0.50750 -0.44600
O 	O 	0.32880 0.26740 0.51180 -0.41800
C 	C 	0.37290 0.24960 0.50700 0.42500
C 	C 	0.37990 0.19330 0.50330 -0.28200
H 	H 	0.36560 0.17700 0.53290 0.12500
H 	H 	0.36260 0.18050 0.47360 0.12700
O 	O 	0.41110 0.47200 0.24250 -0.44600
O 	O 	0.32880 0.48260 0.23820 -0.41800
C 	C 	0.37290 0.50040 0.24300 0.42500
C 	C 	0.37990 0.55670 0.24670 -0.28200
H 	H 	0.36560 0.57300 0.21710 0.12500
H 	H 	0.36260 0.56950 0.27640 0.12600
O 	O 	0.41110 0.97200 0.74250 -0.28200
O 	O 	0.32880 0.98260 0.73820 -0.24800
C 	C 	0.37290 0.00040 0.74300 0.13800
C 	C 	0.37990 0.05670 0.74670 -0.13300
H 	H 	0.36560 0.07300 0.71710 0.07700
H 	H 	0.36260 0.06950 0.77640 0.07900
O 	O 	0.91110 0.47200 0.74250 -0.41500
O 	O 	0.82880 0.48260 0.73820 -0.41500
C 	C 	0.87290 0.50040 0.74300 0.42500
C 	C 	0.87990 0.55670 0.74670 -0.30200
H 	H 	0.86560 0.57300 0.71710 0.13100
H 	H 	0.86260 0.56950 0.77640 0.13400
O 	O 	0.91110 0.97200 0.24250 -0.25500
O 	O 	0.82880 0.98260 0.23820 -0.24600
C 	C 	0.87290 0.00040 0.24300 0.14000
C 	C 	0.87990 0.05670 0.24670 -0.15500
H 	H 	0.86560 0.07300 0.21710 0.08400
H 	H 	0.86260 0.06950 0.27640 0.08500
O 	O 	0.83890 0.27800 0.74250 -0.43800
O 	O 	0.92120 0.26740 0.73820 -0.38700
C 	C 	0.87710 0.24960 0.74300 0.41600
C 	C 	0.87010 0.19330 0.74670 -0.27800
H 	H 	0.88440 0.17700 0.71710 0.12400
H 	H 	0.88740 0.18050 0.77640 0.13000
O 	O 	0.83890 0.77800 0.24250 -0.43700
O 	O 	0.92120 0.76740 0.23820 -0.38600
C 	C 	0.87710 0.74960 0.24300 0.41500
C 	C 	0.87010 0.69330 0.24670 -0.27600
H 	H 	0.88440 0.67700 0.21710 0.12300
H 	H 	0.88740 0.68050 0.27640 0.12800
O 	O 	0.33890 0.27800 0.24250 -0.44600
O 	O 	0.42120 0.26740 0.23820 -0.41800
C 	C 	0.37710 0.24960 0.24300 0.42500
C 	C 	0.37010 0.19330 0.24670 -0.28200
H 	H 	0.38440 0.17700 0.21710 0.12600
H 	H 	0.38740 0.18050 0.27640 0.12700
O 	O 	0.33890 0.77800 0.74250 -0.44200
O 	O 	0.42120 0.76740 0.73820 -0.41600
C 	C 	0.37710 0.74960 0.74300 0.42500
C 	C 	0.37010 0.69330 0.74670 -0.28200
H 	H 	0.38440 0.67700 0.71710 0.12500
H 	H 	0.38740 0.68050 0.77640 0.12700
O 	O 	0.00750 0.33890 0.97200 -0.31700
O 	O 	0.01180 0.42120 0.98260 -0.28800
C 	C 	0.00700 0.37710 0.00040 0.17400
C 	C 	0.00330 0.37010 0.05670 -0.31800
H 	H 	0.03290 0.38440 0.07300 0.12000
H 	H 	0.97360 0.38740 0.06950 0.20500
O 	O 	0.00750 0.83890 0.47200 -0.47800
O 	O 	0.01180 0.92120 0.48260 -0.43100
C 	C 	0.00700 0.87710 0.50040 0.45700
C 	C 	0.00330 0.87010 0.55670 -0.45700
H 	H 	0.03290 0.88440 0.57300 0.16600
H 	H 	0.97360 0.88740 0.56950 0.25000
O 	O 	0.50750 0.33890 0.47200 -0.44600
O 	O 	0.51180 0.42120 0.48260 -0.41900
C 	C 	0.50700 0.37710 0.50040 0.42400
C 	C 	0.50330 0.37010 0.55670 -0.28200
H 	H 	0.53290 0.38440 0.57300 0.12500
H 	H 	0.47360 0.38740 0.56950 0.12600
O 	O 	0.50750 0.83890 0.97200 -0.27900
O 	O 	0.51180 0.92120 0.98260 -0.22200
C 	C 	0.50700 0.87710 0.00040 0.13300
C 	C 	0.50330 0.87010 0.05670 -0.13000
H 	H 	0.53290 0.88440 0.07300 0.07600
H 	H 	0.47360 0.88740 0.06950 0.08000
O 	O 	0.50750 0.91110 0.77800 -0.41500
O 	O 	0.51180 0.82880 0.76740 -0.41400
C 	C 	0.50700 0.87290 0.74960 0.42400
C 	C 	0.50330 0.87990 0.69330 -0.30200
H 	H 	0.53290 0.86560 0.67700 0.13100
H 	H 	0.47360 0.86260 0.68050 0.13300
O 	O 	0.50750 0.41110 0.27800 -0.44600
O 	O 	0.51180 0.32880 0.26740 -0.41800
C 	C 	0.50700 0.37290 0.24960 0.42500
C 	C 	0.50330 0.37990 0.19330 -0.28200
H 	H 	0.53290 0.36560 0.17700 0.12500
H 	H 	0.47360 0.36260 0.18050 0.12700
O 	O 	0.00750 0.91110 0.27800 -0.45500
O 	O 	0.01180 0.82880 0.26740 -0.45900
C 	C 	0.00700 0.87290 0.24960 0.46700
C 	C 	0.00330 0.87990 0.19330 -0.48700
H 	H 	0.03290 0.86560 0.17700 0.17500
H 	H 	0.97360 0.86260 0.18050 0.25800
O 	O 	0.00750 0.41110 0.77800 -0.48300
O 	O 	0.01180 0.32880 0.76740 -0.46100
C 	C 	0.00700 0.37290 0.74960 0.46800
C 	C 	0.00330 0.37990 0.69330 -0.46700
H 	H 	0.03290 0.36560 0.67700 0.16900
H 	H 	0.97360 0.36260 0.68050 0.25200
O 	O 	0.24250 0.41110 0.47200 -0.44600
O 	O 	0.23820 0.32880 0.48260 -0.41800
C 	C 	0.24300 0.37290 0.50040 0.42500
C 	C 	0.24670 0.37990 0.55670 -0.28200
H 	H 	0.21710 0.36560 0.57300 0.12500
H 	H 	0.27640 0.36260 0.56950 0.12600
O 	O 	0.24250 0.91110 0.97200 -0.25500
O 	O 	0.23820 0.82880 0.98260 -0.24600
C 	C 	0.24300 0.87290 0.00040 0.14000
C 	C 	0.24670 0.87990 0.05670 -0.15500
H 	H 	0.21710 0.86560 0.07300 0.08400
H 	H 	0.27640 0.86260 0.06950 0.08500
O 	O 	0.74250 0.41110 0.97200 -0.28200
O 	O 	0.73820 0.32880 0.98260 -0.24800
C 	C 	0.74300 0.37290 0.00040 0.13800
C 	C 	0.74670 0.37990 0.05670 -0.13300
H 	H 	0.71710 0.36560 0.07300 0.07700
H 	H 	0.77640 0.36260 0.06950 0.07900
O 	O 	0.74250 0.91110 0.47200 -0.41500
O 	O 	0.73820 0.82880 0.48260 -0.41500
C 	C 	0.74300 0.87290 0.50040 0.42500
C 	C 	0.74670 0.87990 0.55670 -0.30200
H 	H 	0.71710 0.86560 0.57300 0.13100
H 	H 	0.77640 0.86260 0.56950 0.13400
O 	O 	0.74250 0.83890 0.27800 -0.43800
O 	O 	0.73820 0.92120 0.26740 -0.38700
C 	C 	0.74300 0.87710 0.24960 0.41600
C 	C 	0.74670 0.87010 0.19330 -0.27800
H 	H 	0.71710 0.88440 0.17700 0.12400
H 	H 	0.77640 0.88740 0.18050 0.13000
O 	O 	0.74250 0.33890 0.77800 -0.44200
O 	O 	0.73820 0.42120 0.76740 -0.41600
C 	C 	0.74300 0.37710 0.74960 0.42500
C 	C 	0.74670 0.37010 0.69330 -0.28200
H 	H 	0.71710 0.38440 0.67700 0.12500
H 	H 	0.77640 0.38740 0.68050 0.12700
O 	O 	0.24250 0.83890 0.77800 -0.43700
O 	O 	0.23820 0.92120 0.76740 -0.38600
C 	C 	0.24300 0.87710 0.74960 0.41500
C 	C 	0.24670 0.87010 0.69330 -0.27600
H 	H 	0.21710 0.88440 0.67700 0.12300
H 	H 	0.27640 0.88740 0.68050 0.12800
O 	O 	0.24250 0.33890 0.27800 -0.44600
O 	O 	0.23820 0.42120 0.26740 -0.41800
C 	C 	0.24300 0.37710 0.24960 0.42500
C 	C 	0.24670 0.37010 0.19330 -0.28200
H 	H 	0.21710 0.38440 0.17700 0.12600
H 	H 	0.27640 0.38740 0.18050 0.12700
O 	O 	0.97200 0.00750 0.33890 -0.31700
O 	O 	0.98260 0.01180 0.42120 -0.28800
C 	C 	0.00040 0.00700 0.37710 0.17400
C 	C 	0.05670 0.00330 0.37010 -0.31800
H 	H 	0.07300 0.03290 0.38440 0.12000
H 	H 	0.06950 0.97360 0.38740 0.20500
O 	O 	0.97200 0.50750 0.83890 -0.27900
O 	O 	0.98260 0.51180 0.92120 -0.22200
C 	C 	0.00040 0.50700 0.87710 0.13300
C 	C 	0.05670 0.50330 0.87010 -0.13000
H 	H 	0.07300 0.53290 0.88440 0.07600
H 	H 	0.06950 0.47360 0.88740 0.08000
O 	O 	0.47200 0.00750 0.83890 -0.47800
O 	O 	0.48260 0.01180 0.92120 -0.43100
C 	C 	0.50040 0.00700 0.87710 0.45700
C 	C 	0.55670 0.00330 0.87010 -0.45700
H 	H 	0.57300 0.03290 0.88440 0.16600
H 	H 	0.56950 0.97360 0.88740 0.25000
O 	O 	0.47200 0.50750 0.33890 -0.44600
O 	O 	0.48260 0.51180 0.42120 -0.41900
C 	C 	0.50040 0.50700 0.37710 0.42400
C 	C 	0.55670 0.50330 0.37010 -0.28200
H 	H 	0.57300 0.53290 0.38440 0.12500
H 	H 	0.56950 0.47360 0.38740 0.12600
O 	O 	0.77800 0.50750 0.91110 -0.41500
O 	O 	0.76740 0.51180 0.82880 -0.41400
C 	C 	0.74960 0.50700 0.87290 0.42400
C 	C 	0.69330 0.50330 0.87990 -0.30200
H 	H 	0.67700 0.53290 0.86560 0.13100
H 	H 	0.68050 0.47360 0.86260 0.13300
O 	O 	0.77800 0.00750 0.41110 -0.48300
O 	O 	0.76740 0.01180 0.32880 -0.46100
C 	C 	0.74960 0.00700 0.37290 0.46800
C 	C 	0.69330 0.00330 0.37990 -0.46700
H 	H 	0.67700 0.03290 0.36560 0.16900
H 	H 	0.68050 0.97360 0.36260 0.25200
O 	O 	0.27800 0.50750 0.41110 -0.44600
O 	O 	0.26740 0.51180 0.32880 -0.41800
C 	C 	0.24960 0.50700 0.37290 0.42500
C 	C 	0.19330 0.50330 0.37990 -0.28200
H 	H 	0.17700 0.53290 0.36560 0.12500
H 	H 	0.18050 0.47360 0.36260 0.12700
O 	O 	0.27800 0.00750 0.91110 -0.45500
O 	O 	0.26740 0.01180 0.82880 -0.45900
C 	C 	0.24960 0.00700 0.87290 0.46700
C 	C 	0.19330 0.00330 0.87990 -0.48700
H 	H 	0.17700 0.03290 0.86560 0.17500
H 	H 	0.18050 0.97360 0.86260 0.25800
O 	O 	0.47200 0.24250 0.41110 -0.44600
O 	O 	0.48260 0.23820 0.32880 -0.41800
C 	C 	0.50040 0.24300 0.37290 0.42500
C 	C 	0.55670 0.24670 0.37990 -0.28200
H 	H 	0.57300 0.21710 0.36560 0.12500
H 	H 	0.56950 0.27640 0.36260 0.12600
O 	O 	0.47200 0.74250 0.91110 -0.41500
O 	O 	0.48260 0.73820 0.82880 -0.41500
C 	C 	0.50040 0.74300 0.87290 0.42500
C 	C 	0.55670 0.74670 0.87990 -0.30200
H 	H 	0.57300 0.71710 0.86560 0.13100
H 	H 	0.56950 0.77640 0.86260 0.13400
O 	O 	0.97200 0.24250 0.91110 -0.25500
O 	O 	0.98260 0.23820 0.82880 -0.24600
C 	C 	0.00040 0.24300 0.87290 0.14000
C 	C 	0.05670 0.24670 0.87990 -0.15500
H 	H 	0.07300 0.21710 0.86560 0.08400
H 	H 	0.06950 0.27640 0.86260 0.08500
O 	O 	0.97200 0.74250 0.41110 -0.28200
O 	O 	0.98260 0.73820 0.32880 -0.24800
C 	C 	0.00040 0.74300 0.37290 0.13800
C 	C 	0.05670 0.74670 0.37990 -0.13300
H 	H 	0.07300 0.71710 0.36560 0.07700
H 	H 	0.06950 0.77640 0.36260 0.07900
O 	O 	0.27800 0.74250 0.83890 -0.43800
O 	O 	0.26740 0.73820 0.92120 -0.38700
C 	C 	0.24960 0.74300 0.87710 0.41600
C 	C 	0.19330 0.74670 0.87010 -0.27800
H 	H 	0.17700 0.71710 0.88440 0.12400
H 	H 	0.18050 0.77640 0.88740 0.13000
O 	O 	0.27800 0.24250 0.33890 -0.44600
O 	O 	0.26740 0.23820 0.42120 -0.41800
C 	C 	0.24960 0.24300 0.37710 0.42500
C 	C 	0.19330 0.24670 0.37010 -0.28200
H 	H 	0.17700 0.21710 0.38440 0.12600
H 	H 	0.18050 0.27640 0.38740 0.12700
O 	O 	0.77800 0.74250 0.33890 -0.44200
O 	O 	0.76740 0.73820 0.42120 -0.41600
C 	C 	0.74960 0.74300 0.37710 0.42500
C 	C 	0.69330 0.74670 0.37010 -0.28200
H 	H 	0.67700 0.71710 0.38440 0.12500
H 	H 	0.68050 0.77640 0.38740 0.12700
O 	O 	0.77800 0.24250 0.83890 -0.43700
O 	O 	0.76740 0.23820 0.92120 -0.38600
C 	C 	0.74960 0.24300 0.87710 0.41500
C 	C 	0.69330 0.24670 0.87010 -0.27600
H 	H 	0.67700 0.21710 0.88440 0.12300
H 	H 	0.68050 0.27640 0.88740 0.12800
O 	O 	0.72200 0.58890 0.99250 -0.36900
O 	O 	0.73260 0.67120 0.98820 -0.34500
C 	C 	0.75040 0.62710 0.99300 0.32200
C 	C 	0.80670 0.62010 0.99670 0.11000
H 	H 	0.82300 0.63440 0.96710 0.02900
H 	H 	0.81950 0.63740 0.02640 -0.05100
O 	O 	0.72200 0.08890 0.49250 -0.45500
O 	O 	0.73260 0.17120 0.48820 -0.42000
C 	C 	0.75040 0.12710 0.49300 0.42200
C 	C 	0.80670 0.12010 0.49670 -0.26100
H 	H 	0.82300 0.13440 0.46710 0.12100
H 	H 	0.81950 0.13740 0.52640 0.12000
O 	O 	0.22200 0.58890 0.49250 -0.44800
O 	O 	0.23260 0.67120 0.48820 -0.42000
C 	C 	0.25040 0.62710 0.49300 0.42400
C 	C 	0.30670 0.62010 0.49670 -0.28200
H 	H 	0.32300 0.63440 0.46710 0.12500
H 	H 	0.31950 0.63740 0.52640 0.12600
O 	O 	0.22200 0.08890 0.99250 -0.37600
O 	O 	0.23260 0.17120 0.98820 -0.34300
C 	C 	0.25040 0.12710 0.99300 0.31400
C 	C 	0.30670 0.12010 0.99670 0.15300
H 	H 	0.32300 0.13440 0.96710 0.01600
H 	H 	0.31950 0.13740 0.02640 -0.06700
O 	O 	0.52800 0.16110 0.49250 -0.45100
O 	O 	0.51740 0.07880 0.48820 -0.43500
C 	C 	0.49960 0.12290 0.49300 0.43100
C 	C 	0.44330 0.12990 0.49670 -0.28600
H 	H 	0.42700 0.11560 0.46710 0.12800
H 	H 	0.43050 0.11260 0.52640 0.12700
O 	O 	0.52800 0.66110 0.99250 -0.36800
O 	O 	0.51740 0.57880 0.98820 -0.34300
C 	C 	0.49960 0.62290 0.99300 0.31900
C 	C 	0.44330 0.62990 0.99670 0.12000
H 	H 	0.42700 0.61560 0.96710 0.02500
H 	H 	0.43050 0.61260 0.02640 -0.05600
O 	O 	0.02800 0.16110 0.99250 -0.52000
O 	O 	0.01740 0.07880 0.98820 -0.51200
C 	C 	0.99960 0.12290 0.99300 0.60800
C 	C 	0.94330 0.12990 0.99670 -0.03700
H 	H 	0.92700 0.11560 0.96710 0.08100
H 	H 	0.93050 0.11260 0.02640 -0.00200
O 	O 	0.02800 0.66110 0.49250 -0.59700
O 	O 	0.01740 0.57880 0.48820 -0.57400
C 	C 	0.99960 0.62290 0.49300 0.71100
C 	C 	0.94330 0.62990 0.49670 -0.43100
H 	H 	0.92700 0.61560 0.46710 0.17700
H 	H 	0.93050 0.61260 0.52640 0.17600
O 	O 	0.22200 0.66110 0.75750 -0.44800
O 	O 	0.23260 0.57880 0.76180 -0.42000
C 	C 	0.25040 0.62290 0.75700 0.42400
C 	C 	0.30670 0.62990 0.75330 -0.28200
H 	H 	0.32300 0.61560 0.78290 0.12600
H 	H 	0.31950 0.61260 0.72360 0.12600
O 	O 	0.22200 0.16110 0.25750 -0.45400
O 	O 	0.23260 0.07880 0.26180 -0.43700
C 	C 	0.25040 0.12290 0.25700 0.43000
C 	C 	0.30670 0.12990 0.25330 -0.28600
H 	H 	0.32300 0.11560 0.28290 0.12800
H 	H 	0.31950 0.11260 0.22360 0.12700
O 	O 	0.72200 0.66110 0.25750 -0.44800
O 	O 	0.73260 0.57880 0.26180 -0.42000
C 	C 	0.75040 0.62290 0.25700 0.42400
C 	C 	0.80670 0.62990 0.25330 -0.28200
H 	H 	0.82300 0.61560 0.28290 0.12700
H 	H 	0.81950 0.61260 0.22360 0.12600
O 	O 	0.72200 0.16110 0.75750 -0.45100
O 	O 	0.73260 0.07880 0.76180 -0.43500
C 	C 	0.75040 0.12290 0.75700 0.43100
C 	C 	0.80670 0.12990 0.75330 -0.28700
H 	H 	0.82300 0.11560 0.78290 0.13000
H 	H 	0.81950 0.11260 0.72360 0.12800
O 	O 	0.02800 0.08890 0.25750 -0.61200
O 	O 	0.01740 0.17120 0.26180 -0.58000
C 	C 	0.99960 0.12710 0.25700 0.71600
C 	C 	0.94330 0.12010 0.25330 -0.41300
H 	H 	0.92700 0.13440 0.28290 0.17200
H 	H 	0.93050 0.13740 0.22360 0.17000
O 	O 	0.02800 0.58890 0.75750 -0.59500
O 	O 	0.01740 0.67120 0.76180 -0.57200
C 	C 	0.99960 0.62710 0.75700 0.70600
C 	C 	0.94330 0.62010 0.75330 -0.42800
H 	H 	0.92700 0.63440 0.78290 0.17600
H 	H 	0.93050 0.63740 0.72360 0.17500
O 	O 	0.52800 0.08890 0.75750 -0.45500
O 	O 	0.51740 0.17120 0.76180 -0.42000
C 	C 	0.49960 0.12710 0.75700 0.42100
C 	C 	0.44330 0.12010 0.75330 -0.26000
H 	H 	0.42700 0.13440 0.78290 0.11900
H 	H 	0.43050 0.13740 0.72360 0.11900
O 	O 	0.52800 0.58890 0.25750 -0.44700
O 	O 	0.51740 0.67120 0.26180 -0.42000
C 	C 	0.49960 0.62710 0.25700 0.42400
C 	C 	0.44330 0.62010 0.25330 -0.28200
H 	H 	0.42700 0.63440 0.28290 0.12500
H 	H 	0.43050 0.63740 0.22360 0.12500
O 	O 	0.08890 0.25750 0.02800 -0.61200
O 	O 	0.17120 0.26180 0.01740 -0.58000
C 	C 	0.12710 0.25700 0.99960 0.71600
C 	C 	0.12010 0.25330 0.94330 -0.41300
H 	H 	0.13440 0.28290 0.92700 0.17200
H 	H 	0.13740 0.22360 0.93050 0.17000
O 	O 	0.08890 0.75750 0.52800 -0.45500
O 	O 	0.17120 0.76180 0.51740 -0.42000
C 	C 	0.12710 0.75700 0.49960 0.42100
C 	C 	0.12010 0.75330 0.44330 -0.26000
H 	H 	0.13440 0.78290 0.42700 0.11900
H 	H 	0.13740 0.72360 0.43050 0.11900
O 	O 	0.58890 0.25750 0.52800 -0.44700
O 	O 	0.67120 0.26180 0.51740 -0.42000
C 	C 	0.62710 0.25700 0.49960 0.42400
C 	C 	0.62010 0.25330 0.44330 -0.28200
H 	H 	0.63440 0.28290 0.42700 0.12500
H 	H 	0.63740 0.22360 0.43050 0.12500
O 	O 	0.58890 0.75750 0.02800 -0.59500
O 	O 	0.67120 0.76180 0.01740 -0.57200
C 	C 	0.62710 0.75700 0.99960 0.70600
C 	C 	0.62010 0.75330 0.94330 -0.42800
H 	H 	0.63440 0.78290 0.92700 0.17600
H 	H 	0.63740 0.72360 0.93050 0.17500
O 	O 	0.66110 0.75750 0.22200 -0.44800
O 	O 	0.57880 0.76180 0.23260 -0.42000
C 	C 	0.62290 0.75700 0.25040 0.42400
C 	C 	0.62990 0.75330 0.30670 -0.28200
H 	H 	0.61560 0.78290 0.32300 0.12600
H 	H 	0.61260 0.72360 0.31950 0.12600
O 	O 	0.66110 0.25750 0.72200 -0.44800
O 	O 	0.57880 0.26180 0.73260 -0.42000
C 	C 	0.62290 0.25700 0.75040 0.42400
C 	C 	0.62990 0.25330 0.80670 -0.28200
H 	H 	0.61560 0.28290 0.82300 0.12700
H 	H 	0.61260 0.22360 0.81950 0.12600
O 	O 	0.16110 0.75750 0.72200 -0.45100
O 	O 	0.07880 0.76180 0.73260 -0.43500
C 	C 	0.12290 0.75700 0.75040 0.43100
C 	C 	0.12990 0.75330 0.80670 -0.28700
H 	H 	0.11560 0.78290 0.82300 0.13000
H 	H 	0.11260 0.72360 0.81950 0.12800
O 	O 	0.16110 0.25750 0.22200 -0.45400
O 	O 	0.07880 0.26180 0.23260 -0.43700
C 	C 	0.12290 0.25700 0.25040 0.43000
C 	C 	0.12990 0.25330 0.30670 -0.28600
H 	H 	0.11560 0.28290 0.32300 0.12800
H 	H 	0.11260 0.22360 0.31950 0.12700
O 	O 	0.16110 0.49250 0.52800 -0.45100
O 	O 	0.07880 0.48820 0.51740 -0.43500
C 	C 	0.12290 0.49300 0.49960 0.43100
C 	C 	0.12990 0.49670 0.44330 -0.28600
H 	H 	0.11560 0.46710 0.42700 0.12800
H 	H 	0.11260 0.52640 0.43050 0.12700
O 	O 	0.16110 0.99250 0.02800 -0.52000
O 	O 	0.07880 0.98820 0.01740 -0.51200
C 	C 	0.12290 0.99300 0.99960 0.60800
C 	C 	0.12990 0.99670 0.94330 -0.03700
H 	H 	0.11560 0.96710 0.92700 0.08100
H 	H 	0.11260 0.02640 0.93050 -0.00200
O 	O 	0.66110 0.49250 0.02800 -0.59700
O 	O 	0.57880 0.48820 0.01740 -0.57400
C 	C 	0.62290 0.49300 0.99960 0.71100
C 	C 	0.62990 0.49670 0.94330 -0.43100
H 	H 	0.61560 0.46710 0.92700 0.17700
H 	H 	0.61260 0.52640 0.93050 0.17600
O 	O 	0.66110 0.99250 0.52800 -0.36800
O 	O 	0.57880 0.98820 0.51740 -0.34300
C 	C 	0.62290 0.99300 0.49960 0.31900
C 	C 	0.62990 0.99670 0.44330 0.12000
H 	H 	0.61560 0.96710 0.42700 0.02500
H 	H 	0.61260 0.02640 0.43050 -0.05600
O 	O 	0.58890 0.99250 0.72200 -0.36900
O 	O 	0.67120 0.98820 0.73260 -0.34500
C 	C 	0.62710 0.99300 0.75040 0.32200
C 	C 	0.62010 0.99670 0.80670 0.11000
H 	H 	0.63440 0.96710 0.82300 0.02900
H 	H 	0.63740 0.02640 0.81950 -0.05100
O 	O 	0.58890 0.49250 0.22200 -0.44800
O 	O 	0.67120 0.48820 0.23260 -0.42000
C 	C 	0.62710 0.49300 0.25040 0.42400
C 	C 	0.62010 0.49670 0.30670 -0.28200
H 	H 	0.63440 0.46710 0.32300 0.12500
H 	H 	0.63740 0.52640 0.31950 0.12600
O 	O 	0.08890 0.99250 0.22200 -0.37600
O 	O 	0.17120 0.98820 0.23260 -0.34300
C 	C 	0.12710 0.99300 0.25040 0.31400
C 	C 	0.12010 0.99670 0.30670 0.15300
H 	H 	0.13440 0.96710 0.32300 0.01600
H 	H 	0.13740 0.02640 0.31950 -0.06700
O 	O 	0.08890 0.49250 0.72200 -0.45500
O 	O 	0.17120 0.48820 0.73260 -0.42000
C 	C 	0.12710 0.49300 0.75040 0.42200
C 	C 	0.12010 0.49670 0.80670 -0.26100
H 	H 	0.13440 0.46710 0.82300 0.12100
H 	H 	0.13740 0.52640 0.81950 0.12000
O 	O 	0.75750 0.22200 0.66110 -0.44800
O 	O 	0.76180 0.23260 0.57880 -0.42000
C 	C 	0.75700 0.25040 0.62290 0.42400
C 	C 	0.75330 0.30670 0.62990 -0.28200
H 	H 	0.78290 0.32300 0.61560 0.12600
H 	H 	0.72360 0.31950 0.61260 0.12600
O 	O 	0.75750 0.72200 0.16110 -0.45100
O 	O 	0.76180 0.73260 0.07880 -0.43500
C 	C 	0.75700 0.75040 0.12290 0.43100
C 	C 	0.75330 0.80670 0.12990 -0.28700
H 	H 	0.78290 0.82300 0.11560 0.13000
H 	H 	0.72360 0.81950 0.11260 0.12800
O 	O 	0.25750 0.22200 0.16110 -0.45400
O 	O 	0.26180 0.23260 0.07880 -0.43700
C 	C 	0.25700 0.25040 0.12290 0.43000
C 	C 	0.25330 0.30670 0.12990 -0.28600
H 	H 	0.28290 0.32300 0.11560 0.12800
H 	H 	0.22360 0.31950 0.11260 0.12700
O 	O 	0.25750 0.72200 0.66110 -0.44800
O 	O 	0.26180 0.73260 0.57880 -0.42000
C 	C 	0.25700 0.75040 0.62290 0.42400
C 	C 	0.25330 0.80670 0.62990 -0.28200
H 	H 	0.28290 0.82300 0.61560 0.12700
H 	H 	0.22360 0.81950 0.61260 0.12600
O 	O 	0.25750 0.02800 0.08890 -0.61200
O 	O 	0.26180 0.01740 0.17120 -0.58000
C 	C 	0.25700 0.99960 0.12710 0.71600
C 	C 	0.25330 0.94330 0.12010 -0.41300
H 	H 	0.28290 0.92700 0.13440 0.17200
H 	H 	0.22360 0.93050 0.13740 0.17000
O 	O 	0.25750 0.52800 0.58890 -0.44700
O 	O 	0.26180 0.51740 0.67120 -0.42000
C 	C 	0.25700 0.49960 0.62710 0.42400
C 	C 	0.25330 0.44330 0.62010 -0.28200
H 	H 	0.28290 0.42700 0.63440 0.12500
H 	H 	0.22360 0.43050 0.63740 0.12500
O 	O 	0.75750 0.02800 0.58890 -0.59500
O 	O 	0.76180 0.01740 0.67120 -0.57200
C 	C 	0.75700 0.99960 0.62710 0.70600
C 	C 	0.75330 0.94330 0.62010 -0.42800
H 	H 	0.78290 0.92700 0.63440 0.17600
H 	H 	0.72360 0.93050 0.63740 0.17500
O 	O 	0.75750 0.52800 0.08890 -0.45500
O 	O 	0.76180 0.51740 0.17120 -0.42000
C 	C 	0.75700 0.49960 0.12710 0.42100
C 	C 	0.75330 0.44330 0.12010 -0.26000
H 	H 	0.78290 0.42700 0.13440 0.11900
H 	H 	0.72360 0.43050 0.13740 0.11900
O 	O 	0.99250 0.72200 0.58890 -0.36900
O 	O 	0.98820 0.73260 0.67120 -0.34500
C 	C 	0.99300 0.75040 0.62710 0.32200
C 	C 	0.99670 0.80670 0.62010 0.11000
H 	H 	0.96710 0.82300 0.63440 0.02900
H 	H 	0.02640 0.81950 0.63740 -0.05100
O 	O 	0.99250 0.22200 0.08890 -0.37600
O 	O 	0.98820 0.23260 0.17120 -0.34300
C 	C 	0.99300 0.25040 0.12710 0.31400
C 	C 	0.99670 0.30670 0.12010 0.15300
H 	H 	0.96710 0.32300 0.13440 0.01600
H 	H 	0.02640 0.31950 0.13740 -0.06700
O 	O 	0.49250 0.72200 0.08890 -0.45500
O 	O 	0.48820 0.73260 0.17120 -0.42000
C 	C 	0.49300 0.75040 0.12710 0.42200
C 	C 	0.49670 0.80670 0.12010 -0.26100
H 	H 	0.46710 0.82300 0.13440 0.12100
H 	H 	0.52640 0.81950 0.13740 0.12000
O 	O 	0.49250 0.22200 0.58890 -0.44800
O 	O 	0.48820 0.23260 0.67120 -0.42000
C 	C 	0.49300 0.25040 0.62710 0.42400
C 	C 	0.49670 0.30670 0.62010 -0.28200
H 	H 	0.46710 0.32300 0.63440 0.12500
H 	H 	0.52640 0.31950 0.63740 0.12600
O 	O 	0.49250 0.52800 0.16110 -0.45100
O 	O 	0.48820 0.51740 0.07880 -0.43500
C 	C 	0.49300 0.49960 0.12290 0.43100
C 	C 	0.49670 0.44330 0.12990 -0.28600
H 	H 	0.46710 0.42700 0.11560 0.12800
H 	H 	0.52640 0.43050 0.11260 0.12700
O 	O 	0.49250 0.02800 0.66110 -0.59700
O 	O 	0.48820 0.01740 0.57880 -0.57400
C 	C 	0.49300 0.99960 0.62290 0.71100
C 	C 	0.49670 0.94330 0.62990 -0.43100
H 	H 	0.46710 0.92700 0.61560 0.17700
H 	H 	0.52640 0.93050 0.61260 0.17600
O 	O 	0.99250 0.52800 0.66110 -0.36800
O 	O 	0.98820 0.51740 0.57880 -0.34300
C 	C 	0.99300 0.49960 0.62290 0.31900
C 	C 	0.99670 0.44330 0.62990 0.12000
H 	H 	0.96710 0.42700 0.61560 0.02500
H 	H 	0.02640 0.43050 0.61260 -0.05600
O 	O 	0.99250 0.02800 0.16110 -0.52000
O 	O 	0.98820 0.01740 0.07880 -0.51200
C 	C 	0.99300 0.99960 0.12290 0.60800
C 	C 	0.99670 0.94330 0.12990 -0.03700
H 	H 	0.96710 0.92700 0.11560 0.08100
H 	H 	0.02640 0.93050 0.11260 -0.00200
O 	O 	0.66110 0.02800 0.99250 -0.51400
O 	O 	0.57880 0.01740 0.98820 -0.49400
C 	C 	0.62290 0.99960 0.99300 0.59800
C 	C 	0.62990 0.94330 0.99670 -0.03800
H 	H 	0.61560 0.92700 0.96710 0.07900
H 	H 	0.61260 0.93050 0.02640 -0.00100
O 	O 	0.66110 0.52800 0.49250 -0.44600
O 	O 	0.57880 0.51740 0.48820 -0.41900
C 	C 	0.62290 0.49960 0.49300 0.42400
C 	C 	0.62990 0.44330 0.49670 -0.28200
H 	H 	0.61560 0.42700 0.46710 0.12500
H 	H 	0.61260 0.43050 0.52640 0.12600
O 	O 	0.16110 0.02800 0.49250 -0.60500
O 	O 	0.07880 0.01740 0.48820 -0.59400
C 	C 	0.12290 0.99960 0.49300 0.72400
C 	C 	0.12990 0.94330 0.49670 -0.43800
H 	H 	0.11560 0.92700 0.46710 0.18100
H 	H 	0.11260 0.93050 0.52640 0.17800
O 	O 	0.16110 0.52800 0.99250 -0.37100
O 	O 	0.07880 0.51740 0.98820 -0.35800
C 	C 	0.12290 0.49960 0.99300 0.32400
C 	C 	0.12990 0.44330 0.99670 0.12400
H 	H 	0.11560 0.42700 0.96710 0.02600
H 	H 	0.11260 0.43050 0.02640 -0.05800
O 	O 	0.08890 0.22200 0.49250 -0.45700
O 	O 	0.17120 0.23260 0.48820 -0.42000
C 	C 	0.12710 0.25040 0.49300 0.42100
C 	C 	0.12010 0.30670 0.49670 -0.25900
H 	H 	0.13440 0.32300 0.46710 0.11900
H 	H 	0.13740 0.31950 0.52640 0.11900
O 	O 	0.08890 0.72200 0.99250 -0.37600
O 	O 	0.17120 0.73260 0.98820 -0.34400
C 	C 	0.12710 0.75040 0.99300 0.31700
C 	C 	0.12010 0.80670 0.99670 0.14000
H 	H 	0.13440 0.82300 0.96710 0.02100
H 	H 	0.13740 0.81950 0.02640 -0.06100
O 	O 	0.58890 0.22200 0.99250 -0.36800
O 	O 	0.67120 0.23260 0.98820 -0.34400
C 	C 	0.62710 0.25040 0.99300 0.31800
C 	C 	0.62010 0.30670 0.99670 0.12200
H 	H 	0.63440 0.32300 0.96710 0.02500
H 	H 	0.63740 0.31950 0.02640 -0.05700
O 	O 	0.58890 0.72200 0.49250 -0.44600
O 	O 	0.67120 0.73260 0.48820 -0.41900
C 	C 	0.62710 0.75040 0.49300 0.42400
C 	C 	0.62010 0.80670 0.49670 -0.28200
H 	H 	0.63440 0.82300 0.46710 0.12700
H 	H 	0.63740 0.81950 0.52640 0.12600
O 	O 	0.58890 0.52800 0.75750 -0.44700
O 	O 	0.67120 0.51740 0.76180 -0.41900
C 	C 	0.62710 0.49960 0.75700 0.42400
C 	C 	0.62010 0.44330 0.75330 -0.28200
H 	H 	0.63440 0.42700 0.78290 0.12600
H 	H 	0.63740 0.43050 0.72360 0.12600
O 	O 	0.58890 0.02800 0.25750 -0.60000
O 	O 	0.67120 0.01740 0.26180 -0.57600
C 	C 	0.62710 0.99960 0.25700 0.71300
C 	C 	0.62010 0.94330 0.25330 -0.43200
H 	H 	0.63440 0.92700 0.28290 0.17700
H 	H 	0.63740 0.93050 0.22360 0.17600
O 	O 	0.08890 0.52800 0.25750 -0.45600
O 	O 	0.17120 0.51740 0.26180 -0.42000
C 	C 	0.12710 0.49960 0.25700 0.42100
C 	C 	0.12010 0.44330 0.25330 -0.25900
H 	H 	0.13440 0.42700 0.28290 0.11900
H 	H 	0.13740 0.43050 0.22360 0.11900
O 	O 	0.08890 0.02800 0.75750 -0.60700
O 	O 	0.17120 0.01740 0.76180 -0.57600
C 	C 	0.12710 0.99960 0.75700 0.70900
C 	C 	0.12010 0.94330 0.75330 -0.41000
H 	H 	0.13440 0.92700 0.78290 0.17100
H 	H 	0.13740 0.93050 0.72360 0.16900
O 	O 	0.16110 0.72200 0.25750 -0.45200
O 	O 	0.07880 0.73260 0.26180 -0.43600
C 	C 	0.12290 0.75040 0.25700 0.43000
C 	C 	0.12990 0.80670 0.25330 -0.28700
H 	H 	0.11560 0.82300 0.28290 0.13000
H 	H 	0.11260 0.81950 0.22360 0.12700
O 	O 	0.16110 0.22200 0.75750 -0.45300
O 	O 	0.07880 0.23260 0.76180 -0.43600
C 	C 	0.12290 0.25040 0.75700 0.43100
C 	C 	0.12990 0.30670 0.75330 -0.28700
H 	H 	0.11560 0.32300 0.78290 0.12800
H 	H 	0.11260 0.31950 0.72360 0.12700
O 	O 	0.66110 0.72200 0.75750 -0.44700
O 	O 	0.57880 0.73260 0.76180 -0.41900
C 	C 	0.62290 0.75040 0.75700 0.42400
C 	C 	0.62990 0.80670 0.75330 -0.28300
H 	H 	0.61560 0.82300 0.78290 0.12700
H 	H 	0.61260 0.81950 0.72360 0.12600
O 	O 	0.66110 0.22200 0.25750 -0.44900
O 	O 	0.57880 0.23260 0.26180 -0.42000
C 	C 	0.62290 0.25040 0.25700 0.42400
C 	C 	0.62990 0.30670 0.25330 -0.28200
H 	H 	0.61560 0.32300 0.28290 0.12500
H 	H 	0.61260 0.31950 0.22360 0.12500
O 	O 	0.99250 0.66110 0.02800 -0.51400
O 	O 	0.98820 0.57880 0.01740 -0.49400
C 	C 	0.99300 0.62290 0.99960 0.59800
C 	C 	0.99670 0.62990 0.94330 -0.03800
H 	H 	0.96710 0.61560 0.92700 0.07900
H 	H 	0.02640 0.61260 0.93050 -0.00100
O 	O 	0.99250 0.16110 0.52800 -0.37100
O 	O 	0.98820 0.07880 0.51740 -0.35800
C 	C 	0.99300 0.12290 0.49960 0.32400
C 	C 	0.99670 0.12990 0.44330 0.12400
H 	H 	0.96710 0.11560 0.42700 0.02600
H 	H 	0.02640 0.11260 0.43050 -0.05800
O 	O 	0.49250 0.66110 0.52800 -0.44600
O 	O 	0.48820 0.57880 0.51740 -0.41900
C 	C 	0.49300 0.62290 0.49960 0.42400
C 	C 	0.49670 0.62990 0.44330 -0.28200
H 	H 	0.46710 0.61560 0.42700 0.12500
H 	H 	0.52640 0.61260 0.43050 0.12600
O 	O 	0.49250 0.16110 0.02800 -0.60500
O 	O 	0.48820 0.07880 0.01740 -0.59400
C 	C 	0.49300 0.12290 0.99960 0.72400
C 	C 	0.49670 0.12990 0.94330 -0.43800
H 	H 	0.46710 0.11560 0.92700 0.18100
H 	H 	0.52640 0.11260 0.93050 0.17800
O 	O 	0.49250 0.08890 0.22200 -0.45700
O 	O 	0.48820 0.17120 0.23260 -0.42000
C 	C 	0.49300 0.12710 0.25040 0.42100
C 	C 	0.49670 0.12010 0.30670 -0.25900
H 	H 	0.46710 0.13440 0.32300 0.11900
H 	H 	0.52640 0.13740 0.31950 0.11900
O 	O 	0.49250 0.58890 0.72200 -0.44600
O 	O 	0.48820 0.67120 0.73260 -0.41900
C 	C 	0.49300 0.62710 0.75040 0.42400
C 	C 	0.49670 0.62010 0.80670 -0.28200
H 	H 	0.46710 0.63440 0.82300 0.12700
H 	H 	0.52640 0.63740 0.81950 0.12600
O 	O 	0.99250 0.08890 0.72200 -0.37600
O 	O 	0.98820 0.17120 0.73260 -0.34400
C 	C 	0.99300 0.12710 0.75040 0.31700
C 	C 	0.99670 0.12010 0.80670 0.14000
H 	H 	0.96710 0.13440 0.82300 0.02100
H 	H 	0.02640 0.13740 0.81950 -0.06100
O 	O 	0.99250 0.58890 0.22200 -0.36800
O 	O 	0.98820 0.67120 0.23260 -0.34400
C 	C 	0.99300 0.62710 0.25040 0.31800
C 	C 	0.99670 0.62010 0.30670 0.12200
H 	H 	0.96710 0.63440 0.32300 0.02500
H 	H 	0.02640 0.63740 0.31950 -0.05700
O 	O 	0.75750 0.58890 0.52800 -0.44700
O 	O 	0.76180 0.67120 0.51740 -0.41900
C 	C 	0.75700 0.62710 0.49960 0.42400
C 	C 	0.75330 0.62010 0.44330 -0.28200
H 	H 	0.78290 0.63440 0.42700 0.12600
H 	H 	0.72360 0.63740 0.43050 0.12600
O 	O 	0.75750 0.08890 0.02800 -0.60700
O 	O 	0.76180 0.17120 0.01740 -0.57600
C 	C 	0.75700 0.12710 0.99960 0.70900
C 	C 	0.75330 0.12010 0.94330 -0.41000
H 	H 	0.78290 0.13440 0.92700 0.17100
H 	H 	0.72360 0.13740 0.93050 0.16900
O 	O 	0.25750 0.58890 0.02800 -0.60000
O 	O 	0.26180 0.67120 0.01740 -0.57600
C 	C 	0.25700 0.62710 0.99960 0.71300
C 	C 	0.25330 0.62010 0.94330 -0.43200
H 	H 	0.28290 0.63440 0.92700 0.17700
H 	H 	0.22360 0.63740 0.93050 0.17600
O 	O 	0.25750 0.08890 0.52800 -0.45600
O 	O 	0.26180 0.17120 0.51740 -0.42000
C 	C 	0.25700 0.12710 0.49960 0.42100
C 	C 	0.25330 0.12010 0.44330 -0.25900
H 	H 	0.28290 0.13440 0.42700 0.11900
H 	H 	0.22360 0.13740 0.43050 0.11900
O 	O 	0.25750 0.16110 0.72200 -0.45200
O 	O 	0.26180 0.07880 0.73260 -0.43600
C 	C 	0.25700 0.12290 0.75040 0.43000
C 	C 	0.25330 0.12990 0.80670 -0.28700
H 	H 	0.28290 0.11560 0.82300 0.13000
H 	H 	0.22360 0.11260 0.81950 0.12700
O 	O 	0.25750 0.66110 0.22200 -0.44900
O 	O 	0.26180 0.57880 0.23260 -0.42000
C 	C 	0.25700 0.62290 0.25040 0.42400
C 	C 	0.25330 0.62990 0.30670 -0.28200
H 	H 	0.28290 0.61560 0.32300 0.12500
H 	H 	0.22360 0.61260 0.31950 0.12500
O 	O 	0.75750 0.16110 0.22200 -0.45300
O 	O 	0.76180 0.07880 0.23260 -0.43600
C 	C 	0.75700 0.12290 0.25040 0.43100
C 	C 	0.75330 0.12990 0.30670 -0.28700
H 	H 	0.78290 0.11560 0.32300 0.12800
H 	H 	0.72360 0.11260 0.31950 0.12700
O 	O 	0.75750 0.66110 0.72200 -0.44700
O 	O 	0.76180 0.57880 0.73260 -0.41900
C 	C 	0.75700 0.62290 0.75040 0.42400
C 	C 	0.75330 0.62990 0.80670 -0.28300
H 	H 	0.78290 0.61560 0.82300 0.12700
H 	H 	0.72360 0.61260 0.81950 0.12600
O 	O 	0.02800 0.99250 0.66110 -0.51400
O 	O 	0.01740 0.98820 0.57880 -0.49400
C 	C 	0.99960 0.99300 0.62290 0.59800
C 	C 	0.94330 0.99670 0.62990 -0.03800
H 	H 	0.92700 0.96710 0.61560 0.07900
H 	H 	0.93050 0.02640 0.61260 -0.00100
O 	O 	0.02800 0.49250 0.16110 -0.60500
O 	O 	0.01740 0.48820 0.07880 -0.59400
C 	C 	0.99960 0.49300 0.12290 0.72400
C 	C 	0.94330 0.49670 0.12990 -0.43800
H 	H 	0.92700 0.46710 0.11560 0.18100
H 	H 	0.93050 0.52640 0.11260 0.17800
O 	O 	0.52800 0.99250 0.16110 -0.37100
O 	O 	0.51740 0.98820 0.07880 -0.35800
C 	C 	0.49960 0.99300 0.12290 0.32400
C 	C 	0.44330 0.99670 0.12990 0.12400
H 	H 	0.42700 0.96710 0.11560 0.02600
H 	H 	0.43050 0.02640 0.11260 -0.05800
O 	O 	0.52800 0.49250 0.66110 -0.44600
O 	O 	0.51740 0.48820 0.57880 -0.41900
C 	C 	0.49960 0.49300 0.62290 0.42400
C 	C 	0.44330 0.49670 0.62990 -0.28200
H 	H 	0.42700 0.46710 0.61560 0.12500
H 	H 	0.43050 0.52640 0.61260 0.12600
O 	O 	0.22200 0.49250 0.08890 -0.45700
O 	O 	0.23260 0.48820 0.17120 -0.42000
C 	C 	0.25040 0.49300 0.12710 0.42100
C 	C 	0.30670 0.49670 0.12010 -0.25900
H 	H 	0.32300 0.46710 0.13440 0.11900
H 	H 	0.31950 0.52640 0.13740 0.11900
O 	O 	0.22200 0.99250 0.58890 -0.36800
O 	O 	0.23260 0.98820 0.67120 -0.34400
C 	C 	0.25040 0.99300 0.62710 0.31800
C 	C 	0.30670 0.99670 0.62010 0.12200
H 	H 	0.32300 0.96710 0.63440 0.02500
H 	H 	0.31950 0.02640 0.63740 -0.05700
O 	O 	0.72200 0.49250 0.58890 -0.44600
O 	O 	0.73260 0.48820 0.67120 -0.41900
C 	C 	0.75040 0.49300 0.62710 0.42400
C 	C 	0.80670 0.49670 0.62010 -0.28200
H 	H 	0.82300 0.46710 0.63440 0.12700
H 	H 	0.81950 0.52640 0.63740 0.12600
O 	O 	0.72200 0.99250 0.08890 -0.37600
O 	O 	0.73260 0.98820 0.17120 -0.34400
C 	C 	0.75040 0.99300 0.12710 0.31700
C 	C 	0.80670 0.99670 0.12010 0.14000
H 	H 	0.82300 0.96710 0.13440 0.02100
H 	H 	0.81950 0.02640 0.13740 -0.06100
O 	O 	0.52800 0.75750 0.58890 -0.44700
O 	O 	0.51740 0.76180 0.67120 -0.41900
C 	C 	0.49960 0.75700 0.62710 0.42400
C 	C 	0.44330 0.75330 0.62010 -0.28200
H 	H 	0.42700 0.78290 0.63440 0.12600
H 	H 	0.43050 0.72360 0.63740 0.12600
O 	O 	0.52800 0.25750 0.08890 -0.45600
O 	O 	0.51740 0.26180 0.17120 -0.42000
C 	C 	0.49960 0.25700 0.12710 0.42100
C 	C 	0.44330 0.25330 0.12010 -0.25900
H 	H 	0.42700 0.28290 0.13440 0.11900
H 	H 	0.43050 0.22360 0.13740 0.11900
O 	O 	0.02800 0.75750 0.08890 -0.60700
O 	O 	0.01740 0.76180 0.17120 -0.57600
C 	C 	0.99960 0.75700 0.12710 0.70900
C 	C 	0.94330 0.75330 0.12010 -0.41000
H 	H 	0.92700 0.78290 0.13440 0.17100
H 	H 	0.93050 0.72360 0.13740 0.16900
O 	O 	0.02800 0.25750 0.58890 -0.60000
O 	O 	0.01740 0.26180 0.67120 -0.57600
C 	C 	0.99960 0.25700 0.62710 0.71300
C 	C 	0.94330 0.25330 0.62010 -0.43200
H 	H 	0.92700 0.28290 0.63440 0.17700
H 	H 	0.93050 0.22360 0.63740 0.17600
O 	O 	0.72200 0.25750 0.16110 -0.45200
O 	O 	0.73260 0.26180 0.07880 -0.43600
C 	C 	0.75040 0.25700 0.12290 0.43000
C 	C 	0.80670 0.25330 0.12990 -0.28700
H 	H 	0.82300 0.28290 0.11560 0.13000
H 	H 	0.81950 0.22360 0.11260 0.12700
O 	O 	0.72200 0.75750 0.66110 -0.44700
O 	O 	0.73260 0.76180 0.57880 -0.41900
C 	C 	0.75040 0.75700 0.62290 0.42400
C 	C 	0.80670 0.75330 0.62990 -0.28300
H 	H 	0.82300 0.78290 0.61560 0.12700
H 	H 	0.81950 0.72360 0.61260 0.12600
O 	O 	0.22200 0.25750 0.66110 -0.44900
O 	O 	0.23260 0.26180 0.57880 -0.42000
C 	C 	0.25040 0.25700 0.62290 0.42400
C 	C 	0.30670 0.25330 0.62990 -0.28200
H 	H 	0.32300 0.28290 0.61560 0.12500
H 	H 	0.31950 0.22360 0.61260 0.12500
O 	O 	0.22200 0.75750 0.16110 -0.45300
O 	O 	0.23260 0.76180 0.07880 -0.43600
C 	C 	0.25040 0.75700 0.12290 0.43100
C 	C 	0.30670 0.75330 0.12990 -0.28700
H 	H 	0.32300 0.78290 0.11560 0.12800
H 	H 	0.31950 0.72360 0.11260 0.12700
O 	O 	0.27800 0.41110 0.00750 -0.48600
O 	O 	0.26740 0.32880 0.01180 -0.46300
C 	C 	0.24960 0.37290 0.00700 0.46900
C 	C 	0.19330 0.37990 0.00330 -0.47200
H 	H 	0.17700 0.36560 0.03290 0.17000
H 	H 	0.18050 0.36260 0.97360 0.25500
O 	O 	0.27800 0.91110 0.50750 -0.41600
O 	O 	0.26740 0.82880 0.51180 -0.41600
C 	C 	0.24960 0.87290 0.50700 0.42400
C 	C 	0.19330 0.87990 0.50330 -0.30300
H 	H 	0.17700 0.86560 0.53290 0.13200
H 	H 	0.18050 0.86260 0.47360 0.13400
O 	O 	0.77800 0.41110 0.50750 -0.44400
O 	O 	0.76740 0.32880 0.51180 -0.41700
C 	C 	0.74960 0.37290 0.50700 0.42400
C 	C 	0.69330 0.37990 0.50330 -0.28100
H 	H 	0.67700 0.36560 0.53290 0.12500
H 	H 	0.68050 0.36260 0.47360 0.12600
O 	O 	0.77800 0.91110 0.00750 -0.45200
O 	O 	0.76740 0.82880 0.01180 -0.45700
C 	C 	0.74960 0.87290 0.00700 0.46600
C 	C 	0.69330 0.87990 0.00330 -0.48200
H 	H 	0.67700 0.86560 0.03290 0.17400
H 	H 	0.68050 0.86260 0.97360 0.25500
O 	O 	0.47200 0.83890 0.50750 -0.43900
O 	O 	0.48260 0.92120 0.51180 -0.38800
C 	C 	0.50040 0.87710 0.50700 0.41500
C 	C 	0.55670 0.87010 0.50330 -0.27600
H 	H 	0.57300 0.88440 0.53290 0.12300
H 	H 	0.56950 0.88740 0.47360 0.12800
O 	O 	0.47200 0.33890 0.00750 -0.48600
O 	O 	0.48260 0.42120 0.01180 -0.46300
C 	C 	0.50040 0.37710 0.00700 0.46800
C 	C 	0.55670 0.37010 0.00330 -0.46900
H 	H 	0.57300 0.38440 0.03290 0.16900
H 	H 	0.56950 0.38740 0.97360 0.25300
O 	O 	0.97200 0.83890 0.00750 -0.31500
O 	O 	0.98260 0.92120 0.01180 -0.26300
C 	C 	0.00040 0.87710 0.00700 0.17300
C 	C 	0.05670 0.87010 0.00330 -0.31100
H 	H 	0.07300 0.88440 0.03290 0.11900
H 	H 	0.06950 0.88740 0.97360 0.20400
O 	O 	0.97200 0.33890 0.50750 -0.28000
O 	O 	0.98260 0.42120 0.51180 -0.24600
C 	C 	0.00040 0.37710 0.50700 0.13300
C 	C 	0.05670 0.37010 0.50330 -0.13000
H 	H 	0.07300 0.38440 0.53290 0.07600
H 	H 	0.06950 0.38740 0.47360 0.07700
O 	O 	0.77800 0.33890 0.24250 -0.44300
O 	O 	0.76740 0.42120 0.23820 -0.41700
C 	C 	0.74960 0.37710 0.24300 0.42500
C 	C 	0.69330 0.37010 0.24670 -0.28100
H 	H 	0.67700 0.38440 0.21710 0.12500
H 	H 	0.68050 0.38740 0.27640 0.12600
O 	O 	0.77800 0.83890 0.74250 -0.43600
O 	O 	0.76740 0.92120 0.73820 -0.38700
C 	C 	0.74960 0.87710 0.74300 0.41600
C 	C 	0.69330 0.87010 0.74670 -0.27700
H 	H 	0.67700 0.88440 0.71710 0.12300
H 	H 	0.68050 0.88740 0.77640 0.12900
O 	O 	0.27800 0.33890 0.74250 -0.44500
O 	O 	0.26740 0.42120 0.73820 -0.41800
C 	C 	0.24960 0.37710 0.74300 0.42600
C 	C 	0.19330 0.37010 0.74670 -0.28300
H 	H 	0.17700 0.38440 0.71710 0.12500
H 	H 	0.18050 0.38740 0.77640 0.12800
O 	O 	0.27800 0.83890 0.24250 -0.43900
O 	O 	0.26740 0.92120 0.23820 -0.38700
C 	C 	0.24960 0.87710 0.24300 0.41500
C 	C 	0.19330 0.87010 0.24670 -0.27700
H 	H 	0.17700 0.88440 0.21710 0.12400
H 	H 	0.18050 0.88740 0.27640 0.12800
O 	O 	0.97200 0.91110 0.74250 -0.25900
O 	O 	0.98260 0.82880 0.73820 -0.25000
C 	C 	0.00040 0.87290 0.74300 0.14700
C 	C 	0.05670 0.87990 0.74670 -0.15900
H 	H 	0.07300 0.86560 0.71710 0.08500
H 	H 	0.06950 0.86260 0.77640 0.08700
O 	O 	0.97200 0.41110 0.24250 -0.27900
O 	O 	0.98260 0.32880 0.23820 -0.24400
C 	C 	0.00040 0.37290 0.24300 0.13100
C 	C 	0.05670 0.37990 0.24670 -0.12900
H 	H 	0.07300 0.36560 0.21710 0.07600
H 	H 	0.06950 0.36260 0.27640 0.07600
O 	O 	0.47200 0.91110 0.24250 -0.41600
O 	O 	0.48260 0.82880 0.23820 -0.41500
C 	C 	0.50040 0.87290 0.24300 0.42400
C 	C 	0.55670 0.87990 0.24670 -0.30200
H 	H 	0.57300 0.86560 0.21710 0.13200
H 	H 	0.56950 0.86260 0.27640 0.13300
O 	O 	0.47200 0.41110 0.74250 -0.44500
O 	O 	0.48260 0.32880 0.73820 -0.41700
C 	C 	0.50040 0.37290 0.74300 0.42500
C 	C 	0.55670 0.37990 0.74670 -0.28200
H 	H 	0.57300 0.36560 0.71710 0.12500
H 	H 	0.56950 0.36260 0.77640 0.12700
O 	O 	0.91110 0.74250 0.97200 -0.25900
O 	O 	0.82880 0.73820 0.98260 -0.25000
C 	C 	0.87290 0.74300 0.00040 0.14700
C 	C 	0.87990 0.74670 0.05670 -0.15900
H 	H 	0.86560 0.71710 0.07300 0.08500
H 	H 	0.86260 0.77640 0.06950 0.08700
O 	O 	0.91110 0.24250 0.47200 -0.41600
O 	O 	0.82880 0.23820 0.48260 -0.41500
C 	C 	0.87290 0.24300 0.50040 0.42400
C 	C 	0.87990 0.24670 0.55670 -0.30200
H 	H 	0.86560 0.21710 0.57300 0.13200
H 	H 	0.86260 0.27640 0.56950 0.13300
O 	O 	0.41110 0.74250 0.47200 -0.44500
O 	O 	0.32880 0.73820 0.48260 -0.41700
C 	C 	0.37290 0.74300 0.50040 0.42500
C 	C 	0.37990 0.74670 0.55670 -0.28200
H 	H 	0.36560 0.71710 0.57300 0.12500
H 	H 	0.36260 0.77640 0.56950 0.12700
O 	O 	0.41110 0.24250 0.97200 -0.27900
O 	O 	0.32880 0.23820 0.98260 -0.24400
C 	C 	0.37290 0.24300 0.00040 0.13100
C 	C 	0.37990 0.24670 0.05670 -0.12900
H 	H 	0.36560 0.21710 0.07300 0.07600
H 	H 	0.36260 0.27640 0.06950 0.07600
O 	O 	0.33890 0.24250 0.77800 -0.44300
O 	O 	0.42120 0.23820 0.76740 -0.41700
C 	C 	0.37710 0.24300 0.74960 0.42500
C 	C 	0.37010 0.24670 0.69330 -0.28100
H 	H 	0.38440 0.21710 0.67700 0.12500
H 	H 	0.38740 0.27640 0.68050 0.12600
O 	O 	0.33890 0.74250 0.27800 -0.44500
O 	O 	0.42120 0.73820 0.26740 -0.41800
C 	C 	0.37710 0.74300 0.24960 0.42600
C 	C 	0.37010 0.74670 0.19330 -0.28300
H 	H 	0.38440 0.71710 0.17700 0.12500
H 	H 	0.38740 0.77640 0.18050 0.12800
O 	O 	0.83890 0.24250 0.27800 -0.43900
O 	O 	0.92120 0.23820 0.26740 -0.38700
C 	C 	0.87710 0.24300 0.24960 0.41500
C 	C 	0.87010 0.24670 0.19330 -0.27700
H 	H 	0.88440 0.21710 0.17700 0.12400
H 	H 	0.88740 0.27640 0.18050 0.12800
O 	O 	0.83890 0.74250 0.77800 -0.43600
O 	O 	0.92120 0.73820 0.76740 -0.38700
C 	C 	0.87710 0.74300 0.74960 0.41600
C 	C 	0.87010 0.74670 0.69330 -0.27700
H 	H 	0.88440 0.71710 0.67700 0.12300
H 	H 	0.88740 0.77640 0.68050 0.12900
O 	O 	0.83890 0.50750 0.47200 -0.43900
O 	O 	0.92120 0.51180 0.48260 -0.38800
C 	C 	0.87710 0.50700 0.50040 0.41500
C 	C 	0.87010 0.50330 0.55670 -0.27600
H 	H 	0.88440 0.53290 0.57300 0.12300
H 	H 	0.88740 0.47360 0.56950 0.12800
O 	O 	0.83890 0.00750 0.97200 -0.31500
O 	O 	0.92120 0.01180 0.98260 -0.26300
C 	C 	0.87710 0.00700 0.00040 0.17300
C 	C 	0.87010 0.00330 0.05670 -0.31100
H 	H 	0.88440 0.03290 0.07300 0.11900
H 	H 	0.88740 0.97360 0.06950 0.20400
O 	O 	0.33890 0.50750 0.97200 -0.28000
O 	O 	0.42120 0.51180 0.98260 -0.24600
C 	C 	0.37710 0.50700 0.00040 0.13300
C 	C 	0.37010 0.50330 0.05670 -0.13000
H 	H 	0.38440 0.53290 0.07300 0.07600
H 	H 	0.38740 0.47360 0.06950 0.07700
O 	O 	0.33890 0.00750 0.47200 -0.48600
O 	O 	0.42120 0.01180 0.48260 -0.46300
C 	C 	0.37710 0.00700 0.50040 0.46800
C 	C 	0.37010 0.00330 0.55670 -0.46900
H 	H 	0.38440 0.03290 0.57300 0.16900
H 	H 	0.38740 0.97360 0.56950 0.25300
O 	O 	0.41110 0.00750 0.27800 -0.48600
O 	O 	0.32880 0.01180 0.26740 -0.46300
C 	C 	0.37290 0.00700 0.24960 0.46900
C 	C 	0.37990 0.00330 0.19330 -0.47200
H 	H 	0.36560 0.03290 0.17700 0.17000
H 	H 	0.36260 0.97360 0.18050 0.25500
O 	O 	0.41110 0.50750 0.77800 -0.44400
O 	O 	0.32880 0.51180 0.76740 -0.41700
C 	C 	0.37290 0.50700 0.74960 0.42400
C 	C 	0.37990 0.50330 0.69330 -0.28100
H 	H 	0.36560 0.53290 0.67700 0.12500
H 	H 	0.36260 0.47360 0.68050 0.12600
O 	O 	0.91110 0.00750 0.77800 -0.45200
O 	O 	0.82880 0.01180 0.76740 -0.45700
C 	C 	0.87290 0.00700 0.74960 0.46600
C 	C 	0.87990 0.00330 0.69330 -0.48200
H 	H 	0.86560 0.03290 0.67700 0.17400
H 	H 	0.86260 0.97360 0.68050 0.25500
O 	O 	0.91110 0.50750 0.27800 -0.41600
O 	O 	0.82880 0.51180 0.26740 -0.41600
C 	C 	0.87290 0.50700 0.24960 0.42400
C 	C 	0.87990 0.50330 0.19330 -0.30300
H 	H 	0.86560 0.53290 0.17700 0.13200
H 	H 	0.86260 0.47360 0.18050 0.13400
O 	O 	0.24250 0.77800 0.33890 -0.44300
O 	O 	0.23820 0.76740 0.42120 -0.41700
C 	C 	0.24300 0.74960 0.37710 0.42500
C 	C 	0.24670 0.69330 0.37010 -0.28100
H 	H 	0.21710 0.67700 0.38440 0.12500
H 	H 	0.27640 0.68050 0.38740 0.12600
O 	O 	0.24250 0.27800 0.83890 -0.43900
O 	O 	0.23820 0.26740 0.92120 -0.38700
C 	C 	0.24300 0.24960 0.87710 0.41500
C 	C 	0.24670 0.19330 0.87010 -0.27700
H 	H 	0.21710 0.17700 0.88440 0.12400
H 	H 	0.27640 0.18050 0.88740 0.12800
O 	O 	0.74250 0.77800 0.83890 -0.43600
O 	O 	0.73820 0.76740 0.92120 -0.38700
C 	C 	0.74300 0.74960 0.87710 0.41600
C 	C 	0.74670 0.69330 0.87010 -0.27700
H 	H 	0.71710 0.67700 0.88440 0.12300
H 	H 	0.77640 0.68050 0.88740 0.12900
O 	O 	0.74250 0.27800 0.33890 -0.44500
O 	O 	0.73820 0.26740 0.42120 -0.41800
C 	C 	0.74300 0.24960 0.37710 0.42600
C 	C 	0.74670 0.19330 0.37010 -0.28300
H 	H 	0.71710 0.17700 0.38440 0.12500
H 	H 	0.77640 0.18050 0.38740 0.12800
O 	O 	0.74250 0.97200 0.91110 -0.25900
O 	O 	0.73820 0.98260 0.82880 -0.25000
C 	C 	0.74300 0.00040 0.87290 0.14700
C 	C 	0.74670 0.05670 0.87990 -0.15900
H 	H 	0.71710 0.07300 0.86560 0.08500
H 	H 	0.77640 0.06950 0.86260 0.08700
O 	O 	0.74250 0.47200 0.41110 -0.44500
O 	O 	0.73820 0.48260 0.32880 -0.41700
C 	C 	0.74300 0.50040 0.37290 0.42500
C 	C 	0.74670 0.55670 0.37990 -0.28200
H 	H 	0.71710 0.57300 0.36560 0.12500
H 	H 	0.77640 0.56950 0.36260 0.12700
O 	O 	0.24250 0.97200 0.41110 -0.27900
O 	O 	0.23820 0.98260 0.32880 -0.24400
C 	C 	0.24300 0.00040 0.37290 0.13100
C 	C 	0.24670 0.05670 0.37990 -0.12900
H 	H 	0.21710 0.07300 0.36560 0.07600
H 	H 	0.27640 0.06950 0.36260 0.07600
O 	O 	0.24250 0.47200 0.91110 -0.41600
O 	O 	0.23820 0.48260 0.82880 -0.41500
C 	C 	0.24300 0.50040 0.87290 0.42400
C 	C 	0.24670 0.55670 0.87990 -0.30200
H 	H 	0.21710 0.57300 0.86560 0.13200
H 	H 	0.27640 0.56950 0.86260 0.13300
O 	O 	0.00750 0.27800 0.41110 -0.48600
O 	O 	0.01180 0.26740 0.32880 -0.46300
C 	C 	0.00700 0.24960 0.37290 0.46900
C 	C 	0.00330 0.19330 0.37990 -0.47200
H 	H 	0.03290 0.17700 0.36560 0.17000
H 	H 	0.97360 0.18050 0.36260 0.25500
O 	O 	0.00750 0.77800 0.91110 -0.45200
O 	O 	0.01180 0.76740 0.82880 -0.45700
C 	C 	0.00700 0.74960 0.87290 0.46600
C 	C 	0.00330 0.69330 0.87990 -0.48200
H 	H 	0.03290 0.67700 0.86560 0.17400
H 	H 	0.97360 0.68050 0.86260 0.25500
O 	O 	0.50750 0.27800 0.91110 -0.41600
O 	O 	0.51180 0.26740 0.82880 -0.41600
C 	C 	0.50700 0.24960 0.87290 0.42400
C 	C 	0.50330 0.19330 0.87990 -0.30300
H 	H 	0.53290 0.17700 0.86560 0.13200
H 	H 	0.47360 0.18050 0.86260 0.13400
O 	O 	0.50750 0.77800 0.41110 -0.44400
O 	O 	0.51180 0.76740 0.32880 -0.41700
C 	C 	0.50700 0.74960 0.37290 0.42400
C 	C 	0.50330 0.69330 0.37990 -0.28100
H 	H 	0.53290 0.67700 0.36560 0.12500
H 	H 	0.47360 0.68050 0.36260 0.12600
O 	O 	0.50750 0.47200 0.83890 -0.43900
O 	O 	0.51180 0.48260 0.92120 -0.38800
C 	C 	0.50700 0.50040 0.87710 0.41500
C 	C 	0.50330 0.55670 0.87010 -0.27600
H 	H 	0.53290 0.57300 0.88440 0.12300
H 	H 	0.47360 0.56950 0.88740 0.12800
O 	O 	0.50750 0.97200 0.33890 -0.28000
O 	O 	0.51180 0.98260 0.42120 -0.24600
C 	C 	0.50700 0.00040 0.37710 0.13300
C 	C 	0.50330 0.05670 0.37010 -0.13000
H 	H 	0.53290 0.07300 0.38440 0.07600
H 	H 	0.47360 0.06950 0.38740 0.07700
O 	O 	0.00750 0.47200 0.33890 -0.48600
O 	O 	0.01180 0.48260 0.42120 -0.46300
C 	C 	0.00700 0.50040 0.37710 0.46800
C 	C 	0.00330 0.55670 0.37010 -0.46900
H 	H 	0.03290 0.57300 0.38440 0.16900
H 	H 	0.97360 0.56950 0.38740 0.25300
O 	O 	0.00750 0.97200 0.83890 -0.31500
O 	O 	0.01180 0.98260 0.92120 -0.26300
C 	C 	0.00700 0.00040 0.87710 0.17300
C 	C 	0.00330 0.05670 0.87010 -0.31100
H 	H 	0.03290 0.07300 0.88440 0.11900
H 	H 	0.97360 0.06950 0.88740 0.20400
Ce	Ce	0.25000 0.00000 -0.00000 2.09200
Ce	Ce	0.25000 0.50000 0.50000 2.17600
Ce	Ce	0.75000 0.50000 -0.00000 2.13500
Ce	Ce	0.00000 0.75000 0.50000 2.13500
Ce	Ce	0.50000 0.75000 -0.00000 2.13500
Ce	Ce	0.50000 0.50000 0.25000 2.17600
Ce	Ce	0.75000 0.25000 0.75000 2.17600
Ce	Ce	0.00000 0.25000 -0.00000 2.09200
Ce	Ce	0.50000 0.25000 0.50000 2.17600
Ce	Ce	0.50000 0.00000 0.75000 2.13500
Ce	Ce	0.75000 0.00000 0.50000 2.13500
Ce	Ce	0.75000 0.75000 0.25000 2.17600
Ce	Ce	0.00000 0.00000 0.25000 2.09200
Ce	Ce	0.00000 0.50000 0.75000 2.13500
Ce	Ce	0.25000 0.75000 0.75000 2.17600
Ce	Ce	0.25000 0.25000 0.25000 2.17600
Ce	Ce	0.75000 0.00000 -0.00000 2.09400
Ce	Ce	0.00000 0.25000 0.50000 2.13400
Ce	Ce	0.50000 0.50000 0.75000 2.17600
Ce	Ce	0.25000 0.75000 0.25000 2.17600
Ce	Ce	0.75000 0.75000 0.75000 2.17600
Ce	Ce	0.00000 0.75000 -0.00000 2.09400
Ce	Ce	0.50000 0.00000 0.25000 2.13400
Ce	Ce	0.75000 0.50000 0.50000 2.17600
Ce	Ce	0.25000 0.25000 0.75000 2.17600
Ce	Ce	0.00000 0.00000 0.75000 2.09400
Ce	Ce	0.00000 0.50000 0.25000 2.13400
Ce	Ce	0.25000 0.50000 -0.00000 2.13400
Ce	Ce	0.25000 0.00000 0.50000 2.13400
Ce	Ce	0.50000 0.75000 0.50000 2.17600
Ce	Ce	0.50000 0.25000 -0.00000 2.13400
Ce	Ce	0.75000 0.25000 0.25000 2.17600
Mn	Mn	0.50000 0.00000 -0.00000 1.24600
Mn	Mn	0.50000 0.50000 0.50000 1.33200
Mn	Mn	0.75000 0.75000 0.50000 1.33200
Mn	Mn	0.25000 0.75000 -0.00000 1.28900
Mn	Mn	0.25000 0.50000 0.25000 1.33100
Mn	Mn	0.75000 0.00000 0.25000 1.28900
Mn	Mn	0.00000 0.25000 0.75000 1.28900
Mn	Mn	0.00000 0.50000 -0.00000 1.24600
Mn	Mn	0.50000 0.75000 0.75000 1.33200
Mn	Mn	0.25000 0.25000 0.50000 1.33100
Mn	Mn	0.00000 0.00000 0.50000 1.24600
Mn	Mn	0.75000 0.50000 0.75000 1.33200
Mn	Mn	0.50000 0.25000 0.25000 1.33100
Mn	Mn	0.75000 0.75000 -0.00000 1.29000
Mn	Mn	0.50000 0.00000 0.50000 1.28900
Mn	Mn	0.25000 0.50000 0.75000 1.33200
Mn	Mn	0.25000 0.00000 0.25000 1.28800
Mn	Mn	0.75000 0.00000 0.75000 1.29000
Mn	Mn	0.00000 0.25000 0.25000 1.28800
Mn	Mn	0.25000 0.25000 -0.00000 1.28800
Mn	Mn	0.50000 0.75000 0.25000 1.33200
Mn	Mn	0.00000 0.75000 0.75000 1.29000
Mn	Mn	0.00000 0.50000 0.50000 1.28900
Mn	Mn	-0.00000 0.00000 -0.00000 1.20200
Mn	Mn	0.75000 0.25000 0.50000 1.33200
Mn	Mn	0.50000 0.50000 -0.00000 1.28900
Mn	Mn	0.00000 0.75000 0.25000 1.28900
Mn	Mn	0.25000 0.00000 0.75000 1.28900
Mn	Mn	0.75000 0.25000 -0.00000 1.28900
Mn	Mn	0.25000 0.75000 0.50000 1.33200
Mn	Mn	0.75000 0.50000 0.25000 1.33200
Mn	Mn	0.50000 0.25000 0.75000 1.33200
O 	O 	0.31780 0.06780 -0.00000 -0.38300
O 	O 	0.31780 0.56780 0.50000 -0.22800
O 	O 	0.81780 0.56780 -0.00000 -0.33800
O 	O 	0.93220 0.68220 0.50000 -0.17900
O 	O 	0.93220 0.18220 -0.00000 -0.28700
O 	O 	0.43220 0.68220 -0.00000 -0.34000
O 	O 	0.43220 0.56780 0.25000 -0.22800
O 	O 	0.43220 0.06780 0.75000 -0.26700
O 	O 	0.81780 0.18220 0.75000 -0.22700
O 	O 	0.81780 0.68220 0.25000 -0.22900
O 	O 	0.00000 0.31780 0.06780 -0.38300
O 	O 	0.00000 0.81780 0.56780 -0.33800
O 	O 	0.50000 0.31780 0.56780 -0.22800
O 	O 	0.50000 0.93220 0.68220 -0.17900
O 	O 	0.00000 0.93220 0.18220 -0.28700
O 	O 	0.00000 0.43220 0.68220 -0.34000
O 	O 	0.25000 0.43220 0.56780 -0.22800
O 	O 	0.75000 0.43220 0.06780 -0.26700
O 	O 	0.75000 0.81780 0.18220 -0.22700
O 	O 	0.25000 0.81780 0.68220 -0.22900
O 	O 	0.06780 0.00000 0.31780 -0.38300
O 	O 	0.06780 0.50000 0.81780 -0.26800
O 	O 	0.56780 0.00000 0.81780 -0.33800
O 	O 	0.68220 0.50000 0.93220 -0.17900
O 	O 	0.68220 0.00000 0.43220 -0.34000
O 	O 	0.56780 0.25000 0.43220 -0.22800
O 	O 	0.56780 0.75000 0.93220 -0.17900
O 	O 	0.06780 0.75000 0.43220 -0.26700
O 	O 	0.18220 0.75000 0.81780 -0.22700
O 	O 	0.18220 0.25000 0.31780 -0.22700
O 	O 	0.81780 0.06780 0.50000 -0.26800
O 	O 	0.43220 0.18220 0.50000 -0.22700
O 	O 	0.31780 0.68220 0.75000 -0.22800
O 	O 	0.31780 0.18220 0.25000 -0.22700
O 	O 	0.93220 0.06780 0.25000 -0.21600
O 	O 	0.93220 0.56780 0.75000 -0.17900
O 	O 	0.06780 0.25000 0.93220 -0.21600
O 	O 	0.68220 0.75000 0.31780 -0.22800
O 	O 	0.68220 0.25000 0.81780 -0.22900
O 	O 	0.18220 0.50000 0.43220 -0.22700
O 	O 	0.18220 0.00000 0.93220 -0.28700
O 	O 	0.56780 0.50000 0.31780 -0.22800
O 	O 	0.75000 0.31780 0.68220 -0.22800
O 	O 	0.25000 0.31780 0.18220 -0.22700
O 	O 	0.25000 0.93220 0.06780 -0.21600
O 	O 	0.75000 0.93220 0.56780 -0.17900
O 	O 	0.50000 0.81780 0.06780 -0.26800
O 	O 	0.50000 0.43220 0.18220 -0.22700
O 	O 	0.68220 0.93220 -0.00000 -0.28700
O 	O 	0.68220 0.43220 0.50000 -0.22800
O 	O 	0.18220 0.43220 -0.00000 -0.34100
O 	O 	0.06780 0.31780 0.50000 -0.26900
O 	O 	0.06780 0.81780 -0.00000 -0.38000
O 	O 	0.56780 0.43220 0.75000 -0.22800
O 	O 	0.56780 0.93220 0.25000 -0.17800
O 	O 	0.18220 0.81780 0.25000 -0.22800
O 	O 	0.18220 0.31780 0.75000 -0.22700
O 	O 	0.68220 0.81780 0.75000 -0.22800
O 	O 	0.00000 0.68220 0.93220 -0.28700
O 	O 	0.00000 0.18220 0.43220 -0.34100
O 	O 	0.50000 0.68220 0.43220 -0.22800
O 	O 	0.50000 0.06780 0.31780 -0.26900
O 	O 	0.00000 0.06780 0.81780 -0.38000
O 	O 	0.75000 0.56780 0.43220 -0.22800
O 	O 	0.25000 0.56780 0.93220 -0.17800
O 	O 	0.25000 0.18220 0.81780 -0.22800
O 	O 	0.75000 0.18220 0.31780 -0.22700
O 	O 	0.75000 0.68220 0.81780 -0.22800
O 	O 	0.93220 0.00000 0.68220 -0.28700
O 	O 	0.93220 0.50000 0.18220 -0.17700
O 	O 	0.43220 0.00000 0.18220 -0.34100
O 	O 	0.31780 0.50000 0.06780 -0.26900
O 	O 	0.31780 0.00000 0.56780 -0.34000
O 	O 	0.81780 0.00000 0.06780 -0.38000
O 	O 	0.43220 0.75000 0.56780 -0.22800
O 	O 	0.43220 0.25000 0.06780 -0.26900
O 	O 	0.81780 0.25000 0.18220 -0.22800
O 	O 	0.81780 0.75000 0.68220 -0.22800
O 	O 	0.18220 0.93220 0.50000 -0.17700
O 	O 	0.56780 0.81780 0.50000 -0.22900
O 	O 	0.56780 0.31780 -0.00000 -0.34000
O 	O 	0.68220 0.31780 0.25000 -0.22800
O 	O 	0.06780 0.93220 0.75000 -0.21700
O 	O 	0.06780 0.43220 0.25000 -0.26900
O 	O 	0.93220 0.75000 0.06780 -0.21700
O 	O 	0.93220 0.25000 0.56780 -0.17800
O 	O 	0.31780 0.25000 0.68220 -0.22800
O 	O 	0.31780 0.75000 0.18220 -0.22700
O 	O 	0.81780 0.50000 0.56780 -0.22900
O 	O 	0.43220 0.50000 0.68220 -0.22800
O 	O 	0.25000 0.68220 0.31780 -0.22800
O 	O 	0.75000 0.06780 0.93220 -0.21700
O 	O 	0.25000 0.06780 0.43220 -0.26900
O 	O 	0.50000 0.18220 0.93220 -0.17700
O 	O 	0.50000 0.56780 0.81780 -0.22900
O 	O 	0.00000 0.56780 0.31780 -0.34000
