data_crystal

_cell_length_a 35.61000
_cell_length_b 17.81300
_cell_length_c 32.23500
_cell_angle_alpha 90.00000
_cell_angle_beta  112.74900
_cell_angle_gamma 90.00000

_symmetry_space_group_name_	'P 1'
_symmetry_space_group_name_H-M	'P 1'

loop_
_symmetry_equiv_pos_as_xyz
  x,y,z

loop_
_atom_site_label
_atom_site_type_symbol
_atom_site_fract_x
_atom_site_fract_y
_atom_site_fract_z
_atom_site_charge
C 	C 	0.16160 0.37750 0.32230 0.10000
C 	C 	0.15050 0.30880 0.33470 0.03500
C 	C 	0.11970 0.30580 0.34930 -0.03600
H 	H 	0.11240 0.25900 0.35810 0.08900
C 	C 	0.09870 0.36990 0.35160 -0.06400
C 	C 	0.10940 0.43620 0.33790 -0.02100
H 	H 	0.09470 0.48040 0.33860 0.06100
C 	C 	0.14010 0.44100 0.32360 0.02200
C 	C 	0.15360 0.51600 0.31250 -0.14400
H 	H 	0.14700 0.55490 0.33060 0.10400
H 	H 	0.18360 0.51490 0.32220 0.10400
C 	C 	0.13550 0.54000 0.26390 -0.05600
C 	C 	0.10700 0.59560 0.25090 0.05000
H 	H 	0.09760 0.61680 0.27220 0.04100
C 	C 	0.09210 0.62050 0.20890 -0.15200
C 	C 	0.10510 0.58960 0.17730 0.05500
H 	H 	0.09490 0.60860 0.14750 -0.02000
C 	C 	0.13230 0.53230 0.18880 -0.06800
C 	C 	0.14830 0.50840 0.23280 0.21200
C 	C 	0.14600 0.49790 0.15500 -0.07200
H 	H 	0.15090 0.44370 0.16180 0.06400
H 	H 	0.12370 0.50230 0.12490 0.05000
C 	C 	0.18320 0.53120 0.15280 -0.04700
C 	C 	0.17950 0.59320 0.12600 0.00800
H 	H 	0.15350 0.61540 0.11060 0.04200
C 	C 	0.21270 0.62270 0.12150 -0.07200
C 	C 	0.24990 0.58910 0.14210 -0.01600
H 	H 	0.27300 0.60800 0.13770 0.05500
C 	C 	0.25350 0.52850 0.16900 0.00000
C 	C 	0.22050 0.50140 0.17430 0.17800
C 	C 	0.29510 0.49340 0.19250 -0.13000
H 	H 	0.31300 0.52960 0.21460 0.08700
H 	H 	0.29240 0.44850 0.20930 0.12500
C 	C 	0.31460 0.47080 0.16050 -0.01800
C 	C 	0.34590 0.50930 0.15940 0.01400
H 	H 	0.35500 0.55230 0.17800 0.04000
C 	C 	0.36580 0.48840 0.13180 -0.11700
C 	C 	0.35160 0.43020 0.10470 0.03200
H 	H 	0.36440 0.41690 0.08470 0.03800
C 	C 	0.31900 0.38820 0.10410 -0.05700
C 	C 	0.30140 0.40670 0.13330 0.20000
C 	C 	0.30600 0.32280 0.07360 -0.10500
H 	H 	0.31110 0.27670 0.09210 0.09800
H 	H 	0.32310 0.32030 0.05580 0.06400
C 	C 	0.26210 0.32310 0.04180 -0.04600
C 	C 	0.25030 0.36330 0.00300 0.01700
H 	H 	0.26940 0.39260 0.99630 0.05000
C 	C 	0.21060 0.36080 0.97410 -0.10500
C 	C 	0.18390 0.31360 0.98230 0.03400
H 	H 	0.15640 0.31090 0.96150 0.01300
C 	C 	0.19660 0.27020 0.02040 -0.09100
C 	C 	0.23550 0.27900 0.05100 0.19500
C 	C 	0.16730 0.21720 0.02590 -0.03600
H 	H 	0.18110 0.16860 0.03670 0.03800
H 	H 	0.14510 0.20840 0.99630 0.03300
C 	C 	0.14940 0.24400 0.05810 -0.13700
C 	C 	0.11570 0.28510 0.04400 0.13700
H 	H 	0.10160 0.29390 0.01270 -0.06100
C 	C 	0.10130 0.31450 0.07350 -0.21500
C 	C 	0.12230 0.30280 0.11790 0.07600
H 	H 	0.11270 0.32500 0.13880 0.03100
C 	C 	0.15640 0.26060 0.13350 -0.07000
C 	C 	0.16940 0.22860 0.10320 0.23200
C 	C 	0.18220 0.25570 0.18330 -0.11200
H 	H 	0.20760 0.22860 0.18720 0.11400
H 	H 	0.18990 0.30730 0.19490 0.10000
C 	C 	0.16330 0.21840 0.21090 -0.01500
C 	C 	0.13060 0.17000 0.19450 0.01400
H 	H 	0.12010 0.15550 0.16380 0.05800
C 	C 	0.11380 0.14400 0.22180 -0.11400
C 	C 	0.12680 0.16740 0.26590 0.01200
H 	H 	0.11280 0.15140 0.28400 0.04000
C 	C 	0.15920 0.21270 0.28320 -0.03200
C 	C 	0.17900 0.23730 0.25610 0.17800
C 	C 	0.17290 0.23900 0.33100 -0.15200
H 	H 	0.16820 0.19880 0.34960 0.09600
H 	H 	0.20250 0.24950 0.34290 0.09700
O 	O 	0.19310 0.38300 0.31090 -0.20200
O 	O 	0.17640 0.45550 0.24340 -0.42100
H 	H 	0.18400 0.44520 0.27090 0.28800
O 	O 	0.22610 0.44310 0.20280 -0.36600
H 	H 	0.20360 0.43060 0.20360 0.26200
O 	O 	0.27170 0.36900 0.13800 -0.39200
H 	H 	0.26530 0.33260 0.12010 0.28100
O 	O 	0.24910 0.24630 0.09100 -0.40900
H 	H 	0.23050 0.22000 0.09350 0.24700
O 	O 	0.20170 0.18610 0.11720 -0.39200
H 	H 	0.20610 0.17010 0.09490 0.20600
O 	O 	0.21240 0.27750 0.27150 -0.37500
H 	H 	0.21900 0.28570 0.29910 0.26200
S 	S 	0.06147 0.36470 0.37288 0.57100
S 	S 	0.05663 0.69300 0.19103 0.62500
S 	S 	0.20852 0.70502 0.08971 0.51200
S 	S 	0.40830 0.53790 0.13330 0.60900
S 	S 	0.19109 0.41310 0.92470 0.54200
S 	S 	0.05658 0.36490 0.05350 0.70600
S 	S 	0.07324 0.08280 0.20141 0.60700
O 	O 	0.03440 0.30930 0.34930 -0.23300
O 	O 	0.04150 0.43470 0.36430 -0.29400
O 	O 	0.08100 0.34810 0.41870 -0.25300
O 	O 	0.07730 0.75530 0.18050 -0.28400
O 	O 	0.04650 0.71370 0.22740 -0.26600
O 	O 	0.02280 0.66330 0.15590 -0.47400
O 	O 	0.23790 0.69880 0.06980 -0.22600
O 	O 	0.21710 0.76590 0.12010 -0.23800
O 	O 	0.16790 0.70510 0.05710 -0.23100
O 	O 	0.41340 0.51790 0.09320 -0.26600
O 	O 	0.39870 0.61450 0.13540 -0.27600
O 	O 	0.44240 0.51110 0.17190 -0.42400
O 	O 	0.15870 0.45750 0.92790 -0.26400
O 	O 	0.22300 0.45640 0.92410 -0.25500
O 	O 	0.17490 0.36090 0.88850 -0.26700
O 	O 	0.04810 0.38500 0.08870 -0.35400
O 	O 	0.06070 0.42010 0.02490 -0.46700
O 	O 	0.02670 0.31460 0.02280 -0.42500
O 	O 	0.03760 0.12400 0.18390 -0.34300
O 	O 	0.08090 0.03610 0.17080 -0.26900
O 	O 	0.07370 0.03920 0.23820 -0.41300
Ba	Ba	0.98690 0.63393 0.06691 1.57400
O 	O 	0.53470 0.67580 0.30000 -0.23200
Ba	Ba	0.50311 0.55257 0.24032 1.01100
C 	C 	0.66160 0.87750 0.32230 0.10100
C 	C 	0.65050 0.80880 0.33470 0.03600
C 	C 	0.61970 0.80580 0.34930 -0.03500
H 	H 	0.61240 0.75900 0.35810 0.09000
C 	C 	0.59870 0.86990 0.35160 -0.06300
C 	C 	0.60940 0.93620 0.33790 -0.02000
H 	H 	0.59470 0.98040 0.33860 0.06100
C 	C 	0.64010 0.94100 0.32360 0.02200
C 	C 	0.65360 0.01600 0.31250 -0.14400
H 	H 	0.64700 0.05490 0.33060 0.10400
H 	H 	0.68360 0.01490 0.32220 0.10400
C 	C 	0.63550 0.04000 0.26390 -0.05700
C 	C 	0.60700 0.09560 0.25090 0.05100
H 	H 	0.59760 0.11680 0.27220 0.04000
C 	C 	0.59210 0.12050 0.20890 -0.15400
C 	C 	0.60510 0.08960 0.17730 0.05700
H 	H 	0.59490 0.10860 0.14750 -0.02100
C 	C 	0.63230 0.03230 0.18880 -0.07100
C 	C 	0.64830 0.00840 0.23280 0.21300
C 	C 	0.64600 0.99790 0.15500 -0.06700
H 	H 	0.65090 0.94370 0.16180 0.06200
H 	H 	0.62370 0.00230 0.12490 0.04800
C 	C 	0.68320 0.03120 0.15280 -0.05000
C 	C 	0.67950 0.09320 0.12600 0.01000
H 	H 	0.65350 0.11540 0.11060 0.04100
C 	C 	0.71270 0.12270 0.12150 -0.07400
C 	C 	0.74990 0.08910 0.14210 -0.01400
H 	H 	0.77300 0.10800 0.13770 0.05500
C 	C 	0.75350 0.02850 0.16900 -0.00200
C 	C 	0.72050 0.00140 0.17430 0.17900
C 	C 	0.79510 0.99340 0.19250 -0.12900
H 	H 	0.81300 0.02960 0.21460 0.08600
H 	H 	0.79240 0.94850 0.20930 0.12500
C 	C 	0.81460 0.97080 0.16050 -0.01600
C 	C 	0.84590 0.00930 0.15940 0.01100
H 	H 	0.85500 0.05230 0.17800 0.04100
C 	C 	0.86580 0.98840 0.13180 -0.11400
C 	C 	0.85160 0.93020 0.10470 0.03000
H 	H 	0.86440 0.91690 0.08470 0.03800
C 	C 	0.81900 0.88820 0.10410 -0.05500
C 	C 	0.80140 0.90670 0.13330 0.19900
C 	C 	0.80600 0.82280 0.07360 -0.10500
H 	H 	0.81110 0.77670 0.09210 0.09800
H 	H 	0.82310 0.82030 0.05580 0.06400
C 	C 	0.76210 0.82310 0.04180 -0.04700
C 	C 	0.75030 0.86330 0.00300 0.01900
H 	H 	0.76940 0.89260 0.99630 0.04800
C 	C 	0.71060 0.86080 0.97410 -0.10600
C 	C 	0.68390 0.81360 0.98230 0.03400
H 	H 	0.65640 0.81090 0.96150 0.01200
C 	C 	0.69660 0.77020 0.02040 -0.09100
C 	C 	0.73550 0.77900 0.05100 0.19600
C 	C 	0.66730 0.71720 0.02590 -0.03500
H 	H 	0.68110 0.66860 0.03670 0.03700
H 	H 	0.64510 0.70840 0.99630 0.03200
C 	C 	0.64940 0.74400 0.05810 -0.13700
C 	C 	0.61570 0.78510 0.04400 0.13700
H 	H 	0.60160 0.79390 0.01270 -0.06000
C 	C 	0.60130 0.81450 0.07350 -0.21500
C 	C 	0.62230 0.80280 0.11790 0.07700
H 	H 	0.61270 0.82500 0.13880 0.03100
C 	C 	0.65640 0.76060 0.13350 -0.07100
C 	C 	0.66940 0.72860 0.10320 0.23300
C 	C 	0.68220 0.75570 0.18330 -0.11200
H 	H 	0.70760 0.72860 0.18720 0.11300
H 	H 	0.68990 0.80730 0.19490 0.10000
C 	C 	0.66330 0.71840 0.21090 -0.01500
C 	C 	0.63060 0.67000 0.19450 0.01400
H 	H 	0.62010 0.65550 0.16380 0.05800
C 	C 	0.61380 0.64400 0.22180 -0.11500
C 	C 	0.62680 0.66740 0.26590 0.01200
H 	H 	0.61280 0.65140 0.28400 0.04000
C 	C 	0.65920 0.71270 0.28320 -0.03300
C 	C 	0.67900 0.73730 0.25610 0.17800
C 	C 	0.67290 0.73900 0.33100 -0.15200
H 	H 	0.66820 0.69880 0.34960 0.09600
H 	H 	0.70250 0.74950 0.34290 0.09700
O 	O 	0.69310 0.88300 0.31090 -0.20200
O 	O 	0.67640 0.95550 0.24340 -0.42100
H 	H 	0.68400 0.94520 0.27090 0.28800
O 	O 	0.72610 0.94310 0.20280 -0.36500
H 	H 	0.70360 0.93060 0.20360 0.26200
O 	O 	0.77170 0.86900 0.13800 -0.39200
H 	H 	0.76530 0.83260 0.12010 0.28100
O 	O 	0.74910 0.74630 0.09100 -0.40900
H 	H 	0.73050 0.72000 0.09350 0.24700
O 	O 	0.70170 0.68610 0.11720 -0.39200
H 	H 	0.70610 0.67010 0.09490 0.20600
O 	O 	0.71240 0.77750 0.27150 -0.37500
H 	H 	0.71900 0.78570 0.29910 0.26200
S 	S 	0.56147 0.86470 0.37288 0.57100
S 	S 	0.55663 0.19300 0.19103 0.62700
S 	S 	0.70852 0.20502 0.08971 0.51200
S 	S 	0.90830 0.03790 0.13330 0.60700
S 	S 	0.69109 0.91310 0.92470 0.54300
S 	S 	0.55658 0.86490 0.05350 0.70700
S 	S 	0.57324 0.58280 0.20141 0.60700
O 	O 	0.53440 0.80930 0.34930 -0.23400
O 	O 	0.54150 0.93470 0.36430 -0.29500
O 	O 	0.58100 0.84810 0.41870 -0.25300
O 	O 	0.57730 0.25530 0.18050 -0.28500
O 	O 	0.54650 0.21370 0.22740 -0.26700
O 	O 	0.52280 0.16330 0.15590 -0.47700
O 	O 	0.73790 0.19880 0.06980 -0.22700
O 	O 	0.71710 0.26590 0.12010 -0.23800
O 	O 	0.66790 0.20510 0.05710 -0.23200
O 	O 	0.91340 0.01790 0.09320 -0.26700
O 	O 	0.89870 0.11450 0.13540 -0.27600
O 	O 	0.94240 0.01110 0.17190 -0.42400
O 	O 	0.65870 0.95750 0.92790 -0.26500
O 	O 	0.72300 0.95640 0.92410 -0.25600
O 	O 	0.67490 0.86090 0.88850 -0.26700
O 	O 	0.54810 0.88500 0.08870 -0.35500
O 	O 	0.56070 0.92010 0.02490 -0.46700
O 	O 	0.52670 0.81460 0.02280 -0.42600
O 	O 	0.53760 0.62400 0.18390 -0.34600
O 	O 	0.58090 0.53610 0.17080 -0.27000
O 	O 	0.57370 0.53920 0.23820 -0.41500
Ba	Ba	0.48690 0.13393 0.06691 1.57800
O 	O 	0.03470 0.17580 0.30000 -0.23100
Ba	Ba	0.00311 0.05257 0.24032 0.98600
C 	C 	0.83840 0.37750 0.17770 0.10100
C 	C 	0.84950 0.30880 0.16530 0.03600
C 	C 	0.88030 0.30580 0.15070 -0.03400
H 	H 	0.88760 0.25900 0.14190 0.09000
C 	C 	0.90130 0.36990 0.14840 -0.06400
C 	C 	0.89060 0.43620 0.16210 -0.02000
H 	H 	0.90530 0.48040 0.16140 0.06000
C 	C 	0.85990 0.44100 0.17640 0.02100
C 	C 	0.84640 0.51600 0.18750 -0.14300
H 	H 	0.85300 0.55490 0.16940 0.10400
H 	H 	0.81640 0.51490 0.17780 0.10300
C 	C 	0.86450 0.54000 0.23610 -0.05700
C 	C 	0.89300 0.59560 0.24910 0.05100
H 	H 	0.90240 0.61680 0.22780 0.04000
C 	C 	0.90790 0.62050 0.29110 -0.15400
C 	C 	0.89490 0.58960 0.32270 0.05600
H 	H 	0.90510 0.60860 0.35250 -0.02100
C 	C 	0.86770 0.53230 0.31120 -0.07000
C 	C 	0.85170 0.50840 0.26720 0.21300
C 	C 	0.85400 0.49790 0.34500 -0.07100
H 	H 	0.84910 0.44370 0.33820 0.06300
H 	H 	0.87630 0.50230 0.37510 0.05000
C 	C 	0.81680 0.53120 0.34720 -0.04700
C 	C 	0.82050 0.59320 0.37400 0.00800
H 	H 	0.84650 0.61540 0.38940 0.04100
C 	C 	0.78730 0.62270 0.37850 -0.07300
C 	C 	0.75010 0.58910 0.35790 -0.01500
H 	H 	0.72700 0.60800 0.36230 0.05500
C 	C 	0.74650 0.52850 0.33100 0.00000
C 	C 	0.77950 0.50140 0.32570 0.17800
C 	C 	0.70490 0.49340 0.30750 -0.13000
H 	H 	0.68700 0.52960 0.28540 0.08700
H 	H 	0.70760 0.44850 0.29070 0.12500
C 	C 	0.68540 0.47080 0.33950 -0.01800
C 	C 	0.65410 0.50930 0.34060 0.01400
H 	H 	0.64500 0.55230 0.32200 0.04000
C 	C 	0.63420 0.48840 0.36820 -0.11700
C 	C 	0.64840 0.43020 0.39530 0.03200
H 	H 	0.63560 0.41690 0.41530 0.03800
C 	C 	0.68100 0.38820 0.39590 -0.05700
C 	C 	0.69860 0.40670 0.36670 0.20000
C 	C 	0.69400 0.32280 0.42640 -0.10500
H 	H 	0.68890 0.27670 0.40790 0.09800
H 	H 	0.67690 0.32030 0.44420 0.06400
C 	C 	0.73790 0.32310 0.45820 -0.04600
C 	C 	0.74970 0.36330 0.49700 0.01700
H 	H 	0.73060 0.39260 0.50370 0.04900
C 	C 	0.78940 0.36080 0.52590 -0.10500
C 	C 	0.81610 0.31360 0.51770 0.03400
H 	H 	0.84360 0.31090 0.53850 0.01300
C 	C 	0.80340 0.27020 0.47960 -0.09100
C 	C 	0.76450 0.27900 0.44900 0.19500
C 	C 	0.83270 0.21720 0.47410 -0.03500
H 	H 	0.81890 0.16860 0.46330 0.03700
H 	H 	0.85490 0.20840 0.50370 0.03300
C 	C 	0.85060 0.24400 0.44190 -0.13800
C 	C 	0.88430 0.28510 0.45600 0.13700
H 	H 	0.89840 0.29390 0.48730 -0.06100
C 	C 	0.89870 0.31450 0.42650 -0.21600
C 	C 	0.87770 0.30280 0.38210 0.07700
H 	H 	0.88730 0.32500 0.36120 0.03000
C 	C 	0.84360 0.26060 0.36650 -0.07100
C 	C 	0.83060 0.22860 0.39680 0.23300
C 	C 	0.81780 0.25570 0.31670 -0.11100
H 	H 	0.79240 0.22860 0.31280 0.11300
H 	H 	0.81010 0.30730 0.30510 0.10000
C 	C 	0.83670 0.21840 0.28910 -0.01600
C 	C 	0.86940 0.17000 0.30550 0.01400
H 	H 	0.87990 0.15550 0.33620 0.05800
C 	C 	0.88620 0.14400 0.27820 -0.11500
C 	C 	0.87320 0.16740 0.23410 0.01300
H 	H 	0.88720 0.15140 0.21600 0.04000
C 	C 	0.84080 0.21270 0.21680 -0.03300
C 	C 	0.82100 0.23730 0.24390 0.17800
C 	C 	0.82710 0.23900 0.16900 -0.15100
H 	H 	0.83180 0.19880 0.15040 0.09600
H 	H 	0.79750 0.24950 0.15710 0.09700
O 	O 	0.80690 0.38300 0.18910 -0.20200
O 	O 	0.82360 0.45550 0.25660 -0.42100
H 	H 	0.81600 0.44520 0.22910 0.28800
O 	O 	0.77390 0.44310 0.29720 -0.36600
H 	H 	0.79640 0.43060 0.29640 0.26200
O 	O 	0.72830 0.36900 0.36200 -0.39200
H 	H 	0.73470 0.33260 0.37990 0.28100
O 	O 	0.75090 0.24630 0.40900 -0.40900
H 	H 	0.76950 0.22000 0.40650 0.24700
O 	O 	0.79830 0.18610 0.38280 -0.39200
H 	H 	0.79390 0.17010 0.40510 0.20600
O 	O 	0.78760 0.27750 0.22850 -0.37500
H 	H 	0.78100 0.28570 0.20090 0.26200
S 	S 	0.93853 0.36470 0.12712 0.57200
S 	S 	0.94337 0.69300 0.30897 0.62700
S 	S 	0.79148 0.70502 0.41029 0.51200
S 	S 	0.59170 0.53790 0.36670 0.60900
S 	S 	0.80891 0.41310 0.57530 0.54200
S 	S 	0.94342 0.36490 0.44650 0.70700
S 	S 	0.92676 0.08280 0.29859 0.60800
O 	O 	0.96560 0.30930 0.15070 -0.23600
O 	O 	0.95850 0.43470 0.13570 -0.29600
O 	O 	0.91900 0.34810 0.08130 -0.25400
O 	O 	0.92270 0.75530 0.31950 -0.28600
O 	O 	0.95350 0.71370 0.27260 -0.26800
O 	O 	0.97720 0.66330 0.34410 -0.47900
O 	O 	0.76210 0.69880 0.43020 -0.22700
O 	O 	0.78290 0.76590 0.37990 -0.23800
O 	O 	0.83210 0.70510 0.44290 -0.23200
O 	O 	0.58660 0.51790 0.40680 -0.26600
O 	O 	0.60130 0.61450 0.36460 -0.27600
O 	O 	0.55760 0.51110 0.32810 -0.42400
O 	O 	0.84130 0.45750 0.57210 -0.26400
O 	O 	0.77700 0.45640 0.57590 -0.25500
O 	O 	0.82510 0.36090 0.61150 -0.26700
O 	O 	0.95190 0.38500 0.41130 -0.35600
O 	O 	0.93930 0.42010 0.47510 -0.46800
O 	O 	0.97330 0.31460 0.47720 -0.42600
O 	O 	0.96240 0.12400 0.31610 -0.34800
O 	O 	0.91910 0.03610 0.32920 -0.27100
O 	O 	0.92630 0.03920 0.26180 -0.41700
Ba	Ba	0.01310 0.63393 0.43309 1.58700
O 	O 	0.46530 0.67580 0.20000 -0.23200
Ba	Ba	0.49689 0.55257 0.25968 1.01100
C 	C 	0.33840 0.87750 0.17770 0.10100
C 	C 	0.34950 0.80880 0.16530 0.03700
C 	C 	0.38030 0.80580 0.15070 -0.03500
H 	H 	0.38760 0.75900 0.14190 0.09000
C 	C 	0.40130 0.86990 0.14840 -0.06300
C 	C 	0.39060 0.93620 0.16210 -0.02100
H 	H 	0.40530 0.98040 0.16140 0.06100
C 	C 	0.35990 0.94100 0.17640 0.02300
C 	C 	0.34640 0.01600 0.18750 -0.14500
H 	H 	0.35300 0.05490 0.16940 0.10400
H 	H 	0.31640 0.01490 0.17780 0.10400
C 	C 	0.36450 0.04000 0.23610 -0.05600
C 	C 	0.39300 0.09560 0.24910 0.05000
H 	H 	0.40240 0.11680 0.22780 0.04000
C 	C 	0.40790 0.12050 0.29110 -0.15400
C 	C 	0.39490 0.08960 0.32270 0.05600
H 	H 	0.40510 0.10860 0.35250 -0.02000
C 	C 	0.36770 0.03230 0.31120 -0.07000
C 	C 	0.35170 0.00840 0.26720 0.21200
C 	C 	0.35400 0.99790 0.34500 -0.07000
H 	H 	0.34910 0.94370 0.33820 0.06300
H 	H 	0.37630 0.00230 0.37510 0.04900
C 	C 	0.31680 0.03120 0.34720 -0.04800
C 	C 	0.32050 0.09320 0.37400 0.00900
H 	H 	0.34650 0.11540 0.38940 0.04100
C 	C 	0.28730 0.12270 0.37850 -0.07300
C 	C 	0.25010 0.08910 0.35790 -0.01500
H 	H 	0.22700 0.10800 0.36230 0.05500
C 	C 	0.24650 0.02850 0.33100 -0.00100
C 	C 	0.27950 0.00140 0.32570 0.17800
C 	C 	0.20490 0.99340 0.30750 -0.12900
H 	H 	0.18700 0.02960 0.28540 0.08600
H 	H 	0.20760 0.94850 0.29070 0.12500
C 	C 	0.18540 0.97080 0.33950 -0.01700
C 	C 	0.15410 0.00930 0.34060 0.01300
H 	H 	0.14500 0.05230 0.32200 0.04000
C 	C 	0.13420 0.98840 0.36820 -0.11500
C 	C 	0.14840 0.93020 0.39530 0.03100
H 	H 	0.13560 0.91690 0.41530 0.03800
C 	C 	0.18100 0.88820 0.39590 -0.05600
C 	C 	0.19860 0.90670 0.36670 0.19900
C 	C 	0.19400 0.82280 0.42640 -0.10500
H 	H 	0.18890 0.77670 0.40790 0.09800
H 	H 	0.17690 0.82030 0.44420 0.06400
C 	C 	0.23790 0.82310 0.45820 -0.04600
C 	C 	0.24970 0.86330 0.49700 0.01700
H 	H 	0.23060 0.89260 0.50370 0.04900
C 	C 	0.28940 0.86080 0.52590 -0.10500
C 	C 	0.31610 0.81360 0.51770 0.03400
H 	H 	0.34360 0.81090 0.53850 0.01300
C 	C 	0.30340 0.77020 0.47960 -0.09100
C 	C 	0.26450 0.77900 0.44900 0.19500
C 	C 	0.33270 0.71720 0.47410 -0.03600
H 	H 	0.31890 0.66860 0.46330 0.03800
H 	H 	0.35490 0.70840 0.50370 0.03300
C 	C 	0.35060 0.74400 0.44190 -0.13700
C 	C 	0.38430 0.78510 0.45600 0.13700
H 	H 	0.39840 0.79390 0.48730 -0.06100
C 	C 	0.39870 0.81450 0.42650 -0.21500
C 	C 	0.37770 0.80280 0.38210 0.07700
H 	H 	0.38730 0.82500 0.36120 0.03100
C 	C 	0.34360 0.76060 0.36650 -0.07100
C 	C 	0.33060 0.72860 0.39680 0.23200
C 	C 	0.31780 0.75570 0.31670 -0.11200
H 	H 	0.29240 0.72860 0.31280 0.11300
H 	H 	0.31010 0.80730 0.30510 0.10000
C 	C 	0.33670 0.71840 0.28910 -0.01500
C 	C 	0.36940 0.67000 0.30550 0.01400
H 	H 	0.37990 0.65550 0.33620 0.05800
C 	C 	0.38620 0.64400 0.27820 -0.11500
C 	C 	0.37320 0.66740 0.23410 0.01200
H 	H 	0.38720 0.65140 0.21600 0.04000
C 	C 	0.34080 0.71270 0.21680 -0.03200
C 	C 	0.32100 0.73730 0.24390 0.17800
C 	C 	0.32710 0.73900 0.16900 -0.15200
H 	H 	0.33180 0.69880 0.15040 0.09600
H 	H 	0.29750 0.74950 0.15710 0.09700
O 	O 	0.30690 0.88300 0.18910 -0.20200
O 	O 	0.32360 0.95550 0.25660 -0.42100
H 	H 	0.31600 0.94520 0.22910 0.28800
O 	O 	0.27390 0.94310 0.29720 -0.36500
H 	H 	0.29640 0.93060 0.29640 0.26200
O 	O 	0.22830 0.86900 0.36200 -0.39200
H 	H 	0.23470 0.83260 0.37990 0.28100
O 	O 	0.25090 0.74630 0.40900 -0.40900
H 	H 	0.26950 0.72000 0.40650 0.24700
O 	O 	0.29830 0.68610 0.38280 -0.39200
H 	H 	0.29390 0.67010 0.40510 0.20600
O 	O 	0.28760 0.77750 0.22850 -0.37500
H 	H 	0.28100 0.78570 0.20090 0.26200
S 	S 	0.43853 0.86470 0.12712 0.57100
S 	S 	0.44337 0.19300 0.30897 0.62600
S 	S 	0.29148 0.20502 0.41029 0.51200
S 	S 	0.09170 0.03790 0.36670 0.60800
S 	S 	0.30891 0.91310 0.57530 0.54200
S 	S 	0.44342 0.86490 0.44650 0.70700
S 	S 	0.42676 0.58280 0.29859 0.60700
O 	O 	0.46560 0.80930 0.15070 -0.23400
O 	O 	0.45850 0.93470 0.13570 -0.29500
O 	O 	0.41900 0.84810 0.08130 -0.25300
O 	O 	0.42270 0.25530 0.31950 -0.28500
O 	O 	0.45350 0.21370 0.27260 -0.26700
O 	O 	0.47720 0.16330 0.34410 -0.47700
O 	O 	0.26210 0.19880 0.43020 -0.22700
O 	O 	0.28290 0.26590 0.37990 -0.23800
O 	O 	0.33210 0.20510 0.44290 -0.23200
O 	O 	0.08660 0.01790 0.40680 -0.26600
O 	O 	0.10130 0.11450 0.36460 -0.27600
O 	O 	0.05760 0.01110 0.32810 -0.42400
O 	O 	0.34130 0.95750 0.57210 -0.26400
O 	O 	0.27700 0.95640 0.57590 -0.25500
O 	O 	0.32510 0.86090 0.61150 -0.26700
O 	O 	0.45190 0.88500 0.41130 -0.35500
O 	O 	0.43930 0.92010 0.47510 -0.46700
O 	O 	0.47330 0.81460 0.47720 -0.42600
O 	O 	0.46240 0.62400 0.31610 -0.34600
O 	O 	0.41910 0.53610 0.32920 -0.27000
O 	O 	0.42630 0.53920 0.26180 -0.41500
Ba	Ba	0.51310 0.13393 0.43309 1.58000
O 	O 	0.96530 0.17580 0.20000 -0.23300
Ba	Ba	0.99689 0.05257 0.25968 1.03600
C 	C 	0.83840 0.62250 0.67770 0.10100
C 	C 	0.84950 0.69120 0.66530 0.03600
C 	C 	0.88030 0.69420 0.65070 -0.03400
H 	H 	0.88760 0.74100 0.64190 0.09000
C 	C 	0.90130 0.63010 0.64840 -0.06300
C 	C 	0.89060 0.56380 0.66210 -0.02000
H 	H 	0.90530 0.51960 0.66140 0.06000
C 	C 	0.85990 0.55900 0.67640 0.02200
C 	C 	0.84640 0.48400 0.68750 -0.14300
H 	H 	0.85300 0.44510 0.66940 0.10400
H 	H 	0.81640 0.48510 0.67780 0.10300
C 	C 	0.86450 0.46000 0.73610 -0.05700
C 	C 	0.89300 0.40440 0.74910 0.05100
H 	H 	0.90240 0.38320 0.72780 0.04000
C 	C 	0.90790 0.37950 0.79110 -0.15400
C 	C 	0.89490 0.41040 0.82270 0.05600
H 	H 	0.90510 0.39140 0.85250 -0.02100
C 	C 	0.86770 0.46770 0.81120 -0.06900
C 	C 	0.85170 0.49160 0.76720 0.21300
C 	C 	0.85400 0.50210 0.84500 -0.07100
H 	H 	0.84910 0.55630 0.83820 0.06300
H 	H 	0.87630 0.49770 0.87510 0.05000
C 	C 	0.81680 0.46880 0.84720 -0.04700
C 	C 	0.82050 0.40680 0.87400 0.00800
H 	H 	0.84650 0.38460 0.88940 0.04100
C 	C 	0.78730 0.37730 0.87850 -0.07300
C 	C 	0.75010 0.41090 0.85790 -0.01500
H 	H 	0.72700 0.39200 0.86230 0.05500
C 	C 	0.74650 0.47150 0.83100 0.00000
C 	C 	0.77950 0.49860 0.82570 0.17800
C 	C 	0.70490 0.50660 0.80750 -0.13000
H 	H 	0.68700 0.47040 0.78540 0.08700
H 	H 	0.70760 0.55150 0.79070 0.12500
C 	C 	0.68540 0.52920 0.83950 -0.01800
C 	C 	0.65410 0.49070 0.84060 0.01400
H 	H 	0.64500 0.44770 0.82200 0.04000
C 	C 	0.63420 0.51160 0.86820 -0.11700
C 	C 	0.64840 0.56980 0.89530 0.03200
H 	H 	0.63560 0.58310 0.91530 0.03800
C 	C 	0.68100 0.61180 0.89590 -0.05700
C 	C 	0.69860 0.59330 0.86670 0.20000
C 	C 	0.69400 0.67720 0.92640 -0.10500
H 	H 	0.68890 0.72330 0.90790 0.09800
H 	H 	0.67690 0.67970 0.94420 0.06300
C 	C 	0.73790 0.67690 0.95820 -0.04600
C 	C 	0.74970 0.63670 0.99700 0.01800
H 	H 	0.73060 0.60740 0.00370 0.04900
C 	C 	0.78940 0.63920 0.02590 -0.10500
C 	C 	0.81610 0.68640 0.01770 0.03400
H 	H 	0.84360 0.68910 0.03850 0.01200
C 	C 	0.80340 0.72980 0.97960 -0.09100
C 	C 	0.76450 0.72100 0.94900 0.19500
C 	C 	0.83270 0.78280 0.97410 -0.03600
H 	H 	0.81890 0.83140 0.96330 0.03700
H 	H 	0.85490 0.79160 0.00370 0.03300
C 	C 	0.85060 0.75600 0.94190 -0.13700
C 	C 	0.88430 0.71490 0.95600 0.13700
H 	H 	0.89840 0.70610 0.98730 -0.06000
C 	C 	0.89870 0.68550 0.92650 -0.21500
C 	C 	0.87770 0.69720 0.88210 0.07700
H 	H 	0.88730 0.67500 0.86120 0.03000
C 	C 	0.84360 0.73940 0.86650 -0.07100
C 	C 	0.83060 0.77140 0.89680 0.23200
C 	C 	0.81780 0.74430 0.81670 -0.11200
H 	H 	0.79240 0.77140 0.81280 0.11300
H 	H 	0.81010 0.69270 0.80510 0.10000
C 	C 	0.83670 0.78160 0.78910 -0.01600
C 	C 	0.86940 0.83000 0.80550 0.01400
H 	H 	0.87990 0.84450 0.83620 0.05800
C 	C 	0.88620 0.85600 0.77820 -0.11500
C 	C 	0.87320 0.83260 0.73410 0.01200
H 	H 	0.88720 0.84860 0.71600 0.04000
C 	C 	0.84080 0.78730 0.71680 -0.03300
C 	C 	0.82100 0.76270 0.74390 0.17800
C 	C 	0.82710 0.76100 0.66900 -0.15100
H 	H 	0.83180 0.80120 0.65040 0.09600
H 	H 	0.79750 0.75050 0.65710 0.09700
O 	O 	0.80690 0.61700 0.68910 -0.20200
O 	O 	0.82360 0.54450 0.75660 -0.42100
H 	H 	0.81600 0.55480 0.72910 0.28800
O 	O 	0.77390 0.55690 0.79720 -0.36600
H 	H 	0.79640 0.56940 0.79640 0.26200
O 	O 	0.72830 0.63100 0.86200 -0.39200
H 	H 	0.73470 0.66740 0.87990 0.28100
O 	O 	0.75090 0.75370 0.90900 -0.40900
H 	H 	0.76950 0.78000 0.90650 0.24700
O 	O 	0.79830 0.81390 0.88280 -0.39200
H 	H 	0.79390 0.82990 0.90510 0.20600
O 	O 	0.78760 0.72250 0.72850 -0.37500
H 	H 	0.78100 0.71430 0.70090 0.26200
S 	S 	0.93853 0.63530 0.62712 0.57200
S 	S 	0.94337 0.30700 0.80897 0.62700
S 	S 	0.79148 0.29498 0.91029 0.51200
S 	S 	0.59170 0.46210 0.86670 0.60900
S 	S 	0.80891 0.58690 0.07530 0.54300
S 	S 	0.94342 0.63510 0.94650 0.70700
S 	S 	0.92676 0.91720 0.79859 0.60700
O 	O 	0.96560 0.69070 0.65070 -0.23500
O 	O 	0.95850 0.56530 0.63570 -0.29600
O 	O 	0.91900 0.65190 0.58130 -0.25400
O 	O 	0.92270 0.24470 0.81950 -0.28600
O 	O 	0.95350 0.28630 0.77260 -0.26800
O 	O 	0.97720 0.33670 0.84410 -0.47800
O 	O 	0.76210 0.30120 0.93020 -0.22600
O 	O 	0.78290 0.23410 0.87990 -0.23800
O 	O 	0.83210 0.29490 0.94290 -0.23200
O 	O 	0.58660 0.48210 0.90680 -0.26600
O 	O 	0.60130 0.38550 0.86460 -0.27600
O 	O 	0.55760 0.48890 0.82810 -0.42400
O 	O 	0.84130 0.54250 0.07210 -0.26400
O 	O 	0.77700 0.54360 0.07590 -0.25500
O 	O 	0.82510 0.63910 0.11150 -0.26700
O 	O 	0.95190 0.61500 0.91130 -0.35600
O 	O 	0.93930 0.57990 0.97510 -0.46700
O 	O 	0.97330 0.68540 0.97720 -0.42600
O 	O 	0.96240 0.87600 0.81610 -0.34800
O 	O 	0.91910 0.96390 0.82920 -0.27100
O 	O 	0.92630 0.96080 0.76180 -0.41600
Ba	Ba	0.01310 0.36607 0.93309 1.58600
O 	O 	0.46530 0.32420 0.70000 -0.23200
Ba	Ba	0.49689 0.44743 0.75968 1.01100
C 	C 	0.33840 0.12250 0.67770 0.10100
C 	C 	0.34950 0.19120 0.66530 0.03600
C 	C 	0.38030 0.19420 0.65070 -0.03500
H 	H 	0.38760 0.24100 0.64190 0.09000
C 	C 	0.40130 0.13010 0.64840 -0.06300
C 	C 	0.39060 0.06380 0.66210 -0.02000
H 	H 	0.40530 0.01960 0.66140 0.06100
C 	C 	0.35990 0.05900 0.67640 0.02300
C 	C 	0.34640 0.98400 0.68750 -0.14400
H 	H 	0.35300 0.94510 0.66940 0.10400
H 	H 	0.31640 0.98510 0.67780 0.10400
C 	C 	0.36450 0.96000 0.73610 -0.05700
C 	C 	0.39300 0.90440 0.74910 0.05100
H 	H 	0.40240 0.88320 0.72780 0.04000
C 	C 	0.40790 0.87950 0.79110 -0.15400
C 	C 	0.39490 0.91040 0.82270 0.05700
H 	H 	0.40510 0.89140 0.85250 -0.02100
C 	C 	0.36770 0.96770 0.81120 -0.07100
C 	C 	0.35170 0.99160 0.76720 0.21300
C 	C 	0.35400 0.00210 0.84500 -0.06700
H 	H 	0.34910 0.05630 0.83820 0.06200
H 	H 	0.37630 0.99770 0.87510 0.04800
C 	C 	0.31680 0.96880 0.84720 -0.05000
C 	C 	0.32050 0.90680 0.87400 0.01000
H 	H 	0.34650 0.88460 0.88940 0.04100
C 	C 	0.28730 0.87730 0.87850 -0.07400
C 	C 	0.25010 0.91090 0.85790 -0.01400
H 	H 	0.22700 0.89200 0.86230 0.05500
C 	C 	0.24650 0.97150 0.83100 -0.00100
C 	C 	0.27950 0.99860 0.82570 0.17900
C 	C 	0.20490 0.00660 0.80750 -0.12900
H 	H 	0.18700 0.97040 0.78540 0.08600
H 	H 	0.20760 0.05150 0.79070 0.12500
C 	C 	0.18540 0.02920 0.83950 -0.01600
C 	C 	0.15410 0.99070 0.84060 0.01000
H 	H 	0.14500 0.94770 0.82200 0.04100
C 	C 	0.13420 0.01160 0.86820 -0.11300
C 	C 	0.14840 0.06980 0.89530 0.03000
H 	H 	0.13560 0.08310 0.91530 0.03900
C 	C 	0.18100 0.11180 0.89590 -0.05500
C 	C 	0.19860 0.09330 0.86670 0.19900
C 	C 	0.19400 0.17720 0.92640 -0.10500
H 	H 	0.18890 0.22330 0.90790 0.09800
H 	H 	0.17690 0.17970 0.94420 0.06400
C 	C 	0.23790 0.17690 0.95820 -0.04700
C 	C 	0.24970 0.13670 0.99700 0.02000
H 	H 	0.23060 0.10740 0.00370 0.04800
C 	C 	0.28940 0.13920 0.02590 -0.10700
C 	C 	0.31610 0.18640 0.01770 0.03400
H 	H 	0.34360 0.18910 0.03850 0.01200
C 	C 	0.30340 0.22980 0.97960 -0.09100
C 	C 	0.26450 0.22100 0.94900 0.19600
C 	C 	0.33270 0.28280 0.97410 -0.03500
H 	H 	0.31890 0.33140 0.96330 0.03700
H 	H 	0.35490 0.29160 0.00370 0.03200
C 	C 	0.35060 0.25600 0.94190 -0.13800
C 	C 	0.38430 0.21490 0.95600 0.13700
H 	H 	0.39840 0.20610 0.98730 -0.06000
C 	C 	0.39870 0.18550 0.92650 -0.21500
C 	C 	0.37770 0.19720 0.88210 0.07700
H 	H 	0.38730 0.17500 0.86120 0.03100
C 	C 	0.34360 0.23940 0.86650 -0.07100
C 	C 	0.33060 0.27140 0.89680 0.23300
C 	C 	0.31780 0.24430 0.81670 -0.11200
H 	H 	0.29240 0.27140 0.81280 0.11300
H 	H 	0.31010 0.19270 0.80510 0.10000
C 	C 	0.33670 0.28160 0.78910 -0.01500
C 	C 	0.36940 0.33000 0.80550 0.01400
H 	H 	0.37990 0.34450 0.83620 0.05800
C 	C 	0.38620 0.35600 0.77820 -0.11500
C 	C 	0.37320 0.33260 0.73410 0.01200
H 	H 	0.38720 0.34860 0.71600 0.04000
C 	C 	0.34080 0.28730 0.71680 -0.03300
C 	C 	0.32100 0.26270 0.74390 0.17800
C 	C 	0.32710 0.26100 0.66900 -0.15200
H 	H 	0.33180 0.30120 0.65040 0.09600
H 	H 	0.29750 0.25050 0.65710 0.09700
O 	O 	0.30690 0.11700 0.68910 -0.20200
O 	O 	0.32360 0.04450 0.75660 -0.42100
H 	H 	0.31600 0.05480 0.72910 0.28800
O 	O 	0.27390 0.05690 0.79720 -0.36500
H 	H 	0.29640 0.06940 0.79640 0.26200
O 	O 	0.22830 0.13100 0.86200 -0.39200
H 	H 	0.23470 0.16740 0.87990 0.28100
O 	O 	0.25090 0.25370 0.90900 -0.40900
H 	H 	0.26950 0.28000 0.90650 0.24700
O 	O 	0.29830 0.31390 0.88280 -0.39200
H 	H 	0.29390 0.32990 0.90510 0.20600
O 	O 	0.28760 0.22250 0.72850 -0.37500
H 	H 	0.28100 0.21430 0.70090 0.26200
S 	S 	0.43853 0.13530 0.62712 0.57100
S 	S 	0.44337 0.80700 0.80897 0.62700
S 	S 	0.29148 0.79498 0.91029 0.51200
S 	S 	0.09170 0.96210 0.86670 0.60700
S 	S 	0.30891 0.08690 0.07530 0.54300
S 	S 	0.44342 0.13510 0.94650 0.70700
S 	S 	0.42676 0.41720 0.79859 0.60700
O 	O 	0.46560 0.19070 0.65070 -0.23400
O 	O 	0.45850 0.06530 0.63570 -0.29500
O 	O 	0.41900 0.15190 0.58130 -0.25300
O 	O 	0.42270 0.74470 0.81950 -0.28500
O 	O 	0.45350 0.78630 0.77260 -0.26700
O 	O 	0.47720 0.83670 0.84410 -0.47700
O 	O 	0.26210 0.80120 0.93020 -0.22700
O 	O 	0.28290 0.73410 0.87990 -0.23800
O 	O 	0.33210 0.79490 0.94290 -0.23200
O 	O 	0.08660 0.98210 0.90680 -0.26600
O 	O 	0.10130 0.88550 0.86460 -0.27600
O 	O 	0.05760 0.98890 0.82810 -0.42400
O 	O 	0.34130 0.04250 0.07210 -0.26500
O 	O 	0.27700 0.04360 0.07590 -0.25600
O 	O 	0.32510 0.13910 0.11150 -0.26700
O 	O 	0.45190 0.11500 0.91130 -0.35500
O 	O 	0.43930 0.07990 0.97510 -0.46700
O 	O 	0.47330 0.18540 0.97720 -0.42600
O 	O 	0.46240 0.37600 0.81610 -0.34600
O 	O 	0.41910 0.46390 0.82920 -0.27000
O 	O 	0.42630 0.46080 0.76180 -0.41500
Ba	Ba	0.51310 0.86607 0.93309 1.57900
O 	O 	0.96530 0.82420 0.70000 -0.23200
Ba	Ba	0.99689 0.94743 0.75968 1.03100
C 	C 	0.16160 0.62250 0.82230 0.10100
C 	C 	0.15050 0.69120 0.83470 0.03600
C 	C 	0.11970 0.69420 0.84930 -0.03500
H 	H 	0.11240 0.74100 0.85810 0.09000
C 	C 	0.09870 0.63010 0.85160 -0.06300
C 	C 	0.10940 0.56380 0.83790 -0.02000
H 	H 	0.09470 0.51960 0.83860 0.06100
C 	C 	0.14010 0.55900 0.82360 0.02200
C 	C 	0.15360 0.48400 0.81250 -0.14400
H 	H 	0.14700 0.44510 0.83060 0.10400
H 	H 	0.18360 0.48510 0.82220 0.10400
C 	C 	0.13550 0.46000 0.76390 -0.05600
C 	C 	0.10700 0.40440 0.75090 0.05000
H 	H 	0.09760 0.38320 0.77220 0.04100
C 	C 	0.09210 0.37950 0.70890 -0.15300
C 	C 	0.10510 0.41040 0.67730 0.05500
H 	H 	0.09490 0.39140 0.64750 -0.02000
C 	C 	0.13230 0.46770 0.68880 -0.06800
C 	C 	0.14830 0.49160 0.73280 0.21200
C 	C 	0.14600 0.50210 0.65500 -0.07200
H 	H 	0.15090 0.55630 0.66180 0.06400
H 	H 	0.12370 0.49770 0.62490 0.05000
C 	C 	0.18320 0.46880 0.65280 -0.04700
C 	C 	0.17950 0.40680 0.62600 0.00800
H 	H 	0.15350 0.38460 0.61060 0.04200
C 	C 	0.21270 0.37730 0.62150 -0.07200
C 	C 	0.24990 0.41090 0.64210 -0.01600
H 	H 	0.27300 0.39200 0.63770 0.05500
C 	C 	0.25350 0.47150 0.66900 0.00000
C 	C 	0.22050 0.49860 0.67430 0.17800
C 	C 	0.29510 0.50660 0.69250 -0.13000
H 	H 	0.31300 0.47040 0.71460 0.08700
H 	H 	0.29240 0.55150 0.70930 0.12500
C 	C 	0.31460 0.52920 0.66050 -0.01800
C 	C 	0.34590 0.49070 0.65940 0.01400
H 	H 	0.35500 0.44770 0.67800 0.04000
C 	C 	0.36580 0.51160 0.63180 -0.11700
C 	C 	0.35160 0.56980 0.60470 0.03200
H 	H 	0.36440 0.58310 0.58470 0.03800
C 	C 	0.31900 0.61180 0.60410 -0.05700
C 	C 	0.30140 0.59330 0.63330 0.20000
C 	C 	0.30600 0.67720 0.57360 -0.10500
H 	H 	0.31110 0.72330 0.59210 0.09800
H 	H 	0.32310 0.67970 0.55580 0.06400
C 	C 	0.26210 0.67690 0.54180 -0.04600
C 	C 	0.25030 0.63670 0.50300 0.01700
H 	H 	0.26940 0.60740 0.49630 0.04900
C 	C 	0.21060 0.63920 0.47410 -0.10500
C 	C 	0.18390 0.68640 0.48230 0.03400
H 	H 	0.15640 0.68910 0.46150 0.01300
C 	C 	0.19660 0.72980 0.52040 -0.09100
C 	C 	0.23550 0.72100 0.55100 0.19500
C 	C 	0.16730 0.78280 0.52590 -0.03600
H 	H 	0.18110 0.83140 0.53670 0.03800
H 	H 	0.14510 0.79160 0.49630 0.03300
C 	C 	0.14940 0.75600 0.55810 -0.13700
C 	C 	0.11570 0.71490 0.54400 0.13700
H 	H 	0.10160 0.70610 0.51270 -0.06100
C 	C 	0.10130 0.68550 0.57350 -0.21500
C 	C 	0.12230 0.69720 0.61790 0.07700
H 	H 	0.11270 0.67500 0.63880 0.03100
C 	C 	0.15640 0.73940 0.63350 -0.07100
C 	C 	0.16940 0.77140 0.60320 0.23200
C 	C 	0.18220 0.74430 0.68330 -0.11200
H 	H 	0.20760 0.77140 0.68720 0.11300
H 	H 	0.18990 0.69270 0.69490 0.10000
C 	C 	0.16330 0.78160 0.71090 -0.01500
C 	C 	0.13060 0.83000 0.69450 0.01400
H 	H 	0.12010 0.84450 0.66380 0.05800
C 	C 	0.11380 0.85600 0.72180 -0.11400
C 	C 	0.12680 0.83260 0.76590 0.01200
H 	H 	0.11280 0.84860 0.78400 0.04000
C 	C 	0.15920 0.78730 0.78320 -0.03200
C 	C 	0.17900 0.76270 0.75610 0.17800
C 	C 	0.17290 0.76100 0.83100 -0.15100
H 	H 	0.16820 0.80120 0.84960 0.09600
H 	H 	0.20250 0.75050 0.84290 0.09700
O 	O 	0.19310 0.61700 0.81090 -0.20200
O 	O 	0.17640 0.54450 0.74340 -0.42100
H 	H 	0.18400 0.55480 0.77090 0.28800
O 	O 	0.22610 0.55690 0.70280 -0.36600
H 	H 	0.20360 0.56940 0.70360 0.26200
O 	O 	0.27170 0.63100 0.63800 -0.39200
H 	H 	0.26530 0.66740 0.62010 0.28100
O 	O 	0.24910 0.75370 0.59100 -0.40900
H 	H 	0.23050 0.78000 0.59350 0.24700
O 	O 	0.20170 0.81390 0.61720 -0.39200
H 	H 	0.20610 0.82990 0.59490 0.20600
O 	O 	0.21240 0.72250 0.77150 -0.37500
H 	H 	0.21900 0.71430 0.79910 0.26200
S 	S 	0.06147 0.63530 0.87288 0.57100
S 	S 	0.05663 0.30700 0.69103 0.62500
S 	S 	0.20852 0.29498 0.58971 0.51200
S 	S 	0.40830 0.46210 0.63330 0.60900
S 	S 	0.19109 0.58690 0.42470 0.54200
S 	S 	0.05658 0.63510 0.55350 0.70600
S 	S 	0.07324 0.91720 0.70141 0.60700
O 	O 	0.03440 0.69070 0.84930 -0.23300
O 	O 	0.04150 0.56530 0.86430 -0.29400
O 	O 	0.08100 0.65190 0.91870 -0.25300
O 	O 	0.07730 0.24470 0.68050 -0.28400
O 	O 	0.04650 0.28630 0.72740 -0.26600
O 	O 	0.02280 0.33670 0.65590 -0.47400
O 	O 	0.23790 0.30120 0.56980 -0.22700
O 	O 	0.21710 0.23410 0.62010 -0.23800
O 	O 	0.16790 0.29490 0.55710 -0.23200
O 	O 	0.41340 0.48210 0.59320 -0.26600
O 	O 	0.39870 0.38550 0.63540 -0.27600
O 	O 	0.44240 0.48890 0.67190 -0.42400
O 	O 	0.15870 0.54250 0.42790 -0.26400
O 	O 	0.22300 0.54360 0.42410 -0.25500
O 	O 	0.17490 0.63910 0.38850 -0.26700
O 	O 	0.04810 0.61500 0.58870 -0.35400
O 	O 	0.06070 0.57990 0.52490 -0.46700
O 	O 	0.02670 0.68540 0.52280 -0.42500
O 	O 	0.03760 0.87600 0.68390 -0.34400
O 	O 	0.08090 0.96390 0.67080 -0.27000
O 	O 	0.07370 0.96080 0.73820 -0.41300
Ba	Ba	0.98690 0.36607 0.56691 1.57600
O 	O 	0.53470 0.32420 0.80000 -0.23200
Ba	Ba	0.50311 0.44743 0.74032 1.01100
C 	C 	0.66160 0.12250 0.82230 0.10100
C 	C 	0.65050 0.19120 0.83470 0.03700
C 	C 	0.61970 0.19420 0.84930 -0.03500
H 	H 	0.61240 0.24100 0.85810 0.09000
C 	C 	0.59870 0.13010 0.85160 -0.06300
C 	C 	0.60940 0.06380 0.83790 -0.02100
H 	H 	0.59470 0.01960 0.83860 0.06100
C 	C 	0.64010 0.05900 0.82360 0.02300
C 	C 	0.65360 0.98400 0.81250 -0.14500
H 	H 	0.64700 0.94510 0.83060 0.10400
H 	H 	0.68360 0.98510 0.82220 0.10400
C 	C 	0.63550 0.96000 0.76390 -0.05600
C 	C 	0.60700 0.90440 0.75090 0.05000
H 	H 	0.59760 0.88320 0.77220 0.04000
C 	C 	0.59210 0.87950 0.70890 -0.15400
C 	C 	0.60510 0.91040 0.67730 0.05600
H 	H 	0.59490 0.89140 0.64750 -0.02000
C 	C 	0.63230 0.96770 0.68880 -0.07000
C 	C 	0.64830 0.99160 0.73280 0.21200
C 	C 	0.64600 0.00210 0.65500 -0.07000
H 	H 	0.65090 0.05630 0.66180 0.06300
H 	H 	0.62370 0.99770 0.62490 0.04900
C 	C 	0.68320 0.96880 0.65280 -0.04800
C 	C 	0.67950 0.90680 0.62600 0.00900
H 	H 	0.65350 0.88460 0.61060 0.04100
C 	C 	0.71270 0.87730 0.62150 -0.07300
C 	C 	0.74990 0.91090 0.64210 -0.01500
H 	H 	0.77300 0.89200 0.63770 0.05500
C 	C 	0.75350 0.97150 0.66900 -0.00100
C 	C 	0.72050 0.99860 0.67430 0.17800
C 	C 	0.79510 0.00660 0.69250 -0.12900
H 	H 	0.81300 0.97040 0.71460 0.08600
H 	H 	0.79240 0.05150 0.70930 0.12500
C 	C 	0.81460 0.02920 0.66050 -0.01700
C 	C 	0.84590 0.99070 0.65940 0.01300
H 	H 	0.85500 0.94770 0.67800 0.04000
C 	C 	0.86580 0.01160 0.63180 -0.11500
C 	C 	0.85160 0.06980 0.60470 0.03100
H 	H 	0.86440 0.08310 0.58470 0.03800
C 	C 	0.81900 0.11180 0.60410 -0.05600
C 	C 	0.80140 0.09330 0.63330 0.19900
C 	C 	0.80600 0.17720 0.57360 -0.10500
H 	H 	0.81110 0.22330 0.59210 0.09800
H 	H 	0.82310 0.17970 0.55580 0.06400
C 	C 	0.76210 0.17690 0.54180 -0.04600
C 	C 	0.75030 0.13670 0.50300 0.01700
H 	H 	0.76940 0.10740 0.49630 0.04900
C 	C 	0.71060 0.13920 0.47410 -0.10500
C 	C 	0.68390 0.18640 0.48230 0.03400
H 	H 	0.65640 0.18910 0.46150 0.01300
C 	C 	0.69660 0.22980 0.52040 -0.09100
C 	C 	0.73550 0.22100 0.55100 0.19500
C 	C 	0.66730 0.28280 0.52590 -0.03600
H 	H 	0.68110 0.33140 0.53670 0.03800
H 	H 	0.64510 0.29160 0.49630 0.03300
C 	C 	0.64940 0.25600 0.55810 -0.13700
C 	C 	0.61570 0.21490 0.54400 0.13700
H 	H 	0.60160 0.20610 0.51270 -0.06100
C 	C 	0.60130 0.18550 0.57350 -0.21500
C 	C 	0.62230 0.19720 0.61790 0.07700
H 	H 	0.61270 0.17500 0.63880 0.03100
C 	C 	0.65640 0.23940 0.63350 -0.07100
C 	C 	0.66940 0.27140 0.60320 0.23200
C 	C 	0.68220 0.24430 0.68330 -0.11200
H 	H 	0.70760 0.27140 0.68720 0.11300
H 	H 	0.68990 0.19270 0.69490 0.10000
C 	C 	0.66330 0.28160 0.71090 -0.01500
C 	C 	0.63060 0.33000 0.69450 0.01400
H 	H 	0.62010 0.34450 0.66380 0.05800
C 	C 	0.61380 0.35600 0.72180 -0.11500
C 	C 	0.62680 0.33260 0.76590 0.01200
H 	H 	0.61280 0.34860 0.78400 0.04000
C 	C 	0.65920 0.28730 0.78320 -0.03200
C 	C 	0.67900 0.26270 0.75610 0.17800
C 	C 	0.67290 0.26100 0.83100 -0.15200
H 	H 	0.66820 0.30120 0.84960 0.09600
H 	H 	0.70250 0.25050 0.84290 0.09700
O 	O 	0.69310 0.11700 0.81090 -0.20200
O 	O 	0.67640 0.04450 0.74340 -0.42100
H 	H 	0.68400 0.05480 0.77090 0.28800
O 	O 	0.72610 0.05690 0.70280 -0.36500
H 	H 	0.70360 0.06940 0.70360 0.26200
O 	O 	0.77170 0.13100 0.63800 -0.39200
H 	H 	0.76530 0.16740 0.62010 0.28100
O 	O 	0.74910 0.25370 0.59100 -0.40900
H 	H 	0.73050 0.28000 0.59350 0.24700
O 	O 	0.70170 0.31390 0.61720 -0.39200
H 	H 	0.70610 0.32990 0.59490 0.20600
O 	O 	0.71240 0.22250 0.77150 -0.37500
H 	H 	0.71900 0.21430 0.79910 0.26200
S 	S 	0.56147 0.13530 0.87288 0.57100
S 	S 	0.55663 0.80700 0.69103 0.62600
S 	S 	0.70852 0.79498 0.58971 0.51200
S 	S 	0.90830 0.96210 0.63330 0.60800
S 	S 	0.69109 0.08690 0.42470 0.54200
S 	S 	0.55658 0.13510 0.55350 0.70700
S 	S 	0.57324 0.41720 0.70141 0.60700
O 	O 	0.53440 0.19070 0.84930 -0.23400
O 	O 	0.54150 0.06530 0.86430 -0.29500
O 	O 	0.58100 0.15190 0.91870 -0.25300
O 	O 	0.57730 0.74470 0.68050 -0.28500
O 	O 	0.54650 0.78630 0.72740 -0.26700
O 	O 	0.52280 0.83670 0.65590 -0.47700
O 	O 	0.73790 0.80120 0.56980 -0.22700
O 	O 	0.71710 0.73410 0.62010 -0.23800
O 	O 	0.66790 0.79490 0.55710 -0.23200
O 	O 	0.91340 0.98210 0.59320 -0.26600
O 	O 	0.89870 0.88550 0.63540 -0.27600
O 	O 	0.94240 0.98890 0.67190 -0.42400
O 	O 	0.65870 0.04250 0.42790 -0.26400
O 	O 	0.72300 0.04360 0.42410 -0.25500
O 	O 	0.67490 0.13910 0.38850 -0.26700
O 	O 	0.54810 0.11500 0.58870 -0.35500
O 	O 	0.56070 0.07990 0.52490 -0.46700
O 	O 	0.52670 0.18540 0.52280 -0.42600
O 	O 	0.53760 0.37600 0.68390 -0.34600
O 	O 	0.58090 0.46390 0.67080 -0.27000
O 	O 	0.57370 0.46080 0.73820 -0.41500
Ba	Ba	0.48690 0.86607 0.56691 1.58000
O 	O 	0.03470 0.82420 0.80000 -0.23100
Ba	Ba	0.00311 0.94743 0.74032 0.99100
O 	O 	0.50000 0.40530 0.25000 -0.27000
O 	O 	0.00000 0.90530 0.25000 -0.26700
O 	O 	0.50000 0.59470 0.75000 -0.27000
O 	O 	0.00000 0.09470 0.75000 -0.26700
