data_crystal

_cell_length_a 15.29940
_cell_length_b 15.29940
_cell_length_c 18.49040
_cell_angle_alpha 75.71840
_cell_angle_beta  75.71840
_cell_angle_gamma 68.13240

_symmetry_space_group_name_	'P 1'
_symmetry_space_group_name_H-M	'P 1'

loop_
_symmetry_equiv_pos_as_xyz
  x,y,z

loop_
_atom_site_label
_atom_site_type_symbol
_atom_site_fract_x
_atom_site_fract_y
_atom_site_fract_z
_atom_site_charge
Tb	Tb	0.96142 0.04354 0.10404 1.96200
Tb	Tb	0.95646 0.03858 0.39596 1.97200
Tb	Tb	0.03858 0.95646 0.89596 1.96100
Tb	Tb	0.04354 0.96142 0.60404 1.97100
H 	H 	0.01570 0.71310 0.21530 -0.00200
H 	H 	0.01920 0.55780 0.24500 0.08800
H 	H 	0.03490 0.55590 0.02730 0.09300
H 	H 	0.03070 0.71050 0.99760 -0.04900
H 	H 	0.34950 0.92050 0.90710 0.00000
H 	H 	0.49480 0.92980 0.90910 0.07600
H 	H 	0.38140 0.04740 0.09600 0.07800
H 	H 	0.23890 0.02970 0.09680 0.01300
H 	H 	0.10630 0.23930 0.09170 0.00500
H 	H 	0.11430 0.39290 0.06280 0.07400
H 	H 	0.95370 0.44530 0.26410 0.07400
H 	H 	0.94290 0.29430 0.29250 -0.00100
H 	H 	0.28690 0.98430 0.28470 0.00100
H 	H 	0.44220 0.98080 0.25500 0.08600
H 	H 	0.44410 0.96510 0.47270 0.08800
H 	H 	0.28950 0.96930 0.50240 -0.03700
H 	H 	0.07950 0.65050 0.59290 -0.00200
H 	H 	0.07020 0.50520 0.59090 0.07500
H 	H 	0.95260 0.61860 0.40400 0.07700
H 	H 	0.97030 0.76110 0.40320 0.01200
H 	H 	0.76070 0.89370 0.40830 0.00400
H 	H 	0.60710 0.88570 0.43720 0.07500
H 	H 	0.55470 0.04630 0.23590 0.07400
H 	H 	0.70570 0.05710 0.20750 -0.00200
H 	H 	0.98430 0.28690 0.78470 -0.00200
H 	H 	0.98080 0.44220 0.75500 0.08800
H 	H 	0.96510 0.44410 0.97270 0.09300
H 	H 	0.96930 0.28950 0.00240 -0.04900
H 	H 	0.65050 0.07950 0.09290 0.00000
H 	H 	0.50520 0.07020 0.09090 0.07600
H 	H 	0.61860 0.95260 0.90400 0.07800
H 	H 	0.76110 0.97030 0.90320 0.01300
H 	H 	0.89370 0.76070 0.90830 0.00500
H 	H 	0.88570 0.60710 0.93720 0.07400
H 	H 	0.04630 0.55470 0.73590 0.07400
H 	H 	0.05710 0.70570 0.70750 -0.00100
H 	H 	0.71310 0.01570 0.71530 0.00100
H 	H 	0.55780 0.01920 0.74500 0.08600
H 	H 	0.55590 0.03490 0.52730 0.08800
H 	H 	0.71050 0.03070 0.49760 -0.03700
H 	H 	0.92050 0.34950 0.40710 -0.00200
H 	H 	0.92980 0.49480 0.40910 0.07500
H 	H 	0.04740 0.38140 0.59600 0.07700
H 	H 	0.02970 0.23890 0.59680 0.01200
H 	H 	0.23930 0.10630 0.59170 0.00400
H 	H 	0.39290 0.11430 0.56280 0.07500
H 	H 	0.44530 0.95370 0.76410 0.07400
H 	H 	0.29430 0.94290 0.79250 -0.00200
C 	C 	0.00830 0.83330 0.08450 0.50800
C 	C 	0.01720 0.73040 0.10310 -0.24000
C 	C 	0.01790 0.68190 0.17730 0.12800
C 	C 	0.02160 0.58820 0.19470 -0.17600
C 	C 	0.02890 0.53750 0.14010 0.08800
C 	C 	0.03080 0.58720 0.06570 -0.19600
C 	C 	0.02680 0.68040 0.04790 0.15900
C 	C 	0.18213 0.96853 0.00030 0.51200
C 	C 	0.27630 0.97650 0.00100 -0.19600
C 	C 	0.35560 0.94620 0.94560 0.09200
C 	C 	0.44280 0.95300 0.94590 -0.15100
C 	C 	0.45380 0.99420 0.00030 0.06400
C 	C 	0.37550 0.02190 0.05740 -0.14800
C 	C 	0.28950 0.01190 0.05740 0.09800
C 	C 	0.01466 0.15286 0.21280 0.50800
C 	C 	0.02390 0.24970 0.19540 -0.19800
C 	C 	0.07490 0.28070 0.12640 0.08200
C 	C 	0.07950 0.37350 0.10880 -0.13700
C 	C 	0.03290 0.43630 0.15880 0.04700
C 	C 	0.98330 0.40450 0.22890 -0.14200
C 	C 	0.97780 0.31340 0.24640 0.08300
C 	C 	0.16670 0.99170 0.41550 0.50200
C 	C 	0.26960 0.98280 0.39690 -0.23000
C 	C 	0.31810 0.98210 0.32270 0.11900
C 	C 	0.41180 0.97840 0.30530 -0.16800
C 	C 	0.46250 0.97110 0.35990 0.08000
C 	C 	0.41280 0.96920 0.43430 -0.18300
C 	C 	0.31960 0.97320 0.45210 0.13800
C 	C 	0.03147 0.81787 0.49970 0.50800
C 	C 	0.02350 0.72370 0.49900 -0.20400
C 	C 	0.05380 0.64440 0.55440 0.09900
C 	C 	0.04700 0.55720 0.55410 -0.14900
C 	C 	0.00580 0.54620 0.49970 0.06000
C 	C 	0.97810 0.62450 0.44260 -0.14600
C 	C 	0.98810 0.71050 0.44260 0.10400
C 	C 	0.84714 0.98534 0.28720 0.50800
C 	C 	0.75030 0.97610 0.30460 -0.19900
C 	C 	0.71930 0.92510 0.37360 0.08400
C 	C 	0.62650 0.92050 0.39120 -0.14000
C 	C 	0.56370 0.96710 0.34120 0.05000
C 	C 	0.59550 0.01670 0.27110 -0.14200
C 	C 	0.68660 0.02220 0.25360 0.08600
C 	C 	0.99170 0.16670 0.91550 0.50800
C 	C 	0.98280 0.26960 0.89690 -0.24000
C 	C 	0.98210 0.31810 0.82270 0.12800
C 	C 	0.97840 0.41180 0.80530 -0.17600
C 	C 	0.97110 0.46250 0.85990 0.08800
C 	C 	0.96920 0.41280 0.93430 -0.19600
C 	C 	0.97320 0.31960 0.95210 0.15900
C 	C 	0.81787 0.03147 0.99970 0.51200
C 	C 	0.72370 0.02350 0.99900 -0.19600
C 	C 	0.64440 0.05380 0.05440 0.09200
C 	C 	0.55720 0.04700 0.05410 -0.15100
C 	C 	0.54620 0.00580 0.99970 0.06400
C 	C 	0.62450 0.97810 0.94260 -0.14800
C 	C 	0.71050 0.98810 0.94260 0.09800
C 	C 	0.98534 0.84714 0.78720 0.50800
C 	C 	0.97610 0.75030 0.80460 -0.19800
C 	C 	0.92510 0.71930 0.87360 0.08200
C 	C 	0.92050 0.62650 0.89120 -0.13700
C 	C 	0.96710 0.56370 0.84120 0.04700
C 	C 	0.01670 0.59550 0.77110 -0.14200
C 	C 	0.02220 0.68660 0.75360 0.08300
C 	C 	0.83330 0.00830 0.58450 0.50200
C 	C 	0.73040 0.01720 0.60310 -0.23000
C 	C 	0.68190 0.01790 0.67730 0.11900
C 	C 	0.58820 0.02160 0.69470 -0.16800
C 	C 	0.53750 0.02890 0.64010 0.08000
C 	C 	0.58720 0.03080 0.56570 -0.18300
C 	C 	0.68040 0.02680 0.54790 0.13800
C 	C 	0.96853 0.18213 0.50030 0.50800
C 	C 	0.97650 0.27630 0.50100 -0.20400
C 	C 	0.94620 0.35560 0.44560 0.09900
C 	C 	0.95300 0.44280 0.44590 -0.14900
C 	C 	0.99420 0.45380 0.50030 0.06000
C 	C 	0.02190 0.37550 0.55740 -0.14600
C 	C 	0.01190 0.28950 0.55740 0.10400
C 	C 	0.15286 0.01466 0.71280 0.50800
C 	C 	0.24970 0.02390 0.69540 -0.19900
C 	C 	0.28070 0.07490 0.62640 0.08400
C 	C 	0.37350 0.07950 0.60880 -0.14000
C 	C 	0.43630 0.03290 0.65880 0.05000
C 	C 	0.40450 0.98330 0.72890 -0.14200
C 	C 	0.31340 0.97780 0.74640 0.08600
O 	O 	0.99061 0.87701 0.13760 -0.48300
O 	O 	0.01114 0.87534 0.01700 -0.57800
O 	O 	0.12262 0.97522 0.05980 -0.52200
O 	O 	0.16943 0.95643 0.93930 -0.53600
O 	O 	0.04066 0.10446 0.15960 -0.51800
O 	O 	0.97721 0.12721 0.27910 -0.56100
O 	O 	0.12299 0.00939 0.36240 -0.48000
O 	O 	0.12466 0.98886 0.48300 -0.58200
O 	O 	0.02478 0.87738 0.44020 -0.52400
O 	O 	0.04357 0.83057 0.56070 -0.53200
O 	O 	0.89554 0.95934 0.34040 -0.51900
O 	O 	0.87279 0.02279 0.22090 -0.56000
O 	O 	0.00939 0.12299 0.86240 -0.48300
O 	O 	0.98886 0.12466 0.98300 -0.57800
O 	O 	0.87738 0.02478 0.94020 -0.52200
O 	O 	0.83057 0.04357 0.06070 -0.53600
O 	O 	0.95934 0.89554 0.84040 -0.51800
O 	O 	0.02279 0.87279 0.72090 -0.56100
O 	O 	0.87701 0.99061 0.63760 -0.48000
O 	O 	0.87534 0.01114 0.51700 -0.58200
O 	O 	0.97522 0.12262 0.55980 -0.52400
O 	O 	0.95643 0.16943 0.43930 -0.53200
O 	O 	0.10446 0.04066 0.65960 -0.51900
O 	O 	0.12721 0.97721 0.77910 -0.56000
