data_crystal

_cell_length_a 19.42560
_cell_length_b 21.19490
_cell_length_c 26.64680
_cell_angle_alpha 90.00000
_cell_angle_beta  90.00000
_cell_angle_gamma 90.00000

_symmetry_space_group_name_	'P 1'
_symmetry_space_group_name_H-M	'P 1'

loop_
_symmetry_equiv_pos_as_xyz
  x,y,z

loop_
_atom_site_label
_atom_site_type_symbol
_atom_site_fract_x
_atom_site_fract_y
_atom_site_fract_z
_atom_site_charge
C 	C 	0.67260 0.37840 0.66880 0.10600
C 	C 	0.65380 0.33300 0.59690 0.09300
C 	C 	0.58190 0.31170 0.66270 0.08700
C 	C 	0.71470 0.41830 0.70440 0.05900
C 	C 	0.69680 0.42660 0.75320 -0.14200
H 	H 	0.65990 0.40480 0.76720 0.09100
C 	C 	0.73460 0.46790 0.78090 0.07500
H 	H 	0.71980 0.47460 0.81370 -0.01400
C 	C 	0.80870 0.49530 0.71720 0.02400
H 	H 	0.84470 0.51970 0.70480 -0.02500
C 	C 	0.77120 0.45070 0.68240 -0.10900
H 	H 	0.78420 0.44490 0.64910 0.07900
C 	C 	0.66230 0.32080 0.54260 0.05200
C 	C 	0.71690 0.35830 0.52030 -0.10000
H 	H 	0.74030 0.38830 0.53920 0.07600
C 	C 	0.73400 0.34820 0.46820 0.03600
H 	H 	0.76800 0.37260 0.45300 0.00300
C 	C 	0.64550 0.27000 0.46440 0.05500
H 	H 	0.61580 0.24540 0.44520 -0.00500
C 	C 	0.63420 0.27370 0.51560 -0.11900
H 	H 	0.60710 0.24350 0.53140 0.08800
C 	C 	0.52320 0.27800 0.68240 0.04800
C 	C 	0.49310 0.22950 0.65710 -0.12900
H 	H 	0.51070 0.21700 0.62620 0.07600
C 	C 	0.43560 0.19820 0.67740 0.04100
H 	H 	0.41620 0.16450 0.66010 -0.00500
C 	C 	0.43970 0.25860 0.74710 0.13300
H 	H 	0.42370 0.26860 0.77900 -0.03200
C 	C 	0.49570 0.29030 0.73140 -0.16400
H 	H 	0.51640 0.32000 0.75220 0.09600
C 	C 	0.94420 0.55980 0.02210 0.10300
C 	C 	0.94490 0.52230 0.10220 0.10400
C 	C 	0.02020 0.59580 0.07690 0.11200
C 	C 	0.92220 0.55910 0.96830 0.05400
C 	C 	0.95670 0.59350 0.93010 -0.12000
H 	H 	0.99700 0.61540 0.93730 0.08100
C 	C 	0.93090 0.59380 0.88410 0.05700
H 	H 	0.95200 0.61980 0.86060 -0.00700
C 	C 	0.84540 0.52270 0.90460 0.05700
H 	H 	0.80790 0.49800 0.89540 -0.00700
C 	C 	0.86720 0.52000 0.95470 -0.11600
H 	H 	0.84610 0.49340 0.97790 0.08100
C 	C 	0.91150 0.48290 0.13870 0.03900
C 	C 	0.85290 0.44240 0.12470 -0.11800
H 	H 	0.83290 0.44570 0.09310 0.08300
C 	C 	0.82960 0.40200 0.15740 0.05600
H 	H 	0.79310 0.37620 0.14800 -0.03600
C 	C 	0.91260 0.43470 0.21940 0.04500
H 	H 	0.92990 0.43230 0.25190 -0.00100
C 	C 	0.94180 0.47570 0.18680 -0.10700
H 	H 	0.98080 0.49850 0.19570 0.06800
C 	C 	0.08120 0.63690 0.08920 0.06800
C 	C 	0.11760 0.63450 0.13750 -0.15800
H 	H 	0.10420 0.60610 0.16230 0.08700
C 	C 	0.16750 0.67170 0.14470 0.10800
H 	H 	0.19010 0.66840 0.17540 -0.03000
C 	C 	0.15570 0.72200 0.07120 0.07600
H 	H 	0.16490 0.75670 0.05090 -0.01100
C 	C 	0.10330 0.67830 0.05570 -0.13800
H 	H 	0.08560 0.67910 0.02330 0.08700
Cu	Cu	0.82951 0.57419 0.80198 0.83400
Cu	Cu	0.72691 0.27774 0.37161 0.83700
I 	I 	0.84871 0.63036 0.60063 -0.36300
N 	N 	0.69330 0.37140 0.62350 -0.14100
N 	N 	0.59620 0.30010 0.61580 -0.14200
N 	N 	0.61700 0.34960 0.69120 -0.14000
N 	N 	0.79080 0.50030 0.76650 -0.24800
N 	N 	0.69910 0.30120 0.44010 -0.23300
N 	N 	0.40690 0.21760 0.72400 -0.25000
N 	N 	0.91750 0.52080 0.05440 -0.13700
N 	N 	0.99690 0.56010 0.11490 -0.14000
N 	N 	0.00300 0.59650 0.03120 -0.14200
N 	N 	0.87530 0.55910 0.86830 -0.23900
Cu	Cu	0.31985 0.17349 0.74619 0.82900
N 	N 	0.85650 0.39530 0.20600 -0.23400
N 	N 	0.19140 0.71520 0.11310 -0.24100
Cu	Cu	0.83832 0.66535 0.68398 0.81900
S 	S 	0.89719 0.63725 0.75254 -0.49800
S 	S 	0.24317 0.23566 0.78789 -0.47300
S 	S 	0.73795 0.63894 0.82376 -0.64100
S 	S 	0.64801 0.22610 0.32447 -0.31400
W 	W 	0.81294 0.69792 0.77736 0.27800
C 	C 	0.82740 0.62160 0.16880 0.10500
C 	C 	0.84620 0.66700 0.09690 0.09200
C 	C 	0.91810 0.68830 0.16270 0.08600
C 	C 	0.78530 0.58170 0.20440 0.05800
C 	C 	0.80320 0.57340 0.25320 -0.14300
H 	H 	0.84010 0.59520 0.26720 0.09000
C 	C 	0.76540 0.53210 0.28090 0.07400
H 	H 	0.78020 0.52540 0.31370 -0.01500
C 	C 	0.69130 0.50470 0.21720 0.02300
H 	H 	0.65530 0.48030 0.20480 -0.02600
C 	C 	0.72880 0.54930 0.18240 -0.11000
H 	H 	0.71580 0.55510 0.14910 0.07800
C 	C 	0.83770 0.67920 0.04260 0.05100
C 	C 	0.78310 0.64170 0.02030 -0.10000
H 	H 	0.75970 0.61170 0.03920 0.07500
C 	C 	0.76600 0.65180 0.96820 0.03500
H 	H 	0.73200 0.62740 0.95300 0.00300
C 	C 	0.85450 0.73000 0.96440 0.05500
H 	H 	0.88420 0.75460 0.94520 -0.00500
C 	C 	0.86580 0.72630 0.01560 -0.11800
H 	H 	0.89290 0.75650 0.03140 0.08800
C 	C 	0.97680 0.72200 0.18240 0.04700
C 	C 	0.00690 0.77050 0.15710 -0.12900
H 	H 	0.98930 0.78300 0.12620 0.07600
C 	C 	0.06440 0.80180 0.17740 0.04100
H 	H 	0.08380 0.83550 0.16010 -0.00400
C 	C 	0.06030 0.74140 0.24710 0.13200
H 	H 	0.07630 0.73140 0.27900 -0.03200
C 	C 	0.00430 0.70970 0.23140 -0.16400
H 	H 	0.98360 0.68000 0.25220 0.09500
C 	C 	0.55580 0.44020 0.52210 0.10300
C 	C 	0.55510 0.47770 0.60220 0.10400
C 	C 	0.47980 0.40420 0.57690 0.11200
C 	C 	0.57780 0.44090 0.46830 0.05400
C 	C 	0.54330 0.40650 0.43010 -0.12000
H 	H 	0.50300 0.38460 0.43730 0.08100
C 	C 	0.56910 0.40620 0.38410 0.05700
H 	H 	0.54800 0.38020 0.36060 -0.00700
C 	C 	0.65460 0.47730 0.40460 0.05700
H 	H 	0.69210 0.50200 0.39540 -0.00700
C 	C 	0.63280 0.48000 0.45470 -0.11600
H 	H 	0.65390 0.50660 0.47790 0.08100
C 	C 	0.58850 0.51710 0.63870 0.04000
C 	C 	0.64710 0.55760 0.62470 -0.11800
H 	H 	0.66710 0.55430 0.59310 0.08300
C 	C 	0.67040 0.59800 0.65740 0.05600
H 	H 	0.70690 0.62380 0.64800 -0.03600
C 	C 	0.58740 0.56530 0.71940 0.04500
H 	H 	0.57010 0.56770 0.75190 -0.00100
C 	C 	0.55820 0.52430 0.68680 -0.10700
H 	H 	0.51920 0.50150 0.69570 0.06800
C 	C 	0.41880 0.36310 0.58920 0.06800
C 	C 	0.38240 0.36550 0.63750 -0.15800
H 	H 	0.39580 0.39390 0.66230 0.08700
C 	C 	0.33250 0.32830 0.64470 0.10800
H 	H 	0.30990 0.33160 0.67540 -0.03000
C 	C 	0.34430 0.27800 0.57120 0.07600
H 	H 	0.33510 0.24330 0.55090 -0.01100
C 	C 	0.39670 0.32170 0.55570 -0.13800
H 	H 	0.41440 0.32090 0.52330 0.08700
Cu	Cu	0.67049 0.42581 0.30198 0.83400
Cu	Cu	0.77309 0.72226 0.87161 0.83700
I 	I 	0.65129 0.36964 0.10063 -0.36300
N 	N 	0.80670 0.62860 0.12350 -0.14100
N 	N 	0.90380 0.69990 0.11580 -0.14200
N 	N 	0.88300 0.65040 0.19120 -0.14000
N 	N 	0.70920 0.49970 0.26650 -0.24800
N 	N 	0.80090 0.69880 0.94010 -0.23300
N 	N 	0.09310 0.78240 0.22400 -0.25000
N 	N 	0.58250 0.47920 0.55440 -0.13700
N 	N 	0.50310 0.43990 0.61490 -0.13900
N 	N 	0.49700 0.40350 0.53120 -0.14200
N 	N 	0.62470 0.44090 0.36830 -0.23900
Cu	Cu	0.18015 0.82651 0.24619 0.82900
N 	N 	0.64350 0.60470 0.70600 -0.23400
N 	N 	0.30860 0.28480 0.61310 -0.24100
Cu	Cu	0.66168 0.33465 0.18398 0.81900
S 	S 	0.60281 0.36275 0.25254 -0.49700
S 	S 	0.25683 0.76434 0.28789 -0.47300
S 	S 	0.76205 0.36106 0.32376 -0.64100
S 	S 	0.85199 0.77390 0.82447 -0.31400
W 	W 	0.68706 0.30208 0.27736 0.27800
C 	C 	0.32740 0.87840 0.83120 0.10500
C 	C 	0.34620 0.83300 0.90310 0.09200
C 	C 	0.41810 0.81170 0.83730 0.08600
C 	C 	0.28530 0.91830 0.79560 0.05900
C 	C 	0.30320 0.92660 0.74680 -0.14300
H 	H 	0.34010 0.90480 0.73280 0.09000
C 	C 	0.26540 0.96790 0.71910 0.07500
H 	H 	0.28020 0.97460 0.68630 -0.01500
C 	C 	0.19130 0.99530 0.78280 0.02400
H 	H 	0.15530 0.01970 0.79520 -0.02600
C 	C 	0.22880 0.95070 0.81760 -0.11000
H 	H 	0.21580 0.94490 0.85090 0.07800
C 	C 	0.33770 0.82080 0.95740 0.05100
C 	C 	0.28310 0.85830 0.97970 -0.10100
H 	H 	0.25970 0.88830 0.96080 0.07500
C 	C 	0.26600 0.84820 0.03180 0.03500
H 	H 	0.23200 0.87260 0.04700 0.00300
C 	C 	0.35450 0.77000 0.03560 0.05500
H 	H 	0.38420 0.74540 0.05480 -0.00500
C 	C 	0.36580 0.77370 0.98440 -0.11900
H 	H 	0.39290 0.74350 0.96860 0.08800
C 	C 	0.47680 0.77800 0.81760 0.04800
C 	C 	0.50690 0.72950 0.84290 -0.12900
H 	H 	0.48930 0.71700 0.87380 0.07600
C 	C 	0.56440 0.69820 0.82260 0.04100
H 	H 	0.58380 0.66450 0.83990 -0.00500
C 	C 	0.56030 0.75860 0.75290 0.13300
H 	H 	0.57630 0.76860 0.72100 -0.03200
C 	C 	0.50430 0.79030 0.76860 -0.16400
H 	H 	0.48360 0.82000 0.74780 0.09600
C 	C 	0.05580 0.05980 0.47790 0.10200
C 	C 	0.05510 0.02230 0.39780 0.10400
C 	C 	0.97980 0.09580 0.42310 0.11200
C 	C 	0.07780 0.05910 0.53170 0.05500
C 	C 	0.04330 0.09350 0.56990 -0.12100
H 	H 	0.00300 0.11540 0.56270 0.08100
C 	C 	0.06910 0.09380 0.61590 0.05700
H 	H 	0.04800 0.11980 0.63940 -0.00800
C 	C 	0.15460 0.02270 0.59540 0.05700
H 	H 	0.19210 0.99800 0.60460 -0.00700
C 	C 	0.13280 0.02000 0.54530 -0.11700
H 	H 	0.15390 0.99340 0.52210 0.08100
C 	C 	0.08850 0.98290 0.36130 0.04000
C 	C 	0.14710 0.94240 0.37530 -0.11900
H 	H 	0.16710 0.94570 0.40690 0.08300
C 	C 	0.17040 0.90200 0.34260 0.05700
H 	H 	0.20690 0.87620 0.35200 -0.03600
C 	C 	0.08740 0.93470 0.28060 0.04600
H 	H 	0.07010 0.93230 0.24810 -0.00100
C 	C 	0.05820 0.97570 0.31320 -0.10700
H 	H 	0.01920 0.99850 0.30430 0.06800
C 	C 	0.91880 0.13690 0.41080 0.06800
C 	C 	0.88240 0.13450 0.36250 -0.15800
H 	H 	0.89580 0.10610 0.33770 0.08700
C 	C 	0.83250 0.17170 0.35530 0.10800
H 	H 	0.80990 0.16840 0.32460 -0.03000
C 	C 	0.84430 0.22200 0.42880 0.07600
H 	H 	0.83510 0.25670 0.44910 -0.01100
C 	C 	0.89670 0.17830 0.44430 -0.13800
H 	H 	0.91440 0.17910 0.47670 0.08700
Cu	Cu	0.17049 0.07419 0.69802 0.83400
Cu	Cu	0.27309 0.77774 0.12839 0.83700
I 	I 	0.15129 0.13036 0.89937 -0.36300
N 	N 	0.30670 0.87140 0.87650 -0.14100
N 	N 	0.40380 0.80010 0.88420 -0.14200
N 	N 	0.38300 0.84960 0.80880 -0.14000
N 	N 	0.20920 0.00030 0.73350 -0.24800
N 	N 	0.30090 0.80120 0.05990 -0.23300
N 	N 	0.59310 0.71760 0.77600 -0.25000
N 	N 	0.08250 0.02080 0.44560 -0.13700
N 	N 	0.00310 0.06010 0.38510 -0.14000
N 	N 	0.99700 0.09650 0.46880 -0.14200
N 	N 	0.12470 0.05910 0.63170 -0.23900
Cu	Cu	0.68015 0.67349 0.75381 0.82900
N 	N 	0.14350 0.89530 0.29400 -0.23400
N 	N 	0.80860 0.21520 0.38690 -0.24100
Cu	Cu	0.16168 0.16535 0.81602 0.81900
S 	S 	0.10281 0.13725 0.74746 -0.49800
S 	S 	0.75683 0.73566 0.71211 -0.47300
S 	S 	0.26205 0.13894 0.67624 -0.64100
S 	S 	0.35199 0.72610 0.17553 -0.31400
W 	W 	0.18706 0.19792 0.72264 0.27800
C 	C 	0.17260 0.12160 0.33120 0.10500
C 	C 	0.15380 0.16700 0.40310 0.09200
C 	C 	0.08190 0.18830 0.33730 0.08700
C 	C 	0.21470 0.08170 0.29560 0.05800
C 	C 	0.19680 0.07340 0.24680 -0.14200
H 	H 	0.15990 0.09520 0.23280 0.09000
C 	C 	0.23460 0.03210 0.21910 0.07400
H 	H 	0.21980 0.02540 0.18630 -0.01500
C 	C 	0.30870 0.00470 0.28280 0.02200
H 	H 	0.34470 0.98030 0.29520 -0.02600
C 	C 	0.27120 0.04930 0.31760 -0.10900
H 	H 	0.28420 0.05510 0.35090 0.07800
C 	C 	0.16230 0.17920 0.45740 0.05100
C 	C 	0.21690 0.14170 0.47970 -0.10100
H 	H 	0.24030 0.11170 0.46080 0.07500
C 	C 	0.23400 0.15180 0.53180 0.03500
H 	H 	0.26800 0.12740 0.54700 0.00300
C 	C 	0.14550 0.23000 0.53560 0.05500
H 	H 	0.11580 0.25460 0.55480 -0.00500
C 	C 	0.13420 0.22630 0.48440 -0.11900
H 	H 	0.10710 0.25650 0.46860 0.08800
C 	C 	0.02320 0.22200 0.31760 0.04600
C 	C 	0.99310 0.27050 0.34290 -0.12800
H 	H 	0.01070 0.28300 0.37380 0.07500
C 	C 	0.93560 0.30180 0.32260 0.04000
H 	H 	0.91620 0.33550 0.33990 -0.00400
C 	C 	0.93970 0.24140 0.25290 0.13200
H 	H 	0.92370 0.23140 0.22100 -0.03100
C 	C 	0.99570 0.20970 0.26860 -0.16200
H 	H 	0.01640 0.18000 0.24780 0.09500
C 	C 	0.44420 0.94020 0.97790 0.10300
C 	C 	0.44490 0.97770 0.89780 0.10400
C 	C 	0.52020 0.90420 0.92310 0.11200
C 	C 	0.42220 0.94090 0.03170 0.05400
C 	C 	0.45670 0.90650 0.06990 -0.12000
H 	H 	0.49700 0.88460 0.06270 0.08100
C 	C 	0.43090 0.90620 0.11590 0.05700
H 	H 	0.45200 0.88020 0.13940 -0.00700
C 	C 	0.34540 0.97730 0.09540 0.05800
H 	H 	0.30790 0.00200 0.10460 -0.00700
C 	C 	0.36720 0.98000 0.04530 -0.11600
H 	H 	0.34610 0.00660 0.02210 0.08100
C 	C 	0.41150 0.01710 0.86130 0.03900
C 	C 	0.35290 0.05760 0.87530 -0.11800
H 	H 	0.33290 0.05430 0.90690 0.08300
C 	C 	0.32960 0.09800 0.84260 0.05600
H 	H 	0.29310 0.12380 0.85200 -0.03600
C 	C 	0.41260 0.06530 0.78060 0.04500
H 	H 	0.42990 0.06770 0.74810 -0.00100
C 	C 	0.44180 0.02430 0.81320 -0.10700
H 	H 	0.48080 0.00150 0.80430 0.06800
C 	C 	0.58120 0.86310 0.91080 0.06800
C 	C 	0.61760 0.86550 0.86250 -0.15800
H 	H 	0.60420 0.89390 0.83770 0.08700
C 	C 	0.66750 0.82830 0.85530 0.10800
H 	H 	0.69010 0.83160 0.82460 -0.03000
C 	C 	0.65570 0.77800 0.92880 0.07600
H 	H 	0.66490 0.74330 0.94910 -0.01100
C 	C 	0.60330 0.82170 0.94430 -0.13800
H 	H 	0.58560 0.82090 0.97670 0.08700
Cu	Cu	0.32951 0.92581 0.19802 0.83400
Cu	Cu	0.22691 0.22226 0.62839 0.83700
I 	I 	0.34871 0.86964 0.39937 -0.36300
N 	N 	0.19330 0.12860 0.37650 -0.14100
N 	N 	0.09620 0.19990 0.38420 -0.14200
N 	N 	0.11700 0.15040 0.30880 -0.14000
N 	N 	0.29080 0.99970 0.23350 -0.24800
N 	N 	0.19910 0.19880 0.55990 -0.23300
N 	N 	0.90690 0.28240 0.27600 -0.25000
N 	N 	0.41750 0.97920 0.94560 -0.13700
N 	N 	0.49690 0.93990 0.88510 -0.14000
N 	N 	0.50300 0.90350 0.96880 -0.14200
N 	N 	0.37530 0.94090 0.13170 -0.23900
Cu	Cu	0.81985 0.32651 0.25381 0.82900
N 	N 	0.35650 0.10470 0.79400 -0.23400
N 	N 	0.69140 0.78480 0.88690 -0.24100
Cu	Cu	0.33832 0.83465 0.31602 0.81900
S 	S 	0.39719 0.86275 0.24746 -0.49700
S 	S 	0.74317 0.26434 0.21211 -0.47300
S 	S 	0.23795 0.86106 0.17624 -0.64100
S 	S 	0.14801 0.27390 0.67553 -0.31400
W 	W 	0.31294 0.80208 0.22264 0.27800
C 	C 	0.32740 0.62160 0.33120 0.10500
C 	C 	0.34620 0.66700 0.40310 0.09200
C 	C 	0.41810 0.68830 0.33730 0.08600
C 	C 	0.28530 0.58170 0.29560 0.05800
C 	C 	0.30320 0.57340 0.24680 -0.14300
H 	H 	0.34010 0.59520 0.23280 0.09000
C 	C 	0.26540 0.53210 0.21910 0.07400
H 	H 	0.28020 0.52540 0.18630 -0.01500
C 	C 	0.19130 0.50470 0.28280 0.02300
H 	H 	0.15530 0.48030 0.29520 -0.02600
C 	C 	0.22880 0.54930 0.31760 -0.11000
H 	H 	0.21580 0.55510 0.35090 0.07800
C 	C 	0.33770 0.67920 0.45740 0.05100
C 	C 	0.28310 0.64170 0.47970 -0.10100
H 	H 	0.25970 0.61170 0.46080 0.07500
C 	C 	0.26600 0.65180 0.53180 0.03500
H 	H 	0.23200 0.62740 0.54700 0.00300
C 	C 	0.35450 0.73000 0.53560 0.05500
H 	H 	0.38420 0.75460 0.55480 -0.00500
C 	C 	0.36580 0.72630 0.48440 -0.11900
H 	H 	0.39290 0.75650 0.46860 0.08800
C 	C 	0.47680 0.72200 0.31760 0.04800
C 	C 	0.50690 0.77050 0.34290 -0.12900
H 	H 	0.48930 0.78300 0.37380 0.07600
C 	C 	0.56440 0.80180 0.32260 0.04100
H 	H 	0.58380 0.83550 0.33990 -0.00500
C 	C 	0.56030 0.74140 0.25290 0.13300
H 	H 	0.57630 0.73140 0.22100 -0.03200
C 	C 	0.50430 0.70970 0.26860 -0.16400
H 	H 	0.48360 0.68000 0.24780 0.09600
C 	C 	0.05580 0.44020 0.97790 0.10300
C 	C 	0.05510 0.47770 0.89780 0.10400
C 	C 	0.97980 0.40420 0.92310 0.11200
C 	C 	0.07780 0.44090 0.03170 0.05400
C 	C 	0.04330 0.40650 0.06990 -0.12000
H 	H 	0.00300 0.38460 0.06270 0.08100
C 	C 	0.06910 0.40620 0.11590 0.05700
H 	H 	0.04800 0.38020 0.13940 -0.00700
C 	C 	0.15460 0.47730 0.09540 0.05700
H 	H 	0.19210 0.50200 0.10460 -0.00700
C 	C 	0.13280 0.48000 0.04530 -0.11600
H 	H 	0.15390 0.50660 0.02210 0.08100
C 	C 	0.08850 0.51710 0.86130 0.03900
C 	C 	0.14710 0.55760 0.87530 -0.11800
H 	H 	0.16710 0.55430 0.90690 0.08300
C 	C 	0.17040 0.59800 0.84260 0.05600
H 	H 	0.20690 0.62380 0.85200 -0.03600
C 	C 	0.08740 0.56530 0.78060 0.04500
H 	H 	0.07010 0.56770 0.74810 -0.00100
C 	C 	0.05820 0.52430 0.81320 -0.10700
H 	H 	0.01920 0.50150 0.80430 0.06800
C 	C 	0.91880 0.36310 0.91080 0.06800
C 	C 	0.88240 0.36550 0.86250 -0.15800
H 	H 	0.89580 0.39390 0.83770 0.08700
C 	C 	0.83250 0.32830 0.85530 0.10800
H 	H 	0.80990 0.33160 0.82460 -0.03000
C 	C 	0.84430 0.27800 0.92880 0.07600
H 	H 	0.83510 0.24330 0.94910 -0.01100
C 	C 	0.89670 0.32170 0.94430 -0.13800
H 	H 	0.91440 0.32090 0.97670 0.08700
Cu	Cu	0.17049 0.42581 0.19802 0.83400
Cu	Cu	0.27309 0.72226 0.62839 0.83700
I 	I 	0.15129 0.36964 0.39937 -0.36300
N 	N 	0.30670 0.62860 0.37650 -0.14100
N 	N 	0.40380 0.69990 0.38420 -0.14200
N 	N 	0.38300 0.65040 0.30880 -0.14000
N 	N 	0.20920 0.49970 0.23350 -0.24800
N 	N 	0.30090 0.69880 0.55990 -0.23300
N 	N 	0.59310 0.78240 0.27600 -0.25000
N 	N 	0.08250 0.47920 0.94560 -0.13700
N 	N 	0.00310 0.43990 0.88510 -0.14000
N 	N 	0.99700 0.40350 0.96880 -0.14200
N 	N 	0.12470 0.44090 0.13170 -0.23900
Cu	Cu	0.68015 0.82651 0.25381 0.82900
N 	N 	0.14350 0.60470 0.79400 -0.23400
N 	N 	0.80860 0.28480 0.88690 -0.24100
Cu	Cu	0.16168 0.33465 0.31602 0.81900
S 	S 	0.10281 0.36275 0.24746 -0.49800
S 	S 	0.75683 0.76434 0.21211 -0.47300
S 	S 	0.26205 0.36106 0.17624 -0.64100
S 	S 	0.35199 0.77390 0.67553 -0.31400
W 	W 	0.18706 0.30208 0.22264 0.27800
C 	C 	0.17260 0.37840 0.83120 0.10500
C 	C 	0.15380 0.33300 0.90310 0.09200
C 	C 	0.08190 0.31170 0.83730 0.08600
C 	C 	0.21470 0.41830 0.79560 0.05800
C 	C 	0.19680 0.42660 0.74680 -0.14300
H 	H 	0.15990 0.40480 0.73280 0.09000
C 	C 	0.23460 0.46790 0.71910 0.07400
H 	H 	0.21980 0.47460 0.68630 -0.01500
C 	C 	0.30870 0.49530 0.78280 0.02300
H 	H 	0.34470 0.51970 0.79520 -0.02600
C 	C 	0.27120 0.45070 0.81760 -0.11000
H 	H 	0.28420 0.44490 0.85090 0.07800
C 	C 	0.16230 0.32080 0.95740 0.05100
C 	C 	0.21690 0.35830 0.97970 -0.10000
H 	H 	0.24030 0.38830 0.96080 0.07500
C 	C 	0.23400 0.34820 0.03180 0.03500
H 	H 	0.26800 0.37260 0.04700 0.00300
C 	C 	0.14550 0.27000 0.03560 0.05500
H 	H 	0.11580 0.24540 0.05480 -0.00500
C 	C 	0.13420 0.27370 0.98440 -0.11800
H 	H 	0.10710 0.24350 0.96860 0.08800
C 	C 	0.02320 0.27800 0.81760 0.04700
C 	C 	0.99310 0.22950 0.84290 -0.12900
H 	H 	0.01070 0.21700 0.87380 0.07600
C 	C 	0.93560 0.19820 0.82260 0.04100
H 	H 	0.91620 0.16450 0.83990 -0.00400
C 	C 	0.93970 0.25860 0.75290 0.13200
H 	H 	0.92370 0.26860 0.72100 -0.03200
C 	C 	0.99570 0.29030 0.76860 -0.16400
H 	H 	0.01640 0.32000 0.74780 0.09500
C 	C 	0.44420 0.55980 0.47790 0.10300
C 	C 	0.44490 0.52230 0.39780 0.10400
C 	C 	0.52020 0.59580 0.42310 0.11200
C 	C 	0.42220 0.55910 0.53170 0.05400
C 	C 	0.45670 0.59350 0.56990 -0.12000
H 	H 	0.49700 0.61540 0.56270 0.08100
C 	C 	0.43090 0.59380 0.61590 0.05700
H 	H 	0.45200 0.61980 0.63940 -0.00700
C 	C 	0.34540 0.52270 0.59540 0.05700
H 	H 	0.30790 0.49800 0.60460 -0.00700
C 	C 	0.36720 0.52000 0.54530 -0.11600
H 	H 	0.34610 0.49340 0.52210 0.08100
C 	C 	0.41150 0.48290 0.36130 0.04000
C 	C 	0.35290 0.44240 0.37530 -0.11800
H 	H 	0.33290 0.44570 0.40690 0.08300
C 	C 	0.32960 0.40200 0.34260 0.05600
H 	H 	0.29310 0.37620 0.35200 -0.03600
C 	C 	0.41260 0.43470 0.28060 0.04500
H 	H 	0.42990 0.43230 0.24810 -0.00100
C 	C 	0.44180 0.47570 0.31320 -0.10700
H 	H 	0.48080 0.49850 0.30430 0.06800
C 	C 	0.58120 0.63690 0.41080 0.06800
C 	C 	0.61760 0.63450 0.36250 -0.15800
H 	H 	0.60420 0.60610 0.33770 0.08700
C 	C 	0.66750 0.67170 0.35530 0.10800
H 	H 	0.69010 0.66840 0.32460 -0.03000
C 	C 	0.65570 0.72200 0.42880 0.07600
H 	H 	0.66490 0.75670 0.44910 -0.01100
C 	C 	0.60330 0.67830 0.44430 -0.13800
H 	H 	0.58560 0.67910 0.47670 0.08700
Cu	Cu	0.32951 0.57419 0.69802 0.83400
Cu	Cu	0.22691 0.27774 0.12839 0.83700
I 	I 	0.34871 0.63036 0.89937 -0.36300
N 	N 	0.19330 0.37140 0.87650 -0.14100
N 	N 	0.09620 0.30010 0.88420 -0.14200
N 	N 	0.11700 0.34960 0.80880 -0.14000
N 	N 	0.29080 0.50030 0.73350 -0.24800
N 	N 	0.19910 0.30120 0.05990 -0.23300
N 	N 	0.90690 0.21760 0.77600 -0.25000
N 	N 	0.41750 0.52080 0.44560 -0.13700
N 	N 	0.49690 0.56010 0.38510 -0.13900
N 	N 	0.50300 0.59650 0.46880 -0.14200
N 	N 	0.37530 0.55910 0.63170 -0.23900
Cu	Cu	0.81985 0.17349 0.75381 0.82900
N 	N 	0.35650 0.39530 0.29400 -0.23400
N 	N 	0.69140 0.71520 0.38690 -0.24100
Cu	Cu	0.33832 0.66535 0.81602 0.81900
S 	S 	0.39719 0.63725 0.74746 -0.49700
S 	S 	0.74317 0.23566 0.71211 -0.47300
S 	S 	0.23795 0.63894 0.67624 -0.64100
S 	S 	0.14801 0.22610 0.17553 -0.31400
W 	W 	0.31294 0.69792 0.72264 0.27800
C 	C 	0.67260 0.12160 0.16880 0.10500
C 	C 	0.65380 0.16700 0.09690 0.09200
C 	C 	0.58190 0.18830 0.16270 0.08600
C 	C 	0.71470 0.08170 0.20440 0.05900
C 	C 	0.69680 0.07340 0.25320 -0.14300
H 	H 	0.65990 0.09520 0.26720 0.09000
C 	C 	0.73460 0.03210 0.28090 0.07500
H 	H 	0.71980 0.02540 0.31370 -0.01500
C 	C 	0.80870 0.00470 0.21720 0.02400
H 	H 	0.84470 0.98030 0.20480 -0.02600
C 	C 	0.77120 0.04930 0.18240 -0.11000
H 	H 	0.78420 0.05510 0.14910 0.07800
C 	C 	0.66230 0.17920 0.04260 0.05100
C 	C 	0.71690 0.14170 0.02030 -0.10100
H 	H 	0.74030 0.11170 0.03920 0.07500
C 	C 	0.73400 0.15180 0.96820 0.03500
H 	H 	0.76800 0.12740 0.95300 0.00300
C 	C 	0.64550 0.23000 0.96440 0.05500
H 	H 	0.61580 0.25460 0.94520 -0.00500
C 	C 	0.63420 0.22630 0.01560 -0.11900
H 	H 	0.60710 0.25650 0.03140 0.08800
C 	C 	0.52320 0.22200 0.18240 0.04800
C 	C 	0.49310 0.27050 0.15710 -0.12900
H 	H 	0.51070 0.28300 0.12620 0.07600
C 	C 	0.43560 0.30180 0.17740 0.04100
H 	H 	0.41620 0.33550 0.16010 -0.00500
C 	C 	0.43970 0.24140 0.24710 0.13300
H 	H 	0.42370 0.23140 0.27900 -0.03200
C 	C 	0.49570 0.20970 0.23140 -0.16400
H 	H 	0.51640 0.18000 0.25220 0.09600
C 	C 	0.94420 0.94020 0.52210 0.10200
C 	C 	0.94490 0.97770 0.60220 0.10400
C 	C 	0.02020 0.90420 0.57690 0.11200
C 	C 	0.92220 0.94090 0.46830 0.05500
C 	C 	0.95670 0.90650 0.43010 -0.12100
H 	H 	0.99700 0.88460 0.43730 0.08100
C 	C 	0.93090 0.90620 0.38410 0.05700
H 	H 	0.95200 0.88020 0.36060 -0.00800
C 	C 	0.84540 0.97730 0.40460 0.05700
H 	H 	0.80790 0.00200 0.39540 -0.00700
C 	C 	0.86720 0.98000 0.45470 -0.11700
H 	H 	0.84610 0.00660 0.47790 0.08100
C 	C 	0.91150 0.01710 0.63870 0.04000
C 	C 	0.85290 0.05760 0.62470 -0.11900
H 	H 	0.83290 0.05430 0.59310 0.08300
C 	C 	0.82960 0.09800 0.65740 0.05700
H 	H 	0.79310 0.12380 0.64800 -0.03600
C 	C 	0.91260 0.06530 0.71940 0.04600
H 	H 	0.92990 0.06770 0.75190 -0.00100
C 	C 	0.94180 0.02430 0.68680 -0.10700
H 	H 	0.98080 0.00150 0.69570 0.06800
C 	C 	0.08120 0.86310 0.58920 0.06800
C 	C 	0.11760 0.86550 0.63750 -0.15800
H 	H 	0.10420 0.89390 0.66230 0.08700
C 	C 	0.16750 0.82830 0.64470 0.10800
H 	H 	0.19010 0.83160 0.67540 -0.03000
C 	C 	0.15570 0.77800 0.57120 0.07600
H 	H 	0.16490 0.74330 0.55090 -0.01100
C 	C 	0.10330 0.82170 0.55570 -0.13800
H 	H 	0.08560 0.82090 0.52330 0.08700
Cu	Cu	0.82951 0.92581 0.30198 0.83400
Cu	Cu	0.72691 0.22226 0.87161 0.83700
I 	I 	0.84871 0.86964 0.10063 -0.36300
N 	N 	0.69330 0.12860 0.12350 -0.14100
N 	N 	0.59620 0.19990 0.11580 -0.14200
N 	N 	0.61700 0.15040 0.19120 -0.14000
N 	N 	0.79080 0.99970 0.26650 -0.24800
N 	N 	0.69910 0.19880 0.94010 -0.23300
N 	N 	0.40690 0.28240 0.22400 -0.25000
N 	N 	0.91750 0.97920 0.55440 -0.13700
N 	N 	0.99690 0.93990 0.61490 -0.14000
N 	N 	0.00300 0.90350 0.53120 -0.14200
N 	N 	0.87530 0.94090 0.36830 -0.23900
Cu	Cu	0.31985 0.32651 0.24619 0.82900
N 	N 	0.85650 0.10470 0.70600 -0.23400
N 	N 	0.19140 0.78480 0.61310 -0.24100
Cu	Cu	0.83832 0.83465 0.18398 0.81900
S 	S 	0.89719 0.86275 0.25254 -0.49800
S 	S 	0.24317 0.26434 0.28789 -0.47300
S 	S 	0.73795 0.86106 0.32376 -0.64100
S 	S 	0.64801 0.27390 0.82447 -0.31400
W 	W 	0.81294 0.80208 0.27736 0.27800
C 	C 	0.82740 0.87840 0.66880 0.10500
C 	C 	0.84620 0.83300 0.59690 0.09200
C 	C 	0.91810 0.81170 0.66270 0.08700
C 	C 	0.78530 0.91830 0.70440 0.05800
C 	C 	0.80320 0.92660 0.75320 -0.14200
H 	H 	0.84010 0.90480 0.76720 0.09000
C 	C 	0.76540 0.96790 0.78090 0.07400
H 	H 	0.78020 0.97460 0.81370 -0.01500
C 	C 	0.69130 0.99530 0.71720 0.02200
H 	H 	0.65530 0.01970 0.70480 -0.02600
C 	C 	0.72880 0.95070 0.68240 -0.10900
H 	H 	0.71580 0.94490 0.64910 0.07800
C 	C 	0.83770 0.82080 0.54260 0.05100
C 	C 	0.78310 0.85830 0.52030 -0.10100
H 	H 	0.75970 0.88830 0.53920 0.07500
C 	C 	0.76600 0.84820 0.46820 0.03500
H 	H 	0.73200 0.87260 0.45300 0.00300
C 	C 	0.85450 0.77000 0.46440 0.05500
H 	H 	0.88420 0.74540 0.44520 -0.00500
C 	C 	0.86580 0.77370 0.51560 -0.11900
H 	H 	0.89290 0.74350 0.53140 0.08800
C 	C 	0.97680 0.77800 0.68240 0.04600
C 	C 	0.00690 0.72950 0.65710 -0.12800
H 	H 	0.98930 0.71700 0.62620 0.07500
C 	C 	0.06440 0.69820 0.67740 0.04000
H 	H 	0.08380 0.66450 0.66010 -0.00400
C 	C 	0.06030 0.75860 0.74710 0.13200
H 	H 	0.07630 0.76860 0.77900 -0.03100
C 	C 	0.00430 0.79030 0.73140 -0.16200
H 	H 	0.98360 0.82000 0.75220 0.09500
C 	C 	0.55580 0.05980 0.02210 0.10300
C 	C 	0.55510 0.02230 0.10220 0.10400
C 	C 	0.47980 0.09580 0.07690 0.11200
C 	C 	0.57780 0.05910 0.96830 0.05400
C 	C 	0.54330 0.09350 0.93010 -0.12000
H 	H 	0.50300 0.11540 0.93730 0.08100
C 	C 	0.56910 0.09380 0.88410 0.05700
H 	H 	0.54800 0.11980 0.86060 -0.00700
C 	C 	0.65460 0.02270 0.90460 0.05800
H 	H 	0.69210 0.99800 0.89540 -0.00700
C 	C 	0.63280 0.02000 0.95470 -0.11600
H 	H 	0.65390 0.99340 0.97790 0.08100
C 	C 	0.58850 0.98290 0.13870 0.03900
C 	C 	0.64710 0.94240 0.12470 -0.11800
H 	H 	0.66710 0.94570 0.09310 0.08300
C 	C 	0.67040 0.90200 0.15740 0.05600
H 	H 	0.70690 0.87620 0.14800 -0.03600
C 	C 	0.58740 0.93470 0.21940 0.04500
H 	H 	0.57010 0.93230 0.25190 -0.00100
C 	C 	0.55820 0.97570 0.18680 -0.10700
H 	H 	0.51920 0.99850 0.19570 0.06800
C 	C 	0.41880 0.13690 0.08920 0.06800
C 	C 	0.38240 0.13450 0.13750 -0.15800
H 	H 	0.39580 0.10610 0.16230 0.08700
C 	C 	0.33250 0.17170 0.14470 0.10800
H 	H 	0.30990 0.16840 0.17540 -0.03000
C 	C 	0.34430 0.22200 0.07120 0.07600
H 	H 	0.33510 0.25670 0.05090 -0.01100
C 	C 	0.39670 0.17830 0.05570 -0.13800
H 	H 	0.41440 0.17910 0.02330 0.08700
Cu	Cu	0.67049 0.07419 0.80198 0.83400
Cu	Cu	0.77309 0.77774 0.37161 0.83700
I 	I 	0.65129 0.13036 0.60063 -0.36300
N 	N 	0.80670 0.87140 0.62350 -0.14100
N 	N 	0.90380 0.80010 0.61580 -0.14200
N 	N 	0.88300 0.84960 0.69120 -0.14000
N 	N 	0.70920 0.00030 0.76650 -0.24800
N 	N 	0.80090 0.80120 0.44010 -0.23300
N 	N 	0.09310 0.71760 0.72400 -0.25000
N 	N 	0.58250 0.02080 0.05440 -0.13700
N 	N 	0.50310 0.06010 0.11490 -0.14000
N 	N 	0.49700 0.09650 0.03120 -0.14200
N 	N 	0.62470 0.05910 0.86830 -0.23900
Cu	Cu	0.18015 0.67349 0.74619 0.82900
N 	N 	0.64350 0.89530 0.20600 -0.23400
N 	N 	0.30860 0.21520 0.11310 -0.24100
Cu	Cu	0.66168 0.16535 0.68398 0.81900
S 	S 	0.60281 0.13725 0.75254 -0.49700
S 	S 	0.25683 0.73566 0.78789 -0.47300
S 	S 	0.76205 0.13894 0.82376 -0.64100
S 	S 	0.85199 0.72610 0.32447 -0.31400
W 	W 	0.68706 0.19792 0.77736 0.27800
