data_crystal

_cell_length_a 24.27560
_cell_length_b 24.27560
_cell_length_c 35.43810
_cell_angle_alpha 90.00000
_cell_angle_beta  90.00000
_cell_angle_gamma 120.00000

_symmetry_space_group_name_	'P 1'
_symmetry_space_group_name_H-M	'P 1'

loop_
_symmetry_equiv_pos_as_xyz
  x,y,z

loop_
_atom_site_label
_atom_site_type_symbol
_atom_site_fract_x
_atom_site_fract_y
_atom_site_fract_z
_atom_site_charge
Fe	Fe	0.11415 0.21491 0.31766 1.23600
O 	O 	0.04120 0.08286 0.22050 -0.66800
O 	O 	0.08030 0.16060 0.27615 -0.64300
C 	C 	0.06250 0.05490 0.43120 -0.02000
C 	C 	0.08370 0.11250 0.40590 0.60000
C 	C 	0.09890 0.10250 0.36660 0.17700
O 	O 	0.12630 0.15340 0.34580 -0.20200
O 	O 	0.08630 0.05020 0.35490 -0.19600
N 	N 	0.15320 0.31540 0.20905 -0.21300
C 	C 	0.13460 0.29730 0.16830 0.11500
C 	C 	0.06380 0.26990 0.16010 -0.40000
C 	C 	0.01920 0.20900 0.18020 0.45100
O 	O 	0.03470 0.20230 0.21324 -0.44700
O 	O 	0.03010 0.20050 0.33701 -0.48700
C 	C 	0.22340 0.34150 0.21480 0.12400
C 	C 	0.25140 0.30640 0.19470 -0.40500
C 	C 	0.22270 0.23700 0.20320 0.44900
O 	O 	0.16840 0.20890 0.21881 -0.44500
O 	O 	0.21000 0.25390 0.30607 -0.44600
C 	C 	0.13180 0.36050 0.22340 0.13400
C 	C 	0.15870 0.39160 0.26080 -0.42900
C 	C 	0.14390 0.34760 0.29390 0.47100
O 	O 	0.12230 0.28930 0.28633 -0.43100
O 	O 	0.15550 0.36940 0.32685 -0.42500
Fe	Fe	0.19400 0.55071 0.42606 1.22700
Fe	Fe	0.31064 0.52918 0.42805 1.22700
Fe	Fe	0.19995 0.44907 0.36146 1.27000
Fe	Fe	0.10886 0.58869 0.48899 1.26400
O 	O 	0.28060 0.58450 0.45703 -0.66200
O 	O 	0.25260 0.63810 0.39898 -0.67000
O 	O 	0.23490 0.51010 0.40006 -0.64000
O 	O 	0.17250 0.60740 0.45329 -0.63700
C 	C 	0.34390 0.61400 0.24980 0.12500
C 	C 	0.29930 0.54990 0.26740 -0.40500
C 	C 	0.30500 0.54540 0.30890 0.42900
O 	O 	0.27010 0.49020 0.32384 -0.43700
O 	O 	0.34330 0.59470 0.32682 -0.33200
C 	C 	0.28690 0.68540 0.60420 0.13500
C 	C 	0.22220 0.65150 0.58590 -0.41100
C 	C 	0.22100 0.66430 0.54440 0.45400
O 	O 	0.16620 0.64230 0.53046 -0.45100
O 	O 	0.27360 0.69610 0.52840 -0.33800
N 	N 	0.12960 0.35310 0.46880 -0.21100
C 	C 	0.13090 0.37510 0.50830 0.11800
C 	C 	0.09400 0.40880 0.51530 -0.38900
C 	C 	0.12060 0.47260 0.49440 0.45300
O 	O 	0.14330 0.47690 0.46152 -0.44700
O 	O 	0.11330 0.51430 0.51081 -0.45400
C 	C 	0.16790 0.31970 0.46570 0.10300
C 	C 	0.23150 0.34930 0.48600 -0.38200
C 	C 	0.28090 0.41590 0.47380 0.44200
O 	O 	0.26180 0.45260 0.46178 -0.44400
O 	O 	0.09210 0.66170 0.47718 -0.43600
C 	C 	0.06380 0.30560 0.45100 0.13600
C 	C 	0.03160 0.33610 0.43020 -0.45200
C 	C 	0.06610 0.37000 0.39500 0.44200
O 	O 	0.12680 0.39300 0.39553 -0.41500
O 	O 	0.03530 0.37830 0.36990 -0.31600
N 	N 	0.44650 0.47450 0.37220 -0.24500
C 	C 	0.39580 0.40510 0.36780 0.10100
C 	C 	0.33280 0.38630 0.36760 -0.42500
C 	C 	0.30270 0.42350 0.38140 0.44500
O 	O 	0.33860 0.47860 0.39494 -0.43800
O 	O 	0.24260 0.39830 0.37896 -0.42100
C 	C 	0.51360 0.49260 0.37690 0.44500
C 	C 	0.53020 0.47640 0.41580 -0.16900
C 	C 	0.51780 0.50840 0.44980 0.37400
O 	O 	0.04360 0.53300 0.44851 -0.40700
O 	O 	0.02810 0.55680 0.52315 -0.39900
C 	C 	0.43580 0.49480 0.33290 -0.23900
C 	C 	0.48010 0.56210 0.32240 -0.45700
C 	C 	0.48710 0.61330 0.34940 0.48600
O 	O 	0.12850 0.52880 0.38383 -0.44100
O 	O 	0.15660 0.48920 0.33472 -0.45500
H 	H 	0.04090 0.08220 0.19230 0.22000
H 	H 	0.09500 0.04170 0.43040 0.02800
H 	H 	0.05990 0.06710 0.45750 0.03200
H 	H 	0.04950 0.12350 0.40510 -0.30100
H 	H 	0.12180 0.14900 0.41710 0.05400
C 	C 	0.05610 0.99420 0.43680 -0.13900
H 	H 	0.09680 0.03460 0.43390 0.03700
H 	H 	0.04920 0.98300 0.46400 0.06800
C 	C 	0.05700 0.11430 0.41480 0.27300
H 	H 	0.06360 0.15530 0.42450 0.00100
H 	H 	0.09730 0.11370 0.41910 -0.47800
C 	C 	0.04630 0.11180 0.37540 -0.06400
O 	O 	0.10160 0.14580 0.35570 -0.21500
O 	O 	0.99170 0.06900 0.35900 0.02100
H 	H 	0.13200 0.27830 0.22320 0.15800
H 	H 	0.14680 0.26550 0.16090 0.00500
H 	H 	0.15920 0.33540 0.15240 -0.01300
H 	H 	0.05210 0.30220 0.16690 0.15100
H 	H 	0.05710 0.26240 0.13260 0.14600
H 	H 	0.23150 0.34130 0.24210 0.00200
H 	H 	0.24620 0.38630 0.20620 -0.01800
H 	H 	0.24790 0.31110 0.16720 0.14100
H 	H 	0.29730 0.32760 0.20080 0.14100
H 	H 	0.14330 0.39430 0.20430 -0.01800
H 	H 	0.08480 0.33670 0.22540 -0.00100
H 	H 	0.14270 0.42100 0.26640 0.15400
H 	H 	0.20550 0.41760 0.25820 0.15100
H 	H 	0.27990 0.58450 0.48520 0.23100
H 	H 	0.36020 0.61460 0.37080 0.23600
H 	H 	0.38830 0.62550 0.25570 -0.00800
H 	H 	0.33890 0.61020 0.22210 -0.01500
H 	H 	0.25510 0.53880 0.26160 0.14600
H 	H 	0.30680 0.51760 0.25520 0.13700
H 	H 	0.26830 0.57380 0.59990 -0.01000
H 	H 	0.32180 0.60310 0.63180 -0.01800
H 	H 	0.39480 0.59900 0.58940 0.14800
H 	H 	0.33620 0.53040 0.59920 0.14600
H 	H 	0.14880 0.38890 0.45350 0.15800
H 	H 	0.17580 0.40420 0.51550 0.00600
H 	H 	0.11420 0.33780 0.52520 -0.01500
H 	H 	0.09390 0.41650 0.54280 0.13800
H 	H 	0.04930 0.38060 0.50740 0.14500
H 	H 	0.17570 0.31640 0.43860 0.01100
H 	H 	0.14140 0.27580 0.47540 -0.00900
H 	H 	0.22360 0.35040 0.51340 0.13700
H 	H 	0.24970 0.32120 0.48260 0.14000
H 	H 	0.06980 0.27750 0.43330 -0.00800
H 	H 	0.03510 0.27850 0.47130 -0.02500
H 	H 	0.98780 0.30290 0.42350 0.17500
H 	H 	0.02850 0.36680 0.44720 0.16900
H 	H 	0.43960 0.49960 0.38930 0.07900
H 	H 	0.43600 0.49960 0.38700 0.07100
C 	C 	0.39870 0.40690 0.38240 0.10800
H 	H 	0.39680 0.40240 0.41020 0.02700
H 	H 	0.41310 0.37830 0.37210 0.01100
H 	H 	0.40480 0.39020 0.34380 -0.01800
H 	H 	0.40250 0.38140 0.38830 -0.08400
H 	H 	0.33480 0.38880 0.33970 0.07100
H 	H 	0.30450 0.34110 0.37450 0.08000
H 	H 	0.31180 0.34580 0.38190 0.06200
H 	H 	0.31880 0.37510 0.34110 0.07300
H 	H 	0.54020 0.53900 0.37280 -0.07100
H 	H 	0.52480 0.47100 0.35720 -0.14200
C 	C 	0.49300 0.44800 0.39260 -0.51200
H 	H 	0.46330 0.40590 0.40330 0.15100
H 	H 	0.51580 0.44140 0.37180 0.18200
H 	H 	0.50520 0.42970 0.41930 0.14200
H 	H 	0.57570 0.48880 0.41580 0.05400
H 	H 	0.56780 0.51030 0.40260 0.02600
H 	H 	0.54310 0.44680 0.42640 0.00100
H 	H 	0.43940 0.46710 0.31370 0.11600
H 	H 	0.39170 0.48730 0.33170 0.10700
C 	C 	0.48100 0.50140 0.34160 0.34000
H 	H 	0.46750 0.46790 0.32210 -0.11100
H 	H 	0.52590 0.51510 0.34790 -0.12800
H 	H 	0.46620 0.57020 0.29780 0.05800
H 	H 	0.52270 0.56710 0.31860 0.11300
H 	H 	0.51480 0.58130 0.30360 0.08000
H 	H 	0.43940 0.54620 0.30870 0.14300
Fe	Fe	0.78509 0.89924 0.31766 1.23400
O 	O 	0.91714 0.95834 0.22050 -0.63900
O 	O 	0.83940 0.91970 0.27615 -0.63200
C 	C 	0.94510 0.00760 0.43120 -0.11000
C 	C 	0.88750 0.97120 0.40590 0.69400
C 	C 	0.89750 0.99640 0.36660 0.26600
O 	O 	0.84660 0.97290 0.34580 0.00200
O 	O 	0.94980 0.03610 0.35490 -0.30400
N 	N 	0.68460 0.83780 0.20905 -0.21600
C 	C 	0.70270 0.83730 0.16830 0.12300
C 	C 	0.73010 0.79390 0.16010 -0.42000
C 	C 	0.79100 0.81020 0.18020 0.48600
O 	O 	0.79770 0.83240 0.21324 -0.44900
O 	O 	0.79950 0.82960 0.33701 -0.45500
C 	C 	0.65850 0.88190 0.21480 0.13700
C 	C 	0.69360 0.94500 0.19470 -0.43500
C 	C 	0.76300 0.98570 0.20320 0.50000
O 	O 	0.79110 0.95950 0.21881 -0.44500
O 	O 	0.74610 0.95610 0.30607 -0.41600
C 	C 	0.63950 0.77130 0.22340 0.13300
C 	C 	0.60840 0.76710 0.26080 -0.42800
C 	C 	0.65240 0.79630 0.29390 0.47300
O 	O 	0.71070 0.83300 0.28633 -0.42900
O 	O 	0.63060 0.78610 0.32685 -0.42300
Fe	Fe	0.44929 0.64329 0.42606 1.22700
Fe	Fe	0.47082 0.78146 0.42805 1.22700
Fe	Fe	0.55093 0.75088 0.36146 1.27000
Fe	Fe	0.41131 0.52017 0.48899 1.26400
O 	O 	0.41550 0.69610 0.45703 -0.66200
O 	O 	0.36190 0.61450 0.39898 -0.67000
O 	O 	0.48990 0.72480 0.40006 -0.64000
O 	O 	0.39260 0.56510 0.45329 -0.63700
C 	C 	0.38600 0.72990 0.24980 0.12500
C 	C 	0.45010 0.74940 0.26740 -0.40700
C 	C 	0.45460 0.75960 0.30890 0.43100
O 	O 	0.50980 0.77990 0.32384 -0.43500
O 	O 	0.40530 0.74860 0.32682 -0.33100
C 	C 	0.31460 0.60150 0.60420 0.13500
C 	C 	0.34850 0.57070 0.58590 -0.41200
C 	C 	0.33570 0.55670 0.54440 0.45500
O 	O 	0.35770 0.52390 0.53046 -0.45000
O 	O 	0.30390 0.57750 0.52840 -0.33800
N 	N 	0.64690 0.77650 0.46880 -0.20700
C 	C 	0.62490 0.75580 0.50830 0.11800
C 	C 	0.59120 0.68520 0.51530 -0.39100
C 	C 	0.52740 0.64800 0.49440 0.45500
O 	O 	0.52310 0.66640 0.46152 -0.44600
O 	O 	0.48570 0.59900 0.51081 -0.45200
C 	C 	0.68030 0.84820 0.46570 0.10300
C 	C 	0.65070 0.88220 0.48600 -0.38600
C 	C 	0.58410 0.86500 0.47380 0.44300
O 	O 	0.54740 0.80920 0.46178 -0.44500
O 	O 	0.33830 0.43040 0.47718 -0.43300
C 	C 	0.69440 0.75820 0.45100 0.10700
C 	C 	0.66390 0.69550 0.43020 -0.39100
C 	C 	0.63000 0.69610 0.39500 0.42600
O 	O 	0.60700 0.73380 0.39553 -0.41000
O 	O 	0.62170 0.65700 0.36990 -0.30100
N 	N 	0.52550 0.97200 0.37220 -0.22500
C 	C 	0.59490 0.99070 0.36780 0.15200
C 	C 	0.61370 0.94650 0.36760 -0.47700
C 	C 	0.57650 0.87920 0.38140 0.46500
O 	O 	0.52140 0.86000 0.39494 -0.44300
O 	O 	0.60170 0.84430 0.37896 -0.42500
C 	C 	0.50740 0.02100 0.37690 0.36000
C 	C 	0.52360 0.05380 0.41580 -0.31500
C 	C 	0.49160 0.00940 0.44980 0.37500
O 	O 	0.46700 0.51060 0.44851 -0.39300
O 	O 	0.44320 0.47130 0.52315 -0.39000
C 	C 	0.50520 0.94100 0.33290 0.15300
C 	C 	0.43790 0.91800 0.32240 -0.55100
C 	C 	0.38670 0.87380 0.34940 0.51800
O 	O 	0.47120 0.59970 0.38383 -0.44400
O 	O 	0.51080 0.66740 0.33472 -0.46100
H 	H 	0.91780 0.95870 0.19230 0.23000
H 	H 	0.95830 0.05330 0.43040 0.05600
H 	H 	0.93290 0.99280 0.45750 0.08900
H 	H 	0.87650 0.92600 0.40510 -0.35800
H 	H 	0.85100 0.97280 0.41710 0.05300
C 	C 	0.00580 0.06190 0.43680 -0.19700
H 	H 	0.96540 0.06220 0.43390 0.06200
H 	H 	0.01700 0.06620 0.46400 0.05600
C 	C 	0.88570 0.94270 0.41480 0.26600
H 	H 	0.84470 0.90830 0.42450 0.02100
H 	H 	0.88630 0.98360 0.41910 -0.51700
C 	C 	0.88820 0.93450 0.37540 0.06000
O 	O 	0.85420 0.95580 0.35570 -0.46600
O 	O 	0.93100 0.92270 0.35900 -0.07800
H 	H 	0.72170 0.85370 0.22320 0.15900
H 	H 	0.73450 0.88130 0.16090 0.00600
H 	H 	0.66460 0.82380 0.15240 -0.01400
H 	H 	0.69780 0.74990 0.16690 0.16200
H 	H 	0.73760 0.79470 0.13260 0.15900
H 	H 	0.65870 0.89020 0.24210 0.00100
H 	H 	0.61370 0.85990 0.20620 -0.02000
H 	H 	0.68890 0.93680 0.16720 0.15500
H 	H 	0.67240 0.96970 0.20080 0.16000
H 	H 	0.60570 0.74900 0.20430 -0.01500
H 	H 	0.66330 0.74810 0.22540 0.00200
H 	H 	0.57900 0.72170 0.26640 0.15500
H 	H 	0.58240 0.78790 0.25820 0.15200
H 	H 	0.41550 0.69540 0.48520 0.23100
H 	H 	0.38540 0.74560 0.37080 0.23600
H 	H 	0.37450 0.76280 0.25570 -0.00700
H 	H 	0.38980 0.72870 0.22210 -0.01400
H 	H 	0.46120 0.71630 0.26160 0.14700
H 	H 	0.48240 0.78920 0.25520 0.14000
H 	H 	0.42620 0.69450 0.59990 -0.01000
H 	H 	0.39690 0.71870 0.63180 -0.01700
H 	H 	0.40100 0.79580 0.58940 0.15000
H 	H 	0.46960 0.80580 0.59920 0.14900
H 	H 	0.61110 0.75990 0.45350 0.15700
H 	H 	0.59580 0.77160 0.51550 0.00700
H 	H 	0.66220 0.77640 0.52520 -0.01100
H 	H 	0.58350 0.67740 0.54280 0.14000
H 	H 	0.61940 0.66870 0.50740 0.15200
H 	H 	0.68360 0.85930 0.43860 0.01300
H 	H 	0.72420 0.86560 0.47540 -0.00500
H 	H 	0.64960 0.87320 0.51340 0.14100
H 	H 	0.67880 0.92850 0.48260 0.15000
H 	H 	0.72250 0.79230 0.43330 0.00400
H 	H 	0.72150 0.75660 0.47130 -0.00900
H 	H 	0.69710 0.68490 0.42350 0.14200
H 	H 	0.63320 0.66170 0.44720 0.15800
H 	H 	0.50040 0.94000 0.38930 0.07200
H 	H 	0.50040 0.93640 0.38700 0.07400
C 	C 	0.59310 0.99180 0.38240 0.15400
H 	H 	0.59760 0.99440 0.41020 0.04700
H 	H 	0.62170 0.03480 0.37210 0.02400
H 	H 	0.60980 0.01460 0.34380 -0.06200
H 	H 	0.61860 0.02110 0.38830 -0.15600
H 	H 	0.61120 0.94600 0.33970 0.07700
H 	H 	0.65890 0.96340 0.37450 0.09300
H 	H 	0.65420 0.96600 0.38190 0.07100
H 	H 	0.62490 0.94370 0.34110 0.09100
H 	H 	0.46100 0.00120 0.37280 -0.07400
H 	H 	0.52900 0.05380 0.35720 -0.12500
C 	C 	0.55200 0.04500 0.39260 -0.32700
H 	H 	0.59410 0.05740 0.40330 0.09100
H 	H 	0.55860 0.07440 0.37180 0.12400
H 	H 	0.57030 0.07550 0.41930 0.14600
H 	H 	0.51120 0.08690 0.41580 0.06900
H 	H 	0.48970 0.05750 0.40260 0.06200
H 	H 	0.55320 0.09630 0.42640 0.03500
H 	H 	0.53290 0.97230 0.31370 -0.04600
H 	H 	0.51270 0.90440 0.33170 -0.01100
C 	C 	0.49860 0.97960 0.34160 0.00700
H 	H 	0.53210 0.99960 0.32210 0.04400
H 	H 	0.48490 0.01080 0.34790 -0.03100
H 	H 	0.42980 0.89600 0.29780 0.09800
H 	H 	0.43290 0.95560 0.31860 0.16700
H 	H 	0.41870 0.93350 0.30360 0.07500
H 	H 	0.45380 0.89320 0.30870 0.12600
Fe	Fe	0.10076 0.88585 0.31766 1.23300
O 	O 	0.04166 0.95880 0.22050 -0.64900
O 	O 	0.08030 0.91970 0.27615 -0.63100
C 	C 	0.99240 0.93750 0.43120 0.03900
C 	C 	0.02880 0.91630 0.40590 0.62800
C 	C 	0.00360 0.90110 0.36660 0.12800
O 	O 	0.02710 0.87370 0.34580 -0.12800
O 	O 	0.96390 0.91370 0.35490 -0.16700
N 	N 	0.16220 0.84680 0.20905 -0.21400
C 	C 	0.16270 0.86540 0.16830 0.14300
C 	C 	0.20610 0.93620 0.16010 -0.45700
C 	C 	0.18980 0.98080 0.18020 0.54100
O 	O 	0.16760 0.96530 0.21324 -0.44900
O 	O 	0.17040 0.96990 0.33701 -0.41800
C 	C 	0.11810 0.77660 0.21480 0.11500
C 	C 	0.05500 0.74860 0.19470 -0.38500
C 	C 	0.01430 0.77730 0.20320 0.41300
O 	O 	0.04050 0.83160 0.21881 -0.44600
O 	O 	0.04390 0.79000 0.30607 -0.46900
C 	C 	0.22870 0.86820 0.22340 0.12800
C 	C 	0.23290 0.84130 0.26080 -0.42400
C 	C 	0.20370 0.85610 0.29390 0.47300
O 	O 	0.16700 0.87770 0.28633 -0.42500
O 	O 	0.21390 0.84450 0.32685 -0.42200
Fe	Fe	0.35671 0.80600 0.42606 1.22700
Fe	Fe	0.21854 0.68936 0.42805 1.22700
Fe	Fe	0.24912 0.80005 0.36146 1.27000
Fe	Fe	0.47983 0.89114 0.48899 1.26500
O 	O 	0.30390 0.71940 0.45703 -0.66200
O 	O 	0.38550 0.74740 0.39898 -0.66900
O 	O 	0.27520 0.76510 0.40006 -0.64100
O 	O 	0.43490 0.82750 0.45329 -0.63700
C 	C 	0.27010 0.65610 0.24980 0.12500
C 	C 	0.25060 0.70070 0.26740 -0.40500
C 	C 	0.24040 0.69500 0.30890 0.42700
O 	O 	0.22010 0.72990 0.32384 -0.43900
O 	O 	0.25140 0.65670 0.32682 -0.33200
C 	C 	0.39850 0.71310 0.60420 0.13600
C 	C 	0.42930 0.77780 0.58590 -0.41400
C 	C 	0.44330 0.77900 0.54440 0.45600
O 	O 	0.47610 0.83380 0.53046 -0.44900
O 	O 	0.42250 0.72640 0.52840 -0.33900
N 	N 	0.22350 0.87040 0.46880 -0.20200
C 	C 	0.24420 0.86910 0.50830 0.12000
C 	C 	0.31480 0.90600 0.51530 -0.39600
C 	C 	0.35200 0.87940 0.49440 0.46000
O 	O 	0.33360 0.85670 0.46152 -0.44500
O 	O 	0.40100 0.88670 0.51081 -0.45000
C 	C 	0.15180 0.83210 0.46570 0.09900
C 	C 	0.11780 0.76850 0.48600 -0.37900
C 	C 	0.13500 0.71910 0.47380 0.44000
O 	O 	0.19080 0.73820 0.46178 -0.44400
O 	O 	0.56960 0.90790 0.47718 -0.42800
C 	C 	0.24180 0.93620 0.45100 0.06400
C 	C 	0.30450 0.96840 0.43020 -0.29700
C 	C 	0.30390 0.93390 0.39500 0.40100
O 	O 	0.26620 0.87320 0.39553 -0.40300
O 	O 	0.34300 0.96470 0.36990 -0.27800
N 	N 	0.02800 0.55350 0.37220 -0.25900
C 	C 	0.00930 0.60420 0.36780 0.06900
C 	C 	0.05350 0.66720 0.36760 -0.39200
C 	C 	0.12080 0.69730 0.38140 0.43200
O 	O 	0.14000 0.66140 0.39494 -0.43400
O 	O 	0.15570 0.75740 0.37896 -0.41800
C 	C 	0.97900 0.48640 0.37690 0.49900
C 	C 	0.94620 0.46980 0.41580 -0.07500
C 	C 	0.99060 0.48220 0.44980 0.37300
O 	O 	0.48940 0.95640 0.44851 -0.37300
O 	O 	0.52870 0.97190 0.52315 -0.37500
C 	C 	0.05900 0.56420 0.33290 -0.48900
C 	C 	0.08200 0.51990 0.32240 -0.39700
C 	C 	0.12620 0.51290 0.34940 0.46500
O 	O 	0.40030 0.87150 0.38383 -0.44900
O 	O 	0.33260 0.84340 0.33472 -0.46900
H 	H 	0.04130 0.95910 0.19230 0.22700
H 	H 	0.94670 0.90500 0.43040 0.04600
H 	H 	0.00720 0.94010 0.45750 0.00900
H 	H 	0.07400 0.95050 0.40510 -0.34500
H 	H 	0.02720 0.87820 0.41710 0.05900
C 	C 	0.93810 0.94390 0.43680 -0.12500
H 	H 	0.93780 0.90320 0.43390 0.02400
H 	H 	0.93380 0.95080 0.46400 0.05100
C 	C 	0.05730 0.94300 0.41480 0.27200
H 	H 	0.09170 0.93640 0.42450 0.01900
H 	H 	0.01640 0.90270 0.41910 -0.51400
C 	C 	0.06550 0.95370 0.37540 0.07500
O 	O 	0.04420 0.89840 0.35570 -0.30000
O 	O 	0.07730 0.00830 0.35900 -0.11100
H 	H 	0.14630 0.86800 0.22320 0.15900
H 	H 	0.11870 0.85320 0.16090 -0.00600
H 	H 	0.17620 0.84080 0.15240 -0.02000
H 	H 	0.25010 0.94790 0.16690 0.18000
H 	H 	0.20530 0.94290 0.13260 0.17500
H 	H 	0.10980 0.76850 0.24210 0.00300
H 	H 	0.14010 0.75380 0.20620 -0.01600
H 	H 	0.06320 0.75210 0.16720 0.13100
H 	H 	0.03030 0.70270 0.20080 0.12900
H 	H 	0.25100 0.85670 0.20430 -0.01200
H 	H 	0.25190 0.91520 0.22540 0.01000
H 	H 	0.27830 0.85730 0.26640 0.15700
H 	H 	0.21210 0.79450 0.25820 0.14900
H 	H 	0.30460 0.72010 0.48520 0.23100
H 	H 	0.25440 0.63980 0.37080 0.23600
H 	H 	0.23720 0.61170 0.25570 -0.00800
H 	H 	0.27130 0.66110 0.22210 -0.01500
H 	H 	0.28370 0.74490 0.26160 0.14700
H 	H 	0.21080 0.69320 0.25520 0.13500
H 	H 	0.30550 0.73170 0.59990 -0.00900
H 	H 	0.28130 0.67820 0.63180 -0.01800
H 	H 	0.20420 0.60520 0.58940 0.14600
H 	H 	0.19420 0.66380 0.59920 0.14400
H 	H 	0.24010 0.85120 0.45350 0.15500
H 	H 	0.22840 0.82420 0.51550 0.00600
H 	H 	0.22360 0.88580 0.52520 -0.00900
H 	H 	0.32260 0.90610 0.54280 0.14400
H 	H 	0.33130 0.95070 0.50740 0.16400
H 	H 	0.14070 0.82430 0.43860 0.01100
H 	H 	0.13440 0.85860 0.47540 -0.00600
H 	H 	0.12680 0.77640 0.51340 0.13600
H 	H 	0.07150 0.75030 0.48260 0.13500
H 	H 	0.20770 0.93020 0.43330 0.02000
H 	H 	0.24340 0.96490 0.47130 0.01400
H 	H 	0.31510 0.01220 0.42350 0.08900
H 	H 	0.33830 0.97150 0.44720 0.14100
H 	H 	0.06000 0.56040 0.38930 0.08400
H 	H 	0.06360 0.56400 0.38700 0.07000
C 	C 	0.00820 0.60130 0.38240 0.07900
H 	H 	0.00560 0.60320 0.41020 0.01400
H 	H 	0.96520 0.58690 0.37210 0.00400
H 	H 	0.98540 0.59520 0.34380 0.01000
H 	H 	0.97890 0.59750 0.38830 -0.03800
H 	H 	0.05400 0.66520 0.33970 0.06600
H 	H 	0.03660 0.69550 0.37450 0.07200
H 	H 	0.03400 0.68820 0.38190 0.05500
H 	H 	0.05630 0.68120 0.34110 0.06200
H 	H 	0.99880 0.45980 0.37280 -0.06900
H 	H 	0.94620 0.47520 0.35720 -0.15300
C 	C 	0.95500 0.50700 0.39260 -0.62900
H 	H 	0.94260 0.53670 0.40330 0.19000
H 	H 	0.92560 0.48420 0.37180 0.21900
H 	H 	0.92450 0.49480 0.41930 0.13900
H 	H 	0.91310 0.42430 0.41580 0.04400
H 	H 	0.94250 0.43220 0.40260 0.00400
H 	H 	0.90370 0.45690 0.42640 -0.02000
H 	H 	0.02770 0.56060 0.31370 0.21900
H 	H 	0.09560 0.60830 0.33170 0.18300
C 	C 	0.02040 0.51900 0.34160 0.55100
H 	H 	0.00040 0.53250 0.32210 -0.21000
H 	H 	0.98920 0.47410 0.34790 -0.19000
H 	H 	0.10400 0.53380 0.29780 0.03200
H 	H 	0.04440 0.47730 0.31860 0.07900
H 	H 	0.06650 0.48520 0.30360 0.08200
H 	H 	0.10680 0.56060 0.30870 0.15500
Fe	Fe	0.21491 0.11415 0.18234 1.23500
O 	O 	0.08286 0.04120 0.27950 -0.67000
O 	O 	0.16060 0.08030 0.22385 -0.64600
C 	C 	0.05490 0.06250 0.06880 0.00400
C 	C 	0.11250 0.08370 0.09410 0.59700
C 	C 	0.10250 0.09890 0.13340 0.18800
O 	O 	0.15340 0.12630 0.15420 -0.21200
O 	O 	0.05020 0.08630 0.14510 -0.21300
N 	N 	0.31540 0.15320 0.29095 -0.21200
C 	C 	0.29730 0.13460 0.33170 0.11000
C 	C 	0.26990 0.06380 0.33990 -0.38800
C 	C 	0.20900 0.01920 0.31980 0.43100
O 	O 	0.20230 0.03470 0.28676 -0.44500
O 	O 	0.20050 0.03010 0.16299 -0.50100
C 	C 	0.34150 0.22340 0.28520 0.12300
C 	C 	0.30640 0.25140 0.30530 -0.40500
C 	C 	0.23700 0.22270 0.29680 0.44900
O 	O 	0.20890 0.16840 0.28119 -0.44500
O 	O 	0.25390 0.21000 0.19393 -0.44600
C 	C 	0.36050 0.13180 0.27660 0.13500
C 	C 	0.39160 0.15870 0.23920 -0.43000
C 	C 	0.34760 0.14390 0.20610 0.47100
O 	O 	0.28930 0.12230 0.21367 -0.43200
O 	O 	0.36940 0.15550 0.17315 -0.42500
Fe	Fe	0.55071 0.19400 0.07394 1.22600
Fe	Fe	0.52918 0.31064 0.07195 1.22700
Fe	Fe	0.44907 0.19995 0.13854 1.26900
Fe	Fe	0.58869 0.10886 0.01101 1.26400
O 	O 	0.58450 0.28060 0.04297 -0.66200
O 	O 	0.63810 0.25260 0.10102 -0.67000
O 	O 	0.51010 0.23490 0.09994 -0.64000
O 	O 	0.60740 0.17250 0.04671 -0.63700
C 	C 	0.61400 0.34390 0.25020 0.12500
C 	C 	0.54990 0.29930 0.23260 -0.40500
C 	C 	0.54540 0.30500 0.19110 0.42900
O 	O 	0.49020 0.27010 0.17616 -0.43800
O 	O 	0.59470 0.34330 0.17318 -0.33200
C 	C 	0.68540 0.28690 0.89580 0.13500
C 	C 	0.65150 0.22220 0.91410 -0.41100
C 	C 	0.66430 0.22100 0.95560 0.45400
O 	O 	0.64230 0.16620 0.96954 -0.45200
O 	O 	0.69610 0.27360 0.97160 -0.33800
N 	N 	0.35310 0.12960 0.03120 -0.21300
C 	C 	0.37510 0.13090 0.99170 0.11800
C 	C 	0.40880 0.09400 0.98470 -0.38700
C 	C 	0.47260 0.12060 0.00560 0.45100
O 	O 	0.47690 0.14330 0.03848 -0.44700
O 	O 	0.51430 0.11330 0.98919 -0.45400
C 	C 	0.31970 0.16790 0.03430 0.10400
C 	C 	0.34930 0.23150 0.01400 -0.38300
C 	C 	0.41590 0.28090 0.02620 0.44200
O 	O 	0.45260 0.26180 0.03822 -0.44400
O 	O 	0.66170 0.09210 0.02282 -0.43800
C 	C 	0.30560 0.06380 0.04900 0.15200
C 	C 	0.33610 0.03160 0.06980 -0.48600
C 	C 	0.37000 0.06610 0.10500 0.45200
O 	O 	0.39300 0.12680 0.10447 -0.41800
O 	O 	0.37830 0.03530 0.13010 -0.32400
N 	N 	0.47450 0.44650 0.12780 -0.24500
C 	C 	0.40510 0.39580 0.13220 0.10100
C 	C 	0.38630 0.33280 0.13240 -0.42500
C 	C 	0.42350 0.30270 0.11860 0.44500
O 	O 	0.47860 0.33860 0.10506 -0.43800
O 	O 	0.39830 0.24260 0.12104 -0.42100
C 	C 	0.49260 0.51360 0.12310 0.44500
C 	C 	0.47640 0.53020 0.08420 -0.16900
C 	C 	0.50840 0.51780 0.05020 0.37400
O 	O 	0.53300 0.04360 0.05149 -0.41400
O 	O 	0.55680 0.02810 0.97685 -0.40500
C 	C 	0.49480 0.43580 0.16710 -0.23900
C 	C 	0.56210 0.48010 0.17760 -0.45700
C 	C 	0.61330 0.48710 0.15060 0.48600
O 	O 	0.52880 0.12850 0.11617 -0.44000
O 	O 	0.48920 0.15660 0.16528 -0.45200
H 	H 	0.08220 0.04090 0.30770 0.22000
H 	H 	0.04170 0.09500 0.06960 0.04900
H 	H 	0.06710 0.05990 0.04250 0.02600
H 	H 	0.12350 0.04950 0.09490 -0.28800
H 	H 	0.14900 0.12180 0.08290 0.05500
C 	C 	0.99420 0.05610 0.06320 -0.18900
H 	H 	0.03460 0.09680 0.06610 0.02800
H 	H 	0.98300 0.04920 0.03600 0.08200
C 	C 	0.11430 0.05700 0.08520 0.26400
H 	H 	0.15530 0.06360 0.07550 -0.00000
H 	H 	0.11370 0.09730 0.08090 -0.48000
C 	C 	0.11180 0.04630 0.12460 -0.08400
O 	O 	0.14580 0.10160 0.14430 -0.20600
O 	O 	0.06900 0.99170 0.14100 0.03200
H 	H 	0.27830 0.13200 0.27680 0.15800
H 	H 	0.26550 0.14680 0.33910 0.00700
H 	H 	0.33540 0.15920 0.34760 -0.01100
H 	H 	0.30220 0.05210 0.33310 0.14400
H 	H 	0.26240 0.05710 0.36740 0.14000
H 	H 	0.34130 0.23150 0.25790 0.00300
H 	H 	0.38630 0.24620 0.29380 -0.01800
H 	H 	0.31110 0.24790 0.33280 0.14100
H 	H 	0.32760 0.29730 0.29920 0.14100
H 	H 	0.39430 0.14330 0.29570 -0.01900
H 	H 	0.33670 0.08480 0.27460 -0.00400
H 	H 	0.42100 0.14270 0.23360 0.15300
H 	H 	0.41760 0.20550 0.24180 0.15100
H 	H 	0.58450 0.27990 0.01480 0.23100
H 	H 	0.61460 0.36020 0.12920 0.23600
H 	H 	0.62550 0.38830 0.24430 -0.00800
H 	H 	0.61020 0.33890 0.27790 -0.01500
H 	H 	0.53880 0.25510 0.23840 0.14600
H 	H 	0.51760 0.30680 0.24480 0.13700
H 	H 	0.57380 0.26830 0.90010 -0.01000
H 	H 	0.60310 0.32180 0.86820 -0.01800
H 	H 	0.59900 0.39480 0.91060 0.14800
H 	H 	0.53040 0.33620 0.90080 0.14600
H 	H 	0.38890 0.14880 0.04650 0.15800
H 	H 	0.40420 0.17580 0.98450 0.00600
H 	H 	0.33780 0.11420 0.97480 -0.01600
H 	H 	0.41650 0.09390 0.95720 0.13600
H 	H 	0.38060 0.04930 0.99260 0.14100
H 	H 	0.31640 0.17570 0.06140 0.01100
H 	H 	0.27580 0.14140 0.02460 -0.01000
H 	H 	0.35040 0.22360 0.98660 0.13700
H 	H 	0.32120 0.24970 0.01740 0.14000
H 	H 	0.27750 0.06980 0.06670 -0.01400
H 	H 	0.27850 0.03510 0.02870 -0.03400
H 	H 	0.30290 0.98780 0.07650 0.19400
H 	H 	0.36680 0.02850 0.05280 0.17500
H 	H 	0.49960 0.43960 0.11070 0.07900
H 	H 	0.49960 0.43600 0.11300 0.07100
C 	C 	0.40690 0.39870 0.11760 0.10800
H 	H 	0.40240 0.39680 0.08980 0.02700
H 	H 	0.37830 0.41310 0.12790 0.01100
H 	H 	0.39020 0.40480 0.15620 -0.01800
H 	H 	0.38140 0.40250 0.11170 -0.08400
H 	H 	0.38880 0.33480 0.16030 0.07100
H 	H 	0.34110 0.30450 0.12550 0.08000
H 	H 	0.34580 0.31180 0.11810 0.06200
H 	H 	0.37510 0.31880 0.15890 0.07300
H 	H 	0.53900 0.54020 0.12720 -0.07100
H 	H 	0.47100 0.52480 0.14280 -0.14200
C 	C 	0.44800 0.49300 0.10740 -0.51200
H 	H 	0.40590 0.46330 0.09670 0.15100
H 	H 	0.44140 0.51580 0.12820 0.18200
H 	H 	0.42970 0.50520 0.08070 0.14200
H 	H 	0.48880 0.57570 0.08420 0.05400
H 	H 	0.51030 0.56780 0.09740 0.02600
H 	H 	0.44680 0.54310 0.07360 0.00100
H 	H 	0.46710 0.43940 0.18630 0.11600
H 	H 	0.48730 0.39170 0.16830 0.10800
C 	C 	0.50140 0.48100 0.15840 0.34000
H 	H 	0.46790 0.46750 0.17790 -0.11100
H 	H 	0.51510 0.52590 0.15210 -0.12800
H 	H 	0.57020 0.46620 0.20220 0.05800
H 	H 	0.56710 0.52270 0.18140 0.11300
H 	H 	0.58130 0.51480 0.19640 0.08000
H 	H 	0.54620 0.43940 0.19130 0.14300
Fe	Fe	0.89924 0.78509 0.18234 1.23300
O 	O 	0.95834 0.91714 0.27950 -0.64200
O 	O 	0.91970 0.83940 0.22385 -0.63600
C 	C 	0.00760 0.94510 0.06880 -0.04600
C 	C 	0.97120 0.88750 0.09410 0.68200
C 	C 	0.99640 0.89750 0.13340 0.24500
O 	O 	0.97290 0.84660 0.15420 -0.02800
O 	O 	0.03610 0.94980 0.14510 -0.29100
N 	N 	0.83780 0.68460 0.29095 -0.21500
C 	C 	0.83730 0.70270 0.33170 0.12400
C 	C 	0.79390 0.73010 0.33990 -0.42100
C 	C 	0.81020 0.79100 0.31980 0.48600
O 	O 	0.83240 0.79770 0.28676 -0.44900
O 	O 	0.82960 0.79950 0.16299 -0.45600
C 	C 	0.88190 0.65850 0.28520 0.13200
C 	C 	0.94500 0.69360 0.30530 -0.42300
C 	C 	0.98570 0.76300 0.29680 0.48000
O 	O 	0.95950 0.79110 0.28119 -0.44600
O 	O 	0.95610 0.74610 0.19393 -0.42900
C 	C 	0.77130 0.63950 0.27660 0.13300
C 	C 	0.76710 0.60840 0.23920 -0.42800
C 	C 	0.79630 0.65240 0.20610 0.47300
O 	O 	0.83300 0.71070 0.21367 -0.42900
O 	O 	0.78610 0.63060 0.17315 -0.42300
Fe	Fe	0.64329 0.44929 0.07394 1.22700
Fe	Fe	0.78146 0.47082 0.07195 1.22700
Fe	Fe	0.75088 0.55093 0.13854 1.27000
Fe	Fe	0.52017 0.41131 0.01101 1.26400
O 	O 	0.69610 0.41550 0.04297 -0.66200
O 	O 	0.61450 0.36190 0.10102 -0.67000
O 	O 	0.72480 0.48990 0.09994 -0.64000
O 	O 	0.56510 0.39260 0.04671 -0.63700
C 	C 	0.72990 0.38600 0.25020 0.12500
C 	C 	0.74940 0.45010 0.23260 -0.40600
C 	C 	0.75960 0.45460 0.19110 0.43000
O 	O 	0.77990 0.50980 0.17616 -0.43600
O 	O 	0.74860 0.40530 0.17318 -0.33100
C 	C 	0.60150 0.31460 0.89580 0.13500
C 	C 	0.57070 0.34850 0.91410 -0.41200
C 	C 	0.55670 0.33570 0.95560 0.45500
O 	O 	0.52390 0.35770 0.96954 -0.45000
O 	O 	0.57750 0.30390 0.97160 -0.33800
N 	N 	0.77650 0.64690 0.03120 -0.20700
C 	C 	0.75580 0.62490 0.99170 0.11800
C 	C 	0.68520 0.59120 0.98470 -0.39100
C 	C 	0.64800 0.52740 0.00560 0.45500
O 	O 	0.66640 0.52310 0.03848 -0.44600
O 	O 	0.59900 0.48570 0.98919 -0.45200
C 	C 	0.84820 0.68030 0.03430 0.10200
C 	C 	0.88220 0.65070 0.01400 -0.38400
C 	C 	0.86500 0.58410 0.02620 0.44300
O 	O 	0.80920 0.54740 0.03822 -0.44400
O 	O 	0.43040 0.33830 0.02282 -0.43300
C 	C 	0.75820 0.69440 0.04900 0.10700
C 	C 	0.69550 0.66390 0.06980 -0.39100
C 	C 	0.69610 0.63000 0.10500 0.42600
O 	O 	0.73380 0.60700 0.10447 -0.41000
O 	O 	0.65700 0.62170 0.13010 -0.30100
N 	N 	0.97200 0.52550 0.12780 -0.23200
C 	C 	0.99070 0.59490 0.13220 0.13200
C 	C 	0.94650 0.61370 0.13240 -0.45700
C 	C 	0.87920 0.57650 0.11860 0.45700
O 	O 	0.86000 0.52140 0.10506 -0.44100
O 	O 	0.84430 0.60170 0.12104 -0.42400
C 	C 	0.02100 0.50740 0.12310 0.39100
C 	C 	0.05380 0.52360 0.08420 -0.26100
C 	C 	0.00940 0.49160 0.05020 0.37500
O 	O 	0.51060 0.46700 0.05149 -0.39300
O 	O 	0.47130 0.44320 0.97685 -0.39000
C 	C 	0.94100 0.50520 0.16710 0.00800
C 	C 	0.91800 0.43790 0.17760 -0.51600
C 	C 	0.87380 0.38670 0.15060 0.50600
O 	O 	0.59970 0.47120 0.11617 -0.44400
O 	O 	0.66740 0.51080 0.16528 -0.46100
H 	H 	0.95870 0.91780 0.30770 0.23000
H 	H 	0.05330 0.95830 0.06960 0.07800
H 	H 	0.99280 0.93290 0.04250 0.06400
H 	H 	0.92600 0.87650 0.09490 -0.34600
H 	H 	0.97280 0.85100 0.08290 0.05600
C 	C 	0.06190 0.00580 0.06320 -0.23200
H 	H 	0.06220 0.96540 0.06610 0.04400
H 	H 	0.06620 0.01700 0.03600 0.06600
C 	C 	0.94270 0.88570 0.08520 0.25800
H 	H 	0.90830 0.84470 0.07550 0.02100
H 	H 	0.98360 0.88630 0.08090 -0.52200
C 	C 	0.93450 0.88820 0.12460 0.05600
O 	O 	0.95580 0.85420 0.14430 -0.43100
O 	O 	0.92270 0.93100 0.14100 -0.08600
H 	H 	0.85370 0.72170 0.27680 0.15900
H 	H 	0.88130 0.73450 0.33910 0.00400
H 	H 	0.82380 0.66460 0.34760 -0.01400
H 	H 	0.74990 0.69780 0.33310 0.16200
H 	H 	0.79470 0.73760 0.36740 0.15800
H 	H 	0.89020 0.65870 0.25790 0.00200
H 	H 	0.85990 0.61370 0.29380 -0.01900
H 	H 	0.93680 0.68890 0.33280 0.15000
H 	H 	0.96970 0.67240 0.29920 0.15300
H 	H 	0.74900 0.60570 0.29570 -0.01500
H 	H 	0.74810 0.66330 0.27460 0.00300
H 	H 	0.72170 0.57900 0.23360 0.15500
H 	H 	0.78790 0.58240 0.24180 0.15100
H 	H 	0.69540 0.41550 0.01480 0.23100
H 	H 	0.74560 0.38540 0.12920 0.23600
H 	H 	0.76280 0.37450 0.24430 -0.00700
H 	H 	0.72870 0.38980 0.27790 -0.01500
H 	H 	0.71630 0.46120 0.23840 0.14700
H 	H 	0.78920 0.48240 0.24480 0.13900
H 	H 	0.69450 0.42620 0.90010 -0.01000
H 	H 	0.71870 0.39690 0.86820 -0.01700
H 	H 	0.79580 0.40100 0.91060 0.14900
H 	H 	0.80580 0.46960 0.90080 0.14800
H 	H 	0.75990 0.61110 0.04650 0.15700
H 	H 	0.77160 0.59580 0.98450 0.00700
H 	H 	0.77640 0.66220 0.97480 -0.01200
H 	H 	0.67740 0.58350 0.95720 0.14000
H 	H 	0.66870 0.61940 0.99260 0.15200
H 	H 	0.85930 0.68360 0.06140 0.01200
H 	H 	0.86560 0.72420 0.02460 -0.00500
H 	H 	0.87320 0.64960 0.98660 0.14000
H 	H 	0.92850 0.67880 0.01740 0.14600
H 	H 	0.79230 0.72250 0.06670 0.00400
H 	H 	0.75660 0.72150 0.02870 -0.00900
H 	H 	0.68490 0.69710 0.07650 0.14200
H 	H 	0.66170 0.63320 0.05280 0.15800
H 	H 	0.94000 0.50040 0.11070 0.07500
H 	H 	0.93640 0.50040 0.11300 0.07300
C 	C 	0.99180 0.59310 0.11760 0.13600
H 	H 	0.99440 0.59760 0.08980 0.03900
H 	H 	0.03480 0.62170 0.12790 0.01900
H 	H 	0.01460 0.60980 0.15620 -0.04500
H 	H 	0.02110 0.61860 0.11170 -0.12900
H 	H 	0.94600 0.61120 0.16030 0.07500
H 	H 	0.96340 0.65890 0.12550 0.08800
H 	H 	0.96600 0.65420 0.11810 0.06700
H 	H 	0.94370 0.62490 0.15890 0.08500
H 	H 	0.00120 0.46100 0.12720 -0.07300
H 	H 	0.05380 0.52900 0.14280 -0.13200
C 	C 	0.04500 0.55200 0.10740 -0.39500
H 	H 	0.05740 0.59410 0.09670 0.11300
H 	H 	0.07440 0.55860 0.12820 0.14600
H 	H 	0.07550 0.57030 0.08070 0.14500
H 	H 	0.08690 0.51120 0.08420 0.06400
H 	H 	0.05750 0.48970 0.09740 0.04800
H 	H 	0.09630 0.55320 0.07360 0.02200
H 	H 	0.97230 0.53290 0.18630 0.01400
H 	H 	0.90440 0.51270 0.16830 0.03300
C 	C 	0.97960 0.49860 0.15840 0.13000
H 	H 	0.99960 0.53210 0.17790 -0.01300
H 	H 	0.01080 0.48490 0.15210 -0.06700
H 	H 	0.89600 0.42980 0.20220 0.08300
H 	H 	0.95560 0.43290 0.18140 0.14700
H 	H 	0.93350 0.41870 0.19640 0.07700
H 	H 	0.89320 0.45380 0.19130 0.13200
Fe	Fe	0.88585 0.10076 0.18234 1.23300
O 	O 	0.95880 0.04166 0.27950 -0.65800
O 	O 	0.91970 0.08030 0.22385 -0.63700
C 	C 	0.93750 0.99240 0.06880 0.10100
C 	C 	0.91630 0.02880 0.09410 0.60100
C 	C 	0.90110 0.00360 0.13340 0.10700
O 	O 	0.87370 0.02710 0.15420 -0.19100
O 	O 	0.91370 0.96390 0.14510 -0.14800
N 	N 	0.84680 0.16220 0.29095 -0.21300
C 	C 	0.86540 0.16270 0.33170 0.13800
C 	C 	0.93620 0.20610 0.33990 -0.44600
C 	C 	0.98080 0.18980 0.31980 0.52100
O 	O 	0.96530 0.16760 0.28676 -0.45000
O 	O 	0.96990 0.17040 0.16299 -0.43400
C 	C 	0.77660 0.11810 0.28520 0.11000
C 	C 	0.74860 0.05500 0.30530 -0.37300
C 	C 	0.77730 0.01430 0.29680 0.39200
O 	O 	0.83160 0.04050 0.28119 -0.44500
O 	O 	0.79000 0.04390 0.19393 -0.48100
C 	C 	0.86820 0.22870 0.27660 0.12900
C 	C 	0.84130 0.23290 0.23920 -0.42500
C 	C 	0.85610 0.20370 0.20610 0.47200
O 	O 	0.87770 0.16700 0.21367 -0.42600
O 	O 	0.84450 0.21390 0.17315 -0.42300
Fe	Fe	0.80600 0.35671 0.07394 1.22700
Fe	Fe	0.68936 0.21854 0.07195 1.22700
Fe	Fe	0.80005 0.24912 0.13854 1.26900
Fe	Fe	0.89114 0.47983 0.01101 1.26500
O 	O 	0.71940 0.30390 0.04297 -0.66200
O 	O 	0.74740 0.38550 0.10102 -0.67000
O 	O 	0.76510 0.27520 0.09994 -0.64100
O 	O 	0.82750 0.43490 0.04671 -0.63700
C 	C 	0.65610 0.27010 0.25020 0.12500
C 	C 	0.70070 0.25060 0.23260 -0.40500
C 	C 	0.69500 0.24040 0.19110 0.42600
O 	O 	0.72990 0.22010 0.17616 -0.44000
O 	O 	0.65670 0.25140 0.17318 -0.33200
C 	C 	0.71310 0.39850 0.89580 0.13600
C 	C 	0.77780 0.42930 0.91410 -0.41300
C 	C 	0.77900 0.44330 0.95560 0.45600
O 	O 	0.83380 0.47610 0.96954 -0.44900
O 	O 	0.72640 0.42250 0.97160 -0.33800
N 	N 	0.87040 0.22350 0.03120 -0.20400
C 	C 	0.86910 0.24420 0.99170 0.12000
C 	C 	0.90600 0.31480 0.98470 -0.39400
C 	C 	0.87940 0.35200 0.00560 0.45700
O 	O 	0.85670 0.33360 0.03848 -0.44500
O 	O 	0.88670 0.40100 0.98919 -0.45000
C 	C 	0.83210 0.15180 0.03430 0.10000
C 	C 	0.76850 0.11780 0.01400 -0.37800
C 	C 	0.71910 0.13500 0.02620 0.44000
O 	O 	0.73820 0.19080 0.03822 -0.44400
O 	O 	0.90790 0.56960 0.02282 -0.43000
C 	C 	0.93620 0.24180 0.04900 0.08000
C 	C 	0.96840 0.30450 0.06980 -0.33100
C 	C 	0.93390 0.30390 0.10500 0.41000
O 	O 	0.87320 0.26620 0.10447 -0.40600
O 	O 	0.96470 0.34300 0.13010 -0.28600
N 	N 	0.55350 0.02800 0.12780 -0.26600
C 	C 	0.60420 0.00930 0.13220 0.05000
C 	C 	0.66720 0.05350 0.13240 -0.37300
C 	C 	0.69730 0.12080 0.11860 0.42500
O 	O 	0.66140 0.14000 0.10506 -0.43200
O 	O 	0.75740 0.15570 0.12104 -0.41700
C 	C 	0.48640 0.97900 0.12310 0.53100
C 	C 	0.46980 0.94620 0.08420 -0.02100
C 	C 	0.48220 0.99060 0.05020 0.37300
O 	O 	0.95640 0.48940 0.05149 -0.38100
O 	O 	0.97190 0.52870 0.97685 -0.38000
C 	C 	0.56420 0.05900 0.16710 -0.63300
C 	C 	0.51990 0.08200 0.17760 -0.36200
C 	C 	0.51290 0.12620 0.15060 0.45300
O 	O 	0.87150 0.40030 0.11617 -0.44700
O 	O 	0.84340 0.33260 0.16528 -0.46600
H 	H 	0.95910 0.04130 0.30770 0.22500
H 	H 	0.90500 0.94670 0.06960 0.06200
H 	H 	0.94010 0.00720 0.04250 -0.01800
H 	H 	0.95050 0.07400 0.09490 -0.32000
H 	H 	0.87820 0.02720 0.08290 0.06200
C 	C 	0.94390 0.93810 0.06320 -0.15900
H 	H 	0.90320 0.93780 0.06610 0.00500
H 	H 	0.95080 0.93380 0.03600 0.06700
C 	C 	0.94300 0.05730 0.08520 0.26500
H 	H 	0.93640 0.09170 0.07550 0.01400
H 	H 	0.90270 0.01640 0.08090 -0.50900
C 	C 	0.95370 0.06550 0.12460 0.03300
O 	O 	0.89840 0.04420 0.14430 -0.22500
O 	O 	0.00830 0.07730 0.14100 -0.08600
H 	H 	0.86800 0.14630 0.27680 0.15900
H 	H 	0.85320 0.11870 0.33910 -0.00700
H 	H 	0.84080 0.17620 0.34760 -0.01900
H 	H 	0.94790 0.25010 0.33310 0.17400
H 	H 	0.94290 0.20530 0.36740 0.16800
H 	H 	0.76850 0.10980 0.25790 0.00400
H 	H 	0.75380 0.14010 0.29380 -0.01500
H 	H 	0.75210 0.06320 0.33280 0.12500
H 	H 	0.70270 0.03030 0.29920 0.12200
H 	H 	0.85670 0.25100 0.29570 -0.01300
H 	H 	0.91520 0.25190 0.27460 0.00700
H 	H 	0.85730 0.27830 0.23360 0.15600
H 	H 	0.79450 0.21210 0.24180 0.14900
H 	H 	0.72010 0.30460 0.01480 0.23100
H 	H 	0.63980 0.25440 0.12920 0.23600
H 	H 	0.61170 0.23720 0.24430 -0.00900
H 	H 	0.66110 0.27130 0.27790 -0.01500
H 	H 	0.74490 0.28370 0.23840 0.14700
H 	H 	0.69320 0.21080 0.24480 0.13400
H 	H 	0.73170 0.30550 0.90010 -0.01000
H 	H 	0.67820 0.28130 0.86820 -0.01800
H 	H 	0.60520 0.20420 0.91060 0.14600
H 	H 	0.66380 0.19420 0.90080 0.14300
H 	H 	0.85120 0.24010 0.04650 0.15500
H 	H 	0.82420 0.22840 0.98450 0.00600
H 	H 	0.88580 0.22360 0.97480 -0.01100
H 	H 	0.90610 0.32260 0.95720 0.14300
H 	H 	0.95070 0.33130 0.99260 0.16000
H 	H 	0.82430 0.14070 0.06140 0.01000
H 	H 	0.85860 0.13440 0.02460 -0.00800
H 	H 	0.77640 0.12680 0.98660 0.13500
H 	H 	0.75030 0.07150 0.01740 0.13200
H 	H 	0.93020 0.20770 0.06670 0.01400
H 	H 	0.96490 0.24340 0.02870 0.00500
H 	H 	0.01220 0.31510 0.07650 0.10800
H 	H 	0.97150 0.33830 0.05280 0.14700
H 	H 	0.56040 0.06000 0.11070 0.08600
H 	H 	0.56400 0.06360 0.11300 0.06900
C 	C 	0.60130 0.00820 0.11760 0.06200
H 	H 	0.60320 0.00560 0.08980 0.00700
H 	H 	0.58690 0.96520 0.12790 -0.00100
H 	H 	0.59520 0.98540 0.15620 0.02600
H 	H 	0.59750 0.97890 0.11170 -0.01000
H 	H 	0.66520 0.05400 0.16030 0.06400
H 	H 	0.69550 0.03660 0.12550 0.06700
H 	H 	0.68820 0.03400 0.11810 0.05100
H 	H 	0.68120 0.05630 0.15890 0.05600
H 	H 	0.45980 0.99880 0.12720 -0.06800
H 	H 	0.47520 0.94620 0.14280 -0.15900
C 	C 	0.50700 0.95500 0.10740 -0.69700
H 	H 	0.53670 0.94260 0.09670 0.21200
H 	H 	0.48420 0.92560 0.12820 0.24000
H 	H 	0.49480 0.92450 0.08070 0.13700
H 	H 	0.42430 0.91310 0.08420 0.03900
H 	H 	0.43220 0.94250 0.09740 -0.00900
H 	H 	0.45690 0.90370 0.07360 -0.03300
H 	H 	0.56060 0.02770 0.18630 0.27800
H 	H 	0.60830 0.09560 0.16830 0.22600
C 	C 	0.51900 0.02040 0.15840 0.67400
H 	H 	0.53250 0.00040 0.17790 -0.26700
H 	H 	0.47410 0.98920 0.15210 -0.22600
H 	H 	0.53380 0.10400 0.20220 0.01700
H 	H 	0.47730 0.04440 0.18140 0.05900
H 	H 	0.48520 0.06650 0.19640 0.08400
H 	H 	0.56060 0.10680 0.19130 0.16100
Fe	Fe	0.88585 0.78509 0.68234 1.23300
O 	O 	0.95880 0.91714 0.77950 -0.64600
O 	O 	0.91970 0.83940 0.72385 -0.63800
C 	C 	0.93750 0.94510 0.56880 0.01000
C 	C 	0.91630 0.88750 0.59410 0.66400
C 	C 	0.90110 0.89750 0.63340 0.19300
O 	O 	0.87370 0.84660 0.65420 -0.05800
O 	O 	0.91370 0.94980 0.64510 -0.24000
N 	N 	0.84680 0.68460 0.79095 -0.21500
C 	C 	0.86540 0.70270 0.83170 0.13500
C 	C 	0.93620 0.73010 0.83990 -0.44200
C 	C 	0.98080 0.79100 0.81980 0.51700
O 	O 	0.96530 0.79770 0.78676 -0.45300
O 	O 	0.96990 0.79950 0.66299 -0.43400
C 	C 	0.77660 0.65850 0.78520 0.12400
C 	C 	0.74860 0.69360 0.80530 -0.40500
C 	C 	0.77730 0.76300 0.79680 0.44700
O 	O 	0.83160 0.79110 0.78119 -0.44900
O 	O 	0.79000 0.74610 0.69393 -0.45000
C 	C 	0.86820 0.63950 0.77660 0.13000
C 	C 	0.84130 0.60840 0.73920 -0.42600
C 	C 	0.85610 0.65240 0.70610 0.47300
O 	O 	0.87770 0.71070 0.71367 -0.42700
O 	O 	0.84450 0.63060 0.67315 -0.42300
Fe	Fe	0.80600 0.44929 0.57394 1.22700
Fe	Fe	0.68936 0.47082 0.57195 1.22700
Fe	Fe	0.80005 0.55093 0.63854 1.27000
Fe	Fe	0.89114 0.41131 0.51101 1.26500
O 	O 	0.71940 0.41550 0.54297 -0.66200
O 	O 	0.74740 0.36190 0.60102 -0.67000
O 	O 	0.76510 0.48990 0.59994 -0.64100
O 	O 	0.82750 0.39260 0.54671 -0.63700
C 	C 	0.65610 0.38600 0.75020 0.12500
C 	C 	0.70070 0.45010 0.73260 -0.40600
C 	C 	0.69500 0.45460 0.69110 0.42900
O 	O 	0.72990 0.50980 0.67616 -0.43700
O 	O 	0.65670 0.40530 0.67318 -0.33200
C 	C 	0.71310 0.31460 0.39580 0.13600
C 	C 	0.77780 0.34850 0.41410 -0.41300
C 	C 	0.77900 0.33570 0.45560 0.45600
O 	O 	0.83380 0.35770 0.46954 -0.44900
O 	O 	0.72640 0.30390 0.47160 -0.33800
N 	N 	0.87040 0.64690 0.53120 -0.20400
C 	C 	0.86910 0.62490 0.49170 0.11900
C 	C 	0.90600 0.59120 0.48470 -0.39400
C 	C 	0.87940 0.52740 0.50560 0.45800
O 	O 	0.85670 0.52310 0.53848 -0.44600
O 	O 	0.88670 0.48570 0.48919 -0.45000
C 	C 	0.83210 0.68030 0.53430 0.10100
C 	C 	0.76850 0.65070 0.51400 -0.38100
C 	C 	0.71910 0.58410 0.52620 0.44100
O 	O 	0.73820 0.54740 0.53822 -0.44400
O 	O 	0.90790 0.33830 0.52282 -0.43000
C 	C 	0.93620 0.69440 0.54900 0.08200
C 	C 	0.96840 0.66390 0.56980 -0.33500
C 	C 	0.93390 0.63000 0.60500 0.41100
O 	O 	0.87320 0.60700 0.60447 -0.40600
O 	O 	0.96470 0.62170 0.63010 -0.28700
N 	N 	0.55350 0.52550 0.62780 -0.24500
C 	C 	0.60420 0.59490 0.63220 0.10100
C 	C 	0.66720 0.61370 0.63240 -0.42500
C 	C 	0.69730 0.57650 0.61860 0.44500
O 	O 	0.66140 0.52140 0.60506 -0.43800
O 	O 	0.75740 0.60170 0.62104 -0.42100
C 	C 	0.48640 0.50740 0.62310 0.44500
C 	C 	0.46980 0.52360 0.58420 -0.16900
C 	C 	0.48220 0.49160 0.55020 0.37400
O 	O 	0.95640 0.46700 0.55149 -0.38000
O 	O 	0.97190 0.44320 0.47685 -0.38000
C 	C 	0.56420 0.50520 0.66710 -0.23900
C 	C 	0.51990 0.43790 0.67760 -0.45700
C 	C 	0.51290 0.38670 0.65060 0.48600
O 	O 	0.87150 0.47120 0.61617 -0.44700
O 	O 	0.84340 0.51080 0.66528 -0.46600
H 	H 	0.95910 0.91780 0.80770 0.23100
H 	H 	0.90500 0.95830 0.56960 0.07300
H 	H 	0.94010 0.93290 0.54250 0.03500
H 	H 	0.95050 0.87650 0.59490 -0.34600
H 	H 	0.87820 0.85100 0.58290 0.05900
C 	C 	0.94390 0.00580 0.56320 -0.19300
H 	H 	0.90320 0.96540 0.56610 0.02900
H 	H 	0.95080 0.01700 0.53600 0.05800
C 	C 	0.94300 0.88570 0.58520 0.25700
H 	H 	0.93640 0.84470 0.57550 0.02300
H 	H 	0.90270 0.88630 0.58090 -0.52400
C 	C 	0.95370 0.88820 0.62460 0.08200
O 	O 	0.89840 0.85420 0.64430 -0.39100
O 	O 	0.00830 0.93100 0.64100 -0.12000
H 	H 	0.86800 0.72170 0.77680 0.15900
H 	H 	0.85320 0.73450 0.83910 -0.00200
H 	H 	0.84080 0.66460 0.84760 -0.01700
H 	H 	0.94790 0.69780 0.83310 0.17300
H 	H 	0.94290 0.73760 0.86740 0.16800
H 	H 	0.76850 0.65870 0.75790 0.00200
H 	H 	0.75380 0.61370 0.79380 -0.01700
H 	H 	0.75210 0.68890 0.83280 0.14000
H 	H 	0.70270 0.67240 0.79920 0.14100
H 	H 	0.85670 0.60570 0.79570 -0.01300
H 	H 	0.91520 0.66330 0.77460 0.00700
H 	H 	0.85730 0.57900 0.73360 0.15600
H 	H 	0.79450 0.58240 0.74180 0.15000
H 	H 	0.72010 0.41550 0.51480 0.23100
H 	H 	0.63980 0.38540 0.62920 0.23600
H 	H 	0.61170 0.37450 0.74430 -0.00800
H 	H 	0.66110 0.38980 0.77790 -0.01500
H 	H 	0.74490 0.46120 0.73840 0.14700
H 	H 	0.69320 0.48240 0.74480 0.13700
H 	H 	0.73170 0.42620 0.40010 -0.00900
H 	H 	0.67820 0.39690 0.36820 -0.01700
H 	H 	0.60520 0.40100 0.41060 0.14800
H 	H 	0.66380 0.46960 0.40080 0.14600
H 	H 	0.85120 0.61110 0.54650 0.15600
H 	H 	0.82420 0.59580 0.48450 0.00600
H 	H 	0.88580 0.66220 0.47480 -0.01000
H 	H 	0.90610 0.58350 0.45720 0.14300
H 	H 	0.95070 0.61940 0.49260 0.15900
H 	H 	0.82430 0.68360 0.56140 0.01200
H 	H 	0.85860 0.72420 0.52460 -0.00500
H 	H 	0.77640 0.64960 0.48660 0.13800
H 	H 	0.75030 0.67880 0.51740 0.14100
H 	H 	0.93020 0.72250 0.56670 0.01400
H 	H 	0.96490 0.72150 0.52870 0.00500
H 	H 	0.01220 0.69710 0.57650 0.11100
H 	H 	0.97150 0.63320 0.55280 0.14800
H 	H 	0.56040 0.50040 0.61070 0.07900
H 	H 	0.56400 0.50040 0.61300 0.07100
C 	C 	0.60130 0.59310 0.61760 0.10800
H 	H 	0.60320 0.59760 0.58980 0.02700
H 	H 	0.58690 0.62170 0.62790 0.01200
H 	H 	0.59520 0.60980 0.65620 -0.01800
H 	H 	0.59750 0.61860 0.61170 -0.08300
H 	H 	0.66520 0.61120 0.66030 0.07000
H 	H 	0.69550 0.65890 0.62550 0.08000
H 	H 	0.68820 0.65420 0.61810 0.06100
H 	H 	0.68120 0.62490 0.65890 0.07400
H 	H 	0.45980 0.46100 0.62720 -0.07100
H 	H 	0.47520 0.52900 0.64280 -0.14200
C 	C 	0.50700 0.55200 0.60740 -0.51100
H 	H 	0.53670 0.59410 0.59670 0.15100
H 	H 	0.48420 0.55860 0.62820 0.18200
H 	H 	0.49480 0.57030 0.58070 0.14200
H 	H 	0.42430 0.51120 0.58420 0.05400
H 	H 	0.43220 0.48970 0.59740 0.02600
H 	H 	0.45690 0.55320 0.57360 0.00100
H 	H 	0.56060 0.53290 0.68630 0.11600
H 	H 	0.60830 0.51270 0.66830 0.10700
C 	C 	0.51900 0.49860 0.65840 0.34000
H 	H 	0.53250 0.53210 0.67790 -0.11100
H 	H 	0.47410 0.48490 0.65210 -0.12800
H 	H 	0.53380 0.42980 0.70220 0.05800
H 	H 	0.47730 0.43290 0.68140 0.11300
H 	H 	0.48520 0.41870 0.69640 0.08000
H 	H 	0.56060 0.45380 0.69130 0.14300
Fe	Fe	0.21491 0.10076 0.68234 1.23400
O 	O 	0.08286 0.04166 0.77950 -0.67300
O 	O 	0.16060 0.08030 0.72385 -0.64500
C 	C 	0.05490 0.99240 0.56880 0.11400
C 	C 	0.11250 0.02880 0.59410 0.57000
C 	C 	0.10250 0.00360 0.63340 0.09900
O 	O 	0.15340 0.02710 0.65420 -0.26300
O 	O 	0.05020 0.96390 0.64510 -0.13200
N 	N 	0.31540 0.16220 0.79095 -0.21200
C 	C 	0.29730 0.16270 0.83170 0.12800
C 	C 	0.26990 0.20610 0.83990 -0.42400
C 	C 	0.20900 0.18980 0.81980 0.48600
O 	O 	0.20230 0.16760 0.78676 -0.45100
O 	O 	0.20050 0.17040 0.66299 -0.46200
C 	C 	0.34150 0.11810 0.78520 0.10900
C 	C 	0.30640 0.05500 0.80530 -0.37100
C 	C 	0.23700 0.01430 0.79680 0.39000
O 	O 	0.20890 0.04050 0.78119 -0.44400
O 	O 	0.25390 0.04390 0.69393 -0.48100
C 	C 	0.36050 0.22870 0.77660 0.13100
C 	C 	0.39160 0.23290 0.73920 -0.42600
C 	C 	0.34760 0.20370 0.70610 0.47100
O 	O 	0.28930 0.16700 0.71367 -0.42800
O 	O 	0.36940 0.21390 0.67315 -0.42400
Fe	Fe	0.55071 0.35671 0.57394 1.22700
Fe	Fe	0.52918 0.21854 0.57195 1.22700
Fe	Fe	0.44907 0.24912 0.63854 1.26900
Fe	Fe	0.58869 0.47983 0.51101 1.26400
O 	O 	0.58450 0.30390 0.54297 -0.66200
O 	O 	0.63810 0.38550 0.60102 -0.67000
O 	O 	0.51010 0.27520 0.59994 -0.64000
O 	O 	0.60740 0.43490 0.54671 -0.63700
C 	C 	0.61400 0.27010 0.75020 0.12400
C 	C 	0.54990 0.25060 0.73260 -0.40400
C 	C 	0.54540 0.24040 0.69110 0.42600
O 	O 	0.49020 0.22010 0.67616 -0.44000
O 	O 	0.59470 0.25140 0.67318 -0.33200
C 	C 	0.68540 0.39850 0.39580 0.13500
C 	C 	0.65150 0.42930 0.41410 -0.41200
C 	C 	0.66430 0.44330 0.45560 0.45500
O 	O 	0.64230 0.47610 0.46954 -0.45000
O 	O 	0.69610 0.42250 0.47160 -0.33800
N 	N 	0.35310 0.22350 0.53120 -0.20800
C 	C 	0.37510 0.24420 0.49170 0.11900
C 	C 	0.40880 0.31480 0.48470 -0.39200
C 	C 	0.47260 0.35200 0.50560 0.45500
O 	O 	0.47690 0.33360 0.53848 -0.44600
O 	O 	0.51430 0.40100 0.48919 -0.45200
C 	C 	0.31970 0.15180 0.53430 0.10000
C 	C 	0.34930 0.11780 0.51400 -0.37800
C 	C 	0.41590 0.13500 0.52620 0.44000
O 	O 	0.45260 0.19080 0.53822 -0.44400
O 	O 	0.66170 0.56960 0.52282 -0.43300
C 	C 	0.30560 0.24180 0.54900 0.10800
C 	C 	0.33610 0.30450 0.56980 -0.39200
C 	C 	0.37000 0.30390 0.60500 0.42600
O 	O 	0.39300 0.26620 0.60447 -0.41100
O 	O 	0.37830 0.34300 0.63010 -0.30100
N 	N 	0.47450 0.02800 0.62780 -0.26600
C 	C 	0.40510 0.00930 0.63220 0.04800
C 	C 	0.38630 0.05350 0.63240 -0.37100
C 	C 	0.42350 0.12080 0.61860 0.42400
O 	O 	0.47860 0.14000 0.60506 -0.43200
O 	O 	0.39830 0.15570 0.62104 -0.41600
C 	C 	0.49260 0.97900 0.62310 0.53100
C 	C 	0.47640 0.94620 0.58420 -0.02200
C 	C 	0.50840 0.99060 0.55020 0.37300
O 	O 	0.53300 0.48940 0.55149 -0.39300
O 	O 	0.55680 0.52870 0.47685 -0.39000
C 	C 	0.49480 0.05900 0.66710 -0.63000
C 	C 	0.56210 0.08200 0.67760 -0.36300
C 	C 	0.61330 0.12620 0.65060 0.45300
O 	O 	0.52880 0.40030 0.61617 -0.44400
O 	O 	0.48920 0.33260 0.66528 -0.46100
H 	H 	0.08220 0.04130 0.80770 0.22000
H 	H 	0.04170 0.94670 0.56960 0.05500
H 	H 	0.06710 0.00720 0.54250 -0.02800
H 	H 	0.12350 0.07400 0.59490 -0.29300
H 	H 	0.14900 0.02720 0.58290 0.06200
C 	C 	0.99420 0.93810 0.56320 -0.15900
H 	H 	0.03460 0.93780 0.56610 0.00000
H 	H 	0.98300 0.93380 0.53600 0.07600
C 	C 	0.11430 0.05730 0.58520 0.26800
H 	H 	0.15530 0.09170 0.57550 0.00300
H 	H 	0.11370 0.01640 0.58090 -0.49200
C 	C 	0.11180 0.06550 0.62460 -0.03900
O 	O 	0.14580 0.04420 0.64430 -0.13800
O 	O 	0.06900 0.07730 0.64100 -0.02200
H 	H 	0.27830 0.14630 0.77680 0.15800
H 	H 	0.26550 0.11870 0.83910 -0.00400
H 	H 	0.33540 0.17620 0.84760 -0.01700
H 	H 	0.30220 0.25010 0.83310 0.16300
H 	H 	0.26240 0.20530 0.86740 0.15700
H 	H 	0.34130 0.10980 0.75790 0.00400
H 	H 	0.38630 0.14010 0.79380 -0.01400
H 	H 	0.31110 0.06320 0.83280 0.12500
H 	H 	0.32760 0.03030 0.79920 0.12100
H 	H 	0.39430 0.25100 0.79570 -0.01500
H 	H 	0.33670 0.25190 0.77460 0.00300
H 	H 	0.42100 0.27830 0.73360 0.15500
H 	H 	0.41760 0.21210 0.74180 0.15000
H 	H 	0.58450 0.30460 0.51480 0.23100
H 	H 	0.61460 0.25440 0.62920 0.23600
H 	H 	0.62550 0.23720 0.74430 -0.00900
H 	H 	0.61020 0.27130 0.77790 -0.01500
H 	H 	0.53880 0.28370 0.73840 0.14600
H 	H 	0.51760 0.21080 0.74480 0.13400
H 	H 	0.57380 0.30550 0.40010 -0.01000
H 	H 	0.60310 0.28130 0.36820 -0.01800
H 	H 	0.59900 0.20420 0.41060 0.14600
H 	H 	0.53040 0.19420 0.40080 0.14300
H 	H 	0.38890 0.24010 0.54650 0.15700
H 	H 	0.40420 0.22840 0.48450 0.00600
H 	H 	0.33780 0.22360 0.47480 -0.01300
H 	H 	0.41650 0.32260 0.45720 0.14000
H 	H 	0.38060 0.33130 0.49260 0.15300
H 	H 	0.31640 0.14070 0.56140 0.01000
H 	H 	0.27580 0.13440 0.52460 -0.01000
H 	H 	0.35040 0.12680 0.48660 0.13300
H 	H 	0.32120 0.07150 0.51740 0.13100
H 	H 	0.27750 0.20770 0.56670 0.00200
H 	H 	0.27850 0.24340 0.52870 -0.01100
H 	H 	0.30290 0.31510 0.57650 0.14100
H 	H 	0.36680 0.33830 0.55280 0.15800
H 	H 	0.49960 0.06000 0.61070 0.08600
H 	H 	0.49960 0.06360 0.61300 0.06900
C 	C 	0.40690 0.00820 0.61760 0.06100
H 	H 	0.40240 0.00560 0.58980 0.00600
H 	H 	0.37830 0.96520 0.62790 -0.00100
H 	H 	0.39020 0.98540 0.65620 0.02700
H 	H 	0.38140 0.97890 0.61170 -0.00800
H 	H 	0.38880 0.05400 0.66030 0.06300
H 	H 	0.34110 0.03660 0.62550 0.06600
H 	H 	0.34580 0.03400 0.61810 0.05100
H 	H 	0.37510 0.05630 0.65890 0.05600
H 	H 	0.53900 0.99880 0.62720 -0.06900
H 	H 	0.47100 0.94620 0.64280 -0.15900
C 	C 	0.44800 0.95500 0.60740 -0.69600
H 	H 	0.40590 0.94260 0.59670 0.21200
H 	H 	0.44140 0.92560 0.62820 0.24000
H 	H 	0.42970 0.92450 0.58070 0.13700
H 	H 	0.48880 0.91310 0.58420 0.03900
H 	H 	0.51030 0.94250 0.59740 -0.00900
H 	H 	0.44680 0.90370 0.57360 -0.03300
H 	H 	0.46710 0.02770 0.68630 0.27700
H 	H 	0.48730 0.09560 0.66830 0.22600
C 	C 	0.50140 0.02040 0.65840 0.67100
H 	H 	0.46790 0.00040 0.67790 -0.26600
H 	H 	0.51510 0.98920 0.65210 -0.22500
H 	H 	0.57020 0.10400 0.70220 0.01800
H 	H 	0.56710 0.04440 0.68140 0.06000
H 	H 	0.58130 0.06650 0.69640 0.08400
H 	H 	0.54620 0.10680 0.69130 0.16100
Fe	Fe	0.89924 0.11415 0.68234 1.23500
O 	O 	0.95834 0.04120 0.77950 -0.65500
O 	O 	0.91970 0.08030 0.72385 -0.63900
C 	C 	0.00760 0.06250 0.56880 -0.06800
C 	C 	0.97120 0.08370 0.59410 0.64800
C 	C 	0.99640 0.09890 0.63340 0.24900
O 	O 	0.97290 0.12630 0.65420 -0.10500
O 	O 	0.03610 0.08630 0.64510 -0.28000
N 	N 	0.83780 0.15320 0.79095 -0.21300
C 	C 	0.83730 0.13460 0.83170 0.10900
C 	C 	0.79390 0.06380 0.83990 -0.38900
C 	C 	0.81020 0.01920 0.81980 0.43600
O 	O 	0.83240 0.03470 0.78676 -0.44500
O 	O 	0.82960 0.03010 0.66299 -0.49400
C 	C 	0.88190 0.22340 0.78520 0.13300
C 	C 	0.94500 0.25140 0.80530 -0.42600
C 	C 	0.98570 0.22270 0.79680 0.48600
O 	O 	0.95950 0.16840 0.78119 -0.44300
O 	O 	0.95610 0.21000 0.69393 -0.42400
C 	C 	0.77130 0.13180 0.77660 0.13600
C 	C 	0.76710 0.15870 0.73920 -0.43000
C 	C 	0.79630 0.14390 0.70610 0.47100
O 	O 	0.83300 0.12230 0.71367 -0.43200
O 	O 	0.78610 0.15550 0.67315 -0.42500
Fe	Fe	0.64329 0.19400 0.57394 1.22600
Fe	Fe	0.78146 0.31064 0.57195 1.22700
Fe	Fe	0.75088 0.19995 0.63854 1.27000
Fe	Fe	0.52017 0.10886 0.51101 1.26400
O 	O 	0.69610 0.28060 0.54297 -0.66200
O 	O 	0.61450 0.25260 0.60102 -0.67000
O 	O 	0.72480 0.23490 0.59994 -0.64000
O 	O 	0.56510 0.17250 0.54671 -0.63700
C 	C 	0.72990 0.34390 0.75020 0.12500
C 	C 	0.74940 0.29930 0.73260 -0.40600
C 	C 	0.75960 0.30500 0.69110 0.43000
O 	O 	0.77990 0.27010 0.67616 -0.43600
O 	O 	0.74860 0.34330 0.67318 -0.33100
C 	C 	0.60150 0.28690 0.39580 0.13500
C 	C 	0.57070 0.22220 0.41410 -0.41100
C 	C 	0.55670 0.22100 0.45560 0.45400
O 	O 	0.52390 0.16620 0.46954 -0.45200
O 	O 	0.57750 0.27360 0.47160 -0.33800
N 	N 	0.77650 0.12960 0.53120 -0.21300
C 	C 	0.75580 0.13090 0.49170 0.11800
C 	C 	0.68520 0.09400 0.48470 -0.38700
C 	C 	0.64800 0.12060 0.50560 0.45100
O 	O 	0.66640 0.14330 0.53848 -0.44700
O 	O 	0.59900 0.11330 0.48919 -0.45400
C 	C 	0.84820 0.16790 0.53430 0.10400
C 	C 	0.88220 0.23150 0.51400 -0.38500
C 	C 	0.86500 0.28090 0.52620 0.44300
O 	O 	0.80920 0.26180 0.53822 -0.44400
O 	O 	0.43040 0.09210 0.52282 -0.43800
C 	C 	0.75820 0.06380 0.54900 0.14900
C 	C 	0.69550 0.03160 0.56980 -0.48000
C 	C 	0.69610 0.06610 0.60500 0.45000
O 	O 	0.73380 0.12680 0.60447 -0.41700
O 	O 	0.65700 0.03530 0.63010 -0.32300
N 	N 	0.97200 0.44650 0.62780 -0.23200
C 	C 	0.99070 0.39580 0.63220 0.13500
C 	C 	0.94650 0.33280 0.63240 -0.46000
C 	C 	0.87920 0.30270 0.61860 0.45800
O 	O 	0.86000 0.33860 0.60506 -0.44100
O 	O 	0.84430 0.24260 0.62104 -0.42400
C 	C 	0.02100 0.51360 0.62310 0.39000
C 	C 	0.05380 0.53020 0.58420 -0.26300
C 	C 	0.00940 0.51780 0.55020 0.37500
O 	O 	0.51060 0.04360 0.55149 -0.41400
O 	O 	0.47130 0.02810 0.47685 -0.40500
C 	C 	0.94100 0.43580 0.66710 0.01100
C 	C 	0.91800 0.48010 0.67760 -0.51700
C 	C 	0.87380 0.48710 0.65060 0.50600
O 	O 	0.59970 0.12850 0.61617 -0.44000
O 	O 	0.66740 0.15660 0.66528 -0.45200
H 	H 	0.95870 0.04090 0.80770 0.22400
H 	H 	0.05330 0.09500 0.56960 0.05900
H 	H 	0.99280 0.05990 0.54250 0.06600
H 	H 	0.92600 0.04950 0.59490 -0.31500
H 	H 	0.97280 0.12180 0.58290 0.05300
C 	C 	0.06190 0.05610 0.56320 -0.22700
H 	H 	0.06220 0.09680 0.56610 0.04800
H 	H 	0.06620 0.04920 0.53600 0.08100
C 	C 	0.94270 0.05700 0.58520 0.26300
H 	H 	0.90830 0.06360 0.57550 0.00800
H 	H 	0.98360 0.09730 0.58090 -0.49500
C 	C 	0.93450 0.04630 0.62460 -0.03700
O 	O 	0.95580 0.10160 0.64430 -0.33800
O 	O 	0.92270 0.99170 0.64100 0.00100
H 	H 	0.85370 0.13200 0.77680 0.15800
H 	H 	0.88130 0.14680 0.83910 0.00900
H 	H 	0.82380 0.15920 0.84760 -0.01100
H 	H 	0.74990 0.05210 0.83310 0.14500
H 	H 	0.79470 0.05710 0.86740 0.14200
H 	H 	0.89020 0.23150 0.75790 0.00200
H 	H 	0.85990 0.24620 0.79380 -0.02000
H 	H 	0.93680 0.24790 0.83280 0.15100
H 	H 	0.96970 0.29730 0.79920 0.15400
H 	H 	0.74900 0.14330 0.79570 -0.01900
H 	H 	0.74810 0.08480 0.77460 -0.00400
H 	H 	0.72170 0.14270 0.73360 0.15300
H 	H 	0.78790 0.20550 0.74180 0.15200
H 	H 	0.69540 0.27990 0.51480 0.23100
H 	H 	0.74560 0.36020 0.62920 0.23600
H 	H 	0.76280 0.38830 0.74430 -0.00700
H 	H 	0.72870 0.33890 0.77790 -0.01500
H 	H 	0.71630 0.25510 0.73840 0.14600
H 	H 	0.78920 0.30680 0.74480 0.13800
H 	H 	0.69450 0.26830 0.40010 -0.01000
H 	H 	0.71870 0.32180 0.36820 -0.01800
H 	H 	0.79580 0.39480 0.41060 0.14900
H 	H 	0.80580 0.33620 0.40080 0.14800
H 	H 	0.75990 0.14880 0.54650 0.15800
H 	H 	0.77160 0.17580 0.48450 0.00700
H 	H 	0.77640 0.11420 0.47480 -0.01500
H 	H 	0.67740 0.09390 0.45720 0.13700
H 	H 	0.66870 0.04930 0.49260 0.14200
H 	H 	0.85930 0.17570 0.56140 0.01200
H 	H 	0.86560 0.14140 0.52460 -0.00800
H 	H 	0.87320 0.22360 0.48660 0.14000
H 	H 	0.92850 0.24970 0.51740 0.14700
H 	H 	0.79230 0.06980 0.56670 -0.01300
H 	H 	0.75660 0.03510 0.52870 -0.03100
H 	H 	0.68490 0.98780 0.57650 0.19100
H 	H 	0.66170 0.02850 0.55280 0.17400
H 	H 	0.94000 0.43960 0.61070 0.07500
H 	H 	0.93640 0.43600 0.61300 0.07300
C 	C 	0.99180 0.39870 0.61760 0.13900
H 	H 	0.99440 0.39680 0.58980 0.04000
H 	H 	0.03480 0.41310 0.62790 0.02000
H 	H 	0.01460 0.40480 0.65620 -0.04700
H 	H 	0.02110 0.40250 0.61170 -0.13200
H 	H 	0.94600 0.33480 0.66030 0.07600
H 	H 	0.96340 0.30450 0.62550 0.08900
H 	H 	0.96600 0.31180 0.61810 0.06800
H 	H 	0.94370 0.31880 0.65890 0.08500
H 	H 	0.00120 0.54020 0.62720 -0.07300
H 	H 	0.05380 0.52480 0.64280 -0.13100
C 	C 	0.04500 0.49300 0.60740 -0.39300
H 	H 	0.05740 0.46330 0.59670 0.11200
H 	H 	0.07440 0.51580 0.62820 0.14500
H 	H 	0.07550 0.50520 0.58070 0.14500
H 	H 	0.08690 0.57570 0.58420 0.06400
H 	H 	0.05750 0.56780 0.59740 0.04900
H 	H 	0.09630 0.54310 0.57360 0.02300
H 	H 	0.97230 0.43940 0.68630 0.01300
H 	H 	0.90440 0.39170 0.66830 0.03200
C 	C 	0.97960 0.48100 0.65840 0.12800
H 	H 	0.99960 0.46750 0.67790 -0.01200
H 	H 	0.01080 0.52590 0.65210 -0.06600
H 	H 	0.89600 0.46620 0.70220 0.08300
H 	H 	0.95560 0.52270 0.68140 0.14700
H 	H 	0.93350 0.51480 0.69640 0.07700
H 	H 	0.89320 0.43940 0.69130 0.13200
Fe	Fe	0.78509 0.88585 0.81766 1.23200
O 	O 	0.91714 0.95880 0.72050 -0.64100
O 	O 	0.83940 0.91970 0.77615 -0.63100
C 	C 	0.94510 0.93750 0.93120 -0.01400
C 	C 	0.88750 0.91630 0.90590 0.66500
C 	C 	0.89750 0.90110 0.86660 0.18200
O 	O 	0.84660 0.87370 0.84580 -0.04900
O 	O 	0.94980 0.91370 0.85490 -0.22400
N 	N 	0.68460 0.84680 0.70905 -0.21500
C 	C 	0.70270 0.86540 0.66830 0.14000
C 	C 	0.73010 0.93620 0.66010 -0.45300
C 	C 	0.79100 0.98080 0.68020 0.53500
O 	O 	0.79770 0.96530 0.71324 -0.44900
O 	O 	0.79950 0.96990 0.83701 -0.42000
C 	C 	0.65850 0.77660 0.71480 0.12400
C 	C 	0.69360 0.74860 0.69470 -0.40500
C 	C 	0.76300 0.77730 0.70320 0.44700
O 	O 	0.79110 0.83160 0.71881 -0.44800
O 	O 	0.74610 0.79000 0.80607 -0.45000
C 	C 	0.63950 0.86820 0.72340 0.12900
C 	C 	0.60840 0.84130 0.76080 -0.42500
C 	C 	0.65240 0.85610 0.79390 0.47300
O 	O 	0.71070 0.87770 0.78633 -0.42500
O 	O 	0.63060 0.84450 0.82685 -0.42200
Fe	Fe	0.44929 0.80600 0.92606 1.22700
Fe	Fe	0.47082 0.68936 0.92805 1.22700
Fe	Fe	0.55093 0.80005 0.86146 1.27000
Fe	Fe	0.41131 0.89114 0.98899 1.26500
O 	O 	0.41550 0.71940 0.95703 -0.66200
O 	O 	0.36190 0.74740 0.89898 -0.66900
O 	O 	0.48990 0.76510 0.90006 -0.64100
O 	O 	0.39260 0.82750 0.95329 -0.63700
C 	C 	0.38600 0.65610 0.74980 0.12500
C 	C 	0.45010 0.70070 0.76740 -0.40600
C 	C 	0.45460 0.69500 0.80890 0.42900
O 	O 	0.50980 0.72990 0.82384 -0.43700
O 	O 	0.40530 0.65670 0.82682 -0.33200
C 	C 	0.31460 0.71310 0.10420 0.13600
C 	C 	0.34850 0.77780 0.08590 -0.41400
C 	C 	0.33570 0.77900 0.04440 0.45600
O 	O 	0.35770 0.83380 0.03046 -0.44900
O 	O 	0.30390 0.72640 0.02840 -0.33800
N 	N 	0.64690 0.87040 0.96880 -0.20300
C 	C 	0.62490 0.86910 0.00830 0.11900
C 	C 	0.59120 0.90600 0.01530 -0.39500
C 	C 	0.52740 0.87940 0.99440 0.45900
O 	O 	0.52310 0.85670 0.96152 -0.44500
O 	O 	0.48570 0.88670 0.01081 -0.44900
C 	C 	0.68030 0.83210 0.96570 0.10000
C 	C 	0.65070 0.76850 0.98600 -0.38200
C 	C 	0.58410 0.71910 0.97380 0.44200
O 	O 	0.54740 0.73820 0.96178 -0.44400
O 	O 	0.33830 0.90790 0.97718 -0.42800
C 	C 	0.69440 0.93620 0.95100 0.06700
C 	C 	0.66390 0.96840 0.93020 -0.30300
C 	C 	0.63000 0.93390 0.89500 0.40300
O 	O 	0.60700 0.87320 0.89553 -0.40300
O 	O 	0.62170 0.96470 0.86990 -0.28000
N 	N 	0.52550 0.55350 0.87220 -0.24500
C 	C 	0.59490 0.60420 0.86780 0.10100
C 	C 	0.61370 0.66720 0.86760 -0.42500
C 	C 	0.57650 0.69730 0.88140 0.44500
O 	O 	0.52140 0.66140 0.89494 -0.43800
O 	O 	0.60170 0.75740 0.87896 -0.42100
C 	C 	0.50740 0.48640 0.87690 0.44500
C 	C 	0.52360 0.46980 0.91580 -0.16900
C 	C 	0.49160 0.48220 0.94980 0.37400
O 	O 	0.46700 0.95640 0.94851 -0.37300
O 	O 	0.44320 0.97190 0.02315 -0.37400
C 	C 	0.50520 0.56420 0.83290 -0.23900
C 	C 	0.43790 0.51990 0.82240 -0.45700
C 	C 	0.38670 0.51290 0.84940 0.48600
O 	O 	0.47120 0.87150 0.88383 -0.44900
O 	O 	0.51080 0.84340 0.83472 -0.46900
H 	H 	0.91780 0.95910 0.69230 0.23100
H 	H 	0.95830 0.90500 0.93040 0.05300
H 	H 	0.93290 0.94010 0.95750 0.04100
H 	H 	0.87650 0.95050 0.90510 -0.35800
H 	H 	0.85100 0.87820 0.91710 0.05700
C 	C 	0.00580 0.94390 0.93680 -0.14500
H 	H 	0.96540 0.90320 0.93390 0.03700
H 	H 	0.01700 0.95080 0.96400 0.04500
C 	C 	0.88570 0.94300 0.91480 0.26500
H 	H 	0.84470 0.93640 0.92450 0.02400
H 	H 	0.88630 0.90270 0.91910 -0.52200
C 	C 	0.88820 0.95370 0.87540 0.10100
O 	O 	0.85420 0.89840 0.85570 -0.39800
O 	O 	0.93100 0.00830 0.85900 -0.13100
H 	H 	0.72170 0.86800 0.72320 0.16000
H 	H 	0.73450 0.85320 0.66090 -0.00300
H 	H 	0.66460 0.84080 0.65240 -0.01800
H 	H 	0.69780 0.94790 0.66690 0.17900
H 	H 	0.73760 0.94290 0.63260 0.17400
H 	H 	0.65870 0.76850 0.74210 0.00200
H 	H 	0.61370 0.75380 0.70620 -0.01700
H 	H 	0.68890 0.75210 0.66720 0.14000
H 	H 	0.67240 0.70270 0.70080 0.14100
H 	H 	0.60570 0.85670 0.70430 -0.01200
H 	H 	0.66330 0.91520 0.72540 0.00900
H 	H 	0.57900 0.85730 0.76640 0.15700
H 	H 	0.58240 0.79450 0.75820 0.15000
H 	H 	0.41550 0.72010 0.98520 0.23100
H 	H 	0.38540 0.63980 0.87080 0.23600
H 	H 	0.37450 0.61170 0.75570 -0.00800
H 	H 	0.38980 0.66110 0.72210 -0.01500
H 	H 	0.46120 0.74490 0.76160 0.14700
H 	H 	0.48240 0.69320 0.75520 0.13700
H 	H 	0.42620 0.73170 0.09990 -0.00900
H 	H 	0.39690 0.67820 0.13180 -0.01700
H 	H 	0.40100 0.60520 0.08940 0.14800
H 	H 	0.46960 0.66380 0.09920 0.14600
H 	H 	0.61110 0.85120 0.95350 0.15500
H 	H 	0.59580 0.82420 0.01550 0.00600
H 	H 	0.66220 0.88580 0.02520 -0.00900
H 	H 	0.58350 0.90610 0.04280 0.14400
H 	H 	0.61940 0.95070 0.00740 0.16300
H 	H 	0.68360 0.82430 0.93860 0.01200
H 	H 	0.72420 0.85860 0.97540 -0.00400
H 	H 	0.64960 0.77640 0.01340 0.13800
H 	H 	0.67880 0.75030 0.98260 0.14100
H 	H 	0.72250 0.93020 0.93330 0.02000
H 	H 	0.72150 0.96490 0.97130 0.01200
H 	H 	0.69710 0.01220 0.92350 0.09300
H 	H 	0.63320 0.97150 0.94720 0.14300
H 	H 	0.50040 0.56040 0.88930 0.07900
H 	H 	0.50040 0.56400 0.88700 0.07100
C 	C 	0.59310 0.60130 0.88240 0.10800
H 	H 	0.59760 0.60320 0.91020 0.02700
H 	H 	0.62170 0.58690 0.87210 0.01200
H 	H 	0.60980 0.59520 0.84380 -0.01800
H 	H 	0.61860 0.59750 0.88830 -0.08300
H 	H 	0.61120 0.66520 0.83970 0.07000
H 	H 	0.65890 0.69550 0.87450 0.08000
H 	H 	0.65420 0.68820 0.88190 0.06100
H 	H 	0.62490 0.68120 0.84110 0.07400
H 	H 	0.46100 0.45980 0.87280 -0.07100
H 	H 	0.52900 0.47520 0.85720 -0.14200
C 	C 	0.55200 0.50700 0.89260 -0.51100
H 	H 	0.59410 0.53670 0.90330 0.15100
H 	H 	0.55860 0.48420 0.87180 0.18200
H 	H 	0.57030 0.49480 0.91930 0.14200
H 	H 	0.51120 0.42430 0.91580 0.05400
H 	H 	0.48970 0.43220 0.90260 0.02600
H 	H 	0.55320 0.45690 0.92640 0.00100
H 	H 	0.53290 0.56060 0.81370 0.11600
H 	H 	0.51270 0.60830 0.83170 0.10700
C 	C 	0.49860 0.51900 0.84160 0.34000
H 	H 	0.53210 0.53250 0.82210 -0.11100
H 	H 	0.48490 0.47410 0.84790 -0.12800
H 	H 	0.42980 0.53380 0.79780 0.05800
H 	H 	0.43290 0.47730 0.81860 0.11300
H 	H 	0.41870 0.48520 0.80360 0.08000
H 	H 	0.45380 0.56060 0.80870 0.14300
Fe	Fe	0.10076 0.21491 0.81766 1.23400
O 	O 	0.04166 0.08286 0.72050 -0.67100
O 	O 	0.08030 0.16060 0.77615 -0.64400
C 	C 	0.99240 0.05490 0.93120 0.05300
C 	C 	0.02880 0.11250 0.90590 0.58200
C 	C 	0.00360 0.10250 0.86660 0.11900
O 	O 	0.02710 0.15340 0.84580 -0.23600
O 	O 	0.96390 0.05020 0.85490 -0.14500
N 	N 	0.16220 0.31540 0.70905 -0.21300
C 	C 	0.16270 0.29730 0.66830 0.12700
C 	C 	0.20610 0.26990 0.66010 -0.42400
C 	C 	0.18980 0.20900 0.68020 0.48700
O 	O 	0.16760 0.20230 0.71324 -0.45100
O 	O 	0.17040 0.20050 0.83701 -0.46200
C 	C 	0.11810 0.34150 0.71480 0.11400
C 	C 	0.05500 0.30640 0.69470 -0.38300
C 	C 	0.01430 0.23700 0.70320 0.41000
O 	O 	0.04050 0.20890 0.71881 -0.44400
O 	O 	0.04390 0.25390 0.80607 -0.46900
C 	C 	0.22870 0.36050 0.72340 0.13200
C 	C 	0.23290 0.39160 0.76080 -0.42700
C 	C 	0.20370 0.34760 0.79390 0.47200
O 	O 	0.16700 0.28930 0.78633 -0.42900
O 	O 	0.21390 0.36940 0.82685 -0.42400
Fe	Fe	0.35671 0.55071 0.92606 1.22700
Fe	Fe	0.21854 0.52918 0.92805 1.22700
Fe	Fe	0.24912 0.44907 0.86146 1.26900
Fe	Fe	0.47983 0.58869 0.98899 1.26400
O 	O 	0.30390 0.58450 0.95703 -0.66200
O 	O 	0.38550 0.63810 0.89898 -0.67000
O 	O 	0.27520 0.51010 0.90006 -0.64000
O 	O 	0.43490 0.60740 0.95329 -0.63700
C 	C 	0.27010 0.61400 0.74980 0.12500
C 	C 	0.25060 0.54990 0.76740 -0.40500
C 	C 	0.24040 0.54540 0.80890 0.42700
O 	O 	0.22010 0.49020 0.82384 -0.43900
O 	O 	0.25140 0.59470 0.82682 -0.33200
C 	C 	0.39850 0.68540 0.10420 0.13500
C 	C 	0.42930 0.65150 0.08590 -0.41200
C 	C 	0.44330 0.66430 0.04440 0.45500
O 	O 	0.47610 0.64230 0.03046 -0.45000
O 	O 	0.42250 0.69610 0.02840 -0.33800
N 	N 	0.22350 0.35310 0.96880 -0.20800
C 	C 	0.24420 0.37510 0.00830 0.11900
C 	C 	0.31480 0.40880 0.01530 -0.39200
C 	C 	0.35200 0.47260 0.99440 0.45500
O 	O 	0.33360 0.47690 0.96152 -0.44600
O 	O 	0.40100 0.51430 0.01081 -0.45200
C 	C 	0.15180 0.31970 0.96570 0.10100
C 	C 	0.11780 0.34930 0.98600 -0.37900
C 	C 	0.13500 0.41590 0.97380 0.44100
O 	O 	0.19080 0.45260 0.96178 -0.44400
O 	O 	0.56960 0.66170 0.97718 -0.43300
C 	C 	0.24180 0.30560 0.95100 0.10800
C 	C 	0.30450 0.33610 0.93020 -0.39100
C 	C 	0.30390 0.37000 0.89500 0.42600
O 	O 	0.26620 0.39300 0.89553 -0.41100
O 	O 	0.34300 0.37830 0.86990 -0.30100
N 	N 	0.02800 0.47450 0.87220 -0.25900
C 	C 	0.00930 0.40510 0.86780 0.06700
C 	C 	0.05350 0.38630 0.86760 -0.39000
C 	C 	0.12080 0.42350 0.88140 0.43100
O 	O 	0.14000 0.47860 0.89494 -0.43400
O 	O 	0.15570 0.39830 0.87896 -0.41800
C 	C 	0.97900 0.49260 0.87690 0.50000
C 	C 	0.94620 0.47640 0.91580 -0.07400
C 	C 	0.99060 0.50840 0.94980 0.37300
O 	O 	0.48940 0.53300 0.94851 -0.39400
O 	O 	0.52870 0.55680 0.02315 -0.39000
C 	C 	0.05900 0.49480 0.83290 -0.49100
C 	C 	0.08200 0.56210 0.82240 -0.39700
C 	C 	0.12620 0.61330 0.84940 0.46500
O 	O 	0.40030 0.52880 0.88383 -0.44400
O 	O 	0.33260 0.48920 0.83472 -0.46100
H 	H 	0.04130 0.08220 0.69230 0.22100
H 	H 	0.94670 0.04170 0.93040 0.03500
H 	H 	0.00720 0.06710 0.95750 -0.00400
H 	H 	0.07400 0.12350 0.90510 -0.30500
H 	H 	0.02720 0.14900 0.91710 0.05800
C 	C 	0.93810 0.99420 0.93680 -0.12600
H 	H 	0.93780 0.03460 0.93390 0.01800
H 	H 	0.93380 0.98300 0.96400 0.06600
C 	C 	0.05730 0.11430 0.91480 0.27600
H 	H 	0.09170 0.15530 0.92450 0.00300
H 	H 	0.01640 0.11370 0.91910 -0.48700
C 	C 	0.06550 0.11180 0.87540 -0.03500
O 	O 	0.04420 0.14580 0.85570 -0.17100
O 	O 	0.07730 0.06900 0.85900 -0.01400
H 	H 	0.14630 0.27830 0.72320 0.15800
H 	H 	0.11870 0.26550 0.66090 -0.00200
H 	H 	0.17620 0.33540 0.65240 -0.01600
H 	H 	0.25010 0.30220 0.66690 0.16300
H 	H 	0.20530 0.26240 0.63260 0.15700
H 	H 	0.10980 0.34130 0.74210 0.00300
H 	H 	0.14010 0.38630 0.70620 -0.01600
H 	H 	0.06320 0.31110 0.66720 0.13000
H 	H 	0.03030 0.32760 0.70080 0.12800
H 	H 	0.25100 0.39430 0.70430 -0.01500
H 	H 	0.25190 0.33670 0.72540 0.00300
H 	H 	0.27830 0.42100 0.76640 0.15500
H 	H 	0.21210 0.41760 0.75820 0.15000
H 	H 	0.30460 0.58450 0.98520 0.23100
H 	H 	0.25440 0.61460 0.87080 0.23600
H 	H 	0.23720 0.62550 0.75570 -0.00800
H 	H 	0.27130 0.61020 0.72210 -0.01500
H 	H 	0.28370 0.53880 0.76160 0.14600
H 	H 	0.21080 0.51760 0.75520 0.13500
H 	H 	0.30550 0.57380 0.09990 -0.01000
H 	H 	0.28130 0.60310 0.13180 -0.01800
H 	H 	0.20420 0.59900 0.08940 0.14600
H 	H 	0.19420 0.53040 0.09920 0.14400
H 	H 	0.24010 0.38890 0.95350 0.15700
H 	H 	0.22840 0.40420 0.01550 0.00600
H 	H 	0.22360 0.33780 0.02520 -0.01300
H 	H 	0.32260 0.41650 0.04280 0.14000
H 	H 	0.33130 0.38060 0.00740 0.15200
H 	H 	0.14070 0.31640 0.93860 0.01100
H 	H 	0.13440 0.27580 0.97540 -0.00900
H 	H 	0.12680 0.35040 0.01340 0.13500
H 	H 	0.07150 0.32120 0.98260 0.13400
H 	H 	0.20770 0.27750 0.93330 0.00200
H 	H 	0.24340 0.27850 0.97130 -0.01100
H 	H 	0.31510 0.30290 0.92350 0.14100
H 	H 	0.33830 0.36680 0.94720 0.15800
H 	H 	0.06000 0.49960 0.88930 0.08400
H 	H 	0.06360 0.49960 0.88700 0.07000
C 	C 	0.00820 0.40690 0.88240 0.07700
H 	H 	0.00560 0.40240 0.91020 0.01400
H 	H 	0.96520 0.37830 0.87210 0.00300
H 	H 	0.98540 0.39020 0.84380 0.01200
H 	H 	0.97890 0.38140 0.88830 -0.03500
H 	H 	0.05400 0.38880 0.83970 0.06600
H 	H 	0.03660 0.34110 0.87450 0.07100
H 	H 	0.03400 0.34580 0.88190 0.05500
H 	H 	0.05630 0.37510 0.84110 0.06200
H 	H 	0.99880 0.53900 0.87280 -0.07000
H 	H 	0.94620 0.47100 0.85720 -0.15300
C 	C 	0.95500 0.44800 0.89260 -0.63000
H 	H 	0.94260 0.40590 0.90330 0.19000
H 	H 	0.92560 0.44140 0.87180 0.21900
H 	H 	0.92450 0.42970 0.91930 0.13900
H 	H 	0.91310 0.48880 0.91580 0.04400
H 	H 	0.94250 0.51030 0.90260 0.00300
H 	H 	0.90370 0.44680 0.92640 -0.02100
H 	H 	0.02770 0.46710 0.81370 0.21900
H 	H 	0.09560 0.48730 0.83170 0.18300
C 	C 	0.02040 0.50140 0.84160 0.55300
H 	H 	0.00040 0.46790 0.82210 -0.21100
H 	H 	0.98920 0.51510 0.84790 -0.19100
H 	H 	0.10400 0.57020 0.79780 0.03200
H 	H 	0.04440 0.56710 0.81860 0.07900
H 	H 	0.06650 0.58130 0.80360 0.08200
H 	H 	0.10680 0.54620 0.80870 0.15500
Fe	Fe	0.11415 0.89924 0.81766 1.23400
O 	O 	0.04120 0.95834 0.72050 -0.64900
O 	O 	0.08030 0.91970 0.77615 -0.63700
C 	C 	0.06250 0.00760 0.93120 -0.12600
C 	C 	0.08370 0.97120 0.90590 0.67400
C 	C 	0.09890 0.99640 0.86660 0.27000
O 	O 	0.12630 0.97290 0.84580 -0.04300
O 	O 	0.08630 0.03610 0.85490 -0.29800
N 	N 	0.15320 0.83780 0.70905 -0.21500
C 	C 	0.13460 0.83730 0.66830 0.11400
C 	C 	0.06380 0.79390 0.66010 -0.40100
C 	C 	0.01920 0.81020 0.68020 0.45600
O 	O 	0.03470 0.83240 0.71324 -0.45000
O 	O 	0.03010 0.82960 0.83701 -0.48000
C 	C 	0.22340 0.88190 0.71480 0.13800
C 	C 	0.25140 0.94500 0.69470 -0.43800
C 	C 	0.22270 0.98570 0.70320 0.50500
O 	O 	0.16840 0.95950 0.71881 -0.44300
O 	O 	0.21000 0.95610 0.80607 -0.41300
C 	C 	0.13180 0.77130 0.72340 0.13500
C 	C 	0.15870 0.76710 0.76080 -0.43000
C 	C 	0.14390 0.79630 0.79390 0.47200
O 	O 	0.12230 0.83300 0.78633 -0.43100
O 	O 	0.15550 0.78610 0.82685 -0.42400
Fe	Fe	0.19400 0.64329 0.92606 1.22700
Fe	Fe	0.31064 0.78146 0.92805 1.22700
Fe	Fe	0.19995 0.75088 0.86146 1.27000
Fe	Fe	0.10886 0.52017 0.98899 1.26400
O 	O 	0.28060 0.69610 0.95703 -0.66200
O 	O 	0.25260 0.61450 0.89898 -0.67000
O 	O 	0.23490 0.72480 0.90006 -0.64000
O 	O 	0.17250 0.56510 0.95329 -0.63700
C 	C 	0.34390 0.72990 0.74980 0.12500
C 	C 	0.29930 0.74940 0.76740 -0.40700
C 	C 	0.30500 0.75960 0.80890 0.43100
O 	O 	0.27010 0.77990 0.82384 -0.43500
O 	O 	0.34330 0.74860 0.82682 -0.33100
C 	C 	0.28690 0.60150 0.10420 0.13500
C 	C 	0.22220 0.57070 0.08590 -0.41200
C 	C 	0.22100 0.55670 0.04440 0.45400
O 	O 	0.16620 0.52390 0.03046 -0.45100
O 	O 	0.27360 0.57750 0.02840 -0.33800
N 	N 	0.12960 0.77650 0.96880 -0.21100
C 	C 	0.13090 0.75580 0.00830 0.11800
C 	C 	0.09400 0.68520 0.01530 -0.38800
C 	C 	0.12060 0.64800 0.99440 0.45200
O 	O 	0.14330 0.66640 0.96152 -0.44600
O 	O 	0.11330 0.59900 0.01081 -0.45300
C 	C 	0.16790 0.84820 0.96570 0.10400
C 	C 	0.23150 0.88220 0.98600 -0.38800
C 	C 	0.28090 0.86500 0.97380 0.44400
O 	O 	0.26180 0.80920 0.96178 -0.44500
O 	O 	0.09210 0.43040 0.97718 -0.43600
C 	C 	0.06380 0.75820 0.95100 0.13300
C 	C 	0.03160 0.69550 0.93020 -0.44700
C 	C 	0.06610 0.69610 0.89500 0.44100
O 	O 	0.12680 0.73380 0.89553 -0.41500
O 	O 	0.03530 0.65700 0.86990 -0.31500
N 	N 	0.44650 0.97200 0.87220 -0.22500
C 	C 	0.39580 0.99070 0.86780 0.15300
C 	C 	0.33280 0.94650 0.86760 -0.47900
C 	C 	0.30270 0.87920 0.88140 0.46500
O 	O 	0.33860 0.86000 0.89494 -0.44300
O 	O 	0.24260 0.84430 0.87896 -0.42500
C 	C 	0.51360 0.02100 0.87690 0.36000
C 	C 	0.53020 0.05380 0.91580 -0.31400
C 	C 	0.51780 0.00940 0.94980 0.37500
O 	O 	0.04360 0.51060 0.94851 -0.40700
O 	O 	0.02810 0.47130 0.02315 -0.39900
C 	C 	0.43580 0.94100 0.83290 0.14900
C 	C 	0.48010 0.91800 0.82240 -0.55000
C 	C 	0.48710 0.87380 0.84940 0.51800
O 	O 	0.12850 0.59970 0.88383 -0.44100
O 	O 	0.15660 0.66740 0.83472 -0.45500
H 	H 	0.04090 0.95870 0.69230 0.22700
H 	H 	0.09500 0.05330 0.93040 0.04400
H 	H 	0.05990 0.99280 0.95750 0.09200
H 	H 	0.04950 0.92600 0.90510 -0.34000
H 	H 	0.12180 0.97280 0.91710 0.05000
C 	C 	0.05610 0.06190 0.93680 -0.19400
H 	H 	0.09680 0.06220 0.93390 0.06600
H 	H 	0.04920 0.06620 0.96400 0.06500
C 	C 	0.05700 0.94270 0.91480 0.26900
H 	H 	0.06360 0.90830 0.92450 0.01300
H 	H 	0.09730 0.98360 0.91910 -0.50000
C 	C 	0.04630 0.93450 0.87540 0.00400
O 	O 	0.10160 0.95580 0.85570 -0.41200
O 	O 	0.99170 0.92270 0.85900 -0.02500
H 	H 	0.13200 0.85370 0.72320 0.15900
H 	H 	0.14680 0.88130 0.66090 0.01000
H 	H 	0.15920 0.82380 0.65240 -0.01100
H 	H 	0.05210 0.74990 0.66690 0.15100
H 	H 	0.05710 0.79470 0.63260 0.14800
H 	H 	0.23150 0.89020 0.74210 0.00100
H 	H 	0.24620 0.85990 0.70620 -0.02100
H 	H 	0.24790 0.93680 0.66720 0.15700
H 	H 	0.29730 0.96970 0.70080 0.16100
H 	H 	0.14330 0.74900 0.70430 -0.01800
H 	H 	0.08480 0.74810 0.72540 -0.00200
H 	H 	0.14270 0.72170 0.76640 0.15400
H 	H 	0.20550 0.78790 0.75820 0.15200
H 	H 	0.27990 0.69540 0.98520 0.23100
H 	H 	0.36020 0.74560 0.87080 0.23600
H 	H 	0.38830 0.76280 0.75570 -0.00700
H 	H 	0.33890 0.72870 0.72210 -0.01400
H 	H 	0.25510 0.71630 0.76160 0.14700
H 	H 	0.30680 0.78920 0.75520 0.13900
H 	H 	0.26830 0.69450 0.09990 -0.01000
H 	H 	0.32180 0.71870 0.13180 -0.01700
H 	H 	0.39480 0.79580 0.08940 0.15000
H 	H 	0.33620 0.80580 0.09920 0.14900
H 	H 	0.14880 0.75990 0.95350 0.15800
H 	H 	0.17580 0.77160 0.01550 0.00700
H 	H 	0.11420 0.77640 0.02520 -0.01400
H 	H 	0.09390 0.67740 0.04280 0.13800
H 	H 	0.04930 0.66870 0.00740 0.14600
H 	H 	0.17570 0.85930 0.93860 0.01200
H 	H 	0.14140 0.86560 0.97540 -0.00600
H 	H 	0.22360 0.87320 0.01340 0.14200
H 	H 	0.24970 0.92850 0.98260 0.15000
H 	H 	0.06980 0.79230 0.93330 -0.00600
H 	H 	0.03510 0.75660 0.97130 -0.02300
H 	H 	0.98780 0.68490 0.92350 0.17300
H 	H 	0.02850 0.66170 0.94720 0.16800
H 	H 	0.43960 0.94000 0.88930 0.07200
H 	H 	0.43600 0.93640 0.88700 0.07400
C 	C 	0.39870 0.99180 0.88240 0.15500
H 	H 	0.39680 0.99440 0.91020 0.04700
H 	H 	0.41310 0.03480 0.87210 0.02400
H 	H 	0.40480 0.01460 0.84380 -0.06200
H 	H 	0.40250 0.02110 0.88830 -0.15800
H 	H 	0.33480 0.94600 0.83970 0.07800
H 	H 	0.30450 0.96340 0.87450 0.09400
H 	H 	0.31180 0.96600 0.88190 0.07200
H 	H 	0.31880 0.94370 0.84110 0.09100
H 	H 	0.54020 0.00120 0.87280 -0.07400
H 	H 	0.52480 0.05380 0.85720 -0.12500
C 	C 	0.49300 0.04500 0.89260 -0.32900
H 	H 	0.46330 0.05740 0.90330 0.09100
H 	H 	0.51580 0.07440 0.87180 0.12500
H 	H 	0.50520 0.07550 0.91930 0.14600
H 	H 	0.57570 0.08690 0.91580 0.06900
H 	H 	0.56780 0.05750 0.90260 0.06100
H 	H 	0.54310 0.09630 0.92640 0.03500
H 	H 	0.43940 0.97230 0.81370 -0.04400
H 	H 	0.39170 0.90440 0.83170 -0.01000
C 	C 	0.48100 0.97960 0.84160 0.01100
H 	H 	0.46750 0.99960 0.82210 0.04200
H 	H 	0.52590 0.01080 0.84790 -0.03200
H 	H 	0.46620 0.89600 0.79780 0.09700
H 	H 	0.52270 0.95560 0.81860 0.16600
H 	H 	0.51480 0.93350 0.80360 0.07500
H 	H 	0.43940 0.89320 0.80870 0.12600
Fe	Fe	-0.00000 0.00000 0.25000 1.15700
Fe	Fe	-0.00000 -0.00000 0.75000 1.15700
Fe	Fe	-0.00000 0.12906 0.25000 1.22200
Fe	Fe	0.87094 0.87094 0.25000 1.23600
Fe	Fe	0.12906 0.00000 0.25000 1.21500
Fe	Fe	1.00000 0.87094 0.75000 1.24700
Fe	Fe	0.12906 0.12906 0.75000 1.23500
Fe	Fe	0.87094 -0.00000 0.75000 1.21700
Fe	Fe	0.12809 0.12809 0.25000 1.22400
Fe	Fe	0.87191 0.00000 0.25000 1.20400
Fe	Fe	-0.00000 0.87191 0.25000 1.21100
Fe	Fe	0.87191 0.87191 0.75000 1.22200
Fe	Fe	0.12809 -0.00000 0.75000 1.20300
Fe	Fe	0.00000 0.12809 0.75000 1.21000
N 	N 	-0.00000 0.00000 0.42030 -0.15600
H 	H 	-0.00000 0.00000 0.39600 0.11100
N 	N 	0.00000 0.00000 0.07970 -0.16100
H 	H 	0.00000 -0.00000 0.10400 0.11100
N 	N 	-0.00000 0.00000 0.57970 -0.16100
H 	H 	0.00000 0.00000 0.60400 0.11100
N 	N 	-0.00000 -0.00000 0.92030 -0.15600
H 	H 	-0.00000 -0.00000 0.89600 0.11100
Fe	Fe	0.33333 0.66667 0.42863 1.19800
N 	N 	0.33333 0.66667 0.26290 -0.22000
N 	N 	0.33333 0.66667 0.59110 -0.22700
H 	H 	0.33333 0.66667 0.28910 0.15800
H 	H 	0.33333 0.66667 0.56490 0.15800
Fe	Fe	0.66667 0.33333 0.07137 1.19800
N 	N 	0.66667 0.33333 0.23710 -0.22000
N 	N 	0.66667 0.33333 0.90890 -0.22700
H 	H 	0.66667 0.33333 0.21090 0.15800
H 	H 	0.66667 0.33333 0.93510 0.15800
Fe	Fe	0.66667 0.33333 0.57137 1.19800
N 	N 	0.66667 0.33333 0.73710 -0.22000
N 	N 	0.66667 0.33333 0.40890 -0.22700
H 	H 	0.66667 0.33333 0.71090 0.15800
H 	H 	0.66667 0.33333 0.43510 0.15800
Fe	Fe	0.33333 0.66667 0.92863 1.19800
N 	N 	0.33333 0.66667 0.76290 -0.22000
N 	N 	0.33333 0.66667 0.09110 -0.22700
H 	H 	0.33333 0.66667 0.78910 0.15800
H 	H 	0.33333 0.66667 0.06490 0.15800
