data_crystal

_cell_length_a 17.04610
_cell_length_b 21.62290
_cell_length_c 9.85050
_cell_angle_alpha 90.00000
_cell_angle_beta  90.00000
_cell_angle_gamma 90.00000

_symmetry_space_group_name_	'P 1'
_symmetry_space_group_name_H-M	'P 1'

loop_
_symmetry_equiv_pos_as_xyz
  x,y,z

loop_
_atom_site_label
_atom_site_type_symbol
_atom_site_fract_x
_atom_site_fract_y
_atom_site_fract_z
_atom_site_charge
Cu	Cu	0.66837 0.57816 0.07985 0.78800
Cu	Cu	0.43225 0.66455 0.31480 0.80100
Cu	Cu	0.55964 0.45202 0.70442 0.77000
C 	C 	0.51380 0.48860 0.54450 -0.26300
C 	C 	0.60450 0.49480 0.85250 -0.27200
C 	C 	0.52700 0.62550 0.23760 -0.31800
C 	C 	0.83350 0.62210 0.13550 -0.29200
N 	N 	0.63110 0.52490 0.93360 -0.22700
N 	N 	0.57860 0.61060 0.19170 -0.20100
N 	N 	0.77770 0.60500 0.11830 -0.21200
N 	N 	0.48620 0.51140 0.45550 -0.23200
Cu	Cu	0.83163 0.42184 0.57985 0.78700
Cu	Cu	0.06775 0.33545 0.81480 0.80000
Cu	Cu	0.94036 0.54798 0.20442 0.77000
C 	C 	0.98620 0.51140 0.04450 -0.26400
C 	C 	0.89550 0.50520 0.35250 -0.27200
C 	C 	0.97300 0.37450 0.73760 -0.31700
C 	C 	0.66650 0.37790 0.63550 -0.29200
N 	N 	0.86890 0.47510 0.43360 -0.22700
N 	N 	0.92140 0.38940 0.69170 -0.20100
N 	N 	0.72230 0.39500 0.61830 -0.21100
N 	N 	0.01380 0.48860 0.95550 -0.23200
Cu	Cu	0.33163 0.07816 0.92015 0.78700
Cu	Cu	0.56775 0.16455 0.68520 0.80100
Cu	Cu	0.44036 0.95202 0.29558 0.77000
C 	C 	0.48620 0.98860 0.45550 -0.26300
C 	C 	0.39550 0.99480 0.14750 -0.27300
C 	C 	0.47300 0.12550 0.76240 -0.31800
C 	C 	0.16650 0.12210 0.86450 -0.29200
N 	N 	0.36890 0.02490 0.06640 -0.22600
N 	N 	0.42140 0.11060 0.80830 -0.20100
N 	N 	0.22230 0.10500 0.88170 -0.21200
N 	N 	0.51380 0.01140 0.54450 -0.23200
Cu	Cu	0.16837 0.92184 0.42015 0.78700
Cu	Cu	0.93225 0.83545 0.18520 0.80000
Cu	Cu	0.05964 0.04798 0.79558 0.77000
C 	C 	0.01380 0.01140 0.95550 -0.26500
C 	C 	0.10450 0.00520 0.64750 -0.27400
C 	C 	0.02700 0.87450 0.26240 -0.31600
C 	C 	0.33350 0.87790 0.36450 -0.29100
N 	N 	0.13110 0.97510 0.56640 -0.22600
N 	N 	0.07860 0.88940 0.30830 -0.20100
N 	N 	0.27770 0.89500 0.38170 -0.21100
N 	N 	0.98620 0.98860 0.04450 -0.23200
Cu	Cu	0.33163 0.42184 0.92015 0.78700
Cu	Cu	0.56775 0.33545 0.68520 0.80100
Cu	Cu	0.44036 0.54798 0.29558 0.76800
C 	C 	0.39550 0.50520 0.14750 -0.27300
C 	C 	0.47300 0.37450 0.76240 -0.31800
C 	C 	0.16650 0.37790 0.86450 -0.29300
N 	N 	0.36890 0.47510 0.06640 -0.22700
N 	N 	0.42140 0.38940 0.80830 -0.20100
N 	N 	0.22230 0.39500 0.88170 -0.21200
Cu	Cu	0.16837 0.57816 0.42015 0.78700
Cu	Cu	0.93225 0.66455 0.18520 0.80100
Cu	Cu	0.05964 0.45202 0.79558 0.76800
C 	C 	0.10450 0.49480 0.64750 -0.27300
C 	C 	0.02700 0.62550 0.26240 -0.31600
C 	C 	0.33350 0.62210 0.36450 -0.29200
N 	N 	0.13110 0.52490 0.56640 -0.22700
N 	N 	0.07860 0.61060 0.30830 -0.20100
N 	N 	0.27770 0.60500 0.38170 -0.21200
Cu	Cu	0.66837 0.92184 0.07985 0.78600
Cu	Cu	0.43225 0.83545 0.31480 0.80100
Cu	Cu	0.55964 0.04798 0.70442 0.76800
C 	C 	0.60450 0.00520 0.85250 -0.27300
C 	C 	0.52700 0.87450 0.23760 -0.31800
C 	C 	0.83350 0.87790 0.13550 -0.29300
N 	N 	0.63110 0.97510 0.93360 -0.22700
N 	N 	0.57860 0.88940 0.19170 -0.20100
N 	N 	0.77770 0.89500 0.11830 -0.21200
Cu	Cu	0.83163 0.07816 0.57985 0.78700
Cu	Cu	0.06775 0.16455 0.81480 0.80000
Cu	Cu	0.94036 0.95202 0.20442 0.76800
C 	C 	0.89550 0.99480 0.35250 -0.27500
C 	C 	0.97300 0.12550 0.73760 -0.31600
C 	C 	0.66650 0.12210 0.63550 -0.29200
N 	N 	0.86890 0.02490 0.43360 -0.22600
N 	N 	0.92140 0.11060 0.69170 -0.20100
N 	N 	0.72230 0.10500 0.61830 -0.21200
Br	Br	0.46646 0.75000 0.48423 -0.60700
Br	Br	0.38706 0.75000 0.12957 -0.56500
Br	Br	0.03354 0.25000 0.98423 -0.61000
Br	Br	0.11294 0.25000 0.62957 -0.56600
Br	Br	0.53354 0.25000 0.51577 -0.60700
Br	Br	0.61294 0.25000 0.87043 -0.56500
Br	Br	0.96646 0.75000 0.01577 -0.61000
Br	Br	0.88706 0.75000 0.37043 -0.56600
