data_crystal

_cell_length_a 7.09620
_cell_length_b 12.45490
_cell_length_c 13.15800
_cell_angle_alpha 68.16000
_cell_angle_beta  83.11500
_cell_angle_gamma 81.83400

_symmetry_space_group_name_	'P 1'
_symmetry_space_group_name_H-M	'P 1'

loop_
_symmetry_equiv_pos_as_xyz
  x,y,z

loop_
_atom_site_label
_atom_site_type_symbol
_atom_site_fract_x
_atom_site_fract_y
_atom_site_fract_z
_atom_site_charge
Cu	Cu	0.31771 0.97902 0.25108 0.78700
Cu	Cu	0.48033 0.36916 0.19657 0.79900
Cu	Cu	0.68601 0.93300 0.16225 0.77700
Br	Br	0.51204 0.79144 0.33805 -0.70000
C 	C 	0.50470 0.44820 0.38730 -0.26600
C 	C 	0.44880 0.21140 0.22690 -0.27700
C 	C 	0.07720 0.95060 0.22330 -0.26400
C 	C 	0.53780 0.98310 0.03750 -0.31200
C 	C 	0.49310 0.47150 0.04450 -0.26700
N 	N 	0.49550 0.41870 0.31550 -0.23000
N 	N 	0.41220 0.12230 0.23790 -0.24700
N 	N 	0.93150 0.94190 0.20200 -0.23300
N 	N 	0.46220 0.01690 0.96250 -0.25900
N 	N 	0.50690 0.52850 0.95550 -0.24300
Cu	Cu	0.68229 0.02098 0.74892 0.78400
Cu	Cu	0.51967 0.63084 0.80343 0.79700
Cu	Cu	0.31399 0.06700 0.83775 0.76900
Br	Br	0.48796 0.20856 0.66195 -0.70500
C 	C 	0.49530 0.55180 0.61270 -0.26700
C 	C 	0.55120 0.78860 0.77310 -0.27900
C 	C 	0.92280 0.04940 0.77670 -0.26800
N 	N 	0.50450 0.58130 0.68450 -0.23100
N 	N 	0.58780 0.87770 0.76210 -0.24700
N 	N 	0.06850 0.05810 0.79800 -0.23600
Cu	Cu	0.50000 0.50000 0.50000 0.81800
