data_crystal

_cell_length_a 12.31300
_cell_length_b 22.62600
_cell_length_c 34.70200
_cell_angle_alpha 90.00000
_cell_angle_beta  90.00000
_cell_angle_gamma 90.00000

_symmetry_space_group_name_	'P 1'
_symmetry_space_group_name_H-M	'P 1'

loop_
_symmetry_equiv_pos_as_xyz
  x,y,z

loop_
_atom_site_label
_atom_site_type_symbol
_atom_site_fract_x
_atom_site_fract_y
_atom_site_fract_z
_atom_site_charge
Zn	Zn	0.24093 0.32491 0.24846 1.24000
C 	C 	0.08170 0.35150 0.30580 0.38100
C 	C 	0.07510 0.40270 0.27930 -0.08200
C 	C 	0.02780 0.45730 0.28120 -0.07100
C 	C 	0.96050 0.48710 0.31030 0.36700
C 	C 	0.12620 0.45290 0.22890 0.13600
C 	C 	0.17980 0.46880 0.19340 -0.09900
C 	C 	0.19250 0.52660 0.18210 0.03900
H 	H 	0.16220 0.55680 0.19680 0.00600
C 	C 	0.25150 0.54060 0.14820 -0.13500
H 	H 	0.25940 0.57930 0.13960 0.08000
C 	C 	0.29560 0.49420 0.12920 0.09500
H 	H 	0.33530 0.50290 0.10710 -0.02800
C 	C 	0.22860 0.42560 0.17090 0.04000
H 	H 	0.22080 0.38620 0.17790 -0.02200
N 	N 	0.13830 0.40040 0.24620 -0.22000
N 	N 	0.05940 0.48970 0.24930 -0.22500
N 	N 	0.28810 0.43930 0.13860 -0.29400
O 	O 	0.15480 0.31280 0.29780 -0.46100
O 	O 	0.01970 0.34610 0.33440 -0.50000
O 	O 	0.93730 0.46330 0.34160 -0.47000
O 	O 	0.93400 0.54090 0.30250 -0.46300
Zn	Zn	0.24093 0.82491 0.74846 1.23900
C 	C 	0.08170 0.85150 0.80580 0.38000
C 	C 	0.07510 0.90270 0.77930 -0.08300
C 	C 	0.02780 0.95730 0.78120 -0.07000
C 	C 	0.96050 0.98710 0.81030 0.36300
C 	C 	0.12620 0.95290 0.72890 0.13500
C 	C 	0.17980 0.96880 0.69340 -0.09900
C 	C 	0.19250 0.02660 0.68210 0.03700
H 	H 	0.16220 0.05680 0.69680 0.00500
C 	C 	0.25150 0.04060 0.64820 -0.13700
H 	H 	0.25940 0.07930 0.63960 0.08000
C 	C 	0.29560 0.99420 0.62920 0.09500
H 	H 	0.33530 0.00290 0.60710 -0.03000
C 	C 	0.22860 0.92560 0.67090 0.03900
H 	H 	0.22080 0.88620 0.67790 -0.02300
N 	N 	0.13830 0.90040 0.74620 -0.22100
N 	N 	0.05940 0.98970 0.74930 -0.22500
N 	N 	0.28810 0.93930 0.63860 -0.29400
O 	O 	0.15480 0.81280 0.79780 -0.46100
O 	O 	0.01970 0.84610 0.83440 -0.49800
O 	O 	0.93730 0.96330 0.84160 -0.46900
O 	O 	0.93400 0.04090 0.80250 -0.46100
Zn	Zn	0.74093 0.32491 0.74846 1.23900
C 	C 	0.58170 0.35150 0.80580 0.38000
C 	C 	0.57510 0.40270 0.77930 -0.08300
C 	C 	0.52780 0.45730 0.78120 -0.07200
C 	C 	0.46050 0.48710 0.81030 0.36600
C 	C 	0.62620 0.45290 0.72890 0.13500
C 	C 	0.67980 0.46880 0.69340 -0.10000
C 	C 	0.69250 0.52660 0.68210 0.03800
H 	H 	0.66220 0.55680 0.69680 0.00500
C 	C 	0.75150 0.54060 0.64820 -0.13600
H 	H 	0.75940 0.57930 0.63960 0.07900
C 	C 	0.79560 0.49420 0.62920 0.09400
H 	H 	0.83530 0.50290 0.60710 -0.02900
C 	C 	0.72860 0.42560 0.67090 0.03900
H 	H 	0.72080 0.38620 0.67790 -0.02300
N 	N 	0.63830 0.40040 0.74620 -0.22100
N 	N 	0.55940 0.48970 0.74930 -0.22500
N 	N 	0.78810 0.43930 0.63860 -0.29400
O 	O 	0.65480 0.31280 0.79780 -0.46100
O 	O 	0.51970 0.34610 0.83440 -0.49900
O 	O 	0.43730 0.46330 0.84160 -0.47000
O 	O 	0.43400 0.54090 0.80250 -0.46300
Zn	Zn	0.74093 0.82491 0.24846 1.23900
C 	C 	0.58170 0.85150 0.30580 0.38000
C 	C 	0.57510 0.90270 0.27930 -0.08300
C 	C 	0.52780 0.95730 0.28120 -0.07200
C 	C 	0.46050 0.98710 0.31030 0.36600
C 	C 	0.62620 0.95290 0.22890 0.13500
C 	C 	0.67980 0.96880 0.19340 -0.10000
C 	C 	0.69250 0.02660 0.18210 0.03700
H 	H 	0.66220 0.05680 0.19680 0.00600
C 	C 	0.75150 0.04060 0.14820 -0.13300
H 	H 	0.75940 0.07930 0.13960 0.07800
C 	C 	0.79560 0.99420 0.12920 0.08900
H 	H 	0.83530 0.00290 0.10710 -0.02700
C 	C 	0.72860 0.92560 0.17090 0.03900
H 	H 	0.72080 0.88620 0.17790 -0.02300
N 	N 	0.63830 0.90040 0.24620 -0.22100
N 	N 	0.55940 0.98970 0.24930 -0.22500
N 	N 	0.78810 0.93930 0.13860 -0.29300
O 	O 	0.65480 0.81280 0.29780 -0.46100
O 	O 	0.51970 0.84610 0.33440 -0.49900
O 	O 	0.43730 0.96330 0.34160 -0.47000
O 	O 	0.43400 0.04090 0.30250 -0.46300
Zn	Zn	0.50907 0.42509 0.24846 1.23900
C 	C 	0.66830 0.39850 0.30580 0.38000
C 	C 	0.67490 0.34730 0.27930 -0.08300
C 	C 	0.72220 0.29270 0.28120 -0.07200
C 	C 	0.78950 0.26290 0.31030 0.36600
C 	C 	0.62380 0.29710 0.22890 0.13500
C 	C 	0.57020 0.28120 0.19340 -0.10000
C 	C 	0.55750 0.22340 0.18210 0.03800
H 	H 	0.58780 0.19320 0.19680 0.00500
C 	C 	0.49850 0.20940 0.14820 -0.13600
H 	H 	0.49060 0.17070 0.13960 0.07900
C 	C 	0.45440 0.25580 0.12920 0.09400
H 	H 	0.41470 0.24710 0.10710 -0.02900
C 	C 	0.52140 0.32440 0.17090 0.03900
H 	H 	0.52920 0.36380 0.17790 -0.02300
N 	N 	0.61170 0.34960 0.24620 -0.22100
N 	N 	0.69060 0.26030 0.24930 -0.22500
N 	N 	0.46190 0.31070 0.13860 -0.29400
O 	O 	0.59520 0.43720 0.29780 -0.46100
O 	O 	0.73030 0.40390 0.33440 -0.49900
O 	O 	0.81270 0.28670 0.34160 -0.47000
O 	O 	0.81600 0.20910 0.30250 -0.46200
Zn	Zn	0.50907 0.92509 0.74846 1.23900
C 	C 	0.66830 0.89850 0.80580 0.37900
C 	C 	0.67490 0.84730 0.77930 -0.08300
C 	C 	0.72220 0.79270 0.78120 -0.07200
C 	C 	0.78950 0.76290 0.81030 0.36600
C 	C 	0.62380 0.79710 0.72890 0.13500
C 	C 	0.57020 0.78120 0.69340 -0.10000
C 	C 	0.55750 0.72340 0.68210 0.03800
H 	H 	0.58780 0.69320 0.69680 0.00500
C 	C 	0.49850 0.70940 0.64820 -0.13600
H 	H 	0.49060 0.67070 0.63960 0.07900
C 	C 	0.45440 0.75580 0.62920 0.09400
H 	H 	0.41470 0.74710 0.60710 -0.02900
C 	C 	0.52140 0.82440 0.67090 0.03900
H 	H 	0.52920 0.86380 0.67790 -0.02300
N 	N 	0.61170 0.84960 0.74620 -0.22100
N 	N 	0.69060 0.76030 0.74930 -0.22500
N 	N 	0.46190 0.81070 0.63860 -0.29400
O 	O 	0.59520 0.93720 0.79780 -0.46100
O 	O 	0.73030 0.90390 0.83440 -0.49900
O 	O 	0.81270 0.78670 0.84160 -0.47000
O 	O 	0.81600 0.70910 0.80250 -0.46300
Zn	Zn	0.00907 0.42509 0.74846 1.24000
C 	C 	0.16830 0.39850 0.80580 0.38000
C 	C 	0.17490 0.34730 0.77930 -0.08300
C 	C 	0.22220 0.29270 0.78120 -0.07200
C 	C 	0.28950 0.26290 0.81030 0.36600
C 	C 	0.12380 0.29710 0.72890 0.13500
C 	C 	0.07020 0.28120 0.69340 -0.09900
C 	C 	0.05750 0.22340 0.68210 0.03700
H 	H 	0.08780 0.19320 0.69680 0.00500
C 	C 	0.99850 0.20940 0.64820 -0.13500
H 	H 	0.99060 0.17070 0.63960 0.07900
C 	C 	0.95440 0.25580 0.62920 0.09400
H 	H 	0.91470 0.24710 0.60710 -0.02900
C 	C 	0.02140 0.32440 0.67090 0.03900
H 	H 	0.02920 0.36380 0.67790 -0.02300
N 	N 	0.11170 0.34960 0.74620 -0.22100
N 	N 	0.19060 0.26030 0.74930 -0.22500
N 	N 	0.96190 0.31070 0.63860 -0.29300
O 	O 	0.09520 0.43720 0.79780 -0.46100
O 	O 	0.23030 0.40390 0.83440 -0.49900
O 	O 	0.31270 0.28670 0.84160 -0.47000
O 	O 	0.31600 0.20910 0.80250 -0.46300
Zn	Zn	0.00907 0.92509 0.24846 1.24000
C 	C 	0.16830 0.89850 0.30580 0.38000
C 	C 	0.17490 0.84730 0.27930 -0.08300
C 	C 	0.22220 0.79270 0.28120 -0.07200
C 	C 	0.28950 0.76290 0.31030 0.36600
C 	C 	0.12380 0.79710 0.22890 0.13500
C 	C 	0.07020 0.78120 0.19340 -0.10000
C 	C 	0.05750 0.72340 0.18210 0.03900
H 	H 	0.08780 0.69320 0.19680 0.00500
C 	C 	0.99850 0.70940 0.14820 -0.13700
H 	H 	0.99060 0.67070 0.13960 0.08000
C 	C 	0.95440 0.75580 0.12920 0.09400
H 	H 	0.91470 0.74710 0.10710 -0.02900
C 	C 	0.02140 0.82440 0.17090 0.03900
H 	H 	0.02920 0.86380 0.17790 -0.02300
N 	N 	0.11170 0.84960 0.24620 -0.22100
N 	N 	0.19060 0.76030 0.24930 -0.22500
N 	N 	0.96190 0.81070 0.13860 -0.29400
O 	O 	0.09520 0.93720 0.29780 -0.46100
O 	O 	0.23030 0.90390 0.33440 -0.49900
O 	O 	0.31270 0.78670 0.34160 -0.47000
O 	O 	0.31600 0.70910 0.30250 -0.46300
Zn	Zn	0.50907 0.32491 0.50154 1.23900
C 	C 	0.66830 0.35150 0.44420 0.38000
C 	C 	0.67490 0.40270 0.47070 -0.08300
C 	C 	0.72220 0.45730 0.46880 -0.07200
C 	C 	0.78950 0.48710 0.43970 0.36600
C 	C 	0.62380 0.45290 0.52110 0.13500
C 	C 	0.57020 0.46880 0.55660 -0.10000
C 	C 	0.55750 0.52660 0.56790 0.03800
H 	H 	0.58780 0.55680 0.55320 0.00500
C 	C 	0.49850 0.54060 0.60180 -0.13600
H 	H 	0.49060 0.57930 0.61040 0.07900
C 	C 	0.45440 0.49420 0.62080 0.09400
H 	H 	0.41470 0.50290 0.64290 -0.02900
C 	C 	0.52140 0.42560 0.57910 0.03900
H 	H 	0.52920 0.38620 0.57210 -0.02300
N 	N 	0.61170 0.40040 0.50380 -0.22100
N 	N 	0.69060 0.48970 0.50070 -0.22500
N 	N 	0.46190 0.43930 0.61140 -0.29400
O 	O 	0.59520 0.31280 0.45220 -0.46100
O 	O 	0.73030 0.34610 0.41560 -0.49900
O 	O 	0.81270 0.46330 0.40840 -0.47000
O 	O 	0.81600 0.54090 0.44750 -0.46200
Zn	Zn	0.50907 0.82491 0.00154 1.23900
C 	C 	0.66830 0.85150 0.94420 0.38000
C 	C 	0.67490 0.90270 0.97070 -0.08300
C 	C 	0.72220 0.95730 0.96880 -0.07200
C 	C 	0.78950 0.98710 0.93970 0.36500
C 	C 	0.62380 0.95290 0.02110 0.13500
C 	C 	0.57020 0.96880 0.05660 -0.10000
C 	C 	0.55750 0.02660 0.06790 0.03900
H 	H 	0.58780 0.05680 0.05320 0.00500
C 	C 	0.49850 0.04060 0.10180 -0.13600
H 	H 	0.49060 0.07930 0.11040 0.07900
C 	C 	0.45440 0.99420 0.12080 0.09300
H 	H 	0.41470 0.00290 0.14290 -0.02900
C 	C 	0.52140 0.92560 0.07910 0.03900
H 	H 	0.52920 0.88620 0.07210 -0.02300
N 	N 	0.61170 0.90040 0.00380 -0.22100
N 	N 	0.69060 0.98970 0.00070 -0.22500
N 	N 	0.46190 0.93930 0.11140 -0.29400
O 	O 	0.59520 0.81280 0.95220 -0.46100
O 	O 	0.73030 0.84610 0.91560 -0.49900
O 	O 	0.81270 0.96330 0.90840 -0.47000
O 	O 	0.81600 0.04090 0.94750 -0.46200
Zn	Zn	0.00907 0.32491 0.00154 1.23900
C 	C 	0.16830 0.35150 0.94420 0.38000
C 	C 	0.17490 0.40270 0.97070 -0.08200
C 	C 	0.22220 0.45730 0.96880 -0.07200
C 	C 	0.28950 0.48710 0.93970 0.36600
C 	C 	0.12380 0.45290 0.02110 0.13500
C 	C 	0.07020 0.46880 0.05660 -0.09900
C 	C 	0.05750 0.52660 0.06790 0.03700
H 	H 	0.08780 0.55680 0.05320 0.00500
C 	C 	0.99850 0.54060 0.10180 -0.13500
H 	H 	0.99060 0.57930 0.11040 0.07900
C 	C 	0.95440 0.49420 0.12080 0.09300
H 	H 	0.91470 0.50290 0.14290 -0.02900
C 	C 	0.02140 0.42560 0.07910 0.03800
H 	H 	0.02920 0.38620 0.07210 -0.02300
N 	N 	0.11170 0.40040 0.00380 -0.22100
N 	N 	0.19060 0.48970 0.00070 -0.22500
N 	N 	0.96190 0.43930 0.11140 -0.29300
O 	O 	0.09520 0.31280 0.95220 -0.46100
O 	O 	0.23030 0.34610 0.91560 -0.49900
O 	O 	0.31270 0.46330 0.90840 -0.47000
O 	O 	0.31600 0.54090 0.94750 -0.46200
Zn	Zn	0.00907 0.82491 0.50154 1.24000
C 	C 	0.16830 0.85150 0.44420 0.38000
C 	C 	0.17490 0.90270 0.47070 -0.08300
C 	C 	0.22220 0.95730 0.46880 -0.07200
C 	C 	0.28950 0.98710 0.43970 0.36600
C 	C 	0.12380 0.95290 0.52110 0.13400
C 	C 	0.07020 0.96880 0.55660 -0.09600
C 	C 	0.05750 0.02660 0.56790 0.03200
H 	H 	0.08780 0.05680 0.55320 0.00700
C 	C 	0.99850 0.04060 0.60180 -0.12900
H 	H 	0.99060 0.07930 0.61040 0.07700
C 	C 	0.95440 0.99420 0.62080 0.08700
H 	H 	0.91470 0.00290 0.64290 -0.02600
C 	C 	0.02140 0.92560 0.57910 0.03800
H 	H 	0.02920 0.88620 0.57210 -0.02300
N 	N 	0.11170 0.90040 0.50380 -0.22100
N 	N 	0.19060 0.98970 0.50070 -0.22500
N 	N 	0.96190 0.93930 0.61140 -0.29300
O 	O 	0.09520 0.81280 0.45220 -0.46100
O 	O 	0.23030 0.84610 0.41560 -0.49900
O 	O 	0.31270 0.96330 0.40840 -0.47000
O 	O 	0.31600 0.04090 0.44750 -0.46300
Zn	Zn	0.24093 0.42509 0.50154 1.23900
C 	C 	0.08170 0.39850 0.44420 0.38000
C 	C 	0.07510 0.34730 0.47070 -0.08300
C 	C 	0.02780 0.29270 0.46880 -0.07300
C 	C 	0.96050 0.26290 0.43970 0.36700
C 	C 	0.12620 0.29710 0.52110 0.13500
C 	C 	0.17980 0.28120 0.55660 -0.10000
C 	C 	0.19250 0.22340 0.56790 0.03800
H 	H 	0.16220 0.19320 0.55320 0.00500
C 	C 	0.25150 0.20940 0.60180 -0.13600
H 	H 	0.25940 0.17070 0.61040 0.07900
C 	C 	0.29560 0.25580 0.62080 0.09400
H 	H 	0.33530 0.24710 0.64290 -0.02900
C 	C 	0.22860 0.32440 0.57910 0.03900
H 	H 	0.22080 0.36380 0.57210 -0.02300
N 	N 	0.13830 0.34960 0.50380 -0.22100
N 	N 	0.05940 0.26030 0.50070 -0.22500
N 	N 	0.28810 0.31070 0.61140 -0.29400
O 	O 	0.15480 0.43720 0.45220 -0.46100
O 	O 	0.01970 0.40390 0.41560 -0.49900
O 	O 	0.93730 0.28670 0.40840 -0.47000
O 	O 	0.93400 0.20910 0.44750 -0.46200
Zn	Zn	0.24093 0.92509 0.00154 1.23900
C 	C 	0.08170 0.89850 0.94420 0.38000
C 	C 	0.07510 0.84730 0.97070 -0.08200
C 	C 	0.02780 0.79270 0.96880 -0.07000
C 	C 	0.96050 0.76290 0.93970 0.36500
C 	C 	0.12620 0.79710 0.02110 0.13500
C 	C 	0.17980 0.78120 0.05660 -0.10000
C 	C 	0.19250 0.72340 0.06790 0.03800
H 	H 	0.16220 0.69320 0.05320 0.00500
C 	C 	0.25150 0.70940 0.10180 -0.13600
H 	H 	0.25940 0.67070 0.11040 0.07900
C 	C 	0.29560 0.75580 0.12080 0.09400
H 	H 	0.33530 0.74710 0.14290 -0.02900
C 	C 	0.22860 0.82440 0.07910 0.03900
H 	H 	0.22080 0.86380 0.07210 -0.02300
N 	N 	0.13830 0.84960 0.00380 -0.22100
N 	N 	0.05940 0.76030 0.00070 -0.22600
N 	N 	0.28810 0.81070 0.11140 -0.29400
O 	O 	0.15480 0.93720 0.95220 -0.46100
O 	O 	0.01970 0.90390 0.91560 -0.49800
O 	O 	0.93730 0.78670 0.90840 -0.47000
O 	O 	0.93400 0.70910 0.94750 -0.46200
Zn	Zn	0.74093 0.42509 0.00154 1.24000
C 	C 	0.58170 0.39850 0.94420 0.38000
C 	C 	0.57510 0.34730 0.97070 -0.08300
C 	C 	0.52780 0.29270 0.96880 -0.07200
C 	C 	0.46050 0.26290 0.93970 0.36600
C 	C 	0.62620 0.29710 0.02110 0.13500
C 	C 	0.67980 0.28120 0.05660 -0.10000
C 	C 	0.69250 0.22340 0.06790 0.03800
H 	H 	0.66220 0.19320 0.05320 0.00500
C 	C 	0.75150 0.20940 0.10180 -0.13600
H 	H 	0.75940 0.17070 0.11040 0.08000
C 	C 	0.79560 0.25580 0.12080 0.09400
H 	H 	0.83530 0.24710 0.14290 -0.02900
C 	C 	0.72860 0.32440 0.07910 0.03900
H 	H 	0.72080 0.36380 0.07210 -0.02300
N 	N 	0.63830 0.34960 0.00380 -0.22100
N 	N 	0.55940 0.26030 0.00070 -0.22500
N 	N 	0.78810 0.31070 0.11140 -0.29400
O 	O 	0.65480 0.43720 0.95220 -0.46100
O 	O 	0.51970 0.40390 0.91560 -0.49900
O 	O 	0.43730 0.28670 0.90840 -0.47000
O 	O 	0.43400 0.20910 0.94750 -0.46300
Zn	Zn	0.74093 0.92509 0.50154 1.23900
C 	C 	0.58170 0.89850 0.44420 0.38000
C 	C 	0.57510 0.84730 0.47070 -0.08300
C 	C 	0.52780 0.79270 0.46880 -0.07200
C 	C 	0.46050 0.76290 0.43970 0.36600
C 	C 	0.62620 0.79710 0.52110 0.13500
C 	C 	0.67980 0.78120 0.55660 -0.10000
C 	C 	0.69250 0.72340 0.56790 0.03800
H 	H 	0.66220 0.69320 0.55320 0.00500
C 	C 	0.75150 0.70940 0.60180 -0.13600
H 	H 	0.75940 0.67070 0.61040 0.07900
C 	C 	0.79560 0.75580 0.62080 0.09400
H 	H 	0.83530 0.74710 0.64290 -0.02900
C 	C 	0.72860 0.82440 0.57910 0.03900
H 	H 	0.72080 0.86380 0.57210 -0.02300
N 	N 	0.63830 0.84960 0.50380 -0.22100
N 	N 	0.55940 0.76030 0.50070 -0.22500
N 	N 	0.78810 0.81070 0.61140 -0.29400
O 	O 	0.65480 0.93720 0.45220 -0.46100
O 	O 	0.51970 0.90390 0.41560 -0.49900
O 	O 	0.43730 0.78670 0.40840 -0.47000
O 	O 	0.43400 0.70910 0.44750 -0.46300
Zn	Zn	0.75907 0.67509 0.75154 1.23900
C 	C 	0.91830 0.64850 0.69420 0.38000
C 	C 	0.92490 0.59730 0.72070 -0.08300
C 	C 	0.97220 0.54270 0.71880 -0.07200
C 	C 	0.03950 0.51290 0.68970 0.36600
C 	C 	0.87380 0.54710 0.77110 0.13500
C 	C 	0.82020 0.53120 0.80660 -0.10000
C 	C 	0.80750 0.47340 0.81790 0.03800
H 	H 	0.83780 0.44320 0.80320 0.00500
C 	C 	0.74850 0.45940 0.85180 -0.13600
H 	H 	0.74060 0.42070 0.86040 0.07900
C 	C 	0.70440 0.50580 0.87080 0.09400
H 	H 	0.66470 0.49710 0.89290 -0.02900
C 	C 	0.77140 0.57440 0.82910 0.03900
H 	H 	0.77920 0.61380 0.82210 -0.02300
N 	N 	0.86170 0.59960 0.75380 -0.22100
N 	N 	0.94060 0.51030 0.75070 -0.22500
N 	N 	0.71190 0.56070 0.86140 -0.29400
O 	O 	0.84520 0.68720 0.70220 -0.46100
O 	O 	0.98030 0.65390 0.66560 -0.50000
O 	O 	0.06270 0.53670 0.65840 -0.47000
O 	O 	0.06600 0.45910 0.69750 -0.46300
Zn	Zn	0.75907 0.17509 0.25154 1.23900
C 	C 	0.91830 0.14850 0.19420 0.38000
C 	C 	0.92490 0.09730 0.22070 -0.08300
C 	C 	0.97220 0.04270 0.21880 -0.07000
C 	C 	0.03950 0.01290 0.18970 0.36300
C 	C 	0.87380 0.04710 0.27110 0.13500
C 	C 	0.82020 0.03120 0.30660 -0.09900
C 	C 	0.80750 0.97340 0.31790 0.03700
H 	H 	0.83780 0.94320 0.30320 0.00500
C 	C 	0.74850 0.95940 0.35180 -0.13700
H 	H 	0.74060 0.92070 0.36040 0.08000
C 	C 	0.70440 0.00580 0.37080 0.09500
H 	H 	0.66470 0.99710 0.39290 -0.03000
C 	C 	0.77140 0.07440 0.32910 0.03900
H 	H 	0.77920 0.11380 0.32210 -0.02300
N 	N 	0.86170 0.09960 0.25380 -0.22100
N 	N 	0.94060 0.01030 0.25070 -0.22500
N 	N 	0.71190 0.06070 0.36140 -0.29400
O 	O 	0.84520 0.18720 0.20220 -0.46100
O 	O 	0.98030 0.15390 0.16560 -0.49800
O 	O 	0.06270 0.03670 0.15840 -0.46900
O 	O 	0.06600 0.95910 0.19750 -0.46100
Zn	Zn	0.25907 0.67509 0.25154 1.23900
C 	C 	0.41830 0.64850 0.19420 0.38000
C 	C 	0.42490 0.59730 0.22070 -0.08300
C 	C 	0.47220 0.54270 0.21880 -0.07200
C 	C 	0.53950 0.51290 0.18970 0.36600
C 	C 	0.37380 0.54710 0.27110 0.13500
C 	C 	0.32020 0.53120 0.30660 -0.10000
C 	C 	0.30750 0.47340 0.31790 0.03800
H 	H 	0.33780 0.44320 0.30320 0.00500
C 	C 	0.24850 0.45940 0.35180 -0.13600
H 	H 	0.24060 0.42070 0.36040 0.07900
C 	C 	0.20440 0.50580 0.37080 0.09400
H 	H 	0.16470 0.49710 0.39290 -0.02900
C 	C 	0.27140 0.57440 0.32910 0.03900
H 	H 	0.27920 0.61380 0.32210 -0.02300
N 	N 	0.36170 0.59960 0.25380 -0.22100
N 	N 	0.44060 0.51030 0.25070 -0.22500
N 	N 	0.21190 0.56070 0.36140 -0.29400
O 	O 	0.34520 0.68720 0.20220 -0.46100
O 	O 	0.48030 0.65390 0.16560 -0.49900
O 	O 	0.56270 0.53670 0.15840 -0.47000
O 	O 	0.56600 0.45910 0.19750 -0.46300
Zn	Zn	0.25907 0.17509 0.75154 1.23900
C 	C 	0.41830 0.14850 0.69420 0.38000
C 	C 	0.42490 0.09730 0.72070 -0.08300
C 	C 	0.47220 0.04270 0.71880 -0.07200
C 	C 	0.53950 0.01290 0.68970 0.36600
C 	C 	0.37380 0.04710 0.77110 0.13500
C 	C 	0.32020 0.03120 0.80660 -0.10000
C 	C 	0.30750 0.97340 0.81790 0.03700
H 	H 	0.33780 0.94320 0.80320 0.00600
C 	C 	0.24850 0.95940 0.85180 -0.13300
H 	H 	0.24060 0.92070 0.86040 0.07800
C 	C 	0.20440 0.00580 0.87080 0.08900
H 	H 	0.16470 0.99710 0.89290 -0.02700
C 	C 	0.27140 0.07440 0.82910 0.03900
H 	H 	0.27920 0.11380 0.82210 -0.02300
N 	N 	0.36170 0.09960 0.75380 -0.22100
N 	N 	0.44060 0.01030 0.75070 -0.22500
N 	N 	0.21190 0.06070 0.86140 -0.29300
O 	O 	0.34520 0.18720 0.70220 -0.46100
O 	O 	0.48030 0.15390 0.66560 -0.49900
O 	O 	0.56270 0.03670 0.65840 -0.47000
O 	O 	0.56600 0.95910 0.69750 -0.46300
Zn	Zn	0.49093 0.57491 0.75154 1.23900
C 	C 	0.33170 0.60150 0.69420 0.38000
C 	C 	0.32510 0.65270 0.72070 -0.08300
C 	C 	0.27780 0.70730 0.71880 -0.07200
C 	C 	0.21050 0.73710 0.68970 0.36600
C 	C 	0.37620 0.70290 0.77110 0.13500
C 	C 	0.42980 0.71880 0.80660 -0.10000
C 	C 	0.44250 0.77660 0.81790 0.03800
H 	H 	0.41220 0.80680 0.80320 0.00500
C 	C 	0.50150 0.79060 0.85180 -0.13600
H 	H 	0.50940 0.82930 0.86040 0.07900
C 	C 	0.54560 0.74420 0.87080 0.09400
H 	H 	0.58530 0.75290 0.89290 -0.02900
C 	C 	0.47860 0.67560 0.82910 0.03900
H 	H 	0.47080 0.63620 0.82210 -0.02300
N 	N 	0.38830 0.65040 0.75380 -0.22100
N 	N 	0.30940 0.73970 0.75070 -0.22500
N 	N 	0.53810 0.68930 0.86140 -0.29400
O 	O 	0.40480 0.56280 0.70220 -0.46100
O 	O 	0.26970 0.59610 0.66560 -0.49900
O 	O 	0.18730 0.71330 0.65840 -0.47000
O 	O 	0.18400 0.79090 0.69750 -0.46200
Zn	Zn	0.49093 0.07491 0.25154 1.23900
C 	C 	0.33170 0.10150 0.19420 0.37900
C 	C 	0.32510 0.15270 0.22070 -0.08300
C 	C 	0.27780 0.20730 0.21880 -0.07200
C 	C 	0.21050 0.23710 0.18970 0.36600
C 	C 	0.37620 0.20290 0.27110 0.13500
C 	C 	0.42980 0.21880 0.30660 -0.10000
C 	C 	0.44250 0.27660 0.31790 0.03800
H 	H 	0.41220 0.30680 0.30320 0.00500
C 	C 	0.50150 0.29060 0.35180 -0.13600
H 	H 	0.50940 0.32930 0.36040 0.07900
C 	C 	0.54560 0.24420 0.37080 0.09400
H 	H 	0.58530 0.25290 0.39290 -0.02900
C 	C 	0.47860 0.17560 0.32910 0.03900
H 	H 	0.47080 0.13620 0.32210 -0.02300
N 	N 	0.38830 0.15040 0.25380 -0.22100
N 	N 	0.30940 0.23970 0.25070 -0.22500
N 	N 	0.53810 0.18930 0.36140 -0.29400
O 	O 	0.40480 0.06280 0.20220 -0.46100
O 	O 	0.26970 0.09610 0.16560 -0.49900
O 	O 	0.18730 0.21330 0.15840 -0.47000
O 	O 	0.18400 0.29090 0.19750 -0.46300
Zn	Zn	0.99093 0.57491 0.25154 1.24000
C 	C 	0.83170 0.60150 0.19420 0.38000
C 	C 	0.82510 0.65270 0.22070 -0.08300
C 	C 	0.77780 0.70730 0.21880 -0.07200
C 	C 	0.71050 0.73710 0.18970 0.36600
C 	C 	0.87620 0.70290 0.27110 0.13500
C 	C 	0.92980 0.71880 0.30660 -0.09900
C 	C 	0.94250 0.77660 0.31790 0.03700
H 	H 	0.91220 0.80680 0.30320 0.00500
C 	C 	0.00150 0.79060 0.35180 -0.13500
H 	H 	0.00940 0.82930 0.36040 0.07900
C 	C 	0.04560 0.74420 0.37080 0.09400
H 	H 	0.08530 0.75290 0.39290 -0.02900
C 	C 	0.97860 0.67560 0.32910 0.03900
H 	H 	0.97080 0.63620 0.32210 -0.02300
N 	N 	0.88830 0.65040 0.25380 -0.22100
N 	N 	0.80940 0.73970 0.25070 -0.22500
N 	N 	0.03810 0.68930 0.36140 -0.29300
O 	O 	0.90480 0.56280 0.20220 -0.46100
O 	O 	0.76970 0.59610 0.16560 -0.49900
O 	O 	0.68730 0.71330 0.15840 -0.47000
O 	O 	0.68400 0.79090 0.19750 -0.46300
Zn	Zn	0.99093 0.07491 0.75154 1.24000
C 	C 	0.83170 0.10150 0.69420 0.38000
C 	C 	0.82510 0.15270 0.72070 -0.08300
C 	C 	0.77780 0.20730 0.71880 -0.07200
C 	C 	0.71050 0.23710 0.68970 0.36600
C 	C 	0.87620 0.20290 0.77110 0.13500
C 	C 	0.92980 0.21880 0.80660 -0.10000
C 	C 	0.94250 0.27660 0.81790 0.03900
H 	H 	0.91220 0.30680 0.80320 0.00500
C 	C 	0.00150 0.29060 0.85180 -0.13700
H 	H 	0.00940 0.32930 0.86040 0.08000
C 	C 	0.04560 0.24420 0.87080 0.09400
H 	H 	0.08530 0.25290 0.89290 -0.02900
C 	C 	0.97860 0.17560 0.82910 0.03900
H 	H 	0.97080 0.13620 0.82210 -0.02300
N 	N 	0.88830 0.15040 0.75380 -0.22100
N 	N 	0.80940 0.23970 0.75070 -0.22500
N 	N 	0.03810 0.18930 0.86140 -0.29400
O 	O 	0.90480 0.06280 0.70220 -0.46100
O 	O 	0.76970 0.09610 0.66560 -0.49900
O 	O 	0.68730 0.21330 0.65840 -0.47000
O 	O 	0.68400 0.29090 0.69750 -0.46300
Zn	Zn	0.49093 0.67509 0.49846 1.23900
C 	C 	0.33170 0.64850 0.55580 0.38000
C 	C 	0.32510 0.59730 0.52930 -0.08300
C 	C 	0.27780 0.54270 0.53120 -0.07200
C 	C 	0.21050 0.51290 0.56030 0.36600
C 	C 	0.37620 0.54710 0.47890 0.13500
C 	C 	0.42980 0.53120 0.44340 -0.10000
C 	C 	0.44250 0.47340 0.43210 0.03800
H 	H 	0.41220 0.44320 0.44680 0.00500
C 	C 	0.50150 0.45940 0.39820 -0.13600
H 	H 	0.50940 0.42070 0.38960 0.07900
C 	C 	0.54560 0.50580 0.37920 0.09400
H 	H 	0.58530 0.49710 0.35710 -0.02900
C 	C 	0.47860 0.57440 0.42090 0.03900
H 	H 	0.47080 0.61380 0.42790 -0.02300
N 	N 	0.38830 0.59960 0.49620 -0.22100
N 	N 	0.30940 0.51030 0.49930 -0.22500
N 	N 	0.53810 0.56070 0.38860 -0.29400
O 	O 	0.40480 0.68720 0.54780 -0.46100
O 	O 	0.26970 0.65390 0.58440 -0.49900
O 	O 	0.18730 0.53670 0.59160 -0.47000
O 	O 	0.18400 0.45910 0.55250 -0.46200
Zn	Zn	0.49093 0.17509 0.99846 1.23900
C 	C 	0.33170 0.14850 0.05580 0.38000
C 	C 	0.32510 0.09730 0.02930 -0.08300
C 	C 	0.27780 0.04270 0.03120 -0.07200
C 	C 	0.21050 0.01290 0.06030 0.36500
C 	C 	0.37620 0.04710 0.97890 0.13500
C 	C 	0.42980 0.03120 0.94340 -0.10000
C 	C 	0.44250 0.97340 0.93210 0.03900
H 	H 	0.41220 0.94320 0.94680 0.00500
C 	C 	0.50150 0.95940 0.89820 -0.13600
H 	H 	0.50940 0.92070 0.88960 0.07900
C 	C 	0.54560 0.00580 0.87920 0.09300
H 	H 	0.58530 0.99710 0.85710 -0.02900
C 	C 	0.47860 0.07440 0.92090 0.03900
H 	H 	0.47080 0.11380 0.92790 -0.02300
N 	N 	0.38830 0.09960 0.99620 -0.22100
N 	N 	0.30940 0.01030 0.99930 -0.22500
N 	N 	0.53810 0.06070 0.88860 -0.29400
O 	O 	0.40480 0.18720 0.04780 -0.46100
O 	O 	0.26970 0.15390 0.08440 -0.49900
O 	O 	0.18730 0.03670 0.09160 -0.47000
O 	O 	0.18400 0.95910 0.05250 -0.46200
Zn	Zn	0.99093 0.67509 0.99846 1.23900
C 	C 	0.83170 0.64850 0.05580 0.38000
C 	C 	0.82510 0.59730 0.02930 -0.08200
C 	C 	0.77780 0.54270 0.03120 -0.07200
C 	C 	0.71050 0.51290 0.06030 0.36600
C 	C 	0.87620 0.54710 0.97890 0.13500
C 	C 	0.92980 0.53120 0.94340 -0.09900
C 	C 	0.94250 0.47340 0.93210 0.03700
H 	H 	0.91220 0.44320 0.94680 0.00500
C 	C 	0.00150 0.45940 0.89820 -0.13500
H 	H 	0.00940 0.42070 0.88960 0.07900
C 	C 	0.04560 0.50580 0.87920 0.09300
H 	H 	0.08530 0.49710 0.85710 -0.02900
C 	C 	0.97860 0.57440 0.92090 0.03800
H 	H 	0.97080 0.61380 0.92790 -0.02300
N 	N 	0.88830 0.59960 0.99620 -0.22100
N 	N 	0.80940 0.51030 0.99930 -0.22500
N 	N 	0.03810 0.56070 0.88860 -0.29300
O 	O 	0.90480 0.68720 0.04780 -0.46100
O 	O 	0.76970 0.65390 0.08440 -0.49900
O 	O 	0.68730 0.53670 0.09160 -0.47000
O 	O 	0.68400 0.45910 0.05250 -0.46200
Zn	Zn	0.99093 0.17509 0.49846 1.24000
C 	C 	0.83170 0.14850 0.55580 0.38000
C 	C 	0.82510 0.09730 0.52930 -0.08300
C 	C 	0.77780 0.04270 0.53120 -0.07200
C 	C 	0.71050 0.01290 0.56030 0.36600
C 	C 	0.87620 0.04710 0.47890 0.13400
C 	C 	0.92980 0.03120 0.44340 -0.09600
C 	C 	0.94250 0.97340 0.43210 0.03200
H 	H 	0.91220 0.94320 0.44680 0.00700
C 	C 	0.00150 0.95940 0.39820 -0.12900
H 	H 	0.00940 0.92070 0.38960 0.07700
C 	C 	0.04560 0.00580 0.37920 0.08700
H 	H 	0.08530 0.99710 0.35710 -0.02600
C 	C 	0.97860 0.07440 0.42090 0.03800
H 	H 	0.97080 0.11380 0.42790 -0.02300
N 	N 	0.88830 0.09960 0.49620 -0.22100
N 	N 	0.80940 0.01030 0.49930 -0.22500
N 	N 	0.03810 0.06070 0.38860 -0.29300
O 	O 	0.90480 0.18720 0.54780 -0.46100
O 	O 	0.76970 0.15390 0.58440 -0.49900
O 	O 	0.68730 0.03670 0.59160 -0.47000
O 	O 	0.68400 0.95910 0.55250 -0.46300
Zn	Zn	0.75907 0.57491 0.49846 1.23900
C 	C 	0.91830 0.60150 0.55580 0.38000
C 	C 	0.92490 0.65270 0.52930 -0.08300
C 	C 	0.97220 0.70730 0.53120 -0.07300
C 	C 	0.03950 0.73710 0.56030 0.36700
C 	C 	0.87380 0.70290 0.47890 0.13500
C 	C 	0.82020 0.71880 0.44340 -0.10000
C 	C 	0.80750 0.77660 0.43210 0.03800
H 	H 	0.83780 0.80680 0.44680 0.00500
C 	C 	0.74850 0.79060 0.39820 -0.13600
H 	H 	0.74060 0.82930 0.38960 0.07900
C 	C 	0.70440 0.74420 0.37920 0.09400
H 	H 	0.66470 0.75290 0.35710 -0.02900
C 	C 	0.77140 0.67560 0.42090 0.03900
H 	H 	0.77920 0.63620 0.42790 -0.02300
N 	N 	0.86170 0.65040 0.49620 -0.22100
N 	N 	0.94060 0.73970 0.49930 -0.22500
N 	N 	0.71190 0.68930 0.38860 -0.29400
O 	O 	0.84520 0.56280 0.54780 -0.46100
O 	O 	0.98030 0.59610 0.58440 -0.49900
O 	O 	0.06270 0.71330 0.59160 -0.47000
O 	O 	0.06600 0.79090 0.55250 -0.46200
Zn	Zn	0.75907 0.07491 0.99846 1.23900
C 	C 	0.91830 0.10150 0.05580 0.38000
C 	C 	0.92490 0.15270 0.02930 -0.08200
C 	C 	0.97220 0.20730 0.03120 -0.07000
C 	C 	0.03950 0.23710 0.06030 0.36500
C 	C 	0.87380 0.20290 0.97890 0.13500
C 	C 	0.82020 0.21880 0.94340 -0.10000
C 	C 	0.80750 0.27660 0.93210 0.03800
H 	H 	0.83780 0.30680 0.94680 0.00500
C 	C 	0.74850 0.29060 0.89820 -0.13600
H 	H 	0.74060 0.32930 0.88960 0.07900
C 	C 	0.70440 0.24420 0.87920 0.09400
H 	H 	0.66470 0.25290 0.85710 -0.02900
C 	C 	0.77140 0.17560 0.92090 0.03900
H 	H 	0.77920 0.13620 0.92790 -0.02300
N 	N 	0.86170 0.15040 0.99620 -0.22100
N 	N 	0.94060 0.23970 0.99930 -0.22600
N 	N 	0.71190 0.18930 0.88860 -0.29400
O 	O 	0.84520 0.06280 0.04780 -0.46100
O 	O 	0.98030 0.09610 0.08440 -0.49800
O 	O 	0.06270 0.21330 0.09160 -0.47000
O 	O 	0.06600 0.29090 0.05250 -0.46200
Zn	Zn	0.25907 0.57491 0.99846 1.24000
C 	C 	0.41830 0.60150 0.05580 0.38000
C 	C 	0.42490 0.65270 0.02930 -0.08300
C 	C 	0.47220 0.70730 0.03120 -0.07200
C 	C 	0.53950 0.73710 0.06030 0.36600
C 	C 	0.37380 0.70290 0.97890 0.13500
C 	C 	0.32020 0.71880 0.94340 -0.10000
C 	C 	0.30750 0.77660 0.93210 0.03800
H 	H 	0.33780 0.80680 0.94680 0.00500
C 	C 	0.24850 0.79060 0.89820 -0.13600
H 	H 	0.24060 0.82930 0.88960 0.08000
C 	C 	0.20440 0.74420 0.87920 0.09400
H 	H 	0.16470 0.75290 0.85710 -0.02900
C 	C 	0.27140 0.67560 0.92090 0.03900
H 	H 	0.27920 0.63620 0.92790 -0.02300
N 	N 	0.36170 0.65040 0.99620 -0.22100
N 	N 	0.44060 0.73970 0.99930 -0.22500
N 	N 	0.21190 0.68930 0.88860 -0.29400
O 	O 	0.34520 0.56280 0.04780 -0.46100
O 	O 	0.48030 0.59610 0.08440 -0.49900
O 	O 	0.56270 0.71330 0.09160 -0.47000
O 	O 	0.56600 0.79090 0.05250 -0.46300
Zn	Zn	0.25907 0.07491 0.49846 1.23900
C 	C 	0.41830 0.10150 0.55580 0.38000
C 	C 	0.42490 0.15270 0.52930 -0.08300
C 	C 	0.47220 0.20730 0.53120 -0.07200
C 	C 	0.53950 0.23710 0.56030 0.36600
C 	C 	0.37380 0.20290 0.47890 0.13500
C 	C 	0.32020 0.21880 0.44340 -0.10000
C 	C 	0.30750 0.27660 0.43210 0.03800
H 	H 	0.33780 0.30680 0.44680 0.00500
C 	C 	0.24850 0.29060 0.39820 -0.13600
H 	H 	0.24060 0.32930 0.38960 0.07900
C 	C 	0.20440 0.24420 0.37920 0.09400
H 	H 	0.16470 0.25290 0.35710 -0.02900
C 	C 	0.27140 0.17560 0.42090 0.03900
H 	H 	0.27920 0.13620 0.42790 -0.02300
N 	N 	0.36170 0.15040 0.49620 -0.22100
N 	N 	0.44060 0.23970 0.49930 -0.22500
N 	N 	0.21190 0.18930 0.38860 -0.29400
O 	O 	0.34520 0.06280 0.54780 -0.46100
O 	O 	0.48030 0.09610 0.58440 -0.49900
O 	O 	0.56270 0.21330 0.59160 -0.47000
O 	O 	0.56600 0.29090 0.55250 -0.46300
Sm	Sm	0.87500 0.37500 0.37500 2.33500
Sm	Sm	0.87500 0.87500 0.87500 2.33200
Sm	Sm	0.37500 0.37500 0.87500 2.33400
Sm	Sm	0.37500 0.87500 0.37500 2.33400
Sm	Sm	0.12500 0.62500 0.62500 2.33500
Sm	Sm	0.12500 0.12500 0.12500 2.33200
Sm	Sm	0.62500 0.62500 0.12500 2.33400
Sm	Sm	0.62500 0.12500 0.62500 2.33400
Zn	Zn	0.37500 0.37500 0.10846 1.11400
Cl	Cl	0.37500 0.37500 0.24280 -0.88200
Zn	Zn	0.37500 0.87500 0.60846 1.11400
Cl	Cl	0.37500 0.87500 0.74280 -0.88200
Zn	Zn	0.87500 0.37500 0.60846 1.11400
Cl	Cl	0.87500 0.37500 0.74280 -0.88200
Zn	Zn	0.87500 0.87500 0.10846 1.11400
Cl	Cl	0.87500 0.87500 0.24280 -0.88200
Zn	Zn	0.37500 0.37500 0.64154 1.11400
Cl	Cl	0.37500 0.37500 0.50720 -0.88200
Zn	Zn	0.37500 0.87500 0.14154 1.11400
Cl	Cl	0.37500 0.87500 0.00720 -0.88200
Zn	Zn	0.87500 0.37500 0.14154 1.11400
Cl	Cl	0.87500 0.37500 0.00720 -0.88100
Zn	Zn	0.87500 0.87500 0.64154 1.11400
Cl	Cl	0.87500 0.87500 0.50720 -0.88300
Zn	Zn	0.62500 0.62500 0.89154 1.11400
Cl	Cl	0.62500 0.62500 0.75720 -0.88200
Zn	Zn	0.62500 0.12500 0.39154 1.11400
Cl	Cl	0.62500 0.12500 0.25720 -0.88200
Zn	Zn	0.12500 0.62500 0.39154 1.11400
Cl	Cl	0.12500 0.62500 0.25720 -0.88200
Zn	Zn	0.12500 0.12500 0.89154 1.11400
Cl	Cl	0.12500 0.12500 0.75720 -0.88200
Zn	Zn	0.62500 0.62500 0.35846 1.11400
Cl	Cl	0.62500 0.62500 0.49280 -0.88200
Zn	Zn	0.62500 0.12500 0.85846 1.11400
Cl	Cl	0.62500 0.12500 0.99280 -0.88200
Zn	Zn	0.12500 0.62500 0.85846 1.11400
Cl	Cl	0.12500 0.62500 0.99280 -0.88100
Zn	Zn	0.12500 0.12500 0.35846 1.11400
Cl	Cl	0.12500 0.12500 0.49280 -0.88300
