data_crystal

_cell_length_a 12.16780
_cell_length_b 22.69100
_cell_length_c 34.39380
_cell_angle_alpha 90.00000
_cell_angle_beta  90.00000
_cell_angle_gamma 90.00000

_symmetry_space_group_name_	'P 1'
_symmetry_space_group_name_H-M	'P 1'

loop_
_symmetry_equiv_pos_as_xyz
  x,y,z

loop_
_atom_site_label
_atom_site_type_symbol
_atom_site_fract_x
_atom_site_fract_y
_atom_site_fract_z
_atom_site_charge
Zn	Zn	0.99281 0.57513 0.75201 1.24500
N 	N 	0.06250 0.48980 0.74931 -0.22400
N 	N 	0.13820 0.40050 0.74576 -0.21900
O 	O 	0.93730 0.54120 0.80375 -0.46700
O 	O 	0.93780 0.46320 0.84195 -0.44600
C 	C 	0.12680 0.45300 0.72890 0.13700
O 	O 	0.01850 0.34650 0.83402 -0.48200
O 	O 	0.15160 0.31210 0.79699 -0.46100
C 	C 	0.07630 0.40280 0.77921 -0.08300
C 	C 	0.03020 0.45760 0.78123 -0.06600
C 	C 	0.18390 0.46940 0.69270 -0.09300
N 	N 	0.29260 0.43910 0.63781 -0.28800
C 	C 	0.07950 0.35110 0.80550 0.39300
C 	C 	0.25390 0.54050 0.64760 -0.10900
H 	H 	0.26070 0.57920 0.63910 0.07300
C 	C 	0.19570 0.52750 0.68090 0.02400
H 	H 	0.16430 0.55770 0.69540 0.01900
C 	C 	0.30130 0.49550 0.62730 0.06000
H 	H 	0.34170 0.50450 0.60520 -0.01100
C 	C 	0.96210 0.48770 0.81140 0.37400
C 	C 	0.23420 0.42650 0.67000 0.04300
H 	H 	0.22730 0.38730 0.67740 -0.02800
Zn	Zn	0.99281 0.07513 0.25201 1.24500
N 	N 	0.06250 0.98980 0.24931 -0.22400
N 	N 	0.13820 0.90050 0.24576 -0.21900
O 	O 	0.93730 0.04120 0.30375 -0.46600
O 	O 	0.93780 0.96320 0.34195 -0.44600
C 	C 	0.12680 0.95300 0.22890 0.13700
O 	O 	0.01850 0.84650 0.33402 -0.48200
O 	O 	0.15160 0.81210 0.29699 -0.46100
C 	C 	0.07630 0.90280 0.27921 -0.08400
C 	C 	0.03020 0.95760 0.28123 -0.06500
C 	C 	0.18390 0.96940 0.19270 -0.09200
N 	N 	0.29260 0.93910 0.13781 -0.28800
C 	C 	0.07950 0.85110 0.30550 0.39300
C 	C 	0.25390 0.04050 0.14760 -0.10900
H 	H 	0.26070 0.07920 0.13910 0.07300
C 	C 	0.19570 0.02750 0.18090 0.02300
H 	H 	0.16430 0.05770 0.19540 0.01900
C 	C 	0.30130 0.99550 0.12730 0.06000
H 	H 	0.34170 0.00450 0.10520 -0.01100
C 	C 	0.96210 0.98770 0.31140 0.37300
C 	C 	0.23420 0.92650 0.17000 0.04300
H 	H 	0.22730 0.88730 0.17740 -0.02800
Zn	Zn	0.49281 0.57513 0.25201 1.24400
N 	N 	0.56250 0.48980 0.24931 -0.22500
N 	N 	0.63820 0.40050 0.24576 -0.22000
O 	O 	0.43730 0.54120 0.30375 -0.46800
O 	O 	0.43780 0.46320 0.34195 -0.44700
C 	C 	0.62680 0.45300 0.22890 0.13600
O 	O 	0.51850 0.34650 0.33402 -0.48400
O 	O 	0.65160 0.31210 0.29699 -0.46200
C 	C 	0.57630 0.40280 0.27921 -0.08400
C 	C 	0.53020 0.45760 0.28123 -0.06700
C 	C 	0.68390 0.46940 0.19270 -0.09400
N 	N 	0.79260 0.43910 0.13781 -0.28900
C 	C 	0.57950 0.35110 0.30550 0.39200
C 	C 	0.75390 0.54050 0.14760 -0.11000
H 	H 	0.76070 0.57920 0.13910 0.07200
C 	C 	0.69570 0.52750 0.18090 0.02300
H 	H 	0.66430 0.55770 0.19540 0.01800
C 	C 	0.80130 0.49550 0.12730 0.05900
H 	H 	0.84170 0.50450 0.10520 -0.01200
C 	C 	0.46210 0.48770 0.31140 0.37400
C 	C 	0.73420 0.42650 0.17000 0.04300
H 	H 	0.72730 0.38730 0.17740 -0.02900
Zn	Zn	0.49281 0.07513 0.75201 1.24400
N 	N 	0.56250 0.98980 0.74931 -0.22500
N 	N 	0.63820 0.90050 0.74576 -0.22000
O 	O 	0.43730 0.04120 0.80375 -0.46900
O 	O 	0.43780 0.96320 0.84195 -0.44700
C 	C 	0.62680 0.95300 0.72890 0.13600
O 	O 	0.51850 0.84650 0.83402 -0.48400
O 	O 	0.65160 0.81210 0.79699 -0.46200
C 	C 	0.57630 0.90280 0.77921 -0.08400
C 	C 	0.53020 0.95760 0.78123 -0.06700
C 	C 	0.68390 0.96940 0.69270 -0.09400
N 	N 	0.79260 0.93910 0.63781 -0.28800
C 	C 	0.57950 0.85110 0.80550 0.39200
C 	C 	0.75390 0.04050 0.64760 -0.10700
H 	H 	0.76070 0.07920 0.63910 0.07100
C 	C 	0.69570 0.02750 0.68090 0.02200
H 	H 	0.66430 0.05770 0.69540 0.01900
C 	C 	0.80130 0.99550 0.62730 0.05600
H 	H 	0.84170 0.00450 0.60520 -0.01100
C 	C 	0.46210 0.98770 0.81140 0.37400
C 	C 	0.73420 0.92650 0.67000 0.04200
H 	H 	0.72730 0.88730 0.67740 -0.02900
Zn	Zn	0.75719 0.17487 0.75201 1.24400
N 	N 	0.68750 0.26020 0.74931 -0.22500
N 	N 	0.61180 0.34950 0.74576 -0.22000
O 	O 	0.81270 0.20880 0.80375 -0.46800
O 	O 	0.81220 0.28680 0.84195 -0.44700
C 	C 	0.62320 0.29700 0.72890 0.13600
O 	O 	0.73150 0.40350 0.83402 -0.48400
O 	O 	0.59840 0.43790 0.79699 -0.46200
C 	C 	0.67370 0.34720 0.77921 -0.08400
C 	C 	0.71980 0.29240 0.78123 -0.06700
C 	C 	0.56610 0.28060 0.69270 -0.09400
N 	N 	0.45740 0.31090 0.63781 -0.28900
C 	C 	0.67050 0.39890 0.80550 0.39200
C 	C 	0.49610 0.20950 0.64760 -0.11000
H 	H 	0.48930 0.17080 0.63910 0.07200
C 	C 	0.55430 0.22250 0.68090 0.02300
H 	H 	0.58570 0.19230 0.69540 0.01800
C 	C 	0.44870 0.25450 0.62730 0.05900
H 	H 	0.40830 0.24550 0.60520 -0.01200
C 	C 	0.78790 0.26230 0.81140 0.37400
C 	C 	0.51580 0.32350 0.67000 0.04200
H 	H 	0.52270 0.36270 0.67740 -0.02900
Zn	Zn	0.75719 0.67487 0.25201 1.24400
N 	N 	0.68750 0.76020 0.24931 -0.22500
N 	N 	0.61180 0.84950 0.24576 -0.22000
O 	O 	0.81270 0.70880 0.30375 -0.46800
O 	O 	0.81220 0.78680 0.34195 -0.44700
C 	C 	0.62320 0.79700 0.22890 0.13600
O 	O 	0.73150 0.90350 0.33402 -0.48400
O 	O 	0.59840 0.93790 0.29699 -0.46300
C 	C 	0.67370 0.84720 0.27921 -0.08400
C 	C 	0.71980 0.79240 0.28123 -0.06700
C 	C 	0.56610 0.78060 0.19270 -0.09400
N 	N 	0.45740 0.81090 0.13781 -0.28900
C 	C 	0.67050 0.89890 0.30550 0.39200
C 	C 	0.49610 0.70950 0.14760 -0.11000
H 	H 	0.48930 0.67080 0.13910 0.07200
C 	C 	0.55430 0.72250 0.18090 0.02300
H 	H 	0.58570 0.69230 0.19540 0.01800
C 	C 	0.44870 0.75450 0.12730 0.05900
H 	H 	0.40830 0.74550 0.10520 -0.01200
C 	C 	0.78790 0.76230 0.31140 0.37400
C 	C 	0.51580 0.82350 0.17000 0.04200
H 	H 	0.52270 0.86270 0.17740 -0.02900
Zn	Zn	0.25719 0.17487 0.25201 1.24400
N 	N 	0.18750 0.26020 0.24931 -0.22500
N 	N 	0.11180 0.34950 0.24576 -0.22000
O 	O 	0.31270 0.20880 0.30375 -0.46800
O 	O 	0.31220 0.28680 0.34195 -0.44700
C 	C 	0.12320 0.29700 0.22890 0.13500
O 	O 	0.23150 0.40350 0.33402 -0.48400
O 	O 	0.09840 0.43790 0.29699 -0.46200
C 	C 	0.17370 0.34720 0.27921 -0.08400
C 	C 	0.21980 0.29240 0.28123 -0.06700
C 	C 	0.06610 0.28060 0.19270 -0.09300
N 	N 	0.95740 0.31090 0.13781 -0.28800
C 	C 	0.17050 0.39890 0.30550 0.39200
C 	C 	0.99610 0.20950 0.14760 -0.10700
H 	H 	0.98930 0.17080 0.13910 0.07100
C 	C 	0.05430 0.22250 0.18090 0.02100
H 	H 	0.08570 0.19230 0.19540 0.01900
C 	C 	0.94870 0.25450 0.12730 0.05800
H 	H 	0.90830 0.24550 0.10520 -0.01100
C 	C 	0.28790 0.26230 0.31140 0.37400
C 	C 	0.01580 0.32350 0.17000 0.04100
H 	H 	0.02270 0.36270 0.17740 -0.02800
Zn	Zn	0.25719 0.67487 0.75201 1.24400
N 	N 	0.18750 0.76020 0.74931 -0.22500
N 	N 	0.11180 0.84950 0.74576 -0.22000
O 	O 	0.31270 0.70880 0.80375 -0.46800
O 	O 	0.31220 0.78680 0.84195 -0.44700
C 	C 	0.12320 0.79700 0.72890 0.13600
O 	O 	0.23150 0.90350 0.83402 -0.48400
O 	O 	0.09840 0.93790 0.79699 -0.46200
C 	C 	0.17370 0.84720 0.77921 -0.08400
C 	C 	0.21980 0.79240 0.78123 -0.06700
C 	C 	0.06610 0.78060 0.69270 -0.09500
N 	N 	0.95740 0.81090 0.63781 -0.29000
C 	C 	0.17050 0.89890 0.80550 0.39200
C 	C 	0.99610 0.70950 0.64760 -0.11200
H 	H 	0.98930 0.67080 0.63910 0.07200
C 	C 	0.05430 0.72250 0.68090 0.02600
H 	H 	0.08570 0.69230 0.69540 0.01800
C 	C 	0.94870 0.75450 0.62730 0.06000
H 	H 	0.90830 0.74550 0.60520 -0.01200
C 	C 	0.28790 0.76230 0.81140 0.37400
C 	C 	0.01580 0.82350 0.67000 0.04400
H 	H 	0.02270 0.86270 0.67740 -0.02900
Zn	Zn	0.75719 0.57513 0.99799 1.24400
N 	N 	0.68750 0.48980 0.00069 -0.22500
N 	N 	0.61180 0.40050 0.00424 -0.21900
O 	O 	0.81270 0.54120 0.94625 -0.46800
O 	O 	0.81220 0.46320 0.90805 -0.44700
C 	C 	0.62320 0.45300 0.02110 0.13600
O 	O 	0.73150 0.34650 0.91598 -0.48400
O 	O 	0.59840 0.31210 0.95301 -0.46200
C 	C 	0.67370 0.40280 0.97079 -0.08400
C 	C 	0.71980 0.45760 0.96877 -0.06700
C 	C 	0.56610 0.46940 0.05730 -0.09400
N 	N 	0.45740 0.43910 0.11219 -0.28900
C 	C 	0.67050 0.35110 0.94450 0.39200
C 	C 	0.49610 0.54050 0.10240 -0.11000
H 	H 	0.48930 0.57920 0.11090 0.07200
C 	C 	0.55430 0.52750 0.06910 0.02300
H 	H 	0.58570 0.55770 0.05460 0.01800
C 	C 	0.44870 0.49550 0.12270 0.05900
H 	H 	0.40830 0.50450 0.14480 -0.01200
C 	C 	0.78790 0.48770 0.93860 0.37400
C 	C 	0.51580 0.42650 0.08000 0.04200
H 	H 	0.52270 0.38730 0.07260 -0.02900
Zn	Zn	0.75719 0.07513 0.49799 1.24400
N 	N 	0.68750 0.98980 0.50069 -0.22500
N 	N 	0.61180 0.90050 0.50424 -0.22000
O 	O 	0.81270 0.04120 0.44625 -0.46800
O 	O 	0.81220 0.96320 0.40805 -0.44700
C 	C 	0.62320 0.95300 0.52110 0.13600
O 	O 	0.73150 0.84650 0.41598 -0.48400
O 	O 	0.59840 0.81210 0.45301 -0.46200
C 	C 	0.67370 0.90280 0.47079 -0.08400
C 	C 	0.71980 0.95760 0.46877 -0.06700
C 	C 	0.56610 0.96940 0.55730 -0.09400
N 	N 	0.45740 0.93910 0.61219 -0.28900
C 	C 	0.67050 0.85110 0.44450 0.39200
C 	C 	0.49610 0.04050 0.60240 -0.11000
H 	H 	0.48930 0.07920 0.61090 0.07200
C 	C 	0.55430 0.02750 0.56910 0.02400
H 	H 	0.58570 0.05770 0.55460 0.01800
C 	C 	0.44870 0.99550 0.62270 0.06000
H 	H 	0.40830 0.00450 0.64480 -0.01200
C 	C 	0.78790 0.98770 0.43860 0.37300
C 	C 	0.51580 0.92650 0.58000 0.04300
H 	H 	0.52270 0.88730 0.57260 -0.02900
Zn	Zn	0.25719 0.57513 0.49799 1.24400
N 	N 	0.18750 0.48980 0.50069 -0.22500
N 	N 	0.11180 0.40050 0.50424 -0.22000
O 	O 	0.31270 0.54120 0.44625 -0.46800
O 	O 	0.31220 0.46320 0.40805 -0.44700
C 	C 	0.12320 0.45300 0.52110 0.13600
O 	O 	0.23150 0.34650 0.41598 -0.48400
O 	O 	0.09840 0.31210 0.45301 -0.46200
C 	C 	0.17370 0.40280 0.47079 -0.08400
C 	C 	0.21980 0.45760 0.46877 -0.06700
C 	C 	0.06610 0.46940 0.55730 -0.09400
N 	N 	0.95740 0.43910 0.61219 -0.28900
C 	C 	0.17050 0.35110 0.44450 0.39200
C 	C 	0.99610 0.54050 0.60240 -0.11000
H 	H 	0.98930 0.57920 0.61090 0.07200
C 	C 	0.05430 0.52750 0.56910 0.02400
H 	H 	0.08570 0.55770 0.55460 0.01800
C 	C 	0.94870 0.49550 0.62270 0.06000
H 	H 	0.90830 0.50450 0.64480 -0.01200
C 	C 	0.28790 0.48770 0.43860 0.37400
C 	C 	0.01580 0.42650 0.58000 0.04300
H 	H 	0.02270 0.38730 0.57260 -0.02900
Zn	Zn	0.25719 0.07513 0.99799 1.24400
N 	N 	0.18750 0.98980 0.00069 -0.22500
N 	N 	0.11180 0.90050 0.00424 -0.22000
O 	O 	0.31270 0.04120 0.94625 -0.46900
O 	O 	0.31220 0.96320 0.90805 -0.44700
C 	C 	0.12320 0.95300 0.02110 0.13500
O 	O 	0.23150 0.84650 0.91598 -0.48400
O 	O 	0.09840 0.81210 0.95301 -0.46200
C 	C 	0.17370 0.90280 0.97079 -0.08400
C 	C 	0.21980 0.95760 0.96877 -0.06700
C 	C 	0.06610 0.96940 0.05730 -0.09000
N 	N 	0.95740 0.93910 0.11219 -0.28700
C 	C 	0.17050 0.85110 0.94450 0.39200
C 	C 	0.99610 0.04050 0.10240 -0.10000
H 	H 	0.98930 0.07920 0.11090 0.06900
C 	C 	0.05430 0.02750 0.06910 0.01600
H 	H 	0.08570 0.05770 0.05460 0.02100
C 	C 	0.94870 0.99550 0.12270 0.05200
H 	H 	0.90830 0.00450 0.14480 -0.00900
C 	C 	0.28790 0.98770 0.93860 0.37400
C 	C 	0.01580 0.92650 0.08000 0.04100
H 	H 	0.02270 0.88730 0.07260 -0.02800
Zn	Zn	0.99281 0.17487 0.99799 1.24400
N 	N 	0.06250 0.26020 0.00069 -0.22500
N 	N 	0.13820 0.34950 0.00424 -0.22000
O 	O 	0.93730 0.20880 0.94625 -0.46800
O 	O 	0.93780 0.28680 0.90805 -0.44700
C 	C 	0.12680 0.29700 0.02110 0.13600
O 	O 	0.01850 0.40350 0.91598 -0.48300
O 	O 	0.15160 0.43790 0.95301 -0.46200
C 	C 	0.07630 0.34720 0.97079 -0.08400
C 	C 	0.03020 0.29240 0.96877 -0.06600
C 	C 	0.18390 0.28060 0.05730 -0.09400
N 	N 	0.29260 0.31090 0.11219 -0.28900
C 	C 	0.07950 0.39890 0.94450 0.39200
C 	C 	0.25390 0.20950 0.10240 -0.11000
H 	H 	0.26070 0.17080 0.11090 0.07200
C 	C 	0.19570 0.22250 0.06910 0.02300
H 	H 	0.16430 0.19230 0.05460 0.01800
C 	C 	0.30130 0.25450 0.12270 0.05900
H 	H 	0.34170 0.24550 0.14480 -0.01200
C 	C 	0.96210 0.26230 0.93860 0.37300
C 	C 	0.23420 0.32350 0.08000 0.04200
H 	H 	0.22730 0.36270 0.07260 -0.02900
Zn	Zn	0.99281 0.67487 0.49799 1.24400
N 	N 	0.06250 0.76020 0.50069 -0.22500
N 	N 	0.13820 0.84950 0.50424 -0.22000
O 	O 	0.93730 0.70880 0.44625 -0.46800
O 	O 	0.93780 0.78680 0.40805 -0.44700
C 	C 	0.12680 0.79700 0.52110 0.13600
O 	O 	0.01850 0.90350 0.41598 -0.48300
O 	O 	0.15160 0.93790 0.45301 -0.46200
C 	C 	0.07630 0.84720 0.47079 -0.08400
C 	C 	0.03020 0.79240 0.46877 -0.06600
C 	C 	0.18390 0.78060 0.55730 -0.09400
N 	N 	0.29260 0.81090 0.61219 -0.28900
C 	C 	0.07950 0.89890 0.44450 0.39200
C 	C 	0.25390 0.70950 0.60240 -0.11000
H 	H 	0.26070 0.67080 0.61090 0.07200
C 	C 	0.19570 0.72250 0.56910 0.02300
H 	H 	0.16430 0.69230 0.55460 0.01800
C 	C 	0.30130 0.75450 0.62270 0.05900
H 	H 	0.34170 0.74550 0.64480 -0.01200
C 	C 	0.96210 0.76230 0.43860 0.37300
C 	C 	0.23420 0.82350 0.58000 0.04300
H 	H 	0.22730 0.86270 0.57260 -0.02900
Zn	Zn	0.49281 0.17487 0.49799 1.24400
N 	N 	0.56250 0.26020 0.50069 -0.22500
N 	N 	0.63820 0.34950 0.50424 -0.22000
O 	O 	0.43730 0.20880 0.44625 -0.46800
O 	O 	0.43780 0.28680 0.40805 -0.44700
C 	C 	0.62680 0.29700 0.52110 0.13600
O 	O 	0.51850 0.40350 0.41598 -0.48400
O 	O 	0.65160 0.43790 0.45301 -0.46200
C 	C 	0.57630 0.34720 0.47079 -0.08400
C 	C 	0.53020 0.29240 0.46877 -0.06700
C 	C 	0.68390 0.28060 0.55730 -0.09400
N 	N 	0.79260 0.31090 0.61219 -0.28900
C 	C 	0.57950 0.39890 0.44450 0.39200
C 	C 	0.75390 0.20950 0.60240 -0.11000
H 	H 	0.76070 0.17080 0.61090 0.07200
C 	C 	0.69570 0.22250 0.56910 0.02300
H 	H 	0.66430 0.19230 0.55460 0.01800
C 	C 	0.80130 0.25450 0.62270 0.05900
H 	H 	0.84170 0.24550 0.64480 -0.01200
C 	C 	0.46210 0.26230 0.43860 0.37400
C 	C 	0.73420 0.32350 0.58000 0.04300
H 	H 	0.72730 0.36270 0.57260 -0.02900
Zn	Zn	0.49281 0.67487 0.99799 1.24400
N 	N 	0.56250 0.76020 0.00069 -0.22500
N 	N 	0.63820 0.84950 0.00424 -0.22000
O 	O 	0.43730 0.70880 0.94625 -0.46800
O 	O 	0.43780 0.78680 0.90805 -0.44700
C 	C 	0.62680 0.79700 0.02110 0.13600
O 	O 	0.51850 0.90350 0.91598 -0.48400
O 	O 	0.65160 0.93790 0.95301 -0.46300
C 	C 	0.57630 0.84720 0.97079 -0.08400
C 	C 	0.53020 0.79240 0.96877 -0.06700
C 	C 	0.68390 0.78060 0.05730 -0.09400
N 	N 	0.79260 0.81090 0.11219 -0.28900
C 	C 	0.57950 0.89890 0.94450 0.39200
C 	C 	0.75390 0.70950 0.10240 -0.11000
H 	H 	0.76070 0.67080 0.11090 0.07200
C 	C 	0.69570 0.72250 0.06910 0.02300
H 	H 	0.66430 0.69230 0.05460 0.01800
C 	C 	0.80130 0.75450 0.12270 0.05900
H 	H 	0.84170 0.74550 0.14480 -0.01200
C 	C 	0.46210 0.76230 0.93860 0.37400
C 	C 	0.73420 0.82350 0.08000 0.04200
H 	H 	0.72730 0.86270 0.07260 -0.02900
Zn	Zn	0.00719 0.42487 0.24799 1.24400
N 	N 	0.93750 0.51020 0.25069 -0.22500
N 	N 	0.86180 0.59950 0.25424 -0.22000
O 	O 	0.06270 0.45880 0.19625 -0.46800
O 	O 	0.06220 0.53680 0.15805 -0.44700
C 	C 	0.87320 0.54700 0.27110 0.13600
O 	O 	0.98150 0.65350 0.16598 -0.48300
O 	O 	0.84840 0.68790 0.20301 -0.46200
C 	C 	0.92370 0.59720 0.22079 -0.08400
C 	C 	0.96980 0.54240 0.21877 -0.06700
C 	C 	0.81610 0.53060 0.30730 -0.09400
N 	N 	0.70740 0.56090 0.36219 -0.28900
C 	C 	0.92050 0.64890 0.19450 0.39200
C 	C 	0.74610 0.45950 0.35240 -0.11000
H 	H 	0.73930 0.42080 0.36090 0.07200
C 	C 	0.80430 0.47250 0.31910 0.02300
H 	H 	0.83570 0.44230 0.30460 0.01800
C 	C 	0.69870 0.50450 0.37270 0.05900
H 	H 	0.65830 0.49550 0.39480 -0.01200
C 	C 	0.03790 0.51230 0.18860 0.37300
C 	C 	0.76580 0.57350 0.33000 0.04200
H 	H 	0.77270 0.61270 0.32260 -0.02900
Zn	Zn	0.00719 0.92487 0.74799 1.24400
N 	N 	0.93750 0.01020 0.75069 -0.22500
N 	N 	0.86180 0.09950 0.75424 -0.22000
O 	O 	0.06270 0.95880 0.69625 -0.46700
O 	O 	0.06220 0.03680 0.65805 -0.44700
C 	C 	0.87320 0.04700 0.77110 0.13600
O 	O 	0.98150 0.15350 0.66598 -0.48300
O 	O 	0.84840 0.18790 0.70301 -0.46200
C 	C 	0.92370 0.09720 0.72079 -0.08500
C 	C 	0.96980 0.04240 0.71877 -0.06600
C 	C 	0.81610 0.03060 0.80730 -0.09300
N 	N 	0.70740 0.06090 0.86219 -0.28900
C 	C 	0.92050 0.14890 0.69450 0.39200
C 	C 	0.74610 0.95950 0.85240 -0.11000
H 	H 	0.73930 0.92080 0.86090 0.07200
C 	C 	0.80430 0.97250 0.81910 0.02200
H 	H 	0.83570 0.94230 0.80460 0.01800
C 	C 	0.69870 0.00450 0.87270 0.05900
H 	H 	0.65830 0.99550 0.89480 -0.01200
C 	C 	0.03790 0.01230 0.68860 0.37200
C 	C 	0.76580 0.07350 0.83000 0.04200
H 	H 	0.77270 0.11270 0.82260 -0.02900
Zn	Zn	0.50719 0.42487 0.74799 1.24400
N 	N 	0.43750 0.51020 0.75069 -0.22500
N 	N 	0.36180 0.59950 0.75424 -0.22000
O 	O 	0.56270 0.45880 0.69625 -0.46800
O 	O 	0.56220 0.53680 0.65805 -0.44700
C 	C 	0.37320 0.54700 0.77110 0.13600
O 	O 	0.48150 0.65350 0.66598 -0.48400
O 	O 	0.34840 0.68790 0.70301 -0.46200
C 	C 	0.42370 0.59720 0.72079 -0.08400
C 	C 	0.46980 0.54240 0.71877 -0.06700
C 	C 	0.31610 0.53060 0.80730 -0.09400
N 	N 	0.20740 0.56090 0.86219 -0.28900
C 	C 	0.42050 0.64890 0.69450 0.39200
C 	C 	0.24610 0.45950 0.85240 -0.11000
H 	H 	0.23930 0.42080 0.86090 0.07200
C 	C 	0.30430 0.47250 0.81910 0.02300
H 	H 	0.33570 0.44230 0.80460 0.01800
C 	C 	0.19870 0.50450 0.87270 0.05900
H 	H 	0.15830 0.49550 0.89480 -0.01200
C 	C 	0.53790 0.51230 0.68860 0.37400
C 	C 	0.26580 0.57350 0.83000 0.04300
H 	H 	0.27270 0.61270 0.82260 -0.02900
Zn	Zn	0.50719 0.92487 0.24799 1.24400
N 	N 	0.43750 0.01020 0.25069 -0.22500
N 	N 	0.36180 0.09950 0.25424 -0.22000
O 	O 	0.56270 0.95880 0.19625 -0.46900
O 	O 	0.56220 0.03680 0.15805 -0.44700
C 	C 	0.37320 0.04700 0.27110 0.13600
O 	O 	0.48150 0.15350 0.16598 -0.48400
O 	O 	0.34840 0.18790 0.20301 -0.46200
C 	C 	0.42370 0.09720 0.22079 -0.08400
C 	C 	0.46980 0.04240 0.21877 -0.06700
C 	C 	0.31610 0.03060 0.30730 -0.09400
N 	N 	0.20740 0.06090 0.36219 -0.28800
C 	C 	0.42050 0.14890 0.19450 0.39200
C 	C 	0.24610 0.95950 0.35240 -0.10700
H 	H 	0.23930 0.92080 0.36090 0.07100
C 	C 	0.30430 0.97250 0.31910 0.02200
H 	H 	0.33570 0.94230 0.30460 0.01900
C 	C 	0.19870 0.00450 0.37270 0.05600
H 	H 	0.15830 0.99550 0.39480 -0.01100
C 	C 	0.53790 0.01230 0.18860 0.37400
C 	C 	0.26580 0.07350 0.33000 0.04200
H 	H 	0.27270 0.11270 0.32260 -0.02900
Zn	Zn	0.24281 0.82513 0.24799 1.24400
N 	N 	0.31250 0.73980 0.25069 -0.22500
N 	N 	0.38820 0.65050 0.25424 -0.22000
O 	O 	0.18730 0.79120 0.19625 -0.46800
O 	O 	0.18780 0.71320 0.15805 -0.44700
C 	C 	0.37680 0.70300 0.27110 0.13600
O 	O 	0.26850 0.59650 0.16598 -0.48400
O 	O 	0.40160 0.56210 0.20301 -0.46200
C 	C 	0.32630 0.65280 0.22079 -0.08400
C 	C 	0.28020 0.70760 0.21877 -0.06700
C 	C 	0.43390 0.71940 0.30730 -0.09400
N 	N 	0.54260 0.68910 0.36219 -0.28900
C 	C 	0.32950 0.60110 0.19450 0.39200
C 	C 	0.50390 0.79050 0.35240 -0.11000
H 	H 	0.51070 0.82920 0.36090 0.07200
C 	C 	0.44570 0.77750 0.31910 0.02300
H 	H 	0.41430 0.80770 0.30460 0.01800
C 	C 	0.55130 0.74550 0.37270 0.05900
H 	H 	0.59170 0.75450 0.39480 -0.01200
C 	C 	0.21210 0.73770 0.18860 0.37400
C 	C 	0.48420 0.67650 0.33000 0.04200
H 	H 	0.47730 0.63730 0.32260 -0.02900
Zn	Zn	0.24281 0.32513 0.74799 1.24400
N 	N 	0.31250 0.23980 0.75069 -0.22500
N 	N 	0.38820 0.15050 0.75424 -0.22000
O 	O 	0.18730 0.29120 0.69625 -0.46800
O 	O 	0.18780 0.21320 0.65805 -0.44700
C 	C 	0.37680 0.20300 0.77110 0.13600
O 	O 	0.26850 0.09650 0.66598 -0.48400
O 	O 	0.40160 0.06210 0.70301 -0.46300
C 	C 	0.32630 0.15280 0.72079 -0.08400
C 	C 	0.28020 0.20760 0.71877 -0.06700
C 	C 	0.43390 0.21940 0.80730 -0.09400
N 	N 	0.54260 0.18910 0.86219 -0.28900
C 	C 	0.32950 0.10110 0.69450 0.39200
C 	C 	0.50390 0.29050 0.85240 -0.11000
H 	H 	0.51070 0.32920 0.86090 0.07200
C 	C 	0.44570 0.27750 0.81910 0.02300
H 	H 	0.41430 0.30770 0.80460 0.01800
C 	C 	0.55130 0.24550 0.87270 0.05900
H 	H 	0.59170 0.25450 0.89480 -0.01200
C 	C 	0.21210 0.23770 0.68860 0.37400
C 	C 	0.48420 0.17650 0.83000 0.04200
H 	H 	0.47730 0.13730 0.82260 -0.02900
Zn	Zn	0.74281 0.82513 0.74799 1.24400
N 	N 	0.81250 0.73980 0.75069 -0.22500
N 	N 	0.88820 0.65050 0.75424 -0.22000
O 	O 	0.68730 0.79120 0.69625 -0.46800
O 	O 	0.68780 0.71320 0.65805 -0.44700
C 	C 	0.87680 0.70300 0.77110 0.13500
O 	O 	0.76850 0.59650 0.66598 -0.48400
O 	O 	0.90160 0.56210 0.70301 -0.46200
C 	C 	0.82630 0.65280 0.72079 -0.08400
C 	C 	0.78020 0.70760 0.71877 -0.06700
C 	C 	0.93390 0.71940 0.80730 -0.09300
N 	N 	0.04260 0.68910 0.86219 -0.28800
C 	C 	0.82950 0.60110 0.69450 0.39200
C 	C 	0.00390 0.79050 0.85240 -0.10700
H 	H 	0.01070 0.82920 0.86090 0.07100
C 	C 	0.94570 0.77750 0.81910 0.02100
H 	H 	0.91430 0.80770 0.80460 0.01900
C 	C 	0.05130 0.74550 0.87270 0.05800
H 	H 	0.09170 0.75450 0.89480 -0.01100
C 	C 	0.71210 0.73770 0.68860 0.37400
C 	C 	0.98420 0.67650 0.83000 0.04100
H 	H 	0.97730 0.63730 0.82260 -0.02800
Zn	Zn	0.74281 0.32513 0.24799 1.24400
N 	N 	0.81250 0.23980 0.25069 -0.22500
N 	N 	0.88820 0.15050 0.25424 -0.22000
O 	O 	0.68730 0.29120 0.19625 -0.46800
O 	O 	0.68780 0.21320 0.15805 -0.44700
C 	C 	0.87680 0.20300 0.27110 0.13600
O 	O 	0.76850 0.09650 0.16598 -0.48400
O 	O 	0.90160 0.06210 0.20301 -0.46200
C 	C 	0.82630 0.15280 0.22079 -0.08400
C 	C 	0.78020 0.20760 0.21877 -0.06700
C 	C 	0.93390 0.21940 0.30730 -0.09500
N 	N 	0.04260 0.18910 0.36219 -0.29000
C 	C 	0.82950 0.10110 0.19450 0.39200
C 	C 	0.00390 0.29050 0.35240 -0.11200
H 	H 	0.01070 0.32920 0.36090 0.07200
C 	C 	0.94570 0.27750 0.31910 0.02600
H 	H 	0.91430 0.30770 0.30460 0.01800
C 	C 	0.05130 0.24550 0.37270 0.06000
H 	H 	0.09170 0.25450 0.39480 -0.01200
C 	C 	0.71210 0.23770 0.18860 0.37400
C 	C 	0.98420 0.17650 0.33000 0.04400
H 	H 	0.97730 0.13730 0.32260 -0.02900
Zn	Zn	0.24281 0.42487 0.00201 1.24400
N 	N 	0.31250 0.51020 0.99931 -0.22500
N 	N 	0.38820 0.59950 0.99576 -0.21900
O 	O 	0.18730 0.45880 0.05375 -0.46800
O 	O 	0.18780 0.53680 0.09195 -0.44700
C 	C 	0.37680 0.54700 0.97890 0.13600
O 	O 	0.26850 0.65350 0.08402 -0.48400
O 	O 	0.40160 0.68790 0.04699 -0.46200
C 	C 	0.32630 0.59720 0.02921 -0.08400
C 	C 	0.28020 0.54240 0.03123 -0.06700
C 	C 	0.43390 0.53060 0.94270 -0.09400
N 	N 	0.54260 0.56090 0.88781 -0.28900
C 	C 	0.32950 0.64890 0.05550 0.39200
C 	C 	0.50390 0.45950 0.89760 -0.11000
H 	H 	0.51070 0.42080 0.88910 0.07200
C 	C 	0.44570 0.47250 0.93090 0.02300
H 	H 	0.41430 0.44230 0.94540 0.01800
C 	C 	0.55130 0.50450 0.87730 0.05900
H 	H 	0.59170 0.49550 0.85520 -0.01200
C 	C 	0.21210 0.51230 0.06140 0.37400
C 	C 	0.48420 0.57350 0.92000 0.04200
H 	H 	0.47730 0.61270 0.92740 -0.02900
Zn	Zn	0.24281 0.92487 0.50201 1.24400
N 	N 	0.31250 0.01020 0.49931 -0.22500
N 	N 	0.38820 0.09950 0.49576 -0.22000
O 	O 	0.18730 0.95880 0.55375 -0.46800
O 	O 	0.18780 0.03680 0.59195 -0.44700
C 	C 	0.37680 0.04700 0.47890 0.13600
O 	O 	0.26850 0.15350 0.58402 -0.48400
O 	O 	0.40160 0.18790 0.54699 -0.46200
C 	C 	0.32630 0.09720 0.52921 -0.08400
C 	C 	0.28020 0.04240 0.53123 -0.06700
C 	C 	0.43390 0.03060 0.44270 -0.09400
N 	N 	0.54260 0.06090 0.38781 -0.28900
C 	C 	0.32950 0.14890 0.55550 0.39200
C 	C 	0.50390 0.95950 0.39760 -0.11000
H 	H 	0.51070 0.92080 0.38910 0.07200
C 	C 	0.44570 0.97250 0.43090 0.02400
H 	H 	0.41430 0.94230 0.44540 0.01800
C 	C 	0.55130 0.00450 0.37730 0.06000
H 	H 	0.59170 0.99550 0.35520 -0.01200
C 	C 	0.21210 0.01230 0.56140 0.37300
C 	C 	0.48420 0.07350 0.42000 0.04300
H 	H 	0.47730 0.11270 0.42740 -0.02900
Zn	Zn	0.74281 0.42487 0.50201 1.24400
N 	N 	0.81250 0.51020 0.49931 -0.22500
N 	N 	0.88820 0.59950 0.49576 -0.22000
O 	O 	0.68730 0.45880 0.55375 -0.46800
O 	O 	0.68780 0.53680 0.59195 -0.44700
C 	C 	0.87680 0.54700 0.47890 0.13600
O 	O 	0.76850 0.65350 0.58402 -0.48400
O 	O 	0.90160 0.68790 0.54699 -0.46200
C 	C 	0.82630 0.59720 0.52921 -0.08400
C 	C 	0.78020 0.54240 0.53123 -0.06700
C 	C 	0.93390 0.53060 0.44270 -0.09400
N 	N 	0.04260 0.56090 0.38781 -0.28900
C 	C 	0.82950 0.64890 0.55550 0.39200
C 	C 	0.00390 0.45950 0.39760 -0.11000
H 	H 	0.01070 0.42080 0.38910 0.07200
C 	C 	0.94570 0.47250 0.43090 0.02400
H 	H 	0.91430 0.44230 0.44540 0.01800
C 	C 	0.05130 0.50450 0.37730 0.06000
H 	H 	0.09170 0.49550 0.35520 -0.01200
C 	C 	0.71210 0.51230 0.56140 0.37400
C 	C 	0.98420 0.57350 0.42000 0.04300
H 	H 	0.97730 0.61270 0.42740 -0.02900
Zn	Zn	0.74281 0.92487 0.00201 1.24400
N 	N 	0.81250 0.01020 0.99931 -0.22500
N 	N 	0.88820 0.09950 0.99576 -0.22000
O 	O 	0.68730 0.95880 0.05375 -0.46900
O 	O 	0.68780 0.03680 0.09195 -0.44700
C 	C 	0.87680 0.04700 0.97890 0.13500
O 	O 	0.76850 0.15350 0.08402 -0.48400
O 	O 	0.90160 0.18790 0.04699 -0.46200
C 	C 	0.82630 0.09720 0.02921 -0.08400
C 	C 	0.78020 0.04240 0.03123 -0.06700
C 	C 	0.93390 0.03060 0.94270 -0.09000
N 	N 	0.04260 0.06090 0.88781 -0.28700
C 	C 	0.82950 0.14890 0.05550 0.39200
C 	C 	0.00390 0.95950 0.89760 -0.10000
H 	H 	0.01070 0.92080 0.88910 0.06900
C 	C 	0.94570 0.97250 0.93090 0.01600
H 	H 	0.91430 0.94230 0.94540 0.02100
C 	C 	0.05130 0.00450 0.87730 0.05200
H 	H 	0.09170 0.99550 0.85520 -0.00900
C 	C 	0.71210 0.01230 0.06140 0.37400
C 	C 	0.98420 0.07350 0.92000 0.04100
H 	H 	0.97730 0.11270 0.92740 -0.02800
Zn	Zn	0.00719 0.82513 0.00201 1.24400
N 	N 	0.93750 0.73980 0.99931 -0.22500
N 	N 	0.86180 0.65050 0.99576 -0.22000
O 	O 	0.06270 0.79120 0.05375 -0.46800
O 	O 	0.06220 0.71320 0.09195 -0.44700
C 	C 	0.87320 0.70300 0.97890 0.13600
O 	O 	0.98150 0.59650 0.08402 -0.48300
O 	O 	0.84840 0.56210 0.04699 -0.46200
C 	C 	0.92370 0.65280 0.02921 -0.08400
C 	C 	0.96980 0.70760 0.03123 -0.06600
C 	C 	0.81610 0.71940 0.94270 -0.09400
N 	N 	0.70740 0.68910 0.88781 -0.28900
C 	C 	0.92050 0.60110 0.05550 0.39200
C 	C 	0.74610 0.79050 0.89760 -0.11000
H 	H 	0.73930 0.82920 0.88910 0.07200
C 	C 	0.80430 0.77750 0.93090 0.02300
H 	H 	0.83570 0.80770 0.94540 0.01800
C 	C 	0.69870 0.74550 0.87730 0.05900
H 	H 	0.65830 0.75450 0.85520 -0.01200
C 	C 	0.03790 0.73770 0.06140 0.37300
C 	C 	0.76580 0.67650 0.92000 0.04200
H 	H 	0.77270 0.63730 0.92740 -0.02900
Zn	Zn	0.00719 0.32513 0.50201 1.24400
N 	N 	0.93750 0.23980 0.49931 -0.22500
N 	N 	0.86180 0.15050 0.49576 -0.22000
O 	O 	0.06270 0.29120 0.55375 -0.46800
O 	O 	0.06220 0.21320 0.59195 -0.44700
C 	C 	0.87320 0.20300 0.47890 0.13600
O 	O 	0.98150 0.09650 0.58402 -0.48300
O 	O 	0.84840 0.06210 0.54699 -0.46200
C 	C 	0.92370 0.15280 0.52921 -0.08400
C 	C 	0.96980 0.20760 0.53123 -0.06600
C 	C 	0.81610 0.21940 0.44270 -0.09400
N 	N 	0.70740 0.18910 0.38781 -0.28900
C 	C 	0.92050 0.10110 0.55550 0.39200
C 	C 	0.74610 0.29050 0.39760 -0.11000
H 	H 	0.73930 0.32920 0.38910 0.07200
C 	C 	0.80430 0.27750 0.43090 0.02300
H 	H 	0.83570 0.30770 0.44540 0.01800
C 	C 	0.69870 0.24550 0.37730 0.05900
H 	H 	0.65830 0.25450 0.35520 -0.01200
C 	C 	0.03790 0.23770 0.56140 0.37300
C 	C 	0.76580 0.17650 0.42000 0.04300
H 	H 	0.77270 0.13730 0.42740 -0.02900
Zn	Zn	0.50719 0.82513 0.50201 1.24400
N 	N 	0.43750 0.73980 0.49931 -0.22500
N 	N 	0.36180 0.65050 0.49576 -0.22000
O 	O 	0.56270 0.79120 0.55375 -0.46800
O 	O 	0.56220 0.71320 0.59195 -0.44700
C 	C 	0.37320 0.70300 0.47890 0.13600
O 	O 	0.48150 0.59650 0.58402 -0.48400
O 	O 	0.34840 0.56210 0.54699 -0.46200
C 	C 	0.42370 0.65280 0.52921 -0.08400
C 	C 	0.46980 0.70760 0.53123 -0.06700
C 	C 	0.31610 0.71940 0.44270 -0.09400
N 	N 	0.20740 0.68910 0.38781 -0.28900
C 	C 	0.42050 0.60110 0.55550 0.39200
C 	C 	0.24610 0.79050 0.39760 -0.11000
H 	H 	0.23930 0.82920 0.38910 0.07200
C 	C 	0.30430 0.77750 0.43090 0.02300
H 	H 	0.33570 0.80770 0.44540 0.01800
C 	C 	0.19870 0.74550 0.37730 0.05900
H 	H 	0.15830 0.75450 0.35520 -0.01200
C 	C 	0.53790 0.73770 0.56140 0.37400
C 	C 	0.26580 0.67650 0.42000 0.04300
H 	H 	0.27270 0.63730 0.42740 -0.02900
Zn	Zn	0.50719 0.32513 0.00201 1.24400
N 	N 	0.43750 0.23980 0.99931 -0.22500
N 	N 	0.36180 0.15050 0.99576 -0.22000
O 	O 	0.56270 0.29120 0.05375 -0.46800
O 	O 	0.56220 0.21320 0.09195 -0.44700
C 	C 	0.37320 0.20300 0.97890 0.13600
O 	O 	0.48150 0.09650 0.08402 -0.48400
O 	O 	0.34840 0.06210 0.04699 -0.46300
C 	C 	0.42370 0.15280 0.02921 -0.08400
C 	C 	0.46980 0.20760 0.03123 -0.06700
C 	C 	0.31610 0.21940 0.94270 -0.09400
N 	N 	0.20740 0.18910 0.88781 -0.28900
C 	C 	0.42050 0.10110 0.05550 0.39200
C 	C 	0.24610 0.29050 0.89760 -0.11000
H 	H 	0.23930 0.32920 0.88910 0.07200
C 	C 	0.30430 0.27750 0.93090 0.02300
H 	H 	0.33570 0.30770 0.94540 0.01800
C 	C 	0.19870 0.24550 0.87730 0.05900
H 	H 	0.15830 0.25450 0.85520 -0.01200
C 	C 	0.53790 0.23770 0.06140 0.37400
C 	C 	0.26580 0.17650 0.92000 0.04200
H 	H 	0.27270 0.13730 0.92740 -0.02900
Tb	Tb	0.87500 0.37500 0.87500 2.10500
Tb	Tb	0.87500 0.87500 0.37500 2.10400
Tb	Tb	0.37500 0.37500 0.37500 2.10500
Tb	Tb	0.37500 0.87500 0.87500 2.10500
Tb	Tb	0.12500 0.62500 0.12500 2.10500
Tb	Tb	0.12500 0.12500 0.62500 2.10400
Tb	Tb	0.62500 0.62500 0.62500 2.10500
Tb	Tb	0.62500 0.12500 0.12500 2.10500
Zn	Zn	0.37500 0.37500 0.60632 1.11500
Zn	Zn	0.37500 0.87500 0.10632 1.11500
Zn	Zn	0.87500 0.37500 0.10632 1.11500
Zn	Zn	0.87500 0.87500 0.60632 1.11500
Zn	Zn	0.37500 0.37500 0.14368 1.11500
Zn	Zn	0.37500 0.87500 0.64368 1.11500
Zn	Zn	0.87500 0.37500 0.64368 1.11500
Zn	Zn	0.87500 0.87500 0.14368 1.11500
Zn	Zn	0.62500 0.62500 0.39368 1.11500
Zn	Zn	0.62500 0.12500 0.89368 1.11500
Zn	Zn	0.12500 0.62500 0.89368 1.11500
Zn	Zn	0.12500 0.12500 0.39368 1.11500
Zn	Zn	0.62500 0.62500 0.85632 1.11500
Zn	Zn	0.62500 0.12500 0.35632 1.11500
Zn	Zn	0.12500 0.62500 0.35632 1.11500
Zn	Zn	0.12500 0.12500 0.85632 1.11500
Cl	Cl	0.12500 0.62500 0.75290 -0.91000
Cl	Cl	0.12500 0.12500 0.25290 -0.91100
Cl	Cl	0.62500 0.12500 0.75290 -0.91000
Cl	Cl	0.62500 0.62500 0.25290 -0.91000
Cl	Cl	0.62500 0.62500 0.99710 -0.91000
Cl	Cl	0.62500 0.12500 0.49710 -0.91000
Cl	Cl	0.12500 0.12500 0.99710 -0.91000
Cl	Cl	0.12500 0.62500 0.49710 -0.91000
Cl	Cl	0.87500 0.37500 0.24710 -0.91000
Cl	Cl	0.87500 0.87500 0.74710 -0.91100
Cl	Cl	0.37500 0.87500 0.24710 -0.91000
Cl	Cl	0.37500 0.37500 0.74710 -0.91000
Cl	Cl	0.37500 0.37500 0.00290 -0.91000
Cl	Cl	0.37500 0.87500 0.50290 -0.91000
Cl	Cl	0.87500 0.87500 0.00290 -0.91000
Cl	Cl	0.87500 0.37500 0.50290 -0.91000
