data_crystal

_cell_length_a 12.28400
_cell_length_b 22.73300
_cell_length_c 34.40000
_cell_angle_alpha 90.00000
_cell_angle_beta  90.00000
_cell_angle_gamma 90.00000

_symmetry_space_group_name_	'P 1'
_symmetry_space_group_name_H-M	'P 1'

loop_
_symmetry_equiv_pos_as_xyz
  x,y,z

loop_
_atom_site_label
_atom_site_type_symbol
_atom_site_fract_x
_atom_site_fract_y
_atom_site_fract_z
_atom_site_charge
Zn	Zn	0.99285 0.57511 0.75190 1.24400
N 	N 	0.06260 0.48980 0.74920 -0.22300
N 	N 	0.13880 0.40010 0.74546 -0.21800
O 	O 	0.93700 0.54120 0.80313 -0.46500
O 	O 	0.93800 0.46340 0.84169 -0.45200
C 	C 	0.12700 0.45260 0.72900 0.13700
O 	O 	0.01870 0.34610 0.83361 -0.49200
O 	O 	0.15260 0.31240 0.79677 -0.46200
C 	C 	0.07690 0.40250 0.77909 -0.08800
C 	C 	0.03020 0.45750 0.78092 -0.06500
C 	C 	0.18350 0.46880 0.69260 -0.09100
N 	N 	0.29270 0.43880 0.63792 -0.28900
C 	C 	0.07980 0.35120 0.80538 0.39400
C 	C 	0.25450 0.53990 0.64790 -0.11000
H 	H 	0.26300 0.57860 0.63960 0.07100
C 	C 	0.19490 0.52720 0.68090 0.02300
H 	H 	0.16280 0.55730 0.69510 0.01500
C 	C 	0.30090 0.49450 0.62740 0.06300
H 	H 	0.34010 0.50340 0.60500 -0.01600
C 	C 	0.96250 0.48770 0.81080 0.36600
C 	C 	0.23330 0.42580 0.66970 0.04100
H 	H 	0.22510 0.38660 0.67670 -0.02700
Zn	Zn	0.99285 0.07511 0.25190 1.24300
N 	N 	0.06260 0.98980 0.24920 -0.22400
N 	N 	0.13880 0.90010 0.24546 -0.21900
O 	O 	0.93700 0.04120 0.30313 -0.46500
O 	O 	0.93800 0.96340 0.34169 -0.45300
C 	C 	0.12700 0.95260 0.22900 0.13500
O 	O 	0.01870 0.84610 0.33361 -0.49300
O 	O 	0.15260 0.81240 0.29677 -0.46300
C 	C 	0.07690 0.90250 0.27909 -0.08900
C 	C 	0.03020 0.95750 0.28092 -0.06500
C 	C 	0.18350 0.96880 0.19260 -0.09100
N 	N 	0.29270 0.93880 0.13792 -0.29000
C 	C 	0.07980 0.85120 0.30538 0.39300
C 	C 	0.25450 0.03990 0.14790 -0.11100
H 	H 	0.26300 0.07860 0.13960 0.07100
C 	C 	0.19490 0.02720 0.18090 0.02200
H 	H 	0.16280 0.05730 0.19510 0.01500
C 	C 	0.30090 0.99450 0.12740 0.06300
H 	H 	0.34010 0.00340 0.10500 -0.01600
C 	C 	0.96250 0.98770 0.31080 0.36400
C 	C 	0.23330 0.92580 0.16970 0.04100
H 	H 	0.22510 0.88660 0.17670 -0.02700
Zn	Zn	0.49285 0.57511 0.25190 1.24300
N 	N 	0.56260 0.48980 0.24920 -0.22400
N 	N 	0.63880 0.40010 0.24546 -0.21900
O 	O 	0.43700 0.54120 0.30313 -0.46600
O 	O 	0.43800 0.46340 0.34169 -0.45300
C 	C 	0.62700 0.45260 0.22900 0.13600
O 	O 	0.51870 0.34610 0.33361 -0.49400
O 	O 	0.65260 0.31240 0.29677 -0.46300
C 	C 	0.57690 0.40250 0.27909 -0.08900
C 	C 	0.53020 0.45750 0.28092 -0.06600
C 	C 	0.68350 0.46880 0.19260 -0.09200
N 	N 	0.79270 0.43880 0.13792 -0.28900
C 	C 	0.57980 0.35120 0.30538 0.39300
C 	C 	0.75450 0.53990 0.14790 -0.11100
H 	H 	0.76300 0.57860 0.13960 0.07100
C 	C 	0.69490 0.52720 0.18090 0.02300
H 	H 	0.66280 0.55730 0.19510 0.01500
C 	C 	0.80090 0.49450 0.12740 0.06300
H 	H 	0.84010 0.50340 0.10500 -0.01600
C 	C 	0.46250 0.48770 0.31080 0.36700
C 	C 	0.73330 0.42580 0.16970 0.04100
H 	H 	0.72510 0.38660 0.17670 -0.02700
Zn	Zn	0.49285 0.07511 0.75190 1.24300
N 	N 	0.56260 0.98980 0.74920 -0.22400
N 	N 	0.63880 0.90010 0.74546 -0.21900
O 	O 	0.43700 0.04120 0.80313 -0.46600
O 	O 	0.43800 0.96340 0.84169 -0.45400
C 	C 	0.62700 0.95260 0.72900 0.13500
O 	O 	0.51870 0.84610 0.83361 -0.49400
O 	O 	0.65260 0.81240 0.79677 -0.46300
C 	C 	0.57690 0.90250 0.77909 -0.08900
C 	C 	0.53020 0.95750 0.78092 -0.06600
C 	C 	0.68350 0.96880 0.69260 -0.09200
N 	N 	0.79270 0.93880 0.63792 -0.28900
C 	C 	0.57980 0.85120 0.80538 0.39300
C 	C 	0.75450 0.03990 0.64790 -0.10900
H 	H 	0.76300 0.07860 0.63960 0.07000
C 	C 	0.69490 0.02720 0.68090 0.02200
H 	H 	0.66280 0.05730 0.69510 0.01600
C 	C 	0.80090 0.99450 0.62740 0.06000
H 	H 	0.84010 0.00340 0.60500 -0.01500
C 	C 	0.46250 0.98770 0.81080 0.36700
C 	C 	0.73330 0.92580 0.66970 0.04100
H 	H 	0.72510 0.88660 0.67670 -0.02700
Zn	Zn	0.75715 0.17489 0.75190 1.24300
N 	N 	0.68740 0.26020 0.74920 -0.22400
N 	N 	0.61120 0.34990 0.74546 -0.21900
O 	O 	0.81300 0.20880 0.80313 -0.46600
O 	O 	0.81200 0.28660 0.84169 -0.45300
C 	C 	0.62300 0.29740 0.72900 0.13600
O 	O 	0.73130 0.40390 0.83361 -0.49400
O 	O 	0.59740 0.43760 0.79677 -0.46300
C 	C 	0.67310 0.34750 0.77909 -0.08900
C 	C 	0.71980 0.29250 0.78092 -0.06600
C 	C 	0.56650 0.28120 0.69260 -0.09200
N 	N 	0.45730 0.31120 0.63792 -0.29000
C 	C 	0.67020 0.39880 0.80538 0.39300
C 	C 	0.49550 0.21010 0.64790 -0.11100
H 	H 	0.48700 0.17140 0.63960 0.07100
C 	C 	0.55510 0.22280 0.68090 0.02300
H 	H 	0.58720 0.19270 0.69510 0.01500
C 	C 	0.44910 0.25550 0.62740 0.06300
H 	H 	0.40990 0.24660 0.60500 -0.01600
C 	C 	0.78750 0.26230 0.81080 0.36700
C 	C 	0.51670 0.32420 0.66970 0.04100
H 	H 	0.52490 0.36340 0.67670 -0.02700
Zn	Zn	0.75715 0.67489 0.25190 1.24300
N 	N 	0.68740 0.76020 0.24920 -0.22400
N 	N 	0.61120 0.84990 0.24546 -0.21900
O 	O 	0.81300 0.70880 0.30313 -0.46600
O 	O 	0.81200 0.78660 0.34169 -0.45300
C 	C 	0.62300 0.79740 0.22900 0.13500
O 	O 	0.73130 0.90390 0.33361 -0.49400
O 	O 	0.59740 0.93760 0.29677 -0.46300
C 	C 	0.67310 0.84750 0.27909 -0.08900
C 	C 	0.71980 0.79250 0.28092 -0.06600
C 	C 	0.56650 0.78120 0.19260 -0.09200
N 	N 	0.45730 0.81120 0.13792 -0.29000
C 	C 	0.67020 0.89880 0.30538 0.39300
C 	C 	0.49550 0.71010 0.14790 -0.11100
H 	H 	0.48700 0.67140 0.13960 0.07100
C 	C 	0.55510 0.72280 0.18090 0.02300
H 	H 	0.58720 0.69270 0.19510 0.01500
C 	C 	0.44910 0.75550 0.12740 0.06300
H 	H 	0.40990 0.74660 0.10500 -0.01600
C 	C 	0.78750 0.76230 0.31080 0.36700
C 	C 	0.51670 0.82420 0.16970 0.04100
H 	H 	0.52490 0.86340 0.17670 -0.02700
Zn	Zn	0.25715 0.17489 0.25190 1.24300
N 	N 	0.18740 0.26020 0.24920 -0.22400
N 	N 	0.11120 0.34990 0.24546 -0.21900
O 	O 	0.31300 0.20880 0.30313 -0.46600
O 	O 	0.31200 0.28660 0.34169 -0.45300
C 	C 	0.12300 0.29740 0.22900 0.13500
O 	O 	0.23130 0.40390 0.33361 -0.49400
O 	O 	0.09740 0.43760 0.29677 -0.46300
C 	C 	0.17310 0.34750 0.27909 -0.08900
C 	C 	0.21980 0.29250 0.28092 -0.06600
C 	C 	0.06650 0.28120 0.19260 -0.09100
N 	N 	0.95730 0.31120 0.13792 -0.28900
C 	C 	0.17020 0.39880 0.30538 0.39300
C 	C 	0.99550 0.21010 0.14790 -0.10900
H 	H 	0.98700 0.17140 0.13960 0.07100
C 	C 	0.05510 0.22280 0.18090 0.02100
H 	H 	0.08720 0.19270 0.19510 0.01600
C 	C 	0.94910 0.25550 0.12740 0.06200
H 	H 	0.90990 0.24660 0.10500 -0.01500
C 	C 	0.28750 0.26230 0.31080 0.36700
C 	C 	0.01670 0.32420 0.16970 0.04000
H 	H 	0.02490 0.36340 0.17670 -0.02600
Zn	Zn	0.25715 0.67489 0.75190 1.24300
N 	N 	0.18740 0.76020 0.74920 -0.22400
N 	N 	0.11120 0.84990 0.74546 -0.21900
O 	O 	0.31300 0.70880 0.80313 -0.46600
O 	O 	0.31200 0.78660 0.84169 -0.45300
C 	C 	0.12300 0.79740 0.72900 0.13600
O 	O 	0.23130 0.90390 0.83361 -0.49400
O 	O 	0.09740 0.93760 0.79677 -0.46300
C 	C 	0.17310 0.84750 0.77909 -0.08900
C 	C 	0.21980 0.79250 0.78092 -0.06600
C 	C 	0.06650 0.78120 0.69260 -0.09300
N 	N 	0.95730 0.81120 0.63792 -0.29000
C 	C 	0.17020 0.89880 0.80538 0.39300
C 	C 	0.99550 0.71010 0.64790 -0.11300
H 	H 	0.98700 0.67140 0.63960 0.07200
C 	C 	0.05510 0.72280 0.68090 0.02600
H 	H 	0.08720 0.69270 0.69510 0.01500
C 	C 	0.94910 0.75550 0.62740 0.06400
H 	H 	0.90990 0.74660 0.60500 -0.01600
C 	C 	0.28750 0.76230 0.81080 0.36700
C 	C 	0.01670 0.82420 0.66970 0.04300
H 	H 	0.02490 0.86340 0.67670 -0.02700
Zn	Zn	0.75715 0.57511 0.99810 1.24300
N 	N 	0.68740 0.48980 0.00080 -0.22400
N 	N 	0.61120 0.40010 0.00454 -0.21900
O 	O 	0.81300 0.54120 0.94687 -0.46600
O 	O 	0.81200 0.46340 0.90831 -0.45300
C 	C 	0.62300 0.45260 0.02100 0.13600
O 	O 	0.73130 0.34610 0.91639 -0.49400
O 	O 	0.59740 0.31240 0.95323 -0.46300
C 	C 	0.67310 0.40250 0.97091 -0.08900
C 	C 	0.71980 0.45750 0.96908 -0.06600
C 	C 	0.56650 0.46880 0.05740 -0.09200
N 	N 	0.45730 0.43880 0.11208 -0.29000
C 	C 	0.67020 0.35120 0.94462 0.39300
C 	C 	0.49550 0.53990 0.10210 -0.11100
H 	H 	0.48700 0.57860 0.11040 0.07100
C 	C 	0.55510 0.52720 0.06910 0.02300
H 	H 	0.58720 0.55730 0.05490 0.01500
C 	C 	0.44910 0.49450 0.12260 0.06300
H 	H 	0.40990 0.50340 0.14500 -0.01600
C 	C 	0.78750 0.48770 0.93920 0.36700
C 	C 	0.51670 0.42580 0.08030 0.04100
H 	H 	0.52490 0.38660 0.07330 -0.02700
Zn	Zn	0.75715 0.07511 0.49810 1.24300
N 	N 	0.68740 0.98980 0.50080 -0.22400
N 	N 	0.61120 0.90010 0.50454 -0.21900
O 	O 	0.81300 0.04120 0.44687 -0.46500
O 	O 	0.81200 0.96340 0.40831 -0.45300
C 	C 	0.62300 0.95260 0.52100 0.13600
O 	O 	0.73130 0.84610 0.41639 -0.49400
O 	O 	0.59740 0.81240 0.45323 -0.46300
C 	C 	0.67310 0.90250 0.47091 -0.08900
C 	C 	0.71980 0.95750 0.46908 -0.06600
C 	C 	0.56650 0.96880 0.55740 -0.09200
N 	N 	0.45730 0.93880 0.61208 -0.29000
C 	C 	0.67020 0.85120 0.44462 0.39300
C 	C 	0.49550 0.03990 0.60210 -0.11200
H 	H 	0.48700 0.07860 0.61040 0.07100
C 	C 	0.55510 0.02720 0.56910 0.02400
H 	H 	0.58720 0.05730 0.55490 0.01500
C 	C 	0.44910 0.99450 0.62260 0.06300
H 	H 	0.40990 0.00340 0.64500 -0.01600
C 	C 	0.78750 0.98770 0.43920 0.36600
C 	C 	0.51670 0.92580 0.58030 0.04100
H 	H 	0.52490 0.88660 0.57330 -0.02700
Zn	Zn	0.25715 0.57511 0.49810 1.24300
N 	N 	0.18740 0.48980 0.50080 -0.22400
N 	N 	0.11120 0.40010 0.50454 -0.21900
O 	O 	0.31300 0.54120 0.44687 -0.46600
O 	O 	0.31200 0.46340 0.40831 -0.45300
C 	C 	0.12300 0.45260 0.52100 0.13600
O 	O 	0.23130 0.34610 0.41639 -0.49400
O 	O 	0.09740 0.31240 0.45323 -0.46300
C 	C 	0.17310 0.40250 0.47091 -0.08900
C 	C 	0.21980 0.45750 0.46908 -0.06600
C 	C 	0.06650 0.46880 0.55740 -0.09200
N 	N 	0.95730 0.43880 0.61208 -0.29000
C 	C 	0.17020 0.35120 0.44462 0.39300
C 	C 	0.99550 0.53990 0.60210 -0.11200
H 	H 	0.98700 0.57860 0.61040 0.07100
C 	C 	0.05510 0.52720 0.56910 0.02400
H 	H 	0.08720 0.55730 0.55490 0.01500
C 	C 	0.94910 0.49450 0.62260 0.06300
H 	H 	0.90990 0.50340 0.64500 -0.01600
C 	C 	0.28750 0.48770 0.43920 0.36700
C 	C 	0.01670 0.42580 0.58030 0.04100
H 	H 	0.02490 0.38660 0.57330 -0.02700
Zn	Zn	0.25715 0.07511 0.99810 1.24300
N 	N 	0.18740 0.98980 0.00080 -0.22400
N 	N 	0.11120 0.90010 0.00454 -0.22000
O 	O 	0.31300 0.04120 0.94687 -0.46700
O 	O 	0.31200 0.96340 0.90831 -0.45400
C 	C 	0.12300 0.95260 0.02100 0.13400
O 	O 	0.23130 0.84610 0.91639 -0.49400
O 	O 	0.09740 0.81240 0.95323 -0.46300
C 	C 	0.17310 0.90250 0.97091 -0.08800
C 	C 	0.21980 0.95750 0.96908 -0.06600
C 	C 	0.06650 0.96880 0.05740 -0.08800
N 	N 	0.95730 0.93880 0.11208 -0.28800
C 	C 	0.17020 0.85120 0.94462 0.39300
C 	C 	0.99550 0.03990 0.10210 -0.10200
H 	H 	0.98700 0.07860 0.11040 0.06800
C 	C 	0.05510 0.02720 0.06910 0.01600
H 	H 	0.08720 0.05730 0.05490 0.01800
C 	C 	0.94910 0.99450 0.12260 0.05500
H 	H 	0.90990 0.00340 0.14500 -0.01300
C 	C 	0.28750 0.98770 0.93920 0.36700
C 	C 	0.01670 0.92580 0.08030 0.04000
H 	H 	0.02490 0.88660 0.07330 -0.02600
Zn	Zn	0.99285 0.17489 0.99810 1.24300
N 	N 	0.06260 0.26020 0.00080 -0.22400
N 	N 	0.13880 0.34990 0.00454 -0.22000
O 	O 	0.93700 0.20880 0.94687 -0.46600
O 	O 	0.93800 0.28660 0.90831 -0.45300
C 	C 	0.12700 0.29740 0.02100 0.13500
O 	O 	0.01870 0.40390 0.91639 -0.49300
O 	O 	0.15260 0.43760 0.95323 -0.46300
C 	C 	0.07690 0.34750 0.97091 -0.08800
C 	C 	0.03020 0.29250 0.96908 -0.06500
C 	C 	0.18350 0.28120 0.05740 -0.09200
N 	N 	0.29270 0.31120 0.11208 -0.29000
C 	C 	0.07980 0.39880 0.94462 0.39300
C 	C 	0.25450 0.21010 0.10210 -0.11100
H 	H 	0.26300 0.17140 0.11040 0.07100
C 	C 	0.19490 0.22280 0.06910 0.02300
H 	H 	0.16280 0.19270 0.05490 0.01500
C 	C 	0.30090 0.25550 0.12260 0.06300
H 	H 	0.34010 0.24660 0.14500 -0.01600
C 	C 	0.96250 0.26230 0.93920 0.36600
C 	C 	0.23330 0.32420 0.08030 0.04100
H 	H 	0.22510 0.36340 0.07330 -0.02700
Zn	Zn	0.99285 0.67489 0.49810 1.24300
N 	N 	0.06260 0.76020 0.50080 -0.22400
N 	N 	0.13880 0.84990 0.50454 -0.21900
O 	O 	0.93700 0.70880 0.44687 -0.46600
O 	O 	0.93800 0.78660 0.40831 -0.45300
C 	C 	0.12700 0.79740 0.52100 0.13600
O 	O 	0.01870 0.90390 0.41639 -0.49300
O 	O 	0.15260 0.93760 0.45323 -0.46300
C 	C 	0.07690 0.84750 0.47091 -0.08900
C 	C 	0.03020 0.79250 0.46908 -0.06500
C 	C 	0.18350 0.78120 0.55740 -0.09200
N 	N 	0.29270 0.81120 0.61208 -0.28900
C 	C 	0.07980 0.89880 0.44462 0.39300
C 	C 	0.25450 0.71010 0.60210 -0.11100
H 	H 	0.26300 0.67140 0.61040 0.07100
C 	C 	0.19490 0.72280 0.56910 0.02300
H 	H 	0.16280 0.69270 0.55490 0.01500
C 	C 	0.30090 0.75550 0.62260 0.06300
H 	H 	0.34010 0.74660 0.64500 -0.01600
C 	C 	0.96250 0.76230 0.43920 0.36600
C 	C 	0.23330 0.82420 0.58030 0.04100
H 	H 	0.22510 0.86340 0.57330 -0.02700
Zn	Zn	0.49285 0.17489 0.49810 1.24300
N 	N 	0.56260 0.26020 0.50080 -0.22400
N 	N 	0.63880 0.34990 0.50454 -0.21900
O 	O 	0.43700 0.20880 0.44687 -0.46600
O 	O 	0.43800 0.28660 0.40831 -0.45300
C 	C 	0.62700 0.29740 0.52100 0.13600
O 	O 	0.51870 0.40390 0.41639 -0.49400
O 	O 	0.65260 0.43760 0.45323 -0.46300
C 	C 	0.57690 0.34750 0.47091 -0.08900
C 	C 	0.53020 0.29250 0.46908 -0.06600
C 	C 	0.68350 0.28120 0.55740 -0.09200
N 	N 	0.79270 0.31120 0.61208 -0.28900
C 	C 	0.57980 0.39880 0.44462 0.39300
C 	C 	0.75450 0.21010 0.60210 -0.11100
H 	H 	0.76300 0.17140 0.61040 0.07100
C 	C 	0.69490 0.22280 0.56910 0.02300
H 	H 	0.66280 0.19270 0.55490 0.01500
C 	C 	0.80090 0.25550 0.62260 0.06300
H 	H 	0.84010 0.24660 0.64500 -0.01600
C 	C 	0.46250 0.26230 0.43920 0.36700
C 	C 	0.73330 0.32420 0.58030 0.04100
H 	H 	0.72510 0.36340 0.57330 -0.02700
Zn	Zn	0.49285 0.67489 0.99810 1.24300
N 	N 	0.56260 0.76020 0.00080 -0.22400
N 	N 	0.63880 0.84990 0.00454 -0.21900
O 	O 	0.43700 0.70880 0.94687 -0.46600
O 	O 	0.43800 0.78660 0.90831 -0.45300
C 	C 	0.62700 0.79740 0.02100 0.13600
O 	O 	0.51870 0.90390 0.91639 -0.49400
O 	O 	0.65260 0.93760 0.95323 -0.46300
C 	C 	0.57690 0.84750 0.97091 -0.08900
C 	C 	0.53020 0.79250 0.96908 -0.06600
C 	C 	0.68350 0.78120 0.05740 -0.09200
N 	N 	0.79270 0.81120 0.11208 -0.29000
C 	C 	0.57980 0.89880 0.94462 0.39300
C 	C 	0.75450 0.71010 0.10210 -0.11100
H 	H 	0.76300 0.67140 0.11040 0.07100
C 	C 	0.69490 0.72280 0.06910 0.02300
H 	H 	0.66280 0.69270 0.05490 0.01500
C 	C 	0.80090 0.75550 0.12260 0.06300
H 	H 	0.84010 0.74660 0.14500 -0.01600
C 	C 	0.46250 0.76230 0.93920 0.36700
C 	C 	0.73330 0.82420 0.08030 0.04100
H 	H 	0.72510 0.86340 0.07330 -0.02700
Zn	Zn	0.00715 0.42489 0.24810 1.24300
N 	N 	0.93740 0.51020 0.25080 -0.22400
N 	N 	0.86120 0.59990 0.25454 -0.21900
O 	O 	0.06300 0.45880 0.19687 -0.46600
O 	O 	0.06200 0.53660 0.15831 -0.45300
C 	C 	0.87300 0.54740 0.27100 0.13600
O 	O 	0.98130 0.65390 0.16639 -0.49300
O 	O 	0.84740 0.68760 0.20323 -0.46300
C 	C 	0.92310 0.59750 0.22091 -0.08900
C 	C 	0.96980 0.54250 0.21908 -0.06600
C 	C 	0.81650 0.53120 0.30740 -0.09200
N 	N 	0.70730 0.56120 0.36208 -0.29000
C 	C 	0.92020 0.64880 0.19462 0.39300
C 	C 	0.74550 0.46010 0.35210 -0.11100
H 	H 	0.73700 0.42140 0.36040 0.07100
C 	C 	0.80510 0.47280 0.31910 0.02300
H 	H 	0.83720 0.44270 0.30490 0.01500
C 	C 	0.69910 0.50550 0.37260 0.06300
H 	H 	0.65990 0.49660 0.39500 -0.01600
C 	C 	0.03750 0.51230 0.18920 0.36600
C 	C 	0.76670 0.57420 0.33030 0.04100
H 	H 	0.77490 0.61340 0.32330 -0.02700
Zn	Zn	0.00715 0.92489 0.74810 1.24300
N 	N 	0.93740 0.01020 0.75080 -0.22400
N 	N 	0.86120 0.09990 0.75454 -0.21900
O 	O 	0.06300 0.95880 0.69687 -0.46500
O 	O 	0.06200 0.03660 0.65831 -0.45300
C 	C 	0.87300 0.04740 0.77100 0.13500
O 	O 	0.98130 0.15390 0.66639 -0.49300
O 	O 	0.84740 0.18760 0.70323 -0.46300
C 	C 	0.92310 0.09750 0.72091 -0.08900
C 	C 	0.96980 0.04250 0.71908 -0.06500
C 	C 	0.81650 0.03120 0.80740 -0.09100
N 	N 	0.70730 0.06120 0.86208 -0.29000
C 	C 	0.92020 0.14880 0.69462 0.39300
C 	C 	0.74550 0.96010 0.85210 -0.11100
H 	H 	0.73700 0.92140 0.86040 0.07100
C 	C 	0.80510 0.97280 0.81910 0.02200
H 	H 	0.83720 0.94270 0.80490 0.01500
C 	C 	0.69910 0.00550 0.87260 0.06300
H 	H 	0.65990 0.99660 0.89500 -0.01600
C 	C 	0.03750 0.01230 0.68920 0.36400
C 	C 	0.76670 0.07420 0.83030 0.04100
H 	H 	0.77490 0.11340 0.82330 -0.02700
Zn	Zn	0.50715 0.42489 0.74810 1.24300
N 	N 	0.43740 0.51020 0.75080 -0.22400
N 	N 	0.36120 0.59990 0.75454 -0.21900
O 	O 	0.56300 0.45880 0.69687 -0.46600
O 	O 	0.56200 0.53660 0.65831 -0.45300
C 	C 	0.37300 0.54740 0.77100 0.13600
O 	O 	0.48130 0.65390 0.66639 -0.49400
O 	O 	0.34740 0.68760 0.70323 -0.46300
C 	C 	0.42310 0.59750 0.72091 -0.08900
C 	C 	0.46980 0.54250 0.71908 -0.06600
C 	C 	0.31650 0.53120 0.80740 -0.09200
N 	N 	0.20730 0.56120 0.86208 -0.28900
C 	C 	0.42020 0.64880 0.69462 0.39300
C 	C 	0.24550 0.46010 0.85210 -0.11100
H 	H 	0.23700 0.42140 0.86040 0.07100
C 	C 	0.30510 0.47280 0.81910 0.02300
H 	H 	0.33720 0.44270 0.80490 0.01500
C 	C 	0.19910 0.50550 0.87260 0.06300
H 	H 	0.15990 0.49660 0.89500 -0.01600
C 	C 	0.53750 0.51230 0.68920 0.36700
C 	C 	0.26670 0.57420 0.83030 0.04100
H 	H 	0.27490 0.61340 0.82330 -0.02700
Zn	Zn	0.50715 0.92489 0.24810 1.24300
N 	N 	0.43740 0.01020 0.25080 -0.22400
N 	N 	0.36120 0.09990 0.25454 -0.21900
O 	O 	0.56300 0.95880 0.19687 -0.46600
O 	O 	0.56200 0.03660 0.15831 -0.45400
C 	C 	0.37300 0.04740 0.27100 0.13500
O 	O 	0.48130 0.15390 0.16639 -0.49400
O 	O 	0.34740 0.18760 0.20323 -0.46300
C 	C 	0.42310 0.09750 0.22091 -0.08900
C 	C 	0.46980 0.04250 0.21908 -0.06600
C 	C 	0.31650 0.03120 0.30740 -0.09200
N 	N 	0.20730 0.06120 0.36208 -0.28900
C 	C 	0.42020 0.14880 0.19462 0.39300
C 	C 	0.24550 0.96010 0.35210 -0.10900
H 	H 	0.23700 0.92140 0.36040 0.07000
C 	C 	0.30510 0.97280 0.31910 0.02200
H 	H 	0.33720 0.94270 0.30490 0.01600
C 	C 	0.19910 0.00550 0.37260 0.06000
H 	H 	0.15990 0.99660 0.39500 -0.01500
C 	C 	0.53750 0.01230 0.18920 0.36700
C 	C 	0.26670 0.07420 0.33030 0.04100
H 	H 	0.27490 0.11340 0.32330 -0.02700
Zn	Zn	0.24285 0.82511 0.24810 1.24300
N 	N 	0.31260 0.73980 0.25080 -0.22400
N 	N 	0.38880 0.65010 0.25454 -0.21900
O 	O 	0.18700 0.79120 0.19687 -0.46600
O 	O 	0.18800 0.71340 0.15831 -0.45300
C 	C 	0.37700 0.70260 0.27100 0.13600
O 	O 	0.26870 0.59610 0.16639 -0.49400
O 	O 	0.40260 0.56240 0.20323 -0.46300
C 	C 	0.32690 0.65250 0.22091 -0.08900
C 	C 	0.28020 0.70750 0.21908 -0.06600
C 	C 	0.43350 0.71880 0.30740 -0.09200
N 	N 	0.54270 0.68880 0.36208 -0.29000
C 	C 	0.32980 0.60120 0.19462 0.39300
C 	C 	0.50450 0.78990 0.35210 -0.11100
H 	H 	0.51300 0.82860 0.36040 0.07100
C 	C 	0.44490 0.77720 0.31910 0.02300
H 	H 	0.41280 0.80730 0.30490 0.01500
C 	C 	0.55090 0.74450 0.37260 0.06300
H 	H 	0.59010 0.75340 0.39500 -0.01600
C 	C 	0.21250 0.73770 0.18920 0.36700
C 	C 	0.48330 0.67580 0.33030 0.04100
H 	H 	0.47510 0.63660 0.32330 -0.02700
Zn	Zn	0.24285 0.32511 0.74810 1.24300
N 	N 	0.31260 0.23980 0.75080 -0.22400
N 	N 	0.38880 0.15010 0.75454 -0.21900
O 	O 	0.18700 0.29120 0.69687 -0.46600
O 	O 	0.18800 0.21340 0.65831 -0.45300
C 	C 	0.37700 0.20260 0.77100 0.13500
O 	O 	0.26870 0.09610 0.66639 -0.49400
O 	O 	0.40260 0.06240 0.70323 -0.46300
C 	C 	0.32690 0.15250 0.72091 -0.08900
C 	C 	0.28020 0.20750 0.71908 -0.06600
C 	C 	0.43350 0.21880 0.80740 -0.09200
N 	N 	0.54270 0.18880 0.86208 -0.29000
C 	C 	0.32980 0.10120 0.69462 0.39300
C 	C 	0.50450 0.28990 0.85210 -0.11100
H 	H 	0.51300 0.32860 0.86040 0.07100
C 	C 	0.44490 0.27720 0.81910 0.02300
H 	H 	0.41280 0.30730 0.80490 0.01500
C 	C 	0.55090 0.24450 0.87260 0.06300
H 	H 	0.59010 0.25340 0.89500 -0.01600
C 	C 	0.21250 0.23770 0.68920 0.36700
C 	C 	0.48330 0.17580 0.83030 0.04100
H 	H 	0.47510 0.13660 0.82330 -0.02700
Zn	Zn	0.74285 0.82511 0.74810 1.24300
N 	N 	0.81260 0.73980 0.75080 -0.22400
N 	N 	0.88880 0.65010 0.75454 -0.21900
O 	O 	0.68700 0.79120 0.69687 -0.46600
O 	O 	0.68800 0.71340 0.65831 -0.45300
C 	C 	0.87700 0.70260 0.77100 0.13500
O 	O 	0.76870 0.59610 0.66639 -0.49400
O 	O 	0.90260 0.56240 0.70323 -0.46300
C 	C 	0.82690 0.65250 0.72091 -0.08900
C 	C 	0.78020 0.70750 0.71908 -0.06600
C 	C 	0.93350 0.71880 0.80740 -0.09100
N 	N 	0.04270 0.68880 0.86208 -0.28900
C 	C 	0.82980 0.60120 0.69462 0.39300
C 	C 	0.00450 0.78990 0.85210 -0.10900
H 	H 	0.01300 0.82860 0.86040 0.07100
C 	C 	0.94490 0.77720 0.81910 0.02100
H 	H 	0.91280 0.80730 0.80490 0.01600
C 	C 	0.05090 0.74450 0.87260 0.06200
H 	H 	0.09010 0.75340 0.89500 -0.01500
C 	C 	0.71250 0.73770 0.68920 0.36700
C 	C 	0.98330 0.67580 0.83030 0.04000
H 	H 	0.97510 0.63660 0.82330 -0.02600
Zn	Zn	0.74285 0.32511 0.24810 1.24300
N 	N 	0.81260 0.23980 0.25080 -0.22400
N 	N 	0.88880 0.15010 0.25454 -0.21900
O 	O 	0.68700 0.29120 0.19687 -0.46600
O 	O 	0.68800 0.21340 0.15831 -0.45300
C 	C 	0.87700 0.20260 0.27100 0.13600
O 	O 	0.76870 0.09610 0.16639 -0.49400
O 	O 	0.90260 0.06240 0.20323 -0.46300
C 	C 	0.82690 0.15250 0.22091 -0.08900
C 	C 	0.78020 0.20750 0.21908 -0.06600
C 	C 	0.93350 0.21880 0.30740 -0.09300
N 	N 	0.04270 0.18880 0.36208 -0.29000
C 	C 	0.82980 0.10120 0.19462 0.39300
C 	C 	0.00450 0.28990 0.35210 -0.11300
H 	H 	0.01300 0.32860 0.36040 0.07200
C 	C 	0.94490 0.27720 0.31910 0.02600
H 	H 	0.91280 0.30730 0.30490 0.01500
C 	C 	0.05090 0.24450 0.37260 0.06400
H 	H 	0.09010 0.25340 0.39500 -0.01600
C 	C 	0.71250 0.23770 0.18920 0.36700
C 	C 	0.98330 0.17580 0.33030 0.04300
H 	H 	0.97510 0.13660 0.32330 -0.02700
Zn	Zn	0.24285 0.42489 0.00190 1.24300
N 	N 	0.31260 0.51020 0.99920 -0.22400
N 	N 	0.38880 0.59990 0.99546 -0.21900
O 	O 	0.18700 0.45880 0.05313 -0.46600
O 	O 	0.18800 0.53660 0.09169 -0.45300
C 	C 	0.37700 0.54740 0.97900 0.13600
O 	O 	0.26870 0.65390 0.08361 -0.49400
O 	O 	0.40260 0.68760 0.04677 -0.46300
C 	C 	0.32690 0.59750 0.02909 -0.08900
C 	C 	0.28020 0.54250 0.03092 -0.06600
C 	C 	0.43350 0.53120 0.94260 -0.09200
N 	N 	0.54270 0.56120 0.88792 -0.29000
C 	C 	0.32980 0.64880 0.05538 0.39300
C 	C 	0.50450 0.46010 0.89790 -0.11100
H 	H 	0.51300 0.42140 0.88960 0.07100
C 	C 	0.44490 0.47280 0.93090 0.02300
H 	H 	0.41280 0.44270 0.94510 0.01500
C 	C 	0.55090 0.50550 0.87740 0.06300
H 	H 	0.59010 0.49660 0.85500 -0.01600
C 	C 	0.21250 0.51230 0.06080 0.36700
C 	C 	0.48330 0.57420 0.91970 0.04100
H 	H 	0.47510 0.61340 0.92670 -0.02700
Zn	Zn	0.24285 0.92489 0.50190 1.24300
N 	N 	0.31260 0.01020 0.49920 -0.22400
N 	N 	0.38880 0.09990 0.49546 -0.21900
O 	O 	0.18700 0.95880 0.55313 -0.46500
O 	O 	0.18800 0.03660 0.59169 -0.45300
C 	C 	0.37700 0.04740 0.47900 0.13600
O 	O 	0.26870 0.15390 0.58361 -0.49400
O 	O 	0.40260 0.18760 0.54677 -0.46300
C 	C 	0.32690 0.09750 0.52909 -0.08900
C 	C 	0.28020 0.04250 0.53092 -0.06600
C 	C 	0.43350 0.03120 0.44260 -0.09200
N 	N 	0.54270 0.06120 0.38792 -0.29000
C 	C 	0.32980 0.14880 0.55538 0.39300
C 	C 	0.50450 0.96010 0.39790 -0.11200
H 	H 	0.51300 0.92140 0.38960 0.07100
C 	C 	0.44490 0.97280 0.43090 0.02400
H 	H 	0.41280 0.94270 0.44510 0.01500
C 	C 	0.55090 0.00550 0.37740 0.06300
H 	H 	0.59010 0.99660 0.35500 -0.01600
C 	C 	0.21250 0.01230 0.56080 0.36600
C 	C 	0.48330 0.07420 0.41970 0.04100
H 	H 	0.47510 0.11340 0.42670 -0.02700
Zn	Zn	0.74285 0.42489 0.50190 1.24300
N 	N 	0.81260 0.51020 0.49920 -0.22400
N 	N 	0.88880 0.59990 0.49546 -0.21900
O 	O 	0.68700 0.45880 0.55313 -0.46600
O 	O 	0.68800 0.53660 0.59169 -0.45300
C 	C 	0.87700 0.54740 0.47900 0.13600
O 	O 	0.76870 0.65390 0.58361 -0.49400
O 	O 	0.90260 0.68760 0.54677 -0.46300
C 	C 	0.82690 0.59750 0.52909 -0.08900
C 	C 	0.78020 0.54250 0.53092 -0.06600
C 	C 	0.93350 0.53120 0.44260 -0.09200
N 	N 	0.04270 0.56120 0.38792 -0.29000
C 	C 	0.82980 0.64880 0.55538 0.39300
C 	C 	0.00450 0.46010 0.39790 -0.11200
H 	H 	0.01300 0.42140 0.38960 0.07100
C 	C 	0.94490 0.47280 0.43090 0.02400
H 	H 	0.91280 0.44270 0.44510 0.01500
C 	C 	0.05090 0.50550 0.37740 0.06300
H 	H 	0.09010 0.49660 0.35500 -0.01600
C 	C 	0.71250 0.51230 0.56080 0.36700
C 	C 	0.98330 0.57420 0.41970 0.04100
H 	H 	0.97510 0.61340 0.42670 -0.02700
Zn	Zn	0.74285 0.92489 0.00190 1.24300
N 	N 	0.81260 0.01020 0.99920 -0.22400
N 	N 	0.88880 0.09990 0.99546 -0.22000
O 	O 	0.68700 0.95880 0.05313 -0.46700
O 	O 	0.68800 0.03660 0.09169 -0.45400
C 	C 	0.87700 0.04740 0.97900 0.13400
O 	O 	0.76870 0.15390 0.08361 -0.49400
O 	O 	0.90260 0.18760 0.04677 -0.46300
C 	C 	0.82690 0.09750 0.02909 -0.08800
C 	C 	0.78020 0.04250 0.03092 -0.06600
C 	C 	0.93350 0.03120 0.94260 -0.08800
N 	N 	0.04270 0.06120 0.88792 -0.28800
C 	C 	0.82980 0.14880 0.05538 0.39300
C 	C 	0.00450 0.96010 0.89790 -0.10200
H 	H 	0.01300 0.92140 0.88960 0.06800
C 	C 	0.94490 0.97280 0.93090 0.01600
H 	H 	0.91280 0.94270 0.94510 0.01800
C 	C 	0.05090 0.00550 0.87740 0.05500
H 	H 	0.09010 0.99660 0.85500 -0.01300
C 	C 	0.71250 0.01230 0.06080 0.36700
C 	C 	0.98330 0.07420 0.91970 0.04000
H 	H 	0.97510 0.11340 0.92670 -0.02600
Zn	Zn	0.00715 0.82511 0.00190 1.24300
N 	N 	0.93740 0.73980 0.99920 -0.22400
N 	N 	0.86120 0.65010 0.99546 -0.22000
O 	O 	0.06300 0.79120 0.05313 -0.46600
O 	O 	0.06200 0.71340 0.09169 -0.45300
C 	C 	0.87300 0.70260 0.97900 0.13500
O 	O 	0.98130 0.59610 0.08361 -0.49300
O 	O 	0.84740 0.56240 0.04677 -0.46300
C 	C 	0.92310 0.65250 0.02909 -0.08800
C 	C 	0.96980 0.70750 0.03092 -0.06500
C 	C 	0.81650 0.71880 0.94260 -0.09200
N 	N 	0.70730 0.68880 0.88792 -0.29000
C 	C 	0.92020 0.60120 0.05538 0.39300
C 	C 	0.74550 0.78990 0.89790 -0.11100
H 	H 	0.73700 0.82860 0.88960 0.07100
C 	C 	0.80510 0.77720 0.93090 0.02300
H 	H 	0.83720 0.80730 0.94510 0.01500
C 	C 	0.69910 0.74450 0.87740 0.06300
H 	H 	0.65990 0.75340 0.85500 -0.01600
C 	C 	0.03750 0.73770 0.06080 0.36600
C 	C 	0.76670 0.67580 0.91970 0.04100
H 	H 	0.77490 0.63660 0.92670 -0.02700
Zn	Zn	0.00715 0.32511 0.50190 1.24300
N 	N 	0.93740 0.23980 0.49920 -0.22400
N 	N 	0.86120 0.15010 0.49546 -0.21900
O 	O 	0.06300 0.29120 0.55313 -0.46600
O 	O 	0.06200 0.21340 0.59169 -0.45300
C 	C 	0.87300 0.20260 0.47900 0.13600
O 	O 	0.98130 0.09610 0.58361 -0.49300
O 	O 	0.84740 0.06240 0.54677 -0.46300
C 	C 	0.92310 0.15250 0.52909 -0.08900
C 	C 	0.96980 0.20750 0.53092 -0.06500
C 	C 	0.81650 0.21880 0.44260 -0.09200
N 	N 	0.70730 0.18880 0.38792 -0.28900
C 	C 	0.92020 0.10120 0.55538 0.39300
C 	C 	0.74550 0.28990 0.39790 -0.11100
H 	H 	0.73700 0.32860 0.38960 0.07100
C 	C 	0.80510 0.27720 0.43090 0.02300
H 	H 	0.83720 0.30730 0.44510 0.01500
C 	C 	0.69910 0.24450 0.37740 0.06300
H 	H 	0.65990 0.25340 0.35500 -0.01600
C 	C 	0.03750 0.23770 0.56080 0.36600
C 	C 	0.76670 0.17580 0.41970 0.04100
H 	H 	0.77490 0.13660 0.42670 -0.02700
Zn	Zn	0.50715 0.82511 0.50190 1.24300
N 	N 	0.43740 0.73980 0.49920 -0.22400
N 	N 	0.36120 0.65010 0.49546 -0.21900
O 	O 	0.56300 0.79120 0.55313 -0.46600
O 	O 	0.56200 0.71340 0.59169 -0.45300
C 	C 	0.37300 0.70260 0.47900 0.13600
O 	O 	0.48130 0.59610 0.58361 -0.49400
O 	O 	0.34740 0.56240 0.54677 -0.46300
C 	C 	0.42310 0.65250 0.52909 -0.08900
C 	C 	0.46980 0.70750 0.53092 -0.06600
C 	C 	0.31650 0.71880 0.44260 -0.09200
N 	N 	0.20730 0.68880 0.38792 -0.28900
C 	C 	0.42020 0.60120 0.55538 0.39300
C 	C 	0.24550 0.78990 0.39790 -0.11100
H 	H 	0.23700 0.82860 0.38960 0.07100
C 	C 	0.30510 0.77720 0.43090 0.02300
H 	H 	0.33720 0.80730 0.44510 0.01500
C 	C 	0.19910 0.74450 0.37740 0.06300
H 	H 	0.15990 0.75340 0.35500 -0.01600
C 	C 	0.53750 0.73770 0.56080 0.36700
C 	C 	0.26670 0.67580 0.41970 0.04100
H 	H 	0.27490 0.63660 0.42670 -0.02700
Zn	Zn	0.50715 0.32511 0.00190 1.24300
N 	N 	0.43740 0.23980 0.99920 -0.22400
N 	N 	0.36120 0.15010 0.99546 -0.21900
O 	O 	0.56300 0.29120 0.05313 -0.46600
O 	O 	0.56200 0.21340 0.09169 -0.45300
C 	C 	0.37300 0.20260 0.97900 0.13600
O 	O 	0.48130 0.09610 0.08361 -0.49400
O 	O 	0.34740 0.06240 0.04677 -0.46300
C 	C 	0.42310 0.15250 0.02909 -0.08900
C 	C 	0.46980 0.20750 0.03092 -0.06600
C 	C 	0.31650 0.21880 0.94260 -0.09200
N 	N 	0.20730 0.18880 0.88792 -0.29000
C 	C 	0.42020 0.10120 0.05538 0.39300
C 	C 	0.24550 0.28990 0.89790 -0.11100
H 	H 	0.23700 0.32860 0.88960 0.07100
C 	C 	0.30510 0.27720 0.93090 0.02300
H 	H 	0.33720 0.30730 0.94510 0.01500
C 	C 	0.19910 0.24450 0.87740 0.06300
H 	H 	0.15990 0.25340 0.85500 -0.01600
C 	C 	0.53750 0.23770 0.06080 0.36700
C 	C 	0.26670 0.17580 0.91970 0.04100
H 	H 	0.27490 0.13660 0.92670 -0.02700
Eu	Eu	0.87500 0.37500 0.87500 2.20000
Eu	Eu	0.87500 0.87500 0.37500 2.20000
Eu	Eu	0.37500 0.37500 0.37500 2.20100
Eu	Eu	0.37500 0.87500 0.87500 2.20100
Eu	Eu	0.12500 0.62500 0.12500 2.20000
Eu	Eu	0.12500 0.12500 0.62500 2.20000
Eu	Eu	0.62500 0.62500 0.62500 2.20100
Eu	Eu	0.62500 0.12500 0.12500 2.20100
Zn	Zn	0.37500 0.37500 0.60653 1.11500
Zn	Zn	0.37500 0.87500 0.10653 1.11500
Zn	Zn	0.87500 0.37500 0.10653 1.11500
Zn	Zn	0.87500 0.87500 0.60653 1.11500
Zn	Zn	0.37500 0.37500 0.14347 1.11500
Zn	Zn	0.37500 0.87500 0.64347 1.11500
Zn	Zn	0.87500 0.37500 0.64347 1.11500
Zn	Zn	0.87500 0.87500 0.14347 1.11500
Zn	Zn	0.62500 0.62500 0.39347 1.11500
Zn	Zn	0.62500 0.12500 0.89347 1.11500
Zn	Zn	0.12500 0.62500 0.89347 1.11500
Zn	Zn	0.12500 0.12500 0.39347 1.11500
Zn	Zn	0.62500 0.62500 0.85653 1.11500
Zn	Zn	0.62500 0.12500 0.35653 1.11500
Zn	Zn	0.12500 0.62500 0.35653 1.11500
Zn	Zn	0.12500 0.12500 0.85653 1.11500
Cl	Cl	0.12500 0.62500 0.75420 -0.90000
Cl	Cl	0.12500 0.12500 0.25420 -0.90100
Cl	Cl	0.62500 0.12500 0.75420 -0.90100
Cl	Cl	0.62500 0.62500 0.25420 -0.90100
Cl	Cl	0.62500 0.62500 0.99580 -0.90100
Cl	Cl	0.62500 0.12500 0.49580 -0.90100
Cl	Cl	0.12500 0.12500 0.99580 -0.90100
Cl	Cl	0.12500 0.62500 0.49580 -0.90000
Cl	Cl	0.87500 0.37500 0.24580 -0.90000
Cl	Cl	0.87500 0.87500 0.74580 -0.90100
Cl	Cl	0.37500 0.87500 0.24580 -0.90100
Cl	Cl	0.37500 0.37500 0.74580 -0.90100
Cl	Cl	0.37500 0.37500 0.00420 -0.90100
Cl	Cl	0.37500 0.87500 0.50420 -0.90100
Cl	Cl	0.87500 0.87500 0.00420 -0.90100
Cl	Cl	0.87500 0.37500 0.50420 -0.90000
