data_crystal

_cell_length_a 10.87240
_cell_length_b 15.62180
_cell_length_c 10.99240
_cell_angle_alpha 90.00000
_cell_angle_beta  100.70200
_cell_angle_gamma 90.00000

_symmetry_space_group_name_	'P 1'
_symmetry_space_group_name_H-M	'P 1'

loop_
_symmetry_equiv_pos_as_xyz
  x,y,z

loop_
_atom_site_label
_atom_site_type_symbol
_atom_site_fract_x
_atom_site_fract_y
_atom_site_fract_z
_atom_site_charge
Tb	Tb	0.14243 0.10175 0.39562 1.70700
O 	O 	0.93500 0.06200 0.33540 -0.52500
O 	O 	0.54890 0.33610 0.05880 -0.41300
O 	O 	0.74230 0.29880 0.05300 -0.40800
O 	O 	0.28900 0.16990 0.28520 -0.44800
O 	O 	0.36500 0.06460 0.40680 -0.40000
O 	O 	0.82820 0.01090 0.47320 -0.51400
C 	C 	0.83780 0.05610 0.38140 0.51000
C 	C 	0.72510 0.10790 0.32350 -0.20400
C 	C 	0.73650 0.17280 0.24040 0.10700
H 	H 	0.81440 0.18490 0.22110 -0.00900
C 	C 	0.60770 0.09010 0.35330 0.09400
H 	H 	0.59960 0.04690 0.40930 0.02500
C 	C 	0.50350 0.13730 0.29880 -0.14100
C 	C 	0.63270 0.21970 0.18570 -0.14600
C 	C 	0.51720 0.20180 0.21560 0.06800
H 	H 	0.44760 0.23360 0.17930 0.02800
C 	C 	0.64290 0.28970 0.09530 0.32400
C 	C 	0.37730 0.12260 0.33140 0.34600
Tb	Tb	0.35757 0.60175 0.10438 1.71400
O 	O 	0.56500 0.56200 0.16460 -0.52900
O 	O 	0.95110 0.83610 0.44120 -0.41500
O 	O 	0.75770 0.79880 0.44700 -0.41000
O 	O 	0.21100 0.66990 0.21480 -0.44700
O 	O 	0.13500 0.56460 0.09320 -0.40100
O 	O 	0.67180 0.51090 0.02680 -0.51600
C 	C 	0.66220 0.55610 0.11860 0.51100
C 	C 	0.77490 0.60790 0.17650 -0.20500
C 	C 	0.76350 0.67280 0.25960 0.10700
H 	H 	0.68560 0.68490 0.27890 -0.01000
C 	C 	0.89230 0.59010 0.14670 0.09300
H 	H 	0.90040 0.54690 0.09070 0.02700
C 	C 	0.99650 0.63730 0.20120 -0.13800
C 	C 	0.86730 0.71970 0.31430 -0.14500
C 	C 	0.98280 0.70180 0.28440 0.06500
H 	H 	0.05240 0.73360 0.32070 0.03000
C 	C 	0.85710 0.78970 0.40470 0.32400
C 	C 	0.12270 0.62260 0.16860 0.34400
Tb	Tb	0.85757 0.89825 0.60438 1.70700
O 	O 	0.06500 0.93800 0.66460 -0.52500
O 	O 	0.45110 0.66390 0.94120 -0.41300
O 	O 	0.25770 0.70120 0.94700 -0.40800
O 	O 	0.71100 0.83010 0.71480 -0.44800
O 	O 	0.63500 0.93540 0.59320 -0.40000
O 	O 	0.17180 0.98910 0.52680 -0.51400
C 	C 	0.16220 0.94390 0.61860 0.51000
C 	C 	0.27490 0.89210 0.67650 -0.20400
C 	C 	0.26350 0.82720 0.75960 0.10700
H 	H 	0.18560 0.81510 0.77890 -0.00900
C 	C 	0.39230 0.90990 0.64670 0.09400
H 	H 	0.40040 0.95310 0.59070 0.02500
C 	C 	0.49650 0.86270 0.70120 -0.14100
C 	C 	0.36730 0.78030 0.81430 -0.14600
C 	C 	0.48280 0.79820 0.78440 0.06800
H 	H 	0.55240 0.76640 0.82070 0.02800
C 	C 	0.35710 0.71030 0.90470 0.32400
C 	C 	0.62270 0.87740 0.66860 0.34600
Tb	Tb	0.64243 0.39825 0.89562 1.71400
O 	O 	0.43500 0.43800 0.83540 -0.52900
O 	O 	0.04890 0.16390 0.55880 -0.41500
O 	O 	0.24230 0.20120 0.55300 -0.41000
O 	O 	0.78900 0.33010 0.78520 -0.44700
O 	O 	0.86500 0.43540 0.90680 -0.40100
O 	O 	0.32820 0.48910 0.97320 -0.51600
C 	C 	0.33780 0.44390 0.88140 0.51100
C 	C 	0.22510 0.39210 0.82350 -0.20500
C 	C 	0.23650 0.32720 0.74040 0.10700
H 	H 	0.31440 0.31510 0.72110 -0.01000
C 	C 	0.10770 0.40990 0.85330 0.09300
H 	H 	0.09960 0.45310 0.90930 0.02700
C 	C 	0.00350 0.36270 0.79880 -0.13800
C 	C 	0.13270 0.28030 0.68570 -0.14500
C 	C 	0.01720 0.29820 0.71560 0.06500
H 	H 	0.94760 0.26640 0.67930 0.03000
C 	C 	0.14290 0.21030 0.59530 0.32400
C 	C 	0.87730 0.37740 0.83140 0.34400
