data_crystal

_cell_length_a 16.46740
_cell_length_b 18.17050
_cell_length_c 20.44560
_cell_angle_alpha 64.16700
_cell_angle_beta  70.66800
_cell_angle_gamma 70.11900

_symmetry_space_group_name_	'P 1'
_symmetry_space_group_name_H-M	'P 1'

loop_
_symmetry_equiv_pos_as_xyz
  x,y,z

loop_
_atom_site_label
_atom_site_type_symbol
_atom_site_fract_x
_atom_site_fract_y
_atom_site_fract_z
_atom_site_charge
Mn	Mn	0.64044 0.73887 0.57956 1.26200
Mn	Mn	0.87869 0.66867 0.58638 1.28100
Mn	Mn	0.09031 0.72052 0.62149 1.28900
Mn	Mn	0.32614 0.69810 0.54953 1.28200
H 	H 	0.84940 0.40400 0.70730 -0.05000
H 	H 	0.82220 0.27800 0.79220 0.14100
H 	H 	0.60280 0.51880 0.77660 -0.04200
H 	H 	0.57540 0.39290 0.86760 0.14500
H 	H 	0.84130 0.80420 0.72270 -0.05600
H 	H 	0.61850 0.19060 0.06160 0.31700
H 	H 	0.58370 0.11790 0.13190 0.31600
H 	H 	0.68560 0.10940 0.09940 0.32400
H 	H 	0.41820 0.81330 0.40100 -0.06800
H 	H 	0.58690 0.25590 0.97390 -0.06000
H 	H 	0.55360 0.26380 0.90660 -0.05200
H 	H 	0.43720 0.90350 0.27920 0.15300
H 	H 	0.65870 0.84640 0.09340 0.32000
H 	H 	0.59090 0.85800 0.04900 0.30600
H 	H 	0.69150 0.85080 0.01080 0.31200
H 	H 	0.81980 0.87020 0.80250 0.14800
H 	H 	0.58120 0.86070 0.73990 -0.05900
H 	H 	0.67790 0.74930 0.38650 -0.05700
H 	H 	0.69900 0.83830 0.26290 0.13900
H 	H 	0.57470 0.12780 0.82150 0.30700
H 	H 	0.52420 0.20190 0.85040 0.29200
H 	H 	0.62610 0.18930 0.81630 0.31300
H 	H 	0.55710 0.92200 0.82350 0.15700
H 	H 	0.56120 0.01860 0.86670 -0.03500
H 	H 	0.56240 0.93330 0.93550 -0.03800
H 	H 	0.68450 0.97470 0.15420 -0.03400
H 	H 	0.69720 0.89450 0.13690 -0.04000
H 	H 	0.32280 0.30240 0.81630 0.25700
H 	H 	0.10070 0.22350 0.02480 0.29900
H 	H 	0.06810 0.15210 0.09790 0.29700
H 	H 	0.16960 0.14730 0.06580 0.29700
H 	H 	0.19180 0.01700 0.11530 -0.02800
H 	H 	0.21390 0.93270 0.10240 -0.02700
H 	H 	0.06860 0.27880 0.93370 -0.07900
H 	H 	0.05800 0.27600 0.86100 -0.08200
H 	H 	0.15000 0.87020 0.08250 0.32200
H 	H 	0.08510 0.87420 0.03900 0.30700
H 	H 	0.18660 0.86380 0.00340 0.30900
H 	H 	0.08730 0.11960 0.79550 0.29400
H 	H 	0.03130 0.20050 0.81290 0.28100
H 	H 	0.13420 0.18730 0.78490 0.28600
H 	H 	0.05020 0.01740 0.85800 -0.03400
H 	H 	0.07940 0.93060 0.92020 -0.04100
H 	H 	0.05720 0.92180 0.81350 0.16900
H 	H 	0.31340 0.92230 0.74900 0.15700
H 	H 	0.01130 0.86930 0.29150 0.13300
H 	H 	0.24270 0.93630 0.21020 0.16100
H 	H 	0.07780 0.85280 0.73710 -0.06400
H 	H 	0.33340 0.85550 0.67090 -0.07200
H 	H 	0.04390 0.79790 0.40550 -0.02900
H 	H 	0.27540 0.86510 0.32590 -0.04100
H 	H 	0.08240 0.39400 0.79150 0.26100
H 	H 	0.11850 0.51620 0.70660 -0.17000
H 	H 	0.35970 0.42620 0.73490 -0.15000
H 	H 	0.90760 0.57570 0.81970 0.40300
H 	H 	0.84790 0.60980 0.76210 0.39400
H 	H 	0.92130 0.52640 0.76880 0.39000
H 	H 	0.83530 0.89380 0.37520 0.41200
H 	H 	0.79150 0.83610 0.36540 0.39800
H 	H 	0.73590 0.89190 0.41310 0.38300
C 	C 	0.53230 0.72070 0.48860 0.44900
C 	C 	0.79400 0.40160 0.73910 0.21600
C 	C 	0.77820 0.32690 0.78970 -0.33500
C 	C 	0.64750 0.47010 0.78090 0.21600
C 	C 	0.69510 0.32300 0.83870 0.32200
C 	C 	0.63020 0.39470 0.83470 -0.34300
C 	C 	0.78420 0.82900 0.74200 0.23200
C 	C 	0.62850 0.13080 0.08710 -0.97400
C 	C 	0.47490 0.81870 0.37340 0.23500
C 	C 	0.59960 0.23420 0.93490 0.23200
C 	C 	0.48610 0.87220 0.30040 -0.35200
C 	C 	0.74400 0.55980 0.67470 0.45900
C 	C 	0.64400 0.87170 0.04540 -0.94300
C 	C 	0.77140 0.86790 0.79010 -0.35000
C 	C 	0.62950 0.86210 0.75310 0.23800
C 	C 	0.62930 0.78030 0.36480 0.21700
C 	C 	0.64210 0.83370 0.29050 -0.35100
C 	C 	0.72850 0.47510 0.73380 -0.26900
C 	C 	0.57890 0.16110 0.84560 -0.91800
C 	C 	0.71340 0.82600 0.72170 -0.29200
C 	C 	0.57070 0.87980 0.25790 0.33400
C 	C 	0.61440 0.89970 0.80230 -0.36400
C 	C 	0.72670 0.78580 0.66640 0.48700
C 	C 	0.68690 0.90370 0.82020 0.33500
C 	C 	0.59460 0.97690 0.90370 0.22000
C 	C 	0.62470 0.09080 0.03770 0.43500
C 	C 	0.62970 0.96630 0.01840 0.43500
C 	C 	0.54590 0.77290 0.40650 -0.30600
C 	C 	0.60580 0.14050 0.96750 -0.35100
C 	C 	0.63830 0.00290 0.06230 -0.35700
C 	C 	0.65750 0.94770 0.13780 0.23000
C 	C 	0.60690 0.01680 0.94890 -0.34500
C 	C 	0.59750 0.10410 0.92260 0.40600
C 	C 	0.27920 0.34710 0.79530 -0.67900
C 	C 	0.19800 0.33700 0.81430 0.65500
C 	C 	0.11310 0.16420 0.05320 -0.90800
C 	C 	0.16690 0.98080 0.10770 0.20800
C 	C 	0.11470 0.11620 0.00710 0.41200
C 	C 	0.09410 0.25120 0.89770 0.29600
C 	C 	0.13230 0.02800 0.03730 -0.33800
C 	C 	0.13780 0.88940 0.03410 -0.93200
C 	C 	0.10000 0.15890 0.93540 -0.36500
C 	C 	0.08660 0.15960 0.81460 -0.88600
C 	C 	0.12480 0.98390 0.99870 0.41600
C 	C 	0.09770 0.11440 0.89500 0.40400
C 	C 	0.10580 0.02720 0.92780 -0.34400
C 	C 	0.09610 0.98300 0.88600 0.22100
C 	C 	0.18400 0.92750 0.79040 0.36600
C 	C 	0.12410 0.91030 0.23830 0.32600
C 	C 	0.11330 0.90740 0.78560 -0.40300
C 	C 	0.26560 0.90780 0.74680 -0.39900
C 	C 	0.06480 0.86830 0.29840 -0.32900
C 	C 	0.20250 0.90850 0.24970 -0.34800
C 	C 	0.12600 0.86620 0.73970 0.27400
C 	C 	0.27780 0.86740 0.70050 0.26700
C 	C 	0.08420 0.82610 0.36640 0.20800
C 	C 	0.22200 0.86590 0.31910 0.21000
C 	C 	0.20800 0.84370 0.69700 -0.32500
C 	C 	0.16250 0.82360 0.37960 -0.26000
C 	C 	0.24260 0.48550 0.71320 -0.54900
C 	C 	0.18250 0.78310 0.45540 0.44100
C 	C 	0.26550 0.56720 0.65730 0.53300
C 	C 	0.14000 0.39960 0.78070 -0.71100
C 	C 	0.16160 0.47330 0.73010 0.56000
C 	C 	0.21970 0.79660 0.65020 0.49600
C 	C 	0.30190 0.42130 0.74570 0.54800
C 	C 	0.97200 0.63110 0.71300 0.70000
C 	C 	0.90620 0.58120 0.77120 -1.24900
C 	C 	0.82050 0.78920 0.46660 0.70100
C 	C 	0.79340 0.85890 0.39910 -1.28000
O 	O 	0.59790 0.69080 0.51850 -0.46300
O 	O 	0.45680 0.71110 0.52330 -0.48800
O 	O 	0.82440 0.56260 0.64600 -0.50600
O 	O 	0.66490 0.79930 0.63930 -0.52500
O 	O 	0.80280 0.74190 0.65260 -0.51100
O 	O 	0.67880 0.61610 0.65910 -0.49800
O 	O 	0.57380 0.93500 0.18640 -0.32000
O 	O 	0.68090 0.94130 0.86790 -0.32000
O 	O 	0.68570 0.24370 0.88700 -0.31400
O 	O 	0.09880 0.95270 0.17130 -0.31300
O 	O 	0.15210 0.77730 0.65340 -0.52400
O 	O 	0.18390 0.25940 0.86260 -0.40700
O 	O 	0.21040 0.62120 0.62060 -0.57800
O 	O 	0.12070 0.75220 0.50700 -0.50000
O 	O 	0.29260 0.78020 0.60950 -0.48200
O 	O 	0.33920 0.57770 0.64820 -0.46600
O 	O 	0.17950 0.96640 0.83600 -0.33400
O 	O 	0.25400 0.78110 0.46470 -0.49700
O 	O 	0.98120 0.64450 0.64490 -0.62800
O 	O 	0.01610 0.65830 0.73190 -0.53300
O 	O 	0.77320 0.73670 0.50750 -0.64500
O 	O 	0.89130 0.78090 0.48250 -0.53800
Mn	Mn	0.35956 0.26113 0.42044 1.26100
Mn	Mn	0.12131 0.33133 0.41362 1.28000
Mn	Mn	0.90969 0.27948 0.37851 1.28900
Mn	Mn	0.67386 0.30190 0.45047 1.28200
H 	H 	0.15060 0.59600 0.29270 -0.05000
H 	H 	0.17780 0.72200 0.20780 0.14100
H 	H 	0.39720 0.48120 0.22340 -0.04200
H 	H 	0.42460 0.60710 0.13240 0.14500
H 	H 	0.15870 0.19580 0.27730 -0.05600
H 	H 	0.38150 0.80940 0.93840 0.31700
H 	H 	0.41630 0.88210 0.86810 0.31600
H 	H 	0.31440 0.89060 0.90060 0.32400
H 	H 	0.58180 0.18670 0.59900 -0.06800
H 	H 	0.41310 0.74410 0.02610 -0.06000
H 	H 	0.44640 0.73620 0.09340 -0.05200
H 	H 	0.56280 0.09650 0.72080 0.15300
H 	H 	0.34130 0.15360 0.90660 0.32000
H 	H 	0.40910 0.14200 0.95100 0.30600
H 	H 	0.30850 0.14920 0.98920 0.31200
H 	H 	0.18020 0.12980 0.19750 0.14800
H 	H 	0.41880 0.13930 0.26010 -0.05900
H 	H 	0.32210 0.25070 0.61350 -0.05700
H 	H 	0.30100 0.16170 0.73710 0.13900
H 	H 	0.42530 0.87220 0.17850 0.30700
H 	H 	0.47580 0.79810 0.14960 0.29200
H 	H 	0.37390 0.81070 0.18370 0.31300
H 	H 	0.44290 0.07800 0.17650 0.15700
H 	H 	0.43880 0.98140 0.13330 -0.03500
H 	H 	0.43760 0.06670 0.06450 -0.03800
H 	H 	0.31550 0.02530 0.84580 -0.03400
H 	H 	0.30280 0.10550 0.86310 -0.04000
H 	H 	0.67720 0.69760 0.18370 0.25700
H 	H 	0.89930 0.77650 0.97520 0.29900
H 	H 	0.93190 0.84790 0.90210 0.29700
H 	H 	0.83040 0.85270 0.93420 0.29700
H 	H 	0.80820 0.98300 0.88470 -0.02800
H 	H 	0.78610 0.06730 0.89760 -0.02700
H 	H 	0.93140 0.72120 0.06630 -0.07900
H 	H 	0.94200 0.72400 0.13900 -0.08200
H 	H 	0.85000 0.12980 0.91750 0.32200
H 	H 	0.91490 0.12580 0.96100 0.30700
H 	H 	0.81340 0.13620 0.99660 0.30900
H 	H 	0.91270 0.88040 0.20450 0.29400
H 	H 	0.96870 0.79950 0.18710 0.28100
H 	H 	0.86580 0.81270 0.21510 0.28600
H 	H 	0.94980 0.98260 0.14200 -0.03400
H 	H 	0.92060 0.06940 0.07980 -0.04100
H 	H 	0.94280 0.07820 0.18650 0.16900
H 	H 	0.68660 0.07770 0.25100 0.15700
H 	H 	0.98870 0.13070 0.70850 0.13300
H 	H 	0.75730 0.06370 0.78980 0.16100
H 	H 	0.92220 0.14720 0.26290 -0.06400
H 	H 	0.66660 0.14450 0.32910 -0.07200
H 	H 	0.95610 0.20210 0.59450 -0.02900
H 	H 	0.72460 0.13490 0.67410 -0.04100
H 	H 	0.91760 0.60600 0.20850 0.26100
H 	H 	0.88150 0.48380 0.29340 -0.17000
H 	H 	0.64030 0.57380 0.26510 -0.15000
H 	H 	0.09240 0.42430 0.18030 0.40300
H 	H 	0.15210 0.39020 0.23790 0.39400
H 	H 	0.07870 0.47360 0.23120 0.39000
H 	H 	0.16470 0.10620 0.62480 0.41200
H 	H 	0.20850 0.16390 0.63460 0.39800
H 	H 	0.26410 0.10810 0.58690 0.38300
C 	C 	0.46770 0.27930 0.51140 0.44900
C 	C 	0.20600 0.59840 0.26090 0.21600
C 	C 	0.22180 0.67310 0.21030 -0.33500
C 	C 	0.35250 0.52990 0.21910 0.21600
C 	C 	0.30490 0.67700 0.16130 0.32200
C 	C 	0.36980 0.60530 0.16530 -0.34300
C 	C 	0.21580 0.17100 0.25800 0.23200
C 	C 	0.37150 0.86920 0.91290 -0.97400
C 	C 	0.52510 0.18130 0.62660 0.23500
C 	C 	0.40040 0.76580 0.06510 0.23200
C 	C 	0.51390 0.12780 0.69960 -0.35200
C 	C 	0.25600 0.44020 0.32530 0.45900
C 	C 	0.35600 0.12830 0.95460 -0.94300
C 	C 	0.22860 0.13210 0.20990 -0.35000
C 	C 	0.37050 0.13790 0.24690 0.23800
C 	C 	0.37070 0.21970 0.63520 0.21700
C 	C 	0.35790 0.16630 0.70950 -0.35100
C 	C 	0.27150 0.52490 0.26620 -0.26900
C 	C 	0.42110 0.83890 0.15440 -0.91800
C 	C 	0.28660 0.17400 0.27830 -0.29200
C 	C 	0.42930 0.12020 0.74210 0.33400
C 	C 	0.38560 0.10030 0.19770 -0.36400
C 	C 	0.27330 0.21420 0.33360 0.48700
C 	C 	0.31310 0.09630 0.17980 0.33500
C 	C 	0.40540 0.02310 0.09630 0.22000
C 	C 	0.37530 0.90920 0.96230 0.43500
C 	C 	0.37030 0.03370 0.98160 0.43500
C 	C 	0.45410 0.22710 0.59350 -0.30600
C 	C 	0.39420 0.85950 0.03250 -0.35100
C 	C 	0.36170 0.99710 0.93770 -0.35700
C 	C 	0.34250 0.05230 0.86220 0.23000
C 	C 	0.39310 0.98320 0.05110 -0.34500
C 	C 	0.40250 0.89590 0.07740 0.40600
C 	C 	0.72080 0.65290 0.20470 -0.67900
C 	C 	0.80200 0.66300 0.18570 0.65500
C 	C 	0.88690 0.83580 0.94680 -0.90800
C 	C 	0.83310 0.01920 0.89230 0.20800
C 	C 	0.88530 0.88380 0.99290 0.41200
C 	C 	0.90590 0.74880 0.10230 0.29600
C 	C 	0.86770 0.97200 0.96270 -0.33800
C 	C 	0.86220 0.11060 0.96590 -0.93200
C 	C 	0.90000 0.84110 0.06460 -0.36500
C 	C 	0.91340 0.84040 0.18540 -0.88600
C 	C 	0.87520 0.01610 0.00130 0.41600
C 	C 	0.90230 0.88560 0.10500 0.40400
C 	C 	0.89420 0.97280 0.07220 -0.34400
C 	C 	0.90390 0.01700 0.11400 0.22100
C 	C 	0.81600 0.07250 0.20960 0.36600
C 	C 	0.87590 0.08970 0.76170 0.32600
C 	C 	0.88670 0.09260 0.21440 -0.40300
C 	C 	0.73440 0.09220 0.25320 -0.39900
C 	C 	0.93520 0.13170 0.70160 -0.32900
C 	C 	0.79750 0.09150 0.75030 -0.34800
C 	C 	0.87400 0.13380 0.26030 0.27400
C 	C 	0.72220 0.13260 0.29950 0.26700
C 	C 	0.91580 0.17390 0.63360 0.20800
C 	C 	0.77800 0.13410 0.68090 0.21000
C 	C 	0.79200 0.15630 0.30300 -0.32500
C 	C 	0.83750 0.17640 0.62040 -0.26000
C 	C 	0.75740 0.51450 0.28680 -0.54900
C 	C 	0.81750 0.21690 0.54460 0.44100
C 	C 	0.73450 0.43280 0.34270 0.53300
C 	C 	0.86000 0.60040 0.21930 -0.71100
C 	C 	0.83840 0.52670 0.26990 0.56000
C 	C 	0.78030 0.20340 0.34980 0.49600
C 	C 	0.69810 0.57870 0.25430 0.54800
C 	C 	0.02800 0.36890 0.28700 0.70000
C 	C 	0.09380 0.41880 0.22880 -1.24900
C 	C 	0.17950 0.21080 0.53340 0.70100
C 	C 	0.20660 0.14110 0.60090 -1.28000
O 	O 	0.40210 0.30920 0.48150 -0.46300
O 	O 	0.54320 0.28890 0.47670 -0.48800
O 	O 	0.17560 0.43740 0.35400 -0.50600
O 	O 	0.33510 0.20070 0.36070 -0.52500
O 	O 	0.19720 0.25810 0.34740 -0.51100
O 	O 	0.32120 0.38390 0.34090 -0.49800
O 	O 	0.42620 0.06500 0.81360 -0.32000
O 	O 	0.31910 0.05870 0.13210 -0.32000
O 	O 	0.31430 0.75630 0.11300 -0.31400
O 	O 	0.90120 0.04730 0.82870 -0.31300
O 	O 	0.84790 0.22270 0.34660 -0.52400
O 	O 	0.81610 0.74060 0.13740 -0.40700
O 	O 	0.78960 0.37880 0.37940 -0.57800
O 	O 	0.87930 0.24780 0.49300 -0.50000
O 	O 	0.70740 0.21980 0.39050 -0.48200
O 	O 	0.66080 0.42230 0.35180 -0.46600
O 	O 	0.82050 0.03360 0.16400 -0.33400
O 	O 	0.74600 0.21890 0.53530 -0.49700
O 	O 	0.01880 0.35550 0.35510 -0.62800
O 	O 	0.98390 0.34170 0.26810 -0.53300
O 	O 	0.22680 0.26330 0.49250 -0.64500
O 	O 	0.10870 0.21910 0.51750 -0.53800
