data_crystal

_cell_length_a 15.15130
_cell_length_b 22.04400
_cell_length_c 22.04400
_cell_angle_alpha 90.00000
_cell_angle_beta  90.00000
_cell_angle_gamma 90.00000

_symmetry_space_group_name_	'P 1'
_symmetry_space_group_name_H-M	'P 1'

loop_
_symmetry_equiv_pos_as_xyz
  x,y,z

loop_
_atom_site_label
_atom_site_type_symbol
_atom_site_fract_x
_atom_site_fract_y
_atom_site_fract_z
_atom_site_charge
Zn	Zn	0.98571 0.50000 0.50000 1.27200
Zn	Zn	0.48711 0.50000 0.50000 1.26300
Zn	Zn	0.00054 0.00000 -0.00000 1.21700
Zn	Zn	0.50239 0.00000 -0.00000 1.23000
Si	Si	0.73710 0.50000 0.50000 3.33300
Si	Si	0.23700 0.50000 0.50000 3.94100
Si	Si	0.75200 0.00000 -0.00000 2.93600
Si	Si	0.24880 0.00000 -0.00000 3.51400
H 	H 	0.88070 0.53690 0.61080 0.05400
H 	H 	0.87850 0.61310 0.68470 0.09000
H 	H 	0.08830 0.69400 0.60430 0.09300
H 	H 	0.09050 0.61780 0.53040 0.05900
H 	H 	0.99430 0.85450 0.72750 0.05800
H 	H 	0.96910 0.64740 0.77040 0.07800
H 	H 	0.05550 0.86910 0.62470 0.09400
H 	H 	0.95120 0.87190 0.63750 0.10500
H 	H 	0.91860 0.84200 0.54530 -0.07400
H 	H 	0.93040 0.93510 0.54540 0.25000
H 	H 	0.07600 0.80400 0.50800 0.27100
H 	H 	0.98140 0.79780 0.47630 0.28600
H 	H 	0.04030 0.85690 0.46480 0.29400
H 	H 	0.01660 0.62620 0.86360 0.05300
H 	H 	0.08450 0.67180 0.89690 0.06100
H 	H 	0.91070 0.66450 0.96080 -0.00200
H 	H 	0.00480 0.58080 0.00170 0.11800
H 	H 	0.09440 0.64400 0.98950 0.16800
H 	H 	0.06830 0.71160 0.96980 0.16200
H 	H 	0.02750 0.68270 0.03020 0.08000
H 	H 	0.09570 0.88500 0.81110 0.10600
H 	H 	0.09930 0.95970 0.88700 0.06300
H 	H 	0.89460 0.88950 0.96380 0.07000
H 	H 	0.88530 0.81440 0.89340 0.12800
H 	H 	0.59470 0.53620 0.61270 0.03500
H 	H 	0.60050 0.60430 0.68740 0.11100
H 	H 	0.38760 0.68830 0.61130 0.09100
H 	H 	0.38470 0.60920 0.54300 0.03500
H 	H 	0.50410 0.73050 0.85290 0.06500
H 	H 	0.48430 0.77360 0.64540 0.06700
H 	H 	0.40450 0.61210 0.83480 0.08700
H 	H 	0.48340 0.63660 0.87690 0.07400
H 	H 	0.56050 0.54440 0.84270 -0.03000
H 	H 	0.52070 0.55470 0.94150 0.27500
H 	H 	0.46760 0.50450 0.77120 0.21100
H 	H 	0.45670 0.45980 0.82790 0.20500
H 	H 	0.38290 0.50990 0.81430 0.20800
H 	H 	0.54980 0.86450 0.63020 0.06600
H 	H 	0.44420 0.87350 0.63190 0.06500
H 	H 	0.57390 0.96470 0.66600 -0.00600
H 	H 	0.53110 0.93690 0.56680 0.24100
H 	H 	0.44880 0.98630 0.72560 0.17100
H 	H 	0.46620 0.03760 0.67560 0.09400
H 	H 	0.39010 0.98830 0.66530 0.17200
H 	H 	0.60920 0.81450 0.88140 0.09900
H 	H 	0.61010 0.88680 0.95920 0.08000
H 	H 	0.39810 0.96950 0.88340 0.08500
H 	H 	0.39730 0.89730 0.80560 0.09500
H 	H 	0.88070 0.46310 0.38920 0.05400
H 	H 	0.87850 0.38690 0.31530 0.08800
H 	H 	0.08830 0.30600 0.39570 0.09200
H 	H 	0.09050 0.38220 0.46960 0.05900
H 	H 	0.99430 0.14550 0.27250 0.05400
H 	H 	0.96910 0.35260 0.22960 0.07500
H 	H 	0.05550 0.13090 0.37530 0.08300
H 	H 	0.95120 0.12810 0.36250 0.09400
H 	H 	0.91860 0.15800 0.45470 -0.07700
H 	H 	0.93040 0.06490 0.45460 0.22800
H 	H 	0.07600 0.19600 0.49200 0.26400
H 	H 	0.98140 0.20220 0.52370 0.28200
H 	H 	0.04030 0.14310 0.53520 0.28600
H 	H 	0.01660 0.37380 0.13640 0.08400
H 	H 	0.08450 0.32820 0.10310 0.08200
H 	H 	0.91070 0.33550 0.03920 -0.14400
H 	H 	0.00480 0.41920 0.99830 0.33100
H 	H 	0.09440 0.35600 0.01050 0.32200
H 	H 	0.06830 0.28840 0.03020 0.33000
H 	H 	0.02750 0.31730 0.96980 0.38100
H 	H 	0.09570 0.11500 0.18890 0.09600
H 	H 	0.09930 0.04030 0.11300 0.00700
H 	H 	0.89460 0.11050 0.03620 0.01400
H 	H 	0.88530 0.18560 0.10660 0.11600
H 	H 	0.59470 0.46380 0.38730 0.03500
H 	H 	0.60050 0.39570 0.31260 0.10900
H 	H 	0.38760 0.31170 0.38870 0.08900
H 	H 	0.38470 0.39080 0.45700 0.03500
H 	H 	0.50410 0.26950 0.14710 0.05700
H 	H 	0.48430 0.22640 0.35460 0.06300
H 	H 	0.40450 0.38790 0.16520 0.07900
H 	H 	0.48340 0.36340 0.12310 0.06900
H 	H 	0.56050 0.45560 0.15730 -0.03500
H 	H 	0.52070 0.44530 0.05850 0.23400
H 	H 	0.46760 0.49550 0.22880 0.20600
H 	H 	0.45670 0.54020 0.17210 0.19400
H 	H 	0.38290 0.49010 0.18570 0.19700
H 	H 	0.54980 0.13550 0.36980 0.09800
H 	H 	0.44420 0.12650 0.36810 0.09700
H 	H 	0.57390 0.03530 0.33400 -0.12300
H 	H 	0.53110 0.06310 0.43320 0.26600
H 	H 	0.44880 0.01370 0.27440 0.32700
H 	H 	0.46620 0.96240 0.32440 0.39400
H 	H 	0.39010 0.01170 0.33470 0.32300
H 	H 	0.60920 0.18550 0.11860 0.08400
H 	H 	0.61010 0.11320 0.04080 0.02800
H 	H 	0.39810 0.03050 0.11660 0.02900
H 	H 	0.39730 0.10270 0.19440 0.07900
H 	H 	0.88070 0.38920 0.53690 0.05400
H 	H 	0.87850 0.31530 0.61310 0.08900
H 	H 	0.08830 0.39570 0.69400 0.09300
H 	H 	0.09050 0.46960 0.61780 0.05900
H 	H 	0.99430 0.27250 0.85450 0.05800
H 	H 	0.96910 0.22960 0.64740 0.07500
H 	H 	0.05550 0.37530 0.86910 0.09300
H 	H 	0.95120 0.36250 0.87190 0.10400
H 	H 	0.91860 0.45470 0.84200 -0.07300
H 	H 	0.93040 0.45460 0.93510 0.25000
H 	H 	0.07600 0.49200 0.80400 0.27100
H 	H 	0.98140 0.52370 0.79780 0.28600
H 	H 	0.04030 0.53520 0.85690 0.29400
H 	H 	0.01660 0.13640 0.62620 0.08300
H 	H 	0.08450 0.10310 0.67180 0.08200
H 	H 	0.91070 0.03920 0.66450 -0.14100
H 	H 	0.00480 0.99830 0.58080 0.32800
H 	H 	0.09440 0.01050 0.64400 0.31900
H 	H 	0.06830 0.03020 0.71160 0.32700
H 	H 	0.02750 0.96980 0.68270 0.37400
H 	H 	0.09570 0.18890 0.88500 0.10500
H 	H 	0.09930 0.11300 0.95970 0.05600
H 	H 	0.89460 0.03620 0.88950 0.02500
H 	H 	0.88530 0.10660 0.81440 0.11700
H 	H 	0.59470 0.38730 0.53620 0.03500
H 	H 	0.60050 0.31260 0.60430 0.10900
H 	H 	0.38760 0.38870 0.68830 0.09000
H 	H 	0.38470 0.45700 0.60920 0.03500
H 	H 	0.50410 0.14710 0.73050 0.05700
H 	H 	0.48430 0.35460 0.77360 0.06700
H 	H 	0.40450 0.16520 0.61210 0.07900
H 	H 	0.48340 0.12310 0.63660 0.06900
H 	H 	0.56050 0.15730 0.54440 -0.03500
H 	H 	0.52070 0.05850 0.55470 0.23400
H 	H 	0.46760 0.22880 0.50450 0.20600
H 	H 	0.45670 0.17210 0.45980 0.19400
H 	H 	0.38290 0.18570 0.50990 0.19700
H 	H 	0.54980 0.36980 0.86450 0.06500
H 	H 	0.44420 0.36810 0.87350 0.06400
H 	H 	0.57390 0.33400 0.96470 -0.00300
H 	H 	0.53110 0.43320 0.93690 0.24000
H 	H 	0.44880 0.27440 0.98630 0.16800
H 	H 	0.46620 0.32440 0.03760 0.08700
H 	H 	0.39010 0.33470 0.98830 0.16800
H 	H 	0.60920 0.11860 0.81450 0.08700
H 	H 	0.61010 0.04080 0.88680 0.03700
H 	H 	0.39810 0.11660 0.96950 0.07900
H 	H 	0.39730 0.19440 0.89730 0.09400
H 	H 	0.88070 0.61080 0.46310 0.05400
H 	H 	0.87850 0.68470 0.38690 0.09000
H 	H 	0.08830 0.60430 0.30600 0.09200
H 	H 	0.09050 0.53040 0.38220 0.05900
H 	H 	0.99430 0.72750 0.14550 0.05400
H 	H 	0.96910 0.77040 0.35260 0.07900
H 	H 	0.05550 0.62470 0.13090 0.08400
H 	H 	0.95120 0.63750 0.12810 0.09500
H 	H 	0.91860 0.54530 0.15800 -0.07700
H 	H 	0.93040 0.54540 0.06490 0.22800
H 	H 	0.07600 0.50800 0.19600 0.26400
H 	H 	0.98140 0.47630 0.20220 0.28200
H 	H 	0.04030 0.46480 0.14310 0.28600
H 	H 	0.01660 0.86360 0.37380 0.05200
H 	H 	0.08450 0.89690 0.32820 0.06000
H 	H 	0.91070 0.96080 0.33550 0.00000
H 	H 	0.00480 0.00170 0.41920 0.11600
H 	H 	0.09440 0.98950 0.35600 0.16400
H 	H 	0.06830 0.96980 0.28840 0.15800
H 	H 	0.02750 0.03020 0.31730 0.07300
H 	H 	0.09570 0.81110 0.11500 0.09800
H 	H 	0.09930 0.88700 0.04030 0.01900
H 	H 	0.89460 0.96380 0.11050 0.06300
H 	H 	0.88530 0.89340 0.18560 0.12700
H 	H 	0.59470 0.61270 0.46380 0.03500
H 	H 	0.60050 0.68740 0.39570 0.11100
H 	H 	0.38760 0.61130 0.31170 0.08900
H 	H 	0.38470 0.54300 0.39080 0.03500
H 	H 	0.50410 0.85290 0.26950 0.06600
H 	H 	0.48430 0.64540 0.22640 0.06300
H 	H 	0.40450 0.83480 0.38790 0.08700
H 	H 	0.48340 0.87690 0.36340 0.07400
H 	H 	0.56050 0.84270 0.45560 -0.03000
H 	H 	0.52070 0.94150 0.44530 0.27600
H 	H 	0.46760 0.77120 0.49550 0.21100
H 	H 	0.45670 0.82790 0.54020 0.20500
H 	H 	0.38290 0.81430 0.49010 0.20800
H 	H 	0.54980 0.63020 0.13550 0.09700
H 	H 	0.44420 0.63190 0.12650 0.09700
H 	H 	0.57390 0.66600 0.03530 -0.12100
H 	H 	0.53110 0.56680 0.06310 0.26600
H 	H 	0.44880 0.72560 0.01370 0.32500
H 	H 	0.46620 0.67560 0.96240 0.38700
H 	H 	0.39010 0.66530 0.01170 0.32000
H 	H 	0.60920 0.88140 0.18550 0.09600
H 	H 	0.61010 0.95920 0.11320 0.07600
H 	H 	0.39810 0.88340 0.03050 0.03900
H 	H 	0.39730 0.80560 0.10270 0.08200
C 	C 	0.92290 0.56880 0.60950 0.08800
C 	C 	0.92150 0.61410 0.65340 -0.13200
C 	C 	0.98320 0.66070 0.65150 0.11000
C 	C 	0.04620 0.66210 0.60560 -0.13800
C 	C 	0.04750 0.61690 0.56170 0.07300
C 	C 	0.98640 0.70840 0.70260 -0.02200
C 	C 	0.98700 0.76820 0.68880 0.11300
C 	C 	0.99130 0.81250 0.73670 -0.07000
C 	C 	0.99110 0.79200 0.79920 -0.07300
C 	C 	0.98110 0.72890 0.80810 0.16400
C 	C 	0.97770 0.68930 0.76210 -0.12800
C 	C 	0.99790 0.85070 0.61430 -0.24700
C 	C 	0.98100 0.85650 0.54850 0.44500
C 	C 	0.02330 0.82610 0.49470 -0.82200
C 	C 	0.02150 0.66180 0.89080 -0.08400
C 	C 	0.97250 0.65030 0.95370 0.23100
C 	C 	0.04680 0.67410 0.98870 -0.38100
C 	C 	0.99270 0.83840 0.84600 0.17000
C 	C 	0.05410 0.88390 0.84330 -0.18600
C 	C 	0.05510 0.92910 0.88870 0.13200
C 	C 	0.93750 0.88820 0.93240 0.14800
C 	C 	0.93200 0.84310 0.89100 -0.18100
C 	C 	0.55150 0.56740 0.61320 0.12200
C 	C 	0.55560 0.60730 0.65750 -0.16200
C 	C 	0.49310 0.65470 0.66040 0.11200
C 	C 	0.42970 0.65640 0.61380 -0.15600
C 	C 	0.43110 0.61020 0.57200 0.11000
C 	C 	0.49230 0.70500 0.70720 -0.03200
C 	C 	0.49820 0.69220 0.76880 0.11400
C 	C 	0.50010 0.73920 0.81080 -0.08700
C 	C 	0.49610 0.79910 0.79110 -0.04600
C 	C 	0.49020 0.81190 0.72950 0.14800
C 	C 	0.48830 0.76490 0.68760 -0.11100
C 	C 	0.46900 0.61030 0.84180 -0.16200
C 	C 	0.49670 0.54720 0.85410 0.28700
C 	C 	0.44630 0.50110 0.81300 -0.59100
C 	C 	0.50060 0.88500 0.65140 -0.11000
C 	C 	0.51310 0.95490 0.65130 0.24600
C 	C 	0.44920 0.99520 0.68210 -0.38500
C 	C 	0.50320 0.84910 0.83620 0.11200
C 	C 	0.56640 0.84600 0.88180 -0.12800
C 	C 	0.56690 0.88890 0.92800 0.09900
C 	C 	0.44100 0.93810 0.88300 0.09000
C 	C 	0.44050 0.89510 0.83680 -0.12000
C 	C 	0.92290 0.43120 0.39050 0.08700
C 	C 	0.92150 0.38590 0.34660 -0.13200
C 	C 	0.98320 0.33930 0.34850 0.11000
C 	C 	0.04620 0.33790 0.39440 -0.13900
C 	C 	0.04750 0.38310 0.43830 0.07200
C 	C 	0.98640 0.29160 0.29740 -0.02400
C 	C 	0.98700 0.23180 0.31120 0.11300
C 	C 	0.99130 0.18750 0.26330 -0.07300
C 	C 	0.99110 0.20800 0.20080 -0.08000
C 	C 	0.98110 0.27110 0.19190 0.15600
C 	C 	0.97770 0.31070 0.23790 -0.12600
C 	C 	0.99790 0.14930 0.38570 -0.23300
C 	C 	0.98100 0.14350 0.45150 0.43600
C 	C 	0.02330 0.17390 0.50530 -0.81400
C 	C 	0.02150 0.33820 0.10920 -0.19000
C 	C 	0.97250 0.34970 0.04630 0.54100
C 	C 	0.04680 0.32590 0.01130 -1.09900
C 	C 	0.99270 0.16160 0.15400 0.17000
C 	C 	0.05410 0.11610 0.15670 -0.21000
C 	C 	0.05510 0.07090 0.11130 0.11800
C 	C 	0.93750 0.11180 0.06760 0.13600
C 	C 	0.93200 0.15690 0.10900 -0.20300
C 	C 	0.55150 0.43260 0.38680 0.12100
C 	C 	0.55560 0.39270 0.34250 -0.16200
C 	C 	0.49310 0.34530 0.33960 0.11100
C 	C 	0.42970 0.34360 0.38620 -0.15500
C 	C 	0.43110 0.38980 0.42800 0.11000
C 	C 	0.49230 0.29500 0.29280 -0.03500
C 	C 	0.49820 0.30780 0.23120 0.11200
C 	C 	0.50010 0.26080 0.18920 -0.09100
C 	C 	0.49610 0.20090 0.20890 -0.04900
C 	C 	0.49020 0.18810 0.27050 0.13600
C 	C 	0.48830 0.23510 0.31240 -0.10800
C 	C 	0.46900 0.38970 0.15820 -0.15800
C 	C 	0.49670 0.45280 0.14590 0.27600
C 	C 	0.44630 0.49890 0.18700 -0.57900
C 	C 	0.50060 0.11500 0.34860 -0.24400
C 	C 	0.51310 0.04510 0.34870 0.51200
C 	C 	0.44920 0.00480 0.31790 -1.06500
C 	C 	0.50320 0.15090 0.16380 0.10200
C 	C 	0.56640 0.15400 0.11820 -0.14100
C 	C 	0.56690 0.11110 0.07200 0.07500
C 	C 	0.44100 0.06190 0.11700 0.06600
C 	C 	0.44050 0.10490 0.16320 -0.13600
C 	C 	0.92290 0.39050 0.56880 0.08700
C 	C 	0.92150 0.34660 0.61410 -0.13200
C 	C 	0.98320 0.34850 0.66070 0.11000
C 	C 	0.04620 0.39440 0.66210 -0.13900
C 	C 	0.04750 0.43830 0.61690 0.07300
C 	C 	0.98640 0.29740 0.70840 -0.02400
C 	C 	0.98700 0.31120 0.76820 0.11400
C 	C 	0.99130 0.26330 0.81250 -0.07100
C 	C 	0.99110 0.20080 0.79200 -0.07500
C 	C 	0.98110 0.19190 0.72890 0.15600
C 	C 	0.97770 0.23790 0.68930 -0.12500
C 	C 	0.99790 0.38570 0.85070 -0.24600
C 	C 	0.98100 0.45150 0.85650 0.44500
C 	C 	0.02330 0.50530 0.82610 -0.82100
C 	C 	0.02150 0.10920 0.66180 -0.18800
C 	C 	0.97250 0.04630 0.65030 0.53400
C 	C 	0.04680 0.01130 0.67410 -1.08400
C 	C 	0.99270 0.15400 0.83840 0.16800
C 	C 	0.05410 0.15670 0.88390 -0.19400
C 	C 	0.05510 0.11130 0.92910 0.12500
C 	C 	0.93750 0.06760 0.88820 0.14200
C 	C 	0.93200 0.10900 0.84310 -0.19400
C 	C 	0.55150 0.38680 0.56740 0.12100
C 	C 	0.55560 0.34250 0.60730 -0.16100
C 	C 	0.49310 0.33960 0.65470 0.11100
C 	C 	0.42970 0.38620 0.65640 -0.15500
C 	C 	0.43110 0.42800 0.61020 0.11000
C 	C 	0.49230 0.29280 0.70500 -0.03200
C 	C 	0.49820 0.23120 0.69220 0.11100
C 	C 	0.50010 0.18920 0.73920 -0.08800
C 	C 	0.49610 0.20890 0.79910 -0.05100
C 	C 	0.49020 0.27050 0.81190 0.14900
C 	C 	0.48830 0.31240 0.76490 -0.11300
C 	C 	0.46900 0.15820 0.61030 -0.15800
C 	C 	0.49670 0.14590 0.54720 0.27600
C 	C 	0.44630 0.18700 0.50110 -0.57900
C 	C 	0.50060 0.34860 0.88500 -0.10600
C 	C 	0.51310 0.34870 0.95490 0.23900
C 	C 	0.44920 0.31790 0.99520 -0.36900
C 	C 	0.50320 0.16380 0.84910 0.10900
C 	C 	0.56640 0.11820 0.84600 -0.13700
C 	C 	0.56690 0.07200 0.88890 0.08700
C 	C 	0.44100 0.11700 0.93810 0.08100
C 	C 	0.44050 0.16320 0.89510 -0.12400
C 	C 	0.92290 0.60950 0.43120 0.08700
C 	C 	0.92150 0.65340 0.38590 -0.13200
C 	C 	0.98320 0.65150 0.33930 0.11000
C 	C 	0.04620 0.60560 0.33790 -0.13900
C 	C 	0.04750 0.56170 0.38310 0.07300
C 	C 	0.98640 0.70260 0.29160 -0.02200
C 	C 	0.98700 0.68880 0.23180 0.11200
C 	C 	0.99130 0.73670 0.18750 -0.07300
C 	C 	0.99110 0.79920 0.20800 -0.07700
C 	C 	0.98110 0.80810 0.27110 0.16500
C 	C 	0.97770 0.76210 0.31070 -0.12900
C 	C 	0.99790 0.61430 0.14930 -0.23400
C 	C 	0.98100 0.54850 0.14350 0.43700
C 	C 	0.02330 0.49470 0.17390 -0.81400
C 	C 	0.02150 0.89080 0.33820 -0.08300
C 	C 	0.97250 0.95370 0.34970 0.22600
C 	C 	0.04680 0.98870 0.32590 -0.36500
C 	C 	0.99270 0.84600 0.16160 0.17200
C 	C 	0.05410 0.84330 0.11610 -0.20100
C 	C 	0.05510 0.88870 0.07090 0.12600
C 	C 	0.93750 0.93240 0.11180 0.14200
C 	C 	0.93200 0.89100 0.15690 -0.18800
C 	C 	0.55150 0.61320 0.43260 0.12200
C 	C 	0.55560 0.65750 0.39270 -0.16300
C 	C 	0.49310 0.66040 0.34530 0.11200
C 	C 	0.42970 0.61380 0.34360 -0.15600
C 	C 	0.43110 0.57200 0.38980 0.11000
C 	C 	0.49230 0.70720 0.29500 -0.03600
C 	C 	0.49820 0.76880 0.30780 0.11600
C 	C 	0.50010 0.81080 0.26080 -0.09100
C 	C 	0.49610 0.79110 0.20090 -0.04400
C 	C 	0.49020 0.72950 0.18810 0.13500
C 	C 	0.48830 0.68760 0.23510 -0.10600
C 	C 	0.46900 0.84180 0.38970 -0.16100
C 	C 	0.49670 0.85410 0.45280 0.28700
C 	C 	0.44630 0.81300 0.49890 -0.59100
C 	C 	0.50060 0.65140 0.11500 -0.24200
C 	C 	0.51310 0.65130 0.04510 0.50700
C 	C 	0.44920 0.68210 0.00480 -1.05200
C 	C 	0.50320 0.83620 0.15090 0.10500
C 	C 	0.56640 0.88180 0.15400 -0.13000
C 	C 	0.56690 0.92800 0.11110 0.08800
C 	C 	0.44100 0.88300 0.06190 0.07700
C 	C 	0.44050 0.83680 0.10490 -0.13000
N 	N 	0.98580 0.57021 0.56367 -0.20400
N 	N 	0.99920 0.93040 0.93180 -0.19100
N 	N 	0.49080 0.56730 0.56850 -0.23100
N 	N 	0.50420 0.93490 0.92860 -0.16800
N 	N 	0.98580 0.42979 0.43633 -0.20400
N 	N 	0.99920 0.06960 0.06820 -0.24500
N 	N 	0.49080 0.43270 0.43150 -0.23100
N 	N 	0.50420 0.06510 0.07140 -0.22400
N 	N 	0.98580 0.43633 0.57021 -0.20400
N 	N 	0.99920 0.06820 0.93040 -0.21600
N 	N 	0.49080 0.43150 0.56730 -0.23100
N 	N 	0.50420 0.07140 0.93490 -0.19400
N 	N 	0.98580 0.56367 0.42979 -0.20400
N 	N 	0.99920 0.93180 0.06960 -0.21600
N 	N 	0.49080 0.56850 0.43270 -0.23200
N 	N 	0.50420 0.92860 0.06510 -0.19400
O 	O 	0.99820 0.78450 0.62940 -0.16000
O 	O 	0.97350 0.91850 0.52810 -0.42600
O 	O 	0.97250 0.71300 0.86790 -0.19300
O 	O 	0.99900 0.58680 0.96420 -0.25600
O 	O 	0.51720 0.63150 0.78690 -0.17200
O 	O 	0.49060 0.53020 0.92090 -0.38600
O 	O 	0.50000 0.87010 0.71450 -0.19400
O 	O 	0.50860 0.96630 0.58550 -0.35900
O 	O 	0.99820 0.21550 0.37060 -0.16400
O 	O 	0.97350 0.08150 0.47190 -0.43000
O 	O 	0.97250 0.28700 0.13210 -0.18800
O 	O 	0.99900 0.41320 0.03580 -0.52600
O 	O 	0.51720 0.36850 0.21310 -0.17600
O 	O 	0.49060 0.46980 0.07910 -0.40200
O 	O 	0.50000 0.12990 0.28550 -0.17900
O 	O 	0.50860 0.03370 0.41450 -0.49000
O 	O 	0.99820 0.37060 0.78450 -0.16000
O 	O 	0.97350 0.47190 0.91850 -0.42600
O 	O 	0.97250 0.13210 0.71300 -0.18700
O 	O 	0.99900 0.03580 0.58680 -0.52200
O 	O 	0.51720 0.21310 0.63150 -0.17500
O 	O 	0.49060 0.07910 0.53020 -0.40300
O 	O 	0.50000 0.28550 0.87010 -0.19500
O 	O 	0.50860 0.41450 0.96630 -0.35600
O 	O 	0.99820 0.62940 0.21550 -0.16400
O 	O 	0.97350 0.52810 0.08150 -0.43000
O 	O 	0.97250 0.86790 0.28700 -0.19300
O 	O 	0.99900 0.96420 0.41320 -0.25200
O 	O 	0.51720 0.78690 0.36850 -0.17200
O 	O 	0.49060 0.92090 0.46980 -0.38600
O 	O 	0.50000 0.71450 0.12990 -0.17800
O 	O 	0.50860 0.58550 0.03370 -0.48800
F 	F 	0.74050 0.48310 0.57346 -0.79200
F 	F 	0.23200 0.42730 0.50260 -0.92400
F 	F 	0.75330 0.07321 0.98097 -0.68400
F 	F 	0.25150 0.92770 0.99050 -0.76900
F 	F 	0.74050 0.51690 0.42654 -0.79200
F 	F 	0.23200 0.57270 0.49740 -0.92300
F 	F 	0.75330 0.92679 0.01903 -0.72500
F 	F 	0.25150 0.07230 0.00950 -0.89300
F 	F 	0.74050 0.42654 0.48310 -0.79200
F 	F 	0.23200 0.49740 0.42730 -0.92400
F 	F 	0.75330 0.01903 0.07321 -0.76600
F 	F 	0.25150 0.00950 0.92770 -0.84800
F 	F 	0.74050 0.57346 0.51690 -0.79200
F 	F 	0.23200 0.50260 0.57270 -0.92300
F 	F 	0.75330 0.98097 0.92679 -0.65300
F 	F 	0.25150 0.99050 0.07230 -0.80300
F 	F 	0.12260 0.50000 0.50000 -0.92100
F 	F 	0.85090 0.50000 0.50000 -0.88000
F 	F 	0.62400 0.50000 0.50000 -0.90500
F 	F 	0.34720 0.50000 0.50000 -1.00700
F 	F 	0.86110 0.00000 -0.00000 -0.93700
F 	F 	0.63360 0.00000 -0.00000 -0.88400
F 	F 	0.36690 0.00000 -0.00000 -0.91500
F 	F 	0.14210 0.00000 -0.00000 -1.04400
