data_crystal

_cell_length_a 20.53080
_cell_length_b 9.17090
_cell_length_c 6.88010
_cell_angle_alpha 90.00000
_cell_angle_beta  113.07200
_cell_angle_gamma 90.00000

_symmetry_space_group_name_	'P 1'
_symmetry_space_group_name_H-M	'P 1'

loop_
_symmetry_equiv_pos_as_xyz
  x,y,z

loop_
_atom_site_label
_atom_site_type_symbol
_atom_site_fract_x
_atom_site_fract_y
_atom_site_fract_z
_atom_site_charge
Fe	Fe	0.00540 0.00380 0.95400 1.22800
O 	O 	0.07140 0.12530 0.62410 -0.45900
O 	O 	0.08850 0.09730 0.95810 -0.45900
O 	O 	0.42010 0.36150 0.92670 -0.40600
O 	O 	0.43720 0.33350 0.26070 -0.37600
C 	C 	0.18580 0.18300 0.88290 -0.21900
C 	C 	0.21180 0.21500 0.73250 0.09900
C 	C 	0.28030 0.26140 0.79200 -0.14500
C 	C 	0.32280 0.27580 0.00190 0.03600
C 	C 	0.29680 0.24380 0.15230 -0.11200
C 	C 	0.22830 0.19740 0.09280 0.14000
C 	C 	0.11170 0.13280 0.81870 0.43500
C 	C 	0.39690 0.32600 0.06610 0.35800
H 	H 	0.18140 0.20470 0.58230 0.02300
H 	H 	0.29900 0.28430 0.68430 0.08700
H 	H 	0.32720 0.25410 0.30250 0.08300
H 	H 	0.20960 0.17450 0.20050 0.01500
O 	O 	0.00670 0.90110 0.69600 -0.47800
Fe	Fe	0.50540 0.50380 0.95400 1.26000
O 	O 	0.57140 0.62530 0.62410 -0.44600
O 	O 	0.58850 0.59730 0.95810 -0.45000
O 	O 	0.92010 0.86150 0.92670 -0.36000
O 	O 	0.93720 0.83350 0.26070 -0.32500
C 	C 	0.68580 0.68300 0.88290 -0.21000
C 	C 	0.71180 0.71500 0.73250 0.09800
C 	C 	0.78030 0.76140 0.79200 -0.14100
C 	C 	0.82280 0.77580 0.00190 0.04200
C 	C 	0.79680 0.74380 0.15230 -0.11100
C 	C 	0.72830 0.69740 0.09280 0.13500
C 	C 	0.61170 0.63280 0.81870 0.43500
C 	C 	0.89690 0.82600 0.06610 0.34500
H 	H 	0.68140 0.70470 0.58230 0.02600
H 	H 	0.79900 0.78430 0.68430 0.09100
H 	H 	0.82720 0.75410 0.30250 0.09000
H 	H 	0.70960 0.67450 0.20050 0.01700
O 	O 	0.50670 0.40110 0.69600 -0.43700
Fe	Fe	0.00540 0.99620 0.45400 1.24500
O 	O 	0.07140 0.87470 0.12410 -0.42800
O 	O 	0.08850 0.90270 0.45810 -0.42900
O 	O 	0.42010 0.63850 0.42670 -0.37000
O 	O 	0.43720 0.66650 0.76070 -0.38600
C 	C 	0.18580 0.81700 0.38290 -0.09100
C 	C 	0.21180 0.78500 0.23250 0.00000
C 	C 	0.28030 0.73860 0.29200 -0.01300
C 	C 	0.32280 0.72420 0.50190 -0.07500
C 	C 	0.29680 0.75620 0.65230 -0.01800
C 	C 	0.22830 0.80260 0.59280 -0.00100
C 	C 	0.11170 0.86720 0.31870 0.39400
C 	C 	0.39690 0.67400 0.56610 0.34500
H 	H 	0.18140 0.79530 0.08230 0.06400
H 	H 	0.29900 0.71570 0.18430 0.05900
H 	H 	0.32720 0.74590 0.80250 0.04400
H 	H 	0.20960 0.82550 0.70050 0.04100
O 	O 	0.00670 0.09890 0.19600 -0.44600
Fe	Fe	0.50540 0.49620 0.45400 1.27800
O 	O 	0.57140 0.37470 0.12410 -0.41300
O 	O 	0.58850 0.40270 0.45810 -0.42000
O 	O 	0.92010 0.13850 0.42670 -0.32300
O 	O 	0.93720 0.16650 0.76070 -0.33400
C 	C 	0.68580 0.31700 0.38290 -0.09200
C 	C 	0.71180 0.28500 0.23250 0.00800
C 	C 	0.78030 0.23860 0.29200 -0.01900
C 	C 	0.82280 0.22420 0.50190 -0.05700
C 	C 	0.79680 0.25620 0.65230 -0.02500
C 	C 	0.72830 0.30260 0.59280 0.00700
C 	C 	0.61170 0.36720 0.31870 0.39700
C 	C 	0.89690 0.17400 0.56610 0.33300
H 	H 	0.68140 0.29530 0.08230 0.06500
H 	H 	0.79900 0.21570 0.18430 0.06700
H 	H 	0.82720 0.24590 0.80250 0.05300
H 	H 	0.70960 0.32550 0.70050 0.04100
O 	O 	0.50670 0.59890 0.19600 -0.41000
