data_crystal

_cell_length_a 31.72230
_cell_length_b 28.92340
_cell_length_c 6.89650
_cell_angle_alpha 90.00000
_cell_angle_beta  90.00000
_cell_angle_gamma 90.00000

_symmetry_space_group_name_	'P 1'
_symmetry_space_group_name_H-M	'P 1'

loop_
_symmetry_equiv_pos_as_xyz
  x,y,z

loop_
_atom_site_label
_atom_site_type_symbol
_atom_site_fract_x
_atom_site_fract_y
_atom_site_fract_z
_atom_site_charge
O 	O 	0.54140 0.95190 0.07400 -0.41300
O 	O 	0.54320 0.95380 0.39270 -0.37600
O 	O 	0.70490 0.79180 0.07160 -0.44200
O 	O 	0.70240 0.78860 0.39000 -0.39400
C 	C 	0.59120 0.90360 0.23260 -0.05000
C 	C 	0.60710 0.88780 0.06020 -0.10600
C 	C 	0.63890 0.85570 0.05960 -0.09900
C 	C 	0.65480 0.83950 0.23160 -0.06200
C 	C 	0.63890 0.85530 0.40400 -0.00800
C 	C 	0.60700 0.88740 0.40450 -0.01600
C 	C 	0.55710 0.93800 0.23310 0.35300
C 	C 	0.68890 0.80510 0.23100 0.36300
H 	H 	0.59570 0.89940 0.93730 0.14300
H 	H 	0.65030 0.84440 0.93640 0.13900
H 	H 	0.65020 0.84370 0.52690 0.06000
H 	H 	0.59570 0.89870 0.52780 0.06500
O 	O 	0.04140 0.45190 0.07400 -0.43900
O 	O 	0.04320 0.45380 0.39270 -0.40200
O 	O 	0.20490 0.29180 0.07160 -0.44300
O 	O 	0.20240 0.28860 0.39000 -0.39400
C 	C 	0.09120 0.40360 0.23260 -0.06000
C 	C 	0.10710 0.38780 0.06020 -0.10400
C 	C 	0.13890 0.35570 0.05960 -0.10400
C 	C 	0.15480 0.33950 0.23160 -0.06000
C 	C 	0.13890 0.35530 0.40400 -0.01400
C 	C 	0.10700 0.38740 0.40450 -0.01500
C 	C 	0.05710 0.43800 0.23310 0.35600
C 	C 	0.18890 0.30510 0.23100 0.36100
H 	H 	0.09570 0.39940 0.93730 0.13700
H 	H 	0.15030 0.34440 0.93640 0.13900
H 	H 	0.15020 0.34370 0.52690 0.05900
H 	H 	0.09570 0.39870 0.52780 0.05900
O 	O 	0.45860 0.54810 0.57400 -0.40700
O 	O 	0.45680 0.54620 0.89270 -0.36000
O 	O 	0.29510 0.70820 0.57160 -0.41300
O 	O 	0.29760 0.71140 0.89000 -0.35400
C 	C 	0.40880 0.59640 0.73260 -0.11000
C 	C 	0.39290 0.61220 0.56020 0.00100
C 	C 	0.36110 0.64430 0.55960 0.00200
C 	C 	0.34520 0.66050 0.73160 -0.11100
C 	C 	0.36110 0.64470 0.90400 0.09200
C 	C 	0.39300 0.61260 0.90450 0.09200
C 	C 	0.44290 0.56200 0.73310 0.38400
C 	C 	0.31110 0.69490 0.73100 0.38700
H 	H 	0.40430 0.60060 0.43730 0.04600
H 	H 	0.34970 0.65560 0.43640 0.04600
H 	H 	0.34980 0.65630 0.02690 -0.03300
H 	H 	0.40430 0.60130 0.02780 -0.03300
O 	O 	0.95860 0.04810 0.57400 -0.40100
O 	O 	0.95680 0.04620 0.89270 -0.35600
O 	O 	0.79510 0.20820 0.57160 -0.41400
O 	O 	0.79760 0.21140 0.89000 -0.35400
C 	C 	0.90880 0.09640 0.73260 -0.10800
C 	C 	0.89290 0.11220 0.56020 -0.00200
C 	C 	0.86110 0.14430 0.55960 0.00200
C 	C 	0.84520 0.16050 0.73160 -0.11200
C 	C 	0.86110 0.14470 0.90400 0.09300
C 	C 	0.89300 0.11260 0.90450 0.08900
C 	C 	0.94290 0.06200 0.73310 0.37800
C 	C 	0.81110 0.19490 0.73100 0.38700
H 	H 	0.90430 0.10060 0.43730 0.04600
H 	H 	0.84970 0.15560 0.43640 0.04500
H 	H 	0.84980 0.15630 0.02690 -0.03400
H 	H 	0.90430 0.10130 0.02780 -0.03300
O 	O 	0.45860 0.45190 0.42600 -0.40000
O 	O 	0.45680 0.45380 0.10730 -0.43000
O 	O 	0.29510 0.29180 0.42840 -0.40600
O 	O 	0.29760 0.28860 0.11000 -0.42600
C 	C 	0.40880 0.40360 0.26740 -0.05700
C 	C 	0.39290 0.38780 0.43980 -0.01400
C 	C 	0.36110 0.35570 0.44040 -0.01200
C 	C 	0.34520 0.33950 0.26840 -0.05900
C 	C 	0.36110 0.35530 0.09600 -0.10300
C 	C 	0.39300 0.38740 0.09550 -0.10500
C 	C 	0.44290 0.43800 0.26690 0.35700
C 	C 	0.31110 0.30510 0.26900 0.36100
H 	H 	0.40430 0.39940 0.56270 0.06200
H 	H 	0.34970 0.34440 0.56360 0.06200
H 	H 	0.34980 0.34370 0.97310 0.13800
H 	H 	0.40430 0.39870 0.97220 0.13900
O 	O 	0.95860 0.95190 0.42600 -0.36200
O 	O 	0.95680 0.95380 0.10730 -0.39100
O 	O 	0.79510 0.79180 0.42840 -0.40500
O 	O 	0.79760 0.78860 0.11000 -0.42500
C 	C 	0.90880 0.90360 0.26740 -0.04200
C 	C 	0.89290 0.88780 0.43980 -0.01800
C 	C 	0.86110 0.85570 0.44040 -0.00400
C 	C 	0.84520 0.83950 0.26840 -0.06100
C 	C 	0.86110 0.85530 0.09600 -0.09400
C 	C 	0.89300 0.88740 0.09550 -0.10800
C 	C 	0.94290 0.93800 0.26690 0.34900
C 	C 	0.81110 0.80510 0.26900 0.36400
H 	H 	0.90430 0.89940 0.56270 0.06900
H 	H 	0.84970 0.84440 0.56360 0.06200
H 	H 	0.84980 0.84370 0.97310 0.13800
H 	H 	0.90430 0.89870 0.97220 0.14600
O 	O 	0.54140 0.04810 0.92600 -0.36900
O 	O 	0.54320 0.04620 0.60730 -0.41500
O 	O 	0.70490 0.20820 0.92840 -0.36400
O 	O 	0.70240 0.21140 0.61000 -0.39900
C 	C 	0.59120 0.09640 0.76740 -0.11400
C 	C 	0.60710 0.11220 0.93980 0.09200
C 	C 	0.63890 0.14430 0.94040 0.09000
C 	C 	0.65480 0.16050 0.76840 -0.11000
C 	C 	0.63890 0.14470 0.59600 -0.00100
C 	C 	0.60700 0.11260 0.59550 0.00100
C 	C 	0.55710 0.06200 0.76690 0.38200
C 	C 	0.68890 0.19490 0.76900 0.38500
H 	H 	0.59570 0.10060 0.06270 -0.03600
H 	H 	0.65030 0.15560 0.06360 -0.03300
H 	H 	0.65020 0.15630 0.47310 0.04400
H 	H 	0.59570 0.10130 0.47220 0.04200
O 	O 	0.04140 0.54810 0.92600 -0.36400
O 	O 	0.04320 0.54620 0.60730 -0.40700
O 	O 	0.20490 0.70820 0.92840 -0.36400
O 	O 	0.20240 0.71140 0.61000 -0.39900
C 	C 	0.09120 0.59640 0.76740 -0.11000
C 	C 	0.10710 0.61220 0.93980 0.09100
C 	C 	0.13890 0.64430 0.94040 0.09200
C 	C 	0.15480 0.66050 0.76840 -0.11000
C 	C 	0.13890 0.64470 0.59600 0.00100
C 	C 	0.10700 0.61260 0.59550 0.00000
C 	C 	0.05710 0.56200 0.76690 0.38200
C 	C 	0.18890 0.69490 0.76900 0.38600
H 	H 	0.09570 0.60060 0.06270 -0.03300
H 	H 	0.15030 0.65560 0.06360 -0.03200
H 	H 	0.15020 0.65630 0.47310 0.04500
H 	H 	0.09570 0.60130 0.47220 0.04400
O 	O 	0.45860 0.04810 0.92600 -0.36900
O 	O 	0.45680 0.04620 0.60730 -0.41500
O 	O 	0.29510 0.20820 0.92840 -0.36400
O 	O 	0.29760 0.21140 0.61000 -0.39900
C 	C 	0.40880 0.09640 0.76740 -0.11400
C 	C 	0.39290 0.11220 0.93980 0.09200
C 	C 	0.36110 0.14430 0.94040 0.09000
C 	C 	0.34520 0.16050 0.76840 -0.11000
C 	C 	0.36110 0.14470 0.59600 -0.00100
C 	C 	0.39300 0.11260 0.59550 0.00100
C 	C 	0.44290 0.06200 0.76690 0.38200
C 	C 	0.31110 0.19490 0.76900 0.38500
H 	H 	0.40430 0.10060 0.06270 -0.03600
H 	H 	0.34970 0.15560 0.06360 -0.03300
H 	H 	0.34980 0.15630 0.47310 0.04400
H 	H 	0.40430 0.10130 0.47220 0.04200
O 	O 	0.95860 0.54810 0.92600 -0.34400
O 	O 	0.95680 0.54620 0.60730 -0.38800
O 	O 	0.79510 0.70820 0.92840 -0.36300
O 	O 	0.79760 0.71140 0.61000 -0.39800
C 	C 	0.90880 0.59640 0.76740 -0.10200
C 	C 	0.89290 0.61220 0.93980 0.08900
C 	C 	0.86110 0.64430 0.94040 0.09600
C 	C 	0.84520 0.66050 0.76840 -0.11100
C 	C 	0.86110 0.64470 0.59600 0.00500
C 	C 	0.89300 0.61260 0.59550 -0.00200
C 	C 	0.94290 0.56200 0.76690 0.37900
C 	C 	0.81110 0.69490 0.76900 0.38800
H 	H 	0.90430 0.60060 0.06270 -0.02800
H 	H 	0.84970 0.65560 0.06360 -0.03100
H 	H 	0.84980 0.65630 0.47310 0.04500
H 	H 	0.90430 0.60130 0.47220 0.04900
O 	O 	0.54140 0.45190 0.42600 -0.40000
O 	O 	0.54320 0.45380 0.10730 -0.43000
O 	O 	0.70490 0.29180 0.42840 -0.40600
O 	O 	0.70240 0.28860 0.11000 -0.42600
C 	C 	0.59120 0.40360 0.26740 -0.05700
C 	C 	0.60710 0.38780 0.43980 -0.01400
C 	C 	0.63890 0.35570 0.44040 -0.01200
C 	C 	0.65480 0.33950 0.26840 -0.05900
C 	C 	0.63890 0.35530 0.09600 -0.10300
C 	C 	0.60700 0.38740 0.09550 -0.10500
C 	C 	0.55710 0.43800 0.26690 0.35700
C 	C 	0.68890 0.30510 0.26900 0.36100
H 	H 	0.59570 0.39940 0.56270 0.06200
H 	H 	0.65030 0.34440 0.56360 0.06200
H 	H 	0.65020 0.34370 0.97310 0.13800
H 	H 	0.59570 0.39870 0.97220 0.13900
O 	O 	0.04140 0.95190 0.42600 -0.38200
O 	O 	0.04320 0.95380 0.10730 -0.41000
O 	O 	0.20490 0.79180 0.42840 -0.40600
O 	O 	0.20240 0.78860 0.11000 -0.42600
C 	C 	0.09120 0.90360 0.26740 -0.04900
C 	C 	0.10710 0.88780 0.43980 -0.01600
C 	C 	0.13890 0.85570 0.44040 -0.00800
C 	C 	0.15480 0.83950 0.26840 -0.06000
C 	C 	0.13890 0.85530 0.09600 -0.09900
C 	C 	0.10700 0.88740 0.09550 -0.10700
C 	C 	0.05710 0.93800 0.26690 0.35100
C 	C 	0.18890 0.80510 0.26900 0.36300
H 	H 	0.09570 0.89940 0.56270 0.06500
H 	H 	0.15030 0.84440 0.56360 0.06200
H 	H 	0.15020 0.84370 0.97310 0.13800
H 	H 	0.09570 0.89870 0.97220 0.14200
O 	O 	0.54140 0.54810 0.57400 -0.40700
O 	O 	0.54320 0.54620 0.89270 -0.36000
O 	O 	0.70490 0.70820 0.57160 -0.41300
O 	O 	0.70240 0.71140 0.89000 -0.35400
C 	C 	0.59120 0.59640 0.73260 -0.11000
C 	C 	0.60710 0.61220 0.56020 0.00100
C 	C 	0.63890 0.64430 0.55960 0.00200
C 	C 	0.65480 0.66050 0.73160 -0.11100
C 	C 	0.63890 0.64470 0.90400 0.09200
C 	C 	0.60700 0.61260 0.90450 0.09200
C 	C 	0.55710 0.56200 0.73310 0.38400
C 	C 	0.68890 0.69490 0.73100 0.38700
H 	H 	0.59570 0.60060 0.43730 0.04600
H 	H 	0.65030 0.65560 0.43640 0.04600
H 	H 	0.65020 0.65630 0.02690 -0.03300
H 	H 	0.59570 0.60130 0.02780 -0.03300
O 	O 	0.04140 0.04810 0.57400 -0.42100
O 	O 	0.04320 0.04620 0.89270 -0.37500
O 	O 	0.20490 0.20820 0.57160 -0.41400
O 	O 	0.20240 0.21140 0.89000 -0.35500
C 	C 	0.09120 0.09640 0.73260 -0.11700
C 	C 	0.10710 0.11220 0.56020 0.00000
C 	C 	0.13890 0.14430 0.55960 -0.00200
C 	C 	0.15480 0.16050 0.73160 -0.11100
C 	C 	0.13890 0.14470 0.90400 0.08900
C 	C 	0.10700 0.11260 0.90450 0.09200
C 	C 	0.05710 0.06200 0.73310 0.38100
C 	C 	0.18890 0.19490 0.73100 0.38500
H 	H 	0.09570 0.10060 0.43730 0.04100
H 	H 	0.15030 0.15560 0.43640 0.04500
H 	H 	0.15020 0.15630 0.02690 -0.03500
H 	H 	0.09570 0.10130 0.02780 -0.03900
O 	O 	0.45860 0.95190 0.07400 -0.41200
O 	O 	0.45680 0.95380 0.39270 -0.37500
O 	O 	0.29510 0.79180 0.07160 -0.44100
O 	O 	0.29760 0.78860 0.39000 -0.39300
C 	C 	0.40880 0.90360 0.23260 -0.04900
C 	C 	0.39290 0.88780 0.06020 -0.10500
C 	C 	0.36110 0.85570 0.05960 -0.09800
C 	C 	0.34520 0.83950 0.23160 -0.06100
C 	C 	0.36110 0.85530 0.40400 -0.00800
C 	C 	0.39300 0.88740 0.40450 -0.01600
C 	C 	0.44290 0.93800 0.23310 0.35300
C 	C 	0.31110 0.80510 0.23100 0.36300
H 	H 	0.40430 0.89940 0.93730 0.14300
H 	H 	0.34970 0.84440 0.93640 0.13900
H 	H 	0.34980 0.84370 0.52690 0.06000
H 	H 	0.40430 0.89870 0.52780 0.06500
O 	O 	0.95860 0.45190 0.07400 -0.41900
O 	O 	0.95680 0.45380 0.39270 -0.38300
O 	O 	0.79510 0.29180 0.07160 -0.44200
O 	O 	0.79760 0.28860 0.39000 -0.39300
C 	C 	0.90880 0.40360 0.23260 -0.05200
C 	C 	0.89290 0.38780 0.06020 -0.10600
C 	C 	0.86110 0.35570 0.05960 -0.10000
C 	C 	0.84520 0.33950 0.23160 -0.06100
C 	C 	0.86110 0.35530 0.40400 -0.00900
C 	C 	0.89300 0.38740 0.40450 -0.01600
C 	C 	0.94290 0.43800 0.23310 0.35400
C 	C 	0.81110 0.30510 0.23100 0.36200
H 	H 	0.90430 0.39940 0.93730 0.14200
H 	H 	0.84970 0.34440 0.93640 0.13900
H 	H 	0.84980 0.34370 0.52690 0.06000
H 	H 	0.90430 0.39870 0.52780 0.06400
Fe	Fe	0.75000 0.75000 -0.00000 1.23800
Fe	Fe	0.25000 0.75000 0.50000 1.28300
Fe	Fe	0.25000 0.25000 0.50000 1.28300
Fe	Fe	0.75000 0.25000 -0.00000 1.23800
Fe	Fe	0.25000 0.25000 -0.00000 1.23800
Fe	Fe	0.75000 0.25000 0.50000 1.28300
Fe	Fe	0.75000 0.75000 0.50000 1.28300
Fe	Fe	0.25000 0.75000 -0.00000 1.23800
O 	O 	0.75000 0.72090 0.25000 -0.45500
O 	O 	0.25000 0.77910 0.75000 -0.40500
O 	O 	0.25000 0.22090 0.25000 -0.45700
O 	O 	0.75000 0.27910 0.75000 -0.40700
O 	O 	0.25000 0.27910 0.75000 -0.40700
O 	O 	0.75000 0.22090 0.25000 -0.45700
O 	O 	0.75000 0.77910 0.75000 -0.40500
O 	O 	0.25000 0.72090 0.25000 -0.45500
Fe	Fe	0.50000 0.00000 -0.00000 1.18200
Fe	Fe	-0.00000 0.50000 -0.00000 1.20300
Fe	Fe	0.50000 0.50000 0.50000 1.25900
Fe	Fe	0.00000 0.00000 0.50000 1.21700
O 	O 	0.50000 0.96370 0.75000 -0.33400
O 	O 	-0.00000 0.46370 0.75000 -0.37900
O 	O 	0.50000 0.53630 0.25000 -0.41700
O 	O 	0.00000 0.03630 0.25000 -0.44400
O 	O 	0.50000 0.46370 0.75000 -0.36800
O 	O 	-0.00000 0.96370 0.75000 -0.35000
O 	O 	0.50000 0.03630 0.25000 -0.43400
O 	O 	0.00000 0.53630 0.25000 -0.43400
Fe	Fe	0.50000 0.00000 0.50000 1.21000
Fe	Fe	-0.00000 0.50000 0.50000 1.23000
Fe	Fe	0.50000 0.50000 -0.00000 1.19600
Fe	Fe	-0.00000 0.00000 -0.00000 1.15500
