data_crystal

_cell_length_a 10.54900
_cell_length_b 10.84200
_cell_length_c 13.80000
_cell_angle_alpha 87.13500
_cell_angle_beta  72.42800
_cell_angle_gamma 66.41200

_symmetry_space_group_name_	'P 1'
_symmetry_space_group_name_H-M	'P 1'

loop_
_symmetry_equiv_pos_as_xyz
  x,y,z

loop_
_atom_site_label
_atom_site_type_symbol
_atom_site_fract_x
_atom_site_fract_y
_atom_site_fract_z
_atom_site_charge
Co	Co	0.50362 0.31822 0.15793 1.11400
Co	Co	0.49638 0.68178 0.84207 1.11400
Mo	Mo	0.97495 0.49860 0.13399 1.13200
Mo	Mo	0.67558 0.79088 0.13127 1.05300
Mo	Mo	0.98996 0.77085 0.98250 1.02300
Mo	Mo	0.71856 0.51632 0.01517 1.21700
Mo	Mo	0.02505 0.50140 0.86601 1.13200
Mo	Mo	0.32442 0.20912 0.86873 1.05300
Mo	Mo	0.01004 0.22915 0.01750 1.02300
Mo	Mo	0.28144 0.48368 0.98483 1.21700
H 	H 	0.49860 0.58640 0.27420 0.00100
H 	H 	0.31800 0.74520 0.48550 0.06900
H 	H 	0.35470 0.82080 0.38810 0.05400
H 	H 	0.99320 0.22880 0.32620 0.04400
H 	H 	0.85410 0.30610 0.41810 0.06500
H 	H 	0.73430 0.04030 0.20140 -0.03800
H 	H 	0.67700 0.39150 0.30370 -0.00400
H 	H 	0.13230 0.02650 0.24900 0.00400
H 	H 	0.26130 0.90700 0.27330 0.02200
H 	H 	0.31740 0.13860 0.14780 -0.08800
H 	H 	0.40350 0.22430 0.38180 -0.00800
H 	H 	0.50140 0.41360 0.72580 0.00100
H 	H 	0.68200 0.25480 0.51450 0.06900
H 	H 	0.64530 0.17920 0.61190 0.05400
H 	H 	0.00680 0.77120 0.67380 0.04400
H 	H 	0.14590 0.69390 0.58190 0.06500
H 	H 	0.26570 0.95970 0.79860 -0.03800
H 	H 	0.32300 0.60850 0.69630 -0.00400
H 	H 	0.86770 0.97350 0.75100 0.00400
H 	H 	0.73870 0.09300 0.72670 0.02200
H 	H 	0.68260 0.86140 0.85220 -0.08800
H 	H 	0.59650 0.77570 0.61820 -0.00800
C 	C 	0.40660 0.58510 0.29470 0.08900
C 	C 	0.23250 0.52880 0.31670 0.05400
C 	C 	0.28760 0.78280 0.42700 -0.09300
C 	C 	0.13750 0.89320 0.46340 0.02600
C 	C 	0.09050 0.00020 0.40220 -0.01600
C 	C 	0.95570 0.10540 0.43950 0.03000
C 	C 	0.90800 0.22250 0.37460 -0.09600
C 	C 	0.74480 0.10700 0.23400 0.04000
C 	C 	0.71110 0.29900 0.28860 0.07100
C 	C 	0.18940 0.99840 0.29580 -0.03700
C 	C 	0.32210 0.14480 0.21350 0.05400
C 	C 	0.36710 0.18960 0.34150 0.07700
C 	C 	0.59340 0.41490 0.70530 0.08900
C 	C 	0.76750 0.47120 0.68330 0.05400
C 	C 	0.71240 0.21720 0.57300 -0.09300
C 	C 	0.86250 0.10680 0.53660 0.02600
C 	C 	0.90950 0.99980 0.59780 -0.01600
C 	C 	0.04430 0.89460 0.56050 0.03000
C 	C 	0.09200 0.77750 0.62540 -0.09600
C 	C 	0.25520 0.89300 0.76600 0.04000
C 	C 	0.28890 0.70100 0.71140 0.07100
C 	C 	0.81060 0.00160 0.70420 -0.03700
C 	C 	0.67790 0.85520 0.78650 0.05400
C 	C 	0.63290 0.81040 0.65850 0.07700
N 	N 	0.38720 0.21000 0.24230 -0.27400
N 	N 	0.26320 0.08790 0.29350 -0.11400
N 	N 	0.29220 0.11680 0.37680 -0.10100
N 	N 	0.66190 0.24290 0.23430 -0.26400
N 	N 	0.81640 0.20510 0.31910 -0.09900
N 	N 	0.83910 0.08010 0.28360 -0.10600
N 	N 	0.37730 0.49490 0.25810 -0.24000
N 	N 	0.29500 0.67400 0.36310 -0.09300
N 	N 	0.17990 0.63190 0.38690 -0.09200
N 	N 	0.61280 0.79000 0.75770 -0.27400
N 	N 	0.73680 0.91210 0.70650 -0.11400
N 	N 	0.70780 0.88320 0.62320 -0.10100
N 	N 	0.33810 0.75710 0.76570 -0.26400
N 	N 	0.18360 0.79490 0.68090 -0.09900
N 	N 	0.16090 0.91990 0.71640 -0.10600
N 	N 	0.62270 0.50510 0.74190 -0.24000
N 	N 	0.70500 0.32600 0.63690 -0.09300
N 	N 	0.82010 0.36810 0.61310 -0.09200
O 	O 	0.12910 0.60310 0.89230 -0.58000
O 	O 	0.12360 0.38440 0.99490 -0.61100
O 	O 	0.62250 0.64020 0.13010 -0.53000
O 	O 	0.64520 0.60930 0.92620 -0.58300
O 	O 	0.63030 0.41170 0.05360 -0.55300
O 	O 	0.90640 0.39800 0.91780 -0.55800
O 	O 	0.82280 0.63130 0.20950 -0.47500
O 	O 	0.83550 0.84090 0.10600 -0.58600
O 	O 	0.87090 0.39690 0.10770 -0.58000
O 	O 	0.87640 0.61560 0.00510 -0.61100
O 	O 	0.37750 0.35980 0.86990 -0.53000
O 	O 	0.35480 0.39070 0.07380 -0.58300
O 	O 	0.36970 0.58830 0.94640 -0.55300
O 	O 	0.09360 0.60200 0.08220 -0.55800
O 	O 	0.17720 0.36870 0.79050 -0.47500
O 	O 	0.16450 0.15910 0.89400 -0.58600
