data_crystal

_cell_length_a 12.11300
_cell_length_b 12.22600
_cell_length_c 12.28900
_cell_angle_alpha 102.17800
_cell_angle_beta  100.54500
_cell_angle_gamma 119.66300

_symmetry_space_group_name_	'P 1'
_symmetry_space_group_name_H-M	'P 1'

loop_
_symmetry_equiv_pos_as_xyz
  x,y,z

loop_
_atom_site_label
_atom_site_type_symbol
_atom_site_fract_x
_atom_site_fract_y
_atom_site_fract_z
_atom_site_charge
Co	Co	0.68803 0.99432 0.33610 1.04000
Co	Co	0.31197 0.00568 0.66390 1.04000
Mo	Mo	0.59832 0.51295 0.21558 1.04200
Mo	Mo	0.38993 0.37824 0.36334 1.13600
Mo	Mo	0.46054 0.68370 0.40733 1.13900
Mo	Mo	0.29381 0.58133 0.58683 1.04900
Mo	Mo	0.40168 0.48705 0.78442 1.04200
Mo	Mo	0.61007 0.62176 0.63666 1.13600
Mo	Mo	0.53946 0.31630 0.59267 1.13900
Mo	Mo	0.70619 0.41867 0.41317 1.04900
H 	H 	0.00800 0.24000 0.86280 0.06900
H 	H 	0.98380 0.21870 0.97950 0.07600
H 	H 	0.31470 0.51300 0.09170 -0.04800
H 	H 	0.36220 0.21870 0.02850 -0.03700
H 	H 	0.10310 0.37060 0.17310 0.01900
H 	H 	0.08000 0.46710 0.25670 0.00400
H 	H 	0.97100 0.26310 0.34240 -0.05700
H 	H 	0.63780 0.03410 0.08490 -0.04800
H 	H 	0.92570 0.50740 0.24880 0.00500
H 	H 	0.89490 0.60470 0.20680 0.00700
H 	H 	0.04440 0.68790 0.46590 -0.05900
H 	H 	0.33610 0.96950 0.40670 -0.01300
H 	H 	0.99200 0.76000 0.13720 0.06900
H 	H 	0.01620 0.78130 0.02050 0.07600
H 	H 	0.68530 0.48700 0.90830 -0.04800
H 	H 	0.63780 0.78130 0.97150 -0.03700
H 	H 	0.89690 0.62940 0.82690 0.01900
H 	H 	0.92000 0.53290 0.74330 0.00400
H 	H 	0.02900 0.73690 0.65760 -0.05700
H 	H 	0.36220 0.96590 0.91510 -0.04800
H 	H 	0.07430 0.49260 0.75120 0.00500
H 	H 	0.10510 0.39530 0.79320 0.00700
H 	H 	0.95560 0.31210 0.53410 -0.05900
H 	H 	0.66390 0.03050 0.59330 -0.01300
C 	C 	0.02950 0.40440 0.97760 0.01000
C 	C 	0.01440 0.44380 0.08540 -0.01200
C 	C 	0.98330 0.54220 0.10930 -0.01800
C 	C 	0.04170 0.28310 0.94810 -0.12000
C 	C 	0.29930 0.42800 0.06460 0.03400
C 	C 	0.32070 0.26550 0.02930 0.03800
C 	C 	0.03880 0.39420 0.18140 -0.06300
C 	C 	0.90300 0.22570 0.27010 0.07100
C 	C 	0.72570 0.10510 0.13100 0.06400
C 	C 	0.96210 0.58330 0.22200 -0.04600
C 	C 	0.10190 0.73840 0.42990 0.07300
C 	C 	0.25750 0.88870 0.39550 0.05000
C 	C 	0.97050 0.59560 0.02240 0.01000
C 	C 	0.98560 0.55620 0.91460 -0.01200
C 	C 	0.01670 0.45780 0.89070 -0.01800
C 	C 	0.95830 0.71690 0.05190 -0.12000
C 	C 	0.70070 0.57200 0.93540 0.03400
C 	C 	0.67930 0.73450 0.97070 0.03800
C 	C 	0.96120 0.60580 0.81860 -0.06300
C 	C 	0.09700 0.77430 0.72990 0.07100
C 	C 	0.27430 0.89490 0.86900 0.06400
C 	C 	0.03790 0.41670 0.77800 -0.04600
C 	C 	0.89810 0.26160 0.57010 0.07300
C 	C 	0.74250 0.11130 0.60450 0.05000
N 	N 	0.39010 0.40080 0.08900 -0.26700
N 	N 	0.17900 0.31410 0.99380 -0.09900
N 	N 	0.19270 0.20660 0.97380 -0.12400
N 	N 	0.78320 0.11760 0.24140 -0.29800
N 	N 	0.91660 0.27610 0.18480 -0.10700
N 	N 	0.80030 0.19840 0.09210 -0.11400
N 	N 	0.21230 0.85870 0.48750 -0.26900
N 	N 	0.08120 0.69670 0.31580 -0.11100
N 	N 	0.18080 0.79420 0.29160 -0.11300
N 	N 	0.60990 0.59920 0.91100 -0.26700
N 	N 	0.82100 0.68590 0.00620 -0.09900
N 	N 	0.80730 0.79340 0.02620 -0.12400
N 	N 	0.21680 0.88240 0.75860 -0.29800
N 	N 	0.08340 0.72390 0.81520 -0.10700
N 	N 	0.19970 0.80160 0.90790 -0.11400
N 	N 	0.78770 0.14130 0.51250 -0.26900
N 	N 	0.91880 0.30330 0.68420 -0.11100
N 	N 	0.81920 0.20580 0.70840 -0.11300
O 	O 	0.73860 0.56650 0.35250 -0.55900
O 	O 	0.50020 0.35100 0.28460 -0.55300
O 	O 	0.49800 0.56040 0.32640 -0.59700
O 	O 	0.35690 0.26260 0.43690 -0.46500
O 	O 	0.39240 0.51580 0.47940 -0.59900
O 	O 	0.57840 0.83750 0.40200 -0.58700
O 	O 	0.40600 0.73030 0.53900 -0.54300
O 	O 	0.26140 0.43350 0.64750 -0.55900
O 	O 	0.49980 0.64900 0.71540 -0.55300
O 	O 	0.50200 0.43960 0.67360 -0.59700
O 	O 	0.64310 0.73740 0.56310 -0.46500
O 	O 	0.60760 0.48420 0.52060 -0.59900
O 	O 	0.42160 0.16250 0.59800 -0.58700
O 	O 	0.59400 0.26970 0.46100 -0.54300
