data_crystal

_cell_length_a 32.74650
_cell_length_b 32.74650
_cell_length_c 32.74650
_cell_angle_alpha 109.47100
_cell_angle_beta  109.47100
_cell_angle_gamma 109.47100

_symmetry_space_group_name_	'P 1'
_symmetry_space_group_name_H-M	'P 1'

loop_
_symmetry_equiv_pos_as_xyz
  x,y,z

loop_
_atom_site_label
_atom_site_type_symbol
_atom_site_fract_x
_atom_site_fract_y
_atom_site_fract_z
_atom_site_charge
Cd	Cd	0.05278 0.14064 0.41337 1.18300
Cd	Cd	0.22727 0.63941 0.08663 1.18300
Cd	Cd	0.27273 0.35936 0.41214 1.18300
Cd	Cd	0.44722 0.86059 0.08786 1.18300
Cd	Cd	0.91214 0.27273 0.85936 1.18300
Cd	Cd	0.58786 0.44722 0.36059 1.18300
Cd	Cd	0.91337 0.05278 0.64064 1.18300
Cd	Cd	0.58663 0.22727 0.13941 1.18300
Cd	Cd	0.63941 0.58663 0.72727 1.18300
Cd	Cd	0.14064 0.91337 0.55278 1.18300
Cd	Cd	0.86059 0.58786 0.94722 1.18300
Cd	Cd	0.35936 0.91214 0.77273 1.18300
Cd	Cd	0.35936 0.44722 0.08663 1.18300
Cd	Cd	0.86059 0.27273 0.41337 1.18300
Cd	Cd	0.14064 0.22727 0.08786 1.18300
Cd	Cd	0.63941 0.05278 0.41214 1.18300
Cd	Cd	0.22727 0.58786 0.64064 1.18300
Cd	Cd	0.05278 0.91214 0.13941 1.18300
Cd	Cd	0.44722 0.58663 0.85936 1.18300
Cd	Cd	0.27273 0.91337 0.36059 1.18300
Cd	Cd	0.91337 0.86059 0.77273 1.18300
Cd	Cd	0.58663 0.35936 0.94722 1.18300
Cd	Cd	0.91214 0.63941 0.55278 1.18300
Cd	Cd	0.58786 0.14064 0.72727 1.18300
Cd	Cd	0.94722 0.85936 0.58663 1.18300
Cd	Cd	0.77273 0.36059 0.91337 1.18300
Cd	Cd	0.72727 0.64064 0.58786 1.18300
Cd	Cd	0.55278 0.13941 0.91214 1.18300
Cd	Cd	0.08786 0.72727 0.14064 1.18300
Cd	Cd	0.41214 0.55278 0.63941 1.18300
Cd	Cd	0.08663 0.94722 0.35936 1.18300
Cd	Cd	0.41337 0.77273 0.86059 1.18300
Cd	Cd	0.36059 0.41337 0.27273 1.18300
Cd	Cd	0.85936 0.08663 0.44722 1.18300
Cd	Cd	0.13941 0.41214 0.05278 1.18300
Cd	Cd	0.64064 0.08786 0.22727 1.18300
Cd	Cd	0.64064 0.55278 0.91337 1.18300
Cd	Cd	0.13941 0.72727 0.58663 1.18300
Cd	Cd	0.85936 0.77273 0.91214 1.18300
Cd	Cd	0.36059 0.94722 0.58786 1.18300
Cd	Cd	0.77273 0.41214 0.35936 1.18300
Cd	Cd	0.94722 0.08786 0.86059 1.18300
Cd	Cd	0.55278 0.41337 0.14064 1.18300
Cd	Cd	0.72727 0.08663 0.63941 1.18300
Cd	Cd	0.08663 0.13941 0.22727 1.18200
Cd	Cd	0.41337 0.64064 0.05278 1.18200
Cd	Cd	0.08786 0.36059 0.44722 1.18200
Cd	Cd	0.41214 0.85936 0.27273 1.18200
H 	H 	0.01730 0.25020 0.37090 0.20300
H 	H 	0.01450 0.19830 0.35720 0.21900
H 	H 	0.05720 0.24080 0.35960 0.21500
H 	H 	0.13460 0.33040 0.53940 0.00900
H 	H 	0.14260 0.04930 0.46970 0.00200
H 	H 	0.01940 0.03840 0.31860 0.22800
H 	H 	0.00190 0.98620 0.31570 0.23300
H 	H 	0.04490 0.00730 0.30440 0.22300
H 	H 	0.14280 0.27460 0.57040 0.04400
H 	H 	0.16300 0.15120 0.52860 0.05000
H 	H 	0.37930 0.64640 0.12910 0.20300
H 	H 	0.34110 0.65730 0.14280 0.21900
H 	H 	0.38120 0.69760 0.14040 0.21500
H 	H 	0.29100 0.59520 0.96060 0.00800
H 	H 	0.07960 0.67290 0.03030 0.00200
H 	H 	0.21980 0.70080 0.18140 0.23000
H 	H 	0.17050 0.68620 0.18430 0.23600
H 	H 	0.20290 0.74050 0.19560 0.22400
H 	H 	0.20420 0.57240 0.92960 0.04400
H 	H 	0.12260 0.63440 0.97140 0.05200
H 	H 	0.12070 0.24980 0.26710 0.20300
H 	H 	0.15890 0.30170 0.31620 0.21900
H 	H 	0.11880 0.25920 0.31640 0.21500
H 	H 	0.20900 0.16960 0.30420 0.00900
H 	H 	0.42040 0.45070 0.59330 0.00200
H 	H 	0.28020 0.46160 0.48100 0.23000
H 	H 	0.32950 0.51380 0.51570 0.23600
H 	H 	0.29710 0.49270 0.53760 0.22400
H 	H 	0.29580 0.22540 0.36820 0.04400
H 	H 	0.37740 0.34880 0.51180 0.05000
H 	H 	0.48270 0.85360 0.23290 0.20300
H 	H 	0.48550 0.84270 0.18380 0.21900
H 	H 	0.44280 0.80240 0.18360 0.21500
H 	H 	0.36540 0.90480 0.19580 0.00900
H 	H 	0.35740 0.82710 0.90670 0.00200
H 	H 	0.48060 0.79920 0.01900 0.22900
H 	H 	0.49810 0.81380 0.98430 0.23600
H 	H 	0.45510 0.75950 0.96240 0.22400
H 	H 	0.35720 0.92760 0.13180 0.04400
H 	H 	0.33700 0.86560 0.98820 0.05100
H 	H 	0.76710 0.12070 0.74980 0.20300
H 	H 	0.81620 0.15890 0.80170 0.21900
H 	H 	0.81640 0.11880 0.75920 0.21500
H 	H 	0.80420 0.20900 0.66960 0.00900
H 	H 	0.09330 0.42040 0.95070 0.00300
H 	H 	0.98100 0.28020 0.96160 0.22400
H 	H 	0.01570 0.32950 0.01380 0.23100
H 	H 	0.03760 0.29710 0.99270 0.22000
H 	H 	0.86820 0.29580 0.72540 0.04400
H 	H 	0.01180 0.37740 0.84880 0.05300
H 	H 	0.73290 0.48270 0.35360 0.20300
H 	H 	0.68380 0.48550 0.34270 0.21900
H 	H 	0.68360 0.44280 0.30240 0.21500
H 	H 	0.69580 0.36540 0.40480 0.00900
H 	H 	0.40670 0.35740 0.32710 0.00200
H 	H 	0.51900 0.48060 0.29920 0.23000
H 	H 	0.48430 0.49810 0.31380 0.23600
H 	H 	0.46240 0.45510 0.25950 0.22400
H 	H 	0.63180 0.35720 0.42760 0.04400
H 	H 	0.48820 0.33700 0.36560 0.05000
H 	H 	0.87090 0.01730 0.75020 0.20300
H 	H 	0.85720 0.01450 0.69830 0.21900
H 	H 	0.85960 0.05720 0.74080 0.21500
H 	H 	0.03940 0.13460 0.83040 0.00700
H 	H 	0.96970 0.14260 0.54930 0.00200
H 	H 	0.81860 0.01940 0.53840 0.22900
H 	H 	0.81570 0.00190 0.48620 0.23600
H 	H 	0.80440 0.04490 0.50730 0.22400
H 	H 	0.07040 0.14280 0.77460 0.04300
H 	H 	0.02860 0.16300 0.65120 0.05200
H 	H 	0.62910 0.37930 0.14640 0.20300
H 	H 	0.64280 0.34110 0.15730 0.21900
H 	H 	0.64040 0.38120 0.19760 0.21500
H 	H 	0.46060 0.29100 0.09520 0.00900
H 	H 	0.53030 0.07960 0.17290 0.00200
H 	H 	0.68140 0.21980 0.20080 0.23000
H 	H 	0.68430 0.17050 0.18620 0.23600
H 	H 	0.69560 0.20290 0.24050 0.22400
H 	H 	0.42960 0.20420 0.07240 0.04400
H 	H 	0.47140 0.12260 0.13440 0.05000
H 	H 	0.64640 0.62910 0.87930 0.20300
H 	H 	0.65730 0.64280 0.84110 0.21900
H 	H 	0.69760 0.64040 0.88120 0.21500
H 	H 	0.59520 0.46060 0.79100 0.00900
H 	H 	0.67290 0.53030 0.57960 0.00200
H 	H 	0.70080 0.68140 0.71980 0.23000
H 	H 	0.68620 0.68430 0.67050 0.23600
H 	H 	0.74050 0.69560 0.70290 0.22400
H 	H 	0.57240 0.42960 0.70420 0.04400
H 	H 	0.63440 0.47140 0.62260 0.05000
H 	H 	0.25020 0.87090 0.51730 0.20300
H 	H 	0.19830 0.85720 0.51450 0.21900
H 	H 	0.24080 0.85960 0.55720 0.21500
H 	H 	0.33040 0.03940 0.63460 0.00800
H 	H 	0.04930 0.96970 0.64260 0.00200
H 	H 	0.03840 0.81860 0.51940 0.23000
H 	H 	0.98620 0.81570 0.50190 0.23800
H 	H 	0.00730 0.80440 0.54490 0.22500
H 	H 	0.27460 0.07040 0.64280 0.04400
H 	H 	0.15120 0.02860 0.66300 0.05100
H 	H 	0.85360 0.73290 0.98270 0.20300
H 	H 	0.84270 0.68380 0.98550 0.21900
H 	H 	0.80240 0.68360 0.94280 0.21500
H 	H 	0.90480 0.69580 0.86540 0.00900
H 	H 	0.82710 0.40670 0.85740 0.00200
H 	H 	0.79920 0.51900 0.98060 0.22900
H 	H 	0.81380 0.48430 0.99810 0.23600
H 	H 	0.75950 0.46240 0.95510 0.22400
H 	H 	0.92760 0.63180 0.85720 0.04400
H 	H 	0.86560 0.48820 0.83700 0.05000
H 	H 	0.24980 0.76710 0.62070 0.20300
H 	H 	0.30170 0.81620 0.65890 0.21900
H 	H 	0.25920 0.81640 0.61880 0.21500
H 	H 	0.16960 0.80420 0.70900 0.00900
H 	H 	0.45070 0.09330 0.92040 0.00200
H 	H 	0.46160 0.98100 0.78020 0.23000
H 	H 	0.51380 0.01570 0.82950 0.23600
H 	H 	0.49270 0.03760 0.79710 0.22400
H 	H 	0.22540 0.86820 0.79580 0.04400
H 	H 	0.34880 0.01180 0.87740 0.05000
H 	H 	0.24980 0.48270 0.12910 0.20300
H 	H 	0.30170 0.48550 0.14280 0.21900
H 	H 	0.25920 0.44280 0.14040 0.21500
H 	H 	0.16960 0.36540 0.96060 0.00800
H 	H 	0.45070 0.35740 0.03030 0.00200
H 	H 	0.46160 0.48060 0.18140 0.23000
H 	H 	0.51380 0.49810 0.18430 0.23600
H 	H 	0.49270 0.45510 0.19560 0.22400
H 	H 	0.22540 0.35720 0.92960 0.04400
H 	H 	0.34880 0.33700 0.97140 0.05100
H 	H 	0.85360 0.12070 0.37090 0.20300
H 	H 	0.84270 0.15890 0.35720 0.21900
H 	H 	0.80240 0.11880 0.35960 0.21500
H 	H 	0.90480 0.20900 0.53940 0.00900
H 	H 	0.82710 0.42040 0.46970 0.00200
H 	H 	0.79920 0.28020 0.31860 0.23000
H 	H 	0.81380 0.32950 0.31570 0.23600
H 	H 	0.75950 0.29710 0.30440 0.22400
H 	H 	0.92760 0.29580 0.57040 0.04400
H 	H 	0.86560 0.37740 0.52860 0.05000
H 	H 	0.25020 0.37930 0.23290 0.20300
H 	H 	0.19830 0.34110 0.18380 0.21900
H 	H 	0.24080 0.38120 0.18360 0.21500
H 	H 	0.33040 0.29100 0.19580 0.00900
H 	H 	0.04930 0.07960 0.90670 0.00300
H 	H 	0.03840 0.21980 0.01900 0.22400
H 	H 	0.98620 0.17050 0.98430 0.22900
H 	H 	0.00730 0.20290 0.96240 0.22000
H 	H 	0.27460 0.20420 0.13180 0.04400
H 	H 	0.15120 0.12260 0.98820 0.05200
H 	H 	0.64640 0.01730 0.26710 0.20300
H 	H 	0.65730 0.01450 0.31620 0.21900
H 	H 	0.69760 0.05720 0.31640 0.21500
H 	H 	0.59520 0.13460 0.30420 0.00900
H 	H 	0.67290 0.14260 0.59330 0.00200
H 	H 	0.70080 0.01940 0.48100 0.22900
H 	H 	0.68620 0.00190 0.51570 0.23600
H 	H 	0.74050 0.04490 0.53760 0.22400
H 	H 	0.57240 0.14280 0.36820 0.04400
H 	H 	0.63440 0.16300 0.51180 0.05000
H 	H 	0.37930 0.73290 0.75020 0.20300
H 	H 	0.34110 0.68380 0.69830 0.21900
H 	H 	0.38120 0.68360 0.74080 0.21500
H 	H 	0.29100 0.69580 0.83040 0.00900
H 	H 	0.07960 0.40670 0.54930 0.00200
H 	H 	0.21980 0.51900 0.53840 0.23000
H 	H 	0.17050 0.48430 0.48620 0.23600
H 	H 	0.20290 0.46240 0.50730 0.22400
H 	H 	0.20420 0.63180 0.77460 0.04400
H 	H 	0.12260 0.48820 0.65120 0.05000
H 	H 	0.01730 0.76710 0.14640 0.20200
H 	H 	0.01450 0.81620 0.15730 0.21800
H 	H 	0.05720 0.81640 0.19760 0.21500
H 	H 	0.13460 0.80420 0.09520 0.00900
H 	H 	0.14260 0.09330 0.17290 0.00200
H 	H 	0.01940 0.98100 0.20080 0.22700
H 	H 	0.00190 0.01570 0.18620 0.23400
H 	H 	0.04490 0.03760 0.24050 0.22300
H 	H 	0.14280 0.86820 0.07240 0.04400
H 	H 	0.16300 0.01180 0.13440 0.05200
H 	H 	0.48270 0.62910 0.74980 0.20300
H 	H 	0.48550 0.64280 0.80170 0.21900
H 	H 	0.44280 0.64040 0.75920 0.21500
H 	H 	0.36540 0.46060 0.66960 0.00900
H 	H 	0.35740 0.53030 0.95070 0.00200
H 	H 	0.48060 0.68140 0.96160 0.22900
H 	H 	0.49810 0.68430 0.01380 0.23600
H 	H 	0.45510 0.69560 0.99270 0.22400
H 	H 	0.35720 0.42960 0.72540 0.04400
H 	H 	0.33700 0.47140 0.84880 0.05000
H 	H 	0.12070 0.87090 0.35360 0.20300
H 	H 	0.15890 0.85720 0.34270 0.21900
H 	H 	0.11880 0.85960 0.30240 0.21500
H 	H 	0.20900 0.03940 0.40480 0.00800
H 	H 	0.42040 0.96970 0.32710 0.00200
H 	H 	0.28020 0.81860 0.29920 0.23000
H 	H 	0.32950 0.81570 0.31380 0.23600
H 	H 	0.29710 0.80440 0.25950 0.22400
H 	H 	0.29580 0.07040 0.42760 0.04400
H 	H 	0.37740 0.02860 0.36560 0.05100
H 	H 	0.87090 0.85360 0.62070 0.20300
H 	H 	0.85720 0.84270 0.65890 0.21900
H 	H 	0.85960 0.80240 0.61880 0.21500
H 	H 	0.03940 0.90480 0.70900 0.00900
H 	H 	0.96970 0.82710 0.92040 0.00200
H 	H 	0.81860 0.79920 0.78020 0.23000
H 	H 	0.81570 0.81380 0.82950 0.23600
H 	H 	0.80440 0.75950 0.79710 0.22400
H 	H 	0.07040 0.92760 0.79580 0.04400
H 	H 	0.02860 0.86560 0.87740 0.05100
H 	H 	0.62910 0.24980 0.98270 0.20300
H 	H 	0.64280 0.30170 0.98550 0.21900
H 	H 	0.64040 0.25920 0.94280 0.21500
H 	H 	0.46060 0.16960 0.86540 0.00900
H 	H 	0.53030 0.45070 0.85740 0.00200
H 	H 	0.68140 0.46160 0.98060 0.22900
H 	H 	0.68430 0.51380 0.99810 0.23600
H 	H 	0.69560 0.49270 0.95510 0.22400
H 	H 	0.42960 0.22540 0.85720 0.04400
H 	H 	0.47140 0.34880 0.83700 0.05000
H 	H 	0.76710 0.64640 0.51730 0.20300
H 	H 	0.81620 0.65730 0.51450 0.21900
H 	H 	0.81640 0.69760 0.55720 0.21500
H 	H 	0.80420 0.59520 0.63460 0.00900
H 	H 	0.09330 0.67290 0.64260 0.00200
H 	H 	0.98100 0.70080 0.51940 0.23000
H 	H 	0.01570 0.68620 0.50190 0.23700
H 	H 	0.03760 0.74050 0.54490 0.22500
H 	H 	0.86820 0.57240 0.64280 0.04400
H 	H 	0.01180 0.63440 0.66300 0.05000
H 	H 	0.73290 0.25020 0.87930 0.20300
H 	H 	0.68380 0.19830 0.84110 0.21900
H 	H 	0.68360 0.24080 0.88120 0.21500
H 	H 	0.69580 0.33040 0.79100 0.00900
H 	H 	0.40670 0.04930 0.57960 0.00200
H 	H 	0.51900 0.03840 0.71980 0.23000
H 	H 	0.48430 0.98620 0.67050 0.23600
H 	H 	0.46240 0.00730 0.70290 0.22400
H 	H 	0.63180 0.27460 0.70420 0.04400
H 	H 	0.48820 0.15120 0.62260 0.05000
H 	H 	0.98270 0.74980 0.62910 0.20300
H 	H 	0.98550 0.80170 0.64280 0.21900
H 	H 	0.94280 0.75920 0.64040 0.21500
H 	H 	0.86540 0.66960 0.46060 0.00900
H 	H 	0.85740 0.95070 0.53030 0.00200
H 	H 	0.98060 0.96160 0.68140 0.22800
H 	H 	0.99810 0.01380 0.68430 0.23300
H 	H 	0.95510 0.99270 0.69560 0.22300
H 	H 	0.85720 0.72540 0.42960 0.04400
H 	H 	0.83700 0.84880 0.47140 0.05000
H 	H 	0.62070 0.35360 0.87090 0.20300
H 	H 	0.65890 0.34270 0.85720 0.21900
H 	H 	0.61880 0.30240 0.85960 0.21500
H 	H 	0.70900 0.40480 0.03940 0.00800
H 	H 	0.92040 0.32710 0.96970 0.00200
H 	H 	0.78020 0.29920 0.81860 0.23000
H 	H 	0.82950 0.31380 0.81570 0.23600
H 	H 	0.79710 0.25950 0.80440 0.22400
H 	H 	0.79580 0.42760 0.07040 0.04400
H 	H 	0.87740 0.36560 0.02860 0.05200
H 	H 	0.87930 0.75020 0.73290 0.20300
H 	H 	0.84110 0.69830 0.68380 0.21900
H 	H 	0.88120 0.74080 0.68360 0.21500
H 	H 	0.79100 0.83040 0.69580 0.00900
H 	H 	0.57960 0.54930 0.40670 0.00200
H 	H 	0.71980 0.53840 0.51900 0.23000
H 	H 	0.67050 0.48620 0.48430 0.23600
H 	H 	0.70290 0.50730 0.46240 0.22400
H 	H 	0.70420 0.77460 0.63180 0.04400
H 	H 	0.62260 0.65120 0.48820 0.05000
H 	H 	0.51730 0.14640 0.76710 0.20300
H 	H 	0.51450 0.15730 0.81620 0.21900
H 	H 	0.55720 0.19760 0.81640 0.21500
H 	H 	0.63460 0.09520 0.80420 0.00900
H 	H 	0.64260 0.17290 0.09330 0.00200
H 	H 	0.51940 0.20080 0.98100 0.22900
H 	H 	0.50190 0.18620 0.01570 0.23600
H 	H 	0.54490 0.24050 0.03760 0.22400
H 	H 	0.64280 0.07240 0.86820 0.04400
H 	H 	0.66300 0.13440 0.01180 0.05100
H 	H 	0.23290 0.87930 0.25020 0.20300
H 	H 	0.18380 0.84110 0.19830 0.21900
H 	H 	0.18360 0.88120 0.24080 0.21500
H 	H 	0.19580 0.79100 0.33040 0.00900
H 	H 	0.90670 0.57960 0.04930 0.00300
H 	H 	0.01900 0.71980 0.03840 0.22400
H 	H 	0.98430 0.67050 0.98620 0.23100
H 	H 	0.96240 0.70290 0.00730 0.22000
H 	H 	0.13180 0.70420 0.27460 0.04400
H 	H 	0.98820 0.62260 0.15120 0.05300
H 	H 	0.26710 0.51730 0.64640 0.20300
H 	H 	0.31620 0.51450 0.65730 0.21900
H 	H 	0.31640 0.55720 0.69760 0.21500
H 	H 	0.30420 0.63460 0.59520 0.00900
H 	H 	0.59330 0.64260 0.67290 0.00200
H 	H 	0.48100 0.51940 0.70080 0.23000
H 	H 	0.51570 0.50190 0.68620 0.23600
H 	H 	0.53760 0.54490 0.74050 0.22400
H 	H 	0.36820 0.64280 0.57240 0.04400
H 	H 	0.51180 0.66300 0.63440 0.05000
H 	H 	0.12910 0.98270 0.24980 0.20300
H 	H 	0.14280 0.98550 0.30170 0.21900
H 	H 	0.14040 0.94280 0.25920 0.21500
H 	H 	0.96060 0.86540 0.16960 0.00700
H 	H 	0.03030 0.85740 0.45070 0.00200
H 	H 	0.18140 0.98060 0.46160 0.22900
H 	H 	0.18430 0.99810 0.51380 0.23600
H 	H 	0.19560 0.95510 0.49270 0.22400
H 	H 	0.92960 0.85720 0.22540 0.04300
H 	H 	0.97140 0.83700 0.34880 0.05200
H 	H 	0.37090 0.62070 0.85360 0.20300
H 	H 	0.35720 0.65890 0.84270 0.21900
H 	H 	0.35960 0.61880 0.80240 0.21500
H 	H 	0.53940 0.70900 0.90480 0.00900
H 	H 	0.46970 0.92040 0.82710 0.00200
H 	H 	0.31860 0.78020 0.79920 0.23000
H 	H 	0.31570 0.82950 0.81380 0.23600
H 	H 	0.30440 0.79710 0.75950 0.22400
H 	H 	0.57040 0.79580 0.92760 0.04400
H 	H 	0.52860 0.87740 0.86560 0.05000
H 	H 	0.35360 0.37090 0.12070 0.20300
H 	H 	0.34270 0.35720 0.15890 0.21900
H 	H 	0.30240 0.35960 0.11880 0.21500
H 	H 	0.40480 0.53940 0.20900 0.00900
H 	H 	0.32710 0.46970 0.42040 0.00200
H 	H 	0.29920 0.31860 0.28020 0.23000
H 	H 	0.31380 0.31570 0.32950 0.23600
H 	H 	0.25950 0.30440 0.29710 0.22400
H 	H 	0.42760 0.57040 0.29580 0.04400
H 	H 	0.36560 0.52860 0.37740 0.05000
H 	H 	0.74980 0.12910 0.48270 0.20300
H 	H 	0.80170 0.14280 0.48550 0.21900
H 	H 	0.75920 0.14040 0.44280 0.21500
H 	H 	0.66960 0.96060 0.36540 0.00800
H 	H 	0.95070 0.03030 0.35740 0.00200
H 	H 	0.96160 0.18140 0.48060 0.23000
H 	H 	0.01380 0.18430 0.49810 0.23800
H 	H 	0.99270 0.19560 0.45510 0.22500
H 	H 	0.72540 0.92960 0.35720 0.04400
H 	H 	0.84880 0.97140 0.33700 0.05100
H 	H 	0.14640 0.26710 0.01730 0.20300
H 	H 	0.15730 0.31620 0.01450 0.21900
H 	H 	0.19760 0.31640 0.05720 0.21500
H 	H 	0.09520 0.30420 0.13460 0.00900
H 	H 	0.17290 0.59330 0.14260 0.00200
H 	H 	0.20080 0.48100 0.01940 0.22900
H 	H 	0.18620 0.51570 0.00190 0.23600
H 	H 	0.24050 0.53760 0.04490 0.22400
H 	H 	0.07240 0.36820 0.14280 0.04400
H 	H 	0.13440 0.51180 0.16300 0.05000
H 	H 	0.75020 0.23290 0.37930 0.20300
H 	H 	0.69830 0.18380 0.34110 0.21900
H 	H 	0.74080 0.18360 0.38120 0.21500
H 	H 	0.83040 0.19580 0.29100 0.00900
H 	H 	0.54930 0.90670 0.07960 0.00200
H 	H 	0.53840 0.01900 0.21980 0.23000
H 	H 	0.48620 0.98430 0.17050 0.23600
H 	H 	0.50730 0.96240 0.20290 0.22400
H 	H 	0.77460 0.13180 0.20420 0.04400
H 	H 	0.65120 0.98820 0.12260 0.05000
H 	H 	0.75020 0.51730 0.87090 0.20300
H 	H 	0.69830 0.51450 0.85720 0.21900
H 	H 	0.74080 0.55720 0.85960 0.21500
H 	H 	0.83040 0.63460 0.03940 0.00800
H 	H 	0.54930 0.64260 0.96970 0.00200
H 	H 	0.53840 0.51940 0.81860 0.23000
H 	H 	0.48620 0.50190 0.81570 0.23600
H 	H 	0.50730 0.54490 0.80440 0.22400
H 	H 	0.77460 0.64280 0.07040 0.04400
H 	H 	0.65120 0.66300 0.02860 0.05100
H 	H 	0.14640 0.87930 0.62910 0.20300
H 	H 	0.15730 0.84110 0.64280 0.21900
H 	H 	0.19760 0.88120 0.64040 0.21500
H 	H 	0.09520 0.79100 0.46060 0.00900
H 	H 	0.17290 0.57960 0.53030 0.00200
H 	H 	0.20080 0.71980 0.68140 0.23000
H 	H 	0.18620 0.67050 0.68430 0.23600
H 	H 	0.24050 0.70290 0.69560 0.22400
H 	H 	0.07240 0.70420 0.42960 0.04400
H 	H 	0.13440 0.62260 0.47140 0.05000
H 	H 	0.74980 0.62070 0.76710 0.20300
H 	H 	0.80170 0.65890 0.81620 0.21900
H 	H 	0.75920 0.61880 0.81640 0.21500
H 	H 	0.66960 0.70900 0.80420 0.00900
H 	H 	0.95070 0.92040 0.09330 0.00300
H 	H 	0.96160 0.78020 0.98100 0.22400
H 	H 	0.01380 0.82950 0.01570 0.22900
H 	H 	0.99270 0.79710 0.03760 0.22000
H 	H 	0.72540 0.79580 0.86820 0.04400
H 	H 	0.84880 0.87740 0.01180 0.05200
H 	H 	0.35360 0.98270 0.73290 0.20300
H 	H 	0.34270 0.98550 0.68380 0.21900
H 	H 	0.30240 0.94280 0.68360 0.21500
H 	H 	0.40480 0.86540 0.69580 0.00900
H 	H 	0.32710 0.85740 0.40670 0.00200
H 	H 	0.29920 0.98060 0.51900 0.22900
H 	H 	0.31380 0.99810 0.48430 0.23600
H 	H 	0.25950 0.95510 0.46240 0.22400
H 	H 	0.42760 0.85720 0.63180 0.04400
H 	H 	0.36560 0.83700 0.48820 0.05000
H 	H 	0.62070 0.26710 0.24980 0.20300
H 	H 	0.65890 0.31620 0.30170 0.21900
H 	H 	0.61880 0.31640 0.25920 0.21500
H 	H 	0.70900 0.30420 0.16960 0.00900
H 	H 	0.92040 0.59330 0.45070 0.00200
H 	H 	0.78020 0.48100 0.46160 0.23000
H 	H 	0.82950 0.51570 0.51380 0.23600
H 	H 	0.79710 0.53760 0.49270 0.22400
H 	H 	0.79580 0.36820 0.22540 0.04400
H 	H 	0.87740 0.51180 0.34880 0.05000
H 	H 	0.98270 0.23290 0.85360 0.20200
H 	H 	0.98550 0.18380 0.84270 0.21800
H 	H 	0.94280 0.18360 0.80240 0.21500
H 	H 	0.86540 0.19580 0.90480 0.00900
H 	H 	0.85740 0.90670 0.82710 0.00200
H 	H 	0.98060 0.01900 0.79920 0.22700
H 	H 	0.99810 0.98430 0.81380 0.23400
H 	H 	0.95510 0.96240 0.75950 0.22300
H 	H 	0.85720 0.13180 0.92760 0.04400
H 	H 	0.83700 0.98820 0.86560 0.05200
H 	H 	0.51730 0.37090 0.25020 0.20300
H 	H 	0.51450 0.35720 0.19830 0.21900
H 	H 	0.55720 0.35960 0.24080 0.21500
H 	H 	0.63460 0.53940 0.33040 0.00900
H 	H 	0.64260 0.46970 0.04930 0.00200
H 	H 	0.51940 0.31860 0.03840 0.22900
H 	H 	0.50190 0.31570 0.98620 0.23600
H 	H 	0.54490 0.30440 0.00730 0.22400
H 	H 	0.64280 0.57040 0.27460 0.04400
H 	H 	0.66300 0.52860 0.15120 0.05000
H 	H 	0.87930 0.12910 0.64640 0.20300
H 	H 	0.84110 0.14280 0.65730 0.21900
H 	H 	0.88120 0.14040 0.69760 0.21500
H 	H 	0.79100 0.96060 0.59520 0.00800
H 	H 	0.57960 0.03030 0.67290 0.00200
H 	H 	0.71980 0.18140 0.70080 0.23000
H 	H 	0.67050 0.18430 0.68620 0.23600
H 	H 	0.70290 0.19560 0.74050 0.22400
H 	H 	0.70420 0.92960 0.57240 0.04400
H 	H 	0.62260 0.97140 0.63440 0.05100
H 	H 	0.12910 0.14640 0.37930 0.20300
H 	H 	0.14280 0.15730 0.34110 0.21900
H 	H 	0.14040 0.19760 0.38120 0.21500
H 	H 	0.96060 0.09520 0.29100 0.00900
H 	H 	0.03030 0.17290 0.07960 0.00200
H 	H 	0.18140 0.20080 0.21980 0.23000
H 	H 	0.18430 0.18620 0.17050 0.23600
H 	H 	0.19560 0.24050 0.20290 0.22400
H 	H 	0.92960 0.07240 0.20420 0.04400
H 	H 	0.97140 0.13440 0.12260 0.05100
H 	H 	0.37090 0.75020 0.01730 0.20300
H 	H 	0.35720 0.69830 0.01450 0.21900
H 	H 	0.35960 0.74080 0.05720 0.21500
H 	H 	0.53940 0.83040 0.13460 0.00900
H 	H 	0.46970 0.54930 0.14260 0.00200
H 	H 	0.31860 0.53840 0.01940 0.22900
H 	H 	0.31570 0.48620 0.00190 0.23600
H 	H 	0.30440 0.50730 0.04490 0.22400
H 	H 	0.57040 0.77460 0.14280 0.04400
H 	H 	0.52860 0.65120 0.16300 0.05000
H 	H 	0.23290 0.35360 0.48270 0.20300
H 	H 	0.18380 0.34270 0.48550 0.21900
H 	H 	0.18360 0.30240 0.44280 0.21500
H 	H 	0.19580 0.40480 0.36540 0.00900
H 	H 	0.90670 0.32710 0.35740 0.00200
H 	H 	0.01900 0.29920 0.48060 0.23000
H 	H 	0.98430 0.31380 0.49810 0.23700
H 	H 	0.96240 0.25950 0.45510 0.22500
H 	H 	0.13180 0.42760 0.35720 0.04400
H 	H 	0.98820 0.36560 0.33700 0.05000
H 	H 	0.26710 0.74980 0.12070 0.20300
H 	H 	0.31620 0.80170 0.15890 0.21900
H 	H 	0.31640 0.75920 0.11880 0.21500
H 	H 	0.30420 0.66960 0.20900 0.00900
H 	H 	0.59330 0.95070 0.42040 0.00200
H 	H 	0.48100 0.96160 0.28020 0.23000
H 	H 	0.51570 0.01380 0.32950 0.23600
H 	H 	0.53760 0.99270 0.29710 0.22400
H 	H 	0.36820 0.72540 0.29580 0.04400
H 	H 	0.51180 0.84880 0.37740 0.05000
C 	C 	0.06907 0.25235 0.42830 0.23600
C 	C 	0.03662 0.23373 0.37415 -0.75600
C 	C 	0.11579 0.30203 0.50786 -0.04400
C 	C 	0.11023 0.25605 0.49740 0.02300
C 	C 	0.11234 0.09276 0.45690 0.02600
C 	C 	0.12069 0.05284 0.44633 -0.02300
C 	C 	0.06795 0.04090 0.37847 0.26500
C 	C 	0.03015 0.01593 0.32448 -0.78800
C 	C 	0.13400 0.24950 0.53970 -0.06300
C 	C 	0.13610 0.14150 0.49880 -0.05400
C 	C 	0.32405 0.64077 0.07170 0.23600
C 	C 	0.35958 0.66247 0.12585 -0.75600
C 	C 	0.29417 0.60793 0.99214 -0.04100
C 	C 	0.25865 0.61283 0.00260 0.02100
C 	C 	0.13586 0.65544 0.04310 0.02700
C 	C 	0.10651 0.67436 0.05367 -0.02300
C 	C 	0.16243 0.68948 0.12153 0.26700
C 	C 	0.19145 0.70567 0.17552 -0.79400
C 	C 	0.20980 0.59430 0.96030 -0.06100
C 	C 	0.14270 0.63730 0.00120 -0.05800
C 	C 	0.17595 0.24765 0.31672 0.23600
C 	C 	0.14042 0.26627 0.30289 -0.75600
C 	C 	0.20583 0.19797 0.31376 -0.04400
C 	C 	0.24135 0.24395 0.35418 0.02300
C 	C 	0.36414 0.40724 0.51958 0.02600
C 	C 	0.39349 0.44716 0.56785 -0.02300
C 	C 	0.33757 0.45910 0.52705 0.26700
C 	C 	0.30855 0.48407 0.51422 -0.79400
C 	C 	0.29020 0.25050 0.38450 -0.06300
C 	C 	0.35730 0.35850 0.49460 -0.05400
C 	C 	0.43093 0.85923 0.18328 0.23600
C 	C 	0.46338 0.83753 0.19711 -0.75600
C 	C 	0.38421 0.89207 0.18624 -0.04400
C 	C 	0.38977 0.88717 0.14582 0.02300
C 	C 	0.38766 0.84456 0.98042 0.02800
C 	C 	0.37931 0.82564 0.93215 -0.02400
C 	C 	0.43205 0.81052 0.97295 0.26700
C 	C 	0.46985 0.79433 0.98578 -0.79300
C 	C 	0.36600 0.90570 0.11550 -0.06300
C 	C 	0.36390 0.86270 0.00540 -0.05700
C 	C 	0.81672 0.17595 0.74765 0.23600
C 	C 	0.80289 0.14042 0.76627 -0.75600
C 	C 	0.81376 0.20583 0.69797 -0.04400
C 	C 	0.85418 0.24135 0.74395 0.02300
C 	C 	0.01958 0.36414 0.90724 0.03100
C 	C 	0.06785 0.39349 0.94716 -0.02500
C 	C 	0.02705 0.33757 0.95910 0.26500
C 	C 	0.01422 0.30855 0.98407 -0.77800
C 	C 	0.88450 0.29020 0.75050 -0.06300
C 	C 	0.99460 0.35730 0.85850 -0.06100
C 	C 	0.68328 0.43093 0.35923 0.23600
C 	C 	0.69711 0.46338 0.33753 -0.75600
C 	C 	0.68624 0.38421 0.39207 -0.04400
C 	C 	0.64582 0.38977 0.38717 0.02300
C 	C 	0.48042 0.38766 0.34456 0.02600
C 	C 	0.43215 0.37931 0.32564 -0.02300
C 	C 	0.47295 0.43205 0.31052 0.26700
C 	C 	0.48578 0.46985 0.29433 -0.79400
C 	C 	0.61550 0.36600 0.40570 -0.06300
C 	C 	0.50540 0.36390 0.36270 -0.05400
C 	C 	0.92830 0.06907 0.75235 0.23600
C 	C 	0.87415 0.03662 0.73373 -0.75500
C 	C 	0.00786 0.11579 0.80203 -0.03700
C 	C 	0.99740 0.11023 0.75605 0.01800
C 	C 	0.95690 0.11234 0.59276 0.02700
C 	C 	0.94633 0.12069 0.55284 -0.02300
C 	C 	0.87847 0.06795 0.54090 0.26600
C 	C 	0.82448 0.03015 0.51593 -0.79300
C 	C 	0.03970 0.13400 0.74950 -0.05900
C 	C 	0.99880 0.13610 0.64150 -0.05700
C 	C 	0.57170 0.32405 0.14077 0.23600
C 	C 	0.62585 0.35958 0.16247 -0.75600
C 	C 	0.49214 0.29417 0.10793 -0.04400
C 	C 	0.50260 0.25865 0.11283 0.02300
C 	C 	0.54310 0.13586 0.15544 0.02600
C 	C 	0.55367 0.10651 0.17436 -0.02300
C 	C 	0.62153 0.16243 0.18948 0.26700
C 	C 	0.67552 0.19145 0.20567 -0.79400
C 	C 	0.46030 0.20980 0.09430 -0.06300
C 	C 	0.50120 0.14270 0.13730 -0.05400
C 	C 	0.64077 0.57170 0.82405 0.23600
C 	C 	0.66247 0.62585 0.85958 -0.75600
C 	C 	0.60793 0.49214 0.79417 -0.04400
C 	C 	0.61283 0.50260 0.75865 0.02300
C 	C 	0.65544 0.54310 0.63586 0.02600
C 	C 	0.67436 0.55367 0.60651 -0.02300
C 	C 	0.68948 0.62153 0.66243 0.26700
C 	C 	0.70567 0.67552 0.69145 -0.79400
C 	C 	0.59430 0.46030 0.70980 -0.06300
C 	C 	0.63730 0.50120 0.64270 -0.05400
C 	C 	0.25235 0.92830 0.56907 0.23600
C 	C 	0.23373 0.87415 0.53662 -0.75600
C 	C 	0.30203 0.00786 0.61579 -0.04200
C 	C 	0.25605 0.99740 0.61023 0.02200
C 	C 	0.09276 0.95690 0.61234 0.02600
C 	C 	0.05284 0.94633 0.62069 -0.02300
C 	C 	0.04090 0.87847 0.56795 0.26700
C 	C 	0.01593 0.82448 0.53015 -0.79700
C 	C 	0.24950 0.03970 0.63400 -0.06200
C 	C 	0.14150 0.99880 0.63610 -0.05600
C 	C 	0.85923 0.68328 0.93093 0.23600
C 	C 	0.83753 0.69711 0.96338 -0.75500
C 	C 	0.89207 0.68624 0.88421 -0.04400
C 	C 	0.88717 0.64582 0.88977 0.02300
C 	C 	0.84456 0.48042 0.88766 0.02600
C 	C 	0.82564 0.43215 0.87931 -0.02300
C 	C 	0.81052 0.47295 0.93205 0.26600
C 	C 	0.79433 0.48578 0.96985 -0.79300
C 	C 	0.90570 0.61550 0.86600 -0.06300
C 	C 	0.86270 0.50540 0.86390 -0.05500
C 	C 	0.24765 0.81672 0.67595 0.23600
C 	C 	0.26627 0.80289 0.64042 -0.75600
C 	C 	0.19797 0.81376 0.70583 -0.04400
C 	C 	0.24395 0.85418 0.74135 0.02300
C 	C 	0.40724 0.01958 0.86414 0.02600
C 	C 	0.44716 0.06785 0.89349 -0.02300
C 	C 	0.45910 0.02705 0.83757 0.26700
C 	C 	0.48407 0.01422 0.80855 -0.79400
C 	C 	0.25050 0.88450 0.79020 -0.06300
C 	C 	0.35850 0.99460 0.85730 -0.05500
C 	C 	0.24765 0.43093 0.07170 0.23600
C 	C 	0.26627 0.46338 0.12585 -0.75600
C 	C 	0.19797 0.38421 0.99214 -0.04100
C 	C 	0.24395 0.38977 0.00260 0.02100
C 	C 	0.40724 0.38766 0.04310 0.02600
C 	C 	0.44716 0.37931 0.05367 -0.02300
C 	C 	0.45910 0.43205 0.12153 0.26700
C 	C 	0.48407 0.46985 0.17552 -0.79400
C 	C 	0.25050 0.36600 0.96030 -0.06100
C 	C 	0.35850 0.36390 0.00120 -0.05600
C 	C 	0.85923 0.17595 0.42830 0.23600
C 	C 	0.83753 0.14042 0.37415 -0.75600
C 	C 	0.89207 0.20583 0.50786 -0.04400
C 	C 	0.88717 0.24135 0.49740 0.02300
C 	C 	0.84456 0.36414 0.45690 0.02600
C 	C 	0.82564 0.39349 0.44633 -0.02300
C 	C 	0.81052 0.33757 0.37847 0.26700
C 	C 	0.79433 0.30855 0.32448 -0.79400
C 	C 	0.90570 0.29020 0.53970 -0.06300
C 	C 	0.86270 0.35730 0.49880 -0.05400
C 	C 	0.25235 0.32405 0.18328 0.23600
C 	C 	0.23373 0.35958 0.19711 -0.75600
C 	C 	0.30203 0.29417 0.18624 -0.04400
C 	C 	0.25605 0.25865 0.14582 0.02300
C 	C 	0.09276 0.13586 0.98042 0.03000
C 	C 	0.05284 0.10651 0.93215 -0.02400
C 	C 	0.04090 0.16243 0.97295 0.26400
C 	C 	0.01593 0.19145 0.98578 -0.77600
C 	C 	0.24950 0.20980 0.11550 -0.06300
C 	C 	0.14150 0.14270 0.00540 -0.05900
C 	C 	0.64077 0.06907 0.31672 0.23600
C 	C 	0.66247 0.03662 0.30289 -0.75600
C 	C 	0.60793 0.11579 0.31376 -0.04400
C 	C 	0.61283 0.11023 0.35418 0.02300
C 	C 	0.65544 0.11234 0.51958 0.02600
C 	C 	0.67436 0.12069 0.56785 -0.02300
C 	C 	0.68948 0.06795 0.52705 0.26700
C 	C 	0.70567 0.03015 0.51422 -0.79400
C 	C 	0.59430 0.13400 0.38450 -0.06300
C 	C 	0.63730 0.13610 0.49460 -0.05400
C 	C 	0.32405 0.68328 0.75235 0.23600
C 	C 	0.35958 0.69711 0.73373 -0.75600
C 	C 	0.29417 0.68624 0.80203 -0.04400
C 	C 	0.25865 0.64582 0.75605 0.02300
C 	C 	0.13586 0.48042 0.59276 0.02600
C 	C 	0.10651 0.43215 0.55284 -0.02300
C 	C 	0.16243 0.47295 0.54090 0.26700
C 	C 	0.19145 0.48578 0.51593 -0.79400
C 	C 	0.20980 0.61550 0.74950 -0.06300
C 	C 	0.14270 0.50540 0.64150 -0.05400
C 	C 	0.06907 0.81672 0.14077 0.23600
C 	C 	0.03662 0.80289 0.16247 -0.75400
C 	C 	0.11579 0.81376 0.10793 -0.04400
C 	C 	0.11023 0.85418 0.11283 0.02300
C 	C 	0.11234 0.01958 0.15544 0.02900
C 	C 	0.12069 0.06785 0.17436 -0.02400
C 	C 	0.06795 0.02705 0.18948 0.26600
C 	C 	0.03015 0.01422 0.20567 -0.78800
C 	C 	0.13400 0.88450 0.09430 -0.06300
C 	C 	0.13610 0.99460 0.13730 -0.05900
C 	C 	0.43093 0.57170 0.74765 0.23600
C 	C 	0.46338 0.62585 0.76627 -0.75600
C 	C 	0.38421 0.49214 0.69797 -0.04400
C 	C 	0.38977 0.50260 0.74395 0.02300
C 	C 	0.38766 0.54310 0.90724 0.02600
C 	C 	0.37931 0.55367 0.94716 -0.02300
C 	C 	0.43205 0.62153 0.95910 0.26700
C 	C 	0.46985 0.67552 0.98407 -0.79300
C 	C 	0.36600 0.46030 0.75050 -0.06300
C 	C 	0.36390 0.50120 0.85850 -0.05400
C 	C 	0.17595 0.92830 0.35923 0.23600
C 	C 	0.14042 0.87415 0.33753 -0.75600
C 	C 	0.20583 0.00786 0.39207 -0.04100
C 	C 	0.24135 0.99740 0.38717 0.02100
C 	C 	0.36414 0.95690 0.34456 0.02600
C 	C 	0.39349 0.94633 0.32564 -0.02300
C 	C 	0.33757 0.87847 0.31052 0.26700
C 	C 	0.30855 0.82448 0.29433 -0.79400
C 	C 	0.29020 0.03970 0.40570 -0.06200
C 	C 	0.35730 0.99880 0.36270 -0.05500
C 	C 	0.92830 0.85923 0.67595 0.23600
C 	C 	0.87415 0.83753 0.64042 -0.75600
C 	C 	0.00786 0.89207 0.70583 -0.04400
C 	C 	0.99740 0.88717 0.74135 0.02300
C 	C 	0.95690 0.84456 0.86414 0.02600
C 	C 	0.94633 0.82564 0.89349 -0.02300
C 	C 	0.87847 0.81052 0.83757 0.26700
C 	C 	0.82448 0.79433 0.80855 -0.79400
C 	C 	0.03970 0.90570 0.79020 -0.06300
C 	C 	0.99880 0.86270 0.85730 -0.05600
C 	C 	0.57170 0.24765 0.93093 0.23600
C 	C 	0.62585 0.26627 0.96338 -0.75500
C 	C 	0.49214 0.19797 0.88421 -0.04400
C 	C 	0.50260 0.24395 0.88977 0.02300
C 	C 	0.54310 0.40724 0.88766 0.02600
C 	C 	0.55367 0.44716 0.87931 -0.02300
C 	C 	0.62153 0.45910 0.93205 0.26600
C 	C 	0.67552 0.48407 0.96985 -0.79300
C 	C 	0.46030 0.25050 0.86600 -0.06300
C 	C 	0.50120 0.35850 0.86390 -0.05400
C 	C 	0.81672 0.64077 0.56907 0.23600
C 	C 	0.80289 0.66247 0.53662 -0.75600
C 	C 	0.81376 0.60793 0.61579 -0.04400
C 	C 	0.85418 0.61283 0.61023 0.02300
C 	C 	0.01958 0.65544 0.61234 0.02600
C 	C 	0.06785 0.67436 0.62069 -0.02300
C 	C 	0.02705 0.68948 0.56795 0.26700
C 	C 	0.01422 0.70567 0.53015 -0.79500
C 	C 	0.88450 0.59430 0.63400 -0.06300
C 	C 	0.99460 0.63730 0.63610 -0.05500
C 	C 	0.68328 0.25235 0.82405 0.23600
C 	C 	0.69711 0.23373 0.85958 -0.75600
C 	C 	0.68624 0.30203 0.79417 -0.04400
C 	C 	0.64582 0.25605 0.75865 0.02300
C 	C 	0.48042 0.09276 0.63586 0.02600
C 	C 	0.43215 0.05284 0.60651 -0.02300
C 	C 	0.47295 0.04090 0.66243 0.26700
C 	C 	0.48578 0.01593 0.69145 -0.79400
C 	C 	0.61550 0.24950 0.70980 -0.06300
C 	C 	0.50540 0.14150 0.64270 -0.05400
C 	C 	0.93093 0.74765 0.57170 0.23600
C 	C 	0.96338 0.76627 0.62585 -0.75600
C 	C 	0.88421 0.69797 0.49214 -0.04400
C 	C 	0.88977 0.74395 0.50260 0.02300
C 	C 	0.88766 0.90724 0.54310 0.02600
C 	C 	0.87931 0.94716 0.55367 -0.02300
C 	C 	0.93205 0.95910 0.62153 0.26500
C 	C 	0.96985 0.98407 0.67552 -0.78800
C 	C 	0.86600 0.75050 0.46030 -0.06300
C 	C 	0.86390 0.85850 0.50120 -0.05400
C 	C 	0.67595 0.35923 0.92830 0.23600
C 	C 	0.64042 0.33753 0.87415 -0.75600
C 	C 	0.70583 0.39207 0.00786 -0.04100
C 	C 	0.74135 0.38717 0.99740 0.02100
C 	C 	0.86414 0.34456 0.95690 0.02700
C 	C 	0.89349 0.32564 0.94633 -0.02300
C 	C 	0.83757 0.31052 0.87847 0.26700
C 	C 	0.80855 0.29433 0.82448 -0.79400
C 	C 	0.79020 0.40570 0.03970 -0.06100
C 	C 	0.85730 0.36270 0.99880 -0.05800
C 	C 	0.82405 0.75235 0.68328 0.23600
C 	C 	0.85958 0.73373 0.69711 -0.75600
C 	C 	0.79417 0.80203 0.68624 -0.04400
C 	C 	0.75865 0.75605 0.64582 0.02300
C 	C 	0.63586 0.59276 0.48042 0.02600
C 	C 	0.60651 0.55284 0.43215 -0.02300
C 	C 	0.66243 0.54090 0.47295 0.26700
C 	C 	0.69145 0.51593 0.48578 -0.79400
C 	C 	0.70980 0.74950 0.61550 -0.06300
C 	C 	0.64270 0.64150 0.50540 -0.05400
C 	C 	0.56907 0.14077 0.81672 0.23600
C 	C 	0.53662 0.16247 0.80289 -0.75600
C 	C 	0.61579 0.10793 0.81376 -0.04400
C 	C 	0.61023 0.11283 0.85418 0.02300
C 	C 	0.61234 0.15544 0.01958 0.02800
C 	C 	0.62069 0.17436 0.06785 -0.02400
C 	C 	0.56795 0.18948 0.02705 0.26700
C 	C 	0.53015 0.20567 0.01422 -0.79300
C 	C 	0.63400 0.09430 0.88450 -0.06300
C 	C 	0.63610 0.13730 0.99460 -0.05700
C 	C 	0.18328 0.82405 0.25235 0.23600
C 	C 	0.19711 0.85958 0.23373 -0.75600
C 	C 	0.18624 0.79417 0.30203 -0.04400
C 	C 	0.14582 0.75865 0.25605 0.02300
C 	C 	0.98042 0.63586 0.09276 0.03100
C 	C 	0.93215 0.60651 0.05284 -0.02500
C 	C 	0.97295 0.66243 0.04090 0.26500
C 	C 	0.98578 0.69145 0.01593 -0.77800
C 	C 	0.11550 0.70980 0.24950 -0.06300
C 	C 	0.00540 0.64270 0.14150 -0.06100
C 	C 	0.31672 0.56907 0.64077 0.23600
C 	C 	0.30289 0.53662 0.66247 -0.75600
C 	C 	0.31376 0.61579 0.60793 -0.04400
C 	C 	0.35418 0.61023 0.61283 0.02300
C 	C 	0.51958 0.61234 0.65544 0.02600
C 	C 	0.56785 0.62069 0.67436 -0.02300
C 	C 	0.52705 0.56795 0.68948 0.26700
C 	C 	0.51422 0.53015 0.70567 -0.79400
C 	C 	0.38450 0.63400 0.59430 -0.06300
C 	C 	0.49460 0.63610 0.63730 -0.05400
C 	C 	0.07170 0.93093 0.24765 0.23600
C 	C 	0.12585 0.96338 0.26627 -0.75500
C 	C 	0.99214 0.88421 0.19797 -0.03700
C 	C 	0.00260 0.88977 0.24395 0.01800
C 	C 	0.04310 0.88766 0.40724 0.02700
C 	C 	0.05367 0.87931 0.44716 -0.02300
C 	C 	0.12153 0.93205 0.45910 0.26600
C 	C 	0.17552 0.96985 0.48407 -0.79300
C 	C 	0.96030 0.86600 0.25050 -0.05900
C 	C 	0.00120 0.86390 0.35850 -0.05700
C 	C 	0.42830 0.67595 0.85923 0.23600
C 	C 	0.37415 0.64042 0.83753 -0.75600
C 	C 	0.50786 0.70583 0.89207 -0.04400
C 	C 	0.49740 0.74135 0.88717 0.02300
C 	C 	0.45690 0.86414 0.84456 0.02600
C 	C 	0.44633 0.89349 0.82564 -0.02300
C 	C 	0.37847 0.83757 0.81052 0.26700
C 	C 	0.32448 0.80855 0.79433 -0.79400
C 	C 	0.53970 0.79020 0.90570 -0.06300
C 	C 	0.49880 0.85730 0.86270 -0.05400
C 	C 	0.35923 0.42830 0.17595 0.23600
C 	C 	0.33753 0.37415 0.14042 -0.75600
C 	C 	0.39207 0.50786 0.20583 -0.04400
C 	C 	0.38717 0.49740 0.24135 0.02300
C 	C 	0.34456 0.45690 0.36414 0.02600
C 	C 	0.32564 0.44633 0.39349 -0.02300
C 	C 	0.31052 0.37847 0.33757 0.26700
C 	C 	0.29433 0.32448 0.30855 -0.79400
C 	C 	0.40570 0.53970 0.29020 -0.06300
C 	C 	0.36270 0.49880 0.35730 -0.05400
C 	C 	0.74765 0.07170 0.43093 0.23600
C 	C 	0.76627 0.12585 0.46338 -0.75600
C 	C 	0.69797 0.99214 0.38421 -0.04200
C 	C 	0.74395 0.00260 0.38977 0.02200
C 	C 	0.90724 0.04310 0.38766 0.02600
C 	C 	0.94716 0.05367 0.37931 -0.02300
C 	C 	0.95910 0.12153 0.43205 0.26700
C 	C 	0.98407 0.17552 0.46985 -0.79700
C 	C 	0.75050 0.96030 0.36600 -0.06200
C 	C 	0.85850 0.00120 0.36390 -0.05600
C 	C 	0.14077 0.31672 0.06907 0.23600
C 	C 	0.16247 0.30289 0.03662 -0.75500
C 	C 	0.10793 0.31376 0.11579 -0.04400
C 	C 	0.11283 0.35418 0.11023 0.02300
C 	C 	0.15544 0.51958 0.11234 0.02600
C 	C 	0.17436 0.56785 0.12069 -0.02300
C 	C 	0.18948 0.52705 0.06795 0.26600
C 	C 	0.20567 0.51422 0.03015 -0.79300
C 	C 	0.09430 0.38450 0.13400 -0.06300
C 	C 	0.13730 0.49460 0.13610 -0.05500
C 	C 	0.75235 0.18328 0.32405 0.23600
C 	C 	0.73373 0.19711 0.35958 -0.75600
C 	C 	0.80203 0.18624 0.29417 -0.04400
C 	C 	0.75605 0.14582 0.25865 0.02300
C 	C 	0.59276 0.98042 0.13586 0.02600
C 	C 	0.55284 0.93215 0.10651 -0.02300
C 	C 	0.54090 0.97295 0.16243 0.26700
C 	C 	0.51593 0.98578 0.19145 -0.79400
C 	C 	0.74950 0.11550 0.20980 -0.06300
C 	C 	0.64150 0.00540 0.14270 -0.05500
C 	C 	0.75235 0.56907 0.92830 0.23600
C 	C 	0.73373 0.53662 0.87415 -0.75600
C 	C 	0.80203 0.61579 0.00786 -0.04100
C 	C 	0.75605 0.61023 0.99740 0.02100
C 	C 	0.59276 0.61234 0.95690 0.02600
C 	C 	0.55284 0.62069 0.94633 -0.02300
C 	C 	0.54090 0.56795 0.87847 0.26700
C 	C 	0.51593 0.53015 0.82448 -0.79400
C 	C 	0.74950 0.63400 0.03970 -0.06100
C 	C 	0.64150 0.63610 0.99880 -0.05600
C 	C 	0.14077 0.82405 0.57170 0.23600
C 	C 	0.16247 0.85958 0.62585 -0.75600
C 	C 	0.10793 0.79417 0.49214 -0.04400
C 	C 	0.11283 0.75865 0.50260 0.02300
C 	C 	0.15544 0.63586 0.54310 0.02600
C 	C 	0.17436 0.60651 0.55367 -0.02300
C 	C 	0.18948 0.66243 0.62153 0.26700
C 	C 	0.20567 0.69145 0.67552 -0.79400
C 	C 	0.09430 0.70980 0.46030 -0.06300
C 	C 	0.13730 0.64270 0.50120 -0.05400
C 	C 	0.74765 0.67595 0.81672 0.23600
C 	C 	0.76627 0.64042 0.80289 -0.75600
C 	C 	0.69797 0.70583 0.81376 -0.04400
C 	C 	0.74395 0.74135 0.85418 0.02300
C 	C 	0.90724 0.86414 0.01958 0.03000
C 	C 	0.94716 0.89349 0.06785 -0.02400
C 	C 	0.95910 0.83757 0.02705 0.26400
C 	C 	0.98407 0.80855 0.01422 -0.77600
C 	C 	0.75050 0.79020 0.88450 -0.06300
C 	C 	0.85850 0.85730 0.99460 -0.05900
C 	C 	0.35923 0.93093 0.68328 0.23600
C 	C 	0.33753 0.96338 0.69711 -0.75600
C 	C 	0.39207 0.88421 0.68624 -0.04400
C 	C 	0.38717 0.88977 0.64582 0.02300
C 	C 	0.34456 0.88766 0.48042 0.02600
C 	C 	0.32564 0.87931 0.43215 -0.02300
C 	C 	0.31052 0.93205 0.47295 0.26700
C 	C 	0.29433 0.96985 0.48578 -0.79400
C 	C 	0.40570 0.86600 0.61550 -0.06300
C 	C 	0.36270 0.86390 0.50540 -0.05400
C 	C 	0.67595 0.31672 0.24765 0.23600
C 	C 	0.64042 0.30289 0.26627 -0.75600
C 	C 	0.70583 0.31376 0.19797 -0.04400
C 	C 	0.74135 0.35418 0.24395 0.02300
C 	C 	0.86414 0.51958 0.40724 0.02600
C 	C 	0.89349 0.56785 0.44716 -0.02300
C 	C 	0.83757 0.52705 0.45910 0.26700
C 	C 	0.80855 0.51422 0.48407 -0.79400
C 	C 	0.79020 0.38450 0.25050 -0.06300
C 	C 	0.85730 0.49460 0.35850 -0.05400
C 	C 	0.93093 0.18328 0.85923 0.23600
C 	C 	0.96338 0.19711 0.83753 -0.75400
C 	C 	0.88421 0.18624 0.89207 -0.04400
C 	C 	0.88977 0.14582 0.88717 0.02300
C 	C 	0.88766 0.98042 0.84456 0.02900
C 	C 	0.87931 0.93215 0.82564 -0.02400
C 	C 	0.93205 0.97295 0.81052 0.26600
C 	C 	0.96985 0.98578 0.79433 -0.78800
C 	C 	0.86600 0.11550 0.90570 -0.06300
C 	C 	0.86390 0.00540 0.86270 -0.05900
C 	C 	0.56907 0.42830 0.25235 0.23600
C 	C 	0.53662 0.37415 0.23373 -0.75600
C 	C 	0.61579 0.50786 0.30203 -0.04400
C 	C 	0.61023 0.49740 0.25605 0.02300
C 	C 	0.61234 0.45690 0.09276 0.02600
C 	C 	0.62069 0.44633 0.05284 -0.02300
C 	C 	0.56795 0.37847 0.04090 0.26700
C 	C 	0.53015 0.32448 0.01593 -0.79300
C 	C 	0.63400 0.53970 0.24950 -0.06300
C 	C 	0.63610 0.49880 0.14150 -0.05400
C 	C 	0.82405 0.07170 0.64077 0.23600
C 	C 	0.85958 0.12585 0.66247 -0.75600
C 	C 	0.79417 0.99214 0.60793 -0.04100
C 	C 	0.75865 0.00260 0.61283 0.02100
C 	C 	0.63586 0.04310 0.65544 0.02600
C 	C 	0.60651 0.05367 0.67436 -0.02300
C 	C 	0.66243 0.12153 0.68948 0.26700
C 	C 	0.69145 0.17552 0.70567 -0.79400
C 	C 	0.70980 0.96030 0.59430 -0.06200
C 	C 	0.64270 0.00120 0.63730 -0.05500
C 	C 	0.07170 0.14077 0.32405 0.23600
C 	C 	0.12585 0.16247 0.35958 -0.75600
C 	C 	0.99214 0.10793 0.29417 -0.04400
C 	C 	0.00260 0.11283 0.25865 0.02300
C 	C 	0.04310 0.15544 0.13586 0.02600
C 	C 	0.05367 0.17436 0.10651 -0.02300
C 	C 	0.12153 0.18948 0.16243 0.26700
C 	C 	0.17552 0.20567 0.19145 -0.79400
C 	C 	0.96030 0.09430 0.20980 -0.06300
C 	C 	0.00120 0.13730 0.14270 -0.05600
C 	C 	0.42830 0.75235 0.06907 0.23600
C 	C 	0.37415 0.73373 0.03662 -0.75500
C 	C 	0.50786 0.80203 0.11579 -0.04400
C 	C 	0.49740 0.75605 0.11023 0.02300
C 	C 	0.45690 0.59276 0.11234 0.02600
C 	C 	0.44633 0.55284 0.12069 -0.02300
C 	C 	0.37847 0.54090 0.06795 0.26600
C 	C 	0.32448 0.51593 0.03015 -0.79300
C 	C 	0.53970 0.74950 0.13400 -0.06300
C 	C 	0.49880 0.64150 0.13610 -0.05400
C 	C 	0.18328 0.35923 0.43093 0.23600
C 	C 	0.19711 0.33753 0.46338 -0.75600
C 	C 	0.18624 0.39207 0.38421 -0.04400
C 	C 	0.14582 0.38717 0.38977 0.02300
C 	C 	0.98042 0.34456 0.38766 0.02600
C 	C 	0.93215 0.32564 0.37931 -0.02300
C 	C 	0.97295 0.31052 0.43205 0.26700
C 	C 	0.98578 0.29433 0.46985 -0.79500
C 	C 	0.11550 0.40570 0.36600 -0.06300
C 	C 	0.00540 0.36270 0.36390 -0.05500
C 	C 	0.31672 0.74765 0.17595 0.23600
C 	C 	0.30289 0.76627 0.14042 -0.75600
C 	C 	0.31376 0.69797 0.20583 -0.04400
C 	C 	0.35418 0.74395 0.24135 0.02300
C 	C 	0.51958 0.90724 0.36414 0.02600
C 	C 	0.56785 0.94716 0.39349 -0.02300
C 	C 	0.52705 0.95910 0.33757 0.26700
C 	C 	0.51422 0.98407 0.30855 -0.79400
C 	C 	0.38450 0.75050 0.29020 -0.06300
C 	C 	0.49460 0.85850 0.35730 -0.05400
N 	N 	0.08050 0.22375 0.44605 -0.29100
N 	N 	0.08922 0.29944 0.46432 -0.28900
N 	N 	0.07881 0.08473 0.41282 -0.29200
N 	N 	0.09253 0.02036 0.39769 -0.29700
N 	N 	0.14520 0.21560 0.54260 -0.08600
N 	N 	0.12030 0.17230 0.49580 -0.17700
N 	N 	0.27770 0.63445 0.05395 -0.29000
N 	N 	0.33512 0.62490 0.03568 -0.28900
N 	N 	0.17191 0.66599 0.08718 -0.29200
N 	N 	0.12267 0.69484 0.10231 -0.29800
N 	N 	0.17300 0.60260 0.95740 -0.08600
N 	N 	0.17650 0.62450 0.00420 -0.17700
N 	N 	0.22230 0.27625 0.35675 -0.29100
N 	N 	0.16488 0.20056 0.28978 -0.28900
N 	N 	0.32809 0.41527 0.49408 -0.29200
N 	N 	0.37733 0.47964 0.57217 -0.29800
N 	N 	0.32700 0.28440 0.42960 -0.08600
N 	N 	0.32350 0.32770 0.44800 -0.17700
N 	N 	0.41950 0.86555 0.14325 -0.29100
N 	N 	0.41078 0.87510 0.21022 -0.28900
N 	N 	0.42119 0.83401 0.00592 -0.29300
N 	N 	0.40747 0.80516 0.92783 -0.29800
N 	N 	0.35480 0.89740 0.07040 -0.08600
N 	N 	0.37970 0.87550 0.05200 -0.17700
N 	N 	0.85675 0.22230 0.77625 -0.29100
N 	N 	0.78978 0.16488 0.70056 -0.28900
N 	N 	0.99408 0.32809 0.91527 -0.29400
N 	N 	0.07217 0.37733 0.97964 -0.29700
N 	N 	0.92960 0.32700 0.78440 -0.08600
N 	N 	0.94800 0.32350 0.82770 -0.17600
N 	N 	0.64325 0.41950 0.36555 -0.29100
N 	N 	0.71022 0.41078 0.37510 -0.28900
N 	N 	0.50592 0.42119 0.33401 -0.29200
N 	N 	0.42783 0.40747 0.30516 -0.29800
N 	N 	0.57040 0.35480 0.39740 -0.08600
N 	N 	0.55200 0.37970 0.37550 -0.17700
N 	N 	0.94605 0.08050 0.72375 -0.29000
N 	N 	0.96432 0.08922 0.79944 -0.29000
N 	N 	0.91282 0.07881 0.58473 -0.29200
N 	N 	0.89769 0.09253 0.52036 -0.29800
N 	N 	0.04260 0.14520 0.71560 -0.08600
N 	N 	0.99580 0.12030 0.67230 -0.17700
N 	N 	0.55395 0.27770 0.13445 -0.29100
N 	N 	0.53568 0.33512 0.12490 -0.28900
N 	N 	0.58718 0.17191 0.16599 -0.29200
N 	N 	0.60231 0.12267 0.19484 -0.29800
N 	N 	0.45740 0.17300 0.10260 -0.08600
N 	N 	0.50420 0.17650 0.12450 -0.17700
N 	N 	0.63445 0.55395 0.77770 -0.29100
N 	N 	0.62490 0.53568 0.83512 -0.28900
N 	N 	0.66599 0.58718 0.67191 -0.29200
N 	N 	0.69484 0.60231 0.62267 -0.29800
N 	N 	0.60260 0.45740 0.67300 -0.08600
N 	N 	0.62450 0.50420 0.67650 -0.17700
N 	N 	0.22375 0.94605 0.58050 -0.29100
N 	N 	0.29944 0.96432 0.58922 -0.28900
N 	N 	0.08473 0.91282 0.57881 -0.29200
N 	N 	0.02036 0.89769 0.59253 -0.29800
N 	N 	0.21560 0.04260 0.64520 -0.08600
N 	N 	0.17230 0.99580 0.62030 -0.17700
N 	N 	0.86555 0.64325 0.91950 -0.29100
N 	N 	0.87510 0.71022 0.91078 -0.28800
N 	N 	0.83401 0.50592 0.92119 -0.29200
N 	N 	0.80516 0.42783 0.90747 -0.29800
N 	N 	0.89740 0.57040 0.85480 -0.08600
N 	N 	0.87550 0.55200 0.87970 -0.17700
N 	N 	0.27625 0.85675 0.72230 -0.29100
N 	N 	0.20056 0.78978 0.66488 -0.28900
N 	N 	0.41527 0.99408 0.82809 -0.29200
N 	N 	0.47964 0.07217 0.87733 -0.29800
N 	N 	0.28440 0.92960 0.82700 -0.08600
N 	N 	0.32770 0.94800 0.82350 -0.17700
N 	N 	0.27625 0.41950 0.05395 -0.29000
N 	N 	0.20056 0.41078 0.03568 -0.28900
N 	N 	0.41527 0.42119 0.08718 -0.29200
N 	N 	0.47964 0.40747 0.10231 -0.29800
N 	N 	0.28440 0.35480 0.95740 -0.08600
N 	N 	0.32770 0.37970 0.00420 -0.17700
N 	N 	0.86555 0.22230 0.44605 -0.29100
N 	N 	0.87510 0.16488 0.46432 -0.28900
N 	N 	0.83401 0.32809 0.41282 -0.29200
N 	N 	0.80516 0.37733 0.39769 -0.29800
N 	N 	0.89740 0.32700 0.54260 -0.08600
N 	N 	0.87550 0.32350 0.49580 -0.17700
N 	N 	0.22375 0.27770 0.14325 -0.29100
N 	N 	0.29944 0.33512 0.21022 -0.28900
N 	N 	0.08473 0.17191 0.00592 -0.29300
N 	N 	0.02036 0.12267 0.92783 -0.29600
N 	N 	0.21560 0.17300 0.07040 -0.08600
N 	N 	0.17230 0.17650 0.05200 -0.17600
N 	N 	0.63445 0.08050 0.35675 -0.29100
N 	N 	0.62490 0.08922 0.28978 -0.28900
N 	N 	0.66599 0.07881 0.49408 -0.29200
N 	N 	0.69484 0.09253 0.57217 -0.29800
N 	N 	0.60260 0.14520 0.42960 -0.08600
N 	N 	0.62450 0.12030 0.44800 -0.17700
N 	N 	0.27770 0.64325 0.72375 -0.29100
N 	N 	0.33512 0.71022 0.79944 -0.28900
N 	N 	0.17191 0.50592 0.58473 -0.29200
N 	N 	0.12267 0.42783 0.52036 -0.29800
N 	N 	0.17300 0.57040 0.71560 -0.08600
N 	N 	0.17650 0.55200 0.67230 -0.17700
N 	N 	0.08050 0.85675 0.13445 -0.29100
N 	N 	0.08922 0.78978 0.12490 -0.28800
N 	N 	0.07881 0.99408 0.16599 -0.29300
N 	N 	0.09253 0.07217 0.19484 -0.29700
N 	N 	0.14520 0.92960 0.10260 -0.08600
N 	N 	0.12030 0.94800 0.12450 -0.17700
N 	N 	0.41950 0.55395 0.77625 -0.29100
N 	N 	0.41078 0.53568 0.70056 -0.28900
N 	N 	0.42119 0.58718 0.91527 -0.29200
N 	N 	0.40747 0.60231 0.97964 -0.29800
N 	N 	0.35480 0.45740 0.78440 -0.08600
N 	N 	0.37970 0.50420 0.82770 -0.17700
N 	N 	0.22230 0.94605 0.36555 -0.29100
N 	N 	0.16488 0.96432 0.37510 -0.28900
N 	N 	0.32809 0.91282 0.33401 -0.29200
N 	N 	0.37733 0.89769 0.30516 -0.29800
N 	N 	0.32700 0.04260 0.39740 -0.08600
N 	N 	0.32350 0.99580 0.37550 -0.17700
N 	N 	0.94605 0.86555 0.72230 -0.29100
N 	N 	0.96432 0.87510 0.66488 -0.28800
N 	N 	0.91282 0.83401 0.82809 -0.29200
N 	N 	0.89769 0.80516 0.87733 -0.29800
N 	N 	0.04260 0.89740 0.82700 -0.08600
N 	N 	0.99580 0.87550 0.82350 -0.17700
N 	N 	0.55395 0.27625 0.91950 -0.29100
N 	N 	0.53568 0.20056 0.91078 -0.28900
N 	N 	0.58718 0.41527 0.92119 -0.29200
N 	N 	0.60231 0.47964 0.90747 -0.29800
N 	N 	0.45740 0.28440 0.85480 -0.08600
N 	N 	0.50420 0.32770 0.87970 -0.17700
N 	N 	0.85675 0.63445 0.58050 -0.29100
N 	N 	0.78978 0.62490 0.58922 -0.28900
N 	N 	0.99408 0.66599 0.57881 -0.29200
N 	N 	0.07217 0.69484 0.59253 -0.29800
N 	N 	0.92960 0.60260 0.64520 -0.08600
N 	N 	0.94800 0.62450 0.62030 -0.17700
N 	N 	0.64325 0.22375 0.77770 -0.29100
N 	N 	0.71022 0.29944 0.83512 -0.28900
N 	N 	0.50592 0.08473 0.67191 -0.29200
N 	N 	0.42783 0.02036 0.62267 -0.29800
N 	N 	0.57040 0.21560 0.67300 -0.08600
N 	N 	0.55200 0.17230 0.67650 -0.17700
N 	N 	0.91950 0.77625 0.55395 -0.29100
N 	N 	0.91078 0.70056 0.53568 -0.28900
N 	N 	0.92119 0.91527 0.58718 -0.29200
N 	N 	0.90747 0.97964 0.60231 -0.29700
N 	N 	0.85480 0.78440 0.45740 -0.08600
N 	N 	0.87970 0.82770 0.50420 -0.17700
N 	N 	0.72230 0.36555 0.94605 -0.29000
N 	N 	0.66488 0.37510 0.96432 -0.28900
N 	N 	0.82809 0.33401 0.91282 -0.29200
N 	N 	0.87733 0.30516 0.89769 -0.29800
N 	N 	0.82700 0.39740 0.04260 -0.08600
N 	N 	0.82350 0.37550 0.99580 -0.17700
N 	N 	0.77770 0.72375 0.64325 -0.29100
N 	N 	0.83512 0.79944 0.71022 -0.28900
N 	N 	0.67191 0.58473 0.50592 -0.29200
N 	N 	0.62267 0.52036 0.42783 -0.29800
N 	N 	0.67300 0.71560 0.57040 -0.08600
N 	N 	0.67650 0.67230 0.55200 -0.17700
N 	N 	0.58050 0.13445 0.85675 -0.29100
N 	N 	0.58922 0.12490 0.78978 -0.28900
N 	N 	0.57881 0.16599 0.99408 -0.29300
N 	N 	0.59253 0.19484 0.07217 -0.29800
N 	N 	0.64520 0.10260 0.92960 -0.08600
N 	N 	0.62030 0.12450 0.94800 -0.17700
N 	N 	0.14325 0.77770 0.22375 -0.29100
N 	N 	0.21022 0.83512 0.29944 -0.28900
N 	N 	0.00592 0.67191 0.08473 -0.29400
N 	N 	0.92783 0.62267 0.02036 -0.29700
N 	N 	0.07040 0.67300 0.21560 -0.08600
N 	N 	0.05200 0.67650 0.17230 -0.17600
N 	N 	0.35675 0.58050 0.63445 -0.29100
N 	N 	0.28978 0.58922 0.62490 -0.28900
N 	N 	0.49408 0.57881 0.66599 -0.29200
N 	N 	0.57217 0.59253 0.69484 -0.29800
N 	N 	0.42960 0.64520 0.60260 -0.08600
N 	N 	0.44800 0.62030 0.62450 -0.17700
N 	N 	0.05395 0.91950 0.27625 -0.29000
N 	N 	0.03568 0.91078 0.20056 -0.29000
N 	N 	0.08718 0.92119 0.41527 -0.29200
N 	N 	0.10231 0.90747 0.47964 -0.29800
N 	N 	0.95740 0.85480 0.28440 -0.08600
N 	N 	0.00420 0.87970 0.32770 -0.17700
N 	N 	0.44605 0.72230 0.86555 -0.29100
N 	N 	0.46432 0.66488 0.87510 -0.28900
N 	N 	0.41282 0.82809 0.83401 -0.29200
N 	N 	0.39769 0.87733 0.80516 -0.29800
N 	N 	0.54260 0.82700 0.89740 -0.08600
N 	N 	0.49580 0.82350 0.87550 -0.17700
N 	N 	0.36555 0.44605 0.22230 -0.29100
N 	N 	0.37510 0.46432 0.16488 -0.28900
N 	N 	0.33401 0.41282 0.32809 -0.29200
N 	N 	0.30516 0.39769 0.37733 -0.29800
N 	N 	0.39740 0.54260 0.32700 -0.08600
N 	N 	0.37550 0.49580 0.32350 -0.17700
N 	N 	0.77625 0.05395 0.41950 -0.29100
N 	N 	0.70056 0.03568 0.41078 -0.28900
N 	N 	0.91527 0.08718 0.42119 -0.29200
N 	N 	0.97964 0.10231 0.40747 -0.29800
N 	N 	0.78440 0.95740 0.35480 -0.08600
N 	N 	0.82770 0.00420 0.37970 -0.17700
N 	N 	0.13445 0.35675 0.08050 -0.29100
N 	N 	0.12490 0.28978 0.08922 -0.28800
N 	N 	0.16599 0.49408 0.07881 -0.29200
N 	N 	0.19484 0.57217 0.09253 -0.29800
N 	N 	0.10260 0.42960 0.14520 -0.08600
N 	N 	0.12450 0.44800 0.12030 -0.17700
N 	N 	0.72375 0.14325 0.27770 -0.29100
N 	N 	0.79944 0.21022 0.33512 -0.28900
N 	N 	0.58473 0.00592 0.17191 -0.29200
N 	N 	0.52036 0.92783 0.12267 -0.29800
N 	N 	0.71560 0.07040 0.17300 -0.08600
N 	N 	0.67230 0.05200 0.17650 -0.17700
N 	N 	0.72375 0.58050 0.94605 -0.29000
N 	N 	0.79944 0.58922 0.96432 -0.28900
N 	N 	0.58473 0.57881 0.91282 -0.29200
N 	N 	0.52036 0.59253 0.89769 -0.29800
N 	N 	0.71560 0.64520 0.04260 -0.08600
N 	N 	0.67230 0.62030 0.99580 -0.17700
N 	N 	0.13445 0.77770 0.55395 -0.29100
N 	N 	0.12490 0.83512 0.53568 -0.28900
N 	N 	0.16599 0.67191 0.58718 -0.29200
N 	N 	0.19484 0.62267 0.60231 -0.29800
N 	N 	0.10260 0.67300 0.45740 -0.08600
N 	N 	0.12450 0.67650 0.50420 -0.17700
N 	N 	0.77625 0.72230 0.85675 -0.29100
N 	N 	0.70056 0.66488 0.78978 -0.28900
N 	N 	0.91527 0.82809 0.99408 -0.29300
N 	N 	0.97964 0.87733 0.07217 -0.29600
N 	N 	0.78440 0.82700 0.92960 -0.08600
N 	N 	0.82770 0.82350 0.94800 -0.17600
N 	N 	0.36555 0.91950 0.64325 -0.29100
N 	N 	0.37510 0.91078 0.71022 -0.28900
N 	N 	0.33401 0.92119 0.50592 -0.29200
N 	N 	0.30516 0.90747 0.42783 -0.29800
N 	N 	0.39740 0.85480 0.57040 -0.08600
N 	N 	0.37550 0.87970 0.55200 -0.17700
N 	N 	0.72230 0.35675 0.27625 -0.29100
N 	N 	0.66488 0.28978 0.20056 -0.28900
N 	N 	0.82809 0.49408 0.41527 -0.29200
N 	N 	0.87733 0.57217 0.47964 -0.29800
N 	N 	0.82700 0.42960 0.28440 -0.08600
N 	N 	0.82350 0.44800 0.32770 -0.17700
N 	N 	0.91950 0.14325 0.86555 -0.29100
N 	N 	0.91078 0.21022 0.87510 -0.28800
N 	N 	0.92119 0.00592 0.83401 -0.29300
N 	N 	0.90747 0.92783 0.80516 -0.29700
N 	N 	0.85480 0.07040 0.89740 -0.08600
N 	N 	0.87970 0.05200 0.87550 -0.17700
N 	N 	0.58050 0.44605 0.22375 -0.29100
N 	N 	0.58922 0.46432 0.29944 -0.28900
N 	N 	0.57881 0.41282 0.08473 -0.29200
N 	N 	0.59253 0.39769 0.02036 -0.29800
N 	N 	0.64520 0.54260 0.21560 -0.08600
N 	N 	0.62030 0.49580 0.17230 -0.17700
N 	N 	0.77770 0.05395 0.63445 -0.29100
N 	N 	0.83512 0.03568 0.62490 -0.28900
N 	N 	0.67191 0.08718 0.66599 -0.29200
N 	N 	0.62267 0.10231 0.69484 -0.29800
N 	N 	0.67300 0.95740 0.60260 -0.08600
N 	N 	0.67650 0.00420 0.62450 -0.17700
N 	N 	0.05395 0.13445 0.27770 -0.29100
N 	N 	0.03568 0.12490 0.33512 -0.28800
N 	N 	0.08718 0.16599 0.17191 -0.29200
N 	N 	0.10231 0.19484 0.12267 -0.29800
N 	N 	0.95740 0.10260 0.17300 -0.08600
N 	N 	0.00420 0.12450 0.17650 -0.17700
N 	N 	0.44605 0.72375 0.08050 -0.29100
N 	N 	0.46432 0.79944 0.08922 -0.28900
N 	N 	0.41282 0.58473 0.07881 -0.29200
N 	N 	0.39769 0.52036 0.09253 -0.29800
N 	N 	0.54260 0.71560 0.14520 -0.08600
N 	N 	0.49580 0.67230 0.12030 -0.17700
N 	N 	0.14325 0.36555 0.41950 -0.29100
N 	N 	0.21022 0.37510 0.41078 -0.28900
N 	N 	0.00592 0.33401 0.42119 -0.29200
N 	N 	0.92783 0.30516 0.40747 -0.29800
N 	N 	0.07040 0.39740 0.35480 -0.08600
N 	N 	0.05200 0.37550 0.37970 -0.17700
N 	N 	0.35675 0.77625 0.22230 -0.29100
N 	N 	0.28978 0.70056 0.16488 -0.28900
N 	N 	0.49408 0.91527 0.32809 -0.29200
N 	N 	0.57217 0.97964 0.37733 -0.29800
N 	N 	0.42960 0.78440 0.32700 -0.08600
N 	N 	0.44800 0.82770 0.32350 -0.17700
