data_crystal

_cell_length_a 8.91080
_cell_length_b 9.02230
_cell_length_c 15.68370
_cell_angle_alpha 90.00000
_cell_angle_beta  90.00000
_cell_angle_gamma 90.00000

_symmetry_space_group_name_	'P 1'
_symmetry_space_group_name_H-M	'P 1'

loop_
_symmetry_equiv_pos_as_xyz
  x,y,z

loop_
_atom_site_label
_atom_site_type_symbol
_atom_site_fract_x
_atom_site_fract_y
_atom_site_fract_z
_atom_site_charge
Y 	Y 	0.39073 0.03133 0.39609 2.37200
Y 	Y 	0.60927 0.46867 0.89609 2.37300
Y 	Y 	0.89073 0.96867 0.10391 2.37200
Y 	Y 	0.10927 0.53133 0.60391 2.37300
P 	P 	0.06799 0.12751 0.29399 0.52700
P 	P 	0.93201 0.37249 0.79399 0.54200
P 	P 	0.56799 0.87249 0.20601 0.53700
P 	P 	0.43201 0.62751 0.70601 0.53700
H 	H 	0.25240 0.14410 0.18960 0.09200
H 	H 	0.17750 0.30000 0.20320 0.11100
H 	H 	0.22120 0.44070 0.31280 0.18800
H 	H 	0.39140 0.45990 0.33460 0.16600
H 	H 	0.48070 0.37650 0.21630 0.15200
H 	H 	0.48810 0.20570 0.19720 0.15000
H 	H 	0.90390 0.26920 0.32240 0.31500
H 	H 	0.74760 0.35590 0.68960 0.09400
H 	H 	0.82250 0.20000 0.70320 0.11300
H 	H 	0.77880 0.05930 0.81280 0.18900
H 	H 	0.60860 0.04010 0.83460 0.16500
H 	H 	0.51930 0.12350 0.71630 0.15100
H 	H 	0.51190 0.29430 0.69720 0.15000
H 	H 	0.09610 0.23080 0.82240 0.31700
H 	H 	0.75240 0.85590 0.31040 0.09300
H 	H 	0.67750 0.70000 0.29680 0.11200
H 	H 	0.72120 0.55930 0.18720 0.18800
H 	H 	0.89140 0.54010 0.16540 0.16600
H 	H 	0.98070 0.62350 0.28370 0.15300
H 	H 	0.98810 0.79430 0.30280 0.15000
H 	H 	0.40390 0.73080 0.17760 0.31700
H 	H 	0.24760 0.64410 0.81040 0.09400
H 	H 	0.32250 0.80000 0.79680 0.11300
H 	H 	0.27880 0.94070 0.68720 0.19000
H 	H 	0.10860 0.95990 0.66540 0.16900
H 	H 	0.01930 0.87650 0.78370 0.15300
H 	H 	0.01190 0.70570 0.80280 0.14900
H 	H 	0.59610 0.76920 0.67760 0.31700
C 	C 	0.21620 0.21320 0.23230 -0.33600
C 	C 	0.30690 0.39250 0.33900 -0.46000
C 	C 	0.27330 0.36870 0.43050 0.53800
C 	C 	0.48080 0.27890 0.24230 -0.39600
C 	C 	0.61500 0.26440 0.30220 0.41700
C 	C 	0.78380 0.28680 0.73230 -0.33900
C 	C 	0.69310 0.10750 0.83900 -0.45900
C 	C 	0.72670 0.13130 0.93050 0.53800
C 	C 	0.51920 0.22110 0.74230 -0.39600
C 	C 	0.38500 0.23560 0.80220 0.41700
C 	C 	0.71620 0.78680 0.26770 -0.33800
C 	C 	0.80690 0.60750 0.16100 -0.46000
C 	C 	0.77330 0.63130 0.06950 0.53800
C 	C 	0.98080 0.72110 0.25770 -0.40100
C 	C 	0.11500 0.73560 0.19780 0.42100
C 	C 	0.28380 0.71320 0.76770 -0.33800
C 	C 	0.19310 0.89250 0.66100 -0.46100
C 	C 	0.22670 0.86870 0.56950 0.53900
C 	C 	0.01920 0.77890 0.75770 -0.39200
C 	C 	0.88500 0.76440 0.69780 0.41300
N 	N 	0.34210 0.25700 0.28980 -0.06900
N 	N 	0.65790 0.24300 0.78980 -0.06800
N 	N 	0.84210 0.74300 0.21020 -0.06800
N 	N 	0.15790 0.75700 0.71020 -0.06800
O 	O 	0.31370 0.24490 0.46521 -0.59700
O 	O 	0.20800 0.46840 0.47071 -0.61500
O 	O 	0.73940 0.31650 0.27640 -0.35300
O 	O 	0.59920 0.18790 0.37018 -0.55900
O 	O 	0.98320 0.24900 0.34630 -0.50300
O 	O 	0.96490 0.05100 0.23265 -0.59400
O 	O 	0.14580 0.02570 0.35531 -0.55100
O 	O 	0.68630 0.25510 0.96521 -0.59700
O 	O 	0.79200 0.03160 0.97071 -0.61300
O 	O 	0.26060 0.18350 0.77640 -0.35700
O 	O 	0.40080 0.31210 0.87018 -0.56000
O 	O 	0.01680 0.25100 0.84630 -0.51600
O 	O 	0.03510 0.44900 0.73265 -0.60400
O 	O 	0.85420 0.47430 0.85531 -0.55000
O 	O 	0.81370 0.75510 0.03479 -0.59700
O 	O 	0.70800 0.53160 0.02929 -0.61300
O 	O 	0.23940 0.68350 0.22360 -0.35400
O 	O 	0.09920 0.81210 0.12982 -0.55600
O 	O 	0.48320 0.75100 0.15370 -0.50900
O 	O 	0.46490 0.94900 0.26735 -0.59800
O 	O 	0.64580 0.97430 0.14469 -0.54800
O 	O 	0.18630 0.74490 0.53479 -0.59500
O 	O 	0.29200 0.96840 0.52929 -0.61100
O 	O 	0.76060 0.81650 0.72360 -0.35400
O 	O 	0.90080 0.68790 0.62982 -0.55900
O 	O 	0.51680 0.74900 0.65370 -0.50900
O 	O 	0.53510 0.55100 0.76735 -0.60100
O 	O 	0.35420 0.52570 0.64469 -0.54900
