data_crystal

_cell_length_a 8.90620
_cell_length_b 8.94660
_cell_length_c 15.53530
_cell_angle_alpha 90.00000
_cell_angle_beta  90.00000
_cell_angle_gamma 90.00000

_symmetry_space_group_name_	'P 1'
_symmetry_space_group_name_H-M	'P 1'

loop_
_symmetry_equiv_pos_as_xyz
  x,y,z

loop_
_atom_site_label
_atom_site_type_symbol
_atom_site_fract_x
_atom_site_fract_y
_atom_site_fract_z
_atom_site_charge
Lu	Lu	0.38822 0.03214 0.39509 1.18200
Lu	Lu	0.61178 0.46786 0.89509 1.18300
Lu	Lu	0.88822 0.96786 0.10491 1.18100
Lu	Lu	0.11178 0.53214 0.60491 1.18300
P 	P 	0.06669 0.12683 0.29390 0.48700
P 	P 	0.93331 0.37317 0.79390 0.49500
P 	P 	0.56669 0.87317 0.20610 0.49300
P 	P 	0.43331 0.62683 0.70610 0.49300
H 	H 	0.24950 0.14700 0.18770 0.11000
H 	H 	0.17530 0.30390 0.20380 0.11200
H 	H 	0.22080 0.44220 0.31270 0.16000
H 	H 	0.39150 0.46020 0.33440 0.14700
H 	H 	0.48250 0.37920 0.21640 0.14300
H 	H 	0.48790 0.20780 0.19440 0.15100
H 	H 	0.90290 0.27040 0.32380 0.31300
H 	H 	0.75050 0.35300 0.68770 0.11100
H 	H 	0.82470 0.19610 0.70380 0.11300
H 	H 	0.77920 0.05780 0.81270 0.16100
H 	H 	0.60850 0.03980 0.83440 0.14700
H 	H 	0.51750 0.12080 0.71640 0.14300
H 	H 	0.51210 0.29220 0.69440 0.15100
H 	H 	0.09710 0.22960 0.82380 0.31400
H 	H 	0.74950 0.85300 0.31230 0.11100
H 	H 	0.67530 0.69610 0.29620 0.11300
H 	H 	0.72080 0.55780 0.18730 0.16100
H 	H 	0.89150 0.53980 0.16560 0.14700
H 	H 	0.98250 0.62080 0.28360 0.14400
H 	H 	0.98790 0.79220 0.30560 0.15100
H 	H 	0.40290 0.72960 0.17620 0.31400
H 	H 	0.25050 0.64700 0.81230 0.11100
H 	H 	0.32470 0.80390 0.79620 0.11300
H 	H 	0.27920 0.94220 0.68730 0.16200
H 	H 	0.10850 0.96020 0.66560 0.14900
H 	H 	0.01750 0.87920 0.78360 0.14400
H 	H 	0.01210 0.70780 0.80560 0.15100
H 	H 	0.59710 0.77040 0.67620 0.31400
C 	C 	0.21420 0.21510 0.23190 -0.27200
C 	C 	0.30650 0.39280 0.33870 -0.34700
C 	C 	0.27330 0.36580 0.43200 0.44200
C 	C 	0.48130 0.27950 0.24110 -0.33400
C 	C 	0.61480 0.26030 0.30150 0.39700
C 	C 	0.78580 0.28490 0.73190 -0.27300
C 	C 	0.69350 0.10720 0.83870 -0.34700
C 	C 	0.72670 0.13420 0.93200 0.44200
C 	C 	0.51870 0.22050 0.74110 -0.33400
C 	C 	0.38520 0.23970 0.80150 0.39700
C 	C 	0.71420 0.78490 0.26810 -0.27300
C 	C 	0.80650 0.60720 0.16130 -0.34700
C 	C 	0.77330 0.63420 0.06800 0.44200
C 	C 	0.98130 0.72050 0.25890 -0.33600
C 	C 	0.11480 0.73970 0.19850 0.39900
C 	C 	0.28580 0.71510 0.76810 -0.27300
C 	C 	0.19350 0.89280 0.66130 -0.34800
C 	C 	0.22670 0.86580 0.56800 0.44300
C 	C 	0.01870 0.77950 0.75890 -0.33200
C 	C 	0.88520 0.76030 0.69850 0.39400
N 	N 	0.34020 0.25640 0.28930 -0.02900
N 	N 	0.65980 0.24360 0.78930 -0.02900
N 	N 	0.84020 0.74360 0.21070 -0.02900
N 	N 	0.15980 0.75640 0.71070 -0.02900
O 	O 	0.31520 0.24320 0.46560 -0.37700
O 	O 	0.20860 0.46910 0.47190 -0.38700
O 	O 	0.73810 0.31530 0.27790 -0.32300
O 	O 	0.59600 0.18750 0.37070 -0.37000
O 	O 	0.98260 0.24970 0.34740 -0.46600
O 	O 	0.96100 0.04930 0.23340 -0.38900
O 	O 	0.14660 0.02480 0.35560 -0.35400
O 	O 	0.68480 0.25680 0.96560 -0.37700
O 	O 	0.79140 0.03090 0.97190 -0.38600
O 	O 	0.26190 0.18470 0.77790 -0.32500
O 	O 	0.40400 0.31250 0.87070 -0.37100
O 	O 	0.01740 0.25030 0.84740 -0.47200
O 	O 	0.03900 0.45070 0.73340 -0.39400
O 	O 	0.85340 0.47520 0.85560 -0.35300
O 	O 	0.81520 0.75680 0.03440 -0.37600
O 	O 	0.70860 0.53090 0.02810 -0.38600
O 	O 	0.23810 0.68470 0.22210 -0.32400
O 	O 	0.09600 0.81250 0.12930 -0.36900
O 	O 	0.48260 0.75030 0.15260 -0.46900
O 	O 	0.46100 0.95070 0.26660 -0.39100
O 	O 	0.64660 0.97520 0.14440 -0.35200
O 	O 	0.18480 0.74320 0.53440 -0.37600
O 	O 	0.29140 0.96910 0.52810 -0.38500
O 	O 	0.76190 0.81530 0.72210 -0.32400
O 	O 	0.90400 0.68750 0.62930 -0.37100
O 	O 	0.51740 0.74970 0.65260 -0.47000
O 	O 	0.53900 0.54930 0.76660 -0.39300
O 	O 	0.35340 0.52480 0.64440 -0.35200
