data_crystal

_cell_length_a 9.58520
_cell_length_b 20.39410
_cell_length_c 10.53390
_cell_angle_alpha 90.00000
_cell_angle_beta  94.12500
_cell_angle_gamma 90.00000

_symmetry_space_group_name_	'P 1'
_symmetry_space_group_name_H-M	'P 1'

loop_
_symmetry_equiv_pos_as_xyz
  x,y,z

loop_
_atom_site_label
_atom_site_type_symbol
_atom_site_fract_x
_atom_site_fract_y
_atom_site_fract_z
_atom_site_charge
Zn	Zn	0.18166 0.30371 0.36352 1.23300
Zn	Zn	0.30930 0.55121 0.40400 1.23100
Zn	Zn	0.03663 0.56614 0.86604 1.22400
P 	P 	0.09879 0.20143 0.57076 0.45400
H 	H 	0.97500 0.21900 0.52900 -0.07300
P 	P 	0.43584 0.40727 0.42316 0.46400
H 	H 	0.50200 0.43100 0.33300 -0.06300
P 	P 	0.16209 0.55819 0.14032 0.41300
H 	H 	0.11900 0.62500 0.14840 -0.03600
P 	P 	0.11013 0.62036 0.59332 0.48100
H 	H 	0.18700 0.67000 0.58260 -0.06300
O 	O 	0.10000 0.12705 0.57620 -0.46200
O 	O 	0.12830 0.23341 0.69870 -0.45300
O 	O 	0.19900 0.22414 0.47400 -0.39900
O 	O 	0.35950 0.34745 0.37000 -0.43400
O 	O 	0.54500 0.38941 0.52870 -0.43300
O 	O 	0.34020 0.46133 0.46520 -0.45100
O 	O 	0.29990 0.55255 0.22000 -0.42500
O 	O 	0.04680 0.51686 0.19270 -0.45200
O 	O 	0.18030 0.54470 0.00050 -0.42900
O 	O 	0.14440 0.59199 0.72410 -0.45100
O 	O 	0.14150 0.57319 0.48880 -0.42000
O 	O 	0.96040 0.64229 0.56850 -0.45700
Zn	Zn	0.81834 0.80371 0.13648 1.23400
Zn	Zn	0.69070 0.05121 0.09600 1.23100
Zn	Zn	0.96337 0.06614 0.63396 1.22600
P 	P 	0.90121 0.70143 0.92924 0.45600
H 	H 	0.02500 0.71900 0.97100 -0.07400
P 	P 	0.56416 0.90727 0.07684 0.46500
H 	H 	0.49800 0.93100 0.16700 -0.06300
P 	P 	0.83791 0.05819 0.35968 0.41300
H 	H 	0.88100 0.12500 0.35160 -0.03600
P 	P 	0.88987 0.12036 0.90668 0.48200
H 	H 	0.81300 0.17000 0.91740 -0.06300
O 	O 	0.90000 0.62705 0.92380 -0.46300
O 	O 	0.87170 0.73341 0.80130 -0.45200
O 	O 	0.80100 0.72414 0.02600 -0.40000
O 	O 	0.64050 0.84745 0.13000 -0.43400
O 	O 	0.45500 0.88941 0.97130 -0.43300
O 	O 	0.65980 0.96133 0.03480 -0.45100
O 	O 	0.70010 0.05255 0.28000 -0.42500
O 	O 	0.95320 0.01686 0.30730 -0.45400
O 	O 	0.81970 0.04470 0.49950 -0.42900
O 	O 	0.85560 0.09199 0.77590 -0.45100
O 	O 	0.85850 0.07319 0.01120 -0.42300
O 	O 	0.03960 0.14229 0.93150 -0.45700
Zn	Zn	0.81834 0.69629 0.63648 1.23400
Zn	Zn	0.69070 0.44879 0.59600 1.23200
Zn	Zn	0.96337 0.43386 0.13396 1.22500
P 	P 	0.90121 0.79857 0.42924 0.45500
H 	H 	0.02500 0.78100 0.47100 -0.07300
P 	P 	0.56416 0.59273 0.57684 0.46400
H 	H 	0.49800 0.56900 0.66700 -0.06300
P 	P 	0.83791 0.44181 0.85968 0.41300
H 	H 	0.88100 0.37500 0.85160 -0.03600
P 	P 	0.88987 0.37964 0.40668 0.48100
H 	H 	0.81300 0.33000 0.41740 -0.06300
O 	O 	0.90000 0.87295 0.42380 -0.46200
O 	O 	0.87170 0.76659 0.30130 -0.45300
O 	O 	0.80100 0.77586 0.52600 -0.39900
O 	O 	0.64050 0.65255 0.63000 -0.43400
O 	O 	0.45500 0.61059 0.47130 -0.43300
O 	O 	0.65980 0.53867 0.53480 -0.45100
O 	O 	0.70010 0.44745 0.78000 -0.42500
O 	O 	0.95320 0.48314 0.80730 -0.45200
O 	O 	0.81970 0.45530 0.99950 -0.42900
O 	O 	0.85560 0.40801 0.27590 -0.45100
O 	O 	0.85850 0.42681 0.51120 -0.42000
O 	O 	0.03960 0.35771 0.43150 -0.45700
Zn	Zn	0.18166 0.19629 0.86352 1.23400
Zn	Zn	0.30930 0.94879 0.90400 1.23100
Zn	Zn	0.03663 0.93386 0.36604 1.22600
P 	P 	0.09879 0.29857 0.07076 0.45600
H 	H 	0.97500 0.28100 0.02900 -0.07400
P 	P 	0.43584 0.09273 0.92316 0.46500
H 	H 	0.50200 0.06900 0.83300 -0.06300
P 	P 	0.16209 0.94181 0.64032 0.41300
H 	H 	0.11900 0.87500 0.64840 -0.03600
P 	P 	0.11013 0.87964 0.09332 0.48200
H 	H 	0.18700 0.83000 0.08260 -0.06300
O 	O 	0.10000 0.37295 0.07620 -0.46300
O 	O 	0.12830 0.26659 0.19870 -0.45200
O 	O 	0.19900 0.27586 0.97400 -0.40000
O 	O 	0.35950 0.15255 0.87000 -0.43400
O 	O 	0.54500 0.11059 0.02870 -0.43300
O 	O 	0.34020 0.03867 0.96520 -0.45100
O 	O 	0.29990 0.94745 0.72000 -0.42500
O 	O 	0.04680 0.98314 0.69270 -0.45400
O 	O 	0.18030 0.95530 0.50050 -0.42900
O 	O 	0.14440 0.90801 0.22410 -0.45100
O 	O 	0.14150 0.92681 0.98880 -0.42300
O 	O 	0.96040 0.85771 0.06850 -0.45700
