data_crystal

_cell_length_a 29.64100
_cell_length_b 11.99220
_cell_length_c 25.45300
_cell_angle_alpha 90.00000
_cell_angle_beta  118.61300
_cell_angle_gamma 90.00000

_symmetry_space_group_name_	'P 1'
_symmetry_space_group_name_H-M	'P 1'

loop_
_symmetry_equiv_pos_as_xyz
  x,y,z

loop_
_atom_site_label
_atom_site_type_symbol
_atom_site_fract_x
_atom_site_fract_y
_atom_site_fract_z
_atom_site_charge
C 	C 	0.28851 0.00330 0.09990 0.09000
H 	H 	0.32130 0.98160 0.10770 -0.00200
C 	C 	0.20805 0.04680 0.05430 0.00100
H 	H 	0.17480 0.06040 0.02410 0.02400
C 	C 	0.22376 0.05490 0.11350 -0.00400
H 	H 	0.20390 0.07550 0.13120 0.03100
C 	C 	0.30906 0.02410 0.20589 0.04100
C 	C 	0.35902 0.04970 0.22800 -0.01000
H 	H 	0.37210 0.06610 0.20220 0.03400
C 	C 	0.39105 0.05140 0.28960 -0.17900
H 	H 	0.42560 0.06960 0.30510 0.09300
C 	C 	0.37157 0.02620 0.32735 0.22400
C 	C 	0.32081 0.99830 0.30440 -0.16800
H 	H 	0.30790 0.97970 0.33010 0.10300
C 	C 	0.28880 0.99760 0.24370 -0.00700
H 	H 	0.25420 0.97970 0.22810 0.04300
C 	C 	0.45188 0.05250 0.41340 0.22300
C 	C 	0.48390 0.96360 0.42100 -0.16500
H 	H 	0.46990 0.89380 0.40630 0.09700
C 	C 	0.53763 0.97740 0.45070 -0.01800
H 	H 	0.55960 0.91710 0.45820 0.04700
C 	C 	0.55630 0.08370 0.46830 0.05400
C 	C 	0.52453 0.17180 0.45970 -0.01700
H 	H 	0.53820 0.24290 0.47190 0.04000
C 	C 	0.47127 0.15540 0.43250 -0.17700
H 	H 	0.44950 0.21480 0.42770 0.10100
C 	C 	0.64407 0.03560 0.49070 0.09500
H 	H 	0.63460 0.97770 0.46320 0.00200
C 	C 	0.68794 0.15300 0.55800 0.00500
H 	H 	0.71560 0.19210 0.58740 0.01500
C 	C 	0.63915 0.17510 0.54110 0.00300
H 	H 	0.62670 0.23200 0.55540 0.03100
C 	C 	0.27836 0.83950 0.88127 0.09800
H 	H 	0.31200 0.83950 0.91240 0.00200
C 	C 	0.19969 0.87120 0.82970 0.01300
H 	H 	0.16670 0.89770 0.81760 0.03100
C 	C 	0.21279 0.80820 0.79600 0.00300
H 	H 	0.19120 0.78390 0.75720 0.03400
C 	C 	0.29565 0.72730 0.81174 0.05200
C 	C 	0.28257 0.72030 0.75188 -0.01300
H 	H 	0.25210 0.75240 0.72310 0.03900
C 	C 	0.31422 0.66620 0.73460 -0.16800
H 	H 	0.30550 0.66230 0.69440 0.09600
C 	C 	0.35838 0.61850 0.77700 0.21300
C 	C 	0.37072 0.62040 0.83600 -0.17200
H 	H 	0.40040 0.58520 0.86430 0.09200
C 	C 	0.33867 0.67520 0.85390 -0.01800
H 	H 	0.34660 0.67600 0.89390 0.04400
C 	C 	0.44142 0.57770 0.79000 0.20400
C 	C 	0.54540 0.60660 0.84514 0.07800
C 	C 	0.51500 0.69870 0.81600 -0.03400
H 	H 	0.52910 0.76770 0.81530 0.03200
C 	C 	0.46200 0.68040 0.78780 -0.12500
H 	H 	0.43990 0.73860 0.76700 0.07100
C 	C 	0.63476 0.53900 0.89050 0.10200
H 	H 	0.62610 0.46380 0.88440 -0.00500
C 	C 	0.67844 0.68950 0.91610 0.00200
H 	H 	0.70580 0.73940 0.93160 0.01500
C 	C 	0.62757 0.71790 0.88880 0.00200
H 	H 	0.61420 0.78980 0.88200 0.02900
C 	C 	0.27946 0.75130 0.01549 0.21800
Co	Co	0.24529 0.96683 0.96294 1.14000
N 	N 	0.24883 0.01530 0.04518 -0.22700
N 	N 	0.27543 0.02620 0.14243 -0.12700
N 	N 	0.61057 0.09800 0.49838 -0.12900
N 	N 	0.69224 0.06500 0.52649 -0.23900
N 	N 	0.24039 0.89170 0.88356 -0.22700
N 	N 	0.26335 0.78640 0.82920 -0.13000
N 	N 	0.60001 0.62010 0.87333 -0.13700
N 	N 	0.68254 0.57510 0.91690 -0.23900
O 	O 	0.39976 0.03240 0.38857 -0.28000
O 	O 	0.38853 0.56040 0.75781 -0.27800
O 	O 	0.29951 0.83920 0.01278 -0.36200
O 	O 	0.30417 0.66380 0.04097 -0.35800
C 	C 	0.47120 0.49900 0.82010 -0.11300
H 	H 	0.45710 0.43030 0.82110 0.07100
C 	C 	0.52510 0.51240 0.85220 -0.09800
H 	H 	0.54590 0.45660 0.87770 0.06300
C 	C 	0.47080 0.48520 0.79010 -0.04900
H 	H 	0.45600 0.41690 0.77340 0.04500
C 	C 	0.52420 0.50380 0.81750 0.03200
H 	H 	0.54580 0.44760 0.81720 0.02000
C 	C 	0.46030 0.67360 0.81240 -0.02800
H 	H 	0.43900 0.73220 0.81060 0.04100
C 	C 	0.51470 0.68800 0.84010 -0.02000
H 	H 	0.52850 0.75780 0.85500 0.03500
C 	C 	0.78851 0.50330 0.09990 0.09300
H 	H 	0.82130 0.48160 0.10770 -0.00200
C 	C 	0.70805 0.54680 0.05430 0.00200
H 	H 	0.67480 0.56040 0.02410 0.02500
C 	C 	0.72376 0.55490 0.11350 -0.00300
H 	H 	0.70390 0.57550 0.13120 0.03200
C 	C 	0.80906 0.52410 0.20589 0.04300
C 	C 	0.85902 0.54970 0.22800 -0.00900
H 	H 	0.87210 0.56610 0.20220 0.03400
C 	C 	0.89105 0.55140 0.28960 -0.17900
H 	H 	0.92560 0.56960 0.30510 0.09200
C 	C 	0.87157 0.52620 0.32735 0.22500
C 	C 	0.82081 0.49830 0.30440 -0.16900
H 	H 	0.80790 0.47970 0.33010 0.10300
C 	C 	0.78880 0.49760 0.24370 -0.00800
H 	H 	0.75420 0.47970 0.22810 0.04300
C 	C 	0.95188 0.55250 0.41340 0.22300
C 	C 	0.98390 0.46360 0.42100 -0.16600
H 	H 	0.96990 0.39380 0.40630 0.09700
C 	C 	0.03763 0.47740 0.45070 -0.01800
H 	H 	0.05960 0.41710 0.45820 0.04700
C 	C 	0.05630 0.58370 0.46830 0.05300
C 	C 	0.02453 0.67180 0.45970 -0.01700
H 	H 	0.03820 0.74290 0.47190 0.03900
C 	C 	0.97127 0.65540 0.43250 -0.17700
H 	H 	0.94950 0.71480 0.42770 0.10100
C 	C 	0.14407 0.53560 0.49070 0.09400
H 	H 	0.13460 0.47770 0.46320 0.00200
C 	C 	0.18794 0.65300 0.55800 0.00500
H 	H 	0.21560 0.69210 0.58740 0.01500
C 	C 	0.13915 0.67510 0.54110 0.00300
H 	H 	0.12670 0.73200 0.55540 0.03100
C 	C 	0.77836 0.33950 0.88127 0.09900
H 	H 	0.81200 0.33950 0.91240 0.00300
C 	C 	0.69969 0.37120 0.82970 0.01300
H 	H 	0.66670 0.39770 0.81760 0.03200
C 	C 	0.71279 0.30820 0.79600 0.00300
H 	H 	0.69120 0.28390 0.75720 0.03400
C 	C 	0.79565 0.22730 0.81174 0.05200
C 	C 	0.78257 0.22030 0.75188 -0.01300
H 	H 	0.75210 0.25240 0.72310 0.03900
C 	C 	0.81422 0.16620 0.73460 -0.16800
H 	H 	0.80550 0.16230 0.69440 0.09600
C 	C 	0.85838 0.11850 0.77700 0.21400
C 	C 	0.87072 0.12040 0.83600 -0.17200
H 	H 	0.90040 0.08520 0.86430 0.09300
C 	C 	0.83867 0.17520 0.85390 -0.01800
H 	H 	0.84660 0.17600 0.89390 0.04400
C 	C 	0.94142 0.07770 0.79000 0.20800
C 	C 	0.04540 0.10660 0.84514 0.07500
C 	C 	0.01500 0.19870 0.81600 -0.03200
H 	H 	0.02910 0.26770 0.81530 0.03200
C 	C 	0.96200 0.18040 0.78780 -0.12600
H 	H 	0.93990 0.23860 0.76700 0.07100
C 	C 	0.13476 0.03900 0.89050 0.10600
H 	H 	0.12610 0.96380 0.88440 -0.00700
C 	C 	0.17844 0.18950 0.91610 0.00300
H 	H 	0.20580 0.23940 0.93160 0.01500
C 	C 	0.12757 0.21790 0.88880 0.00200
H 	H 	0.11420 0.28980 0.88200 0.02900
C 	C 	0.77946 0.25130 0.01549 0.21600
Co	Co	0.74529 0.46683 0.96294 1.14100
N 	N 	0.74883 0.51530 0.04518 -0.22700
N 	N 	0.77543 0.52620 0.14243 -0.12800
N 	N 	0.11057 0.59800 0.49838 -0.12900
N 	N 	0.19224 0.56500 0.52649 -0.23900
N 	N 	0.74039 0.39170 0.88356 -0.22600
N 	N 	0.76335 0.28640 0.82920 -0.13000
N 	N 	0.10001 0.12010 0.87333 -0.13700
N 	N 	0.18254 0.07510 0.91690 -0.23900
O 	O 	0.89976 0.53240 0.38857 -0.28000
O 	O 	0.88853 0.06040 0.75781 -0.27900
O 	O 	0.79951 0.33920 0.01278 -0.36200
O 	O 	0.80417 0.16380 0.04097 -0.35800
C 	C 	0.97120 0.99900 0.82010 -0.11500
H 	H 	0.95710 0.93030 0.82110 0.07200
C 	C 	0.02510 0.01240 0.85220 -0.09600
H 	H 	0.04590 0.95660 0.87770 0.06100
C 	C 	0.97080 0.98520 0.79010 -0.05300
H 	H 	0.95600 0.91690 0.77340 0.04600
C 	C 	0.02420 0.00380 0.81750 0.03800
H 	H 	0.04580 0.94760 0.81720 0.01700
C 	C 	0.96030 0.17360 0.81240 -0.02900
H 	H 	0.93900 0.23220 0.81060 0.04200
C 	C 	0.01470 0.18800 0.84010 -0.02000
H 	H 	0.02850 0.25780 0.85500 0.03500
C 	C 	0.71149 0.00330 0.40010 0.09300
H 	H 	0.67870 0.98160 0.39230 -0.00200
C 	C 	0.79195 0.04680 0.44570 0.00200
H 	H 	0.82520 0.06040 0.47590 0.02500
C 	C 	0.77624 0.05490 0.38650 -0.00300
H 	H 	0.79610 0.07550 0.36880 0.03200
C 	C 	0.69094 0.02410 0.29411 0.04300
C 	C 	0.64098 0.04970 0.27200 -0.01000
H 	H 	0.62790 0.06610 0.29780 0.03400
C 	C 	0.60895 0.05140 0.21040 -0.17800
H 	H 	0.57440 0.06960 0.19490 0.09200
C 	C 	0.62843 0.02620 0.17265 0.22300
C 	C 	0.67919 0.99830 0.19560 -0.16600
H 	H 	0.69210 0.97970 0.16990 0.10200
C 	C 	0.71120 0.99760 0.25630 -0.00800
H 	H 	0.74580 0.97970 0.27190 0.04300
C 	C 	0.54812 0.05250 0.08660 0.22100
C 	C 	0.51610 0.96360 0.07900 -0.16400
H 	H 	0.53010 0.89380 0.09370 0.09700
C 	C 	0.46237 0.97740 0.04930 -0.01600
H 	H 	0.44040 0.91710 0.04180 0.04700
C 	C 	0.44370 0.08370 0.03170 0.05100
C 	C 	0.47547 0.17180 0.04030 -0.01600
H 	H 	0.46180 0.24290 0.02810 0.03900
C 	C 	0.52873 0.15540 0.06750 -0.17700
H 	H 	0.55050 0.21480 0.07230 0.10100
C 	C 	0.35593 0.03560 0.00930 0.09000
H 	H 	0.36540 0.97770 0.03680 0.00500
C 	C 	0.31206 0.15300 0.94200 0.00400
H 	H 	0.28440 0.19210 0.91260 0.01500
C 	C 	0.36085 0.17510 0.95890 0.00500
H 	H 	0.37330 0.23200 0.94460 0.03100
C 	C 	0.72164 0.83950 0.61873 0.09800
H 	H 	0.68800 0.83950 0.58760 0.00300
C 	C 	0.80031 0.87120 0.67030 0.01300
H 	H 	0.83330 0.89770 0.68240 0.03100
C 	C 	0.78721 0.80820 0.70400 0.00300
H 	H 	0.80880 0.78390 0.74280 0.03400
C 	C 	0.70435 0.72730 0.68826 0.05200
C 	C 	0.71743 0.72030 0.74812 -0.01400
H 	H 	0.74790 0.75240 0.77690 0.03900
C 	C 	0.68578 0.66620 0.76540 -0.16800
H 	H 	0.69450 0.66230 0.80560 0.09600
C 	C 	0.64162 0.61850 0.72300 0.21300
C 	C 	0.62928 0.62040 0.66400 -0.17200
H 	H 	0.59960 0.58520 0.63570 0.09200
C 	C 	0.66133 0.67520 0.64610 -0.01800
H 	H 	0.65340 0.67600 0.60610 0.04400
C 	C 	0.55858 0.57770 0.71000 0.20400
C 	C 	0.45460 0.60660 0.65486 0.07800
C 	C 	0.48500 0.69870 0.68400 -0.03400
H 	H 	0.47090 0.76770 0.68470 0.03300
C 	C 	0.53800 0.68040 0.71220 -0.12500
H 	H 	0.56010 0.73860 0.73300 0.07100
C 	C 	0.36524 0.53900 0.60950 0.10200
H 	H 	0.37390 0.46380 0.61560 -0.00500
C 	C 	0.32156 0.68950 0.58390 0.00200
H 	H 	0.29420 0.73940 0.56840 0.01500
C 	C 	0.37243 0.71790 0.61120 0.00200
H 	H 	0.38580 0.78980 0.61800 0.02900
C 	C 	0.72054 0.75130 0.48451 0.21700
Co	Co	0.75471 0.96683 0.53706 1.14100
N 	N 	0.75117 0.01530 0.45482 -0.22700
N 	N 	0.72457 0.02620 0.35757 -0.12800
N 	N 	0.38943 0.09800 0.00162 -0.12900
N 	N 	0.30776 0.06500 0.97351 -0.23700
N 	N 	0.75961 0.89170 0.61644 -0.22600
N 	N 	0.73665 0.78640 0.67080 -0.13000
N 	N 	0.39999 0.62010 0.62667 -0.13700
N 	N 	0.31746 0.57510 0.58310 -0.23900
O 	O 	0.60024 0.03240 0.11143 -0.27900
O 	O 	0.61147 0.56040 0.74219 -0.27800
O 	O 	0.70049 0.83920 0.48722 -0.36200
O 	O 	0.69583 0.66380 0.45903 -0.35800
C 	C 	0.52880 0.49900 0.67990 -0.11300
H 	H 	0.54290 0.43030 0.67890 0.07100
C 	C 	0.47490 0.51240 0.64780 -0.09800
H 	H 	0.45410 0.45660 0.62230 0.06300
C 	C 	0.52920 0.48520 0.70990 -0.04900
H 	H 	0.54400 0.41690 0.72660 0.04500
C 	C 	0.47580 0.50380 0.68250 0.03200
H 	H 	0.45420 0.44760 0.68280 0.02000
C 	C 	0.53970 0.67360 0.68760 -0.02800
H 	H 	0.56100 0.73220 0.68940 0.04100
C 	C 	0.48530 0.68800 0.65990 -0.02000
H 	H 	0.47150 0.75780 0.64500 0.03500
C 	C 	0.21149 0.50330 0.40010 0.09300
H 	H 	0.17870 0.48160 0.39230 -0.00200
C 	C 	0.29195 0.54680 0.44570 0.00200
H 	H 	0.32520 0.56040 0.47590 0.02500
C 	C 	0.27624 0.55490 0.38650 -0.00300
H 	H 	0.29610 0.57550 0.36880 0.03200
C 	C 	0.19094 0.52410 0.29411 0.04300
C 	C 	0.14098 0.54970 0.27200 -0.00900
H 	H 	0.12790 0.56610 0.29780 0.03400
C 	C 	0.10895 0.55140 0.21040 -0.17900
H 	H 	0.07440 0.56960 0.19490 0.09200
C 	C 	0.12843 0.52620 0.17265 0.22500
C 	C 	0.17919 0.49830 0.19560 -0.16900
H 	H 	0.19210 0.47970 0.16990 0.10300
C 	C 	0.21120 0.49760 0.25630 -0.00800
H 	H 	0.24580 0.47970 0.27190 0.04300
C 	C 	0.04812 0.55250 0.08660 0.22300
C 	C 	0.01610 0.46360 0.07900 -0.16600
H 	H 	0.03010 0.39380 0.09370 0.09700
C 	C 	0.96237 0.47740 0.04930 -0.01800
H 	H 	0.94040 0.41710 0.04180 0.04700
C 	C 	0.94370 0.58370 0.03170 0.05400
C 	C 	0.97547 0.67180 0.04030 -0.01700
H 	H 	0.96180 0.74290 0.02810 0.04000
C 	C 	0.02873 0.65540 0.06750 -0.17700
H 	H 	0.05050 0.71480 0.07230 0.10100
C 	C 	0.85593 0.53560 0.00930 0.09500
H 	H 	0.86540 0.47770 0.03680 0.00200
C 	C 	0.81206 0.65300 0.94200 0.00500
H 	H 	0.78440 0.69210 0.91260 0.01500
C 	C 	0.86085 0.67510 0.95890 0.00300
H 	H 	0.87330 0.73200 0.94460 0.03100
C 	C 	0.22164 0.33950 0.61873 0.09900
H 	H 	0.18800 0.33950 0.58760 0.00300
C 	C 	0.30031 0.37120 0.67030 0.01300
H 	H 	0.33330 0.39770 0.68240 0.03200
C 	C 	0.28721 0.30820 0.70400 0.00300
H 	H 	0.30880 0.28390 0.74280 0.03400
C 	C 	0.20435 0.22730 0.68826 0.05200
C 	C 	0.21743 0.22030 0.74812 -0.01300
H 	H 	0.24790 0.25240 0.77690 0.03900
C 	C 	0.18578 0.16620 0.76540 -0.16800
H 	H 	0.19450 0.16230 0.80560 0.09600
C 	C 	0.14162 0.11850 0.72300 0.21400
C 	C 	0.12928 0.12040 0.66400 -0.17200
H 	H 	0.09960 0.08520 0.63570 0.09200
C 	C 	0.16133 0.17520 0.64610 -0.01800
H 	H 	0.15340 0.17600 0.60610 0.04400
C 	C 	0.05858 0.07770 0.71000 0.20700
C 	C 	0.95460 0.10660 0.65486 0.07600
C 	C 	0.98500 0.19870 0.68400 -0.03300
H 	H 	0.97090 0.26770 0.68470 0.03200
C 	C 	0.03800 0.18040 0.71220 -0.12500
H 	H 	0.06010 0.23860 0.73300 0.07100
C 	C 	0.86524 0.03900 0.60950 0.10300
H 	H 	0.87390 0.96380 0.61560 -0.00600
C 	C 	0.82156 0.18950 0.58390 0.00300
H 	H 	0.79420 0.23940 0.56840 0.01500
C 	C 	0.87243 0.21790 0.61120 0.00200
H 	H 	0.88580 0.28980 0.61800 0.02900
C 	C 	0.22054 0.25130 0.48451 0.21700
Co	Co	0.25471 0.46683 0.53706 1.14100
N 	N 	0.25117 0.51530 0.45482 -0.22700
N 	N 	0.22457 0.52620 0.35757 -0.12800
N 	N 	0.88943 0.59800 0.00162 -0.12900
N 	N 	0.80776 0.56500 0.97351 -0.23900
N 	N 	0.25961 0.39170 0.61644 -0.22600
N 	N 	0.23665 0.28640 0.67080 -0.13000
N 	N 	0.89999 0.12010 0.62667 -0.13700
N 	N 	0.81746 0.07510 0.58310 -0.23900
O 	O 	0.10024 0.53240 0.11143 -0.28000
O 	O 	0.11147 0.06040 0.74219 -0.27900
O 	O 	0.20049 0.33920 0.48722 -0.36200
O 	O 	0.19583 0.16380 0.45903 -0.35800
C 	C 	0.02880 0.99900 0.67990 -0.11600
H 	H 	0.04290 0.93030 0.67890 0.07200
C 	C 	0.97490 0.01240 0.64780 -0.09700
H 	H 	0.95410 0.95660 0.62230 0.06200
C 	C 	0.02920 0.98520 0.70990 -0.05000
H 	H 	0.04400 0.91690 0.72660 0.04500
C 	C 	0.97580 0.00380 0.68250 0.03600
H 	H 	0.95420 0.94760 0.68280 0.01800
C 	C 	0.03970 0.17360 0.68760 -0.02900
H 	H 	0.06100 0.23220 0.68940 0.04200
C 	C 	0.98530 0.18800 0.65990 -0.02000
H 	H 	0.97150 0.25780 0.64500 0.03500
C 	C 	0.71149 0.99670 0.90010 0.09100
H 	H 	0.67870 0.01840 0.89230 -0.00100
C 	C 	0.79195 0.95320 0.94570 0.00200
H 	H 	0.82520 0.93960 0.97590 0.02500
C 	C 	0.77624 0.94510 0.88650 -0.00300
H 	H 	0.79610 0.92450 0.86880 0.03200
C 	C 	0.69094 0.97590 0.79411 0.04200
C 	C 	0.64098 0.95030 0.77200 -0.00900
H 	H 	0.62790 0.93390 0.79780 0.03400
C 	C 	0.60895 0.94860 0.71040 -0.17900
H 	H 	0.57440 0.93040 0.69490 0.09300
C 	C 	0.62843 0.97380 0.67265 0.22400
C 	C 	0.67919 0.00170 0.69560 -0.16800
H 	H 	0.69210 0.02030 0.66990 0.10300
C 	C 	0.71120 0.00240 0.75630 -0.00700
H 	H 	0.74580 0.02030 0.77190 0.04300
C 	C 	0.54812 0.94750 0.58660 0.22300
C 	C 	0.51610 0.03640 0.57900 -0.16500
H 	H 	0.53010 0.10620 0.59370 0.09700
C 	C 	0.46237 0.02260 0.54930 -0.01800
H 	H 	0.44040 0.08290 0.54180 0.04700
C 	C 	0.44370 0.91630 0.53170 0.05400
C 	C 	0.47547 0.82820 0.54030 -0.01700
H 	H 	0.46180 0.75710 0.52810 0.04000
C 	C 	0.52873 0.84460 0.56750 -0.17700
H 	H 	0.55050 0.78520 0.57230 0.10100
C 	C 	0.35593 0.96440 0.50930 0.09500
H 	H 	0.36540 0.02230 0.53680 0.00200
C 	C 	0.31206 0.84700 0.44200 0.00500
H 	H 	0.28440 0.80790 0.41260 0.01500
C 	C 	0.36085 0.82490 0.45890 0.00300
H 	H 	0.37330 0.76800 0.44460 0.03100
C 	C 	0.72164 0.16050 0.11873 0.09800
H 	H 	0.68800 0.16050 0.08760 0.00200
C 	C 	0.80031 0.12880 0.17030 0.01300
H 	H 	0.83330 0.10230 0.18240 0.03100
C 	C 	0.78721 0.19180 0.20400 0.00300
H 	H 	0.80880 0.21610 0.24280 0.03400
C 	C 	0.70435 0.27270 0.18826 0.05200
C 	C 	0.71743 0.27970 0.24812 -0.01300
H 	H 	0.74790 0.24760 0.27690 0.03900
C 	C 	0.68578 0.33380 0.26540 -0.16800
H 	H 	0.69450 0.33770 0.30560 0.09600
C 	C 	0.64162 0.38150 0.22300 0.21300
C 	C 	0.62928 0.37960 0.16400 -0.17200
H 	H 	0.59960 0.41480 0.13570 0.09200
C 	C 	0.66133 0.32480 0.14610 -0.01800
H 	H 	0.65340 0.32400 0.10610 0.04400
C 	C 	0.55858 0.42230 0.21000 0.20400
C 	C 	0.45460 0.39340 0.15486 0.07800
C 	C 	0.48500 0.30130 0.18400 -0.03400
H 	H 	0.47090 0.23230 0.18470 0.03200
C 	C 	0.53800 0.31960 0.21220 -0.12500
H 	H 	0.56010 0.26140 0.23300 0.07100
C 	C 	0.36524 0.46100 0.10950 0.10200
H 	H 	0.37390 0.53620 0.11560 -0.00500
C 	C 	0.32156 0.31050 0.08390 0.00200
H 	H 	0.29420 0.26060 0.06840 0.01500
C 	C 	0.37243 0.28210 0.11120 0.00200
H 	H 	0.38580 0.21020 0.11800 0.02900
C 	C 	0.72054 0.24870 0.98451 0.21800
Co	Co	0.75471 0.03317 0.03706 1.14000
N 	N 	0.75117 0.98470 0.95482 -0.22700
N 	N 	0.72457 0.97380 0.85757 -0.12700
N 	N 	0.38943 0.90200 0.50162 -0.12900
N 	N 	0.30776 0.93500 0.47351 -0.23900
N 	N 	0.75961 0.10830 0.11644 -0.22700
N 	N 	0.73665 0.21360 0.17080 -0.13000
N 	N 	0.39999 0.37990 0.12667 -0.13700
N 	N 	0.31746 0.42490 0.08310 -0.23900
O 	O 	0.60024 0.96760 0.61143 -0.28000
O 	O 	0.61147 0.43960 0.24219 -0.27800
O 	O 	0.70049 0.16080 0.98722 -0.36200
O 	O 	0.69583 0.33620 0.95903 -0.35800
C 	C 	0.52880 0.50100 0.17990 -0.11300
H 	H 	0.54290 0.56970 0.17890 0.07100
C 	C 	0.47490 0.48760 0.14780 -0.09800
H 	H 	0.45410 0.54340 0.12230 0.06300
C 	C 	0.52920 0.51480 0.20990 -0.04900
H 	H 	0.54400 0.58310 0.22660 0.04500
C 	C 	0.47580 0.49620 0.18250 0.03200
H 	H 	0.45420 0.55240 0.18280 0.02000
C 	C 	0.53970 0.32640 0.18760 -0.02800
H 	H 	0.56100 0.26780 0.18940 0.04100
C 	C 	0.48530 0.31200 0.15990 -0.02000
H 	H 	0.47150 0.24220 0.14500 0.03500
C 	C 	0.21149 0.49670 0.90010 0.09300
H 	H 	0.17870 0.51840 0.89230 -0.00200
C 	C 	0.29195 0.45320 0.94570 0.00200
H 	H 	0.32520 0.43960 0.97590 0.02500
C 	C 	0.27624 0.44510 0.88650 -0.00300
H 	H 	0.29610 0.42450 0.86880 0.03200
C 	C 	0.19094 0.47590 0.79411 0.04300
C 	C 	0.14098 0.45030 0.77200 -0.00900
H 	H 	0.12790 0.43390 0.79780 0.03400
C 	C 	0.10895 0.44860 0.71040 -0.17900
H 	H 	0.07440 0.43040 0.69490 0.09200
C 	C 	0.12843 0.47380 0.67265 0.22500
C 	C 	0.17919 0.50170 0.69560 -0.16900
H 	H 	0.19210 0.52030 0.66990 0.10300
C 	C 	0.21120 0.50240 0.75630 -0.00800
H 	H 	0.24580 0.52030 0.77190 0.04300
C 	C 	0.04812 0.44750 0.58660 0.22300
C 	C 	0.01610 0.53640 0.57900 -0.16600
H 	H 	0.03010 0.60620 0.59370 0.09700
C 	C 	0.96237 0.52260 0.54930 -0.01800
H 	H 	0.94040 0.58290 0.54180 0.04700
C 	C 	0.94370 0.41630 0.53170 0.05300
C 	C 	0.97547 0.32820 0.54030 -0.01700
H 	H 	0.96180 0.25710 0.52810 0.03900
C 	C 	0.02873 0.34460 0.56750 -0.17700
H 	H 	0.05050 0.28520 0.57230 0.10100
C 	C 	0.85593 0.46440 0.50930 0.09400
H 	H 	0.86540 0.52230 0.53680 0.00200
C 	C 	0.81206 0.34700 0.44200 0.00500
H 	H 	0.78440 0.30790 0.41260 0.01500
C 	C 	0.86085 0.32490 0.45890 0.00300
H 	H 	0.87330 0.26800 0.44460 0.03100
C 	C 	0.22164 0.66050 0.11873 0.09900
H 	H 	0.18800 0.66050 0.08760 0.00300
C 	C 	0.30031 0.62880 0.17030 0.01300
H 	H 	0.33330 0.60230 0.18240 0.03200
C 	C 	0.28721 0.69180 0.20400 0.00300
H 	H 	0.30880 0.71610 0.24280 0.03400
C 	C 	0.20435 0.77270 0.18826 0.05200
C 	C 	0.21743 0.77970 0.24812 -0.01300
H 	H 	0.24790 0.74760 0.27690 0.03900
C 	C 	0.18578 0.83380 0.26540 -0.16800
H 	H 	0.19450 0.83770 0.30560 0.09600
C 	C 	0.14162 0.88150 0.22300 0.21400
C 	C 	0.12928 0.87960 0.16400 -0.17200
H 	H 	0.09960 0.91480 0.13570 0.09300
C 	C 	0.16133 0.82480 0.14610 -0.01800
H 	H 	0.15340 0.82400 0.10610 0.04400
C 	C 	0.05858 0.92230 0.21000 0.20800
C 	C 	0.95460 0.89340 0.15486 0.07500
C 	C 	0.98500 0.80130 0.18400 -0.03200
H 	H 	0.97090 0.73230 0.18470 0.03200
C 	C 	0.03800 0.81960 0.21220 -0.12600
H 	H 	0.06010 0.76140 0.23300 0.07100
C 	C 	0.86524 0.96100 0.10950 0.10600
H 	H 	0.87390 0.03620 0.11560 -0.00700
C 	C 	0.82156 0.81050 0.08390 0.00300
H 	H 	0.79420 0.76060 0.06840 0.01500
C 	C 	0.87243 0.78210 0.11120 0.00200
H 	H 	0.88580 0.71020 0.11800 0.02900
C 	C 	0.22054 0.74870 0.98451 0.21600
Co	Co	0.25471 0.53317 0.03706 1.14100
N 	N 	0.25117 0.48470 0.95482 -0.22700
N 	N 	0.22457 0.47380 0.85757 -0.12800
N 	N 	0.88943 0.40200 0.50162 -0.12900
N 	N 	0.80776 0.43500 0.47351 -0.23900
N 	N 	0.25961 0.60830 0.11644 -0.22600
N 	N 	0.23665 0.71360 0.17080 -0.13000
N 	N 	0.89999 0.87990 0.12667 -0.13700
N 	N 	0.81746 0.92490 0.08310 -0.23900
O 	O 	0.10024 0.46760 0.61143 -0.28000
O 	O 	0.11147 0.93960 0.24219 -0.27900
O 	O 	0.20049 0.66080 0.98722 -0.36200
O 	O 	0.19583 0.83620 0.95903 -0.35800
C 	C 	0.02880 0.00100 0.17990 -0.11500
H 	H 	0.04290 0.06970 0.17890 0.07200
C 	C 	0.97490 0.98760 0.14780 -0.09600
H 	H 	0.95410 0.04340 0.12230 0.06100
C 	C 	0.02920 0.01480 0.20990 -0.05300
H 	H 	0.04400 0.08310 0.22660 0.04600
C 	C 	0.97580 0.99620 0.18250 0.03800
H 	H 	0.95420 0.05240 0.18280 0.01700
C 	C 	0.03970 0.82640 0.18760 -0.02900
H 	H 	0.06100 0.76780 0.18940 0.04200
C 	C 	0.98530 0.81200 0.15990 -0.02000
H 	H 	0.97150 0.74220 0.14500 0.03500
C 	C 	0.28851 0.99670 0.59990 0.09300
H 	H 	0.32130 0.01840 0.60770 -0.00200
C 	C 	0.20805 0.95320 0.55430 0.00200
H 	H 	0.17480 0.93960 0.52410 0.02500
C 	C 	0.22376 0.94510 0.61350 -0.00300
H 	H 	0.20390 0.92450 0.63120 0.03200
C 	C 	0.30906 0.97590 0.70589 0.04300
C 	C 	0.35902 0.95030 0.72800 -0.01000
H 	H 	0.37210 0.93390 0.70220 0.03400
C 	C 	0.39105 0.94860 0.78960 -0.17800
H 	H 	0.42560 0.93040 0.80510 0.09200
C 	C 	0.37157 0.97380 0.82735 0.22300
C 	C 	0.32081 0.00170 0.80440 -0.16600
H 	H 	0.30790 0.02030 0.83010 0.10200
C 	C 	0.28880 0.00240 0.74370 -0.00800
H 	H 	0.25420 0.02030 0.72810 0.04300
C 	C 	0.45188 0.94750 0.91340 0.22100
C 	C 	0.48390 0.03640 0.92100 -0.16400
H 	H 	0.46990 0.10620 0.90630 0.09700
C 	C 	0.53763 0.02260 0.95070 -0.01600
H 	H 	0.55960 0.08290 0.95820 0.04700
C 	C 	0.55630 0.91630 0.96830 0.05100
C 	C 	0.52453 0.82820 0.95970 -0.01600
H 	H 	0.53820 0.75710 0.97190 0.03900
C 	C 	0.47127 0.84460 0.93250 -0.17700
H 	H 	0.44950 0.78520 0.92770 0.10100
C 	C 	0.64407 0.96440 0.99070 0.09000
H 	H 	0.63460 0.02230 0.96320 0.00500
C 	C 	0.68794 0.84700 0.05800 0.00400
H 	H 	0.71560 0.80790 0.08740 0.01500
C 	C 	0.63915 0.82490 0.04110 0.00500
H 	H 	0.62670 0.76800 0.05540 0.03100
C 	C 	0.27836 0.16050 0.38127 0.09800
H 	H 	0.31200 0.16050 0.41240 0.00300
C 	C 	0.19969 0.12880 0.32970 0.01300
H 	H 	0.16670 0.10230 0.31760 0.03100
C 	C 	0.21279 0.19180 0.29600 0.00300
H 	H 	0.19120 0.21610 0.25720 0.03400
C 	C 	0.29565 0.27270 0.31174 0.05200
C 	C 	0.28257 0.27970 0.25188 -0.01400
H 	H 	0.25210 0.24760 0.22310 0.03900
C 	C 	0.31422 0.33380 0.23460 -0.16800
H 	H 	0.30550 0.33770 0.19440 0.09600
C 	C 	0.35838 0.38150 0.27700 0.21300
C 	C 	0.37072 0.37960 0.33600 -0.17200
H 	H 	0.40040 0.41480 0.36430 0.09200
C 	C 	0.33867 0.32480 0.35390 -0.01800
H 	H 	0.34660 0.32400 0.39390 0.04400
C 	C 	0.44142 0.42230 0.29000 0.20400
C 	C 	0.54540 0.39340 0.34514 0.07800
C 	C 	0.51500 0.30130 0.31600 -0.03400
H 	H 	0.52910 0.23230 0.31530 0.03300
C 	C 	0.46200 0.31960 0.28780 -0.12500
H 	H 	0.43990 0.26140 0.26700 0.07100
C 	C 	0.63476 0.46100 0.39050 0.10200
H 	H 	0.62610 0.53620 0.38440 -0.00500
C 	C 	0.67844 0.31050 0.41610 0.00200
H 	H 	0.70580 0.26060 0.43160 0.01500
C 	C 	0.62757 0.28210 0.38880 0.00200
H 	H 	0.61420 0.21020 0.38200 0.02900
C 	C 	0.27946 0.24870 0.51549 0.21700
Co	Co	0.24529 0.03317 0.46294 1.14100
N 	N 	0.24883 0.98470 0.54518 -0.22700
N 	N 	0.27543 0.97380 0.64243 -0.12800
N 	N 	0.61057 0.90200 0.99838 -0.12900
N 	N 	0.69224 0.93500 0.02649 -0.23700
N 	N 	0.24039 0.10830 0.38356 -0.22600
N 	N 	0.26335 0.21360 0.32920 -0.13000
N 	N 	0.60001 0.37990 0.37333 -0.13700
N 	N 	0.68254 0.42490 0.41690 -0.23900
O 	O 	0.39976 0.96760 0.88857 -0.27900
O 	O 	0.38853 0.43960 0.25781 -0.27800
O 	O 	0.29951 0.16080 0.51278 -0.36200
O 	O 	0.30417 0.33620 0.54097 -0.35800
C 	C 	0.47120 0.50100 0.32010 -0.11300
H 	H 	0.45710 0.56970 0.32110 0.07100
C 	C 	0.52510 0.48760 0.35220 -0.09800
H 	H 	0.54590 0.54340 0.37770 0.06300
C 	C 	0.47080 0.51480 0.29010 -0.04900
H 	H 	0.45600 0.58310 0.27340 0.04500
C 	C 	0.52420 0.49620 0.31750 0.03200
H 	H 	0.54580 0.55240 0.31720 0.02000
C 	C 	0.46030 0.32640 0.31240 -0.02800
H 	H 	0.43900 0.26780 0.31060 0.04100
C 	C 	0.51470 0.31200 0.34010 -0.02000
H 	H 	0.52850 0.24220 0.35500 0.03500
C 	C 	0.78851 0.49670 0.59990 0.09300
H 	H 	0.82130 0.51840 0.60770 -0.00200
C 	C 	0.70805 0.45320 0.55430 0.00200
H 	H 	0.67480 0.43960 0.52410 0.02500
C 	C 	0.72376 0.44510 0.61350 -0.00300
H 	H 	0.70390 0.42450 0.63120 0.03200
C 	C 	0.80906 0.47590 0.70589 0.04300
C 	C 	0.85902 0.45030 0.72800 -0.00900
H 	H 	0.87210 0.43390 0.70220 0.03400
C 	C 	0.89105 0.44860 0.78960 -0.17900
H 	H 	0.92560 0.43040 0.80510 0.09200
C 	C 	0.87157 0.47380 0.82735 0.22500
C 	C 	0.82081 0.50170 0.80440 -0.16900
H 	H 	0.80790 0.52030 0.83010 0.10300
C 	C 	0.78880 0.50240 0.74370 -0.00800
H 	H 	0.75420 0.52030 0.72810 0.04300
C 	C 	0.95188 0.44750 0.91340 0.22300
C 	C 	0.98390 0.53640 0.92100 -0.16600
H 	H 	0.96990 0.60620 0.90630 0.09700
C 	C 	0.03763 0.52260 0.95070 -0.01800
H 	H 	0.05960 0.58290 0.95820 0.04700
C 	C 	0.05630 0.41630 0.96830 0.05400
C 	C 	0.02453 0.32820 0.95970 -0.01700
H 	H 	0.03820 0.25710 0.97190 0.04000
C 	C 	0.97127 0.34460 0.93250 -0.17700
H 	H 	0.94950 0.28520 0.92770 0.10100
C 	C 	0.14407 0.46440 0.99070 0.09500
H 	H 	0.13460 0.52230 0.96320 0.00200
C 	C 	0.18794 0.34700 0.05800 0.00500
H 	H 	0.21560 0.30790 0.08740 0.01500
C 	C 	0.13915 0.32490 0.04110 0.00300
H 	H 	0.12670 0.26800 0.05540 0.03100
C 	C 	0.77836 0.66050 0.38127 0.09900
H 	H 	0.81200 0.66050 0.41240 0.00300
C 	C 	0.69969 0.62880 0.32970 0.01300
H 	H 	0.66670 0.60230 0.31760 0.03200
C 	C 	0.71279 0.69180 0.29600 0.00300
H 	H 	0.69120 0.71610 0.25720 0.03400
C 	C 	0.79565 0.77270 0.31174 0.05200
C 	C 	0.78257 0.77970 0.25188 -0.01300
H 	H 	0.75210 0.74760 0.22310 0.03900
C 	C 	0.81422 0.83380 0.23460 -0.16800
H 	H 	0.80550 0.83770 0.19440 0.09600
C 	C 	0.85838 0.88150 0.27700 0.21400
C 	C 	0.87072 0.87960 0.33600 -0.17200
H 	H 	0.90040 0.91480 0.36430 0.09200
C 	C 	0.83867 0.82480 0.35390 -0.01800
H 	H 	0.84660 0.82400 0.39390 0.04400
C 	C 	0.94142 0.92230 0.29000 0.20700
C 	C 	0.04540 0.89340 0.34514 0.07600
C 	C 	0.01500 0.80130 0.31600 -0.03300
H 	H 	0.02910 0.73230 0.31530 0.03200
C 	C 	0.96200 0.81960 0.28780 -0.12500
H 	H 	0.93990 0.76140 0.26700 0.07100
C 	C 	0.13476 0.96100 0.39050 0.10300
H 	H 	0.12610 0.03620 0.38440 -0.00600
C 	C 	0.17844 0.81050 0.41610 0.00300
H 	H 	0.20580 0.76060 0.43160 0.01500
C 	C 	0.12757 0.78210 0.38880 0.00200
H 	H 	0.11420 0.71020 0.38200 0.02900
C 	C 	0.77946 0.74870 0.51549 0.21700
Co	Co	0.74529 0.53317 0.46294 1.14100
N 	N 	0.74883 0.48470 0.54518 -0.22700
N 	N 	0.77543 0.47380 0.64243 -0.12800
N 	N 	0.11057 0.40200 0.99838 -0.12900
N 	N 	0.19224 0.43500 0.02649 -0.23900
N 	N 	0.74039 0.60830 0.38356 -0.22600
N 	N 	0.76335 0.71360 0.32920 -0.13000
N 	N 	0.10001 0.87990 0.37333 -0.13700
N 	N 	0.18254 0.92490 0.41690 -0.23900
O 	O 	0.89976 0.46760 0.88857 -0.28000
O 	O 	0.88853 0.93960 0.25781 -0.27900
O 	O 	0.79951 0.66080 0.51278 -0.36200
O 	O 	0.80417 0.83620 0.54097 -0.35800
C 	C 	0.97120 0.00100 0.32010 -0.11600
H 	H 	0.95710 0.06970 0.32110 0.07200
C 	C 	0.02510 0.98760 0.35220 -0.09700
H 	H 	0.04590 0.04340 0.37770 0.06200
C 	C 	0.97080 0.01480 0.29010 -0.05000
H 	H 	0.95600 0.08310 0.27340 0.04500
C 	C 	0.02420 0.99620 0.31750 0.03600
H 	H 	0.04580 0.05240 0.31720 0.01800
C 	C 	0.96030 0.82640 0.31240 -0.02900
H 	H 	0.93900 0.76780 0.31060 0.04200
C 	C 	0.01470 0.81200 0.34010 -0.02000
H 	H 	0.02850 0.74220 0.35500 0.03500
