data_crystal

_cell_length_a 10.28820
_cell_length_b 14.47240
_cell_length_c 31.03000
_cell_angle_alpha 90.00000
_cell_angle_beta  91.99100
_cell_angle_gamma 90.00000

_symmetry_space_group_name_	'P 1'
_symmetry_space_group_name_H-M	'P 1'

loop_
_symmetry_equiv_pos_as_xyz
  x,y,z

loop_
_atom_site_label
_atom_site_type_symbol
_atom_site_fract_x
_atom_site_fract_y
_atom_site_fract_z
_atom_site_charge
Na	Na	0.21560 0.46820 0.52409 0.59500
Na	Na	0.28860 0.70590 0.48229 0.57900
Na	Na	0.78440 0.96820 0.97591 0.59600
Na	Na	0.71140 0.20590 0.01771 0.58000
Na	Na	0.78440 0.53180 0.47591 0.59600
Na	Na	0.71140 0.29410 0.51771 0.58000
Na	Na	0.21560 0.03180 0.02409 0.59600
Na	Na	0.28860 0.79410 0.98229 0.58000
Ag	Ag	0.66491 0.85187 0.24147 0.49800
Ag	Ag	0.33509 0.35187 0.25853 0.49700
Ag	Ag	0.33509 0.14813 0.75853 0.49800
Ag	Ag	0.66491 0.64813 0.74147 0.49700
H 	H 	0.92020 0.14150 0.27990 -0.01000
H 	H 	0.85710 0.08320 0.35100 0.00900
H 	H 	0.81150 0.73860 0.40630 -0.06000
H 	H 	0.46970 0.87330 0.40610 -0.12500
H 	H 	0.56490 0.05160 0.33330 -0.35000
H 	H 	0.46490 0.12770 0.37910 0.63900
H 	H 	0.35720 0.05180 0.38300 0.59500
H 	H 	0.48660 0.04460 0.41100 0.60900
H 	H 	0.35010 0.02510 0.30900 0.54600
H 	H 	0.44790 0.95160 0.29200 0.52100
H 	H 	0.35780 0.92670 0.33010 0.52000
H 	H 	0.95310 0.87940 0.32450 -0.17900
H 	H 	0.87230 0.72760 0.30530 0.31400
H 	H 	0.02460 0.73320 0.30800 0.32800
H 	H 	0.94930 0.68860 0.34580 0.35000
H 	H 	0.03980 0.79150 0.40240 0.35200
H 	H 	0.13060 0.83900 0.36950 0.31800
H 	H 	0.03730 0.89910 0.39680 0.33400
H 	H 	0.04390 0.97080 0.13820 -0.06000
H 	H 	0.71140 0.11080 0.12000 -0.05700
H 	H 	0.02690 0.95040 0.25150 -0.19300
H 	H 	0.20760 0.00130 0.18980 0.33300
H 	H 	0.18590 0.04870 0.23440 0.32200
H 	H 	0.25370 0.95180 0.23260 0.32000
H 	H 	0.96490 0.81710 0.21690 0.35800
H 	H 	0.07470 0.82940 0.18350 0.37900
H 	H 	0.11150 0.80950 0.23210 0.36000
H 	H 	0.63240 0.11990 0.23230 -0.22100
H 	H 	0.60850 0.23910 0.16030 0.38600
H 	H 	0.56440 0.26090 0.20710 0.37500
H 	H 	0.71280 0.25560 0.19750 0.36700
H 	H 	0.50080 0.08520 0.15330 0.42700
H 	H 	0.50930 0.01580 0.19210 0.40100
H 	H 	0.43270 0.10880 0.19640 0.40700
H 	H 	0.07980 0.64150 0.22010 -0.00900
H 	H 	0.14290 0.58320 0.14900 0.00800
H 	H 	0.18850 0.23860 0.09370 -0.06200
H 	H 	0.53030 0.37330 0.09390 -0.13100
H 	H 	0.43510 0.55160 0.16670 -0.36500
H 	H 	0.53510 0.62770 0.12090 0.65700
H 	H 	0.64280 0.55180 0.11700 0.61200
H 	H 	0.51340 0.54460 0.08900 0.62600
H 	H 	0.64990 0.52510 0.19100 0.56800
H 	H 	0.55210 0.45160 0.20800 0.54000
H 	H 	0.64220 0.42670 0.16990 0.53900
H 	H 	0.04690 0.37940 0.17550 -0.18000
H 	H 	0.12770 0.22760 0.19470 0.31500
H 	H 	0.97540 0.23320 0.19200 0.32900
H 	H 	0.05070 0.18860 0.15420 0.35000
H 	H 	0.96020 0.29150 0.09760 0.35300
H 	H 	0.86940 0.33900 0.13050 0.31800
H 	H 	0.96270 0.39910 0.10320 0.33400
H 	H 	0.95610 0.47080 0.36180 -0.06700
H 	H 	0.28860 0.61080 0.38000 -0.05900
H 	H 	0.97310 0.45040 0.24850 -0.20700
H 	H 	0.79240 0.50130 0.31020 0.35900
H 	H 	0.81410 0.54870 0.26560 0.34600
H 	H 	0.74630 0.45180 0.26740 0.34000
H 	H 	0.03510 0.31710 0.28310 0.37200
H 	H 	0.92530 0.32940 0.31650 0.39200
H 	H 	0.88850 0.30950 0.26790 0.37300
H 	H 	0.36760 0.61990 0.26770 -0.22300
H 	H 	0.39150 0.73910 0.33970 0.39000
H 	H 	0.43560 0.76090 0.29290 0.37900
H 	H 	0.28720 0.75560 0.30250 0.37100
H 	H 	0.49920 0.58520 0.34670 0.43000
H 	H 	0.49070 0.51580 0.30790 0.40400
H 	H 	0.56730 0.60880 0.30360 0.41000
H 	H 	0.07980 0.85850 0.72010 -0.01000
H 	H 	0.14290 0.91680 0.64900 0.00900
H 	H 	0.18850 0.26140 0.59370 -0.06000
H 	H 	0.53030 0.12670 0.59390 -0.12500
H 	H 	0.43510 0.94840 0.66670 -0.35000
H 	H 	0.53510 0.87230 0.62090 0.63900
H 	H 	0.64280 0.94820 0.61700 0.59500
H 	H 	0.51340 0.95540 0.58900 0.60900
H 	H 	0.64990 0.97490 0.69100 0.54600
H 	H 	0.55210 0.04840 0.70800 0.52100
H 	H 	0.64220 0.07330 0.66990 0.52000
H 	H 	0.04690 0.12060 0.67550 -0.17900
H 	H 	0.12770 0.27240 0.69470 0.31400
H 	H 	0.97540 0.26680 0.69200 0.32800
H 	H 	0.05070 0.31140 0.65420 0.35000
H 	H 	0.96020 0.20850 0.59760 0.35200
H 	H 	0.86940 0.16100 0.63050 0.31800
H 	H 	0.96270 0.10090 0.60320 0.33400
H 	H 	0.95610 0.02920 0.86180 -0.06000
H 	H 	0.28860 0.88920 0.88000 -0.05700
H 	H 	0.97310 0.04960 0.74850 -0.19300
H 	H 	0.79240 0.99870 0.81020 0.33300
H 	H 	0.81410 0.95130 0.76560 0.32200
H 	H 	0.74630 0.04820 0.76740 0.32000
H 	H 	0.03510 0.18290 0.78310 0.35800
H 	H 	0.92530 0.17060 0.81650 0.37900
H 	H 	0.88850 0.19050 0.76790 0.36000
H 	H 	0.36760 0.88010 0.76770 -0.22100
H 	H 	0.39150 0.76090 0.83970 0.38600
H 	H 	0.43560 0.73910 0.79290 0.37500
H 	H 	0.28720 0.74440 0.80250 0.36700
H 	H 	0.49920 0.91480 0.84670 0.42700
H 	H 	0.49070 0.98420 0.80790 0.40100
H 	H 	0.56730 0.89120 0.80360 0.40700
H 	H 	0.92020 0.35850 0.77990 -0.00900
H 	H 	0.85710 0.41680 0.85100 0.00800
H 	H 	0.81150 0.76140 0.90630 -0.06200
H 	H 	0.46970 0.62670 0.90610 -0.13100
H 	H 	0.56490 0.44840 0.83330 -0.36500
H 	H 	0.46490 0.37230 0.87910 0.65700
H 	H 	0.35720 0.44820 0.88300 0.61200
H 	H 	0.48660 0.45540 0.91100 0.62600
H 	H 	0.35010 0.47490 0.80900 0.56800
H 	H 	0.44790 0.54840 0.79200 0.54000
H 	H 	0.35780 0.57330 0.83010 0.53900
H 	H 	0.95310 0.62060 0.82450 -0.18000
H 	H 	0.87230 0.77240 0.80530 0.31500
H 	H 	0.02460 0.76680 0.80800 0.32900
H 	H 	0.94930 0.81140 0.84580 0.35000
H 	H 	0.03980 0.70850 0.90240 0.35300
H 	H 	0.13060 0.66100 0.86950 0.31800
H 	H 	0.03730 0.60090 0.89680 0.33400
H 	H 	0.04390 0.52920 0.63820 -0.06700
H 	H 	0.71140 0.38920 0.62000 -0.05900
H 	H 	0.02690 0.54960 0.75150 -0.20700
H 	H 	0.20760 0.49870 0.68980 0.35900
H 	H 	0.18590 0.45130 0.73440 0.34600
H 	H 	0.25370 0.54820 0.73260 0.34000
H 	H 	0.96490 0.68290 0.71690 0.37200
H 	H 	0.07470 0.67060 0.68350 0.39200
H 	H 	0.11150 0.69050 0.73210 0.37300
H 	H 	0.63240 0.38010 0.73230 -0.22300
H 	H 	0.60850 0.26090 0.66030 0.39000
H 	H 	0.56440 0.23910 0.70710 0.37900
H 	H 	0.71280 0.24440 0.69750 0.37100
H 	H 	0.50080 0.41480 0.65330 0.43000
H 	H 	0.50930 0.48420 0.69210 0.40400
H 	H 	0.43270 0.39120 0.69640 0.41000
C 	C 	0.75710 0.95880 0.27400 -0.04300
C 	C 	0.87180 0.08860 0.28530 0.01600
C 	C 	0.83700 0.05680 0.32430 0.01900
C 	C 	0.71930 0.91660 0.34910 0.32400
C 	C 	0.80350 0.84570 0.36360 -0.38500
C 	C 	0.75870 0.78600 0.39550 0.24000
C 	C 	0.63600 0.79840 0.41070 -0.31500
C 	C 	0.55310 0.86820 0.39560 0.32800
C 	C 	0.59510 0.93010 0.36490 -0.59700
C 	C 	0.50920 0.00910 0.34890 1.31000
C 	C 	0.44920 0.06300 0.38360 -1.96700
C 	C 	0.40710 0.97510 0.31720 -1.78600
C 	C 	0.93880 0.83180 0.34630 0.65300
C 	C 	0.94700 0.73620 0.32430 -1.08500
C 	C 	0.04700 0.84130 0.38220 -1.09100
C 	C 	0.84240 0.03530 0.20930 0.25700
C 	C 	0.95390 0.99310 0.19380 -0.38500
C 	C 	0.97100 0.99790 0.14980 0.22400
C 	C 	0.88120 0.04260 0.12270 -0.29100
C 	C 	0.77130 0.08200 0.13860 0.23300
C 	C 	0.74900 0.07900 0.18320 -0.40800
C 	C 	0.05400 0.94290 0.22170 0.72400
C 	C 	0.18800 0.99070 0.21940 -1.11000
C 	C 	0.05100 0.84040 0.21270 -1.20200
C 	C 	0.62840 0.12660 0.20090 0.83600
C 	C 	0.62860 0.23030 0.19050 -1.26600
C 	C 	0.50690 0.07990 0.18420 -1.34900
C 	C 	0.36900 0.71700 0.60180 -0.07400
C 	C 	0.53750 0.58720 0.58240 -0.03400
C 	C 	0.24290 0.45880 0.22600 -0.04400
C 	C 	0.12820 0.58860 0.21470 0.01600
C 	C 	0.16300 0.55680 0.17570 0.02200
C 	C 	0.28070 0.41660 0.15090 0.33300
C 	C 	0.19650 0.34570 0.13640 -0.39100
C 	C 	0.24130 0.28600 0.10450 0.24600
C 	C 	0.36400 0.29840 0.08930 -0.32100
C 	C 	0.44690 0.36820 0.10440 0.34100
C 	C 	0.40490 0.43010 0.13510 -0.61800
C 	C 	0.49080 0.50910 0.15110 1.36100
C 	C 	0.55080 0.56300 0.11640 -2.02400
C 	C 	0.59290 0.47510 0.18280 -1.85500
C 	C 	0.06120 0.33180 0.15370 0.65700
C 	C 	0.05300 0.23620 0.17570 -1.08800
C 	C 	0.95300 0.34130 0.11780 -1.09300
C 	C 	0.15760 0.53530 0.29070 0.26800
C 	C 	0.04610 0.49310 0.30620 -0.40400
C 	C 	0.02900 0.49790 0.35020 0.23500
C 	C 	0.11880 0.54260 0.37730 -0.29500
C 	C 	0.22870 0.58200 0.36140 0.23900
C 	C 	0.25100 0.57900 0.31680 -0.41500
C 	C 	0.94600 0.44290 0.27830 0.76400
C 	C 	0.81200 0.49070 0.28060 -1.18400
C 	C 	0.94900 0.34040 0.28730 -1.24700
C 	C 	0.37160 0.62660 0.29910 0.84400
C 	C 	0.37140 0.73030 0.30950 -1.27600
C 	C 	0.49310 0.57990 0.31580 -1.35800
C 	C 	0.63100 0.21700 0.89820 -0.07400
C 	C 	0.46250 0.08720 0.91760 -0.03300
C 	C 	0.24290 0.04120 0.72600 -0.04300
C 	C 	0.12820 0.91140 0.71470 0.01600
C 	C 	0.16300 0.94320 0.67570 0.01900
C 	C 	0.28070 0.08340 0.65090 0.32400
C 	C 	0.19650 0.15430 0.63640 -0.38500
C 	C 	0.24130 0.21400 0.60450 0.24000
C 	C 	0.36400 0.20160 0.58930 -0.31500
C 	C 	0.44690 0.13180 0.60440 0.32800
C 	C 	0.40490 0.06990 0.63510 -0.59700
C 	C 	0.49080 0.99090 0.65110 1.31000
C 	C 	0.55080 0.93700 0.61640 -1.96700
C 	C 	0.59290 0.02490 0.68280 -1.78600
C 	C 	0.06120 0.16820 0.65370 0.65300
C 	C 	0.05300 0.26380 0.67570 -1.08500
C 	C 	0.95300 0.15870 0.61780 -1.09100
C 	C 	0.15760 0.96470 0.79070 0.25700
C 	C 	0.04610 0.00690 0.80620 -0.38500
C 	C 	0.02900 0.00210 0.85020 0.22400
C 	C 	0.11880 0.95740 0.87730 -0.29100
C 	C 	0.22870 0.91800 0.86140 0.23300
C 	C 	0.25100 0.92100 0.81680 -0.40800
C 	C 	0.94600 0.05710 0.77830 0.72400
C 	C 	0.81200 0.00930 0.78060 -1.11000
C 	C 	0.94900 0.15960 0.78730 -1.20200
C 	C 	0.37160 0.87340 0.79910 0.83600
C 	C 	0.37140 0.76970 0.80950 -1.26600
C 	C 	0.49310 0.92010 0.81580 -1.34900
C 	C 	0.63100 0.28300 0.39820 -0.07400
C 	C 	0.46250 0.41280 0.41760 -0.03400
C 	C 	0.75710 0.54120 0.77400 -0.04400
C 	C 	0.87180 0.41140 0.78530 0.01600
C 	C 	0.83700 0.44320 0.82430 0.02200
C 	C 	0.71930 0.58340 0.84910 0.33300
C 	C 	0.80350 0.65430 0.86360 -0.39100
C 	C 	0.75870 0.71400 0.89550 0.24600
C 	C 	0.63600 0.70160 0.91070 -0.32100
C 	C 	0.55310 0.63180 0.89560 0.34100
C 	C 	0.59510 0.56990 0.86490 -0.61800
C 	C 	0.50920 0.49090 0.84890 1.36100
C 	C 	0.44920 0.43700 0.88360 -2.02400
C 	C 	0.40710 0.52490 0.81720 -1.85500
C 	C 	0.93880 0.66820 0.84630 0.65700
C 	C 	0.94700 0.76380 0.82430 -1.08800
C 	C 	0.04700 0.65870 0.88220 -1.09300
C 	C 	0.84240 0.46470 0.70930 0.26800
C 	C 	0.95390 0.50690 0.69380 -0.40400
C 	C 	0.97100 0.50210 0.64980 0.23500
C 	C 	0.88120 0.45740 0.62270 -0.29500
C 	C 	0.77130 0.41800 0.63860 0.23900
C 	C 	0.74900 0.42100 0.68320 -0.41500
C 	C 	0.05400 0.55710 0.72170 0.76400
C 	C 	0.18800 0.50930 0.71940 -1.18400
C 	C 	0.05100 0.65960 0.71270 -1.24700
C 	C 	0.62840 0.37340 0.70090 0.84400
C 	C 	0.62860 0.26970 0.69050 -1.27600
C 	C 	0.50690 0.42010 0.68420 -1.35800
C 	C 	0.36900 0.78300 0.10180 -0.07400
C 	C 	0.53750 0.91280 0.08240 -0.03300
S 	S 	0.57670 0.72092 0.45097 0.65300
S 	S 	0.91138 0.05164 0.06688 0.70900
S 	S 	0.36990 0.60430 0.58821 0.08500
S 	S 	0.42330 0.22092 0.04903 0.65500
S 	S 	0.08862 0.55164 0.43312 0.71200
S 	S 	0.63010 0.10430 0.91179 0.08800
S 	S 	0.42330 0.27908 0.54903 0.65300
S 	S 	0.08862 0.94836 0.93312 0.70900
S 	S 	0.63010 0.39570 0.41179 0.08500
S 	S 	0.57670 0.77908 0.95097 0.65500
S 	S 	0.91138 0.44836 0.56688 0.71200
S 	S 	0.36990 0.89570 0.08821 0.08800
N 	N 	0.76650 0.97810 0.31651 -0.15500
N 	N 	0.82240 0.02860 0.25556 -0.14800
N 	N 	0.23350 0.47810 0.18349 -0.15700
N 	N 	0.17760 0.52860 0.24444 -0.14800
N 	N 	0.23350 0.02190 0.68349 -0.15500
N 	N 	0.17760 0.97140 0.74444 -0.14800
N 	N 	0.76650 0.52190 0.81651 -0.15700
N 	N 	0.82240 0.47140 0.75556 -0.14800
Cl	Cl	0.56170 0.73810 0.20157 -0.53000
Cl	Cl	0.43830 0.23810 0.29843 -0.53000
Cl	Cl	0.43830 0.26190 0.79843 -0.53000
Cl	Cl	0.56170 0.76190 0.70157 -0.53000
O 	O 	0.66920 0.65290 0.45770 -0.39600
O 	O 	0.55480 0.77510 0.48850 -0.35200
O 	O 	0.45480 0.68600 0.43430 -0.39300
O 	O 	0.04040 0.02610 0.06230 -0.41800
O 	O 	0.81900 0.99270 0.04600 -0.39600
O 	O 	0.88820 0.14330 0.05510 -0.43300
O 	O 	0.31800 0.60740 0.54150 -0.30500
O 	O 	0.33080 0.15290 0.04230 -0.39800
O 	O 	0.44520 0.27510 0.01150 -0.35300
O 	O 	0.54520 0.18600 0.06570 -0.39400
O 	O 	0.95960 0.52610 0.43770 -0.41600
O 	O 	0.18100 0.49270 0.45400 -0.39800
O 	O 	0.11180 0.64330 0.44490 -0.43300
O 	O 	0.68200 0.10740 0.95850 -0.30400
O 	O 	0.33080 0.34710 0.54230 -0.39600
O 	O 	0.44520 0.22490 0.51150 -0.35200
O 	O 	0.54520 0.31400 0.56570 -0.39300
O 	O 	0.95960 0.97390 0.93770 -0.41800
O 	O 	0.18100 0.00730 0.95400 -0.39600
O 	O 	0.11180 0.85670 0.94490 -0.43300
O 	O 	0.68200 0.39260 0.45850 -0.30500
O 	O 	0.66920 0.84710 0.95770 -0.39800
O 	O 	0.55480 0.72490 0.98850 -0.35300
O 	O 	0.45480 0.81400 0.93430 -0.39400
O 	O 	0.04040 0.47390 0.56230 -0.41600
O 	O 	0.81900 0.50730 0.54600 -0.39800
O 	O 	0.88820 0.35670 0.55510 -0.43300
O 	O 	0.31800 0.89260 0.04150 -0.30400
