data_crystal

_cell_length_a 8.99000
_cell_length_b 12.14000
_cell_length_c 8.51100
_cell_angle_alpha 90.00000
_cell_angle_beta  90.00000
_cell_angle_gamma 90.00000

_symmetry_space_group_name_	'P 1'
_symmetry_space_group_name_H-M	'P 1'

loop_
_symmetry_equiv_pos_as_xyz
  x,y,z

loop_
_atom_site_label
_atom_site_type_symbol
_atom_site_fract_x
_atom_site_fract_y
_atom_site_fract_z
_atom_site_charge
O 	O 	0.16150 0.54670 0.16340 -0.56000
O 	O 	0.66150 0.04670 0.66340 -0.46100
O 	O 	0.83850 0.95330 0.16340 -0.39600
O 	O 	0.33850 0.45330 0.66340 -0.43300
O 	O 	0.83850 0.04670 0.83660 -0.32800
O 	O 	0.33850 0.54670 0.33660 -0.46700
O 	O 	0.16150 0.45330 0.83660 -0.37700
O 	O 	0.66150 0.95330 0.33660 -0.38800
O 	O 	0.83850 0.45330 0.83660 -0.28100
O 	O 	0.33850 0.95330 0.33660 -0.40800
O 	O 	0.16150 0.04670 0.83660 -0.42500
O 	O 	0.66150 0.54670 0.33660 -0.44600
O 	O 	0.16150 0.95330 0.16340 -0.49900
O 	O 	0.66150 0.45330 0.66340 -0.41200
O 	O 	0.83850 0.54670 0.16340 -0.45300
O 	O 	0.33850 0.04670 0.66340 -0.48300
Mg	Mg	-0.00000 0.50000 -0.00000 1.44600
Mg	Mg	0.50000 -0.00000 0.50000 1.45800
Mg	Mg	-0.00000 0.00000 -0.00000 1.42200
Mg	Mg	0.50000 0.50000 0.50000 1.48300
O 	O 	-0.00000 0.33990 0.08100 -0.77800
O 	O 	0.50000 0.83990 0.58100 -0.48800
O 	O 	0.00000 0.16010 0.08100 -0.85300
O 	O 	0.50000 0.66010 0.58100 -0.57100
O 	O 	0.00000 0.83990 0.91900 -0.49500
O 	O 	0.50000 0.33990 0.41900 -0.66300
O 	O 	0.00000 0.66010 0.91900 -0.57500
O 	O 	0.50000 0.16010 0.41900 -0.73900
C 	C 	0.00000 0.25000 0.05440 0.61600
C 	C 	0.50000 0.75000 0.55440 0.68500
C 	C 	0.00000 0.75000 0.94560 0.75500
C 	C 	0.50000 0.25000 0.44560 0.74500
C 	C 	0.25000 0.50150 0.25000 0.37500
C 	C 	0.75000 0.99850 0.25000 0.55000
C 	C 	0.75000 0.00150 0.75000 0.32300
C 	C 	0.25000 0.49850 0.75000 0.43500
C 	C 	0.75000 0.49850 0.75000 0.46500
C 	C 	0.25000 0.99850 0.25000 0.52100
C 	C 	0.25000 0.00150 0.75000 0.29200
C 	C 	0.75000 0.50150 0.25000 0.40800
