data_crystal

_cell_length_a 8.76350
_cell_length_b 11.46780
_cell_length_c 11.46780
_cell_angle_alpha 106.05600
_cell_angle_beta  103.82600
_cell_angle_gamma 76.17370

_symmetry_space_group_name_	'P 1'
_symmetry_space_group_name_H-M	'P 1'

loop_
_symmetry_equiv_pos_as_xyz
  x,y,z

loop_
_atom_site_label
_atom_site_type_symbol
_atom_site_fract_x
_atom_site_fract_y
_atom_site_fract_z
_atom_site_charge
Sr	Sr	0.75000 0.46165 0.46165 1.54900
Sr	Sr	0.25000 0.53835 0.53835 1.54500
Ni	Ni	0.00000 0.50000 -0.00000 1.01900
Ni	Ni	0.50000 0.00000 0.50000 1.03200
H 	H 	0.47570 0.30630 0.45990 0.36900
H 	H 	0.46390 0.34730 0.35510 0.35800
H 	H 	0.57030 0.29730 0.74170 0.07900
H 	H 	0.46200 0.26670 0.89590 -0.00800
H 	H 	0.77350 0.45270 0.14790 -0.00300
H 	H 	0.02430 0.45990 0.30630 0.36300
H 	H 	0.03610 0.35510 0.34730 0.35100
H 	H 	0.92970 0.74170 0.29730 0.11400
H 	H 	0.03800 0.89590 0.26670 -0.07400
H 	H 	0.72650 0.14790 0.45270 -0.01900
H 	H 	0.52430 0.69370 0.54010 0.37600
H 	H 	0.53610 0.65270 0.64490 0.36600
H 	H 	0.42970 0.70270 0.25830 0.04600
H 	H 	0.53800 0.73330 0.10410 0.05000
H 	H 	0.22650 0.54730 0.85210 -0.02800
H 	H 	0.97570 0.54010 0.69370 0.38300
H 	H 	0.96390 0.64490 0.65270 0.37300
H 	H 	0.07030 0.25830 0.70270 0.01500
H 	H 	0.96200 0.10410 0.73330 0.10600
H 	H 	0.27350 0.85210 0.54730 -0.01400
C 	C 	0.73510 0.39097 0.85919 0.00200
C 	C 	0.61030 0.32776 0.82464 -0.12500
C 	C 	0.54530 0.31028 0.91672 0.15200
C 	C 	0.60550 0.35824 0.03944 -0.22600
C 	C 	0.73200 0.42015 0.06571 0.06000
C 	C 	0.80970 0.42019 0.76697 0.32200
C 	C 	0.54010 0.34698 0.14482 0.41600
C 	C 	0.76490 0.85919 0.39097 0.03000
C 	C 	0.88970 0.82464 0.32776 -0.19000
C 	C 	0.95470 0.91672 0.31028 0.27800
C 	C 	0.89450 0.03944 0.35824 -0.28400
C 	C 	0.76800 0.06571 0.42015 0.09000
C 	C 	0.69030 0.76697 0.42019 0.31200
C 	C 	0.95990 0.14482 0.34698 0.48100
C 	C 	0.26490 0.60903 0.14081 -0.05600
C 	C 	0.38970 0.67224 0.17536 -0.02100
C 	C 	0.45470 0.68972 0.08328 -0.06900
C 	C 	0.39450 0.64176 0.96056 -0.06000
C 	C 	0.26800 0.57985 0.93429 0.12800
C 	C 	0.19030 0.57981 0.23303 0.33800
C 	C 	0.45990 0.65302 0.85518 0.37200
C 	C 	0.23510 0.14081 0.60903 -0.08000
C 	C 	0.11030 0.17536 0.67224 0.03500
C 	C 	0.04530 0.08328 0.68972 -0.17400
C 	C 	0.10550 0.96056 0.64176 -0.01300
C 	C 	0.23200 0.93429 0.57985 0.10000
C 	C 	0.30970 0.23303 0.57981 0.34700
C 	C 	0.04010 0.85518 0.65302 0.30700
N 	N 	0.79670 0.43477 0.97765 -0.19400
N 	N 	0.70330 0.97765 0.43477 -0.21100
N 	N 	0.20330 0.56523 0.02235 -0.26900
N 	N 	0.29670 0.02235 0.56523 -0.25600
O 	O 	0.93070 0.47230 0.81268 -0.42700
O 	O 	0.75160 0.39258 0.65652 -0.38800
O 	O 	0.42640 0.29223 0.12217 -0.33900
O 	O 	0.60390 0.39541 0.24965 -0.44400
O 	O 	0.46720 0.36977 0.43269 -0.87500
O 	O 	0.56930 0.81268 0.47230 -0.44100
O 	O 	0.74840 0.65652 0.39258 -0.38300
O 	O 	0.07360 0.12217 0.29223 -0.37500
O 	O 	0.89610 0.24965 0.39541 -0.45100
O 	O 	0.03280 0.43269 0.36977 -0.88400
O 	O 	0.06930 0.52770 0.18732 -0.48600
O 	O 	0.24840 0.60742 0.34348 -0.40300
O 	O 	0.57360 0.70777 0.87783 -0.27000
O 	O 	0.39610 0.60459 0.75035 -0.43200
O 	O 	0.53280 0.63023 0.56731 -0.88000
O 	O 	0.43070 0.18732 0.52770 -0.47600
O 	O 	0.25160 0.34348 0.60742 -0.40700
O 	O 	0.92640 0.87783 0.70777 -0.23100
O 	O 	0.10390 0.75035 0.60459 -0.42600
O 	O 	0.96720 0.56731 0.63023 -0.87200
