data_crystal

_cell_length_a 12.98900
_cell_length_b 13.82180
_cell_length_c 9.27660
_cell_angle_alpha 90.00000
_cell_angle_beta  124.43000
_cell_angle_gamma 90.00000

_symmetry_space_group_name_	'P 1'
_symmetry_space_group_name_H-M	'P 1'

loop_
_symmetry_equiv_pos_as_xyz
  x,y,z

loop_
_atom_site_label
_atom_site_type_symbol
_atom_site_fract_x
_atom_site_fract_y
_atom_site_fract_z
_atom_site_charge
Zn	Zn	0.72046 0.84978 0.38318 1.17100
N 	N 	0.36740 0.73360 0.04390 -0.28900
N 	N 	0.54560 0.80060 0.23240 -0.30200
N 	N 	0.81540 0.96650 0.85350 -0.11400
N 	N 	0.72560 0.92820 0.58020 -0.27400
N 	N 	0.81160 0.90230 0.74880 -0.09300
N 	N 	0.34980 0.83230 0.04690 -0.07100
C 	C 	0.48510 0.71670 0.15720 0.31800
C 	C 	0.68150 0.01280 0.59150 0.28500
N 	N 	0.73500 0.03950 0.75670 -0.31700
C 	C 	0.54620 0.61980 0.19930 -0.86100
H 	H 	0.48490 0.57140 0.12820 0.26800
H 	H 	0.58340 0.60540 0.32050 0.25900
H 	H 	0.60960 0.62020 0.17630 0.25500
C 	C 	0.58230 0.06960 0.43340 -0.82400
H 	H 	0.55940 0.03570 0.32890 0.25600
H 	H 	0.61440 0.13230 0.43410 0.24000
H 	H 	0.51030 0.07690 0.43680 0.25600
N 	N 	0.45630 0.87130 0.16120 -0.08700
Zn	Zn	0.22046 0.34978 0.38318 1.17300
N 	N 	0.86740 0.23360 0.04390 -0.27200
N 	N 	0.04560 0.30060 0.23240 -0.26100
N 	N 	0.31540 0.46650 0.85350 -0.11600
N 	N 	0.22560 0.42820 0.58020 -0.27600
N 	N 	0.31160 0.40230 0.74880 -0.09100
N 	N 	0.84980 0.33230 0.04690 -0.07900
C 	C 	0.98510 0.21670 0.15720 0.20900
C 	C 	0.18150 0.51280 0.59150 0.29900
N 	N 	0.23500 0.53950 0.75670 -0.31600
C 	C 	0.04620 0.11980 0.19930 -0.60400
H 	H 	0.98490 0.07140 0.12820 0.17500
H 	H 	0.08340 0.10540 0.32050 0.19500
H 	H 	0.10960 0.12020 0.17630 0.19100
C 	C 	0.08230 0.56960 0.43340 -0.85800
H 	H 	0.05940 0.53570 0.32890 0.27100
H 	H 	0.11440 0.63230 0.43410 0.25600
H 	H 	0.01030 0.57690 0.43680 0.27500
N 	N 	0.95630 0.37130 0.16120 -0.10900
Zn	Zn	0.72046 0.15022 0.88318 1.14700
N 	N 	0.36740 0.26640 0.54390 -0.30300
N 	N 	0.54560 0.19940 0.73240 -0.31000
N 	N 	0.81540 0.03350 0.35350 -0.09400
N 	N 	0.72560 0.07180 0.08020 -0.26600
N 	N 	0.81160 0.09770 0.24880 -0.08200
N 	N 	0.34980 0.16770 0.54690 -0.09500
C 	C 	0.48510 0.28330 0.65720 0.27400
C 	C 	0.68150 0.98720 0.09150 0.38300
N 	N 	0.73500 0.96050 0.25670 -0.31300
C 	C 	0.54620 0.38020 0.69930 -0.76600
H 	H 	0.48490 0.42860 0.62820 0.21700
H 	H 	0.58340 0.39460 0.82050 0.20900
H 	H 	0.60960 0.37980 0.67630 0.20400
C 	C 	0.58230 0.93040 0.93340 -0.97200
H 	H 	0.55940 0.96430 0.82890 0.28100
H 	H 	0.61440 0.86770 0.93410 0.25600
H 	H 	0.51030 0.92310 0.93680 0.26900
N 	N 	0.45630 0.12870 0.66120 -0.10500
Zn	Zn	0.22046 0.65022 0.88318 1.14900
N 	N 	0.86740 0.76640 0.54390 -0.28500
N 	N 	0.04560 0.69940 0.73240 -0.26900
N 	N 	0.31540 0.53350 0.35350 -0.09400
N 	N 	0.22560 0.57180 0.08020 -0.26700
N 	N 	0.31160 0.59770 0.24880 -0.07900
N 	N 	0.84980 0.66770 0.54690 -0.10300
C 	C 	0.98510 0.78330 0.65720 0.16500
C 	C 	0.18150 0.48720 0.09150 0.39800
N 	N 	0.23500 0.46050 0.25670 -0.31400
C 	C 	0.04620 0.88020 0.69930 -0.50800
H 	H 	0.98490 0.92860 0.62820 0.12500
H 	H 	0.08340 0.89460 0.82050 0.14700
H 	H 	0.10960 0.87980 0.67630 0.14000
C 	C 	0.08230 0.43040 0.93340 -1.00900
H 	H 	0.05940 0.46430 0.82890 0.29700
H 	H 	0.11440 0.36770 0.93410 0.27200
H 	H 	0.01030 0.42310 0.93680 0.28800
N 	N 	0.95630 0.62870 0.66120 -0.12500
