data_crystal

_cell_length_a 12.04800
_cell_length_b 12.28000
_cell_length_c 19.09200
_cell_angle_alpha 91.92000
_cell_angle_beta  98.10000
_cell_angle_gamma 117.88000

_symmetry_space_group_name_	'P 1'
_symmetry_space_group_name_H-M	'P 1'

loop_
_symmetry_equiv_pos_as_xyz
  x,y,z

loop_
_atom_site_label
_atom_site_type_symbol
_atom_site_fract_x
_atom_site_fract_y
_atom_site_fract_z
_atom_site_charge
Cd	Cd	0.76625 0.50709 0.27921 1.22900
Cd	Cd	0.57876 0.67086 0.20026 1.22900
Cd	Cd	0.42096 0.32541 0.29919 1.22800
O 	O 	0.43080 0.31480 0.18133 -0.42400
O 	O 	0.61580 0.51390 0.34142 -0.53200
O 	O 	0.61030 0.49370 0.18108 -0.51500
O 	O 	0.52280 0.21240 0.31614 -0.43700
O 	O 	0.60700 0.68820 0.32093 -0.42500
O 	O 	0.31920 0.43740 0.27918 -0.43800
O 	O 	0.36520 0.56470 0.19356 -0.42900
O 	O 	0.78600 0.79170 0.19730 -0.43200
N 	N 	0.45900 0.33030 0.92387 -0.20500
O 	O 	0.67000 0.29970 0.24790 -0.43200
N 	N 	0.23010 0.13560 0.27249 -0.21100
N 	N 	0.60980 0.67410 0.58267 -0.20900
N 	N 	0.56990 0.85680 0.21874 -0.20400
N 	N 	0.93770 0.49620 0.23730 -0.20100
O 	O 	0.87420 0.71040 0.27574 -0.43100
C 	C 	0.61320 0.61220 0.36056 0.36100
C 	C 	0.61410 0.63770 0.43889 -0.05900
C 	C 	0.49650 0.36730 0.07200 -0.06500
C 	C 	0.51240 0.39270 0.15116 0.34900
C 	C 	0.29430 0.49980 0.23509 0.37200
C 	C 	0.66810 0.58870 0.48934 -0.04900
H 	H 	0.70460 0.54130 0.47540 0.05500
C 	C 	0.16970 0.49820 0.23310 -0.05900
C 	C 	0.55830 0.72090 0.53390 0.03300
H 	H 	0.51960 0.76540 0.54900 0.01400
C 	C 	0.56000 0.70630 0.46236 -0.04900
H 	H 	0.52510 0.74210 0.43020 0.06000
C 	C 	0.59250 0.21020 0.27500 0.36200
C 	C 	0.59720 0.42380 0.03596 -0.04400
H 	H 	0.67910 0.47590 0.06090 0.04700
C 	C 	0.36150 0.27380 0.95910 0.02400
H 	H 	0.28010 0.22320 0.93320 0.02000
C 	C 	0.87640 0.79460 0.23920 0.36500
C 	C 	0.37830 0.28850 0.03250 -0.04400
H 	H 	0.30950 0.24500 0.05530 0.05700
C 	C 	0.00220 0.91340 0.24980 -0.03800
C 	C 	0.66670 0.61170 0.56033 0.03300
H 	H 	0.70690 0.58260 0.59400 0.02000
C 	C 	0.10380 0.92890 0.30040 -0.07200
H 	H 	0.09720 0.86550 0.32780 0.08300
C 	C 	0.57530 0.40240 0.96266 0.02600
H 	H 	0.64420 0.43950 0.93910 0.02100
C 	C 	0.58390 0.08550 0.25460 -0.04300
C 	C 	0.13150 0.11800 0.22300 0.05300
H 	H 	0.14030 0.18250 0.19620 0.00500
C 	C 	0.21630 0.04130 0.30980 0.04800
H 	H 	0.28500 0.05110 0.34350 0.00900
C 	C 	0.50800 0.98230 0.28560 -0.06200
H 	H 	0.46070 0.98790 0.31870 0.06500
C 	C 	0.65040 0.07180 0.20440 -0.06000
H 	H 	0.69990 0.13890 0.18140 0.06500
C 	C 	0.50380 0.87040 0.26650 0.04300
H 	H 	0.45290 0.80130 0.28770 0.01600
C 	C 	0.01730 0.00950 0.20970 -0.07800
H 	H 	0.95140 0.00110 0.17420 0.07100
C 	C 	0.64210 0.95740 0.18890 0.04200
H 	H 	0.68900 0.94980 0.15610 0.01000
C 	C 	0.14560 0.59040 0.20800 -0.05100
H 	H 	0.20700 0.65510 0.18860 0.05700
C 	C 	0.03010 0.58670 0.21170 0.04400
H 	H 	0.01690 0.65100 0.19550 0.01200
C 	C 	0.07210 0.40250 0.26080 -0.05600
H 	H 	0.08360 0.33870 0.27930 0.05600
C 	C 	0.95910 0.40490 0.26010 0.04100
H 	H 	0.89350 0.33900 0.27640 0.01300
C 	C 	0.97590 0.56800 0.41300 0.25200
C 	C 	0.03400 0.54830 0.48260 -0.00900
O 	O 	0.03270 0.65250 0.38460 -0.27800
C 	C 	0.80070 0.39820 0.42080 0.03600
C 	C 	0.85660 0.38000 0.48710 0.03000
N 	N 	0.85730 0.49060 0.38970 -0.25800
O 	O 	0.14270 0.50940 0.61030 -0.46100
Cd	Cd	0.23375 0.49291 0.72079 1.23600
Cd	Cd	0.42124 0.32914 0.79975 1.22900
Cd	Cd	0.57904 0.67459 0.70081 1.22800
O 	O 	0.56920 0.68520 0.81867 -0.42400
O 	O 	0.38420 0.48610 0.65858 -0.52700
O 	O 	0.38970 0.50630 0.81892 -0.51500
O 	O 	0.47720 0.78760 0.68386 -0.43800
O 	O 	0.39300 0.31180 0.67907 -0.42500
O 	O 	0.68080 0.56260 0.72082 -0.43800
O 	O 	0.63480 0.43530 0.80644 -0.42900
O 	O 	0.21400 0.20830 0.80270 -0.43100
N 	N 	0.54100 0.66970 0.07613 -0.20500
O 	O 	0.33000 0.70030 0.75210 -0.43000
N 	N 	0.76990 0.86440 0.72751 -0.20900
N 	N 	0.39020 0.32590 0.41733 -0.20900
N 	N 	0.43010 0.14320 0.78126 -0.20400
N 	N 	0.06230 0.50380 0.76270 -0.20000
O 	O 	0.12580 0.28960 0.72426 -0.42800
C 	C 	0.38680 0.38780 0.63944 0.36100
C 	C 	0.38590 0.36230 0.56111 -0.05800
C 	C 	0.50350 0.63270 0.92800 -0.06500
C 	C 	0.48760 0.60730 0.84884 0.34900
C 	C 	0.70570 0.50020 0.76491 0.37400
C 	C 	0.33190 0.41130 0.51066 -0.05100
H 	H 	0.29540 0.45870 0.52460 0.05700
C 	C 	0.83030 0.50180 0.76690 -0.06400
C 	C 	0.44170 0.27910 0.46610 0.03400
H 	H 	0.48040 0.23460 0.45100 0.01500
C 	C 	0.44000 0.29370 0.53764 -0.05000
H 	H 	0.47490 0.25790 0.56980 0.06100
C 	C 	0.40750 0.78980 0.72500 0.36200
C 	C 	0.40280 0.57620 0.96404 -0.04400
H 	H 	0.32090 0.52410 0.93910 0.04700
C 	C 	0.63850 0.72620 0.04090 0.02400
H 	H 	0.71990 0.77680 0.06680 0.02000
C 	C 	0.12360 0.20540 0.76080 0.35600
C 	C 	0.62170 0.71150 0.96750 -0.04500
H 	H 	0.69050 0.75500 0.94470 0.05800
C 	C 	0.99780 0.08660 0.75020 -0.03300
C 	C 	0.33330 0.38830 0.43967 0.03300
H 	H 	0.29310 0.41740 0.40600 0.01900
C 	C 	0.89620 0.07110 0.69960 -0.07100
H 	H 	0.90280 0.13450 0.67220 0.08700
C 	C 	0.42470 0.59760 0.03734 0.02700
H 	H 	0.35580 0.56050 0.06090 0.02000
C 	C 	0.41610 0.91450 0.74540 -0.04400
C 	C 	0.86850 0.88200 0.77700 0.04500
H 	H 	0.85970 0.81750 0.80380 0.00900
C 	C 	0.78370 0.95870 0.69020 0.04700
H 	H 	0.71500 0.94890 0.65650 0.00900
C 	C 	0.49200 0.01770 0.71440 -0.06000
H 	H 	0.53930 0.01210 0.68130 0.06500
C 	C 	0.34960 0.92820 0.79560 -0.06200
H 	H 	0.30010 0.86110 0.81860 0.06400
C 	C 	0.49620 0.12960 0.73350 0.04200
H 	H 	0.54710 0.19870 0.71230 0.01600
C 	C 	0.98270 0.99050 0.79030 -0.06100
H 	H 	0.04860 0.99890 0.82580 0.05800
C 	C 	0.35790 0.04260 0.81110 0.04300
H 	H 	0.31100 0.05020 0.84390 0.00900
C 	C 	0.85440 0.40960 0.79200 -0.05000
H 	H 	0.79300 0.34490 0.81140 0.05800
C 	C 	0.96990 0.41330 0.78830 0.05400
H 	H 	0.98310 0.34900 0.80450 0.01200
C 	C 	0.92790 0.59750 0.73920 -0.03700
H 	H 	0.91640 0.66130 0.72070 0.05200
C 	C 	0.04090 0.59510 0.73990 0.02300
H 	H 	0.10650 0.66100 0.72360 0.02000
C 	C 	0.02410 0.43200 0.58700 0.38900
C 	C 	0.96600 0.45170 0.51740 -0.10600
O 	O 	0.96730 0.34750 0.61540 -0.31100
C 	C 	0.19930 0.60180 0.57920 0.16600
C 	C 	0.14340 0.62000 0.51290 -0.05000
