data_crystal

_cell_length_a 9.86000
_cell_length_b 11.65000
_cell_length_c 13.11300
_cell_angle_alpha 90.00000
_cell_angle_beta  90.00000
_cell_angle_gamma 101.99000

_symmetry_space_group_name_	'P 1'
_symmetry_space_group_name_H-M	'P 1'

loop_
_symmetry_equiv_pos_as_xyz
  x,y,z

loop_
_atom_site_label
_atom_site_type_symbol
_atom_site_fract_x
_atom_site_fract_y
_atom_site_fract_z
_atom_site_charge
Cd	Cd	0.25672 0.49402 0.50469 1.23400
Cd	Cd	0.74328 0.50598 0.49531 1.23400
Cd	Cd	0.74328 0.00598 0.00469 1.22800
Cd	Cd	0.25672 0.99402 0.99531 1.22800
H 	H 	0.27660 0.00260 0.23940 0.01500
H 	H 	0.66320 0.37550 0.87750 0.05900
H 	H 	0.02110 0.60880 0.36720 0.01100
H 	H 	0.33680 0.12450 0.37750 0.05800
H 	H 	0.66320 0.87550 0.62250 0.05800
H 	H 	0.40550 0.25920 0.04950 0.00900
H 	H 	0.72340 0.49740 0.73940 0.01700
H 	H 	0.48720 0.88730 0.31730 0.05900
H 	H 	0.10650 0.74300 0.24160 0.06700
H 	H 	0.33680 0.62450 0.12250 0.05900
H 	H 	0.48720 0.38730 0.18270 0.05700
H 	H 	0.40550 0.75920 0.45050 0.01100
H 	H 	0.71420 0.26380 0.32460 0.06300
H 	H 	0.64480 0.64310 0.31330 0.01200
H 	H 	0.64480 0.14310 0.18670 0.01200
H 	H 	0.51280 0.61270 0.81730 0.05700
H 	H 	0.89350 0.75700 0.74160 0.05900
H 	H 	0.97890 0.39120 0.63280 0.01100
H 	H 	0.28580 0.73620 0.67540 0.06300
H 	H 	0.27660 0.50260 0.26060 0.01700
H 	H 	0.59450 0.74080 0.95050 0.00900
H 	H 	0.28580 0.23620 0.82460 0.06700
H 	H 	0.35520 0.35690 0.68670 0.01200
H 	H 	0.10650 0.24300 0.25840 0.05900
H 	H 	0.59450 0.24080 0.54950 0.01100
H 	H 	0.72340 0.99740 0.76060 0.01500
H 	H 	0.02110 0.10880 0.13280 0.02100
H 	H 	0.97890 0.89120 0.86720 0.02100
H 	H 	0.89350 0.25700 0.75840 0.06700
H 	H 	0.35520 0.85690 0.81330 0.01200
H 	H 	0.71420 0.76380 0.17540 0.06700
H 	H 	0.51280 0.11270 0.68270 0.05900
C 	C 	0.91930 0.26880 0.30470 -0.06600
C 	C 	0.53670 0.64630 0.61520 0.36100
C 	C 	0.31520 0.08150 0.22840 0.03000
C 	C 	0.03970 0.85460 0.83170 0.01300
C 	C 	0.68480 0.91850 0.77160 0.03000
C 	C 	0.41840 0.77120 0.20400 -0.05400
C 	C 	0.46330 0.85370 0.11520 0.35900
C 	C 	0.22100 0.76300 0.71550 -0.05500
C 	C 	0.03040 0.64710 0.60920 0.37400
C 	C 	0.98830 0.27740 0.74590 -0.05100
C 	C 	0.58160 0.72880 0.70400 -0.05600
C 	C 	0.01170 0.72260 0.25410 -0.05100
C 	C 	0.98830 0.77740 0.75410 -0.02900
C 	C 	0.64630 0.34620 0.81170 -0.05600
C 	C 	0.26100 0.83600 0.79840 0.04500
C 	C 	0.41840 0.27120 0.29600 -0.05600
C 	C 	0.91930 0.76880 0.19530 -0.05200
C 	C 	0.35370 0.65380 0.18830 -0.05600
C 	C 	0.96960 0.85290 0.10920 0.36700
C 	C 	0.64630 0.84620 0.68830 -0.05500
C 	C 	0.53670 0.14630 0.88480 0.35900
C 	C 	0.73900 0.16400 0.20160 0.04500
C 	C 	0.46330 0.35370 0.38480 0.36100
C 	C 	0.96030 0.14540 0.16830 0.01300
C 	C 	0.44120 0.31070 0.19630 -0.05800
C 	C 	0.55880 0.68930 0.80370 -0.05800
C 	C 	0.39340 0.23230 0.11630 0.04000
C 	C 	0.26100 0.33600 0.70160 0.05200
C 	C 	0.01170 0.22260 0.24590 -0.02900
C 	C 	0.68480 0.41850 0.72840 0.03100
C 	C 	0.60660 0.26770 0.61630 0.04100
C 	C 	0.35370 0.15380 0.31170 -0.05500
C 	C 	0.73900 0.66400 0.29840 0.05200
C 	C 	0.55880 0.18930 0.69630 -0.05900
C 	C 	0.77900 0.73700 0.21550 -0.06400
C 	C 	0.31520 0.58150 0.27160 0.03100
C 	C 	0.44120 0.81070 0.30370 -0.05900
C 	C 	0.22100 0.26300 0.78450 -0.06400
C 	C 	0.08070 0.73120 0.69530 -0.06600
C 	C 	0.77900 0.23700 0.28450 -0.05500
C 	C 	0.96960 0.35290 0.39080 0.37400
C 	C 	0.96030 0.64540 0.33170 0.03800
C 	C 	0.03040 0.14710 0.89080 0.36700
C 	C 	0.39340 0.73230 0.38370 0.04100
C 	C 	0.08070 0.23120 0.80470 -0.05200
C 	C 	0.58160 0.22880 0.79600 -0.05400
C 	C 	0.60660 0.76770 0.88370 0.04000
C 	C 	0.03970 0.35460 0.66830 0.03800
N 	N 	0.33170 0.12160 0.13240 -0.21000
N 	N 	0.66830 0.37840 0.63240 -0.20900
N 	N 	0.17460 0.87870 0.85770 -0.21100
N 	N 	0.82540 0.62130 0.35770 -0.21300
N 	N 	0.17460 0.37870 0.64230 -0.21300
N 	N 	0.66830 0.87840 0.86760 -0.21000
N 	N 	0.82540 0.12130 0.14230 -0.21100
N 	N 	0.33170 0.62160 0.36760 -0.20900
O 	O 	0.58370 0.41260 0.37950 -0.42300
O 	O 	0.90360 0.10580 0.89220 -0.40500
O 	O 	0.38080 0.85270 0.04380 -0.41000
O 	O 	0.88210 0.87280 0.04640 -0.41100
O 	O 	0.58370 0.91260 0.12050 -0.41700
O 	O 	0.61920 0.14730 0.95620 -0.41000
O 	O 	0.41630 0.08740 0.87950 -0.41700
O 	O 	0.38080 0.35270 0.45620 -0.41600
O 	O 	0.61920 0.64730 0.54380 -0.41600
O 	O 	0.90360 0.60580 0.60780 -0.41300
O 	O 	0.09640 0.39420 0.39220 -0.41300
O 	O 	0.11790 0.12720 0.95360 -0.41100
O 	O 	0.41630 0.58740 0.62050 -0.42300
O 	O 	0.88210 0.37280 0.45360 -0.41700
O 	O 	0.11790 0.62720 0.54640 -0.41700
O 	O 	0.09640 0.89420 0.10780 -0.40500
