data_crystal

_cell_length_a 9.42930
_cell_length_b 10.22590
_cell_length_c 17.15330
_cell_angle_alpha 91.63400
_cell_angle_beta  99.93300
_cell_angle_gamma 93.06200

_symmetry_space_group_name_	'P 1'
_symmetry_space_group_name_H-M	'P 1'

loop_
_symmetry_equiv_pos_as_xyz
  x,y,z

loop_
_atom_site_label
_atom_site_type_symbol
_atom_site_fract_x
_atom_site_fract_y
_atom_site_fract_z
_atom_site_charge
Co	Co	0.80248 0.17890 0.70849 1.18400
Co	Co	0.82172 0.39279 0.86878 1.14600
C 	C 	0.72940 0.58070 0.64400 -0.01600
C 	C 	0.74450 0.70990 0.67530 -0.05000
H 	H 	0.77040 0.72660 0.72960 0.07300
C 	C 	0.72040 0.81220 0.62440 0.01600
C 	C 	0.68410 0.78830 0.54310 -0.15900
H 	H 	0.66640 0.85730 0.50930 0.12000
C 	C 	0.67450 0.65960 0.51300 0.21700
C 	C 	0.69510 0.55690 0.56310 -0.14000
H 	H 	0.68600 0.47130 0.54230 0.11500
C 	C 	0.76160 0.47040 0.69930 0.36500
C 	C 	0.74460 0.95080 0.65740 0.26700
C 	C 	0.65010 0.71850 0.37700 0.09900
H 	H 	0.58870 0.78760 0.38750 0.02700
H 	H 	0.61100 0.67930 0.32500 0.02500
C 	C 	0.96640 0.91370 0.39080 0.10200
H 	H 	0.02360 0.99030 0.40550 0.01100
C 	C 	0.90140 0.72690 0.34470 0.11300
H 	H 	0.89690 0.64370 0.32070 0.00000
C 	C 	0.17320 0.20020 0.83180 -0.03700
C 	C 	0.31180 0.25100 0.83260 -0.02500
H 	H 	0.33570 0.33980 0.84380 0.06100
C 	C 	0.41580 0.16680 0.81630 -0.02900
C 	C 	0.37980 0.03470 0.80300 -0.12900
H 	H 	0.44820 0.97930 0.79030 0.10900
C 	C 	0.24440 0.98370 0.80830 0.20200
C 	C 	0.13820 0.06730 0.81970 -0.13700
H 	H 	0.04420 0.03440 0.81920 0.09900
C 	C 	0.05460 0.28800 0.84220 0.32700
C 	C 	0.56690 0.21920 0.81000 0.37000
C 	C 	0.09690 0.78500 0.81850 0.08300
H 	H 	0.08370 0.69720 0.79450 0.03000
H 	H 	0.01380 0.83280 0.79690 0.03300
C 	C 	0.11290 0.84030 0.02030 0.10000
H 	H 	0.11140 0.89310 0.06510 0.00900
C 	C 	0.13530 0.67780 0.95080 0.09000
H 	H 	0.15050 0.59400 0.93280 -0.00100
N 	N 	0.79490 0.77590 0.37600 -0.10500
N 	N 	0.83580 0.89870 0.40620 -0.08700
N 	N 	0.01450 0.81120 0.35210 -0.22900
N 	N 	0.10590 0.77770 0.90380 -0.10300
N 	N 	0.08870 0.88580 0.94900 -0.08900
N 	N 	0.14020 0.71160 0.02510 -0.24700
O 	O 	0.74570 0.35650 0.66886 -0.43500
O 	O 	0.80330 0.50090 0.77140 -0.45000
O 	O 	0.82320 0.97200 0.72406 -0.35700
O 	O 	0.69270 0.04300 0.61660 -0.34700
O 	O 	0.64670 0.62290 0.43378 -0.23200
O 	O 	0.92580 0.24530 0.81723 -0.53200
O 	O 	0.08180 0.39710 0.87670 -0.36400
O 	O 	0.61170 0.32490 0.84750 -0.44300
O 	O 	0.63170 0.15290 0.76850 -0.42800
O 	O 	0.22330 0.84840 0.79930 -0.22100
Co	Co	0.19752 0.82110 0.29151 1.18300
Co	Co	0.17828 0.60721 0.13122 1.14500
C 	C 	0.27060 0.41930 0.35600 -0.01600
C 	C 	0.25550 0.29010 0.32470 -0.05000
H 	H 	0.22960 0.27340 0.27040 0.07300
C 	C 	0.27960 0.18780 0.37560 0.01600
C 	C 	0.31590 0.21170 0.45690 -0.15900
H 	H 	0.33360 0.14270 0.49070 0.12000
C 	C 	0.32550 0.34040 0.48700 0.21700
C 	C 	0.30490 0.44310 0.43690 -0.14000
H 	H 	0.31400 0.52870 0.45770 0.11500
C 	C 	0.23840 0.52960 0.30070 0.36500
C 	C 	0.25540 0.04920 0.34260 0.26700
C 	C 	0.34990 0.28150 0.62300 0.09900
H 	H 	0.41130 0.21240 0.61250 0.02700
H 	H 	0.38900 0.32070 0.67500 0.02500
C 	C 	0.03360 0.08630 0.60920 0.10200
H 	H 	0.97640 0.00970 0.59450 0.01100
C 	C 	0.09860 0.27310 0.65530 0.11300
H 	H 	0.10310 0.35630 0.67930 0.00000
C 	C 	0.82680 0.79980 0.16820 -0.03700
C 	C 	0.68820 0.74900 0.16740 -0.02500
H 	H 	0.66430 0.66020 0.15620 0.06100
C 	C 	0.58420 0.83320 0.18370 -0.02900
C 	C 	0.62020 0.96530 0.19700 -0.12900
H 	H 	0.55180 0.02070 0.20970 0.10900
C 	C 	0.75560 0.01630 0.19170 0.20200
C 	C 	0.86180 0.93270 0.18030 -0.13700
H 	H 	0.95580 0.96560 0.18080 0.09900
C 	C 	0.94540 0.71200 0.15780 0.32700
C 	C 	0.43310 0.78080 0.19000 0.37000
C 	C 	0.90310 0.21500 0.18150 0.08300
H 	H 	0.91630 0.30280 0.20550 0.03000
H 	H 	0.98620 0.16720 0.20310 0.03300
C 	C 	0.88710 0.15970 0.97970 0.10000
H 	H 	0.88860 0.10690 0.93490 0.00900
C 	C 	0.86470 0.32220 0.04920 0.09000
H 	H 	0.84950 0.40600 0.06720 -0.00100
N 	N 	0.20510 0.22410 0.62400 -0.10500
N 	N 	0.16420 0.10130 0.59380 -0.08700
N 	N 	0.98550 0.18880 0.64790 -0.22900
N 	N 	0.89410 0.22230 0.09620 -0.10300
N 	N 	0.91130 0.11420 0.05100 -0.08900
N 	N 	0.85980 0.28840 0.97490 -0.24700
O 	O 	0.25430 0.64350 0.33114 -0.43500
O 	O 	0.19670 0.49910 0.22860 -0.45000
O 	O 	0.17680 0.02800 0.27594 -0.35700
O 	O 	0.30730 0.95700 0.38340 -0.34700
O 	O 	0.35330 0.37710 0.56622 -0.23200
O 	O 	0.07420 0.75470 0.18277 -0.53200
O 	O 	0.91820 0.60290 0.12330 -0.36400
O 	O 	0.38830 0.67510 0.15250 -0.44300
O 	O 	0.36830 0.84710 0.23150 -0.42800
O 	O 	0.77670 0.15160 0.20070 -0.22100
