data_crystal

_cell_length_a 11.07880
_cell_length_b 12.69650
_cell_length_c 12.78790
_cell_angle_alpha 65.77600
_cell_angle_beta  86.62000
_cell_angle_gamma 83.38700

_symmetry_space_group_name_	'P 1'
_symmetry_space_group_name_H-M	'P 1'

loop_
_symmetry_equiv_pos_as_xyz
  x,y,z

loop_
_atom_site_label
_atom_site_type_symbol
_atom_site_fract_x
_atom_site_fract_y
_atom_site_fract_z
_atom_site_charge
Co	Co	0.75045 0.11533 0.05159 1.11100
Co	Co	0.10216 0.81873 0.23137 1.18500
C 	C 	0.02390 0.09110 0.29570 -0.13800
C 	C 	0.94780 0.13630 0.36070 0.02900
H 	H 	0.86550 0.15530 0.34400 0.04100
C 	C 	0.99390 0.15330 0.45030 -0.01100
C 	C 	0.11670 0.12500 0.47440 -0.16100
H 	H 	0.14850 0.13510 0.53510 0.10300
C 	C 	0.19180 0.08170 0.40780 0.17900
C 	C 	0.14670 0.06360 0.31910 -0.10200
H 	H 	0.19800 0.03350 0.27570 0.07300
C 	C 	0.97050 0.06900 0.20200 0.43700
C 	C 	0.90920 0.19190 0.52830 0.32500
C 	C 	0.38940 0.98310 0.40200 0.17900
H 	H 	0.33950 0.93290 0.38710 0.02500
H 	H 	0.44600 0.93450 0.46200 0.02000
C 	C 	0.48560 0.14390 0.12430 0.08200
H 	H 	0.47240 0.19230 0.04750 -0.02900
C 	C 	0.57570 0.03760 0.27660 0.01400
H 	H 	0.63450 0.99490 0.33110 0.07400
C 	C 	0.51050 0.18420 0.76820 -0.02400
C 	C 	0.40070 0.15380 0.82520 -0.03800
H 	H 	0.39940 0.11030 0.90410 0.07000
C 	C 	0.29370 0.18830 0.76470 -0.04200
C 	C 	0.29420 0.25680 0.64640 -0.13400
H 	H 	0.22180 0.28240 0.60620 0.10200
C 	C 	0.40440 0.28570 0.59030 0.20100
C 	C 	0.51170 0.24920 0.65020 -0.14000
H 	H 	0.58520 0.26810 0.61150 0.11400
C 	C 	0.62990 0.14820 0.83050 0.35600
C 	C 	0.17270 0.15490 0.82270 0.34900
C 	C 	0.32780 0.35990 0.39770 0.10200
H 	H 	0.28480 0.29100 0.43030 0.02100
H 	H 	0.36610 0.36270 0.32660 0.01500
C 	C 	0.08220 0.56060 0.37820 0.09900
H 	H 	0.00390 0.58240 0.39730 0.00000
C 	C 	0.24980 0.57020 0.30030 0.11400
H 	H 	0.31760 0.59620 0.25430 -0.02300
N 	N 	0.45680 0.04690 0.29840 -0.11500
N 	N 	0.39780 0.11540 0.19980 -0.09900
N 	N 	0.59800 0.09750 0.16640 -0.23700
N 	N 	0.24160 0.46130 0.37340 -0.11100
N 	N 	0.13230 0.45380 0.42530 -0.09800
N 	N 	0.15090 0.63640 0.30090 -0.24500
O 	O 	0.03940 0.01720 0.15120 -0.57800
O 	O 	0.86110 0.10440 0.18010 -0.49500
O 	O 	0.80160 0.22400 0.50160 -0.26800
O 	O 	0.95780 0.18250 0.61860 -0.40500
O 	O 	0.31490 0.05830 0.43960 -0.26100
O 	O 	0.72300 0.14800 0.77060 -0.43800
O 	O 	0.62520 0.12300 0.93630 -0.40600
O 	O 	0.17230 0.06360 0.91550 -0.49000
O 	O 	0.08140 0.22000 0.77550 -0.42200
O 	O 	0.41790 0.35190 0.47400 -0.22600
H 	H 	0.07700 0.79600 0.05000 0.23900
O 	O 	0.10630 0.84820 0.06270 -0.81400
Co	Co	0.24955 0.88467 0.94841 1.17700
Co	Co	0.89784 0.18127 0.76863 1.18500
C 	C 	0.97610 0.90890 0.70430 0.08500
C 	C 	0.05220 0.86370 0.63930 -0.10900
H 	H 	0.13450 0.84470 0.65600 0.10000
C 	C 	0.00610 0.84670 0.54970 -0.02200
C 	C 	0.88330 0.87500 0.52560 -0.09400
H 	H 	0.85150 0.86490 0.46490 0.10200
C 	C 	0.80820 0.91830 0.59220 0.20500
C 	C 	0.85330 0.93640 0.68090 -0.17400
H 	H 	0.80200 0.96650 0.72430 0.13400
C 	C 	0.02950 0.93100 0.79800 0.26100
C 	C 	0.09080 0.80810 0.47170 0.33200
C 	C 	0.61060 0.01690 0.59800 -0.00300
H 	H 	0.66050 0.06710 0.61290 0.05200
H 	H 	0.55400 0.06550 0.53800 0.05100
C 	C 	0.51440 0.85610 0.87570 0.09900
H 	H 	0.52760 0.80770 0.95250 0.02500
C 	C 	0.42430 0.96240 0.72340 0.18400
H 	H 	0.36550 0.00510 0.66890 -0.04400
C 	C 	0.48950 0.81580 0.23180 -0.03700
C 	C 	0.59930 0.84620 0.17480 -0.01900
H 	H 	0.60060 0.88970 0.09590 0.04400
C 	C 	0.70630 0.81170 0.23530 -0.04600
C 	C 	0.70580 0.74320 0.35360 -0.12900
H 	H 	0.77820 0.71760 0.39380 0.10900
C 	C 	0.59560 0.71430 0.40970 0.19600
C 	C 	0.48830 0.75080 0.34980 -0.12700
H 	H 	0.41480 0.73190 0.38850 0.11200
C 	C 	0.37010 0.85180 0.16950 0.37500
C 	C 	0.82730 0.84510 0.17730 0.35200
C 	C 	0.67220 0.64010 0.60230 0.09600
H 	H 	0.71520 0.70900 0.56970 0.02900
H 	H 	0.63390 0.63730 0.67340 0.03100
C 	C 	0.91780 0.43940 0.62180 0.10900
H 	H 	0.99610 0.41760 0.60270 0.02800
C 	C 	0.75020 0.42980 0.69970 0.12100
H 	H 	0.68240 0.40380 0.74570 -0.00800
N 	N 	0.54320 0.95310 0.70160 -0.08500
N 	N 	0.60220 0.88460 0.80020 -0.07700
N 	N 	0.40200 0.90250 0.83360 -0.24000
N 	N 	0.75840 0.53870 0.62660 -0.10500
N 	N 	0.86770 0.54620 0.57470 -0.08300
N 	N 	0.84910 0.36360 0.69910 -0.23500
O 	O 	0.96060 0.98280 0.84880 -0.40900
O 	O 	0.13890 0.89560 0.81990 -0.41400
O 	O 	0.19840 0.77600 0.49840 -0.25700
O 	O 	0.04220 0.81750 0.38140 -0.41300
O 	O 	0.68510 0.94170 0.56040 -0.18400
O 	O 	0.27700 0.85200 0.22940 -0.42900
O 	O 	0.37480 0.87700 0.06370 -0.47100
O 	O 	0.82770 0.93640 0.08450 -0.48700
O 	O 	0.91860 0.78000 0.22450 -0.38900
O 	O 	0.58210 0.64810 0.52600 -0.22000
H 	H 	0.92300 0.20400 0.95000 0.28800
O 	O 	0.89370 0.15180 0.93730 -0.77500
Co	Co	-0.00000 0.00000 -0.00000 1.09400
