data_crystal

_cell_length_a 7.89990
_cell_length_b 13.75050
_cell_length_c 7.38290
_cell_angle_alpha 90.00000
_cell_angle_beta  90.00000
_cell_angle_gamma 90.00000

_symmetry_space_group_name_	'P 1'
_symmetry_space_group_name_H-M	'P 1'

loop_
_symmetry_equiv_pos_as_xyz
  x,y,z

loop_
_atom_site_label
_atom_site_type_symbol
_atom_site_fract_x
_atom_site_fract_y
_atom_site_fract_z
_atom_site_charge
Mg	Mg	0.22098 0.16484 0.26001 1.47900
O 	O 	0.10328 0.26967 0.10864 -0.45400
O 	O 	0.92776 0.33370 0.90761 -0.45500
O 	O 	0.30787 0.28667 0.40332 -0.41400
O 	O 	0.50494 0.35375 0.57942 -0.42300
O 	O 	0.11756 0.04786 0.11992 -0.42000
O 	O 	0.13469 0.92785 0.91934 -0.42800
C 	C 	0.98721 0.26418 0.99530 0.51000
H 	H 	0.93990 0.20170 0.97370 -0.11700
C 	C 	0.44413 0.28509 0.49220 0.45900
H 	H 	0.50590 0.22580 0.49230 -0.10400
C 	C 	0.19567 0.99715 0.00550 0.46200
H 	H 	0.31080 0.01310 0.98310 -0.10000
Mg	Mg	0.27902 0.83516 0.76001 1.48000
O 	O 	0.39672 0.73033 0.60864 -0.45500
O 	O 	0.57224 0.66630 0.40761 -0.45400
O 	O 	0.19213 0.71333 0.90332 -0.41300
O 	O 	0.99506 0.64625 0.07942 -0.42100
O 	O 	0.38244 0.95214 0.61992 -0.42300
O 	O 	0.36531 0.07215 0.41934 -0.43300
C 	C 	0.51279 0.73582 0.49530 0.51500
H 	H 	0.56010 0.79830 0.47370 -0.11700
C 	C 	0.05587 0.71491 0.99220 0.45600
H 	H 	0.99410 0.77420 0.99230 -0.10200
C 	C 	0.30433 0.00285 0.50550 0.47100
H 	H 	0.18920 0.98690 0.48310 -0.10300
Mg	Mg	0.77902 0.66484 0.23999 1.48000
O 	O 	0.89672 0.76967 0.39136 -0.45200
O 	O 	0.07224 0.83370 0.59239 -0.45300
O 	O 	0.69213 0.78667 0.09668 -0.41300
O 	O 	0.49506 0.85375 0.92058 -0.42000
O 	O 	0.88244 0.54786 0.38008 -0.42400
O 	O 	0.86531 0.42785 0.58066 -0.43300
C 	C 	0.01279 0.76418 0.50470 0.50900
H 	H 	0.06010 0.70170 0.52630 -0.11600
C 	C 	0.55587 0.78509 0.00780 0.45600
H 	H 	0.49410 0.72580 0.00770 -0.10300
C 	C 	0.80433 0.49715 0.49450 0.47400
H 	H 	0.68920 0.51310 0.51690 -0.10300
Mg	Mg	0.72098 0.33516 0.73999 1.48000
O 	O 	0.60328 0.23033 0.89136 -0.45700
O 	O 	0.42776 0.16630 0.09239 -0.45400
O 	O 	0.80787 0.21333 0.59668 -0.41300
O 	O 	0.00494 0.14625 0.42058 -0.42000
O 	O 	0.61756 0.45214 0.88008 -0.42400
O 	O 	0.63469 0.57215 0.08066 -0.43200
C 	C 	0.48721 0.23582 0.00470 0.51800
H 	H 	0.43990 0.29830 0.02630 -0.11700
C 	C 	0.94413 0.21491 0.50780 0.45200
H 	H 	0.00590 0.27420 0.50770 -0.10100
C 	C 	0.69567 0.50285 0.99450 0.47100
H 	H 	0.81080 0.48690 0.01690 -0.10100
