data_crystal

_cell_length_a 7.88880
_cell_length_b 13.77990
_cell_length_c 7.42950
_cell_angle_alpha 90.00000
_cell_angle_beta  90.00000
_cell_angle_gamma 90.00000

_symmetry_space_group_name_	'P 1'
_symmetry_space_group_name_H-M	'P 1'

loop_
_symmetry_equiv_pos_as_xyz
  x,y,z

loop_
_atom_site_label
_atom_site_type_symbol
_atom_site_fract_x
_atom_site_fract_y
_atom_site_fract_z
_atom_site_charge
Mg	Mg	0.22587 0.16461 0.25858 1.48000
O 	O 	0.10763 0.26988 0.10834 -0.46600
O 	O 	0.93298 0.33405 0.90949 -0.46800
O 	O 	0.31596 0.28520 0.40169 -0.43400
O 	O 	0.51044 0.35145 0.57951 -0.44100
O 	O 	0.12016 0.04889 0.11786 -0.43500
O 	O 	0.13351 0.92960 0.91832 -0.44100
C 	C 	0.99310 0.26561 0.99580 0.55700
H 	H 	0.94720 0.20460 0.97370 -0.13900
C 	C 	0.44700 0.28398 0.49510 0.51600
H 	H 	0.50360 0.22490 0.50180 -0.12600
C 	C 	0.19360 0.99842 0.00300 0.51000
H 	H 	0.30580 0.01430 0.97840 -0.12000
Mg	Mg	0.27413 0.83539 0.75858 1.48100
O 	O 	0.39237 0.73012 0.60834 -0.46800
O 	O 	0.56702 0.66595 0.40949 -0.46700
O 	O 	0.18404 0.71480 0.90169 -0.43100
O 	O 	0.98956 0.64855 0.07951 -0.43900
O 	O 	0.37984 0.95111 0.61786 -0.43800
O 	O 	0.36649 0.07040 0.41832 -0.44600
C 	C 	0.50690 0.73439 0.49580 0.56300
H 	H 	0.55280 0.79540 0.47370 -0.13900
C 	C 	0.05300 0.71602 0.99510 0.51200
H 	H 	0.99640 0.77510 0.00180 -0.12300
C 	C 	0.30640 0.00158 0.50300 0.52100
H 	H 	0.19420 0.98570 0.47840 -0.12400
Mg	Mg	0.77413 0.66461 0.24142 1.48100
O 	O 	0.89237 0.76988 0.39166 -0.46400
O 	O 	0.06702 0.83405 0.59051 -0.46600
O 	O 	0.68404 0.78520 0.09831 -0.43000
O 	O 	0.48956 0.85145 0.92049 -0.43700
O 	O 	0.87984 0.54889 0.38214 -0.44000
O 	O 	0.86649 0.42960 0.58168 -0.44800
C 	C 	0.00690 0.76561 0.50420 0.55700
H 	H 	0.05280 0.70460 0.52630 -0.13700
C 	C 	0.55300 0.78398 0.00490 0.50900
H 	H 	0.49640 0.72490 0.99820 -0.12300
C 	C 	0.80640 0.49842 0.49700 0.52500
H 	H 	0.69420 0.51430 0.52160 -0.12400
Mg	Mg	0.72587 0.33539 0.74142 1.48100
O 	O 	0.60763 0.23012 0.89166 -0.47000
O 	O 	0.43298 0.16595 0.09051 -0.46800
O 	O 	0.81596 0.21480 0.59831 -0.43100
O 	O 	0.01044 0.14855 0.42049 -0.43800
O 	O 	0.62016 0.45111 0.88214 -0.43900
O 	O 	0.63351 0.57040 0.08168 -0.44500
C 	C 	0.49310 0.23439 0.00420 0.56700
H 	H 	0.44720 0.29540 0.02630 -0.14000
C 	C 	0.94700 0.21602 0.50490 0.50800
H 	H 	0.00360 0.27510 0.49820 -0.12200
C 	C 	0.69360 0.50158 0.99700 0.52000
H 	H 	0.80580 0.48570 0.02160 -0.12100
