data_crystal

_cell_length_a 8.66400
_cell_length_b 8.66400
_cell_length_c 10.86100
_cell_angle_alpha 90.00000
_cell_angle_beta  90.00000
_cell_angle_gamma 120.00000

_symmetry_space_group_name_	'P 1'
_symmetry_space_group_name_H-M	'P 1'

loop_
_symmetry_equiv_pos_as_xyz
  x,y,z

loop_
_atom_site_label
_atom_site_type_symbol
_atom_site_fract_x
_atom_site_fract_y
_atom_site_fract_z
_atom_site_charge
O 	O 	0.81124 0.97792 0.93463 -0.24000
O 	O 	0.19387 0.88208 0.63707 -0.30300
C 	C 	0.47836 0.94249 0.72677 0.06400
H 	H 	0.10025 0.46209 0.00304 0.09500
C 	C 	0.31488 0.94006 0.72883 0.06400
O 	O 	0.02208 0.83332 0.26796 -0.39900
O 	O 	0.11792 0.31179 0.97040 -0.19800
C 	C 	0.05751 0.53587 0.06010 -0.02400
H 	H 	0.53791 0.63816 0.33637 0.11500
C 	C 	0.05994 0.37482 0.06216 -0.12200
O 	O 	0.16668 0.18876 0.60130 -0.43500
O 	O 	0.68821 0.80613 0.30374 -0.26500
C 	C 	0.46413 0.52164 0.39344 -0.01700
H 	H 	0.36184 0.89975 0.66971 0.07000
C 	C 	0.62518 0.68512 0.39550 -0.03600
O 	O 	0.97792 0.81124 0.06537 -0.32400
O 	O 	0.88208 0.19387 0.36293 -0.30300
C 	C 	0.94249 0.47836 0.27323 0.06500
H 	H 	0.46209 0.10025 0.99696 0.12100
C 	C 	0.94006 0.31488 0.27117 0.02100
O 	O 	0.83332 0.02208 0.73204 -0.39300
O 	O 	0.31179 0.11792 0.02960 -0.40300
C 	C 	0.53587 0.05751 0.93990 -0.01000
H 	H 	0.63816 0.53791 0.66363 0.12400
C 	C 	0.37482 0.05994 0.93784 0.08200
O 	O 	0.18876 0.16668 0.39870 -0.43900
O 	O 	0.80613 0.68821 0.69626 -0.24500
C 	C 	0.52164 0.46413 0.60656 -0.00800
H 	H 	0.89975 0.36184 0.33029 0.08200
C 	C 	0.68512 0.62518 0.60450 -0.04400
Fe	Fe	0.05597 0.05597 -0.00000 1.15800
Fe	Fe	0.94403 0.00000 0.33333 1.23800
Fe	Fe	-0.00000 0.94403 0.66667 1.24300
O 	O 	0.11330 0.00000 0.83333 -0.45400
C 	C 	0.75580 0.00000 0.83333 0.30300
C 	C 	0.58218 0.00000 0.83333 -0.09600
C 	C 	0.26950 0.00000 0.83333 0.05200
O 	O 	-0.00000 0.11330 0.16667 -0.51400
C 	C 	-0.00000 0.75580 0.16667 0.31200
C 	C 	-0.00000 0.58218 0.16667 -0.12400
C 	C 	-0.00000 0.26950 0.16667 0.10400
O 	O 	0.88670 0.88670 0.50000 -0.40100
C 	C 	0.24420 0.24420 0.50000 0.38500
C 	C 	0.41782 0.41782 0.50000 -0.06400
C 	C 	0.73050 0.73050 0.50000 0.16300
