data_crystal

_cell_length_a 8.86210
_cell_length_b 13.98120
_cell_length_c 16.39930
_cell_angle_alpha 66.35220
_cell_angle_beta  74.32410
_cell_angle_gamma 71.52280

_symmetry_space_group_name_	'P 1'
_symmetry_space_group_name_H-M	'P 1'

loop_
_symmetry_equiv_pos_as_xyz
  x,y,z

loop_
_atom_site_label
_atom_site_type_symbol
_atom_site_fract_x
_atom_site_fract_y
_atom_site_fract_z
_atom_site_charge
Cu	Cu	-0.00000 0.00000 -0.00000 0.78400
Cu	Cu	0.50000 0.50000 -0.00000 0.84600
Cu	Cu	-0.00000 -0.00000 0.50000 0.83100
Cu	Cu	-0.00000 0.50000 0.50000 0.85800
H 	H 	0.58970 0.13450 0.34710 0.24300
H 	H 	0.37850 0.54970 0.64310 0.26000
H 	H 	0.88210 0.39600 0.16920 0.09700
H 	H 	0.41460 0.71500 0.86020 0.10400
H 	H 	0.98980 0.78500 0.63980 0.21200
H 	H 	0.96210 0.95450 0.34610 0.10100
H 	H 	0.25280 0.79600 0.01420 -0.00800
H 	H 	0.44730 0.10400 0.33080 0.23100
H 	H 	0.29010 0.27990 0.37170 0.08900
H 	H 	0.62150 0.45030 0.35690 0.29600
H 	H 	0.51920 0.71280 0.37120 0.12000
H 	H 	0.34890 0.46130 0.41770 0.07900
H 	H 	0.58540 0.28500 0.13980 0.05000
H 	H 	0.05830 0.77990 0.87170 0.15300
H 	H 	0.70530 0.53220 0.35920 0.30700
H 	H 	0.03790 0.04550 0.65390 -0.04800
H 	H 	0.59670 0.96780 0.14080 0.14400
H 	H 	0.29470 0.46780 0.64080 0.25300
H 	H 	0.92870 0.63450 0.84710 0.48000
H 	H 	0.11790 0.60400 0.83080 0.41600
H 	H 	0.93700 0.29600 0.51420 0.05900
H 	H 	0.62680 0.55810 0.27550 0.30700
H 	H 	0.02490 0.61870 0.75610 0.39500
H 	H 	0.70990 0.72010 0.62830 0.12500
H 	H 	0.46040 0.94190 0.22450 0.15300
H 	H 	0.01020 0.21500 0.36020 -0.08600
H 	H 	0.39970 0.88130 0.74390 0.30400
H 	H 	0.07130 0.36550 0.15290 0.02800
H 	H 	0.06300 0.70400 0.48580 0.01000
H 	H 	0.60320 0.78720 0.12880 0.06200
H 	H 	0.41030 0.86550 0.65290 0.30100
H 	H 	0.55270 0.89600 0.66920 0.30700
H 	H 	0.26270 0.54550 0.15390 0.02000
H 	H 	0.94170 0.22010 0.12830 0.05400
H 	H 	0.40330 0.03220 0.85920 0.38200
H 	H 	0.97510 0.38130 0.24390 0.12400
H 	H 	0.37320 0.44190 0.72450 0.26600
H 	H 	0.73730 0.45450 0.84610 0.05300
H 	H 	0.74720 0.20400 0.98580 0.07700
H 	H 	0.53960 0.05810 0.77550 0.38300
H 	H 	0.48080 0.28720 0.62880 0.09800
H 	H 	0.39680 0.21280 0.87120 0.14300
H 	H 	0.42870 0.04970 0.14310 0.08000
H 	H 	0.22790 0.03870 0.08230 -0.06800
H 	H 	0.65110 0.53870 0.58230 0.07800
H 	H 	0.77210 0.96130 0.91770 0.18300
H 	H 	0.57130 0.95030 0.85690 0.42800
H 	H 	0.60030 0.11870 0.25610 0.23900
C 	C 	0.32556 0.31558 0.31130 -0.18300
C 	C 	0.02400 0.64400 0.80280 -1.31600
C 	C 	0.08358 0.98274 0.82070 0.35200
C 	C 	0.99347 0.18026 0.32660 0.12400
C 	C 	0.11298 0.48274 0.32070 0.31400
C 	C 	0.25309 0.42182 0.27080 -0.04300
C 	C 	0.45923 0.57924 0.38410 0.31200
C 	C 	0.38235 0.47500 0.66010 -0.79500
C 	C 	0.50033 0.31974 0.17340 -0.13600
C 	C 	0.02492 0.76156 0.76220 0.49000
C 	C 	0.94571 0.07818 0.22920 -0.04100
C 	C 	0.04756 0.81558 0.81130 -0.33000
C 	C 	0.28112 0.97026 0.08070 0.06300
C 	C 	0.29711 0.82856 0.03862 0.04000
C 	C 	0.47080 0.85600 0.69720 -0.89200
C 	C 	0.74396 0.16978 0.55450 0.31300
C 	C 	0.54868 0.73844 0.73780 0.32200
C 	C 	0.33208 0.52974 0.41930 -0.16400
C 	C 	0.95244 0.18442 0.18870 -0.05900
C 	C 	0.88702 0.51726 0.67930 0.28500
C 	C 	0.68959 0.52666 0.81856 -0.01700
C 	C 	0.57743 0.07924 0.88410 0.46100
C 	C 	0.56468 0.32204 0.60760 -0.19900
C 	C 	0.83571 0.32856 0.53862 0.01100
C 	C 	0.49432 0.17796 0.89240 -0.30300
C 	C 	0.28657 0.72504 0.43222 -0.01800
C 	C 	0.48255 0.97500 0.16010 -0.35600
C 	C 	0.05429 0.92182 0.77080 -0.01700
C 	C 	0.45132 0.26156 0.26220 0.23900
C 	C 	0.53176 0.66978 0.05450 0.33600
C 	C 	0.16429 0.67144 0.46138 0.00200
C 	C 	0.51745 0.02500 0.83990 -1.19200
C 	C 	0.66792 0.47026 0.58070 -0.14300
C 	C 	0.67444 0.68442 0.68870 -0.24000
C 	C 	0.43532 0.67796 0.39240 -0.22000
C 	C 	0.71343 0.27496 0.56778 -0.01700
C 	C 	0.52920 0.14400 0.30280 -0.74200
C 	C 	0.03481 0.97334 0.68144 0.07600
C 	C 	0.54077 0.42076 0.61590 0.27700
C 	C 	0.71888 0.02974 0.91930 -0.29200
C 	C 	0.55617 0.22504 0.93222 0.04800
C 	C 	0.42257 0.92076 0.11590 0.06500
C 	C 	0.96519 0.02666 0.31856 -0.05200
C 	C 	0.46824 0.33022 0.94550 0.29800
C 	C 	0.31041 0.47334 0.18144 0.00700
C 	C 	0.61765 0.52500 0.33990 -0.88300
C 	C 	0.49967 0.68026 0.82660 -0.17600
C 	C 	0.70289 0.17144 0.96138 -0.01200
C 	C 	0.44383 0.77496 0.06778 -0.10300
C 	C 	0.00653 0.81974 0.67340 -0.38800
C 	C 	0.97600 0.35600 0.19720 -0.22600
C 	C 	0.74691 0.57818 0.72920 0.00500
C 	C 	0.97508 0.23844 0.23780 0.02800
C 	C 	0.91642 0.01726 0.17930 0.25600
C 	C 	0.50568 0.82204 0.10760 -0.07400
C 	C 	0.25604 0.83022 0.44550 0.31000
N 	N 	0.01153 0.92297 0.63297 -0.14300
N 	N 	0.56747 0.57703 0.86703 -0.14300
N 	N 	0.18506 0.57470 0.45598 -0.17700
N 	N 	0.78426 0.07470 0.95598 -0.09900
N 	N 	0.21574 0.92530 0.04402 -0.22400
N 	N 	0.98847 0.07703 0.36703 -0.19600
N 	N 	0.43253 0.42297 0.13297 -0.18800
N 	N 	0.81494 0.42530 0.54402 -0.15500
O 	O 	0.96378 0.42891 0.72273 -0.24800
O 	O 	0.63300 0.12440 0.57560 -0.31200
O 	O 	0.33300 0.37560 0.92440 -0.28200
O 	O 	0.08745 0.43586 0.40504 -0.43400
O 	O 	0.45479 0.63510 0.02212 -0.44600
O 	O 	0.07165 0.93586 0.90504 -0.37300
O 	O 	0.11542 0.07109 0.77727 -0.35100
O 	O 	0.88458 0.92891 0.22273 -0.21700
O 	O 	0.36700 0.87560 0.42440 -0.28300
O 	O 	0.91255 0.56414 0.59496 -0.36800
O 	O 	0.92835 0.06414 0.09496 -0.39700
O 	O 	0.88799 0.13510 0.52212 -0.37200
O 	O 	0.11201 0.86490 0.47788 -0.41400
O 	O 	0.54521 0.36490 0.97788 -0.35100
O 	O 	0.03622 0.57109 0.27727 -0.32000
O 	O 	0.66700 0.62440 0.07560 -0.31500
