data_crystal

_cell_length_a 10.18840
_cell_length_b 10.18840
_cell_length_c 11.73320
_cell_angle_alpha 85.06200
_cell_angle_beta  85.06200
_cell_angle_gamma 70.54140

_symmetry_space_group_name_	'P 1'
_symmetry_space_group_name_H-M	'P 1'

loop_
_symmetry_equiv_pos_as_xyz
  x,y,z

loop_
_atom_site_label
_atom_site_type_symbol
_atom_site_fract_x
_atom_site_fract_y
_atom_site_fract_z
_atom_site_charge
Cd	Cd	0.97825 0.02175 -0.00000 1.13000
Cd	Cd	0.78608 0.21392 0.50000 1.18800
H 	H 	0.36070 0.61010 0.66990 0.09300
H 	H 	0.13680 0.16540 0.35050 0.05900
H 	H 	0.38320 0.07780 0.72170 0.06900
H 	H 	0.68350 0.05670 0.14170 -0.10400
H 	H 	0.93960 0.93600 0.37220 -0.10000
H 	H 	0.30380 0.16040 0.47450 0.02700
H 	H 	0.06400 0.06040 0.62780 -0.10300
H 	H 	0.92220 0.61680 0.27830 0.06100
H 	H 	0.01850 0.73250 0.13910 0.04000
H 	H 	0.26410 0.86990 0.63530 0.14900
H 	H 	0.94330 0.31650 0.85830 -0.05400
H 	H 	0.54170 0.41070 0.66350 -0.02500
H 	H 	0.68960 0.71900 0.34050 0.02900
H 	H 	0.83460 0.86320 0.64950 0.07200
H 	H 	0.58930 0.45830 0.33650 -0.04200
H 	H 	0.28100 0.31040 0.65950 0.03300
H 	H 	0.26750 0.98150 0.86090 0.07900
H 	H 	0.38990 0.63930 0.33010 0.08100
H 	H 	0.83960 0.69620 0.52550 0.02400
H 	H 	0.43240 0.91340 0.14910 0.05200
H 	H 	0.13010 0.73590 0.36470 0.14300
H 	H 	0.08660 0.56760 0.85090 0.09400
C 	C 	0.42200 0.59760 0.40060 -0.14800
C 	C 	0.57490 0.06250 0.45650 0.37200
C 	C 	0.02820 0.48940 0.71750 0.14700
C 	C 	0.96810 0.84170 0.83960 0.24400
C 	C 	0.03450 0.59330 0.78650 -0.07100
C 	C 	0.29490 0.12950 0.75080 -0.08000
C 	C 	0.15830 0.03190 0.16040 0.24900
C 	C 	0.92800 0.77640 0.16850 -0.02000
C 	C 	0.51390 0.46130 0.59480 0.10300
C 	C 	0.96420 0.73300 0.76000 -0.02900
C 	C 	0.40670 0.96550 0.21350 -0.05200
C 	C 	0.88590 0.66930 0.59300 0.05000
C 	C 	0.72990 0.96570 0.16840 0.14700
C 	C 	0.20040 0.87900 0.58050 -0.27800
C 	C 	0.95330 0.52850 0.62030 -0.18600
C 	C 	0.22290 0.77710 0.50000 0.15900
C 	C 	0.40240 0.57800 0.59940 -0.14600
C 	C 	0.35040 0.64960 0.50000 0.04900
C 	C 	0.26700 0.03580 0.24000 -0.07100
C 	C 	0.22970 0.11330 0.33460 -0.06400
C 	C 	0.47150 0.04670 0.37970 -0.18500
C 	C 	0.73260 0.76700 0.28730 0.01500
C 	C 	0.33070 0.11410 0.40700 0.03300
C 	C 	0.12100 0.79960 0.41950 -0.27500
C 	C 	0.00620 0.92100 0.42560 0.32900
C 	C 	0.65910 0.90030 0.24620 -0.09000
C 	C 	0.87050 0.70510 0.24920 -0.09900
C 	C 	0.07900 0.99380 0.57440 0.33200
C 	C 	0.88670 0.77030 0.66540 -0.07900
C 	C 	0.93750 0.42510 0.54350 0.37500
C 	C 	0.22360 0.07200 0.83150 -0.00900
C 	C 	0.09970 0.34090 0.75380 -0.07300
C 	C 	0.53870 0.48610 0.40520 0.10300
C 	C 	0.51060 0.97180 0.28250 0.13600
C 	C 	0.23300 0.26740 0.71270 0.01600
C 	C 	0.03430 0.27010 0.83160 0.13900
N 	N 	0.09490 0.13790 0.87060 -0.20600
N 	N 	0.86210 0.90510 0.12940 -0.24600
N 	N 	0.58640 0.41360 0.50000 -0.25400
N 	N 	0.98420 0.01580 0.50000 -0.40600
O 	O 	0.96020 0.44500 0.43880 -0.33700
O 	O 	0.19015 0.93755 0.09320 -0.35900
O 	O 	0.67164 0.10184 0.41020 -0.46200
O 	O 	0.55500 0.03980 0.56120 -0.32800
O 	O 	0.04010 0.12310 0.16570 -0.37800
O 	O 	0.87690 0.95990 0.83430 -0.32400
O 	O 	0.06245 0.80985 0.90680 -0.28200
O 	O 	0.89816 0.32836 0.58980 -0.45600
