data_crystal

_cell_length_a 13.63100
_cell_length_b 16.78040
_cell_length_c 10.92610
_cell_angle_alpha 90.00000
_cell_angle_beta  115.62300
_cell_angle_gamma 90.00000

_symmetry_space_group_name_	'P 1'
_symmetry_space_group_name_H-M	'P 1'

loop_
_symmetry_equiv_pos_as_xyz
  x,y,z

loop_
_atom_site_label
_atom_site_type_symbol
_atom_site_fract_x
_atom_site_fract_y
_atom_site_fract_z
_atom_site_charge
Ag	Ag	0.55286 0.55742 0.83075 0.53900
C 	C 	0.63840 0.55380 0.60860 -0.06800
H 	H 	0.67550 0.52950 0.55750 0.03000
H 	H 	0.67770 0.60330 0.65160 0.03900
C 	C 	0.46520 0.44459 0.55280 -0.06500
H 	H 	0.42590 0.39510 0.50950 0.03600
H 	H 	0.42770 0.46910 0.60330 0.02800
N 	N 	0.64120 0.49775 0.71520 -0.12500
N 	N 	0.46330 0.50017 0.44740 -0.12300
C 	C 	0.82720 0.43910 0.76950 0.07300
C 	C 	0.28080 0.56160 0.40230 0.10400
C 	C 	0.94990 0.44150 0.65630 -0.03300
H 	H 	0.98670 0.47080 0.61450 0.04700
C 	C 	0.20950 0.68660 0.43550 0.04600
C 	C 	0.16460 0.56630 0.51400 0.04200
H 	H 	0.12800 0.53900 0.55830 0.00000
C 	C 	0.52280 0.57350 0.51280 -0.07400
H 	H 	0.48640 0.59970 0.56330 0.04000
H 	H 	0.52210 0.61110 0.44250 0.03300
C 	C 	0.35060 0.51760 0.34540 -0.14800
H 	H 	0.31430 0.46670 0.30490 0.06400
H 	H 	0.35410 0.55020 0.27190 0.05500
C 	C 	0.58150 0.42450 0.65040 -0.07600
H 	H 	0.58150 0.38740 0.72090 0.03300
H 	H 	0.61810 0.39780 0.60070 0.04100
C 	C 	0.90610 0.31820 0.72960 -0.00500
C 	C 	0.75490 0.48170 0.81840 -0.13700
H 	H 	0.78930 0.53340 0.85750 0.06300
H 	H 	0.75130 0.45010 0.89270 0.05100
C 	C 	0.83910 0.35760 0.77910 -0.10100
H 	H 	0.80170 0.32760 0.81950 0.05900
C 	C 	0.27080 0.64510 0.38420 -0.14200
H 	H 	0.30570 0.67220 0.33760 0.07000
C 	C 	0.88360 0.48140 0.70610 -0.08900
H 	H 	0.87630 0.53770 0.69720 0.05600
C 	C 	0.91760 0.23420 0.74370 0.07200
C 	C 	0.96120 0.36060 0.66820 0.00800
H 	H 	0.00590 0.33350 0.63510 -0.00200
C 	C 	0.22490 0.52290 0.46240 -0.15200
H 	H 	0.22730 0.46640 0.46880 0.06900
C 	C 	0.19950 0.77270 0.42050 0.04200
N 	N 	0.19080 0.83970 0.41310 -0.17300
N 	N 	0.92820 0.16570 0.75670 -0.17100
C 	C 	0.15660 0.64790 0.50270 -0.11700
H 	H 	0.11600 0.67710 0.53970 0.05700
Ag	Ag	0.05286 0.05742 0.83075 0.52100
C 	C 	0.13840 0.05380 0.60860 -0.03000
H 	H 	0.17550 0.02950 0.55750 0.01700
H 	H 	0.17770 0.10330 0.65160 0.02300
C 	C 	0.96520 0.94459 0.55280 -0.02400
H 	H 	0.92590 0.89510 0.50950 0.03100
H 	H 	0.92770 0.96910 0.60330 0.02300
N 	N 	0.14120 0.99775 0.71520 -0.12700
N 	N 	0.96330 0.00017 0.44740 -0.10000
C 	C 	0.32720 0.93910 0.76950 0.09500
C 	C 	0.78080 0.06160 0.40230 0.10800
C 	C 	0.44990 0.94150 0.65630 0.02800
H 	H 	0.48670 0.97080 0.61450 0.01500
C 	C 	0.70950 0.18660 0.43550 0.04900
C 	C 	0.66460 0.06630 0.51400 0.04600
H 	H 	0.62800 0.03900 0.55830 0.00800
C 	C 	0.02280 0.07350 0.51280 -0.17700
H 	H 	0.98640 0.09970 0.56330 0.09100
H 	H 	0.02210 0.11110 0.44250 0.05100
C 	C 	0.85060 0.01760 0.34540 -0.15000
H 	H 	0.81430 0.96670 0.30490 0.06600
H 	H 	0.85410 0.05020 0.27190 0.06200
C 	C 	0.08150 0.92450 0.65040 -0.11600
H 	H 	0.08150 0.88740 0.72090 0.03700
H 	H 	0.11810 0.89780 0.60070 0.04700
C 	C 	0.40610 0.81820 0.72960 0.03900
C 	C 	0.25490 0.98170 0.81840 -0.14400
H 	H 	0.28930 0.03340 0.85750 0.06200
H 	H 	0.25130 0.95010 0.89270 0.05200
C 	C 	0.33910 0.85760 0.77910 -0.13400
H 	H 	0.30170 0.82760 0.81950 0.06600
C 	C 	0.77080 0.14510 0.38420 -0.14300
H 	H 	0.80570 0.17220 0.33760 0.07500
C 	C 	0.38360 0.98140 0.70610 -0.12800
H 	H 	0.37630 0.03770 0.69720 0.06300
C 	C 	0.41760 0.73420 0.74370 0.04500
C 	C 	0.46120 0.86060 0.66820 -0.10100
H 	H 	0.50590 0.83350 0.63510 0.06100
C 	C 	0.72490 0.02290 0.46240 -0.15000
H 	H 	0.72730 0.96640 0.46880 0.07200
C 	C 	0.69950 0.27270 0.42050 0.04900
N 	N 	0.69080 0.33970 0.41310 -0.17000
N 	N 	0.42820 0.66570 0.75670 -0.17200
C 	C 	0.65660 0.14790 0.50270 -0.11400
H 	H 	0.61600 0.17710 0.53970 0.06400
Ag	Ag	0.55286 0.44258 0.33075 0.54000
C 	C 	0.63840 0.44620 0.10860 -0.08000
H 	H 	0.67550 0.47050 0.05750 0.03500
H 	H 	0.67770 0.39670 0.15160 0.04300
C 	C 	0.46520 0.55541 0.05280 -0.05900
H 	H 	0.42590 0.60490 0.00950 0.03700
H 	H 	0.42770 0.53090 0.10330 0.02800
N 	N 	0.64120 0.50225 0.21520 -0.12300
N 	N 	0.46330 0.49983 0.94740 -0.13200
C 	C 	0.82720 0.56090 0.26950 0.07800
C 	C 	0.28080 0.43840 0.90230 0.10300
C 	C 	0.94990 0.55850 0.15630 -0.02700
H 	H 	0.98670 0.52920 0.11450 0.04600
C 	C 	0.20950 0.31340 0.93550 0.03500
C 	C 	0.16460 0.43370 0.01400 0.05200
H 	H 	0.12800 0.46100 0.05830 -0.00100
C 	C 	0.52280 0.42650 0.01280 -0.04900
H 	H 	0.48640 0.40030 0.06330 0.03500
H 	H 	0.52210 0.38890 0.94250 0.02100
C 	C 	0.35060 0.48240 0.84540 -0.14800
H 	H 	0.31430 0.53330 0.80490 0.06300
H 	H 	0.35410 0.44980 0.77190 0.05400
C 	C 	0.58150 0.57550 0.15040 -0.07900
H 	H 	0.58150 0.61260 0.22090 0.03500
H 	H 	0.61810 0.60220 0.10070 0.04300
C 	C 	0.90610 0.68180 0.22960 -0.00100
C 	C 	0.75490 0.51830 0.31840 -0.14000
H 	H 	0.78930 0.46660 0.35750 0.06600
H 	H 	0.75130 0.54990 0.39270 0.05400
C 	C 	0.83910 0.64240 0.27910 -0.10300
H 	H 	0.80170 0.67240 0.31950 0.06100
C 	C 	0.27080 0.35490 0.88420 -0.14100
H 	H 	0.30570 0.32780 0.83760 0.06800
C 	C 	0.88360 0.51860 0.20610 -0.09200
H 	H 	0.87630 0.46230 0.19720 0.05800
C 	C 	0.91760 0.76580 0.24370 0.07300
C 	C 	0.96120 0.63940 0.16820 0.00200
H 	H 	0.00590 0.66650 0.13510 0.00300
C 	C 	0.22490 0.47710 0.96240 -0.16400
H 	H 	0.22730 0.53360 0.96880 0.07000
C 	C 	0.19950 0.22730 0.92050 0.04100
N 	N 	0.19080 0.16030 0.91310 -0.17600
N 	N 	0.92820 0.83430 0.25670 -0.17000
C 	C 	0.15660 0.35210 0.00270 -0.10800
H 	H 	0.11600 0.32290 0.03970 0.05700
Ag	Ag	0.05286 0.94258 0.33075 0.52500
C 	C 	0.13840 0.94620 0.10860 -0.04300
H 	H 	0.17550 0.97050 0.05750 0.02200
H 	H 	0.17770 0.89670 0.15160 0.02800
C 	C 	0.96520 0.05541 0.05280 -0.01700
H 	H 	0.92590 0.10490 0.00950 0.03200
H 	H 	0.92770 0.03090 0.10330 0.02300
N 	N 	0.14120 0.00225 0.21520 -0.12400
N 	N 	0.96330 0.99983 0.94740 -0.10800
C 	C 	0.32720 0.06090 0.26950 0.09800
C 	C 	0.78080 0.93840 0.90230 0.10500
C 	C 	0.44990 0.05850 0.15630 0.02900
H 	H 	0.48670 0.02920 0.11450 0.01600
C 	C 	0.70950 0.81340 0.93550 0.04100
C 	C 	0.66460 0.93370 0.01400 0.04800
H 	H 	0.62800 0.96100 0.05830 0.00900
C 	C 	0.02280 0.92650 0.01280 -0.14900
H 	H 	0.98640 0.90030 0.06330 0.08300
H 	H 	0.02210 0.88890 0.94250 0.03900
C 	C 	0.85060 0.98240 0.84540 -0.14900
H 	H 	0.81430 0.03330 0.80490 0.06500
H 	H 	0.85410 0.94980 0.77190 0.06100
C 	C 	0.08150 0.07550 0.15040 -0.11900
H 	H 	0.08150 0.11260 0.22090 0.03900
H 	H 	0.11810 0.10220 0.10070 0.05100
C 	C 	0.40610 0.18180 0.22960 0.04100
C 	C 	0.25490 0.01830 0.31840 -0.14900
H 	H 	0.28930 0.96660 0.35750 0.06600
H 	H 	0.25130 0.04990 0.39270 0.05500
C 	C 	0.33910 0.14240 0.27910 -0.13400
H 	H 	0.30170 0.17240 0.31950 0.06800
C 	C 	0.77080 0.85490 0.88420 -0.14000
H 	H 	0.80570 0.82780 0.83760 0.07300
C 	C 	0.38360 0.01860 0.20610 -0.12700
H 	H 	0.37630 0.96230 0.19720 0.06400
C 	C 	0.41760 0.26580 0.24370 0.04700
C 	C 	0.46120 0.13940 0.16820 -0.10000
H 	H 	0.50590 0.16650 0.13510 0.06200
C 	C 	0.72490 0.97710 0.96240 -0.15200
H 	H 	0.72730 0.03360 0.96880 0.06900
C 	C 	0.69950 0.72730 0.92050 0.04900
N 	N 	0.69080 0.66030 0.91310 -0.17300
N 	N 	0.42820 0.33430 0.25670 -0.17100
C 	C 	0.65660 0.85210 0.00270 -0.10600
H 	H 	0.61600 0.82290 0.03970 0.06300
