data_crystal

_cell_length_a 13.82380
_cell_length_b 28.17450
_cell_length_c 45.19950
_cell_angle_alpha 90.00000
_cell_angle_beta  90.00000
_cell_angle_gamma 90.00000

_symmetry_space_group_name_	'P 1'
_symmetry_space_group_name_H-M	'P 1'

loop_
_symmetry_equiv_pos_as_xyz
  x,y,z

loop_
_atom_site_label
_atom_site_type_symbol
_atom_site_fract_x
_atom_site_fract_y
_atom_site_fract_z
_atom_site_charge
Zn	Zn	0.14466 0.44742 0.57888 1.16400
Zn	Zn	0.83416 0.23860 0.81556 1.16200
Zn	Zn	0.12742 0.97795 0.58663 1.16400
Zn	Zn	0.85534 0.05258 0.07888 1.16400
Zn	Zn	0.16584 0.26140 0.31556 1.16200
Zn	Zn	0.87258 0.52205 0.08663 1.16400
Zn	Zn	0.64466 0.55258 0.92112 1.16400
Zn	Zn	0.33416 0.76140 0.68444 1.16200
Zn	Zn	0.62742 0.02205 0.91337 1.16400
Zn	Zn	0.35534 0.94742 0.42112 1.16400
Zn	Zn	0.66584 0.73860 0.18444 1.16200
Zn	Zn	0.37258 0.47795 0.41337 1.16400
H 	H 	0.09040 0.27150 0.58900 0.09400
H 	H 	0.12580 0.34410 0.56580 -0.03400
H 	H 	0.06750 0.41430 0.63560 -0.01900
H 	H 	0.02870 0.34520 0.66160 0.09000
H 	H 	0.99300 0.29340 0.72280 0.08900
H 	H 	0.94280 0.29780 0.77160 -0.01200
H 	H 	0.89480 0.16340 0.77360 -0.02400
H 	H 	0.94740 0.15450 0.72720 0.08800
H 	H 	0.03700 0.08820 0.66950 0.08100
H 	H 	0.06730 0.01710 0.64560 -0.01000
H 	H 	0.11760 0.08310 0.57070 -0.00300
H 	H 	0.07920 0.15560 0.59120 0.08000
H 	H 	0.87040 0.44690 0.50760 0.09300
H 	H 	0.95370 0.46570 0.55050 -0.00900
H 	H 	0.19590 0.41810 0.51690 -0.01100
H 	H 	0.11840 0.39580 0.47440 0.08400
H 	H 	0.11620 0.35570 0.40460 0.09800
H 	H 	0.19660 0.32170 0.36740 -0.02100
H 	H 	0.95560 0.27910 0.33200 -0.02400
H 	H 	0.86990 0.31890 0.36720 0.09500
H 	H 	0.67640 0.39310 0.38650 0.10300
H 	H 	0.51860 0.41580 0.38150 -0.00600
H 	H 	0.51480 0.46760 0.46260 -0.00000
H 	H 	0.67460 0.43880 0.47000 0.08900
H 	H 	0.90960 0.22850 0.08900 0.09500
H 	H 	0.87420 0.15590 0.06580 -0.03300
H 	H 	0.93250 0.08570 0.13560 -0.01900
H 	H 	0.97130 0.15480 0.16160 0.09100
H 	H 	0.00700 0.20660 0.22280 0.09000
H 	H 	0.05720 0.20220 0.27160 -0.01100
H 	H 	0.10520 0.33660 0.27360 -0.02300
H 	H 	0.05260 0.34550 0.22720 0.08900
H 	H 	0.96300 0.41180 0.16950 0.08200
H 	H 	0.93270 0.48290 0.14560 -0.00900
H 	H 	0.88240 0.41690 0.07070 -0.00200
H 	H 	0.92080 0.34440 0.09120 0.08100
H 	H 	0.12960 0.05310 0.00760 0.09400
H 	H 	0.04630 0.03430 0.05050 -0.00900
H 	H 	0.80410 0.08190 0.01690 -0.01100
H 	H 	0.88160 0.10420 0.97440 0.08500
H 	H 	0.88380 0.14430 0.90460 0.09800
H 	H 	0.80340 0.17830 0.86740 -0.02200
H 	H 	0.04440 0.22090 0.83200 -0.02500
H 	H 	0.13010 0.18110 0.86720 0.09600
H 	H 	0.32360 0.10690 0.88650 0.10300
H 	H 	0.48140 0.08420 0.88150 -0.00600
H 	H 	0.48520 0.03240 0.96260 -0.00000
H 	H 	0.32540 0.06120 0.97000 0.08900
H 	H 	0.59040 0.72850 0.91100 0.09500
H 	H 	0.62580 0.65590 0.93420 -0.03300
H 	H 	0.56750 0.58570 0.86440 -0.01800
H 	H 	0.52870 0.65480 0.83840 0.09100
H 	H 	0.49300 0.70660 0.77720 0.09000
H 	H 	0.44280 0.70220 0.72840 -0.01100
H 	H 	0.39480 0.83660 0.72640 -0.02300
H 	H 	0.44740 0.84550 0.77280 0.08900
H 	H 	0.53700 0.91180 0.83050 0.08300
H 	H 	0.56730 0.98290 0.85440 -0.00900
H 	H 	0.61760 0.91690 0.92930 -0.00200
H 	H 	0.57920 0.84440 0.90880 0.08100
H 	H 	0.37040 0.55310 0.99240 0.09300
H 	H 	0.45370 0.53430 0.94950 -0.00900
H 	H 	0.69590 0.58190 0.98310 -0.01100
H 	H 	0.61840 0.60420 0.02560 0.08400
H 	H 	0.61620 0.64430 0.09540 0.09800
H 	H 	0.69660 0.67830 0.13260 -0.02200
H 	H 	0.45560 0.72090 0.16800 -0.02500
H 	H 	0.36990 0.68110 0.13280 0.09600
H 	H 	0.17640 0.60690 0.11350 0.10300
H 	H 	0.01860 0.58420 0.11850 -0.00600
H 	H 	0.01480 0.53240 0.03740 -0.00000
H 	H 	0.17460 0.56120 0.03000 0.08900
H 	H 	0.40960 0.77150 0.41100 0.09500
H 	H 	0.37420 0.84410 0.43420 -0.03300
H 	H 	0.43250 0.91430 0.36440 -0.01800
H 	H 	0.47130 0.84520 0.33840 0.09100
H 	H 	0.50700 0.79340 0.27720 0.09000
H 	H 	0.55720 0.79780 0.22840 -0.01100
H 	H 	0.60520 0.66340 0.22640 -0.02300
H 	H 	0.55260 0.65450 0.27280 0.08900
H 	H 	0.46300 0.58820 0.33050 0.08200
H 	H 	0.43270 0.51710 0.35440 -0.00900
H 	H 	0.38240 0.58310 0.42930 -0.00200
H 	H 	0.42080 0.65560 0.40880 0.08100
H 	H 	0.62960 0.94690 0.49240 0.09400
H 	H 	0.54630 0.96570 0.44950 -0.00900
H 	H 	0.30410 0.91810 0.48310 -0.01100
H 	H 	0.38160 0.89580 0.52560 0.08400
H 	H 	0.38380 0.85570 0.59540 0.09800
H 	H 	0.30340 0.82170 0.63260 -0.02200
H 	H 	0.54440 0.77910 0.66800 -0.02500
H 	H 	0.63010 0.81890 0.63280 0.09600
H 	H 	0.82360 0.89310 0.61350 0.10300
H 	H 	0.98140 0.91580 0.61850 -0.00600
H 	H 	0.98520 0.96760 0.53740 -0.00000
H 	H 	0.82540 0.93880 0.53000 0.08900
C 	C 	0.04480 0.25480 0.64500 0.09800
C 	C 	0.00790 0.21830 0.68810 0.10000
C 	C 	0.04330 0.17610 0.64800 0.10100
C 	C 	0.06110 0.30050 0.62800 0.08000
C 	C 	0.08630 0.29990 0.59950 -0.16000
C 	C 	0.10670 0.34450 0.58550 0.11400
C 	C 	0.07260 0.38510 0.62610 0.07700
C 	C 	0.05020 0.34360 0.64220 -0.14200
C 	C 	0.97920 0.22320 0.71830 0.06300
C 	C 	0.97450 0.26580 0.73260 -0.13600
C 	C 	0.94180 0.26850 0.76200 0.09000
C 	C 	0.91480 0.19010 0.76320 0.09000
C 	C 	0.94670 0.18480 0.73550 -0.14000
C 	C 	0.05760 0.12970 0.63340 0.05100
C 	C 	0.05240 0.08790 0.64940 -0.11800
C 	C 	0.07110 0.04490 0.63460 0.06900
C 	C 	0.09920 0.08410 0.59050 0.05700
C 	C 	0.07890 0.12820 0.60270 -0.10900
C 	C 	0.93210 0.40250 0.45950 0.09500
C 	C 	0.92910 0.36550 0.41460 0.09300
C 	C 	0.79410 0.39940 0.43240 0.09000
C 	C 	0.98470 0.41810 0.48620 0.05800
C 	C 	0.93590 0.43990 0.50920 -0.12600
C 	C 	0.98640 0.45110 0.53500 0.06200
C 	C 	0.12940 0.42270 0.51540 0.08300
C 	C 	0.08340 0.40990 0.48970 -0.12900
C 	C 	0.98240 0.34210 0.39060 0.08900
C 	C 	0.08140 0.34130 0.38940 -0.15200
C 	C 	0.12940 0.32080 0.36740 0.10200
C 	C 	0.98820 0.29650 0.34640 0.09800
C 	C 	0.93710 0.31910 0.36790 -0.15500
C 	C 	0.69190 0.41310 0.42900 0.05900
C 	C 	0.64460 0.40730 0.40230 -0.13800
C 	C 	0.55080 0.42240 0.39910 0.07900
C 	C 	0.54750 0.45240 0.44730 0.05500
C 	C 	0.64440 0.43510 0.45170 -0.12100
C 	C 	0.95520 0.24520 0.14500 0.09800
C 	C 	0.99210 0.28170 0.18810 0.09900
C 	C 	0.95670 0.32390 0.14800 0.10100
C 	C 	0.93890 0.19950 0.12800 0.08000
C 	C 	0.91370 0.20010 0.09950 -0.16000
C 	C 	0.89330 0.15550 0.08550 0.11400
C 	C 	0.92740 0.11490 0.12610 0.07700
C 	C 	0.94980 0.15640 0.14220 -0.14200
C 	C 	0.02080 0.27680 0.21830 0.06400
C 	C 	0.02550 0.23420 0.23260 -0.13600
C 	C 	0.05820 0.23150 0.26200 0.09000
C 	C 	0.08520 0.30990 0.26320 0.09100
C 	C 	0.05330 0.31520 0.23550 -0.14100
C 	C 	0.94240 0.37030 0.13340 0.05100
C 	C 	0.94760 0.41210 0.14940 -0.11800
C 	C 	0.92890 0.45510 0.13460 0.06900
C 	C 	0.90080 0.41590 0.09050 0.05700
C 	C 	0.92110 0.37180 0.10270 -0.10900
C 	C 	0.06790 0.09750 0.95950 0.09500
C 	C 	0.07090 0.13450 0.91460 0.09200
C 	C 	0.20590 0.10060 0.93240 0.09000
C 	C 	0.01530 0.08190 0.98620 0.05900
C 	C 	0.06410 0.06010 0.00920 -0.12700
C 	C 	0.01360 0.04890 0.03500 0.06300
C 	C 	0.87060 0.07730 0.01540 0.08400
C 	C 	0.91660 0.09010 0.98970 -0.13100
C 	C 	0.01760 0.15790 0.89060 0.09100
C 	C 	0.91860 0.15870 0.88940 -0.15400
C 	C 	0.87060 0.17920 0.86740 0.10300
C 	C 	0.01180 0.20350 0.84640 0.10000
C 	C 	0.06290 0.18090 0.86790 -0.15700
C 	C 	0.30810 0.08690 0.92900 0.05900
C 	C 	0.35540 0.09270 0.90230 -0.13800
C 	C 	0.44920 0.07760 0.89910 0.07900
C 	C 	0.45250 0.04760 0.94730 0.05500
C 	C 	0.35560 0.06490 0.95170 -0.12100
C 	C 	0.54480 0.74520 0.85500 0.09800
C 	C 	0.50790 0.78170 0.81190 0.10100
C 	C 	0.54330 0.82390 0.85200 0.10100
C 	C 	0.56110 0.69950 0.87200 0.08100
C 	C 	0.58630 0.70010 0.90050 -0.16000
C 	C 	0.60670 0.65550 0.91450 0.11500
C 	C 	0.57260 0.61490 0.87390 0.07700
C 	C 	0.55020 0.65640 0.85780 -0.14200
C 	C 	0.47920 0.77680 0.78170 0.06300
C 	C 	0.47450 0.73420 0.76740 -0.13500
C 	C 	0.44180 0.73150 0.73800 0.09000
C 	C 	0.41480 0.80990 0.73680 0.09000
C 	C 	0.44670 0.81520 0.76450 -0.14000
C 	C 	0.55760 0.87030 0.86660 0.05100
C 	C 	0.55240 0.91210 0.85060 -0.11800
C 	C 	0.57110 0.95510 0.86540 0.06900
C 	C 	0.59920 0.91590 0.90950 0.05700
C 	C 	0.57890 0.87180 0.89730 -0.10900
C 	C 	0.43210 0.59750 0.04050 0.09500
C 	C 	0.42910 0.63450 0.08540 0.09300
C 	C 	0.29410 0.60060 0.06760 0.09000
C 	C 	0.48470 0.58190 0.01380 0.05800
C 	C 	0.43590 0.56010 0.99080 -0.12600
C 	C 	0.48640 0.54890 0.96500 0.06200
C 	C 	0.62940 0.57730 0.98460 0.08300
C 	C 	0.58340 0.59010 0.01030 -0.12900
C 	C 	0.48240 0.65790 0.10940 0.09100
C 	C 	0.58140 0.65870 0.11060 -0.15400
C 	C 	0.62940 0.67920 0.13260 0.10300
C 	C 	0.48820 0.70350 0.15360 0.10000
C 	C 	0.43710 0.68090 0.13210 -0.15700
C 	C 	0.19190 0.58690 0.07100 0.05900
C 	C 	0.14460 0.59270 0.09770 -0.13800
C 	C 	0.05080 0.57760 0.10090 0.07900
C 	C 	0.04750 0.54760 0.05270 0.05500
C 	C 	0.14440 0.56490 0.04830 -0.12100
C 	C 	0.45520 0.75480 0.35500 0.09800
C 	C 	0.49210 0.71830 0.31190 0.10100
C 	C 	0.45670 0.67610 0.35200 0.10100
C 	C 	0.43890 0.80050 0.37200 0.08100
C 	C 	0.41370 0.79990 0.40050 -0.16000
C 	C 	0.39330 0.84450 0.41450 0.11500
C 	C 	0.42740 0.88510 0.37390 0.07700
C 	C 	0.44980 0.84360 0.35780 -0.14200
C 	C 	0.52080 0.72320 0.28170 0.06300
C 	C 	0.52550 0.76580 0.26740 -0.13500
C 	C 	0.55820 0.76850 0.23800 0.09000
C 	C 	0.58520 0.69010 0.23680 0.09000
C 	C 	0.55330 0.68480 0.26450 -0.14000
C 	C 	0.44240 0.62970 0.36660 0.05100
C 	C 	0.44760 0.58790 0.35060 -0.11800
C 	C 	0.42890 0.54490 0.36540 0.06900
C 	C 	0.40080 0.58410 0.40950 0.05700
C 	C 	0.42110 0.62820 0.39730 -0.10900
C 	C 	0.56790 0.90250 0.54050 0.09500
C 	C 	0.57090 0.86550 0.58540 0.09300
C 	C 	0.70590 0.89940 0.56760 0.09000
C 	C 	0.51530 0.91810 0.51380 0.05800
C 	C 	0.56410 0.93990 0.49080 -0.12600
C 	C 	0.51360 0.95110 0.46500 0.06200
C 	C 	0.37060 0.92270 0.48460 0.08300
C 	C 	0.41660 0.90990 0.51030 -0.12900
C 	C 	0.51760 0.84210 0.60940 0.09100
C 	C 	0.41860 0.84130 0.61060 -0.15400
C 	C 	0.37060 0.82080 0.63260 0.10300
C 	C 	0.51180 0.79650 0.65360 0.10000
C 	C 	0.56290 0.81910 0.63210 -0.15700
C 	C 	0.80810 0.91310 0.57100 0.05900
C 	C 	0.85540 0.90730 0.59770 -0.13800
C 	C 	0.94920 0.92240 0.60090 0.07900
C 	C 	0.95250 0.95240 0.55270 0.05500
C 	C 	0.85560 0.93510 0.54830 -0.12100
I 	I 	0.32587 0.43882 0.57367 -0.38600
I 	I 	0.05362 0.51224 0.60657 -0.36100
I 	I 	0.67306 0.19507 0.80910 -0.37000
I 	I 	0.83229 0.32566 0.83048 -0.37500
I 	I 	0.20327 0.99405 0.53596 -0.38900
I 	I 	0.21186 0.93042 0.62642 -0.36800
I 	I 	0.67413 0.06118 0.07367 -0.38600
I 	I 	0.94638 0.98776 0.10657 -0.36100
I 	I 	0.32694 0.30493 0.30910 -0.37000
I 	I 	0.16771 0.17434 0.33048 -0.37500
I 	I 	0.79673 0.50595 0.03596 -0.38800
I 	I 	0.78814 0.56958 0.12642 -0.36700
I 	I 	0.82587 0.56118 0.92633 -0.38600
I 	I 	0.55362 0.48776 0.89343 -0.36100
I 	I 	0.17306 0.80493 0.69090 -0.37000
I 	I 	0.33229 0.67434 0.66952 -0.37500
I 	I 	0.70327 0.00595 0.96404 -0.38800
I 	I 	0.71186 0.06958 0.87358 -0.36700
I 	I 	0.17413 0.93882 0.42633 -0.38600
I 	I 	0.44638 0.01224 0.39343 -0.36100
I 	I 	0.82694 0.69507 0.19090 -0.37000
I 	I 	0.66771 0.82566 0.16952 -0.37500
I 	I 	0.29673 0.49405 0.46404 -0.38800
I 	I 	0.28814 0.43042 0.37358 -0.36700
N 	N 	0.02130 0.26000 0.67358 -0.13800
N 	N 	0.01790 0.17690 0.67640 -0.14100
N 	N 	0.05910 0.21520 0.63082 -0.13900
N 	N 	0.10060 0.38430 0.59810 -0.28700
N 	N 	0.91060 0.23210 0.77614 -0.28200
N 	N 	0.09400 0.04130 0.60580 -0.27000
N 	N 	0.98020 0.37920 0.43880 -0.13400
N 	N 	0.83400 0.37310 0.41120 -0.13000
N 	N 	0.83720 0.41360 0.45780 -0.14100
N 	N 	0.08310 0.44110 0.53810 -0.27700
N 	N 	0.08420 0.29900 0.34560 -0.28500
N 	N 	0.50400 0.44630 0.42040 -0.27100
N 	N 	0.97870 0.24000 0.17358 -0.13800
N 	N 	0.98210 0.32310 0.17640 -0.14100
N 	N 	0.94090 0.28480 0.13082 -0.13900
N 	N 	0.89940 0.11570 0.09810 -0.28700
N 	N 	0.08940 0.26790 0.27614 -0.28200
N 	N 	0.90600 0.45870 0.10580 -0.27000
N 	N 	0.01980 0.12080 0.93880 -0.13300
N 	N 	0.16600 0.12690 0.91120 -0.13000
N 	N 	0.16280 0.08640 0.95780 -0.14100
N 	N 	0.91690 0.05890 0.03810 -0.27800
N 	N 	0.91580 0.20100 0.84560 -0.28500
N 	N 	0.49600 0.05370 0.92040 -0.27100
N 	N 	0.52130 0.74000 0.82642 -0.13800
N 	N 	0.51790 0.82310 0.82360 -0.14100
N 	N 	0.55910 0.78480 0.86918 -0.13900
N 	N 	0.60060 0.61570 0.90190 -0.28700
N 	N 	0.41060 0.76790 0.72386 -0.28200
N 	N 	0.59400 0.95870 0.89420 -0.27000
N 	N 	0.48020 0.62080 0.06120 -0.13400
N 	N 	0.33400 0.62690 0.08880 -0.13000
N 	N 	0.33720 0.58640 0.04220 -0.14100
N 	N 	0.58310 0.55890 0.96190 -0.27700
N 	N 	0.58420 0.70100 0.15440 -0.28500
N 	N 	0.00400 0.55370 0.07960 -0.27100
N 	N 	0.47870 0.76000 0.32642 -0.13800
N 	N 	0.48210 0.67690 0.32360 -0.14100
N 	N 	0.44090 0.71520 0.36918 -0.13900
N 	N 	0.39940 0.88430 0.40190 -0.28700
N 	N 	0.58940 0.73210 0.22386 -0.28200
N 	N 	0.40600 0.54130 0.39420 -0.27000
N 	N 	0.51980 0.87920 0.56120 -0.13400
N 	N 	0.66600 0.87310 0.58880 -0.13000
N 	N 	0.66280 0.91360 0.54220 -0.14100
N 	N 	0.41690 0.94110 0.46190 -0.27700
N 	N 	0.41580 0.79900 0.65440 -0.28500
N 	N 	0.99600 0.94630 0.57960 -0.27100
Zn	Zn	0.85534 0.55258 0.42112 1.16500
Zn	Zn	0.16584 0.76140 0.18444 1.16300
Zn	Zn	0.87258 0.02205 0.41337 1.16500
Zn	Zn	0.14466 0.94742 0.92112 1.16500
Zn	Zn	0.83416 0.73860 0.68444 1.16300
Zn	Zn	0.12742 0.47795 0.91337 1.16500
Zn	Zn	0.35534 0.44742 0.07888 1.16500
Zn	Zn	0.66584 0.23860 0.31556 1.16300
Zn	Zn	0.37258 0.97795 0.08663 1.16500
Zn	Zn	0.64466 0.05258 0.57888 1.16500
Zn	Zn	0.33416 0.26140 0.81556 1.16300
Zn	Zn	0.62742 0.52205 0.58663 1.16500
H 	H 	0.90960 0.72850 0.41100 0.09500
H 	H 	0.87420 0.65590 0.43420 -0.03300
H 	H 	0.93250 0.58570 0.36440 -0.01800
H 	H 	0.97130 0.65480 0.33840 0.09100
H 	H 	0.00700 0.70660 0.27720 0.09000
H 	H 	0.05720 0.70220 0.22840 -0.01100
H 	H 	0.10520 0.83660 0.22640 -0.02300
H 	H 	0.05260 0.84550 0.27280 0.08900
H 	H 	0.96300 0.91180 0.33050 0.08200
H 	H 	0.93270 0.98290 0.35440 -0.00900
H 	H 	0.88240 0.91690 0.42930 -0.00200
H 	H 	0.92080 0.84440 0.40880 0.08100
H 	H 	0.12960 0.55310 0.49240 0.09300
H 	H 	0.04630 0.53430 0.44950 -0.00900
H 	H 	0.80410 0.58190 0.48310 -0.01100
H 	H 	0.88160 0.60420 0.52560 0.08400
H 	H 	0.88380 0.64430 0.59540 0.09800
H 	H 	0.80340 0.67830 0.63260 -0.02100
H 	H 	0.04440 0.72090 0.66800 -0.02400
H 	H 	0.13010 0.68110 0.63280 0.09500
H 	H 	0.32360 0.60690 0.61350 0.10300
H 	H 	0.48140 0.58420 0.61850 -0.00600
H 	H 	0.48520 0.53240 0.53740 -0.00000
H 	H 	0.32540 0.56120 0.53000 0.08900
H 	H 	0.09040 0.77150 0.91100 0.09500
H 	H 	0.12580 0.84410 0.93420 -0.03300
H 	H 	0.06750 0.91430 0.86440 -0.01900
H 	H 	0.02870 0.84520 0.83840 0.09100
H 	H 	0.99300 0.79340 0.77720 0.09000
H 	H 	0.94280 0.79780 0.72840 -0.01100
H 	H 	0.89480 0.66340 0.72640 -0.02300
H 	H 	0.94740 0.65450 0.77280 0.08900
H 	H 	0.03700 0.58820 0.83050 0.08200
H 	H 	0.06730 0.51710 0.85440 -0.00900
H 	H 	0.11760 0.58310 0.92930 -0.00200
H 	H 	0.07920 0.65560 0.90880 0.08100
H 	H 	0.87040 0.94690 0.99240 0.09400
H 	H 	0.95370 0.96570 0.94950 -0.00900
H 	H 	0.19590 0.91810 0.98310 -0.01100
H 	H 	0.11840 0.89580 0.02560 0.08500
H 	H 	0.11620 0.85570 0.09540 0.09800
H 	H 	0.19660 0.82170 0.13260 -0.02200
H 	H 	0.95560 0.77910 0.16800 -0.02500
H 	H 	0.86990 0.81890 0.13280 0.09600
H 	H 	0.67640 0.89310 0.11350 0.10300
H 	H 	0.51860 0.91580 0.11850 -0.00600
H 	H 	0.51480 0.96760 0.03740 -0.00000
H 	H 	0.67460 0.93880 0.03000 0.08900
H 	H 	0.40960 0.27150 0.08900 0.09500
H 	H 	0.37420 0.34410 0.06580 -0.03300
H 	H 	0.43250 0.41430 0.13560 -0.01800
H 	H 	0.47130 0.34520 0.16160 0.09100
H 	H 	0.50700 0.29340 0.22280 0.09000
H 	H 	0.55720 0.29780 0.27160 -0.01100
H 	H 	0.60520 0.16340 0.27360 -0.02300
H 	H 	0.55260 0.15450 0.22720 0.08900
H 	H 	0.46300 0.08820 0.16950 0.08300
H 	H 	0.43270 0.01710 0.14560 -0.00900
H 	H 	0.38240 0.08310 0.07070 -0.00200
H 	H 	0.42080 0.15560 0.09120 0.08100
H 	H 	0.62960 0.44690 0.00760 0.09300
H 	H 	0.54630 0.46570 0.05050 -0.00900
H 	H 	0.30410 0.41810 0.01690 -0.01100
H 	H 	0.38160 0.39580 0.97440 0.08400
H 	H 	0.38380 0.35570 0.90460 0.09800
H 	H 	0.30340 0.32170 0.86740 -0.02200
H 	H 	0.54440 0.27910 0.83200 -0.02500
H 	H 	0.63010 0.31890 0.86720 0.09600
H 	H 	0.82360 0.39310 0.88650 0.10300
H 	H 	0.98140 0.41580 0.88150 -0.00600
H 	H 	0.98520 0.46760 0.96260 -0.00000
H 	H 	0.82540 0.43880 0.97000 0.08900
H 	H 	0.59040 0.22850 0.58900 0.09500
H 	H 	0.62580 0.15590 0.56580 -0.03300
H 	H 	0.56750 0.08570 0.63560 -0.01800
H 	H 	0.52870 0.15480 0.66160 0.09100
H 	H 	0.49300 0.20660 0.72280 0.09000
H 	H 	0.44280 0.20220 0.77160 -0.01100
H 	H 	0.39480 0.33660 0.77360 -0.02300
H 	H 	0.44740 0.34550 0.72720 0.08900
H 	H 	0.53700 0.41180 0.66950 0.08200
H 	H 	0.56730 0.48290 0.64560 -0.00900
H 	H 	0.61760 0.41690 0.57070 -0.00200
H 	H 	0.57920 0.34440 0.59120 0.08100
H 	H 	0.37040 0.05310 0.50760 0.09400
H 	H 	0.45370 0.03430 0.55050 -0.00900
H 	H 	0.69590 0.08190 0.51690 -0.01100
H 	H 	0.61840 0.10420 0.47440 0.08400
H 	H 	0.61620 0.14430 0.40460 0.09800
H 	H 	0.69660 0.17830 0.36740 -0.02200
H 	H 	0.45560 0.22090 0.33200 -0.02500
H 	H 	0.36990 0.18110 0.36720 0.09600
H 	H 	0.17640 0.10690 0.38650 0.10300
H 	H 	0.01860 0.08420 0.38150 -0.00600
H 	H 	0.01480 0.03240 0.46260 -0.00000
H 	H 	0.17460 0.06120 0.47000 0.08900
C 	C 	0.95520 0.74520 0.35500 0.09800
C 	C 	0.99210 0.78170 0.31190 0.10000
C 	C 	0.95670 0.82390 0.35200 0.10100
C 	C 	0.93890 0.69950 0.37200 0.08000
C 	C 	0.91370 0.70010 0.40050 -0.16000
C 	C 	0.89330 0.65550 0.41450 0.11400
C 	C 	0.92740 0.61490 0.37390 0.07700
C 	C 	0.94980 0.65640 0.35780 -0.14200
C 	C 	0.02080 0.77680 0.28170 0.06300
C 	C 	0.02550 0.73420 0.26740 -0.13600
C 	C 	0.05820 0.73150 0.23800 0.09000
C 	C 	0.08520 0.80990 0.23680 0.09000
C 	C 	0.05330 0.81520 0.26450 -0.14000
C 	C 	0.94240 0.87030 0.36660 0.05100
C 	C 	0.94760 0.91210 0.35060 -0.11800
C 	C 	0.92890 0.95510 0.36540 0.06900
C 	C 	0.90080 0.91590 0.40950 0.05700
C 	C 	0.92110 0.87180 0.39730 -0.10900
C 	C 	0.06790 0.59750 0.54050 0.09500
C 	C 	0.07090 0.63450 0.58540 0.09300
C 	C 	0.20590 0.60060 0.56760 0.09000
C 	C 	0.01530 0.58190 0.51380 0.05800
C 	C 	0.06410 0.56010 0.49080 -0.12600
C 	C 	0.01360 0.54890 0.46500 0.06200
C 	C 	0.87060 0.57730 0.48460 0.08300
C 	C 	0.91660 0.59010 0.51030 -0.12900
C 	C 	0.01760 0.65790 0.60940 0.08900
C 	C 	0.91860 0.65870 0.61060 -0.15200
C 	C 	0.87060 0.67920 0.63260 0.10200
C 	C 	0.01180 0.70350 0.65360 0.09800
C 	C 	0.06290 0.68090 0.63210 -0.15500
C 	C 	0.30810 0.58690 0.57100 0.05900
C 	C 	0.35540 0.59270 0.59770 -0.13800
C 	C 	0.44920 0.57760 0.60090 0.07900
C 	C 	0.45250 0.54760 0.55270 0.05500
C 	C 	0.35560 0.56490 0.54830 -0.12100
C 	C 	0.04480 0.75480 0.85500 0.09800
C 	C 	0.00790 0.71830 0.81190 0.09900
C 	C 	0.04330 0.67610 0.85200 0.10100
C 	C 	0.06110 0.80050 0.87200 0.08000
C 	C 	0.08630 0.79990 0.90050 -0.16000
C 	C 	0.10670 0.84450 0.91450 0.11400
C 	C 	0.07260 0.88510 0.87390 0.07700
C 	C 	0.05020 0.84360 0.85780 -0.14200
C 	C 	0.97920 0.72320 0.78170 0.06400
C 	C 	0.97450 0.76580 0.76740 -0.13600
C 	C 	0.94180 0.76850 0.73800 0.09000
C 	C 	0.91480 0.69010 0.73680 0.09100
C 	C 	0.94670 0.68480 0.76450 -0.14100
C 	C 	0.05760 0.62970 0.86660 0.05100
C 	C 	0.05240 0.58790 0.85060 -0.11800
C 	C 	0.07110 0.54490 0.86540 0.06900
C 	C 	0.09920 0.58410 0.90950 0.05700
C 	C 	0.07890 0.62820 0.89730 -0.10900
C 	C 	0.93210 0.90250 0.04050 0.09500
C 	C 	0.92910 0.86550 0.08540 0.09200
C 	C 	0.79410 0.89940 0.06760 0.09000
C 	C 	0.98470 0.91810 0.01380 0.05900
C 	C 	0.93590 0.93990 0.99080 -0.12700
C 	C 	0.98640 0.95110 0.96500 0.06300
C 	C 	0.12940 0.92270 0.98460 0.08400
C 	C 	0.08340 0.90990 0.01030 -0.13100
C 	C 	0.98240 0.84210 0.10940 0.09100
C 	C 	0.08140 0.84130 0.11060 -0.15400
C 	C 	0.12940 0.82080 0.13260 0.10300
C 	C 	0.98820 0.79650 0.15360 0.10000
C 	C 	0.93710 0.81910 0.13210 -0.15700
C 	C 	0.69190 0.91310 0.07100 0.05900
C 	C 	0.64460 0.90730 0.09770 -0.13800
C 	C 	0.55080 0.92240 0.10090 0.07900
C 	C 	0.54750 0.95240 0.05270 0.05500
C 	C 	0.64440 0.93510 0.04830 -0.12100
C 	C 	0.45520 0.25480 0.14500 0.09800
C 	C 	0.49210 0.21830 0.18810 0.10100
C 	C 	0.45670 0.17610 0.14800 0.10100
C 	C 	0.43890 0.30050 0.12800 0.08100
C 	C 	0.41370 0.29990 0.09950 -0.16000
C 	C 	0.39330 0.34450 0.08550 0.11500
C 	C 	0.42740 0.38510 0.12610 0.07700
C 	C 	0.44980 0.34360 0.14220 -0.14200
C 	C 	0.52080 0.22320 0.21830 0.06300
C 	C 	0.52550 0.26580 0.23260 -0.13500
C 	C 	0.55820 0.26850 0.26200 0.09000
C 	C 	0.58520 0.19010 0.26320 0.09000
C 	C 	0.55330 0.18480 0.23550 -0.14000
C 	C 	0.44240 0.12970 0.13340 0.05100
C 	C 	0.44760 0.08790 0.14940 -0.11800
C 	C 	0.42890 0.04490 0.13460 0.06900
C 	C 	0.40080 0.08410 0.09050 0.05700
C 	C 	0.42110 0.12820 0.10270 -0.10900
C 	C 	0.56790 0.40250 0.95950 0.09500
C 	C 	0.57090 0.36550 0.91460 0.09300
C 	C 	0.70590 0.39940 0.93240 0.09000
C 	C 	0.51530 0.41810 0.98620 0.05800
C 	C 	0.56410 0.43990 0.00920 -0.12600
C 	C 	0.51360 0.45110 0.03500 0.06200
C 	C 	0.37060 0.42270 0.01540 0.08300
C 	C 	0.41660 0.40990 0.98970 -0.12900
C 	C 	0.51760 0.34210 0.89060 0.09100
C 	C 	0.41860 0.34130 0.88940 -0.15400
C 	C 	0.37060 0.32080 0.86740 0.10300
C 	C 	0.51180 0.29650 0.84640 0.10000
C 	C 	0.56290 0.31910 0.86790 -0.15700
C 	C 	0.80810 0.41310 0.92900 0.05900
C 	C 	0.85540 0.40730 0.90230 -0.13800
C 	C 	0.94920 0.42240 0.89910 0.07900
C 	C 	0.95250 0.45240 0.94730 0.05500
C 	C 	0.85560 0.43510 0.95170 -0.12100
C 	C 	0.54480 0.24520 0.64500 0.09800
C 	C 	0.50790 0.28170 0.68810 0.10100
C 	C 	0.54330 0.32390 0.64800 0.10100
C 	C 	0.56110 0.19950 0.62800 0.08100
C 	C 	0.58630 0.20010 0.59950 -0.16000
C 	C 	0.60670 0.15550 0.58550 0.11500
C 	C 	0.57260 0.11490 0.62610 0.07700
C 	C 	0.55020 0.15640 0.64220 -0.14200
C 	C 	0.47920 0.27680 0.71830 0.06300
C 	C 	0.47450 0.23420 0.73260 -0.13500
C 	C 	0.44180 0.23150 0.76200 0.09000
C 	C 	0.41480 0.30990 0.76320 0.09000
C 	C 	0.44670 0.31520 0.73550 -0.14000
C 	C 	0.55760 0.37030 0.63340 0.05100
C 	C 	0.55240 0.41210 0.64940 -0.11800
C 	C 	0.57110 0.45510 0.63460 0.06900
C 	C 	0.59920 0.41590 0.59050 0.05700
C 	C 	0.57890 0.37180 0.60270 -0.10900
C 	C 	0.43210 0.09750 0.45950 0.09500
C 	C 	0.42910 0.13450 0.41460 0.09300
C 	C 	0.29410 0.10060 0.43240 0.09000
C 	C 	0.48470 0.08190 0.48620 0.05800
C 	C 	0.43590 0.06010 0.50920 -0.12600
C 	C 	0.48640 0.04890 0.53500 0.06200
C 	C 	0.62940 0.07730 0.51540 0.08300
C 	C 	0.58340 0.09010 0.48970 -0.12900
C 	C 	0.48240 0.15790 0.39060 0.09100
C 	C 	0.58140 0.15870 0.38940 -0.15400
C 	C 	0.62940 0.17920 0.36740 0.10300
C 	C 	0.48820 0.20350 0.34640 0.10000
C 	C 	0.43710 0.18090 0.36790 -0.15700
C 	C 	0.19190 0.08690 0.42900 0.05900
C 	C 	0.14460 0.09270 0.40230 -0.13800
C 	C 	0.05080 0.07760 0.39910 0.07900
C 	C 	0.04750 0.04760 0.44730 0.05500
C 	C 	0.14440 0.06490 0.45170 -0.12100
I 	I 	0.67413 0.56118 0.42633 -0.38600
I 	I 	0.94638 0.48776 0.39343 -0.36100
I 	I 	0.32694 0.80493 0.19090 -0.37000
I 	I 	0.16771 0.67434 0.16952 -0.37500
I 	I 	0.79673 0.00595 0.46404 -0.38900
I 	I 	0.78814 0.06958 0.37358 -0.36800
I 	I 	0.32587 0.93882 0.92633 -0.38600
I 	I 	0.05362 0.01224 0.89343 -0.36100
I 	I 	0.67306 0.69507 0.69090 -0.37000
I 	I 	0.83229 0.82566 0.66952 -0.37500
I 	I 	0.20327 0.49405 0.96404 -0.38800
I 	I 	0.21186 0.43042 0.87358 -0.36700
I 	I 	0.17413 0.43882 0.07367 -0.38600
I 	I 	0.44638 0.51224 0.10657 -0.36100
I 	I 	0.82694 0.19507 0.30910 -0.37000
I 	I 	0.66771 0.32566 0.33048 -0.37500
I 	I 	0.29673 0.99405 0.03596 -0.38800
I 	I 	0.28814 0.93042 0.12642 -0.36700
I 	I 	0.82587 0.06118 0.57367 -0.38600
I 	I 	0.55362 0.98776 0.60657 -0.36100
I 	I 	0.17306 0.30493 0.80910 -0.37000
I 	I 	0.33229 0.17434 0.83048 -0.37500
I 	I 	0.70327 0.50595 0.53596 -0.38800
I 	I 	0.71186 0.56958 0.62642 -0.36700
N 	N 	0.97870 0.74000 0.32642 -0.13800
N 	N 	0.98210 0.82310 0.32360 -0.14100
N 	N 	0.94090 0.78480 0.36918 -0.13900
N 	N 	0.89940 0.61570 0.40190 -0.28700
N 	N 	0.08940 0.76790 0.22386 -0.28200
N 	N 	0.90600 0.95870 0.39420 -0.27000
N 	N 	0.01980 0.62080 0.56120 -0.13400
N 	N 	0.16600 0.62690 0.58880 -0.13000
N 	N 	0.16280 0.58640 0.54220 -0.14100
N 	N 	0.91690 0.55890 0.46190 -0.27700
N 	N 	0.91580 0.70100 0.65440 -0.28500
N 	N 	0.49600 0.55370 0.57960 -0.27100
N 	N 	0.02130 0.76000 0.82642 -0.13800
N 	N 	0.01790 0.67690 0.82360 -0.14100
N 	N 	0.05910 0.71520 0.86918 -0.13900
N 	N 	0.10060 0.88430 0.90190 -0.28700
N 	N 	0.91060 0.73210 0.72386 -0.28200
N 	N 	0.09400 0.54130 0.89420 -0.27000
N 	N 	0.98020 0.87920 0.06120 -0.13300
N 	N 	0.83400 0.87310 0.08880 -0.13000
N 	N 	0.83720 0.91360 0.04220 -0.14100
N 	N 	0.08310 0.94110 0.96190 -0.27800
N 	N 	0.08420 0.79900 0.15440 -0.28500
N 	N 	0.50400 0.94630 0.07960 -0.27100
N 	N 	0.47870 0.26000 0.17358 -0.13800
N 	N 	0.48210 0.17690 0.17640 -0.14100
N 	N 	0.44090 0.21520 0.13082 -0.13900
N 	N 	0.39940 0.38430 0.09810 -0.28700
N 	N 	0.58940 0.23210 0.27614 -0.28200
N 	N 	0.40600 0.04130 0.10580 -0.27000
N 	N 	0.51980 0.37920 0.93880 -0.13400
N 	N 	0.66600 0.37310 0.91120 -0.13000
N 	N 	0.66280 0.41360 0.95780 -0.14100
N 	N 	0.41690 0.44110 0.03810 -0.27700
N 	N 	0.41580 0.29900 0.84560 -0.28500
N 	N 	0.99600 0.44630 0.92040 -0.27100
N 	N 	0.52130 0.24000 0.67358 -0.13800
N 	N 	0.51790 0.32310 0.67640 -0.14100
N 	N 	0.55910 0.28480 0.63082 -0.13900
N 	N 	0.60060 0.11570 0.59810 -0.28700
N 	N 	0.41060 0.26790 0.77614 -0.28200
N 	N 	0.59400 0.45870 0.60580 -0.27000
N 	N 	0.48020 0.12080 0.43880 -0.13400
N 	N 	0.33400 0.12690 0.41120 -0.13000
N 	N 	0.33720 0.08640 0.45780 -0.14100
N 	N 	0.58310 0.05890 0.53810 -0.27700
N 	N 	0.58420 0.20100 0.34560 -0.28500
N 	N 	0.00400 0.05370 0.42040 -0.27100
