data_crystal

_cell_length_a 27.74900
_cell_length_b 13.81700
_cell_length_c 44.36200
_cell_angle_alpha 90.00000
_cell_angle_beta  90.00000
_cell_angle_gamma 90.00000

_symmetry_space_group_name_	'P 1'
_symmetry_space_group_name_H-M	'P 1'

loop_
_symmetry_equiv_pos_as_xyz
  x,y,z

loop_
_atom_site_label
_atom_site_type_symbol
_atom_site_fract_x
_atom_site_fract_y
_atom_site_fract_z
_atom_site_charge
Zn	Zn	0.97543 0.62223 0.41516 1.16300
Zn	Zn	0.95265 0.85641 0.58614 1.16300
Zn	Zn	0.76049 0.81829 0.31894 1.16500
I 	I 	0.99435 0.69537 0.46677 -0.39200
I 	I 	0.92598 0.71061 0.37609 -0.37100
I 	I 	0.94594 0.67307 0.58013 -0.38200
I 	I 	0.01748 0.94041 0.61645 -0.36500
I 	I 	0.67129 0.81722 0.33253 -0.37400
I 	I 	0.80415 0.65752 0.31273 -0.37300
C 	C 	0.80210 0.99530 0.34778 0.07700
H 	H 	0.78990 0.02720 0.33040 -0.01500
C 	C 	0.82510 0.05000 0.36973 -0.12700
H 	H 	0.82890 0.11780 0.36720 0.08600
C 	C 	0.81440 0.85660 0.37445 0.07900
H 	H 	0.81120 0.78840 0.37620 -0.01600
C 	C 	0.83730 0.90580 0.39730 -0.12200
H 	H 	0.84940 0.87210 0.41430 0.08200
C 	C 	0.84230 0.00470 0.39508 0.06600
C 	C 	0.86720 0.05990 0.41899 0.10300
C 	C 	0.92790 0.86750 0.52095 0.06700
H 	H 	0.92300 0.79970 0.52300 -0.00300
C 	C 	0.91500 0.91140 0.49411 -0.11700
H 	H 	0.90170 0.87470 0.47800 0.07800
C 	C 	0.95590 0.01200 0.54031 0.06800
H 	H 	0.97150 0.04660 0.55600 -0.01400
C 	C 	0.94330 0.06050 0.51432 -0.12400
H 	H 	0.94930 0.12800 0.51240 0.09200
C 	C 	0.92200 0.01010 0.49123 0.05600
C 	C 	0.90610 0.06130 0.46373 0.09500
C 	C 	0.94540 0.44820 0.45058 0.07200
H 	H 	0.95650 0.48550 0.46720 -0.00500
C 	C 	0.93040 0.35500 0.45547 -0.12500
H 	H 	0.93160 0.32820 0.47520 0.09100
C 	C 	0.92770 0.43520 0.40016 0.08400
H 	H 	0.92640 0.46360 0.38070 -0.01000
C 	C 	0.91210 0.34240 0.40340 -0.13600
H 	H 	0.90050 0.30720 0.38650 0.10000
C 	C 	0.91340 0.30010 0.43168 0.05700
C 	C 	0.90020 0.19750 0.43631 0.08900
C 	C 	0.04150 0.57070 0.36491 0.07600
H 	H 	0.01200 0.56660 0.35410 -0.01100
C 	C 	0.08370 0.55610 0.34939 -0.11900
H 	H 	0.08330 0.54190 0.32840 0.08200
C 	C 	0.08190 0.59440 0.40941 0.06600
H 	H 	0.08130 0.60680 0.43050 -0.00600
C 	C 	0.12580 0.58120 0.39536 -0.11200
H 	H 	0.15490 0.58500 0.40660 0.07900
C 	C 	0.12690 0.56240 0.36487 0.05500
C 	C 	0.17380 0.55000 0.34938 0.10100
C 	C 	0.34620 0.61390 0.40978 0.07600
H 	H 	0.34700 0.63460 0.43020 -0.01700
C 	C 	0.30180 0.59760 0.39657 -0.12100
H 	H 	0.27280 0.60620 0.40770 0.07900
C 	C 	0.38640 0.57080 0.36666 0.05800
H 	H 	0.41600 0.55950 0.35640 -0.00900
C 	C 	0.34420 0.55470 0.35170 -0.11400
H 	H 	0.34450 0.53440 0.33130 0.07900
C 	C 	0.30060 0.56850 0.36668 0.05100
C 	C 	0.25440 0.55370 0.35055 0.10400
C 	C 	0.26680 0.43770 0.23343 0.06900
H 	H 	0.29690 0.44090 0.22320 -0.00100
C 	C 	0.26360 0.47700 0.26197 -0.11600
H 	H 	0.29120 0.50470 0.27130 0.08200
C 	C 	0.18720 0.39600 0.23381 0.06600
H 	H 	0.16040 0.36770 0.22390 -0.01000
C 	C 	0.18070 0.43510 0.26192 -0.11600
H 	H 	0.14980 0.43450 0.27110 0.08000
C 	C 	0.22020 0.47570 0.27676 0.05000
C 	C 	0.21640 0.51140 0.30782 0.10300
N 	N 	0.79659 0.89930 0.35011 -0.27800
N 	N 	0.94679 0.91660 0.54405 -0.27400
N 	N 	0.94481 0.48860 0.42286 -0.27300
N 	N 	0.88192 0.00970 0.44289 -0.13800
N 	N 	0.91670 0.15450 0.46118 -0.14300
N 	N 	0.87453 0.15450 0.41471 -0.13300
N 	N 	0.03970 0.59030 0.39420 -0.27000
N 	N 	0.38761 0.60200 0.39545 -0.27400
N 	N 	0.23010 0.39600 0.21977 -0.27600
N 	N 	0.21357 0.56650 0.36545 -0.14100
N 	N 	0.25783 0.52640 0.32164 -0.14100
N 	N 	0.17267 0.52200 0.32039 -0.13900
Zn	Zn	0.52457 0.37777 0.91516 1.16400
Zn	Zn	0.54735 0.14359 0.08614 1.16400
Zn	Zn	0.73951 0.18171 0.81894 1.16600
I 	I 	0.50565 0.30463 0.96677 -0.39100
I 	I 	0.57402 0.28939 0.87609 -0.37000
I 	I 	0.55406 0.32693 0.08013 -0.38100
I 	I 	0.48252 0.05959 0.11645 -0.36500
I 	I 	0.82871 0.18278 0.83253 -0.37300
I 	I 	0.69585 0.34248 0.81273 -0.37200
C 	C 	0.69790 0.00470 0.84778 0.08100
H 	H 	0.71010 0.97280 0.83040 -0.01600
C 	C 	0.67490 0.95000 0.86973 -0.12800
H 	H 	0.67110 0.88220 0.86720 0.08800
C 	C 	0.68560 0.14340 0.87445 0.08000
H 	H 	0.68880 0.21160 0.87620 -0.01500
C 	C 	0.66270 0.09420 0.89730 -0.12000
H 	H 	0.65060 0.12790 0.91430 0.08300
C 	C 	0.65770 0.99530 0.89508 0.06700
C 	C 	0.63280 0.94010 0.91899 0.10300
C 	C 	0.57210 0.13250 0.02095 0.06600
H 	H 	0.57700 0.20030 0.02300 -0.00300
C 	C 	0.58500 0.08860 0.99411 -0.11500
H 	H 	0.59830 0.12530 0.97800 0.07800
C 	C 	0.54410 0.98800 0.04031 0.06600
H 	H 	0.52850 0.95340 0.05600 -0.01300
C 	C 	0.55670 0.93950 0.01432 -0.12200
H 	H 	0.55070 0.87200 0.01240 0.09100
C 	C 	0.57800 0.98990 0.99123 0.05400
C 	C 	0.59390 0.93870 0.96373 0.09500
C 	C 	0.55460 0.55180 0.95058 0.07200
H 	H 	0.54350 0.51450 0.96720 -0.00500
C 	C 	0.56960 0.64500 0.95547 -0.12500
H 	H 	0.56840 0.67180 0.97520 0.09100
C 	C 	0.57230 0.56480 0.90016 0.08400
H 	H 	0.57360 0.53640 0.88070 -0.01000
C 	C 	0.58790 0.65760 0.90340 -0.13600
H 	H 	0.59950 0.69280 0.88650 0.10000
C 	C 	0.58660 0.69990 0.93168 0.05600
C 	C 	0.59980 0.80250 0.93631 0.08900
C 	C 	0.45850 0.42930 0.86491 0.07600
H 	H 	0.48800 0.43340 0.85410 -0.01100
C 	C 	0.41630 0.44390 0.84939 -0.11900
H 	H 	0.41670 0.45810 0.82840 0.08200
C 	C 	0.41810 0.40560 0.90941 0.06600
H 	H 	0.41870 0.39320 0.93050 -0.00600
C 	C 	0.37420 0.41880 0.89536 -0.11200
H 	H 	0.34510 0.41500 0.90660 0.07900
C 	C 	0.37310 0.43760 0.86487 0.05500
C 	C 	0.32620 0.45000 0.84938 0.10100
C 	C 	0.15380 0.38610 0.90978 0.07600
H 	H 	0.15300 0.36540 0.93020 -0.01700
C 	C 	0.19820 0.40240 0.89657 -0.12100
H 	H 	0.22720 0.39380 0.90770 0.07900
C 	C 	0.11360 0.42920 0.86666 0.05800
H 	H 	0.08400 0.44050 0.85640 -0.00900
C 	C 	0.15580 0.44530 0.85170 -0.11400
H 	H 	0.15550 0.46560 0.83130 0.07900
C 	C 	0.19940 0.43150 0.86668 0.05100
C 	C 	0.24560 0.44630 0.85055 0.10400
C 	C 	0.23320 0.56230 0.73343 0.06900
H 	H 	0.20310 0.55910 0.72320 -0.00100
C 	C 	0.23640 0.52300 0.76197 -0.11600
H 	H 	0.20880 0.49530 0.77130 0.08200
C 	C 	0.31280 0.60400 0.73381 0.06600
H 	H 	0.33960 0.63230 0.72390 -0.01000
C 	C 	0.31930 0.56490 0.76192 -0.11600
H 	H 	0.35020 0.56550 0.77110 0.08000
C 	C 	0.27980 0.52430 0.77676 0.05000
C 	C 	0.28360 0.48860 0.80782 0.10300
N 	N 	0.70341 0.10070 0.85011 -0.27800
N 	N 	0.55321 0.08340 0.04405 -0.27300
N 	N 	0.55519 0.51140 0.92286 -0.27300
N 	N 	0.61808 0.99030 0.94289 -0.13800
N 	N 	0.58330 0.84550 0.96118 -0.14400
N 	N 	0.62547 0.84550 0.91471 -0.13300
N 	N 	0.46030 0.40970 0.89420 -0.27000
N 	N 	0.11239 0.39800 0.89545 -0.27400
N 	N 	0.26990 0.60400 0.71977 -0.27600
N 	N 	0.28643 0.43350 0.86545 -0.14100
N 	N 	0.24217 0.47360 0.82164 -0.14100
N 	N 	0.32733 0.47800 0.82039 -0.13900
Zn	Zn	0.02457 0.12223 0.08484 1.16400
Zn	Zn	0.04735 0.35641 0.91386 1.16400
Zn	Zn	0.23951 0.31829 0.18106 1.16600
I 	I 	0.00565 0.19537 0.03323 -0.39200
I 	I 	0.07402 0.21061 0.12391 -0.37100
I 	I 	0.05406 0.17307 0.91987 -0.38100
I 	I 	0.98252 0.44041 0.88355 -0.36400
I 	I 	0.32871 0.31722 0.16747 -0.37300
I 	I 	0.19585 0.15752 0.18727 -0.37300
C 	C 	0.19790 0.49530 0.15222 0.07800
H 	H 	0.21010 0.52720 0.16960 -0.01400
C 	C 	0.17490 0.55000 0.13027 -0.12600
H 	H 	0.17110 0.61780 0.13280 0.08700
C 	C 	0.18560 0.35660 0.12555 0.08000
H 	H 	0.18880 0.28840 0.12380 -0.01500
C 	C 	0.16270 0.40580 0.10270 -0.12000
H 	H 	0.15060 0.37210 0.08570 0.08300
C 	C 	0.15770 0.50470 0.10492 0.06700
C 	C 	0.13280 0.55990 0.08101 0.10400
C 	C 	0.07210 0.36750 0.97905 0.06600
H 	H 	0.07700 0.29970 0.97700 -0.00300
C 	C 	0.08500 0.41140 0.00589 -0.11500
H 	H 	0.09830 0.37470 0.02200 0.07800
C 	C 	0.04410 0.51200 0.95969 0.06700
H 	H 	0.02850 0.54660 0.94400 -0.01300
C 	C 	0.05670 0.56050 0.98568 -0.12300
H 	H 	0.05070 0.62800 0.98760 0.09200
C 	C 	0.07800 0.51010 0.00877 0.05500
C 	C 	0.09390 0.56130 0.03627 0.09500
C 	C 	0.05460 0.94820 0.04942 0.07200
H 	H 	0.04350 0.98550 0.03280 -0.00500
C 	C 	0.06960 0.85500 0.04453 -0.12500
H 	H 	0.06840 0.82820 0.02480 0.09100
C 	C 	0.07230 0.93520 0.09984 0.08400
H 	H 	0.07360 0.96360 0.11930 -0.01000
C 	C 	0.08790 0.84240 0.09660 -0.13600
H 	H 	0.09950 0.80720 0.11350 0.10000
C 	C 	0.08660 0.80010 0.06832 0.05700
C 	C 	0.09980 0.69750 0.06369 0.08900
C 	C 	0.95850 0.07070 0.13509 0.07600
H 	H 	0.98800 0.06660 0.14590 -0.01100
C 	C 	0.91630 0.05610 0.15061 -0.11900
H 	H 	0.91670 0.04190 0.17160 0.08200
C 	C 	0.91810 0.09440 0.09059 0.06600
H 	H 	0.91870 0.10680 0.06950 -0.00600
C 	C 	0.87420 0.08120 0.10464 -0.11200
H 	H 	0.84510 0.08500 0.09340 0.07900
C 	C 	0.87310 0.06240 0.13513 0.05500
C 	C 	0.82620 0.05000 0.15062 0.10100
C 	C 	0.65380 0.11390 0.09022 0.07600
H 	H 	0.65300 0.13460 0.06980 -0.01700
C 	C 	0.69820 0.09760 0.10343 -0.12100
H 	H 	0.72720 0.10620 0.09230 0.07900
C 	C 	0.61360 0.07080 0.13334 0.05800
H 	H 	0.58400 0.05950 0.14360 -0.00900
C 	C 	0.65580 0.05470 0.14830 -0.11400
H 	H 	0.65550 0.03440 0.16870 0.07900
C 	C 	0.69940 0.06850 0.13332 0.05100
C 	C 	0.74560 0.05370 0.14945 0.10400
C 	C 	0.73320 0.93770 0.26657 0.06800
H 	H 	0.70310 0.94090 0.27680 -0.00100
C 	C 	0.73640 0.97700 0.23803 -0.11600
H 	H 	0.70880 0.00470 0.22870 0.08100
C 	C 	0.81280 0.89600 0.26619 0.06500
H 	H 	0.83960 0.86770 0.27610 -0.01000
C 	C 	0.81930 0.93510 0.23808 -0.11600
H 	H 	0.85020 0.93450 0.22890 0.08000
C 	C 	0.77980 0.97570 0.22324 0.05000
C 	C 	0.78360 0.01140 0.19218 0.10300
N 	N 	0.20341 0.39930 0.14989 -0.27800
N 	N 	0.05321 0.41660 0.95595 -0.27300
N 	N 	0.05519 0.98860 0.07714 -0.27300
N 	N 	0.11808 0.50970 0.05711 -0.13800
N 	N 	0.08330 0.65450 0.03882 -0.14400
N 	N 	0.12547 0.65450 0.08529 -0.13300
N 	N 	0.96030 0.09030 0.10580 -0.27000
N 	N 	0.61239 0.10200 0.10455 -0.27400
N 	N 	0.76990 0.89600 0.28023 -0.27600
N 	N 	0.78643 0.06650 0.13455 -0.14100
N 	N 	0.74217 0.02640 0.17836 -0.14100
N 	N 	0.82733 0.02200 0.17961 -0.13900
Zn	Zn	0.47543 0.87777 0.58484 1.16400
Zn	Zn	0.45265 0.64359 0.41386 1.16400
Zn	Zn	0.26049 0.68171 0.68106 1.16600
I 	I 	0.49435 0.80463 0.53323 -0.39100
I 	I 	0.42598 0.78939 0.62391 -0.37000
I 	I 	0.44594 0.82693 0.41987 -0.38000
I 	I 	0.51748 0.55959 0.38355 -0.36500
I 	I 	0.17129 0.68278 0.66747 -0.37300
I 	I 	0.30415 0.84248 0.68727 -0.37300
C 	C 	0.30210 0.50470 0.65222 0.07800
H 	H 	0.28990 0.47280 0.66960 -0.01400
C 	C 	0.32510 0.45000 0.63027 -0.12600
H 	H 	0.32890 0.38220 0.63280 0.08700
C 	C 	0.31440 0.64340 0.62555 0.08000
H 	H 	0.31120 0.71160 0.62380 -0.01500
C 	C 	0.33730 0.59420 0.60270 -0.12000
H 	H 	0.34940 0.62790 0.58570 0.08300
C 	C 	0.34230 0.49530 0.60492 0.06700
C 	C 	0.36720 0.44010 0.58101 0.10400
C 	C 	0.42790 0.63250 0.47905 0.06600
H 	H 	0.42300 0.70030 0.47700 -0.00300
C 	C 	0.41500 0.58860 0.50589 -0.11500
H 	H 	0.40170 0.62530 0.52200 0.07800
C 	C 	0.45590 0.48800 0.45969 0.06700
H 	H 	0.47150 0.45340 0.44400 -0.01300
C 	C 	0.44330 0.43950 0.48568 -0.12300
H 	H 	0.44930 0.37200 0.48760 0.09100
C 	C 	0.42200 0.48990 0.50877 0.05500
C 	C 	0.40610 0.43870 0.53627 0.09500
C 	C 	0.44540 0.05180 0.54942 0.07200
H 	H 	0.45650 0.01450 0.53280 -0.00500
C 	C 	0.43040 0.14500 0.54453 -0.12500
H 	H 	0.43160 0.17180 0.52480 0.09100
C 	C 	0.42770 0.06480 0.59984 0.08400
H 	H 	0.42640 0.03640 0.61930 -0.01000
C 	C 	0.41210 0.15760 0.59660 -0.13600
H 	H 	0.40050 0.19280 0.61350 0.10000
C 	C 	0.41340 0.19990 0.56832 0.05600
C 	C 	0.40020 0.30250 0.56369 0.08900
C 	C 	0.54150 0.92930 0.63509 0.07600
H 	H 	0.51200 0.93340 0.64590 -0.01100
C 	C 	0.58370 0.94390 0.65061 -0.11900
H 	H 	0.58330 0.95810 0.67160 0.08100
C 	C 	0.58190 0.90560 0.59059 0.06600
H 	H 	0.58130 0.89320 0.56950 -0.00600
C 	C 	0.62580 0.91880 0.60464 -0.11200
H 	H 	0.65490 0.91500 0.59340 0.07900
C 	C 	0.62690 0.93760 0.63513 0.05500
C 	C 	0.67380 0.95000 0.65062 0.10100
C 	C 	0.84620 0.88610 0.59022 0.07600
H 	H 	0.84700 0.86540 0.56980 -0.01700
C 	C 	0.80180 0.90240 0.60343 -0.12100
H 	H 	0.77280 0.89380 0.59230 0.07900
C 	C 	0.88640 0.92920 0.63334 0.05800
H 	H 	0.91600 0.94050 0.64360 -0.00900
C 	C 	0.84420 0.94530 0.64830 -0.11500
H 	H 	0.84450 0.96560 0.66870 0.07900
C 	C 	0.80060 0.93150 0.63332 0.05100
C 	C 	0.75440 0.94630 0.64945 0.10400
C 	C 	0.76680 0.06230 0.76657 0.06800
H 	H 	0.79690 0.05910 0.77680 -0.00100
C 	C 	0.76360 0.02300 0.73803 -0.11400
H 	H 	0.79120 0.99530 0.72870 0.08000
C 	C 	0.68720 0.10400 0.76619 0.06600
H 	H 	0.66040 0.13230 0.77610 -0.01000
C 	C 	0.68070 0.06490 0.73808 -0.11600
H 	H 	0.64980 0.06550 0.72890 0.08000
C 	C 	0.72020 0.02430 0.72324 0.05100
C 	C 	0.71640 0.98860 0.69218 0.10300
N 	N 	0.29659 0.60070 0.64989 -0.27800
N 	N 	0.44679 0.58340 0.45595 -0.27300
N 	N 	0.44481 0.01140 0.57714 -0.27300
N 	N 	0.38192 0.49030 0.55711 -0.13800
N 	N 	0.41670 0.34550 0.53882 -0.14400
N 	N 	0.37453 0.34550 0.58529 -0.13300
N 	N 	0.53970 0.90970 0.60580 -0.27000
N 	N 	0.88761 0.89800 0.60455 -0.27400
N 	N 	0.73010 0.10400 0.78023 -0.27600
N 	N 	0.71357 0.93350 0.63455 -0.14100
N 	N 	0.75783 0.97360 0.67836 -0.14100
N 	N 	0.67267 0.97800 0.67961 -0.13900
Zn	Zn	0.02457 0.37777 0.58484 1.16400
Zn	Zn	0.04735 0.14359 0.41386 1.16400
Zn	Zn	0.23951 0.18171 0.68106 1.16600
I 	I 	0.00565 0.30463 0.53323 -0.39100
I 	I 	0.07402 0.28939 0.62391 -0.37000
I 	I 	0.05406 0.32693 0.41987 -0.38100
I 	I 	0.98252 0.05959 0.38355 -0.36400
I 	I 	0.32871 0.18278 0.66747 -0.37300
I 	I 	0.19585 0.34248 0.68727 -0.37200
C 	C 	0.19790 0.00470 0.65222 0.07800
H 	H 	0.21010 0.97280 0.66960 -0.01400
C 	C 	0.17490 0.95000 0.63027 -0.12600
H 	H 	0.17110 0.88220 0.63280 0.08700
C 	C 	0.18560 0.14340 0.62555 0.08000
H 	H 	0.18880 0.21160 0.62380 -0.01500
C 	C 	0.16270 0.09420 0.60270 -0.12100
H 	H 	0.15060 0.12790 0.58570 0.08300
C 	C 	0.15770 0.99530 0.60492 0.06700
C 	C 	0.13280 0.94010 0.58101 0.10300
C 	C 	0.07210 0.13250 0.47905 0.06700
H 	H 	0.07700 0.20030 0.47700 -0.00300
C 	C 	0.08500 0.08860 0.50589 -0.11700
H 	H 	0.09830 0.12530 0.52200 0.07800
C 	C 	0.04410 0.98800 0.45969 0.06800
H 	H 	0.02850 0.95340 0.44400 -0.01400
C 	C 	0.05670 0.93950 0.48568 -0.12400
H 	H 	0.05070 0.87200 0.48760 0.09200
C 	C 	0.07800 0.98990 0.50877 0.05600
C 	C 	0.09390 0.93870 0.53627 0.09500
C 	C 	0.05460 0.55180 0.54942 0.07200
H 	H 	0.04350 0.51450 0.53280 -0.00500
C 	C 	0.06960 0.64500 0.54453 -0.12500
H 	H 	0.06840 0.67180 0.52480 0.09100
C 	C 	0.07230 0.56480 0.59984 0.08400
H 	H 	0.07360 0.53640 0.61930 -0.01000
C 	C 	0.08790 0.65760 0.59660 -0.13600
H 	H 	0.09950 0.69280 0.61350 0.10000
C 	C 	0.08660 0.69990 0.56832 0.05700
C 	C 	0.09980 0.80250 0.56369 0.08900
C 	C 	0.95850 0.42930 0.63509 0.07600
H 	H 	0.98800 0.43340 0.64590 -0.01100
C 	C 	0.91630 0.44390 0.65061 -0.11900
H 	H 	0.91670 0.45810 0.67160 0.08200
C 	C 	0.91810 0.40560 0.59059 0.06600
H 	H 	0.91870 0.39320 0.56950 -0.00600
C 	C 	0.87420 0.41880 0.60464 -0.11200
H 	H 	0.84510 0.41500 0.59340 0.07900
C 	C 	0.87310 0.43760 0.63513 0.05500
C 	C 	0.82620 0.45000 0.65062 0.10100
C 	C 	0.65380 0.38610 0.59022 0.07600
H 	H 	0.65300 0.36540 0.56980 -0.01700
C 	C 	0.69820 0.40240 0.60343 -0.12100
H 	H 	0.72720 0.39380 0.59230 0.07900
C 	C 	0.61360 0.42920 0.63334 0.05800
H 	H 	0.58400 0.44050 0.64360 -0.00900
C 	C 	0.65580 0.44530 0.64830 -0.11400
H 	H 	0.65550 0.46560 0.66870 0.07900
C 	C 	0.69940 0.43150 0.63332 0.05100
C 	C 	0.74560 0.44630 0.64945 0.10400
C 	C 	0.73320 0.56230 0.76657 0.06900
H 	H 	0.70310 0.55910 0.77680 -0.00100
C 	C 	0.73640 0.52300 0.73803 -0.11600
H 	H 	0.70880 0.49530 0.72870 0.08200
C 	C 	0.81280 0.60400 0.76619 0.06600
H 	H 	0.83960 0.63230 0.77610 -0.01000
C 	C 	0.81930 0.56490 0.73808 -0.11600
H 	H 	0.85020 0.56550 0.72890 0.08000
C 	C 	0.77980 0.52430 0.72324 0.05000
C 	C 	0.78360 0.48860 0.69218 0.10300
N 	N 	0.20341 0.10070 0.64989 -0.27800
N 	N 	0.05321 0.08340 0.45595 -0.27400
N 	N 	0.05519 0.51140 0.57714 -0.27300
N 	N 	0.11808 0.99030 0.55711 -0.13800
N 	N 	0.08330 0.84550 0.53882 -0.14300
N 	N 	0.12547 0.84550 0.58529 -0.13300
N 	N 	0.96030 0.40970 0.60580 -0.27000
N 	N 	0.61239 0.39800 0.60455 -0.27400
N 	N 	0.76990 0.60400 0.78023 -0.27600
N 	N 	0.78643 0.43350 0.63455 -0.14100
N 	N 	0.74217 0.47360 0.67836 -0.14100
N 	N 	0.82733 0.47800 0.67961 -0.13900
Zn	Zn	0.47543 0.62223 0.08484 1.16400
Zn	Zn	0.45265 0.85641 0.91386 1.16400
Zn	Zn	0.26049 0.81829 0.18106 1.16600
I 	I 	0.49435 0.69537 0.03323 -0.39100
I 	I 	0.42598 0.71061 0.12391 -0.37000
I 	I 	0.44594 0.67307 0.91987 -0.38100
I 	I 	0.51748 0.94041 0.88355 -0.36500
I 	I 	0.17129 0.81722 0.16747 -0.37300
I 	I 	0.30415 0.65752 0.18727 -0.37200
C 	C 	0.30210 0.99530 0.15222 0.08100
H 	H 	0.28990 0.02720 0.16960 -0.01600
C 	C 	0.32510 0.05000 0.13027 -0.12800
H 	H 	0.32890 0.11780 0.13280 0.08800
C 	C 	0.31440 0.85660 0.12555 0.08000
H 	H 	0.31120 0.78840 0.12380 -0.01500
C 	C 	0.33730 0.90580 0.10270 -0.12000
H 	H 	0.34940 0.87210 0.08570 0.08300
C 	C 	0.34230 0.00470 0.10492 0.06700
C 	C 	0.36720 0.05990 0.08101 0.10300
C 	C 	0.42790 0.86750 0.97905 0.06600
H 	H 	0.42300 0.79970 0.97700 -0.00300
C 	C 	0.41500 0.91140 0.00589 -0.11500
H 	H 	0.40170 0.87470 0.02200 0.07800
C 	C 	0.45590 0.01200 0.95969 0.06600
H 	H 	0.47150 0.04660 0.94400 -0.01300
C 	C 	0.44330 0.06050 0.98568 -0.12200
H 	H 	0.44930 0.12800 0.98760 0.09100
C 	C 	0.42200 0.01010 0.00877 0.05400
C 	C 	0.40610 0.06130 0.03627 0.09500
C 	C 	0.44540 0.44820 0.04942 0.07200
H 	H 	0.45650 0.48550 0.03280 -0.00500
C 	C 	0.43040 0.35500 0.04453 -0.12500
H 	H 	0.43160 0.32820 0.02480 0.09100
C 	C 	0.42770 0.43520 0.09984 0.08400
H 	H 	0.42640 0.46360 0.11930 -0.01000
C 	C 	0.41210 0.34240 0.09660 -0.13600
H 	H 	0.40050 0.30720 0.11350 0.10000
C 	C 	0.41340 0.30010 0.06832 0.05600
C 	C 	0.40020 0.19750 0.06369 0.08900
C 	C 	0.54150 0.57070 0.13509 0.07600
H 	H 	0.51200 0.56660 0.14590 -0.01100
C 	C 	0.58370 0.55610 0.15061 -0.11900
H 	H 	0.58330 0.54190 0.17160 0.08200
C 	C 	0.58190 0.59440 0.09059 0.06600
H 	H 	0.58130 0.60680 0.06950 -0.00600
C 	C 	0.62580 0.58120 0.10464 -0.11200
H 	H 	0.65490 0.58500 0.09340 0.07900
C 	C 	0.62690 0.56240 0.13513 0.05500
C 	C 	0.67380 0.55000 0.15062 0.10100
C 	C 	0.84620 0.61390 0.09022 0.07600
H 	H 	0.84700 0.63460 0.06980 -0.01700
C 	C 	0.80180 0.59760 0.10343 -0.12100
H 	H 	0.77280 0.60620 0.09230 0.07900
C 	C 	0.88640 0.57080 0.13334 0.05800
H 	H 	0.91600 0.55950 0.14360 -0.00900
C 	C 	0.84420 0.55470 0.14830 -0.11400
H 	H 	0.84450 0.53440 0.16870 0.07900
C 	C 	0.80060 0.56850 0.13332 0.05100
C 	C 	0.75440 0.55370 0.14945 0.10400
C 	C 	0.76680 0.43770 0.26657 0.06900
H 	H 	0.79690 0.44090 0.27680 -0.00100
C 	C 	0.76360 0.47700 0.23803 -0.11600
H 	H 	0.79120 0.50470 0.22870 0.08200
C 	C 	0.68720 0.39600 0.26619 0.06600
H 	H 	0.66040 0.36770 0.27610 -0.01000
C 	C 	0.68070 0.43510 0.23808 -0.11600
H 	H 	0.64980 0.43450 0.22890 0.08000
C 	C 	0.72020 0.47570 0.22324 0.05000
C 	C 	0.71640 0.51140 0.19218 0.10300
N 	N 	0.29659 0.89930 0.14989 -0.27800
N 	N 	0.44679 0.91660 0.95595 -0.27300
N 	N 	0.44481 0.48860 0.07714 -0.27300
N 	N 	0.38192 0.00970 0.05711 -0.13800
N 	N 	0.41670 0.15450 0.03882 -0.14400
N 	N 	0.37453 0.15450 0.08529 -0.13300
N 	N 	0.53970 0.59030 0.10580 -0.27000
N 	N 	0.88761 0.60200 0.10455 -0.27400
N 	N 	0.73010 0.39600 0.28023 -0.27600
N 	N 	0.71357 0.56650 0.13455 -0.14100
N 	N 	0.75783 0.52640 0.17836 -0.14100
N 	N 	0.67267 0.52200 0.17961 -0.13900
Zn	Zn	0.97543 0.87777 0.91516 1.16400
Zn	Zn	0.95265 0.64359 0.08614 1.16400
Zn	Zn	0.76049 0.68171 0.81894 1.16600
I 	I 	0.99435 0.80463 0.96677 -0.39200
I 	I 	0.92598 0.78939 0.87609 -0.37100
I 	I 	0.94594 0.82693 0.08013 -0.38100
I 	I 	0.01748 0.55959 0.11645 -0.36400
I 	I 	0.67129 0.68278 0.83253 -0.37300
I 	I 	0.80415 0.84248 0.81273 -0.37300
C 	C 	0.80210 0.50470 0.84778 0.07800
H 	H 	0.78990 0.47280 0.83040 -0.01400
C 	C 	0.82510 0.45000 0.86973 -0.12600
H 	H 	0.82890 0.38220 0.86720 0.08700
C 	C 	0.81440 0.64340 0.87445 0.08000
H 	H 	0.81120 0.71160 0.87620 -0.01500
C 	C 	0.83730 0.59420 0.89730 -0.12000
H 	H 	0.84940 0.62790 0.91430 0.08300
C 	C 	0.84230 0.49530 0.89508 0.06700
C 	C 	0.86720 0.44010 0.91899 0.10400
C 	C 	0.92790 0.63250 0.02095 0.06600
H 	H 	0.92300 0.70030 0.02300 -0.00300
C 	C 	0.91500 0.58860 0.99411 -0.11500
H 	H 	0.90170 0.62530 0.97800 0.07800
C 	C 	0.95590 0.48800 0.04031 0.06700
H 	H 	0.97150 0.45340 0.05600 -0.01300
C 	C 	0.94330 0.43950 0.01432 -0.12300
H 	H 	0.94930 0.37200 0.01240 0.09200
C 	C 	0.92200 0.48990 0.99123 0.05500
C 	C 	0.90610 0.43870 0.96373 0.09500
C 	C 	0.94540 0.05180 0.95058 0.07200
H 	H 	0.95650 0.01450 0.96720 -0.00500
C 	C 	0.93040 0.14500 0.95547 -0.12500
H 	H 	0.93160 0.17180 0.97520 0.09100
C 	C 	0.92770 0.06480 0.90016 0.08400
H 	H 	0.92640 0.03640 0.88070 -0.01000
C 	C 	0.91210 0.15760 0.90340 -0.13600
H 	H 	0.90050 0.19280 0.88650 0.10000
C 	C 	0.91340 0.19990 0.93168 0.05700
C 	C 	0.90020 0.30250 0.93631 0.08900
C 	C 	0.04150 0.92930 0.86491 0.07600
H 	H 	0.01200 0.93340 0.85410 -0.01100
C 	C 	0.08370 0.94390 0.84939 -0.11900
H 	H 	0.08330 0.95810 0.82840 0.08200
C 	C 	0.08190 0.90560 0.90941 0.06600
H 	H 	0.08130 0.89320 0.93050 -0.00600
C 	C 	0.12580 0.91880 0.89536 -0.11200
H 	H 	0.15490 0.91500 0.90660 0.07900
C 	C 	0.12690 0.93760 0.86487 0.05500
C 	C 	0.17380 0.95000 0.84938 0.10100
C 	C 	0.34620 0.88610 0.90978 0.07600
H 	H 	0.34700 0.86540 0.93020 -0.01700
C 	C 	0.30180 0.90240 0.89657 -0.12100
H 	H 	0.27280 0.89380 0.90770 0.07900
C 	C 	0.38640 0.92920 0.86666 0.05800
H 	H 	0.41600 0.94050 0.85640 -0.00900
C 	C 	0.34420 0.94530 0.85170 -0.11400
H 	H 	0.34450 0.96560 0.83130 0.07900
C 	C 	0.30060 0.93150 0.86668 0.05100
C 	C 	0.25440 0.94630 0.85055 0.10400
C 	C 	0.26680 0.06230 0.73343 0.06800
H 	H 	0.29690 0.05910 0.72320 -0.00100
C 	C 	0.26360 0.02300 0.76197 -0.11600
H 	H 	0.29120 0.99530 0.77130 0.08100
C 	C 	0.18720 0.10400 0.73381 0.06500
H 	H 	0.16040 0.13230 0.72390 -0.01000
C 	C 	0.18070 0.06490 0.76192 -0.11600
H 	H 	0.14980 0.06550 0.77110 0.08000
C 	C 	0.22020 0.02430 0.77676 0.05000
C 	C 	0.21640 0.98860 0.80782 0.10300
N 	N 	0.79659 0.60070 0.85011 -0.27800
N 	N 	0.94679 0.58340 0.04405 -0.27300
N 	N 	0.94481 0.01140 0.92286 -0.27300
N 	N 	0.88192 0.49030 0.94289 -0.13800
N 	N 	0.91670 0.34550 0.96118 -0.14400
N 	N 	0.87453 0.34550 0.91471 -0.13300
N 	N 	0.03970 0.90970 0.89420 -0.27000
N 	N 	0.38761 0.89800 0.89545 -0.27400
N 	N 	0.23010 0.10400 0.71977 -0.27600
N 	N 	0.21357 0.93350 0.86545 -0.14100
N 	N 	0.25783 0.97360 0.82164 -0.14100
N 	N 	0.17267 0.97800 0.82039 -0.13900
Zn	Zn	0.52457 0.12223 0.41516 1.16400
Zn	Zn	0.54735 0.35641 0.58614 1.16400
Zn	Zn	0.73951 0.31829 0.31894 1.16600
I 	I 	0.50565 0.19537 0.46677 -0.39100
I 	I 	0.57402 0.21061 0.37609 -0.37000
I 	I 	0.55406 0.17307 0.58013 -0.38000
I 	I 	0.48252 0.44041 0.61645 -0.36500
I 	I 	0.82871 0.31722 0.33253 -0.37300
I 	I 	0.69585 0.15752 0.31273 -0.37300
C 	C 	0.69790 0.49530 0.34778 0.07800
H 	H 	0.71010 0.52720 0.33040 -0.01400
C 	C 	0.67490 0.55000 0.36973 -0.12600
H 	H 	0.67110 0.61780 0.36720 0.08700
C 	C 	0.68560 0.35660 0.37445 0.08000
H 	H 	0.68880 0.28840 0.37620 -0.01500
C 	C 	0.66270 0.40580 0.39730 -0.12000
H 	H 	0.65060 0.37210 0.41430 0.08300
C 	C 	0.65770 0.50470 0.39508 0.06700
C 	C 	0.63280 0.55990 0.41899 0.10400
C 	C 	0.57210 0.36750 0.52095 0.06600
H 	H 	0.57700 0.29970 0.52300 -0.00300
C 	C 	0.58500 0.41140 0.49411 -0.11500
H 	H 	0.59830 0.37470 0.47800 0.07800
C 	C 	0.54410 0.51200 0.54031 0.06700
H 	H 	0.52850 0.54660 0.55600 -0.01300
C 	C 	0.55670 0.56050 0.51432 -0.12300
H 	H 	0.55070 0.62800 0.51240 0.09100
C 	C 	0.57800 0.51010 0.49123 0.05500
C 	C 	0.59390 0.56130 0.46373 0.09500
C 	C 	0.55460 0.94820 0.45058 0.07200
H 	H 	0.54350 0.98550 0.46720 -0.00500
C 	C 	0.56960 0.85500 0.45547 -0.12500
H 	H 	0.56840 0.82820 0.47520 0.09100
C 	C 	0.57230 0.93520 0.40016 0.08400
H 	H 	0.57360 0.96360 0.38070 -0.01000
C 	C 	0.58790 0.84240 0.40340 -0.13600
H 	H 	0.59950 0.80720 0.38650 0.10000
C 	C 	0.58660 0.80010 0.43168 0.05600
C 	C 	0.59980 0.69750 0.43631 0.08900
C 	C 	0.45850 0.07070 0.36491 0.07600
H 	H 	0.48800 0.06660 0.35410 -0.01100
C 	C 	0.41630 0.05610 0.34939 -0.11900
H 	H 	0.41670 0.04190 0.32840 0.08100
C 	C 	0.41810 0.09440 0.40941 0.06600
H 	H 	0.41870 0.10680 0.43050 -0.00600
C 	C 	0.37420 0.08120 0.39536 -0.11200
H 	H 	0.34510 0.08500 0.40660 0.07900
C 	C 	0.37310 0.06240 0.36487 0.05500
C 	C 	0.32620 0.05000 0.34938 0.10100
C 	C 	0.15380 0.11390 0.40978 0.07600
H 	H 	0.15300 0.13460 0.43020 -0.01700
C 	C 	0.19820 0.09760 0.39657 -0.12100
H 	H 	0.22720 0.10620 0.40770 0.07900
C 	C 	0.11360 0.07080 0.36666 0.05800
H 	H 	0.08400 0.05950 0.35640 -0.00900
C 	C 	0.15580 0.05470 0.35170 -0.11500
H 	H 	0.15550 0.03440 0.33130 0.07900
C 	C 	0.19940 0.06850 0.36668 0.05100
C 	C 	0.24560 0.05370 0.35055 0.10400
C 	C 	0.23320 0.93770 0.23343 0.06800
H 	H 	0.20310 0.94090 0.22320 -0.00100
C 	C 	0.23640 0.97700 0.26197 -0.11400
H 	H 	0.20880 0.00470 0.27130 0.08000
C 	C 	0.31280 0.89600 0.23381 0.06600
H 	H 	0.33960 0.86770 0.22390 -0.01000
C 	C 	0.31930 0.93510 0.26192 -0.11600
H 	H 	0.35020 0.93450 0.27110 0.08000
C 	C 	0.27980 0.97570 0.27676 0.05100
C 	C 	0.28360 0.01140 0.30782 0.10300
N 	N 	0.70341 0.39930 0.35011 -0.27800
N 	N 	0.55321 0.41660 0.54405 -0.27300
N 	N 	0.55519 0.98860 0.42286 -0.27300
N 	N 	0.61808 0.50970 0.44289 -0.13800
N 	N 	0.58330 0.65450 0.46118 -0.14400
N 	N 	0.62547 0.65450 0.41471 -0.13300
N 	N 	0.46030 0.09030 0.39420 -0.27000
N 	N 	0.11239 0.10200 0.39545 -0.27400
N 	N 	0.26990 0.89600 0.21977 -0.27600
N 	N 	0.28643 0.06650 0.36545 -0.14100
N 	N 	0.24217 0.02640 0.32164 -0.14100
N 	N 	0.32733 0.02200 0.32039 -0.13900
