data_crystal

_cell_length_a 13.82960
_cell_length_b 28.18070
_cell_length_c 44.30940
_cell_angle_alpha 90.00000
_cell_angle_beta  90.00000
_cell_angle_gamma 90.00000

_symmetry_space_group_name_	'P 1'
_symmetry_space_group_name_H-M	'P 1'

loop_
_symmetry_equiv_pos_as_xyz
  x,y,z

loop_
_atom_site_label
_atom_site_type_symbol
_atom_site_fract_x
_atom_site_fract_y
_atom_site_fract_z
_atom_site_charge
Zn	Zn	0.57046 0.02756 0.93107 1.16300
Zn	Zn	0.37305 0.23135 0.82707 1.16300
Zn	Zn	0.61119 0.20467 0.65793 1.16400
Zn	Zn	0.92954 0.97244 0.43107 1.16200
Zn	Zn	0.12695 0.76865 0.32707 1.16300
Zn	Zn	0.88881 0.79533 0.15793 1.16400
Zn	Zn	0.42954 0.52756 0.56893 1.16300
Zn	Zn	0.62695 0.73135 0.67293 1.16300
Zn	Zn	0.38881 0.70467 0.84207 1.16500
Zn	Zn	0.07046 0.47244 0.06893 1.16400
Zn	Zn	0.87305 0.26865 0.17293 1.16400
Zn	Zn	0.11119 0.29533 0.34207 1.16500
H 	H 	0.79820 0.22280 0.68870 -0.01600
H 	H 	0.88080 0.20040 0.73100 0.09500
H 	H 	0.55140 0.17910 0.72240 0.00100
H 	H 	0.62720 0.16060 0.76850 0.08000
H 	H 	0.54240 0.06640 0.87030 -0.02200
H 	H 	0.62550 0.10230 0.83220 0.09300
H 	H 	0.77950 0.06220 0.91980 -0.01600
H 	H 	0.86450 0.10110 0.88210 0.09700
H 	H 	0.22910 0.17320 0.86220 0.00500
H 	H 	0.06370 0.15160 0.85690 0.09000
H 	H 	0.22960 0.21810 0.77700 -0.00400
H 	H 	0.07340 0.19340 0.76890 0.08600
H 	H 	0.86320 0.16200 0.18620 -0.00800
H 	H 	0.84150 0.09330 0.16010 0.08200
H 	H 	0.80780 0.23480 0.11270 -0.01500
H 	H 	0.78040 0.16680 0.08540 0.08700
H 	H 	0.61270 0.10030 0.97900 -0.00600
H 	H 	0.70230 0.10820 0.02320 0.08000
H 	H 	0.67800 0.96480 0.97280 0.00100
H 	H 	0.75270 0.96810 0.02090 0.08300
H 	H 	0.80110 0.83800 0.10220 -0.01000
H 	H 	0.78810 0.91140 0.07960 0.08600
H 	H 	0.87080 0.89910 0.17880 -0.01300
H 	H 	0.84960 0.97260 0.15780 0.08300
H 	H 	0.70180 0.77720 0.18870 -0.01500
H 	H 	0.61920 0.79960 0.23100 0.09500
H 	H 	0.94860 0.82090 0.22240 0.00100
H 	H 	0.87280 0.83940 0.26850 0.08000
H 	H 	0.95760 0.93360 0.37030 -0.02300
H 	H 	0.87450 0.89770 0.33220 0.09300
H 	H 	0.72050 0.93780 0.41980 -0.01600
H 	H 	0.63550 0.89890 0.38210 0.09600
H 	H 	0.27090 0.82680 0.36220 0.00500
H 	H 	0.43630 0.84840 0.35690 0.09000
H 	H 	0.27040 0.78190 0.27700 -0.00400
H 	H 	0.42660 0.80660 0.26890 0.08600
H 	H 	0.63680 0.83800 0.68620 -0.00800
H 	H 	0.65850 0.90670 0.66010 0.08200
H 	H 	0.69220 0.76520 0.61270 -0.01500
H 	H 	0.71960 0.83320 0.58540 0.08700
H 	H 	0.88730 0.89970 0.47900 -0.00700
H 	H 	0.79770 0.89180 0.52320 0.07900
H 	H 	0.82200 0.03520 0.47280 0.00100
H 	H 	0.74730 0.03190 0.52090 0.08200
H 	H 	0.69890 0.16200 0.60220 -0.01000
H 	H 	0.71190 0.08860 0.57960 0.08500
H 	H 	0.62920 0.10090 0.67880 -0.01300
H 	H 	0.65040 0.02740 0.65780 0.08300
H 	H 	0.20180 0.72280 0.81130 -0.01600
H 	H 	0.11920 0.70040 0.76900 0.09500
H 	H 	0.44860 0.67910 0.77760 0.00100
H 	H 	0.37280 0.66060 0.73150 0.08000
H 	H 	0.45760 0.56640 0.62970 -0.02200
H 	H 	0.37450 0.60230 0.66780 0.09300
H 	H 	0.22050 0.56220 0.58020 -0.01600
H 	H 	0.13550 0.60110 0.61790 0.09700
H 	H 	0.77090 0.67320 0.63780 0.00500
H 	H 	0.93630 0.65160 0.64310 0.09000
H 	H 	0.77040 0.71810 0.72300 -0.00400
H 	H 	0.92660 0.69340 0.73110 0.08600
H 	H 	0.13680 0.66200 0.31380 -0.00800
H 	H 	0.15850 0.59330 0.33990 0.08200
H 	H 	0.19220 0.73480 0.38730 -0.01500
H 	H 	0.21960 0.66680 0.41460 0.08700
H 	H 	0.38730 0.60030 0.52100 -0.00600
H 	H 	0.29770 0.60820 0.47680 0.07900
H 	H 	0.32200 0.46480 0.52720 0.00100
H 	H 	0.24730 0.46810 0.47910 0.08300
H 	H 	0.19890 0.33800 0.39780 -0.01000
H 	H 	0.21190 0.41140 0.42040 0.08600
H 	H 	0.12920 0.39910 0.32120 -0.01300
H 	H 	0.15040 0.47260 0.34220 0.08300
H 	H 	0.29820 0.27720 0.31130 -0.01500
H 	H 	0.38080 0.29960 0.26900 0.09500
H 	H 	0.05140 0.32090 0.27760 0.00100
H 	H 	0.12720 0.33940 0.23150 0.08000
H 	H 	0.04240 0.43360 0.12970 -0.02200
H 	H 	0.12550 0.39770 0.16780 0.09300
H 	H 	0.27950 0.43780 0.08020 -0.01600
H 	H 	0.36450 0.39890 0.11790 0.09600
H 	H 	0.72910 0.32680 0.13780 0.00500
H 	H 	0.56370 0.34840 0.14310 0.09000
H 	H 	0.72960 0.28190 0.22300 -0.00400
H 	H 	0.57340 0.30660 0.23110 0.08600
H 	H 	0.36320 0.33800 0.81380 -0.00800
H 	H 	0.34150 0.40670 0.83990 0.08200
H 	H 	0.30780 0.26520 0.88730 -0.01500
H 	H 	0.28040 0.33320 0.91460 0.08700
H 	H 	0.11270 0.39970 0.02100 -0.00700
H 	H 	0.20230 0.39180 0.97680 0.07900
H 	H 	0.17800 0.53520 0.02720 0.00100
H 	H 	0.25270 0.53190 0.97910 0.08200
H 	H 	0.30110 0.66200 0.89780 -0.01000
H 	H 	0.28810 0.58860 0.92040 0.08500
H 	H 	0.37080 0.60090 0.82120 -0.01300
H 	H 	0.34960 0.52740 0.84220 0.08300
C 	C 	0.76420 0.20850 0.70430 0.07700
C 	C 	0.81410 0.19640 0.72980 -0.13200
C 	C 	0.61770 0.18350 0.72440 0.05500
C 	C 	0.66290 0.17190 0.75220 -0.11600
C 	C 	0.76080 0.17780 0.75420 0.05700
C 	C 	0.81060 0.16300 0.78160 0.09100
C 	C 	0.60770 0.07320 0.87280 0.09500
C 	C 	0.65740 0.09400 0.84990 -0.14200
C 	C 	0.74830 0.07120 0.90210 0.07800
C 	C 	0.79990 0.09310 0.87930 -0.14300
C 	C 	0.75480 0.10280 0.85280 0.08600
C 	C 	0.81050 0.12620 0.82720 0.09400
C 	C 	0.19630 0.17830 0.84420 0.04300
C 	C 	0.09700 0.16460 0.84070 -0.10800
C 	C 	0.19570 0.20440 0.79290 0.06600
C 	C 	0.10230 0.19040 0.78780 -0.11700
C 	C 	0.05080 0.17070 0.81360 0.04200
C 	C 	0.94600 0.15910 0.80880 0.09200
C 	C 	0.84800 0.16310 0.16570 0.06500
C 	C 	0.83530 0.12200 0.14990 -0.11900
C 	C 	0.81470 0.20570 0.12230 0.08400
C 	C 	0.79950 0.16500 0.10550 -0.12600
C 	C 	0.81380 0.12090 0.11970 0.05800
C 	C 	0.79720 0.07680 0.10270 0.10200
C 	C 	0.64560 0.07430 0.98670 0.05100
C 	C 	0.69280 0.07860 0.01440 -0.11000
C 	C 	0.68150 0.99340 0.98310 0.05700
C 	C 	0.72500 0.99520 0.01270 -0.10900
C 	C 	0.72560 0.03720 0.02870 0.04700
C 	C 	0.75890 0.03740 0.06020 0.10100
C 	C 	0.81530 0.86510 0.11330 0.06100
C 	C 	0.80240 0.90940 0.10000 -0.12500
C 	C 	0.85500 0.90130 0.15850 0.06900
C 	C 	0.83990 0.94560 0.14610 -0.12900
C 	C 	0.81060 0.95000 0.11680 0.06000
C 	C 	0.79870 0.99690 0.10170 0.10300
C 	C 	0.73580 0.79150 0.20430 0.07700
C 	C 	0.68590 0.80360 0.22980 -0.13200
C 	C 	0.88230 0.81650 0.22440 0.05500
C 	C 	0.83710 0.82810 0.25220 -0.11600
C 	C 	0.73920 0.82220 0.25420 0.05700
C 	C 	0.68940 0.83700 0.28160 0.09100
C 	C 	0.89230 0.92680 0.37280 0.09400
C 	C 	0.84260 0.90600 0.34990 -0.14200
C 	C 	0.75170 0.92880 0.40210 0.07800
C 	C 	0.70010 0.90690 0.37930 -0.14300
C 	C 	0.74520 0.89720 0.35280 0.08600
C 	C 	0.68950 0.87380 0.32720 0.09400
C 	C 	0.30370 0.82170 0.34420 0.04300
C 	C 	0.40300 0.83540 0.34070 -0.10900
C 	C 	0.30430 0.79560 0.29290 0.06600
C 	C 	0.39770 0.80960 0.28780 -0.11700
C 	C 	0.44920 0.82930 0.31360 0.04300
C 	C 	0.55400 0.84090 0.30880 0.09100
C 	C 	0.65200 0.83690 0.66570 0.06500
C 	C 	0.66470 0.87800 0.64990 -0.11900
C 	C 	0.68530 0.79430 0.62230 0.08400
C 	C 	0.70050 0.83500 0.60550 -0.12600
C 	C 	0.68620 0.87910 0.61970 0.05800
C 	C 	0.70280 0.92320 0.60270 0.10100
C 	C 	0.85440 0.92570 0.48670 0.05100
C 	C 	0.80720 0.92140 0.51440 -0.11000
C 	C 	0.81850 0.00660 0.48310 0.05700
C 	C 	0.77500 0.00480 0.51270 -0.10800
C 	C 	0.77440 0.96280 0.52870 0.04600
C 	C 	0.74110 0.96260 0.56020 0.10000
C 	C 	0.68470 0.13490 0.61330 0.06100
C 	C 	0.69760 0.09060 0.60000 -0.12500
C 	C 	0.64500 0.09870 0.65850 0.06800
C 	C 	0.66010 0.05440 0.64610 -0.12900
C 	C 	0.68940 0.05000 0.61680 0.06000
C 	C 	0.70130 0.00310 0.60170 0.10400
C 	C 	0.23580 0.70850 0.79570 0.07700
C 	C 	0.18590 0.69640 0.77020 -0.13200
C 	C 	0.38230 0.68350 0.77560 0.05500
C 	C 	0.33710 0.67190 0.74780 -0.11600
C 	C 	0.23920 0.67780 0.74580 0.05700
C 	C 	0.18940 0.66300 0.71840 0.09100
C 	C 	0.39230 0.57320 0.62720 0.09400
C 	C 	0.34260 0.59400 0.65010 -0.14200
C 	C 	0.25170 0.57120 0.59790 0.07800
C 	C 	0.20010 0.59310 0.62070 -0.14300
C 	C 	0.24520 0.60280 0.64720 0.08600
C 	C 	0.18950 0.62620 0.67280 0.09400
C 	C 	0.80370 0.67830 0.65580 0.04300
C 	C 	0.90300 0.66460 0.65930 -0.10800
C 	C 	0.80430 0.70440 0.70710 0.06600
C 	C 	0.89770 0.69040 0.71220 -0.11700
C 	C 	0.94920 0.67070 0.68640 0.04200
C 	C 	0.05400 0.65910 0.69120 0.09200
C 	C 	0.15200 0.66310 0.33430 0.06500
C 	C 	0.16470 0.62200 0.35010 -0.11900
C 	C 	0.18530 0.70570 0.37770 0.08400
C 	C 	0.20050 0.66500 0.39450 -0.12600
C 	C 	0.18620 0.62090 0.38030 0.05800
C 	C 	0.20280 0.57680 0.39730 0.10200
C 	C 	0.35440 0.57430 0.51330 0.05100
C 	C 	0.30720 0.57860 0.48560 -0.11000
C 	C 	0.31850 0.49340 0.51690 0.05600
C 	C 	0.27500 0.49520 0.48730 -0.10900
C 	C 	0.27440 0.53720 0.47130 0.04700
C 	C 	0.24110 0.53740 0.43980 0.10000
C 	C 	0.18470 0.36510 0.38670 0.06100
C 	C 	0.19760 0.40940 0.40000 -0.12500
C 	C 	0.14500 0.40130 0.34150 0.06900
C 	C 	0.16010 0.44560 0.35390 -0.12900
C 	C 	0.18940 0.45000 0.38320 0.06000
C 	C 	0.20130 0.49690 0.39830 0.10300
C 	C 	0.26420 0.29150 0.29570 0.07700
C 	C 	0.31410 0.30360 0.27020 -0.13200
C 	C 	0.11770 0.31650 0.27560 0.05500
C 	C 	0.16290 0.32810 0.24780 -0.11600
C 	C 	0.26080 0.32220 0.24580 0.05700
C 	C 	0.31060 0.33700 0.21840 0.09100
C 	C 	0.10770 0.42680 0.12720 0.09400
C 	C 	0.15740 0.40600 0.15010 -0.14200
C 	C 	0.24830 0.42880 0.09790 0.07800
C 	C 	0.29990 0.40690 0.12070 -0.14300
C 	C 	0.25480 0.39720 0.14720 0.08600
C 	C 	0.31050 0.37380 0.17280 0.09400
C 	C 	0.69630 0.32170 0.15580 0.04300
C 	C 	0.59700 0.33540 0.15930 -0.10900
C 	C 	0.69570 0.29560 0.20710 0.06600
C 	C 	0.60230 0.30960 0.21220 -0.11700
C 	C 	0.55080 0.32930 0.18640 0.04300
C 	C 	0.44600 0.34090 0.19120 0.09100
C 	C 	0.34800 0.33690 0.83430 0.06500
C 	C 	0.33530 0.37800 0.85010 -0.11900
C 	C 	0.31470 0.29430 0.87770 0.08400
C 	C 	0.29950 0.33500 0.89450 -0.12600
C 	C 	0.31380 0.37910 0.88030 0.05800
C 	C 	0.29720 0.42320 0.89730 0.10100
C 	C 	0.14560 0.42570 0.01330 0.05100
C 	C 	0.19280 0.42140 0.98560 -0.11000
C 	C 	0.18150 0.50660 0.01690 0.05600
C 	C 	0.22500 0.50480 0.98730 -0.10900
C 	C 	0.22560 0.46280 0.97130 0.04700
C 	C 	0.25890 0.46260 0.93980 0.10000
C 	C 	0.31530 0.63490 0.88670 0.06100
C 	C 	0.30240 0.59060 0.90000 -0.12500
C 	C 	0.35500 0.59870 0.84150 0.06800
C 	C 	0.33990 0.55440 0.85390 -0.12900
C 	C 	0.31060 0.55000 0.88320 0.06000
C 	C 	0.29870 0.50310 0.89830 0.10300
I 	I 	0.56639 0.94079 0.91446 -0.36800
I 	I 	0.41093 0.07220 0.93703 -0.36800
I 	I 	0.43908 0.25029 0.77458 -0.39300
I 	I 	0.46579 0.18186 0.86497 -0.37000
I 	I 	0.42716 0.20194 0.66158 -0.38000
I 	I 	0.69979 0.26725 0.62747 -0.36600
I 	I 	0.93361 0.05921 0.41446 -0.36800
I 	I 	0.08907 0.92780 0.43703 -0.36600
I 	I 	0.06092 0.74971 0.27458 -0.39300
I 	I 	0.03421 0.81814 0.36497 -0.36900
I 	I 	0.07284 0.79806 0.16158 -0.38000
I 	I 	0.80021 0.73275 0.12747 -0.36600
I 	I 	0.43361 0.44079 0.58554 -0.36800
I 	I 	0.58907 0.57220 0.56297 -0.36800
I 	I 	0.56092 0.75029 0.72542 -0.39300
I 	I 	0.53421 0.68186 0.63503 -0.37000
I 	I 	0.57284 0.70194 0.83842 -0.38000
I 	I 	0.30021 0.76725 0.87253 -0.36600
I 	I 	0.06639 0.55921 0.08554 -0.36900
I 	I 	0.91093 0.42780 0.06297 -0.36700
I 	I 	0.93908 0.24971 0.22542 -0.39300
I 	I 	0.96579 0.31814 0.13503 -0.37000
I 	I 	0.92716 0.29806 0.33842 -0.38000
I 	I 	0.19979 0.23275 0.37253 -0.36600
N 	N 	0.66910 0.20110 0.70040 -0.27200
N 	N 	0.65090 0.06260 0.89870 -0.27400
N 	N 	0.24170 0.19940 0.81980 -0.26400
N 	N 	0.75730 0.13990 0.80270 -0.13500
N 	N 	0.90440 0.13290 0.83130 -0.13300
N 	N 	0.90390 0.17400 0.78400 -0.14400
N 	N 	0.83830 0.20580 0.15130 -0.26900
N 	N 	0.64650 0.03250 0.97070 -0.26900
N 	N 	0.84770 0.86020 0.14200 -0.27500
N 	N 	0.77110 0.08080 0.07410 -0.13800
N 	N 	0.77310 0.99560 0.07270 -0.14100
N 	N 	0.81100 0.03580 0.11750 -0.14100
N 	N 	0.83090 0.79890 0.20040 -0.27200
N 	N 	0.84910 0.93740 0.39870 -0.27400
N 	N 	0.25830 0.80060 0.31980 -0.26400
N 	N 	0.74270 0.86010 0.30270 -0.13500
N 	N 	0.59560 0.86710 0.33130 -0.13300
N 	N 	0.59610 0.82600 0.28400 -0.14400
N 	N 	0.66170 0.79420 0.65130 -0.26900
N 	N 	0.85350 0.96750 0.47070 -0.26900
N 	N 	0.65230 0.13980 0.64200 -0.27500
N 	N 	0.72890 0.91920 0.57410 -0.13800
N 	N 	0.72690 0.00440 0.57270 -0.14100
N 	N 	0.68900 0.96420 0.61750 -0.14100
N 	N 	0.33090 0.70110 0.79960 -0.27200
N 	N 	0.34910 0.56260 0.60130 -0.27400
N 	N 	0.75830 0.69940 0.68020 -0.26400
N 	N 	0.24270 0.63990 0.69730 -0.13500
N 	N 	0.09560 0.63290 0.66870 -0.13300
N 	N 	0.09610 0.67400 0.71600 -0.14400
N 	N 	0.16170 0.70580 0.34870 -0.26900
N 	N 	0.35350 0.53250 0.52930 -0.26900
N 	N 	0.15230 0.36020 0.35800 -0.27500
N 	N 	0.22890 0.58080 0.42590 -0.13800
N 	N 	0.22690 0.49560 0.42730 -0.14100
N 	N 	0.18900 0.53580 0.38250 -0.14100
N 	N 	0.16910 0.29890 0.29960 -0.27200
N 	N 	0.15090 0.43740 0.10130 -0.27400
N 	N 	0.74170 0.30060 0.18020 -0.26400
N 	N 	0.25730 0.36010 0.19730 -0.13500
N 	N 	0.40440 0.36710 0.16870 -0.13300
N 	N 	0.40390 0.32600 0.21600 -0.14400
N 	N 	0.33830 0.29420 0.84870 -0.26900
N 	N 	0.14650 0.46750 0.02930 -0.26900
N 	N 	0.34770 0.63980 0.85800 -0.27500
N 	N 	0.27110 0.41920 0.92590 -0.13800
N 	N 	0.27310 0.50440 0.92730 -0.14100
N 	N 	0.31100 0.46420 0.88250 -0.14100
Zn	Zn	0.56117 0.49721 0.06972 1.16300
Zn	Zn	0.88741 0.30290 0.83274 1.16300
Zn	Zn	0.86713 0.77923 0.84775 1.16300
Zn	Zn	0.93883 0.50279 0.56972 1.16300
Zn	Zn	0.61259 0.69710 0.33274 1.16200
Zn	Zn	0.63287 0.22077 0.34775 1.16300
Zn	Zn	0.43883 0.99721 0.43028 1.16300
Zn	Zn	0.11259 0.80290 0.66726 1.16300
Zn	Zn	0.13287 0.27923 0.65225 1.16300
Zn	Zn	0.06117 0.00279 0.93028 1.16300
Zn	Zn	0.38741 0.19710 0.16726 1.16200
Zn	Zn	0.36713 0.72077 0.15225 1.16300
H 	H 	0.82740 0.33920 0.89180 -0.02400
H 	H 	0.78590 0.40600 0.91580 0.09100
H 	H 	0.87100 0.40820 0.81750 -0.02100
H 	H 	0.84170 0.48020 0.84150 0.08700
H 	H 	0.87130 0.67670 0.82750 -0.00900
H 	H 	0.84900 0.60020 0.84810 0.08100
H 	H 	0.79200 0.73470 0.90280 -0.02000
H 	H 	0.76220 0.66250 0.92450 0.08700
H 	H 	0.61560 0.57880 0.02850 -0.01400
H 	H 	0.68410 0.59060 0.98420 0.09300
H 	H 	0.69250 0.44560 0.02520 -0.01100
H 	H 	0.75270 0.45570 0.97820 0.09800
H 	H 	0.76640 0.51490 0.08470 -0.02000
H 	H 	0.86200 0.55240 0.12040 0.09000
H 	H 	0.53310 0.57140 0.11600 -0.01800
H 	H 	0.61830 0.60870 0.15390 0.08800
H 	H 	0.55400 0.66700 0.27000 -0.01600
H 	H 	0.62890 0.64950 0.22490 0.09600
H 	H 	0.79780 0.72250 0.29920 -0.01000
H 	H 	0.88050 0.69860 0.25470 0.09900
H 	H 	0.23970 0.70060 0.20510 -0.01400
H 	H 	0.07960 0.67820 0.21760 0.09800
H 	H 	0.19830 0.67870 0.12010 -0.01300
H 	H 	0.04490 0.65340 0.12770 0.10600
H 	H 	0.67260 0.66080 0.39180 -0.02400
H 	H 	0.71410 0.59400 0.41580 0.09000
H 	H 	0.62900 0.59180 0.31750 -0.02100
H 	H 	0.65830 0.51980 0.34150 0.08700
H 	H 	0.62870 0.32330 0.32750 -0.00900
H 	H 	0.65100 0.39980 0.34810 0.08100
H 	H 	0.70800 0.26530 0.40280 -0.02100
H 	H 	0.73780 0.33750 0.42450 0.08700
H 	H 	0.88440 0.42120 0.52850 -0.01400
H 	H 	0.81590 0.40940 0.48420 0.09300
H 	H 	0.80750 0.55440 0.52520 -0.01100
H 	H 	0.74730 0.54430 0.47820 0.09700
H 	H 	0.73360 0.48510 0.58470 -0.02000
H 	H 	0.63800 0.44760 0.62040 0.09000
H 	H 	0.96690 0.42860 0.61600 -0.01900
H 	H 	0.88170 0.39130 0.65390 0.08800
H 	H 	0.94600 0.33300 0.77000 -0.01600
H 	H 	0.87110 0.35050 0.72490 0.09600
H 	H 	0.70220 0.27750 0.79920 -0.01000
H 	H 	0.61950 0.30140 0.75470 0.09900
H 	H 	0.26030 0.29940 0.70510 -0.01400
H 	H 	0.42040 0.32180 0.71760 0.09800
H 	H 	0.30170 0.32130 0.62010 -0.01300
H 	H 	0.45510 0.34660 0.62770 0.10600
H 	H 	0.17260 0.83920 0.60820 -0.02400
H 	H 	0.21410 0.90600 0.58420 0.09100
H 	H 	0.12900 0.90820 0.68250 -0.02100
H 	H 	0.15830 0.98020 0.65850 0.08700
H 	H 	0.12870 0.17670 0.67250 -0.00900
H 	H 	0.15100 0.10020 0.65190 0.08100
H 	H 	0.20800 0.23470 0.59720 -0.02000
H 	H 	0.23780 0.16250 0.57550 0.08700
H 	H 	0.38440 0.07880 0.47150 -0.01400
H 	H 	0.31590 0.09060 0.51580 0.09300
H 	H 	0.30750 0.94560 0.47480 -0.01100
H 	H 	0.24730 0.95570 0.52180 0.09800
H 	H 	0.23360 0.01490 0.41530 -0.02000
H 	H 	0.13800 0.05240 0.37960 0.09000
H 	H 	0.46690 0.07140 0.38400 -0.01800
H 	H 	0.38170 0.10870 0.34610 0.08800
H 	H 	0.44600 0.16700 0.23000 -0.01600
H 	H 	0.37110 0.14950 0.27510 0.09600
H 	H 	0.20220 0.22250 0.20080 -0.01000
H 	H 	0.11950 0.19860 0.24530 0.09900
H 	H 	0.76030 0.20060 0.29490 -0.01400
H 	H 	0.92040 0.17820 0.28240 0.09800
H 	H 	0.80170 0.17870 0.37990 -0.01300
H 	H 	0.95510 0.15340 0.37230 0.10600
H 	H 	0.32740 0.16080 0.10820 -0.02400
H 	H 	0.28590 0.09400 0.08420 0.09000
H 	H 	0.37100 0.09180 0.18250 -0.02100
H 	H 	0.34170 0.01980 0.15850 0.08700
H 	H 	0.37130 0.82330 0.17250 -0.00900
H 	H 	0.34900 0.89980 0.15190 0.08100
H 	H 	0.29200 0.76530 0.09720 -0.02100
H 	H 	0.26220 0.83750 0.07550 0.08700
H 	H 	0.11560 0.92120 0.97150 -0.01400
H 	H 	0.18410 0.90940 0.01580 0.09300
H 	H 	0.19250 0.05440 0.97480 -0.01100
H 	H 	0.25270 0.04430 0.02180 0.09800
H 	H 	0.26640 0.98510 0.91530 -0.02000
H 	H 	0.36200 0.94760 0.87960 0.09000
H 	H 	0.03310 0.92860 0.88400 -0.01900
H 	H 	0.11830 0.89130 0.84610 0.08800
H 	H 	0.05400 0.83300 0.73000 -0.01600
H 	H 	0.12890 0.85050 0.77510 0.09600
H 	H 	0.29780 0.77750 0.70080 -0.01000
H 	H 	0.38050 0.80140 0.74530 0.09900
H 	H 	0.73970 0.79940 0.79490 -0.01400
H 	H 	0.57960 0.82180 0.78240 0.09800
H 	H 	0.69830 0.82130 0.87990 -0.01300
H 	H 	0.54490 0.84660 0.87230 0.10600
C 	C 	0.82690 0.36760 0.88110 0.09000
C 	C 	0.80610 0.40770 0.89580 -0.14400
C 	C 	0.85400 0.40810 0.83780 0.08200
C 	C 	0.83710 0.45200 0.85220 -0.13900
C 	C 	0.81400 0.45230 0.88190 0.06800
C 	C 	0.79710 0.49690 0.90010 0.10500
C 	C 	0.84910 0.67350 0.84720 0.06400
C 	C 	0.83540 0.62690 0.85960 -0.11400
C 	C 	0.80180 0.70750 0.89130 0.09200
C 	C 	0.78490 0.66380 0.90470 -0.12900
C 	C 	0.80150 0.62210 0.88900 0.05600
C 	C 	0.79620 0.57490 0.90270 0.10700
C 	C 	0.64320 0.55330 0.01830 0.08500
C 	C 	0.68240 0.56000 0.99200 -0.15100
C 	C 	0.68660 0.47530 0.01620 0.09900
C 	C 	0.72470 0.48130 0.98810 -0.16000
C 	C 	0.72220 0.52310 0.97500 0.08100
C 	C 	0.75700 0.53060 0.94310 0.10200
C 	C 	0.73730 0.53360 0.09950 0.08500
C 	C 	0.79540 0.55710 0.12000 -0.13800
C 	C 	0.59920 0.56630 0.11780 0.09400
C 	C 	0.65090 0.59060 0.13960 -0.13900
C 	C 	0.75000 0.58820 0.14030 0.07500
C 	C 	0.80690 0.61640 0.16420 0.10800
C 	C 	0.61940 0.67360 0.26750 0.09300
C 	C 	0.66460 0.66250 0.24060 -0.14600
C 	C 	0.76500 0.70540 0.28450 0.05800
C 	C 	0.81510 0.69230 0.25760 -0.13900
C 	C 	0.76190 0.67040 0.23700 0.07700
C 	C 	0.81200 0.65320 0.20820 0.09800
C 	C 	0.19870 0.69140 0.18950 0.09100
C 	C 	0.10230 0.67740 0.19780 -0.13500
C 	C 	0.17450 0.67810 0.13980 0.08800
C 	C 	0.08220 0.66310 0.14400 -0.14700
C 	C 	0.04440 0.66220 0.17280 0.06200
C 	C 	0.94670 0.64900 0.17860 0.08100
C 	C 	0.67310 0.63240 0.38110 0.09000
C 	C 	0.69390 0.59230 0.39580 -0.14400
C 	C 	0.64600 0.59190 0.33780 0.08200
C 	C 	0.66290 0.54800 0.35220 -0.13900
C 	C 	0.68600 0.54770 0.38190 0.06800
C 	C 	0.70290 0.50310 0.40010 0.10500
C 	C 	0.65090 0.32650 0.34720 0.06400
C 	C 	0.66460 0.37310 0.35960 -0.11400
C 	C 	0.69820 0.29250 0.39130 0.09200
C 	C 	0.71510 0.33620 0.40470 -0.12900
C 	C 	0.69850 0.37790 0.38900 0.05600
C 	C 	0.70380 0.42510 0.40270 0.10600
C 	C 	0.85680 0.44670 0.51830 0.08500
C 	C 	0.81760 0.44000 0.49200 -0.15100
C 	C 	0.81340 0.52470 0.51620 0.09900
C 	C 	0.77530 0.51870 0.48810 -0.16000
C 	C 	0.77780 0.47690 0.47500 0.08100
C 	C 	0.74300 0.46940 0.44310 0.10200
C 	C 	0.76270 0.46640 0.59950 0.08500
C 	C 	0.70460 0.44290 0.62000 -0.13800
C 	C 	0.90080 0.43370 0.61780 0.09400
C 	C 	0.84910 0.40940 0.63960 -0.13900
C 	C 	0.75000 0.41180 0.64030 0.07400
C 	C 	0.69310 0.38360 0.66420 0.10800
C 	C 	0.88060 0.32640 0.76750 0.09300
C 	C 	0.83540 0.33750 0.74060 -0.14600
C 	C 	0.73500 0.29460 0.78450 0.05800
C 	C 	0.68490 0.30770 0.75760 -0.13900
C 	C 	0.73810 0.32960 0.73700 0.07700
C 	C 	0.68800 0.34680 0.70820 0.09800
C 	C 	0.30130 0.30860 0.68950 0.09200
C 	C 	0.39770 0.32260 0.69780 -0.13500
C 	C 	0.32550 0.32190 0.63980 0.08800
C 	C 	0.41780 0.33690 0.64400 -0.14700
C 	C 	0.45560 0.33780 0.67280 0.06300
C 	C 	0.55330 0.35100 0.67860 0.08100
C 	C 	0.17310 0.86760 0.61890 0.09000
C 	C 	0.19390 0.90770 0.60420 -0.14400
C 	C 	0.14600 0.90810 0.66220 0.08200
C 	C 	0.16290 0.95200 0.64780 -0.13900
C 	C 	0.18600 0.95230 0.61810 0.06800
C 	C 	0.20290 0.99690 0.59990 0.10600
C 	C 	0.15090 0.17350 0.65280 0.06400
C 	C 	0.16460 0.12690 0.64040 -0.11400
C 	C 	0.19820 0.20750 0.60870 0.09200
C 	C 	0.21510 0.16380 0.59530 -0.12900
C 	C 	0.19850 0.12210 0.61100 0.05600
C 	C 	0.20380 0.07490 0.59730 0.10700
C 	C 	0.35680 0.05330 0.48170 0.08500
C 	C 	0.31760 0.06000 0.50800 -0.15100
C 	C 	0.31340 0.97530 0.48380 0.09900
C 	C 	0.27530 0.98130 0.51190 -0.16000
C 	C 	0.27780 0.02310 0.52500 0.08100
C 	C 	0.24300 0.03060 0.55690 0.10200
C 	C 	0.26270 0.03360 0.40050 0.08500
C 	C 	0.20460 0.05710 0.38000 -0.13800
C 	C 	0.40080 0.06630 0.38220 0.09400
C 	C 	0.34910 0.09060 0.36040 -0.13900
C 	C 	0.25000 0.08820 0.35970 0.07500
C 	C 	0.19310 0.11640 0.33580 0.10800
C 	C 	0.38060 0.17360 0.23250 0.09300
C 	C 	0.33540 0.16250 0.25940 -0.14600
C 	C 	0.23500 0.20540 0.21550 0.05800
C 	C 	0.18490 0.19230 0.24240 -0.13900
C 	C 	0.23810 0.17040 0.26300 0.07700
C 	C 	0.18800 0.15320 0.29180 0.09800
C 	C 	0.80130 0.19140 0.31050 0.09200
C 	C 	0.89770 0.17740 0.30220 -0.13500
C 	C 	0.82550 0.17810 0.36020 0.08800
C 	C 	0.91780 0.16310 0.35600 -0.14700
C 	C 	0.95560 0.16220 0.32720 0.06300
C 	C 	0.05330 0.14900 0.32140 0.08100
C 	C 	0.32690 0.13240 0.11890 0.09000
C 	C 	0.30610 0.09230 0.10420 -0.14400
C 	C 	0.35400 0.09190 0.16220 0.08200
C 	C 	0.33710 0.04800 0.14780 -0.13900
C 	C 	0.31400 0.04770 0.11810 0.06800
C 	C 	0.29710 0.00310 0.09990 0.10500
C 	C 	0.34910 0.82650 0.15280 0.06400
C 	C 	0.33540 0.87310 0.14040 -0.11400
C 	C 	0.30180 0.79250 0.10870 0.09200
C 	C 	0.28490 0.83620 0.09530 -0.12900
C 	C 	0.30150 0.87790 0.11100 0.05600
C 	C 	0.29620 0.92510 0.09730 0.10700
C 	C 	0.14320 0.94670 0.98170 0.08500
C 	C 	0.18240 0.94000 0.00800 -0.15100
C 	C 	0.18660 0.02470 0.98380 0.09800
C 	C 	0.22470 0.01870 0.01190 -0.16000
C 	C 	0.22220 0.97690 0.02500 0.08100
C 	C 	0.25700 0.96940 0.05690 0.10200
C 	C 	0.23730 0.96640 0.90050 0.08500
C 	C 	0.29540 0.94290 0.88000 -0.13800
C 	C 	0.09920 0.93370 0.88220 0.09400
C 	C 	0.15090 0.90940 0.86040 -0.13900
C 	C 	0.25000 0.91180 0.85970 0.07500
C 	C 	0.30690 0.88360 0.83580 0.10800
C 	C 	0.11940 0.82640 0.73250 0.09300
C 	C 	0.16460 0.83750 0.75940 -0.14600
C 	C 	0.26500 0.79460 0.71550 0.05800
C 	C 	0.31510 0.80770 0.74240 -0.13900
C 	C 	0.26190 0.82960 0.76300 0.07700
C 	C 	0.31200 0.84680 0.79180 0.09800
C 	C 	0.69870 0.80860 0.81050 0.09200
C 	C 	0.60230 0.82260 0.80220 -0.13500
C 	C 	0.67450 0.82190 0.86020 0.08800
C 	C 	0.58220 0.83690 0.85600 -0.14700
C 	C 	0.54440 0.83780 0.82720 0.06300
C 	C 	0.44670 0.85100 0.82140 0.08100
I 	I 	0.56918 0.40850 0.08142 -0.37300
I 	I 	0.39882 0.53788 0.06212 -0.37800
I 	I 	0.07285 0.30682 0.82879 -0.37600
I 	I 	0.80359 0.23811 0.86262 -0.36300
I 	I 	0.95791 0.77144 0.79755 -0.38800
I 	I 	0.93941 0.82253 0.89320 -0.35900
I 	I 	0.93082 0.59150 0.58142 -0.37400
I 	I 	0.10118 0.46212 0.56212 -0.37700
I 	I 	0.42715 0.69318 0.32879 -0.37600
I 	I 	0.69641 0.76189 0.36262 -0.36400
I 	I 	0.54209 0.22856 0.29755 -0.38800
I 	I 	0.56059 0.17747 0.39320 -0.36000
I 	I 	0.43082 0.90850 0.41858 -0.37300
I 	I 	0.60118 0.03788 0.43788 -0.37700
I 	I 	0.92715 0.80682 0.67121 -0.37600
I 	I 	0.19641 0.73811 0.63738 -0.36300
I 	I 	0.04209 0.27144 0.70245 -0.38800
I 	I 	0.06059 0.32253 0.60680 -0.35900
I 	I 	0.06918 0.09150 0.91858 -0.37400
I 	I 	0.89882 0.96212 0.93788 -0.37700
I 	I 	0.57285 0.19318 0.17121 -0.37600
I 	I 	0.30359 0.26189 0.13738 -0.36400
I 	I 	0.45791 0.72856 0.20245 -0.38800
I 	I 	0.43941 0.67747 0.10680 -0.36000
N 	N 	0.84660 0.36660 0.85200 -0.28200
N 	N 	0.83050 0.71260 0.86360 -0.27200
N 	N 	0.64200 0.50890 0.03130 -0.28000
N 	N 	0.80950 0.53830 0.88580 -0.14400
N 	N 	0.76830 0.57330 0.93190 -0.14100
N 	N 	0.77190 0.49180 0.92790 -0.14600
N 	N 	0.64140 0.53660 0.10010 -0.28200
N 	N 	0.66810 0.69340 0.28930 -0.27400
N 	N 	0.23410 0.69250 0.16230 -0.28000
N 	N 	0.75870 0.63100 0.18810 -0.14200
N 	N 	0.90290 0.66490 0.20520 -0.14100
N 	N 	0.89910 0.62280 0.15880 -0.13200
N 	N 	0.65340 0.63340 0.35200 -0.28300
N 	N 	0.66950 0.28740 0.36360 -0.27200
N 	N 	0.85800 0.49110 0.53130 -0.28100
N 	N 	0.69050 0.46170 0.38580 -0.14400
N 	N 	0.73170 0.42670 0.43190 -0.14100
N 	N 	0.72810 0.50820 0.42790 -0.14600
N 	N 	0.85860 0.46340 0.60010 -0.28200
N 	N 	0.83190 0.30660 0.78930 -0.27400
N 	N 	0.26590 0.30750 0.66230 -0.28000
N 	N 	0.74130 0.36900 0.68810 -0.14200
N 	N 	0.59710 0.33510 0.70520 -0.14100
N 	N 	0.60090 0.37720 0.65880 -0.13200
N 	N 	0.15340 0.86660 0.64800 -0.28200
N 	N 	0.16950 0.21260 0.63640 -0.27200
N 	N 	0.35800 0.00890 0.46870 -0.28000
N 	N 	0.19050 0.03830 0.61420 -0.14400
N 	N 	0.23170 0.07330 0.56810 -0.14100
N 	N 	0.22810 0.99180 0.57210 -0.14600
N 	N 	0.35860 0.03660 0.39990 -0.28200
N 	N 	0.33190 0.19340 0.21070 -0.27400
N 	N 	0.76590 0.19250 0.33770 -0.28000
N 	N 	0.24130 0.13100 0.31190 -0.14200
N 	N 	0.09710 0.16490 0.29480 -0.14100
N 	N 	0.10090 0.12280 0.34120 -0.13200
N 	N 	0.34660 0.13340 0.14800 -0.28300
N 	N 	0.33050 0.78740 0.13640 -0.27200
N 	N 	0.14200 0.99110 0.96870 -0.28000
N 	N 	0.30950 0.96170 0.11420 -0.14400
N 	N 	0.26830 0.92670 0.06810 -0.14100
N 	N 	0.27190 0.00820 0.07210 -0.14600
N 	N 	0.14140 0.96340 0.89990 -0.28200
N 	N 	0.16810 0.80660 0.71070 -0.27400
N 	N 	0.73410 0.80750 0.83770 -0.28000
N 	N 	0.25870 0.86900 0.81190 -0.14200
N 	N 	0.40290 0.83510 0.79480 -0.14100
N 	N 	0.39910 0.87720 0.84120 -0.13200
