data_crystal

_cell_length_a 28.01200
_cell_length_b 13.78730
_cell_length_c 45.38800
_cell_angle_alpha 90.00000
_cell_angle_beta  90.00000
_cell_angle_gamma 90.00000

_symmetry_space_group_name_	'P 1'
_symmetry_space_group_name_H-M	'P 1'

loop_
_symmetry_equiv_pos_as_xyz
  x,y,z

loop_
_atom_site_label
_atom_site_type_symbol
_atom_site_fract_x
_atom_site_fract_y
_atom_site_fract_z
_atom_site_charge
Zn	Zn	0.75855 0.14902 0.31193 1.15800
Zn	Zn	0.94373 0.15501 0.57251 1.15800
Zn	Zn	0.97287 0.35557 0.41418 1.16700
I 	I 	0.00974 0.07314 0.60115 -0.48000
I 	I 	0.99062 0.28193 0.46452 -0.39300
I 	I 	0.80195 0.31041 0.30570 -0.04700
I 	I 	0.93805 0.33633 0.56141 -0.40500
I 	I 	0.92404 0.27347 0.37454 -0.26500
I 	I 	0.67112 0.14545 0.32623 -0.43300
C 	C 	0.92340 0.53820 0.39882 0.03600
H 	H 	0.92060 0.50650 0.38030 0.12200
C 	C 	0.90610 0.63130 0.40168 -0.07100
H 	H 	0.89180 0.66310 0.38540 0.08900
C 	C 	0.94630 0.53570 0.44718 0.06500
H 	H 	0.95950 0.50150 0.46340 -0.00000
C 	C 	0.93050 0.62960 0.45158 -0.10700
H 	H 	0.93390 0.65990 0.47030 0.08200
C 	C 	0.90990 0.67810 0.42839 0.03000
C 	C 	0.89440 0.78050 0.43183 0.10300
C 	C 	0.94680 0.99130 0.53044 0.07000
H 	H 	0.96520 0.96340 0.54580 -0.01200
C 	C 	0.93560 0.93400 0.50612 -0.12100
H 	H 	0.94610 0.86870 0.50480 0.08800
C 	C 	0.90780 0.12340 0.51123 0.06700
H 	H 	0.89830 0.18930 0.51310 -0.00800
C 	C 	0.89540 0.07360 0.48659 -0.11400
H 	H 	0.87790 0.10510 0.47140 0.07500
C 	C 	0.90820 0.97620 0.48349 0.04800
C 	C 	0.89460 0.91990 0.45743 0.10000
C 	C 	0.81800 0.11410 0.36374 0.05400
H 	H 	0.81840 0.18300 0.36370 -0.00400
C 	C 	0.83980 0.06650 0.38663 -0.12600
H 	H 	0.85460 0.10190 0.40210 0.08300
C 	C 	0.79680 0.97200 0.34201 0.06900
H 	H 	0.78150 0.93790 0.32650 -0.02400
C 	C 	0.81860 0.91900 0.36413 -0.14800
H 	H 	0.81860 0.85010 0.36350 0.08000
C 	C 	0.84010 0.96670 0.38681 0.05500
C 	C 	0.86200 0.91500 0.41178 0.09900
C 	C 	0.73070 0.03390 0.25972 0.05800
H 	H 	0.70080 0.03150 0.26960 -0.01100
C 	C 	0.73500 0.99470 0.23128 -0.11100
H 	H 	0.70810 0.96600 0.22190 0.07200
C 	C 	0.81010 0.07650 0.25965 0.08800
H 	H 	0.83660 0.10490 0.26950 0.05300
C 	C 	0.81640 0.03830 0.23138 -0.09700
H 	H 	0.84680 0.03990 0.22210 0.13100
C 	C 	0.77750 0.99800 0.21735 0.05700
C 	C 	0.78220 0.96340 0.18634 0.11600
C 	C 	0.95870 0.89850 0.13469 0.07800
H 	H 	0.98710 0.89640 0.14610 -0.01000
C 	C 	0.91580 0.91280 0.14938 -0.12300
H 	H 	0.91490 0.92170 0.17010 0.09300
C 	C 	0.92220 0.89040 0.08971 0.06800
H 	H 	0.92430 0.88370 0.06890 -0.00800
C 	C 	0.87800 0.90270 0.10244 -0.11700
H 	H 	0.85020 0.90360 0.09050 0.07900
C 	C 	0.87420 0.91370 0.13266 0.05900
C 	C 	0.82670 0.92670 0.14681 0.10700
C 	C 	0.66120 0.86780 0.08218 0.06700
H 	H 	0.66220 0.84810 0.06210 -0.02000
C 	C 	0.70390 0.88270 0.09676 -0.12000
H 	H 	0.73350 0.87440 0.08690 0.07700
C 	C 	0.61760 0.90780 0.12322 0.06600
H 	H 	0.58750 0.91740 0.13240 -0.06100
C 	C 	0.65820 0.92310 0.13937 -0.12900
H 	H 	0.65590 0.94240 0.15940 0.06900
C 	C 	0.70240 0.91040 0.12642 0.05300
C 	C 	0.74680 0.92460 0.14329 0.10300
N 	N 	0.94380 0.49090 0.42110 -0.25500
N 	N 	0.93300 0.08260 0.53315 -0.27200
N 	N 	0.79630 0.06870 0.34152 -0.28200
N 	N 	0.90670 0.82610 0.45639 -0.14400
N 	N 	0.87280 0.96840 0.43555 -0.13600
N 	N 	0.87120 0.82020 0.40890 -0.14000
N 	N 	0.76790 0.07420 0.27303 -0.27400
N 	N 	0.96240 0.88750 0.10572 -0.27000
N 	N 	0.61860 0.87970 0.09487 -0.28200
N 	N 	0.82600 0.95340 0.17522 -0.12800
N 	N 	0.78840 0.91230 0.12991 -0.13900
N 	N 	0.74160 0.95030 0.17186 -0.14200
Zn	Zn	0.74145 0.85098 0.81193 1.15900
Zn	Zn	0.55627 0.84499 0.07251 1.15800
Zn	Zn	0.52713 0.64443 0.91418 1.16800
I 	I 	0.49026 0.92686 0.10115 -0.48400
I 	I 	0.50938 0.71807 0.96452 -0.39200
I 	I 	0.69805 0.68959 0.80570 -0.02900
I 	I 	0.56195 0.66367 0.06141 -0.40500
I 	I 	0.57596 0.72653 0.87454 -0.25800
I 	I 	0.82888 0.85455 0.82623 -0.44200
C 	C 	0.57660 0.46180 0.89882 0.03500
H 	H 	0.57940 0.49350 0.88030 0.12900
C 	C 	0.59390 0.36870 0.90168 -0.06800
H 	H 	0.60820 0.33690 0.88540 0.08900
C 	C 	0.55370 0.46430 0.94718 0.06400
H 	H 	0.54050 0.49850 0.96340 -0.00000
C 	C 	0.56950 0.37040 0.95158 -0.10600
H 	H 	0.56610 0.34010 0.97030 0.08100
C 	C 	0.59010 0.32190 0.92839 0.02900
C 	C 	0.60560 0.21950 0.93183 0.10300
C 	C 	0.55320 0.00870 0.03044 0.07000
H 	H 	0.53480 0.03660 0.04580 -0.01200
C 	C 	0.56440 0.06600 0.00612 -0.12100
H 	H 	0.55390 0.13130 0.00480 0.08800
C 	C 	0.59220 0.87660 0.01123 0.06600
H 	H 	0.60170 0.81070 0.01310 -0.00800
C 	C 	0.60460 0.92640 0.98659 -0.11300
H 	H 	0.62210 0.89490 0.97140 0.07500
C 	C 	0.59180 0.02380 0.98349 0.04700
C 	C 	0.60540 0.08010 0.95743 0.10000
C 	C 	0.68200 0.88590 0.86374 0.05400
H 	H 	0.68160 0.81700 0.86370 -0.00300
C 	C 	0.66020 0.93350 0.88663 -0.12600
H 	H 	0.64540 0.89810 0.90210 0.08300
C 	C 	0.70320 0.02800 0.84201 0.06900
H 	H 	0.71850 0.06210 0.82650 -0.02400
C 	C 	0.68140 0.08100 0.86413 -0.14800
H 	H 	0.68140 0.14990 0.86350 0.08000
C 	C 	0.65990 0.03330 0.88681 0.05400
C 	C 	0.63800 0.08500 0.91178 0.09900
C 	C 	0.76930 0.96610 0.75972 0.06500
H 	H 	0.79920 0.96850 0.76960 -0.02600
C 	C 	0.76500 0.00530 0.73128 -0.12300
H 	H 	0.79190 0.03400 0.72190 0.08000
C 	C 	0.68990 0.92350 0.75965 0.09100
H 	H 	0.66340 0.89510 0.76950 0.05700
C 	C 	0.68360 0.96170 0.73138 -0.09900
H 	H 	0.65320 0.96010 0.72210 0.13200
C 	C 	0.72250 0.00200 0.71735 0.06200
C 	C 	0.71780 0.03660 0.68634 0.11500
C 	C 	0.54130 0.10150 0.63469 0.07900
H 	H 	0.51290 0.10360 0.64610 -0.01700
C 	C 	0.58420 0.08720 0.64938 -0.12500
H 	H 	0.58510 0.07830 0.67010 0.08900
C 	C 	0.57780 0.10960 0.58971 0.06800
H 	H 	0.57570 0.11630 0.56890 -0.00800
C 	C 	0.62200 0.09730 0.60244 -0.11700
H 	H 	0.64980 0.09640 0.59050 0.07900
C 	C 	0.62580 0.08630 0.63266 0.05900
C 	C 	0.67330 0.07330 0.64681 0.10700
C 	C 	0.83880 0.13220 0.58218 0.06800
H 	H 	0.83780 0.15190 0.56210 -0.02000
C 	C 	0.79610 0.11730 0.59676 -0.12200
H 	H 	0.76650 0.12560 0.58690 0.07700
C 	C 	0.88240 0.09220 0.62322 0.07000
H 	H 	0.91250 0.08260 0.63240 -0.05800
C 	C 	0.84180 0.07690 0.63937 -0.13400
H 	H 	0.84410 0.05760 0.65940 0.08200
C 	C 	0.79760 0.08960 0.62642 0.05700
C 	C 	0.75320 0.07540 0.64329 0.10300
N 	N 	0.55620 0.50910 0.92110 -0.25400
N 	N 	0.56700 0.91740 0.03315 -0.27200
N 	N 	0.70370 0.93130 0.84152 -0.28200
N 	N 	0.59330 0.17390 0.95639 -0.14400
N 	N 	0.62720 0.03160 0.93555 -0.13600
N 	N 	0.62880 0.17980 0.90890 -0.14000
N 	N 	0.73210 0.92580 0.77303 -0.27600
N 	N 	0.53760 0.11250 0.60572 -0.27100
N 	N 	0.88140 0.12030 0.59487 -0.28200
N 	N 	0.67400 0.04660 0.67522 -0.12900
N 	N 	0.71160 0.08770 0.62991 -0.13900
N 	N 	0.75840 0.04970 0.67186 -0.14000
Zn	Zn	0.24145 0.64902 0.18807 1.16400
Zn	Zn	0.05627 0.65501 0.92749 1.16300
Zn	Zn	0.02713 0.85557 0.08582 1.16400
I 	I 	0.99026 0.57314 0.89885 -0.37000
I 	I 	0.00938 0.78193 0.03548 -0.39100
I 	I 	0.19805 0.81041 0.19430 -0.40900
I 	I 	0.06195 0.83633 0.93859 -0.39300
I 	I 	0.07596 0.77347 0.12546 -0.37500
I 	I 	0.32888 0.64545 0.17377 -0.66100
C 	C 	0.07660 0.03820 0.10118 0.07200
H 	H 	0.07940 0.00650 0.11970 -0.00600
C 	C 	0.09390 0.13130 0.09832 -0.12500
H 	H 	0.10820 0.16310 0.11460 0.09100
C 	C 	0.05370 0.03570 0.05282 0.07400
H 	H 	0.04050 0.00150 0.03660 -0.00400
C 	C 	0.06950 0.12960 0.04842 -0.12500
H 	H 	0.06610 0.15990 0.02970 0.08700
C 	C 	0.09010 0.17810 0.07161 0.05400
C 	C 	0.10560 0.28050 0.06817 0.09600
C 	C 	0.05320 0.49130 0.96956 0.07000
H 	H 	0.03480 0.46340 0.95420 -0.01400
C 	C 	0.06440 0.43400 0.99388 -0.12200
H 	H 	0.05390 0.36870 0.99520 0.08800
C 	C 	0.09220 0.62340 0.98877 0.06700
H 	H 	0.10170 0.68930 0.98690 -0.00800
C 	C 	0.10460 0.57360 0.01341 -0.11400
H 	H 	0.12210 0.60510 0.02860 0.07600
C 	C 	0.09180 0.47620 0.01651 0.04700
C 	C 	0.10540 0.41990 0.04257 0.09900
C 	C 	0.18200 0.61410 0.13626 0.06600
H 	H 	0.18160 0.68300 0.13630 -0.00700
C 	C 	0.16020 0.56650 0.11337 -0.11700
H 	H 	0.14540 0.60190 0.09790 0.08700
C 	C 	0.20320 0.47200 0.15799 0.06900
H 	H 	0.21850 0.43790 0.17350 -0.02600
C 	C 	0.18140 0.41900 0.13587 -0.14400
H 	H 	0.18140 0.35010 0.13650 0.07600
C 	C 	0.15990 0.46670 0.11319 0.06100
C 	C 	0.13800 0.41500 0.08822 0.10200
C 	C 	0.26930 0.53390 0.24028 0.23600
H 	H 	0.29920 0.53150 0.23040 -0.37800
C 	C 	0.26500 0.49470 0.26872 -0.42300
H 	H 	0.29190 0.46600 0.27810 0.25000
C 	C 	0.18990 0.57650 0.24035 0.13800
H 	H 	0.16340 0.60490 0.23050 -0.05700
C 	C 	0.18360 0.53830 0.26862 -0.25200
H 	H 	0.15320 0.53990 0.27790 0.16300
C 	C 	0.22250 0.49800 0.28265 0.23400
C 	C 	0.21780 0.46340 0.31366 0.06200
C 	C 	0.04130 0.39850 0.36531 0.07000
H 	H 	0.01290 0.39640 0.35390 0.12800
C 	C 	0.08420 0.41280 0.35062 -0.09200
H 	H 	0.08510 0.42170 0.32990 0.17100
C 	C 	0.07780 0.39040 0.41029 0.06600
H 	H 	0.07570 0.38370 0.43110 -0.00600
C 	C 	0.12200 0.40270 0.39756 -0.11100
H 	H 	0.14980 0.40360 0.40950 0.07700
C 	C 	0.12580 0.41370 0.36734 0.05600
C 	C 	0.17330 0.42670 0.35319 0.11100
C 	C 	0.33880 0.36780 0.41782 0.10100
H 	H 	0.33780 0.34810 0.43790 -0.03000
C 	C 	0.29610 0.38270 0.40324 -0.17000
H 	H 	0.26650 0.37440 0.41310 0.09300
C 	C 	0.38240 0.40780 0.37678 0.17400
H 	H 	0.41250 0.41740 0.36760 0.01700
C 	C 	0.34180 0.42310 0.36063 -0.24800
H 	H 	0.34410 0.44240 0.34060 0.37600
C 	C 	0.29760 0.41040 0.37358 0.14200
C 	C 	0.25320 0.42460 0.35671 0.08800
N 	N 	0.05620 0.99090 0.07890 -0.27400
N 	N 	0.06700 0.58260 0.96685 -0.27300
N 	N 	0.20370 0.56870 0.15848 -0.28000
N 	N 	0.09330 0.32610 0.04361 -0.14300
N 	N 	0.12720 0.46840 0.06445 -0.13500
N 	N 	0.12880 0.32020 0.09110 -0.13700
N 	N 	0.23210 0.57420 0.22697 -0.33300
N 	N 	0.03760 0.38750 0.39428 -0.25800
N 	N 	0.38140 0.37970 0.40513 -0.29500
N 	N 	0.17400 0.45340 0.32478 -0.11400
N 	N 	0.21160 0.41230 0.37009 -0.13700
N 	N 	0.25840 0.45030 0.32814 -0.08000
Zn	Zn	0.25855 0.35098 0.68807 1.16400
Zn	Zn	0.44373 0.34499 0.42749 1.16300
Zn	Zn	0.47287 0.14443 0.58582 1.16400
I 	I 	0.50974 0.42686 0.39885 -0.36500
I 	I 	0.49062 0.21807 0.53548 -0.39100
I 	I 	0.30195 0.18959 0.69430 -0.42500
I 	I 	0.43805 0.16367 0.43859 -0.39200
I 	I 	0.42404 0.22653 0.62546 -0.38000
I 	I 	0.17112 0.35455 0.67377 -0.65100
C 	C 	0.42340 0.96180 0.60118 0.07300
H 	H 	0.42060 0.99350 0.61970 -0.01200
C 	C 	0.40610 0.86870 0.59832 -0.12700
H 	H 	0.39180 0.83690 0.61460 0.09000
C 	C 	0.44630 0.96430 0.55282 0.07400
H 	H 	0.45950 0.99850 0.53660 -0.00400
C 	C 	0.43050 0.87040 0.54842 -0.12600
H 	H 	0.43390 0.84010 0.52970 0.08700
C 	C 	0.40990 0.82190 0.57161 0.05500
C 	C 	0.39440 0.71950 0.56817 0.09600
C 	C 	0.44680 0.50870 0.46956 0.07000
H 	H 	0.46520 0.53660 0.45420 -0.01400
C 	C 	0.43560 0.56600 0.49388 -0.12200
H 	H 	0.44610 0.63130 0.49520 0.08800
C 	C 	0.40780 0.37660 0.48877 0.06700
H 	H 	0.39830 0.31070 0.48690 -0.00800
C 	C 	0.39540 0.42640 0.51341 -0.11400
H 	H 	0.37790 0.39490 0.52860 0.07600
C 	C 	0.40820 0.52380 0.51651 0.04700
C 	C 	0.39460 0.58010 0.54257 0.09900
C 	C 	0.31800 0.38590 0.63626 0.06600
H 	H 	0.31840 0.31700 0.63630 -0.00700
C 	C 	0.33980 0.43350 0.61337 -0.11600
H 	H 	0.35460 0.39810 0.59790 0.08700
C 	C 	0.29680 0.52800 0.65799 0.06800
H 	H 	0.28150 0.56210 0.67350 -0.02600
C 	C 	0.31860 0.58100 0.63587 -0.14300
H 	H 	0.31860 0.64990 0.63650 0.07600
C 	C 	0.34010 0.53330 0.61319 0.06100
C 	C 	0.36200 0.58500 0.58822 0.10200
C 	C 	0.23070 0.46610 0.74028 0.22900
H 	H 	0.20080 0.46850 0.73040 -0.36200
C 	C 	0.23500 0.50530 0.76872 -0.41100
H 	H 	0.20810 0.53400 0.77810 0.24300
C 	C 	0.31010 0.42350 0.74035 0.13600
H 	H 	0.33660 0.39510 0.73050 -0.06000
C 	C 	0.31640 0.46170 0.76862 -0.25000
H 	H 	0.34680 0.46010 0.77790 0.16200
C 	C 	0.27750 0.50200 0.78265 0.22800
C 	C 	0.28220 0.53660 0.81366 0.06300
C 	C 	0.45870 0.60150 0.86531 0.06900
H 	H 	0.48710 0.60360 0.85390 0.13500
C 	C 	0.41580 0.58720 0.85062 -0.09100
H 	H 	0.41490 0.57830 0.82990 0.17400
C 	C 	0.42220 0.60960 0.91029 0.06600
H 	H 	0.42430 0.61630 0.93110 -0.00600
C 	C 	0.37800 0.59730 0.89756 -0.11000
H 	H 	0.35020 0.59640 0.90950 0.07700
C 	C 	0.37420 0.58630 0.86734 0.05700
C 	C 	0.32670 0.57330 0.85319 0.11200
C 	C 	0.16120 0.63220 0.91782 0.09900
H 	H 	0.16220 0.65190 0.93790 -0.03000
C 	C 	0.20390 0.61730 0.90324 -0.16700
H 	H 	0.23350 0.62560 0.91310 0.09200
C 	C 	0.11760 0.59220 0.87678 0.16900
H 	H 	0.08750 0.58260 0.86760 0.01400
C 	C 	0.15820 0.57690 0.86063 -0.24300
H 	H 	0.15590 0.55760 0.84060 0.36200
C 	C 	0.20240 0.58960 0.87358 0.13800
C 	C 	0.24680 0.57540 0.85671 0.08900
N 	N 	0.44380 0.00910 0.57890 -0.27500
N 	N 	0.43300 0.41740 0.46685 -0.27300
N 	N 	0.29630 0.43130 0.65848 -0.28000
N 	N 	0.40670 0.67390 0.54361 -0.14300
N 	N 	0.37280 0.53160 0.56445 -0.13500
N 	N 	0.37120 0.67980 0.59110 -0.13600
N 	N 	0.26790 0.42580 0.72697 -0.33200
N 	N 	0.46240 0.61250 0.89428 -0.25800
N 	N 	0.11860 0.62030 0.90513 -0.29400
N 	N 	0.32600 0.54660 0.82478 -0.11400
N 	N 	0.28840 0.58770 0.87009 -0.13700
N 	N 	0.24160 0.54970 0.82814 -0.08300
Zn	Zn	0.24145 0.85098 0.68807 1.15900
Zn	Zn	0.05627 0.84499 0.42749 1.15900
Zn	Zn	0.02713 0.64443 0.58582 1.16800
I 	I 	0.99026 0.92686 0.39885 -0.47900
I 	I 	0.00938 0.71807 0.53548 -0.39200
I 	I 	0.19805 0.68959 0.69430 -0.04600
I 	I 	0.06195 0.66367 0.43859 -0.40400
I 	I 	0.07596 0.72653 0.62546 -0.26400
I 	I 	0.32888 0.85455 0.67377 -0.43200
C 	C 	0.07660 0.46180 0.60118 0.03700
H 	H 	0.07940 0.49350 0.61970 0.12300
C 	C 	0.09390 0.36870 0.59832 -0.07000
H 	H 	0.10820 0.33690 0.61460 0.08900
C 	C 	0.05370 0.46430 0.55282 0.06500
H 	H 	0.04050 0.49850 0.53660 -0.00000
C 	C 	0.06950 0.37040 0.54842 -0.10700
H 	H 	0.06610 0.34010 0.52970 0.08200
C 	C 	0.09010 0.32190 0.57161 0.03000
C 	C 	0.10560 0.21950 0.56817 0.10300
C 	C 	0.05320 0.00870 0.46956 0.07000
H 	H 	0.03480 0.03660 0.45420 -0.01200
C 	C 	0.06440 0.06600 0.49388 -0.12100
H 	H 	0.05390 0.13130 0.49520 0.08800
C 	C 	0.09220 0.87660 0.48877 0.06700
H 	H 	0.10170 0.81070 0.48690 -0.00800
C 	C 	0.10460 0.92640 0.51341 -0.11400
H 	H 	0.12210 0.89490 0.52860 0.07500
C 	C 	0.09180 0.02380 0.51651 0.04800
C 	C 	0.10540 0.08010 0.54257 0.10000
C 	C 	0.18200 0.88590 0.63626 0.05400
H 	H 	0.18160 0.81700 0.63630 -0.00400
C 	C 	0.16020 0.93350 0.61337 -0.12600
H 	H 	0.14540 0.89810 0.59790 0.08300
C 	C 	0.20320 0.02800 0.65799 0.06900
H 	H 	0.21850 0.06210 0.67350 -0.02400
C 	C 	0.18140 0.08100 0.63587 -0.14800
H 	H 	0.18140 0.14990 0.63650 0.08000
C 	C 	0.15990 0.03330 0.61319 0.05500
C 	C 	0.13800 0.08500 0.58822 0.09900
C 	C 	0.26930 0.96610 0.74028 0.05800
H 	H 	0.29920 0.96850 0.73040 -0.01100
C 	C 	0.26500 0.00530 0.76872 -0.11100
H 	H 	0.29190 0.03400 0.77810 0.07200
C 	C 	0.18990 0.92350 0.74035 0.08800
H 	H 	0.16340 0.89510 0.73050 0.05300
C 	C 	0.18360 0.96170 0.76862 -0.09700
H 	H 	0.15320 0.96010 0.77790 0.13100
C 	C 	0.22250 0.00200 0.78265 0.05700
C 	C 	0.21780 0.03660 0.81366 0.11600
C 	C 	0.04130 0.10150 0.86531 0.07800
H 	H 	0.01290 0.10360 0.85390 -0.01000
C 	C 	0.08420 0.08720 0.85062 -0.12300
H 	H 	0.08510 0.07830 0.82990 0.09300
C 	C 	0.07780 0.10960 0.91029 0.06800
H 	H 	0.07570 0.11630 0.93110 -0.00800
C 	C 	0.12200 0.09730 0.89756 -0.11700
H 	H 	0.14980 0.09640 0.90950 0.07900
C 	C 	0.12580 0.08630 0.86734 0.05900
C 	C 	0.17330 0.07330 0.85319 0.10700
C 	C 	0.33880 0.13220 0.91782 0.06700
H 	H 	0.33780 0.15190 0.93790 -0.02000
C 	C 	0.29610 0.11730 0.90324 -0.12000
H 	H 	0.26650 0.12560 0.91310 0.07700
C 	C 	0.38240 0.09220 0.87678 0.06600
H 	H 	0.41250 0.08260 0.86760 -0.06100
C 	C 	0.34180 0.07690 0.86063 -0.12900
H 	H 	0.34410 0.05760 0.84060 0.06900
C 	C 	0.29760 0.08960 0.87358 0.05300
C 	C 	0.25320 0.07540 0.85671 0.10300
N 	N 	0.05620 0.50910 0.57890 -0.25500
N 	N 	0.06700 0.91740 0.46685 -0.27200
N 	N 	0.20370 0.93130 0.65848 -0.28200
N 	N 	0.09330 0.17390 0.54361 -0.14400
N 	N 	0.12720 0.03160 0.56445 -0.13600
N 	N 	0.12880 0.17980 0.59110 -0.14000
N 	N 	0.23210 0.92580 0.72697 -0.27400
N 	N 	0.03760 0.11250 0.89428 -0.27000
N 	N 	0.38140 0.12030 0.90513 -0.28200
N 	N 	0.17400 0.04660 0.82478 -0.12800
N 	N 	0.21160 0.08770 0.87009 -0.13900
N 	N 	0.25840 0.04970 0.82814 -0.14200
Zn	Zn	0.25855 0.14902 0.18807 1.15900
Zn	Zn	0.44373 0.15501 0.92749 1.15800
Zn	Zn	0.47287 0.35557 0.08582 1.16800
I 	I 	0.50974 0.07314 0.89885 -0.48400
I 	I 	0.49062 0.28193 0.03548 -0.39200
I 	I 	0.30195 0.31041 0.19430 -0.02900
I 	I 	0.43805 0.33633 0.93859 -0.40500
I 	I 	0.42404 0.27347 0.12546 -0.25800
I 	I 	0.17112 0.14545 0.17377 -0.44200
C 	C 	0.42340 0.53820 0.10118 0.03500
H 	H 	0.42060 0.50650 0.11970 0.12900
C 	C 	0.40610 0.63130 0.09832 -0.06800
H 	H 	0.39180 0.66310 0.11460 0.08900
C 	C 	0.44630 0.53570 0.05282 0.06400
H 	H 	0.45950 0.50150 0.03660 -0.00000
C 	C 	0.43050 0.62960 0.04842 -0.10600
H 	H 	0.43390 0.65990 0.02970 0.08100
C 	C 	0.40990 0.67810 0.07161 0.02900
C 	C 	0.39440 0.78050 0.06817 0.10300
C 	C 	0.44680 0.99130 0.96956 0.07000
H 	H 	0.46520 0.96340 0.95420 -0.01200
C 	C 	0.43560 0.93400 0.99388 -0.12100
H 	H 	0.44610 0.86870 0.99520 0.08800
C 	C 	0.40780 0.12340 0.98877 0.06600
H 	H 	0.39830 0.18930 0.98690 -0.00800
C 	C 	0.39540 0.07360 0.01341 -0.11300
H 	H 	0.37790 0.10510 0.02860 0.07500
C 	C 	0.40820 0.97620 0.01651 0.04700
C 	C 	0.39460 0.91990 0.04257 0.10000
C 	C 	0.31800 0.11410 0.13626 0.05400
H 	H 	0.31840 0.18300 0.13630 -0.00300
C 	C 	0.33980 0.06650 0.11337 -0.12600
H 	H 	0.35460 0.10190 0.09790 0.08300
C 	C 	0.29680 0.97200 0.15799 0.06900
H 	H 	0.28150 0.93790 0.17350 -0.02400
C 	C 	0.31860 0.91900 0.13587 -0.14800
H 	H 	0.31860 0.85010 0.13650 0.08000
C 	C 	0.34010 0.96670 0.11319 0.05400
C 	C 	0.36200 0.91500 0.08822 0.09900
C 	C 	0.23070 0.03390 0.24028 0.06500
H 	H 	0.20080 0.03150 0.23040 -0.02600
C 	C 	0.23500 0.99470 0.26872 -0.12300
H 	H 	0.20810 0.96600 0.27810 0.08000
C 	C 	0.31010 0.07650 0.24035 0.09100
H 	H 	0.33660 0.10490 0.23050 0.05700
C 	C 	0.31640 0.03830 0.26862 -0.09900
H 	H 	0.34680 0.03990 0.27790 0.13200
C 	C 	0.27750 0.99800 0.28265 0.06200
C 	C 	0.28220 0.96340 0.31366 0.11500
C 	C 	0.45870 0.89850 0.36531 0.07900
H 	H 	0.48710 0.89640 0.35390 -0.01700
C 	C 	0.41580 0.91280 0.35062 -0.12500
H 	H 	0.41490 0.92170 0.32990 0.08900
C 	C 	0.42220 0.89040 0.41029 0.06800
H 	H 	0.42430 0.88370 0.43110 -0.00800
C 	C 	0.37800 0.90270 0.39756 -0.11700
H 	H 	0.35020 0.90360 0.40950 0.07900
C 	C 	0.37420 0.91370 0.36734 0.05900
C 	C 	0.32670 0.92670 0.35319 0.10700
C 	C 	0.16120 0.86780 0.41782 0.06800
H 	H 	0.16220 0.84810 0.43790 -0.02000
C 	C 	0.20390 0.88270 0.40324 -0.12200
H 	H 	0.23350 0.87440 0.41310 0.07700
C 	C 	0.11760 0.90780 0.37678 0.07000
H 	H 	0.08750 0.91740 0.36760 -0.05800
C 	C 	0.15820 0.92310 0.36063 -0.13400
H 	H 	0.15590 0.94240 0.34060 0.08200
C 	C 	0.20240 0.91040 0.37358 0.05700
C 	C 	0.24680 0.92460 0.35671 0.10300
N 	N 	0.44380 0.49090 0.07890 -0.25400
N 	N 	0.43300 0.08260 0.96685 -0.27200
N 	N 	0.29630 0.06870 0.15848 -0.28200
N 	N 	0.40670 0.82610 0.04361 -0.14400
N 	N 	0.37280 0.96840 0.06445 -0.13600
N 	N 	0.37120 0.82020 0.09110 -0.14000
N 	N 	0.26790 0.07420 0.22697 -0.27600
N 	N 	0.46240 0.88750 0.39428 -0.27100
N 	N 	0.11860 0.87970 0.40513 -0.28200
N 	N 	0.32600 0.95340 0.32478 -0.12900
N 	N 	0.28840 0.91230 0.37009 -0.13900
N 	N 	0.24160 0.95030 0.32814 -0.14000
Zn	Zn	0.75855 0.35098 0.81193 1.16400
Zn	Zn	0.94373 0.34499 0.07251 1.16300
Zn	Zn	0.97287 0.14443 0.91418 1.16400
I 	I 	0.00974 0.42686 0.10115 -0.37000
I 	I 	0.99062 0.21807 0.96452 -0.39100
I 	I 	0.80195 0.18959 0.80570 -0.40900
I 	I 	0.93805 0.16367 0.06141 -0.39300
I 	I 	0.92404 0.22653 0.87454 -0.37500
I 	I 	0.67112 0.35455 0.82623 -0.66100
C 	C 	0.92340 0.96180 0.89882 0.07200
H 	H 	0.92060 0.99350 0.88030 -0.00600
C 	C 	0.90610 0.86870 0.90168 -0.12500
H 	H 	0.89180 0.83690 0.88540 0.09100
C 	C 	0.94630 0.96430 0.94718 0.07400
H 	H 	0.95950 0.99850 0.96340 -0.00400
C 	C 	0.93050 0.87040 0.95158 -0.12500
H 	H 	0.93390 0.84010 0.97030 0.08700
C 	C 	0.90990 0.82190 0.92839 0.05400
C 	C 	0.89440 0.71950 0.93183 0.09600
C 	C 	0.94680 0.50870 0.03044 0.07000
H 	H 	0.96520 0.53660 0.04580 -0.01400
C 	C 	0.93560 0.56600 0.00612 -0.12200
H 	H 	0.94610 0.63130 0.00480 0.08800
C 	C 	0.90780 0.37660 0.01123 0.06700
H 	H 	0.89830 0.31070 0.01310 -0.00800
C 	C 	0.89540 0.42640 0.98659 -0.11400
H 	H 	0.87790 0.39490 0.97140 0.07600
C 	C 	0.90820 0.52380 0.98349 0.04700
C 	C 	0.89460 0.58010 0.95743 0.09900
C 	C 	0.81800 0.38590 0.86374 0.06600
H 	H 	0.81840 0.31700 0.86370 -0.00700
C 	C 	0.83980 0.43350 0.88663 -0.11700
H 	H 	0.85460 0.39810 0.90210 0.08700
C 	C 	0.79680 0.52800 0.84201 0.06900
H 	H 	0.78150 0.56210 0.82650 -0.02600
C 	C 	0.81860 0.58100 0.86413 -0.14400
H 	H 	0.81860 0.64990 0.86350 0.07600
C 	C 	0.84010 0.53330 0.88681 0.06100
C 	C 	0.86200 0.58500 0.91178 0.10200
C 	C 	0.73070 0.46610 0.75972 0.23600
H 	H 	0.70080 0.46850 0.76960 -0.37800
C 	C 	0.73500 0.50530 0.73128 -0.42300
H 	H 	0.70810 0.53400 0.72190 0.25000
C 	C 	0.81010 0.42350 0.75965 0.13800
H 	H 	0.83660 0.39510 0.76950 -0.05700
C 	C 	0.81640 0.46170 0.73138 -0.25200
H 	H 	0.84680 0.46010 0.72210 0.16300
C 	C 	0.77750 0.50200 0.71735 0.23400
C 	C 	0.78220 0.53660 0.68634 0.06200
C 	C 	0.95870 0.60150 0.63469 0.07000
H 	H 	0.98710 0.60360 0.64610 0.12800
C 	C 	0.91580 0.58720 0.64938 -0.09200
H 	H 	0.91490 0.57830 0.67010 0.17100
C 	C 	0.92220 0.60960 0.58971 0.06600
H 	H 	0.92430 0.61630 0.56890 -0.00600
C 	C 	0.87800 0.59730 0.60244 -0.11100
H 	H 	0.85020 0.59640 0.59050 0.07700
C 	C 	0.87420 0.58630 0.63266 0.05600
C 	C 	0.82670 0.57330 0.64681 0.11100
C 	C 	0.66120 0.63220 0.58218 0.10100
H 	H 	0.66220 0.65190 0.56210 -0.03000
C 	C 	0.70390 0.61730 0.59676 -0.17000
H 	H 	0.73350 0.62560 0.58690 0.09300
C 	C 	0.61760 0.59220 0.62322 0.17400
H 	H 	0.58750 0.58260 0.63240 0.01700
C 	C 	0.65820 0.57690 0.63937 -0.24800
H 	H 	0.65590 0.55760 0.65940 0.37600
C 	C 	0.70240 0.58960 0.62642 0.14200
C 	C 	0.74680 0.57540 0.64329 0.08800
N 	N 	0.94380 0.00910 0.92110 -0.27400
N 	N 	0.93300 0.41740 0.03315 -0.27300
N 	N 	0.79630 0.43130 0.84152 -0.28000
N 	N 	0.90670 0.67390 0.95639 -0.14300
N 	N 	0.87280 0.53160 0.93555 -0.13500
N 	N 	0.87120 0.67980 0.90890 -0.13700
N 	N 	0.76790 0.42580 0.77303 -0.33300
N 	N 	0.96240 0.61250 0.60572 -0.25800
N 	N 	0.61860 0.62030 0.59487 -0.29500
N 	N 	0.82600 0.54660 0.67522 -0.11400
N 	N 	0.78840 0.58770 0.62991 -0.13700
N 	N 	0.74160 0.54970 0.67186 -0.08000
Zn	Zn	0.74145 0.64902 0.31193 1.16400
Zn	Zn	0.55627 0.65501 0.57251 1.16300
Zn	Zn	0.52713 0.85557 0.41418 1.16400
I 	I 	0.49026 0.57314 0.60115 -0.36500
I 	I 	0.50938 0.78193 0.46452 -0.39100
I 	I 	0.69805 0.81041 0.30570 -0.42500
I 	I 	0.56195 0.83633 0.56141 -0.39200
I 	I 	0.57596 0.77347 0.37454 -0.38000
I 	I 	0.82888 0.64545 0.32623 -0.65100
C 	C 	0.57660 0.03820 0.39882 0.07300
H 	H 	0.57940 0.00650 0.38030 -0.01200
C 	C 	0.59390 0.13130 0.40168 -0.12700
H 	H 	0.60820 0.16310 0.38540 0.09000
C 	C 	0.55370 0.03570 0.44718 0.07400
H 	H 	0.54050 0.00150 0.46340 -0.00400
C 	C 	0.56950 0.12960 0.45158 -0.12600
H 	H 	0.56610 0.15990 0.47030 0.08700
C 	C 	0.59010 0.17810 0.42839 0.05500
C 	C 	0.60560 0.28050 0.43183 0.09600
C 	C 	0.55320 0.49130 0.53044 0.07000
H 	H 	0.53480 0.46340 0.54580 -0.01400
C 	C 	0.56440 0.43400 0.50612 -0.12200
H 	H 	0.55390 0.36870 0.50480 0.08800
C 	C 	0.59220 0.62340 0.51123 0.06700
H 	H 	0.60170 0.68930 0.51310 -0.00800
C 	C 	0.60460 0.57360 0.48659 -0.11400
H 	H 	0.62210 0.60510 0.47140 0.07600
C 	C 	0.59180 0.47620 0.48349 0.04700
C 	C 	0.60540 0.41990 0.45743 0.09900
C 	C 	0.68200 0.61410 0.36374 0.06600
H 	H 	0.68160 0.68300 0.36370 -0.00700
C 	C 	0.66020 0.56650 0.38663 -0.11600
H 	H 	0.64540 0.60190 0.40210 0.08700
C 	C 	0.70320 0.47200 0.34201 0.06800
H 	H 	0.71850 0.43790 0.32650 -0.02600
C 	C 	0.68140 0.41900 0.36413 -0.14300
H 	H 	0.68140 0.35010 0.36350 0.07600
C 	C 	0.65990 0.46670 0.38681 0.06100
C 	C 	0.63800 0.41500 0.41178 0.10200
C 	C 	0.76930 0.53390 0.25972 0.22900
H 	H 	0.79920 0.53150 0.26960 -0.36200
C 	C 	0.76500 0.49470 0.23128 -0.41100
H 	H 	0.79190 0.46600 0.22190 0.24300
C 	C 	0.68990 0.57650 0.25965 0.13600
H 	H 	0.66340 0.60490 0.26950 -0.06000
C 	C 	0.68360 0.53830 0.23138 -0.25000
H 	H 	0.65320 0.53990 0.22210 0.16200
C 	C 	0.72250 0.49800 0.21735 0.22800
C 	C 	0.71780 0.46340 0.18634 0.06300
C 	C 	0.54130 0.39850 0.13469 0.06900
H 	H 	0.51290 0.39640 0.14610 0.13500
C 	C 	0.58420 0.41280 0.14938 -0.09100
H 	H 	0.58510 0.42170 0.17010 0.17400
C 	C 	0.57780 0.39040 0.08971 0.06600
H 	H 	0.57570 0.38370 0.06890 -0.00600
C 	C 	0.62200 0.40270 0.10244 -0.11000
H 	H 	0.64980 0.40360 0.09050 0.07700
C 	C 	0.62580 0.41370 0.13266 0.05700
C 	C 	0.67330 0.42670 0.14681 0.11200
C 	C 	0.83880 0.36780 0.08218 0.09900
H 	H 	0.83780 0.34810 0.06210 -0.03000
C 	C 	0.79610 0.38270 0.09676 -0.16700
H 	H 	0.76650 0.37440 0.08690 0.09200
C 	C 	0.88240 0.40780 0.12322 0.16900
H 	H 	0.91250 0.41740 0.13240 0.01400
C 	C 	0.84180 0.42310 0.13937 -0.24300
H 	H 	0.84410 0.44240 0.15940 0.36200
C 	C 	0.79760 0.41040 0.12642 0.13800
C 	C 	0.75320 0.42460 0.14329 0.08900
N 	N 	0.55620 0.99090 0.42110 -0.27500
N 	N 	0.56700 0.58260 0.53315 -0.27300
N 	N 	0.70370 0.56870 0.34152 -0.28000
N 	N 	0.59330 0.32610 0.45639 -0.14300
N 	N 	0.62720 0.46840 0.43555 -0.13500
N 	N 	0.62880 0.32020 0.40890 -0.13600
N 	N 	0.73210 0.57420 0.27303 -0.33200
N 	N 	0.53760 0.38750 0.10572 -0.25800
N 	N 	0.88140 0.37970 0.09487 -0.29400
N 	N 	0.67400 0.45340 0.17522 -0.11400
N 	N 	0.71160 0.41230 0.12991 -0.13700
N 	N 	0.75840 0.45030 0.17186 -0.08300
C 	C 	0.25390 0.18720 0.34530 0.22400
C 	C 	0.30320 0.18820 0.34190 -0.04000
H 	H 	0.31680 0.20740 0.32360 0.04900
C 	C 	0.33270 0.16110 0.36510 0.17800
C 	C 	0.31250 0.14090 0.39250 -0.19100
H 	H 	0.33260 0.12630 0.40880 0.10000
C 	C 	0.26340 0.14190 0.39620 0.06100
H 	H 	0.25000 0.12760 0.41490 -0.11700
C 	C 	0.23370 0.16400 0.37240 -0.05600
C 	C 	0.18380 0.16300 0.37550 0.00100
C 	C 	0.16320 0.14700 0.40310 -0.01500
H 	H 	0.18300 0.14180 0.42000 -0.01100
C 	C 	0.11420 0.13800 0.40620 -0.01300
H 	H 	0.10070 0.12130 0.42470 0.01400
C 	C 	0.08480 0.15400 0.38180 -0.04200
H 	H 	0.05110 0.15540 0.38410 0.02300
C 	C 	0.10510 0.16700 0.35410 -0.02400
H 	H 	0.08540 0.16730 0.33710 0.23800
C 	C 	0.15480 0.17900 0.35110 -0.01700
C 	C 	0.17550 0.20000 0.32350 -0.00400
C 	C 	0.14710 0.21800 0.29850 0.10900
H 	H 	0.11340 0.21150 0.29980 0.06900
C 	C 	0.16800 0.24420 0.27200 0.56200
H 	H 	0.14860 0.25460 0.25520 -0.14700
C 	C 	0.21740 0.25570 0.26990 -0.14800
H 	H 	0.23160 0.27620 0.25190 0.06200
C 	C 	0.24570 0.23670 0.29440 -0.24400
H 	H 	0.27940 0.24240 0.29300 0.21300
C 	C 	0.22480 0.20900 0.32110 -0.16500
C 	C 	0.41520 0.17080 0.33900 0.22400
C 	C 	0.46680 0.17280 0.34600 -0.10000
N 	N 	0.38300 0.16280 0.36260 -0.23300
H 	H 	0.39740 0.15770 0.37970 0.13000
O 	O 	0.39870 0.17220 0.31340 -0.03800
C 	C 	0.50830 0.17500 0.32430 -0.23200
C 	C 	0.51700 0.08600 0.30860 0.17600
H 	H 	0.48540 0.05990 0.30310 0.00500
H 	H 	0.53120 0.04040 0.32280 -0.02100
C 	C 	0.54640 0.08300 0.28240 -0.34000
H 	H 	0.52830 0.11720 0.26680 0.15900
H 	H 	0.57480 0.12330 0.28660 0.13100
C 	C 	0.56350 0.99500 0.26960 0.12600
H 	H 	0.58090 0.96080 0.28540 -0.01900
H 	H 	0.53490 0.95580 0.26520 -0.04000
C 	C 	0.59290 0.99000 0.24430 -0.21800
H 	H 	0.62500 0.01120 0.25060 0.08900
H 	H 	0.58090 0.03940 0.23040 0.08700
C 	C 	0.60000 0.90400 0.22730 -0.09500
H 	H 	0.62170 0.91800 0.21090 0.03300
H 	H 	0.56920 0.88170 0.21950 -0.03400
H 	H 	0.61380 0.85330 0.23980 0.03400
C 	C 	0.68950 0.19500 0.17310 0.08400
C 	C 	0.66910 0.22300 0.19990 -0.15000
H 	H 	0.63540 0.22300 0.20190 -0.09100
C 	C 	0.69760 0.25000 0.22400 -0.34000
C 	C 	0.74710 0.25100 0.22110 0.59900
H 	H 	0.76650 0.26980 0.23720 -0.10500
C 	C 	0.76830 0.22400 0.19500 -0.36400
H 	H 	0.80210 0.22330 0.19320 0.17800
C 	C 	0.73970 0.19700 0.17110 0.24600
C 	C 	0.76110 0.17300 0.14400 -0.24900
C 	C 	0.81100 0.17300 0.14080 -0.12700
H 	H 	0.83050 0.19050 0.15710 0.09600
C 	C 	0.83220 0.14800 0.11430 0.11100
H 	H 	0.86600 0.14390 0.11280 -0.02900
C 	C 	0.80400 0.12770 0.08980 -0.08100
H 	H 	0.81850 0.11420 0.07130 0.03400
C 	C 	0.75440 0.12800 0.09250 0.09700
H 	H 	0.73520 0.10950 0.07620 0.06400
C 	C 	0.73260 0.15400 0.11940 0.07300
C 	C 	0.68140 0.15400 0.12110 -0.00800
C 	C 	0.65230 0.13800 0.09610 -0.03100
H 	H 	0.66710 0.12420 0.07780 0.04900
C 	C 	0.60280 0.14300 0.09750 -0.01500
H 	H 	0.58420 0.14140 0.08000 0.01600
C 	C 	0.58070 0.14900 0.12540 0.00100
H 	H 	0.54730 0.13930 0.12750 0.01400
C 	C 	0.60930 0.17100 0.14990 -0.04900
H 	H 	0.59420 0.18710 0.16800 -0.18200
C 	C 	0.66000 0.16900 0.14880 0.02000
C 	C 	0.62600 0.32300 0.25310 0.44700
C 	C 	0.61640 0.36700 0.28050 -0.77600
H 	H 	0.61030 0.31310 0.29450 0.24100
H 	H 	0.64630 0.39850 0.28690 0.22700
C 	C 	0.58090 0.43200 0.28450 0.68200
H 	H 	0.55170 0.40630 0.27500 -0.03900
H 	H 	0.58980 0.49210 0.27370 0.03900
C 	C 	0.56810 0.46000 0.31550 -1.46900
H 	H 	0.55280 0.40420 0.32520 0.50200
H 	H 	0.59800 0.47470 0.32640 0.45100
C 	C 	0.53620 0.54400 0.31820 1.01000
H 	H 	0.53720 0.56660 0.33890 -0.21100
H 	H 	0.50330 0.52200 0.31420 -0.19400
C 	C 	0.54560 0.62900 0.29920 -1.91400
H 	H 	0.54870 0.60720 0.27850 0.48000
H 	H 	0.57620 0.65910 0.30510 0.50300
C 	C 	0.50670 0.70400 0.30110 1.70800
H 	H 	0.47800 0.67960 0.29070 -0.81900
H 	H 	0.49820 0.71440 0.32200 -0.46500
C 	C 	0.52100 0.79900 0.28770 -1.87700
H 	H 	0.49430 0.84450 0.28840 0.56700
H 	H 	0.53090 0.78920 0.26720 0.47000
H 	H 	0.54810 0.82650 0.29880 0.56800
N 	N 	0.67430 0.28210 0.25060 -0.27500
H 	H 	0.69070 0.27640 0.26710 0.10800
O 	O 	0.59660 0.33400 0.23300 -0.22100
C 	C 	0.48430 0.24600 0.32760 0.35600
C 	C 	0.53930 0.24600 0.32380 0.20600
C 	C 	0.56150 0.31100 0.30740 -0.55800
H 	H 	0.59260 0.31330 0.31780 0.12100
H 	H 	0.56780 0.27140 0.28970 0.22000
C 	C 	0.56200 0.39700 0.29560 0.39300
H 	H 	0.52670 0.40810 0.29370 0.21300
H 	H 	0.57200 0.38050 0.27540 -0.13000
C 	C 	0.57600 0.48700 0.29720 -0.19600
H 	H 	0.57880 0.50410 0.27600 -0.15800
H 	H 	0.61000 0.47750 0.30340 0.03300
C 	C 	0.56700 0.57200 0.30870 1.15700
H 	H 	0.57880 0.62330 0.29550 -0.13900
H 	H 	0.58350 0.57770 0.32780 -0.38500
H 	H 	0.53280 0.57910 0.31150 -0.29300
C 	C 	0.75390 0.18720 0.15470 0.22100
C 	C 	0.80320 0.18820 0.15810 -0.03800
H 	H 	0.81680 0.20740 0.17640 0.04600
C 	C 	0.83270 0.16110 0.13490 0.17300
C 	C 	0.81250 0.14090 0.10750 -0.18900
H 	H 	0.83260 0.12630 0.09120 0.10000
C 	C 	0.76340 0.14190 0.10380 0.06100
H 	H 	0.75000 0.12760 0.08510 -0.11600
C 	C 	0.73370 0.16400 0.12760 -0.05600
C 	C 	0.68380 0.16300 0.12450 0.00100
C 	C 	0.66320 0.14700 0.09690 -0.01500
H 	H 	0.68300 0.14180 0.08000 -0.01000
C 	C 	0.61420 0.13800 0.09380 -0.01400
H 	H 	0.60070 0.12130 0.07530 0.01400
C 	C 	0.58480 0.15400 0.11820 -0.04200
H 	H 	0.55110 0.15540 0.11590 0.02300
C 	C 	0.60510 0.16700 0.14590 -0.02500
H 	H 	0.58540 0.16730 0.16290 0.24900
C 	C 	0.65480 0.17900 0.14890 -0.01600
C 	C 	0.67550 0.20000 0.17650 -0.00600
C 	C 	0.64710 0.21800 0.20150 0.10400
H 	H 	0.61340 0.21150 0.20020 0.08200
C 	C 	0.66800 0.24420 0.22800 0.56000
H 	H 	0.64860 0.25460 0.24480 -0.13600
C 	C 	0.71740 0.25570 0.23010 -0.15200
H 	H 	0.73160 0.27620 0.24810 0.06400
C 	C 	0.74570 0.23670 0.20560 -0.23800
H 	H 	0.77940 0.24240 0.20700 0.21200
C 	C 	0.72480 0.20900 0.17890 -0.16000
C 	C 	0.91520 0.17080 0.16100 0.20500
C 	C 	0.96680 0.17280 0.15400 -0.06200
N 	N 	0.88300 0.16280 0.13740 -0.23000
H 	H 	0.89740 0.15770 0.12030 0.12700
O 	O 	0.89870 0.17220 0.18660 -0.04100
C 	C 	0.00830 0.17500 0.17570 -0.47000
C 	C 	0.01700 0.08600 0.19140 0.76400
H 	H 	0.98540 0.05990 0.19690 -0.15900
H 	H 	0.03120 0.04040 0.17720 -0.17900
C 	C 	0.04640 0.08300 0.21760 -1.21600
H 	H 	0.02830 0.11720 0.23320 0.39700
H 	H 	0.07480 0.12330 0.21340 0.37000
C 	C 	0.06350 0.99500 0.23040 1.24400
H 	H 	0.08090 0.96080 0.21460 -0.32800
H 	H 	0.03490 0.95580 0.23480 -0.34500
C 	C 	0.09290 0.99000 0.25570 -1.43500
H 	H 	0.12500 0.01120 0.24940 0.43400
H 	H 	0.08090 0.03940 0.26960 0.42600
C 	C 	0.10000 0.90400 0.27270 1.10800
H 	H 	0.12170 0.91800 0.28910 -0.32100
H 	H 	0.06920 0.88170 0.28050 -0.36900
H 	H 	0.11380 0.85330 0.26020 -0.30500
C 	C 	0.18950 0.19500 0.32690 0.08700
C 	C 	0.16910 0.22300 0.30010 -0.16300
H 	H 	0.13540 0.22300 0.29810 -0.08700
C 	C 	0.19760 0.25000 0.27600 -0.34400
C 	C 	0.24710 0.25100 0.27890 0.60200
H 	H 	0.26650 0.26980 0.26280 -0.10100
C 	C 	0.26830 0.22400 0.30500 -0.35800
H 	H 	0.30210 0.22330 0.30680 0.17900
C 	C 	0.23970 0.19700 0.32890 0.24900
C 	C 	0.26110 0.17300 0.35600 -0.25100
C 	C 	0.31100 0.17300 0.35920 -0.12800
H 	H 	0.33050 0.19050 0.34290 0.09700
C 	C 	0.33220 0.14800 0.38570 0.11000
H 	H 	0.36600 0.14390 0.38720 -0.02900
C 	C 	0.30400 0.12770 0.41020 -0.07800
H 	H 	0.31850 0.11420 0.42870 0.03300
C 	C 	0.25440 0.12800 0.40750 0.09700
H 	H 	0.23520 0.10950 0.42380 0.06500
C 	C 	0.23260 0.15400 0.38060 0.07300
C 	C 	0.18140 0.15400 0.37890 -0.00800
C 	C 	0.15230 0.13800 0.40390 -0.03200
H 	H 	0.16710 0.12420 0.42220 0.04900
C 	C 	0.10280 0.14300 0.40250 -0.01500
H 	H 	0.08420 0.14140 0.42000 0.01600
C 	C 	0.08070 0.14900 0.37460 0.00000
H 	H 	0.04730 0.13930 0.37250 0.01500
C 	C 	0.10930 0.17100 0.35010 -0.04700
H 	H 	0.09420 0.18710 0.33200 -0.17500
C 	C 	0.16000 0.16900 0.35120 0.01800
C 	C 	0.12600 0.32300 0.24690 0.45700
C 	C 	0.11640 0.36700 0.21950 -0.81000
H 	H 	0.11030 0.31310 0.20550 0.25100
H 	H 	0.14630 0.39850 0.21310 0.23900
C 	C 	0.08090 0.43200 0.21550 0.74500
H 	H 	0.05170 0.40630 0.22500 -0.05200
H 	H 	0.08980 0.49210 0.22630 -0.00700
C 	C 	0.06810 0.46000 0.18450 -1.49300
H 	H 	0.05280 0.40420 0.17480 0.51500
H 	H 	0.09800 0.47470 0.17360 0.45800
C 	C 	0.03620 0.54400 0.18180 0.98000
H 	H 	0.03720 0.56660 0.16110 -0.20600
H 	H 	0.00330 0.52200 0.18580 -0.19700
C 	C 	0.04560 0.62900 0.20080 -1.90700
H 	H 	0.04870 0.60720 0.22150 0.48100
H 	H 	0.07620 0.65910 0.19490 0.49400
C 	C 	0.00670 0.70400 0.19890 1.71200
H 	H 	0.97800 0.67960 0.20930 -0.80500
H 	H 	0.99820 0.71440 0.17800 -0.46600
C 	C 	0.02100 0.79900 0.21230 -1.91000
H 	H 	0.99430 0.84450 0.21160 0.59600
H 	H 	0.03090 0.78920 0.23280 0.50500
H 	H 	0.04810 0.82650 0.20120 0.60000
N 	N 	0.17430 0.28210 0.24940 -0.27200
H 	H 	0.19070 0.27640 0.23290 0.10500
O 	O 	0.09660 0.33400 0.26700 -0.23300
C 	C 	0.98430 0.24600 0.17240 0.42000
C 	C 	0.03930 0.24600 0.17620 0.25500
C 	C 	0.06150 0.31100 0.19260 -0.53600
H 	H 	0.09260 0.31330 0.18220 0.11100
H 	H 	0.06780 0.27140 0.21030 0.19700
C 	C 	0.06200 0.39700 0.20440 0.28800
H 	H 	0.02670 0.40810 0.20630 0.22600
H 	H 	0.07200 0.38050 0.22460 -0.11400
C 	C 	0.07600 0.48700 0.20280 -0.10100
H 	H 	0.07880 0.50410 0.22400 -0.15100
H 	H 	0.11000 0.47750 0.19660 0.00700
C 	C 	0.06700 0.57200 0.19130 1.04600
H 	H 	0.07880 0.62330 0.20450 -0.09900
H 	H 	0.08350 0.57770 0.17220 -0.35000
H 	H 	0.03280 0.57910 0.18850 -0.24200
C 	C 	0.24610 0.81280 0.84530 0.22100
C 	C 	0.19680 0.81180 0.84190 -0.03800
H 	H 	0.18320 0.79260 0.82360 0.04600
C 	C 	0.16730 0.83890 0.86510 0.17300
C 	C 	0.18750 0.85910 0.89250 -0.18900
H 	H 	0.16740 0.87370 0.90880 0.10000
C 	C 	0.23660 0.85810 0.89620 0.06100
H 	H 	0.25000 0.87240 0.91490 -0.11600
C 	C 	0.26630 0.83600 0.87240 -0.05600
C 	C 	0.31620 0.83700 0.87550 0.00100
C 	C 	0.33680 0.85300 0.90310 -0.01500
H 	H 	0.31700 0.85820 0.92000 -0.01000
C 	C 	0.38580 0.86200 0.90620 -0.01400
H 	H 	0.39930 0.87870 0.92470 0.01400
C 	C 	0.41520 0.84600 0.88180 -0.04200
H 	H 	0.44890 0.84460 0.88410 0.02300
C 	C 	0.39490 0.83300 0.85410 -0.02500
H 	H 	0.41460 0.83270 0.83710 0.24900
C 	C 	0.34520 0.82100 0.85110 -0.01600
C 	C 	0.32450 0.80000 0.82350 -0.00600
C 	C 	0.35290 0.78200 0.79850 0.10400
H 	H 	0.38660 0.78850 0.79980 0.08200
C 	C 	0.33200 0.75580 0.77200 0.56000
H 	H 	0.35140 0.74540 0.75520 -0.13600
C 	C 	0.28260 0.74430 0.76990 -0.15200
H 	H 	0.26840 0.72380 0.75190 0.06400
C 	C 	0.25430 0.76330 0.79440 -0.23800
H 	H 	0.22060 0.75760 0.79300 0.21200
C 	C 	0.27520 0.79100 0.82110 -0.16000
C 	C 	0.08480 0.82920 0.83900 0.20500
C 	C 	0.03320 0.82720 0.84600 -0.06200
N 	N 	0.11700 0.83720 0.86260 -0.23000
H 	H 	0.10260 0.84230 0.87970 0.12700
O 	O 	0.10130 0.82780 0.81340 -0.04100
C 	C 	0.99170 0.82500 0.82430 -0.47000
C 	C 	0.98300 0.91400 0.80860 0.76400
H 	H 	0.01460 0.94010 0.80310 -0.15900
H 	H 	0.96880 0.95960 0.82280 -0.17900
C 	C 	0.95360 0.91700 0.78240 -1.21600
H 	H 	0.97170 0.88280 0.76680 0.39700
H 	H 	0.92520 0.87670 0.78660 0.37000
C 	C 	0.93650 0.00500 0.76960 1.24400
H 	H 	0.91910 0.03920 0.78540 -0.32800
H 	H 	0.96510 0.04420 0.76520 -0.34500
C 	C 	0.90710 0.01000 0.74430 -1.43500
H 	H 	0.87500 0.98880 0.75060 0.43400
H 	H 	0.91910 0.96060 0.73040 0.42600
C 	C 	0.90000 0.09600 0.72730 1.10800
H 	H 	0.87830 0.08200 0.71090 -0.32100
H 	H 	0.93080 0.11830 0.71950 -0.36900
H 	H 	0.88620 0.14670 0.73980 -0.30500
C 	C 	0.81050 0.80500 0.67310 0.08700
C 	C 	0.83090 0.77700 0.69990 -0.16300
H 	H 	0.86460 0.77700 0.70190 -0.08700
C 	C 	0.80240 0.75000 0.72400 -0.34400
C 	C 	0.75290 0.74900 0.72110 0.60200
H 	H 	0.73350 0.73020 0.73720 -0.10100
C 	C 	0.73170 0.77600 0.69500 -0.35800
H 	H 	0.69790 0.77670 0.69320 0.17900
C 	C 	0.76030 0.80300 0.67110 0.24900
C 	C 	0.73890 0.82700 0.64400 -0.25100
C 	C 	0.68900 0.82700 0.64080 -0.12800
H 	H 	0.66950 0.80950 0.65710 0.09700
C 	C 	0.66780 0.85200 0.61430 0.11000
H 	H 	0.63400 0.85610 0.61280 -0.02900
C 	C 	0.69600 0.87230 0.58980 -0.07800
H 	H 	0.68150 0.88580 0.57130 0.03300
C 	C 	0.74560 0.87200 0.59250 0.09700
H 	H 	0.76480 0.89050 0.57620 0.06500
C 	C 	0.76740 0.84600 0.61940 0.07300
C 	C 	0.81860 0.84600 0.62110 -0.00800
C 	C 	0.84770 0.86200 0.59610 -0.03200
H 	H 	0.83290 0.87580 0.57780 0.04900
C 	C 	0.89720 0.85700 0.59750 -0.01500
H 	H 	0.91580 0.85860 0.58000 0.01600
C 	C 	0.91930 0.85100 0.62540 0.00000
H 	H 	0.95270 0.86070 0.62750 0.01500
C 	C 	0.89070 0.82900 0.64990 -0.04700
H 	H 	0.90580 0.81290 0.66800 -0.17500
C 	C 	0.84000 0.83100 0.64880 0.01800
C 	C 	0.87400 0.67700 0.75310 0.45700
C 	C 	0.88360 0.63300 0.78050 -0.81000
H 	H 	0.88970 0.68690 0.79450 0.25100
H 	H 	0.85370 0.60150 0.78690 0.23900
C 	C 	0.91910 0.56800 0.78450 0.74500
H 	H 	0.94830 0.59370 0.77500 -0.05200
H 	H 	0.91020 0.50790 0.77370 -0.00700
C 	C 	0.93190 0.54000 0.81550 -1.49300
H 	H 	0.94720 0.59580 0.82520 0.51500
H 	H 	0.90200 0.52530 0.82640 0.45800
C 	C 	0.96380 0.45600 0.81820 0.98000
H 	H 	0.96280 0.43340 0.83890 -0.20600
H 	H 	0.99670 0.47800 0.81420 -0.19700
C 	C 	0.95440 0.37100 0.79920 -1.90700
H 	H 	0.95130 0.39280 0.77850 0.48100
H 	H 	0.92380 0.34090 0.80510 0.49400
C 	C 	0.99330 0.29600 0.80110 1.71200
H 	H 	0.02200 0.32040 0.79070 -0.80500
H 	H 	0.00180 0.28560 0.82200 -0.46600
C 	C 	0.97900 0.20100 0.78770 -1.91000
H 	H 	0.00570 0.15550 0.78840 0.59600
H 	H 	0.96910 0.21080 0.76720 0.50500
H 	H 	0.95190 0.17350 0.79880 0.60000
N 	N 	0.82570 0.71790 0.75060 -0.27200
H 	H 	0.80930 0.72360 0.76710 0.10500
O 	O 	0.90340 0.66600 0.73300 -0.23300
C 	C 	0.01570 0.75400 0.82760 0.42000
C 	C 	0.96070 0.75400 0.82380 0.25500
C 	C 	0.93850 0.68900 0.80740 -0.53600
H 	H 	0.90740 0.68670 0.81780 0.11100
H 	H 	0.93220 0.72860 0.78970 0.19700
C 	C 	0.93800 0.60300 0.79560 0.28800
H 	H 	0.97330 0.59190 0.79370 0.22600
H 	H 	0.92800 0.61950 0.77540 -0.11400
C 	C 	0.92400 0.51300 0.79720 -0.10100
H 	H 	0.92120 0.49590 0.77600 -0.15100
H 	H 	0.89000 0.52250 0.80340 0.00700
C 	C 	0.93300 0.42800 0.80870 1.04600
H 	H 	0.92120 0.37670 0.79550 -0.09900
H 	H 	0.91650 0.42230 0.82780 -0.35000
H 	H 	0.96720 0.42090 0.81150 -0.24200
C 	C 	0.74610 0.81280 0.65470 0.22400
C 	C 	0.69680 0.81180 0.65810 -0.04000
H 	H 	0.68320 0.79260 0.67640 0.04900
C 	C 	0.66730 0.83890 0.63490 0.17800
C 	C 	0.68750 0.85910 0.60750 -0.19100
H 	H 	0.66740 0.87370 0.59120 0.10000
C 	C 	0.73660 0.85810 0.60380 0.06100
H 	H 	0.75000 0.87240 0.58510 -0.11700
C 	C 	0.76630 0.83600 0.62760 -0.05600
C 	C 	0.81620 0.83700 0.62450 0.00100
C 	C 	0.83680 0.85300 0.59690 -0.01500
H 	H 	0.81700 0.85820 0.58000 -0.01100
C 	C 	0.88580 0.86200 0.59380 -0.01300
H 	H 	0.89930 0.87870 0.57530 0.01400
C 	C 	0.91520 0.84600 0.61820 -0.04200
H 	H 	0.94890 0.84460 0.61590 0.02300
C 	C 	0.89490 0.83300 0.64590 -0.02400
H 	H 	0.91460 0.83270 0.66290 0.23800
C 	C 	0.84520 0.82100 0.64890 -0.01700
C 	C 	0.82450 0.80000 0.67650 -0.00400
C 	C 	0.85290 0.78200 0.70150 0.10900
H 	H 	0.88660 0.78850 0.70020 0.06900
C 	C 	0.83200 0.75580 0.72800 0.56200
H 	H 	0.85140 0.74540 0.74480 -0.14700
C 	C 	0.78260 0.74430 0.73010 -0.14800
H 	H 	0.76840 0.72380 0.74810 0.06200
C 	C 	0.75430 0.76330 0.70560 -0.24400
H 	H 	0.72060 0.75760 0.70700 0.21300
C 	C 	0.77520 0.79100 0.67890 -0.16500
C 	C 	0.58480 0.82920 0.66100 0.22400
C 	C 	0.53320 0.82720 0.65400 -0.10000
N 	N 	0.61700 0.83720 0.63740 -0.23300
H 	H 	0.60260 0.84230 0.62030 0.13000
O 	O 	0.60130 0.82780 0.68660 -0.03800
C 	C 	0.49170 0.82500 0.67570 -0.23200
C 	C 	0.48300 0.91400 0.69140 0.17600
H 	H 	0.51460 0.94010 0.69690 0.00500
H 	H 	0.46880 0.95960 0.67720 -0.02100
C 	C 	0.45360 0.91700 0.71760 -0.34000
H 	H 	0.47170 0.88280 0.73320 0.15900
H 	H 	0.42520 0.87670 0.71340 0.13100
C 	C 	0.43650 0.00500 0.73040 0.12600
H 	H 	0.41910 0.03920 0.71460 -0.01900
H 	H 	0.46510 0.04420 0.73480 -0.04000
C 	C 	0.40710 0.01000 0.75570 -0.21800
H 	H 	0.37500 0.98880 0.74940 0.08900
H 	H 	0.41910 0.96060 0.76960 0.08700
C 	C 	0.40000 0.09600 0.77270 -0.09500
H 	H 	0.37830 0.08200 0.78910 0.03300
H 	H 	0.43080 0.11830 0.78050 -0.03400
H 	H 	0.38620 0.14670 0.76020 0.03400
C 	C 	0.31050 0.80500 0.82690 0.08400
C 	C 	0.33090 0.77700 0.80010 -0.15000
H 	H 	0.36460 0.77700 0.79810 -0.09100
C 	C 	0.30240 0.75000 0.77600 -0.34000
C 	C 	0.25290 0.74900 0.77890 0.59900
H 	H 	0.23350 0.73020 0.76280 -0.10500
C 	C 	0.23170 0.77600 0.80500 -0.36400
H 	H 	0.19790 0.77670 0.80680 0.17800
C 	C 	0.26030 0.80300 0.82890 0.24600
C 	C 	0.23890 0.82700 0.85600 -0.24900
C 	C 	0.18900 0.82700 0.85920 -0.12700
H 	H 	0.16950 0.80950 0.84290 0.09600
C 	C 	0.16780 0.85200 0.88570 0.11100
H 	H 	0.13400 0.85610 0.88720 -0.02900
C 	C 	0.19600 0.87230 0.91020 -0.08100
H 	H 	0.18150 0.88580 0.92870 0.03400
C 	C 	0.24560 0.87200 0.90750 0.09700
H 	H 	0.26480 0.89050 0.92380 0.06400
C 	C 	0.26740 0.84600 0.88060 0.07300
C 	C 	0.31860 0.84600 0.87890 -0.00800
C 	C 	0.34770 0.86200 0.90390 -0.03100
H 	H 	0.33290 0.87580 0.92220 0.04900
C 	C 	0.39720 0.85700 0.90250 -0.01500
H 	H 	0.41580 0.85860 0.92000 0.01600
C 	C 	0.41930 0.85100 0.87460 0.00100
H 	H 	0.45270 0.86070 0.87250 0.01400
C 	C 	0.39070 0.82900 0.85010 -0.04900
H 	H 	0.40580 0.81290 0.83200 -0.18200
C 	C 	0.34000 0.83100 0.85120 0.02000
C 	C 	0.37400 0.67700 0.74690 0.44700
C 	C 	0.38360 0.63300 0.71950 -0.77600
H 	H 	0.38970 0.68690 0.70550 0.24100
H 	H 	0.35370 0.60150 0.71310 0.22700
C 	C 	0.41910 0.56800 0.71550 0.68200
H 	H 	0.44830 0.59370 0.72500 -0.03900
H 	H 	0.41020 0.50790 0.72630 0.03900
C 	C 	0.43190 0.54000 0.68450 -1.46900
H 	H 	0.44720 0.59580 0.67480 0.50200
H 	H 	0.40200 0.52530 0.67360 0.45100
C 	C 	0.46380 0.45600 0.68180 1.01000
H 	H 	0.46280 0.43340 0.66110 -0.21100
H 	H 	0.49670 0.47800 0.68580 -0.19400
C 	C 	0.45440 0.37100 0.70080 -1.91400
H 	H 	0.45130 0.39280 0.72150 0.48000
H 	H 	0.42380 0.34090 0.69490 0.50300
C 	C 	0.49330 0.29600 0.69890 1.70800
H 	H 	0.52200 0.32040 0.70930 -0.81900
H 	H 	0.50180 0.28560 0.67800 -0.46500
C 	C 	0.47900 0.20100 0.71230 -1.87700
H 	H 	0.50570 0.15550 0.71160 0.56700
H 	H 	0.46910 0.21080 0.73280 0.47000
H 	H 	0.45190 0.17350 0.70120 0.56800
N 	N 	0.32570 0.71790 0.74940 -0.27500
H 	H 	0.30930 0.72360 0.73290 0.10800
O 	O 	0.40340 0.66600 0.76700 -0.22100
C 	C 	0.51570 0.75400 0.67240 0.35600
C 	C 	0.46070 0.75400 0.67620 0.20600
C 	C 	0.43850 0.68900 0.69260 -0.55800
H 	H 	0.40740 0.68670 0.68220 0.12100
H 	H 	0.43220 0.72860 0.71030 0.22000
C 	C 	0.43800 0.60300 0.70440 0.39300
H 	H 	0.47330 0.59190 0.70630 0.21300
H 	H 	0.42800 0.61950 0.72460 -0.13000
C 	C 	0.42400 0.51300 0.70280 -0.19600
H 	H 	0.42120 0.49590 0.72400 -0.15800
H 	H 	0.39000 0.52250 0.69660 0.03300
C 	C 	0.43300 0.42800 0.69130 1.15700
H 	H 	0.42120 0.37670 0.70450 -0.13900
H 	H 	0.41650 0.42230 0.67220 -0.38500
H 	H 	0.46720 0.42090 0.68850 -0.29300
C 	C 	0.74610 0.68720 0.15470 0.27800
C 	C 	0.69680 0.68820 0.15810 -0.16700
H 	H 	0.68320 0.70740 0.17640 0.08900
C 	C 	0.66730 0.66110 0.13490 0.36100
C 	C 	0.68750 0.64090 0.10750 -0.29100
H 	H 	0.66740 0.62630 0.09120 0.10900
C 	C 	0.73660 0.64190 0.10380 0.10900
H 	H 	0.75000 0.62760 0.08510 -0.16600
C 	C 	0.76630 0.66400 0.12760 -0.07500
C 	C 	0.81620 0.66300 0.12450 0.02200
C 	C 	0.83680 0.64700 0.09690 -0.02400
H 	H 	0.81700 0.64180 0.08000 -0.01900
C 	C 	0.88580 0.63800 0.09380 -0.00700
H 	H 	0.89930 0.62130 0.07530 0.01000
C 	C 	0.91520 0.65400 0.11820 -0.04500
H 	H 	0.94890 0.65540 0.11590 0.01400
C 	C 	0.89490 0.66700 0.14590 -0.00600
H 	H 	0.91460 0.66730 0.16290 -0.05200
C 	C 	0.84520 0.67900 0.14890 -0.06200
C 	C 	0.82450 0.70000 0.17650 0.21400
C 	C 	0.85290 0.71800 0.20150 0.21100
H 	H 	0.88660 0.71150 0.20020 -0.27600
C 	C 	0.83200 0.74420 0.22800 0.12700
H 	H 	0.85140 0.75460 0.24480 -0.20700
C 	C 	0.78260 0.75570 0.23010 0.17300
H 	H 	0.76840 0.77620 0.24810 -0.05200
C 	C 	0.75430 0.73670 0.20560 -0.21000
H 	H 	0.72060 0.74240 0.20700 -0.10600
C 	C 	0.77520 0.70900 0.17890 -0.44500
C 	C 	0.58480 0.67080 0.16100 -0.20800
C 	C 	0.53320 0.67280 0.15400 0.80200
N 	N 	0.61700 0.66280 0.13740 -0.21000
H 	H 	0.60260 0.65770 0.12030 0.09400
O 	O 	0.60130 0.67220 0.18660 -0.10900
C 	C 	0.49170 0.67500 0.17570 -5.86300
C 	C 	0.48300 0.58600 0.19140 14.02100
H 	H 	0.51460 0.55990 0.19690 -3.83600
H 	H 	0.46880 0.54040 0.17720 -3.74200
C 	C 	0.45360 0.58300 0.21760 -20.97900
H 	H 	0.47170 0.61720 0.23320 5.76000
H 	H 	0.42520 0.62330 0.21340 5.75300
C 	C 	0.43650 0.49500 0.23040 26.45600
H 	H 	0.41910 0.46080 0.21460 -7.30000
H 	H 	0.46510 0.45580 0.23480 -7.22200
C 	C 	0.40710 0.49000 0.25570 -28.85300
H 	H 	0.37500 0.51120 0.24940 8.21200
H 	H 	0.41910 0.53940 0.26960 8.06800
C 	C 	0.40000 0.40400 0.27270 28.22600
H 	H 	0.37830 0.41800 0.28910 -8.31400
H 	H 	0.43080 0.38170 0.28050 -7.92100
H 	H 	0.38620 0.35330 0.26020 -7.95600
C 	C 	0.31050 0.69500 0.32690 0.12600
C 	C 	0.33090 0.72300 0.30010 -0.52600
H 	H 	0.36460 0.72300 0.29810 0.12700
C 	C 	0.30240 0.75000 0.27600 -0.09000
C 	C 	0.25290 0.75100 0.27890 -0.00600
H 	H 	0.23350 0.76980 0.26280 0.03600
C 	C 	0.23170 0.72400 0.30500 0.45100
H 	H 	0.19790 0.72330 0.30680 -0.11800
C 	C 	0.26030 0.69700 0.32890 0.19700
C 	C 	0.23890 0.67300 0.35600 -0.20000
C 	C 	0.18900 0.67300 0.35920 -0.24100
H 	H 	0.16950 0.69050 0.34290 0.10100
C 	C 	0.16780 0.64800 0.38570 0.06500
H 	H 	0.13400 0.64390 0.38720 -0.02800
C 	C 	0.19600 0.62770 0.41020 0.02400
H 	H 	0.18150 0.61420 0.42870 -0.00300
C 	C 	0.24560 0.62800 0.40750 0.10200
H 	H 	0.26480 0.60950 0.42380 0.09100
C 	C 	0.26740 0.65400 0.38060 0.03500
C 	C 	0.31860 0.65400 0.37890 0.02800
C 	C 	0.34770 0.63800 0.40390 -0.04700
H 	H 	0.33290 0.62420 0.42220 0.06400
C 	C 	0.39720 0.64300 0.40250 -0.00600
H 	H 	0.41580 0.64140 0.42000 0.01500
C 	C 	0.41930 0.64900 0.37460 -0.01000
H 	H 	0.45270 0.63930 0.37250 0.04300
C 	C 	0.39070 0.67100 0.35010 0.02900
H 	H 	0.40580 0.68710 0.33200 0.05100
C 	C 	0.34000 0.66900 0.35120 -0.05500
C 	C 	0.37400 0.82300 0.24690 0.59300
C 	C 	0.38360 0.86700 0.21950 -1.51900
H 	H 	0.38970 0.81310 0.20550 0.47400
H 	H 	0.35370 0.89850 0.21310 0.49400
C 	C 	0.41910 0.93200 0.21550 2.14900
H 	H 	0.44830 0.90630 0.22500 -0.31300
H 	H 	0.41020 0.99210 0.22630 -1.03200
C 	C 	0.43190 0.96000 0.18450 -1.98000
H 	H 	0.44720 0.90420 0.17480 0.78200
H 	H 	0.40200 0.97470 0.17360 0.60900
C 	C 	0.46380 0.04400 0.18180 0.31900
H 	H 	0.46280 0.06660 0.16110 -0.09700
H 	H 	0.49670 0.02200 0.18580 -0.25700
C 	C 	0.45440 0.12900 0.20080 -1.75200
H 	H 	0.45130 0.10720 0.22150 0.48400
H 	H 	0.42380 0.15910 0.19490 0.28300
C 	C 	0.49330 0.20400 0.19890 1.79700
H 	H 	0.52200 0.17960 0.20930 -0.50400
H 	H 	0.50180 0.21440 0.17800 -0.49300
C 	C 	0.47900 0.29900 0.21230 -2.65300
H 	H 	0.50570 0.34450 0.21160 1.23300
H 	H 	0.46910 0.28920 0.23280 1.28400
H 	H 	0.45190 0.32650 0.20120 1.30600
N 	N 	0.32570 0.78210 0.24940 -0.23700
H 	H 	0.30930 0.77640 0.23290 0.02400
O 	O 	0.40340 0.83400 0.26700 -0.46600
C 	C 	0.51570 0.74600 0.17240 1.87500
C 	C 	0.46070 0.74600 0.17620 1.33600
C 	C 	0.43850 0.81100 0.19260 -0.04300
H 	H 	0.40740 0.81330 0.18220 -0.11500
H 	H 	0.43220 0.77140 0.21030 -0.32100
C 	C 	0.43800 0.89700 0.20440 -2.07300
H 	H 	0.47330 0.90810 0.20630 0.53600
H 	H 	0.42800 0.88050 0.22460 0.22900
C 	C 	0.42400 0.98700 0.20280 2.02400
H 	H 	0.42120 0.00410 0.22400 0.01000
H 	H 	0.39000 0.97750 0.19660 -0.59000
C 	C 	0.43300 0.07200 0.19130 -1.45600
H 	H 	0.42120 0.12330 0.20450 0.79300
H 	H 	0.41650 0.07770 0.17220 0.44100
H 	H 	0.46720 0.07910 0.18850 0.89100
C 	C 	0.24610 0.68720 0.34530 0.28100
C 	C 	0.19680 0.68820 0.34190 -0.17000
H 	H 	0.18320 0.70740 0.32360 0.09200
C 	C 	0.16730 0.66110 0.36510 0.36600
C 	C 	0.18750 0.64090 0.39250 -0.29300
H 	H 	0.16740 0.62630 0.40880 0.10900
C 	C 	0.23660 0.64190 0.39620 0.10900
H 	H 	0.25000 0.62760 0.41490 -0.16700
C 	C 	0.26630 0.66400 0.37240 -0.07500
C 	C 	0.31620 0.66300 0.37550 0.02200
C 	C 	0.33680 0.64700 0.40310 -0.02400
H 	H 	0.31700 0.64180 0.42000 -0.01900
C 	C 	0.38580 0.63800 0.40620 -0.00700
H 	H 	0.39930 0.62130 0.42470 0.01000
C 	C 	0.41520 0.65400 0.38180 -0.04500
H 	H 	0.44890 0.65540 0.38410 0.01300
C 	C 	0.39490 0.66700 0.35410 -0.00500
H 	H 	0.41460 0.66730 0.33710 -0.06300
C 	C 	0.34520 0.67900 0.35110 -0.06300
C 	C 	0.32450 0.70000 0.32350 0.21700
C 	C 	0.35290 0.71800 0.29850 0.21700
H 	H 	0.38660 0.71150 0.29980 -0.29000
C 	C 	0.33200 0.74420 0.27200 0.12800
H 	H 	0.35140 0.75460 0.25520 -0.21900
C 	C 	0.28260 0.75570 0.26990 0.17700
H 	H 	0.26840 0.77620 0.25190 -0.05400
C 	C 	0.25430 0.73670 0.29440 -0.21600
H 	H 	0.22060 0.74240 0.29300 -0.10500
C 	C 	0.27520 0.70900 0.32110 -0.45000
C 	C 	0.08480 0.67080 0.33900 -0.18900
C 	C 	0.03320 0.67280 0.34600 0.76200
N 	N 	0.11700 0.66280 0.36260 -0.21300
H 	H 	0.10260 0.65770 0.37970 0.09600
O 	O 	0.10130 0.67220 0.31340 -0.10600
C 	C 	0.99170 0.67500 0.32430 -5.61500
C 	C 	0.98300 0.58600 0.30860 13.41200
H 	H 	0.01460 0.55990 0.30310 -3.66700
H 	H 	0.96880 0.54040 0.32280 -3.57800
C 	C 	0.95360 0.58300 0.28240 -20.07200
H 	H 	0.97170 0.61720 0.26680 5.51300
H 	H 	0.92520 0.62330 0.28660 5.50600
C 	C 	0.93650 0.49500 0.26960 25.29900
H 	H 	0.91910 0.46080 0.28540 -6.98000
H 	H 	0.96510 0.45580 0.26520 -6.90700
C 	C 	0.90710 0.49000 0.24430 -27.59500
H 	H 	0.87500 0.51120 0.25060 7.85600
H 	H 	0.91910 0.53940 0.23040 7.71700
C 	C 	0.90000 0.40400 0.22730 26.98100
H 	H 	0.87830 0.41800 0.21090 -7.94700
H 	H 	0.93080 0.38170 0.21950 -7.57400
H 	H 	0.88620 0.35330 0.23980 -7.60500
C 	C 	0.81050 0.69500 0.17310 0.12200
C 	C 	0.83090 0.72300 0.19990 -0.51300
H 	H 	0.86460 0.72300 0.20190 0.12300
C 	C 	0.80240 0.75000 0.22400 -0.08700
C 	C 	0.75290 0.75100 0.22110 -0.00800
H 	H 	0.73350 0.76980 0.23720 0.03200
C 	C 	0.73170 0.72400 0.19500 0.44500
H 	H 	0.69790 0.72330 0.19320 -0.11900
C 	C 	0.76030 0.69700 0.17110 0.19400
C 	C 	0.73890 0.67300 0.14400 -0.19800
C 	C 	0.68900 0.67300 0.14080 -0.24000
H 	H 	0.66950 0.69050 0.15710 0.10000
C 	C 	0.66780 0.64800 0.11430 0.06600
H 	H 	0.63400 0.64390 0.11280 -0.02800
C 	C 	0.69600 0.62770 0.08980 0.02200
H 	H 	0.68150 0.61420 0.07130 -0.00200
C 	C 	0.74560 0.62800 0.09250 0.10200
H 	H 	0.76480 0.60950 0.07620 0.09100
C 	C 	0.76740 0.65400 0.11940 0.03500
C 	C 	0.81860 0.65400 0.12110 0.02700
C 	C 	0.84770 0.63800 0.09610 -0.04700
H 	H 	0.83290 0.62420 0.07780 0.06300
C 	C 	0.89720 0.64300 0.09750 -0.00600
H 	H 	0.91580 0.64140 0.08000 0.01500
C 	C 	0.91930 0.64900 0.12540 -0.01000
H 	H 	0.95270 0.63930 0.12750 0.04200
C 	C 	0.89070 0.67100 0.14990 0.02700
H 	H 	0.90580 0.68710 0.16800 0.04300
C 	C 	0.84000 0.66900 0.14880 -0.05300
C 	C 	0.87400 0.82300 0.25310 0.58300
C 	C 	0.88360 0.86700 0.28050 -1.48300
H 	H 	0.88970 0.81310 0.29450 0.46200
H 	H 	0.85370 0.89850 0.28690 0.48100
C 	C 	0.91910 0.93200 0.28450 2.08100
H 	H 	0.94830 0.90630 0.27500 -0.30000
H 	H 	0.91020 0.99210 0.27370 -0.98500
C 	C 	0.93190 0.96000 0.31550 -1.95100
H 	H 	0.94720 0.90420 0.32520 0.76700
H 	H 	0.90200 0.97470 0.32640 0.60000
C 	C 	0.96380 0.04400 0.31820 0.34800
H 	H 	0.96280 0.06660 0.33890 -0.10200
H 	H 	0.99670 0.02200 0.31420 -0.25400
C 	C 	0.95440 0.12900 0.29920 -1.75200
H 	H 	0.95130 0.10720 0.27850 0.48200
H 	H 	0.92380 0.15910 0.30510 0.29100
C 	C 	0.99330 0.20400 0.30110 1.78700
H 	H 	0.02200 0.17960 0.29070 -0.51600
H 	H 	0.00180 0.21440 0.32200 -0.48900
C 	C 	0.97900 0.29900 0.28770 -2.61400
H 	H 	0.00570 0.34450 0.28840 1.20300
H 	H 	0.96910 0.28920 0.26720 1.24700
H 	H 	0.95190 0.32650 0.29880 1.27200
N 	N 	0.82570 0.78210 0.25060 -0.24000
H 	H 	0.80930 0.77640 0.26710 0.02800
O 	O 	0.90340 0.83400 0.23300 -0.45400
C 	C 	0.01570 0.74600 0.32760 1.80700
C 	C 	0.96070 0.74600 0.32380 1.28700
C 	C 	0.93850 0.81100 0.30740 -0.06600
H 	H 	0.90740 0.81330 0.31780 -0.10400
H 	H 	0.93220 0.77140 0.28970 -0.29700
C 	C 	0.93800 0.89700 0.29560 -1.96400
H 	H 	0.97330 0.90810 0.29370 0.52100
H 	H 	0.92800 0.88050 0.27540 0.21300
C 	C 	0.92400 0.98700 0.29720 1.92400
H 	H 	0.92120 0.00410 0.27600 0.00500
H 	H 	0.89000 0.97750 0.30340 -0.56200
C 	C 	0.93300 0.07200 0.30870 -1.34500
H 	H 	0.92120 0.12330 0.29550 0.75200
H 	H 	0.91650 0.07770 0.32780 0.40600
H 	H 	0.96720 0.07910 0.31150 0.83800
C 	C 	0.75390 0.31280 0.65470 0.28100
C 	C 	0.80320 0.31180 0.65810 -0.17000
H 	H 	0.81680 0.29260 0.67640 0.09200
C 	C 	0.83270 0.33890 0.63490 0.36600
C 	C 	0.81250 0.35910 0.60750 -0.29300
H 	H 	0.83260 0.37370 0.59120 0.10900
C 	C 	0.76340 0.35810 0.60380 0.10900
H 	H 	0.75000 0.37240 0.58510 -0.16700
C 	C 	0.73370 0.33600 0.62760 -0.07500
C 	C 	0.68380 0.33700 0.62450 0.02200
C 	C 	0.66320 0.35300 0.59690 -0.02400
H 	H 	0.68300 0.35820 0.58000 -0.01900
C 	C 	0.61420 0.36200 0.59380 -0.00700
H 	H 	0.60070 0.37870 0.57530 0.01000
C 	C 	0.58480 0.34600 0.61820 -0.04500
H 	H 	0.55110 0.34460 0.61590 0.01300
C 	C 	0.60510 0.33300 0.64590 -0.00500
H 	H 	0.58540 0.33270 0.66290 -0.06300
C 	C 	0.65480 0.32100 0.64890 -0.06300
C 	C 	0.67550 0.30000 0.67650 0.21700
C 	C 	0.64710 0.28200 0.70150 0.21700
H 	H 	0.61340 0.28850 0.70020 -0.29000
C 	C 	0.66800 0.25580 0.72800 0.12800
H 	H 	0.64860 0.24540 0.74480 -0.21900
C 	C 	0.71740 0.24430 0.73010 0.17700
H 	H 	0.73160 0.22380 0.74810 -0.05400
C 	C 	0.74570 0.26330 0.70560 -0.21600
H 	H 	0.77940 0.25760 0.70700 -0.10500
C 	C 	0.72480 0.29100 0.67890 -0.45000
C 	C 	0.91520 0.32920 0.66100 -0.18900
C 	C 	0.96680 0.32720 0.65400 0.76200
N 	N 	0.88300 0.33720 0.63740 -0.21300
H 	H 	0.89740 0.34230 0.62030 0.09600
O 	O 	0.89870 0.32780 0.68660 -0.10600
C 	C 	0.00830 0.32500 0.67570 -5.61500
C 	C 	0.01700 0.41400 0.69140 13.41200
H 	H 	0.98540 0.44010 0.69690 -3.66700
H 	H 	0.03120 0.45960 0.67720 -3.57800
C 	C 	0.04640 0.41700 0.71760 -20.07200
H 	H 	0.02830 0.38280 0.73320 5.51300
H 	H 	0.07480 0.37670 0.71340 5.50600
C 	C 	0.06350 0.50500 0.73040 25.29900
H 	H 	0.08090 0.53920 0.71460 -6.98000
H 	H 	0.03490 0.54420 0.73480 -6.90700
C 	C 	0.09290 0.51000 0.75570 -27.59500
H 	H 	0.12500 0.48880 0.74940 7.85600
H 	H 	0.08090 0.46060 0.76960 7.71700
C 	C 	0.10000 0.59600 0.77270 26.98100
H 	H 	0.12170 0.58200 0.78910 -7.94700
H 	H 	0.06920 0.61830 0.78050 -7.57400
H 	H 	0.11380 0.64670 0.76020 -7.60500
C 	C 	0.18950 0.30500 0.82690 0.12200
C 	C 	0.16910 0.27700 0.80010 -0.51300
H 	H 	0.13540 0.27700 0.79810 0.12300
C 	C 	0.19760 0.25000 0.77600 -0.08700
C 	C 	0.24710 0.24900 0.77890 -0.00800
H 	H 	0.26650 0.23020 0.76280 0.03200
C 	C 	0.26830 0.27600 0.80500 0.44500
H 	H 	0.30210 0.27670 0.80680 -0.11900
C 	C 	0.23970 0.30300 0.82890 0.19400
C 	C 	0.26110 0.32700 0.85600 -0.19800
C 	C 	0.31100 0.32700 0.85920 -0.24000
H 	H 	0.33050 0.30950 0.84290 0.10000
C 	C 	0.33220 0.35200 0.88570 0.06600
H 	H 	0.36600 0.35610 0.88720 -0.02800
C 	C 	0.30400 0.37230 0.91020 0.02200
H 	H 	0.31850 0.38580 0.92870 -0.00200
C 	C 	0.25440 0.37200 0.90750 0.10200
H 	H 	0.23520 0.39050 0.92380 0.09100
C 	C 	0.23260 0.34600 0.88060 0.03500
C 	C 	0.18140 0.34600 0.87890 0.02700
C 	C 	0.15230 0.36200 0.90390 -0.04700
H 	H 	0.16710 0.37580 0.92220 0.06300
C 	C 	0.10280 0.35700 0.90250 -0.00600
H 	H 	0.08420 0.35860 0.92000 0.01500
C 	C 	0.08070 0.35100 0.87460 -0.01000
H 	H 	0.04730 0.36070 0.87250 0.04200
C 	C 	0.10930 0.32900 0.85010 0.02700
H 	H 	0.09420 0.31290 0.83200 0.04300
C 	C 	0.16000 0.33100 0.85120 -0.05300
C 	C 	0.12600 0.17700 0.74690 0.58300
C 	C 	0.11640 0.13300 0.71950 -1.48300
H 	H 	0.11030 0.18690 0.70550 0.46200
H 	H 	0.14630 0.10150 0.71310 0.48100
C 	C 	0.08090 0.06800 0.71550 2.08100
H 	H 	0.05170 0.09370 0.72500 -0.30000
H 	H 	0.08980 0.00790 0.72630 -0.98500
C 	C 	0.06810 0.04000 0.68450 -1.95100
H 	H 	0.05280 0.09580 0.67480 0.76700
H 	H 	0.09800 0.02530 0.67360 0.60000
C 	C 	0.03620 0.95600 0.68180 0.34800
H 	H 	0.03720 0.93340 0.66110 -0.10200
H 	H 	0.00330 0.97800 0.68580 -0.25400
C 	C 	0.04560 0.87100 0.70080 -1.75200
H 	H 	0.04870 0.89280 0.72150 0.48200
H 	H 	0.07620 0.84090 0.69490 0.29100
C 	C 	0.00670 0.79600 0.69890 1.78700
H 	H 	0.97800 0.82040 0.70930 -0.51600
H 	H 	0.99820 0.78560 0.67800 -0.48900
C 	C 	0.02100 0.70100 0.71230 -2.61400
H 	H 	0.99430 0.65550 0.71160 1.20300
H 	H 	0.03090 0.71080 0.73280 1.24700
H 	H 	0.04810 0.67350 0.70120 1.27200
N 	N 	0.17430 0.21790 0.74940 -0.24000
H 	H 	0.19070 0.22360 0.73290 0.02800
O 	O 	0.09660 0.16600 0.76700 -0.45400
C 	C 	0.98430 0.25400 0.67240 1.80700
C 	C 	0.03930 0.25400 0.67620 1.28700
C 	C 	0.06150 0.18900 0.69260 -0.06600
H 	H 	0.09260 0.18670 0.68220 -0.10400
H 	H 	0.06780 0.22860 0.71030 -0.29700
C 	C 	0.06200 0.10300 0.70440 -1.96400
H 	H 	0.02670 0.09190 0.70630 0.52100
H 	H 	0.07200 0.11950 0.72460 0.21300
C 	C 	0.07600 0.01300 0.70280 1.92400
H 	H 	0.07880 0.99590 0.72400 0.00500
H 	H 	0.11000 0.02250 0.69660 -0.56200
C 	C 	0.06700 0.92800 0.69130 -1.34500
H 	H 	0.07880 0.87670 0.70450 0.75200
H 	H 	0.08350 0.92230 0.67220 0.40600
H 	H 	0.03280 0.92090 0.68850 0.83800
C 	C 	0.25390 0.31280 0.84530 0.27800
C 	C 	0.30320 0.31180 0.84190 -0.16700
H 	H 	0.31680 0.29260 0.82360 0.08900
C 	C 	0.33270 0.33890 0.86510 0.36100
C 	C 	0.31250 0.35910 0.89250 -0.29100
H 	H 	0.33260 0.37370 0.90880 0.10900
C 	C 	0.26340 0.35810 0.89620 0.10900
H 	H 	0.25000 0.37240 0.91490 -0.16600
C 	C 	0.23370 0.33600 0.87240 -0.07500
C 	C 	0.18380 0.33700 0.87550 0.02200
C 	C 	0.16320 0.35300 0.90310 -0.02400
H 	H 	0.18300 0.35820 0.92000 -0.01900
C 	C 	0.11420 0.36200 0.90620 -0.00700
H 	H 	0.10070 0.37870 0.92470 0.01000
C 	C 	0.08480 0.34600 0.88180 -0.04500
H 	H 	0.05110 0.34460 0.88410 0.01400
C 	C 	0.10510 0.33300 0.85410 -0.00600
H 	H 	0.08540 0.33270 0.83710 -0.05200
C 	C 	0.15480 0.32100 0.85110 -0.06200
C 	C 	0.17550 0.30000 0.82350 0.21400
C 	C 	0.14710 0.28200 0.79850 0.21100
H 	H 	0.11340 0.28850 0.79980 -0.27600
C 	C 	0.16800 0.25580 0.77200 0.12700
H 	H 	0.14860 0.24540 0.75520 -0.20700
C 	C 	0.21740 0.24430 0.76990 0.17300
H 	H 	0.23160 0.22380 0.75190 -0.05200
C 	C 	0.24570 0.26330 0.79440 -0.21000
H 	H 	0.27940 0.25760 0.79300 -0.10600
C 	C 	0.22480 0.29100 0.82110 -0.44500
C 	C 	0.41520 0.32920 0.83900 -0.20800
C 	C 	0.46680 0.32720 0.84600 0.80200
N 	N 	0.38300 0.33720 0.86260 -0.21000
H 	H 	0.39740 0.34230 0.87970 0.09400
O 	O 	0.39870 0.32780 0.81340 -0.10900
C 	C 	0.50830 0.32500 0.82430 -5.86300
C 	C 	0.51700 0.41400 0.80860 14.02100
H 	H 	0.48540 0.44010 0.80310 -3.83600
H 	H 	0.53120 0.45960 0.82280 -3.74200
C 	C 	0.54640 0.41700 0.78240 -20.97900
H 	H 	0.52830 0.38280 0.76680 5.76000
H 	H 	0.57480 0.37670 0.78660 5.75300
C 	C 	0.56350 0.50500 0.76960 26.45600
H 	H 	0.58090 0.53920 0.78540 -7.30000
H 	H 	0.53490 0.54420 0.76520 -7.22200
C 	C 	0.59290 0.51000 0.74430 -28.85300
H 	H 	0.62500 0.48880 0.75060 8.21200
H 	H 	0.58090 0.46060 0.73040 8.06800
C 	C 	0.60000 0.59600 0.72730 28.22600
H 	H 	0.62170 0.58200 0.71090 -8.31400
H 	H 	0.56920 0.61830 0.71950 -7.92100
H 	H 	0.61380 0.64670 0.73980 -7.95600
C 	C 	0.68950 0.30500 0.67310 0.12600
C 	C 	0.66910 0.27700 0.69990 -0.52600
H 	H 	0.63540 0.27700 0.70190 0.12700
C 	C 	0.69760 0.25000 0.72400 -0.09000
C 	C 	0.74710 0.24900 0.72110 -0.00600
H 	H 	0.76650 0.23020 0.73720 0.03600
C 	C 	0.76830 0.27600 0.69500 0.45100
H 	H 	0.80210 0.27670 0.69320 -0.11800
C 	C 	0.73970 0.30300 0.67110 0.19700
C 	C 	0.76110 0.32700 0.64400 -0.20000
C 	C 	0.81100 0.32700 0.64080 -0.24100
H 	H 	0.83050 0.30950 0.65710 0.10100
C 	C 	0.83220 0.35200 0.61430 0.06500
H 	H 	0.86600 0.35610 0.61280 -0.02800
C 	C 	0.80400 0.37230 0.58980 0.02400
H 	H 	0.81850 0.38580 0.57130 -0.00300
C 	C 	0.75440 0.37200 0.59250 0.10200
H 	H 	0.73520 0.39050 0.57620 0.09100
C 	C 	0.73260 0.34600 0.61940 0.03500
C 	C 	0.68140 0.34600 0.62110 0.02800
C 	C 	0.65230 0.36200 0.59610 -0.04700
H 	H 	0.66710 0.37580 0.57780 0.06400
C 	C 	0.60280 0.35700 0.59750 -0.00600
H 	H 	0.58420 0.35860 0.58000 0.01500
C 	C 	0.58070 0.35100 0.62540 -0.01000
H 	H 	0.54730 0.36070 0.62750 0.04300
C 	C 	0.60930 0.32900 0.64990 0.02900
H 	H 	0.59420 0.31290 0.66800 0.05100
C 	C 	0.66000 0.33100 0.64880 -0.05500
C 	C 	0.62600 0.17700 0.75310 0.59300
C 	C 	0.61640 0.13300 0.78050 -1.51900
H 	H 	0.61030 0.18690 0.79450 0.47400
H 	H 	0.64630 0.10150 0.78690 0.49400
C 	C 	0.58090 0.06800 0.78450 2.14900
H 	H 	0.55170 0.09370 0.77500 -0.31300
H 	H 	0.58980 0.00790 0.77370 -1.03200
C 	C 	0.56810 0.04000 0.81550 -1.98000
H 	H 	0.55280 0.09580 0.82520 0.78200
H 	H 	0.59800 0.02530 0.82640 0.60900
C 	C 	0.53620 0.95600 0.81820 0.31900
H 	H 	0.53720 0.93340 0.83890 -0.09700
H 	H 	0.50330 0.97800 0.81420 -0.25700
C 	C 	0.54560 0.87100 0.79920 -1.75200
H 	H 	0.54870 0.89280 0.77850 0.48400
H 	H 	0.57620 0.84090 0.80510 0.28300
C 	C 	0.50670 0.79600 0.80110 1.79700
H 	H 	0.47800 0.82040 0.79070 -0.50400
H 	H 	0.49820 0.78560 0.82200 -0.49300
C 	C 	0.52100 0.70100 0.78770 -2.65300
H 	H 	0.49430 0.65550 0.78840 1.23300
H 	H 	0.53090 0.71080 0.76720 1.28400
H 	H 	0.54810 0.67350 0.79880 1.30600
N 	N 	0.67430 0.21790 0.75060 -0.23700
H 	H 	0.69070 0.22360 0.76710 0.02400
O 	O 	0.59660 0.16600 0.73300 -0.46600
C 	C 	0.48430 0.25400 0.82760 1.87500
C 	C 	0.53930 0.25400 0.82380 1.33600
C 	C 	0.56150 0.18900 0.80740 -0.04300
H 	H 	0.59260 0.18670 0.81780 -0.11500
H 	H 	0.56780 0.22860 0.78970 -0.32100
C 	C 	0.56200 0.10300 0.79560 -2.07300
H 	H 	0.52670 0.09190 0.79370 0.53600
H 	H 	0.57200 0.11950 0.77540 0.22900
C 	C 	0.57600 0.01300 0.79720 2.02400
H 	H 	0.57880 0.99590 0.77600 0.01000
H 	H 	0.61000 0.02250 0.80340 -0.59000
C 	C 	0.56700 0.92800 0.80870 -1.45600
H 	H 	0.57880 0.87670 0.79550 0.79300
H 	H 	0.58350 0.92230 0.82780 0.44100
H 	H 	0.53280 0.92090 0.81150 0.89100
