data_crystal

_cell_length_a 13.67280
_cell_length_b 45.59870
_cell_length_c 28.45760
_cell_angle_alpha 90.00000
_cell_angle_beta  90.00000
_cell_angle_gamma 90.00000

_symmetry_space_group_name_	'P 1'
_symmetry_space_group_name_H-M	'P 1'

loop_
_symmetry_equiv_pos_as_xyz
  x,y,z

loop_
_atom_site_label
_atom_site_type_symbol
_atom_site_fract_x
_atom_site_fract_y
_atom_site_fract_z
_atom_site_charge
Zn	Zn	0.33055 0.56823 0.56324 1.16300
Zn	Zn	0.63817 0.81006 0.75686 1.16600
Zn	Zn	0.34718 0.58737 0.02618 1.16400
I 	I 	0.40234 0.59660 0.49538 -0.36900
I 	I 	0.15060 0.55533 0.57667 -0.37700
I 	I 	0.80099 0.80327 0.79881 -0.37600
I 	I 	0.63409 0.82470 0.67096 -0.37400
I 	I 	0.27007 0.53743 0.01020 -0.39100
I 	I 	0.26145 0.62796 0.07173 -0.36500
C 	C 	0.41530 0.64139 0.74860 0.10300
C 	C 	0.45280 0.68484 0.78240 0.10300
C 	C 	0.41700 0.64556 0.82730 0.10000
C 	C 	0.40150 0.62402 0.70460 0.05600
C 	C 	0.37480 0.59473 0.70680 -0.12600
H 	H 	0.36710 0.58530 0.73630 0.08300
C 	C 	0.35980 0.57968 0.66600 0.08200
H 	H 	0.34200 0.55960 0.66800 -0.01900
C 	C 	0.39630 0.61983 0.62130 0.06300
H 	H 	0.40440 0.62850 0.59110 -0.00700
C 	C 	0.41340 0.63670 0.66050 -0.11600
H 	H 	0.43300 0.65660 0.65760 0.08100
C 	C 	0.48680 0.71569 0.77710 0.05300
C 	C 	0.48190 0.72957 0.73450 -0.10900
H 	H 	0.45210 0.72010 0.70840 0.08100
C 	C 	0.52080 0.75767 0.72980 0.05800
H 	H 	0.51660 0.76740 0.70030 0.00500
C 	C 	0.56660 0.75807 0.80750 0.06800
H 	H 	0.59540 0.76800 0.83340 -0.01100
C 	C 	0.52840 0.72999 0.81440 -0.11600
H 	H 	0.53120 0.72100 0.84450 0.08100
C 	C 	0.40690 0.63164 0.87410 0.05400
C 	C 	0.40730 0.64856 0.91500 -0.12000
H 	H 	0.41550 0.66920 0.91350 0.08300
C 	C 	0.39570 0.63470 0.95750 0.07400
H 	H 	0.39710 0.64630 0.98520 -0.01000
C 	C 	0.38270 0.58963 0.92230 0.06000
H 	H 	0.37350 0.56900 0.92470 -0.00100
C 	C 	0.39580 0.60202 0.87840 -0.11000
H 	H 	0.39710 0.58990 0.85120 0.08100
C 	C 	0.58260 0.45546 0.60750 0.10400
C 	C 	0.59140 0.41001 0.63830 0.10600
C 	C 	0.72540 0.43054 0.60660 0.10300
C 	C 	0.52410 0.48167 0.59460 0.05500
C 	C 	0.56050 0.50352 0.56650 -0.12000
H 	H 	0.62530 0.50240 0.55450 0.08800
C 	C 	0.50090 0.52739 0.55570 0.06800
H 	H 	0.52540 0.54220 0.53540 -0.00700
C 	C 	0.37440 0.50879 0.59850 0.07500
H 	H 	0.30830 0.51000 0.60860 -0.01200
C 	C 	0.42930 0.48431 0.61130 -0.11800
H 	H 	0.40210 0.46970 0.63120 0.07800
C 	C 	0.54070 0.38509 0.66040 0.05800
C 	C 	0.43950 0.38444 0.66190 -0.11100
H 	H 	0.40290 0.40000 0.64830 0.08200
C 	C 	0.39170 0.36131 0.68300 0.06700
H 	H 	0.32220 0.36070 0.68250 -0.00800
C 	C 	0.53780 0.33996 0.70280 0.07000
H 	H 	0.57230 0.32430 0.71710 -0.01300
C 	C 	0.59110 0.36240 0.68090 -0.11900
H 	H 	0.66050 0.36190 0.68030 0.07900
C 	C 	0.82860 0.42781 0.59070 0.05700
C 	C 	0.88340 0.40297 0.60110 -0.12200
H 	H 	0.85640 0.38810 0.62060 0.09300
C 	C 	0.97550 0.39973 0.58360 0.06500
H 	H 	0.01120 0.38250 0.59120 -0.00400
C 	C 	0.96580 0.44387 0.54670 0.08100
H 	H 	0.99500 0.45860 0.52770 -0.00800
C 	C 	0.87320 0.44859 0.56280 -0.13400
H 	H 	0.83950 0.46610 0.55480 0.08600
N 	N 	0.43820 0.67009 0.74220 -0.13800
N 	N 	0.44120 0.67415 0.82540 -0.13900
N 	N 	0.40440 0.62833 0.78930 -0.14000
N 	N 	0.36870 0.59164 0.62390 -0.27100
N 	N 	0.56420 0.77137 0.76610 -0.27200
N 	N 	0.38260 0.60608 0.96200 -0.27000
N 	N 	0.53670 0.43382 0.62790 -0.13800
N 	N 	0.68720 0.40754 0.62860 -0.13300
N 	N 	0.67920 0.45551 0.59570 -0.14000
N 	N 	0.41010 0.53017 0.57300 -0.27400
N 	N 	0.44040 0.33993 0.70410 -0.27300
N 	N 	0.01780 0.42002 0.55580 -0.27700
Zn	Zn	0.16945 0.43177 0.06324 1.16200
Zn	Zn	0.86183 0.18994 0.25686 1.16500
Zn	Zn	0.15282 0.41263 0.52618 1.16300
I 	I 	0.09766 0.40340 0.99538 -0.36900
I 	I 	0.34940 0.44467 0.07667 -0.37800
I 	I 	0.69901 0.19673 0.29881 -0.37700
I 	I 	0.86591 0.17530 0.17096 -0.37500
I 	I 	0.22993 0.46257 0.51020 -0.39200
I 	I 	0.23855 0.37204 0.57173 -0.36600
C 	C 	0.08470 0.35861 0.24860 0.10200
C 	C 	0.04720 0.31516 0.28240 0.10200
C 	C 	0.08300 0.35444 0.32730 0.09900
C 	C 	0.09850 0.37598 0.20460 0.05500
C 	C 	0.12520 0.40527 0.20680 -0.12700
H 	H 	0.13290 0.41470 0.23630 0.08200
C 	C 	0.14020 0.42032 0.16600 0.08100
H 	H 	0.15800 0.44040 0.16800 -0.02000
C 	C 	0.10370 0.38017 0.12130 0.06200
H 	H 	0.09560 0.37150 0.09110 -0.00800
C 	C 	0.08660 0.36330 0.16050 -0.11700
H 	H 	0.06700 0.34340 0.15760 0.08000
C 	C 	0.01320 0.28431 0.27710 0.05200
C 	C 	0.01810 0.27043 0.23450 -0.11000
H 	H 	0.04790 0.27990 0.20840 0.08000
C 	C 	0.97920 0.24233 0.22980 0.05700
H 	H 	0.98340 0.23260 0.20030 0.00400
C 	C 	0.93340 0.24193 0.30750 0.06700
H 	H 	0.90460 0.23200 0.33340 -0.01200
C 	C 	0.97160 0.27001 0.31440 -0.11700
H 	H 	0.96880 0.27900 0.34450 0.08000
C 	C 	0.09310 0.36836 0.37410 0.05300
C 	C 	0.09270 0.35144 0.41500 -0.12100
H 	H 	0.08450 0.33080 0.41350 0.08200
C 	C 	0.10430 0.36530 0.45750 0.07300
H 	H 	0.10290 0.35370 0.48520 -0.01100
C 	C 	0.11730 0.41037 0.42230 0.05900
H 	H 	0.12650 0.43100 0.42470 -0.00200
C 	C 	0.10420 0.39798 0.37840 -0.11100
H 	H 	0.10290 0.41010 0.35120 0.08000
C 	C 	0.91740 0.54454 0.10750 0.10300
C 	C 	0.90860 0.58999 0.13830 0.10500
C 	C 	0.77460 0.56946 0.10660 0.10100
C 	C 	0.97590 0.51833 0.09460 0.05500
C 	C 	0.93950 0.49648 0.06650 -0.12100
H 	H 	0.87470 0.49760 0.05450 0.08700
C 	C 	0.99910 0.47261 0.05570 0.06700
H 	H 	0.97460 0.45780 0.03540 -0.00700
C 	C 	0.12560 0.49121 0.09850 0.07500
H 	H 	0.19170 0.49000 0.10860 -0.01200
C 	C 	0.07070 0.51569 0.11130 -0.11900
H 	H 	0.09790 0.53030 0.13120 0.07800
C 	C 	0.95930 0.61491 0.16040 0.05900
C 	C 	0.06050 0.61556 0.16190 -0.11200
H 	H 	0.09710 0.60000 0.14830 0.08200
C 	C 	0.10830 0.63869 0.18300 0.06800
H 	H 	0.17780 0.63930 0.18250 -0.00800
C 	C 	0.96220 0.66004 0.20280 0.07100
H 	H 	0.92770 0.67570 0.21710 -0.01300
C 	C 	0.90890 0.63760 0.18090 -0.11900
H 	H 	0.83950 0.63810 0.18030 0.08000
C 	C 	0.67140 0.57219 0.09070 0.05700
C 	C 	0.61660 0.59703 0.10110 -0.12200
H 	H 	0.64360 0.61190 0.12060 0.09300
C 	C 	0.52450 0.60027 0.08360 0.06600
H 	H 	0.48880 0.61750 0.09120 -0.00400
C 	C 	0.53420 0.55613 0.04670 0.08100
H 	H 	0.50500 0.54140 0.02770 -0.00900
C 	C 	0.62680 0.55141 0.06280 -0.13500
H 	H 	0.66050 0.53390 0.05480 0.08700
N 	N 	0.06180 0.32991 0.24220 -0.13800
N 	N 	0.05880 0.32585 0.32540 -0.13900
N 	N 	0.09560 0.37167 0.28930 -0.14000
N 	N 	0.13130 0.40836 0.12390 -0.27100
N 	N 	0.93580 0.22863 0.26610 -0.27200
N 	N 	0.11740 0.39392 0.46200 -0.27000
N 	N 	0.96330 0.56618 0.12790 -0.13800
N 	N 	0.81280 0.59246 0.12860 -0.13300
N 	N 	0.82080 0.54449 0.09570 -0.13900
N 	N 	0.08990 0.46983 0.07300 -0.27400
N 	N 	0.05960 0.66007 0.20410 -0.27300
N 	N 	0.48220 0.57998 0.05580 -0.27800
Zn	Zn	0.66945 0.06823 0.93676 1.16200
Zn	Zn	0.36183 0.31006 0.74314 1.16500
Zn	Zn	0.65282 0.08737 0.47382 1.16300
I 	I 	0.59766 0.09660 0.00462 -0.37000
I 	I 	0.84940 0.05533 0.92333 -0.37800
I 	I 	0.19901 0.30327 0.70119 -0.37700
I 	I 	0.36591 0.32470 0.82904 -0.37500
I 	I 	0.72993 0.03743 0.48980 -0.39200
I 	I 	0.73855 0.12796 0.42827 -0.36600
C 	C 	0.58470 0.14139 0.75140 0.10200
C 	C 	0.54720 0.18484 0.71760 0.10200
C 	C 	0.58300 0.14556 0.67270 0.09900
C 	C 	0.59850 0.12402 0.79540 0.05500
C 	C 	0.62520 0.09473 0.79320 -0.12700
H 	H 	0.63290 0.08530 0.76370 0.08200
C 	C 	0.64020 0.07968 0.83400 0.08100
H 	H 	0.65800 0.05960 0.83200 -0.02000
C 	C 	0.60370 0.11983 0.87870 0.06200
H 	H 	0.59560 0.12850 0.90890 -0.00800
C 	C 	0.58660 0.13670 0.83950 -0.11700
H 	H 	0.56700 0.15660 0.84240 0.08000
C 	C 	0.51320 0.21569 0.72290 0.05200
C 	C 	0.51810 0.22957 0.76550 -0.11000
H 	H 	0.54790 0.22010 0.79160 0.08000
C 	C 	0.47920 0.25767 0.77020 0.05700
H 	H 	0.48340 0.26740 0.79970 0.00400
C 	C 	0.43340 0.25807 0.69250 0.06700
H 	H 	0.40460 0.26800 0.66660 -0.01200
C 	C 	0.47160 0.22999 0.68560 -0.11700
H 	H 	0.46880 0.22100 0.65550 0.08000
C 	C 	0.59310 0.13164 0.62590 0.05300
C 	C 	0.59270 0.14856 0.58500 -0.12100
H 	H 	0.58450 0.16920 0.58650 0.08200
C 	C 	0.60430 0.13470 0.54250 0.07300
H 	H 	0.60290 0.14630 0.51480 -0.01100
C 	C 	0.61730 0.08963 0.57770 0.05900
H 	H 	0.62650 0.06900 0.57530 -0.00200
C 	C 	0.60420 0.10202 0.62160 -0.11100
H 	H 	0.60290 0.08990 0.64880 0.08000
C 	C 	0.41740 0.95546 0.89250 0.10300
C 	C 	0.40860 0.91001 0.86170 0.10500
C 	C 	0.27460 0.93054 0.89340 0.10100
C 	C 	0.47590 0.98167 0.90540 0.05400
C 	C 	0.43950 0.00352 0.93350 -0.12100
H 	H 	0.37470 0.00240 0.94550 0.08700
C 	C 	0.49910 0.02739 0.94430 0.06700
H 	H 	0.47460 0.04220 0.96460 -0.00700
C 	C 	0.62560 0.00879 0.90150 0.07500
H 	H 	0.69170 0.01000 0.89140 -0.01200
C 	C 	0.57070 0.98431 0.88870 -0.11800
H 	H 	0.59790 0.96970 0.86880 0.07800
C 	C 	0.45930 0.88509 0.83960 0.05800
C 	C 	0.56050 0.88444 0.83810 -0.11100
H 	H 	0.59710 0.90000 0.85170 0.08200
C 	C 	0.60830 0.86131 0.81700 0.06700
H 	H 	0.67780 0.86070 0.81750 -0.00800
C 	C 	0.46220 0.83996 0.79720 0.07000
H 	H 	0.42770 0.82430 0.78290 -0.01300
C 	C 	0.40890 0.86240 0.81910 -0.11900
H 	H 	0.33950 0.86190 0.81970 0.07900
C 	C 	0.17140 0.92781 0.90930 0.05800
C 	C 	0.11660 0.90297 0.89890 -0.12300
H 	H 	0.14360 0.88810 0.87940 0.09300
C 	C 	0.02450 0.89973 0.91640 0.06700
H 	H 	0.98880 0.88250 0.90880 -0.00500
C 	C 	0.03420 0.94387 0.95330 0.08200
H 	H 	0.00500 0.95860 0.97230 -0.00900
C 	C 	0.12680 0.94859 0.93720 -0.13500
H 	H 	0.16050 0.96610 0.94520 0.08700
N 	N 	0.56180 0.17009 0.75780 -0.13800
N 	N 	0.55880 0.17415 0.67460 -0.13900
N 	N 	0.59560 0.12833 0.71070 -0.14000
N 	N 	0.63130 0.09164 0.87610 -0.27100
N 	N 	0.43580 0.27137 0.73390 -0.27200
N 	N 	0.61740 0.10608 0.53800 -0.27000
N 	N 	0.46330 0.93382 0.87210 -0.13800
N 	N 	0.31280 0.90754 0.87140 -0.13300
N 	N 	0.32080 0.95551 0.90430 -0.13900
N 	N 	0.58990 0.03017 0.92700 -0.27400
N 	N 	0.55960 0.83993 0.79590 -0.27300
N 	N 	0.98220 0.92002 0.94420 -0.27800
Zn	Zn	0.83055 0.93177 0.43676 1.16200
Zn	Zn	0.13817 0.68994 0.24314 1.16500
Zn	Zn	0.84718 0.91263 0.97382 1.16300
I 	I 	0.90234 0.90340 0.50462 -0.37000
I 	I 	0.65060 0.94467 0.42333 -0.37800
I 	I 	0.30099 0.69673 0.20119 -0.37700
I 	I 	0.13409 0.67530 0.32904 -0.37500
I 	I 	0.77007 0.96257 0.98980 -0.39200
I 	I 	0.76145 0.87204 0.92827 -0.36600
C 	C 	0.91530 0.85861 0.25140 0.10200
C 	C 	0.95280 0.81516 0.21760 0.10200
C 	C 	0.91700 0.85444 0.17270 0.09900
C 	C 	0.90150 0.87598 0.29540 0.05600
C 	C 	0.87480 0.90527 0.29320 -0.12700
H 	H 	0.86710 0.91470 0.26370 0.08200
C 	C 	0.85980 0.92032 0.33400 0.08100
H 	H 	0.84200 0.94040 0.33200 -0.02000
C 	C 	0.89630 0.88017 0.37870 0.06200
H 	H 	0.90440 0.87150 0.40890 -0.00800
C 	C 	0.91340 0.86330 0.33950 -0.11700
H 	H 	0.93300 0.84340 0.34240 0.08000
C 	C 	0.98680 0.78431 0.22290 0.05300
C 	C 	0.98190 0.77043 0.26550 -0.10900
H 	H 	0.95210 0.77990 0.29160 0.08000
C 	C 	0.02080 0.74233 0.27020 0.05600
H 	H 	0.01660 0.73260 0.29970 0.00400
C 	C 	0.06660 0.74193 0.19250 0.06800
H 	H 	0.09540 0.73200 0.16660 -0.01200
C 	C 	0.02840 0.77001 0.18560 -0.11800
H 	H 	0.03120 0.77900 0.15550 0.08000
C 	C 	0.90690 0.86836 0.12590 0.05300
C 	C 	0.90730 0.85144 0.08500 -0.12100
H 	H 	0.91550 0.83080 0.08650 0.08200
C 	C 	0.89570 0.86530 0.04250 0.07300
H 	H 	0.89710 0.85370 0.01480 -0.01000
C 	C 	0.88270 0.91037 0.07770 0.05900
H 	H 	0.87350 0.93100 0.07530 -0.00200
C 	C 	0.89580 0.89798 0.12160 -0.11100
H 	H 	0.89710 0.91010 0.14880 0.08000
C 	C 	0.08260 0.04454 0.39250 0.10300
C 	C 	0.09140 0.08999 0.36170 0.10500
C 	C 	0.22540 0.06946 0.39340 0.10100
C 	C 	0.02410 0.01833 0.40540 0.05400
C 	C 	0.06050 0.99648 0.43350 -0.12000
H 	H 	0.12530 0.99760 0.44550 0.08700
C 	C 	0.00090 0.97261 0.44430 0.06600
H 	H 	0.02540 0.95780 0.46460 -0.00700
C 	C 	0.87440 0.99121 0.40150 0.07500
H 	H 	0.80830 0.99000 0.39140 -0.01200
C 	C 	0.92930 0.01569 0.38870 -0.11800
H 	H 	0.90210 0.03030 0.36880 0.07700
C 	C 	0.04070 0.11491 0.33960 0.05800
C 	C 	0.93950 0.11556 0.33810 -0.11100
H 	H 	0.90290 0.10000 0.35170 0.08200
C 	C 	0.89170 0.13869 0.31700 0.06700
H 	H 	0.82220 0.13930 0.31750 -0.00800
C 	C 	0.03780 0.16004 0.29720 0.07100
H 	H 	0.07230 0.17570 0.28290 -0.01300
C 	C 	0.09110 0.13760 0.31910 -0.11900
H 	H 	0.16050 0.13810 0.31970 0.07900
C 	C 	0.32860 0.07219 0.40930 0.05700
C 	C 	0.38340 0.09703 0.39890 -0.12200
H 	H 	0.35640 0.11190 0.37940 0.09300
C 	C 	0.47550 0.10027 0.41640 0.06600
H 	H 	0.51120 0.11750 0.40880 -0.00400
C 	C 	0.46580 0.05613 0.45330 0.08100
H 	H 	0.49500 0.04140 0.47230 -0.00900
C 	C 	0.37320 0.05141 0.43720 -0.13500
H 	H 	0.33950 0.03390 0.44520 0.08700
N 	N 	0.93820 0.82991 0.25780 -0.13800
N 	N 	0.94120 0.82585 0.17460 -0.13900
N 	N 	0.90440 0.87167 0.21070 -0.14000
N 	N 	0.86870 0.90836 0.37610 -0.27100
N 	N 	0.06420 0.72863 0.23390 -0.27200
N 	N 	0.88260 0.89392 0.03800 -0.27000
N 	N 	0.03670 0.06618 0.37210 -0.13800
N 	N 	0.18720 0.09246 0.37140 -0.13300
N 	N 	0.17920 0.04449 0.40430 -0.13900
N 	N 	0.91010 0.96983 0.42700 -0.27400
N 	N 	0.94040 0.16007 0.29590 -0.27300
N 	N 	0.51780 0.07998 0.44420 -0.27800
Zn	Zn	0.66945 0.43177 0.43676 1.16200
Zn	Zn	0.36183 0.18994 0.24314 1.16500
Zn	Zn	0.65282 0.41263 0.97382 1.16300
I 	I 	0.59766 0.40340 0.50462 -0.37000
I 	I 	0.84940 0.44467 0.42333 -0.37800
I 	I 	0.19901 0.19673 0.20119 -0.37700
I 	I 	0.36591 0.17530 0.32904 -0.37500
I 	I 	0.72993 0.46257 0.98980 -0.39200
I 	I 	0.73855 0.37204 0.92827 -0.36600
C 	C 	0.58470 0.35861 0.25140 0.10200
C 	C 	0.54720 0.31516 0.21760 0.10200
C 	C 	0.58300 0.35444 0.17270 0.09900
C 	C 	0.59850 0.37598 0.29540 0.05500
C 	C 	0.62520 0.40527 0.29320 -0.12700
H 	H 	0.63290 0.41470 0.26370 0.08200
C 	C 	0.64020 0.42032 0.33400 0.08100
H 	H 	0.65800 0.44040 0.33200 -0.02000
C 	C 	0.60370 0.38017 0.37870 0.06200
H 	H 	0.59560 0.37150 0.40890 -0.00800
C 	C 	0.58660 0.36330 0.33950 -0.11700
H 	H 	0.56700 0.34340 0.34240 0.08000
C 	C 	0.51320 0.28431 0.22290 0.05200
C 	C 	0.51810 0.27043 0.26550 -0.11000
H 	H 	0.54790 0.27990 0.29160 0.08000
C 	C 	0.47920 0.24233 0.27020 0.05700
H 	H 	0.48340 0.23260 0.29970 0.00400
C 	C 	0.43340 0.24193 0.19250 0.06700
H 	H 	0.40460 0.23200 0.16660 -0.01200
C 	C 	0.47160 0.27001 0.18560 -0.11700
H 	H 	0.46880 0.27900 0.15550 0.08000
C 	C 	0.59310 0.36836 0.12590 0.05300
C 	C 	0.59270 0.35144 0.08500 -0.12100
H 	H 	0.58450 0.33080 0.08650 0.08200
C 	C 	0.60430 0.36530 0.04250 0.07300
H 	H 	0.60290 0.35370 0.01480 -0.01100
C 	C 	0.61730 0.41037 0.07770 0.05900
H 	H 	0.62650 0.43100 0.07530 -0.00200
C 	C 	0.60420 0.39798 0.12160 -0.11100
H 	H 	0.60290 0.41010 0.14880 0.08000
C 	C 	0.41740 0.54454 0.39250 0.10300
C 	C 	0.40860 0.58999 0.36170 0.10500
C 	C 	0.27460 0.56946 0.39340 0.10200
C 	C 	0.47590 0.51833 0.40540 0.05400
C 	C 	0.43950 0.49648 0.43350 -0.12100
H 	H 	0.37470 0.49760 0.44550 0.08700
C 	C 	0.49910 0.47261 0.44430 0.06700
H 	H 	0.47460 0.45780 0.46460 -0.00700
C 	C 	0.62560 0.49121 0.40150 0.07500
H 	H 	0.69170 0.49000 0.39140 -0.01200
C 	C 	0.57070 0.51569 0.38870 -0.11800
H 	H 	0.59790 0.53030 0.36880 0.07800
C 	C 	0.45930 0.61491 0.33960 0.05800
C 	C 	0.56050 0.61556 0.33810 -0.11100
H 	H 	0.59710 0.60000 0.35170 0.08200
C 	C 	0.60830 0.63869 0.31700 0.06700
H 	H 	0.67780 0.63930 0.31750 -0.00800
C 	C 	0.46220 0.66004 0.29720 0.07000
H 	H 	0.42770 0.67570 0.28290 -0.01300
C 	C 	0.40890 0.63760 0.31910 -0.11900
H 	H 	0.33950 0.63810 0.31970 0.07900
C 	C 	0.17140 0.57219 0.40930 0.05700
C 	C 	0.11660 0.59703 0.39890 -0.12200
H 	H 	0.14360 0.61190 0.37940 0.09300
C 	C 	0.02450 0.60027 0.41640 0.06500
H 	H 	0.98880 0.61750 0.40880 -0.00400
C 	C 	0.03420 0.55613 0.45330 0.08100
H 	H 	0.00500 0.54140 0.47230 -0.00800
C 	C 	0.12680 0.55141 0.43720 -0.13400
H 	H 	0.16050 0.53390 0.44520 0.08600
N 	N 	0.56180 0.32991 0.25780 -0.13800
N 	N 	0.55880 0.32585 0.17460 -0.13900
N 	N 	0.59560 0.37167 0.21070 -0.14000
N 	N 	0.63130 0.40836 0.37610 -0.27100
N 	N 	0.43580 0.22863 0.23390 -0.27200
N 	N 	0.61740 0.39392 0.03800 -0.27000
N 	N 	0.46330 0.56618 0.37210 -0.13800
N 	N 	0.31280 0.59246 0.37140 -0.13300
N 	N 	0.32080 0.54449 0.40430 -0.14000
N 	N 	0.58990 0.46983 0.42700 -0.27400
N 	N 	0.55960 0.66007 0.29590 -0.27300
N 	N 	0.98220 0.57998 0.44420 -0.27700
Zn	Zn	0.83055 0.56823 0.93676 1.16200
Zn	Zn	0.13817 0.81006 0.74314 1.16500
Zn	Zn	0.84718 0.58737 0.47382 1.16300
I 	I 	0.90234 0.59660 0.00462 -0.36900
I 	I 	0.65060 0.55533 0.92333 -0.37800
I 	I 	0.30099 0.80327 0.70119 -0.37700
I 	I 	0.13409 0.82470 0.82904 -0.37500
I 	I 	0.77007 0.53743 0.48980 -0.39200
I 	I 	0.76145 0.62796 0.42827 -0.36600
C 	C 	0.91530 0.64139 0.75140 0.10200
C 	C 	0.95280 0.68484 0.71760 0.10200
C 	C 	0.91700 0.64556 0.67270 0.09900
C 	C 	0.90150 0.62402 0.79540 0.05500
C 	C 	0.87480 0.59473 0.79320 -0.12700
H 	H 	0.86710 0.58530 0.76370 0.08200
C 	C 	0.85980 0.57968 0.83400 0.08100
H 	H 	0.84200 0.55960 0.83200 -0.02000
C 	C 	0.89630 0.61983 0.87870 0.06200
H 	H 	0.90440 0.62850 0.90890 -0.00800
C 	C 	0.91340 0.63670 0.83950 -0.11700
H 	H 	0.93300 0.65660 0.84240 0.08000
C 	C 	0.98680 0.71569 0.72290 0.05200
C 	C 	0.98190 0.72957 0.76550 -0.11000
H 	H 	0.95210 0.72010 0.79160 0.08000
C 	C 	0.02080 0.75767 0.77020 0.05700
H 	H 	0.01660 0.76740 0.79970 0.00400
C 	C 	0.06660 0.75807 0.69250 0.06700
H 	H 	0.09540 0.76800 0.66660 -0.01200
C 	C 	0.02840 0.72999 0.68560 -0.11700
H 	H 	0.03120 0.72100 0.65550 0.08000
C 	C 	0.90690 0.63164 0.62590 0.05300
C 	C 	0.90730 0.64856 0.58500 -0.12100
H 	H 	0.91550 0.66920 0.58650 0.08200
C 	C 	0.89570 0.63470 0.54250 0.07300
H 	H 	0.89710 0.64630 0.51480 -0.01100
C 	C 	0.88270 0.58963 0.57770 0.05900
H 	H 	0.87350 0.56900 0.57530 -0.00200
C 	C 	0.89580 0.60202 0.62160 -0.11100
H 	H 	0.89710 0.58990 0.64880 0.08000
C 	C 	0.08260 0.45546 0.89250 0.10300
C 	C 	0.09140 0.41001 0.86170 0.10500
C 	C 	0.22540 0.43054 0.89340 0.10100
C 	C 	0.02410 0.48167 0.90540 0.05500
C 	C 	0.06050 0.50352 0.93350 -0.12100
H 	H 	0.12530 0.50240 0.94550 0.08700
C 	C 	0.00090 0.52739 0.94430 0.06700
H 	H 	0.02540 0.54220 0.96460 -0.00700
C 	C 	0.87440 0.50879 0.90150 0.07500
H 	H 	0.80830 0.51000 0.89140 -0.01200
C 	C 	0.92930 0.48431 0.88870 -0.11900
H 	H 	0.90210 0.46970 0.86880 0.07800
C 	C 	0.04070 0.38509 0.83960 0.05900
C 	C 	0.93950 0.38444 0.83810 -0.11200
H 	H 	0.90290 0.40000 0.85170 0.08200
C 	C 	0.89170 0.36131 0.81700 0.06800
H 	H 	0.82220 0.36070 0.81750 -0.00800
C 	C 	0.03780 0.33996 0.79720 0.07100
H 	H 	0.07230 0.32430 0.78290 -0.01300
C 	C 	0.09110 0.36240 0.81910 -0.11900
H 	H 	0.16050 0.36190 0.81970 0.08000
C 	C 	0.32860 0.42781 0.90930 0.05700
C 	C 	0.38340 0.40297 0.89890 -0.12200
H 	H 	0.35640 0.38810 0.87940 0.09300
C 	C 	0.47550 0.39973 0.91640 0.06600
H 	H 	0.51120 0.38250 0.90880 -0.00400
C 	C 	0.46580 0.44387 0.95330 0.08100
H 	H 	0.49500 0.45860 0.97230 -0.00900
C 	C 	0.37320 0.44859 0.93720 -0.13500
H 	H 	0.33950 0.46610 0.94520 0.08700
N 	N 	0.93820 0.67009 0.75780 -0.13800
N 	N 	0.94120 0.67415 0.67460 -0.13900
N 	N 	0.90440 0.62833 0.71070 -0.14000
N 	N 	0.86870 0.59164 0.87610 -0.27100
N 	N 	0.06420 0.77137 0.73390 -0.27200
N 	N 	0.88260 0.60608 0.53800 -0.27000
N 	N 	0.03670 0.43382 0.87210 -0.13800
N 	N 	0.18720 0.40754 0.87140 -0.13300
N 	N 	0.17920 0.45551 0.90430 -0.13900
N 	N 	0.91010 0.53017 0.92700 -0.27400
N 	N 	0.94040 0.33993 0.79590 -0.27300
N 	N 	0.51780 0.42002 0.94420 -0.27800
Zn	Zn	0.33055 0.93177 0.06324 1.16200
Zn	Zn	0.63817 0.68994 0.25686 1.16500
Zn	Zn	0.34718 0.91263 0.52618 1.16300
I 	I 	0.40234 0.90340 0.99538 -0.37000
I 	I 	0.15060 0.94467 0.07667 -0.37800
I 	I 	0.80099 0.69673 0.29881 -0.37700
I 	I 	0.63409 0.67530 0.17096 -0.37500
I 	I 	0.27007 0.96257 0.51020 -0.39200
I 	I 	0.26145 0.87204 0.57173 -0.36600
C 	C 	0.41530 0.85861 0.24860 0.10200
C 	C 	0.45280 0.81516 0.28240 0.10200
C 	C 	0.41700 0.85444 0.32730 0.09900
C 	C 	0.40150 0.87598 0.20460 0.05500
C 	C 	0.37480 0.90527 0.20680 -0.12700
H 	H 	0.36710 0.91470 0.23630 0.08200
C 	C 	0.35980 0.92032 0.16600 0.08100
H 	H 	0.34200 0.94040 0.16800 -0.02000
C 	C 	0.39630 0.88017 0.12130 0.06200
H 	H 	0.40440 0.87150 0.09110 -0.00800
C 	C 	0.41340 0.86330 0.16050 -0.11700
H 	H 	0.43300 0.84340 0.15760 0.08000
C 	C 	0.48680 0.78431 0.27710 0.05200
C 	C 	0.48190 0.77043 0.23450 -0.11000
H 	H 	0.45210 0.77990 0.20840 0.08000
C 	C 	0.52080 0.74233 0.22980 0.05700
H 	H 	0.51660 0.73260 0.20030 0.00400
C 	C 	0.56660 0.74193 0.30750 0.06700
H 	H 	0.59540 0.73200 0.33340 -0.01200
C 	C 	0.52840 0.77001 0.31440 -0.11700
H 	H 	0.53120 0.77900 0.34450 0.08000
C 	C 	0.40690 0.86836 0.37410 0.05300
C 	C 	0.40730 0.85144 0.41500 -0.12100
H 	H 	0.41550 0.83080 0.41350 0.08200
C 	C 	0.39570 0.86530 0.45750 0.07300
H 	H 	0.39710 0.85370 0.48520 -0.01100
C 	C 	0.38270 0.91037 0.42230 0.05900
H 	H 	0.37350 0.93100 0.42470 -0.00200
C 	C 	0.39580 0.89798 0.37840 -0.11100
H 	H 	0.39710 0.91010 0.35120 0.08000
C 	C 	0.58260 0.04454 0.10750 0.10300
C 	C 	0.59140 0.08999 0.13830 0.10500
C 	C 	0.72540 0.06946 0.10660 0.10100
C 	C 	0.52410 0.01833 0.09460 0.05400
C 	C 	0.56050 0.99648 0.06650 -0.12100
H 	H 	0.62530 0.99760 0.05450 0.08700
C 	C 	0.50090 0.97261 0.05570 0.06700
H 	H 	0.52540 0.95780 0.03540 -0.00700
C 	C 	0.37440 0.99121 0.09850 0.07500
H 	H 	0.30830 0.99000 0.10860 -0.01200
C 	C 	0.42930 0.01569 0.11130 -0.11800
H 	H 	0.40210 0.03030 0.13120 0.07800
C 	C 	0.54070 0.11491 0.16040 0.05800
C 	C 	0.43950 0.11556 0.16190 -0.11100
H 	H 	0.40290 0.10000 0.14830 0.08200
C 	C 	0.39170 0.13869 0.18300 0.06700
H 	H 	0.32220 0.13930 0.18250 -0.00800
C 	C 	0.53780 0.16004 0.20280 0.07000
H 	H 	0.57230 0.17570 0.21710 -0.01300
C 	C 	0.59110 0.13760 0.18090 -0.11900
H 	H 	0.66050 0.13810 0.18030 0.07900
C 	C 	0.82860 0.07219 0.09070 0.05800
C 	C 	0.88340 0.09703 0.10110 -0.12300
H 	H 	0.85640 0.11190 0.12060 0.09300
C 	C 	0.97550 0.10027 0.08360 0.06700
H 	H 	0.01120 0.11750 0.09120 -0.00500
C 	C 	0.96580 0.05613 0.04670 0.08200
H 	H 	0.99500 0.04140 0.02770 -0.00900
C 	C 	0.87320 0.05141 0.06280 -0.13500
H 	H 	0.83950 0.03390 0.05480 0.08700
N 	N 	0.43820 0.82991 0.24220 -0.13800
N 	N 	0.44120 0.82585 0.32540 -0.13900
N 	N 	0.40440 0.87167 0.28930 -0.14000
N 	N 	0.36870 0.90836 0.12390 -0.27100
N 	N 	0.56420 0.72863 0.26610 -0.27200
N 	N 	0.38260 0.89392 0.46200 -0.27000
N 	N 	0.53670 0.06618 0.12790 -0.13800
N 	N 	0.68720 0.09246 0.12860 -0.13300
N 	N 	0.67920 0.04449 0.09570 -0.13900
N 	N 	0.41010 0.96983 0.07300 -0.27400
N 	N 	0.44040 0.16007 0.20410 -0.27300
N 	N 	0.01780 0.07998 0.05580 -0.27800
Zn	Zn	0.16945 0.06823 0.56324 1.16200
Zn	Zn	0.86183 0.31006 0.75686 1.16500
Zn	Zn	0.15282 0.08737 0.02618 1.16300
I 	I 	0.09766 0.09660 0.49538 -0.37000
I 	I 	0.34940 0.05533 0.57667 -0.37800
I 	I 	0.69901 0.30327 0.79881 -0.37700
I 	I 	0.86591 0.32470 0.67096 -0.37500
I 	I 	0.22993 0.03743 0.01020 -0.39200
I 	I 	0.23855 0.12796 0.07173 -0.36600
C 	C 	0.08470 0.14139 0.74860 0.10200
C 	C 	0.04720 0.18484 0.78240 0.10200
C 	C 	0.08300 0.14556 0.82730 0.09900
C 	C 	0.09850 0.12402 0.70460 0.05600
C 	C 	0.12520 0.09473 0.70680 -0.12700
H 	H 	0.13290 0.08530 0.73630 0.08200
C 	C 	0.14020 0.07968 0.66600 0.08100
H 	H 	0.15800 0.05960 0.66800 -0.02000
C 	C 	0.10370 0.11983 0.62130 0.06200
H 	H 	0.09560 0.12850 0.59110 -0.00800
C 	C 	0.08660 0.13670 0.66050 -0.11700
H 	H 	0.06700 0.15660 0.65760 0.08000
C 	C 	0.01320 0.21569 0.77710 0.05300
C 	C 	0.01810 0.22957 0.73450 -0.10900
H 	H 	0.04790 0.22010 0.70840 0.08000
C 	C 	0.97920 0.25767 0.72980 0.05600
H 	H 	0.98340 0.26740 0.70030 0.00400
C 	C 	0.93340 0.25807 0.80750 0.06800
H 	H 	0.90460 0.26800 0.83340 -0.01200
C 	C 	0.97160 0.22999 0.81440 -0.11800
H 	H 	0.96880 0.22100 0.84450 0.08000
C 	C 	0.09310 0.13164 0.87410 0.05300
C 	C 	0.09270 0.14856 0.91500 -0.12100
H 	H 	0.08450 0.16920 0.91350 0.08200
C 	C 	0.10430 0.13470 0.95750 0.07300
H 	H 	0.10290 0.14630 0.98520 -0.01000
C 	C 	0.11730 0.08963 0.92230 0.05900
H 	H 	0.12650 0.06900 0.92470 -0.00200
C 	C 	0.10420 0.10202 0.87840 -0.11100
H 	H 	0.10290 0.08990 0.85120 0.08000
C 	C 	0.91740 0.95546 0.60750 0.10300
C 	C 	0.90860 0.91001 0.63830 0.10500
C 	C 	0.77460 0.93054 0.60660 0.10100
C 	C 	0.97590 0.98167 0.59460 0.05400
C 	C 	0.93950 0.00352 0.56650 -0.12000
H 	H 	0.87470 0.00240 0.55450 0.08700
C 	C 	0.99910 0.02739 0.55570 0.06600
H 	H 	0.97460 0.04220 0.53540 -0.00700
C 	C 	0.12560 0.00879 0.59850 0.07500
H 	H 	0.19170 0.01000 0.60860 -0.01200
C 	C 	0.07070 0.98431 0.61130 -0.11800
H 	H 	0.09790 0.96970 0.63120 0.07700
C 	C 	0.95930 0.88509 0.66040 0.05800
C 	C 	0.06050 0.88444 0.66190 -0.11100
H 	H 	0.09710 0.90000 0.64830 0.08200
C 	C 	0.10830 0.86131 0.68300 0.06700
H 	H 	0.17780 0.86070 0.68250 -0.00800
C 	C 	0.96220 0.83996 0.70280 0.07100
H 	H 	0.92770 0.82430 0.71710 -0.01300
C 	C 	0.90890 0.86240 0.68090 -0.11900
H 	H 	0.83950 0.86190 0.68030 0.07900
C 	C 	0.67140 0.92781 0.59070 0.05700
C 	C 	0.61660 0.90297 0.60110 -0.12200
H 	H 	0.64360 0.88810 0.62060 0.09300
C 	C 	0.52450 0.89973 0.58360 0.06600
H 	H 	0.48880 0.88250 0.59120 -0.00400
C 	C 	0.53420 0.94387 0.54670 0.08100
H 	H 	0.50500 0.95860 0.52770 -0.00900
C 	C 	0.62680 0.94859 0.56280 -0.13500
H 	H 	0.66050 0.96610 0.55480 0.08700
N 	N 	0.06180 0.17009 0.74220 -0.13800
N 	N 	0.05880 0.17415 0.82540 -0.13900
N 	N 	0.09560 0.12833 0.78930 -0.14000
N 	N 	0.13130 0.09164 0.62390 -0.27100
N 	N 	0.93580 0.27137 0.76610 -0.27200
N 	N 	0.11740 0.10608 0.96200 -0.27000
N 	N 	0.96330 0.93382 0.62790 -0.13800
N 	N 	0.81280 0.90754 0.62860 -0.13300
N 	N 	0.82080 0.95551 0.59570 -0.13900
N 	N 	0.08990 0.03017 0.57300 -0.27400
N 	N 	0.05960 0.83993 0.70410 -0.27300
N 	N 	0.48220 0.92002 0.55580 -0.27800
