data_crystal

_cell_length_a 28.85700
_cell_length_b 13.70630
_cell_length_c 45.18800
_cell_angle_alpha 90.00000
_cell_angle_beta  90.00000
_cell_angle_gamma 90.00000

_symmetry_space_group_name_	'P 1'
_symmetry_space_group_name_H-M	'P 1'

loop_
_symmetry_equiv_pos_as_xyz
  x,y,z

loop_
_atom_site_label
_atom_site_type_symbol
_atom_site_fract_x
_atom_site_fract_y
_atom_site_fract_z
_atom_site_charge
Zn	Zn	0.02280 0.14722 0.91413 1.16400
Zn	Zn	0.56358 0.15855 0.92874 1.16500
Zn	Zn	0.76223 0.85594 0.68945 1.16600
I 	I 	0.00838 0.21800 0.96570 -0.38900
I 	I 	0.06891 0.23483 0.87459 -0.37000
I 	I 	0.57434 0.34173 0.93970 -0.37000
I 	I 	0.49685 0.08954 0.89963 -0.37000
I 	I 	0.80126 0.69023 0.69442 -0.37500
I 	I 	0.67836 0.86240 0.67284 -0.37200
C 	C 	0.92060 0.11370 0.91222 0.06600
H 	H 	0.92320 0.12380 0.93300 -0.00400
C 	C 	0.87700 0.10020 0.89996 -0.11100
H 	H 	0.85020 0.10060 0.91220 0.08200
C 	C 	0.95520 0.09670 0.86697 0.07400
H 	H 	0.98250 0.09470 0.85530 -0.01200
C 	C 	0.91300 0.08240 0.85323 -0.12000
H 	H 	0.91160 0.07020 0.83260 0.08300
C 	C 	0.87290 0.08610 0.86995 0.05500
C 	C 	0.82670 0.07350 0.85606 0.10300
C 	C 	0.81020 0.92460 0.74285 0.07100
H 	H 	0.83570 0.89400 0.73330 -0.01400
C 	C 	0.81640 0.96280 0.77091 -0.12100
H 	H 	0.84590 0.96010 0.78020 0.08100
C 	C 	0.73420 0.97120 0.74214 0.06500
H 	H 	0.70540 0.97550 0.73200 0.00000
C 	C 	0.73760 0.00900 0.77043 -0.11600
H 	H 	0.71140 0.03780 0.77970 0.08100
C 	C 	0.77960 0.00440 0.78498 0.05500
C 	C 	0.78350 0.03830 0.81613 0.10300
C 	C 	0.62330 0.09620 0.87855 0.06000
H 	H 	0.59420 0.08880 0.86900 -0.01000
C 	C 	0.66300 0.08110 0.86238 -0.11500
H 	H 	0.66120 0.06480 0.84200 0.07900
C 	C 	0.66510 0.12860 0.92047 0.07600
H 	H 	0.66580 0.14570 0.94080 -0.01800
C 	C 	0.70650 0.11320 0.90626 -0.12200
H 	H 	0.73500 0.11820 0.91660 0.08000
C 	C 	0.70570 0.09010 0.87615 0.05200
C 	C 	0.74920 0.07610 0.85926 0.10500
C 	C 	0.09330 0.37550 0.00952 0.07800
H 	H 	0.10350 0.30980 0.01100 -0.01200
C 	C 	0.10340 0.42610 0.98429 -0.12400
H 	H 	0.11970 0.39540 0.96860 0.07900
C 	C 	0.05450 0.50510 0.02897 0.07400
H 	H 	0.03630 0.53210 0.04450 -0.01400
C 	C 	0.06360 0.56150 0.00457 -0.12800
H 	H 	0.05220 0.62640 0.00340 0.09000
C 	C 	0.08960 0.52240 0.98173 0.05600
C 	C 	0.10160 0.58050 0.95515 0.10300
C 	C 	0.04240 0.96030 0.94390 0.08600
H 	H 	0.02260 0.98810 0.95840 -0.01000
C 	C 	0.05840 0.86670 0.94837 -0.13800
H 	H 	0.05000 0.83130 0.96560 0.09100
C 	C 	0.08100 0.97360 0.90054 0.07800
H 	H 	0.08870 0.01070 0.88350 -0.00700
C 	C 	0.09890 0.88050 0.90341 -0.13200
H 	H 	0.11940 0.85530 0.88890 0.09800
C 	C 	0.08700 0.82540 0.92729 0.06500
C 	C 	0.10160 0.72220 0.93017 0.09800
C 	C 	0.19890 0.53340 0.84040 0.07700
H 	H 	0.21410 0.56770 0.82490 -0.01400
C 	C 	0.17750 0.58720 0.86264 -0.12600
H 	H 	0.17760 0.65650 0.86220 0.08500
C 	C 	0.17710 0.39010 0.86105 0.07400
H 	H 	0.17570 0.32080 0.86030 -0.00800
C 	C 	0.15570 0.43700 0.88458 -0.11700
H 	H 	0.14100 0.40080 0.89990 0.08600
C 	C 	0.15630 0.53740 0.88515 0.06400
C 	C 	0.13400 0.58910 0.90989 0.10600
N 	N 	0.95930 0.11310 0.89572 -0.27200
N 	N 	0.76990 0.92910 0.72873 -0.27600
N 	N 	0.62400 0.12090 0.90733 -0.27500
N 	N 	0.82590 0.04850 0.82737 -0.14000
N 	N 	0.74427 0.05260 0.83064 -0.14100
N 	N 	0.78930 0.08650 0.87295 -0.14000
N 	N 	0.19910 0.43590 0.83970 -0.27800
N 	N 	0.07010 0.41370 0.03193 -0.28000
N 	N 	0.05333 0.01290 0.92067 -0.28000
N 	N 	0.12300 0.53390 0.93342 -0.13800
N 	N 	0.09040 0.67470 0.95489 -0.14100
N 	N 	0.12467 0.68390 0.90722 -0.13200
Zn	Zn	0.47720 0.85278 0.41413 1.16400
Zn	Zn	0.93642 0.84145 0.42874 1.16400
Zn	Zn	0.73777 0.14406 0.18945 1.16500
I 	I 	0.49162 0.78200 0.46570 -0.39000
I 	I 	0.43109 0.76517 0.37459 -0.37000
I 	I 	0.92566 0.65827 0.43970 -0.37100
I 	I 	0.00315 0.91046 0.39963 -0.37000
I 	I 	0.69874 0.30977 0.19442 -0.37600
I 	I 	0.82164 0.13760 0.17284 -0.37300
C 	C 	0.57940 0.88630 0.41222 0.06500
H 	H 	0.57680 0.87620 0.43300 -0.00500
C 	C 	0.62300 0.89980 0.39996 -0.11200
H 	H 	0.64980 0.89940 0.41220 0.08000
C 	C 	0.54480 0.90330 0.36697 0.07300
H 	H 	0.51750 0.90530 0.35530 -0.01300
C 	C 	0.58700 0.91760 0.35323 -0.12100
H 	H 	0.58840 0.92980 0.33260 0.08200
C 	C 	0.62710 0.91390 0.36995 0.05400
C 	C 	0.67330 0.92650 0.35606 0.10200
C 	C 	0.68980 0.07540 0.24285 0.07000
H 	H 	0.66430 0.10600 0.23330 -0.01500
C 	C 	0.68360 0.03720 0.27091 -0.12200
H 	H 	0.65410 0.03990 0.28020 0.08100
C 	C 	0.76580 0.02880 0.24214 0.06500
H 	H 	0.79460 0.02450 0.23200 -0.00000
C 	C 	0.76240 0.99100 0.27043 -0.11700
H 	H 	0.78860 0.96220 0.27970 0.08100
C 	C 	0.72040 0.99560 0.28498 0.05400
C 	C 	0.71650 0.96170 0.31613 0.10300
C 	C 	0.87670 0.90380 0.37855 0.06000
H 	H 	0.90580 0.91120 0.36900 -0.01000
C 	C 	0.83700 0.91890 0.36238 -0.11500
H 	H 	0.83880 0.93520 0.34200 0.07900
C 	C 	0.83490 0.87140 0.42047 0.07600
H 	H 	0.83420 0.85430 0.44080 -0.01800
C 	C 	0.79350 0.88680 0.40626 -0.12200
H 	H 	0.76500 0.88180 0.41660 0.08000
C 	C 	0.79430 0.90990 0.37615 0.05100
C 	C 	0.75080 0.92390 0.35926 0.10500
C 	C 	0.40670 0.62450 0.50952 0.07800
H 	H 	0.39650 0.69020 0.51100 -0.01200
C 	C 	0.39660 0.57390 0.48429 -0.12400
H 	H 	0.38030 0.60460 0.46860 0.07900
C 	C 	0.44550 0.49490 0.52897 0.07400
H 	H 	0.46370 0.46790 0.54450 -0.01400
C 	C 	0.43640 0.43850 0.50457 -0.12800
H 	H 	0.44780 0.37360 0.50340 0.09000
C 	C 	0.41040 0.47760 0.48173 0.05600
C 	C 	0.39840 0.41950 0.45515 0.10300
C 	C 	0.45760 0.03970 0.44390 0.08500
H 	H 	0.47740 0.01190 0.45840 -0.01000
C 	C 	0.44160 0.13330 0.44837 -0.13800
H 	H 	0.45000 0.16870 0.46560 0.09100
C 	C 	0.41900 0.02640 0.40054 0.07600
H 	H 	0.41130 0.98930 0.38350 -0.00700
C 	C 	0.40110 0.11950 0.40341 -0.13100
H 	H 	0.38060 0.14470 0.38890 0.09800
C 	C 	0.41300 0.17460 0.42729 0.06500
C 	C 	0.39840 0.27780 0.43017 0.09900
C 	C 	0.30110 0.46660 0.34040 0.07700
H 	H 	0.28590 0.43230 0.32490 -0.01400
C 	C 	0.32250 0.41280 0.36264 -0.12600
H 	H 	0.32240 0.34350 0.36220 0.08500
C 	C 	0.32290 0.60990 0.36105 0.07400
H 	H 	0.32430 0.67920 0.36030 -0.00800
C 	C 	0.34430 0.56300 0.38458 -0.11700
H 	H 	0.35900 0.59920 0.39990 0.08600
C 	C 	0.34370 0.46260 0.38515 0.06400
C 	C 	0.36600 0.41090 0.40989 0.10600
N 	N 	0.54070 0.88690 0.39572 -0.27200
N 	N 	0.73010 0.07090 0.22873 -0.27600
N 	N 	0.87600 0.87910 0.40733 -0.27500
N 	N 	0.67410 0.95150 0.32737 -0.14000
N 	N 	0.75573 0.94740 0.33064 -0.14100
N 	N 	0.71070 0.91350 0.37295 -0.14100
N 	N 	0.30090 0.56410 0.33970 -0.27800
N 	N 	0.42990 0.58630 0.53193 -0.28000
N 	N 	0.44667 0.98710 0.42067 -0.27900
N 	N 	0.37700 0.46610 0.43342 -0.13800
N 	N 	0.40960 0.32530 0.45489 -0.14100
N 	N 	0.37533 0.31610 0.40722 -0.13200
Zn	Zn	0.97720 0.64722 0.58587 1.16300
Zn	Zn	0.43642 0.65855 0.57126 1.16400
Zn	Zn	0.23777 0.35594 0.81055 1.16500
I 	I 	0.99162 0.71800 0.53430 -0.39000
I 	I 	0.93109 0.73483 0.62541 -0.37100
I 	I 	0.42566 0.84173 0.56030 -0.37100
I 	I 	0.50315 0.58954 0.60037 -0.37100
I 	I 	0.19874 0.19023 0.80558 -0.37600
I 	I 	0.32164 0.36240 0.82716 -0.37300
C 	C 	0.07940 0.61370 0.58778 0.06500
H 	H 	0.07680 0.62380 0.56700 -0.00500
C 	C 	0.12300 0.60020 0.60004 -0.11200
H 	H 	0.14980 0.60060 0.58780 0.08000
C 	C 	0.04480 0.59670 0.63303 0.07300
H 	H 	0.01750 0.59470 0.64470 -0.01300
C 	C 	0.08700 0.58240 0.64677 -0.12100
H 	H 	0.08840 0.57020 0.66740 0.08200
C 	C 	0.12710 0.58610 0.63005 0.05400
C 	C 	0.17330 0.57350 0.64394 0.10200
C 	C 	0.18980 0.42460 0.75715 0.06900
H 	H 	0.16430 0.39400 0.76670 -0.01500
C 	C 	0.18360 0.46280 0.72909 -0.12100
H 	H 	0.15410 0.46010 0.71980 0.08100
C 	C 	0.26580 0.47120 0.75786 0.06600
H 	H 	0.29460 0.47550 0.76800 -0.00000
C 	C 	0.26240 0.50900 0.72957 -0.11700
H 	H 	0.28860 0.53780 0.72030 0.08100
C 	C 	0.22040 0.50440 0.71502 0.05400
C 	C 	0.21650 0.53830 0.68387 0.10300
C 	C 	0.37670 0.59620 0.62145 0.06000
H 	H 	0.40580 0.58880 0.63100 -0.01000
C 	C 	0.33700 0.58110 0.63762 -0.11500
H 	H 	0.33880 0.56480 0.65800 0.07900
C 	C 	0.33490 0.62860 0.57953 0.07600
H 	H 	0.33420 0.64570 0.55920 -0.01800
C 	C 	0.29350 0.61320 0.59374 -0.12200
H 	H 	0.26500 0.61820 0.58340 0.08000
C 	C 	0.29430 0.59010 0.62385 0.05100
C 	C 	0.25080 0.57610 0.64074 0.10500
C 	C 	0.90670 0.87550 0.49048 0.07900
H 	H 	0.89650 0.80980 0.48900 -0.01200
C 	C 	0.89660 0.92610 0.51571 -0.12500
H 	H 	0.88030 0.89540 0.53140 0.08000
C 	C 	0.94550 0.00510 0.47103 0.07500
H 	H 	0.96370 0.03210 0.45550 -0.01400
C 	C 	0.93640 0.06150 0.49543 -0.12800
H 	H 	0.94780 0.12640 0.49660 0.09100
C 	C 	0.91040 0.02240 0.51827 0.05700
C 	C 	0.89840 0.08050 0.54485 0.10300
C 	C 	0.95760 0.46030 0.55610 0.08500
H 	H 	0.97740 0.48810 0.54160 -0.01000
C 	C 	0.94160 0.36670 0.55163 -0.13800
H 	H 	0.95000 0.33130 0.53440 0.09100
C 	C 	0.91900 0.47360 0.59946 0.07700
H 	H 	0.91130 0.51070 0.61650 -0.00700
C 	C 	0.90110 0.38050 0.59659 -0.13200
H 	H 	0.88060 0.35530 0.61110 0.09800
C 	C 	0.91300 0.32540 0.57271 0.06500
C 	C 	0.89840 0.22220 0.56983 0.09800
C 	C 	0.80110 0.03340 0.65960 0.07800
H 	H 	0.78590 0.06770 0.67510 -0.01400
C 	C 	0.82250 0.08720 0.63736 -0.12700
H 	H 	0.82240 0.15650 0.63780 0.08500
C 	C 	0.82290 0.89010 0.63895 0.07400
H 	H 	0.82430 0.82080 0.63970 -0.00800
C 	C 	0.84430 0.93700 0.61542 -0.11900
H 	H 	0.85900 0.90080 0.60010 0.08700
C 	C 	0.84370 0.03740 0.61485 0.06500
C 	C 	0.86600 0.08910 0.59011 0.10600
N 	N 	0.04070 0.61310 0.60428 -0.27200
N 	N 	0.23010 0.42910 0.77127 -0.27600
N 	N 	0.37600 0.62090 0.59267 -0.27500
N 	N 	0.17410 0.54850 0.67263 -0.14000
N 	N 	0.25573 0.55260 0.66936 -0.14100
N 	N 	0.21070 0.58650 0.62705 -0.14100
N 	N 	0.80090 0.93590 0.66030 -0.27900
N 	N 	0.92990 0.91370 0.46807 -0.28000
N 	N 	0.94667 0.51290 0.57933 -0.28000
N 	N 	0.87700 0.03390 0.56658 -0.13800
N 	N 	0.90960 0.17470 0.54511 -0.14100
N 	N 	0.87533 0.18390 0.59278 -0.13200
Zn	Zn	0.52280 0.35278 0.08587 1.16400
Zn	Zn	0.06358 0.34145 0.07126 1.16400
Zn	Zn	0.26223 0.64406 0.31055 1.16500
I 	I 	0.50838 0.28200 0.03430 -0.39000
I 	I 	0.56891 0.26517 0.12541 -0.37100
I 	I 	0.07434 0.15827 0.06030 -0.37100
I 	I 	0.99685 0.41046 0.10037 -0.37100
I 	I 	0.30126 0.80977 0.30558 -0.37600
I 	I 	0.17836 0.63760 0.32716 -0.37300
C 	C 	0.42060 0.38630 0.08778 0.06500
H 	H 	0.42320 0.37620 0.06700 -0.00500
C 	C 	0.37700 0.39980 0.10004 -0.11200
H 	H 	0.35020 0.39940 0.08780 0.08000
C 	C 	0.45520 0.40330 0.13303 0.07300
H 	H 	0.48250 0.40530 0.14470 -0.01300
C 	C 	0.41300 0.41760 0.14677 -0.12100
H 	H 	0.41160 0.42980 0.16740 0.08200
C 	C 	0.37290 0.41390 0.13005 0.05400
C 	C 	0.32670 0.42650 0.14394 0.10200
C 	C 	0.31020 0.57540 0.25715 0.06900
H 	H 	0.33570 0.60600 0.26670 -0.01500
C 	C 	0.31640 0.53720 0.22909 -0.12100
H 	H 	0.34590 0.53990 0.21980 0.08100
C 	C 	0.23420 0.52880 0.25786 0.06600
H 	H 	0.20540 0.52450 0.26800 -0.00000
C 	C 	0.23760 0.49100 0.22957 -0.11700
H 	H 	0.21140 0.46220 0.22030 0.08100
C 	C 	0.27960 0.49560 0.21502 0.05400
C 	C 	0.28350 0.46170 0.18387 0.10300
C 	C 	0.12330 0.40380 0.12145 0.06000
H 	H 	0.09420 0.41120 0.13100 -0.01000
C 	C 	0.16300 0.41890 0.13762 -0.11500
H 	H 	0.16120 0.43520 0.15800 0.07900
C 	C 	0.16510 0.37140 0.07953 0.07600
H 	H 	0.16580 0.35430 0.05920 -0.01800
C 	C 	0.20650 0.38680 0.09374 -0.12200
H 	H 	0.23500 0.38180 0.08340 0.08000
C 	C 	0.20570 0.40990 0.12385 0.05100
C 	C 	0.24920 0.42390 0.14074 0.10500
C 	C 	0.59330 0.12450 0.99048 0.07800
H 	H 	0.60350 0.19020 0.98900 -0.01200
C 	C 	0.60340 0.07390 0.01571 -0.12300
H 	H 	0.61970 0.10460 0.03140 0.07900
C 	C 	0.55450 0.99490 0.97103 0.07400
H 	H 	0.53630 0.96790 0.95550 -0.01400
C 	C 	0.56360 0.93850 0.99543 -0.12800
H 	H 	0.55220 0.87360 0.99660 0.09000
C 	C 	0.58960 0.97760 0.01827 0.05600
C 	C 	0.60160 0.91950 0.04485 0.10300
C 	C 	0.54240 0.53970 0.05610 0.08500
H 	H 	0.52260 0.51190 0.04160 -0.01000
C 	C 	0.55840 0.63330 0.05163 -0.13800
H 	H 	0.55000 0.66870 0.03440 0.09100
C 	C 	0.58100 0.52640 0.09946 0.07700
H 	H 	0.58870 0.48930 0.11650 -0.00700
C 	C 	0.59890 0.61950 0.09659 -0.13200
H 	H 	0.61940 0.64470 0.11110 0.09800
C 	C 	0.58700 0.67460 0.07271 0.06500
C 	C 	0.60160 0.77780 0.06983 0.09800
C 	C 	0.69890 0.96660 0.15960 0.07700
H 	H 	0.71410 0.93230 0.17510 -0.01400
C 	C 	0.67750 0.91280 0.13736 -0.12700
H 	H 	0.67760 0.84350 0.13780 0.08500
C 	C 	0.67710 0.10990 0.13895 0.07400
H 	H 	0.67570 0.17920 0.13970 -0.00800
C 	C 	0.65570 0.06300 0.11542 -0.11800
H 	H 	0.64100 0.09920 0.10010 0.08700
C 	C 	0.65630 0.96260 0.11485 0.06400
C 	C 	0.63400 0.91090 0.09011 0.10600
N 	N 	0.45930 0.38690 0.10428 -0.27300
N 	N 	0.26990 0.57090 0.27127 -0.27600
N 	N 	0.12400 0.37910 0.09267 -0.27500
N 	N 	0.32590 0.45150 0.17263 -0.14000
N 	N 	0.24427 0.44740 0.16936 -0.14100
N 	N 	0.28930 0.41350 0.12705 -0.14100
N 	N 	0.69910 0.06410 0.16030 -0.27800
N 	N 	0.57010 0.08630 0.96807 -0.28000
N 	N 	0.55333 0.48710 0.07933 -0.28000
N 	N 	0.62300 0.96610 0.06658 -0.13800
N 	N 	0.59040 0.82530 0.04511 -0.14100
N 	N 	0.62467 0.81610 0.09278 -0.13200
Zn	Zn	0.97720 0.85278 0.08587 1.16300
Zn	Zn	0.43642 0.84145 0.07126 1.16400
Zn	Zn	0.23777 0.14406 0.31055 1.16500
I 	I 	0.99162 0.78200 0.03430 -0.39000
I 	I 	0.93109 0.76517 0.12541 -0.37100
I 	I 	0.42566 0.65827 0.06030 -0.37100
I 	I 	0.50315 0.91046 0.10037 -0.37100
I 	I 	0.19874 0.30977 0.30558 -0.37600
I 	I 	0.32164 0.13760 0.32716 -0.37300
C 	C 	0.07940 0.88630 0.08778 0.06500
H 	H 	0.07680 0.87620 0.06700 -0.00500
C 	C 	0.12300 0.89980 0.10004 -0.11200
H 	H 	0.14980 0.89940 0.08780 0.08100
C 	C 	0.04480 0.90330 0.13303 0.07300
H 	H 	0.01750 0.90530 0.14470 -0.01300
C 	C 	0.08700 0.91760 0.14677 -0.12100
H 	H 	0.08840 0.92980 0.16740 0.08200
C 	C 	0.12710 0.91390 0.13005 0.05400
C 	C 	0.17330 0.92650 0.14394 0.10200
C 	C 	0.18980 0.07540 0.25715 0.07000
H 	H 	0.16430 0.10600 0.26670 -0.01500
C 	C 	0.18360 0.03720 0.22909 -0.12200
H 	H 	0.15410 0.03990 0.21980 0.08100
C 	C 	0.26580 0.02880 0.25786 0.06500
H 	H 	0.29460 0.02450 0.26800 0.00000
C 	C 	0.26240 0.99100 0.22957 -0.11600
H 	H 	0.28860 0.96220 0.22030 0.08100
C 	C 	0.22040 0.99560 0.21502 0.05500
C 	C 	0.21650 0.96170 0.18387 0.10300
C 	C 	0.37670 0.90380 0.12145 0.06000
H 	H 	0.40580 0.91120 0.13100 -0.01000
C 	C 	0.33700 0.91890 0.13762 -0.11500
H 	H 	0.33880 0.93520 0.15800 0.07900
C 	C 	0.33490 0.87140 0.07953 0.07600
H 	H 	0.33420 0.85430 0.05920 -0.01800
C 	C 	0.29350 0.88680 0.09374 -0.12200
H 	H 	0.26500 0.88180 0.08340 0.08000
C 	C 	0.29430 0.90990 0.12385 0.05200
C 	C 	0.25080 0.92390 0.14074 0.10500
C 	C 	0.90670 0.62450 0.99048 0.07800
H 	H 	0.89650 0.69020 0.98900 -0.01200
C 	C 	0.89660 0.57390 0.01571 -0.12400
H 	H 	0.88030 0.60460 0.03140 0.07900
C 	C 	0.94550 0.49490 0.97103 0.07400
H 	H 	0.96370 0.46790 0.95550 -0.01400
C 	C 	0.93640 0.43850 0.99543 -0.12800
H 	H 	0.94780 0.37360 0.99660 0.09000
C 	C 	0.91040 0.47760 0.01827 0.05600
C 	C 	0.89840 0.41950 0.04485 0.10300
C 	C 	0.95760 0.03970 0.05610 0.08600
H 	H 	0.97740 0.01190 0.04160 -0.01000
C 	C 	0.94160 0.13330 0.05163 -0.13800
H 	H 	0.95000 0.16870 0.03440 0.09100
C 	C 	0.91900 0.02640 0.09946 0.07800
H 	H 	0.91130 0.98930 0.11650 -0.00700
C 	C 	0.90110 0.11950 0.09659 -0.13200
H 	H 	0.88060 0.14470 0.11110 0.09800
C 	C 	0.91300 0.17460 0.07271 0.06500
C 	C 	0.89840 0.27780 0.06983 0.09800
C 	C 	0.80110 0.46660 0.15960 0.07700
H 	H 	0.78590 0.43230 0.17510 -0.01400
C 	C 	0.82250 0.41280 0.13736 -0.12600
H 	H 	0.82240 0.34350 0.13780 0.08500
C 	C 	0.82290 0.60990 0.13895 0.07400
H 	H 	0.82430 0.67920 0.13970 -0.00800
C 	C 	0.84430 0.56300 0.11542 -0.11700
H 	H 	0.85900 0.59920 0.10010 0.08600
C 	C 	0.84370 0.46260 0.11485 0.06400
C 	C 	0.86600 0.41090 0.09011 0.10600
N 	N 	0.04070 0.88690 0.10428 -0.27200
N 	N 	0.23010 0.07090 0.27127 -0.27600
N 	N 	0.37600 0.87910 0.09267 -0.27500
N 	N 	0.17410 0.95150 0.17263 -0.14000
N 	N 	0.25573 0.94740 0.16936 -0.14100
N 	N 	0.21070 0.91350 0.12705 -0.14000
N 	N 	0.80090 0.56410 0.16030 -0.27800
N 	N 	0.92990 0.58630 0.96807 -0.28000
N 	N 	0.94667 0.98710 0.07933 -0.28000
N 	N 	0.87700 0.46610 0.06658 -0.13800
N 	N 	0.90960 0.32530 0.04511 -0.14100
N 	N 	0.87533 0.31610 0.09278 -0.13200
Zn	Zn	0.52280 0.14722 0.58587 1.16400
Zn	Zn	0.06358 0.15855 0.57126 1.16400
Zn	Zn	0.26223 0.85594 0.81055 1.16500
I 	I 	0.50838 0.21800 0.53430 -0.39000
I 	I 	0.56891 0.23483 0.62541 -0.37000
I 	I 	0.07434 0.34173 0.56030 -0.37100
I 	I 	0.99685 0.08954 0.60037 -0.37000
I 	I 	0.30126 0.69023 0.80558 -0.37600
I 	I 	0.17836 0.86240 0.82716 -0.37300
C 	C 	0.42060 0.11370 0.58778 0.06500
H 	H 	0.42320 0.12380 0.56700 -0.00500
C 	C 	0.37700 0.10020 0.60004 -0.11200
H 	H 	0.35020 0.10060 0.58780 0.08000
C 	C 	0.45520 0.09670 0.63303 0.07300
H 	H 	0.48250 0.09470 0.64470 -0.01300
C 	C 	0.41300 0.08240 0.64677 -0.12100
H 	H 	0.41160 0.07020 0.66740 0.08200
C 	C 	0.37290 0.08610 0.63005 0.05400
C 	C 	0.32670 0.07350 0.64394 0.10200
C 	C 	0.31020 0.92460 0.75715 0.07000
H 	H 	0.33570 0.89400 0.76670 -0.01500
C 	C 	0.31640 0.96280 0.72909 -0.12200
H 	H 	0.34590 0.96010 0.71980 0.08100
C 	C 	0.23420 0.97120 0.75786 0.06500
H 	H 	0.20540 0.97550 0.76800 -0.00000
C 	C 	0.23760 0.00900 0.72957 -0.11700
H 	H 	0.21140 0.03780 0.72030 0.08100
C 	C 	0.27960 0.00440 0.71502 0.05400
C 	C 	0.28350 0.03830 0.68387 0.10300
C 	C 	0.12330 0.09620 0.62145 0.06000
H 	H 	0.09420 0.08880 0.63100 -0.01000
C 	C 	0.16300 0.08110 0.63762 -0.11500
H 	H 	0.16120 0.06480 0.65800 0.07900
C 	C 	0.16510 0.12860 0.57953 0.07600
H 	H 	0.16580 0.14570 0.55920 -0.01800
C 	C 	0.20650 0.11320 0.59374 -0.12200
H 	H 	0.23500 0.11820 0.58340 0.08000
C 	C 	0.20570 0.09010 0.62385 0.05100
C 	C 	0.24920 0.07610 0.64074 0.10500
C 	C 	0.59330 0.37550 0.49048 0.07800
H 	H 	0.60350 0.30980 0.48900 -0.01200
C 	C 	0.60340 0.42610 0.51571 -0.12400
H 	H 	0.61970 0.39540 0.53140 0.07900
C 	C 	0.55450 0.50510 0.47103 0.07400
H 	H 	0.53630 0.53210 0.45550 -0.01400
C 	C 	0.56360 0.56150 0.49543 -0.12800
H 	H 	0.55220 0.62640 0.49660 0.09000
C 	C 	0.58960 0.52240 0.51827 0.05600
C 	C 	0.60160 0.58050 0.54485 0.10300
C 	C 	0.54240 0.96030 0.55610 0.08500
H 	H 	0.52260 0.98810 0.54160 -0.01000
C 	C 	0.55840 0.86670 0.55163 -0.13800
H 	H 	0.55000 0.83130 0.53440 0.09100
C 	C 	0.58100 0.97360 0.59946 0.07600
H 	H 	0.58870 0.01070 0.61650 -0.00700
C 	C 	0.59890 0.88050 0.59659 -0.13100
H 	H 	0.61940 0.85530 0.61110 0.09800
C 	C 	0.58700 0.82540 0.57271 0.06500
C 	C 	0.60160 0.72220 0.56983 0.09900
C 	C 	0.69890 0.53340 0.65960 0.07700
H 	H 	0.71410 0.56770 0.67510 -0.01400
C 	C 	0.67750 0.58720 0.63736 -0.12600
H 	H 	0.67760 0.65650 0.63780 0.08500
C 	C 	0.67710 0.39010 0.63895 0.07400
H 	H 	0.67570 0.32080 0.63970 -0.00800
C 	C 	0.65570 0.43700 0.61542 -0.11700
H 	H 	0.64100 0.40080 0.60010 0.08600
C 	C 	0.65630 0.53740 0.61485 0.06400
C 	C 	0.63400 0.58910 0.59011 0.10600
N 	N 	0.45930 0.11310 0.60428 -0.27200
N 	N 	0.26990 0.92910 0.77127 -0.27600
N 	N 	0.12400 0.12090 0.59267 -0.27500
N 	N 	0.32590 0.04850 0.67263 -0.14000
N 	N 	0.24427 0.05260 0.66936 -0.14100
N 	N 	0.28930 0.08650 0.62705 -0.14100
N 	N 	0.69910 0.43590 0.66030 -0.27800
N 	N 	0.57010 0.41370 0.46807 -0.28000
N 	N 	0.55333 0.01290 0.57933 -0.27900
N 	N 	0.62300 0.53390 0.56658 -0.13800
N 	N 	0.59040 0.67470 0.54511 -0.14100
N 	N 	0.62467 0.68390 0.59278 -0.13200
Zn	Zn	0.02280 0.35278 0.41413 1.16300
Zn	Zn	0.56358 0.34145 0.42874 1.16400
Zn	Zn	0.76223 0.64406 0.18945 1.16500
I 	I 	0.00838 0.28200 0.46570 -0.39000
I 	I 	0.06891 0.26517 0.37459 -0.37100
I 	I 	0.57434 0.15827 0.43970 -0.37100
I 	I 	0.49685 0.41046 0.39963 -0.37100
I 	I 	0.80126 0.80977 0.19442 -0.37600
I 	I 	0.67836 0.63760 0.17284 -0.37300
C 	C 	0.92060 0.38630 0.41222 0.06500
H 	H 	0.92320 0.37620 0.43300 -0.00500
C 	C 	0.87700 0.39980 0.39996 -0.11200
H 	H 	0.85020 0.39940 0.41220 0.08000
C 	C 	0.95520 0.40330 0.36697 0.07300
H 	H 	0.98250 0.40530 0.35530 -0.01300
C 	C 	0.91300 0.41760 0.35323 -0.12100
H 	H 	0.91160 0.42980 0.33260 0.08200
C 	C 	0.87290 0.41390 0.36995 0.05400
C 	C 	0.82670 0.42650 0.35606 0.10200
C 	C 	0.81020 0.57540 0.24285 0.06900
H 	H 	0.83570 0.60600 0.23330 -0.01500
C 	C 	0.81640 0.53720 0.27091 -0.12100
H 	H 	0.84590 0.53990 0.28020 0.08100
C 	C 	0.73420 0.52880 0.24214 0.06600
H 	H 	0.70540 0.52450 0.23200 -0.00000
C 	C 	0.73760 0.49100 0.27043 -0.11700
H 	H 	0.71140 0.46220 0.27970 0.08100
C 	C 	0.77960 0.49560 0.28498 0.05400
C 	C 	0.78350 0.46170 0.31613 0.10300
C 	C 	0.62330 0.40380 0.37855 0.06000
H 	H 	0.59420 0.41120 0.36900 -0.01000
C 	C 	0.66300 0.41890 0.36238 -0.11500
H 	H 	0.66120 0.43520 0.34200 0.07900
C 	C 	0.66510 0.37140 0.42047 0.07600
H 	H 	0.66580 0.35430 0.44080 -0.01800
C 	C 	0.70650 0.38680 0.40626 -0.12200
H 	H 	0.73500 0.38180 0.41660 0.08000
C 	C 	0.70570 0.40990 0.37615 0.05100
C 	C 	0.74920 0.42390 0.35926 0.10500
C 	C 	0.09330 0.12450 0.50952 0.07900
H 	H 	0.10350 0.19020 0.51100 -0.01200
C 	C 	0.10340 0.07390 0.48429 -0.12500
H 	H 	0.11970 0.10460 0.46860 0.08000
C 	C 	0.05450 0.99490 0.52897 0.07500
H 	H 	0.03630 0.96790 0.54450 -0.01400
C 	C 	0.06360 0.93850 0.50457 -0.12800
H 	H 	0.05220 0.87360 0.50340 0.09100
C 	C 	0.08960 0.97760 0.48173 0.05700
C 	C 	0.10160 0.91950 0.45515 0.10300
C 	C 	0.04240 0.53970 0.44390 0.08500
H 	H 	0.02260 0.51190 0.45840 -0.01000
C 	C 	0.05840 0.63330 0.44837 -0.13800
H 	H 	0.05000 0.66870 0.46560 0.09100
C 	C 	0.08100 0.52640 0.40054 0.07700
H 	H 	0.08870 0.48930 0.38350 -0.00700
C 	C 	0.09890 0.61950 0.40341 -0.13200
H 	H 	0.11940 0.64470 0.38890 0.09800
C 	C 	0.08700 0.67460 0.42729 0.06500
C 	C 	0.10160 0.77780 0.43017 0.09800
C 	C 	0.19890 0.96660 0.34040 0.07800
H 	H 	0.21410 0.93230 0.32490 -0.01400
C 	C 	0.17750 0.91280 0.36264 -0.12700
H 	H 	0.17760 0.84350 0.36220 0.08500
C 	C 	0.17710 0.10990 0.36105 0.07400
H 	H 	0.17570 0.17920 0.36030 -0.00800
C 	C 	0.15570 0.06300 0.38458 -0.11900
H 	H 	0.14100 0.09920 0.39990 0.08700
C 	C 	0.15630 0.96260 0.38515 0.06500
C 	C 	0.13400 0.91090 0.40989 0.10600
N 	N 	0.95930 0.38690 0.39572 -0.27200
N 	N 	0.76990 0.57090 0.22873 -0.27600
N 	N 	0.62400 0.37910 0.40733 -0.27500
N 	N 	0.82590 0.45150 0.32737 -0.14000
N 	N 	0.74427 0.44740 0.33064 -0.14100
N 	N 	0.78930 0.41350 0.37295 -0.14100
N 	N 	0.19910 0.06410 0.33970 -0.27900
N 	N 	0.07010 0.08630 0.53193 -0.28000
N 	N 	0.05333 0.48710 0.42067 -0.28000
N 	N 	0.12300 0.96610 0.43342 -0.13800
N 	N 	0.09040 0.82530 0.45489 -0.14100
N 	N 	0.12467 0.81610 0.40722 -0.13200
Zn	Zn	0.47720 0.64722 0.91413 1.16400
Zn	Zn	0.93642 0.65855 0.92874 1.16400
Zn	Zn	0.73777 0.35594 0.68945 1.16500
I 	I 	0.49162 0.71800 0.96570 -0.39000
I 	I 	0.43109 0.73483 0.87459 -0.37100
I 	I 	0.92566 0.84173 0.93970 -0.37100
I 	I 	0.00315 0.58954 0.89963 -0.37100
I 	I 	0.69874 0.19023 0.69442 -0.37600
I 	I 	0.82164 0.36240 0.67284 -0.37300
C 	C 	0.57940 0.61370 0.91222 0.06500
H 	H 	0.57680 0.62380 0.93300 -0.00500
C 	C 	0.62300 0.60020 0.89996 -0.11200
H 	H 	0.64980 0.60060 0.91220 0.08000
C 	C 	0.54480 0.59670 0.86697 0.07300
H 	H 	0.51750 0.59470 0.85530 -0.01300
C 	C 	0.58700 0.58240 0.85323 -0.12100
H 	H 	0.58840 0.57020 0.83260 0.08200
C 	C 	0.62710 0.58610 0.86995 0.05400
C 	C 	0.67330 0.57350 0.85606 0.10200
C 	C 	0.68980 0.42460 0.74285 0.06900
H 	H 	0.66430 0.39400 0.73330 -0.01500
C 	C 	0.68360 0.46280 0.77091 -0.12100
H 	H 	0.65410 0.46010 0.78020 0.08100
C 	C 	0.76580 0.47120 0.74214 0.06600
H 	H 	0.79460 0.47550 0.73200 -0.00000
C 	C 	0.76240 0.50900 0.77043 -0.11700
H 	H 	0.78860 0.53780 0.77970 0.08100
C 	C 	0.72040 0.50440 0.78498 0.05400
C 	C 	0.71650 0.53830 0.81613 0.10300
C 	C 	0.87670 0.59620 0.87855 0.06000
H 	H 	0.90580 0.58880 0.86900 -0.01000
C 	C 	0.83700 0.58110 0.86238 -0.11500
H 	H 	0.83880 0.56480 0.84200 0.07900
C 	C 	0.83490 0.62860 0.92047 0.07600
H 	H 	0.83420 0.64570 0.94080 -0.01800
C 	C 	0.79350 0.61320 0.90626 -0.12200
H 	H 	0.76500 0.61820 0.91660 0.08000
C 	C 	0.79430 0.59010 0.87615 0.05100
C 	C 	0.75080 0.57610 0.85926 0.10500
C 	C 	0.40670 0.87550 0.00952 0.07800
H 	H 	0.39650 0.80980 0.01100 -0.01200
C 	C 	0.39660 0.92610 0.98429 -0.12300
H 	H 	0.38030 0.89540 0.96860 0.07900
C 	C 	0.44550 0.00510 0.02897 0.07400
H 	H 	0.46370 0.03210 0.04450 -0.01400
C 	C 	0.43640 0.06150 0.00457 -0.12800
H 	H 	0.44780 0.12640 0.00340 0.09000
C 	C 	0.41040 0.02240 0.98173 0.05600
C 	C 	0.39840 0.08050 0.95515 0.10300
C 	C 	0.45760 0.46030 0.94390 0.08500
H 	H 	0.47740 0.48810 0.95840 -0.01000
C 	C 	0.44160 0.36670 0.94837 -0.13800
H 	H 	0.45000 0.33130 0.96560 0.09100
C 	C 	0.41900 0.47360 0.90054 0.07700
H 	H 	0.41130 0.51070 0.88350 -0.00700
C 	C 	0.40110 0.38050 0.90341 -0.13200
H 	H 	0.38060 0.35530 0.88890 0.09800
C 	C 	0.41300 0.32540 0.92729 0.06500
C 	C 	0.39840 0.22220 0.93017 0.09800
C 	C 	0.30110 0.03340 0.84040 0.07700
H 	H 	0.28590 0.06770 0.82490 -0.01400
C 	C 	0.32250 0.08720 0.86264 -0.12700
H 	H 	0.32240 0.15650 0.86220 0.08500
C 	C 	0.32290 0.89010 0.86105 0.07400
H 	H 	0.32430 0.82080 0.86030 -0.00800
C 	C 	0.34430 0.93700 0.88458 -0.11800
H 	H 	0.35900 0.90080 0.89990 0.08700
C 	C 	0.34370 0.03740 0.88515 0.06400
C 	C 	0.36600 0.08910 0.90989 0.10600
N 	N 	0.54070 0.61310 0.89572 -0.27300
N 	N 	0.73010 0.42910 0.72873 -0.27600
N 	N 	0.87600 0.62090 0.90733 -0.27500
N 	N 	0.67410 0.54850 0.82737 -0.14000
N 	N 	0.75573 0.55260 0.83064 -0.14100
N 	N 	0.71070 0.58650 0.87295 -0.14100
N 	N 	0.30090 0.93590 0.83970 -0.27800
N 	N 	0.42990 0.91370 0.03193 -0.28000
N 	N 	0.44667 0.51290 0.92067 -0.28000
N 	N 	0.37700 0.03390 0.93342 -0.13800
N 	N 	0.40960 0.17470 0.95489 -0.14100
N 	N 	0.37533 0.18390 0.90722 -0.13200
