data_crystal

_cell_length_a 27.80600
_cell_length_b 13.80910
_cell_length_c 45.13780
_cell_angle_alpha 90.00000
_cell_angle_beta  90.00000
_cell_angle_gamma 90.00000

_symmetry_space_group_name_	'P 1'
_symmetry_space_group_name_H-M	'P 1'

loop_
_symmetry_equiv_pos_as_xyz
  x,y,z

loop_
_atom_site_label
_atom_site_type_symbol
_atom_site_fract_x
_atom_site_fract_y
_atom_site_fract_z
_atom_site_charge
Zn	Zn	0.47652 0.12844 0.41532 1.16300
Zn	Zn	0.73880 0.83092 0.18533 1.16400
Zn	Zn	0.95148 0.14518 0.42169 1.16300
I 	I 	0.49452 0.20158 0.46633 -0.39000
I 	I 	0.43073 0.21682 0.37528 -0.37200
I 	I 	0.69389 0.67095 0.19226 -0.37100
I 	I 	0.82676 0.83229 0.17010 -0.37200
I 	I 	0.94575 0.32757 0.42694 -0.38600
I 	I 	0.01626 0.05227 0.39445 -0.36400
C 	C 	0.67660 0.04710 0.35344 0.09900
C 	C 	0.71980 0.01060 0.31267 0.10100
C 	C 	0.75690 0.05020 0.35504 0.10700
C 	C 	0.62930 0.06000 0.36850 0.06000
C 	C 	0.62650 0.08060 0.39786 -0.12100
H 	H 	0.65510 0.08420 0.40930 0.08200
C 	C 	0.58330 0.09640 0.41123 0.07400
H 	H 	0.58260 0.11200 0.43170 -0.00800
C 	C 	0.54460 0.06770 0.36730 0.07400
H 	H 	0.51550 0.06250 0.35640 -0.01100
C 	C 	0.58660 0.05140 0.35276 -0.12200
H 	H 	0.58670 0.03460 0.33230 0.08200
C 	C 	0.72360 0.97750 0.28164 0.04900
C 	C 	0.68300 0.94050 0.26716 -0.11500
H 	H 	0.65240 0.94000 0.27640 0.08000
C 	C 	0.68960 0.90380 0.23823 0.06900
H 	H 	0.66260 0.87730 0.22830 -0.01300
C 	C 	0.76920 0.94240 0.23828 0.06100
H 	H 	0.79910 0.94470 0.22810 0.00100
C 	C 	0.76690 0.97830 0.26678 -0.10900
H 	H 	0.79490 0.00340 0.27610 0.07800
C 	C 	0.80240 0.06700 0.37145 0.04600
C 	C 	0.84690 0.05800 0.35748 -0.10800
H 	H 	0.84840 0.03990 0.33720 0.07700
C 	C 	0.88820 0.07530 0.37296 0.05300
H 	H 	0.91820 0.06790 0.36320 -0.00700
C 	C 	0.84540 0.11030 0.41546 0.07100
H 	H 	0.84510 0.12920 0.43570 -0.01600
C 	C 	0.80200 0.09210 0.40169 -0.11600
H 	H 	0.77270 0.09650 0.41230 0.07800
C 	C 	0.39430 0.70680 0.43380 0.09500
C 	C 	0.39880 0.56930 0.46020 0.09600
C 	C 	0.36150 0.57170 0.41556 0.10700
C 	C 	0.40850 0.80980 0.43015 0.05400
C 	C 	0.40550 0.85560 0.40305 -0.12800
H 	H 	0.39230 0.82300 0.38640 0.09700
C 	C 	0.42170 0.94770 0.40053 0.07000
H 	H 	0.41810 0.97940 0.38200 -0.00500
C 	C 	0.44520 0.95290 0.44898 0.08600
H 	H 	0.45890 0.98720 0.46510 -0.00900
C 	C 	0.42930 0.86120 0.45412 -0.13100
H 	H 	0.43200 0.83260 0.47320 0.09100
C 	C 	0.41500 0.51540 0.48604 0.04900
C 	C 	0.43950 0.56190 0.50894 -0.12300
H 	H 	0.44700 0.62880 0.50730 0.09000
C 	C 	0.45260 0.51150 0.53385 0.07400
H 	H 	0.46950 0.54470 0.54910 -0.01300
C 	C 	0.42030 0.37080 0.51555 0.05700
H 	H 	0.41400 0.30360 0.51770 -0.00300
C 	C 	0.40600 0.41810 0.48932 -0.10600
H 	H 	0.39020 0.38300 0.47400 0.07400
C 	C 	0.33800 0.51780 0.39165 0.05700
C 	C 	0.34040 0.41740 0.39070 -0.10900
H 	H 	0.35700 0.38290 0.40580 0.08200
C 	C 	0.31920 0.36870 0.36820 0.06500
H 	H 	0.32060 0.30000 0.36830 -0.00600
C 	C 	0.29280 0.50880 0.34687 0.08300
H 	H 	0.27550 0.54070 0.33160 -0.01800
C 	C 	0.31260 0.56430 0.36838 -0.12300
H 	H 	0.30950 0.63280 0.36790 0.07900
N 	N 	0.67600 0.02100 0.32454 -0.13800
N 	N 	0.76130 0.02530 0.32704 -0.14100
N 	N 	0.71560 0.06310 0.36963 -0.14100
N 	N 	0.54160 0.09050 0.39623 -0.27000
N 	N 	0.73120 0.90450 0.22441 -0.27500
N 	N 	0.88770 0.10260 0.40184 -0.26900
N 	N 	0.40930 0.66400 0.45851 -0.14400
N 	N 	0.37420 0.51990 0.43948 -0.13600
N 	N 	0.36970 0.66630 0.41180 -0.13400
N 	N 	0.44280 0.99750 0.42312 -0.27400
N 	N 	0.44270 0.41820 0.53760 -0.27300
N 	N 	0.29600 0.41330 0.34560 -0.27700
Zn	Zn	0.02348 0.87156 0.91532 1.16300
Zn	Zn	0.76120 0.16908 0.68533 1.16500
Zn	Zn	0.54852 0.85482 0.92169 1.16400
I 	I 	0.00548 0.79842 0.96633 -0.38900
I 	I 	0.06927 0.78318 0.87528 -0.37100
I 	I 	0.80611 0.32905 0.69226 -0.37000
I 	I 	0.67324 0.16771 0.67010 -0.37300
I 	I 	0.55425 0.67243 0.92694 -0.38600
I 	I 	0.48374 0.94773 0.89445 -0.36500
C 	C 	0.82340 0.95290 0.85344 0.09900
C 	C 	0.78020 0.98940 0.81267 0.10200
C 	C 	0.74310 0.94980 0.85504 0.10800
C 	C 	0.87070 0.94000 0.86850 0.06000
C 	C 	0.87350 0.91940 0.89786 -0.12100
H 	H 	0.84490 0.91580 0.90930 0.08200
C 	C 	0.91670 0.90360 0.91123 0.07400
H 	H 	0.91740 0.88800 0.93170 -0.00800
C 	C 	0.95540 0.93230 0.86730 0.07500
H 	H 	0.98450 0.93750 0.85640 -0.01100
C 	C 	0.91340 0.94860 0.85276 -0.12200
H 	H 	0.91330 0.96540 0.83230 0.08200
C 	C 	0.77640 0.02250 0.78164 0.04900
C 	C 	0.81700 0.05950 0.76716 -0.11500
H 	H 	0.84760 0.06000 0.77640 0.08000
C 	C 	0.81040 0.09620 0.73823 0.06900
H 	H 	0.83740 0.12270 0.72830 -0.01400
C 	C 	0.73080 0.05760 0.73828 0.06200
H 	H 	0.70090 0.05530 0.72810 0.00100
C 	C 	0.73310 0.02170 0.76678 -0.11100
H 	H 	0.70510 0.99660 0.77610 0.07900
C 	C 	0.69760 0.93300 0.87145 0.04600
C 	C 	0.65310 0.94200 0.85748 -0.10800
H 	H 	0.65160 0.96010 0.83720 0.07700
C 	C 	0.61180 0.92470 0.87296 0.05300
H 	H 	0.58180 0.93210 0.86320 -0.00700
C 	C 	0.65460 0.88970 0.91546 0.07200
H 	H 	0.65490 0.87080 0.93570 -0.01600
C 	C 	0.69800 0.90790 0.90169 -0.11600
H 	H 	0.72730 0.90350 0.91230 0.07800
C 	C 	0.10570 0.29320 0.93380 0.09500
C 	C 	0.10120 0.43070 0.96020 0.09600
C 	C 	0.13850 0.42830 0.91556 0.10700
C 	C 	0.09150 0.19020 0.93015 0.05400
C 	C 	0.09450 0.14440 0.90305 -0.12800
H 	H 	0.10770 0.17700 0.88640 0.09800
C 	C 	0.07830 0.05230 0.90053 0.07000
H 	H 	0.08190 0.02060 0.88200 -0.00400
C 	C 	0.05480 0.04710 0.94898 0.08600
H 	H 	0.04110 0.01280 0.96510 -0.00900
C 	C 	0.07070 0.13880 0.95412 -0.13100
H 	H 	0.06800 0.16740 0.97320 0.09100
C 	C 	0.08500 0.48460 0.98604 0.04900
C 	C 	0.06050 0.43810 0.00894 -0.12300
H 	H 	0.05300 0.37120 0.00730 0.09000
C 	C 	0.04740 0.48850 0.03385 0.07400
H 	H 	0.03050 0.45530 0.04910 -0.01300
C 	C 	0.07970 0.62920 0.01555 0.05700
H 	H 	0.08600 0.69640 0.01770 -0.00300
C 	C 	0.09400 0.58190 0.98932 -0.10600
H 	H 	0.10980 0.61700 0.97400 0.07400
C 	C 	0.16200 0.48220 0.89165 0.05700
C 	C 	0.15960 0.58260 0.89070 -0.10900
H 	H 	0.14300 0.61710 0.90580 0.08200
C 	C 	0.18080 0.63130 0.86820 0.06500
H 	H 	0.17940 0.70000 0.86830 -0.00600
C 	C 	0.20720 0.49120 0.84687 0.08300
H 	H 	0.22450 0.45930 0.83160 -0.01800
C 	C 	0.18740 0.43570 0.86838 -0.12300
H 	H 	0.19050 0.36720 0.86790 0.07900
N 	N 	0.82400 0.97900 0.82454 -0.13800
N 	N 	0.73870 0.97470 0.82704 -0.14100
N 	N 	0.78440 0.93690 0.86963 -0.14100
N 	N 	0.95840 0.90950 0.89623 -0.26900
N 	N 	0.76880 0.09550 0.72441 -0.27500
N 	N 	0.61230 0.89740 0.90184 -0.26900
N 	N 	0.09070 0.33600 0.95851 -0.14400
N 	N 	0.12580 0.48010 0.93948 -0.13600
N 	N 	0.13030 0.33370 0.91180 -0.13400
N 	N 	0.05720 0.00250 0.92312 -0.27400
N 	N 	0.05730 0.58180 0.03760 -0.27300
N 	N 	0.20400 0.58670 0.84560 -0.27700
Zn	Zn	0.52348 0.62844 0.08468 1.16400
Zn	Zn	0.26120 0.33092 0.31467 1.16500
Zn	Zn	0.04852 0.64518 0.07831 1.16400
I 	I 	0.50548 0.70158 0.03367 -0.38800
I 	I 	0.56927 0.71682 0.12472 -0.37000
I 	I 	0.30611 0.17095 0.30774 -0.37100
I 	I 	0.17324 0.33229 0.32990 -0.37300
I 	I 	0.05425 0.82757 0.07306 -0.38600
I 	I 	0.98374 0.55227 0.10555 -0.36400
C 	C 	0.32340 0.54710 0.14656 0.09900
C 	C 	0.28020 0.51060 0.18733 0.10200
C 	C 	0.24310 0.55020 0.14496 0.10800
C 	C 	0.37070 0.56000 0.13150 0.06100
C 	C 	0.37350 0.58060 0.10214 -0.12100
H 	H 	0.34490 0.58420 0.09070 0.08200
C 	C 	0.41670 0.59640 0.08877 0.07400
H 	H 	0.41740 0.61200 0.06830 -0.00800
C 	C 	0.45540 0.56770 0.13270 0.07500
H 	H 	0.48450 0.56250 0.14360 -0.01100
C 	C 	0.41340 0.55140 0.14724 -0.12200
H 	H 	0.41330 0.53460 0.16770 0.08200
C 	C 	0.27640 0.47750 0.21836 0.04900
C 	C 	0.31700 0.44050 0.23284 -0.11500
H 	H 	0.34760 0.44000 0.22360 0.08000
C 	C 	0.31040 0.40380 0.26177 0.06900
H 	H 	0.33740 0.37730 0.27170 -0.01400
C 	C 	0.23080 0.44240 0.26172 0.06200
H 	H 	0.20090 0.44470 0.27190 0.00100
C 	C 	0.23310 0.47830 0.23322 -0.11300
H 	H 	0.20510 0.50340 0.22390 0.08100
C 	C 	0.19760 0.56700 0.12855 0.04600
C 	C 	0.15310 0.55800 0.14252 -0.10800
H 	H 	0.15160 0.53990 0.16280 0.07700
C 	C 	0.11180 0.57530 0.12704 0.05300
H 	H 	0.08180 0.56790 0.13680 -0.00600
C 	C 	0.15460 0.61030 0.08454 0.07200
H 	H 	0.15490 0.62920 0.06430 -0.01600
C 	C 	0.19800 0.59210 0.09831 -0.11600
H 	H 	0.22730 0.59650 0.08770 0.07800
C 	C 	0.60570 0.20680 0.06620 0.09500
C 	C 	0.60120 0.06930 0.03980 0.09600
C 	C 	0.63850 0.07170 0.08444 0.10700
C 	C 	0.59150 0.30980 0.06985 0.05400
C 	C 	0.59450 0.35560 0.09695 -0.12800
H 	H 	0.60770 0.32300 0.11360 0.09700
C 	C 	0.57830 0.44770 0.09947 0.07000
H 	H 	0.58190 0.47940 0.11800 -0.00500
C 	C 	0.55480 0.45290 0.05102 0.08600
H 	H 	0.54110 0.48720 0.03490 -0.00900
C 	C 	0.57070 0.36120 0.04588 -0.13100
H 	H 	0.56800 0.33260 0.02680 0.09100
C 	C 	0.58500 0.01540 0.01396 0.04800
C 	C 	0.56050 0.06190 0.99106 -0.12300
H 	H 	0.55300 0.12880 0.99270 0.09000
C 	C 	0.54740 0.01150 0.96615 0.07400
H 	H 	0.53050 0.04470 0.95090 -0.01300
C 	C 	0.57970 0.87080 0.98445 0.05700
H 	H 	0.58600 0.80360 0.98230 -0.00200
C 	C 	0.59400 0.91810 0.01068 -0.10600
H 	H 	0.60980 0.88300 0.02600 0.07400
C 	C 	0.66200 0.01780 0.10835 0.05500
C 	C 	0.65960 0.91740 0.10930 -0.10600
H 	H 	0.64300 0.88290 0.09420 0.08200
C 	C 	0.68080 0.86870 0.13180 0.06400
H 	H 	0.67940 0.80000 0.13170 -0.00600
C 	C 	0.70720 0.00880 0.15313 0.08100
H 	H 	0.72450 0.04070 0.16840 -0.01700
C 	C 	0.68740 0.06430 0.13162 -0.12100
H 	H 	0.69050 0.13280 0.13210 0.07800
N 	N 	0.32400 0.52100 0.17546 -0.13800
N 	N 	0.23870 0.52530 0.17296 -0.14100
N 	N 	0.28440 0.56310 0.13037 -0.14100
N 	N 	0.45840 0.59050 0.10377 -0.27000
N 	N 	0.26880 0.40450 0.27559 -0.27600
N 	N 	0.11230 0.60260 0.09816 -0.26900
N 	N 	0.59070 0.16400 0.04149 -0.14400
N 	N 	0.62580 0.01990 0.06052 -0.13600
N 	N 	0.63030 0.16630 0.08820 -0.13400
N 	N 	0.55720 0.49750 0.07688 -0.27400
N 	N 	0.55730 0.91820 0.96240 -0.27300
N 	N 	0.70400 0.91330 0.15440 -0.27500
Zn	Zn	0.97652 0.37156 0.58468 1.16400
Zn	Zn	0.23880 0.66908 0.81467 1.16500
Zn	Zn	0.45148 0.35482 0.57831 1.16400
I 	I 	0.99452 0.29842 0.53367 -0.38900
I 	I 	0.93073 0.28318 0.62472 -0.37100
I 	I 	0.19389 0.82905 0.80774 -0.37100
I 	I 	0.32676 0.66771 0.82990 -0.37300
I 	I 	0.44575 0.17243 0.57306 -0.38600
I 	I 	0.51626 0.44773 0.60555 -0.36400
C 	C 	0.17660 0.45290 0.64656 0.09900
C 	C 	0.21980 0.48940 0.68733 0.10200
C 	C 	0.25690 0.44980 0.64496 0.10800
C 	C 	0.12930 0.44000 0.63150 0.06100
C 	C 	0.12650 0.41940 0.60214 -0.12100
H 	H 	0.15510 0.41580 0.59070 0.08200
C 	C 	0.08330 0.40360 0.58877 0.07400
H 	H 	0.08260 0.38800 0.56830 -0.00800
C 	C 	0.04460 0.43230 0.63270 0.07500
H 	H 	0.01550 0.43750 0.64360 -0.01100
C 	C 	0.08660 0.44860 0.64724 -0.12200
H 	H 	0.08670 0.46540 0.66770 0.08200
C 	C 	0.22360 0.52250 0.71836 0.04900
C 	C 	0.18300 0.55950 0.73284 -0.11500
H 	H 	0.15240 0.56000 0.72360 0.08000
C 	C 	0.18960 0.59620 0.76177 0.06900
H 	H 	0.16260 0.62270 0.77170 -0.01400
C 	C 	0.26920 0.55760 0.76172 0.06200
H 	H 	0.29910 0.55530 0.77190 0.00100
C 	C 	0.26690 0.52170 0.73322 -0.11300
H 	H 	0.29490 0.49660 0.72390 0.08100
C 	C 	0.30240 0.43300 0.62855 0.04600
C 	C 	0.34690 0.44200 0.64252 -0.10800
H 	H 	0.34840 0.46010 0.66280 0.07700
C 	C 	0.38820 0.42470 0.62704 0.05300
H 	H 	0.41820 0.43210 0.63680 -0.00600
C 	C 	0.34540 0.38970 0.58454 0.07200
H 	H 	0.34510 0.37080 0.56430 -0.01600
C 	C 	0.30200 0.40790 0.59831 -0.11600
H 	H 	0.27270 0.40350 0.58770 0.07800
C 	C 	0.89430 0.79320 0.56620 0.09500
C 	C 	0.89880 0.93070 0.53980 0.09600
C 	C 	0.86150 0.92830 0.58444 0.10700
C 	C 	0.90850 0.69020 0.56985 0.05400
C 	C 	0.90550 0.64440 0.59695 -0.12800
H 	H 	0.89230 0.67700 0.61360 0.09700
C 	C 	0.92170 0.55230 0.59947 0.07000
H 	H 	0.91810 0.52060 0.61800 -0.00500
C 	C 	0.94520 0.54710 0.55102 0.08600
H 	H 	0.95890 0.51280 0.53490 -0.00900
C 	C 	0.92930 0.63880 0.54588 -0.13100
H 	H 	0.93200 0.66740 0.52680 0.09100
C 	C 	0.91500 0.98460 0.51396 0.05000
C 	C 	0.93950 0.93810 0.49106 -0.12400
H 	H 	0.94700 0.87120 0.49270 0.09000
C 	C 	0.95260 0.98850 0.46615 0.07600
H 	H 	0.96950 0.95530 0.45090 -0.01300
C 	C 	0.92030 0.12920 0.48445 0.05800
H 	H 	0.91400 0.19640 0.48230 -0.00300
C 	C 	0.90600 0.08190 0.51068 -0.10800
H 	H 	0.89020 0.11700 0.52600 0.07500
C 	C 	0.83800 0.98220 0.60835 0.05600
C 	C 	0.84040 0.08260 0.60930 -0.10800
H 	H 	0.85700 0.11710 0.59420 0.08200
C 	C 	0.81920 0.13130 0.63180 0.06500
H 	H 	0.82060 0.20000 0.63170 -0.00600
C 	C 	0.79280 0.99120 0.65313 0.08200
H 	H 	0.77550 0.95930 0.66840 -0.01700
C 	C 	0.81260 0.93570 0.63162 -0.12200
H 	H 	0.80950 0.86720 0.63210 0.07900
N 	N 	0.17600 0.47900 0.67546 -0.13800
N 	N 	0.26130 0.47470 0.67296 -0.14100
N 	N 	0.21560 0.43690 0.63037 -0.14100
N 	N 	0.04160 0.40950 0.60377 -0.26900
N 	N 	0.23120 0.59550 0.77559 -0.27600
N 	N 	0.38770 0.39740 0.59816 -0.26900
N 	N 	0.90930 0.83600 0.54149 -0.14400
N 	N 	0.87420 0.98010 0.56052 -0.13600
N 	N 	0.86970 0.83370 0.58820 -0.13400
N 	N 	0.94280 0.50250 0.57688 -0.27400
N 	N 	0.94270 0.08180 0.46240 -0.27400
N 	N 	0.79600 0.08670 0.65440 -0.27600
Zn	Zn	0.52348 0.87156 0.58468 1.16400
Zn	Zn	0.26120 0.16908 0.81467 1.16500
Zn	Zn	0.04852 0.85482 0.57831 1.16400
I 	I 	0.50548 0.79842 0.53367 -0.38900
I 	I 	0.56927 0.78318 0.62472 -0.37100
I 	I 	0.30611 0.32905 0.80774 -0.37000
I 	I 	0.17324 0.16771 0.82990 -0.37200
I 	I 	0.05425 0.67243 0.57306 -0.38600
I 	I 	0.98374 0.94773 0.60555 -0.36400
C 	C 	0.32340 0.95290 0.64656 0.09900
C 	C 	0.28020 0.98940 0.68733 0.10100
C 	C 	0.24310 0.94980 0.64496 0.10700
C 	C 	0.37070 0.94000 0.63150 0.06000
C 	C 	0.37350 0.91940 0.60214 -0.12100
H 	H 	0.34490 0.91580 0.59070 0.08200
C 	C 	0.41670 0.90360 0.58877 0.07400
H 	H 	0.41740 0.88800 0.56830 -0.00800
C 	C 	0.45540 0.93230 0.63270 0.07400
H 	H 	0.48450 0.93750 0.64360 -0.01100
C 	C 	0.41340 0.94860 0.64724 -0.12200
H 	H 	0.41330 0.96540 0.66770 0.08200
C 	C 	0.27640 0.02250 0.71836 0.04900
C 	C 	0.31700 0.05950 0.73284 -0.11500
H 	H 	0.34760 0.06000 0.72360 0.08000
C 	C 	0.31040 0.09620 0.76177 0.06900
H 	H 	0.33740 0.12270 0.77170 -0.01300
C 	C 	0.23080 0.05760 0.76172 0.06100
H 	H 	0.20090 0.05530 0.77190 0.00100
C 	C 	0.23310 0.02170 0.73322 -0.10900
H 	H 	0.20510 0.99660 0.72390 0.07800
C 	C 	0.19760 0.93300 0.62855 0.04600
C 	C 	0.15310 0.94200 0.64252 -0.10800
H 	H 	0.15160 0.96010 0.66280 0.07700
C 	C 	0.11180 0.92470 0.62704 0.05300
H 	H 	0.08180 0.93210 0.63680 -0.00700
C 	C 	0.15460 0.88970 0.58454 0.07100
H 	H 	0.15490 0.87080 0.56430 -0.01600
C 	C 	0.19800 0.90790 0.59831 -0.11600
H 	H 	0.22730 0.90350 0.58770 0.07800
C 	C 	0.60570 0.29320 0.56620 0.09500
C 	C 	0.60120 0.43070 0.53980 0.09600
C 	C 	0.63850 0.42830 0.58444 0.10700
C 	C 	0.59150 0.19020 0.56985 0.05400
C 	C 	0.59450 0.14440 0.59695 -0.12800
H 	H 	0.60770 0.17700 0.61360 0.09700
C 	C 	0.57830 0.05230 0.59947 0.07000
H 	H 	0.58190 0.02060 0.61800 -0.00500
C 	C 	0.55480 0.04710 0.55102 0.08600
H 	H 	0.54110 0.01280 0.53490 -0.00900
C 	C 	0.57070 0.13880 0.54588 -0.13100
H 	H 	0.56800 0.16740 0.52680 0.09100
C 	C 	0.58500 0.48460 0.51396 0.04900
C 	C 	0.56050 0.43810 0.49106 -0.12300
H 	H 	0.55300 0.37120 0.49270 0.09000
C 	C 	0.54740 0.48850 0.46615 0.07400
H 	H 	0.53050 0.45530 0.45090 -0.01300
C 	C 	0.57970 0.62920 0.48445 0.05700
H 	H 	0.58600 0.69640 0.48230 -0.00300
C 	C 	0.59400 0.58190 0.51068 -0.10600
H 	H 	0.60980 0.61700 0.52600 0.07400
C 	C 	0.66200 0.48220 0.60835 0.05700
C 	C 	0.65960 0.58260 0.60930 -0.10900
H 	H 	0.64300 0.61710 0.59420 0.08200
C 	C 	0.68080 0.63130 0.63180 0.06500
H 	H 	0.67940 0.70000 0.63170 -0.00600
C 	C 	0.70720 0.49120 0.65313 0.08300
H 	H 	0.72450 0.45930 0.66840 -0.01800
C 	C 	0.68740 0.43570 0.63162 -0.12300
H 	H 	0.69050 0.36720 0.63210 0.07900
N 	N 	0.32400 0.97900 0.67546 -0.13800
N 	N 	0.23870 0.97470 0.67296 -0.14100
N 	N 	0.28440 0.93690 0.63037 -0.14100
N 	N 	0.45840 0.90950 0.60377 -0.27000
N 	N 	0.26880 0.09550 0.77559 -0.27500
N 	N 	0.11230 0.89740 0.59816 -0.26900
N 	N 	0.59070 0.33600 0.54149 -0.14400
N 	N 	0.62580 0.48010 0.56052 -0.13600
N 	N 	0.63030 0.33370 0.58820 -0.13400
N 	N 	0.55720 0.00250 0.57688 -0.27400
N 	N 	0.55730 0.58180 0.46240 -0.27300
N 	N 	0.70400 0.58670 0.65440 -0.27700
Zn	Zn	0.97652 0.12844 0.08468 1.16300
Zn	Zn	0.23880 0.83092 0.31467 1.16500
Zn	Zn	0.45148 0.14518 0.07831 1.16400
I 	I 	0.99452 0.20158 0.03367 -0.38900
I 	I 	0.93073 0.21682 0.12472 -0.37100
I 	I 	0.19389 0.67095 0.30774 -0.37000
I 	I 	0.32676 0.83229 0.32990 -0.37300
I 	I 	0.44575 0.32757 0.07306 -0.38600
I 	I 	0.51626 0.05227 0.10555 -0.36500
C 	C 	0.17660 0.04710 0.14656 0.09900
C 	C 	0.21980 0.01060 0.18733 0.10200
C 	C 	0.25690 0.05020 0.14496 0.10800
C 	C 	0.12930 0.06000 0.13150 0.06000
C 	C 	0.12650 0.08060 0.10214 -0.12100
H 	H 	0.15510 0.08420 0.09070 0.08200
C 	C 	0.08330 0.09640 0.08877 0.07400
H 	H 	0.08260 0.11200 0.06830 -0.00800
C 	C 	0.04460 0.06770 0.13270 0.07500
H 	H 	0.01550 0.06250 0.14360 -0.01100
C 	C 	0.08660 0.05140 0.14724 -0.12200
H 	H 	0.08670 0.03460 0.16770 0.08200
C 	C 	0.22360 0.97750 0.21836 0.04900
C 	C 	0.18300 0.94050 0.23284 -0.11500
H 	H 	0.15240 0.94000 0.22360 0.08000
C 	C 	0.18960 0.90380 0.26177 0.06900
H 	H 	0.16260 0.87730 0.27170 -0.01400
C 	C 	0.26920 0.94240 0.26172 0.06200
H 	H 	0.29910 0.94470 0.27190 0.00100
C 	C 	0.26690 0.97830 0.23322 -0.11100
H 	H 	0.29490 0.00340 0.22390 0.07900
C 	C 	0.30240 0.06700 0.12855 0.04600
C 	C 	0.34690 0.05800 0.14252 -0.10800
H 	H 	0.34840 0.03990 0.16280 0.07700
C 	C 	0.38820 0.07530 0.12704 0.05300
H 	H 	0.41820 0.06790 0.13680 -0.00700
C 	C 	0.34540 0.11030 0.08454 0.07200
H 	H 	0.34510 0.12920 0.06430 -0.01600
C 	C 	0.30200 0.09210 0.09831 -0.11600
H 	H 	0.27270 0.09650 0.08770 0.07800
C 	C 	0.89430 0.70680 0.06620 0.09500
C 	C 	0.89880 0.56930 0.03980 0.09600
C 	C 	0.86150 0.57170 0.08444 0.10700
C 	C 	0.90850 0.80980 0.06985 0.05400
C 	C 	0.90550 0.85560 0.09695 -0.12800
H 	H 	0.89230 0.82300 0.11360 0.09800
C 	C 	0.92170 0.94770 0.09947 0.07000
H 	H 	0.91810 0.97940 0.11800 -0.00400
C 	C 	0.94520 0.95290 0.05102 0.08600
H 	H 	0.95890 0.98720 0.03490 -0.00900
C 	C 	0.92930 0.86120 0.04588 -0.13100
H 	H 	0.93200 0.83260 0.02680 0.09100
C 	C 	0.91500 0.51540 0.01396 0.04900
C 	C 	0.93950 0.56190 0.99106 -0.12300
H 	H 	0.94700 0.62880 0.99270 0.09000
C 	C 	0.95260 0.51150 0.96615 0.07400
H 	H 	0.96950 0.54470 0.95090 -0.01300
C 	C 	0.92030 0.37080 0.98445 0.05700
H 	H 	0.91400 0.30360 0.98230 -0.00300
C 	C 	0.90600 0.41810 0.01068 -0.10600
H 	H 	0.89020 0.38300 0.02600 0.07400
C 	C 	0.83800 0.51780 0.10835 0.05700
C 	C 	0.84040 0.41740 0.10930 -0.10900
H 	H 	0.85700 0.38290 0.09420 0.08200
C 	C 	0.81920 0.36870 0.13180 0.06500
H 	H 	0.82060 0.30000 0.13170 -0.00600
C 	C 	0.79280 0.50880 0.15313 0.08300
H 	H 	0.77550 0.54070 0.16840 -0.01800
C 	C 	0.81260 0.56430 0.13162 -0.12300
H 	H 	0.80950 0.63280 0.13210 0.07900
N 	N 	0.17600 0.02100 0.17546 -0.13800
N 	N 	0.26130 0.02530 0.17296 -0.14100
N 	N 	0.21560 0.06310 0.13037 -0.14100
N 	N 	0.04160 0.09050 0.10377 -0.26900
N 	N 	0.23120 0.90450 0.27559 -0.27500
N 	N 	0.38770 0.10260 0.09816 -0.26900
N 	N 	0.90930 0.66400 0.04149 -0.14400
N 	N 	0.87420 0.51990 0.06052 -0.13600
N 	N 	0.86970 0.66630 0.08820 -0.13400
N 	N 	0.94280 0.99750 0.07688 -0.27400
N 	N 	0.94270 0.41820 0.96240 -0.27300
N 	N 	0.79600 0.41330 0.15440 -0.27700
Zn	Zn	0.47652 0.37156 0.91532 1.16400
Zn	Zn	0.73880 0.66908 0.68533 1.16500
Zn	Zn	0.95148 0.35482 0.92169 1.16400
I 	I 	0.49452 0.29842 0.96633 -0.38800
I 	I 	0.43073 0.28318 0.87528 -0.37000
I 	I 	0.69389 0.82905 0.69226 -0.37100
I 	I 	0.82676 0.66771 0.67010 -0.37300
I 	I 	0.94575 0.17243 0.92694 -0.38600
I 	I 	0.01626 0.44773 0.89445 -0.36400
C 	C 	0.67660 0.45290 0.85344 0.09900
C 	C 	0.71980 0.48940 0.81267 0.10200
C 	C 	0.75690 0.44980 0.85504 0.10800
C 	C 	0.62930 0.44000 0.86850 0.06100
C 	C 	0.62650 0.41940 0.89786 -0.12100
H 	H 	0.65510 0.41580 0.90930 0.08200
C 	C 	0.58330 0.40360 0.91123 0.07400
H 	H 	0.58260 0.38800 0.93170 -0.00800
C 	C 	0.54460 0.43230 0.86730 0.07500
H 	H 	0.51550 0.43750 0.85640 -0.01100
C 	C 	0.58660 0.44860 0.85276 -0.12200
H 	H 	0.58670 0.46540 0.83230 0.08200
C 	C 	0.72360 0.52250 0.78164 0.04900
C 	C 	0.68300 0.55950 0.76716 -0.11500
H 	H 	0.65240 0.56000 0.77640 0.08000
C 	C 	0.68960 0.59620 0.73823 0.06900
H 	H 	0.66260 0.62270 0.72830 -0.01400
C 	C 	0.76920 0.55760 0.73828 0.06200
H 	H 	0.79910 0.55530 0.72810 0.00100
C 	C 	0.76690 0.52170 0.76678 -0.11300
H 	H 	0.79490 0.49660 0.77610 0.08100
C 	C 	0.80240 0.43300 0.87145 0.04600
C 	C 	0.84690 0.44200 0.85748 -0.10800
H 	H 	0.84840 0.46010 0.83720 0.07700
C 	C 	0.88820 0.42470 0.87296 0.05300
H 	H 	0.91820 0.43210 0.86320 -0.00600
C 	C 	0.84540 0.38970 0.91546 0.07200
H 	H 	0.84510 0.37080 0.93570 -0.01600
C 	C 	0.80200 0.40790 0.90169 -0.11600
H 	H 	0.77270 0.40350 0.91230 0.07800
C 	C 	0.39430 0.79320 0.93380 0.09500
C 	C 	0.39880 0.93070 0.96020 0.09600
C 	C 	0.36150 0.92830 0.91556 0.10700
C 	C 	0.40850 0.69020 0.93015 0.05400
C 	C 	0.40550 0.64440 0.90305 -0.12800
H 	H 	0.39230 0.67700 0.88640 0.09700
C 	C 	0.42170 0.55230 0.90053 0.07000
H 	H 	0.41810 0.52060 0.88200 -0.00500
C 	C 	0.44520 0.54710 0.94898 0.08600
H 	H 	0.45890 0.51280 0.96510 -0.00900
C 	C 	0.42930 0.63880 0.95412 -0.13100
H 	H 	0.43200 0.66740 0.97320 0.09100
C 	C 	0.41500 0.98460 0.98604 0.04800
C 	C 	0.43950 0.93810 0.00894 -0.12300
H 	H 	0.44700 0.87120 0.00730 0.09000
C 	C 	0.45260 0.98850 0.03385 0.07400
H 	H 	0.46950 0.95530 0.04910 -0.01300
C 	C 	0.42030 0.12920 0.01555 0.05700
H 	H 	0.41400 0.19640 0.01770 -0.00200
C 	C 	0.40600 0.08190 0.98932 -0.10600
H 	H 	0.39020 0.11700 0.97400 0.07400
C 	C 	0.33800 0.98220 0.89165 0.05500
C 	C 	0.34040 0.08260 0.89070 -0.10600
H 	H 	0.35700 0.11710 0.90580 0.08200
C 	C 	0.31920 0.13130 0.86820 0.06400
H 	H 	0.32060 0.20000 0.86830 -0.00600
C 	C 	0.29280 0.99120 0.84687 0.08100
H 	H 	0.27550 0.95930 0.83160 -0.01700
C 	C 	0.31260 0.93570 0.86838 -0.12100
H 	H 	0.30950 0.86720 0.86790 0.07800
N 	N 	0.67600 0.47900 0.82454 -0.13800
N 	N 	0.76130 0.47470 0.82704 -0.14100
N 	N 	0.71560 0.43690 0.86963 -0.14100
N 	N 	0.54160 0.40950 0.89623 -0.27000
N 	N 	0.73120 0.59550 0.72441 -0.27600
N 	N 	0.88770 0.39740 0.90184 -0.26900
N 	N 	0.40930 0.83600 0.95851 -0.14400
N 	N 	0.37420 0.98010 0.93948 -0.13600
N 	N 	0.36970 0.83370 0.91180 -0.13400
N 	N 	0.44280 0.50250 0.92312 -0.27400
N 	N 	0.44270 0.08180 0.03760 -0.27300
N 	N 	0.29600 0.08670 0.84560 -0.27500
Zn	Zn	0.02348 0.62844 0.41532 1.16400
Zn	Zn	0.76120 0.33092 0.18533 1.16500
Zn	Zn	0.54852 0.64518 0.42169 1.16400
I 	I 	0.00548 0.70158 0.46633 -0.38900
I 	I 	0.06927 0.71682 0.37528 -0.37100
I 	I 	0.80611 0.17095 0.19226 -0.37100
I 	I 	0.67324 0.33229 0.17010 -0.37300
I 	I 	0.55425 0.82757 0.42694 -0.38600
I 	I 	0.48374 0.55227 0.39445 -0.36400
C 	C 	0.82340 0.54710 0.35344 0.09900
C 	C 	0.78020 0.51060 0.31267 0.10200
C 	C 	0.74310 0.55020 0.35504 0.10800
C 	C 	0.87070 0.56000 0.36850 0.06100
C 	C 	0.87350 0.58060 0.39786 -0.12100
H 	H 	0.84490 0.58420 0.40930 0.08200
C 	C 	0.91670 0.59640 0.41123 0.07400
H 	H 	0.91740 0.61200 0.43170 -0.00800
C 	C 	0.95540 0.56770 0.36730 0.07500
H 	H 	0.98450 0.56250 0.35640 -0.01100
C 	C 	0.91340 0.55140 0.35276 -0.12200
H 	H 	0.91330 0.53460 0.33230 0.08200
C 	C 	0.77640 0.47750 0.28164 0.04900
C 	C 	0.81700 0.44050 0.26716 -0.11500
H 	H 	0.84760 0.44000 0.27640 0.08000
C 	C 	0.81040 0.40380 0.23823 0.06900
H 	H 	0.83740 0.37730 0.22830 -0.01400
C 	C 	0.73080 0.44240 0.23828 0.06200
H 	H 	0.70090 0.44470 0.22810 0.00100
C 	C 	0.73310 0.47830 0.26678 -0.11300
H 	H 	0.70510 0.50340 0.27610 0.08100
C 	C 	0.69760 0.56700 0.37145 0.04600
C 	C 	0.65310 0.55800 0.35748 -0.10800
H 	H 	0.65160 0.53990 0.33720 0.07700
C 	C 	0.61180 0.57530 0.37296 0.05300
H 	H 	0.58180 0.56790 0.36320 -0.00600
C 	C 	0.65460 0.61030 0.41546 0.07200
H 	H 	0.65490 0.62920 0.43570 -0.01600
C 	C 	0.69800 0.59210 0.40169 -0.11600
H 	H 	0.72730 0.59650 0.41230 0.07800
C 	C 	0.10570 0.20680 0.43380 0.09500
C 	C 	0.10120 0.06930 0.46020 0.09600
C 	C 	0.13850 0.07170 0.41556 0.10700
C 	C 	0.09150 0.30980 0.43015 0.05400
C 	C 	0.09450 0.35560 0.40305 -0.12800
H 	H 	0.10770 0.32300 0.38640 0.09700
C 	C 	0.07830 0.44770 0.40053 0.07000
H 	H 	0.08190 0.47940 0.38200 -0.00500
C 	C 	0.05480 0.45290 0.44898 0.08600
H 	H 	0.04110 0.48720 0.46510 -0.00900
C 	C 	0.07070 0.36120 0.45412 -0.13100
H 	H 	0.06800 0.33260 0.47320 0.09100
C 	C 	0.08500 0.01540 0.48604 0.05000
C 	C 	0.06050 0.06190 0.50894 -0.12400
H 	H 	0.05300 0.12880 0.50730 0.09000
C 	C 	0.04740 0.01150 0.53385 0.07600
H 	H 	0.03050 0.04470 0.54910 -0.01300
C 	C 	0.07970 0.87080 0.51555 0.05800
H 	H 	0.08600 0.80360 0.51770 -0.00300
C 	C 	0.09400 0.91810 0.48932 -0.10800
H 	H 	0.10980 0.88300 0.47400 0.07500
C 	C 	0.16200 0.01780 0.39165 0.05600
C 	C 	0.15960 0.91740 0.39070 -0.10800
H 	H 	0.14300 0.88290 0.40580 0.08200
C 	C 	0.18080 0.86870 0.36820 0.06500
H 	H 	0.17940 0.80000 0.36830 -0.00600
C 	C 	0.20720 0.00880 0.34687 0.08200
H 	H 	0.22450 0.04070 0.33160 -0.01700
C 	C 	0.18740 0.06430 0.36838 -0.12200
H 	H 	0.19050 0.13280 0.36790 0.07900
N 	N 	0.82400 0.52100 0.32454 -0.13800
N 	N 	0.73870 0.52530 0.32704 -0.14100
N 	N 	0.78440 0.56310 0.36963 -0.14100
N 	N 	0.95840 0.59050 0.39623 -0.26900
N 	N 	0.76880 0.40450 0.22441 -0.27600
N 	N 	0.61230 0.60260 0.40184 -0.26900
N 	N 	0.09070 0.16400 0.45851 -0.14400
N 	N 	0.12580 0.01990 0.43948 -0.13600
N 	N 	0.13030 0.16630 0.41180 -0.13400
N 	N 	0.05720 0.49750 0.42312 -0.27400
N 	N 	0.05730 0.91820 0.53760 -0.27400
N 	N 	0.20400 0.91330 0.34560 -0.27600
