data_crystal

_cell_length_a 7.94150
_cell_length_b 13.84600
_cell_length_c 7.31030
_cell_angle_alpha 90.00000
_cell_angle_beta  90.00000
_cell_angle_gamma 90.00000

_symmetry_space_group_name_	'P 1'
_symmetry_space_group_name_H-M	'P 1'

loop_
_symmetry_equiv_pos_as_xyz
  x,y,z

loop_
_atom_site_label
_atom_site_type_symbol
_atom_site_fract_x
_atom_site_fract_y
_atom_site_fract_z
_atom_site_charge
Co	Co	0.22060 0.33545 0.75941 1.21100
O 	O 	0.10520 0.22859 0.60810 -0.38500
O 	O 	0.92690 0.16402 0.41200 -0.38900
O 	O 	0.30884 0.21194 0.90260 -0.35700
O 	O 	0.50562 0.14524 0.07730 -0.36400
O 	O 	0.11210 0.45290 0.61900 -0.36000
O 	O 	0.13161 0.57242 0.41890 -0.37000
C 	C 	0.98590 0.23363 0.49840 0.44700
H 	H 	0.93610 0.29520 0.47910 -0.09200
C 	C 	0.44350 0.21428 0.99170 0.40900
H 	H 	0.50320 0.27370 0.99410 -0.08400
C 	C 	0.19330 0.50449 0.50870 0.41400
H 	H 	0.30960 0.49090 0.49260 -0.08000
Co	Co	0.27940 0.66455 0.25941 1.21000
O 	O 	0.39480 0.77141 0.10810 -0.39000
O 	O 	0.57310 0.83598 0.91200 -0.39000
O 	O 	0.19116 0.78806 0.40260 -0.35700
O 	O 	0.99438 0.85476 0.57730 -0.36400
O 	O 	0.38790 0.54710 0.11900 -0.36000
O 	O 	0.36839 0.42758 0.91890 -0.36800
C 	C 	0.51410 0.76637 0.99840 0.45500
H 	H 	0.56390 0.70480 0.97910 -0.09300
C 	C 	0.05650 0.78572 0.49170 0.40600
H 	H 	0.99680 0.72630 0.49410 -0.08100
C 	C 	0.30670 0.49551 0.00870 0.41100
H 	H 	0.19040 0.50910 0.99260 -0.07800
Co	Co	0.77940 0.83545 0.74059 1.21000
O 	O 	0.89480 0.72859 0.89190 -0.38700
O 	O 	0.07310 0.66402 0.08800 -0.38900
O 	O 	0.69116 0.71194 0.59740 -0.35800
O 	O 	0.49438 0.64524 0.42270 -0.36600
O 	O 	0.88790 0.95290 0.88100 -0.35600
O 	O 	0.86839 0.07242 0.08110 -0.36500
C 	C 	0.01410 0.73363 0.00160 0.44800
H 	H 	0.06390 0.79520 0.02090 -0.09300
C 	C 	0.55650 0.71428 0.50830 0.41200
H 	H 	0.49680 0.77370 0.50590 -0.08400
C 	C 	0.80670 0.00449 0.99130 0.40300
H 	H 	0.69040 0.99090 0.00740 -0.07700
Co	Co	0.72060 0.16455 0.24059 1.21000
O 	O 	0.60520 0.27141 0.39190 -0.38900
O 	O 	0.42690 0.33598 0.58800 -0.38900
O 	O 	0.80884 0.28806 0.09740 -0.35700
O 	O 	0.00562 0.35476 0.92270 -0.36400
O 	O 	0.61210 0.04710 0.38100 -0.35900
O 	O 	0.63161 0.92758 0.58110 -0.36900
C 	C 	0.48590 0.26637 0.50160 0.45200
H 	H 	0.43610 0.20480 0.52090 -0.09300
C 	C 	0.94350 0.28572 0.00830 0.40900
H 	H 	0.00320 0.22630 0.00590 -0.08200
C 	C 	0.69330 0.99551 0.49130 0.41200
H 	H 	0.80960 0.00910 0.50740 -0.08000
