data_crystal

_cell_length_a 18.24800
_cell_length_b 18.24800
_cell_length_c 47.11300
_cell_angle_alpha 90.00000
_cell_angle_beta  90.00000
_cell_angle_gamma 120.00000

_symmetry_space_group_name_	'P 1'
_symmetry_space_group_name_H-M	'P 1'

loop_
_symmetry_equiv_pos_as_xyz
  x,y,z

loop_
_atom_site_label
_atom_site_type_symbol
_atom_site_fract_x
_atom_site_fract_y
_atom_site_fract_z
_atom_site_charge
Cu	Cu	0.52520 0.05090 0.47730 0.93700
O 	O 	0.41670 0.97960 0.46300 -0.37200
O 	O 	0.62630 0.10870 0.49580 -0.38000
O 	O 	0.47950 0.10400 0.49680 -0.38200
O 	O 	0.56390 0.98420 0.46290 -0.37600
C 	C 	0.36130 0.91080 0.47780 0.27600
C 	C 	0.28310 0.84660 0.46090 -0.08000
C 	C 	0.22480 0.77900 0.47470 0.02400
C 	C 	0.27370 0.85660 0.43360 0.05100
H 	H 	0.23260 0.77160 0.49370 0.05600
C 	C 	0.15530 0.72170 0.46130 -0.07300
C 	C 	0.20500 0.79780 0.42000 -0.13700
H 	H 	0.31440 0.90410 0.42400 0.02300
C 	C 	0.14750 0.72840 0.43360 0.04300
C 	C 	0.08910 0.63640 0.47580 0.26700
C 	C 	0.19840 0.79880 0.38990 0.23600
H 	H 	0.10250 0.68520 0.42370 0.03500
C 	C 	0.19960 0.79240 0.36360 -0.75900
B 	B 	0.20230 0.78690 0.33080 0.23800
B 	B 	0.28270 0.87120 0.31150 2.64800
B 	B 	0.17940 0.85470 0.31070 -4.73800
B 	B 	0.10750 0.74540 0.31100 -1.26500
B 	B 	0.16940 0.69880 0.31000 -5.72700
B 	B 	0.27630 0.77200 0.31210 -1.16100
H 	H 	0.33540 0.92620 0.32190 -0.54000
B 	B 	0.29470 0.82790 0.28040 -5.22500
B 	B 	0.23980 0.88390 0.28020 0.62000
H 	H 	0.16300 0.89900 0.32080 0.29900
B 	B 	0.13260 0.80200 0.27960 -2.62800
C 	C 	0.12850 0.71480 0.28270 2.79300
H 	H 	0.04500 0.71700 0.32120 -1.32300
C 	C 	0.22910 0.73360 0.28390 5.75300
H 	H 	0.14520 0.63450 0.31840 1.27300
H 	H 	0.32320 0.76030 0.32280 0.67900
H 	H 	0.35640 0.85190 0.26990 1.46800
H 	H 	0.26430 0.94770 0.27130 -4.78000
H 	H 	0.08320 0.80930 0.26870 5.85200
H 	H 	0.07370 0.65860 0.27370 -0.79900
H 	H 	0.24840 0.68980 0.27520 -1.10000
C 	C 	0.18840 0.81510 0.36300 0.24800
C 	C 	0.08720 0.77140 0.28442 0.65100
H 	H 	0.02640 0.71930 0.27680 -0.46600
C 	C 	0.18970 0.79150 0.28323 1.69500
H 	H 	0.20920 0.75000 0.27280 -3.26300
B 	B 	0.17640 0.83200 0.33120 0.94200
B 	B 	0.25330 0.91720 0.31160 -7.42400
H 	H 	0.30770 0.97010 0.32220 2.11400
B 	B 	0.15410 0.90350 0.31510 0.68400
H 	H 	0.14410 0.94770 0.32810 -0.39600
B 	B 	0.07940 0.79990 0.31450 13.94900
H 	H 	0.02090 0.77420 0.32700 -3.93500
B 	B 	0.13350 0.74610 0.30750 -4.79500
H 	H 	0.10750 0.67890 0.31280 3.16300
B 	B 	0.24610 0.81760 0.30800 7.75800
H 	H 	0.29360 0.80120 0.31510 -1.74100
B 	B 	0.26040 0.88100 0.27895 -3.15200
H 	H 	0.32100 0.90800 0.26750 1.78000
B 	B 	0.20450 0.93310 0.28075 19.69000
H 	H 	0.22830 0.99620 0.27140 -5.26500
B 	B 	0.09710 0.86080 0.28242 -20.35000
H 	H 	0.05030 0.87590 0.27370 5.30500
Cu	Cu	0.94910 0.47430 0.47730 0.93600
O 	O 	0.02040 0.43710 0.46300 -0.37300
O 	O 	0.89130 0.51760 0.49580 -0.38100
O 	O 	0.89600 0.37550 0.49680 -0.38300
O 	O 	0.01580 0.57970 0.46290 -0.37700
C 	C 	0.08920 0.45050 0.47780 0.27500
C 	C 	0.15340 0.43650 0.46090 -0.08000
C 	C 	0.22100 0.44580 0.47470 0.02400
C 	C 	0.14340 0.41710 0.43360 0.05100
H 	H 	0.22840 0.46100 0.49370 0.05600
C 	C 	0.27830 0.43360 0.46130 -0.07300
C 	C 	0.20220 0.40720 0.42000 -0.13700
H 	H 	0.09590 0.41030 0.42400 0.02300
C 	C 	0.27160 0.41910 0.43360 0.04300
C 	C 	0.36360 0.45270 0.47580 0.26700
C 	C 	0.20120 0.39960 0.38990 0.23600
H 	H 	0.31480 0.41730 0.42370 0.03500
C 	C 	0.20760 0.40720 0.36360 -0.75900
B 	B 	0.21310 0.41540 0.33080 0.23800
B 	B 	0.12880 0.41150 0.31150 2.64800
B 	B 	0.14530 0.32470 0.31070 -4.73800
B 	B 	0.25460 0.36210 0.31100 -1.26500
B 	B 	0.30120 0.47060 0.31000 -5.72700
B 	B 	0.22800 0.50430 0.31210 -1.16100
H 	H 	0.07380 0.40920 0.32190 -0.54000
B 	B 	0.17210 0.46680 0.28040 -5.22500
B 	B 	0.11610 0.35590 0.28020 0.62000
H 	H 	0.10100 0.26400 0.32080 0.29900
B 	B 	0.19800 0.33060 0.27960 -2.62800
C 	C 	0.28520 0.41370 0.28270 2.79300
H 	H 	0.28300 0.32800 0.32120 -1.32300
C 	C 	0.26640 0.49550 0.28390 5.75300
H 	H 	0.36550 0.51070 0.31840 1.27300
H 	H 	0.23970 0.56290 0.32280 0.67900
H 	H 	0.14810 0.50450 0.26990 1.46800
H 	H 	0.05230 0.31660 0.27130 -4.78000
H 	H 	0.19070 0.27390 0.26870 5.85200
H 	H 	0.34140 0.41510 0.27370 -0.79900
H 	H 	0.31020 0.55860 0.27520 -1.10100
C 	C 	0.18490 0.37330 0.36300 0.24900
C 	C 	0.22860 0.31580 0.28442 0.65100
H 	H 	0.28070 0.30710 0.27680 -0.46600
C 	C 	0.20850 0.39820 0.28323 1.69600
H 	H 	0.25000 0.45920 0.27280 -3.26300
B 	B 	0.16800 0.34440 0.33120 0.94200
B 	B 	0.08280 0.33610 0.31160 -7.42400
H 	H 	0.02990 0.33760 0.32220 2.11400
B 	B 	0.09650 0.25060 0.31510 0.68400
H 	H 	0.05230 0.19640 0.32810 -0.39600
B 	B 	0.20010 0.27950 0.31450 13.94900
H 	H 	0.22580 0.24670 0.32700 -3.93600
B 	B 	0.25390 0.38740 0.30750 -4.79500
H 	H 	0.32110 0.42860 0.31280 3.16300
B 	B 	0.18240 0.42850 0.30800 7.75800
H 	H 	0.19880 0.49240 0.31510 -1.74100
B 	B 	0.11900 0.37940 0.27895 -3.15200
H 	H 	0.09200 0.41300 0.26750 1.78000
B 	B 	0.06690 0.27140 0.28075 19.69100
H 	H 	0.00380 0.23210 0.27140 -5.26500
B 	B 	0.13920 0.23630 0.28242 -20.35000
H 	H 	0.12410 0.17440 0.27370 5.30500
Cu	Cu	0.52570 0.47480 0.47730 0.93600
O 	O 	0.56290 0.58330 0.46300 -0.37300
O 	O 	0.48240 0.37370 0.49580 -0.38100
O 	O 	0.62450 0.52050 0.49680 -0.38300
O 	O 	0.42030 0.43610 0.46290 -0.37700
C 	C 	0.54950 0.63870 0.47780 0.27500
C 	C 	0.56350 0.71690 0.46090 -0.08000
C 	C 	0.55420 0.77520 0.47470 0.02400
C 	C 	0.58290 0.72630 0.43360 0.05100
H 	H 	0.53900 0.76740 0.49370 0.05600
C 	C 	0.56640 0.84470 0.46130 -0.07300
C 	C 	0.59280 0.79500 0.42000 -0.13700
H 	H 	0.58970 0.68560 0.42400 0.02300
C 	C 	0.58090 0.85250 0.43360 0.04300
C 	C 	0.54730 0.91090 0.47580 0.26700
C 	C 	0.60040 0.80160 0.38990 0.23600
H 	H 	0.58270 0.89750 0.42370 0.03500
C 	C 	0.59280 0.80040 0.36360 -0.75900
B 	B 	0.58460 0.79770 0.33080 0.23800
B 	B 	0.58850 0.71730 0.31150 2.64800
B 	B 	0.67530 0.82060 0.31070 -4.73800
B 	B 	0.63790 0.89250 0.31100 -1.26500
B 	B 	0.52940 0.83060 0.31000 -5.72600
B 	B 	0.49570 0.72370 0.31210 -1.16100
H 	H 	0.59080 0.66460 0.32190 -0.54000
B 	B 	0.53320 0.70530 0.28040 -5.22500
B 	B 	0.64410 0.76020 0.28020 0.62000
H 	H 	0.73600 0.83700 0.32080 0.29900
B 	B 	0.66940 0.86740 0.27960 -2.62800
C 	C 	0.58630 0.87150 0.28270 2.79300
H 	H 	0.67200 0.95500 0.32120 -1.32300
C 	C 	0.50450 0.77090 0.28390 5.75300
H 	H 	0.48930 0.85480 0.31840 1.27300
H 	H 	0.43710 0.67680 0.32280 0.67900
H 	H 	0.49550 0.64360 0.26990 1.46700
H 	H 	0.68340 0.73570 0.27130 -4.78000
H 	H 	0.72610 0.91680 0.26870 5.85100
H 	H 	0.58490 0.92630 0.27370 -0.79900
H 	H 	0.44140 0.75160 0.27520 -1.10000
C 	C 	0.62670 0.81160 0.36300 0.24800
C 	C 	0.68420 0.91280 0.28442 0.65100
H 	H 	0.69290 0.97360 0.27680 -0.46600
C 	C 	0.60180 0.81030 0.28323 1.69600
H 	H 	0.54080 0.79080 0.27280 -3.26300
B 	B 	0.65560 0.82360 0.33120 0.94200
B 	B 	0.66390 0.74670 0.31160 -7.42400
H 	H 	0.66240 0.69230 0.32220 2.11300
B 	B 	0.74940 0.84590 0.31510 0.68400
H 	H 	0.80360 0.85590 0.32810 -0.39600
B 	B 	0.72050 0.92060 0.31450 13.94900
H 	H 	0.75330 0.97910 0.32700 -3.93500
B 	B 	0.61260 0.86650 0.30750 -4.79500
H 	H 	0.57140 0.89250 0.31280 3.16300
B 	B 	0.57150 0.75390 0.30800 7.75700
H 	H 	0.50760 0.70640 0.31510 -1.74100
B 	B 	0.62060 0.73960 0.27895 -3.15200
H 	H 	0.58700 0.67900 0.26750 1.78000
B 	B 	0.72860 0.79550 0.28075 19.69000
H 	H 	0.76790 0.77170 0.27140 -5.26500
B 	B 	0.76370 0.90290 0.28242 -20.35000
H 	H 	0.82560 0.94970 0.27370 5.30500
Cu	Cu	0.94910 0.47480 0.02270 0.93600
O 	O 	0.02040 0.58330 0.03700 -0.37300
O 	O 	0.89130 0.37370 0.00420 -0.38100
O 	O 	0.89600 0.52050 0.00320 -0.38300
O 	O 	0.01580 0.43610 0.03710 -0.37700
C 	C 	0.08920 0.63870 0.02220 0.27500
C 	C 	0.15340 0.71690 0.03910 -0.08000
C 	C 	0.22100 0.77520 0.02530 0.02400
C 	C 	0.14340 0.72630 0.06640 0.05100
H 	H 	0.22840 0.76740 0.00630 0.05600
C 	C 	0.27830 0.84470 0.03870 -0.07300
C 	C 	0.20220 0.79500 0.08000 -0.13700
H 	H 	0.09590 0.68560 0.07600 0.02300
C 	C 	0.27160 0.85250 0.06640 0.04300
C 	C 	0.36360 0.91090 0.02420 0.26700
C 	C 	0.20120 0.80160 0.11010 0.23600
H 	H 	0.31480 0.89750 0.07630 0.03500
C 	C 	0.20760 0.80040 0.13640 -0.75900
B 	B 	0.21310 0.79770 0.16920 0.23800
B 	B 	0.12880 0.71730 0.18850 2.64800
B 	B 	0.14530 0.82060 0.18930 -4.73800
B 	B 	0.25460 0.89250 0.18900 -1.26500
B 	B 	0.30120 0.83060 0.19000 -5.72700
B 	B 	0.22800 0.72370 0.18790 -1.16100
H 	H 	0.07380 0.66460 0.17810 -0.54000
B 	B 	0.17210 0.70530 0.21960 -5.22500
B 	B 	0.11610 0.76020 0.21980 0.62000
H 	H 	0.10100 0.83700 0.17920 0.29900
B 	B 	0.19800 0.86740 0.22040 -2.62800
C 	C 	0.28520 0.87150 0.21730 2.79300
H 	H 	0.28300 0.95500 0.17880 -1.32300
C 	C 	0.26640 0.77090 0.21610 5.75300
H 	H 	0.36550 0.85480 0.18160 1.27300
H 	H 	0.23970 0.67680 0.17720 0.67900
H 	H 	0.14810 0.64360 0.23010 1.46800
H 	H 	0.05230 0.73570 0.22870 -4.78000
H 	H 	0.19070 0.91680 0.23130 5.85200
H 	H 	0.34140 0.92630 0.22630 -0.79900
H 	H 	0.31020 0.75160 0.22480 -1.10000
C 	C 	0.18490 0.81160 0.13700 0.24800
C 	C 	0.22860 0.91280 0.21558 0.65100
H 	H 	0.28070 0.97360 0.22320 -0.46600
C 	C 	0.20850 0.81030 0.21677 1.69500
H 	H 	0.25000 0.79080 0.22720 -3.26300
B 	B 	0.16800 0.82360 0.16880 0.94200
B 	B 	0.08280 0.74670 0.18840 -7.42400
H 	H 	0.02990 0.69230 0.17780 2.11400
B 	B 	0.09650 0.84590 0.18490 0.68400
H 	H 	0.05230 0.85590 0.17190 -0.39600
B 	B 	0.20010 0.92060 0.18550 13.94900
H 	H 	0.22580 0.97910 0.17300 -3.93500
B 	B 	0.25390 0.86650 0.19250 -4.79500
H 	H 	0.32110 0.89250 0.18720 3.16300
B 	B 	0.18240 0.75390 0.19200 7.75800
H 	H 	0.19880 0.70640 0.18490 -1.74100
B 	B 	0.11900 0.73960 0.22105 -3.15200
H 	H 	0.09200 0.67900 0.23250 1.78000
B 	B 	0.06690 0.79550 0.21925 19.69000
H 	H 	0.00380 0.77170 0.22860 -5.26500
B 	B 	0.13920 0.90290 0.21758 -20.35000
H 	H 	0.12410 0.94970 0.22630 5.30500
Cu	Cu	0.52570 0.05090 0.02270 0.93600
O 	O 	0.56290 0.97960 0.03700 -0.37300
O 	O 	0.48240 0.10870 0.00420 -0.38100
O 	O 	0.62450 0.10400 0.00320 -0.38300
O 	O 	0.42030 0.98420 0.03710 -0.37700
C 	C 	0.54950 0.91080 0.02220 0.27500
C 	C 	0.56350 0.84660 0.03910 -0.08000
C 	C 	0.55420 0.77900 0.02530 0.02400
C 	C 	0.58290 0.85660 0.06640 0.05100
H 	H 	0.53900 0.77160 0.00630 0.05600
C 	C 	0.56640 0.72170 0.03870 -0.07300
C 	C 	0.59280 0.79780 0.08000 -0.13700
H 	H 	0.58970 0.90410 0.07600 0.02300
C 	C 	0.58090 0.72840 0.06640 0.04300
C 	C 	0.54730 0.63640 0.02420 0.26700
C 	C 	0.60040 0.79880 0.11010 0.23600
H 	H 	0.58270 0.68520 0.07630 0.03500
C 	C 	0.59280 0.79240 0.13640 -0.75900
B 	B 	0.58460 0.78690 0.16920 0.23800
B 	B 	0.58850 0.87120 0.18850 2.64800
B 	B 	0.67530 0.85470 0.18930 -4.73800
B 	B 	0.63790 0.74540 0.18900 -1.26500
B 	B 	0.52940 0.69880 0.19000 -5.72700
B 	B 	0.49570 0.77200 0.18790 -1.16100
H 	H 	0.59080 0.92620 0.17810 -0.54000
B 	B 	0.53320 0.82790 0.21960 -5.22500
B 	B 	0.64410 0.88390 0.21980 0.62000
H 	H 	0.73600 0.89900 0.17920 0.29900
B 	B 	0.66940 0.80200 0.22040 -2.62800
C 	C 	0.58630 0.71480 0.21730 2.79300
H 	H 	0.67200 0.71700 0.17880 -1.32300
C 	C 	0.50450 0.73360 0.21610 5.75300
H 	H 	0.48930 0.63450 0.18160 1.27300
H 	H 	0.43710 0.76030 0.17720 0.67900
H 	H 	0.49550 0.85190 0.23010 1.46800
H 	H 	0.68340 0.94770 0.22870 -4.78000
H 	H 	0.72610 0.80930 0.23130 5.85200
H 	H 	0.58490 0.65860 0.22630 -0.79900
H 	H 	0.44140 0.68980 0.22480 -1.10100
C 	C 	0.62670 0.81510 0.13700 0.24900
C 	C 	0.68420 0.77140 0.21558 0.65100
H 	H 	0.69290 0.71930 0.22320 -0.46600
C 	C 	0.60180 0.79150 0.21677 1.69600
H 	H 	0.54080 0.75000 0.22720 -3.26300
B 	B 	0.65560 0.83200 0.16880 0.94200
B 	B 	0.66390 0.91720 0.18840 -7.42400
H 	H 	0.66240 0.97010 0.17780 2.11400
B 	B 	0.74940 0.90350 0.18490 0.68400
H 	H 	0.80360 0.94770 0.17190 -0.39600
B 	B 	0.72050 0.79990 0.18550 13.94900
H 	H 	0.75330 0.77420 0.17300 -3.93600
B 	B 	0.61260 0.74610 0.19250 -4.79500
H 	H 	0.57140 0.67890 0.18720 3.16300
B 	B 	0.57150 0.81760 0.19200 7.75800
H 	H 	0.50760 0.80120 0.18490 -1.74100
B 	B 	0.62060 0.88100 0.22105 -3.15200
H 	H 	0.58700 0.90800 0.23250 1.78000
B 	B 	0.72860 0.93310 0.21925 19.69100
H 	H 	0.76790 0.99620 0.22860 -5.26500
B 	B 	0.76370 0.86080 0.21758 -20.35000
H 	H 	0.82560 0.87590 0.22630 5.30500
Cu	Cu	0.52520 0.47430 0.02270 0.93600
O 	O 	0.41670 0.43710 0.03700 -0.37300
O 	O 	0.62630 0.51760 0.00420 -0.38100
O 	O 	0.47950 0.37550 0.00320 -0.38300
O 	O 	0.56390 0.57970 0.03710 -0.37700
C 	C 	0.36130 0.45050 0.02220 0.27500
C 	C 	0.28310 0.43650 0.03910 -0.08100
C 	C 	0.22480 0.44580 0.02530 0.02400
C 	C 	0.27370 0.41710 0.06640 0.05100
H 	H 	0.23260 0.46100 0.00630 0.05600
C 	C 	0.15530 0.43360 0.03870 -0.07300
C 	C 	0.20500 0.40720 0.08000 -0.13700
H 	H 	0.31440 0.41030 0.07600 0.02300
C 	C 	0.14750 0.41910 0.06640 0.04300
C 	C 	0.08910 0.45270 0.02420 0.26700
C 	C 	0.19840 0.39960 0.11010 0.23600
H 	H 	0.10250 0.41730 0.07630 0.03500
C 	C 	0.19960 0.40720 0.13640 -0.75900
B 	B 	0.20230 0.41540 0.16920 0.23800
B 	B 	0.28270 0.41150 0.18850 2.64800
B 	B 	0.17940 0.32470 0.18930 -4.73800
B 	B 	0.10750 0.36210 0.18900 -1.26500
B 	B 	0.16940 0.47060 0.19000 -5.72600
B 	B 	0.27630 0.50430 0.18790 -1.16100
H 	H 	0.33540 0.40920 0.17810 -0.54000
B 	B 	0.29470 0.46680 0.21960 -5.22500
B 	B 	0.23980 0.35590 0.21980 0.62000
H 	H 	0.16300 0.26400 0.17920 0.29900
B 	B 	0.13260 0.33060 0.22040 -2.62800
C 	C 	0.12850 0.41370 0.21730 2.79300
H 	H 	0.04500 0.32800 0.17880 -1.32300
C 	C 	0.22910 0.49550 0.21610 5.75300
H 	H 	0.14520 0.51070 0.18160 1.27300
H 	H 	0.32320 0.56290 0.17720 0.67900
H 	H 	0.35640 0.50450 0.23010 1.46700
H 	H 	0.26430 0.31660 0.22870 -4.78000
H 	H 	0.08320 0.27390 0.23130 5.85100
H 	H 	0.07370 0.41510 0.22630 -0.79900
H 	H 	0.24840 0.55860 0.22480 -1.10000
C 	C 	0.18840 0.37330 0.13700 0.24800
C 	C 	0.08720 0.31580 0.21558 0.65100
H 	H 	0.02640 0.30710 0.22320 -0.46600
C 	C 	0.18970 0.39820 0.21677 1.69600
H 	H 	0.20920 0.45920 0.22720 -3.26300
B 	B 	0.17640 0.34440 0.16880 0.94200
B 	B 	0.25330 0.33610 0.18840 -7.42400
H 	H 	0.30770 0.33760 0.17780 2.11300
B 	B 	0.15410 0.25060 0.18490 0.68400
H 	H 	0.14410 0.19640 0.17190 -0.39600
B 	B 	0.07940 0.27950 0.18550 13.94900
H 	H 	0.02090 0.24670 0.17300 -3.93500
B 	B 	0.13350 0.38740 0.19250 -4.79500
H 	H 	0.10750 0.42860 0.18720 3.16300
B 	B 	0.24610 0.42850 0.19200 7.75700
H 	H 	0.29360 0.49240 0.18490 -1.74100
B 	B 	0.26040 0.37940 0.22105 -3.15200
H 	H 	0.32100 0.41300 0.23250 1.78000
B 	B 	0.20450 0.27140 0.21925 19.69000
H 	H 	0.22830 0.23210 0.22860 -5.26500
B 	B 	0.09710 0.23630 0.21758 -20.35000
H 	H 	0.05030 0.17440 0.22630 5.30500
Cu	Cu	0.47480 0.94910 0.52270 0.93600
O 	O 	0.58330 0.02040 0.53700 -0.37300
O 	O 	0.37370 0.89130 0.50420 -0.38100
O 	O 	0.52050 0.89600 0.50320 -0.38300
O 	O 	0.43610 0.01580 0.53710 -0.37700
C 	C 	0.63870 0.08920 0.52220 0.27500
C 	C 	0.71690 0.15340 0.53910 -0.08000
C 	C 	0.77520 0.22100 0.52530 0.02400
C 	C 	0.72630 0.14340 0.56640 0.05100
H 	H 	0.76740 0.22840 0.50630 0.05600
C 	C 	0.84470 0.27830 0.53870 -0.07300
C 	C 	0.79500 0.20220 0.58000 -0.13700
H 	H 	0.68560 0.09590 0.57600 0.02300
C 	C 	0.85250 0.27160 0.56640 0.04300
C 	C 	0.91090 0.36360 0.52420 0.26700
C 	C 	0.80160 0.20120 0.61010 0.23600
H 	H 	0.89750 0.31480 0.57630 0.03500
C 	C 	0.80040 0.20760 0.63640 -0.75900
B 	B 	0.79770 0.21310 0.66920 0.23800
B 	B 	0.71730 0.12880 0.68850 2.64800
B 	B 	0.82060 0.14530 0.68930 -4.73800
B 	B 	0.89250 0.25460 0.68900 -1.26500
B 	B 	0.83060 0.30120 0.69000 -5.72700
B 	B 	0.72370 0.22800 0.68790 -1.16100
H 	H 	0.66460 0.07380 0.67810 -0.54000
B 	B 	0.70530 0.17210 0.71960 -5.22500
B 	B 	0.76020 0.11610 0.71980 0.62000
H 	H 	0.83700 0.10100 0.67920 0.29900
B 	B 	0.86740 0.19800 0.72040 -2.62800
C 	C 	0.87150 0.28520 0.71730 2.79300
H 	H 	0.95500 0.28300 0.67880 -1.32300
C 	C 	0.77090 0.26640 0.71610 5.75300
H 	H 	0.85480 0.36550 0.68160 1.27300
H 	H 	0.67680 0.23970 0.67720 0.67900
H 	H 	0.64360 0.14810 0.73010 1.46800
H 	H 	0.73570 0.05230 0.72870 -4.78000
H 	H 	0.91680 0.19070 0.73130 5.85200
H 	H 	0.92630 0.34140 0.72630 -0.79900
H 	H 	0.75160 0.31020 0.72480 -1.10000
C 	C 	0.81160 0.18490 0.63700 0.24800
C 	C 	0.91280 0.22860 0.71558 0.65100
H 	H 	0.97360 0.28070 0.72320 -0.46600
C 	C 	0.81030 0.20850 0.71677 1.69500
H 	H 	0.79080 0.25000 0.72720 -3.26300
B 	B 	0.82360 0.16800 0.66880 0.94200
B 	B 	0.74670 0.08280 0.68840 -7.42400
H 	H 	0.69230 0.02990 0.67780 2.11400
B 	B 	0.84590 0.09650 0.68490 0.68400
H 	H 	0.85590 0.05230 0.67190 -0.39600
B 	B 	0.92060 0.20010 0.68550 13.94900
H 	H 	0.97910 0.22580 0.67300 -3.93500
B 	B 	0.86650 0.25390 0.69250 -4.79500
H 	H 	0.89250 0.32110 0.68720 3.16300
B 	B 	0.75390 0.18240 0.69200 7.75800
H 	H 	0.70640 0.19880 0.68490 -1.74100
B 	B 	0.73960 0.11900 0.72105 -3.15200
H 	H 	0.67900 0.09200 0.73250 1.78000
B 	B 	0.79550 0.06690 0.71925 19.69000
H 	H 	0.77170 0.00380 0.72860 -5.26500
B 	B 	0.90290 0.13920 0.71758 -20.35000
H 	H 	0.94970 0.12410 0.72630 5.30500
Cu	Cu	0.05090 0.52570 0.52270 0.93600
O 	O 	0.97960 0.56290 0.53700 -0.37300
O 	O 	0.10870 0.48240 0.50420 -0.38100
O 	O 	0.10400 0.62450 0.50320 -0.38300
O 	O 	0.98420 0.42030 0.53710 -0.37700
C 	C 	0.91080 0.54950 0.52220 0.27500
C 	C 	0.84660 0.56350 0.53910 -0.08000
C 	C 	0.77900 0.55420 0.52530 0.02400
C 	C 	0.85660 0.58290 0.56640 0.05100
H 	H 	0.77160 0.53900 0.50630 0.05600
C 	C 	0.72170 0.56640 0.53870 -0.07300
C 	C 	0.79780 0.59280 0.58000 -0.13700
H 	H 	0.90410 0.58970 0.57600 0.02300
C 	C 	0.72840 0.58090 0.56640 0.04300
C 	C 	0.63640 0.54730 0.52420 0.26700
C 	C 	0.79880 0.60040 0.61010 0.23600
H 	H 	0.68520 0.58270 0.57630 0.03500
C 	C 	0.79240 0.59280 0.63640 -0.75900
B 	B 	0.78690 0.58460 0.66920 0.23800
B 	B 	0.87120 0.58850 0.68850 2.64800
B 	B 	0.85470 0.67530 0.68930 -4.73800
B 	B 	0.74540 0.63790 0.68900 -1.26500
B 	B 	0.69880 0.52940 0.69000 -5.72700
B 	B 	0.77200 0.49570 0.68790 -1.16100
H 	H 	0.92620 0.59080 0.67810 -0.54000
B 	B 	0.82790 0.53320 0.71960 -5.22500
B 	B 	0.88390 0.64410 0.71980 0.62000
H 	H 	0.89900 0.73600 0.67920 0.29900
B 	B 	0.80200 0.66940 0.72040 -2.62800
C 	C 	0.71480 0.58630 0.71730 2.79300
H 	H 	0.71700 0.67200 0.67880 -1.32300
C 	C 	0.73360 0.50450 0.71610 5.75300
H 	H 	0.63450 0.48930 0.68160 1.27300
H 	H 	0.76030 0.43710 0.67720 0.67900
H 	H 	0.85190 0.49550 0.73010 1.46800
H 	H 	0.94770 0.68340 0.72870 -4.78000
H 	H 	0.80930 0.72610 0.73130 5.85200
H 	H 	0.65860 0.58490 0.72630 -0.79900
H 	H 	0.68980 0.44140 0.72480 -1.10100
C 	C 	0.81510 0.62670 0.63700 0.24900
C 	C 	0.77140 0.68420 0.71558 0.65100
H 	H 	0.71930 0.69290 0.72320 -0.46600
C 	C 	0.79150 0.60180 0.71677 1.69600
H 	H 	0.75000 0.54080 0.72720 -3.26300
B 	B 	0.83200 0.65560 0.66880 0.94200
B 	B 	0.91720 0.66390 0.68840 -7.42400
H 	H 	0.97010 0.66240 0.67780 2.11400
B 	B 	0.90350 0.74940 0.68490 0.68400
H 	H 	0.94770 0.80360 0.67190 -0.39600
B 	B 	0.79990 0.72050 0.68550 13.94900
H 	H 	0.77420 0.75330 0.67300 -3.93600
B 	B 	0.74610 0.61260 0.69250 -4.79500
H 	H 	0.67890 0.57140 0.68720 3.16300
B 	B 	0.81760 0.57150 0.69200 7.75800
H 	H 	0.80120 0.50760 0.68490 -1.74100
B 	B 	0.88100 0.62060 0.72105 -3.15200
H 	H 	0.90800 0.58700 0.73250 1.78000
B 	B 	0.93310 0.72860 0.71925 19.69100
H 	H 	0.99620 0.76790 0.72860 -5.26500
B 	B 	0.86080 0.76370 0.71758 -20.35000
H 	H 	0.87590 0.82560 0.72630 5.30500
Cu	Cu	0.47430 0.52520 0.52270 0.93600
O 	O 	0.43710 0.41670 0.53700 -0.37300
O 	O 	0.51760 0.62630 0.50420 -0.38100
O 	O 	0.37550 0.47950 0.50320 -0.38300
O 	O 	0.57970 0.56390 0.53710 -0.37700
C 	C 	0.45050 0.36130 0.52220 0.27500
C 	C 	0.43650 0.28310 0.53910 -0.08000
C 	C 	0.44580 0.22480 0.52530 0.02400
C 	C 	0.41710 0.27370 0.56640 0.05100
H 	H 	0.46100 0.23260 0.50630 0.05600
C 	C 	0.43360 0.15530 0.53870 -0.07300
C 	C 	0.40720 0.20500 0.58000 -0.13700
H 	H 	0.41030 0.31440 0.57600 0.02300
C 	C 	0.41910 0.14750 0.56640 0.04300
C 	C 	0.45270 0.08910 0.52420 0.26700
C 	C 	0.39960 0.19840 0.61010 0.23600
H 	H 	0.41730 0.10250 0.57630 0.03500
C 	C 	0.40720 0.19960 0.63640 -0.75900
B 	B 	0.41540 0.20230 0.66920 0.23800
B 	B 	0.41150 0.28270 0.68850 2.64800
B 	B 	0.32470 0.17940 0.68930 -4.73800
B 	B 	0.36210 0.10750 0.68900 -1.26500
B 	B 	0.47060 0.16940 0.69000 -5.72600
B 	B 	0.50430 0.27630 0.68790 -1.16100
H 	H 	0.40920 0.33540 0.67810 -0.54000
B 	B 	0.46680 0.29470 0.71960 -5.22500
B 	B 	0.35590 0.23980 0.71980 0.62000
H 	H 	0.26400 0.16300 0.67920 0.29900
B 	B 	0.33060 0.13260 0.72040 -2.62800
C 	C 	0.41370 0.12850 0.71730 2.79300
H 	H 	0.32800 0.04500 0.67880 -1.32300
C 	C 	0.49550 0.22910 0.71610 5.75300
H 	H 	0.51070 0.14520 0.68160 1.27300
H 	H 	0.56290 0.32320 0.67720 0.67900
H 	H 	0.50450 0.35640 0.73010 1.46700
H 	H 	0.31660 0.26430 0.72870 -4.78000
H 	H 	0.27390 0.08320 0.73130 5.85100
H 	H 	0.41510 0.07370 0.72630 -0.79900
H 	H 	0.55860 0.24840 0.72480 -1.10000
C 	C 	0.37330 0.18840 0.63700 0.24800
C 	C 	0.31580 0.08720 0.71558 0.65100
H 	H 	0.30710 0.02640 0.72320 -0.46600
C 	C 	0.39820 0.18970 0.71677 1.69600
H 	H 	0.45920 0.20920 0.72720 -3.26300
B 	B 	0.34440 0.17640 0.66880 0.94200
B 	B 	0.33610 0.25330 0.68840 -7.42400
H 	H 	0.33760 0.30770 0.67780 2.11300
B 	B 	0.25060 0.15410 0.68490 0.68400
H 	H 	0.19640 0.14410 0.67190 -0.39600
B 	B 	0.27950 0.07940 0.68550 13.94900
H 	H 	0.24670 0.02090 0.67300 -3.93500
B 	B 	0.38740 0.13350 0.69250 -4.79500
H 	H 	0.42860 0.10750 0.68720 3.16300
B 	B 	0.42850 0.24610 0.69200 7.75700
H 	H 	0.49240 0.29360 0.68490 -1.74100
B 	B 	0.37940 0.26040 0.72105 -3.15200
H 	H 	0.41300 0.32100 0.73250 1.78000
B 	B 	0.27140 0.20450 0.71925 19.69000
H 	H 	0.23210 0.22830 0.72860 -5.26500
B 	B 	0.23630 0.09710 0.71758 -20.35000
H 	H 	0.17440 0.05030 0.72630 5.30500
Cu	Cu	0.05090 0.52520 0.97730 0.93600
O 	O 	0.97960 0.41670 0.96300 -0.37300
O 	O 	0.10870 0.62630 0.99580 -0.38100
O 	O 	0.10400 0.47950 0.99680 -0.38300
O 	O 	0.98420 0.56390 0.96290 -0.37700
C 	C 	0.91080 0.36130 0.97780 0.27500
C 	C 	0.84660 0.28310 0.96090 -0.08000
C 	C 	0.77900 0.22480 0.97470 0.02400
C 	C 	0.85660 0.27370 0.93360 0.05100
H 	H 	0.77160 0.23260 0.99370 0.05600
C 	C 	0.72170 0.15530 0.96130 -0.07300
C 	C 	0.79780 0.20500 0.92000 -0.13700
H 	H 	0.90410 0.31440 0.92400 0.02300
C 	C 	0.72840 0.14750 0.93360 0.04300
C 	C 	0.63640 0.08910 0.97580 0.26700
C 	C 	0.79880 0.19840 0.88990 0.23600
H 	H 	0.68520 0.10250 0.92370 0.03500
C 	C 	0.79240 0.19960 0.86360 -0.75900
B 	B 	0.78690 0.20230 0.83080 0.23800
B 	B 	0.87120 0.28270 0.81150 2.64800
B 	B 	0.85470 0.17940 0.81070 -4.73800
B 	B 	0.74540 0.10750 0.81100 -1.26500
B 	B 	0.69880 0.16940 0.81000 -5.72700
B 	B 	0.77200 0.27630 0.81210 -1.16100
H 	H 	0.92620 0.33540 0.82190 -0.54000
B 	B 	0.82790 0.29470 0.78040 -5.22500
B 	B 	0.88390 0.23980 0.78020 0.62000
H 	H 	0.89900 0.16300 0.82080 0.29900
B 	B 	0.80200 0.13260 0.77960 -2.62800
C 	C 	0.71480 0.12850 0.78270 2.79300
H 	H 	0.71700 0.04500 0.82120 -1.32300
C 	C 	0.73360 0.22910 0.78390 5.75300
H 	H 	0.63450 0.14520 0.81840 1.27300
H 	H 	0.76030 0.32320 0.82280 0.67900
H 	H 	0.85190 0.35640 0.76990 1.46800
H 	H 	0.94770 0.26430 0.77130 -4.78000
H 	H 	0.80930 0.08320 0.76870 5.85200
H 	H 	0.65860 0.07370 0.77370 -0.79900
H 	H 	0.68980 0.24840 0.77520 -1.10000
C 	C 	0.81510 0.18840 0.86300 0.24800
C 	C 	0.77140 0.08720 0.78442 0.65100
H 	H 	0.71930 0.02640 0.77680 -0.46600
C 	C 	0.79150 0.18970 0.78323 1.69500
H 	H 	0.75000 0.20920 0.77280 -3.26300
B 	B 	0.83200 0.17640 0.83120 0.94200
B 	B 	0.91720 0.25330 0.81160 -7.42400
H 	H 	0.97010 0.30770 0.82220 2.11400
B 	B 	0.90350 0.15410 0.81510 0.68400
H 	H 	0.94770 0.14410 0.82810 -0.39600
B 	B 	0.79990 0.07940 0.81450 13.94900
H 	H 	0.77420 0.02090 0.82700 -3.93500
B 	B 	0.74610 0.13350 0.80750 -4.79500
H 	H 	0.67890 0.10750 0.81280 3.16300
B 	B 	0.81760 0.24610 0.80800 7.75800
H 	H 	0.80120 0.29360 0.81510 -1.74100
B 	B 	0.88100 0.26040 0.77895 -3.15200
H 	H 	0.90800 0.32100 0.76750 1.78000
B 	B 	0.93310 0.20450 0.78075 19.69000
H 	H 	0.99620 0.22830 0.77140 -5.26500
B 	B 	0.86080 0.09710 0.78242 -20.35000
H 	H 	0.87590 0.05030 0.77370 5.30500
Cu	Cu	0.47430 0.94910 0.97730 0.93600
O 	O 	0.43710 0.02040 0.96300 -0.37300
O 	O 	0.51760 0.89130 0.99580 -0.38100
O 	O 	0.37550 0.89600 0.99680 -0.38300
O 	O 	0.57970 0.01580 0.96290 -0.37700
C 	C 	0.45050 0.08920 0.97780 0.27500
C 	C 	0.43650 0.15340 0.96090 -0.08000
C 	C 	0.44580 0.22100 0.97470 0.02400
C 	C 	0.41710 0.14340 0.93360 0.05100
H 	H 	0.46100 0.22840 0.99370 0.05600
C 	C 	0.43360 0.27830 0.96130 -0.07300
C 	C 	0.40720 0.20220 0.92000 -0.13700
H 	H 	0.41030 0.09590 0.92400 0.02300
C 	C 	0.41910 0.27160 0.93360 0.04300
C 	C 	0.45270 0.36360 0.97580 0.26700
C 	C 	0.39960 0.20120 0.88990 0.23600
H 	H 	0.41730 0.31480 0.92370 0.03500
C 	C 	0.40720 0.20760 0.86360 -0.75900
B 	B 	0.41540 0.21310 0.83080 0.23800
B 	B 	0.41150 0.12880 0.81150 2.64800
B 	B 	0.32470 0.14530 0.81070 -4.73800
B 	B 	0.36210 0.25460 0.81100 -1.26500
B 	B 	0.47060 0.30120 0.81000 -5.72700
B 	B 	0.50430 0.22800 0.81210 -1.16100
H 	H 	0.40920 0.07380 0.82190 -0.54000
B 	B 	0.46680 0.17210 0.78040 -5.22500
B 	B 	0.35590 0.11610 0.78020 0.62000
H 	H 	0.26400 0.10100 0.82080 0.29900
B 	B 	0.33060 0.19800 0.77960 -2.62800
C 	C 	0.41370 0.28520 0.78270 2.79300
H 	H 	0.32800 0.28300 0.82120 -1.32300
C 	C 	0.49550 0.26640 0.78390 5.75300
H 	H 	0.51070 0.36550 0.81840 1.27300
H 	H 	0.56290 0.23970 0.82280 0.67900
H 	H 	0.50450 0.14810 0.76990 1.46800
H 	H 	0.31660 0.05230 0.77130 -4.78000
H 	H 	0.27390 0.19070 0.76870 5.85200
H 	H 	0.41510 0.34140 0.77370 -0.79900
H 	H 	0.55860 0.31020 0.77520 -1.10100
C 	C 	0.37330 0.18490 0.86300 0.24900
C 	C 	0.31580 0.22860 0.78442 0.65100
H 	H 	0.30710 0.28070 0.77680 -0.46600
C 	C 	0.39820 0.20850 0.78323 1.69600
H 	H 	0.45920 0.25000 0.77280 -3.26300
B 	B 	0.34440 0.16800 0.83120 0.94200
B 	B 	0.33610 0.08280 0.81160 -7.42400
H 	H 	0.33760 0.02990 0.82220 2.11400
B 	B 	0.25060 0.09650 0.81510 0.68400
H 	H 	0.19640 0.05230 0.82810 -0.39600
B 	B 	0.27950 0.20010 0.81450 13.94900
H 	H 	0.24670 0.22580 0.82700 -3.93600
B 	B 	0.38740 0.25390 0.80750 -4.79500
H 	H 	0.42860 0.32110 0.81280 3.16300
B 	B 	0.42850 0.18240 0.80800 7.75800
H 	H 	0.49240 0.19880 0.81510 -1.74100
B 	B 	0.37940 0.11900 0.77895 -3.15200
H 	H 	0.41300 0.09200 0.76750 1.78000
B 	B 	0.27140 0.06690 0.78075 19.69100
H 	H 	0.23210 0.00380 0.77140 -5.26500
B 	B 	0.23630 0.13920 0.78242 -20.35000
H 	H 	0.17440 0.12410 0.77370 5.30500
Cu	Cu	0.47480 0.52570 0.97730 0.93600
O 	O 	0.58330 0.56290 0.96300 -0.37300
O 	O 	0.37370 0.48240 0.99580 -0.38100
O 	O 	0.52050 0.62450 0.99680 -0.38300
O 	O 	0.43610 0.42030 0.96290 -0.37700
C 	C 	0.63870 0.54950 0.97780 0.27500
C 	C 	0.71690 0.56350 0.96090 -0.08100
C 	C 	0.77520 0.55420 0.97470 0.02400
C 	C 	0.72630 0.58290 0.93360 0.05100
H 	H 	0.76740 0.53900 0.99370 0.05600
C 	C 	0.84470 0.56640 0.96130 -0.07300
C 	C 	0.79500 0.59280 0.92000 -0.13700
H 	H 	0.68560 0.58970 0.92400 0.02300
C 	C 	0.85250 0.58090 0.93360 0.04300
C 	C 	0.91090 0.54730 0.97580 0.26700
C 	C 	0.80160 0.60040 0.88990 0.23600
H 	H 	0.89750 0.58270 0.92370 0.03500
C 	C 	0.80040 0.59280 0.86360 -0.75900
B 	B 	0.79770 0.58460 0.83080 0.23800
B 	B 	0.71730 0.58850 0.81150 2.64800
B 	B 	0.82060 0.67530 0.81070 -4.73800
B 	B 	0.89250 0.63790 0.81100 -1.26500
B 	B 	0.83060 0.52940 0.81000 -5.72600
B 	B 	0.72370 0.49570 0.81210 -1.16100
H 	H 	0.66460 0.59080 0.82190 -0.54000
B 	B 	0.70530 0.53320 0.78040 -5.22500
B 	B 	0.76020 0.64410 0.78020 0.62000
H 	H 	0.83700 0.73600 0.82080 0.29900
B 	B 	0.86740 0.66940 0.77960 -2.62800
C 	C 	0.87150 0.58630 0.78270 2.79300
H 	H 	0.95500 0.67200 0.82120 -1.32300
C 	C 	0.77090 0.50450 0.78390 5.75300
H 	H 	0.85480 0.48930 0.81840 1.27300
H 	H 	0.67680 0.43710 0.82280 0.67900
H 	H 	0.64360 0.49550 0.76990 1.46700
H 	H 	0.73570 0.68340 0.77130 -4.78000
H 	H 	0.91680 0.72610 0.76870 5.85100
H 	H 	0.92630 0.58490 0.77370 -0.79900
H 	H 	0.75160 0.44140 0.77520 -1.10000
C 	C 	0.81160 0.62670 0.86300 0.24800
C 	C 	0.91280 0.68420 0.78442 0.65100
H 	H 	0.97360 0.69290 0.77680 -0.46600
C 	C 	0.81030 0.60180 0.78323 1.69600
H 	H 	0.79080 0.54080 0.77280 -3.26300
B 	B 	0.82360 0.65560 0.83120 0.94200
B 	B 	0.74670 0.66390 0.81160 -7.42400
H 	H 	0.69230 0.66240 0.82220 2.11300
B 	B 	0.84590 0.74940 0.81510 0.68400
H 	H 	0.85590 0.80360 0.82810 -0.39600
B 	B 	0.92060 0.72050 0.81450 13.94900
H 	H 	0.97910 0.75330 0.82700 -3.93500
B 	B 	0.86650 0.61260 0.80750 -4.79500
H 	H 	0.89250 0.57140 0.81280 3.16300
B 	B 	0.75390 0.57150 0.80800 7.75700
H 	H 	0.70640 0.50760 0.81510 -1.74100
B 	B 	0.73960 0.62060 0.77895 -3.15200
H 	H 	0.67900 0.58700 0.76750 1.78000
B 	B 	0.79550 0.72860 0.78075 19.69000
H 	H 	0.77170 0.76790 0.77140 -5.26500
B 	B 	0.90290 0.76370 0.78242 -20.35000
H 	H 	0.94970 0.82560 0.77370 5.30500
Co	Co	0.20570 0.79430 0.25000 1.81500
Co	Co	0.15700 0.84300 0.25000 0.36100
Co	Co	0.20570 0.41140 0.25000 1.81500
Co	Co	0.15700 0.31400 0.25000 0.36100
Co	Co	0.58860 0.79430 0.25000 1.81500
Co	Co	0.68600 0.84300 0.25000 0.36100
Co	Co	0.79430 0.20570 0.75000 1.81500
Co	Co	0.84300 0.15700 0.75000 0.36100
Co	Co	0.79430 0.58860 0.75000 1.81500
Co	Co	0.84300 0.68600 0.75000 0.36100
Co	Co	0.41140 0.20570 0.75000 1.81500
Co	Co	0.31400 0.15700 0.75000 0.36100
