data_crystal

_cell_length_a 36.54900
_cell_length_b 38.14800
_cell_length_c 38.32540
_cell_angle_alpha 119.84700
_cell_angle_beta  118.47800
_cell_angle_gamma 90.00010

_symmetry_space_group_name_	'P 1'
_symmetry_space_group_name_H-M	'P 1'

loop_
_symmetry_equiv_pos_as_xyz
  x,y,z

loop_
_atom_site_label
_atom_site_type_symbol
_atom_site_fract_x
_atom_site_fract_y
_atom_site_fract_z
_atom_site_charge
Co	Co	0.92595 0.53066 0.38650 1.10000
Co	Co	0.42383 0.04384 0.84766 1.10800
Co	Co	0.92595 0.85584 0.38650 1.10000
Co	Co	0.46055 0.85584 0.38650 1.10000
Co	Co	0.42383 0.80382 0.84766 1.10800
Co	Co	0.07405 0.46934 0.61350 1.10000
Co	Co	0.07405 0.14416 0.61350 1.10000
Co	Co	0.46055 0.53066 0.38650 1.10000
Co	Co	0.53945 0.14416 0.61350 1.10000
Co	Co	0.57617 0.19618 0.15234 1.10800
Co	Co	0.53945 0.46934 0.61350 1.10000
Co	Co	0.57617 0.95616 0.15234 1.10800
Cu	Cu	0.95188 0.09974 0.19948 0.92400
Cu	Cu	0.13852 0.33935 0.27704 0.89400
Cu	Cu	0.04812 0.90026 0.80052 0.92600
Cu	Cu	0.10325 0.25663 0.20650 0.90600
Cu	Cu	0.75240 0.90026 0.80052 0.92600
Cu	Cu	0.24760 0.09974 0.19948 0.92500
Cu	Cu	0.66715 0.86854 0.73708 0.89900
Cu	Cu	0.19964 0.20222 -0.00000 0.89800
Cu	Cu	0.14539 0.84367 -0.00000 0.89200
Cu	Cu	0.86148 0.06231 0.72296 0.89400
Cu	Cu	0.89675 0.05013 0.79350 0.90700
Cu	Cu	0.86148 0.66065 0.72296 0.89400
Cu	Cu	0.13852 0.93769 0.27704 0.89400
Cu	Cu	0.10325 0.94987 0.20650 0.90500
Cu	Cu	0.80036 0.20222 -0.00000 0.89800
Cu	Cu	0.80036 0.79778 -0.00000 0.89700
Cu	Cu	0.85461 0.84367 -0.00000 0.89100
Cu	Cu	0.19964 0.79778 -0.00000 0.89700
Cu	Cu	0.33285 0.13146 0.26292 0.89900
Cu	Cu	0.14539 0.15633 -0.00000 0.89300
Cu	Cu	0.89675 0.74337 0.79350 0.90700
Cu	Cu	0.93007 0.13146 0.26292 0.89900
Cu	Cu	0.06993 0.86854 0.73708 0.89900
Cu	Cu	0.85461 0.15633 -0.00000 0.89200
B 	B 	0.96430 0.87470 0.49160 1.49500
B 	B 	0.55980 0.97330 0.20140 0.29200
B 	B 	0.07940 0.39100 0.50380 -0.30900
B 	B 	0.48400 0.21800 0.12920 0.28400
B 	B 	0.62790 0.93490 0.09700 0.08300
B 	B 	0.95690 0.80360 0.31200 -0.54000
B 	B 	0.88351 0.49361 0.31262 -1.44900
B 	B 	0.51160 0.24130 0.19160 0.32200
B 	B 	0.53960 0.83500 0.45440 -0.49600
B 	B 	0.57560 0.60900 0.49620 -0.30900
B 	B 	0.88850 0.82490 0.39720 0.85400
B 	B 	0.92060 0.88720 0.49620 -0.30900
B 	B 	0.43400 0.46650 0.33740 1.04600
B 	B 	0.40820 0.79830 0.33180 1.09900
B 	B 	0.89750 0.55400 0.46520 0.45400
B 	B 	0.02130 0.51870 0.66020 1.64100
B 	B 	0.52040 0.99910 0.19800 0.06900
B 	B 	0.50600 0.00990 0.85900 1.02700
B 	B 	0.32090 0.04220 0.85000 -0.36700
B 	B 	0.43230 0.44600 0.53480 0.45400
B 	B 	0.59180 0.46650 0.66820 1.10100
B 	B 	0.51300 0.91380 0.44220 0.98200
B 	B 	0.47960 0.00090 0.80200 0.07500
B 	B 	0.03570 0.12530 0.50840 1.49600
B 	B 	0.06480 0.54700 0.72140 -0.23300
B 	B 	0.52730 0.61690 0.49160 1.49600
B 	B 	0.53090 0.83790 0.90300 0.08400
B 	B 	0.54050 0.23970 0.15780 -0.46100
B 	B 	0.48840 0.04970 0.80840 0.32300
B 	B 	0.42911 0.81901 0.31262 -1.45700
B 	B 	0.44020 0.02670 0.79860 0.29800
B 	B 	0.47270 0.38310 0.50840 1.49600
B 	B 	0.43610 0.42020 0.56240 0.62200
B 	B 	0.65660 0.54700 0.72140 -0.23300
B 	B 	0.36110 0.48130 0.33980 1.63200
B 	B 	0.43610 0.14220 0.56240 0.62200
B 	B 	0.04310 0.49160 0.68800 -0.55300
B 	B 	0.59170 0.91290 0.10400 0.43800
B 	B 	0.57089 0.18099 0.68738 -1.45800
B 	B 	0.46910 0.93490 0.09700 0.08300
B 	B 	0.56770 0.91120 0.46520 0.45400
B 	B 	0.48400 0.91120 0.12920 0.27700
B 	B 	0.52430 0.87310 0.40540 -1.20300
B 	B 	0.97870 0.85850 0.33980 1.62100
B 	B 	0.51300 0.52840 0.44220 0.98200
B 	B 	0.49400 0.15090 0.14100 1.02300
B 	B 	0.88760 0.44440 0.27800 0.63400
B 	B 	0.47960 0.80110 0.80200 0.07300
B 	B 	0.48840 0.75870 0.80840 0.32400
B 	B 	0.10250 0.08880 0.53480 0.45400
B 	B 	0.92920 0.91380 0.44220 0.98100
B 	B 	0.90100 0.78880 0.27500 0.52200
B 	B 	0.57089 0.50639 0.68738 -1.45800
B 	B 	0.34340 0.82560 0.27860 -0.23400
B 	B 	0.55980 0.22810 0.20140 0.29800
B 	B 	0.61730 0.91810 0.15780 -0.45700
B 	B 	0.47270 0.12530 0.50840 1.49600
B 	B 	0.93600 0.44110 0.31780 -0.66300
B 	B 	0.11649 0.50639 0.68738 -1.46400
B 	B 	0.38180 0.44110 0.31780 -0.67000
B 	B 	0.88351 0.81901 0.31262 -1.44800
B 	B 	0.88110 0.87310 0.40540 -1.20200
B 	B 	0.47090 0.19220 0.15000 -0.36600
B 	B 	0.92360 0.53350 0.33180 1.09300
B 	B 	0.67910 0.19220 0.15000 -0.36600
B 	B 	0.11240 0.55560 0.72200 0.63900
B 	B 	0.62600 0.51380 0.72500 0.52700
B 	B 	0.49130 0.42770 0.60280 0.85500
B 	B 	0.65660 0.17440 0.72140 -0.23300
B 	B 	0.37400 0.78880 0.27500 0.52500
B 	B 	0.51600 0.08880 0.87080 0.28600
B 	B 	0.45950 0.08190 0.84220 -0.46100
B 	B 	0.90100 0.48620 0.27500 0.52200
B 	B 	0.61820 0.12330 0.68220 -0.67100
B 	B 	0.06400 0.12330 0.68220 -0.67500
B 	B 	0.95440 0.92130 0.49840 -0.40900
B 	B 	0.46040 0.16500 0.54560 -0.49500
B 	B 	0.07080 0.47160 0.55780 0.98200
B 	B 	0.07940 0.11280 0.50380 -0.30900
B 	B 	0.88760 0.83360 0.27800 0.63300
B 	B 	0.90340 0.46650 0.33740 1.03900
B 	B 	0.11649 0.18099 0.68738 -1.46200
B 	B 	0.52730 0.87470 0.49160 1.49600
B 	B 	0.92060 0.60900 0.49620 -0.30900
B 	B 	0.12630 0.14220 0.56240 0.62200
B 	B 	0.88850 0.57230 0.39720 0.85400
B 	B 	0.11890 0.46770 0.59460 -1.20300
B 	B 	0.92360 0.79830 0.33180 1.09300
B 	B 	0.52910 0.80780 0.85000 -0.36700
B 	B 	0.35510 0.80360 0.31200 -0.54700
B 	B 	0.88110 0.53230 0.40540 -1.20200
B 	B 	0.87370 0.57980 0.43760 0.62100
B 	B 	0.64490 0.19640 0.68800 -0.54800
B 	B 	0.52910 0.04220 0.85000 -0.36700
B 	B 	0.61820 0.55890 0.68220 -0.67100
B 	B 	0.37210 0.06510 0.90300 0.08300
B 	B 	0.51600 0.78200 0.87080 0.28400
B 	B 	0.07080 0.08620 0.55780 0.98200
B 	B 	0.59170 0.19110 0.10400 0.43900
B 	B 	0.09900 0.21120 0.72500 0.52800
B 	B 	0.96430 0.61690 0.49160 1.49500
B 	B 	0.36110 0.85850 0.33980 1.63200
B 	B 	0.32240 0.00090 0.80200 0.07400
B 	B 	0.91480 0.83500 0.45440 -0.49600
B 	B 	0.35480 0.08880 0.87080 0.28600
B 	B 	0.04310 0.19640 0.68800 -0.55200
B 	B 	0.64520 0.91120 0.12920 0.27700
B 	B 	0.50600 0.84910 0.85900 1.02500
B 	B 	0.07640 0.46650 0.66820 1.10500
B 	B 	0.39040 0.44440 0.27800 0.63600
B 	B 	0.50870 0.82490 0.39720 0.85400
B 	B 	0.54400 0.92130 0.49840 -0.40900
B 	B 	0.56600 0.53350 0.66260 1.04700
B 	B 	0.48700 0.47160 0.55780 0.98200
B 	B 	0.02130 0.14150 0.66020 1.63900
B 	B 	0.93600 0.87670 0.31780 -0.66200
B 	B 	0.56600 0.12910 0.66260 1.04700
B 	B 	0.08520 0.16500 0.54560 -0.49500
B 	B 	0.04560 0.42290 0.50160 -0.40900
B 	B 	0.06400 0.55890 0.68220 -0.67700
B 	B 	0.56390 0.57980 0.43760 0.62100
B 	B 	0.40830 0.08710 0.89600 0.44100
B 	B 	0.67760 0.99910 0.19800 0.06900
B 	B 	0.52430 0.53230 0.40540 -1.20300
B 	B 	0.38180 0.87670 0.31780 -0.67000
B 	B 	0.45600 0.42290 0.50160 -0.40900
B 	B 	0.68000 0.24130 0.19160 0.32200
B 	B 	0.51160 0.95030 0.19160 0.32700
B 	B 	0.64160 0.97330 0.20140 0.29200
B 	B 	0.35480 0.78200 0.87080 0.28400
B 	B 	0.11150 0.42770 0.60280 0.85500
B 	B 	0.53960 0.61940 0.45440 -0.49600
B 	B 	0.97870 0.48130 0.33980 1.62200
B 	B 	0.35300 0.84910 0.85900 1.02500
B 	B 	0.48770 0.80890 0.89600 0.44200
B 	B 	0.43400 0.87090 0.33740 1.04500
B 	B 	0.60960 0.55560 0.72200 0.63700
B 	B 	0.32240 0.80110 0.80200 0.07300
B 	B 	0.63890 0.14150 0.66020 1.63300
B 	B 	0.62790 0.16210 0.09700 0.07700
B 	B 	0.08520 0.38060 0.54560 -0.49500
B 	B 	0.68000 0.95030 0.19160 0.32700
B 	B 	0.53090 0.06510 0.90300 0.08200
B 	B 	0.48700 0.08620 0.55780 0.98200
B 	B 	0.48770 0.08710 0.89600 0.44100
B 	B 	0.45950 0.76030 0.84220 -0.46000
B 	B 	0.56770 0.55400 0.46520 0.45400
B 	B 	0.37400 0.48620 0.27500 0.52500
B 	B 	0.07640 0.20170 0.66820 1.10400
B 	B 	0.42440 0.11280 0.50380 -0.30900
B 	B 	0.38270 0.76030 0.84220 -0.46000
B 	B 	0.92920 0.52840 0.44220 0.98200
B 	B 	0.61730 0.23970 0.15780 -0.46100
B 	B 	0.64700 0.15090 0.14100 1.02300
B 	B 	0.51230 0.19110 0.10400 0.43900
B 	B 	0.64700 0.99010 0.14100 1.01300
B 	B 	0.52040 0.19890 0.19800 0.07300
B 	B 	0.32000 0.75870 0.80840 0.32400
B 	B 	0.63890 0.51870 0.66020 1.63300
B 	B 	0.47090 0.95780 0.15000 -0.36300
B 	B 	0.42911 0.49361 0.31262 -1.45700
B 	B 	0.93520 0.45300 0.27860 -0.23500
B 	B 	0.62600 0.21120 0.72500 0.52700
B 	B 	0.11890 0.12690 0.59460 -1.20300
B 	B 	0.10250 0.44600 0.53480 0.45400
B 	B 	0.38270 0.08190 0.84220 -0.46000
B 	B 	0.49400 0.99010 0.14100 1.01300
B 	B 	0.11150 0.17510 0.60280 0.85500
B 	B 	0.50870 0.57230 0.39720 0.85400
B 	B 	0.39040 0.83360 0.27800 0.63600
B 	B 	0.40820 0.53350 0.33180 1.09900
B 	B 	0.09660 0.12910 0.66260 1.05000
B 	B 	0.04560 0.07870 0.50160 -0.40900
B 	B 	0.43230 0.08880 0.53480 0.45400
B 	B 	0.46040 0.38060 0.54560 -0.49500
B 	B 	0.64490 0.49160 0.68800 -0.54800
B 	B 	0.40830 0.80890 0.89600 0.44200
B 	B 	0.59180 0.20170 0.66820 1.10100
B 	B 	0.11240 0.16640 0.72200 0.63800
B 	B 	0.93520 0.82560 0.27860 -0.23500
B 	B 	0.47570 0.46770 0.59460 -1.20300
B 	B 	0.54400 0.57710 0.49840 -0.40900
B 	B 	0.56390 0.85780 0.43760 0.62100
B 	B 	0.09660 0.53350 0.66260 1.05200
B 	B 	0.44020 0.77190 0.79860 0.29700
B 	B 	0.89750 0.91120 0.46520 0.45300
B 	B 	0.09900 0.51380 0.72500 0.52900
B 	B 	0.35840 0.02670 0.79860 0.29800
B 	B 	0.46910 0.16210 0.09700 0.07700
B 	B 	0.57560 0.88720 0.49620 -0.30900
B 	B 	0.03570 0.38310 0.50840 1.49600
B 	B 	0.67760 0.19890 0.19800 0.07300
B 	B 	0.64160 0.22810 0.20140 0.29800
B 	B 	0.42440 0.39100 0.50380 -0.30900
B 	B 	0.91480 0.61940 0.45440 -0.49600
B 	B 	0.06480 0.17440 0.72140 -0.23300
B 	B 	0.67910 0.95780 0.15000 -0.36300
B 	B 	0.47570 0.12690 0.59460 -1.20300
B 	B 	0.35300 0.00990 0.85900 1.02700
B 	B 	0.12630 0.42020 0.56240 0.62100
B 	B 	0.87370 0.85780 0.43760 0.62100
B 	B 	0.34340 0.45300 0.27860 -0.23400
B 	B 	0.95690 0.50840 0.31200 -0.54100
B 	B 	0.95440 0.57710 0.49840 -0.40900
B 	B 	0.32000 0.04970 0.80840 0.32300
B 	B 	0.64520 0.21800 0.12920 0.28400
B 	B 	0.45600 0.07870 0.50160 -0.40900
B 	B 	0.49130 0.17510 0.60280 0.85500
B 	B 	0.51230 0.91290 0.10400 0.43800
B 	B 	0.35840 0.77190 0.79860 0.29700
B 	B 	0.37210 0.83790 0.90300 0.08400
B 	B 	0.32090 0.80780 0.85000 -0.36700
B 	B 	0.60960 0.16640 0.72200 0.63700
B 	B 	0.54050 0.91810 0.15780 -0.45700
B 	B 	0.35510 0.50840 0.31200 -0.54700
B 	B 	0.90340 0.87090 0.33740 1.03800
H 	H 	0.43270 0.03680 0.91400 0.13000
H 	H 	0.04040 0.18660 0.58000 0.12000
H 	H 	0.81660 0.16550 0.18760 0.06100
H 	H 	0.00620 0.12500 0.47920 -0.46900
H 	H 	0.49200 0.81200 0.92840 -0.19700
H 	H 	0.02080 0.08030 0.59320 0.13600
H 	H 	0.46030 0.89320 0.34420 -0.38300
H 	H 	0.89330 0.96630 0.62840 0.05900
H 	H 	0.65280 0.23460 0.11500 -0.13800
H 	H 	0.00620 0.35420 0.47920 -0.47000
H 	H 	0.56240 0.86000 0.93880 -0.07000
H 	H 	0.40480 0.45940 0.52400 -0.18500
H 	H 	0.42970 0.96810 0.80960 0.11700
H 	H 	0.22950 0.32640 0.12220 0.04900
H 	H 	0.63960 0.24400 0.75840 -0.20400
H 	H 	0.31740 0.89670 0.08900 0.06300
H 	H 	0.62010 0.03190 0.19040 0.11500
H 	H 	0.06610 0.05890 0.56060 -0.36100
H 	H 	0.91060 0.65020 0.45900 0.08200
H 	H 	0.87450 0.14870 0.11380 0.06000
H 	H 	0.88390 0.45100 0.34420 -0.38100
H 	H 	0.29050 0.05240 0.78200 -0.14300
H 	H 	0.50850 0.27040 0.21800 -0.14400
H 	H 	0.77160 0.89670 0.08900 0.06300
H 	H 	0.22840 0.80770 0.91100 0.07100
H 	H 	0.43760 0.92120 0.06120 -0.08500
H 	H 	0.56360 0.88360 0.07160 -0.20700
H 	H 	0.34540 0.87950 0.86600 -0.33400
H 	H 	0.50800 0.18800 0.07160 -0.20600
H 	H 	0.11920 0.45940 0.52400 -0.18500
H 	H 	0.43270 0.87720 0.91400 0.13000
H 	H 	0.37990 0.84150 0.80960 0.11700
H 	H 	0.91060 0.80880 0.45900 0.08200
H 	H 	0.39390 0.73200 0.83860 0.04500
H 	H 	0.53960 0.39340 0.58000 0.12000
H 	H 	0.57030 0.15850 0.19040 0.11600
H 	H 	0.97920 0.91970 0.40680 0.13400
H 	H 	0.58950 0.25280 0.23740 -0.16800
H 	H 	0.47300 0.12500 0.47920 -0.47000
H 	H 	0.52410 0.02870 0.22980 -0.07400
H 	H 	0.91940 0.56390 0.33520 -0.39400
H 	H 	0.60610 0.89340 0.16140 0.04000
H 	H 	0.79300 0.14610 0.77080 0.05300
H 	H 	0.35210 0.74720 0.76260 -0.16700
H 	H 	0.02220 0.85390 0.22920 0.05500
H 	H 	0.10730 0.67360 0.87780 0.05500
H 	H 	0.46730 0.90330 0.46620 0.14800
H 	H 	0.62900 0.83450 0.81240 0.06300
H 	H 	0.85840 0.41570 0.24620 -0.23300
H 	H 	0.11880 0.24400 0.75840 -0.20400
H 	H 	0.68260 0.80770 0.91100 0.07100
H 	H 	0.54840 0.65020 0.45900 0.08200
H 	H 	0.93390 0.94110 0.43940 -0.36200
H 	H 	0.54760 0.19440 0.69740 0.31100
H 	H 	0.34720 0.76540 0.88500 -0.13100
H 	H 	0.32830 0.78090 0.30400 0.09300
H 	H 	0.48130 0.87720 0.91400 0.13000
H 	H 	0.06050 0.59000 0.68740 0.14200
H 	H 	0.97780 0.62470 0.77080 0.04900
H 	H 	0.02080 0.51290 0.59320 0.13600
H 	H 	0.01240 0.47860 0.35100 -0.50200
H 	H 	0.73510 0.96630 0.62840 0.05900
H 	H 	0.63960 0.51440 0.75840 -0.20400
H 	H 	0.97390 0.86240 0.11560 0.05800
H 	H 	0.13450 0.20750 0.63560 -0.32600
H 	H 	0.73510 0.66210 0.62840 0.06000
H 	H 	0.29430 0.79890 0.77020 -0.07600
H 	H 	0.88080 0.54060 0.47600 -0.18500
H 	H 	0.06050 0.09740 0.68740 0.14100
H 	H 	0.18340 0.83450 0.81240 0.06300
H 	H 	0.66250 0.88600 0.63500 0.05800
H 	H 	0.99380 0.87500 0.52080 -0.47000
H 	H 	0.81660 0.02210 0.18760 0.06700
H 	H 	0.54840 0.80880 0.45900 0.08200
H 	H 	0.35210 0.01540 0.76260 -0.16800
H 	H 	0.10730 0.20420 0.87780 0.05500
H 	H 	0.10670 0.03370 0.37160 0.06100
H 	H 	0.70570 0.20110 0.22980 -0.07600
H 	H 	0.36040 0.48560 0.24160 -0.20800
H 	H 	0.52060 0.98650 0.86600 -0.33500
H 	H 	0.52360 0.87290 0.37580 0.23900
H 	H 	0.43760 0.14000 0.06120 -0.08200
H 	H 	0.62690 0.09740 0.68740 0.14000
H 	H 	0.58930 0.58290 0.43000 -0.23300
H 	H 	0.85020 0.49700 0.30260 0.30700
H 	H 	0.53780 0.11960 0.88500 -0.13100
H 	H 	0.51870 0.96320 0.08600 0.12200
H 	H 	0.93950 0.90260 0.31260 0.13600
H 	H 	0.59840 0.15710 0.60120 0.15800
H 	H 	0.04040 0.39340 0.58000 0.12000
H 	H 	0.50110 0.42810 0.63560 -0.32600
H 	H 	0.04030 0.21330 0.25300 0.06300
H 	H 	0.14980 0.19440 0.69740 0.31300
H 	H 	0.46730 0.56290 0.46620 0.14800
H 	H 	0.02430 0.21910 0.69600 0.09700
H 	H 	0.47940 0.01350 0.13400 -0.33400
H 	H 	0.49200 0.11640 0.92840 -0.19700
H 	H 	0.87450 0.96510 0.11380 0.06300
H 	H 	0.97570 0.52310 0.30400 0.09000
H 	H 	0.36040 0.75600 0.24160 -0.20800
H 	H 	0.88080 0.93540 0.47600 -0.18500
H 	H 	0.50550 0.49830 0.43940 -0.36200
H 	H 	0.47940 0.12050 0.13400 -0.33800
H 	H 	0.02290 0.42050 0.46740 0.05500
H 	H 	0.55550 0.57950 0.53260 0.05500
H 	H 	0.58420 0.43610 0.66480 -0.39400
H 	H 	0.93390 0.49830 0.43940 -0.36200
H 	H 	0.97390 0.25320 0.11560 0.05800
H 	H 	0.37100 0.16550 0.18760 0.06100
H 	H 	0.50110 0.20750 0.63560 -0.32600
H 	H 	0.97710 0.57950 0.53260 0.05400
H 	H 	0.58420 0.22870 0.66480 -0.39400
H 	H 	0.45160 0.34980 0.54100 0.08300
H 	H 	0.95970 0.96030 0.74700 0.06300
H 	H 	0.57240 0.51290 0.59320 0.13500
H 	H 	0.52700 0.87500 0.52080 -0.47000
H 	H 	0.23930 0.14870 0.11380 0.06000
H 	H 	0.97780 0.14610 0.77080 0.05000
H 	H 	0.53960 0.18660 0.58000 0.12000
H 	H 	0.70570 0.02870 0.22980 -0.07400
H 	H 	0.86550 0.79250 0.36440 -0.32800
H 	H 	0.46040 0.81340 0.42000 0.11900
H 	H 	0.46040 0.60660 0.42000 0.11900
H 	H 	0.40480 0.06460 0.52400 -0.18500
H 	H 	0.41050 0.74720 0.76260 -0.16700
H 	H 	0.65280 0.88040 0.11500 -0.13700
H 	H 	0.45160 0.19120 0.54100 0.08300
H 	H 	0.49890 0.79250 0.36440 -0.32800
H 	H 	0.59520 0.54060 0.47600 -0.18500
H 	H 	0.11920 0.06460 0.52400 -0.18500
H 	H 	0.47640 0.49710 0.62420 0.24000
H 	H 	0.11610 0.10680 0.65580 -0.38300
H 	H 	0.41070 0.15290 0.57000 -0.23200
H 	H 	0.33750 0.11400 0.36500 0.05800
H 	H 	0.89270 0.79580 0.12220 0.05000
H 	H 	0.88390 0.89320 0.34420 -0.38100
H 	H 	0.58950 0.98460 0.23740 -0.16700
H 	H 	0.58930 0.84710 0.43000 -0.23300
H 	H 	0.56240 0.07880 0.93880 -0.07000
H 	H 	0.02610 0.74680 0.88440 0.06200
H 	H 	0.61220 0.16950 0.75380 -0.23100
H 	H 	0.78730 0.96030 0.74700 0.06400
H 	H 	0.38780 0.83050 0.24620 -0.23300
H 	H 	0.46220 0.88040 0.11500 -0.13700
H 	H 	0.21270 0.03970 0.25300 0.06300
H 	H 	0.61220 0.58430 0.75380 -0.23100
H 	H 	0.02220 0.37530 0.22920 0.05500
H 	H 	0.10670 0.33790 0.37160 0.06000
H 	H 	0.47300 0.35420 0.47920 -0.47000
H 	H 	0.98760 0.12760 0.64900 -0.50800
H 	H 	0.47590 0.79890 0.77020 -0.07600
H 	H 	0.52360 0.50290 0.37580 0.23900
H 	H 	0.97250 0.88600 0.63500 0.05700
H 	H 	0.77050 0.67360 0.87780 0.05600
H 	H 	0.79300 0.62470 0.77080 0.05300
H 	H 	0.49150 0.05240 0.78200 -0.14300
H 	H 	0.29050 0.72960 0.78200 -0.14300
H 	H 	0.95960 0.81340 0.42000 0.11900
H 	H 	0.08940 0.19120 0.54100 0.08300
H 	H 	0.43640 0.11640 0.92840 -0.19700
H 	H 	0.97920 0.48710 0.40680 0.13400
H 	H 	0.62900 0.97790 0.81240 0.06100
H 	H 	0.44470 0.10660 0.83860 0.04500
H 	H 	0.44450 0.04690 0.46740 0.05500
H 	H 	0.14780 0.12710 0.62420 0.24000
H 	H 	0.67170 0.47690 0.69600 0.09500
H 	H 	0.00110 0.43710 0.53380 0.14900
H 	H 	0.02610 0.13760 0.88440 0.06200
H 	H 	0.67170 0.21910 0.69600 0.09500
H 	H 	0.99380 0.64580 0.52080 -0.47000
H 	H 	0.44450 0.42050 0.46740 0.05500
H 	H 	0.56360 0.18800 0.07160 -0.20600
H 	H 	0.70950 0.27040 0.21800 -0.14400
H 	H 	0.14780 0.49710 0.62420 0.24000
H 	H 	0.12550 0.03490 0.88620 0.06600
H 	H 	0.99720 0.55590 0.39880 0.15600
H 	H 	0.26490 0.33790 0.37160 0.06000
H 	H 	0.14160 0.58430 0.75380 -0.23100
H 	H 	0.00280 0.15710 0.60120 0.15800
H 	H 	0.37310 0.90260 0.31260 0.13900
H 	H 	0.48130 0.03680 0.91400 0.13000
H 	H 	0.08940 0.34980 0.54100 0.08300
H 	H 	0.14160 0.16950 0.75380 -0.23100
H 	H 	0.11880 0.51440 0.75840 -0.20400
H 	H 	0.86550 0.57190 0.36440 -0.32800
H 	H 	0.85840 0.83050 0.24620 -0.23300
H 	H 	0.99890 0.90330 0.46620 0.14800
H 	H 	0.47640 0.12710 0.62420 0.24000
H 	H 	0.08060 0.22870 0.66480 -0.39500
H 	H 	0.52060 0.87950 0.86600 -0.33500
H 	H 	0.62690 0.59000 0.68740 0.14000
H 	H 	0.34540 0.98650 0.86600 -0.33500
H 	H 	0.15930 0.15290 0.57000 -0.23200
H 	H 	0.08060 0.43610 0.66480 -0.39500
H 	H 	0.66250 0.74900 0.63500 0.05800
H 	H 	0.56730 0.96320 0.08600 0.12200
H 	H 	0.53970 0.54900 0.65580 -0.38200
H 	H 	0.20700 0.85390 0.22920 0.05000
H 	H 	0.34720 0.11960 0.88500 -0.13100
H 	H 	0.66140 0.12760 0.64900 -0.50600
H 	H 	0.70950 0.94760 0.21800 -0.14600
H 	H 	0.64790 0.25280 0.23740 -0.16800
H 	H 	0.42760 0.91970 0.40680 0.13500
H 	H 	0.76070 0.03490 0.88620 0.06600
H 	H 	0.49890 0.57190 0.36440 -0.32800
H 	H 	0.50800 0.88360 0.07160 -0.20700
H 	H 	0.56730 0.12280 0.08600 0.12200
H 	H 	0.68260 0.10330 0.91100 0.07000
H 	H 	0.02750 0.25100 0.36500 0.05900
H 	H 	0.02430 0.47690 0.69600 0.09700
H 	H 	0.43640 0.81200 0.92840 -0.19700
H 	H 	0.23930 0.96510 0.11380 0.06300
H 	H 	0.37310 0.41000 0.31260 0.13900
H 	H 	0.41070 0.41710 0.57000 -0.23200
H 	H 	0.45240 0.49700 0.30260 0.30900
H 	H 	0.52410 0.20110 0.22980 -0.07600
H 	H 	0.50850 0.94760 0.21800 -0.14600
H 	H 	0.46220 0.23460 0.11500 -0.13800
H 	H 	0.49450 0.05890 0.56060 -0.36200
H 	H 	0.95970 0.78670 0.74700 0.06300
H 	H 	0.59840 0.44410 0.60120 0.15800
H 	H 	0.54760 0.50300 0.69740 0.31100
H 	H 	0.97710 0.95310 0.53260 0.05400
H 	H 	0.49150 0.72960 0.78200 -0.14300
H 	H 	0.37640 0.86000 0.93880 -0.07000
H 	H 	0.50550 0.94110 0.43940 -0.36200
H 	H 	0.62360 0.92120 0.06120 -0.08500
H 	H 	0.14170 0.86240 0.11560 0.05700
H 	H 	0.52700 0.64580 0.52080 -0.47000
H 	H 	0.00110 0.09670 0.53380 0.14900
H 	H 	0.53270 0.09670 0.53380 0.14900
H 	H 	0.65460 0.12050 0.13400 -0.33800
H 	H 	0.85020 0.80560 0.30260 0.30600
H 	H 	0.01240 0.87240 0.35100 -0.50200
H 	H 	0.14980 0.50300 0.69740 0.31300
H 	H 	0.88120 0.48560 0.24160 -0.20700
H 	H 	0.97250 0.74900 0.63500 0.05700
H 	H 	0.98760 0.52140 0.64900 -0.50900
H 	H 	0.06610 0.50170 0.56060 -0.36200
H 	H 	0.37100 0.02210 0.18760 0.06600
H 	H 	0.89270 0.32640 0.12220 0.05000
H 	H 	0.26490 0.03370 0.37160 0.06100
H 	H 	0.02750 0.11400 0.36500 0.05900
H 	H 	0.84070 0.58290 0.43000 -0.23300
H 	H 	0.62360 0.14000 0.06120 -0.08200
H 	H 	0.20700 0.37530 0.22920 0.05000
H 	H 	0.47590 0.97130 0.77020 -0.07700
H 	H 	0.85220 0.50290 0.37580 0.23900
H 	H 	0.62010 0.15850 0.19040 0.11600
H 	H 	0.40160 0.55590 0.39880 0.15700
H 	H 	0.12550 0.85130 0.88620 0.06700
H 	H 	0.53780 0.76540 0.88500 -0.13100
H 	H 	0.39390 0.10660 0.83860 0.04500
H 	H 	0.65460 0.01350 0.13400 -0.33400
H 	H 	0.41050 0.01540 0.76260 -0.16800
H 	H 	0.18340 0.97790 0.81240 0.06200
H 	H 	0.33860 0.87240 0.35100 -0.50600
H 	H 	0.13450 0.42810 0.63560 -0.32600
H 	H 	0.91940 0.77130 0.33520 -0.39400
H 	H 	0.85830 0.74680 0.88440 0.06300
H 	H 	0.29430 0.97130 0.77020 -0.07700
H 	H 	0.51870 0.12280 0.08600 0.12200
H 	H 	0.37990 0.96810 0.80960 0.11700
H 	H 	0.99890 0.56290 0.46620 0.14800
H 	H 	0.93950 0.41000 0.31260 0.13700
H 	H 	0.59520 0.93540 0.47600 -0.18500
H 	H 	0.85830 0.13760 0.88440 0.06300
H 	H 	0.66140 0.52140 0.64900 -0.50600
H 	H 	0.55550 0.95310 0.53260 0.05500
H 	H 	0.22840 0.10330 0.91100 0.07000
H 	H 	0.46030 0.45100 0.34420 -0.38300
H 	H 	0.04030 0.03970 0.25300 0.06400
H 	H 	0.32830 0.52310 0.30400 0.09300
H 	H 	0.45240 0.80560 0.30260 0.30900
H 	H 	0.57030 0.03190 0.19040 0.11500
H 	H 	0.31740 0.19230 0.08900 0.06100
H 	H 	0.97570 0.78090 0.30400 0.09000
H 	H 	0.37640 0.07880 0.93880 -0.07000
H 	H 	0.42970 0.84150 0.80960 0.11700
H 	H 	0.85220 0.87290 0.37580 0.23900
H 	H 	0.99720 0.84290 0.39880 0.15600
H 	H 	0.64790 0.98460 0.23740 -0.16700
H 	H 	0.38780 0.41570 0.24620 -0.23300
H 	H 	0.89330 0.66210 0.62840 0.06000
H 	H 	0.21270 0.21330 0.25300 0.06200
H 	H 	0.22950 0.79580 0.12220 0.04900
H 	H 	0.00280 0.44410 0.60120 0.15800
H 	H 	0.02290 0.04690 0.46740 0.05500
H 	H 	0.49450 0.50170 0.56060 -0.36200
H 	H 	0.42760 0.48710 0.40680 0.13500
H 	H 	0.15930 0.41710 0.57000 -0.23200
H 	H 	0.41580 0.56390 0.33520 -0.39600
H 	H 	0.84070 0.84710 0.43000 -0.23300
H 	H 	0.55530 0.26800 0.16140 0.04100
H 	H 	0.53970 0.10680 0.65580 -0.38200
H 	H 	0.77050 0.20420 0.87780 0.05600
H 	H 	0.44470 0.73200 0.83860 0.04500
H 	H 	0.76070 0.85130 0.88620 0.06700
H 	H 	0.77160 0.19230 0.08900 0.06100
H 	H 	0.78730 0.78670 0.74700 0.06400
H 	H 	0.88120 0.75600 0.24160 -0.20700
H 	H 	0.11610 0.54900 0.65580 -0.38400
H 	H 	0.95960 0.60660 0.42000 0.11900
H 	H 	0.60610 0.26800 0.16140 0.04100
H 	H 	0.53270 0.43710 0.53380 0.14800
H 	H 	0.33750 0.25100 0.36500 0.05800
H 	H 	0.57240 0.08030 0.59320 0.13500
H 	H 	0.33860 0.47860 0.35100 -0.50600
H 	H 	0.14170 0.25320 0.11560 0.05700
H 	H 	0.41580 0.77130 0.33520 -0.39600
H 	H 	0.40160 0.84290 0.39880 0.15700
H 	H 	0.55530 0.89340 0.16140 0.04000
C 	C 	0.17470 0.82760 0.89840 -0.03400
C 	C 	0.00612 0.31532 0.17784 -0.06300
C 	C 	0.50842 0.43282 0.54244 -0.79500
C 	C 	0.41530 0.88650 0.37420 -0.72900
C 	C 	0.82530 0.17240 0.10160 -0.04600
C 	C 	0.05080 0.30840 0.20040 0.37100
C 	C 	0.21180 0.04010 0.86140 0.06200
C 	C 	0.24030 0.17660 0.06480 0.28000
C 	C 	0.26783 0.04413 0.35486 -0.05200
C 	C 	0.68480 0.07600 0.89320 -0.07600
C 	C 	0.64960 0.82130 0.86140 0.06400
C 	C 	0.08100 0.10160 0.46020 0.00200
C 	C 	0.60030 0.47330 0.63200 -0.83700
C 	C 	0.27630 0.17240 0.10160 -0.04500
C 	C 	0.24030 0.88820 0.06480 0.27800
C 	C 	0.95890 0.88650 0.37420 -0.72700
C 	C 	0.23350 0.27620 0.30800 -0.04800
C 	C 	0.99825 0.84835 0.19970 -0.04000
C 	C 	0.92840 0.82840 0.11300 -0.07300
C 	C 	0.73200 0.03570 0.87820 -0.01000
C 	C 	0.92068 0.81338 0.13616 -0.03400
C 	C 	0.04628 0.23598 0.28336 -0.01400
C 	C 	0.51280 0.40750 0.56920 -0.70700
C 	C 	0.58470 0.11350 0.62580 -0.72900
C 	C 	0.00175 0.64865 0.80030 -0.02300
C 	C 	0.17330 0.24570 0.06800 0.31500
C 	C 	0.19220 0.28580 0.28520 0.30400
C 	C 	0.92550 0.96820 0.69200 -0.04900
C 	C 	0.48720 0.59250 0.43080 -0.70700
C 	C 	0.17172 0.86252 0.17784 -0.07100
C 	C 	0.65300 0.91040 0.57600 -0.06300
C 	C 	0.72230 0.92520 0.69540 -0.04600
C 	C 	0.48160 0.84680 0.88640 -0.69300
C 	C 	0.20145 0.35135 0.19970 -0.02800
C 	C 	0.30050 0.81980 0.23960 -0.03000
C 	C 	0.96210 0.74170 0.64980 -0.04700
C 	C 	0.97310 0.77020 0.69540 -0.04700
C 	C 	0.24520 0.03930 0.85160 -0.08000
C 	C 	0.27620 0.80680 0.84880 0.02100
C 	C 	0.30910 0.07520 0.37520 0.02900
C 	C 	0.94920 0.69160 0.79960 0.37400
C 	C 	0.24520 0.81230 0.85160 -0.08000
C 	C 	0.20840 0.07600 0.89320 -0.07700
C 	C 	0.07450 0.03180 0.30800 -0.04500
C 	C 	0.07160 0.17160 0.88700 -0.06900
C 	C 	0.41530 0.48770 0.37420 -0.72900
C 	C 	0.04110 0.11350 0.62580 -0.73000
C 	C 	0.69090 0.92480 0.62480 0.02800
C 	C 	0.96598 0.89038 0.45756 -0.79500
C 	C 	0.88470 0.13880 0.18340 0.33600
C 	C 	0.04110 0.51230 0.62580 -0.73100
C 	C 	0.50842 0.10962 0.54244 -0.79500
C 	C 	0.30360 0.00020 0.15560 -0.03900
C 	C 	0.09300 0.99940 0.28520 0.30300
C 	C 	0.76650 0.72380 0.69200 -0.04700
C 	C 	0.59520 0.15320 0.11360 -0.69200
C 	C 	0.27610 0.18260 0.27180 0.34700
C 	C 	0.78820 0.95990 0.13860 0.06400
C 	C 	0.42740 0.19320 0.15120 0.01500
C 	C 	0.75970 0.11180 0.93520 0.27900
C 	C 	0.92840 0.28460 0.11300 -0.07300
C 	C 	0.72390 0.81740 0.72820 0.34600
C 	C 	0.95372 0.76402 0.71664 -0.01400
C 	C 	0.57260 0.04200 0.84880 0.02100
C 	C 	0.93910 0.81980 0.23960 -0.02900
C 	C 	0.06610 0.07520 0.37520 0.02900
C 	C 	0.94740 0.81800 0.21240 -0.04700
C 	C 	0.62080 0.89840 0.53980 0.00100
C 	C 	0.82670 0.75430 0.93200 0.31200
C 	C 	0.11530 0.86120 0.81660 0.33500
C 	C 	0.82670 0.17770 0.93200 0.31200
C 	C 	0.09300 0.28580 0.28520 0.30400
C 	C 	0.17330 0.82230 0.06800 0.31500
C 	C 	0.30910 0.30000 0.37520 0.02800
C 	C 	0.96830 0.84130 0.36800 -0.83400
C 	C 	0.72230 0.77020 0.69540 -0.04500
C 	C 	0.99570 0.18260 0.27180 0.34600
C 	C 	0.65390 0.83330 0.83600 -0.07100
C 	C 	0.96830 0.52670 0.36800 -0.83500
C 	C 	0.68480 0.81720 0.89320 -0.07800
C 	C 	0.21180 0.82130 0.86140 0.06400
C 	C 	0.62520 0.00020 0.17380 -0.62000
C 	C 	0.72380 0.95800 0.15120 0.01500
C 	C 	0.39360 0.96070 0.14840 -0.08400
C 	C 	0.40480 0.03960 0.88640 -0.69200
C 	C 	0.03170 0.47330 0.63200 -0.83800
C 	C 	0.26500 0.81800 0.21240 -0.04400
C 	C 	0.49158 0.56718 0.45756 -0.79500
C 	C 	0.18460 0.28460 0.11300 -0.07600
C 	C 	0.05080 0.89200 0.20040 0.37100
C 	C 	0.96959 0.27969 0.13218 0.00200
C 	C 	0.95890 0.48770 0.37420 -0.72700
C 	C 	0.03041 0.72031 0.86782 0.00900
C 	C 	0.76650 0.96820 0.69200 -0.04900
C 	C 	0.21548 0.32278 0.13616 -0.02900
C 	C 	0.70130 0.86120 0.81660 0.33500
C 	C 	0.23708 0.23598 0.28336 -0.01400
C 	C 	0.05640 0.40750 0.56920 -0.70700
C 	C 	0.99388 0.13748 0.82216 -0.07000
C 	C 	0.69640 0.84460 0.84440 -0.04300
C 	C 	0.45140 0.82640 0.82620 -0.62800
C 	C 	0.91297 0.95587 0.64514 -0.05100
C 	C 	0.94360 0.83830 0.43080 -0.70700
C 	C 	0.97310 0.92520 0.69540 -0.04800
C 	C 	0.68770 0.74170 0.64980 -0.04800
C 	C 	0.92300 0.91040 0.57600 -0.06300
C 	C 	0.59520 0.96040 0.11360 -0.69300
C 	C 	0.60640 0.81230 0.85160 -0.08000
C 	C 	0.95660 0.35570 0.18140 0.01500
C 	C 	0.69950 0.58020 0.76040 -0.02700
C 	C 	0.91900 0.89840 0.53980 0.00100
C 	C 	0.03402 0.43282 0.54244 -0.79500
C 	C 	0.07700 0.33440 0.42400 -0.06300
C 	C 	0.21548 0.81338 0.13616 -0.02900
C 	C 	0.82450 0.17660 0.06480 0.28000
C 	C 	0.80780 0.00060 0.71480 0.30500
C 	C 	0.03790 0.09190 0.35020 -0.04800
C 	C 	0.65300 0.66560 0.57600 -0.06300
C 	C 	0.51840 0.96040 0.11360 -0.69300
C 	C 	0.82828 0.13748 0.82216 -0.06500
C 	C 	0.17550 0.11180 0.93520 0.27800
C 	C 	0.26800 0.96430 0.12180 -0.01900
C 	C 	0.16259 0.27969 0.13218 0.00800
C 	C 	0.07932 0.18662 0.86384 -0.03000
C 	C 	0.78452 0.18662 0.86384 -0.03200
C 	C 	0.14620 0.84250 0.87820 -0.01400
C 	C 	0.81540 0.71540 0.88700 -0.06700
C 	C 	0.85200 0.00020 0.15560 -0.03700
C 	C 	0.79855 0.15165 0.80030 -0.03100
C 	C 	0.65390 0.00270 0.83600 -0.06700
C 	C 	0.69640 0.99980 0.84440 -0.04600
C 	C 	0.72370 0.07080 0.89840 -0.03600
C 	C 	0.48160 0.03960 0.88640 -0.69200
C 	C 	0.27770 0.22980 0.30460 -0.04600
C 	C 	0.29870 0.13880 0.18340 0.33600
C 	C 	0.18460 0.82840 0.11300 -0.07600
C 	C 	0.68770 0.90810 0.64980 -0.04700
C 	C 	0.99825 0.35135 0.19970 -0.03800
C 	C 	0.51840 0.15320 0.11360 -0.69200
C 	C 	0.81540 0.17160 0.88700 -0.06700
C 	C 	0.93390 0.70000 0.62480 0.02800
C 	C 	0.05260 0.60560 0.78760 -0.04000
C 	C 	0.03402 0.10962 0.54244 -0.79500
C 	C 	0.75480 0.18770 0.14840 -0.08100
C 	C 	0.08703 0.31073 0.35486 -0.05200
C 	C 	0.54860 0.00020 0.17380 -0.62000
C 	C 	0.82450 0.88820 0.06480 0.27800
C 	C 	0.72380 0.19320 0.15120 0.01500
C 	C 	0.76292 0.76402 0.71664 -0.01400
C 	C 	0.73200 0.84250 0.87820 -0.01400
C 	C 	0.75970 0.82340 0.93520 0.27800
C 	C 	0.60640 0.03930 0.85160 -0.07900
C 	C 	0.05260 0.18200 0.78760 -0.04100
C 	C 	0.79855 0.64865 0.80030 -0.03100
C 	C 	0.30360 0.15540 0.15560 -0.05000
C 	C 	0.95372 0.95262 0.71664 -0.01300
C 	C 	0.93390 0.92480 0.62480 0.02700
C 	C 	0.70130 0.95540 0.81660 0.33600
C 	C 	0.00612 0.86252 0.17784 -0.06200
C 	C 	0.20145 0.84835 0.19970 -0.02800
C 	C 	0.26500 0.39440 0.21240 -0.04400
C 	C 	0.83741 0.14751 0.86782 0.00500
C 	C 	0.85380 0.96430 0.12180 -0.02000
C 	C 	0.03790 0.25830 0.35020 -0.04800
C 	C 	0.89470 0.82230 0.06800 0.31300
C 	C 	0.20840 0.81720 0.89320 -0.07800
C 	C 	0.91297 0.68927 0.64514 -0.05100
C 	C 	0.72390 0.91080 0.72820 0.34700
C 	C 	0.37920 0.10160 0.46020 0.00200
C 	C 	0.82530 0.92920 0.10160 -0.03800
C 	C 	0.88470 0.04460 0.18340 0.33200
C 	C 	0.60030 0.15870 0.63200 -0.83700
C 	C 	0.39360 0.18770 0.14840 -0.08100
C 	C 	0.85040 0.10800 0.79960 0.37200
C 	C 	0.57260 0.80680 0.84880 0.02100
C 	C 	0.35040 0.95990 0.13860 0.06300
C 	C 	0.42740 0.95800 0.15120 0.01500
C 	C 	0.18210 0.83330 0.83600 -0.07100
C 	C 	0.94360 0.59250 0.43080 -0.70700
C 	C 	0.93910 0.41980 0.23960 -0.02900
C 	C 	0.07450 0.27620 0.30800 -0.04800
C 	C 	0.22480 0.35570 0.18140 0.01000
C 	C 	0.73500 0.18200 0.78760 -0.04200
C 	C 	0.54860 0.17360 0.17380 -0.62900
C 	C 	0.85200 0.15540 0.15560 -0.05000
C 	C 	0.73217 0.95587 0.64514 -0.05100
C 	C 	0.27770 0.07480 0.30460 -0.04500
C 	C 	0.02690 0.22980 0.30460 -0.04400
C 	C 	0.80780 0.71420 0.71480 0.30400
C 	C 	0.92068 0.32278 0.13616 -0.03300
C 	C 	0.96959 0.85249 0.13218 0.00100
C 	C 	0.34610 0.99730 0.16400 -0.08100
C 	C 	0.27630 0.92920 0.10160 -0.03900
C 	C 	0.85040 0.69160 0.79960 0.37200
C 	C 	0.31520 0.92400 0.10680 -0.08100
C 	C 	0.62080 0.64140 0.53980 0.00100
C 	C 	0.04340 0.64430 0.81860 0.01200
C 	C 	0.06610 0.30000 0.37520 0.02900
C 	C 	0.27610 0.08920 0.27180 0.34700
C 	C 	0.26800 0.15750 0.12180 -0.00800
C 	C 	0.19220 0.99940 0.28520 0.30200
C 	C 	0.22480 0.82570 0.18140 0.01000
C 	C 	0.34700 0.08960 0.42400 -0.06300
C 	C 	0.06090 0.18020 0.76040 -0.02700
C 	C 	0.76292 0.95262 0.71664 -0.01400
C 	C 	0.37480 0.99980 0.82620 -0.63000
C 	C 	0.14800 0.84460 0.84440 -0.04300
C 	C 	0.31230 0.09190 0.35020 -0.04800
C 	C 	0.77520 0.64430 0.81860 0.01600
C 	C 	0.58470 0.51230 0.62580 -0.72900
C 	C 	0.96598 0.56718 0.45756 -0.79500
C 	C 	0.40480 0.84680 0.88640 -0.69300
C 	C 	0.04628 0.04738 0.28336 -0.01500
C 	C 	0.51280 0.16170 0.56920 -0.70700
C 	C 	0.10530 0.75430 0.93200 0.31300
C 	C 	0.85380 0.15750 0.12180 -0.00800
C 	C 	0.83741 0.72031 0.86782 0.00500
C 	C 	0.89470 0.24570 0.06800 0.31400
C 	C 	0.27620 0.04200 0.84880 0.02100
C 	C 	0.79160 0.18280 0.10680 -0.07300
C 	C 	0.73217 0.68927 0.64514 -0.05200
C 	C 	0.08703 0.04413 0.35486 -0.05200
C 	C 	0.64960 0.04010 0.86140 0.06100
C 	C 	0.95660 0.82570 0.18140 0.01500
C 	C 	0.07932 0.67722 0.86384 -0.02900
C 	C 	0.99388 0.68468 0.82216 -0.07200
C 	C 	0.14800 0.99980 0.84440 -0.04400
C 	C 	0.23350 0.03180 0.30800 -0.04600
C 	C 	0.81790 0.99730 0.16400 -0.08300
C 	C 	0.29870 0.04460 0.18340 0.33300
C 	C 	0.26783 0.31073 0.35486 -0.05100
C 	C 	0.14960 0.89200 0.20040 0.37400
C 	C 	0.07160 0.71540 0.88700 -0.06900
C 	C 	0.77520 0.17430 0.81860 0.01600
C 	C 	0.75480 0.96070 0.14840 -0.08500
C 	C 	0.16259 0.85249 0.13218 0.00800
C 	C 	0.31520 0.18280 0.10680 -0.07400
C 	C 	0.14620 0.03570 0.87820 -0.01200
C 	C 	0.90700 0.00060 0.71480 0.30500
C 	C 	0.69090 0.70000 0.62480 0.02800
C 	C 	0.78820 0.17870 0.13860 0.05500
C 	C 	0.99570 0.08920 0.27180 0.34600
C 	C 	0.18210 0.00270 0.83600 -0.06900
C 	C 	0.39970 0.52670 0.36800 -0.83600
C 	C 	0.49158 0.89038 0.45756 -0.79500
C 	C 	0.10530 0.17770 0.93200 0.31300
C 	C 	0.17172 0.31532 0.17784 -0.07100
C 	C 	0.37480 0.82640 0.82620 -0.62800
C 	C 	0.73500 0.60560 0.78760 -0.04200
C 	C 	0.92300 0.66560 0.57600 -0.06300
C 	C 	0.94740 0.39440 0.21240 -0.04600
C 	C 	0.78452 0.67722 0.86384 -0.03200
C 	C 	0.03170 0.15870 0.63200 -0.83800
C 	C 	0.02690 0.07480 0.30460 -0.04400
C 	C 	0.90700 0.71420 0.71480 0.30400
C 	C 	0.00430 0.91080 0.72820 0.34800
C 	C 	0.14960 0.30840 0.20040 0.37400
C 	C 	0.34610 0.16670 0.16400 -0.06800
C 	C 	0.96210 0.90810 0.64980 -0.04700
C 	C 	0.17470 0.07080 0.89840 -0.03500
C 	C 	0.23708 0.04738 0.28336 -0.01500
C 	C 	0.69950 0.18020 0.76040 -0.02700
C 	C 	0.45140 0.99980 0.82620 -0.63000
C 	C 	0.07700 0.08960 0.42400 -0.06300
C 	C 	0.08100 0.35860 0.46020 0.00200
C 	C 	0.62520 0.17360 0.17380 -0.62900
C 	C 	0.91900 0.64140 0.53980 0.00100
C 	C 	0.17550 0.82340 0.93520 0.27800
C 	C 	0.39970 0.84130 0.36800 -0.83600
C 	C 	0.06090 0.58020 0.76040 -0.02800
C 	C 	0.30050 0.41980 0.23960 -0.03000
C 	C 	0.04340 0.17430 0.81860 0.01300
C 	C 	0.82828 0.68468 0.82216 -0.06500
C 	C 	0.34700 0.33440 0.42400 -0.06300
C 	C 	0.72370 0.82760 0.89840 -0.03400
C 	C 	0.48720 0.83830 0.43080 -0.70700
C 	C 	0.94920 0.10800 0.79960 0.37400
C 	C 	0.37920 0.35860 0.46020 0.00200
C 	C 	0.92550 0.72380 0.69200 -0.04800
C 	C 	0.79160 0.92400 0.10680 -0.08200
C 	C 	0.81790 0.16670 0.16400 -0.06800
C 	C 	0.05640 0.16170 0.56920 -0.70700
C 	C 	0.31230 0.25830 0.35020 -0.04700
C 	C 	0.00430 0.81740 0.72820 0.34800
C 	C 	0.11530 0.95540 0.81660 0.33500
C 	C 	0.03041 0.14751 0.86782 0.00800
C 	C 	0.00175 0.15165 0.80030 -0.02500
C 	C 	0.35040 0.17870 0.13860 0.05500
O 	O 	0.84332 0.65942 0.76324 -0.42900
O 	O 	0.80109 0.84407 0.95078 -0.34100
O 	O 	0.09273 0.87903 0.83128 -0.40100
O 	O 	0.14925 0.21054 0.04908 -0.41200
O 	O 	0.14969 0.84407 0.95078 -0.34100
O 	O 	0.11099 0.92450 0.77740 -0.40400
O 	O 	0.10017 0.16146 0.95092 -0.39000
O 	O 	0.09273 0.95225 0.83128 -0.40100
O 	O 	0.87486 0.09482 0.82344 -0.40900
O 	O 	0.33359 0.07550 0.22260 -0.40400
O 	O 	0.75761 0.80576 0.95552 -0.38700
O 	O 	0.11611 0.98346 0.30852 -0.38100
O 	O 	0.24578 0.15253 0.23746 -0.44300
O 	O 	0.85075 0.78946 0.95092 -0.38900
O 	O 	0.91992 0.10382 0.76324 -0.42900
O 	O 	0.83990 0.74617 0.75444 -0.39300
O 	O 	0.19891 0.89329 0.04922 -0.36200
O 	O 	0.88901 0.14710 0.22260 -0.40500
O 	O 	0.73855 0.87903 0.83128 -0.40100
O 	O 	0.90727 0.04775 0.16872 -0.40400
O 	O 	0.16010 0.25383 0.24556 -0.39500
O 	O 	0.97606 0.18433 0.29446 -0.38600
O 	O 	0.26145 0.12097 0.16872 -0.40500
O 	O 	0.80209 0.85024 0.04448 -0.41100
O 	O 	0.02394 0.81567 0.70554 -0.38500
O 	O 	0.68160 0.81567 0.70554 -0.38500
O 	O 	0.08546 0.25383 0.24556 -0.39500
O 	O 	0.00832 0.91507 0.76254 -0.44100
O 	O 	0.80759 0.01654 0.69148 -0.38100
O 	O 	0.91454 0.00827 0.75444 -0.39400
O 	O 	0.85031 0.89329 0.04922 -0.36300
O 	O 	0.83990 0.00827 0.75444 -0.39300
O 	O 	0.88389 0.67494 0.69148 -0.38100
O 	O 	0.91992 0.65942 0.76324 -0.43000
O 	O 	0.94858 0.72862 0.82344 -0.41000
O 	O 	0.19891 0.15593 0.04922 -0.36200
O 	O 	0.80405 0.20136 0.94998 -0.35900
O 	O 	0.24578 0.08493 0.23746 -0.44300
O 	O 	0.80759 0.67494 0.69148 -0.38100
O 	O 	0.19595 0.79864 0.05002 -0.38100
O 	O 	0.91454 0.74617 0.75444 -0.39400
O 	O 	0.15668 0.89618 0.23676 -0.43100
O 	O 	0.24239 0.85024 0.04448 -0.41100
O 	O 	0.66641 0.92450 0.77740 -0.40400
O 	O 	0.99168 0.08493 0.23746 -0.44300
O 	O 	0.88901 0.07550 0.22260 -0.40400
O 	O 	0.89983 0.83854 0.04908 -0.41200
O 	O 	0.85407 0.79864 0.05002 -0.38100
O 	O 	0.14593 0.20136 0.94998 -0.35900
O 	O 	0.10017 0.78946 0.95092 -0.38900
O 	O 	0.19241 0.98346 0.30852 -0.38100
O 	O 	0.12514 0.90518 0.17656 -0.41400
O 	O 	0.97606 0.11013 0.29446 -0.38600
O 	O 	0.68160 0.88987 0.70554 -0.38600
O 	O 	0.26145 0.04775 0.16872 -0.40400
O 	O 	0.19241 0.32506 0.30852 -0.38100
O 	O 	0.89983 0.21054 0.04908 -0.41200
O 	O 	0.85031 0.15593 0.04922 -0.36200
O 	O 	0.19791 0.80576 0.95552 -0.38700
O 	O 	0.15668 0.34058 0.23676 -0.43100
O 	O 	0.02394 0.88987 0.70554 -0.38500
O 	O 	0.00832 0.84747 0.76254 -0.44100
O 	O 	0.05142 0.27138 0.17656 -0.41300
O 	O 	0.11099 0.85290 0.77740 -0.40400
O 	O 	0.05142 0.90518 0.17656 -0.41300
O 	O 	0.85407 0.25138 0.05002 -0.38100
O 	O 	0.80405 0.74862 0.94998 -0.35800
O 	O 	0.08008 0.34058 0.23676 -0.43000
O 	O 	0.31840 0.18433 0.29446 -0.38500
O 	O 	0.08008 0.89618 0.23676 -0.43000
O 	O 	0.19595 0.25138 0.05002 -0.38100
O 	O 	0.75422 0.84747 0.76254 -0.44100
O 	O 	0.73855 0.95225 0.83128 -0.40100
O 	O 	0.08546 0.99173 0.24556 -0.39500
O 	O 	0.94858 0.09482 0.82344 -0.41000
O 	O 	0.24239 0.19424 0.04448 -0.41100
O 	O 	0.19791 0.14976 0.95552 -0.38800
O 	O 	0.85075 0.16146 0.95092 -0.39000
O 	O 	0.80109 0.10671 0.95078 -0.34100
O 	O 	0.33359 0.14710 0.22260 -0.40500
O 	O 	0.84332 0.10382 0.76324 -0.42900
O 	O 	0.75422 0.91507 0.76254 -0.44100
O 	O 	0.12514 0.27138 0.17656 -0.41400
O 	O 	0.90727 0.12097 0.16872 -0.40600
O 	O 	0.11611 0.32506 0.30852 -0.38100
O 	O 	0.87486 0.72862 0.82344 -0.41000
O 	O 	0.99168 0.15253 0.23746 -0.44300
O 	O 	0.14925 0.83854 0.04908 -0.41200
O 	O 	0.75761 0.14976 0.95552 -0.38700
O 	O 	0.14969 0.10671 0.95078 -0.34100
O 	O 	0.88389 0.01654 0.69148 -0.38100
O 	O 	0.31840 0.11013 0.29446 -0.38500
O 	O 	0.14593 0.74862 0.94998 -0.35900
O 	O 	0.66641 0.85290 0.77740 -0.40400
O 	O 	0.16010 0.99173 0.24556 -0.39500
O 	O 	0.80209 0.19424 0.04448 -0.41100
