data_crystal

_cell_length_a 13.81640
_cell_length_b 27.99870
_cell_length_c 44.15890
_cell_angle_alpha 90.00000
_cell_angle_beta  90.00000
_cell_angle_gamma 90.00000

_symmetry_space_group_name_	'P 1'
_symmetry_space_group_name_H-M	'P 1'

loop_
_symmetry_equiv_pos_as_xyz
  x,y,z

loop_
_atom_site_label
_atom_site_type_symbol
_atom_site_fract_x
_atom_site_fract_y
_atom_site_fract_z
_atom_site_charge
Zn	Zn	0.13888 0.54794 0.91065 1.16400
Zn	Zn	0.18873 0.73851 0.17895 1.16400
Zn	Zn	0.38149 0.52451 0.08659 1.16300
Zn	Zn	0.86112 0.95206 0.41065 1.16400
Zn	Zn	0.81127 0.76149 0.67895 1.16400
Zn	Zn	0.61851 0.97549 0.58659 1.16300
Zn	Zn	0.63888 0.45206 0.58935 1.16400
Zn	Zn	0.68873 0.26149 0.32105 1.16400
Zn	Zn	0.88149 0.47549 0.41341 1.16300
Zn	Zn	0.36112 0.04794 0.08935 1.16400
Zn	Zn	0.31127 0.23851 0.82105 1.16400
Zn	Zn	0.11851 0.02451 0.91341 1.16300
H 	H 	0.21920 0.68650 0.12180 -0.01400
H 	H 	0.13410 0.64750 0.08390 0.07700
H 	H 	0.98070 0.70990 0.16770 -0.01400
H 	H 	0.88800 0.66940 0.13150 0.08400
H 	H 	0.54000 0.57540 0.12000 -0.00800
H 	H 	0.69940 0.59980 0.11340 0.09800
H 	H 	0.51970 0.53630 0.03450 -0.00500
H 	H 	0.67680 0.56310 0.02510 0.08900
H 	H 	0.95210 0.52760 0.94190 -0.01400
H 	H 	0.87320 0.54830 0.98660 0.09000
H 	H 	0.20150 0.57320 0.97460 -0.00400
H 	H 	0.12920 0.59420 0.02000 0.07900
H 	H 	0.12050 0.65320 0.93000 -0.01300
H 	H 	0.08890 0.72690 0.90850 0.07600
H 	H 	0.05750 0.58640 0.85390 -0.01100
H 	H 	0.02950 0.65790 0.82950 0.07700
H 	H 	0.93270 0.70430 0.72170 0.00400
H 	H 	0.99770 0.71040 0.77050 0.07700
H 	H 	0.85810 0.83980 0.72210 -0.01000
H 	H 	0.92650 0.85160 0.77010 0.07600
H 	H 	0.05400 0.98740 0.85350 -0.01100
H 	H 	0.02400 0.91620 0.82840 0.08000
H 	H 	0.10980 0.91930 0.92930 -0.01000
H 	H 	0.08620 0.84620 0.90620 0.08000
H 	H 	0.78080 0.81350 0.62180 -0.01200
H 	H 	0.86590 0.85250 0.58390 0.07800
H 	H 	0.01930 0.79010 0.66770 -0.01100
H 	H 	0.11200 0.83060 0.63150 0.08400
H 	H 	0.46000 0.92460 0.62000 -0.00700
H 	H 	0.30060 0.90020 0.61340 0.09900
H 	H 	0.48030 0.96370 0.53450 -0.00400
H 	H 	0.32320 0.93690 0.52510 0.09000
H 	H 	0.04790 0.97240 0.44190 -0.01300
H 	H 	0.12680 0.95170 0.48660 0.09200
H 	H 	0.79850 0.92680 0.47460 -0.00300
H 	H 	0.87080 0.90580 0.52000 0.08000
H 	H 	0.87950 0.84680 0.43000 -0.01200
H 	H 	0.91110 0.77310 0.40850 0.07700
H 	H 	0.94250 0.91360 0.35390 -0.01000
H 	H 	0.97050 0.84210 0.32950 0.07800
H 	H 	0.06730 0.79570 0.22170 0.00500
H 	H 	0.00230 0.78960 0.27050 0.07800
H 	H 	0.14190 0.66020 0.22210 -0.00900
H 	H 	0.07350 0.64840 0.27010 0.07800
H 	H 	0.94600 0.51260 0.35350 -0.01100
H 	H 	0.97600 0.58380 0.32840 0.08100
H 	H 	0.89020 0.58070 0.42930 -0.01000
H 	H 	0.91380 0.65380 0.40620 0.08000
H 	H 	0.71920 0.31350 0.37820 -0.01300
H 	H 	0.63410 0.35250 0.41610 0.07800
H 	H 	0.48070 0.29010 0.33230 -0.01200
H 	H 	0.38800 0.33060 0.36850 0.08500
H 	H 	0.04000 0.42460 0.38000 -0.00700
H 	H 	0.19940 0.40020 0.38660 0.09900
H 	H 	0.01970 0.46370 0.46550 -0.00400
H 	H 	0.17680 0.43690 0.47490 0.09000
H 	H 	0.45210 0.47240 0.55810 -0.01300
H 	H 	0.37320 0.45170 0.51340 0.09100
H 	H 	0.70150 0.42680 0.52540 -0.00300
H 	H 	0.62920 0.40580 0.48000 0.08000
H 	H 	0.62050 0.34680 0.57000 -0.01200
H 	H 	0.58890 0.27310 0.59150 0.07700
H 	H 	0.55750 0.41360 0.64610 -0.01000
H 	H 	0.52950 0.34210 0.67050 0.07800
H 	H 	0.43270 0.29570 0.77830 0.00500
H 	H 	0.49770 0.28960 0.72950 0.07800
H 	H 	0.35810 0.16020 0.77790 -0.00900
H 	H 	0.42650 0.14840 0.72990 0.07800
H 	H 	0.55400 0.01260 0.64650 -0.01100
H 	H 	0.52400 0.08380 0.67160 0.08100
H 	H 	0.60980 0.08070 0.57070 -0.01000
H 	H 	0.58620 0.15380 0.59380 0.08000
H 	H 	0.28080 0.18650 0.87820 -0.01300
H 	H 	0.36590 0.14750 0.91610 0.07800
H 	H 	0.51930 0.20990 0.83230 -0.01200
H 	H 	0.61200 0.16940 0.86850 0.08500
H 	H 	0.96000 0.07540 0.88000 -0.00700
H 	H 	0.80060 0.09980 0.88660 0.09900
H 	H 	0.98030 0.03630 0.96550 -0.00400
H 	H 	0.82320 0.06310 0.97490 0.09000
H 	H 	0.54790 0.02760 0.05810 -0.01300
H 	H 	0.62680 0.04830 0.01340 0.09100
H 	H 	0.29850 0.07320 0.02540 -0.00300
H 	H 	0.37080 0.09420 0.98000 0.08000
H 	H 	0.37950 0.15320 0.07000 -0.01200
H 	H 	0.41110 0.22690 0.09150 0.07700
H 	H 	0.44250 0.08640 0.14610 -0.01000
H 	H 	0.47050 0.15790 0.17050 0.07800
H 	H 	0.56730 0.20430 0.27830 0.00500
H 	H 	0.50230 0.21040 0.22950 0.07800
H 	H 	0.64190 0.33980 0.27790 -0.00900
H 	H 	0.57350 0.35160 0.22990 0.07800
H 	H 	0.44600 0.48740 0.14650 -0.01100
H 	H 	0.47600 0.41620 0.17160 0.08100
H 	H 	0.39020 0.41930 0.07070 -0.01000
H 	H 	0.41380 0.34620 0.09380 0.08000
C 	C 	0.15100 0.68350 0.12367 0.07300
C 	C 	0.10070 0.65990 0.10101 -0.11300
C 	C 	0.01200 0.69680 0.15045 0.07300
C 	C 	0.95580 0.67290 0.12886 -0.12000
C 	C 	0.00130 0.65460 0.10356 0.06100
C 	C 	0.94680 0.62910 0.08000 0.10300
C 	C 	0.56870 0.57240 0.10056 0.07900
C 	C 	0.66360 0.58720 0.09687 -0.13100
C 	C 	0.55630 0.55000 0.05052 0.06800
C 	C 	0.65030 0.56510 0.04489 -0.12200
C 	C 	0.70470 0.58320 0.06857 0.05400
C 	C 	0.80850 0.59600 0.06351 0.09100
C 	C 	0.98770 0.54240 0.95768 0.06400
C 	C 	0.94050 0.55430 0.98434 -0.12100
C 	C 	0.13360 0.56900 0.97683 0.06700
C 	C 	0.09130 0.58150 0.00401 -0.11600
C 	C 	0.99240 0.57490 0.00745 0.05500
C 	C 	0.94240 0.59040 0.03549 0.09600
C 	C 	0.10190 0.65450 0.90929 0.06800
C 	C 	0.08410 0.69860 0.89669 -0.11600
C 	C 	0.06590 0.61530 0.86483 0.05500
C 	C 	0.04840 0.65760 0.85015 -0.11100
C 	C 	0.05880 0.70050 0.86631 0.04700
C 	C 	0.04290 0.74660 0.85029 0.10600
C 	C 	0.93030 0.73410 0.73196 0.05300
C 	C 	0.96980 0.73750 0.76093 -0.10400
C 	C 	0.88740 0.81350 0.73208 0.06300
C 	C 	0.92700 0.82090 0.76091 -0.10900
C 	C 	0.96740 0.78150 0.77560 0.04300
C 	C 	0.00260 0.78510 0.80743 0.10700
C 	C 	0.06020 0.95820 0.86425 0.07300
C 	C 	0.04310 0.91600 0.84903 -0.11500
C 	C 	0.09340 0.91850 0.90846 0.07300
C 	C 	0.07900 0.87480 0.89486 -0.11500
C 	C 	0.05430 0.87290 0.86474 0.05500
C 	C 	0.04070 0.82630 0.84918 0.10300
C 	C 	0.84900 0.81650 0.62367 0.07200
C 	C 	0.89930 0.84010 0.60101 -0.11100
C 	C 	0.98800 0.80320 0.65045 0.06900
C 	C 	0.04420 0.82710 0.62886 -0.11500
C 	C 	0.99870 0.84540 0.60356 0.05700
C 	C 	0.05320 0.87090 0.58000 0.10500
C 	C 	0.43130 0.92760 0.60056 0.07900
C 	C 	0.33640 0.91280 0.59687 -0.13100
C 	C 	0.44370 0.95000 0.55052 0.06800
C 	C 	0.34970 0.93490 0.54489 -0.12200
C 	C 	0.29530 0.91680 0.56857 0.05400
C 	C 	0.19150 0.90400 0.56351 0.09100
C 	C 	0.01230 0.95760 0.45768 0.06600
C 	C 	0.05950 0.94570 0.48434 -0.12200
C 	C 	0.86640 0.93100 0.47683 0.06800
C 	C 	0.90870 0.91850 0.50401 -0.11800
C 	C 	0.00760 0.92510 0.50745 0.05700
C 	C 	0.05760 0.90960 0.53549 0.09500
C 	C 	0.89810 0.84550 0.40929 0.06700
C 	C 	0.91590 0.80140 0.39669 -0.11600
C 	C 	0.93410 0.88470 0.36483 0.05500
C 	C 	0.95160 0.84240 0.35015 -0.11100
C 	C 	0.94120 0.79950 0.36631 0.04700
C 	C 	0.95710 0.75340 0.35029 0.10600
C 	C 	0.06970 0.76590 0.23196 0.05300
C 	C 	0.03020 0.76250 0.26093 -0.10400
C 	C 	0.11260 0.68650 0.23208 0.06300
C 	C 	0.07300 0.67910 0.26091 -0.11000
C 	C 	0.03260 0.71850 0.27560 0.04400
C 	C 	0.99740 0.71490 0.30743 0.10600
C 	C 	0.93980 0.54180 0.36425 0.07300
C 	C 	0.95690 0.58400 0.34903 -0.11500
C 	C 	0.90660 0.58150 0.40846 0.07300
C 	C 	0.92100 0.62520 0.39486 -0.11600
C 	C 	0.94570 0.62710 0.36474 0.05500
C 	C 	0.95930 0.67370 0.34918 0.10300
C 	C 	0.65100 0.31650 0.37633 0.07300
C 	C 	0.60070 0.34010 0.39899 -0.11300
C 	C 	0.51200 0.30320 0.34955 0.07200
C 	C 	0.45580 0.32710 0.37114 -0.11900
C 	C 	0.50130 0.34540 0.39644 0.06100
C 	C 	0.44680 0.37090 0.42000 0.10300
C 	C 	0.06870 0.42760 0.39944 0.07900
C 	C 	0.16360 0.41280 0.40313 -0.13100
C 	C 	0.05630 0.45000 0.44948 0.06800
C 	C 	0.15030 0.43490 0.45511 -0.12200
C 	C 	0.20470 0.41680 0.43143 0.05400
C 	C 	0.30850 0.40400 0.43649 0.09100
C 	C 	0.48770 0.45760 0.54232 0.06500
C 	C 	0.44050 0.44570 0.51566 -0.12100
C 	C 	0.63360 0.43100 0.52317 0.06700
C 	C 	0.59130 0.41850 0.49599 -0.11600
C 	C 	0.49240 0.42510 0.49255 0.05500
C 	C 	0.44240 0.40960 0.46451 0.09600
C 	C 	0.60190 0.34550 0.59071 0.06800
C 	C 	0.58410 0.30140 0.60331 -0.11600
C 	C 	0.56590 0.38470 0.63517 0.05500
C 	C 	0.54840 0.34240 0.64985 -0.11000
C 	C 	0.55880 0.29950 0.63369 0.04700
C 	C 	0.54290 0.25340 0.64971 0.10600
C 	C 	0.43030 0.26590 0.76804 0.05300
C 	C 	0.46980 0.26250 0.73907 -0.10400
C 	C 	0.38740 0.18650 0.76792 0.06300
C 	C 	0.42700 0.17910 0.73909 -0.11000
C 	C 	0.46740 0.21850 0.72440 0.04400
C 	C 	0.50260 0.21490 0.69257 0.10700
C 	C 	0.56020 0.04180 0.63575 0.07300
C 	C 	0.54310 0.08400 0.65097 -0.11500
C 	C 	0.59340 0.08150 0.59154 0.07300
C 	C 	0.57900 0.12520 0.60514 -0.11500
C 	C 	0.55430 0.12710 0.63526 0.05500
C 	C 	0.54070 0.17370 0.65082 0.10300
C 	C 	0.34900 0.18350 0.87633 0.07300
C 	C 	0.39930 0.15990 0.89899 -0.11300
C 	C 	0.48800 0.19680 0.84955 0.07200
C 	C 	0.54420 0.17290 0.87114 -0.11900
C 	C 	0.49870 0.15460 0.89644 0.06100
C 	C 	0.55320 0.12910 0.92000 0.10300
C 	C 	0.93130 0.07240 0.89944 0.07900
C 	C 	0.83640 0.08720 0.90313 -0.13100
C 	C 	0.94370 0.05000 0.94948 0.06800
C 	C 	0.84970 0.06510 0.95511 -0.12200
C 	C 	0.79530 0.08320 0.93143 0.05400
C 	C 	0.69150 0.09600 0.93649 0.09100
C 	C 	0.51230 0.04240 0.04232 0.06500
C 	C 	0.55950 0.05430 0.01566 -0.12100
C 	C 	0.36640 0.06900 0.02317 0.06700
C 	C 	0.40870 0.08150 0.99599 -0.11600
C 	C 	0.50760 0.07490 0.99255 0.05500
C 	C 	0.55760 0.09040 0.96451 0.09600
C 	C 	0.39810 0.15450 0.09071 0.06700
C 	C 	0.41590 0.19860 0.10331 -0.11600
C 	C 	0.43410 0.11530 0.13517 0.05500
C 	C 	0.45160 0.15760 0.14985 -0.11000
C 	C 	0.44120 0.20050 0.13369 0.04700
C 	C 	0.45710 0.24660 0.14971 0.10600
C 	C 	0.56970 0.23410 0.26804 0.05300
C 	C 	0.53020 0.23750 0.23907 -0.10400
C 	C 	0.61260 0.31350 0.26792 0.06300
C 	C 	0.57300 0.32090 0.23909 -0.11000
C 	C 	0.53260 0.28150 0.22440 0.04400
C 	C 	0.49740 0.28510 0.19257 0.10700
C 	C 	0.43980 0.45820 0.13575 0.07300
C 	C 	0.45690 0.41600 0.15097 -0.11500
C 	C 	0.40660 0.41850 0.09154 0.07300
C 	C 	0.42100 0.37480 0.10514 -0.11600
C 	C 	0.44570 0.37290 0.13526 0.05500
C 	C 	0.45930 0.32630 0.15082 0.10300
I 	I 	0.32302 0.55387 0.91426 -0.38000
I 	I 	0.05450 0.48370 0.88030 -0.36500
I 	I 	0.18645 0.82736 0.16598 -0.37100
I 	I 	0.35109 0.69646 0.18473 -0.37200
I 	I 	0.29857 0.57358 0.12687 -0.37100
I 	I 	0.30483 0.50822 0.03472 -0.39100
I 	I 	0.67698 0.94613 0.41426 -0.38000
I 	I 	0.94550 0.01630 0.38030 -0.36400
I 	I 	0.81355 0.67264 0.66598 -0.37100
I 	I 	0.64891 0.80354 0.68473 -0.37200
I 	I 	0.70143 0.92642 0.62687 -0.37100
I 	I 	0.69517 0.99178 0.53472 -0.39100
I 	I 	0.82302 0.44613 0.58574 -0.38000
I 	I 	0.55450 0.51630 0.61970 -0.36500
I 	I 	0.68645 0.17264 0.33402 -0.37100
I 	I 	0.85109 0.30354 0.31527 -0.37100
I 	I 	0.79857 0.42642 0.37313 -0.37100
I 	I 	0.80483 0.49178 0.46528 -0.39100
I 	I 	0.17698 0.05387 0.08574 -0.38100
I 	I 	0.44550 0.98370 0.11970 -0.36500
I 	I 	0.31355 0.32736 0.83402 -0.37100
I 	I 	0.14891 0.19646 0.81527 -0.37200
I 	I 	0.20143 0.07358 0.87313 -0.37100
I 	I 	0.19517 0.00822 0.96528 -0.39100
N 	N 	0.10820 0.70210 0.14786 -0.27600
N 	N 	0.51570 0.55409 0.07820 -0.27100
N 	N 	0.08300 0.55135 0.95351 -0.27400
N 	N 	0.85140 0.62220 0.08493 -0.13300
N 	N 	0.84900 0.57960 0.03856 -0.14400
N 	N 	0.99530 0.61458 0.05580 -0.14000
N 	N 	0.09470 0.61283 0.89394 -0.27200
N 	N 	0.88890 0.77150 0.71808 -0.27000
N 	N 	0.08520 0.95977 0.89342 -0.26900
N 	N 	0.01660 0.74320 0.82133 -0.14200
N 	N 	0.01340 0.82765 0.81990 -0.14000
N 	N 	0.05630 0.78709 0.86520 -0.14200
N 	N 	0.89180 0.79790 0.64786 -0.27500
N 	N 	0.48430 0.94591 0.57820 -0.27100
N 	N 	0.91700 0.94865 0.45351 -0.27400
N 	N 	0.14860 0.87780 0.58493 -0.13400
N 	N 	0.15100 0.92040 0.53856 -0.14400
N 	N 	0.00470 0.88542 0.55580 -0.14000
N 	N 	0.90530 0.88717 0.39394 -0.27300
N 	N 	0.11110 0.72850 0.21808 -0.27000
N 	N 	0.91480 0.54023 0.39342 -0.26900
N 	N 	0.98340 0.75680 0.32133 -0.14200
N 	N 	0.98660 0.67235 0.31990 -0.14000
N 	N 	0.94370 0.71291 0.36520 -0.14200
N 	N 	0.60820 0.29790 0.35214 -0.27600
N 	N 	0.01570 0.44591 0.42180 -0.27100
N 	N 	0.58300 0.44865 0.54649 -0.27400
N 	N 	0.35140 0.37780 0.41507 -0.13300
N 	N 	0.34900 0.42040 0.46144 -0.14400
N 	N 	0.49530 0.38542 0.44420 -0.14000
N 	N 	0.59470 0.38717 0.60606 -0.27200
N 	N 	0.38890 0.22850 0.78192 -0.27000
N 	N 	0.58520 0.04023 0.60658 -0.26900
N 	N 	0.51660 0.25680 0.67867 -0.14200
N 	N 	0.51340 0.17235 0.68010 -0.14000
N 	N 	0.55630 0.21291 0.63480 -0.14200
N 	N 	0.39180 0.20210 0.85214 -0.27600
N 	N 	0.98430 0.05409 0.92180 -0.27100
N 	N 	0.41700 0.05135 0.04649 -0.27400
N 	N 	0.64860 0.12220 0.91507 -0.13300
N 	N 	0.65100 0.07960 0.96144 -0.14400
N 	N 	0.50470 0.11458 0.94420 -0.14000
N 	N 	0.40530 0.11283 0.10606 -0.27200
N 	N 	0.61110 0.27150 0.28192 -0.27000
N 	N 	0.41480 0.45977 0.10658 -0.26900
N 	N 	0.48340 0.24320 0.17867 -0.14200
N 	N 	0.48660 0.32765 0.18010 -0.14000
N 	N 	0.44370 0.28709 0.13480 -0.14200
Zn	Zn	0.86112 0.45206 0.08935 1.16500
Zn	Zn	0.81127 0.26149 0.82105 1.16500
Zn	Zn	0.61851 0.47549 0.91341 1.16400
Zn	Zn	0.13888 0.04794 0.58935 1.16500
Zn	Zn	0.18873 0.23851 0.32105 1.16500
Zn	Zn	0.38149 0.02451 0.41341 1.16400
Zn	Zn	0.36112 0.54794 0.41065 1.16500
Zn	Zn	0.31127 0.73851 0.67895 1.16500
Zn	Zn	0.11851 0.52451 0.58659 1.16400
Zn	Zn	0.63888 0.95206 0.91065 1.16500
Zn	Zn	0.68873 0.76149 0.17895 1.16500
Zn	Zn	0.88149 0.97549 0.08659 1.16400
H 	H 	0.78080 0.31350 0.87820 -0.01300
H 	H 	0.86590 0.35250 0.91610 0.07800
H 	H 	0.01930 0.29010 0.83230 -0.01300
H 	H 	0.11200 0.33060 0.86850 0.08500
H 	H 	0.46000 0.42460 0.88000 -0.00700
H 	H 	0.30060 0.40020 0.88660 0.09900
H 	H 	0.48030 0.46370 0.96550 -0.00400
H 	H 	0.32320 0.43690 0.97490 0.09000
H 	H 	0.04790 0.47240 0.05810 -0.01300
H 	H 	0.12680 0.45170 0.01340 0.09100
H 	H 	0.79850 0.42680 0.02540 -0.00300
H 	H 	0.87080 0.40580 0.98000 0.08000
H 	H 	0.87950 0.34680 0.07000 -0.01200
H 	H 	0.91110 0.27310 0.09150 0.07700
H 	H 	0.94250 0.41360 0.14610 -0.01000
H 	H 	0.97050 0.34210 0.17050 0.07800
H 	H 	0.06730 0.29570 0.27830 0.00500
H 	H 	0.00230 0.28960 0.22950 0.07800
H 	H 	0.14190 0.16020 0.27790 -0.00900
H 	H 	0.07350 0.14840 0.22990 0.07700
H 	H 	0.94600 0.01260 0.14650 -0.01000
H 	H 	0.97600 0.08380 0.17160 0.08100
H 	H 	0.89020 0.08070 0.07070 -0.01000
H 	H 	0.91380 0.15380 0.09380 0.08000
H 	H 	0.21920 0.18650 0.37820 -0.01200
H 	H 	0.13410 0.14750 0.41610 0.07800
H 	H 	0.98070 0.20990 0.33230 -0.01100
H 	H 	0.88800 0.16940 0.36850 0.08400
H 	H 	0.54000 0.07540 0.38000 -0.00700
H 	H 	0.69940 0.09980 0.38660 0.09900
H 	H 	0.51970 0.03630 0.46550 -0.00400
H 	H 	0.67680 0.06310 0.47490 0.09000
H 	H 	0.95210 0.02760 0.55810 -0.01300
H 	H 	0.87320 0.04830 0.51340 0.09200
H 	H 	0.20150 0.07320 0.52540 -0.00300
H 	H 	0.12920 0.09420 0.48000 0.08000
H 	H 	0.12050 0.15320 0.57000 -0.01200
H 	H 	0.08890 0.22690 0.59150 0.07700
H 	H 	0.05750 0.08640 0.64610 -0.01000
H 	H 	0.02950 0.15790 0.67050 0.07800
H 	H 	0.93270 0.20430 0.77830 0.00500
H 	H 	0.99770 0.21040 0.72950 0.07800
H 	H 	0.85810 0.33980 0.77790 -0.00900
H 	H 	0.92650 0.35160 0.72990 0.07800
H 	H 	0.05400 0.48740 0.64650 -0.01100
H 	H 	0.02400 0.41620 0.67160 0.08100
H 	H 	0.10980 0.41930 0.57070 -0.01000
H 	H 	0.08620 0.34620 0.59380 0.08000
H 	H 	0.28080 0.68650 0.62180 -0.01300
H 	H 	0.36590 0.64750 0.58390 0.07800
H 	H 	0.51930 0.70990 0.66770 -0.01200
H 	H 	0.61200 0.66940 0.63150 0.08500
H 	H 	0.96000 0.57540 0.62000 -0.00700
H 	H 	0.80060 0.59980 0.61340 0.09900
H 	H 	0.98030 0.53630 0.53450 -0.00400
H 	H 	0.82320 0.56310 0.52510 0.09000
H 	H 	0.54790 0.52760 0.44190 -0.01300
H 	H 	0.62680 0.54830 0.48660 0.09100
H 	H 	0.29850 0.57320 0.47460 -0.00300
H 	H 	0.37080 0.59420 0.52000 0.08000
H 	H 	0.37950 0.65320 0.43000 -0.01200
H 	H 	0.41110 0.72690 0.40850 0.07700
H 	H 	0.44250 0.58640 0.35390 -0.01000
H 	H 	0.47050 0.65790 0.32950 0.07800
H 	H 	0.56730 0.70430 0.22170 0.00500
H 	H 	0.50230 0.71040 0.27050 0.07800
H 	H 	0.64190 0.83980 0.22210 -0.00900
H 	H 	0.57350 0.85160 0.27010 0.07800
H 	H 	0.44600 0.98740 0.35350 -0.01100
H 	H 	0.47600 0.91620 0.32840 0.08100
H 	H 	0.39020 0.91930 0.42930 -0.01000
H 	H 	0.41380 0.84620 0.40620 0.08000
H 	H 	0.71920 0.81350 0.12180 -0.01300
H 	H 	0.63410 0.85250 0.08390 0.07800
H 	H 	0.48070 0.79010 0.16770 -0.01200
H 	H 	0.38800 0.83060 0.13150 0.08500
H 	H 	0.04000 0.92460 0.12000 -0.00700
H 	H 	0.19940 0.90020 0.11340 0.09900
H 	H 	0.01970 0.96370 0.03450 -0.00400
H 	H 	0.17680 0.93690 0.02510 0.09000
H 	H 	0.45210 0.97240 0.94190 -0.01300
H 	H 	0.37320 0.95170 0.98660 0.09100
H 	H 	0.70150 0.92680 0.97460 -0.00300
H 	H 	0.62920 0.90580 0.02000 0.08000
H 	H 	0.62050 0.84680 0.93000 -0.01200
H 	H 	0.58890 0.77310 0.90850 0.07700
H 	H 	0.55750 0.91360 0.85390 -0.01000
H 	H 	0.52950 0.84210 0.82950 0.07800
H 	H 	0.43270 0.79570 0.72170 0.00500
H 	H 	0.49770 0.78960 0.77050 0.07800
H 	H 	0.35810 0.66020 0.72210 -0.00900
H 	H 	0.42650 0.64840 0.77010 0.07800
H 	H 	0.55400 0.51260 0.85350 -0.01100
H 	H 	0.52400 0.58380 0.82840 0.08100
H 	H 	0.60980 0.58070 0.92930 -0.01000
H 	H 	0.58620 0.65380 0.90620 0.08000
C 	C 	0.84900 0.31650 0.87633 0.07300
C 	C 	0.89930 0.34010 0.89899 -0.11300
C 	C 	0.98800 0.30320 0.84955 0.07300
C 	C 	0.04420 0.32710 0.87114 -0.12000
C 	C 	0.99870 0.34540 0.89644 0.06100
C 	C 	0.05320 0.37090 0.92000 0.10300
C 	C 	0.43130 0.42760 0.89944 0.07900
C 	C 	0.33640 0.41280 0.90313 -0.13100
C 	C 	0.44370 0.45000 0.94948 0.06800
C 	C 	0.34970 0.43490 0.95511 -0.12200
C 	C 	0.29530 0.41680 0.93143 0.05400
C 	C 	0.19150 0.40400 0.93649 0.09100
C 	C 	0.01230 0.45760 0.04232 0.06400
C 	C 	0.05950 0.44570 0.01566 -0.12100
C 	C 	0.86640 0.43100 0.02317 0.06700
C 	C 	0.90870 0.41850 0.99599 -0.11600
C 	C 	0.00760 0.42510 0.99255 0.05500
C 	C 	0.05760 0.40960 0.96451 0.09600
C 	C 	0.89810 0.34550 0.09071 0.06800
C 	C 	0.91590 0.30140 0.10331 -0.11600
C 	C 	0.93410 0.38470 0.13517 0.05500
C 	C 	0.95160 0.34240 0.14985 -0.11100
C 	C 	0.94120 0.29950 0.13369 0.04700
C 	C 	0.95710 0.25340 0.14971 0.10600
C 	C 	0.06970 0.26590 0.26804 0.05300
C 	C 	0.03020 0.26250 0.23907 -0.10400
C 	C 	0.11260 0.18650 0.26792 0.06300
C 	C 	0.07300 0.17910 0.23909 -0.10900
C 	C 	0.03260 0.21850 0.22440 0.04300
C 	C 	0.99740 0.21490 0.19257 0.10700
C 	C 	0.93980 0.04180 0.13575 0.07300
C 	C 	0.95690 0.08400 0.15097 -0.11500
C 	C 	0.90660 0.08150 0.09154 0.07300
C 	C 	0.92100 0.12520 0.10514 -0.11500
C 	C 	0.94570 0.12710 0.13526 0.05500
C 	C 	0.95930 0.17370 0.15082 0.10300
C 	C 	0.15100 0.18350 0.37633 0.07200
C 	C 	0.10070 0.15990 0.39899 -0.11100
C 	C 	0.01200 0.19680 0.34955 0.06900
C 	C 	0.95580 0.17290 0.37114 -0.11500
C 	C 	0.00130 0.15460 0.39644 0.05700
C 	C 	0.94680 0.12910 0.42000 0.10500
C 	C 	0.56870 0.07240 0.39944 0.07900
C 	C 	0.66360 0.08720 0.40313 -0.13100
C 	C 	0.55630 0.05000 0.44948 0.06800
C 	C 	0.65030 0.06510 0.45511 -0.12200
C 	C 	0.70470 0.08320 0.43143 0.05400
C 	C 	0.80850 0.09600 0.43649 0.09100
C 	C 	0.98770 0.04240 0.54232 0.06600
C 	C 	0.94050 0.05430 0.51566 -0.12200
C 	C 	0.13360 0.06900 0.52317 0.06800
C 	C 	0.09130 0.08150 0.49599 -0.11800
C 	C 	0.99240 0.07490 0.49255 0.05700
C 	C 	0.94240 0.09040 0.46451 0.09500
C 	C 	0.10190 0.15450 0.59071 0.06700
C 	C 	0.08410 0.19860 0.60331 -0.11600
C 	C 	0.06590 0.11530 0.63517 0.05500
C 	C 	0.04840 0.15760 0.64985 -0.11100
C 	C 	0.05880 0.20050 0.63369 0.04700
C 	C 	0.04290 0.24660 0.64971 0.10600
C 	C 	0.93030 0.23410 0.76804 0.05300
C 	C 	0.96980 0.23750 0.73907 -0.10400
C 	C 	0.88740 0.31350 0.76792 0.06300
C 	C 	0.92700 0.32090 0.73909 -0.11000
C 	C 	0.96740 0.28150 0.72440 0.04400
C 	C 	0.00260 0.28510 0.69257 0.10600
C 	C 	0.06020 0.45820 0.63575 0.07300
C 	C 	0.04310 0.41600 0.65097 -0.11500
C 	C 	0.09340 0.41850 0.59154 0.07300
C 	C 	0.07900 0.37480 0.60514 -0.11600
C 	C 	0.05430 0.37290 0.63526 0.05500
C 	C 	0.04070 0.32630 0.65082 0.10300
C 	C 	0.34900 0.68350 0.62367 0.07300
C 	C 	0.39930 0.65990 0.60101 -0.11300
C 	C 	0.48800 0.69680 0.65045 0.07200
C 	C 	0.54420 0.67290 0.62886 -0.11900
C 	C 	0.49870 0.65460 0.60356 0.06100
C 	C 	0.55320 0.62910 0.58000 0.10300
C 	C 	0.93130 0.57240 0.60056 0.07900
C 	C 	0.83640 0.58720 0.59687 -0.13100
C 	C 	0.94370 0.55000 0.55052 0.06800
C 	C 	0.84970 0.56510 0.54489 -0.12200
C 	C 	0.79530 0.58320 0.56857 0.05400
C 	C 	0.69150 0.59600 0.56351 0.09100
C 	C 	0.51230 0.54240 0.45768 0.06500
C 	C 	0.55950 0.55430 0.48434 -0.12100
C 	C 	0.36640 0.56900 0.47683 0.06700
C 	C 	0.40870 0.58150 0.50401 -0.11600
C 	C 	0.50760 0.57490 0.50745 0.05500
C 	C 	0.55760 0.59040 0.53549 0.09600
C 	C 	0.39810 0.65450 0.40929 0.06800
C 	C 	0.41590 0.69860 0.39669 -0.11600
C 	C 	0.43410 0.61530 0.36483 0.05500
C 	C 	0.45160 0.65760 0.35015 -0.11000
C 	C 	0.44120 0.70050 0.36631 0.04700
C 	C 	0.45710 0.74660 0.35029 0.10600
C 	C 	0.56970 0.73410 0.23196 0.05300
C 	C 	0.53020 0.73750 0.26093 -0.10400
C 	C 	0.61260 0.81350 0.23208 0.06300
C 	C 	0.57300 0.82090 0.26091 -0.11000
C 	C 	0.53260 0.78150 0.27560 0.04400
C 	C 	0.49740 0.78510 0.30743 0.10700
C 	C 	0.43980 0.95820 0.36425 0.07300
C 	C 	0.45690 0.91600 0.34903 -0.11500
C 	C 	0.40660 0.91850 0.40846 0.07300
C 	C 	0.42100 0.87480 0.39486 -0.11500
C 	C 	0.44570 0.87290 0.36474 0.05500
C 	C 	0.45930 0.82630 0.34918 0.10300
C 	C 	0.65100 0.81650 0.12367 0.07300
C 	C 	0.60070 0.84010 0.10101 -0.11300
C 	C 	0.51200 0.80320 0.15045 0.07200
C 	C 	0.45580 0.82710 0.12886 -0.11900
C 	C 	0.50130 0.84540 0.10356 0.06100
C 	C 	0.44680 0.87090 0.08000 0.10300
C 	C 	0.06870 0.92760 0.10056 0.07900
C 	C 	0.16360 0.91280 0.09687 -0.13100
C 	C 	0.05630 0.95000 0.05052 0.06800
C 	C 	0.15030 0.93490 0.04489 -0.12200
C 	C 	0.20470 0.91680 0.06857 0.05400
C 	C 	0.30850 0.90400 0.06351 0.09100
C 	C 	0.48770 0.95760 0.95768 0.06500
C 	C 	0.44050 0.94570 0.98434 -0.12100
C 	C 	0.63360 0.93100 0.97683 0.06700
C 	C 	0.59130 0.91850 0.00401 -0.11600
C 	C 	0.49240 0.92510 0.00745 0.05500
C 	C 	0.44240 0.90960 0.03549 0.09600
C 	C 	0.60190 0.84550 0.90929 0.06700
C 	C 	0.58410 0.80140 0.89669 -0.11600
C 	C 	0.56590 0.88470 0.86483 0.05500
C 	C 	0.54840 0.84240 0.85015 -0.11000
C 	C 	0.55880 0.79950 0.86631 0.04700
C 	C 	0.54290 0.75340 0.85029 0.10600
C 	C 	0.43030 0.76590 0.73196 0.05300
C 	C 	0.46980 0.76250 0.76093 -0.10400
C 	C 	0.38740 0.68650 0.73208 0.06300
C 	C 	0.42700 0.67910 0.76091 -0.11000
C 	C 	0.46740 0.71850 0.77560 0.04400
C 	C 	0.50260 0.71490 0.80743 0.10700
C 	C 	0.56020 0.54180 0.86425 0.07300
C 	C 	0.54310 0.58400 0.84903 -0.11500
C 	C 	0.59340 0.58150 0.90846 0.07300
C 	C 	0.57900 0.62520 0.89486 -0.11600
C 	C 	0.55430 0.62710 0.86474 0.05500
C 	C 	0.54070 0.67370 0.84918 0.10300
I 	I 	0.67698 0.44613 0.08574 -0.38000
I 	I 	0.94550 0.51630 0.11970 -0.36500
I 	I 	0.81355 0.17264 0.83402 -0.37100
I 	I 	0.64891 0.30354 0.81527 -0.37200
I 	I 	0.70143 0.42642 0.87313 -0.37100
I 	I 	0.69517 0.49178 0.96528 -0.39100
I 	I 	0.32302 0.05387 0.58574 -0.38000
I 	I 	0.05450 0.98370 0.61970 -0.36400
I 	I 	0.18645 0.32736 0.33402 -0.37100
I 	I 	0.35109 0.19646 0.31527 -0.37200
I 	I 	0.29857 0.07358 0.37313 -0.37100
I 	I 	0.30483 0.00822 0.46528 -0.39100
I 	I 	0.17698 0.55387 0.41426 -0.38000
I 	I 	0.44550 0.48370 0.38030 -0.36500
I 	I 	0.31355 0.82736 0.66598 -0.37100
I 	I 	0.14891 0.69646 0.68473 -0.37100
I 	I 	0.20143 0.57358 0.62687 -0.37100
I 	I 	0.19517 0.50822 0.53472 -0.39100
I 	I 	0.82302 0.94613 0.91426 -0.38100
I 	I 	0.55450 0.01630 0.88030 -0.36500
I 	I 	0.68645 0.67264 0.16598 -0.37100
I 	I 	0.85109 0.80354 0.18473 -0.37200
I 	I 	0.79857 0.92642 0.12687 -0.37100
I 	I 	0.80483 0.99178 0.03472 -0.39100
N 	N 	0.89180 0.29790 0.85214 -0.27600
N 	N 	0.48430 0.44591 0.92180 -0.27100
N 	N 	0.91700 0.44865 0.04649 -0.27400
N 	N 	0.14860 0.37780 0.91507 -0.13300
N 	N 	0.15100 0.42040 0.96144 -0.14400
N 	N 	0.00470 0.38542 0.94420 -0.14000
N 	N 	0.90530 0.38717 0.10606 -0.27200
N 	N 	0.11110 0.22850 0.28192 -0.27000
N 	N 	0.91480 0.04023 0.10658 -0.26900
N 	N 	0.98340 0.25680 0.17867 -0.14200
N 	N 	0.98660 0.17235 0.18010 -0.14000
N 	N 	0.94370 0.21291 0.13480 -0.14200
N 	N 	0.10820 0.20210 0.35214 -0.27500
N 	N 	0.51570 0.05409 0.42180 -0.27100
N 	N 	0.08300 0.05135 0.54649 -0.27400
N 	N 	0.85140 0.12220 0.41507 -0.13400
N 	N 	0.84900 0.07960 0.46144 -0.14400
N 	N 	0.99530 0.11458 0.44420 -0.14000
N 	N 	0.09470 0.11283 0.60606 -0.27300
N 	N 	0.88890 0.27150 0.78192 -0.27000
N 	N 	0.08520 0.45977 0.60658 -0.26900
N 	N 	0.01660 0.24320 0.67867 -0.14200
N 	N 	0.01340 0.32765 0.68010 -0.14000
N 	N 	0.05630 0.28709 0.63480 -0.14200
N 	N 	0.39180 0.70210 0.64786 -0.27600
N 	N 	0.98430 0.55409 0.57820 -0.27100
N 	N 	0.41700 0.55135 0.45351 -0.27400
N 	N 	0.64860 0.62220 0.58493 -0.13300
N 	N 	0.65100 0.57960 0.53856 -0.14400
N 	N 	0.50470 0.61458 0.55580 -0.14000
N 	N 	0.40530 0.61283 0.39394 -0.27200
N 	N 	0.61110 0.77150 0.21808 -0.27000
N 	N 	0.41480 0.95977 0.39342 -0.26900
N 	N 	0.48340 0.74320 0.32133 -0.14200
N 	N 	0.48660 0.82765 0.31990 -0.14000
N 	N 	0.44370 0.78709 0.36520 -0.14200
N 	N 	0.60820 0.79790 0.14786 -0.27600
N 	N 	0.01570 0.94591 0.07820 -0.27100
N 	N 	0.58300 0.94865 0.95351 -0.27400
N 	N 	0.35140 0.87780 0.08493 -0.13300
N 	N 	0.34900 0.92040 0.03856 -0.14400
N 	N 	0.49530 0.88542 0.05580 -0.14000
N 	N 	0.59470 0.88717 0.89394 -0.27200
N 	N 	0.38890 0.72850 0.71808 -0.27000
N 	N 	0.58520 0.54023 0.89342 -0.26900
N 	N 	0.51660 0.75680 0.82133 -0.14200
N 	N 	0.51340 0.67235 0.81990 -0.14000
N 	N 	0.55630 0.71291 0.86520 -0.14200
