data_crystal

_cell_length_a 14.82810
_cell_length_b 6.48720
_cell_length_c 11.35030
_cell_angle_alpha 90.00000
_cell_angle_beta  90.00000
_cell_angle_gamma 90.00000

_symmetry_space_group_name_	'P 1'
_symmetry_space_group_name_H-M	'P 1'

loop_
_symmetry_equiv_pos_as_xyz
  x,y,z

loop_
_atom_site_label
_atom_site_type_symbol
_atom_site_fract_x
_atom_site_fract_y
_atom_site_fract_z
_atom_site_charge
C 	C 	0.66500 0.58640 0.66570 0.06200
N 	N 	0.59880 0.64120 0.59600 -0.31200
C 	C 	0.16500 0.08640 0.16570 -0.13100
N 	N 	0.09880 0.14120 0.09600 -0.42300
C 	C 	0.33500 0.91360 0.66570 0.18400
N 	N 	0.40120 0.85880 0.59600 -0.27900
C 	C 	0.83500 0.41360 0.16570 0.06100
N 	N 	0.90120 0.35880 0.09600 -0.32900
C 	C 	0.33500 0.08640 0.33430 -0.09100
N 	N 	0.40120 0.14120 0.40400 -0.35800
C 	C 	0.83500 0.58640 0.83430 0.11600
N 	N 	0.90120 0.64120 0.90400 -0.20400
C 	C 	0.66500 0.41360 0.33430 0.06000
N 	N 	0.59880 0.35880 0.40400 -0.33100
C 	C 	0.16500 0.91360 0.83430 0.20300
N 	N 	0.09880 0.85880 0.90400 -0.22800
C 	C 	0.33500 0.41360 0.33430 0.04600
N 	N 	0.40120 0.35880 0.40400 -0.33200
C 	C 	0.83500 0.91360 0.83430 0.24600
N 	N 	0.90120 0.85880 0.90400 -0.17200
C 	C 	0.66500 0.08640 0.33430 -0.07600
N 	N 	0.59880 0.14120 0.40400 -0.35600
C 	C 	0.16500 0.58640 0.83430 0.06800
N 	N 	0.09880 0.64120 0.90400 -0.26200
C 	C 	0.66500 0.91360 0.66570 0.19500
N 	N 	0.59880 0.85880 0.59600 -0.27800
C 	C 	0.16500 0.41360 0.16570 0.00500
N 	N 	0.09880 0.35880 0.09600 -0.39900
C 	C 	0.33500 0.58640 0.66570 0.04700
N 	N 	0.40120 0.64120 0.59600 -0.31400
C 	C 	0.83500 0.08640 0.16570 -0.07400
N 	N 	0.90120 0.14120 0.09600 -0.35300
Ga	Ga	0.50000 0.50000 0.50000 2.04100
Ga	Ga	-0.00000 0.00000 -0.00000 1.91600
Ga	Ga	0.50000 0.00000 0.50000 1.99600
Ga	Ga	-0.00000 0.50000 -0.00000 1.96100
C 	C 	0.71171 0.75000 0.71120 -0.01100
C 	C 	0.21171 0.25000 0.21120 -0.04600
C 	C 	0.28829 0.75000 0.71120 -0.02600
C 	C 	0.78829 0.25000 0.21120 -0.05200
C 	C 	0.28829 0.25000 0.28880 -0.06400
C 	C 	0.78829 0.75000 0.78880 -0.03800
C 	C 	0.71171 0.25000 0.28880 -0.04600
C 	C 	0.21171 0.75000 0.78880 -0.03500
O 	O 	0.50000 0.25000 0.58720 -0.93100
O 	O 	-0.00000 0.75000 0.08720 -0.98200
O 	O 	0.50000 0.75000 0.41280 -0.79600
O 	O 	0.00000 0.25000 0.91280 -0.87800
