data_crystal

_cell_length_a 18.60000
_cell_length_b 18.60000
_cell_length_c 18.60000
_cell_angle_alpha 60.00000
_cell_angle_beta  60.00000
_cell_angle_gamma 60.00000

_symmetry_space_group_name_	'P 1'
_symmetry_space_group_name_H-M	'P 1'

loop_
_symmetry_equiv_pos_as_xyz
  x,y,z

loop_
_atom_site_label
_atom_site_type_symbol
_atom_site_fract_x
_atom_site_fract_y
_atom_site_fract_z
_atom_site_charge
Cu	Cu	0.50000 0.07028 0.92972 0.89900
Cu	Cu	0.07028 0.50000 0.50000 0.90700
Cu	Cu	0.92972 0.50000 0.50000 0.90700
Cu	Cu	0.50000 0.92972 0.07028 0.89000
Cu	Cu	0.50000 0.92972 0.50000 0.90500
Cu	Cu	0.07028 0.50000 0.92972 0.90500
Cu	Cu	0.92972 0.50000 0.07028 0.90700
Cu	Cu	0.50000 0.07028 0.50000 0.90800
Cu	Cu	0.50000 0.50000 0.07028 0.90700
Cu	Cu	0.07028 0.92972 0.50000 0.90400
Cu	Cu	0.92972 0.07028 0.50000 0.90700
Cu	Cu	0.50000 0.50000 0.92972 0.90600
H 	H 	0.22710 0.01070 0.22710 0.05700
H 	H 	0.01070 0.22710 0.53510 0.04500
H 	H 	0.22710 0.53510 0.22710 0.04700
H 	H 	0.53510 0.22710 0.01070 0.04600
H 	H 	0.22710 0.22710 0.53510 0.04600
H 	H 	0.01070 0.53510 0.22710 0.04600
H 	H 	0.22710 0.22710 0.01070 0.07200
H 	H 	0.53510 0.01070 0.22710 0.05200
H 	H 	0.22710 0.53510 0.01070 0.04600
H 	H 	0.01070 0.22710 0.22710 0.05800
H 	H 	0.22710 0.01070 0.53510 0.04800
H 	H 	0.53510 0.22710 0.22710 0.04600
H 	H 	0.98930 0.77290 0.77290 0.04800
H 	H 	0.77290 0.98930 0.46490 0.04400
H 	H 	0.46490 0.77290 0.77290 0.04900
H 	H 	0.77290 0.46490 0.98930 0.04700
H 	H 	0.77290 0.77290 0.46490 0.04900
H 	H 	0.46490 0.98930 0.77290 0.04400
H 	H 	0.77290 0.77290 0.98930 0.05300
H 	H 	0.98930 0.46490 0.77290 0.04600
H 	H 	0.46490 0.77290 0.98930 0.05000
H 	H 	0.77290 0.98930 0.77290 0.04600
H 	H 	0.98930 0.77290 0.46490 0.04700
H 	H 	0.77290 0.46490 0.77290 0.04700
C 	C 	0.33694 0.06810 0.06810 0.04800
C 	C 	0.24220 0.11180 0.11180 0.00700
C 	C 	0.06810 0.33694 0.52686 0.36300
C 	C 	0.11180 0.24220 0.53420 -0.11100
C 	C 	0.06810 0.52686 0.33694 0.36200
C 	C 	0.11180 0.53420 0.24220 -0.11000
C 	C 	0.52686 0.06810 0.06810 0.36400
C 	C 	0.53420 0.11180 0.11180 -0.11000
C 	C 	0.33694 0.06810 0.52686 0.37600
C 	C 	0.24220 0.11180 0.53420 -0.11400
C 	C 	0.06810 0.52686 0.06810 0.35300
C 	C 	0.11180 0.53420 0.11180 -0.10800
C 	C 	0.06810 0.33694 0.06810 0.33300
C 	C 	0.11180 0.24220 0.11180 -0.06800
C 	C 	0.52686 0.06810 0.33694 0.37500
C 	C 	0.53420 0.11180 0.24220 -0.11200
C 	C 	0.33694 0.52686 0.06810 0.36600
C 	C 	0.24220 0.53420 0.11180 -0.11000
C 	C 	0.06810 0.06810 0.33694 0.34200
C 	C 	0.11180 0.11180 0.24220 -0.06800
C 	C 	0.06810 0.06810 0.52686 0.36400
C 	C 	0.11180 0.11180 0.53420 -0.11100
C 	C 	0.52686 0.33694 0.06810 0.36700
C 	C 	0.53420 0.24220 0.11180 -0.11100
C 	C 	0.93190 0.66306 0.93190 0.33700
C 	C 	0.88820 0.75780 0.88820 -0.09600
C 	C 	0.66306 0.93190 0.47314 0.34900
C 	C 	0.75780 0.88820 0.46580 -0.10500
C 	C 	0.47314 0.93190 0.66306 0.34900
C 	C 	0.46580 0.88820 0.75780 -0.10400
C 	C 	0.93190 0.47314 0.93190 0.34700
C 	C 	0.88820 0.46580 0.88820 -0.10500
C 	C 	0.93190 0.66306 0.47314 0.36200
C 	C 	0.88820 0.75780 0.46580 -0.10700
C 	C 	0.47314 0.93190 0.93190 0.33000
C 	C 	0.46580 0.88820 0.88820 -0.09900
C 	C 	0.66306 0.93190 0.93190 0.32100
C 	C 	0.75780 0.88820 0.88820 -0.09200
C 	C 	0.93190 0.47314 0.66306 0.36200
C 	C 	0.88820 0.46580 0.75780 -0.10800
C 	C 	0.47314 0.66306 0.93190 0.35700
C 	C 	0.46580 0.75780 0.88820 -0.10400
C 	C 	0.93190 0.93190 0.66306 0.32900
C 	C 	0.88820 0.88820 0.75780 -0.09600
C 	C 	0.93190 0.93190 0.47314 0.33800
C 	C 	0.88820 0.88820 0.46580 -0.10300
C 	C 	0.66306 0.47314 0.93190 0.35900
C 	C 	0.75780 0.46580 0.88820 -0.10700
C 	C 	0.19840 0.06860 0.19840 -0.02800
C 	C 	0.06860 0.19840 0.53460 0.05700
C 	C 	0.19840 0.53460 0.19840 0.05500
C 	C 	0.53460 0.19840 0.06860 0.05700
C 	C 	0.19840 0.19840 0.53460 0.05800
C 	C 	0.06860 0.53460 0.19840 0.05300
C 	C 	0.19840 0.19840 0.06860 -0.02100
C 	C 	0.53460 0.06860 0.19840 0.05600
C 	C 	0.19840 0.53460 0.06860 0.05400
C 	C 	0.06860 0.19840 0.19840 0.01300
C 	C 	0.19840 0.06860 0.53460 0.05800
C 	C 	0.53460 0.19840 0.19840 0.05800
C 	C 	0.93140 0.80160 0.80160 0.03900
C 	C 	0.80160 0.93140 0.46540 0.04700
C 	C 	0.46540 0.80160 0.80160 0.04900
C 	C 	0.80160 0.46540 0.93140 0.05100
C 	C 	0.80160 0.80160 0.46540 0.05100
C 	C 	0.46540 0.93140 0.80160 0.04500
C 	C 	0.80160 0.80160 0.93140 0.03600
C 	C 	0.93140 0.46540 0.80160 0.05200
C 	C 	0.46540 0.80160 0.93140 0.04500
C 	C 	0.80160 0.93140 0.80160 0.03600
C 	C 	0.93140 0.80160 0.46540 0.04900
C 	C 	0.80160 0.46540 0.80160 0.05300
O 	O 	0.37397 0.11277 0.99199 -0.32500
O 	O 	0.11277 0.37397 0.52127 -0.40400
O 	O 	0.99199 0.52127 0.37397 -0.40100
O 	O 	0.52127 0.99199 0.11277 -0.41300
O 	O 	0.37397 0.99199 0.52127 -0.41300
O 	O 	0.11277 0.52127 0.99199 -0.40000
O 	O 	0.99199 0.37397 0.11277 -0.38900
O 	O 	0.52127 0.11277 0.37397 -0.40500
O 	O 	0.37397 0.52127 0.11277 -0.40400
O 	O 	0.11277 0.99199 0.37397 -0.40100
O 	O 	0.99199 0.11277 0.52127 -0.39800
O 	O 	0.52127 0.37397 0.99199 -0.40500
O 	O 	0.88723 0.62603 0.00801 -0.38700
O 	O 	0.62603 0.88723 0.47873 -0.40100
O 	O 	0.47873 0.00801 0.62603 -0.39100
O 	O 	0.00801 0.47873 0.88723 -0.39600
O 	O 	0.00801 0.62603 0.47873 -0.40200
O 	O 	0.47873 0.88723 0.00801 -0.39700
O 	O 	0.62603 0.00801 0.88723 -0.38000
O 	O 	0.88723 0.47873 0.62603 -0.40300
O 	O 	0.47873 0.62603 0.88723 -0.40300
O 	O 	0.00801 0.88723 0.62603 -0.39100
O 	O 	0.88723 0.00801 0.47873 -0.38500
O 	O 	0.62603 0.47873 0.00801 -0.39700
O 	O 	0.62603 0.88723 0.00801 -0.37100
O 	O 	0.88723 0.62603 0.47873 -0.40300
O 	O 	0.00801 0.47873 0.62603 -0.40200
O 	O 	0.47873 0.00801 0.88723 -0.39000
O 	O 	0.62603 0.00801 0.47873 -0.39000
O 	O 	0.88723 0.47873 0.00801 -0.39200
O 	O 	0.00801 0.62603 0.88723 -0.39200
O 	O 	0.47873 0.88723 0.62603 -0.40100
O 	O 	0.62603 0.47873 0.88723 -0.40300
O 	O 	0.88723 0.00801 0.62603 -0.38200
O 	O 	0.00801 0.88723 0.47873 -0.39500
O 	O 	0.47873 0.62603 0.00801 -0.39700
O 	O 	0.11277 0.37397 0.99199 -0.39300
O 	O 	0.37397 0.11277 0.52127 -0.40500
O 	O 	0.52127 0.99199 0.37397 -0.41200
O 	O 	0.99199 0.52127 0.11277 -0.39600
O 	O 	0.99199 0.37397 0.52127 -0.40200
O 	O 	0.52127 0.11277 0.99199 -0.40600
O 	O 	0.11277 0.52127 0.37397 -0.40300
O 	O 	0.52127 0.37397 0.11277 -0.40400
O 	O 	0.99199 0.11277 0.37397 -0.39100
O 	O 	0.11277 0.99199 0.52127 -0.40800
O 	O 	0.37397 0.52127 0.99199 -0.40500
O 	O 	0.50000 0.81180 0.18820 -0.22100
