data_crystal

_cell_length_a 18.62150
_cell_length_b 18.62150
_cell_length_c 18.62150
_cell_angle_alpha 60.00000
_cell_angle_beta  60.00000
_cell_angle_gamma 60.00000

_symmetry_space_group_name_	'P 1'
_symmetry_space_group_name_H-M	'P 1'

loop_
_symmetry_equiv_pos_as_xyz
  x,y,z

loop_
_atom_site_label
_atom_site_type_symbol
_atom_site_fract_x
_atom_site_fract_y
_atom_site_fract_z
_atom_site_charge
Cu	Cu	0.50000 0.92985 0.50000 0.90400
Cu	Cu	0.92985 0.50000 0.07015 0.90400
Cu	Cu	0.50000 0.07015 0.50000 0.90400
Cu	Cu	0.07015 0.50000 0.92985 0.90400
Cu	Cu	0.50000 0.50000 0.07015 0.90400
Cu	Cu	0.92985 0.07015 0.50000 0.90400
Cu	Cu	0.50000 0.50000 0.92985 0.90400
Cu	Cu	0.07015 0.92985 0.50000 0.90400
Cu	Cu	0.50000 0.07015 0.92985 0.90400
Cu	Cu	0.92985 0.50000 0.50000 0.90400
Cu	Cu	0.50000 0.92985 0.07015 0.90400
Cu	Cu	0.07015 0.50000 0.50000 0.90400
H 	H 	0.46670 0.77230 0.77230 0.04400
H 	H 	0.77230 0.46670 0.98870 0.04300
H 	H 	0.77230 0.98870 0.46670 0.04300
H 	H 	0.98870 0.77230 0.77230 0.04400
H 	H 	0.46670 0.77230 0.98870 0.04300
H 	H 	0.77230 0.98870 0.77230 0.04400
H 	H 	0.77230 0.46670 0.77230 0.04400
H 	H 	0.98870 0.77230 0.46670 0.04300
H 	H 	0.46670 0.98870 0.77230 0.04300
H 	H 	0.77230 0.77230 0.46670 0.04400
H 	H 	0.77230 0.77230 0.98870 0.04400
H 	H 	0.98870 0.46670 0.77230 0.04300
H 	H 	0.22770 0.53330 0.22770 0.04400
H 	H 	0.53330 0.22770 0.01130 0.04300
H 	H 	0.01130 0.22770 0.53330 0.04300
H 	H 	0.22770 0.01130 0.22770 0.04400
H 	H 	0.22770 0.53330 0.01130 0.04300
H 	H 	0.01130 0.22770 0.22770 0.04400
H 	H 	0.53330 0.22770 0.22770 0.04400
H 	H 	0.22770 0.01130 0.53330 0.04300
H 	H 	0.01130 0.53330 0.22770 0.04300
H 	H 	0.22770 0.22770 0.53330 0.04400
H 	H 	0.22770 0.22770 0.01130 0.04400
H 	H 	0.53330 0.01130 0.22770 0.04300
C 	C 	0.47486 0.93090 0.66334 0.36900
C 	C 	0.46748 0.88730 0.75792 -0.11700
C 	C 	0.93090 0.47486 0.93090 0.35600
C 	C 	0.88730 0.46748 0.88730 -0.11400
C 	C 	0.66334 0.93090 0.47486 0.36900
C 	C 	0.75792 0.88730 0.46748 -0.11700
C 	C 	0.93090 0.66334 0.93090 0.34800
C 	C 	0.88730 0.75792 0.88730 -0.10900
C 	C 	0.47486 0.66334 0.93090 0.36900
C 	C 	0.46748 0.75792 0.88730 -0.11700
C 	C 	0.93090 0.93090 0.66334 0.34800
C 	C 	0.88730 0.88730 0.75792 -0.10900
C 	C 	0.66334 0.47486 0.93090 0.36900
C 	C 	0.75792 0.46748 0.88730 -0.11700
C 	C 	0.93090 0.93090 0.47486 0.35600
C 	C 	0.88730 0.88730 0.46748 -0.11400
C 	C 	0.47486 0.93090 0.93090 0.35600
C 	C 	0.46748 0.88730 0.88730 -0.11400
C 	C 	0.93090 0.66334 0.47486 0.36900
C 	C 	0.88730 0.75792 0.46748 -0.11700
C 	C 	0.66334 0.93090 0.93090 0.34800
C 	C 	0.75792 0.88730 0.88730 -0.10900
C 	C 	0.93090 0.47486 0.66334 0.36900
C 	C 	0.88730 0.46748 0.75792 -0.11700
C 	C 	0.06910 0.52514 0.33666 0.36900
C 	C 	0.11270 0.53252 0.24208 -0.11700
C 	C 	0.52514 0.06910 0.06910 0.35600
C 	C 	0.53252 0.11270 0.11270 -0.11400
C 	C 	0.06910 0.33666 0.52514 0.36900
C 	C 	0.11270 0.24208 0.53252 -0.11700
C 	C 	0.33666 0.06910 0.06910 0.34800
C 	C 	0.24208 0.11270 0.11270 -0.10900
C 	C 	0.33666 0.52514 0.06910 0.36900
C 	C 	0.24208 0.53252 0.11270 -0.11700
C 	C 	0.06910 0.06910 0.33666 0.34800
C 	C 	0.11270 0.11270 0.24208 -0.10900
C 	C 	0.52514 0.33666 0.06910 0.36900
C 	C 	0.53252 0.24208 0.11270 -0.11700
C 	C 	0.06910 0.06910 0.52514 0.35600
C 	C 	0.11270 0.11270 0.53252 -0.11400
C 	C 	0.06910 0.52514 0.06910 0.35600
C 	C 	0.11270 0.53252 0.11270 -0.11400
C 	C 	0.33666 0.06910 0.52514 0.36900
C 	C 	0.24208 0.11270 0.53252 -0.11700
C 	C 	0.06910 0.33666 0.06910 0.34800
C 	C 	0.11270 0.24208 0.11270 -0.10900
C 	C 	0.52514 0.06910 0.33666 0.36900
C 	C 	0.53252 0.11270 0.24208 -0.11700
C 	C 	0.46714 0.80100 0.80100 0.06100
C 	C 	0.80100 0.46714 0.93086 0.06000
C 	C 	0.80100 0.93086 0.46714 0.06000
C 	C 	0.93086 0.80100 0.80100 0.05200
C 	C 	0.46714 0.80100 0.93086 0.06000
C 	C 	0.80100 0.93086 0.80100 0.05200
C 	C 	0.80100 0.46714 0.80100 0.06100
C 	C 	0.93086 0.80100 0.46714 0.06000
C 	C 	0.46714 0.93086 0.80100 0.06000
C 	C 	0.80100 0.80100 0.46714 0.06100
C 	C 	0.80100 0.80100 0.93086 0.05200
C 	C 	0.93086 0.46714 0.80100 0.06000
C 	C 	0.19900 0.53286 0.19900 0.06100
C 	C 	0.53286 0.19900 0.06914 0.06000
C 	C 	0.06914 0.19900 0.53286 0.06000
C 	C 	0.19900 0.06914 0.19900 0.05200
C 	C 	0.19900 0.53286 0.06914 0.06000
C 	C 	0.06914 0.19900 0.19900 0.05200
C 	C 	0.53286 0.19900 0.19900 0.06100
C 	C 	0.19900 0.06914 0.53286 0.06000
C 	C 	0.06914 0.53286 0.19900 0.06000
C 	C 	0.19900 0.19900 0.53286 0.06100
C 	C 	0.19900 0.19900 0.06914 0.05200
C 	C 	0.53286 0.06914 0.19900 0.06000
O 	O 	0.47913 0.88721 0.62641 -0.40500
O 	O 	0.88721 0.47913 0.00725 -0.39800
O 	O 	0.62641 0.00725 0.47913 -0.40300
O 	O 	0.00725 0.62641 0.88721 -0.39400
O 	O 	0.47913 0.62641 0.00725 -0.40300
O 	O 	0.88721 0.00725 0.62641 -0.39400
O 	O 	0.62641 0.47913 0.88721 -0.40500
O 	O 	0.00725 0.88721 0.47913 -0.39800
O 	O 	0.47913 0.00725 0.88721 -0.39800
O 	O 	0.88721 0.62641 0.47913 -0.40500
O 	O 	0.62641 0.88721 0.00725 -0.39400
O 	O 	0.00725 0.47913 0.62641 -0.40300
O 	O 	0.11279 0.52087 0.37359 -0.40500
O 	O 	0.52087 0.11279 0.99275 -0.39800
O 	O 	0.99275 0.37359 0.52087 -0.40300
O 	O 	0.37359 0.99275 0.11279 -0.39400
O 	O 	0.37359 0.52087 0.99275 -0.40300
O 	O 	0.99275 0.11279 0.37359 -0.39400
O 	O 	0.52087 0.37359 0.11279 -0.40500
O 	O 	0.11279 0.99275 0.52087 -0.39800
O 	O 	0.99275 0.52087 0.11279 -0.39800
O 	O 	0.37359 0.11279 0.52087 -0.40500
O 	O 	0.11279 0.37359 0.99275 -0.39400
O 	O 	0.52087 0.99275 0.37359 -0.40300
O 	O 	0.52087 0.11279 0.37359 -0.40500
O 	O 	0.11279 0.52087 0.99275 -0.39800
O 	O 	0.37359 0.99275 0.52087 -0.40300
O 	O 	0.99275 0.37359 0.11279 -0.39400
O 	O 	0.52087 0.37359 0.99275 -0.40300
O 	O 	0.11279 0.99275 0.37359 -0.39400
O 	O 	0.37359 0.52087 0.11279 -0.40500
O 	O 	0.99275 0.11279 0.52087 -0.39800
O 	O 	0.52087 0.99275 0.11279 -0.39800
O 	O 	0.11279 0.37359 0.52087 -0.40500
O 	O 	0.37359 0.11279 0.99275 -0.39400
O 	O 	0.99275 0.52087 0.37359 -0.40300
O 	O 	0.88721 0.47913 0.62641 -0.40500
O 	O 	0.47913 0.88721 0.00725 -0.39800
O 	O 	0.00725 0.62641 0.47913 -0.40300
O 	O 	0.62641 0.00725 0.88721 -0.39400
O 	O 	0.62641 0.47913 0.00725 -0.40300
O 	O 	0.00725 0.88721 0.62641 -0.39400
O 	O 	0.47913 0.62641 0.88721 -0.40500
O 	O 	0.88721 0.00725 0.47913 -0.39800
O 	O 	0.00725 0.47913 0.88721 -0.39800
O 	O 	0.62641 0.88721 0.47913 -0.40500
O 	O 	0.88721 0.62641 0.00725 -0.39400
O 	O 	0.47913 0.00725 0.62641 -0.40300
