data_crystal

_cell_length_a 18.61380
_cell_length_b 18.61380
_cell_length_c 18.61380
_cell_angle_alpha 60.00000
_cell_angle_beta  60.00000
_cell_angle_gamma 60.00000

_symmetry_space_group_name_	'P 1'
_symmetry_space_group_name_H-M	'P 1'

loop_
_symmetry_equiv_pos_as_xyz
  x,y,z

loop_
_atom_site_label
_atom_site_type_symbol
_atom_site_fract_x
_atom_site_fract_y
_atom_site_fract_z
_atom_site_charge
Cu	Cu	0.42984 1.00000 0.57016 0.93300
Cu	Cu	0.00000 0.42984 -0.00000 0.77200
Cu	Cu	0.57016 -0.00000 0.42984 0.87800
Cu	Cu	-0.00000 0.57016 -0.00000 0.77500
Cu	Cu	0.42984 0.57016 -0.00000 0.81800
Cu	Cu	1.00000 -0.00000 0.57016 0.92900
Cu	Cu	0.57016 0.42984 -0.00000 0.82200
Cu	Cu	1.00000 1.00000 0.42984 0.96700
Cu	Cu	0.42984 1.00000 -0.00000 0.84500
Cu	Cu	-0.00000 0.57016 0.42984 0.86000
Cu	Cu	0.57016 0.00000 -0.00000 0.79700
Cu	Cu	0.00000 0.42984 0.57016 0.86700
H 	H 	0.72810 0.03170 0.51210 0.04000
H 	H 	0.03170 0.72810 0.72810 0.05000
H 	H 	0.51210 0.72810 0.72810 0.06600
H 	H 	0.72810 0.51210 0.03170 0.02000
H 	H 	0.72810 0.51210 0.72810 0.07100
H 	H 	0.03170 0.72810 0.51210 0.02900
H 	H 	0.51210 0.72810 0.03170 0.01500
H 	H 	0.72810 0.03170 0.72810 0.06100
H 	H 	0.72810 0.72810 0.03170 0.02600
H 	H 	0.03170 0.51210 0.72810 0.04500
H 	H 	0.51210 0.03170 0.72810 0.05100
H 	H 	0.72810 0.72810 0.51210 0.05600
H 	H 	0.96830 0.27190 0.48790 0.05700
H 	H 	0.27190 0.96830 0.27190 0.02600
H 	H 	0.27190 0.48790 0.27190 0.01700
H 	H 	0.48790 0.27190 0.96830 0.07700
H 	H 	0.48790 0.27190 0.27190 0.02200
H 	H 	0.27190 0.96830 0.48790 0.04500
H 	H 	0.27190 0.48790 0.96830 0.07300
H 	H 	0.96830 0.27190 0.27190 0.03900
H 	H 	0.27190 0.27190 0.96830 0.06700
H 	H 	0.48790 0.96830 0.27190 0.03700
H 	H 	0.96830 0.48790 0.27190 0.04500
H 	H 	0.27190 0.27190 0.48790 0.03100
C 	C 	0.56910 0.02528 0.56910 0.37200
C 	C 	0.61270 0.03228 0.61270 -0.11700
C 	C 	0.02528 0.56910 0.83652 0.35500
C 	C 	0.03228 0.61270 0.74232 -0.10900
C 	C 	0.56910 0.83652 0.56910 0.36500
C 	C 	0.61270 0.74232 0.61270 -0.09300
C 	C 	0.83652 0.56910 0.02528 0.36600
C 	C 	0.74232 0.61270 0.03228 -0.14700
C 	C 	0.56910 0.56910 0.83652 0.35200
C 	C 	0.61270 0.61270 0.74232 -0.07900
C 	C 	0.02528 0.83652 0.56910 0.37600
C 	C 	0.03228 0.74232 0.61270 -0.12700
C 	C 	0.56910 0.56910 0.02528 0.37400
C 	C 	0.61270 0.61270 0.03228 -0.15700
C 	C 	0.83652 0.02528 0.56910 0.37200
C 	C 	0.74232 0.03228 0.61270 -0.11000
C 	C 	0.56910 0.83652 0.02528 0.37200
C 	C 	0.61270 0.74232 0.03228 -0.15200
C 	C 	0.02528 0.56910 0.56910 0.37200
C 	C 	0.03228 0.61270 0.61270 -0.12900
C 	C 	0.56910 0.02528 0.83652 0.35700
C 	C 	0.61270 0.03228 0.74232 -0.09800
C 	C 	0.83652 0.56910 0.56910 0.36000
C 	C 	0.74232 0.61270 0.61270 -0.08800
C 	C 	0.97472 0.43090 0.43090 0.36300
C 	C 	0.96772 0.38730 0.38730 -0.10600
C 	C 	0.43090 0.97472 0.16348 0.37100
C 	C 	0.38730 0.96772 0.25768 -0.13700
C 	C 	0.16348 0.43090 0.43090 0.37400
C 	C 	0.25768 0.38730 0.38730 -0.14800
C 	C 	0.43090 0.16348 0.97472 0.35200
C 	C 	0.38730 0.25768 0.96772 -0.07300
C 	C 	0.43090 0.43090 0.16348 0.37500
C 	C 	0.38730 0.38730 0.25768 -0.15500
C 	C 	0.16348 0.97472 0.43090 0.37800
C 	C 	0.25768 0.96772 0.38730 -0.13300
C 	C 	0.43090 0.43090 0.97472 0.35000
C 	C 	0.38730 0.38730 0.96772 -0.06900
C 	C 	0.97472 0.16348 0.43090 0.37200
C 	C 	0.96772 0.25768 0.38730 -0.11300
C 	C 	0.16348 0.43090 0.97472 0.35000
C 	C 	0.25768 0.38730 0.96772 -0.07500
C 	C 	0.43090 0.97472 0.43090 0.37000
C 	C 	0.38730 0.96772 0.38730 -0.12400
C 	C 	0.97472 0.43090 0.16348 0.36300
C 	C 	0.96772 0.38730 0.25768 -0.11900
C 	C 	0.43090 0.16348 0.43090 0.37600
C 	C 	0.38730 0.25768 0.38730 -0.14600
C 	C 	0.69920 0.03206 0.56954 0.06300
C 	C 	0.03206 0.69920 0.69920 0.06300
C 	C 	0.56954 0.69920 0.69920 0.04900
C 	C 	0.69920 0.56954 0.03206 0.07500
C 	C 	0.69920 0.56954 0.69920 0.04700
C 	C 	0.03206 0.69920 0.56954 0.06800
C 	C 	0.56954 0.69920 0.03206 0.07600
C 	C 	0.69920 0.03206 0.69920 0.05800
C 	C 	0.69920 0.69920 0.03206 0.07400
C 	C 	0.03206 0.56954 0.69920 0.06200
C 	C 	0.56954 0.03206 0.69920 0.05900
C 	C 	0.69920 0.69920 0.56954 0.05100
C 	C 	0.96794 0.30080 0.43046 0.06000
C 	C 	0.30080 0.96794 0.30080 0.07200
C 	C 	0.30080 0.43046 0.30080 0.07700
C 	C 	0.43046 0.30080 0.96794 0.04100
C 	C 	0.43046 0.30080 0.30080 0.07700
C 	C 	0.30080 0.96794 0.43046 0.06900
C 	C 	0.30080 0.43046 0.96794 0.04100
C 	C 	0.96794 0.30080 0.30080 0.06200
C 	C 	0.30080 0.30080 0.96794 0.04200
C 	C 	0.43046 0.96794 0.30080 0.06900
C 	C 	0.96794 0.43046 0.30080 0.06000
C 	C 	0.30080 0.30080 0.43046 0.07600
O 	O 	0.49246 0.02118 0.61244 -0.41900
O 	O 	0.02118 0.49246 0.87392 -0.34400
O 	O 	0.61244 0.87392 0.49246 -0.38000
O 	O 	0.87392 0.61244 0.02118 -0.40900
O 	O 	0.49246 0.61244 0.87392 -0.31600
O 	O 	0.02118 0.87392 0.61244 -0.41800
O 	O 	0.61244 0.49246 0.02118 -0.45300
O 	O 	0.87392 0.02118 0.49246 -0.40900
O 	O 	0.49246 0.87392 0.02118 -0.44500
O 	O 	0.02118 0.61244 0.49246 -0.43200
O 	O 	0.61244 0.02118 0.87392 -0.32800
O 	O 	0.87392 0.49246 0.61244 -0.35000
O 	O 	0.97882 0.50754 0.38756 -0.36600
O 	O 	0.50754 0.97882 0.12608 -0.42200
O 	O 	0.12608 0.38756 0.50754 -0.42800
O 	O 	0.38756 0.12608 0.97882 -0.33600
O 	O 	0.38756 0.50754 0.12608 -0.45600
O 	O 	0.12608 0.97882 0.38756 -0.44300
O 	O 	0.50754 0.38756 0.97882 -0.30900
O 	O 	0.97882 0.12608 0.50754 -0.38800
O 	O 	0.12608 0.50754 0.97882 -0.32800
O 	O 	0.38756 0.97882 0.50754 -0.39000
O 	O 	0.97882 0.38756 0.12608 -0.40300
O 	O 	0.50754 0.12608 0.38756 -0.43000
O 	O 	0.50754 0.97882 0.38756 -0.39000
O 	O 	0.97882 0.50754 0.12608 -0.39800
O 	O 	0.38756 0.12608 0.50754 -0.43000
O 	O 	0.12608 0.38756 0.97882 -0.33200
O 	O 	0.50754 0.38756 0.12608 -0.45200
O 	O 	0.97882 0.12608 0.38756 -0.41000
O 	O 	0.38756 0.50754 0.97882 -0.31200
O 	O 	0.12608 0.97882 0.50754 -0.42000
O 	O 	0.50754 0.12608 0.97882 -0.32000
O 	O 	0.97882 0.38756 0.50754 -0.35600
O 	O 	0.38756 0.97882 0.12608 -0.43900
O 	O 	0.12608 0.50754 0.38756 -0.43900
O 	O 	0.02118 0.49246 0.61244 -0.42000
O 	O 	0.49246 0.02118 0.87392 -0.34400
O 	O 	0.87392 0.61244 0.49246 -0.36100
O 	O 	0.61244 0.87392 0.02118 -0.42900
O 	O 	0.61244 0.49246 0.87392 -0.31200
O 	O 	0.87392 0.02118 0.61244 -0.38700
O 	O 	0.49246 0.61244 0.02118 -0.45700
O 	O 	0.02118 0.87392 0.49246 -0.44100
O 	O 	0.87392 0.49246 0.02118 -0.41300
O 	O 	0.61244 0.02118 0.49246 -0.41900
O 	O 	0.02118 0.61244 0.87392 -0.34000
O 	O 	0.49246 0.87392 0.61244 -0.38000
