data_crystal

_cell_length_a 19.72200
_cell_length_b 28.05880
_cell_length_c 28.08350
_cell_angle_alpha 90.00000
_cell_angle_beta  94.42300
_cell_angle_gamma 90.00000

_symmetry_space_group_name_	'P 1'
_symmetry_space_group_name_H-M	'P 1'

loop_
_symmetry_equiv_pos_as_xyz
  x,y,z

loop_
_atom_site_label
_atom_site_type_symbol
_atom_site_fract_x
_atom_site_fract_y
_atom_site_fract_z
_atom_site_charge
Zn	Zn	0.39004 0.25358 0.66131 1.21600
Zn	Zn	0.39004 0.24642 0.16131 1.21600
Zn	Zn	0.89337 0.74742 0.65309 1.22000
Zn	Zn	0.88477 0.74817 0.04834 1.21600
Zn	Zn	0.39189 0.25065 0.55708 1.21500
Zn	Zn	0.39189 0.24935 0.05708 1.21500
Zn	Zn	0.89337 0.75258 0.15309 1.22000
Zn	Zn	0.88477 0.75183 0.54834 1.21600
H 	H 	0.23360 0.14140 0.17160 0.04700
H 	H 	0.28980 0.25300 0.73670 0.00300
H 	H 	0.76950 0.61270 0.03240 0.00900
H 	H 	0.63780 0.08630 0.56410 0.05000
H 	H 	0.31320 0.10490 0.53840 0.00000
H 	H 	0.12820 0.01320 0.13070 0.13700
H 	H 	0.11090 0.56830 0.05190 0.04800
H 	H 	0.20640 0.16460 0.02960 0.04900
H 	H 	0.18260 0.52020 0.07170 0.12500
H 	H 	0.79830 0.78540 0.46330 0.01000
H 	H 	0.70730 0.54170 0.03910 0.09700
H 	H 	0.97280 0.71650 0.47400 0.00500
H 	H 	0.14230 0.90180 0.68880 0.07400
H 	H 	0.07360 0.66410 0.18080 0.03800
H 	H 	0.15590 0.42030 0.66500 0.04100
H 	H 	0.97580 0.78640 0.89260 0.07700
H 	H 	0.52720 0.03340 0.03980 0.13200
H 	H 	0.50480 0.38540 0.68240 0.00800
H 	H 	0.02690 0.96550 0.03360 0.13700
H 	H 	0.93230 0.68730 0.31730 0.08000
H 	H 	0.70730 0.95830 0.53910 0.09700
H 	H 	0.12570 0.39650 0.52210 0.05800
H 	H 	0.47460 0.28830 0.48100 0.00400
H 	H 	0.07200 0.55180 0.67530 0.11500
H 	H 	0.30630 0.29050 0.89130 0.08200
H 	H 	0.52740 0.35910 0.19260 0.03700
H 	H 	0.61820 0.60460 0.51970 0.06500
H 	H 	0.11090 0.93170 0.55190 0.04800
H 	H 	0.98100 0.88560 0.03080 0.00700
H 	H 	0.61050 0.52180 0.63960 0.12900
H 	H 	0.65160 0.01310 0.58150 0.12900
H 	H 	0.20310 0.44470 0.16950 0.12400
H 	H 	0.92720 0.81230 0.73460 -0.00200
H 	H 	0.69980 0.66420 0.52270 0.04400
H 	H 	0.79980 0.78750 0.38020 0.07900
H 	H 	0.77940 0.62780 0.17530 0.00500
H 	H 	0.12570 0.10350 0.02210 0.05800
H 	H 	0.30900 0.28880 0.97320 0.00800
H 	H 	0.63780 0.41370 0.06410 0.05000
H 	H 	0.26260 0.46960 0.03770 0.10400
H 	H 	0.30630 0.20950 0.39130 0.08200
H 	H 	0.73470 0.64520 0.66520 0.04300
H 	H 	0.65370 0.91520 0.16150 0.04400
H 	H 	0.12820 0.48680 0.63070 0.13700
H 	H 	0.20310 0.05530 0.66950 0.12400
H 	H 	0.61820 0.89540 0.01970 0.06500
H 	H 	0.61050 0.97820 0.13960 0.12900
H 	H 	0.14230 0.59820 0.18880 0.07400
H 	H 	0.02690 0.53450 0.53360 0.13700
H 	H 	0.48960 0.24730 0.24600 0.00400
H 	H 	0.57150 0.15560 0.55630 0.03600
H 	H 	0.49380 0.25160 0.82860 0.07500
H 	H 	0.30900 0.21120 0.47320 0.00800
H 	H 	0.92720 0.68770 0.23460 -0.00200
H 	H 	0.98100 0.61440 0.53080 0.00700
H 	H 	0.93230 0.81270 0.81730 0.08000
H 	H 	0.28800 0.24950 0.31920 0.08400
H 	H 	0.57150 0.34440 0.05630 0.03600
H 	H 	0.65160 0.48690 0.08150 0.12900
H 	H 	0.97580 0.71360 0.39260 0.07700
H 	H 	0.84270 0.68460 0.81190 0.07800
H 	H 	0.25580 0.36890 0.16960 0.00200
H 	H 	0.76950 0.88730 0.53240 0.00900
H 	H 	0.77940 0.87220 0.67530 0.00500
H 	H 	0.47460 0.21170 0.98100 0.00400
H 	H 	0.69980 0.83580 0.02270 0.04400
H 	H 	0.07360 0.83590 0.68080 0.03800
H 	H 	0.20640 0.33540 0.52960 0.04900
H 	H 	0.47750 0.28910 0.39930 0.07900
H 	H 	0.00770 0.61940 0.67170 -0.00100
H 	H 	0.03360 0.86490 0.54200 0.03800
H 	H 	0.48280 0.38900 0.53900 0.01500
H 	H 	0.79980 0.71250 0.88020 0.07900
H 	H 	0.03360 0.63510 0.04200 0.03900
H 	H 	0.79830 0.71460 0.96330 0.01000
H 	H 	0.52720 0.46660 0.53980 0.13200
H 	H 	0.84480 0.68610 0.73000 -0.00000
H 	H 	0.28980 0.24700 0.23670 0.00300
H 	H 	0.31320 0.39510 0.03840 0.00000
H 	H 	0.23360 0.35860 0.67160 0.04700
H 	H 	0.97280 0.78350 0.97400 0.00500
H 	H 	0.47750 0.21090 0.89930 0.07900
H 	H 	0.07200 0.94820 0.17530 0.11500
H 	H 	0.84480 0.81390 0.23000 -0.00000
H 	H 	0.00770 0.88060 0.17170 -0.00100
H 	H 	0.50480 0.11460 0.18240 0.00800
H 	H 	0.59400 0.07570 0.70210 0.07100
H 	H 	0.15590 0.07970 0.16500 0.04100
H 	H 	0.84270 0.81540 0.31190 0.07800
H 	H 	0.65370 0.58480 0.66150 0.04400
H 	H 	0.73470 0.85480 0.16520 0.04300
H 	H 	0.49380 0.24840 0.32860 0.07500
H 	H 	0.26260 0.03040 0.53770 0.10300
H 	H 	0.48960 0.25270 0.74600 0.00400
H 	H 	0.59400 0.42430 0.20210 0.07100
H 	H 	0.72200 0.94420 0.68200 0.12500
H 	H 	0.25580 0.13110 0.66960 0.00200
H 	H 	0.28800 0.25050 0.81920 0.08400
H 	H 	0.18260 0.97980 0.57170 0.12500
H 	H 	0.48280 0.11100 0.03900 0.01500
H 	H 	0.55360 0.46020 0.68390 0.10500
H 	H 	0.52740 0.14090 0.69260 0.03700
H 	H 	0.55360 0.03980 0.18390 0.10500
H 	H 	0.72200 0.55580 0.18200 0.12500
C 	C 	0.04990 0.93780 0.14580 -0.23700
C 	C 	0.88900 0.75150 0.37719 0.05100
C 	C 	0.34390 0.22710 0.45787 0.08400
C 	C 	0.78350 0.69596 0.59596 0.39400
C 	C 	0.62180 0.07510 0.63460 -0.00600
C 	C 	0.04990 0.56220 0.64580 -0.23700
C 	C 	0.64300 0.61190 0.54910 -0.05300
C 	C 	0.21300 0.13300 0.14110 0.00300
C 	C 	0.72700 0.84049 0.09370 -0.09700
C 	C 	0.33010 0.25120 0.80489 -0.12900
C 	C 	0.86360 0.71220 0.74810 0.08200
C 	C 	0.71100 0.54160 0.11010 0.20200
C 	C 	0.39200 0.24900 0.38592 0.05900
C 	C 	0.39200 0.25100 0.88592 0.05900
C 	C 	0.51030 0.09850 0.15320 0.12300
C 	C 	0.99220 0.80530 0.60740 0.41300
C 	C 	0.83550 0.72820 0.94856 0.07100
C 	C 	0.91200 0.78500 0.75060 0.08900
C 	C 	0.99120 0.87600 0.10090 -0.21100
C 	C 	0.26030 0.44930 0.06460 -0.23200
C 	C 	0.19660 0.35320 0.55700 0.00300
C 	C 	0.16650 0.40330 0.63730 -0.04000
C 	C 	0.22540 0.06570 0.64250 -0.20800
C 	C 	0.07850 0.64440 0.15380 0.03300
C 	C 	0.05530 0.62800 0.07250 0.02400
C 	C 	0.66810 0.47100 0.14500 0.23000
C 	C 	0.52430 0.44960 0.56890 -0.20100
C 	C 	0.53910 0.05420 0.15430 -0.20800
C 	C 	0.77970 0.62760 0.10330 -0.18300
C 	C 	0.66810 0.02900 0.64500 0.23000
C 	C 	0.95740 0.82830 0.10220 0.44500
C 	C 	0.10150 0.91260 0.57850 -0.06700
C 	C 	0.58310 0.54800 0.58400 0.19800
C 	C 	0.61550 0.09820 0.59040 -0.07300
C 	C 	0.73150 0.56750 0.15140 -0.20700
C 	C 	0.44810 0.24760 0.26110 0.07600
C 	C 	0.39080 0.24910 0.33269 0.05800
C 	C 	0.69110 0.85240 0.05100 0.01400
C 	C 	0.44010 0.22820 0.96220 0.08100
C 	C 	0.39080 0.25090 0.83269 0.05800
C 	C 	0.32350 0.17308 0.60352 0.41400
C 	C 	0.63070 0.58660 0.59050 -0.03000
C 	C 	0.44010 0.27180 0.46220 0.08100
C 	C 	0.75920 0.60160 0.06290 0.11500
C 	C 	0.44230 0.27270 0.41364 -0.12800
C 	C 	0.99640 0.60040 0.56040 0.14000
C 	C 	0.51030 0.40150 0.65320 0.12300
C 	C 	0.28940 0.12520 0.60360 -0.18600
C 	C 	0.05200 0.96450 0.10490 0.20600
C 	C 	0.23040 0.15760 0.10080 -0.09300
C 	C 	0.44230 0.22730 0.91364 -0.12800
C 	C 	0.34180 0.27410 0.90910 -0.12700
C 	C 	0.76560 0.61020 0.14740 0.12200
C 	C 	0.81790 0.82686 0.59880 0.42200
C 	C 	0.05200 0.53550 0.60490 0.20600
C 	C 	0.22730 0.03670 0.60230 0.20900
C 	C 	0.52430 0.05040 0.06890 -0.20100
C 	C 	0.33180 0.25240 0.75572 0.07900
C 	C 	0.05530 0.87200 0.57250 0.02500
C 	C 	0.13080 0.92260 0.62270 -0.00800
C 	C 	0.54290 0.34480 0.12370 -0.11400
C 	C 	0.29060 0.40510 0.06540 0.13400
C 	C 	0.71100 0.95840 0.61010 0.20200
C 	C 	0.01560 0.89660 0.14280 0.15900
C 	C 	0.88900 0.74850 0.87719 0.05100
C 	C 	0.76560 0.88980 0.64740 0.12200
C 	C 	0.93960 0.77040 0.90620 -0.12300
C 	C 	0.58920 0.09150 0.67220 -0.07700
C 	C 	0.71210 0.86360 0.13540 0.00800
C 	C 	0.54290 0.15520 0.62370 -0.11400
C 	C 	0.63070 0.91340 0.09050 -0.03000
C 	C 	0.14840 0.11040 0.05230 -0.03600
C 	C 	0.58920 0.40850 0.17220 -0.07700
C 	C 	0.17110 0.96590 0.63120 0.18400
C 	C 	0.13410 0.41560 0.59210 -0.05500
C 	C 	0.32350 0.32692 0.10352 0.41400
C 	C 	0.66400 0.60040 0.63290 -0.04900
C 	C 	0.73150 0.93250 0.65140 -0.20700
C 	C 	0.04350 0.65560 0.11090 -0.11600
C 	C 	0.99640 0.89960 0.06040 0.14000
C 	C 	0.45110 0.24840 0.31030 -0.12400
C 	C 	0.57590 0.13890 0.58580 0.02900
C 	C 	0.26030 0.05070 0.56460 -0.23200
C 	C 	0.55080 0.13000 0.66630 0.03500
C 	C 	0.81790 0.67314 0.09880 0.42200
C 	C 	0.12020 0.60520 0.15830 -0.07200
C 	C 	0.57590 0.36110 0.08580 0.02900
C 	C 	0.99120 0.62400 0.60090 -0.21100
C 	C 	0.22540 0.43430 0.14250 -0.20800
C 	C 	0.14840 0.38960 0.55230 -0.03600
C 	C 	0.83590 0.72740 0.89904 -0.11400
C 	C 	0.62180 0.42490 0.13460 -0.00600
C 	C 	0.08650 0.45520 0.58440 0.25700
C 	C 	0.44810 0.25240 0.76110 0.07600
C 	C 	0.17110 0.53410 0.13120 0.18400
C 	C 	0.28440 0.19444 0.10526 0.38800
C 	C 	0.28440 0.30556 0.60526 0.38800
C 	C 	0.48910 0.37970 0.61060 -0.17500
C 	C 	0.49660 0.09620 0.06860 0.11900
C 	C 	0.21300 0.36700 0.64110 0.00300
C 	C 	0.13080 0.57740 0.12270 -0.00800
C 	C 	0.25700 0.38930 0.14260 0.11900
C 	C 	0.29060 0.09490 0.56540 0.13400
C 	C 	0.45110 0.25160 0.81030 -0.12400
C 	C 	0.95740 0.67170 0.60220 0.44500
C 	C 	0.88910 0.74900 0.82412 0.06800
C 	C 	0.86360 0.78780 0.24810 0.08200
C 	C 	0.49430 0.30330 0.11950 0.40300
C 	C 	0.93960 0.72960 0.40620 -0.12300
C 	C 	0.93700 0.73110 0.45460 0.08000
C 	C 	0.88910 0.75100 0.32412 0.06800
C 	C 	0.45760 0.33110 0.60960 0.40900
C 	C 	0.54720 0.03020 0.11160 0.19500
C 	C 	0.04350 0.84440 0.61090 -0.11600
C 	C 	0.78350 0.80404 0.09596 0.39400
C 	C 	0.91200 0.71500 0.25060 0.08900
C 	C 	0.83590 0.77260 0.39904 -0.11500
C 	C 	0.91370 0.78590 0.80030 -0.13700
C 	C 	0.49430 0.19670 0.61950 0.40300
C 	C 	0.69110 0.64760 0.55100 0.01400
C 	C 	0.66400 0.89960 0.13290 -0.04900
C 	C 	0.45760 0.16890 0.10960 0.40900
C 	C 	0.54720 0.46980 0.61160 0.19500
C 	C 	0.55080 0.37000 0.16630 0.03500
C 	C 	0.34390 0.27290 0.95787 0.08400
C 	C 	0.16650 0.09670 0.13730 -0.04000
C 	C 	0.25700 0.11070 0.64260 0.11900
C 	C 	0.93700 0.76890 0.95460 0.08000
C 	C 	0.91370 0.71410 0.30030 -0.13700
C 	C 	0.33180 0.24760 0.25572 0.07900
C 	C 	0.48910 0.12030 0.11060 -0.17500
C 	C 	0.75920 0.89840 0.56290 0.11500
C 	C 	0.19660 0.14680 0.05700 0.00300
C 	C 	0.72310 0.94130 0.56710 -0.21200
C 	C 	0.07850 0.85560 0.65380 0.03300
C 	C 	0.33010 0.24880 0.30489 -0.12900
C 	C 	0.01560 0.60340 0.64280 0.15900
C 	C 	0.64300 0.88810 0.04910 -0.05300
C 	C 	0.99220 0.69470 0.10740 0.41200
C 	C 	0.61550 0.40180 0.09040 -0.07300
C 	C 	0.34180 0.22590 0.40910 -0.12700
C 	C 	0.58310 0.95200 0.08400 0.19800
C 	C 	0.02580 0.94700 0.06190 -0.20900
C 	C 	0.83550 0.77180 0.44856 0.07100
C 	C 	0.53910 0.44580 0.65430 -0.20800
C 	C 	0.72700 0.65951 0.59370 -0.09600
C 	C 	0.23040 0.34240 0.60080 -0.09300
C 	C 	0.08650 0.04480 0.08440 0.25700
C 	C 	0.49660 0.40380 0.56860 0.11900
C 	C 	0.02580 0.55300 0.56190 -0.20900
C 	C 	0.13410 0.08440 0.09210 -0.05500
C 	C 	0.22730 0.46330 0.10230 0.20900
C 	C 	0.12020 0.89480 0.65830 -0.07300
C 	C 	0.71210 0.63640 0.63540 0.00800
C 	C 	0.77970 0.87240 0.60330 -0.18300
C 	C 	0.10150 0.58740 0.07850 -0.06700
C 	C 	0.72310 0.55870 0.06710 -0.21200
C 	C 	0.86210 0.71110 0.79690 -0.13200
C 	C 	0.86210 0.78890 0.29690 -0.13200
C 	C 	0.28940 0.37480 0.10360 -0.18600
N 	N 	0.67230 0.00370 0.60870 -0.25800
N 	N 	0.39230 0.24925 0.48484 -0.25200
N 	N 	0.58420 0.51650 0.61340 -0.24900
N 	N 	0.58420 0.98350 0.11340 -0.24900
N 	N 	0.09460 0.48810 0.60820 -0.27300
N 	N 	0.38960 0.25291 0.73362 -0.24800
N 	N 	0.09460 0.01190 0.10820 -0.27300
N 	N 	0.19120 0.99100 0.60080 -0.25100
N 	N 	0.89030 0.74823 0.72482 -0.25500
N 	N 	0.39230 0.25075 0.98484 -0.25200
N 	N 	0.19120 0.50900 0.10080 -0.25100
N 	N 	0.88680 0.75200 0.47586 -0.24700
N 	N 	0.38960 0.24709 0.23362 -0.24800
N 	N 	0.67230 0.49630 0.10870 -0.25800
N 	N 	0.88680 0.74800 0.97586 -0.24700
N 	N 	0.89030 0.75177 0.22482 -0.25500
O 	O 	0.19100 0.52350 0.18120 -0.19600
O 	O 	0.96740 0.70642 0.06689 -0.46800
O 	O 	0.03660 0.04660 0.04980 -0.22700
O 	O 	0.97680 0.78753 0.64552 -0.46800
O 	O 	0.69320 0.02090 0.68590 -0.23500
O 	O 	0.82690 0.68867 0.05810 -0.46200
O 	O 	0.30500 0.28854 0.56738 -0.46100
O 	O 	0.94720 0.68811 0.64193 -0.47800
O 	O 	0.47070 0.21064 0.65687 -0.47000
O 	O 	0.33130 0.30476 0.14299 -0.46700
O 	O 	0.82690 0.81133 0.55810 -0.46200
O 	O 	0.33130 0.19524 0.64299 -0.46700
O 	O 	0.47820 0.21316 0.57873 -0.46100
O 	O 	0.30500 0.21146 0.06738 -0.46100
O 	O 	0.94170 0.80786 0.06318 -0.47800
O 	O 	0.80160 0.71098 0.55702 -0.46400
O 	O 	0.34070 0.31164 0.06481 -0.46800
O 	O 	0.44320 0.18774 0.06950 -0.46700
O 	O 	0.44320 0.31226 0.56950 -0.46700
O 	O 	0.52930 0.94940 0.04710 -0.20100
O 	O 	0.30680 0.29480 0.64656 -0.46000
O 	O 	0.96740 0.79358 0.56689 -0.46800
O 	O 	0.80840 0.79150 0.13624 -0.47100
O 	O 	0.03660 0.45340 0.54980 -0.22700
O 	O 	0.80160 0.78902 0.05702 -0.46400
O 	O 	0.34070 0.18836 0.56481 -0.46800
O 	O 	0.52930 0.55060 0.54710 -0.20100
O 	O 	0.83800 0.69299 0.13720 -0.48100
O 	O 	0.80840 0.70850 0.63624 -0.47100
O 	O 	0.19100 0.97650 0.68120 -0.19600
O 	O 	0.94170 0.69214 0.56318 -0.47800
O 	O 	0.47820 0.28684 0.07873 -0.46100
O 	O 	0.44750 0.31204 0.64934 -0.46200
O 	O 	0.30680 0.20520 0.14656 -0.46000
O 	O 	0.94720 0.81189 0.14193 -0.47800
O 	O 	0.69320 0.47910 0.18590 -0.23500
O 	O 	0.47070 0.28936 0.15687 -0.47000
O 	O 	0.83800 0.80701 0.63720 -0.48100
O 	O 	0.44750 0.18796 0.14934 -0.46200
O 	O 	0.97680 0.71247 0.14552 -0.46800
Zn	Zn	0.60996 0.74642 0.33869 1.21700
Zn	Zn	0.60811 0.74935 0.44292 1.21500
Zn	Zn	0.11523 0.24817 0.45166 1.21600
Zn	Zn	0.10663 0.25258 0.34691 1.22000
Zn	Zn	0.10663 0.24742 0.84691 1.22000
Zn	Zn	0.11523 0.25183 0.95166 1.21600
Zn	Zn	0.60811 0.75065 0.94292 1.21500
Zn	Zn	0.60996 0.75358 0.83869 1.21700
H 	H 	0.87180 0.51320 0.36930 0.13700
H 	H 	0.52540 0.78830 0.01900 0.00400
H 	H 	0.20170 0.28540 0.03670 0.01000
H 	H 	0.02720 0.28350 0.52600 0.00500
H 	H 	0.06770 0.18730 0.18270 0.08000
H 	H 	0.34630 0.08480 0.83850 0.04400
H 	H 	0.06770 0.31270 0.68270 0.08000
H 	H 	0.26530 0.35480 0.33480 0.04300
H 	H 	0.79360 0.83540 0.97040 0.04900
H 	H 	0.69100 0.71120 0.02680 0.00800
H 	H 	0.15730 0.18460 0.68810 0.07800
H 	H 	0.15730 0.31540 0.18810 0.07800
H 	H 	0.84410 0.57970 0.33500 0.04100
H 	H 	0.23050 0.38730 0.96760 0.00900
H 	H 	0.71200 0.74950 0.18080 0.08400
H 	H 	0.15520 0.18610 0.77000 -0.00000
H 	H 	0.92800 0.05180 0.82470 0.11500
H 	H 	0.73740 0.53040 0.96230 0.10400
H 	H 	0.88910 0.43170 0.94810 0.04800
H 	H 	0.51720 0.61100 0.46100 0.01500
H 	H 	0.15520 0.31390 0.27000 -0.00000
H 	H 	0.52250 0.71090 0.60070 0.07900
H 	H 	0.69370 0.79050 0.60870 0.08200
H 	H 	0.20170 0.21460 0.53670 0.01000
H 	H 	0.38950 0.47820 0.36040 0.12900
H 	H 	0.40600 0.57570 0.79790 0.07100
H 	H 	0.74420 0.63110 0.83040 0.00200
H 	H 	0.22060 0.37220 0.82470 0.00500
H 	H 	0.81740 0.02020 0.42830 0.12500
H 	H 	0.22060 0.12780 0.32470 0.00500
H 	H 	0.44640 0.96020 0.81610 0.10500
H 	H 	0.02420 0.28640 0.60740 0.07700
H 	H 	0.97310 0.03450 0.96640 0.13700
H 	H 	0.87430 0.60350 0.47790 0.05800
H 	H 	0.01900 0.38560 0.46920 0.00700
H 	H 	0.50620 0.74840 0.17140 0.07500
H 	H 	0.92640 0.16410 0.31920 0.03800
H 	H 	0.29270 0.45830 0.96090 0.09700
H 	H 	0.30020 0.16420 0.97730 0.04400
H 	H 	0.51040 0.75270 0.75400 0.00400
H 	H 	0.73740 0.96960 0.46230 0.10300
H 	H 	0.01900 0.11440 0.96920 0.00700
H 	H 	0.50620 0.75160 0.67140 0.07500
H 	H 	0.71020 0.74700 0.26330 0.00300
H 	H 	0.36220 0.91370 0.43590 0.05000
H 	H 	0.38950 0.02180 0.86040 0.12900
H 	H 	0.34630 0.41520 0.33850 0.04400
H 	H 	0.76640 0.85860 0.82840 0.04700
H 	H 	0.84410 0.92030 0.83500 0.04100
H 	H 	0.40600 0.92430 0.29790 0.07100
H 	H 	0.07280 0.31230 0.76540 -0.00200
H 	H 	0.79690 0.94470 0.33050 0.12400
H 	H 	0.87430 0.89650 0.97790 0.05800
H 	H 	0.69100 0.78880 0.52680 0.00800
H 	H 	0.85770 0.09820 0.31120 0.07400
H 	H 	0.47280 0.53340 0.46020 0.13200
H 	H 	0.92800 0.44820 0.32470 0.11500
H 	H 	0.29270 0.04170 0.46090 0.09700
H 	H 	0.34840 0.98690 0.41850 0.12900
H 	H 	0.47260 0.64090 0.80740 0.03700
H 	H 	0.49520 0.88540 0.81760 0.00800
H 	H 	0.42850 0.65560 0.94370 0.03600
H 	H 	0.96640 0.36490 0.95800 0.03900
H 	H 	0.79690 0.55530 0.83050 0.12400
H 	H 	0.23050 0.11270 0.46760 0.00900
H 	H 	0.51720 0.88900 0.96100 0.01500
H 	H 	0.38180 0.10460 0.98030 0.06500
H 	H 	0.30020 0.33580 0.47730 0.04400
H 	H 	0.07280 0.18770 0.26540 -0.00200
H 	H 	0.52540 0.71170 0.51900 0.00400
H 	H 	0.97310 0.46550 0.46640 0.13700
H 	H 	0.47260 0.85910 0.30740 0.03700
H 	H 	0.96640 0.13510 0.45800 0.03800
H 	H 	0.51040 0.74730 0.25400 0.00400
H 	H 	0.85770 0.40180 0.81120 0.07400
H 	H 	0.27800 0.44420 0.81800 0.12500
H 	H 	0.79360 0.66460 0.47040 0.04900
H 	H 	0.20020 0.28750 0.11980 0.07900
H 	H 	0.68680 0.89510 0.46160 0.00000
H 	H 	0.68680 0.60490 0.96160 0.00000
H 	H 	0.02720 0.21650 0.02600 0.00500
H 	H 	0.71200 0.75050 0.68080 0.08400
H 	H 	0.02420 0.21360 0.10740 0.07700
H 	H 	0.87180 0.98680 0.86930 0.13700
H 	H 	0.74420 0.86890 0.33040 0.00200
H 	H 	0.42850 0.84440 0.44370 0.03600
H 	H 	0.92640 0.33590 0.81920 0.03800
H 	H 	0.71020 0.75300 0.76330 0.00300
H 	H 	0.81740 0.47980 0.92830 0.12500
H 	H 	0.38180 0.39540 0.48030 0.06500
H 	H 	0.52250 0.78910 0.10070 0.07900
H 	H 	0.99230 0.11940 0.82830 -0.00100
H 	H 	0.69370 0.70950 0.10870 0.08200
H 	H 	0.34840 0.51310 0.91850 0.12900
H 	H 	0.47280 0.96660 0.96020 0.13200
H 	H 	0.36220 0.58630 0.93590 0.05000
H 	H 	0.99230 0.38060 0.32830 -0.00100
H 	H 	0.44640 0.53980 0.31610 0.10500
H 	H 	0.49520 0.61460 0.31760 0.00800
H 	H 	0.76640 0.64140 0.32840 0.04700
H 	H 	0.20020 0.21250 0.61980 0.07900
H 	H 	0.88910 0.06830 0.44810 0.04800
H 	H 	0.27800 0.05580 0.31800 0.12500
H 	H 	0.26530 0.14520 0.83480 0.04300
C 	C 	0.11100 0.25150 0.12281 0.05100
C 	C 	0.71560 0.80556 0.89474 0.38800
C 	C 	0.22030 0.12760 0.39670 -0.18300
C 	C 	0.73970 0.55070 0.93540 -0.23200
C 	C 	0.16450 0.22820 0.55144 0.07100
C 	C 	0.00360 0.10040 0.93960 0.14000
C 	C 	0.66990 0.74880 0.19511 -0.12900
C 	C 	0.27300 0.34049 0.40630 -0.09600
C 	C 	0.45710 0.84480 0.37630 -0.11400
C 	C 	0.97420 0.05300 0.93810 -0.20900
C 	C 	0.35700 0.11190 0.95090 -0.05300
C 	C 	0.26850 0.43250 0.84860 -0.20700
C 	C 	0.71060 0.62520 0.89640 -0.18600
C 	C 	0.65820 0.77410 0.59090 -0.12700
C 	C 	0.00360 0.39960 0.43960 0.14000
C 	C 	0.27690 0.44130 0.93290 -0.21200
C 	C 	0.65610 0.77290 0.54213 0.08400
C 	C 	0.73970 0.94930 0.43540 -0.23200
C 	C 	0.55770 0.72730 0.58636 -0.12800
C 	C 	0.04260 0.17170 0.89780 0.44500
C 	C 	0.76960 0.84240 0.89920 -0.09300
C 	C 	0.27300 0.15951 0.90630 -0.09700
C 	C 	0.65610 0.72710 0.04213 0.08400
C 	C 	0.50340 0.59620 0.43140 0.11900
C 	C 	0.37820 0.92490 0.36540 -0.00600
C 	C 	0.80340 0.64680 0.44300 0.00300
C 	C 	0.18210 0.17314 0.40120 0.42200
C 	C 	0.54890 0.74840 0.18970 -0.12400
C 	C 	0.47570 0.55040 0.43110 -0.20100
C 	C 	0.95650 0.34440 0.88910 -0.11600
C 	C 	0.13790 0.28890 0.20310 -0.13200
C 	C 	0.48970 0.59850 0.34680 0.12300
C 	C 	0.46090 0.94580 0.84570 -0.20800
C 	C 	0.60800 0.75100 0.61408 0.05900
C 	C 	0.08800 0.21500 0.24940 0.08900
C 	C 	0.85160 0.88960 0.94770 -0.03600
C 	C 	0.16450 0.27180 0.05144 0.07100
C 	C 	0.06300 0.23110 0.04540 0.08000
C 	C 	0.00880 0.37600 0.39910 -0.21100
C 	C 	0.44920 0.87000 0.33370 0.03500
C 	C 	0.86590 0.91560 0.90790 -0.05500
C 	C 	0.11090 0.25100 0.17588 0.06800
C 	C 	0.13790 0.21110 0.70310 -0.13200
C 	C 	0.30890 0.14760 0.94900 0.01400
C 	C 	0.87980 0.39480 0.84170 -0.07200
C 	C 	0.80340 0.85320 0.94300 0.00300
C 	C 	0.98440 0.39660 0.35720 0.15900
C 	C 	0.45280 0.53020 0.38840 0.19500
C 	C 	0.70940 0.59490 0.93460 0.13400
C 	C 	0.86920 0.42260 0.87730 -0.00800
C 	C 	0.22030 0.37240 0.89670 -0.18300
C 	C 	0.45710 0.65520 0.87630 -0.11400
C 	C 	0.92150 0.35560 0.84620 0.03300
C 	C 	0.55990 0.77180 0.03780 0.08100
C 	C 	0.42410 0.86110 0.41420 0.02900
C 	C 	0.77270 0.53670 0.89770 0.20900
C 	C 	0.06040 0.27040 0.59380 -0.12300
C 	C 	0.33600 0.39960 0.36710 -0.04900
C 	C 	0.50340 0.90380 0.93140 0.11900
C 	C 	0.24080 0.10160 0.43710 0.11500
C 	C 	0.91350 0.54480 0.41560 0.25700
C 	C 	0.16410 0.27260 0.10096 -0.11400
C 	C 	0.97420 0.44700 0.43810 -0.20900
C 	C 	0.67650 0.67308 0.89648 0.41400
C 	C 	0.89850 0.08740 0.42150 -0.06700
C 	C 	0.28900 0.45840 0.88990 0.20200
C 	C 	0.60920 0.75090 0.66731 0.05800
C 	C 	0.00780 0.30530 0.89260 0.41200
C 	C 	0.76960 0.65760 0.39920 -0.09300
C 	C 	0.71560 0.69444 0.39474 0.38800
C 	C 	0.91350 0.95520 0.91560 0.25700
C 	C 	0.36930 0.08660 0.90950 -0.03000
C 	C 	0.94470 0.37200 0.92750 0.02400
C 	C 	0.74300 0.61070 0.85740 0.11900
C 	C 	0.41080 0.59150 0.82780 -0.07700
C 	C 	0.08800 0.28500 0.74940 0.08900
C 	C 	0.54240 0.66890 0.39040 0.40900
C 	C 	0.28900 0.04160 0.38990 0.20200
C 	C 	0.89850 0.41260 0.92150 -0.06700
C 	C 	0.55770 0.77270 0.08636 -0.12800
C 	C 	0.77270 0.96330 0.39770 0.20900
C 	C 	0.21650 0.19596 0.90404 0.39400
C 	C 	0.47570 0.94960 0.93110 -0.20100
C 	C 	0.38450 0.59820 0.90960 -0.07300
C 	C 	0.82890 0.03410 0.36880 0.18400
C 	C 	0.33190 0.52900 0.85500 0.23000
C 	C 	0.42410 0.63890 0.91420 0.02900
C 	C 	0.38450 0.90180 0.40960 -0.07300
C 	C 	0.08630 0.28590 0.69970 -0.13700
C 	C 	0.41690 0.04800 0.91600 0.19800
C 	C 	0.55190 0.74760 0.23890 0.07600
C 	C 	0.11090 0.24900 0.67588 0.06800
C 	C 	0.46090 0.55420 0.34570 -0.20800
C 	C 	0.98440 0.10340 0.85720 0.15900
C 	C 	0.23440 0.38980 0.85260 0.12200
C 	C 	0.33600 0.10040 0.86710 -0.04900
C 	C 	0.45280 0.96980 0.88840 0.19500
C 	C 	0.11100 0.24850 0.62281 0.05100
C 	C 	0.94470 0.12800 0.42750 0.02500
C 	C 	0.23440 0.11020 0.35260 0.12200
C 	C 	0.08630 0.21410 0.19970 -0.13700
C 	C 	0.00880 0.12400 0.89910 -0.21100
C 	C 	0.86920 0.07740 0.37730 -0.00800
C 	C 	0.26850 0.06750 0.34860 -0.20700
C 	C 	0.77460 0.93430 0.35750 -0.20800
C 	C 	0.85160 0.61040 0.44770 -0.03600
C 	C 	0.78700 0.86700 0.85890 0.00300
C 	C 	0.28790 0.13640 0.86460 0.00800
C 	C 	0.13640 0.21220 0.75190 0.08200
C 	C 	0.60800 0.74900 0.11408 0.05900
C 	C 	0.95010 0.06220 0.85420 -0.23700
C 	C 	0.27690 0.05870 0.43290 -0.21200
C 	C 	0.16410 0.22740 0.60096 -0.11500
C 	C 	0.50570 0.80330 0.38050 0.40300
C 	C 	0.82890 0.46590 0.86880 0.18400
C 	C 	0.55190 0.75240 0.73890 0.07600
C 	C 	0.06040 0.22960 0.09380 -0.12300
C 	C 	0.41690 0.45200 0.41600 0.19800
C 	C 	0.70940 0.90510 0.43460 0.13400
C 	C 	0.04260 0.32830 0.39780 0.44500
C 	C 	0.95650 0.15560 0.38910 -0.11600
C 	C 	0.77460 0.56570 0.85750 -0.20800
C 	C 	0.50570 0.69670 0.88050 0.40300
C 	C 	0.94800 0.03550 0.89510 0.20600
C 	C 	0.18210 0.32686 0.90120 0.42200
C 	C 	0.67650 0.82692 0.39648 0.41400
C 	C 	0.60920 0.74910 0.16731 0.05800
C 	C 	0.24080 0.39840 0.93710 0.11500
C 	C 	0.74300 0.88930 0.35740 0.11900
C 	C 	0.65820 0.72590 0.09090 -0.12700
C 	C 	0.83350 0.59670 0.36270 -0.04000
C 	C 	0.54240 0.83110 0.89040 0.40900
C 	C 	0.51090 0.62030 0.38940 -0.17500
C 	C 	0.41080 0.90850 0.32780 -0.07700
C 	C 	0.94800 0.46450 0.39510 0.20600
C 	C 	0.30890 0.35240 0.44900 0.01400
C 	C 	0.06300 0.26890 0.54540 0.08000
C 	C 	0.66820 0.75240 0.74428 0.07900
C 	C 	0.83350 0.90330 0.86270 -0.04000
C 	C 	0.78700 0.63300 0.35890 0.00300
C 	C 	0.51090 0.87970 0.88940 -0.17500
C 	C 	0.00780 0.19470 0.39260 0.41300
C 	C 	0.33190 0.97100 0.35500 0.23000
C 	C 	0.87980 0.10520 0.34170 -0.07300
C 	C 	0.71060 0.87480 0.39640 -0.18600
C 	C 	0.55990 0.72820 0.53780 0.08100
C 	C 	0.37820 0.57510 0.86540 -0.00600
C 	C 	0.66820 0.74760 0.24428 0.07900
C 	C 	0.13640 0.28780 0.25190 0.08200
C 	C 	0.48970 0.90150 0.84680 0.12300
C 	C 	0.95010 0.43780 0.35420 -0.23700
C 	C 	0.44920 0.63000 0.83370 0.03500
C 	C 	0.54890 0.75160 0.68970 -0.12400
C 	C 	0.92150 0.14440 0.34620 0.03300
C 	C 	0.66990 0.75120 0.69511 -0.12900
C 	C 	0.28790 0.36360 0.36460 0.00800
C 	C 	0.21650 0.30404 0.40404 0.39400
C 	C 	0.35700 0.38810 0.45090 -0.05300
C 	C 	0.86590 0.58440 0.40790 -0.05500
C 	C 	0.36930 0.41340 0.40950 -0.03000
N 	N 	0.90540 0.51190 0.39180 -0.27300
N 	N 	0.80880 0.49100 0.89920 -0.25100
N 	N 	0.32770 0.50370 0.89130 -0.25800
N 	N 	0.41580 0.01650 0.88660 -0.24900
N 	N 	0.60770 0.75075 0.51516 -0.25200
N 	N 	0.90540 0.98810 0.89180 -0.27300
N 	N 	0.10970 0.25177 0.27518 -0.25500
N 	N 	0.80880 0.00900 0.39920 -0.25100
N 	N 	0.32770 0.99630 0.39130 -0.25800
N 	N 	0.11320 0.24800 0.52414 -0.24700
N 	N 	0.61040 0.74709 0.26638 -0.24800
N 	N 	0.60770 0.74925 0.01516 -0.25200
N 	N 	0.10970 0.24823 0.77518 -0.25500
N 	N 	0.61040 0.75291 0.76638 -0.24800
N 	N 	0.41580 0.48350 0.38660 -0.24900
N 	N 	0.11320 0.25200 0.02414 -0.24700
O 	O 	0.02320 0.21247 0.35448 -0.46800
O 	O 	0.52180 0.78684 0.42127 -0.46100
O 	O 	0.52930 0.78936 0.34313 -0.47000
O 	O 	0.16200 0.30701 0.86280 -0.48100
O 	O 	0.02320 0.28753 0.85448 -0.46800
O 	O 	0.05280 0.18811 0.85807 -0.47800
O 	O 	0.17310 0.31133 0.94190 -0.46200
O 	O 	0.30680 0.97910 0.31410 -0.23500
O 	O 	0.66870 0.80476 0.35701 -0.46700
O 	O 	0.30680 0.52090 0.81410 -0.23500
O 	O 	0.96340 0.95340 0.95020 -0.22700
O 	O 	0.80900 0.47650 0.81880 -0.19600
O 	O 	0.55680 0.81226 0.93050 -0.46700
O 	O 	0.03260 0.29358 0.93311 -0.46800
O 	O 	0.69500 0.71146 0.43262 -0.46100
O 	O 	0.05280 0.31189 0.35807 -0.47800
O 	O 	0.66870 0.69524 0.85701 -0.46700
O 	O 	0.96340 0.54660 0.45020 -0.22700
O 	O 	0.17310 0.18867 0.44190 -0.46200
O 	O 	0.69320 0.70520 0.35344 -0.46000
O 	O 	0.69500 0.78854 0.93262 -0.46100
O 	O 	0.55250 0.81204 0.85066 -0.46200
O 	O 	0.65930 0.81164 0.43519 -0.46800
O 	O 	0.55250 0.68796 0.35066 -0.46200
O 	O 	0.52930 0.71064 0.84313 -0.47000
O 	O 	0.55680 0.68774 0.43050 -0.46700
O 	O 	0.16200 0.19299 0.36280 -0.48100
O 	O 	0.52180 0.71316 0.92127 -0.46100
O 	O 	0.05830 0.19214 0.93682 -0.47800
O 	O 	0.69320 0.79480 0.85344 -0.46000
O 	O 	0.19160 0.20850 0.86376 -0.47100
O 	O 	0.03260 0.20642 0.43311 -0.46800
O 	O 	0.05830 0.30786 0.43682 -0.47800
O 	O 	0.19840 0.28902 0.44298 -0.46400
O 	O 	0.47070 0.44940 0.45290 -0.20100
O 	O 	0.19160 0.29150 0.36376 -0.47100
O 	O 	0.65930 0.68836 0.93519 -0.46800
O 	O 	0.47070 0.05060 0.95290 -0.20100
O 	O 	0.80900 0.02350 0.31880 -0.19600
O 	O 	0.19840 0.21098 0.94298 -0.46400
