data_crystal

_cell_length_a 9.28814
_cell_length_b 14.71130
_cell_length_c 19.84710
_cell_angle_alpha 74.97060
_cell_angle_beta  76.46780
_cell_angle_gamma 71.59810

_symmetry_space_group_name_	'P 1'
_symmetry_space_group_name_H-M	'P 1'

loop_
_symmetry_equiv_pos_as_xyz
  x,y,z

loop_
_atom_site_label
_atom_site_type_symbol
_atom_site_fract_x
_atom_site_fract_y
_atom_site_fract_z
_atom_site_charge
Yb	Yb	0.49616 0.53187 0.62487 1.57900
Yb	Yb	0.65290 0.96813 0.87513 1.57800
Yb	Yb	0.50384 0.46813 0.37513 1.57900
Yb	Yb	0.34710 0.03187 0.12487 1.57800
H 	H 	0.52250 0.78510 0.51290 0.04900
H 	H 	0.44290 0.75450 0.33030 0.05200
H 	H 	0.44510 0.01690 0.35210 0.05000
H 	H 	0.71600 0.52800 0.73480 -0.04600
H 	H 	0.89180 0.67010 0.78130 0.16400
H 	H 	0.81500 0.58560 0.82120 0.16300
H 	H 	0.94870 0.56960 0.75680 0.16400
H 	H 	0.76660 0.78520 0.71580 0.16800
H 	H 	0.74450 0.76180 0.64680 0.16300
H 	H 	0.60430 0.78190 0.70790 0.16300
H 	H 	0.79840 0.37120 0.55100 -0.03100
H 	H 	0.20040 0.31220 0.51720 0.16500
H 	H 	0.08260 0.24950 0.53550 0.16500
H 	H 	0.07390 0.33670 0.47010 0.17000
H 	H 	0.17940 0.40410 0.57670 0.16900
H 	H 	0.04090 0.49830 0.56990 0.17900
H 	H 	0.04320 0.41930 0.64010 0.17000
H 	H 	0.82050 0.71490 0.98710 0.04800
H 	H 	0.52770 0.74550 0.16970 0.05200
H 	H 	0.81410 0.48310 0.14790 0.05200
H 	H 	0.97880 0.97200 0.76520 -0.04700
H 	H 	0.34320 0.82990 0.71870 0.16400
H 	H 	0.22180 0.91440 0.67880 0.16400
H 	H 	0.27510 0.93040 0.74320 0.16600
H 	H 	0.26760 0.71480 0.78420 0.16900
H 	H 	0.15310 0.73820 0.85320 0.16400
H 	H 	0.09410 0.71810 0.79210 0.16400
H 	H 	0.72060 0.12880 0.94900 -0.03100
H 	H 	0.02980 0.18780 0.98280 0.15700
H 	H 	0.86760 0.25050 0.96450 0.16000
H 	H 	0.88070 0.16330 0.02990 0.16300
H 	H 	0.16020 0.09590 0.92330 0.17000
H 	H 	0.10910 0.00170 0.93010 0.17900
H 	H 	0.10260 0.08070 0.85990 0.17100
H 	H 	0.47750 0.21490 0.48710 0.04900
H 	H 	0.55710 0.24550 0.66970 0.05200
H 	H 	0.55490 0.98310 0.64790 0.05000
H 	H 	0.28400 0.47200 0.26520 -0.04600
H 	H 	0.10820 0.32990 0.21870 0.16400
H 	H 	0.18500 0.41440 0.17880 0.16300
H 	H 	0.05130 0.43040 0.24320 0.16400
H 	H 	0.23340 0.21480 0.28420 0.16800
H 	H 	0.25550 0.23820 0.35320 0.16300
H 	H 	0.39570 0.21810 0.29210 0.16300
H 	H 	0.20160 0.62880 0.44900 -0.03100
H 	H 	0.79960 0.68780 0.48280 0.16500
H 	H 	0.91740 0.75050 0.46450 0.16500
H 	H 	0.92610 0.66330 0.52990 0.17000
H 	H 	0.82060 0.59590 0.42330 0.16900
H 	H 	0.95910 0.50170 0.43010 0.17900
H 	H 	0.95680 0.58070 0.35990 0.17000
H 	H 	0.17950 0.28510 0.01290 0.04800
H 	H 	0.47230 0.25450 0.83030 0.05200
H 	H 	0.18590 0.51690 0.85210 0.05200
H 	H 	0.02120 0.02800 0.23480 -0.04700
H 	H 	0.65680 0.17010 0.28130 0.16400
H 	H 	0.77820 0.08560 0.32120 0.16400
H 	H 	0.72490 0.06960 0.25680 0.16600
H 	H 	0.73240 0.28520 0.21580 0.16900
H 	H 	0.84690 0.26180 0.14680 0.16400
H 	H 	0.90590 0.28190 0.20790 0.16400
H 	H 	0.27940 0.87120 0.05100 -0.03100
H 	H 	0.97020 0.81220 0.01720 0.15700
H 	H 	0.13240 0.74950 0.03550 0.16000
H 	H 	0.11930 0.83670 0.97010 0.16300
H 	H 	0.83980 0.90410 0.07670 0.17000
H 	H 	0.89090 0.99830 0.06990 0.17900
H 	H 	0.89740 0.91930 0.14010 0.17100
C 	C 	0.48790 0.91080 0.44020 0.01100
C 	C 	0.50350 0.81170 0.46690 -0.01900
C 	C 	0.49110 0.75240 0.42600 -0.10600
C 	C 	0.45530 0.79350 0.35750 0.02200
C 	C 	0.43870 0.89180 0.33120 -0.07000
C 	C 	0.45530 0.95060 0.37100 -0.03100
C 	C 	0.49820 0.97290 0.48270 -0.01900
C 	C 	0.51960 0.64410 0.45430 0.41300
C 	C 	0.40300 0.93940 0.25780 0.30800
C 	C 	0.68610 0.59370 0.71350 0.25400
C 	C 	0.86060 0.61630 0.77590 -0.40000
C 	C 	0.71320 0.75350 0.69710 -0.39100
C 	C 	0.84230 0.40310 0.57210 0.25000
C 	C 	0.09630 0.31400 0.51740 -0.41200
C 	C 	0.07030 0.42970 0.58950 -0.41200
C 	C 	0.83890 0.58920 0.05980 0.01100
C 	C 	0.78210 0.68830 0.03310 -0.01700
C 	C 	0.66950 0.74760 0.07400 -0.10700
C 	C 	0.60630 0.70650 0.14250 0.02100
C 	C 	0.66170 0.60820 0.16880 -0.06900
C 	C 	0.77690 0.54940 0.12900 -0.03500
C 	C 	0.95380 0.52710 0.01730 -0.01900
C 	C 	0.61800 0.85590 0.04570 0.41600
C 	C 	0.60020 0.56060 0.24220 0.30500
C 	C 	0.99330 0.90630 0.78650 0.25000
C 	C 	0.25280 0.88370 0.72410 -0.40200
C 	C 	0.16380 0.74650 0.80290 -0.39300
C 	C 	0.81750 0.09690 0.92790 0.25100
C 	C 	0.92770 0.18600 0.98260 -0.39100
C 	C 	0.08950 0.07030 0.91050 -0.41600
C 	C 	0.51210 0.08920 0.55980 0.01100
C 	C 	0.49650 0.18830 0.53310 -0.01900
C 	C 	0.50890 0.24760 0.57400 -0.10600
C 	C 	0.54470 0.20650 0.64250 0.02200
C 	C 	0.56130 0.10820 0.66880 -0.07000
C 	C 	0.54470 0.04940 0.62900 -0.03100
C 	C 	0.50180 0.02710 0.51730 -0.01900
C 	C 	0.48040 0.35590 0.54570 0.41300
C 	C 	0.59700 0.06060 0.74220 0.30800
C 	C 	0.31390 0.40630 0.28650 0.25400
C 	C 	0.13940 0.38370 0.22410 -0.40000
C 	C 	0.28680 0.24650 0.30290 -0.39100
C 	C 	0.15770 0.59690 0.42790 0.25000
C 	C 	0.90370 0.68600 0.48260 -0.41200
C 	C 	0.92970 0.57030 0.41050 -0.41200
C 	C 	0.16110 0.41080 0.94020 0.01100
C 	C 	0.21790 0.31170 0.96690 -0.01700
C 	C 	0.33050 0.25240 0.92600 -0.10700
C 	C 	0.39370 0.29350 0.85750 0.02100
C 	C 	0.33830 0.39180 0.83120 -0.06900
C 	C 	0.22310 0.45060 0.87100 -0.03500
C 	C 	0.04620 0.47290 0.98270 -0.01900
C 	C 	0.38200 0.14410 0.95430 0.41600
C 	C 	0.39980 0.43940 0.75780 0.30500
C 	C 	0.00670 0.09370 0.21350 0.25000
C 	C 	0.74720 0.11630 0.27590 -0.40200
C 	C 	0.83620 0.25350 0.19710 -0.39300
C 	C 	0.18250 0.90310 0.07210 0.25100
C 	C 	0.07230 0.81400 0.01740 -0.39100
C 	C 	0.91050 0.92970 0.08950 -0.41600
N 	N 	0.74880 0.65240 0.72800 -0.05000
N 	N 	0.99150 0.38030 0.56230 -0.05200
N 	N 	0.21810 0.67170 0.60510 0.05600
N 	N 	0.12920 0.84760 0.77200 -0.04800
N 	N 	0.93410 0.11970 0.93770 -0.05300
N 	N 	0.49490 0.82830 0.89490 0.05600
N 	N 	0.25120 0.34760 0.27200 -0.05000
N 	N 	0.00850 0.61970 0.43770 -0.05200
N 	N 	0.78190 0.32830 0.39490 0.05600
N 	N 	0.87080 0.15240 0.22800 -0.04800
N 	N 	0.06590 0.88030 0.06230 -0.05300
N 	N 	0.50510 0.17170 0.10510 0.05600
O 	O 	0.55730 0.61160 0.51460 -0.44000
O 	O 	0.50600 0.59350 0.41590 -0.44800
O 	O 	0.43850 0.01710 0.22770 -0.38200
O 	O 	0.33990 0.90220 0.22740 -0.35600
O 	O 	0.59250 0.61740 0.67460 -0.38900
O 	O 	0.75540 0.46170 0.60570 -0.37500
O 	O 	0.25000 0.59000 0.58540 -0.24800
O 	O 	0.31460 0.69250 0.62490 -0.23600
O 	O 	0.08470 0.72490 0.60170 -0.13100
O 	O 	0.68350 0.88840 0.98540 -0.44300
O 	O 	0.51540 0.90650 0.08410 -0.44700
O 	O 	0.68330 0.48290 0.27230 -0.38100
O 	O 	0.46950 0.59780 0.27260 -0.35700
O 	O 	0.88450 0.88260 0.82540 -0.38900
O 	O 	0.82280 0.03830 0.89430 -0.37200
O 	O 	0.42540 0.91000 0.91460 -0.24900
O 	O 	0.63200 0.80750 0.87510 -0.23600
O 	O 	0.41130 0.77510 0.89830 -0.13200
O 	O 	0.44270 0.38840 0.48540 -0.44000
O 	O 	0.49400 0.40650 0.58410 -0.44800
O 	O 	0.56150 0.98290 0.77230 -0.38200
O 	O 	0.66010 0.09780 0.77260 -0.35600
O 	O 	0.40750 0.38260 0.32540 -0.38900
O 	O 	0.24460 0.53830 0.39430 -0.37500
O 	O 	0.75000 0.41000 0.41460 -0.24800
O 	O 	0.68540 0.30750 0.37510 -0.23600
O 	O 	0.91530 0.27510 0.39830 -0.13100
O 	O 	0.31650 0.11160 0.01460 -0.44300
O 	O 	0.48460 0.09350 0.91590 -0.44700
O 	O 	0.31670 0.51710 0.72770 -0.38100
O 	O 	0.53050 0.40220 0.72740 -0.35700
O 	O 	0.11550 0.11740 0.17460 -0.38900
O 	O 	0.17720 0.96170 0.10570 -0.37200
O 	O 	0.57460 0.09000 0.08540 -0.24900
O 	O 	0.36800 0.19250 0.12490 -0.23600
O 	O 	0.58870 0.22490 0.10170 -0.13200
