data_crystal

_cell_length_a 12.94060
_cell_length_b 12.94060
_cell_length_c 14.63900
_cell_angle_alpha 83.93200
_cell_angle_beta  83.93200
_cell_angle_gamma 61.62450

_symmetry_space_group_name_	'P 1'
_symmetry_space_group_name_H-M	'P 1'

loop_
_symmetry_equiv_pos_as_xyz
  x,y,z

loop_
_atom_site_label
_atom_site_type_symbol
_atom_site_fract_x
_atom_site_fract_y
_atom_site_fract_z
_atom_site_charge
Er	Er	0.34832 0.98972 0.02755 1.63600
Er	Er	0.65168 0.01028 0.97245 1.63600
Er	Er	0.01028 0.65168 0.47245 1.65500
Er	Er	0.98972 0.34832 0.52755 1.65500
H 	H 	0.21710 0.26770 0.76460 0.01500
H 	H 	0.69830 0.52230 0.64090 0.02900
H 	H 	0.47320 0.71400 0.84190 0.06500
H 	H 	0.73230 0.78290 0.73540 0.01700
H 	H 	0.52230 0.69830 0.14090 0.02900
H 	H 	0.30170 0.47770 0.35910 0.02900
H 	H 	0.52680 0.28600 0.15810 0.06500
H 	H 	0.28600 0.52680 0.65810 0.06500
H 	H 	0.47770 0.30170 0.85910 0.02900
H 	H 	0.71400 0.47320 0.34190 0.06500
H 	H 	0.78290 0.73230 0.23540 0.01500
H 	H 	0.26770 0.21710 0.26460 0.01700
C 	C 	0.35020 0.26900 0.82350 -0.16300
C 	C 	0.73810 0.69330 0.23700 0.09400
C 	C 	0.59980 0.76020 0.79870 -0.14400
C 	C 	0.30340 0.46120 0.69860 0.01500
C 	C 	0.67290 0.58290 0.68030 0.02300
C 	C 	0.73100 0.64980 0.67650 -0.16200
C 	C 	0.23980 0.40020 0.70130 -0.14600
C 	C 	0.64980 0.73100 0.17650 -0.16300
C 	C 	0.69330 0.73810 0.73700 0.09200
C 	C 	0.48450 0.46030 0.25370 0.00500
C 	C 	0.32710 0.41710 0.31970 0.02300
C 	C 	0.26190 0.30670 0.76300 0.09400
C 	C 	0.39460 0.42220 0.75820 -0.01100
C 	C 	0.85710 0.56050 0.36460 0.47200
C 	C 	0.37080 0.16940 0.89320 0.46300
C 	C 	0.14290 0.43950 0.63540 0.47200
C 	C 	0.76020 0.59980 0.29870 -0.14600
C 	C 	0.56050 0.85710 0.86460 0.46900
C 	C 	0.26900 0.35020 0.32350 -0.16200
C 	C 	0.57780 0.60540 0.74180 -0.01000
C 	C 	0.69660 0.53880 0.30140 0.01500
C 	C 	0.51550 0.53970 0.74630 0.00500
C 	C 	0.42220 0.39460 0.25820 -0.01000
C 	C 	0.41710 0.32710 0.81970 0.02300
C 	C 	0.30670 0.26190 0.26300 0.09200
C 	C 	0.62920 0.83060 0.10680 0.46300
C 	C 	0.40020 0.23980 0.20130 -0.14400
C 	C 	0.16940 0.37080 0.39320 0.46400
C 	C 	0.83060 0.62920 0.60680 0.46400
C 	C 	0.46030 0.48450 0.75370 0.00500
C 	C 	0.53880 0.69660 0.80140 0.01400
C 	C 	0.43950 0.14290 0.13540 0.46900
C 	C 	0.53970 0.51550 0.24630 0.00500
C 	C 	0.60540 0.57780 0.24180 -0.01100
C 	C 	0.46120 0.30340 0.19860 0.01400
C 	C 	0.58290 0.67290 0.18030 0.02300
N 	N 	0.16410 0.72810 0.53320 0.07000
N 	N 	0.72810 0.16410 0.03320 0.07200
N 	N 	0.83590 0.27190 0.46680 0.07000
N 	N 	0.27190 0.83590 0.96680 0.07200
O 	O 	0.89970 0.45630 0.39680 -0.44700
O 	O 	0.10030 0.54370 0.60320 -0.44700
O 	O 	0.21990 0.94610 0.95110 -0.26800
O 	O 	0.46390 0.11810 0.93170 -0.53700
O 	O 	0.53610 0.88190 0.06830 -0.53700
O 	O 	0.11560 0.36380 0.61770 -0.50200
O 	O 	0.74550 0.23150 0.07280 -0.11300
O 	O 	0.28760 0.14520 0.91380 -0.44800
O 	O 	0.85480 0.71240 0.58620 -0.44800
O 	O 	0.11810 0.46390 0.43170 -0.53800
O 	O 	0.64780 0.20200 0.97870 -0.26600
O 	O 	0.14520 0.28760 0.41380 -0.44800
O 	O 	0.45630 0.89970 0.89680 -0.44100
O 	O 	0.88440 0.63620 0.38230 -0.50200
O 	O 	0.25450 0.76850 0.92720 -0.11300
O 	O 	0.78010 0.05390 0.04890 -0.26800
O 	O 	0.05390 0.78010 0.54890 -0.27400
O 	O 	0.35220 0.79800 0.02130 -0.26600
O 	O 	0.20200 0.64780 0.47870 -0.26300
O 	O 	0.79800 0.35220 0.52130 -0.26300
O 	O 	0.94610 0.21990 0.45110 -0.27400
O 	O 	0.63620 0.88440 0.88230 -0.49600
O 	O 	0.54370 0.10030 0.10320 -0.44100
O 	O 	0.71240 0.85480 0.08620 -0.44800
O 	O 	0.23150 0.74550 0.57280 -0.11500
O 	O 	0.36380 0.11560 0.11770 -0.49600
O 	O 	0.76850 0.25450 0.42720 -0.11500
O 	O 	0.88190 0.53610 0.56830 -0.53800
