data_crystal

_cell_length_a 10.75350
_cell_length_b 12.51010
_cell_length_c 12.51010
_cell_angle_alpha 91.96260
_cell_angle_beta  113.77100
_cell_angle_gamma 113.77100

_symmetry_space_group_name_	'P 1'
_symmetry_space_group_name_H-M	'P 1'

loop_
_symmetry_equiv_pos_as_xyz
  x,y,z

loop_
_atom_site_label
_atom_site_type_symbol
_atom_site_fract_x
_atom_site_fract_y
_atom_site_fract_z
_atom_site_charge
Tb	Tb	0.50000 0.79092 0.20908 1.92800
Tb	Tb	0.50000 0.20908 0.79092 1.92800
Zn	Zn	0.50000 0.00000 -0.00000 1.14700
Zn	Zn	0.50000 0.50000 -0.00000 1.18000
Zn	Zn	0.50000 0.00000 0.50000 1.18000
H 	H 	0.39000 0.13980 0.25920 0.15600
H 	H 	0.95590 0.58240 0.05940 0.05100
H 	H 	0.24470 0.21900 0.01640 0.16100
H 	H 	0.04410 0.41760 0.94060 0.17800
H 	H 	0.04410 0.94060 0.41760 0.17800
H 	H 	0.75530 0.98360 0.78100 0.16900
H 	H 	0.78240 0.76760 0.60000 0.13200
H 	H 	0.99470 0.71370 0.11170 0.07100
H 	H 	0.78240 0.60000 0.76760 0.13200
H 	H 	0.61000 0.74080 0.86020 0.12200
H 	H 	0.21760 0.23240 0.40000 0.14300
H 	H 	0.21760 0.40000 0.23240 0.14300
H 	H 	0.95590 0.05940 0.58240 0.05100
H 	H 	0.14440 0.16550 0.47910 0.13600
H 	H 	0.61000 0.86020 0.74080 0.12200
H 	H 	0.00530 0.88830 0.28630 0.16500
H 	H 	0.14440 0.47910 0.16550 0.13600
H 	H 	0.00530 0.28630 0.88830 0.16500
H 	H 	0.99470 0.11170 0.71370 0.07100
H 	H 	0.75530 0.78100 0.98360 0.16900
H 	H 	0.85560 0.83450 0.52090 0.13600
H 	H 	0.39000 0.25920 0.13980 0.15600
H 	H 	0.85560 0.52090 0.83450 0.13600
H 	H 	0.24470 0.01640 0.21900 0.16100
C 	C 	0.67080 0.93760 0.79780 -0.27400
C 	C 	0.81500 0.84280 0.57560 -0.30500
C 	C 	0.32370 0.49160 0.13620 0.48800
C 	C 	0.99240 0.33410 0.94190 -0.31000
C 	C 	0.32370 0.13620 0.49160 0.48800
C 	C 	0.82330 0.89490 0.29710 0.39300
C 	C 	0.81500 0.57560 0.84280 -0.30500
C 	C 	0.98520 0.91740 0.79200 0.22600
C 	C 	0.18500 0.15720 0.42440 -0.34300
C 	C 	0.01480 0.20800 0.08260 0.08700
C 	C 	0.17670 0.70290 0.10510 0.35100
C 	C 	0.00760 0.66590 0.05810 -0.19600
C 	C 	0.57370 0.77630 0.00190 0.39800
C 	C 	0.01480 0.08260 0.20800 0.08700
C 	C 	0.98520 0.79200 0.91740 0.22600
C 	C 	0.17670 0.10510 0.70290 0.35100
C 	C 	0.85080 0.01030 0.01030 -0.16800
C 	C 	0.67630 0.50840 0.86380 0.48100
C 	C 	0.42630 0.22370 0.99810 0.58300
C 	C 	0.18500 0.42440 0.15720 -0.34300
C 	C 	0.14920 0.98970 0.98970 0.41000
C 	C 	0.42630 0.99810 0.22370 0.58300
C 	C 	0.67630 0.86380 0.50840 0.48100
C 	C 	0.00760 0.05810 0.66590 -0.19600
C 	C 	0.32920 0.20220 0.06240 -0.49000
C 	C 	0.32920 0.06240 0.20220 -0.49000
C 	C 	0.82330 0.29710 0.89490 0.39300
C 	C 	0.67080 0.79780 0.93760 -0.27400
C 	C 	0.57370 0.00190 0.77630 0.39800
C 	C 	0.99240 0.94190 0.33410 -0.31000
N 	N 	0.06470 0.06318 0.31982 -0.05700
N 	N 	0.93530 0.68018 0.93682 -0.04300
N 	N 	0.73240 0.91820 0.91820 0.05900
N 	N 	0.92340 0.80400 0.80400 -0.18200
N 	N 	0.09690 0.88084 0.01376 -0.23800
N 	N 	0.26760 0.08180 0.08180 -0.11900
N 	N 	0.09690 0.01376 0.88084 -0.23800
N 	N 	0.90310 0.11916 0.98624 -0.05000
N 	N 	0.07660 0.19600 0.19600 -0.13900
N 	N 	0.06470 0.31982 0.06318 -0.05700
N 	N 	0.90310 0.98624 0.11916 -0.05000
N 	N 	0.93530 0.93682 0.68018 -0.04300
O 	O 	0.33010 0.44437 0.05003 -0.53500
O 	O 	0.51370 0.02111 0.67489 -0.54600
O 	O 	0.57790 0.79059 0.40921 -0.50800
O 	O 	0.57790 0.40921 0.79059 -0.50800
O 	O 	0.44130 0.13827 0.95629 -0.60200
O 	O 	0.74130 0.78323 0.26337 -0.44800
O 	O 	0.55870 0.86173 0.04371 -0.56700
O 	O 	0.51370 0.67489 0.02111 -0.54600
O 	O 	0.66990 0.94997 0.55563 -0.45600
O 	O 	0.25870 0.73663 0.21677 -0.41800
O 	O 	0.44130 0.95629 0.13827 -0.60200
O 	O 	0.23280 0.03509 0.69589 -0.42100
O 	O 	0.48630 0.32511 0.97889 -0.52900
O 	O 	0.42210 0.59079 0.20941 -0.52100
O 	O 	0.55870 0.04371 0.86173 -0.56700
O 	O 	0.33010 0.05003 0.44437 -0.53500
O 	O 	0.42210 0.20941 0.59079 -0.52100
O 	O 	0.76720 0.96491 0.30411 -0.38200
O 	O 	0.23280 0.69589 0.03509 -0.42100
O 	O 	0.74130 0.26337 0.78323 -0.44800
O 	O 	0.66990 0.55563 0.94997 -0.45600
O 	O 	0.48630 0.97889 0.32511 -0.52900
O 	O 	0.25870 0.21677 0.73663 -0.41800
O 	O 	0.76720 0.30411 0.96491 -0.38200
