data_crystal

_cell_length_a 26.30340
_cell_length_b 26.30340
_cell_length_c 26.30340
_cell_angle_alpha 90.00000
_cell_angle_beta  90.00000
_cell_angle_gamma 90.00000

_symmetry_space_group_name_	'P 1'
_symmetry_space_group_name_H-M	'P 1'

loop_
_symmetry_equiv_pos_as_xyz
  x,y,z

loop_
_atom_site_label
_atom_site_type_symbol
_atom_site_fract_x
_atom_site_fract_y
_atom_site_fract_z
_atom_site_charge
O 	O 	0.05230 0.25667 0.81681 -0.41900
O 	O 	0.05230 0.75667 0.31681 -0.42100
O 	O 	0.55230 0.25667 0.31681 -0.40800
O 	O 	0.55230 0.75667 0.81681 -0.39900
O 	O 	0.94770 0.74333 0.81681 -0.36600
O 	O 	0.94770 0.24333 0.31681 -0.37500
O 	O 	0.44770 0.74333 0.31681 -0.40300
O 	O 	0.44770 0.24333 0.81681 -0.40100
O 	O 	0.94770 0.25667 0.18319 -0.38100
O 	O 	0.94770 0.75667 0.68319 -0.37300
O 	O 	0.44770 0.25667 0.68319 -0.40800
O 	O 	0.44770 0.75667 0.18319 -0.41000
O 	O 	0.05230 0.74333 0.18319 -0.42300
O 	O 	0.05230 0.24333 0.68319 -0.42200
O 	O 	0.55230 0.74333 0.68319 -0.40200
O 	O 	0.55230 0.24333 0.18319 -0.41100
O 	O 	0.81681 0.05230 0.25667 -0.41800
O 	O 	0.81681 0.55230 0.75667 -0.39800
O 	O 	0.31681 0.05230 0.75667 -0.42000
O 	O 	0.31681 0.55230 0.25667 -0.40700
O 	O 	0.81681 0.94770 0.74333 -0.36500
O 	O 	0.81681 0.44770 0.24333 -0.40000
O 	O 	0.31681 0.94770 0.24333 -0.37400
O 	O 	0.31681 0.44770 0.74333 -0.40200
O 	O 	0.18319 0.94770 0.25667 -0.38000
O 	O 	0.18319 0.44770 0.75667 -0.40900
O 	O 	0.68319 0.94770 0.75667 -0.37200
O 	O 	0.68319 0.44770 0.25667 -0.40700
O 	O 	0.18319 0.05230 0.74333 -0.42300
O 	O 	0.18319 0.55230 0.24333 -0.41100
O 	O 	0.68319 0.05230 0.24333 -0.42200
O 	O 	0.68319 0.55230 0.74333 -0.40200
O 	O 	0.25667 0.81681 0.05230 -0.41800
O 	O 	0.25667 0.31681 0.55230 -0.40700
O 	O 	0.75667 0.81681 0.55230 -0.39800
O 	O 	0.75667 0.31681 0.05230 -0.42000
O 	O 	0.74333 0.81681 0.94770 -0.36500
O 	O 	0.74333 0.31681 0.44770 -0.40200
O 	O 	0.24333 0.81681 0.44770 -0.40000
O 	O 	0.24333 0.31681 0.94770 -0.37400
O 	O 	0.25667 0.18319 0.94770 -0.38000
O 	O 	0.25667 0.68319 0.44770 -0.40700
O 	O 	0.75667 0.18319 0.44770 -0.40900
O 	O 	0.75667 0.68319 0.94770 -0.37200
O 	O 	0.74333 0.18319 0.05230 -0.42300
O 	O 	0.74333 0.68319 0.55230 -0.40200
O 	O 	0.24333 0.18319 0.55230 -0.41100
O 	O 	0.24333 0.68319 0.05230 -0.42200
O 	O 	0.25667 0.05230 0.18319 -0.42800
O 	O 	0.25667 0.55230 0.68319 -0.40700
O 	O 	0.75667 0.05230 0.68319 -0.42000
O 	O 	0.75667 0.55230 0.18319 -0.40900
O 	O 	0.74333 0.94770 0.18319 -0.37500
O 	O 	0.74333 0.44770 0.68319 -0.40200
O 	O 	0.24333 0.94770 0.68319 -0.37400
O 	O 	0.24333 0.44770 0.18319 -0.41100
O 	O 	0.25667 0.94770 0.81681 -0.37000
O 	O 	0.25667 0.44770 0.31681 -0.40700
O 	O 	0.75667 0.94770 0.31681 -0.37200
O 	O 	0.75667 0.44770 0.81681 -0.39800
O 	O 	0.74333 0.05230 0.81681 -0.41400
O 	O 	0.74333 0.55230 0.31681 -0.40200
O 	O 	0.24333 0.05230 0.31681 -0.42200
O 	O 	0.24333 0.55230 0.81681 -0.40000
O 	O 	0.05230 0.81681 0.74333 -0.41400
O 	O 	0.05230 0.31681 0.24333 -0.42200
O 	O 	0.55230 0.81681 0.24333 -0.40000
O 	O 	0.55230 0.31681 0.74333 -0.40200
O 	O 	0.94770 0.81681 0.25667 -0.37000
O 	O 	0.94770 0.31681 0.75667 -0.37200
O 	O 	0.44770 0.81681 0.75667 -0.39800
O 	O 	0.44770 0.31681 0.25667 -0.40700
O 	O 	0.94770 0.18319 0.74333 -0.37500
O 	O 	0.94770 0.68319 0.24333 -0.37400
O 	O 	0.44770 0.18319 0.24333 -0.41100
O 	O 	0.44770 0.68319 0.74333 -0.40200
O 	O 	0.05230 0.18319 0.25667 -0.42800
O 	O 	0.05230 0.68319 0.75667 -0.42000
O 	O 	0.55230 0.18319 0.75667 -0.40900
O 	O 	0.55230 0.68319 0.25667 -0.40700
O 	O 	0.81681 0.25667 0.94770 -0.37000
O 	O 	0.81681 0.75667 0.44770 -0.39800
O 	O 	0.31681 0.25667 0.44770 -0.40700
O 	O 	0.31681 0.75667 0.94770 -0.37200
O 	O 	0.81681 0.74333 0.05230 -0.41400
O 	O 	0.81681 0.24333 0.55230 -0.40000
O 	O 	0.31681 0.74333 0.55230 -0.40200
O 	O 	0.31681 0.24333 0.05230 -0.42200
O 	O 	0.18319 0.25667 0.05230 -0.42800
O 	O 	0.18319 0.75667 0.55230 -0.40900
O 	O 	0.68319 0.25667 0.55230 -0.40700
O 	O 	0.68319 0.75667 0.05230 -0.42000
O 	O 	0.18319 0.74333 0.94770 -0.37500
O 	O 	0.18319 0.24333 0.44770 -0.41100
O 	O 	0.68319 0.74333 0.44770 -0.40200
O 	O 	0.68319 0.24333 0.94770 -0.37400
O 	O 	0.94770 0.74333 0.18319 -0.37500
O 	O 	0.94770 0.24333 0.68319 -0.37400
O 	O 	0.44770 0.74333 0.68319 -0.40200
O 	O 	0.44770 0.24333 0.18319 -0.41100
O 	O 	0.05230 0.25667 0.18319 -0.42800
O 	O 	0.05230 0.75667 0.68319 -0.42000
O 	O 	0.55230 0.25667 0.68319 -0.40700
O 	O 	0.55230 0.75667 0.18319 -0.40900
O 	O 	0.05230 0.74333 0.81681 -0.41400
O 	O 	0.05230 0.24333 0.31681 -0.42200
O 	O 	0.55230 0.74333 0.31681 -0.40200
O 	O 	0.55230 0.24333 0.81681 -0.40000
O 	O 	0.94770 0.25667 0.81681 -0.37000
O 	O 	0.94770 0.75667 0.31681 -0.37200
O 	O 	0.44770 0.25667 0.31681 -0.40700
O 	O 	0.44770 0.75667 0.81681 -0.39800
O 	O 	0.18319 0.94770 0.74333 -0.37500
O 	O 	0.18319 0.44770 0.24333 -0.41100
O 	O 	0.68319 0.94770 0.24333 -0.37400
O 	O 	0.68319 0.44770 0.74333 -0.40200
O 	O 	0.18319 0.05230 0.25667 -0.42800
O 	O 	0.18319 0.55230 0.75667 -0.40900
O 	O 	0.68319 0.05230 0.75667 -0.42000
O 	O 	0.68319 0.55230 0.25667 -0.40700
O 	O 	0.81681 0.05230 0.74333 -0.41400
O 	O 	0.81681 0.55230 0.24333 -0.40000
O 	O 	0.31681 0.05230 0.24333 -0.42200
O 	O 	0.31681 0.55230 0.74333 -0.40200
O 	O 	0.81681 0.94770 0.25667 -0.37000
O 	O 	0.81681 0.44770 0.75667 -0.39800
O 	O 	0.31681 0.94770 0.75667 -0.37200
O 	O 	0.31681 0.44770 0.25667 -0.40700
O 	O 	0.74333 0.18319 0.94770 -0.37500
O 	O 	0.74333 0.68319 0.44770 -0.40200
O 	O 	0.24333 0.18319 0.44770 -0.41100
O 	O 	0.24333 0.68319 0.94770 -0.37400
O 	O 	0.25667 0.18319 0.05230 -0.42800
O 	O 	0.25667 0.68319 0.55230 -0.40700
O 	O 	0.75667 0.18319 0.55230 -0.40900
O 	O 	0.75667 0.68319 0.05230 -0.42000
O 	O 	0.74333 0.81681 0.05230 -0.41400
O 	O 	0.74333 0.31681 0.55230 -0.40200
O 	O 	0.24333 0.81681 0.55230 -0.40000
O 	O 	0.24333 0.31681 0.05230 -0.42200
O 	O 	0.25667 0.81681 0.94770 -0.37000
O 	O 	0.25667 0.31681 0.44770 -0.40700
O 	O 	0.75667 0.81681 0.44770 -0.39800
O 	O 	0.75667 0.31681 0.94770 -0.37200
O 	O 	0.74333 0.94770 0.81681 -0.36500
O 	O 	0.74333 0.44770 0.31681 -0.40200
O 	O 	0.24333 0.94770 0.31681 -0.37400
O 	O 	0.24333 0.44770 0.81681 -0.40000
O 	O 	0.25667 0.05230 0.81681 -0.41800
O 	O 	0.25667 0.55230 0.31681 -0.40700
O 	O 	0.75667 0.05230 0.31681 -0.42000
O 	O 	0.75667 0.55230 0.81681 -0.39800
O 	O 	0.74333 0.05230 0.18319 -0.42300
O 	O 	0.74333 0.55230 0.68319 -0.40200
O 	O 	0.24333 0.05230 0.68319 -0.42200
O 	O 	0.24333 0.55230 0.18319 -0.41100
O 	O 	0.25667 0.94770 0.18319 -0.38000
O 	O 	0.25667 0.44770 0.68319 -0.40700
O 	O 	0.75667 0.94770 0.68319 -0.37200
O 	O 	0.75667 0.44770 0.18319 -0.40900
O 	O 	0.94770 0.18319 0.25667 -0.38000
O 	O 	0.94770 0.68319 0.75667 -0.37200
O 	O 	0.44770 0.18319 0.75667 -0.40900
O 	O 	0.44770 0.68319 0.25667 -0.40700
O 	O 	0.05230 0.18319 0.74333 -0.42300
O 	O 	0.05230 0.68319 0.24333 -0.42200
O 	O 	0.55230 0.18319 0.24333 -0.41100
O 	O 	0.55230 0.68319 0.74333 -0.40200
O 	O 	0.05230 0.81681 0.25667 -0.41800
O 	O 	0.05230 0.31681 0.75667 -0.42000
O 	O 	0.55230 0.81681 0.75667 -0.39800
O 	O 	0.55230 0.31681 0.25667 -0.40700
O 	O 	0.94770 0.81681 0.74333 -0.36500
O 	O 	0.94770 0.31681 0.24333 -0.37400
O 	O 	0.44770 0.81681 0.24333 -0.40000
O 	O 	0.44770 0.31681 0.74333 -0.40200
O 	O 	0.18319 0.74333 0.05230 -0.42300
O 	O 	0.18319 0.24333 0.55230 -0.41100
O 	O 	0.68319 0.74333 0.55230 -0.40200
O 	O 	0.68319 0.24333 0.05230 -0.42200
O 	O 	0.18319 0.25667 0.94770 -0.38000
O 	O 	0.18319 0.75667 0.44770 -0.40900
O 	O 	0.68319 0.25667 0.44770 -0.40700
O 	O 	0.68319 0.75667 0.94770 -0.37200
O 	O 	0.81681 0.74333 0.94770 -0.36500
O 	O 	0.81681 0.24333 0.44770 -0.40000
O 	O 	0.31681 0.74333 0.44770 -0.40200
O 	O 	0.31681 0.24333 0.94770 -0.37400
O 	O 	0.81681 0.25667 0.05230 -0.41800
O 	O 	0.81681 0.75667 0.55230 -0.39800
O 	O 	0.31681 0.25667 0.55230 -0.40700
O 	O 	0.31681 0.75667 0.05230 -0.42000
Cu	Cu	-0.00000 0.21482 0.78518 0.88000
Cu	Cu	-0.00000 0.71482 0.28518 0.88000
Cu	Cu	0.50000 0.21482 0.28518 0.90700
Cu	Cu	0.50000 0.71482 0.78518 0.91100
Cu	Cu	0.00000 0.78518 0.78518 0.88300
Cu	Cu	-0.00000 0.28518 0.28518 0.88000
Cu	Cu	0.50000 0.78518 0.28518 0.91100
Cu	Cu	0.50000 0.28518 0.78518 0.91100
Cu	Cu	0.00000 0.21482 0.21482 0.87600
Cu	Cu	0.00000 0.71482 0.71482 0.88000
Cu	Cu	0.50000 0.21482 0.71482 0.90700
Cu	Cu	0.50000 0.71482 0.21482 0.90700
Cu	Cu	-0.00000 0.78518 0.21482 0.88000
Cu	Cu	-0.00000 0.28518 0.71482 0.88000
Cu	Cu	0.50000 0.78518 0.71482 0.91100
Cu	Cu	0.50000 0.28518 0.21482 0.90700
Cu	Cu	0.78518 0.00000 0.21482 0.88000
Cu	Cu	0.78518 0.50000 0.71482 0.91100
Cu	Cu	0.28518 0.00000 0.71482 0.88000
Cu	Cu	0.28518 0.50000 0.21482 0.90700
Cu	Cu	0.78518 0.00000 0.78518 0.88300
Cu	Cu	0.78518 0.50000 0.28518 0.91100
Cu	Cu	0.28518 0.00000 0.28518 0.88000
Cu	Cu	0.28518 0.50000 0.78518 0.91100
Cu	Cu	0.21482 0.00000 0.21482 0.87600
Cu	Cu	0.21482 0.50000 0.71482 0.90700
Cu	Cu	0.71482 0.00000 0.71482 0.88000
Cu	Cu	0.71482 0.50000 0.21482 0.90700
Cu	Cu	0.21482 0.00000 0.78518 0.88000
Cu	Cu	0.21482 0.50000 0.28518 0.90700
Cu	Cu	0.71482 0.00000 0.28518 0.88000
Cu	Cu	0.71482 0.50000 0.78518 0.91100
Cu	Cu	0.21482 0.78518 -0.00000 0.88000
Cu	Cu	0.21482 0.28518 0.50000 0.90700
Cu	Cu	0.71482 0.78518 0.50000 0.91100
Cu	Cu	0.71482 0.28518 -0.00000 0.88000
Cu	Cu	0.78518 0.78518 -0.00000 0.88300
Cu	Cu	0.78518 0.28518 0.50000 0.91100
Cu	Cu	0.28518 0.78518 0.50000 0.91100
Cu	Cu	0.28518 0.28518 -0.00000 0.88000
Cu	Cu	0.21482 0.21482 -0.00000 0.87600
Cu	Cu	0.21482 0.71482 0.50000 0.90700
Cu	Cu	0.71482 0.21482 0.50000 0.90700
Cu	Cu	0.71482 0.71482 -0.00000 0.88000
Cu	Cu	0.78518 0.21482 -0.00000 0.88000
Cu	Cu	0.78518 0.71482 0.50000 0.91100
Cu	Cu	0.28518 0.21482 0.50000 0.90700
Cu	Cu	0.28518 0.71482 -0.00000 0.88000
C 	C 	0.06890 0.29752 0.79752 0.38500
C 	C 	0.11220 0.32324 0.82324 -0.17500
C 	C 	0.56890 0.29752 0.29752 0.38700
C 	C 	0.61220 0.32324 0.32324 -0.17300
C 	C 	0.93110 0.70248 0.79752 0.38400
C 	C 	0.88780 0.67676 0.82324 -0.16700
C 	C 	0.93110 0.20248 0.29752 0.38200
C 	C 	0.88780 0.17676 0.32324 -0.16800
C 	C 	0.43110 0.70248 0.29752 0.38600
C 	C 	0.38780 0.67676 0.32324 -0.17300
C 	C 	0.93110 0.29752 0.20248 0.38200
C 	C 	0.88780 0.32324 0.17676 -0.16800
C 	C 	0.43110 0.29752 0.70248 0.38600
C 	C 	0.38780 0.32324 0.67676 -0.17300
C 	C 	0.06890 0.70248 0.20248 0.38200
C 	C 	0.11220 0.67676 0.17676 -0.17600
C 	C 	0.56890 0.70248 0.70248 0.38500
C 	C 	0.61220 0.67676 0.67676 -0.17300
C 	C 	0.56890 0.20248 0.20248 0.38400
C 	C 	0.61220 0.17676 0.17676 -0.17400
C 	C 	0.79752 0.06890 0.29752 0.38500
C 	C 	0.82324 0.11220 0.32324 -0.17500
C 	C 	0.79752 0.56890 0.79752 0.38800
C 	C 	0.82324 0.61220 0.82324 -0.17100
C 	C 	0.29752 0.56890 0.29752 0.38700
C 	C 	0.32324 0.61220 0.32324 -0.17300
C 	C 	0.79752 0.93110 0.70248 0.38400
C 	C 	0.82324 0.88780 0.67676 -0.16700
C 	C 	0.79752 0.43110 0.20248 0.38600
C 	C 	0.82324 0.38780 0.17676 -0.17200
C 	C 	0.29752 0.93110 0.20248 0.38200
C 	C 	0.32324 0.88780 0.17676 -0.16800
C 	C 	0.20248 0.93110 0.29752 0.38200
C 	C 	0.17676 0.88780 0.32324 -0.16800
C 	C 	0.20248 0.43110 0.79752 0.38600
C 	C 	0.17676 0.38780 0.82324 -0.17200
C 	C 	0.20248 0.06890 0.70248 0.38200
C 	C 	0.17676 0.11220 0.67676 -0.17600
C 	C 	0.20248 0.56890 0.20248 0.38400
C 	C 	0.17676 0.61220 0.17676 -0.17400
C 	C 	0.29752 0.79752 0.06890 0.38500
C 	C 	0.32324 0.82324 0.11220 -0.17500
C 	C 	0.29752 0.29752 0.56890 0.38700
C 	C 	0.32324 0.32324 0.61220 -0.17300
C 	C 	0.70248 0.79752 0.93110 0.38400
C 	C 	0.67676 0.82324 0.88780 -0.16700
C 	C 	0.70248 0.29752 0.43110 0.38600
C 	C 	0.67676 0.32324 0.38780 -0.17300
C 	C 	0.20248 0.29752 0.93110 0.38200
C 	C 	0.17676 0.32324 0.88780 -0.16800
C 	C 	0.29752 0.20248 0.93110 0.38200
C 	C 	0.32324 0.17676 0.88780 -0.16800
C 	C 	0.29752 0.70248 0.43110 0.38600
C 	C 	0.32324 0.67676 0.38780 -0.17300
C 	C 	0.70248 0.20248 0.06890 0.38200
C 	C 	0.67676 0.17676 0.11220 -0.17600
C 	C 	0.70248 0.70248 0.56890 0.38500
C 	C 	0.67676 0.67676 0.61220 -0.17300
C 	C 	0.20248 0.20248 0.56890 0.38400
C 	C 	0.17676 0.17676 0.61220 -0.17400
C 	C 	0.29752 0.06890 0.20248 0.38300
C 	C 	0.32324 0.11220 0.17676 -0.17600
C 	C 	0.29752 0.56890 0.70248 0.38600
C 	C 	0.32324 0.61220 0.67676 -0.17300
C 	C 	0.70248 0.93110 0.20248 0.38100
C 	C 	0.67676 0.88780 0.17676 -0.16800
C 	C 	0.70248 0.43110 0.70248 0.38500
C 	C 	0.67676 0.38780 0.67676 -0.17200
C 	C 	0.20248 0.43110 0.20248 0.38400
C 	C 	0.17676 0.38780 0.17676 -0.17400
C 	C 	0.29752 0.93110 0.79752 0.38400
C 	C 	0.32324 0.88780 0.82324 -0.16700
C 	C 	0.29752 0.43110 0.29752 0.38700
C 	C 	0.32324 0.38780 0.32324 -0.17300
C 	C 	0.70248 0.06890 0.79752 0.38500
C 	C 	0.67676 0.11220 0.82324 -0.17500
C 	C 	0.70248 0.56890 0.29752 0.38600
C 	C 	0.67676 0.61220 0.32324 -0.17300
C 	C 	0.20248 0.06890 0.29752 0.38300
C 	C 	0.17676 0.11220 0.32324 -0.17600
C 	C 	0.06890 0.79752 0.70248 0.38500
C 	C 	0.11220 0.82324 0.67676 -0.17500
C 	C 	0.06890 0.29752 0.20248 0.38300
C 	C 	0.11220 0.32324 0.17676 -0.17600
C 	C 	0.56890 0.79752 0.20248 0.38600
C 	C 	0.61220 0.82324 0.17676 -0.17200
C 	C 	0.93110 0.79752 0.29752 0.38400
C 	C 	0.88780 0.82324 0.32324 -0.16700
C 	C 	0.43110 0.79752 0.79752 0.38800
C 	C 	0.38780 0.82324 0.82324 -0.17100
C 	C 	0.43110 0.29752 0.29752 0.38700
C 	C 	0.38780 0.32324 0.32324 -0.17300
C 	C 	0.93110 0.20248 0.70248 0.38100
C 	C 	0.88780 0.17676 0.67676 -0.16800
C 	C 	0.43110 0.20248 0.20248 0.38400
C 	C 	0.38780 0.17676 0.17676 -0.17400
C 	C 	0.06890 0.20248 0.29752 0.38300
C 	C 	0.11220 0.17676 0.32324 -0.17600
C 	C 	0.56890 0.20248 0.79752 0.38600
C 	C 	0.61220 0.17676 0.82324 -0.17200
C 	C 	0.79752 0.29752 0.93110 0.38400
C 	C 	0.82324 0.32324 0.88780 -0.16700
C 	C 	0.79752 0.79752 0.43110 0.38800
C 	C 	0.82324 0.82324 0.38780 -0.17100
C 	C 	0.29752 0.29752 0.43110 0.38700
C 	C 	0.32324 0.32324 0.38780 -0.17300
C 	C 	0.79752 0.70248 0.06890 0.38500
C 	C 	0.82324 0.67676 0.11220 -0.17500
C 	C 	0.79752 0.20248 0.56890 0.38600
C 	C 	0.82324 0.17676 0.61220 -0.17200
C 	C 	0.29752 0.20248 0.06890 0.38300
C 	C 	0.32324 0.17676 0.11220 -0.17600
C 	C 	0.20248 0.29752 0.06890 0.38300
C 	C 	0.17676 0.32324 0.11220 -0.17600
C 	C 	0.20248 0.79752 0.56890 0.38600
C 	C 	0.17676 0.82324 0.61220 -0.17200
C 	C 	0.20248 0.70248 0.93110 0.38100
C 	C 	0.17676 0.67676 0.88780 -0.16800
C 	C 	0.20248 0.20248 0.43110 0.38400
C 	C 	0.17676 0.17676 0.38780 -0.17400
C 	C 	0.93110 0.70248 0.20248 0.38100
C 	C 	0.88780 0.67676 0.17676 -0.16800
C 	C 	0.43110 0.70248 0.70248 0.38500
C 	C 	0.38780 0.67676 0.67676 -0.17200
C 	C 	0.56890 0.29752 0.70248 0.38600
C 	C 	0.61220 0.32324 0.67676 -0.17300
C 	C 	0.06890 0.70248 0.79752 0.38500
C 	C 	0.11220 0.67676 0.82324 -0.17500
C 	C 	0.56890 0.70248 0.29752 0.38600
C 	C 	0.61220 0.67676 0.32324 -0.17300
C 	C 	0.93110 0.29752 0.79752 0.38400
C 	C 	0.88780 0.32324 0.82324 -0.16700
C 	C 	0.20248 0.93110 0.70248 0.38100
C 	C 	0.17676 0.88780 0.67676 -0.16800
C 	C 	0.20248 0.56890 0.79752 0.38600
C 	C 	0.17676 0.61220 0.82324 -0.17200
C 	C 	0.79752 0.06890 0.70248 0.38500
C 	C 	0.82324 0.11220 0.67676 -0.17500
C 	C 	0.79752 0.56890 0.20248 0.38600
C 	C 	0.82324 0.61220 0.17676 -0.17200
C 	C 	0.79752 0.93110 0.29752 0.38400
C 	C 	0.82324 0.88780 0.32324 -0.16700
C 	C 	0.79752 0.43110 0.79752 0.38800
C 	C 	0.82324 0.38780 0.82324 -0.17100
C 	C 	0.70248 0.20248 0.93110 0.38100
C 	C 	0.67676 0.17676 0.88780 -0.16800
C 	C 	0.70248 0.70248 0.43110 0.38500
C 	C 	0.67676 0.67676 0.38780 -0.17200
C 	C 	0.29752 0.70248 0.56890 0.38600
C 	C 	0.32324 0.67676 0.61220 -0.17300
C 	C 	0.70248 0.79752 0.06890 0.38500
C 	C 	0.67676 0.82324 0.11220 -0.17500
C 	C 	0.70248 0.29752 0.56890 0.38600
C 	C 	0.67676 0.32324 0.61220 -0.17300
C 	C 	0.29752 0.79752 0.93110 0.38400
C 	C 	0.32324 0.82324 0.88780 -0.16700
C 	C 	0.70248 0.93110 0.79752 0.38400
C 	C 	0.67676 0.88780 0.82324 -0.16700
C 	C 	0.70248 0.43110 0.29752 0.38600
C 	C 	0.67676 0.38780 0.32324 -0.17300
C 	C 	0.29752 0.06890 0.79752 0.38500
C 	C 	0.32324 0.11220 0.82324 -0.17500
C 	C 	0.70248 0.06890 0.20248 0.38200
C 	C 	0.67676 0.11220 0.17676 -0.17600
C 	C 	0.70248 0.56890 0.70248 0.38500
C 	C 	0.67676 0.61220 0.67676 -0.17300
C 	C 	0.29752 0.43110 0.70248 0.38600
C 	C 	0.32324 0.38780 0.67676 -0.17300
C 	C 	0.43110 0.20248 0.79752 0.38600
C 	C 	0.38780 0.17676 0.82324 -0.17200
C 	C 	0.06890 0.20248 0.70248 0.38200
C 	C 	0.11220 0.17676 0.67676 -0.17600
C 	C 	0.06890 0.79752 0.29752 0.38500
C 	C 	0.11220 0.82324 0.32324 -0.17500
C 	C 	0.56890 0.79752 0.79752 0.38800
C 	C 	0.61220 0.82324 0.82324 -0.17100
C 	C 	0.93110 0.79752 0.70248 0.38400
C 	C 	0.88780 0.82324 0.67676 -0.16700
C 	C 	0.43110 0.79752 0.20248 0.38600
C 	C 	0.38780 0.82324 0.17676 -0.17200
C 	C 	0.20248 0.70248 0.06890 0.38200
C 	C 	0.17676 0.67676 0.11220 -0.17600
C 	C 	0.20248 0.79752 0.43110 0.38600
C 	C 	0.17676 0.82324 0.38780 -0.17200
C 	C 	0.79752 0.70248 0.93110 0.38400
C 	C 	0.82324 0.67676 0.88780 -0.16700
C 	C 	0.79752 0.20248 0.43110 0.38600
C 	C 	0.82324 0.17676 0.38780 -0.17200
C 	C 	0.79752 0.29752 0.06890 0.38500
C 	C 	0.82324 0.32324 0.11220 -0.17500
C 	C 	0.79752 0.79752 0.56890 0.38800
C 	C 	0.82324 0.82324 0.61220 -0.17100
C 	C 	0.13360 0.36640 0.80170 0.13700
C 	C 	0.13360 0.86640 0.30170 0.14000
C 	C 	0.86640 0.63360 0.80170 0.15200
C 	C 	0.86640 0.13360 0.30170 0.14000
C 	C 	0.36640 0.13360 0.80170 0.13700
C 	C 	0.86640 0.36640 0.19830 0.14600
C 	C 	0.86640 0.86640 0.69830 0.15900
C 	C 	0.36640 0.36640 0.69830 0.14300
C 	C 	0.13360 0.63360 0.19830 0.13100
C 	C 	0.13360 0.13360 0.69830 0.12800
C 	C 	0.80170 0.13360 0.36640 0.13700
C 	C 	0.30170 0.13360 0.86640 0.14000
C 	C 	0.80170 0.86640 0.63360 0.15200
C 	C 	0.80170 0.36640 0.13360 0.13700
C 	C 	0.30170 0.86640 0.13360 0.14000
C 	C 	0.19830 0.86640 0.36640 0.14600
C 	C 	0.69830 0.86640 0.86640 0.15900
C 	C 	0.69830 0.36640 0.36640 0.14300
C 	C 	0.19830 0.13360 0.63360 0.13100
C 	C 	0.69830 0.13360 0.13360 0.12800
C 	C 	0.36640 0.80170 0.13360 0.13700
C 	C 	0.36640 0.30170 0.63360 0.14000
C 	C 	0.63360 0.80170 0.86640 0.15200
C 	C 	0.63360 0.30170 0.36640 0.14000
C 	C 	0.13360 0.80170 0.36640 0.13700
C 	C 	0.36640 0.19830 0.86640 0.14600
C 	C 	0.36640 0.69830 0.36640 0.14300
C 	C 	0.63360 0.19830 0.13360 0.13100
C 	C 	0.63360 0.69830 0.63360 0.14400
C 	C 	0.13360 0.69830 0.13360 0.12800
C 	C 	0.36640 0.13360 0.19830 0.13100
C 	C 	0.36640 0.63360 0.69830 0.14300
C 	C 	0.63360 0.86640 0.19830 0.14700
C 	C 	0.63360 0.36640 0.69830 0.14300
C 	C 	0.13360 0.36640 0.19830 0.13100
C 	C 	0.36640 0.86640 0.80170 0.15200
C 	C 	0.36640 0.36640 0.30170 0.14000
C 	C 	0.63360 0.13360 0.80170 0.13700
C 	C 	0.63360 0.63360 0.30170 0.14000
C 	C 	0.13360 0.13360 0.30170 0.12500
C 	C 	0.13360 0.80170 0.63360 0.13700
C 	C 	0.13360 0.30170 0.13360 0.12500
C 	C 	0.86640 0.80170 0.36640 0.15200
C 	C 	0.86640 0.30170 0.86640 0.15500
C 	C 	0.36640 0.30170 0.36640 0.14000
C 	C 	0.86640 0.19830 0.63360 0.14700
C 	C 	0.86640 0.69830 0.13360 0.14300
C 	C 	0.36640 0.19830 0.13360 0.13100
C 	C 	0.13360 0.19830 0.36640 0.13100
C 	C 	0.13360 0.69830 0.86640 0.14300
C 	C 	0.80170 0.36640 0.86640 0.15200
C 	C 	0.30170 0.36640 0.36640 0.14000
C 	C 	0.80170 0.63360 0.13360 0.13700
C 	C 	0.30170 0.63360 0.63360 0.14000
C 	C 	0.30170 0.13360 0.13360 0.12500
C 	C 	0.19830 0.36640 0.13360 0.13100
C 	C 	0.69830 0.36640 0.63360 0.14300
C 	C 	0.19830 0.63360 0.86640 0.14700
C 	C 	0.19830 0.13360 0.36640 0.13100
C 	C 	0.69830 0.63360 0.36640 0.14300
C 	C 	0.86640 0.63360 0.19830 0.14700
C 	C 	0.86640 0.13360 0.69830 0.14300
C 	C 	0.13360 0.86640 0.69830 0.14300
C 	C 	0.13360 0.63360 0.80170 0.13700
C 	C 	0.86640 0.36640 0.80170 0.15200
C 	C 	0.86640 0.86640 0.30170 0.15500
C 	C 	0.19830 0.86640 0.63360 0.14700
C 	C 	0.69830 0.86640 0.13360 0.14300
C 	C 	0.69830 0.13360 0.86640 0.14300
C 	C 	0.80170 0.13360 0.63360 0.13700
C 	C 	0.80170 0.86640 0.36640 0.15200
C 	C 	0.30170 0.86640 0.86640 0.15500
C 	C 	0.63360 0.19830 0.86640 0.14700
C 	C 	0.63360 0.69830 0.36640 0.14300
C 	C 	0.36640 0.69830 0.63360 0.14300
C 	C 	0.63360 0.80170 0.13360 0.13700
C 	C 	0.63360 0.30170 0.63360 0.14000
C 	C 	0.36640 0.80170 0.86640 0.15200
C 	C 	0.63360 0.86640 0.80170 0.15200
C 	C 	0.63360 0.36640 0.30170 0.14000
C 	C 	0.36640 0.63360 0.30170 0.14000
C 	C 	0.63360 0.13360 0.19830 0.13100
C 	C 	0.63360 0.63360 0.69830 0.14400
C 	C 	0.36640 0.86640 0.19830 0.14600
C 	C 	0.86640 0.19830 0.36640 0.14600
C 	C 	0.86640 0.69830 0.86640 0.15900
C 	C 	0.13360 0.19830 0.63360 0.13100
C 	C 	0.13360 0.30170 0.86640 0.14000
C 	C 	0.86640 0.80170 0.63360 0.15200
C 	C 	0.86640 0.30170 0.13360 0.14000
C 	C 	0.19830 0.63360 0.13360 0.13100
C 	C 	0.69830 0.63360 0.63360 0.14400
C 	C 	0.19830 0.36640 0.86640 0.14600
C 	C 	0.80170 0.63360 0.86640 0.15200
C 	C 	0.30170 0.63360 0.36640 0.14000
C 	C 	0.30170 0.36640 0.63360 0.14000
