data_crystal

_cell_length_a 31.07000
_cell_length_b 31.07000
_cell_length_c 31.86200
_cell_angle_alpha 90.00000
_cell_angle_beta  90.00000
_cell_angle_gamma 120.00000

_symmetry_space_group_name_	'P 1'
_symmetry_space_group_name_H-M	'P 1'

loop_
_symmetry_equiv_pos_as_xyz
  x,y,z

loop_
_atom_site_label
_atom_site_type_symbol
_atom_site_fract_x
_atom_site_fract_y
_atom_site_fract_z
_atom_site_charge
C 	C 	0.06029 0.58082 0.22845 0.10100
H 	H 	0.03050 0.57260 0.21510 -0.02600
C 	C 	0.09979 0.62883 0.22428 -0.17900
H 	H 	0.09650 0.65230 0.20880 0.10100
C 	C 	0.14423 0.64106 0.24364 0.12500
C 	C 	0.14692 0.60551 0.26780 -0.17800
H 	H 	0.17600 0.61310 0.28200 0.09300
C 	C 	0.10565 0.55838 0.27055 0.09800
H 	H 	0.10770 0.53460 0.28680 -0.02200
C 	C 	0.48857 0.98115 0.34653 0.09500
H 	H 	0.50910 0.97340 0.33100 -0.01500
C 	C 	0.49170 0.98144 0.38985 -0.16900
H 	H 	0.51420 0.97450 0.40300 0.10000
C 	C 	0.46044 0.99234 0.41351 0.13200
C 	C 	0.42691 0.00172 0.39246 -0.18400
H 	H 	0.40500 0.00820 0.40730 0.09000
C 	C 	0.42669 0.00125 0.34874 0.08800
H 	H 	0.40440 0.00800 0.33480 -0.02000
C 	C 	0.46373 0.99572 0.45947 -0.05200
H 	H 	0.43870 0.99620 0.47510 0.06200
C 	C 	0.37055 0.89991 0.21390 0.08800
H 	H 	0.39620 0.90400 0.19630 -0.01000
C 	C 	0.32623 0.85555 0.21246 -0.17200
H 	H 	0.32220 0.83030 0.19440 0.10600
C 	C 	0.28759 0.84940 0.23865 0.12500
C 	C 	0.29493 0.88856 0.26375 -0.18500
H 	H 	0.26940 0.88590 0.28080 0.09900
C 	C 	0.34043 0.93184 0.26341 0.10000
H 	H 	0.34480 0.95810 0.28040 -0.02100
C 	C 	0.24051 0.80134 0.24009 -0.05500
H 	H 	0.21700 0.79550 0.26070 0.06800
C 	C 	0.18868 0.69095 0.23934 -0.05300
H 	H 	0.21780 0.69810 0.25320 0.06000
N 	N 	0.06293 0.54578 0.25078 -0.25000
N 	N 	0.45697 0.99164 0.32577 -0.23200
N 	N 	0.50134 0.99796 0.47780 -0.07200
N 	N 	0.18758 0.72388 0.21714 -0.07400
N 	N 	0.23243 0.76825 0.21311 -0.07200
N 	N 	0.37849 0.93765 0.23961 -0.24800
C 	C 	0.41918 0.47947 0.22845 0.10100
H 	H 	0.42740 0.45790 0.21510 -0.02300
C 	C 	0.37117 0.47096 0.22428 -0.17900
H 	H 	0.34770 0.44420 0.20880 0.10100
C 	C 	0.35894 0.50317 0.24364 0.12400
C 	C 	0.39449 0.54141 0.26780 -0.17800
H 	H 	0.38690 0.56290 0.28200 0.09200
C 	C 	0.44162 0.54727 0.27055 0.09700
H 	H 	0.46540 0.57310 0.28680 -0.02200
C 	C 	0.01885 0.50742 0.34653 0.08000
H 	H 	0.02660 0.53570 0.33100 -0.01600
C 	C 	0.01856 0.51026 0.38985 -0.15500
H 	H 	0.02550 0.53970 0.40300 0.08900
C 	C 	0.00766 0.46810 0.41351 0.09300
C 	C 	0.99828 0.42519 0.39246 -0.14900
H 	H 	0.99180 0.39680 0.40730 0.08400
C 	C 	0.99875 0.42544 0.34874 0.09800
H 	H 	0.99200 0.39640 0.33480 -0.01800
C 	C 	0.00428 0.46801 0.45947 -0.04200
H 	H 	0.00380 0.44250 0.47510 0.04900
C 	C 	0.10009 0.47064 0.21390 0.08800
H 	H 	0.09600 0.49220 0.19630 -0.01200
C 	C 	0.14445 0.47068 0.21246 -0.17400
H 	H 	0.16970 0.49190 0.19440 0.10600
C 	C 	0.15060 0.43819 0.23865 0.12600
C 	C 	0.11144 0.40637 0.26375 -0.18800
H 	H 	0.11410 0.38350 0.28080 0.09800
C 	C 	0.06816 0.40859 0.26341 0.10000
H 	H 	0.04190 0.38670 0.28040 -0.02800
C 	C 	0.19866 0.43917 0.24009 -0.05600
H 	H 	0.20450 0.42150 0.26070 0.06800
C 	C 	0.30905 0.49773 0.23934 -0.05300
H 	H 	0.30190 0.51970 0.25320 0.06000
N 	N 	0.45422 0.51715 0.25078 -0.24900
N 	N 	0.00836 0.46533 0.32577 -0.24300
N 	N 	0.00204 0.50338 0.47780 -0.08700
N 	N 	0.27612 0.46370 0.21714 -0.07400
N 	N 	0.23175 0.46418 0.21311 -0.07200
N 	N 	0.06235 0.44084 0.23961 -0.25300
C 	C 	0.52053 0.93971 0.22845 0.10100
H 	H 	0.54210 0.96950 0.21510 -0.01900
C 	C 	0.52904 0.90021 0.22428 -0.17800
H 	H 	0.55580 0.90350 0.20880 0.10100
C 	C 	0.49683 0.85577 0.24364 0.12400
C 	C 	0.45859 0.85308 0.26780 -0.17800
H 	H 	0.43710 0.82400 0.28200 0.09200
C 	C 	0.45273 0.89435 0.27055 0.09700
H 	H 	0.42690 0.89230 0.28680 -0.02200
C 	C 	0.49258 0.51143 0.34653 0.08700
H 	H 	0.46430 0.49090 0.33100 -0.01600
C 	C 	0.48974 0.50830 0.38985 -0.16200
H 	H 	0.46030 0.48580 0.40300 0.09400
C 	C 	0.53190 0.53956 0.41351 0.11200
C 	C 	0.57481 0.57309 0.39246 -0.16700
H 	H 	0.60320 0.59500 0.40730 0.08700
C 	C 	0.57456 0.57331 0.34874 0.09200
H 	H 	0.60360 0.59560 0.33480 -0.02000
C 	C 	0.53199 0.53627 0.45947 -0.04800
H 	H 	0.55750 0.56130 0.47510 0.05500
C 	C 	0.52936 0.62945 0.21390 0.08700
H 	H 	0.50780 0.60380 0.19630 -0.01100
C 	C 	0.52932 0.67377 0.21246 -0.17300
H 	H 	0.50810 0.67780 0.19440 0.10600
C 	C 	0.56181 0.71241 0.23865 0.12600
C 	C 	0.59363 0.70507 0.26375 -0.18700
H 	H 	0.61650 0.73060 0.28080 0.09800
C 	C 	0.59141 0.65957 0.26341 0.10000
H 	H 	0.61330 0.65520 0.28040 -0.02500
C 	C 	0.56083 0.75949 0.24009 -0.05500
H 	H 	0.57850 0.78300 0.26070 0.06800
C 	C 	0.50227 0.81132 0.23934 -0.05200
H 	H 	0.48030 0.78220 0.25320 0.06000
N 	N 	0.48285 0.93707 0.25078 -0.24700
N 	N 	0.53467 0.54303 0.32577 -0.23700
N 	N 	0.49662 0.49866 0.47780 -0.08000
N 	N 	0.53630 0.81242 0.21714 -0.07400
N 	N 	0.53582 0.76757 0.21311 -0.07200
N 	N 	0.55916 0.62151 0.23961 -0.25100
C 	C 	0.58082 0.06029 0.27155 0.10000
H 	H 	0.57260 0.03050 0.28490 -0.02700
C 	C 	0.62883 0.09979 0.27572 -0.18000
H 	H 	0.65230 0.09650 0.29120 0.10000
C 	C 	0.64106 0.14423 0.25636 0.12400
C 	C 	0.60551 0.14692 0.23220 -0.17900
H 	H 	0.61310 0.17600 0.21800 0.09200
C 	C 	0.55838 0.10565 0.22945 0.09700
H 	H 	0.53460 0.10770 0.21320 -0.02300
C 	C 	0.98115 0.48857 0.15347 0.09400
H 	H 	0.97340 0.50910 0.16900 -0.01600
C 	C 	0.98144 0.49170 0.11015 -0.17000
H 	H 	0.97450 0.51420 0.09700 0.09900
C 	C 	0.99234 0.46044 0.08649 0.13100
C 	C 	0.00172 0.42691 0.10754 -0.18500
H 	H 	0.00820 0.40500 0.09270 0.08900
C 	C 	0.00125 0.42669 0.15126 0.08700
H 	H 	0.00800 0.40440 0.16520 -0.02100
C 	C 	0.99572 0.46373 0.04053 -0.05300
H 	H 	0.99620 0.43870 0.02490 0.06100
C 	C 	0.89991 0.37055 0.28610 0.08700
H 	H 	0.90400 0.39620 0.30370 -0.01000
C 	C 	0.85555 0.32623 0.28754 -0.17200
H 	H 	0.83030 0.32220 0.30560 0.10600
C 	C 	0.84940 0.28759 0.26135 0.12500
C 	C 	0.88856 0.29493 0.23625 -0.18500
H 	H 	0.88590 0.26940 0.21920 0.09900
C 	C 	0.93184 0.34043 0.23659 0.10000
H 	H 	0.95810 0.34480 0.21960 -0.02100
C 	C 	0.80134 0.24051 0.25991 -0.05500
H 	H 	0.79550 0.21700 0.23930 0.06800
C 	C 	0.69095 0.18868 0.26066 -0.05300
H 	H 	0.69810 0.21780 0.24680 0.06000
N 	N 	0.54578 0.06293 0.24922 -0.25000
N 	N 	0.99164 0.45697 0.17423 -0.23200
N 	N 	0.99796 0.50134 0.02220 -0.07200
N 	N 	0.72388 0.18758 0.28286 -0.07400
N 	N 	0.76825 0.23243 0.28689 -0.07200
N 	N 	0.93765 0.37849 0.26039 -0.24800
C 	C 	0.47947 0.41918 0.27155 0.10100
H 	H 	0.45790 0.42740 0.28490 -0.02300
C 	C 	0.47096 0.37117 0.27572 -0.17900
H 	H 	0.44420 0.34770 0.29120 0.10100
C 	C 	0.50317 0.35894 0.25636 0.12400
C 	C 	0.54141 0.39449 0.23220 -0.17800
H 	H 	0.56290 0.38690 0.21800 0.09200
C 	C 	0.54727 0.44162 0.22945 0.09700
H 	H 	0.57310 0.46540 0.21320 -0.02200
C 	C 	0.50742 0.01885 0.15347 0.08000
H 	H 	0.53570 0.02660 0.16900 -0.01600
C 	C 	0.51026 0.01856 0.11015 -0.15500
H 	H 	0.53970 0.02550 0.09700 0.08900
C 	C 	0.46810 0.00766 0.08649 0.09400
C 	C 	0.42519 0.99828 0.10754 -0.14900
H 	H 	0.39680 0.99180 0.09270 0.08400
C 	C 	0.42544 0.99875 0.15126 0.09800
H 	H 	0.39640 0.99200 0.16520 -0.01800
C 	C 	0.46801 0.00428 0.04053 -0.04200
H 	H 	0.44250 0.00380 0.02490 0.04900
C 	C 	0.47064 0.10009 0.28610 0.08800
H 	H 	0.49220 0.09600 0.30370 -0.01200
C 	C 	0.47068 0.14445 0.28754 -0.17400
H 	H 	0.49190 0.16970 0.30560 0.10600
C 	C 	0.43819 0.15060 0.26135 0.12600
C 	C 	0.40637 0.11144 0.23625 -0.18800
H 	H 	0.38350 0.11410 0.21920 0.09800
C 	C 	0.40859 0.06816 0.23659 0.10000
H 	H 	0.38670 0.04190 0.21960 -0.02800
C 	C 	0.43917 0.19866 0.25991 -0.05600
H 	H 	0.42150 0.20450 0.23930 0.06800
C 	C 	0.49773 0.30905 0.26066 -0.05300
H 	H 	0.51970 0.30190 0.24680 0.06000
N 	N 	0.51715 0.45422 0.24922 -0.24900
N 	N 	0.46533 0.00836 0.17423 -0.24300
N 	N 	0.50338 0.00204 0.02220 -0.08700
N 	N 	0.46370 0.27612 0.28286 -0.07400
N 	N 	0.46418 0.23175 0.28689 -0.07200
N 	N 	0.44084 0.06235 0.26039 -0.25300
C 	C 	0.93971 0.52053 0.27155 0.10100
H 	H 	0.96950 0.54210 0.28490 -0.01900
C 	C 	0.90021 0.52904 0.27572 -0.17800
H 	H 	0.90350 0.55580 0.29120 0.10100
C 	C 	0.85577 0.49683 0.25636 0.12400
C 	C 	0.85308 0.45859 0.23220 -0.17800
H 	H 	0.82400 0.43710 0.21800 0.09200
C 	C 	0.89435 0.45273 0.22945 0.09700
H 	H 	0.89230 0.42690 0.21320 -0.02200
C 	C 	0.51143 0.49258 0.15347 0.08700
H 	H 	0.49090 0.46430 0.16900 -0.01600
C 	C 	0.50830 0.48974 0.11015 -0.16200
H 	H 	0.48580 0.46030 0.09700 0.09400
C 	C 	0.53956 0.53190 0.08649 0.11200
C 	C 	0.57309 0.57481 0.10754 -0.16700
H 	H 	0.59500 0.60320 0.09270 0.08700
C 	C 	0.57331 0.57456 0.15126 0.09200
H 	H 	0.59560 0.60360 0.16520 -0.02000
C 	C 	0.53627 0.53199 0.04053 -0.04800
H 	H 	0.56130 0.55750 0.02490 0.05500
C 	C 	0.62945 0.52936 0.28610 0.08700
H 	H 	0.60380 0.50780 0.30370 -0.01100
C 	C 	0.67377 0.52932 0.28754 -0.17300
H 	H 	0.67780 0.50810 0.30560 0.10600
C 	C 	0.71241 0.56181 0.26135 0.12600
C 	C 	0.70507 0.59363 0.23625 -0.18700
H 	H 	0.73060 0.61650 0.21920 0.09800
C 	C 	0.65957 0.59141 0.23659 0.10000
H 	H 	0.65520 0.61330 0.21960 -0.02500
C 	C 	0.75949 0.56083 0.25991 -0.05500
H 	H 	0.78300 0.57850 0.23930 0.06800
C 	C 	0.81132 0.50227 0.26066 -0.05200
H 	H 	0.78220 0.48030 0.24680 0.06000
N 	N 	0.93707 0.48285 0.24922 -0.24700
N 	N 	0.54303 0.53467 0.17423 -0.23700
N 	N 	0.49866 0.49662 0.02220 -0.08000
N 	N 	0.81242 0.53630 0.28286 -0.07400
N 	N 	0.76757 0.53582 0.28689 -0.07200
N 	N 	0.62151 0.55916 0.26039 -0.25100
C 	C 	0.93971 0.41918 0.77155 0.10100
H 	H 	0.96950 0.42740 0.78490 -0.01900
C 	C 	0.90021 0.37117 0.77572 -0.17800
H 	H 	0.90350 0.34770 0.79120 0.10100
C 	C 	0.85577 0.35894 0.75636 0.12400
C 	C 	0.85308 0.39449 0.73220 -0.17800
H 	H 	0.82400 0.38690 0.71800 0.09200
C 	C 	0.89435 0.44162 0.72945 0.09700
H 	H 	0.89230 0.46540 0.71320 -0.02200
C 	C 	0.51143 0.01885 0.65347 0.08000
H 	H 	0.49090 0.02660 0.66900 -0.01600
C 	C 	0.50830 0.01856 0.61015 -0.15500
H 	H 	0.48580 0.02550 0.59700 0.08900
C 	C 	0.53956 0.00766 0.58649 0.09300
C 	C 	0.57309 0.99828 0.60754 -0.14900
H 	H 	0.59500 0.99180 0.59270 0.08400
C 	C 	0.57331 0.99875 0.65126 0.09800
H 	H 	0.59560 0.99200 0.66520 -0.01800
C 	C 	0.53627 0.00428 0.54053 -0.04200
H 	H 	0.56130 0.00380 0.52490 0.04900
C 	C 	0.62945 0.10009 0.78610 0.08800
H 	H 	0.60380 0.09600 0.80370 -0.01200
C 	C 	0.67377 0.14445 0.78754 -0.17400
H 	H 	0.67780 0.16970 0.80560 0.10600
C 	C 	0.71241 0.15060 0.76135 0.12600
C 	C 	0.70507 0.11144 0.73625 -0.18800
H 	H 	0.73060 0.11410 0.71920 0.09800
C 	C 	0.65957 0.06816 0.73659 0.10000
H 	H 	0.65520 0.04190 0.71960 -0.02800
C 	C 	0.75949 0.19866 0.75991 -0.05600
H 	H 	0.78300 0.20450 0.73930 0.06800
C 	C 	0.81132 0.30905 0.76066 -0.05200
H 	H 	0.78220 0.30190 0.74680 0.06000
N 	N 	0.93707 0.45422 0.74922 -0.24700
N 	N 	0.54303 0.00836 0.67423 -0.24300
N 	N 	0.49866 0.00204 0.52220 -0.08700
N 	N 	0.81242 0.27612 0.78286 -0.07400
N 	N 	0.76757 0.23175 0.78689 -0.07200
N 	N 	0.62151 0.06235 0.76039 -0.25300
C 	C 	0.58082 0.52053 0.77155 0.10100
H 	H 	0.57260 0.54210 0.78490 -0.02300
C 	C 	0.62883 0.52904 0.77572 -0.17900
H 	H 	0.65230 0.55580 0.79120 0.10100
C 	C 	0.64106 0.49683 0.75636 0.12400
C 	C 	0.60551 0.45859 0.73220 -0.17800
H 	H 	0.61310 0.43710 0.71800 0.09200
C 	C 	0.55838 0.45273 0.72945 0.09700
H 	H 	0.53460 0.42690 0.71320 -0.02200
C 	C 	0.98115 0.49258 0.65347 0.09400
H 	H 	0.97340 0.46430 0.66900 -0.01600
C 	C 	0.98144 0.48974 0.61015 -0.17000
H 	H 	0.97450 0.46030 0.59700 0.09900
C 	C 	0.99234 0.53190 0.58649 0.13100
C 	C 	0.00172 0.57481 0.60754 -0.18500
H 	H 	0.00820 0.60320 0.59270 0.08900
C 	C 	0.00125 0.57456 0.65126 0.08700
H 	H 	0.00800 0.60360 0.66520 -0.02100
C 	C 	0.99572 0.53199 0.54053 -0.05300
H 	H 	0.99620 0.55750 0.52490 0.06100
C 	C 	0.89991 0.52936 0.78610 0.08700
H 	H 	0.90400 0.50780 0.80370 -0.01000
C 	C 	0.85555 0.52932 0.78754 -0.17200
H 	H 	0.83030 0.50810 0.80560 0.10600
C 	C 	0.84940 0.56181 0.76135 0.12500
C 	C 	0.88856 0.59363 0.73625 -0.18600
H 	H 	0.88590 0.61650 0.71920 0.09900
C 	C 	0.93184 0.59141 0.73659 0.10000
H 	H 	0.95810 0.61330 0.71960 -0.02100
C 	C 	0.80134 0.56083 0.75991 -0.05500
H 	H 	0.79550 0.57850 0.73930 0.06800
C 	C 	0.69095 0.50227 0.76066 -0.05300
H 	H 	0.69810 0.48030 0.74680 0.06000
N 	N 	0.54578 0.48285 0.74922 -0.24900
N 	N 	0.99164 0.53467 0.67423 -0.23200
N 	N 	0.99796 0.49662 0.52220 -0.07200
N 	N 	0.72388 0.53630 0.78286 -0.07400
N 	N 	0.76825 0.53582 0.78689 -0.07200
N 	N 	0.93765 0.55916 0.76039 -0.24800
C 	C 	0.47947 0.06029 0.77155 0.10000
H 	H 	0.45790 0.03050 0.78490 -0.02700
C 	C 	0.47096 0.09979 0.77572 -0.18000
H 	H 	0.44420 0.09650 0.79120 0.10000
C 	C 	0.50317 0.14423 0.75636 0.12400
C 	C 	0.54141 0.14692 0.73220 -0.17900
H 	H 	0.56290 0.17600 0.71800 0.09200
C 	C 	0.54727 0.10565 0.72945 0.09700
H 	H 	0.57310 0.10770 0.71320 -0.02300
C 	C 	0.50742 0.48857 0.65347 0.08700
H 	H 	0.53570 0.50910 0.66900 -0.01600
C 	C 	0.51026 0.49170 0.61015 -0.16200
H 	H 	0.53970 0.51420 0.59700 0.09400
C 	C 	0.46810 0.46044 0.58649 0.11200
C 	C 	0.42519 0.42691 0.60754 -0.16700
H 	H 	0.39680 0.40500 0.59270 0.08700
C 	C 	0.42544 0.42669 0.65126 0.09200
H 	H 	0.39640 0.40440 0.66520 -0.02000
C 	C 	0.46801 0.46373 0.54053 -0.04800
H 	H 	0.44250 0.43870 0.52490 0.05500
C 	C 	0.47064 0.37055 0.78610 0.08700
H 	H 	0.49220 0.39620 0.80370 -0.01100
C 	C 	0.47068 0.32623 0.78754 -0.17300
H 	H 	0.49190 0.32220 0.80560 0.10600
C 	C 	0.43819 0.28759 0.76135 0.12500
C 	C 	0.40637 0.29493 0.73625 -0.18700
H 	H 	0.38350 0.26940 0.71920 0.09800
C 	C 	0.40859 0.34043 0.73659 0.10000
H 	H 	0.38670 0.34480 0.71960 -0.02500
C 	C 	0.43917 0.24051 0.75991 -0.05500
H 	H 	0.42150 0.21700 0.73930 0.06800
C 	C 	0.49773 0.18868 0.76066 -0.05300
H 	H 	0.51970 0.21780 0.74680 0.06000
N 	N 	0.51715 0.06293 0.74922 -0.25000
N 	N 	0.46533 0.45697 0.67423 -0.23700
N 	N 	0.50338 0.50134 0.52220 -0.08000
N 	N 	0.46370 0.18758 0.78286 -0.07400
N 	N 	0.46418 0.23243 0.78689 -0.07200
N 	N 	0.44084 0.37849 0.76039 -0.25100
C 	C 	0.41918 0.93971 0.72845 0.10100
H 	H 	0.42740 0.96950 0.71510 -0.01900
C 	C 	0.37117 0.90021 0.72428 -0.17800
H 	H 	0.34770 0.90350 0.70880 0.10100
C 	C 	0.35894 0.85577 0.74364 0.12400
C 	C 	0.39449 0.85308 0.76780 -0.17800
H 	H 	0.38690 0.82400 0.78200 0.09200
C 	C 	0.44162 0.89435 0.77055 0.09700
H 	H 	0.46540 0.89230 0.78680 -0.02200
C 	C 	0.01885 0.51143 0.84653 0.08000
H 	H 	0.02660 0.49090 0.83100 -0.01600
C 	C 	0.01856 0.50830 0.88985 -0.15500
H 	H 	0.02550 0.48580 0.90300 0.08900
C 	C 	0.00766 0.53956 0.91351 0.09400
C 	C 	0.99828 0.57309 0.89246 -0.14900
H 	H 	0.99180 0.59500 0.90730 0.08400
C 	C 	0.99875 0.57331 0.84874 0.09800
H 	H 	0.99200 0.59560 0.83480 -0.01800
C 	C 	0.00428 0.53627 0.95947 -0.04200
H 	H 	0.00380 0.56130 0.97510 0.04900
C 	C 	0.10009 0.62945 0.71390 0.08800
H 	H 	0.09600 0.60380 0.69630 -0.01200
C 	C 	0.14445 0.67377 0.71246 -0.17400
H 	H 	0.16970 0.67780 0.69440 0.10600
C 	C 	0.15060 0.71241 0.73865 0.12600
C 	C 	0.11144 0.70507 0.76375 -0.18800
H 	H 	0.11410 0.73060 0.78080 0.09800
C 	C 	0.06816 0.65957 0.76341 0.10000
H 	H 	0.04190 0.65520 0.78040 -0.02800
C 	C 	0.19866 0.75949 0.74009 -0.05600
H 	H 	0.20450 0.78300 0.76070 0.06800
C 	C 	0.30905 0.81132 0.73934 -0.05200
H 	H 	0.30190 0.78220 0.75320 0.06000
N 	N 	0.45422 0.93707 0.75078 -0.24700
N 	N 	0.00836 0.54303 0.82577 -0.24300
N 	N 	0.00204 0.49866 0.97780 -0.08700
N 	N 	0.27612 0.81242 0.71714 -0.07400
N 	N 	0.23175 0.76757 0.71311 -0.07200
N 	N 	0.06235 0.62151 0.73961 -0.25300
C 	C 	0.52053 0.58082 0.72845 0.10100
H 	H 	0.54210 0.57260 0.71510 -0.02300
C 	C 	0.52904 0.62883 0.72428 -0.17900
H 	H 	0.55580 0.65230 0.70880 0.10100
C 	C 	0.49683 0.64106 0.74364 0.12400
C 	C 	0.45859 0.60551 0.76780 -0.17800
H 	H 	0.43710 0.61310 0.78200 0.09200
C 	C 	0.45273 0.55838 0.77055 0.09700
H 	H 	0.42690 0.53460 0.78680 -0.02200
C 	C 	0.49258 0.98115 0.84653 0.09400
H 	H 	0.46430 0.97340 0.83100 -0.01600
C 	C 	0.48974 0.98144 0.88985 -0.17000
H 	H 	0.46030 0.97450 0.90300 0.09900
C 	C 	0.53190 0.99234 0.91351 0.13100
C 	C 	0.57481 0.00172 0.89246 -0.18500
H 	H 	0.60320 0.00820 0.90730 0.08900
C 	C 	0.57456 0.00125 0.84874 0.08700
H 	H 	0.60360 0.00800 0.83480 -0.02100
C 	C 	0.53199 0.99572 0.95947 -0.05300
H 	H 	0.55750 0.99620 0.97510 0.06100
C 	C 	0.52936 0.89991 0.71390 0.08700
H 	H 	0.50780 0.90400 0.69630 -0.01000
C 	C 	0.52932 0.85555 0.71246 -0.17200
H 	H 	0.50810 0.83030 0.69440 0.10600
C 	C 	0.56181 0.84940 0.73865 0.12500
C 	C 	0.59363 0.88856 0.76375 -0.18500
H 	H 	0.61650 0.88590 0.78080 0.09900
C 	C 	0.59141 0.93184 0.76341 0.10000
H 	H 	0.61330 0.95810 0.78040 -0.02100
C 	C 	0.56083 0.80134 0.74009 -0.05500
H 	H 	0.57850 0.79550 0.76070 0.06800
C 	C 	0.50227 0.69095 0.73934 -0.05300
H 	H 	0.48030 0.69810 0.75320 0.06000
N 	N 	0.48285 0.54578 0.75078 -0.24900
N 	N 	0.53467 0.99164 0.82577 -0.23200
N 	N 	0.49662 0.99796 0.97780 -0.07200
N 	N 	0.53630 0.72388 0.71714 -0.07400
N 	N 	0.53582 0.76825 0.71311 -0.07200
N 	N 	0.55916 0.93765 0.73961 -0.24800
C 	C 	0.06029 0.47947 0.72845 0.10000
H 	H 	0.03050 0.45790 0.71510 -0.02700
C 	C 	0.09979 0.47096 0.72428 -0.18000
H 	H 	0.09650 0.44420 0.70880 0.10000
C 	C 	0.14423 0.50317 0.74364 0.12400
C 	C 	0.14692 0.54141 0.76780 -0.17900
H 	H 	0.17600 0.56290 0.78200 0.09200
C 	C 	0.10565 0.54727 0.77055 0.09700
H 	H 	0.10770 0.57310 0.78680 -0.02300
C 	C 	0.48857 0.50742 0.84653 0.08700
H 	H 	0.50910 0.53570 0.83100 -0.01600
C 	C 	0.49170 0.51026 0.88985 -0.16200
H 	H 	0.51420 0.53970 0.90300 0.09400
C 	C 	0.46044 0.46810 0.91351 0.11200
C 	C 	0.42691 0.42519 0.89246 -0.16700
H 	H 	0.40500 0.39680 0.90730 0.08700
C 	C 	0.42669 0.42544 0.84874 0.09200
H 	H 	0.40440 0.39640 0.83480 -0.02000
C 	C 	0.46373 0.46801 0.95947 -0.04800
H 	H 	0.43870 0.44250 0.97510 0.05500
C 	C 	0.37055 0.47064 0.71390 0.08700
H 	H 	0.39620 0.49220 0.69630 -0.01100
C 	C 	0.32623 0.47068 0.71246 -0.17300
H 	H 	0.32220 0.49190 0.69440 0.10600
C 	C 	0.28759 0.43819 0.73865 0.12500
C 	C 	0.29493 0.40637 0.76375 -0.18700
H 	H 	0.26940 0.38350 0.78080 0.09800
C 	C 	0.34043 0.40859 0.76341 0.10000
H 	H 	0.34480 0.38670 0.78040 -0.02500
C 	C 	0.24051 0.43917 0.74009 -0.05500
H 	H 	0.21700 0.42150 0.76070 0.06800
C 	C 	0.18868 0.49773 0.73934 -0.05300
H 	H 	0.21780 0.51970 0.75320 0.06000
N 	N 	0.06293 0.51715 0.75078 -0.25000
N 	N 	0.45697 0.46533 0.82577 -0.23700
N 	N 	0.50134 0.50338 0.97780 -0.08000
N 	N 	0.18758 0.46370 0.71714 -0.07400
N 	N 	0.23243 0.46418 0.71311 -0.07200
N 	N 	0.37849 0.44084 0.73961 -0.25100
Cd	Cd	0.46116 -0.00000 0.25000 1.18400
Cd	Cd	0.00000 0.46116 0.25000 1.18400
Cd	Cd	0.53884 0.53884 0.25000 1.18800
Cd	Cd	0.53884 0.00000 0.75000 1.18400
Cd	Cd	0.00000 0.53884 0.75000 1.18400
Cd	Cd	0.46116 0.46116 0.75000 1.18800
C 	C 	0.72696 0.91415 0.56178 0.10800
H 	H 	0.69717 0.90593 0.54843 -0.02500
C 	C 	0.76646 0.96216 0.55761 -0.19000
H 	H 	0.76317 0.98563 0.54213 0.10900
C 	C 	0.81090 0.97439 0.57697 0.14500
C 	C 	0.81359 0.93884 0.60113 -0.18900
H 	H 	0.84267 0.94643 0.61533 0.10000
C 	C 	0.77232 0.89171 0.60388 0.10400
H 	H 	0.77437 0.86793 0.62013 -0.02400
C 	C 	0.15524 0.31448 0.67986 0.08600
H 	H 	0.17577 0.30673 0.66433 -0.01600
C 	C 	0.15837 0.31477 0.72318 -0.16200
H 	H 	0.18087 0.30783 0.73633 0.09300
C 	C 	0.12711 0.32567 0.74684 0.11100
C 	C 	0.09358 0.33505 0.72579 -0.16700
H 	H 	0.07167 0.34153 0.74063 0.08400
C 	C 	0.09336 0.33458 0.68207 0.09100
H 	H 	0.07107 0.34133 0.66813 -0.02100
C 	C 	0.13040 0.32905 0.79280 -0.04800
H 	H 	0.10537 0.32953 0.80843 0.05300
C 	C 	0.03722 0.23324 0.54723 0.05800
H 	H 	0.06287 0.23733 0.52963 -0.00300
C 	C 	0.99290 0.18888 0.54579 -0.13800
H 	H 	0.98887 0.16363 0.52773 0.09700
C 	C 	0.95426 0.18273 0.57198 0.10300
C 	C 	0.96160 0.22189 0.59708 -0.15100
H 	H 	0.93607 0.21923 0.61413 0.08800
C 	C 	0.00710 0.26517 0.59674 0.07100
H 	H 	0.01147 0.29143 0.61373 -0.01700
C 	C 	0.90718 0.13467 0.57342 -0.04400
H 	H 	0.88367 0.12883 0.59403 0.06400
C 	C 	0.85535 0.02428 0.57267 -0.07200
H 	H 	0.88447 0.03143 0.58653 0.06500
N 	N 	0.72960 0.87911 0.58411 -0.25100
N 	N 	0.12364 0.32497 0.65910 -0.23800
N 	N 	0.16801 0.33129 0.81113 -0.08000
N 	N 	0.85425 0.05721 0.55047 -0.07200
N 	N 	0.89910 0.10158 0.54644 -0.07500
N 	N 	0.04516 0.27098 0.57294 -0.24200
C 	C 	0.08585 0.81280 0.56178 0.09400
H 	H 	0.09407 0.79123 0.54843 -0.02200
C 	C 	0.03784 0.80429 0.55761 -0.16800
H 	H 	0.01437 0.77753 0.54213 0.09300
C 	C 	0.02561 0.83650 0.57697 0.10400
C 	C 	0.06116 0.87474 0.60113 -0.16700
H 	H 	0.05357 0.89623 0.61533 0.08800
C 	C 	0.10829 0.88060 0.60388 0.09100
H 	H 	0.13207 0.90643 0.62013 -0.02000
C 	C 	0.68552 0.84075 0.67986 0.08800
H 	H 	0.69327 0.86903 0.66433 -0.01600
C 	C 	0.68523 0.84359 0.72318 -0.16200
H 	H 	0.69217 0.87303 0.73633 0.09500
C 	C 	0.67433 0.80143 0.74684 0.11300
C 	C 	0.66495 0.75852 0.72579 -0.16700
H 	H 	0.65847 0.73013 0.74063 0.08700
C 	C 	0.66542 0.75877 0.68207 0.09300
H 	H 	0.65867 0.72973 0.66813 -0.02000
C 	C 	0.67095 0.80134 0.79280 -0.04700
H 	H 	0.67047 0.77583 0.80843 0.05500
C 	C 	0.76676 0.80397 0.54723 0.08800
H 	H 	0.76267 0.82553 0.52963 -0.01100
C 	C 	0.81112 0.80401 0.54579 -0.17300
H 	H 	0.83637 0.82523 0.52773 0.10700
C 	C 	0.81727 0.77152 0.57198 0.12600
C 	C 	0.77811 0.73970 0.59708 -0.18700
H 	H 	0.78077 0.71683 0.61413 0.09900
C 	C 	0.73483 0.74192 0.59674 0.10100
H 	H 	0.70857 0.72003 0.61373 -0.02500
C 	C 	0.86533 0.77250 0.57342 -0.05500
H 	H 	0.87117 0.75483 0.59403 0.06800
C 	C 	0.97572 0.83106 0.57267 -0.03300
H 	H 	0.96857 0.85303 0.58653 0.05800
N 	N 	0.12089 0.85048 0.58411 -0.24700
N 	N 	0.67503 0.79866 0.65910 -0.23700
N 	N 	0.66871 0.83671 0.81113 -0.07900
N 	N 	0.94279 0.79703 0.55047 -0.07500
N 	N 	0.89842 0.79751 0.54644 -0.07100
N 	N 	0.72902 0.77417 0.57294 -0.25100
C 	C 	0.18720 0.27304 0.56178 0.10000
H 	H 	0.20877 0.30283 0.54843 -0.02300
C 	C 	0.19571 0.23354 0.55761 -0.17800
H 	H 	0.22247 0.23683 0.54213 0.10100
C 	C 	0.16350 0.18910 0.57697 0.12200
C 	C 	0.12526 0.18641 0.60113 -0.17800
H 	H 	0.10377 0.15733 0.61533 0.09000
C 	C 	0.11940 0.22768 0.60388 0.09600
H 	H 	0.09357 0.22563 0.62013 -0.02300
C 	C 	0.15925 0.84476 0.67986 0.08800
H 	H 	0.13097 0.82423 0.66433 -0.01700
C 	C 	0.15641 0.84163 0.72318 -0.16300
H 	H 	0.12697 0.81913 0.73633 0.09300
C 	C 	0.19857 0.87289 0.74684 0.11300
C 	C 	0.24148 0.90642 0.72579 -0.16700
H 	H 	0.26987 0.92833 0.74063 0.08800
C 	C 	0.24123 0.90664 0.68207 0.09300
H 	H 	0.27027 0.92893 0.66813 -0.01900
C 	C 	0.19866 0.86960 0.79280 -0.04800
H 	H 	0.22417 0.89463 0.80843 0.05700
C 	C 	0.19603 0.96278 0.54723 0.11600
H 	H 	0.17447 0.93713 0.52963 -0.01900
C 	C 	0.19599 0.00710 0.54579 -0.20700
H 	H 	0.17477 0.01113 0.52773 0.11400
C 	C 	0.22848 0.04574 0.57198 0.14700
C 	C 	0.26030 0.03840 0.59708 -0.22200
H 	H 	0.28317 0.06393 0.61413 0.10800
C 	C 	0.25808 0.99290 0.59674 0.13000
H 	H 	0.27997 0.98853 0.61373 -0.03200
C 	C 	0.22750 0.09282 0.57342 -0.06700
H 	H 	0.24517 0.11633 0.59403 0.07100
C 	C 	0.16894 0.14465 0.57267 -0.05300
H 	H 	0.14697 0.11553 0.58653 0.05800
N 	N 	0.14952 0.27040 0.58411 -0.24900
N 	N 	0.20134 0.87636 0.65910 -0.23700
N 	N 	0.16329 0.83199 0.81113 -0.08000
N 	N 	0.20297 0.14575 0.55047 -0.07400
N 	N 	0.20249 0.10090 0.54644 -0.07100
N 	N 	0.22583 0.95484 0.57294 -0.26000
C 	C 	0.24749 0.39362 0.60488 0.10100
H 	H 	0.23927 0.36383 0.61823 -0.02300
C 	C 	0.29550 0.43312 0.60905 -0.17900
H 	H 	0.31897 0.42983 0.62453 0.10100
C 	C 	0.30773 0.47756 0.58969 0.12400
C 	C 	0.27218 0.48025 0.56553 -0.17800
H 	H 	0.27977 0.50933 0.55133 0.09200
C 	C 	0.22505 0.43898 0.56278 0.09700
H 	H 	0.20127 0.44103 0.54653 -0.02200
C 	C 	0.64782 0.82190 0.48680 0.08700
H 	H 	0.64007 0.84243 0.50233 -0.01600
C 	C 	0.64811 0.82503 0.44348 -0.16300
H 	H 	0.64117 0.84753 0.43033 0.09500
C 	C 	0.65901 0.79377 0.41982 0.11300
C 	C 	0.66839 0.76024 0.44087 -0.16700
H 	H 	0.67487 0.73833 0.42603 0.08700
C 	C 	0.66792 0.76002 0.48459 0.09300
H 	H 	0.67467 0.73773 0.49853 -0.02000
C 	C 	0.66239 0.79706 0.37386 -0.04800
H 	H 	0.66287 0.77203 0.35823 0.05500
C 	C 	0.56658 0.70388 0.61943 0.08700
H 	H 	0.57067 0.72953 0.63703 -0.01100
C 	C 	0.52222 0.65956 0.62087 -0.17300
H 	H 	0.49697 0.65553 0.63893 0.10600
C 	C 	0.51607 0.62092 0.59468 0.12500
C 	C 	0.55523 0.62826 0.56958 -0.18700
H 	H 	0.55257 0.60273 0.55253 0.09800
C 	C 	0.59851 0.67376 0.56992 0.10000
H 	H 	0.62477 0.67813 0.55293 -0.02500
C 	C 	0.46801 0.57384 0.59324 -0.05500
H 	H 	0.46217 0.55033 0.57263 0.06800
C 	C 	0.35762 0.52201 0.59399 -0.05300
H 	H 	0.36477 0.55113 0.58013 0.06000
N 	N 	0.21245 0.39626 0.58255 -0.24900
N 	N 	0.65831 0.79030 0.50756 -0.23800
N 	N 	0.66463 0.83467 0.35553 -0.07900
N 	N 	0.39055 0.52091 0.61619 -0.07400
N 	N 	0.43492 0.56576 0.62022 -0.07200
N 	N 	0.60432 0.71182 0.59372 -0.25100
C 	C 	0.14614 0.75251 0.60488 0.10000
H 	H 	0.12457 0.76073 0.61823 -0.02400
C 	C 	0.13763 0.70450 0.60905 -0.17900
H 	H 	0.11087 0.68103 0.62453 0.10000
C 	C 	0.16984 0.69227 0.58969 0.12300
C 	C 	0.20808 0.72782 0.56553 -0.17800
H 	H 	0.22957 0.72023 0.55133 0.09200
C 	C 	0.21394 0.77495 0.56278 0.09700
H 	H 	0.23977 0.79873 0.54653 -0.02200
C 	C 	0.17409 0.35218 0.48680 0.08700
H 	H 	0.20237 0.35993 0.50233 -0.01600
C 	C 	0.17693 0.35189 0.44348 -0.16200
H 	H 	0.20637 0.35883 0.43033 0.09400
C 	C 	0.13477 0.34099 0.41982 0.11100
C 	C 	0.09186 0.33161 0.44087 -0.16700
H 	H 	0.06347 0.32513 0.42603 0.08400
C 	C 	0.09211 0.33208 0.48459 0.09100
H 	H 	0.06307 0.32533 0.49853 -0.02100
C 	C 	0.13468 0.33761 0.37386 -0.04800
H 	H 	0.10917 0.33713 0.35823 0.05400
C 	C 	0.13731 0.43342 0.61943 0.08700
H 	H 	0.15887 0.42933 0.63703 -0.01100
C 	C 	0.13735 0.47778 0.62087 -0.17200
H 	H 	0.15857 0.50303 0.63893 0.10600
C 	C 	0.10486 0.48393 0.59468 0.12400
C 	C 	0.07304 0.44477 0.56958 -0.18600
H 	H 	0.05017 0.44743 0.55253 0.09600
C 	C 	0.07526 0.40149 0.56992 0.09900
H 	H 	0.05337 0.37523 0.55293 -0.02600
C 	C 	0.10584 0.53199 0.59324 -0.05500
H 	H 	0.08817 0.53783 0.57263 0.06600
C 	C 	0.16440 0.64238 0.59399 -0.05300
H 	H 	0.18637 0.63523 0.58013 0.06000
N 	N 	0.18382 0.78755 0.58255 -0.24900
N 	N 	0.13200 0.34169 0.50756 -0.23700
N 	N 	0.17005 0.33537 0.35553 -0.08000
N 	N 	0.13037 0.60945 0.61619 -0.07400
N 	N 	0.13085 0.56508 0.62022 -0.07300
N 	N 	0.10751 0.39568 0.59372 -0.25100
C 	C 	0.60638 0.85386 0.60488 0.10100
H 	H 	0.63617 0.87543 0.61823 -0.02200
C 	C 	0.56688 0.86237 0.60905 -0.17800
H 	H 	0.57017 0.88913 0.62453 0.10200
C 	C 	0.52244 0.83016 0.58969 0.12400
C 	C 	0.51975 0.79192 0.56553 -0.17800
H 	H 	0.49067 0.77043 0.55133 0.09300
C 	C 	0.56102 0.78606 0.56278 0.09700
H 	H 	0.55897 0.76023 0.54653 -0.02200
C 	C 	0.17810 0.82591 0.48680 0.08800
H 	H 	0.15757 0.79763 0.50233 -0.01700
C 	C 	0.17497 0.82307 0.44348 -0.16300
H 	H 	0.15247 0.79363 0.43033 0.09300
C 	C 	0.20623 0.86523 0.41982 0.11300
C 	C 	0.23976 0.90814 0.44087 -0.16700
H 	H 	0.26167 0.93653 0.42603 0.08900
C 	C 	0.23998 0.90789 0.48459 0.09400
H 	H 	0.26227 0.93693 0.49853 -0.01900
C 	C 	0.20294 0.86532 0.37386 -0.04800
H 	H 	0.22797 0.89083 0.35823 0.05600
C 	C 	0.29612 0.86269 0.61943 0.08800
H 	H 	0.27047 0.84113 0.63703 -0.01100
C 	C 	0.34044 0.86265 0.62087 -0.17400
H 	H 	0.34447 0.84143 0.63893 0.10600
C 	C 	0.37908 0.89514 0.59468 0.12700
C 	C 	0.37174 0.92696 0.56958 -0.18700
H 	H 	0.39727 0.94983 0.55253 0.10100
C 	C 	0.32624 0.92474 0.56992 0.10200
H 	H 	0.32187 0.94663 0.55293 -0.02300
C 	C 	0.42616 0.89416 0.59324 -0.05500
H 	H 	0.44967 0.91183 0.57263 0.07000
C 	C 	0.47799 0.83560 0.59399 -0.05200
H 	H 	0.44887 0.81363 0.58013 0.06000
N 	N 	0.60374 0.81618 0.58255 -0.24900
N 	N 	0.20970 0.86800 0.50756 -0.23800
N 	N 	0.16533 0.82995 0.35553 -0.08000
N 	N 	0.47909 0.86963 0.61619 -0.07300
N 	N 	0.43424 0.86915 0.62022 -0.07200
N 	N 	0.28818 0.89249 0.59372 -0.25100
C 	C 	0.60638 0.75251 0.10488 0.10100
H 	H 	0.63617 0.76073 0.11823 -0.02300
C 	C 	0.56688 0.70450 0.10905 -0.17900
H 	H 	0.57017 0.68103 0.12453 0.10100
C 	C 	0.52244 0.69227 0.08969 0.12400
C 	C 	0.51975 0.72782 0.06553 -0.17800
H 	H 	0.49067 0.72023 0.05133 0.09200
C 	C 	0.56102 0.77495 0.06278 0.09700
H 	H 	0.55897 0.79873 0.04653 -0.02200
C 	C 	0.17810 0.35218 0.98680 0.08700
H 	H 	0.15757 0.35993 0.00233 -0.01700
C 	C 	0.17497 0.35189 0.94348 -0.16200
H 	H 	0.15247 0.35883 0.93033 0.09300
C 	C 	0.20623 0.34099 0.91982 0.11200
C 	C 	0.23976 0.33161 0.94087 -0.16700
H 	H 	0.26167 0.32513 0.92603 0.08600
C 	C 	0.23998 0.33208 0.98459 0.09200
H 	H 	0.26227 0.32533 0.99853 -0.02000
C 	C 	0.20294 0.33761 0.87386 -0.04800
H 	H 	0.22797 0.33713 0.85823 0.05500
C 	C 	0.29612 0.43342 0.11943 0.08700
H 	H 	0.27047 0.42933 0.13703 -0.01100
C 	C 	0.34044 0.47778 0.12087 -0.17300
H 	H 	0.34447 0.50303 0.13893 0.10600
C 	C 	0.37908 0.48393 0.09468 0.12500
C 	C 	0.37174 0.44477 0.06958 -0.18700
H 	H 	0.39727 0.44743 0.05253 0.09800
C 	C 	0.32624 0.40149 0.06992 0.10000
H 	H 	0.32187 0.37523 0.05293 -0.02500
C 	C 	0.42616 0.53199 0.09324 -0.05500
H 	H 	0.44967 0.53783 0.07263 0.06800
C 	C 	0.47799 0.64238 0.09399 -0.05300
H 	H 	0.44887 0.63523 0.08013 0.06000
N 	N 	0.60374 0.78755 0.08255 -0.24900
N 	N 	0.20970 0.34169 0.00756 -0.23800
N 	N 	0.16533 0.33537 0.85553 -0.08000
N 	N 	0.47909 0.60945 0.11619 -0.07400
N 	N 	0.43424 0.56508 0.12022 -0.07200
N 	N 	0.28818 0.39568 0.09372 -0.25100
C 	C 	0.24749 0.85386 0.10488 0.10100
H 	H 	0.23927 0.87543 0.11823 -0.02200
C 	C 	0.29550 0.86237 0.10905 -0.17800
H 	H 	0.31897 0.88913 0.12453 0.10200
C 	C 	0.30773 0.83016 0.08969 0.12400
C 	C 	0.27218 0.79192 0.06553 -0.17800
H 	H 	0.27977 0.77043 0.05133 0.09300
C 	C 	0.22505 0.78606 0.06278 0.09700
H 	H 	0.20127 0.76023 0.04653 -0.02200
C 	C 	0.64782 0.82591 0.98680 0.08800
H 	H 	0.64007 0.79763 0.00233 -0.01600
C 	C 	0.64811 0.82307 0.94348 -0.16300
H 	H 	0.64117 0.79363 0.93033 0.09400
C 	C 	0.65901 0.86523 0.91982 0.11300
C 	C 	0.66839 0.90814 0.94087 -0.16700
H 	H 	0.67487 0.93653 0.92603 0.08900
C 	C 	0.66792 0.90789 0.98459 0.09400
H 	H 	0.67467 0.93693 0.99853 -0.01900
C 	C 	0.66239 0.86532 0.87386 -0.04800
H 	H 	0.66287 0.89083 0.85823 0.05600
C 	C 	0.56658 0.86269 0.11943 0.08800
H 	H 	0.57067 0.84113 0.13703 -0.01100
C 	C 	0.52222 0.86265 0.12087 -0.17400
H 	H 	0.49697 0.84143 0.13893 0.10600
C 	C 	0.51607 0.89514 0.09468 0.12700
C 	C 	0.55523 0.92696 0.06958 -0.18700
H 	H 	0.55257 0.94983 0.05253 0.10100
C 	C 	0.59851 0.92474 0.06992 0.10200
H 	H 	0.62477 0.94663 0.05293 -0.02400
C 	C 	0.46801 0.89416 0.09324 -0.05500
H 	H 	0.46217 0.91183 0.07263 0.07000
C 	C 	0.35762 0.83560 0.09399 -0.05200
H 	H 	0.36477 0.81363 0.08013 0.06000
N 	N 	0.21245 0.81618 0.08255 -0.24900
N 	N 	0.65831 0.86800 0.00756 -0.23800
N 	N 	0.66463 0.82995 0.85553 -0.07900
N 	N 	0.39055 0.86963 0.11619 -0.07300
N 	N 	0.43492 0.86915 0.12022 -0.07200
N 	N 	0.60432 0.89249 0.09372 -0.25100
C 	C 	0.14614 0.39362 0.10488 0.10000
H 	H 	0.12457 0.36383 0.11823 -0.02400
C 	C 	0.13763 0.43312 0.10905 -0.17900
H 	H 	0.11087 0.42983 0.12453 0.10000
C 	C 	0.16984 0.47756 0.08969 0.12300
C 	C 	0.20808 0.48025 0.06553 -0.17800
H 	H 	0.22957 0.50933 0.05133 0.09200
C 	C 	0.21394 0.43898 0.06278 0.09700
H 	H 	0.23977 0.44103 0.04653 -0.02200
C 	C 	0.17409 0.82190 0.98680 0.08700
H 	H 	0.20237 0.84243 0.00233 -0.01600
C 	C 	0.17693 0.82503 0.94348 -0.16200
H 	H 	0.20637 0.84753 0.93033 0.09500
C 	C 	0.13477 0.79377 0.91982 0.11200
C 	C 	0.09186 0.76024 0.94087 -0.16700
H 	H 	0.06347 0.73833 0.92603 0.08400
C 	C 	0.09211 0.76002 0.98459 0.09200
H 	H 	0.06307 0.73773 0.99853 -0.02100
C 	C 	0.13468 0.79706 0.87386 -0.04700
H 	H 	0.10917 0.77203 0.85823 0.05400
C 	C 	0.13731 0.70388 0.11943 0.08700
H 	H 	0.15887 0.72953 0.13703 -0.01100
C 	C 	0.13735 0.65956 0.12087 -0.17200
H 	H 	0.15857 0.65553 0.13893 0.10600
C 	C 	0.10486 0.62092 0.09468 0.12400
C 	C 	0.07304 0.62826 0.06958 -0.18600
H 	H 	0.05017 0.60273 0.05253 0.09600
C 	C 	0.07526 0.67376 0.06992 0.09900
H 	H 	0.05337 0.67813 0.05293 -0.02600
C 	C 	0.10584 0.57384 0.09324 -0.05500
H 	H 	0.08817 0.55033 0.07263 0.06500
C 	C 	0.16440 0.52201 0.09399 -0.05300
H 	H 	0.18637 0.55113 0.08013 0.06000
N 	N 	0.18382 0.39626 0.08255 -0.24900
N 	N 	0.13200 0.79030 0.00756 -0.23800
N 	N 	0.17005 0.83467 0.85553 -0.07900
N 	N 	0.13037 0.52091 0.11619 -0.07400
N 	N 	0.13085 0.56576 0.12022 -0.07300
N 	N 	0.10751 0.71182 0.09372 -0.25100
C 	C 	0.08585 0.27304 0.06178 0.09400
H 	H 	0.09407 0.30283 0.04843 -0.02100
C 	C 	0.03784 0.23354 0.05761 -0.16700
H 	H 	0.01437 0.23683 0.04213 0.09300
C 	C 	0.02561 0.18910 0.07697 0.10300
C 	C 	0.06116 0.18641 0.10113 -0.16700
H 	H 	0.05357 0.15733 0.11533 0.08500
C 	C 	0.10829 0.22768 0.10388 0.09000
H 	H 	0.13207 0.22563 0.12013 -0.02100
C 	C 	0.68552 0.84476 0.17986 0.08800
H 	H 	0.69327 0.82423 0.16433 -0.01600
C 	C 	0.68523 0.84163 0.22318 -0.16300
H 	H 	0.69217 0.81913 0.23633 0.09500
C 	C 	0.67433 0.87289 0.24684 0.11400
C 	C 	0.66495 0.90642 0.22579 -0.16700
H 	H 	0.65847 0.92833 0.24063 0.08900
C 	C 	0.66542 0.90664 0.18207 0.09300
H 	H 	0.65867 0.92893 0.16813 -0.01900
C 	C 	0.67095 0.86960 0.29280 -0.04800
H 	H 	0.67047 0.89463 0.30843 0.05700
C 	C 	0.76676 0.96278 0.04723 0.11600
H 	H 	0.76267 0.93713 0.02963 -0.01900
C 	C 	0.81112 0.00710 0.04579 -0.20700
H 	H 	0.83637 0.01113 0.02773 0.11500
C 	C 	0.81727 0.04574 0.07198 0.14700
C 	C 	0.77811 0.03840 0.09708 -0.22200
H 	H 	0.78077 0.06393 0.11413 0.10800
C 	C 	0.73483 0.99290 0.09674 0.13000
H 	H 	0.70857 0.98853 0.11373 -0.03200
C 	C 	0.86533 0.09282 0.07342 -0.06600
H 	H 	0.87117 0.11633 0.09403 0.07200
C 	C 	0.97572 0.14465 0.07267 -0.03300
H 	H 	0.96857 0.11553 0.08653 0.05500
N 	N 	0.12089 0.27040 0.08411 -0.24700
N 	N 	0.67503 0.87636 0.15910 -0.23700
N 	N 	0.66871 0.83199 0.31113 -0.07900
N 	N 	0.94279 0.14575 0.05047 -0.07600
N 	N 	0.89842 0.10090 0.04644 -0.07000
N 	N 	0.72902 0.95484 0.07294 -0.25900
C 	C 	0.18720 0.91415 0.06178 0.10700
H 	H 	0.20877 0.90593 0.04843 -0.02400
C 	C 	0.19571 0.96216 0.05761 -0.19000
H 	H 	0.22247 0.98563 0.04213 0.10900
C 	C 	0.16350 0.97439 0.07697 0.14300
C 	C 	0.12526 0.93884 0.10113 -0.18900
H 	H 	0.10377 0.94643 0.11533 0.09700
C 	C 	0.11940 0.89171 0.10388 0.10300
H 	H 	0.09357 0.86793 0.12013 -0.02500
C 	C 	0.15925 0.31448 0.17986 0.08700
H 	H 	0.13097 0.30673 0.16433 -0.01700
C 	C 	0.15641 0.31477 0.22318 -0.16200
H 	H 	0.12697 0.30783 0.23633 0.09300
C 	C 	0.19857 0.32567 0.24684 0.11200
C 	C 	0.24148 0.33505 0.22579 -0.16700
H 	H 	0.26987 0.34153 0.24063 0.08600
C 	C 	0.24123 0.33458 0.18207 0.09200
H 	H 	0.27027 0.34133 0.16813 -0.02000
C 	C 	0.19866 0.32905 0.29280 -0.04800
H 	H 	0.22417 0.32953 0.30843 0.05500
C 	C 	0.19603 0.23324 0.04723 0.08700
H 	H 	0.17447 0.23733 0.02963 -0.01100
C 	C 	0.19599 0.18888 0.04579 -0.17300
H 	H 	0.17477 0.16363 0.02773 0.10500
C 	C 	0.22848 0.18273 0.07198 0.12500
C 	C 	0.26030 0.22189 0.09708 -0.18700
H 	H 	0.28317 0.21923 0.11413 0.09800
C 	C 	0.25808 0.26517 0.09674 0.10000
H 	H 	0.27997 0.29143 0.11373 -0.02500
C 	C 	0.22750 0.13467 0.07342 -0.05600
H 	H 	0.24517 0.12883 0.09403 0.06700
C 	C 	0.16894 0.02428 0.07267 -0.07200
H 	H 	0.14697 0.03143 0.08653 0.06200
N 	N 	0.14952 0.87911 0.08411 -0.25100
N 	N 	0.20134 0.32497 0.15910 -0.23700
N 	N 	0.16329 0.33129 0.31113 -0.08000
N 	N 	0.20297 0.05721 0.05047 -0.07200
N 	N 	0.20249 0.10158 0.04644 -0.07300
N 	N 	0.22583 0.27098 0.07294 -0.25100
C 	C 	0.72696 0.81280 0.06178 0.10100
H 	H 	0.69717 0.79123 0.04843 -0.02300
C 	C 	0.76646 0.80429 0.05761 -0.17900
H 	H 	0.76317 0.77753 0.04213 0.10100
C 	C 	0.81090 0.83650 0.07697 0.12500
C 	C 	0.81359 0.87474 0.10113 -0.17900
H 	H 	0.84267 0.89623 0.11533 0.09500
C 	C 	0.77232 0.88060 0.10388 0.09800
H 	H 	0.77437 0.90643 0.12013 -0.02100
C 	C 	0.15524 0.84075 0.17986 0.08700
H 	H 	0.17577 0.86903 0.16433 -0.01600
C 	C 	0.15837 0.84359 0.22318 -0.16200
H 	H 	0.18087 0.87303 0.23633 0.09500
C 	C 	0.12711 0.80143 0.24684 0.11100
C 	C 	0.09358 0.75852 0.22579 -0.16700
H 	H 	0.07167 0.73013 0.24063 0.08500
C 	C 	0.09336 0.75877 0.18207 0.09200
H 	H 	0.07107 0.72973 0.16813 -0.02100
C 	C 	0.13040 0.80134 0.29280 -0.04700
H 	H 	0.10537 0.77583 0.30843 0.05300
C 	C 	0.03722 0.80397 0.04723 0.05900
H 	H 	0.06287 0.82553 0.02963 -0.00300
C 	C 	0.99290 0.80401 0.04579 -0.13900
H 	H 	0.98887 0.82523 0.02773 0.09800
C 	C 	0.95426 0.77152 0.07198 0.10400
C 	C 	0.96160 0.73970 0.09708 -0.15200
H 	H 	0.93607 0.71683 0.11413 0.08800
C 	C 	0.00710 0.74192 0.09674 0.07100
H 	H 	0.01147 0.72003 0.11373 -0.01700
C 	C 	0.90718 0.77250 0.07342 -0.04400
H 	H 	0.88367 0.75483 0.09403 0.06500
C 	C 	0.85535 0.83106 0.07267 -0.05300
H 	H 	0.88447 0.85303 0.08653 0.06200
N 	N 	0.72960 0.85048 0.08411 -0.24900
N 	N 	0.12364 0.79866 0.15910 -0.23800
N 	N 	0.16801 0.83671 0.31113 -0.08000
N 	N 	0.85425 0.79703 0.05047 -0.07300
N 	N 	0.89910 0.79751 0.04644 -0.07300
N 	N 	0.04516 0.77417 0.07294 -0.24200
Cd	Cd	0.12783 0.33333 0.58333 1.18800
Cd	Cd	0.66667 0.79450 0.58333 1.18800
Cd	Cd	0.20550 0.87217 0.58333 1.18800
Cd	Cd	0.20550 0.33333 0.08333 1.18800
Cd	Cd	0.66667 0.87217 0.08333 1.18800
Cd	Cd	0.12783 0.79450 0.08333 1.18800
C 	C 	0.39362 0.24749 0.89512 0.10100
H 	H 	0.36383 0.23927 0.88177 -0.02300
C 	C 	0.43312 0.29550 0.89095 -0.17900
H 	H 	0.42983 0.31897 0.87547 0.10100
C 	C 	0.47756 0.30773 0.91031 0.12400
C 	C 	0.48025 0.27218 0.93447 -0.17800
H 	H 	0.50933 0.27977 0.94867 0.09200
C 	C 	0.43898 0.22505 0.93722 0.09700
H 	H 	0.44103 0.20127 0.95347 -0.02200
C 	C 	0.82190 0.64782 0.01320 0.08700
H 	H 	0.84243 0.64007 0.99767 -0.01600
C 	C 	0.82503 0.64811 0.05652 -0.16300
H 	H 	0.84753 0.64117 0.06967 0.09500
C 	C 	0.79377 0.65901 0.08018 0.11300
C 	C 	0.76024 0.66839 0.05913 -0.16700
H 	H 	0.73833 0.67487 0.07397 0.08700
C 	C 	0.76002 0.66792 0.01541 0.09300
H 	H 	0.73773 0.67467 0.00147 -0.02000
C 	C 	0.79706 0.66239 0.12614 -0.04800
H 	H 	0.77203 0.66287 0.14177 0.05500
C 	C 	0.70388 0.56658 0.88057 0.08700
H 	H 	0.72953 0.57067 0.86297 -0.01100
C 	C 	0.65956 0.52222 0.87913 -0.17300
H 	H 	0.65553 0.49697 0.86107 0.10600
C 	C 	0.62092 0.51607 0.90532 0.12500
C 	C 	0.62826 0.55523 0.93042 -0.18700
H 	H 	0.60273 0.55257 0.94747 0.09800
C 	C 	0.67376 0.59851 0.93008 0.10000
H 	H 	0.67813 0.62477 0.94707 -0.02500
C 	C 	0.57384 0.46801 0.90676 -0.05500
H 	H 	0.55033 0.46217 0.92737 0.06800
C 	C 	0.52201 0.35762 0.90601 -0.05300
H 	H 	0.55113 0.36477 0.91987 0.06000
N 	N 	0.39626 0.21245 0.91745 -0.24900
N 	N 	0.79030 0.65831 0.99244 -0.23800
N 	N 	0.83467 0.66463 0.14447 -0.07900
N 	N 	0.52091 0.39055 0.88381 -0.07400
N 	N 	0.56576 0.43492 0.87978 -0.07200
N 	N 	0.71182 0.60432 0.90628 -0.25100
C 	C 	0.75251 0.14614 0.89512 0.10000
H 	H 	0.76073 0.12457 0.88177 -0.02400
C 	C 	0.70450 0.13763 0.89095 -0.17900
H 	H 	0.68103 0.11087 0.87547 0.10000
C 	C 	0.69227 0.16984 0.91031 0.12300
C 	C 	0.72782 0.20808 0.93447 -0.17800
H 	H 	0.72023 0.22957 0.94867 0.09200
C 	C 	0.77495 0.21394 0.93722 0.09700
H 	H 	0.79873 0.23977 0.95347 -0.02200
C 	C 	0.35218 0.17409 0.01320 0.08700
H 	H 	0.35993 0.20237 0.99767 -0.01600
C 	C 	0.35189 0.17693 0.05652 -0.16200
H 	H 	0.35883 0.20637 0.06967 0.09400
C 	C 	0.34099 0.13477 0.08018 0.11100
C 	C 	0.33161 0.09186 0.05913 -0.16700
H 	H 	0.32513 0.06347 0.07397 0.08400
C 	C 	0.33208 0.09211 0.01541 0.09100
H 	H 	0.32533 0.06307 0.00147 -0.02100
C 	C 	0.33761 0.13468 0.12614 -0.04800
H 	H 	0.33713 0.10917 0.14177 0.05400
C 	C 	0.43342 0.13731 0.88057 0.08700
H 	H 	0.42933 0.15887 0.86297 -0.01100
C 	C 	0.47778 0.13735 0.87913 -0.17200
H 	H 	0.50303 0.15857 0.86107 0.10600
C 	C 	0.48393 0.10486 0.90532 0.12400
C 	C 	0.44477 0.07304 0.93042 -0.18600
H 	H 	0.44743 0.05017 0.94747 0.09600
C 	C 	0.40149 0.07526 0.93008 0.09900
H 	H 	0.37523 0.05337 0.94707 -0.02600
C 	C 	0.53199 0.10584 0.90676 -0.05500
H 	H 	0.53783 0.08817 0.92737 0.06500
C 	C 	0.64238 0.16440 0.90601 -0.05300
H 	H 	0.63523 0.18637 0.91987 0.06000
N 	N 	0.78755 0.18382 0.91745 -0.24900
N 	N 	0.34169 0.13200 0.99244 -0.23700
N 	N 	0.33537 0.17005 0.14447 -0.08000
N 	N 	0.60945 0.13037 0.88381 -0.07400
N 	N 	0.56508 0.13085 0.87978 -0.07300
N 	N 	0.39568 0.10751 0.90628 -0.25100
C 	C 	0.85386 0.60638 0.89512 0.10100
H 	H 	0.87543 0.63617 0.88177 -0.02200
C 	C 	0.86237 0.56688 0.89095 -0.17800
H 	H 	0.88913 0.57017 0.87547 0.10200
C 	C 	0.83016 0.52244 0.91031 0.12400
C 	C 	0.79192 0.51975 0.93447 -0.17800
H 	H 	0.77043 0.49067 0.94867 0.09300
C 	C 	0.78606 0.56102 0.93722 0.09700
H 	H 	0.76023 0.55897 0.95347 -0.02200
C 	C 	0.82591 0.17810 0.01320 0.08800
H 	H 	0.79763 0.15757 0.99767 -0.01700
C 	C 	0.82307 0.17497 0.05652 -0.16300
H 	H 	0.79363 0.15247 0.06967 0.09300
C 	C 	0.86523 0.20623 0.08018 0.11300
C 	C 	0.90814 0.23976 0.05913 -0.16700
H 	H 	0.93653 0.26167 0.07397 0.08900
C 	C 	0.90789 0.23998 0.01541 0.09400
H 	H 	0.93693 0.26227 0.00147 -0.01900
C 	C 	0.86532 0.20294 0.12614 -0.04800
H 	H 	0.89083 0.22797 0.14177 0.05600
C 	C 	0.86269 0.29612 0.88057 0.08800
H 	H 	0.84113 0.27047 0.86297 -0.01100
C 	C 	0.86265 0.34044 0.87913 -0.17400
H 	H 	0.84143 0.34447 0.86107 0.10600
C 	C 	0.89514 0.37908 0.90532 0.12700
C 	C 	0.92696 0.37174 0.93042 -0.18700
H 	H 	0.94983 0.39727 0.94747 0.10100
C 	C 	0.92474 0.32624 0.93008 0.10200
H 	H 	0.94663 0.32187 0.94707 -0.02300
C 	C 	0.89416 0.42616 0.90676 -0.05500
H 	H 	0.91183 0.44967 0.92737 0.07000
C 	C 	0.83560 0.47799 0.90601 -0.05200
H 	H 	0.81363 0.44887 0.91987 0.06000
N 	N 	0.81618 0.60374 0.91745 -0.24900
N 	N 	0.86800 0.20970 0.99244 -0.23800
N 	N 	0.82995 0.16533 0.14447 -0.08000
N 	N 	0.86963 0.47909 0.88381 -0.07300
N 	N 	0.86915 0.43424 0.87978 -0.07200
N 	N 	0.89249 0.28818 0.90628 -0.25100
C 	C 	0.91415 0.72696 0.93822 0.10800
H 	H 	0.90593 0.69717 0.95157 -0.02500
C 	C 	0.96216 0.76646 0.94239 -0.19000
H 	H 	0.98563 0.76317 0.95787 0.10900
C 	C 	0.97439 0.81090 0.92303 0.14500
C 	C 	0.93884 0.81359 0.89887 -0.18900
H 	H 	0.94643 0.84267 0.88467 0.10000
C 	C 	0.89171 0.77232 0.89612 0.10400
H 	H 	0.86793 0.77437 0.87987 -0.02400
C 	C 	0.31448 0.15524 0.82014 0.08600
H 	H 	0.30673 0.17577 0.83567 -0.01600
C 	C 	0.31477 0.15837 0.77682 -0.16200
H 	H 	0.30783 0.18087 0.76367 0.09300
C 	C 	0.32567 0.12711 0.75316 0.11100
C 	C 	0.33505 0.09358 0.77421 -0.16700
H 	H 	0.34153 0.07167 0.75937 0.08400
C 	C 	0.33458 0.09336 0.81793 0.09100
H 	H 	0.34133 0.07107 0.83187 -0.02100
C 	C 	0.32905 0.13040 0.70720 -0.04800
H 	H 	0.32953 0.10537 0.69157 0.05300
C 	C 	0.23324 0.03722 0.95277 0.05800
H 	H 	0.23733 0.06287 0.97037 -0.00300
C 	C 	0.18888 0.99290 0.95421 -0.13800
H 	H 	0.16363 0.98887 0.97227 0.09700
C 	C 	0.18273 0.95426 0.92802 0.10300
C 	C 	0.22189 0.96160 0.90292 -0.15100
H 	H 	0.21923 0.93607 0.88587 0.08800
C 	C 	0.26517 0.00710 0.90326 0.07100
H 	H 	0.29143 0.01147 0.88627 -0.01700
C 	C 	0.13467 0.90718 0.92658 -0.04400
H 	H 	0.12883 0.88367 0.90597 0.06400
C 	C 	0.02428 0.85535 0.92733 -0.07200
H 	H 	0.03143 0.88447 0.91347 0.06500
N 	N 	0.87911 0.72960 0.91589 -0.25100
N 	N 	0.32497 0.12364 0.84090 -0.23800
N 	N 	0.33129 0.16801 0.68887 -0.08000
N 	N 	0.05721 0.85425 0.94953 -0.07200
N 	N 	0.10158 0.89910 0.95356 -0.07500
N 	N 	0.27098 0.04516 0.92706 -0.24200
C 	C 	0.81280 0.08585 0.93822 0.09400
H 	H 	0.79123 0.09407 0.95157 -0.02200
C 	C 	0.80429 0.03784 0.94239 -0.16800
H 	H 	0.77753 0.01437 0.95787 0.09300
C 	C 	0.83650 0.02561 0.92303 0.10400
C 	C 	0.87474 0.06116 0.89887 -0.16700
H 	H 	0.89623 0.05357 0.88467 0.08800
C 	C 	0.88060 0.10829 0.89612 0.09100
H 	H 	0.90643 0.13207 0.87987 -0.02000
C 	C 	0.84075 0.68552 0.82014 0.08800
H 	H 	0.86903 0.69327 0.83567 -0.01600
C 	C 	0.84359 0.68523 0.77682 -0.16200
H 	H 	0.87303 0.69217 0.76367 0.09500
C 	C 	0.80143 0.67433 0.75316 0.11300
C 	C 	0.75852 0.66495 0.77421 -0.16700
H 	H 	0.73013 0.65847 0.75937 0.08700
C 	C 	0.75877 0.66542 0.81793 0.09300
H 	H 	0.72973 0.65867 0.83187 -0.02000
C 	C 	0.80134 0.67095 0.70720 -0.04700
H 	H 	0.77583 0.67047 0.69157 0.05500
C 	C 	0.80397 0.76676 0.95277 0.08800
H 	H 	0.82553 0.76267 0.97037 -0.01100
C 	C 	0.80401 0.81112 0.95421 -0.17300
H 	H 	0.82523 0.83637 0.97227 0.10700
C 	C 	0.77152 0.81727 0.92802 0.12600
C 	C 	0.73970 0.77811 0.90292 -0.18700
H 	H 	0.71683 0.78077 0.88587 0.09900
C 	C 	0.74192 0.73483 0.90326 0.10100
H 	H 	0.72003 0.70857 0.88627 -0.02500
C 	C 	0.77250 0.86533 0.92658 -0.05500
H 	H 	0.75483 0.87117 0.90597 0.06800
C 	C 	0.83106 0.97572 0.92733 -0.03300
H 	H 	0.85303 0.96857 0.91347 0.05800
N 	N 	0.85048 0.12089 0.91589 -0.24700
N 	N 	0.79866 0.67503 0.84090 -0.23700
N 	N 	0.83671 0.66871 0.68887 -0.07900
N 	N 	0.79703 0.94279 0.94953 -0.07500
N 	N 	0.79751 0.89842 0.95356 -0.07100
N 	N 	0.77417 0.72902 0.92706 -0.25100
C 	C 	0.27304 0.18720 0.93822 0.10000
H 	H 	0.30283 0.20877 0.95157 -0.02300
C 	C 	0.23354 0.19571 0.94239 -0.17800
H 	H 	0.23683 0.22247 0.95787 0.10100
C 	C 	0.18910 0.16350 0.92303 0.12200
C 	C 	0.18641 0.12526 0.89887 -0.17800
H 	H 	0.15733 0.10377 0.88467 0.09000
C 	C 	0.22768 0.11940 0.89612 0.09600
H 	H 	0.22563 0.09357 0.87987 -0.02300
C 	C 	0.84476 0.15925 0.82014 0.08800
H 	H 	0.82423 0.13097 0.83567 -0.01700
C 	C 	0.84163 0.15641 0.77682 -0.16300
H 	H 	0.81913 0.12697 0.76367 0.09300
C 	C 	0.87289 0.19857 0.75316 0.11300
C 	C 	0.90642 0.24148 0.77421 -0.16700
H 	H 	0.92833 0.26987 0.75937 0.08800
C 	C 	0.90664 0.24123 0.81793 0.09300
H 	H 	0.92893 0.27027 0.83187 -0.01900
C 	C 	0.86960 0.19866 0.70720 -0.04800
H 	H 	0.89463 0.22417 0.69157 0.05700
C 	C 	0.96278 0.19603 0.95277 0.11600
H 	H 	0.93713 0.17447 0.97037 -0.01900
C 	C 	0.00710 0.19599 0.95421 -0.20700
H 	H 	0.01113 0.17477 0.97227 0.11400
C 	C 	0.04574 0.22848 0.92802 0.14700
C 	C 	0.03840 0.26030 0.90292 -0.22200
H 	H 	0.06393 0.28317 0.88587 0.10800
C 	C 	0.99290 0.25808 0.90326 0.12900
H 	H 	0.98853 0.27997 0.88627 -0.03200
C 	C 	0.09282 0.22750 0.92658 -0.06700
H 	H 	0.11633 0.24517 0.90597 0.07100
C 	C 	0.14465 0.16894 0.92733 -0.05300
H 	H 	0.11553 0.14697 0.91347 0.05800
N 	N 	0.27040 0.14952 0.91589 -0.24900
N 	N 	0.87636 0.20134 0.84090 -0.23700
N 	N 	0.83199 0.16329 0.68887 -0.08000
N 	N 	0.14575 0.20297 0.94953 -0.07400
N 	N 	0.10090 0.20249 0.95356 -0.07100
N 	N 	0.95484 0.22583 0.92706 -0.25900
C 	C 	0.27304 0.08585 0.43822 0.09400
H 	H 	0.30283 0.09407 0.45157 -0.02100
C 	C 	0.23354 0.03784 0.44239 -0.16700
H 	H 	0.23683 0.01437 0.45787 0.09300
C 	C 	0.18910 0.02561 0.42303 0.10200
C 	C 	0.18641 0.06116 0.39887 -0.16700
H 	H 	0.15733 0.05357 0.38467 0.08500
C 	C 	0.22768 0.10829 0.39612 0.09000
H 	H 	0.22563 0.13207 0.37987 -0.02100
C 	C 	0.84476 0.68552 0.32014 0.08800
H 	H 	0.82423 0.69327 0.33567 -0.01600
C 	C 	0.84163 0.68523 0.27682 -0.16300
H 	H 	0.81913 0.69217 0.26367 0.09500
C 	C 	0.87289 0.67433 0.25316 0.11400
C 	C 	0.90642 0.66495 0.27421 -0.16700
H 	H 	0.92833 0.65847 0.25937 0.08900
C 	C 	0.90664 0.66542 0.31793 0.09300
H 	H 	0.92893 0.65867 0.33187 -0.01900
C 	C 	0.86960 0.67095 0.20720 -0.04800
H 	H 	0.89463 0.67047 0.19157 0.05700
C 	C 	0.96278 0.76676 0.45277 0.11700
H 	H 	0.93713 0.76267 0.47037 -0.01900
C 	C 	0.00710 0.81112 0.45421 -0.20800
H 	H 	0.01113 0.83637 0.47227 0.11600
C 	C 	0.04574 0.81727 0.42802 0.14800
C 	C 	0.03840 0.77811 0.40292 -0.22200
H 	H 	0.06393 0.78077 0.38587 0.10800
C 	C 	0.99290 0.73483 0.40326 0.13000
H 	H 	0.98853 0.70857 0.38627 -0.03200
C 	C 	0.09282 0.86533 0.42658 -0.06600
H 	H 	0.11633 0.87117 0.40597 0.07200
C 	C 	0.14465 0.97572 0.42733 -0.03300
H 	H 	0.11553 0.96857 0.41347 0.05500
N 	N 	0.27040 0.12089 0.41589 -0.24700
N 	N 	0.87636 0.67503 0.34090 -0.23700
N 	N 	0.83199 0.66871 0.18887 -0.07900
N 	N 	0.14575 0.94279 0.44953 -0.07600
N 	N 	0.10090 0.89842 0.45356 -0.07000
N 	N 	0.95484 0.72902 0.42706 -0.26000
C 	C 	0.91415 0.18720 0.43822 0.10700
H 	H 	0.90593 0.20877 0.45157 -0.02400
C 	C 	0.96216 0.19571 0.44239 -0.19000
H 	H 	0.98563 0.22247 0.45787 0.10900
C 	C 	0.97439 0.16350 0.42303 0.14400
C 	C 	0.93884 0.12526 0.39887 -0.18900
H 	H 	0.94643 0.10377 0.38467 0.09700
C 	C 	0.89171 0.11940 0.39612 0.10300
H 	H 	0.86793 0.09357 0.37987 -0.02500
C 	C 	0.31448 0.15925 0.32014 0.08700
H 	H 	0.30673 0.13097 0.33567 -0.01700
C 	C 	0.31477 0.15641 0.27682 -0.16200
H 	H 	0.30783 0.12697 0.26367 0.09300
C 	C 	0.32567 0.19857 0.25316 0.11200
C 	C 	0.33505 0.24148 0.27421 -0.16700
H 	H 	0.34153 0.26987 0.25937 0.08600
C 	C 	0.33458 0.24123 0.31793 0.09200
H 	H 	0.34133 0.27027 0.33187 -0.02000
C 	C 	0.32905 0.19866 0.20720 -0.04800
H 	H 	0.32953 0.22417 0.19157 0.05500
C 	C 	0.23324 0.19603 0.45277 0.08700
H 	H 	0.23733 0.17447 0.47037 -0.01100
C 	C 	0.18888 0.19599 0.45421 -0.17300
H 	H 	0.16363 0.17477 0.47227 0.10500
C 	C 	0.18273 0.22848 0.42802 0.12500
C 	C 	0.22189 0.26030 0.40292 -0.18700
H 	H 	0.21923 0.28317 0.38587 0.09800
C 	C 	0.26517 0.25808 0.40326 0.10000
H 	H 	0.29143 0.27997 0.38627 -0.02500
C 	C 	0.13467 0.22750 0.42658 -0.05600
H 	H 	0.12883 0.24517 0.40597 0.06700
C 	C 	0.02428 0.16894 0.42733 -0.07200
H 	H 	0.03143 0.14697 0.41347 0.06200
N 	N 	0.87911 0.14952 0.41589 -0.25100
N 	N 	0.32497 0.20134 0.34090 -0.23700
N 	N 	0.33129 0.16329 0.18887 -0.08000
N 	N 	0.05721 0.20297 0.44953 -0.07200
N 	N 	0.10158 0.20249 0.45356 -0.07300
N 	N 	0.27098 0.22583 0.42706 -0.25100
C 	C 	0.81280 0.72696 0.43822 0.10100
H 	H 	0.79123 0.69717 0.45157 -0.02300
C 	C 	0.80429 0.76646 0.44239 -0.17900
H 	H 	0.77753 0.76317 0.45787 0.10100
C 	C 	0.83650 0.81090 0.42303 0.12500
C 	C 	0.87474 0.81359 0.39887 -0.17900
H 	H 	0.89623 0.84267 0.38467 0.09500
C 	C 	0.88060 0.77232 0.39612 0.09800
H 	H 	0.90643 0.77437 0.37987 -0.02100
C 	C 	0.84075 0.15524 0.32014 0.08700
H 	H 	0.86903 0.17577 0.33567 -0.01600
C 	C 	0.84359 0.15837 0.27682 -0.16200
H 	H 	0.87303 0.18087 0.26367 0.09500
C 	C 	0.80143 0.12711 0.25316 0.11100
C 	C 	0.75852 0.09358 0.27421 -0.16700
H 	H 	0.73013 0.07167 0.25937 0.08500
C 	C 	0.75877 0.09336 0.31793 0.09200
H 	H 	0.72973 0.07107 0.33187 -0.02100
C 	C 	0.80134 0.13040 0.20720 -0.04700
H 	H 	0.77583 0.10537 0.19157 0.05300
C 	C 	0.80397 0.03722 0.45277 0.05900
H 	H 	0.82553 0.06287 0.47037 -0.00300
C 	C 	0.80401 0.99290 0.45421 -0.13900
H 	H 	0.82523 0.98887 0.47227 0.09800
C 	C 	0.77152 0.95426 0.42802 0.10400
C 	C 	0.73970 0.96160 0.40292 -0.15200
H 	H 	0.71683 0.93607 0.38587 0.08800
C 	C 	0.74192 0.00710 0.40326 0.07100
H 	H 	0.72003 0.01147 0.38627 -0.01700
C 	C 	0.77250 0.90718 0.42658 -0.04400
H 	H 	0.75483 0.88367 0.40597 0.06500
C 	C 	0.83106 0.85535 0.42733 -0.05300
H 	H 	0.85303 0.88447 0.41347 0.06200
N 	N 	0.85048 0.72960 0.41589 -0.24900
N 	N 	0.79866 0.12364 0.34090 -0.23800
N 	N 	0.83671 0.16801 0.18887 -0.08000
N 	N 	0.79703 0.85425 0.44953 -0.07300
N 	N 	0.79751 0.89910 0.45356 -0.07300
N 	N 	0.77417 0.04516 0.42706 -0.24200
C 	C 	0.75251 0.60638 0.39512 0.10100
H 	H 	0.76073 0.63617 0.38177 -0.02300
C 	C 	0.70450 0.56688 0.39095 -0.17900
H 	H 	0.68103 0.57017 0.37547 0.10100
C 	C 	0.69227 0.52244 0.41031 0.12400
C 	C 	0.72782 0.51975 0.43447 -0.17800
H 	H 	0.72023 0.49067 0.44867 0.09200
C 	C 	0.77495 0.56102 0.43722 0.09700
H 	H 	0.79873 0.55897 0.45347 -0.02200
C 	C 	0.35218 0.17810 0.51320 0.08700
H 	H 	0.35993 0.15757 0.49767 -0.01700
C 	C 	0.35189 0.17497 0.55652 -0.16200
H 	H 	0.35883 0.15247 0.56967 0.09300
C 	C 	0.34099 0.20623 0.58018 0.11200
C 	C 	0.33161 0.23976 0.55913 -0.16700
H 	H 	0.32513 0.26167 0.57397 0.08600
C 	C 	0.33208 0.23998 0.51541 0.09200
H 	H 	0.32533 0.26227 0.50147 -0.02000
C 	C 	0.33761 0.20294 0.62614 -0.04800
H 	H 	0.33713 0.22797 0.64177 0.05500
C 	C 	0.43342 0.29612 0.38057 0.08700
H 	H 	0.42933 0.27047 0.36297 -0.01100
C 	C 	0.47778 0.34044 0.37913 -0.17300
H 	H 	0.50303 0.34447 0.36107 0.10600
C 	C 	0.48393 0.37908 0.40532 0.12500
C 	C 	0.44477 0.37174 0.43042 -0.18700
H 	H 	0.44743 0.39727 0.44747 0.09800
C 	C 	0.40149 0.32624 0.43008 0.10000
H 	H 	0.37523 0.32187 0.44707 -0.02500
C 	C 	0.53199 0.42616 0.40676 -0.05500
H 	H 	0.53783 0.44967 0.42737 0.06800
C 	C 	0.64238 0.47799 0.40601 -0.05300
H 	H 	0.63523 0.44887 0.41987 0.06000
N 	N 	0.78755 0.60374 0.41745 -0.24900
N 	N 	0.34169 0.20970 0.49244 -0.23700
N 	N 	0.33537 0.16533 0.64447 -0.08000
N 	N 	0.60945 0.47909 0.38381 -0.07400
N 	N 	0.56508 0.43424 0.37978 -0.07200
N 	N 	0.39568 0.28818 0.40628 -0.25100
C 	C 	0.85386 0.24749 0.39512 0.10100
H 	H 	0.87543 0.23927 0.38177 -0.02200
C 	C 	0.86237 0.29550 0.39095 -0.17800
H 	H 	0.88913 0.31897 0.37547 0.10200
C 	C 	0.83016 0.30773 0.41031 0.12400
C 	C 	0.79192 0.27218 0.43447 -0.17800
H 	H 	0.77043 0.27977 0.44867 0.09300
C 	C 	0.78606 0.22505 0.43722 0.09700
H 	H 	0.76023 0.20127 0.45347 -0.02200
C 	C 	0.82591 0.64782 0.51320 0.08800
H 	H 	0.79763 0.64007 0.49767 -0.01600
C 	C 	0.82307 0.64811 0.55652 -0.16300
H 	H 	0.79363 0.64117 0.56967 0.09400
C 	C 	0.86523 0.65901 0.58018 0.11300
C 	C 	0.90814 0.66839 0.55913 -0.16700
H 	H 	0.93653 0.67487 0.57397 0.08900
C 	C 	0.90789 0.66792 0.51541 0.09400
H 	H 	0.93693 0.67467 0.50147 -0.01900
C 	C 	0.86532 0.66239 0.62614 -0.04800
H 	H 	0.89083 0.66287 0.64177 0.05600
C 	C 	0.86269 0.56658 0.38057 0.08800
H 	H 	0.84113 0.57067 0.36297 -0.01100
C 	C 	0.86265 0.52222 0.37913 -0.17400
H 	H 	0.84143 0.49697 0.36107 0.10600
C 	C 	0.89514 0.51607 0.40532 0.12700
C 	C 	0.92696 0.55523 0.43042 -0.18700
H 	H 	0.94983 0.55257 0.44747 0.10100
C 	C 	0.92474 0.59851 0.43008 0.10200
H 	H 	0.94663 0.62477 0.44707 -0.02300
C 	C 	0.89416 0.46801 0.40676 -0.05500
H 	H 	0.91183 0.46217 0.42737 0.07000
C 	C 	0.83560 0.35762 0.40601 -0.05200
H 	H 	0.81363 0.36477 0.41987 0.06000
N 	N 	0.81618 0.21245 0.41745 -0.24900
N 	N 	0.86800 0.65831 0.49244 -0.23800
N 	N 	0.82995 0.66463 0.64447 -0.07900
N 	N 	0.86963 0.39055 0.38381 -0.07300
N 	N 	0.86915 0.43492 0.37978 -0.07200
N 	N 	0.89249 0.60432 0.40628 -0.25100
C 	C 	0.39362 0.14614 0.39512 0.10000
H 	H 	0.36383 0.12457 0.38177 -0.02400
C 	C 	0.43312 0.13763 0.39095 -0.17900
H 	H 	0.42983 0.11087 0.37547 0.10000
C 	C 	0.47756 0.16984 0.41031 0.12300
C 	C 	0.48025 0.20808 0.43447 -0.17800
H 	H 	0.50933 0.22957 0.44867 0.09200
C 	C 	0.43898 0.21394 0.43722 0.09700
H 	H 	0.44103 0.23977 0.45347 -0.02200
C 	C 	0.82190 0.17409 0.51320 0.08700
H 	H 	0.84243 0.20237 0.49767 -0.01600
C 	C 	0.82503 0.17693 0.55652 -0.16200
H 	H 	0.84753 0.20637 0.56967 0.09500
C 	C 	0.79377 0.13477 0.58018 0.11100
C 	C 	0.76024 0.09186 0.55913 -0.16700
H 	H 	0.73833 0.06347 0.57397 0.08400
C 	C 	0.76002 0.09211 0.51541 0.09100
H 	H 	0.73773 0.06307 0.50147 -0.02100
C 	C 	0.79706 0.13468 0.62614 -0.04700
H 	H 	0.77203 0.10917 0.64177 0.05400
C 	C 	0.70388 0.13731 0.38057 0.08700
H 	H 	0.72953 0.15887 0.36297 -0.01100
C 	C 	0.65956 0.13735 0.37913 -0.17200
H 	H 	0.65553 0.15857 0.36107 0.10600
C 	C 	0.62092 0.10486 0.40532 0.12400
C 	C 	0.62826 0.07304 0.43042 -0.18600
H 	H 	0.60273 0.05017 0.44747 0.09600
C 	C 	0.67376 0.07526 0.43008 0.09900
H 	H 	0.67813 0.05337 0.44707 -0.02600
C 	C 	0.57384 0.10584 0.40676 -0.05500
H 	H 	0.55033 0.08817 0.42737 0.06600
C 	C 	0.52201 0.16440 0.40601 -0.05300
H 	H 	0.55113 0.18637 0.41987 0.06000
N 	N 	0.39626 0.18382 0.41745 -0.24900
N 	N 	0.79030 0.13200 0.49244 -0.23700
N 	N 	0.83467 0.17005 0.64447 -0.07900
N 	N 	0.52091 0.13037 0.38381 -0.07400
N 	N 	0.56576 0.13085 0.37978 -0.07300
N 	N 	0.71182 0.10751 0.40628 -0.25100
Cd	Cd	0.79450 0.66667 0.91667 1.18800
Cd	Cd	0.33333 0.12783 0.91667 1.18800
Cd	Cd	0.87217 0.20550 0.91667 1.18800
Cd	Cd	0.87217 0.66667 0.41667 1.18800
Cd	Cd	0.33333 0.20550 0.41667 1.18800
Cd	Cd	0.79450 0.12783 0.41667 1.18800
