data_crystal

_cell_length_a 13.36500
_cell_length_b 13.36500
_cell_length_c 27.42900
_cell_angle_alpha 90.00000
_cell_angle_beta  90.00000
_cell_angle_gamma 90.00000

_symmetry_space_group_name_	'P 1'
_symmetry_space_group_name_H-M	'P 1'

loop_
_symmetry_equiv_pos_as_xyz
  x,y,z

loop_
_atom_site_label
_atom_site_type_symbol
_atom_site_fract_x
_atom_site_fract_y
_atom_site_fract_z
_atom_site_charge
Zn	Zn	0.58775 0.02348 0.05332 1.18300
C 	C 	0.48170 0.12210 0.26446 -0.02900
H 	H 	0.43330 0.16810 0.27410 0.05700
C 	C 	0.49980 0.10630 0.21505 -0.02600
H 	H 	0.46530 0.14320 0.19170 0.05000
C 	C 	0.57000 0.03510 0.20079 -0.05600
C 	C 	0.58850 0.01530 0.14754 0.29200
C 	C 	0.55950 0.22100 0.00260 0.09100
H 	H 	0.60020 0.25290 0.02530 -0.05000
C 	C 	0.46690 0.19370 0.94181 0.08900
H 	H 	0.42970 0.20250 0.91340 -0.00800
N 	N 	0.51610 0.26760 0.96454 -0.29300
N 	N 	0.47720 0.10680 0.96444 -0.26100
N 	N 	0.53740 0.12450 0.00404 -0.26200
O 	O 	0.54930 0.07607 0.11678 -0.46400
O 	O 	0.64022 0.94240 0.13467 -0.32800
Zn	Zn	0.91225 0.47652 0.05332 1.18500
C 	C 	0.01830 0.37790 0.26446 -0.02700
H 	H 	0.06670 0.33190 0.27410 0.05800
C 	C 	0.00020 0.39370 0.21505 -0.02500
H 	H 	0.03470 0.35680 0.19170 0.05100
C 	C 	0.93000 0.46490 0.20079 -0.05400
C 	C 	0.91150 0.48470 0.14754 0.29500
C 	C 	0.94050 0.27900 0.00260 0.09200
H 	H 	0.89980 0.24710 0.02530 -0.04900
C 	C 	0.03310 0.30630 0.94181 0.09500
H 	H 	0.07030 0.29750 0.91340 -0.00800
N 	N 	0.98390 0.23240 0.96454 -0.29500
N 	N 	0.02280 0.39320 0.96444 -0.26000
N 	N 	0.96260 0.37550 0.00404 -0.26100
O 	O 	0.95070 0.42393 0.11678 -0.46500
O 	O 	0.85978 0.55760 0.13467 -0.33000
Zn	Zn	0.47652 0.58775 0.05332 1.18500
C 	C 	0.37790 0.48170 0.26446 -0.02800
H 	H 	0.33190 0.43330 0.27410 0.05800
C 	C 	0.39370 0.49980 0.21505 -0.02500
H 	H 	0.35680 0.46530 0.19170 0.05100
C 	C 	0.46490 0.57000 0.20079 -0.05300
C 	C 	0.48470 0.58850 0.14754 0.29500
C 	C 	0.27900 0.55950 0.00260 0.09200
H 	H 	0.24710 0.60020 0.02530 -0.04900
C 	C 	0.30630 0.46690 0.94181 0.09000
H 	H 	0.29750 0.42970 0.91340 -0.00700
N 	N 	0.23240 0.51610 0.96454 -0.29200
N 	N 	0.39320 0.47720 0.96444 -0.26000
N 	N 	0.37550 0.53740 0.00404 -0.26100
O 	O 	0.42393 0.54930 0.11678 -0.46500
O 	O 	0.55760 0.64022 0.13467 -0.33000
Zn	Zn	0.02348 0.91225 0.05332 1.18300
C 	C 	0.12210 0.01830 0.26446 -0.02200
H 	H 	0.16810 0.06670 0.27410 0.05600
C 	C 	0.10630 0.00020 0.21505 -0.01900
H 	H 	0.14320 0.03470 0.19170 0.05000
C 	C 	0.03510 0.93000 0.20079 -0.06200
C 	C 	0.01530 0.91150 0.14754 0.29100
C 	C 	0.22100 0.94050 0.00260 0.09200
H 	H 	0.25290 0.89980 0.02530 -0.04900
C 	C 	0.19370 0.03310 0.94181 0.09500
H 	H 	0.20250 0.07030 0.91340 -0.00800
N 	N 	0.26760 0.98390 0.96454 -0.29500
N 	N 	0.10680 0.02280 0.96444 -0.25700
N 	N 	0.12450 0.96260 0.00404 -0.26300
O 	O 	0.07607 0.95070 0.11678 -0.46600
O 	O 	0.94240 0.85978 0.13467 -0.32500
Zn	Zn	0.41225 0.52348 0.44668 1.18500
C 	C 	0.51830 0.62210 0.23554 -0.02800
H 	H 	0.56670 0.66810 0.22590 0.05800
C 	C 	0.50020 0.60630 0.28495 -0.02500
H 	H 	0.53470 0.64320 0.30830 0.05100
C 	C 	0.43000 0.53510 0.29921 -0.05300
C 	C 	0.41150 0.51530 0.35246 0.29500
C 	C 	0.44050 0.72100 0.49740 0.09200
H 	H 	0.39980 0.75290 0.47470 -0.04900
C 	C 	0.53310 0.69370 0.55819 0.09000
H 	H 	0.57030 0.70250 0.58660 -0.00700
N 	N 	0.48390 0.76760 0.53546 -0.29200
N 	N 	0.52280 0.60680 0.53556 -0.26000
N 	N 	0.46260 0.62450 0.49596 -0.26100
O 	O 	0.45070 0.57607 0.38322 -0.46500
O 	O 	0.35978 0.44240 0.36533 -0.33000
Zn	Zn	0.08775 0.97652 0.44668 1.18400
C 	C 	0.98170 0.87790 0.23554 -0.02200
H 	H 	0.93330 0.83190 0.22590 0.05600
C 	C 	0.99980 0.89370 0.28495 -0.01800
H 	H 	0.96530 0.85680 0.30830 0.05000
C 	C 	0.07000 0.96490 0.29921 -0.06300
C 	C 	0.08850 0.98470 0.35246 0.29200
C 	C 	0.05950 0.77900 0.49740 0.09200
H 	H 	0.10020 0.74710 0.47470 -0.04900
C 	C 	0.96690 0.80630 0.55819 0.09400
H 	H 	0.92970 0.79750 0.58660 -0.00700
N 	N 	0.01610 0.73240 0.53546 -0.29400
N 	N 	0.97720 0.89320 0.53556 -0.25800
N 	N 	0.03740 0.87550 0.49596 -0.26300
O 	O 	0.04930 0.92393 0.38322 -0.46600
O 	O 	0.14022 0.05760 0.36533 -0.32600
Zn	Zn	0.52348 0.08775 0.44668 1.18500
C 	C 	0.62210 0.98170 0.23554 -0.02700
H 	H 	0.66810 0.93330 0.22590 0.05800
C 	C 	0.60630 0.99980 0.28495 -0.02400
H 	H 	0.64320 0.96530 0.30830 0.05100
C 	C 	0.53510 0.07000 0.29921 -0.05500
C 	C 	0.51530 0.08850 0.35246 0.29500
C 	C 	0.72100 0.05950 0.49740 0.09200
H 	H 	0.75290 0.10020 0.47470 -0.04900
C 	C 	0.69370 0.96690 0.55819 0.09400
H 	H 	0.70250 0.92970 0.58660 -0.00800
N 	N 	0.76760 0.01610 0.53546 -0.29400
N 	N 	0.60680 0.97720 0.53556 -0.26000
N 	N 	0.62450 0.03740 0.49596 -0.26100
O 	O 	0.57607 0.04930 0.38322 -0.46500
O 	O 	0.44240 0.14022 0.36533 -0.33000
Zn	Zn	0.97652 0.41225 0.44668 1.18400
C 	C 	0.87790 0.51830 0.23554 -0.02800
H 	H 	0.83190 0.56670 0.22590 0.05800
C 	C 	0.89370 0.50020 0.28495 -0.02500
H 	H 	0.85680 0.53470 0.30830 0.05100
C 	C 	0.96490 0.43000 0.29921 -0.05400
C 	C 	0.98470 0.41150 0.35246 0.29300
C 	C 	0.77900 0.44050 0.49740 0.09200
H 	H 	0.74710 0.39980 0.47470 -0.04900
C 	C 	0.80630 0.53310 0.55819 0.09000
H 	H 	0.79750 0.57030 0.58660 -0.00700
N 	N 	0.73240 0.48390 0.53546 -0.29200
N 	N 	0.89320 0.52280 0.53556 -0.26000
N 	N 	0.87550 0.46260 0.49596 -0.26100
O 	O 	0.92393 0.45070 0.38322 -0.46400
O 	O 	0.05760 0.35978 0.36533 -0.32900
Zn	Zn	0.41225 0.97652 0.94668 1.18400
C 	C 	0.51830 0.87790 0.73554 -0.02800
H 	H 	0.56670 0.83190 0.72590 0.05800
C 	C 	0.50020 0.89370 0.78495 -0.02500
H 	H 	0.53470 0.85680 0.80830 0.05100
C 	C 	0.43000 0.96490 0.79921 -0.05500
C 	C 	0.41150 0.98470 0.85246 0.29300
C 	C 	0.44050 0.77900 0.99740 0.09200
H 	H 	0.39980 0.74710 0.97470 -0.04900
C 	C 	0.53310 0.80630 0.05819 0.09000
H 	H 	0.57030 0.79750 0.08660 -0.00700
N 	N 	0.48390 0.73240 0.03546 -0.29200
N 	N 	0.52280 0.89320 0.03556 -0.26000
N 	N 	0.46260 0.87550 0.99596 -0.26100
O 	O 	0.45070 0.92393 0.88322 -0.46400
O 	O 	0.35978 0.05760 0.86533 -0.32800
Zn	Zn	0.08775 0.52348 0.94668 1.18500
C 	C 	0.98170 0.62210 0.73554 -0.02700
H 	H 	0.93330 0.66810 0.72590 0.05800
C 	C 	0.99980 0.60630 0.78495 -0.02500
H 	H 	0.96530 0.64320 0.80830 0.05100
C 	C 	0.07000 0.53510 0.79921 -0.05400
C 	C 	0.08850 0.51530 0.85246 0.29500
C 	C 	0.05950 0.72100 0.99740 0.09200
H 	H 	0.10020 0.75290 0.97470 -0.04900
C 	C 	0.96690 0.69370 0.05819 0.09500
H 	H 	0.92970 0.70250 0.08660 -0.00800
N 	N 	0.01610 0.76760 0.03546 -0.29500
N 	N 	0.97720 0.60680 0.03556 -0.26000
N 	N 	0.03740 0.62450 0.99596 -0.26100
O 	O 	0.04930 0.57607 0.88322 -0.46500
O 	O 	0.14022 0.44240 0.86533 -0.33000
Zn	Zn	0.52348 0.41225 0.94668 1.18500
C 	C 	0.62210 0.51830 0.73554 -0.02800
H 	H 	0.66810 0.56670 0.72590 0.05800
C 	C 	0.60630 0.50020 0.78495 -0.02500
H 	H 	0.64320 0.53470 0.80830 0.05100
C 	C 	0.53510 0.43000 0.79921 -0.05300
C 	C 	0.51530 0.41150 0.85246 0.29500
C 	C 	0.72100 0.44050 0.99740 0.09200
H 	H 	0.75290 0.39980 0.97470 -0.04900
C 	C 	0.69370 0.53310 0.05819 0.09000
H 	H 	0.70250 0.57030 0.08660 -0.00700
N 	N 	0.76760 0.48390 0.03546 -0.29200
N 	N 	0.60680 0.52280 0.03556 -0.26000
N 	N 	0.62450 0.46260 0.99596 -0.26100
O 	O 	0.57607 0.45070 0.88322 -0.46500
O 	O 	0.44240 0.35978 0.86533 -0.33000
Zn	Zn	0.97652 0.08775 0.94668 1.18300
C 	C 	0.87790 0.98170 0.73554 -0.02200
H 	H 	0.83190 0.93330 0.72590 0.05600
C 	C 	0.89370 0.99980 0.78495 -0.01900
H 	H 	0.85680 0.96530 0.80830 0.05000
C 	C 	0.96490 0.07000 0.79921 -0.06200
C 	C 	0.98470 0.08850 0.85246 0.29100
C 	C 	0.77900 0.05950 0.99740 0.09200
H 	H 	0.74710 0.10020 0.97470 -0.04900
C 	C 	0.80630 0.96690 0.05819 0.09500
H 	H 	0.79750 0.92970 0.08660 -0.00800
N 	N 	0.73240 0.01610 0.03546 -0.29500
N 	N 	0.89320 0.97720 0.03556 -0.25700
N 	N 	0.87550 0.03740 0.99596 -0.26300
O 	O 	0.92393 0.04930 0.88322 -0.46600
O 	O 	0.05760 0.14022 0.86533 -0.32500
Zn	Zn	0.58775 0.47652 0.55332 1.18500
C 	C 	0.48170 0.37790 0.76446 -0.02800
H 	H 	0.43330 0.33190 0.77410 0.05800
C 	C 	0.49980 0.39370 0.71505 -0.02500
H 	H 	0.46530 0.35680 0.69170 0.05100
C 	C 	0.57000 0.46490 0.70079 -0.05300
C 	C 	0.58850 0.48470 0.64754 0.29500
C 	C 	0.55950 0.27900 0.50260 0.09200
H 	H 	0.60020 0.24710 0.52530 -0.04900
C 	C 	0.46690 0.30630 0.44181 0.09000
H 	H 	0.42970 0.29750 0.41340 -0.00700
N 	N 	0.51610 0.23240 0.46454 -0.29200
N 	N 	0.47720 0.39320 0.46444 -0.26000
N 	N 	0.53740 0.37550 0.50404 -0.26100
O 	O 	0.54930 0.42393 0.61678 -0.46500
O 	O 	0.64022 0.55760 0.63467 -0.33000
Zn	Zn	0.91225 0.02348 0.55332 1.18400
C 	C 	0.01830 0.12210 0.76446 -0.02200
H 	H 	0.06670 0.16810 0.77410 0.05600
C 	C 	0.00020 0.10630 0.71505 -0.01800
H 	H 	0.03470 0.14320 0.69170 0.05000
C 	C 	0.93000 0.03510 0.70079 -0.06300
C 	C 	0.91150 0.01530 0.64754 0.29200
C 	C 	0.94050 0.22100 0.50260 0.09200
H 	H 	0.89980 0.25290 0.52530 -0.04900
C 	C 	0.03310 0.19370 0.44181 0.09400
H 	H 	0.07030 0.20250 0.41340 -0.00700
N 	N 	0.98390 0.26760 0.46454 -0.29400
N 	N 	0.02280 0.10680 0.46444 -0.25800
N 	N 	0.96260 0.12450 0.50404 -0.26300
O 	O 	0.95070 0.07607 0.61678 -0.46600
O 	O 	0.85978 0.94240 0.63467 -0.32600
Zn	Zn	0.47652 0.91225 0.55332 1.18500
C 	C 	0.37790 0.01830 0.76446 -0.02700
H 	H 	0.33190 0.06670 0.77410 0.05800
C 	C 	0.39370 0.00020 0.71505 -0.02400
H 	H 	0.35680 0.03470 0.69170 0.05100
C 	C 	0.46490 0.93000 0.70079 -0.05500
C 	C 	0.48470 0.91150 0.64754 0.29500
C 	C 	0.27900 0.94050 0.50260 0.09200
H 	H 	0.24710 0.89980 0.52530 -0.04900
C 	C 	0.30630 0.03310 0.44181 0.09400
H 	H 	0.29750 0.07030 0.41340 -0.00800
N 	N 	0.23240 0.98390 0.46454 -0.29400
N 	N 	0.39320 0.02280 0.46444 -0.26000
N 	N 	0.37550 0.96260 0.50404 -0.26100
O 	O 	0.42393 0.95070 0.61678 -0.46500
O 	O 	0.55760 0.85978 0.63467 -0.33000
Zn	Zn	0.02348 0.58775 0.55332 1.18400
C 	C 	0.12210 0.48170 0.76446 -0.02800
H 	H 	0.16810 0.43330 0.77410 0.05800
C 	C 	0.10630 0.49980 0.71505 -0.02500
H 	H 	0.14320 0.46530 0.69170 0.05100
C 	C 	0.03510 0.57000 0.70079 -0.05400
C 	C 	0.01530 0.58850 0.64754 0.29300
C 	C 	0.22100 0.55950 0.50260 0.09200
H 	H 	0.25290 0.60020 0.52530 -0.04900
C 	C 	0.19370 0.46690 0.44181 0.09000
H 	H 	0.20250 0.42970 0.41340 -0.00700
N 	N 	0.26760 0.51610 0.46454 -0.29200
N 	N 	0.10680 0.47720 0.46444 -0.26000
N 	N 	0.12450 0.53740 0.50404 -0.26100
O 	O 	0.07607 0.54930 0.61678 -0.46400
O 	O 	0.94240 0.64022 0.63467 -0.32900
