data_crystal

_cell_length_a 37.22700
_cell_length_b 37.22700
_cell_length_c 30.14900
_cell_angle_alpha 90.00000
_cell_angle_beta  90.00000
_cell_angle_gamma 120.00000

_symmetry_space_group_name_	'P 1'
_symmetry_space_group_name_H-M	'P 1'

loop_
_symmetry_equiv_pos_as_xyz
  x,y,z

loop_
_atom_site_label
_atom_site_type_symbol
_atom_site_fract_x
_atom_site_fract_y
_atom_site_fract_z
_atom_site_charge
Zn	Zn	0.63325 0.85832 0.73877 1.09500
Zn	Zn	0.70235 0.84200 0.69821 1.12800
Zn	Zn	0.37702 0.71901 0.21812 1.15600
O 	O 	0.73840 0.09510 0.27310 -0.46300
O 	O 	0.79060 0.09350 0.31960 -0.45300
O 	O 	0.67830 0.85440 0.64530 -0.46000
O 	O 	0.62860 0.87150 0.67570 -0.44100
O 	O 	0.57680 0.82002 0.75440 -0.53700
O 	O 	0.75850 0.87250 0.71050 -0.46500
F 	F 	0.68850 0.00860 0.26240 -0.48200
F 	F 	0.74100 0.07560 0.39860 -0.48400
F 	F 	0.70720 0.91570 0.58210 -0.47600
F 	F 	0.56740 0.83070 0.61340 -0.44800
F 	F 	0.46000 0.72520 0.38140 -0.40400
F 	F 	0.45580 0.83190 0.29630 -0.40800
F 	F 	0.50990 0.80140 0.69860 -0.44700
F 	F 	0.82140 0.85540 0.71750 -0.47100
C 	C 	0.62960 0.93440 0.39920 -0.19700
C 	C 	0.63870 0.92780 0.44220 0.14100
H 	H 	0.66300 0.94750 0.45580 -0.00600
C 	C 	0.61130 0.89180 0.46470 -0.18700
C 	C 	0.57490 0.86230 0.44440 0.13400
H 	H 	0.55660 0.83820 0.45950 -0.00200
C 	C 	0.56580 0.86890 0.40140 -0.20200
C 	C 	0.59310 0.90490 0.37890 0.14200
H 	H 	0.58700 0.90930 0.35020 -0.00600
C 	C 	0.65950 0.97170 0.37400 0.43300
C 	C 	0.68690 0.00660 0.39800 -0.54600
H 	H 	0.68640 0.00600 0.42890 0.27400
C 	C 	0.71520 0.04260 0.37600 0.70100
C 	C 	0.71600 0.04360 0.32990 -0.51400
C 	C 	0.68860 0.00860 0.30590 0.70900
C 	C 	0.66030 0.97270 0.32790 -0.55200
H 	H 	0.64190 0.94930 0.31190 0.27900
C 	C 	0.61680 0.88540 0.51280 0.42300
C 	C 	0.58600 0.86020 0.54270 -0.53900
H 	H 	0.55820 0.84730 0.53420 0.27500
C 	C 	0.59650 0.85430 0.58520 0.69900
C 	C 	0.63790 0.87350 0.59780 -0.51600
C 	C 	0.66880 0.89870 0.56800 0.70900
C 	C 	0.65830 0.90460 0.52550 -0.54800
H 	H 	0.67890 0.92140 0.50550 0.27300
C 	C 	0.52430 0.83540 0.37990 0.47900
C 	C 	0.50530 0.84670 0.34750 -0.35700
H 	H 	0.51610 0.87450 0.34020 0.21500
C 	C 	0.47010 0.81640 0.32580 0.54700
C 	C 	0.45400 0.77480 0.33670 -0.77600
C 	C 	0.47300 0.76350 0.36920 0.51000
C 	C 	0.50810 0.79380 0.39080 -0.35100
H 	H 	0.52080 0.78630 0.41250 0.21300
C 	C 	0.75090 0.08070 0.30760 0.75800
C 	C 	0.64530 0.86040 0.64230 0.80000
C 	C 	0.41840 0.74140 0.31110 0.99100
C 	C 	0.44472 0.74690 0.72350 -0.51800
H 	H 	0.43030 0.75600 0.70600 0.27000
C 	C 	0.48824 0.76850 0.72340 0.68800
C 	C 	0.88860 0.91481 0.73290 -0.55700
H 	H 	0.90310 0.90250 0.72150 0.27400
C 	C 	0.84509 0.89304 0.73290 0.68400
O 	O 	0.40490 0.74780 0.27310 -0.57600
O 	O 	0.38510 0.71200 0.33110 -0.58000
F 	F 	0.42240 0.76300 0.41070 -0.40800
F 	F 	0.49560 0.79230 0.27130 -0.41200
C 	C 	0.48770 0.81180 0.40350 -0.34000
H 	H 	0.48670 0.81650 0.43360 0.21200
C 	C 	0.45280 0.78100 0.38200 0.52600
C 	C 	0.49100 0.79730 0.31350 0.51400
C 	C 	0.52570 0.82870 0.33470 -0.34000
H 	H 	0.54980 0.84530 0.31870 0.20600
Zn	Zn	0.62770 0.79240 0.70670 1.11900
Zn	Zn	0.69790 0.88950 0.72140 1.08800
O 	O 	0.42420 0.70960 0.30440 -0.44300
O 	O 	0.39430 0.75800 0.31140 -0.27000
O 	O 	0.77350 0.07170 0.27930 -0.37100
O 	O 	0.74710 0.11460 0.31500 -0.41200
O 	O 	0.68020 0.89240 0.65980 -0.40800
O 	O 	0.61980 0.82040 0.65440 -0.43000
O 	O 	0.75220 0.90930 0.74400 -0.45100
O 	O 	0.57390 0.78710 0.70910 -0.40300
Zn	Zn	0.14168 0.77493 0.73877 1.09400
Zn	Zn	0.15800 0.86035 0.69821 1.12700
Zn	Zn	0.28099 0.65801 0.21812 1.15500
O 	O 	0.90490 0.64330 0.27310 -0.46400
O 	O 	0.90650 0.69710 0.31960 -0.45400
O 	O 	0.14560 0.82390 0.64530 -0.46100
O 	O 	0.12850 0.75710 0.67570 -0.44200
O 	O 	0.17998 0.75678 0.75440 -0.53800
O 	O 	0.12750 0.88600 0.71050 -0.46600
F 	F 	0.99140 0.67990 0.26240 -0.48300
F 	F 	0.92440 0.66540 0.39860 -0.48400
F 	F 	0.08430 0.79150 0.58210 -0.47600
F 	F 	0.16930 0.73670 0.61340 -0.44800
F 	F 	0.27480 0.73480 0.38140 -0.40400
F 	F 	0.16810 0.62390 0.29630 -0.40800
F 	F 	0.19860 0.70850 0.69860 -0.44700
F 	F 	0.14460 0.96600 0.71750 -0.47100
C 	C 	0.06560 0.69520 0.39920 -0.19700
C 	C 	0.07220 0.71090 0.44220 0.14100
H 	H 	0.05250 0.71550 0.45580 -0.00600
C 	C 	0.10820 0.71950 0.46470 -0.18700
C 	C 	0.13770 0.71260 0.44440 0.13400
H 	H 	0.16180 0.71840 0.45950 -0.00200
C 	C 	0.13110 0.69690 0.40140 -0.20200
C 	C 	0.09510 0.68820 0.37890 0.14200
H 	H 	0.09070 0.67770 0.35020 -0.00600
C 	C 	0.02830 0.68780 0.37400 0.43300
C 	C 	0.99340 0.68030 0.39800 -0.54600
H 	H 	0.99400 0.68040 0.42890 0.27400
C 	C 	0.95740 0.67260 0.37600 0.70100
C 	C 	0.95640 0.67240 0.32990 -0.51400
C 	C 	0.99140 0.68000 0.30590 0.70900
C 	C 	0.02730 0.68760 0.32790 -0.55200
H 	H 	0.05070 0.69260 0.31190 0.27900
C 	C 	0.11460 0.73140 0.51280 0.42300
C 	C 	0.13980 0.72580 0.54270 -0.53900
H 	H 	0.15270 0.71090 0.53420 0.27500
C 	C 	0.14570 0.74220 0.58520 0.69900
C 	C 	0.12650 0.76440 0.59780 -0.51600
C 	C 	0.10130 0.77010 0.56800 0.70900
C 	C 	0.09540 0.75370 0.52550 -0.54800
H 	H 	0.07860 0.75750 0.50550 0.27300
C 	C 	0.16460 0.68890 0.37990 0.47900
C 	C 	0.15330 0.65860 0.34750 -0.35700
H 	H 	0.12550 0.64160 0.34020 0.21500
C 	C 	0.18360 0.65370 0.32580 0.54700
C 	C 	0.22520 0.67920 0.33670 -0.77600
C 	C 	0.23650 0.70950 0.36920 0.51000
C 	C 	0.20620 0.71430 0.39080 -0.35100
H 	H 	0.21370 0.73450 0.41250 0.21300
C 	C 	0.91930 0.67020 0.30760 0.75800
C 	C 	0.13960 0.78490 0.64230 0.80000
C 	C 	0.25860 0.67700 0.31110 0.99100
C 	C 	0.25310 0.69782 0.72350 -0.51800
H 	H 	0.24400 0.67430 0.70600 0.27000
C 	C 	0.23150 0.71974 0.72340 0.68800
C 	C 	0.08519 0.97379 0.73290 -0.55700
H 	H 	0.09750 0.00060 0.72150 0.27400
C 	C 	0.10696 0.95205 0.73290 0.68400
O 	O 	0.25220 0.65710 0.27310 -0.57600
O 	O 	0.28800 0.67310 0.33110 -0.58000
F 	F 	0.23700 0.65940 0.41070 -0.40800
F 	F 	0.20770 0.70330 0.27130 -0.41200
C 	C 	0.18820 0.67590 0.40350 -0.34000
H 	H 	0.18350 0.67020 0.43360 0.21200
C 	C 	0.21900 0.67180 0.38200 0.52600
C 	C 	0.20270 0.69370 0.31350 0.51400
C 	C 	0.17130 0.69700 0.33470 -0.34000
H 	H 	0.15470 0.70450 0.31870 0.20600
Zn	Zn	0.20760 0.83530 0.70670 1.11900
Zn	Zn	0.11050 0.80840 0.72140 1.08800
O 	O 	0.29040 0.71460 0.30440 -0.44300
O 	O 	0.24200 0.63630 0.31140 -0.27000
O 	O 	0.92830 0.70180 0.27930 -0.37100
O 	O 	0.88540 0.63250 0.31500 -0.41200
O 	O 	0.10760 0.78780 0.65980 -0.40800
O 	O 	0.17960 0.79940 0.65440 -0.43000
O 	O 	0.09070 0.84290 0.74400 -0.45100
O 	O 	0.21290 0.78680 0.70910 -0.40300
Zn	Zn	0.22507 0.36675 0.73877 1.09400
Zn	Zn	0.13965 0.29765 0.69821 1.12700
Zn	Zn	0.34199 0.62298 0.21812 1.15500
O 	O 	0.35670 0.26160 0.27310 -0.46400
O 	O 	0.30290 0.20940 0.31960 -0.45400
O 	O 	0.17610 0.32170 0.64530 -0.46100
O 	O 	0.24290 0.37140 0.67570 -0.44200
O 	O 	0.24322 0.42320 0.75440 -0.53800
O 	O 	0.11400 0.24150 0.71050 -0.46600
F 	F 	0.32010 0.31150 0.26240 -0.48300
F 	F 	0.33460 0.25900 0.39860 -0.48400
F 	F 	0.20850 0.29280 0.58210 -0.47600
F 	F 	0.26330 0.43260 0.61340 -0.44800
F 	F 	0.26520 0.54000 0.38140 -0.40400
F 	F 	0.37610 0.54420 0.29630 -0.40800
F 	F 	0.29150 0.49010 0.69860 -0.44700
F 	F 	0.03400 0.17860 0.71750 -0.47100
C 	C 	0.30480 0.37040 0.39920 -0.19700
C 	C 	0.28910 0.36130 0.44220 0.14100
H 	H 	0.28450 0.33700 0.45580 -0.00600
C 	C 	0.28050 0.38870 0.46470 -0.18700
C 	C 	0.28740 0.42510 0.44440 0.13400
H 	H 	0.28160 0.44340 0.45950 -0.00200
C 	C 	0.30310 0.43420 0.40140 -0.20200
C 	C 	0.31180 0.40690 0.37890 0.14200
H 	H 	0.32230 0.41300 0.35020 -0.00600
C 	C 	0.31220 0.34050 0.37400 0.43300
C 	C 	0.31970 0.31310 0.39800 -0.54600
H 	H 	0.31960 0.31360 0.42890 0.27400
C 	C 	0.32740 0.28480 0.37600 0.70100
C 	C 	0.32760 0.28400 0.32990 -0.51400
C 	C 	0.32000 0.31140 0.30590 0.70900
C 	C 	0.31240 0.33970 0.32790 -0.55200
H 	H 	0.30740 0.35810 0.31190 0.27900
C 	C 	0.26860 0.38320 0.51280 0.42300
C 	C 	0.27420 0.41400 0.54270 -0.53900
H 	H 	0.28910 0.44180 0.53420 0.27500
C 	C 	0.25780 0.40350 0.58520 0.69900
C 	C 	0.23560 0.36210 0.59780 -0.51600
C 	C 	0.22990 0.33120 0.56800 0.70900
C 	C 	0.24630 0.34170 0.52550 -0.54800
H 	H 	0.24250 0.32110 0.50550 0.27300
C 	C 	0.31110 0.47570 0.37990 0.47900
C 	C 	0.34140 0.49470 0.34750 -0.35700
H 	H 	0.35840 0.48390 0.34020 0.21500
C 	C 	0.34630 0.52990 0.32580 0.54700
C 	C 	0.32080 0.54600 0.33670 -0.77600
C 	C 	0.29050 0.52700 0.36920 0.51000
C 	C 	0.28570 0.49190 0.39080 -0.35100
H 	H 	0.26550 0.47920 0.41250 0.21300
C 	C 	0.32980 0.24910 0.30760 0.75800
C 	C 	0.21510 0.35470 0.64230 0.80000
C 	C 	0.32300 0.58160 0.31110 0.99100
C 	C 	0.30218 0.55528 0.72350 -0.51800
H 	H 	0.32570 0.56970 0.70600 0.27000
C 	C 	0.28026 0.51176 0.72340 0.68800
C 	C 	0.02621 0.11140 0.73290 -0.55700
H 	H 	0.99940 0.09690 0.72150 0.27400
C 	C 	0.04795 0.15491 0.73290 0.68400
O 	O 	0.34290 0.59510 0.27310 -0.57600
O 	O 	0.32690 0.61490 0.33110 -0.58000
F 	F 	0.34060 0.57760 0.41070 -0.40800
F 	F 	0.29670 0.50440 0.27130 -0.41200
C 	C 	0.32410 0.51230 0.40350 -0.34000
H 	H 	0.32980 0.51330 0.43360 0.21200
C 	C 	0.32820 0.54720 0.38200 0.52600
C 	C 	0.30630 0.50900 0.31350 0.51400
C 	C 	0.30300 0.47430 0.33470 -0.34000
H 	H 	0.29550 0.45020 0.31870 0.20600
Zn	Zn	0.16470 0.37230 0.70670 1.11900
Zn	Zn	0.19160 0.30210 0.72140 1.08800
O 	O 	0.28540 0.57580 0.30440 -0.44300
O 	O 	0.36370 0.60570 0.31140 -0.27000
O 	O 	0.29820 0.22650 0.27930 -0.37100
O 	O 	0.36750 0.25290 0.31500 -0.41200
O 	O 	0.21220 0.31980 0.65980 -0.40800
O 	O 	0.20060 0.38020 0.65440 -0.43000
O 	O 	0.15710 0.24780 0.74400 -0.45100
O 	O 	0.21320 0.42610 0.70910 -0.40300
Zn	Zn	0.14168 0.36675 0.76123 1.09400
Zn	Zn	0.15800 0.29765 0.80179 1.12700
Zn	Zn	0.28099 0.62298 0.28188 1.15500
O 	O 	0.90490 0.26160 0.22690 -0.46400
O 	O 	0.90650 0.20940 0.18040 -0.45400
O 	O 	0.14560 0.32170 0.85470 -0.46100
O 	O 	0.12850 0.37140 0.82430 -0.44200
O 	O 	0.17998 0.42320 0.74560 -0.53800
O 	O 	0.12750 0.24150 0.78950 -0.46600
F 	F 	0.99140 0.31150 0.23760 -0.48300
F 	F 	0.92440 0.25900 0.10140 -0.48400
F 	F 	0.08430 0.29280 0.91790 -0.47600
F 	F 	0.16930 0.43260 0.88660 -0.44800
F 	F 	0.27480 0.54000 0.11860 -0.40400
F 	F 	0.16810 0.54420 0.20370 -0.40800
F 	F 	0.19860 0.49010 0.80140 -0.44700
F 	F 	0.14460 0.17860 0.78250 -0.47100
C 	C 	0.06560 0.37040 0.10080 -0.19700
C 	C 	0.07220 0.36130 0.05780 0.14100
H 	H 	0.05250 0.33700 0.04420 -0.00600
C 	C 	0.10820 0.38870 0.03530 -0.18700
C 	C 	0.13770 0.42510 0.05560 0.13400
H 	H 	0.16180 0.44340 0.04050 -0.00200
C 	C 	0.13110 0.43420 0.09860 -0.20200
C 	C 	0.09510 0.40690 0.12110 0.14200
H 	H 	0.09070 0.41300 0.14980 -0.00600
C 	C 	0.02830 0.34050 0.12600 0.43300
C 	C 	0.99340 0.31310 0.10200 -0.54600
H 	H 	0.99400 0.31360 0.07110 0.27400
C 	C 	0.95740 0.28480 0.12400 0.70100
C 	C 	0.95640 0.28400 0.17010 -0.51400
C 	C 	0.99140 0.31140 0.19410 0.70900
C 	C 	0.02730 0.33970 0.17210 -0.55200
H 	H 	0.05070 0.35810 0.18810 0.27900
C 	C 	0.11460 0.38320 0.98720 0.42300
C 	C 	0.13980 0.41400 0.95730 -0.53900
H 	H 	0.15270 0.44180 0.96580 0.27500
C 	C 	0.14570 0.40350 0.91480 0.69900
C 	C 	0.12650 0.36210 0.90220 -0.51600
C 	C 	0.10130 0.33120 0.93200 0.70900
C 	C 	0.09540 0.34170 0.97450 -0.54800
H 	H 	0.07860 0.32110 0.99450 0.27300
C 	C 	0.16460 0.47570 0.12010 0.47900
C 	C 	0.15330 0.49470 0.15250 -0.35700
H 	H 	0.12550 0.48390 0.15980 0.21500
C 	C 	0.18360 0.52990 0.17420 0.54700
C 	C 	0.22520 0.54600 0.16330 -0.77600
C 	C 	0.23650 0.52700 0.13080 0.51000
C 	C 	0.20620 0.49190 0.10920 -0.35100
H 	H 	0.21370 0.47920 0.08750 0.21300
C 	C 	0.91930 0.24910 0.19240 0.75800
C 	C 	0.13960 0.35470 0.85770 0.80000
C 	C 	0.25860 0.58160 0.18890 0.99100
C 	C 	0.25310 0.55528 0.77650 -0.51800
H 	H 	0.24400 0.56970 0.79400 0.27000
C 	C 	0.23150 0.51176 0.77660 0.68800
C 	C 	0.08519 0.11140 0.76710 -0.55700
H 	H 	0.09750 0.09690 0.77850 0.27400
C 	C 	0.10696 0.15491 0.76710 0.68400
O 	O 	0.25220 0.59510 0.22690 -0.57600
O 	O 	0.28800 0.61490 0.16890 -0.58000
F 	F 	0.23700 0.57760 0.08930 -0.40800
F 	F 	0.20770 0.50440 0.22870 -0.41200
C 	C 	0.18820 0.51230 0.09650 -0.34000
H 	H 	0.18350 0.51330 0.06640 0.21200
C 	C 	0.21900 0.54720 0.11800 0.52600
C 	C 	0.20270 0.50900 0.18650 0.51400
C 	C 	0.17130 0.47430 0.16530 -0.34000
H 	H 	0.15470 0.45020 0.18130 0.20600
Zn	Zn	0.20760 0.37230 0.79330 1.11900
Zn	Zn	0.11050 0.30210 0.77860 1.08800
O 	O 	0.29040 0.57580 0.19560 -0.44300
O 	O 	0.24200 0.60570 0.18860 -0.27000
O 	O 	0.92830 0.22650 0.22070 -0.37100
O 	O 	0.88540 0.25290 0.18500 -0.41200
O 	O 	0.10760 0.31980 0.84020 -0.40800
O 	O 	0.17960 0.38020 0.84560 -0.43000
O 	O 	0.09070 0.24780 0.75600 -0.45100
O 	O 	0.21290 0.42610 0.79090 -0.40300
Zn	Zn	0.22507 0.85832 0.76123 1.09400
Zn	Zn	0.13965 0.84200 0.80179 1.12700
Zn	Zn	0.34199 0.71901 0.28188 1.15500
O 	O 	0.35670 0.09510 0.22690 -0.46400
O 	O 	0.30290 0.09350 0.18040 -0.45400
O 	O 	0.17610 0.85440 0.85470 -0.46100
O 	O 	0.24290 0.87150 0.82430 -0.44200
O 	O 	0.24322 0.82002 0.74560 -0.53800
O 	O 	0.11400 0.87250 0.78950 -0.46600
F 	F 	0.32010 0.00860 0.23760 -0.48300
F 	F 	0.33460 0.07560 0.10140 -0.48400
F 	F 	0.20850 0.91570 0.91790 -0.47600
F 	F 	0.26330 0.83070 0.88660 -0.44800
F 	F 	0.26520 0.72520 0.11860 -0.40400
F 	F 	0.37610 0.83190 0.20370 -0.40800
F 	F 	0.29150 0.80140 0.80140 -0.44700
F 	F 	0.03400 0.85540 0.78250 -0.47100
C 	C 	0.30480 0.93440 0.10080 -0.19700
C 	C 	0.28910 0.92780 0.05780 0.14100
H 	H 	0.28450 0.94750 0.04420 -0.00600
C 	C 	0.28050 0.89180 0.03530 -0.18700
C 	C 	0.28740 0.86230 0.05560 0.13400
H 	H 	0.28160 0.83820 0.04050 -0.00200
C 	C 	0.30310 0.86890 0.09860 -0.20300
C 	C 	0.31180 0.90490 0.12110 0.14200
H 	H 	0.32230 0.90930 0.14980 -0.00600
C 	C 	0.31220 0.97170 0.12600 0.43300
C 	C 	0.31970 0.00660 0.10200 -0.54600
H 	H 	0.31960 0.00600 0.07110 0.27400
C 	C 	0.32740 0.04260 0.12400 0.70100
C 	C 	0.32760 0.04360 0.17010 -0.51400
C 	C 	0.32000 0.00860 0.19410 0.70900
C 	C 	0.31240 0.97270 0.17210 -0.55200
H 	H 	0.30740 0.94930 0.18810 0.27900
C 	C 	0.26860 0.88540 0.98720 0.42300
C 	C 	0.27420 0.86020 0.95730 -0.53900
H 	H 	0.28910 0.84730 0.96580 0.27500
C 	C 	0.25780 0.85430 0.91480 0.69900
C 	C 	0.23560 0.87350 0.90220 -0.51600
C 	C 	0.22990 0.89870 0.93200 0.70900
C 	C 	0.24630 0.90460 0.97450 -0.54800
H 	H 	0.24250 0.92140 0.99450 0.27300
C 	C 	0.31110 0.83540 0.12010 0.47900
C 	C 	0.34140 0.84670 0.15250 -0.35700
H 	H 	0.35840 0.87450 0.15980 0.21500
C 	C 	0.34630 0.81640 0.17420 0.54700
C 	C 	0.32080 0.77480 0.16330 -0.77600
C 	C 	0.29050 0.76350 0.13080 0.51000
C 	C 	0.28570 0.79380 0.10920 -0.35100
H 	H 	0.26550 0.78630 0.08750 0.21300
C 	C 	0.32980 0.08070 0.19240 0.75800
C 	C 	0.21510 0.86040 0.85770 0.80000
C 	C 	0.32300 0.74140 0.18890 0.99100
C 	C 	0.30218 0.74690 0.77650 -0.51800
H 	H 	0.32570 0.75600 0.79400 0.27000
C 	C 	0.28026 0.76850 0.77660 0.68800
C 	C 	0.02621 0.91481 0.76710 -0.55700
H 	H 	0.99940 0.90250 0.77850 0.27400
C 	C 	0.04795 0.89304 0.76710 0.68400
O 	O 	0.34290 0.74780 0.22690 -0.57600
O 	O 	0.32690 0.71200 0.16890 -0.58000
F 	F 	0.34060 0.76300 0.08930 -0.40800
F 	F 	0.29670 0.79230 0.22870 -0.41200
C 	C 	0.32410 0.81180 0.09650 -0.34000
H 	H 	0.32980 0.81650 0.06640 0.21200
C 	C 	0.32820 0.78100 0.11800 0.52600
C 	C 	0.30630 0.79730 0.18650 0.51400
C 	C 	0.30300 0.82870 0.16530 -0.34000
H 	H 	0.29550 0.84530 0.18130 0.20600
Zn	Zn	0.16470 0.79240 0.79330 1.11900
Zn	Zn	0.19160 0.88950 0.77860 1.08800
O 	O 	0.28540 0.70960 0.19560 -0.44300
O 	O 	0.36370 0.75800 0.18860 -0.27000
O 	O 	0.29820 0.07170 0.22070 -0.37100
O 	O 	0.36750 0.11460 0.18500 -0.41200
O 	O 	0.21220 0.89240 0.84020 -0.40800
O 	O 	0.20060 0.82040 0.84560 -0.43000
O 	O 	0.15710 0.90930 0.75600 -0.45100
O 	O 	0.21320 0.78710 0.79090 -0.40300
Zn	Zn	0.63325 0.77493 0.76123 1.09400
Zn	Zn	0.70235 0.86035 0.80179 1.12700
Zn	Zn	0.37702 0.65801 0.28188 1.15500
O 	O 	0.73840 0.64330 0.22690 -0.46400
O 	O 	0.79060 0.69710 0.18040 -0.45400
O 	O 	0.67830 0.82390 0.85470 -0.46100
O 	O 	0.62860 0.75710 0.82430 -0.44200
O 	O 	0.57680 0.75678 0.74560 -0.53800
O 	O 	0.75850 0.88600 0.78950 -0.46600
F 	F 	0.68850 0.67990 0.23760 -0.48300
F 	F 	0.74100 0.66540 0.10140 -0.48400
F 	F 	0.70720 0.79150 0.91790 -0.47600
F 	F 	0.56740 0.73670 0.88660 -0.44800
F 	F 	0.46000 0.73480 0.11860 -0.40400
F 	F 	0.45580 0.62390 0.20370 -0.40800
F 	F 	0.50990 0.70850 0.80140 -0.44700
F 	F 	0.82140 0.96600 0.78250 -0.47100
C 	C 	0.62960 0.69520 0.10080 -0.19700
C 	C 	0.63870 0.71090 0.05780 0.14100
H 	H 	0.66300 0.71550 0.04420 -0.00600
C 	C 	0.61130 0.71950 0.03530 -0.18700
C 	C 	0.57490 0.71260 0.05560 0.13400
H 	H 	0.55660 0.71840 0.04050 -0.00200
C 	C 	0.56580 0.69690 0.09860 -0.20200
C 	C 	0.59310 0.68820 0.12110 0.14200
H 	H 	0.58700 0.67770 0.14980 -0.00600
C 	C 	0.65950 0.68780 0.12600 0.43300
C 	C 	0.68690 0.68030 0.10200 -0.54600
H 	H 	0.68640 0.68040 0.07110 0.27400
C 	C 	0.71520 0.67260 0.12400 0.70100
C 	C 	0.71600 0.67240 0.17010 -0.51400
C 	C 	0.68860 0.68000 0.19410 0.70900
C 	C 	0.66030 0.68760 0.17210 -0.55200
H 	H 	0.64190 0.69260 0.18810 0.27900
C 	C 	0.61680 0.73140 0.98720 0.42300
C 	C 	0.58600 0.72580 0.95730 -0.53900
H 	H 	0.55820 0.71090 0.96580 0.27500
C 	C 	0.59650 0.74220 0.91480 0.69900
C 	C 	0.63790 0.76440 0.90220 -0.51600
C 	C 	0.66880 0.77010 0.93200 0.70900
C 	C 	0.65830 0.75370 0.97450 -0.54800
H 	H 	0.67890 0.75750 0.99450 0.27300
C 	C 	0.52430 0.68890 0.12010 0.47900
C 	C 	0.50530 0.65860 0.15250 -0.35700
H 	H 	0.51610 0.64160 0.15980 0.21500
C 	C 	0.47010 0.65370 0.17420 0.54700
C 	C 	0.45400 0.67920 0.16330 -0.77600
C 	C 	0.47300 0.70950 0.13080 0.51000
C 	C 	0.50810 0.71430 0.10920 -0.35100
H 	H 	0.52080 0.73450 0.08750 0.21300
C 	C 	0.75090 0.67020 0.19240 0.75800
C 	C 	0.64530 0.78490 0.85770 0.80000
C 	C 	0.41840 0.67700 0.18890 0.99100
C 	C 	0.44472 0.69782 0.77650 -0.51800
H 	H 	0.43030 0.67430 0.79400 0.27000
C 	C 	0.48824 0.71974 0.77660 0.68800
C 	C 	0.88860 0.97379 0.76710 -0.55700
H 	H 	0.90310 0.00060 0.77850 0.27400
C 	C 	0.84509 0.95205 0.76710 0.68400
O 	O 	0.40490 0.65710 0.22690 -0.57600
O 	O 	0.38510 0.67310 0.16890 -0.58000
F 	F 	0.42240 0.65940 0.08930 -0.40800
F 	F 	0.49560 0.70330 0.22870 -0.41200
C 	C 	0.48770 0.67590 0.09650 -0.34000
H 	H 	0.48670 0.67020 0.06640 0.21200
C 	C 	0.45280 0.67180 0.11800 0.52600
C 	C 	0.49100 0.69370 0.18650 0.51400
C 	C 	0.52570 0.69700 0.16530 -0.34000
H 	H 	0.54980 0.70450 0.18130 0.20600
Zn	Zn	0.62770 0.83530 0.79330 1.11900
Zn	Zn	0.69790 0.80840 0.77860 1.08800
O 	O 	0.42420 0.71460 0.19560 -0.44300
O 	O 	0.39430 0.63630 0.18860 -0.27000
O 	O 	0.77350 0.70180 0.22070 -0.37100
O 	O 	0.74710 0.63250 0.18500 -0.41200
O 	O 	0.68020 0.78780 0.84020 -0.40800
O 	O 	0.61980 0.79940 0.84560 -0.43000
O 	O 	0.75220 0.84290 0.75600 -0.45100
O 	O 	0.57390 0.78680 0.79090 -0.40300
Zn	Zn	0.36675 0.14168 0.26123 1.09400
Zn	Zn	0.29765 0.15800 0.30179 1.12700
Zn	Zn	0.62298 0.28099 0.78188 1.15500
O 	O 	0.26160 0.90490 0.72690 -0.46400
O 	O 	0.20940 0.90650 0.68040 -0.45400
O 	O 	0.32170 0.14560 0.35470 -0.46100
O 	O 	0.37140 0.12850 0.32430 -0.44200
O 	O 	0.42320 0.17998 0.24560 -0.53800
O 	O 	0.24150 0.12750 0.28950 -0.46600
F 	F 	0.31150 0.99140 0.73760 -0.48300
F 	F 	0.25900 0.92440 0.60140 -0.48400
F 	F 	0.29280 0.08430 0.41790 -0.47600
F 	F 	0.43260 0.16930 0.38660 -0.44800
F 	F 	0.54000 0.27480 0.61860 -0.40400
F 	F 	0.54420 0.16810 0.70370 -0.40800
F 	F 	0.49010 0.19860 0.30140 -0.44700
F 	F 	0.17860 0.14460 0.28250 -0.47100
C 	C 	0.37040 0.06560 0.60080 -0.19700
C 	C 	0.36130 0.07220 0.55780 0.14100
H 	H 	0.33700 0.05250 0.54420 -0.00600
C 	C 	0.38870 0.10820 0.53530 -0.18700
C 	C 	0.42510 0.13770 0.55560 0.13400
H 	H 	0.44340 0.16180 0.54050 -0.00200
C 	C 	0.43420 0.13110 0.59860 -0.20200
C 	C 	0.40690 0.09510 0.62110 0.14200
H 	H 	0.41300 0.09070 0.64980 -0.00600
C 	C 	0.34050 0.02830 0.62600 0.43300
C 	C 	0.31310 0.99340 0.60200 -0.54600
H 	H 	0.31360 0.99400 0.57110 0.27400
C 	C 	0.28480 0.95740 0.62400 0.70100
C 	C 	0.28400 0.95640 0.67010 -0.51400
C 	C 	0.31140 0.99140 0.69410 0.70900
C 	C 	0.33970 0.02730 0.67210 -0.55200
H 	H 	0.35810 0.05070 0.68810 0.27900
C 	C 	0.38320 0.11460 0.48720 0.42300
C 	C 	0.41400 0.13980 0.45730 -0.53900
H 	H 	0.44180 0.15270 0.46580 0.27500
C 	C 	0.40350 0.14570 0.41480 0.69900
C 	C 	0.36210 0.12650 0.40220 -0.51600
C 	C 	0.33120 0.10130 0.43200 0.70900
C 	C 	0.34170 0.09540 0.47450 -0.54800
H 	H 	0.32110 0.07860 0.49450 0.27300
C 	C 	0.47570 0.16460 0.62010 0.47900
C 	C 	0.49470 0.15330 0.65250 -0.35700
H 	H 	0.48390 0.12550 0.65980 0.21500
C 	C 	0.52990 0.18360 0.67420 0.54700
C 	C 	0.54600 0.22520 0.66330 -0.77600
C 	C 	0.52700 0.23650 0.63080 0.51000
C 	C 	0.49190 0.20620 0.60920 -0.35100
H 	H 	0.47920 0.21370 0.58750 0.21300
C 	C 	0.24910 0.91930 0.69240 0.75800
C 	C 	0.35470 0.13960 0.35770 0.80000
C 	C 	0.58160 0.25860 0.68890 0.99100
C 	C 	0.55528 0.25310 0.27650 -0.51800
H 	H 	0.56970 0.24400 0.29400 0.27000
C 	C 	0.51176 0.23150 0.27660 0.68800
C 	C 	0.11140 0.08519 0.26710 -0.55700
H 	H 	0.09690 0.09750 0.27850 0.27400
C 	C 	0.15491 0.10696 0.26710 0.68400
O 	O 	0.59510 0.25220 0.72690 -0.57600
O 	O 	0.61490 0.28800 0.66890 -0.58000
F 	F 	0.57760 0.23700 0.58930 -0.40800
F 	F 	0.50440 0.20770 0.72870 -0.41200
C 	C 	0.51230 0.18820 0.59650 -0.34000
H 	H 	0.51330 0.18350 0.56640 0.21200
C 	C 	0.54720 0.21900 0.61800 0.52600
C 	C 	0.50900 0.20270 0.68650 0.51400
C 	C 	0.47430 0.17130 0.66530 -0.34000
H 	H 	0.45020 0.15470 0.68130 0.20600
Zn	Zn	0.37230 0.20760 0.29330 1.11900
Zn	Zn	0.30210 0.11050 0.27860 1.08800
O 	O 	0.57580 0.29040 0.69560 -0.44300
O 	O 	0.60570 0.24200 0.68860 -0.27000
O 	O 	0.22650 0.92830 0.72070 -0.37100
O 	O 	0.25290 0.88540 0.68500 -0.41200
O 	O 	0.31980 0.10760 0.34020 -0.40800
O 	O 	0.38020 0.17960 0.34560 -0.43000
O 	O 	0.24780 0.09070 0.25600 -0.45100
O 	O 	0.42610 0.21290 0.29090 -0.40300
Zn	Zn	0.85832 0.22507 0.26123 1.09400
Zn	Zn	0.84200 0.13965 0.30179 1.12700
Zn	Zn	0.71901 0.34199 0.78188 1.15500
O 	O 	0.09510 0.35670 0.72690 -0.46400
O 	O 	0.09350 0.30290 0.68040 -0.45400
O 	O 	0.85440 0.17610 0.35470 -0.46100
O 	O 	0.87150 0.24290 0.32430 -0.44200
O 	O 	0.82002 0.24322 0.24560 -0.53800
O 	O 	0.87250 0.11400 0.28950 -0.46600
F 	F 	0.00860 0.32010 0.73760 -0.48300
F 	F 	0.07560 0.33460 0.60140 -0.48400
F 	F 	0.91570 0.20850 0.41790 -0.47600
F 	F 	0.83070 0.26330 0.38660 -0.44800
F 	F 	0.72520 0.26520 0.61860 -0.40400
F 	F 	0.83190 0.37610 0.70370 -0.40800
F 	F 	0.80140 0.29150 0.30140 -0.44700
F 	F 	0.85540 0.03400 0.28250 -0.47100
C 	C 	0.93440 0.30480 0.60080 -0.19700
C 	C 	0.92780 0.28910 0.55780 0.14100
H 	H 	0.94750 0.28450 0.54420 -0.00600
C 	C 	0.89180 0.28050 0.53530 -0.18700
C 	C 	0.86230 0.28740 0.55560 0.13400
H 	H 	0.83820 0.28160 0.54050 -0.00200
C 	C 	0.86890 0.30310 0.59860 -0.20200
C 	C 	0.90490 0.31180 0.62110 0.14200
H 	H 	0.90930 0.32230 0.64980 -0.00600
C 	C 	0.97170 0.31220 0.62600 0.43300
C 	C 	0.00660 0.31970 0.60200 -0.54600
H 	H 	0.00600 0.31960 0.57110 0.27400
C 	C 	0.04260 0.32740 0.62400 0.70100
C 	C 	0.04360 0.32760 0.67010 -0.51400
C 	C 	0.00860 0.32000 0.69410 0.70900
C 	C 	0.97270 0.31240 0.67210 -0.55200
H 	H 	0.94930 0.30740 0.68810 0.27900
C 	C 	0.88540 0.26860 0.48720 0.42300
C 	C 	0.86020 0.27420 0.45730 -0.53900
H 	H 	0.84730 0.28910 0.46580 0.27500
C 	C 	0.85430 0.25780 0.41480 0.69900
C 	C 	0.87350 0.23560 0.40220 -0.51600
C 	C 	0.89870 0.22990 0.43200 0.70900
C 	C 	0.90460 0.24630 0.47450 -0.54800
H 	H 	0.92140 0.24250 0.49450 0.27300
C 	C 	0.83540 0.31110 0.62010 0.47900
C 	C 	0.84670 0.34140 0.65250 -0.35700
H 	H 	0.87450 0.35840 0.65980 0.21500
C 	C 	0.81640 0.34630 0.67420 0.54700
C 	C 	0.77480 0.32080 0.66330 -0.77600
C 	C 	0.76350 0.29050 0.63080 0.51000
C 	C 	0.79380 0.28570 0.60920 -0.35100
H 	H 	0.78630 0.26550 0.58750 0.21300
C 	C 	0.08070 0.32980 0.69240 0.75800
C 	C 	0.86040 0.21510 0.35770 0.80000
C 	C 	0.74140 0.32300 0.68890 0.99100
C 	C 	0.74690 0.30218 0.27650 -0.51800
H 	H 	0.75600 0.32570 0.29400 0.27000
C 	C 	0.76850 0.28026 0.27660 0.68800
C 	C 	0.91481 0.02621 0.26710 -0.55700
H 	H 	0.90250 0.99940 0.27850 0.27400
C 	C 	0.89304 0.04795 0.26710 0.68400
O 	O 	0.74780 0.34290 0.72690 -0.57600
O 	O 	0.71200 0.32690 0.66890 -0.58000
F 	F 	0.76300 0.34060 0.58930 -0.40800
F 	F 	0.79230 0.29670 0.72870 -0.41200
C 	C 	0.81180 0.32410 0.59650 -0.34000
H 	H 	0.81650 0.32980 0.56640 0.21200
C 	C 	0.78100 0.32820 0.61800 0.52600
C 	C 	0.79730 0.30630 0.68650 0.51400
C 	C 	0.82870 0.30300 0.66530 -0.34000
H 	H 	0.84530 0.29550 0.68130 0.20600
Zn	Zn	0.79240 0.16470 0.29330 1.11900
Zn	Zn	0.88950 0.19160 0.27860 1.08800
O 	O 	0.70960 0.28540 0.69560 -0.44300
O 	O 	0.75800 0.36370 0.68860 -0.27000
O 	O 	0.07170 0.29820 0.72070 -0.37100
O 	O 	0.11460 0.36750 0.68500 -0.41200
O 	O 	0.89240 0.21220 0.34020 -0.40800
O 	O 	0.82040 0.20060 0.34560 -0.43000
O 	O 	0.90930 0.15710 0.25600 -0.45100
O 	O 	0.78710 0.21320 0.29090 -0.40300
Zn	Zn	0.77493 0.63325 0.26123 1.09400
Zn	Zn	0.86035 0.70235 0.30179 1.12700
Zn	Zn	0.65801 0.37702 0.78188 1.15500
O 	O 	0.64330 0.73840 0.72690 -0.46400
O 	O 	0.69710 0.79060 0.68040 -0.45400
O 	O 	0.82390 0.67830 0.35470 -0.46100
O 	O 	0.75710 0.62860 0.32430 -0.44200
O 	O 	0.75678 0.57680 0.24560 -0.53800
O 	O 	0.88600 0.75850 0.28950 -0.46600
F 	F 	0.67990 0.68850 0.73760 -0.48300
F 	F 	0.66540 0.74100 0.60140 -0.48400
F 	F 	0.79150 0.70720 0.41790 -0.47600
F 	F 	0.73670 0.56740 0.38660 -0.44800
F 	F 	0.73480 0.46000 0.61860 -0.40400
F 	F 	0.62390 0.45580 0.70370 -0.40800
F 	F 	0.70850 0.50990 0.30140 -0.44700
F 	F 	0.96600 0.82140 0.28250 -0.47100
C 	C 	0.69520 0.62960 0.60080 -0.19700
C 	C 	0.71090 0.63870 0.55780 0.14100
H 	H 	0.71550 0.66300 0.54420 -0.00600
C 	C 	0.71950 0.61130 0.53530 -0.18700
C 	C 	0.71260 0.57490 0.55560 0.13400
H 	H 	0.71840 0.55660 0.54050 -0.00200
C 	C 	0.69690 0.56580 0.59860 -0.20200
C 	C 	0.68820 0.59310 0.62110 0.14200
H 	H 	0.67770 0.58700 0.64980 -0.00600
C 	C 	0.68780 0.65950 0.62600 0.43300
C 	C 	0.68030 0.68690 0.60200 -0.54600
H 	H 	0.68040 0.68640 0.57110 0.27400
C 	C 	0.67260 0.71520 0.62400 0.70100
C 	C 	0.67240 0.71600 0.67010 -0.51400
C 	C 	0.68000 0.68860 0.69410 0.70900
C 	C 	0.68760 0.66030 0.67210 -0.55200
H 	H 	0.69260 0.64190 0.68810 0.27900
C 	C 	0.73140 0.61680 0.48720 0.42300
C 	C 	0.72580 0.58600 0.45730 -0.53900
H 	H 	0.71090 0.55820 0.46580 0.27500
C 	C 	0.74220 0.59650 0.41480 0.69900
C 	C 	0.76440 0.63790 0.40220 -0.51600
C 	C 	0.77010 0.66880 0.43200 0.70900
C 	C 	0.75370 0.65830 0.47450 -0.54800
H 	H 	0.75750 0.67890 0.49450 0.27300
C 	C 	0.68890 0.52430 0.62010 0.47900
C 	C 	0.65860 0.50530 0.65250 -0.35700
H 	H 	0.64160 0.51610 0.65980 0.21500
C 	C 	0.65370 0.47010 0.67420 0.54700
C 	C 	0.67920 0.45400 0.66330 -0.77600
C 	C 	0.70950 0.47300 0.63080 0.51000
C 	C 	0.71430 0.50810 0.60920 -0.35100
H 	H 	0.73450 0.52080 0.58750 0.21300
C 	C 	0.67020 0.75090 0.69240 0.75800
C 	C 	0.78490 0.64530 0.35770 0.80000
C 	C 	0.67700 0.41840 0.68890 0.99100
C 	C 	0.69782 0.44472 0.27650 -0.51800
H 	H 	0.67430 0.43030 0.29400 0.27000
C 	C 	0.71974 0.48824 0.27660 0.68800
C 	C 	0.97379 0.88860 0.26710 -0.55700
H 	H 	0.00060 0.90310 0.27850 0.27400
C 	C 	0.95205 0.84509 0.26710 0.68400
O 	O 	0.65710 0.40490 0.72690 -0.57600
O 	O 	0.67310 0.38510 0.66890 -0.58000
F 	F 	0.65940 0.42240 0.58930 -0.40800
F 	F 	0.70330 0.49560 0.72870 -0.41200
C 	C 	0.67590 0.48770 0.59650 -0.34000
H 	H 	0.67020 0.48670 0.56640 0.21200
C 	C 	0.67180 0.45280 0.61800 0.52600
C 	C 	0.69370 0.49100 0.68650 0.51400
C 	C 	0.69700 0.52570 0.66530 -0.34000
H 	H 	0.70450 0.54980 0.68130 0.20600
Zn	Zn	0.83530 0.62770 0.29330 1.11900
Zn	Zn	0.80840 0.69790 0.27860 1.08800
O 	O 	0.71460 0.42420 0.69560 -0.44300
O 	O 	0.63630 0.39430 0.68860 -0.27000
O 	O 	0.70180 0.77350 0.72070 -0.37100
O 	O 	0.63250 0.74710 0.68500 -0.41200
O 	O 	0.78780 0.68020 0.34020 -0.40800
O 	O 	0.79940 0.61980 0.34560 -0.43000
O 	O 	0.84290 0.75220 0.25600 -0.45100
O 	O 	0.78680 0.57390 0.29090 -0.40300
Zn	Zn	0.85832 0.63325 0.23877 1.09400
Zn	Zn	0.84200 0.70235 0.19821 1.12700
Zn	Zn	0.71901 0.37702 0.71812 1.15500
O 	O 	0.09510 0.73840 0.77310 -0.46400
O 	O 	0.09350 0.79060 0.81960 -0.45400
O 	O 	0.85440 0.67830 0.14530 -0.46100
O 	O 	0.87150 0.62860 0.17570 -0.44200
O 	O 	0.82002 0.57680 0.25440 -0.53800
O 	O 	0.87250 0.75850 0.21050 -0.46600
F 	F 	0.00860 0.68850 0.76240 -0.48300
F 	F 	0.07560 0.74100 0.89860 -0.48400
F 	F 	0.91570 0.70720 0.08210 -0.47600
F 	F 	0.83070 0.56740 0.11340 -0.44800
F 	F 	0.72520 0.46000 0.88140 -0.40400
F 	F 	0.83190 0.45580 0.79630 -0.40800
F 	F 	0.80140 0.50990 0.19860 -0.44700
F 	F 	0.85540 0.82140 0.21750 -0.47100
C 	C 	0.93440 0.62960 0.89920 -0.19700
C 	C 	0.92780 0.63870 0.94220 0.14100
H 	H 	0.94750 0.66300 0.95580 -0.00600
C 	C 	0.89180 0.61130 0.96470 -0.18700
C 	C 	0.86230 0.57490 0.94440 0.13400
H 	H 	0.83820 0.55660 0.95950 -0.00200
C 	C 	0.86890 0.56580 0.90140 -0.20200
C 	C 	0.90490 0.59310 0.87890 0.14200
H 	H 	0.90930 0.58700 0.85020 -0.00600
C 	C 	0.97170 0.65950 0.87400 0.43300
C 	C 	0.00660 0.68690 0.89800 -0.54600
H 	H 	0.00600 0.68640 0.92890 0.27400
C 	C 	0.04260 0.71520 0.87600 0.70100
C 	C 	0.04360 0.71600 0.82990 -0.51400
C 	C 	0.00860 0.68860 0.80590 0.70900
C 	C 	0.97270 0.66030 0.82790 -0.55200
H 	H 	0.94930 0.64190 0.81190 0.27900
C 	C 	0.88540 0.61680 0.01280 0.42300
C 	C 	0.86020 0.58600 0.04270 -0.53900
H 	H 	0.84730 0.55820 0.03420 0.27500
C 	C 	0.85430 0.59650 0.08520 0.69900
C 	C 	0.87350 0.63790 0.09780 -0.51600
C 	C 	0.89870 0.66880 0.06800 0.70900
C 	C 	0.90460 0.65830 0.02550 -0.54800
H 	H 	0.92140 0.67890 0.00550 0.27300
C 	C 	0.83540 0.52430 0.87990 0.47900
C 	C 	0.84670 0.50530 0.84750 -0.35700
H 	H 	0.87450 0.51610 0.84020 0.21500
C 	C 	0.81640 0.47010 0.82580 0.54700
C 	C 	0.77480 0.45400 0.83670 -0.77600
C 	C 	0.76350 0.47300 0.86920 0.51000
C 	C 	0.79380 0.50810 0.89080 -0.35100
H 	H 	0.78630 0.52080 0.91250 0.21300
C 	C 	0.08070 0.75090 0.80760 0.75800
C 	C 	0.86040 0.64530 0.14230 0.80000
C 	C 	0.74140 0.41840 0.81110 0.99100
C 	C 	0.74690 0.44472 0.22350 -0.51800
H 	H 	0.75600 0.43030 0.20600 0.27000
C 	C 	0.76850 0.48824 0.22340 0.68800
C 	C 	0.91481 0.88860 0.23290 -0.55700
H 	H 	0.90250 0.90310 0.22150 0.27400
C 	C 	0.89304 0.84509 0.23290 0.68400
O 	O 	0.74780 0.40490 0.77310 -0.57600
O 	O 	0.71200 0.38510 0.83110 -0.58000
F 	F 	0.76300 0.42240 0.91070 -0.40800
F 	F 	0.79230 0.49560 0.77130 -0.41200
C 	C 	0.81180 0.48770 0.90350 -0.34000
H 	H 	0.81650 0.48670 0.93360 0.21200
C 	C 	0.78100 0.45280 0.88200 0.52600
C 	C 	0.79730 0.49100 0.81350 0.51400
C 	C 	0.82870 0.52570 0.83470 -0.34000
H 	H 	0.84530 0.54980 0.81870 0.20600
Zn	Zn	0.79240 0.62770 0.20670 1.11900
Zn	Zn	0.88950 0.69790 0.22140 1.08800
O 	O 	0.70960 0.42420 0.80440 -0.44300
O 	O 	0.75800 0.39430 0.81140 -0.27000
O 	O 	0.07170 0.77350 0.77930 -0.37100
O 	O 	0.11460 0.74710 0.81500 -0.41200
O 	O 	0.89240 0.68020 0.15980 -0.40800
O 	O 	0.82040 0.61980 0.15440 -0.43000
O 	O 	0.90930 0.75220 0.24400 -0.45100
O 	O 	0.78710 0.57390 0.20910 -0.40300
Zn	Zn	0.77493 0.14168 0.23877 1.09400
Zn	Zn	0.86035 0.15800 0.19821 1.12700
Zn	Zn	0.65801 0.28099 0.71812 1.15500
O 	O 	0.64330 0.90490 0.77310 -0.46400
O 	O 	0.69710 0.90650 0.81960 -0.45400
O 	O 	0.82390 0.14560 0.14530 -0.46100
O 	O 	0.75710 0.12850 0.17570 -0.44200
O 	O 	0.75678 0.17998 0.25440 -0.53800
O 	O 	0.88600 0.12750 0.21050 -0.46600
F 	F 	0.67990 0.99140 0.76240 -0.48300
F 	F 	0.66540 0.92440 0.89860 -0.48400
F 	F 	0.79150 0.08430 0.08210 -0.47600
F 	F 	0.73670 0.16930 0.11340 -0.44800
F 	F 	0.73480 0.27480 0.88140 -0.40400
F 	F 	0.62390 0.16810 0.79630 -0.40800
F 	F 	0.70850 0.19860 0.19860 -0.44700
F 	F 	0.96600 0.14460 0.21750 -0.47100
C 	C 	0.69520 0.06560 0.89920 -0.19700
C 	C 	0.71090 0.07220 0.94220 0.14100
H 	H 	0.71550 0.05250 0.95580 -0.00600
C 	C 	0.71950 0.10820 0.96470 -0.18700
C 	C 	0.71260 0.13770 0.94440 0.13400
H 	H 	0.71840 0.16180 0.95950 -0.00200
C 	C 	0.69690 0.13110 0.90140 -0.20300
C 	C 	0.68820 0.09510 0.87890 0.14200
H 	H 	0.67770 0.09070 0.85020 -0.00600
C 	C 	0.68780 0.02830 0.87400 0.43300
C 	C 	0.68030 0.99340 0.89800 -0.54600
H 	H 	0.68040 0.99400 0.92890 0.27400
C 	C 	0.67260 0.95740 0.87600 0.70100
C 	C 	0.67240 0.95640 0.82990 -0.51400
C 	C 	0.68000 0.99140 0.80590 0.70900
C 	C 	0.68760 0.02730 0.82790 -0.55200
H 	H 	0.69260 0.05070 0.81190 0.27900
C 	C 	0.73140 0.11460 0.01280 0.42300
C 	C 	0.72580 0.13980 0.04270 -0.53900
H 	H 	0.71090 0.15270 0.03420 0.27500
C 	C 	0.74220 0.14570 0.08520 0.69900
C 	C 	0.76440 0.12650 0.09780 -0.51600
C 	C 	0.77010 0.10130 0.06800 0.70900
C 	C 	0.75370 0.09540 0.02550 -0.54800
H 	H 	0.75750 0.07860 0.00550 0.27300
C 	C 	0.68890 0.16460 0.87990 0.47900
C 	C 	0.65860 0.15330 0.84750 -0.35700
H 	H 	0.64160 0.12550 0.84020 0.21500
C 	C 	0.65370 0.18360 0.82580 0.54700
C 	C 	0.67920 0.22520 0.83670 -0.77600
C 	C 	0.70950 0.23650 0.86920 0.51000
C 	C 	0.71430 0.20620 0.89080 -0.35100
H 	H 	0.73450 0.21370 0.91250 0.21300
C 	C 	0.67020 0.91930 0.80760 0.75800
C 	C 	0.78490 0.13960 0.14230 0.80000
C 	C 	0.67700 0.25860 0.81110 0.99100
C 	C 	0.69782 0.25310 0.22350 -0.51800
H 	H 	0.67430 0.24400 0.20600 0.27000
C 	C 	0.71974 0.23150 0.22340 0.68800
C 	C 	0.97379 0.08519 0.23290 -0.55700
H 	H 	0.00060 0.09750 0.22150 0.27400
C 	C 	0.95205 0.10696 0.23290 0.68400
O 	O 	0.65710 0.25220 0.77310 -0.57600
O 	O 	0.67310 0.28800 0.83110 -0.58000
F 	F 	0.65940 0.23700 0.91070 -0.40800
F 	F 	0.70330 0.20770 0.77130 -0.41200
C 	C 	0.67590 0.18820 0.90350 -0.34000
H 	H 	0.67020 0.18350 0.93360 0.21200
C 	C 	0.67180 0.21900 0.88200 0.52600
C 	C 	0.69370 0.20270 0.81350 0.51400
C 	C 	0.69700 0.17130 0.83470 -0.34000
H 	H 	0.70450 0.15470 0.81870 0.20600
Zn	Zn	0.83530 0.20760 0.20670 1.11900
Zn	Zn	0.80840 0.11050 0.22140 1.08800
O 	O 	0.71460 0.29040 0.80440 -0.44300
O 	O 	0.63630 0.24200 0.81140 -0.27000
O 	O 	0.70180 0.92830 0.77930 -0.37100
O 	O 	0.63250 0.88540 0.81500 -0.41200
O 	O 	0.78780 0.10760 0.15980 -0.40800
O 	O 	0.79940 0.17960 0.15440 -0.43000
O 	O 	0.84290 0.09070 0.24400 -0.45100
O 	O 	0.78680 0.21290 0.20910 -0.40300
Zn	Zn	0.36675 0.22507 0.23877 1.09400
Zn	Zn	0.29765 0.13965 0.19821 1.12700
Zn	Zn	0.62298 0.34199 0.71812 1.15500
O 	O 	0.26160 0.35670 0.77310 -0.46400
O 	O 	0.20940 0.30290 0.81960 -0.45400
O 	O 	0.32170 0.17610 0.14530 -0.46100
O 	O 	0.37140 0.24290 0.17570 -0.44200
O 	O 	0.42320 0.24322 0.25440 -0.53800
O 	O 	0.24150 0.11400 0.21050 -0.46600
F 	F 	0.31150 0.32010 0.76240 -0.48300
F 	F 	0.25900 0.33460 0.89860 -0.48400
F 	F 	0.29280 0.20850 0.08210 -0.47600
F 	F 	0.43260 0.26330 0.11340 -0.44800
F 	F 	0.54000 0.26520 0.88140 -0.40400
F 	F 	0.54420 0.37610 0.79630 -0.40800
F 	F 	0.49010 0.29150 0.19860 -0.44700
F 	F 	0.17860 0.03400 0.21750 -0.47100
C 	C 	0.37040 0.30480 0.89920 -0.19700
C 	C 	0.36130 0.28910 0.94220 0.14100
H 	H 	0.33700 0.28450 0.95580 -0.00600
C 	C 	0.38870 0.28050 0.96470 -0.18700
C 	C 	0.42510 0.28740 0.94440 0.13400
H 	H 	0.44340 0.28160 0.95950 -0.00200
C 	C 	0.43420 0.30310 0.90140 -0.20200
C 	C 	0.40690 0.31180 0.87890 0.14200
H 	H 	0.41300 0.32230 0.85020 -0.00600
C 	C 	0.34050 0.31220 0.87400 0.43300
C 	C 	0.31310 0.31970 0.89800 -0.54600
H 	H 	0.31360 0.31960 0.92890 0.27400
C 	C 	0.28480 0.32740 0.87600 0.70100
C 	C 	0.28400 0.32760 0.82990 -0.51400
C 	C 	0.31140 0.32000 0.80590 0.70900
C 	C 	0.33970 0.31240 0.82790 -0.55200
H 	H 	0.35810 0.30740 0.81190 0.27900
C 	C 	0.38320 0.26860 0.01280 0.42300
C 	C 	0.41400 0.27420 0.04270 -0.53900
H 	H 	0.44180 0.28910 0.03420 0.27500
C 	C 	0.40350 0.25780 0.08520 0.69900
C 	C 	0.36210 0.23560 0.09780 -0.51600
C 	C 	0.33120 0.22990 0.06800 0.70900
C 	C 	0.34170 0.24630 0.02550 -0.54800
H 	H 	0.32110 0.24250 0.00550 0.27300
C 	C 	0.47570 0.31110 0.87990 0.47900
C 	C 	0.49470 0.34140 0.84750 -0.35700
H 	H 	0.48390 0.35840 0.84020 0.21500
C 	C 	0.52990 0.34630 0.82580 0.54700
C 	C 	0.54600 0.32080 0.83670 -0.77600
C 	C 	0.52700 0.29050 0.86920 0.51000
C 	C 	0.49190 0.28570 0.89080 -0.35100
H 	H 	0.47920 0.26550 0.91250 0.21300
C 	C 	0.24910 0.32980 0.80760 0.75800
C 	C 	0.35470 0.21510 0.14230 0.80000
C 	C 	0.58160 0.32300 0.81110 0.99100
C 	C 	0.55528 0.30218 0.22350 -0.51800
H 	H 	0.56970 0.32570 0.20600 0.27000
C 	C 	0.51176 0.28026 0.22340 0.68800
C 	C 	0.11140 0.02621 0.23290 -0.55700
H 	H 	0.09690 0.99940 0.22150 0.27400
C 	C 	0.15491 0.04795 0.23290 0.68400
O 	O 	0.59510 0.34290 0.77310 -0.57600
O 	O 	0.61490 0.32690 0.83110 -0.58000
F 	F 	0.57760 0.34060 0.91070 -0.40800
F 	F 	0.50440 0.29670 0.77130 -0.41200
C 	C 	0.51230 0.32410 0.90350 -0.34000
H 	H 	0.51330 0.32980 0.93360 0.21200
C 	C 	0.54720 0.32820 0.88200 0.52600
C 	C 	0.50900 0.30630 0.81350 0.51400
C 	C 	0.47430 0.30300 0.83470 -0.34000
H 	H 	0.45020 0.29550 0.81870 0.20600
Zn	Zn	0.37230 0.16470 0.20670 1.11900
Zn	Zn	0.30210 0.19160 0.22140 1.08800
O 	O 	0.57580 0.28540 0.80440 -0.44300
O 	O 	0.60570 0.36370 0.81140 -0.27000
O 	O 	0.22650 0.29820 0.77930 -0.37100
O 	O 	0.25290 0.36750 0.81500 -0.41200
O 	O 	0.31980 0.21220 0.15980 -0.40800
O 	O 	0.38020 0.20060 0.15440 -0.43000
O 	O 	0.24780 0.15710 0.24400 -0.45100
O 	O 	0.42610 0.21320 0.20910 -0.40300
Zn	Zn	0.33333 0.66667 0.30640 1.07800
Zn	Zn	0.33333 0.66667 0.19360 1.07800
Zn	Zn	0.66667 0.33333 0.69360 1.07800
Zn	Zn	0.66667 0.33333 0.80640 1.07800
O 	O 	0.66470 0.83235 0.75000 -1.54200
C 	C 	0.37770 0.68885 0.75000 -0.17200
C 	C 	0.42313 0.71157 0.75000 0.40400
C 	C 	0.50983 0.75492 0.75000 -0.51500
C 	C 	0.55640 0.77820 0.75000 0.85500
C 	C 	0.95280 0.97640 0.75000 -0.28000
C 	C 	0.91020 0.95510 0.75000 0.47600
C 	C 	0.82349 0.91175 0.75000 -0.50500
C 	C 	0.77700 0.88850 0.75000 0.76600
O 	O 	0.16765 0.83235 0.75000 -1.54200
C 	C 	0.31115 0.68885 0.75000 -0.17200
C 	C 	0.28843 0.71157 0.75000 0.40400
C 	C 	0.24508 0.75491 0.75000 -0.51500
C 	C 	0.22180 0.77820 0.75000 0.85500
C 	C 	0.02360 0.97640 0.75000 -0.28000
C 	C 	0.04490 0.95510 0.75000 0.47600
C 	C 	0.08825 0.91175 0.75000 -0.50500
C 	C 	0.11150 0.88850 0.75000 0.76600
O 	O 	0.16765 0.33530 0.75000 -1.54200
C 	C 	0.31115 0.62230 0.75000 -0.17200
C 	C 	0.28844 0.57687 0.75000 0.40400
C 	C 	0.24509 0.49017 0.75000 -0.51500
C 	C 	0.22180 0.44360 0.75000 0.85500
C 	C 	0.02360 0.04720 0.75000 -0.28000
C 	C 	0.04490 0.08980 0.75000 0.47600
C 	C 	0.08825 0.17651 0.75000 -0.50500
C 	C 	0.11150 0.22300 0.75000 0.76600
O 	O 	0.33530 0.16765 0.25000 -1.54200
C 	C 	0.62230 0.31115 0.25000 -0.17200
C 	C 	0.57687 0.28843 0.25000 0.40400
C 	C 	0.49017 0.24508 0.25000 -0.51500
C 	C 	0.44360 0.22180 0.25000 0.85500
C 	C 	0.04720 0.02360 0.25000 -0.28000
C 	C 	0.08980 0.04490 0.25000 0.47600
C 	C 	0.17651 0.08825 0.25000 -0.50500
C 	C 	0.22300 0.11150 0.25000 0.76600
O 	O 	0.83235 0.16765 0.25000 -1.54200
C 	C 	0.68885 0.31115 0.25000 -0.17200
C 	C 	0.71157 0.28843 0.25000 0.40400
C 	C 	0.75492 0.24509 0.25000 -0.51500
C 	C 	0.77820 0.22180 0.25000 0.85500
C 	C 	0.97640 0.02360 0.25000 -0.28000
C 	C 	0.95510 0.04490 0.25000 0.47600
C 	C 	0.91175 0.08825 0.25000 -0.50500
C 	C 	0.88850 0.11150 0.25000 0.76600
O 	O 	0.83235 0.66470 0.25000 -1.54200
C 	C 	0.68885 0.37770 0.25000 -0.17200
C 	C 	0.71157 0.42313 0.25000 0.40400
C 	C 	0.75492 0.50983 0.25000 -0.51500
C 	C 	0.77820 0.55640 0.25000 0.85500
C 	C 	0.97640 0.95280 0.25000 -0.28000
C 	C 	0.95510 0.91020 0.25000 0.47600
C 	C 	0.91175 0.82349 0.25000 -0.50500
C 	C 	0.88850 0.77700 0.25000 0.76600
O 	O 	0.33333 0.66667 0.25000 -1.52700
O 	O 	0.66667 0.33333 0.75000 -1.52700
C 	C 	0.35460 0.70920 0.75000 0.11300
H 	H 	0.36900 0.73800 0.75000 0.01700
C 	C 	0.29080 0.64540 0.75000 0.11300
H 	H 	0.26200 0.63100 0.75000 0.01700
C 	C 	0.35460 0.64540 0.75000 0.11300
H 	H 	0.36900 0.63100 0.75000 0.01700
C 	C 	0.64540 0.29080 0.25000 0.11300
H 	H 	0.63100 0.26200 0.25000 0.01700
C 	C 	0.70920 0.35460 0.25000 0.11300
H 	H 	0.73800 0.36900 0.25000 0.01700
C 	C 	0.64540 0.35460 0.25000 0.11300
H 	H 	0.63100 0.36900 0.25000 0.01700
C 	C 	0.98080 0.96160 0.75000 0.19100
H 	H 	0.96635 0.93270 0.75000 -0.01500
C 	C 	0.03840 0.01920 0.75000 0.19100
H 	H 	0.06730 0.03365 0.75000 -0.01500
C 	C 	0.98080 0.01920 0.75000 0.19100
H 	H 	0.96635 0.03365 0.75000 -0.01500
C 	C 	0.01920 0.03840 0.25000 0.19100
H 	H 	0.03365 0.06730 0.25000 -0.01500
C 	C 	0.96160 0.98080 0.25000 0.19100
H 	H 	0.93270 0.96635 0.25000 -0.01500
C 	C 	0.01920 0.98080 0.25000 0.19100
H 	H 	0.03365 0.96635 0.25000 -0.01500
