data_crystal

_cell_length_a 6.99940
_cell_length_b 20.53900
_cell_length_c 20.53900
_cell_angle_alpha 90.00000
_cell_angle_beta  90.00000
_cell_angle_gamma 90.00000

_symmetry_space_group_name_	'P 1'
_symmetry_space_group_name_H-M	'P 1'

loop_
_symmetry_equiv_pos_as_xyz
  x,y,z

loop_
_atom_site_label
_atom_site_type_symbol
_atom_site_fract_x
_atom_site_fract_y
_atom_site_fract_z
_atom_site_charge
Cu	Cu	0.66374 0.01897 0.02391 0.90100
Cu	Cu	0.66374 0.48103 0.47609 0.90100
Cu	Cu	0.16374 0.97609 0.51897 0.90100
Cu	Cu	0.16374 0.52391 0.98103 0.90100
Cu	Cu	0.33626 0.98103 0.97609 0.90100
Cu	Cu	0.33626 0.51897 0.52391 0.90100
Cu	Cu	0.83626 0.02391 0.48103 0.90100
Cu	Cu	0.83626 0.47609 0.01897 0.90100
H 	H 	0.06720 0.17170 0.02800 0.04100
H 	H 	0.97560 0.28190 0.02820 0.05700
H 	H 	0.45650 0.38670 0.90700 0.08100
H 	H 	0.72720 0.35180 0.85400 0.04700
H 	H 	0.82590 0.24230 0.86060 0.04300
H 	H 	0.65100 0.16870 0.92090 0.06900
H 	H 	0.06720 0.32830 0.47200 0.04200
H 	H 	0.97560 0.21810 0.47180 0.05900
H 	H 	0.45650 0.11330 0.59300 0.08100
H 	H 	0.72720 0.14820 0.64600 0.04600
H 	H 	0.82590 0.25770 0.63940 0.04300
H 	H 	0.65100 0.33130 0.57910 0.06800
H 	H 	0.56720 0.97200 0.67170 0.04300
H 	H 	0.47560 0.97180 0.78190 0.05800
H 	H 	0.95650 0.09300 0.88670 0.08200
H 	H 	0.22720 0.14600 0.85180 0.04600
H 	H 	0.32590 0.13940 0.74230 0.04400
H 	H 	0.15100 0.07910 0.66870 0.06800
H 	H 	0.56720 0.52800 0.82830 0.04300
H 	H 	0.47560 0.52820 0.71810 0.05800
H 	H 	0.95650 0.40700 0.61330 0.08200
H 	H 	0.22720 0.35400 0.64820 0.04600
H 	H 	0.32590 0.36060 0.75770 0.04400
H 	H 	0.15100 0.42090 0.83130 0.06800
H 	H 	0.93280 0.82830 0.97200 0.04200
H 	H 	0.02440 0.71810 0.97180 0.05800
H 	H 	0.54350 0.61330 0.09300 0.08100
H 	H 	0.27280 0.64820 0.14600 0.04700
H 	H 	0.17410 0.75770 0.13940 0.04300
H 	H 	0.34900 0.83130 0.07910 0.06900
H 	H 	0.93280 0.67170 0.52800 0.04200
H 	H 	0.02440 0.78190 0.52820 0.05900
H 	H 	0.54350 0.88670 0.40700 0.08100
H 	H 	0.27280 0.85180 0.35400 0.04600
H 	H 	0.17410 0.74230 0.36060 0.04300
H 	H 	0.34900 0.66870 0.42090 0.06800
H 	H 	0.43280 0.02800 0.32830 0.04300
H 	H 	0.52440 0.02820 0.21810 0.05800
H 	H 	0.04350 0.90700 0.11330 0.08200
H 	H 	0.77280 0.85400 0.14820 0.04600
H 	H 	0.67410 0.86060 0.25770 0.04400
H 	H 	0.84900 0.92090 0.33130 0.06800
H 	H 	0.43280 0.47200 0.17170 0.04300
H 	H 	0.52440 0.47180 0.28190 0.05800
H 	H 	0.04350 0.59300 0.38670 0.08200
H 	H 	0.77280 0.64600 0.35180 0.04600
H 	H 	0.67410 0.63940 0.24230 0.04400
H 	H 	0.84900 0.57910 0.16870 0.06800
C 	C 	0.32240 0.18600 0.98432 -0.09300
C 	C 	0.14930 0.20372 0.00976 -0.00700
C 	C 	0.09350 0.26966 0.00884 -0.01800
C 	C 	0.20610 0.31677 0.98042 -0.09000
C 	C 	0.49350 0.34228 0.91021 -0.08000
C 	C 	0.65430 0.32169 0.87878 -0.01800
C 	C 	0.71370 0.25610 0.88265 -0.02600
C 	C 	0.60960 0.21264 0.91809 -0.07200
C 	C 	0.43990 0.23202 0.95098 0.04200
C 	C 	0.38000 0.29879 0.94767 0.04400
C 	C 	0.38310 0.11619 0.99190 0.35300
C 	C 	0.13480 0.38571 0.98737 0.35100
C 	C 	0.32240 0.31400 0.51568 -0.09300
C 	C 	0.14930 0.29628 0.49024 -0.00600
C 	C 	0.09350 0.23034 0.49116 -0.01800
C 	C 	0.20610 0.18323 0.51958 -0.09000
C 	C 	0.49350 0.15772 0.58979 -0.08000
C 	C 	0.65430 0.17831 0.62122 -0.01800
C 	C 	0.71370 0.24390 0.61735 -0.02700
C 	C 	0.60960 0.28736 0.58191 -0.07200
C 	C 	0.43990 0.26798 0.54902 0.04200
C 	C 	0.38000 0.20121 0.55233 0.04400
C 	C 	0.38310 0.38381 0.50810 0.35200
C 	C 	0.13480 0.11429 0.51263 0.35100
C 	C 	0.82240 0.01568 0.68600 -0.09200
C 	C 	0.64930 0.99024 0.70372 -0.00800
C 	C 	0.59350 0.99116 0.76966 -0.01700
C 	C 	0.70610 0.01958 0.81677 -0.09100
C 	C 	0.99350 0.08979 0.84228 -0.08200
C 	C 	0.15430 0.12122 0.82169 -0.01500
C 	C 	0.21370 0.11735 0.75610 -0.02900
C 	C 	0.10960 0.08191 0.71264 -0.06900
C 	C 	0.93990 0.04902 0.73202 0.04000
C 	C 	0.88000 0.05233 0.79879 0.04600
C 	C 	0.88310 0.00810 0.61619 0.35100
C 	C 	0.63480 0.01263 0.88571 0.35300
C 	C 	0.82240 0.48432 0.81400 -0.09200
C 	C 	0.64930 0.50976 0.79628 -0.00800
C 	C 	0.59350 0.50884 0.73034 -0.01600
C 	C 	0.70610 0.48042 0.68323 -0.09200
C 	C 	0.99350 0.41021 0.65772 -0.08200
C 	C 	0.15430 0.37878 0.67831 -0.01500
C 	C 	0.21370 0.38265 0.74390 -0.02800
C 	C 	0.10960 0.41809 0.78736 -0.07000
C 	C 	0.93990 0.45098 0.76798 0.04000
C 	C 	0.88000 0.44767 0.70121 0.04500
C 	C 	0.88310 0.49190 0.88381 0.35100
C 	C 	0.63480 0.48737 0.61429 0.35200
C 	C 	0.67760 0.81400 0.01568 -0.09300
C 	C 	0.85070 0.79628 0.99024 -0.00700
C 	C 	0.90650 0.73034 0.99116 -0.01800
C 	C 	0.79390 0.68323 0.01958 -0.09000
C 	C 	0.50650 0.65772 0.08979 -0.08000
C 	C 	0.34570 0.67831 0.12122 -0.01800
C 	C 	0.28630 0.74390 0.11735 -0.02600
C 	C 	0.39040 0.78736 0.08191 -0.07200
C 	C 	0.56010 0.76798 0.04902 0.04200
C 	C 	0.62000 0.70121 0.05233 0.04400
C 	C 	0.61690 0.88381 0.00810 0.35300
C 	C 	0.86520 0.61429 0.01263 0.35100
C 	C 	0.67760 0.68600 0.48432 -0.09300
C 	C 	0.85070 0.70372 0.50976 -0.00600
C 	C 	0.90650 0.76966 0.50884 -0.01800
C 	C 	0.79390 0.81677 0.48042 -0.09000
C 	C 	0.50650 0.84228 0.41021 -0.08000
C 	C 	0.34570 0.82169 0.37878 -0.01800
C 	C 	0.28630 0.75610 0.38265 -0.02700
C 	C 	0.39040 0.71264 0.41809 -0.07200
C 	C 	0.56010 0.73202 0.45098 0.04200
C 	C 	0.62000 0.79879 0.44767 0.04400
C 	C 	0.61690 0.61619 0.49190 0.35200
C 	C 	0.86520 0.88571 0.48737 0.35100
C 	C 	0.17760 0.98432 0.31400 -0.09200
C 	C 	0.35070 0.00976 0.29628 -0.00800
C 	C 	0.40650 0.00884 0.23034 -0.01700
C 	C 	0.29390 0.98042 0.18323 -0.09100
C 	C 	0.00650 0.91021 0.15772 -0.08200
C 	C 	0.84570 0.87878 0.17831 -0.01500
C 	C 	0.78630 0.88265 0.24390 -0.02900
C 	C 	0.89040 0.91809 0.28736 -0.06900
C 	C 	0.06010 0.95098 0.26798 0.04000
C 	C 	0.12000 0.94767 0.20121 0.04600
C 	C 	0.11690 0.99190 0.38381 0.35100
C 	C 	0.36520 0.98737 0.11429 0.35300
C 	C 	0.17760 0.51568 0.18600 -0.09200
C 	C 	0.35070 0.49024 0.20372 -0.00800
C 	C 	0.40650 0.49116 0.26966 -0.01600
C 	C 	0.29390 0.51958 0.31677 -0.09200
C 	C 	0.00650 0.58979 0.34228 -0.08200
C 	C 	0.84570 0.62122 0.32169 -0.01500
C 	C 	0.78630 0.61735 0.25610 -0.02800
C 	C 	0.89040 0.58191 0.21264 -0.07000
C 	C 	0.06010 0.54902 0.23202 0.04000
C 	C 	0.12000 0.55233 0.29879 0.04500
C 	C 	0.11690 0.50810 0.11619 0.35100
C 	C 	0.36520 0.51263 0.38571 0.35200
O 	O 	0.54840 0.10590 0.01488 -0.40600
O 	O 	0.26550 0.07344 0.97519 -0.40700
O 	O 	0.24920 0.43251 0.97618 -0.40600
O 	O 	0.96530 0.39259 0.00537 -0.40800
O 	O 	0.54840 0.39410 0.48512 -0.40500
O 	O 	0.26550 0.42656 0.52481 -0.40700
O 	O 	0.24920 0.06749 0.52382 -0.40600
O 	O 	0.96530 0.10741 0.49463 -0.40800
O 	O 	0.04840 0.98512 0.60590 -0.40500
O 	O 	0.76550 0.02481 0.57344 -0.40700
O 	O 	0.74920 0.02382 0.93251 -0.40600
O 	O 	0.46530 0.99463 0.89259 -0.40900
O 	O 	0.04840 0.51488 0.89410 -0.40500
O 	O 	0.76550 0.47519 0.92656 -0.40700
O 	O 	0.74920 0.47618 0.56749 -0.40700
O 	O 	0.46530 0.50537 0.60741 -0.40800
O 	O 	0.45160 0.89410 0.98512 -0.40600
O 	O 	0.73450 0.92656 0.02481 -0.40700
O 	O 	0.75080 0.56749 0.02382 -0.40600
O 	O 	0.03470 0.60741 0.99463 -0.40800
O 	O 	0.45160 0.60590 0.51488 -0.40500
O 	O 	0.73450 0.57344 0.47519 -0.40700
O 	O 	0.75080 0.93251 0.47618 -0.40600
O 	O 	0.03470 0.89259 0.50537 -0.40800
O 	O 	0.95160 0.01488 0.39410 -0.40500
O 	O 	0.23450 0.97519 0.42656 -0.40700
O 	O 	0.25080 0.97618 0.06749 -0.40600
O 	O 	0.53470 0.00537 0.10741 -0.40900
O 	O 	0.95160 0.48512 0.10590 -0.40500
O 	O 	0.23450 0.52481 0.07344 -0.40700
O 	O 	0.25080 0.52382 0.43251 -0.40700
O 	O 	0.53470 0.49463 0.39259 -0.40800
