data_crystal

_cell_length_a 13.57070
_cell_length_b 15.00600
_cell_length_c 20.07400
_cell_angle_alpha 90.00000
_cell_angle_beta  90.00000
_cell_angle_gamma 90.00000

_symmetry_space_group_name_	'P 1'
_symmetry_space_group_name_H-M	'P 1'

loop_
_symmetry_equiv_pos_as_xyz
  x,y,z

loop_
_atom_site_label
_atom_site_type_symbol
_atom_site_fract_x
_atom_site_fract_y
_atom_site_fract_z
_atom_site_charge
Zn	Zn	0.49752 0.60974 0.56487 1.22100
O 	O 	0.50480 0.63830 0.66320 -0.42200
O 	O 	0.49320 0.76770 0.61160 -0.33900
O 	O 	0.48730 0.84130 0.97210 -0.46200
O 	O 	0.49520 0.97500 0.92430 -0.49600
N 	N 	0.65850 0.61180 0.55510 -0.23800
N 	N 	0.33530 0.60050 0.57070 -0.23600
C 	C 	0.71560 0.56460 0.59680 0.09500
H 	H 	0.68700 0.53960 0.63450 -0.00400
C 	C 	0.81640 0.55130 0.58590 -0.17200
H 	H 	0.85360 0.51850 0.61610 0.09100
C 	C 	0.85990 0.58730 0.53010 0.12400
C 	C 	0.80280 0.64300 0.49060 -0.17800
H 	H 	0.83070 0.67360 0.45500 0.10300
C 	C 	0.70370 0.65210 0.50510 0.10400
H 	H 	0.66620 0.68900 0.47780 -0.00600
C 	C 	0.96120 0.56470 0.50390 -0.07700
H 	H 	0.99160 0.61780 0.48410 0.06500
C 	C 	0.27960 0.63130 0.52120 0.09400
H 	H 	0.30900 0.66760 0.48930 -0.00100
C 	C 	0.18100 0.61230 0.51470 -0.16700
H 	H 	0.14490 0.63630 0.47970 0.09600
C 	C 	0.13580 0.55690 0.56090 0.11100
C 	C 	0.19240 0.53130 0.61550 -0.16900
H 	H 	0.16380 0.49950 0.65020 0.09100
C 	C 	0.29150 0.55350 0.61800 0.10200
H 	H 	0.32860 0.53460 0.65430 -0.00600
C 	C 	0.03730 0.51530 0.54830 -0.05900
H 	H 	0.00690 0.49640 0.59020 0.04800
C 	C 	0.49930 0.72150 0.66330 0.29700
C 	C 	0.49760 0.76750 0.73080 -0.03500
C 	C 	0.50050 0.71660 0.78790 -0.05100
H 	H 	0.50370 0.65490 0.78480 0.06300
C 	C 	0.49870 0.75700 0.84970 0.01200
H 	H 	0.50080 0.72250 0.88810 0.04100
C 	C 	0.49380 0.84940 0.85440 -0.10800
C 	C 	0.49180 0.90170 0.79630 0.00400
H 	H 	0.48920 0.96360 0.79890 0.04000
C 	C 	0.49380 0.85930 0.73510 -0.04800
H 	H 	0.49260 0.89320 0.69630 0.05400
C 	C 	0.49170 0.89360 0.92170 0.41100
Zn	Zn	0.50248 0.10974 0.93513 1.22200
O 	O 	0.49520 0.13830 0.83680 -0.42100
O 	O 	0.50680 0.26770 0.88840 -0.33800
O 	O 	0.51270 0.34130 0.52790 -0.46200
O 	O 	0.50480 0.47500 0.57570 -0.49600
N 	N 	0.34150 0.11180 0.94490 -0.23800
N 	N 	0.66470 0.10050 0.92930 -0.23500
C 	C 	0.28440 0.06460 0.90320 0.09700
H 	H 	0.31300 0.03960 0.86550 -0.00500
C 	C 	0.18360 0.05130 0.91410 -0.17400
H 	H 	0.14640 0.01850 0.88390 0.09200
C 	C 	0.14010 0.08730 0.96990 0.12700
C 	C 	0.19720 0.14300 0.00940 -0.18300
H 	H 	0.16930 0.17360 0.04500 0.10400
C 	C 	0.29630 0.15210 0.99490 0.10800
H 	H 	0.33380 0.18900 0.02220 -0.00700
C 	C 	0.03880 0.06470 0.99610 -0.07600
H 	H 	0.00840 0.11780 0.01590 0.06300
C 	C 	0.72040 0.13130 0.97880 0.09200
H 	H 	0.69100 0.16760 0.01070 0.00200
C 	C 	0.81900 0.11230 0.98530 -0.17400
H 	H 	0.85510 0.13630 0.02030 0.10200
C 	C 	0.86420 0.05690 0.93910 0.11200
C 	C 	0.80760 0.03130 0.88450 -0.16600
H 	H 	0.83620 0.99950 0.84980 0.08900
C 	C 	0.70850 0.05350 0.88200 0.10100
H 	H 	0.67140 0.03460 0.84570 -0.00500
C 	C 	0.96270 0.01530 0.95170 -0.05700
H 	H 	0.99310 0.99640 0.90980 0.04500
C 	C 	0.50070 0.22150 0.83670 0.29700
C 	C 	0.50240 0.26750 0.76920 -0.03500
C 	C 	0.49950 0.21660 0.71210 -0.05100
H 	H 	0.49630 0.15490 0.71520 0.06300
C 	C 	0.50130 0.25700 0.65030 0.01200
H 	H 	0.49920 0.22250 0.61190 0.04100
C 	C 	0.50620 0.34940 0.64560 -0.10800
C 	C 	0.50820 0.40170 0.70370 0.00400
H 	H 	0.51080 0.46360 0.70110 0.04000
C 	C 	0.50620 0.35930 0.76490 -0.04800
H 	H 	0.50740 0.39320 0.80370 0.05400
C 	C 	0.50830 0.39360 0.57830 0.41100
Zn	Zn	0.50248 0.39026 0.43513 1.22200
O 	O 	0.49520 0.36170 0.33680 -0.42100
O 	O 	0.50680 0.23230 0.38840 -0.33800
O 	O 	0.51270 0.15870 0.02790 -0.46100
O 	O 	0.50480 0.02500 0.07570 -0.49500
N 	N 	0.34150 0.38820 0.44490 -0.23700
N 	N 	0.66470 0.39950 0.42930 -0.23500
C 	C 	0.28440 0.43540 0.40320 0.09600
H 	H 	0.31300 0.46040 0.36550 -0.00400
C 	C 	0.18360 0.44870 0.41410 -0.17200
H 	H 	0.14640 0.48150 0.38390 0.09100
C 	C 	0.14010 0.41270 0.46990 0.12400
C 	C 	0.19720 0.35700 0.50940 -0.17800
H 	H 	0.16930 0.32640 0.54500 0.10300
C 	C 	0.29630 0.34790 0.49490 0.10400
H 	H 	0.33380 0.31100 0.52220 -0.00600
C 	C 	0.03880 0.43530 0.49610 -0.07700
H 	H 	0.00840 0.38220 0.51590 0.06500
C 	C 	0.72040 0.36870 0.47880 0.09400
H 	H 	0.69100 0.33240 0.51070 -0.00100
C 	C 	0.81900 0.38770 0.48530 -0.16700
H 	H 	0.85510 0.36370 0.52030 0.09600
C 	C 	0.86420 0.44310 0.43910 0.11100
C 	C 	0.80760 0.46870 0.38450 -0.16900
H 	H 	0.83620 0.50050 0.34980 0.09100
C 	C 	0.70850 0.44650 0.38200 0.10200
H 	H 	0.67140 0.46540 0.34570 -0.00600
C 	C 	0.96270 0.48470 0.45170 -0.05900
H 	H 	0.99310 0.50360 0.40980 0.04800
C 	C 	0.50070 0.27850 0.33670 0.29700
C 	C 	0.50240 0.23250 0.26920 -0.03500
C 	C 	0.49950 0.28340 0.21210 -0.05100
H 	H 	0.49630 0.34510 0.21520 0.06300
C 	C 	0.50130 0.24300 0.15030 0.01200
H 	H 	0.49920 0.27750 0.11190 0.04100
C 	C 	0.50620 0.15060 0.14560 -0.10800
C 	C 	0.50820 0.09830 0.20370 0.00400
H 	H 	0.51080 0.03640 0.20110 0.04000
C 	C 	0.50620 0.14070 0.26490 -0.04800
H 	H 	0.50740 0.10680 0.30370 0.05400
C 	C 	0.50830 0.10640 0.07830 0.41100
Zn	Zn	0.49752 0.89026 0.06487 1.22200
O 	O 	0.50480 0.86170 0.16320 -0.42100
O 	O 	0.49320 0.73230 0.11160 -0.33800
O 	O 	0.48730 0.65870 0.47210 -0.46200
O 	O 	0.49520 0.52500 0.42430 -0.49600
N 	N 	0.65850 0.88820 0.05510 -0.23800
N 	N 	0.33530 0.89950 0.07070 -0.23500
C 	C 	0.71560 0.93540 0.09680 0.09700
H 	H 	0.68700 0.96040 0.13450 -0.00500
C 	C 	0.81640 0.94870 0.08590 -0.17400
H 	H 	0.85360 0.98150 0.11610 0.09200
C 	C 	0.85990 0.91270 0.03010 0.12700
C 	C 	0.80280 0.85700 0.99060 -0.18300
H 	H 	0.83070 0.82640 0.95500 0.10400
C 	C 	0.70370 0.84790 0.00510 0.10800
H 	H 	0.66620 0.81100 0.97780 -0.00700
C 	C 	0.96120 0.93530 0.00390 -0.07600
H 	H 	0.99160 0.88220 0.98410 0.06300
C 	C 	0.27960 0.86870 0.02120 0.09200
H 	H 	0.30900 0.83240 0.98930 0.00200
C 	C 	0.18100 0.88770 0.01470 -0.17400
H 	H 	0.14490 0.86370 0.97970 0.10200
C 	C 	0.13580 0.94310 0.06090 0.11200
C 	C 	0.19240 0.96870 0.11550 -0.16600
H 	H 	0.16380 0.00050 0.15020 0.08900
C 	C 	0.29150 0.94650 0.11800 0.10100
H 	H 	0.32860 0.96540 0.15430 -0.00500
C 	C 	0.03730 0.98470 0.04830 -0.05700
H 	H 	0.00690 0.00360 0.09020 0.04500
C 	C 	0.49930 0.77850 0.16330 0.29700
C 	C 	0.49760 0.73250 0.23080 -0.03500
C 	C 	0.50050 0.78340 0.28790 -0.05100
H 	H 	0.50370 0.84510 0.28480 0.06300
C 	C 	0.49870 0.74300 0.34970 0.01200
H 	H 	0.50080 0.77750 0.38810 0.04100
C 	C 	0.49380 0.65060 0.35440 -0.10800
C 	C 	0.49180 0.59830 0.29630 0.00400
H 	H 	0.48920 0.53640 0.29890 0.04000
C 	C 	0.49380 0.64070 0.23510 -0.04800
H 	H 	0.49260 0.60680 0.19630 0.05400
C 	C 	0.49170 0.60640 0.42170 0.41100
Zn	Zn	0.00248 0.39026 0.06487 1.22100
O 	O 	0.99520 0.36170 0.16320 -0.41700
O 	O 	0.00680 0.23230 0.11160 -0.33900
O 	O 	0.01270 0.15870 0.47210 -0.46100
O 	O 	0.00480 0.02500 0.42430 -0.49600
N 	N 	0.84150 0.38820 0.05510 -0.24000
N 	N 	0.16470 0.39950 0.07070 -0.23500
C 	C 	0.78440 0.43540 0.09680 0.10000
H 	H 	0.81300 0.46040 0.13450 -0.00500
C 	C 	0.68360 0.44870 0.08590 -0.17700
H 	H 	0.64640 0.48150 0.11610 0.09300
C 	C 	0.64010 0.41270 0.03010 0.13300
C 	C 	0.69720 0.35700 0.99060 -0.19300
H 	H 	0.66930 0.32640 0.95500 0.10800
C 	C 	0.79630 0.34790 0.00510 0.12000
H 	H 	0.83380 0.31100 0.97780 -0.01300
C 	C 	0.53880 0.43530 0.00390 -0.08000
H 	H 	0.50840 0.38220 0.98410 0.06600
C 	C 	0.22040 0.36870 0.02120 0.09000
H 	H 	0.19100 0.33240 0.98930 0.00100
C 	C 	0.31900 0.38770 0.01470 -0.16600
H 	H 	0.35510 0.36370 0.97970 0.09600
C 	C 	0.36420 0.44310 0.06090 0.11000
C 	C 	0.30760 0.46870 0.11550 -0.16800
H 	H 	0.33620 0.50050 0.15020 0.09100
C 	C 	0.20850 0.44650 0.11800 0.10100
H 	H 	0.17140 0.46540 0.15430 -0.00600
C 	C 	0.46270 0.48470 0.04830 -0.05800
H 	H 	0.49310 0.50360 0.09020 0.04700
C 	C 	0.00070 0.27850 0.16330 0.29700
C 	C 	0.00240 0.23250 0.23080 -0.05000
C 	C 	0.99950 0.28340 0.28790 -0.02600
H 	H 	0.99630 0.34510 0.28480 0.05500
C 	C 	0.00130 0.24300 0.34970 -0.01200
H 	H 	0.99920 0.27750 0.38810 0.05200
C 	C 	0.00620 0.15060 0.35440 -0.09700
C 	C 	0.00820 0.09830 0.29630 -0.00800
H 	H 	0.01080 0.03640 0.29890 0.04300
C 	C 	0.00620 0.14070 0.23510 -0.03700
H 	H 	0.00740 0.10680 0.19630 0.05000
C 	C 	0.00830 0.10640 0.42170 0.40700
Zn	Zn	0.99752 0.89026 0.43513 1.22200
O 	O 	0.00480 0.86170 0.33680 -0.41800
O 	O 	0.99320 0.73230 0.38840 -0.33700
O 	O 	0.98730 0.65870 0.02790 -0.46000
O 	O 	0.99520 0.52500 0.07570 -0.49500
N 	N 	0.15850 0.88820 0.44490 -0.23600
N 	N 	0.83530 0.89950 0.42930 -0.23600
C 	C 	0.21560 0.93540 0.40320 0.09600
H 	H 	0.18700 0.96040 0.36550 -0.00300
C 	C 	0.31640 0.94870 0.41410 -0.17000
H 	H 	0.35360 0.98150 0.38390 0.09100
C 	C 	0.35990 0.91270 0.46990 0.12300
C 	C 	0.30280 0.85700 0.50940 -0.17700
H 	H 	0.33070 0.82640 0.54500 0.10300
C 	C 	0.20370 0.84790 0.49490 0.10400
H 	H 	0.16620 0.81100 0.52220 -0.00500
C 	C 	0.46120 0.93530 0.49610 -0.07400
H 	H 	0.49160 0.88220 0.51590 0.06500
C 	C 	0.77960 0.86870 0.47880 0.09500
H 	H 	0.80900 0.83240 0.51070 -0.00200
C 	C 	0.68100 0.88770 0.48530 -0.17000
H 	H 	0.64490 0.86370 0.52030 0.09600
C 	C 	0.63580 0.94310 0.43910 0.11400
C 	C 	0.69240 0.96870 0.38450 -0.17600
H 	H 	0.66380 0.00050 0.34980 0.09500
C 	C 	0.79150 0.94650 0.38200 0.10500
H 	H 	0.82860 0.96540 0.34570 -0.00700
C 	C 	0.53730 0.98470 0.45170 -0.06400
H 	H 	0.50690 0.00360 0.40980 0.04900
C 	C 	0.99930 0.77850 0.33670 0.29400
C 	C 	0.99760 0.73250 0.26920 -0.03300
C 	C 	0.00050 0.78340 0.21210 -0.05500
H 	H 	0.00370 0.84510 0.21520 0.06500
C 	C 	0.99870 0.74300 0.15030 0.01600
H 	H 	0.00080 0.77750 0.11190 0.03900
C 	C 	0.99380 0.65060 0.14560 -0.10900
C 	C 	0.99180 0.59830 0.20370 0.00500
H 	H 	0.98920 0.53640 0.20110 0.04000
C 	C 	0.99380 0.64070 0.26490 -0.04900
H 	H 	0.99260 0.60680 0.30370 0.05500
C 	C 	0.99170 0.60640 0.07830 0.41100
Zn	Zn	0.99752 0.60974 0.93513 1.22100
O 	O 	0.00480 0.63830 0.83680 -0.41700
O 	O 	0.99320 0.76770 0.88840 -0.33900
O 	O 	0.98730 0.84130 0.52790 -0.46100
O 	O 	0.99520 0.97500 0.57570 -0.49600
N 	N 	0.15850 0.61180 0.94490 -0.24000
N 	N 	0.83530 0.60050 0.92930 -0.23500
C 	C 	0.21560 0.56460 0.90320 0.10000
H 	H 	0.18700 0.53960 0.86550 -0.00500
C 	C 	0.31640 0.55130 0.91410 -0.17700
H 	H 	0.35360 0.51850 0.88390 0.09300
C 	C 	0.35990 0.58730 0.96990 0.13300
C 	C 	0.30280 0.64300 0.00940 -0.19300
H 	H 	0.33070 0.67360 0.04500 0.10800
C 	C 	0.20370 0.65210 0.99490 0.12000
H 	H 	0.16620 0.68900 0.02220 -0.01300
C 	C 	0.46120 0.56470 0.99610 -0.08000
H 	H 	0.49160 0.61780 0.01590 0.06600
C 	C 	0.77960 0.63130 0.97880 0.09000
H 	H 	0.80900 0.66760 0.01070 0.00100
C 	C 	0.68100 0.61230 0.98530 -0.16600
H 	H 	0.64490 0.63630 0.02030 0.09600
C 	C 	0.63580 0.55690 0.93910 0.11000
C 	C 	0.69240 0.53130 0.88450 -0.16800
H 	H 	0.66380 0.49950 0.84980 0.09100
C 	C 	0.79150 0.55350 0.88200 0.10100
H 	H 	0.82860 0.53460 0.84570 -0.00600
C 	C 	0.53730 0.51530 0.95170 -0.05800
H 	H 	0.50690 0.49640 0.90980 0.04700
C 	C 	0.99930 0.72150 0.83670 0.29700
C 	C 	0.99760 0.76750 0.76920 -0.05000
C 	C 	0.00050 0.71660 0.71210 -0.02600
H 	H 	0.00370 0.65490 0.71520 0.05500
C 	C 	0.99870 0.75700 0.65030 -0.01200
H 	H 	0.00080 0.72250 0.61190 0.05200
C 	C 	0.99380 0.84940 0.64560 -0.09700
C 	C 	0.99180 0.90170 0.70370 -0.00800
H 	H 	0.98920 0.96360 0.70110 0.04300
C 	C 	0.99380 0.85930 0.76490 -0.03700
H 	H 	0.99260 0.89320 0.80370 0.05000
C 	C 	0.99170 0.89360 0.57830 0.40700
Zn	Zn	0.00248 0.10974 0.56487 1.22200
O 	O 	0.99520 0.13830 0.66320 -0.41800
O 	O 	0.00680 0.26770 0.61160 -0.33700
O 	O 	0.01270 0.34130 0.97210 -0.46000
O 	O 	0.00480 0.47500 0.92430 -0.49500
N 	N 	0.84150 0.11180 0.55510 -0.23600
N 	N 	0.16470 0.10050 0.57070 -0.23600
C 	C 	0.78440 0.06460 0.59680 0.09600
H 	H 	0.81300 0.03960 0.63450 -0.00300
C 	C 	0.68360 0.05130 0.58590 -0.17000
H 	H 	0.64640 0.01850 0.61610 0.09100
C 	C 	0.64010 0.08730 0.53010 0.12300
C 	C 	0.69720 0.14300 0.49060 -0.17700
H 	H 	0.66930 0.17360 0.45500 0.10300
C 	C 	0.79630 0.15210 0.50510 0.10400
H 	H 	0.83380 0.18900 0.47780 -0.00500
C 	C 	0.53880 0.06470 0.50390 -0.07400
H 	H 	0.50840 0.11780 0.48410 0.06500
C 	C 	0.22040 0.13130 0.52120 0.09500
H 	H 	0.19100 0.16760 0.48930 -0.00200
C 	C 	0.31900 0.11230 0.51470 -0.17000
H 	H 	0.35510 0.13630 0.47970 0.09600
C 	C 	0.36420 0.05690 0.56090 0.11400
C 	C 	0.30760 0.03130 0.61550 -0.17600
H 	H 	0.33620 0.99950 0.65020 0.09500
C 	C 	0.20850 0.05350 0.61800 0.10500
H 	H 	0.17140 0.03460 0.65430 -0.00700
C 	C 	0.46270 0.01530 0.54830 -0.06400
H 	H 	0.49310 0.99640 0.59020 0.04900
C 	C 	0.00070 0.22150 0.66330 0.29400
C 	C 	0.00240 0.26750 0.73080 -0.03300
C 	C 	0.99950 0.21660 0.78790 -0.05500
H 	H 	0.99630 0.15490 0.78480 0.06500
C 	C 	0.00130 0.25700 0.84970 0.01600
H 	H 	0.99920 0.22250 0.88810 0.03900
C 	C 	0.00620 0.34940 0.85440 -0.10900
C 	C 	0.00820 0.40170 0.79630 0.00500
H 	H 	0.01080 0.46360 0.79890 0.04000
C 	C 	0.00620 0.35930 0.73510 -0.04900
H 	H 	0.00740 0.39320 0.69630 0.05500
C 	C 	0.00830 0.39360 0.92170 0.41100
