data_crystal

_cell_length_a 18.64630
_cell_length_b 18.64630
_cell_length_c 38.55630
_cell_angle_alpha 90.00000
_cell_angle_beta  90.00000
_cell_angle_gamma 120.00000

_symmetry_space_group_name_	'P 1'
_symmetry_space_group_name_H-M	'P 1'

loop_
_symmetry_equiv_pos_as_xyz
  x,y,z

loop_
_atom_site_label
_atom_site_type_symbol
_atom_site_fract_x
_atom_site_fract_y
_atom_site_fract_z
_atom_site_charge
N 	N 	0.15700 0.01700 0.88040 -0.14100
O 	O 	0.41023 0.96867 0.95605 -0.41700
O 	O 	0.37166 0.88949 0.00334 -0.41400
C 	C 	0.36140 0.90760 0.97337 0.37900
C 	C 	0.28010 0.84850 0.95612 -0.10800
C 	C 	0.26570 0.86270 0.92205 0.02200
H 	H 	0.30420 0.91070 0.91070 0.03800
C 	C 	0.16920 0.77560 0.84530 -0.18600
H 	H 	0.17520 0.72880 0.85110 0.17600
C 	C 	0.15800 0.79060 0.81100 -0.13700
H 	H 	0.15800 0.75480 0.79310 -0.02100
C 	C 	0.15500 0.91240 0.82800 0.12400
C 	C 	0.14700 0.98120 0.82050 -0.42700
H 	H 	0.14270 0.99390 0.79670 0.16300
C 	C 	0.14300 0.02900 0.84640 0.33300
H 	H 	0.13160 0.07270 0.84080 -0.10800
C 	C 	0.15700 0.94300 0.88840 -0.03800
H 	H 	0.15230 0.92560 0.91210 0.05400
C 	C 	0.16600 0.89730 0.86240 0.14100
N 	N 	0.82367 0.35033 0.21373 -0.14100
O 	O 	0.07690 0.30200 0.28938 -0.41600
O 	O 	0.03833 0.22282 0.33667 -0.41300
C 	C 	0.02807 0.24093 0.30670 0.37900
C 	C 	0.94677 0.18183 0.28945 -0.10600
C 	C 	0.93237 0.19603 0.25538 0.02200
H 	H 	0.97087 0.24403 0.24403 0.03900
C 	C 	0.83587 0.10893 0.17863 -0.18500
H 	H 	0.84187 0.06213 0.18443 0.17600
C 	C 	0.82467 0.12393 0.14433 -0.13700
H 	H 	0.82467 0.08813 0.12643 -0.02000
C 	C 	0.82167 0.24573 0.16133 0.12500
C 	C 	0.81367 0.31453 0.15383 -0.42800
H 	H 	0.80937 0.32723 0.13003 0.16400
C 	C 	0.80967 0.36233 0.17973 0.33600
H 	H 	0.79827 0.40603 0.17413 -0.10800
C 	C 	0.82367 0.27633 0.22173 -0.03700
H 	H 	0.81897 0.25893 0.24543 0.05500
C 	C 	0.83267 0.23063 0.19573 0.14200
N 	N 	0.49033 0.68367 0.54707 -0.14000
O 	O 	0.74356 0.63534 0.62272 -0.41600
O 	O 	0.70499 0.55616 0.67001 -0.41300
C 	C 	0.69473 0.57427 0.64004 0.38000
C 	C 	0.61343 0.51517 0.62279 -0.10700
C 	C 	0.59903 0.52937 0.58872 0.02300
H 	H 	0.63753 0.57737 0.57737 0.03900
C 	C 	0.50253 0.44227 0.51197 -0.18500
H 	H 	0.50853 0.39547 0.51777 0.17600
C 	C 	0.49133 0.45727 0.47767 -0.13700
H 	H 	0.49133 0.42147 0.45977 -0.02000
C 	C 	0.48833 0.57907 0.49467 0.12500
C 	C 	0.48033 0.64787 0.48717 -0.42700
H 	H 	0.47603 0.66057 0.46337 0.16400
C 	C 	0.47633 0.69567 0.51307 0.33500
H 	H 	0.46493 0.73937 0.50747 -0.10800
C 	C 	0.49033 0.60967 0.55507 -0.03700
H 	H 	0.48563 0.59227 0.57877 0.05500
C 	C 	0.49933 0.56397 0.52907 0.14200
N 	N 	0.98300 0.14000 0.88040 -0.13900
O 	O 	0.03133 0.44156 0.95605 -0.41600
O 	O 	0.11051 0.48217 0.00334 -0.41300
C 	C 	0.09240 0.45380 0.97337 0.38000
C 	C 	0.15150 0.43160 0.95612 -0.10700
C 	C 	0.13730 0.40300 0.92205 0.02300
H 	H 	0.08930 0.39350 0.91070 0.03900
C 	C 	0.22440 0.39360 0.84530 -0.18600
H 	H 	0.27120 0.44640 0.85110 0.17700
C 	C 	0.20940 0.36740 0.81100 -0.13600
H 	H 	0.24520 0.40320 0.79310 -0.02100
C 	C 	0.08760 0.24260 0.82800 0.12500
C 	C 	0.01880 0.16580 0.82050 -0.42500
H 	H 	0.00610 0.14880 0.79670 0.16300
C 	C 	0.97100 0.11400 0.84640 0.33300
H 	H 	0.92730 0.05890 0.84080 -0.10700
C 	C 	0.05700 0.21400 0.88840 -0.03600
H 	H 	0.07440 0.22670 0.91210 0.05400
C 	C 	0.10270 0.26870 0.86240 0.14300
N 	N 	0.64967 0.47333 0.21373 -0.14000
O 	O 	0.69800 0.77489 0.28938 -0.41600
O 	O 	0.77718 0.81550 0.33667 -0.41300
C 	C 	0.75907 0.78713 0.30670 0.37900
C 	C 	0.81817 0.76493 0.28945 -0.10700
C 	C 	0.80397 0.73633 0.25538 0.02300
H 	H 	0.75597 0.72683 0.24403 0.03900
C 	C 	0.89107 0.72693 0.17863 -0.18500
H 	H 	0.93787 0.77973 0.18443 0.17600
C 	C 	0.87607 0.70073 0.14433 -0.13600
H 	H 	0.91187 0.73653 0.12643 -0.02100
C 	C 	0.75427 0.57593 0.16133 0.12500
C 	C 	0.68547 0.49913 0.15383 -0.42800
H 	H 	0.67277 0.48213 0.13003 0.16400
C 	C 	0.63767 0.44733 0.17973 0.33600
H 	H 	0.59397 0.39223 0.17413 -0.10800
C 	C 	0.72367 0.54733 0.22173 -0.03700
H 	H 	0.74107 0.56003 0.24543 0.05500
C 	C 	0.76937 0.60203 0.19573 0.14200
N 	N 	0.31633 0.80667 0.54707 -0.14000
O 	O 	0.36466 0.10823 0.62272 -0.41600
O 	O 	0.44384 0.14884 0.67001 -0.41300
C 	C 	0.42573 0.12047 0.64004 0.38000
C 	C 	0.48483 0.09827 0.62279 -0.10700
C 	C 	0.47063 0.06967 0.58872 0.02300
H 	H 	0.42263 0.06017 0.57737 0.03900
C 	C 	0.55773 0.06027 0.51197 -0.18500
H 	H 	0.60453 0.11307 0.51777 0.17700
C 	C 	0.54273 0.03407 0.47767 -0.13700
H 	H 	0.57853 0.06987 0.45977 -0.02000
C 	C 	0.42093 0.90927 0.49467 0.12500
C 	C 	0.35213 0.83247 0.48717 -0.42700
H 	H 	0.33943 0.81547 0.46337 0.16400
C 	C 	0.30433 0.78067 0.51307 0.33600
H 	H 	0.26063 0.72557 0.50747 -0.10800
C 	C 	0.39033 0.88067 0.55507 -0.03700
H 	H 	0.40773 0.89337 0.57877 0.05500
C 	C 	0.43603 0.93537 0.52907 0.14200
N 	N 	0.86000 0.84300 0.88040 -0.13900
O 	O 	0.55844 0.58977 0.95605 -0.41600
O 	O 	0.51783 0.62834 0.00334 -0.41300
C 	C 	0.54620 0.63860 0.97337 0.38000
C 	C 	0.56840 0.71990 0.95612 -0.10700
C 	C 	0.59700 0.73430 0.92205 0.02300
H 	H 	0.60650 0.69580 0.91070 0.03900
C 	C 	0.60640 0.83080 0.84530 -0.18500
H 	H 	0.55360 0.82480 0.85110 0.17700
C 	C 	0.63260 0.84200 0.81100 -0.13700
H 	H 	0.59680 0.84200 0.79310 -0.02000
C 	C 	0.75740 0.84500 0.82800 0.12500
C 	C 	0.83420 0.85300 0.82050 -0.42600
H 	H 	0.85120 0.85730 0.79670 0.16400
C 	C 	0.88600 0.85700 0.84640 0.33400
H 	H 	0.94110 0.86840 0.84080 -0.10800
C 	C 	0.78600 0.84300 0.88840 -0.03800
H 	H 	0.77330 0.84770 0.91210 0.05500
C 	C 	0.73130 0.83400 0.86240 0.14200
N 	N 	0.52667 0.17633 0.21373 -0.14000
O 	O 	0.22511 0.92310 0.28938 -0.41600
O 	O 	0.18450 0.96167 0.33667 -0.41300
C 	C 	0.21287 0.97193 0.30670 0.37900
C 	C 	0.23507 0.05323 0.28945 -0.10600
C 	C 	0.26367 0.06763 0.25538 0.02300
H 	H 	0.27317 0.02913 0.24403 0.03900
C 	C 	0.27307 0.16413 0.17863 -0.18500
H 	H 	0.22027 0.15813 0.18443 0.17600
C 	C 	0.29927 0.17533 0.14433 -0.13800
H 	H 	0.26347 0.17533 0.12643 -0.02000
C 	C 	0.42407 0.17833 0.16133 0.12500
C 	C 	0.50087 0.18633 0.15383 -0.42700
H 	H 	0.51787 0.19063 0.13003 0.16400
C 	C 	0.55267 0.19033 0.17973 0.33500
H 	H 	0.60777 0.20173 0.17413 -0.10800
C 	C 	0.45267 0.17633 0.22173 -0.03700
H 	H 	0.43997 0.18103 0.24543 0.05500
C 	C 	0.39797 0.16733 0.19573 0.14200
N 	N 	0.19333 0.50967 0.54707 -0.14000
O 	O 	0.89177 0.25644 0.62272 -0.41600
O 	O 	0.85116 0.29501 0.67001 -0.41300
C 	C 	0.87953 0.30527 0.64004 0.38000
C 	C 	0.90173 0.38657 0.62279 -0.10700
C 	C 	0.93033 0.40097 0.58872 0.02300
H 	H 	0.93983 0.36247 0.57737 0.03900
C 	C 	0.93973 0.49747 0.51197 -0.18500
H 	H 	0.88693 0.49147 0.51777 0.17700
C 	C 	0.96593 0.50867 0.47767 -0.13700
H 	H 	0.93013 0.50867 0.45977 -0.02000
C 	C 	0.09073 0.51167 0.49467 0.12500
C 	C 	0.16753 0.51967 0.48717 -0.42700
H 	H 	0.18453 0.52397 0.46337 0.16400
C 	C 	0.21933 0.52367 0.51307 0.33500
H 	H 	0.27443 0.53507 0.50747 -0.10800
C 	C 	0.11933 0.50967 0.55507 -0.03700
H 	H 	0.10663 0.51437 0.57877 0.05500
C 	C 	0.06463 0.50067 0.52907 0.14200
N 	N 	0.01700 0.15700 0.11960 -0.14000
O 	O 	0.96867 0.41023 0.04395 -0.41600
O 	O 	0.88949 0.37166 0.99666 -0.41300
C 	C 	0.90760 0.36140 0.02663 0.38000
C 	C 	0.84850 0.28010 0.04388 -0.10700
C 	C 	0.86270 0.26570 0.07795 0.02300
H 	H 	0.91070 0.30420 0.08930 0.03900
C 	C 	0.77560 0.16920 0.15470 -0.18500
H 	H 	0.72880 0.17520 0.14890 0.17700
C 	C 	0.79060 0.15800 0.18900 -0.13600
H 	H 	0.75480 0.15800 0.20690 -0.02000
C 	C 	0.91240 0.15500 0.17200 0.12500
C 	C 	0.98120 0.14700 0.17950 -0.42600
H 	H 	0.99390 0.14270 0.20330 0.16400
C 	C 	0.02900 0.14300 0.15360 0.33400
H 	H 	0.07270 0.13160 0.15920 -0.10700
C 	C 	0.94300 0.15700 0.11160 -0.03700
H 	H 	0.92560 0.15230 0.08790 0.05500
C 	C 	0.89730 0.16600 0.13760 0.14200
N 	N 	0.68367 0.49033 0.45293 -0.14000
O 	O 	0.63534 0.74356 0.37728 -0.41600
O 	O 	0.55616 0.70499 0.32999 -0.41300
C 	C 	0.57427 0.69473 0.35996 0.38000
C 	C 	0.51517 0.61343 0.37721 -0.10700
C 	C 	0.52937 0.59903 0.41128 0.02300
H 	H 	0.57737 0.63753 0.42263 0.03900
C 	C 	0.44227 0.50253 0.48803 -0.18500
H 	H 	0.39547 0.50853 0.48223 0.17600
C 	C 	0.45727 0.49133 0.52233 -0.13700
H 	H 	0.42147 0.49133 0.54023 -0.02000
C 	C 	0.57907 0.48833 0.50533 0.12500
C 	C 	0.64787 0.48033 0.51283 -0.42700
H 	H 	0.66057 0.47603 0.53663 0.16400
C 	C 	0.69567 0.47633 0.48693 0.33500
H 	H 	0.73937 0.46493 0.49253 -0.10800
C 	C 	0.60967 0.49033 0.44493 -0.03700
H 	H 	0.59227 0.48563 0.42123 0.05500
C 	C 	0.56397 0.49933 0.47093 0.14200
N 	N 	0.35033 0.82367 0.78627 -0.14000
O 	O 	0.30200 0.07690 0.71062 -0.41600
O 	O 	0.22282 0.03833 0.66333 -0.41300
C 	C 	0.24093 0.02807 0.69330 0.37900
C 	C 	0.18183 0.94677 0.71055 -0.10600
C 	C 	0.19603 0.93237 0.74462 0.02200
H 	H 	0.24403 0.97087 0.75597 0.03900
C 	C 	0.10893 0.83587 0.82137 -0.18500
H 	H 	0.06213 0.84187 0.81557 0.17600
C 	C 	0.12393 0.82467 0.85567 -0.13700
H 	H 	0.08813 0.82467 0.87357 -0.02000
C 	C 	0.24573 0.82167 0.83867 0.12500
C 	C 	0.31453 0.81367 0.84617 -0.42800
H 	H 	0.32723 0.80937 0.86997 0.16400
C 	C 	0.36233 0.80967 0.82027 0.33600
H 	H 	0.40603 0.79827 0.82587 -0.10800
C 	C 	0.27633 0.82367 0.77827 -0.03700
H 	H 	0.25893 0.81897 0.75457 0.05500
C 	C 	0.23063 0.83267 0.80427 0.14200
N 	N 	0.14000 0.98300 0.11960 -0.13900
O 	O 	0.44156 0.03133 0.04395 -0.41600
O 	O 	0.48217 0.11051 0.99666 -0.41300
C 	C 	0.45380 0.09240 0.02663 0.38000
C 	C 	0.43160 0.15150 0.04388 -0.10700
C 	C 	0.40300 0.13730 0.07795 0.02300
H 	H 	0.39350 0.08930 0.08930 0.03900
C 	C 	0.39360 0.22440 0.15470 -0.18600
H 	H 	0.44640 0.27120 0.14890 0.17700
C 	C 	0.36740 0.20940 0.18900 -0.13600
H 	H 	0.40320 0.24520 0.20690 -0.02100
C 	C 	0.24260 0.08760 0.17200 0.12500
C 	C 	0.16580 0.01880 0.17950 -0.42500
H 	H 	0.14880 0.00610 0.20330 0.16300
C 	C 	0.11400 0.97100 0.15360 0.33300
H 	H 	0.05890 0.92730 0.15920 -0.10700
C 	C 	0.21400 0.05700 0.11160 -0.03600
H 	H 	0.22670 0.07440 0.08790 0.05400
C 	C 	0.26870 0.10270 0.13760 0.14300
N 	N 	0.80667 0.31633 0.45293 -0.14000
O 	O 	0.10823 0.36466 0.37728 -0.41600
O 	O 	0.14884 0.44384 0.32999 -0.41300
C 	C 	0.12047 0.42573 0.35996 0.38000
C 	C 	0.09827 0.48483 0.37721 -0.10700
C 	C 	0.06967 0.47063 0.41128 0.02300
H 	H 	0.06017 0.42263 0.42263 0.03900
C 	C 	0.06027 0.55773 0.48803 -0.18500
H 	H 	0.11307 0.60453 0.48223 0.17700
C 	C 	0.03407 0.54273 0.52233 -0.13700
H 	H 	0.06987 0.57853 0.54023 -0.02000
C 	C 	0.90927 0.42093 0.50533 0.12500
C 	C 	0.83247 0.35213 0.51283 -0.42700
H 	H 	0.81547 0.33943 0.53663 0.16400
C 	C 	0.78067 0.30433 0.48693 0.33600
H 	H 	0.72557 0.26063 0.49253 -0.10800
C 	C 	0.88067 0.39033 0.44493 -0.03700
H 	H 	0.89337 0.40773 0.42123 0.05500
C 	C 	0.93537 0.43603 0.47093 0.14200
N 	N 	0.47333 0.64967 0.78627 -0.14000
O 	O 	0.77489 0.69800 0.71062 -0.41600
O 	O 	0.81550 0.77718 0.66333 -0.41300
C 	C 	0.78713 0.75907 0.69330 0.37900
C 	C 	0.76493 0.81817 0.71055 -0.10700
C 	C 	0.73633 0.80397 0.74462 0.02300
H 	H 	0.72683 0.75597 0.75597 0.03900
C 	C 	0.72693 0.89107 0.82137 -0.18500
H 	H 	0.77973 0.93787 0.81557 0.17600
C 	C 	0.70073 0.87607 0.85567 -0.13600
H 	H 	0.73653 0.91187 0.87357 -0.02100
C 	C 	0.57593 0.75427 0.83867 0.12500
C 	C 	0.49913 0.68547 0.84617 -0.42800
H 	H 	0.48213 0.67277 0.86997 0.16400
C 	C 	0.44733 0.63767 0.82027 0.33600
H 	H 	0.39223 0.59397 0.82587 -0.10800
C 	C 	0.54733 0.72367 0.77827 -0.03700
H 	H 	0.56003 0.74107 0.75457 0.05500
C 	C 	0.60203 0.76937 0.80427 0.14200
N 	N 	0.84300 0.86000 0.11960 -0.13900
O 	O 	0.58977 0.55844 0.04395 -0.41600
O 	O 	0.62834 0.51783 0.99666 -0.41300
C 	C 	0.63860 0.54620 0.02663 0.38000
C 	C 	0.71990 0.56840 0.04388 -0.10700
C 	C 	0.73430 0.59700 0.07795 0.02300
H 	H 	0.69580 0.60650 0.08930 0.03900
C 	C 	0.83080 0.60640 0.15470 -0.18500
H 	H 	0.82480 0.55360 0.14890 0.17700
C 	C 	0.84200 0.63260 0.18900 -0.13700
H 	H 	0.84200 0.59680 0.20690 -0.02000
C 	C 	0.84500 0.75740 0.17200 0.12500
C 	C 	0.85300 0.83420 0.17950 -0.42600
H 	H 	0.85730 0.85120 0.20330 0.16400
C 	C 	0.85700 0.88600 0.15360 0.33400
H 	H 	0.86840 0.94110 0.15920 -0.10800
C 	C 	0.84300 0.78600 0.11160 -0.03800
H 	H 	0.84770 0.77330 0.08790 0.05500
C 	C 	0.83400 0.73130 0.13760 0.14200
N 	N 	0.50967 0.19333 0.45293 -0.14000
O 	O 	0.25644 0.89177 0.37728 -0.41600
O 	O 	0.29501 0.85116 0.32999 -0.41300
C 	C 	0.30527 0.87953 0.35996 0.38000
C 	C 	0.38657 0.90173 0.37721 -0.10700
C 	C 	0.40097 0.93033 0.41128 0.02300
H 	H 	0.36247 0.93983 0.42263 0.03900
C 	C 	0.49747 0.93973 0.48803 -0.18500
H 	H 	0.49147 0.88693 0.48223 0.17700
C 	C 	0.50867 0.96593 0.52233 -0.13700
H 	H 	0.50867 0.93013 0.54023 -0.02000
C 	C 	0.51167 0.09073 0.50533 0.12500
C 	C 	0.51967 0.16753 0.51283 -0.42700
H 	H 	0.52397 0.18453 0.53663 0.16400
C 	C 	0.52367 0.21933 0.48693 0.33500
H 	H 	0.53507 0.27443 0.49253 -0.10800
C 	C 	0.50967 0.11933 0.44493 -0.03700
H 	H 	0.51437 0.10663 0.42123 0.05500
C 	C 	0.50067 0.06463 0.47093 0.14200
N 	N 	0.17633 0.52667 0.78627 -0.14000
O 	O 	0.92310 0.22511 0.71062 -0.41600
O 	O 	0.96167 0.18450 0.66333 -0.41300
C 	C 	0.97193 0.21287 0.69330 0.37900
C 	C 	0.05323 0.23507 0.71055 -0.10600
C 	C 	0.06763 0.26367 0.74462 0.02300
H 	H 	0.02913 0.27317 0.75597 0.03900
C 	C 	0.16413 0.27307 0.82137 -0.18500
H 	H 	0.15813 0.22027 0.81557 0.17600
C 	C 	0.17533 0.29927 0.85567 -0.13800
H 	H 	0.17533 0.26347 0.87357 -0.02000
C 	C 	0.17833 0.42407 0.83867 0.12500
C 	C 	0.18633 0.50087 0.84617 -0.42700
H 	H 	0.19063 0.51787 0.86997 0.16400
C 	C 	0.19033 0.55267 0.82027 0.33500
H 	H 	0.20173 0.60777 0.82587 -0.10800
C 	C 	0.17633 0.45267 0.77827 -0.03700
H 	H 	0.18103 0.43997 0.75457 0.05500
C 	C 	0.16733 0.39797 0.80427 0.14200
N 	N 	0.84300 0.98300 0.11960 -0.14000
O 	O 	0.58977 0.03133 0.04395 -0.41600
O 	O 	0.62834 0.11051 0.99666 -0.41300
C 	C 	0.63860 0.09240 0.02663 0.38000
C 	C 	0.71990 0.15150 0.04388 -0.10700
C 	C 	0.73430 0.13730 0.07795 0.02300
H 	H 	0.69580 0.08930 0.08930 0.03900
C 	C 	0.83080 0.22440 0.15470 -0.18500
H 	H 	0.82480 0.27120 0.14890 0.17700
C 	C 	0.84200 0.20940 0.18900 -0.13600
H 	H 	0.84200 0.24520 0.20690 -0.02000
C 	C 	0.84500 0.08760 0.17200 0.12500
C 	C 	0.85300 0.01880 0.17950 -0.42600
H 	H 	0.85730 0.00610 0.20330 0.16400
C 	C 	0.85700 0.97100 0.15360 0.33400
H 	H 	0.86840 0.92730 0.15920 -0.10700
C 	C 	0.84300 0.05700 0.11160 -0.03700
H 	H 	0.84770 0.07440 0.08790 0.05500
C 	C 	0.83400 0.10270 0.13760 0.14200
N 	N 	0.50967 0.31633 0.45293 -0.14000
O 	O 	0.25644 0.36466 0.37728 -0.41600
O 	O 	0.29501 0.44384 0.32999 -0.41300
C 	C 	0.30527 0.42573 0.35996 0.38000
C 	C 	0.38657 0.48483 0.37721 -0.10700
C 	C 	0.40097 0.47063 0.41128 0.02300
H 	H 	0.36247 0.42263 0.42263 0.03900
C 	C 	0.49747 0.55773 0.48803 -0.18500
H 	H 	0.49147 0.60453 0.48223 0.17600
C 	C 	0.50867 0.54273 0.52233 -0.13700
H 	H 	0.50867 0.57853 0.54023 -0.02000
C 	C 	0.51167 0.42093 0.50533 0.12500
C 	C 	0.51967 0.35213 0.51283 -0.42700
H 	H 	0.52397 0.33943 0.53663 0.16400
C 	C 	0.52367 0.30433 0.48693 0.33500
H 	H 	0.53507 0.26063 0.49253 -0.10800
C 	C 	0.50967 0.39033 0.44493 -0.03700
H 	H 	0.51437 0.40773 0.42123 0.05500
C 	C 	0.50067 0.43603 0.47093 0.14200
N 	N 	0.17633 0.64967 0.78627 -0.14000
O 	O 	0.92310 0.69800 0.71062 -0.41600
O 	O 	0.96167 0.77718 0.66333 -0.41300
C 	C 	0.97193 0.75907 0.69330 0.37900
C 	C 	0.05323 0.81817 0.71055 -0.10600
C 	C 	0.06763 0.80397 0.74462 0.02200
H 	H 	0.02913 0.75597 0.75597 0.03900
C 	C 	0.16413 0.89107 0.82137 -0.18500
H 	H 	0.15813 0.93787 0.81557 0.17600
C 	C 	0.17533 0.87607 0.85567 -0.13700
H 	H 	0.17533 0.91187 0.87357 -0.02000
C 	C 	0.17833 0.75427 0.83867 0.12500
C 	C 	0.18633 0.68547 0.84617 -0.42800
H 	H 	0.19063 0.67277 0.86997 0.16400
C 	C 	0.19033 0.63767 0.82027 0.33600
H 	H 	0.20173 0.59397 0.82587 -0.10800
C 	C 	0.17633 0.72367 0.77827 -0.03700
H 	H 	0.18103 0.74107 0.75457 0.05500
C 	C 	0.16733 0.76937 0.80427 0.14200
N 	N 	0.01700 0.86000 0.11960 -0.13900
O 	O 	0.96867 0.55844 0.04395 -0.41600
O 	O 	0.88949 0.51783 0.99666 -0.41300
C 	C 	0.90760 0.54620 0.02663 0.38000
C 	C 	0.84850 0.56840 0.04388 -0.10700
C 	C 	0.86270 0.59700 0.07795 0.02300
H 	H 	0.91070 0.60650 0.08930 0.03900
C 	C 	0.77560 0.60640 0.15470 -0.18600
H 	H 	0.72880 0.55360 0.14890 0.17700
C 	C 	0.79060 0.63260 0.18900 -0.13600
H 	H 	0.75480 0.59680 0.20690 -0.02100
C 	C 	0.91240 0.75740 0.17200 0.12500
C 	C 	0.98120 0.83420 0.17950 -0.42500
H 	H 	0.99390 0.85120 0.20330 0.16300
C 	C 	0.02900 0.88600 0.15360 0.33300
H 	H 	0.07270 0.94110 0.15920 -0.10700
C 	C 	0.94300 0.78600 0.11160 -0.03600
H 	H 	0.92560 0.77330 0.08790 0.05400
C 	C 	0.89730 0.73130 0.13760 0.14300
N 	N 	0.68367 0.19333 0.45293 -0.14000
O 	O 	0.63534 0.89177 0.37728 -0.41600
O 	O 	0.55616 0.85116 0.32999 -0.41300
C 	C 	0.57427 0.87953 0.35996 0.38000
C 	C 	0.51517 0.90173 0.37721 -0.10700
C 	C 	0.52937 0.93033 0.41128 0.02300
H 	H 	0.57737 0.93983 0.42263 0.03900
C 	C 	0.44227 0.93973 0.48803 -0.18500
H 	H 	0.39547 0.88693 0.48223 0.17700
C 	C 	0.45727 0.96593 0.52233 -0.13700
H 	H 	0.42147 0.93013 0.54023 -0.02000
C 	C 	0.57907 0.09073 0.50533 0.12500
C 	C 	0.64787 0.16753 0.51283 -0.42700
H 	H 	0.66057 0.18453 0.53663 0.16400
C 	C 	0.69567 0.21933 0.48693 0.33600
H 	H 	0.73937 0.27443 0.49253 -0.10800
C 	C 	0.60967 0.11933 0.44493 -0.03700
H 	H 	0.59227 0.10663 0.42123 0.05500
C 	C 	0.56397 0.06463 0.47093 0.14200
N 	N 	0.35033 0.52667 0.78627 -0.14000
O 	O 	0.30200 0.22511 0.71062 -0.41600
O 	O 	0.22282 0.18450 0.66333 -0.41300
C 	C 	0.24093 0.21287 0.69330 0.37900
C 	C 	0.18183 0.23507 0.71055 -0.10700
C 	C 	0.19603 0.26367 0.74462 0.02300
H 	H 	0.24403 0.27317 0.75597 0.03900
C 	C 	0.10893 0.27307 0.82137 -0.18500
H 	H 	0.06213 0.22027 0.81557 0.17600
C 	C 	0.12393 0.29927 0.85567 -0.13600
H 	H 	0.08813 0.26347 0.87357 -0.02100
C 	C 	0.24573 0.42407 0.83867 0.12500
C 	C 	0.31453 0.50087 0.84617 -0.42800
H 	H 	0.32723 0.51787 0.86997 0.16400
C 	C 	0.36233 0.55267 0.82027 0.33600
H 	H 	0.40603 0.60777 0.82587 -0.10800
C 	C 	0.27633 0.45267 0.77827 -0.03700
H 	H 	0.25893 0.43997 0.75457 0.05500
C 	C 	0.23063 0.39797 0.80427 0.14200
N 	N 	0.14000 0.15700 0.11960 -0.13900
O 	O 	0.44156 0.41023 0.04395 -0.41600
O 	O 	0.48217 0.37166 0.99666 -0.41300
C 	C 	0.45380 0.36140 0.02663 0.38000
C 	C 	0.43160 0.28010 0.04388 -0.10700
C 	C 	0.40300 0.26570 0.07795 0.02300
H 	H 	0.39350 0.30420 0.08930 0.03900
C 	C 	0.39360 0.16920 0.15470 -0.18500
H 	H 	0.44640 0.17520 0.14890 0.17700
C 	C 	0.36740 0.15800 0.18900 -0.13700
H 	H 	0.40320 0.15800 0.20690 -0.02000
C 	C 	0.24260 0.15500 0.17200 0.12500
C 	C 	0.16580 0.14700 0.17950 -0.42600
H 	H 	0.14880 0.14270 0.20330 0.16400
C 	C 	0.11400 0.14300 0.15360 0.33400
H 	H 	0.05890 0.13160 0.15920 -0.10800
C 	C 	0.21400 0.15700 0.11160 -0.03800
H 	H 	0.22670 0.15230 0.08790 0.05500
C 	C 	0.26870 0.16600 0.13760 0.14200
N 	N 	0.80667 0.49033 0.45293 -0.14000
O 	O 	0.10823 0.74356 0.37728 -0.41600
O 	O 	0.14884 0.70499 0.32999 -0.41300
C 	C 	0.12047 0.69473 0.35996 0.38000
C 	C 	0.09827 0.61343 0.37721 -0.10700
C 	C 	0.06967 0.59903 0.41128 0.02300
H 	H 	0.06017 0.63753 0.42263 0.03900
C 	C 	0.06027 0.50253 0.48803 -0.18500
H 	H 	0.11307 0.50853 0.48223 0.17700
C 	C 	0.03407 0.49133 0.52233 -0.13700
H 	H 	0.06987 0.49133 0.54023 -0.02000
C 	C 	0.90927 0.48833 0.50533 0.12500
C 	C 	0.83247 0.48033 0.51283 -0.42700
H 	H 	0.81547 0.47603 0.53663 0.16400
C 	C 	0.78067 0.47633 0.48693 0.33500
H 	H 	0.72557 0.46493 0.49253 -0.10800
C 	C 	0.88067 0.49033 0.44493 -0.03700
H 	H 	0.89337 0.48563 0.42123 0.05500
C 	C 	0.93537 0.49933 0.47093 0.14200
N 	N 	0.47333 0.82367 0.78627 -0.14000
O 	O 	0.77489 0.07690 0.71062 -0.41600
O 	O 	0.81550 0.03833 0.66333 -0.41300
C 	C 	0.78713 0.02807 0.69330 0.37900
C 	C 	0.76493 0.94677 0.71055 -0.10600
C 	C 	0.73633 0.93237 0.74462 0.02300
H 	H 	0.72683 0.97087 0.75597 0.03900
C 	C 	0.72693 0.83587 0.82137 -0.18500
H 	H 	0.77973 0.84187 0.81557 0.17600
C 	C 	0.70073 0.82467 0.85567 -0.13800
H 	H 	0.73653 0.82467 0.87357 -0.02000
C 	C 	0.57593 0.82167 0.83867 0.12500
C 	C 	0.49913 0.81367 0.84617 -0.42700
H 	H 	0.48213 0.80937 0.86997 0.16400
C 	C 	0.44733 0.80967 0.82027 0.33500
H 	H 	0.39223 0.79827 0.82587 -0.10800
C 	C 	0.54733 0.82367 0.77827 -0.03700
H 	H 	0.56003 0.81897 0.75457 0.05500
C 	C 	0.60203 0.83267 0.80427 0.14200
N 	N 	0.98300 0.84300 0.88040 -0.14000
O 	O 	0.03133 0.58977 0.95605 -0.41600
O 	O 	0.11051 0.62834 0.00334 -0.41300
C 	C 	0.09240 0.63860 0.97337 0.38000
C 	C 	0.15150 0.71990 0.95612 -0.10700
C 	C 	0.13730 0.73430 0.92205 0.02300
H 	H 	0.08930 0.69580 0.91070 0.03900
C 	C 	0.22440 0.83080 0.84530 -0.18500
H 	H 	0.27120 0.82480 0.85110 0.17700
C 	C 	0.20940 0.84200 0.81100 -0.13600
H 	H 	0.24520 0.84200 0.79310 -0.02000
C 	C 	0.08760 0.84500 0.82800 0.12500
C 	C 	0.01880 0.85300 0.82050 -0.42600
H 	H 	0.00610 0.85730 0.79670 0.16400
C 	C 	0.97100 0.85700 0.84640 0.33400
H 	H 	0.92730 0.86840 0.84080 -0.10700
C 	C 	0.05700 0.84300 0.88840 -0.03700
H 	H 	0.07440 0.84770 0.91210 0.05500
C 	C 	0.10270 0.83400 0.86240 0.14200
N 	N 	0.64967 0.17633 0.21373 -0.14000
O 	O 	0.69800 0.92310 0.28938 -0.41600
O 	O 	0.77718 0.96167 0.33667 -0.41300
C 	C 	0.75907 0.97193 0.30670 0.37900
C 	C 	0.81817 0.05323 0.28945 -0.10600
C 	C 	0.80397 0.06763 0.25538 0.02200
H 	H 	0.75597 0.02913 0.24403 0.03900
C 	C 	0.89107 0.16413 0.17863 -0.18500
H 	H 	0.93787 0.15813 0.18443 0.17600
C 	C 	0.87607 0.17533 0.14433 -0.13700
H 	H 	0.91187 0.17533 0.12643 -0.02000
C 	C 	0.75427 0.17833 0.16133 0.12500
C 	C 	0.68547 0.18633 0.15383 -0.42800
H 	H 	0.67277 0.19063 0.13003 0.16400
C 	C 	0.63767 0.19033 0.17973 0.33600
H 	H 	0.59397 0.20173 0.17413 -0.10800
C 	C 	0.72367 0.17633 0.22173 -0.03700
H 	H 	0.74107 0.18103 0.24543 0.05500
C 	C 	0.76937 0.16733 0.19573 0.14200
N 	N 	0.31633 0.50967 0.54707 -0.14000
O 	O 	0.36466 0.25644 0.62272 -0.41600
O 	O 	0.44384 0.29501 0.67001 -0.41300
C 	C 	0.42573 0.30527 0.64004 0.38000
C 	C 	0.48483 0.38657 0.62279 -0.10700
C 	C 	0.47063 0.40097 0.58872 0.02300
H 	H 	0.42263 0.36247 0.57737 0.03900
C 	C 	0.55773 0.49747 0.51197 -0.18500
H 	H 	0.60453 0.49147 0.51777 0.17600
C 	C 	0.54273 0.50867 0.47767 -0.13700
H 	H 	0.57853 0.50867 0.45977 -0.02000
C 	C 	0.42093 0.51167 0.49467 0.12500
C 	C 	0.35213 0.51967 0.48717 -0.42700
H 	H 	0.33943 0.52397 0.46337 0.16400
C 	C 	0.30433 0.52367 0.51307 0.33500
H 	H 	0.26063 0.53507 0.50747 -0.10800
C 	C 	0.39033 0.50967 0.55507 -0.03700
H 	H 	0.40773 0.51437 0.57877 0.05500
C 	C 	0.43603 0.50067 0.52907 0.14200
N 	N 	0.86000 0.01700 0.88040 -0.13900
O 	O 	0.55844 0.96867 0.95605 -0.41600
O 	O 	0.51783 0.88949 0.00334 -0.41300
C 	C 	0.54620 0.90760 0.97337 0.38000
C 	C 	0.56840 0.84850 0.95612 -0.10700
C 	C 	0.59700 0.86270 0.92205 0.02300
H 	H 	0.60650 0.91070 0.91070 0.03900
C 	C 	0.60640 0.77560 0.84530 -0.18600
H 	H 	0.55360 0.72880 0.85110 0.17700
C 	C 	0.63260 0.79060 0.81100 -0.13600
H 	H 	0.59680 0.75480 0.79310 -0.02100
C 	C 	0.75740 0.91240 0.82800 0.12500
C 	C 	0.83420 0.98120 0.82050 -0.42500
H 	H 	0.85120 0.99390 0.79670 0.16300
C 	C 	0.88600 0.02900 0.84640 0.33300
H 	H 	0.94110 0.07270 0.84080 -0.10700
C 	C 	0.78600 0.94300 0.88840 -0.03600
H 	H 	0.77330 0.92560 0.91210 0.05400
C 	C 	0.73130 0.89730 0.86240 0.14300
N 	N 	0.52667 0.35033 0.21373 -0.14000
O 	O 	0.22511 0.30200 0.28938 -0.41600
O 	O 	0.18450 0.22282 0.33667 -0.41300
C 	C 	0.21287 0.24093 0.30670 0.37900
C 	C 	0.23507 0.18183 0.28945 -0.10700
C 	C 	0.26367 0.19603 0.25538 0.02300
H 	H 	0.27317 0.24403 0.24403 0.03900
C 	C 	0.27307 0.10893 0.17863 -0.18500
H 	H 	0.22027 0.06213 0.18443 0.17600
C 	C 	0.29927 0.12393 0.14433 -0.13600
H 	H 	0.26347 0.08813 0.12643 -0.02100
C 	C 	0.42407 0.24573 0.16133 0.12500
C 	C 	0.50087 0.31453 0.15383 -0.42800
H 	H 	0.51787 0.32723 0.13003 0.16400
C 	C 	0.55267 0.36233 0.17973 0.33600
H 	H 	0.60777 0.40603 0.17413 -0.10800
C 	C 	0.45267 0.27633 0.22173 -0.03700
H 	H 	0.43997 0.25893 0.24543 0.05500
C 	C 	0.39797 0.23063 0.19573 0.14200
N 	N 	0.19333 0.68367 0.54707 -0.14000
O 	O 	0.89177 0.63534 0.62272 -0.41600
O 	O 	0.85116 0.55616 0.67001 -0.41300
C 	C 	0.87953 0.57427 0.64004 0.38000
C 	C 	0.90173 0.51517 0.62279 -0.10700
C 	C 	0.93033 0.52937 0.58872 0.02300
H 	H 	0.93983 0.57737 0.57737 0.03900
C 	C 	0.93973 0.44227 0.51197 -0.18500
H 	H 	0.88693 0.39547 0.51777 0.17700
C 	C 	0.96593 0.45727 0.47767 -0.13700
H 	H 	0.93013 0.42147 0.45977 -0.02000
C 	C 	0.09073 0.57907 0.49467 0.12500
C 	C 	0.16753 0.64787 0.48717 -0.42700
H 	H 	0.18453 0.66057 0.46337 0.16400
C 	C 	0.21933 0.69567 0.51307 0.33600
H 	H 	0.27443 0.73937 0.50747 -0.10800
C 	C 	0.11933 0.60967 0.55507 -0.03700
H 	H 	0.10663 0.59227 0.57877 0.05500
C 	C 	0.06463 0.56397 0.52907 0.14200
N 	N 	0.15700 0.14000 0.88040 -0.13900
O 	O 	0.41023 0.44156 0.95605 -0.41600
O 	O 	0.37166 0.48217 0.00334 -0.41300
C 	C 	0.36140 0.45380 0.97337 0.38000
C 	C 	0.28010 0.43160 0.95612 -0.10700
C 	C 	0.26570 0.40300 0.92205 0.02300
H 	H 	0.30420 0.39350 0.91070 0.03900
C 	C 	0.16920 0.39360 0.84530 -0.18500
H 	H 	0.17520 0.44640 0.85110 0.17700
C 	C 	0.15800 0.36740 0.81100 -0.13700
H 	H 	0.15800 0.40320 0.79310 -0.02000
C 	C 	0.15500 0.24260 0.82800 0.12500
C 	C 	0.14700 0.16580 0.82050 -0.42600
H 	H 	0.14270 0.14880 0.79670 0.16400
C 	C 	0.14300 0.11400 0.84640 0.33400
H 	H 	0.13160 0.05890 0.84080 -0.10800
C 	C 	0.15700 0.21400 0.88840 -0.03800
H 	H 	0.15230 0.22670 0.91210 0.05500
C 	C 	0.16600 0.26870 0.86240 0.14200
N 	N 	0.82367 0.47333 0.21373 -0.14000
O 	O 	0.07690 0.77489 0.28938 -0.41600
O 	O 	0.03833 0.81550 0.33667 -0.41300
C 	C 	0.02807 0.78713 0.30670 0.37900
C 	C 	0.94677 0.76493 0.28945 -0.10600
C 	C 	0.93237 0.73633 0.25538 0.02300
H 	H 	0.97087 0.72683 0.24403 0.03900
C 	C 	0.83587 0.72693 0.17863 -0.18500
H 	H 	0.84187 0.77973 0.18443 0.17600
C 	C 	0.82467 0.70073 0.14433 -0.13800
H 	H 	0.82467 0.73653 0.12643 -0.02000
C 	C 	0.82167 0.57593 0.16133 0.12500
C 	C 	0.81367 0.49913 0.15383 -0.42700
H 	H 	0.80937 0.48213 0.13003 0.16400
C 	C 	0.80967 0.44733 0.17973 0.33500
H 	H 	0.79827 0.39223 0.17413 -0.10800
C 	C 	0.82367 0.54733 0.22173 -0.03700
H 	H 	0.81897 0.56003 0.24543 0.05500
C 	C 	0.83267 0.60203 0.19573 0.14200
N 	N 	0.49033 0.80667 0.54707 -0.14000
O 	O 	0.74356 0.10823 0.62272 -0.41600
O 	O 	0.70499 0.14884 0.67001 -0.41300
C 	C 	0.69473 0.12047 0.64004 0.38000
C 	C 	0.61343 0.09827 0.62279 -0.10700
C 	C 	0.59903 0.06967 0.58872 0.02300
H 	H 	0.63753 0.06017 0.57737 0.03900
C 	C 	0.50253 0.06027 0.51197 -0.18500
H 	H 	0.50853 0.11307 0.51777 0.17700
C 	C 	0.49133 0.03407 0.47767 -0.13700
H 	H 	0.49133 0.06987 0.45977 -0.02000
C 	C 	0.48833 0.90927 0.49467 0.12500
C 	C 	0.48033 0.83247 0.48717 -0.42700
H 	H 	0.47603 0.81547 0.46337 0.16400
C 	C 	0.47633 0.78067 0.51307 0.33500
H 	H 	0.46493 0.72557 0.50747 -0.10800
C 	C 	0.49033 0.88067 0.55507 -0.03700
H 	H 	0.48563 0.89337 0.57877 0.05500
C 	C 	0.49933 0.93537 0.52907 0.14200
Cu	Cu	0.47653 0.95306 0.02825 0.90600
Cu	Cu	0.14320 0.28639 0.36159 0.90600
Cu	Cu	0.80986 0.61973 0.69492 0.90600
Cu	Cu	0.04694 0.52347 0.02825 0.90600
Cu	Cu	0.71361 0.85680 0.36159 0.90600
Cu	Cu	0.38027 0.19014 0.69492 0.90600
Cu	Cu	0.47653 0.52347 0.02825 0.90600
Cu	Cu	0.14320 0.85680 0.36159 0.90600
Cu	Cu	0.80986 0.19014 0.69492 0.90600
Cu	Cu	0.95306 0.47653 0.97175 0.90600
Cu	Cu	0.61973 0.80986 0.30508 0.90600
Cu	Cu	0.28639 0.14320 0.63841 0.90600
Cu	Cu	0.52347 0.04694 0.97175 0.90600
Cu	Cu	0.19014 0.38027 0.30508 0.90600
Cu	Cu	0.85680 0.71361 0.63841 0.90600
Cu	Cu	0.52347 0.47653 0.97175 0.90600
Cu	Cu	0.19014 0.80986 0.30508 0.90600
Cu	Cu	0.85680 0.14320 0.63841 0.90600
C 	C 	0.22298 0.77702 0.97315 0.04600
H 	H 	0.23250 0.76750 0.99590 0.04700
C 	C 	0.19450 0.80550 0.90490 -0.10100
C 	C 	0.17170 0.82830 0.87110 0.19900
C 	C 	0.14560 0.85440 0.80240 0.00400
C 	C 	0.88965 0.11035 0.30648 0.04600
H 	H 	0.89917 0.10083 0.32923 0.04800
C 	C 	0.86117 0.13883 0.23823 -0.10000
C 	C 	0.83837 0.16163 0.20443 0.19800
C 	C 	0.81227 0.18773 0.13573 0.00500
C 	C 	0.55631 0.44369 0.63982 0.04600
H 	H 	0.56583 0.43417 0.66257 0.04800
C 	C 	0.52783 0.47217 0.57157 -0.10100
C 	C 	0.50503 0.49497 0.53777 0.19900
C 	C 	0.47893 0.52107 0.46907 0.00400
C 	C 	0.22298 0.44596 0.97315 0.04600
H 	H 	0.23250 0.46500 0.99590 0.04700
C 	C 	0.19450 0.38900 0.90490 -0.10100
C 	C 	0.17170 0.34340 0.87110 0.19900
C 	C 	0.14560 0.29120 0.80240 0.00400
C 	C 	0.88965 0.77929 0.30648 0.04600
H 	H 	0.89917 0.79833 0.32923 0.04800
C 	C 	0.86117 0.72233 0.23823 -0.10100
C 	C 	0.83837 0.67673 0.20443 0.19900
C 	C 	0.81227 0.62453 0.13573 0.00500
C 	C 	0.55631 0.11263 0.63982 0.04600
H 	H 	0.56583 0.13167 0.66257 0.04700
C 	C 	0.52783 0.05567 0.57157 -0.10100
C 	C 	0.50503 0.01007 0.53777 0.19900
C 	C 	0.47893 0.95787 0.46907 0.00400
C 	C 	0.55404 0.77702 0.97315 0.04600
H 	H 	0.53500 0.76750 0.99590 0.04700
C 	C 	0.61100 0.80550 0.90490 -0.10100
C 	C 	0.65660 0.82830 0.87110 0.19900
C 	C 	0.70880 0.85440 0.80240 0.00400
C 	C 	0.22071 0.11035 0.30648 0.04600
H 	H 	0.20167 0.10083 0.32923 0.04800
C 	C 	0.27767 0.13883 0.23823 -0.10100
C 	C 	0.32327 0.16163 0.20443 0.19900
C 	C 	0.37547 0.18773 0.13573 0.00500
C 	C 	0.88737 0.44369 0.63982 0.04600
H 	H 	0.86833 0.43417 0.66257 0.04700
C 	C 	0.94433 0.47217 0.57157 -0.10100
C 	C 	0.98993 0.49497 0.53777 0.19900
C 	C 	0.04213 0.52107 0.46907 0.00400
C 	C 	0.77702 0.22298 0.02685 0.04600
H 	H 	0.76750 0.23250 0.00410 0.04700
C 	C 	0.80550 0.19450 0.09510 -0.10100
C 	C 	0.82830 0.17170 0.12890 0.19900
C 	C 	0.85440 0.14560 0.19760 0.00400
C 	C 	0.44369 0.55631 0.36018 0.04600
H 	H 	0.43417 0.56583 0.33743 0.04800
C 	C 	0.47217 0.52783 0.42843 -0.10100
C 	C 	0.49497 0.50503 0.46223 0.19900
C 	C 	0.52107 0.47893 0.53093 0.00400
C 	C 	0.11035 0.88965 0.69352 0.04600
H 	H 	0.10083 0.89917 0.67077 0.04800
C 	C 	0.13883 0.86117 0.76177 -0.10000
C 	C 	0.16163 0.83837 0.79557 0.19800
C 	C 	0.18773 0.81227 0.86427 0.00500
C 	C 	0.44596 0.22298 0.02685 0.04600
H 	H 	0.46500 0.23250 0.00410 0.04700
C 	C 	0.38900 0.19450 0.09510 -0.10100
C 	C 	0.34340 0.17170 0.12890 0.19900
C 	C 	0.29120 0.14560 0.19760 0.00400
C 	C 	0.11263 0.55631 0.36018 0.04600
H 	H 	0.13167 0.56583 0.33743 0.04700
C 	C 	0.05567 0.52783 0.42843 -0.10100
C 	C 	0.01007 0.50503 0.46223 0.19900
C 	C 	0.95787 0.47893 0.53093 0.00400
C 	C 	0.77929 0.88965 0.69352 0.04600
H 	H 	0.79833 0.89917 0.67077 0.04800
C 	C 	0.72233 0.86117 0.76177 -0.10100
C 	C 	0.67673 0.83837 0.79557 0.19900
C 	C 	0.62453 0.81227 0.86427 0.00500
C 	C 	0.77702 0.55404 0.02685 0.04600
H 	H 	0.76750 0.53500 0.00410 0.04700
C 	C 	0.80550 0.61100 0.09510 -0.10100
C 	C 	0.82830 0.65660 0.12890 0.19900
C 	C 	0.85440 0.70880 0.19760 0.00400
C 	C 	0.44369 0.88737 0.36018 0.04600
H 	H 	0.43417 0.86833 0.33743 0.04700
C 	C 	0.47217 0.94433 0.42843 -0.10100
C 	C 	0.49497 0.98993 0.46223 0.19900
C 	C 	0.52107 0.04213 0.53093 0.00400
C 	C 	0.11035 0.22071 0.69352 0.04600
H 	H 	0.10083 0.20167 0.67077 0.04800
C 	C 	0.13883 0.27767 0.76177 -0.10100
C 	C 	0.16163 0.32327 0.79557 0.19900
C 	C 	0.18773 0.37547 0.86427 0.00500
