data_crystal

_cell_length_a 13.45190
_cell_length_b 13.45190
_cell_length_c 17.26500
_cell_angle_alpha 90.00000
_cell_angle_beta  90.00000
_cell_angle_gamma 90.00000

_symmetry_space_group_name_	'P 1'
_symmetry_space_group_name_H-M	'P 1'

loop_
_symmetry_equiv_pos_as_xyz
  x,y,z

loop_
_atom_site_label
_atom_site_type_symbol
_atom_site_fract_x
_atom_site_fract_y
_atom_site_fract_z
_atom_site_charge
P 	P 	0.42530 0.65700 0.06958 0.31000
P 	P 	0.39500 0.63686 0.23990 0.28100
P 	P 	0.38310 0.62890 0.57985 0.29100
P 	P 	0.41410 0.65170 0.74750 0.30100
O 	O 	0.32530 0.66110 0.02410 -0.17100
O 	O 	0.48580 0.74230 0.04100 -0.14400
O 	O 	0.39360 0.69070 0.15620 -0.21100
O 	O 	0.28790 0.62000 0.26280 -0.20400
O 	O 	0.43460 0.72660 0.29220 -0.19400
O 	O 	0.27990 0.60050 0.55540 -0.20000
O 	O 	0.41580 0.71920 0.52730 -0.20300
O 	O 	0.37130 0.68030 0.66360 -0.21600
O 	O 	0.31570 0.64450 0.79620 -0.21300
O 	O 	0.47340 0.73990 0.77580 -0.17900
K 	K 	0.21544 0.76821 0.90782 0.65100
P 	P 	0.57470 0.34300 0.06958 0.30900
P 	P 	0.60500 0.36314 0.23990 0.28100
P 	P 	0.61690 0.37110 0.57985 0.29100
P 	P 	0.58590 0.34830 0.74750 0.30100
O 	O 	0.67470 0.33890 0.02410 -0.17000
O 	O 	0.51420 0.25770 0.04100 -0.14800
O 	O 	0.60640 0.30930 0.15620 -0.21200
O 	O 	0.71210 0.38000 0.26280 -0.20200
O 	O 	0.56540 0.27340 0.29220 -0.19600
O 	O 	0.72010 0.39950 0.55540 -0.19800
O 	O 	0.58420 0.28080 0.52730 -0.20400
O 	O 	0.62870 0.31970 0.66360 -0.21600
O 	O 	0.68430 0.35550 0.79620 -0.21200
O 	O 	0.52660 0.26010 0.77580 -0.18200
K 	K 	0.78456 0.23179 0.90782 0.65200
P 	P 	0.34300 0.42530 0.06958 0.30900
P 	P 	0.36314 0.39500 0.23990 0.28100
P 	P 	0.37110 0.38310 0.57985 0.29100
P 	P 	0.34830 0.41410 0.74750 0.30100
O 	O 	0.33890 0.32530 0.02410 -0.17200
O 	O 	0.25770 0.48580 0.04100 -0.14800
O 	O 	0.30930 0.39360 0.15620 -0.21300
O 	O 	0.38000 0.28790 0.26280 -0.20400
O 	O 	0.27340 0.43460 0.29220 -0.19600
O 	O 	0.39950 0.27990 0.55540 -0.20100
O 	O 	0.28080 0.41580 0.52730 -0.20500
O 	O 	0.31970 0.37130 0.66360 -0.21700
O 	O 	0.35550 0.31570 0.79620 -0.21300
O 	O 	0.26010 0.47340 0.77580 -0.18200
K 	K 	0.23179 0.21544 0.90782 0.65100
P 	P 	0.65700 0.57470 0.06958 0.30900
P 	P 	0.63686 0.60500 0.23990 0.28100
P 	P 	0.62890 0.61690 0.57985 0.29100
P 	P 	0.65170 0.58590 0.74750 0.30100
O 	O 	0.66110 0.67470 0.02410 -0.17000
O 	O 	0.74230 0.51420 0.04100 -0.14400
O 	O 	0.69070 0.60640 0.15620 -0.21100
O 	O 	0.62000 0.71210 0.26280 -0.20200
O 	O 	0.72660 0.56540 0.29220 -0.19400
O 	O 	0.60050 0.72010 0.55540 -0.19800
O 	O 	0.71920 0.58420 0.52730 -0.20200
O 	O 	0.68030 0.62870 0.66360 -0.21500
O 	O 	0.64450 0.68430 0.79620 -0.21100
O 	O 	0.73990 0.52660 0.77580 -0.17900
K 	K 	0.76821 0.78456 0.90782 0.65200
P 	P 	0.92530 0.84300 0.56958 0.31400
P 	P 	0.89500 0.86314 0.73990 0.29200
P 	P 	0.88310 0.87110 0.07985 0.30800
P 	P 	0.91410 0.84830 0.24750 0.31100
O 	O 	0.82530 0.83890 0.52410 -0.19600
O 	O 	0.98580 0.75770 0.54100 -0.16400
O 	O 	0.89360 0.80930 0.65620 -0.21200
O 	O 	0.78790 0.88000 0.76280 -0.20900
O 	O 	0.93460 0.77340 0.79220 -0.20600
O 	O 	0.77990 0.89950 0.05540 -0.17400
O 	O 	0.91580 0.78080 0.02730 -0.16700
O 	O 	0.87130 0.81970 0.16360 -0.21400
O 	O 	0.81570 0.85550 0.29620 -0.19200
O 	O 	0.97340 0.76010 0.27580 -0.16100
K 	K 	0.71544 0.73179 0.40782 0.67100
P 	P 	0.07470 0.15700 0.56958 0.30200
P 	P 	0.10500 0.13686 0.73990 0.28000
P 	P 	0.11690 0.12890 0.07985 0.29500
P 	P 	0.08590 0.15170 0.24750 0.29900
O 	O 	0.17470 0.16110 0.52410 -0.20300
O 	O 	0.01420 0.24230 0.54100 -0.17400
O 	O 	0.10640 0.19070 0.65620 -0.21500
O 	O 	0.21210 0.12000 0.76280 -0.21600
O 	O 	0.06540 0.22660 0.79220 -0.21400
O 	O 	0.22010 0.10050 0.05540 -0.18300
O 	O 	0.08420 0.21920 0.02730 -0.17700
O 	O 	0.12870 0.18030 0.16360 -0.21700
O 	O 	0.18430 0.14450 0.29620 -0.20000
O 	O 	0.02660 0.23990 0.27580 -0.17100
K 	K 	0.28456 0.26821 0.40782 0.67000
P 	P 	0.84300 0.07470 0.56958 0.30800
P 	P 	0.86314 0.10500 0.73990 0.28700
P 	P 	0.87110 0.11690 0.07985 0.30200
P 	P 	0.84830 0.08590 0.24750 0.30500
O 	O 	0.83890 0.17470 0.52410 -0.19600
O 	O 	0.75770 0.01420 0.54100 -0.17400
O 	O 	0.80930 0.10640 0.65620 -0.21400
O 	O 	0.88000 0.21210 0.76280 -0.20900
O 	O 	0.77340 0.06540 0.79220 -0.21300
O 	O 	0.89950 0.22010 0.05540 -0.17400
O 	O 	0.78080 0.08420 0.02730 -0.17600
O 	O 	0.81970 0.12870 0.16360 -0.21600
O 	O 	0.85550 0.18430 0.29620 -0.19200
O 	O 	0.76010 0.02660 0.27580 -0.17100
K 	K 	0.73179 0.28456 0.40782 0.67100
P 	P 	0.15700 0.92530 0.56958 0.30900
P 	P 	0.13686 0.89500 0.73990 0.28600
P 	P 	0.12890 0.88310 0.07985 0.30200
P 	P 	0.15170 0.91410 0.24750 0.30600
O 	O 	0.16110 0.82530 0.52410 -0.20100
O 	O 	0.24230 0.98580 0.54100 -0.16400
O 	O 	0.19070 0.89360 0.65620 -0.21200
O 	O 	0.12000 0.78790 0.76280 -0.21600
O 	O 	0.22660 0.93460 0.79220 -0.20600
O 	O 	0.10050 0.77990 0.05540 -0.18300
O 	O 	0.21920 0.91580 0.02730 -0.16800
O 	O 	0.18030 0.87130 0.16360 -0.21500
O 	O 	0.14450 0.81570 0.29620 -0.19900
O 	O 	0.23990 0.97340 0.27580 -0.16100
K 	K 	0.26821 0.71544 0.40782 0.67100
Pt	Pt	0.50000 0.50000 0.07308 0.24400
Pt	Pt	0.50000 0.50000 0.23887 0.20800
Pt	Pt	0.50000 0.50000 0.58293 0.21400
Pt	Pt	0.50000 0.50000 0.74258 0.22300
I 	I 	0.50000 0.50000 0.90216 -0.26200
I 	I 	0.50000 0.50000 0.42027 -0.24300
Pt	Pt	0.00000 0.00000 0.57308 0.20200
Pt	Pt	0.00000 0.00000 0.73887 0.19200
Pt	Pt	0.00000 0.00000 0.08293 0.22200
Pt	Pt	-0.00000 -0.00000 0.24258 0.20300
I 	I 	0.00000 0.00000 0.40216 -0.18300
I 	I 	-0.00000 0.00000 0.92027 -0.36700
