data_crystal

_cell_length_a 18.55650
_cell_length_b 18.55650
_cell_length_c 38.61890
_cell_angle_alpha 90.00000
_cell_angle_beta  90.00000
_cell_angle_gamma 120.00000

_symmetry_space_group_name_	'P 1'
_symmetry_space_group_name_H-M	'P 1'

loop_
_symmetry_equiv_pos_as_xyz
  x,y,z

loop_
_atom_site_label
_atom_site_type_symbol
_atom_site_fract_x
_atom_site_fract_y
_atom_site_fract_z
_atom_site_charge
C 	C 	0.57431 0.69380 0.36021 0.31500
C 	C 	0.51571 0.61380 0.37723 0.04900
N 	N 	0.50320 0.34230 0.51500 -0.08300
N 	N 	0.49020 0.37840 0.44470 -0.11200
O 	O 	0.55563 0.70431 0.33008 -0.39400
O 	O 	0.63666 0.74507 0.37744 -0.39700
C 	C 	0.52960 0.59870 0.41118 -0.25200
H 	H 	0.57810 0.63690 0.42250 0.12800
C 	C 	0.50910 0.56090 0.48580 0.60300
H 	H 	0.51030 0.61150 0.47950 0.45200
C 	C 	0.52100 0.54790 0.52050 0.42100
H 	H 	0.52670 0.58800 0.53770 0.37600
C 	C 	0.50190 0.41520 0.50550 -1.07100
C 	C 	0.49240 0.43220 0.47100 -0.39200
C 	C 	0.48500 0.28320 0.48920 0.03300
H 	H 	0.47010 0.22730 0.49530 0.01600
C 	C 	0.48920 0.30690 0.45440 0.06100
H 	H 	0.49150 0.27180 0.43670 0.02600
C 	C 	0.24098 0.02713 0.69354 0.31500
C 	C 	0.18238 0.94713 0.71056 0.05000
N 	N 	0.16987 0.67563 0.84833 -0.08300
N 	N 	0.15687 0.71173 0.77803 -0.11200
O 	O 	0.22230 0.03764 0.66341 -0.39400
O 	O 	0.30333 0.07840 0.71077 -0.39700
C 	C 	0.19627 0.93203 0.74451 -0.25200
H 	H 	0.24477 0.97023 0.75583 0.12800
C 	C 	0.17577 0.89423 0.81913 0.60300
H 	H 	0.17697 0.94483 0.81283 0.45200
C 	C 	0.18767 0.88123 0.85383 0.42100
H 	H 	0.19337 0.92133 0.87103 0.37600
C 	C 	0.16857 0.74853 0.83883 -1.07200
C 	C 	0.15907 0.76553 0.80433 -0.39300
C 	C 	0.15167 0.61653 0.82253 0.03200
H 	H 	0.13677 0.56063 0.82863 0.01500
C 	C 	0.15587 0.64023 0.78773 0.06000
H 	H 	0.15817 0.60513 0.77003 0.02500
C 	C 	0.90764 0.36047 0.02688 0.31400
C 	C 	0.84904 0.28047 0.04390 0.04800
N 	N 	0.83653 0.00897 0.18167 -0.08300
N 	N 	0.82353 0.04507 0.11137 -0.11300
O 	O 	0.88896 0.37098 0.99675 -0.39500
O 	O 	0.96999 0.41174 0.04411 -0.39800
C 	C 	0.86293 0.26537 0.07785 -0.25300
H 	H 	0.91143 0.30357 0.08917 0.12700
C 	C 	0.84243 0.22757 0.15247 0.60200
H 	H 	0.84363 0.27817 0.14617 0.45100
C 	C 	0.85433 0.21457 0.18717 0.42000
H 	H 	0.86003 0.25467 0.20437 0.37500
C 	C 	0.83523 0.08187 0.17217 -1.07200
C 	C 	0.82573 0.09887 0.13767 -0.39300
C 	C 	0.81833 0.94987 0.15587 0.03200
H 	H 	0.80343 0.89397 0.16197 0.01500
C 	C 	0.82253 0.97357 0.12107 0.05900
H 	H 	0.82483 0.93847 0.10337 0.02500
C 	C 	0.30620 0.88051 0.36021 0.31400
C 	C 	0.38620 0.90191 0.37723 0.04800
N 	N 	0.65770 0.16090 0.51500 -0.08400
N 	N 	0.62160 0.11180 0.44470 -0.11300
O 	O 	0.29569 0.85132 0.33008 -0.39500
O 	O 	0.25493 0.89159 0.37744 -0.39800
C 	C 	0.40130 0.93090 0.41118 -0.25300
H 	H 	0.36310 0.94120 0.42250 0.12700
C 	C 	0.43910 0.94820 0.48580 0.60200
H 	H 	0.38850 0.89880 0.47950 0.45200
C 	C 	0.45210 0.97310 0.52050 0.42100
H 	H 	0.41200 0.93870 0.53770 0.37500
C 	C 	0.58480 0.08670 0.50550 -1.07300
C 	C 	0.56780 0.06020 0.47100 -0.39400
C 	C 	0.71680 0.20180 0.48920 0.03200
H 	H 	0.77270 0.24280 0.49530 0.01500
C 	C 	0.69310 0.18230 0.45440 0.06000
H 	H 	0.72820 0.21970 0.43670 0.02500
C 	C 	0.97287 0.21384 0.69354 0.31400
C 	C 	0.05287 0.23524 0.71056 0.04800
N 	N 	0.32437 0.49423 0.84833 -0.08400
N 	N 	0.28827 0.44513 0.77803 -0.11300
O 	O 	0.96236 0.18465 0.66341 -0.39500
O 	O 	0.92160 0.22492 0.71077 -0.39800
C 	C 	0.06797 0.26423 0.74451 -0.25300
H 	H 	0.02977 0.27453 0.75583 0.12700
C 	C 	0.10577 0.28153 0.81913 0.60200
H 	H 	0.05517 0.23213 0.81283 0.45100
C 	C 	0.11877 0.30643 0.85383 0.42000
H 	H 	0.07867 0.27203 0.87103 0.37500
C 	C 	0.25147 0.42003 0.83883 -1.07200
C 	C 	0.23447 0.39353 0.80433 -0.39300
C 	C 	0.38347 0.53513 0.82253 0.03200
H 	H 	0.43937 0.57613 0.82863 0.01500
C 	C 	0.35977 0.51563 0.78773 0.06000
H 	H 	0.39487 0.55303 0.77003 0.02500
C 	C 	0.63953 0.54718 0.02688 0.31400
C 	C 	0.71953 0.56858 0.04390 0.04800
N 	N 	0.99103 0.82757 0.18167 -0.08300
N 	N 	0.95493 0.77847 0.11137 -0.11300
O 	O 	0.62902 0.51799 0.99675 -0.39500
O 	O 	0.58826 0.55826 0.04411 -0.39800
C 	C 	0.73463 0.59757 0.07785 -0.25300
H 	H 	0.69643 0.60787 0.08917 0.12700
C 	C 	0.77243 0.61487 0.15247 0.60200
H 	H 	0.72183 0.56547 0.14617 0.45100
C 	C 	0.78543 0.63977 0.18717 0.42000
H 	H 	0.74533 0.60537 0.20437 0.37500
C 	C 	0.91813 0.75337 0.17217 -1.07200
C 	C 	0.90113 0.72687 0.13767 -0.39300
C 	C 	0.05013 0.86847 0.15587 0.03100
H 	H 	0.10603 0.90947 0.16197 0.01500
C 	C 	0.02643 0.84897 0.12107 0.05900
H 	H 	0.06153 0.88637 0.10337 0.02500
C 	C 	0.11949 0.42569 0.36021 0.31400
C 	C 	0.09809 0.48429 0.37723 0.04800
N 	N 	0.83910 0.49680 0.51500 -0.08400
N 	N 	0.88820 0.50980 0.44470 -0.11300
O 	O 	0.14868 0.44437 0.33008 -0.39500
O 	O 	0.10841 0.36334 0.37744 -0.39800
C 	C 	0.06910 0.47040 0.41118 -0.25300
H 	H 	0.05880 0.42190 0.42250 0.12700
C 	C 	0.05180 0.49090 0.48580 0.60200
H 	H 	0.10120 0.48970 0.47950 0.45200
C 	C 	0.02690 0.47900 0.52050 0.42100
H 	H 	0.06130 0.47330 0.53770 0.37500
C 	C 	0.91330 0.49810 0.50550 -1.07300
C 	C 	0.93980 0.50760 0.47100 -0.39400
C 	C 	0.79820 0.51500 0.48920 0.03200
H 	H 	0.75720 0.52990 0.49530 0.01500
C 	C 	0.81770 0.51080 0.45440 0.06000
H 	H 	0.78030 0.50850 0.43670 0.02500
C 	C 	0.78616 0.75902 0.69354 0.31400
C 	C 	0.76476 0.81762 0.71056 0.04800
N 	N 	0.50577 0.83013 0.84833 -0.08400
N 	N 	0.55487 0.84313 0.77803 -0.11300
O 	O 	0.81535 0.77770 0.66341 -0.39500
O 	O 	0.77508 0.69667 0.71077 -0.39800
C 	C 	0.73577 0.80373 0.74451 -0.25300
H 	H 	0.72547 0.75523 0.75583 0.12700
C 	C 	0.71847 0.82423 0.81913 0.60200
H 	H 	0.76787 0.82303 0.81283 0.45100
C 	C 	0.69357 0.81233 0.85383 0.42000
H 	H 	0.72797 0.80663 0.87103 0.37500
C 	C 	0.57997 0.83143 0.83883 -1.07200
C 	C 	0.60647 0.84093 0.80433 -0.39300
C 	C 	0.46487 0.84833 0.82253 0.03200
H 	H 	0.42387 0.86323 0.82863 0.01500
C 	C 	0.48437 0.84413 0.78773 0.06000
H 	H 	0.44697 0.84183 0.77003 0.02500
C 	C 	0.45282 0.09236 0.02688 0.31400
C 	C 	0.43142 0.15096 0.04390 0.04800
N 	N 	0.17243 0.16347 0.18167 -0.08400
N 	N 	0.22153 0.17647 0.11137 -0.11300
O 	O 	0.48201 0.11104 0.99675 -0.39500
O 	O 	0.44174 0.03001 0.04411 -0.39800
C 	C 	0.40243 0.13707 0.07785 -0.25300
H 	H 	0.39213 0.08857 0.08917 0.12700
C 	C 	0.38513 0.15757 0.15247 0.60200
H 	H 	0.43453 0.15637 0.14617 0.45100
C 	C 	0.36023 0.14567 0.18717 0.42000
H 	H 	0.39463 0.13997 0.20437 0.37500
C 	C 	0.24663 0.16477 0.17217 -1.07200
C 	C 	0.27313 0.17427 0.13767 -0.39300
C 	C 	0.13153 0.18167 0.15587 0.03200
H 	H 	0.09053 0.19657 0.16197 0.01500
C 	C 	0.15103 0.17747 0.12107 0.06000
H 	H 	0.11363 0.17517 0.10337 0.02500
C 	C 	0.69380 0.57431 0.63979 0.31400
C 	C 	0.61380 0.51571 0.62277 0.04800
N 	N 	0.34230 0.50320 0.48500 -0.08400
N 	N 	0.37840 0.49020 0.55530 -0.11300
O 	O 	0.70431 0.55563 0.66992 -0.39500
O 	O 	0.74507 0.63666 0.62256 -0.39800
C 	C 	0.59870 0.52960 0.58882 -0.25300
H 	H 	0.63690 0.57810 0.57750 0.12700
C 	C 	0.56090 0.50910 0.51420 0.60200
H 	H 	0.61150 0.51030 0.52050 0.45100
C 	C 	0.54790 0.52100 0.47950 0.42000
H 	H 	0.58800 0.52670 0.46230 0.37500
C 	C 	0.41520 0.50190 0.49450 -1.07200
C 	C 	0.43220 0.49240 0.52900 -0.39300
C 	C 	0.28320 0.48500 0.51080 0.03200
H 	H 	0.22730 0.47010 0.50470 0.01500
C 	C 	0.30690 0.48920 0.54560 0.06000
H 	H 	0.27180 0.49150 0.56330 0.02500
C 	C 	0.36047 0.90764 0.97312 0.31400
C 	C 	0.28047 0.84904 0.95610 0.04800
N 	N 	0.00897 0.83653 0.81833 -0.08300
N 	N 	0.04507 0.82353 0.88863 -0.11300
O 	O 	0.37098 0.88896 0.00325 -0.39500
O 	O 	0.41174 0.96999 0.95589 -0.39800
C 	C 	0.26537 0.86293 0.92215 -0.25300
H 	H 	0.30357 0.91143 0.91083 0.12700
C 	C 	0.22757 0.84243 0.84753 0.60200
H 	H 	0.27817 0.84363 0.85383 0.45100
C 	C 	0.21457 0.85433 0.81283 0.42000
H 	H 	0.25467 0.86003 0.79563 0.37500
C 	C 	0.08187 0.83523 0.82783 -1.07200
C 	C 	0.09887 0.82573 0.86233 -0.39300
C 	C 	0.94987 0.81833 0.84413 0.03200
H 	H 	0.89397 0.80343 0.83803 0.01500
C 	C 	0.97357 0.82253 0.87893 0.05900
H 	H 	0.93847 0.82483 0.89663 0.02500
C 	C 	0.02713 0.24098 0.30646 0.31400
C 	C 	0.94713 0.18238 0.28944 0.04900
N 	N 	0.67563 0.16987 0.15167 -0.08400
N 	N 	0.71173 0.15687 0.22197 -0.11300
O 	O 	0.03764 0.22230 0.33659 -0.39500
O 	O 	0.07840 0.30333 0.28923 -0.39800
C 	C 	0.93203 0.19627 0.25549 -0.25300
H 	H 	0.97023 0.24477 0.24417 0.12700
C 	C 	0.89423 0.17577 0.18087 0.60200
H 	H 	0.94483 0.17697 0.18717 0.45100
C 	C 	0.88123 0.18767 0.14617 0.42000
H 	H 	0.92133 0.19337 0.12897 0.37500
C 	C 	0.74853 0.16857 0.16117 -1.07200
C 	C 	0.76553 0.15907 0.19567 -0.39300
C 	C 	0.61653 0.15167 0.17747 0.03200
H 	H 	0.56063 0.13677 0.17137 0.01500
C 	C 	0.64023 0.15587 0.21227 0.06000
H 	H 	0.60513 0.15817 0.22997 0.02500
C 	C 	0.88051 0.30620 0.63979 0.31400
C 	C 	0.90191 0.38620 0.62277 0.04800
N 	N 	0.16090 0.65770 0.48500 -0.08400
N 	N 	0.11180 0.62160 0.55530 -0.11300
O 	O 	0.85132 0.29569 0.66992 -0.39500
O 	O 	0.89159 0.25493 0.62256 -0.39800
C 	C 	0.93090 0.40130 0.58882 -0.25300
H 	H 	0.94120 0.36310 0.57750 0.12700
C 	C 	0.94820 0.43910 0.51420 0.60200
H 	H 	0.89880 0.38850 0.52050 0.45200
C 	C 	0.97310 0.45210 0.47950 0.42100
H 	H 	0.93870 0.41200 0.46230 0.37500
C 	C 	0.08670 0.58480 0.49450 -1.07300
C 	C 	0.06020 0.56780 0.52900 -0.39400
C 	C 	0.20180 0.71680 0.51080 0.03200
H 	H 	0.24280 0.77270 0.50470 0.01500
C 	C 	0.18230 0.69310 0.54560 0.06000
H 	H 	0.21970 0.72820 0.56330 0.02500
C 	C 	0.54718 0.63953 0.97312 0.31400
C 	C 	0.56858 0.71953 0.95610 0.04800
N 	N 	0.82757 0.99103 0.81833 -0.08300
N 	N 	0.77847 0.95493 0.88863 -0.11300
O 	O 	0.51799 0.62902 0.00325 -0.39500
O 	O 	0.55826 0.58826 0.95589 -0.39800
C 	C 	0.59757 0.73463 0.92215 -0.25300
H 	H 	0.60787 0.69643 0.91083 0.12700
C 	C 	0.61487 0.77243 0.84753 0.60200
H 	H 	0.56547 0.72183 0.85383 0.45100
C 	C 	0.63977 0.78543 0.81283 0.42000
H 	H 	0.60537 0.74533 0.79563 0.37500
C 	C 	0.75337 0.91813 0.82783 -1.07200
C 	C 	0.72687 0.90113 0.86233 -0.39300
C 	C 	0.86847 0.05013 0.84413 0.03100
H 	H 	0.90947 0.10603 0.83803 0.01500
C 	C 	0.84897 0.02643 0.87893 0.05900
H 	H 	0.88637 0.06153 0.89663 0.02500
C 	C 	0.21384 0.97287 0.30646 0.31400
C 	C 	0.23524 0.05287 0.28944 0.04800
N 	N 	0.49423 0.32437 0.15167 -0.08400
N 	N 	0.44513 0.28827 0.22197 -0.11300
O 	O 	0.18465 0.96236 0.33659 -0.39500
O 	O 	0.22492 0.92160 0.28923 -0.39800
C 	C 	0.26423 0.06797 0.25549 -0.25300
H 	H 	0.27453 0.02977 0.24417 0.12700
C 	C 	0.28153 0.10577 0.18087 0.60200
H 	H 	0.23213 0.05517 0.18717 0.45100
C 	C 	0.30643 0.11877 0.14617 0.42000
H 	H 	0.27203 0.07867 0.12897 0.37500
C 	C 	0.42003 0.25147 0.16117 -1.07200
C 	C 	0.39353 0.23447 0.19567 -0.39300
C 	C 	0.53513 0.38347 0.17747 0.03200
H 	H 	0.57613 0.43937 0.17137 0.01500
C 	C 	0.51563 0.35977 0.21227 0.06000
H 	H 	0.55303 0.39487 0.22997 0.02500
C 	C 	0.42569 0.11949 0.63979 0.31400
C 	C 	0.48429 0.09809 0.62277 0.04800
N 	N 	0.49680 0.83910 0.48500 -0.08400
N 	N 	0.50980 0.88820 0.55530 -0.11300
O 	O 	0.44437 0.14868 0.66992 -0.39500
O 	O 	0.36334 0.10841 0.62256 -0.39800
C 	C 	0.47040 0.06910 0.58882 -0.25300
H 	H 	0.42190 0.05880 0.57750 0.12700
C 	C 	0.49090 0.05180 0.51420 0.60200
H 	H 	0.48970 0.10120 0.52050 0.45200
C 	C 	0.47900 0.02690 0.47950 0.42100
H 	H 	0.47330 0.06130 0.46230 0.37500
C 	C 	0.49810 0.91330 0.49450 -1.07300
C 	C 	0.50760 0.93980 0.52900 -0.39400
C 	C 	0.51500 0.79820 0.51080 0.03200
H 	H 	0.52990 0.75720 0.50470 0.01500
C 	C 	0.51080 0.81770 0.54560 0.06000
H 	H 	0.50850 0.78030 0.56330 0.02500
C 	C 	0.09236 0.45282 0.97312 0.31400
C 	C 	0.15096 0.43142 0.95610 0.04800
N 	N 	0.16347 0.17243 0.81833 -0.08400
N 	N 	0.17647 0.22153 0.88863 -0.11300
O 	O 	0.11104 0.48201 0.00325 -0.39500
O 	O 	0.03001 0.44174 0.95589 -0.39800
C 	C 	0.13707 0.40243 0.92215 -0.25300
H 	H 	0.08857 0.39213 0.91083 0.12700
C 	C 	0.15757 0.38513 0.84753 0.60200
H 	H 	0.15637 0.43453 0.85383 0.45100
C 	C 	0.14567 0.36023 0.81283 0.42000
H 	H 	0.13997 0.39463 0.79563 0.37500
C 	C 	0.16477 0.24663 0.82783 -1.07200
C 	C 	0.17427 0.27313 0.86233 -0.39300
C 	C 	0.18167 0.13153 0.84413 0.03200
H 	H 	0.19657 0.09053 0.83803 0.01500
C 	C 	0.17747 0.15103 0.87893 0.06000
H 	H 	0.17517 0.11363 0.89663 0.02500
C 	C 	0.75902 0.78616 0.30646 0.31400
C 	C 	0.81762 0.76476 0.28944 0.04800
N 	N 	0.83013 0.50577 0.15167 -0.08400
N 	N 	0.84313 0.55487 0.22197 -0.11300
O 	O 	0.77770 0.81535 0.33659 -0.39500
O 	O 	0.69667 0.77508 0.28923 -0.39800
C 	C 	0.80373 0.73577 0.25549 -0.25300
H 	H 	0.75523 0.72547 0.24417 0.12700
C 	C 	0.82423 0.71847 0.18087 0.60200
H 	H 	0.82303 0.76787 0.18717 0.45100
C 	C 	0.81233 0.69357 0.14617 0.42000
H 	H 	0.80663 0.72797 0.12897 0.37500
C 	C 	0.83143 0.57997 0.16117 -1.07200
C 	C 	0.84093 0.60647 0.19567 -0.39300
C 	C 	0.84833 0.46487 0.17747 0.03200
H 	H 	0.86323 0.42387 0.17137 0.01500
C 	C 	0.84413 0.48437 0.21227 0.06000
H 	H 	0.84183 0.44697 0.22997 0.02500
C 	C 	0.42569 0.30620 0.63979 0.31400
C 	C 	0.48429 0.38620 0.62277 0.04800
N 	N 	0.49680 0.65770 0.48500 -0.08400
N 	N 	0.50980 0.62160 0.55530 -0.11300
O 	O 	0.44437 0.29569 0.66992 -0.39500
O 	O 	0.36334 0.25493 0.62256 -0.39800
C 	C 	0.47040 0.40130 0.58882 -0.25300
H 	H 	0.42190 0.36310 0.57750 0.12700
C 	C 	0.49090 0.43910 0.51420 0.60200
H 	H 	0.48970 0.38850 0.52050 0.45100
C 	C 	0.47900 0.45210 0.47950 0.42000
H 	H 	0.47330 0.41200 0.46230 0.37500
C 	C 	0.49810 0.58480 0.49450 -1.07200
C 	C 	0.50760 0.56780 0.52900 -0.39300
C 	C 	0.51500 0.71680 0.51080 0.03200
H 	H 	0.52990 0.77270 0.50470 0.01500
C 	C 	0.51080 0.69310 0.54560 0.06000
H 	H 	0.50850 0.72820 0.56330 0.02500
C 	C 	0.09236 0.63953 0.97312 0.31400
C 	C 	0.15096 0.71953 0.95610 0.04800
N 	N 	0.16347 0.99103 0.81833 -0.08300
N 	N 	0.17647 0.95493 0.88863 -0.11300
O 	O 	0.11104 0.62902 0.00325 -0.39500
O 	O 	0.03001 0.58826 0.95589 -0.39800
C 	C 	0.13707 0.73463 0.92215 -0.25300
H 	H 	0.08857 0.69643 0.91083 0.12700
C 	C 	0.15757 0.77243 0.84753 0.60200
H 	H 	0.15637 0.72183 0.85383 0.45100
C 	C 	0.14567 0.78543 0.81283 0.42000
H 	H 	0.13997 0.74533 0.79563 0.37500
C 	C 	0.16477 0.91813 0.82783 -1.07200
C 	C 	0.17427 0.90113 0.86233 -0.39300
C 	C 	0.18167 0.05013 0.84413 0.03200
H 	H 	0.19657 0.10603 0.83803 0.01500
C 	C 	0.17747 0.02643 0.87893 0.05900
H 	H 	0.17517 0.06153 0.89663 0.02500
C 	C 	0.75902 0.97287 0.30646 0.31400
C 	C 	0.81762 0.05287 0.28944 0.04900
N 	N 	0.83013 0.32437 0.15167 -0.08400
N 	N 	0.84313 0.28827 0.22197 -0.11300
O 	O 	0.77770 0.96236 0.33659 -0.39500
O 	O 	0.69667 0.92160 0.28923 -0.39800
C 	C 	0.80373 0.06797 0.25549 -0.25300
H 	H 	0.75523 0.02977 0.24417 0.12700
C 	C 	0.82423 0.10577 0.18087 0.60200
H 	H 	0.82303 0.05517 0.18717 0.45100
C 	C 	0.81233 0.11877 0.14617 0.42000
H 	H 	0.80663 0.07867 0.12897 0.37500
C 	C 	0.83143 0.25147 0.16117 -1.07200
C 	C 	0.84093 0.23447 0.19567 -0.39300
C 	C 	0.84833 0.38347 0.17747 0.03200
H 	H 	0.86323 0.43937 0.17137 0.01500
C 	C 	0.84413 0.35977 0.21227 0.06000
H 	H 	0.84183 0.39487 0.22997 0.02500
C 	C 	0.69380 0.11949 0.63979 0.31400
C 	C 	0.61380 0.09809 0.62277 0.04800
N 	N 	0.34230 0.83910 0.48500 -0.08400
N 	N 	0.37840 0.88820 0.55530 -0.11300
O 	O 	0.70431 0.14868 0.66992 -0.39500
O 	O 	0.74507 0.10841 0.62256 -0.39800
C 	C 	0.59870 0.06910 0.58882 -0.25300
H 	H 	0.63690 0.05880 0.57750 0.12700
C 	C 	0.56090 0.05180 0.51420 0.60200
H 	H 	0.61150 0.10120 0.52050 0.45200
C 	C 	0.54790 0.02690 0.47950 0.42100
H 	H 	0.58800 0.06130 0.46230 0.37500
C 	C 	0.41520 0.91330 0.49450 -1.07300
C 	C 	0.43220 0.93980 0.52900 -0.39400
C 	C 	0.28320 0.79820 0.51080 0.03200
H 	H 	0.22730 0.75720 0.50470 0.01500
C 	C 	0.30690 0.81770 0.54560 0.06000
H 	H 	0.27180 0.78030 0.56330 0.02500
C 	C 	0.36047 0.45282 0.97312 0.31400
C 	C 	0.28047 0.43142 0.95610 0.04800
N 	N 	0.00897 0.17243 0.81833 -0.08300
N 	N 	0.04507 0.22153 0.88863 -0.11300
O 	O 	0.37098 0.48201 0.00325 -0.39500
O 	O 	0.41174 0.44174 0.95589 -0.39800
C 	C 	0.26537 0.40243 0.92215 -0.25300
H 	H 	0.30357 0.39213 0.91083 0.12700
C 	C 	0.22757 0.38513 0.84753 0.60200
H 	H 	0.27817 0.43453 0.85383 0.45100
C 	C 	0.21457 0.36023 0.81283 0.42000
H 	H 	0.25467 0.39463 0.79563 0.37500
C 	C 	0.08187 0.24663 0.82783 -1.07200
C 	C 	0.09887 0.27313 0.86233 -0.39300
C 	C 	0.94987 0.13153 0.84413 0.03100
H 	H 	0.89397 0.09053 0.83803 0.01500
C 	C 	0.97357 0.15103 0.87893 0.05900
H 	H 	0.93847 0.11363 0.89663 0.02500
C 	C 	0.02713 0.78616 0.30646 0.31400
C 	C 	0.94713 0.76476 0.28944 0.04800
N 	N 	0.67563 0.50577 0.15167 -0.08400
N 	N 	0.71173 0.55487 0.22197 -0.11300
O 	O 	0.03764 0.81535 0.33659 -0.39500
O 	O 	0.07840 0.77508 0.28923 -0.39800
C 	C 	0.93203 0.73577 0.25549 -0.25300
H 	H 	0.97023 0.72547 0.24417 0.12700
C 	C 	0.89423 0.71847 0.18087 0.60200
H 	H 	0.94483 0.76787 0.18717 0.45100
C 	C 	0.88123 0.69357 0.14617 0.42000
H 	H 	0.92133 0.72797 0.12897 0.37500
C 	C 	0.74853 0.57997 0.16117 -1.07200
C 	C 	0.76553 0.60647 0.19567 -0.39300
C 	C 	0.61653 0.46487 0.17747 0.03200
H 	H 	0.56063 0.42387 0.17137 0.01500
C 	C 	0.64023 0.48437 0.21227 0.06000
H 	H 	0.60513 0.44697 0.22997 0.02500
C 	C 	0.88051 0.57431 0.63979 0.31400
C 	C 	0.90191 0.51571 0.62277 0.04800
N 	N 	0.16090 0.50320 0.48500 -0.08400
N 	N 	0.11180 0.49020 0.55530 -0.11300
O 	O 	0.85132 0.55563 0.66992 -0.39500
O 	O 	0.89159 0.63666 0.62256 -0.39800
C 	C 	0.93090 0.52960 0.58882 -0.25300
H 	H 	0.94120 0.57810 0.57750 0.12700
C 	C 	0.94820 0.50910 0.51420 0.60200
H 	H 	0.89880 0.51030 0.52050 0.45200
C 	C 	0.97310 0.52100 0.47950 0.42100
H 	H 	0.93870 0.52670 0.46230 0.37500
C 	C 	0.08670 0.50190 0.49450 -1.07300
C 	C 	0.06020 0.49240 0.52900 -0.39400
C 	C 	0.20180 0.48500 0.51080 0.03200
H 	H 	0.24280 0.47010 0.50470 0.01500
C 	C 	0.18230 0.48920 0.54560 0.06000
H 	H 	0.21970 0.49150 0.56330 0.02500
C 	C 	0.54718 0.90764 0.97312 0.31400
C 	C 	0.56858 0.84904 0.95610 0.04800
N 	N 	0.82757 0.83653 0.81833 -0.08400
N 	N 	0.77847 0.82353 0.88863 -0.11300
O 	O 	0.51799 0.88896 0.00325 -0.39500
O 	O 	0.55826 0.96999 0.95589 -0.39800
C 	C 	0.59757 0.86293 0.92215 -0.25300
H 	H 	0.60787 0.91143 0.91083 0.12700
C 	C 	0.61487 0.84243 0.84753 0.60200
H 	H 	0.56547 0.84363 0.85383 0.45100
C 	C 	0.63977 0.85433 0.81283 0.42000
H 	H 	0.60537 0.86003 0.79563 0.37500
C 	C 	0.75337 0.83523 0.82783 -1.07200
C 	C 	0.72687 0.82573 0.86233 -0.39300
C 	C 	0.86847 0.81833 0.84413 0.03200
H 	H 	0.90947 0.80343 0.83803 0.01500
C 	C 	0.84897 0.82253 0.87893 0.06000
H 	H 	0.88637 0.82483 0.89663 0.02500
C 	C 	0.21384 0.24098 0.30646 0.31400
C 	C 	0.23524 0.18238 0.28944 0.04800
N 	N 	0.49423 0.16987 0.15167 -0.08400
N 	N 	0.44513 0.15687 0.22197 -0.11300
O 	O 	0.18465 0.22230 0.33659 -0.39500
O 	O 	0.22492 0.30333 0.28923 -0.39800
C 	C 	0.26423 0.19627 0.25549 -0.25300
H 	H 	0.27453 0.24477 0.24417 0.12700
C 	C 	0.28153 0.17577 0.18087 0.60200
H 	H 	0.23213 0.17697 0.18717 0.45100
C 	C 	0.30643 0.18767 0.14617 0.42000
H 	H 	0.27203 0.19337 0.12897 0.37500
C 	C 	0.42003 0.16857 0.16117 -1.07200
C 	C 	0.39353 0.15907 0.19567 -0.39300
C 	C 	0.53513 0.15167 0.17747 0.03200
H 	H 	0.57613 0.13677 0.17137 0.01500
C 	C 	0.51563 0.15587 0.21227 0.06000
H 	H 	0.55303 0.15817 0.22997 0.02500
C 	C 	0.30620 0.42569 0.36021 0.31400
C 	C 	0.38620 0.48429 0.37723 0.04800
N 	N 	0.65770 0.49680 0.51500 -0.08400
N 	N 	0.62160 0.50980 0.44470 -0.11300
O 	O 	0.29569 0.44437 0.33008 -0.39500
O 	O 	0.25493 0.36334 0.37744 -0.39800
C 	C 	0.40130 0.47040 0.41118 -0.25300
H 	H 	0.36310 0.42190 0.42250 0.12700
C 	C 	0.43910 0.49090 0.48580 0.60200
H 	H 	0.38850 0.48970 0.47950 0.45100
C 	C 	0.45210 0.47900 0.52050 0.42000
H 	H 	0.41200 0.47330 0.53770 0.37500
C 	C 	0.58480 0.49810 0.50550 -1.07200
C 	C 	0.56780 0.50760 0.47100 -0.39300
C 	C 	0.71680 0.51500 0.48920 0.03200
H 	H 	0.77270 0.52990 0.49530 0.01500
C 	C 	0.69310 0.51080 0.45440 0.06000
H 	H 	0.72820 0.50850 0.43670 0.02500
C 	C 	0.97287 0.75902 0.69354 0.31400
C 	C 	0.05287 0.81762 0.71056 0.04900
N 	N 	0.32437 0.83013 0.84833 -0.08400
N 	N 	0.28827 0.84313 0.77803 -0.11300
O 	O 	0.96236 0.77770 0.66341 -0.39500
O 	O 	0.92160 0.69667 0.71077 -0.39800
C 	C 	0.06797 0.80373 0.74451 -0.25300
H 	H 	0.02977 0.75523 0.75583 0.12700
C 	C 	0.10577 0.82423 0.81913 0.60200
H 	H 	0.05517 0.82303 0.81283 0.45100
C 	C 	0.11877 0.81233 0.85383 0.42000
H 	H 	0.07867 0.80663 0.87103 0.37500
C 	C 	0.25147 0.83143 0.83883 -1.07200
C 	C 	0.23447 0.84093 0.80433 -0.39300
C 	C 	0.38347 0.84833 0.82253 0.03200
H 	H 	0.43937 0.86323 0.82863 0.01500
C 	C 	0.35977 0.84413 0.78773 0.06000
H 	H 	0.39487 0.84183 0.77003 0.02500
C 	C 	0.63953 0.09236 0.02688 0.31400
C 	C 	0.71953 0.15096 0.04390 0.04800
N 	N 	0.99103 0.16347 0.18167 -0.08300
N 	N 	0.95493 0.17647 0.11137 -0.11300
O 	O 	0.62902 0.11104 0.99675 -0.39500
O 	O 	0.58826 0.03001 0.04411 -0.39800
C 	C 	0.73463 0.13707 0.07785 -0.25300
H 	H 	0.69643 0.08857 0.08917 0.12700
C 	C 	0.77243 0.15757 0.15247 0.60200
H 	H 	0.72183 0.15637 0.14617 0.45100
C 	C 	0.78543 0.14567 0.18717 0.42000
H 	H 	0.74533 0.13997 0.20437 0.37500
C 	C 	0.91813 0.16477 0.17217 -1.07200
C 	C 	0.90113 0.17427 0.13767 -0.39300
C 	C 	0.05013 0.18167 0.15587 0.03200
H 	H 	0.10603 0.19657 0.16197 0.01500
C 	C 	0.02643 0.17747 0.12107 0.05900
H 	H 	0.06153 0.17517 0.10337 0.02500
C 	C 	0.11949 0.69380 0.36021 0.31400
C 	C 	0.09809 0.61380 0.37723 0.04800
N 	N 	0.83910 0.34230 0.51500 -0.08400
N 	N 	0.88820 0.37840 0.44470 -0.11300
O 	O 	0.14868 0.70431 0.33008 -0.39500
O 	O 	0.10841 0.74507 0.37744 -0.39800
C 	C 	0.06910 0.59870 0.41118 -0.25300
H 	H 	0.05880 0.63690 0.42250 0.12700
C 	C 	0.05180 0.56090 0.48580 0.60200
H 	H 	0.10120 0.61150 0.47950 0.45200
C 	C 	0.02690 0.54790 0.52050 0.42100
H 	H 	0.06130 0.58800 0.53770 0.37500
C 	C 	0.91330 0.41520 0.50550 -1.07300
C 	C 	0.93980 0.43220 0.47100 -0.39400
C 	C 	0.79820 0.28320 0.48920 0.03200
H 	H 	0.75720 0.22730 0.49530 0.01500
C 	C 	0.81770 0.30690 0.45440 0.06000
H 	H 	0.78030 0.27180 0.43670 0.02500
C 	C 	0.78616 0.02713 0.69354 0.31400
C 	C 	0.76476 0.94713 0.71056 0.04800
N 	N 	0.50577 0.67563 0.84833 -0.08400
N 	N 	0.55487 0.71173 0.77803 -0.11300
O 	O 	0.81535 0.03764 0.66341 -0.39500
O 	O 	0.77508 0.07840 0.71077 -0.39800
C 	C 	0.73577 0.93203 0.74451 -0.25300
H 	H 	0.72547 0.97023 0.75583 0.12700
C 	C 	0.71847 0.89423 0.81913 0.60200
H 	H 	0.76787 0.94483 0.81283 0.45100
C 	C 	0.69357 0.88123 0.85383 0.42000
H 	H 	0.72797 0.92133 0.87103 0.37500
C 	C 	0.57997 0.74853 0.83883 -1.07200
C 	C 	0.60647 0.76553 0.80433 -0.39300
C 	C 	0.46487 0.61653 0.82253 0.03200
H 	H 	0.42387 0.56063 0.82863 0.01500
C 	C 	0.48437 0.64023 0.78773 0.06000
H 	H 	0.44697 0.60513 0.77003 0.02500
C 	C 	0.45282 0.36047 0.02688 0.31400
C 	C 	0.43142 0.28047 0.04390 0.04800
N 	N 	0.17243 0.00897 0.18167 -0.08300
N 	N 	0.22153 0.04507 0.11137 -0.11300
O 	O 	0.48201 0.37098 0.99675 -0.39500
O 	O 	0.44174 0.41174 0.04411 -0.39800
C 	C 	0.40243 0.26537 0.07785 -0.25300
H 	H 	0.39213 0.30357 0.08917 0.12700
C 	C 	0.38513 0.22757 0.15247 0.60200
H 	H 	0.43453 0.27817 0.14617 0.45100
C 	C 	0.36023 0.21457 0.18717 0.42000
H 	H 	0.39463 0.25467 0.20437 0.37500
C 	C 	0.24663 0.08187 0.17217 -1.07200
C 	C 	0.27313 0.09887 0.13767 -0.39300
C 	C 	0.13153 0.94987 0.15587 0.03100
H 	H 	0.09053 0.89397 0.16197 0.01500
C 	C 	0.15103 0.97357 0.12107 0.05900
H 	H 	0.11363 0.93847 0.10337 0.02500
C 	C 	0.57431 0.88051 0.36021 0.31400
C 	C 	0.51571 0.90191 0.37723 0.04800
N 	N 	0.50320 0.16090 0.51500 -0.08400
N 	N 	0.49020 0.11180 0.44470 -0.11300
O 	O 	0.55563 0.85132 0.33008 -0.39500
O 	O 	0.63666 0.89159 0.37744 -0.39800
C 	C 	0.52960 0.93090 0.41118 -0.25300
H 	H 	0.57810 0.94120 0.42250 0.12700
C 	C 	0.50910 0.94820 0.48580 0.60200
H 	H 	0.51030 0.89880 0.47950 0.45200
C 	C 	0.52100 0.97310 0.52050 0.42100
H 	H 	0.52670 0.93870 0.53770 0.37500
C 	C 	0.50190 0.08670 0.50550 -1.07300
C 	C 	0.49240 0.06020 0.47100 -0.39400
C 	C 	0.48500 0.20180 0.48920 0.03200
H 	H 	0.47010 0.24280 0.49530 0.01500
C 	C 	0.48920 0.18230 0.45440 0.06000
H 	H 	0.49150 0.21970 0.43670 0.02500
C 	C 	0.24098 0.21384 0.69354 0.31400
C 	C 	0.18238 0.23524 0.71056 0.04800
N 	N 	0.16987 0.49423 0.84833 -0.08400
N 	N 	0.15687 0.44513 0.77803 -0.11300
O 	O 	0.22230 0.18465 0.66341 -0.39500
O 	O 	0.30333 0.22492 0.71077 -0.39800
C 	C 	0.19627 0.26423 0.74451 -0.25300
H 	H 	0.24477 0.27453 0.75583 0.12700
C 	C 	0.17577 0.28153 0.81913 0.60200
H 	H 	0.17697 0.23213 0.81283 0.45100
C 	C 	0.18767 0.30643 0.85383 0.42000
H 	H 	0.19337 0.27203 0.87103 0.37500
C 	C 	0.16857 0.42003 0.83883 -1.07200
C 	C 	0.15907 0.39353 0.80433 -0.39300
C 	C 	0.15167 0.53513 0.82253 0.03200
H 	H 	0.13677 0.57613 0.82863 0.01500
C 	C 	0.15587 0.51563 0.78773 0.06000
H 	H 	0.15817 0.55303 0.77003 0.02500
C 	C 	0.90764 0.54718 0.02688 0.31400
C 	C 	0.84904 0.56858 0.04390 0.04800
N 	N 	0.83653 0.82757 0.18167 -0.08400
N 	N 	0.82353 0.77847 0.11137 -0.11300
O 	O 	0.88896 0.51799 0.99675 -0.39500
O 	O 	0.96999 0.55826 0.04411 -0.39800
C 	C 	0.86293 0.59757 0.07785 -0.25300
H 	H 	0.91143 0.60787 0.08917 0.12700
C 	C 	0.84243 0.61487 0.15247 0.60200
H 	H 	0.84363 0.56547 0.14617 0.45100
C 	C 	0.85433 0.63977 0.18717 0.42000
H 	H 	0.86003 0.60537 0.20437 0.37500
C 	C 	0.83523 0.75337 0.17217 -1.07200
C 	C 	0.82573 0.72687 0.13767 -0.39300
C 	C 	0.81833 0.86847 0.15587 0.03200
H 	H 	0.80343 0.90947 0.16197 0.01500
C 	C 	0.82253 0.84897 0.12107 0.06000
H 	H 	0.82483 0.88637 0.10337 0.02500
C 	C 	0.44409 0.55591 0.36071 -0.09200
H 	H 	0.43460 0.56540 0.33790 0.09300
C 	C 	0.47230 0.52770 0.42826 0.37200
C 	C 	0.49620 0.50380 0.46080 -0.98100
C 	C 	0.52270 0.47730 0.53070 0.17900
C 	C 	0.11076 0.88924 0.69404 -0.09200
H 	H 	0.10127 0.89873 0.67123 0.09300
C 	C 	0.13897 0.86103 0.76159 0.37300
C 	C 	0.16287 0.83713 0.79413 -0.98100
C 	C 	0.18937 0.81063 0.86403 0.17900
C 	C 	0.77742 0.22258 0.02738 -0.09200
H 	H 	0.76793 0.23207 0.00457 0.09300
C 	C 	0.80563 0.19437 0.09493 0.37200
C 	C 	0.82953 0.17047 0.12747 -0.98100
C 	C 	0.85603 0.14397 0.19737 0.17900
C 	C 	0.44409 0.88818 0.36071 -0.09200
H 	H 	0.43460 0.86920 0.33790 0.09300
C 	C 	0.47230 0.94460 0.42826 0.37300
C 	C 	0.49620 0.99240 0.46080 -0.98200
C 	C 	0.52270 0.04540 0.53070 0.17900
C 	C 	0.11076 0.22151 0.69404 -0.09200
H 	H 	0.10127 0.20253 0.67123 0.09300
C 	C 	0.13897 0.27793 0.76159 0.37300
C 	C 	0.16287 0.32573 0.79413 -0.98100
C 	C 	0.18937 0.37873 0.86403 0.17900
C 	C 	0.77742 0.55485 0.02738 -0.09200
H 	H 	0.76793 0.53587 0.00457 0.09300
C 	C 	0.80563 0.61127 0.09493 0.37200
C 	C 	0.82953 0.65907 0.12747 -0.98100
C 	C 	0.85603 0.71207 0.19737 0.17900
C 	C 	0.11182 0.55591 0.36071 -0.09200
H 	H 	0.13080 0.56540 0.33790 0.09300
C 	C 	0.05540 0.52770 0.42826 0.37300
C 	C 	0.00760 0.50380 0.46080 -0.98200
C 	C 	0.95460 0.47730 0.53070 0.17900
C 	C 	0.77849 0.88924 0.69404 -0.09200
H 	H 	0.79747 0.89873 0.67123 0.09300
C 	C 	0.72207 0.86103 0.76159 0.37300
C 	C 	0.67427 0.83713 0.79413 -0.98100
C 	C 	0.62127 0.81063 0.86403 0.17900
C 	C 	0.44515 0.22258 0.02738 -0.09200
H 	H 	0.46413 0.23207 0.00457 0.09300
C 	C 	0.38873 0.19437 0.09493 0.37200
C 	C 	0.34093 0.17047 0.12747 -0.98100
C 	C 	0.28793 0.14397 0.19737 0.17900
C 	C 	0.55591 0.44409 0.63929 -0.09200
H 	H 	0.56540 0.43460 0.66210 0.09300
C 	C 	0.52770 0.47230 0.57174 0.37200
C 	C 	0.50380 0.49620 0.53920 -0.98100
C 	C 	0.47730 0.52270 0.46930 0.17900
C 	C 	0.22258 0.77742 0.97262 -0.09200
H 	H 	0.23207 0.76793 0.99543 0.09300
C 	C 	0.19437 0.80563 0.90507 0.37200
C 	C 	0.17047 0.82953 0.87253 -0.98100
C 	C 	0.14397 0.85603 0.80263 0.17900
C 	C 	0.88924 0.11076 0.30596 -0.09200
H 	H 	0.89873 0.10127 0.32877 0.09300
C 	C 	0.86103 0.13897 0.23841 0.37300
C 	C 	0.83713 0.16287 0.20587 -0.98100
C 	C 	0.81063 0.18937 0.13597 0.17900
C 	C 	0.88818 0.44409 0.63929 -0.09200
H 	H 	0.86920 0.43460 0.66210 0.09300
C 	C 	0.94460 0.47230 0.57174 0.37300
C 	C 	0.99240 0.49620 0.53920 -0.98200
C 	C 	0.04540 0.52270 0.46930 0.17900
C 	C 	0.55485 0.77742 0.97262 -0.09200
H 	H 	0.53587 0.76793 0.99543 0.09300
C 	C 	0.61127 0.80563 0.90507 0.37200
C 	C 	0.65907 0.82953 0.87253 -0.98100
C 	C 	0.71207 0.85603 0.80263 0.17900
C 	C 	0.22151 0.11076 0.30596 -0.09200
H 	H 	0.20253 0.10127 0.32877 0.09300
C 	C 	0.27793 0.13897 0.23841 0.37300
C 	C 	0.32573 0.16287 0.20587 -0.98100
C 	C 	0.37873 0.18937 0.13597 0.17900
C 	C 	0.55591 0.11182 0.63929 -0.09200
H 	H 	0.56540 0.13080 0.66210 0.09300
C 	C 	0.52770 0.05540 0.57174 0.37300
C 	C 	0.50380 0.00760 0.53920 -0.98200
C 	C 	0.47730 0.95460 0.46930 0.17900
C 	C 	0.22258 0.44515 0.97262 -0.09200
H 	H 	0.23207 0.46413 0.99543 0.09300
C 	C 	0.19437 0.38873 0.90507 0.37200
C 	C 	0.17047 0.34093 0.87253 -0.98100
C 	C 	0.14397 0.28793 0.80263 0.17900
C 	C 	0.88924 0.77849 0.30596 -0.09200
H 	H 	0.89873 0.79747 0.32877 0.09300
C 	C 	0.86103 0.72207 0.23841 0.37300
C 	C 	0.83713 0.67427 0.20587 -0.98100
C 	C 	0.81063 0.62127 0.13597 0.17900
Cu	Cu	0.71442 0.85721 0.36145 0.90500
Cu	Cu	0.38109 0.19054 0.69479 0.90500
Cu	Cu	0.04775 0.52388 0.02812 0.90500
Cu	Cu	0.14279 0.85721 0.36145 0.90500
Cu	Cu	0.80946 0.19054 0.69479 0.90500
Cu	Cu	0.47612 0.52388 0.02812 0.90500
Cu	Cu	0.14279 0.28558 0.36145 0.90500
Cu	Cu	0.80946 0.61891 0.69479 0.90500
Cu	Cu	0.47612 0.95225 0.02812 0.90500
Cu	Cu	0.85721 0.71442 0.63855 0.90500
Cu	Cu	0.52388 0.04775 0.97188 0.90500
Cu	Cu	0.19054 0.38109 0.30521 0.90500
Cu	Cu	0.85721 0.14279 0.63855 0.90500
Cu	Cu	0.52388 0.47612 0.97188 0.90500
Cu	Cu	0.19054 0.80946 0.30521 0.90500
Cu	Cu	0.28558 0.14279 0.63855 0.90500
Cu	Cu	0.95225 0.47612 0.97188 0.90500
Cu	Cu	0.61891 0.80946 0.30521 0.90500
