data_crystal

_cell_length_a 23.77760
_cell_length_b 23.77760
_cell_length_c 75.98960
_cell_angle_alpha 90.00000
_cell_angle_beta  90.00000
_cell_angle_gamma 90.00000

_symmetry_space_group_name_	'P 1'
_symmetry_space_group_name_H-M	'P 1'

loop_
_symmetry_equiv_pos_as_xyz
  x,y,z

loop_
_atom_site_label
_atom_site_type_symbol
_atom_site_fract_x
_atom_site_fract_y
_atom_site_fract_z
_atom_site_charge
Cu	Cu	0.95678 0.96532 0.13911 0.90400
C 	C 	0.15377 0.80139 0.21660 0.02200
C 	C 	0.17670 0.82838 0.23116 -0.16000
H 	H 	0.17440 0.86730 0.23210 0.09700
C 	C 	0.20310 0.79720 0.24424 0.17900
C 	C 	0.20653 0.73903 0.24277 -0.04300
C 	C 	0.18361 0.71204 0.22822 0.03800
C 	C 	0.15723 0.74322 0.21513 -0.00300
C 	C 	0.13540 0.71570 0.19981 -0.06900
H 	H 	0.12020 0.73700 0.19070 0.06100
C 	C 	0.13660 0.65750 0.19839 0.00000
C 	C 	0.16110 0.62630 0.21240 -0.03800
H 	H 	0.16130 0.58730 0.21190 0.04700
C 	C 	0.18410 0.65270 0.22631 -0.06400
H 	H 	0.20110 0.63120 0.23500 0.06300
C 	C 	0.12350 0.83960 0.20268 0.06900
C 	C 	0.06920 0.82780 0.19696 -0.13400
H 	H 	0.04940 0.79780 0.20180 0.07900
C 	C 	0.04455 0.86080 0.18397 0.06900
H 	H 	0.00820 0.85290 0.18010 0.02300
C 	C 	0.07410 0.90552 0.17671 -0.14600
C 	C 	0.12840 0.91732 0.18243 0.07000
H 	H 	0.14820 0.94730 0.17760 0.02300
C 	C 	0.15306 0.88440 0.19541 -0.13300
H 	H 	0.18940 0.89230 0.19920 0.08300
O 	O 	0.99980 0.92540 0.15765 -0.41200
O 	O 	0.00300 0.57240 0.12943 -0.39300
O 	O 	0.07280 0.51150 0.12986 -0.43000
C 	C 	0.11270 0.63050 0.18234 0.07400
C 	C 	0.14007 0.58460 0.17487 -0.13000
H 	H 	0.17260 0.57050 0.18000 0.08000
C 	C 	0.11890 0.56004 0.15966 0.06000
H 	H 	0.13710 0.52940 0.15470 0.02700
C 	C 	0.07030 0.58130 0.15193 -0.13300
C 	C 	0.04298 0.62710 0.15941 0.06500
H 	H 	0.01050 0.64130 0.15420 0.02500
C 	C 	0.06420 0.65169 0.17461 -0.13200
H 	H 	0.04590 0.68230 0.17960 0.07900
C 	C 	0.04780 0.93960 0.16308 0.39600
C 	C 	0.04990 0.55180 0.13595 0.38900
C 	C 	0.20830 0.88630 0.26250 -0.03200
C 	C 	0.19300 0.90600 0.27330 0.01700
O 	O 	0.07250 0.98150 0.15690 -0.41400
O 	O 	0.22660 0.82160 0.25843 -0.21700
C 	C 	0.75740 0.38110 0.99290 0.09800
C 	C 	0.74410 0.40160 0.97390 -0.01400
Cu	Cu	0.45678 0.46532 0.63911 0.90300
C 	C 	0.65377 0.30139 0.71660 0.02100
C 	C 	0.67670 0.32838 0.73116 -0.16100
H 	H 	0.67440 0.36730 0.73210 0.09600
C 	C 	0.70310 0.29720 0.74424 0.17800
C 	C 	0.70653 0.23903 0.74277 -0.04400
C 	C 	0.68361 0.21204 0.72822 0.03700
C 	C 	0.65723 0.24322 0.71513 -0.00400
C 	C 	0.63540 0.21570 0.69981 -0.07000
H 	H 	0.62020 0.23700 0.69070 0.06000
C 	C 	0.63660 0.15750 0.69839 -0.00100
C 	C 	0.66110 0.12630 0.71240 -0.03900
H 	H 	0.66130 0.08730 0.71190 0.04600
C 	C 	0.68410 0.15270 0.72631 -0.06500
H 	H 	0.70110 0.13120 0.73500 0.06200
C 	C 	0.62350 0.33960 0.70268 0.06800
C 	C 	0.56920 0.32780 0.69696 -0.13400
H 	H 	0.54940 0.29780 0.70180 0.07800
C 	C 	0.54455 0.36080 0.68397 0.06700
H 	H 	0.50820 0.35290 0.68010 0.02200
C 	C 	0.57410 0.40552 0.67671 -0.14700
C 	C 	0.62840 0.41732 0.68243 0.06900
H 	H 	0.64820 0.44730 0.67760 0.02200
C 	C 	0.65306 0.38440 0.69541 -0.13400
H 	H 	0.68940 0.39230 0.69920 0.08200
O 	O 	0.49980 0.42540 0.65765 -0.41200
O 	O 	0.50300 0.07240 0.62943 -0.39400
O 	O 	0.57280 0.01150 0.62986 -0.43100
C 	C 	0.61270 0.13050 0.68234 0.07300
C 	C 	0.64007 0.08460 0.67487 -0.13000
H 	H 	0.67260 0.07050 0.68000 0.07900
C 	C 	0.61890 0.06004 0.65966 0.05900
H 	H 	0.63710 0.02940 0.65470 0.02600
C 	C 	0.57030 0.08130 0.65193 -0.13400
C 	C 	0.54298 0.12710 0.65941 0.06400
H 	H 	0.51050 0.14130 0.65420 0.02400
C 	C 	0.56420 0.15169 0.67461 -0.13300
H 	H 	0.54590 0.18230 0.67960 0.07800
C 	C 	0.54780 0.43960 0.66308 0.39400
C 	C 	0.54990 0.05180 0.63595 0.38800
C 	C 	0.70830 0.38630 0.76250 -0.03300
C 	C 	0.69300 0.40600 0.77330 0.01600
O 	O 	0.57250 0.48150 0.65690 -0.41500
O 	O 	0.72660 0.32160 0.75843 -0.21800
C 	C 	0.25740 0.88110 0.49290 0.09800
C 	C 	0.24410 0.90160 0.47390 -0.01400
Cu	Cu	0.54322 0.53468 0.63911 0.90300
C 	C 	0.34623 0.69861 0.71660 0.02100
C 	C 	0.32330 0.67162 0.73116 -0.16100
H 	H 	0.32560 0.63270 0.73210 0.09600
C 	C 	0.29690 0.70280 0.74424 0.17800
C 	C 	0.29347 0.76097 0.74277 -0.04400
C 	C 	0.31639 0.78796 0.72822 0.03700
C 	C 	0.34277 0.75678 0.71513 -0.00400
C 	C 	0.36460 0.78430 0.69981 -0.07000
H 	H 	0.37980 0.76300 0.69070 0.06000
C 	C 	0.36340 0.84250 0.69839 -0.00100
C 	C 	0.33890 0.87370 0.71240 -0.03900
H 	H 	0.33870 0.91270 0.71190 0.04600
C 	C 	0.31590 0.84730 0.72631 -0.06500
H 	H 	0.29890 0.86880 0.73500 0.06200
C 	C 	0.37650 0.66040 0.70268 0.06800
C 	C 	0.43080 0.67220 0.69696 -0.13400
H 	H 	0.45060 0.70220 0.70180 0.07800
C 	C 	0.45545 0.63920 0.68397 0.06700
H 	H 	0.49180 0.64710 0.68010 0.02200
C 	C 	0.42590 0.59448 0.67671 -0.14700
C 	C 	0.37160 0.58268 0.68243 0.06900
H 	H 	0.35180 0.55270 0.67760 0.02200
C 	C 	0.34694 0.61560 0.69541 -0.13400
H 	H 	0.31060 0.60770 0.69920 0.08200
O 	O 	0.50020 0.57460 0.65765 -0.41200
O 	O 	0.49700 0.92760 0.62943 -0.39400
O 	O 	0.42720 0.98850 0.62986 -0.43100
C 	C 	0.38730 0.86950 0.68234 0.07300
C 	C 	0.35993 0.91540 0.67487 -0.13000
H 	H 	0.32740 0.92950 0.68000 0.07900
C 	C 	0.38110 0.93996 0.65966 0.05900
H 	H 	0.36290 0.97060 0.65470 0.02600
C 	C 	0.42970 0.91870 0.65193 -0.13400
C 	C 	0.45702 0.87290 0.65941 0.06400
H 	H 	0.48950 0.85870 0.65420 0.02400
C 	C 	0.43580 0.84831 0.67461 -0.13300
H 	H 	0.45410 0.81770 0.67960 0.07800
C 	C 	0.45220 0.56040 0.66308 0.39400
C 	C 	0.45010 0.94820 0.63595 0.38800
C 	C 	0.29170 0.61370 0.76250 -0.03300
C 	C 	0.30700 0.59400 0.77330 0.01600
O 	O 	0.42750 0.51850 0.65690 -0.41500
O 	O 	0.27340 0.67840 0.75843 -0.21800
C 	C 	0.74260 0.11890 0.49290 0.09800
C 	C 	0.75590 0.09840 0.47390 -0.01400
Cu	Cu	0.04322 0.03468 0.13911 0.90300
C 	C 	0.84623 0.19861 0.21660 0.02100
C 	C 	0.82330 0.17162 0.23116 -0.16100
H 	H 	0.82560 0.13270 0.23210 0.09600
C 	C 	0.79690 0.20280 0.24424 0.17800
C 	C 	0.79347 0.26097 0.24277 -0.04400
C 	C 	0.81639 0.28796 0.22822 0.03700
C 	C 	0.84277 0.25678 0.21513 -0.00400
C 	C 	0.86460 0.28430 0.19981 -0.07000
H 	H 	0.87980 0.26300 0.19070 0.06000
C 	C 	0.86340 0.34250 0.19839 -0.00100
C 	C 	0.83890 0.37370 0.21240 -0.03900
H 	H 	0.83870 0.41270 0.21190 0.04600
C 	C 	0.81590 0.34730 0.22631 -0.06500
H 	H 	0.79890 0.36880 0.23500 0.06200
C 	C 	0.87650 0.16040 0.20268 0.06800
C 	C 	0.93080 0.17220 0.19696 -0.13500
H 	H 	0.95060 0.20220 0.20180 0.07800
C 	C 	0.95545 0.13920 0.18397 0.06800
H 	H 	0.99180 0.14710 0.18010 0.02200
C 	C 	0.92590 0.09448 0.17671 -0.14700
C 	C 	0.87160 0.08268 0.18243 0.06900
H 	H 	0.85180 0.05270 0.17760 0.02200
C 	C 	0.84694 0.11560 0.19541 -0.13400
H 	H 	0.81060 0.10770 0.19920 0.08200
O 	O 	0.00020 0.07460 0.15765 -0.41300
O 	O 	0.99700 0.42760 0.12943 -0.39400
O 	O 	0.92720 0.48850 0.12986 -0.43100
C 	C 	0.88730 0.36950 0.18234 0.07300
C 	C 	0.85993 0.41540 0.17487 -0.13100
H 	H 	0.82740 0.42950 0.18000 0.07900
C 	C 	0.88110 0.43996 0.15966 0.05900
H 	H 	0.86290 0.47060 0.15470 0.02600
C 	C 	0.92970 0.41870 0.15193 -0.13400
C 	C 	0.95702 0.37290 0.15941 0.06400
H 	H 	0.98950 0.35870 0.15420 0.02400
C 	C 	0.93580 0.34831 0.17461 -0.13300
H 	H 	0.95410 0.31770 0.17960 0.07800
C 	C 	0.95220 0.06040 0.16308 0.39500
C 	C 	0.95010 0.44820 0.13595 0.38800
C 	C 	0.79170 0.11370 0.26250 -0.03300
C 	C 	0.80700 0.09400 0.27330 0.01600
O 	O 	0.92750 0.01850 0.15690 -0.41500
O 	O 	0.77340 0.17840 0.25843 -0.21800
C 	C 	0.24260 0.61890 0.99290 0.09800
C 	C 	0.25590 0.59840 0.97390 -0.01400
Cu	Cu	0.03468 0.45678 0.38911 0.90300
C 	C 	0.19861 0.65377 0.46660 0.02100
C 	C 	0.17162 0.67670 0.48116 -0.16100
H 	H 	0.13270 0.67440 0.48210 0.09600
C 	C 	0.20280 0.70310 0.49424 0.17800
C 	C 	0.26097 0.70653 0.49277 -0.04400
C 	C 	0.28796 0.68361 0.47822 0.03700
C 	C 	0.25678 0.65723 0.46513 -0.00400
C 	C 	0.28430 0.63540 0.44981 -0.07000
H 	H 	0.26300 0.62020 0.44070 0.06000
C 	C 	0.34250 0.63660 0.44839 -0.00100
C 	C 	0.37370 0.66110 0.46240 -0.03900
H 	H 	0.41270 0.66130 0.46190 0.04600
C 	C 	0.34730 0.68410 0.47631 -0.06500
H 	H 	0.36880 0.70110 0.48500 0.06200
C 	C 	0.16040 0.62350 0.45268 0.06800
C 	C 	0.17220 0.56920 0.44696 -0.13400
H 	H 	0.20220 0.54940 0.45180 0.07800
C 	C 	0.13920 0.54455 0.43397 0.06700
H 	H 	0.14710 0.50820 0.43010 0.02200
C 	C 	0.09448 0.57410 0.42671 -0.14700
C 	C 	0.08268 0.62840 0.43243 0.06900
H 	H 	0.05270 0.64820 0.42760 0.02200
C 	C 	0.11560 0.65306 0.44541 -0.13400
H 	H 	0.10770 0.68940 0.44920 0.08200
O 	O 	0.07460 0.49980 0.40765 -0.41200
O 	O 	0.42760 0.50300 0.37943 -0.39400
O 	O 	0.48850 0.57280 0.37986 -0.43100
C 	C 	0.36950 0.61270 0.43234 0.07300
C 	C 	0.41540 0.64007 0.42487 -0.13000
H 	H 	0.42950 0.67260 0.43000 0.07900
C 	C 	0.43996 0.61890 0.40966 0.05900
H 	H 	0.47060 0.63710 0.40470 0.02600
C 	C 	0.41870 0.57030 0.40193 -0.13400
C 	C 	0.37290 0.54298 0.40941 0.06400
H 	H 	0.35870 0.51050 0.40420 0.02400
C 	C 	0.34831 0.56420 0.42461 -0.13300
H 	H 	0.31770 0.54590 0.42960 0.07800
C 	C 	0.06040 0.54780 0.41308 0.39400
C 	C 	0.44820 0.54990 0.38595 0.38800
C 	C 	0.11370 0.70830 0.51250 -0.03300
C 	C 	0.09400 0.69300 0.52330 0.01600
O 	O 	0.01850 0.57250 0.40690 -0.41500
O 	O 	0.17840 0.72660 0.50843 -0.21800
C 	C 	0.61890 0.25740 0.24290 0.09800
C 	C 	0.59840 0.24410 0.22390 -0.01400
Cu	Cu	0.53468 0.95678 0.88911 0.90300
C 	C 	0.69861 0.15377 0.96660 0.02100
C 	C 	0.67162 0.17670 0.98116 -0.16100
H 	H 	0.63270 0.17440 0.98210 0.09600
C 	C 	0.70280 0.20310 0.99424 0.17800
C 	C 	0.76097 0.20653 0.99277 -0.04400
C 	C 	0.78796 0.18361 0.97822 0.03700
C 	C 	0.75678 0.15723 0.96513 -0.00400
C 	C 	0.78430 0.13540 0.94981 -0.07000
H 	H 	0.76300 0.12020 0.94070 0.06000
C 	C 	0.84250 0.13660 0.94839 -0.00100
C 	C 	0.87370 0.16110 0.96240 -0.03900
H 	H 	0.91270 0.16130 0.96190 0.04600
C 	C 	0.84730 0.18410 0.97631 -0.06500
H 	H 	0.86880 0.20110 0.98500 0.06200
C 	C 	0.66040 0.12350 0.95268 0.06800
C 	C 	0.67220 0.06920 0.94696 -0.13400
H 	H 	0.70220 0.04940 0.95180 0.07800
C 	C 	0.63920 0.04455 0.93397 0.06800
H 	H 	0.64710 0.00820 0.93010 0.02200
C 	C 	0.59448 0.07410 0.92671 -0.14700
C 	C 	0.58268 0.12840 0.93243 0.06900
H 	H 	0.55270 0.14820 0.92760 0.02200
C 	C 	0.61560 0.15306 0.94541 -0.13400
H 	H 	0.60770 0.18940 0.94920 0.08200
O 	O 	0.57460 0.99980 0.90765 -0.41200
O 	O 	0.92760 0.00300 0.87943 -0.39300
O 	O 	0.98850 0.07280 0.87986 -0.43100
C 	C 	0.86950 0.11270 0.93234 0.07300
C 	C 	0.91540 0.14007 0.92487 -0.13000
H 	H 	0.92950 0.17260 0.93000 0.07900
C 	C 	0.93996 0.11890 0.90966 0.05900
H 	H 	0.97060 0.13710 0.90470 0.02600
C 	C 	0.91870 0.07030 0.90193 -0.13400
C 	C 	0.87290 0.04298 0.90941 0.06400
H 	H 	0.85870 0.01050 0.90420 0.02400
C 	C 	0.84831 0.06420 0.92461 -0.13300
H 	H 	0.81770 0.04590 0.92960 0.07800
C 	C 	0.56040 0.04780 0.91308 0.39400
C 	C 	0.94820 0.04990 0.88595 0.38800
C 	C 	0.61370 0.20830 0.01250 -0.03300
C 	C 	0.59400 0.19300 0.02330 0.01600
O 	O 	0.51850 0.07250 0.90690 -0.41500
O 	O 	0.67840 0.22660 0.00843 -0.21800
C 	C 	0.11890 0.75740 0.74290 0.09800
C 	C 	0.09840 0.74410 0.72390 -0.01400
Cu	Cu	0.46532 0.04322 0.88911 0.90300
C 	C 	0.30139 0.84623 0.96660 0.02100
C 	C 	0.32838 0.82330 0.98116 -0.16100
H 	H 	0.36730 0.82560 0.98210 0.09600
C 	C 	0.29720 0.79690 0.99424 0.17800
C 	C 	0.23903 0.79347 0.99277 -0.04400
C 	C 	0.21204 0.81639 0.97822 0.03700
C 	C 	0.24322 0.84277 0.96513 -0.00400
C 	C 	0.21570 0.86460 0.94981 -0.07000
H 	H 	0.23700 0.87980 0.94070 0.06000
C 	C 	0.15750 0.86340 0.94839 -0.00100
C 	C 	0.12630 0.83890 0.96240 -0.03900
H 	H 	0.08730 0.83870 0.96190 0.04600
C 	C 	0.15270 0.81590 0.97631 -0.06500
H 	H 	0.13120 0.79890 0.98500 0.06200
C 	C 	0.33960 0.87650 0.95268 0.06800
C 	C 	0.32780 0.93080 0.94696 -0.13400
H 	H 	0.29780 0.95060 0.95180 0.07800
C 	C 	0.36080 0.95545 0.93397 0.06800
H 	H 	0.35290 0.99180 0.93010 0.02200
C 	C 	0.40552 0.92590 0.92671 -0.14700
C 	C 	0.41732 0.87160 0.93243 0.06900
H 	H 	0.44730 0.85180 0.92760 0.02200
C 	C 	0.38440 0.84694 0.94541 -0.13400
H 	H 	0.39230 0.81060 0.94920 0.08200
O 	O 	0.42540 0.00020 0.90765 -0.41200
O 	O 	0.07240 0.99700 0.87943 -0.39300
O 	O 	0.01150 0.92720 0.87986 -0.43100
C 	C 	0.13050 0.88730 0.93234 0.07300
C 	C 	0.08460 0.85993 0.92487 -0.13000
H 	H 	0.07050 0.82740 0.93000 0.07900
C 	C 	0.06004 0.88110 0.90966 0.05900
H 	H 	0.02940 0.86290 0.90470 0.02600
C 	C 	0.08130 0.92970 0.90193 -0.13400
C 	C 	0.12710 0.95702 0.90941 0.06400
H 	H 	0.14130 0.98950 0.90420 0.02400
C 	C 	0.15169 0.93580 0.92461 -0.13300
H 	H 	0.18230 0.95410 0.92960 0.07800
C 	C 	0.43960 0.95220 0.91308 0.39400
C 	C 	0.05180 0.95010 0.88595 0.38800
C 	C 	0.38630 0.79170 0.01250 -0.03300
C 	C 	0.40600 0.80700 0.02330 0.01600
O 	O 	0.48150 0.92750 0.90690 -0.41500
O 	O 	0.32160 0.77340 0.00843 -0.21800
C 	C 	0.88110 0.24260 0.74290 0.09800
C 	C 	0.90160 0.25590 0.72390 -0.01400
Cu	Cu	0.96532 0.54322 0.38911 0.90300
C 	C 	0.80139 0.34623 0.46660 0.02100
C 	C 	0.82838 0.32330 0.48116 -0.16100
H 	H 	0.86730 0.32560 0.48210 0.09600
C 	C 	0.79720 0.29690 0.49424 0.17800
C 	C 	0.73903 0.29347 0.49277 -0.04400
C 	C 	0.71204 0.31639 0.47822 0.03700
C 	C 	0.74322 0.34277 0.46513 -0.00400
C 	C 	0.71570 0.36460 0.44981 -0.07000
H 	H 	0.73700 0.37980 0.44070 0.06000
C 	C 	0.65750 0.36340 0.44839 -0.00100
C 	C 	0.62630 0.33890 0.46240 -0.03900
H 	H 	0.58730 0.33870 0.46190 0.04600
C 	C 	0.65270 0.31590 0.47631 -0.06500
H 	H 	0.63120 0.29890 0.48500 0.06200
C 	C 	0.83960 0.37650 0.45268 0.06800
C 	C 	0.82780 0.43080 0.44696 -0.13400
H 	H 	0.79780 0.45060 0.45180 0.07800
C 	C 	0.86080 0.45545 0.43397 0.06700
H 	H 	0.85290 0.49180 0.43010 0.02200
C 	C 	0.90552 0.42590 0.42671 -0.14700
C 	C 	0.91732 0.37160 0.43243 0.06900
H 	H 	0.94730 0.35180 0.42760 0.02200
C 	C 	0.88440 0.34694 0.44541 -0.13400
H 	H 	0.89230 0.31060 0.44920 0.08200
O 	O 	0.92540 0.50020 0.40765 -0.41200
O 	O 	0.57240 0.49700 0.37943 -0.39400
O 	O 	0.51150 0.42720 0.37986 -0.43100
C 	C 	0.63050 0.38730 0.43234 0.07300
C 	C 	0.58460 0.35993 0.42487 -0.13000
H 	H 	0.57050 0.32740 0.43000 0.07900
C 	C 	0.56004 0.38110 0.40966 0.05900
H 	H 	0.52940 0.36290 0.40470 0.02600
C 	C 	0.58130 0.42970 0.40193 -0.13400
C 	C 	0.62710 0.45702 0.40941 0.06400
H 	H 	0.64130 0.48950 0.40420 0.02400
C 	C 	0.65169 0.43580 0.42461 -0.13300
H 	H 	0.68230 0.45410 0.42960 0.07800
C 	C 	0.93960 0.45220 0.41308 0.39400
C 	C 	0.55180 0.45010 0.38595 0.38800
C 	C 	0.88630 0.29170 0.51250 -0.03300
C 	C 	0.90600 0.30700 0.52330 0.01600
O 	O 	0.98150 0.42750 0.40690 -0.41500
O 	O 	0.82160 0.27340 0.50843 -0.21800
C 	C 	0.38110 0.74260 0.24290 0.09800
C 	C 	0.40160 0.75590 0.22390 -0.01400
Cu	Cu	0.54322 0.96532 0.61089 0.90300
C 	C 	0.34623 0.80139 0.53340 0.02100
C 	C 	0.32330 0.82838 0.51884 -0.16100
H 	H 	0.32560 0.86730 0.51790 0.09600
C 	C 	0.29690 0.79720 0.50576 0.17800
C 	C 	0.29347 0.73903 0.50723 -0.04400
C 	C 	0.31639 0.71204 0.52178 0.03700
C 	C 	0.34277 0.74322 0.53487 -0.00400
C 	C 	0.36460 0.71570 0.55019 -0.07000
H 	H 	0.37980 0.73700 0.55930 0.06000
C 	C 	0.36340 0.65750 0.55161 -0.00100
C 	C 	0.33890 0.62630 0.53760 -0.03900
H 	H 	0.33870 0.58730 0.53810 0.04600
C 	C 	0.31590 0.65270 0.52369 -0.06500
H 	H 	0.29890 0.63120 0.51500 0.06200
C 	C 	0.37650 0.83960 0.54732 0.06800
C 	C 	0.43080 0.82780 0.55304 -0.13400
H 	H 	0.45060 0.79780 0.54820 0.07800
C 	C 	0.45545 0.86080 0.56603 0.06700
H 	H 	0.49180 0.85290 0.56990 0.02200
C 	C 	0.42590 0.90552 0.57329 -0.14700
C 	C 	0.37160 0.91732 0.56757 0.06900
H 	H 	0.35180 0.94730 0.57240 0.02200
C 	C 	0.34694 0.88440 0.55459 -0.13400
H 	H 	0.31060 0.89230 0.55080 0.08200
O 	O 	0.50020 0.92540 0.59235 -0.41200
O 	O 	0.49700 0.57240 0.62057 -0.39400
O 	O 	0.42720 0.51150 0.62014 -0.43100
C 	C 	0.38730 0.63050 0.56766 0.07300
C 	C 	0.35993 0.58460 0.57513 -0.13000
H 	H 	0.32740 0.57050 0.57000 0.07900
C 	C 	0.38110 0.56004 0.59034 0.05900
H 	H 	0.36290 0.52940 0.59530 0.02600
C 	C 	0.42970 0.58130 0.59807 -0.13400
C 	C 	0.45702 0.62710 0.59059 0.06400
H 	H 	0.48950 0.64130 0.59580 0.02400
C 	C 	0.43580 0.65169 0.57539 -0.13300
H 	H 	0.45410 0.68230 0.57040 0.07800
C 	C 	0.45220 0.93960 0.58692 0.39400
C 	C 	0.45010 0.55180 0.61405 0.38800
C 	C 	0.29170 0.88630 0.48750 -0.03300
C 	C 	0.30700 0.90600 0.47670 0.01600
O 	O 	0.42750 0.98150 0.59310 -0.41500
O 	O 	0.27340 0.82160 0.49157 -0.21800
C 	C 	0.74260 0.38110 0.75710 0.09800
C 	C 	0.75590 0.40160 0.77610 -0.01400
Cu	Cu	0.04322 0.46532 0.11089 0.90300
C 	C 	0.84623 0.30139 0.03340 0.02100
C 	C 	0.82330 0.32838 0.01884 -0.16100
H 	H 	0.82560 0.36730 0.01790 0.09600
C 	C 	0.79690 0.29720 0.00576 0.17800
C 	C 	0.79347 0.23903 0.00723 -0.04400
C 	C 	0.81639 0.21204 0.02178 0.03700
C 	C 	0.84277 0.24322 0.03487 -0.00400
C 	C 	0.86460 0.21570 0.05019 -0.07000
H 	H 	0.87980 0.23700 0.05930 0.06000
C 	C 	0.86340 0.15750 0.05161 -0.00100
C 	C 	0.83890 0.12630 0.03760 -0.03900
H 	H 	0.83870 0.08730 0.03810 0.04600
C 	C 	0.81590 0.15270 0.02369 -0.06500
H 	H 	0.79890 0.13120 0.01500 0.06200
C 	C 	0.87650 0.33960 0.04732 0.06800
C 	C 	0.93080 0.32780 0.05304 -0.13400
H 	H 	0.95060 0.29780 0.04820 0.07800
C 	C 	0.95545 0.36080 0.06603 0.06800
H 	H 	0.99180 0.35290 0.06990 0.02200
C 	C 	0.92590 0.40552 0.07329 -0.14700
C 	C 	0.87160 0.41732 0.06757 0.06900
H 	H 	0.85180 0.44730 0.07240 0.02200
C 	C 	0.84694 0.38440 0.05459 -0.13400
H 	H 	0.81060 0.39230 0.05080 0.08200
O 	O 	0.00020 0.42540 0.09235 -0.41200
O 	O 	0.99700 0.07240 0.12057 -0.39300
O 	O 	0.92720 0.01150 0.12014 -0.43100
C 	C 	0.88730 0.13050 0.06766 0.07300
C 	C 	0.85993 0.08460 0.07513 -0.13000
H 	H 	0.82740 0.07050 0.07000 0.07900
C 	C 	0.88110 0.06004 0.09034 0.05900
H 	H 	0.86290 0.02940 0.09530 0.02600
C 	C 	0.92970 0.08130 0.09807 -0.13400
C 	C 	0.95702 0.12710 0.09059 0.06400
H 	H 	0.98950 0.14130 0.09580 0.02400
C 	C 	0.93580 0.15169 0.07539 -0.13300
H 	H 	0.95410 0.18230 0.07040 0.07800
C 	C 	0.95220 0.43960 0.08692 0.39400
C 	C 	0.95010 0.05180 0.11405 0.38800
C 	C 	0.79170 0.38630 0.98750 -0.03300
C 	C 	0.80700 0.40600 0.97670 0.01600
O 	O 	0.92750 0.48150 0.09310 -0.41500
O 	O 	0.77340 0.32160 0.99157 -0.21800
C 	C 	0.24260 0.88110 0.25710 0.09800
C 	C 	0.25590 0.90160 0.27610 -0.01400
Cu	Cu	0.95678 0.53468 0.11089 0.90300
C 	C 	0.15377 0.69861 0.03340 0.02100
C 	C 	0.17670 0.67162 0.01884 -0.16100
H 	H 	0.17440 0.63270 0.01790 0.09600
C 	C 	0.20310 0.70280 0.00576 0.17800
C 	C 	0.20653 0.76097 0.00723 -0.04400
C 	C 	0.18361 0.78796 0.02178 0.03700
C 	C 	0.15723 0.75678 0.03487 -0.00400
C 	C 	0.13540 0.78430 0.05019 -0.07000
H 	H 	0.12020 0.76300 0.05930 0.06000
C 	C 	0.13660 0.84250 0.05161 -0.00100
C 	C 	0.16110 0.87370 0.03760 -0.03900
H 	H 	0.16130 0.91270 0.03810 0.04600
C 	C 	0.18410 0.84730 0.02369 -0.06500
H 	H 	0.20110 0.86880 0.01500 0.06200
C 	C 	0.12350 0.66040 0.04732 0.06800
C 	C 	0.06920 0.67220 0.05304 -0.13400
H 	H 	0.04940 0.70220 0.04820 0.07800
C 	C 	0.04455 0.63920 0.06603 0.06800
H 	H 	0.00820 0.64710 0.06990 0.02200
C 	C 	0.07410 0.59448 0.07329 -0.14700
C 	C 	0.12840 0.58268 0.06757 0.06900
H 	H 	0.14820 0.55270 0.07240 0.02200
C 	C 	0.15306 0.61560 0.05459 -0.13400
H 	H 	0.18940 0.60770 0.05080 0.08200
O 	O 	0.99980 0.57460 0.09235 -0.41200
O 	O 	0.00300 0.92760 0.12057 -0.39300
O 	O 	0.07280 0.98850 0.12014 -0.43100
C 	C 	0.11270 0.86950 0.06766 0.07300
C 	C 	0.14007 0.91540 0.07513 -0.13000
H 	H 	0.17260 0.92950 0.07000 0.07900
C 	C 	0.11890 0.93996 0.09034 0.05900
H 	H 	0.13710 0.97060 0.09530 0.02600
C 	C 	0.07030 0.91870 0.09807 -0.13400
C 	C 	0.04298 0.87290 0.09059 0.06400
H 	H 	0.01050 0.85870 0.09580 0.02400
C 	C 	0.06420 0.84831 0.07539 -0.13300
H 	H 	0.04590 0.81770 0.07040 0.07800
C 	C 	0.04780 0.56040 0.08692 0.39400
C 	C 	0.04990 0.94820 0.11405 0.38800
C 	C 	0.20830 0.61370 0.98750 -0.03300
C 	C 	0.19300 0.59400 0.97670 0.01600
O 	O 	0.07250 0.51850 0.09310 -0.41500
O 	O 	0.22660 0.67840 0.99157 -0.21800
C 	C 	0.75740 0.11890 0.25710 0.09800
C 	C 	0.74410 0.09840 0.27610 -0.01400
Cu	Cu	0.45678 0.03468 0.61089 0.90300
C 	C 	0.65377 0.19861 0.53340 0.02100
C 	C 	0.67670 0.17162 0.51884 -0.16100
H 	H 	0.67440 0.13270 0.51790 0.09600
C 	C 	0.70310 0.20280 0.50576 0.17800
C 	C 	0.70653 0.26097 0.50723 -0.04400
C 	C 	0.68361 0.28796 0.52178 0.03700
C 	C 	0.65723 0.25678 0.53487 -0.00400
C 	C 	0.63540 0.28430 0.55019 -0.07000
H 	H 	0.62020 0.26300 0.55930 0.06000
C 	C 	0.63660 0.34250 0.55161 -0.00100
C 	C 	0.66110 0.37370 0.53760 -0.03900
H 	H 	0.66130 0.41270 0.53810 0.04600
C 	C 	0.68410 0.34730 0.52369 -0.06500
H 	H 	0.70110 0.36880 0.51500 0.06200
C 	C 	0.62350 0.16040 0.54732 0.06800
C 	C 	0.56920 0.17220 0.55304 -0.13400
H 	H 	0.54940 0.20220 0.54820 0.07800
C 	C 	0.54455 0.13920 0.56603 0.06700
H 	H 	0.50820 0.14710 0.56990 0.02200
C 	C 	0.57410 0.09448 0.57329 -0.14700
C 	C 	0.62840 0.08268 0.56757 0.06900
H 	H 	0.64820 0.05270 0.57240 0.02200
C 	C 	0.65306 0.11560 0.55459 -0.13400
H 	H 	0.68940 0.10770 0.55080 0.08200
O 	O 	0.49980 0.07460 0.59235 -0.41200
O 	O 	0.50300 0.42760 0.62057 -0.39400
O 	O 	0.57280 0.48850 0.62014 -0.43100
C 	C 	0.61270 0.36950 0.56766 0.07300
C 	C 	0.64007 0.41540 0.57513 -0.13000
H 	H 	0.67260 0.42950 0.57000 0.07900
C 	C 	0.61890 0.43996 0.59034 0.05900
H 	H 	0.63710 0.47060 0.59530 0.02600
C 	C 	0.57030 0.41870 0.59807 -0.13400
C 	C 	0.54298 0.37290 0.59059 0.06400
H 	H 	0.51050 0.35870 0.59580 0.02400
C 	C 	0.56420 0.34831 0.57539 -0.13300
H 	H 	0.54590 0.31770 0.57040 0.07800
C 	C 	0.54780 0.06040 0.58692 0.39400
C 	C 	0.54990 0.44820 0.61405 0.38800
C 	C 	0.70830 0.11370 0.48750 -0.03300
C 	C 	0.69300 0.09400 0.47670 0.01600
O 	O 	0.57250 0.01850 0.59310 -0.41500
O 	O 	0.72660 0.17840 0.49157 -0.21800
C 	C 	0.25740 0.61890 0.75710 0.09800
C 	C 	0.24410 0.59840 0.77610 -0.01400
Cu	Cu	0.46532 0.45678 0.36089 0.90300
C 	C 	0.30139 0.65377 0.28340 0.02100
C 	C 	0.32838 0.67670 0.26884 -0.16100
H 	H 	0.36730 0.67440 0.26790 0.09600
C 	C 	0.29720 0.70310 0.25576 0.17800
C 	C 	0.23903 0.70653 0.25723 -0.04400
C 	C 	0.21204 0.68361 0.27178 0.03700
C 	C 	0.24322 0.65723 0.28487 -0.00400
C 	C 	0.21570 0.63540 0.30019 -0.07000
H 	H 	0.23700 0.62020 0.30930 0.06000
C 	C 	0.15750 0.63660 0.30161 -0.00100
C 	C 	0.12630 0.66110 0.28760 -0.03900
H 	H 	0.08730 0.66130 0.28810 0.04600
C 	C 	0.15270 0.68410 0.27369 -0.06500
H 	H 	0.13120 0.70110 0.26500 0.06200
C 	C 	0.33960 0.62350 0.29732 0.06800
C 	C 	0.32780 0.56920 0.30304 -0.13400
H 	H 	0.29780 0.54940 0.29820 0.07800
C 	C 	0.36080 0.54455 0.31603 0.06700
H 	H 	0.35290 0.50820 0.31990 0.02200
C 	C 	0.40552 0.57410 0.32329 -0.14700
C 	C 	0.41732 0.62840 0.31757 0.06900
H 	H 	0.44730 0.64820 0.32240 0.02200
C 	C 	0.38440 0.65306 0.30459 -0.13400
H 	H 	0.39230 0.68940 0.30080 0.08200
O 	O 	0.42540 0.49980 0.34235 -0.41200
O 	O 	0.07240 0.50300 0.37057 -0.39400
O 	O 	0.01150 0.57280 0.37014 -0.43100
C 	C 	0.13050 0.61270 0.31766 0.07300
C 	C 	0.08460 0.64007 0.32513 -0.13000
H 	H 	0.07050 0.67260 0.32000 0.07900
C 	C 	0.06004 0.61890 0.34034 0.05900
H 	H 	0.02940 0.63710 0.34530 0.02600
C 	C 	0.08130 0.57030 0.34807 -0.13400
C 	C 	0.12710 0.54298 0.34059 0.06400
H 	H 	0.14130 0.51050 0.34580 0.02400
C 	C 	0.15169 0.56420 0.32539 -0.13300
H 	H 	0.18230 0.54590 0.32040 0.07800
C 	C 	0.43960 0.54780 0.33692 0.39400
C 	C 	0.05180 0.54990 0.36405 0.38800
C 	C 	0.38630 0.70830 0.23750 -0.03300
C 	C 	0.40600 0.69300 0.22670 0.01600
O 	O 	0.48150 0.57250 0.34310 -0.41500
O 	O 	0.32160 0.72660 0.24157 -0.21800
C 	C 	0.88110 0.25740 0.50710 0.09800
C 	C 	0.90160 0.24410 0.52610 -0.01400
Cu	Cu	0.96532 0.95678 0.86089 0.90300
C 	C 	0.80139 0.15377 0.78340 0.02100
C 	C 	0.82838 0.17670 0.76884 -0.16100
H 	H 	0.86730 0.17440 0.76790 0.09600
C 	C 	0.79720 0.20310 0.75576 0.17800
C 	C 	0.73903 0.20653 0.75723 -0.04400
C 	C 	0.71204 0.18361 0.77178 0.03700
C 	C 	0.74322 0.15723 0.78487 -0.00400
C 	C 	0.71570 0.13540 0.80019 -0.07000
H 	H 	0.73700 0.12020 0.80930 0.06000
C 	C 	0.65750 0.13660 0.80161 -0.00100
C 	C 	0.62630 0.16110 0.78760 -0.03900
H 	H 	0.58730 0.16130 0.78810 0.04600
C 	C 	0.65270 0.18410 0.77369 -0.06500
H 	H 	0.63120 0.20110 0.76500 0.06200
C 	C 	0.83960 0.12350 0.79732 0.06800
C 	C 	0.82780 0.06920 0.80304 -0.13500
H 	H 	0.79780 0.04940 0.79820 0.07800
C 	C 	0.86080 0.04455 0.81603 0.06800
H 	H 	0.85290 0.00820 0.81990 0.02200
C 	C 	0.90552 0.07410 0.82329 -0.14700
C 	C 	0.91732 0.12840 0.81757 0.06900
H 	H 	0.94730 0.14820 0.82240 0.02200
C 	C 	0.88440 0.15306 0.80459 -0.13400
H 	H 	0.89230 0.18940 0.80080 0.08200
O 	O 	0.92540 0.99980 0.84235 -0.41300
O 	O 	0.57240 0.00300 0.87057 -0.39400
O 	O 	0.51150 0.07280 0.87014 -0.43100
C 	C 	0.63050 0.11270 0.81766 0.07300
C 	C 	0.58460 0.14007 0.82513 -0.13100
H 	H 	0.57050 0.17260 0.82000 0.07900
C 	C 	0.56004 0.11890 0.84034 0.05900
H 	H 	0.52940 0.13710 0.84530 0.02600
C 	C 	0.58130 0.07030 0.84807 -0.13400
C 	C 	0.62710 0.04298 0.84059 0.06400
H 	H 	0.64130 0.01050 0.84580 0.02400
C 	C 	0.65169 0.06420 0.82539 -0.13300
H 	H 	0.68230 0.04590 0.82040 0.07800
C 	C 	0.93960 0.04780 0.83692 0.39500
C 	C 	0.55180 0.04990 0.86405 0.38800
C 	C 	0.88630 0.20830 0.73750 -0.03300
C 	C 	0.90600 0.19300 0.72670 0.01600
O 	O 	0.98150 0.07250 0.84310 -0.41500
O 	O 	0.82160 0.22660 0.74157 -0.21800
C 	C 	0.38110 0.75740 0.00710 0.09800
C 	C 	0.40160 0.74410 0.02610 -0.01400
Cu	Cu	0.03468 0.04322 0.86089 0.90300
C 	C 	0.19861 0.84623 0.78340 0.02100
C 	C 	0.17162 0.82330 0.76884 -0.16100
H 	H 	0.13270 0.82560 0.76790 0.09600
C 	C 	0.20280 0.79690 0.75576 0.17800
C 	C 	0.26097 0.79347 0.75723 -0.04400
C 	C 	0.28796 0.81639 0.77178 0.03700
C 	C 	0.25678 0.84277 0.78487 -0.00400
C 	C 	0.28430 0.86460 0.80019 -0.07000
H 	H 	0.26300 0.87980 0.80930 0.06000
C 	C 	0.34250 0.86340 0.80161 -0.00100
C 	C 	0.37370 0.83890 0.78760 -0.03900
H 	H 	0.41270 0.83870 0.78810 0.04600
C 	C 	0.34730 0.81590 0.77369 -0.06500
H 	H 	0.36880 0.79890 0.76500 0.06200
C 	C 	0.16040 0.87650 0.79732 0.06800
C 	C 	0.17220 0.93080 0.80304 -0.13500
H 	H 	0.20220 0.95060 0.79820 0.07800
C 	C 	0.13920 0.95545 0.81603 0.06800
H 	H 	0.14710 0.99180 0.81990 0.02200
C 	C 	0.09448 0.92590 0.82329 -0.14700
C 	C 	0.08268 0.87160 0.81757 0.06900
H 	H 	0.05270 0.85180 0.82240 0.02200
C 	C 	0.11560 0.84694 0.80459 -0.13400
H 	H 	0.10770 0.81060 0.80080 0.08200
O 	O 	0.07460 0.00020 0.84235 -0.41300
O 	O 	0.42760 0.99700 0.87057 -0.39400
O 	O 	0.48850 0.92720 0.87014 -0.43100
C 	C 	0.36950 0.88730 0.81766 0.07300
C 	C 	0.41540 0.85993 0.82513 -0.13100
H 	H 	0.42950 0.82740 0.82000 0.07900
C 	C 	0.43996 0.88110 0.84034 0.05900
H 	H 	0.47060 0.86290 0.84530 0.02600
C 	C 	0.41870 0.92970 0.84807 -0.13400
C 	C 	0.37290 0.95702 0.84059 0.06400
H 	H 	0.35870 0.98950 0.84580 0.02400
C 	C 	0.34831 0.93580 0.82539 -0.13300
H 	H 	0.31770 0.95410 0.82040 0.07800
C 	C 	0.06040 0.95220 0.83692 0.39500
C 	C 	0.44820 0.95010 0.86405 0.38800
C 	C 	0.11370 0.79170 0.73750 -0.03300
C 	C 	0.09400 0.80700 0.72670 0.01600
O 	O 	0.01850 0.92750 0.84310 -0.41500
O 	O 	0.17840 0.77340 0.74157 -0.21800
C 	C 	0.61890 0.24260 0.00710 0.09800
C 	C 	0.59840 0.25590 0.02610 -0.01400
Cu	Cu	0.53468 0.54322 0.36089 0.90300
C 	C 	0.69861 0.34623 0.28340 0.02100
C 	C 	0.67162 0.32330 0.26884 -0.16100
H 	H 	0.63270 0.32560 0.26790 0.09600
C 	C 	0.70280 0.29690 0.25576 0.17800
C 	C 	0.76097 0.29347 0.25723 -0.04400
C 	C 	0.78796 0.31639 0.27178 0.03700
C 	C 	0.75678 0.34277 0.28487 -0.00400
C 	C 	0.78430 0.36460 0.30019 -0.07000
H 	H 	0.76300 0.37980 0.30930 0.06000
C 	C 	0.84250 0.36340 0.30161 -0.00100
C 	C 	0.87370 0.33890 0.28760 -0.03900
H 	H 	0.91270 0.33870 0.28810 0.04600
C 	C 	0.84730 0.31590 0.27369 -0.06500
H 	H 	0.86880 0.29890 0.26500 0.06200
C 	C 	0.66040 0.37650 0.29732 0.06800
C 	C 	0.67220 0.43080 0.30304 -0.13400
H 	H 	0.70220 0.45060 0.29820 0.07800
C 	C 	0.63920 0.45545 0.31603 0.06700
H 	H 	0.64710 0.49180 0.31990 0.02200
C 	C 	0.59448 0.42590 0.32329 -0.14700
C 	C 	0.58268 0.37160 0.31757 0.06900
H 	H 	0.55270 0.35180 0.32240 0.02200
C 	C 	0.61560 0.34694 0.30459 -0.13400
H 	H 	0.60770 0.31060 0.30080 0.08200
O 	O 	0.57460 0.50020 0.34235 -0.41200
O 	O 	0.92760 0.49700 0.37057 -0.39400
O 	O 	0.98850 0.42720 0.37014 -0.43100
C 	C 	0.86950 0.38730 0.31766 0.07300
C 	C 	0.91540 0.35993 0.32513 -0.13000
H 	H 	0.92950 0.32740 0.32000 0.07900
C 	C 	0.93996 0.38110 0.34034 0.05900
H 	H 	0.97060 0.36290 0.34530 0.02600
C 	C 	0.91870 0.42970 0.34807 -0.13400
C 	C 	0.87290 0.45702 0.34059 0.06400
H 	H 	0.85870 0.48950 0.34580 0.02400
C 	C 	0.84831 0.43580 0.32539 -0.13300
H 	H 	0.81770 0.45410 0.32040 0.07800
C 	C 	0.56040 0.45220 0.33692 0.39400
C 	C 	0.94820 0.45010 0.36405 0.38800
C 	C 	0.61370 0.29170 0.23750 -0.03300
C 	C 	0.59400 0.30700 0.22670 0.01600
O 	O 	0.51850 0.42750 0.34310 -0.41500
O 	O 	0.67840 0.27340 0.24157 -0.21800
C 	C 	0.11890 0.74260 0.50710 0.09800
C 	C 	0.09840 0.75590 0.52610 -0.01400
