data_crystal

_cell_length_a 30.55210
_cell_length_b 30.55210
_cell_length_c 30.55210
_cell_angle_alpha 90.00000
_cell_angle_beta  90.00000
_cell_angle_gamma 90.00000

_symmetry_space_group_name_	'P 1'
_symmetry_space_group_name_H-M	'P 1'

loop_
_symmetry_equiv_pos_as_xyz
  x,y,z

loop_
_atom_site_label
_atom_site_type_symbol
_atom_site_fract_x
_atom_site_fract_y
_atom_site_fract_z
_atom_site_charge
Cu	Cu	-0.00000 0.22846 -0.00000 0.89200
Cu	Cu	-0.00000 0.31419 -0.00000 0.92000
N 	N 	-0.00000 0.38297 -0.00000 -0.21400
C 	C 	-0.00000 0.47579 -0.00000 0.04000
Cu	Cu	-0.00000 0.77154 -0.00000 0.89300
Cu	Cu	-0.00000 0.68581 -0.00000 0.92000
N 	N 	-0.00000 0.61703 -0.00000 -0.21500
C 	C 	-0.00000 0.52421 -0.00000 0.03900
Cu	Cu	-0.00000 -0.00000 0.22846 0.89100
Cu	Cu	0.00000 0.00000 0.31419 0.91900
N 	N 	-0.00000 -0.00000 0.38297 -0.21500
C 	C 	-0.00000 -0.00000 0.47579 0.03900
Cu	Cu	0.00000 -0.00000 0.77154 0.89200
Cu	Cu	-0.00000 -0.00000 0.68581 0.91900
N 	N 	-0.00000 0.00000 0.61703 -0.21500
C 	C 	0.00000 0.00000 0.52421 0.03900
Cu	Cu	0.22846 0.00000 -0.00000 0.89100
Cu	Cu	0.31419 0.00000 -0.00000 0.91900
N 	N 	0.38297 0.00000 -0.00000 -0.21500
C 	C 	0.47579 0.00000 -0.00000 0.03900
Cu	Cu	0.77154 0.00000 -0.00000 0.89200
Cu	Cu	0.68581 0.00000 -0.00000 0.91900
N 	N 	0.61703 0.00000 -0.00000 -0.21500
C 	C 	0.52421 0.00000 -0.00000 0.03900
N 	N 	-0.00000 0.26545 0.26545 -0.24600
H 	H 	0.00000 0.28630 0.28630 0.11900
N 	N 	-0.00000 0.73455 0.26545 -0.24500
H 	H 	-0.00000 0.71370 0.28630 0.12000
N 	N 	-0.00000 0.26545 0.73455 -0.24500
H 	H 	-0.00000 0.28630 0.71370 0.12000
N 	N 	-0.00000 0.73455 0.73455 -0.24500
H 	H 	-0.00000 0.71370 0.71370 0.12000
N 	N 	0.26545 -0.00000 0.26545 -0.24600
H 	H 	0.28630 0.00000 0.28630 0.11900
N 	N 	0.26545 -0.00000 0.73455 -0.24500
H 	H 	0.28630 -0.00000 0.71370 0.12000
N 	N 	0.73455 -0.00000 0.26545 -0.24500
H 	H 	0.71370 0.00000 0.28630 0.12000
N 	N 	0.73455 -0.00000 0.73455 -0.24500
H 	H 	0.71370 -0.00000 0.71370 0.12000
N 	N 	0.26545 0.26545 -0.00000 -0.24600
H 	H 	0.28630 0.28630 -0.00000 0.11900
N 	N 	0.73455 0.26545 -0.00000 -0.24500
H 	H 	0.71370 0.28630 -0.00000 0.12000
N 	N 	0.26545 0.73455 -0.00000 -0.24500
H 	H 	0.28630 0.71370 -0.00000 0.12000
N 	N 	0.73455 0.73455 -0.00000 -0.24500
H 	H 	0.71370 0.71370 -0.00000 0.12000
C 	C 	-0.00000 0.27237 0.08083 0.38300
C 	C 	-0.00000 0.27034 0.12815 -0.11600
C 	C 	-0.00000 0.23141 0.15356 0.01400
H 	H 	-0.00000 0.20420 0.13780 0.04500
C 	C 	-0.00000 0.23212 0.19914 -0.04100
C 	C 	-0.00000 0.27335 0.22407 0.15500
C 	C 	-0.00000 0.30904 0.20069 -0.17900
H 	H 	-0.00000 0.33600 0.21680 0.08500
C 	C 	-0.00000 0.31141 0.15539 0.06200
H 	H 	-0.00000 0.33900 0.14030 0.02100
O 	O 	-0.00000 0.23485 0.06444 -0.41700
O 	O 	-0.00000 0.30861 0.06278 -0.42400
C 	C 	0.00000 0.72763 0.08083 0.38200
C 	C 	-0.00000 0.72966 0.12815 -0.11500
C 	C 	-0.00000 0.76859 0.15356 0.01400
H 	H 	-0.00000 0.79580 0.13780 0.04700
C 	C 	-0.00000 0.76788 0.19914 -0.04000
C 	C 	-0.00000 0.72665 0.22407 0.15500
C 	C 	-0.00000 0.69096 0.20069 -0.17900
H 	H 	-0.00000 0.66400 0.21680 0.08500
C 	C 	-0.00000 0.68859 0.15539 0.06200
H 	H 	-0.00000 0.66100 0.14030 0.02100
O 	O 	-0.00000 0.76515 0.06444 -0.41500
O 	O 	-0.00000 0.69139 0.06278 -0.42400
C 	C 	-0.00000 0.27237 0.91917 0.38100
C 	C 	-0.00000 0.27034 0.87185 -0.11300
C 	C 	-0.00000 0.23141 0.84644 0.01300
H 	H 	-0.00000 0.20420 0.86220 0.04800
C 	C 	-0.00000 0.23212 0.80086 -0.03900
C 	C 	-0.00000 0.27335 0.77593 0.15500
C 	C 	-0.00000 0.30904 0.79931 -0.17800
H 	H 	-0.00000 0.33600 0.78320 0.08600
C 	C 	-0.00000 0.31141 0.84461 0.06200
H 	H 	-0.00000 0.33900 0.85970 0.02300
O 	O 	-0.00000 0.23485 0.93556 -0.40600
O 	O 	-0.00000 0.30861 0.93722 -0.41400
C 	C 	-0.00000 0.72763 0.91917 0.38100
C 	C 	-0.00000 0.72966 0.87185 -0.11200
C 	C 	-0.00000 0.76859 0.84644 0.01400
H 	H 	-0.00000 0.79580 0.86220 0.04900
C 	C 	-0.00000 0.76788 0.80086 -0.03800
C 	C 	-0.00000 0.72665 0.77593 0.15500
C 	C 	-0.00000 0.69096 0.79931 -0.17800
H 	H 	-0.00000 0.66400 0.78320 0.08600
C 	C 	-0.00000 0.68859 0.84461 0.06200
H 	H 	-0.00000 0.66100 0.85970 0.02300
O 	O 	-0.00000 0.76515 0.93556 -0.40500
O 	O 	-0.00000 0.69139 0.93722 -0.41400
C 	C 	0.08083 0.00000 0.27237 0.38300
C 	C 	0.12815 -0.00000 0.27034 -0.11600
C 	C 	0.15356 -0.00000 0.23141 0.01400
H 	H 	0.13780 -0.00000 0.20420 0.04500
C 	C 	0.19914 -0.00000 0.23212 -0.04100
C 	C 	0.22407 0.00000 0.27335 0.15500
C 	C 	0.20069 -0.00000 0.30904 -0.17900
H 	H 	0.21680 -0.00000 0.33600 0.08500
C 	C 	0.15539 0.00000 0.31141 0.06200
H 	H 	0.14030 -0.00000 0.33900 0.02100
O 	O 	0.06444 -0.00000 0.23485 -0.41700
O 	O 	0.06278 -0.00000 0.30861 -0.42400
C 	C 	0.08083 -0.00000 0.72763 0.38200
C 	C 	0.12815 -0.00000 0.72966 -0.11500
C 	C 	0.15356 0.00000 0.76859 0.01400
H 	H 	0.13780 -0.00000 0.79580 0.04700
C 	C 	0.19914 -0.00000 0.76788 -0.04000
C 	C 	0.22407 -0.00000 0.72665 0.15500
C 	C 	0.20069 -0.00000 0.69096 -0.17900
H 	H 	0.21680 -0.00000 0.66400 0.08500
C 	C 	0.15539 0.00000 0.68859 0.06200
H 	H 	0.14030 -0.00000 0.66100 0.02100
O 	O 	0.06444 -0.00000 0.76515 -0.41500
O 	O 	0.06278 -0.00000 0.69139 -0.42400
C 	C 	0.91917 0.00000 0.27237 0.38100
C 	C 	0.87185 -0.00000 0.27034 -0.11300
C 	C 	0.84644 -0.00000 0.23141 0.01300
H 	H 	0.86220 -0.00000 0.20420 0.04800
C 	C 	0.80086 -0.00000 0.23212 -0.03900
C 	C 	0.77593 0.00000 0.27335 0.15500
C 	C 	0.79931 -0.00000 0.30904 -0.17800
H 	H 	0.78320 -0.00000 0.33600 0.08600
C 	C 	0.84461 0.00000 0.31141 0.06200
H 	H 	0.85970 -0.00000 0.33900 0.02300
O 	O 	0.93556 -0.00000 0.23485 -0.40600
O 	O 	0.93722 -0.00000 0.30861 -0.41400
C 	C 	0.91917 -0.00000 0.72763 0.38100
C 	C 	0.87185 -0.00000 0.72966 -0.11200
C 	C 	0.84644 0.00000 0.76859 0.01400
H 	H 	0.86220 -0.00000 0.79580 0.04900
C 	C 	0.80086 -0.00000 0.76788 -0.03800
C 	C 	0.77593 -0.00000 0.72665 0.15500
C 	C 	0.79931 -0.00000 0.69096 -0.17800
H 	H 	0.78320 -0.00000 0.66400 0.08600
C 	C 	0.84461 0.00000 0.68859 0.06200
H 	H 	0.85970 -0.00000 0.66100 0.02300
O 	O 	0.93556 -0.00000 0.76515 -0.40500
O 	O 	0.93722 -0.00000 0.69139 -0.41400
C 	C 	0.27237 0.08083 -0.00000 0.38300
C 	C 	0.27034 0.12815 -0.00000 -0.11600
C 	C 	0.23141 0.15356 -0.00000 0.01400
H 	H 	0.20420 0.13780 -0.00000 0.04500
C 	C 	0.23212 0.19914 -0.00000 -0.04100
C 	C 	0.27335 0.22407 -0.00000 0.15500
C 	C 	0.30904 0.20069 -0.00000 -0.17900
H 	H 	0.33600 0.21680 -0.00000 0.08500
C 	C 	0.31141 0.15539 -0.00000 0.06200
H 	H 	0.33900 0.14030 -0.00000 0.02100
O 	O 	0.23485 0.06444 -0.00000 -0.41700
O 	O 	0.30861 0.06278 -0.00000 -0.42400
C 	C 	0.72763 0.08083 -0.00000 0.38200
C 	C 	0.72966 0.12815 -0.00000 -0.11500
C 	C 	0.76859 0.15356 -0.00000 0.01400
H 	H 	0.79580 0.13780 -0.00000 0.04700
C 	C 	0.76788 0.19914 -0.00000 -0.04000
C 	C 	0.72665 0.22407 -0.00000 0.15500
C 	C 	0.69096 0.20069 -0.00000 -0.17900
H 	H 	0.66400 0.21680 -0.00000 0.08500
C 	C 	0.68859 0.15539 -0.00000 0.06200
H 	H 	0.66100 0.14030 -0.00000 0.02100
O 	O 	0.76515 0.06444 -0.00000 -0.41500
O 	O 	0.69139 0.06278 -0.00000 -0.42400
C 	C 	0.27237 0.91917 -0.00000 0.38100
C 	C 	0.27034 0.87185 -0.00000 -0.11300
C 	C 	0.23141 0.84644 -0.00000 0.01300
H 	H 	0.20420 0.86220 -0.00000 0.04800
C 	C 	0.23212 0.80086 -0.00000 -0.03900
C 	C 	0.27335 0.77593 -0.00000 0.15500
C 	C 	0.30904 0.79931 -0.00000 -0.17800
H 	H 	0.33600 0.78320 -0.00000 0.08600
C 	C 	0.31141 0.84461 -0.00000 0.06200
H 	H 	0.33900 0.85970 -0.00000 0.02300
O 	O 	0.23485 0.93556 -0.00000 -0.40600
O 	O 	0.30861 0.93722 -0.00000 -0.41400
C 	C 	0.72763 0.91917 -0.00000 0.38100
C 	C 	0.72966 0.87185 -0.00000 -0.11200
C 	C 	0.76859 0.84644 -0.00000 0.01400
H 	H 	0.79580 0.86220 -0.00000 0.04900
C 	C 	0.76788 0.80086 -0.00000 -0.03800
C 	C 	0.72665 0.77593 -0.00000 0.15500
C 	C 	0.69096 0.79931 -0.00000 -0.17800
H 	H 	0.66400 0.78320 -0.00000 0.08600
C 	C 	0.68859 0.84461 -0.00000 0.06200
H 	H 	0.66100 0.85970 -0.00000 0.02300
O 	O 	0.76515 0.93556 -0.00000 -0.40500
O 	O 	0.69139 0.93722 -0.00000 -0.41400
C 	C 	0.27237 -0.00000 0.91917 0.38100
C 	C 	0.27034 -0.00000 0.87185 -0.11300
C 	C 	0.23141 0.00000 0.84644 0.01300
H 	H 	0.20420 -0.00000 0.86220 0.04800
C 	C 	0.23212 -0.00000 0.80086 -0.03900
C 	C 	0.27335 -0.00000 0.77593 0.15500
C 	C 	0.30904 -0.00000 0.79931 -0.17800
H 	H 	0.33600 -0.00000 0.78320 0.08600
C 	C 	0.31141 -0.00000 0.84461 0.06200
H 	H 	0.33900 -0.00000 0.85970 0.02300
O 	O 	0.23485 -0.00000 0.93556 -0.40600
O 	O 	0.30861 -0.00000 0.93722 -0.41400
C 	C 	0.72763 -0.00000 0.91917 0.38100
C 	C 	0.72966 -0.00000 0.87185 -0.11200
C 	C 	0.76859 0.00000 0.84644 0.01400
H 	H 	0.79580 -0.00000 0.86220 0.04900
C 	C 	0.76788 -0.00000 0.80086 -0.03800
C 	C 	0.72665 -0.00000 0.77593 0.15500
C 	C 	0.69096 -0.00000 0.79931 -0.17800
H 	H 	0.66400 -0.00000 0.78320 0.08600
C 	C 	0.68859 -0.00000 0.84461 0.06200
H 	H 	0.66100 -0.00000 0.85970 0.02300
O 	O 	0.76515 -0.00000 0.93556 -0.40500
O 	O 	0.69139 -0.00000 0.93722 -0.41400
C 	C 	0.27237 -0.00000 0.08083 0.38300
C 	C 	0.27034 0.00000 0.12815 -0.11600
C 	C 	0.23141 -0.00000 0.15356 0.01400
H 	H 	0.20420 -0.00000 0.13780 0.04500
C 	C 	0.23212 -0.00000 0.19914 -0.04100
C 	C 	0.27335 -0.00000 0.22407 0.15500
C 	C 	0.30904 -0.00000 0.20069 -0.17900
H 	H 	0.33600 -0.00000 0.21680 0.08500
C 	C 	0.31141 -0.00000 0.15539 0.06200
H 	H 	0.33900 -0.00000 0.14030 0.02100
O 	O 	0.23485 -0.00000 0.06444 -0.41700
O 	O 	0.30861 0.00000 0.06278 -0.42400
C 	C 	0.72763 -0.00000 0.08083 0.38200
C 	C 	0.72966 0.00000 0.12815 -0.11500
C 	C 	0.76859 -0.00000 0.15356 0.01400
H 	H 	0.79580 -0.00000 0.13780 0.04700
C 	C 	0.76788 -0.00000 0.19914 -0.04000
C 	C 	0.72665 -0.00000 0.22407 0.15500
C 	C 	0.69096 -0.00000 0.20069 -0.17900
H 	H 	0.66400 -0.00000 0.21680 0.08500
C 	C 	0.68859 -0.00000 0.15539 0.06200
H 	H 	0.66100 -0.00000 0.14030 0.02100
O 	O 	0.76515 -0.00000 0.06444 -0.41500
O 	O 	0.69139 0.00000 0.06278 -0.42400
C 	C 	0.00000 0.08083 0.72763 0.38200
C 	C 	-0.00000 0.12815 0.72966 -0.11500
C 	C 	-0.00000 0.15356 0.76859 0.01400
H 	H 	-0.00000 0.13780 0.79580 0.04700
C 	C 	-0.00000 0.19914 0.76788 -0.04000
C 	C 	-0.00000 0.22407 0.72665 0.15500
C 	C 	-0.00000 0.20069 0.69096 -0.17900
H 	H 	-0.00000 0.21680 0.66400 0.08500
C 	C 	-0.00000 0.15539 0.68859 0.06200
H 	H 	-0.00000 0.14030 0.66100 0.02100
O 	O 	-0.00000 0.06444 0.76515 -0.41500
O 	O 	-0.00000 0.06278 0.69139 -0.42400
C 	C 	-0.00000 0.08083 0.27237 0.38300
C 	C 	-0.00000 0.12815 0.27034 -0.11600
C 	C 	-0.00000 0.15356 0.23141 0.01400
H 	H 	-0.00000 0.13780 0.20420 0.04500
C 	C 	-0.00000 0.19914 0.23212 -0.04100
C 	C 	-0.00000 0.22407 0.27335 0.15500
C 	C 	-0.00000 0.20069 0.30904 -0.17900
H 	H 	-0.00000 0.21680 0.33600 0.08500
C 	C 	-0.00000 0.15539 0.31141 0.06200
H 	H 	-0.00000 0.14030 0.33900 0.02100
O 	O 	-0.00000 0.06444 0.23485 -0.41700
O 	O 	-0.00000 0.06278 0.30861 -0.42400
C 	C 	-0.00000 0.91917 0.72763 0.38100
C 	C 	-0.00000 0.87185 0.72966 -0.11200
C 	C 	-0.00000 0.84644 0.76859 0.01400
H 	H 	-0.00000 0.86220 0.79580 0.04900
C 	C 	-0.00000 0.80086 0.76788 -0.03800
C 	C 	-0.00000 0.77593 0.72665 0.15500
C 	C 	-0.00000 0.79931 0.69096 -0.17800
H 	H 	-0.00000 0.78320 0.66400 0.08600
C 	C 	-0.00000 0.84461 0.68859 0.06200
H 	H 	-0.00000 0.85970 0.66100 0.02300
O 	O 	-0.00000 0.93556 0.76515 -0.40500
O 	O 	-0.00000 0.93722 0.69139 -0.41400
C 	C 	0.00000 0.91917 0.27237 0.38100
C 	C 	-0.00000 0.87185 0.27034 -0.11300
C 	C 	-0.00000 0.84644 0.23141 0.01300
H 	H 	-0.00000 0.86220 0.20420 0.04800
C 	C 	-0.00000 0.80086 0.23212 -0.03900
C 	C 	-0.00000 0.77593 0.27335 0.15500
C 	C 	-0.00000 0.79931 0.30904 -0.17800
H 	H 	-0.00000 0.78320 0.33600 0.08600
C 	C 	-0.00000 0.84461 0.31141 0.06200
H 	H 	-0.00000 0.85970 0.33900 0.02300
O 	O 	-0.00000 0.93556 0.23485 -0.40600
O 	O 	-0.00000 0.93722 0.30861 -0.41400
C 	C 	0.08083 0.27237 -0.00000 0.38300
C 	C 	0.12815 0.27034 -0.00000 -0.11600
C 	C 	0.15356 0.23141 -0.00000 0.01400
H 	H 	0.13780 0.20420 -0.00000 0.04500
C 	C 	0.19914 0.23212 -0.00000 -0.04100
C 	C 	0.22407 0.27335 -0.00000 0.15500
C 	C 	0.20069 0.30904 -0.00000 -0.17900
H 	H 	0.21680 0.33600 -0.00000 0.08500
C 	C 	0.15539 0.31141 -0.00000 0.06200
H 	H 	0.14030 0.33900 -0.00000 0.02100
O 	O 	0.06444 0.23485 -0.00000 -0.41700
O 	O 	0.06278 0.30861 -0.00000 -0.42400
C 	C 	0.08083 0.72763 -0.00000 0.38200
C 	C 	0.12815 0.72966 -0.00000 -0.11500
C 	C 	0.15356 0.76859 -0.00000 0.01400
H 	H 	0.13780 0.79580 -0.00000 0.04700
C 	C 	0.19914 0.76788 -0.00000 -0.04000
C 	C 	0.22407 0.72665 -0.00000 0.15500
C 	C 	0.20069 0.69096 -0.00000 -0.17900
H 	H 	0.21680 0.66400 -0.00000 0.08500
C 	C 	0.15539 0.68859 -0.00000 0.06200
H 	H 	0.14030 0.66100 -0.00000 0.02100
O 	O 	0.06444 0.76515 -0.00000 -0.41500
O 	O 	0.06278 0.69139 -0.00000 -0.42400
C 	C 	0.91917 0.27237 -0.00000 0.38100
C 	C 	0.87185 0.27034 -0.00000 -0.11300
C 	C 	0.84644 0.23141 -0.00000 0.01300
H 	H 	0.86220 0.20420 -0.00000 0.04800
C 	C 	0.80086 0.23212 -0.00000 -0.03900
C 	C 	0.77593 0.27335 -0.00000 0.15500
C 	C 	0.79931 0.30904 -0.00000 -0.17800
H 	H 	0.78320 0.33600 -0.00000 0.08600
C 	C 	0.84461 0.31141 -0.00000 0.06200
H 	H 	0.85970 0.33900 -0.00000 0.02300
O 	O 	0.93556 0.23485 -0.00000 -0.40600
O 	O 	0.93722 0.30861 -0.00000 -0.41400
C 	C 	0.91917 0.72763 -0.00000 0.38100
C 	C 	0.87185 0.72966 -0.00000 -0.11200
C 	C 	0.84644 0.76859 -0.00000 0.01400
H 	H 	0.86220 0.79580 -0.00000 0.04900
C 	C 	0.80086 0.76788 -0.00000 -0.03800
C 	C 	0.77593 0.72665 -0.00000 0.15500
C 	C 	0.79931 0.69096 -0.00000 -0.17800
H 	H 	0.78320 0.66400 -0.00000 0.08600
C 	C 	0.84461 0.68859 -0.00000 0.06200
H 	H 	0.85970 0.66100 -0.00000 0.02300
O 	O 	0.93556 0.76515 -0.00000 -0.40500
O 	O 	0.93722 0.69139 -0.00000 -0.41400
C 	C 	0.03488 0.40558 -0.00000 0.03000
H 	H 	0.06160 0.38910 -0.00000 0.02500
C 	C 	0.03460 0.45110 -0.00000 -0.07400
H 	H 	0.06300 0.46450 -0.00000 0.04500
C 	C 	0.96512 0.59442 -0.00000 0.04700
H 	H 	0.93840 0.61090 -0.00000 0.02400
C 	C 	0.96540 0.54890 -0.00000 -0.05700
H 	H 	0.93700 0.53550 -0.00000 0.04400
C 	C 	0.96512 0.40558 -0.00000 0.04700
H 	H 	0.93840 0.38910 -0.00000 0.02400
C 	C 	0.96540 0.45110 -0.00000 -0.05700
H 	H 	0.93700 0.46450 -0.00000 0.04400
C 	C 	0.03488 0.59442 -0.00000 0.03000
H 	H 	0.06160 0.61090 -0.00000 0.02500
C 	C 	0.03460 0.54890 -0.00000 -0.07400
H 	H 	0.06300 0.53550 -0.00000 0.04500
C 	C 	-0.00000 0.03488 0.40558 0.03000
H 	H 	-0.00000 0.06160 0.38910 0.02500
C 	C 	-0.00000 0.03460 0.45110 -0.07400
H 	H 	-0.00000 0.06300 0.46450 0.04500
C 	C 	-0.00000 0.96512 0.59442 0.04700
H 	H 	-0.00000 0.93840 0.61090 0.02400
C 	C 	-0.00000 0.96540 0.54890 -0.05700
H 	H 	-0.00000 0.93700 0.53550 0.04400
C 	C 	-0.00000 0.96512 0.40558 0.04700
H 	H 	-0.00000 0.93840 0.38910 0.02400
C 	C 	0.00000 0.96540 0.45110 -0.05700
H 	H 	-0.00000 0.93700 0.46450 0.04400
C 	C 	0.00000 0.03488 0.59442 0.03000
H 	H 	-0.00000 0.06160 0.61090 0.02500
C 	C 	-0.00000 0.03460 0.54890 -0.07400
H 	H 	-0.00000 0.06300 0.53550 0.04500
C 	C 	0.40558 0.00000 0.03488 0.03000
H 	H 	0.38910 -0.00000 0.06160 0.02500
C 	C 	0.45110 -0.00000 0.03460 -0.07400
H 	H 	0.46450 -0.00000 0.06300 0.04500
C 	C 	0.59442 -0.00000 0.96512 0.04700
H 	H 	0.61090 -0.00000 0.93840 0.02400
C 	C 	0.54890 -0.00000 0.96540 -0.05700
H 	H 	0.53550 -0.00000 0.93700 0.04400
C 	C 	0.40558 -0.00000 0.96512 0.04700
H 	H 	0.38910 -0.00000 0.93840 0.02400
C 	C 	0.45110 -0.00000 0.96540 -0.05700
H 	H 	0.46450 -0.00000 0.93700 0.04400
C 	C 	0.59442 0.00000 0.03488 0.03000
H 	H 	0.61090 -0.00000 0.06160 0.02500
C 	C 	0.54890 -0.00000 0.03460 -0.07400
H 	H 	0.53550 -0.00000 0.06300 0.04500
C 	C 	0.40558 0.03488 -0.00000 0.03000
H 	H 	0.38910 0.06160 -0.00000 0.02500
C 	C 	0.45110 0.03460 -0.00000 -0.07400
H 	H 	0.46450 0.06300 -0.00000 0.04500
C 	C 	0.59442 0.96512 -0.00000 0.04700
H 	H 	0.61090 0.93840 -0.00000 0.02400
C 	C 	0.54890 0.96540 -0.00000 -0.05700
H 	H 	0.53550 0.93700 -0.00000 0.04400
C 	C 	0.40558 0.96512 -0.00000 0.04700
H 	H 	0.38910 0.93840 -0.00000 0.02400
C 	C 	0.45110 0.96540 -0.00000 -0.05700
H 	H 	0.46450 0.93700 -0.00000 0.04400
C 	C 	0.59442 0.03488 -0.00000 0.03000
H 	H 	0.61090 0.06160 -0.00000 0.02500
C 	C 	0.54890 0.03460 -0.00000 -0.07400
H 	H 	0.53550 0.06300 -0.00000 0.04500
C 	C 	0.03488 -0.00000 0.59442 0.03000
H 	H 	0.06160 -0.00000 0.61090 0.02500
C 	C 	0.03460 0.00000 0.54890 -0.07400
H 	H 	0.06300 0.00000 0.53550 0.04500
C 	C 	0.96512 -0.00000 0.40558 0.04700
H 	H 	0.93840 0.00000 0.38910 0.02400
C 	C 	0.96540 -0.00000 0.45110 -0.05700
H 	H 	0.93700 0.00000 0.46450 0.04400
C 	C 	0.96512 -0.00000 0.59442 0.04700
H 	H 	0.93840 -0.00000 0.61090 0.02400
C 	C 	0.96540 0.00000 0.54890 -0.05700
H 	H 	0.93700 0.00000 0.53550 0.04400
C 	C 	0.03488 -0.00000 0.40558 0.03000
H 	H 	0.06160 0.00000 0.38910 0.02500
C 	C 	0.03460 -0.00000 0.45110 -0.07400
H 	H 	0.06300 0.00000 0.46450 0.04500
C 	C 	-0.00000 0.40558 0.96512 0.04700
H 	H 	-0.00000 0.38910 0.93840 0.02400
C 	C 	0.00000 0.45110 0.96540 -0.05700
H 	H 	-0.00000 0.46450 0.93700 0.04400
C 	C 	0.00000 0.59442 0.03488 0.03000
H 	H 	-0.00000 0.61090 0.06160 0.02500
C 	C 	-0.00000 0.54890 0.03460 -0.07400
H 	H 	-0.00000 0.53550 0.06300 0.04500
C 	C 	-0.00000 0.40558 0.03488 0.03000
H 	H 	-0.00000 0.38910 0.06160 0.02500
C 	C 	-0.00000 0.45110 0.03460 -0.07400
H 	H 	-0.00000 0.46450 0.06300 0.04500
C 	C 	-0.00000 0.59442 0.96512 0.04700
H 	H 	-0.00000 0.61090 0.93840 0.02400
C 	C 	-0.00000 0.54890 0.96540 -0.05700
H 	H 	-0.00000 0.53550 0.93700 0.04400
Cu	Cu	0.50000 0.72846 0.50000 0.89800
Cu	Cu	0.50000 0.81419 0.50000 0.92500
N 	N 	0.50000 0.88297 0.50000 -0.21300
C 	C 	0.50000 0.97579 0.50000 0.12000
Cu	Cu	0.50000 0.27154 0.50000 0.89800
Cu	Cu	0.50000 0.18581 0.50000 0.92500
N 	N 	0.50000 0.11703 0.50000 -0.19800
C 	C 	0.50000 0.02421 0.50000 0.00100
Cu	Cu	0.50000 0.50000 0.72846 0.89800
Cu	Cu	0.50000 0.50000 0.81419 0.92500
N 	N 	0.50000 0.50000 0.88297 -0.21300
C 	C 	0.50000 0.50000 0.97579 0.12000
Cu	Cu	0.50000 0.50000 0.27154 0.89800
Cu	Cu	0.50000 0.50000 0.18581 0.92500
N 	N 	0.50000 0.50000 0.11703 -0.19800
C 	C 	0.50000 0.50000 0.02421 0.00100
Cu	Cu	0.72846 0.50000 0.50000 0.89800
Cu	Cu	0.81419 0.50000 0.50000 0.92500
N 	N 	0.88297 0.50000 0.50000 -0.21300
C 	C 	0.97579 0.50000 0.50000 0.12000
Cu	Cu	0.27154 0.50000 0.50000 0.89800
Cu	Cu	0.18581 0.50000 0.50000 0.92500
N 	N 	0.11703 0.50000 0.50000 -0.19800
C 	C 	0.02421 0.50000 0.50000 0.00100
N 	N 	0.50000 0.76545 0.76545 -0.24700
H 	H 	0.50000 0.78630 0.78630 0.12500
N 	N 	0.50000 0.23455 0.76545 -0.24600
H 	H 	0.50000 0.21370 0.78630 0.12300
N 	N 	0.50000 0.76545 0.23455 -0.24600
H 	H 	0.50000 0.78630 0.21370 0.12300
N 	N 	0.50000 0.23455 0.23455 -0.24600
H 	H 	0.50000 0.21370 0.21370 0.12100
N 	N 	0.76545 0.50000 0.76545 -0.24700
H 	H 	0.78630 0.50000 0.78630 0.12500
N 	N 	0.76545 0.50000 0.23455 -0.24600
H 	H 	0.78630 0.50000 0.21370 0.12300
N 	N 	0.23455 0.50000 0.76545 -0.24600
H 	H 	0.21370 0.50000 0.78630 0.12300
N 	N 	0.23455 0.50000 0.23455 -0.24600
H 	H 	0.21370 0.50000 0.21370 0.12100
N 	N 	0.76545 0.76545 0.50000 -0.24700
H 	H 	0.78630 0.78630 0.50000 0.12500
N 	N 	0.23455 0.76545 0.50000 -0.24600
H 	H 	0.21370 0.78630 0.50000 0.12300
N 	N 	0.76545 0.23455 0.50000 -0.24600
H 	H 	0.78630 0.21370 0.50000 0.12300
N 	N 	0.23455 0.23455 0.50000 -0.24600
H 	H 	0.21370 0.21370 0.50000 0.12100
C 	C 	0.50000 0.77237 0.58083 0.38300
C 	C 	0.50000 0.77034 0.62815 -0.11400
C 	C 	0.50000 0.73141 0.65356 0.01500
H 	H 	0.50000 0.70420 0.63780 0.04700
C 	C 	0.50000 0.73212 0.69914 -0.03900
C 	C 	0.50000 0.77335 0.72407 0.15900
C 	C 	0.50000 0.80904 0.70069 -0.18000
H 	H 	0.50000 0.83600 0.71680 0.09100
C 	C 	0.50000 0.81141 0.65539 0.06500
H 	H 	0.50000 0.83900 0.64030 0.02300
O 	O 	0.50000 0.73485 0.56444 -0.41200
O 	O 	0.50000 0.80861 0.56278 -0.42000
C 	C 	0.50000 0.22763 0.58083 0.38300
C 	C 	0.50000 0.22966 0.62815 -0.11400
C 	C 	0.50000 0.26859 0.65356 0.01500
H 	H 	0.50000 0.29580 0.63780 0.04700
C 	C 	0.50000 0.26788 0.69914 -0.03900
C 	C 	0.50000 0.22665 0.72407 0.15700
C 	C 	0.50000 0.19096 0.70069 -0.17900
H 	H 	0.50000 0.16400 0.71680 0.08700
C 	C 	0.50000 0.18859 0.65539 0.06300
H 	H 	0.50000 0.16100 0.64030 0.02100
O 	O 	0.50000 0.26515 0.56444 -0.41200
O 	O 	0.50000 0.19139 0.56278 -0.42100
C 	C 	0.50000 0.77237 0.41917 0.38300
C 	C 	0.50000 0.77034 0.37185 -0.11400
C 	C 	0.50000 0.73141 0.34644 0.01500
H 	H 	0.50000 0.70420 0.36220 0.04700
C 	C 	0.50000 0.73212 0.30086 -0.03900
C 	C 	0.50000 0.77335 0.27593 0.15800
C 	C 	0.50000 0.80904 0.29931 -0.17900
H 	H 	0.50000 0.83600 0.28320 0.09000
C 	C 	0.50000 0.81141 0.34461 0.06400
H 	H 	0.50000 0.83900 0.35970 0.02300
O 	O 	0.50000 0.73485 0.43556 -0.41200
O 	O 	0.50000 0.80861 0.43722 -0.42000
C 	C 	0.50000 0.22763 0.41917 0.38300
C 	C 	0.50000 0.22966 0.37185 -0.11400
C 	C 	0.50000 0.26859 0.34644 0.01400
H 	H 	0.50000 0.29580 0.36220 0.04700
C 	C 	0.50000 0.26788 0.30086 -0.03900
C 	C 	0.50000 0.22665 0.27593 0.15600
C 	C 	0.50000 0.19096 0.29931 -0.17900
H 	H 	0.50000 0.16400 0.28320 0.08600
C 	C 	0.50000 0.18859 0.34461 0.06300
H 	H 	0.50000 0.16100 0.35970 0.02100
O 	O 	0.50000 0.26515 0.43556 -0.41200
O 	O 	0.50000 0.19139 0.43722 -0.42100
C 	C 	0.58083 0.50000 0.77237 0.38300
C 	C 	0.62815 0.50000 0.77034 -0.11400
C 	C 	0.65356 0.50000 0.73141 0.01500
H 	H 	0.63780 0.50000 0.70420 0.04700
C 	C 	0.69914 0.50000 0.73212 -0.03900
C 	C 	0.72407 0.50000 0.77335 0.15900
C 	C 	0.70069 0.50000 0.80904 -0.18000
H 	H 	0.71680 0.50000 0.83600 0.09100
C 	C 	0.65539 0.50000 0.81141 0.06500
H 	H 	0.64030 0.50000 0.83900 0.02300
O 	O 	0.56444 0.50000 0.73485 -0.41200
O 	O 	0.56278 0.50000 0.80861 -0.42000
C 	C 	0.58083 0.50000 0.22763 0.38300
C 	C 	0.62815 0.50000 0.22966 -0.11400
C 	C 	0.65356 0.50000 0.26859 0.01500
H 	H 	0.63780 0.50000 0.29580 0.04700
C 	C 	0.69914 0.50000 0.26788 -0.03900
C 	C 	0.72407 0.50000 0.22665 0.15700
C 	C 	0.70069 0.50000 0.19096 -0.17900
H 	H 	0.71680 0.50000 0.16400 0.08700
C 	C 	0.65539 0.50000 0.18859 0.06300
H 	H 	0.64030 0.50000 0.16100 0.02100
O 	O 	0.56444 0.50000 0.26515 -0.41200
O 	O 	0.56278 0.50000 0.19139 -0.42100
C 	C 	0.41917 0.50000 0.77237 0.38300
C 	C 	0.37185 0.50000 0.77034 -0.11400
C 	C 	0.34644 0.50000 0.73141 0.01500
H 	H 	0.36220 0.50000 0.70420 0.04700
C 	C 	0.30086 0.50000 0.73212 -0.03900
C 	C 	0.27593 0.50000 0.77335 0.15800
C 	C 	0.29931 0.50000 0.80904 -0.17900
H 	H 	0.28320 0.50000 0.83600 0.09000
C 	C 	0.34461 0.50000 0.81141 0.06400
H 	H 	0.35970 0.50000 0.83900 0.02300
O 	O 	0.43556 0.50000 0.73485 -0.41200
O 	O 	0.43722 0.50000 0.80861 -0.42000
C 	C 	0.41917 0.50000 0.22763 0.38300
C 	C 	0.37185 0.50000 0.22966 -0.11400
C 	C 	0.34644 0.50000 0.26859 0.01400
H 	H 	0.36220 0.50000 0.29580 0.04700
C 	C 	0.30086 0.50000 0.26788 -0.03900
C 	C 	0.27593 0.50000 0.22665 0.15600
C 	C 	0.29931 0.50000 0.19096 -0.17900
H 	H 	0.28320 0.50000 0.16400 0.08600
C 	C 	0.34461 0.50000 0.18859 0.06300
H 	H 	0.35970 0.50000 0.16100 0.02100
O 	O 	0.43556 0.50000 0.26515 -0.41200
O 	O 	0.43722 0.50000 0.19139 -0.42100
C 	C 	0.77237 0.58083 0.50000 0.38300
C 	C 	0.77034 0.62815 0.50000 -0.11400
C 	C 	0.73141 0.65356 0.50000 0.01500
H 	H 	0.70420 0.63780 0.50000 0.04700
C 	C 	0.73212 0.69914 0.50000 -0.03900
C 	C 	0.77335 0.72407 0.50000 0.15900
C 	C 	0.80904 0.70069 0.50000 -0.18000
H 	H 	0.83600 0.71680 0.50000 0.09100
C 	C 	0.81141 0.65539 0.50000 0.06500
H 	H 	0.83900 0.64030 0.50000 0.02300
O 	O 	0.73485 0.56444 0.50000 -0.41200
O 	O 	0.80861 0.56278 0.50000 -0.42000
C 	C 	0.22763 0.58083 0.50000 0.38300
C 	C 	0.22966 0.62815 0.50000 -0.11400
C 	C 	0.26859 0.65356 0.50000 0.01500
H 	H 	0.29580 0.63780 0.50000 0.04700
C 	C 	0.26788 0.69914 0.50000 -0.03900
C 	C 	0.22665 0.72407 0.50000 0.15700
C 	C 	0.19096 0.70069 0.50000 -0.17900
H 	H 	0.16400 0.71680 0.50000 0.08700
C 	C 	0.18859 0.65539 0.50000 0.06300
H 	H 	0.16100 0.64030 0.50000 0.02100
O 	O 	0.26515 0.56444 0.50000 -0.41200
O 	O 	0.19139 0.56278 0.50000 -0.42100
C 	C 	0.77237 0.41917 0.50000 0.38300
C 	C 	0.77034 0.37185 0.50000 -0.11400
C 	C 	0.73141 0.34644 0.50000 0.01500
H 	H 	0.70420 0.36220 0.50000 0.04700
C 	C 	0.73212 0.30086 0.50000 -0.03900
C 	C 	0.77335 0.27593 0.50000 0.15800
C 	C 	0.80904 0.29931 0.50000 -0.17900
H 	H 	0.83600 0.28320 0.50000 0.09000
C 	C 	0.81141 0.34461 0.50000 0.06400
H 	H 	0.83900 0.35970 0.50000 0.02300
O 	O 	0.73485 0.43556 0.50000 -0.41200
O 	O 	0.80861 0.43722 0.50000 -0.42000
C 	C 	0.22763 0.41917 0.50000 0.38300
C 	C 	0.22966 0.37185 0.50000 -0.11400
C 	C 	0.26859 0.34644 0.50000 0.01400
H 	H 	0.29580 0.36220 0.50000 0.04700
C 	C 	0.26788 0.30086 0.50000 -0.03900
C 	C 	0.22665 0.27593 0.50000 0.15600
C 	C 	0.19096 0.29931 0.50000 -0.17900
H 	H 	0.16400 0.28320 0.50000 0.08600
C 	C 	0.18859 0.34461 0.50000 0.06300
H 	H 	0.16100 0.35970 0.50000 0.02100
O 	O 	0.26515 0.43556 0.50000 -0.41200
O 	O 	0.19139 0.43722 0.50000 -0.42100
C 	C 	0.77237 0.50000 0.41917 0.38300
C 	C 	0.77034 0.50000 0.37185 -0.11400
C 	C 	0.73141 0.50000 0.34644 0.01500
H 	H 	0.70420 0.50000 0.36220 0.04700
C 	C 	0.73212 0.50000 0.30086 -0.03900
C 	C 	0.77335 0.50000 0.27593 0.15800
C 	C 	0.80904 0.50000 0.29931 -0.17900
H 	H 	0.83600 0.50000 0.28320 0.09000
C 	C 	0.81141 0.50000 0.34461 0.06400
H 	H 	0.83900 0.50000 0.35970 0.02300
O 	O 	0.73485 0.50000 0.43556 -0.41200
O 	O 	0.80861 0.50000 0.43722 -0.42000
C 	C 	0.22763 0.50000 0.41917 0.38300
C 	C 	0.22966 0.50000 0.37185 -0.11400
C 	C 	0.26859 0.50000 0.34644 0.01400
H 	H 	0.29580 0.50000 0.36220 0.04700
C 	C 	0.26788 0.50000 0.30086 -0.03900
C 	C 	0.22665 0.50000 0.27593 0.15600
C 	C 	0.19096 0.50000 0.29931 -0.17900
H 	H 	0.16400 0.50000 0.28320 0.08600
C 	C 	0.18859 0.50000 0.34461 0.06300
H 	H 	0.16100 0.50000 0.35970 0.02100
O 	O 	0.26515 0.50000 0.43556 -0.41200
O 	O 	0.19139 0.50000 0.43722 -0.42100
C 	C 	0.77237 0.50000 0.58083 0.38300
C 	C 	0.77034 0.50000 0.62815 -0.11400
C 	C 	0.73141 0.50000 0.65356 0.01500
H 	H 	0.70420 0.50000 0.63780 0.04700
C 	C 	0.73212 0.50000 0.69914 -0.03900
C 	C 	0.77335 0.50000 0.72407 0.15900
C 	C 	0.80904 0.50000 0.70069 -0.18000
H 	H 	0.83600 0.50000 0.71680 0.09100
C 	C 	0.81141 0.50000 0.65539 0.06500
H 	H 	0.83900 0.50000 0.64030 0.02300
O 	O 	0.73485 0.50000 0.56444 -0.41200
O 	O 	0.80861 0.50000 0.56278 -0.42000
C 	C 	0.22763 0.50000 0.58083 0.38300
C 	C 	0.22966 0.50000 0.62815 -0.11400
C 	C 	0.26859 0.50000 0.65356 0.01500
H 	H 	0.29580 0.50000 0.63780 0.04700
C 	C 	0.26788 0.50000 0.69914 -0.03900
C 	C 	0.22665 0.50000 0.72407 0.15700
C 	C 	0.19096 0.50000 0.70069 -0.17900
H 	H 	0.16400 0.50000 0.71680 0.08700
C 	C 	0.18859 0.50000 0.65539 0.06300
H 	H 	0.16100 0.50000 0.64030 0.02100
O 	O 	0.26515 0.50000 0.56444 -0.41200
O 	O 	0.19139 0.50000 0.56278 -0.42100
C 	C 	0.50000 0.58083 0.22763 0.38300
C 	C 	0.50000 0.62815 0.22966 -0.11400
C 	C 	0.50000 0.65356 0.26859 0.01500
H 	H 	0.50000 0.63780 0.29580 0.04700
C 	C 	0.50000 0.69914 0.26788 -0.03900
C 	C 	0.50000 0.72407 0.22665 0.15700
C 	C 	0.50000 0.70069 0.19096 -0.17900
H 	H 	0.50000 0.71680 0.16400 0.08700
C 	C 	0.50000 0.65539 0.18859 0.06300
H 	H 	0.50000 0.64030 0.16100 0.02100
O 	O 	0.50000 0.56444 0.26515 -0.41200
O 	O 	0.50000 0.56278 0.19139 -0.42100
C 	C 	0.50000 0.58083 0.77237 0.38300
C 	C 	0.50000 0.62815 0.77034 -0.11400
C 	C 	0.50000 0.65356 0.73141 0.01500
H 	H 	0.50000 0.63780 0.70420 0.04700
C 	C 	0.50000 0.69914 0.73212 -0.03900
C 	C 	0.50000 0.72407 0.77335 0.15900
C 	C 	0.50000 0.70069 0.80904 -0.18000
H 	H 	0.50000 0.71680 0.83600 0.09100
C 	C 	0.50000 0.65539 0.81141 0.06500
H 	H 	0.50000 0.64030 0.83900 0.02300
O 	O 	0.50000 0.56444 0.73485 -0.41200
O 	O 	0.50000 0.56278 0.80861 -0.42000
C 	C 	0.50000 0.41917 0.22763 0.38300
C 	C 	0.50000 0.37185 0.22966 -0.11400
C 	C 	0.50000 0.34644 0.26859 0.01400
H 	H 	0.50000 0.36220 0.29580 0.04700
C 	C 	0.50000 0.30086 0.26788 -0.03900
C 	C 	0.50000 0.27593 0.22665 0.15600
C 	C 	0.50000 0.29931 0.19096 -0.17900
H 	H 	0.50000 0.28320 0.16400 0.08600
C 	C 	0.50000 0.34461 0.18859 0.06300
H 	H 	0.50000 0.35970 0.16100 0.02100
O 	O 	0.50000 0.43556 0.26515 -0.41200
O 	O 	0.50000 0.43722 0.19139 -0.42100
C 	C 	0.50000 0.41917 0.77237 0.38300
C 	C 	0.50000 0.37185 0.77034 -0.11400
C 	C 	0.50000 0.34644 0.73141 0.01500
H 	H 	0.50000 0.36220 0.70420 0.04700
C 	C 	0.50000 0.30086 0.73212 -0.03900
C 	C 	0.50000 0.27593 0.77335 0.15800
C 	C 	0.50000 0.29931 0.80904 -0.17900
H 	H 	0.50000 0.28320 0.83600 0.09000
C 	C 	0.50000 0.34461 0.81141 0.06400
H 	H 	0.50000 0.35970 0.83900 0.02300
O 	O 	0.50000 0.43556 0.73485 -0.41200
O 	O 	0.50000 0.43722 0.80861 -0.42000
C 	C 	0.58083 0.77237 0.50000 0.38300
C 	C 	0.62815 0.77034 0.50000 -0.11400
C 	C 	0.65356 0.73141 0.50000 0.01500
H 	H 	0.63780 0.70420 0.50000 0.04700
C 	C 	0.69914 0.73212 0.50000 -0.03900
C 	C 	0.72407 0.77335 0.50000 0.15900
C 	C 	0.70069 0.80904 0.50000 -0.18000
H 	H 	0.71680 0.83600 0.50000 0.09100
C 	C 	0.65539 0.81141 0.50000 0.06500
H 	H 	0.64030 0.83900 0.50000 0.02300
O 	O 	0.56444 0.73485 0.50000 -0.41200
O 	O 	0.56278 0.80861 0.50000 -0.42000
C 	C 	0.58083 0.22763 0.50000 0.38300
C 	C 	0.62815 0.22966 0.50000 -0.11400
C 	C 	0.65356 0.26859 0.50000 0.01500
H 	H 	0.63780 0.29580 0.50000 0.04700
C 	C 	0.69914 0.26788 0.50000 -0.03900
C 	C 	0.72407 0.22665 0.50000 0.15700
C 	C 	0.70069 0.19096 0.50000 -0.17900
H 	H 	0.71680 0.16400 0.50000 0.08700
C 	C 	0.65539 0.18859 0.50000 0.06300
H 	H 	0.64030 0.16100 0.50000 0.02100
O 	O 	0.56444 0.26515 0.50000 -0.41200
O 	O 	0.56278 0.19139 0.50000 -0.42100
C 	C 	0.41917 0.77237 0.50000 0.38300
C 	C 	0.37185 0.77034 0.50000 -0.11400
C 	C 	0.34644 0.73141 0.50000 0.01500
H 	H 	0.36220 0.70420 0.50000 0.04700
C 	C 	0.30086 0.73212 0.50000 -0.03900
C 	C 	0.27593 0.77335 0.50000 0.15800
C 	C 	0.29931 0.80904 0.50000 -0.17900
H 	H 	0.28320 0.83600 0.50000 0.09000
C 	C 	0.34461 0.81141 0.50000 0.06400
H 	H 	0.35970 0.83900 0.50000 0.02300
O 	O 	0.43556 0.73485 0.50000 -0.41200
O 	O 	0.43722 0.80861 0.50000 -0.42000
C 	C 	0.41917 0.22763 0.50000 0.38300
C 	C 	0.37185 0.22966 0.50000 -0.11400
C 	C 	0.34644 0.26859 0.50000 0.01400
H 	H 	0.36220 0.29580 0.50000 0.04700
C 	C 	0.30086 0.26788 0.50000 -0.03900
C 	C 	0.27593 0.22665 0.50000 0.15600
C 	C 	0.29931 0.19096 0.50000 -0.17900
H 	H 	0.28320 0.16400 0.50000 0.08600
C 	C 	0.34461 0.18859 0.50000 0.06300
H 	H 	0.35970 0.16100 0.50000 0.02100
O 	O 	0.43556 0.26515 0.50000 -0.41200
O 	O 	0.43722 0.19139 0.50000 -0.42100
C 	C 	0.53488 0.90558 0.50000 0.04700
H 	H 	0.56160 0.88910 0.50000 0.02300
C 	C 	0.53460 0.95110 0.50000 -0.09300
H 	H 	0.56300 0.96450 0.50000 0.05900
C 	C 	0.46512 0.09442 0.50000 0.02800
H 	H 	0.43840 0.11090 0.50000 0.02700
C 	C 	0.46540 0.04890 0.50000 -0.05400
H 	H 	0.43700 0.03550 0.50000 0.03600
C 	C 	0.46512 0.90558 0.50000 0.04700
H 	H 	0.43840 0.88910 0.50000 0.02300
C 	C 	0.46540 0.95110 0.50000 -0.09300
H 	H 	0.43700 0.96450 0.50000 0.05900
C 	C 	0.53488 0.09442 0.50000 0.02800
H 	H 	0.56160 0.11090 0.50000 0.02700
C 	C 	0.53460 0.04890 0.50000 -0.05400
H 	H 	0.56300 0.03550 0.50000 0.03700
C 	C 	0.50000 0.53488 0.90558 0.04700
H 	H 	0.50000 0.56160 0.88910 0.02300
C 	C 	0.50000 0.53460 0.95110 -0.09300
H 	H 	0.50000 0.56300 0.96450 0.05900
C 	C 	0.50000 0.46512 0.09442 0.02800
H 	H 	0.50000 0.43840 0.11090 0.02700
C 	C 	0.50000 0.46540 0.04890 -0.05400
H 	H 	0.50000 0.43700 0.03550 0.03600
C 	C 	0.50000 0.46512 0.90558 0.04700
H 	H 	0.50000 0.43840 0.88910 0.02300
C 	C 	0.50000 0.46540 0.95110 -0.09300
H 	H 	0.50000 0.43700 0.96450 0.05900
C 	C 	0.50000 0.53488 0.09442 0.02800
H 	H 	0.50000 0.56160 0.11090 0.02700
C 	C 	0.50000 0.53460 0.04890 -0.05400
H 	H 	0.50000 0.56300 0.03550 0.03700
C 	C 	0.90558 0.50000 0.53488 0.04700
H 	H 	0.88910 0.50000 0.56160 0.02300
C 	C 	0.95110 0.50000 0.53460 -0.09300
H 	H 	0.96450 0.50000 0.56300 0.05900
C 	C 	0.09442 0.50000 0.46512 0.02800
H 	H 	0.11090 0.50000 0.43840 0.02700
C 	C 	0.04890 0.50000 0.46540 -0.05400
H 	H 	0.03550 0.50000 0.43700 0.03600
C 	C 	0.90558 0.50000 0.46512 0.04700
H 	H 	0.88910 0.50000 0.43840 0.02300
C 	C 	0.95110 0.50000 0.46540 -0.09300
H 	H 	0.96450 0.50000 0.43700 0.05900
C 	C 	0.09442 0.50000 0.53488 0.02800
H 	H 	0.11090 0.50000 0.56160 0.02700
C 	C 	0.04890 0.50000 0.53460 -0.05400
H 	H 	0.03550 0.50000 0.56300 0.03700
C 	C 	0.90558 0.53488 0.50000 0.04700
H 	H 	0.88910 0.56160 0.50000 0.02300
C 	C 	0.95110 0.53460 0.50000 -0.09300
H 	H 	0.96450 0.56300 0.50000 0.05900
C 	C 	0.09442 0.46512 0.50000 0.02800
H 	H 	0.11090 0.43840 0.50000 0.02700
C 	C 	0.04890 0.46540 0.50000 -0.05400
H 	H 	0.03550 0.43700 0.50000 0.03600
C 	C 	0.90558 0.46512 0.50000 0.04700
H 	H 	0.88910 0.43840 0.50000 0.02300
C 	C 	0.95110 0.46540 0.50000 -0.09300
H 	H 	0.96450 0.43700 0.50000 0.05900
C 	C 	0.09442 0.53488 0.50000 0.02800
H 	H 	0.11090 0.56160 0.50000 0.02700
C 	C 	0.04890 0.53460 0.50000 -0.05400
H 	H 	0.03550 0.56300 0.50000 0.03700
C 	C 	0.53488 0.50000 0.09442 0.02800
H 	H 	0.56160 0.50000 0.11090 0.02700
C 	C 	0.53460 0.50000 0.04890 -0.05400
H 	H 	0.56300 0.50000 0.03550 0.03700
C 	C 	0.46512 0.50000 0.90558 0.04700
H 	H 	0.43840 0.50000 0.88910 0.02300
C 	C 	0.46540 0.50000 0.95110 -0.09300
H 	H 	0.43700 0.50000 0.96450 0.05900
C 	C 	0.46512 0.50000 0.09442 0.02800
H 	H 	0.43840 0.50000 0.11090 0.02700
C 	C 	0.46540 0.50000 0.04890 -0.05400
H 	H 	0.43700 0.50000 0.03550 0.03600
C 	C 	0.53488 0.50000 0.90558 0.04700
H 	H 	0.56160 0.50000 0.88910 0.02300
C 	C 	0.53460 0.50000 0.95110 -0.09300
H 	H 	0.56300 0.50000 0.96450 0.05900
C 	C 	0.50000 0.90558 0.46512 0.04700
H 	H 	0.50000 0.88910 0.43840 0.02300
C 	C 	0.50000 0.95110 0.46540 -0.09300
H 	H 	0.50000 0.96450 0.43700 0.05900
C 	C 	0.50000 0.09442 0.53488 0.02800
H 	H 	0.50000 0.11090 0.56160 0.02700
C 	C 	0.50000 0.04890 0.53460 -0.05400
H 	H 	0.50000 0.03550 0.56300 0.03700
C 	C 	0.50000 0.90558 0.53488 0.04700
H 	H 	0.50000 0.88910 0.56160 0.02300
C 	C 	0.50000 0.95110 0.53460 -0.09300
H 	H 	0.50000 0.96450 0.56300 0.05900
C 	C 	0.50000 0.09442 0.46512 0.02800
H 	H 	0.50000 0.11090 0.43840 0.02700
C 	C 	0.50000 0.04890 0.46540 -0.05400
H 	H 	0.50000 0.03550 0.43700 0.03600
