data_crystal

_cell_length_a 20.75700
_cell_length_b 20.75700
_cell_length_c 20.75700
_cell_angle_alpha 90.00000
_cell_angle_beta  90.00000
_cell_angle_gamma 90.00000

_symmetry_space_group_name_	'P 1'
_symmetry_space_group_name_H-M	'P 1'

loop_
_symmetry_equiv_pos_as_xyz
  x,y,z

loop_
_atom_site_label
_atom_site_type_symbol
_atom_site_fract_x
_atom_site_fract_y
_atom_site_fract_z
_atom_site_charge
Zr	Zr	0.11929 0.00000 -0.00000 3.26500
Zr	Zr	0.11929 0.50000 0.50000 3.31400
Zr	Zr	0.61929 -0.00000 0.50000 3.22700
Zr	Zr	0.61929 0.50000 -0.00000 3.22700
Zr	Zr	0.88071 0.00000 -0.00000 3.14000
Zr	Zr	0.88071 0.50000 0.50000 3.18400
Zr	Zr	0.38071 -0.00000 0.50000 3.22800
Zr	Zr	0.38071 0.50000 -0.00000 3.22800
Zr	Zr	0.00000 0.11929 -0.00000 3.26400
Zr	Zr	-0.00000 0.61929 0.50000 3.22700
Zr	Zr	0.50000 0.11929 0.50000 3.31300
Zr	Zr	0.50000 0.61929 -0.00000 3.22700
Zr	Zr	-0.00000 0.88071 -0.00000 3.14000
Zr	Zr	0.00000 0.38071 0.50000 3.22800
Zr	Zr	0.50000 0.88071 0.50000 3.18400
Zr	Zr	0.50000 0.38071 -0.00000 3.22800
Zr	Zr	0.00000 0.00000 0.11929 3.26400
Zr	Zr	-0.00000 0.50000 0.61929 3.22700
Zr	Zr	0.50000 -0.00000 0.61929 3.22700
Zr	Zr	0.50000 0.50000 0.11929 3.31300
Zr	Zr	-0.00000 -0.00000 0.88071 3.14000
Zr	Zr	0.00000 0.50000 0.38071 3.22800
Zr	Zr	0.50000 -0.00000 0.38071 3.22800
Zr	Zr	0.50000 0.50000 0.88071 3.18400
O 	O 	0.17084 0.09384 -0.00000 0.57200
C 	C 	0.18580 0.26690 -0.00000 -0.08800
H 	H 	0.14250 0.27850 -0.00000 0.11600
O 	O 	0.19400 0.08000 -0.00000 -1.02000
O 	O 	0.17084 0.59384 0.50000 0.68400
C 	C 	0.18580 0.76690 0.50000 -0.04900
H 	H 	0.14250 0.77850 0.50000 0.18100
O 	O 	0.19400 0.58000 0.50000 -0.97400
O 	O 	0.67084 0.09384 0.50000 0.98800
C 	C 	0.68580 0.26690 0.50000 -0.04600
H 	H 	0.64250 0.27850 0.50000 0.16200
O 	O 	0.69400 0.08000 0.50000 -1.29000
O 	O 	0.67084 0.59384 -0.00000 0.71700
C 	C 	0.68580 0.76690 -0.00000 -0.01500
H 	H 	0.64250 0.77850 -0.00000 0.13200
O 	O 	0.69400 0.58000 -0.00000 -1.09300
O 	O 	0.82916 0.90616 -0.00000 1.05500
C 	C 	0.81420 0.73310 -0.00000 -0.29000
H 	H 	0.85750 0.72150 -0.00000 0.27000
O 	O 	0.80600 0.92000 -0.00000 -1.21700
O 	O 	0.82916 0.40616 0.50000 1.43200
C 	C 	0.81420 0.23310 0.50000 -0.21900
H 	H 	0.85750 0.22150 0.50000 0.25500
O 	O 	0.80600 0.42000 0.50000 -1.61200
O 	O 	0.32916 0.90616 0.50000 0.64900
C 	C 	0.31420 0.73310 0.50000 -0.23500
H 	H 	0.35750 0.72150 0.50000 0.26300
O 	O 	0.30600 0.92000 0.50000 -0.78700
O 	O 	0.32916 0.40616 -0.00000 0.65400
C 	C 	0.31420 0.23310 -0.00000 -0.17600
H 	H 	0.35750 0.22150 -0.00000 0.15600
O 	O 	0.30600 0.42000 -0.00000 -1.03800
O 	O 	0.82916 0.09384 -0.00000 1.54900
C 	C 	0.81420 0.26690 -0.00000 -0.18000
H 	H 	0.85750 0.27850 -0.00000 0.18600
O 	O 	0.80600 0.08000 -0.00000 -1.87000
O 	O 	0.82916 0.59384 0.50000 1.75600
C 	C 	0.81420 0.76690 0.50000 -0.13900
H 	H 	0.85750 0.77850 0.50000 0.24200
O 	O 	0.80600 0.58000 0.50000 -1.92200
O 	O 	0.32916 0.09384 0.50000 1.00200
C 	C 	0.31420 0.26690 0.50000 -0.12600
H 	H 	0.35750 0.27850 0.50000 0.18200
O 	O 	0.30600 0.08000 0.50000 -1.30700
O 	O 	0.32916 0.59384 -0.00000 0.83300
C 	C 	0.31420 0.76690 -0.00000 -0.09400
H 	H 	0.35750 0.77850 -0.00000 0.15000
O 	O 	0.30600 0.58000 -0.00000 -1.20700
O 	O 	0.17084 0.90616 -0.00000 0.09100
C 	C 	0.18580 0.73310 -0.00000 -0.20100
H 	H 	0.14250 0.72150 -0.00000 0.20400
O 	O 	0.19400 0.92000 -0.00000 -0.37400
O 	O 	0.17084 0.40616 0.50000 0.60200
C 	C 	0.18580 0.23310 0.50000 -0.12800
H 	H 	0.14250 0.22150 0.50000 0.18300
O 	O 	0.19400 0.42000 0.50000 -0.89900
O 	O 	0.67084 0.90616 0.50000 0.38100
C 	C 	0.68580 0.73310 0.50000 -0.15600
H 	H 	0.64250 0.72150 0.50000 0.25100
O 	O 	0.69400 0.92000 0.50000 -0.52900
O 	O 	0.67084 0.40616 -0.00000 0.54000
C 	C 	0.68580 0.23310 -0.00000 -0.09300
H 	H 	0.64250 0.22150 -0.00000 0.13800
O 	O 	0.69400 0.42000 -0.00000 -0.92500
O 	O 	0.00000 0.17084 0.09384 0.57200
C 	C 	-0.00000 0.18580 0.26690 -0.08800
H 	H 	-0.00000 0.14250 0.27850 0.11600
O 	O 	-0.00000 0.19400 0.08000 -1.02000
O 	O 	0.00000 0.67084 0.59384 0.71700
C 	C 	0.00000 0.68580 0.76690 -0.01500
H 	H 	-0.00000 0.64250 0.77850 0.13200
O 	O 	0.00000 0.69400 0.58000 -1.09300
O 	O 	0.50000 0.17084 0.59384 0.68400
C 	C 	0.50000 0.18580 0.76690 -0.04900
H 	H 	0.50000 0.14250 0.77850 0.18100
O 	O 	0.50000 0.19400 0.58000 -0.97400
O 	O 	0.50000 0.67084 0.09384 0.98800
C 	C 	0.50000 0.68580 0.26690 -0.04600
H 	H 	0.50000 0.64250 0.27850 0.16200
O 	O 	0.50000 0.69400 0.08000 -1.29000
O 	O 	0.00000 0.82916 0.90616 1.05500
C 	C 	-0.00000 0.81420 0.73310 -0.29000
H 	H 	0.00000 0.85750 0.72150 0.27000
O 	O 	-0.00000 0.80600 0.92000 -1.21700
O 	O 	0.00000 0.32916 0.40616 0.65400
C 	C 	0.00000 0.31420 0.23310 -0.17600
H 	H 	-0.00000 0.35750 0.22150 0.15600
O 	O 	-0.00000 0.30600 0.42000 -1.03800
O 	O 	0.50000 0.82916 0.40616 1.43200
C 	C 	0.50000 0.81420 0.23310 -0.21900
H 	H 	0.50000 0.85750 0.22150 0.25500
O 	O 	0.50000 0.80600 0.42000 -1.61200
O 	O 	0.50000 0.32916 0.90616 0.64900
C 	C 	0.50000 0.31420 0.73310 -0.23500
H 	H 	0.50000 0.35750 0.72150 0.26300
O 	O 	0.50000 0.30600 0.92000 -0.78700
O 	O 	0.00000 0.82916 0.09384 1.54900
C 	C 	-0.00000 0.81420 0.26690 -0.18000
H 	H 	0.00000 0.85750 0.27850 0.18600
O 	O 	0.00000 0.80600 0.08000 -1.87000
O 	O 	-0.00000 0.32916 0.59384 0.83300
C 	C 	-0.00000 0.31420 0.76690 -0.09400
H 	H 	0.00000 0.35750 0.77850 0.15000
O 	O 	0.00000 0.30600 0.58000 -1.20700
O 	O 	0.50000 0.82916 0.59384 1.75600
C 	C 	0.50000 0.81420 0.76690 -0.13900
H 	H 	0.50000 0.85750 0.77850 0.24200
O 	O 	0.50000 0.80600 0.58000 -1.92200
O 	O 	0.50000 0.32916 0.09384 1.00200
C 	C 	0.50000 0.31420 0.26690 -0.12600
H 	H 	0.50000 0.35750 0.27850 0.18200
O 	O 	0.50000 0.30600 0.08000 -1.30700
O 	O 	-0.00000 0.17084 0.90616 0.09100
C 	C 	-0.00000 0.18580 0.73310 -0.20100
H 	H 	-0.00000 0.14250 0.72150 0.20400
O 	O 	0.00000 0.19400 0.92000 -0.37400
O 	O 	-0.00000 0.67084 0.40616 0.54000
C 	C 	-0.00000 0.68580 0.23310 -0.09300
H 	H 	0.00000 0.64250 0.22150 0.13800
O 	O 	0.00000 0.69400 0.42000 -0.92500
O 	O 	0.50000 0.17084 0.40616 0.60200
C 	C 	0.50000 0.18580 0.23310 -0.12800
H 	H 	0.50000 0.14250 0.22150 0.18300
O 	O 	0.50000 0.19400 0.42000 -0.89900
O 	O 	0.50000 0.67084 0.90616 0.38100
C 	C 	0.50000 0.68580 0.73310 -0.15600
H 	H 	0.50000 0.64250 0.72150 0.25100
O 	O 	0.50000 0.69400 0.92000 -0.52900
O 	O 	0.09384 0.00000 0.17084 0.57200
C 	C 	0.26690 0.00000 0.18580 -0.08800
H 	H 	0.27850 -0.00000 0.14250 0.11600
O 	O 	0.08000 -0.00000 0.19400 -1.02000
O 	O 	0.09384 0.50000 0.67084 0.98800
C 	C 	0.26690 0.50000 0.68580 -0.04600
H 	H 	0.27850 0.50000 0.64250 0.16200
O 	O 	0.08000 0.50000 0.69400 -1.29000
O 	O 	0.59384 0.00000 0.67084 0.71700
C 	C 	0.76690 -0.00000 0.68580 -0.01500
H 	H 	0.77850 0.00000 0.64250 0.13200
O 	O 	0.58000 0.00000 0.69400 -1.09300
O 	O 	0.59384 0.50000 0.17084 0.68400
C 	C 	0.76690 0.50000 0.18580 -0.04900
H 	H 	0.77850 0.50000 0.14250 0.18100
O 	O 	0.58000 0.50000 0.19400 -0.97400
O 	O 	0.90616 0.00000 0.82916 1.05500
C 	C 	0.73310 -0.00000 0.81420 -0.29000
H 	H 	0.72150 0.00000 0.85750 0.27000
O 	O 	0.92000 0.00000 0.80600 -1.21700
O 	O 	0.90616 0.50000 0.32916 0.64900
C 	C 	0.73310 0.50000 0.31420 -0.23500
H 	H 	0.72150 0.50000 0.35750 0.26300
O 	O 	0.92000 0.50000 0.30600 -0.78700
O 	O 	0.40616 -0.00000 0.32916 0.65400
C 	C 	0.23310 0.00000 0.31420 -0.17600
H 	H 	0.22150 0.00000 0.35750 0.15600
O 	O 	0.42000 0.00000 0.30600 -1.03800
O 	O 	0.40616 0.50000 0.82916 1.43200
C 	C 	0.23310 0.50000 0.81420 -0.21900
H 	H 	0.22150 0.50000 0.85750 0.25500
O 	O 	0.42000 0.50000 0.80600 -1.61200
O 	O 	0.09384 0.00000 0.82916 1.54900
C 	C 	0.26690 -0.00000 0.81420 -0.18000
H 	H 	0.27850 0.00000 0.85750 0.18600
O 	O 	0.08000 0.00000 0.80600 -1.87000
O 	O 	0.09384 0.50000 0.32916 1.00200
C 	C 	0.26690 0.50000 0.31420 -0.12600
H 	H 	0.27850 0.50000 0.35750 0.18200
O 	O 	0.08000 0.50000 0.30600 -1.30700
O 	O 	0.59384 -0.00000 0.32916 0.83300
C 	C 	0.76690 0.00000 0.31420 -0.09400
H 	H 	0.77850 0.00000 0.35750 0.15000
O 	O 	0.58000 0.00000 0.30600 -1.20700
O 	O 	0.59384 0.50000 0.82916 1.75600
C 	C 	0.76690 0.50000 0.81420 -0.13900
H 	H 	0.77850 0.50000 0.85750 0.24200
O 	O 	0.58000 0.50000 0.80600 -1.92200
O 	O 	0.90616 0.00000 0.17084 0.09100
C 	C 	0.73310 0.00000 0.18580 -0.20100
H 	H 	0.72150 -0.00000 0.14250 0.20400
O 	O 	0.92000 -0.00000 0.19400 -0.37400
O 	O 	0.90616 0.50000 0.67084 0.38100
C 	C 	0.73310 0.50000 0.68580 -0.15600
H 	H 	0.72150 0.50000 0.64250 0.25100
O 	O 	0.92000 0.50000 0.69400 -0.52900
O 	O 	0.40616 0.00000 0.67084 0.54000
C 	C 	0.23310 -0.00000 0.68580 -0.09300
H 	H 	0.22150 0.00000 0.64250 0.13800
O 	O 	0.42000 0.00000 0.69400 -0.92500
O 	O 	0.40616 0.50000 0.17084 0.60200
C 	C 	0.23310 0.50000 0.18580 -0.12800
H 	H 	0.22150 0.50000 0.14250 0.18300
O 	O 	0.42000 0.50000 0.19400 -0.89900
O 	O 	0.09384 0.17084 -0.00000 0.57200
C 	C 	0.26690 0.18580 -0.00000 -0.08800
H 	H 	0.27850 0.14250 -0.00000 0.11600
O 	O 	0.08000 0.19400 -0.00000 -1.02000
O 	O 	0.09384 0.67084 0.50000 0.98800
C 	C 	0.26690 0.68580 0.50000 -0.04600
H 	H 	0.27850 0.64250 0.50000 0.16200
O 	O 	0.08000 0.69400 0.50000 -1.29000
O 	O 	0.59384 0.17084 0.50000 0.68400
C 	C 	0.76690 0.18580 0.50000 -0.04900
H 	H 	0.77850 0.14250 0.50000 0.18100
O 	O 	0.58000 0.19400 0.50000 -0.97400
O 	O 	0.59384 0.67084 -0.00000 0.71700
C 	C 	0.76690 0.68580 -0.00000 -0.01500
H 	H 	0.77850 0.64250 -0.00000 0.13200
O 	O 	0.58000 0.69400 -0.00000 -1.09300
O 	O 	0.90616 0.82916 -0.00000 1.05500
C 	C 	0.73310 0.81420 -0.00000 -0.29000
H 	H 	0.72150 0.85750 -0.00000 0.27000
O 	O 	0.92000 0.80600 -0.00000 -1.21700
O 	O 	0.90616 0.32916 0.50000 0.64900
C 	C 	0.73310 0.31420 0.50000 -0.23500
H 	H 	0.72150 0.35750 0.50000 0.26300
O 	O 	0.92000 0.30600 0.50000 -0.78700
O 	O 	0.40616 0.82916 0.50000 1.43200
C 	C 	0.23310 0.81420 0.50000 -0.21900
H 	H 	0.22150 0.85750 0.50000 0.25500
O 	O 	0.42000 0.80600 0.50000 -1.61200
O 	O 	0.40616 0.32916 -0.00000 0.65400
C 	C 	0.23310 0.31420 -0.00000 -0.17600
H 	H 	0.22150 0.35750 -0.00000 0.15600
O 	O 	0.42000 0.30600 -0.00000 -1.03800
O 	O 	0.09384 0.82916 -0.00000 1.54900
C 	C 	0.26690 0.81420 -0.00000 -0.18000
H 	H 	0.27850 0.85750 -0.00000 0.18600
O 	O 	0.08000 0.80600 -0.00000 -1.87000
O 	O 	0.09384 0.32916 0.50000 1.00200
C 	C 	0.26690 0.31420 0.50000 -0.12600
H 	H 	0.27850 0.35750 0.50000 0.18200
O 	O 	0.08000 0.30600 0.50000 -1.30700
O 	O 	0.59384 0.82916 0.50000 1.75600
C 	C 	0.76690 0.81420 0.50000 -0.13900
H 	H 	0.77850 0.85750 0.50000 0.24200
O 	O 	0.58000 0.80600 0.50000 -1.92200
O 	O 	0.59384 0.32916 -0.00000 0.83300
C 	C 	0.76690 0.31420 -0.00000 -0.09400
H 	H 	0.77850 0.35750 -0.00000 0.15000
O 	O 	0.58000 0.30600 -0.00000 -1.20700
O 	O 	0.90616 0.17084 -0.00000 0.09100
C 	C 	0.73310 0.18580 -0.00000 -0.20100
H 	H 	0.72150 0.14250 -0.00000 0.20400
O 	O 	0.92000 0.19400 -0.00000 -0.37400
O 	O 	0.90616 0.67084 0.50000 0.38100
C 	C 	0.73310 0.68580 0.50000 -0.15600
H 	H 	0.72150 0.64250 0.50000 0.25100
O 	O 	0.92000 0.69400 0.50000 -0.52900
O 	O 	0.40616 0.17084 0.50000 0.60200
C 	C 	0.23310 0.18580 0.50000 -0.12800
H 	H 	0.22150 0.14250 0.50000 0.18300
O 	O 	0.42000 0.19400 0.50000 -0.89900
O 	O 	0.40616 0.67084 -0.00000 0.54000
C 	C 	0.23310 0.68580 -0.00000 -0.09300
H 	H 	0.22150 0.64250 -0.00000 0.13800
O 	O 	0.42000 0.69400 -0.00000 -0.92500
O 	O 	0.17084 0.00000 0.90616 0.09100
C 	C 	0.18580 0.00000 0.73310 -0.20100
H 	H 	0.14250 -0.00000 0.72150 0.20400
O 	O 	0.19400 0.00000 0.92000 -0.37400
O 	O 	0.17084 0.50000 0.40616 0.60200
C 	C 	0.18580 0.50000 0.23310 -0.12800
H 	H 	0.14250 0.50000 0.22150 0.18300
O 	O 	0.19400 0.50000 0.42000 -0.89900
O 	O 	0.67084 0.00000 0.40616 0.54000
C 	C 	0.68580 0.00000 0.23310 -0.09300
H 	H 	0.64250 0.00000 0.22150 0.13800
O 	O 	0.69400 0.00000 0.42000 -0.92500
O 	O 	0.67084 0.50000 0.90616 0.38100
C 	C 	0.68580 0.50000 0.73310 -0.15600
H 	H 	0.64250 0.50000 0.72150 0.25100
O 	O 	0.69400 0.50000 0.92000 -0.52900
O 	O 	0.82916 0.00000 0.09384 1.54900
C 	C 	0.81420 0.00000 0.26690 -0.18000
H 	H 	0.85750 -0.00000 0.27850 0.18600
O 	O 	0.80600 0.00000 0.08000 -1.87000
O 	O 	0.82916 0.50000 0.59384 1.75600
C 	C 	0.81420 0.50000 0.76690 -0.13900
H 	H 	0.85750 0.50000 0.77850 0.24200
O 	O 	0.80600 0.50000 0.58000 -1.92200
O 	O 	0.32916 -0.00000 0.59384 0.83300
C 	C 	0.31420 -0.00000 0.76690 -0.09400
H 	H 	0.35750 0.00000 0.77850 0.15000
O 	O 	0.30600 0.00000 0.58000 -1.20700
O 	O 	0.32916 0.50000 0.09384 1.00200
C 	C 	0.31420 0.50000 0.26690 -0.12600
H 	H 	0.35750 0.50000 0.27850 0.18200
O 	O 	0.30600 0.50000 0.08000 -1.30700
O 	O 	0.82916 0.00000 0.90616 1.05500
C 	C 	0.81420 0.00000 0.73310 -0.29000
H 	H 	0.85750 -0.00000 0.72150 0.27000
O 	O 	0.80600 0.00000 0.92000 -1.21700
O 	O 	0.82916 0.50000 0.40616 1.43200
C 	C 	0.81420 0.50000 0.23310 -0.21900
H 	H 	0.85750 0.50000 0.22150 0.25500
O 	O 	0.80600 0.50000 0.42000 -1.61200
O 	O 	0.32916 0.00000 0.40616 0.65400
C 	C 	0.31420 0.00000 0.23310 -0.17600
H 	H 	0.35750 0.00000 0.22150 0.15600
O 	O 	0.30600 0.00000 0.42000 -1.03800
O 	O 	0.32916 0.50000 0.90616 0.64900
C 	C 	0.31420 0.50000 0.73310 -0.23500
H 	H 	0.35750 0.50000 0.72150 0.26300
O 	O 	0.30600 0.50000 0.92000 -0.78700
O 	O 	0.17084 0.00000 0.09384 0.57200
C 	C 	0.18580 0.00000 0.26690 -0.08800
H 	H 	0.14250 -0.00000 0.27850 0.11600
O 	O 	0.19400 0.00000 0.08000 -1.02000
O 	O 	0.17084 0.50000 0.59384 0.68400
C 	C 	0.18580 0.50000 0.76690 -0.04900
H 	H 	0.14250 0.50000 0.77850 0.18100
O 	O 	0.19400 0.50000 0.58000 -0.97400
O 	O 	0.67084 -0.00000 0.59384 0.71700
C 	C 	0.68580 -0.00000 0.76690 -0.01500
H 	H 	0.64250 0.00000 0.77850 0.13200
O 	O 	0.69400 0.00000 0.58000 -1.09300
O 	O 	0.67084 0.50000 0.09384 0.98800
C 	C 	0.68580 0.50000 0.26690 -0.04600
H 	H 	0.64250 0.50000 0.27850 0.16200
O 	O 	0.69400 0.50000 0.08000 -1.29000
O 	O 	-0.00000 0.09384 0.82916 1.54900
C 	C 	-0.00000 0.26690 0.81420 -0.18000
H 	H 	0.00000 0.27850 0.85750 0.18600
O 	O 	0.00000 0.08000 0.80600 -1.87000
O 	O 	-0.00000 0.59384 0.32916 0.83300
C 	C 	-0.00000 0.76690 0.31420 -0.09400
H 	H 	0.00000 0.77850 0.35750 0.15000
O 	O 	0.00000 0.58000 0.30600 -1.20700
O 	O 	0.50000 0.09384 0.32916 1.00200
C 	C 	0.50000 0.26690 0.31420 -0.12600
H 	H 	0.50000 0.27850 0.35750 0.18200
O 	O 	0.50000 0.08000 0.30600 -1.30700
O 	O 	0.50000 0.59384 0.82916 1.75600
C 	C 	0.50000 0.76690 0.81420 -0.13900
H 	H 	0.50000 0.77850 0.85750 0.24200
O 	O 	0.50000 0.58000 0.80600 -1.92200
O 	O 	-0.00000 0.90616 0.17084 0.09100
C 	C 	-0.00000 0.73310 0.18580 -0.20100
H 	H 	-0.00000 0.72150 0.14250 0.20400
O 	O 	0.00000 0.92000 0.19400 -0.37400
O 	O 	-0.00000 0.40616 0.67084 0.54000
C 	C 	-0.00000 0.23310 0.68580 -0.09300
H 	H 	0.00000 0.22150 0.64250 0.13800
O 	O 	0.00000 0.42000 0.69400 -0.92500
O 	O 	0.50000 0.90616 0.67084 0.38100
C 	C 	0.50000 0.73310 0.68580 -0.15600
H 	H 	0.50000 0.72150 0.64250 0.25100
O 	O 	0.50000 0.92000 0.69400 -0.52900
O 	O 	0.50000 0.40616 0.17084 0.60200
C 	C 	0.50000 0.23310 0.18580 -0.12800
H 	H 	0.50000 0.22150 0.14250 0.18300
O 	O 	0.50000 0.42000 0.19400 -0.89900
O 	O 	0.00000 0.09384 0.17084 0.57200
C 	C 	-0.00000 0.26690 0.18580 -0.08800
H 	H 	-0.00000 0.27850 0.14250 0.11600
O 	O 	-0.00000 0.08000 0.19400 -1.02000
O 	O 	0.00000 0.59384 0.67084 0.71700
C 	C 	0.00000 0.76690 0.68580 -0.01500
H 	H 	-0.00000 0.77850 0.64250 0.13200
O 	O 	0.00000 0.58000 0.69400 -1.09300
O 	O 	0.50000 0.09384 0.67084 0.98800
C 	C 	0.50000 0.26690 0.68580 -0.04600
H 	H 	0.50000 0.27850 0.64250 0.16200
O 	O 	0.50000 0.08000 0.69400 -1.29000
O 	O 	0.50000 0.59384 0.17084 0.68400
C 	C 	0.50000 0.76690 0.18580 -0.04900
H 	H 	0.50000 0.77850 0.14250 0.18100
O 	O 	0.50000 0.58000 0.19400 -0.97400
O 	O 	-0.00000 0.90616 0.82916 1.05500
C 	C 	-0.00000 0.73310 0.81420 -0.29000
H 	H 	0.00000 0.72150 0.85750 0.27000
O 	O 	-0.00000 0.92000 0.80600 -1.21700
O 	O 	0.00000 0.40616 0.32916 0.65400
C 	C 	0.00000 0.23310 0.31420 -0.17600
H 	H 	-0.00000 0.22150 0.35750 0.15600
O 	O 	-0.00000 0.42000 0.30600 -1.03800
O 	O 	0.50000 0.90616 0.32916 0.64900
C 	C 	0.50000 0.73310 0.31420 -0.23500
H 	H 	0.50000 0.72150 0.35750 0.26300
O 	O 	0.50000 0.92000 0.30600 -0.78700
O 	O 	0.50000 0.40616 0.82916 1.43200
C 	C 	0.50000 0.23310 0.81420 -0.21900
H 	H 	0.50000 0.22150 0.85750 0.25500
O 	O 	0.50000 0.42000 0.80600 -1.61200
C 	C 	0.15157 0.15157 -0.00000 -0.42000
C 	C 	0.20279 0.20279 -0.00000 0.24400
C 	C 	0.15157 0.65157 0.50000 -0.55400
C 	C 	0.20279 0.70279 0.50000 0.31100
C 	C 	0.65157 0.15157 0.50000 -0.55400
C 	C 	0.70279 0.20279 0.50000 0.31100
C 	C 	0.65157 0.65157 -0.00000 -0.53900
C 	C 	0.70279 0.70279 -0.00000 0.23200
C 	C 	0.84843 0.84843 -0.00000 -0.83000
C 	C 	0.79721 0.79721 -0.00000 0.51400
C 	C 	0.84843 0.34843 0.50000 -0.75200
C 	C 	0.79721 0.29721 0.50000 0.48500
C 	C 	0.34843 0.84843 0.50000 -0.75200
C 	C 	0.29721 0.79721 0.50000 0.48500
C 	C 	0.34843 0.34843 -0.00000 -0.53100
C 	C 	0.29721 0.29721 -0.00000 0.31700
C 	C 	0.84843 0.15157 -0.00000 -0.62800
C 	C 	0.79721 0.20279 -0.00000 0.38200
C 	C 	0.84843 0.65157 0.50000 -0.75500
C 	C 	0.79721 0.70279 0.50000 0.44200
C 	C 	0.34843 0.15157 0.50000 -0.54800
C 	C 	0.29721 0.20279 0.50000 0.35200
C 	C 	0.34843 0.65157 -0.00000 -0.53500
C 	C 	0.29721 0.70279 -0.00000 0.27400
C 	C 	0.15157 0.84843 -0.00000 -0.62800
C 	C 	0.20279 0.79721 -0.00000 0.38200
C 	C 	0.15157 0.34843 0.50000 -0.54800
C 	C 	0.20279 0.29721 0.50000 0.35200
C 	C 	0.65157 0.84843 0.50000 -0.75500
C 	C 	0.70279 0.79721 0.50000 0.44200
C 	C 	0.65157 0.34843 -0.00000 -0.53500
C 	C 	0.70279 0.29721 -0.00000 0.27400
C 	C 	0.00000 0.15157 0.15157 -0.42000
C 	C 	-0.00000 0.20279 0.20279 0.24400
C 	C 	0.00000 0.65157 0.65157 -0.53900
C 	C 	-0.00000 0.70279 0.70279 0.23200
C 	C 	0.50000 0.15157 0.65157 -0.55400
C 	C 	0.50000 0.20279 0.70279 0.31100
C 	C 	0.50000 0.65157 0.15157 -0.55400
C 	C 	0.50000 0.70279 0.20279 0.31100
C 	C 	0.00000 0.84843 0.84843 -0.83000
C 	C 	-0.00000 0.79721 0.79721 0.51400
C 	C 	0.00000 0.34843 0.34843 -0.53100
C 	C 	-0.00000 0.29721 0.29721 0.31700
C 	C 	0.50000 0.84843 0.34843 -0.75200
C 	C 	0.50000 0.79721 0.29721 0.48500
C 	C 	0.50000 0.34843 0.84843 -0.75200
C 	C 	0.50000 0.29721 0.79721 0.48500
C 	C 	-0.00000 0.84843 0.15157 -0.62800
C 	C 	-0.00000 0.79721 0.20279 0.38200
C 	C 	-0.00000 0.34843 0.65157 -0.53500
C 	C 	-0.00000 0.29721 0.70279 0.27400
C 	C 	0.50000 0.84843 0.65157 -0.75500
C 	C 	0.50000 0.79721 0.70279 0.44200
C 	C 	0.50000 0.34843 0.15157 -0.54800
C 	C 	0.50000 0.29721 0.20279 0.35200
C 	C 	-0.00000 0.15157 0.84843 -0.62800
C 	C 	-0.00000 0.20279 0.79721 0.38200
C 	C 	-0.00000 0.65157 0.34843 -0.53500
C 	C 	-0.00000 0.70279 0.29721 0.27400
C 	C 	0.50000 0.15157 0.34843 -0.54800
C 	C 	0.50000 0.20279 0.29721 0.35200
C 	C 	0.50000 0.65157 0.84843 -0.75500
C 	C 	0.50000 0.70279 0.79721 0.44200
C 	C 	0.15157 0.00000 0.15157 -0.42000
C 	C 	0.20279 -0.00000 0.20279 0.24400
C 	C 	0.15157 0.50000 0.65157 -0.55400
C 	C 	0.20279 0.50000 0.70279 0.31100
C 	C 	0.65157 -0.00000 0.65157 -0.53900
C 	C 	0.70279 0.00000 0.70279 0.23200
C 	C 	0.65157 0.50000 0.15157 -0.55400
C 	C 	0.70279 0.50000 0.20279 0.31100
C 	C 	0.84843 -0.00000 0.84843 -0.83000
C 	C 	0.79721 -0.00000 0.79721 0.51400
C 	C 	0.84843 0.50000 0.34843 -0.75200
C 	C 	0.79721 0.50000 0.29721 0.48500
C 	C 	0.34843 0.00000 0.34843 -0.53100
C 	C 	0.29721 -0.00000 0.29721 0.31700
C 	C 	0.34843 0.50000 0.84843 -0.75200
C 	C 	0.29721 0.50000 0.79721 0.48500
C 	C 	0.15157 -0.00000 0.84843 -0.62800
C 	C 	0.20279 -0.00000 0.79721 0.38200
C 	C 	0.15157 0.50000 0.34843 -0.54800
C 	C 	0.20279 0.50000 0.29721 0.35200
C 	C 	0.65157 0.00000 0.34843 -0.53500
C 	C 	0.70279 -0.00000 0.29721 0.27400
C 	C 	0.65157 0.50000 0.84843 -0.75500
C 	C 	0.70279 0.50000 0.79721 0.44200
C 	C 	0.84843 0.00000 0.15157 -0.62800
C 	C 	0.79721 -0.00000 0.20279 0.38200
C 	C 	0.84843 0.50000 0.65157 -0.75500
C 	C 	0.79721 0.50000 0.70279 0.44200
C 	C 	0.34843 -0.00000 0.65157 -0.53500
C 	C 	0.29721 0.00000 0.70279 0.27400
C 	C 	0.34843 0.50000 0.15157 -0.54800
C 	C 	0.29721 0.50000 0.20279 0.35200
O 	O 	0.06760 0.06760 0.06760 11.70200
O 	O 	0.05040 0.05040 0.05040 -11.04300
H 	H 	0.09450 0.09450 0.09450 -3.65600
O 	O 	0.06760 0.56760 0.56760 5.36700
O 	O 	0.05040 0.55040 0.55040 -5.59400
H 	H 	0.09450 0.59450 0.59450 -1.73200
O 	O 	0.56760 0.06760 0.56760 5.36700
O 	O 	0.55040 0.05040 0.55040 -5.59400
H 	H 	0.59450 0.09450 0.59450 -1.73200
O 	O 	0.56760 0.56760 0.06760 5.36700
O 	O 	0.55040 0.55040 0.05040 -5.59400
H 	H 	0.59450 0.59450 0.09450 -1.73200
O 	O 	0.93240 0.93240 0.06760 -1.25100
O 	O 	0.94960 0.94960 0.05040 0.17700
H 	H 	0.90550 0.90550 0.09450 0.38400
O 	O 	0.93240 0.43240 0.56760 -1.34500
O 	O 	0.94960 0.44960 0.55040 0.22100
H 	H 	0.90550 0.40550 0.59450 0.36000
O 	O 	0.43240 0.93240 0.56760 -1.34500
O 	O 	0.44960 0.94960 0.55040 0.22100
H 	H 	0.40550 0.90550 0.59450 0.36000
O 	O 	0.43240 0.43240 0.06760 5.48600
O 	O 	0.44960 0.44960 0.05040 -5.69100
H 	H 	0.40550 0.40550 0.09450 -1.76800
O 	O 	0.93240 0.06760 0.93240 -1.25100
O 	O 	0.94960 0.05040 0.94960 0.17700
H 	H 	0.90550 0.09450 0.90550 0.38400
O 	O 	0.93240 0.56760 0.43240 -1.34500
O 	O 	0.94960 0.55040 0.44960 0.22100
H 	H 	0.90550 0.59450 0.40550 0.36000
O 	O 	0.43240 0.06760 0.43240 5.48600
O 	O 	0.44960 0.05040 0.44960 -5.69100
H 	H 	0.40550 0.09450 0.40550 -1.76800
O 	O 	0.43240 0.56760 0.93240 -1.34500
O 	O 	0.44960 0.55040 0.94960 0.22100
H 	H 	0.40550 0.59450 0.90550 0.36000
O 	O 	0.06760 0.93240 0.93240 -1.25100
O 	O 	0.05040 0.94960 0.94960 0.17700
H 	H 	0.09450 0.90550 0.90550 0.38400
O 	O 	0.06760 0.43240 0.43240 5.48600
O 	O 	0.05040 0.44960 0.44960 -5.69100
H 	H 	0.09450 0.40550 0.40550 -1.76800
O 	O 	0.56760 0.93240 0.43240 -1.34500
O 	O 	0.55040 0.94960 0.44960 0.22100
H 	H 	0.59450 0.90550 0.40550 0.36000
O 	O 	0.56760 0.43240 0.93240 -1.34500
O 	O 	0.55040 0.44960 0.94960 0.22100
H 	H 	0.59450 0.40550 0.90550 0.36000
O 	O 	0.06760 0.06760 0.93240 5.28800
O 	O 	0.05040 0.05040 0.94960 -5.48500
H 	H 	0.09450 0.09450 0.90550 -1.65400
O 	O 	0.06760 0.56760 0.43240 5.42700
O 	O 	0.05040 0.55040 0.44960 -5.64300
H 	H 	0.09450 0.59450 0.40550 -1.75000
O 	O 	0.56760 0.06760 0.43240 5.42700
O 	O 	0.55040 0.05040 0.44960 -5.64300
H 	H 	0.59450 0.09450 0.40550 -1.75000
O 	O 	0.56760 0.56760 0.93240 -1.41200
O 	O 	0.55040 0.55040 0.94960 0.27500
H 	H 	0.59450 0.59450 0.90550 0.38000
O 	O 	0.93240 0.93240 0.93240 -7.91600
O 	O 	0.94960 0.94960 0.94960 5.94200
H 	H 	0.90550 0.90550 0.90550 2.45500
O 	O 	0.93240 0.43240 0.43240 -1.27800
O 	O 	0.94960 0.44960 0.44960 0.16600
H 	H 	0.90550 0.40550 0.40550 0.34000
O 	O 	0.43240 0.93240 0.43240 -1.27800
O 	O 	0.44960 0.94960 0.44960 0.16600
H 	H 	0.40550 0.90550 0.40550 0.34000
O 	O 	0.43240 0.43240 0.93240 -1.27800
O 	O 	0.44960 0.44960 0.94960 0.16600
H 	H 	0.40550 0.40550 0.90550 0.34000
O 	O 	0.06760 0.93240 0.06760 5.28800
O 	O 	0.05040 0.94960 0.05040 -5.48500
H 	H 	0.09450 0.90550 0.09450 -1.65400
O 	O 	0.06760 0.43240 0.56760 5.42700
O 	O 	0.05040 0.44960 0.55040 -5.64300
H 	H 	0.09450 0.40550 0.59450 -1.75000
O 	O 	0.56760 0.93240 0.56760 -1.41200
O 	O 	0.55040 0.94960 0.55040 0.27500
H 	H 	0.59450 0.90550 0.59450 0.38000
O 	O 	0.56760 0.43240 0.06760 5.42700
O 	O 	0.55040 0.44960 0.05040 -5.64300
H 	H 	0.59450 0.40550 0.09450 -1.75000
O 	O 	0.93240 0.06760 0.06760 5.28800
O 	O 	0.94960 0.05040 0.05040 -5.48500
H 	H 	0.90550 0.09450 0.09450 -1.65400
O 	O 	0.93240 0.56760 0.56760 -1.41200
O 	O 	0.94960 0.55040 0.55040 0.27500
H 	H 	0.90550 0.59450 0.59450 0.38000
O 	O 	0.43240 0.06760 0.56760 5.42700
O 	O 	0.44960 0.05040 0.55040 -5.64300
H 	H 	0.40550 0.09450 0.59450 -1.75000
O 	O 	0.43240 0.56760 0.06760 5.42700
O 	O 	0.44960 0.55040 0.05040 -5.64300
H 	H 	0.40550 0.59450 0.09450 -1.75000
