data_crystal

_cell_length_a 20.73660
_cell_length_b 20.73660
_cell_length_c 20.73660
_cell_angle_alpha 90.00000
_cell_angle_beta  90.00000
_cell_angle_gamma 90.00000

_symmetry_space_group_name_	'P 1'
_symmetry_space_group_name_H-M	'P 1'

loop_
_symmetry_equiv_pos_as_xyz
  x,y,z

loop_
_atom_site_label
_atom_site_type_symbol
_atom_site_fract_x
_atom_site_fract_y
_atom_site_fract_z
_atom_site_charge
Zr	Zr	0.11941 0.00000 -0.00000 3.39100
Zr	Zr	0.11941 0.50000 0.50000 3.41400
Zr	Zr	0.61941 0.00000 0.50000 3.27100
Zr	Zr	0.61941 0.50000 -0.00000 3.27100
Zr	Zr	0.88059 0.00000 -0.00000 3.12500
Zr	Zr	0.88059 0.50000 0.50000 3.13300
Zr	Zr	0.38059 0.00000 0.50000 3.26000
Zr	Zr	0.38059 0.50000 -0.00000 3.26000
Zr	Zr	-0.00000 0.11941 -0.00000 3.39100
Zr	Zr	0.00000 0.61941 0.50000 3.27100
Zr	Zr	0.50000 0.11941 0.50000 3.41400
Zr	Zr	0.50000 0.61941 -0.00000 3.27200
Zr	Zr	-0.00000 0.88059 -0.00000 3.12600
Zr	Zr	0.00000 0.38059 0.50000 3.26100
Zr	Zr	0.50000 0.88059 0.50000 3.13400
Zr	Zr	0.50000 0.38059 -0.00000 3.26100
Zr	Zr	0.00000 0.00000 0.11941 3.39200
Zr	Zr	0.00000 0.50000 0.61941 3.27200
Zr	Zr	0.50000 -0.00000 0.61941 3.27200
Zr	Zr	0.50000 0.50000 0.11941 3.41500
Zr	Zr	0.00000 0.00000 0.88059 3.12600
Zr	Zr	0.00000 0.50000 0.38059 3.26100
Zr	Zr	0.50000 0.00000 0.38059 3.26100
Zr	Zr	0.50000 0.50000 0.88059 3.13400
O 	O 	0.17092 0.09354 -0.00000 -1.61200
C 	C 	0.26700 0.18550 -0.00000 0.27200
H 	H 	0.27880 0.14130 -0.00000 -0.09800
O 	O 	0.19700 0.07500 -0.00000 0.69700
O 	O 	0.17092 0.59354 0.50000 -1.45900
C 	C 	0.26700 0.68550 0.50000 0.22700
H 	H 	0.27880 0.64130 0.50000 -0.07400
O 	O 	0.19700 0.57500 0.50000 0.61600
O 	O 	0.67092 0.09354 0.50000 -1.57300
C 	C 	0.76700 0.18550 0.50000 0.23200
H 	H 	0.77880 0.14130 0.50000 -0.06800
O 	O 	0.69700 0.07500 0.50000 0.71200
O 	O 	0.67092 0.59354 -0.00000 -1.11100
C 	C 	0.76700 0.68550 -0.00000 0.13100
H 	H 	0.77880 0.64130 -0.00000 -0.03800
O 	O 	0.69700 0.57500 -0.00000 0.32100
O 	O 	0.82908 0.90646 -0.00000 -0.72100
C 	C 	0.73300 0.81450 -0.00000 -0.10200
H 	H 	0.72120 0.85870 -0.00000 0.05400
O 	O 	0.80300 0.92500 -0.00000 0.07600
O 	O 	0.82908 0.40646 0.50000 -0.92500
C 	C 	0.73300 0.31450 0.50000 -0.11100
H 	H 	0.72120 0.35870 0.50000 0.05300
O 	O 	0.80300 0.42500 0.50000 0.20700
O 	O 	0.32908 0.90646 0.50000 -0.92400
C 	C 	0.23300 0.81450 0.50000 -0.11000
H 	H 	0.22120 0.85870 0.50000 0.06500
O 	O 	0.30300 0.92500 0.50000 0.27400
O 	O 	0.32908 0.40646 -0.00000 -0.86100
C 	C 	0.23300 0.31450 -0.00000 -0.15000
H 	H 	0.22120 0.35870 -0.00000 0.06100
O 	O 	0.30300 0.42500 -0.00000 0.12800
O 	O 	0.82908 0.09354 -0.00000 -1.25200
C 	C 	0.73300 0.18550 -0.00000 0.09400
H 	H 	0.72120 0.14130 -0.00000 -0.03100
O 	O 	0.80300 0.07500 -0.00000 0.42700
O 	O 	0.82908 0.59354 0.50000 -1.04800
C 	C 	0.73300 0.68550 0.50000 0.03100
H 	H 	0.72120 0.64130 0.50000 -0.00000
O 	O 	0.80300 0.57500 0.50000 0.30300
O 	O 	0.32908 0.09354 0.50000 -1.45700
C 	C 	0.23300 0.18550 0.50000 0.08500
H 	H 	0.22120 0.14130 0.50000 -0.01900
O 	O 	0.30300 0.07500 0.50000 0.62700
O 	O 	0.32908 0.59354 -0.00000 -0.98900
C 	C 	0.23300 0.68550 -0.00000 -0.01700
H 	H 	0.22120 0.64130 -0.00000 0.01200
O 	O 	0.30300 0.57500 -0.00000 0.22900
O 	O 	0.17092 0.90646 -0.00000 -1.12900
C 	C 	0.26700 0.81450 -0.00000 0.09400
H 	H 	0.27880 0.85870 -0.00000 -0.01900
O 	O 	0.19700 0.92500 -0.00000 0.38800
O 	O 	0.17092 0.40646 0.50000 -1.32400
C 	C 	0.26700 0.31450 0.50000 0.08300
H 	H 	0.27880 0.35870 0.50000 -0.02000
O 	O 	0.19700 0.42500 0.50000 0.51000
O 	O 	0.67092 0.90646 0.50000 -1.02100
C 	C 	0.76700 0.81450 0.50000 0.03400
H 	H 	0.77880 0.85870 0.50000 0.01500
O 	O 	0.69700 0.92500 0.50000 0.34000
O 	O 	0.67092 0.40646 -0.00000 -0.97200
C 	C 	0.76700 0.31450 -0.00000 -0.01500
H 	H 	0.77880 0.35870 -0.00000 0.01700
O 	O 	0.69700 0.42500 -0.00000 0.21100
O 	O 	0.00000 0.17092 0.09354 -1.61200
C 	C 	-0.00000 0.26700 0.18550 0.27200
H 	H 	-0.00000 0.27880 0.14130 -0.09800
O 	O 	0.00000 0.19700 0.07500 0.69700
O 	O 	0.00000 0.67092 0.59354 -1.11100
C 	C 	-0.00000 0.76700 0.68550 0.13100
H 	H 	0.00000 0.77880 0.64130 -0.03800
O 	O 	0.00000 0.69700 0.57500 0.32100
O 	O 	0.50000 0.17092 0.59354 -1.45900
C 	C 	0.50000 0.26700 0.68550 0.22700
H 	H 	0.50000 0.27880 0.64130 -0.07400
O 	O 	0.50000 0.19700 0.57500 0.61600
O 	O 	0.50000 0.67092 0.09354 -1.57300
C 	C 	0.50000 0.76700 0.18550 0.23200
H 	H 	0.50000 0.77880 0.14130 -0.06800
O 	O 	0.50000 0.69700 0.07500 0.71200
O 	O 	0.00000 0.82908 0.90646 -0.72100
C 	C 	-0.00000 0.73300 0.81450 -0.10200
H 	H 	0.00000 0.72120 0.85870 0.05400
O 	O 	0.00000 0.80300 0.92500 0.07600
O 	O 	-0.00000 0.32908 0.40646 -0.86100
C 	C 	0.00000 0.23300 0.31450 -0.15000
H 	H 	0.00000 0.22120 0.35870 0.06100
O 	O 	-0.00000 0.30300 0.42500 0.12800
O 	O 	0.50000 0.82908 0.40646 -0.92500
C 	C 	0.50000 0.73300 0.31450 -0.11100
H 	H 	0.50000 0.72120 0.35870 0.05300
O 	O 	0.50000 0.80300 0.42500 0.20700
O 	O 	0.50000 0.32908 0.90646 -0.92400
C 	C 	0.50000 0.23300 0.81450 -0.11000
H 	H 	0.50000 0.22120 0.85870 0.06500
O 	O 	0.50000 0.30300 0.92500 0.27400
O 	O 	-0.00000 0.82908 0.09354 -1.25200
C 	C 	0.00000 0.73300 0.18550 0.09400
H 	H 	-0.00000 0.72120 0.14130 -0.03100
O 	O 	0.00000 0.80300 0.07500 0.42700
O 	O 	0.00000 0.32908 0.59354 -0.98900
C 	C 	0.00000 0.23300 0.68550 -0.01700
H 	H 	-0.00000 0.22120 0.64130 0.01200
O 	O 	-0.00000 0.30300 0.57500 0.22900
O 	O 	0.50000 0.82908 0.59354 -1.04800
C 	C 	0.50000 0.73300 0.68550 0.03100
H 	H 	0.50000 0.72120 0.64130 -0.00000
O 	O 	0.50000 0.80300 0.57500 0.30300
O 	O 	0.50000 0.32908 0.09354 -1.45700
C 	C 	0.50000 0.23300 0.18550 0.08500
H 	H 	0.50000 0.22120 0.14130 -0.01900
O 	O 	0.50000 0.30300 0.07500 0.62700
O 	O 	0.00000 0.17092 0.90646 -1.12900
C 	C 	-0.00000 0.26700 0.81450 0.09400
H 	H 	0.00000 0.27880 0.85870 -0.01900
O 	O 	0.00000 0.19700 0.92500 0.38800
O 	O 	0.00000 0.67092 0.40646 -0.97200
C 	C 	-0.00000 0.76700 0.31450 -0.01500
H 	H 	0.00000 0.77880 0.35870 0.01700
O 	O 	0.00000 0.69700 0.42500 0.21100
O 	O 	0.50000 0.17092 0.40646 -1.32400
C 	C 	0.50000 0.26700 0.31450 0.08300
H 	H 	0.50000 0.27880 0.35870 -0.02000
O 	O 	0.50000 0.19700 0.42500 0.51000
O 	O 	0.50000 0.67092 0.90646 -1.02100
C 	C 	0.50000 0.76700 0.81450 0.03400
H 	H 	0.50000 0.77880 0.85870 0.01500
O 	O 	0.50000 0.69700 0.92500 0.34000
O 	O 	0.09354 0.00000 0.17092 -1.61200
C 	C 	0.18550 0.00000 0.26700 0.27200
H 	H 	0.14130 0.00000 0.27880 -0.09800
O 	O 	0.07500 0.00000 0.19700 0.69700
O 	O 	0.09354 0.50000 0.67092 -1.57300
C 	C 	0.18550 0.50000 0.76700 0.23200
H 	H 	0.14130 0.50000 0.77880 -0.06800
O 	O 	0.07500 0.50000 0.69700 0.71200
O 	O 	0.59354 0.00000 0.67092 -1.11100
C 	C 	0.68550 0.00000 0.76700 0.13100
H 	H 	0.64130 0.00000 0.77880 -0.03800
O 	O 	0.57500 -0.00000 0.69700 0.32100
O 	O 	0.59354 0.50000 0.17092 -1.45900
C 	C 	0.68550 0.50000 0.26700 0.22700
H 	H 	0.64130 0.50000 0.27880 -0.07400
O 	O 	0.57500 0.50000 0.19700 0.61600
O 	O 	0.90646 -0.00000 0.82908 -0.72100
C 	C 	0.81450 -0.00000 0.73300 -0.10200
H 	H 	0.85870 -0.00000 0.72120 0.05400
O 	O 	0.92500 0.00000 0.80300 0.07600
O 	O 	0.90646 0.50000 0.32908 -0.92400
C 	C 	0.81450 0.50000 0.23300 -0.11000
H 	H 	0.85870 0.50000 0.22120 0.06500
O 	O 	0.92500 0.50000 0.30300 0.27400
O 	O 	0.40646 0.00000 0.32908 -0.86100
C 	C 	0.31450 0.00000 0.23300 -0.15000
H 	H 	0.35870 0.00000 0.22120 0.06100
O 	O 	0.42500 0.00000 0.30300 0.12800
O 	O 	0.40646 0.50000 0.82908 -0.92500
C 	C 	0.31450 0.50000 0.73300 -0.11100
H 	H 	0.35870 0.50000 0.72120 0.05300
O 	O 	0.42500 0.50000 0.80300 0.20700
O 	O 	0.09354 -0.00000 0.82908 -1.25200
C 	C 	0.18550 -0.00000 0.73300 0.09400
H 	H 	0.14130 -0.00000 0.72120 -0.03100
O 	O 	0.07500 0.00000 0.80300 0.42700
O 	O 	0.09354 0.50000 0.32908 -1.45700
C 	C 	0.18550 0.50000 0.23300 0.08500
H 	H 	0.14130 0.50000 0.22120 -0.01900
O 	O 	0.07500 0.50000 0.30300 0.62700
O 	O 	0.59354 0.00000 0.32908 -0.98900
C 	C 	0.68550 0.00000 0.23300 -0.01700
H 	H 	0.64130 0.00000 0.22120 0.01200
O 	O 	0.57500 0.00000 0.30300 0.22900
O 	O 	0.59354 0.50000 0.82908 -1.04800
C 	C 	0.68550 0.50000 0.73300 0.03100
H 	H 	0.64130 0.50000 0.72120 -0.00000
O 	O 	0.57500 0.50000 0.80300 0.30300
O 	O 	0.90646 0.00000 0.17092 -1.12900
C 	C 	0.81450 0.00000 0.26700 0.09400
H 	H 	0.85870 0.00000 0.27880 -0.01900
O 	O 	0.92500 0.00000 0.19700 0.38800
O 	O 	0.90646 0.50000 0.67092 -1.02100
C 	C 	0.81450 0.50000 0.76700 0.03400
H 	H 	0.85870 0.50000 0.77880 0.01500
O 	O 	0.92500 0.50000 0.69700 0.34000
O 	O 	0.40646 0.00000 0.67092 -0.97200
C 	C 	0.31450 0.00000 0.76700 -0.01500
H 	H 	0.35870 0.00000 0.77880 0.01700
O 	O 	0.42500 -0.00000 0.69700 0.21100
O 	O 	0.40646 0.50000 0.17092 -1.32400
C 	C 	0.31450 0.50000 0.26700 0.08300
H 	H 	0.35870 0.50000 0.27880 -0.02000
O 	O 	0.42500 0.50000 0.19700 0.51000
O 	O 	0.09354 0.17092 -0.00000 -1.61200
C 	C 	0.18550 0.26700 -0.00000 0.27200
H 	H 	0.14130 0.27880 -0.00000 -0.09800
O 	O 	0.07500 0.19700 -0.00000 0.69700
O 	O 	0.09354 0.67092 0.50000 -1.57300
C 	C 	0.18550 0.76700 0.50000 0.23200
H 	H 	0.14130 0.77880 0.50000 -0.06800
O 	O 	0.07500 0.69700 0.50000 0.71200
O 	O 	0.59354 0.17092 0.50000 -1.45900
C 	C 	0.68550 0.26700 0.50000 0.22700
H 	H 	0.64130 0.27880 0.50000 -0.07400
O 	O 	0.57500 0.19700 0.50000 0.61600
O 	O 	0.59354 0.67092 -0.00000 -1.11100
C 	C 	0.68550 0.76700 -0.00000 0.13100
H 	H 	0.64130 0.77880 -0.00000 -0.03800
O 	O 	0.57500 0.69700 -0.00000 0.32100
O 	O 	0.90646 0.82908 -0.00000 -0.72100
C 	C 	0.81450 0.73300 -0.00000 -0.10200
H 	H 	0.85870 0.72120 -0.00000 0.05400
O 	O 	0.92500 0.80300 -0.00000 0.07600
O 	O 	0.90646 0.32908 0.50000 -0.92400
C 	C 	0.81450 0.23300 0.50000 -0.11000
H 	H 	0.85870 0.22120 0.50000 0.06500
O 	O 	0.92500 0.30300 0.50000 0.27400
O 	O 	0.40646 0.82908 0.50000 -0.92500
C 	C 	0.31450 0.73300 0.50000 -0.11100
H 	H 	0.35870 0.72120 0.50000 0.05300
O 	O 	0.42500 0.80300 0.50000 0.20700
O 	O 	0.40646 0.32908 -0.00000 -0.86100
C 	C 	0.31450 0.23300 -0.00000 -0.15000
H 	H 	0.35870 0.22120 -0.00000 0.06100
O 	O 	0.42500 0.30300 -0.00000 0.12800
O 	O 	0.09354 0.82908 -0.00000 -1.25200
C 	C 	0.18550 0.73300 -0.00000 0.09400
H 	H 	0.14130 0.72120 -0.00000 -0.03100
O 	O 	0.07500 0.80300 -0.00000 0.42700
O 	O 	0.09354 0.32908 0.50000 -1.45700
C 	C 	0.18550 0.23300 0.50000 0.08500
H 	H 	0.14130 0.22120 0.50000 -0.01900
O 	O 	0.07500 0.30300 0.50000 0.62700
O 	O 	0.59354 0.82908 0.50000 -1.04800
C 	C 	0.68550 0.73300 0.50000 0.03100
H 	H 	0.64130 0.72120 0.50000 -0.00000
O 	O 	0.57500 0.80300 0.50000 0.30300
O 	O 	0.59354 0.32908 -0.00000 -0.98900
C 	C 	0.68550 0.23300 -0.00000 -0.01700
H 	H 	0.64130 0.22120 -0.00000 0.01200
O 	O 	0.57500 0.30300 -0.00000 0.22900
O 	O 	0.90646 0.17092 -0.00000 -1.12900
C 	C 	0.81450 0.26700 -0.00000 0.09400
H 	H 	0.85870 0.27880 -0.00000 -0.01900
O 	O 	0.92500 0.19700 -0.00000 0.38800
O 	O 	0.90646 0.67092 0.50000 -1.02100
C 	C 	0.81450 0.76700 0.50000 0.03400
H 	H 	0.85870 0.77880 0.50000 0.01500
O 	O 	0.92500 0.69700 0.50000 0.34000
O 	O 	0.40646 0.17092 0.50000 -1.32400
C 	C 	0.31450 0.26700 0.50000 0.08300
H 	H 	0.35870 0.27880 0.50000 -0.02000
O 	O 	0.42500 0.19700 0.50000 0.51000
O 	O 	0.40646 0.67092 -0.00000 -0.97200
C 	C 	0.31450 0.76700 -0.00000 -0.01500
H 	H 	0.35870 0.77880 -0.00000 0.01700
O 	O 	0.42500 0.69700 -0.00000 0.21100
O 	O 	0.17092 0.00000 0.90646 -1.12900
C 	C 	0.26700 0.00000 0.81450 0.09400
H 	H 	0.27880 0.00000 0.85870 -0.01900
O 	O 	0.19700 -0.00000 0.92500 0.38800
O 	O 	0.17092 0.50000 0.40646 -1.32400
C 	C 	0.26700 0.50000 0.31450 0.08300
H 	H 	0.27880 0.50000 0.35870 -0.02000
O 	O 	0.19700 0.50000 0.42500 0.51000
O 	O 	0.67092 0.00000 0.40646 -0.97200
C 	C 	0.76700 0.00000 0.31450 -0.01500
H 	H 	0.77880 0.00000 0.35870 0.01700
O 	O 	0.69700 -0.00000 0.42500 0.21100
O 	O 	0.67092 0.50000 0.90646 -1.02100
C 	C 	0.76700 0.50000 0.81450 0.03400
H 	H 	0.77880 0.50000 0.85870 0.01500
O 	O 	0.69700 0.50000 0.92500 0.34000
O 	O 	0.82908 0.00000 0.09354 -1.25200
C 	C 	0.73300 0.00000 0.18550 0.09400
H 	H 	0.72120 0.00000 0.14130 -0.03100
O 	O 	0.80300 0.00000 0.07500 0.42700
O 	O 	0.82908 0.50000 0.59354 -1.04800
C 	C 	0.73300 0.50000 0.68550 0.03100
H 	H 	0.72120 0.50000 0.64130 -0.00000
O 	O 	0.80300 0.50000 0.57500 0.30300
O 	O 	0.32908 0.00000 0.59354 -0.98900
C 	C 	0.23300 0.00000 0.68550 -0.01700
H 	H 	0.22120 -0.00000 0.64130 0.01200
O 	O 	0.30300 -0.00000 0.57500 0.22900
O 	O 	0.32908 0.50000 0.09354 -1.45700
C 	C 	0.23300 0.50000 0.18550 0.08500
H 	H 	0.22120 0.50000 0.14130 -0.01900
O 	O 	0.30300 0.50000 0.07500 0.62700
O 	O 	0.82908 0.00000 0.90646 -0.72100
C 	C 	0.73300 0.00000 0.81450 -0.10200
H 	H 	0.72120 0.00000 0.85870 0.05400
O 	O 	0.80300 -0.00000 0.92500 0.07600
O 	O 	0.82908 0.50000 0.40646 -0.92500
C 	C 	0.73300 0.50000 0.31450 -0.11100
H 	H 	0.72120 0.50000 0.35870 0.05300
O 	O 	0.80300 0.50000 0.42500 0.20700
O 	O 	0.32908 0.00000 0.40646 -0.86100
C 	C 	0.23300 0.00000 0.31450 -0.15000
H 	H 	0.22120 0.00000 0.35870 0.06100
O 	O 	0.30300 -0.00000 0.42500 0.12800
O 	O 	0.32908 0.50000 0.90646 -0.92400
C 	C 	0.23300 0.50000 0.81450 -0.11000
H 	H 	0.22120 0.50000 0.85870 0.06500
O 	O 	0.30300 0.50000 0.92500 0.27400
O 	O 	0.17092 0.00000 0.09354 -1.61200
C 	C 	0.26700 0.00000 0.18550 0.27200
H 	H 	0.27880 0.00000 0.14130 -0.09800
O 	O 	0.19700 0.00000 0.07500 0.69700
O 	O 	0.17092 0.50000 0.59354 -1.45900
C 	C 	0.26700 0.50000 0.68550 0.22700
H 	H 	0.27880 0.50000 0.64130 -0.07400
O 	O 	0.19700 0.50000 0.57500 0.61600
O 	O 	0.67092 0.00000 0.59354 -1.11100
C 	C 	0.76700 0.00000 0.68550 0.13100
H 	H 	0.77880 -0.00000 0.64130 -0.03800
O 	O 	0.69700 -0.00000 0.57500 0.32100
O 	O 	0.67092 0.50000 0.09354 -1.57300
C 	C 	0.76700 0.50000 0.18550 0.23200
H 	H 	0.77880 0.50000 0.14130 -0.06800
O 	O 	0.69700 0.50000 0.07500 0.71200
O 	O 	-0.00000 0.09354 0.82908 -1.25200
C 	C 	0.00000 0.18550 0.73300 0.09400
H 	H 	-0.00000 0.14130 0.72120 -0.03100
O 	O 	0.00000 0.07500 0.80300 0.42700
O 	O 	0.00000 0.59354 0.32908 -0.98900
C 	C 	0.00000 0.68550 0.23300 -0.01700
H 	H 	-0.00000 0.64130 0.22120 0.01200
O 	O 	-0.00000 0.57500 0.30300 0.22900
O 	O 	0.50000 0.09354 0.32908 -1.45700
C 	C 	0.50000 0.18550 0.23300 0.08500
H 	H 	0.50000 0.14130 0.22120 -0.01900
O 	O 	0.50000 0.07500 0.30300 0.62700
O 	O 	0.50000 0.59354 0.82908 -1.04800
C 	C 	0.50000 0.68550 0.73300 0.03100
H 	H 	0.50000 0.64130 0.72120 -0.00000
O 	O 	0.50000 0.57500 0.80300 0.30300
O 	O 	0.00000 0.90646 0.17092 -1.12900
C 	C 	0.00000 0.81450 0.26700 0.09400
H 	H 	0.00000 0.85870 0.27880 -0.01900
O 	O 	0.00000 0.92500 0.19700 0.38800
O 	O 	0.00000 0.40646 0.67092 -0.97200
C 	C 	-0.00000 0.31450 0.76700 -0.01500
H 	H 	0.00000 0.35870 0.77880 0.01700
O 	O 	0.00000 0.42500 0.69700 0.21100
O 	O 	0.50000 0.90646 0.67092 -1.02100
C 	C 	0.50000 0.81450 0.76700 0.03400
H 	H 	0.50000 0.85870 0.77880 0.01500
O 	O 	0.50000 0.92500 0.69700 0.34000
O 	O 	0.50000 0.40646 0.17092 -1.32400
C 	C 	0.50000 0.31450 0.26700 0.08300
H 	H 	0.50000 0.35870 0.27880 -0.02000
O 	O 	0.50000 0.42500 0.19700 0.51000
O 	O 	0.00000 0.09354 0.17092 -1.61200
C 	C 	-0.00000 0.18550 0.26700 0.27200
H 	H 	-0.00000 0.14130 0.27880 -0.09800
O 	O 	0.00000 0.07500 0.19700 0.69700
O 	O 	0.00000 0.59354 0.67092 -1.11100
C 	C 	-0.00000 0.68550 0.76700 0.13100
H 	H 	-0.00000 0.64130 0.77880 -0.03800
O 	O 	0.00000 0.57500 0.69700 0.32100
O 	O 	0.50000 0.09354 0.67092 -1.57300
C 	C 	0.50000 0.18550 0.76700 0.23200
H 	H 	0.50000 0.14130 0.77880 -0.06800
O 	O 	0.50000 0.07500 0.69700 0.71200
O 	O 	0.50000 0.59354 0.17092 -1.45900
C 	C 	0.50000 0.68550 0.26700 0.22700
H 	H 	0.50000 0.64130 0.27880 -0.07400
O 	O 	0.50000 0.57500 0.19700 0.61600
O 	O 	0.00000 0.90646 0.82908 -0.72100
C 	C 	0.00000 0.81450 0.73300 -0.10200
H 	H 	0.00000 0.85870 0.72120 0.05400
O 	O 	0.00000 0.92500 0.80300 0.07600
O 	O 	-0.00000 0.40646 0.32908 -0.86100
C 	C 	0.00000 0.31450 0.23300 -0.15000
H 	H 	0.00000 0.35870 0.22120 0.06100
O 	O 	0.00000 0.42500 0.30300 0.12800
O 	O 	0.50000 0.90646 0.32908 -0.92400
C 	C 	0.50000 0.81450 0.23300 -0.11000
H 	H 	0.50000 0.85870 0.22120 0.06500
O 	O 	0.50000 0.92500 0.30300 0.27400
O 	O 	0.50000 0.40646 0.82908 -0.92500
C 	C 	0.50000 0.31450 0.73300 -0.11100
H 	H 	0.50000 0.35870 0.72120 0.05300
O 	O 	0.50000 0.42500 0.80300 0.20700
C 	C 	0.15160 0.15160 -0.00000 1.33300
C 	C 	0.20270 0.20270 -0.00000 -0.51100
C 	C 	0.15160 0.65160 0.50000 1.24200
C 	C 	0.20270 0.70270 0.50000 -0.46700
C 	C 	0.65160 0.15160 0.50000 1.24200
C 	C 	0.70270 0.20270 0.50000 -0.46700
C 	C 	0.65160 0.65160 -0.00000 0.85600
C 	C 	0.70270 0.70270 -0.00000 -0.32800
C 	C 	0.84840 0.84840 -0.00000 0.45700
C 	C 	0.79730 0.79730 -0.00000 -0.09300
C 	C 	0.84840 0.34840 0.50000 0.65300
C 	C 	0.79730 0.29730 0.50000 -0.11000
C 	C 	0.34840 0.84840 0.50000 0.65300
C 	C 	0.29730 0.79730 0.50000 -0.11000
C 	C 	0.34840 0.34840 -0.00000 0.60200
C 	C 	0.29730 0.29730 -0.00000 -0.06100
C 	C 	0.84840 0.15160 -0.00000 0.91600
C 	C 	0.79730 0.20270 -0.00000 -0.31300
C 	C 	0.84840 0.65160 0.50000 0.76800
C 	C 	0.79730 0.70270 0.50000 -0.24400
C 	C 	0.34840 0.15160 0.50000 1.11400
C 	C 	0.29730 0.20270 0.50000 -0.32900
C 	C 	0.34840 0.65160 -0.00000 0.72400
C 	C 	0.29730 0.70270 -0.00000 -0.18800
C 	C 	0.15160 0.84840 -0.00000 0.91600
C 	C 	0.20270 0.79730 -0.00000 -0.31300
C 	C 	0.15160 0.34840 0.50000 1.11400
C 	C 	0.20270 0.29730 0.50000 -0.32900
C 	C 	0.65160 0.84840 0.50000 0.76800
C 	C 	0.70270 0.79730 0.50000 -0.24400
C 	C 	0.65160 0.34840 -0.00000 0.72400
C 	C 	0.70270 0.29730 -0.00000 -0.18800
C 	C 	0.00000 0.15160 0.15160 1.33300
C 	C 	0.00000 0.20270 0.20270 -0.51100
C 	C 	0.00000 0.65160 0.65160 0.85600
C 	C 	0.00000 0.70270 0.70270 -0.32800
C 	C 	0.50000 0.15160 0.65160 1.24200
C 	C 	0.50000 0.20270 0.70270 -0.46700
C 	C 	0.50000 0.65160 0.15160 1.24200
C 	C 	0.50000 0.70270 0.20270 -0.46700
C 	C 	0.00000 0.84840 0.84840 0.45700
C 	C 	0.00000 0.79730 0.79730 -0.09300
C 	C 	0.00000 0.34840 0.34840 0.60200
C 	C 	0.00000 0.29730 0.29730 -0.06100
C 	C 	0.50000 0.84840 0.34840 0.65300
C 	C 	0.50000 0.79730 0.29730 -0.11000
C 	C 	0.50000 0.34840 0.84840 0.65300
C 	C 	0.50000 0.29730 0.79730 -0.11000
C 	C 	0.00000 0.84840 0.15160 0.91600
C 	C 	0.00000 0.79730 0.20270 -0.31300
C 	C 	-0.00000 0.34840 0.65160 0.72400
C 	C 	0.00000 0.29730 0.70270 -0.18800
C 	C 	0.50000 0.84840 0.65160 0.76800
C 	C 	0.50000 0.79730 0.70270 -0.24400
C 	C 	0.50000 0.34840 0.15160 1.11400
C 	C 	0.50000 0.29730 0.20270 -0.32900
C 	C 	0.00000 0.15160 0.84840 0.91600
C 	C 	0.00000 0.20270 0.79730 -0.31300
C 	C 	-0.00000 0.65160 0.34840 0.72400
C 	C 	0.00000 0.70270 0.29730 -0.18800
C 	C 	0.50000 0.15160 0.34840 1.11400
C 	C 	0.50000 0.20270 0.29730 -0.32900
C 	C 	0.50000 0.65160 0.84840 0.76800
C 	C 	0.50000 0.70270 0.79730 -0.24400
C 	C 	0.15160 0.00000 0.15160 1.33300
C 	C 	0.20270 0.00000 0.20270 -0.51100
C 	C 	0.15160 0.50000 0.65160 1.24200
C 	C 	0.20270 0.50000 0.70270 -0.46700
C 	C 	0.65160 0.00000 0.65160 0.85600
C 	C 	0.70270 0.00000 0.70270 -0.32800
C 	C 	0.65160 0.50000 0.15160 1.24200
C 	C 	0.70270 0.50000 0.20270 -0.46700
C 	C 	0.84840 0.00000 0.84840 0.45700
C 	C 	0.79730 0.00000 0.79730 -0.09300
C 	C 	0.84840 0.50000 0.34840 0.65300
C 	C 	0.79730 0.50000 0.29730 -0.11000
C 	C 	0.34840 0.00000 0.34840 0.60200
C 	C 	0.29730 0.00000 0.29730 -0.06100
C 	C 	0.34840 0.50000 0.84840 0.65300
C 	C 	0.29730 0.50000 0.79730 -0.11000
C 	C 	0.15160 0.00000 0.84840 0.91600
C 	C 	0.20270 0.00000 0.79730 -0.31300
C 	C 	0.15160 0.50000 0.34840 1.11400
C 	C 	0.20270 0.50000 0.29730 -0.32900
C 	C 	0.65160 0.00000 0.34840 0.72400
C 	C 	0.70270 0.00000 0.29730 -0.18800
C 	C 	0.65160 0.50000 0.84840 0.76800
C 	C 	0.70270 0.50000 0.79730 -0.24400
C 	C 	0.84840 0.00000 0.15160 0.91600
C 	C 	0.79730 0.00000 0.20270 -0.31300
C 	C 	0.84840 0.50000 0.65160 0.76800
C 	C 	0.79730 0.50000 0.70270 -0.24400
C 	C 	0.34840 0.00000 0.65160 0.72400
C 	C 	0.29730 0.00000 0.70270 -0.18800
C 	C 	0.34840 0.50000 0.15160 1.11400
C 	C 	0.29730 0.50000 0.20270 -0.32900
O 	O 	0.06720 0.06720 0.06720 24.31200
O 	O 	0.05020 0.05020 0.05020 -21.58100
H 	H 	0.09450 0.09450 0.09450 -7.18700
O 	O 	0.06720 0.56720 0.56720 10.65500
O 	O 	0.05020 0.55020 0.55020 -9.91400
H 	H 	0.09450 0.59450 0.59450 -3.16700
O 	O 	0.56720 0.06720 0.56720 10.65500
O 	O 	0.55020 0.05020 0.55020 -9.91400
H 	H 	0.59450 0.09450 0.59450 -3.16700
O 	O 	0.56720 0.56720 0.06720 10.65500
O 	O 	0.55020 0.55020 0.05020 -9.91400
H 	H 	0.59450 0.59450 0.09450 -3.16700
O 	O 	0.93280 0.93280 0.06720 -4.93000
O 	O 	0.94980 0.94980 0.05020 3.41200
H 	H 	0.90550 0.90550 0.09450 1.45300
O 	O 	0.93280 0.43280 0.56720 -5.27800
O 	O 	0.94980 0.44980 0.55020 3.69400
H 	H 	0.90550 0.40550 0.59450 1.53800
O 	O 	0.43280 0.93280 0.56720 -5.27800
O 	O 	0.44980 0.94980 0.55020 3.69400
H 	H 	0.40550 0.90550 0.59450 1.53800
O 	O 	0.43280 0.43280 0.06720 9.48700
O 	O 	0.44980 0.44980 0.05020 -8.92800
H 	H 	0.40550 0.40550 0.09450 -2.82500
O 	O 	0.93280 0.06720 0.93280 -4.93000
O 	O 	0.94980 0.05020 0.94980 3.41200
H 	H 	0.90550 0.09450 0.90550 1.45300
O 	O 	0.93280 0.56720 0.43280 -5.27800
O 	O 	0.94980 0.55020 0.44980 3.69400
H 	H 	0.90550 0.59450 0.40550 1.53800
O 	O 	0.43280 0.06720 0.43280 9.48700
O 	O 	0.44980 0.05020 0.44980 -8.92800
H 	H 	0.40550 0.09450 0.40550 -2.82500
O 	O 	0.43280 0.56720 0.93280 -5.27800
O 	O 	0.44980 0.55020 0.94980 3.69400
H 	H 	0.40550 0.59450 0.90550 1.53800
O 	O 	0.06720 0.93280 0.93280 -4.93000
O 	O 	0.05020 0.94980 0.94980 3.41200
H 	H 	0.09450 0.90550 0.90550 1.45300
O 	O 	0.06720 0.43280 0.43280 9.48700
O 	O 	0.05020 0.44980 0.44980 -8.92800
H 	H 	0.09450 0.40550 0.40550 -2.82500
O 	O 	0.56720 0.93280 0.43280 -5.27800
O 	O 	0.55020 0.94980 0.44980 3.69400
H 	H 	0.59450 0.90550 0.40550 1.53800
O 	O 	0.56720 0.43280 0.93280 -5.27800
O 	O 	0.55020 0.44980 0.94980 3.69400
H 	H 	0.59450 0.40550 0.90550 1.53800
O 	O 	0.06720 0.06720 0.93280 9.75200
O 	O 	0.05020 0.05020 0.94980 -9.13300
H 	H 	0.09450 0.09450 0.90550 -2.88300
O 	O 	0.06720 0.56720 0.43280 10.07200
O 	O 	0.05020 0.55020 0.44980 -9.42200
H 	H 	0.09450 0.59450 0.40550 -2.99600
O 	O 	0.56720 0.06720 0.43280 10.07200
O 	O 	0.55020 0.05020 0.44980 -9.42200
H 	H 	0.59450 0.09450 0.40550 -2.99600
O 	O 	0.56720 0.56720 0.93280 -4.70100
O 	O 	0.55020 0.55020 0.94980 3.20600
H 	H 	0.59450 0.59450 0.90550 1.36800
O 	O 	0.93280 0.93280 0.93280 -19.73300
O 	O 	0.94980 0.94980 0.94980 16.05400
H 	H 	0.90550 0.90550 0.90550 5.81800
O 	O 	0.93280 0.43280 0.43280 -5.85600
O 	O 	0.94980 0.44980 0.44980 4.18400
H 	H 	0.90550 0.40550 0.40550 1.70800
O 	O 	0.43280 0.93280 0.43280 -5.85600
O 	O 	0.44980 0.94980 0.44980 4.18400
H 	H 	0.40550 0.90550 0.40550 1.70800
O 	O 	0.43280 0.43280 0.93280 -5.85600
O 	O 	0.44980 0.44980 0.94980 4.18400
H 	H 	0.40550 0.40550 0.90550 1.70800
O 	O 	0.06720 0.93280 0.06720 9.75200
O 	O 	0.05020 0.94980 0.05020 -9.13300
H 	H 	0.09450 0.90550 0.09450 -2.88300
O 	O 	0.06720 0.43280 0.56720 10.07200
O 	O 	0.05020 0.44980 0.55020 -9.42200
H 	H 	0.09450 0.40550 0.59450 -2.99600
O 	O 	0.56720 0.93280 0.56720 -4.70100
O 	O 	0.55020 0.94980 0.55020 3.20600
H 	H 	0.59450 0.90550 0.59450 1.36800
O 	O 	0.56720 0.43280 0.06720 10.07200
O 	O 	0.55020 0.44980 0.05020 -9.42200
H 	H 	0.59450 0.40550 0.09450 -2.99600
O 	O 	0.93280 0.06720 0.06720 9.75200
O 	O 	0.94980 0.05020 0.05020 -9.13300
H 	H 	0.90550 0.09450 0.09450 -2.88300
O 	O 	0.93280 0.56720 0.56720 -4.70100
O 	O 	0.94980 0.55020 0.55020 3.20600
H 	H 	0.90550 0.59450 0.59450 1.36800
O 	O 	0.43280 0.06720 0.56720 10.07200
O 	O 	0.44980 0.05020 0.55020 -9.42200
H 	H 	0.40550 0.09450 0.59450 -2.99600
O 	O 	0.43280 0.56720 0.06720 10.07200
O 	O 	0.44980 0.55020 0.05020 -9.42200
H 	H 	0.40550 0.59450 0.09450 -2.99600
