data_crystal

_cell_length_a 20.75740
_cell_length_b 20.75740
_cell_length_c 20.75740
_cell_angle_alpha 90.00000
_cell_angle_beta  90.00000
_cell_angle_gamma 90.00000

_symmetry_space_group_name_	'P 1'
_symmetry_space_group_name_H-M	'P 1'

loop_
_symmetry_equiv_pos_as_xyz
  x,y,z

loop_
_atom_site_label
_atom_site_type_symbol
_atom_site_fract_x
_atom_site_fract_y
_atom_site_fract_z
_atom_site_charge
Zr	Zr	0.11950 0.00000 -0.00000 3.18000
Zr	Zr	0.11950 0.50000 0.50000 3.10800
Zr	Zr	0.61950 0.00000 0.50000 3.30300
Zr	Zr	0.61950 0.50000 -0.00000 3.30300
Zr	Zr	0.88050 0.00000 -0.00000 3.46800
Zr	Zr	0.88050 0.50000 0.50000 3.39800
Zr	Zr	0.38050 0.00000 0.50000 3.27800
Zr	Zr	0.38050 0.50000 -0.00000 3.27800
Zr	Zr	-0.00000 0.11950 -0.00000 3.18100
Zr	Zr	-0.00000 0.61950 0.50000 3.30400
Zr	Zr	0.50000 0.11950 0.50000 3.10900
Zr	Zr	0.50000 0.61950 -0.00000 3.30400
Zr	Zr	-0.00000 0.88050 -0.00000 3.46900
Zr	Zr	-0.00000 0.38050 0.50000 3.27800
Zr	Zr	0.50000 0.88050 0.50000 3.39900
Zr	Zr	0.50000 0.38050 -0.00000 3.27800
Zr	Zr	0.00000 0.00000 0.11950 3.18100
Zr	Zr	-0.00000 0.50000 0.61950 3.30400
Zr	Zr	0.50000 -0.00000 0.61950 3.30400
Zr	Zr	0.50000 0.50000 0.11950 3.10900
Zr	Zr	0.00000 0.00000 0.88050 3.46900
Zr	Zr	0.00000 0.50000 0.38050 3.27800
Zr	Zr	0.50000 0.00000 0.38050 3.27800
Zr	Zr	0.50000 0.50000 0.88050 3.39900
O 	O 	0.17088 0.09379 -0.00000 -9.79000
C 	C 	0.18548 0.26704 -0.00000 3.24400
H 	H 	0.14220 0.27860 -0.00000 -1.96600
O 	O 	0.19210 0.07810 -0.00000 5.24800
O 	O 	0.17088 0.59379 0.50000 -37.86000
C 	C 	0.18548 0.76704 0.50000 1.46700
H 	H 	0.14220 0.77860 0.50000 0.44100
O 	O 	0.19210 0.57810 0.50000 33.12100
O 	O 	0.67088 0.09379 0.50000 31.22500
C 	C 	0.68548 0.26704 0.50000 3.25900
H 	H 	0.64220 0.27860 0.50000 -2.56600
O 	O 	0.69210 0.07810 0.50000 -30.53200
O 	O 	0.67088 0.59379 -0.00000 3.69100
C 	C 	0.68548 0.76704 -0.00000 1.71600
H 	H 	0.64220 0.77860 -0.00000 -0.09000
O 	O 	0.69210 0.57810 -0.00000 -2.87900
O 	O 	0.82912 0.90621 -0.00000 10.46600
C 	C 	0.81452 0.73296 -0.00000 -3.20200
H 	H 	0.85780 0.72140 -0.00000 2.21000
O 	O 	0.80790 0.92190 -0.00000 -6.64600
O 	O 	0.82912 0.40621 0.50000 36.00600
C 	C 	0.81452 0.23296 0.50000 -1.63700
H 	H 	0.85780 0.22140 0.50000 -0.20900
O 	O 	0.80790 0.42190 0.50000 -32.41800
O 	O 	0.32912 0.90621 0.50000 -29.16900
C 	C 	0.31452 0.73296 0.50000 -3.39600
H 	H 	0.35780 0.72140 0.50000 2.66200
O 	O 	0.30790 0.92190 0.50000 27.57000
O 	O 	0.32912 0.40621 -0.00000 -2.40200
C 	C 	0.31452 0.23296 -0.00000 -2.10200
H 	H 	0.35780 0.22140 -0.00000 0.55000
O 	O 	0.30790 0.42190 -0.00000 1.19800
O 	O 	0.82912 0.09379 -0.00000 57.92500
C 	C 	0.81452 0.26704 -0.00000 1.04500
H 	H 	0.85780 0.27860 -0.00000 -2.37500
O 	O 	0.80790 0.07810 -0.00000 -53.72500
O 	O 	0.82912 0.59379 0.50000 27.29900
C 	C 	0.81452 0.76704 0.50000 -0.62300
H 	H 	0.85780 0.77860 0.50000 0.04900
O 	O 	0.80790 0.57810 0.50000 -23.61500
O 	O 	0.32912 0.09379 0.50000 16.54000
C 	C 	0.31452 0.26704 0.50000 0.66500
H 	H 	0.35780 0.27860 0.50000 -1.73900
O 	O 	0.30790 0.07810 0.50000 -17.76200
O 	O 	0.32912 0.59379 -0.00000 -11.01000
C 	C 	0.31452 0.76704 -0.00000 -1.01100
H 	H 	0.35780 0.77860 -0.00000 0.77000
O 	O 	0.30790 0.57810 -0.00000 9.90500
O 	O 	0.17088 0.90621 -0.00000 -57.28100
C 	C 	0.18548 0.73296 -0.00000 -0.99300
H 	H 	0.14220 0.72140 -0.00000 2.61000
O 	O 	0.19210 0.92190 -0.00000 52.34300
O 	O 	0.17088 0.40621 0.50000 -29.20100
C 	C 	0.18548 0.23296 0.50000 0.45300
H 	H 	0.14220 0.22140 0.50000 0.19200
O 	O 	0.19210 0.42190 0.50000 24.36600
O 	O 	0.67088 0.90621 0.50000 -14.40800
C 	C 	0.68548 0.73296 0.50000 -0.80200
H 	H 	0.64220 0.72140 0.50000 1.83500
O 	O 	0.69210 0.92190 0.50000 14.73600
O 	O 	0.67088 0.40621 -0.00000 12.29500
C 	C 	0.68548 0.23296 -0.00000 0.61600
H 	H 	0.64220 0.22140 -0.00000 -0.30800
O 	O 	0.69210 0.42190 -0.00000 -11.58400
O 	O 	0.00000 0.17088 0.09379 -9.79000
C 	C 	-0.00000 0.18548 0.26704 3.24400
H 	H 	0.00000 0.14220 0.27860 -1.96600
O 	O 	0.00000 0.19210 0.07810 5.24800
O 	O 	0.00000 0.67088 0.59379 3.69100
C 	C 	0.00000 0.68548 0.76704 1.71600
H 	H 	-0.00000 0.64220 0.77860 -0.09000
O 	O 	-0.00000 0.69210 0.57810 -2.87900
O 	O 	0.50000 0.17088 0.59379 -37.86000
C 	C 	0.50000 0.18548 0.76704 1.46700
H 	H 	0.50000 0.14220 0.77860 0.44100
O 	O 	0.50000 0.19210 0.57810 33.12100
O 	O 	0.50000 0.67088 0.09379 31.22500
C 	C 	0.50000 0.68548 0.26704 3.25900
H 	H 	0.50000 0.64220 0.27860 -2.56600
O 	O 	0.50000 0.69210 0.07810 -30.53200
O 	O 	-0.00000 0.82912 0.90621 10.46600
C 	C 	0.00000 0.81452 0.73296 -3.20200
H 	H 	0.00000 0.85780 0.72140 2.21000
O 	O 	0.00000 0.80790 0.92190 -6.64600
O 	O 	-0.00000 0.32912 0.40621 -2.40200
C 	C 	0.00000 0.31452 0.23296 -2.10200
H 	H 	0.00000 0.35780 0.22140 0.55000
O 	O 	-0.00000 0.30790 0.42190 1.19800
O 	O 	0.50000 0.82912 0.40621 36.00600
C 	C 	0.50000 0.81452 0.23296 -1.63700
H 	H 	0.50000 0.85780 0.22140 -0.20900
O 	O 	0.50000 0.80790 0.42190 -32.41800
O 	O 	0.50000 0.32912 0.90621 -29.16900
C 	C 	0.50000 0.31452 0.73296 -3.39600
H 	H 	0.50000 0.35780 0.72140 2.66200
O 	O 	0.50000 0.30790 0.92190 27.57000
O 	O 	-0.00000 0.82912 0.09379 57.92500
C 	C 	-0.00000 0.81452 0.26704 1.04500
H 	H 	-0.00000 0.85780 0.27860 -2.37500
O 	O 	0.00000 0.80790 0.07810 -53.72500
O 	O 	0.00000 0.32912 0.59379 -11.01000
C 	C 	-0.00000 0.31452 0.76704 -1.01100
H 	H 	-0.00000 0.35780 0.77860 0.77000
O 	O 	-0.00000 0.30790 0.57810 9.90500
O 	O 	0.50000 0.82912 0.59379 27.29900
C 	C 	0.50000 0.81452 0.76704 -0.62300
H 	H 	0.50000 0.85780 0.77860 0.04900
O 	O 	0.50000 0.80790 0.57810 -23.61500
O 	O 	0.50000 0.32912 0.09379 16.54000
C 	C 	0.50000 0.31452 0.26704 0.66500
H 	H 	0.50000 0.35780 0.27860 -1.73900
O 	O 	0.50000 0.30790 0.07810 -17.76200
O 	O 	-0.00000 0.17088 0.90621 -57.28100
C 	C 	0.00000 0.18548 0.73296 -0.99300
H 	H 	-0.00000 0.14220 0.72140 2.61000
O 	O 	0.00000 0.19210 0.92190 52.34300
O 	O 	0.00000 0.67088 0.40621 12.29500
C 	C 	-0.00000 0.68548 0.23296 0.61600
H 	H 	0.00000 0.64220 0.22140 -0.30800
O 	O 	-0.00000 0.69210 0.42190 -11.58400
O 	O 	0.50000 0.17088 0.40621 -29.20100
C 	C 	0.50000 0.18548 0.23296 0.45300
H 	H 	0.50000 0.14220 0.22140 0.19200
O 	O 	0.50000 0.19210 0.42190 24.36600
O 	O 	0.50000 0.67088 0.90621 -14.40800
C 	C 	0.50000 0.68548 0.73296 -0.80200
H 	H 	0.50000 0.64220 0.72140 1.83500
O 	O 	0.50000 0.69210 0.92190 14.73600
O 	O 	0.09379 0.00000 0.17088 -9.79000
C 	C 	0.26704 -0.00000 0.18548 3.24400
H 	H 	0.27860 0.00000 0.14220 -1.96600
O 	O 	0.07810 0.00000 0.19210 5.24800
O 	O 	0.09379 0.50000 0.67088 31.22500
C 	C 	0.26704 0.50000 0.68548 3.25900
H 	H 	0.27860 0.50000 0.64220 -2.56600
O 	O 	0.07810 0.50000 0.69210 -30.53200
O 	O 	0.59379 0.00000 0.67088 3.69100
C 	C 	0.76704 -0.00000 0.68548 1.71600
H 	H 	0.77860 0.00000 0.64220 -0.09000
O 	O 	0.57810 0.00000 0.69210 -2.87900
O 	O 	0.59379 0.50000 0.17088 -37.86000
C 	C 	0.76704 0.50000 0.18548 1.46700
H 	H 	0.77860 0.50000 0.14220 0.44100
O 	O 	0.57810 0.50000 0.19210 33.12100
O 	O 	0.90621 -0.00000 0.82912 10.46600
C 	C 	0.73296 -0.00000 0.81452 -3.20200
H 	H 	0.72140 0.00000 0.85780 2.21000
O 	O 	0.92190 0.00000 0.80790 -6.64600
O 	O 	0.90621 0.50000 0.32912 -29.16900
C 	C 	0.73296 0.50000 0.31452 -3.39600
H 	H 	0.72140 0.50000 0.35780 2.66200
O 	O 	0.92190 0.50000 0.30790 27.57000
O 	O 	0.40621 -0.00000 0.32912 -2.40200
C 	C 	0.23296 0.00000 0.31452 -2.10200
H 	H 	0.22140 0.00000 0.35780 0.55000
O 	O 	0.42190 -0.00000 0.30790 1.19800
O 	O 	0.40621 0.50000 0.82912 36.00600
C 	C 	0.23296 0.50000 0.81452 -1.63700
H 	H 	0.22140 0.50000 0.85780 -0.20900
O 	O 	0.42190 0.50000 0.80790 -32.41800
O 	O 	0.09379 -0.00000 0.82912 57.92500
C 	C 	0.26704 -0.00000 0.81452 1.04500
H 	H 	0.27860 0.00000 0.85780 -2.37500
O 	O 	0.07810 0.00000 0.80790 -53.72500
O 	O 	0.09379 0.50000 0.32912 16.54000
C 	C 	0.26704 0.50000 0.31452 0.66500
H 	H 	0.27860 0.50000 0.35780 -1.73900
O 	O 	0.07810 0.50000 0.30790 -17.76200
O 	O 	0.59379 -0.00000 0.32912 -11.01000
C 	C 	0.76704 0.00000 0.31452 -1.01100
H 	H 	0.77860 0.00000 0.35780 0.77000
O 	O 	0.57810 -0.00000 0.30790 9.90500
O 	O 	0.59379 0.50000 0.82912 27.29900
C 	C 	0.76704 0.50000 0.81452 -0.62300
H 	H 	0.77860 0.50000 0.85780 0.04900
O 	O 	0.57810 0.50000 0.80790 -23.61500
O 	O 	0.90621 0.00000 0.17088 -57.28100
C 	C 	0.73296 -0.00000 0.18548 -0.99300
H 	H 	0.72140 0.00000 0.14220 2.61000
O 	O 	0.92190 0.00000 0.19210 52.34300
O 	O 	0.90621 0.50000 0.67088 -14.40800
C 	C 	0.73296 0.50000 0.68548 -0.80200
H 	H 	0.72140 0.50000 0.64220 1.83500
O 	O 	0.92190 0.50000 0.69210 14.73600
O 	O 	0.40621 0.00000 0.67088 12.29500
C 	C 	0.23296 -0.00000 0.68548 0.61600
H 	H 	0.22140 0.00000 0.64220 -0.30800
O 	O 	0.42190 0.00000 0.69210 -11.58400
O 	O 	0.40621 0.50000 0.17088 -29.20100
C 	C 	0.23296 0.50000 0.18548 0.45300
H 	H 	0.22140 0.50000 0.14220 0.19200
O 	O 	0.42190 0.50000 0.19210 24.36600
O 	O 	0.09379 0.17088 -0.00000 -9.79000
C 	C 	0.26704 0.18548 -0.00000 3.24400
H 	H 	0.27860 0.14220 -0.00000 -1.96600
O 	O 	0.07810 0.19210 -0.00000 5.24800
O 	O 	0.09379 0.67088 0.50000 31.22500
C 	C 	0.26704 0.68548 0.50000 3.25900
H 	H 	0.27860 0.64220 0.50000 -2.56600
O 	O 	0.07810 0.69210 0.50000 -30.53200
O 	O 	0.59379 0.17088 0.50000 -37.86000
C 	C 	0.76704 0.18548 0.50000 1.46700
H 	H 	0.77860 0.14220 0.50000 0.44100
O 	O 	0.57810 0.19210 0.50000 33.12100
O 	O 	0.59379 0.67088 -0.00000 3.69100
C 	C 	0.76704 0.68548 -0.00000 1.71600
H 	H 	0.77860 0.64220 -0.00000 -0.09000
O 	O 	0.57810 0.69210 -0.00000 -2.87900
O 	O 	0.90621 0.82912 -0.00000 10.46600
C 	C 	0.73296 0.81452 -0.00000 -3.20200
H 	H 	0.72140 0.85780 -0.00000 2.21000
O 	O 	0.92190 0.80790 -0.00000 -6.64600
O 	O 	0.90621 0.32912 0.50000 -29.16900
C 	C 	0.73296 0.31452 0.50000 -3.39600
H 	H 	0.72140 0.35780 0.50000 2.66200
O 	O 	0.92190 0.30790 0.50000 27.57000
O 	O 	0.40621 0.82912 0.50000 36.00600
C 	C 	0.23296 0.81452 0.50000 -1.63700
H 	H 	0.22140 0.85780 0.50000 -0.20900
O 	O 	0.42190 0.80790 0.50000 -32.41800
O 	O 	0.40621 0.32912 -0.00000 -2.40200
C 	C 	0.23296 0.31452 -0.00000 -2.10200
H 	H 	0.22140 0.35780 -0.00000 0.55000
O 	O 	0.42190 0.30790 -0.00000 1.19800
O 	O 	0.09379 0.82912 -0.00000 57.92500
C 	C 	0.26704 0.81452 -0.00000 1.04500
H 	H 	0.27860 0.85780 -0.00000 -2.37500
O 	O 	0.07810 0.80790 -0.00000 -53.72500
O 	O 	0.09379 0.32912 0.50000 16.54000
C 	C 	0.26704 0.31452 0.50000 0.66500
H 	H 	0.27860 0.35780 0.50000 -1.73900
O 	O 	0.07810 0.30790 0.50000 -17.76200
O 	O 	0.59379 0.82912 0.50000 27.29900
C 	C 	0.76704 0.81452 0.50000 -0.62300
H 	H 	0.77860 0.85780 0.50000 0.04900
O 	O 	0.57810 0.80790 0.50000 -23.61500
O 	O 	0.59379 0.32912 -0.00000 -11.01000
C 	C 	0.76704 0.31452 -0.00000 -1.01100
H 	H 	0.77860 0.35780 -0.00000 0.77000
O 	O 	0.57810 0.30790 -0.00000 9.90500
O 	O 	0.90621 0.17088 -0.00000 -57.28100
C 	C 	0.73296 0.18548 -0.00000 -0.99300
H 	H 	0.72140 0.14220 -0.00000 2.61000
O 	O 	0.92190 0.19210 -0.00000 52.34300
O 	O 	0.90621 0.67088 0.50000 -14.40800
C 	C 	0.73296 0.68548 0.50000 -0.80200
H 	H 	0.72140 0.64220 0.50000 1.83500
O 	O 	0.92190 0.69210 0.50000 14.73600
O 	O 	0.40621 0.17088 0.50000 -29.20100
C 	C 	0.23296 0.18548 0.50000 0.45300
H 	H 	0.22140 0.14220 0.50000 0.19200
O 	O 	0.42190 0.19210 0.50000 24.36600
O 	O 	0.40621 0.67088 -0.00000 12.29500
C 	C 	0.23296 0.68548 -0.00000 0.61600
H 	H 	0.22140 0.64220 -0.00000 -0.30800
O 	O 	0.42190 0.69210 -0.00000 -11.58400
O 	O 	0.17088 -0.00000 0.90621 -57.28100
C 	C 	0.18548 0.00000 0.73296 -0.99300
H 	H 	0.14220 0.00000 0.72140 2.61000
O 	O 	0.19210 -0.00000 0.92190 52.34300
O 	O 	0.17088 0.50000 0.40621 -29.20100
C 	C 	0.18548 0.50000 0.23296 0.45300
H 	H 	0.14220 0.50000 0.22140 0.19200
O 	O 	0.19210 0.50000 0.42190 24.36600
O 	O 	0.67088 -0.00000 0.40621 12.29500
C 	C 	0.68548 0.00000 0.23296 0.61600
H 	H 	0.64220 -0.00000 0.22140 -0.30800
O 	O 	0.69210 0.00000 0.42190 -11.58400
O 	O 	0.67088 0.50000 0.90621 -14.40800
C 	C 	0.68548 0.50000 0.73296 -0.80200
H 	H 	0.64220 0.50000 0.72140 1.83500
O 	O 	0.69210 0.50000 0.92190 14.73600
O 	O 	0.82912 -0.00000 0.09379 57.92500
C 	C 	0.81452 0.00000 0.26704 1.04500
H 	H 	0.85780 0.00000 0.27860 -2.37500
O 	O 	0.80790 0.00000 0.07810 -53.72500
O 	O 	0.82912 0.50000 0.59379 27.29900
C 	C 	0.81452 0.50000 0.76704 -0.62300
H 	H 	0.85780 0.50000 0.77860 0.04900
O 	O 	0.80790 0.50000 0.57810 -23.61500
O 	O 	0.32912 0.00000 0.59379 -11.01000
C 	C 	0.31452 0.00000 0.76704 -1.01100
H 	H 	0.35780 -0.00000 0.77860 0.77000
O 	O 	0.30790 0.00000 0.57810 9.90500
O 	O 	0.32912 0.50000 0.09379 16.54000
C 	C 	0.31452 0.50000 0.26704 0.66500
H 	H 	0.35780 0.50000 0.27860 -1.73900
O 	O 	0.30790 0.50000 0.07810 -17.76200
O 	O 	0.82912 -0.00000 0.90621 10.46600
C 	C 	0.81452 0.00000 0.73296 -3.20200
H 	H 	0.85780 0.00000 0.72140 2.21000
O 	O 	0.80790 -0.00000 0.92190 -6.64600
O 	O 	0.82912 0.50000 0.40621 36.00600
C 	C 	0.81452 0.50000 0.23296 -1.63700
H 	H 	0.85780 0.50000 0.22140 -0.20900
O 	O 	0.80790 0.50000 0.42190 -32.41800
O 	O 	0.32912 -0.00000 0.40621 -2.40200
C 	C 	0.31452 0.00000 0.23296 -2.10200
H 	H 	0.35780 -0.00000 0.22140 0.55000
O 	O 	0.30790 0.00000 0.42190 1.19800
O 	O 	0.32912 0.50000 0.90621 -29.16900
C 	C 	0.31452 0.50000 0.73296 -3.39600
H 	H 	0.35780 0.50000 0.72140 2.66200
O 	O 	0.30790 0.50000 0.92190 27.57000
O 	O 	0.17088 -0.00000 0.09379 -9.79000
C 	C 	0.18548 0.00000 0.26704 3.24400
H 	H 	0.14220 0.00000 0.27860 -1.96600
O 	O 	0.19210 0.00000 0.07810 5.24800
O 	O 	0.17088 0.50000 0.59379 -37.86000
C 	C 	0.18548 0.50000 0.76704 1.46700
H 	H 	0.14220 0.50000 0.77860 0.44100
O 	O 	0.19210 0.50000 0.57810 33.12100
O 	O 	0.67088 0.00000 0.59379 3.69100
C 	C 	0.68548 0.00000 0.76704 1.71600
H 	H 	0.64220 -0.00000 0.77860 -0.09000
O 	O 	0.69210 0.00000 0.57810 -2.87900
O 	O 	0.67088 0.50000 0.09379 31.22500
C 	C 	0.68548 0.50000 0.26704 3.25900
H 	H 	0.64220 0.50000 0.27860 -2.56600
O 	O 	0.69210 0.50000 0.07810 -30.53200
O 	O 	-0.00000 0.09379 0.82912 57.92500
C 	C 	-0.00000 0.26704 0.81452 1.04500
H 	H 	-0.00000 0.27860 0.85780 -2.37500
O 	O 	0.00000 0.07810 0.80790 -53.72500
O 	O 	0.00000 0.59379 0.32912 -11.01000
C 	C 	-0.00000 0.76704 0.31452 -1.01100
H 	H 	-0.00000 0.77860 0.35780 0.77000
O 	O 	-0.00000 0.57810 0.30790 9.90500
O 	O 	0.50000 0.09379 0.32912 16.54000
C 	C 	0.50000 0.26704 0.31452 0.66500
H 	H 	0.50000 0.27860 0.35780 -1.73900
O 	O 	0.50000 0.07810 0.30790 -17.76200
O 	O 	0.50000 0.59379 0.82912 27.29900
C 	C 	0.50000 0.76704 0.81452 -0.62300
H 	H 	0.50000 0.77860 0.85780 0.04900
O 	O 	0.50000 0.57810 0.80790 -23.61500
O 	O 	-0.00000 0.90621 0.17088 -57.28100
C 	C 	0.00000 0.73296 0.18548 -0.99300
H 	H 	-0.00000 0.72140 0.14220 2.61000
O 	O 	0.00000 0.92190 0.19210 52.34300
O 	O 	0.00000 0.40621 0.67088 12.29500
C 	C 	-0.00000 0.23296 0.68548 0.61600
H 	H 	0.00000 0.22140 0.64220 -0.30800
O 	O 	-0.00000 0.42190 0.69210 -11.58400
O 	O 	0.50000 0.90621 0.67088 -14.40800
C 	C 	0.50000 0.73296 0.68548 -0.80200
H 	H 	0.50000 0.72140 0.64220 1.83500
O 	O 	0.50000 0.92190 0.69210 14.73600
O 	O 	0.50000 0.40621 0.17088 -29.20100
C 	C 	0.50000 0.23296 0.18548 0.45300
H 	H 	0.50000 0.22140 0.14220 0.19200
O 	O 	0.50000 0.42190 0.19210 24.36600
O 	O 	-0.00000 0.09379 0.17088 -9.79000
C 	C 	-0.00000 0.26704 0.18548 3.24400
H 	H 	0.00000 0.27860 0.14220 -1.96600
O 	O 	0.00000 0.07810 0.19210 5.24800
O 	O 	0.00000 0.59379 0.67088 3.69100
C 	C 	0.00000 0.76704 0.68548 1.71600
H 	H 	-0.00000 0.77860 0.64220 -0.09000
O 	O 	-0.00000 0.57810 0.69210 -2.87900
O 	O 	0.50000 0.09379 0.67088 31.22500
C 	C 	0.50000 0.26704 0.68548 3.25900
H 	H 	0.50000 0.27860 0.64220 -2.56600
O 	O 	0.50000 0.07810 0.69210 -30.53200
O 	O 	0.50000 0.59379 0.17088 -37.86000
C 	C 	0.50000 0.76704 0.18548 1.46700
H 	H 	0.50000 0.77860 0.14220 0.44100
O 	O 	0.50000 0.57810 0.19210 33.12100
O 	O 	-0.00000 0.90621 0.82912 10.46600
C 	C 	0.00000 0.73296 0.81452 -3.20200
H 	H 	-0.00000 0.72140 0.85780 2.21000
O 	O 	0.00000 0.92190 0.80790 -6.64600
O 	O 	-0.00000 0.40621 0.32912 -2.40200
C 	C 	0.00000 0.23296 0.31452 -2.10200
H 	H 	-0.00000 0.22140 0.35780 0.55000
O 	O 	-0.00000 0.42190 0.30790 1.19800
O 	O 	0.50000 0.90621 0.32912 -29.16900
C 	C 	0.50000 0.73296 0.31452 -3.39600
H 	H 	0.50000 0.72140 0.35780 2.66200
O 	O 	0.50000 0.92190 0.30790 27.57000
O 	O 	0.50000 0.40621 0.82912 36.00600
C 	C 	0.50000 0.23296 0.81452 -1.63700
H 	H 	0.50000 0.22140 0.85780 -0.20900
O 	O 	0.50000 0.42190 0.80790 -32.41800
C 	C 	0.15175 0.15175 -0.00000 7.74300
C 	C 	0.20269 0.20269 -0.00000 -4.76600
C 	C 	0.15175 0.65175 0.50000 2.86000
C 	C 	0.20269 0.70269 0.50000 -2.48600
C 	C 	0.65175 0.15175 0.50000 2.86000
C 	C 	0.70269 0.20269 0.50000 -2.48600
C 	C 	0.65175 0.65175 -0.00000 -2.18400
C 	C 	0.70269 0.70269 -0.00000 -0.15500
C 	C 	0.84825 0.84825 -0.00000 -8.07200
C 	C 	0.79731 0.79731 -0.00000 5.03000
C 	C 	0.84825 0.34825 0.50000 -2.96100
C 	C 	0.79731 0.29731 0.50000 2.66800
C 	C 	0.34825 0.84825 0.50000 -2.96100
C 	C 	0.29731 0.79731 0.50000 2.66800
C 	C 	0.34825 0.34825 -0.00000 1.38300
C 	C 	0.29731 0.29731 -0.00000 0.89100
C 	C 	0.84825 0.15175 -0.00000 -0.15500
C 	C 	0.79731 0.20269 -0.00000 0.12300
C 	C 	0.84825 0.65175 0.50000 -4.74900
C 	C 	0.79731 0.70269 0.50000 2.21500
C 	C 	0.34825 0.15175 0.50000 4.64000
C 	C 	0.29731 0.20269 0.50000 -2.02800
C 	C 	0.34825 0.65175 -0.00000 -0.40000
C 	C 	0.29731 0.70269 -0.00000 0.37000
C 	C 	0.15175 0.84825 -0.00000 -0.15500
C 	C 	0.20269 0.79731 -0.00000 0.12300
C 	C 	0.15175 0.34825 0.50000 4.64000
C 	C 	0.20269 0.29731 0.50000 -2.02800
C 	C 	0.65175 0.84825 0.50000 -4.74900
C 	C 	0.70269 0.79731 0.50000 2.21500
C 	C 	0.65175 0.34825 -0.00000 -0.40000
C 	C 	0.70269 0.29731 -0.00000 0.37000
C 	C 	0.00000 0.15175 0.15175 7.74300
C 	C 	0.00000 0.20269 0.20269 -4.76600
C 	C 	0.00000 0.65175 0.65175 -2.18400
C 	C 	-0.00000 0.70269 0.70269 -0.15500
C 	C 	0.50000 0.15175 0.65175 2.86000
C 	C 	0.50000 0.20269 0.70269 -2.48600
C 	C 	0.50000 0.65175 0.15175 2.86000
C 	C 	0.50000 0.70269 0.20269 -2.48600
C 	C 	0.00000 0.84825 0.84825 -8.07200
C 	C 	0.00000 0.79731 0.79731 5.03000
C 	C 	0.00000 0.34825 0.34825 1.38300
C 	C 	0.00000 0.29731 0.29731 0.89100
C 	C 	0.50000 0.84825 0.34825 -2.96100
C 	C 	0.50000 0.79731 0.29731 2.66800
C 	C 	0.50000 0.34825 0.84825 -2.96100
C 	C 	0.50000 0.29731 0.79731 2.66800
C 	C 	-0.00000 0.84825 0.15175 -0.15500
C 	C 	0.00000 0.79731 0.20269 0.12300
C 	C 	-0.00000 0.34825 0.65175 -0.40000
C 	C 	-0.00000 0.29731 0.70269 0.37000
C 	C 	0.50000 0.84825 0.65175 -4.74900
C 	C 	0.50000 0.79731 0.70269 2.21500
C 	C 	0.50000 0.34825 0.15175 4.64000
C 	C 	0.50000 0.29731 0.20269 -2.02800
C 	C 	-0.00000 0.15175 0.84825 -0.15500
C 	C 	0.00000 0.20269 0.79731 0.12300
C 	C 	-0.00000 0.65175 0.34825 -0.40000
C 	C 	-0.00000 0.70269 0.29731 0.37000
C 	C 	0.50000 0.15175 0.34825 4.64000
C 	C 	0.50000 0.20269 0.29731 -2.02800
C 	C 	0.50000 0.65175 0.84825 -4.74900
C 	C 	0.50000 0.70269 0.79731 2.21500
C 	C 	0.15175 -0.00000 0.15175 7.74300
C 	C 	0.20269 0.00000 0.20269 -4.76600
C 	C 	0.15175 0.50000 0.65175 2.86000
C 	C 	0.20269 0.50000 0.70269 -2.48600
C 	C 	0.65175 -0.00000 0.65175 -2.18400
C 	C 	0.70269 0.00000 0.70269 -0.15500
C 	C 	0.65175 0.50000 0.15175 2.86000
C 	C 	0.70269 0.50000 0.20269 -2.48600
C 	C 	0.84825 0.00000 0.84825 -8.07200
C 	C 	0.79731 -0.00000 0.79731 5.03000
C 	C 	0.84825 0.50000 0.34825 -2.96100
C 	C 	0.79731 0.50000 0.29731 2.66800
C 	C 	0.34825 -0.00000 0.34825 1.38300
C 	C 	0.29731 0.00000 0.29731 0.89100
C 	C 	0.34825 0.50000 0.84825 -2.96100
C 	C 	0.29731 0.50000 0.79731 2.66800
C 	C 	0.15175 0.00000 0.84825 -0.15500
C 	C 	0.20269 -0.00000 0.79731 0.12300
C 	C 	0.15175 0.50000 0.34825 4.64000
C 	C 	0.20269 0.50000 0.29731 -2.02800
C 	C 	0.65175 -0.00000 0.34825 -0.40000
C 	C 	0.70269 0.00000 0.29731 0.37000
C 	C 	0.65175 0.50000 0.84825 -4.74900
C 	C 	0.70269 0.50000 0.79731 2.21500
C 	C 	0.84825 -0.00000 0.15175 -0.15500
C 	C 	0.79731 0.00000 0.20269 0.12300
C 	C 	0.84825 0.50000 0.65175 -4.74900
C 	C 	0.79731 0.50000 0.70269 2.21500
C 	C 	0.34825 -0.00000 0.65175 -0.40000
C 	C 	0.29731 0.00000 0.70269 0.37000
C 	C 	0.34825 0.50000 0.15175 4.64000
C 	C 	0.29731 0.50000 0.20269 -2.02800
O 	O 	0.05006 0.05006 0.05006 4.77600
O 	O 	0.06724 0.06724 0.06724 -5.85700
H 	H 	0.09450 0.09450 0.09450 1.88800
O 	O 	0.05006 0.55006 0.55006 0.35000
O 	O 	0.06724 0.56724 0.56724 -1.39800
H 	H 	0.09450 0.59450 0.59450 0.35900
O 	O 	0.55006 0.05006 0.55006 0.35000
O 	O 	0.56724 0.06724 0.56724 -1.39800
H 	H 	0.59450 0.09450 0.59450 0.35900
O 	O 	0.55006 0.55006 0.05006 0.35000
O 	O 	0.56724 0.56724 0.06724 -1.39800
H 	H 	0.59450 0.59450 0.09450 0.35900
O 	O 	0.94994 0.94994 0.05006 -5.17800
O 	O 	0.93276 0.93276 0.06724 4.51800
H 	H 	0.90550 0.90550 0.09450 -1.64800
O 	O 	0.94994 0.44994 0.55006 -5.24700
O 	O 	0.93276 0.43276 0.56724 4.66800
H 	H 	0.90550 0.40550 0.59450 -1.61700
O 	O 	0.44994 0.94994 0.55006 -5.24700
O 	O 	0.43276 0.93276 0.56724 4.66800
H 	H 	0.40550 0.90550 0.59450 -1.61700
O 	O 	0.44994 0.44994 0.05006 -0.21600
O 	O 	0.43276 0.43276 0.06724 -0.44700
H 	H 	0.40550 0.40550 0.09450 0.17300
O 	O 	0.94994 0.05006 0.94994 -5.17800
O 	O 	0.93276 0.06724 0.93276 4.51800
H 	H 	0.90550 0.09450 0.90550 -1.64800
O 	O 	0.94994 0.55006 0.44994 -5.24700
O 	O 	0.93276 0.56724 0.43276 4.66800
H 	H 	0.90550 0.59450 0.40550 -1.61700
O 	O 	0.44994 0.05006 0.44994 -0.21600
O 	O 	0.43276 0.06724 0.43276 -0.44700
H 	H 	0.40550 0.09450 0.40550 0.17300
O 	O 	0.44994 0.55006 0.94994 -5.24700
O 	O 	0.43276 0.56724 0.93276 4.66800
H 	H 	0.40550 0.59450 0.90550 -1.61700
O 	O 	0.05006 0.94994 0.94994 -5.17800
O 	O 	0.06724 0.93276 0.93276 4.51800
H 	H 	0.09450 0.90550 0.90550 -1.64800
O 	O 	0.05006 0.44994 0.44994 -0.21600
O 	O 	0.06724 0.43276 0.43276 -0.44700
H 	H 	0.09450 0.40550 0.40550 0.17300
O 	O 	0.55006 0.94994 0.44994 -5.24700
O 	O 	0.56724 0.93276 0.43276 4.66800
H 	H 	0.59450 0.90550 0.40550 -1.61700
O 	O 	0.55006 0.44994 0.94994 -5.24700
O 	O 	0.56724 0.43276 0.93276 4.66800
H 	H 	0.59450 0.40550 0.90550 -1.61700
O 	O 	0.05006 0.05006 0.94994 -0.01100
O 	O 	0.06724 0.06724 0.93276 -0.89500
H 	H 	0.09450 0.09450 0.90550 0.18100
O 	O 	0.05006 0.55006 0.44994 0.06800
O 	O 	0.06724 0.56724 0.43276 -0.92300
H 	H 	0.09450 0.59450 0.40550 0.26600
O 	O 	0.55006 0.05006 0.44994 0.06800
O 	O 	0.56724 0.06724 0.43276 -0.92300
H 	H 	0.59450 0.09450 0.40550 0.26600
O 	O 	0.55006 0.55006 0.94994 -4.98700
O 	O 	0.56724 0.56724 0.93276 4.22100
H 	H 	0.59450 0.59450 0.90550 -1.52900
O 	O 	0.94994 0.94994 0.94994 -10.72400
O 	O 	0.93276 0.93276 0.93276 10.38100
H 	H 	0.90550 0.90550 0.90550 -3.59900
O 	O 	0.94994 0.44994 0.44994 -5.50900
O 	O 	0.93276 0.43276 0.43276 5.11800
H 	H 	0.90550 0.40550 0.40550 -1.70500
O 	O 	0.44994 0.94994 0.44994 -5.50900
O 	O 	0.43276 0.93276 0.43276 5.11800
H 	H 	0.40550 0.90550 0.40550 -1.70500
O 	O 	0.44994 0.44994 0.94994 -5.50900
O 	O 	0.43276 0.43276 0.93276 5.11800
H 	H 	0.40550 0.40550 0.90550 -1.70500
O 	O 	0.05006 0.94994 0.05006 -0.01100
O 	O 	0.06724 0.93276 0.06724 -0.89500
H 	H 	0.09450 0.90550 0.09450 0.18100
O 	O 	0.05006 0.44994 0.55006 0.06800
O 	O 	0.06724 0.43276 0.56724 -0.92300
H 	H 	0.09450 0.40550 0.59450 0.26600
O 	O 	0.55006 0.94994 0.55006 -4.98700
O 	O 	0.56724 0.93276 0.56724 4.22100
H 	H 	0.59450 0.90550 0.59450 -1.52900
O 	O 	0.55006 0.44994 0.05006 0.06800
O 	O 	0.56724 0.43276 0.06724 -0.92300
H 	H 	0.59450 0.40550 0.09450 0.26600
O 	O 	0.94994 0.05006 0.05006 -0.01100
O 	O 	0.93276 0.06724 0.06724 -0.89500
H 	H 	0.90550 0.09450 0.09450 0.18100
O 	O 	0.94994 0.55006 0.55006 -4.98700
O 	O 	0.93276 0.56724 0.56724 4.22100
H 	H 	0.90550 0.59450 0.59450 -1.52900
O 	O 	0.44994 0.05006 0.55006 0.06800
O 	O 	0.43276 0.06724 0.56724 -0.92300
H 	H 	0.40550 0.09450 0.59450 0.26600
O 	O 	0.44994 0.55006 0.05006 0.06800
O 	O 	0.43276 0.56724 0.06724 -0.92300
H 	H 	0.40550 0.59450 0.09450 0.26600
