data_crystal

_cell_length_a 20.76040
_cell_length_b 20.76040
_cell_length_c 20.76040
_cell_angle_alpha 90.00000
_cell_angle_beta  90.00000
_cell_angle_gamma 90.00000

_symmetry_space_group_name_	'P 1'
_symmetry_space_group_name_H-M	'P 1'

loop_
_symmetry_equiv_pos_as_xyz
  x,y,z

loop_
_atom_site_label
_atom_site_type_symbol
_atom_site_fract_x
_atom_site_fract_y
_atom_site_fract_z
_atom_site_charge
Zr	Zr	0.11931 0.00000 -0.00000 3.19800
Zr	Zr	0.11931 0.50000 0.50000 3.26600
Zr	Zr	0.61931 0.00000 0.50000 3.21700
Zr	Zr	0.61931 0.50000 -0.00000 3.21700
Zr	Zr	0.88069 0.00000 -0.00000 3.16600
Zr	Zr	0.88069 0.50000 0.50000 3.23100
Zr	Zr	0.38069 0.00000 0.50000 3.21600
Zr	Zr	0.38069 0.50000 -0.00000 3.21600
Zr	Zr	-0.00000 0.11931 -0.00000 3.19800
Zr	Zr	-0.00000 0.61931 0.50000 3.21700
Zr	Zr	0.50000 0.11931 0.50000 3.26600
Zr	Zr	0.50000 0.61931 -0.00000 3.21700
Zr	Zr	-0.00000 0.88069 -0.00000 3.16600
Zr	Zr	0.00000 0.38069 0.50000 3.21600
Zr	Zr	0.50000 0.88069 0.50000 3.23100
Zr	Zr	0.50000 0.38069 -0.00000 3.21600
Zr	Zr	0.00000 0.00000 0.11931 3.19800
Zr	Zr	-0.00000 0.50000 0.61931 3.21700
Zr	Zr	0.50000 0.00000 0.61931 3.21700
Zr	Zr	0.50000 0.50000 0.11931 3.26600
Zr	Zr	0.00000 0.00000 0.88069 3.16600
Zr	Zr	0.00000 0.50000 0.38069 3.21600
Zr	Zr	0.50000 0.00000 0.38069 3.21600
Zr	Zr	0.50000 0.50000 0.88069 3.23100
O 	O 	0.16980 0.09470 -0.00000 -0.34200
C 	C 	0.26700 0.18550 -0.00000 -0.04000
H 	H 	0.27890 0.14130 -0.00000 0.00600
O 	O 	0.18460 0.08050 -0.00000 -0.32800
O 	O 	0.16980 0.59470 0.50000 -0.20400
C 	C 	0.26700 0.68550 0.50000 0.00300
H 	H 	0.27890 0.64130 0.50000 0.06500
O 	O 	0.18460 0.58050 0.50000 -0.32400
O 	O 	0.66980 0.09470 0.50000 -0.23600
C 	C 	0.76700 0.18550 0.50000 0.01900
H 	H 	0.77890 0.14130 0.50000 0.07500
O 	O 	0.68460 0.08050 0.50000 -0.31300
O 	O 	0.66980 0.59470 -0.00000 -0.28900
C 	C 	0.76700 0.68550 -0.00000 0.01400
H 	H 	0.77890 0.64130 -0.00000 0.04000
O 	O 	0.68460 0.58050 -0.00000 -0.33800
O 	O 	0.83020 0.90530 -0.00000 -0.13300
C 	C 	0.73300 0.81450 -0.00000 -0.09800
H 	H 	0.72110 0.85870 -0.00000 0.11800
O 	O 	0.81540 0.91950 -0.00000 -0.33500
O 	O 	0.83020 0.40530 0.50000 -0.25900
C 	C 	0.73300 0.31450 0.50000 -0.05800
H 	H 	0.72110 0.35870 0.50000 0.08400
O 	O 	0.81540 0.41950 0.50000 -0.26500
O 	O 	0.33020 0.90530 0.50000 -0.00400
C 	C 	0.23300 0.81450 0.50000 -0.05800
H 	H 	0.22110 0.85870 0.50000 0.14800
O 	O 	0.31540 0.91950 0.50000 -0.36400
O 	O 	0.33020 0.40530 -0.00000 -0.32300
C 	C 	0.23300 0.31450 -0.00000 -0.06300
H 	H 	0.22110 0.35870 -0.00000 0.01800
O 	O 	0.31540 0.41950 -0.00000 -0.32300
O 	O 	0.83020 0.09470 -0.00000 -0.39400
C 	C 	0.73300 0.18550 -0.00000 -0.07000
H 	H 	0.72110 0.14130 -0.00000 0.01800
O 	O 	0.81540 0.08050 -0.00000 -0.26700
O 	O 	0.83020 0.59470 0.50000 -0.25700
C 	C 	0.73300 0.68550 0.50000 -0.02800
H 	H 	0.72110 0.64130 0.50000 0.07700
O 	O 	0.81540 0.58050 0.50000 -0.26500
O 	O 	0.33020 0.09470 0.50000 -0.26900
C 	C 	0.23300 0.18550 0.50000 -0.02900
H 	H 	0.22110 0.14130 0.50000 0.04600
O 	O 	0.31540 0.08050 0.50000 -0.29700
O 	O 	0.33020 0.59470 -0.00000 -0.32200
C 	C 	0.23300 0.68550 -0.00000 -0.03300
H 	H 	0.22110 0.64130 -0.00000 0.01100
O 	O 	0.31540 0.58050 -0.00000 -0.32200
O 	O 	0.16980 0.90530 -0.00000 -0.08000
C 	C 	0.26700 0.81450 -0.00000 -0.06900
H 	H 	0.27890 0.85870 -0.00000 0.10700
O 	O 	0.18460 0.91950 -0.00000 -0.39400
O 	O 	0.16980 0.40530 0.50000 -0.20700
C 	C 	0.26700 0.31450 0.50000 -0.02800
H 	H 	0.27890 0.35870 0.50000 0.07100
O 	O 	0.18460 0.41950 0.50000 -0.32500
O 	O 	0.66980 0.90530 0.50000 0.02500
C 	C 	0.76700 0.81450 0.50000 -0.00900
H 	H 	0.77890 0.85870 0.50000 0.17500
O 	O 	0.68460 0.91950 0.50000 -0.37800
O 	O 	0.66980 0.40530 -0.00000 -0.29100
C 	C 	0.76700 0.31450 -0.00000 -0.01500
H 	H 	0.77890 0.35870 -0.00000 0.04700
O 	O 	0.68460 0.41950 -0.00000 -0.33900
O 	O 	0.00000 0.16980 0.09470 -0.34300
C 	C 	0.00000 0.26700 0.18550 -0.04100
H 	H 	0.00000 0.27890 0.14130 0.00500
O 	O 	0.00000 0.18460 0.08050 -0.32900
O 	O 	0.00000 0.66980 0.59470 -0.28900
C 	C 	0.00000 0.76700 0.68550 0.01400
H 	H 	0.00000 0.77890 0.64130 0.04000
O 	O 	-0.00000 0.68460 0.58050 -0.33800
O 	O 	0.50000 0.16980 0.59470 -0.20500
C 	C 	0.50000 0.26700 0.68550 0.00200
H 	H 	0.50000 0.27890 0.64130 0.06400
O 	O 	0.50000 0.18460 0.58050 -0.32500
O 	O 	0.50000 0.66980 0.09470 -0.23700
C 	C 	0.50000 0.76700 0.18550 0.01900
H 	H 	0.50000 0.77890 0.14130 0.07500
O 	O 	0.50000 0.68460 0.08050 -0.31300
O 	O 	-0.00000 0.83020 0.90530 -0.13300
C 	C 	0.00000 0.73300 0.81450 -0.09800
H 	H 	-0.00000 0.72110 0.85870 0.11800
O 	O 	-0.00000 0.81540 0.91950 -0.33500
O 	O 	0.00000 0.33020 0.40530 -0.32300
C 	C 	-0.00000 0.23300 0.31450 -0.06300
H 	H 	0.00000 0.22110 0.35870 0.01800
O 	O 	0.00000 0.31540 0.41950 -0.32300
O 	O 	0.50000 0.83020 0.40530 -0.25900
C 	C 	0.50000 0.73300 0.31450 -0.05800
H 	H 	0.50000 0.72110 0.35870 0.08400
O 	O 	0.50000 0.81540 0.41950 -0.26500
O 	O 	0.50000 0.33020 0.90530 -0.00400
C 	C 	0.50000 0.23300 0.81450 -0.05800
H 	H 	0.50000 0.22110 0.85870 0.14800
O 	O 	0.50000 0.31540 0.91950 -0.36400
O 	O 	-0.00000 0.83020 0.09470 -0.39400
C 	C 	0.00000 0.73300 0.18550 -0.07000
H 	H 	-0.00000 0.72110 0.14130 0.01800
O 	O 	-0.00000 0.81540 0.08050 -0.26700
O 	O 	0.00000 0.33020 0.59470 -0.32200
C 	C 	-0.00000 0.23300 0.68550 -0.03300
H 	H 	-0.00000 0.22110 0.64130 0.01100
O 	O 	-0.00000 0.31540 0.58050 -0.32200
O 	O 	0.50000 0.83020 0.59470 -0.25700
C 	C 	0.50000 0.73300 0.68550 -0.02800
H 	H 	0.50000 0.72110 0.64130 0.07700
O 	O 	0.50000 0.81540 0.58050 -0.26500
O 	O 	0.50000 0.33020 0.09470 -0.26900
C 	C 	0.50000 0.23300 0.18550 -0.02900
H 	H 	0.50000 0.22110 0.14130 0.04600
O 	O 	0.50000 0.31540 0.08050 -0.29700
O 	O 	0.00000 0.16980 0.90530 -0.08000
C 	C 	-0.00000 0.26700 0.81450 -0.06900
H 	H 	-0.00000 0.27890 0.85870 0.10700
O 	O 	-0.00000 0.18460 0.91950 -0.39400
O 	O 	0.00000 0.66980 0.40530 -0.29100
C 	C 	-0.00000 0.76700 0.31450 -0.01500
H 	H 	0.00000 0.77890 0.35870 0.04700
O 	O 	0.00000 0.68460 0.41950 -0.33900
O 	O 	0.50000 0.16980 0.40530 -0.20700
C 	C 	0.50000 0.26700 0.31450 -0.02800
H 	H 	0.50000 0.27890 0.35870 0.07100
O 	O 	0.50000 0.18460 0.41950 -0.32500
O 	O 	0.50000 0.66980 0.90530 0.02500
C 	C 	0.50000 0.76700 0.81450 -0.00900
H 	H 	0.50000 0.77890 0.85870 0.17500
O 	O 	0.50000 0.68460 0.91950 -0.37800
O 	O 	0.09470 -0.00000 0.16980 -0.34300
C 	C 	0.18550 0.00000 0.26700 -0.04100
H 	H 	0.14130 0.00000 0.27890 0.00500
O 	O 	0.08050 0.00000 0.18460 -0.32900
O 	O 	0.09470 0.50000 0.66980 -0.23700
C 	C 	0.18550 0.50000 0.76700 0.01900
H 	H 	0.14130 0.50000 0.77890 0.07500
O 	O 	0.08050 0.50000 0.68460 -0.31300
O 	O 	0.59470 0.00000 0.66980 -0.28900
C 	C 	0.68550 0.00000 0.76700 0.01400
H 	H 	0.64130 0.00000 0.77890 0.04000
O 	O 	0.58050 -0.00000 0.68460 -0.33800
O 	O 	0.59470 0.50000 0.16980 -0.20500
C 	C 	0.68550 0.50000 0.26700 0.00200
H 	H 	0.64130 0.50000 0.27890 0.06400
O 	O 	0.58050 0.50000 0.18460 -0.32500
O 	O 	0.90530 -0.00000 0.83020 -0.13300
C 	C 	0.81450 0.00000 0.73300 -0.09800
H 	H 	0.85870 0.00000 0.72110 0.11800
O 	O 	0.91950 -0.00000 0.81540 -0.33500
O 	O 	0.90530 0.50000 0.33020 -0.00400
C 	C 	0.81450 0.50000 0.23300 -0.05800
H 	H 	0.85870 0.50000 0.22110 0.14800
O 	O 	0.91950 0.50000 0.31540 -0.36400
O 	O 	0.40530 0.00000 0.33020 -0.32300
C 	C 	0.31450 0.00000 0.23300 -0.06300
H 	H 	0.35870 -0.00000 0.22110 0.01800
O 	O 	0.41950 0.00000 0.31540 -0.32300
O 	O 	0.40530 0.50000 0.83020 -0.25900
C 	C 	0.31450 0.50000 0.73300 -0.05800
H 	H 	0.35870 0.50000 0.72110 0.08400
O 	O 	0.41950 0.50000 0.81540 -0.26500
O 	O 	0.09470 -0.00000 0.83020 -0.39400
C 	C 	0.18550 0.00000 0.73300 -0.07000
H 	H 	0.14130 0.00000 0.72110 0.01800
O 	O 	0.08050 -0.00000 0.81540 -0.26700
O 	O 	0.09470 0.50000 0.33020 -0.26900
C 	C 	0.18550 0.50000 0.23300 -0.02900
H 	H 	0.14130 0.50000 0.22110 0.04600
O 	O 	0.08050 0.50000 0.31540 -0.29700
O 	O 	0.59470 0.00000 0.33020 -0.32200
C 	C 	0.68550 0.00000 0.23300 -0.03300
H 	H 	0.64130 -0.00000 0.22110 0.01100
O 	O 	0.58050 0.00000 0.31540 -0.32200
O 	O 	0.59470 0.50000 0.83020 -0.25700
C 	C 	0.68550 0.50000 0.73300 -0.02800
H 	H 	0.64130 0.50000 0.72110 0.07700
O 	O 	0.58050 0.50000 0.81540 -0.26500
O 	O 	0.90530 -0.00000 0.16980 -0.08000
C 	C 	0.81450 0.00000 0.26700 -0.06900
H 	H 	0.85870 0.00000 0.27890 0.10700
O 	O 	0.91950 0.00000 0.18460 -0.39400
O 	O 	0.90530 0.50000 0.66980 0.02500
C 	C 	0.81450 0.50000 0.76700 -0.00900
H 	H 	0.85870 0.50000 0.77890 0.17500
O 	O 	0.91950 0.50000 0.68460 -0.37800
O 	O 	0.40530 0.00000 0.66980 -0.29100
C 	C 	0.31450 0.00000 0.76700 -0.01500
H 	H 	0.35870 0.00000 0.77890 0.04700
O 	O 	0.41950 -0.00000 0.68460 -0.33900
O 	O 	0.40530 0.50000 0.16980 -0.20700
C 	C 	0.31450 0.50000 0.26700 -0.02800
H 	H 	0.35870 0.50000 0.27890 0.07100
O 	O 	0.41950 0.50000 0.18460 -0.32500
O 	O 	0.09470 0.16980 -0.00000 -0.34300
C 	C 	0.18550 0.26700 -0.00000 -0.04100
H 	H 	0.14130 0.27890 -0.00000 0.00500
O 	O 	0.08050 0.18460 -0.00000 -0.32900
O 	O 	0.09470 0.66980 0.50000 -0.23700
C 	C 	0.18550 0.76700 0.50000 0.01900
H 	H 	0.14130 0.77890 0.50000 0.07500
O 	O 	0.08050 0.68460 0.50000 -0.31300
O 	O 	0.59470 0.16980 0.50000 -0.20500
C 	C 	0.68550 0.26700 0.50000 0.00200
H 	H 	0.64130 0.27890 0.50000 0.06400
O 	O 	0.58050 0.18460 0.50000 -0.32500
O 	O 	0.59470 0.66980 -0.00000 -0.28900
C 	C 	0.68550 0.76700 -0.00000 0.01400
H 	H 	0.64130 0.77890 -0.00000 0.04000
O 	O 	0.58050 0.68460 -0.00000 -0.33800
O 	O 	0.90530 0.83020 -0.00000 -0.13300
C 	C 	0.81450 0.73300 -0.00000 -0.09800
H 	H 	0.85870 0.72110 -0.00000 0.11800
O 	O 	0.91950 0.81540 -0.00000 -0.33500
O 	O 	0.90530 0.33020 0.50000 -0.00400
C 	C 	0.81450 0.23300 0.50000 -0.05800
H 	H 	0.85870 0.22110 0.50000 0.14800
O 	O 	0.91950 0.31540 0.50000 -0.36400
O 	O 	0.40530 0.83020 0.50000 -0.25900
C 	C 	0.31450 0.73300 0.50000 -0.05800
H 	H 	0.35870 0.72110 0.50000 0.08400
O 	O 	0.41950 0.81540 0.50000 -0.26500
O 	O 	0.40530 0.33020 -0.00000 -0.32300
C 	C 	0.31450 0.23300 -0.00000 -0.06300
H 	H 	0.35870 0.22110 -0.00000 0.01800
O 	O 	0.41950 0.31540 -0.00000 -0.32300
O 	O 	0.09470 0.83020 -0.00000 -0.39400
C 	C 	0.18550 0.73300 -0.00000 -0.07000
H 	H 	0.14130 0.72110 -0.00000 0.01800
O 	O 	0.08050 0.81540 -0.00000 -0.26700
O 	O 	0.09470 0.33020 0.50000 -0.26900
C 	C 	0.18550 0.23300 0.50000 -0.02900
H 	H 	0.14130 0.22110 0.50000 0.04600
O 	O 	0.08050 0.31540 0.50000 -0.29700
O 	O 	0.59470 0.83020 0.50000 -0.25700
C 	C 	0.68550 0.73300 0.50000 -0.02800
H 	H 	0.64130 0.72110 0.50000 0.07700
O 	O 	0.58050 0.81540 0.50000 -0.26500
O 	O 	0.59470 0.33020 -0.00000 -0.32200
C 	C 	0.68550 0.23300 -0.00000 -0.03300
H 	H 	0.64130 0.22110 -0.00000 0.01100
O 	O 	0.58050 0.31540 -0.00000 -0.32200
O 	O 	0.90530 0.16980 -0.00000 -0.08000
C 	C 	0.81450 0.26700 -0.00000 -0.06900
H 	H 	0.85870 0.27890 -0.00000 0.10700
O 	O 	0.91950 0.18460 -0.00000 -0.39400
O 	O 	0.90530 0.66980 0.50000 0.02500
C 	C 	0.81450 0.76700 0.50000 -0.00900
H 	H 	0.85870 0.77890 0.50000 0.17500
O 	O 	0.91950 0.68460 0.50000 -0.37800
O 	O 	0.40530 0.16980 0.50000 -0.20700
C 	C 	0.31450 0.26700 0.50000 -0.02800
H 	H 	0.35870 0.27890 0.50000 0.07100
O 	O 	0.41950 0.18460 0.50000 -0.32500
O 	O 	0.40530 0.66980 -0.00000 -0.29100
C 	C 	0.31450 0.76700 -0.00000 -0.01500
H 	H 	0.35870 0.77890 -0.00000 0.04700
O 	O 	0.41950 0.68460 -0.00000 -0.33900
O 	O 	0.16980 0.00000 0.90530 -0.08000
C 	C 	0.26700 0.00000 0.81450 -0.06900
H 	H 	0.27890 -0.00000 0.85870 0.10700
O 	O 	0.18460 0.00000 0.91950 -0.39400
O 	O 	0.16980 0.50000 0.40530 -0.20700
C 	C 	0.26700 0.50000 0.31450 -0.02800
H 	H 	0.27890 0.50000 0.35870 0.07100
O 	O 	0.18460 0.50000 0.41950 -0.32500
O 	O 	0.66980 -0.00000 0.40530 -0.29100
C 	C 	0.76700 0.00000 0.31450 -0.01500
H 	H 	0.77890 0.00000 0.35870 0.04700
O 	O 	0.68460 0.00000 0.41950 -0.33900
O 	O 	0.66980 0.50000 0.90530 0.02500
C 	C 	0.76700 0.50000 0.81450 -0.00900
H 	H 	0.77890 0.50000 0.85870 0.17500
O 	O 	0.68460 0.50000 0.91950 -0.37800
O 	O 	0.83020 0.00000 0.09470 -0.39400
C 	C 	0.73300 0.00000 0.18550 -0.07000
H 	H 	0.72110 0.00000 0.14130 0.01800
O 	O 	0.81540 0.00000 0.08050 -0.26700
O 	O 	0.83020 0.50000 0.59470 -0.25700
C 	C 	0.73300 0.50000 0.68550 -0.02800
H 	H 	0.72110 0.50000 0.64130 0.07700
O 	O 	0.81540 0.50000 0.58050 -0.26500
O 	O 	0.33020 0.00000 0.59470 -0.32200
C 	C 	0.23300 0.00000 0.68550 -0.03300
H 	H 	0.22110 -0.00000 0.64130 0.01100
O 	O 	0.31540 0.00000 0.58050 -0.32200
O 	O 	0.33020 0.50000 0.09470 -0.26900
C 	C 	0.23300 0.50000 0.18550 -0.02900
H 	H 	0.22110 0.50000 0.14130 0.04600
O 	O 	0.31540 0.50000 0.08050 -0.29700
O 	O 	0.83020 0.00000 0.90530 -0.13300
C 	C 	0.73300 0.00000 0.81450 -0.09800
H 	H 	0.72110 -0.00000 0.85870 0.11800
O 	O 	0.81540 0.00000 0.91950 -0.33500
O 	O 	0.83020 0.50000 0.40530 -0.25900
C 	C 	0.73300 0.50000 0.31450 -0.05800
H 	H 	0.72110 0.50000 0.35870 0.08400
O 	O 	0.81540 0.50000 0.41950 -0.26500
O 	O 	0.33020 -0.00000 0.40530 -0.32300
C 	C 	0.23300 0.00000 0.31450 -0.06300
H 	H 	0.22110 0.00000 0.35870 0.01800
O 	O 	0.31540 0.00000 0.41950 -0.32300
O 	O 	0.33020 0.50000 0.90530 -0.00400
C 	C 	0.23300 0.50000 0.81450 -0.05800
H 	H 	0.22110 0.50000 0.85870 0.14800
O 	O 	0.31540 0.50000 0.91950 -0.36400
O 	O 	0.16980 0.00000 0.09470 -0.34300
C 	C 	0.26700 0.00000 0.18550 -0.04100
H 	H 	0.27890 0.00000 0.14130 0.00500
O 	O 	0.18460 0.00000 0.08050 -0.32900
O 	O 	0.16980 0.50000 0.59470 -0.20500
C 	C 	0.26700 0.50000 0.68550 0.00200
H 	H 	0.27890 0.50000 0.64130 0.06400
O 	O 	0.18460 0.50000 0.58050 -0.32500
O 	O 	0.66980 0.00000 0.59470 -0.28900
C 	C 	0.76700 0.00000 0.68550 0.01400
H 	H 	0.77890 -0.00000 0.64130 0.04000
O 	O 	0.68460 0.00000 0.58050 -0.33800
O 	O 	0.66980 0.50000 0.09470 -0.23700
C 	C 	0.76700 0.50000 0.18550 0.01900
H 	H 	0.77890 0.50000 0.14130 0.07500
O 	O 	0.68460 0.50000 0.08050 -0.31300
O 	O 	-0.00000 0.09470 0.83020 -0.39400
C 	C 	0.00000 0.18550 0.73300 -0.07000
H 	H 	-0.00000 0.14130 0.72110 0.01800
O 	O 	-0.00000 0.08050 0.81540 -0.26700
O 	O 	0.00000 0.59470 0.33020 -0.32200
C 	C 	-0.00000 0.68550 0.23300 -0.03300
H 	H 	-0.00000 0.64130 0.22110 0.01100
O 	O 	-0.00000 0.58050 0.31540 -0.32200
O 	O 	0.50000 0.09470 0.33020 -0.26900
C 	C 	0.50000 0.18550 0.23300 -0.02900
H 	H 	0.50000 0.14130 0.22110 0.04600
O 	O 	0.50000 0.08050 0.31540 -0.29700
O 	O 	0.50000 0.59470 0.83020 -0.25700
C 	C 	0.50000 0.68550 0.73300 -0.02800
H 	H 	0.50000 0.64130 0.72110 0.07700
O 	O 	0.50000 0.58050 0.81540 -0.26500
O 	O 	-0.00000 0.90530 0.16980 -0.08000
C 	C 	-0.00000 0.81450 0.26700 -0.06900
H 	H 	-0.00000 0.85870 0.27890 0.10700
O 	O 	-0.00000 0.91950 0.18460 -0.39400
O 	O 	0.00000 0.40530 0.66980 -0.29100
C 	C 	-0.00000 0.31450 0.76700 -0.01500
H 	H 	0.00000 0.35870 0.77890 0.04700
O 	O 	0.00000 0.41950 0.68460 -0.33900
O 	O 	0.50000 0.90530 0.66980 0.02500
C 	C 	0.50000 0.81450 0.76700 -0.00900
H 	H 	0.50000 0.85870 0.77890 0.17500
O 	O 	0.50000 0.91950 0.68460 -0.37800
O 	O 	0.50000 0.40530 0.16980 -0.20700
C 	C 	0.50000 0.31450 0.26700 -0.02800
H 	H 	0.50000 0.35870 0.27890 0.07100
O 	O 	0.50000 0.41950 0.18460 -0.32500
O 	O 	0.00000 0.09470 0.16980 -0.34300
C 	C 	0.00000 0.18550 0.26700 -0.04100
H 	H 	0.00000 0.14130 0.27890 0.00500
O 	O 	0.00000 0.08050 0.18460 -0.32900
O 	O 	0.00000 0.59470 0.66980 -0.28900
C 	C 	0.00000 0.68550 0.76700 0.01400
H 	H 	0.00000 0.64130 0.77890 0.04000
O 	O 	-0.00000 0.58050 0.68460 -0.33800
O 	O 	0.50000 0.09470 0.66980 -0.23700
C 	C 	0.50000 0.18550 0.76700 0.01900
H 	H 	0.50000 0.14130 0.77890 0.07500
O 	O 	0.50000 0.08050 0.68460 -0.31300
O 	O 	0.50000 0.59470 0.16980 -0.20500
C 	C 	0.50000 0.68550 0.26700 0.00200
H 	H 	0.50000 0.64130 0.27890 0.06400
O 	O 	0.50000 0.58050 0.18460 -0.32500
O 	O 	-0.00000 0.90530 0.83020 -0.13300
C 	C 	0.00000 0.81450 0.73300 -0.09800
H 	H 	-0.00000 0.85870 0.72110 0.11800
O 	O 	-0.00000 0.91950 0.81540 -0.33500
O 	O 	0.00000 0.40530 0.33020 -0.32300
C 	C 	-0.00000 0.31450 0.23300 -0.06300
H 	H 	0.00000 0.35870 0.22110 0.01800
O 	O 	0.00000 0.41950 0.31540 -0.32300
O 	O 	0.50000 0.90530 0.33020 -0.00400
C 	C 	0.50000 0.81450 0.23300 -0.05800
H 	H 	0.50000 0.85870 0.22110 0.14800
O 	O 	0.50000 0.91950 0.31540 -0.36400
O 	O 	0.50000 0.40530 0.83020 -0.25900
C 	C 	0.50000 0.31450 0.73300 -0.05800
H 	H 	0.50000 0.35870 0.72110 0.08400
O 	O 	0.50000 0.41950 0.81540 -0.26500
C 	C 	0.15180 0.15180 -0.00000 0.21300
C 	C 	0.20270 0.20270 -0.00000 -0.06400
C 	C 	0.15180 0.65180 0.50000 0.22000
C 	C 	0.20270 0.70270 0.50000 -0.01600
C 	C 	0.65180 0.15180 0.50000 0.22000
C 	C 	0.70270 0.20270 0.50000 -0.01600
C 	C 	0.65180 0.65180 -0.00000 0.18900
C 	C 	0.70270 0.70270 -0.00000 -0.06300
C 	C 	0.84820 0.84820 -0.00000 0.10600
C 	C 	0.79730 0.79730 -0.00000 0.07500
C 	C 	0.84820 0.34820 0.50000 0.16500
C 	C 	0.79730 0.29730 0.50000 0.06300
C 	C 	0.34820 0.84820 0.50000 0.16500
C 	C 	0.29730 0.79730 0.50000 0.06300
C 	C 	0.34820 0.34820 -0.00000 0.18900
C 	C 	0.29730 0.29730 -0.00000 -0.04600
C 	C 	0.84820 0.15180 -0.00000 0.15900
C 	C 	0.79730 0.20270 -0.00000 0.00600
C 	C 	0.84820 0.65180 0.50000 0.16500
C 	C 	0.79730 0.70270 0.50000 0.05400
C 	C 	0.34820 0.15180 0.50000 0.22000
C 	C 	0.29730 0.20270 0.50000 -0.00700
C 	C 	0.34820 0.65180 -0.00000 0.18900
C 	C 	0.29730 0.70270 -0.00000 -0.05500
C 	C 	0.15180 0.84820 -0.00000 0.15900
C 	C 	0.20270 0.79730 -0.00000 0.00600
C 	C 	0.15180 0.34820 0.50000 0.22000
C 	C 	0.20270 0.29730 0.50000 -0.00700
C 	C 	0.65180 0.84820 0.50000 0.16500
C 	C 	0.70270 0.79730 0.50000 0.05400
C 	C 	0.65180 0.34820 -0.00000 0.18900
C 	C 	0.70270 0.29730 -0.00000 -0.05500
C 	C 	0.00000 0.15180 0.15180 0.21300
C 	C 	0.00000 0.20270 0.20270 -0.06400
C 	C 	0.00000 0.65180 0.65180 0.18900
C 	C 	0.00000 0.70270 0.70270 -0.06300
C 	C 	0.50000 0.15180 0.65180 0.22000
C 	C 	0.50000 0.20270 0.70270 -0.01600
C 	C 	0.50000 0.65180 0.15180 0.22000
C 	C 	0.50000 0.70270 0.20270 -0.01600
C 	C 	0.00000 0.84820 0.84820 0.10600
C 	C 	-0.00000 0.79730 0.79730 0.07500
C 	C 	0.00000 0.34820 0.34820 0.18900
C 	C 	0.00000 0.29730 0.29730 -0.04600
C 	C 	0.50000 0.84820 0.34820 0.16500
C 	C 	0.50000 0.79730 0.29730 0.06300
C 	C 	0.50000 0.34820 0.84820 0.16500
C 	C 	0.50000 0.29730 0.79730 0.06300
C 	C 	0.00000 0.84820 0.15180 0.15900
C 	C 	-0.00000 0.79730 0.20270 0.00600
C 	C 	0.00000 0.34820 0.65180 0.18900
C 	C 	0.00000 0.29730 0.70270 -0.05500
C 	C 	0.50000 0.84820 0.65180 0.16500
C 	C 	0.50000 0.79730 0.70270 0.05400
C 	C 	0.50000 0.34820 0.15180 0.22000
C 	C 	0.50000 0.29730 0.20270 -0.00700
C 	C 	0.00000 0.15180 0.84820 0.15900
C 	C 	-0.00000 0.20270 0.79730 0.00600
C 	C 	0.00000 0.65180 0.34820 0.18900
C 	C 	0.00000 0.70270 0.29730 -0.05500
C 	C 	0.50000 0.15180 0.34820 0.22000
C 	C 	0.50000 0.20270 0.29730 -0.00700
C 	C 	0.50000 0.65180 0.84820 0.16500
C 	C 	0.50000 0.70270 0.79730 0.05400
C 	C 	0.15180 0.00000 0.15180 0.21300
C 	C 	0.20270 0.00000 0.20270 -0.06400
C 	C 	0.15180 0.50000 0.65180 0.22000
C 	C 	0.20270 0.50000 0.70270 -0.01600
C 	C 	0.65180 0.00000 0.65180 0.18900
C 	C 	0.70270 -0.00000 0.70270 -0.06300
C 	C 	0.65180 0.50000 0.15180 0.22000
C 	C 	0.70270 0.50000 0.20270 -0.01600
C 	C 	0.84820 0.00000 0.84820 0.10600
C 	C 	0.79730 0.00000 0.79730 0.07500
C 	C 	0.84820 0.50000 0.34820 0.16500
C 	C 	0.79730 0.50000 0.29730 0.06300
C 	C 	0.34820 0.00000 0.34820 0.18900
C 	C 	0.29730 -0.00000 0.29730 -0.04600
C 	C 	0.34820 0.50000 0.84820 0.16500
C 	C 	0.29730 0.50000 0.79730 0.06300
C 	C 	0.15180 0.00000 0.84820 0.15900
C 	C 	0.20270 0.00000 0.79730 0.00600
C 	C 	0.15180 0.50000 0.34820 0.22000
C 	C 	0.20270 0.50000 0.29730 -0.00700
C 	C 	0.65180 0.00000 0.34820 0.18900
C 	C 	0.70270 -0.00000 0.29730 -0.05500
C 	C 	0.65180 0.50000 0.84820 0.16500
C 	C 	0.70270 0.50000 0.79730 0.05400
C 	C 	0.84820 0.00000 0.15180 0.15900
C 	C 	0.79730 0.00000 0.20270 0.00600
C 	C 	0.84820 0.50000 0.65180 0.16500
C 	C 	0.79730 0.50000 0.70270 0.05400
C 	C 	0.34820 0.00000 0.65180 0.18900
C 	C 	0.29730 -0.00000 0.70270 -0.05500
C 	C 	0.34820 0.50000 0.15180 0.22000
C 	C 	0.29730 0.50000 0.20270 -0.00700
O 	O 	0.05000 0.05000 0.05000 -4.45800
O 	O 	0.06740 0.06740 0.06740 3.70300
H 	H 	0.09580 0.09580 0.09580 -1.08900
O 	O 	0.05000 0.55000 0.55000 -2.80700
O 	O 	0.06740 0.56740 0.56740 1.99000
H 	H 	0.09580 0.59580 0.59580 -0.60700
O 	O 	0.55000 0.05000 0.55000 -2.80700
O 	O 	0.56740 0.06740 0.56740 1.99000
H 	H 	0.59580 0.09580 0.59580 -0.60700
O 	O 	0.55000 0.55000 0.05000 -2.80700
O 	O 	0.56740 0.56740 0.06740 1.99000
H 	H 	0.59580 0.59580 0.09580 -0.60700
O 	O 	0.95000 0.95000 0.05000 -1.16700
O 	O 	0.93260 0.93260 0.06740 0.41100
H 	H 	0.90420 0.90420 0.09580 -0.02000
O 	O 	0.95000 0.45000 0.55000 -1.30700
O 	O 	0.93260 0.43260 0.56740 0.50000
H 	H 	0.90420 0.40420 0.59580 -0.11800
O 	O 	0.45000 0.95000 0.55000 -1.30700
O 	O 	0.43260 0.93260 0.56740 0.50000
H 	H 	0.40420 0.90420 0.59580 -0.11800
O 	O 	0.45000 0.45000 0.05000 -2.84100
O 	O 	0.43260 0.43260 0.06740 2.02800
H 	H 	0.40420 0.40420 0.09580 -0.62300
O 	O 	0.95000 0.05000 0.95000 -1.16700
O 	O 	0.93260 0.06740 0.93260 0.41100
H 	H 	0.90420 0.09580 0.90420 -0.02000
O 	O 	0.95000 0.55000 0.45000 -1.30700
O 	O 	0.93260 0.56740 0.43260 0.50000
H 	H 	0.90420 0.59580 0.40420 -0.11800
O 	O 	0.45000 0.05000 0.45000 -2.84100
O 	O 	0.43260 0.06740 0.43260 2.02800
H 	H 	0.40420 0.09580 0.40420 -0.62300
O 	O 	0.45000 0.55000 0.95000 -1.30700
O 	O 	0.43260 0.56740 0.93260 0.50000
H 	H 	0.40420 0.59580 0.90420 -0.11800
O 	O 	0.05000 0.95000 0.95000 -1.16700
O 	O 	0.06740 0.93260 0.93260 0.41100
H 	H 	0.09580 0.90420 0.90420 -0.02000
O 	O 	0.05000 0.45000 0.45000 -2.84100
O 	O 	0.06740 0.43260 0.43260 2.02800
H 	H 	0.09580 0.40420 0.40420 -0.62300
O 	O 	0.55000 0.95000 0.45000 -1.30700
O 	O 	0.56740 0.93260 0.43260 0.50000
H 	H 	0.59580 0.90420 0.40420 -0.11800
O 	O 	0.55000 0.45000 0.95000 -1.30700
O 	O 	0.56740 0.43260 0.93260 0.50000
H 	H 	0.59580 0.40420 0.90420 -0.11800
O 	O 	0.05000 0.05000 0.95000 -2.63300
O 	O 	0.06740 0.06740 0.93260 1.86900
H 	H 	0.09580 0.09580 0.90420 -0.50100
O 	O 	0.05000 0.55000 0.45000 -2.82400
O 	O 	0.06740 0.56740 0.43260 2.00900
H 	H 	0.09580 0.59580 0.40420 -0.61500
O 	O 	0.55000 0.05000 0.45000 -2.82400
O 	O 	0.56740 0.06740 0.43260 2.00900
H 	H 	0.59580 0.09580 0.40420 -0.61500
O 	O 	0.55000 0.55000 0.95000 -1.30900
O 	O 	0.56740 0.56740 0.93260 0.50100
H 	H 	0.59580 0.59580 0.90420 -0.11600
O 	O 	0.95000 0.95000 0.95000 -0.06100
O 	O 	0.93260 0.93260 0.93260 -0.67000
H 	H 	0.90420 0.90420 0.90420 0.35200
O 	O 	0.95000 0.45000 0.45000 -1.30600
O 	O 	0.93260 0.43260 0.43260 0.50100
H 	H 	0.90420 0.40420 0.40420 -0.12000
O 	O 	0.45000 0.95000 0.45000 -1.30600
O 	O 	0.43260 0.93260 0.43260 0.50100
H 	H 	0.40420 0.90420 0.40420 -0.12000
O 	O 	0.45000 0.45000 0.95000 -1.30600
O 	O 	0.43260 0.43260 0.93260 0.50100
H 	H 	0.40420 0.40420 0.90420 -0.12000
O 	O 	0.05000 0.95000 0.05000 -2.63300
O 	O 	0.06740 0.93260 0.06740 1.86900
H 	H 	0.09580 0.90420 0.09580 -0.50100
O 	O 	0.05000 0.45000 0.55000 -2.82400
O 	O 	0.06740 0.43260 0.56740 2.00900
H 	H 	0.09580 0.40420 0.59580 -0.61500
O 	O 	0.55000 0.95000 0.55000 -1.30900
O 	O 	0.56740 0.93260 0.56740 0.50100
H 	H 	0.59580 0.90420 0.59580 -0.11600
O 	O 	0.55000 0.45000 0.05000 -2.82400
O 	O 	0.56740 0.43260 0.06740 2.00900
H 	H 	0.59580 0.40420 0.09580 -0.61500
O 	O 	0.95000 0.05000 0.05000 -2.63300
O 	O 	0.93260 0.06740 0.06740 1.86900
H 	H 	0.90420 0.09580 0.09580 -0.50100
O 	O 	0.95000 0.55000 0.55000 -1.30900
O 	O 	0.93260 0.56740 0.56740 0.50100
H 	H 	0.90420 0.59580 0.59580 -0.11600
O 	O 	0.45000 0.05000 0.55000 -2.82400
O 	O 	0.43260 0.06740 0.56740 2.00900
H 	H 	0.40420 0.09580 0.59580 -0.61500
O 	O 	0.45000 0.55000 0.05000 -2.82400
O 	O 	0.43260 0.56740 0.06740 2.00900
H 	H 	0.40420 0.59580 0.09580 -0.61500
