data_crystal

_cell_length_a 20.75700
_cell_length_b 20.75700
_cell_length_c 20.75700
_cell_angle_alpha 90.00000
_cell_angle_beta  90.00000
_cell_angle_gamma 90.00000

_symmetry_space_group_name_	'P 1'
_symmetry_space_group_name_H-M	'P 1'

loop_
_symmetry_equiv_pos_as_xyz
  x,y,z

loop_
_atom_site_label
_atom_site_type_symbol
_atom_site_fract_x
_atom_site_fract_y
_atom_site_fract_z
_atom_site_charge
Zr	Zr	0.11936 0.00000 -0.00000 3.25100
Zr	Zr	0.11936 0.50000 0.50000 3.30800
Zr	Zr	0.61936 -0.00000 0.50000 3.23400
Zr	Zr	0.61936 0.50000 -0.00000 3.23400
Zr	Zr	0.88064 0.00000 -0.00000 3.16400
Zr	Zr	0.88064 0.50000 0.50000 3.21600
Zr	Zr	0.38064 -0.00000 0.50000 3.23600
Zr	Zr	0.38064 0.50000 -0.00000 3.23600
Zr	Zr	-0.00000 0.11936 -0.00000 3.25100
Zr	Zr	-0.00000 0.61936 0.50000 3.23400
Zr	Zr	0.50000 0.11936 0.50000 3.30800
Zr	Zr	0.50000 0.61936 -0.00000 3.23400
Zr	Zr	-0.00000 0.88064 -0.00000 3.16400
Zr	Zr	0.00000 0.38064 0.50000 3.23600
Zr	Zr	0.50000 0.88064 0.50000 3.21600
Zr	Zr	0.50000 0.38064 -0.00000 3.23600
Zr	Zr	0.00000 -0.00000 0.11936 3.25100
Zr	Zr	-0.00000 0.50000 0.61936 3.23400
Zr	Zr	0.50000 -0.00000 0.61936 3.23400
Zr	Zr	0.50000 0.50000 0.11936 3.30800
Zr	Zr	0.00000 -0.00000 0.88064 3.16400
Zr	Zr	0.00000 0.50000 0.38064 3.23600
Zr	Zr	0.50000 0.00000 0.38064 3.23600
Zr	Zr	0.50000 0.50000 0.88064 3.21500
O 	O 	0.17035 0.09411 -0.00000 0.15500
C 	C 	0.26630 0.18630 -0.00000 -0.04400
H 	H 	0.27830 0.14210 -0.00000 0.06200
O 	O 	0.19210 0.07790 -0.00000 -0.71800
O 	O 	0.17035 0.59411 0.50000 0.47300
C 	C 	0.26630 0.68630 0.50000 -0.00100
H 	H 	0.27830 0.64210 0.50000 0.12300
O 	O 	0.19210 0.57790 0.50000 -0.84500
O 	O 	0.67035 0.09411 0.50000 0.49900
C 	C 	0.76630 0.18630 0.50000 -0.00100
H 	H 	0.77830 0.14210 0.50000 0.13400
O 	O 	0.69210 0.07790 0.50000 -0.88800
O 	O 	0.67035 0.59411 -0.00000 0.37600
C 	C 	0.76630 0.68630 -0.00000 0.03400
H 	H 	0.77830 0.64210 -0.00000 0.09000
O 	O 	0.69210 0.57790 -0.00000 -0.84000
O 	O 	0.82965 0.90589 -0.00000 0.81400
C 	C 	0.73370 0.81370 -0.00000 -0.28200
H 	H 	0.72170 0.85790 -0.00000 0.24500
O 	O 	0.80790 0.92210 -0.00000 -1.01800
O 	O 	0.82965 0.40589 0.50000 1.32800
C 	C 	0.73370 0.31370 0.50000 -0.22300
H 	H 	0.72170 0.35790 0.50000 0.23500
O 	O 	0.80790 0.42210 0.50000 -1.55200
O 	O 	0.32965 0.90589 0.50000 0.21400
C 	C 	0.23370 0.81370 0.50000 -0.20400
H 	H 	0.22170 0.85790 0.50000 0.22600
O 	O 	0.30790 0.92210 0.50000 -0.40600
O 	O 	0.32965 0.40589 -0.00000 0.29200
C 	C 	0.23370 0.31370 -0.00000 -0.15500
H 	H 	0.22170 0.35790 -0.00000 0.11300
O 	O 	0.30790 0.42210 -0.00000 -0.76900
O 	O 	0.82965 0.09411 -0.00000 1.22600
C 	C 	0.73370 0.18630 -0.00000 -0.17600
H 	H 	0.72170 0.14210 -0.00000 0.15700
O 	O 	0.80790 0.07790 -0.00000 -1.62500
O 	O 	0.82965 0.59411 0.50000 1.33000
C 	C 	0.73370 0.68630 0.50000 -0.12900
H 	H 	0.72170 0.64210 0.50000 0.21000
O 	O 	0.80790 0.57790 0.50000 -1.55000
O 	O 	0.32965 0.09411 0.50000 0.81100
C 	C 	0.23370 0.18630 0.50000 -0.09700
H 	H 	0.22170 0.14210 0.50000 0.14200
O 	O 	0.30790 0.07790 0.50000 -1.19500
O 	O 	0.32965 0.59411 -0.00000 0.46300
C 	C 	0.23370 0.68630 -0.00000 -0.05900
H 	H 	0.22170 0.64210 -0.00000 0.09200
O 	O 	0.30790 0.57790 -0.00000 -0.92800
O 	O 	0.17035 0.90589 -0.00000 -0.24600
C 	C 	0.26630 0.81370 -0.00000 -0.15400
H 	H 	0.27830 0.85790 -0.00000 0.15300
O 	O 	0.19210 0.92210 -0.00000 -0.11700
O 	O 	0.17035 0.40589 0.50000 0.07300
C 	C 	0.26630 0.31370 0.50000 -0.09300
H 	H 	0.27830 0.35790 0.50000 0.13700
O 	O 	0.19210 0.42210 0.50000 -0.46400
O 	O 	0.67035 0.90589 0.50000 0.29100
C 	C 	0.76630 0.81370 0.50000 -0.11000
H 	H 	0.77830 0.85790 0.50000 0.22700
O 	O 	0.69210 0.92210 0.50000 -0.47700
O 	O 	0.67035 0.40589 -0.00000 0.20700
C 	C 	0.76630 0.31370 -0.00000 -0.05900
H 	H 	0.77830 0.35790 -0.00000 0.11000
O 	O 	0.69210 0.42210 -0.00000 -0.68200
O 	O 	0.00000 0.17035 0.09411 0.15500
C 	C 	-0.00000 0.26630 0.18630 -0.04400
H 	H 	0.00000 0.27830 0.14210 0.06200
O 	O 	0.00000 0.19210 0.07790 -0.71800
O 	O 	-0.00000 0.67035 0.59411 0.37600
C 	C 	0.00000 0.76630 0.68630 0.03400
H 	H 	0.00000 0.77830 0.64210 0.09000
O 	O 	-0.00000 0.69210 0.57790 -0.84000
O 	O 	0.50000 0.17035 0.59411 0.47300
C 	C 	0.50000 0.26630 0.68630 -0.00100
H 	H 	0.50000 0.27830 0.64210 0.12300
O 	O 	0.50000 0.19210 0.57790 -0.84500
O 	O 	0.50000 0.67035 0.09411 0.49900
C 	C 	0.50000 0.76630 0.18630 -0.00100
H 	H 	0.50000 0.77830 0.14210 0.13400
O 	O 	0.50000 0.69210 0.07790 -0.88800
O 	O 	0.00000 0.82965 0.90589 0.81400
C 	C 	-0.00000 0.73370 0.81370 -0.28200
H 	H 	0.00000 0.72170 0.85790 0.24500
O 	O 	0.00000 0.80790 0.92210 -1.01800
O 	O 	0.00000 0.32965 0.40589 0.29200
C 	C 	0.00000 0.23370 0.31370 -0.15500
H 	H 	-0.00000 0.22170 0.35790 0.11300
O 	O 	0.00000 0.30790 0.42210 -0.76900
O 	O 	0.50000 0.82965 0.40589 1.32800
C 	C 	0.50000 0.73370 0.31370 -0.22300
H 	H 	0.50000 0.72170 0.35790 0.23500
O 	O 	0.50000 0.80790 0.42210 -1.55200
O 	O 	0.50000 0.32965 0.90589 0.21400
C 	C 	0.50000 0.23370 0.81370 -0.20400
H 	H 	0.50000 0.22170 0.85790 0.22600
O 	O 	0.50000 0.30790 0.92210 -0.40600
O 	O 	0.00000 0.82965 0.09411 1.22600
C 	C 	-0.00000 0.73370 0.18630 -0.17600
H 	H 	0.00000 0.72170 0.14210 0.15700
O 	O 	-0.00000 0.80790 0.07790 -1.62500
O 	O 	0.00000 0.32965 0.59411 0.46300
C 	C 	-0.00000 0.23370 0.68630 -0.05900
H 	H 	-0.00000 0.22170 0.64210 0.09200
O 	O 	0.00000 0.30790 0.57790 -0.92800
O 	O 	0.50000 0.82965 0.59411 1.33000
C 	C 	0.50000 0.73370 0.68630 -0.12900
H 	H 	0.50000 0.72170 0.64210 0.21000
O 	O 	0.50000 0.80790 0.57790 -1.55000
O 	O 	0.50000 0.32965 0.09411 0.81100
C 	C 	0.50000 0.23370 0.18630 -0.09700
H 	H 	0.50000 0.22170 0.14210 0.14200
O 	O 	0.50000 0.30790 0.07790 -1.19500
O 	O 	-0.00000 0.17035 0.90589 -0.24600
C 	C 	-0.00000 0.26630 0.81370 -0.15400
H 	H 	0.00000 0.27830 0.85790 0.15300
O 	O 	-0.00000 0.19210 0.92210 -0.11700
O 	O 	-0.00000 0.67035 0.40589 0.20700
C 	C 	0.00000 0.76630 0.31370 -0.05900
H 	H 	-0.00000 0.77830 0.35790 0.11000
O 	O 	-0.00000 0.69210 0.42210 -0.68200
O 	O 	0.50000 0.17035 0.40589 0.07300
C 	C 	0.50000 0.26630 0.31370 -0.09300
H 	H 	0.50000 0.27830 0.35790 0.13700
O 	O 	0.50000 0.19210 0.42210 -0.46400
O 	O 	0.50000 0.67035 0.90589 0.29100
C 	C 	0.50000 0.76630 0.81370 -0.11000
H 	H 	0.50000 0.77830 0.85790 0.22700
O 	O 	0.50000 0.69210 0.92210 -0.47700
O 	O 	0.09411 0.00000 0.17035 0.15500
C 	C 	0.18630 -0.00000 0.26630 -0.04400
H 	H 	0.14210 0.00000 0.27830 0.06200
O 	O 	0.07790 0.00000 0.19210 -0.71800
O 	O 	0.09411 0.50000 0.67035 0.49900
C 	C 	0.18630 0.50000 0.76630 -0.00100
H 	H 	0.14210 0.50000 0.77830 0.13400
O 	O 	0.07790 0.50000 0.69210 -0.88800
O 	O 	0.59411 0.00000 0.67035 0.37600
C 	C 	0.68630 -0.00000 0.76630 0.03400
H 	H 	0.64210 -0.00000 0.77830 0.09000
O 	O 	0.57790 -0.00000 0.69210 -0.84000
O 	O 	0.59411 0.50000 0.17035 0.47300
C 	C 	0.68630 0.50000 0.26630 -0.00100
H 	H 	0.64210 0.50000 0.27830 0.12300
O 	O 	0.57790 0.50000 0.19210 -0.84500
O 	O 	0.90589 0.00000 0.82965 0.81400
C 	C 	0.81370 0.00000 0.73370 -0.28200
H 	H 	0.85790 -0.00000 0.72170 0.24500
O 	O 	0.92210 -0.00000 0.80790 -1.01800
O 	O 	0.90589 0.50000 0.32965 0.21400
C 	C 	0.81370 0.50000 0.23370 -0.20400
H 	H 	0.85790 0.50000 0.22170 0.22600
O 	O 	0.92210 0.50000 0.30790 -0.40600
O 	O 	0.40589 0.00000 0.32965 0.29200
C 	C 	0.31370 -0.00000 0.23370 -0.15500
H 	H 	0.35790 -0.00000 0.22170 0.11300
O 	O 	0.42210 -0.00000 0.30790 -0.76900
O 	O 	0.40589 0.50000 0.82965 1.32800
C 	C 	0.31370 0.50000 0.73370 -0.22300
H 	H 	0.35790 0.50000 0.72170 0.23500
O 	O 	0.42210 0.50000 0.80790 -1.55200
O 	O 	0.09411 0.00000 0.82965 1.22600
C 	C 	0.18630 0.00000 0.73370 -0.17600
H 	H 	0.14210 -0.00000 0.72170 0.15700
O 	O 	0.07790 -0.00000 0.80790 -1.62500
O 	O 	0.09411 0.50000 0.32965 0.81100
C 	C 	0.18630 0.50000 0.23370 -0.09700
H 	H 	0.14210 0.50000 0.22170 0.14200
O 	O 	0.07790 0.50000 0.30790 -1.19500
O 	O 	0.59411 0.00000 0.32965 0.46300
C 	C 	0.68630 -0.00000 0.23370 -0.05900
H 	H 	0.64210 -0.00000 0.22170 0.09200
O 	O 	0.57790 -0.00000 0.30790 -0.92800
O 	O 	0.59411 0.50000 0.82965 1.33000
C 	C 	0.68630 0.50000 0.73370 -0.12900
H 	H 	0.64210 0.50000 0.72170 0.21000
O 	O 	0.57790 0.50000 0.80790 -1.55000
O 	O 	0.90589 0.00000 0.17035 -0.24600
C 	C 	0.81370 -0.00000 0.26630 -0.15400
H 	H 	0.85790 0.00000 0.27830 0.15300
O 	O 	0.92210 0.00000 0.19210 -0.11700
O 	O 	0.90589 0.50000 0.67035 0.29100
C 	C 	0.81370 0.50000 0.76630 -0.11000
H 	H 	0.85790 0.50000 0.77830 0.22700
O 	O 	0.92210 0.50000 0.69210 -0.47700
O 	O 	0.40589 0.00000 0.67035 0.20700
C 	C 	0.31370 -0.00000 0.76630 -0.05900
H 	H 	0.35790 -0.00000 0.77830 0.11000
O 	O 	0.42210 -0.00000 0.69210 -0.68200
O 	O 	0.40589 0.50000 0.17035 0.07300
C 	C 	0.31370 0.50000 0.26630 -0.09300
H 	H 	0.35790 0.50000 0.27830 0.13700
O 	O 	0.42210 0.50000 0.19210 -0.46400
O 	O 	0.09411 0.17035 -0.00000 0.15500
C 	C 	0.18630 0.26630 -0.00000 -0.04400
H 	H 	0.14210 0.27830 -0.00000 0.06200
O 	O 	0.07790 0.19210 -0.00000 -0.71800
O 	O 	0.09411 0.67035 0.50000 0.49900
C 	C 	0.18630 0.76630 0.50000 -0.00100
H 	H 	0.14210 0.77830 0.50000 0.13400
O 	O 	0.07790 0.69210 0.50000 -0.88800
O 	O 	0.59411 0.17035 0.50000 0.47300
C 	C 	0.68630 0.26630 0.50000 -0.00100
H 	H 	0.64210 0.27830 0.50000 0.12300
O 	O 	0.57790 0.19210 0.50000 -0.84500
O 	O 	0.59411 0.67035 -0.00000 0.37600
C 	C 	0.68630 0.76630 -0.00000 0.03400
H 	H 	0.64210 0.77830 -0.00000 0.09000
O 	O 	0.57790 0.69210 -0.00000 -0.84000
O 	O 	0.90589 0.82965 -0.00000 0.81400
C 	C 	0.81370 0.73370 -0.00000 -0.28200
H 	H 	0.85790 0.72170 -0.00000 0.24500
O 	O 	0.92210 0.80790 -0.00000 -1.01800
O 	O 	0.90589 0.32965 0.50000 0.21400
C 	C 	0.81370 0.23370 0.50000 -0.20400
H 	H 	0.85790 0.22170 0.50000 0.22600
O 	O 	0.92210 0.30790 0.50000 -0.40600
O 	O 	0.40589 0.82965 0.50000 1.32800
C 	C 	0.31370 0.73370 0.50000 -0.22300
H 	H 	0.35790 0.72170 0.50000 0.23500
O 	O 	0.42210 0.80790 0.50000 -1.55200
O 	O 	0.40589 0.32965 -0.00000 0.29200
C 	C 	0.31370 0.23370 -0.00000 -0.15500
H 	H 	0.35790 0.22170 -0.00000 0.11300
O 	O 	0.42210 0.30790 -0.00000 -0.76900
O 	O 	0.09411 0.82965 -0.00000 1.22600
C 	C 	0.18630 0.73370 -0.00000 -0.17600
H 	H 	0.14210 0.72170 -0.00000 0.15700
O 	O 	0.07790 0.80790 -0.00000 -1.62500
O 	O 	0.09411 0.32965 0.50000 0.81100
C 	C 	0.18630 0.23370 0.50000 -0.09700
H 	H 	0.14210 0.22170 0.50000 0.14200
O 	O 	0.07790 0.30790 0.50000 -1.19500
O 	O 	0.59411 0.82965 0.50000 1.33000
C 	C 	0.68630 0.73370 0.50000 -0.12900
H 	H 	0.64210 0.72170 0.50000 0.21000
O 	O 	0.57790 0.80790 0.50000 -1.55000
O 	O 	0.59411 0.32965 -0.00000 0.46300
C 	C 	0.68630 0.23370 -0.00000 -0.05900
H 	H 	0.64210 0.22170 -0.00000 0.09200
O 	O 	0.57790 0.30790 -0.00000 -0.92800
O 	O 	0.90589 0.17035 -0.00000 -0.24600
C 	C 	0.81370 0.26630 -0.00000 -0.15400
H 	H 	0.85790 0.27830 -0.00000 0.15300
O 	O 	0.92210 0.19210 -0.00000 -0.11700
O 	O 	0.90589 0.67035 0.50000 0.29100
C 	C 	0.81370 0.76630 0.50000 -0.11000
H 	H 	0.85790 0.77830 0.50000 0.22700
O 	O 	0.92210 0.69210 0.50000 -0.47700
O 	O 	0.40589 0.17035 0.50000 0.07300
C 	C 	0.31370 0.26630 0.50000 -0.09300
H 	H 	0.35790 0.27830 0.50000 0.13700
O 	O 	0.42210 0.19210 0.50000 -0.46400
O 	O 	0.40589 0.67035 -0.00000 0.20700
C 	C 	0.31370 0.76630 -0.00000 -0.05900
H 	H 	0.35790 0.77830 -0.00000 0.11000
O 	O 	0.42210 0.69210 -0.00000 -0.68200
O 	O 	0.17035 -0.00000 0.90589 -0.24600
C 	C 	0.26630 -0.00000 0.81370 -0.15400
H 	H 	0.27830 0.00000 0.85790 0.15300
O 	O 	0.19210 -0.00000 0.92210 -0.11700
O 	O 	0.17035 0.50000 0.40589 0.07300
C 	C 	0.26630 0.50000 0.31370 -0.09300
H 	H 	0.27830 0.50000 0.35790 0.13700
O 	O 	0.19210 0.50000 0.42210 -0.46400
O 	O 	0.67035 -0.00000 0.40589 0.20700
C 	C 	0.76630 -0.00000 0.31370 -0.05900
H 	H 	0.77830 -0.00000 0.35790 0.11000
O 	O 	0.69210 -0.00000 0.42210 -0.68200
O 	O 	0.67035 0.50000 0.90589 0.29100
C 	C 	0.76630 0.50000 0.81370 -0.11000
H 	H 	0.77830 0.50000 0.85790 0.22700
O 	O 	0.69210 0.50000 0.92210 -0.47700
O 	O 	0.82965 0.00000 0.09411 1.22600
C 	C 	0.73370 -0.00000 0.18630 -0.17600
H 	H 	0.72170 0.00000 0.14210 0.15700
O 	O 	0.80790 0.00000 0.07790 -1.62500
O 	O 	0.82965 0.50000 0.59411 1.33000
C 	C 	0.73370 0.50000 0.68630 -0.12900
H 	H 	0.72170 0.50000 0.64210 0.21000
O 	O 	0.80790 0.50000 0.57790 -1.55000
O 	O 	0.32965 -0.00000 0.59411 0.46300
C 	C 	0.23370 0.00000 0.68630 -0.05900
H 	H 	0.22170 0.00000 0.64210 0.09200
O 	O 	0.30790 -0.00000 0.57790 -0.92800
O 	O 	0.32965 0.50000 0.09411 0.81100
C 	C 	0.23370 0.50000 0.18630 -0.09700
H 	H 	0.22170 0.50000 0.14210 0.14200
O 	O 	0.30790 0.50000 0.07790 -1.19500
O 	O 	0.82965 -0.00000 0.90589 0.81400
C 	C 	0.73370 -0.00000 0.81370 -0.28200
H 	H 	0.72170 0.00000 0.85790 0.24500
O 	O 	0.80790 -0.00000 0.92210 -1.01800
O 	O 	0.82965 0.50000 0.40589 1.32800
C 	C 	0.73370 0.50000 0.31370 -0.22300
H 	H 	0.72170 0.50000 0.35790 0.23500
O 	O 	0.80790 0.50000 0.42210 -1.55200
O 	O 	0.32965 -0.00000 0.40589 0.29200
C 	C 	0.23370 -0.00000 0.31370 -0.15500
H 	H 	0.22170 -0.00000 0.35790 0.11300
O 	O 	0.30790 -0.00000 0.42210 -0.76900
O 	O 	0.32965 0.50000 0.90589 0.21400
C 	C 	0.23370 0.50000 0.81370 -0.20400
H 	H 	0.22170 0.50000 0.85790 0.22600
O 	O 	0.30790 0.50000 0.92210 -0.40600
O 	O 	0.17035 0.00000 0.09411 0.15500
C 	C 	0.26630 -0.00000 0.18630 -0.04400
H 	H 	0.27830 0.00000 0.14210 0.06200
O 	O 	0.19210 0.00000 0.07790 -0.71800
O 	O 	0.17035 0.50000 0.59411 0.47300
C 	C 	0.26630 0.50000 0.68630 -0.00100
H 	H 	0.27830 0.50000 0.64210 0.12300
O 	O 	0.19210 0.50000 0.57790 -0.84500
O 	O 	0.67035 -0.00000 0.59411 0.37600
C 	C 	0.76630 0.00000 0.68630 0.03400
H 	H 	0.77830 0.00000 0.64210 0.09000
O 	O 	0.69210 -0.00000 0.57790 -0.84000
O 	O 	0.67035 0.50000 0.09411 0.49900
C 	C 	0.76630 0.50000 0.18630 -0.00100
H 	H 	0.77830 0.50000 0.14210 0.13400
O 	O 	0.69210 0.50000 0.07790 -0.88800
O 	O 	0.00000 0.09411 0.82965 1.22600
C 	C 	-0.00000 0.18630 0.73370 -0.17600
H 	H 	0.00000 0.14210 0.72170 0.15700
O 	O 	-0.00000 0.07790 0.80790 -1.62500
O 	O 	0.00000 0.59411 0.32965 0.46300
C 	C 	-0.00000 0.68630 0.23370 -0.05900
H 	H 	-0.00000 0.64210 0.22170 0.09200
O 	O 	-0.00000 0.57790 0.30790 -0.92800
O 	O 	0.50000 0.09411 0.32965 0.81100
C 	C 	0.50000 0.18630 0.23370 -0.09700
H 	H 	0.50000 0.14210 0.22170 0.14200
O 	O 	0.50000 0.07790 0.30790 -1.19500
O 	O 	0.50000 0.59411 0.82965 1.33000
C 	C 	0.50000 0.68630 0.73370 -0.12900
H 	H 	0.50000 0.64210 0.72170 0.21000
O 	O 	0.50000 0.57790 0.80790 -1.55000
O 	O 	-0.00000 0.90589 0.17035 -0.24600
C 	C 	-0.00000 0.81370 0.26630 -0.15400
H 	H 	0.00000 0.85790 0.27830 0.15300
O 	O 	-0.00000 0.92210 0.19210 -0.11700
O 	O 	-0.00000 0.40589 0.67035 0.20700
C 	C 	-0.00000 0.31370 0.76630 -0.05900
H 	H 	-0.00000 0.35790 0.77830 0.11000
O 	O 	-0.00000 0.42210 0.69210 -0.68200
O 	O 	0.50000 0.90589 0.67035 0.29100
C 	C 	0.50000 0.81370 0.76630 -0.11000
H 	H 	0.50000 0.85790 0.77830 0.22700
O 	O 	0.50000 0.92210 0.69210 -0.47700
O 	O 	0.50000 0.40589 0.17035 0.07300
C 	C 	0.50000 0.31370 0.26630 -0.09300
H 	H 	0.50000 0.35790 0.27830 0.13700
O 	O 	0.50000 0.42210 0.19210 -0.46400
O 	O 	0.00000 0.09411 0.17035 0.15500
C 	C 	-0.00000 0.18630 0.26630 -0.04400
H 	H 	0.00000 0.14210 0.27830 0.06200
O 	O 	0.00000 0.07790 0.19210 -0.71800
O 	O 	-0.00000 0.59411 0.67035 0.37600
C 	C 	-0.00000 0.68630 0.76630 0.03400
H 	H 	0.00000 0.64210 0.77830 0.09000
O 	O 	-0.00000 0.57790 0.69210 -0.84000
O 	O 	0.50000 0.09411 0.67035 0.49900
C 	C 	0.50000 0.18630 0.76630 -0.00100
H 	H 	0.50000 0.14210 0.77830 0.13400
O 	O 	0.50000 0.07790 0.69210 -0.88800
O 	O 	0.50000 0.59411 0.17035 0.47300
C 	C 	0.50000 0.68630 0.26630 -0.00100
H 	H 	0.50000 0.64210 0.27830 0.12300
O 	O 	0.50000 0.57790 0.19210 -0.84500
O 	O 	0.00000 0.90589 0.82965 0.81400
C 	C 	-0.00000 0.81370 0.73370 -0.28200
H 	H 	0.00000 0.85790 0.72170 0.24500
O 	O 	0.00000 0.92210 0.80790 -1.01800
O 	O 	0.00000 0.40589 0.32965 0.29200
C 	C 	0.00000 0.31370 0.23370 -0.15500
H 	H 	-0.00000 0.35790 0.22170 0.11300
O 	O 	-0.00000 0.42210 0.30790 -0.76900
O 	O 	0.50000 0.90589 0.32965 0.21400
C 	C 	0.50000 0.81370 0.23370 -0.20400
H 	H 	0.50000 0.85790 0.22170 0.22600
O 	O 	0.50000 0.92210 0.30790 -0.40600
O 	O 	0.50000 0.40589 0.82965 1.32800
C 	C 	0.50000 0.31370 0.73370 -0.22300
H 	H 	0.50000 0.35790 0.72170 0.23500
O 	O 	0.50000 0.42210 0.80790 -1.55200
C 	C 	0.15180 0.15180 -0.00000 -0.15400
C 	C 	0.20280 0.20280 -0.00000 0.10100
C 	C 	0.15180 0.65180 0.50000 -0.32400
C 	C 	0.20280 0.70280 0.50000 0.19100
C 	C 	0.65180 0.15180 0.50000 -0.32400
C 	C 	0.70280 0.20280 0.50000 0.19100
C 	C 	0.65180 0.65180 -0.00000 -0.30900
C 	C 	0.70280 0.70280 -0.00000 0.11200
C 	C 	0.84820 0.84820 -0.00000 -0.66600
C 	C 	0.79720 0.79720 -0.00000 0.46000
C 	C 	0.84820 0.34820 0.50000 -0.57100
C 	C 	0.79720 0.29720 0.50000 0.41700
C 	C 	0.34820 0.84820 0.50000 -0.57100
C 	C 	0.29720 0.79720 0.50000 0.41700
C 	C 	0.34820 0.34820 -0.00000 -0.29300
C 	C 	0.29720 0.29720 -0.00000 0.21000
C 	C 	0.84820 0.15180 -0.00000 -0.41400
C 	C 	0.79720 0.20280 -0.00000 0.28400
C 	C 	0.84820 0.65180 0.50000 -0.57800
C 	C 	0.79720 0.70280 0.50000 0.36800
C 	C 	0.34820 0.15180 0.50000 -0.31400
C 	C 	0.29720 0.20280 0.50000 0.23800
C 	C 	0.34820 0.65180 -0.00000 -0.30100
C 	C 	0.29720 0.70280 -0.00000 0.16000
C 	C 	0.15180 0.84820 -0.00000 -0.41400
C 	C 	0.20280 0.79720 -0.00000 0.28400
C 	C 	0.15180 0.34820 0.50000 -0.31400
C 	C 	0.20280 0.29720 0.50000 0.23800
C 	C 	0.65180 0.84820 0.50000 -0.57800
C 	C 	0.70280 0.79720 0.50000 0.36800
C 	C 	0.65180 0.34820 -0.00000 -0.30100
C 	C 	0.70280 0.29720 -0.00000 0.16000
C 	C 	0.00000 0.15180 0.15180 -0.15400
C 	C 	0.00000 0.20280 0.20280 0.10100
C 	C 	-0.00000 0.65180 0.65180 -0.30900
C 	C 	-0.00000 0.70280 0.70280 0.11200
C 	C 	0.50000 0.15180 0.65180 -0.32400
C 	C 	0.50000 0.20280 0.70280 0.19100
C 	C 	0.50000 0.65180 0.15180 -0.32400
C 	C 	0.50000 0.70280 0.20280 0.19100
C 	C 	-0.00000 0.84820 0.84820 -0.66600
C 	C 	0.00000 0.79720 0.79720 0.46000
C 	C 	0.00000 0.34820 0.34820 -0.29300
C 	C 	0.00000 0.29720 0.29720 0.21000
C 	C 	0.50000 0.84820 0.34820 -0.57100
C 	C 	0.50000 0.79720 0.29720 0.41700
C 	C 	0.50000 0.34820 0.84820 -0.57100
C 	C 	0.50000 0.29720 0.79720 0.41700
C 	C 	-0.00000 0.84820 0.15180 -0.41400
C 	C 	0.00000 0.79720 0.20280 0.28400
C 	C 	-0.00000 0.34820 0.65180 -0.30100
C 	C 	-0.00000 0.29720 0.70280 0.16000
C 	C 	0.50000 0.84820 0.65180 -0.57800
C 	C 	0.50000 0.79720 0.70280 0.36800
C 	C 	0.50000 0.34820 0.15180 -0.31400
C 	C 	0.50000 0.29720 0.20280 0.23800
C 	C 	-0.00000 0.15180 0.84820 -0.41400
C 	C 	0.00000 0.20280 0.79720 0.28400
C 	C 	-0.00000 0.65180 0.34820 -0.30100
C 	C 	-0.00000 0.70280 0.29720 0.16000
C 	C 	0.50000 0.15180 0.34820 -0.31400
C 	C 	0.50000 0.20280 0.29720 0.23800
C 	C 	0.50000 0.65180 0.84820 -0.57800
C 	C 	0.50000 0.70280 0.79720 0.36800
C 	C 	0.15180 0.00000 0.15180 -0.15400
C 	C 	0.20280 0.00000 0.20280 0.10100
C 	C 	0.15180 0.50000 0.65180 -0.32400
C 	C 	0.20280 0.50000 0.70280 0.19100
C 	C 	0.65180 0.00000 0.65180 -0.30900
C 	C 	0.70280 -0.00000 0.70280 0.11200
C 	C 	0.65180 0.50000 0.15180 -0.32400
C 	C 	0.70280 0.50000 0.20280 0.19100
C 	C 	0.84820 0.00000 0.84820 -0.66600
C 	C 	0.79720 0.00000 0.79720 0.46000
C 	C 	0.84820 0.50000 0.34820 -0.57100
C 	C 	0.79720 0.50000 0.29720 0.41700
C 	C 	0.34820 0.00000 0.34820 -0.29300
C 	C 	0.29720 0.00000 0.29720 0.21000
C 	C 	0.34820 0.50000 0.84820 -0.57100
C 	C 	0.29720 0.50000 0.79720 0.41700
C 	C 	0.15180 0.00000 0.84820 -0.41400
C 	C 	0.20280 0.00000 0.79720 0.28400
C 	C 	0.15180 0.50000 0.34820 -0.31400
C 	C 	0.20280 0.50000 0.29720 0.23800
C 	C 	0.65180 0.00000 0.34820 -0.30100
C 	C 	0.70280 0.00000 0.29720 0.16000
C 	C 	0.65180 0.50000 0.84820 -0.57800
C 	C 	0.70280 0.50000 0.79720 0.36800
C 	C 	0.84820 0.00000 0.15180 -0.41400
C 	C 	0.79720 0.00000 0.20280 0.28400
C 	C 	0.84820 0.50000 0.65180 -0.57800
C 	C 	0.79720 0.50000 0.70280 0.36800
C 	C 	0.34820 0.00000 0.65180 -0.30100
C 	C 	0.29720 -0.00000 0.70280 0.16000
C 	C 	0.34820 0.50000 0.15180 -0.31400
C 	C 	0.29720 0.50000 0.20280 0.23800
O 	O 	0.06790 0.06790 0.06790 8.87600
O 	O 	0.05090 0.05090 0.05090 -8.77500
H 	H 	0.09580 0.09580 0.09580 -2.58300
O 	O 	0.06790 0.56790 0.56790 4.45700
O 	O 	0.05090 0.55090 0.55090 -4.86700
H 	H 	0.09580 0.59580 0.59580 -1.33400
O 	O 	0.56790 0.06790 0.56790 4.45700
O 	O 	0.55090 0.05090 0.55090 -4.86700
H 	H 	0.59580 0.09580 0.59580 -1.33400
O 	O 	0.56790 0.56790 0.06790 4.45700
O 	O 	0.55090 0.55090 0.05090 -4.86700
H 	H 	0.59580 0.59580 0.09580 -1.33400
O 	O 	0.93210 0.93210 0.06790 -0.19800
O 	O 	0.94910 0.94910 0.05090 -0.65300
H 	H 	0.90420 0.90420 0.09580 0.10000
O 	O 	0.93210 0.43210 0.56790 -0.26600
O 	O 	0.94910 0.44910 0.55090 -0.63700
H 	H 	0.90420 0.40420 0.59580 0.06000
O 	O 	0.43210 0.93210 0.56790 -0.26600
O 	O 	0.44910 0.94910 0.55090 -0.63700
H 	H 	0.40420 0.90420 0.59580 0.06000
O 	O 	0.43210 0.43210 0.06790 4.54400
O 	O 	0.44910 0.44910 0.05090 -4.93600
H 	H 	0.40420 0.40420 0.09580 -1.36100
O 	O 	0.93210 0.06790 0.93210 -0.19800
O 	O 	0.94910 0.05090 0.94910 -0.65300
H 	H 	0.90420 0.09580 0.90420 0.10000
O 	O 	0.93210 0.56790 0.43210 -0.26600
O 	O 	0.94910 0.55090 0.44910 -0.63700
H 	H 	0.90420 0.59580 0.40420 0.06000
O 	O 	0.43210 0.06790 0.43210 4.54400
O 	O 	0.44910 0.05090 0.44910 -4.93600
H 	H 	0.40420 0.09580 0.40420 -1.36100
O 	O 	0.43210 0.56790 0.93210 -0.26600
O 	O 	0.44910 0.55090 0.94910 -0.63700
H 	H 	0.40420 0.59580 0.90420 0.06000
O 	O 	0.06790 0.93210 0.93210 -0.19800
O 	O 	0.05090 0.94910 0.94910 -0.65300
H 	H 	0.09580 0.90420 0.90420 0.10000
O 	O 	0.06790 0.43210 0.43210 4.54400
O 	O 	0.05090 0.44910 0.44910 -4.93600
H 	H 	0.09580 0.40420 0.40420 -1.36100
O 	O 	0.56790 0.93210 0.43210 -0.26600
O 	O 	0.55090 0.94910 0.44910 -0.63700
H 	H 	0.59580 0.90420 0.40420 0.06000
O 	O 	0.56790 0.43210 0.93210 -0.26600
O 	O 	0.55090 0.44910 0.94910 -0.63700
H 	H 	0.59580 0.40420 0.90420 0.06000
O 	O 	0.06790 0.06790 0.93210 4.41000
O 	O 	0.05090 0.05090 0.94910 -4.77400
H 	H 	0.09580 0.09580 0.90420 -1.26000
O 	O 	0.06790 0.56790 0.43210 4.50100
O 	O 	0.05090 0.55090 0.44910 -4.90200
H 	H 	0.09580 0.59580 0.40420 -1.34800
O 	O 	0.56790 0.06790 0.43210 4.50100
O 	O 	0.55090 0.05090 0.44910 -4.90200
H 	H 	0.59580 0.09580 0.40420 -1.34800
O 	O 	0.56790 0.56790 0.93210 -0.31800
O 	O 	0.55090 0.55090 0.94910 -0.59400
H 	H 	0.59580 0.59580 0.90420 0.07500
O 	O 	0.93210 0.93210 0.93210 -4.94700
O 	O 	0.94910 0.94910 0.94910 3.59000
H 	H 	0.90420 0.90420 0.90420 1.49700
O 	O 	0.93210 0.43210 0.43210 -0.21500
O 	O 	0.94910 0.44910 0.44910 -0.67800
H 	H 	0.90420 0.40420 0.40420 0.04500
O 	O 	0.43210 0.93210 0.43210 -0.21500
O 	O 	0.44910 0.94910 0.44910 -0.67800
H 	H 	0.40420 0.90420 0.40420 0.04500
O 	O 	0.43210 0.43210 0.93210 -0.21500
O 	O 	0.44910 0.44910 0.94910 -0.67800
H 	H 	0.40420 0.40420 0.90420 0.04500
O 	O 	0.06790 0.93210 0.06790 4.41000
O 	O 	0.05090 0.94910 0.05090 -4.77400
H 	H 	0.09580 0.90420 0.09580 -1.26000
O 	O 	0.06790 0.43210 0.56790 4.50100
O 	O 	0.05090 0.44910 0.55090 -4.90200
H 	H 	0.09580 0.40420 0.59580 -1.34800
O 	O 	0.56790 0.93210 0.56790 -0.31800
O 	O 	0.55090 0.94910 0.55090 -0.59400
H 	H 	0.59580 0.90420 0.59580 0.07500
O 	O 	0.56790 0.43210 0.06790 4.50100
O 	O 	0.55090 0.44910 0.05090 -4.90200
H 	H 	0.59580 0.40420 0.09580 -1.34800
O 	O 	0.93210 0.06790 0.06790 4.41000
O 	O 	0.94910 0.05090 0.05090 -4.77400
H 	H 	0.90420 0.09580 0.09580 -1.26000
O 	O 	0.93210 0.56790 0.56790 -0.31800
O 	O 	0.94910 0.55090 0.55090 -0.59400
H 	H 	0.90420 0.59580 0.59580 0.07500
O 	O 	0.43210 0.06790 0.56790 4.50100
O 	O 	0.44910 0.05090 0.55090 -4.90200
H 	H 	0.40420 0.09580 0.59580 -1.34800
O 	O 	0.43210 0.56790 0.06790 4.50100
O 	O 	0.44910 0.55090 0.05090 -4.90200
H 	H 	0.40420 0.59580 0.09580 -1.34800
