data_crystal

_cell_length_a 20.74750
_cell_length_b 20.74750
_cell_length_c 20.74750
_cell_angle_alpha 90.00000
_cell_angle_beta  90.00000
_cell_angle_gamma 90.00000

_symmetry_space_group_name_	'P 1'
_symmetry_space_group_name_H-M	'P 1'

loop_
_symmetry_equiv_pos_as_xyz
  x,y,z

loop_
_atom_site_label
_atom_site_type_symbol
_atom_site_fract_x
_atom_site_fract_y
_atom_site_fract_z
_atom_site_charge
Zr	Zr	0.11957 0.00000 -0.00000 3.21800
Zr	Zr	0.11957 0.50000 0.50000 3.28000
Zr	Zr	0.61957 0.00000 0.50000 3.22300
Zr	Zr	0.61957 0.50000 -0.00000 3.22300
Zr	Zr	0.88043 0.00000 -0.00000 3.16300
Zr	Zr	0.88043 0.50000 0.50000 3.22300
Zr	Zr	0.38043 0.00000 0.50000 3.22200
Zr	Zr	0.38043 0.50000 -0.00000 3.22200
Zr	Zr	0.00000 0.11957 -0.00000 3.21800
Zr	Zr	-0.00000 0.61957 0.50000 3.22300
Zr	Zr	0.50000 0.11957 0.50000 3.28000
Zr	Zr	0.50000 0.61957 -0.00000 3.22300
Zr	Zr	-0.00000 0.88043 -0.00000 3.16300
Zr	Zr	0.00000 0.38043 0.50000 3.22200
Zr	Zr	0.50000 0.88043 0.50000 3.22300
Zr	Zr	0.50000 0.38043 -0.00000 3.22200
Zr	Zr	0.00000 0.00000 0.11957 3.21800
Zr	Zr	-0.00000 0.50000 0.61957 3.22300
Zr	Zr	0.50000 0.00000 0.61957 3.22400
Zr	Zr	0.50000 0.50000 0.11957 3.28100
Zr	Zr	0.00000 0.00000 0.88043 3.16400
Zr	Zr	0.00000 0.50000 0.38043 3.22300
Zr	Zr	0.50000 0.00000 0.38043 3.22300
Zr	Zr	0.50000 0.50000 0.88043 3.22400
O 	O 	0.16983 0.09448 -0.00000 -0.35800
C 	C 	0.18575 0.26721 -0.00000 -0.03800
H 	H 	0.14150 0.27900 -0.00000 0.01300
O 	O 	0.18520 0.07860 -0.00000 -0.31500
O 	O 	0.16983 0.59448 0.50000 -0.21200
C 	C 	0.18575 0.76721 0.50000 0.01900
H 	H 	0.14150 0.77900 0.50000 0.07700
O 	O 	0.18520 0.57860 0.50000 -0.32400
O 	O 	0.66983 0.09448 0.50000 -0.25300
C 	C 	0.68575 0.26721 0.50000 0.00200
H 	H 	0.64150 0.27900 0.50000 0.06700
O 	O 	0.68520 0.07860 0.50000 -0.30500
O 	O 	0.66983 0.59448 -0.00000 -0.30500
C 	C 	0.68575 0.76721 -0.00000 0.01600
H 	H 	0.64150 0.77900 -0.00000 0.04200
O 	O 	0.68520 0.57860 -0.00000 -0.32300
O 	O 	0.83017 0.90552 -0.00000 -0.15100
C 	C 	0.81425 0.73279 -0.00000 -0.09900
H 	H 	0.85850 0.72100 -0.00000 0.11700
O 	O 	0.81480 0.92140 -0.00000 -0.32400
O 	O 	0.83017 0.40552 0.50000 -0.30700
C 	C 	0.81425 0.23279 0.50000 -0.06000
H 	H 	0.85850 0.22100 0.50000 0.14500
O 	O 	0.81480 0.42140 0.50000 -0.22800
O 	O 	0.33017 0.90552 0.50000 0.01300
C 	C 	0.31425 0.73279 0.50000 -0.05800
H 	H 	0.35850 0.72100 0.50000 0.08400
O 	O 	0.31480 0.92140 0.50000 -0.39100
O 	O 	0.33017 0.40552 -0.00000 -0.34400
C 	C 	0.31425 0.23279 -0.00000 -0.05800
H 	H 	0.35850 0.22100 -0.00000 0.02300
O 	O 	0.31480 0.42140 -0.00000 -0.30500
O 	O 	0.83017 0.09448 -0.00000 -0.45000
C 	C 	0.81425 0.26721 -0.00000 -0.07000
H 	H 	0.85850 0.27900 -0.00000 0.10800
O 	O 	0.81480 0.07860 -0.00000 -0.21800
O 	O 	0.83017 0.59448 0.50000 -0.30700
C 	C 	0.81425 0.76721 0.50000 -0.01400
H 	H 	0.85850 0.77900 0.50000 0.16900
O 	O 	0.81480 0.57860 0.50000 -0.22700
O 	O 	0.33017 0.09448 0.50000 -0.29100
C 	C 	0.31425 0.26721 0.50000 -0.02700
H 	H 	0.35850 0.27900 0.50000 0.07400
O 	O 	0.31480 0.07860 0.50000 -0.28300
O 	O 	0.33017 0.59448 -0.00000 -0.34400
C 	C 	0.31425 0.76721 -0.00000 -0.01100
H 	H 	0.35850 0.77900 -0.00000 0.04900
O 	O 	0.31480 0.57860 -0.00000 -0.30200
O 	O 	0.16983 0.90552 -0.00000 -0.05200
C 	C 	0.18575 0.73279 -0.00000 -0.06900
H 	H 	0.14150 0.72100 -0.00000 0.02400
O 	O 	0.18520 0.92140 -0.00000 -0.42400
O 	O 	0.16983 0.40552 0.50000 -0.21200
C 	C 	0.18575 0.23279 0.50000 -0.02800
H 	H 	0.14150 0.22100 0.50000 0.05100
O 	O 	0.18520 0.42140 0.50000 -0.32600
O 	O 	0.66983 0.90552 0.50000 0.04700
C 	C 	0.68575 0.73279 0.50000 -0.03000
H 	H 	0.64150 0.72100 0.50000 0.07600
O 	O 	0.68520 0.92140 0.50000 -0.41100
O 	O 	0.66983 0.40552 -0.00000 -0.30500
C 	C 	0.68575 0.23279 -0.00000 -0.02900
H 	H 	0.64150 0.22100 -0.00000 0.01600
O 	O 	0.68520 0.42140 -0.00000 -0.32600
O 	O 	0.00000 0.16983 0.09448 -0.35800
C 	C 	-0.00000 0.18575 0.26721 -0.03800
H 	H 	-0.00000 0.14150 0.27900 0.01300
O 	O 	0.00000 0.18520 0.07860 -0.31500
O 	O 	0.00000 0.66983 0.59448 -0.30500
C 	C 	-0.00000 0.68575 0.76721 0.01600
H 	H 	0.00000 0.64150 0.77900 0.04200
O 	O 	0.00000 0.68520 0.57860 -0.32300
O 	O 	0.50000 0.16983 0.59448 -0.21200
C 	C 	0.50000 0.18575 0.76721 0.01900
H 	H 	0.50000 0.14150 0.77900 0.07700
O 	O 	0.50000 0.18520 0.57860 -0.32400
O 	O 	0.50000 0.66983 0.09448 -0.25300
C 	C 	0.50000 0.68575 0.26721 0.00200
H 	H 	0.50000 0.64150 0.27900 0.06700
O 	O 	0.50000 0.68520 0.07860 -0.30500
O 	O 	0.00000 0.83017 0.90552 -0.15100
C 	C 	0.00000 0.81425 0.73279 -0.09900
H 	H 	0.00000 0.85850 0.72100 0.11700
O 	O 	0.00000 0.81480 0.92140 -0.32400
O 	O 	-0.00000 0.33017 0.40552 -0.34400
C 	C 	0.00000 0.31425 0.23279 -0.05800
H 	H 	-0.00000 0.35850 0.22100 0.02300
O 	O 	0.00000 0.31480 0.42140 -0.30500
O 	O 	0.50000 0.83017 0.40552 -0.30700
C 	C 	0.50000 0.81425 0.23279 -0.06000
H 	H 	0.50000 0.85850 0.22100 0.14500
O 	O 	0.50000 0.81480 0.42140 -0.22800
O 	O 	0.50000 0.33017 0.90552 0.01300
C 	C 	0.50000 0.31425 0.73279 -0.05800
H 	H 	0.50000 0.35850 0.72100 0.08400
O 	O 	0.50000 0.31480 0.92140 -0.39100
O 	O 	-0.00000 0.83017 0.09448 -0.45000
C 	C 	0.00000 0.81425 0.26721 -0.07000
H 	H 	0.00000 0.85850 0.27900 0.10800
O 	O 	0.00000 0.81480 0.07860 -0.21800
O 	O 	0.00000 0.33017 0.59448 -0.34400
C 	C 	0.00000 0.31425 0.76721 -0.01100
H 	H 	0.00000 0.35850 0.77900 0.04900
O 	O 	0.00000 0.31480 0.57860 -0.30200
O 	O 	0.50000 0.83017 0.59448 -0.30700
C 	C 	0.50000 0.81425 0.76721 -0.01400
H 	H 	0.50000 0.85850 0.77900 0.16900
O 	O 	0.50000 0.81480 0.57860 -0.22700
O 	O 	0.50000 0.33017 0.09448 -0.29100
C 	C 	0.50000 0.31425 0.26721 -0.02700
H 	H 	0.50000 0.35850 0.27900 0.07400
O 	O 	0.50000 0.31480 0.07860 -0.28300
O 	O 	0.00000 0.16983 0.90552 -0.05200
C 	C 	-0.00000 0.18575 0.73279 -0.06900
H 	H 	0.00000 0.14150 0.72100 0.02400
O 	O 	0.00000 0.18520 0.92140 -0.42400
O 	O 	0.00000 0.66983 0.40552 -0.30500
C 	C 	-0.00000 0.68575 0.23279 -0.02900
H 	H 	0.00000 0.64150 0.22100 0.01600
O 	O 	0.00000 0.68520 0.42140 -0.32600
O 	O 	0.50000 0.16983 0.40552 -0.21200
C 	C 	0.50000 0.18575 0.23279 -0.02800
H 	H 	0.50000 0.14150 0.22100 0.05100
O 	O 	0.50000 0.18520 0.42140 -0.32600
O 	O 	0.50000 0.66983 0.90552 0.04700
C 	C 	0.50000 0.68575 0.73279 -0.03000
H 	H 	0.50000 0.64150 0.72100 0.07600
O 	O 	0.50000 0.68520 0.92140 -0.41100
O 	O 	0.09448 0.00000 0.16983 -0.35800
C 	C 	0.26721 0.00000 0.18575 -0.03800
H 	H 	0.27900 -0.00000 0.14150 0.01300
O 	O 	0.07860 0.00000 0.18520 -0.31500
O 	O 	0.09448 0.50000 0.66983 -0.25300
C 	C 	0.26721 0.50000 0.68575 0.00200
H 	H 	0.27900 0.50000 0.64150 0.06700
O 	O 	0.07860 0.50000 0.68520 -0.30500
O 	O 	0.59448 0.00000 0.66983 -0.30500
C 	C 	0.76721 0.00000 0.68575 0.01600
H 	H 	0.77900 0.00000 0.64150 0.04200
O 	O 	0.57860 0.00000 0.68520 -0.32300
O 	O 	0.59448 0.50000 0.16983 -0.21200
C 	C 	0.76721 0.50000 0.18575 0.01900
H 	H 	0.77900 0.50000 0.14150 0.07700
O 	O 	0.57860 0.50000 0.18520 -0.32400
O 	O 	0.90552 -0.00000 0.83017 -0.15100
C 	C 	0.73279 0.00000 0.81425 -0.09900
H 	H 	0.72100 0.00000 0.85850 0.11700
O 	O 	0.92140 0.00000 0.81480 -0.32400
O 	O 	0.90552 0.50000 0.33017 0.01300
C 	C 	0.73279 0.50000 0.31425 -0.05800
H 	H 	0.72100 0.50000 0.35850 0.08400
O 	O 	0.92140 0.50000 0.31480 -0.39100
O 	O 	0.40552 0.00000 0.33017 -0.34400
C 	C 	0.23279 0.00000 0.31425 -0.05800
H 	H 	0.22100 0.00000 0.35850 0.02300
O 	O 	0.42140 0.00000 0.31480 -0.30500
O 	O 	0.40552 0.50000 0.83017 -0.30700
C 	C 	0.23279 0.50000 0.81425 -0.06000
H 	H 	0.22100 0.50000 0.85850 0.14500
O 	O 	0.42140 0.50000 0.81480 -0.22800
O 	O 	0.09448 -0.00000 0.83017 -0.45000
C 	C 	0.26721 0.00000 0.81425 -0.07000
H 	H 	0.27900 0.00000 0.85850 0.10800
O 	O 	0.07860 0.00000 0.81480 -0.21800
O 	O 	0.09448 0.50000 0.33017 -0.29100
C 	C 	0.26721 0.50000 0.31425 -0.02700
H 	H 	0.27900 0.50000 0.35850 0.07400
O 	O 	0.07860 0.50000 0.31480 -0.28300
O 	O 	0.59448 0.00000 0.33017 -0.34400
C 	C 	0.76721 0.00000 0.31425 -0.01100
H 	H 	0.77900 0.00000 0.35850 0.04900
O 	O 	0.57860 0.00000 0.31480 -0.30200
O 	O 	0.59448 0.50000 0.83017 -0.30700
C 	C 	0.76721 0.50000 0.81425 -0.01400
H 	H 	0.77900 0.50000 0.85850 0.16900
O 	O 	0.57860 0.50000 0.81480 -0.22700
O 	O 	0.90552 0.00000 0.16983 -0.05200
C 	C 	0.73279 0.00000 0.18575 -0.06900
H 	H 	0.72100 -0.00000 0.14150 0.02400
O 	O 	0.92140 0.00000 0.18520 -0.42400
O 	O 	0.90552 0.50000 0.66983 0.04700
C 	C 	0.73279 0.50000 0.68575 -0.03000
H 	H 	0.72100 0.50000 0.64150 0.07600
O 	O 	0.92140 0.50000 0.68520 -0.41100
O 	O 	0.40552 0.00000 0.66983 -0.30500
C 	C 	0.23279 0.00000 0.68575 -0.02900
H 	H 	0.22100 0.00000 0.64150 0.01600
O 	O 	0.42140 0.00000 0.68520 -0.32600
O 	O 	0.40552 0.50000 0.16983 -0.21200
C 	C 	0.23279 0.50000 0.18575 -0.02800
H 	H 	0.22100 0.50000 0.14150 0.05100
O 	O 	0.42140 0.50000 0.18520 -0.32600
O 	O 	0.09448 0.16983 -0.00000 -0.35800
C 	C 	0.26721 0.18575 -0.00000 -0.03800
H 	H 	0.27900 0.14150 -0.00000 0.01300
O 	O 	0.07860 0.18520 -0.00000 -0.31500
O 	O 	0.09448 0.66983 0.50000 -0.25300
C 	C 	0.26721 0.68575 0.50000 0.00200
H 	H 	0.27900 0.64150 0.50000 0.06700
O 	O 	0.07860 0.68520 0.50000 -0.30500
O 	O 	0.59448 0.16983 0.50000 -0.21200
C 	C 	0.76721 0.18575 0.50000 0.01900
H 	H 	0.77900 0.14150 0.50000 0.07700
O 	O 	0.57860 0.18520 0.50000 -0.32400
O 	O 	0.59448 0.66983 -0.00000 -0.30500
C 	C 	0.76721 0.68575 -0.00000 0.01600
H 	H 	0.77900 0.64150 -0.00000 0.04200
O 	O 	0.57860 0.68520 -0.00000 -0.32300
O 	O 	0.90552 0.83017 -0.00000 -0.15100
C 	C 	0.73279 0.81425 -0.00000 -0.09900
H 	H 	0.72100 0.85850 -0.00000 0.11700
O 	O 	0.92140 0.81480 -0.00000 -0.32400
O 	O 	0.90552 0.33017 0.50000 0.01300
C 	C 	0.73279 0.31425 0.50000 -0.05800
H 	H 	0.72100 0.35850 0.50000 0.08400
O 	O 	0.92140 0.31480 0.50000 -0.39100
O 	O 	0.40552 0.83017 0.50000 -0.30700
C 	C 	0.23279 0.81425 0.50000 -0.06000
H 	H 	0.22100 0.85850 0.50000 0.14500
O 	O 	0.42140 0.81480 0.50000 -0.22800
O 	O 	0.40552 0.33017 -0.00000 -0.34400
C 	C 	0.23279 0.31425 -0.00000 -0.05800
H 	H 	0.22100 0.35850 -0.00000 0.02300
O 	O 	0.42140 0.31480 -0.00000 -0.30500
O 	O 	0.09448 0.83017 -0.00000 -0.45000
C 	C 	0.26721 0.81425 -0.00000 -0.07000
H 	H 	0.27900 0.85850 -0.00000 0.10800
O 	O 	0.07860 0.81480 -0.00000 -0.21800
O 	O 	0.09448 0.33017 0.50000 -0.29100
C 	C 	0.26721 0.31425 0.50000 -0.02700
H 	H 	0.27900 0.35850 0.50000 0.07400
O 	O 	0.07860 0.31480 0.50000 -0.28300
O 	O 	0.59448 0.83017 0.50000 -0.30700
C 	C 	0.76721 0.81425 0.50000 -0.01400
H 	H 	0.77900 0.85850 0.50000 0.16900
O 	O 	0.57860 0.81480 0.50000 -0.22700
O 	O 	0.59448 0.33017 -0.00000 -0.34400
C 	C 	0.76721 0.31425 -0.00000 -0.01100
H 	H 	0.77900 0.35850 -0.00000 0.04900
O 	O 	0.57860 0.31480 -0.00000 -0.30200
O 	O 	0.90552 0.16983 -0.00000 -0.05200
C 	C 	0.73279 0.18575 -0.00000 -0.06900
H 	H 	0.72100 0.14150 -0.00000 0.02400
O 	O 	0.92140 0.18520 -0.00000 -0.42400
O 	O 	0.90552 0.66983 0.50000 0.04700
C 	C 	0.73279 0.68575 0.50000 -0.03000
H 	H 	0.72100 0.64150 0.50000 0.07600
O 	O 	0.92140 0.68520 0.50000 -0.41100
O 	O 	0.40552 0.16983 0.50000 -0.21200
C 	C 	0.23279 0.18575 0.50000 -0.02800
H 	H 	0.22100 0.14150 0.50000 0.05100
O 	O 	0.42140 0.18520 0.50000 -0.32600
O 	O 	0.40552 0.66983 -0.00000 -0.30500
C 	C 	0.23279 0.68575 -0.00000 -0.02900
H 	H 	0.22100 0.64150 -0.00000 0.01600
O 	O 	0.42140 0.68520 -0.00000 -0.32600
O 	O 	0.16983 0.00000 0.90552 -0.05200
C 	C 	0.18575 0.00000 0.73279 -0.06900
H 	H 	0.14150 0.00000 0.72100 0.02400
O 	O 	0.18520 0.00000 0.92140 -0.42400
O 	O 	0.16983 0.50000 0.40552 -0.21200
C 	C 	0.18575 0.50000 0.23279 -0.02800
H 	H 	0.14150 0.50000 0.22100 0.05100
O 	O 	0.18520 0.50000 0.42140 -0.32600
O 	O 	0.66983 0.00000 0.40552 -0.30500
C 	C 	0.68575 0.00000 0.23279 -0.02900
H 	H 	0.64150 0.00000 0.22100 0.01600
O 	O 	0.68520 -0.00000 0.42140 -0.32600
O 	O 	0.66983 0.50000 0.90552 0.04700
C 	C 	0.68575 0.50000 0.73279 -0.03000
H 	H 	0.64150 0.50000 0.72100 0.07600
O 	O 	0.68520 0.50000 0.92140 -0.41100
O 	O 	0.83017 -0.00000 0.09448 -0.45000
C 	C 	0.81425 0.00000 0.26721 -0.07000
H 	H 	0.85850 0.00000 0.27900 0.10800
O 	O 	0.81480 0.00000 0.07860 -0.21800
O 	O 	0.83017 0.50000 0.59448 -0.30700
C 	C 	0.81425 0.50000 0.76721 -0.01400
H 	H 	0.85850 0.50000 0.77900 0.16900
O 	O 	0.81480 0.50000 0.57860 -0.22700
O 	O 	0.33017 0.00000 0.59448 -0.34400
C 	C 	0.31425 0.00000 0.76721 -0.01100
H 	H 	0.35850 0.00000 0.77900 0.04900
O 	O 	0.31480 0.00000 0.57860 -0.30200
O 	O 	0.33017 0.50000 0.09448 -0.29100
C 	C 	0.31425 0.50000 0.26721 -0.02700
H 	H 	0.35850 0.50000 0.27900 0.07400
O 	O 	0.31480 0.50000 0.07860 -0.28300
O 	O 	0.83017 0.00000 0.90552 -0.15100
C 	C 	0.81425 0.00000 0.73279 -0.09900
H 	H 	0.85850 0.00000 0.72100 0.11700
O 	O 	0.81480 0.00000 0.92140 -0.32400
O 	O 	0.83017 0.50000 0.40552 -0.30700
C 	C 	0.81425 0.50000 0.23279 -0.06000
H 	H 	0.85850 0.50000 0.22100 0.14500
O 	O 	0.81480 0.50000 0.42140 -0.22800
O 	O 	0.33017 0.00000 0.40552 -0.34400
C 	C 	0.31425 0.00000 0.23279 -0.05800
H 	H 	0.35850 0.00000 0.22100 0.02300
O 	O 	0.31480 -0.00000 0.42140 -0.30500
O 	O 	0.33017 0.50000 0.90552 0.01300
C 	C 	0.31425 0.50000 0.73279 -0.05800
H 	H 	0.35850 0.50000 0.72100 0.08400
O 	O 	0.31480 0.50000 0.92140 -0.39100
O 	O 	0.16983 -0.00000 0.09448 -0.35800
C 	C 	0.18575 0.00000 0.26721 -0.03800
H 	H 	0.14150 0.00000 0.27900 0.01300
O 	O 	0.18520 0.00000 0.07860 -0.31500
O 	O 	0.16983 0.50000 0.59448 -0.21200
C 	C 	0.18575 0.50000 0.76721 0.01900
H 	H 	0.14150 0.50000 0.77900 0.07700
O 	O 	0.18520 0.50000 0.57860 -0.32400
O 	O 	0.66983 0.00000 0.59448 -0.30500
C 	C 	0.68575 0.00000 0.76721 0.01600
H 	H 	0.64150 0.00000 0.77900 0.04200
O 	O 	0.68520 0.00000 0.57860 -0.32300
O 	O 	0.66983 0.50000 0.09448 -0.25300
C 	C 	0.68575 0.50000 0.26721 0.00200
H 	H 	0.64150 0.50000 0.27900 0.06700
O 	O 	0.68520 0.50000 0.07860 -0.30500
O 	O 	-0.00000 0.09448 0.83017 -0.45000
C 	C 	0.00000 0.26721 0.81425 -0.07000
H 	H 	0.00000 0.27900 0.85850 0.10800
O 	O 	0.00000 0.07860 0.81480 -0.21800
O 	O 	0.00000 0.59448 0.33017 -0.34400
C 	C 	0.00000 0.76721 0.31425 -0.01100
H 	H 	0.00000 0.77900 0.35850 0.04900
O 	O 	0.00000 0.57860 0.31480 -0.30200
O 	O 	0.50000 0.09448 0.33017 -0.29100
C 	C 	0.50000 0.26721 0.31425 -0.02700
H 	H 	0.50000 0.27900 0.35850 0.07400
O 	O 	0.50000 0.07860 0.31480 -0.28300
O 	O 	0.50000 0.59448 0.83017 -0.30700
C 	C 	0.50000 0.76721 0.81425 -0.01400
H 	H 	0.50000 0.77900 0.85850 0.16900
O 	O 	0.50000 0.57860 0.81480 -0.22700
O 	O 	0.00000 0.90552 0.16983 -0.05200
C 	C 	-0.00000 0.73279 0.18575 -0.06900
H 	H 	0.00000 0.72100 0.14150 0.02400
O 	O 	0.00000 0.92140 0.18520 -0.42400
O 	O 	0.00000 0.40552 0.66983 -0.30500
C 	C 	-0.00000 0.23279 0.68575 -0.02900
H 	H 	0.00000 0.22100 0.64150 0.01600
O 	O 	0.00000 0.42140 0.68520 -0.32600
O 	O 	0.50000 0.90552 0.66983 0.04700
C 	C 	0.50000 0.73279 0.68575 -0.03000
H 	H 	0.50000 0.72100 0.64150 0.07600
O 	O 	0.50000 0.92140 0.68520 -0.41100
O 	O 	0.50000 0.40552 0.16983 -0.21200
C 	C 	0.50000 0.23279 0.18575 -0.02800
H 	H 	0.50000 0.22100 0.14150 0.05100
O 	O 	0.50000 0.42140 0.18520 -0.32600
O 	O 	-0.00000 0.09448 0.16983 -0.35800
C 	C 	-0.00000 0.26721 0.18575 -0.03800
H 	H 	-0.00000 0.27900 0.14150 0.01300
O 	O 	0.00000 0.07860 0.18520 -0.31500
O 	O 	0.00000 0.59448 0.66983 -0.30500
C 	C 	0.00000 0.76721 0.68575 0.01600
H 	H 	0.00000 0.77900 0.64150 0.04200
O 	O 	0.00000 0.57860 0.68520 -0.32300
O 	O 	0.50000 0.09448 0.66983 -0.25300
C 	C 	0.50000 0.26721 0.68575 0.00200
H 	H 	0.50000 0.27900 0.64150 0.06700
O 	O 	0.50000 0.07860 0.68520 -0.30500
O 	O 	0.50000 0.59448 0.16983 -0.21200
C 	C 	0.50000 0.76721 0.18575 0.01900
H 	H 	0.50000 0.77900 0.14150 0.07700
O 	O 	0.50000 0.57860 0.18520 -0.32400
O 	O 	0.00000 0.90552 0.83017 -0.15100
C 	C 	0.00000 0.73279 0.81425 -0.09900
H 	H 	0.00000 0.72100 0.85850 0.11700
O 	O 	0.00000 0.92140 0.81480 -0.32400
O 	O 	0.00000 0.40552 0.33017 -0.34400
C 	C 	0.00000 0.23279 0.31425 -0.05800
H 	H 	-0.00000 0.22100 0.35850 0.02300
O 	O 	0.00000 0.42140 0.31480 -0.30500
O 	O 	0.50000 0.90552 0.33017 0.01300
C 	C 	0.50000 0.73279 0.31425 -0.05800
H 	H 	0.50000 0.72100 0.35850 0.08400
O 	O 	0.50000 0.92140 0.31480 -0.39100
O 	O 	0.50000 0.40552 0.83017 -0.30700
C 	C 	0.50000 0.23279 0.81425 -0.06000
H 	H 	0.50000 0.22100 0.85850 0.14500
O 	O 	0.50000 0.42140 0.81480 -0.22800
C 	C 	0.15169 0.15169 -0.00000 0.23000
C 	C 	0.20306 0.20306 -0.00000 -0.05700
C 	C 	0.15169 0.65169 0.50000 0.22500
C 	C 	0.20306 0.70306 0.50000 -0.01200
C 	C 	0.65169 0.15169 0.50000 0.22500
C 	C 	0.70306 0.20306 0.50000 -0.01200
C 	C 	0.65169 0.65169 -0.00000 0.20000
C 	C 	0.70306 0.70306 -0.00000 -0.06100
C 	C 	0.84831 0.84831 -0.00000 0.10800
C 	C 	0.79694 0.79694 -0.00000 0.07300
C 	C 	0.84831 0.34831 0.50000 0.16400
C 	C 	0.79694 0.29694 0.50000 0.06300
C 	C 	0.34831 0.84831 0.50000 0.16400
C 	C 	0.29694 0.79694 0.50000 0.06300
C 	C 	0.34831 0.34831 -0.00000 0.20500
C 	C 	0.29694 0.29694 -0.00000 -0.04400
C 	C 	0.84831 0.15169 -0.00000 0.16800
C 	C 	0.79694 0.20306 -0.00000 0.01000
C 	C 	0.84831 0.65169 0.50000 0.16300
C 	C 	0.79694 0.70306 0.50000 0.05200
C 	C 	0.34831 0.15169 0.50000 0.22700
C 	C 	0.29694 0.20306 0.50000 -0.00300
C 	C 	0.34831 0.65169 -0.00000 0.20300
C 	C 	0.29694 0.70306 -0.00000 -0.05300
C 	C 	0.15169 0.84831 -0.00000 0.16800
C 	C 	0.20306 0.79694 -0.00000 0.01000
C 	C 	0.15169 0.34831 0.50000 0.22700
C 	C 	0.20306 0.29694 0.50000 -0.00300
C 	C 	0.65169 0.84831 0.50000 0.16300
C 	C 	0.70306 0.79694 0.50000 0.05200
C 	C 	0.65169 0.34831 -0.00000 0.20300
C 	C 	0.70306 0.29694 -0.00000 -0.05300
C 	C 	0.00000 0.15169 0.15169 0.23000
C 	C 	0.00000 0.20306 0.20306 -0.05700
C 	C 	0.00000 0.65169 0.65169 0.20000
C 	C 	-0.00000 0.70306 0.70306 -0.06100
C 	C 	0.50000 0.15169 0.65169 0.22500
C 	C 	0.50000 0.20306 0.70306 -0.01200
C 	C 	0.50000 0.65169 0.15169 0.22500
C 	C 	0.50000 0.70306 0.20306 -0.01200
C 	C 	0.00000 0.84831 0.84831 0.10800
C 	C 	-0.00000 0.79694 0.79694 0.07300
C 	C 	0.00000 0.34831 0.34831 0.20500
C 	C 	0.00000 0.29694 0.29694 -0.04400
C 	C 	0.50000 0.84831 0.34831 0.16400
C 	C 	0.50000 0.79694 0.29694 0.06300
C 	C 	0.50000 0.34831 0.84831 0.16400
C 	C 	0.50000 0.29694 0.79694 0.06300
C 	C 	0.00000 0.84831 0.15169 0.16800
C 	C 	-0.00000 0.79694 0.20306 0.01000
C 	C 	0.00000 0.34831 0.65169 0.20300
C 	C 	0.00000 0.29694 0.70306 -0.05300
C 	C 	0.50000 0.84831 0.65169 0.16300
C 	C 	0.50000 0.79694 0.70306 0.05200
C 	C 	0.50000 0.34831 0.15169 0.22700
C 	C 	0.50000 0.29694 0.20306 -0.00300
C 	C 	0.00000 0.15169 0.84831 0.16800
C 	C 	-0.00000 0.20306 0.79694 0.01000
C 	C 	0.00000 0.65169 0.34831 0.20300
C 	C 	0.00000 0.70306 0.29694 -0.05300
C 	C 	0.50000 0.15169 0.34831 0.22700
C 	C 	0.50000 0.20306 0.29694 -0.00300
C 	C 	0.50000 0.65169 0.84831 0.16300
C 	C 	0.50000 0.70306 0.79694 0.05200
C 	C 	0.15169 0.00000 0.15169 0.23000
C 	C 	0.20306 0.00000 0.20306 -0.05700
C 	C 	0.15169 0.50000 0.65169 0.22500
C 	C 	0.20306 0.50000 0.70306 -0.01200
C 	C 	0.65169 0.00000 0.65169 0.20000
C 	C 	0.70306 0.00000 0.70306 -0.06100
C 	C 	0.65169 0.50000 0.15169 0.22500
C 	C 	0.70306 0.50000 0.20306 -0.01200
C 	C 	0.84831 0.00000 0.84831 0.10800
C 	C 	0.79694 -0.00000 0.79694 0.07300
C 	C 	0.84831 0.50000 0.34831 0.16400
C 	C 	0.79694 0.50000 0.29694 0.06300
C 	C 	0.34831 0.00000 0.34831 0.20500
C 	C 	0.29694 0.00000 0.29694 -0.04400
C 	C 	0.34831 0.50000 0.84831 0.16400
C 	C 	0.29694 0.50000 0.79694 0.06300
C 	C 	0.15169 0.00000 0.84831 0.16800
C 	C 	0.20306 -0.00000 0.79694 0.01000
C 	C 	0.15169 0.50000 0.34831 0.22700
C 	C 	0.20306 0.50000 0.29694 -0.00300
C 	C 	0.65169 0.00000 0.34831 0.20300
C 	C 	0.70306 0.00000 0.29694 -0.05300
C 	C 	0.65169 0.50000 0.84831 0.16300
C 	C 	0.70306 0.50000 0.79694 0.05200
C 	C 	0.84831 0.00000 0.15169 0.16800
C 	C 	0.79694 0.00000 0.20306 0.01000
C 	C 	0.84831 0.50000 0.65169 0.16300
C 	C 	0.79694 0.50000 0.70306 0.05200
C 	C 	0.34831 0.00000 0.65169 0.20300
C 	C 	0.29694 0.00000 0.70306 -0.05300
C 	C 	0.34831 0.50000 0.15169 0.22700
C 	C 	0.29694 0.50000 0.20306 -0.00300
O 	O 	0.06680 0.06680 0.06680 5.45200
O 	O 	0.04960 0.04960 0.04960 -5.85000
H 	H 	0.09460 0.09460 0.09460 -1.63000
O 	O 	0.06680 0.56680 0.56680 2.91700
O 	O 	0.04960 0.54960 0.54960 -3.54200
H 	H 	0.09460 0.59460 0.59460 -0.89600
O 	O 	0.56680 0.06680 0.56680 2.91700
O 	O 	0.54960 0.04960 0.54960 -3.54200
H 	H 	0.59460 0.09460 0.59460 -0.89600
O 	O 	0.56680 0.56680 0.06680 2.91700
O 	O 	0.54960 0.54960 0.04960 -3.54200
H 	H 	0.59460 0.59460 0.09460 -0.89600
O 	O 	0.93320 0.93320 0.06680 0.12400
O 	O 	0.95040 0.95040 0.04960 -0.90300
H 	H 	0.90540 0.90540 0.09460 0.04300
O 	O 	0.93320 0.43320 0.56680 0.05600
O 	O 	0.95040 0.45040 0.54960 -0.89100
H 	H 	0.90540 0.40540 0.59460 -0.00500
O 	O 	0.43320 0.93320 0.56680 0.05600
O 	O 	0.45040 0.95040 0.54960 -0.89100
H 	H 	0.40540 0.90540 0.59460 -0.00500
O 	O 	0.43320 0.43320 0.06680 2.93800
O 	O 	0.45040 0.45040 0.04960 -3.55900
H 	H 	0.40540 0.40540 0.09460 -0.90700
O 	O 	0.93320 0.06680 0.93320 0.12400
O 	O 	0.95040 0.04960 0.95040 -0.90300
H 	H 	0.90540 0.09460 0.90540 0.04300
O 	O 	0.93320 0.56680 0.43320 0.05600
O 	O 	0.95040 0.54960 0.45040 -0.89100
H 	H 	0.90540 0.59460 0.40540 -0.00500
O 	O 	0.43320 0.06680 0.43320 2.93800
O 	O 	0.45040 0.04960 0.45040 -3.55900
H 	H 	0.40540 0.09460 0.40540 -0.90700
O 	O 	0.43320 0.56680 0.93320 0.05600
O 	O 	0.45040 0.54960 0.95040 -0.89100
H 	H 	0.40540 0.59460 0.90540 -0.00500
O 	O 	0.06680 0.93320 0.93320 0.12400
O 	O 	0.04960 0.95040 0.95040 -0.90300
H 	H 	0.09460 0.90540 0.90540 0.04300
O 	O 	0.06680 0.43320 0.43320 2.93800
O 	O 	0.04960 0.45040 0.45040 -3.55900
H 	H 	0.09460 0.40540 0.40540 -0.90700
O 	O 	0.56680 0.93320 0.43320 0.05600
O 	O 	0.54960 0.95040 0.45040 -0.89100
H 	H 	0.59460 0.90540 0.40540 -0.00500
O 	O 	0.56680 0.43320 0.93320 0.05600
O 	O 	0.54960 0.45040 0.95040 -0.89100
H 	H 	0.59460 0.40540 0.90540 -0.00500
O 	O 	0.06680 0.06680 0.93320 2.89900
O 	O 	0.04960 0.04960 0.95040 -3.47300
H 	H 	0.09460 0.09460 0.90540 -0.82300
O 	O 	0.06680 0.56680 0.43320 2.92800
O 	O 	0.04960 0.54960 0.45040 -3.55100
H 	H 	0.09460 0.59460 0.40540 -0.90200
O 	O 	0.56680 0.06680 0.43320 2.92800
O 	O 	0.54960 0.04960 0.45040 -3.55100
H 	H 	0.59460 0.09460 0.40540 -0.90200
O 	O 	0.56680 0.56680 0.93320 0.03300
O 	O 	0.54960 0.54960 0.95040 -0.87100
H 	H 	0.59460 0.59460 0.90540 0.00300
O 	O 	0.93320 0.93320 0.93320 -2.87300
O 	O 	0.95040 0.95040 0.95040 1.86200
H 	H 	0.90540 0.90540 0.90540 0.96900
O 	O 	0.93320 0.43320 0.43320 0.07900
O 	O 	0.95040 0.45040 0.45040 -0.90900
H 	H 	0.90540 0.40540 0.40540 -0.01300
O 	O 	0.43320 0.93320 0.43320 0.07900
O 	O 	0.45040 0.95040 0.45040 -0.90900
H 	H 	0.40540 0.90540 0.40540 -0.01300
O 	O 	0.43320 0.43320 0.93320 0.07900
O 	O 	0.45040 0.45040 0.95040 -0.90900
H 	H 	0.40540 0.40540 0.90540 -0.01300
O 	O 	0.06680 0.93320 0.06680 2.89900
O 	O 	0.04960 0.95040 0.04960 -3.47300
H 	H 	0.09460 0.90540 0.09460 -0.82300
O 	O 	0.06680 0.43320 0.56680 2.92800
O 	O 	0.04960 0.45040 0.54960 -3.55100
H 	H 	0.09460 0.40540 0.59460 -0.90200
O 	O 	0.56680 0.93320 0.56680 0.03300
O 	O 	0.54960 0.95040 0.54960 -0.87100
H 	H 	0.59460 0.90540 0.59460 0.00300
O 	O 	0.56680 0.43320 0.06680 2.92800
O 	O 	0.54960 0.45040 0.04960 -3.55100
H 	H 	0.59460 0.40540 0.09460 -0.90200
O 	O 	0.93320 0.06680 0.06680 2.89900
O 	O 	0.95040 0.04960 0.04960 -3.47300
H 	H 	0.90540 0.09460 0.09460 -0.82300
O 	O 	0.93320 0.56680 0.56680 0.03300
O 	O 	0.95040 0.54960 0.54960 -0.87100
H 	H 	0.90540 0.59460 0.59460 0.00300
O 	O 	0.43320 0.06680 0.56680 2.92800
O 	O 	0.45040 0.04960 0.54960 -3.55100
H 	H 	0.40540 0.09460 0.59460 -0.90200
O 	O 	0.43320 0.56680 0.06680 2.92800
O 	O 	0.45040 0.54960 0.04960 -3.55100
H 	H 	0.40540 0.59460 0.09460 -0.90200
