data_crystal

_cell_length_a 26.63000
_cell_length_b 35.92800
_cell_length_c 13.00100
_cell_angle_alpha 90.00000
_cell_angle_beta  90.00000
_cell_angle_gamma 90.00000

_symmetry_space_group_name_	'P 1'
_symmetry_space_group_name_H-M	'P 1'

loop_
_symmetry_equiv_pos_as_xyz
  x,y,z

loop_
_atom_site_label
_atom_site_type_symbol
_atom_site_fract_x
_atom_site_fract_y
_atom_site_fract_z
_atom_site_charge
Zn	Zn	0.35469 0.11894 0.58537 1.22200
Zn	Zn	0.22689 0.06110 0.49499 1.17000
O 	O 	0.30114 0.09629 0.49685 -0.54500
O 	O 	0.37826 0.14921 0.46058 -0.44800
O 	O 	0.39705 0.15815 0.29710 -0.27600
O 	O 	0.40217 0.13996 0.68827 -0.49900
O 	O 	0.32530 0.08368 0.69962 -0.44700
O 	O 	0.29174 0.07871 0.85503 -0.27100
N 	N 	0.26304 0.07377 0.36042 -0.31500
N 	N 	0.44053 0.15164 0.83678 -0.30200
N 	N 	0.16909 0.02480 0.46108 -0.27500
N 	N 	0.95347 0.91329 0.37346 -0.21200
C 	C 	0.30010 0.09592 0.39810 0.27100
C 	C 	0.33173 0.11612 0.33050 -0.26200
C 	C 	0.32413 0.11094 0.22520 0.13500
H 	H 	0.34450 0.12420 0.17780 -0.00900
C 	C 	0.28759 0.08688 0.18810 -0.20300
H 	H 	0.28340 0.08290 0.11640 0.09800
C 	C 	0.25756 0.06897 0.25910 0.12000
H 	H 	0.23210 0.05260 0.23510 -0.02300
C 	C 	0.37204 0.14289 0.36640 0.39100
C 	C 	0.40286 0.13381 0.78470 0.28100
C 	C 	0.36831 0.11155 0.84220 -0.23700
C 	C 	0.37529 0.10817 0.94750 0.09600
H 	H 	0.35180 0.09430 0.98680 0.01900
C 	C 	0.41587 0.12457 0.99660 -0.10500
H 	H 	0.42180 0.12090 0.06790 0.05800
C 	C 	0.44731 0.14643 0.93770 0.06900
H 	H 	0.47500 0.15830 0.97020 0.00900
C 	C 	0.32525 0.09005 0.79580 0.37800
C 	C 	0.14435 0.02642 0.37100 0.06400
H 	H 	0.15620 0.04300 0.31940 -0.00600
C 	C 	0.10254 0.00505 0.35070 -0.11500
H 	H 	0.08670 0.00640 0.28530 0.06800
C 	C 	0.08351 0.98138 0.42630 0.05200
C 	C 	0.10924 0.97982 0.51920 -0.12300
H 	H 	0.09770 0.96410 0.57290 0.06900
C 	C 	0.15181 0.00136 0.53290 0.07000
H 	H 	0.16950 0.99940 0.59610 -0.03200
C 	C 	0.98422 0.92333 0.29670 0.05900
H 	H 	0.97700 0.91460 0.22940 -0.00200
C 	C 	0.02584 0.94574 0.31020 -0.11400
H 	H 	0.04630 0.95220 0.25310 0.05700
C 	C 	0.03752 0.95875 0.40800 0.04900
C 	C 	0.00512 0.94922 0.48810 -0.11900
H 	H 	0.01120 0.95790 0.55590 0.06900
C 	C 	0.96389 0.92680 0.46710 0.07400
H 	H 	0.94190 0.92070 0.52210 0.00200
Zn	Zn	0.85469 0.11894 0.08537 1.21400
Zn	Zn	0.72689 0.06110 0.99499 1.17500
O 	O 	0.80114 0.09629 0.99685 -0.53100
O 	O 	0.87826 0.14921 0.96058 -0.43400
O 	O 	0.89705 0.15815 0.79710 -0.26900
O 	O 	0.90217 0.13996 0.18827 -0.50600
O 	O 	0.82530 0.08368 0.19962 -0.45600
O 	O 	0.79174 0.07871 0.35503 -0.28000
N 	N 	0.76304 0.07377 0.86042 -0.31200
N 	N 	0.94053 0.15164 0.33678 -0.31100
N 	N 	0.66909 0.02480 0.96108 -0.26400
N 	N 	0.45347 0.91329 0.87346 -0.21200
C 	C 	0.80010 0.09592 0.89810 0.27000
C 	C 	0.83173 0.11612 0.83050 -0.25600
C 	C 	0.82413 0.11094 0.72520 0.13500
H 	H 	0.84450 0.12420 0.67780 -0.00300
C 	C 	0.78759 0.08688 0.68810 -0.20000
H 	H 	0.78340 0.08290 0.61640 0.10500
C 	C 	0.75756 0.06897 0.75910 0.12200
H 	H 	0.73210 0.05260 0.73510 -0.02100
C 	C 	0.87204 0.14289 0.86640 0.38800
C 	C 	0.90286 0.13381 0.28470 0.29000
C 	C 	0.86831 0.11155 0.34220 -0.25800
C 	C 	0.87529 0.10817 0.44750 0.13900
H 	H 	0.85180 0.09430 0.48680 -0.00500
C 	C 	0.91587 0.12457 0.49660 -0.18600
H 	H 	0.92180 0.12090 0.56790 0.10300
C 	C 	0.94731 0.14643 0.43770 0.10600
H 	H 	0.97500 0.15830 0.47020 -0.01100
C 	C 	0.82525 0.09005 0.29580 0.38600
C 	C 	0.64435 0.02642 0.87100 0.07900
H 	H 	0.65620 0.04300 0.81940 -0.01000
C 	C 	0.60254 0.00505 0.85070 -0.13600
H 	H 	0.58670 0.00640 0.78530 0.07700
C 	C 	0.58351 0.98138 0.92630 0.09800
C 	C 	0.60924 0.97982 0.01920 -0.16800
H 	H 	0.59770 0.96410 0.07290 0.07800
C 	C 	0.65181 0.00136 0.03290 0.05900
H 	H 	0.66950 0.99940 0.09610 -0.03400
C 	C 	0.48422 0.92333 0.79670 0.05100
H 	H 	0.47700 0.91460 0.72940 0.00300
C 	C 	0.52584 0.94574 0.81020 -0.09800
H 	H 	0.54630 0.95220 0.75310 0.05300
C 	C 	0.53752 0.95875 0.90800 0.02100
C 	C 	0.50512 0.94922 0.98810 -0.07200
H 	H 	0.51120 0.95790 0.05590 0.03700
C 	C 	0.46389 0.92680 0.96710 0.09500
H 	H 	0.44190 0.92070 0.02210 -0.02200
Zn	Zn	0.60469 0.13106 0.83537 1.22100
Zn	Zn	0.47689 0.18890 0.74499 1.17000
O 	O 	0.55114 0.15371 0.74685 -0.54500
O 	O 	0.62826 0.10079 0.71058 -0.44800
O 	O 	0.64705 0.09185 0.54710 -0.27400
O 	O 	0.65217 0.11004 0.93827 -0.47600
O 	O 	0.57530 0.16632 0.94962 -0.42200
O 	O 	0.54174 0.17129 0.10503 -0.27800
N 	N 	0.51304 0.17623 0.61042 -0.31500
N 	N 	0.69053 0.09836 0.08678 -0.31100
N 	N 	0.41909 0.22520 0.71108 -0.27500
N 	N 	0.20347 0.33671 0.62346 -0.21200
C 	C 	0.55010 0.15408 0.64810 0.27200
C 	C 	0.58173 0.13388 0.58050 -0.26100
C 	C 	0.57413 0.13906 0.47520 0.13600
H 	H 	0.59450 0.12580 0.42780 -0.00500
C 	C 	0.53759 0.16312 0.43810 -0.20200
H 	H 	0.53340 0.16710 0.36640 0.10400
C 	C 	0.50756 0.18103 0.50910 0.12100
H 	H 	0.48210 0.19740 0.48510 -0.02200
C 	C 	0.62204 0.10711 0.61640 0.39000
C 	C 	0.65286 0.11619 0.03470 0.25300
C 	C 	0.61831 0.13845 0.09220 -0.23800
C 	C 	0.62529 0.14183 0.19750 0.12500
H 	H 	0.60180 0.15570 0.23680 -0.00100
C 	C 	0.66587 0.12543 0.24660 -0.17700
H 	H 	0.67180 0.12910 0.31790 0.09900
C 	C 	0.69731 0.10357 0.18770 0.10000
H 	H 	0.72500 0.09170 0.22020 -0.01100
C 	C 	0.57525 0.15995 0.04580 0.34800
C 	C 	0.39435 0.22358 0.62100 0.06500
H 	H 	0.40620 0.20700 0.56940 -0.00600
C 	C 	0.35254 0.24495 0.60070 -0.11500
H 	H 	0.33670 0.24360 0.53530 0.06900
C 	C 	0.33351 0.26862 0.67630 0.05200
C 	C 	0.35924 0.27018 0.76920 -0.12300
H 	H 	0.34770 0.28590 0.82290 0.07100
C 	C 	0.40181 0.24864 0.78290 0.07000
H 	H 	0.41950 0.25060 0.84610 -0.03000
C 	C 	0.23422 0.32667 0.54670 0.05900
H 	H 	0.22700 0.33540 0.47940 -0.00100
C 	C 	0.27584 0.30426 0.56020 -0.11400
H 	H 	0.29630 0.29780 0.50310 0.05800
C 	C 	0.28752 0.29125 0.65800 0.04900
C 	C 	0.25512 0.30078 0.73810 -0.12000
H 	H 	0.26120 0.29210 0.80590 0.07100
C 	C 	0.21389 0.32320 0.71710 0.07400
H 	H 	0.19190 0.32930 0.77210 0.00200
Zn	Zn	0.10469 0.13106 0.33537 1.22100
Zn	Zn	0.97689 0.18890 0.24499 1.16800
O 	O 	0.05114 0.15371 0.24685 -0.54700
O 	O 	0.12826 0.10079 0.21058 -0.45100
O 	O 	0.14705 0.09185 0.04710 -0.28700
O 	O 	0.15217 0.11004 0.43827 -0.50200
O 	O 	0.07530 0.16632 0.44962 -0.45000
O 	O 	0.04174 0.17129 0.60503 -0.27800
N 	N 	0.01304 0.17623 0.11042 -0.30200
N 	N 	0.19053 0.09836 0.58678 -0.31000
N 	N 	0.91909 0.22520 0.21108 -0.27700
N 	N 	0.70347 0.33671 0.12346 -0.20400
C 	C 	0.05010 0.15408 0.14810 0.27000
C 	C 	0.08173 0.13388 0.08050 -0.28000
C 	C 	0.07413 0.13906 0.97520 0.14300
H 	H 	0.09450 0.12580 0.92780 -0.00000
C 	C 	0.03759 0.16312 0.93810 -0.13700
H 	H 	0.03340 0.16710 0.86640 0.08500
C 	C 	0.00756 0.18103 0.00910 0.02600
H 	H 	0.98210 0.19740 0.98510 0.02800
C 	C 	0.12204 0.10711 0.11640 0.39400
C 	C 	0.15286 0.11619 0.53470 0.28900
C 	C 	0.11831 0.13845 0.59220 -0.25700
C 	C 	0.12529 0.14183 0.69750 0.13900
H 	H 	0.10180 0.15570 0.73680 -0.00400
C 	C 	0.16587 0.12543 0.74660 -0.18600
H 	H 	0.17180 0.12910 0.81790 0.10600
C 	C 	0.19731 0.10357 0.68770 0.10700
H 	H 	0.22500 0.09170 0.72020 -0.01000
C 	C 	0.07525 0.15995 0.54580 0.38500
C 	C 	0.89435 0.22358 0.12100 0.06600
H 	H 	0.90620 0.20700 0.06940 -0.01400
C 	C 	0.85254 0.24495 0.10070 -0.12100
H 	H 	0.83670 0.24360 0.03530 0.06700
C 	C 	0.83351 0.26862 0.17630 0.05900
C 	C 	0.85924 0.27018 0.26920 -0.12800
H 	H 	0.84770 0.28590 0.32290 0.07000
C 	C 	0.90181 0.24864 0.28290 0.07100
H 	H 	0.91950 0.25060 0.34610 -0.03400
C 	C 	0.73422 0.32667 0.04670 -0.00000
H 	H 	0.72700 0.33540 0.97940 0.03700
C 	C 	0.77584 0.30426 0.06020 -0.08200
H 	H 	0.79630 0.29780 0.00310 0.04000
C 	C 	0.78752 0.29125 0.15800 0.03300
C 	C 	0.75512 0.30078 0.23810 -0.10800
H 	H 	0.76120 0.29210 0.30590 0.06500
C 	C 	0.71389 0.32320 0.21710 0.06700
H 	H 	0.69190 0.32930 0.27210 0.00300
Zn	Zn	0.35469 0.61894 0.08537 1.21400
Zn	Zn	0.22689 0.56110 0.99499 1.17500
O 	O 	0.30114 0.59629 0.99685 -0.53100
O 	O 	0.37826 0.64921 0.96058 -0.43400
O 	O 	0.39705 0.65815 0.79710 -0.26900
O 	O 	0.40217 0.63996 0.18827 -0.50600
O 	O 	0.32530 0.58368 0.19962 -0.45600
O 	O 	0.29174 0.57871 0.35503 -0.28000
N 	N 	0.26304 0.57377 0.86042 -0.31200
N 	N 	0.44053 0.65164 0.33678 -0.31100
N 	N 	0.16909 0.52480 0.96108 -0.26400
N 	N 	0.95347 0.41329 0.87346 -0.21200
C 	C 	0.30010 0.59592 0.89810 0.27000
C 	C 	0.33173 0.61612 0.83050 -0.25600
C 	C 	0.32413 0.61094 0.72520 0.13500
H 	H 	0.34450 0.62420 0.67780 -0.00300
C 	C 	0.28759 0.58688 0.68810 -0.20000
H 	H 	0.28340 0.58290 0.61640 0.10500
C 	C 	0.25756 0.56897 0.75910 0.12200
H 	H 	0.23210 0.55260 0.73510 -0.02100
C 	C 	0.37204 0.64289 0.86640 0.38800
C 	C 	0.40286 0.63381 0.28470 0.29000
C 	C 	0.36831 0.61155 0.34220 -0.25800
C 	C 	0.37529 0.60817 0.44750 0.13900
H 	H 	0.35180 0.59430 0.48680 -0.00500
C 	C 	0.41587 0.62457 0.49660 -0.18600
H 	H 	0.42180 0.62090 0.56790 0.10300
C 	C 	0.44731 0.64643 0.43770 0.10600
H 	H 	0.47500 0.65830 0.47020 -0.01100
C 	C 	0.32525 0.59005 0.29580 0.38600
C 	C 	0.14435 0.52642 0.87100 0.07900
H 	H 	0.15620 0.54300 0.81940 -0.01000
C 	C 	0.10254 0.50505 0.85070 -0.13600
H 	H 	0.08670 0.50640 0.78530 0.07700
C 	C 	0.08351 0.48138 0.92630 0.09800
C 	C 	0.10924 0.47982 0.01920 -0.16800
H 	H 	0.09770 0.46410 0.07290 0.07800
C 	C 	0.15181 0.50136 0.03290 0.05900
H 	H 	0.16950 0.49940 0.09610 -0.03400
C 	C 	0.98422 0.42333 0.79670 0.05100
H 	H 	0.97700 0.41460 0.72940 0.00300
C 	C 	0.02584 0.44574 0.81020 -0.09800
H 	H 	0.04630 0.45220 0.75310 0.05300
C 	C 	0.03752 0.45875 0.90800 0.02100
C 	C 	0.00512 0.44922 0.98810 -0.07200
H 	H 	0.01120 0.45790 0.05590 0.03700
C 	C 	0.96389 0.42680 0.96710 0.09500
H 	H 	0.94190 0.42070 0.02210 -0.02200
Zn	Zn	0.85469 0.61894 0.58537 1.22100
Zn	Zn	0.72689 0.56110 0.49499 1.16900
O 	O 	0.80114 0.59629 0.49685 -0.54600
O 	O 	0.87826 0.64921 0.46058 -0.44900
O 	O 	0.89705 0.65815 0.29710 -0.27700
O 	O 	0.90217 0.63996 0.68827 -0.50000
O 	O 	0.82530 0.58368 0.69962 -0.44700
O 	O 	0.79174 0.57871 0.85503 -0.27100
N 	N 	0.76304 0.57377 0.36042 -0.31500
N 	N 	0.94053 0.65164 0.83678 -0.30200
N 	N 	0.66909 0.52480 0.46108 -0.27500
N 	N 	0.45347 0.41329 0.37346 -0.21200
C 	C 	0.80010 0.59592 0.39810 0.27100
C 	C 	0.83173 0.61612 0.33050 -0.26200
C 	C 	0.82413 0.61094 0.22520 0.13500
H 	H 	0.84450 0.62420 0.17780 -0.00900
C 	C 	0.78759 0.58688 0.18810 -0.20300
H 	H 	0.78340 0.58290 0.11640 0.09800
C 	C 	0.75756 0.56897 0.25910 0.12000
H 	H 	0.73210 0.55260 0.23510 -0.02300
C 	C 	0.87204 0.64289 0.36640 0.39100
C 	C 	0.90286 0.63381 0.78470 0.28100
C 	C 	0.86831 0.61155 0.84220 -0.23700
C 	C 	0.87529 0.60817 0.94750 0.09600
H 	H 	0.85180 0.59430 0.98680 0.01900
C 	C 	0.91587 0.62457 0.99660 -0.10600
H 	H 	0.92180 0.62090 0.06790 0.05800
C 	C 	0.94731 0.64643 0.93770 0.06900
H 	H 	0.97500 0.65830 0.97020 0.00900
C 	C 	0.82525 0.59005 0.79580 0.37800
C 	C 	0.64435 0.52642 0.37100 0.06400
H 	H 	0.65620 0.54300 0.31940 -0.00600
C 	C 	0.60254 0.50505 0.35070 -0.11500
H 	H 	0.58670 0.50640 0.28530 0.06800
C 	C 	0.58351 0.48138 0.42630 0.05200
C 	C 	0.60924 0.47982 0.51920 -0.12300
H 	H 	0.59770 0.46410 0.57290 0.06900
C 	C 	0.65181 0.50136 0.53290 0.07000
H 	H 	0.66950 0.49940 0.59610 -0.03200
C 	C 	0.48422 0.42333 0.29670 0.05800
H 	H 	0.47700 0.41460 0.22940 -0.00200
C 	C 	0.52584 0.44574 0.31020 -0.11400
H 	H 	0.54630 0.45220 0.25310 0.05700
C 	C 	0.53752 0.45875 0.40800 0.04900
C 	C 	0.50512 0.44922 0.48810 -0.11900
H 	H 	0.51120 0.45790 0.55590 0.06900
C 	C 	0.46389 0.42680 0.46710 0.07400
H 	H 	0.44190 0.42070 0.52210 0.00200
Zn	Zn	0.60469 0.63106 0.33537 1.22100
Zn	Zn	0.47689 0.68890 0.24499 1.16800
O 	O 	0.55114 0.65371 0.24685 -0.54700
O 	O 	0.62826 0.60079 0.21058 -0.45100
O 	O 	0.64705 0.59185 0.04710 -0.28700
O 	O 	0.65217 0.61004 0.43827 -0.50200
O 	O 	0.57530 0.66632 0.44962 -0.45000
O 	O 	0.54174 0.67129 0.60503 -0.27800
N 	N 	0.51304 0.67623 0.11042 -0.30200
N 	N 	0.69053 0.59836 0.58678 -0.31000
N 	N 	0.41909 0.72520 0.21108 -0.27700
N 	N 	0.20347 0.83671 0.12346 -0.20400
C 	C 	0.55010 0.65408 0.14810 0.27000
C 	C 	0.58173 0.63388 0.08050 -0.28000
C 	C 	0.57413 0.63906 0.97520 0.14300
H 	H 	0.59450 0.62580 0.92780 -0.00000
C 	C 	0.53759 0.66312 0.93810 -0.13600
H 	H 	0.53340 0.66710 0.86640 0.08500
C 	C 	0.50756 0.68103 0.00910 0.02500
H 	H 	0.48210 0.69740 0.98510 0.02800
C 	C 	0.62204 0.60711 0.11640 0.39400
C 	C 	0.65286 0.61619 0.53470 0.28900
C 	C 	0.61831 0.63845 0.59220 -0.25700
C 	C 	0.62529 0.64183 0.69750 0.13900
H 	H 	0.60180 0.65570 0.73680 -0.00400
C 	C 	0.66587 0.62543 0.74660 -0.18600
H 	H 	0.67180 0.62910 0.81790 0.10600
C 	C 	0.69731 0.60357 0.68770 0.10700
H 	H 	0.72500 0.59170 0.72020 -0.01000
C 	C 	0.57525 0.65995 0.54580 0.38500
C 	C 	0.39435 0.72358 0.12100 0.06600
H 	H 	0.40620 0.70700 0.06940 -0.01400
C 	C 	0.35254 0.74495 0.10070 -0.12100
H 	H 	0.33670 0.74360 0.03530 0.06700
C 	C 	0.33351 0.76862 0.17630 0.05900
C 	C 	0.35924 0.77018 0.26920 -0.12800
H 	H 	0.34770 0.78590 0.32290 0.07000
C 	C 	0.40181 0.74864 0.28290 0.07100
H 	H 	0.41950 0.75060 0.34610 -0.03400
C 	C 	0.23422 0.82667 0.04670 -0.00000
H 	H 	0.22700 0.83540 0.97940 0.03700
C 	C 	0.27584 0.80426 0.06020 -0.08200
H 	H 	0.29630 0.79780 0.00310 0.04000
C 	C 	0.28752 0.79125 0.15800 0.03300
C 	C 	0.25512 0.80078 0.23810 -0.10800
H 	H 	0.26120 0.79210 0.30590 0.06500
C 	C 	0.21389 0.82320 0.21710 0.06700
H 	H 	0.19190 0.82930 0.27210 0.00300
Zn	Zn	0.10469 0.63106 0.83537 1.22100
Zn	Zn	0.97689 0.68890 0.74499 1.17000
O 	O 	0.05114 0.65371 0.74685 -0.54500
O 	O 	0.12826 0.60079 0.71058 -0.44800
O 	O 	0.14705 0.59185 0.54710 -0.27400
O 	O 	0.15217 0.61004 0.93827 -0.47600
O 	O 	0.07530 0.66632 0.94962 -0.42300
O 	O 	0.04174 0.67129 0.10503 -0.27800
N 	N 	0.01304 0.67623 0.61042 -0.31500
N 	N 	0.19053 0.59836 0.08678 -0.31100
N 	N 	0.91909 0.72520 0.71108 -0.27500
N 	N 	0.70347 0.83671 0.62346 -0.21200
C 	C 	0.05010 0.65408 0.64810 0.27200
C 	C 	0.08173 0.63388 0.58050 -0.26100
C 	C 	0.07413 0.63906 0.47520 0.13600
H 	H 	0.09450 0.62580 0.42780 -0.00500
C 	C 	0.03759 0.66312 0.43810 -0.20200
H 	H 	0.03340 0.66710 0.36640 0.10400
C 	C 	0.00756 0.68103 0.50910 0.12100
H 	H 	0.98210 0.69740 0.48510 -0.02200
C 	C 	0.12204 0.60711 0.61640 0.39000
C 	C 	0.15286 0.61619 0.03470 0.25300
C 	C 	0.11831 0.63845 0.09220 -0.23800
C 	C 	0.12529 0.64183 0.19750 0.12500
H 	H 	0.10180 0.65570 0.23680 -0.00100
C 	C 	0.16587 0.62543 0.24660 -0.17700
H 	H 	0.17180 0.62910 0.31790 0.09900
C 	C 	0.19731 0.60357 0.18770 0.10000
H 	H 	0.22500 0.59170 0.22020 -0.01100
C 	C 	0.07525 0.65995 0.04580 0.34800
C 	C 	0.89435 0.72358 0.62100 0.06500
H 	H 	0.90620 0.70700 0.56940 -0.00600
C 	C 	0.85254 0.74495 0.60070 -0.11500
H 	H 	0.83670 0.74360 0.53530 0.06900
C 	C 	0.83351 0.76862 0.67630 0.05200
C 	C 	0.85924 0.77018 0.76920 -0.12300
H 	H 	0.84770 0.78590 0.82290 0.07100
C 	C 	0.90181 0.74864 0.78290 0.07000
H 	H 	0.91950 0.75060 0.84610 -0.03000
C 	C 	0.73422 0.82667 0.54670 0.05900
H 	H 	0.72700 0.83540 0.47940 -0.00100
C 	C 	0.77584 0.80426 0.56020 -0.11400
H 	H 	0.79630 0.79780 0.50310 0.05800
C 	C 	0.78752 0.79125 0.65800 0.04900
C 	C 	0.75512 0.80078 0.73810 -0.12000
H 	H 	0.76120 0.79210 0.80590 0.07100
C 	C 	0.71389 0.82320 0.71710 0.07400
H 	H 	0.69190 0.82930 0.77210 0.00200
Zn	Zn	0.64531 0.88106 0.58537 1.22100
Zn	Zn	0.77311 0.93890 0.49499 1.16900
O 	O 	0.69886 0.90371 0.49685 -0.54600
O 	O 	0.62174 0.85079 0.46058 -0.44900
O 	O 	0.60295 0.84185 0.29710 -0.27700
O 	O 	0.59783 0.86004 0.68827 -0.50000
O 	O 	0.67470 0.91632 0.69962 -0.44700
O 	O 	0.70826 0.92129 0.85503 -0.27100
N 	N 	0.73696 0.92623 0.36042 -0.31500
N 	N 	0.55947 0.84836 0.83678 -0.30200
N 	N 	0.83091 0.97520 0.46108 -0.27500
N 	N 	0.04653 0.08671 0.37346 -0.21200
C 	C 	0.69990 0.90408 0.39810 0.27100
C 	C 	0.66827 0.88388 0.33050 -0.26200
C 	C 	0.67587 0.88906 0.22520 0.13500
H 	H 	0.65550 0.87580 0.17780 -0.00900
C 	C 	0.71241 0.91312 0.18810 -0.20300
H 	H 	0.71660 0.91710 0.11640 0.09800
C 	C 	0.74244 0.93103 0.25910 0.12000
H 	H 	0.76790 0.94740 0.23510 -0.02300
C 	C 	0.62796 0.85711 0.36640 0.39100
C 	C 	0.59714 0.86619 0.78470 0.28100
C 	C 	0.63169 0.88845 0.84220 -0.23700
C 	C 	0.62471 0.89183 0.94750 0.09600
H 	H 	0.64820 0.90570 0.98680 0.01900
C 	C 	0.58413 0.87543 0.99660 -0.10500
H 	H 	0.57820 0.87910 0.06790 0.05800
C 	C 	0.55269 0.85357 0.93770 0.06900
H 	H 	0.52500 0.84170 0.97020 0.00900
C 	C 	0.67475 0.90995 0.79580 0.37800
C 	C 	0.85565 0.97358 0.37100 0.06400
H 	H 	0.84380 0.95700 0.31940 -0.00600
C 	C 	0.89746 0.99495 0.35070 -0.11500
H 	H 	0.91330 0.99360 0.28530 0.06800
C 	C 	0.91649 0.01862 0.42630 0.05200
C 	C 	0.89076 0.02018 0.51920 -0.12300
H 	H 	0.90230 0.03590 0.57290 0.06900
C 	C 	0.84819 0.99864 0.53290 0.07000
H 	H 	0.83050 0.00060 0.59610 -0.03200
C 	C 	0.01578 0.07667 0.29670 0.05900
H 	H 	0.02300 0.08540 0.22940 -0.00200
C 	C 	0.97416 0.05426 0.31020 -0.11400
H 	H 	0.95370 0.04780 0.25310 0.05700
C 	C 	0.96248 0.04125 0.40800 0.04900
C 	C 	0.99488 0.05078 0.48810 -0.11900
H 	H 	0.98880 0.04210 0.55590 0.06900
C 	C 	0.03611 0.07320 0.46710 0.07400
H 	H 	0.05810 0.07930 0.52210 0.00200
Zn	Zn	0.14531 0.88106 0.08537 1.21400
Zn	Zn	0.27311 0.93890 0.99499 1.17500
O 	O 	0.19886 0.90371 0.99685 -0.53100
O 	O 	0.12174 0.85079 0.96058 -0.43400
O 	O 	0.10295 0.84185 0.79710 -0.26900
O 	O 	0.09783 0.86004 0.18827 -0.50600
O 	O 	0.17470 0.91632 0.19962 -0.45600
O 	O 	0.20826 0.92129 0.35503 -0.28000
N 	N 	0.23696 0.92623 0.86042 -0.31200
N 	N 	0.05947 0.84836 0.33678 -0.31100
N 	N 	0.33091 0.97520 0.96108 -0.26400
N 	N 	0.54653 0.08671 0.87346 -0.21200
C 	C 	0.19990 0.90408 0.89810 0.27000
C 	C 	0.16827 0.88388 0.83050 -0.25600
C 	C 	0.17587 0.88906 0.72520 0.13500
H 	H 	0.15550 0.87580 0.67780 -0.00300
C 	C 	0.21241 0.91312 0.68810 -0.20000
H 	H 	0.21660 0.91710 0.61640 0.10500
C 	C 	0.24244 0.93103 0.75910 0.12200
H 	H 	0.26790 0.94740 0.73510 -0.02100
C 	C 	0.12796 0.85711 0.86640 0.38800
C 	C 	0.09714 0.86619 0.28470 0.29000
C 	C 	0.13169 0.88845 0.34220 -0.25800
C 	C 	0.12471 0.89183 0.44750 0.13900
H 	H 	0.14820 0.90570 0.48680 -0.00500
C 	C 	0.08413 0.87543 0.49660 -0.18600
H 	H 	0.07820 0.87910 0.56790 0.10300
C 	C 	0.05269 0.85357 0.43770 0.10600
H 	H 	0.02500 0.84170 0.47020 -0.01100
C 	C 	0.17475 0.90995 0.29580 0.38600
C 	C 	0.35565 0.97358 0.87100 0.07900
H 	H 	0.34380 0.95700 0.81940 -0.01000
C 	C 	0.39746 0.99495 0.85070 -0.13600
H 	H 	0.41330 0.99360 0.78530 0.07700
C 	C 	0.41649 0.01862 0.92630 0.09800
C 	C 	0.39076 0.02018 0.01920 -0.16800
H 	H 	0.40230 0.03590 0.07290 0.07800
C 	C 	0.34819 0.99864 0.03290 0.05900
H 	H 	0.33050 0.00060 0.09610 -0.03400
C 	C 	0.51578 0.07667 0.79670 0.05100
H 	H 	0.52300 0.08540 0.72940 0.00300
C 	C 	0.47416 0.05426 0.81020 -0.09800
H 	H 	0.45370 0.04780 0.75310 0.05300
C 	C 	0.46248 0.04125 0.90800 0.02100
C 	C 	0.49488 0.05078 0.98810 -0.07200
H 	H 	0.48880 0.04210 0.05590 0.03700
C 	C 	0.53611 0.07320 0.96710 0.09500
H 	H 	0.55810 0.07930 0.02210 -0.02200
Zn	Zn	0.89531 0.86894 0.33537 1.22100
Zn	Zn	0.02311 0.81110 0.24499 1.16800
O 	O 	0.94886 0.84629 0.24685 -0.54700
O 	O 	0.87174 0.89921 0.21058 -0.45100
O 	O 	0.85295 0.90815 0.04710 -0.28700
O 	O 	0.84783 0.88996 0.43827 -0.50200
O 	O 	0.92470 0.83368 0.44962 -0.45000
O 	O 	0.95826 0.82871 0.60503 -0.27800
N 	N 	0.98696 0.82377 0.11042 -0.30200
N 	N 	0.80947 0.90164 0.58678 -0.31000
N 	N 	0.08091 0.77480 0.21108 -0.27700
N 	N 	0.29653 0.66329 0.12346 -0.20400
C 	C 	0.94990 0.84592 0.14810 0.27000
C 	C 	0.91827 0.86612 0.08050 -0.28000
C 	C 	0.92587 0.86094 0.97520 0.14300
H 	H 	0.90550 0.87420 0.92780 -0.00000
C 	C 	0.96241 0.83688 0.93810 -0.13700
H 	H 	0.96660 0.83290 0.86640 0.08500
C 	C 	0.99244 0.81897 0.00910 0.02600
H 	H 	0.01790 0.80260 0.98510 0.02800
C 	C 	0.87796 0.89289 0.11640 0.39400
C 	C 	0.84714 0.88381 0.53470 0.28900
C 	C 	0.88169 0.86155 0.59220 -0.25700
C 	C 	0.87471 0.85817 0.69750 0.13900
H 	H 	0.89820 0.84430 0.73680 -0.00400
C 	C 	0.83413 0.87457 0.74660 -0.18600
H 	H 	0.82820 0.87090 0.81790 0.10600
C 	C 	0.80269 0.89643 0.68770 0.10700
H 	H 	0.77500 0.90830 0.72020 -0.01000
C 	C 	0.92475 0.84005 0.54580 0.38500
C 	C 	0.10565 0.77642 0.12100 0.06600
H 	H 	0.09380 0.79300 0.06940 -0.01400
C 	C 	0.14746 0.75505 0.10070 -0.12100
H 	H 	0.16330 0.75640 0.03530 0.06700
C 	C 	0.16649 0.73138 0.17630 0.05900
C 	C 	0.14076 0.72982 0.26920 -0.12800
H 	H 	0.15230 0.71410 0.32290 0.07000
C 	C 	0.09819 0.75136 0.28290 0.07100
H 	H 	0.08050 0.74940 0.34610 -0.03400
C 	C 	0.26578 0.67333 0.04670 -0.00000
H 	H 	0.27300 0.66460 0.97940 0.03700
C 	C 	0.22416 0.69574 0.06020 -0.08200
H 	H 	0.20370 0.70220 0.00310 0.04000
C 	C 	0.21248 0.70875 0.15800 0.03300
C 	C 	0.24488 0.69922 0.23810 -0.10800
H 	H 	0.23880 0.70790 0.30590 0.06500
C 	C 	0.28611 0.67680 0.21710 0.06700
H 	H 	0.30810 0.67070 0.27210 0.00300
Zn	Zn	0.39531 0.86894 0.83537 1.22100
Zn	Zn	0.52311 0.81110 0.74499 1.17000
O 	O 	0.44886 0.84629 0.74685 -0.54500
O 	O 	0.37174 0.89921 0.71058 -0.44800
O 	O 	0.35295 0.90815 0.54710 -0.27400
O 	O 	0.34783 0.88996 0.93827 -0.47600
O 	O 	0.42470 0.83368 0.94962 -0.42200
O 	O 	0.45826 0.82871 0.10503 -0.27800
N 	N 	0.48696 0.82377 0.61042 -0.31500
N 	N 	0.30947 0.90164 0.08678 -0.31100
N 	N 	0.58091 0.77480 0.71108 -0.27500
N 	N 	0.79653 0.66329 0.62346 -0.21200
C 	C 	0.44990 0.84592 0.64810 0.27200
C 	C 	0.41827 0.86612 0.58050 -0.26100
C 	C 	0.42587 0.86094 0.47520 0.13600
H 	H 	0.40550 0.87420 0.42780 -0.00500
C 	C 	0.46241 0.83688 0.43810 -0.20200
H 	H 	0.46660 0.83290 0.36640 0.10400
C 	C 	0.49244 0.81897 0.50910 0.12100
H 	H 	0.51790 0.80260 0.48510 -0.02200
C 	C 	0.37796 0.89289 0.61640 0.39000
C 	C 	0.34714 0.88381 0.03470 0.25300
C 	C 	0.38169 0.86155 0.09220 -0.23800
C 	C 	0.37471 0.85817 0.19750 0.12500
H 	H 	0.39820 0.84430 0.23680 -0.00100
C 	C 	0.33413 0.87457 0.24660 -0.17700
H 	H 	0.32820 0.87090 0.31790 0.09900
C 	C 	0.30269 0.89643 0.18770 0.10000
H 	H 	0.27500 0.90830 0.22020 -0.01100
C 	C 	0.42475 0.84005 0.04580 0.34800
C 	C 	0.60565 0.77642 0.62100 0.06500
H 	H 	0.59380 0.79300 0.56940 -0.00600
C 	C 	0.64746 0.75505 0.60070 -0.11500
H 	H 	0.66330 0.75640 0.53530 0.06900
C 	C 	0.66649 0.73138 0.67630 0.05200
C 	C 	0.64076 0.72982 0.76920 -0.12300
H 	H 	0.65230 0.71410 0.82290 0.07100
C 	C 	0.59819 0.75136 0.78290 0.07000
H 	H 	0.58050 0.74940 0.84610 -0.03000
C 	C 	0.76578 0.67333 0.54670 0.05900
H 	H 	0.77300 0.66460 0.47940 -0.00100
C 	C 	0.72416 0.69574 0.56020 -0.11400
H 	H 	0.70370 0.70220 0.50310 0.05800
C 	C 	0.71248 0.70875 0.65800 0.04900
C 	C 	0.74488 0.69922 0.73810 -0.12000
H 	H 	0.73880 0.70790 0.80590 0.07100
C 	C 	0.78611 0.67680 0.71710 0.07400
H 	H 	0.80810 0.67070 0.77210 0.00200
Zn	Zn	0.64531 0.38106 0.08537 1.21400
Zn	Zn	0.77311 0.43890 0.99499 1.17500
O 	O 	0.69886 0.40371 0.99685 -0.53100
O 	O 	0.62174 0.35079 0.96058 -0.43400
O 	O 	0.60295 0.34185 0.79710 -0.26900
O 	O 	0.59783 0.36004 0.18827 -0.50600
O 	O 	0.67470 0.41632 0.19962 -0.45600
O 	O 	0.70826 0.42129 0.35503 -0.28000
N 	N 	0.73696 0.42623 0.86042 -0.31200
N 	N 	0.55947 0.34836 0.33678 -0.31100
N 	N 	0.83091 0.47520 0.96108 -0.26400
N 	N 	0.04653 0.58671 0.87346 -0.21200
C 	C 	0.69990 0.40408 0.89810 0.27000
C 	C 	0.66827 0.38388 0.83050 -0.25600
C 	C 	0.67587 0.38906 0.72520 0.13500
H 	H 	0.65550 0.37580 0.67780 -0.00300
C 	C 	0.71241 0.41312 0.68810 -0.20000
H 	H 	0.71660 0.41710 0.61640 0.10500
C 	C 	0.74244 0.43103 0.75910 0.12200
H 	H 	0.76790 0.44740 0.73510 -0.02100
C 	C 	0.62796 0.35711 0.86640 0.38800
C 	C 	0.59714 0.36619 0.28470 0.29000
C 	C 	0.63169 0.38845 0.34220 -0.25800
C 	C 	0.62471 0.39183 0.44750 0.13900
H 	H 	0.64820 0.40570 0.48680 -0.00500
C 	C 	0.58413 0.37543 0.49660 -0.18600
H 	H 	0.57820 0.37910 0.56790 0.10300
C 	C 	0.55269 0.35357 0.43770 0.10600
H 	H 	0.52500 0.34170 0.47020 -0.01100
C 	C 	0.67475 0.40995 0.29580 0.38600
C 	C 	0.85565 0.47358 0.87100 0.07900
H 	H 	0.84380 0.45700 0.81940 -0.01000
C 	C 	0.89746 0.49495 0.85070 -0.13600
H 	H 	0.91330 0.49360 0.78530 0.07700
C 	C 	0.91649 0.51862 0.92630 0.09800
C 	C 	0.89076 0.52018 0.01920 -0.16800
H 	H 	0.90230 0.53590 0.07290 0.07800
C 	C 	0.84819 0.49864 0.03290 0.05900
H 	H 	0.83050 0.50060 0.09610 -0.03400
C 	C 	0.01578 0.57667 0.79670 0.05100
H 	H 	0.02300 0.58540 0.72940 0.00300
C 	C 	0.97416 0.55426 0.81020 -0.09800
H 	H 	0.95370 0.54780 0.75310 0.05300
C 	C 	0.96248 0.54125 0.90800 0.02100
C 	C 	0.99488 0.55078 0.98810 -0.07200
H 	H 	0.98880 0.54210 0.05590 0.03700
C 	C 	0.03611 0.57320 0.96710 0.09500
H 	H 	0.05810 0.57930 0.02210 -0.02200
Zn	Zn	0.14531 0.38106 0.58537 1.22100
Zn	Zn	0.27311 0.43890 0.49499 1.16900
O 	O 	0.19886 0.40371 0.49685 -0.54600
O 	O 	0.12174 0.35079 0.46058 -0.44900
O 	O 	0.10295 0.34185 0.29710 -0.27700
O 	O 	0.09783 0.36004 0.68827 -0.50000
O 	O 	0.17470 0.41632 0.69962 -0.44700
O 	O 	0.20826 0.42129 0.85503 -0.27100
N 	N 	0.23696 0.42623 0.36042 -0.31500
N 	N 	0.05947 0.34836 0.83678 -0.30200
N 	N 	0.33091 0.47520 0.46108 -0.27500
N 	N 	0.54653 0.58671 0.37346 -0.21200
C 	C 	0.19990 0.40408 0.39810 0.27100
C 	C 	0.16827 0.38388 0.33050 -0.26200
C 	C 	0.17587 0.38906 0.22520 0.13500
H 	H 	0.15550 0.37580 0.17780 -0.00900
C 	C 	0.21241 0.41312 0.18810 -0.20300
H 	H 	0.21660 0.41710 0.11640 0.09800
C 	C 	0.24244 0.43103 0.25910 0.12000
H 	H 	0.26790 0.44740 0.23510 -0.02300
C 	C 	0.12796 0.35711 0.36640 0.39100
C 	C 	0.09714 0.36619 0.78470 0.28100
C 	C 	0.13169 0.38845 0.84220 -0.23700
C 	C 	0.12471 0.39183 0.94750 0.09600
H 	H 	0.14820 0.40570 0.98680 0.01900
C 	C 	0.08413 0.37543 0.99660 -0.10600
H 	H 	0.07820 0.37910 0.06790 0.05800
C 	C 	0.05269 0.35357 0.93770 0.06900
H 	H 	0.02500 0.34170 0.97020 0.00900
C 	C 	0.17475 0.40995 0.79580 0.37800
C 	C 	0.35565 0.47358 0.37100 0.06400
H 	H 	0.34380 0.45700 0.31940 -0.00600
C 	C 	0.39746 0.49495 0.35070 -0.11500
H 	H 	0.41330 0.49360 0.28530 0.06800
C 	C 	0.41649 0.51862 0.42630 0.05200
C 	C 	0.39076 0.52018 0.51920 -0.12300
H 	H 	0.40230 0.53590 0.57290 0.06900
C 	C 	0.34819 0.49864 0.53290 0.07000
H 	H 	0.33050 0.50060 0.59610 -0.03200
C 	C 	0.51578 0.57667 0.29670 0.05800
H 	H 	0.52300 0.58540 0.22940 -0.00200
C 	C 	0.47416 0.55426 0.31020 -0.11400
H 	H 	0.45370 0.54780 0.25310 0.05700
C 	C 	0.46248 0.54125 0.40800 0.04900
C 	C 	0.49488 0.55078 0.48810 -0.11900
H 	H 	0.48880 0.54210 0.55590 0.06900
C 	C 	0.53611 0.57320 0.46710 0.07400
H 	H 	0.55810 0.57930 0.52210 0.00200
Zn	Zn	0.89531 0.36894 0.83537 1.22100
Zn	Zn	0.02311 0.31110 0.74499 1.17000
O 	O 	0.94886 0.34629 0.74685 -0.54500
O 	O 	0.87174 0.39921 0.71058 -0.44800
O 	O 	0.85295 0.40815 0.54710 -0.27400
O 	O 	0.84783 0.38996 0.93827 -0.47600
O 	O 	0.92470 0.33368 0.94962 -0.42300
O 	O 	0.95826 0.32871 0.10503 -0.27800
N 	N 	0.98696 0.32377 0.61042 -0.31500
N 	N 	0.80947 0.40164 0.08678 -0.31100
N 	N 	0.08091 0.27480 0.71108 -0.27500
N 	N 	0.29653 0.16329 0.62346 -0.21200
C 	C 	0.94990 0.34592 0.64810 0.27200
C 	C 	0.91827 0.36612 0.58050 -0.26100
C 	C 	0.92587 0.36094 0.47520 0.13600
H 	H 	0.90550 0.37420 0.42780 -0.00500
C 	C 	0.96241 0.33688 0.43810 -0.20200
H 	H 	0.96660 0.33290 0.36640 0.10400
C 	C 	0.99244 0.31897 0.50910 0.12100
H 	H 	0.01790 0.30260 0.48510 -0.02200
C 	C 	0.87796 0.39289 0.61640 0.39000
C 	C 	0.84714 0.38381 0.03470 0.25300
C 	C 	0.88169 0.36155 0.09220 -0.23800
C 	C 	0.87471 0.35817 0.19750 0.12500
H 	H 	0.89820 0.34430 0.23680 -0.00100
C 	C 	0.83413 0.37457 0.24660 -0.17700
H 	H 	0.82820 0.37090 0.31790 0.09900
C 	C 	0.80269 0.39643 0.18770 0.10000
H 	H 	0.77500 0.40830 0.22020 -0.01100
C 	C 	0.92475 0.34005 0.04580 0.34800
C 	C 	0.10565 0.27642 0.62100 0.06500
H 	H 	0.09380 0.29300 0.56940 -0.00600
C 	C 	0.14746 0.25505 0.60070 -0.11500
H 	H 	0.16330 0.25640 0.53530 0.06900
C 	C 	0.16649 0.23138 0.67630 0.05200
C 	C 	0.14076 0.22982 0.76920 -0.12300
H 	H 	0.15230 0.21410 0.82290 0.07100
C 	C 	0.09819 0.25136 0.78290 0.07000
H 	H 	0.08050 0.24940 0.84610 -0.03000
C 	C 	0.26578 0.17333 0.54670 0.05900
H 	H 	0.27300 0.16460 0.47940 -0.00100
C 	C 	0.22416 0.19574 0.56020 -0.11400
H 	H 	0.20370 0.20220 0.50310 0.05800
C 	C 	0.21248 0.20875 0.65800 0.04900
C 	C 	0.24488 0.19922 0.73810 -0.12000
H 	H 	0.23880 0.20790 0.80590 0.07100
C 	C 	0.28611 0.17680 0.71710 0.07400
H 	H 	0.30810 0.17070 0.77210 0.00200
Zn	Zn	0.39531 0.36894 0.33537 1.22100
Zn	Zn	0.52311 0.31110 0.24499 1.16800
O 	O 	0.44886 0.34629 0.24685 -0.54700
O 	O 	0.37174 0.39921 0.21058 -0.45100
O 	O 	0.35295 0.40815 0.04710 -0.28700
O 	O 	0.34783 0.38996 0.43827 -0.50200
O 	O 	0.42470 0.33368 0.44962 -0.45000
O 	O 	0.45826 0.32871 0.60503 -0.27800
N 	N 	0.48696 0.32377 0.11042 -0.30200
N 	N 	0.30947 0.40164 0.58678 -0.31000
N 	N 	0.58091 0.27480 0.21108 -0.27700
N 	N 	0.79653 0.16329 0.12346 -0.20400
C 	C 	0.44990 0.34592 0.14810 0.27000
C 	C 	0.41827 0.36612 0.08050 -0.28000
C 	C 	0.42587 0.36094 0.97520 0.14300
H 	H 	0.40550 0.37420 0.92780 -0.00000
C 	C 	0.46241 0.33688 0.93810 -0.13600
H 	H 	0.46660 0.33290 0.86640 0.08500
C 	C 	0.49244 0.31897 0.00910 0.02500
H 	H 	0.51790 0.30260 0.98510 0.02800
C 	C 	0.37796 0.39289 0.11640 0.39400
C 	C 	0.34714 0.38381 0.53470 0.28900
C 	C 	0.38169 0.36155 0.59220 -0.25700
C 	C 	0.37471 0.35817 0.69750 0.13900
H 	H 	0.39820 0.34430 0.73680 -0.00400
C 	C 	0.33413 0.37457 0.74660 -0.18600
H 	H 	0.32820 0.37090 0.81790 0.10600
C 	C 	0.30269 0.39643 0.68770 0.10700
H 	H 	0.27500 0.40830 0.72020 -0.01000
C 	C 	0.42475 0.34005 0.54580 0.38500
C 	C 	0.60565 0.27642 0.12100 0.06600
H 	H 	0.59380 0.29300 0.06940 -0.01400
C 	C 	0.64746 0.25505 0.10070 -0.12100
H 	H 	0.66330 0.25640 0.03530 0.06700
C 	C 	0.66649 0.23138 0.17630 0.05900
C 	C 	0.64076 0.22982 0.26920 -0.12800
H 	H 	0.65230 0.21410 0.32290 0.07000
C 	C 	0.59819 0.25136 0.28290 0.07100
H 	H 	0.58050 0.24940 0.34610 -0.03400
C 	C 	0.76578 0.17333 0.04670 -0.00000
H 	H 	0.77300 0.16460 0.97940 0.03700
C 	C 	0.72416 0.19574 0.06020 -0.08200
H 	H 	0.70370 0.20220 0.00310 0.04000
C 	C 	0.71248 0.20875 0.15800 0.03300
C 	C 	0.74488 0.19922 0.23810 -0.10800
H 	H 	0.73880 0.20790 0.30590 0.06500
C 	C 	0.78611 0.17680 0.21710 0.06700
H 	H 	0.80810 0.17070 0.27210 0.00300
