data_crystal

_cell_length_a 14.80220
_cell_length_b 27.33070
_cell_length_c 8.34870
_cell_angle_alpha 90.00000
_cell_angle_beta  90.00000
_cell_angle_gamma 90.00000

_symmetry_space_group_name_	'P 1'
_symmetry_space_group_name_H-M	'P 1'

loop_
_symmetry_equiv_pos_as_xyz
  x,y,z

loop_
_atom_site_label
_atom_site_type_symbol
_atom_site_fract_x
_atom_site_fract_y
_atom_site_fract_z
_atom_site_charge
P 	P 	0.90205 0.78204 0.14240 0.80400
P 	P 	0.09497 0.67065 0.13870 0.79500
P 	P 	0.21995 0.86048 0.13770 0.81400
P 	P 	0.89889 0.94715 0.14280 0.79900
Al	Al	0.09360 0.77866 0.26820 2.40300
Al	Al	0.90026 0.67455 0.26100 2.40200
Al	Al	0.09319 0.94453 0.26480 2.40200
Al	Al	0.77381 0.86478 0.26320 2.40400
O 	O 	0.87950 0.73410 0.22110 -0.87200
O 	O 	0.99200 0.80195 0.20370 -0.85200
O 	O 	0.82810 0.81880 0.16700 -0.84600
O 	O 	0.90870 0.77217 0.96790 -0.73700
O 	O 	0.11190 0.72198 0.19060 -0.89800
O 	O 	0.16185 0.63464 0.21000 -0.79000
O 	O 	0.10250 0.66898 0.96170 -0.69900
O 	O 	0.00050 0.65426 0.18470 -0.83000
O 	O 	0.31861 0.86383 0.18790 -0.80200
O 	O 	0.17950 0.81546 0.21100 -0.87500
O 	O 	0.21490 0.85531 0.96080 -0.71600
O 	O 	0.17480 0.90633 0.19330 -0.84100
O 	O 	0.98700 0.92498 0.20760 -0.85100
O 	O 	0.88620 0.99914 0.19230 -0.87400
O 	O 	0.81850 0.91939 0.20860 -0.81000
O 	O 	0.89890 0.94528 0.96570 -0.72200
P 	P 	0.40205 0.28204 0.64240 0.93100
P 	P 	0.59497 0.17065 0.63870 0.92300
P 	P 	0.71995 0.36048 0.63770 0.94400
P 	P 	0.39889 0.44715 0.64280 0.92800
Al	Al	0.59360 0.27866 0.76820 2.40400
Al	Al	0.40026 0.17455 0.76100 2.40400
Al	Al	0.59319 0.44453 0.76480 2.40300
Al	Al	0.27381 0.36478 0.76320 2.40500
O 	O 	0.37950 0.23410 0.72110 -0.84400
O 	O 	0.49200 0.30195 0.70370 -0.82000
O 	O 	0.32810 0.31880 0.66700 -0.80900
O 	O 	0.40870 0.27217 0.46790 -0.87500
O 	O 	0.61190 0.22198 0.69060 -0.86700
O 	O 	0.66185 0.13464 0.71000 -0.75100
O 	O 	0.60250 0.16898 0.46170 -0.83700
O 	O 	0.50050 0.15426 0.68470 -0.78900
O 	O 	0.81861 0.36383 0.68790 -0.76200
O 	O 	0.67950 0.31546 0.71100 -0.84300
O 	O 	0.71490 0.35531 0.46080 -0.85300
O 	O 	0.67480 0.40633 0.69330 -0.80500
O 	O 	0.48700 0.42498 0.70760 -0.81900
O 	O 	0.38620 0.49914 0.69230 -0.83900
O 	O 	0.31850 0.41939 0.70860 -0.77300
O 	O 	0.39890 0.44528 0.46570 -0.86100
P 	P 	0.09795 0.21796 0.14240 0.80300
P 	P 	0.90503 0.32935 0.13870 0.79400
P 	P 	0.78005 0.13952 0.13770 0.81300
P 	P 	0.10111 0.05285 0.14280 0.79800
Al	Al	0.90640 0.22134 0.26820 2.40300
Al	Al	0.09974 0.32545 0.26100 2.40200
Al	Al	0.90681 0.05547 0.26480 2.40200
Al	Al	0.22619 0.13522 0.26320 2.40400
O 	O 	0.12050 0.26590 0.22110 -0.87200
O 	O 	0.00800 0.19805 0.20370 -0.85200
O 	O 	0.17190 0.18120 0.16700 -0.84600
O 	O 	0.09130 0.22783 0.96790 -0.73700
O 	O 	0.88810 0.27802 0.19060 -0.89800
O 	O 	0.83815 0.36536 0.21000 -0.79000
O 	O 	0.89750 0.33102 0.96170 -0.69900
O 	O 	0.99950 0.34574 0.18470 -0.83000
O 	O 	0.68139 0.13617 0.18790 -0.80200
O 	O 	0.82050 0.18454 0.21100 -0.87500
O 	O 	0.78510 0.14469 0.96080 -0.71600
O 	O 	0.82520 0.09367 0.19330 -0.84100
O 	O 	0.01300 0.07502 0.20760 -0.85100
O 	O 	0.11380 0.00086 0.19230 -0.87400
O 	O 	0.18150 0.08061 0.20860 -0.81000
O 	O 	0.10110 0.05472 0.96570 -0.72200
P 	P 	0.59795 0.71796 0.64240 0.93100
P 	P 	0.40503 0.82935 0.63870 0.92300
P 	P 	0.28005 0.63952 0.63770 0.94400
P 	P 	0.60111 0.55285 0.64280 0.92800
Al	Al	0.40640 0.72134 0.76820 2.40400
Al	Al	0.59974 0.82545 0.76100 2.40400
Al	Al	0.40681 0.55547 0.76480 2.40300
Al	Al	0.72619 0.63522 0.76320 2.40500
O 	O 	0.62050 0.76590 0.72110 -0.84400
O 	O 	0.50800 0.69805 0.70370 -0.82000
O 	O 	0.67190 0.68120 0.66700 -0.80900
O 	O 	0.59130 0.72783 0.46790 -0.87500
O 	O 	0.38810 0.77802 0.69060 -0.86700
O 	O 	0.33815 0.86536 0.71000 -0.75100
O 	O 	0.39750 0.83102 0.46170 -0.83700
O 	O 	0.49950 0.84574 0.68470 -0.78900
O 	O 	0.18139 0.63617 0.68790 -0.76200
O 	O 	0.32050 0.68454 0.71100 -0.84300
O 	O 	0.28510 0.64469 0.46080 -0.85300
O 	O 	0.32520 0.59367 0.69330 -0.80500
O 	O 	0.51300 0.57502 0.70760 -0.81900
O 	O 	0.61380 0.50086 0.69230 -0.83900
O 	O 	0.68150 0.58061 0.70860 -0.77300
O 	O 	0.60110 0.55472 0.46570 -0.86100
P 	P 	0.40205 0.71796 0.14240 0.80200
P 	P 	0.59497 0.82935 0.13870 0.79300
P 	P 	0.71995 0.63952 0.13770 0.81300
P 	P 	0.39889 0.55285 0.14280 0.79700
Al	Al	0.59360 0.72134 0.26820 2.40300
Al	Al	0.40026 0.82545 0.26100 2.40200
Al	Al	0.59319 0.55547 0.26480 2.40200
Al	Al	0.27381 0.63522 0.26320 2.40400
O 	O 	0.37950 0.76590 0.22110 -0.87200
O 	O 	0.49200 0.69805 0.20370 -0.85200
O 	O 	0.32810 0.68120 0.16700 -0.84600
O 	O 	0.40870 0.72783 0.96790 -0.73600
O 	O 	0.61190 0.77802 0.19060 -0.89800
O 	O 	0.66185 0.86536 0.21000 -0.79000
O 	O 	0.60250 0.83102 0.96170 -0.69800
O 	O 	0.50050 0.84574 0.18470 -0.83000
O 	O 	0.81861 0.63617 0.18790 -0.80200
O 	O 	0.67950 0.68454 0.21100 -0.87500
O 	O 	0.71490 0.64469 0.96080 -0.71600
O 	O 	0.67480 0.59367 0.19330 -0.84100
O 	O 	0.48700 0.57502 0.20760 -0.85100
O 	O 	0.38620 0.50086 0.19230 -0.87400
O 	O 	0.31850 0.58061 0.20860 -0.81000
O 	O 	0.39890 0.55472 0.96570 -0.72000
P 	P 	0.90205 0.21796 0.64240 0.93100
P 	P 	0.09497 0.32935 0.63870 0.92300
P 	P 	0.21995 0.13952 0.63770 0.94400
P 	P 	0.89889 0.05285 0.64280 0.92900
Al	Al	0.09360 0.22134 0.76820 2.40400
Al	Al	0.90026 0.32545 0.76100 2.40400
Al	Al	0.09319 0.05547 0.76480 2.40300
Al	Al	0.77381 0.13522 0.76320 2.40500
O 	O 	0.87950 0.26590 0.72110 -0.84400
O 	O 	0.99200 0.19805 0.70370 -0.82000
O 	O 	0.82810 0.18120 0.66700 -0.80900
O 	O 	0.90870 0.22783 0.46790 -0.87500
O 	O 	0.11190 0.27802 0.69060 -0.86700
O 	O 	0.16185 0.36536 0.71000 -0.75100
O 	O 	0.10250 0.33102 0.46170 -0.83700
O 	O 	0.00050 0.34574 0.68470 -0.78900
O 	O 	0.31861 0.13617 0.68790 -0.76200
O 	O 	0.17950 0.18454 0.71100 -0.84300
O 	O 	0.21490 0.14469 0.46080 -0.85300
O 	O 	0.17480 0.09367 0.69330 -0.80500
O 	O 	0.98700 0.07502 0.70760 -0.82000
O 	O 	0.88620 0.00086 0.69230 -0.83900
O 	O 	0.81850 0.08061 0.70860 -0.77300
O 	O 	0.89890 0.05472 0.46570 -0.86200
P 	P 	0.59795 0.28204 0.14240 0.80200
P 	P 	0.40503 0.17065 0.13870 0.79300
P 	P 	0.28005 0.36048 0.13770 0.81300
P 	P 	0.60111 0.44715 0.14280 0.79700
Al	Al	0.40640 0.27866 0.26820 2.40300
Al	Al	0.59974 0.17455 0.26100 2.40200
Al	Al	0.40681 0.44453 0.26480 2.40200
Al	Al	0.72619 0.36478 0.26320 2.40400
O 	O 	0.62050 0.23410 0.22110 -0.87200
O 	O 	0.50800 0.30195 0.20370 -0.85200
O 	O 	0.67190 0.31880 0.16700 -0.84600
O 	O 	0.59130 0.27217 0.96790 -0.73600
O 	O 	0.38810 0.22198 0.19060 -0.89800
O 	O 	0.33815 0.13464 0.21000 -0.79000
O 	O 	0.39750 0.16898 0.96170 -0.69800
O 	O 	0.49950 0.15426 0.18470 -0.83000
O 	O 	0.18139 0.36383 0.18790 -0.80200
O 	O 	0.32050 0.31546 0.21100 -0.87500
O 	O 	0.28510 0.35531 0.96080 -0.71600
O 	O 	0.32520 0.40633 0.19330 -0.84100
O 	O 	0.51300 0.42498 0.20760 -0.85100
O 	O 	0.61380 0.49914 0.19230 -0.87400
O 	O 	0.68150 0.41939 0.20860 -0.81000
O 	O 	0.60110 0.44528 0.96570 -0.72000
P 	P 	0.09795 0.78204 0.64240 0.93100
P 	P 	0.90503 0.67065 0.63870 0.92300
P 	P 	0.78005 0.86048 0.63770 0.94400
P 	P 	0.10111 0.94715 0.64280 0.92900
Al	Al	0.90640 0.77866 0.76820 2.40400
Al	Al	0.09974 0.67455 0.76100 2.40400
Al	Al	0.90681 0.94453 0.76480 2.40300
Al	Al	0.22619 0.86478 0.76320 2.40500
O 	O 	0.12050 0.73410 0.72110 -0.84400
O 	O 	0.00800 0.80195 0.70370 -0.82000
O 	O 	0.17190 0.81880 0.66700 -0.80900
O 	O 	0.09130 0.77217 0.46790 -0.87500
O 	O 	0.88810 0.72198 0.69060 -0.86700
O 	O 	0.83815 0.63464 0.71000 -0.75100
O 	O 	0.89750 0.66898 0.46170 -0.83700
O 	O 	0.99950 0.65426 0.68470 -0.78900
O 	O 	0.68139 0.86383 0.68790 -0.76200
O 	O 	0.82050 0.81546 0.71100 -0.84300
O 	O 	0.78510 0.85531 0.46080 -0.85300
O 	O 	0.82520 0.90633 0.69330 -0.80500
O 	O 	0.01300 0.92498 0.70760 -0.82000
O 	O 	0.11380 0.99914 0.69230 -0.83900
O 	O 	0.18150 0.91939 0.70860 -0.77300
O 	O 	0.10110 0.94528 0.46570 -0.86200
