data_crystal

_cell_length_a 6.40410
_cell_length_b 17.62520
_cell_length_c 7.72710
_cell_angle_alpha 90.00000
_cell_angle_beta  95.58600
_cell_angle_gamma 90.00000

_symmetry_space_group_name_	'P 1'
_symmetry_space_group_name_H-M	'P 1'

loop_
_symmetry_equiv_pos_as_xyz
  x,y,z

loop_
_atom_site_label
_atom_site_type_symbol
_atom_site_fract_x
_atom_site_fract_y
_atom_site_fract_z
_atom_site_charge
V 	V 	0.48840 0.43330 0.68210 1.71700
V 	V 	0.01610 0.25110 0.81870 1.72100
P 	P 	0.00610 0.42990 0.75530 0.44300
P 	P 	0.50300 0.25510 0.74350 0.43200
O 	O 	0.04750 0.36040 0.87400 -0.54000
O 	O 	0.46380 0.32440 0.62370 -0.53500
O 	O 	0.79510 0.42640 0.64880 -0.50800
O 	O 	0.71220 0.25800 0.85360 -0.50800
O 	O 	0.17110 0.44260 0.63130 -0.48700
O 	O 	0.32620 0.24700 0.86350 -0.50200
O 	O 	0.97590 0.71750 0.87870 -0.38400
O 	O 	0.99660 0.64090 0.10170 -0.50500
O 	O 	0.53190 0.96440 0.61770 -0.43500
O 	O 	0.50360 0.04420 0.40450 -0.51200
C 	C 	0.00850 0.50880 0.90180 -0.21700
C 	C 	0.49810 0.17440 0.59950 -0.17100
C 	C 	0.51390 0.09530 0.68750 -0.33200
C 	C 	0.99110 0.58410 0.80950 -0.23500
C 	C 	0.51290 0.03170 0.56480 0.44100
C 	C 	0.98140 0.65100 0.93590 0.34800
H 	H 	0.89260 0.50370 0.97300 0.08100
H 	H 	0.13770 0.50780 0.97860 0.08400
H 	H 	0.36890 0.17620 0.52290 0.07300
H 	H 	0.61340 0.17940 0.52760 0.06900
H 	H 	0.64210 0.09320 0.76530 0.13800
H 	H 	0.39710 0.08930 0.75730 0.13100
H 	H 	0.86580 0.58420 0.72820 0.10300
H 	H 	0.11110 0.59060 0.74340 0.10200
V 	V 	0.51160 0.93330 0.31790 1.71000
V 	V 	0.98390 0.75110 0.18130 1.71900
P 	P 	0.99390 0.92990 0.24470 0.42100
P 	P 	0.49700 0.75510 0.25650 0.43300
O 	O 	0.95250 0.86040 0.12600 -0.54200
O 	O 	0.53620 0.82440 0.37630 -0.53600
O 	O 	0.20490 0.92640 0.35120 -0.51200
O 	O 	0.28780 0.75800 0.14640 -0.50800
O 	O 	0.82890 0.94260 0.36870 -0.49600
O 	O 	0.67380 0.74700 0.13650 -0.50400
O 	O 	0.02410 0.21750 0.12130 -0.38400
O 	O 	0.00340 0.14090 0.89830 -0.50400
O 	O 	0.46810 0.46440 0.38230 -0.40300
O 	O 	0.49640 0.54420 0.59550 -0.51200
C 	C 	0.99150 0.00880 0.09820 -0.18800
C 	C 	0.50190 0.67440 0.40050 -0.18300
C 	C 	0.48610 0.59530 0.31250 -0.30400
C 	C 	0.00890 0.08410 0.19050 -0.24900
C 	C 	0.48710 0.53170 0.43520 0.39800
C 	C 	0.01860 0.15100 0.06410 0.35200
H 	H 	0.10740 0.00370 0.02700 0.08100
H 	H 	0.86230 0.00780 0.02140 0.08300
H 	H 	0.63110 0.67620 0.47710 0.07600
H 	H 	0.38660 0.67940 0.47240 0.07200
H 	H 	0.35790 0.59320 0.23470 0.12700
H 	H 	0.60290 0.58930 0.24270 0.12000
H 	H 	0.13420 0.08420 0.27180 0.11100
H 	H 	0.88890 0.09060 0.25660 0.11000
