data_crystal

_cell_length_a 41.46940
_cell_length_b 41.46940
_cell_length_c 41.46940
_cell_angle_alpha 90.00000
_cell_angle_beta  90.00000
_cell_angle_gamma 90.00000

_symmetry_space_group_name_	'P 1'
_symmetry_space_group_name_H-M	'P 1'

loop_
_symmetry_equiv_pos_as_xyz
  x,y,z

loop_
_atom_site_label
_atom_site_type_symbol
_atom_site_fract_x
_atom_site_fract_y
_atom_site_fract_z
_atom_site_charge
O 	O 	0.17005 0.13208 0.08337 -0.40300
C 	C 	0.16968 0.12819 0.01677 -0.03400
H 	H 	0.18300 0.11410 0.02800 0.06800
O 	O 	0.20980 0.12406 0.17264 -0.45100
C 	C 	0.21820 0.12330 0.25770 -0.01300
H 	H 	0.19650 0.12370 0.26370 0.05000
O 	O 	0.17005 0.63208 0.58337 -0.40400
C 	C 	0.16968 0.62819 0.51677 -0.01400
H 	H 	0.18300 0.61410 0.52800 0.06300
O 	O 	0.20980 0.62406 0.67264 -0.45100
C 	C 	0.21820 0.62330 0.75770 -0.01300
H 	H 	0.19650 0.62370 0.76370 0.05000
O 	O 	0.67005 0.13208 0.58337 -0.40400
C 	C 	0.66968 0.12819 0.51677 -0.01400
H 	H 	0.68300 0.11410 0.52800 0.06300
O 	O 	0.70980 0.12406 0.67264 -0.45100
C 	C 	0.71820 0.12330 0.75770 -0.01300
H 	H 	0.69650 0.12370 0.76370 0.05000
O 	O 	0.67005 0.63208 0.08337 -0.40300
C 	C 	0.66968 0.62819 0.01677 -0.03300
H 	H 	0.68300 0.61410 0.02800 0.06800
O 	O 	0.70980 0.62406 0.17264 -0.45100
C 	C 	0.71820 0.62330 0.25770 -0.01300
H 	H 	0.69650 0.62370 0.26370 0.05000
O 	O 	0.82995 0.86792 0.08337 -0.40300
C 	C 	0.83032 0.87181 0.01677 -0.03300
H 	H 	0.81700 0.88590 0.02800 0.06800
O 	O 	0.79020 0.87594 0.17264 -0.45100
C 	C 	0.78180 0.87670 0.25770 -0.01300
H 	H 	0.80350 0.87630 0.26370 0.05000
O 	O 	0.82995 0.36792 0.58337 -0.40400
C 	C 	0.83032 0.37181 0.51677 -0.01400
H 	H 	0.81700 0.38590 0.52800 0.06300
O 	O 	0.79020 0.37594 0.67264 -0.45100
C 	C 	0.78180 0.37670 0.75770 -0.01300
H 	H 	0.80350 0.37630 0.76370 0.05000
O 	O 	0.32995 0.86792 0.58337 -0.40400
C 	C 	0.33032 0.87181 0.51677 -0.01400
H 	H 	0.31700 0.88590 0.52800 0.06300
O 	O 	0.29020 0.87594 0.67264 -0.45100
C 	C 	0.28180 0.87670 0.75770 -0.01300
H 	H 	0.30350 0.87630 0.76370 0.05000
O 	O 	0.32995 0.36792 0.08337 -0.40300
C 	C 	0.33032 0.37181 0.01677 -0.03300
H 	H 	0.31700 0.38590 0.02800 0.06800
O 	O 	0.29020 0.37594 0.17264 -0.45100
C 	C 	0.28180 0.37670 0.25770 -0.01300
H 	H 	0.30350 0.37630 0.26370 0.05000
O 	O 	0.82995 0.13208 0.91663 -0.40500
C 	C 	0.83032 0.12819 0.98323 0.00600
H 	H 	0.81700 0.11410 0.97200 0.05700
O 	O 	0.79020 0.12406 0.82736 -0.45100
C 	C 	0.78180 0.12330 0.74230 -0.01300
H 	H 	0.80350 0.12370 0.73630 0.05000
O 	O 	0.82995 0.63208 0.41663 -0.40400
C 	C 	0.83032 0.62819 0.48323 -0.01400
H 	H 	0.81700 0.61410 0.47200 0.06300
O 	O 	0.79020 0.62406 0.32736 -0.45100
C 	C 	0.78180 0.62330 0.24230 -0.01300
H 	H 	0.80350 0.62370 0.23630 0.05000
O 	O 	0.32995 0.13208 0.41663 -0.40400
C 	C 	0.33032 0.12819 0.48323 -0.01400
H 	H 	0.31700 0.11410 0.47200 0.06300
O 	O 	0.29020 0.12406 0.32736 -0.45100
C 	C 	0.28180 0.12330 0.24230 -0.01300
H 	H 	0.30350 0.12370 0.23630 0.05000
O 	O 	0.32995 0.63208 0.91663 -0.40500
C 	C 	0.33032 0.62819 0.98323 0.00600
H 	H 	0.31700 0.61410 0.97200 0.05700
O 	O 	0.29020 0.62406 0.82736 -0.45100
C 	C 	0.28180 0.62330 0.74230 -0.01300
H 	H 	0.30350 0.62370 0.73630 0.05000
O 	O 	0.17005 0.86792 0.91663 -0.40500
C 	C 	0.16968 0.87181 0.98323 0.00600
H 	H 	0.18300 0.88590 0.97200 0.05800
O 	O 	0.20980 0.87594 0.82736 -0.45000
C 	C 	0.21820 0.87670 0.74230 -0.01200
H 	H 	0.19650 0.87630 0.73630 0.05100
O 	O 	0.17005 0.36792 0.41663 -0.40300
C 	C 	0.16968 0.37181 0.48323 -0.01300
H 	H 	0.18300 0.38590 0.47200 0.06400
O 	O 	0.20980 0.37594 0.32736 -0.45000
C 	C 	0.21820 0.37670 0.24230 -0.01200
H 	H 	0.19650 0.37630 0.23630 0.05100
O 	O 	0.67005 0.86792 0.41663 -0.40300
C 	C 	0.66968 0.87181 0.48323 -0.01300
H 	H 	0.68300 0.88590 0.47200 0.06400
O 	O 	0.70980 0.87594 0.32736 -0.45000
C 	C 	0.71820 0.87670 0.24230 -0.01200
H 	H 	0.69650 0.87630 0.23630 0.05100
O 	O 	0.67005 0.36792 0.91663 -0.40400
C 	C 	0.66968 0.37181 0.98323 0.00700
H 	H 	0.68300 0.38590 0.97200 0.05800
O 	O 	0.70980 0.37594 0.82736 -0.45000
C 	C 	0.71820 0.37670 0.74230 -0.01200
H 	H 	0.69650 0.37630 0.73630 0.05100
O 	O 	0.08337 0.17005 0.13208 -0.40200
C 	C 	0.01677 0.16968 0.12819 -0.03300
H 	H 	0.02800 0.18300 0.11410 0.06900
O 	O 	0.17264 0.20980 0.12406 -0.45000
C 	C 	0.25770 0.21820 0.12330 -0.01200
H 	H 	0.26370 0.19650 0.12370 0.05100
O 	O 	0.08337 0.67005 0.63208 -0.40200
C 	C 	0.01677 0.66968 0.62819 -0.03200
H 	H 	0.02800 0.68300 0.61410 0.06900
O 	O 	0.17264 0.70980 0.62406 -0.45000
C 	C 	0.25770 0.71820 0.62330 -0.01200
H 	H 	0.26370 0.69650 0.62370 0.05100
O 	O 	0.58337 0.17005 0.63208 -0.40300
C 	C 	0.51677 0.16968 0.62819 -0.01300
H 	H 	0.52800 0.18300 0.61410 0.06400
O 	O 	0.67264 0.20980 0.62406 -0.45000
C 	C 	0.75770 0.21820 0.62330 -0.01200
H 	H 	0.76370 0.19650 0.62370 0.05100
O 	O 	0.58337 0.67005 0.13208 -0.40300
C 	C 	0.51677 0.66968 0.12819 -0.01300
H 	H 	0.52800 0.68300 0.11410 0.06400
O 	O 	0.67264 0.70980 0.12406 -0.45000
C 	C 	0.75770 0.71820 0.12330 -0.01200
H 	H 	0.76370 0.69650 0.12370 0.05100
O 	O 	0.08337 0.82995 0.86792 -0.40200
C 	C 	0.01677 0.83032 0.87181 -0.03200
H 	H 	0.02800 0.81700 0.88590 0.06900
O 	O 	0.17264 0.79020 0.87594 -0.45000
C 	C 	0.25770 0.78180 0.87670 -0.01200
H 	H 	0.26370 0.80350 0.87630 0.05100
O 	O 	0.08337 0.32995 0.36792 -0.40200
C 	C 	0.01677 0.33032 0.37181 -0.03200
H 	H 	0.02800 0.31700 0.38590 0.06900
O 	O 	0.17264 0.29020 0.37594 -0.45000
C 	C 	0.25770 0.28180 0.37670 -0.01200
H 	H 	0.26370 0.30350 0.37630 0.05100
O 	O 	0.58337 0.82995 0.36792 -0.40300
C 	C 	0.51677 0.83032 0.37181 -0.01300
H 	H 	0.52800 0.81700 0.38590 0.06400
O 	O 	0.67264 0.79020 0.37594 -0.45000
C 	C 	0.75770 0.78180 0.37670 -0.01200
H 	H 	0.76370 0.80350 0.37630 0.05100
O 	O 	0.58337 0.32995 0.86792 -0.40300
C 	C 	0.51677 0.33032 0.87181 -0.01300
H 	H 	0.52800 0.31700 0.88590 0.06400
O 	O 	0.67264 0.29020 0.87594 -0.45000
C 	C 	0.75770 0.28180 0.87670 -0.01200
H 	H 	0.76370 0.30350 0.87630 0.05100
O 	O 	0.91663 0.82995 0.13208 -0.40400
C 	C 	0.98323 0.83032 0.12819 0.00700
H 	H 	0.97200 0.81700 0.11410 0.05800
O 	O 	0.82736 0.79020 0.12406 -0.45000
C 	C 	0.74230 0.78180 0.12330 -0.01200
H 	H 	0.73630 0.80350 0.12370 0.05100
O 	O 	0.91663 0.32995 0.63208 -0.40400
C 	C 	0.98323 0.33032 0.62819 0.00700
H 	H 	0.97200 0.31700 0.61410 0.05800
O 	O 	0.82736 0.29020 0.62406 -0.45000
C 	C 	0.74230 0.28180 0.62330 -0.01200
H 	H 	0.73630 0.30350 0.62370 0.05100
O 	O 	0.41663 0.82995 0.63208 -0.40300
C 	C 	0.48323 0.83032 0.62819 -0.01300
H 	H 	0.47200 0.81700 0.61410 0.06400
O 	O 	0.32736 0.79020 0.62406 -0.45000
C 	C 	0.24230 0.78180 0.62330 -0.01200
H 	H 	0.23630 0.80350 0.62370 0.05100
O 	O 	0.41663 0.32995 0.13208 -0.40300
C 	C 	0.48323 0.33032 0.12819 -0.01300
H 	H 	0.47200 0.31700 0.11410 0.06400
O 	O 	0.32736 0.29020 0.12406 -0.45000
C 	C 	0.24230 0.28180 0.12330 -0.01200
H 	H 	0.23630 0.30350 0.12370 0.05100
O 	O 	0.91663 0.17005 0.86792 -0.40400
C 	C 	0.98323 0.16968 0.87181 0.00700
H 	H 	0.97200 0.18300 0.88590 0.05800
O 	O 	0.82736 0.20980 0.87594 -0.45000
C 	C 	0.74230 0.21820 0.87670 -0.01200
H 	H 	0.73630 0.19650 0.87630 0.05100
O 	O 	0.91663 0.67005 0.36792 -0.40400
C 	C 	0.98323 0.66968 0.37181 0.00700
H 	H 	0.97200 0.68300 0.38590 0.05800
O 	O 	0.82736 0.70980 0.37594 -0.45000
C 	C 	0.74230 0.71820 0.37670 -0.01200
H 	H 	0.73630 0.69650 0.37630 0.05100
O 	O 	0.41663 0.17005 0.36792 -0.40300
C 	C 	0.48323 0.16968 0.37181 -0.01300
H 	H 	0.47200 0.18300 0.38590 0.06400
O 	O 	0.32736 0.20980 0.37594 -0.45000
C 	C 	0.24230 0.21820 0.37670 -0.01200
H 	H 	0.23630 0.19650 0.37630 0.05100
O 	O 	0.41663 0.67005 0.86792 -0.40300
C 	C 	0.48323 0.66968 0.87181 -0.01300
H 	H 	0.47200 0.68300 0.88590 0.06400
O 	O 	0.32736 0.70980 0.87594 -0.45000
C 	C 	0.24230 0.71820 0.87670 -0.01200
H 	H 	0.23630 0.69650 0.87630 0.05100
O 	O 	0.13208 0.08337 0.17005 -0.40200
C 	C 	0.12819 0.01677 0.16968 -0.03300
H 	H 	0.11410 0.02800 0.18300 0.06900
O 	O 	0.12406 0.17264 0.20980 -0.45000
C 	C 	0.12330 0.25770 0.21820 -0.01200
H 	H 	0.12370 0.26370 0.19650 0.05100
O 	O 	0.13208 0.58337 0.67005 -0.40300
C 	C 	0.12819 0.51677 0.66968 -0.01300
H 	H 	0.11410 0.52800 0.68300 0.06400
O 	O 	0.12406 0.67264 0.70980 -0.45000
C 	C 	0.12330 0.75770 0.71820 -0.01200
H 	H 	0.12370 0.76370 0.69650 0.05100
O 	O 	0.63208 0.08337 0.67005 -0.40200
C 	C 	0.62819 0.01677 0.66968 -0.03200
H 	H 	0.61410 0.02800 0.68300 0.06900
O 	O 	0.62406 0.17264 0.70980 -0.45000
C 	C 	0.62330 0.25770 0.71820 -0.01200
H 	H 	0.62370 0.26370 0.69650 0.05100
O 	O 	0.63208 0.58337 0.17005 -0.40300
C 	C 	0.62819 0.51677 0.16968 -0.01300
H 	H 	0.61410 0.52800 0.18300 0.06400
O 	O 	0.62406 0.67264 0.20980 -0.45000
C 	C 	0.62330 0.75770 0.21820 -0.01200
H 	H 	0.62370 0.76370 0.19650 0.05100
O 	O 	0.86792 0.08337 0.82995 -0.40200
C 	C 	0.87181 0.01677 0.83032 -0.03200
H 	H 	0.88590 0.02800 0.81700 0.06900
O 	O 	0.87594 0.17264 0.79020 -0.45000
C 	C 	0.87670 0.25770 0.78180 -0.01200
H 	H 	0.87630 0.26370 0.80350 0.05100
O 	O 	0.86792 0.58337 0.32995 -0.40300
C 	C 	0.87181 0.51677 0.33032 -0.01300
H 	H 	0.88590 0.52800 0.31700 0.06400
O 	O 	0.87594 0.67264 0.29020 -0.45000
C 	C 	0.87670 0.75770 0.28180 -0.01200
H 	H 	0.87630 0.76370 0.30350 0.05100
O 	O 	0.36792 0.08337 0.32995 -0.40200
C 	C 	0.37181 0.01677 0.33032 -0.03200
H 	H 	0.38590 0.02800 0.31700 0.06900
O 	O 	0.37594 0.17264 0.29020 -0.45000
C 	C 	0.37670 0.25770 0.28180 -0.01200
H 	H 	0.37630 0.26370 0.30350 0.05100
O 	O 	0.36792 0.58337 0.82995 -0.40300
C 	C 	0.37181 0.51677 0.83032 -0.01300
H 	H 	0.38590 0.52800 0.81700 0.06400
O 	O 	0.37594 0.67264 0.79020 -0.45000
C 	C 	0.37670 0.75770 0.78180 -0.01200
H 	H 	0.37630 0.76370 0.80350 0.05100
O 	O 	0.13208 0.91663 0.82995 -0.40400
C 	C 	0.12819 0.98323 0.83032 0.00700
H 	H 	0.11410 0.97200 0.81700 0.05800
O 	O 	0.12406 0.82736 0.79020 -0.45000
C 	C 	0.12330 0.74230 0.78180 -0.01200
H 	H 	0.12370 0.73630 0.80350 0.05100
O 	O 	0.13208 0.41663 0.32995 -0.40300
C 	C 	0.12819 0.48323 0.33032 -0.01300
H 	H 	0.11410 0.47200 0.31700 0.06400
O 	O 	0.12406 0.32736 0.29020 -0.45000
C 	C 	0.12330 0.24230 0.28180 -0.01200
H 	H 	0.12370 0.23630 0.30350 0.05100
O 	O 	0.63208 0.91663 0.32995 -0.40400
C 	C 	0.62819 0.98323 0.33032 0.00700
H 	H 	0.61410 0.97200 0.31700 0.05800
O 	O 	0.62406 0.82736 0.29020 -0.45000
C 	C 	0.62330 0.74230 0.28180 -0.01200
H 	H 	0.62370 0.73630 0.30350 0.05100
O 	O 	0.63208 0.41663 0.82995 -0.40300
C 	C 	0.62819 0.48323 0.83032 -0.01300
H 	H 	0.61410 0.47200 0.81700 0.06400
O 	O 	0.62406 0.32736 0.79020 -0.45000
C 	C 	0.62330 0.24230 0.78180 -0.01200
H 	H 	0.62370 0.23630 0.80350 0.05100
O 	O 	0.86792 0.91663 0.17005 -0.40400
C 	C 	0.87181 0.98323 0.16968 0.00700
H 	H 	0.88590 0.97200 0.18300 0.05800
O 	O 	0.87594 0.82736 0.20980 -0.45000
C 	C 	0.87670 0.74230 0.21820 -0.01200
H 	H 	0.87630 0.73630 0.19650 0.05100
O 	O 	0.86792 0.41663 0.67005 -0.40300
C 	C 	0.87181 0.48323 0.66968 -0.01300
H 	H 	0.88590 0.47200 0.68300 0.06400
O 	O 	0.87594 0.32736 0.70980 -0.45000
C 	C 	0.87670 0.24230 0.71820 -0.01200
H 	H 	0.87630 0.23630 0.69650 0.05100
O 	O 	0.36792 0.91663 0.67005 -0.40400
C 	C 	0.37181 0.98323 0.66968 0.00700
H 	H 	0.38590 0.97200 0.68300 0.05800
O 	O 	0.37594 0.82736 0.70980 -0.45000
C 	C 	0.37670 0.74230 0.71820 -0.01200
H 	H 	0.37630 0.73630 0.69650 0.05100
O 	O 	0.36792 0.41663 0.17005 -0.40300
C 	C 	0.37181 0.48323 0.16968 -0.01300
H 	H 	0.38590 0.47200 0.18300 0.06400
O 	O 	0.37594 0.32736 0.20980 -0.45000
C 	C 	0.37670 0.24230 0.21820 -0.01200
H 	H 	0.37630 0.23630 0.19650 0.05100
O 	O 	0.13208 0.17005 0.91663 -0.40400
C 	C 	0.12819 0.16968 0.98323 0.00700
H 	H 	0.11410 0.18300 0.97200 0.05800
O 	O 	0.12406 0.20980 0.82736 -0.45000
C 	C 	0.12330 0.21820 0.74230 -0.01200
H 	H 	0.12370 0.19650 0.73630 0.05100
O 	O 	0.13208 0.67005 0.41663 -0.40300
C 	C 	0.12819 0.66968 0.48323 -0.01300
H 	H 	0.11410 0.68300 0.47200 0.06400
O 	O 	0.12406 0.70980 0.32736 -0.45000
C 	C 	0.12330 0.71820 0.24230 -0.01200
H 	H 	0.12370 0.69650 0.23630 0.05100
O 	O 	0.63208 0.17005 0.41663 -0.40300
C 	C 	0.62819 0.16968 0.48323 -0.01300
H 	H 	0.61410 0.18300 0.47200 0.06400
O 	O 	0.62406 0.20980 0.32736 -0.45000
C 	C 	0.62330 0.21820 0.24230 -0.01200
H 	H 	0.62370 0.19650 0.23630 0.05100
O 	O 	0.63208 0.67005 0.91663 -0.40400
C 	C 	0.62819 0.66968 0.98323 0.00700
H 	H 	0.61410 0.68300 0.97200 0.05800
O 	O 	0.62406 0.70980 0.82736 -0.45000
C 	C 	0.62330 0.71820 0.74230 -0.01200
H 	H 	0.62370 0.69650 0.73630 0.05100
O 	O 	0.86792 0.82995 0.91663 -0.40400
C 	C 	0.87181 0.83032 0.98323 0.00700
H 	H 	0.88590 0.81700 0.97200 0.05800
O 	O 	0.87594 0.79020 0.82736 -0.45000
C 	C 	0.87670 0.78180 0.74230 -0.01200
H 	H 	0.87630 0.80350 0.73630 0.05100
O 	O 	0.86792 0.32995 0.41663 -0.40300
C 	C 	0.87181 0.33032 0.48323 -0.01300
H 	H 	0.88590 0.31700 0.47200 0.06400
O 	O 	0.87594 0.29020 0.32736 -0.45000
C 	C 	0.87670 0.28180 0.24230 -0.01200
H 	H 	0.87630 0.30350 0.23630 0.05100
O 	O 	0.36792 0.82995 0.41663 -0.40300
C 	C 	0.37181 0.83032 0.48323 -0.01300
H 	H 	0.38590 0.81700 0.47200 0.06400
O 	O 	0.37594 0.79020 0.32736 -0.45000
C 	C 	0.37670 0.78180 0.24230 -0.01200
H 	H 	0.37630 0.80350 0.23630 0.05100
O 	O 	0.36792 0.32995 0.91663 -0.40400
C 	C 	0.37181 0.33032 0.98323 0.00700
H 	H 	0.38590 0.31700 0.97200 0.05800
O 	O 	0.37594 0.29020 0.82736 -0.45000
C 	C 	0.37670 0.28180 0.74230 -0.01200
H 	H 	0.37630 0.30350 0.73630 0.05100
O 	O 	0.13208 0.82995 0.08337 -0.40200
C 	C 	0.12819 0.83032 0.01677 -0.03200
H 	H 	0.11410 0.81700 0.02800 0.06900
O 	O 	0.12406 0.79020 0.17264 -0.45000
C 	C 	0.12330 0.78180 0.25770 -0.01200
H 	H 	0.12370 0.80350 0.26370 0.05100
O 	O 	0.13208 0.32995 0.58337 -0.40300
C 	C 	0.12819 0.33032 0.51677 -0.01300
H 	H 	0.11410 0.31700 0.52800 0.06400
O 	O 	0.12406 0.29020 0.67264 -0.45000
C 	C 	0.12330 0.28180 0.75770 -0.01200
H 	H 	0.12370 0.30350 0.76370 0.05100
O 	O 	0.63208 0.82995 0.58337 -0.40300
C 	C 	0.62819 0.83032 0.51677 -0.01300
H 	H 	0.61410 0.81700 0.52800 0.06400
O 	O 	0.62406 0.79020 0.67264 -0.45000
C 	C 	0.62330 0.78180 0.75770 -0.01200
H 	H 	0.62370 0.80350 0.76370 0.05100
O 	O 	0.63208 0.32995 0.08337 -0.40200
C 	C 	0.62819 0.33032 0.01677 -0.03200
H 	H 	0.61410 0.31700 0.02800 0.06900
O 	O 	0.62406 0.29020 0.17264 -0.45000
C 	C 	0.62330 0.28180 0.25770 -0.01200
H 	H 	0.62370 0.30350 0.26370 0.05100
O 	O 	0.86792 0.17005 0.08337 -0.40200
C 	C 	0.87181 0.16968 0.01677 -0.03200
H 	H 	0.88590 0.18300 0.02800 0.06900
O 	O 	0.87594 0.20980 0.17264 -0.45000
C 	C 	0.87670 0.21820 0.25770 -0.01200
H 	H 	0.87630 0.19650 0.26370 0.05100
O 	O 	0.86792 0.67005 0.58337 -0.40300
C 	C 	0.87181 0.66968 0.51677 -0.01300
H 	H 	0.88590 0.68300 0.52800 0.06400
O 	O 	0.87594 0.70980 0.67264 -0.45000
C 	C 	0.87670 0.71820 0.75770 -0.01200
H 	H 	0.87630 0.69650 0.76370 0.05100
O 	O 	0.36792 0.17005 0.58337 -0.40300
C 	C 	0.37181 0.16968 0.51677 -0.01300
H 	H 	0.38590 0.18300 0.52800 0.06400
O 	O 	0.37594 0.20980 0.67264 -0.45000
C 	C 	0.37670 0.21820 0.75770 -0.01200
H 	H 	0.37630 0.19650 0.76370 0.05100
O 	O 	0.36792 0.67005 0.08337 -0.40200
C 	C 	0.37181 0.66968 0.01677 -0.03200
H 	H 	0.38590 0.68300 0.02800 0.06900
O 	O 	0.37594 0.70980 0.17264 -0.45000
C 	C 	0.37670 0.71820 0.25770 -0.01200
H 	H 	0.37630 0.69650 0.26370 0.05100
O 	O 	0.17005 0.08337 0.86792 -0.40200
C 	C 	0.16968 0.01677 0.87181 -0.03200
H 	H 	0.18300 0.02800 0.88590 0.06900
O 	O 	0.20980 0.17264 0.87594 -0.45000
C 	C 	0.21820 0.25770 0.87670 -0.01200
H 	H 	0.19650 0.26370 0.87630 0.05100
O 	O 	0.17005 0.58337 0.36792 -0.40300
C 	C 	0.16968 0.51677 0.37181 -0.01300
H 	H 	0.18300 0.52800 0.38590 0.06400
O 	O 	0.20980 0.67264 0.37594 -0.45000
C 	C 	0.21820 0.75770 0.37670 -0.01200
H 	H 	0.19650 0.76370 0.37630 0.05100
O 	O 	0.67005 0.08337 0.36792 -0.40200
C 	C 	0.66968 0.01677 0.37181 -0.03200
H 	H 	0.68300 0.02800 0.38590 0.06900
O 	O 	0.70980 0.17264 0.37594 -0.45000
C 	C 	0.71820 0.25770 0.37670 -0.01200
H 	H 	0.69650 0.26370 0.37630 0.05100
O 	O 	0.67005 0.58337 0.86792 -0.40300
C 	C 	0.66968 0.51677 0.87181 -0.01300
H 	H 	0.68300 0.52800 0.88590 0.06400
O 	O 	0.70980 0.67264 0.87594 -0.45000
C 	C 	0.71820 0.75770 0.87670 -0.01200
H 	H 	0.69650 0.76370 0.87630 0.05100
O 	O 	0.82995 0.08337 0.13208 -0.40200
C 	C 	0.83032 0.01677 0.12819 -0.03200
H 	H 	0.81700 0.02800 0.11410 0.06900
O 	O 	0.79020 0.17264 0.12406 -0.45000
C 	C 	0.78180 0.25770 0.12330 -0.01200
H 	H 	0.80350 0.26370 0.12370 0.05100
O 	O 	0.82995 0.58337 0.63208 -0.40300
C 	C 	0.83032 0.51677 0.62819 -0.01300
H 	H 	0.81700 0.52800 0.61410 0.06400
O 	O 	0.79020 0.67264 0.62406 -0.45000
C 	C 	0.78180 0.75770 0.62330 -0.01200
H 	H 	0.80350 0.76370 0.62370 0.05100
O 	O 	0.32995 0.08337 0.63208 -0.40200
C 	C 	0.33032 0.01677 0.62819 -0.03200
H 	H 	0.31700 0.02800 0.61410 0.06900
O 	O 	0.29020 0.17264 0.62406 -0.45000
C 	C 	0.28180 0.25770 0.62330 -0.01200
H 	H 	0.30350 0.26370 0.62370 0.05100
O 	O 	0.32995 0.58337 0.13208 -0.40300
C 	C 	0.33032 0.51677 0.12819 -0.01300
H 	H 	0.31700 0.52800 0.11410 0.06400
O 	O 	0.29020 0.67264 0.12406 -0.45000
C 	C 	0.28180 0.75770 0.12330 -0.01200
H 	H 	0.30350 0.76370 0.12370 0.05100
O 	O 	0.82995 0.91663 0.86792 -0.40400
C 	C 	0.83032 0.98323 0.87181 0.00700
H 	H 	0.81700 0.97200 0.88590 0.05800
O 	O 	0.79020 0.82736 0.87594 -0.45000
C 	C 	0.78180 0.74230 0.87670 -0.01200
H 	H 	0.80350 0.73630 0.87630 0.05100
O 	O 	0.82995 0.41663 0.36792 -0.40300
C 	C 	0.83032 0.48323 0.37181 -0.01300
H 	H 	0.81700 0.47200 0.38590 0.06400
O 	O 	0.79020 0.32736 0.37594 -0.45000
C 	C 	0.78180 0.24230 0.37670 -0.01200
H 	H 	0.80350 0.23630 0.37630 0.05100
O 	O 	0.32995 0.91663 0.36792 -0.40400
C 	C 	0.33032 0.98323 0.37181 0.00700
H 	H 	0.31700 0.97200 0.38590 0.05800
O 	O 	0.29020 0.82736 0.37594 -0.45000
C 	C 	0.28180 0.74230 0.37670 -0.01200
H 	H 	0.30350 0.73630 0.37630 0.05100
O 	O 	0.32995 0.41663 0.86792 -0.40300
C 	C 	0.33032 0.48323 0.87181 -0.01300
H 	H 	0.31700 0.47200 0.88590 0.06400
O 	O 	0.29020 0.32736 0.87594 -0.45000
C 	C 	0.28180 0.24230 0.87670 -0.01200
H 	H 	0.30350 0.23630 0.87630 0.05100
O 	O 	0.17005 0.91663 0.13208 -0.40400
C 	C 	0.16968 0.98323 0.12819 0.00700
H 	H 	0.18300 0.97200 0.11410 0.05800
O 	O 	0.20980 0.82736 0.12406 -0.45000
C 	C 	0.21820 0.74230 0.12330 -0.01200
H 	H 	0.19650 0.73630 0.12370 0.05100
O 	O 	0.17005 0.41663 0.63208 -0.40300
C 	C 	0.16968 0.48323 0.62819 -0.01300
H 	H 	0.18300 0.47200 0.61410 0.06400
O 	O 	0.20980 0.32736 0.62406 -0.45000
C 	C 	0.21820 0.24230 0.62330 -0.01200
H 	H 	0.19650 0.23630 0.62370 0.05100
O 	O 	0.67005 0.91663 0.63208 -0.40400
C 	C 	0.66968 0.98323 0.62819 0.00700
H 	H 	0.68300 0.97200 0.61410 0.05800
O 	O 	0.70980 0.82736 0.62406 -0.45000
C 	C 	0.71820 0.74230 0.62330 -0.01200
H 	H 	0.69650 0.73630 0.62370 0.05100
O 	O 	0.67005 0.41663 0.13208 -0.40300
C 	C 	0.66968 0.48323 0.12819 -0.01300
H 	H 	0.68300 0.47200 0.11410 0.06400
O 	O 	0.70980 0.32736 0.12406 -0.45000
C 	C 	0.71820 0.24230 0.12330 -0.01200
H 	H 	0.69650 0.23630 0.12370 0.05100
O 	O 	0.08337 0.13208 0.82995 -0.40200
C 	C 	0.01677 0.12819 0.83032 -0.03200
H 	H 	0.02800 0.11410 0.81700 0.06900
O 	O 	0.17264 0.12406 0.79020 -0.45000
C 	C 	0.25770 0.12330 0.78180 -0.01200
H 	H 	0.26370 0.12370 0.80350 0.05100
O 	O 	0.08337 0.63208 0.32995 -0.40200
C 	C 	0.01677 0.62819 0.33032 -0.03200
H 	H 	0.02800 0.61410 0.31700 0.06900
O 	O 	0.17264 0.62406 0.29020 -0.45000
C 	C 	0.25770 0.62330 0.28180 -0.01200
H 	H 	0.26370 0.62370 0.30350 0.05100
O 	O 	0.58337 0.13208 0.32995 -0.40300
C 	C 	0.51677 0.12819 0.33032 -0.01300
H 	H 	0.52800 0.11410 0.31700 0.06400
O 	O 	0.67264 0.12406 0.29020 -0.45000
C 	C 	0.75770 0.12330 0.28180 -0.01200
H 	H 	0.76370 0.12370 0.30350 0.05100
O 	O 	0.58337 0.63208 0.82995 -0.40300
C 	C 	0.51677 0.62819 0.83032 -0.01300
H 	H 	0.52800 0.61410 0.81700 0.06400
O 	O 	0.67264 0.62406 0.79020 -0.45000
C 	C 	0.75770 0.62330 0.78180 -0.01200
H 	H 	0.76370 0.62370 0.80350 0.05100
O 	O 	0.08337 0.86792 0.17005 -0.40200
C 	C 	0.01677 0.87181 0.16968 -0.03200
H 	H 	0.02800 0.88590 0.18300 0.06900
O 	O 	0.17264 0.87594 0.20980 -0.45000
C 	C 	0.25770 0.87670 0.21820 -0.01200
H 	H 	0.26370 0.87630 0.19650 0.05100
O 	O 	0.08337 0.36792 0.67005 -0.40200
C 	C 	0.01677 0.37181 0.66968 -0.03200
H 	H 	0.02800 0.38590 0.68300 0.06900
O 	O 	0.17264 0.37594 0.70980 -0.45000
C 	C 	0.25770 0.37670 0.71820 -0.01200
H 	H 	0.26370 0.37630 0.69650 0.05100
O 	O 	0.58337 0.86792 0.67005 -0.40300
C 	C 	0.51677 0.87181 0.66968 -0.01300
H 	H 	0.52800 0.88590 0.68300 0.06400
O 	O 	0.67264 0.87594 0.70980 -0.45000
C 	C 	0.75770 0.87670 0.71820 -0.01200
H 	H 	0.76370 0.87630 0.69650 0.05100
O 	O 	0.58337 0.36792 0.17005 -0.40300
C 	C 	0.51677 0.37181 0.16968 -0.01300
H 	H 	0.52800 0.38590 0.18300 0.06400
O 	O 	0.67264 0.37594 0.20980 -0.45000
C 	C 	0.75770 0.37670 0.21820 -0.01200
H 	H 	0.76370 0.37630 0.19650 0.05100
O 	O 	0.91663 0.13208 0.17005 -0.40400
C 	C 	0.98323 0.12819 0.16968 0.00700
H 	H 	0.97200 0.11410 0.18300 0.05800
O 	O 	0.82736 0.12406 0.20980 -0.45000
C 	C 	0.74230 0.12330 0.21820 -0.01200
H 	H 	0.73630 0.12370 0.19650 0.05100
O 	O 	0.91663 0.63208 0.67005 -0.40400
C 	C 	0.98323 0.62819 0.66968 0.00700
H 	H 	0.97200 0.61410 0.68300 0.05800
O 	O 	0.82736 0.62406 0.70980 -0.45000
C 	C 	0.74230 0.62330 0.71820 -0.01200
H 	H 	0.73630 0.62370 0.69650 0.05100
O 	O 	0.41663 0.13208 0.67005 -0.40300
C 	C 	0.48323 0.12819 0.66968 -0.01300
H 	H 	0.47200 0.11410 0.68300 0.06400
O 	O 	0.32736 0.12406 0.70980 -0.45000
C 	C 	0.24230 0.12330 0.71820 -0.01200
H 	H 	0.23630 0.12370 0.69650 0.05100
O 	O 	0.41663 0.63208 0.17005 -0.40300
C 	C 	0.48323 0.62819 0.16968 -0.01300
H 	H 	0.47200 0.61410 0.18300 0.06400
O 	O 	0.32736 0.62406 0.20980 -0.45000
C 	C 	0.24230 0.62330 0.21820 -0.01200
H 	H 	0.23630 0.62370 0.19650 0.05100
O 	O 	0.91663 0.86792 0.82995 -0.40400
C 	C 	0.98323 0.87181 0.83032 0.00700
H 	H 	0.97200 0.88590 0.81700 0.05800
O 	O 	0.82736 0.87594 0.79020 -0.45000
C 	C 	0.74230 0.87670 0.78180 -0.01200
H 	H 	0.73630 0.87630 0.80350 0.05100
O 	O 	0.91663 0.36792 0.32995 -0.40400
C 	C 	0.98323 0.37181 0.33032 0.00700
H 	H 	0.97200 0.38590 0.31700 0.05800
O 	O 	0.82736 0.37594 0.29020 -0.45000
C 	C 	0.74230 0.37670 0.28180 -0.01200
H 	H 	0.73630 0.37630 0.30350 0.05100
O 	O 	0.41663 0.86792 0.32995 -0.40300
C 	C 	0.48323 0.87181 0.33032 -0.01300
H 	H 	0.47200 0.88590 0.31700 0.06400
O 	O 	0.32736 0.87594 0.29020 -0.45000
C 	C 	0.24230 0.87670 0.28180 -0.01200
H 	H 	0.23630 0.87630 0.30350 0.05100
O 	O 	0.41663 0.36792 0.82995 -0.40300
C 	C 	0.48323 0.37181 0.83032 -0.01300
H 	H 	0.47200 0.38590 0.81700 0.06400
O 	O 	0.32736 0.37594 0.79020 -0.45000
C 	C 	0.24230 0.37670 0.78180 -0.01200
H 	H 	0.23630 0.37630 0.80350 0.05100
O 	O 	0.82995 0.86792 0.91663 -0.40400
C 	C 	0.83032 0.87181 0.98323 0.00700
H 	H 	0.81700 0.88590 0.97200 0.05800
O 	O 	0.79020 0.87594 0.82736 -0.45000
C 	C 	0.78180 0.87670 0.74230 -0.01200
H 	H 	0.80350 0.87630 0.73630 0.05100
O 	O 	0.82995 0.36792 0.41663 -0.40300
C 	C 	0.83032 0.37181 0.48323 -0.01300
H 	H 	0.81700 0.38590 0.47200 0.06400
O 	O 	0.79020 0.37594 0.32736 -0.45000
C 	C 	0.78180 0.37670 0.24230 -0.01200
H 	H 	0.80350 0.37630 0.23630 0.05100
O 	O 	0.32995 0.86792 0.41663 -0.40300
C 	C 	0.33032 0.87181 0.48323 -0.01300
H 	H 	0.31700 0.88590 0.47200 0.06400
O 	O 	0.29020 0.87594 0.32736 -0.45000
C 	C 	0.28180 0.87670 0.24230 -0.01200
H 	H 	0.30350 0.87630 0.23630 0.05100
O 	O 	0.32995 0.36792 0.91663 -0.40400
C 	C 	0.33032 0.37181 0.98323 0.00700
H 	H 	0.31700 0.38590 0.97200 0.05800
O 	O 	0.29020 0.37594 0.82736 -0.45000
C 	C 	0.28180 0.37670 0.74230 -0.01200
H 	H 	0.30350 0.37630 0.73630 0.05100
O 	O 	0.17005 0.13208 0.91663 -0.40400
C 	C 	0.16968 0.12819 0.98323 0.00700
H 	H 	0.18300 0.11410 0.97200 0.05800
O 	O 	0.20980 0.12406 0.82736 -0.45000
C 	C 	0.21820 0.12330 0.74230 -0.01200
H 	H 	0.19650 0.12370 0.73630 0.05100
O 	O 	0.17005 0.63208 0.41663 -0.40300
C 	C 	0.16968 0.62819 0.48323 -0.01300
H 	H 	0.18300 0.61410 0.47200 0.06400
O 	O 	0.20980 0.62406 0.32736 -0.45000
C 	C 	0.21820 0.62330 0.24230 -0.01200
H 	H 	0.19650 0.62370 0.23630 0.05100
O 	O 	0.67005 0.13208 0.41663 -0.40300
C 	C 	0.66968 0.12819 0.48323 -0.01300
H 	H 	0.68300 0.11410 0.47200 0.06400
O 	O 	0.70980 0.12406 0.32736 -0.45000
C 	C 	0.71820 0.12330 0.24230 -0.01200
H 	H 	0.69650 0.12370 0.23630 0.05100
O 	O 	0.67005 0.63208 0.91663 -0.40400
C 	C 	0.66968 0.62819 0.98323 0.00700
H 	H 	0.68300 0.61410 0.97200 0.05800
O 	O 	0.70980 0.62406 0.82736 -0.45000
C 	C 	0.71820 0.62330 0.74230 -0.01200
H 	H 	0.69650 0.62370 0.73630 0.05100
O 	O 	0.17005 0.86792 0.08337 -0.40200
C 	C 	0.16968 0.87181 0.01677 -0.03200
H 	H 	0.18300 0.88590 0.02800 0.06900
O 	O 	0.20980 0.87594 0.17264 -0.45000
C 	C 	0.21820 0.87670 0.25770 -0.01200
H 	H 	0.19650 0.87630 0.26370 0.05100
O 	O 	0.17005 0.36792 0.58337 -0.40300
C 	C 	0.16968 0.37181 0.51677 -0.01300
H 	H 	0.18300 0.38590 0.52800 0.06400
O 	O 	0.20980 0.37594 0.67264 -0.45000
C 	C 	0.21820 0.37670 0.75770 -0.01200
H 	H 	0.19650 0.37630 0.76370 0.05100
O 	O 	0.67005 0.86792 0.58337 -0.40300
C 	C 	0.66968 0.87181 0.51677 -0.01300
H 	H 	0.68300 0.88590 0.52800 0.06400
O 	O 	0.70980 0.87594 0.67264 -0.45000
C 	C 	0.71820 0.87670 0.75770 -0.01200
H 	H 	0.69650 0.87630 0.76370 0.05100
O 	O 	0.67005 0.36792 0.08337 -0.40200
C 	C 	0.66968 0.37181 0.01677 -0.03200
H 	H 	0.68300 0.38590 0.02800 0.06900
O 	O 	0.70980 0.37594 0.17264 -0.45000
C 	C 	0.71820 0.37670 0.25770 -0.01200
H 	H 	0.69650 0.37630 0.26370 0.05100
O 	O 	0.82995 0.13208 0.08337 -0.40200
C 	C 	0.83032 0.12819 0.01677 -0.03200
H 	H 	0.81700 0.11410 0.02800 0.06900
O 	O 	0.79020 0.12406 0.17264 -0.45000
C 	C 	0.78180 0.12330 0.25770 -0.01200
H 	H 	0.80350 0.12370 0.26370 0.05100
O 	O 	0.82995 0.63208 0.58337 -0.40300
C 	C 	0.83032 0.62819 0.51677 -0.01300
H 	H 	0.81700 0.61410 0.52800 0.06400
O 	O 	0.79020 0.62406 0.67264 -0.45000
C 	C 	0.78180 0.62330 0.75770 -0.01200
H 	H 	0.80350 0.62370 0.76370 0.05100
O 	O 	0.32995 0.13208 0.58337 -0.40300
C 	C 	0.33032 0.12819 0.51677 -0.01300
H 	H 	0.31700 0.11410 0.52800 0.06400
O 	O 	0.29020 0.12406 0.67264 -0.45000
C 	C 	0.28180 0.12330 0.75770 -0.01200
H 	H 	0.30350 0.12370 0.76370 0.05100
O 	O 	0.32995 0.63208 0.08337 -0.40200
C 	C 	0.33032 0.62819 0.01677 -0.03200
H 	H 	0.31700 0.61410 0.02800 0.06900
O 	O 	0.29020 0.62406 0.17264 -0.45000
C 	C 	0.28180 0.62330 0.25770 -0.01200
H 	H 	0.30350 0.62370 0.26370 0.05100
O 	O 	0.91663 0.82995 0.86792 -0.40400
C 	C 	0.98323 0.83032 0.87181 0.00700
H 	H 	0.97200 0.81700 0.88590 0.05800
O 	O 	0.82736 0.79020 0.87594 -0.45000
C 	C 	0.74230 0.78180 0.87670 -0.01200
H 	H 	0.73630 0.80350 0.87630 0.05100
O 	O 	0.91663 0.32995 0.36792 -0.40400
C 	C 	0.98323 0.33032 0.37181 0.00700
H 	H 	0.97200 0.31700 0.38590 0.05800
O 	O 	0.82736 0.29020 0.37594 -0.45000
C 	C 	0.74230 0.28180 0.37670 -0.01200
H 	H 	0.73630 0.30350 0.37630 0.05100
O 	O 	0.41663 0.82995 0.36792 -0.40300
C 	C 	0.48323 0.83032 0.37181 -0.01300
H 	H 	0.47200 0.81700 0.38590 0.06400
O 	O 	0.32736 0.79020 0.37594 -0.45000
C 	C 	0.24230 0.78180 0.37670 -0.01200
H 	H 	0.23630 0.80350 0.37630 0.05100
O 	O 	0.41663 0.32995 0.86792 -0.40300
C 	C 	0.48323 0.33032 0.87181 -0.01300
H 	H 	0.47200 0.31700 0.88590 0.06400
O 	O 	0.32736 0.29020 0.87594 -0.45000
C 	C 	0.24230 0.28180 0.87670 -0.01200
H 	H 	0.23630 0.30350 0.87630 0.05100
O 	O 	0.91663 0.17005 0.13208 -0.40400
C 	C 	0.98323 0.16968 0.12819 0.00700
H 	H 	0.97200 0.18300 0.11410 0.05800
O 	O 	0.82736 0.20980 0.12406 -0.45000
C 	C 	0.74230 0.21820 0.12330 -0.01200
H 	H 	0.73630 0.19650 0.12370 0.05100
O 	O 	0.91663 0.67005 0.63208 -0.40400
C 	C 	0.98323 0.66968 0.62819 0.00700
H 	H 	0.97200 0.68300 0.61410 0.05800
O 	O 	0.82736 0.70980 0.62406 -0.45000
C 	C 	0.74230 0.71820 0.62330 -0.01200
H 	H 	0.73630 0.69650 0.62370 0.05100
O 	O 	0.41663 0.17005 0.63208 -0.40300
C 	C 	0.48323 0.16968 0.62819 -0.01300
H 	H 	0.47200 0.18300 0.61410 0.06400
O 	O 	0.32736 0.20980 0.62406 -0.45000
C 	C 	0.24230 0.21820 0.62330 -0.01200
H 	H 	0.23630 0.19650 0.62370 0.05100
O 	O 	0.41663 0.67005 0.13208 -0.40300
C 	C 	0.48323 0.66968 0.12819 -0.01300
H 	H 	0.47200 0.68300 0.11410 0.06400
O 	O 	0.32736 0.70980 0.12406 -0.45000
C 	C 	0.24230 0.71820 0.12330 -0.01200
H 	H 	0.23630 0.69650 0.12370 0.05100
O 	O 	0.08337 0.17005 0.86792 -0.40200
C 	C 	0.01677 0.16968 0.87181 -0.03200
H 	H 	0.02800 0.18300 0.88590 0.06900
O 	O 	0.17264 0.20980 0.87594 -0.45000
C 	C 	0.25770 0.21820 0.87670 -0.01200
H 	H 	0.26370 0.19650 0.87630 0.05100
O 	O 	0.08337 0.67005 0.36792 -0.40200
C 	C 	0.01677 0.66968 0.37181 -0.03200
H 	H 	0.02800 0.68300 0.38590 0.06900
O 	O 	0.17264 0.70980 0.37594 -0.45000
C 	C 	0.25770 0.71820 0.37670 -0.01200
H 	H 	0.26370 0.69650 0.37630 0.05100
O 	O 	0.58337 0.17005 0.36792 -0.40300
C 	C 	0.51677 0.16968 0.37181 -0.01300
H 	H 	0.52800 0.18300 0.38590 0.06400
O 	O 	0.67264 0.20980 0.37594 -0.45000
C 	C 	0.75770 0.21820 0.37670 -0.01200
H 	H 	0.76370 0.19650 0.37630 0.05100
O 	O 	0.58337 0.67005 0.86792 -0.40300
C 	C 	0.51677 0.66968 0.87181 -0.01300
H 	H 	0.52800 0.68300 0.88590 0.06400
O 	O 	0.67264 0.70980 0.87594 -0.45000
C 	C 	0.75770 0.71820 0.87670 -0.01200
H 	H 	0.76370 0.69650 0.87630 0.05100
O 	O 	0.08337 0.82995 0.13208 -0.40200
C 	C 	0.01677 0.83032 0.12819 -0.03200
H 	H 	0.02800 0.81700 0.11410 0.06900
O 	O 	0.17264 0.79020 0.12406 -0.45000
C 	C 	0.25770 0.78180 0.12330 -0.01200
H 	H 	0.26370 0.80350 0.12370 0.05100
O 	O 	0.08337 0.32995 0.63208 -0.40200
C 	C 	0.01677 0.33032 0.62819 -0.03200
H 	H 	0.02800 0.31700 0.61410 0.06900
O 	O 	0.17264 0.29020 0.62406 -0.45000
C 	C 	0.25770 0.28180 0.62330 -0.01200
H 	H 	0.26370 0.30350 0.62370 0.05100
O 	O 	0.58337 0.82995 0.63208 -0.40300
C 	C 	0.51677 0.83032 0.62819 -0.01300
H 	H 	0.52800 0.81700 0.61410 0.06400
O 	O 	0.67264 0.79020 0.62406 -0.45000
C 	C 	0.75770 0.78180 0.62330 -0.01200
H 	H 	0.76370 0.80350 0.62370 0.05100
O 	O 	0.58337 0.32995 0.13208 -0.40300
C 	C 	0.51677 0.33032 0.12819 -0.01300
H 	H 	0.52800 0.31700 0.11410 0.06400
O 	O 	0.67264 0.29020 0.12406 -0.45000
C 	C 	0.75770 0.28180 0.12330 -0.01200
H 	H 	0.76370 0.30350 0.12370 0.05100
O 	O 	0.86792 0.91663 0.82995 -0.40400
C 	C 	0.87181 0.98323 0.83032 0.00700
H 	H 	0.88590 0.97200 0.81700 0.05800
O 	O 	0.87594 0.82736 0.79020 -0.45000
C 	C 	0.87670 0.74230 0.78180 -0.01200
H 	H 	0.87630 0.73630 0.80350 0.05100
O 	O 	0.86792 0.41663 0.32995 -0.40300
C 	C 	0.87181 0.48323 0.33032 -0.01300
H 	H 	0.88590 0.47200 0.31700 0.06400
O 	O 	0.87594 0.32736 0.29020 -0.45000
C 	C 	0.87670 0.24230 0.28180 -0.01200
H 	H 	0.87630 0.23630 0.30350 0.05100
O 	O 	0.36792 0.91663 0.32995 -0.40400
C 	C 	0.37181 0.98323 0.33032 0.00700
H 	H 	0.38590 0.97200 0.31700 0.05800
O 	O 	0.37594 0.82736 0.29020 -0.45000
C 	C 	0.37670 0.74230 0.28180 -0.01200
H 	H 	0.37630 0.73630 0.30350 0.05100
O 	O 	0.36792 0.41663 0.82995 -0.40300
C 	C 	0.37181 0.48323 0.83032 -0.01300
H 	H 	0.38590 0.47200 0.81700 0.06400
O 	O 	0.37594 0.32736 0.79020 -0.45000
C 	C 	0.37670 0.24230 0.78180 -0.01200
H 	H 	0.37630 0.23630 0.80350 0.05100
O 	O 	0.13208 0.91663 0.17005 -0.40400
C 	C 	0.12819 0.98323 0.16968 0.00700
H 	H 	0.11410 0.97200 0.18300 0.05800
O 	O 	0.12406 0.82736 0.20980 -0.45000
C 	C 	0.12330 0.74230 0.21820 -0.01200
H 	H 	0.12370 0.73630 0.19650 0.05100
O 	O 	0.13208 0.41663 0.67005 -0.40300
C 	C 	0.12819 0.48323 0.66968 -0.01300
H 	H 	0.11410 0.47200 0.68300 0.06400
O 	O 	0.12406 0.32736 0.70980 -0.45000
C 	C 	0.12330 0.24230 0.71820 -0.01200
H 	H 	0.12370 0.23630 0.69650 0.05100
O 	O 	0.63208 0.91663 0.67005 -0.40400
C 	C 	0.62819 0.98323 0.66968 0.00700
H 	H 	0.61410 0.97200 0.68300 0.05800
O 	O 	0.62406 0.82736 0.70980 -0.45000
C 	C 	0.62330 0.74230 0.71820 -0.01200
H 	H 	0.62370 0.73630 0.69650 0.05100
O 	O 	0.63208 0.41663 0.17005 -0.40300
C 	C 	0.62819 0.48323 0.16968 -0.01300
H 	H 	0.61410 0.47200 0.18300 0.06400
O 	O 	0.62406 0.32736 0.20980 -0.45000
C 	C 	0.62330 0.24230 0.21820 -0.01200
H 	H 	0.62370 0.23630 0.19650 0.05100
O 	O 	0.86792 0.08337 0.17005 -0.40200
C 	C 	0.87181 0.01677 0.16968 -0.03200
H 	H 	0.88590 0.02800 0.18300 0.06900
O 	O 	0.87594 0.17264 0.20980 -0.45000
C 	C 	0.87670 0.25770 0.21820 -0.01200
H 	H 	0.87630 0.26370 0.19650 0.05100
O 	O 	0.86792 0.58337 0.67005 -0.40300
C 	C 	0.87181 0.51677 0.66968 -0.01300
H 	H 	0.88590 0.52800 0.68300 0.06400
O 	O 	0.87594 0.67264 0.70980 -0.45000
C 	C 	0.87670 0.75770 0.71820 -0.01200
H 	H 	0.87630 0.76370 0.69650 0.05100
O 	O 	0.36792 0.08337 0.67005 -0.40200
C 	C 	0.37181 0.01677 0.66968 -0.03200
H 	H 	0.38590 0.02800 0.68300 0.06900
O 	O 	0.37594 0.17264 0.70980 -0.45000
C 	C 	0.37670 0.25770 0.71820 -0.01200
H 	H 	0.37630 0.26370 0.69650 0.05100
O 	O 	0.36792 0.58337 0.17005 -0.40300
C 	C 	0.37181 0.51677 0.16968 -0.01300
H 	H 	0.38590 0.52800 0.18300 0.06400
O 	O 	0.37594 0.67264 0.20980 -0.45000
C 	C 	0.37670 0.75770 0.21820 -0.01200
H 	H 	0.37630 0.76370 0.19650 0.05100
O 	O 	0.13208 0.08337 0.82995 -0.40200
C 	C 	0.12819 0.01677 0.83032 -0.03200
H 	H 	0.11410 0.02800 0.81700 0.06900
O 	O 	0.12406 0.17264 0.79020 -0.45000
C 	C 	0.12330 0.25770 0.78180 -0.01200
H 	H 	0.12370 0.26370 0.80350 0.05100
O 	O 	0.13208 0.58337 0.32995 -0.40300
C 	C 	0.12819 0.51677 0.33032 -0.01300
H 	H 	0.11410 0.52800 0.31700 0.06400
O 	O 	0.12406 0.67264 0.29020 -0.45000
C 	C 	0.12330 0.75770 0.28180 -0.01200
H 	H 	0.12370 0.76370 0.30350 0.05100
O 	O 	0.63208 0.08337 0.32995 -0.40200
C 	C 	0.62819 0.01677 0.33032 -0.03200
H 	H 	0.61410 0.02800 0.31700 0.06900
O 	O 	0.62406 0.17264 0.29020 -0.45000
C 	C 	0.62330 0.25770 0.28180 -0.01200
H 	H 	0.62370 0.26370 0.30350 0.05100
O 	O 	0.63208 0.58337 0.82995 -0.40300
C 	C 	0.62819 0.51677 0.83032 -0.01300
H 	H 	0.61410 0.52800 0.81700 0.06400
O 	O 	0.62406 0.67264 0.79020 -0.45000
C 	C 	0.62330 0.75770 0.78180 -0.01200
H 	H 	0.62370 0.76370 0.80350 0.05100
O 	O 	0.86792 0.82995 0.08337 -0.40200
C 	C 	0.87181 0.83032 0.01677 -0.03200
H 	H 	0.88590 0.81700 0.02800 0.06900
O 	O 	0.87594 0.79020 0.17264 -0.45000
C 	C 	0.87670 0.78180 0.25770 -0.01200
H 	H 	0.87630 0.80350 0.26370 0.05100
O 	O 	0.86792 0.32995 0.58337 -0.40300
C 	C 	0.87181 0.33032 0.51677 -0.01300
H 	H 	0.88590 0.31700 0.52800 0.06400
O 	O 	0.87594 0.29020 0.67264 -0.45000
C 	C 	0.87670 0.28180 0.75770 -0.01200
H 	H 	0.87630 0.30350 0.76370 0.05100
O 	O 	0.36792 0.82995 0.58337 -0.40300
C 	C 	0.37181 0.83032 0.51677 -0.01300
H 	H 	0.38590 0.81700 0.52800 0.06400
O 	O 	0.37594 0.79020 0.67264 -0.45000
C 	C 	0.37670 0.78180 0.75770 -0.01200
H 	H 	0.37630 0.80350 0.76370 0.05100
O 	O 	0.36792 0.32995 0.08337 -0.40200
C 	C 	0.37181 0.33032 0.01677 -0.03200
H 	H 	0.38590 0.31700 0.02800 0.06900
O 	O 	0.37594 0.29020 0.17264 -0.45000
C 	C 	0.37670 0.28180 0.25770 -0.01200
H 	H 	0.37630 0.30350 0.26370 0.05100
O 	O 	0.13208 0.17005 0.08337 -0.40200
C 	C 	0.12819 0.16968 0.01677 -0.03300
H 	H 	0.11410 0.18300 0.02800 0.06900
O 	O 	0.12406 0.20980 0.17264 -0.45000
C 	C 	0.12330 0.21820 0.25770 -0.01200
H 	H 	0.12370 0.19650 0.26370 0.05100
O 	O 	0.13208 0.67005 0.58337 -0.40300
C 	C 	0.12819 0.66968 0.51677 -0.01300
H 	H 	0.11410 0.68300 0.52800 0.06400
O 	O 	0.12406 0.70980 0.67264 -0.45000
C 	C 	0.12330 0.71820 0.75770 -0.01200
H 	H 	0.12370 0.69650 0.76370 0.05100
O 	O 	0.63208 0.17005 0.58337 -0.40300
C 	C 	0.62819 0.16968 0.51677 -0.01300
H 	H 	0.61410 0.18300 0.52800 0.06400
O 	O 	0.62406 0.20980 0.67264 -0.45000
C 	C 	0.62330 0.21820 0.75770 -0.01200
H 	H 	0.62370 0.19650 0.76370 0.05100
O 	O 	0.63208 0.67005 0.08337 -0.40200
C 	C 	0.62819 0.66968 0.01677 -0.03200
H 	H 	0.61410 0.68300 0.02800 0.06900
O 	O 	0.62406 0.70980 0.17264 -0.45000
C 	C 	0.62330 0.71820 0.25770 -0.01200
H 	H 	0.62370 0.69650 0.26370 0.05100
O 	O 	0.86792 0.17005 0.91663 -0.40400
C 	C 	0.87181 0.16968 0.98323 0.00700
H 	H 	0.88590 0.18300 0.97200 0.05800
O 	O 	0.87594 0.20980 0.82736 -0.45000
C 	C 	0.87670 0.21820 0.74230 -0.01200
H 	H 	0.87630 0.19650 0.73630 0.05100
O 	O 	0.86792 0.67005 0.41663 -0.40300
C 	C 	0.87181 0.66968 0.48323 -0.01300
H 	H 	0.88590 0.68300 0.47200 0.06400
O 	O 	0.87594 0.70980 0.32736 -0.45000
C 	C 	0.87670 0.71820 0.24230 -0.01200
H 	H 	0.87630 0.69650 0.23630 0.05100
O 	O 	0.36792 0.17005 0.41663 -0.40300
C 	C 	0.37181 0.16968 0.48323 -0.01300
H 	H 	0.38590 0.18300 0.47200 0.06400
O 	O 	0.37594 0.20980 0.32736 -0.45000
C 	C 	0.37670 0.21820 0.24230 -0.01200
H 	H 	0.37630 0.19650 0.23630 0.05100
O 	O 	0.36792 0.67005 0.91663 -0.40400
C 	C 	0.37181 0.66968 0.98323 0.00700
H 	H 	0.38590 0.68300 0.97200 0.05800
O 	O 	0.37594 0.70980 0.82736 -0.45000
C 	C 	0.37670 0.71820 0.74230 -0.01200
H 	H 	0.37630 0.69650 0.73630 0.05100
O 	O 	0.13208 0.82995 0.91663 -0.40400
C 	C 	0.12819 0.83032 0.98323 0.00700
H 	H 	0.11410 0.81700 0.97200 0.05800
O 	O 	0.12406 0.79020 0.82736 -0.45000
C 	C 	0.12330 0.78180 0.74230 -0.01200
H 	H 	0.12370 0.80350 0.73630 0.05100
O 	O 	0.13208 0.32995 0.41663 -0.40300
C 	C 	0.12819 0.33032 0.48323 -0.01300
H 	H 	0.11410 0.31700 0.47200 0.06400
O 	O 	0.12406 0.29020 0.32736 -0.45000
C 	C 	0.12330 0.28180 0.24230 -0.01200
H 	H 	0.12370 0.30350 0.23630 0.05100
O 	O 	0.63208 0.82995 0.41663 -0.40300
C 	C 	0.62819 0.83032 0.48323 -0.01300
H 	H 	0.61410 0.81700 0.47200 0.06400
O 	O 	0.62406 0.79020 0.32736 -0.45000
C 	C 	0.62330 0.78180 0.24230 -0.01200
H 	H 	0.62370 0.80350 0.23630 0.05100
O 	O 	0.63208 0.32995 0.91663 -0.40400
C 	C 	0.62819 0.33032 0.98323 0.00700
H 	H 	0.61410 0.31700 0.97200 0.05800
O 	O 	0.62406 0.29020 0.82736 -0.45000
C 	C 	0.62330 0.28180 0.74230 -0.01200
H 	H 	0.62370 0.30350 0.73630 0.05100
O 	O 	0.82995 0.91663 0.13208 -0.40400
C 	C 	0.83032 0.98323 0.12819 0.00700
H 	H 	0.81700 0.97200 0.11410 0.05800
O 	O 	0.79020 0.82736 0.12406 -0.45000
C 	C 	0.78180 0.74230 0.12330 -0.01200
H 	H 	0.80350 0.73630 0.12370 0.05100
O 	O 	0.82995 0.41663 0.63208 -0.40300
C 	C 	0.83032 0.48323 0.62819 -0.01300
H 	H 	0.81700 0.47200 0.61410 0.06400
O 	O 	0.79020 0.32736 0.62406 -0.45000
C 	C 	0.78180 0.24230 0.62330 -0.01200
H 	H 	0.80350 0.23630 0.62370 0.05100
O 	O 	0.32995 0.91663 0.63208 -0.40400
C 	C 	0.33032 0.98323 0.62819 0.00700
H 	H 	0.31700 0.97200 0.61410 0.05800
O 	O 	0.29020 0.82736 0.62406 -0.45000
C 	C 	0.28180 0.74230 0.62330 -0.01200
H 	H 	0.30350 0.73630 0.62370 0.05100
O 	O 	0.32995 0.41663 0.13208 -0.40300
C 	C 	0.33032 0.48323 0.12819 -0.01300
H 	H 	0.31700 0.47200 0.11410 0.06400
O 	O 	0.29020 0.32736 0.12406 -0.45000
C 	C 	0.28180 0.24230 0.12330 -0.01200
H 	H 	0.30350 0.23630 0.12370 0.05100
O 	O 	0.17005 0.91663 0.86792 -0.40400
C 	C 	0.16968 0.98323 0.87181 0.00700
H 	H 	0.18300 0.97200 0.88590 0.05800
O 	O 	0.20980 0.82736 0.87594 -0.45000
C 	C 	0.21820 0.74230 0.87670 -0.01200
H 	H 	0.19650 0.73630 0.87630 0.05100
O 	O 	0.17005 0.41663 0.36792 -0.40300
C 	C 	0.16968 0.48323 0.37181 -0.01300
H 	H 	0.18300 0.47200 0.38590 0.06400
O 	O 	0.20980 0.32736 0.37594 -0.45000
C 	C 	0.21820 0.24230 0.37670 -0.01200
H 	H 	0.19650 0.23630 0.37630 0.05100
O 	O 	0.67005 0.91663 0.36792 -0.40400
C 	C 	0.66968 0.98323 0.37181 0.00700
H 	H 	0.68300 0.97200 0.38590 0.05800
O 	O 	0.70980 0.82736 0.37594 -0.45000
C 	C 	0.71820 0.74230 0.37670 -0.01200
H 	H 	0.69650 0.73630 0.37630 0.05100
O 	O 	0.67005 0.41663 0.86792 -0.40300
C 	C 	0.66968 0.48323 0.87181 -0.01300
H 	H 	0.68300 0.47200 0.88590 0.06400
O 	O 	0.70980 0.32736 0.87594 -0.45000
C 	C 	0.71820 0.24230 0.87670 -0.01200
H 	H 	0.69650 0.23630 0.87630 0.05100
O 	O 	0.17005 0.08337 0.13208 -0.40200
C 	C 	0.16968 0.01677 0.12819 -0.03300
H 	H 	0.18300 0.02800 0.11410 0.06900
O 	O 	0.20980 0.17264 0.12406 -0.45000
C 	C 	0.21820 0.25770 0.12330 -0.01200
H 	H 	0.19650 0.26370 0.12370 0.05100
O 	O 	0.17005 0.58337 0.63208 -0.40300
C 	C 	0.16968 0.51677 0.62819 -0.01300
H 	H 	0.18300 0.52800 0.61410 0.06400
O 	O 	0.20980 0.67264 0.62406 -0.45000
C 	C 	0.21820 0.75770 0.62330 -0.01200
H 	H 	0.19650 0.76370 0.62370 0.05100
O 	O 	0.67005 0.08337 0.63208 -0.40200
C 	C 	0.66968 0.01677 0.62819 -0.03200
H 	H 	0.68300 0.02800 0.61410 0.06900
O 	O 	0.70980 0.17264 0.62406 -0.45000
C 	C 	0.71820 0.25770 0.62330 -0.01200
H 	H 	0.69650 0.26370 0.62370 0.05100
O 	O 	0.67005 0.58337 0.13208 -0.40300
C 	C 	0.66968 0.51677 0.12819 -0.01300
H 	H 	0.68300 0.52800 0.11410 0.06400
O 	O 	0.70980 0.67264 0.12406 -0.45000
C 	C 	0.71820 0.75770 0.12330 -0.01200
H 	H 	0.69650 0.76370 0.12370 0.05100
O 	O 	0.82995 0.08337 0.86792 -0.40200
C 	C 	0.83032 0.01677 0.87181 -0.03200
H 	H 	0.81700 0.02800 0.88590 0.06900
O 	O 	0.79020 0.17264 0.87594 -0.45000
C 	C 	0.78180 0.25770 0.87670 -0.01200
H 	H 	0.80350 0.26370 0.87630 0.05100
O 	O 	0.82995 0.58337 0.36792 -0.40300
C 	C 	0.83032 0.51677 0.37181 -0.01300
H 	H 	0.81700 0.52800 0.38590 0.06400
O 	O 	0.79020 0.67264 0.37594 -0.45000
C 	C 	0.78180 0.75770 0.37670 -0.01200
H 	H 	0.80350 0.76370 0.37630 0.05100
O 	O 	0.32995 0.08337 0.36792 -0.40200
C 	C 	0.33032 0.01677 0.37181 -0.03200
H 	H 	0.31700 0.02800 0.38590 0.06900
O 	O 	0.29020 0.17264 0.37594 -0.45000
C 	C 	0.28180 0.25770 0.37670 -0.01200
H 	H 	0.30350 0.26370 0.37630 0.05100
O 	O 	0.32995 0.58337 0.86792 -0.40300
C 	C 	0.33032 0.51677 0.87181 -0.01300
H 	H 	0.31700 0.52800 0.88590 0.06400
O 	O 	0.29020 0.67264 0.87594 -0.45000
C 	C 	0.28180 0.75770 0.87670 -0.01200
H 	H 	0.30350 0.76370 0.87630 0.05100
O 	O 	0.91663 0.86792 0.17005 -0.40400
C 	C 	0.98323 0.87181 0.16968 0.00700
H 	H 	0.97200 0.88590 0.18300 0.05800
O 	O 	0.82736 0.87594 0.20980 -0.45000
C 	C 	0.74230 0.87670 0.21820 -0.01200
H 	H 	0.73630 0.87630 0.19650 0.05100
O 	O 	0.91663 0.36792 0.67005 -0.40400
C 	C 	0.98323 0.37181 0.66968 0.00700
H 	H 	0.97200 0.38590 0.68300 0.05800
O 	O 	0.82736 0.37594 0.70980 -0.45000
C 	C 	0.74230 0.37670 0.71820 -0.01200
H 	H 	0.73630 0.37630 0.69650 0.05100
O 	O 	0.41663 0.86792 0.67005 -0.40300
C 	C 	0.48323 0.87181 0.66968 -0.01300
H 	H 	0.47200 0.88590 0.68300 0.06400
O 	O 	0.32736 0.87594 0.70980 -0.45000
C 	C 	0.24230 0.87670 0.71820 -0.01200
H 	H 	0.23630 0.87630 0.69650 0.05100
O 	O 	0.41663 0.36792 0.17005 -0.40300
C 	C 	0.48323 0.37181 0.16968 -0.01300
H 	H 	0.47200 0.38590 0.18300 0.06400
O 	O 	0.32736 0.37594 0.20980 -0.45000
C 	C 	0.24230 0.37670 0.21820 -0.01200
H 	H 	0.23630 0.37630 0.19650 0.05100
O 	O 	0.91663 0.13208 0.82995 -0.40400
C 	C 	0.98323 0.12819 0.83032 0.00700
H 	H 	0.97200 0.11410 0.81700 0.05800
O 	O 	0.82736 0.12406 0.79020 -0.45000
C 	C 	0.74230 0.12330 0.78180 -0.01200
H 	H 	0.73630 0.12370 0.80350 0.05100
O 	O 	0.91663 0.63208 0.32995 -0.40400
C 	C 	0.98323 0.62819 0.33032 0.00700
H 	H 	0.97200 0.61410 0.31700 0.05800
O 	O 	0.82736 0.62406 0.29020 -0.45000
C 	C 	0.74230 0.62330 0.28180 -0.01200
H 	H 	0.73630 0.62370 0.30350 0.05100
O 	O 	0.41663 0.13208 0.32995 -0.40300
C 	C 	0.48323 0.12819 0.33032 -0.01300
H 	H 	0.47200 0.11410 0.31700 0.06400
O 	O 	0.32736 0.12406 0.29020 -0.45000
C 	C 	0.24230 0.12330 0.28180 -0.01200
H 	H 	0.23630 0.12370 0.30350 0.05100
O 	O 	0.41663 0.63208 0.82995 -0.40300
C 	C 	0.48323 0.62819 0.83032 -0.01300
H 	H 	0.47200 0.61410 0.81700 0.06400
O 	O 	0.32736 0.62406 0.79020 -0.45000
C 	C 	0.24230 0.62330 0.78180 -0.01200
H 	H 	0.23630 0.62370 0.80350 0.05100
O 	O 	0.08337 0.86792 0.82995 -0.40200
C 	C 	0.01677 0.87181 0.83032 -0.03200
H 	H 	0.02800 0.88590 0.81700 0.06900
O 	O 	0.17264 0.87594 0.79020 -0.45000
C 	C 	0.25770 0.87670 0.78180 -0.01200
H 	H 	0.26370 0.87630 0.80350 0.05100
O 	O 	0.08337 0.36792 0.32995 -0.40200
C 	C 	0.01677 0.37181 0.33032 -0.03200
H 	H 	0.02800 0.38590 0.31700 0.06900
O 	O 	0.17264 0.37594 0.29020 -0.45000
C 	C 	0.25770 0.37670 0.28180 -0.01200
H 	H 	0.26370 0.37630 0.30350 0.05100
O 	O 	0.58337 0.86792 0.32995 -0.40300
C 	C 	0.51677 0.87181 0.33032 -0.01300
H 	H 	0.52800 0.88590 0.31700 0.06400
O 	O 	0.67264 0.87594 0.29020 -0.45000
C 	C 	0.75770 0.87670 0.28180 -0.01200
H 	H 	0.76370 0.87630 0.30350 0.05100
O 	O 	0.58337 0.36792 0.82995 -0.40300
C 	C 	0.51677 0.37181 0.83032 -0.01300
H 	H 	0.52800 0.38590 0.81700 0.06400
O 	O 	0.67264 0.37594 0.79020 -0.45000
C 	C 	0.75770 0.37670 0.78180 -0.01200
H 	H 	0.76370 0.37630 0.80350 0.05100
O 	O 	0.08337 0.13208 0.17005 -0.40200
C 	C 	0.01677 0.12819 0.16968 -0.03300
H 	H 	0.02800 0.11410 0.18300 0.06900
O 	O 	0.17264 0.12406 0.20980 -0.45000
C 	C 	0.25770 0.12330 0.21820 -0.01200
H 	H 	0.26370 0.12370 0.19650 0.05100
O 	O 	0.08337 0.63208 0.67005 -0.40200
C 	C 	0.01677 0.62819 0.66968 -0.03200
H 	H 	0.02800 0.61410 0.68300 0.06900
O 	O 	0.17264 0.62406 0.70980 -0.45000
C 	C 	0.25770 0.62330 0.71820 -0.01200
H 	H 	0.26370 0.62370 0.69650 0.05100
O 	O 	0.58337 0.13208 0.67005 -0.40300
C 	C 	0.51677 0.12819 0.66968 -0.01300
H 	H 	0.52800 0.11410 0.68300 0.06400
O 	O 	0.67264 0.12406 0.70980 -0.45000
C 	C 	0.75770 0.12330 0.71820 -0.01200
H 	H 	0.76370 0.12370 0.69650 0.05100
O 	O 	0.58337 0.63208 0.17005 -0.40300
C 	C 	0.51677 0.62819 0.16968 -0.01300
H 	H 	0.52800 0.61410 0.18300 0.06400
O 	O 	0.67264 0.62406 0.20980 -0.45000
C 	C 	0.75770 0.62330 0.21820 -0.01200
H 	H 	0.76370 0.62370 0.19650 0.05100
Ni	Ni	0.18773 0.12899 0.12899 1.14100
N 	N 	0.22910 0.10840 0.10840 -0.21800
O 	O 	0.22190 0.03780 0.03780 -0.25300
C 	C 	0.28250 0.07960 0.07960 0.20200
H 	H 	0.30060 0.07020 0.07020 -0.03200
C 	C 	0.22510 0.08450 0.08450 0.16100
H 	H 	0.20440 0.07830 0.07830 0.00300
C 	C 	0.25200 0.06990 0.06990 -0.33600
O 	O 	0.26890 0.03300 0.03300 -0.41800
C 	C 	0.24830 0.05000 0.05000 0.47300
C 	C 	0.28640 0.10290 0.10290 -0.22000
H 	H 	0.30700 0.10910 0.10910 0.10700
C 	C 	0.25990 0.11710 0.11710 0.12500
H 	H 	0.26290 0.13290 0.13290 -0.00200
Ni	Ni	0.18773 0.62899 0.62899 1.14100
N 	N 	0.22910 0.60840 0.60840 -0.21700
O 	O 	0.22190 0.53780 0.53780 -0.24900
C 	C 	0.28250 0.57960 0.57960 0.20100
H 	H 	0.30060 0.57020 0.57020 -0.03000
C 	C 	0.22510 0.58450 0.58450 0.16000
H 	H 	0.20440 0.57830 0.57830 0.00400
C 	C 	0.25200 0.56990 0.56990 -0.33400
O 	O 	0.26890 0.53300 0.53300 -0.41500
C 	C 	0.24830 0.55000 0.55000 0.47200
C 	C 	0.28640 0.60290 0.60290 -0.21900
H 	H 	0.30700 0.60910 0.60910 0.10700
C 	C 	0.25990 0.61710 0.61710 0.12400
H 	H 	0.26290 0.63290 0.63290 -0.00200
Ni	Ni	0.68773 0.12899 0.62899 1.14100
N 	N 	0.72910 0.10840 0.60840 -0.21700
O 	O 	0.72190 0.03780 0.53780 -0.25100
C 	C 	0.78250 0.07960 0.57960 0.20100
H 	H 	0.80060 0.07020 0.57020 -0.03100
C 	C 	0.72510 0.08450 0.58450 0.16100
H 	H 	0.70440 0.07830 0.57830 0.00300
C 	C 	0.75200 0.06990 0.56990 -0.33500
O 	O 	0.76890 0.03300 0.53300 -0.41600
C 	C 	0.74830 0.05000 0.55000 0.47200
C 	C 	0.78640 0.10290 0.60290 -0.21900
H 	H 	0.80700 0.10910 0.60910 0.10700
C 	C 	0.75990 0.11710 0.61710 0.12500
H 	H 	0.76290 0.13290 0.63290 -0.00200
Ni	Ni	0.68773 0.62899 0.12899 1.14100
N 	N 	0.72910 0.60840 0.10840 -0.21700
O 	O 	0.72190 0.53780 0.03780 -0.25100
C 	C 	0.78250 0.57960 0.07960 0.20100
H 	H 	0.80060 0.57020 0.07020 -0.03100
C 	C 	0.72510 0.58450 0.08450 0.16100
H 	H 	0.70440 0.57830 0.07830 0.00300
C 	C 	0.75200 0.56990 0.06990 -0.33500
O 	O 	0.76890 0.53300 0.03300 -0.41600
C 	C 	0.74830 0.55000 0.05000 0.47200
C 	C 	0.78640 0.60290 0.10290 -0.21900
H 	H 	0.80700 0.60910 0.10910 0.10700
C 	C 	0.75990 0.61710 0.11710 0.12500
H 	H 	0.76290 0.63290 0.13290 -0.00200
Ni	Ni	0.81227 0.87101 0.12899 1.14100
N 	N 	0.77090 0.89160 0.10840 -0.21700
O 	O 	0.77810 0.96220 0.03780 -0.24900
C 	C 	0.71750 0.92040 0.07960 0.20100
H 	H 	0.69940 0.92980 0.07020 -0.03000
C 	C 	0.77490 0.91550 0.08450 0.16000
H 	H 	0.79560 0.92170 0.07830 0.00400
C 	C 	0.74800 0.93010 0.06990 -0.33300
O 	O 	0.73110 0.96700 0.03300 -0.41400
C 	C 	0.75170 0.95000 0.05000 0.47100
C 	C 	0.71360 0.89710 0.10290 -0.21800
H 	H 	0.69300 0.89090 0.10910 0.10700
C 	C 	0.74010 0.88290 0.11710 0.12400
H 	H 	0.73710 0.86710 0.13290 -0.00200
Ni	Ni	0.81227 0.37101 0.62899 1.14100
N 	N 	0.77090 0.39160 0.60840 -0.21700
O 	O 	0.77810 0.46220 0.53780 -0.24900
C 	C 	0.71750 0.42040 0.57960 0.20100
H 	H 	0.69940 0.42980 0.57020 -0.03000
C 	C 	0.77490 0.41550 0.58450 0.16000
H 	H 	0.79560 0.42170 0.57830 0.00400
C 	C 	0.74800 0.43010 0.56990 -0.33300
O 	O 	0.73110 0.46700 0.53300 -0.41500
C 	C 	0.75170 0.45000 0.55000 0.47200
C 	C 	0.71360 0.39710 0.60290 -0.21900
H 	H 	0.69300 0.39090 0.60910 0.10700
C 	C 	0.74010 0.38290 0.61710 0.12400
H 	H 	0.73710 0.36710 0.63290 -0.00200
Ni	Ni	0.31227 0.87101 0.62899 1.14100
N 	N 	0.27090 0.89160 0.60840 -0.21700
O 	O 	0.27810 0.96220 0.53780 -0.24700
C 	C 	0.21750 0.92040 0.57960 0.20000
H 	H 	0.19940 0.92980 0.57020 -0.02900
C 	C 	0.27490 0.91550 0.58450 0.16000
H 	H 	0.29560 0.92170 0.57830 0.00400
C 	C 	0.24800 0.93010 0.56990 -0.33200
O 	O 	0.23110 0.96700 0.53300 -0.41300
C 	C 	0.25170 0.95000 0.55000 0.47100
C 	C 	0.21360 0.89710 0.60290 -0.21800
H 	H 	0.19300 0.89090 0.60910 0.10700
C 	C 	0.24010 0.88290 0.61710 0.12400
H 	H 	0.23710 0.86710 0.63290 -0.00200
Ni	Ni	0.31227 0.37101 0.12899 1.14100
N 	N 	0.27090 0.39160 0.10840 -0.21700
O 	O 	0.27810 0.46220 0.03780 -0.25100
C 	C 	0.21750 0.42040 0.07960 0.20100
H 	H 	0.19940 0.42980 0.07020 -0.03100
C 	C 	0.27490 0.41550 0.08450 0.16100
H 	H 	0.29560 0.42170 0.07830 0.00300
C 	C 	0.24800 0.43010 0.06990 -0.33500
O 	O 	0.23110 0.46700 0.03300 -0.41700
C 	C 	0.25170 0.45000 0.05000 0.47200
C 	C 	0.21360 0.39710 0.10290 -0.21900
H 	H 	0.19300 0.39090 0.10910 0.10700
C 	C 	0.24010 0.38290 0.11710 0.12500
H 	H 	0.23710 0.36710 0.13290 -0.00200
Ni	Ni	0.81227 0.12899 0.87101 1.14100
N 	N 	0.77090 0.10840 0.89160 -0.21700
O 	O 	0.77810 0.03780 0.96220 -0.24900
C 	C 	0.71750 0.07960 0.92040 0.20100
H 	H 	0.69940 0.07020 0.92980 -0.03000
C 	C 	0.77490 0.08450 0.91550 0.16000
H 	H 	0.79560 0.07830 0.92170 0.00400
C 	C 	0.74800 0.06990 0.93010 -0.33300
O 	O 	0.73110 0.03300 0.96700 -0.41400
C 	C 	0.75170 0.05000 0.95000 0.47100
C 	C 	0.71360 0.10290 0.89710 -0.21800
H 	H 	0.69300 0.10910 0.89090 0.10700
C 	C 	0.74010 0.11710 0.88290 0.12400
H 	H 	0.73710 0.13290 0.86710 -0.00200
Ni	Ni	0.81227 0.62899 0.37101 1.14100
N 	N 	0.77090 0.60840 0.39160 -0.21700
O 	O 	0.77810 0.53780 0.46220 -0.24900
C 	C 	0.71750 0.57960 0.42040 0.20100
H 	H 	0.69940 0.57020 0.42980 -0.03000
C 	C 	0.77490 0.58450 0.41550 0.16000
H 	H 	0.79560 0.57830 0.42170 0.00400
C 	C 	0.74800 0.56990 0.43010 -0.33300
O 	O 	0.73110 0.53300 0.46700 -0.41500
C 	C 	0.75170 0.55000 0.45000 0.47200
C 	C 	0.71360 0.60290 0.39710 -0.21900
H 	H 	0.69300 0.60910 0.39090 0.10700
C 	C 	0.74010 0.61710 0.38290 0.12400
H 	H 	0.73710 0.63290 0.36710 -0.00200
Ni	Ni	0.31227 0.12899 0.37101 1.14100
N 	N 	0.27090 0.10840 0.39160 -0.21700
O 	O 	0.27810 0.03780 0.46220 -0.25100
C 	C 	0.21750 0.07960 0.42040 0.20100
H 	H 	0.19940 0.07020 0.42980 -0.03100
C 	C 	0.27490 0.08450 0.41550 0.16100
H 	H 	0.29560 0.07830 0.42170 0.00300
C 	C 	0.24800 0.06990 0.43010 -0.33500
O 	O 	0.23110 0.03300 0.46700 -0.41700
C 	C 	0.25170 0.05000 0.45000 0.47200
C 	C 	0.21360 0.10290 0.39710 -0.21900
H 	H 	0.19300 0.10910 0.39090 0.10700
C 	C 	0.24010 0.11710 0.38290 0.12500
H 	H 	0.23710 0.13290 0.36710 -0.00200
Ni	Ni	0.31227 0.62899 0.87101 1.14100
N 	N 	0.27090 0.60840 0.89160 -0.21700
O 	O 	0.27810 0.53780 0.96220 -0.24700
C 	C 	0.21750 0.57960 0.92040 0.20000
H 	H 	0.19940 0.57020 0.92980 -0.02900
C 	C 	0.27490 0.58450 0.91550 0.16000
H 	H 	0.29560 0.57830 0.92170 0.00400
C 	C 	0.24800 0.56990 0.93010 -0.33200
O 	O 	0.23110 0.53300 0.96700 -0.41300
C 	C 	0.25170 0.55000 0.95000 0.47100
C 	C 	0.21360 0.60290 0.89710 -0.21800
H 	H 	0.19300 0.60910 0.89090 0.10700
C 	C 	0.24010 0.61710 0.88290 0.12400
H 	H 	0.23710 0.63290 0.86710 -0.00200
Ni	Ni	0.18773 0.87101 0.87101 1.14100
N 	N 	0.22910 0.89160 0.89160 -0.21700
O 	O 	0.22190 0.96220 0.96220 -0.24600
C 	C 	0.28250 0.92040 0.92040 0.20000
H 	H 	0.30060 0.92980 0.92980 -0.02800
C 	C 	0.22510 0.91550 0.91550 0.16000
H 	H 	0.20440 0.92170 0.92170 0.00500
C 	C 	0.25200 0.93010 0.93010 -0.33000
O 	O 	0.26890 0.96700 0.96700 -0.41000
C 	C 	0.24830 0.95000 0.95000 0.46900
C 	C 	0.28640 0.89710 0.89710 -0.21700
H 	H 	0.30700 0.89090 0.89090 0.10700
C 	C 	0.25990 0.88290 0.88290 0.12400
H 	H 	0.26290 0.86710 0.86710 -0.00200
Ni	Ni	0.18773 0.37101 0.37101 1.14100
N 	N 	0.22910 0.39160 0.39160 -0.21700
O 	O 	0.22190 0.46220 0.46220 -0.24900
C 	C 	0.28250 0.42040 0.42040 0.20100
H 	H 	0.30060 0.42980 0.42980 -0.03000
C 	C 	0.22510 0.41550 0.41550 0.16000
H 	H 	0.20440 0.42170 0.42170 0.00400
C 	C 	0.25200 0.43010 0.43010 -0.33400
O 	O 	0.26890 0.46700 0.46700 -0.41500
C 	C 	0.24830 0.45000 0.45000 0.47200
C 	C 	0.28640 0.39710 0.39710 -0.21900
H 	H 	0.30700 0.39090 0.39090 0.10700
C 	C 	0.25990 0.38290 0.38290 0.12500
H 	H 	0.26290 0.36710 0.36710 -0.00200
Ni	Ni	0.68773 0.87101 0.37101 1.14100
N 	N 	0.72910 0.89160 0.39160 -0.21700
O 	O 	0.72190 0.96220 0.46220 -0.24700
C 	C 	0.78250 0.92040 0.42040 0.20000
H 	H 	0.80060 0.92980 0.42980 -0.02900
C 	C 	0.72510 0.91550 0.41550 0.16000
H 	H 	0.70440 0.92170 0.42170 0.00400
C 	C 	0.75200 0.93010 0.43010 -0.33200
O 	O 	0.76890 0.96700 0.46700 -0.41300
C 	C 	0.74830 0.95000 0.45000 0.47100
C 	C 	0.78640 0.89710 0.39710 -0.21800
H 	H 	0.80700 0.89090 0.39090 0.10700
C 	C 	0.75990 0.88290 0.38290 0.12400
H 	H 	0.76290 0.86710 0.36710 -0.00200
Ni	Ni	0.68773 0.37101 0.87101 1.14100
N 	N 	0.72910 0.39160 0.89160 -0.21700
O 	O 	0.72190 0.46220 0.96220 -0.24700
C 	C 	0.78250 0.42040 0.92040 0.20000
H 	H 	0.80060 0.42980 0.92980 -0.02900
C 	C 	0.72510 0.41550 0.91550 0.16000
H 	H 	0.70440 0.42170 0.92170 0.00400
C 	C 	0.75200 0.43010 0.93010 -0.33200
O 	O 	0.76890 0.46700 0.96700 -0.41300
C 	C 	0.74830 0.45000 0.95000 0.47100
C 	C 	0.78640 0.39710 0.89710 -0.21800
H 	H 	0.80700 0.39090 0.89090 0.10700
C 	C 	0.75990 0.38290 0.88290 0.12400
H 	H 	0.76290 0.36710 0.86710 -0.00200
Ni	Ni	0.12899 0.18773 0.12899 1.14100
N 	N 	0.10840 0.22910 0.10840 -0.21800
O 	O 	0.03780 0.22190 0.03780 -0.25300
C 	C 	0.07960 0.28250 0.07960 0.20200
H 	H 	0.07020 0.30060 0.07020 -0.03200
C 	C 	0.08450 0.22510 0.08450 0.16100
H 	H 	0.07830 0.20440 0.07830 0.00300
C 	C 	0.06990 0.25200 0.06990 -0.33600
O 	O 	0.03300 0.26890 0.03300 -0.41800
C 	C 	0.05000 0.24830 0.05000 0.47300
C 	C 	0.10290 0.28640 0.10290 -0.22000
H 	H 	0.10910 0.30700 0.10910 0.10700
C 	C 	0.11710 0.25990 0.11710 0.12500
H 	H 	0.13290 0.26290 0.13290 -0.00200
Ni	Ni	0.12899 0.68773 0.62899 1.14100
N 	N 	0.10840 0.72910 0.60840 -0.21700
O 	O 	0.03780 0.72190 0.53780 -0.25100
C 	C 	0.07960 0.78250 0.57960 0.20100
H 	H 	0.07020 0.80060 0.57020 -0.03100
C 	C 	0.08450 0.72510 0.58450 0.16100
H 	H 	0.07830 0.70440 0.57830 0.00300
C 	C 	0.06990 0.75200 0.56990 -0.33500
O 	O 	0.03300 0.76890 0.53300 -0.41600
C 	C 	0.05000 0.74830 0.55000 0.47200
C 	C 	0.10290 0.78640 0.60290 -0.21900
H 	H 	0.10910 0.80700 0.60910 0.10700
C 	C 	0.11710 0.75990 0.61710 0.12500
H 	H 	0.13290 0.76290 0.63290 -0.00200
Ni	Ni	0.62899 0.18773 0.62899 1.14100
N 	N 	0.60840 0.22910 0.60840 -0.21700
O 	O 	0.53780 0.22190 0.53780 -0.24900
C 	C 	0.57960 0.28250 0.57960 0.20100
H 	H 	0.57020 0.30060 0.57020 -0.03000
C 	C 	0.58450 0.22510 0.58450 0.16000
H 	H 	0.57830 0.20440 0.57830 0.00400
C 	C 	0.56990 0.25200 0.56990 -0.33400
O 	O 	0.53300 0.26890 0.53300 -0.41500
C 	C 	0.55000 0.24830 0.55000 0.47200
C 	C 	0.60290 0.28640 0.60290 -0.21900
H 	H 	0.60910 0.30700 0.60910 0.10700
C 	C 	0.61710 0.25990 0.61710 0.12400
H 	H 	0.63290 0.26290 0.63290 -0.00200
Ni	Ni	0.62899 0.68773 0.12899 1.14100
N 	N 	0.60840 0.72910 0.10840 -0.21700
O 	O 	0.53780 0.72190 0.03780 -0.25100
C 	C 	0.57960 0.78250 0.07960 0.20100
H 	H 	0.57020 0.80060 0.07020 -0.03100
C 	C 	0.58450 0.72510 0.08450 0.16100
H 	H 	0.57830 0.70440 0.07830 0.00300
C 	C 	0.56990 0.75200 0.06990 -0.33500
O 	O 	0.53300 0.76890 0.03300 -0.41600
C 	C 	0.55000 0.74830 0.05000 0.47200
C 	C 	0.60290 0.78640 0.10290 -0.21900
H 	H 	0.60910 0.80700 0.10910 0.10700
C 	C 	0.61710 0.75990 0.11710 0.12500
H 	H 	0.63290 0.76290 0.13290 -0.00200
Ni	Ni	0.12899 0.81227 0.87101 1.14100
N 	N 	0.10840 0.77090 0.89160 -0.21700
O 	O 	0.03780 0.77810 0.96220 -0.24900
C 	C 	0.07960 0.71750 0.92040 0.20100
H 	H 	0.07020 0.69940 0.92980 -0.03000
C 	C 	0.08450 0.77490 0.91550 0.16000
H 	H 	0.07830 0.79560 0.92170 0.00400
C 	C 	0.06990 0.74800 0.93010 -0.33300
O 	O 	0.03300 0.73110 0.96700 -0.41400
C 	C 	0.05000 0.75170 0.95000 0.47100
C 	C 	0.10290 0.71360 0.89710 -0.21800
H 	H 	0.10910 0.69300 0.89090 0.10700
C 	C 	0.11710 0.74010 0.88290 0.12400
H 	H 	0.13290 0.73710 0.86710 -0.00200
Ni	Ni	0.12899 0.31227 0.37101 1.14100
N 	N 	0.10840 0.27090 0.39160 -0.21700
O 	O 	0.03780 0.27810 0.46220 -0.25100
C 	C 	0.07960 0.21750 0.42040 0.20100
H 	H 	0.07020 0.19940 0.42980 -0.03100
C 	C 	0.08450 0.27490 0.41550 0.16100
H 	H 	0.07830 0.29560 0.42170 0.00300
C 	C 	0.06990 0.24800 0.43010 -0.33500
O 	O 	0.03300 0.23110 0.46700 -0.41700
C 	C 	0.05000 0.25170 0.45000 0.47200
C 	C 	0.10290 0.21360 0.39710 -0.21900
H 	H 	0.10910 0.19300 0.39090 0.10700
C 	C 	0.11710 0.24010 0.38290 0.12500
H 	H 	0.13290 0.23710 0.36710 -0.00200
Ni	Ni	0.62899 0.81227 0.37101 1.14100
N 	N 	0.60840 0.77090 0.39160 -0.21700
O 	O 	0.53780 0.77810 0.46220 -0.24900
C 	C 	0.57960 0.71750 0.42040 0.20100
H 	H 	0.57020 0.69940 0.42980 -0.03000
C 	C 	0.58450 0.77490 0.41550 0.16000
H 	H 	0.57830 0.79560 0.42170 0.00400
C 	C 	0.56990 0.74800 0.43010 -0.33300
O 	O 	0.53300 0.73110 0.46700 -0.41500
C 	C 	0.55000 0.75170 0.45000 0.47200
C 	C 	0.60290 0.71360 0.39710 -0.21900
H 	H 	0.60910 0.69300 0.39090 0.10700
C 	C 	0.61710 0.74010 0.38290 0.12400
H 	H 	0.63290 0.73710 0.36710 -0.00200
Ni	Ni	0.62899 0.31227 0.87101 1.14100
N 	N 	0.60840 0.27090 0.89160 -0.21700
O 	O 	0.53780 0.27810 0.96220 -0.24700
C 	C 	0.57960 0.21750 0.92040 0.20000
H 	H 	0.57020 0.19940 0.92980 -0.02900
C 	C 	0.58450 0.27490 0.91550 0.16000
H 	H 	0.57830 0.29560 0.92170 0.00400
C 	C 	0.56990 0.24800 0.93010 -0.33200
O 	O 	0.53300 0.23110 0.96700 -0.41300
C 	C 	0.55000 0.25170 0.95000 0.47100
C 	C 	0.60290 0.21360 0.89710 -0.21800
H 	H 	0.60910 0.19300 0.89090 0.10700
C 	C 	0.61710 0.24010 0.88290 0.12400
H 	H 	0.63290 0.23710 0.86710 -0.00200
Ni	Ni	0.87101 0.81227 0.12899 1.14100
N 	N 	0.89160 0.77090 0.10840 -0.21700
O 	O 	0.96220 0.77810 0.03780 -0.24900
C 	C 	0.92040 0.71750 0.07960 0.20100
H 	H 	0.92980 0.69940 0.07020 -0.03000
C 	C 	0.91550 0.77490 0.08450 0.16000
H 	H 	0.92170 0.79560 0.07830 0.00400
C 	C 	0.93010 0.74800 0.06990 -0.33300
O 	O 	0.96700 0.73110 0.03300 -0.41400
C 	C 	0.95000 0.75170 0.05000 0.47100
C 	C 	0.89710 0.71360 0.10290 -0.21800
H 	H 	0.89090 0.69300 0.10910 0.10700
C 	C 	0.88290 0.74010 0.11710 0.12400
H 	H 	0.86710 0.73710 0.13290 -0.00200
Ni	Ni	0.87101 0.31227 0.62899 1.14100
N 	N 	0.89160 0.27090 0.60840 -0.21700
O 	O 	0.96220 0.27810 0.53780 -0.24700
C 	C 	0.92040 0.21750 0.57960 0.20000
H 	H 	0.92980 0.19940 0.57020 -0.02900
C 	C 	0.91550 0.27490 0.58450 0.16000
H 	H 	0.92170 0.29560 0.57830 0.00400
C 	C 	0.93010 0.24800 0.56990 -0.33200
O 	O 	0.96700 0.23110 0.53300 -0.41300
C 	C 	0.95000 0.25170 0.55000 0.47100
C 	C 	0.89710 0.21360 0.60290 -0.21800
H 	H 	0.89090 0.19300 0.60910 0.10700
C 	C 	0.88290 0.24010 0.61710 0.12400
H 	H 	0.86710 0.23710 0.63290 -0.00200
Ni	Ni	0.37101 0.81227 0.62899 1.14100
N 	N 	0.39160 0.77090 0.60840 -0.21700
O 	O 	0.46220 0.77810 0.53780 -0.24900
C 	C 	0.42040 0.71750 0.57960 0.20100
H 	H 	0.42980 0.69940 0.57020 -0.03000
C 	C 	0.41550 0.77490 0.58450 0.16000
H 	H 	0.42170 0.79560 0.57830 0.00400
C 	C 	0.43010 0.74800 0.56990 -0.33300
O 	O 	0.46700 0.73110 0.53300 -0.41500
C 	C 	0.45000 0.75170 0.55000 0.47200
C 	C 	0.39710 0.71360 0.60290 -0.21900
H 	H 	0.39090 0.69300 0.60910 0.10700
C 	C 	0.38290 0.74010 0.61710 0.12400
H 	H 	0.36710 0.73710 0.63290 -0.00200
Ni	Ni	0.37101 0.31227 0.12899 1.14100
N 	N 	0.39160 0.27090 0.10840 -0.21700
O 	O 	0.46220 0.27810 0.03780 -0.25100
C 	C 	0.42040 0.21750 0.07960 0.20100
H 	H 	0.42980 0.19940 0.07020 -0.03100
C 	C 	0.41550 0.27490 0.08450 0.16100
H 	H 	0.42170 0.29560 0.07830 0.00300
C 	C 	0.43010 0.24800 0.06990 -0.33500
O 	O 	0.46700 0.23110 0.03300 -0.41700
C 	C 	0.45000 0.25170 0.05000 0.47200
C 	C 	0.39710 0.21360 0.10290 -0.21900
H 	H 	0.39090 0.19300 0.10910 0.10700
C 	C 	0.38290 0.24010 0.11710 0.12500
H 	H 	0.36710 0.23710 0.13290 -0.00200
Ni	Ni	0.87101 0.18773 0.87101 1.14100
N 	N 	0.89160 0.22910 0.89160 -0.21700
O 	O 	0.96220 0.22190 0.96220 -0.24600
C 	C 	0.92040 0.28250 0.92040 0.20000
H 	H 	0.92980 0.30060 0.92980 -0.02800
C 	C 	0.91550 0.22510 0.91550 0.16000
H 	H 	0.92170 0.20440 0.92170 0.00500
C 	C 	0.93010 0.25200 0.93010 -0.33000
O 	O 	0.96700 0.26890 0.96700 -0.41000
C 	C 	0.95000 0.24830 0.95000 0.46900
C 	C 	0.89710 0.28640 0.89710 -0.21700
H 	H 	0.89090 0.30700 0.89090 0.10700
C 	C 	0.88290 0.25990 0.88290 0.12400
H 	H 	0.86710 0.26290 0.86710 -0.00200
Ni	Ni	0.87101 0.68773 0.37101 1.14100
N 	N 	0.89160 0.72910 0.39160 -0.21700
O 	O 	0.96220 0.72190 0.46220 -0.24700
C 	C 	0.92040 0.78250 0.42040 0.20000
H 	H 	0.92980 0.80060 0.42980 -0.02900
C 	C 	0.91550 0.72510 0.41550 0.16000
H 	H 	0.92170 0.70440 0.42170 0.00400
C 	C 	0.93010 0.75200 0.43010 -0.33200
O 	O 	0.96700 0.76890 0.46700 -0.41300
C 	C 	0.95000 0.74830 0.45000 0.47100
C 	C 	0.89710 0.78640 0.39710 -0.21800
H 	H 	0.89090 0.80700 0.39090 0.10700
C 	C 	0.88290 0.75990 0.38290 0.12400
H 	H 	0.86710 0.76290 0.36710 -0.00200
Ni	Ni	0.37101 0.18773 0.37101 1.14100
N 	N 	0.39160 0.22910 0.39160 -0.21700
O 	O 	0.46220 0.22190 0.46220 -0.24900
C 	C 	0.42040 0.28250 0.42040 0.20100
H 	H 	0.42980 0.30060 0.42980 -0.03000
C 	C 	0.41550 0.22510 0.41550 0.16000
H 	H 	0.42170 0.20440 0.42170 0.00400
C 	C 	0.43010 0.25200 0.43010 -0.33400
O 	O 	0.46700 0.26890 0.46700 -0.41500
C 	C 	0.45000 0.24830 0.45000 0.47200
C 	C 	0.39710 0.28640 0.39710 -0.21900
H 	H 	0.39090 0.30700 0.39090 0.10700
C 	C 	0.38290 0.25990 0.38290 0.12500
H 	H 	0.36710 0.26290 0.36710 -0.00200
Ni	Ni	0.37101 0.68773 0.87101 1.14100
N 	N 	0.39160 0.72910 0.89160 -0.21700
O 	O 	0.46220 0.72190 0.96220 -0.24700
C 	C 	0.42040 0.78250 0.92040 0.20000
H 	H 	0.42980 0.80060 0.92980 -0.02900
C 	C 	0.41550 0.72510 0.91550 0.16000
H 	H 	0.42170 0.70440 0.92170 0.00400
C 	C 	0.43010 0.75200 0.93010 -0.33200
O 	O 	0.46700 0.76890 0.96700 -0.41300
C 	C 	0.45000 0.74830 0.95000 0.47100
C 	C 	0.39710 0.78640 0.89710 -0.21800
H 	H 	0.39090 0.80700 0.89090 0.10700
C 	C 	0.38290 0.75990 0.88290 0.12400
H 	H 	0.36710 0.76290 0.86710 -0.00200
Ni	Ni	0.12899 0.12899 0.18773 1.14100
N 	N 	0.10840 0.10840 0.22910 -0.21800
O 	O 	0.03780 0.03780 0.22190 -0.25300
C 	C 	0.07960 0.07960 0.28250 0.20200
H 	H 	0.07020 0.07020 0.30060 -0.03200
C 	C 	0.08450 0.08450 0.22510 0.16100
H 	H 	0.07830 0.07830 0.20440 0.00300
C 	C 	0.06990 0.06990 0.25200 -0.33600
O 	O 	0.03300 0.03300 0.26890 -0.41800
C 	C 	0.05000 0.05000 0.24830 0.47300
C 	C 	0.10290 0.10290 0.28640 -0.22000
H 	H 	0.10910 0.10910 0.30700 0.10700
C 	C 	0.11710 0.11710 0.25990 0.12500
H 	H 	0.13290 0.13290 0.26290 -0.00200
Ni	Ni	0.12899 0.62899 0.68773 1.14100
N 	N 	0.10840 0.60840 0.72910 -0.21700
O 	O 	0.03780 0.53780 0.72190 -0.25100
C 	C 	0.07960 0.57960 0.78250 0.20100
H 	H 	0.07020 0.57020 0.80060 -0.03100
C 	C 	0.08450 0.58450 0.72510 0.16100
H 	H 	0.07830 0.57830 0.70440 0.00300
C 	C 	0.06990 0.56990 0.75200 -0.33500
O 	O 	0.03300 0.53300 0.76890 -0.41600
C 	C 	0.05000 0.55000 0.74830 0.47200
C 	C 	0.10290 0.60290 0.78640 -0.21900
H 	H 	0.10910 0.60910 0.80700 0.10700
C 	C 	0.11710 0.61710 0.75990 0.12500
H 	H 	0.13290 0.63290 0.76290 -0.00200
Ni	Ni	0.62899 0.12899 0.68773 1.14100
N 	N 	0.60840 0.10840 0.72910 -0.21700
O 	O 	0.53780 0.03780 0.72190 -0.25100
C 	C 	0.57960 0.07960 0.78250 0.20100
H 	H 	0.57020 0.07020 0.80060 -0.03100
C 	C 	0.58450 0.08450 0.72510 0.16100
H 	H 	0.57830 0.07830 0.70440 0.00300
C 	C 	0.56990 0.06990 0.75200 -0.33500
O 	O 	0.53300 0.03300 0.76890 -0.41600
C 	C 	0.55000 0.05000 0.74830 0.47200
C 	C 	0.60290 0.10290 0.78640 -0.21900
H 	H 	0.60910 0.10910 0.80700 0.10700
C 	C 	0.61710 0.11710 0.75990 0.12500
H 	H 	0.63290 0.13290 0.76290 -0.00200
Ni	Ni	0.62899 0.62899 0.18773 1.14100
N 	N 	0.60840 0.60840 0.22910 -0.21700
O 	O 	0.53780 0.53780 0.22190 -0.24900
C 	C 	0.57960 0.57960 0.28250 0.20100
H 	H 	0.57020 0.57020 0.30060 -0.03000
C 	C 	0.58450 0.58450 0.22510 0.16000
H 	H 	0.57830 0.57830 0.20440 0.00400
C 	C 	0.56990 0.56990 0.25200 -0.33400
O 	O 	0.53300 0.53300 0.26890 -0.41500
C 	C 	0.55000 0.55000 0.24830 0.47200
C 	C 	0.60290 0.60290 0.28640 -0.21900
H 	H 	0.60910 0.60910 0.30700 0.10700
C 	C 	0.61710 0.61710 0.25990 0.12400
H 	H 	0.63290 0.63290 0.26290 -0.00200
Ni	Ni	0.87101 0.12899 0.81227 1.14100
N 	N 	0.89160 0.10840 0.77090 -0.21700
O 	O 	0.96220 0.03780 0.77810 -0.24900
C 	C 	0.92040 0.07960 0.71750 0.20100
H 	H 	0.92980 0.07020 0.69940 -0.03000
C 	C 	0.91550 0.08450 0.77490 0.16000
H 	H 	0.92170 0.07830 0.79560 0.00400
C 	C 	0.93010 0.06990 0.74800 -0.33300
O 	O 	0.96700 0.03300 0.73110 -0.41400
C 	C 	0.95000 0.05000 0.75170 0.47100
C 	C 	0.89710 0.10290 0.71360 -0.21800
H 	H 	0.89090 0.10910 0.69300 0.10700
C 	C 	0.88290 0.11710 0.74010 0.12400
H 	H 	0.86710 0.13290 0.73710 -0.00200
Ni	Ni	0.87101 0.62899 0.31227 1.14100
N 	N 	0.89160 0.60840 0.27090 -0.21700
O 	O 	0.96220 0.53780 0.27810 -0.24700
C 	C 	0.92040 0.57960 0.21750 0.20000
H 	H 	0.92980 0.57020 0.19940 -0.02900
C 	C 	0.91550 0.58450 0.27490 0.16000
H 	H 	0.92170 0.57830 0.29560 0.00400
C 	C 	0.93010 0.56990 0.24800 -0.33200
O 	O 	0.96700 0.53300 0.23110 -0.41300
C 	C 	0.95000 0.55000 0.25170 0.47100
C 	C 	0.89710 0.60290 0.21360 -0.21800
H 	H 	0.89090 0.60910 0.19300 0.10700
C 	C 	0.88290 0.61710 0.24010 0.12400
H 	H 	0.86710 0.63290 0.23710 -0.00200
Ni	Ni	0.37101 0.12899 0.31227 1.14100
N 	N 	0.39160 0.10840 0.27090 -0.21700
O 	O 	0.46220 0.03780 0.27810 -0.25100
C 	C 	0.42040 0.07960 0.21750 0.20100
H 	H 	0.42980 0.07020 0.19940 -0.03100
C 	C 	0.41550 0.08450 0.27490 0.16100
H 	H 	0.42170 0.07830 0.29560 0.00300
C 	C 	0.43010 0.06990 0.24800 -0.33500
O 	O 	0.46700 0.03300 0.23110 -0.41700
C 	C 	0.45000 0.05000 0.25170 0.47200
C 	C 	0.39710 0.10290 0.21360 -0.21900
H 	H 	0.39090 0.10910 0.19300 0.10700
C 	C 	0.38290 0.11710 0.24010 0.12500
H 	H 	0.36710 0.13290 0.23710 -0.00200
Ni	Ni	0.37101 0.62899 0.81227 1.14100
N 	N 	0.39160 0.60840 0.77090 -0.21700
O 	O 	0.46220 0.53780 0.77810 -0.24900
C 	C 	0.42040 0.57960 0.71750 0.20100
H 	H 	0.42980 0.57020 0.69940 -0.03000
C 	C 	0.41550 0.58450 0.77490 0.16000
H 	H 	0.42170 0.57830 0.79560 0.00400
C 	C 	0.43010 0.56990 0.74800 -0.33300
O 	O 	0.46700 0.53300 0.73110 -0.41500
C 	C 	0.45000 0.55000 0.75170 0.47200
C 	C 	0.39710 0.60290 0.71360 -0.21900
H 	H 	0.39090 0.60910 0.69300 0.10700
C 	C 	0.38290 0.61710 0.74010 0.12400
H 	H 	0.36710 0.63290 0.73710 -0.00200
Ni	Ni	0.12899 0.87101 0.81227 1.14100
N 	N 	0.10840 0.89160 0.77090 -0.21700
O 	O 	0.03780 0.96220 0.77810 -0.24900
C 	C 	0.07960 0.92040 0.71750 0.20100
H 	H 	0.07020 0.92980 0.69940 -0.03000
C 	C 	0.08450 0.91550 0.77490 0.16000
H 	H 	0.07830 0.92170 0.79560 0.00400
C 	C 	0.06990 0.93010 0.74800 -0.33300
O 	O 	0.03300 0.96700 0.73110 -0.41400
C 	C 	0.05000 0.95000 0.75170 0.47100
C 	C 	0.10290 0.89710 0.71360 -0.21800
H 	H 	0.10910 0.89090 0.69300 0.10700
C 	C 	0.11710 0.88290 0.74010 0.12400
H 	H 	0.13290 0.86710 0.73710 -0.00200
Ni	Ni	0.12899 0.37101 0.31227 1.14100
N 	N 	0.10840 0.39160 0.27090 -0.21700
O 	O 	0.03780 0.46220 0.27810 -0.25100
C 	C 	0.07960 0.42040 0.21750 0.20100
H 	H 	0.07020 0.42980 0.19940 -0.03100
C 	C 	0.08450 0.41550 0.27490 0.16100
H 	H 	0.07830 0.42170 0.29560 0.00300
C 	C 	0.06990 0.43010 0.24800 -0.33500
O 	O 	0.03300 0.46700 0.23110 -0.41700
C 	C 	0.05000 0.45000 0.25170 0.47200
C 	C 	0.10290 0.39710 0.21360 -0.21900
H 	H 	0.10910 0.39090 0.19300 0.10700
C 	C 	0.11710 0.38290 0.24010 0.12500
H 	H 	0.13290 0.36710 0.23710 -0.00200
Ni	Ni	0.62899 0.87101 0.31227 1.14100
N 	N 	0.60840 0.89160 0.27090 -0.21700
O 	O 	0.53780 0.96220 0.27810 -0.24700
C 	C 	0.57960 0.92040 0.21750 0.20000
H 	H 	0.57020 0.92980 0.19940 -0.02900
C 	C 	0.58450 0.91550 0.27490 0.16000
H 	H 	0.57830 0.92170 0.29560 0.00400
C 	C 	0.56990 0.93010 0.24800 -0.33200
O 	O 	0.53300 0.96700 0.23110 -0.41300
C 	C 	0.55000 0.95000 0.25170 0.47100
C 	C 	0.60290 0.89710 0.21360 -0.21800
H 	H 	0.60910 0.89090 0.19300 0.10700
C 	C 	0.61710 0.88290 0.24010 0.12400
H 	H 	0.63290 0.86710 0.23710 -0.00200
Ni	Ni	0.62899 0.37101 0.81227 1.14100
N 	N 	0.60840 0.39160 0.77090 -0.21700
O 	O 	0.53780 0.46220 0.77810 -0.24900
C 	C 	0.57960 0.42040 0.71750 0.20100
H 	H 	0.57020 0.42980 0.69940 -0.03000
C 	C 	0.58450 0.41550 0.77490 0.16000
H 	H 	0.57830 0.42170 0.79560 0.00400
C 	C 	0.56990 0.43010 0.74800 -0.33300
O 	O 	0.53300 0.46700 0.73110 -0.41500
C 	C 	0.55000 0.45000 0.75170 0.47200
C 	C 	0.60290 0.39710 0.71360 -0.21900
H 	H 	0.60910 0.39090 0.69300 0.10700
C 	C 	0.61710 0.38290 0.74010 0.12400
H 	H 	0.63290 0.36710 0.73710 -0.00200
Ni	Ni	0.87101 0.87101 0.18773 1.14100
N 	N 	0.89160 0.89160 0.22910 -0.21700
O 	O 	0.96220 0.96220 0.22190 -0.24600
C 	C 	0.92040 0.92040 0.28250 0.20000
H 	H 	0.92980 0.92980 0.30060 -0.02800
C 	C 	0.91550 0.91550 0.22510 0.16000
H 	H 	0.92170 0.92170 0.20440 0.00500
C 	C 	0.93010 0.93010 0.25200 -0.33000
O 	O 	0.96700 0.96700 0.26890 -0.41000
C 	C 	0.95000 0.95000 0.24830 0.46900
C 	C 	0.89710 0.89710 0.28640 -0.21700
H 	H 	0.89090 0.89090 0.30700 0.10700
C 	C 	0.88290 0.88290 0.25990 0.12400
H 	H 	0.86710 0.86710 0.26290 -0.00200
Ni	Ni	0.87101 0.37101 0.68773 1.14100
N 	N 	0.89160 0.39160 0.72910 -0.21700
O 	O 	0.96220 0.46220 0.72190 -0.24700
C 	C 	0.92040 0.42040 0.78250 0.20000
H 	H 	0.92980 0.42980 0.80060 -0.02900
C 	C 	0.91550 0.41550 0.72510 0.16000
H 	H 	0.92170 0.42170 0.70440 0.00400
C 	C 	0.93010 0.43010 0.75200 -0.33200
O 	O 	0.96700 0.46700 0.76890 -0.41300
C 	C 	0.95000 0.45000 0.74830 0.47100
C 	C 	0.89710 0.39710 0.78640 -0.21800
H 	H 	0.89090 0.39090 0.80700 0.10700
C 	C 	0.88290 0.38290 0.75990 0.12400
H 	H 	0.86710 0.36710 0.76290 -0.00200
Ni	Ni	0.37101 0.87101 0.68773 1.14100
N 	N 	0.39160 0.89160 0.72910 -0.21700
O 	O 	0.46220 0.96220 0.72190 -0.24700
C 	C 	0.42040 0.92040 0.78250 0.20000
H 	H 	0.42980 0.92980 0.80060 -0.02900
C 	C 	0.41550 0.91550 0.72510 0.16000
H 	H 	0.42170 0.92170 0.70440 0.00400
C 	C 	0.43010 0.93010 0.75200 -0.33200
O 	O 	0.46700 0.96700 0.76890 -0.41300
C 	C 	0.45000 0.95000 0.74830 0.47100
C 	C 	0.39710 0.89710 0.78640 -0.21800
H 	H 	0.39090 0.89090 0.80700 0.10700
C 	C 	0.38290 0.88290 0.75990 0.12400
H 	H 	0.36710 0.86710 0.76290 -0.00200
Ni	Ni	0.37101 0.37101 0.18773 1.14100
N 	N 	0.39160 0.39160 0.22910 -0.21700
O 	O 	0.46220 0.46220 0.22190 -0.24900
C 	C 	0.42040 0.42040 0.28250 0.20100
H 	H 	0.42980 0.42980 0.30060 -0.03000
C 	C 	0.41550 0.41550 0.22510 0.16000
H 	H 	0.42170 0.42170 0.20440 0.00400
C 	C 	0.43010 0.43010 0.25200 -0.33400
O 	O 	0.46700 0.46700 0.26890 -0.41500
C 	C 	0.45000 0.45000 0.24830 0.47200
C 	C 	0.39710 0.39710 0.28640 -0.21900
H 	H 	0.39090 0.39090 0.30700 0.10700
C 	C 	0.38290 0.38290 0.25990 0.12500
H 	H 	0.36710 0.36710 0.26290 -0.00200
Ni	Ni	0.12899 0.18773 0.87101 1.14100
N 	N 	0.10840 0.22910 0.89160 -0.21700
O 	O 	0.03780 0.22190 0.96220 -0.24900
C 	C 	0.07960 0.28250 0.92040 0.20100
H 	H 	0.07020 0.30060 0.92980 -0.03000
C 	C 	0.08450 0.22510 0.91550 0.16000
H 	H 	0.07830 0.20440 0.92170 0.00400
C 	C 	0.06990 0.25200 0.93010 -0.33300
O 	O 	0.03300 0.26890 0.96700 -0.41400
C 	C 	0.05000 0.24830 0.95000 0.47100
C 	C 	0.10290 0.28640 0.89710 -0.21800
H 	H 	0.10910 0.30700 0.89090 0.10700
C 	C 	0.11710 0.25990 0.88290 0.12400
H 	H 	0.13290 0.26290 0.86710 -0.00200
Ni	Ni	0.12899 0.68773 0.37101 1.14100
N 	N 	0.10840 0.72910 0.39160 -0.21700
O 	O 	0.03780 0.72190 0.46220 -0.25100
C 	C 	0.07960 0.78250 0.42040 0.20100
H 	H 	0.07020 0.80060 0.42980 -0.03100
C 	C 	0.08450 0.72510 0.41550 0.16100
H 	H 	0.07830 0.70440 0.42170 0.00300
C 	C 	0.06990 0.75200 0.43010 -0.33500
O 	O 	0.03300 0.76890 0.46700 -0.41600
C 	C 	0.05000 0.74830 0.45000 0.47200
C 	C 	0.10290 0.78640 0.39710 -0.21900
H 	H 	0.10910 0.80700 0.39090 0.10700
C 	C 	0.11710 0.75990 0.38290 0.12500
H 	H 	0.13290 0.76290 0.36710 -0.00200
Ni	Ni	0.62899 0.18773 0.37101 1.14100
N 	N 	0.60840 0.22910 0.39160 -0.21700
O 	O 	0.53780 0.22190 0.46220 -0.24900
C 	C 	0.57960 0.28250 0.42040 0.20100
H 	H 	0.57020 0.30060 0.42980 -0.03000
C 	C 	0.58450 0.22510 0.41550 0.16000
H 	H 	0.57830 0.20440 0.42170 0.00400
C 	C 	0.56990 0.25200 0.43010 -0.33400
O 	O 	0.53300 0.26890 0.46700 -0.41500
C 	C 	0.55000 0.24830 0.45000 0.47200
C 	C 	0.60290 0.28640 0.39710 -0.21900
H 	H 	0.60910 0.30700 0.39090 0.10700
C 	C 	0.61710 0.25990 0.38290 0.12500
H 	H 	0.63290 0.26290 0.36710 -0.00200
Ni	Ni	0.62899 0.68773 0.87101 1.14100
N 	N 	0.60840 0.72910 0.89160 -0.21700
O 	O 	0.53780 0.72190 0.96220 -0.24700
C 	C 	0.57960 0.78250 0.92040 0.20000
H 	H 	0.57020 0.80060 0.92980 -0.02900
C 	C 	0.58450 0.72510 0.91550 0.16000
H 	H 	0.57830 0.70440 0.92170 0.00400
C 	C 	0.56990 0.75200 0.93010 -0.33200
O 	O 	0.53300 0.76890 0.96700 -0.41300
C 	C 	0.55000 0.74830 0.95000 0.47100
C 	C 	0.60290 0.78640 0.89710 -0.21800
H 	H 	0.60910 0.80700 0.89090 0.10700
C 	C 	0.61710 0.75990 0.88290 0.12400
H 	H 	0.63290 0.76290 0.86710 -0.00200
Ni	Ni	0.87101 0.81227 0.87101 1.14100
N 	N 	0.89160 0.77090 0.89160 -0.21700
O 	O 	0.96220 0.77810 0.96220 -0.24500
C 	C 	0.92040 0.71750 0.92040 0.19900
H 	H 	0.92980 0.69940 0.92980 -0.02800
C 	C 	0.91550 0.77490 0.91550 0.16000
H 	H 	0.92170 0.79560 0.92170 0.00500
C 	C 	0.93010 0.74800 0.93010 -0.33000
O 	O 	0.96700 0.73110 0.96700 -0.41000
C 	C 	0.95000 0.75170 0.95000 0.46900
C 	C 	0.89710 0.71360 0.89710 -0.21700
H 	H 	0.89090 0.69300 0.89090 0.10700
C 	C 	0.88290 0.74010 0.88290 0.12400
H 	H 	0.86710 0.73710 0.86710 -0.00200
Ni	Ni	0.87101 0.31227 0.37101 1.14100
N 	N 	0.89160 0.27090 0.39160 -0.21700
O 	O 	0.96220 0.27810 0.46220 -0.24700
C 	C 	0.92040 0.21750 0.42040 0.20000
H 	H 	0.92980 0.19940 0.42980 -0.02900
C 	C 	0.91550 0.27490 0.41550 0.16000
H 	H 	0.92170 0.29560 0.42170 0.00400
C 	C 	0.93010 0.24800 0.43010 -0.33200
O 	O 	0.96700 0.23110 0.46700 -0.41300
C 	C 	0.95000 0.25170 0.45000 0.47100
C 	C 	0.89710 0.21360 0.39710 -0.21800
H 	H 	0.89090 0.19300 0.39090 0.10700
C 	C 	0.88290 0.24010 0.38290 0.12400
H 	H 	0.86710 0.23710 0.36710 -0.00200
Ni	Ni	0.37101 0.81227 0.37101 1.14100
N 	N 	0.39160 0.77090 0.39160 -0.21700
O 	O 	0.46220 0.77810 0.46220 -0.24900
C 	C 	0.42040 0.71750 0.42040 0.20100
H 	H 	0.42980 0.69940 0.42980 -0.03000
C 	C 	0.41550 0.77490 0.41550 0.16000
H 	H 	0.42170 0.79560 0.42170 0.00400
C 	C 	0.43010 0.74800 0.43010 -0.33300
O 	O 	0.46700 0.73110 0.46700 -0.41500
C 	C 	0.45000 0.75170 0.45000 0.47200
C 	C 	0.39710 0.71360 0.39710 -0.21900
H 	H 	0.39090 0.69300 0.39090 0.10700
C 	C 	0.38290 0.74010 0.38290 0.12400
H 	H 	0.36710 0.73710 0.36710 -0.00200
Ni	Ni	0.37101 0.31227 0.87101 1.14100
N 	N 	0.39160 0.27090 0.89160 -0.21700
O 	O 	0.46220 0.27810 0.96220 -0.24700
C 	C 	0.42040 0.21750 0.92040 0.20000
H 	H 	0.42980 0.19940 0.92980 -0.02900
C 	C 	0.41550 0.27490 0.91550 0.16000
H 	H 	0.42170 0.29560 0.92170 0.00400
C 	C 	0.43010 0.24800 0.93010 -0.33200
O 	O 	0.46700 0.23110 0.96700 -0.41300
C 	C 	0.45000 0.25170 0.95000 0.47100
C 	C 	0.39710 0.21360 0.89710 -0.21800
H 	H 	0.39090 0.19300 0.89090 0.10700
C 	C 	0.38290 0.24010 0.88290 0.12400
H 	H 	0.36710 0.23710 0.86710 -0.00200
Ni	Ni	0.12899 0.81227 0.12899 1.14100
N 	N 	0.10840 0.77090 0.10840 -0.21800
O 	O 	0.03780 0.77810 0.03780 -0.25200
C 	C 	0.07960 0.71750 0.07960 0.20200
H 	H 	0.07020 0.69940 0.07020 -0.03200
C 	C 	0.08450 0.77490 0.08450 0.16100
H 	H 	0.07830 0.79560 0.07830 0.00300
C 	C 	0.06990 0.74800 0.06990 -0.33600
O 	O 	0.03300 0.73110 0.03300 -0.41800
C 	C 	0.05000 0.75170 0.05000 0.47300
C 	C 	0.10290 0.71360 0.10290 -0.22000
H 	H 	0.10910 0.69300 0.10910 0.10700
C 	C 	0.11710 0.74010 0.11710 0.12500
H 	H 	0.13290 0.73710 0.13290 -0.00200
Ni	Ni	0.12899 0.31227 0.62899 1.14100
N 	N 	0.10840 0.27090 0.60840 -0.21700
O 	O 	0.03780 0.27810 0.53780 -0.25100
C 	C 	0.07960 0.21750 0.57960 0.20100
H 	H 	0.07020 0.19940 0.57020 -0.03100
C 	C 	0.08450 0.27490 0.58450 0.16100
H 	H 	0.07830 0.29560 0.57830 0.00300
C 	C 	0.06990 0.24800 0.56990 -0.33500
O 	O 	0.03300 0.23110 0.53300 -0.41700
C 	C 	0.05000 0.25170 0.55000 0.47200
C 	C 	0.10290 0.21360 0.60290 -0.21900
H 	H 	0.10910 0.19300 0.60910 0.10700
C 	C 	0.11710 0.24010 0.61710 0.12500
H 	H 	0.13290 0.23710 0.63290 -0.00200
Ni	Ni	0.62899 0.81227 0.62899 1.14100
N 	N 	0.60840 0.77090 0.60840 -0.21700
O 	O 	0.53780 0.77810 0.53780 -0.24900
C 	C 	0.57960 0.71750 0.57960 0.20100
H 	H 	0.57020 0.69940 0.57020 -0.03000
C 	C 	0.58450 0.77490 0.58450 0.16000
H 	H 	0.57830 0.79560 0.57830 0.00400
C 	C 	0.56990 0.74800 0.56990 -0.33300
O 	O 	0.53300 0.73110 0.53300 -0.41500
C 	C 	0.55000 0.75170 0.55000 0.47200
C 	C 	0.60290 0.71360 0.60290 -0.21900
H 	H 	0.60910 0.69300 0.60910 0.10700
C 	C 	0.61710 0.74010 0.61710 0.12400
H 	H 	0.63290 0.73710 0.63290 -0.00200
Ni	Ni	0.62899 0.31227 0.12899 1.14100
N 	N 	0.60840 0.27090 0.10840 -0.21700
O 	O 	0.53780 0.27810 0.03780 -0.25100
C 	C 	0.57960 0.21750 0.07960 0.20100
H 	H 	0.57020 0.19940 0.07020 -0.03100
C 	C 	0.58450 0.27490 0.08450 0.16100
H 	H 	0.57830 0.29560 0.07830 0.00300
C 	C 	0.56990 0.24800 0.06990 -0.33500
O 	O 	0.53300 0.23110 0.03300 -0.41700
C 	C 	0.55000 0.25170 0.05000 0.47200
C 	C 	0.60290 0.21360 0.10290 -0.21900
H 	H 	0.60910 0.19300 0.10910 0.10700
C 	C 	0.61710 0.24010 0.11710 0.12500
H 	H 	0.63290 0.23710 0.13290 -0.00200
Ni	Ni	0.87101 0.18773 0.12899 1.14100
N 	N 	0.89160 0.22910 0.10840 -0.21700
O 	O 	0.96220 0.22190 0.03780 -0.24900
C 	C 	0.92040 0.28250 0.07960 0.20100
H 	H 	0.92980 0.30060 0.07020 -0.03000
C 	C 	0.91550 0.22510 0.08450 0.16000
H 	H 	0.92170 0.20440 0.07830 0.00400
C 	C 	0.93010 0.25200 0.06990 -0.33300
O 	O 	0.96700 0.26890 0.03300 -0.41400
C 	C 	0.95000 0.24830 0.05000 0.47100
C 	C 	0.89710 0.28640 0.10290 -0.21800
H 	H 	0.89090 0.30700 0.10910 0.10700
C 	C 	0.88290 0.25990 0.11710 0.12400
H 	H 	0.86710 0.26290 0.13290 -0.00200
Ni	Ni	0.87101 0.68773 0.62899 1.14100
N 	N 	0.89160 0.72910 0.60840 -0.21700
O 	O 	0.96220 0.72190 0.53780 -0.24700
C 	C 	0.92040 0.78250 0.57960 0.20000
H 	H 	0.92980 0.80060 0.57020 -0.02900
C 	C 	0.91550 0.72510 0.58450 0.16000
H 	H 	0.92170 0.70440 0.57830 0.00400
C 	C 	0.93010 0.75200 0.56990 -0.33200
O 	O 	0.96700 0.76890 0.53300 -0.41300
C 	C 	0.95000 0.74830 0.55000 0.47100
C 	C 	0.89710 0.78640 0.60290 -0.21800
H 	H 	0.89090 0.80700 0.60910 0.10700
C 	C 	0.88290 0.75990 0.61710 0.12400
H 	H 	0.86710 0.76290 0.63290 -0.00200
Ni	Ni	0.37101 0.18773 0.62899 1.14100
N 	N 	0.39160 0.22910 0.60840 -0.21700
O 	O 	0.46220 0.22190 0.53780 -0.24900
C 	C 	0.42040 0.28250 0.57960 0.20100
H 	H 	0.42980 0.30060 0.57020 -0.03000
C 	C 	0.41550 0.22510 0.58450 0.16000
H 	H 	0.42170 0.20440 0.57830 0.00400
C 	C 	0.43010 0.25200 0.56990 -0.33400
O 	O 	0.46700 0.26890 0.53300 -0.41500
C 	C 	0.45000 0.24830 0.55000 0.47200
C 	C 	0.39710 0.28640 0.60290 -0.21900
H 	H 	0.39090 0.30700 0.60910 0.10700
C 	C 	0.38290 0.25990 0.61710 0.12500
H 	H 	0.36710 0.26290 0.63290 -0.00200
Ni	Ni	0.37101 0.68773 0.12899 1.14100
N 	N 	0.39160 0.72910 0.10840 -0.21700
O 	O 	0.46220 0.72190 0.03780 -0.25100
C 	C 	0.42040 0.78250 0.07960 0.20100
H 	H 	0.42980 0.80060 0.07020 -0.03100
C 	C 	0.41550 0.72510 0.08450 0.16100
H 	H 	0.42170 0.70440 0.07830 0.00300
C 	C 	0.43010 0.75200 0.06990 -0.33500
O 	O 	0.46700 0.76890 0.03300 -0.41600
C 	C 	0.45000 0.74830 0.05000 0.47200
C 	C 	0.39710 0.78640 0.10290 -0.21900
H 	H 	0.39090 0.80700 0.10910 0.10700
C 	C 	0.38290 0.75990 0.11710 0.12500
H 	H 	0.36710 0.76290 0.13290 -0.00200
Ni	Ni	0.18773 0.12899 0.87101 1.14100
N 	N 	0.22910 0.10840 0.89160 -0.21700
O 	O 	0.22190 0.03780 0.96220 -0.24900
C 	C 	0.28250 0.07960 0.92040 0.20100
H 	H 	0.30060 0.07020 0.92980 -0.03000
C 	C 	0.22510 0.08450 0.91550 0.16000
H 	H 	0.20440 0.07830 0.92170 0.00400
C 	C 	0.25200 0.06990 0.93010 -0.33300
O 	O 	0.26890 0.03300 0.96700 -0.41400
C 	C 	0.24830 0.05000 0.95000 0.47100
C 	C 	0.28640 0.10290 0.89710 -0.21800
H 	H 	0.30700 0.10910 0.89090 0.10700
C 	C 	0.25990 0.11710 0.88290 0.12400
H 	H 	0.26290 0.13290 0.86710 -0.00200
Ni	Ni	0.18773 0.62899 0.37101 1.14100
N 	N 	0.22910 0.60840 0.39160 -0.21700
O 	O 	0.22190 0.53780 0.46220 -0.24900
C 	C 	0.28250 0.57960 0.42040 0.20100
H 	H 	0.30060 0.57020 0.42980 -0.03000
C 	C 	0.22510 0.58450 0.41550 0.16000
H 	H 	0.20440 0.57830 0.42170 0.00400
C 	C 	0.25200 0.56990 0.43010 -0.33400
O 	O 	0.26890 0.53300 0.46700 -0.41500
C 	C 	0.24830 0.55000 0.45000 0.47200
C 	C 	0.28640 0.60290 0.39710 -0.21900
H 	H 	0.30700 0.60910 0.39090 0.10700
C 	C 	0.25990 0.61710 0.38290 0.12500
H 	H 	0.26290 0.63290 0.36710 -0.00200
Ni	Ni	0.68773 0.12899 0.37101 1.14100
N 	N 	0.72910 0.10840 0.39160 -0.21700
O 	O 	0.72190 0.03780 0.46220 -0.25100
C 	C 	0.78250 0.07960 0.42040 0.20100
H 	H 	0.80060 0.07020 0.42980 -0.03100
C 	C 	0.72510 0.08450 0.41550 0.16100
H 	H 	0.70440 0.07830 0.42170 0.00300
C 	C 	0.75200 0.06990 0.43010 -0.33500
O 	O 	0.76890 0.03300 0.46700 -0.41600
C 	C 	0.74830 0.05000 0.45000 0.47200
C 	C 	0.78640 0.10290 0.39710 -0.21900
H 	H 	0.80700 0.10910 0.39090 0.10700
C 	C 	0.75990 0.11710 0.38290 0.12500
H 	H 	0.76290 0.13290 0.36710 -0.00200
Ni	Ni	0.68773 0.62899 0.87101 1.14100
N 	N 	0.72910 0.60840 0.89160 -0.21700
O 	O 	0.72190 0.53780 0.96220 -0.24700
C 	C 	0.78250 0.57960 0.92040 0.20000
H 	H 	0.80060 0.57020 0.92980 -0.02900
C 	C 	0.72510 0.58450 0.91550 0.16000
H 	H 	0.70440 0.57830 0.92170 0.00400
C 	C 	0.75200 0.56990 0.93010 -0.33200
O 	O 	0.76890 0.53300 0.96700 -0.41300
C 	C 	0.74830 0.55000 0.95000 0.47100
C 	C 	0.78640 0.60290 0.89710 -0.21800
H 	H 	0.80700 0.60910 0.89090 0.10700
C 	C 	0.75990 0.61710 0.88290 0.12400
H 	H 	0.76290 0.63290 0.86710 -0.00200
Ni	Ni	0.81227 0.12899 0.12899 1.14100
N 	N 	0.77090 0.10840 0.10840 -0.21800
O 	O 	0.77810 0.03780 0.03780 -0.25200
C 	C 	0.71750 0.07960 0.07960 0.20200
H 	H 	0.69940 0.07020 0.07020 -0.03200
C 	C 	0.77490 0.08450 0.08450 0.16100
H 	H 	0.79560 0.07830 0.07830 0.00300
C 	C 	0.74800 0.06990 0.06990 -0.33600
O 	O 	0.73110 0.03300 0.03300 -0.41800
C 	C 	0.75170 0.05000 0.05000 0.47300
C 	C 	0.71360 0.10290 0.10290 -0.22000
H 	H 	0.69300 0.10910 0.10910 0.10700
C 	C 	0.74010 0.11710 0.11710 0.12500
H 	H 	0.73710 0.13290 0.13290 -0.00200
Ni	Ni	0.81227 0.62899 0.62899 1.14100
N 	N 	0.77090 0.60840 0.60840 -0.21700
O 	O 	0.77810 0.53780 0.53780 -0.24900
C 	C 	0.71750 0.57960 0.57960 0.20100
H 	H 	0.69940 0.57020 0.57020 -0.03000
C 	C 	0.77490 0.58450 0.58450 0.16000
H 	H 	0.79560 0.57830 0.57830 0.00400
C 	C 	0.74800 0.56990 0.56990 -0.33300
O 	O 	0.73110 0.53300 0.53300 -0.41500
C 	C 	0.75170 0.55000 0.55000 0.47200
C 	C 	0.71360 0.60290 0.60290 -0.21900
H 	H 	0.69300 0.60910 0.60910 0.10700
C 	C 	0.74010 0.61710 0.61710 0.12400
H 	H 	0.73710 0.63290 0.63290 -0.00200
Ni	Ni	0.31227 0.12899 0.62899 1.14100
N 	N 	0.27090 0.10840 0.60840 -0.21700
O 	O 	0.27810 0.03780 0.53780 -0.25100
C 	C 	0.21750 0.07960 0.57960 0.20100
H 	H 	0.19940 0.07020 0.57020 -0.03100
C 	C 	0.27490 0.08450 0.58450 0.16100
H 	H 	0.29560 0.07830 0.57830 0.00300
C 	C 	0.24800 0.06990 0.56990 -0.33500
O 	O 	0.23110 0.03300 0.53300 -0.41700
C 	C 	0.25170 0.05000 0.55000 0.47200
C 	C 	0.21360 0.10290 0.60290 -0.21900
H 	H 	0.19300 0.10910 0.60910 0.10700
C 	C 	0.24010 0.11710 0.61710 0.12500
H 	H 	0.23710 0.13290 0.63290 -0.00200
Ni	Ni	0.31227 0.62899 0.12899 1.14100
N 	N 	0.27090 0.60840 0.10840 -0.21700
O 	O 	0.27810 0.53780 0.03780 -0.25100
C 	C 	0.21750 0.57960 0.07960 0.20100
H 	H 	0.19940 0.57020 0.07020 -0.03100
C 	C 	0.27490 0.58450 0.08450 0.16100
H 	H 	0.29560 0.57830 0.07830 0.00300
C 	C 	0.24800 0.56990 0.06990 -0.33500
O 	O 	0.23110 0.53300 0.03300 -0.41700
C 	C 	0.25170 0.55000 0.05000 0.47200
C 	C 	0.21360 0.60290 0.10290 -0.21900
H 	H 	0.19300 0.60910 0.10910 0.10700
C 	C 	0.24010 0.61710 0.11710 0.12500
H 	H 	0.23710 0.63290 0.13290 -0.00200
Ni	Ni	0.81227 0.87101 0.87101 1.14100
N 	N 	0.77090 0.89160 0.89160 -0.21700
O 	O 	0.77810 0.96220 0.96220 -0.24500
C 	C 	0.71750 0.92040 0.92040 0.19900
H 	H 	0.69940 0.92980 0.92980 -0.02800
C 	C 	0.77490 0.91550 0.91550 0.16000
H 	H 	0.79560 0.92170 0.92170 0.00500
C 	C 	0.74800 0.93010 0.93010 -0.33000
O 	O 	0.73110 0.96700 0.96700 -0.41000
C 	C 	0.75170 0.95000 0.95000 0.46900
C 	C 	0.71360 0.89710 0.89710 -0.21700
H 	H 	0.69300 0.89090 0.89090 0.10700
C 	C 	0.74010 0.88290 0.88290 0.12400
H 	H 	0.73710 0.86710 0.86710 -0.00200
Ni	Ni	0.81227 0.37101 0.37101 1.14100
N 	N 	0.77090 0.39160 0.39160 -0.21700
O 	O 	0.77810 0.46220 0.46220 -0.24900
C 	C 	0.71750 0.42040 0.42040 0.20100
H 	H 	0.69940 0.42980 0.42980 -0.03000
C 	C 	0.77490 0.41550 0.41550 0.16000
H 	H 	0.79560 0.42170 0.42170 0.00400
C 	C 	0.74800 0.43010 0.43010 -0.33300
O 	O 	0.73110 0.46700 0.46700 -0.41500
C 	C 	0.75170 0.45000 0.45000 0.47200
C 	C 	0.71360 0.39710 0.39710 -0.21900
H 	H 	0.69300 0.39090 0.39090 0.10700
C 	C 	0.74010 0.38290 0.38290 0.12400
H 	H 	0.73710 0.36710 0.36710 -0.00200
Ni	Ni	0.31227 0.87101 0.37101 1.14100
N 	N 	0.27090 0.89160 0.39160 -0.21700
O 	O 	0.27810 0.96220 0.46220 -0.24700
C 	C 	0.21750 0.92040 0.42040 0.20000
H 	H 	0.19940 0.92980 0.42980 -0.02900
C 	C 	0.27490 0.91550 0.41550 0.16000
H 	H 	0.29560 0.92170 0.42170 0.00400
C 	C 	0.24800 0.93010 0.43010 -0.33200
O 	O 	0.23110 0.96700 0.46700 -0.41300
C 	C 	0.25170 0.95000 0.45000 0.47100
C 	C 	0.21360 0.89710 0.39710 -0.21800
H 	H 	0.19300 0.89090 0.39090 0.10700
C 	C 	0.24010 0.88290 0.38290 0.12400
H 	H 	0.23710 0.86710 0.36710 -0.00200
Ni	Ni	0.31227 0.37101 0.87101 1.14100
N 	N 	0.27090 0.39160 0.89160 -0.21700
O 	O 	0.27810 0.46220 0.96220 -0.24700
C 	C 	0.21750 0.42040 0.92040 0.20000
H 	H 	0.19940 0.42980 0.92980 -0.02900
C 	C 	0.27490 0.41550 0.91550 0.16000
H 	H 	0.29560 0.42170 0.92170 0.00400
C 	C 	0.24800 0.43010 0.93010 -0.33200
O 	O 	0.23110 0.46700 0.96700 -0.41300
C 	C 	0.25170 0.45000 0.95000 0.47100
C 	C 	0.21360 0.39710 0.89710 -0.21800
H 	H 	0.19300 0.39090 0.89090 0.10700
C 	C 	0.24010 0.38290 0.88290 0.12400
H 	H 	0.23710 0.36710 0.86710 -0.00200
Ni	Ni	0.18773 0.87101 0.12899 1.14100
N 	N 	0.22910 0.89160 0.10840 -0.21700
O 	O 	0.22190 0.96220 0.03780 -0.24900
C 	C 	0.28250 0.92040 0.07960 0.20100
H 	H 	0.30060 0.92980 0.07020 -0.03000
C 	C 	0.22510 0.91550 0.08450 0.16000
H 	H 	0.20440 0.92170 0.07830 0.00400
C 	C 	0.25200 0.93010 0.06990 -0.33300
O 	O 	0.26890 0.96700 0.03300 -0.41400
C 	C 	0.24830 0.95000 0.05000 0.47100
C 	C 	0.28640 0.89710 0.10290 -0.21800
H 	H 	0.30700 0.89090 0.10910 0.10700
C 	C 	0.25990 0.88290 0.11710 0.12400
H 	H 	0.26290 0.86710 0.13290 -0.00200
Ni	Ni	0.18773 0.37101 0.62899 1.14100
N 	N 	0.22910 0.39160 0.60840 -0.21700
O 	O 	0.22190 0.46220 0.53780 -0.24900
C 	C 	0.28250 0.42040 0.57960 0.20100
H 	H 	0.30060 0.42980 0.57020 -0.03000
C 	C 	0.22510 0.41550 0.58450 0.16000
H 	H 	0.20440 0.42170 0.57830 0.00400
C 	C 	0.25200 0.43010 0.56990 -0.33400
O 	O 	0.26890 0.46700 0.53300 -0.41500
C 	C 	0.24830 0.45000 0.55000 0.47200
C 	C 	0.28640 0.39710 0.60290 -0.21900
H 	H 	0.30700 0.39090 0.60910 0.10700
C 	C 	0.25990 0.38290 0.61710 0.12500
H 	H 	0.26290 0.36710 0.63290 -0.00200
Ni	Ni	0.68773 0.87101 0.62899 1.14100
N 	N 	0.72910 0.89160 0.60840 -0.21700
O 	O 	0.72190 0.96220 0.53780 -0.24700
C 	C 	0.78250 0.92040 0.57960 0.20000
H 	H 	0.80060 0.92980 0.57020 -0.02900
C 	C 	0.72510 0.91550 0.58450 0.16000
H 	H 	0.70440 0.92170 0.57830 0.00400
C 	C 	0.75200 0.93010 0.56990 -0.33200
O 	O 	0.76890 0.96700 0.53300 -0.41300
C 	C 	0.74830 0.95000 0.55000 0.47100
C 	C 	0.78640 0.89710 0.60290 -0.21800
H 	H 	0.80700 0.89090 0.60910 0.10700
C 	C 	0.75990 0.88290 0.61710 0.12400
H 	H 	0.76290 0.86710 0.63290 -0.00200
Ni	Ni	0.68773 0.37101 0.12899 1.14100
N 	N 	0.72910 0.39160 0.10840 -0.21700
O 	O 	0.72190 0.46220 0.03780 -0.25100
C 	C 	0.78250 0.42040 0.07960 0.20100
H 	H 	0.80060 0.42980 0.07020 -0.03100
C 	C 	0.72510 0.41550 0.08450 0.16100
H 	H 	0.70440 0.42170 0.07830 0.00300
C 	C 	0.75200 0.43010 0.06990 -0.33500
O 	O 	0.76890 0.46700 0.03300 -0.41600
C 	C 	0.74830 0.45000 0.05000 0.47200
C 	C 	0.78640 0.39710 0.10290 -0.21900
H 	H 	0.80700 0.39090 0.10910 0.10700
C 	C 	0.75990 0.38290 0.11710 0.12500
H 	H 	0.76290 0.36710 0.13290 -0.00200
Ni	Ni	0.12899 0.12899 0.81227 1.14100
N 	N 	0.10840 0.10840 0.77090 -0.21800
O 	O 	0.03780 0.03780 0.77810 -0.25200
C 	C 	0.07960 0.07960 0.71750 0.20200
H 	H 	0.07020 0.07020 0.69940 -0.03200
C 	C 	0.08450 0.08450 0.77490 0.16100
H 	H 	0.07830 0.07830 0.79560 0.00300
C 	C 	0.06990 0.06990 0.74800 -0.33600
O 	O 	0.03300 0.03300 0.73110 -0.41800
C 	C 	0.05000 0.05000 0.75170 0.47300
C 	C 	0.10290 0.10290 0.71360 -0.22000
H 	H 	0.10910 0.10910 0.69300 0.10700
C 	C 	0.11710 0.11710 0.74010 0.12500
H 	H 	0.13290 0.13290 0.73710 -0.00200
Ni	Ni	0.12899 0.62899 0.31227 1.14100
N 	N 	0.10840 0.60840 0.27090 -0.21700
O 	O 	0.03780 0.53780 0.27810 -0.25100
C 	C 	0.07960 0.57960 0.21750 0.20100
H 	H 	0.07020 0.57020 0.19940 -0.03100
C 	C 	0.08450 0.58450 0.27490 0.16100
H 	H 	0.07830 0.57830 0.29560 0.00300
C 	C 	0.06990 0.56990 0.24800 -0.33500
O 	O 	0.03300 0.53300 0.23110 -0.41700
C 	C 	0.05000 0.55000 0.25170 0.47200
C 	C 	0.10290 0.60290 0.21360 -0.21900
H 	H 	0.10910 0.60910 0.19300 0.10700
C 	C 	0.11710 0.61710 0.24010 0.12500
H 	H 	0.13290 0.63290 0.23710 -0.00200
Ni	Ni	0.62899 0.12899 0.31227 1.14100
N 	N 	0.60840 0.10840 0.27090 -0.21700
O 	O 	0.53780 0.03780 0.27810 -0.25100
C 	C 	0.57960 0.07960 0.21750 0.20100
H 	H 	0.57020 0.07020 0.19940 -0.03100
C 	C 	0.58450 0.08450 0.27490 0.16100
H 	H 	0.57830 0.07830 0.29560 0.00300
C 	C 	0.56990 0.06990 0.24800 -0.33500
O 	O 	0.53300 0.03300 0.23110 -0.41700
C 	C 	0.55000 0.05000 0.25170 0.47200
C 	C 	0.60290 0.10290 0.21360 -0.21900
H 	H 	0.60910 0.10910 0.19300 0.10700
C 	C 	0.61710 0.11710 0.24010 0.12500
H 	H 	0.63290 0.13290 0.23710 -0.00200
Ni	Ni	0.62899 0.62899 0.81227 1.14100
N 	N 	0.60840 0.60840 0.77090 -0.21700
O 	O 	0.53780 0.53780 0.77810 -0.24900
C 	C 	0.57960 0.57960 0.71750 0.20100
H 	H 	0.57020 0.57020 0.69940 -0.03000
C 	C 	0.58450 0.58450 0.77490 0.16000
H 	H 	0.57830 0.57830 0.79560 0.00400
C 	C 	0.56990 0.56990 0.74800 -0.33300
O 	O 	0.53300 0.53300 0.73110 -0.41500
C 	C 	0.55000 0.55000 0.75170 0.47200
C 	C 	0.60290 0.60290 0.71360 -0.21900
H 	H 	0.60910 0.60910 0.69300 0.10700
C 	C 	0.61710 0.61710 0.74010 0.12400
H 	H 	0.63290 0.63290 0.73710 -0.00200
Ni	Ni	0.12899 0.87101 0.18773 1.14100
N 	N 	0.10840 0.89160 0.22910 -0.21700
O 	O 	0.03780 0.96220 0.22190 -0.24900
C 	C 	0.07960 0.92040 0.28250 0.20100
H 	H 	0.07020 0.92980 0.30060 -0.03000
C 	C 	0.08450 0.91550 0.22510 0.16000
H 	H 	0.07830 0.92170 0.20440 0.00400
C 	C 	0.06990 0.93010 0.25200 -0.33300
O 	O 	0.03300 0.96700 0.26890 -0.41400
C 	C 	0.05000 0.95000 0.24830 0.47100
C 	C 	0.10290 0.89710 0.28640 -0.21800
H 	H 	0.10910 0.89090 0.30700 0.10700
C 	C 	0.11710 0.88290 0.25990 0.12400
H 	H 	0.13290 0.86710 0.26290 -0.00200
Ni	Ni	0.12899 0.37101 0.68773 1.14100
N 	N 	0.10840 0.39160 0.72910 -0.21700
O 	O 	0.03780 0.46220 0.72190 -0.25100
C 	C 	0.07960 0.42040 0.78250 0.20100
H 	H 	0.07020 0.42980 0.80060 -0.03100
C 	C 	0.08450 0.41550 0.72510 0.16100
H 	H 	0.07830 0.42170 0.70440 0.00300
C 	C 	0.06990 0.43010 0.75200 -0.33500
O 	O 	0.03300 0.46700 0.76890 -0.41600
C 	C 	0.05000 0.45000 0.74830 0.47200
C 	C 	0.10290 0.39710 0.78640 -0.21900
H 	H 	0.10910 0.39090 0.80700 0.10700
C 	C 	0.11710 0.38290 0.75990 0.12500
H 	H 	0.13290 0.36710 0.76290 -0.00200
Ni	Ni	0.62899 0.87101 0.68773 1.14100
N 	N 	0.60840 0.89160 0.72910 -0.21700
O 	O 	0.53780 0.96220 0.72190 -0.24700
C 	C 	0.57960 0.92040 0.78250 0.20000
H 	H 	0.57020 0.92980 0.80060 -0.02900
C 	C 	0.58450 0.91550 0.72510 0.16000
H 	H 	0.57830 0.92170 0.70440 0.00400
C 	C 	0.56990 0.93010 0.75200 -0.33200
O 	O 	0.53300 0.96700 0.76890 -0.41300
C 	C 	0.55000 0.95000 0.74830 0.47100
C 	C 	0.60290 0.89710 0.78640 -0.21800
H 	H 	0.60910 0.89090 0.80700 0.10700
C 	C 	0.61710 0.88290 0.75990 0.12400
H 	H 	0.63290 0.86710 0.76290 -0.00200
Ni	Ni	0.62899 0.37101 0.18773 1.14100
N 	N 	0.60840 0.39160 0.22910 -0.21700
O 	O 	0.53780 0.46220 0.22190 -0.24900
C 	C 	0.57960 0.42040 0.28250 0.20100
H 	H 	0.57020 0.42980 0.30060 -0.03000
C 	C 	0.58450 0.41550 0.22510 0.16000
H 	H 	0.57830 0.42170 0.20440 0.00400
C 	C 	0.56990 0.43010 0.25200 -0.33400
O 	O 	0.53300 0.46700 0.26890 -0.41500
C 	C 	0.55000 0.45000 0.24830 0.47200
C 	C 	0.60290 0.39710 0.28640 -0.21900
H 	H 	0.60910 0.39090 0.30700 0.10700
C 	C 	0.61710 0.38290 0.25990 0.12500
H 	H 	0.63290 0.36710 0.26290 -0.00200
Ni	Ni	0.87101 0.12899 0.18773 1.14100
N 	N 	0.89160 0.10840 0.22910 -0.21700
O 	O 	0.96220 0.03780 0.22190 -0.24900
C 	C 	0.92040 0.07960 0.28250 0.20100
H 	H 	0.92980 0.07020 0.30060 -0.03000
C 	C 	0.91550 0.08450 0.22510 0.16000
H 	H 	0.92170 0.07830 0.20440 0.00400
C 	C 	0.93010 0.06990 0.25200 -0.33300
O 	O 	0.96700 0.03300 0.26890 -0.41400
C 	C 	0.95000 0.05000 0.24830 0.47100
C 	C 	0.89710 0.10290 0.28640 -0.21800
H 	H 	0.89090 0.10910 0.30700 0.10700
C 	C 	0.88290 0.11710 0.25990 0.12400
H 	H 	0.86710 0.13290 0.26290 -0.00200
Ni	Ni	0.87101 0.62899 0.68773 1.14100
N 	N 	0.89160 0.60840 0.72910 -0.21700
O 	O 	0.96220 0.53780 0.72190 -0.24700
C 	C 	0.92040 0.57960 0.78250 0.20000
H 	H 	0.92980 0.57020 0.80060 -0.02900
C 	C 	0.91550 0.58450 0.72510 0.16000
H 	H 	0.92170 0.57830 0.70440 0.00400
C 	C 	0.93010 0.56990 0.75200 -0.33200
O 	O 	0.96700 0.53300 0.76890 -0.41300
C 	C 	0.95000 0.55000 0.74830 0.47100
C 	C 	0.89710 0.60290 0.78640 -0.21800
H 	H 	0.89090 0.60910 0.80700 0.10700
C 	C 	0.88290 0.61710 0.75990 0.12400
H 	H 	0.86710 0.63290 0.76290 -0.00200
Ni	Ni	0.37101 0.12899 0.68773 1.14100
N 	N 	0.39160 0.10840 0.72910 -0.21700
O 	O 	0.46220 0.03780 0.72190 -0.25100
C 	C 	0.42040 0.07960 0.78250 0.20100
H 	H 	0.42980 0.07020 0.80060 -0.03100
C 	C 	0.41550 0.08450 0.72510 0.16100
H 	H 	0.42170 0.07830 0.70440 0.00300
C 	C 	0.43010 0.06990 0.75200 -0.33500
O 	O 	0.46700 0.03300 0.76890 -0.41600
C 	C 	0.45000 0.05000 0.74830 0.47200
C 	C 	0.39710 0.10290 0.78640 -0.21900
H 	H 	0.39090 0.10910 0.80700 0.10700
C 	C 	0.38290 0.11710 0.75990 0.12500
H 	H 	0.36710 0.13290 0.76290 -0.00200
Ni	Ni	0.37101 0.62899 0.18773 1.14100
N 	N 	0.39160 0.60840 0.22910 -0.21700
O 	O 	0.46220 0.53780 0.22190 -0.24900
C 	C 	0.42040 0.57960 0.28250 0.20100
H 	H 	0.42980 0.57020 0.30060 -0.03000
C 	C 	0.41550 0.58450 0.22510 0.16000
H 	H 	0.42170 0.57830 0.20440 0.00400
C 	C 	0.43010 0.56990 0.25200 -0.33400
O 	O 	0.46700 0.53300 0.26890 -0.41500
C 	C 	0.45000 0.55000 0.24830 0.47200
C 	C 	0.39710 0.60290 0.28640 -0.21900
H 	H 	0.39090 0.60910 0.30700 0.10700
C 	C 	0.38290 0.61710 0.25990 0.12500
H 	H 	0.36710 0.63290 0.26290 -0.00200
Ni	Ni	0.87101 0.87101 0.81227 1.14100
N 	N 	0.89160 0.89160 0.77090 -0.21700
O 	O 	0.96220 0.96220 0.77810 -0.24500
C 	C 	0.92040 0.92040 0.71750 0.19900
H 	H 	0.92980 0.92980 0.69940 -0.02800
C 	C 	0.91550 0.91550 0.77490 0.16000
H 	H 	0.92170 0.92170 0.79560 0.00500
C 	C 	0.93010 0.93010 0.74800 -0.33000
O 	O 	0.96700 0.96700 0.73110 -0.41000
C 	C 	0.95000 0.95000 0.75170 0.46900
C 	C 	0.89710 0.89710 0.71360 -0.21700
H 	H 	0.89090 0.89090 0.69300 0.10700
C 	C 	0.88290 0.88290 0.74010 0.12400
H 	H 	0.86710 0.86710 0.73710 -0.00200
Ni	Ni	0.87101 0.37101 0.31227 1.14100
N 	N 	0.89160 0.39160 0.27090 -0.21700
O 	O 	0.96220 0.46220 0.27810 -0.24700
C 	C 	0.92040 0.42040 0.21750 0.20000
H 	H 	0.92980 0.42980 0.19940 -0.02900
C 	C 	0.91550 0.41550 0.27490 0.16000
H 	H 	0.92170 0.42170 0.29560 0.00400
C 	C 	0.93010 0.43010 0.24800 -0.33200
O 	O 	0.96700 0.46700 0.23110 -0.41300
C 	C 	0.95000 0.45000 0.25170 0.47100
C 	C 	0.89710 0.39710 0.21360 -0.21800
H 	H 	0.89090 0.39090 0.19300 0.10700
C 	C 	0.88290 0.38290 0.24010 0.12400
H 	H 	0.86710 0.36710 0.23710 -0.00200
Ni	Ni	0.37101 0.87101 0.31227 1.14100
N 	N 	0.39160 0.89160 0.27090 -0.21700
O 	O 	0.46220 0.96220 0.27810 -0.24700
C 	C 	0.42040 0.92040 0.21750 0.20000
H 	H 	0.42980 0.92980 0.19940 -0.02900
C 	C 	0.41550 0.91550 0.27490 0.16000
H 	H 	0.42170 0.92170 0.29560 0.00400
C 	C 	0.43010 0.93010 0.24800 -0.33200
O 	O 	0.46700 0.96700 0.23110 -0.41300
C 	C 	0.45000 0.95000 0.25170 0.47100
C 	C 	0.39710 0.89710 0.21360 -0.21800
H 	H 	0.39090 0.89090 0.19300 0.10700
C 	C 	0.38290 0.88290 0.24010 0.12400
H 	H 	0.36710 0.86710 0.23710 -0.00200
Ni	Ni	0.37101 0.37101 0.81227 1.14100
N 	N 	0.39160 0.39160 0.77090 -0.21700
O 	O 	0.46220 0.46220 0.77810 -0.24900
C 	C 	0.42040 0.42040 0.71750 0.20100
H 	H 	0.42980 0.42980 0.69940 -0.03000
C 	C 	0.41550 0.41550 0.77490 0.16000
H 	H 	0.42170 0.42170 0.79560 0.00400
C 	C 	0.43010 0.43010 0.74800 -0.33300
O 	O 	0.46700 0.46700 0.73110 -0.41500
C 	C 	0.45000 0.45000 0.75170 0.47200
C 	C 	0.39710 0.39710 0.71360 -0.21900
H 	H 	0.39090 0.39090 0.69300 0.10700
C 	C 	0.38290 0.38290 0.74010 0.12400
H 	H 	0.36710 0.36710 0.73710 -0.00200
O 	O 	0.14659 0.14659 0.14659 -0.55700
O 	O 	0.14659 0.64659 0.64659 -0.55700
O 	O 	0.64659 0.14659 0.64659 -0.55700
O 	O 	0.64659 0.64659 0.14659 -0.55700
O 	O 	0.85341 0.85341 0.14659 -0.55700
O 	O 	0.85341 0.35341 0.64659 -0.55700
O 	O 	0.35341 0.85341 0.64659 -0.55700
O 	O 	0.35341 0.35341 0.14659 -0.55700
O 	O 	0.85341 0.14659 0.85341 -0.55700
O 	O 	0.85341 0.64659 0.35341 -0.55700
O 	O 	0.35341 0.14659 0.35341 -0.55700
O 	O 	0.35341 0.64659 0.85341 -0.55700
O 	O 	0.14659 0.85341 0.85341 -0.55700
O 	O 	0.14659 0.35341 0.35341 -0.55700
O 	O 	0.64659 0.85341 0.35341 -0.55700
O 	O 	0.64659 0.35341 0.85341 -0.55700
O 	O 	0.14659 0.14659 0.85341 -0.55700
O 	O 	0.14659 0.64659 0.35341 -0.55700
O 	O 	0.64659 0.14659 0.35341 -0.55700
O 	O 	0.64659 0.64659 0.85341 -0.55700
O 	O 	0.85341 0.85341 0.85341 -0.55700
O 	O 	0.85341 0.35341 0.35341 -0.55700
O 	O 	0.35341 0.85341 0.35341 -0.55700
O 	O 	0.35341 0.35341 0.85341 -0.55700
O 	O 	0.14659 0.85341 0.14659 -0.55700
O 	O 	0.14659 0.35341 0.64659 -0.55700
O 	O 	0.64659 0.85341 0.64659 -0.55700
O 	O 	0.64659 0.35341 0.14659 -0.55700
O 	O 	0.85341 0.14659 0.14659 -0.55700
O 	O 	0.85341 0.64659 0.64659 -0.55700
O 	O 	0.35341 0.14659 0.64659 -0.55700
O 	O 	0.35341 0.64659 0.14659 -0.55700
C 	C 	0.14949 0.14949 0.03349 -0.05600
C 	C 	0.15034 0.15034 0.06983 0.37800
C 	C 	0.14949 0.64949 0.53349 -0.06800
C 	C 	0.15034 0.65034 0.56983 0.38300
C 	C 	0.64949 0.14949 0.53349 -0.06800
C 	C 	0.65034 0.15034 0.56983 0.38300
C 	C 	0.64949 0.64949 0.03349 -0.05600
C 	C 	0.65034 0.65034 0.06983 0.37900
C 	C 	0.85051 0.85051 0.03349 -0.05600
C 	C 	0.84966 0.84966 0.06983 0.37900
C 	C 	0.85051 0.35051 0.53349 -0.06800
C 	C 	0.84966 0.34966 0.56983 0.38300
C 	C 	0.35051 0.85051 0.53349 -0.06800
C 	C 	0.34966 0.84966 0.56983 0.38300
C 	C 	0.35051 0.35051 0.03349 -0.05600
C 	C 	0.34966 0.34966 0.06983 0.37900
C 	C 	0.85051 0.14949 0.96651 -0.07900
C 	C 	0.84966 0.15034 0.93017 0.38800
C 	C 	0.85051 0.64949 0.46651 -0.06800
C 	C 	0.84966 0.65034 0.43017 0.38300
C 	C 	0.35051 0.14949 0.46651 -0.06800
C 	C 	0.34966 0.15034 0.43017 0.38300
C 	C 	0.35051 0.64949 0.96651 -0.08000
C 	C 	0.34966 0.65034 0.93017 0.38800
C 	C 	0.14949 0.85051 0.96651 -0.07900
C 	C 	0.15034 0.84966 0.93017 0.38800
C 	C 	0.14949 0.35051 0.46651 -0.06800
C 	C 	0.15034 0.34966 0.43017 0.38300
C 	C 	0.64949 0.85051 0.46651 -0.06800
C 	C 	0.65034 0.84966 0.43017 0.38300
C 	C 	0.64949 0.35051 0.96651 -0.08000
C 	C 	0.65034 0.34966 0.93017 0.38800
C 	C 	0.03349 0.14949 0.14949 -0.05600
C 	C 	0.06983 0.15034 0.15034 0.37800
C 	C 	0.03349 0.64949 0.64949 -0.05600
C 	C 	0.06983 0.65034 0.65034 0.37900
C 	C 	0.53349 0.14949 0.64949 -0.06800
C 	C 	0.56983 0.15034 0.65034 0.38300
C 	C 	0.53349 0.64949 0.14949 -0.06800
C 	C 	0.56983 0.65034 0.15034 0.38300
C 	C 	0.03349 0.85051 0.85051 -0.05600
C 	C 	0.06983 0.84966 0.84966 0.37900
C 	C 	0.03349 0.35051 0.35051 -0.05600
C 	C 	0.06983 0.34966 0.34966 0.37900
C 	C 	0.53349 0.85051 0.35051 -0.06800
C 	C 	0.56983 0.84966 0.34966 0.38300
C 	C 	0.53349 0.35051 0.85051 -0.06800
C 	C 	0.56983 0.34966 0.84966 0.38300
C 	C 	0.96651 0.85051 0.14949 -0.07900
C 	C 	0.93017 0.84966 0.15034 0.38800
C 	C 	0.96651 0.35051 0.64949 -0.08000
C 	C 	0.93017 0.34966 0.65034 0.38800
C 	C 	0.46651 0.85051 0.64949 -0.06800
C 	C 	0.43017 0.84966 0.65034 0.38300
C 	C 	0.46651 0.35051 0.14949 -0.06800
C 	C 	0.43017 0.34966 0.15034 0.38300
C 	C 	0.96651 0.14949 0.85051 -0.07900
C 	C 	0.93017 0.15034 0.84966 0.38800
C 	C 	0.96651 0.64949 0.35051 -0.08000
C 	C 	0.93017 0.65034 0.34966 0.38800
C 	C 	0.46651 0.14949 0.35051 -0.06800
C 	C 	0.43017 0.15034 0.34966 0.38300
C 	C 	0.46651 0.64949 0.85051 -0.06800
C 	C 	0.43017 0.65034 0.84966 0.38300
C 	C 	0.14949 0.03349 0.14949 -0.05600
C 	C 	0.15034 0.06983 0.15034 0.37800
C 	C 	0.14949 0.53349 0.64949 -0.06800
C 	C 	0.15034 0.56983 0.65034 0.38300
C 	C 	0.64949 0.03349 0.64949 -0.05600
C 	C 	0.65034 0.06983 0.65034 0.37900
C 	C 	0.64949 0.53349 0.14949 -0.06800
C 	C 	0.65034 0.56983 0.15034 0.38300
C 	C 	0.85051 0.03349 0.85051 -0.05600
C 	C 	0.84966 0.06983 0.84966 0.37900
C 	C 	0.85051 0.53349 0.35051 -0.06800
C 	C 	0.84966 0.56983 0.34966 0.38300
C 	C 	0.35051 0.03349 0.35051 -0.05600
C 	C 	0.34966 0.06983 0.34966 0.37900
C 	C 	0.35051 0.53349 0.85051 -0.06800
C 	C 	0.34966 0.56983 0.84966 0.38300
C 	C 	0.14949 0.96651 0.85051 -0.07900
C 	C 	0.15034 0.93017 0.84966 0.38800
C 	C 	0.14949 0.46651 0.35051 -0.06800
C 	C 	0.15034 0.43017 0.34966 0.38300
C 	C 	0.64949 0.96651 0.35051 -0.08000
C 	C 	0.65034 0.93017 0.34966 0.38800
C 	C 	0.64949 0.46651 0.85051 -0.06800
C 	C 	0.65034 0.43017 0.84966 0.38300
C 	C 	0.85051 0.96651 0.14949 -0.07900
C 	C 	0.84966 0.93017 0.15034 0.38800
C 	C 	0.85051 0.46651 0.64949 -0.06800
C 	C 	0.84966 0.43017 0.65034 0.38300
C 	C 	0.35051 0.96651 0.64949 -0.08000
C 	C 	0.34966 0.93017 0.65034 0.38800
C 	C 	0.35051 0.46651 0.14949 -0.06800
C 	C 	0.34966 0.43017 0.15034 0.38300
C 	C 	0.14949 0.14949 0.96651 -0.08000
C 	C 	0.15034 0.15034 0.93017 0.38800
C 	C 	0.14949 0.64949 0.46651 -0.06800
C 	C 	0.15034 0.65034 0.43017 0.38300
C 	C 	0.64949 0.14949 0.46651 -0.06800
C 	C 	0.65034 0.15034 0.43017 0.38300
C 	C 	0.64949 0.64949 0.96651 -0.08000
C 	C 	0.65034 0.65034 0.93017 0.38800
C 	C 	0.85051 0.85051 0.96651 -0.07900
C 	C 	0.84966 0.84966 0.93017 0.38800
C 	C 	0.85051 0.35051 0.46651 -0.06800
C 	C 	0.84966 0.34966 0.43017 0.38300
C 	C 	0.35051 0.85051 0.46651 -0.06800
C 	C 	0.34966 0.84966 0.43017 0.38300
C 	C 	0.35051 0.35051 0.96651 -0.08000
C 	C 	0.34966 0.34966 0.93017 0.38800
C 	C 	0.14949 0.85051 0.03349 -0.05600
C 	C 	0.15034 0.84966 0.06983 0.37900
C 	C 	0.14949 0.35051 0.53349 -0.06800
C 	C 	0.15034 0.34966 0.56983 0.38300
C 	C 	0.64949 0.85051 0.53349 -0.06800
C 	C 	0.65034 0.84966 0.56983 0.38300
C 	C 	0.64949 0.35051 0.03349 -0.05600
C 	C 	0.65034 0.34966 0.06983 0.37900
C 	C 	0.85051 0.14949 0.03349 -0.05600
C 	C 	0.84966 0.15034 0.06983 0.37900
C 	C 	0.85051 0.64949 0.53349 -0.06800
C 	C 	0.84966 0.65034 0.56983 0.38300
C 	C 	0.35051 0.14949 0.53349 -0.06800
C 	C 	0.34966 0.15034 0.56983 0.38300
C 	C 	0.35051 0.64949 0.03349 -0.05600
C 	C 	0.34966 0.65034 0.06983 0.37900
C 	C 	0.14949 0.03349 0.85051 -0.05600
C 	C 	0.15034 0.06983 0.84966 0.37900
C 	C 	0.14949 0.53349 0.35051 -0.06800
C 	C 	0.15034 0.56983 0.34966 0.38300
C 	C 	0.64949 0.03349 0.35051 -0.05600
C 	C 	0.65034 0.06983 0.34966 0.37900
C 	C 	0.64949 0.53349 0.85051 -0.06800
C 	C 	0.65034 0.56983 0.84966 0.38300
C 	C 	0.85051 0.03349 0.14949 -0.05600
C 	C 	0.84966 0.06983 0.15034 0.37900
C 	C 	0.85051 0.53349 0.64949 -0.06800
C 	C 	0.84966 0.56983 0.65034 0.38300
C 	C 	0.35051 0.03349 0.64949 -0.05600
C 	C 	0.34966 0.06983 0.65034 0.37900
C 	C 	0.35051 0.53349 0.14949 -0.06800
C 	C 	0.34966 0.56983 0.15034 0.38300
C 	C 	0.85051 0.96651 0.85051 -0.07900
C 	C 	0.84966 0.93017 0.84966 0.38800
C 	C 	0.85051 0.46651 0.35051 -0.06800
C 	C 	0.84966 0.43017 0.34966 0.38300
C 	C 	0.35051 0.96651 0.35051 -0.08000
C 	C 	0.34966 0.93017 0.34966 0.38800
C 	C 	0.35051 0.46651 0.85051 -0.06800
C 	C 	0.34966 0.43017 0.84966 0.38300
C 	C 	0.14949 0.96651 0.14949 -0.08000
C 	C 	0.15034 0.93017 0.15034 0.38800
C 	C 	0.14949 0.46651 0.64949 -0.06800
C 	C 	0.15034 0.43017 0.65034 0.38300
C 	C 	0.64949 0.96651 0.64949 -0.08000
C 	C 	0.65034 0.93017 0.65034 0.38800
C 	C 	0.64949 0.46651 0.14949 -0.06800
C 	C 	0.65034 0.43017 0.15034 0.38300
C 	C 	0.03349 0.14949 0.85051 -0.05600
C 	C 	0.06983 0.15034 0.84966 0.37900
C 	C 	0.03349 0.64949 0.35051 -0.05600
C 	C 	0.06983 0.65034 0.34966 0.37900
C 	C 	0.53349 0.14949 0.35051 -0.06800
C 	C 	0.56983 0.15034 0.34966 0.38300
C 	C 	0.53349 0.64949 0.85051 -0.06800
C 	C 	0.56983 0.65034 0.84966 0.38300
C 	C 	0.03349 0.85051 0.14949 -0.05600
C 	C 	0.06983 0.84966 0.15034 0.37900
C 	C 	0.03349 0.35051 0.64949 -0.05600
C 	C 	0.06983 0.34966 0.65034 0.37900
C 	C 	0.53349 0.85051 0.64949 -0.06800
C 	C 	0.56983 0.84966 0.65034 0.38300
C 	C 	0.53349 0.35051 0.14949 -0.06800
C 	C 	0.56983 0.34966 0.15034 0.38300
C 	C 	0.96651 0.14949 0.14949 -0.08000
C 	C 	0.93017 0.15034 0.15034 0.38800
C 	C 	0.96651 0.64949 0.64949 -0.08000
C 	C 	0.93017 0.65034 0.65034 0.38800
C 	C 	0.46651 0.14949 0.64949 -0.06800
C 	C 	0.43017 0.15034 0.65034 0.38300
C 	C 	0.46651 0.64949 0.14949 -0.06800
C 	C 	0.43017 0.65034 0.15034 0.38300
C 	C 	0.96651 0.85051 0.85051 -0.07900
C 	C 	0.93017 0.84966 0.84966 0.38800
C 	C 	0.96651 0.35051 0.35051 -0.08000
C 	C 	0.93017 0.34966 0.34966 0.38800
C 	C 	0.46651 0.85051 0.35051 -0.06800
C 	C 	0.43017 0.84966 0.34966 0.38300
C 	C 	0.46651 0.35051 0.85051 -0.06800
C 	C 	0.43017 0.34966 0.84966 0.38300
C 	C 	0.19954 0.12400 0.19954 0.45000
C 	C 	0.22618 0.12270 0.22618 -0.08200
C 	C 	0.19954 0.62400 0.69954 0.45000
C 	C 	0.22618 0.62270 0.72618 -0.08100
C 	C 	0.69954 0.12400 0.69954 0.45000
C 	C 	0.72618 0.12270 0.72618 -0.08200
C 	C 	0.69954 0.62400 0.19954 0.45000
C 	C 	0.72618 0.62270 0.22618 -0.08100
C 	C 	0.80046 0.87600 0.19954 0.45000
C 	C 	0.77382 0.87730 0.22618 -0.08100
C 	C 	0.80046 0.37600 0.69954 0.45000
C 	C 	0.77382 0.37730 0.72618 -0.08100
C 	C 	0.30046 0.87600 0.69954 0.45000
C 	C 	0.27382 0.87730 0.72618 -0.08100
C 	C 	0.30046 0.37600 0.19954 0.45000
C 	C 	0.27382 0.37730 0.22618 -0.08100
C 	C 	0.80046 0.12400 0.80046 0.45000
C 	C 	0.77382 0.12270 0.77382 -0.08200
C 	C 	0.80046 0.62400 0.30046 0.45000
C 	C 	0.77382 0.62270 0.27382 -0.08100
C 	C 	0.30046 0.12400 0.30046 0.45000
C 	C 	0.27382 0.12270 0.27382 -0.08200
C 	C 	0.30046 0.62400 0.80046 0.45000
C 	C 	0.27382 0.62270 0.77382 -0.08100
C 	C 	0.19954 0.87600 0.80046 0.45000
C 	C 	0.22618 0.87730 0.77382 -0.08100
C 	C 	0.19954 0.37600 0.30046 0.45000
C 	C 	0.22618 0.37730 0.27382 -0.08100
C 	C 	0.69954 0.87600 0.30046 0.45000
C 	C 	0.72618 0.87730 0.27382 -0.08100
C 	C 	0.69954 0.37600 0.80046 0.45000
C 	C 	0.72618 0.37730 0.77382 -0.08100
C 	C 	0.19954 0.19954 0.12400 0.45000
C 	C 	0.22618 0.22618 0.12270 -0.08200
C 	C 	0.19954 0.69954 0.62400 0.45000
C 	C 	0.22618 0.72618 0.62270 -0.08100
C 	C 	0.69954 0.19954 0.62400 0.45000
C 	C 	0.72618 0.22618 0.62270 -0.08100
C 	C 	0.69954 0.69954 0.12400 0.45000
C 	C 	0.72618 0.72618 0.12270 -0.08200
C 	C 	0.19954 0.80046 0.87600 0.45000
C 	C 	0.22618 0.77382 0.87730 -0.08100
C 	C 	0.19954 0.30046 0.37600 0.45000
C 	C 	0.22618 0.27382 0.37730 -0.08100
C 	C 	0.69954 0.80046 0.37600 0.45000
C 	C 	0.72618 0.77382 0.37730 -0.08100
C 	C 	0.69954 0.30046 0.87600 0.45000
C 	C 	0.72618 0.27382 0.87730 -0.08100
C 	C 	0.80046 0.80046 0.12400 0.45000
C 	C 	0.77382 0.77382 0.12270 -0.08200
C 	C 	0.80046 0.30046 0.62400 0.45000
C 	C 	0.77382 0.27382 0.62270 -0.08100
C 	C 	0.30046 0.80046 0.62400 0.45000
C 	C 	0.27382 0.77382 0.62270 -0.08100
C 	C 	0.30046 0.30046 0.12400 0.45000
C 	C 	0.27382 0.27382 0.12270 -0.08200
C 	C 	0.80046 0.19954 0.87600 0.45000
C 	C 	0.77382 0.22618 0.87730 -0.08100
C 	C 	0.80046 0.69954 0.37600 0.45000
C 	C 	0.77382 0.72618 0.37730 -0.08100
C 	C 	0.30046 0.19954 0.37600 0.45000
C 	C 	0.27382 0.22618 0.37730 -0.08100
C 	C 	0.30046 0.69954 0.87600 0.45000
C 	C 	0.27382 0.72618 0.87730 -0.08100
C 	C 	0.12400 0.19954 0.19954 0.45000
C 	C 	0.12270 0.22618 0.22618 -0.08200
C 	C 	0.12400 0.69954 0.69954 0.45000
C 	C 	0.12270 0.72618 0.72618 -0.08200
C 	C 	0.62400 0.19954 0.69954 0.45000
C 	C 	0.62270 0.22618 0.72618 -0.08100
C 	C 	0.62400 0.69954 0.19954 0.45000
C 	C 	0.62270 0.72618 0.22618 -0.08100
C 	C 	0.87600 0.19954 0.80046 0.45000
C 	C 	0.87730 0.22618 0.77382 -0.08100
C 	C 	0.87600 0.69954 0.30046 0.45000
C 	C 	0.87730 0.72618 0.27382 -0.08100
C 	C 	0.37600 0.19954 0.30046 0.45000
C 	C 	0.37730 0.22618 0.27382 -0.08100
C 	C 	0.37600 0.69954 0.80046 0.45000
C 	C 	0.37730 0.72618 0.77382 -0.08100
C 	C 	0.12400 0.80046 0.80046 0.45000
C 	C 	0.12270 0.77382 0.77382 -0.08200
C 	C 	0.12400 0.30046 0.30046 0.45000
C 	C 	0.12270 0.27382 0.27382 -0.08200
C 	C 	0.62400 0.80046 0.30046 0.45000
C 	C 	0.62270 0.77382 0.27382 -0.08100
C 	C 	0.62400 0.30046 0.80046 0.45000
C 	C 	0.62270 0.27382 0.77382 -0.08100
C 	C 	0.87600 0.80046 0.19954 0.45000
C 	C 	0.87730 0.77382 0.22618 -0.08100
C 	C 	0.87600 0.30046 0.69954 0.45000
C 	C 	0.87730 0.27382 0.72618 -0.08100
C 	C 	0.37600 0.80046 0.69954 0.45000
C 	C 	0.37730 0.77382 0.72618 -0.08100
C 	C 	0.37600 0.30046 0.19954 0.45000
C 	C 	0.37730 0.27382 0.22618 -0.08100
C 	C 	0.12400 0.19954 0.80046 0.45000
C 	C 	0.12270 0.22618 0.77382 -0.08200
C 	C 	0.12400 0.69954 0.30046 0.45000
C 	C 	0.12270 0.72618 0.27382 -0.08200
C 	C 	0.62400 0.19954 0.30046 0.45000
C 	C 	0.62270 0.22618 0.27382 -0.08100
C 	C 	0.62400 0.69954 0.80046 0.45000
C 	C 	0.62270 0.72618 0.77382 -0.08100
C 	C 	0.87600 0.80046 0.80046 0.45000
C 	C 	0.87730 0.77382 0.77382 -0.08100
C 	C 	0.87600 0.30046 0.30046 0.45000
C 	C 	0.87730 0.27382 0.27382 -0.08100
C 	C 	0.37600 0.80046 0.30046 0.45000
C 	C 	0.37730 0.77382 0.27382 -0.08100
C 	C 	0.37600 0.30046 0.80046 0.45000
C 	C 	0.37730 0.27382 0.77382 -0.08100
C 	C 	0.12400 0.80046 0.19954 0.45000
C 	C 	0.12270 0.77382 0.22618 -0.08200
C 	C 	0.12400 0.30046 0.69954 0.45000
C 	C 	0.12270 0.27382 0.72618 -0.08200
C 	C 	0.62400 0.80046 0.69954 0.45000
C 	C 	0.62270 0.77382 0.72618 -0.08100
C 	C 	0.62400 0.30046 0.19954 0.45000
C 	C 	0.62270 0.27382 0.22618 -0.08100
C 	C 	0.87600 0.19954 0.19954 0.45000
C 	C 	0.87730 0.22618 0.22618 -0.08100
C 	C 	0.87600 0.69954 0.69954 0.45000
C 	C 	0.87730 0.72618 0.72618 -0.08100
C 	C 	0.37600 0.19954 0.69954 0.45000
C 	C 	0.37730 0.22618 0.72618 -0.08100
C 	C 	0.37600 0.69954 0.19954 0.45000
C 	C 	0.37730 0.72618 0.22618 -0.08100
C 	C 	0.19954 0.19954 0.87600 0.45000
C 	C 	0.22618 0.22618 0.87730 -0.08100
C 	C 	0.19954 0.69954 0.37600 0.45000
C 	C 	0.22618 0.72618 0.37730 -0.08100
C 	C 	0.69954 0.19954 0.37600 0.45000
C 	C 	0.72618 0.22618 0.37730 -0.08100
C 	C 	0.69954 0.69954 0.87600 0.45000
C 	C 	0.72618 0.72618 0.87730 -0.08100
C 	C 	0.80046 0.19954 0.12400 0.45000
C 	C 	0.77382 0.22618 0.12270 -0.08200
C 	C 	0.80046 0.69954 0.62400 0.45000
C 	C 	0.77382 0.72618 0.62270 -0.08100
C 	C 	0.30046 0.19954 0.62400 0.45000
C 	C 	0.27382 0.22618 0.62270 -0.08100
C 	C 	0.30046 0.69954 0.12400 0.45000
C 	C 	0.27382 0.72618 0.12270 -0.08200
C 	C 	0.80046 0.80046 0.87600 0.45000
C 	C 	0.77382 0.77382 0.87730 -0.08100
C 	C 	0.80046 0.30046 0.37600 0.45000
C 	C 	0.77382 0.27382 0.37730 -0.08100
C 	C 	0.30046 0.80046 0.37600 0.45000
C 	C 	0.27382 0.77382 0.37730 -0.08100
C 	C 	0.30046 0.30046 0.87600 0.45000
C 	C 	0.27382 0.27382 0.87730 -0.08100
C 	C 	0.19954 0.80046 0.12400 0.45000
C 	C 	0.22618 0.77382 0.12270 -0.08200
C 	C 	0.19954 0.30046 0.62400 0.45000
C 	C 	0.22618 0.27382 0.62270 -0.08100
C 	C 	0.69954 0.80046 0.62400 0.45000
C 	C 	0.72618 0.77382 0.62270 -0.08100
C 	C 	0.69954 0.30046 0.12400 0.45000
C 	C 	0.72618 0.27382 0.12270 -0.08200
C 	C 	0.19954 0.12400 0.80046 0.45000
C 	C 	0.22618 0.12270 0.77382 -0.08200
C 	C 	0.19954 0.62400 0.30046 0.45000
C 	C 	0.22618 0.62270 0.27382 -0.08100
C 	C 	0.69954 0.12400 0.30046 0.45000
C 	C 	0.72618 0.12270 0.27382 -0.08200
C 	C 	0.69954 0.62400 0.80046 0.45000
C 	C 	0.72618 0.62270 0.77382 -0.08100
C 	C 	0.19954 0.87600 0.19954 0.45000
C 	C 	0.22618 0.87730 0.22618 -0.08100
C 	C 	0.19954 0.37600 0.69954 0.45000
C 	C 	0.22618 0.37730 0.72618 -0.08100
C 	C 	0.69954 0.87600 0.69954 0.45000
C 	C 	0.72618 0.87730 0.72618 -0.08100
C 	C 	0.69954 0.37600 0.19954 0.45000
C 	C 	0.72618 0.37730 0.22618 -0.08100
C 	C 	0.80046 0.12400 0.19954 0.45000
C 	C 	0.77382 0.12270 0.22618 -0.08200
C 	C 	0.80046 0.62400 0.69954 0.45000
C 	C 	0.77382 0.62270 0.72618 -0.08100
C 	C 	0.30046 0.12400 0.69954 0.45000
C 	C 	0.27382 0.12270 0.72618 -0.08200
C 	C 	0.30046 0.62400 0.19954 0.45000
C 	C 	0.27382 0.62270 0.22618 -0.08100
C 	C 	0.80046 0.87600 0.80046 0.45000
C 	C 	0.77382 0.87730 0.77382 -0.08100
C 	C 	0.80046 0.37600 0.30046 0.45000
C 	C 	0.77382 0.37730 0.27382 -0.08100
C 	C 	0.30046 0.87600 0.30046 0.45000
C 	C 	0.27382 0.87730 0.27382 -0.08100
C 	C 	0.30046 0.37600 0.80046 0.45000
C 	C 	0.27382 0.37730 0.77382 -0.08100
Ni	Ni	0.27220 0.00000 -0.00000 1.13500
Ni	Ni	0.27220 0.50000 0.50000 1.14000
Ni	Ni	0.77220 0.00000 0.50000 1.13800
Ni	Ni	0.77220 0.50000 -0.00000 1.13800
Ni	Ni	0.72780 0.00000 -0.00000 1.13500
Ni	Ni	0.72780 0.50000 0.50000 1.14000
Ni	Ni	0.22780 0.00000 0.50000 1.13700
Ni	Ni	0.22780 0.50000 -0.00000 1.13700
Ni	Ni	-0.00000 0.27220 -0.00000 1.13500
Ni	Ni	-0.00000 0.77220 0.50000 1.13800
Ni	Ni	0.50000 0.27220 0.50000 1.14000
Ni	Ni	0.50000 0.77220 -0.00000 1.13800
Ni	Ni	-0.00000 0.72780 -0.00000 1.13500
Ni	Ni	-0.00000 0.22780 0.50000 1.13700
Ni	Ni	0.50000 0.72780 0.50000 1.14000
Ni	Ni	0.50000 0.22780 -0.00000 1.13700
Ni	Ni	-0.00000 -0.00000 0.27220 1.13500
Ni	Ni	-0.00000 0.50000 0.77220 1.13800
Ni	Ni	0.50000 0.00000 0.77220 1.13800
Ni	Ni	0.50000 0.50000 0.27220 1.14000
Ni	Ni	0.00000 0.00000 0.72780 1.13500
Ni	Ni	-0.00000 0.50000 0.22780 1.13700
Ni	Ni	0.50000 0.00000 0.22780 1.13700
Ni	Ni	0.50000 0.50000 0.72780 1.14000
