data_crystal

_cell_length_a 8.97110
_cell_length_b 14.14390
_cell_length_c 19.87820
_cell_angle_alpha 82.15100
_cell_angle_beta  82.39700
_cell_angle_gamma 74.90100

_symmetry_space_group_name_	'P 1'
_symmetry_space_group_name_H-M	'P 1'

loop_
_symmetry_equiv_pos_as_xyz
  x,y,z

loop_
_atom_site_label
_atom_site_type_symbol
_atom_site_fract_x
_atom_site_fract_y
_atom_site_fract_z
_atom_site_charge
Zn	Zn	0.38289 0.48184 0.63663 1.21000
Zn	Zn	0.49046 0.02607 0.88311 1.21000
V 	V 	0.99130 0.55990 0.58255 1.30600
V 	V 	0.77908 0.41481 0.69276 1.75600
V 	V 	0.97273 0.19668 0.74761 1.63100
V 	V 	0.83282 0.10977 0.90050 1.83500
V 	V 	0.84390 0.07187 0.06392 1.74900
C 	C 	0.97930 0.53210 0.93150 0.00800
C 	C 	0.99970 0.43260 0.95480 0.00500
C 	C 	0.01820 0.40110 0.02400 0.01200
C 	C 	0.39300 0.06320 0.54240 0.00100
C 	C 	0.45410 0.96530 0.56650 0.00500
C 	C 	0.55990 0.90160 0.52460 0.03300
C 	C 	0.95120 0.56770 0.85880 -0.06200
H 	H 	0.88270 0.53310 0.84440 0.01100
H 	H 	0.89980 0.63740 0.85530 0.05100
C 	C 	0.32040 0.55900 0.77510 0.10300
H 	H 	0.41890 0.57040 0.77020 -0.05100
C 	C 	0.13000 0.51490 0.75460 0.11800
H 	H 	0.06350 0.48880 0.73470 -0.10600
C 	C 	0.00230 0.35730 0.90570 -0.06000
H 	H 	0.93170 0.31700 0.92520 0.03000
H 	H 	0.96630 0.39190 0.86300 0.00100
C 	C 	0.39250 0.25130 0.85940 0.08300
H 	H 	0.49300 0.25360 0.84190 -0.05000
C 	C 	0.20240 0.19870 0.90230 0.07200
H 	H 	0.13810 0.15780 0.92120 -0.06500
C 	C 	0.02730 0.29420 0.05120 -0.05800
H 	H 	0.96980 0.29180 0.09600 0.02400
H 	H 	0.97810 0.26540 0.02140 0.01700
C 	C 	0.42720 0.18880 0.04160 0.09300
H 	H 	0.53070 0.18830 0.02820 -0.06100
C 	C 	0.23270 0.14100 0.08120 0.07100
H 	H 	0.16600 0.10210 0.10090 -0.05700
C 	C 	0.28150 0.13090 0.58840 -0.05100
H 	H 	0.19050 0.16460 0.56530 0.02100
H 	H 	0.24810 0.09270 0.62920 -0.01400
C 	C 	0.30520 0.30090 0.60140 0.06300
H 	H 	0.21620 0.33690 0.58170 -0.04100
C 	C 	0.51040 0.25840 0.64950 0.07700
H 	H 	0.59570 0.26270 0.66980 -0.03400
C 	C 	0.39870 0.92460 0.63780 -0.07000
H 	H 	0.28690 0.94860 0.64580 0.02400
H 	H 	0.42280 0.85330 0.64070 0.05600
C 	C 	0.40920 0.98970 0.74770 0.09700
H 	H 	0.30320 0.00730 0.76090 -0.11000
C 	C 	0.64670 0.96680 0.74250 0.10700
H 	H 	0.74450 0.96470 0.75430 -0.05900
C 	C 	0.63500 0.79860 0.55390 -0.11800
H 	H 	0.73080 0.77370 0.52590 0.09100
H 	H 	0.66110 0.80070 0.59940 0.08400
N 	N 	0.43960 0.60350 0.58080 -0.27800
N 	N 	0.41030 0.74950 0.52020 -0.09600
N 	N 	0.09710 0.55230 0.81250 -0.10600
N 	N 	0.22200 0.58050 0.82790 -0.11300
N 	N 	0.26970 0.51910 0.72830 -0.29300
N 	N 	0.15760 0.29390 0.89220 -0.10500
N 	N 	0.27760 0.33130 0.86390 -0.11000
N 	N 	0.35290 0.16710 0.88180 -0.27800
N 	N 	0.18790 0.23480 0.05630 -0.09800
N 	N 	0.31210 0.26720 0.02980 -0.09800
N 	N 	0.38310 0.11140 0.07410 -0.27500
N 	N 	0.35480 0.20390 0.60750 -0.10500
N 	N 	0.48540 0.17490 0.63990 -0.10700
N 	N 	0.40100 0.33850 0.62740 -0.28000
N 	N 	0.47170 0.95360 0.69040 -0.10200
N 	N 	0.62800 0.94050 0.68650 -0.10800
N 	N 	0.51630 0.99780 0.78390 -0.30100
N 	N 	0.53280 0.73000 0.55750 -0.09000
C 	C 	0.54700 0.64540 0.59140 0.09600
H 	H 	0.62430 0.61700 0.62010 -0.05500
C 	C 	0.35970 0.67000 0.53630 0.09400
H 	H 	0.27490 0.66060 0.51820 -0.03000
O 	O 	0.17680 0.51790 0.58730 -0.87900
O 	O 	0.93910 0.59560 0.50910 -0.94600
O 	O 	0.89430 0.47890 0.63260 -0.99900
O 	O 	0.84680 0.28450 0.69440 -0.92500
O 	O 	0.89060 0.19410 0.83610 -0.91700
O 	O 	0.67370 0.08000 0.89240 -0.79300
O 	O 	0.98420 0.00340 0.90130 -0.93100
O 	O 	0.83620 0.14740 0.98060 -0.85200
O 	O 	0.70400 0.01970 0.07950 -0.84500
O 	O 	0.94290 0.66650 0.60910 -0.51100
O 	O 	0.60120 0.44490 0.67340 -0.77300
V 	V 	0.01310 0.51560 0.56089 1.22500
Zn	Zn	0.61711 0.51816 0.36337 1.20900
Zn	Zn	0.50954 0.97393 0.11689 1.20900
V 	V 	0.00870 0.44010 0.41745 1.30500
V 	V 	0.22092 0.58519 0.30724 1.75500
V 	V 	0.02727 0.80332 0.25239 1.63000
V 	V 	0.16718 0.89023 0.09950 1.83400
V 	V 	0.15610 0.92813 0.93608 1.74800
C 	C 	0.02070 0.46790 0.06850 0.00700
C 	C 	0.00030 0.56740 0.04520 0.00500
C 	C 	0.98180 0.59890 0.97600 0.01200
C 	C 	0.60700 0.93680 0.45760 0.00100
C 	C 	0.54590 0.03470 0.43350 0.00500
C 	C 	0.44010 0.09840 0.47540 0.03300
C 	C 	0.04880 0.43230 0.14120 -0.06200
H 	H 	0.11730 0.46690 0.15560 0.01100
H 	H 	0.10020 0.36260 0.14470 0.05100
C 	C 	0.67960 0.44100 0.22490 0.10300
H 	H 	0.58110 0.42960 0.22980 -0.05100
C 	C 	0.87000 0.48510 0.24540 0.11800
H 	H 	0.93650 0.51120 0.26530 -0.10600
C 	C 	0.99770 0.64270 0.09430 -0.06000
H 	H 	0.06830 0.68300 0.07480 0.03000
H 	H 	0.03370 0.60810 0.13700 0.00100
C 	C 	0.60750 0.74870 0.14060 0.08300
H 	H 	0.50700 0.74640 0.15810 -0.05000
C 	C 	0.79760 0.80130 0.09770 0.07200
H 	H 	0.86190 0.84220 0.07880 -0.06500
C 	C 	0.97270 0.70580 0.94880 -0.05800
H 	H 	0.03020 0.70820 0.90400 0.02400
H 	H 	0.02190 0.73460 0.97860 0.01700
C 	C 	0.57280 0.81120 0.95840 0.09300
H 	H 	0.46930 0.81170 0.97180 -0.06100
C 	C 	0.76730 0.85900 0.91880 0.07100
H 	H 	0.83400 0.89790 0.89910 -0.05700
C 	C 	0.71850 0.86910 0.41160 -0.05100
H 	H 	0.80950 0.83540 0.43470 0.02100
H 	H 	0.75190 0.90730 0.37080 -0.01400
C 	C 	0.69480 0.69910 0.39860 0.06300
H 	H 	0.78380 0.66310 0.41830 -0.04100
C 	C 	0.48960 0.74160 0.35050 0.07700
H 	H 	0.40430 0.73730 0.33020 -0.03400
C 	C 	0.60130 0.07540 0.36220 -0.07000
H 	H 	0.71310 0.05140 0.35420 0.02400
H 	H 	0.57720 0.14670 0.35930 0.05600
C 	C 	0.59080 0.01030 0.25230 0.09700
H 	H 	0.69680 0.99270 0.23910 -0.11000
C 	C 	0.35330 0.03320 0.25750 0.10700
H 	H 	0.25550 0.03530 0.24570 -0.05900
C 	C 	0.36500 0.20140 0.44610 -0.11800
H 	H 	0.26920 0.22630 0.47410 0.09100
H 	H 	0.33890 0.19930 0.40060 0.08400
N 	N 	0.56040 0.39650 0.41920 -0.27800
N 	N 	0.58970 0.25050 0.47980 -0.09600
N 	N 	0.90290 0.44770 0.18750 -0.10600
N 	N 	0.77800 0.41950 0.17210 -0.11300
N 	N 	0.73030 0.48090 0.27170 -0.29300
N 	N 	0.84240 0.70610 0.10780 -0.10500
N 	N 	0.72240 0.66870 0.13610 -0.11000
N 	N 	0.64710 0.83290 0.11820 -0.27800
N 	N 	0.81210 0.76520 0.94370 -0.09800
N 	N 	0.68790 0.73280 0.97020 -0.09800
N 	N 	0.61690 0.88860 0.92590 -0.27500
N 	N 	0.64520 0.79610 0.39250 -0.10500
N 	N 	0.51460 0.82510 0.36010 -0.10700
N 	N 	0.59900 0.66150 0.37260 -0.28000
N 	N 	0.52830 0.04640 0.30960 -0.10200
N 	N 	0.37200 0.05950 0.31350 -0.10800
N 	N 	0.48370 0.00220 0.21610 -0.30100
N 	N 	0.46720 0.27000 0.44250 -0.09000
C 	C 	0.45300 0.35460 0.40860 0.09600
H 	H 	0.37570 0.38300 0.37990 -0.05500
C 	C 	0.64030 0.33000 0.46370 0.09400
H 	H 	0.72510 0.33940 0.48180 -0.03000
O 	O 	0.82320 0.48210 0.41270 -0.87900
O 	O 	0.06090 0.40440 0.49090 -0.94600
O 	O 	0.10570 0.52110 0.36740 -0.99900
O 	O 	0.15320 0.71550 0.30560 -0.92500
O 	O 	0.10940 0.80590 0.16390 -0.91700
O 	O 	0.32630 0.92000 0.10760 -0.79300
O 	O 	0.01580 0.99660 0.09870 -0.93100
O 	O 	0.16380 0.85260 0.01940 -0.85200
O 	O 	0.29600 0.98030 0.92050 -0.84500
O 	O 	0.05710 0.33350 0.39090 -0.51100
O 	O 	0.39880 0.55510 0.32660 -0.77300
V 	V 	0.98690 0.48440 0.43911 1.22500
