data_crystal

_cell_length_a 10.51970
_cell_length_b 10.51970
_cell_length_c 66.08400
_cell_angle_alpha 90.00000
_cell_angle_beta  90.00000
_cell_angle_gamma 120.00000

_symmetry_space_group_name_	'P 1'
_symmetry_space_group_name_H-M	'P 1'

loop_
_symmetry_equiv_pos_as_xyz
  x,y,z

loop_
_atom_site_label
_atom_site_type_symbol
_atom_site_fract_x
_atom_site_fract_y
_atom_site_fract_z
_atom_site_charge
C 	C 	0.85500 0.88350 0.50011 0.00500
C 	C 	0.69860 0.75960 0.50113 -0.10600
H 	H 	0.69560 0.67890 0.50860 0.07700
H 	H 	0.64060 0.79260 0.50850 0.07500
C 	C 	0.46990 0.57550 0.46047 0.08300
H 	H 	0.38120 0.50520 0.45490 -0.02700
C 	C 	0.68400 0.74110 0.46299 0.09000
H 	H 	0.77870 0.81610 0.46010 -0.02000
N 	N 	0.63180 0.70610 0.48119 -0.08800
N 	N 	0.48820 0.60000 0.48004 -0.09300
N 	N 	0.58940 0.66000 0.44911 -0.22500
C 	C 	0.52167 0.21683 0.83344 -0.00400
C 	C 	0.36527 0.09293 0.83446 -0.10000
H 	H 	0.36227 0.01223 0.84193 0.07200
H 	H 	0.30727 0.12593 0.84183 0.07000
C 	C 	0.13657 0.90883 0.79380 0.08600
H 	H 	0.04787 0.83853 0.78823 -0.02900
C 	C 	0.35067 0.07443 0.79632 0.07700
H 	H 	0.44537 0.14943 0.79343 -0.02000
N 	N 	0.29847 0.03943 0.81452 -0.09200
N 	N 	0.15487 0.93333 0.81337 -0.09000
N 	N 	0.25607 0.99333 0.78244 -0.21800
C 	C 	0.18833 0.55017 0.16678 0.00900
C 	C 	0.03193 0.42627 0.16780 -0.13600
H 	H 	0.02893 0.34557 0.17527 0.08300
H 	H 	0.97393 0.45927 0.17517 0.09000
C 	C 	0.80323 0.24217 0.12714 0.08400
H 	H 	0.71453 0.17187 0.12157 -0.02800
C 	C 	0.01733 0.40777 0.12966 0.06600
H 	H 	0.11203 0.48277 0.12677 -0.01600
N 	N 	0.96513 0.37277 0.14786 -0.07400
N 	N 	0.82153 0.26667 0.14671 -0.09400
N 	N 	0.92273 0.32667 0.11578 -0.21800
C 	C 	0.11650 0.97150 0.50011 -0.00100
C 	C 	0.24040 0.93900 0.50113 -0.08900
H 	H 	0.32110 0.01670 0.50860 0.06800
H 	H 	0.20740 0.84800 0.50850 0.06800
C 	C 	0.42450 0.89440 0.46047 0.08400
H 	H 	0.49480 0.87600 0.45490 -0.02600
C 	C 	0.25890 0.94290 0.46299 0.09100
H 	H 	0.18390 0.96260 0.46010 -0.02300
N 	N 	0.29390 0.92570 0.48119 -0.09000
N 	N 	0.40000 0.88820 0.48004 -0.09200
N 	N 	0.34000 0.92940 0.44911 -0.22500
C 	C 	0.78317 0.30483 0.83344 0.00000
C 	C 	0.90707 0.27233 0.83446 -0.10300
H 	H 	0.98777 0.35003 0.84193 0.07900
H 	H 	0.87407 0.18133 0.84183 0.07300
C 	C 	0.09117 0.22773 0.79380 0.08000
H 	H 	0.16147 0.20933 0.78823 -0.02800
C 	C 	0.92557 0.27623 0.79632 0.09900
H 	H 	0.85057 0.29593 0.79343 -0.02500
N 	N 	0.96057 0.25903 0.81452 -0.08700
N 	N 	0.06667 0.22153 0.81337 -0.09800
N 	N 	0.00667 0.26273 0.78244 -0.23200
C 	C 	0.44983 0.63817 0.16678 0.00200
C 	C 	0.57373 0.60567 0.16780 -0.10400
H 	H 	0.65443 0.68337 0.17527 0.07800
H 	H 	0.54073 0.51467 0.17517 0.07400
C 	C 	0.75783 0.56107 0.12714 0.08400
H 	H 	0.82813 0.54267 0.12157 -0.02500
C 	C 	0.59223 0.60957 0.12966 0.09000
H 	H 	0.51723 0.62927 0.12677 -0.02300
N 	N 	0.62723 0.59237 0.14786 -0.08900
N 	N 	0.73333 0.55487 0.14671 -0.09200
N 	N 	0.67333 0.59607 0.11578 -0.22500
C 	C 	0.02850 0.14500 0.50011 -0.00200
C 	C 	0.06100 0.30140 0.50113 -0.11600
H 	H 	0.98330 0.30440 0.50860 0.08500
H 	H 	0.15200 0.35940 0.50850 0.07600
C 	C 	0.10560 0.53010 0.46047 0.08300
H 	H 	0.12400 0.61880 0.45490 -0.02700
C 	C 	0.05710 0.31600 0.46299 0.08800
H 	H 	0.03740 0.22130 0.46010 -0.02500
N 	N 	0.07430 0.36820 0.48119 -0.08800
N 	N 	0.11180 0.51180 0.48004 -0.09400
N 	N 	0.07060 0.41060 0.44911 -0.22600
C 	C 	0.69517 0.47833 0.83344 0.00300
C 	C 	0.72767 0.63473 0.83446 -0.10500
H 	H 	0.64997 0.63773 0.84193 0.07800
H 	H 	0.81867 0.69273 0.84183 0.07500
C 	C 	0.77227 0.86343 0.79380 0.08500
H 	H 	0.79067 0.95213 0.78823 -0.02300
C 	C 	0.72377 0.64933 0.79632 0.09100
H 	H 	0.70407 0.55463 0.79343 -0.02200
N 	N 	0.74097 0.70153 0.81452 -0.08800
N 	N 	0.77847 0.84513 0.81337 -0.09100
N 	N 	0.73727 0.74393 0.78244 -0.22400
C 	C 	0.36183 0.81167 0.16678 -0.00400
C 	C 	0.39433 0.96807 0.16780 -0.08000
H 	H 	0.31663 0.97107 0.17527 0.07200
H 	H 	0.48533 0.02607 0.17517 0.06100
C 	C 	0.43893 0.19677 0.12714 0.08200
H 	H 	0.45733 0.28547 0.12157 -0.02700
C 	C 	0.39043 0.98267 0.12966 0.10600
H 	H 	0.37073 0.88797 0.12677 -0.02800
N 	N 	0.40763 0.03487 0.14786 -0.10000
N 	N 	0.44513 0.17847 0.14671 -0.09300
N 	N 	0.40393 0.07727 0.11578 -0.23100
C 	C 	0.88350 0.85500 0.99989 0.00600
C 	C 	0.75960 0.69860 0.99887 -0.10600
H 	H 	0.67890 0.69560 0.99140 0.07700
H 	H 	0.79260 0.64060 0.99150 0.07500
C 	C 	0.57550 0.46990 0.03953 0.08300
H 	H 	0.50520 0.38120 0.04510 -0.02700
C 	C 	0.74110 0.68400 0.03701 0.09000
H 	H 	0.81610 0.77870 0.03990 -0.02000
N 	N 	0.70610 0.63180 0.01881 -0.08800
N 	N 	0.60000 0.48820 0.01996 -0.09300
N 	N 	0.66000 0.58940 0.05089 -0.22500
C 	C 	0.55017 0.18833 0.33322 0.00900
C 	C 	0.42627 0.03193 0.33220 -0.13600
H 	H 	0.34557 0.02893 0.32473 0.08300
H 	H 	0.45927 0.97393 0.32483 0.09000
C 	C 	0.24217 0.80323 0.37286 0.08400
H 	H 	0.17187 0.71453 0.37843 -0.02800
C 	C 	0.40777 0.01733 0.37034 0.06600
H 	H 	0.48277 0.11203 0.37323 -0.01600
N 	N 	0.37277 0.96513 0.35214 -0.07400
N 	N 	0.26667 0.82153 0.35329 -0.09400
N 	N 	0.32667 0.92273 0.38422 -0.21800
C 	C 	0.21683 0.52167 0.66656 -0.00400
C 	C 	0.09293 0.36527 0.66554 -0.10000
H 	H 	0.01223 0.36227 0.65807 0.07200
H 	H 	0.12593 0.30727 0.65817 0.07000
C 	C 	0.90883 0.13657 0.70620 0.08600
H 	H 	0.83853 0.04787 0.71177 -0.02900
C 	C 	0.07443 0.35067 0.70368 0.07700
H 	H 	0.14943 0.44537 0.70657 -0.02000
N 	N 	0.03943 0.29847 0.68548 -0.09200
N 	N 	0.93333 0.15487 0.68663 -0.09000
N 	N 	0.99333 0.25607 0.71756 -0.21800
C 	C 	0.97150 0.11650 0.99989 -0.00100
C 	C 	0.93900 0.24040 0.99887 -0.08900
H 	H 	0.01670 0.32110 0.99140 0.06800
H 	H 	0.84800 0.20740 0.99150 0.06800
C 	C 	0.89440 0.42450 0.03953 0.08400
H 	H 	0.87600 0.49480 0.04510 -0.02600
C 	C 	0.94290 0.25890 0.03701 0.09100
H 	H 	0.96260 0.18390 0.03990 -0.02300
N 	N 	0.92570 0.29390 0.01881 -0.09000
N 	N 	0.88820 0.40000 0.01996 -0.09200
N 	N 	0.92940 0.34000 0.05089 -0.22500
C 	C 	0.63817 0.44983 0.33322 0.00200
C 	C 	0.60567 0.57373 0.33220 -0.10400
H 	H 	0.68337 0.65443 0.32473 0.07800
H 	H 	0.51467 0.54073 0.32483 0.07400
C 	C 	0.56107 0.75783 0.37286 0.08400
H 	H 	0.54267 0.82813 0.37843 -0.02500
C 	C 	0.60957 0.59223 0.37034 0.09000
H 	H 	0.62927 0.51723 0.37323 -0.02300
N 	N 	0.59237 0.62723 0.35214 -0.08900
N 	N 	0.55487 0.73333 0.35329 -0.09200
N 	N 	0.59607 0.67333 0.38422 -0.22500
C 	C 	0.30483 0.78317 0.66656 0.00000
C 	C 	0.27233 0.90707 0.66554 -0.10300
H 	H 	0.35003 0.98777 0.65807 0.07900
H 	H 	0.18133 0.87407 0.65817 0.07300
C 	C 	0.22773 0.09117 0.70620 0.08000
H 	H 	0.20933 0.16147 0.71177 -0.02800
C 	C 	0.27623 0.92557 0.70368 0.09900
H 	H 	0.29593 0.85057 0.70657 -0.02500
N 	N 	0.25903 0.96057 0.68548 -0.08700
N 	N 	0.22153 0.06667 0.68663 -0.09800
N 	N 	0.26273 0.00667 0.71756 -0.23200
C 	C 	0.14500 0.02850 0.99989 -0.00200
C 	C 	0.30140 0.06100 0.99887 -0.11600
H 	H 	0.30440 0.98330 0.99140 0.08500
H 	H 	0.35940 0.15200 0.99150 0.07600
C 	C 	0.53010 0.10560 0.03953 0.08300
H 	H 	0.61880 0.12400 0.04510 -0.02700
C 	C 	0.31600 0.05710 0.03701 0.08800
H 	H 	0.22130 0.03740 0.03990 -0.02500
N 	N 	0.36820 0.07430 0.01881 -0.08800
N 	N 	0.51180 0.11180 0.01996 -0.09400
N 	N 	0.41060 0.07060 0.05089 -0.22600
C 	C 	0.81167 0.36183 0.33322 -0.00400
C 	C 	0.96807 0.39433 0.33220 -0.08000
H 	H 	0.97107 0.31663 0.32473 0.07200
H 	H 	0.02607 0.48533 0.32483 0.06100
C 	C 	0.19677 0.43893 0.37286 0.08200
H 	H 	0.28547 0.45733 0.37843 -0.02700
C 	C 	0.98267 0.39043 0.37034 0.10600
H 	H 	0.88797 0.37073 0.37323 -0.02800
N 	N 	0.03487 0.40763 0.35214 -0.10000
N 	N 	0.17847 0.44513 0.35329 -0.09300
N 	N 	0.07727 0.40393 0.38422 -0.23100
C 	C 	0.47833 0.69517 0.66656 0.00300
C 	C 	0.63473 0.72767 0.66554 -0.10500
H 	H 	0.63773 0.64997 0.65807 0.07800
H 	H 	0.69273 0.81867 0.65817 0.07500
C 	C 	0.86343 0.77227 0.70620 0.08500
H 	H 	0.95213 0.79067 0.71177 -0.02300
C 	C 	0.64933 0.72377 0.70368 0.09100
H 	H 	0.55463 0.70407 0.70657 -0.02200
N 	N 	0.70153 0.74097 0.68548 -0.08800
N 	N 	0.84513 0.77847 0.68663 -0.09100
N 	N 	0.74393 0.73727 0.71756 -0.22400
C 	C 	0.14500 0.11650 0.49989 -0.00400
C 	C 	0.30140 0.24040 0.49887 -0.10100
H 	H 	0.30440 0.32110 0.49140 0.07600
H 	H 	0.35940 0.20740 0.49150 0.07100
C 	C 	0.53010 0.42450 0.53953 0.08300
H 	H 	0.61880 0.49480 0.54510 -0.02700
C 	C 	0.31600 0.25890 0.53701 0.09000
H 	H 	0.22130 0.18390 0.53990 -0.02500
N 	N 	0.36820 0.29390 0.51881 -0.08900
N 	N 	0.51180 0.40000 0.51996 -0.09300
N 	N 	0.41060 0.34000 0.55089 -0.22600
C 	C 	0.81167 0.44983 0.83322 -0.00400
C 	C 	0.96807 0.57373 0.83220 -0.08000
H 	H 	0.97107 0.65443 0.82473 0.07300
H 	H 	0.02607 0.54073 0.82483 0.06100
C 	C 	0.19677 0.75783 0.87286 0.08300
H 	H 	0.28547 0.82813 0.87843 -0.02500
C 	C 	0.98267 0.59223 0.87034 0.10600
H 	H 	0.88797 0.51723 0.87323 -0.02700
N 	N 	0.03487 0.62723 0.85214 -0.09900
N 	N 	0.17847 0.73333 0.85329 -0.09200
N 	N 	0.07727 0.67333 0.88422 -0.23100
C 	C 	0.47833 0.78317 0.16656 0.00400
C 	C 	0.63473 0.90707 0.16554 -0.10500
H 	H 	0.63773 0.98777 0.15807 0.08100
H 	H 	0.69273 0.87407 0.15817 0.07600
C 	C 	0.86343 0.09117 0.20620 0.08200
H 	H 	0.95213 0.16147 0.21177 -0.02400
C 	C 	0.64933 0.92557 0.20368 0.10100
H 	H 	0.55463 0.85057 0.20657 -0.02500
N 	N 	0.70153 0.96057 0.18548 -0.08700
N 	N 	0.84513 0.06667 0.18663 -0.09500
N 	N 	0.74393 0.00667 0.21756 -0.23100
C 	C 	0.88350 0.02850 0.49989 0.00300
C 	C 	0.75960 0.06100 0.49887 -0.11800
H 	H 	0.67890 0.98330 0.49140 0.08600
H 	H 	0.79260 0.15200 0.49150 0.07800
C 	C 	0.57550 0.10560 0.53953 0.08300
H 	H 	0.50520 0.12400 0.54510 -0.02800
C 	C 	0.74110 0.05710 0.53701 0.08800
H 	H 	0.81610 0.03740 0.53990 -0.02200
N 	N 	0.70610 0.07430 0.51881 -0.08700
N 	N 	0.60000 0.11180 0.51996 -0.09400
N 	N 	0.66000 0.07060 0.55089 -0.22600
C 	C 	0.55017 0.36183 0.83322 0.00200
C 	C 	0.42627 0.39433 0.83220 -0.10400
H 	H 	0.34557 0.31663 0.82473 0.07600
H 	H 	0.45927 0.48533 0.82483 0.07300
C 	C 	0.24217 0.43893 0.87286 0.08300
H 	H 	0.17187 0.45733 0.87843 -0.02900
C 	C 	0.40777 0.39043 0.87034 0.08900
H 	H 	0.48277 0.37073 0.87323 -0.02300
N 	N 	0.37277 0.40763 0.85214 -0.08900
N 	N 	0.26667 0.44513 0.85329 -0.09400
N 	N 	0.32667 0.40393 0.88422 -0.22600
C 	C 	0.21683 0.69517 0.16656 -0.00100
C 	C 	0.09293 0.72767 0.16554 -0.10200
H 	H 	0.01223 0.64997 0.15807 0.07300
H 	H 	0.12593 0.81867 0.15817 0.07200
C 	C 	0.90883 0.77227 0.20620 0.08700
H 	H 	0.83853 0.79067 0.21177 -0.02500
C 	C 	0.07443 0.72377 0.20368 0.07800
H 	H 	0.14943 0.70407 0.20657 -0.01900
N 	N 	0.03943 0.74097 0.18548 -0.09100
N 	N 	0.93333 0.77847 0.18663 -0.08800
N 	N 	0.99333 0.73727 0.21756 -0.21700
C 	C 	0.97150 0.85500 0.49989 0.00400
C 	C 	0.93900 0.69860 0.49887 -0.09100
H 	H 	0.01670 0.69560 0.49140 0.06900
H 	H 	0.84800 0.64060 0.49150 0.07000
C 	C 	0.89440 0.46990 0.53953 0.08400
H 	H 	0.87600 0.38120 0.54510 -0.02600
C 	C 	0.94290 0.68400 0.53701 0.09100
H 	H 	0.96260 0.77870 0.53990 -0.02000
N 	N 	0.92570 0.63180 0.51881 -0.09000
N 	N 	0.88820 0.48820 0.51996 -0.09200
N 	N 	0.92940 0.58940 0.55089 -0.22400
C 	C 	0.63817 0.18833 0.83322 0.00900
C 	C 	0.60567 0.03193 0.83220 -0.13600
H 	H 	0.68337 0.02893 0.82473 0.08300
H 	H 	0.51467 0.97393 0.82483 0.09000
C 	C 	0.56107 0.80323 0.87286 0.08500
H 	H 	0.54267 0.71453 0.87843 -0.02700
C 	C 	0.60957 0.01733 0.87034 0.06700
H 	H 	0.62927 0.11203 0.87323 -0.01600
N 	N 	0.59237 0.96513 0.85214 -0.07400
N 	N 	0.55487 0.82153 0.85329 -0.09300
N 	N 	0.59607 0.92273 0.88422 -0.21700
C 	C 	0.30483 0.52167 0.16656 -0.00300
C 	C 	0.27233 0.36527 0.16554 -0.10100
H 	H 	0.35003 0.36227 0.15807 0.07600
H 	H 	0.18133 0.30727 0.15817 0.07100
C 	C 	0.22773 0.13657 0.20620 0.08200
H 	H 	0.20933 0.04787 0.21177 -0.03100
C 	C 	0.27623 0.35067 0.20368 0.08800
H 	H 	0.29593 0.44537 0.20657 -0.02300
N 	N 	0.25903 0.29847 0.18548 -0.09000
N 	N 	0.22153 0.15487 0.18663 -0.09600
N 	N 	0.26273 0.25607 0.21756 -0.22600
C 	C 	0.11650 0.14500 0.00011 -0.00400
C 	C 	0.24040 0.30140 0.00113 -0.10100
H 	H 	0.32110 0.30440 0.00860 0.07600
H 	H 	0.20740 0.35940 0.00850 0.07100
C 	C 	0.42450 0.53010 0.96047 0.08300
H 	H 	0.49480 0.61880 0.95490 -0.02700
C 	C 	0.25890 0.31600 0.96299 0.09000
H 	H 	0.18390 0.22130 0.96010 -0.02500
N 	N 	0.29390 0.36820 0.98119 -0.08900
N 	N 	0.40000 0.51180 0.98004 -0.09300
N 	N 	0.34000 0.41060 0.94911 -0.22600
C 	C 	0.78317 0.47833 0.33344 0.00400
C 	C 	0.90707 0.63473 0.33446 -0.10500
H 	H 	0.98777 0.63773 0.34193 0.08100
H 	H 	0.87407 0.69273 0.34183 0.07600
C 	C 	0.09117 0.86343 0.29380 0.08200
H 	H 	0.16147 0.95213 0.28823 -0.02400
C 	C 	0.92557 0.64933 0.29632 0.10100
H 	H 	0.85057 0.55463 0.29343 -0.02500
N 	N 	0.96057 0.70153 0.31452 -0.08700
N 	N 	0.06667 0.84513 0.31337 -0.09500
N 	N 	0.00667 0.74393 0.28244 -0.23100
C 	C 	0.44983 0.81167 0.66678 -0.00400
C 	C 	0.57373 0.96807 0.66780 -0.08000
H 	H 	0.65443 0.97107 0.67527 0.07300
H 	H 	0.54073 0.02607 0.67517 0.06100
C 	C 	0.75783 0.19677 0.62714 0.08300
H 	H 	0.82813 0.28547 0.62157 -0.02500
C 	C 	0.59223 0.98267 0.62966 0.10600
H 	H 	0.51723 0.88797 0.62677 -0.02700
N 	N 	0.62723 0.03487 0.64786 -0.09900
N 	N 	0.73333 0.17847 0.64671 -0.09200
N 	N 	0.67333 0.07727 0.61578 -0.23100
C 	C 	0.02850 0.88350 0.00011 0.00300
C 	C 	0.06100 0.75960 0.00113 -0.11800
H 	H 	0.98330 0.67890 0.00860 0.08600
H 	H 	0.15200 0.79260 0.00850 0.07800
C 	C 	0.10560 0.57550 0.96047 0.08300
H 	H 	0.12400 0.50520 0.95490 -0.02800
C 	C 	0.05710 0.74110 0.96299 0.08800
H 	H 	0.03740 0.81610 0.96010 -0.02200
N 	N 	0.07430 0.70610 0.98119 -0.08700
N 	N 	0.11180 0.60000 0.98004 -0.09400
N 	N 	0.07060 0.66000 0.94911 -0.22600
C 	C 	0.69517 0.21683 0.33344 -0.00100
C 	C 	0.72767 0.09293 0.33446 -0.10200
H 	H 	0.64997 0.01223 0.34193 0.07300
H 	H 	0.81867 0.12593 0.34183 0.07200
C 	C 	0.77227 0.90883 0.29380 0.08700
H 	H 	0.79067 0.83853 0.28823 -0.02500
C 	C 	0.72377 0.07443 0.29632 0.07800
H 	H 	0.70407 0.14943 0.29343 -0.01900
N 	N 	0.74097 0.03943 0.31452 -0.09100
N 	N 	0.77847 0.93333 0.31337 -0.08800
N 	N 	0.73727 0.99333 0.28244 -0.21700
C 	C 	0.36183 0.55017 0.66678 0.00200
C 	C 	0.39433 0.42627 0.66780 -0.10400
H 	H 	0.31663 0.34557 0.67527 0.07600
H 	H 	0.48533 0.45927 0.67517 0.07300
C 	C 	0.43893 0.24217 0.62714 0.08300
H 	H 	0.45733 0.17187 0.62157 -0.02900
C 	C 	0.39043 0.40777 0.62966 0.08900
H 	H 	0.37073 0.48277 0.62677 -0.02300
N 	N 	0.40763 0.37277 0.64786 -0.08900
N 	N 	0.44513 0.26667 0.64671 -0.09400
N 	N 	0.40393 0.32667 0.61578 -0.22600
C 	C 	0.85500 0.97150 0.00011 0.00400
C 	C 	0.69860 0.93900 0.00113 -0.09100
H 	H 	0.69560 0.01670 0.00860 0.06900
H 	H 	0.64060 0.84800 0.00850 0.07000
C 	C 	0.46990 0.89440 0.96047 0.08400
H 	H 	0.38120 0.87600 0.95490 -0.02600
C 	C 	0.68400 0.94290 0.96299 0.09100
H 	H 	0.77870 0.96260 0.96010 -0.02000
N 	N 	0.63180 0.92570 0.98119 -0.09000
N 	N 	0.48820 0.88820 0.98004 -0.09200
N 	N 	0.58940 0.92940 0.94911 -0.22400
C 	C 	0.52167 0.30483 0.33344 -0.00300
C 	C 	0.36527 0.27233 0.33446 -0.10100
H 	H 	0.36227 0.35003 0.34193 0.07600
H 	H 	0.30727 0.18133 0.34183 0.07100
C 	C 	0.13657 0.22773 0.29380 0.08200
H 	H 	0.04787 0.20933 0.28823 -0.03100
C 	C 	0.35067 0.27623 0.29632 0.08800
H 	H 	0.44537 0.29593 0.29343 -0.02300
N 	N 	0.29847 0.25903 0.31452 -0.09000
N 	N 	0.15487 0.22153 0.31337 -0.09600
N 	N 	0.25607 0.26273 0.28244 -0.22600
C 	C 	0.18833 0.63817 0.66678 0.00900
C 	C 	0.03193 0.60567 0.66780 -0.13600
H 	H 	0.02893 0.68337 0.67527 0.08300
H 	H 	0.97393 0.51467 0.67517 0.09000
C 	C 	0.80323 0.56107 0.62714 0.08500
H 	H 	0.71453 0.54267 0.62157 -0.02700
C 	C 	0.01733 0.60957 0.62966 0.06700
H 	H 	0.11203 0.62927 0.62677 -0.01600
N 	N 	0.96513 0.59237 0.64786 -0.07400
N 	N 	0.82153 0.55487 0.64671 -0.09300
N 	N 	0.92273 0.59607 0.61578 -0.21700
Ag	Ag	0.59414 0.66667 0.41667 0.47400
Ag	Ag	0.26081 -0.00000 0.75000 0.46700
Ag	Ag	0.33333 0.92748 0.41667 0.47400
Ag	Ag	-0.00000 0.26081 0.75000 0.46700
Ag	Ag	0.07252 0.40586 0.41667 0.47100
Ag	Ag	0.73919 0.73919 0.75000 0.47600
Ag	Ag	0.66667 0.59414 0.08333 0.47400
Ag	Ag	0.92748 0.33333 0.08333 0.47400
Ag	Ag	0.40586 0.07252 0.08333 0.47100
Ag	Ag	0.40586 0.33333 0.58333 0.47200
Ag	Ag	0.66667 0.07252 0.58333 0.47200
Ag	Ag	0.92748 0.59414 0.58333 0.47500
Ag	Ag	0.33333 0.40586 0.91667 0.47200
Ag	Ag	0.00000 0.73919 0.25000 0.47000
Ag	Ag	0.07252 0.66667 0.91667 0.47200
Ag	Ag	0.73919 0.00000 0.25000 0.47000
Ag	Ag	0.59414 0.92748 0.91667 0.47500
Ag	Ag	0.26081 0.26081 0.25000 0.47100
