data_crystal

_cell_length_a 35.11050
_cell_length_b 14.80800
_cell_length_c 31.42410
_cell_angle_alpha 90.00000
_cell_angle_beta  102.54400
_cell_angle_gamma 90.00000

_symmetry_space_group_name_	'P 1'
_symmetry_space_group_name_H-M	'P 1'

loop_
_symmetry_equiv_pos_as_xyz
  x,y,z

loop_
_atom_site_label
_atom_site_type_symbol
_atom_site_fract_x
_atom_site_fract_y
_atom_site_fract_z
_atom_site_charge
O 	O 	0.61010 0.35020 0.62930 -0.25000
C 	C 	0.64670 0.30900 0.63400 0.21300
H 	H 	0.65540 0.31090 0.60610 -0.02600
H 	H 	0.64530 0.24500 0.64270 0.00200
C 	C 	0.67460 0.36000 0.66840 -0.36900
C 	C 	0.65100 0.43650 0.68270 -0.16700
H 	H 	0.64100 0.41500 0.70840 0.16200
C 	C 	0.67280 0.52700 0.69530 0.15100
H 	H 	0.69770 0.51740 0.71670 0.00200
H 	H 	0.65650 0.57000 0.70770 0.04500
C 	C 	0.68110 0.56660 0.64660 0.06400
C 	C 	0.65450 0.54900 0.60960 0.07200
H 	H 	0.65840 0.57730 0.58390 0.02400
C 	C 	0.62460 0.49700 0.60530 -0.30200
H 	H 	0.60750 0.49210 0.57750 0.13800
C 	C 	0.61580 0.44400 0.64320 0.68300
O 	O 	0.70760 0.62100 0.65270 -0.20200
C 	C 	0.58090 0.48300 0.65500 -0.27600
S 	S 	0.54410 0.41260 0.66210 0.18000
C 	C 	0.51620 0.49500 0.67120 1.36800
H 	H 	0.49020 0.48680 0.67480 -0.39900
C 	C 	0.53700 0.58700 0.67340 -2.85200
H 	H 	0.52770 0.64330 0.68140 0.81700
C 	C 	0.57230 0.57000 0.66110 4.67900
H 	H 	0.58940 0.61770 0.65730 -1.50800
C 	C 	0.71100 0.34100 0.68140 0.90400
H 	H 	0.72570 0.38230 0.70160 -0.08900
C 	C 	0.73310 0.26400 0.66940 -0.92200
O 	O 	0.71590 0.20350 0.64530 0.09500
O 	O 	0.77030 0.26700 0.67880 9.50300
C 	C 	0.79600 0.20500 0.66900 -9.32300
H 	H 	0.82030 0.20400 0.69260 3.57200
H 	H 	0.80410 0.22260 0.64160 2.55600
C 	C 	0.77900 0.11300 0.66400 8.52800
H 	H 	0.79770 0.07000 0.65690 -2.50600
H 	H 	0.77160 0.09540 0.69110 -1.94000
H 	H 	0.75540 0.11390 0.64020 -2.49800
O 	O 	0.24740 0.49200 0.20170 -0.44700
C 	C 	0.22850 0.41100 0.19800 0.55400
H 	H 	0.21770 0.39910 0.22370 -0.53000
H 	H 	0.24680 0.36150 0.19480 -0.13000
C 	C 	0.19570 0.41500 0.15700 -0.07700
C 	C 	0.19870 0.51700 0.15200 0.03100
H 	H 	0.21490 0.52320 0.12930 0.04200
C 	C 	0.15990 0.56700 0.13000 -0.30200
H 	H 	0.16600 0.61650 0.11110 0.17300
H 	H 	0.14230 0.52410 0.11100 0.22400
C 	C 	0.14000 0.60400 0.16100 0.20000
C 	C 	0.16370 0.59900 0.20500 0.32800
H 	H 	0.14920 0.61710 0.22600 -0.05400
C 	C 	0.19590 0.57700 0.22300 -0.41600
H 	H 	0.20620 0.56970 0.25280 0.19800
C 	C 	0.21810 0.56400 0.18400 0.00700
O 	O 	0.10330 0.61000 0.15500 -0.25500
C 	C 	0.24110 0.64500 0.18000 -0.03100
S 	S 	0.28810 0.63800 0.17290 -0.13300
C 	C 	0.29060 0.74800 0.16460 0.64900
H 	H 	0.31150 0.77780 0.15570 -0.18500
C 	C 	0.25730 0.79000 0.17270 -0.39300
H 	H 	0.25460 0.85420 0.17190 0.22300
C 	C 	0.22790 0.73400 0.18200 0.09100
H 	H 	0.20380 0.75250 0.18840 -0.01300
C 	C 	0.17000 0.34500 0.15200 -0.25200
H 	H 	0.14510 0.35020 0.15910 0.13400
C 	C 	0.18270 0.26700 0.13550 0.49200
O 	O 	0.15950 0.20600 0.11400 -0.35600
O 	O 	0.20470 0.23300 0.17310 -0.90100
C 	C 	0.21600 0.14200 0.16600 0.38500
H 	H 	0.19210 0.10740 0.16860 -0.10600
H 	H 	0.21610 0.14120 0.13490 -0.04600
C 	C 	0.24140 0.09000 0.18100 -0.03000
H 	H 	0.23670 0.03230 0.16570 -0.68100
H 	H 	0.26640 0.11490 0.17800 0.04400
H 	H 	0.24200 0.08040 0.21220 -0.00900
C 	C 	0.02320 0.47600 0.15500 -0.10600
H 	H 	0.03600 0.51830 0.13870 0.09200
H 	H 	0.00630 0.50980 0.17110 0.05200
C 	C 	0.05310 0.41900 0.18660 -0.01000
H 	H 	0.03920 0.37700 0.20230 0.02800
H 	H 	0.06910 0.45980 0.20840 0.02500
C 	C 	0.08030 0.36500 0.16400 -0.22100
H 	H 	0.09530 0.40720 0.14950 0.14600
H 	H 	0.09910 0.33090 0.18630 0.07300
C 	C 	0.05810 0.29900 0.13000 0.01100
H 	H 	0.04690 0.25020 0.14510 0.03900
H 	H 	0.07600 0.27250 0.11350 -0.02700
C 	C 	0.02540 0.35200 0.09980 -0.12300
H 	H 	0.03700 0.39510 0.08240 0.03800
H 	H 	0.00910 0.30880 0.07950 0.07700
C 	C 	0.99960 0.40300 0.12500 -0.06200
H 	H 	0.98820 0.35960 0.14300 0.05100
H 	H 	0.97790 0.43210 0.10440 0.05100
O 	O 	0.93380 0.66500 0.95870 -0.45700
C 	C 	0.92370 0.57300 0.95900 0.65500
H 	H 	0.92110 0.54580 0.93000 -0.48600
H 	H 	0.89890 0.56540 0.96890 -0.11900
C 	C 	0.95710 0.53400 0.99110 -1.08900
C 	C 	0.98690 0.60200 0.00760 0.24100
H 	H 	0.98050 0.62850 0.03450 0.06400
C 	C 	0.02810 0.58100 0.01780 -0.36200
H 	H 	0.03230 0.52800 0.03720 0.36700
H 	H 	0.04230 0.63280 0.03410 0.44800
C 	C 	0.04550 0.56200 0.97820 1.06600
C 	C 	0.02810 0.60100 0.94050 -0.95900
H 	H 	0.03780 0.58900 0.91520 0.36200
C 	C 	0.99690 0.65800 0.93710 0.40500
H 	H 	0.98910 0.68890 0.91000 -0.10800
C 	C 	0.97450 0.67700 0.96910 -0.43700
O 	O 	0.07290 0.50700 0.97670 -0.41900
C 	C 	0.98440 0.77200 0.98700 0.15600
S 	S 	0.95880 0.82190 0.02140 -0.08400
C 	C 	0.98500 0.92200 0.02190 0.03500
H 	H 	0.98320 0.96980 0.04150 0.04200
C 	C 	0.00800 0.92600 0.99090 -0.02100
H 	H 	0.02130 0.97840 0.98360 0.03300
C 	C 	0.00860 0.83600 0.97190 -0.13700
H 	H 	0.02390 0.82080 0.95130 0.12200
C 	C 	0.95830 0.44600 0.00400 0.50500
H 	H 	0.98000 0.42740 0.02560 -0.14500
C 	C 	0.92950 0.37900 0.98680 -0.23100
O 	O 	0.89720 0.39300 0.96090 -0.10900
O 	O 	0.94040 0.29000 0.00300 0.82800
C 	C 	0.91500 0.22200 0.98800 -0.82000
H 	H 	0.90430 0.23980 0.95790 0.45200
H 	H 	0.89390 0.23330 0.00390 0.25600
C 	C 	0.91500 0.11900 0.98500 0.44600
H 	H 	0.88910 0.09750 0.97180 -0.12700
H 	H 	0.93380 0.09980 0.96790 -0.08800
H 	H 	0.92320 0.09320 0.01480 -0.13700
C 	C 	0.94420 0.15600 0.98200 -0.04200
H 	H 	0.96650 0.11870 0.97760 0.03600
H 	H 	0.93770 0.13930 0.00970 0.04300
C 	C 	0.95400 0.25800 0.98100 0.24700
H 	H 	0.95270 0.28550 0.00930 -0.68700
H 	H 	0.98150 0.26490 0.97730 -0.01700
C 	C 	0.92620 0.30500 0.94400 -0.37600
H 	H 	0.92770 0.27740 0.91570 0.14400
H 	H 	0.93340 0.36980 0.94300 0.17700
C 	C 	0.88440 0.29700 0.95100 -0.21900
H 	H 	0.86600 0.33040 0.92790 0.11800
H 	H 	0.88280 0.32350 0.97960 0.12300
C 	C 	0.87340 0.19500 0.95000 -0.22900
H 	H 	0.86580 0.17800 0.97710 0.07800
H 	H 	0.85120 0.18360 0.92500 0.18400
C 	C 	0.90910 0.14100 0.94400 -0.18300
H 	H 	0.90240 0.07570 0.94240 0.05400
H 	H 	0.91620 0.15810 0.91640 0.08300
C 	C 	0.80100 0.17700 0.70800 0.12900
H 	H 	0.81620 0.19870 0.68720 -0.85900
H 	H 	0.78540 0.12390 0.69520 -0.84800
C 	C 	0.82900 0.14800 0.75100 -0.37300
H 	H 	0.83600 0.08310 0.74900 0.14600
H 	H 	0.85360 0.18320 0.75470 -0.02200
C 	C 	0.81100 0.16200 0.79100 -0.31800
H 	H 	0.82830 0.13490 0.81680 0.17600
H 	H 	0.78550 0.13170 0.78590 0.12900
C 	C 	0.80600 0.26400 0.79900 0.96100
H 	H 	0.78510 0.27290 0.81450 0.21300
H 	H 	0.83060 0.28860 0.81640 -0.22900
C 	C 	0.79600 0.31200 0.75400 -1.85000
H 	H 	0.77980 0.36600 0.75690 0.95700
H 	H 	0.82030 0.33370 0.74660 0.50100
C 	C 	0.77400 0.25100 0.71800 2.62800
H 	H 	0.75100 0.22410 0.72670 -0.54100
H 	H 	0.76430 0.28750 0.69110 -7.52200
C 	C 	0.54900 0.34900 0.64900 -1.12500
H 	H 	0.53770 0.33690 0.67530 0.27800
H 	H 	0.55810 0.29050 0.64010 0.39000
C 	C 	0.51700 0.38700 0.61200 0.37700
H 	H 	0.52700 0.39610 0.58590 -0.06500
C 	C 	0.50200 0.47700 0.62700 -0.22900
H 	H 	0.49140 0.46750 0.65350 -0.10300
H 	H 	0.48150 0.50240 0.60400 0.11900
C 	C 	0.53700 0.54300 0.63800 -1.21700
H 	H 	0.54770 0.55290 0.61170 0.09400
H 	H 	0.52790 0.60240 0.64670 1.15900
C 	C 	0.56900 0.50600 0.67500 -2.39300
H 	H 	0.59100 0.54860 0.68160 -0.81100
H 	H 	0.55850 0.49840 0.70160 0.81300
C 	C 	0.58300 0.41400 0.66200 1.62900
H 	H 	0.60290 0.38890 0.68670 -0.45300
H 	H 	0.59600 0.42210 0.63700 -0.69100
C 	C 	0.76300 0.55200 0.77800 0.47800
H 	H 	0.76980 0.57030 0.80900 -0.02000
H 	H 	0.77450 0.49240 0.77500 -0.01100
C 	C 	0.77700 0.62300 0.74900 -0.37900
H 	H 	0.80380 0.60730 0.74600 0.11500
H 	H 	0.77770 0.68330 0.76250 0.15500
C 	C 	0.74800 0.62200 0.70400 0.07500
H 	H 	0.72480 0.65700 0.70530 0.03600
H 	H 	0.76100 0.64890 0.68180 0.02800
C 	C 	0.73700 0.52200 0.69200 -0.23000
H 	H 	0.72510 0.51750 0.66030 0.10900
H 	H 	0.76070 0.48330 0.69820 0.11100
C 	C 	0.70800 0.49400 0.71900 0.12400
H 	H 	0.68090 0.50710 0.70370 -0.10900
H 	H 	0.71000 0.42780 0.72530 0.02300
C 	C 	0.71800 0.54600 0.76300 -0.29900
H 	H 	0.70630 0.51500 0.78490 0.17900
H 	H 	0.70630 0.60770 0.75840 0.12100
C 	C 	0.14600 0.52700 0.16100 0.21800
H 	H 	0.14690 0.57060 0.18520 -0.21300
H 	H 	0.16990 0.48800 0.16900 -0.00000
C 	C 	0.10900 0.46800 0.15400 -0.37900
H 	H 	0.10700 0.42950 0.12830 0.09300
H 	H 	0.10970 0.42890 0.18000 0.12300
C 	C 	0.07300 0.53200 0.14800 0.23500
H 	H 	0.07650 0.57560 0.17270 0.02500
H 	H 	0.04910 0.49750 0.14680 -0.09300
C 	C 	0.07100 0.58400 0.10500 -0.40000
H 	H 	0.06740 0.54000 0.08030 0.43900
H 	H 	0.04910 0.62600 0.09960 0.14300
C 	C 	0.10900 0.63600 0.10700 0.13900
H 	H 	0.10850 0.66500 0.07800 0.02300
H 	H 	0.11150 0.68460 0.12870 0.02600
C 	C 	0.14600 0.57700 0.11800 -0.13100
H 	H 	0.16940 0.61430 0.12100 -0.01400
H 	H 	0.14550 0.53220 0.09450 -0.04900
C 	C 	0.22890 0.83000 0.14330 -0.41100
H 	H 	0.21860 0.87400 0.12000 0.13700
H 	H 	0.21270 0.77460 0.13790 0.15800
C 	C 	0.27170 0.80700 0.14300 0.48900
H 	H 	0.27560 0.74110 0.14760 -0.40900
H 	H 	0.27670 0.82190 0.11420 -0.09700
C 	C 	0.30150 0.85700 0.17800 -0.70200
H 	H 	0.32710 0.85630 0.16960 0.26400
H 	H 	0.30450 0.82400 0.20600 0.21700
C 	C 	0.28900 0.95400 0.18400 0.55900
H 	H 	0.28970 0.98890 0.15710 -0.09000
H 	H 	0.30860 0.98220 0.20810 -0.11600
C 	C 	0.24900 0.96100 0.19400 -0.92200
H 	H 	0.25090 0.98180 0.22440 0.36000
H 	H 	0.23290 0.00620 0.17450 0.89200
C 	C 	0.22700 0.87000 0.18800 0.28400
H 	H 	0.20000 0.87810 0.19020 -0.03800
H 	H 	0.24010 0.82790 0.21140 -0.02900
H 	H 	0.49450 0.34360 0.60530 -0.08100
O 	O 	0.38990 0.35020 0.37070 -0.25100
C 	C 	0.35330 0.30900 0.36600 0.21200
H 	H 	0.34460 0.31090 0.39390 -0.02700
H 	H 	0.35470 0.24500 0.35730 0.00100
C 	C 	0.32540 0.36000 0.33160 -0.37000
C 	C 	0.34900 0.43650 0.31730 -0.16800
H 	H 	0.35900 0.41500 0.29160 0.16200
C 	C 	0.32720 0.52700 0.30470 0.15100
H 	H 	0.30230 0.51740 0.28330 0.00200
H 	H 	0.34350 0.57000 0.29230 0.04500
C 	C 	0.31890 0.56660 0.35340 0.06400
C 	C 	0.34550 0.54900 0.39040 0.07200
H 	H 	0.34160 0.57730 0.41610 0.02400
C 	C 	0.37540 0.49700 0.39470 -0.30200
H 	H 	0.39250 0.49210 0.42250 0.13800
C 	C 	0.38420 0.44400 0.35680 0.68300
O 	O 	0.29240 0.62100 0.34730 -0.20200
C 	C 	0.41910 0.48300 0.34500 -0.27600
S 	S 	0.45590 0.41260 0.33790 0.18000
C 	C 	0.48380 0.49500 0.32880 1.36800
H 	H 	0.50980 0.48680 0.32520 -0.39900
C 	C 	0.46300 0.58700 0.32660 -2.85200
H 	H 	0.47230 0.64330 0.31860 0.81700
C 	C 	0.42770 0.57000 0.33890 4.67900
H 	H 	0.41060 0.61770 0.34270 -1.50800
C 	C 	0.28900 0.34100 0.31860 0.90400
H 	H 	0.27430 0.38230 0.29840 -0.08900
C 	C 	0.26690 0.26400 0.33060 -0.92200
O 	O 	0.28410 0.20350 0.35470 0.09500
O 	O 	0.22970 0.26700 0.32120 9.50300
C 	C 	0.20400 0.20500 0.33100 -9.32300
H 	H 	0.17970 0.20400 0.30740 3.57200
H 	H 	0.19590 0.22260 0.35840 2.55600
C 	C 	0.22100 0.11300 0.33600 8.52800
H 	H 	0.20230 0.07000 0.34310 -2.50600
H 	H 	0.22840 0.09540 0.30890 -1.94000
H 	H 	0.24460 0.11390 0.35980 -2.49800
O 	O 	0.75260 0.49200 0.79830 -0.44700
C 	C 	0.77150 0.41100 0.80200 0.55400
H 	H 	0.78230 0.39910 0.77630 -0.53000
H 	H 	0.75320 0.36150 0.80520 -0.13000
C 	C 	0.80430 0.41500 0.84300 -0.07700
C 	C 	0.80130 0.51700 0.84800 0.03100
H 	H 	0.78510 0.52320 0.87070 0.04200
C 	C 	0.84010 0.56700 0.87000 -0.30200
H 	H 	0.83400 0.61650 0.88890 0.17300
H 	H 	0.85770 0.52410 0.88900 0.22400
C 	C 	0.86000 0.60400 0.83900 0.20000
C 	C 	0.83630 0.59900 0.79500 0.32800
H 	H 	0.85080 0.61710 0.77400 -0.05400
C 	C 	0.80410 0.57700 0.77700 -0.41600
H 	H 	0.79380 0.56970 0.74720 0.19800
C 	C 	0.78190 0.56400 0.81600 0.00700
O 	O 	0.89670 0.61000 0.84500 -0.25500
C 	C 	0.75890 0.64500 0.82000 -0.03100
S 	S 	0.71190 0.63800 0.82710 -0.13300
C 	C 	0.70940 0.74800 0.83540 0.64900
H 	H 	0.68850 0.77780 0.84430 -0.18500
C 	C 	0.74270 0.79000 0.82730 -0.39300
H 	H 	0.74540 0.85420 0.82810 0.22300
C 	C 	0.77210 0.73400 0.81800 0.09100
H 	H 	0.79620 0.75250 0.81160 -0.01300
C 	C 	0.83000 0.34500 0.84800 -0.25200
H 	H 	0.85490 0.35020 0.84090 0.13400
C 	C 	0.81730 0.26700 0.86450 0.49200
O 	O 	0.84050 0.20600 0.88600 -0.35600
O 	O 	0.79530 0.23300 0.82690 -0.90100
C 	C 	0.78400 0.14200 0.83400 0.38500
H 	H 	0.80790 0.10740 0.83140 -0.10600
H 	H 	0.78390 0.14120 0.86510 -0.04600
C 	C 	0.75860 0.09000 0.81900 -0.03000
H 	H 	0.76330 0.03230 0.83430 -0.68100
H 	H 	0.73360 0.11490 0.82200 0.04400
H 	H 	0.75800 0.08040 0.78780 -0.00900
C 	C 	0.97680 0.47600 0.84500 -0.10600
H 	H 	0.96400 0.51830 0.86130 0.09200
H 	H 	0.99370 0.50980 0.82890 0.05200
C 	C 	0.94690 0.41900 0.81340 -0.01000
H 	H 	0.96080 0.37700 0.79770 0.02800
H 	H 	0.93090 0.45980 0.79160 0.02500
C 	C 	0.91970 0.36500 0.83600 -0.22100
H 	H 	0.90470 0.40720 0.85050 0.14600
H 	H 	0.90090 0.33090 0.81370 0.07300
C 	C 	0.94190 0.29900 0.87000 0.01100
H 	H 	0.95310 0.25020 0.85490 0.03900
H 	H 	0.92400 0.27250 0.88650 -0.02700
C 	C 	0.97460 0.35200 0.90020 -0.12300
H 	H 	0.96300 0.39510 0.91760 0.03800
H 	H 	0.99090 0.30880 0.92050 0.07700
C 	C 	0.00040 0.40300 0.87500 -0.06200
H 	H 	0.01180 0.35960 0.85700 0.05100
H 	H 	0.02210 0.43210 0.89560 0.05100
O 	O 	0.06620 0.66500 0.04130 -0.45700
C 	C 	0.07630 0.57300 0.04100 0.65500
H 	H 	0.07890 0.54580 0.07000 -0.48600
H 	H 	0.10110 0.56540 0.03110 -0.11900
C 	C 	0.04290 0.53400 0.00890 -1.08900
C 	C 	0.01310 0.60200 0.99240 0.24100
H 	H 	0.01950 0.62850 0.96550 0.06400
C 	C 	0.97190 0.58100 0.98220 -0.36200
H 	H 	0.96770 0.52800 0.96280 0.36700
H 	H 	0.95770 0.63280 0.96590 0.44800
C 	C 	0.95450 0.56200 0.02180 1.06600
C 	C 	0.97190 0.60100 0.05950 -0.95900
H 	H 	0.96220 0.58900 0.08480 0.36200
C 	C 	0.00310 0.65800 0.06290 0.40500
H 	H 	0.01090 0.68890 0.09000 -0.10800
C 	C 	0.02550 0.67700 0.03090 -0.43700
O 	O 	0.92710 0.50700 0.02330 -0.41900
C 	C 	0.01560 0.77200 0.01300 0.15600
S 	S 	0.04120 0.82190 0.97860 -0.08400
C 	C 	0.01500 0.92200 0.97810 0.03500
H 	H 	0.01680 0.96980 0.95850 0.04200
C 	C 	0.99200 0.92600 0.00910 -0.02100
H 	H 	0.97870 0.97840 0.01640 0.03300
C 	C 	0.99140 0.83600 0.02810 -0.13700
H 	H 	0.97610 0.82080 0.04870 0.12200
C 	C 	0.04170 0.44600 0.99600 0.50500
H 	H 	0.02000 0.42740 0.97440 -0.14500
C 	C 	0.07050 0.37900 0.01320 -0.23100
O 	O 	0.10280 0.39300 0.03910 -0.10900
O 	O 	0.05960 0.29000 0.99700 0.82800
C 	C 	0.08500 0.22200 0.01200 -0.82000
H 	H 	0.09570 0.23980 0.04210 0.45200
H 	H 	0.10610 0.23330 0.99610 0.25600
C 	C 	0.08500 0.11900 0.01500 0.44600
H 	H 	0.11090 0.09750 0.02820 -0.12700
H 	H 	0.06620 0.09980 0.03210 -0.08800
H 	H 	0.07680 0.09320 0.98520 -0.13700
C 	C 	0.05580 0.15600 0.01800 -0.04200
H 	H 	0.03350 0.11870 0.02240 0.03600
H 	H 	0.06230 0.13930 0.99030 0.04300
C 	C 	0.04600 0.25800 0.01900 0.24700
H 	H 	0.04730 0.28550 0.99070 -0.68700
H 	H 	0.01850 0.26490 0.02270 -0.01700
C 	C 	0.07380 0.30500 0.05600 -0.37600
H 	H 	0.07230 0.27740 0.08430 0.14400
H 	H 	0.06660 0.36980 0.05700 0.17700
C 	C 	0.11560 0.29700 0.04900 -0.21900
H 	H 	0.13400 0.33040 0.07210 0.11800
H 	H 	0.11720 0.32350 0.02040 0.12300
C 	C 	0.12660 0.19500 0.05000 -0.22900
H 	H 	0.13420 0.17800 0.02290 0.07800
H 	H 	0.14880 0.18360 0.07500 0.18400
C 	C 	0.09090 0.14100 0.05600 -0.18300
H 	H 	0.09760 0.07570 0.05760 0.05400
H 	H 	0.08380 0.15810 0.08360 0.08300
C 	C 	0.19900 0.17700 0.29200 0.12900
H 	H 	0.18380 0.19870 0.31280 -0.85900
H 	H 	0.21460 0.12390 0.30480 -0.84800
C 	C 	0.17100 0.14800 0.24900 -0.37300
H 	H 	0.16400 0.08310 0.25100 0.14600
H 	H 	0.14640 0.18320 0.24530 -0.02200
C 	C 	0.18900 0.16200 0.20900 -0.31800
H 	H 	0.17170 0.13490 0.18320 0.17600
H 	H 	0.21450 0.13170 0.21410 0.12900
C 	C 	0.19400 0.26400 0.20100 0.96100
H 	H 	0.21490 0.27290 0.18550 0.21300
H 	H 	0.16940 0.28860 0.18360 -0.22900
C 	C 	0.20400 0.31200 0.24600 -1.85000
H 	H 	0.22020 0.36600 0.24310 0.95700
H 	H 	0.17970 0.33370 0.25340 0.50100
C 	C 	0.22600 0.25100 0.28200 2.62800
H 	H 	0.24900 0.22410 0.27330 -0.54100
H 	H 	0.23570 0.28750 0.30890 -7.52200
C 	C 	0.45100 0.34900 0.35100 -1.12500
H 	H 	0.46230 0.33690 0.32470 0.27800
H 	H 	0.44190 0.29050 0.35990 0.39000
C 	C 	0.48300 0.38700 0.38800 0.37700
H 	H 	0.47300 0.39610 0.41410 -0.06500
C 	C 	0.49800 0.47700 0.37300 -0.22900
H 	H 	0.50860 0.46750 0.34650 -0.10300
H 	H 	0.51850 0.50240 0.39600 0.11900
C 	C 	0.46300 0.54300 0.36200 -1.21700
H 	H 	0.45230 0.55290 0.38830 0.09400
H 	H 	0.47210 0.60240 0.35330 1.15900
C 	C 	0.43100 0.50600 0.32500 -2.39300
H 	H 	0.40900 0.54860 0.31840 -0.81100
H 	H 	0.44150 0.49840 0.29840 0.81300
C 	C 	0.41700 0.41400 0.33800 1.62900
H 	H 	0.39710 0.38890 0.31330 -0.45300
H 	H 	0.40400 0.42210 0.36300 -0.69100
C 	C 	0.23700 0.55200 0.22200 0.47800
H 	H 	0.23020 0.57030 0.19100 -0.02000
H 	H 	0.22550 0.49240 0.22500 -0.01100
C 	C 	0.22300 0.62300 0.25100 -0.37900
H 	H 	0.19620 0.60730 0.25400 0.11500
H 	H 	0.22230 0.68330 0.23750 0.15500
C 	C 	0.25200 0.62200 0.29600 0.07500
H 	H 	0.27520 0.65700 0.29470 0.03600
H 	H 	0.23900 0.64890 0.31820 0.02800
C 	C 	0.26300 0.52200 0.30800 -0.23000
H 	H 	0.27490 0.51750 0.33970 0.10900
H 	H 	0.23930 0.48330 0.30180 0.11100
C 	C 	0.29200 0.49400 0.28100 0.12400
H 	H 	0.31910 0.50710 0.29630 -0.10900
H 	H 	0.29000 0.42780 0.27470 0.02300
C 	C 	0.28200 0.54600 0.23700 -0.29900
H 	H 	0.29370 0.51500 0.21510 0.17900
H 	H 	0.29370 0.60770 0.24160 0.12100
C 	C 	0.85400 0.52700 0.83900 0.21800
H 	H 	0.85310 0.57060 0.81480 -0.21300
H 	H 	0.83010 0.48800 0.83100 -0.00000
C 	C 	0.89100 0.46800 0.84600 -0.37900
H 	H 	0.89300 0.42950 0.87170 0.09300
H 	H 	0.89030 0.42890 0.82000 0.12300
C 	C 	0.92700 0.53200 0.85200 0.23500
H 	H 	0.92350 0.57560 0.82730 0.02500
H 	H 	0.95090 0.49750 0.85320 -0.09300
C 	C 	0.92900 0.58400 0.89500 -0.40000
H 	H 	0.93260 0.54000 0.91970 0.43900
H 	H 	0.95090 0.62600 0.90040 0.14300
C 	C 	0.89100 0.63600 0.89300 0.13900
H 	H 	0.89150 0.66500 0.92200 0.02300
H 	H 	0.88850 0.68460 0.87130 0.02600
C 	C 	0.85400 0.57700 0.88200 -0.13100
H 	H 	0.83060 0.61430 0.87900 -0.01400
H 	H 	0.85450 0.53220 0.90550 -0.04900
C 	C 	0.77110 0.83000 0.85670 -0.41100
H 	H 	0.78140 0.87400 0.88000 0.13700
H 	H 	0.78730 0.77460 0.86210 0.15800
C 	C 	0.72830 0.80700 0.85700 0.48900
H 	H 	0.72440 0.74110 0.85240 -0.40900
H 	H 	0.72330 0.82190 0.88580 -0.09700
C 	C 	0.69850 0.85700 0.82200 -0.70200
H 	H 	0.67290 0.85630 0.83040 0.26400
H 	H 	0.69550 0.82400 0.79400 0.21700
C 	C 	0.71100 0.95400 0.81600 0.55900
H 	H 	0.71030 0.98890 0.84290 -0.09000
H 	H 	0.69140 0.98220 0.79190 -0.11600
C 	C 	0.75100 0.96100 0.80600 -0.92200
H 	H 	0.74910 0.98180 0.77560 0.36000
H 	H 	0.76710 0.00620 0.82550 0.89200
C 	C 	0.77300 0.87000 0.81200 0.28400
H 	H 	0.80000 0.87810 0.80980 -0.03800
H 	H 	0.75990 0.82790 0.78860 -0.02900
H 	H 	0.50550 0.34360 0.39470 -0.08100
O 	O 	0.11010 0.85020 0.62930 -0.34900
C 	C 	0.14670 0.80900 0.63400 0.48100
H 	H 	0.15540 0.81090 0.60610 -0.09500
H 	H 	0.14530 0.74500 0.64270 -0.06600
C 	C 	0.17460 0.86000 0.66840 -0.70000
C 	C 	0.15100 0.93650 0.68270 0.72900
H 	H 	0.14100 0.91500 0.70840 -0.24000
C 	C 	0.17280 0.02700 0.69530 0.25600
H 	H 	0.19770 0.01740 0.71670 0.30800
H 	H 	0.15650 0.07000 0.70770 -0.10600
C 	C 	0.18110 0.06660 0.64660 0.38100
C 	C 	0.15450 0.04900 0.60960 -0.91300
H 	H 	0.15840 0.07730 0.58390 0.33400
C 	C 	0.12460 0.99700 0.60530 1.00700
H 	H 	0.10750 0.99210 0.57750 -0.28500
C 	C 	0.11580 0.94400 0.64320 -1.53600
O 	O 	0.20760 0.12100 0.65270 -0.31700
C 	C 	0.08090 0.98300 0.65500 -0.66100
S 	S 	0.04410 0.91260 0.66210 -0.65900
C 	C 	0.01620 0.99500 0.67120 -1.44100
H 	H 	0.99020 0.98680 0.67480 0.57800
C 	C 	0.03700 0.08700 0.67340 2.60100
H 	H 	0.02770 0.14330 0.68140 -0.72200
C 	C 	0.07230 0.07000 0.66110 -6.02600
H 	H 	0.08940 0.11770 0.65730 2.04900
C 	C 	0.21100 0.84100 0.68140 1.13300
H 	H 	0.22570 0.88230 0.70160 -0.17100
C 	C 	0.23310 0.76400 0.66940 -0.98500
O 	O 	0.21590 0.70350 0.64530 0.11900
O 	O 	0.27030 0.76700 0.67880 9.35400
C 	C 	0.29600 0.70500 0.66900 -9.12900
H 	H 	0.32030 0.70400 0.69260 3.51000
H 	H 	0.30410 0.72260 0.64160 2.50400
C 	C 	0.27900 0.61300 0.66400 8.30300
H 	H 	0.29770 0.57000 0.65690 -2.42100
H 	H 	0.27160 0.59540 0.69110 -1.90300
H 	H 	0.25540 0.61390 0.64020 -2.42600
O 	O 	0.74740 0.99200 0.20170 -0.46000
C 	C 	0.72850 0.91100 0.19800 0.57300
H 	H 	0.71770 0.89910 0.22370 -0.53100
H 	H 	0.74680 0.86150 0.19480 -0.13300
C 	C 	0.69570 0.91500 0.15700 -0.03900
C 	C 	0.69870 0.01700 0.15200 0.19000
H 	H 	0.71490 0.02320 0.12930 -0.03300
C 	C 	0.65990 0.06700 0.13000 -0.37400
H 	H 	0.66600 0.11650 0.11110 0.23100
H 	H 	0.64230 0.02410 0.11100 0.32000
C 	C 	0.64000 0.10400 0.16100 0.29300
C 	C 	0.66370 0.09900 0.20500 2.83300
H 	H 	0.64920 0.11710 0.22600 -0.80900
C 	C 	0.69590 0.07700 0.22300 -2.07700
H 	H 	0.70620 0.06970 0.25280 0.71000
C 	C 	0.71810 0.06400 0.18400 -0.41600
O 	O 	0.60330 0.11000 0.15500 -0.23800
C 	C 	0.74110 0.14500 0.18000 -0.05900
S 	S 	0.78810 0.13800 0.17290 -0.13400
C 	C 	0.79060 0.24800 0.16460 0.50600
H 	H 	0.81150 0.27780 0.15570 -0.14000
C 	C 	0.75730 0.29000 0.17270 -0.34600
H 	H 	0.75460 0.35420 0.17190 0.20500
C 	C 	0.72790 0.23400 0.18200 0.09200
H 	H 	0.70380 0.25250 0.18840 -0.03600
C 	C 	0.67000 0.84500 0.15200 -0.27600
H 	H 	0.64510 0.85020 0.15910 0.14200
C 	C 	0.68270 0.76700 0.13550 0.52900
O 	O 	0.65950 0.70600 0.11400 -0.36200
O 	O 	0.70470 0.73300 0.17310 -1.01700
C 	C 	0.71600 0.64200 0.16600 0.67000
H 	H 	0.69210 0.60740 0.16860 -0.18300
H 	H 	0.71610 0.64120 0.13490 -0.11600
C 	C 	0.74140 0.59000 0.18100 -0.33300
H 	H 	0.73670 0.53230 0.16570 -0.67500
H 	H 	0.76640 0.61490 0.17800 0.15000
H 	H 	0.74200 0.58040 0.21220 0.09200
C 	C 	0.52320 0.97600 0.15500 0.37300
H 	H 	0.53600 0.01830 0.13870 -0.31700
H 	H 	0.50630 0.00980 0.17110 -0.12600
C 	C 	0.55310 0.91900 0.18660 -0.37000
H 	H 	0.53920 0.87700 0.20230 0.13500
H 	H 	0.56910 0.95980 0.20840 0.15100
C 	C 	0.58030 0.86500 0.16400 0.02100
H 	H 	0.59530 0.90720 0.14950 0.06900
H 	H 	0.59910 0.83090 0.18630 -0.00300
C 	C 	0.55810 0.79900 0.13000 -0.21300
H 	H 	0.54690 0.75020 0.14510 0.10400
H 	H 	0.57600 0.77250 0.11350 0.06100
C 	C 	0.52540 0.85200 0.09980 0.09500
H 	H 	0.53700 0.89510 0.08240 -0.02000
H 	H 	0.50910 0.80880 0.07950 0.01500
C 	C 	0.49960 0.90300 0.12500 -0.34300
H 	H 	0.48820 0.85960 0.14300 0.13500
H 	H 	0.47790 0.93210 0.10440 0.16000
O 	O 	0.43380 0.16500 0.95870 -0.54000
C 	C 	0.42370 0.07300 0.95900 0.98600
H 	H 	0.42110 0.04580 0.93000 -0.76400
H 	H 	0.39890 0.06540 0.96890 -0.22200
C 	C 	0.45710 0.03400 0.99110 -1.50200
C 	C 	0.48690 0.10200 0.00760 0.46300
H 	H 	0.48050 0.12850 0.03450 -0.01400
C 	C 	0.52810 0.08100 0.01780 -0.60400
H 	H 	0.53230 0.02800 0.03720 0.49400
H 	H 	0.54230 0.13280 0.03410 0.57800
C 	C 	0.54550 0.06200 0.97820 1.36500
C 	C 	0.52810 0.10100 0.94050 -1.17200
H 	H 	0.53780 0.08900 0.91520 0.42400
C 	C 	0.49690 0.15800 0.93710 0.58300
H 	H 	0.48910 0.18890 0.91000 -0.16600
C 	C 	0.47450 0.17700 0.96910 -0.60400
O 	O 	0.57290 0.00700 0.97670 -0.54100
C 	C 	0.48440 0.27200 0.98700 0.20100
S 	S 	0.45880 0.32190 0.02140 -0.08800
C 	C 	0.48500 0.42200 0.02190 0.00400
H 	H 	0.48320 0.46980 0.04150 0.03400
C 	C 	0.50800 0.42600 0.99090 0.00900
H 	H 	0.52130 0.47840 0.98360 0.01100
C 	C 	0.50860 0.33600 0.97190 -0.16800
H 	H 	0.52390 0.32080 0.95130 0.13400
C 	C 	0.45830 0.94600 0.00400 0.79800
H 	H 	0.48000 0.92740 0.02560 -0.23400
C 	C 	0.42950 0.87900 0.98680 -0.31800
O 	O 	0.39720 0.89300 0.96090 -0.06100
O 	O 	0.44040 0.79000 0.00300 0.81900
C 	C 	0.41500 0.72200 0.98800 -0.76600
H 	H 	0.40430 0.73980 0.95790 0.43500
H 	H 	0.39390 0.73330 0.00390 0.24300
C 	C 	0.41500 0.61900 0.98500 0.32500
H 	H 	0.38910 0.59750 0.97180 -0.07800
H 	H 	0.43380 0.59980 0.96790 -0.05300
H 	H 	0.42320 0.59320 0.01480 -0.08600
C 	C 	0.44420 0.65600 0.98200 0.00400
H 	H 	0.46650 0.61870 0.97760 0.03200
H 	H 	0.43770 0.63930 0.00970 0.04300
C 	C 	0.45400 0.75800 0.98100 0.17600
H 	H 	0.45270 0.78550 0.00930 -0.65400
H 	H 	0.48150 0.76490 0.97730 0.00700
C 	C 	0.42620 0.80500 0.94400 -0.28600
H 	H 	0.42770 0.77740 0.91570 0.09000
H 	H 	0.43340 0.86980 0.94300 0.16300
C 	C 	0.38440 0.79700 0.95100 -0.27100
H 	H 	0.36600 0.83040 0.92790 0.13000
H 	H 	0.38280 0.82350 0.97960 0.14100
C 	C 	0.37340 0.69500 0.95000 -0.20200
H 	H 	0.36580 0.67800 0.97710 0.07500
H 	H 	0.35120 0.68360 0.92500 0.18100
C 	C 	0.40910 0.64100 0.94400 -0.19500
H 	H 	0.40240 0.57570 0.94240 0.07900
H 	H 	0.41620 0.65810 0.91640 0.09000
C 	C 	0.30100 0.67700 0.70800 0.05900
H 	H 	0.31620 0.69870 0.68720 -0.83300
H 	H 	0.28540 0.62390 0.69520 -0.78300
C 	C 	0.32900 0.64800 0.75100 -0.31700
H 	H 	0.33600 0.58310 0.74900 0.14500
H 	H 	0.35360 0.68320 0.75470 -0.03400
C 	C 	0.31100 0.66200 0.79100 -0.37500
H 	H 	0.32830 0.63490 0.81680 0.21200
H 	H 	0.28550 0.63170 0.78590 0.12900
C 	C 	0.30600 0.76400 0.79900 1.03100
H 	H 	0.28510 0.77290 0.81450 0.24300
H 	H 	0.33060 0.78860 0.81640 -0.24500
C 	C 	0.29600 0.81200 0.75400 -1.89400
H 	H 	0.27980 0.86600 0.75690 0.97400
H 	H 	0.32030 0.83370 0.74660 0.52100
C 	C 	0.27400 0.75100 0.71800 2.63700
H 	H 	0.25100 0.72410 0.72670 -0.54700
H 	H 	0.26430 0.78750 0.69110 -7.40600
C 	C 	0.04900 0.84900 0.64900 1.73200
H 	H 	0.03770 0.83690 0.67530 -0.28100
H 	H 	0.05810 0.79050 0.64010 -0.49400
C 	C 	0.01700 0.88700 0.61200 -0.99100
H 	H 	0.02700 0.89610 0.58590 0.32300
C 	C 	0.00200 0.97700 0.62700 0.76000
H 	H 	0.99140 0.96750 0.65350 -0.04000
H 	H 	0.98150 0.00240 0.60400 -0.29000
C 	C 	0.03700 0.04300 0.63800 0.70100
H 	H 	0.04770 0.05290 0.61170 0.18600
H 	H 	0.02790 0.10240 0.64670 -0.79200
C 	C 	0.06900 0.00600 0.67500 4.69000
H 	H 	0.09100 0.04860 0.68160 0.77400
H 	H 	0.05850 0.99840 0.70160 -1.34300
C 	C 	0.08300 0.91400 0.66200 -2.17700
H 	H 	0.10290 0.88890 0.68670 0.74700
H 	H 	0.09600 0.92210 0.63700 1.71400
C 	C 	0.26300 0.05200 0.77800 0.73500
H 	H 	0.26980 0.07030 0.80900 0.28200
H 	H 	0.27450 0.99240 0.77500 0.05900
C 	C 	0.27700 0.12300 0.74900 -0.13000
H 	H 	0.30380 0.10730 0.74600 0.05500
H 	H 	0.27770 0.18330 0.76250 0.09300
C 	C 	0.24800 0.12200 0.70400 -0.09900
H 	H 	0.22480 0.15700 0.70530 0.07400
H 	H 	0.26100 0.14890 0.68180 0.06800
C 	C 	0.23700 0.02200 0.69200 -0.29800
H 	H 	0.22510 0.01750 0.66030 0.09400
H 	H 	0.26070 0.98330 0.69820 0.16300
C 	C 	0.20800 0.99400 0.71900 -0.05300
H 	H 	0.18090 0.00710 0.70370 -0.46800
H 	H 	0.21000 0.92780 0.72530 0.09800
C 	C 	0.21800 0.04600 0.76300 -0.51600
H 	H 	0.20630 0.01500 0.78490 0.21000
H 	H 	0.20630 0.10770 0.75840 0.16000
C 	C 	0.64600 0.02700 0.16100 0.96700
H 	H 	0.64690 0.07060 0.18520 -1.50800
H 	H 	0.66990 0.98800 0.16900 -0.18400
C 	C 	0.60900 0.96800 0.15400 -0.46700
H 	H 	0.60700 0.92950 0.12830 0.14100
H 	H 	0.60970 0.92890 0.18000 0.16100
C 	C 	0.57300 0.03200 0.14800 0.10100
H 	H 	0.57650 0.07560 0.17270 0.06600
H 	H 	0.54910 0.99750 0.14680 0.21300
C 	C 	0.57100 0.08400 0.10500 -0.54100
H 	H 	0.56740 0.04000 0.08030 0.64000
H 	H 	0.54910 0.12600 0.09960 0.18700
C 	C 	0.60900 0.13600 0.10700 0.39700
H 	H 	0.60850 0.16500 0.07800 -0.04800
H 	H 	0.61150 0.18460 0.12870 -0.06900
C 	C 	0.64600 0.07700 0.11800 -0.60000
H 	H 	0.66940 0.11430 0.12100 0.06800
H 	H 	0.64550 0.03220 0.09450 -0.00900
C 	C 	0.72890 0.33000 0.14330 -0.50900
H 	H 	0.71860 0.37400 0.12000 0.16000
H 	H 	0.71270 0.27460 0.13790 0.17800
C 	C 	0.77170 0.30700 0.14300 0.53100
H 	H 	0.77560 0.24110 0.14760 -0.34900
H 	H 	0.77670 0.32190 0.11420 -0.11600
C 	C 	0.80150 0.35700 0.17800 -0.76900
H 	H 	0.82710 0.35630 0.16960 0.26900
H 	H 	0.80450 0.32400 0.20600 0.23600
C 	C 	0.78900 0.45400 0.18400 0.71600
H 	H 	0.78970 0.48890 0.15710 -0.16200
H 	H 	0.80860 0.48220 0.20810 -0.18600
C 	C 	0.74900 0.46100 0.19400 -1.19400
H 	H 	0.75090 0.48180 0.22440 0.40300
H 	H 	0.73290 0.50620 0.17450 1.06900
C 	C 	0.72700 0.37000 0.18800 0.43800
H 	H 	0.70000 0.37810 0.19020 -0.09900
H 	H 	0.74010 0.32790 0.21140 -0.07800
H 	H 	0.99450 0.84360 0.60530 0.30800
O 	O 	0.88990 0.85020 0.37070 -0.34900
C 	C 	0.85330 0.80900 0.36600 0.48100
H 	H 	0.84460 0.81090 0.39390 -0.09500
H 	H 	0.85470 0.74500 0.35730 -0.06600
C 	C 	0.82540 0.86000 0.33160 -0.70000
C 	C 	0.84900 0.93650 0.31730 0.72900
H 	H 	0.85900 0.91500 0.29160 -0.24000
C 	C 	0.82720 0.02700 0.30470 0.25600
H 	H 	0.80230 0.01740 0.28330 0.30800
H 	H 	0.84350 0.07000 0.29230 -0.10600
C 	C 	0.81890 0.06660 0.35340 0.38100
C 	C 	0.84550 0.04900 0.39040 -0.91300
H 	H 	0.84160 0.07730 0.41610 0.33400
C 	C 	0.87540 0.99700 0.39470 1.00700
H 	H 	0.89250 0.99210 0.42250 -0.28500
C 	C 	0.88420 0.94400 0.35680 -1.53600
O 	O 	0.79240 0.12100 0.34730 -0.31700
C 	C 	0.91910 0.98300 0.34500 -0.66100
S 	S 	0.95590 0.91260 0.33790 -0.65900
C 	C 	0.98380 0.99500 0.32880 -1.44100
H 	H 	0.00980 0.98680 0.32520 0.57800
C 	C 	0.96300 0.08700 0.32660 2.60100
H 	H 	0.97230 0.14330 0.31860 -0.72200
C 	C 	0.92770 0.07000 0.33890 -6.02600
H 	H 	0.91060 0.11770 0.34270 2.04900
C 	C 	0.78900 0.84100 0.31860 1.13300
H 	H 	0.77430 0.88230 0.29840 -0.17100
C 	C 	0.76690 0.76400 0.33060 -0.98500
O 	O 	0.78410 0.70350 0.35470 0.11900
O 	O 	0.72970 0.76700 0.32120 9.35400
C 	C 	0.70400 0.70500 0.33100 -9.12900
H 	H 	0.67970 0.70400 0.30740 3.51000
H 	H 	0.69590 0.72260 0.35840 2.50400
C 	C 	0.72100 0.61300 0.33600 8.30300
H 	H 	0.70230 0.57000 0.34310 -2.42100
H 	H 	0.72840 0.59540 0.30890 -1.90300
H 	H 	0.74460 0.61390 0.35980 -2.42600
O 	O 	0.25260 0.99200 0.79830 -0.46000
C 	C 	0.27150 0.91100 0.80200 0.57300
H 	H 	0.28230 0.89910 0.77630 -0.53100
H 	H 	0.25320 0.86150 0.80520 -0.13300
C 	C 	0.30430 0.91500 0.84300 -0.03900
C 	C 	0.30130 0.01700 0.84800 0.19000
H 	H 	0.28510 0.02320 0.87070 -0.03300
C 	C 	0.34010 0.06700 0.87000 -0.37400
H 	H 	0.33400 0.11650 0.88890 0.23100
H 	H 	0.35770 0.02410 0.88900 0.32000
C 	C 	0.36000 0.10400 0.83900 0.29300
C 	C 	0.33630 0.09900 0.79500 2.83300
H 	H 	0.35080 0.11710 0.77400 -0.80900
C 	C 	0.30410 0.07700 0.77700 -2.07700
H 	H 	0.29380 0.06970 0.74720 0.71000
C 	C 	0.28190 0.06400 0.81600 -0.41600
O 	O 	0.39670 0.11000 0.84500 -0.23800
C 	C 	0.25890 0.14500 0.82000 -0.05900
S 	S 	0.21190 0.13800 0.82710 -0.13400
C 	C 	0.20940 0.24800 0.83540 0.50600
H 	H 	0.18850 0.27780 0.84430 -0.14000
C 	C 	0.24270 0.29000 0.82730 -0.34600
H 	H 	0.24540 0.35420 0.82810 0.20500
C 	C 	0.27210 0.23400 0.81800 0.09200
H 	H 	0.29620 0.25250 0.81160 -0.03600
C 	C 	0.33000 0.84500 0.84800 -0.27600
H 	H 	0.35490 0.85020 0.84090 0.14200
C 	C 	0.31730 0.76700 0.86450 0.52900
O 	O 	0.34050 0.70600 0.88600 -0.36200
O 	O 	0.29530 0.73300 0.82690 -1.01700
C 	C 	0.28400 0.64200 0.83400 0.67000
H 	H 	0.30790 0.60740 0.83140 -0.18300
H 	H 	0.28390 0.64120 0.86510 -0.11600
C 	C 	0.25860 0.59000 0.81900 -0.33300
H 	H 	0.26330 0.53230 0.83430 -0.67500
H 	H 	0.23360 0.61490 0.82200 0.15000
H 	H 	0.25800 0.58040 0.78780 0.09200
C 	C 	0.47680 0.97600 0.84500 0.37300
H 	H 	0.46400 0.01830 0.86130 -0.31700
H 	H 	0.49370 0.00980 0.82890 -0.12600
C 	C 	0.44690 0.91900 0.81340 -0.37000
H 	H 	0.46080 0.87700 0.79770 0.13500
H 	H 	0.43090 0.95980 0.79160 0.15100
C 	C 	0.41970 0.86500 0.83600 0.02100
H 	H 	0.40470 0.90720 0.85050 0.06900
H 	H 	0.40090 0.83090 0.81370 -0.00300
C 	C 	0.44190 0.79900 0.87000 -0.21300
H 	H 	0.45310 0.75020 0.85490 0.10400
H 	H 	0.42400 0.77250 0.88650 0.06100
C 	C 	0.47460 0.85200 0.90020 0.09500
H 	H 	0.46300 0.89510 0.91760 -0.02000
H 	H 	0.49090 0.80880 0.92050 0.01500
C 	C 	0.50040 0.90300 0.87500 -0.34300
H 	H 	0.51180 0.85960 0.85700 0.13500
H 	H 	0.52210 0.93210 0.89560 0.16000
O 	O 	0.56620 0.16500 0.04130 -0.54000
C 	C 	0.57630 0.07300 0.04100 0.98600
H 	H 	0.57890 0.04580 0.07000 -0.76400
H 	H 	0.60110 0.06540 0.03110 -0.22200
C 	C 	0.54290 0.03400 0.00890 -1.50200
C 	C 	0.51310 0.10200 0.99240 0.46300
H 	H 	0.51950 0.12850 0.96550 -0.01400
C 	C 	0.47190 0.08100 0.98220 -0.60400
H 	H 	0.46770 0.02800 0.96280 0.49400
H 	H 	0.45770 0.13280 0.96590 0.57800
C 	C 	0.45450 0.06200 0.02180 1.36500
C 	C 	0.47190 0.10100 0.05950 -1.17200
H 	H 	0.46220 0.08900 0.08480 0.42400
C 	C 	0.50310 0.15800 0.06290 0.58300
H 	H 	0.51090 0.18890 0.09000 -0.16600
C 	C 	0.52550 0.17700 0.03090 -0.60400
O 	O 	0.42710 0.00700 0.02330 -0.54100
C 	C 	0.51560 0.27200 0.01300 0.20100
S 	S 	0.54120 0.32190 0.97860 -0.08800
C 	C 	0.51500 0.42200 0.97810 0.00400
H 	H 	0.51680 0.46980 0.95850 0.03400
C 	C 	0.49200 0.42600 0.00910 0.00900
H 	H 	0.47870 0.47840 0.01640 0.01100
C 	C 	0.49140 0.33600 0.02810 -0.16800
H 	H 	0.47610 0.32080 0.04870 0.13400
C 	C 	0.54170 0.94600 0.99600 0.79800
H 	H 	0.52000 0.92740 0.97440 -0.23400
C 	C 	0.57050 0.87900 0.01320 -0.31800
O 	O 	0.60280 0.89300 0.03910 -0.06100
O 	O 	0.55960 0.79000 0.99700 0.81900
C 	C 	0.58500 0.72200 0.01200 -0.76600
H 	H 	0.59570 0.73980 0.04210 0.43500
H 	H 	0.60610 0.73330 0.99610 0.24300
C 	C 	0.58500 0.61900 0.01500 0.32500
H 	H 	0.61090 0.59750 0.02820 -0.07800
H 	H 	0.56620 0.59980 0.03210 -0.05300
H 	H 	0.57680 0.59320 0.98520 -0.08600
C 	C 	0.55580 0.65600 0.01800 0.00400
H 	H 	0.53350 0.61870 0.02240 0.03200
H 	H 	0.56230 0.63930 0.99030 0.04300
C 	C 	0.54600 0.75800 0.01900 0.17600
H 	H 	0.54730 0.78550 0.99070 -0.65400
H 	H 	0.51850 0.76490 0.02270 0.00700
C 	C 	0.57380 0.80500 0.05600 -0.28600
H 	H 	0.57230 0.77740 0.08430 0.09000
H 	H 	0.56660 0.86980 0.05700 0.16300
C 	C 	0.61560 0.79700 0.04900 -0.27100
H 	H 	0.63400 0.83040 0.07210 0.13000
H 	H 	0.61720 0.82350 0.02040 0.14100
C 	C 	0.62660 0.69500 0.05000 -0.20200
H 	H 	0.63420 0.67800 0.02290 0.07500
H 	H 	0.64880 0.68360 0.07500 0.18100
C 	C 	0.59090 0.64100 0.05600 -0.19500
H 	H 	0.59760 0.57570 0.05760 0.07900
H 	H 	0.58380 0.65810 0.08360 0.09000
C 	C 	0.69900 0.67700 0.29200 0.05900
H 	H 	0.68380 0.69870 0.31280 -0.83300
H 	H 	0.71460 0.62390 0.30480 -0.78300
C 	C 	0.67100 0.64800 0.24900 -0.31700
H 	H 	0.66400 0.58310 0.25100 0.14500
H 	H 	0.64640 0.68320 0.24530 -0.03400
C 	C 	0.68900 0.66200 0.20900 -0.37500
H 	H 	0.67170 0.63490 0.18320 0.21200
H 	H 	0.71450 0.63170 0.21410 0.12900
C 	C 	0.69400 0.76400 0.20100 1.03100
H 	H 	0.71490 0.77290 0.18550 0.24300
H 	H 	0.66940 0.78860 0.18360 -0.24500
C 	C 	0.70400 0.81200 0.24600 -1.89400
H 	H 	0.72020 0.86600 0.24310 0.97400
H 	H 	0.67970 0.83370 0.25340 0.52100
C 	C 	0.72600 0.75100 0.28200 2.63700
H 	H 	0.74900 0.72410 0.27330 -0.54700
H 	H 	0.73570 0.78750 0.30890 -7.40600
C 	C 	0.95100 0.84900 0.35100 1.73200
H 	H 	0.96230 0.83690 0.32470 -0.28100
H 	H 	0.94190 0.79050 0.35990 -0.49400
C 	C 	0.98300 0.88700 0.38800 -0.99100
H 	H 	0.97300 0.89610 0.41410 0.32300
C 	C 	0.99800 0.97700 0.37300 0.76000
H 	H 	0.00860 0.96750 0.34650 -0.04000
H 	H 	0.01850 0.00240 0.39600 -0.29000
C 	C 	0.96300 0.04300 0.36200 0.70100
H 	H 	0.95230 0.05290 0.38830 0.18600
H 	H 	0.97210 0.10240 0.35330 -0.79200
C 	C 	0.93100 0.00600 0.32500 4.69000
H 	H 	0.90900 0.04860 0.31840 0.77400
H 	H 	0.94150 0.99840 0.29840 -1.34300
C 	C 	0.91700 0.91400 0.33800 -2.17700
H 	H 	0.89710 0.88890 0.31330 0.74700
H 	H 	0.90400 0.92210 0.36300 1.71400
C 	C 	0.73700 0.05200 0.22200 0.73500
H 	H 	0.73020 0.07030 0.19100 0.28200
H 	H 	0.72550 0.99240 0.22500 0.05900
C 	C 	0.72300 0.12300 0.25100 -0.13000
H 	H 	0.69620 0.10730 0.25400 0.05500
H 	H 	0.72230 0.18330 0.23750 0.09300
C 	C 	0.75200 0.12200 0.29600 -0.09900
H 	H 	0.77520 0.15700 0.29470 0.07400
H 	H 	0.73900 0.14890 0.31820 0.06800
C 	C 	0.76300 0.02200 0.30800 -0.29800
H 	H 	0.77490 0.01750 0.33970 0.09400
H 	H 	0.73930 0.98330 0.30180 0.16300
C 	C 	0.79200 0.99400 0.28100 -0.05300
H 	H 	0.81910 0.00710 0.29630 -0.46800
H 	H 	0.79000 0.92780 0.27470 0.09800
C 	C 	0.78200 0.04600 0.23700 -0.51600
H 	H 	0.79370 0.01500 0.21510 0.21000
H 	H 	0.79370 0.10770 0.24160 0.16000
C 	C 	0.35400 0.02700 0.83900 0.96700
H 	H 	0.35310 0.07060 0.81480 -1.50800
H 	H 	0.33010 0.98800 0.83100 -0.18400
C 	C 	0.39100 0.96800 0.84600 -0.46700
H 	H 	0.39300 0.92950 0.87170 0.14100
H 	H 	0.39030 0.92890 0.82000 0.16100
C 	C 	0.42700 0.03200 0.85200 0.10100
H 	H 	0.42350 0.07560 0.82730 0.06600
H 	H 	0.45090 0.99750 0.85320 0.21300
C 	C 	0.42900 0.08400 0.89500 -0.54100
H 	H 	0.43260 0.04000 0.91970 0.64000
H 	H 	0.45090 0.12600 0.90040 0.18700
C 	C 	0.39100 0.13600 0.89300 0.39700
H 	H 	0.39150 0.16500 0.92200 -0.04800
H 	H 	0.38850 0.18460 0.87130 -0.06900
C 	C 	0.35400 0.07700 0.88200 -0.60000
H 	H 	0.33060 0.11430 0.87900 0.06800
H 	H 	0.35450 0.03220 0.90550 -0.00900
C 	C 	0.27110 0.33000 0.85670 -0.50900
H 	H 	0.28140 0.37400 0.88000 0.16000
H 	H 	0.28730 0.27460 0.86210 0.17800
C 	C 	0.22830 0.30700 0.85700 0.53100
H 	H 	0.22440 0.24110 0.85240 -0.34900
H 	H 	0.22330 0.32190 0.88580 -0.11600
C 	C 	0.19850 0.35700 0.82200 -0.76900
H 	H 	0.17290 0.35630 0.83040 0.26900
H 	H 	0.19550 0.32400 0.79400 0.23600
C 	C 	0.21100 0.45400 0.81600 0.71600
H 	H 	0.21030 0.48890 0.84290 -0.16200
H 	H 	0.19140 0.48220 0.79190 -0.18600
C 	C 	0.25100 0.46100 0.80600 -1.19400
H 	H 	0.24910 0.48180 0.77560 0.40300
H 	H 	0.26710 0.50620 0.82550 1.06900
C 	C 	0.27300 0.37000 0.81200 0.43800
H 	H 	0.30000 0.37810 0.80980 -0.09900
H 	H 	0.25990 0.32790 0.78860 -0.07800
H 	H 	0.00550 0.84360 0.39470 0.30800
Zn	Zn	0.17019 0.60991 0.52292 1.15500
Zn	Zn	0.08180 0.12520 0.84009 1.15200
Zn	Zn	0.87457 0.84772 0.69057 1.17400
Zn	Zn	0.58781 0.87561 0.33791 1.16000
Zn	Zn	0.37449 0.15709 0.18674 1.15700
Zn	Zn	0.16932 0.89390 0.01812 1.16100
I 	I 	0.52940 0.90739 0.36935 -0.33100
I 	I 	0.62426 0.99009 0.30505 -0.39400
N 	N 	0.13800 0.59590 0.57100 -0.27100
C 	C 	0.15120 0.54500 0.60660 0.06800
H 	H 	0.17660 0.51930 0.61080 0.02800
C 	C 	0.12960 0.52890 0.63680 -0.10400
H 	H 	0.13920 0.49000 0.66070 0.08500
C 	C 	0.09310 0.56990 0.63250 0.06300
C 	C 	0.08150 0.62740 0.59710 -0.10900
H 	H 	0.05820 0.66160 0.59410 0.09100
C 	C 	0.10460 0.63480 0.56550 0.08300
H 	H 	0.09520 0.66910 0.53980 -0.02400
N 	N 	0.06990 0.23380 0.79580 -0.26200
C 	C 	0.03770 0.28450 0.79310 0.05500
H 	H 	0.01860 0.26730 0.80890 -0.01100
C 	C 	0.03190 0.36170 0.76720 -0.10300
H 	H 	0.00870 0.39630 0.76470 0.06200
C 	C 	0.05990 0.38740 0.74540 0.04800
C 	C 	0.09350 0.33780 0.75010 -0.11100
H 	H 	0.11390 0.35850 0.73710 0.06400
C 	C 	0.09790 0.25860 0.77320 0.04400
H 	H 	0.12000 0.22120 0.77370 -0.02800
N 	N 	0.92140 0.76160 0.69340 -0.27000
C 	C 	0.93650 0.71040 0.72840 0.06700
H 	H 	0.92440 0.71090 0.75270 -0.00300
C 	C 	0.96910 0.65700 0.73010 -0.11500
H 	H 	0.97960 0.62290 0.75550 0.07100
C 	C 	0.98620 0.65370 0.69460 0.04900
C 	C 	0.96950 0.70190 0.65770 -0.10700
H 	H 	0.97960 0.69850 0.63200 0.07100
C 	C 	0.93680 0.75670 0.65940 0.07200
H 	H 	0.92560 0.79170 0.63450 -0.02000
C 	C 	0.06910 0.55260 0.66410 0.10300
N 	N 	0.07630 0.47760 0.69010 -0.13700
C 	C 	0.05470 0.46910 0.71840 0.09700
N 	N 	0.02580 0.52670 0.72320 -0.14600
C 	C 	0.01920 0.59570 0.69430 0.09700
N 	N 	0.03940 0.61030 0.66410 -0.12800
N 	N 	0.83170 0.78410 0.64450 -0.26100
C 	C 	0.82300 0.70100 0.65110 0.07200
H 	H 	0.83610 0.67200 0.67710 -0.01000
C 	C 	0.79440 0.65180 0.62120 -0.10800
H 	H 	0.78960 0.58980 0.62570 0.06600
C 	C 	0.77360 0.69830 0.58460 0.05000
C 	C 	0.78460 0.78430 0.57820 -0.11400
H 	H 	0.77180 0.81630 0.55290 0.09800
C 	C 	0.81370 0.82500 0.60750 0.08200
H 	H 	0.82150 0.88440 0.60160 0.04000
N 	N 	0.62640 0.80740 0.38620 -0.29300
C 	C 	0.62150 0.72220 0.39200 0.00300
H 	H 	0.60110 0.69260 0.37200 -0.00600
C 	C 	0.64350 0.67110 0.42470 -0.14000
H 	H 	0.63930 0.60790 0.42630 0.10100
C 	C 	0.67210 0.71420 0.45550 0.02200
C 	C 	0.67840 0.80430 0.45100 -0.13600
H 	H 	0.69800 0.83520 0.47150 0.07600
C 	C 	0.65530 0.85070 0.41500 -0.04300
H 	H 	0.66010 0.91290 0.41100 0.01300
N 	N 	0.68400 0.24720 0.52710 -0.26700
C 	C 	0.65820 0.30430 0.50310 0.05700
H 	H 	0.63470 0.28060 0.48610 -0.01500
C 	C 	0.66470 0.39500 0.50230 -0.11400
H 	H 	0.64700 0.43320 0.48330 0.07900
C 	C 	0.69790 0.43060 0.53010 0.04800
C 	C 	0.72450 0.37120 0.55530 -0.13000
H 	H 	0.74790 0.39240 0.57360 0.01800
C 	C 	0.71530 0.27980 0.55250 0.06300
H 	H 	0.73280 0.23890 0.57010 -0.04500
C 	C 	0.74260 0.65130 0.55270 0.08800
N 	N 	0.73640 0.56360 0.55840 -0.14800
C 	C 	0.70690 0.52930 0.52890 0.09800
N 	N 	0.68450 0.57540 0.49620 -0.13500
C 	C 	0.69390 0.66180 0.49320 0.10400
N 	N 	0.72320 0.70520 0.52040 -0.14100
N 	N 	0.57330 0.77010 0.29470 -0.31100
C 	C 	0.54300 0.72030 0.29220 0.10500
H 	H 	0.52480 0.73650 0.30930 -0.06100
C 	C 	0.53500 0.64150 0.26520 -0.17200
H 	H 	0.51180 0.60750 0.26410 0.08100
C 	C 	0.56040 0.61670 0.24150 0.09000
C 	C 	0.59330 0.67410 0.24090 -0.21300
H 	H 	0.61100 0.66380 0.22240 0.09800
C 	C 	0.59670 0.74500 0.26950 0.10000
H 	H 	0.61930 0.78130 0.27130 -0.16300
N 	N 	0.42160 0.24190 0.19010 -0.28100
C 	C 	0.43840 0.28490 0.22660 0.05800
H 	H 	0.42860 0.27690 0.25230 -0.01900
C 	C 	0.47010 0.34110 0.22740 -0.11800
H 	H 	0.48170 0.37240 0.25330 0.03600
C 	C 	0.48480 0.35140 0.19050 0.05100
C 	C 	0.46610 0.30510 0.15530 -0.14100
H 	H 	0.47510 0.31040 0.12900 0.08900
C 	C 	0.43530 0.25210 0.15550 0.09500
H 	H 	0.42320 0.22120 0.12950 -0.03000
N 	N 	0.63790 0.41040 0.06590 -0.29900
C 	C 	0.60690 0.36240 0.06960 0.12300
H 	H 	0.60070 0.31240 0.05040 -0.00300
C 	C 	0.58420 0.37600 0.09630 -0.19400
H 	H 	0.56160 0.33940 0.09450 0.12000
C 	C 	0.59220 0.43970 0.12590 0.12500
C 	C 	0.62280 0.48500 0.12470 -0.18100
H 	H 	0.63090 0.52830 0.14700 0.10300
C 	C 	0.64490 0.47600 0.09440 0.09700
H 	H 	0.66540 0.51770 0.09380 -0.01800
C 	C 	0.55390 0.53320 0.21370 0.07900
N 	N 	0.52680 0.47780 0.21950 -0.15400
C 	C 	0.51950 0.41290 0.18990 0.09300
N 	N 	0.53920 0.39630 0.15950 -0.13600
C 	C 	0.56680 0.45370 0.15820 0.09000
N 	N 	0.57630 0.52490 0.18390 -0.13400
N 	N 	0.33250 0.22000 0.14040 -0.27000
C 	C 	0.31130 0.17490 0.10620 0.05500
H 	H 	0.31710 0.11340 0.10180 -0.01200
C 	C 	0.28100 0.21750 0.07710 -0.10900
H 	H 	0.26600 0.18490 0.05330 0.07500
C 	C 	0.27240 0.30950 0.08330 0.03200
C 	C 	0.29450 0.35230 0.11860 -0.11300
H 	H 	0.28950 0.41390 0.12380 0.08100
C 	C 	0.32280 0.30960 0.14570 0.05900
H 	H 	0.33720 0.34190 0.17000 0.00200
N 	N 	0.18170 0.75830 0.02410 -0.27900
C 	C 	0.15740 0.69880 0.00050 0.07300
H 	H 	0.13470 0.72180 0.98140 -0.01100
C 	C 	0.16270 0.60530 0.00180 -0.12700
H 	H 	0.14360 0.56540 0.98570 0.10600
C 	C 	0.19720 0.57400 0.02770 0.06500
C 	C 	0.22210 0.63330 0.05220 -0.13100
H 	H 	0.24500 0.61150 0.07130 0.08500
C 	C 	0.21480 0.72430 0.04960 0.06200
H 	H 	0.23330 0.76450 0.06620 -0.00500
N 	N 	0.12130 0.19300 0.88830 -0.27900
C 	C 	0.15170 0.15570 0.91450 0.08000
H 	H 	0.15810 0.09520 0.90890 -0.03800
C 	C 	0.17440 0.19960 0.94920 -0.14600
H 	H 	0.19570 0.16940 0.96750 0.06800
C 	C 	0.16610 0.28810 0.95720 0.05700
C 	C 	0.13490 0.32880 0.93100 -0.13500
H 	H 	0.12820 0.38950 0.93600 0.10400
C 	C 	0.11290 0.27950 0.89660 0.06300
H 	H 	0.09110 0.30770 0.87820 -0.00700
C 	C 	0.23980 0.35180 0.05150 0.09500
N 	N 	0.22040 0.30270 0.02000 -0.15000
C 	C 	0.19100 0.34020 0.99340 0.09500
N 	N 	0.18060 0.42750 0.99550 -0.12800
C 	C 	0.20450 0.47580 0.02700 0.09500
N 	N 	0.23420 0.43970 0.05680 -0.14300
I 	I 	0.12472 0.58981 0.44757 -0.30500
I 	I 	0.23041 0.51410 0.54615 0.12600
I 	I 	0.02210 0.10360 0.87864 -0.40100
I 	I 	0.11411 0.00740 0.80520 -0.12800
I 	I 	0.85270 0.84580 0.76430 -0.34000
I 	I 	0.89540 0.98860 0.65534 -0.44300
I 	I 	0.39670 0.01020 0.14990 -0.35100
I 	I 	0.35350 0.17400 0.25840 -0.18200
I 	I 	0.12080 0.90590 0.94320 -0.24600
I 	I 	0.22999 0.98730 0.03770 -0.04200
I 	I 	0.12720 0.57760 0.45730 -0.08300
I 	I 	0.23990 0.52590 0.55730 -0.33100
I 	I 	0.03060 0.10300 0.87130 -0.00200
I 	I 	0.12150 0.01470 0.79700 -0.30300
I 	I 	0.85660 0.85170 0.75370 0.01800
I 	I 	0.88430 0.00050 0.65410 0.14100
I 	I 	0.38500 0.01710 0.15390 -0.09100
I 	I 	0.35210 0.15440 0.25750 -0.14000
I 	I 	0.12890 0.93260 0.94760 -0.08600
I 	I 	0.23320 0.98460 0.05480 -0.22900
Zn	Zn	0.67019 0.10991 0.52292 1.15400
Zn	Zn	0.58180 0.62520 0.84009 1.15300
Zn	Zn	0.37457 0.34772 0.69057 1.16600
Zn	Zn	0.08781 0.37561 0.33791 1.16000
Zn	Zn	0.87449 0.65709 0.18674 1.15900
Zn	Zn	0.66932 0.39390 0.01812 1.15700
I 	I 	0.02940 0.40739 0.36935 -0.34500
I 	I 	0.12426 0.49009 0.30505 -0.49200
N 	N 	0.63800 0.09590 0.57100 -0.29700
C 	C 	0.65120 0.04500 0.60660 0.16400
H 	H 	0.67660 0.01930 0.61080 -0.01800
C 	C 	0.62960 0.02890 0.63680 -0.31900
H 	H 	0.63920 0.99000 0.66070 0.21800
C 	C 	0.59310 0.06990 0.63250 0.14700
C 	C 	0.58150 0.12740 0.59710 -0.17700
H 	H 	0.55820 0.16160 0.59410 0.08800
C 	C 	0.60460 0.13480 0.56550 0.10900
H 	H 	0.59520 0.16910 0.53980 -0.03600
N 	N 	0.56990 0.73380 0.79580 -0.25800
C 	C 	0.53770 0.78450 0.79310 0.04500
H 	H 	0.51860 0.76730 0.80890 -0.01600
C 	C 	0.53190 0.86170 0.76720 -0.09300
H 	H 	0.50870 0.89630 0.76470 0.06700
C 	C 	0.55990 0.88740 0.74540 0.02900
C 	C 	0.59350 0.83780 0.75010 -0.09400
H 	H 	0.61390 0.85850 0.73710 0.07700
C 	C 	0.59790 0.75860 0.77320 0.04100
H 	H 	0.62000 0.72120 0.77370 -0.00200
N 	N 	0.42140 0.26160 0.69340 -0.27500
C 	C 	0.43650 0.21040 0.72840 0.05800
H 	H 	0.42440 0.21090 0.75270 0.00400
C 	C 	0.46910 0.15700 0.73010 -0.12100
H 	H 	0.47960 0.12290 0.75550 0.06600
C 	C 	0.48620 0.15370 0.69460 0.03700
C 	C 	0.46950 0.20190 0.65770 -0.12800
H 	H 	0.47960 0.19850 0.63200 0.08000
C 	C 	0.43680 0.25670 0.65940 0.07200
H 	H 	0.42560 0.29170 0.63450 -0.02200
C 	C 	0.56910 0.05260 0.66410 0.00500
N 	N 	0.57630 0.97760 0.69010 -0.09800
C 	C 	0.55470 0.96910 0.71840 0.16400
N 	N 	0.52580 0.02670 0.72320 -0.19200
C 	C 	0.51920 0.09570 0.69430 0.08000
N 	N 	0.53940 0.11030 0.66410 -0.13300
N 	N 	0.33170 0.28410 0.64450 -0.26300
C 	C 	0.32300 0.20100 0.65110 0.05900
H 	H 	0.33610 0.17200 0.67710 -0.01200
C 	C 	0.29440 0.15180 0.62120 -0.10600
H 	H 	0.28960 0.08980 0.62570 0.04600
C 	C 	0.27360 0.19830 0.58460 0.04200
C 	C 	0.28460 0.28430 0.57820 -0.11500
H 	H 	0.27180 0.31630 0.55290 0.08600
C 	C 	0.31370 0.32500 0.60750 0.07300
H 	H 	0.32150 0.38440 0.60160 0.02500
N 	N 	0.12640 0.30740 0.38620 -0.29300
C 	C 	0.12150 0.22220 0.39200 -0.00500
H 	H 	0.10110 0.19260 0.37200 -0.00500
C 	C 	0.14350 0.17110 0.42470 -0.13600
H 	H 	0.13930 0.10790 0.42630 0.08300
C 	C 	0.17210 0.21420 0.45550 0.01200
C 	C 	0.17840 0.30430 0.45100 -0.13700
H 	H 	0.19800 0.33520 0.47150 0.06300
C 	C 	0.15530 0.35070 0.41500 -0.05100
H 	H 	0.16010 0.41290 0.41100 -0.00400
N 	N 	0.18400 0.74720 0.52710 -0.28000
C 	C 	0.15820 0.80430 0.50310 0.09500
H 	H 	0.13470 0.78060 0.48610 -0.02500
C 	C 	0.16470 0.89500 0.50230 -0.17300
H 	H 	0.14700 0.93320 0.48330 0.12300
C 	C 	0.19790 0.93060 0.53010 0.16700
C 	C 	0.22450 0.87120 0.55530 -0.18300
H 	H 	0.24790 0.89240 0.57360 0.05600
C 	C 	0.21530 0.77980 0.55250 0.09900
H 	H 	0.23280 0.73890 0.57010 -0.05500
C 	C 	0.24260 0.15130 0.55270 0.08300
N 	N 	0.23640 0.06360 0.55840 -0.14600
C 	C 	0.20690 0.02930 0.52890 0.00200
N 	N 	0.18450 0.07540 0.49620 -0.13700
C 	C 	0.19390 0.16180 0.49320 0.09700
N 	N 	0.22320 0.20520 0.52040 -0.14300
N 	N 	0.07330 0.27010 0.29470 -0.30400
C 	C 	0.04300 0.22030 0.29220 0.07900
H 	H 	0.02480 0.23650 0.30930 0.01200
C 	C 	0.03500 0.14150 0.26520 -0.15300
H 	H 	0.01180 0.10750 0.26410 0.06300
C 	C 	0.06040 0.11670 0.24150 0.08700
C 	C 	0.09330 0.17410 0.24090 -0.21600
H 	H 	0.11100 0.16380 0.22240 0.09600
C 	C 	0.09670 0.24500 0.26950 0.09600
H 	H 	0.11930 0.28130 0.27130 -0.16600
N 	N 	0.92160 0.74190 0.19010 -0.29000
C 	C 	0.93840 0.78490 0.22660 0.10700
H 	H 	0.92860 0.77690 0.25230 -0.00600
C 	C 	0.97010 0.84110 0.22740 -0.14900
H 	H 	0.98170 0.87240 0.25330 0.14200
C 	C 	0.98480 0.85140 0.19050 0.08700
C 	C 	0.96610 0.80510 0.15530 -0.15800
H 	H 	0.97510 0.81040 0.12900 0.09800
C 	C 	0.93530 0.75210 0.15550 0.11300
H 	H 	0.92320 0.72120 0.12950 -0.03400
N 	N 	0.13790 0.91040 0.06590 -0.29500
C 	C 	0.10690 0.86240 0.06960 0.09100
H 	H 	0.10070 0.81240 0.05040 0.00300
C 	C 	0.08420 0.87600 0.09630 -0.12900
H 	H 	0.06160 0.83940 0.09450 0.09700
C 	C 	0.09220 0.93970 0.12590 0.03900
C 	C 	0.12280 0.98500 0.12470 -0.02200
H 	H 	0.13090 0.02830 0.14700 0.00400
C 	C 	0.14490 0.97600 0.09440 0.16200
H 	H 	0.16540 0.01770 0.09380 -0.09200
C 	C 	0.05390 0.03320 0.21370 0.00600
N 	N 	0.02680 0.97780 0.21950 -0.09400
C 	C 	0.01950 0.91290 0.18990 0.10300
N 	N 	0.03920 0.89630 0.15950 -0.14700
C 	C 	0.06680 0.95370 0.15820 0.19100
N 	N 	0.07630 0.02490 0.18390 -0.17400
N 	N 	0.83250 0.72000 0.14040 -0.26900
C 	C 	0.81130 0.67490 0.10620 0.05800
H 	H 	0.81710 0.61340 0.10180 0.00400
C 	C 	0.78100 0.71750 0.07710 -0.11000
H 	H 	0.76600 0.68490 0.05330 0.08700
C 	C 	0.77240 0.80950 0.08330 0.03900
C 	C 	0.79450 0.85230 0.11860 -0.11700
H 	H 	0.78950 0.91390 0.12380 0.10300
C 	C 	0.82280 0.80960 0.14570 0.06300
H 	H 	0.83720 0.84190 0.17000 0.01400
N 	N 	0.68170 0.25830 0.02410 -0.26700
C 	C 	0.65740 0.19880 0.00050 0.04400
H 	H 	0.63470 0.22180 0.98140 -0.00000
C 	C 	0.66270 0.10530 0.00180 -0.06900
H 	H 	0.64360 0.06540 0.98570 0.07300
C 	C 	0.69720 0.07400 0.02770 -0.05300
C 	C 	0.72210 0.13330 0.05220 -0.06800
H 	H 	0.74500 0.11150 0.07130 0.04900
C 	C 	0.71480 0.22430 0.04960 0.02300
H 	H 	0.73330 0.26450 0.06620 0.00600
N 	N 	0.62130 0.69300 0.88830 -0.27800
C 	C 	0.65170 0.65570 0.91450 0.08500
H 	H 	0.65810 0.59520 0.90890 -0.02200
C 	C 	0.67440 0.69960 0.94920 -0.14800
H 	H 	0.69570 0.66940 0.96750 0.08000
C 	C 	0.66610 0.78810 0.95720 0.06600
C 	C 	0.63490 0.82880 0.93100 -0.14100
H 	H 	0.62820 0.88950 0.93600 0.12600
C 	C 	0.61290 0.77950 0.89660 0.07300
H 	H 	0.59110 0.80770 0.87820 -0.00300
C 	C 	0.73980 0.85180 0.05150 0.09500
N 	N 	0.72040 0.80270 0.02000 -0.14900
C 	C 	0.69100 0.84020 0.99340 0.09500
N 	N 	0.68060 0.92750 0.99550 -0.12700
C 	C 	0.70450 0.97580 0.02700 0.18600
N 	N 	0.73420 0.93970 0.05680 -0.14000
I 	I 	0.62472 0.08981 0.44757 -0.33000
I 	I 	0.73041 0.01410 0.54615 0.11400
I 	I 	0.52210 0.60360 0.87864 -0.38700
I 	I 	0.61411 0.50740 0.80520 -0.05500
I 	I 	0.35270 0.34580 0.76430 -0.36000
I 	I 	0.39540 0.48860 0.65534 -0.07300
I 	I 	0.89670 0.51020 0.14990 -0.31500
I 	I 	0.85350 0.67400 0.25840 -0.15500
I 	I 	0.62080 0.40590 0.94320 -0.29800
I 	I 	0.72999 0.48730 0.03770 -0.07700
I 	I 	0.62720 0.07760 0.45730 -0.10300
I 	I 	0.73990 0.02590 0.55730 -0.36600
I 	I 	0.53060 0.60300 0.87130 0.02200
I 	I 	0.62150 0.51470 0.79700 -0.28800
I 	I 	0.35660 0.35170 0.75370 0.00600
I 	I 	0.38430 0.50050 0.65410 -0.20700
I 	I 	0.88500 0.51710 0.15390 -0.05200
I 	I 	0.85210 0.65440 0.25750 -0.13700
I 	I 	0.62890 0.43260 0.94760 -0.08900
I 	I 	0.73320 0.48460 0.05480 -0.26200
Zn	Zn	0.82981 0.60991 0.47708 1.15500
Zn	Zn	0.91820 0.12520 0.15991 1.15200
Zn	Zn	0.12543 0.84772 0.30943 1.17400
Zn	Zn	0.41219 0.87561 0.66209 1.16000
Zn	Zn	0.62551 0.15709 0.81326 1.15700
Zn	Zn	0.83068 0.89390 0.98188 1.16100
I 	I 	0.47060 0.90739 0.63065 -0.33100
I 	I 	0.37574 0.99009 0.69495 -0.39400
N 	N 	0.86200 0.59590 0.42900 -0.27100
C 	C 	0.84880 0.54500 0.39340 0.06800
H 	H 	0.82340 0.51930 0.38920 0.02800
C 	C 	0.87040 0.52890 0.36320 -0.10400
H 	H 	0.86080 0.49000 0.33930 0.08500
C 	C 	0.90690 0.56990 0.36750 0.06300
C 	C 	0.91850 0.62740 0.40290 -0.10900
H 	H 	0.94180 0.66160 0.40590 0.09100
C 	C 	0.89540 0.63480 0.43450 0.08300
H 	H 	0.90480 0.66910 0.46020 -0.02400
N 	N 	0.93010 0.23380 0.20420 -0.26200
C 	C 	0.96230 0.28450 0.20690 0.05500
H 	H 	0.98140 0.26730 0.19110 -0.01100
C 	C 	0.96810 0.36170 0.23280 -0.10300
H 	H 	0.99130 0.39630 0.23530 0.06200
C 	C 	0.94010 0.38740 0.25460 0.04800
C 	C 	0.90650 0.33780 0.24990 -0.11100
H 	H 	0.88610 0.35850 0.26290 0.06400
C 	C 	0.90210 0.25860 0.22680 0.04400
H 	H 	0.88000 0.22120 0.22630 -0.02800
N 	N 	0.07860 0.76160 0.30660 -0.27000
C 	C 	0.06350 0.71040 0.27160 0.06700
H 	H 	0.07560 0.71090 0.24730 -0.00300
C 	C 	0.03090 0.65700 0.26990 -0.11500
H 	H 	0.02040 0.62290 0.24450 0.07100
C 	C 	0.01380 0.65370 0.30540 0.04900
C 	C 	0.03050 0.70190 0.34230 -0.10700
H 	H 	0.02040 0.69850 0.36800 0.07100
C 	C 	0.06320 0.75670 0.34060 0.07200
H 	H 	0.07440 0.79170 0.36550 -0.02000
C 	C 	0.93090 0.55260 0.33590 0.10300
N 	N 	0.92370 0.47760 0.30990 -0.13700
C 	C 	0.94530 0.46910 0.28160 0.09700
N 	N 	0.97420 0.52670 0.27680 -0.14600
C 	C 	0.98080 0.59570 0.30570 0.09700
N 	N 	0.96060 0.61030 0.33590 -0.12800
N 	N 	0.16830 0.78410 0.35550 -0.26100
C 	C 	0.17700 0.70100 0.34890 0.07200
H 	H 	0.16390 0.67200 0.32290 -0.01000
C 	C 	0.20560 0.65180 0.37880 -0.10800
H 	H 	0.21040 0.58980 0.37430 0.06600
C 	C 	0.22640 0.69830 0.41540 0.05000
C 	C 	0.21540 0.78430 0.42180 -0.11400
H 	H 	0.22820 0.81630 0.44710 0.09800
C 	C 	0.18630 0.82500 0.39250 0.08200
H 	H 	0.17850 0.88440 0.39840 0.04000
N 	N 	0.37360 0.80740 0.61380 -0.29300
C 	C 	0.37850 0.72220 0.60800 0.00300
H 	H 	0.39890 0.69260 0.62800 -0.00600
C 	C 	0.35650 0.67110 0.57530 -0.14000
H 	H 	0.36070 0.60790 0.57370 0.10100
C 	C 	0.32790 0.71420 0.54450 0.02200
C 	C 	0.32160 0.80430 0.54900 -0.13600
H 	H 	0.30200 0.83520 0.52850 0.07600
C 	C 	0.34470 0.85070 0.58500 -0.04300
H 	H 	0.33990 0.91290 0.58900 0.01300
N 	N 	0.31600 0.24720 0.47290 -0.26700
C 	C 	0.34180 0.30430 0.49690 0.05700
H 	H 	0.36530 0.28060 0.51390 -0.01500
C 	C 	0.33530 0.39500 0.49770 -0.11400
H 	H 	0.35300 0.43320 0.51670 0.07900
C 	C 	0.30210 0.43060 0.46990 0.04800
C 	C 	0.27550 0.37120 0.44470 -0.13000
H 	H 	0.25210 0.39240 0.42640 0.01800
C 	C 	0.28470 0.27980 0.44750 0.06300
H 	H 	0.26720 0.23890 0.42990 -0.04500
C 	C 	0.25740 0.65130 0.44730 0.08800
N 	N 	0.26360 0.56360 0.44160 -0.14800
C 	C 	0.29310 0.52930 0.47110 0.09800
N 	N 	0.31550 0.57540 0.50380 -0.13500
C 	C 	0.30610 0.66180 0.50680 0.10400
N 	N 	0.27680 0.70520 0.47960 -0.14100
N 	N 	0.42670 0.77010 0.70530 -0.31100
C 	C 	0.45700 0.72030 0.70780 0.10500
H 	H 	0.47520 0.73650 0.69070 -0.06100
C 	C 	0.46500 0.64150 0.73480 -0.17200
H 	H 	0.48820 0.60750 0.73590 0.08100
C 	C 	0.43960 0.61670 0.75850 0.09000
C 	C 	0.40670 0.67410 0.75910 -0.21300
H 	H 	0.38900 0.66380 0.77760 0.09800
C 	C 	0.40330 0.74500 0.73050 0.10000
H 	H 	0.38070 0.78130 0.72870 -0.16300
N 	N 	0.57840 0.24190 0.80990 -0.28100
C 	C 	0.56160 0.28490 0.77340 0.05800
H 	H 	0.57140 0.27690 0.74770 -0.01900
C 	C 	0.52990 0.34110 0.77260 -0.11800
H 	H 	0.51830 0.37240 0.74670 0.03600
C 	C 	0.51520 0.35140 0.80950 0.05100
C 	C 	0.53390 0.30510 0.84470 -0.14100
H 	H 	0.52490 0.31040 0.87100 0.08900
C 	C 	0.56470 0.25210 0.84450 0.09500
H 	H 	0.57680 0.22120 0.87050 -0.03000
N 	N 	0.36210 0.41040 0.93410 -0.29900
C 	C 	0.39310 0.36240 0.93040 0.12300
H 	H 	0.39930 0.31240 0.94960 -0.00300
C 	C 	0.41580 0.37600 0.90370 -0.19400
H 	H 	0.43840 0.33940 0.90550 0.12000
C 	C 	0.40780 0.43970 0.87410 0.12500
C 	C 	0.37720 0.48500 0.87530 -0.18100
H 	H 	0.36910 0.52830 0.85300 0.10300
C 	C 	0.35510 0.47600 0.90560 0.09700
H 	H 	0.33460 0.51770 0.90620 -0.01800
C 	C 	0.44610 0.53320 0.78630 0.07900
N 	N 	0.47320 0.47780 0.78050 -0.15400
C 	C 	0.48050 0.41290 0.81010 0.09300
N 	N 	0.46080 0.39630 0.84050 -0.13600
C 	C 	0.43320 0.45370 0.84180 0.09000
N 	N 	0.42370 0.52490 0.81610 -0.13400
N 	N 	0.66750 0.22000 0.85960 -0.27000
C 	C 	0.68870 0.17490 0.89380 0.05500
H 	H 	0.68290 0.11340 0.89820 -0.01200
C 	C 	0.71900 0.21750 0.92290 -0.10900
H 	H 	0.73400 0.18490 0.94670 0.07500
C 	C 	0.72760 0.30950 0.91670 0.03200
C 	C 	0.70550 0.35230 0.88140 -0.11300
H 	H 	0.71050 0.41390 0.87620 0.08100
C 	C 	0.67720 0.30960 0.85430 0.05900
H 	H 	0.66280 0.34190 0.83000 0.00200
N 	N 	0.81830 0.75830 0.97590 -0.27900
C 	C 	0.84260 0.69880 0.99950 0.07300
H 	H 	0.86530 0.72180 0.01860 -0.01100
C 	C 	0.83730 0.60530 0.99820 -0.12700
H 	H 	0.85640 0.56540 0.01430 0.10600
C 	C 	0.80280 0.57400 0.97230 0.06500
C 	C 	0.77790 0.63330 0.94780 -0.13100
H 	H 	0.75500 0.61150 0.92870 0.08500
C 	C 	0.78520 0.72430 0.95040 0.06200
H 	H 	0.76670 0.76450 0.93380 -0.00500
N 	N 	0.87870 0.19300 0.11170 -0.27900
C 	C 	0.84830 0.15570 0.08550 0.08000
H 	H 	0.84190 0.09520 0.09110 -0.03800
C 	C 	0.82560 0.19960 0.05080 -0.14600
H 	H 	0.80430 0.16940 0.03250 0.06800
C 	C 	0.83390 0.28810 0.04280 0.05700
C 	C 	0.86510 0.32880 0.06900 -0.13500
H 	H 	0.87180 0.38950 0.06400 0.10400
C 	C 	0.88710 0.27950 0.10340 0.06300
H 	H 	0.90890 0.30770 0.12180 -0.00700
C 	C 	0.76020 0.35180 0.94850 0.09500
N 	N 	0.77960 0.30270 0.98000 -0.15000
C 	C 	0.80900 0.34020 0.00660 0.09500
N 	N 	0.81940 0.42750 0.00450 -0.12800
C 	C 	0.79550 0.47580 0.97300 0.09500
N 	N 	0.76580 0.43970 0.94320 -0.14300
I 	I 	0.87528 0.58981 0.55243 -0.30500
I 	I 	0.76959 0.51410 0.45385 0.12600
I 	I 	0.97790 0.10360 0.12136 -0.40100
I 	I 	0.88589 0.00740 0.19480 -0.12800
I 	I 	0.14730 0.84580 0.23570 -0.34000
I 	I 	0.10460 0.98860 0.34466 -0.44300
I 	I 	0.60330 0.01020 0.85010 -0.35100
I 	I 	0.64650 0.17400 0.74160 -0.18200
I 	I 	0.87920 0.90590 0.05680 -0.24600
I 	I 	0.77001 0.98730 0.96230 -0.04200
I 	I 	0.87280 0.57760 0.54270 -0.08300
I 	I 	0.76010 0.52590 0.44270 -0.33100
I 	I 	0.96940 0.10300 0.12870 -0.00200
I 	I 	0.87850 0.01470 0.20300 -0.30300
I 	I 	0.14340 0.85170 0.24630 0.01800
I 	I 	0.11570 0.00050 0.34590 0.14100
I 	I 	0.61500 0.01710 0.84610 -0.09100
I 	I 	0.64790 0.15440 0.74250 -0.14000
I 	I 	0.87110 0.93260 0.05240 -0.08600
I 	I 	0.76680 0.98460 0.94520 -0.22900
Zn	Zn	0.32981 0.10991 0.47708 1.15400
Zn	Zn	0.41820 0.62520 0.15991 1.15300
Zn	Zn	0.62543 0.34772 0.30943 1.16600
Zn	Zn	0.91219 0.37561 0.66209 1.16000
Zn	Zn	0.12551 0.65709 0.81326 1.15900
Zn	Zn	0.33068 0.39390 0.98188 1.15700
I 	I 	0.97060 0.40739 0.63065 -0.34500
I 	I 	0.87574 0.49009 0.69495 -0.49200
N 	N 	0.36200 0.09590 0.42900 -0.29700
C 	C 	0.34880 0.04500 0.39340 0.16400
H 	H 	0.32340 0.01930 0.38920 -0.01800
C 	C 	0.37040 0.02890 0.36320 -0.31900
H 	H 	0.36080 0.99000 0.33930 0.21800
C 	C 	0.40690 0.06990 0.36750 0.14700
C 	C 	0.41850 0.12740 0.40290 -0.17700
H 	H 	0.44180 0.16160 0.40590 0.08800
C 	C 	0.39540 0.13480 0.43450 0.10900
H 	H 	0.40480 0.16910 0.46020 -0.03600
N 	N 	0.43010 0.73380 0.20420 -0.25800
C 	C 	0.46230 0.78450 0.20690 0.04500
H 	H 	0.48140 0.76730 0.19110 -0.01600
C 	C 	0.46810 0.86170 0.23280 -0.09300
H 	H 	0.49130 0.89630 0.23530 0.06700
C 	C 	0.44010 0.88740 0.25460 0.02900
C 	C 	0.40650 0.83780 0.24990 -0.09400
H 	H 	0.38610 0.85850 0.26290 0.07700
C 	C 	0.40210 0.75860 0.22680 0.04100
H 	H 	0.38000 0.72120 0.22630 -0.00200
N 	N 	0.57860 0.26160 0.30660 -0.27500
C 	C 	0.56350 0.21040 0.27160 0.05800
H 	H 	0.57560 0.21090 0.24730 0.00400
C 	C 	0.53090 0.15700 0.26990 -0.12100
H 	H 	0.52040 0.12290 0.24450 0.06600
C 	C 	0.51380 0.15370 0.30540 0.03700
C 	C 	0.53050 0.20190 0.34230 -0.12800
H 	H 	0.52040 0.19850 0.36800 0.08000
C 	C 	0.56320 0.25670 0.34060 0.07200
H 	H 	0.57440 0.29170 0.36550 -0.02200
C 	C 	0.43090 0.05260 0.33590 0.00500
N 	N 	0.42370 0.97760 0.30990 -0.09800
C 	C 	0.44530 0.96910 0.28160 0.16400
N 	N 	0.47420 0.02670 0.27680 -0.19200
C 	C 	0.48080 0.09570 0.30570 0.08000
N 	N 	0.46060 0.11030 0.33590 -0.13300
N 	N 	0.66830 0.28410 0.35550 -0.26300
C 	C 	0.67700 0.20100 0.34890 0.05900
H 	H 	0.66390 0.17200 0.32290 -0.01200
C 	C 	0.70560 0.15180 0.37880 -0.10600
H 	H 	0.71040 0.08980 0.37430 0.04600
C 	C 	0.72640 0.19830 0.41540 0.04200
C 	C 	0.71540 0.28430 0.42180 -0.11500
H 	H 	0.72820 0.31630 0.44710 0.08600
C 	C 	0.68630 0.32500 0.39250 0.07300
H 	H 	0.67850 0.38440 0.39840 0.02500
N 	N 	0.87360 0.30740 0.61380 -0.29300
C 	C 	0.87850 0.22220 0.60800 -0.00500
H 	H 	0.89890 0.19260 0.62800 -0.00500
C 	C 	0.85650 0.17110 0.57530 -0.13600
H 	H 	0.86070 0.10790 0.57370 0.08300
C 	C 	0.82790 0.21420 0.54450 0.01200
C 	C 	0.82160 0.30430 0.54900 -0.13700
H 	H 	0.80200 0.33520 0.52850 0.06300
C 	C 	0.84470 0.35070 0.58500 -0.05100
H 	H 	0.83990 0.41290 0.58900 -0.00400
N 	N 	0.81600 0.74720 0.47290 -0.28000
C 	C 	0.84180 0.80430 0.49690 0.09500
H 	H 	0.86530 0.78060 0.51390 -0.02500
C 	C 	0.83530 0.89500 0.49770 -0.17300
H 	H 	0.85300 0.93320 0.51670 0.12300
C 	C 	0.80210 0.93060 0.46990 0.16700
C 	C 	0.77550 0.87120 0.44470 -0.18300
H 	H 	0.75210 0.89240 0.42640 0.05600
C 	C 	0.78470 0.77980 0.44750 0.09900
H 	H 	0.76720 0.73890 0.42990 -0.05500
C 	C 	0.75740 0.15130 0.44730 0.08300
N 	N 	0.76360 0.06360 0.44160 -0.14600
C 	C 	0.79310 0.02930 0.47110 0.00200
N 	N 	0.81550 0.07540 0.50380 -0.13700
C 	C 	0.80610 0.16180 0.50680 0.09700
N 	N 	0.77680 0.20520 0.47960 -0.14300
N 	N 	0.92670 0.27010 0.70530 -0.30400
C 	C 	0.95700 0.22030 0.70780 0.07900
H 	H 	0.97520 0.23650 0.69070 0.01200
C 	C 	0.96500 0.14150 0.73480 -0.15300
H 	H 	0.98820 0.10750 0.73590 0.06300
C 	C 	0.93960 0.11670 0.75850 0.08700
C 	C 	0.90670 0.17410 0.75910 -0.21600
H 	H 	0.88900 0.16380 0.77760 0.09600
C 	C 	0.90330 0.24500 0.73050 0.09600
H 	H 	0.88070 0.28130 0.72870 -0.16600
N 	N 	0.07840 0.74190 0.80990 -0.29000
C 	C 	0.06160 0.78490 0.77340 0.10700
H 	H 	0.07140 0.77690 0.74770 -0.00600
C 	C 	0.02990 0.84110 0.77260 -0.14900
H 	H 	0.01830 0.87240 0.74670 0.14200
C 	C 	0.01520 0.85140 0.80950 0.08700
C 	C 	0.03390 0.80510 0.84470 -0.15800
H 	H 	0.02490 0.81040 0.87100 0.09800
C 	C 	0.06470 0.75210 0.84450 0.11300
H 	H 	0.07680 0.72120 0.87050 -0.03400
N 	N 	0.86210 0.91040 0.93410 -0.29500
C 	C 	0.89310 0.86240 0.93040 0.09100
H 	H 	0.89930 0.81240 0.94960 0.00300
C 	C 	0.91580 0.87600 0.90370 -0.12900
H 	H 	0.93840 0.83940 0.90550 0.09700
C 	C 	0.90780 0.93970 0.87410 0.03900
C 	C 	0.87720 0.98500 0.87530 -0.02200
H 	H 	0.86910 0.02830 0.85300 0.00400
C 	C 	0.85510 0.97600 0.90560 0.16200
H 	H 	0.83460 0.01770 0.90620 -0.09200
C 	C 	0.94610 0.03320 0.78630 0.00600
N 	N 	0.97320 0.97780 0.78050 -0.09400
C 	C 	0.98050 0.91290 0.81010 0.10300
N 	N 	0.96080 0.89630 0.84050 -0.14700
C 	C 	0.93320 0.95370 0.84180 0.19100
N 	N 	0.92370 0.02490 0.81610 -0.17400
N 	N 	0.16750 0.72000 0.85960 -0.26900
C 	C 	0.18870 0.67490 0.89380 0.05800
H 	H 	0.18290 0.61340 0.89820 0.00400
C 	C 	0.21900 0.71750 0.92290 -0.11000
H 	H 	0.23400 0.68490 0.94670 0.08700
C 	C 	0.22760 0.80950 0.91670 0.03900
C 	C 	0.20550 0.85230 0.88140 -0.11700
H 	H 	0.21050 0.91390 0.87620 0.10300
C 	C 	0.17720 0.80960 0.85430 0.06300
H 	H 	0.16280 0.84190 0.83000 0.01400
N 	N 	0.31830 0.25830 0.97590 -0.26700
C 	C 	0.34260 0.19880 0.99950 0.04400
H 	H 	0.36530 0.22180 0.01860 -0.00000
C 	C 	0.33730 0.10530 0.99820 -0.06900
H 	H 	0.35640 0.06540 0.01430 0.07300
C 	C 	0.30280 0.07400 0.97230 -0.05300
C 	C 	0.27790 0.13330 0.94780 -0.06800
H 	H 	0.25500 0.11150 0.92870 0.04900
C 	C 	0.28520 0.22430 0.95040 0.02300
H 	H 	0.26670 0.26450 0.93380 0.00600
N 	N 	0.37870 0.69300 0.11170 -0.27800
C 	C 	0.34830 0.65570 0.08550 0.08500
H 	H 	0.34190 0.59520 0.09110 -0.02200
C 	C 	0.32560 0.69960 0.05080 -0.14800
H 	H 	0.30430 0.66940 0.03250 0.08000
C 	C 	0.33390 0.78810 0.04280 0.06600
C 	C 	0.36510 0.82880 0.06900 -0.14100
H 	H 	0.37180 0.88950 0.06400 0.12600
C 	C 	0.38710 0.77950 0.10340 0.07300
H 	H 	0.40890 0.80770 0.12180 -0.00300
C 	C 	0.26020 0.85180 0.94850 0.09500
N 	N 	0.27960 0.80270 0.98000 -0.14900
C 	C 	0.30900 0.84020 0.00660 0.09500
N 	N 	0.31940 0.92750 0.00450 -0.12700
C 	C 	0.29550 0.97580 0.97300 0.18600
N 	N 	0.26580 0.93970 0.94320 -0.14000
I 	I 	0.37528 0.08981 0.55243 -0.33000
I 	I 	0.26959 0.01410 0.45385 0.11400
I 	I 	0.47790 0.60360 0.12136 -0.38700
I 	I 	0.38589 0.50740 0.19480 -0.05500
I 	I 	0.64730 0.34580 0.23570 -0.36000
I 	I 	0.60460 0.48860 0.34466 -0.07300
I 	I 	0.10330 0.51020 0.85010 -0.31500
I 	I 	0.14650 0.67400 0.74160 -0.15500
I 	I 	0.37920 0.40590 0.05680 -0.29800
I 	I 	0.27001 0.48730 0.96230 -0.07700
I 	I 	0.37280 0.07760 0.54270 -0.10300
I 	I 	0.26010 0.02590 0.44270 -0.36600
I 	I 	0.46940 0.60300 0.12870 0.02200
I 	I 	0.37850 0.51470 0.20300 -0.28800
I 	I 	0.64340 0.35170 0.24630 0.00600
I 	I 	0.61570 0.50050 0.34590 -0.20700
I 	I 	0.11500 0.51710 0.84610 -0.05200
I 	I 	0.14790 0.65440 0.74250 -0.13700
I 	I 	0.37110 0.43260 0.05240 -0.08900
I 	I 	0.26680 0.48460 0.94520 -0.26200
