data_crystal

_cell_length_a 13.14510
_cell_length_b 31.96830
_cell_length_c 38.89330
_cell_angle_alpha 90.00000
_cell_angle_beta  90.00000
_cell_angle_gamma 90.00000

_symmetry_space_group_name_	'P 1'
_symmetry_space_group_name_H-M	'P 1'

loop_
_symmetry_equiv_pos_as_xyz
  x,y,z

loop_
_atom_site_label
_atom_site_type_symbol
_atom_site_fract_x
_atom_site_fract_y
_atom_site_fract_z
_atom_site_charge
Zn	Zn	0.40127 0.40996 0.92564 1.23500
Zn	Zn	0.58418 0.34137 0.92783 1.18700
C 	C 	0.01210 0.13850 0.73130 -0.08700
C 	C 	0.91930 0.14920 0.71660 0.31400
C 	C 	0.87620 0.12370 0.69160 -0.40700
H 	H 	0.81410 0.13090 0.68180 0.09600
C 	C 	0.92590 0.08740 0.68130 0.03800
C 	C 	0.01870 0.07670 0.69600 -0.01400
C 	C 	0.06180 0.10220 0.72100 0.04200
C 	C 	0.15640 0.09210 0.73480 -0.08900
H 	H 	0.18280 0.10860 0.75240 0.05300
C 	C 	0.21370 0.05740 0.72300 -0.04700
H 	H 	0.27680 0.05120 0.73250 0.03300
C 	C 	0.17180 0.03150 0.69550 -0.01100
C 	C 	0.07580 0.04210 0.68330 -0.07600
H 	H 	0.04750 0.02580 0.66600 0.06500
C 	C 	0.05160 0.16740 0.76165 -0.15800
C 	C 	0.10380 0.20330 0.75183 0.31000
C 	C 	0.15070 0.22810 0.77653 -0.34000
H 	H 	0.18570 0.25210 0.77000 0.00400
C 	C 	0.14540 0.21700 0.81105 0.09700
C 	C 	0.09320 0.18110 0.82086 -0.09900
C 	C 	0.04630 0.15631 0.79617 0.15600
C 	C 	0.99380 0.12130 0.80750 -0.19700
H 	H 	0.96440 0.10400 0.79110 0.09200
C 	C 	0.98280 0.11100 0.84040 0.01500
H 	H 	0.94630 0.08710 0.84620 0.01300
C 	C 	0.02610 0.13610 0.86680 -0.06500
C 	C 	0.08190 0.17100 0.85620 0.00800
H 	H 	0.11250 0.18790 0.87270 0.02400
C 	C 	0.20590 0.24400 0.83514 0.02300
C 	C 	0.17710 0.28540 0.83999 -0.12700
H 	H 	0.11940 0.29580 0.82910 0.08100
C 	C 	0.23470 0.31132 0.86110 0.05200
H 	H 	0.21540 0.33900 0.86430 0.02200
C 	C 	0.32100 0.29580 0.87734 -0.15700
C 	C 	0.34980 0.25440 0.87249 0.03500
H 	H 	0.40750 0.24400 0.88340 0.00400
C 	C 	0.29230 0.22848 0.85140 -0.13500
H 	H 	0.31150 0.20080 0.84810 0.05600
O 	O 	0.47550 0.31200 0.90580 -0.53100
O 	O 	0.34670 0.35850 0.90580 -0.50100
C 	C 	0.01340 0.12750 0.90392 0.20900
C 	C 	0.09400 0.13500 0.92618 -0.26800
H 	H 	0.15600 0.14440 0.91760 0.09900
C 	C 	0.08220 0.12850 0.96128 0.22300
H 	H 	0.13610 0.13360 0.97620 -0.06300
C 	C 	0.98960 0.11450 0.97414 -0.31500
C 	C 	0.90890 0.10690 0.95188 0.20400
H 	H 	0.84700 0.09750 0.96050 -0.02600
C 	C 	0.92080 0.11340 0.91677 -0.29800
H 	H 	0.86680 0.10840 0.90190 0.14100
O 	O 	0.04670 0.12920 0.03040 -0.54400
O 	O 	0.90940 0.09360 0.02430 -0.56600
C 	C 	0.87520 0.05940 0.65520 0.00000
C 	C 	0.85500 0.07390 0.62220 -0.11600
H 	H 	0.87510 0.10070 0.61590 -0.00500
C 	C 	0.80480 0.04840 0.59880 0.01900
H 	H 	0.79130 0.05820 0.57670 0.00200
C 	C 	0.77480 0.00840 0.60830 -0.12900
C 	C 	0.79490 0.99380 0.64120 0.02900
H 	H 	0.77490 0.96700 0.64760 0.02500
C 	C 	0.84510 0.01930 0.66470 -0.10500
H 	H 	0.85860 0.00960 0.68680 0.05500
O 	O 	0.35980 0.87880 0.60740 -0.52900
O 	O 	0.47980 0.92640 0.60270 -0.55600
C 	C 	0.23310 0.99880 0.67880 0.07200
C 	C 	0.19190 0.96030 0.66980 -0.14600
H 	H 	0.12780 0.95270 0.67780 0.09000
C 	C 	0.24650 0.93310 0.64890 0.06800
H 	H 	0.21890 0.90730 0.64290 0.01800
C 	C 	0.34220 0.94440 0.63700 -0.15800
C 	C 	0.38340 0.98290 0.64600 0.06200
H 	H 	0.44750 0.99050 0.63800 0.00600
C 	C 	0.32880 0.01010 0.66690 -0.14600
H 	H 	0.35640 0.03590 0.67290 0.05600
C 	C 	0.72170 0.98110 0.58280 0.39000
C 	C 	0.40140 0.91450 0.61250 0.46400
C 	C 	0.38510 0.32470 0.89690 0.40200
C 	C 	0.97330 0.11020 0.01140 0.50600
O 	O 	0.72310 0.99180 0.55170 -0.29700
O 	O 	0.69770 0.94740 0.59310 -0.48600
O 	O 	0.87400 0.18800 0.72320 -1.04400
O 	O 	0.10720 0.21690 0.71800 -1.22000
Ti	Ti	0.18330 0.26810 0.69710 3.00600
O 	O 	-0.00000 0.29500 0.65500 -2.69900
C 	C 	0.09030 0.29410 0.63800 1.97100
H 	H 	0.12100 0.26770 0.64560 -1.58700
C 	C 	0.16460 0.32730 0.65110 -2.24400
H 	H 	0.19780 0.31720 0.67150 0.24600
H 	H 	0.12810 0.35250 0.65640 0.73700
H 	H 	0.21460 0.33290 0.63370 0.61700
C 	C 	0.08410 0.28920 0.59880 -2.74900
H 	H 	0.11290 0.26280 0.59230 0.81900
H 	H 	0.12120 0.31150 0.58800 0.78600
H 	H 	0.01420 0.29030 0.59170 0.72100
O 	O 	0.13550 0.26280 0.65000 0.52900
C 	C 	0.16450 0.22550 0.63640 1.21000
H 	H 	0.21690 0.21570 0.65240 -0.59300
C 	C 	0.22220 0.23060 0.60250 -1.39600
H 	H 	0.17760 0.24210 0.58540 0.22400
H 	H 	0.24650 0.20380 0.59490 0.39100
H 	H 	0.27910 0.24900 0.60590 0.34800
C 	C 	0.08460 0.19050 0.63730 -3.51400
H 	H 	0.09560 0.17340 0.65720 1.21800
H 	H 	0.09060 0.17370 0.61690 0.98100
H 	H 	0.01790 0.20270 0.63820 2.60800
Zn	Zn	0.90127 0.90996 0.42564 1.22800
Zn	Zn	0.08418 0.84137 0.42783 1.19200
C 	C 	0.51210 0.63850 0.23130 -0.16100
C 	C 	0.41930 0.64920 0.21660 0.38600
C 	C 	0.37620 0.62370 0.19160 -0.47100
H 	H 	0.31410 0.63090 0.18180 0.11600
C 	C 	0.42590 0.58740 0.18130 0.11500
C 	C 	0.51870 0.57670 0.19600 -0.09800
C 	C 	0.56180 0.60220 0.22100 0.09600
C 	C 	0.65640 0.59210 0.23480 -0.13200
H 	H 	0.68280 0.60860 0.25240 0.06400
C 	C 	0.71370 0.55740 0.22300 -0.02000
H 	H 	0.77680 0.55120 0.23250 0.01900
C 	C 	0.67180 0.53150 0.19550 -0.04200
C 	C 	0.57580 0.54210 0.18330 -0.03300
H 	H 	0.54750 0.52580 0.16600 0.03900
C 	C 	0.55160 0.66740 0.26165 -0.12500
C 	C 	0.60380 0.70330 0.25183 0.28500
C 	C 	0.65070 0.72810 0.27653 -0.32500
H 	H 	0.68570 0.75210 0.27000 -0.00700
C 	C 	0.64540 0.71700 0.31105 0.07300
C 	C 	0.59320 0.68110 0.32086 -0.07100
C 	C 	0.54630 0.65631 0.29617 0.08700
C 	C 	0.49380 0.62130 0.30750 -0.12600
H 	H 	0.46440 0.60400 0.29110 0.07800
C 	C 	0.48280 0.61100 0.34040 0.00400
H 	H 	0.44630 0.58710 0.34620 0.02600
C 	C 	0.52610 0.63610 0.36680 -0.05100
C 	C 	0.58190 0.67100 0.35620 -0.02300
H 	H 	0.61250 0.68790 0.37270 0.03200
C 	C 	0.70590 0.74400 0.33514 0.03100
C 	C 	0.67710 0.78540 0.33999 -0.13600
H 	H 	0.61940 0.79580 0.32910 0.07600
C 	C 	0.73470 0.81132 0.36110 0.05600
H 	H 	0.71540 0.83900 0.36430 0.01700
C 	C 	0.82100 0.79580 0.37734 -0.16700
C 	C 	0.84980 0.75440 0.37249 0.04200
H 	H 	0.90750 0.74400 0.38340 -0.00600
C 	C 	0.79230 0.72848 0.35140 -0.14600
H 	H 	0.81150 0.70080 0.34810 0.05600
O 	O 	0.97550 0.81200 0.40580 -0.55000
O 	O 	0.84670 0.85850 0.40580 -0.50900
C 	C 	0.51340 0.62750 0.40392 0.11900
C 	C 	0.59400 0.63500 0.42618 -0.19100
H 	H 	0.65600 0.64440 0.41760 0.07100
C 	C 	0.58220 0.62850 0.46128 0.12000
H 	H 	0.63610 0.63360 0.47620 -0.03300
C 	C 	0.48960 0.61450 0.47414 -0.23200
C 	C 	0.40890 0.60690 0.45188 0.12900
H 	H 	0.34700 0.59750 0.46050 0.00100
C 	C 	0.42080 0.61340 0.41677 -0.19300
H 	H 	0.36680 0.60840 0.40190 0.10800
O 	O 	0.54670 0.62920 0.53040 -0.56700
O 	O 	0.40940 0.59360 0.52430 -0.56000
C 	C 	0.37520 0.55940 0.15520 -0.02800
C 	C 	0.35500 0.57390 0.12220 -0.09000
H 	H 	0.37510 0.60070 0.11590 -0.01200
C 	C 	0.30480 0.54840 0.09880 0.00400
H 	H 	0.29130 0.55820 0.07670 0.01100
C 	C 	0.27480 0.50840 0.10830 -0.11200
C 	C 	0.29490 0.49380 0.14120 0.01500
H 	H 	0.27490 0.46700 0.14760 0.03500
C 	C 	0.34510 0.51930 0.16470 -0.07700
H 	H 	0.35860 0.50960 0.18680 0.05300
O 	O 	0.85980 0.37880 0.10740 -0.53500
O 	O 	0.97980 0.42640 0.10270 -0.57300
C 	C 	0.73310 0.49880 0.17880 0.08400
C 	C 	0.69190 0.46030 0.16980 -0.15600
H 	H 	0.62780 0.45270 0.17780 0.08600
C 	C 	0.74650 0.43310 0.14890 0.07200
H 	H 	0.71890 0.40730 0.14290 0.01400
C 	C 	0.84220 0.44440 0.13700 -0.16800
C 	C 	0.88340 0.48290 0.14600 0.06800
H 	H 	0.94750 0.49050 0.13800 -0.00400
C 	C 	0.82880 0.51010 0.16690 -0.15900
H 	H 	0.85640 0.53590 0.17290 0.05600
C 	C 	0.22170 0.48110 0.08280 0.38600
C 	C 	0.90140 0.41450 0.11250 0.46700
C 	C 	0.88510 0.82470 0.39690 0.40400
C 	C 	0.47330 0.61020 0.51140 0.50800
O 	O 	0.22310 0.49180 0.05170 -0.29100
O 	O 	0.19770 0.44740 0.09310 -0.47900
O 	O 	0.37400 0.68800 0.22320 -1.04900
O 	O 	0.60720 0.71690 0.21800 -1.21900
Ti	Ti	0.68330 0.76810 0.19710 3.00600
O 	O 	0.50000 0.79500 0.15500 -2.84500
C 	C 	0.59030 0.79410 0.13800 1.93800
H 	H 	0.62100 0.76770 0.14560 -1.57300
C 	C 	0.66460 0.82730 0.15110 -2.20500
H 	H 	0.69780 0.81720 0.17150 0.23500
H 	H 	0.62810 0.85250 0.15640 0.72100
H 	H 	0.71460 0.83290 0.13370 0.60300
C 	C 	0.58410 0.78920 0.09880 -2.73400
H 	H 	0.61290 0.76280 0.09230 0.81300
H 	H 	0.62120 0.81150 0.08800 0.77700
H 	H 	0.51420 0.79030 0.09170 0.69300
O 	O 	0.63550 0.76280 0.15000 0.53300
C 	C 	0.66450 0.72550 0.13640 1.15400
H 	H 	0.71690 0.71570 0.15240 -0.57900
C 	C 	0.72220 0.73060 0.10250 -1.32800
H 	H 	0.67760 0.74210 0.08540 0.20000
H 	H 	0.74650 0.70380 0.09490 0.36500
H 	H 	0.77910 0.74900 0.10590 0.32300
C 	C 	0.58460 0.69050 0.13730 -3.41700
H 	H 	0.59560 0.67340 0.15720 1.18400
H 	H 	0.59060 0.67370 0.11690 0.94000
H 	H 	0.51790 0.70270 0.13820 2.56600
Zn	Zn	0.09873 0.59004 0.42564 1.24000
Zn	Zn	0.91582 0.65863 0.42783 1.18000
C 	C 	0.48790 0.86150 0.23130 -0.16000
C 	C 	0.58070 0.85080 0.21660 0.38200
C 	C 	0.62380 0.87630 0.19160 -0.46800
H 	H 	0.68590 0.86910 0.18180 0.11100
C 	C 	0.57410 0.91260 0.18130 0.11100
C 	C 	0.48130 0.92330 0.19600 -0.09500
C 	C 	0.43820 0.89780 0.22100 0.09300
C 	C 	0.34360 0.90790 0.23480 -0.12800
H 	H 	0.31720 0.89140 0.25240 0.06600
C 	C 	0.28630 0.94260 0.22300 -0.02100
H 	H 	0.22320 0.94880 0.23250 0.02500
C 	C 	0.32820 0.96850 0.19550 -0.03800
C 	C 	0.42420 0.95790 0.18330 -0.03600
H 	H 	0.45250 0.97420 0.16600 0.04000
C 	C 	0.44840 0.83260 0.26165 -0.12600
C 	C 	0.39620 0.79670 0.25183 0.28800
C 	C 	0.34930 0.77190 0.27653 -0.32600
H 	H 	0.31430 0.74790 0.27000 -0.00200
C 	C 	0.35460 0.78300 0.31105 0.07800
C 	C 	0.40680 0.81890 0.32086 -0.07200
C 	C 	0.45370 0.84369 0.29617 0.08800
C 	C 	0.50620 0.87870 0.30750 -0.12600
H 	H 	0.53560 0.89600 0.29110 0.07600
C 	C 	0.51720 0.88900 0.34040 0.00400
H 	H 	0.55370 0.91290 0.34620 0.02500
C 	C 	0.47390 0.86390 0.36680 -0.05100
C 	C 	0.41810 0.82900 0.35620 -0.02200
H 	H 	0.38750 0.81210 0.37270 0.03200
C 	C 	0.29410 0.75600 0.33514 0.02700
C 	C 	0.32290 0.71460 0.33999 -0.12800
H 	H 	0.38060 0.70420 0.32910 0.07400
C 	C 	0.26530 0.68868 0.36110 0.05000
H 	H 	0.28460 0.66100 0.36430 0.02100
C 	C 	0.17900 0.70420 0.37734 -0.15300
C 	C 	0.15020 0.74560 0.37249 0.03500
H 	H 	0.09250 0.75600 0.38340 0.01300
C 	C 	0.20770 0.77152 0.35140 -0.13400
H 	H 	0.18850 0.79920 0.34810 0.05900
O 	O 	0.02450 0.68800 0.40580 -0.51300
O 	O 	0.15330 0.64150 0.40580 -0.49700
C 	C 	0.48660 0.87250 0.40392 0.11900
C 	C 	0.40600 0.86500 0.42618 -0.18900
H 	H 	0.34400 0.85560 0.41760 0.07200
C 	C 	0.41780 0.87150 0.46128 0.11900
H 	H 	0.36390 0.86640 0.47620 -0.03000
C 	C 	0.51040 0.88550 0.47414 -0.23100
C 	C 	0.59110 0.89310 0.45188 0.12800
H 	H 	0.65300 0.90250 0.46050 0.00100
C 	C 	0.57920 0.88660 0.41677 -0.19100
H 	H 	0.63320 0.89160 0.40190 0.10700
O 	O 	0.45330 0.87080 0.53040 -0.56500
O 	O 	0.59060 0.90640 0.52430 -0.55900
C 	C 	0.62480 0.94060 0.15520 -0.02700
C 	C 	0.64500 0.92610 0.12220 -0.09400
H 	H 	0.62490 0.89930 0.11590 -0.01100
C 	C 	0.69520 0.95160 0.09880 0.00500
H 	H 	0.70870 0.94180 0.07670 0.00700
C 	C 	0.72520 0.99160 0.10830 -0.11900
C 	C 	0.70510 0.00620 0.14120 0.01500
H 	H 	0.72510 0.03300 0.14760 0.02900
C 	C 	0.65490 0.98070 0.16470 -0.08200
H 	H 	0.64140 0.99040 0.18680 0.05100
O 	O 	0.14020 0.12120 0.10740 -0.52300
O 	O 	0.02020 0.07360 0.10270 -0.54000
C 	C 	0.26690 0.00120 0.17880 0.08100
C 	C 	0.30810 0.03970 0.16980 -0.14900
H 	H 	0.37220 0.04730 0.17780 0.08400
C 	C 	0.25350 0.06690 0.14890 0.06700
H 	H 	0.28110 0.09270 0.14290 0.01800
C 	C 	0.15780 0.05560 0.13700 -0.15500
C 	C 	0.11660 0.01710 0.14600 0.06300
H 	H 	0.05250 0.00950 0.13800 0.01200
C 	C 	0.17120 0.98990 0.16690 -0.14900
H 	H 	0.14360 0.96410 0.17290 0.06100
C 	C 	0.77830 0.01890 0.08280 0.38500
C 	C 	0.09860 0.08550 0.11250 0.46100
C 	C 	0.11490 0.67530 0.39690 0.40100
C 	C 	0.52670 0.88980 0.51140 0.50800
O 	O 	0.77690 0.00820 0.05170 -0.29800
O 	O 	0.80230 0.05260 0.09310 -0.48900
O 	O 	0.62600 0.81200 0.22320 -1.05200
O 	O 	0.39280 0.78310 0.21800 -1.21700
Ti	Ti	0.31670 0.73190 0.19710 3.00600
O 	O 	0.50000 0.70500 0.15500 -2.84100
C 	C 	0.40970 0.70590 0.13800 1.95000
H 	H 	0.37900 0.73230 0.14560 -1.57700
C 	C 	0.33540 0.67270 0.15110 -2.22700
H 	H 	0.30220 0.68280 0.17150 0.24600
H 	H 	0.37190 0.64750 0.15640 0.72800
H 	H 	0.28540 0.66710 0.13370 0.61500
C 	C 	0.41590 0.71080 0.09880 -2.74200
H 	H 	0.38710 0.73720 0.09230 0.81400
H 	H 	0.37880 0.68850 0.08800 0.78100
H 	H 	0.48580 0.70970 0.09170 0.69600
O 	O 	0.36450 0.73720 0.15000 0.53100
C 	C 	0.33550 0.77450 0.13640 1.17700
H 	H 	0.28310 0.78430 0.15240 -0.58100
C 	C 	0.27780 0.76940 0.10250 -1.36700
H 	H 	0.32240 0.75790 0.08540 0.21300
H 	H 	0.25350 0.79620 0.09490 0.38300
H 	H 	0.22090 0.75100 0.10590 0.34300
C 	C 	0.41540 0.80950 0.13730 -3.44900
H 	H 	0.40440 0.82660 0.15720 1.19600
H 	H 	0.40940 0.82630 0.11690 0.95200
H 	H 	0.48210 0.79730 0.13820 2.58100
Zn	Zn	0.59873 0.09004 0.92564 1.23400
Zn	Zn	0.41582 0.15863 0.92783 1.18600
C 	C 	0.98790 0.36150 0.73130 -0.23300
C 	C 	0.08070 0.35080 0.71660 0.45000
C 	C 	0.12380 0.37630 0.69160 -0.52700
H 	H 	0.18590 0.36910 0.68180 0.13200
C 	C 	0.07410 0.41260 0.68130 0.18900
C 	C 	0.98130 0.42330 0.69600 -0.17700
C 	C 	0.93820 0.39780 0.72100 0.14800
C 	C 	0.84360 0.40790 0.73480 -0.16900
H 	H 	0.81720 0.39140 0.75240 0.07900
C 	C 	0.78630 0.44260 0.72300 0.00700
H 	H 	0.72320 0.44880 0.73250 0.01300
C 	C 	0.82820 0.46850 0.69550 -0.06800
C 	C 	0.92420 0.45790 0.68330 0.00800
H 	H 	0.95250 0.47420 0.66600 0.01500
C 	C 	0.94840 0.33260 0.76165 -0.09400
C 	C 	0.89620 0.29670 0.75183 0.26700
C 	C 	0.84930 0.27190 0.77653 -0.31200
H 	H 	0.81430 0.24790 0.77000 -0.01100
C 	C 	0.85460 0.28300 0.81105 0.05600
C 	C 	0.90680 0.31890 0.82086 -0.04500
C 	C 	0.95370 0.34369 0.79617 0.02100
C 	C 	0.00620 0.37870 0.80750 -0.05500
H 	H 	0.03560 0.39600 0.79110 0.06300
C 	C 	0.01720 0.38900 0.84040 -0.00600
H 	H 	0.05370 0.41290 0.84620 0.03700
C 	C 	0.97390 0.36390 0.86680 -0.03700
C 	C 	0.91810 0.32900 0.85620 -0.05300
H 	H 	0.88750 0.31210 0.87270 0.04000
C 	C 	0.79410 0.25600 0.83514 0.03400
C 	C 	0.82290 0.21460 0.83999 -0.13700
H 	H 	0.88060 0.20420 0.82910 0.06900
C 	C 	0.76530 0.18868 0.86110 0.05400
H 	H 	0.78460 0.16100 0.86430 0.01600
C 	C 	0.67900 0.20420 0.87734 -0.16300
C 	C 	0.65020 0.24560 0.87249 0.04100
H 	H 	0.59250 0.25600 0.88340 0.00200
C 	C 	0.70770 0.27152 0.85140 -0.14500
H 	H 	0.68850 0.29920 0.84810 0.06000
O 	O 	0.52450 0.18800 0.90580 -0.53200
O 	O 	0.65330 0.14150 0.90580 -0.50400
C 	C 	0.98660 0.37250 0.90392 0.03000
C 	C 	0.90600 0.36500 0.92618 -0.11300
H 	H 	0.84400 0.35560 0.91760 0.04300
C 	C 	0.91780 0.37150 0.96128 0.01600
H 	H 	0.86390 0.36640 0.97620 -0.00000
C 	C 	0.01040 0.38550 0.97414 -0.14800
C 	C 	0.09110 0.39310 0.95188 0.05300
H 	H 	0.15300 0.40250 0.96050 0.02800
C 	C 	0.07920 0.38660 0.91677 -0.08700
H 	H 	0.13320 0.39160 0.90190 0.07500
O 	O 	0.95330 0.37080 0.03040 -0.58800
O 	O 	0.09060 0.40640 0.02430 -0.55400
C 	C 	0.12480 0.44060 0.65520 -0.05400
C 	C 	0.14500 0.42610 0.62220 -0.06900
H 	H 	0.12490 0.39930 0.61590 -0.01500
C 	C 	0.19520 0.45160 0.59880 -0.00800
H 	H 	0.20870 0.44180 0.57670 0.01600
C 	C 	0.22520 0.49160 0.60830 -0.10300
C 	C 	0.20510 0.50620 0.64120 0.00200
H 	H 	0.22510 0.53300 0.64760 0.03800
C 	C 	0.15490 0.48070 0.66470 -0.05500
H 	H 	0.14140 0.49040 0.68680 0.05000
O 	O 	0.64020 0.62120 0.60740 -0.52900
O 	O 	0.52020 0.57360 0.60270 -0.55700
C 	C 	0.76690 0.50120 0.67880 0.09400
C 	C 	0.80810 0.53970 0.66980 -0.15900
H 	H 	0.87220 0.54730 0.67780 0.08100
C 	C 	0.75350 0.56690 0.64890 0.07100
H 	H 	0.78110 0.59270 0.64290 0.01400
C 	C 	0.65780 0.55560 0.63700 -0.16400
C 	C 	0.61660 0.51710 0.64600 0.07000
H 	H 	0.55250 0.50950 0.63800 0.00200
C 	C 	0.67120 0.48990 0.66690 -0.16200
H 	H 	0.64360 0.46410 0.67290 0.06100
C 	C 	0.27830 0.51890 0.58280 0.38100
C 	C 	0.59860 0.58550 0.61250 0.46400
C 	C 	0.61490 0.17530 0.89690 0.40300
C 	C 	0.02670 0.38980 0.01140 0.51000
O 	O 	0.27690 0.50820 0.55170 -0.29200
O 	O 	0.30230 0.55260 0.59310 -0.48200
O 	O 	0.12600 0.31200 0.72320 -1.06100
O 	O 	0.89280 0.28310 0.71800 -1.22700
Ti	Ti	0.81670 0.23190 0.69710 3.00500
O 	O 	-0.00000 0.20500 0.65500 -2.81400
C 	C 	0.90970 0.20590 0.63800 1.83700
H 	H 	0.87900 0.23230 0.64560 -1.54700
C 	C 	0.83540 0.17270 0.65110 -2.11000
H 	H 	0.80220 0.18280 0.67150 0.20800
H 	H 	0.87190 0.14750 0.65640 0.68700
H 	H 	0.78540 0.16710 0.63370 0.57900
C 	C 	0.91590 0.21080 0.59880 -2.63300
H 	H 	0.88710 0.23720 0.59230 0.78500
H 	H 	0.87880 0.18850 0.58800 0.74600
H 	H 	0.98580 0.20970 0.59170 0.64800
O 	O 	0.86450 0.23720 0.65000 0.54600
C 	C 	0.83550 0.27450 0.63640 1.01800
H 	H 	0.78310 0.28430 0.65240 -0.53800
C 	C 	0.77780 0.26940 0.60250 -1.20000
H 	H 	0.82240 0.25790 0.58540 0.16500
H 	H 	0.75350 0.29620 0.59490 0.32900
H 	H 	0.72090 0.25100 0.60590 0.28900
C 	C 	0.91540 0.30950 0.63730 -3.13400
H 	H 	0.90440 0.32660 0.65720 1.08100
H 	H 	0.90940 0.32630 0.61690 0.85100
H 	H 	0.98210 0.29730 0.63820 2.36400
Zn	Zn	0.59873 0.90996 0.57436 1.23400
Zn	Zn	0.41582 0.84137 0.57217 1.18600
C 	C 	0.98790 0.63850 0.76870 -0.23300
C 	C 	0.08070 0.64920 0.78340 0.45000
C 	C 	0.12380 0.62370 0.80840 -0.52700
H 	H 	0.18590 0.63090 0.81820 0.13200
C 	C 	0.07410 0.58740 0.81870 0.18900
C 	C 	0.98130 0.57670 0.80400 -0.17700
C 	C 	0.93820 0.60220 0.77900 0.14800
C 	C 	0.84360 0.59210 0.76520 -0.16900
H 	H 	0.81720 0.60860 0.74760 0.07900
C 	C 	0.78630 0.55740 0.77700 0.00700
H 	H 	0.72320 0.55120 0.76750 0.01300
C 	C 	0.82820 0.53150 0.80450 -0.06800
C 	C 	0.92420 0.54210 0.81670 0.00800
H 	H 	0.95250 0.52580 0.83400 0.01500
C 	C 	0.94840 0.66740 0.73835 -0.09400
C 	C 	0.89620 0.70330 0.74817 0.26700
C 	C 	0.84930 0.72810 0.72347 -0.31200
H 	H 	0.81430 0.75210 0.73000 -0.01100
C 	C 	0.85460 0.71700 0.68895 0.05600
C 	C 	0.90680 0.68110 0.67914 -0.04500
C 	C 	0.95370 0.65631 0.70383 0.02100
C 	C 	0.00620 0.62130 0.69250 -0.05500
H 	H 	0.03560 0.60400 0.70890 0.06300
C 	C 	0.01720 0.61100 0.65960 -0.00600
H 	H 	0.05370 0.58710 0.65380 0.03700
C 	C 	0.97390 0.63610 0.63320 -0.03800
C 	C 	0.91810 0.67100 0.64380 -0.05300
H 	H 	0.88750 0.68790 0.62730 0.04000
C 	C 	0.79410 0.74400 0.66486 0.03400
C 	C 	0.82290 0.78540 0.66001 -0.13700
H 	H 	0.88060 0.79580 0.67090 0.06900
C 	C 	0.76530 0.81132 0.63890 0.05400
H 	H 	0.78460 0.83900 0.63570 0.01600
C 	C 	0.67900 0.79580 0.62266 -0.16300
C 	C 	0.65020 0.75440 0.62751 0.04100
H 	H 	0.59250 0.74400 0.61660 0.00200
C 	C 	0.70770 0.72848 0.64860 -0.14500
H 	H 	0.68850 0.70080 0.65190 0.06000
O 	O 	0.52450 0.81200 0.59420 -0.53200
O 	O 	0.65330 0.85850 0.59420 -0.50400
C 	C 	0.98660 0.62750 0.59608 0.03000
C 	C 	0.90600 0.63500 0.57382 -0.11400
H 	H 	0.84400 0.64440 0.58240 0.04300
C 	C 	0.91780 0.62850 0.53872 0.01700
H 	H 	0.86390 0.63360 0.52380 -0.00000
C 	C 	0.01040 0.61450 0.52586 -0.14900
C 	C 	0.09110 0.60690 0.54812 0.05300
H 	H 	0.15300 0.59750 0.53950 0.02800
C 	C 	0.07920 0.61340 0.58323 -0.08700
H 	H 	0.13320 0.60840 0.59810 0.07500
O 	O 	0.95330 0.62920 0.46960 -0.58800
O 	O 	0.09060 0.59360 0.47570 -0.55400
C 	C 	0.12480 0.55940 0.84480 -0.05400
C 	C 	0.14500 0.57390 0.87780 -0.06900
H 	H 	0.12490 0.60070 0.88410 -0.01500
C 	C 	0.19520 0.54840 0.90120 -0.00800
H 	H 	0.20870 0.55820 0.92330 0.01600
C 	C 	0.22520 0.50840 0.89170 -0.10300
C 	C 	0.20510 0.49380 0.85880 0.00200
H 	H 	0.22510 0.46700 0.85240 0.03800
C 	C 	0.15490 0.51930 0.83530 -0.05500
H 	H 	0.14140 0.50960 0.81320 0.05000
O 	O 	0.64020 0.37880 0.89260 -0.52900
O 	O 	0.52020 0.42640 0.89730 -0.55700
C 	C 	0.76690 0.49880 0.82120 0.09400
C 	C 	0.80810 0.46030 0.83020 -0.15900
H 	H 	0.87220 0.45270 0.82220 0.08100
C 	C 	0.75350 0.43310 0.85110 0.07100
H 	H 	0.78110 0.40730 0.85710 0.01400
C 	C 	0.65780 0.44440 0.86300 -0.16400
C 	C 	0.61660 0.48290 0.85400 0.07000
H 	H 	0.55250 0.49050 0.86200 0.00200
C 	C 	0.67120 0.51010 0.83310 -0.16200
H 	H 	0.64360 0.53590 0.82710 0.06100
C 	C 	0.27830 0.48110 0.91720 0.38100
C 	C 	0.59860 0.41450 0.88750 0.46400
C 	C 	0.61490 0.82470 0.60310 0.40300
C 	C 	0.02670 0.61020 0.48860 0.51000
O 	O 	0.27690 0.49180 0.94830 -0.29200
O 	O 	0.30230 0.44740 0.90690 -0.48200
O 	O 	0.12600 0.68800 0.77680 -1.06100
O 	O 	0.89280 0.71690 0.78200 -1.22700
Ti	Ti	0.81670 0.76810 0.80290 3.00500
O 	O 	-0.00000 0.79500 0.84500 -2.81400
C 	C 	0.90970 0.79410 0.86200 1.83700
H 	H 	0.87900 0.76770 0.85440 -1.54700
C 	C 	0.83540 0.82730 0.84890 -2.11000
H 	H 	0.80220 0.81720 0.82850 0.20800
H 	H 	0.87190 0.85250 0.84360 0.68700
H 	H 	0.78540 0.83290 0.86630 0.57900
C 	C 	0.91590 0.78920 0.90120 -2.63300
H 	H 	0.88710 0.76280 0.90770 0.78500
H 	H 	0.87880 0.81150 0.91200 0.74600
H 	H 	0.98580 0.79030 0.90830 0.64800
O 	O 	0.86450 0.76280 0.85000 0.54600
C 	C 	0.83550 0.72550 0.86360 1.01800
H 	H 	0.78310 0.71570 0.84760 -0.53800
C 	C 	0.77780 0.73060 0.89750 -1.20000
H 	H 	0.82240 0.74210 0.91460 0.16500
H 	H 	0.75350 0.70380 0.90510 0.32900
H 	H 	0.72090 0.74900 0.89410 0.28900
C 	C 	0.91540 0.69050 0.86270 -3.13400
H 	H 	0.90440 0.67340 0.84280 1.08100
H 	H 	0.90940 0.67370 0.88310 0.85100
H 	H 	0.98210 0.70270 0.86180 2.36400
Zn	Zn	0.09873 0.40996 0.07436 1.23900
Zn	Zn	0.91582 0.34137 0.07217 1.18100
C 	C 	0.48790 0.13850 0.26870 -0.16000
C 	C 	0.58070 0.14920 0.28340 0.38200
C 	C 	0.62380 0.12370 0.30840 -0.46800
H 	H 	0.68590 0.13090 0.31820 0.11100
C 	C 	0.57410 0.08740 0.31870 0.11100
C 	C 	0.48130 0.07670 0.30400 -0.09500
C 	C 	0.43820 0.10220 0.27900 0.09300
C 	C 	0.34360 0.09210 0.26520 -0.12800
H 	H 	0.31720 0.10860 0.24760 0.06600
C 	C 	0.28630 0.05740 0.27700 -0.02100
H 	H 	0.22320 0.05120 0.26750 0.02500
C 	C 	0.32820 0.03150 0.30450 -0.03800
C 	C 	0.42420 0.04210 0.31670 -0.03600
H 	H 	0.45250 0.02580 0.33400 0.04000
C 	C 	0.44840 0.16740 0.23835 -0.12600
C 	C 	0.39620 0.20330 0.24817 0.28800
C 	C 	0.34930 0.22810 0.22347 -0.32600
H 	H 	0.31430 0.25210 0.23000 -0.00200
C 	C 	0.35460 0.21700 0.18895 0.07800
C 	C 	0.40680 0.18110 0.17914 -0.07200
C 	C 	0.45370 0.15631 0.20383 0.08800
C 	C 	0.50620 0.12130 0.19250 -0.12600
H 	H 	0.53560 0.10400 0.20890 0.07600
C 	C 	0.51720 0.11100 0.15960 0.00400
H 	H 	0.55370 0.08710 0.15380 0.02500
C 	C 	0.47390 0.13610 0.13320 -0.05100
C 	C 	0.41810 0.17100 0.14380 -0.02200
H 	H 	0.38750 0.18790 0.12730 0.03200
C 	C 	0.29410 0.24400 0.16486 0.02700
C 	C 	0.32290 0.28540 0.16001 -0.12800
H 	H 	0.38060 0.29580 0.17090 0.07400
C 	C 	0.26530 0.31132 0.13890 0.05000
H 	H 	0.28460 0.33900 0.13570 0.02100
C 	C 	0.17900 0.29580 0.12266 -0.15300
C 	C 	0.15020 0.25440 0.12751 0.03500
H 	H 	0.09250 0.24400 0.11660 0.01300
C 	C 	0.20770 0.22848 0.14860 -0.13400
H 	H 	0.18850 0.20080 0.15190 0.05900
O 	O 	0.02450 0.31200 0.09420 -0.51300
O 	O 	0.15330 0.35850 0.09420 -0.49700
C 	C 	0.48660 0.12750 0.09608 0.11900
C 	C 	0.40600 0.13500 0.07382 -0.18900
H 	H 	0.34400 0.14440 0.08240 0.07200
C 	C 	0.41780 0.12850 0.03872 0.11900
H 	H 	0.36390 0.13360 0.02380 -0.03000
C 	C 	0.51040 0.11450 0.02586 -0.23100
C 	C 	0.59110 0.10690 0.04812 0.12800
H 	H 	0.65300 0.09750 0.03950 0.00100
C 	C 	0.57920 0.11340 0.08323 -0.19100
H 	H 	0.63320 0.10840 0.09810 0.10700
O 	O 	0.45330 0.12920 0.96960 -0.56500
O 	O 	0.59060 0.09360 0.97570 -0.55900
C 	C 	0.62480 0.05940 0.34480 -0.02700
C 	C 	0.64500 0.07390 0.37780 -0.09400
H 	H 	0.62490 0.10070 0.38410 -0.01100
C 	C 	0.69520 0.04840 0.40120 0.00500
H 	H 	0.70870 0.05820 0.42330 0.00700
C 	C 	0.72520 0.00840 0.39170 -0.11900
C 	C 	0.70510 0.99380 0.35880 0.01500
H 	H 	0.72510 0.96700 0.35240 0.02900
C 	C 	0.65490 0.01930 0.33530 -0.08200
H 	H 	0.64140 0.00960 0.31320 0.05100
O 	O 	0.14020 0.87880 0.39260 -0.52200
O 	O 	0.02020 0.92640 0.39730 -0.54000
C 	C 	0.26690 0.99880 0.32120 0.08100
C 	C 	0.30810 0.96030 0.33020 -0.14900
H 	H 	0.37220 0.95270 0.32220 0.08400
C 	C 	0.25350 0.93310 0.35110 0.06700
H 	H 	0.28110 0.90730 0.35710 0.01800
C 	C 	0.15780 0.94440 0.36300 -0.15500
C 	C 	0.11660 0.98290 0.35400 0.06300
H 	H 	0.05250 0.99050 0.36200 0.01200
C 	C 	0.17120 0.01010 0.33310 -0.14900
H 	H 	0.14360 0.03590 0.32710 0.06100
C 	C 	0.77830 0.98110 0.41720 0.38500
C 	C 	0.09860 0.91450 0.38750 0.46100
C 	C 	0.11490 0.32470 0.10310 0.40100
C 	C 	0.52670 0.11020 0.98860 0.50800
O 	O 	0.77690 0.99180 0.44830 -0.29800
O 	O 	0.80230 0.94740 0.40690 -0.48900
O 	O 	0.62600 0.18800 0.27680 -1.05200
O 	O 	0.39280 0.21690 0.28200 -1.21700
Ti	Ti	0.31670 0.26810 0.30290 3.00600
O 	O 	0.50000 0.29500 0.34500 -2.84100
C 	C 	0.40970 0.29410 0.36200 1.95000
H 	H 	0.37900 0.26770 0.35440 -1.57700
C 	C 	0.33540 0.32730 0.34890 -2.22700
H 	H 	0.30220 0.31720 0.32850 0.24600
H 	H 	0.37190 0.35250 0.34360 0.72800
H 	H 	0.28540 0.33290 0.36630 0.61500
C 	C 	0.41590 0.28920 0.40120 -2.74200
H 	H 	0.38710 0.26280 0.40770 0.81400
H 	H 	0.37880 0.31150 0.41200 0.78100
H 	H 	0.48580 0.29030 0.40830 0.69600
O 	O 	0.36450 0.26280 0.35000 0.53100
C 	C 	0.33550 0.22550 0.36360 1.17700
H 	H 	0.28310 0.21570 0.34760 -0.58100
C 	C 	0.27780 0.23060 0.39750 -1.36700
H 	H 	0.32240 0.24210 0.41460 0.21300
H 	H 	0.25350 0.20380 0.40510 0.38300
H 	H 	0.22090 0.24900 0.39410 0.34300
C 	C 	0.41540 0.19050 0.36270 -3.44900
H 	H 	0.40440 0.17340 0.34280 1.19600
H 	H 	0.40940 0.17370 0.38310 0.95200
H 	H 	0.48210 0.20270 0.36180 2.58100
Zn	Zn	0.90127 0.09004 0.07436 1.22800
Zn	Zn	0.08418 0.15863 0.07217 1.19200
C 	C 	0.51210 0.36150 0.26870 -0.16100
C 	C 	0.41930 0.35080 0.28340 0.38600
C 	C 	0.37620 0.37630 0.30840 -0.47100
H 	H 	0.31410 0.36910 0.31820 0.11600
C 	C 	0.42590 0.41260 0.31870 0.11500
C 	C 	0.51870 0.42330 0.30400 -0.09800
C 	C 	0.56180 0.39780 0.27900 0.09600
C 	C 	0.65640 0.40790 0.26520 -0.13200
H 	H 	0.68280 0.39140 0.24760 0.06400
C 	C 	0.71370 0.44260 0.27700 -0.02000
H 	H 	0.77680 0.44880 0.26750 0.01900
C 	C 	0.67180 0.46850 0.30450 -0.04200
C 	C 	0.57580 0.45790 0.31670 -0.03300
H 	H 	0.54750 0.47420 0.33400 0.03900
C 	C 	0.55160 0.33260 0.23835 -0.12500
C 	C 	0.60380 0.29670 0.24817 0.28500
C 	C 	0.65070 0.27190 0.22347 -0.32500
H 	H 	0.68570 0.24790 0.23000 -0.00700
C 	C 	0.64540 0.28300 0.18895 0.07300
C 	C 	0.59320 0.31890 0.17914 -0.07100
C 	C 	0.54630 0.34369 0.20383 0.08700
C 	C 	0.49380 0.37870 0.19250 -0.12600
H 	H 	0.46440 0.39600 0.20890 0.07800
C 	C 	0.48280 0.38900 0.15960 0.00400
H 	H 	0.44630 0.41290 0.15380 0.02600
C 	C 	0.52610 0.36390 0.13320 -0.05100
C 	C 	0.58190 0.32900 0.14380 -0.02300
H 	H 	0.61250 0.31210 0.12730 0.03200
C 	C 	0.70590 0.25600 0.16486 0.03100
C 	C 	0.67710 0.21460 0.16001 -0.13600
H 	H 	0.61940 0.20420 0.17090 0.07600
C 	C 	0.73470 0.18868 0.13890 0.05600
H 	H 	0.71540 0.16100 0.13570 0.01700
C 	C 	0.82100 0.20420 0.12266 -0.16700
C 	C 	0.84980 0.24560 0.12751 0.04200
H 	H 	0.90750 0.25600 0.11660 -0.00600
C 	C 	0.79230 0.27152 0.14860 -0.14600
H 	H 	0.81150 0.29920 0.15190 0.05600
O 	O 	0.97550 0.18800 0.09420 -0.54900
O 	O 	0.84670 0.14150 0.09420 -0.50900
C 	C 	0.51340 0.37250 0.09608 0.11900
C 	C 	0.59400 0.36500 0.07382 -0.19100
H 	H 	0.65600 0.35560 0.08240 0.07100
C 	C 	0.58220 0.37150 0.03872 0.12000
H 	H 	0.63610 0.36640 0.02380 -0.03300
C 	C 	0.48960 0.38550 0.02586 -0.23300
C 	C 	0.40890 0.39310 0.04812 0.12900
H 	H 	0.34700 0.40250 0.03950 0.00100
C 	C 	0.42080 0.38660 0.08323 -0.19300
H 	H 	0.36680 0.39160 0.09810 0.10800
O 	O 	0.54670 0.37080 0.96960 -0.56700
O 	O 	0.40940 0.40640 0.97570 -0.56000
C 	C 	0.37520 0.44060 0.34480 -0.02800
C 	C 	0.35500 0.42610 0.37780 -0.09000
H 	H 	0.37510 0.39930 0.38410 -0.01200
C 	C 	0.30480 0.45160 0.40120 0.00400
H 	H 	0.29130 0.44180 0.42330 0.01100
C 	C 	0.27480 0.49160 0.39170 -0.11200
C 	C 	0.29490 0.50620 0.35880 0.01500
H 	H 	0.27490 0.53300 0.35240 0.03500
C 	C 	0.34510 0.48070 0.33530 -0.07700
H 	H 	0.35860 0.49040 0.31320 0.05300
O 	O 	0.85980 0.62120 0.39260 -0.53500
O 	O 	0.97980 0.57360 0.39730 -0.57300
C 	C 	0.73310 0.50120 0.32120 0.08400
C 	C 	0.69190 0.53970 0.33020 -0.15600
H 	H 	0.62780 0.54730 0.32220 0.08600
C 	C 	0.74650 0.56690 0.35110 0.07200
H 	H 	0.71890 0.59270 0.35710 0.01400
C 	C 	0.84220 0.55560 0.36300 -0.16800
C 	C 	0.88340 0.51710 0.35400 0.06800
H 	H 	0.94750 0.50950 0.36200 -0.00400
C 	C 	0.82880 0.48990 0.33310 -0.15900
H 	H 	0.85640 0.46410 0.32710 0.05600
C 	C 	0.22170 0.51890 0.41720 0.38600
C 	C 	0.90140 0.58550 0.38750 0.46700
C 	C 	0.88510 0.17530 0.10310 0.40400
C 	C 	0.47330 0.38980 0.98860 0.50800
O 	O 	0.22310 0.50820 0.44830 -0.29100
O 	O 	0.19770 0.55260 0.40690 -0.47900
O 	O 	0.37400 0.31200 0.27680 -1.04900
O 	O 	0.60720 0.28310 0.28200 -1.21900
Ti	Ti	0.68330 0.23190 0.30290 3.00600
O 	O 	0.50000 0.20500 0.34500 -2.84500
C 	C 	0.59030 0.20590 0.36200 1.93800
H 	H 	0.62100 0.23230 0.35440 -1.57300
C 	C 	0.66460 0.17270 0.34890 -2.20500
H 	H 	0.69780 0.18280 0.32850 0.23500
H 	H 	0.62810 0.14750 0.34360 0.72100
H 	H 	0.71460 0.16710 0.36630 0.60300
C 	C 	0.58410 0.21080 0.40120 -2.73400
H 	H 	0.61290 0.23720 0.40770 0.81300
H 	H 	0.62120 0.18850 0.41200 0.77700
H 	H 	0.51420 0.20970 0.40830 0.69300
O 	O 	0.63550 0.23720 0.35000 0.53300
C 	C 	0.66450 0.27450 0.36360 1.15400
H 	H 	0.71690 0.28430 0.34760 -0.57900
C 	C 	0.72220 0.26940 0.39750 -1.32800
H 	H 	0.67760 0.25790 0.41460 0.20000
H 	H 	0.74650 0.29620 0.40510 0.36500
H 	H 	0.77910 0.25100 0.39410 0.32300
C 	C 	0.58460 0.30950 0.36270 -3.41700
H 	H 	0.59560 0.32660 0.34280 1.18400
H 	H 	0.59060 0.32630 0.38310 0.94000
H 	H 	0.51790 0.29730 0.36180 2.56600
Zn	Zn	0.40127 0.59004 0.57436 1.23400
Zn	Zn	0.58418 0.65863 0.57217 1.18600
C 	C 	0.01210 0.86150 0.76870 -0.08800
C 	C 	0.91930 0.85080 0.78340 0.31300
C 	C 	0.87620 0.87630 0.80840 -0.40800
H 	H 	0.81410 0.86910 0.81820 0.09500
C 	C 	0.92590 0.91260 0.81870 0.03700
C 	C 	0.01870 0.92330 0.80400 -0.01500
C 	C 	0.06180 0.89780 0.77900 0.04100
C 	C 	0.15640 0.90790 0.76520 -0.09000
H 	H 	0.18280 0.89140 0.74760 0.05200
C 	C 	0.21370 0.94260 0.77700 -0.04800
H 	H 	0.27680 0.94880 0.76750 0.03200
C 	C 	0.17180 0.96850 0.80450 -0.01200
C 	C 	0.07580 0.95790 0.81670 -0.07700
H 	H 	0.04750 0.97420 0.83400 0.06400
C 	C 	0.05160 0.83260 0.73835 -0.15900
C 	C 	0.10380 0.79670 0.74817 0.30900
C 	C 	0.15070 0.77190 0.72347 -0.34100
H 	H 	0.18570 0.74790 0.73000 0.00300
C 	C 	0.14540 0.78300 0.68895 0.09600
C 	C 	0.09320 0.81890 0.67914 -0.10000
C 	C 	0.04630 0.84369 0.70383 0.15500
C 	C 	0.99380 0.87870 0.69250 -0.19800
H 	H 	0.96440 0.89600 0.70890 0.09100
C 	C 	0.98280 0.88900 0.65960 0.01500
H 	H 	0.94630 0.91290 0.65380 0.01300
C 	C 	0.02610 0.86390 0.63320 -0.06500
C 	C 	0.08190 0.82900 0.64380 0.00800
H 	H 	0.11250 0.81210 0.62730 0.02400
C 	C 	0.20590 0.75600 0.66486 0.02300
C 	C 	0.17710 0.71460 0.66001 -0.12700
H 	H 	0.11940 0.70420 0.67090 0.08100
C 	C 	0.23470 0.68868 0.63890 0.05200
H 	H 	0.21540 0.66100 0.63570 0.02200
C 	C 	0.32100 0.70420 0.62266 -0.15700
C 	C 	0.34980 0.74560 0.62751 0.03500
H 	H 	0.40750 0.75600 0.61660 0.00400
C 	C 	0.29230 0.77152 0.64860 -0.13500
H 	H 	0.31150 0.79920 0.65190 0.05600
O 	O 	0.47550 0.68800 0.59420 -0.53100
O 	O 	0.34670 0.64150 0.59420 -0.50100
C 	C 	0.01340 0.87250 0.59608 0.20900
C 	C 	0.09400 0.86500 0.57382 -0.26800
H 	H 	0.15600 0.85560 0.58240 0.09900
C 	C 	0.08220 0.87150 0.53872 0.22300
H 	H 	0.13610 0.86640 0.52380 -0.06200
C 	C 	0.98960 0.88550 0.52586 -0.31500
C 	C 	0.90890 0.89310 0.54812 0.20400
H 	H 	0.84700 0.90250 0.53950 -0.02600
C 	C 	0.92080 0.88660 0.58323 -0.29800
H 	H 	0.86680 0.89160 0.59810 0.14100
O 	O 	0.04670 0.87080 0.46960 -0.54400
O 	O 	0.90940 0.90640 0.47570 -0.56600
C 	C 	0.87520 0.94060 0.84480 0.00000
C 	C 	0.85500 0.92610 0.87780 -0.11600
H 	H 	0.87510 0.89930 0.88410 -0.00500
C 	C 	0.80480 0.95160 0.90120 0.01900
H 	H 	0.79130 0.94180 0.92330 0.00200
C 	C 	0.77480 0.99160 0.89170 -0.12900
C 	C 	0.79490 0.00620 0.85880 0.02900
H 	H 	0.77490 0.03300 0.85240 0.02500
C 	C 	0.84510 0.98070 0.83530 -0.10500
H 	H 	0.85860 0.99040 0.81320 0.05500
O 	O 	0.35980 0.12120 0.89260 -0.52900
O 	O 	0.47980 0.07360 0.89730 -0.55600
C 	C 	0.23310 0.00120 0.82120 0.07200
C 	C 	0.19190 0.03970 0.83020 -0.14600
H 	H 	0.12780 0.04730 0.82220 0.08900
C 	C 	0.24650 0.06690 0.85110 0.06800
H 	H 	0.21890 0.09270 0.85710 0.01800
C 	C 	0.34220 0.05560 0.86300 -0.15800
C 	C 	0.38340 0.01710 0.85400 0.06200
H 	H 	0.44750 0.00950 0.86200 0.00600
C 	C 	0.32880 0.98990 0.83310 -0.14600
H 	H 	0.35640 0.96410 0.82710 0.05600
C 	C 	0.72170 0.01890 0.91720 0.39000
C 	C 	0.40140 0.08550 0.88750 0.46400
C 	C 	0.38510 0.67530 0.60310 0.40200
C 	C 	0.97330 0.88980 0.48860 0.50600
O 	O 	0.72310 0.00820 0.94830 -0.29700
O 	O 	0.69770 0.05260 0.90690 -0.48600
O 	O 	0.87400 0.81200 0.77680 -1.04400
O 	O 	0.10720 0.78310 0.78200 -1.22000
Ti	Ti	0.18330 0.73190 0.80290 3.00600
O 	O 	0.00000 0.70500 0.84500 -2.69900
C 	C 	0.09030 0.70590 0.86200 1.97100
H 	H 	0.12100 0.73230 0.85440 -1.58700
C 	C 	0.16460 0.67270 0.84890 -2.24400
H 	H 	0.19780 0.68280 0.82850 0.24600
H 	H 	0.12810 0.64750 0.84360 0.73700
H 	H 	0.21460 0.66710 0.86630 0.61700
C 	C 	0.08410 0.71080 0.90120 -2.74900
H 	H 	0.11290 0.73720 0.90770 0.81900
H 	H 	0.12120 0.68850 0.91200 0.78600
H 	H 	0.01420 0.70970 0.90830 0.72100
O 	O 	0.13550 0.73720 0.85000 0.52900
C 	C 	0.16450 0.77450 0.86360 1.21000
H 	H 	0.21690 0.78430 0.84760 -0.59300
C 	C 	0.22220 0.76940 0.89750 -1.39600
H 	H 	0.17760 0.75790 0.91460 0.22400
H 	H 	0.24650 0.79620 0.90510 0.39100
H 	H 	0.27910 0.75100 0.89410 0.34800
C 	C 	0.08460 0.80950 0.86270 -3.51400
H 	H 	0.09560 0.82660 0.84280 1.21800
H 	H 	0.09060 0.82630 0.88310 0.98100
H 	H 	0.01790 0.79730 0.86180 2.60800
Ti	Ti	0.00000 0.25000 0.69090 3.05500
Ti	Ti	0.50000 0.75000 0.19090 3.05500
Ti	Ti	-0.00000 0.75000 0.80910 3.05500
Ti	Ti	0.50000 0.25000 0.30910 3.05500
