data_crystal

_cell_length_a 8.61100
_cell_length_b 9.09600
_cell_length_c 11.37100
_cell_angle_alpha 104.81100
_cell_angle_beta  111.36800
_cell_angle_gamma 94.24800

_symmetry_space_group_name_	'P 1'
_symmetry_space_group_name_H-M	'P 1'

loop_
_symmetry_equiv_pos_as_xyz
  x,y,z

loop_
_atom_site_label
_atom_site_type_symbol
_atom_site_fract_x
_atom_site_fract_y
_atom_site_fract_z
_atom_site_charge
P 	P 	0.17090 0.48318 0.18037 0.85900
P 	P 	0.22918 0.46388 0.66575 0.73200
P 	P 	0.85930 0.99224 0.20976 0.63300
Al	Al	0.04841 0.32627 0.35600 2.39800
Al	Al	0.17332 0.36380 0.89655 2.39500
O 	O 	0.19040 0.36840 0.06570 -0.62700
O 	O 	0.02610 0.56670 0.13780 -0.68000
O 	O 	0.33250 0.61200 0.25760 -0.79200
O 	O 	0.15530 0.39560 0.27420 -0.75800
O 	O 	0.41800 0.52250 0.73380 -0.28400
O 	O 	0.17950 0.36930 0.52060 -0.74900
O 	O 	0.16790 0.35720 0.73020 -0.63800
O 	O 	0.13950 0.60440 0.66880 -0.77600
O 	O 	0.92340 0.84600 0.16560 -0.56600
O 	O 	0.01290 0.12440 0.29210 -0.68600
O 	O 	0.77500 0.96650 0.30610 -0.45500
O 	O 	0.73280 0.03310 0.09900 -0.20800
O 	O 	0.40880 0.30680 0.94270 -0.45000
O 	O 	0.68380 0.42410 0.02600 -0.49500
C 	C 	0.52630 0.42190 0.99080 0.25900
H 	H 	0.40300 0.58100 0.26500 0.60200
H 	H 	0.82300 0.03800 0.37100 0.28700
P 	P 	0.82910 0.51682 0.81963 0.85800
P 	P 	0.77082 0.53612 0.33425 0.73100
P 	P 	0.14070 0.00776 0.79024 0.63300
Al	Al	0.95159 0.67373 0.64400 2.39800
Al	Al	0.82668 0.63620 0.10345 2.39500
O 	O 	0.80960 0.63160 0.93430 -0.62700
O 	O 	0.97390 0.43330 0.86220 -0.68000
O 	O 	0.66750 0.38800 0.74240 -0.79200
O 	O 	0.84470 0.60440 0.72580 -0.75800
O 	O 	0.58200 0.47750 0.26620 -0.28400
O 	O 	0.82050 0.63070 0.47940 -0.74900
O 	O 	0.83210 0.64280 0.26980 -0.63800
O 	O 	0.86050 0.39560 0.33120 -0.77600
O 	O 	0.07660 0.15400 0.83440 -0.56600
O 	O 	0.98710 0.87560 0.70790 -0.68600
O 	O 	0.22500 0.03350 0.69390 -0.45500
O 	O 	0.26720 0.96690 0.90100 -0.20800
O 	O 	0.59120 0.69320 0.05730 -0.45000
O 	O 	0.31620 0.57590 0.97400 -0.49500
C 	C 	0.47370 0.57810 0.00920 0.25900
H 	H 	0.59700 0.41900 0.73500 0.60200
H 	H 	0.17700 0.96200 0.62900 0.28700
