data_crystal

_cell_length_a 10.33500
_cell_length_b 10.33500
_cell_length_c 17.01500
_cell_angle_alpha 84.84120
_cell_angle_beta  74.69060
_cell_angle_gamma 114.66300

_symmetry_space_group_name_	'P 1'
_symmetry_space_group_name_H-M	'P 1'

loop_
_symmetry_equiv_pos_as_xyz
  x,y,z

loop_
_atom_site_label
_atom_site_type_symbol
_atom_site_fract_x
_atom_site_fract_y
_atom_site_fract_z
_atom_site_charge
Ag	Ag	0.85369 0.37452 0.30825 0.53400
Ag	Ag	0.81723 0.83806 0.80825 0.53600
H 	H 	0.45480 0.59960 0.50800 0.05000
H 	H 	0.43790 0.79430 0.56020 0.06100
H 	H 	0.89060 0.03700 0.45740 0.03600
H 	H 	0.90700 0.84310 0.40390 0.04400
H 	H 	0.73210 0.33950 0.53200 0.07500
H 	H 	0.12460 0.47650 0.57950 0.05600
H 	H 	0.86350 0.04540 0.60390 0.06900
H 	H 	0.05740 0.85740 0.55320 0.07700
H 	H 	0.29090 0.05970 0.48440 0.05200
H 	H 	0.42580 0.80680 0.34860 0.04800
H 	H 	0.19100 0.60350 0.42050 0.05100
H 	H 	0.11740 0.41650 0.71590 0.04900
H 	H 	0.31010 0.58210 0.75560 0.04600
H 	H 	0.58600 0.41740 0.64400 0.06300
H 	H 	0.39110 0.24860 0.60590 0.06900
H 	H 	0.39240 0.03720 0.00800 0.05600
H 	H 	0.14550 0.00190 0.06020 0.05300
H 	H 	0.00560 0.65200 0.95740 0.05400
H 	H 	0.25300 0.68910 0.90390 0.04600
H 	H 	0.62850 0.73590 0.03200 0.07700
H 	H 	0.44400 0.29590 0.07950 0.06000
H 	H 	0.85070 0.53260 0.10390 0.06200
H 	H 	0.08940 0.38940 0.05320 0.06900
H 	H 	0.95590 0.22470 0.98440 0.03800
H 	H 	0.34460 0.22560 0.84860 0.04700
H 	H 	0.47600 0.38850 0.92050 0.03900
H 	H 	0.36760 0.16670 0.21590 0.04700
H 	H 	0.16230 0.93430 0.25560 0.05000
H 	H 	0.43860 0.77000 0.14400 0.06900
H 	H 	0.64550 0.00300 0.10590 0.05600
C 	C 	0.69710 0.58170 0.42020 0.08200
C 	C 	0.68270 0.70310 0.45100 -0.00400
C 	C 	0.54250 0.68810 0.49780 -0.04100
C 	C 	0.53249 0.80341 0.52930 -0.04200
C 	C 	0.66346 0.93404 0.51510 -0.00200
C 	C 	0.80290 0.94860 0.46770 -0.04400
C 	C 	0.81270 0.83330 0.43580 -0.04000
C 	C 	0.64843 0.06018 0.54719 0.09900
C 	C 	0.78187 0.17547 0.56246 0.01800
C 	C 	0.80389 0.31861 0.54690 -0.09000
C 	C 	0.93228 0.43132 0.55340 -0.00000
C 	C 	0.03586 0.39987 0.57767 -0.07000
C 	C 	0.00924 0.25483 0.59953 0.02600
C 	C 	0.88164 0.14308 0.59068 -0.10600
C 	C 	0.95017 0.58471 0.53792 0.08500
C 	C 	0.10447 0.71101 0.49452 0.01900
C 	C 	0.13280 0.84750 0.51270 -0.06000
C 	C 	0.27060 0.96810 0.47170 -0.01800
C 	C 	0.37975 0.95090 0.41055 -0.01500
C 	C 	0.35190 0.81620 0.39030 -0.03300
C 	C 	0.21200 0.69520 0.43320 -0.06400
C 	C 	0.52820 0.07480 0.36980 0.09200
C 	C 	0.11609 0.21231 0.62660 0.10900
C 	C 	0.23679 0.32034 0.65447 -0.00400
C 	C 	0.21235 0.41796 0.70069 -0.05100
C 	C 	0.32650 0.51670 0.72420 -0.04200
C 	C 	0.46680 0.51700 0.70020 -0.01100
C 	C 	0.49180 0.41750 0.65750 -0.04300
C 	C 	0.37590 0.31750 0.63460 -0.04600
C 	C 	0.59010 0.62820 0.71970 0.08800
C 	C 	0.49810 0.88270 0.92020 0.08100
C 	C 	0.34590 0.86630 0.95100 -0.00200
C 	C 	0.31410 0.95970 0.99780 -0.05900
C 	C 	0.16729 0.93821 0.02930 -0.02300
C 	C 	0.05086 0.82144 0.01510 0.02000
C 	C 	0.08370 0.72940 0.96770 -0.06700
C 	C 	0.23090 0.75150 0.93580 -0.03000
C 	C 	0.89263 0.80438 0.04719 0.08600
C 	C 	0.76207 0.65567 0.06246 0.01700
C 	C 	0.63449 0.64921 0.04690 -0.09000
C 	C 	0.51528 0.51432 0.05340 0.01300
C 	C 	0.52246 0.38647 0.07767 -0.08400
C 	C 	0.64564 0.39123 0.09953 0.00800
C 	C 	0.76624 0.52768 0.09068 -0.08500
C 	C 	0.37737 0.51191 0.03792 0.11200
C 	C 	0.29447 0.40101 0.99452 -0.01900
C 	C 	0.13980 0.35450 0.01270 -0.03800
C 	C 	0.06020 0.25770 0.97170 -0.01200
C 	C 	0.13855 0.20970 0.91055 -0.02700
C 	C 	0.29350 0.25780 0.89030 -0.03700
C 	C 	0.37160 0.35480 0.93320 -0.04900
C 	C 	0.05540 0.10200 0.86980 0.11900
C 	C 	0.66109 0.25731 0.12660 0.11700
C 	C 	0.52519 0.10874 0.15447 -0.01900
C 	C 	0.38135 0.08696 0.20069 -0.05000
C 	C 	0.25910 0.94930 0.22420 -0.04000
C 	C 	0.28280 0.83300 0.20020 -0.00400
C 	C 	0.42500 0.85070 0.15750 -0.05500
C 	C 	0.54790 0.98950 0.13460 -0.02000
C 	C 	0.15210 0.69020 0.21970 0.09000
N 	N 	0.71510 0.48920 0.39630 -0.17100
N 	N 	0.64457 0.17010 0.33993 -0.19100
N 	N 	0.68380 0.71730 0.73450 -0.19500
N 	N 	0.61450 0.88860 0.89630 -0.17100
N 	N 	0.98997 0.01550 0.83993 -0.21000
N 	N 	0.04820 0.58170 0.23450 -0.18600
O 	O 	0.53354 0.07258 0.55656 -0.20500
O 	O 	0.83932 0.60548 0.55940 -0.20400
O 	O 	0.10743 0.09186 0.62511 -0.21800
O 	O 	0.87086 0.90990 0.05656 -0.20100
O 	O 	0.33512 0.60128 0.05940 -0.20400
O 	O 	0.78303 0.26746 0.12511 -0.22800
