data_crystal

_cell_length_a 53.59800
_cell_length_b 16.40900
_cell_length_c 21.67200
_cell_angle_alpha 90.00000
_cell_angle_beta  113.85000
_cell_angle_gamma 90.00000

_symmetry_space_group_name_	'P 1'
_symmetry_space_group_name_H-M	'P 1'

loop_
_symmetry_equiv_pos_as_xyz
  x,y,z

loop_
_atom_site_label
_atom_site_type_symbol
_atom_site_fract_x
_atom_site_fract_y
_atom_site_fract_z
_atom_site_charge
Mg	Mg	0.05205 0.86230 0.80782 1.47200
Mg	Mg	0.05954 0.65511 0.79759 1.47100
Mg	Mg	0.19000 0.64364 0.42820 1.46900
C 	C 	0.11124 0.78840 0.72340 -0.07700
C 	C 	0.00679 0.89530 0.67230 0.43200
C 	C 	0.09273 0.77540 0.76160 0.39000
C 	C 	0.99900 0.92940 0.60160 -0.11900
C 	C 	0.15706 0.76840 0.32660 0.41600
C 	C 	0.15796 0.65570 0.60180 0.02000
H 	H 	0.16440 0.60800 0.59020 0.02400
C 	C 	0.13546 0.72030 0.66840 0.04900
C 	C 	0.17408 0.73430 0.52440 0.43500
C 	C 	0.15343 0.80320 0.59670 -0.01900
H 	H 	0.15670 0.85340 0.58150 0.04100
C 	C 	0.16141 0.73230 0.57620 -0.11000
C 	C 	0.13960 0.79860 0.64280 0.00600
C 	C 	0.14013 0.78210 0.24970 -0.08200
C 	C 	0.12184 0.71790 0.70810 -0.06000
H 	H 	0.11940 0.66830 0.72570 0.05400
C 	C 	0.13237 0.71340 0.21020 -0.06300
H 	H 	0.13730 0.66230 0.23000 0.05500
C 	C 	0.11705 0.71940 0.14020 0.06400
C 	C 	0.11125 0.79980 0.11310 -0.02000
C 	C 	0.12057 0.86840 0.15570 -0.07300
H 	H 	0.11740 0.92070 0.13770 0.04700
C 	C 	0.07652 0.74630 0.92570 0.47000
C 	C 	0.09002 0.74080 0.00160 -0.18200
C 	C 	0.09737 0.80750 0.04120 0.02500
H 	H 	0.09340 0.85900 0.02180 0.01900
C 	C 	0.09596 0.66550 0.03100 0.08700
H 	H 	0.09050 0.62000 0.00310 -0.00500
C 	C 	0.01807 0.97240 0.59130 -0.02400
H 	H 	0.03510 0.97940 0.62640 0.04900
C 	C 	0.01238 0.00840 0.52580 0.02300
C 	C 	0.97373 0.91080 0.55020 0.01800
H 	H 	0.96080 0.87930 0.55780 0.02300
C 	C 	0.96913 0.94190 0.48790 -0.09100
H 	H 	0.95270 0.92930 0.45230 0.06000
C 	C 	0.14380 0.65470 0.64740 -0.11300
H 	H 	0.14060 0.60440 0.66240 0.06100
C 	C 	0.13001 0.86850 0.66130 -0.08000
H 	H 	0.13340 0.91900 0.64680 0.05100
C 	C 	0.11516 0.86430 0.70210 0.00200
H 	H 	0.10830 0.91090 0.71410 0.03600
C 	C 	0.13416 0.85680 0.22320 0.00500
H 	H 	0.13940 0.90180 0.25160 0.03400
C 	C 	0.10930 0.65310 0.09840 -0.16000
H 	H 	0.11310 0.60060 0.11590 0.07500
C 	C 	0.99040 0.62450 0.83050 0.44500
C 	C 	0.99860 0.57640 0.89870 -0.11100
C 	C 	0.01930 0.47550 0.09150 -0.03200
H 	H 	0.03500 0.49270 0.12730 0.04500
C 	C 	0.01290 0.50300 0.02350 -0.00100
C 	C 	0.02290 0.59990 0.94990 0.05100
H 	H 	0.03420 0.63630 0.94040 0.03300
C 	C 	0.03110 0.56990 0.01580 -0.12600
H 	H 	0.04630 0.58940 0.05190 0.06800
O 	O 	0.00627 0.67050 0.82360 -0.56200
O 	O 	0.08409 0.84460 0.77830 -0.46900
O 	O 	0.96589 0.60430 0.78790 -0.54500
O 	O 	0.07193 0.81790 0.90230 -0.53500
O 	O 	0.08776 0.70550 0.77580 -0.54400
O 	O 	0.07129 0.67910 0.89360 -0.56100
O 	O 	0.98809 0.84910 0.67910 -0.58800
O 	O 	0.02892 0.91060 0.71610 -0.54200
O 	O 	0.03826 0.75620 0.77056 -0.79800
O 	O 	0.16365 0.83120 0.36140 -0.51700
O 	O 	0.16316 0.69420 0.34450 -0.54300
O 	O 	0.17876 0.80590 0.50860 -0.52400
O 	O 	0.17803 0.66800 0.50190 -0.56000
Mg	Mg	0.19685 0.85188 0.44934 1.47000
C 	C 	0.26210 0.37060 0.11220 0.40300
C 	C 	0.28421 0.55020 0.31220 -0.15100
H 	H 	0.29980 0.56840 0.30760 0.08000
C 	C 	0.27310 0.45960 0.21210 -0.05100
H 	H 	0.28850 0.47690 0.20600 0.05700
C 	C 	0.27809 0.57820 0.36180 0.08700
H 	H 	0.29040 0.61370 0.39270 -0.00300
C 	C 	0.23233 0.37980 0.17800 0.01000
H 	H 	0.21990 0.34400 0.14770 0.04000
C 	C 	0.24540 0.59980 0.41800 0.47100
C 	C 	0.23687 0.50300 0.32610 0.01900
H 	H 	0.22050 0.49000 0.32880 0.02200
C 	C 	0.26687 0.49250 0.26600 0.05400
C 	C 	0.24401 0.46580 0.27510 -0.01200
C 	C 	0.25581 0.40160 0.16940 -0.09400
C 	C 	0.25460 0.55830 0.37100 -0.18900
C 	C 	0.22742 0.40940 0.22920 -0.07800
H 	H 	0.21200 0.39130 0.23440 0.05500
O 	O 	0.21159 0.74160 0.44628 -0.80300
O 	O 	0.22173 0.58840 0.41360 -0.55600
O 	O 	0.24574 0.31920 0.07550 -0.50400
O 	O 	0.28354 0.39650 0.10680 -0.51700
O 	O 	0.26269 0.64690 0.46240 -0.62000
Mg	Mg	0.55205 0.36230 0.80782 1.47100
Mg	Mg	0.55954 0.15511 0.79759 1.47100
Mg	Mg	0.69000 0.14364 0.42820 1.46900
C 	C 	0.61124 0.28840 0.72340 -0.07700
C 	C 	0.50679 0.39530 0.67230 0.43500
C 	C 	0.59273 0.27540 0.76160 0.39000
C 	C 	0.49900 0.42940 0.60160 -0.12400
C 	C 	0.65706 0.26840 0.32660 0.41600
C 	C 	0.65796 0.15570 0.60180 0.02000
H 	H 	0.66440 0.10800 0.59020 0.02500
C 	C 	0.63546 0.22030 0.66840 0.04900
C 	C 	0.67408 0.23430 0.52440 0.43500
C 	C 	0.65343 0.30320 0.59670 -0.01900
H 	H 	0.65670 0.35340 0.58150 0.04100
C 	C 	0.66141 0.23230 0.57620 -0.11000
C 	C 	0.63960 0.29860 0.64280 0.00600
C 	C 	0.64013 0.28210 0.24970 -0.08200
C 	C 	0.62184 0.21790 0.70810 -0.06000
H 	H 	0.61940 0.16830 0.72570 0.05400
C 	C 	0.63237 0.21340 0.21020 -0.06300
H 	H 	0.63730 0.16230 0.23000 0.05500
C 	C 	0.61705 0.21940 0.14020 0.06400
C 	C 	0.61125 0.29980 0.11310 -0.02000
C 	C 	0.62057 0.36840 0.15570 -0.07300
H 	H 	0.61740 0.42070 0.13770 0.04700
C 	C 	0.57652 0.24630 0.92570 0.47000
C 	C 	0.59002 0.24080 0.00160 -0.18200
C 	C 	0.59737 0.30750 0.04120 0.02500
H 	H 	0.59340 0.35900 0.02180 0.01900
C 	C 	0.59596 0.16550 0.03100 0.08700
H 	H 	0.59050 0.12000 0.00310 -0.00500
C 	C 	0.51807 0.47240 0.59130 -0.01800
H 	H 	0.53510 0.47940 0.62640 0.04800
C 	C 	0.51238 0.50840 0.52580 0.01900
C 	C 	0.47373 0.41080 0.55020 0.02200
H 	H 	0.46080 0.37930 0.55780 0.02200
C 	C 	0.46913 0.44190 0.48790 -0.09500
H 	H 	0.45270 0.42930 0.45230 0.06100
C 	C 	0.64380 0.15470 0.64740 -0.11300
H 	H 	0.64060 0.10440 0.66240 0.06100
C 	C 	0.63001 0.36850 0.66130 -0.08000
H 	H 	0.63340 0.41900 0.64680 0.05100
C 	C 	0.61516 0.36430 0.70210 0.00200
H 	H 	0.60830 0.41090 0.71410 0.03600
C 	C 	0.63416 0.35680 0.22320 0.00500
H 	H 	0.63940 0.40180 0.25160 0.03400
C 	C 	0.60930 0.15310 0.09840 -0.16000
H 	H 	0.61310 0.10060 0.11590 0.07500
C 	C 	0.49040 0.12450 0.83050 0.44400
C 	C 	0.49860 0.07640 0.89870 -0.11400
C 	C 	0.51930 0.97550 0.09150 -0.03600
H 	H 	0.53500 0.99270 0.12730 0.04600
C 	C 	0.51290 0.00300 0.02350 0.00400
C 	C 	0.52290 0.09990 0.94990 0.05400
H 	H 	0.53420 0.13630 0.94040 0.03200
C 	C 	0.53110 0.06990 0.01580 -0.12800
H 	H 	0.54630 0.08940 0.05190 0.06900
O 	O 	0.50627 0.17050 0.82360 -0.56100
O 	O 	0.58409 0.34460 0.77830 -0.46900
O 	O 	0.46589 0.10430 0.78790 -0.54500
O 	O 	0.57193 0.31790 0.90230 -0.53500
O 	O 	0.58776 0.20550 0.77580 -0.54400
O 	O 	0.57129 0.17910 0.89360 -0.56100
O 	O 	0.48809 0.34910 0.67910 -0.58900
O 	O 	0.52892 0.41060 0.71610 -0.54300
O 	O 	0.53826 0.25620 0.77056 -0.79800
O 	O 	0.66365 0.33120 0.36140 -0.51700
O 	O 	0.66316 0.19420 0.34450 -0.54300
O 	O 	0.67876 0.30590 0.50860 -0.52400
O 	O 	0.67803 0.16800 0.50190 -0.56000
Mg	Mg	0.69685 0.35188 0.44934 1.47000
C 	C 	0.76210 0.87060 0.11220 0.40300
C 	C 	0.78421 0.05020 0.31220 -0.15100
H 	H 	0.79980 0.06840 0.30760 0.08000
C 	C 	0.77310 0.95960 0.21210 -0.05100
H 	H 	0.78850 0.97690 0.20600 0.05700
C 	C 	0.77809 0.07820 0.36180 0.08700
H 	H 	0.79040 0.11370 0.39270 -0.00300
C 	C 	0.73233 0.87980 0.17800 0.01000
H 	H 	0.71990 0.84400 0.14770 0.04000
C 	C 	0.74540 0.09980 0.41800 0.47100
C 	C 	0.73687 0.00300 0.32610 0.02100
H 	H 	0.72050 0.99000 0.32880 0.02200
C 	C 	0.76687 0.99250 0.26600 0.05400
C 	C 	0.74401 0.96580 0.27510 -0.01200
C 	C 	0.75581 0.90160 0.16940 -0.09400
C 	C 	0.75460 0.05830 0.37100 -0.19000
C 	C 	0.72742 0.90940 0.22920 -0.07800
H 	H 	0.71200 0.89130 0.23440 0.05400
O 	O 	0.71159 0.24160 0.44628 -0.80300
O 	O 	0.72173 0.08840 0.41360 -0.55600
O 	O 	0.74574 0.81920 0.07550 -0.50400
O 	O 	0.78354 0.89650 0.10680 -0.51700
O 	O 	0.76269 0.14690 0.46240 -0.62000
Mg	Mg	0.94795 0.86230 0.69218 1.47100
Mg	Mg	0.94046 0.65511 0.70241 1.47100
Mg	Mg	0.81000 0.64364 0.07180 1.46700
C 	C 	0.88876 0.78840 0.77660 -0.07900
C 	C 	0.99321 0.89530 0.82770 0.44900
C 	C 	0.90727 0.77540 0.73840 0.39100
C 	C 	0.00100 0.92940 0.89840 -0.15400
C 	C 	0.84294 0.76840 0.17340 0.42000
C 	C 	0.84204 0.65570 0.89820 0.01800
H 	H 	0.83560 0.60800 0.90980 0.02800
C 	C 	0.86454 0.72030 0.83160 0.04600
C 	C 	0.82592 0.73430 0.97560 0.43300
C 	C 	0.84657 0.80320 0.90330 -0.02100
H 	H 	0.84330 0.85340 0.91850 0.04400
C 	C 	0.83859 0.73230 0.92380 -0.10500
C 	C 	0.86040 0.79860 0.85720 0.00900
C 	C 	0.85987 0.78210 0.25030 -0.09400
C 	C 	0.87816 0.71790 0.79190 -0.05700
H 	H 	0.88060 0.66830 0.77430 0.05200
C 	C 	0.86763 0.71340 0.28980 -0.04700
H 	H 	0.86270 0.66230 0.27000 0.04900
C 	C 	0.88295 0.71940 0.35980 0.04200
C 	C 	0.88875 0.79980 0.38690 0.00400
C 	C 	0.87943 0.86840 0.34430 -0.09100
H 	H 	0.88260 0.92070 0.36230 0.05500
C 	C 	0.92348 0.74630 0.57430 0.43700
C 	C 	0.90998 0.74080 0.49840 -0.13200
C 	C 	0.90263 0.80750 0.45880 -0.00500
H 	H 	0.90660 0.85900 0.47820 0.03700
C 	C 	0.90404 0.66550 0.46900 0.05300
H 	H 	0.90950 0.62000 0.49690 0.01500
C 	C 	0.98193 0.97240 0.90870 0.01200
H 	H 	0.96490 0.97940 0.87360 0.03800
C 	C 	0.98762 0.00840 0.97420 0.00800
C 	C 	0.02627 0.91080 0.94980 0.08900
H 	H 	0.03920 0.87930 0.94220 0.00500
C 	C 	0.03087 0.94190 0.01210 -0.16000
H 	H 	0.04730 0.92930 0.04770 0.07900
C 	C 	0.85620 0.65470 0.85260 -0.10900
H 	H 	0.85940 0.60440 0.83760 0.06000
C 	C 	0.86999 0.86850 0.83870 -0.08200
H 	H 	0.86660 0.91900 0.85320 0.05300
C 	C 	0.88484 0.86430 0.79790 0.00400
H 	H 	0.89170 0.91090 0.78590 0.03500
C 	C 	0.86584 0.85680 0.27680 0.02100
H 	H 	0.86060 0.90180 0.24840 0.02700
C 	C 	0.89070 0.65310 0.40160 -0.12900
H 	H 	0.88690 0.60060 0.38410 0.06600
C 	C 	0.00960 0.62450 0.66950 0.43700
C 	C 	0.00140 0.57640 0.60130 -0.10200
C 	C 	0.98070 0.47550 0.40850 -0.02700
H 	H 	0.96500 0.49270 0.37270 0.04300
C 	C 	0.98710 0.50300 0.47650 0.01700
C 	C 	0.97710 0.59990 0.55010 0.00900
H 	H 	0.96580 0.63630 0.55960 0.04100
C 	C 	0.96890 0.56990 0.48420 -0.08800
H 	H 	0.95370 0.58940 0.44810 0.05900
O 	O 	0.99373 0.67050 0.67640 -0.56000
O 	O 	0.91591 0.84460 0.72170 -0.47100
O 	O 	0.03411 0.60430 0.71210 -0.54300
O 	O 	0.92807 0.81790 0.59770 -0.53500
O 	O 	0.91224 0.70550 0.72420 -0.54600
O 	O 	0.92871 0.67910 0.60640 -0.56000
O 	O 	0.01191 0.84910 0.82090 -0.59200
O 	O 	0.97108 0.91060 0.78390 -0.54700
O 	O 	0.96174 0.75620 0.72944 -0.79800
O 	O 	0.83635 0.83120 0.13860 -0.52400
O 	O 	0.83684 0.69420 0.15550 -0.54900
O 	O 	0.82124 0.80590 0.99140 -0.51400
O 	O 	0.82197 0.66800 0.99810 -0.54900
Mg	Mg	0.80315 0.85188 0.05066 1.46800
C 	C 	0.73790 0.37060 0.38780 0.40200
C 	C 	0.71579 0.55020 0.18780 -0.15500
H 	H 	0.70020 0.56840 0.19240 0.08200
C 	C 	0.72690 0.45960 0.28790 -0.05300
H 	H 	0.71150 0.47690 0.29400 0.05900
C 	C 	0.72191 0.57820 0.13820 0.09000
H 	H 	0.70960 0.61370 0.10730 -0.00500
C 	C 	0.76767 0.37980 0.32200 0.00800
H 	H 	0.78010 0.34400 0.35230 0.04100
C 	C 	0.75460 0.59980 0.08200 0.47300
C 	C 	0.76313 0.50300 0.17390 0.02200
H 	H 	0.77950 0.49000 0.17120 0.02000
C 	C 	0.73313 0.49250 0.23400 0.05700
C 	C 	0.75599 0.46580 0.22490 -0.01500
C 	C 	0.74419 0.40160 0.33060 -0.09100
C 	C 	0.74540 0.55830 0.12900 -0.19500
C 	C 	0.77258 0.40940 0.27080 -0.07500
H 	H 	0.78800 0.39130 0.26560 0.05300
O 	O 	0.78841 0.74160 0.05372 -0.81500
O 	O 	0.77827 0.58840 0.08640 -0.56300
O 	O 	0.75426 0.31920 0.42450 -0.49700
O 	O 	0.71646 0.39650 0.39320 -0.51100
O 	O 	0.73731 0.64690 0.03760 -0.63100
Mg	Mg	0.44795 0.36230 0.69218 1.47100
Mg	Mg	0.44046 0.15511 0.70241 1.47100
Mg	Mg	0.31000 0.14364 0.07180 1.46700
C 	C 	0.38876 0.28840 0.77660 -0.07900
C 	C 	0.49321 0.39530 0.82770 0.44600
C 	C 	0.40727 0.27540 0.73840 0.39100
C 	C 	0.50100 0.42940 0.89840 -0.15100
C 	C 	0.34294 0.26840 0.17340 0.42000
C 	C 	0.34204 0.15570 0.89820 0.01800
H 	H 	0.33560 0.10800 0.90980 0.02700
C 	C 	0.36454 0.22030 0.83160 0.04600
C 	C 	0.32592 0.23430 0.97560 0.43300
C 	C 	0.34657 0.30320 0.90330 -0.02100
H 	H 	0.34330 0.35340 0.91850 0.04400
C 	C 	0.33859 0.23230 0.92380 -0.10500
C 	C 	0.36040 0.29860 0.85720 0.00900
C 	C 	0.35987 0.28210 0.25030 -0.09400
C 	C 	0.37816 0.21790 0.79190 -0.05700
H 	H 	0.38060 0.16830 0.77430 0.05200
C 	C 	0.36763 0.21340 0.28980 -0.04700
H 	H 	0.36270 0.16230 0.27000 0.04900
C 	C 	0.38295 0.21940 0.35980 0.04300
C 	C 	0.38875 0.29980 0.38690 0.00300
C 	C 	0.37943 0.36840 0.34430 -0.09100
H 	H 	0.38260 0.42070 0.36230 0.05500
C 	C 	0.42348 0.24630 0.57430 0.43700
C 	C 	0.40998 0.24080 0.49840 -0.13200
C 	C 	0.40263 0.30750 0.45880 -0.00500
H 	H 	0.40660 0.35900 0.47820 0.03700
C 	C 	0.40404 0.16550 0.46900 0.05300
H 	H 	0.40950 0.12000 0.49690 0.01500
C 	C 	0.48193 0.47240 0.90870 0.00900
H 	H 	0.46490 0.47940 0.87360 0.03900
C 	C 	0.48762 0.50840 0.97420 0.00800
C 	C 	0.52627 0.41080 0.94980 0.08700
H 	H 	0.53920 0.37930 0.94220 0.00600
C 	C 	0.53087 0.44190 0.01210 -0.15900
H 	H 	0.54730 0.42930 0.04770 0.07900
C 	C 	0.35620 0.15470 0.85260 -0.10900
H 	H 	0.35940 0.10440 0.83760 0.06000
C 	C 	0.36999 0.36850 0.83870 -0.08200
H 	H 	0.36660 0.41900 0.85320 0.05300
C 	C 	0.38484 0.36430 0.79790 0.00400
H 	H 	0.39170 0.41090 0.78590 0.03500
C 	C 	0.36584 0.35680 0.27680 0.02100
H 	H 	0.36060 0.40180 0.24840 0.02700
C 	C 	0.39070 0.15310 0.40160 -0.12900
H 	H 	0.38690 0.10060 0.38410 0.06600
C 	C 	0.50960 0.12450 0.66950 0.43800
C 	C 	0.50140 0.07640 0.60130 -0.10000
C 	C 	0.48070 0.97550 0.40850 -0.02500
H 	H 	0.46500 0.99270 0.37270 0.04300
C 	C 	0.48710 0.00300 0.47650 0.01500
C 	C 	0.47710 0.09990 0.55010 0.00700
H 	H 	0.46580 0.13630 0.55960 0.04200
C 	C 	0.46890 0.06990 0.48420 -0.08600
H 	H 	0.45370 0.08940 0.44810 0.05800
O 	O 	0.49373 0.17050 0.67640 -0.56100
O 	O 	0.41591 0.34460 0.72170 -0.47100
O 	O 	0.53411 0.10430 0.71210 -0.54300
O 	O 	0.42807 0.31790 0.59770 -0.53500
O 	O 	0.41224 0.20550 0.72420 -0.54600
O 	O 	0.42871 0.17910 0.60640 -0.56000
O 	O 	0.51191 0.34910 0.82090 -0.59100
O 	O 	0.47108 0.41060 0.78390 -0.54600
O 	O 	0.46174 0.25620 0.72944 -0.79800
O 	O 	0.33635 0.33120 0.13860 -0.52400
O 	O 	0.33684 0.19420 0.15550 -0.54900
O 	O 	0.32124 0.30590 0.99140 -0.51400
O 	O 	0.32197 0.16800 0.99810 -0.54900
Mg	Mg	0.30315 0.35188 0.05066 1.46800
C 	C 	0.23790 0.87060 0.38780 0.40200
C 	C 	0.21579 0.05020 0.18780 -0.15400
H 	H 	0.20020 0.06840 0.19240 0.08200
C 	C 	0.22690 0.95960 0.28790 -0.05300
H 	H 	0.21150 0.97690 0.29400 0.05900
C 	C 	0.22191 0.07820 0.13820 0.09100
H 	H 	0.20960 0.11370 0.10730 -0.00500
C 	C 	0.26767 0.87980 0.32200 0.00700
H 	H 	0.28010 0.84400 0.35230 0.04100
C 	C 	0.25460 0.09980 0.08200 0.47300
C 	C 	0.26313 0.00300 0.17390 0.02400
H 	H 	0.27950 0.99000 0.17120 0.01900
C 	C 	0.23313 0.99250 0.23400 0.05700
C 	C 	0.25599 0.96580 0.22490 -0.01600
C 	C 	0.24419 0.90160 0.33060 -0.09100
C 	C 	0.24540 0.05830 0.12900 -0.19500
C 	C 	0.27258 0.90940 0.27080 -0.07500
H 	H 	0.28800 0.89130 0.26560 0.05200
O 	O 	0.28841 0.24160 0.05372 -0.81500
O 	O 	0.27827 0.08840 0.08640 -0.56300
O 	O 	0.25426 0.81920 0.42450 -0.49700
O 	O 	0.21646 0.89650 0.39320 -0.51100
O 	O 	0.23731 0.14690 0.03760 -0.63100
Mg	Mg	0.94795 0.13770 0.19218 1.47000
Mg	Mg	0.94046 0.34489 0.20241 1.47100
Mg	Mg	0.81000 0.35636 0.57180 1.46900
C 	C 	0.88876 0.21160 0.27660 -0.08100
C 	C 	0.99321 0.10470 0.32770 0.44000
C 	C 	0.90727 0.22460 0.23840 0.39000
C 	C 	0.00100 0.07060 0.39840 -0.13100
C 	C 	0.84294 0.23160 0.67340 0.42300
C 	C 	0.84204 0.34430 0.39820 0.01800
H 	H 	0.83560 0.39200 0.40980 0.02500
C 	C 	0.86454 0.27970 0.33160 0.04500
C 	C 	0.82592 0.26570 0.47560 0.43500
C 	C 	0.84657 0.19680 0.40330 -0.02000
H 	H 	0.84330 0.14660 0.41850 0.04100
C 	C 	0.83859 0.26770 0.42380 -0.10900
C 	C 	0.86040 0.20140 0.35720 0.00700
C 	C 	0.85987 0.21790 0.75030 -0.10100
C 	C 	0.87816 0.28210 0.29190 -0.05800
H 	H 	0.88060 0.33170 0.27430 0.05000
C 	C 	0.86763 0.28660 0.78980 -0.03400
H 	H 	0.86270 0.33770 0.77000 0.04600
C 	C 	0.88295 0.28060 0.85980 0.02500
C 	C 	0.88875 0.20020 0.88690 0.02500
C 	C 	0.87943 0.13160 0.84430 -0.10400
H 	H 	0.88260 0.07930 0.86230 0.06200
C 	C 	0.92348 0.25370 0.07430 0.40400
C 	C 	0.90998 0.25920 0.99840 -0.08400
C 	C 	0.90263 0.19250 0.95880 -0.03200
H 	H 	0.90660 0.14100 0.97820 0.05300
C 	C 	0.90404 0.33450 0.96900 0.02100
H 	H 	0.90950 0.38000 0.99690 0.03300
C 	C 	0.98193 0.02760 0.40870 -0.01200
H 	H 	0.96490 0.02060 0.37360 0.04500
C 	C 	0.98762 0.99160 0.47420 0.01400
C 	C 	0.02627 0.08920 0.44980 0.02700
H 	H 	0.03920 0.12070 0.44220 0.02000
C 	C 	0.03087 0.05810 0.51210 -0.10000
H 	H 	0.04730 0.07070 0.54770 0.06300
C 	C 	0.85620 0.34530 0.35260 -0.11100
H 	H 	0.85940 0.39560 0.33760 0.05900
C 	C 	0.86999 0.13150 0.33870 -0.08300
H 	H 	0.86660 0.08100 0.35320 0.05200
C 	C 	0.88484 0.13570 0.29790 0.00400
H 	H 	0.89170 0.08910 0.28590 0.03400
C 	C 	0.86584 0.14320 0.77680 0.03300
H 	H 	0.86060 0.09820 0.74840 0.02500
C 	C 	0.89070 0.34690 0.90160 -0.10100
H 	H 	0.88690 0.39940 0.88410 0.05800
C 	C 	0.00960 0.37550 0.16950 0.43200
C 	C 	0.00140 0.42360 0.10130 -0.08900
C 	C 	0.98070 0.52450 0.90850 -0.01800
H 	H 	0.96500 0.50730 0.87270 0.04200
C 	C 	0.98710 0.49700 0.97650 0.02900
C 	C 	0.97710 0.40010 0.05010 -0.03800
H 	H 	0.96580 0.36370 0.05960 0.05000
C 	C 	0.96890 0.43010 0.98420 -0.04600
H 	H 	0.95370 0.41060 0.94810 0.04800
O 	O 	0.99373 0.32950 0.17640 -0.56000
O 	O 	0.91591 0.15540 0.22170 -0.47400
O 	O 	0.03411 0.39570 0.21210 -0.54500
O 	O 	0.92807 0.18210 0.09770 -0.53600
O 	O 	0.91224 0.29450 0.22420 -0.54800
O 	O 	0.92871 0.32090 0.10640 -0.56100
O 	O 	0.01191 0.15090 0.32090 -0.59100
O 	O 	0.97108 0.08940 0.28390 -0.54600
O 	O 	0.96174 0.24380 0.22944 -0.79900
O 	O 	0.83635 0.16880 0.63860 -0.51800
O 	O 	0.83684 0.30580 0.65550 -0.54400
O 	O 	0.82124 0.19410 0.49140 -0.52400
O 	O 	0.82197 0.33200 0.49810 -0.56000
Mg	Mg	0.80315 0.14812 0.55066 1.47000
C 	C 	0.73790 0.62940 0.88780 0.40200
C 	C 	0.71579 0.44980 0.68780 -0.15200
H 	H 	0.70020 0.43160 0.69240 0.08200
C 	C 	0.72690 0.54040 0.78790 -0.05200
H 	H 	0.71150 0.52310 0.79400 0.06000
C 	C 	0.72191 0.42180 0.63820 0.08900
H 	H 	0.70960 0.38630 0.60730 -0.00300
C 	C 	0.76767 0.62020 0.82200 0.00900
H 	H 	0.78010 0.65600 0.85230 0.04200
C 	C 	0.75460 0.40020 0.58200 0.47100
C 	C 	0.76313 0.49700 0.67390 0.02100
H 	H 	0.77950 0.51000 0.67120 0.02200
C 	C 	0.73313 0.50750 0.73400 0.05700
C 	C 	0.75599 0.53420 0.72490 -0.01300
C 	C 	0.74419 0.59840 0.83060 -0.09000
C 	C 	0.74540 0.44170 0.62900 -0.19000
C 	C 	0.77258 0.59060 0.77080 -0.07500
H 	H 	0.78800 0.60870 0.76560 0.05400
O 	O 	0.78841 0.25840 0.55372 -0.80300
O 	O 	0.77827 0.41160 0.58640 -0.55600
O 	O 	0.75426 0.68080 0.92450 -0.49000
O 	O 	0.71646 0.60350 0.89320 -0.50400
O 	O 	0.73731 0.35310 0.53760 -0.62000
Mg	Mg	0.44795 0.63770 0.19218 1.47000
Mg	Mg	0.44046 0.84489 0.20241 1.47100
Mg	Mg	0.31000 0.85636 0.57180 1.46900
C 	C 	0.38876 0.71160 0.27660 -0.08200
C 	C 	0.49321 0.60470 0.32770 0.43600
C 	C 	0.40727 0.72460 0.23840 0.39000
C 	C 	0.50100 0.57060 0.39840 -0.12600
C 	C 	0.34294 0.73160 0.67340 0.42300
C 	C 	0.34204 0.84430 0.39820 0.01800
H 	H 	0.33560 0.89200 0.40980 0.02500
C 	C 	0.36454 0.77970 0.33160 0.04500
C 	C 	0.32592 0.76570 0.47560 0.43500
C 	C 	0.34657 0.69680 0.40330 -0.02100
H 	H 	0.34330 0.64660 0.41850 0.04100
C 	C 	0.33859 0.76770 0.42380 -0.10900
C 	C 	0.36040 0.70140 0.35720 0.00700
C 	C 	0.35987 0.71790 0.75030 -0.10100
C 	C 	0.37816 0.78210 0.29190 -0.05800
H 	H 	0.38060 0.83170 0.27430 0.05000
C 	C 	0.36763 0.78660 0.78980 -0.03300
H 	H 	0.36270 0.83770 0.77000 0.04600
C 	C 	0.38295 0.78060 0.85980 0.02500
C 	C 	0.38875 0.70020 0.88690 0.02500
C 	C 	0.37943 0.63160 0.84430 -0.10500
H 	H 	0.38260 0.57930 0.86230 0.06200
C 	C 	0.42348 0.75370 0.07430 0.40400
C 	C 	0.40998 0.75920 0.99840 -0.08400
C 	C 	0.40263 0.69250 0.95880 -0.03300
H 	H 	0.40660 0.64100 0.97820 0.05300
C 	C 	0.40404 0.83450 0.96900 0.02100
H 	H 	0.40950 0.88000 0.99690 0.03300
C 	C 	0.48193 0.52760 0.40870 -0.01700
H 	H 	0.46490 0.52060 0.37360 0.04600
C 	C 	0.48762 0.49160 0.47420 0.01800
C 	C 	0.52627 0.58920 0.44980 0.02300
H 	H 	0.53920 0.62070 0.44220 0.02100
C 	C 	0.53087 0.55810 0.51210 -0.09700
H 	H 	0.54730 0.57070 0.54770 0.06200
C 	C 	0.35620 0.84530 0.35260 -0.11100
H 	H 	0.35940 0.89560 0.33760 0.05900
C 	C 	0.36999 0.63150 0.33870 -0.08300
H 	H 	0.36660 0.58100 0.35320 0.05200
C 	C 	0.38484 0.63570 0.29790 0.00400
H 	H 	0.39170 0.58910 0.28590 0.03400
C 	C 	0.36584 0.64320 0.77680 0.03400
H 	H 	0.36060 0.59820 0.74840 0.02500
C 	C 	0.39070 0.84690 0.90160 -0.10100
H 	H 	0.38690 0.89940 0.88410 0.05800
C 	C 	0.50960 0.87550 0.16950 0.43200
C 	C 	0.50140 0.92360 0.10130 -0.08600
C 	C 	0.48070 0.02450 0.90850 -0.01500
H 	H 	0.46500 0.00730 0.87270 0.04100
C 	C 	0.48710 0.99700 0.97650 0.02500
C 	C 	0.47710 0.90010 0.05010 -0.04200
H 	H 	0.46580 0.86370 0.05960 0.05100
C 	C 	0.46890 0.93010 0.98420 -0.04300
H 	H 	0.45370 0.91060 0.94810 0.04700
O 	O 	0.49373 0.82950 0.17640 -0.56100
O 	O 	0.41591 0.65540 0.22170 -0.47400
O 	O 	0.53411 0.89570 0.21210 -0.54500
O 	O 	0.42807 0.68210 0.09770 -0.53600
O 	O 	0.41224 0.79450 0.22420 -0.54900
O 	O 	0.42871 0.82090 0.10640 -0.56100
O 	O 	0.51191 0.65090 0.32090 -0.59000
O 	O 	0.47108 0.58940 0.28390 -0.54600
O 	O 	0.46174 0.74380 0.22944 -0.79900
O 	O 	0.33635 0.66880 0.63860 -0.51800
O 	O 	0.33684 0.80580 0.65550 -0.54400
O 	O 	0.32124 0.69410 0.49140 -0.52400
O 	O 	0.32197 0.83200 0.49810 -0.56000
Mg	Mg	0.30315 0.64812 0.55066 1.47000
C 	C 	0.23790 0.12940 0.88780 0.40200
C 	C 	0.21579 0.94980 0.68780 -0.15200
H 	H 	0.20020 0.93160 0.69240 0.08200
C 	C 	0.22690 0.04040 0.78790 -0.05200
H 	H 	0.21150 0.02310 0.79400 0.06000
C 	C 	0.22191 0.92180 0.63820 0.08900
H 	H 	0.20960 0.88630 0.60730 -0.00300
C 	C 	0.26767 0.12020 0.82200 0.00900
H 	H 	0.28010 0.15600 0.85230 0.04100
C 	C 	0.25460 0.90020 0.58200 0.47100
C 	C 	0.26313 0.99700 0.67390 0.02100
H 	H 	0.27950 0.01000 0.67120 0.02300
C 	C 	0.23313 0.00750 0.73400 0.05700
C 	C 	0.25599 0.03420 0.72490 -0.01200
C 	C 	0.24419 0.09840 0.83060 -0.09000
C 	C 	0.24540 0.94170 0.62900 -0.19000
C 	C 	0.27258 0.09060 0.77080 -0.07600
H 	H 	0.28800 0.10870 0.76560 0.05400
O 	O 	0.28841 0.75840 0.55372 -0.80300
O 	O 	0.27827 0.91160 0.58640 -0.55600
O 	O 	0.25426 0.18080 0.92450 -0.49000
O 	O 	0.21646 0.10350 0.89320 -0.50400
O 	O 	0.23731 0.85310 0.53760 -0.62000
Mg	Mg	0.05205 0.13770 0.30782 1.47100
Mg	Mg	0.05954 0.34489 0.29759 1.47100
Mg	Mg	0.19000 0.35636 0.92820 1.47000
C 	C 	0.11124 0.21160 0.22340 -0.07900
C 	C 	0.00679 0.10470 0.17230 0.42300
C 	C 	0.09273 0.22460 0.26160 0.39000
C 	C 	0.99900 0.07060 0.10160 -0.09600
C 	C 	0.15706 0.23160 0.82660 0.41800
C 	C 	0.15796 0.34430 0.10180 0.02000
H 	H 	0.16440 0.39200 0.09020 0.02200
C 	C 	0.13546 0.27970 0.16840 0.04800
C 	C 	0.17408 0.26570 0.02440 0.43600
C 	C 	0.15343 0.19680 0.09670 -0.01800
H 	H 	0.15670 0.14660 0.08150 0.03800
C 	C 	0.16141 0.26770 0.07620 -0.11300
C 	C 	0.13960 0.20140 0.14280 0.00400
C 	C 	0.14013 0.21790 0.74970 -0.08800
C 	C 	0.12184 0.28210 0.20810 -0.06100
H 	H 	0.11940 0.33170 0.22570 0.05200
C 	C 	0.13237 0.28660 0.71020 -0.05000
H 	H 	0.13730 0.33770 0.73000 0.05200
C 	C 	0.11705 0.28060 0.64020 0.04600
C 	C 	0.11125 0.20020 0.61310 0.00100
C 	C 	0.12057 0.13160 0.65570 -0.08600
H 	H 	0.11740 0.07930 0.63770 0.05400
C 	C 	0.07652 0.25370 0.42570 0.43700
C 	C 	0.09002 0.25920 0.50160 -0.13400
C 	C 	0.09737 0.19250 0.54120 -0.00300
H 	H 	0.09340 0.14100 0.52180 0.03600
C 	C 	0.09596 0.33450 0.53100 0.05500
H 	H 	0.09050 0.38000 0.50310 0.01400
C 	C 	0.01807 0.02760 0.09130 -0.04700
H 	H 	0.03510 0.02060 0.12640 0.05600
C 	C 	0.01238 0.99160 0.02580 0.02900
C 	C 	0.97373 0.08920 0.05020 -0.04300
H 	H 	0.96080 0.12070 0.05780 0.03700
C 	C 	0.96913 0.05810 0.98790 -0.03200
H 	H 	0.95270 0.07070 0.95230 0.04400
C 	C 	0.14380 0.34530 0.14740 -0.11500
H 	H 	0.14060 0.39560 0.16240 0.05900
C 	C 	0.13001 0.13150 0.16130 -0.08100
H 	H 	0.13340 0.08100 0.14680 0.05000
C 	C 	0.11516 0.13570 0.20210 0.00100
H 	H 	0.10830 0.08910 0.21410 0.03500
C 	C 	0.13416 0.14320 0.72320 0.01700
H 	H 	0.13940 0.09820 0.75160 0.03200
C 	C 	0.10930 0.34690 0.59840 -0.13200
H 	H 	0.11310 0.39940 0.61590 0.06800
C 	C 	0.99040 0.37550 0.33050 0.43900
C 	C 	0.99860 0.42360 0.39870 -0.09800
C 	C 	0.01930 0.52450 0.59150 -0.02300
H 	H 	0.03500 0.50730 0.62730 0.04400
C 	C 	0.01290 0.49700 0.52350 0.01200
C 	C 	0.02290 0.40010 0.44990 0.00400
H 	H 	0.03420 0.36370 0.44040 0.04200
C 	C 	0.03110 0.43010 0.51580 -0.08400
H 	H 	0.04630 0.41060 0.55190 0.05800
O 	O 	0.00627 0.32950 0.32360 -0.56200
O 	O 	0.08409 0.15540 0.27830 -0.47200
O 	O 	0.96589 0.39570 0.28790 -0.54600
O 	O 	0.07193 0.18210 0.40230 -0.53500
O 	O 	0.08776 0.29450 0.27580 -0.54700
O 	O 	0.07129 0.32090 0.39360 -0.56100
O 	O 	0.98809 0.15090 0.17910 -0.58700
O 	O 	0.02892 0.08940 0.21610 -0.54200
O 	O 	0.03826 0.24380 0.27056 -0.79900
O 	O 	0.16365 0.16880 0.86140 -0.51100
O 	O 	0.16316 0.30580 0.84450 -0.53800
O 	O 	0.17876 0.19410 0.00860 -0.53400
O 	O 	0.17803 0.33200 0.00190 -0.57200
Mg	Mg	0.19685 0.14812 0.94934 1.47200
C 	C 	0.26210 0.62940 0.61220 0.40300
C 	C 	0.28421 0.44980 0.81220 -0.14800
H 	H 	0.29980 0.43160 0.80760 0.08000
C 	C 	0.27310 0.54040 0.71210 -0.05000
H 	H 	0.28850 0.52310 0.70600 0.05800
C 	C 	0.27809 0.42180 0.86180 0.08600
H 	H 	0.29040 0.38630 0.89270 -0.00100
C 	C 	0.23233 0.62020 0.67800 0.01100
H 	H 	0.21990 0.65600 0.64770 0.04000
C 	C 	0.24540 0.40020 0.91800 0.46900
C 	C 	0.23687 0.49700 0.82610 0.01800
H 	H 	0.22050 0.51000 0.82880 0.02500
C 	C 	0.26687 0.50750 0.76600 0.05400
C 	C 	0.24401 0.53420 0.77510 -0.00900
C 	C 	0.25581 0.59840 0.66940 -0.09300
C 	C 	0.25460 0.44170 0.87100 -0.18500
C 	C 	0.22742 0.59060 0.72920 -0.07900
H 	H 	0.21200 0.60870 0.73440 0.05600
O 	O 	0.21159 0.25840 0.94628 -0.79100
O 	O 	0.22173 0.41160 0.91360 -0.54900
O 	O 	0.24574 0.68080 0.57550 -0.49700
O 	O 	0.28354 0.60350 0.60680 -0.51000
O 	O 	0.26269 0.35310 0.96240 -0.60900
Mg	Mg	0.55205 0.63770 0.30782 1.47100
Mg	Mg	0.55954 0.84489 0.29759 1.47100
Mg	Mg	0.69000 0.85636 0.92820 1.47000
C 	C 	0.61124 0.71160 0.22340 -0.07900
C 	C 	0.50679 0.60470 0.17230 0.42600
C 	C 	0.59273 0.72460 0.26160 0.39000
C 	C 	0.49900 0.57060 0.10160 -0.09900
C 	C 	0.65706 0.73160 0.82660 0.41800
C 	C 	0.65796 0.84430 0.10180 0.02000
H 	H 	0.66440 0.89200 0.09020 0.02200
C 	C 	0.63546 0.77970 0.16840 0.04800
C 	C 	0.67408 0.76570 0.02440 0.43600
C 	C 	0.65343 0.69680 0.09670 -0.01800
H 	H 	0.65670 0.64660 0.08150 0.03800
C 	C 	0.66141 0.76770 0.07620 -0.11300
C 	C 	0.63960 0.70140 0.14280 0.00400
C 	C 	0.64013 0.71790 0.74970 -0.08800
C 	C 	0.62184 0.78210 0.20810 -0.06100
H 	H 	0.61940 0.83170 0.22570 0.05200
C 	C 	0.63237 0.78660 0.71020 -0.05000
H 	H 	0.63730 0.83770 0.73000 0.05200
C 	C 	0.61705 0.78060 0.64020 0.04600
C 	C 	0.61125 0.70020 0.61310 0.00100
C 	C 	0.62057 0.63160 0.65570 -0.08600
H 	H 	0.61740 0.57930 0.63770 0.05400
C 	C 	0.57652 0.75370 0.42570 0.43700
C 	C 	0.59002 0.75920 0.50160 -0.13400
C 	C 	0.59737 0.69250 0.54120 -0.00200
H 	H 	0.59340 0.64100 0.52180 0.03600
C 	C 	0.59596 0.83450 0.53100 0.05500
H 	H 	0.59050 0.88000 0.50310 0.01400
C 	C 	0.51807 0.52760 0.09130 -0.04500
H 	H 	0.53510 0.52060 0.12640 0.05500
C 	C 	0.51238 0.49160 0.02580 0.02900
C 	C 	0.47373 0.58920 0.05020 -0.04200
H 	H 	0.46080 0.62070 0.05780 0.03700
C 	C 	0.46913 0.55810 0.98790 -0.03300
H 	H 	0.45270 0.57070 0.95230 0.04400
C 	C 	0.64380 0.84530 0.14740 -0.11500
H 	H 	0.64060 0.89560 0.16240 0.05900
C 	C 	0.63001 0.63150 0.16130 -0.08100
H 	H 	0.63340 0.58100 0.14680 0.05000
C 	C 	0.61516 0.63570 0.20210 0.00100
H 	H 	0.60830 0.58910 0.21410 0.03500
C 	C 	0.63416 0.64320 0.72320 0.01700
H 	H 	0.63940 0.59820 0.75160 0.03200
C 	C 	0.60930 0.84690 0.59840 -0.13200
H 	H 	0.61310 0.89940 0.61590 0.06700
C 	C 	0.49040 0.87550 0.33050 0.43800
C 	C 	0.49860 0.92360 0.39870 -0.10100
C 	C 	0.51930 0.02450 0.59150 -0.02500
H 	H 	0.53500 0.00730 0.62730 0.04400
C 	C 	0.51290 0.99700 0.52350 0.01400
C 	C 	0.52290 0.90010 0.44990 0.00700
H 	H 	0.53420 0.86370 0.44040 0.04100
C 	C 	0.53110 0.93010 0.51580 -0.08600
H 	H 	0.54630 0.91060 0.55190 0.05900
O 	O 	0.50627 0.82950 0.32360 -0.56100
O 	O 	0.58409 0.65540 0.27830 -0.47200
O 	O 	0.46589 0.89570 0.28790 -0.54600
O 	O 	0.57193 0.68210 0.40230 -0.53500
O 	O 	0.58776 0.79450 0.27580 -0.54700
O 	O 	0.57129 0.82090 0.39360 -0.56100
O 	O 	0.48809 0.65090 0.17910 -0.58900
O 	O 	0.52892 0.58940 0.21610 -0.54300
O 	O 	0.53826 0.74380 0.27056 -0.79900
O 	O 	0.66365 0.66880 0.86140 -0.51100
O 	O 	0.66316 0.80580 0.84450 -0.53800
O 	O 	0.67876 0.69410 0.00860 -0.53400
O 	O 	0.67803 0.83200 0.00190 -0.57200
Mg	Mg	0.69685 0.64812 0.94934 1.47200
C 	C 	0.76210 0.12940 0.61220 0.40300
C 	C 	0.78421 0.94980 0.81220 -0.14800
H 	H 	0.79980 0.93160 0.80760 0.08000
C 	C 	0.77310 0.04040 0.71210 -0.05000
H 	H 	0.78850 0.02310 0.70600 0.05800
C 	C 	0.77809 0.92180 0.86180 0.08600
H 	H 	0.79040 0.88630 0.89270 -0.00100
C 	C 	0.73233 0.12020 0.67800 0.01200
H 	H 	0.71990 0.15600 0.64770 0.04000
C 	C 	0.74540 0.90020 0.91800 0.46900
C 	C 	0.73687 0.99700 0.82610 0.01800
H 	H 	0.72050 0.01000 0.82880 0.02500
C 	C 	0.76687 0.00750 0.76600 0.05400
C 	C 	0.74401 0.03420 0.77510 -0.00900
C 	C 	0.75581 0.09840 0.66940 -0.09300
C 	C 	0.75460 0.94170 0.87100 -0.18500
C 	C 	0.72742 0.09060 0.72920 -0.07900
H 	H 	0.71200 0.10870 0.73440 0.05600
O 	O 	0.71159 0.75840 0.94628 -0.79100
O 	O 	0.72173 0.91160 0.91360 -0.54900
O 	O 	0.74574 0.18080 0.57550 -0.49700
O 	O 	0.78354 0.10350 0.60680 -0.51000
O 	O 	0.76269 0.85310 0.96240 -0.60900
Mg	Mg	0.00000 0.75288 0.75000 1.48200
Mg	Mg	0.50000 0.25288 0.75000 1.48200
Mg	Mg	0.00000 0.24712 0.25000 1.48200
Mg	Mg	0.50000 0.74712 0.25000 1.48200
Mg	Mg	0.25000 0.75000 0.50000 1.48100
Mg	Mg	0.75000 0.75000 -0.00000 1.47900
Mg	Mg	0.75000 0.25000 0.50000 1.48100
Mg	Mg	0.25000 0.25000 -0.00000 1.47900
