data_crystal

_cell_length_a 22.80300
_cell_length_b 13.45710
_cell_length_c 15.56370
_cell_angle_alpha 90.00000
_cell_angle_beta  93.76100
_cell_angle_gamma 90.00000

_symmetry_space_group_name_	'P 1'
_symmetry_space_group_name_H-M	'P 1'

loop_
_symmetry_equiv_pos_as_xyz
  x,y,z

loop_
_atom_site_label
_atom_site_type_symbol
_atom_site_fract_x
_atom_site_fract_y
_atom_site_fract_z
_atom_site_charge
Mg	Mg	0.74815 0.19108 0.74504 1.46500
Mg	Mg	0.84600 0.97119 0.76204 1.46800
Mg	Mg	0.90580 0.22721 0.73406 1.46600
S 	S 	0.73022 0.88479 0.99951 0.07400
S 	S 	0.82555 0.45765 0.49698 0.08700
C 	C 	0.64950 0.00890 0.95820 0.00000
C 	C 	0.71680 0.41510 0.46830 0.01200
C 	C 	0.98320 0.91460 0.53650 0.04700
C 	C 	0.97870 0.17530 0.96430 0.01800
C 	C 	0.96740 0.00750 0.55980 -0.15200
C 	C 	0.66800 0.88170 0.05810 -0.15400
C 	C 	0.62830 0.95080 0.03130 0.05200
C 	C 	0.70320 0.97980 0.93560 -0.10900
C 	C 	0.92870 0.03760 0.62970 0.45100
C 	C 	0.96460 0.08020 0.93860 -0.14400
C 	C 	0.66510 0.81330 0.13220 0.46600
C 	C 	0.92110 0.04660 0.86820 0.38200
C 	C 	0.73810 0.35350 0.53710 0.01100
C 	C 	0.73730 0.02200 0.86670 0.43500
C 	C 	0.83270 0.31600 0.62650 0.41000
C 	C 	0.75480 0.55170 0.37090 0.42300
C 	C 	0.75990 0.47700 0.43940 -0.15300
C 	C 	0.79580 0.36730 0.55940 -0.14400
O 	O 	0.92370 0.12820 0.64090 -0.54600
O 	O 	0.78510 0.98100 0.85440 -0.51400
O 	O 	0.71070 0.54730 0.31680 -0.63700
O 	O 	0.71430 0.09190 0.82500 -0.53800
O 	O 	0.90650 0.96790 0.66990 -0.51400
O 	O 	0.61840 0.81840 0.17050 -0.53100
O 	O 	0.89593 0.10800 0.81650 -0.63100
O 	O 	0.91030 0.95610 0.86370 -0.45700
O 	O 	0.70820 0.75920 0.15120 -0.54700
O 	O 	0.88690 0.33770 0.63600 -0.45400
O 	O 	0.79180 0.61910 0.36760 -0.47000
O 	O 	0.81070 0.25260 0.67350 -0.62900
Mg	Mg	0.24815 0.69108 0.74504 1.46600
Mg	Mg	0.34600 0.47119 0.76204 1.46700
Mg	Mg	0.40580 0.72721 0.73406 1.46600
S 	S 	0.23022 0.38479 0.99951 0.07500
S 	S 	0.32555 0.95765 0.49698 0.09100
C 	C 	0.14950 0.50890 0.95820 0.03800
C 	C 	0.21680 0.91510 0.46830 0.01300
C 	C 	0.48320 0.41460 0.53650 0.02900
C 	C 	0.47870 0.67530 0.96430 0.01400
C 	C 	0.46740 0.50750 0.55980 -0.14200
C 	C 	0.16800 0.38170 0.05810 -0.14900
C 	C 	0.12830 0.45080 0.03130 0.02900
C 	C 	0.20320 0.47980 0.93560 -0.15200
C 	C 	0.42870 0.53760 0.62970 0.46700
C 	C 	0.46460 0.58020 0.93860 -0.13600
C 	C 	0.16510 0.31330 0.13220 0.46400
C 	C 	0.42110 0.54660 0.86820 0.39800
C 	C 	0.23810 0.85350 0.53710 0.01400
C 	C 	0.23730 0.52200 0.86670 0.47800
C 	C 	0.33270 0.81600 0.62650 0.41100
C 	C 	0.25480 0.05170 0.37090 0.40800
C 	C 	0.25990 0.97700 0.43940 -0.13800
C 	C 	0.29580 0.86730 0.55940 -0.14400
O 	O 	0.42370 0.62820 0.64090 -0.54900
O 	O 	0.28510 0.48100 0.85440 -0.53700
O 	O 	0.21070 0.04730 0.31680 -0.64000
O 	O 	0.21430 0.59190 0.82500 -0.54600
O 	O 	0.40650 0.46790 0.66990 -0.53100
O 	O 	0.11840 0.31840 0.17050 -0.53200
O 	O 	0.39593 0.60800 0.81650 -0.63100
O 	O 	0.41030 0.45610 0.86370 -0.47200
O 	O 	0.20820 0.25920 0.15120 -0.54900
O 	O 	0.38690 0.83770 0.63600 -0.45300
O 	O 	0.29180 0.11910 0.36760 -0.47200
O 	O 	0.31070 0.75260 0.67350 -0.62800
Mg	Mg	0.25185 0.19108 0.25496 1.46500
Mg	Mg	0.15400 0.97119 0.23796 1.46800
Mg	Mg	0.09420 0.22721 0.26594 1.46500
S 	S 	0.26978 0.88479 0.00049 0.06200
S 	S 	0.17445 0.45765 0.50302 0.08400
C 	C 	0.35050 0.00890 0.04180 -0.00900
C 	C 	0.28320 0.41510 0.53170 0.01200
C 	C 	0.01680 0.91460 0.46350 0.03600
C 	C 	0.02130 0.17530 0.03570 -0.00000
C 	C 	0.03260 0.00750 0.44020 -0.15300
C 	C 	0.33200 0.88170 0.94190 -0.14800
C 	C 	0.37170 0.95080 0.96870 0.06000
C 	C 	0.29680 0.97980 0.06440 -0.10700
C 	C 	0.07130 0.03760 0.37030 0.45100
C 	C 	0.03540 0.08020 0.06140 -0.14700
C 	C 	0.33490 0.81330 0.86780 0.46500
C 	C 	0.07890 0.04660 0.13180 0.38100
C 	C 	0.26190 0.35350 0.46290 0.01100
C 	C 	0.26270 0.02200 0.13330 0.43400
C 	C 	0.16730 0.31600 0.37350 0.41000
C 	C 	0.24520 0.55170 0.62910 0.42300
C 	C 	0.24010 0.47700 0.56060 -0.15200
C 	C 	0.20420 0.36730 0.44060 -0.14400
O 	O 	0.07630 0.12820 0.35910 -0.54700
O 	O 	0.21490 0.98100 0.14560 -0.51500
O 	O 	0.28930 0.54730 0.68320 -0.63700
O 	O 	0.28570 0.09190 0.17500 -0.53900
O 	O 	0.09350 0.96790 0.33010 -0.51500
O 	O 	0.38160 0.81840 0.82950 -0.53000
O 	O 	0.10407 0.10800 0.18350 -0.63200
O 	O 	0.08970 0.95610 0.13630 -0.46100
O 	O 	0.29180 0.75920 0.84880 -0.54500
O 	O 	0.11310 0.33770 0.36400 -0.45600
O 	O 	0.20820 0.61910 0.63240 -0.47100
O 	O 	0.18930 0.25260 0.32650 -0.63000
Mg	Mg	0.75185 0.69108 0.25496 1.46600
Mg	Mg	0.65400 0.47119 0.23796 1.46700
Mg	Mg	0.59420 0.72721 0.26594 1.46600
S 	S 	0.76978 0.38479 0.00049 0.06400
S 	S 	0.67445 0.95765 0.50302 0.09100
C 	C 	0.85050 0.50890 0.04180 0.03000
C 	C 	0.78320 0.91510 0.53170 0.01300
C 	C 	0.51680 0.41460 0.46350 0.02800
C 	C 	0.52130 0.67530 0.03570 0.00500
C 	C 	0.53260 0.50750 0.44020 -0.14200
C 	C 	0.83200 0.38170 0.94190 -0.14300
C 	C 	0.87170 0.45080 0.96870 0.03900
C 	C 	0.79680 0.47980 0.06440 -0.14800
C 	C 	0.57130 0.53760 0.37030 0.46700
C 	C 	0.53540 0.58020 0.06140 -0.13800
C 	C 	0.83490 0.31330 0.86780 0.46300
C 	C 	0.57890 0.54660 0.13180 0.39800
C 	C 	0.76190 0.85350 0.46290 0.01500
C 	C 	0.76270 0.52200 0.13330 0.47600
C 	C 	0.66730 0.81600 0.37350 0.41100
C 	C 	0.74520 0.05170 0.62910 0.40800
C 	C 	0.74010 0.97700 0.56060 -0.13800
C 	C 	0.70420 0.86730 0.44060 -0.14400
O 	O 	0.57630 0.62820 0.35910 -0.54900
O 	O 	0.71490 0.48100 0.14560 -0.53700
O 	O 	0.78930 0.04730 0.68320 -0.64000
O 	O 	0.78570 0.59190 0.17500 -0.54600
O 	O 	0.59350 0.46790 0.33010 -0.53100
O 	O 	0.88160 0.31840 0.82950 -0.53100
O 	O 	0.60407 0.60800 0.18350 -0.63200
O 	O 	0.58970 0.45610 0.13630 -0.47400
O 	O 	0.79180 0.25920 0.84880 -0.54700
O 	O 	0.61310 0.83770 0.36400 -0.45300
O 	O 	0.70820 0.11910 0.63240 -0.47200
O 	O 	0.68930 0.75260 0.32650 -0.62800
S 	S 	0.00000 0.09549 0.50000 0.06700
S 	S 	0.50000 0.59549 0.50000 0.07400
S 	S 	-0.00000 0.99283 -0.00000 0.10300
S 	S 	0.50000 0.49283 -0.00000 0.08300
