data_crystal

_cell_length_a 8.69450
_cell_length_b 20.80800
_cell_length_c 34.07900
_cell_angle_alpha 90.00000
_cell_angle_beta  90.00000
_cell_angle_gamma 90.00000

_symmetry_space_group_name_	'P 1'
_symmetry_space_group_name_H-M	'P 1'

loop_
_symmetry_equiv_pos_as_xyz
  x,y,z

loop_
_atom_site_label
_atom_site_type_symbol
_atom_site_fract_x
_atom_site_fract_y
_atom_site_fract_z
_atom_site_charge
O 	O 	0.24800 0.33300 0.59320 -0.66400
O 	O 	0.00720 0.33300 0.57080 -0.63000
O 	O 	0.24020 0.45770 0.63690 -0.65000
C 	C 	0.14590 0.31920 0.56810 0.54100
C 	C 	0.20060 0.28500 0.53240 -0.14400
C 	C 	0.09680 0.26660 0.50410 -0.00100
C 	C 	0.14670 0.23170 0.47160 0.01100
C 	C 	0.21800 0.59070 0.65080 -0.00300
C 	C 	0.21800 0.65750 0.65070 0.01000
H 	H 	0.99130 0.27750 0.50700 0.04600
H 	H 	0.07400 0.21930 0.45230 0.02800
H 	H 	0.27100 0.56800 0.67090 0.04000
H 	H 	0.27220 0.68000 0.67080 0.02700
O 	O 	0.24800 0.83300 0.09320 -0.66300
O 	O 	0.00720 0.83300 0.07080 -0.62700
O 	O 	0.24020 0.95770 0.13690 -0.64900
C 	C 	0.14590 0.81920 0.06810 0.54400
C 	C 	0.20060 0.78500 0.03240 -0.14800
C 	C 	0.09680 0.76660 0.00410 0.01200
C 	C 	0.14670 0.73170 0.97160 0.00500
C 	C 	0.21800 0.09070 0.15080 -0.00100
C 	C 	0.21800 0.15750 0.15070 0.00900
H 	H 	0.99130 0.77750 0.00700 0.03900
H 	H 	0.07400 0.71930 0.95230 0.03100
H 	H 	0.27100 0.06800 0.17090 0.04000
H 	H 	0.27220 0.18000 0.17080 0.02700
O 	O 	0.74800 0.33300 0.09320 -0.66300
O 	O 	0.50720 0.33300 0.07080 -0.62800
O 	O 	0.74020 0.45770 0.13690 -0.65000
C 	C 	0.64590 0.31920 0.06810 0.54100
C 	C 	0.70060 0.28500 0.03240 -0.14100
C 	C 	0.59680 0.26660 0.00410 -0.00000
C 	C 	0.64670 0.23170 0.97160 0.01400
C 	C 	0.71800 0.59070 0.15080 -0.00200
C 	C 	0.71800 0.65750 0.15070 0.01000
H 	H 	0.49130 0.27750 0.00700 0.04500
H 	H 	0.57400 0.21930 0.95230 0.02800
H 	H 	0.77100 0.56800 0.17090 0.04000
H 	H 	0.77220 0.68000 0.17080 0.02700
O 	O 	0.74800 0.83300 0.59320 -0.66400
O 	O 	0.50720 0.83300 0.57080 -0.62900
O 	O 	0.74020 0.95770 0.63690 -0.65000
C 	C 	0.64590 0.81920 0.56810 0.54300
C 	C 	0.70060 0.78500 0.53240 -0.14600
C 	C 	0.59680 0.76660 0.50410 0.00400
C 	C 	0.64670 0.73170 0.47160 0.00900
C 	C 	0.71800 0.09070 0.65080 -0.00200
C 	C 	0.71800 0.15750 0.65070 0.01000
H 	H 	0.49130 0.77750 0.50700 0.04400
H 	H 	0.57400 0.71930 0.45230 0.03000
H 	H 	0.77100 0.06800 0.67090 0.04100
H 	H 	0.77220 0.18000 0.67080 0.02700
O 	O 	0.50200 0.41700 0.59320 -0.66300
O 	O 	0.74280 0.41700 0.57080 -0.62900
O 	O 	0.50980 0.29230 0.63690 -0.64900
C 	C 	0.60410 0.43080 0.56810 0.54200
C 	C 	0.54940 0.46500 0.53240 -0.14400
C 	C 	0.65320 0.48340 0.50410 0.00300
C 	C 	0.60330 0.51830 0.47160 0.01000
C 	C 	0.53200 0.15930 0.65080 -0.00200
C 	C 	0.53200 0.09250 0.65070 0.00900
H 	H 	0.75870 0.47250 0.50700 0.04400
H 	H 	0.67600 0.53070 0.45230 0.02900
H 	H 	0.47900 0.18200 0.67090 0.04000
H 	H 	0.47780 0.07000 0.67080 0.02700
O 	O 	0.50200 0.91700 0.09320 -0.66300
O 	O 	0.74280 0.91700 0.07080 -0.63000
O 	O 	0.50980 0.79230 0.13690 -0.64900
C 	C 	0.60410 0.93080 0.06810 0.54300
C 	C 	0.54940 0.96500 0.03240 -0.14400
C 	C 	0.65320 0.98340 0.00410 0.00200
C 	C 	0.60330 0.01830 0.97160 0.01200
C 	C 	0.53200 0.65930 0.15080 -0.00200
C 	C 	0.53200 0.59250 0.15070 0.01000
H 	H 	0.75870 0.97250 0.00700 0.04400
H 	H 	0.67600 0.03070 0.95230 0.02900
H 	H 	0.47900 0.68200 0.17090 0.04000
H 	H 	0.47780 0.57000 0.17080 0.02700
O 	O 	0.00200 0.41700 0.09320 -0.66300
O 	O 	0.24280 0.41700 0.07080 -0.62900
O 	O 	0.00980 0.29230 0.13690 -0.64900
C 	C 	0.10410 0.43080 0.06810 0.54200
C 	C 	0.04940 0.46500 0.03240 -0.14300
C 	C 	0.15320 0.48340 0.00410 0.00400
C 	C 	0.10330 0.51830 0.97160 0.00800
C 	C 	0.03200 0.15930 0.15080 -0.00200
C 	C 	0.03200 0.09250 0.15070 0.00900
H 	H 	0.25870 0.47250 0.00700 0.04400
H 	H 	0.17600 0.53070 0.95230 0.03000
H 	H 	0.97900 0.18200 0.17090 0.04100
H 	H 	0.97780 0.07000 0.17080 0.02800
O 	O 	0.00200 0.91700 0.59320 -0.66100
O 	O 	0.24280 0.91700 0.57080 -0.62800
O 	O 	0.00980 0.79230 0.63690 -0.64800
C 	C 	0.10410 0.93080 0.56810 0.54100
C 	C 	0.04940 0.96500 0.53240 -0.14100
C 	C 	0.15320 0.98340 0.50410 0.00700
C 	C 	0.10330 0.01830 0.47160 0.00300
C 	C 	0.03200 0.65930 0.65080 0.00100
C 	C 	0.03200 0.59250 0.65070 0.01000
H 	H 	0.25870 0.97250 0.50700 0.04300
H 	H 	0.17600 0.03070 0.45230 0.03100
H 	H 	0.97900 0.68200 0.67090 0.03800
H 	H 	0.97780 0.57000 0.67080 0.02700
O 	O 	0.50200 0.33300 0.15680 -0.66300
O 	O 	0.74280 0.33300 0.17920 -0.62900
O 	O 	0.50980 0.45770 0.11310 -0.64900
C 	C 	0.60410 0.31920 0.18190 0.54200
C 	C 	0.54940 0.28500 0.21760 -0.14400
C 	C 	0.65320 0.26660 0.24590 0.00300
C 	C 	0.60330 0.23170 0.27840 0.01100
C 	C 	0.53200 0.59070 0.09920 -0.00200
C 	C 	0.53200 0.65750 0.09930 0.01000
H 	H 	0.75870 0.27750 0.24300 0.04400
H 	H 	0.67600 0.21930 0.29770 0.02900
H 	H 	0.47900 0.56800 0.07910 0.04000
H 	H 	0.47780 0.68000 0.07920 0.02700
O 	O 	0.50200 0.83300 0.65680 -0.66300
O 	O 	0.74280 0.83300 0.67920 -0.62900
O 	O 	0.50980 0.95770 0.61310 -0.64900
C 	C 	0.60410 0.81920 0.68190 0.54300
C 	C 	0.54940 0.78500 0.71760 -0.14400
C 	C 	0.65320 0.76660 0.74590 0.00300
C 	C 	0.60330 0.73170 0.77840 0.01000
C 	C 	0.53200 0.09070 0.59920 -0.00200
C 	C 	0.53200 0.15750 0.59930 0.01000
H 	H 	0.75870 0.77750 0.74300 0.04400
H 	H 	0.67600 0.71930 0.79770 0.02900
H 	H 	0.47900 0.06800 0.57910 0.04000
H 	H 	0.47780 0.18000 0.57920 0.02700
O 	O 	0.00200 0.33300 0.65680 -0.66400
O 	O 	0.24280 0.33300 0.67920 -0.62900
O 	O 	0.00980 0.45770 0.61310 -0.64900
C 	C 	0.10410 0.31920 0.68190 0.54400
C 	C 	0.04940 0.28500 0.71760 -0.14900
C 	C 	0.15320 0.26660 0.74590 0.00800
C 	C 	0.10330 0.23170 0.77840 0.00300
C 	C 	0.03200 0.59070 0.59920 -0.00100
C 	C 	0.03200 0.65750 0.59930 0.01200
H 	H 	0.25870 0.27750 0.74300 0.04300
H 	H 	0.17600 0.21930 0.79770 0.03100
H 	H 	0.97900 0.56800 0.57910 0.03900
H 	H 	0.97780 0.68000 0.57920 0.02500
O 	O 	0.00200 0.83300 0.15680 -0.66100
O 	O 	0.24280 0.83300 0.17920 -0.62800
O 	O 	0.00980 0.95770 0.11310 -0.64800
C 	C 	0.10410 0.81920 0.18190 0.54100
C 	C 	0.04940 0.78500 0.21760 -0.13800
C 	C 	0.15320 0.76660 0.24590 -0.00100
C 	C 	0.10330 0.73170 0.27840 0.01500
C 	C 	0.03200 0.09070 0.09920 -0.00300
C 	C 	0.03200 0.15750 0.09930 0.00900
H 	H 	0.25870 0.77750 0.24300 0.04600
H 	H 	0.17600 0.71930 0.29770 0.02800
H 	H 	0.97900 0.06800 0.07910 0.04100
H 	H 	0.97780 0.18000 0.07920 0.02800
O 	O 	0.24800 0.41700 0.15680 -0.66300
O 	O 	0.00720 0.41700 0.17920 -0.62800
O 	O 	0.24020 0.29230 0.11310 -0.64900
C 	C 	0.14590 0.43080 0.18190 0.54300
C 	C 	0.20060 0.46500 0.21760 -0.14500
C 	C 	0.09680 0.48340 0.24590 0.00400
C 	C 	0.14670 0.51830 0.27840 0.01000
C 	C 	0.21800 0.15930 0.09920 -0.00300
C 	C 	0.21800 0.09250 0.09930 0.01100
H 	H 	0.99130 0.47250 0.24300 0.04300
H 	H 	0.07400 0.53070 0.29770 0.02900
H 	H 	0.27100 0.18200 0.07910 0.04000
H 	H 	0.27220 0.07000 0.07920 0.02700
O 	O 	0.24800 0.91700 0.65680 -0.66400
O 	O 	0.00720 0.91700 0.67920 -0.62800
O 	O 	0.24020 0.79230 0.61310 -0.64900
C 	C 	0.14590 0.93080 0.68190 0.54500
C 	C 	0.20060 0.96500 0.71760 -0.15000
C 	C 	0.09680 0.98340 0.74590 0.01600
C 	C 	0.14670 0.01830 0.77840 0.00000
C 	C 	0.21800 0.65930 0.59920 -0.00200
C 	C 	0.21800 0.59250 0.59930 0.00900
H 	H 	0.99130 0.97250 0.74300 0.03800
H 	H 	0.07400 0.03070 0.79770 0.03100
H 	H 	0.27100 0.68200 0.57910 0.04000
H 	H 	0.27220 0.57000 0.57920 0.02800
O 	O 	0.74800 0.41700 0.65680 -0.66300
O 	O 	0.50720 0.41700 0.67920 -0.62900
O 	O 	0.74020 0.29230 0.61310 -0.64900
C 	C 	0.64590 0.43080 0.68190 0.54200
C 	C 	0.70060 0.46500 0.71760 -0.14400
C 	C 	0.59680 0.48340 0.74590 0.00300
C 	C 	0.64670 0.51830 0.77840 0.01100
C 	C 	0.71800 0.15930 0.59920 -0.00200
C 	C 	0.71800 0.09250 0.59930 0.00900
H 	H 	0.49130 0.47250 0.74300 0.04400
H 	H 	0.57400 0.53070 0.79770 0.02900
H 	H 	0.77100 0.18200 0.57910 0.04000
H 	H 	0.77220 0.07000 0.57920 0.02800
O 	O 	0.74800 0.91700 0.15680 -0.66400
O 	O 	0.50720 0.91700 0.17920 -0.62800
O 	O 	0.74020 0.79230 0.11310 -0.65000
C 	C 	0.64590 0.93080 0.18190 0.54100
C 	C 	0.70060 0.96500 0.21760 -0.13900
C 	C 	0.59680 0.98340 0.24590 -0.00300
C 	C 	0.64670 0.01830 0.27840 0.01700
C 	C 	0.71800 0.65930 0.09920 -0.00200
C 	C 	0.71800 0.59250 0.09930 0.00900
H 	H 	0.49130 0.97250 0.24300 0.04600
H 	H 	0.57400 0.03070 0.29770 0.02700
H 	H 	0.77100 0.68200 0.07910 0.04000
H 	H 	0.77220 0.57000 0.07920 0.02700
O 	O 	0.75200 0.66700 0.40680 -0.66300
O 	O 	0.99280 0.66700 0.42920 -0.62900
O 	O 	0.75980 0.54230 0.36310 -0.64900
C 	C 	0.85410 0.68080 0.43190 0.54200
C 	C 	0.79940 0.71500 0.46760 -0.14300
C 	C 	0.90320 0.73340 0.49590 -0.00000
C 	C 	0.85330 0.76830 0.52840 0.01200
C 	C 	0.78200 0.40930 0.34920 -0.00200
C 	C 	0.78200 0.34250 0.34930 0.01000
H 	H 	0.00870 0.72250 0.49300 0.04600
H 	H 	0.92600 0.78070 0.54770 0.02800
H 	H 	0.72900 0.43200 0.32910 0.04000
H 	H 	0.72780 0.32000 0.32920 0.02700
O 	O 	0.75200 0.16700 0.90680 -0.66300
O 	O 	0.99280 0.16700 0.92920 -0.62700
O 	O 	0.75980 0.04230 0.86310 -0.64900
C 	C 	0.85410 0.18080 0.93190 0.54400
C 	C 	0.79940 0.21500 0.96760 -0.14800
C 	C 	0.90320 0.23340 0.99590 0.01200
C 	C 	0.85330 0.26830 0.02840 0.00500
C 	C 	0.78200 0.90930 0.84920 -0.00100
C 	C 	0.78200 0.84250 0.84930 0.00900
H 	H 	0.00870 0.22250 0.99300 0.03900
H 	H 	0.92600 0.28070 0.04770 0.03100
H 	H 	0.72900 0.93200 0.82910 0.04000
H 	H 	0.72780 0.82000 0.82920 0.02700
O 	O 	0.25200 0.66700 0.90680 -0.66300
O 	O 	0.49280 0.66700 0.92920 -0.62800
O 	O 	0.25980 0.54230 0.86310 -0.65000
C 	C 	0.35410 0.68080 0.93190 0.54100
C 	C 	0.29940 0.71500 0.96760 -0.14100
C 	C 	0.40320 0.73340 0.99590 -0.00000
C 	C 	0.35330 0.76830 0.02840 0.01400
C 	C 	0.28200 0.40930 0.84920 -0.00200
C 	C 	0.28200 0.34250 0.84930 0.01000
H 	H 	0.50870 0.72250 0.99300 0.04500
H 	H 	0.42600 0.78070 0.04770 0.02800
H 	H 	0.22900 0.43200 0.82910 0.04000
H 	H 	0.22780 0.32000 0.82920 0.02700
O 	O 	0.25200 0.16700 0.40680 -0.66400
O 	O 	0.49280 0.16700 0.42920 -0.62900
O 	O 	0.25980 0.04230 0.36310 -0.65000
C 	C 	0.35410 0.18080 0.43190 0.54300
C 	C 	0.29940 0.21500 0.46760 -0.14600
C 	C 	0.40320 0.23340 0.49590 0.00400
C 	C 	0.35330 0.26830 0.52840 0.00900
C 	C 	0.28200 0.90930 0.34920 -0.00200
C 	C 	0.28200 0.84250 0.34930 0.01000
H 	H 	0.50870 0.22250 0.49300 0.04400
H 	H 	0.42600 0.28070 0.54770 0.03000
H 	H 	0.22900 0.93200 0.32910 0.04100
H 	H 	0.22780 0.82000 0.32920 0.02700
O 	O 	0.49800 0.58300 0.40680 -0.66300
O 	O 	0.25720 0.58300 0.42920 -0.62900
O 	O 	0.49020 0.70770 0.36310 -0.64900
C 	C 	0.39590 0.56920 0.43190 0.54200
C 	C 	0.45060 0.53500 0.46760 -0.14400
C 	C 	0.34680 0.51660 0.49590 0.00300
C 	C 	0.39670 0.48170 0.52840 0.01000
C 	C 	0.46800 0.84070 0.34920 -0.00200
C 	C 	0.46800 0.90750 0.34930 0.00900
H 	H 	0.24130 0.52750 0.49300 0.04400
H 	H 	0.32400 0.46930 0.54770 0.02900
H 	H 	0.52100 0.81800 0.32910 0.04000
H 	H 	0.52220 0.93000 0.32920 0.02700
O 	O 	0.49800 0.08300 0.90680 -0.66300
O 	O 	0.25720 0.08300 0.92920 -0.63000
O 	O 	0.49020 0.20770 0.86310 -0.64900
C 	C 	0.39590 0.06920 0.93190 0.54300
C 	C 	0.45060 0.03500 0.96760 -0.14400
C 	C 	0.34680 0.01660 0.99590 0.00200
C 	C 	0.39670 0.98170 0.02840 0.01200
C 	C 	0.46800 0.34070 0.84920 -0.00200
C 	C 	0.46800 0.40750 0.84930 0.01000
H 	H 	0.24130 0.02750 0.99300 0.04400
H 	H 	0.32400 0.96930 0.04770 0.02900
H 	H 	0.52100 0.31800 0.82910 0.04000
H 	H 	0.52220 0.43000 0.82920 0.02700
O 	O 	0.99800 0.58300 0.90680 -0.66300
O 	O 	0.75720 0.58300 0.92920 -0.62900
O 	O 	0.99020 0.70770 0.86310 -0.64900
C 	C 	0.89590 0.56920 0.93190 0.54200
C 	C 	0.95060 0.53500 0.96760 -0.14300
C 	C 	0.84680 0.51660 0.99590 0.00400
C 	C 	0.89670 0.48170 0.02840 0.00800
C 	C 	0.96800 0.84070 0.84920 -0.00200
C 	C 	0.96800 0.90750 0.84930 0.00900
H 	H 	0.74130 0.52750 0.99300 0.04400
H 	H 	0.82400 0.46930 0.04770 0.03000
H 	H 	0.02100 0.81800 0.82910 0.04100
H 	H 	0.02220 0.93000 0.82920 0.02800
O 	O 	0.99800 0.08300 0.40680 -0.66100
O 	O 	0.75720 0.08300 0.42920 -0.62800
O 	O 	0.99020 0.20770 0.36310 -0.64800
C 	C 	0.89590 0.06920 0.43190 0.54100
C 	C 	0.95060 0.03500 0.46760 -0.14100
C 	C 	0.84680 0.01660 0.49590 0.00700
C 	C 	0.89670 0.98170 0.52840 0.00300
C 	C 	0.96800 0.34070 0.34920 0.00100
C 	C 	0.96800 0.40750 0.34930 0.01000
H 	H 	0.74130 0.02750 0.49300 0.04300
H 	H 	0.82400 0.96930 0.54770 0.03100
H 	H 	0.02100 0.31800 0.32910 0.03800
H 	H 	0.02220 0.43000 0.32920 0.02700
O 	O 	0.49800 0.66700 0.84320 -0.66300
O 	O 	0.25720 0.66700 0.82080 -0.62900
O 	O 	0.49020 0.54230 0.88690 -0.64900
C 	C 	0.39590 0.68080 0.81810 0.54200
C 	C 	0.45060 0.71500 0.78240 -0.14400
C 	C 	0.34680 0.73340 0.75410 0.00300
C 	C 	0.39670 0.76830 0.72160 0.01100
C 	C 	0.46800 0.40930 0.90080 -0.00200
C 	C 	0.46800 0.34250 0.90070 0.01000
H 	H 	0.24130 0.72250 0.75700 0.04400
H 	H 	0.32400 0.78070 0.70230 0.02900
H 	H 	0.52100 0.43200 0.92090 0.04000
H 	H 	0.52220 0.32000 0.92080 0.02700
O 	O 	0.49800 0.16700 0.34320 -0.66300
O 	O 	0.25720 0.16700 0.32080 -0.62900
O 	O 	0.49020 0.04230 0.38690 -0.64900
C 	C 	0.39590 0.18080 0.31810 0.54300
C 	C 	0.45060 0.21500 0.28240 -0.14400
C 	C 	0.34680 0.23340 0.25410 0.00300
C 	C 	0.39670 0.26830 0.22160 0.01000
C 	C 	0.46800 0.90930 0.40080 -0.00200
C 	C 	0.46800 0.84250 0.40070 0.01000
H 	H 	0.24130 0.22250 0.25700 0.04400
H 	H 	0.32400 0.28070 0.20230 0.02900
H 	H 	0.52100 0.93200 0.42090 0.04000
H 	H 	0.52220 0.82000 0.42080 0.02700
O 	O 	0.99800 0.66700 0.34320 -0.66400
O 	O 	0.75720 0.66700 0.32080 -0.62900
O 	O 	0.99020 0.54230 0.38690 -0.64900
C 	C 	0.89590 0.68080 0.31810 0.54400
C 	C 	0.95060 0.71500 0.28240 -0.14900
C 	C 	0.84680 0.73340 0.25410 0.00800
C 	C 	0.89670 0.76830 0.22160 0.00300
C 	C 	0.96800 0.40930 0.40080 -0.00100
C 	C 	0.96800 0.34250 0.40070 0.01200
H 	H 	0.74130 0.72250 0.25700 0.04300
H 	H 	0.82400 0.78070 0.20230 0.03100
H 	H 	0.02100 0.43200 0.42090 0.03900
H 	H 	0.02220 0.32000 0.42080 0.02500
O 	O 	0.99800 0.16700 0.84320 -0.66100
O 	O 	0.75720 0.16700 0.82080 -0.62800
O 	O 	0.99020 0.04230 0.88690 -0.64800
C 	C 	0.89590 0.18080 0.81810 0.54100
C 	C 	0.95060 0.21500 0.78240 -0.13800
C 	C 	0.84680 0.23340 0.75410 -0.00100
C 	C 	0.89670 0.26830 0.72160 0.01500
C 	C 	0.96800 0.90930 0.90080 -0.00300
C 	C 	0.96800 0.84250 0.90070 0.00900
H 	H 	0.74130 0.22250 0.75700 0.04600
H 	H 	0.82400 0.28070 0.70230 0.02800
H 	H 	0.02100 0.93200 0.92090 0.04100
H 	H 	0.02220 0.82000 0.92080 0.02800
O 	O 	0.75200 0.58300 0.84320 -0.66300
O 	O 	0.99280 0.58300 0.82080 -0.62800
O 	O 	0.75980 0.70770 0.88690 -0.64900
C 	C 	0.85410 0.56920 0.81810 0.54300
C 	C 	0.79940 0.53500 0.78240 -0.14500
C 	C 	0.90320 0.51660 0.75410 0.00400
C 	C 	0.85330 0.48170 0.72160 0.01000
C 	C 	0.78200 0.84070 0.90080 -0.00300
C 	C 	0.78200 0.90750 0.90070 0.01100
H 	H 	0.00870 0.52750 0.75700 0.04300
H 	H 	0.92600 0.46930 0.70230 0.02900
H 	H 	0.72900 0.81800 0.92090 0.04000
H 	H 	0.72780 0.93000 0.92080 0.02700
O 	O 	0.75200 0.08300 0.34320 -0.66400
O 	O 	0.99280 0.08300 0.32080 -0.62800
O 	O 	0.75980 0.20770 0.38690 -0.64900
C 	C 	0.85410 0.06920 0.31810 0.54500
C 	C 	0.79940 0.03500 0.28240 -0.15000
C 	C 	0.90320 0.01660 0.25410 0.01600
C 	C 	0.85330 0.98170 0.22160 0.00000
C 	C 	0.78200 0.34070 0.40080 -0.00200
C 	C 	0.78200 0.40750 0.40070 0.00900
H 	H 	0.00870 0.02750 0.25700 0.03800
H 	H 	0.92600 0.96930 0.20230 0.03100
H 	H 	0.72900 0.31800 0.42090 0.04000
H 	H 	0.72780 0.43000 0.42080 0.02800
O 	O 	0.25200 0.58300 0.34320 -0.66300
O 	O 	0.49280 0.58300 0.32080 -0.62900
O 	O 	0.25980 0.70770 0.38690 -0.64900
C 	C 	0.35410 0.56920 0.31810 0.54200
C 	C 	0.29940 0.53500 0.28240 -0.14400
C 	C 	0.40320 0.51660 0.25410 0.00300
C 	C 	0.35330 0.48170 0.22160 0.01100
C 	C 	0.28200 0.84070 0.40080 -0.00200
C 	C 	0.28200 0.90750 0.40070 0.00900
H 	H 	0.50870 0.52750 0.25700 0.04400
H 	H 	0.42600 0.46930 0.20230 0.02900
H 	H 	0.22900 0.81800 0.42090 0.04000
H 	H 	0.22780 0.93000 0.42080 0.02800
O 	O 	0.25200 0.08300 0.84320 -0.66400
O 	O 	0.49280 0.08300 0.82080 -0.62800
O 	O 	0.25980 0.20770 0.88690 -0.65000
C 	C 	0.35410 0.06920 0.81810 0.54100
C 	C 	0.29940 0.03500 0.78240 -0.13900
C 	C 	0.40320 0.01660 0.75410 -0.00300
C 	C 	0.35330 0.98170 0.72160 0.01700
C 	C 	0.28200 0.34070 0.90080 -0.00200
C 	C 	0.28200 0.40750 0.90070 0.00900
H 	H 	0.50870 0.02750 0.75700 0.04600
H 	H 	0.42600 0.96930 0.70230 0.02700
H 	H 	0.22900 0.31800 0.92090 0.04000
H 	H 	0.22780 0.43000 0.92080 0.02700
Sc	Sc	0.37500 0.37500 0.63608 2.35300
Sc	Sc	0.37500 0.87500 0.13608 2.35300
Sc	Sc	0.87500 0.37500 0.13608 2.35300
Sc	Sc	0.87500 0.87500 0.63608 2.35300
Sc	Sc	0.37500 0.37500 0.11392 2.35300
Sc	Sc	0.37500 0.87500 0.61392 2.35300
Sc	Sc	0.87500 0.37500 0.61392 2.35300
Sc	Sc	0.87500 0.87500 0.11392 2.35200
Sc	Sc	0.62500 0.62500 0.36392 2.35300
Sc	Sc	0.62500 0.12500 0.86392 2.35300
Sc	Sc	0.12500 0.62500 0.86392 2.35300
Sc	Sc	0.12500 0.12500 0.36392 2.35300
Sc	Sc	0.62500 0.62500 0.88608 2.35300
Sc	Sc	0.62500 0.12500 0.38608 2.35300
Sc	Sc	0.12500 0.62500 0.38608 2.35300
Sc	Sc	0.12500 0.12500 0.88608 2.35200
C 	C 	0.12500 0.48590 0.62500 0.57800
C 	C 	0.12500 0.55800 0.62500 -0.16900
C 	C 	0.12500 0.98590 0.12500 0.58000
C 	C 	0.12500 0.05800 0.12500 -0.17100
C 	C 	0.62500 0.98590 0.62500 0.57700
C 	C 	0.62500 0.05800 0.62500 -0.16800
C 	C 	0.62500 0.26410 0.62500 0.57800
C 	C 	0.62500 0.19200 0.62500 -0.16900
C 	C 	0.62500 0.76410 0.12500 0.57800
C 	C 	0.62500 0.69200 0.12500 -0.16900
C 	C 	0.62500 0.48590 0.12500 0.57800
C 	C 	0.62500 0.55800 0.12500 -0.16900
C 	C 	0.12500 0.26410 0.12500 0.57800
C 	C 	0.12500 0.19200 0.12500 -0.16800
C 	C 	0.12500 0.76410 0.62500 0.57900
C 	C 	0.12500 0.69200 0.62500 -0.17000
C 	C 	0.87500 0.51410 0.37500 0.57800
C 	C 	0.87500 0.44200 0.37500 -0.16900
C 	C 	0.87500 0.01410 0.87500 0.58000
C 	C 	0.87500 0.94200 0.87500 -0.17100
C 	C 	0.37500 0.73590 0.37500 0.57800
C 	C 	0.37500 0.80800 0.37500 -0.16900
C 	C 	0.37500 0.23590 0.87500 0.57800
C 	C 	0.37500 0.30800 0.87500 -0.16900
C 	C 	0.37500 0.51410 0.87500 0.57800
C 	C 	0.37500 0.44200 0.87500 -0.16900
C 	C 	0.37500 0.01410 0.37500 0.57700
C 	C 	0.37500 0.94200 0.37500 -0.16800
C 	C 	0.87500 0.73590 0.87500 0.57800
C 	C 	0.87500 0.80800 0.87500 -0.16800
C 	C 	0.87500 0.23590 0.37500 0.57900
C 	C 	0.87500 0.30800 0.37500 -0.17000
