data_crystal

_cell_length_a 8.77900
_cell_length_b 20.74200
_cell_length_c 34.28700
_cell_angle_alpha 90.00000
_cell_angle_beta  90.00000
_cell_angle_gamma 90.00000

_symmetry_space_group_name_	'P 1'
_symmetry_space_group_name_H-M	'P 1'

loop_
_symmetry_equiv_pos_as_xyz
  x,y,z

loop_
_atom_site_label
_atom_site_type_symbol
_atom_site_fract_x
_atom_site_fract_y
_atom_site_fract_z
_atom_site_charge
O 	O 	0.24470 0.33510 0.59290 -0.66800
O 	O 	0.00540 0.33210 0.57090 -0.63200
O 	O 	0.24120 0.45730 0.63650 -0.64100
C 	C 	0.14500 0.32150 0.56850 0.55000
C 	C 	0.20000 0.28600 0.53310 -0.14900
C 	C 	0.10300 0.26560 0.50480 0.00000
C 	C 	0.15800 0.23080 0.47130 0.02200
C 	C 	0.24040 0.58860 0.64530 -0.06900
C 	C 	0.23400 0.65550 0.64410 0.06600
H 	H 	0.99710 0.27540 0.50680 0.04600
H 	H 	0.08630 0.21870 0.45180 0.02500
H 	H 	0.31670 0.56610 0.65920 0.06400
H 	H 	0.31120 0.67860 0.65810 0.01000
O 	O 	0.24470 0.83510 0.09290 -0.66800
O 	O 	0.00540 0.83210 0.07090 -0.62900
O 	O 	0.24120 0.95730 0.13650 -0.64000
C 	C 	0.14500 0.82150 0.06850 0.55300
C 	C 	0.20000 0.78600 0.03310 -0.15500
C 	C 	0.10300 0.76560 0.00480 0.01200
C 	C 	0.15800 0.73080 0.97130 0.01500
C 	C 	0.24040 0.08860 0.14530 -0.07000
C 	C 	0.23400 0.15550 0.14410 0.06600
H 	H 	0.99710 0.77540 0.00680 0.04000
H 	H 	0.08630 0.71870 0.95180 0.02900
H 	H 	0.31670 0.06610 0.15920 0.06400
H 	H 	0.31120 0.17860 0.15810 0.01000
O 	O 	0.74470 0.33510 0.09290 -0.66700
O 	O 	0.50540 0.33210 0.07090 -0.63000
O 	O 	0.74120 0.45730 0.13650 -0.64100
C 	C 	0.64500 0.32150 0.06850 0.55000
C 	C 	0.70000 0.28600 0.03310 -0.14800
C 	C 	0.60300 0.26560 0.00480 0.00000
C 	C 	0.65800 0.23080 0.97130 0.02400
C 	C 	0.74040 0.58860 0.14530 -0.07000
C 	C 	0.73400 0.65550 0.14410 0.06600
H 	H 	0.49710 0.27540 0.00680 0.04600
H 	H 	0.58630 0.21870 0.95180 0.02600
H 	H 	0.81670 0.56610 0.15920 0.06400
H 	H 	0.81120 0.67860 0.15810 0.01000
O 	O 	0.74470 0.83510 0.59290 -0.66800
O 	O 	0.50540 0.83210 0.57090 -0.63100
O 	O 	0.74120 0.95730 0.63650 -0.64100
C 	C 	0.64500 0.82150 0.56850 0.55200
C 	C 	0.70000 0.78600 0.53310 -0.15300
C 	C 	0.60300 0.76560 0.50480 0.00500
C 	C 	0.65800 0.73080 0.47130 0.01900
C 	C 	0.74040 0.08860 0.64530 -0.07000
C 	C 	0.73400 0.15550 0.64410 0.06600
H 	H 	0.49710 0.77540 0.50680 0.04400
H 	H 	0.58630 0.71870 0.45180 0.02700
H 	H 	0.81670 0.06610 0.65920 0.06500
H 	H 	0.81120 0.17860 0.65810 0.01000
O 	O 	0.50530 0.41490 0.59290 -0.66700
O 	O 	0.74460 0.41790 0.57090 -0.63100
O 	O 	0.50880 0.29270 0.63650 -0.64000
C 	C 	0.60500 0.42850 0.56850 0.55200
C 	C 	0.55000 0.46400 0.53310 -0.15100
C 	C 	0.64700 0.48440 0.50480 0.00400
C 	C 	0.59200 0.51920 0.47130 0.02000
C 	C 	0.50960 0.16140 0.64530 -0.07000
C 	C 	0.51600 0.09450 0.64410 0.06600
H 	H 	0.75290 0.47460 0.50680 0.04500
H 	H 	0.66370 0.53130 0.45180 0.02700
H 	H 	0.43330 0.18390 0.65920 0.06400
H 	H 	0.43880 0.07140 0.65810 0.01000
O 	O 	0.50530 0.91490 0.09290 -0.66800
O 	O 	0.74460 0.91790 0.07090 -0.63200
O 	O 	0.50880 0.79270 0.13650 -0.64000
C 	C 	0.60500 0.92850 0.06850 0.55200
C 	C 	0.55000 0.96400 0.03310 -0.15200
C 	C 	0.64700 0.98440 0.00480 0.00300
C 	C 	0.59200 0.01920 0.97130 0.02200
C 	C 	0.50960 0.66140 0.14530 -0.07000
C 	C 	0.51600 0.59450 0.14410 0.06600
H 	H 	0.75290 0.97460 0.00680 0.04400
H 	H 	0.66370 0.03130 0.95180 0.02700
H 	H 	0.43330 0.68390 0.15920 0.06500
H 	H 	0.43880 0.57140 0.15810 0.01000
O 	O 	0.00530 0.41490 0.09290 -0.66700
O 	O 	0.24460 0.41790 0.07090 -0.63100
O 	O 	0.00880 0.29270 0.13650 -0.64000
C 	C 	0.10500 0.42850 0.06850 0.55100
C 	C 	0.05000 0.46400 0.03310 -0.15000
C 	C 	0.14700 0.48440 0.00480 0.00500
C 	C 	0.09200 0.51920 0.97130 0.01800
C 	C 	0.00960 0.16140 0.14530 -0.07100
C 	C 	0.01600 0.09450 0.14410 0.06600
H 	H 	0.25290 0.47460 0.00680 0.04400
H 	H 	0.16370 0.53130 0.95180 0.02700
H 	H 	0.93330 0.18390 0.15920 0.06500
H 	H 	0.93880 0.07140 0.15810 0.01100
O 	O 	0.00530 0.91490 0.59290 -0.66600
O 	O 	0.24460 0.91790 0.57090 -0.63000
O 	O 	0.00880 0.79270 0.63650 -0.63900
C 	C 	0.10500 0.92850 0.56850 0.55000
C 	C 	0.05000 0.96400 0.53310 -0.14700
C 	C 	0.14700 0.98440 0.50480 0.00700
C 	C 	0.09200 0.01920 0.47130 0.01300
C 	C 	0.00960 0.66140 0.64530 -0.06600
C 	C 	0.01600 0.59450 0.64410 0.06500
H 	H 	0.25290 0.97460 0.50680 0.04400
H 	H 	0.16370 0.03130 0.45180 0.02900
H 	H 	0.93330 0.68390 0.65920 0.06200
H 	H 	0.93880 0.57140 0.65810 0.01000
O 	O 	0.50530 0.33510 0.15710 -0.66700
O 	O 	0.74460 0.33210 0.17910 -0.63100
O 	O 	0.50880 0.45730 0.11350 -0.64000
C 	C 	0.60500 0.32150 0.18150 0.55200
C 	C 	0.55000 0.28600 0.21690 -0.15100
C 	C 	0.64700 0.26560 0.24520 0.00400
C 	C 	0.59200 0.23080 0.27870 0.02100
C 	C 	0.50960 0.58860 0.10470 -0.07000
C 	C 	0.51600 0.65550 0.10590 0.06600
H 	H 	0.75290 0.27540 0.24320 0.04500
H 	H 	0.66370 0.21870 0.29820 0.02700
H 	H 	0.43330 0.56610 0.09080 0.06500
H 	H 	0.43880 0.67860 0.09190 0.01000
O 	O 	0.50530 0.83510 0.65710 -0.66800
O 	O 	0.74460 0.83210 0.67910 -0.63100
O 	O 	0.50880 0.95730 0.61350 -0.64000
C 	C 	0.60500 0.82150 0.68150 0.55200
C 	C 	0.55000 0.78600 0.71690 -0.15100
C 	C 	0.64700 0.76560 0.74520 0.00400
C 	C 	0.59200 0.73080 0.77870 0.02000
C 	C 	0.50960 0.08860 0.60470 -0.07000
C 	C 	0.51600 0.15550 0.60590 0.06600
H 	H 	0.75290 0.77540 0.74320 0.04400
H 	H 	0.66370 0.71870 0.79820 0.02700
H 	H 	0.43330 0.06610 0.59080 0.06400
H 	H 	0.43880 0.17860 0.59190 0.01000
O 	O 	0.00530 0.33510 0.65710 -0.66800
O 	O 	0.24460 0.33210 0.67910 -0.63100
O 	O 	0.00880 0.45730 0.61350 -0.64000
C 	C 	0.10500 0.32150 0.68150 0.55400
C 	C 	0.05000 0.28600 0.71690 -0.15700
C 	C 	0.14700 0.26560 0.74520 0.00900
C 	C 	0.09200 0.23080 0.77870 0.01200
C 	C 	0.00960 0.58860 0.60470 -0.06800
C 	C 	0.01600 0.65550 0.60590 0.06700
H 	H 	0.25290 0.27540 0.74320 0.04300
H 	H 	0.16370 0.21870 0.79820 0.02900
H 	H 	0.93330 0.56610 0.59080 0.06300
H 	H 	0.93880 0.67860 0.59190 0.00900
O 	O 	0.00530 0.83510 0.15710 -0.66500
O 	O 	0.24460 0.83210 0.17910 -0.63000
O 	O 	0.00880 0.95730 0.11350 -0.63900
C 	C 	0.10500 0.82150 0.18150 0.54900
C 	C 	0.05000 0.78600 0.21690 -0.14400
C 	C 	0.14700 0.76560 0.24520 -0.00100
C 	C 	0.09200 0.73080 0.27870 0.02700
C 	C 	0.00960 0.08860 0.10470 -0.07100
C 	C 	0.01600 0.15550 0.10590 0.06600
H 	H 	0.25290 0.77540 0.24320 0.04600
H 	H 	0.16370 0.71870 0.29820 0.02500
H 	H 	0.93330 0.06610 0.09080 0.06500
H 	H 	0.93880 0.17860 0.09190 0.01000
O 	O 	0.24470 0.41490 0.15710 -0.66700
O 	O 	0.00540 0.41790 0.17910 -0.63000
O 	O 	0.24120 0.29270 0.11350 -0.64000
C 	C 	0.14500 0.42850 0.18150 0.55200
C 	C 	0.20000 0.46400 0.21690 -0.15200
C 	C 	0.10300 0.48440 0.24520 0.00500
C 	C 	0.15800 0.51920 0.27870 0.02000
C 	C 	0.24040 0.16140 0.10470 -0.07100
C 	C 	0.23400 0.09450 0.10590 0.06700
H 	H 	0.99710 0.47460 0.24320 0.04400
H 	H 	0.08630 0.53130 0.29820 0.02700
H 	H 	0.31670 0.18390 0.09080 0.06500
H 	H 	0.31120 0.07140 0.09190 0.01000
O 	O 	0.24470 0.91490 0.65710 -0.66800
O 	O 	0.00540 0.91790 0.67910 -0.63000
O 	O 	0.24120 0.79270 0.61350 -0.64000
C 	C 	0.14500 0.92850 0.68150 0.55400
C 	C 	0.20000 0.96400 0.71690 -0.15800
C 	C 	0.10300 0.98440 0.74520 0.01700
C 	C 	0.15800 0.01920 0.77870 0.01000
C 	C 	0.24040 0.66140 0.60470 -0.06900
C 	C 	0.23400 0.59450 0.60590 0.06500
H 	H 	0.99710 0.97460 0.74320 0.03800
H 	H 	0.08630 0.03130 0.79820 0.02900
H 	H 	0.31670 0.68390 0.59080 0.06400
H 	H 	0.31120 0.57140 0.59190 0.01100
O 	O 	0.74470 0.41490 0.65710 -0.66700
O 	O 	0.50540 0.41790 0.67910 -0.63100
O 	O 	0.74120 0.29270 0.61350 -0.64000
C 	C 	0.64500 0.42850 0.68150 0.55200
C 	C 	0.70000 0.46400 0.71690 -0.15100
C 	C 	0.60300 0.48440 0.74520 0.00300
C 	C 	0.65800 0.51920 0.77870 0.02100
C 	C 	0.74040 0.16140 0.60470 -0.07000
C 	C 	0.73400 0.09450 0.60590 0.06600
H 	H 	0.49710 0.47460 0.74320 0.04500
H 	H 	0.58630 0.53130 0.79820 0.02700
H 	H 	0.81670 0.18390 0.59080 0.06500
H 	H 	0.81120 0.07140 0.59190 0.01100
O 	O 	0.74470 0.91490 0.15710 -0.66800
O 	O 	0.50540 0.91790 0.17910 -0.63000
O 	O 	0.74120 0.79270 0.11350 -0.64100
C 	C 	0.64500 0.92850 0.18150 0.54900
C 	C 	0.70000 0.96400 0.21690 -0.14500
C 	C 	0.60300 0.98440 0.24520 -0.00300
C 	C 	0.65800 0.01920 0.27870 0.02800
C 	C 	0.74040 0.66140 0.10470 -0.07000
C 	C 	0.73400 0.59450 0.10590 0.06600
H 	H 	0.49710 0.97460 0.24320 0.04700
H 	H 	0.58630 0.03130 0.29820 0.02500
H 	H 	0.81670 0.68390 0.09080 0.06400
H 	H 	0.81120 0.57140 0.09190 0.01000
O 	O 	0.75530 0.66490 0.40710 -0.66700
O 	O 	0.99460 0.66790 0.42910 -0.63100
O 	O 	0.75880 0.54270 0.36350 -0.64000
C 	C 	0.85500 0.67850 0.43150 0.55100
C 	C 	0.80000 0.71400 0.46690 -0.14900
C 	C 	0.89700 0.73440 0.49520 0.00000
C 	C 	0.84200 0.76920 0.52870 0.02200
C 	C 	0.75960 0.41140 0.35470 -0.06900
C 	C 	0.76600 0.34450 0.35590 0.06600
H 	H 	0.00290 0.72460 0.49320 0.04600
H 	H 	0.91370 0.78130 0.54820 0.02500
H 	H 	0.68330 0.43390 0.34080 0.06400
H 	H 	0.68880 0.32140 0.34190 0.01000
O 	O 	0.75530 0.16490 0.90710 -0.66800
O 	O 	0.99460 0.16790 0.92910 -0.62900
O 	O 	0.75880 0.04270 0.86350 -0.64000
C 	C 	0.85500 0.17850 0.93150 0.55300
C 	C 	0.80000 0.21400 0.96690 -0.15500
C 	C 	0.89700 0.23440 0.99520 0.01200
C 	C 	0.84200 0.26920 0.02870 0.01500
C 	C 	0.75960 0.91140 0.85470 -0.07000
C 	C 	0.76600 0.84450 0.85590 0.06600
H 	H 	0.00290 0.22460 0.99320 0.04000
H 	H 	0.91370 0.28130 0.04820 0.02900
H 	H 	0.68330 0.93390 0.84080 0.06400
H 	H 	0.68880 0.82140 0.84190 0.01000
O 	O 	0.25530 0.66490 0.90710 -0.66700
O 	O 	0.49460 0.66790 0.92910 -0.63000
O 	O 	0.25880 0.54270 0.86350 -0.64100
C 	C 	0.35500 0.67850 0.93150 0.55000
C 	C 	0.30000 0.71400 0.96690 -0.14800
C 	C 	0.39700 0.73440 0.99520 0.00000
C 	C 	0.34200 0.76920 0.02870 0.02400
C 	C 	0.25960 0.41140 0.85470 -0.07000
C 	C 	0.26600 0.34450 0.85590 0.06600
H 	H 	0.50290 0.72460 0.99320 0.04600
H 	H 	0.41370 0.78130 0.04820 0.02600
H 	H 	0.18330 0.43390 0.84080 0.06400
H 	H 	0.18880 0.32140 0.84190 0.01000
O 	O 	0.25530 0.16490 0.40710 -0.66800
O 	O 	0.49460 0.16790 0.42910 -0.63100
O 	O 	0.25880 0.04270 0.36350 -0.64100
C 	C 	0.35500 0.17850 0.43150 0.55200
C 	C 	0.30000 0.21400 0.46690 -0.15300
C 	C 	0.39700 0.23440 0.49520 0.00500
C 	C 	0.34200 0.26920 0.52870 0.01900
C 	C 	0.25960 0.91140 0.35470 -0.07000
C 	C 	0.26600 0.84450 0.35590 0.06600
H 	H 	0.50290 0.22460 0.49320 0.04400
H 	H 	0.41370 0.28130 0.54820 0.02700
H 	H 	0.18330 0.93390 0.34080 0.06500
H 	H 	0.18880 0.82140 0.34190 0.01000
O 	O 	0.49470 0.58510 0.40710 -0.66700
O 	O 	0.25540 0.58210 0.42910 -0.63100
O 	O 	0.49120 0.70730 0.36350 -0.64000
C 	C 	0.39500 0.57150 0.43150 0.55200
C 	C 	0.45000 0.53600 0.46690 -0.15100
C 	C 	0.35300 0.51560 0.49520 0.00400
C 	C 	0.40800 0.48080 0.52870 0.02000
C 	C 	0.49040 0.83860 0.35470 -0.07000
C 	C 	0.48400 0.90550 0.35590 0.06600
H 	H 	0.24710 0.52540 0.49320 0.04500
H 	H 	0.33630 0.46870 0.54820 0.02700
H 	H 	0.56670 0.81610 0.34080 0.06400
H 	H 	0.56120 0.92860 0.34190 0.01000
O 	O 	0.49470 0.08510 0.90710 -0.66800
O 	O 	0.25540 0.08210 0.92910 -0.63200
O 	O 	0.49120 0.20730 0.86350 -0.64000
C 	C 	0.39500 0.07150 0.93150 0.55200
C 	C 	0.45000 0.03600 0.96690 -0.15200
C 	C 	0.35300 0.01560 0.99520 0.00300
C 	C 	0.40800 0.98080 0.02870 0.02200
C 	C 	0.49040 0.33860 0.85470 -0.07000
C 	C 	0.48400 0.40550 0.85590 0.06600
H 	H 	0.24710 0.02540 0.99320 0.04400
H 	H 	0.33630 0.96870 0.04820 0.02700
H 	H 	0.56670 0.31610 0.84080 0.06500
H 	H 	0.56120 0.42860 0.84190 0.01000
O 	O 	0.99470 0.58510 0.90710 -0.66700
O 	O 	0.75540 0.58210 0.92910 -0.63100
O 	O 	0.99120 0.70730 0.86350 -0.64000
C 	C 	0.89500 0.57150 0.93150 0.55100
C 	C 	0.95000 0.53600 0.96690 -0.15000
C 	C 	0.85300 0.51560 0.99520 0.00500
C 	C 	0.90800 0.48080 0.02870 0.01800
C 	C 	0.99040 0.83860 0.85470 -0.07100
C 	C 	0.98400 0.90550 0.85590 0.06600
H 	H 	0.74710 0.52540 0.99320 0.04400
H 	H 	0.83630 0.46870 0.04820 0.02700
H 	H 	0.06670 0.81610 0.84080 0.06500
H 	H 	0.06120 0.92860 0.84190 0.01100
O 	O 	0.99470 0.08510 0.40710 -0.66600
O 	O 	0.75540 0.08210 0.42910 -0.63000
O 	O 	0.99120 0.20730 0.36350 -0.63900
C 	C 	0.89500 0.07150 0.43150 0.55000
C 	C 	0.95000 0.03600 0.46690 -0.14700
C 	C 	0.85300 0.01560 0.49520 0.00700
C 	C 	0.90800 0.98080 0.52870 0.01300
C 	C 	0.99040 0.33860 0.35470 -0.06600
C 	C 	0.98400 0.40550 0.35590 0.06500
H 	H 	0.74710 0.02540 0.49320 0.04400
H 	H 	0.83630 0.96870 0.54820 0.02900
H 	H 	0.06670 0.31610 0.34080 0.06200
H 	H 	0.06120 0.42860 0.34190 0.01000
O 	O 	0.49470 0.66490 0.84290 -0.66700
O 	O 	0.25540 0.66790 0.82090 -0.63100
O 	O 	0.49120 0.54270 0.88650 -0.64000
C 	C 	0.39500 0.67850 0.81850 0.55200
C 	C 	0.45000 0.71400 0.78310 -0.15100
C 	C 	0.35300 0.73440 0.75480 0.00400
C 	C 	0.40800 0.76920 0.72130 0.02100
C 	C 	0.49040 0.41140 0.89530 -0.07000
C 	C 	0.48400 0.34450 0.89410 0.06600
H 	H 	0.24710 0.72460 0.75680 0.04500
H 	H 	0.33630 0.78130 0.70180 0.02700
H 	H 	0.56670 0.43390 0.90920 0.06500
H 	H 	0.56120 0.32140 0.90810 0.01000
O 	O 	0.49470 0.16490 0.34290 -0.66800
O 	O 	0.25540 0.16790 0.32090 -0.63100
O 	O 	0.49120 0.04270 0.38650 -0.64000
C 	C 	0.39500 0.17850 0.31850 0.55200
C 	C 	0.45000 0.21400 0.28310 -0.15100
C 	C 	0.35300 0.23440 0.25480 0.00400
C 	C 	0.40800 0.26920 0.22130 0.02000
C 	C 	0.49040 0.91140 0.39530 -0.07000
C 	C 	0.48400 0.84450 0.39410 0.06600
H 	H 	0.24710 0.22460 0.25680 0.04400
H 	H 	0.33630 0.28130 0.20180 0.02700
H 	H 	0.56670 0.93390 0.40920 0.06400
H 	H 	0.56120 0.82140 0.40810 0.01000
O 	O 	0.99470 0.66490 0.34290 -0.66800
O 	O 	0.75540 0.66790 0.32090 -0.63100
O 	O 	0.99120 0.54270 0.38650 -0.64000
C 	C 	0.89500 0.67850 0.31850 0.55400
C 	C 	0.95000 0.71400 0.28310 -0.15700
C 	C 	0.85300 0.73440 0.25480 0.00900
C 	C 	0.90800 0.76920 0.22130 0.01200
C 	C 	0.99040 0.41140 0.39530 -0.06800
C 	C 	0.98400 0.34450 0.39410 0.06700
H 	H 	0.74710 0.72460 0.25680 0.04300
H 	H 	0.83630 0.78130 0.20180 0.02900
H 	H 	0.06670 0.43390 0.40920 0.06300
H 	H 	0.06120 0.32140 0.40810 0.00900
O 	O 	0.99470 0.16490 0.84290 -0.66500
O 	O 	0.75540 0.16790 0.82090 -0.63000
O 	O 	0.99120 0.04270 0.88650 -0.63900
C 	C 	0.89500 0.17850 0.81850 0.54900
C 	C 	0.95000 0.21400 0.78310 -0.14400
C 	C 	0.85300 0.23440 0.75480 -0.00100
C 	C 	0.90800 0.26920 0.72130 0.02700
C 	C 	0.99040 0.91140 0.89530 -0.07100
C 	C 	0.98400 0.84450 0.89410 0.06600
H 	H 	0.74710 0.22460 0.75680 0.04600
H 	H 	0.83630 0.28130 0.70180 0.02500
H 	H 	0.06670 0.93390 0.90920 0.06500
H 	H 	0.06120 0.82140 0.90810 0.01000
O 	O 	0.75530 0.58510 0.84290 -0.66700
O 	O 	0.99460 0.58210 0.82090 -0.63000
O 	O 	0.75880 0.70730 0.88650 -0.64000
C 	C 	0.85500 0.57150 0.81850 0.55200
C 	C 	0.80000 0.53600 0.78310 -0.15200
C 	C 	0.89700 0.51560 0.75480 0.00500
C 	C 	0.84200 0.48080 0.72130 0.02000
C 	C 	0.75960 0.83860 0.89530 -0.07100
C 	C 	0.76600 0.90550 0.89410 0.06700
H 	H 	0.00290 0.52540 0.75680 0.04400
H 	H 	0.91370 0.46870 0.70180 0.02700
H 	H 	0.68330 0.81610 0.90920 0.06500
H 	H 	0.68880 0.92860 0.90810 0.01000
O 	O 	0.75530 0.08510 0.34290 -0.66800
O 	O 	0.99460 0.08210 0.32090 -0.63000
O 	O 	0.75880 0.20730 0.38650 -0.64000
C 	C 	0.85500 0.07150 0.31850 0.55400
C 	C 	0.80000 0.03600 0.28310 -0.15800
C 	C 	0.89700 0.01560 0.25480 0.01700
C 	C 	0.84200 0.98080 0.22130 0.01000
C 	C 	0.75960 0.33860 0.39530 -0.06900
C 	C 	0.76600 0.40550 0.39410 0.06500
H 	H 	0.00290 0.02540 0.25680 0.03800
H 	H 	0.91370 0.96870 0.20180 0.02900
H 	H 	0.68330 0.31610 0.40920 0.06400
H 	H 	0.68880 0.42860 0.40810 0.01100
O 	O 	0.25530 0.58510 0.34290 -0.66700
O 	O 	0.49460 0.58210 0.32090 -0.63100
O 	O 	0.25880 0.70730 0.38650 -0.64000
C 	C 	0.35500 0.57150 0.31850 0.55200
C 	C 	0.30000 0.53600 0.28310 -0.15100
C 	C 	0.39700 0.51560 0.25480 0.00300
C 	C 	0.34200 0.48080 0.22130 0.02100
C 	C 	0.25960 0.83860 0.39530 -0.07000
C 	C 	0.26600 0.90550 0.39410 0.06600
H 	H 	0.50290 0.52540 0.25680 0.04500
H 	H 	0.41370 0.46870 0.20180 0.02700
H 	H 	0.18330 0.81610 0.40920 0.06500
H 	H 	0.18880 0.92860 0.40810 0.01100
O 	O 	0.25530 0.08510 0.84290 -0.66800
O 	O 	0.49460 0.08210 0.82090 -0.63000
O 	O 	0.25880 0.20730 0.88650 -0.64100
C 	C 	0.35500 0.07150 0.81850 0.54900
C 	C 	0.30000 0.03600 0.78310 -0.14500
C 	C 	0.39700 0.01560 0.75480 -0.00300
C 	C 	0.34200 0.98080 0.72130 0.02800
C 	C 	0.25960 0.33860 0.89530 -0.07000
C 	C 	0.26600 0.40550 0.89410 0.06600
H 	H 	0.50290 0.02540 0.75680 0.04700
H 	H 	0.41370 0.96870 0.70180 0.02500
H 	H 	0.18330 0.31610 0.90920 0.06400
H 	H 	0.18880 0.42860 0.90810 0.01000
Sc	Sc	0.37500 0.37500 0.63628 2.35200
Sc	Sc	0.37500 0.87500 0.13628 2.35200
Sc	Sc	0.87500 0.37500 0.13628 2.35200
Sc	Sc	0.87500 0.87500 0.63628 2.35200
Sc	Sc	0.37500 0.37500 0.11372 2.35200
Sc	Sc	0.37500 0.87500 0.61372 2.35200
Sc	Sc	0.87500 0.37500 0.61372 2.35200
Sc	Sc	0.87500 0.87500 0.11372 2.35200
Sc	Sc	0.62500 0.62500 0.36372 2.35200
Sc	Sc	0.62500 0.12500 0.86372 2.35200
Sc	Sc	0.12500 0.62500 0.86372 2.35200
Sc	Sc	0.12500 0.12500 0.36372 2.35200
Sc	Sc	0.62500 0.62500 0.88628 2.35200
Sc	Sc	0.62500 0.12500 0.38628 2.35200
Sc	Sc	0.12500 0.62500 0.38628 2.35200
Sc	Sc	0.12500 0.12500 0.88628 2.35200
C 	C 	0.12500 0.48640 0.62500 0.55300
C 	C 	0.12500 0.55760 0.62500 -0.16200
C 	C 	0.12500 0.98640 0.12500 0.55500
C 	C 	0.12500 0.05760 0.12500 -0.16400
C 	C 	0.62500 0.98640 0.62500 0.55200
C 	C 	0.62500 0.05760 0.62500 -0.16100
C 	C 	0.62500 0.26360 0.62500 0.55300
C 	C 	0.62500 0.19240 0.62500 -0.16200
C 	C 	0.62500 0.76360 0.12500 0.55300
C 	C 	0.62500 0.69240 0.12500 -0.16200
C 	C 	0.62500 0.48640 0.12500 0.55200
C 	C 	0.62500 0.55760 0.12500 -0.16200
C 	C 	0.12500 0.26360 0.12500 0.55200
C 	C 	0.12500 0.19240 0.12500 -0.16100
C 	C 	0.12500 0.76360 0.62500 0.55300
C 	C 	0.12500 0.69240 0.62500 -0.16300
C 	C 	0.87500 0.51360 0.37500 0.55300
C 	C 	0.87500 0.44240 0.37500 -0.16200
C 	C 	0.87500 0.01360 0.87500 0.55500
C 	C 	0.87500 0.94240 0.87500 -0.16400
C 	C 	0.37500 0.73640 0.37500 0.55300
C 	C 	0.37500 0.80760 0.37500 -0.16200
C 	C 	0.37500 0.23640 0.87500 0.55300
C 	C 	0.37500 0.30760 0.87500 -0.16200
C 	C 	0.37500 0.51360 0.87500 0.55200
C 	C 	0.37500 0.44240 0.87500 -0.16200
C 	C 	0.37500 0.01360 0.37500 0.55200
C 	C 	0.37500 0.94240 0.37500 -0.16100
C 	C 	0.87500 0.73640 0.87500 0.55200
C 	C 	0.87500 0.80760 0.87500 -0.16100
C 	C 	0.87500 0.23640 0.37500 0.55300
C 	C 	0.87500 0.30760 0.37500 -0.16300
