data_crystal

_cell_length_a 8.77900
_cell_length_b 20.74200
_cell_length_c 34.28700
_cell_angle_alpha 90.00000
_cell_angle_beta  90.00000
_cell_angle_gamma 90.00000

_symmetry_space_group_name_	'P 1'
_symmetry_space_group_name_H-M	'P 1'

loop_
_symmetry_equiv_pos_as_xyz
  x,y,z

loop_
_atom_site_label
_atom_site_type_symbol
_atom_site_fract_x
_atom_site_fract_y
_atom_site_fract_z
_atom_site_charge
O 	O 	0.24700 0.33540 0.59290 -0.65400
O 	O 	0.00610 0.33360 0.57050 -0.62200
O 	O 	0.24030 0.45730 0.63610 -0.64400
C 	C 	0.14400 0.32100 0.56820 0.52400
C 	C 	0.20000 0.28430 0.53280 -0.12800
C 	C 	0.10200 0.26550 0.50450 0.00000
C 	C 	0.14700 0.23150 0.47120 0.00200
C 	C 	0.23420 0.58900 0.64710 -0.02700
C 	C 	0.22900 0.65590 0.64600 0.03400
H 	H 	0.99720 0.27600 0.50730 0.04700
H 	H 	0.07540 0.21960 0.45180 0.03200
H 	H 	0.31300 0.56630 0.66030 0.04800
H 	H 	0.30470 0.67860 0.66030 0.02000
O 	O 	0.24700 0.83540 0.09290 -0.65500
O 	O 	0.00610 0.83360 0.07050 -0.62200
O 	O 	0.24030 0.95730 0.13610 -0.64500
C 	C 	0.14400 0.82100 0.06820 0.52500
C 	C 	0.20000 0.78430 0.03280 -0.13400
C 	C 	0.10200 0.76550 0.00450 0.01200
C 	C 	0.14700 0.73150 0.97120 -0.00500
C 	C 	0.23420 0.08900 0.14710 -0.02600
C 	C 	0.22900 0.15590 0.14600 0.03400
H 	H 	0.99720 0.77600 0.00730 0.04000
H 	H 	0.07540 0.71960 0.95180 0.03600
H 	H 	0.31300 0.06630 0.16030 0.04800
H 	H 	0.30470 0.17860 0.16030 0.02000
O 	O 	0.74700 0.33540 0.09290 -0.65500
O 	O 	0.50610 0.33360 0.07050 -0.62300
O 	O 	0.74030 0.45730 0.13610 -0.64500
C 	C 	0.64400 0.32100 0.06820 0.52200
C 	C 	0.70000 0.28430 0.03280 -0.12700
C 	C 	0.60200 0.26550 0.00450 0.00000
C 	C 	0.64700 0.23150 0.97120 0.00300
C 	C 	0.73420 0.58900 0.14710 -0.02700
C 	C 	0.72900 0.65590 0.14600 0.03500
H 	H 	0.49720 0.27600 0.00730 0.04600
H 	H 	0.57540 0.21960 0.95180 0.03300
H 	H 	0.81300 0.56630 0.16030 0.04800
H 	H 	0.80470 0.67860 0.16030 0.01900
O 	O 	0.74700 0.83540 0.59290 -0.65600
O 	O 	0.50610 0.83360 0.57050 -0.62300
O 	O 	0.74030 0.95730 0.63610 -0.64600
C 	C 	0.64400 0.82100 0.56820 0.52400
C 	C 	0.70000 0.78430 0.53280 -0.13100
C 	C 	0.60200 0.76550 0.50450 0.00500
C 	C 	0.64700 0.73150 0.47120 -0.00100
C 	C 	0.73420 0.08900 0.64710 -0.02700
C 	C 	0.72900 0.15590 0.64600 0.03500
H 	H 	0.49720 0.77600 0.50730 0.04500
H 	H 	0.57540 0.71960 0.45180 0.03400
H 	H 	0.81300 0.06630 0.66030 0.04900
H 	H 	0.80470 0.17860 0.66030 0.02000
O 	O 	0.50300 0.41460 0.59290 -0.65500
O 	O 	0.74390 0.41640 0.57050 -0.62300
O 	O 	0.50970 0.29270 0.63610 -0.64500
C 	C 	0.60600 0.42900 0.56820 0.52300
C 	C 	0.55000 0.46570 0.53280 -0.13000
C 	C 	0.64800 0.48450 0.50450 0.00400
C 	C 	0.60300 0.51850 0.47120 0.00000
C 	C 	0.51580 0.16100 0.64710 -0.02700
C 	C 	0.52100 0.09410 0.64600 0.03400
H 	H 	0.75280 0.47400 0.50730 0.04500
H 	H 	0.67460 0.53040 0.45180 0.03400
H 	H 	0.43700 0.18370 0.66030 0.04800
H 	H 	0.44530 0.07140 0.66030 0.02000
O 	O 	0.50300 0.91460 0.09290 -0.65500
O 	O 	0.74390 0.91640 0.07050 -0.62400
O 	O 	0.50970 0.79270 0.13610 -0.64500
C 	C 	0.60600 0.92900 0.06820 0.52300
C 	C 	0.55000 0.96570 0.03280 -0.13000
C 	C 	0.64800 0.98450 0.00450 0.00300
C 	C 	0.60300 0.01850 0.97120 0.00100
C 	C 	0.51580 0.66100 0.14710 -0.02700
C 	C 	0.52100 0.59410 0.14600 0.03400
H 	H 	0.75280 0.97400 0.00730 0.04400
H 	H 	0.67460 0.03040 0.95180 0.03400
H 	H 	0.43700 0.68370 0.16030 0.04800
H 	H 	0.44530 0.57140 0.16030 0.02000
O 	O 	0.00300 0.41460 0.09290 -0.65500
O 	O 	0.24390 0.41640 0.07050 -0.62300
O 	O 	0.00970 0.29270 0.13610 -0.64500
C 	C 	0.10600 0.42900 0.06820 0.52300
C 	C 	0.05000 0.46570 0.03280 -0.12900
C 	C 	0.14800 0.48450 0.00450 0.00500
C 	C 	0.10300 0.51850 0.97120 -0.00200
C 	C 	0.01580 0.16100 0.14710 -0.02800
C 	C 	0.02100 0.09410 0.14600 0.03400
H 	H 	0.25280 0.47400 0.00730 0.04500
H 	H 	0.17460 0.53040 0.95180 0.03400
H 	H 	0.93700 0.18370 0.16030 0.04900
H 	H 	0.94530 0.07140 0.16030 0.02100
O 	O 	0.00300 0.91460 0.59290 -0.65400
O 	O 	0.24390 0.91640 0.57050 -0.62300
O 	O 	0.00970 0.79270 0.63610 -0.64400
C 	C 	0.10600 0.92900 0.56820 0.52200
C 	C 	0.05000 0.96570 0.53280 -0.12600
C 	C 	0.14800 0.98450 0.50450 0.00700
C 	C 	0.10300 0.01850 0.47120 -0.00700
C 	C 	0.01580 0.66100 0.64710 -0.02400
C 	C 	0.02100 0.59410 0.64600 0.03400
H 	H 	0.25280 0.97400 0.50730 0.04400
H 	H 	0.17460 0.03040 0.45180 0.03500
H 	H 	0.93700 0.68370 0.66030 0.04600
H 	H 	0.94530 0.57140 0.66030 0.01900
O 	O 	0.50300 0.33540 0.15710 -0.65500
O 	O 	0.74390 0.33360 0.17950 -0.62300
O 	O 	0.50970 0.45730 0.11390 -0.64500
C 	C 	0.60600 0.32100 0.18180 0.52300
C 	C 	0.55000 0.28430 0.21720 -0.13000
C 	C 	0.64800 0.26550 0.24550 0.00400
C 	C 	0.60300 0.23150 0.27880 0.00000
C 	C 	0.51580 0.58900 0.10290 -0.02700
C 	C 	0.52100 0.65590 0.10400 0.03500
H 	H 	0.75280 0.27600 0.24270 0.04500
H 	H 	0.67460 0.21960 0.29820 0.03400
H 	H 	0.43700 0.56630 0.08970 0.04800
H 	H 	0.44530 0.67860 0.08970 0.02000
O 	O 	0.50300 0.83540 0.65710 -0.65500
O 	O 	0.74390 0.83360 0.67950 -0.62400
O 	O 	0.50970 0.95730 0.61390 -0.64500
C 	C 	0.60600 0.82100 0.68180 0.52300
C 	C 	0.55000 0.78430 0.71720 -0.13000
C 	C 	0.64800 0.76550 0.74550 0.00400
C 	C 	0.60300 0.73150 0.77880 0.00000
C 	C 	0.51580 0.08900 0.60290 -0.02700
C 	C 	0.52100 0.15590 0.60400 0.03500
H 	H 	0.75280 0.77600 0.74270 0.04500
H 	H 	0.67460 0.71960 0.79820 0.03400
H 	H 	0.43700 0.06630 0.58970 0.04800
H 	H 	0.44530 0.17860 0.58970 0.02000
O 	O 	0.00300 0.33540 0.65710 -0.65600
O 	O 	0.24390 0.33360 0.67950 -0.62400
O 	O 	0.00970 0.45730 0.61390 -0.64500
C 	C 	0.10600 0.32100 0.68180 0.52500
C 	C 	0.05000 0.28430 0.71720 -0.13400
C 	C 	0.14800 0.26550 0.74550 0.00800
C 	C 	0.10300 0.23150 0.77880 -0.00600
C 	C 	0.01580 0.58900 0.60290 -0.02600
C 	C 	0.02100 0.65590 0.60400 0.03600
H 	H 	0.25280 0.27600 0.74270 0.04400
H 	H 	0.17460 0.21960 0.79820 0.03600
H 	H 	0.93700 0.56630 0.58970 0.04700
H 	H 	0.94530 0.67860 0.58970 0.01800
O 	O 	0.00300 0.83540 0.15710 -0.65300
O 	O 	0.24390 0.83360 0.17950 -0.62300
O 	O 	0.00970 0.95730 0.11390 -0.64400
C 	C 	0.10600 0.82100 0.18180 0.52200
C 	C 	0.05000 0.78430 0.21720 -0.12400
C 	C 	0.14800 0.76550 0.24550 -0.00100
C 	C 	0.10300 0.73150 0.27880 0.00500
C 	C 	0.01580 0.08900 0.10290 -0.02800
C 	C 	0.02100 0.15590 0.10400 0.03400
H 	H 	0.25280 0.77600 0.24270 0.04600
H 	H 	0.17460 0.71960 0.29820 0.03200
H 	H 	0.93700 0.06630 0.08970 0.04900
H 	H 	0.94530 0.17860 0.08970 0.02000
O 	O 	0.24700 0.41460 0.15710 -0.65500
O 	O 	0.00610 0.41640 0.17950 -0.62300
O 	O 	0.24030 0.29270 0.11390 -0.64500
C 	C 	0.14400 0.42900 0.18180 0.52300
C 	C 	0.20000 0.46570 0.21720 -0.13000
C 	C 	0.10200 0.48450 0.24550 0.00500
C 	C 	0.14700 0.51850 0.27880 -0.00000
C 	C 	0.23420 0.16100 0.10290 -0.02800
C 	C 	0.22900 0.09410 0.10400 0.03600
H 	H 	0.99720 0.47400 0.24270 0.04400
H 	H 	0.07540 0.53040 0.29820 0.03400
H 	H 	0.31300 0.18370 0.08970 0.04800
H 	H 	0.30470 0.07140 0.08970 0.01900
O 	O 	0.24700 0.91460 0.65710 -0.65600
O 	O 	0.00610 0.91640 0.67950 -0.62200
O 	O 	0.24030 0.79270 0.61390 -0.64500
C 	C 	0.14400 0.92900 0.68180 0.52600
C 	C 	0.20000 0.96570 0.71720 -0.13600
C 	C 	0.10200 0.98450 0.74550 0.01700
C 	C 	0.14700 0.01850 0.77880 -0.01000
C 	C 	0.23420 0.66100 0.60290 -0.02600
C 	C 	0.22900 0.59410 0.60400 0.03400
H 	H 	0.99720 0.97400 0.74270 0.03900
H 	H 	0.07540 0.03040 0.79820 0.03600
H 	H 	0.31300 0.68370 0.58970 0.04800
H 	H 	0.30470 0.57140 0.58970 0.02000
O 	O 	0.74700 0.41460 0.65710 -0.65500
O 	O 	0.50610 0.41640 0.67950 -0.62300
O 	O 	0.74030 0.29270 0.61390 -0.64500
C 	C 	0.64400 0.42900 0.68180 0.52300
C 	C 	0.70000 0.46570 0.71720 -0.12900
C 	C 	0.60200 0.48450 0.74550 0.00300
C 	C 	0.64700 0.51850 0.77880 0.00100
C 	C 	0.73420 0.16100 0.60290 -0.02700
C 	C 	0.72900 0.09410 0.60400 0.03400
H 	H 	0.49720 0.47400 0.74270 0.04500
H 	H 	0.57540 0.53040 0.79820 0.03400
H 	H 	0.81300 0.18370 0.58970 0.04800
H 	H 	0.80470 0.07140 0.58970 0.02000
O 	O 	0.74700 0.91460 0.15710 -0.65600
O 	O 	0.50610 0.91640 0.17950 -0.62300
O 	O 	0.74030 0.79270 0.11390 -0.64600
C 	C 	0.64400 0.92900 0.18180 0.52100
C 	C 	0.70000 0.96570 0.21720 -0.12500
C 	C 	0.60200 0.98450 0.24550 -0.00300
C 	C 	0.64700 0.01850 0.27880 0.00700
C 	C 	0.73420 0.66100 0.10290 -0.02700
C 	C 	0.72900 0.59410 0.10400 0.03400
H 	H 	0.49720 0.97400 0.24270 0.04700
H 	H 	0.57540 0.03040 0.29820 0.03200
H 	H 	0.81300 0.68370 0.08970 0.04800
H 	H 	0.80470 0.57140 0.08970 0.01900
O 	O 	0.75300 0.66460 0.40710 -0.65500
O 	O 	0.99390 0.66640 0.42950 -0.62300
O 	O 	0.75970 0.54270 0.36390 -0.64500
C 	C 	0.85600 0.67900 0.43180 0.52300
C 	C 	0.80000 0.71570 0.46720 -0.12800
C 	C 	0.89800 0.73450 0.49550 0.00000
C 	C 	0.85300 0.76850 0.52880 0.00200
C 	C 	0.76580 0.41100 0.35290 -0.02700
C 	C 	0.77100 0.34410 0.35400 0.03400
H 	H 	0.00280 0.72400 0.49270 0.04700
H 	H 	0.92460 0.78040 0.54820 0.03200
H 	H 	0.68700 0.43370 0.33970 0.04800
H 	H 	0.69530 0.32140 0.33970 0.02000
O 	O 	0.75300 0.16460 0.90710 -0.65500
O 	O 	0.99390 0.16640 0.92950 -0.62200
O 	O 	0.75970 0.04270 0.86390 -0.64500
C 	C 	0.85600 0.17900 0.93180 0.52500
C 	C 	0.80000 0.21570 0.96720 -0.13400
C 	C 	0.89800 0.23450 0.99550 0.01200
C 	C 	0.85300 0.26850 0.02880 -0.00500
C 	C 	0.76580 0.91100 0.85290 -0.02600
C 	C 	0.77100 0.84410 0.85400 0.03400
H 	H 	0.00280 0.22400 0.99270 0.04000
H 	H 	0.92460 0.28040 0.04820 0.03600
H 	H 	0.68700 0.93370 0.83970 0.04800
H 	H 	0.69530 0.82140 0.83970 0.02000
O 	O 	0.25300 0.66460 0.90710 -0.65500
O 	O 	0.49390 0.66640 0.92950 -0.62300
O 	O 	0.25970 0.54270 0.86390 -0.64500
C 	C 	0.35600 0.67900 0.93180 0.52200
C 	C 	0.30000 0.71570 0.96720 -0.12700
C 	C 	0.39800 0.73450 0.99550 0.00000
C 	C 	0.35300 0.76850 0.02880 0.00300
C 	C 	0.26580 0.41100 0.85290 -0.02700
C 	C 	0.27100 0.34410 0.85400 0.03500
H 	H 	0.50280 0.72400 0.99270 0.04600
H 	H 	0.42460 0.78040 0.04820 0.03300
H 	H 	0.18700 0.43370 0.83970 0.04800
H 	H 	0.19530 0.32140 0.83970 0.01900
O 	O 	0.25300 0.16460 0.40710 -0.65600
O 	O 	0.49390 0.16640 0.42950 -0.62300
O 	O 	0.25970 0.04270 0.36390 -0.64600
C 	C 	0.35600 0.17900 0.43180 0.52400
C 	C 	0.30000 0.21570 0.46720 -0.13100
C 	C 	0.39800 0.23450 0.49550 0.00500
C 	C 	0.35300 0.26850 0.52880 -0.00100
C 	C 	0.26580 0.91100 0.35290 -0.02700
C 	C 	0.27100 0.84410 0.35400 0.03500
H 	H 	0.50280 0.22400 0.49270 0.04500
H 	H 	0.42460 0.28040 0.54820 0.03400
H 	H 	0.18700 0.93370 0.33970 0.04900
H 	H 	0.19530 0.82140 0.33970 0.02000
O 	O 	0.49700 0.58540 0.40710 -0.65500
O 	O 	0.25610 0.58360 0.42950 -0.62300
O 	O 	0.49030 0.70730 0.36390 -0.64500
C 	C 	0.39400 0.57100 0.43180 0.52300
C 	C 	0.45000 0.53430 0.46720 -0.13000
C 	C 	0.35200 0.51550 0.49550 0.00400
C 	C 	0.39700 0.48150 0.52880 0.00000
C 	C 	0.48420 0.83900 0.35290 -0.02700
C 	C 	0.47900 0.90590 0.35400 0.03400
H 	H 	0.24720 0.52600 0.49270 0.04500
H 	H 	0.32540 0.46960 0.54820 0.03400
H 	H 	0.56300 0.81630 0.33970 0.04800
H 	H 	0.55470 0.92860 0.33970 0.02000
O 	O 	0.49700 0.08540 0.90710 -0.65500
O 	O 	0.25610 0.08360 0.92950 -0.62400
O 	O 	0.49030 0.20730 0.86390 -0.64500
C 	C 	0.39400 0.07100 0.93180 0.52300
C 	C 	0.45000 0.03430 0.96720 -0.13000
C 	C 	0.35200 0.01550 0.99550 0.00300
C 	C 	0.39700 0.98150 0.02880 0.00100
C 	C 	0.48420 0.33900 0.85290 -0.02700
C 	C 	0.47900 0.40590 0.85400 0.03400
H 	H 	0.24720 0.02600 0.99270 0.04400
H 	H 	0.32540 0.96960 0.04820 0.03400
H 	H 	0.56300 0.31630 0.83970 0.04800
H 	H 	0.55470 0.42860 0.83970 0.02000
O 	O 	0.99700 0.58540 0.90710 -0.65500
O 	O 	0.75610 0.58360 0.92950 -0.62300
O 	O 	0.99030 0.70730 0.86390 -0.64500
C 	C 	0.89400 0.57100 0.93180 0.52300
C 	C 	0.95000 0.53430 0.96720 -0.12900
C 	C 	0.85200 0.51550 0.99550 0.00500
C 	C 	0.89700 0.48150 0.02880 -0.00200
C 	C 	0.98420 0.83900 0.85290 -0.02800
C 	C 	0.97900 0.90590 0.85400 0.03400
H 	H 	0.74720 0.52600 0.99270 0.04500
H 	H 	0.82540 0.46960 0.04820 0.03400
H 	H 	0.06300 0.81630 0.83970 0.04900
H 	H 	0.05470 0.92860 0.83970 0.02100
O 	O 	0.99700 0.08540 0.40710 -0.65400
O 	O 	0.75610 0.08360 0.42950 -0.62300
O 	O 	0.99030 0.20730 0.36390 -0.64400
C 	C 	0.89400 0.07100 0.43180 0.52200
C 	C 	0.95000 0.03430 0.46720 -0.12600
C 	C 	0.85200 0.01550 0.49550 0.00700
C 	C 	0.89700 0.98150 0.52880 -0.00700
C 	C 	0.98420 0.33900 0.35290 -0.02400
C 	C 	0.97900 0.40590 0.35400 0.03400
H 	H 	0.74720 0.02600 0.49270 0.04400
H 	H 	0.82540 0.96960 0.54820 0.03500
H 	H 	0.06300 0.31630 0.33970 0.04600
H 	H 	0.05470 0.42860 0.33970 0.01900
O 	O 	0.49700 0.66460 0.84290 -0.65500
O 	O 	0.25610 0.66640 0.82050 -0.62300
O 	O 	0.49030 0.54270 0.88610 -0.64500
C 	C 	0.39400 0.67900 0.81820 0.52300
C 	C 	0.45000 0.71570 0.78280 -0.13000
C 	C 	0.35200 0.73450 0.75450 0.00400
C 	C 	0.39700 0.76850 0.72120 0.00000
C 	C 	0.48420 0.41100 0.89710 -0.02700
C 	C 	0.47900 0.34410 0.89600 0.03500
H 	H 	0.24720 0.72400 0.75730 0.04500
H 	H 	0.32540 0.78040 0.70180 0.03400
H 	H 	0.56300 0.43370 0.91030 0.04800
H 	H 	0.55470 0.32140 0.91030 0.02000
O 	O 	0.49700 0.16460 0.34290 -0.65500
O 	O 	0.25610 0.16640 0.32050 -0.62400
O 	O 	0.49030 0.04270 0.38610 -0.64500
C 	C 	0.39400 0.17900 0.31820 0.52300
C 	C 	0.45000 0.21570 0.28280 -0.13000
C 	C 	0.35200 0.23450 0.25450 0.00400
C 	C 	0.39700 0.26850 0.22120 0.00000
C 	C 	0.48420 0.91100 0.39710 -0.02700
C 	C 	0.47900 0.84410 0.39600 0.03500
H 	H 	0.24720 0.22400 0.25730 0.04500
H 	H 	0.32540 0.28040 0.20180 0.03400
H 	H 	0.56300 0.93370 0.41030 0.04800
H 	H 	0.55470 0.82140 0.41030 0.02000
O 	O 	0.99700 0.66460 0.34290 -0.65600
O 	O 	0.75610 0.66640 0.32050 -0.62400
O 	O 	0.99030 0.54270 0.38610 -0.64500
C 	C 	0.89400 0.67900 0.31820 0.52500
C 	C 	0.95000 0.71570 0.28280 -0.13400
C 	C 	0.85200 0.73450 0.25450 0.00800
C 	C 	0.89700 0.76850 0.22120 -0.00600
C 	C 	0.98420 0.41100 0.39710 -0.02600
C 	C 	0.97900 0.34410 0.39600 0.03600
H 	H 	0.74720 0.72400 0.25730 0.04400
H 	H 	0.82540 0.78040 0.20180 0.03600
H 	H 	0.06300 0.43370 0.41030 0.04700
H 	H 	0.05470 0.32140 0.41030 0.01800
O 	O 	0.99700 0.16460 0.84290 -0.65300
O 	O 	0.75610 0.16640 0.82050 -0.62300
O 	O 	0.99030 0.04270 0.88610 -0.64400
C 	C 	0.89400 0.17900 0.81820 0.52200
C 	C 	0.95000 0.21570 0.78280 -0.12400
C 	C 	0.85200 0.23450 0.75450 -0.00100
C 	C 	0.89700 0.26850 0.72120 0.00500
C 	C 	0.98420 0.91100 0.89710 -0.02800
C 	C 	0.97900 0.84410 0.89600 0.03400
H 	H 	0.74720 0.22400 0.75730 0.04600
H 	H 	0.82540 0.28040 0.70180 0.03200
H 	H 	0.06300 0.93370 0.91030 0.04900
H 	H 	0.05470 0.82140 0.91030 0.02000
O 	O 	0.75300 0.58540 0.84290 -0.65500
O 	O 	0.99390 0.58360 0.82050 -0.62300
O 	O 	0.75970 0.70730 0.88610 -0.64500
C 	C 	0.85600 0.57100 0.81820 0.52300
C 	C 	0.80000 0.53430 0.78280 -0.13000
C 	C 	0.89800 0.51550 0.75450 0.00500
C 	C 	0.85300 0.48150 0.72120 -0.00000
C 	C 	0.76580 0.83900 0.89710 -0.02800
C 	C 	0.77100 0.90590 0.89600 0.03600
H 	H 	0.00280 0.52600 0.75730 0.04400
H 	H 	0.92460 0.46960 0.70180 0.03400
H 	H 	0.68700 0.81630 0.91030 0.04800
H 	H 	0.69530 0.92860 0.91030 0.01900
O 	O 	0.75300 0.08540 0.34290 -0.65600
O 	O 	0.99390 0.08360 0.32050 -0.62200
O 	O 	0.75970 0.20730 0.38610 -0.64500
C 	C 	0.85600 0.07100 0.31820 0.52600
C 	C 	0.80000 0.03430 0.28280 -0.13600
C 	C 	0.89800 0.01550 0.25450 0.01700
C 	C 	0.85300 0.98150 0.22120 -0.01000
C 	C 	0.76580 0.33900 0.39710 -0.02600
C 	C 	0.77100 0.40590 0.39600 0.03400
H 	H 	0.00280 0.02600 0.25730 0.03900
H 	H 	0.92460 0.96960 0.20180 0.03600
H 	H 	0.68700 0.31630 0.41030 0.04800
H 	H 	0.69530 0.42860 0.41030 0.02000
O 	O 	0.25300 0.58540 0.34290 -0.65500
O 	O 	0.49390 0.58360 0.32050 -0.62300
O 	O 	0.25970 0.70730 0.38610 -0.64500
C 	C 	0.35600 0.57100 0.31820 0.52300
C 	C 	0.30000 0.53430 0.28280 -0.12900
C 	C 	0.39800 0.51550 0.25450 0.00300
C 	C 	0.35300 0.48150 0.22120 0.00100
C 	C 	0.26580 0.83900 0.39710 -0.02700
C 	C 	0.27100 0.90590 0.39600 0.03400
H 	H 	0.50280 0.52600 0.25730 0.04500
H 	H 	0.42460 0.46960 0.20180 0.03400
H 	H 	0.18700 0.81630 0.41030 0.04800
H 	H 	0.19530 0.92860 0.41030 0.02000
O 	O 	0.25300 0.08540 0.84290 -0.65600
O 	O 	0.49390 0.08360 0.82050 -0.62300
O 	O 	0.25970 0.20730 0.88610 -0.64600
C 	C 	0.35600 0.07100 0.81820 0.52100
C 	C 	0.30000 0.03430 0.78280 -0.12500
C 	C 	0.39800 0.01550 0.75450 -0.00300
C 	C 	0.35300 0.98150 0.72120 0.00700
C 	C 	0.26580 0.33900 0.89710 -0.02700
C 	C 	0.27100 0.40590 0.89600 0.03400
H 	H 	0.50280 0.02600 0.75730 0.04700
H 	H 	0.42460 0.96960 0.70180 0.03200
H 	H 	0.18700 0.31630 0.91030 0.04800
H 	H 	0.19530 0.42860 0.91030 0.01900
Sc	Sc	0.37500 0.37500 0.63608 2.35200
Sc	Sc	0.37500 0.87500 0.13608 2.35200
Sc	Sc	0.87500 0.37500 0.13608 2.35200
Sc	Sc	0.87500 0.87500 0.63608 2.35200
Sc	Sc	0.37500 0.37500 0.11392 2.35200
Sc	Sc	0.37500 0.87500 0.61392 2.35200
Sc	Sc	0.87500 0.37500 0.61392 2.35200
Sc	Sc	0.87500 0.87500 0.11392 2.35200
Sc	Sc	0.62500 0.62500 0.36392 2.35200
Sc	Sc	0.62500 0.12500 0.86392 2.35200
Sc	Sc	0.12500 0.62500 0.86392 2.35200
Sc	Sc	0.12500 0.12500 0.36392 2.35200
Sc	Sc	0.62500 0.62500 0.88608 2.35200
Sc	Sc	0.62500 0.12500 0.38608 2.35200
Sc	Sc	0.12500 0.62500 0.38608 2.35200
Sc	Sc	0.12500 0.12500 0.88608 2.35200
C 	C 	0.12500 0.48690 0.62500 0.57100
C 	C 	0.12500 0.55760 0.62500 -0.17900
C 	C 	0.12500 0.98690 0.12500 0.57300
C 	C 	0.12500 0.05760 0.12500 -0.18200
C 	C 	0.62500 0.98690 0.62500 0.57000
C 	C 	0.62500 0.05760 0.62500 -0.17800
C 	C 	0.62500 0.26310 0.62500 0.57100
C 	C 	0.62500 0.19240 0.62500 -0.18000
C 	C 	0.62500 0.76310 0.12500 0.57100
C 	C 	0.62500 0.69240 0.12500 -0.18000
C 	C 	0.62500 0.48690 0.12500 0.57100
C 	C 	0.62500 0.55760 0.12500 -0.17900
C 	C 	0.12500 0.26310 0.12500 0.57100
C 	C 	0.12500 0.19240 0.12500 -0.17900
C 	C 	0.12500 0.76310 0.62500 0.57200
C 	C 	0.12500 0.69240 0.62500 -0.18100
C 	C 	0.87500 0.51310 0.37500 0.57100
C 	C 	0.87500 0.44240 0.37500 -0.17900
C 	C 	0.87500 0.01310 0.87500 0.57300
C 	C 	0.87500 0.94240 0.87500 -0.18200
C 	C 	0.37500 0.73690 0.37500 0.57100
C 	C 	0.37500 0.80760 0.37500 -0.18000
C 	C 	0.37500 0.23690 0.87500 0.57100
C 	C 	0.37500 0.30760 0.87500 -0.18000
C 	C 	0.37500 0.51310 0.87500 0.57100
C 	C 	0.37500 0.44240 0.87500 -0.17900
C 	C 	0.37500 0.01310 0.37500 0.57000
C 	C 	0.37500 0.94240 0.37500 -0.17800
C 	C 	0.87500 0.73690 0.87500 0.57100
C 	C 	0.87500 0.80760 0.87500 -0.17900
C 	C 	0.87500 0.23690 0.37500 0.57200
C 	C 	0.87500 0.30760 0.37500 -0.18100
