data_crystal

_cell_length_a 7.21270
_cell_length_b 23.76520
_cell_length_c 30.73200
_cell_angle_alpha 90.00000
_cell_angle_beta  90.00000
_cell_angle_gamma 90.00000

_symmetry_space_group_name_	'P 1'
_symmetry_space_group_name_H-M	'P 1'

loop_
_symmetry_equiv_pos_as_xyz
  x,y,z

loop_
_atom_site_label
_atom_site_type_symbol
_atom_site_fract_x
_atom_site_fract_y
_atom_site_fract_z
_atom_site_charge
Ag	Ag	0.19524 0.77001 0.29069 0.52200
Ag	Ag	0.52785 0.44257 0.48416 0.52700
O 	O 	0.34360 0.69592 0.31402 -0.36100
O 	O 	0.45270 0.66747 0.24954 -0.38000
O 	O 	0.47940 0.58787 0.44635 -0.35100
O 	O 	0.65830 0.51167 0.44176 -0.38600
N 	N 	0.10860 0.81264 0.35754 -0.14900
N 	N 	0.01910 0.87421 0.43152 -0.15600
C 	C 	0.00090 0.85818 0.35563 0.00400
H 	H 	0.95390 0.86990 0.32860 0.03800
C 	C 	0.95710 0.88841 0.39255 0.01100
H 	H 	0.88060 0.92020 0.38990 0.03000
C 	C 	0.12460 0.82818 0.43338 0.01100
H 	H 	0.16950 0.81610 0.46050 0.02000
C 	C 	0.16960 0.79793 0.39675 0.00600
H 	H 	0.24550 0.76600 0.39950 0.03400
C 	C 	0.43340 0.66338 0.28997 0.31600
C 	C 	0.52880 0.61452 0.31183 -0.11400
C 	C 	0.63680 0.57723 0.28805 0.02600
H 	H 	0.64740 0.58140 0.25770 0.03200
C 	C 	0.72890 0.53392 0.30888 -0.09800
H 	H 	0.80320 0.50900 0.29270 0.06500
C 	C 	0.71230 0.52716 0.35301 0.02900
H 	H 	0.77650 0.49780 0.36690 0.03200
C 	C 	0.60140 0.56326 0.37751 -0.10700
C 	C 	0.51130 0.60719 0.35654 0.03900
H 	H 	0.43770 0.63220 0.37270 0.04000
C 	C 	0.57830 0.55376 0.42535 0.32600
Ag	Ag	0.69524 0.27001 0.79069 0.52100
Ag	Ag	0.02785 0.94257 0.98416 0.52600
O 	O 	0.84360 0.19592 0.81402 -0.36200
O 	O 	0.95270 0.16747 0.74954 -0.38100
O 	O 	0.97940 0.08787 0.94635 -0.35100
O 	O 	0.15830 0.01167 0.94176 -0.38700
N 	N 	0.60860 0.31264 0.85754 -0.14800
N 	N 	0.51910 0.37421 0.93152 -0.15600
C 	C 	0.50090 0.35818 0.85563 0.00200
H 	H 	0.45390 0.36990 0.82860 0.03900
C 	C 	0.45710 0.38841 0.89255 0.01300
H 	H 	0.38060 0.42020 0.88990 0.02900
C 	C 	0.62460 0.32818 0.93338 0.01100
H 	H 	0.66950 0.31610 0.96050 0.02000
C 	C 	0.66960 0.29793 0.89675 0.00600
H 	H 	0.74550 0.26600 0.89950 0.03400
C 	C 	0.93340 0.16338 0.78997 0.31700
C 	C 	0.02880 0.11452 0.81183 -0.11500
C 	C 	0.13680 0.07723 0.78805 0.02600
H 	H 	0.14740 0.08140 0.75770 0.03200
C 	C 	0.22890 0.03392 0.80888 -0.09800
H 	H 	0.30320 0.00900 0.79270 0.06500
C 	C 	0.21230 0.02716 0.85301 0.02800
H 	H 	0.27650 0.99780 0.86690 0.03200
C 	C 	0.10140 0.06326 0.87751 -0.10700
C 	C 	0.01130 0.10719 0.85654 0.03800
H 	H 	0.93770 0.13220 0.87270 0.04100
C 	C 	0.07830 0.05376 0.92535 0.32500
Ag	Ag	0.30476 0.22999 0.79069 0.52100
Ag	Ag	0.97215 0.55743 0.98416 0.52600
O 	O 	0.15640 0.30408 0.81402 -0.36200
O 	O 	0.04730 0.33253 0.74954 -0.38100
O 	O 	0.02060 0.41213 0.94635 -0.35100
O 	O 	0.84170 0.48833 0.94176 -0.38700
N 	N 	0.39140 0.18736 0.85754 -0.14800
N 	N 	0.48090 0.12579 0.93152 -0.15600
C 	C 	0.49910 0.14182 0.85563 0.00200
H 	H 	0.54610 0.13010 0.82860 0.03900
C 	C 	0.54290 0.11159 0.89255 0.01300
H 	H 	0.61940 0.07980 0.88990 0.02900
C 	C 	0.37540 0.17182 0.93338 0.01100
H 	H 	0.33050 0.18390 0.96050 0.02000
C 	C 	0.33040 0.20207 0.89675 0.00600
H 	H 	0.25450 0.23400 0.89950 0.03400
C 	C 	0.06660 0.33662 0.78997 0.31700
C 	C 	0.97120 0.38548 0.81183 -0.11500
C 	C 	0.86320 0.42277 0.78805 0.02600
H 	H 	0.85260 0.41860 0.75770 0.03200
C 	C 	0.77110 0.46608 0.80888 -0.09800
H 	H 	0.69680 0.49100 0.79270 0.06500
C 	C 	0.78770 0.47284 0.85301 0.02800
H 	H 	0.72350 0.50220 0.86690 0.03200
C 	C 	0.89860 0.43674 0.87751 -0.10700
C 	C 	0.98870 0.39281 0.85654 0.03800
H 	H 	0.06230 0.36780 0.87270 0.04100
C 	C 	0.92170 0.44624 0.92535 0.32500
Ag	Ag	0.80476 0.72999 0.29069 0.52100
Ag	Ag	0.47215 0.05743 0.48416 0.52600
O 	O 	0.65640 0.80408 0.31402 -0.36200
O 	O 	0.54730 0.83253 0.24954 -0.38100
O 	O 	0.52060 0.91213 0.44635 -0.35200
O 	O 	0.34170 0.98833 0.44176 -0.38700
N 	N 	0.89140 0.68736 0.35754 -0.14900
N 	N 	0.98090 0.62579 0.43152 -0.15600
C 	C 	0.99910 0.64182 0.35563 0.00400
H 	H 	0.04610 0.63010 0.32860 0.03800
C 	C 	0.04290 0.61159 0.39255 0.01100
H 	H 	0.11940 0.57980 0.38990 0.03000
C 	C 	0.87540 0.67182 0.43338 0.01100
H 	H 	0.83050 0.68390 0.46050 0.02000
C 	C 	0.83040 0.70207 0.39675 0.00600
H 	H 	0.75450 0.73400 0.39950 0.03400
C 	C 	0.56660 0.83662 0.28997 0.31600
C 	C 	0.47120 0.88548 0.31183 -0.11400
C 	C 	0.36320 0.92277 0.28805 0.02600
H 	H 	0.35260 0.91860 0.25770 0.03200
C 	C 	0.27110 0.96608 0.30888 -0.09800
H 	H 	0.19680 0.99100 0.29270 0.06500
C 	C 	0.28770 0.97284 0.35301 0.02900
H 	H 	0.22350 0.00220 0.36690 0.03200
C 	C 	0.39860 0.93674 0.37751 -0.10700
C 	C 	0.48870 0.89281 0.35654 0.03900
H 	H 	0.56230 0.86780 0.37270 0.04000
C 	C 	0.42170 0.94624 0.42535 0.32600
Ag	Ag	0.80476 0.27001 0.20931 0.52100
Ag	Ag	0.47215 0.94257 0.01584 0.52600
O 	O 	0.65640 0.19592 0.18598 -0.36200
O 	O 	0.54730 0.16747 0.25046 -0.38100
O 	O 	0.52060 0.08787 0.05365 -0.35200
O 	O 	0.34170 0.01167 0.05824 -0.38700
N 	N 	0.89140 0.31264 0.14246 -0.14900
N 	N 	0.98090 0.37421 0.06848 -0.15600
C 	C 	0.99910 0.35818 0.14437 0.00400
H 	H 	0.04610 0.36990 0.17140 0.03800
C 	C 	0.04290 0.38841 0.10745 0.01100
H 	H 	0.11940 0.42020 0.11010 0.03000
C 	C 	0.87540 0.32818 0.06662 0.01100
H 	H 	0.83050 0.31610 0.03950 0.02000
C 	C 	0.83040 0.29793 0.10325 0.00600
H 	H 	0.75450 0.26600 0.10050 0.03400
C 	C 	0.56660 0.16338 0.21003 0.31600
C 	C 	0.47120 0.11452 0.18817 -0.11400
C 	C 	0.36320 0.07723 0.21195 0.02600
H 	H 	0.35260 0.08140 0.24230 0.03200
C 	C 	0.27110 0.03392 0.19112 -0.09800
H 	H 	0.19680 0.00900 0.20730 0.06500
C 	C 	0.28770 0.02716 0.14699 0.02900
H 	H 	0.22350 0.99780 0.13310 0.03200
C 	C 	0.39860 0.06326 0.12249 -0.10700
C 	C 	0.48870 0.10719 0.14346 0.03900
H 	H 	0.56230 0.13220 0.12730 0.04000
C 	C 	0.42170 0.05376 0.07465 0.32600
Ag	Ag	0.30476 0.77001 0.70931 0.52100
Ag	Ag	0.97215 0.44257 0.51584 0.52600
O 	O 	0.15640 0.69592 0.68598 -0.36200
O 	O 	0.04730 0.66747 0.75046 -0.38100
O 	O 	0.02060 0.58787 0.55365 -0.35200
O 	O 	0.84170 0.51167 0.55824 -0.38700
N 	N 	0.39140 0.81264 0.64246 -0.14800
N 	N 	0.48090 0.87421 0.56848 -0.15600
C 	C 	0.49910 0.85818 0.64437 0.00200
H 	H 	0.54610 0.86990 0.67140 0.03900
C 	C 	0.54290 0.88841 0.60745 0.01300
H 	H 	0.61940 0.92020 0.61010 0.02900
C 	C 	0.37540 0.82818 0.56662 0.01100
H 	H 	0.33050 0.81610 0.53950 0.02000
C 	C 	0.33040 0.79793 0.60325 0.00600
H 	H 	0.25450 0.76600 0.60050 0.03400
C 	C 	0.06660 0.66338 0.71003 0.31700
C 	C 	0.97120 0.61452 0.68817 -0.11500
C 	C 	0.86320 0.57723 0.71195 0.02600
H 	H 	0.85260 0.58140 0.74230 0.03200
C 	C 	0.77110 0.53392 0.69112 -0.09800
H 	H 	0.69680 0.50900 0.70730 0.06500
C 	C 	0.78770 0.52716 0.64699 0.02800
H 	H 	0.72350 0.49780 0.63310 0.03200
C 	C 	0.89860 0.56326 0.62249 -0.10700
C 	C 	0.98870 0.60719 0.64346 0.03800
H 	H 	0.06230 0.63220 0.62730 0.04100
C 	C 	0.92170 0.55376 0.57465 0.32500
Ag	Ag	0.69524 0.72999 0.70931 0.52100
Ag	Ag	0.02785 0.05743 0.51584 0.52600
O 	O 	0.84360 0.80408 0.68598 -0.36200
O 	O 	0.95270 0.83253 0.75046 -0.38100
O 	O 	0.97940 0.91213 0.55365 -0.35200
O 	O 	0.15830 0.98833 0.55824 -0.38700
N 	N 	0.60860 0.68736 0.64246 -0.14800
N 	N 	0.51910 0.62579 0.56848 -0.15600
C 	C 	0.50090 0.64182 0.64437 0.00200
H 	H 	0.45390 0.63010 0.67140 0.03900
C 	C 	0.45710 0.61159 0.60745 0.01300
H 	H 	0.38060 0.57980 0.61010 0.02900
C 	C 	0.62460 0.67182 0.56662 0.01100
H 	H 	0.66950 0.68390 0.53950 0.02000
C 	C 	0.66960 0.70207 0.60325 0.00600
H 	H 	0.74550 0.73400 0.60050 0.03400
C 	C 	0.93340 0.83662 0.71003 0.31700
C 	C 	0.02880 0.88548 0.68817 -0.11500
C 	C 	0.13680 0.92277 0.71195 0.02600
H 	H 	0.14740 0.91860 0.74230 0.03200
C 	C 	0.22890 0.96608 0.69112 -0.09800
H 	H 	0.30320 0.99100 0.70730 0.06500
C 	C 	0.21230 0.97284 0.64699 0.02800
H 	H 	0.27650 0.00220 0.63310 0.03100
C 	C 	0.10140 0.93674 0.62249 -0.10700
C 	C 	0.01130 0.89281 0.64346 0.03800
H 	H 	0.93770 0.86780 0.62730 0.04100
C 	C 	0.07830 0.94624 0.57465 0.32500
Ag	Ag	0.19524 0.22999 0.20931 0.52100
Ag	Ag	0.52785 0.55743 0.01584 0.52600
O 	O 	0.34360 0.30408 0.18598 -0.36200
O 	O 	0.45270 0.33253 0.25046 -0.38100
O 	O 	0.47940 0.41213 0.05365 -0.35200
O 	O 	0.65830 0.48833 0.05824 -0.38700
N 	N 	0.10860 0.18736 0.14246 -0.14900
N 	N 	0.01910 0.12579 0.06848 -0.15600
C 	C 	0.00090 0.14182 0.14437 0.00400
H 	H 	0.95390 0.13010 0.17140 0.03800
C 	C 	0.95710 0.11159 0.10745 0.01100
H 	H 	0.88060 0.07980 0.11010 0.03000
C 	C 	0.12460 0.17182 0.06662 0.01100
H 	H 	0.16950 0.18390 0.03950 0.02000
C 	C 	0.16960 0.20207 0.10325 0.00600
H 	H 	0.24550 0.23400 0.10050 0.03400
C 	C 	0.43340 0.33662 0.21003 0.31600
C 	C 	0.52880 0.38548 0.18817 -0.11400
C 	C 	0.63680 0.42277 0.21195 0.02600
H 	H 	0.64740 0.41860 0.24230 0.03200
C 	C 	0.72890 0.46608 0.19112 -0.09800
H 	H 	0.80320 0.49100 0.20730 0.06500
C 	C 	0.71230 0.47284 0.14699 0.02900
H 	H 	0.77650 0.50220 0.13310 0.03200
C 	C 	0.60140 0.43674 0.12249 -0.10700
C 	C 	0.51130 0.39281 0.14346 0.03900
H 	H 	0.43770 0.36780 0.12730 0.04000
C 	C 	0.57830 0.44624 0.07465 0.32600
Ag	Ag	0.80476 0.22999 0.70931 0.52100
Ag	Ag	0.47215 0.55743 0.51584 0.52600
O 	O 	0.65640 0.30408 0.68598 -0.36200
O 	O 	0.54730 0.33253 0.75046 -0.38100
O 	O 	0.52060 0.41213 0.55365 -0.35200
O 	O 	0.34170 0.48833 0.55824 -0.38700
N 	N 	0.89140 0.18736 0.64246 -0.14900
N 	N 	0.98090 0.12579 0.56848 -0.15600
C 	C 	0.99910 0.14182 0.64437 0.00400
H 	H 	0.04610 0.13010 0.67140 0.03800
C 	C 	0.04290 0.11159 0.60745 0.01100
H 	H 	0.11940 0.07980 0.61010 0.03000
C 	C 	0.87540 0.17182 0.56662 0.01100
H 	H 	0.83050 0.18390 0.53950 0.02000
C 	C 	0.83040 0.20207 0.60325 0.00600
H 	H 	0.75450 0.23400 0.60050 0.03400
C 	C 	0.56660 0.33662 0.71003 0.31600
C 	C 	0.47120 0.38548 0.68817 -0.11400
C 	C 	0.36320 0.42277 0.71195 0.02600
H 	H 	0.35260 0.41860 0.74230 0.03200
C 	C 	0.27110 0.46608 0.69112 -0.09800
H 	H 	0.19680 0.49100 0.70730 0.06500
C 	C 	0.28770 0.47284 0.64699 0.02900
H 	H 	0.22350 0.50220 0.63310 0.03200
C 	C 	0.39860 0.43674 0.62249 -0.10700
C 	C 	0.48870 0.39281 0.64346 0.03900
H 	H 	0.56230 0.36780 0.62730 0.04000
C 	C 	0.42170 0.44624 0.57465 0.32600
Ag	Ag	0.30476 0.72999 0.20931 0.52100
Ag	Ag	0.97215 0.05743 0.01584 0.52600
O 	O 	0.15640 0.80408 0.18598 -0.36200
O 	O 	0.04730 0.83253 0.25046 -0.38100
O 	O 	0.02060 0.91213 0.05365 -0.35100
O 	O 	0.84170 0.98833 0.05824 -0.38700
N 	N 	0.39140 0.68736 0.14246 -0.14800
N 	N 	0.48090 0.62579 0.06848 -0.15600
C 	C 	0.49910 0.64182 0.14437 0.00200
H 	H 	0.54610 0.63010 0.17140 0.03900
C 	C 	0.54290 0.61159 0.10745 0.01300
H 	H 	0.61940 0.57980 0.11010 0.02900
C 	C 	0.37540 0.67182 0.06662 0.01100
H 	H 	0.33050 0.68390 0.03950 0.02000
C 	C 	0.33040 0.70207 0.10325 0.00600
H 	H 	0.25450 0.73400 0.10050 0.03400
C 	C 	0.06660 0.83662 0.21003 0.31700
C 	C 	0.97120 0.88548 0.18817 -0.11500
C 	C 	0.86320 0.92277 0.21195 0.02600
H 	H 	0.85260 0.91860 0.24230 0.03200
C 	C 	0.77110 0.96608 0.19112 -0.09800
H 	H 	0.69680 0.99100 0.20730 0.06500
C 	C 	0.78770 0.97284 0.14699 0.02800
H 	H 	0.72350 0.00220 0.13310 0.03200
C 	C 	0.89860 0.93674 0.12249 -0.10700
C 	C 	0.98870 0.89281 0.14346 0.03800
H 	H 	0.06230 0.86780 0.12730 0.04100
C 	C 	0.92170 0.94624 0.07465 0.32500
Ag	Ag	0.69524 0.77001 0.20931 0.52100
Ag	Ag	0.02785 0.44257 0.01584 0.52600
O 	O 	0.84360 0.69592 0.18598 -0.36200
O 	O 	0.95270 0.66747 0.25046 -0.38100
O 	O 	0.97940 0.58787 0.05365 -0.35100
O 	O 	0.15830 0.51167 0.05824 -0.38700
N 	N 	0.60860 0.81264 0.14246 -0.14800
N 	N 	0.51910 0.87421 0.06848 -0.15600
C 	C 	0.50090 0.85818 0.14437 0.00200
H 	H 	0.45390 0.86990 0.17140 0.03900
C 	C 	0.45710 0.88841 0.10745 0.01300
H 	H 	0.38060 0.92020 0.11010 0.02900
C 	C 	0.62460 0.82818 0.06662 0.01100
H 	H 	0.66950 0.81610 0.03950 0.02000
C 	C 	0.66960 0.79793 0.10325 0.00600
H 	H 	0.74550 0.76600 0.10050 0.03400
C 	C 	0.93340 0.66338 0.21003 0.31700
C 	C 	0.02880 0.61452 0.18817 -0.11500
C 	C 	0.13680 0.57723 0.21195 0.02600
H 	H 	0.14740 0.58140 0.24230 0.03200
C 	C 	0.22890 0.53392 0.19112 -0.09800
H 	H 	0.30320 0.50900 0.20730 0.06500
C 	C 	0.21230 0.52716 0.14699 0.02800
H 	H 	0.27650 0.49780 0.13310 0.03200
C 	C 	0.10140 0.56326 0.12249 -0.10700
C 	C 	0.01130 0.60719 0.14346 0.03800
H 	H 	0.93770 0.63220 0.12730 0.04100
C 	C 	0.07830 0.55376 0.07465 0.32500
Ag	Ag	0.19524 0.27001 0.70931 0.52100
Ag	Ag	0.52785 0.94257 0.51584 0.52600
O 	O 	0.34360 0.19592 0.68598 -0.36200
O 	O 	0.45270 0.16747 0.75046 -0.38100
O 	O 	0.47940 0.08787 0.55365 -0.35200
O 	O 	0.65830 0.01167 0.55824 -0.38700
N 	N 	0.10860 0.31264 0.64246 -0.14900
N 	N 	0.01910 0.37421 0.56848 -0.15600
C 	C 	0.00090 0.35818 0.64437 0.00400
H 	H 	0.95390 0.36990 0.67140 0.03800
C 	C 	0.95710 0.38841 0.60745 0.01100
H 	H 	0.88060 0.42020 0.61010 0.03000
C 	C 	0.12460 0.32818 0.56662 0.01100
H 	H 	0.16950 0.31610 0.53950 0.02000
C 	C 	0.16960 0.29793 0.60325 0.00600
H 	H 	0.24550 0.26600 0.60050 0.03400
C 	C 	0.43340 0.16338 0.71003 0.31600
C 	C 	0.52880 0.11452 0.68817 -0.11400
C 	C 	0.63680 0.07723 0.71195 0.02600
H 	H 	0.64740 0.08140 0.74230 0.03200
C 	C 	0.72890 0.03392 0.69112 -0.09800
H 	H 	0.80320 0.00900 0.70730 0.06500
C 	C 	0.71230 0.02716 0.64699 0.02900
H 	H 	0.77650 0.99780 0.63310 0.03200
C 	C 	0.60140 0.06326 0.62249 -0.10700
C 	C 	0.51130 0.10719 0.64346 0.03900
H 	H 	0.43770 0.13220 0.62730 0.04000
C 	C 	0.57830 0.05376 0.57465 0.32600
Ag	Ag	0.19524 0.72999 0.79069 0.52100
Ag	Ag	0.52785 0.05743 0.98416 0.52600
O 	O 	0.34360 0.80408 0.81402 -0.36200
O 	O 	0.45270 0.83253 0.74954 -0.38100
O 	O 	0.47940 0.91213 0.94635 -0.35200
O 	O 	0.65830 0.98833 0.94176 -0.38700
N 	N 	0.10860 0.68736 0.85754 -0.14900
N 	N 	0.01910 0.62579 0.93152 -0.15600
C 	C 	0.00090 0.64182 0.85563 0.00400
H 	H 	0.95390 0.63010 0.82860 0.03800
C 	C 	0.95710 0.61159 0.89255 0.01100
H 	H 	0.88060 0.57980 0.88990 0.03000
C 	C 	0.12460 0.67182 0.93338 0.01100
H 	H 	0.16950 0.68390 0.96050 0.02000
C 	C 	0.16960 0.70207 0.89675 0.00600
H 	H 	0.24550 0.73400 0.89950 0.03400
C 	C 	0.43340 0.83662 0.78997 0.31600
C 	C 	0.52880 0.88548 0.81183 -0.11400
C 	C 	0.63680 0.92277 0.78805 0.02600
H 	H 	0.64740 0.91860 0.75770 0.03200
C 	C 	0.72890 0.96608 0.80888 -0.09800
H 	H 	0.80320 0.99100 0.79270 0.06500
C 	C 	0.71230 0.97284 0.85301 0.02900
H 	H 	0.77650 0.00220 0.86690 0.03200
C 	C 	0.60140 0.93674 0.87751 -0.10700
C 	C 	0.51130 0.89281 0.85654 0.03900
H 	H 	0.43770 0.86780 0.87270 0.04000
C 	C 	0.57830 0.94624 0.92535 0.32600
Ag	Ag	0.69524 0.22999 0.29069 0.52100
Ag	Ag	0.02785 0.55743 0.48416 0.52600
O 	O 	0.84360 0.30408 0.31402 -0.36200
O 	O 	0.95270 0.33253 0.24954 -0.38100
O 	O 	0.97940 0.41213 0.44635 -0.35200
O 	O 	0.15830 0.48833 0.44176 -0.38700
N 	N 	0.60860 0.18736 0.35754 -0.14800
N 	N 	0.51910 0.12579 0.43152 -0.15600
C 	C 	0.50090 0.14182 0.35563 0.00200
H 	H 	0.45390 0.13010 0.32860 0.03900
C 	C 	0.45710 0.11159 0.39255 0.01300
H 	H 	0.38060 0.07980 0.38990 0.02900
C 	C 	0.62460 0.17182 0.43338 0.01100
H 	H 	0.66950 0.18390 0.46050 0.02000
C 	C 	0.66960 0.20207 0.39675 0.00600
H 	H 	0.74550 0.23400 0.39950 0.03400
C 	C 	0.93340 0.33662 0.28997 0.31700
C 	C 	0.02880 0.38548 0.31183 -0.11500
C 	C 	0.13680 0.42277 0.28805 0.02600
H 	H 	0.14740 0.41860 0.25770 0.03200
C 	C 	0.22890 0.46608 0.30888 -0.09800
H 	H 	0.30320 0.49100 0.29270 0.06500
C 	C 	0.21230 0.47284 0.35301 0.02800
H 	H 	0.27650 0.50220 0.36690 0.03200
C 	C 	0.10140 0.43674 0.37751 -0.10700
C 	C 	0.01130 0.39281 0.35654 0.03800
H 	H 	0.93770 0.36780 0.37270 0.04100
C 	C 	0.07830 0.44624 0.42535 0.32500
Ag	Ag	0.30476 0.27001 0.29069 0.52100
Ag	Ag	0.97215 0.94257 0.48416 0.52600
O 	O 	0.15640 0.19592 0.31402 -0.36200
O 	O 	0.04730 0.16747 0.24954 -0.38100
O 	O 	0.02060 0.08787 0.44635 -0.35200
O 	O 	0.84170 0.01167 0.44176 -0.38700
N 	N 	0.39140 0.31264 0.35754 -0.14800
N 	N 	0.48090 0.37421 0.43152 -0.15600
C 	C 	0.49910 0.35818 0.35563 0.00200
H 	H 	0.54610 0.36990 0.32860 0.03900
C 	C 	0.54290 0.38841 0.39255 0.01300
H 	H 	0.61940 0.42020 0.38990 0.02900
C 	C 	0.37540 0.32818 0.43338 0.01100
H 	H 	0.33050 0.31610 0.46050 0.02000
C 	C 	0.33040 0.29793 0.39675 0.00600
H 	H 	0.25450 0.26600 0.39950 0.03400
C 	C 	0.06660 0.16338 0.28997 0.31700
C 	C 	0.97120 0.11452 0.31183 -0.11500
C 	C 	0.86320 0.07723 0.28805 0.02600
H 	H 	0.85260 0.08140 0.25770 0.03200
C 	C 	0.77110 0.03392 0.30888 -0.09800
H 	H 	0.69680 0.00900 0.29270 0.06500
C 	C 	0.78770 0.02716 0.35301 0.02800
H 	H 	0.72350 0.99780 0.36690 0.03100
C 	C 	0.89860 0.06326 0.37751 -0.10700
C 	C 	0.98870 0.10719 0.35654 0.03800
H 	H 	0.06230 0.13220 0.37270 0.04100
C 	C 	0.92170 0.05376 0.42535 0.32500
Ag	Ag	0.80476 0.77001 0.79069 0.52100
Ag	Ag	0.47215 0.44257 0.98416 0.52600
O 	O 	0.65640 0.69592 0.81402 -0.36200
O 	O 	0.54730 0.66747 0.74954 -0.38100
O 	O 	0.52060 0.58787 0.94635 -0.35200
O 	O 	0.34170 0.51167 0.94176 -0.38700
N 	N 	0.89140 0.81264 0.85754 -0.14900
N 	N 	0.98090 0.87421 0.93152 -0.15600
C 	C 	0.99910 0.85818 0.85563 0.00400
H 	H 	0.04610 0.86990 0.82860 0.03800
C 	C 	0.04290 0.88841 0.89255 0.01100
H 	H 	0.11940 0.92020 0.88990 0.03000
C 	C 	0.87540 0.82818 0.93338 0.01100
H 	H 	0.83050 0.81610 0.96050 0.02000
C 	C 	0.83040 0.79793 0.89675 0.00600
H 	H 	0.75450 0.76600 0.89950 0.03400
C 	C 	0.56660 0.66338 0.78997 0.31600
C 	C 	0.47120 0.61452 0.81183 -0.11400
C 	C 	0.36320 0.57723 0.78805 0.02600
H 	H 	0.35260 0.58140 0.75770 0.03200
C 	C 	0.27110 0.53392 0.80888 -0.09800
H 	H 	0.19680 0.50900 0.79270 0.06500
C 	C 	0.28770 0.52716 0.85301 0.02900
H 	H 	0.22350 0.49780 0.86690 0.03200
C 	C 	0.39860 0.56326 0.87751 -0.10700
C 	C 	0.48870 0.60719 0.85654 0.03900
H 	H 	0.56230 0.63220 0.87270 0.04000
C 	C 	0.42170 0.55376 0.92535 0.32600
