data_crystal

_cell_length_a 7.17280
_cell_length_b 23.75370
_cell_length_c 30.70100
_cell_angle_alpha 90.00000
_cell_angle_beta  90.00000
_cell_angle_gamma 90.00000

_symmetry_space_group_name_	'P 1'
_symmetry_space_group_name_H-M	'P 1'

loop_
_symmetry_equiv_pos_as_xyz
  x,y,z

loop_
_atom_site_label
_atom_site_type_symbol
_atom_site_fract_x
_atom_site_fract_y
_atom_site_fract_z
_atom_site_charge
Ag	Ag	0.19537 0.76997 0.29077 0.52100
Ag	Ag	0.53058 0.44286 0.48430 0.52600
O 	O 	0.34500 0.69583 0.31401 -0.36000
O 	O 	0.45380 0.66720 0.24919 -0.37800
O 	O 	0.48230 0.58781 0.44642 -0.35200
O 	O 	0.66120 0.51125 0.44156 -0.38600
N 	N 	0.10760 0.81258 0.35764 -0.14700
N 	N 	0.01720 0.87425 0.43158 -0.15500
C 	C 	0.99960 0.85830 0.35558 0.00200
H 	H 	0.95260 0.87030 0.32820 0.04100
C 	C 	0.95500 0.88851 0.39264 0.01400
H 	H 	0.87680 0.92060 0.39000 0.02900
C 	C 	0.12430 0.82818 0.43372 0.01100
H 	H 	0.17050 0.81630 0.46120 0.02000
C 	C 	0.16910 0.79756 0.39699 0.00600
H 	H 	0.24540 0.76510 0.39980 0.03400
C 	C 	0.43500 0.66348 0.28982 0.31200
C 	C 	0.53070 0.61453 0.31173 -0.11000
C 	C 	0.63940 0.57706 0.28768 0.02100
H 	H 	0.65010 0.58140 0.25700 0.03400
C 	C 	0.73210 0.53338 0.30865 -0.09200
H 	H 	0.80670 0.50790 0.29240 0.06300
C 	C 	0.71570 0.52709 0.35285 0.02500
H 	H 	0.78130 0.49760 0.36700 0.03300
C 	C 	0.60470 0.56322 0.37733 -0.10400
C 	C 	0.51340 0.60724 0.35645 0.03600
H 	H 	0.43870 0.63250 0.37290 0.04100
C 	C 	0.58100 0.55366 0.42540 0.32500
Ag	Ag	0.69537 0.26997 0.79077 0.52000
Ag	Ag	0.03058 0.94286 0.98430 0.52500
O 	O 	0.84500 0.19583 0.81401 -0.36200
O 	O 	0.95380 0.16720 0.74919 -0.37900
O 	O 	0.98230 0.08781 0.94642 -0.35300
O 	O 	0.16120 0.01125 0.94156 -0.38700
N 	N 	0.60760 0.31258 0.85764 -0.14800
N 	N 	0.51720 0.37425 0.93158 -0.15600
C 	C 	0.49960 0.35830 0.85558 0.00200
H 	H 	0.45260 0.37030 0.82820 0.04000
C 	C 	0.45500 0.38851 0.89264 0.01400
H 	H 	0.37680 0.42060 0.89000 0.02900
C 	C 	0.62430 0.32818 0.93372 0.01100
H 	H 	0.67050 0.31630 0.96120 0.02000
C 	C 	0.66910 0.29756 0.89699 0.00600
H 	H 	0.74540 0.26510 0.89980 0.03400
C 	C 	0.93500 0.16348 0.78982 0.31300
C 	C 	0.03070 0.11453 0.81173 -0.11100
C 	C 	0.13940 0.07706 0.78768 0.02100
H 	H 	0.15010 0.08140 0.75700 0.03400
C 	C 	0.23210 0.03338 0.80865 -0.09200
H 	H 	0.30670 0.00790 0.79240 0.06200
C 	C 	0.21570 0.02709 0.85285 0.02400
H 	H 	0.28130 0.99760 0.86700 0.03300
C 	C 	0.10470 0.06322 0.87733 -0.10300
C 	C 	0.01340 0.10724 0.85645 0.03500
H 	H 	0.93870 0.13250 0.87290 0.04200
C 	C 	0.08100 0.05366 0.92540 0.32400
Ag	Ag	0.30463 0.23003 0.79077 0.52000
Ag	Ag	0.96942 0.55714 0.98430 0.52500
O 	O 	0.15500 0.30417 0.81401 -0.36200
O 	O 	0.04620 0.33280 0.74919 -0.37900
O 	O 	0.01770 0.41219 0.94642 -0.35300
O 	O 	0.83880 0.48875 0.94156 -0.38700
N 	N 	0.39240 0.18742 0.85764 -0.14800
N 	N 	0.48280 0.12575 0.93158 -0.15600
C 	C 	0.50040 0.14170 0.85558 0.00200
H 	H 	0.54740 0.12970 0.82820 0.04000
C 	C 	0.54500 0.11149 0.89264 0.01400
H 	H 	0.62320 0.07940 0.89000 0.02900
C 	C 	0.37570 0.17182 0.93372 0.01100
H 	H 	0.32950 0.18370 0.96120 0.02000
C 	C 	0.33090 0.20244 0.89699 0.00600
H 	H 	0.25460 0.23490 0.89980 0.03400
C 	C 	0.06500 0.33652 0.78982 0.31300
C 	C 	0.96930 0.38547 0.81173 -0.11100
C 	C 	0.86060 0.42294 0.78768 0.02100
H 	H 	0.84990 0.41860 0.75700 0.03400
C 	C 	0.76790 0.46662 0.80865 -0.09200
H 	H 	0.69330 0.49210 0.79240 0.06200
C 	C 	0.78430 0.47291 0.85285 0.02500
H 	H 	0.71870 0.50240 0.86700 0.03300
C 	C 	0.89530 0.43678 0.87733 -0.10300
C 	C 	0.98660 0.39276 0.85645 0.03500
H 	H 	0.06130 0.36750 0.87290 0.04200
C 	C 	0.91900 0.44634 0.92540 0.32400
Ag	Ag	0.80463 0.73003 0.29077 0.52000
Ag	Ag	0.46942 0.05714 0.48430 0.52500
O 	O 	0.65500 0.80417 0.31401 -0.36100
O 	O 	0.54620 0.83280 0.24919 -0.37900
O 	O 	0.51770 0.91219 0.44642 -0.35300
O 	O 	0.33880 0.98875 0.44156 -0.38700
N 	N 	0.89240 0.68742 0.35764 -0.14800
N 	N 	0.98280 0.62575 0.43158 -0.15600
C 	C 	0.00040 0.64170 0.35558 0.00100
H 	H 	0.04740 0.62970 0.32820 0.04000
C 	C 	0.04500 0.61149 0.39264 0.01400
H 	H 	0.12320 0.57940 0.39000 0.02900
C 	C 	0.87570 0.67182 0.43372 0.01100
H 	H 	0.82950 0.68370 0.46120 0.02000
C 	C 	0.83090 0.70244 0.39699 0.00600
H 	H 	0.75460 0.73490 0.39980 0.03400
C 	C 	0.56500 0.83652 0.28982 0.31200
C 	C 	0.46930 0.88547 0.31173 -0.11000
C 	C 	0.36060 0.92294 0.28768 0.02100
H 	H 	0.34990 0.91860 0.25700 0.03400
C 	C 	0.26790 0.96662 0.30865 -0.09200
H 	H 	0.19330 0.99210 0.29240 0.06300
C 	C 	0.28430 0.97291 0.35285 0.02500
H 	H 	0.21870 0.00240 0.36700 0.03300
C 	C 	0.39530 0.93678 0.37733 -0.10400
C 	C 	0.48660 0.89276 0.35645 0.03600
H 	H 	0.56130 0.86750 0.37290 0.04100
C 	C 	0.41900 0.94634 0.42540 0.32500
Ag	Ag	0.80463 0.26997 0.20923 0.52000
Ag	Ag	0.46942 0.94286 0.01570 0.52500
O 	O 	0.65500 0.19583 0.18599 -0.36100
O 	O 	0.54620 0.16720 0.25081 -0.37900
O 	O 	0.51770 0.08781 0.05358 -0.35300
O 	O 	0.33880 0.01125 0.05844 -0.38700
N 	N 	0.89240 0.31258 0.14236 -0.14800
N 	N 	0.98280 0.37425 0.06842 -0.15600
C 	C 	0.00040 0.35830 0.14442 0.00100
H 	H 	0.04740 0.37030 0.17180 0.04000
C 	C 	0.04500 0.38851 0.10736 0.01400
H 	H 	0.12320 0.42060 0.11000 0.02900
C 	C 	0.87570 0.32818 0.06628 0.01100
H 	H 	0.82950 0.31630 0.03880 0.02000
C 	C 	0.83090 0.29756 0.10301 0.00600
H 	H 	0.75460 0.26510 0.10020 0.03400
C 	C 	0.56500 0.16348 0.21018 0.31200
C 	C 	0.46930 0.11453 0.18827 -0.11000
C 	C 	0.36060 0.07706 0.21232 0.02100
H 	H 	0.34990 0.08140 0.24300 0.03400
C 	C 	0.26790 0.03338 0.19135 -0.09200
H 	H 	0.19330 0.00790 0.20760 0.06300
C 	C 	0.28430 0.02709 0.14715 0.02500
H 	H 	0.21870 0.99760 0.13300 0.03300
C 	C 	0.39530 0.06322 0.12267 -0.10400
C 	C 	0.48660 0.10724 0.14355 0.03600
H 	H 	0.56130 0.13250 0.12710 0.04100
C 	C 	0.41900 0.05366 0.07460 0.32500
Ag	Ag	0.30463 0.76997 0.70923 0.52000
Ag	Ag	0.96942 0.44286 0.51570 0.52500
O 	O 	0.15500 0.69583 0.68599 -0.36200
O 	O 	0.04620 0.66720 0.75081 -0.37900
O 	O 	0.01770 0.58781 0.55358 -0.35300
O 	O 	0.83880 0.51125 0.55844 -0.38700
N 	N 	0.39240 0.81258 0.64236 -0.14800
N 	N 	0.48280 0.87425 0.56842 -0.15600
C 	C 	0.50040 0.85830 0.64442 0.00200
H 	H 	0.54740 0.87030 0.67180 0.04000
C 	C 	0.54500 0.88851 0.60736 0.01400
H 	H 	0.62320 0.92060 0.61000 0.02900
C 	C 	0.37570 0.82818 0.56628 0.01100
H 	H 	0.32950 0.81630 0.53880 0.02000
C 	C 	0.33090 0.79756 0.60301 0.00600
H 	H 	0.25460 0.76510 0.60020 0.03400
C 	C 	0.06500 0.66348 0.71018 0.31300
C 	C 	0.96930 0.61453 0.68827 -0.11100
C 	C 	0.86060 0.57706 0.71232 0.02100
H 	H 	0.84990 0.58140 0.74300 0.03400
C 	C 	0.76790 0.53338 0.69135 -0.09200
H 	H 	0.69330 0.50790 0.70760 0.06200
C 	C 	0.78430 0.52709 0.64715 0.02500
H 	H 	0.71870 0.49760 0.63300 0.03300
C 	C 	0.89530 0.56322 0.62267 -0.10300
C 	C 	0.98660 0.60724 0.64355 0.03500
H 	H 	0.06130 0.63250 0.62710 0.04200
C 	C 	0.91900 0.55366 0.57460 0.32400
Ag	Ag	0.69537 0.73003 0.70923 0.52000
Ag	Ag	0.03058 0.05714 0.51570 0.52500
O 	O 	0.84500 0.80417 0.68599 -0.36200
O 	O 	0.95380 0.83280 0.75081 -0.37900
O 	O 	0.98230 0.91219 0.55358 -0.35300
O 	O 	0.16120 0.98875 0.55844 -0.38700
N 	N 	0.60760 0.68742 0.64236 -0.14800
N 	N 	0.51720 0.62575 0.56842 -0.15600
C 	C 	0.49960 0.64170 0.64442 0.00200
H 	H 	0.45260 0.62970 0.67180 0.04000
C 	C 	0.45500 0.61149 0.60736 0.01400
H 	H 	0.37680 0.57940 0.61000 0.02900
C 	C 	0.62430 0.67182 0.56628 0.01100
H 	H 	0.67050 0.68370 0.53880 0.02000
C 	C 	0.66910 0.70244 0.60301 0.00600
H 	H 	0.74540 0.73490 0.60020 0.03400
C 	C 	0.93500 0.83652 0.71018 0.31300
C 	C 	0.03070 0.88547 0.68827 -0.11100
C 	C 	0.13940 0.92294 0.71232 0.02100
H 	H 	0.15010 0.91860 0.74300 0.03400
C 	C 	0.23210 0.96662 0.69135 -0.09200
H 	H 	0.30670 0.99210 0.70760 0.06200
C 	C 	0.21570 0.97291 0.64715 0.02500
H 	H 	0.28130 0.00240 0.63300 0.03300
C 	C 	0.10470 0.93678 0.62267 -0.10300
C 	C 	0.01340 0.89276 0.64355 0.03500
H 	H 	0.93870 0.86750 0.62710 0.04200
C 	C 	0.08100 0.94634 0.57460 0.32400
Ag	Ag	0.19537 0.23003 0.20923 0.52000
Ag	Ag	0.53058 0.55714 0.01570 0.52500
O 	O 	0.34500 0.30417 0.18599 -0.36100
O 	O 	0.45380 0.33280 0.25081 -0.37900
O 	O 	0.48230 0.41219 0.05358 -0.35300
O 	O 	0.66120 0.48875 0.05844 -0.38700
N 	N 	0.10760 0.18742 0.14236 -0.14800
N 	N 	0.01720 0.12575 0.06842 -0.15600
C 	C 	0.99960 0.14170 0.14442 0.00100
H 	H 	0.95260 0.12970 0.17180 0.04000
C 	C 	0.95500 0.11149 0.10736 0.01400
H 	H 	0.87680 0.07940 0.11000 0.02900
C 	C 	0.12430 0.17182 0.06628 0.01100
H 	H 	0.17050 0.18370 0.03880 0.02000
C 	C 	0.16910 0.20244 0.10301 0.00600
H 	H 	0.24540 0.23490 0.10020 0.03400
C 	C 	0.43500 0.33652 0.21018 0.31200
C 	C 	0.53070 0.38547 0.18827 -0.11000
C 	C 	0.63940 0.42294 0.21232 0.02100
H 	H 	0.65010 0.41860 0.24300 0.03400
C 	C 	0.73210 0.46662 0.19135 -0.09200
H 	H 	0.80670 0.49210 0.20760 0.06300
C 	C 	0.71570 0.47291 0.14715 0.02500
H 	H 	0.78130 0.50240 0.13300 0.03300
C 	C 	0.60470 0.43678 0.12267 -0.10400
C 	C 	0.51340 0.39276 0.14355 0.03600
H 	H 	0.43870 0.36750 0.12710 0.04100
C 	C 	0.58100 0.44634 0.07460 0.32500
Ag	Ag	0.80463 0.23003 0.70923 0.52000
Ag	Ag	0.46942 0.55714 0.51570 0.52500
O 	O 	0.65500 0.30417 0.68599 -0.36100
O 	O 	0.54620 0.33280 0.75081 -0.37900
O 	O 	0.51770 0.41219 0.55358 -0.35300
O 	O 	0.33880 0.48875 0.55844 -0.38700
N 	N 	0.89240 0.18742 0.64236 -0.14800
N 	N 	0.98280 0.12575 0.56842 -0.15600
C 	C 	0.00040 0.14170 0.64442 0.00100
H 	H 	0.04740 0.12970 0.67180 0.04000
C 	C 	0.04500 0.11149 0.60736 0.01400
H 	H 	0.12320 0.07940 0.61000 0.02900
C 	C 	0.87570 0.17182 0.56628 0.01100
H 	H 	0.82950 0.18370 0.53880 0.02000
C 	C 	0.83090 0.20244 0.60301 0.00600
H 	H 	0.75460 0.23490 0.60020 0.03400
C 	C 	0.56500 0.33652 0.71018 0.31200
C 	C 	0.46930 0.38547 0.68827 -0.11000
C 	C 	0.36060 0.42294 0.71232 0.02100
H 	H 	0.34990 0.41860 0.74300 0.03400
C 	C 	0.26790 0.46662 0.69135 -0.09200
H 	H 	0.19330 0.49210 0.70760 0.06300
C 	C 	0.28430 0.47291 0.64715 0.02500
H 	H 	0.21870 0.50240 0.63300 0.03300
C 	C 	0.39530 0.43678 0.62267 -0.10400
C 	C 	0.48660 0.39276 0.64355 0.03600
H 	H 	0.56130 0.36750 0.62710 0.04100
C 	C 	0.41900 0.44634 0.57460 0.32500
Ag	Ag	0.30463 0.73003 0.20923 0.52000
Ag	Ag	0.96942 0.05714 0.01570 0.52500
O 	O 	0.15500 0.80417 0.18599 -0.36200
O 	O 	0.04620 0.83280 0.25081 -0.37900
O 	O 	0.01770 0.91219 0.05358 -0.35300
O 	O 	0.83880 0.98875 0.05844 -0.38700
N 	N 	0.39240 0.68742 0.14236 -0.14800
N 	N 	0.48280 0.62575 0.06842 -0.15600
C 	C 	0.50040 0.64170 0.14442 0.00200
H 	H 	0.54740 0.62970 0.17180 0.04000
C 	C 	0.54500 0.61149 0.10736 0.01400
H 	H 	0.62320 0.57940 0.11000 0.02900
C 	C 	0.37570 0.67182 0.06628 0.01100
H 	H 	0.32950 0.68370 0.03880 0.02000
C 	C 	0.33090 0.70244 0.10301 0.00600
H 	H 	0.25460 0.73490 0.10020 0.03400
C 	C 	0.06500 0.83652 0.21018 0.31300
C 	C 	0.96930 0.88547 0.18827 -0.11100
C 	C 	0.86060 0.92294 0.21232 0.02100
H 	H 	0.84990 0.91860 0.24300 0.03400
C 	C 	0.76790 0.96662 0.19135 -0.09200
H 	H 	0.69330 0.99210 0.20760 0.06200
C 	C 	0.78430 0.97291 0.14715 0.02400
H 	H 	0.71870 0.00240 0.13300 0.03300
C 	C 	0.89530 0.93678 0.12267 -0.10300
C 	C 	0.98660 0.89276 0.14355 0.03500
H 	H 	0.06130 0.86750 0.12710 0.04200
C 	C 	0.91900 0.94634 0.07460 0.32400
Ag	Ag	0.69537 0.76997 0.20923 0.52000
Ag	Ag	0.03058 0.44286 0.01570 0.52500
O 	O 	0.84500 0.69583 0.18599 -0.36200
O 	O 	0.95380 0.66720 0.25081 -0.37900
O 	O 	0.98230 0.58781 0.05358 -0.35300
O 	O 	0.16120 0.51125 0.05844 -0.38700
N 	N 	0.60760 0.81258 0.14236 -0.14800
N 	N 	0.51720 0.87425 0.06842 -0.15600
C 	C 	0.49960 0.85830 0.14442 0.00200
H 	H 	0.45260 0.87030 0.17180 0.04000
C 	C 	0.45500 0.88851 0.10736 0.01400
H 	H 	0.37680 0.92060 0.11000 0.02900
C 	C 	0.62430 0.82818 0.06628 0.01100
H 	H 	0.67050 0.81630 0.03880 0.02000
C 	C 	0.66910 0.79756 0.10301 0.00600
H 	H 	0.74540 0.76510 0.10020 0.03400
C 	C 	0.93500 0.66348 0.21018 0.31300
C 	C 	0.03070 0.61453 0.18827 -0.11100
C 	C 	0.13940 0.57706 0.21232 0.02100
H 	H 	0.15010 0.58140 0.24300 0.03400
C 	C 	0.23210 0.53338 0.19135 -0.09200
H 	H 	0.30670 0.50790 0.20760 0.06200
C 	C 	0.21570 0.52709 0.14715 0.02500
H 	H 	0.28130 0.49760 0.13300 0.03300
C 	C 	0.10470 0.56322 0.12267 -0.10300
C 	C 	0.01340 0.60724 0.14355 0.03500
H 	H 	0.93870 0.63250 0.12710 0.04200
C 	C 	0.08100 0.55366 0.07460 0.32400
Ag	Ag	0.19537 0.26997 0.70923 0.52000
Ag	Ag	0.53058 0.94286 0.51570 0.52500
O 	O 	0.34500 0.19583 0.68599 -0.36100
O 	O 	0.45380 0.16720 0.75081 -0.37900
O 	O 	0.48230 0.08781 0.55358 -0.35300
O 	O 	0.66120 0.01125 0.55844 -0.38700
N 	N 	0.10760 0.31258 0.64236 -0.14800
N 	N 	0.01720 0.37425 0.56842 -0.15600
C 	C 	0.99960 0.35830 0.64442 0.00100
H 	H 	0.95260 0.37030 0.67180 0.04000
C 	C 	0.95500 0.38851 0.60736 0.01400
H 	H 	0.87680 0.42060 0.61000 0.02900
C 	C 	0.12430 0.32818 0.56628 0.01100
H 	H 	0.17050 0.31630 0.53880 0.02000
C 	C 	0.16910 0.29756 0.60301 0.00600
H 	H 	0.24540 0.26510 0.60020 0.03400
C 	C 	0.43500 0.16348 0.71018 0.31200
C 	C 	0.53070 0.11453 0.68827 -0.11000
C 	C 	0.63940 0.07706 0.71232 0.02100
H 	H 	0.65010 0.08140 0.74300 0.03400
C 	C 	0.73210 0.03338 0.69135 -0.09200
H 	H 	0.80670 0.00790 0.70760 0.06300
C 	C 	0.71570 0.02709 0.64715 0.02500
H 	H 	0.78130 0.99760 0.63300 0.03300
C 	C 	0.60470 0.06322 0.62267 -0.10400
C 	C 	0.51340 0.10724 0.64355 0.03600
H 	H 	0.43870 0.13250 0.62710 0.04100
C 	C 	0.58100 0.05366 0.57460 0.32500
Ag	Ag	0.19537 0.73003 0.79077 0.52000
Ag	Ag	0.53058 0.05714 0.98430 0.52500
O 	O 	0.34500 0.80417 0.81401 -0.36100
O 	O 	0.45380 0.83280 0.74919 -0.37900
O 	O 	0.48230 0.91219 0.94642 -0.35300
O 	O 	0.66120 0.98875 0.94156 -0.38700
N 	N 	0.10760 0.68742 0.85764 -0.14800
N 	N 	0.01720 0.62575 0.93158 -0.15600
C 	C 	0.99960 0.64170 0.85558 0.00100
H 	H 	0.95260 0.62970 0.82820 0.04000
C 	C 	0.95500 0.61149 0.89264 0.01400
H 	H 	0.87680 0.57940 0.89000 0.02900
C 	C 	0.12430 0.67182 0.93372 0.01100
H 	H 	0.17050 0.68370 0.96120 0.02000
C 	C 	0.16910 0.70244 0.89699 0.00600
H 	H 	0.24540 0.73490 0.89980 0.03400
C 	C 	0.43500 0.83652 0.78982 0.31200
C 	C 	0.53070 0.88547 0.81173 -0.11000
C 	C 	0.63940 0.92294 0.78768 0.02100
H 	H 	0.65010 0.91860 0.75700 0.03400
C 	C 	0.73210 0.96662 0.80865 -0.09200
H 	H 	0.80670 0.99210 0.79240 0.06300
C 	C 	0.71570 0.97291 0.85285 0.02500
H 	H 	0.78130 0.00240 0.86700 0.03300
C 	C 	0.60470 0.93678 0.87733 -0.10400
C 	C 	0.51340 0.89276 0.85645 0.03600
H 	H 	0.43870 0.86750 0.87290 0.04100
C 	C 	0.58100 0.94634 0.92540 0.32500
Ag	Ag	0.69537 0.23003 0.29077 0.52000
Ag	Ag	0.03058 0.55714 0.48430 0.52500
O 	O 	0.84500 0.30417 0.31401 -0.36200
O 	O 	0.95380 0.33280 0.24919 -0.37900
O 	O 	0.98230 0.41219 0.44642 -0.35300
O 	O 	0.16120 0.48875 0.44156 -0.38700
N 	N 	0.60760 0.18742 0.35764 -0.14800
N 	N 	0.51720 0.12575 0.43158 -0.15600
C 	C 	0.49960 0.14170 0.35558 0.00200
H 	H 	0.45260 0.12970 0.32820 0.04000
C 	C 	0.45500 0.11149 0.39264 0.01400
H 	H 	0.37680 0.07940 0.39000 0.02900
C 	C 	0.62430 0.17182 0.43372 0.01100
H 	H 	0.67050 0.18370 0.46120 0.02000
C 	C 	0.66910 0.20244 0.39699 0.00600
H 	H 	0.74540 0.23490 0.39980 0.03400
C 	C 	0.93500 0.33652 0.28982 0.31300
C 	C 	0.03070 0.38547 0.31173 -0.11100
C 	C 	0.13940 0.42294 0.28768 0.02100
H 	H 	0.15010 0.41860 0.25700 0.03400
C 	C 	0.23210 0.46662 0.30865 -0.09200
H 	H 	0.30670 0.49210 0.29240 0.06200
C 	C 	0.21570 0.47291 0.35285 0.02500
H 	H 	0.28130 0.50240 0.36700 0.03300
C 	C 	0.10470 0.43678 0.37733 -0.10300
C 	C 	0.01340 0.39276 0.35645 0.03500
H 	H 	0.93870 0.36750 0.37290 0.04200
C 	C 	0.08100 0.44634 0.42540 0.32400
Ag	Ag	0.30463 0.26997 0.29077 0.52000
Ag	Ag	0.96942 0.94286 0.48430 0.52500
O 	O 	0.15500 0.19583 0.31401 -0.36200
O 	O 	0.04620 0.16720 0.24919 -0.37900
O 	O 	0.01770 0.08781 0.44642 -0.35300
O 	O 	0.83880 0.01125 0.44156 -0.38700
N 	N 	0.39240 0.31258 0.35764 -0.14800
N 	N 	0.48280 0.37425 0.43158 -0.15600
C 	C 	0.50040 0.35830 0.35558 0.00200
H 	H 	0.54740 0.37030 0.32820 0.04000
C 	C 	0.54500 0.38851 0.39264 0.01400
H 	H 	0.62320 0.42060 0.39000 0.02900
C 	C 	0.37570 0.32818 0.43372 0.01100
H 	H 	0.32950 0.31630 0.46120 0.02000
C 	C 	0.33090 0.29756 0.39699 0.00600
H 	H 	0.25460 0.26510 0.39980 0.03400
C 	C 	0.06500 0.16348 0.28982 0.31300
C 	C 	0.96930 0.11453 0.31173 -0.11100
C 	C 	0.86060 0.07706 0.28768 0.02100
H 	H 	0.84990 0.08140 0.25700 0.03400
C 	C 	0.76790 0.03338 0.30865 -0.09200
H 	H 	0.69330 0.00790 0.29240 0.06200
C 	C 	0.78430 0.02709 0.35285 0.02500
H 	H 	0.71870 0.99760 0.36700 0.03300
C 	C 	0.89530 0.06322 0.37733 -0.10300
C 	C 	0.98660 0.10724 0.35645 0.03500
H 	H 	0.06130 0.13250 0.37290 0.04200
C 	C 	0.91900 0.05366 0.42540 0.32400
Ag	Ag	0.80463 0.76997 0.79077 0.52000
Ag	Ag	0.46942 0.44286 0.98430 0.52500
O 	O 	0.65500 0.69583 0.81401 -0.36100
O 	O 	0.54620 0.66720 0.74919 -0.37900
O 	O 	0.51770 0.58781 0.94642 -0.35300
O 	O 	0.33880 0.51125 0.94156 -0.38700
N 	N 	0.89240 0.81258 0.85764 -0.14800
N 	N 	0.98280 0.87425 0.93158 -0.15600
C 	C 	0.00040 0.85830 0.85558 0.00100
H 	H 	0.04740 0.87030 0.82820 0.04000
C 	C 	0.04500 0.88851 0.89264 0.01400
H 	H 	0.12320 0.92060 0.89000 0.02900
C 	C 	0.87570 0.82818 0.93372 0.01100
H 	H 	0.82950 0.81630 0.96120 0.02000
C 	C 	0.83090 0.79756 0.89699 0.00600
H 	H 	0.75460 0.76510 0.89980 0.03400
C 	C 	0.56500 0.66348 0.78982 0.31200
C 	C 	0.46930 0.61453 0.81173 -0.11000
C 	C 	0.36060 0.57706 0.78768 0.02100
H 	H 	0.34990 0.58140 0.75700 0.03400
C 	C 	0.26790 0.53338 0.80865 -0.09200
H 	H 	0.19330 0.50790 0.79240 0.06300
C 	C 	0.28430 0.52709 0.85285 0.02500
H 	H 	0.21870 0.49760 0.86700 0.03300
C 	C 	0.39530 0.56322 0.87733 -0.10400
C 	C 	0.48660 0.60724 0.85645 0.03600
H 	H 	0.56130 0.63250 0.87290 0.04100
C 	C 	0.41900 0.55366 0.92540 0.32500
