data_crystal

_cell_length_a 14.26240
_cell_length_b 23.82600
_cell_length_c 30.75000
_cell_angle_alpha 90.00000
_cell_angle_beta  90.00000
_cell_angle_gamma 90.00000

_symmetry_space_group_name_	'P 1'
_symmetry_space_group_name_H-M	'P 1'

loop_
_symmetry_equiv_pos_as_xyz
  x,y,z

loop_
_atom_site_label
_atom_site_type_symbol
_atom_site_fract_x
_atom_site_fract_y
_atom_site_fract_z
_atom_site_charge
O 	O 	0.28280 0.90960 0.94980 -0.35800
Ag	Ag	0.29983 0.93476 0.01929 0.52900
N 	N 	0.24320 0.87320 0.07180 -0.15500
O 	O 	0.34610 0.00420 0.06810 -0.38400
C 	C 	0.19290 0.82660 0.06900 0.01100
C 	C 	0.26880 0.88760 0.11200 0.01400
C 	C 	0.16510 0.79600 0.10490 0.00900
H 	H 	0.17510 0.81360 0.04100 0.02100
C 	C 	0.24280 0.85740 0.14830 -0.00400
H 	H 	0.30660 0.92010 0.11580 0.02900
N 	N 	0.18960 0.81030 0.14440 -0.15000
H 	H 	0.12710 0.76360 0.10070 0.03300
H 	H 	0.26210 0.86960 0.17630 0.03600
Ag	Ag	0.14891 0.76642 0.21114 0.52100
O 	O 	0.22390 0.82650 0.25340 -0.38400
O 	O 	0.07150 0.69500 0.18400 -0.36400
C 	C 	0.20890 0.83010 0.29350 0.30600
C 	C 	0.02840 0.65910 0.20570 0.31700
O 	O 	0.15950 0.79750 0.31610 -0.34900
C 	C 	0.25770 0.87920 0.31660 -0.10400
O 	O 	0.01900 0.65880 0.24620 -0.37700
C 	C 	0.98550 0.61300 0.17970 -0.12000
Ag	Ag	0.08746 0.72217 0.28938 0.52000
C 	C 	0.31530 0.91390 0.29370 0.00900
C 	C 	0.24340 0.88650 0.36070 0.02500
C 	C 	0.92750 0.57130 0.20000 0.02300
C 	C 	0.99490 0.61070 0.13490 0.04500
N 	N 	0.04530 0.68330 0.35630 -0.14900
H 	H 	0.32340 0.90800 0.26340 0.03500
C 	C 	0.36250 0.95790 0.31360 -0.08300
C 	C 	0.28880 0.93100 0.38230 -0.09700
H 	H 	0.20340 0.86180 0.37620 0.04200
C 	C 	0.88560 0.53070 0.17430 -0.09900
H 	H 	0.91800 0.57160 0.23050 0.03200
C 	C 	0.95330 0.56920 0.11070 -0.11300
H 	H 	0.03110 0.63860 0.12060 0.03800
Ag	Ag	0.97775 0.55554 0.48556 0.52700
C 	C 	0.98670 0.63990 0.35680 0.00700
C 	C 	0.08310 0.69860 0.39600 -0.00500
C 	C 	0.34870 0.96580 0.35890 0.01400
H 	H 	0.40280 0.98190 0.29750 0.05900
C 	C 	0.27330 0.94150 0.42970 0.31100
C 	C 	0.89580 0.52980 0.13060 0.03200
H 	H 	0.84850 0.50250 0.18780 0.06600
C 	C 	0.96940 0.56600 0.06290 0.30600
O 	O 	0.99120 0.58410 0.55300 -0.34800
C 	C 	0.96220 0.61210 0.39500 0.00500
H 	H 	0.96050 0.62740 0.33010 0.03400
C 	C 	0.06080 0.66980 0.43290 0.01700
H 	H 	0.12510 0.72950 0.39760 0.03900
H 	H 	0.38080 0.99530 0.37350 0.03700
O 	O 	0.31530 0.98390 0.44580 -0.37300
H 	H 	0.86400 0.50240 0.11370 0.02100
O 	O 	0.02490 0.60230 0.04450 -0.33200
O 	O 	0.92900 0.52910 0.03990 -0.40800
C 	C 	0.03920 0.55050 0.57690 0.32300
N 	N 	0.00350 0.62570 0.43230 -0.15200
H 	H 	0.91600 0.58340 0.39440 0.03700
H 	H 	0.08680 0.68160 0.45990 0.02000
Ag	Ag	0.25162 0.04887 0.49337 0.52300
Ag	Ag	0.00058 0.56029 0.97117 0.53800
O 	O 	0.07620 0.50690 0.56250 -0.38000
C 	C 	0.04720 0.56320 0.62480 -0.10500
N 	N 	0.98320 0.62720 0.91990 -0.16100
C 	C 	0.10020 0.52830 0.65150 0.02700
C 	C 	0.00280 0.60840 0.64260 0.03800
C 	C 	0.93500 0.67420 0.92510 0.01700
C 	C 	0.00760 0.61340 0.87980 0.01600
C 	C 	0.10590 0.53740 0.69510 -0.09400
H 	H 	0.13300 0.49760 0.63900 0.03200
C 	C 	0.00790 0.61890 0.68710 -0.10700
H 	H 	0.96800 0.63300 0.62440 0.04200
C 	C 	0.90800 0.70650 0.88970 0.00100
H 	H 	0.91840 0.68590 0.95360 0.01700
C 	C 	0.98420 0.64720 0.84460 0.01000
H 	H 	0.04180 0.57970 0.87490 0.02100
C 	C 	0.05940 0.58160 0.71390 0.02000
H 	H 	0.14250 0.51290 0.71260 0.06400
C 	C 	0.95770 0.66930 0.70610 0.31100
N 	N 	0.93640 0.69320 0.84890 -0.14800
H 	H 	0.86930 0.73840 0.89420 0.03400
H 	H 	0.00400 0.63630 0.81630 0.03900
H 	H 	0.06160 0.58700 0.74450 0.03300
O 	O 	0.96640 0.67630 0.74700 -0.38200
O 	O 	0.91580 0.70020 0.68010 -0.36100
Ag	Ag	0.88874 0.73891 0.78350 0.51800
Ag	Ag	0.84176 0.77721 0.70043 0.51300
O 	O 	0.81370 0.81140 0.80570 -0.36500
O 	O 	0.77320 0.84420 0.73940 -0.36600
N 	N 	0.79710 0.81610 0.63260 -0.14700
C 	C 	0.77470 0.84620 0.78000 0.29600
C 	C 	0.82740 0.80070 0.59360 0.01000
C 	C 	0.74300 0.86300 0.63450 -0.00300
C 	C 	0.72610 0.89620 0.80170 -0.09000
C 	C 	0.81150 0.83080 0.55680 0.00600
H 	H 	0.86210 0.76690 0.59130 0.03300
C 	C 	0.72590 0.89210 0.59700 0.01500
H 	H 	0.71750 0.87540 0.66130 0.04300
C 	C 	0.73550 0.90190 0.84620 0.02200
C 	C 	0.67730 0.93330 0.77740 0.01300
H 	H 	0.83820 0.81900 0.53000 0.02300
N 	N 	0.75760 0.87750 0.55810 -0.15300
H 	H 	0.68880 0.92510 0.59900 0.03000
C 	C 	0.68970 0.94720 0.86730 -0.09300
H 	H 	0.77210 0.87600 0.86240 0.04600
C 	C 	0.62970 0.97790 0.79820 -0.08300
H 	H 	0.67500 0.92950 0.74670 0.03800
C 	C 	0.63630 0.98390 0.84190 0.01400
C 	C 	0.69930 0.95600 0.91560 0.31400
H 	H 	0.59330 0.00360 0.78170 0.05900
O 	O 	0.75450 0.92000 0.43700 -0.34600
H 	H 	0.60380 0.01380 0.85570 0.03700
O 	O 	0.21720 0.59040 0.94980 -0.35700
Ag	Ag	0.20017 0.56524 0.01929 0.53000
N 	N 	0.25680 0.62680 0.07180 -0.15400
O 	O 	0.15390 0.49580 0.06810 -0.38300
C 	C 	0.30710 0.67340 0.06900 0.01200
C 	C 	0.23120 0.61240 0.11200 0.01500
C 	C 	0.33490 0.70400 0.10490 0.01000
H 	H 	0.32490 0.68640 0.04100 0.02200
C 	C 	0.25720 0.64260 0.14830 -0.00300
H 	H 	0.19340 0.57990 0.11580 0.03000
N 	N 	0.31040 0.68970 0.14440 -0.14900
H 	H 	0.37290 0.73640 0.10070 0.03400
H 	H 	0.23790 0.63040 0.17630 0.03700
Ag	Ag	0.35109 0.73358 0.21114 0.52200
O 	O 	0.27610 0.67350 0.25340 -0.38300
O 	O 	0.42850 0.80500 0.18400 -0.36300
C 	C 	0.29110 0.66990 0.29350 0.30700
C 	C 	0.47160 0.84090 0.20570 0.31800
O 	O 	0.34050 0.70250 0.31610 -0.34800
C 	C 	0.24230 0.62080 0.31660 -0.10300
O 	O 	0.48100 0.84120 0.24620 -0.37600
C 	C 	0.51450 0.88700 0.17970 -0.11900
Ag	Ag	0.41254 0.77783 0.28938 0.52100
C 	C 	0.18470 0.58610 0.29370 0.01000
C 	C 	0.25660 0.61350 0.36070 0.02600
C 	C 	0.57250 0.92870 0.20000 0.02400
C 	C 	0.50510 0.88930 0.13490 0.04500
N 	N 	0.45470 0.81670 0.35630 -0.14800
H 	H 	0.17660 0.59200 0.26340 0.03600
C 	C 	0.13750 0.54210 0.31360 -0.08200
C 	C 	0.21120 0.56900 0.38230 -0.09500
H 	H 	0.29660 0.63820 0.37620 0.04300
C 	C 	0.61440 0.96930 0.17430 -0.09800
H 	H 	0.58200 0.92840 0.23050 0.03300
C 	C 	0.54670 0.93080 0.11070 -0.11300
H 	H 	0.46890 0.86140 0.12060 0.03800
Ag	Ag	0.52225 0.94446 0.48556 0.52700
C 	C 	0.51330 0.86010 0.35680 0.00700
C 	C 	0.41690 0.80140 0.39600 -0.00500
C 	C 	0.15130 0.53420 0.35890 0.01400
H 	H 	0.09720 0.51810 0.29750 0.05900
C 	C 	0.22670 0.55850 0.42970 0.31100
C 	C 	0.60420 0.97020 0.13060 0.03200
H 	H 	0.65150 0.99750 0.18780 0.06600
C 	C 	0.53060 0.93400 0.06290 0.30600
O 	O 	0.50880 0.91590 0.55300 -0.34800
C 	C 	0.53780 0.88790 0.39500 0.00500
H 	H 	0.53950 0.87260 0.33010 0.03400
C 	C 	0.43920 0.83020 0.43290 0.01700
H 	H 	0.37490 0.77050 0.39760 0.03900
H 	H 	0.11920 0.50470 0.37350 0.03700
O 	O 	0.18470 0.51610 0.44580 -0.37300
H 	H 	0.63600 0.99760 0.11370 0.02100
O 	O 	0.47510 0.89770 0.04450 -0.33200
O 	O 	0.57100 0.97090 0.03990 -0.40800
C 	C 	0.46080 0.94950 0.57690 0.32300
N 	N 	0.49650 0.87430 0.43230 -0.15200
H 	H 	0.58400 0.91660 0.39440 0.03700
H 	H 	0.41320 0.81840 0.45990 0.02000
Ag	Ag	0.24838 0.45113 0.49337 0.52300
Ag	Ag	0.49942 0.93971 0.97117 0.53800
O 	O 	0.42380 0.99310 0.56250 -0.38000
C 	C 	0.45280 0.93680 0.62480 -0.10500
N 	N 	0.51680 0.87280 0.91990 -0.16100
C 	C 	0.39980 0.97170 0.65150 0.02700
C 	C 	0.49720 0.89160 0.64260 0.03800
C 	C 	0.56500 0.82580 0.92510 0.01700
C 	C 	0.49240 0.88660 0.87980 0.01600
C 	C 	0.39410 0.96260 0.69510 -0.09400
H 	H 	0.36700 0.00240 0.63900 0.03200
C 	C 	0.49210 0.88110 0.68710 -0.10700
H 	H 	0.53200 0.86700 0.62440 0.04200
C 	C 	0.59200 0.79350 0.88970 0.00100
H 	H 	0.58160 0.81410 0.95360 0.01700
C 	C 	0.51580 0.85280 0.84460 0.01000
H 	H 	0.45820 0.92030 0.87490 0.02000
C 	C 	0.44060 0.91840 0.71390 0.02000
H 	H 	0.35750 0.98710 0.71260 0.06300
C 	C 	0.54230 0.83070 0.70610 0.31100
N 	N 	0.56360 0.80680 0.84890 -0.14800
H 	H 	0.63070 0.76160 0.89420 0.03400
H 	H 	0.49600 0.86370 0.81630 0.03900
H 	H 	0.43840 0.91300 0.74450 0.03300
O 	O 	0.53360 0.82370 0.74700 -0.38200
O 	O 	0.58420 0.79980 0.68010 -0.36100
Ag	Ag	0.61126 0.76109 0.78350 0.51800
Ag	Ag	0.65824 0.72279 0.70043 0.51300
O 	O 	0.68630 0.68860 0.80570 -0.36500
O 	O 	0.72680 0.65580 0.73940 -0.36600
N 	N 	0.70290 0.68390 0.63260 -0.14700
C 	C 	0.72530 0.65380 0.78000 0.29600
C 	C 	0.67260 0.69930 0.59360 0.01000
C 	C 	0.75700 0.63700 0.63450 -0.00300
C 	C 	0.77390 0.60380 0.80170 -0.09000
C 	C 	0.68850 0.66920 0.55680 0.00600
H 	H 	0.63790 0.73310 0.59130 0.03300
C 	C 	0.77410 0.60790 0.59700 0.01500
H 	H 	0.78250 0.62460 0.66130 0.04300
C 	C 	0.76450 0.59810 0.84620 0.02200
C 	C 	0.82270 0.56670 0.77740 0.01300
H 	H 	0.66180 0.68100 0.53000 0.02300
N 	N 	0.74240 0.62250 0.55810 -0.15300
H 	H 	0.81120 0.57490 0.59900 0.03000
C 	C 	0.81030 0.55280 0.86730 -0.09300
H 	H 	0.72790 0.62400 0.86240 0.04600
C 	C 	0.87030 0.52210 0.79820 -0.08300
H 	H 	0.82500 0.57050 0.74670 0.03800
C 	C 	0.86370 0.51610 0.84190 0.01400
C 	C 	0.80070 0.54400 0.91560 0.31400
H 	H 	0.90670 0.49640 0.78170 0.05900
O 	O 	0.74550 0.58000 0.43700 -0.34600
H 	H 	0.89620 0.48620 0.85570 0.03700
O 	O 	0.71720 0.40960 0.55020 -0.35700
Ag	Ag	0.70017 0.43476 0.48071 0.53000
N 	N 	0.75680 0.37320 0.42820 -0.15400
O 	O 	0.65390 0.50420 0.43190 -0.38300
C 	C 	0.80710 0.32660 0.43100 0.01200
C 	C 	0.73120 0.38760 0.38800 0.01500
C 	C 	0.83490 0.29600 0.39510 0.01000
H 	H 	0.82490 0.31360 0.45900 0.02100
C 	C 	0.75720 0.35740 0.35170 -0.00300
H 	H 	0.69340 0.42010 0.38420 0.03000
N 	N 	0.81040 0.31030 0.35560 -0.14900
H 	H 	0.87290 0.26360 0.39930 0.03400
H 	H 	0.73790 0.36960 0.32370 0.03700
Ag	Ag	0.85109 0.26642 0.28886 0.52200
O 	O 	0.77610 0.32650 0.24660 -0.38300
O 	O 	0.92850 0.19500 0.31600 -0.36300
C 	C 	0.79110 0.33010 0.20650 0.30700
C 	C 	0.97160 0.15910 0.29430 0.31800
O 	O 	0.84050 0.29750 0.18390 -0.34800
C 	C 	0.74230 0.37920 0.18340 -0.10300
O 	O 	0.98100 0.15880 0.25380 -0.37600
C 	C 	0.01450 0.11300 0.32030 -0.11900
Ag	Ag	0.91254 0.22217 0.21062 0.52100
C 	C 	0.68470 0.41390 0.20630 0.01000
C 	C 	0.75660 0.38650 0.13930 0.02600
C 	C 	0.07250 0.07130 0.30000 0.02400
C 	C 	0.00510 0.11070 0.36510 0.04600
N 	N 	0.95470 0.18330 0.14370 -0.14800
H 	H 	0.67660 0.40800 0.23660 0.03600
C 	C 	0.63750 0.45790 0.18640 -0.08200
C 	C 	0.71120 0.43100 0.11770 -0.09500
H 	H 	0.79660 0.36180 0.12380 0.04300
C 	C 	0.11440 0.03070 0.32570 -0.09800
H 	H 	0.08200 0.07160 0.26950 0.03300
C 	C 	0.04670 0.06920 0.38930 -0.11300
H 	H 	0.96890 0.13860 0.37940 0.03800
Ag	Ag	0.02225 0.05554 0.01444 0.52700
C 	C 	0.01330 0.13990 0.14320 0.00700
C 	C 	0.91690 0.19860 0.10400 -0.00500
C 	C 	0.65130 0.46580 0.14110 0.01400
H 	H 	0.59720 0.48190 0.20250 0.05900
C 	C 	0.72670 0.44150 0.07030 0.31100
C 	C 	0.10420 0.02980 0.36940 0.03300
H 	H 	0.15150 0.00250 0.31220 0.06600
C 	C 	0.03060 0.06600 0.43710 0.30600
O 	O 	0.00880 0.08410 0.94700 -0.34800
C 	C 	0.03780 0.11210 0.10500 0.00500
H 	H 	0.03950 0.12740 0.16990 0.03400
C 	C 	0.93920 0.16980 0.06710 0.01700
H 	H 	0.87490 0.22950 0.10240 0.03900
H 	H 	0.61920 0.49530 0.12650 0.03700
O 	O 	0.68470 0.48390 0.05420 -0.37300
H 	H 	0.13600 0.00240 0.38630 0.02100
O 	O 	0.97510 0.10230 0.45550 -0.33200
O 	O 	0.07100 0.02910 0.46010 -0.40800
C 	C 	0.96080 0.05050 0.92310 0.32200
N 	N 	0.99650 0.12570 0.06770 -0.15200
H 	H 	0.08400 0.08340 0.10560 0.03700
H 	H 	0.91320 0.18160 0.04010 0.02000
Ag	Ag	0.74838 0.54887 0.00663 0.52400
Ag	Ag	0.99942 0.06029 0.52883 0.53800
O 	O 	0.92380 0.00690 0.93750 -0.38000
C 	C 	0.95280 0.06320 0.87520 -0.10500
N 	N 	0.01680 0.12720 0.58010 -0.16100
C 	C 	0.89980 0.02830 0.84850 0.02600
C 	C 	0.99720 0.10840 0.85740 0.03800
C 	C 	0.06500 0.17420 0.57490 0.01700
C 	C 	0.99240 0.11340 0.62020 0.01500
C 	C 	0.89410 0.03740 0.80490 -0.09300
H 	H 	0.86700 0.99760 0.86100 0.03200
C 	C 	0.99210 0.11890 0.81290 -0.10700
H 	H 	0.03200 0.13300 0.87560 0.04200
C 	C 	0.09200 0.20650 0.61030 0.00100
H 	H 	0.08160 0.18590 0.54640 0.01700
C 	C 	0.01580 0.14720 0.65540 0.01100
H 	H 	0.95820 0.07970 0.62510 0.02100
C 	C 	0.94060 0.08160 0.78610 0.02000
H 	H 	0.85750 0.01290 0.78740 0.06300
C 	C 	0.04230 0.16930 0.79390 0.31100
N 	N 	0.06360 0.19320 0.65110 -0.14800
H 	H 	0.13070 0.23840 0.60580 0.03400
H 	H 	0.99600 0.13630 0.68370 0.03800
H 	H 	0.93840 0.08700 0.75550 0.03300
O 	O 	0.03360 0.17630 0.75300 -0.38200
O 	O 	0.08420 0.20020 0.81990 -0.36100
Ag	Ag	0.11126 0.23891 0.71650 0.51800
Ag	Ag	0.15824 0.27721 0.79957 0.51300
O 	O 	0.18630 0.31140 0.69430 -0.36500
O 	O 	0.22680 0.34420 0.76060 -0.36600
N 	N 	0.20290 0.31610 0.86740 -0.14700
C 	C 	0.22530 0.34620 0.72000 0.29600
C 	C 	0.17260 0.30070 0.90640 0.01000
C 	C 	0.25700 0.36300 0.86550 -0.00300
C 	C 	0.27390 0.39620 0.69830 -0.09000
C 	C 	0.18850 0.33080 0.94320 0.00600
H 	H 	0.13790 0.26690 0.90870 0.03300
C 	C 	0.27410 0.39210 0.90300 0.01500
H 	H 	0.28250 0.37540 0.83870 0.04300
C 	C 	0.26450 0.40190 0.65380 0.02200
C 	C 	0.32270 0.43330 0.72260 0.01300
H 	H 	0.16180 0.31900 0.97000 0.02300
N 	N 	0.24240 0.37750 0.94190 -0.15300
H 	H 	0.31120 0.42510 0.90100 0.03000
C 	C 	0.31030 0.44720 0.63270 -0.09300
H 	H 	0.22790 0.37600 0.63760 0.04600
C 	C 	0.37030 0.47790 0.70180 -0.08300
H 	H 	0.32500 0.42950 0.75330 0.03800
C 	C 	0.36370 0.48390 0.65810 0.01400
C 	C 	0.30070 0.45600 0.58440 0.31400
H 	H 	0.40670 0.50360 0.71830 0.05900
O 	O 	0.24550 0.42000 0.06300 -0.34600
H 	H 	0.39620 0.51380 0.64430 0.03700
O 	O 	0.78280 0.09040 0.55020 -0.35700
Ag	Ag	0.79983 0.06524 0.48071 0.53000
N 	N 	0.74320 0.12680 0.42820 -0.15400
O 	O 	0.84610 0.99580 0.43190 -0.38300
C 	C 	0.69290 0.17340 0.43100 0.01200
C 	C 	0.76880 0.11240 0.38800 0.01500
C 	C 	0.66510 0.20400 0.39510 0.01000
H 	H 	0.67510 0.18640 0.45900 0.02100
C 	C 	0.74280 0.14260 0.35170 -0.00300
H 	H 	0.80660 0.07990 0.38420 0.03000
N 	N 	0.68960 0.18970 0.35560 -0.14900
H 	H 	0.62710 0.23640 0.39930 0.03400
H 	H 	0.76210 0.13040 0.32370 0.03700
Ag	Ag	0.64891 0.23358 0.28886 0.52200
O 	O 	0.72390 0.17350 0.24660 -0.38300
O 	O 	0.57150 0.30500 0.31600 -0.36300
C 	C 	0.70890 0.16990 0.20650 0.30700
C 	C 	0.52840 0.34090 0.29430 0.31800
O 	O 	0.65950 0.20250 0.18390 -0.34800
C 	C 	0.75770 0.12080 0.18340 -0.10300
O 	O 	0.51900 0.34120 0.25380 -0.37600
C 	C 	0.48550 0.38700 0.32030 -0.11900
Ag	Ag	0.58746 0.27783 0.21062 0.52100
C 	C 	0.81530 0.08610 0.20630 0.01000
C 	C 	0.74340 0.11350 0.13930 0.02600
C 	C 	0.42750 0.42870 0.30000 0.02400
C 	C 	0.49490 0.38930 0.36510 0.04500
N 	N 	0.54530 0.31670 0.14370 -0.14800
H 	H 	0.82340 0.09200 0.23660 0.03600
C 	C 	0.86250 0.04210 0.18640 -0.08200
C 	C 	0.78880 0.06900 0.11770 -0.09500
H 	H 	0.70340 0.13820 0.12380 0.04300
C 	C 	0.38560 0.46930 0.32570 -0.09800
H 	H 	0.41800 0.42840 0.26950 0.03300
C 	C 	0.45330 0.43080 0.38930 -0.11300
H 	H 	0.53110 0.36140 0.37940 0.03800
Ag	Ag	0.47775 0.44446 0.01444 0.52700
C 	C 	0.48670 0.36010 0.14320 0.00700
C 	C 	0.58310 0.30140 0.10400 -0.00500
C 	C 	0.84870 0.03420 0.14110 0.01400
H 	H 	0.90280 0.01810 0.20250 0.05900
C 	C 	0.77330 0.05850 0.07030 0.31100
C 	C 	0.39580 0.47020 0.36940 0.03200
H 	H 	0.34850 0.49750 0.31220 0.06600
C 	C 	0.46940 0.43400 0.43710 0.30600
O 	O 	0.49120 0.41590 0.94700 -0.34800
C 	C 	0.46220 0.38790 0.10500 0.00500
H 	H 	0.46050 0.37260 0.16990 0.03400
C 	C 	0.56080 0.33020 0.06710 0.01700
H 	H 	0.62510 0.27050 0.10240 0.03900
H 	H 	0.88080 0.00470 0.12650 0.03700
O 	O 	0.81530 0.01610 0.05420 -0.37300
H 	H 	0.36400 0.49760 0.38630 0.02100
O 	O 	0.52490 0.39770 0.45550 -0.33200
O 	O 	0.42900 0.47090 0.46010 -0.40800
C 	C 	0.53920 0.44950 0.92310 0.32300
N 	N 	0.50350 0.37430 0.06770 -0.15200
H 	H 	0.41600 0.41660 0.10560 0.03700
H 	H 	0.58680 0.31840 0.04010 0.02000
Ag	Ag	0.75162 0.95113 0.00663 0.52400
Ag	Ag	0.50058 0.43971 0.52883 0.53800
O 	O 	0.57620 0.49310 0.93750 -0.38000
C 	C 	0.54720 0.43680 0.87520 -0.10500
N 	N 	0.48320 0.37280 0.58010 -0.16100
C 	C 	0.60020 0.47170 0.84850 0.02700
C 	C 	0.50280 0.39160 0.85740 0.03900
C 	C 	0.43500 0.32580 0.57490 0.01700
C 	C 	0.50760 0.38660 0.62020 0.01600
C 	C 	0.60590 0.46260 0.80490 -0.09400
H 	H 	0.63300 0.50240 0.86100 0.03200
C 	C 	0.50790 0.38110 0.81290 -0.10700
H 	H 	0.46800 0.36700 0.87560 0.04200
C 	C 	0.40800 0.29350 0.61030 0.00100
H 	H 	0.41840 0.31410 0.54640 0.01700
C 	C 	0.48420 0.35280 0.65540 0.01000
H 	H 	0.54180 0.42030 0.62510 0.02000
C 	C 	0.55940 0.41840 0.78610 0.02000
H 	H 	0.64250 0.48710 0.78740 0.06400
C 	C 	0.45770 0.33070 0.79390 0.31100
N 	N 	0.43640 0.30680 0.65110 -0.14800
H 	H 	0.36930 0.26160 0.60580 0.03400
H 	H 	0.50400 0.36370 0.68370 0.03900
H 	H 	0.56160 0.41300 0.75550 0.03300
O 	O 	0.46640 0.32370 0.75300 -0.38200
O 	O 	0.41580 0.29980 0.81990 -0.36100
Ag	Ag	0.38874 0.26109 0.71650 0.51800
Ag	Ag	0.34176 0.22279 0.79957 0.51300
O 	O 	0.31370 0.18860 0.69430 -0.36500
O 	O 	0.27320 0.15580 0.76060 -0.36600
N 	N 	0.29710 0.18390 0.86740 -0.14700
C 	C 	0.27470 0.15380 0.72000 0.29600
C 	C 	0.32740 0.19930 0.90640 0.01000
C 	C 	0.24300 0.13700 0.86550 -0.00300
C 	C 	0.22610 0.10380 0.69830 -0.09000
C 	C 	0.31150 0.16920 0.94320 0.00600
H 	H 	0.36210 0.23310 0.90870 0.03300
C 	C 	0.22590 0.10790 0.90300 0.01500
H 	H 	0.21750 0.12460 0.83870 0.04300
C 	C 	0.23550 0.09810 0.65380 0.02200
C 	C 	0.17730 0.06670 0.72260 0.01300
H 	H 	0.33820 0.18100 0.97000 0.02300
N 	N 	0.25760 0.12250 0.94190 -0.15300
H 	H 	0.18880 0.07490 0.90100 0.03000
C 	C 	0.18970 0.05280 0.63270 -0.09300
H 	H 	0.27210 0.12400 0.63760 0.04600
C 	C 	0.12970 0.02210 0.70180 -0.08300
H 	H 	0.17500 0.07050 0.75330 0.03800
C 	C 	0.13630 0.01610 0.65810 0.01500
C 	C 	0.19930 0.04400 0.58440 0.31400
H 	H 	0.09330 0.99640 0.71830 0.05900
O 	O 	0.25450 0.08000 0.06300 -0.34600
H 	H 	0.10380 0.98620 0.64430 0.03600
O 	O 	0.71720 0.09040 0.05020 -0.35700
Ag	Ag	0.70017 0.06524 0.98071 0.53000
N 	N 	0.75680 0.12680 0.92820 -0.15400
O 	O 	0.65390 0.99580 0.93190 -0.38300
C 	C 	0.80710 0.17340 0.93100 0.01200
C 	C 	0.73120 0.11240 0.88800 0.01500
C 	C 	0.83490 0.20400 0.89510 0.01000
H 	H 	0.82490 0.18640 0.95900 0.02200
C 	C 	0.75720 0.14260 0.85170 -0.00300
H 	H 	0.69340 0.07990 0.88420 0.03000
N 	N 	0.81040 0.18970 0.85560 -0.14900
H 	H 	0.87290 0.23640 0.89930 0.03400
H 	H 	0.73790 0.13040 0.82370 0.03700
Ag	Ag	0.85109 0.23358 0.78886 0.52200
O 	O 	0.77610 0.17350 0.74660 -0.38300
O 	O 	0.92850 0.30500 0.81600 -0.36300
C 	C 	0.79110 0.16990 0.70650 0.30700
C 	C 	0.97160 0.34090 0.79430 0.31800
O 	O 	0.84050 0.20250 0.68390 -0.34800
C 	C 	0.74230 0.12080 0.68340 -0.10300
O 	O 	0.98100 0.34120 0.75380 -0.37600
C 	C 	0.01450 0.38700 0.82030 -0.11900
Ag	Ag	0.91254 0.27783 0.71062 0.52100
C 	C 	0.68470 0.08610 0.70630 0.01000
C 	C 	0.75660 0.11350 0.63930 0.02600
C 	C 	0.07250 0.42870 0.80000 0.02400
C 	C 	0.00510 0.38930 0.86510 0.04600
N 	N 	0.95470 0.31670 0.64370 -0.14800
H 	H 	0.67660 0.09200 0.73660 0.03600
C 	C 	0.63750 0.04210 0.68640 -0.08200
C 	C 	0.71120 0.06900 0.61770 -0.09600
H 	H 	0.79660 0.13820 0.62380 0.04300
C 	C 	0.11440 0.46930 0.82570 -0.09800
H 	H 	0.08200 0.42840 0.76950 0.03300
C 	C 	0.04670 0.43080 0.88930 -0.11300
H 	H 	0.96890 0.36140 0.87940 0.03800
Ag	Ag	0.02225 0.44446 0.51444 0.52700
C 	C 	0.01330 0.36010 0.64320 0.00700
C 	C 	0.91690 0.30140 0.60400 -0.00500
C 	C 	0.65130 0.03420 0.64110 0.01400
H 	H 	0.59720 0.01810 0.70250 0.05900
C 	C 	0.72670 0.05850 0.57030 0.31100
C 	C 	0.10420 0.47020 0.86940 0.03200
H 	H 	0.15150 0.49750 0.81220 0.06600
C 	C 	0.03060 0.43400 0.93710 0.30600
O 	O 	0.00880 0.41590 0.44700 -0.34800
C 	C 	0.03780 0.38790 0.60500 0.00500
H 	H 	0.03950 0.37260 0.66990 0.03400
C 	C 	0.93920 0.33020 0.56710 0.01700
H 	H 	0.87490 0.27050 0.60240 0.03900
H 	H 	0.61920 0.00470 0.62650 0.03700
O 	O 	0.68470 0.01610 0.55420 -0.37300
H 	H 	0.13600 0.49760 0.88630 0.02100
O 	O 	0.97510 0.39770 0.95550 -0.33200
O 	O 	0.07100 0.47090 0.96010 -0.40800
C 	C 	0.96080 0.44950 0.42310 0.32300
N 	N 	0.99650 0.37430 0.56770 -0.15200
H 	H 	0.08400 0.41660 0.60560 0.03700
H 	H 	0.91320 0.31840 0.54010 0.02000
Ag	Ag	0.74838 0.95113 0.50663 0.52300
Ag	Ag	0.99942 0.43971 0.02883 0.53800
O 	O 	0.92380 0.49310 0.43750 -0.38000
C 	C 	0.95280 0.43680 0.37520 -0.10500
N 	N 	0.01680 0.37280 0.08010 -0.16100
C 	C 	0.89980 0.47170 0.34850 0.02700
C 	C 	0.99720 0.39160 0.35740 0.03800
C 	C 	0.06500 0.32580 0.07490 0.01700
C 	C 	0.99240 0.38660 0.12020 0.01600
C 	C 	0.89410 0.46260 0.30490 -0.09400
H 	H 	0.86700 0.50240 0.36100 0.03200
C 	C 	0.99210 0.38110 0.31290 -0.10700
H 	H 	0.03200 0.36700 0.37560 0.04200
C 	C 	0.09200 0.29350 0.11030 0.00100
H 	H 	0.08160 0.31410 0.04640 0.01700
C 	C 	0.01580 0.35280 0.15540 0.01000
H 	H 	0.95820 0.42030 0.12510 0.02100
C 	C 	0.94060 0.41840 0.28610 0.02000
H 	H 	0.85750 0.48710 0.28740 0.06400
C 	C 	0.04230 0.33070 0.29390 0.31100
N 	N 	0.06360 0.30680 0.15110 -0.14800
H 	H 	0.13070 0.26160 0.10580 0.03400
H 	H 	0.99600 0.36370 0.18370 0.03900
H 	H 	0.93840 0.41300 0.25550 0.03300
O 	O 	0.03360 0.32370 0.25300 -0.38200
O 	O 	0.08420 0.29980 0.31990 -0.36100
Ag	Ag	0.11126 0.26109 0.21650 0.51800
Ag	Ag	0.15824 0.22279 0.29957 0.51300
O 	O 	0.18630 0.18860 0.19430 -0.36500
O 	O 	0.22680 0.15580 0.26060 -0.36600
N 	N 	0.20290 0.18390 0.36740 -0.14700
C 	C 	0.22530 0.15380 0.22000 0.29600
C 	C 	0.17260 0.19930 0.40640 0.01000
C 	C 	0.25700 0.13700 0.36550 -0.00300
C 	C 	0.27390 0.10380 0.19830 -0.09000
C 	C 	0.18850 0.16920 0.44320 0.00600
H 	H 	0.13790 0.23310 0.40870 0.03300
C 	C 	0.27410 0.10790 0.40300 0.01500
H 	H 	0.28250 0.12460 0.33870 0.04300
C 	C 	0.26450 0.09810 0.15380 0.02200
C 	C 	0.32270 0.06670 0.22260 0.01300
H 	H 	0.16180 0.18100 0.47000 0.02300
N 	N 	0.24240 0.12250 0.44190 -0.15300
H 	H 	0.31120 0.07490 0.40100 0.03000
C 	C 	0.31030 0.05280 0.13270 -0.09300
H 	H 	0.22790 0.12400 0.13760 0.04600
C 	C 	0.37030 0.02210 0.20180 -0.08300
H 	H 	0.32500 0.07050 0.25330 0.03800
C 	C 	0.36370 0.01610 0.15810 0.01400
C 	C 	0.30070 0.04400 0.08440 0.31400
H 	H 	0.40670 0.99640 0.21830 0.05900
O 	O 	0.24550 0.08000 0.56300 -0.34600
H 	H 	0.39620 0.98620 0.14430 0.03700
O 	O 	0.78280 0.40960 0.05020 -0.35700
Ag	Ag	0.79983 0.43476 0.98071 0.53000
N 	N 	0.74320 0.37320 0.92820 -0.15400
O 	O 	0.84610 0.50420 0.93190 -0.38300
C 	C 	0.69290 0.32660 0.93100 0.01200
C 	C 	0.76880 0.38760 0.88800 0.01500
C 	C 	0.66510 0.29600 0.89510 0.01000
H 	H 	0.67510 0.31360 0.95900 0.02200
C 	C 	0.74280 0.35740 0.85170 -0.00300
H 	H 	0.80660 0.42010 0.88420 0.03000
N 	N 	0.68960 0.31030 0.85560 -0.14900
H 	H 	0.62710 0.26360 0.89930 0.03400
H 	H 	0.76210 0.36960 0.82370 0.03700
Ag	Ag	0.64891 0.26642 0.78886 0.52200
O 	O 	0.72390 0.32650 0.74660 -0.38300
O 	O 	0.57150 0.19500 0.81600 -0.36300
C 	C 	0.70890 0.33010 0.70650 0.30700
C 	C 	0.52840 0.15910 0.79430 0.31800
O 	O 	0.65950 0.29750 0.68390 -0.34800
C 	C 	0.75770 0.37920 0.68340 -0.10300
O 	O 	0.51900 0.15880 0.75380 -0.37600
C 	C 	0.48550 0.11300 0.82030 -0.11900
Ag	Ag	0.58746 0.22217 0.71062 0.52100
C 	C 	0.81530 0.41390 0.70630 0.01000
C 	C 	0.74340 0.38650 0.63930 0.02600
C 	C 	0.42750 0.07130 0.80000 0.02400
C 	C 	0.49490 0.11070 0.86510 0.04500
N 	N 	0.54530 0.18330 0.64370 -0.14800
H 	H 	0.82340 0.40800 0.73660 0.03600
C 	C 	0.86250 0.45790 0.68640 -0.08200
C 	C 	0.78880 0.43100 0.61770 -0.09500
H 	H 	0.70340 0.36180 0.62380 0.04300
C 	C 	0.38560 0.03070 0.82570 -0.09800
H 	H 	0.41800 0.07160 0.76950 0.03300
C 	C 	0.45330 0.06920 0.88930 -0.11300
H 	H 	0.53110 0.13860 0.87940 0.03800
Ag	Ag	0.47775 0.05554 0.51444 0.52700
C 	C 	0.48670 0.13990 0.64320 0.00700
C 	C 	0.58310 0.19860 0.60400 -0.00500
C 	C 	0.84870 0.46580 0.64110 0.01400
H 	H 	0.90280 0.48190 0.70250 0.05900
C 	C 	0.77330 0.44150 0.57030 0.31100
C 	C 	0.39580 0.02980 0.86940 0.03200
H 	H 	0.34850 0.00250 0.81220 0.06600
C 	C 	0.46940 0.06600 0.93710 0.30600
O 	O 	0.49120 0.08410 0.44700 -0.34800
C 	C 	0.46220 0.11210 0.60500 0.00500
H 	H 	0.46050 0.12740 0.66990 0.03400
C 	C 	0.56080 0.16980 0.56710 0.01700
H 	H 	0.62510 0.22950 0.60240 0.03900
H 	H 	0.88080 0.49530 0.62650 0.03700
O 	O 	0.81530 0.48390 0.55420 -0.37300
H 	H 	0.36400 0.00240 0.88630 0.02100
O 	O 	0.52490 0.10230 0.95550 -0.33200
O 	O 	0.42900 0.02910 0.96010 -0.40800
C 	C 	0.53920 0.05050 0.42310 0.32300
N 	N 	0.50350 0.12570 0.56770 -0.15200
H 	H 	0.41600 0.08340 0.60560 0.03700
H 	H 	0.58680 0.18160 0.54010 0.02000
Ag	Ag	0.75162 0.54887 0.50663 0.52300
Ag	Ag	0.50058 0.06029 0.02883 0.53800
O 	O 	0.57620 0.00690 0.43750 -0.38000
C 	C 	0.54720 0.06320 0.37520 -0.10500
N 	N 	0.48320 0.12720 0.08010 -0.16100
C 	C 	0.60020 0.02830 0.34850 0.02700
C 	C 	0.50280 0.10840 0.35740 0.03800
C 	C 	0.43500 0.17420 0.07490 0.01700
C 	C 	0.50760 0.11340 0.12020 0.01600
C 	C 	0.60590 0.03740 0.30490 -0.09400
H 	H 	0.63300 0.99760 0.36100 0.03200
C 	C 	0.50790 0.11890 0.31290 -0.10700
H 	H 	0.46800 0.13300 0.37560 0.04200
C 	C 	0.40800 0.20650 0.11030 0.00100
H 	H 	0.41840 0.18590 0.04640 0.01700
C 	C 	0.48420 0.14720 0.15540 0.01000
H 	H 	0.54180 0.07970 0.12510 0.02000
C 	C 	0.55940 0.08160 0.28610 0.02000
H 	H 	0.64250 0.01290 0.28740 0.06300
C 	C 	0.45770 0.16930 0.29390 0.31100
N 	N 	0.43640 0.19320 0.15110 -0.14800
H 	H 	0.36930 0.23840 0.10580 0.03400
H 	H 	0.50400 0.13630 0.18370 0.03900
H 	H 	0.56160 0.08700 0.25550 0.03300
O 	O 	0.46640 0.17630 0.25300 -0.38200
O 	O 	0.41580 0.20020 0.31990 -0.36100
Ag	Ag	0.38874 0.23891 0.21650 0.51800
Ag	Ag	0.34176 0.27721 0.29957 0.51300
O 	O 	0.31370 0.31140 0.19430 -0.36500
O 	O 	0.27320 0.34420 0.26060 -0.36600
N 	N 	0.29710 0.31610 0.36740 -0.14700
C 	C 	0.27470 0.34620 0.22000 0.29600
C 	C 	0.32740 0.30070 0.40640 0.01000
C 	C 	0.24300 0.36300 0.36550 -0.00300
C 	C 	0.22610 0.39620 0.19830 -0.09000
C 	C 	0.31150 0.33080 0.44320 0.00600
H 	H 	0.36210 0.26690 0.40870 0.03300
C 	C 	0.22590 0.39210 0.40300 0.01500
H 	H 	0.21750 0.37540 0.33870 0.04300
C 	C 	0.23550 0.40190 0.15380 0.02200
C 	C 	0.17730 0.43330 0.22260 0.01300
H 	H 	0.33820 0.31900 0.47000 0.02300
N 	N 	0.25760 0.37750 0.44190 -0.15300
H 	H 	0.18880 0.42510 0.40100 0.03000
C 	C 	0.18970 0.44720 0.13270 -0.09300
H 	H 	0.27210 0.37600 0.13760 0.04600
C 	C 	0.12970 0.47790 0.20180 -0.08300
H 	H 	0.17500 0.42950 0.25330 0.03800
C 	C 	0.13630 0.48390 0.15810 0.01400
C 	C 	0.19930 0.45600 0.08440 0.31400
H 	H 	0.09330 0.50360 0.21830 0.05900
O 	O 	0.25450 0.42000 0.56300 -0.34600
H 	H 	0.10380 0.51380 0.14430 0.03700
O 	O 	0.28280 0.59040 0.44980 -0.35700
Ag	Ag	0.29983 0.56524 0.51929 0.53000
N 	N 	0.24320 0.62680 0.57180 -0.15400
O 	O 	0.34610 0.49580 0.56810 -0.38300
C 	C 	0.19290 0.67340 0.56900 0.01200
C 	C 	0.26880 0.61240 0.61200 0.01500
C 	C 	0.16510 0.70400 0.60490 0.01000
H 	H 	0.17510 0.68640 0.54100 0.02100
C 	C 	0.24280 0.64260 0.64830 -0.00300
H 	H 	0.30660 0.57990 0.61580 0.03000
N 	N 	0.18960 0.68970 0.64440 -0.14900
H 	H 	0.12710 0.73640 0.60070 0.03400
H 	H 	0.26210 0.63040 0.67630 0.03700
Ag	Ag	0.14891 0.73358 0.71114 0.52200
O 	O 	0.22390 0.67350 0.75340 -0.38300
O 	O 	0.07150 0.80500 0.68400 -0.36300
C 	C 	0.20890 0.66990 0.79350 0.30700
C 	C 	0.02840 0.84090 0.70570 0.31800
O 	O 	0.15950 0.70250 0.81610 -0.34800
C 	C 	0.25770 0.62080 0.81660 -0.10300
O 	O 	0.01900 0.84120 0.74620 -0.37600
C 	C 	0.98550 0.88700 0.67970 -0.11900
Ag	Ag	0.08746 0.77783 0.78938 0.52100
C 	C 	0.31530 0.58610 0.79370 0.01000
C 	C 	0.24340 0.61350 0.86070 0.02600
C 	C 	0.92750 0.92870 0.70000 0.02400
C 	C 	0.99490 0.88930 0.63490 0.04600
N 	N 	0.04530 0.81670 0.85630 -0.14800
H 	H 	0.32340 0.59200 0.76340 0.03600
C 	C 	0.36250 0.54210 0.81360 -0.08200
C 	C 	0.28880 0.56900 0.88230 -0.09500
H 	H 	0.20340 0.63820 0.87620 0.04300
C 	C 	0.88560 0.96930 0.67430 -0.09800
H 	H 	0.91800 0.92840 0.73050 0.03300
C 	C 	0.95330 0.93080 0.61070 -0.11300
H 	H 	0.03110 0.86140 0.62060 0.03800
Ag	Ag	0.97775 0.94446 0.98556 0.52700
C 	C 	0.98670 0.86010 0.85680 0.00700
C 	C 	0.08310 0.80140 0.89600 -0.00500
C 	C 	0.34870 0.53420 0.85890 0.01400
H 	H 	0.40280 0.51810 0.79750 0.05900
C 	C 	0.27330 0.55850 0.92970 0.31100
C 	C 	0.89580 0.97020 0.63060 0.03300
H 	H 	0.84850 0.99750 0.68780 0.06600
C 	C 	0.96940 0.93400 0.56290 0.30600
O 	O 	0.99120 0.91590 0.05300 -0.34800
C 	C 	0.96220 0.88790 0.89500 0.00500
H 	H 	0.96050 0.87260 0.83010 0.03400
C 	C 	0.06080 0.83020 0.93290 0.01700
H 	H 	0.12510 0.77050 0.89760 0.03900
H 	H 	0.38080 0.50470 0.87350 0.03700
O 	O 	0.31530 0.51610 0.94580 -0.37300
H 	H 	0.86400 0.99760 0.61370 0.02100
O 	O 	0.02490 0.89770 0.54450 -0.33200
O 	O 	0.92900 0.97090 0.53990 -0.40800
C 	C 	0.03920 0.94950 0.07690 0.32200
N 	N 	0.00350 0.87430 0.93230 -0.15200
H 	H 	0.91600 0.91660 0.89440 0.03700
H 	H 	0.08680 0.81840 0.95990 0.02000
Ag	Ag	0.25162 0.45113 0.99337 0.52400
Ag	Ag	0.00058 0.93971 0.47117 0.53800
O 	O 	0.07620 0.99310 0.06250 -0.38000
C 	C 	0.04720 0.93680 0.12480 -0.10500
N 	N 	0.98320 0.87280 0.41990 -0.16100
C 	C 	0.10020 0.97170 0.15150 0.02600
C 	C 	0.00280 0.89160 0.14260 0.03800
C 	C 	0.93500 0.82580 0.42510 0.01700
C 	C 	0.00760 0.88660 0.37980 0.01500
C 	C 	0.10590 0.96260 0.19510 -0.09300
H 	H 	0.13300 0.00240 0.13900 0.03200
C 	C 	0.00790 0.88110 0.18710 -0.10700
H 	H 	0.96800 0.86700 0.12440 0.04200
C 	C 	0.90800 0.79350 0.38970 0.00100
H 	H 	0.91840 0.81410 0.45360 0.01700
C 	C 	0.98420 0.85280 0.34460 0.01100
H 	H 	0.04180 0.92030 0.37490 0.02100
C 	C 	0.05940 0.91840 0.21390 0.02000
H 	H 	0.14250 0.98710 0.21260 0.06300
C 	C 	0.95770 0.83070 0.20610 0.31100
N 	N 	0.93640 0.80680 0.34890 -0.14800
H 	H 	0.86930 0.76160 0.39420 0.03400
H 	H 	0.00400 0.86370 0.31630 0.03800
H 	H 	0.06160 0.91300 0.24450 0.03300
O 	O 	0.96640 0.82370 0.24700 -0.38200
O 	O 	0.91580 0.79980 0.18010 -0.36100
Ag	Ag	0.88874 0.76109 0.28350 0.51800
Ag	Ag	0.84176 0.72279 0.20043 0.51300
O 	O 	0.81370 0.68860 0.30570 -0.36500
O 	O 	0.77320 0.65580 0.23940 -0.36600
N 	N 	0.79710 0.68390 0.13260 -0.14700
C 	C 	0.77470 0.65380 0.28000 0.29600
C 	C 	0.82740 0.69930 0.09360 0.01000
C 	C 	0.74300 0.63700 0.13450 -0.00300
C 	C 	0.72610 0.60380 0.30170 -0.09000
C 	C 	0.81150 0.66920 0.05680 0.00600
H 	H 	0.86210 0.73310 0.09130 0.03300
C 	C 	0.72590 0.60790 0.09700 0.01500
H 	H 	0.71750 0.62460 0.16130 0.04300
C 	C 	0.73550 0.59810 0.34620 0.02200
C 	C 	0.67730 0.56670 0.27740 0.01300
H 	H 	0.83820 0.68100 0.03000 0.02300
N 	N 	0.75760 0.62250 0.05810 -0.15300
H 	H 	0.68880 0.57490 0.09900 0.03000
C 	C 	0.68970 0.55280 0.36730 -0.09300
H 	H 	0.77210 0.62400 0.36240 0.04600
C 	C 	0.62970 0.52210 0.29820 -0.08300
H 	H 	0.67500 0.57050 0.24670 0.03800
C 	C 	0.63630 0.51610 0.34190 0.01400
C 	C 	0.69930 0.54400 0.41560 0.31400
H 	H 	0.59330 0.49640 0.28170 0.05900
O 	O 	0.75450 0.58000 0.93700 -0.34600
H 	H 	0.60380 0.48620 0.35570 0.03700
O 	O 	0.21720 0.90960 0.44980 -0.35700
Ag	Ag	0.20017 0.93476 0.51929 0.53000
N 	N 	0.25680 0.87320 0.57180 -0.15400
O 	O 	0.15390 0.00420 0.56810 -0.38300
C 	C 	0.30710 0.82660 0.56900 0.01200
C 	C 	0.23120 0.88760 0.61200 0.01500
C 	C 	0.33490 0.79600 0.60490 0.01000
H 	H 	0.32490 0.81360 0.54100 0.02100
C 	C 	0.25720 0.85740 0.64830 -0.00300
H 	H 	0.19340 0.92010 0.61580 0.03000
N 	N 	0.31040 0.81030 0.64440 -0.14900
H 	H 	0.37290 0.76360 0.60070 0.03400
H 	H 	0.23790 0.86960 0.67630 0.03700
Ag	Ag	0.35109 0.76642 0.71114 0.52200
O 	O 	0.27610 0.82650 0.75340 -0.38300
O 	O 	0.42850 0.69500 0.68400 -0.36300
C 	C 	0.29110 0.83010 0.79350 0.30700
C 	C 	0.47160 0.65910 0.70570 0.31800
O 	O 	0.34050 0.79750 0.81610 -0.34800
C 	C 	0.24230 0.87920 0.81660 -0.10300
O 	O 	0.48100 0.65880 0.74620 -0.37600
C 	C 	0.51450 0.61300 0.67970 -0.11900
Ag	Ag	0.41254 0.72217 0.78938 0.52100
C 	C 	0.18470 0.91390 0.79370 0.01000
C 	C 	0.25660 0.88650 0.86070 0.02600
C 	C 	0.57250 0.57130 0.70000 0.02400
C 	C 	0.50510 0.61070 0.63490 0.04500
N 	N 	0.45470 0.68330 0.85630 -0.14800
H 	H 	0.17660 0.90800 0.76340 0.03600
C 	C 	0.13750 0.95790 0.81360 -0.08200
C 	C 	0.21120 0.93100 0.88230 -0.09500
H 	H 	0.29660 0.86180 0.87620 0.04300
C 	C 	0.61440 0.53070 0.67430 -0.09800
H 	H 	0.58200 0.57160 0.73050 0.03300
C 	C 	0.54670 0.56920 0.61070 -0.11300
H 	H 	0.46890 0.63860 0.62060 0.03800
Ag	Ag	0.52225 0.55554 0.98556 0.52700
C 	C 	0.51330 0.63990 0.85680 0.00700
C 	C 	0.41690 0.69860 0.89600 -0.00500
C 	C 	0.15130 0.96580 0.85890 0.01400
H 	H 	0.09720 0.98190 0.79750 0.05900
C 	C 	0.22670 0.94150 0.92970 0.31100
C 	C 	0.60420 0.52980 0.63060 0.03200
H 	H 	0.65150 0.50250 0.68780 0.06600
C 	C 	0.53060 0.56600 0.56290 0.30600
O 	O 	0.50880 0.58410 0.05300 -0.34800
C 	C 	0.53780 0.61210 0.89500 0.00500
H 	H 	0.53950 0.62740 0.83010 0.03400
C 	C 	0.43920 0.66980 0.93290 0.01700
H 	H 	0.37490 0.72950 0.89760 0.03900
H 	H 	0.11920 0.99530 0.87350 0.03700
O 	O 	0.18470 0.98390 0.94580 -0.37300
H 	H 	0.63600 0.50240 0.61370 0.02100
O 	O 	0.47510 0.60230 0.54450 -0.33200
O 	O 	0.57100 0.52910 0.53990 -0.40800
C 	C 	0.46080 0.55050 0.07690 0.32300
N 	N 	0.49650 0.62570 0.93230 -0.15200
H 	H 	0.58400 0.58340 0.89440 0.03700
H 	H 	0.41320 0.68160 0.95990 0.02000
Ag	Ag	0.24838 0.04887 0.99337 0.52400
Ag	Ag	0.49942 0.56029 0.47117 0.53800
O 	O 	0.42380 0.50690 0.06250 -0.38000
C 	C 	0.45280 0.56320 0.12480 -0.10500
N 	N 	0.51680 0.62720 0.41990 -0.16100
C 	C 	0.39980 0.52830 0.15150 0.02700
C 	C 	0.49720 0.60840 0.14260 0.03900
C 	C 	0.56500 0.67420 0.42510 0.01700
C 	C 	0.49240 0.61340 0.37980 0.01600
C 	C 	0.39410 0.53740 0.19510 -0.09400
H 	H 	0.36700 0.49760 0.13900 0.03200
C 	C 	0.49210 0.61890 0.18710 -0.10700
H 	H 	0.53200 0.63300 0.12440 0.04200
C 	C 	0.59200 0.70650 0.38970 0.00100
H 	H 	0.58160 0.68590 0.45360 0.01700
C 	C 	0.51580 0.64720 0.34460 0.01000
H 	H 	0.45820 0.57970 0.37490 0.02000
C 	C 	0.44060 0.58160 0.21390 0.02000
H 	H 	0.35750 0.51290 0.21260 0.06400
C 	C 	0.54230 0.66930 0.20610 0.31100
N 	N 	0.56360 0.69320 0.34890 -0.14800
H 	H 	0.63070 0.73840 0.39420 0.03400
H 	H 	0.49600 0.63630 0.31630 0.03900
H 	H 	0.43840 0.58700 0.24450 0.03300
O 	O 	0.53360 0.67630 0.24700 -0.38200
O 	O 	0.58420 0.70020 0.18010 -0.36100
Ag	Ag	0.61126 0.73891 0.28350 0.51800
Ag	Ag	0.65824 0.77721 0.20043 0.51300
O 	O 	0.68630 0.81140 0.30570 -0.36500
O 	O 	0.72680 0.84420 0.23940 -0.36600
N 	N 	0.70290 0.81610 0.13260 -0.14700
C 	C 	0.72530 0.84620 0.28000 0.29600
C 	C 	0.67260 0.80070 0.09360 0.01000
C 	C 	0.75700 0.86300 0.13450 -0.00300
C 	C 	0.77390 0.89620 0.30170 -0.09000
C 	C 	0.68850 0.83080 0.05680 0.00600
H 	H 	0.63790 0.76690 0.09130 0.03300
C 	C 	0.77410 0.89210 0.09700 0.01500
H 	H 	0.78250 0.87540 0.16130 0.04300
C 	C 	0.76450 0.90190 0.34620 0.02200
C 	C 	0.82270 0.93330 0.27740 0.01300
H 	H 	0.66180 0.81900 0.03000 0.02300
N 	N 	0.74240 0.87750 0.05810 -0.15300
H 	H 	0.81120 0.92510 0.09900 0.03000
C 	C 	0.81030 0.94720 0.36730 -0.09300
H 	H 	0.72790 0.87600 0.36240 0.04600
C 	C 	0.87030 0.97790 0.29820 -0.08300
H 	H 	0.82500 0.92950 0.24670 0.03800
C 	C 	0.86370 0.98390 0.34190 0.01500
C 	C 	0.80070 0.95600 0.41560 0.31400
H 	H 	0.90670 0.00360 0.28170 0.05900
O 	O 	0.74550 0.92000 0.93700 -0.34600
H 	H 	0.89620 0.01380 0.35570 0.03600
