data_crystal

_cell_length_a 14.28850
_cell_length_b 23.82300
_cell_length_c 30.74900
_cell_angle_alpha 90.00000
_cell_angle_beta  90.00000
_cell_angle_gamma 90.00000

_symmetry_space_group_name_	'P 1'
_symmetry_space_group_name_H-M	'P 1'

loop_
_symmetry_equiv_pos_as_xyz
  x,y,z

loop_
_atom_site_label
_atom_site_type_symbol
_atom_site_fract_x
_atom_site_fract_y
_atom_site_fract_z
_atom_site_charge
Ag	Ag	0.35092 0.76665 0.71115 0.52100
N 	N 	0.31060 0.81030 0.64430 -0.14900
N 	N 	0.25660 0.87320 0.57190 -0.15500
C 	C 	0.33420 0.79640 0.60490 0.01300
H 	H 	0.37100 0.76370 0.60080 0.03200
C 	C 	0.30840 0.82690 0.56880 0.00700
H 	H 	0.32810 0.81450 0.54090 0.02100
C 	C 	0.23130 0.88760 0.61210 0.01700
H 	H 	0.19450 0.92050 0.61570 0.02700
C 	C 	0.25540 0.85760 0.64850 -0.01000
H 	H 	0.23440 0.86920 0.67640 0.03800
Ag	Ag	0.20101 0.93497 0.51922 0.52800
Ag	Ag	0.41204 0.72252 0.78948 0.52000
Ag	Ag	0.52144 0.55562 0.98551 0.52600
N 	N 	0.45490 0.68360 0.85620 -0.15000
N 	N 	0.49500 0.62600 0.93240 -0.15400
C 	C 	0.41740 0.69890 0.89600 -0.00800
H 	H 	0.37560 0.72980 0.89770 0.03900
C 	C 	0.43990 0.67010 0.93290 0.02000
H 	H 	0.41480 0.68240 0.95980 0.01700
C 	C 	0.53780 0.61260 0.89500 -0.00100
H 	H 	0.58580 0.58500 0.89460 0.03600
C 	C 	0.51130 0.63970 0.85700 0.01000
H 	H 	0.53500 0.62600 0.83020 0.03200
Ag	Ag	0.49982 0.56029 0.47178 0.53700
Ag	Ag	0.61053 0.73856 0.28382 0.51700
N 	N 	0.56280 0.69290 0.34920 -0.15100
N 	N 	0.51650 0.62700 0.42030 -0.16200
C 	C 	0.51590 0.64730 0.34510 0.01100
H 	H 	0.49630 0.63610 0.31690 0.03700
C 	C 	0.49260 0.61370 0.38030 0.01500
H 	H 	0.45830 0.58010 0.37540 0.02000
C 	C 	0.56460 0.67410 0.42560 0.01300
H 	H 	0.58110 0.68620 0.45400 0.01800
C 	C 	0.59120 0.70610 0.38940 0.00600
H 	H 	0.63030 0.73790 0.39360 0.03200
O 	O 	0.27620 0.82660 0.75360 -0.38800
O 	O 	0.34060 0.79790 0.81600 -0.35000
O 	O 	0.28280 0.90950 0.94980 -0.35800
O 	O 	0.18550 0.98380 0.94550 -0.37800
C 	C 	0.29070 0.83010 0.79320 0.31300
C 	C 	0.24160 0.87940 0.81670 -0.10000
C 	C 	0.18440 0.91410 0.79330 0.00800
H 	H 	0.17670 0.90830 0.76300 0.03700
C 	C 	0.13760 0.95790 0.81370 -0.08100
H 	H 	0.09720 0.98200 0.79770 0.05900
C 	C 	0.15160 0.96580 0.85890 0.01600
H 	H 	0.11960 0.99540 0.87340 0.03700
C 	C 	0.21040 0.93170 0.88230 -0.09500
C 	C 	0.25710 0.88680 0.86080 0.02400
H 	H 	0.29780 0.86250 0.87630 0.04400
C 	C 	0.22680 0.94170 0.92990 0.31700
O 	O 	0.42880 0.69530 0.68410 -0.36400
O 	O 	0.48000 0.65910 0.74630 -0.37800
O 	O 	0.57210 0.52850 0.54060 -0.40600
O 	O 	0.47590 0.60120 0.54520 -0.33100
C 	C 	0.47160 0.65920 0.70580 0.32500
C 	C 	0.51350 0.61360 0.68030 -0.12800
C 	C 	0.57180 0.57110 0.70060 0.02900
H 	H 	0.58070 0.57100 0.73120 0.03100
C 	C 	0.61440 0.53100 0.67480 -0.10300
H 	H 	0.65230 0.50320 0.68840 0.06700
C 	C 	0.60420 0.52960 0.63160 0.03700
H 	H 	0.63580 0.50210 0.61480 0.02000
C 	C 	0.54650 0.56920 0.61150 -0.11800
C 	C 	0.50510 0.61080 0.63540 0.05300
H 	H 	0.46930 0.63860 0.62080 0.03600
C 	C 	0.53190 0.56540 0.56390 0.30700
Ag	Ag	0.65792 0.77684 0.20077 0.51400
N 	N 	0.70150 0.81570 0.13300 -0.14700
N 	N 	0.74200 0.87700 0.05830 -0.15300
C 	C 	0.75710 0.86270 0.13500 -0.00700
H 	H 	0.78370 0.87460 0.16170 0.04400
C 	C 	0.77310 0.89190 0.09720 0.01800
H 	H 	0.80910 0.92540 0.09920 0.03000
C 	C 	0.68760 0.83070 0.05690 0.00500
H 	H 	0.66030 0.81910 0.03030 0.02300
C 	C 	0.67210 0.80060 0.09390 0.01100
H 	H 	0.63790 0.76650 0.09150 0.03200
Ag	Ag	0.75148 0.95075 0.00700 0.52400
O 	O 	0.58380 0.69990 0.18040 -0.36300
O 	O 	0.53370 0.67560 0.24710 -0.38400
O 	O 	0.51160 0.58420 0.05270 -0.34200
O 	O 	0.42420 0.50690 0.06220 -0.37300
C 	C 	0.54200 0.66930 0.20640 0.31600
C 	C 	0.49290 0.61860 0.18700 -0.10400
C 	C 	0.44220 0.58090 0.21420 0.01500
H 	H 	0.44120 0.58560 0.24490 0.03400
C 	C 	0.39460 0.53730 0.19470 -0.08800
H 	H 	0.35750 0.51310 0.21210 0.06200
C 	C 	0.39940 0.52820 0.15130 0.02100
H 	H 	0.36650 0.49750 0.13880 0.03400
C 	C 	0.45250 0.56350 0.12480 -0.09600
C 	C 	0.49740 0.60870 0.14300 0.03300
H 	H 	0.53210 0.63340 0.12490 0.04300
C 	C 	0.46120 0.55110 0.07670 0.30500
O 	O 	0.72660 0.84320 0.24000 -0.37100
O 	O 	0.68530 0.81100 0.30610 -0.36600
O 	O 	0.75580 0.91980 0.43740 -0.34900
O 	O 	0.84620 0.99550 0.43210 -0.38000
C 	C 	0.72410 0.84560 0.28030 0.30200
C 	C 	0.77350 0.89560 0.30290 -0.09400
C 	C 	0.82220 0.93190 0.27820 0.01600
H 	H 	0.82510 0.92730 0.24750 0.03700
C 	C 	0.86930 0.97710 0.29890 -0.08900
H 	H 	0.90600 0.00260 0.28240 0.06100
C 	C 	0.86130 0.98340 0.34220 0.02300
H 	H 	0.89210 0.01400 0.35590 0.03400
C 	C 	0.80950 0.94660 0.36770 -0.10200
C 	C 	0.76420 0.90140 0.34670 0.03000
H 	H 	0.72780 0.87550 0.36290 0.04300
C 	C 	0.79980 0.95550 0.41550 0.31700
Ag	Ag	0.14908 0.73335 0.71115 0.52200
N 	N 	0.18940 0.68970 0.64430 -0.14800
N 	N 	0.24340 0.62680 0.57190 -0.15400
C 	C 	0.16580 0.70360 0.60490 0.01400
H 	H 	0.12900 0.73630 0.60080 0.03300
C 	C 	0.19160 0.67310 0.56880 0.00800
H 	H 	0.17190 0.68550 0.54090 0.02200
C 	C 	0.26870 0.61240 0.61210 0.01800
H 	H 	0.30550 0.57950 0.61570 0.02900
C 	C 	0.24460 0.64240 0.64850 -0.00900
H 	H 	0.26560 0.63080 0.67640 0.03900
Ag	Ag	0.29899 0.56503 0.51922 0.52900
Ag	Ag	0.08796 0.77748 0.78948 0.52100
Ag	Ag	0.97856 0.94438 0.98551 0.52700
N 	N 	0.04510 0.81640 0.85620 -0.14900
N 	N 	0.00500 0.87400 0.93240 -0.15300
C 	C 	0.08260 0.80110 0.89600 -0.00700
H 	H 	0.12440 0.77020 0.89770 0.04000
C 	C 	0.06010 0.82990 0.93290 0.02100
H 	H 	0.08520 0.81760 0.95980 0.01800
C 	C 	0.96220 0.88740 0.89500 0.00000
H 	H 	0.91420 0.91500 0.89460 0.03700
C 	C 	0.98870 0.86030 0.85700 0.01100
H 	H 	0.96500 0.87400 0.83020 0.03300
Ag	Ag	0.00018 0.93971 0.47178 0.53700
Ag	Ag	0.88947 0.76144 0.28382 0.51800
N 	N 	0.93720 0.80710 0.34920 -0.15000
N 	N 	0.98350 0.87300 0.42030 -0.16000
C 	C 	0.98410 0.85270 0.34510 0.01300
H 	H 	0.00370 0.86390 0.31690 0.03700
C 	C 	0.00740 0.88630 0.38030 0.01500
H 	H 	0.04170 0.91990 0.37540 0.02100
C 	C 	0.93540 0.82590 0.42560 0.01300
H 	H 	0.91890 0.81380 0.45400 0.01800
C 	C 	0.90880 0.79390 0.38940 0.00600
H 	H 	0.86970 0.76210 0.39360 0.03200
O 	O 	0.22380 0.67340 0.75360 -0.38800
O 	O 	0.15940 0.70210 0.81600 -0.35000
O 	O 	0.21720 0.59050 0.94980 -0.35800
O 	O 	0.31450 0.51620 0.94550 -0.37700
C 	C 	0.20930 0.66990 0.79320 0.31300
C 	C 	0.25840 0.62060 0.81670 -0.10000
C 	C 	0.31560 0.58590 0.79330 0.00800
H 	H 	0.32330 0.59170 0.76300 0.03700
C 	C 	0.36240 0.54210 0.81370 -0.08100
H 	H 	0.40280 0.51800 0.79770 0.05900
C 	C 	0.34840 0.53420 0.85890 0.01600
H 	H 	0.38040 0.50460 0.87340 0.03700
C 	C 	0.28960 0.56830 0.88230 -0.09500
C 	C 	0.24290 0.61320 0.86080 0.02400
H 	H 	0.20220 0.63750 0.87630 0.04400
C 	C 	0.27320 0.55830 0.92990 0.31700
O 	O 	0.07120 0.80470 0.68410 -0.36400
O 	O 	0.02000 0.84090 0.74630 -0.37800
O 	O 	0.92790 0.97150 0.54060 -0.40600
O 	O 	0.02410 0.89880 0.54520 -0.33200
C 	C 	0.02840 0.84080 0.70580 0.32500
C 	C 	0.98650 0.88640 0.68030 -0.12800
C 	C 	0.92820 0.92890 0.70060 0.02900
H 	H 	0.91930 0.92900 0.73120 0.03100
C 	C 	0.88560 0.96900 0.67480 -0.10300
H 	H 	0.84770 0.99680 0.68840 0.06700
C 	C 	0.89580 0.97040 0.63160 0.03800
H 	H 	0.86420 0.99790 0.61480 0.02000
C 	C 	0.95350 0.93080 0.61150 -0.11900
C 	C 	0.99490 0.88920 0.63540 0.05300
H 	H 	0.03070 0.86140 0.62080 0.03600
C 	C 	0.96810 0.93460 0.56390 0.30700
Ag	Ag	0.84208 0.72316 0.20077 0.51400
N 	N 	0.79850 0.68430 0.13300 -0.14700
N 	N 	0.75800 0.62300 0.05830 -0.15300
C 	C 	0.74290 0.63730 0.13500 -0.00700
H 	H 	0.71630 0.62540 0.16170 0.04400
C 	C 	0.72690 0.60810 0.09720 0.01800
H 	H 	0.69090 0.57460 0.09920 0.03000
C 	C 	0.81240 0.66930 0.05690 0.00500
H 	H 	0.83970 0.68090 0.03030 0.02300
C 	C 	0.82790 0.69940 0.09390 0.01100
H 	H 	0.86210 0.73350 0.09150 0.03200
Ag	Ag	0.74852 0.54925 0.00700 0.52400
O 	O 	0.91620 0.80010 0.18040 -0.36300
O 	O 	0.96630 0.82440 0.24710 -0.38400
O 	O 	0.98840 0.91580 0.05270 -0.34200
O 	O 	0.07580 0.99310 0.06220 -0.37400
C 	C 	0.95800 0.83070 0.20640 0.31600
C 	C 	0.00710 0.88140 0.18700 -0.10400
C 	C 	0.05780 0.91910 0.21420 0.01500
H 	H 	0.05880 0.91440 0.24490 0.03400
C 	C 	0.10540 0.96270 0.19470 -0.08800
H 	H 	0.14250 0.98690 0.21210 0.06100
C 	C 	0.10060 0.97180 0.15130 0.02000
H 	H 	0.13350 0.00250 0.13880 0.03400
C 	C 	0.04750 0.93650 0.12480 -0.09500
C 	C 	0.00260 0.89130 0.14300 0.03300
H 	H 	0.96790 0.86660 0.12490 0.04400
C 	C 	0.03880 0.94890 0.07670 0.30500
O 	O 	0.77340 0.65680 0.24000 -0.37100
O 	O 	0.81470 0.68900 0.30610 -0.36600
O 	O 	0.74420 0.58020 0.43740 -0.34900
O 	O 	0.65380 0.50450 0.43210 -0.38000
C 	C 	0.77590 0.65440 0.28030 0.30200
C 	C 	0.72650 0.60440 0.30290 -0.09400
C 	C 	0.67780 0.56810 0.27820 0.01700
H 	H 	0.67490 0.57270 0.24750 0.03700
C 	C 	0.63070 0.52290 0.29890 -0.08900
H 	H 	0.59400 0.49740 0.28240 0.06100
C 	C 	0.63870 0.51660 0.34220 0.02300
H 	H 	0.60790 0.48600 0.35590 0.03400
C 	C 	0.69050 0.55340 0.36770 -0.10200
C 	C 	0.73580 0.59860 0.34670 0.03000
H 	H 	0.77220 0.62450 0.36290 0.04300
C 	C 	0.70020 0.54450 0.41550 0.31700
Ag	Ag	0.64908 0.26665 0.78885 0.52200
N 	N 	0.68940 0.31030 0.85570 -0.14800
N 	N 	0.74340 0.37320 0.92810 -0.15400
C 	C 	0.66580 0.29640 0.89510 0.01400
H 	H 	0.62900 0.26370 0.89920 0.03300
C 	C 	0.69160 0.32690 0.93120 0.00800
H 	H 	0.67190 0.31450 0.95910 0.02200
C 	C 	0.76870 0.38760 0.88790 0.01800
H 	H 	0.80550 0.42050 0.88430 0.02900
C 	C 	0.74460 0.35760 0.85150 -0.00900
H 	H 	0.76560 0.36920 0.82360 0.03900
Ag	Ag	0.79899 0.43497 0.98078 0.53000
Ag	Ag	0.58796 0.22252 0.71052 0.52100
Ag	Ag	0.47856 0.05562 0.51449 0.52700
N 	N 	0.54510 0.18360 0.64380 -0.14900
N 	N 	0.50500 0.12600 0.56760 -0.15300
C 	C 	0.58260 0.19890 0.60400 -0.00700
H 	H 	0.62440 0.22980 0.60230 0.04000
C 	C 	0.56010 0.17010 0.56710 0.02100
H 	H 	0.58520 0.18240 0.54020 0.01800
C 	C 	0.46220 0.11260 0.60500 -0.00000
H 	H 	0.41420 0.08500 0.60540 0.03700
C 	C 	0.48870 0.13970 0.64300 0.01100
H 	H 	0.46500 0.12600 0.66980 0.03300
Ag	Ag	0.50018 0.06029 0.02822 0.53800
Ag	Ag	0.38947 0.23856 0.21618 0.51800
N 	N 	0.43720 0.19290 0.15080 -0.15000
N 	N 	0.48350 0.12700 0.07970 -0.16100
C 	C 	0.48410 0.14730 0.15490 0.01200
H 	H 	0.50370 0.13610 0.18310 0.03800
C 	C 	0.50740 0.11370 0.11970 0.01600
H 	H 	0.54170 0.08010 0.12460 0.02100
C 	C 	0.43540 0.17410 0.07440 0.01300
H 	H 	0.41890 0.18620 0.04600 0.01800
C 	C 	0.40880 0.20610 0.11060 0.00600
H 	H 	0.36970 0.23790 0.10640 0.03200
O 	O 	0.72380 0.32660 0.74640 -0.38800
O 	O 	0.65940 0.29790 0.68400 -0.35000
O 	O 	0.71720 0.40950 0.55020 -0.35900
O 	O 	0.81450 0.48380 0.55450 -0.37700
C 	C 	0.70930 0.33010 0.70680 0.31300
C 	C 	0.75840 0.37940 0.68330 -0.10000
C 	C 	0.81560 0.41410 0.70670 0.00800
H 	H 	0.82330 0.40830 0.73700 0.03700
C 	C 	0.86240 0.45790 0.68630 -0.08100
H 	H 	0.90280 0.48200 0.70230 0.05900
C 	C 	0.84840 0.46580 0.64110 0.01600
H 	H 	0.88040 0.49540 0.62660 0.03700
C 	C 	0.78960 0.43170 0.61770 -0.09500
C 	C 	0.74290 0.38680 0.63920 0.02400
H 	H 	0.70220 0.36250 0.62370 0.04400
C 	C 	0.77320 0.44170 0.57010 0.31700
O 	O 	0.57120 0.19530 0.81590 -0.36400
O 	O 	0.52000 0.15910 0.75370 -0.37800
O 	O 	0.42790 0.02850 0.95940 -0.40600
O 	O 	0.52410 0.10120 0.95480 -0.33100
C 	C 	0.52840 0.15920 0.79420 0.32500
C 	C 	0.48650 0.11360 0.81970 -0.12800
C 	C 	0.42820 0.07110 0.79940 0.02900
H 	H 	0.41930 0.07100 0.76880 0.03100
C 	C 	0.38560 0.03100 0.82520 -0.10300
H 	H 	0.34770 0.00320 0.81160 0.06700
C 	C 	0.39580 0.02960 0.86840 0.03700
H 	H 	0.36420 0.00210 0.88520 0.02000
C 	C 	0.45350 0.06920 0.88850 -0.11800
C 	C 	0.49490 0.11080 0.86460 0.05300
H 	H 	0.53070 0.13860 0.87920 0.03600
C 	C 	0.46810 0.06540 0.93610 0.30700
Ag	Ag	0.34208 0.27684 0.29923 0.51400
N 	N 	0.29850 0.31570 0.36700 -0.14700
N 	N 	0.25800 0.37700 0.44170 -0.15300
C 	C 	0.24290 0.36270 0.36500 -0.00700
H 	H 	0.21630 0.37460 0.33830 0.04400
C 	C 	0.22690 0.39190 0.40280 0.01800
H 	H 	0.19090 0.42540 0.40080 0.03000
C 	C 	0.31240 0.33070 0.44310 0.00500
H 	H 	0.33970 0.31910 0.46970 0.02300
C 	C 	0.32790 0.30060 0.40610 0.01100
H 	H 	0.36210 0.26650 0.40850 0.03200
Ag	Ag	0.24852 0.45075 0.49300 0.52400
O 	O 	0.41620 0.19990 0.31960 -0.36300
O 	O 	0.46630 0.17560 0.25290 -0.38400
O 	O 	0.48840 0.08420 0.44730 -0.34200
O 	O 	0.57580 0.00690 0.43780 -0.37400
C 	C 	0.45800 0.16930 0.29360 0.31600
C 	C 	0.50710 0.11860 0.31300 -0.10400
C 	C 	0.55780 0.08090 0.28580 0.01500
H 	H 	0.55880 0.08560 0.25510 0.03400
C 	C 	0.60540 0.03730 0.30530 -0.08800
H 	H 	0.64250 0.01310 0.28790 0.06200
C 	C 	0.60060 0.02820 0.34870 0.02100
H 	H 	0.63350 0.99750 0.36120 0.03400
C 	C 	0.54750 0.06350 0.37520 -0.09500
C 	C 	0.50260 0.10870 0.35700 0.03300
H 	H 	0.46790 0.13340 0.37510 0.04300
C 	C 	0.53880 0.05110 0.42330 0.30500
O 	O 	0.27340 0.34320 0.26000 -0.37100
O 	O 	0.31470 0.31100 0.19390 -0.36600
O 	O 	0.24420 0.41980 0.06260 -0.34900
O 	O 	0.15380 0.49550 0.06790 -0.38000
C 	C 	0.27590 0.34560 0.21970 0.30200
C 	C 	0.22650 0.39560 0.19710 -0.09400
C 	C 	0.17780 0.43190 0.22180 0.01700
H 	H 	0.17490 0.42730 0.25250 0.03700
C 	C 	0.13070 0.47710 0.20110 -0.08900
H 	H 	0.09400 0.50260 0.21760 0.06100
C 	C 	0.13870 0.48340 0.15780 0.02300
H 	H 	0.10790 0.51400 0.14410 0.03400
C 	C 	0.19050 0.44660 0.13230 -0.10200
C 	C 	0.23580 0.40140 0.15330 0.03000
H 	H 	0.27220 0.37550 0.13710 0.04300
C 	C 	0.20020 0.45550 0.08450 0.31700
Ag	Ag	0.85092 0.23335 0.78885 0.52200
N 	N 	0.81060 0.18970 0.85570 -0.14800
N 	N 	0.75660 0.12680 0.92810 -0.15400
C 	C 	0.83420 0.20360 0.89510 0.01400
H 	H 	0.87100 0.23630 0.89920 0.03300
C 	C 	0.80840 0.17310 0.93120 0.00800
H 	H 	0.82810 0.18550 0.95910 0.02200
C 	C 	0.73130 0.11240 0.88790 0.01800
H 	H 	0.69450 0.07950 0.88430 0.02800
C 	C 	0.75540 0.14240 0.85150 -0.00900
H 	H 	0.73440 0.13080 0.82360 0.03900
Ag	Ag	0.70101 0.06503 0.98078 0.53000
Ag	Ag	0.91204 0.27748 0.71052 0.52100
Ag	Ag	0.02144 0.44438 0.51449 0.52700
N 	N 	0.95490 0.31640 0.64380 -0.14900
N 	N 	0.99500 0.37400 0.56760 -0.15300
C 	C 	0.91740 0.30110 0.60400 -0.00700
H 	H 	0.87560 0.27020 0.60230 0.04000
C 	C 	0.93990 0.32990 0.56710 0.02100
H 	H 	0.91480 0.31760 0.54020 0.01800
C 	C 	0.03780 0.38740 0.60500 0.00000
H 	H 	0.08580 0.41500 0.60540 0.03700
C 	C 	0.01130 0.36030 0.64300 0.01100
H 	H 	0.03500 0.37400 0.66980 0.03300
Ag	Ag	0.99982 0.43971 0.02822 0.53800
Ag	Ag	0.11053 0.26144 0.21618 0.51800
N 	N 	0.06280 0.30710 0.15080 -0.15000
N 	N 	0.01650 0.37300 0.07970 -0.16000
C 	C 	0.01590 0.35270 0.15490 0.01200
H 	H 	0.99630 0.36390 0.18310 0.03800
C 	C 	0.99260 0.38630 0.11970 0.01600
H 	H 	0.95830 0.41990 0.12460 0.02100
C 	C 	0.06460 0.32590 0.07440 0.01300
H 	H 	0.08110 0.31380 0.04600 0.01800
C 	C 	0.09120 0.29390 0.11060 0.00600
H 	H 	0.13030 0.26210 0.10640 0.03200
O 	O 	0.77620 0.17340 0.74640 -0.38800
O 	O 	0.84060 0.20210 0.68400 -0.35000
O 	O 	0.78280 0.09050 0.55020 -0.35900
O 	O 	0.68550 0.01620 0.55450 -0.37800
C 	C 	0.79070 0.16990 0.70680 0.31300
C 	C 	0.74160 0.12060 0.68330 -0.10000
C 	C 	0.68440 0.08590 0.70670 0.00800
H 	H 	0.67670 0.09170 0.73700 0.03700
C 	C 	0.63760 0.04210 0.68630 -0.08100
H 	H 	0.59720 0.01800 0.70230 0.05900
C 	C 	0.65160 0.03420 0.64110 0.01600
H 	H 	0.61960 0.00460 0.62660 0.03700
C 	C 	0.71040 0.06830 0.61770 -0.09500
C 	C 	0.75710 0.11320 0.63920 0.02400
H 	H 	0.79780 0.13750 0.62370 0.04400
C 	C 	0.72680 0.05830 0.57010 0.31700
O 	O 	0.92880 0.30470 0.81590 -0.36500
O 	O 	0.98000 0.34090 0.75370 -0.37800
O 	O 	0.07210 0.47150 0.95940 -0.40600
O 	O 	0.97590 0.39880 0.95480 -0.33100
C 	C 	0.97160 0.34080 0.79420 0.32500
C 	C 	0.01350 0.38640 0.81970 -0.12800
C 	C 	0.07180 0.42890 0.79940 0.02900
H 	H 	0.08070 0.42900 0.76880 0.03100
C 	C 	0.11440 0.46900 0.82520 -0.10300
H 	H 	0.15230 0.49680 0.81160 0.06700
C 	C 	0.10420 0.47040 0.86840 0.03700
H 	H 	0.13580 0.49790 0.88520 0.02000
C 	C 	0.04650 0.43080 0.88850 -0.11800
C 	C 	0.00510 0.38920 0.86460 0.05300
H 	H 	0.96930 0.36140 0.87920 0.03600
C 	C 	0.03190 0.43460 0.93610 0.30700
Ag	Ag	0.15792 0.22316 0.29923 0.51400
N 	N 	0.20150 0.18430 0.36700 -0.14700
N 	N 	0.24200 0.12300 0.44170 -0.15300
C 	C 	0.25710 0.13730 0.36500 -0.00700
H 	H 	0.28370 0.12540 0.33830 0.04400
C 	C 	0.27310 0.10810 0.40280 0.01800
H 	H 	0.30910 0.07460 0.40080 0.03000
C 	C 	0.18760 0.16930 0.44310 0.00500
H 	H 	0.16030 0.18090 0.46970 0.02300
C 	C 	0.17210 0.19940 0.40610 0.01100
H 	H 	0.13790 0.23350 0.40850 0.03200
Ag	Ag	0.25148 0.04925 0.49300 0.52400
O 	O 	0.08380 0.30010 0.31960 -0.36300
O 	O 	0.03370 0.32440 0.25290 -0.38400
O 	O 	0.01160 0.41580 0.44730 -0.34200
O 	O 	0.92420 0.49310 0.43780 -0.37400
C 	C 	0.04200 0.33070 0.29360 0.31600
C 	C 	0.99290 0.38140 0.31300 -0.10400
C 	C 	0.94220 0.41910 0.28580 0.01500
H 	H 	0.94120 0.41440 0.25510 0.03400
C 	C 	0.89460 0.46270 0.30530 -0.08800
H 	H 	0.85750 0.48690 0.28790 0.06200
C 	C 	0.89940 0.47180 0.34870 0.02100
H 	H 	0.86650 0.50250 0.36120 0.03400
C 	C 	0.95250 0.43650 0.37520 -0.09500
C 	C 	0.99740 0.39130 0.35700 0.03300
H 	H 	0.03210 0.36660 0.37510 0.04300
C 	C 	0.96120 0.44890 0.42330 0.30500
O 	O 	0.22660 0.15680 0.26000 -0.37100
O 	O 	0.18530 0.18900 0.19390 -0.36600
O 	O 	0.25580 0.08020 0.06260 -0.34900
O 	O 	0.34620 0.00450 0.06790 -0.38000
C 	C 	0.22410 0.15440 0.21970 0.30200
C 	C 	0.27350 0.10440 0.19710 -0.09400
C 	C 	0.32220 0.06810 0.22180 0.01700
H 	H 	0.32510 0.07270 0.25250 0.03700
C 	C 	0.36930 0.02290 0.20110 -0.08900
H 	H 	0.40600 0.99740 0.21760 0.06100
C 	C 	0.36130 0.01660 0.15780 0.02300
H 	H 	0.39210 0.98600 0.14410 0.03400
C 	C 	0.30950 0.05340 0.13230 -0.10200
C 	C 	0.26420 0.09860 0.15330 0.03000
H 	H 	0.22780 0.12450 0.13710 0.04300
C 	C 	0.29980 0.04450 0.08450 0.31700
Ag	Ag	0.64908 0.23335 0.28885 0.52200
N 	N 	0.68940 0.18970 0.35570 -0.14800
N 	N 	0.74340 0.12680 0.42810 -0.15400
C 	C 	0.66580 0.20360 0.39510 0.01400
H 	H 	0.62900 0.23630 0.39920 0.03300
C 	C 	0.69160 0.17310 0.43120 0.00800
H 	H 	0.67190 0.18550 0.45910 0.02200
C 	C 	0.76870 0.11240 0.38790 0.01800
H 	H 	0.80550 0.07950 0.38430 0.02800
C 	C 	0.74460 0.14240 0.35150 -0.00900
H 	H 	0.76560 0.13080 0.32360 0.03900
Ag	Ag	0.79899 0.06503 0.48078 0.52900
Ag	Ag	0.58796 0.27748 0.21052 0.52100
Ag	Ag	0.47856 0.44438 0.01449 0.52700
N 	N 	0.54510 0.31640 0.14380 -0.14900
N 	N 	0.50500 0.37400 0.06760 -0.15300
C 	C 	0.58260 0.30110 0.10400 -0.00700
H 	H 	0.62440 0.27020 0.10230 0.04000
C 	C 	0.56010 0.32990 0.06710 0.02100
H 	H 	0.58520 0.31760 0.04020 0.01800
C 	C 	0.46220 0.38740 0.10500 0.00000
H 	H 	0.41420 0.41500 0.10540 0.03700
C 	C 	0.48870 0.36030 0.14300 0.01100
H 	H 	0.46500 0.37400 0.16980 0.03300
Ag	Ag	0.50018 0.43971 0.52822 0.53800
Ag	Ag	0.38947 0.26144 0.71618 0.51800
N 	N 	0.43720 0.30710 0.65080 -0.15000
N 	N 	0.48350 0.37300 0.57970 -0.16100
C 	C 	0.48410 0.35270 0.65490 0.01200
H 	H 	0.50370 0.36390 0.68310 0.03800
C 	C 	0.50740 0.38630 0.61970 0.01600
H 	H 	0.54170 0.41990 0.62460 0.02100
C 	C 	0.43540 0.32590 0.57440 0.01300
H 	H 	0.41890 0.31380 0.54600 0.01800
C 	C 	0.40880 0.29390 0.61060 0.00600
H 	H 	0.36970 0.26210 0.60640 0.03200
O 	O 	0.72380 0.17340 0.24640 -0.38800
O 	O 	0.65940 0.20210 0.18400 -0.35000
O 	O 	0.71720 0.09050 0.05020 -0.35800
O 	O 	0.81450 0.01620 0.05450 -0.37800
C 	C 	0.70930 0.16990 0.20680 0.31300
C 	C 	0.75840 0.12060 0.18330 -0.10000
C 	C 	0.81560 0.08590 0.20670 0.00800
H 	H 	0.82330 0.09170 0.23700 0.03700
C 	C 	0.86240 0.04210 0.18630 -0.08100
H 	H 	0.90280 0.01800 0.20230 0.05900
C 	C 	0.84840 0.03420 0.14110 0.01600
H 	H 	0.88040 0.00460 0.12660 0.03700
C 	C 	0.78960 0.06830 0.11770 -0.09500
C 	C 	0.74290 0.11320 0.13920 0.02400
H 	H 	0.70220 0.13750 0.12370 0.04400
C 	C 	0.77320 0.05830 0.07010 0.31700
O 	O 	0.57120 0.30470 0.31590 -0.36400
O 	O 	0.52000 0.34090 0.25370 -0.37800
O 	O 	0.42790 0.47150 0.45940 -0.40600
O 	O 	0.52410 0.39880 0.45480 -0.33100
C 	C 	0.52840 0.34080 0.29420 0.32500
C 	C 	0.48650 0.38640 0.31970 -0.12800
C 	C 	0.42820 0.42890 0.29940 0.02900
H 	H 	0.41930 0.42900 0.26880 0.03100
C 	C 	0.38560 0.46900 0.32520 -0.10300
H 	H 	0.34770 0.49680 0.31160 0.06700
C 	C 	0.39580 0.47040 0.36840 0.03700
H 	H 	0.36420 0.49790 0.38520 0.02000
C 	C 	0.45350 0.43080 0.38850 -0.11800
C 	C 	0.49490 0.38920 0.36460 0.05300
H 	H 	0.53070 0.36140 0.37920 0.03600
C 	C 	0.46810 0.43460 0.43610 0.30700
Ag	Ag	0.34208 0.22316 0.79923 0.51400
N 	N 	0.29850 0.18430 0.86700 -0.14700
N 	N 	0.25800 0.12300 0.94170 -0.15300
C 	C 	0.24290 0.13730 0.86500 -0.00700
H 	H 	0.21630 0.12540 0.83830 0.04400
C 	C 	0.22690 0.10810 0.90280 0.01800
H 	H 	0.19090 0.07460 0.90080 0.03000
C 	C 	0.31240 0.16930 0.94310 0.00500
H 	H 	0.33970 0.18090 0.96970 0.02300
C 	C 	0.32790 0.19940 0.90610 0.01100
H 	H 	0.36210 0.23350 0.90850 0.03200
Ag	Ag	0.24852 0.04925 0.99300 0.52400
O 	O 	0.41620 0.30010 0.81960 -0.36300
O 	O 	0.46630 0.32440 0.75290 -0.38400
O 	O 	0.48840 0.41580 0.94730 -0.34200
O 	O 	0.57580 0.49310 0.93780 -0.37300
C 	C 	0.45800 0.33070 0.79360 0.31600
C 	C 	0.50710 0.38140 0.81300 -0.10400
C 	C 	0.55780 0.41910 0.78580 0.01500
H 	H 	0.55880 0.41440 0.75510 0.03400
C 	C 	0.60540 0.46270 0.80530 -0.08800
H 	H 	0.64250 0.48690 0.78790 0.06200
C 	C 	0.60060 0.47180 0.84870 0.02100
H 	H 	0.63350 0.50250 0.86120 0.03400
C 	C 	0.54750 0.43650 0.87520 -0.09600
C 	C 	0.50260 0.39130 0.85700 0.03300
H 	H 	0.46790 0.36660 0.87510 0.04300
C 	C 	0.53880 0.44890 0.92330 0.30500
O 	O 	0.27340 0.15680 0.76000 -0.37100
O 	O 	0.31470 0.18900 0.69390 -0.36600
O 	O 	0.24420 0.08020 0.56260 -0.34900
O 	O 	0.15380 0.00450 0.56790 -0.38000
C 	C 	0.27590 0.15440 0.71970 0.30200
C 	C 	0.22650 0.10440 0.69710 -0.09400
C 	C 	0.17780 0.06810 0.72180 0.01600
H 	H 	0.17490 0.07270 0.75250 0.03700
C 	C 	0.13070 0.02290 0.70110 -0.08900
H 	H 	0.09400 0.99740 0.71760 0.06100
C 	C 	0.13870 0.01660 0.65780 0.02300
H 	H 	0.10790 0.98600 0.64410 0.03400
C 	C 	0.19050 0.05340 0.63230 -0.10200
C 	C 	0.23580 0.09860 0.65330 0.03000
H 	H 	0.27220 0.12450 0.63710 0.04300
C 	C 	0.20020 0.04450 0.58450 0.31700
Ag	Ag	0.85092 0.26665 0.28885 0.52200
N 	N 	0.81060 0.31030 0.35570 -0.14800
N 	N 	0.75660 0.37320 0.42810 -0.15400
C 	C 	0.83420 0.29640 0.39510 0.01400
H 	H 	0.87100 0.26370 0.39920 0.03300
C 	C 	0.80840 0.32690 0.43120 0.00800
H 	H 	0.82810 0.31450 0.45910 0.02200
C 	C 	0.73130 0.38760 0.38790 0.01800
H 	H 	0.69450 0.42050 0.38430 0.02900
C 	C 	0.75540 0.35760 0.35150 -0.00900
H 	H 	0.73440 0.36920 0.32360 0.03900
Ag	Ag	0.70101 0.43497 0.48078 0.52900
Ag	Ag	0.91204 0.22252 0.21052 0.52100
Ag	Ag	0.02144 0.05562 0.01449 0.52700
N 	N 	0.95490 0.18360 0.14380 -0.14900
N 	N 	0.99500 0.12600 0.06760 -0.15300
C 	C 	0.91740 0.19890 0.10400 -0.00700
H 	H 	0.87560 0.22980 0.10230 0.04000
C 	C 	0.93990 0.17010 0.06710 0.02100
H 	H 	0.91480 0.18240 0.04020 0.01800
C 	C 	0.03780 0.11260 0.10500 0.00000
H 	H 	0.08580 0.08500 0.10540 0.03700
C 	C 	0.01130 0.13970 0.14300 0.01100
H 	H 	0.03500 0.12600 0.16980 0.03300
Ag	Ag	0.99982 0.06029 0.52822 0.53700
Ag	Ag	0.11053 0.23856 0.71618 0.51800
N 	N 	0.06280 0.19290 0.65080 -0.15000
N 	N 	0.01650 0.12700 0.57970 -0.16000
C 	C 	0.01590 0.14730 0.65490 0.01300
H 	H 	0.99630 0.13610 0.68310 0.03700
C 	C 	0.99260 0.11370 0.61970 0.01500
H 	H 	0.95830 0.08010 0.62460 0.02100
C 	C 	0.06460 0.17410 0.57440 0.01300
H 	H 	0.08110 0.18620 0.54600 0.01800
C 	C 	0.09120 0.20610 0.61060 0.00600
H 	H 	0.13030 0.23790 0.60640 0.03200
O 	O 	0.77620 0.32660 0.24640 -0.38800
O 	O 	0.84060 0.29790 0.18400 -0.35000
O 	O 	0.78280 0.40950 0.05020 -0.35800
O 	O 	0.68550 0.48380 0.05450 -0.37700
C 	C 	0.79070 0.33010 0.20680 0.31300
C 	C 	0.74160 0.37940 0.18330 -0.10000
C 	C 	0.68440 0.41410 0.20670 0.00800
H 	H 	0.67670 0.40830 0.23700 0.03700
C 	C 	0.63760 0.45790 0.18630 -0.08100
H 	H 	0.59720 0.48200 0.20230 0.05900
C 	C 	0.65160 0.46580 0.14110 0.01600
H 	H 	0.61960 0.49540 0.12660 0.03700
C 	C 	0.71040 0.43170 0.11770 -0.09500
C 	C 	0.75710 0.38680 0.13920 0.02400
H 	H 	0.79780 0.36250 0.12370 0.04400
C 	C 	0.72680 0.44170 0.07010 0.31700
O 	O 	0.92880 0.19530 0.31590 -0.36400
O 	O 	0.98000 0.15910 0.25370 -0.37800
O 	O 	0.07210 0.02850 0.45940 -0.40600
O 	O 	0.97590 0.10120 0.45480 -0.33200
C 	C 	0.97160 0.15920 0.29420 0.32500
C 	C 	0.01350 0.11360 0.31970 -0.12800
C 	C 	0.07180 0.07110 0.29940 0.02900
H 	H 	0.08070 0.07100 0.26880 0.03100
C 	C 	0.11440 0.03100 0.32520 -0.10300
H 	H 	0.15230 0.00320 0.31160 0.06700
C 	C 	0.10420 0.02960 0.36840 0.03800
H 	H 	0.13580 0.00210 0.38520 0.02000
C 	C 	0.04650 0.06920 0.38850 -0.11900
C 	C 	0.00510 0.11080 0.36460 0.05300
H 	H 	0.96930 0.13860 0.37920 0.03600
C 	C 	0.03190 0.06540 0.43610 0.30700
Ag	Ag	0.15792 0.27684 0.79923 0.51400
N 	N 	0.20150 0.31570 0.86700 -0.14700
N 	N 	0.24200 0.37700 0.94170 -0.15300
C 	C 	0.25710 0.36270 0.86500 -0.00700
H 	H 	0.28370 0.37460 0.83830 0.04400
C 	C 	0.27310 0.39190 0.90280 0.01800
H 	H 	0.30910 0.42540 0.90080 0.03000
C 	C 	0.18760 0.33070 0.94310 0.00500
H 	H 	0.16030 0.31910 0.96970 0.02300
C 	C 	0.17210 0.30060 0.90610 0.01100
H 	H 	0.13790 0.26650 0.90850 0.03200
Ag	Ag	0.25148 0.45075 0.99300 0.52400
O 	O 	0.08380 0.19990 0.81960 -0.36300
O 	O 	0.03370 0.17560 0.75290 -0.38400
O 	O 	0.01160 0.08420 0.94730 -0.34200
O 	O 	0.92420 0.00690 0.93780 -0.37400
C 	C 	0.04200 0.16930 0.79360 0.31600
C 	C 	0.99290 0.11860 0.81300 -0.10400
C 	C 	0.94220 0.08090 0.78580 0.01500
H 	H 	0.94120 0.08560 0.75510 0.03400
C 	C 	0.89460 0.03730 0.80530 -0.08800
H 	H 	0.85750 0.01310 0.78790 0.06100
C 	C 	0.89940 0.02820 0.84870 0.02000
H 	H 	0.86650 0.99750 0.86120 0.03400
C 	C 	0.95250 0.06350 0.87520 -0.09500
C 	C 	0.99740 0.10870 0.85700 0.03300
H 	H 	0.03210 0.13340 0.87510 0.04400
C 	C 	0.96120 0.05110 0.92330 0.30500
O 	O 	0.22660 0.34320 0.76000 -0.37100
O 	O 	0.18530 0.31100 0.69390 -0.36600
O 	O 	0.25580 0.41980 0.56260 -0.34900
O 	O 	0.34620 0.49550 0.56790 -0.38000
C 	C 	0.22410 0.34560 0.71970 0.30200
C 	C 	0.27350 0.39560 0.69710 -0.09400
C 	C 	0.32220 0.43190 0.72180 0.01700
H 	H 	0.32510 0.42730 0.75250 0.03700
C 	C 	0.36930 0.47710 0.70110 -0.08900
H 	H 	0.40600 0.50260 0.71760 0.06100
C 	C 	0.36130 0.48340 0.65780 0.02300
H 	H 	0.39210 0.51400 0.64410 0.03400
C 	C 	0.30950 0.44660 0.63230 -0.10200
C 	C 	0.26420 0.40140 0.65330 0.03000
H 	H 	0.22780 0.37550 0.63710 0.04300
C 	C 	0.29980 0.45550 0.58450 0.31700
Ag	Ag	0.35092 0.73335 0.21115 0.52200
N 	N 	0.31060 0.68970 0.14430 -0.14800
N 	N 	0.25660 0.62680 0.07190 -0.15400
C 	C 	0.33420 0.70360 0.10490 0.01400
H 	H 	0.37100 0.73630 0.10080 0.03300
C 	C 	0.30840 0.67310 0.06880 0.00800
H 	H 	0.32810 0.68550 0.04090 0.02200
C 	C 	0.23130 0.61240 0.11210 0.01800
H 	H 	0.19450 0.57950 0.11570 0.02900
C 	C 	0.25540 0.64240 0.14850 -0.00900
H 	H 	0.23440 0.63080 0.17640 0.03900
Ag	Ag	0.20101 0.56503 0.01922 0.53000
Ag	Ag	0.41204 0.77748 0.28948 0.52100
Ag	Ag	0.52144 0.94438 0.48551 0.52700
N 	N 	0.45490 0.81640 0.35620 -0.14900
N 	N 	0.49500 0.87400 0.43240 -0.15300
C 	C 	0.41740 0.80110 0.39600 -0.00700
H 	H 	0.37560 0.77020 0.39770 0.04000
C 	C 	0.43990 0.82990 0.43290 0.02100
H 	H 	0.41480 0.81760 0.45980 0.01800
C 	C 	0.53780 0.88740 0.39500 -0.00000
H 	H 	0.58580 0.91500 0.39460 0.03700
C 	C 	0.51130 0.86030 0.35700 0.01100
H 	H 	0.53500 0.87400 0.33020 0.03300
Ag	Ag	0.49982 0.93971 0.97178 0.53800
Ag	Ag	0.61053 0.76144 0.78382 0.51800
N 	N 	0.56280 0.80710 0.84920 -0.15000
N 	N 	0.51650 0.87300 0.92030 -0.16100
C 	C 	0.51590 0.85270 0.84510 0.01200
H 	H 	0.49630 0.86390 0.81690 0.03800
C 	C 	0.49260 0.88630 0.88030 0.01600
H 	H 	0.45830 0.91990 0.87540 0.02100
C 	C 	0.56460 0.82590 0.92560 0.01300
H 	H 	0.58110 0.81380 0.95400 0.01800
C 	C 	0.59120 0.79390 0.88940 0.00600
H 	H 	0.63030 0.76210 0.89360 0.03200
O 	O 	0.27620 0.67340 0.25360 -0.38800
O 	O 	0.34060 0.70210 0.31600 -0.35000
O 	O 	0.28280 0.59050 0.44980 -0.35900
O 	O 	0.18550 0.51620 0.44550 -0.37700
C 	C 	0.29070 0.66990 0.29320 0.31300
C 	C 	0.24160 0.62060 0.31670 -0.10000
C 	C 	0.18440 0.58590 0.29330 0.00800
H 	H 	0.17670 0.59170 0.26300 0.03700
C 	C 	0.13760 0.54210 0.31370 -0.08100
H 	H 	0.09720 0.51800 0.29770 0.05900
C 	C 	0.15160 0.53420 0.35890 0.01600
H 	H 	0.11960 0.50460 0.37340 0.03700
C 	C 	0.21040 0.56830 0.38230 -0.09500
C 	C 	0.25710 0.61320 0.36080 0.02400
H 	H 	0.29780 0.63750 0.37630 0.04400
C 	C 	0.22680 0.55830 0.42990 0.31700
O 	O 	0.42880 0.80470 0.18410 -0.36400
O 	O 	0.48000 0.84090 0.24630 -0.37800
O 	O 	0.57210 0.97150 0.04060 -0.40600
O 	O 	0.47590 0.89880 0.04520 -0.33100
C 	C 	0.47160 0.84080 0.20580 0.32500
C 	C 	0.51350 0.88640 0.18030 -0.12800
C 	C 	0.57180 0.92890 0.20060 0.02900
H 	H 	0.58070 0.92900 0.23120 0.03100
C 	C 	0.61440 0.96900 0.17480 -0.10300
H 	H 	0.65230 0.99680 0.18840 0.06700
C 	C 	0.60420 0.97040 0.13160 0.03700
H 	H 	0.63580 0.99790 0.11480 0.02000
C 	C 	0.54650 0.93080 0.11150 -0.11800
C 	C 	0.50510 0.88920 0.13540 0.05300
H 	H 	0.46930 0.86140 0.12080 0.03600
C 	C 	0.53190 0.93460 0.06390 0.30700
Ag	Ag	0.65792 0.72316 0.70077 0.51400
N 	N 	0.70150 0.68430 0.63300 -0.14700
N 	N 	0.74200 0.62300 0.55830 -0.15300
C 	C 	0.75710 0.63730 0.63500 -0.00700
H 	H 	0.78370 0.62540 0.66170 0.04400
C 	C 	0.77310 0.60810 0.59720 0.01800
H 	H 	0.80910 0.57460 0.59920 0.03000
C 	C 	0.68760 0.66930 0.55690 0.00500
H 	H 	0.66030 0.68090 0.53030 0.02300
C 	C 	0.67210 0.69940 0.59390 0.01100
H 	H 	0.63790 0.73350 0.59150 0.03200
Ag	Ag	0.75148 0.54925 0.50700 0.52400
O 	O 	0.58380 0.80010 0.68040 -0.36300
O 	O 	0.53370 0.82440 0.74710 -0.38400
O 	O 	0.51160 0.91580 0.55270 -0.34200
O 	O 	0.42420 0.99310 0.56220 -0.37400
C 	C 	0.54200 0.83070 0.70640 0.31600
C 	C 	0.49290 0.88140 0.68700 -0.10400
C 	C 	0.44220 0.91910 0.71420 0.01500
H 	H 	0.44120 0.91440 0.74490 0.03400
C 	C 	0.39460 0.96270 0.69470 -0.08800
H 	H 	0.35750 0.98690 0.71210 0.06200
C 	C 	0.39940 0.97180 0.65130 0.02100
H 	H 	0.36650 0.00250 0.63880 0.03400
C 	C 	0.45250 0.93650 0.62480 -0.09500
C 	C 	0.49740 0.89130 0.64300 0.03300
H 	H 	0.53210 0.86660 0.62490 0.04300
C 	C 	0.46120 0.94890 0.57670 0.30500
O 	O 	0.72660 0.65680 0.74000 -0.37100
O 	O 	0.68530 0.68900 0.80610 -0.36600
O 	O 	0.75580 0.58020 0.93740 -0.34900
O 	O 	0.84620 0.50450 0.93210 -0.38000
C 	C 	0.72410 0.65440 0.78030 0.30200
C 	C 	0.77350 0.60440 0.80290 -0.09400
C 	C 	0.82220 0.56810 0.77820 0.01700
H 	H 	0.82510 0.57270 0.74750 0.03700
C 	C 	0.86930 0.52290 0.79890 -0.08900
H 	H 	0.90600 0.49740 0.78240 0.06100
C 	C 	0.86130 0.51660 0.84220 0.02300
H 	H 	0.89210 0.48600 0.85590 0.03400
C 	C 	0.80950 0.55340 0.86770 -0.10200
C 	C 	0.76420 0.59860 0.84670 0.03000
H 	H 	0.72780 0.62450 0.86290 0.04300
C 	C 	0.79980 0.54450 0.91550 0.31700
Ag	Ag	0.14908 0.76665 0.21115 0.52200
N 	N 	0.18940 0.81030 0.14430 -0.14800
N 	N 	0.24340 0.87320 0.07190 -0.15400
C 	C 	0.16580 0.79640 0.10490 0.01400
H 	H 	0.12900 0.76370 0.10080 0.03300
C 	C 	0.19160 0.82690 0.06880 0.00800
H 	H 	0.17190 0.81450 0.04090 0.02200
C 	C 	0.26870 0.88760 0.11210 0.01800
H 	H 	0.30550 0.92050 0.11570 0.02800
C 	C 	0.24460 0.85760 0.14850 -0.00900
H 	H 	0.26560 0.86920 0.17640 0.03900
Ag	Ag	0.29899 0.93497 0.01922 0.53000
Ag	Ag	0.08796 0.72252 0.28948 0.52100
Ag	Ag	0.97856 0.55562 0.48551 0.52700
N 	N 	0.04510 0.68360 0.35620 -0.14900
N 	N 	0.00500 0.62600 0.43240 -0.15300
C 	C 	0.08260 0.69890 0.39600 -0.00700
H 	H 	0.12440 0.72980 0.39770 0.04000
C 	C 	0.06010 0.67010 0.43290 0.02100
H 	H 	0.08520 0.68240 0.45980 0.01800
C 	C 	0.96220 0.61260 0.39500 0.00000
H 	H 	0.91420 0.58500 0.39460 0.03700
C 	C 	0.98870 0.63970 0.35700 0.01100
H 	H 	0.96500 0.62600 0.33020 0.03300
Ag	Ag	0.00018 0.56029 0.97178 0.53800
Ag	Ag	0.88947 0.73856 0.78382 0.51800
N 	N 	0.93720 0.69290 0.84920 -0.15000
N 	N 	0.98350 0.62700 0.92030 -0.16000
C 	C 	0.98410 0.64730 0.84510 0.01200
H 	H 	0.00370 0.63610 0.81690 0.03800
C 	C 	0.00740 0.61370 0.88030 0.01600
H 	H 	0.04170 0.58010 0.87540 0.02100
C 	C 	0.93540 0.67410 0.92560 0.01300
H 	H 	0.91890 0.68620 0.95400 0.01800
C 	C 	0.90880 0.70610 0.88940 0.00600
H 	H 	0.86970 0.73790 0.89360 0.03200
O 	O 	0.22380 0.82660 0.25360 -0.38800
O 	O 	0.15940 0.79790 0.31600 -0.35000
O 	O 	0.21720 0.90950 0.44980 -0.35900
O 	O 	0.31450 0.98380 0.44550 -0.37800
C 	C 	0.20930 0.83010 0.29320 0.31300
C 	C 	0.25840 0.87940 0.31670 -0.10000
C 	C 	0.31560 0.91410 0.29330 0.00800
H 	H 	0.32330 0.90830 0.26300 0.03700
C 	C 	0.36240 0.95790 0.31370 -0.08100
H 	H 	0.40280 0.98200 0.29770 0.05900
C 	C 	0.34840 0.96580 0.35890 0.01600
H 	H 	0.38040 0.99540 0.37340 0.03700
C 	C 	0.28960 0.93170 0.38230 -0.09500
C 	C 	0.24290 0.88680 0.36080 0.02400
H 	H 	0.20220 0.86250 0.37630 0.04400
C 	C 	0.27320 0.94170 0.42990 0.31700
O 	O 	0.07120 0.69530 0.18410 -0.36500
O 	O 	0.02000 0.65910 0.24630 -0.37800
O 	O 	0.92790 0.52850 0.04060 -0.40600
O 	O 	0.02410 0.60120 0.04520 -0.33100
C 	C 	0.02840 0.65920 0.20580 0.32500
C 	C 	0.98650 0.61360 0.18030 -0.12800
C 	C 	0.92820 0.57110 0.20060 0.02900
H 	H 	0.91930 0.57100 0.23120 0.03100
C 	C 	0.88560 0.53100 0.17480 -0.10300
H 	H 	0.84770 0.50320 0.18840 0.06700
C 	C 	0.89580 0.52960 0.13160 0.03700
H 	H 	0.86420 0.50210 0.11480 0.02000
C 	C 	0.95350 0.56920 0.11150 -0.11800
C 	C 	0.99490 0.61080 0.13540 0.05300
H 	H 	0.03070 0.63860 0.12080 0.03600
C 	C 	0.96810 0.56540 0.06390 0.30700
Ag	Ag	0.84208 0.77684 0.70077 0.51400
N 	N 	0.79850 0.81570 0.63300 -0.14700
N 	N 	0.75800 0.87700 0.55830 -0.15300
C 	C 	0.74290 0.86270 0.63500 -0.00700
H 	H 	0.71630 0.87460 0.66170 0.04400
C 	C 	0.72690 0.89190 0.59720 0.01800
H 	H 	0.69090 0.92540 0.59920 0.03000
C 	C 	0.81240 0.83070 0.55690 0.00500
H 	H 	0.83970 0.81910 0.53030 0.02300
C 	C 	0.82790 0.80060 0.59390 0.01100
H 	H 	0.86210 0.76650 0.59150 0.03200
Ag	Ag	0.74852 0.95075 0.50700 0.52400
O 	O 	0.91620 0.69990 0.68040 -0.36300
O 	O 	0.96630 0.67560 0.74710 -0.38400
O 	O 	0.98840 0.58420 0.55270 -0.34200
O 	O 	0.07580 0.50690 0.56220 -0.37400
C 	C 	0.95800 0.66930 0.70640 0.31600
C 	C 	0.00710 0.61860 0.68700 -0.10400
C 	C 	0.05780 0.58090 0.71420 0.01500
H 	H 	0.05880 0.58560 0.74490 0.03400
C 	C 	0.10540 0.53730 0.69470 -0.08800
H 	H 	0.14250 0.51310 0.71210 0.06200
C 	C 	0.10060 0.52820 0.65130 0.02100
H 	H 	0.13350 0.49750 0.63880 0.03400
C 	C 	0.04750 0.56350 0.62480 -0.09500
C 	C 	0.00260 0.60870 0.64300 0.03300
H 	H 	0.96790 0.63340 0.62490 0.04300
C 	C 	0.03880 0.55110 0.57670 0.30500
O 	O 	0.77340 0.84320 0.74000 -0.37100
O 	O 	0.81470 0.81100 0.80610 -0.36600
O 	O 	0.74420 0.91980 0.93740 -0.34900
O 	O 	0.65380 0.99550 0.93210 -0.38000
C 	C 	0.77590 0.84560 0.78030 0.30200
C 	C 	0.72650 0.89560 0.80290 -0.09400
C 	C 	0.67780 0.93190 0.77820 0.01700
H 	H 	0.67490 0.92730 0.74750 0.03700
C 	C 	0.63070 0.97710 0.79890 -0.08900
H 	H 	0.59400 0.00260 0.78240 0.06100
C 	C 	0.63870 0.98340 0.84220 0.02300
H 	H 	0.60790 0.01400 0.85590 0.03400
C 	C 	0.69050 0.94660 0.86770 -0.10200
C 	C 	0.73580 0.90140 0.84670 0.03000
H 	H 	0.77220 0.87550 0.86290 0.04300
C 	C 	0.70020 0.95550 0.91550 0.31700
