data_crystal

_cell_length_a 14.23270
_cell_length_b 23.82800
_cell_length_c 30.74900
_cell_angle_alpha 90.00000
_cell_angle_beta  90.00000
_cell_angle_gamma 90.00000

_symmetry_space_group_name_	'P 1'
_symmetry_space_group_name_H-M	'P 1'

loop_
_symmetry_equiv_pos_as_xyz
  x,y,z

loop_
_atom_site_label
_atom_site_type_symbol
_atom_site_fract_x
_atom_site_fract_y
_atom_site_fract_z
_atom_site_charge
O 	O 	0.28240 0.90950 0.94970 -0.36300
Ag	Ag	0.30040 0.93458 0.01933 0.52800
N 	N 	0.24220 0.87310 0.07180 -0.15500
O 	O 	0.34720 0.00420 0.06840 -0.38500
C 	C 	0.26870 0.88740 0.11220 0.01300
C 	C 	0.19390 0.82630 0.06910 0.01300
C 	C 	0.24230 0.85750 0.14880 -0.00600
H 	H 	0.30750 0.91950 0.11590 0.02900
C 	C 	0.16630 0.79620 0.10470 0.00900
H 	H 	0.17740 0.81270 0.04110 0.02000
N 	N 	0.18960 0.80990 0.14440 -0.14900
H 	H 	0.26070 0.87010 0.17680 0.03600
H 	H 	0.12840 0.76380 0.10040 0.03300
Ag	Ag	0.14867 0.76627 0.21115 0.52100
O 	O 	0.07020 0.69530 0.18380 -0.36300
O 	O 	0.22410 0.82660 0.25340 -0.38200
C 	C 	0.02830 0.65860 0.20550 0.31900
C 	C 	0.20830 0.82970 0.29350 0.30300
O 	O 	0.01900 0.65810 0.24580 -0.37700
C 	C 	0.98560 0.61270 0.17940 -0.11800
O 	O 	0.15930 0.79710 0.31620 -0.34800
C 	C 	0.25940 0.87910 0.31660 -0.09700
Ag	Ag	0.08686 0.72192 0.28924 0.52000
C 	C 	0.92720 0.57140 0.19980 0.02200
C 	C 	0.99530 0.61070 0.13450 0.04300
C 	C 	0.31450 0.91360 0.29380 0.00900
C 	C 	0.24310 0.88600 0.36080 0.02100
N 	N 	0.04570 0.68310 0.35610 -0.14900
H 	H 	0.91720 0.57180 0.23040 0.03400
C 	C 	0.88540 0.53060 0.17360 -0.09400
H 	H 	0.03200 0.63840 0.12020 0.03900
C 	C 	0.95310 0.56940 0.11030 -0.10900
C 	C 	0.36340 0.95750 0.31360 -0.08000
H 	H 	0.32050 0.90820 0.26330 0.03700
H 	H 	0.20240 0.86140 0.37610 0.04500
C 	C 	0.28880 0.93080 0.38220 -0.09200
Ag	Ag	0.97728 0.55544 0.48556 0.52900
C 	C 	0.98730 0.63970 0.35670 0.00900
C 	C 	0.08320 0.69840 0.39580 -0.00200
C 	C 	0.89560 0.52930 0.13010 0.02900
H 	H 	0.84810 0.50250 0.18710 0.06400
C 	C 	0.96890 0.56630 0.06280 0.29300
H 	H 	0.40450 0.98110 0.29760 0.05900
C 	C 	0.34890 0.96520 0.35920 0.01300
C 	C 	0.27200 0.94140 0.42980 0.31400
O 	O 	0.99140 0.58400 0.55280 -0.34900
H 	H 	0.96210 0.62690 0.32990 0.03400
C 	C 	0.96100 0.61190 0.39460 0.00200
H 	H 	0.12520 0.72930 0.39730 0.03900
C 	C 	0.06080 0.66970 0.43300 0.01300
H 	H 	0.86440 0.50170 0.11310 0.02100
O 	O 	0.92840 0.52930 0.03930 -0.40400
O 	O 	0.02570 0.60280 0.04420 -0.32600
H 	H 	0.38110 0.99460 0.37390 0.03800
O 	O 	0.31630 0.98350 0.44580 -0.37200
C 	C 	0.03950 0.55100 0.57680 0.32200
N 	N 	0.00220 0.62570 0.43220 -0.15000
H 	H 	0.91420 0.58350 0.39370 0.03800
H 	H 	0.08730 0.68130 0.45990 0.02100
Ag	Ag	0.99913 0.43976 0.02926 0.53800
Ag	Ag	0.25171 0.04849 0.49359 0.52200
O 	O 	0.07420 0.50630 0.56230 -0.37900
C 	C 	0.04730 0.56350 0.62500 -0.10500
N 	N 	0.98410 0.62680 0.91950 -0.16200
C 	C 	0.09980 0.52830 0.65140 0.02700
C 	C 	0.00250 0.60860 0.64280 0.04000
C 	C 	0.93540 0.67400 0.92500 0.01700
C 	C 	0.00620 0.61310 0.87960 0.02100
C 	C 	0.10550 0.53730 0.69540 -0.09500
H 	H 	0.13230 0.49750 0.63890 0.03100
H 	H 	0.96790 0.63330 0.62450 0.04100
C 	C 	0.00670 0.61890 0.68710 -0.10900
C 	C 	0.90650 0.70660 0.88950 -0.00000
H 	H 	0.91990 0.68580 0.95360 0.01800
C 	C 	0.98470 0.64750 0.84430 0.00700
H 	H 	0.03780 0.57860 0.87460 0.01800
H 	H 	0.14090 0.51240 0.71310 0.06400
C 	C 	0.06050 0.58190 0.71360 0.02200
C 	C 	0.95680 0.66920 0.70590 0.31000
N 	N 	0.93580 0.69330 0.84850 -0.14700
H 	H 	0.86650 0.73790 0.89400 0.03500
H 	H 	0.00670 0.63710 0.81620 0.04000
H 	H 	0.06500 0.58830 0.74410 0.03200
O 	O 	0.91530 0.70030 0.67990 -0.36000
O 	O 	0.96520 0.67650 0.74700 -0.38100
Ag	Ag	0.88801 0.73915 0.78330 0.51800
Ag	Ag	0.84152 0.77754 0.70019 0.51300
O 	O 	0.81390 0.81150 0.80550 -0.36400
O 	O 	0.77310 0.84450 0.73930 -0.36400
N 	N 	0.79700 0.81600 0.63240 -0.14600
C 	C 	0.77400 0.84660 0.78000 0.29300
C 	C 	0.82690 0.80050 0.59310 0.00500
C 	C 	0.74210 0.86370 0.63410 -0.00600
C 	C 	0.72590 0.89690 0.80160 -0.09300
H 	H 	0.86150 0.76660 0.59060 0.03400
C 	C 	0.81040 0.83090 0.55660 0.01200
H 	H 	0.71680 0.87640 0.66090 0.04400
C 	C 	0.72480 0.89230 0.59670 0.01600
C 	C 	0.73390 0.90260 0.84580 0.02700
C 	C 	0.67700 0.93400 0.77740 0.01600
N 	N 	0.75800 0.87730 0.55790 -0.15300
H 	H 	0.83640 0.81900 0.52970 0.02100
H 	H 	0.68670 0.92490 0.59830 0.03000
H 	H 	0.76980 0.87630 0.86210 0.04400
C 	C 	0.68930 0.94710 0.86710 -0.09600
H 	H 	0.67510 0.93030 0.74660 0.03700
C 	C 	0.62860 0.97830 0.79790 -0.08600
C 	C 	0.69940 0.95690 0.91520 0.31200
C 	C 	0.63560 0.98400 0.84170 0.01600
H 	H 	0.59180 0.00370 0.78140 0.06000
O 	O 	0.75490 0.92010 0.43670 -0.34300
H 	H 	0.60310 0.01390 0.85550 0.03600
O 	O 	0.21760 0.59050 0.94970 -0.36200
Ag	Ag	0.19960 0.56542 0.01933 0.52900
N 	N 	0.25780 0.62690 0.07180 -0.15400
O 	O 	0.15280 0.49580 0.06840 -0.38400
C 	C 	0.23130 0.61260 0.11220 0.01400
C 	C 	0.30610 0.67370 0.06910 0.01400
C 	C 	0.25770 0.64250 0.14880 -0.00500
H 	H 	0.19250 0.58050 0.11590 0.03000
C 	C 	0.33370 0.70380 0.10470 0.01000
H 	H 	0.32260 0.68730 0.04110 0.02100
N 	N 	0.31040 0.69010 0.14440 -0.14800
H 	H 	0.23930 0.62990 0.17680 0.03700
H 	H 	0.37160 0.73620 0.10040 0.03400
Ag	Ag	0.35133 0.73373 0.21115 0.52200
O 	O 	0.42980 0.80470 0.18380 -0.36300
O 	O 	0.27590 0.67340 0.25340 -0.38200
C 	C 	0.47170 0.84140 0.20550 0.31900
C 	C 	0.29170 0.67030 0.29350 0.30300
O 	O 	0.48100 0.84190 0.24580 -0.37700
C 	C 	0.51440 0.88730 0.17940 -0.11800
O 	O 	0.34070 0.70290 0.31620 -0.34800
C 	C 	0.24060 0.62090 0.31660 -0.09700
Ag	Ag	0.41314 0.77808 0.28924 0.52000
C 	C 	0.57280 0.92860 0.19980 0.02100
C 	C 	0.50470 0.88930 0.13450 0.04300
C 	C 	0.18550 0.58640 0.29380 0.00900
C 	C 	0.25690 0.61400 0.36080 0.02100
N 	N 	0.45430 0.81690 0.35610 -0.14900
H 	H 	0.58280 0.92820 0.23040 0.03400
C 	C 	0.61460 0.96940 0.17360 -0.09400
H 	H 	0.46800 0.86160 0.12020 0.03900
C 	C 	0.54690 0.93060 0.11030 -0.10900
C 	C 	0.13660 0.54250 0.31360 -0.08000
H 	H 	0.17950 0.59180 0.26330 0.03700
H 	H 	0.29760 0.63860 0.37610 0.04500
C 	C 	0.21120 0.56920 0.38220 -0.09200
Ag	Ag	0.52272 0.94456 0.48556 0.52900
C 	C 	0.51270 0.86030 0.35670 0.00900
C 	C 	0.41680 0.80160 0.39580 -0.00200
C 	C 	0.60440 0.97070 0.13010 0.02800
H 	H 	0.65190 0.99750 0.18710 0.06400
C 	C 	0.53110 0.93370 0.06280 0.29300
H 	H 	0.09550 0.51890 0.29760 0.05900
C 	C 	0.15110 0.53480 0.35920 0.01300
C 	C 	0.22800 0.55860 0.42980 0.31400
O 	O 	0.50860 0.91600 0.55280 -0.34900
H 	H 	0.53790 0.87310 0.32990 0.03400
C 	C 	0.53900 0.88810 0.39460 0.00200
H 	H 	0.37480 0.77070 0.39730 0.03900
C 	C 	0.43920 0.83030 0.43300 0.01300
H 	H 	0.63560 0.99830 0.11310 0.02100
O 	O 	0.57160 0.97070 0.03930 -0.40400
O 	O 	0.47430 0.89720 0.04420 -0.32600
H 	H 	0.11890 0.50540 0.37390 0.03800
O 	O 	0.18370 0.51650 0.44580 -0.37200
C 	C 	0.46050 0.94900 0.57680 0.32200
N 	N 	0.49780 0.87430 0.43220 -0.15000
H 	H 	0.58580 0.91650 0.39370 0.03800
H 	H 	0.41270 0.81870 0.45990 0.02100
Ag	Ag	0.50087 0.06024 0.02926 0.53800
Ag	Ag	0.24829 0.45151 0.49359 0.52200
O 	O 	0.42580 0.99370 0.56230 -0.38000
C 	C 	0.45270 0.93650 0.62500 -0.10500
N 	N 	0.51590 0.87320 0.91950 -0.16200
C 	C 	0.40020 0.97170 0.65140 0.02700
C 	C 	0.49750 0.89140 0.64280 0.04000
C 	C 	0.56460 0.82600 0.92500 0.01700
C 	C 	0.49380 0.88690 0.87960 0.02100
C 	C 	0.39450 0.96270 0.69540 -0.09500
H 	H 	0.36770 0.00250 0.63890 0.03100
H 	H 	0.53210 0.86670 0.62450 0.04100
C 	C 	0.49330 0.88110 0.68710 -0.10900
C 	C 	0.59350 0.79340 0.88950 -0.00100
H 	H 	0.58010 0.81420 0.95360 0.01800
C 	C 	0.51530 0.85250 0.84430 0.00600
H 	H 	0.46220 0.92140 0.87460 0.01800
H 	H 	0.35910 0.98760 0.71310 0.06400
C 	C 	0.43950 0.91810 0.71360 0.02200
C 	C 	0.54320 0.83080 0.70590 0.31000
N 	N 	0.56420 0.80670 0.84850 -0.14700
H 	H 	0.63350 0.76210 0.89400 0.03500
H 	H 	0.49330 0.86290 0.81620 0.04000
H 	H 	0.43500 0.91170 0.74410 0.03200
O 	O 	0.58470 0.79970 0.67990 -0.36000
O 	O 	0.53480 0.82350 0.74700 -0.38100
Ag	Ag	0.61199 0.76085 0.78330 0.51800
Ag	Ag	0.65848 0.72246 0.70019 0.51300
O 	O 	0.68610 0.68850 0.80550 -0.36400
O 	O 	0.72690 0.65550 0.73930 -0.36400
N 	N 	0.70300 0.68400 0.63240 -0.14600
C 	C 	0.72600 0.65340 0.78000 0.29300
C 	C 	0.67310 0.69950 0.59310 0.00500
C 	C 	0.75790 0.63630 0.63410 -0.00600
C 	C 	0.77410 0.60310 0.80160 -0.09300
H 	H 	0.63850 0.73340 0.59060 0.03400
C 	C 	0.68960 0.66910 0.55660 0.01200
H 	H 	0.78320 0.62360 0.66090 0.04400
C 	C 	0.77520 0.60770 0.59670 0.01600
C 	C 	0.76610 0.59740 0.84580 0.02700
C 	C 	0.82300 0.56600 0.77740 0.01600
N 	N 	0.74200 0.62270 0.55790 -0.15300
H 	H 	0.66360 0.68100 0.52970 0.02100
H 	H 	0.81330 0.57510 0.59830 0.03000
H 	H 	0.73020 0.62370 0.86210 0.04400
C 	C 	0.81070 0.55290 0.86710 -0.09600
H 	H 	0.82490 0.56970 0.74660 0.03700
C 	C 	0.87140 0.52170 0.79790 -0.08600
C 	C 	0.80060 0.54310 0.91520 0.31200
C 	C 	0.86440 0.51600 0.84170 0.01600
H 	H 	0.90820 0.49630 0.78140 0.06000
O 	O 	0.74510 0.57990 0.43670 -0.34300
H 	H 	0.89690 0.48610 0.85550 0.03600
O 	O 	0.71760 0.40950 0.55030 -0.36200
Ag	Ag	0.69960 0.43458 0.48067 0.52900
N 	N 	0.75780 0.37310 0.42820 -0.15400
O 	O 	0.65280 0.50420 0.43160 -0.38400
C 	C 	0.73130 0.38740 0.38780 0.01400
C 	C 	0.80610 0.32630 0.43090 0.01400
C 	C 	0.75770 0.35750 0.35120 -0.00500
H 	H 	0.69250 0.41950 0.38410 0.03000
C 	C 	0.83370 0.29620 0.39530 0.01000
H 	H 	0.82260 0.31270 0.45890 0.02100
N 	N 	0.81040 0.30990 0.35560 -0.14800
H 	H 	0.73930 0.37010 0.32320 0.03700
H 	H 	0.87160 0.26380 0.39960 0.03400
Ag	Ag	0.85133 0.26627 0.28885 0.52200
O 	O 	0.92980 0.19530 0.31620 -0.36300
O 	O 	0.77590 0.32660 0.24660 -0.38200
C 	C 	0.97170 0.15860 0.29450 0.31900
C 	C 	0.79170 0.32970 0.20650 0.30300
O 	O 	0.98100 0.15810 0.25420 -0.37700
C 	C 	0.01440 0.11270 0.32060 -0.11800
O 	O 	0.84070 0.29710 0.18380 -0.34800
C 	C 	0.74060 0.37910 0.18340 -0.09700
Ag	Ag	0.91314 0.22192 0.21076 0.52000
C 	C 	0.07280 0.07140 0.30020 0.02200
C 	C 	0.00470 0.11070 0.36550 0.04300
C 	C 	0.68550 0.41360 0.20620 0.00900
C 	C 	0.75690 0.38600 0.13920 0.02100
N 	N 	0.95430 0.18310 0.14390 -0.14900
H 	H 	0.08280 0.07180 0.26960 0.03400
C 	C 	0.11460 0.03060 0.32640 -0.09400
H 	H 	0.96800 0.13840 0.37980 0.03900
C 	C 	0.04690 0.06940 0.38970 -0.10900
C 	C 	0.63660 0.45750 0.18640 -0.08000
H 	H 	0.67950 0.40820 0.23670 0.03700
H 	H 	0.79760 0.36140 0.12390 0.04500
C 	C 	0.71120 0.43080 0.11780 -0.09200
Ag	Ag	0.02272 0.05544 0.01444 0.52900
C 	C 	0.01270 0.13970 0.14330 0.00900
C 	C 	0.91680 0.19840 0.10420 -0.00200
C 	C 	0.10440 0.02930 0.36990 0.02900
H 	H 	0.15190 0.00250 0.31290 0.06400
C 	C 	0.03110 0.06630 0.43720 0.29400
H 	H 	0.59550 0.48110 0.20240 0.05900
C 	C 	0.65110 0.46520 0.14080 0.01300
C 	C 	0.72800 0.44140 0.07020 0.31400
O 	O 	0.00860 0.08400 0.94720 -0.34900
H 	H 	0.03790 0.12690 0.17010 0.03400
C 	C 	0.03900 0.11190 0.10540 0.00200
H 	H 	0.87480 0.22930 0.10270 0.03900
C 	C 	0.93920 0.16970 0.06700 0.01300
H 	H 	0.13560 0.00170 0.38690 0.02100
O 	O 	0.07160 0.02930 0.46070 -0.40400
O 	O 	0.97430 0.10280 0.45580 -0.32600
H 	H 	0.61890 0.49460 0.12610 0.03800
O 	O 	0.68370 0.48350 0.05420 -0.37200
C 	C 	0.96050 0.05100 0.92320 0.32100
N 	N 	0.99780 0.12570 0.06780 -0.15000
H 	H 	0.08580 0.08350 0.10630 0.03800
H 	H 	0.91270 0.18130 0.04010 0.02100
Ag	Ag	0.00087 0.93976 0.47074 0.53800
Ag	Ag	0.74829 0.54849 0.00641 0.52200
O 	O 	0.92580 0.00630 0.93770 -0.38000
C 	C 	0.95270 0.06350 0.87500 -0.10400
N 	N 	0.01590 0.12680 0.58050 -0.16200
C 	C 	0.90020 0.02830 0.84860 0.02600
C 	C 	0.99750 0.10860 0.85720 0.03900
C 	C 	0.06460 0.17400 0.57500 0.01700
C 	C 	0.99380 0.11310 0.62040 0.02000
C 	C 	0.89450 0.03730 0.80460 -0.09500
H 	H 	0.86770 0.99750 0.86110 0.03200
H 	H 	0.03210 0.13330 0.87550 0.04200
C 	C 	0.99330 0.11890 0.81290 -0.10900
C 	C 	0.09350 0.20660 0.61050 -0.00000
H 	H 	0.08010 0.18580 0.54640 0.01800
C 	C 	0.01530 0.14750 0.65570 0.00800
H 	H 	0.96220 0.07860 0.62540 0.01900
H 	H 	0.85910 0.01240 0.78690 0.06400
C 	C 	0.93950 0.08190 0.78640 0.02100
C 	C 	0.04320 0.16920 0.79410 0.31000
N 	N 	0.06420 0.19330 0.65150 -0.14800
H 	H 	0.13350 0.23790 0.60600 0.03500
H 	H 	0.99330 0.13710 0.68380 0.03900
H 	H 	0.93500 0.08830 0.75590 0.03200
O 	O 	0.08470 0.20030 0.82010 -0.36000
O 	O 	0.03480 0.17650 0.75300 -0.38100
Ag	Ag	0.11199 0.23915 0.71670 0.51800
Ag	Ag	0.15848 0.27754 0.79981 0.51300
O 	O 	0.18610 0.31150 0.69450 -0.36400
O 	O 	0.22690 0.34450 0.76070 -0.36400
N 	N 	0.20300 0.31600 0.86760 -0.14600
C 	C 	0.22600 0.34660 0.72000 0.29300
C 	C 	0.17310 0.30050 0.90690 0.00600
C 	C 	0.25790 0.36370 0.86590 -0.00600
C 	C 	0.27410 0.39690 0.69840 -0.09300
H 	H 	0.13850 0.26660 0.90940 0.03400
C 	C 	0.18960 0.33090 0.94340 0.01200
H 	H 	0.28320 0.37640 0.83910 0.04400
C 	C 	0.27520 0.39230 0.90330 0.01600
C 	C 	0.26610 0.40260 0.65420 0.02700
C 	C 	0.32300 0.43400 0.72260 0.01600
N 	N 	0.24200 0.37730 0.94210 -0.15300
H 	H 	0.16360 0.31900 0.97030 0.02100
H 	H 	0.31330 0.42490 0.90170 0.03000
H 	H 	0.23020 0.37630 0.63790 0.04400
C 	C 	0.31070 0.44710 0.63290 -0.09600
H 	H 	0.32490 0.43030 0.75340 0.03700
C 	C 	0.37140 0.47830 0.70210 -0.08600
C 	C 	0.30060 0.45690 0.58480 0.31200
C 	C 	0.36440 0.48400 0.65830 0.01600
H 	H 	0.40820 0.50370 0.71860 0.06000
O 	O 	0.24510 0.42010 0.06330 -0.34300
H 	H 	0.39690 0.51390 0.64450 0.03600
O 	O 	0.78240 0.09050 0.55030 -0.36200
Ag	Ag	0.80040 0.06542 0.48067 0.52900
N 	N 	0.74220 0.12690 0.42820 -0.15400
O 	O 	0.84720 0.99580 0.43160 -0.38300
C 	C 	0.76870 0.11260 0.38780 0.01400
C 	C 	0.69390 0.17370 0.43090 0.01400
C 	C 	0.74230 0.14250 0.35120 -0.00500
H 	H 	0.80750 0.08050 0.38410 0.03000
C 	C 	0.66630 0.20380 0.39530 0.01000
H 	H 	0.67740 0.18730 0.45890 0.02100
N 	N 	0.68960 0.19010 0.35560 -0.14800
H 	H 	0.76070 0.12990 0.32320 0.03700
H 	H 	0.62840 0.23620 0.39960 0.03400
Ag	Ag	0.64867 0.23373 0.28885 0.52200
O 	O 	0.57020 0.30470 0.31620 -0.36300
O 	O 	0.72410 0.17340 0.24660 -0.38200
C 	C 	0.52830 0.34140 0.29450 0.31900
C 	C 	0.70830 0.17030 0.20650 0.30300
O 	O 	0.51900 0.34190 0.25420 -0.37700
C 	C 	0.48560 0.38730 0.32060 -0.11800
O 	O 	0.65930 0.20290 0.18380 -0.34800
C 	C 	0.75940 0.12090 0.18340 -0.09700
Ag	Ag	0.58686 0.27808 0.21076 0.52000
C 	C 	0.42720 0.42860 0.30020 0.02200
C 	C 	0.49530 0.38930 0.36550 0.04300
C 	C 	0.81450 0.08640 0.20620 0.00900
C 	C 	0.74310 0.11400 0.13920 0.02100
N 	N 	0.54570 0.31690 0.14390 -0.14900
H 	H 	0.41720 0.42820 0.26960 0.03400
C 	C 	0.38540 0.46940 0.32640 -0.09400
H 	H 	0.53200 0.36160 0.37980 0.03900
C 	C 	0.45310 0.43060 0.38970 -0.10900
C 	C 	0.86340 0.04250 0.18640 -0.08000
H 	H 	0.82050 0.09180 0.23670 0.03700
H 	H 	0.70240 0.13860 0.12390 0.04500
C 	C 	0.78880 0.06920 0.11780 -0.09200
Ag	Ag	0.47728 0.44456 0.01444 0.52900
C 	C 	0.48730 0.36030 0.14330 0.00900
C 	C 	0.58320 0.30160 0.10420 -0.00200
C 	C 	0.39560 0.47070 0.36990 0.02800
H 	H 	0.34810 0.49750 0.31290 0.06400
C 	C 	0.46890 0.43370 0.43720 0.29300
H 	H 	0.90450 0.01890 0.20240 0.05900
C 	C 	0.84890 0.03480 0.14080 0.01300
C 	C 	0.77200 0.05860 0.07020 0.31400
O 	O 	0.49140 0.41600 0.94720 -0.34900
H 	H 	0.46210 0.37310 0.17010 0.03400
C 	C 	0.46100 0.38810 0.10540 0.00200
H 	H 	0.62520 0.27070 0.10270 0.03900
C 	C 	0.56080 0.33030 0.06700 0.01300
H 	H 	0.36440 0.49830 0.38690 0.02100
O 	O 	0.42840 0.47070 0.46070 -0.40400
O 	O 	0.52570 0.39720 0.45580 -0.32600
H 	H 	0.88110 0.00540 0.12610 0.03800
O 	O 	0.81630 0.01650 0.05420 -0.37200
C 	C 	0.53950 0.44900 0.92320 0.32200
N 	N 	0.50220 0.37430 0.06780 -0.15000
H 	H 	0.41420 0.41650 0.10630 0.03800
H 	H 	0.58730 0.31870 0.04010 0.02100
Ag	Ag	0.49913 0.56024 0.47074 0.53800
Ag	Ag	0.75171 0.95151 0.00641 0.52200
O 	O 	0.57420 0.49370 0.93770 -0.37900
C 	C 	0.54730 0.43650 0.87500 -0.10500
N 	N 	0.48410 0.37320 0.58050 -0.16200
C 	C 	0.59980 0.47170 0.84860 0.02700
C 	C 	0.50250 0.39140 0.85720 0.04000
C 	C 	0.43540 0.32600 0.57500 0.01700
C 	C 	0.50620 0.38690 0.62040 0.02100
C 	C 	0.60550 0.46270 0.80460 -0.09500
H 	H 	0.63230 0.50250 0.86110 0.03100
H 	H 	0.46790 0.36670 0.87550 0.04100
C 	C 	0.50670 0.38110 0.81290 -0.10900
C 	C 	0.40650 0.29340 0.61050 -0.00100
H 	H 	0.41990 0.31420 0.54640 0.01700
C 	C 	0.48470 0.35250 0.65570 0.00600
H 	H 	0.53780 0.42140 0.62540 0.01800
H 	H 	0.64090 0.48760 0.78690 0.06400
C 	C 	0.56050 0.41810 0.78640 0.02200
C 	C 	0.45680 0.33080 0.79410 0.31000
N 	N 	0.43580 0.30670 0.65150 -0.14700
H 	H 	0.36650 0.26210 0.60600 0.03500
H 	H 	0.50670 0.36290 0.68380 0.04000
H 	H 	0.56500 0.41170 0.75590 0.03200
O 	O 	0.41530 0.29970 0.82010 -0.36000
O 	O 	0.46520 0.32350 0.75300 -0.38100
Ag	Ag	0.38801 0.26085 0.71670 0.51800
Ag	Ag	0.34152 0.22246 0.79981 0.51300
O 	O 	0.31390 0.18850 0.69450 -0.36400
O 	O 	0.27310 0.15550 0.76070 -0.36400
N 	N 	0.29700 0.18400 0.86760 -0.14600
C 	C 	0.27400 0.15340 0.72000 0.29300
C 	C 	0.32690 0.19950 0.90690 0.00600
C 	C 	0.24210 0.13630 0.86590 -0.00600
C 	C 	0.22590 0.10310 0.69840 -0.09300
H 	H 	0.36150 0.23340 0.90940 0.03400
C 	C 	0.31040 0.16910 0.94340 0.01200
H 	H 	0.21680 0.12360 0.83910 0.04400
C 	C 	0.22480 0.10770 0.90330 0.01500
C 	C 	0.23390 0.09740 0.65420 0.02700
C 	C 	0.17700 0.06600 0.72260 0.01600
N 	N 	0.25800 0.12270 0.94210 -0.15300
H 	H 	0.33640 0.18100 0.97030 0.02100
H 	H 	0.18670 0.07510 0.90170 0.03000
H 	H 	0.26980 0.12370 0.63790 0.04400
C 	C 	0.18930 0.05290 0.63290 -0.09600
H 	H 	0.17510 0.06970 0.75340 0.03700
C 	C 	0.12860 0.02170 0.70210 -0.08600
C 	C 	0.19940 0.04310 0.58480 0.31200
C 	C 	0.13560 0.01600 0.65830 0.01600
H 	H 	0.09180 0.99630 0.71860 0.06000
O 	O 	0.25490 0.07990 0.06330 -0.34300
H 	H 	0.10310 0.98610 0.64450 0.03600
O 	O 	0.71760 0.09050 0.05030 -0.36200
Ag	Ag	0.69960 0.06542 0.98067 0.52900
N 	N 	0.75780 0.12690 0.92820 -0.15400
O 	O 	0.65280 0.99580 0.93160 -0.38400
C 	C 	0.73130 0.11260 0.88780 0.01400
C 	C 	0.80610 0.17370 0.93090 0.01400
C 	C 	0.75770 0.14250 0.85120 -0.00500
H 	H 	0.69250 0.08050 0.88410 0.03000
C 	C 	0.83370 0.20380 0.89530 0.01000
H 	H 	0.82260 0.18730 0.95890 0.02100
N 	N 	0.81040 0.19010 0.85560 -0.14800
H 	H 	0.73930 0.12990 0.82320 0.03700
H 	H 	0.87160 0.23620 0.89960 0.03400
Ag	Ag	0.85133 0.23373 0.78885 0.52200
O 	O 	0.92980 0.30470 0.81620 -0.36300
O 	O 	0.77590 0.17340 0.74660 -0.38200
C 	C 	0.97170 0.34140 0.79450 0.31900
C 	C 	0.79170 0.17030 0.70650 0.30300
O 	O 	0.98100 0.34190 0.75420 -0.37700
C 	C 	0.01440 0.38730 0.82060 -0.11800
O 	O 	0.84070 0.20290 0.68380 -0.34800
C 	C 	0.74060 0.12090 0.68340 -0.09700
Ag	Ag	0.91314 0.27808 0.71076 0.52000
C 	C 	0.07280 0.42860 0.80020 0.02200
C 	C 	0.00470 0.38930 0.86550 0.04300
C 	C 	0.68550 0.08640 0.70620 0.00900
C 	C 	0.75690 0.11400 0.63920 0.02100
N 	N 	0.95430 0.31690 0.64390 -0.14900
H 	H 	0.08280 0.42820 0.76960 0.03400
C 	C 	0.11460 0.46940 0.82640 -0.09400
H 	H 	0.96800 0.36160 0.87980 0.03900
C 	C 	0.04690 0.43060 0.88970 -0.10900
C 	C 	0.63660 0.04250 0.68640 -0.08000
H 	H 	0.67950 0.09180 0.73670 0.03700
H 	H 	0.79760 0.13860 0.62390 0.04500
C 	C 	0.71120 0.06920 0.61780 -0.09200
Ag	Ag	0.02272 0.44456 0.51444 0.52900
C 	C 	0.01270 0.36030 0.64330 0.00900
C 	C 	0.91680 0.30160 0.60420 -0.00200
C 	C 	0.10440 0.47070 0.86990 0.02900
H 	H 	0.15190 0.49750 0.81290 0.06400
C 	C 	0.03110 0.43370 0.93720 0.29300
H 	H 	0.59550 0.01890 0.70240 0.05900
C 	C 	0.65110 0.03480 0.64080 0.01300
C 	C 	0.72800 0.05860 0.57020 0.31400
O 	O 	0.00860 0.41600 0.44720 -0.34900
H 	H 	0.03790 0.37310 0.67010 0.03400
C 	C 	0.03900 0.38810 0.60540 0.00200
H 	H 	0.87480 0.27070 0.60270 0.03900
C 	C 	0.93920 0.33030 0.56700 0.01300
H 	H 	0.13560 0.49830 0.88690 0.02100
O 	O 	0.07160 0.47070 0.96070 -0.40400
O 	O 	0.97430 0.39720 0.95580 -0.32600
H 	H 	0.61890 0.00540 0.62610 0.03800
O 	O 	0.68370 0.01650 0.55420 -0.37200
C 	C 	0.96050 0.44900 0.42320 0.32200
N 	N 	0.99780 0.37430 0.56780 -0.15000
H 	H 	0.08580 0.41650 0.60630 0.03800
H 	H 	0.91270 0.31870 0.54010 0.02100
Ag	Ag	0.00087 0.56024 0.97074 0.53800
Ag	Ag	0.74829 0.95151 0.50641 0.52200
O 	O 	0.92580 0.49370 0.43770 -0.37900
C 	C 	0.95270 0.43650 0.37500 -0.10500
N 	N 	0.01590 0.37320 0.08050 -0.16200
C 	C 	0.90020 0.47170 0.34860 0.02700
C 	C 	0.99750 0.39140 0.35720 0.04000
C 	C 	0.06460 0.32600 0.07500 0.01700
C 	C 	0.99380 0.38690 0.12040 0.02100
C 	C 	0.89450 0.46270 0.30460 -0.09500
H 	H 	0.86770 0.50250 0.36110 0.03100
H 	H 	0.03210 0.36670 0.37550 0.04100
C 	C 	0.99330 0.38110 0.31290 -0.10900
C 	C 	0.09350 0.29340 0.11050 -0.00000
H 	H 	0.08010 0.31420 0.04640 0.01800
C 	C 	0.01530 0.35250 0.15570 0.00700
H 	H 	0.96220 0.42140 0.12540 0.01800
H 	H 	0.85910 0.48760 0.28690 0.06400
C 	C 	0.93950 0.41810 0.28640 0.02200
C 	C 	0.04320 0.33080 0.29410 0.31000
N 	N 	0.06420 0.30670 0.15150 -0.14700
H 	H 	0.13350 0.26210 0.10600 0.03500
H 	H 	0.99330 0.36290 0.18380 0.04000
H 	H 	0.93500 0.41170 0.25590 0.03200
O 	O 	0.08470 0.29970 0.32010 -0.36000
O 	O 	0.03480 0.32350 0.25300 -0.38100
Ag	Ag	0.11199 0.26085 0.21670 0.51800
Ag	Ag	0.15848 0.22246 0.29981 0.51300
O 	O 	0.18610 0.18850 0.19450 -0.36400
O 	O 	0.22690 0.15550 0.26070 -0.36400
N 	N 	0.20300 0.18400 0.36760 -0.14600
C 	C 	0.22600 0.15340 0.22000 0.29300
C 	C 	0.17310 0.19950 0.40690 0.00500
C 	C 	0.25790 0.13630 0.36590 -0.00600
C 	C 	0.27410 0.10310 0.19840 -0.09300
H 	H 	0.13850 0.23340 0.40940 0.03400
C 	C 	0.18960 0.16910 0.44340 0.01200
H 	H 	0.28320 0.12360 0.33910 0.04400
C 	C 	0.27520 0.10770 0.40330 0.01600
C 	C 	0.26610 0.09740 0.15420 0.02700
C 	C 	0.32300 0.06600 0.22260 0.01600
N 	N 	0.24200 0.12270 0.44210 -0.15300
H 	H 	0.16360 0.18100 0.47030 0.02100
H 	H 	0.31330 0.07510 0.40170 0.03000
H 	H 	0.23020 0.12370 0.13790 0.04400
C 	C 	0.31070 0.05290 0.13290 -0.09600
H 	H 	0.32490 0.06970 0.25340 0.03700
C 	C 	0.37140 0.02170 0.20210 -0.08600
C 	C 	0.30060 0.04310 0.08480 0.31200
C 	C 	0.36440 0.01600 0.15830 0.01600
H 	H 	0.40820 0.99630 0.21860 0.06000
O 	O 	0.24510 0.07990 0.56330 -0.34300
H 	H 	0.39690 0.98610 0.14450 0.03600
O 	O 	0.78240 0.40950 0.05030 -0.36200
Ag	Ag	0.80040 0.43458 0.98067 0.52900
N 	N 	0.74220 0.37310 0.92820 -0.15400
O 	O 	0.84720 0.50420 0.93160 -0.38400
C 	C 	0.76870 0.38740 0.88780 0.01400
C 	C 	0.69390 0.32630 0.93090 0.01400
C 	C 	0.74230 0.35750 0.85120 -0.00500
H 	H 	0.80750 0.41950 0.88410 0.03000
C 	C 	0.66630 0.29620 0.89530 0.01000
H 	H 	0.67740 0.31270 0.95890 0.02100
N 	N 	0.68960 0.30990 0.85560 -0.14800
H 	H 	0.76070 0.37010 0.82320 0.03700
H 	H 	0.62840 0.26380 0.89960 0.03400
Ag	Ag	0.64867 0.26627 0.78885 0.52200
O 	O 	0.57020 0.19530 0.81620 -0.36300
O 	O 	0.72410 0.32660 0.74660 -0.38200
C 	C 	0.52830 0.15860 0.79450 0.31900
C 	C 	0.70830 0.32970 0.70650 0.30300
O 	O 	0.51900 0.15810 0.75420 -0.37700
C 	C 	0.48560 0.11270 0.82060 -0.11800
O 	O 	0.65930 0.29710 0.68380 -0.34800
C 	C 	0.75940 0.37910 0.68340 -0.09700
Ag	Ag	0.58686 0.22192 0.71076 0.52000
C 	C 	0.42720 0.07140 0.80020 0.02100
C 	C 	0.49530 0.11070 0.86550 0.04300
C 	C 	0.81450 0.41360 0.70620 0.00900
C 	C 	0.74310 0.38600 0.63920 0.02100
N 	N 	0.54570 0.18310 0.64390 -0.14900
H 	H 	0.41720 0.07180 0.76960 0.03400
C 	C 	0.38540 0.03060 0.82640 -0.09400
H 	H 	0.53200 0.13840 0.87980 0.03900
C 	C 	0.45310 0.06940 0.88970 -0.10900
C 	C 	0.86340 0.45750 0.68640 -0.08000
H 	H 	0.82050 0.40820 0.73670 0.03700
H 	H 	0.70240 0.36140 0.62390 0.04500
C 	C 	0.78880 0.43080 0.61780 -0.09200
Ag	Ag	0.47728 0.05544 0.51444 0.52900
C 	C 	0.48730 0.13970 0.64330 0.00900
C 	C 	0.58320 0.19840 0.60420 -0.00200
C 	C 	0.39560 0.02930 0.86990 0.02800
H 	H 	0.34810 0.00250 0.81290 0.06400
C 	C 	0.46890 0.06630 0.93720 0.29300
H 	H 	0.90450 0.48110 0.70240 0.05900
C 	C 	0.84890 0.46520 0.64080 0.01300
C 	C 	0.77200 0.44140 0.57020 0.31400
O 	O 	0.49140 0.08400 0.44720 -0.34900
H 	H 	0.46210 0.12690 0.67010 0.03400
C 	C 	0.46100 0.11190 0.60540 0.00200
H 	H 	0.62520 0.22930 0.60270 0.03900
C 	C 	0.56080 0.16970 0.56700 0.01300
H 	H 	0.36440 0.00170 0.88690 0.02100
O 	O 	0.42840 0.02930 0.96070 -0.40400
O 	O 	0.52570 0.10280 0.95580 -0.32600
H 	H 	0.88110 0.49460 0.62610 0.03800
O 	O 	0.81630 0.48350 0.55420 -0.37200
C 	C 	0.53950 0.05100 0.42320 0.32200
N 	N 	0.50220 0.12570 0.56780 -0.15000
H 	H 	0.41420 0.08350 0.60630 0.03800
H 	H 	0.58730 0.18130 0.54010 0.02100
Ag	Ag	0.49913 0.93976 0.97074 0.53800
Ag	Ag	0.75171 0.54849 0.50641 0.52200
O 	O 	0.57420 0.00630 0.43770 -0.38000
C 	C 	0.54730 0.06350 0.37500 -0.10500
N 	N 	0.48410 0.12680 0.08050 -0.16200
C 	C 	0.59980 0.02830 0.34860 0.02700
C 	C 	0.50250 0.10860 0.35720 0.04000
C 	C 	0.43540 0.17400 0.07500 0.01700
C 	C 	0.50620 0.11310 0.12040 0.02100
C 	C 	0.60550 0.03730 0.30460 -0.09500
H 	H 	0.63230 0.99750 0.36110 0.03100
H 	H 	0.46790 0.13330 0.37550 0.04100
C 	C 	0.50670 0.11890 0.31290 -0.10900
C 	C 	0.40650 0.20660 0.11050 -0.00100
H 	H 	0.41990 0.18580 0.04640 0.01800
C 	C 	0.48470 0.14750 0.15570 0.00600
H 	H 	0.53780 0.07860 0.12540 0.01800
H 	H 	0.64090 0.01240 0.28690 0.06400
C 	C 	0.56050 0.08190 0.28640 0.02200
C 	C 	0.45680 0.16920 0.29410 0.31000
N 	N 	0.43580 0.19330 0.15150 -0.14700
H 	H 	0.36650 0.23790 0.10600 0.03500
H 	H 	0.50670 0.13710 0.18380 0.04000
H 	H 	0.56500 0.08830 0.25590 0.03200
O 	O 	0.41530 0.20030 0.32010 -0.36000
O 	O 	0.46520 0.17650 0.25300 -0.38100
Ag	Ag	0.38801 0.23915 0.21670 0.51800
Ag	Ag	0.34152 0.27754 0.29981 0.51300
O 	O 	0.31390 0.31150 0.19450 -0.36400
O 	O 	0.27310 0.34450 0.26070 -0.36400
N 	N 	0.29700 0.31600 0.36760 -0.14600
C 	C 	0.27400 0.34660 0.22000 0.29300
C 	C 	0.32690 0.30050 0.40690 0.00500
C 	C 	0.24210 0.36370 0.36590 -0.00600
C 	C 	0.22590 0.39690 0.19840 -0.09300
H 	H 	0.36150 0.26660 0.40940 0.03400
C 	C 	0.31040 0.33090 0.44340 0.01200
H 	H 	0.21680 0.37640 0.33910 0.04400
C 	C 	0.22480 0.39230 0.40330 0.01600
C 	C 	0.23390 0.40260 0.15420 0.02700
C 	C 	0.17700 0.43400 0.22260 0.01600
N 	N 	0.25800 0.37730 0.44210 -0.15300
H 	H 	0.33640 0.31900 0.47030 0.02100
H 	H 	0.18670 0.42490 0.40170 0.03000
H 	H 	0.26980 0.37630 0.13790 0.04400
C 	C 	0.18930 0.44710 0.13290 -0.09600
H 	H 	0.17510 0.43030 0.25340 0.03700
C 	C 	0.12860 0.47830 0.20210 -0.08600
C 	C 	0.19940 0.45690 0.08480 0.31200
C 	C 	0.13560 0.48400 0.15830 0.01600
H 	H 	0.09180 0.50370 0.21860 0.06000
O 	O 	0.25490 0.42010 0.56330 -0.34300
H 	H 	0.10310 0.51390 0.14450 0.03600
O 	O 	0.28240 0.59050 0.44970 -0.36200
Ag	Ag	0.30040 0.56542 0.51933 0.52900
N 	N 	0.24220 0.62690 0.57180 -0.15400
O 	O 	0.34720 0.49580 0.56840 -0.38400
C 	C 	0.26870 0.61260 0.61220 0.01400
C 	C 	0.19390 0.67370 0.56910 0.01400
C 	C 	0.24230 0.64250 0.64880 -0.00500
H 	H 	0.30750 0.58050 0.61590 0.03000
C 	C 	0.16630 0.70380 0.60470 0.01000
H 	H 	0.17740 0.68730 0.54110 0.02100
N 	N 	0.18960 0.69010 0.64440 -0.14800
H 	H 	0.26070 0.62990 0.67680 0.03700
H 	H 	0.12840 0.73620 0.60040 0.03400
Ag	Ag	0.14867 0.73373 0.71115 0.52200
O 	O 	0.07020 0.80470 0.68380 -0.36300
O 	O 	0.22410 0.67340 0.75340 -0.38200
C 	C 	0.02830 0.84140 0.70550 0.31900
C 	C 	0.20830 0.67030 0.79350 0.30300
O 	O 	0.01900 0.84190 0.74580 -0.37700
C 	C 	0.98560 0.88730 0.67940 -0.11800
O 	O 	0.15930 0.70290 0.81620 -0.34800
C 	C 	0.25940 0.62090 0.81660 -0.09700
Ag	Ag	0.08686 0.77808 0.78924 0.52000
C 	C 	0.92720 0.92860 0.69980 0.02200
C 	C 	0.99530 0.88930 0.63450 0.04300
C 	C 	0.31450 0.58640 0.79380 0.00900
C 	C 	0.24310 0.61400 0.86080 0.02100
N 	N 	0.04570 0.81690 0.85610 -0.14900
H 	H 	0.91720 0.92820 0.73040 0.03400
C 	C 	0.88540 0.96940 0.67360 -0.09400
H 	H 	0.03200 0.86160 0.62020 0.03900
C 	C 	0.95310 0.93060 0.61030 -0.10900
C 	C 	0.36340 0.54250 0.81360 -0.08000
H 	H 	0.32050 0.59180 0.76330 0.03700
H 	H 	0.20240 0.63860 0.87610 0.04500
C 	C 	0.28880 0.56920 0.88220 -0.09200
Ag	Ag	0.97728 0.94456 0.98556 0.52900
C 	C 	0.98730 0.86030 0.85670 0.00900
C 	C 	0.08320 0.80160 0.89580 -0.00200
C 	C 	0.89560 0.97070 0.63010 0.02900
H 	H 	0.84810 0.99750 0.68710 0.06400
C 	C 	0.96890 0.93370 0.56280 0.29400
H 	H 	0.40450 0.51890 0.79760 0.05900
C 	C 	0.34890 0.53480 0.85920 0.01300
C 	C 	0.27200 0.55860 0.92980 0.31400
O 	O 	0.99140 0.91600 0.05280 -0.34900
H 	H 	0.96210 0.87310 0.82990 0.03400
C 	C 	0.96100 0.88810 0.89460 0.00200
H 	H 	0.12520 0.77070 0.89730 0.03900
C 	C 	0.06080 0.83030 0.93300 0.01300
H 	H 	0.86440 0.99830 0.61310 0.02100
O 	O 	0.92840 0.97070 0.53930 -0.40400
O 	O 	0.02570 0.89720 0.54420 -0.32600
H 	H 	0.38110 0.50540 0.87390 0.03800
O 	O 	0.31630 0.51650 0.94580 -0.37200
C 	C 	0.03950 0.94900 0.07680 0.32100
N 	N 	0.00220 0.87430 0.93220 -0.15000
H 	H 	0.91420 0.91650 0.89370 0.03800
H 	H 	0.08730 0.81870 0.95990 0.02100
Ag	Ag	0.99913 0.06024 0.52926 0.53800
Ag	Ag	0.25171 0.45151 0.99359 0.52200
O 	O 	0.07420 0.99370 0.06230 -0.38000
C 	C 	0.04730 0.93650 0.12500 -0.10400
N 	N 	0.98410 0.87320 0.41950 -0.16200
C 	C 	0.09980 0.97170 0.15140 0.02600
C 	C 	0.00250 0.89140 0.14280 0.03900
C 	C 	0.93540 0.82600 0.42500 0.01700
C 	C 	0.00620 0.88690 0.37960 0.02000
C 	C 	0.10550 0.96270 0.19540 -0.09500
H 	H 	0.13230 0.00250 0.13890 0.03200
H 	H 	0.96790 0.86670 0.12450 0.04200
C 	C 	0.00670 0.88110 0.18710 -0.10900
C 	C 	0.90650 0.79340 0.38950 -0.00000
H 	H 	0.91990 0.81420 0.45360 0.01800
C 	C 	0.98470 0.85250 0.34430 0.00800
H 	H 	0.03780 0.92140 0.37460 0.01900
H 	H 	0.14090 0.98760 0.21310 0.06400
C 	C 	0.06050 0.91810 0.21360 0.02100
C 	C 	0.95680 0.83080 0.20590 0.31000
N 	N 	0.93580 0.80670 0.34850 -0.14800
H 	H 	0.86650 0.76210 0.39400 0.03500
H 	H 	0.00670 0.86290 0.31620 0.03900
H 	H 	0.06500 0.91170 0.24410 0.03200
O 	O 	0.91530 0.79970 0.17990 -0.36000
O 	O 	0.96520 0.82350 0.24700 -0.38100
Ag	Ag	0.88801 0.76085 0.28330 0.51800
Ag	Ag	0.84152 0.72246 0.20019 0.51300
O 	O 	0.81390 0.68850 0.30550 -0.36400
O 	O 	0.77310 0.65550 0.23930 -0.36400
N 	N 	0.79700 0.68400 0.13240 -0.14600
C 	C 	0.77400 0.65340 0.28000 0.29300
C 	C 	0.82690 0.69950 0.09310 0.00600
C 	C 	0.74210 0.63630 0.13410 -0.00600
C 	C 	0.72590 0.60310 0.30160 -0.09300
H 	H 	0.86150 0.73340 0.09060 0.03400
C 	C 	0.81040 0.66910 0.05660 0.01200
H 	H 	0.71680 0.62360 0.16090 0.04400
C 	C 	0.72480 0.60770 0.09670 0.01600
C 	C 	0.73390 0.59740 0.34580 0.02700
C 	C 	0.67700 0.56600 0.27740 0.01600
N 	N 	0.75800 0.62270 0.05790 -0.15300
H 	H 	0.83640 0.68100 0.02970 0.02100
H 	H 	0.68670 0.57510 0.09830 0.03000
H 	H 	0.76980 0.62370 0.36210 0.04400
C 	C 	0.68930 0.55290 0.36710 -0.09600
H 	H 	0.67510 0.56970 0.24660 0.03700
C 	C 	0.62860 0.52170 0.29790 -0.08600
C 	C 	0.69940 0.54310 0.41520 0.31200
C 	C 	0.63560 0.51600 0.34170 0.01600
H 	H 	0.59180 0.49630 0.28140 0.06000
O 	O 	0.75490 0.57990 0.93670 -0.34300
H 	H 	0.60310 0.48610 0.35550 0.03600
O 	O 	0.21760 0.90950 0.44970 -0.36200
Ag	Ag	0.19960 0.93458 0.51933 0.52900
N 	N 	0.25780 0.87310 0.57180 -0.15400
O 	O 	0.15280 0.00420 0.56840 -0.38300
C 	C 	0.23130 0.88740 0.61220 0.01400
C 	C 	0.30610 0.82630 0.56910 0.01400
C 	C 	0.25770 0.85750 0.64880 -0.00500
H 	H 	0.19250 0.91950 0.61590 0.03000
C 	C 	0.33370 0.79620 0.60470 0.01000
H 	H 	0.32260 0.81270 0.54110 0.02100
N 	N 	0.31040 0.80990 0.64440 -0.14800
H 	H 	0.23930 0.87010 0.67680 0.03700
H 	H 	0.37160 0.76380 0.60040 0.03400
Ag	Ag	0.35133 0.76627 0.71115 0.52200
O 	O 	0.42980 0.69530 0.68380 -0.36300
O 	O 	0.27590 0.82660 0.75340 -0.38200
C 	C 	0.47170 0.65860 0.70550 0.31900
C 	C 	0.29170 0.82970 0.79350 0.30300
O 	O 	0.48100 0.65810 0.74580 -0.37700
C 	C 	0.51440 0.61270 0.67940 -0.11800
O 	O 	0.34070 0.79710 0.81620 -0.34800
C 	C 	0.24060 0.87910 0.81660 -0.09700
Ag	Ag	0.41314 0.72192 0.78924 0.52000
C 	C 	0.57280 0.57140 0.69980 0.02200
C 	C 	0.50470 0.61070 0.63450 0.04300
C 	C 	0.18550 0.91360 0.79380 0.00900
C 	C 	0.25690 0.88600 0.86080 0.02100
N 	N 	0.45430 0.68310 0.85610 -0.14900
H 	H 	0.58280 0.57180 0.73040 0.03400
C 	C 	0.61460 0.53060 0.67360 -0.09400
H 	H 	0.46800 0.63840 0.62020 0.03900
C 	C 	0.54690 0.56940 0.61030 -0.10900
C 	C 	0.13660 0.95750 0.81360 -0.08000
H 	H 	0.17950 0.90820 0.76330 0.03700
H 	H 	0.29760 0.86140 0.87610 0.04500
C 	C 	0.21120 0.93080 0.88220 -0.09200
Ag	Ag	0.52272 0.55544 0.98556 0.52900
C 	C 	0.51270 0.63970 0.85670 0.00900
C 	C 	0.41680 0.69840 0.89580 -0.00200
C 	C 	0.60440 0.52930 0.63010 0.02800
H 	H 	0.65190 0.50250 0.68710 0.06400
C 	C 	0.53110 0.56630 0.56280 0.29300
H 	H 	0.09550 0.98110 0.79760 0.05900
C 	C 	0.15110 0.96520 0.85920 0.01300
C 	C 	0.22800 0.94140 0.92980 0.31400
O 	O 	0.50860 0.58400 0.05280 -0.34900
H 	H 	0.53790 0.62690 0.82990 0.03400
C 	C 	0.53900 0.61190 0.89460 0.00200
H 	H 	0.37480 0.72930 0.89730 0.03900
C 	C 	0.43920 0.66970 0.93300 0.01300
H 	H 	0.63560 0.50170 0.61310 0.02100
O 	O 	0.57160 0.52930 0.53930 -0.40400
O 	O 	0.47430 0.60280 0.54420 -0.32600
H 	H 	0.11890 0.99460 0.87390 0.03800
O 	O 	0.18370 0.98350 0.94580 -0.37200
C 	C 	0.46050 0.55100 0.07680 0.32200
N 	N 	0.49780 0.62570 0.93220 -0.15000
H 	H 	0.58580 0.58350 0.89370 0.03800
H 	H 	0.41270 0.68130 0.95990 0.02100
Ag	Ag	0.50087 0.43976 0.52926 0.53800
Ag	Ag	0.24829 0.04849 0.99359 0.52200
O 	O 	0.42580 0.50630 0.06230 -0.37900
C 	C 	0.45270 0.56350 0.12500 -0.10500
N 	N 	0.51590 0.62680 0.41950 -0.16200
C 	C 	0.40020 0.52830 0.15140 0.02700
C 	C 	0.49750 0.60860 0.14280 0.04000
C 	C 	0.56460 0.67400 0.42500 0.01700
C 	C 	0.49380 0.61310 0.37960 0.02100
C 	C 	0.39450 0.53730 0.19540 -0.09500
H 	H 	0.36770 0.49750 0.13890 0.03100
H 	H 	0.53210 0.63330 0.12450 0.04100
C 	C 	0.49330 0.61890 0.18710 -0.10900
C 	C 	0.59350 0.70660 0.38950 -0.00100
H 	H 	0.58010 0.68580 0.45360 0.01700
C 	C 	0.51530 0.64750 0.34430 0.00600
H 	H 	0.46220 0.57860 0.37460 0.01800
H 	H 	0.35910 0.51240 0.21310 0.06400
C 	C 	0.43950 0.58190 0.21360 0.02200
C 	C 	0.54320 0.66920 0.20590 0.31000
N 	N 	0.56420 0.69330 0.34850 -0.14700
H 	H 	0.63350 0.73790 0.39400 0.03500
H 	H 	0.49330 0.63710 0.31620 0.04000
H 	H 	0.43500 0.58830 0.24410 0.03200
O 	O 	0.58470 0.70030 0.17990 -0.36000
O 	O 	0.53480 0.67650 0.24700 -0.38100
Ag	Ag	0.61199 0.73915 0.28330 0.51800
Ag	Ag	0.65848 0.77754 0.20019 0.51300
O 	O 	0.68610 0.81150 0.30550 -0.36400
O 	O 	0.72690 0.84450 0.23930 -0.36400
N 	N 	0.70300 0.81600 0.13240 -0.14600
C 	C 	0.72600 0.84660 0.28000 0.29300
C 	C 	0.67310 0.80050 0.09310 0.00600
C 	C 	0.75790 0.86370 0.13410 -0.00600
C 	C 	0.77410 0.89690 0.30160 -0.09300
H 	H 	0.63850 0.76660 0.09060 0.03400
C 	C 	0.68960 0.83090 0.05660 0.01200
H 	H 	0.78320 0.87640 0.16090 0.04400
C 	C 	0.77520 0.89230 0.09670 0.01500
C 	C 	0.76610 0.90260 0.34580 0.02700
C 	C 	0.82300 0.93400 0.27740 0.01600
N 	N 	0.74200 0.87730 0.05790 -0.15300
H 	H 	0.66360 0.81900 0.02970 0.02100
H 	H 	0.81330 0.92490 0.09830 0.03000
H 	H 	0.73020 0.87630 0.36210 0.04400
C 	C 	0.81070 0.94710 0.36710 -0.09600
H 	H 	0.82490 0.93030 0.24660 0.03700
C 	C 	0.87140 0.97830 0.29790 -0.08600
C 	C 	0.80060 0.95690 0.41520 0.31200
C 	C 	0.86440 0.98400 0.34170 0.01600
H 	H 	0.90820 0.00370 0.28140 0.06000
O 	O 	0.74510 0.92010 0.93670 -0.34300
H 	H 	0.89690 0.01390 0.35550 0.03600
