data_crystal

_cell_length_a 9.77600
_cell_length_b 16.33700
_cell_length_c 21.53400
_cell_angle_alpha 103.82000
_cell_angle_beta  100.74000
_cell_angle_gamma 95.87000

_symmetry_space_group_name_	'P 1'
_symmetry_space_group_name_H-M	'P 1'

loop_
_symmetry_equiv_pos_as_xyz
  x,y,z

loop_
_atom_site_label
_atom_site_type_symbol
_atom_site_fract_x
_atom_site_fract_y
_atom_site_fract_z
_atom_site_charge
La	La	0.27874 0.52002 0.99834 1.65200
I 	I 	0.76244 0.99304 0.49955 -0.71800
I 	I 	0.98235 0.77672 0.46579 -0.61400
I 	I 	0.08137 0.97505 0.66816 -0.60100
I 	I 	0.69872 0.78220 0.60712 -0.59200
Cu	Cu	0.01122 0.94095 0.53717 0.69800
Cu	Cu	0.75150 0.82579 0.49858 0.73300
Cu	Cu	0.81525 0.94112 0.61767 0.73400
Cu	Cu	0.95984 0.81265 0.59212 0.72300
O 	O 	0.17020 0.55490 0.09420 -0.44200
O 	O 	0.94900 0.48970 0.07620 -0.47300
O 	O 	0.54150 0.36410 0.92680 -0.42600
O 	O 	0.32790 0.40180 0.91500 -0.44700
O 	O 	0.35300 0.58790 0.91530 -0.42200
O 	O 	0.56150 0.54750 0.93560 -0.47600
N 	N 	0.57570 0.76280 0.43080 -0.24500
N 	N 	0.70300 0.02120 0.66430 -0.25400
N 	N 	0.09580 0.74730 0.63340 -0.25800
C 	C 	0.45160 0.78650 0.43530 0.10200
H 	H 	0.44790 0.83430 0.46830 -0.01200
C 	C 	0.32680 0.74280 0.39270 -0.17500
H 	H 	0.24150 0.76080 0.39810 0.10900
C 	C 	0.32900 0.67380 0.34300 0.11300
C 	C 	0.45980 0.64940 0.33710 -0.16400
H 	H 	0.46650 0.60350 0.30320 0.09200
C 	C 	0.58000 0.69490 0.38260 0.08900
H 	H 	0.66660 0.67740 0.37940 -0.01200
C 	C 	0.19930 0.62620 0.29680 -0.04200
C 	C 	0.18920 0.60090 0.22870 0.00300
H 	H 	0.26700 0.61520 0.21210 0.03700
C 	C 	0.06690 0.55540 0.18550 -0.11800
C 	C 	0.94920 0.53260 0.20950 0.01200
H 	H 	0.86770 0.50070 0.18080 0.03200
C 	C 	0.95450 0.55770 0.27600 -0.06900
H 	H 	0.87660 0.54290 0.29230 0.05600
C 	C 	0.07560 0.60470 0.31790 -0.02700
H 	H 	0.07600 0.62310 0.36220 0.05500
C 	C 	0.05810 0.53100 0.11230 0.39400
C 	C 	0.75260 0.09710 0.70710 0.10800
H 	H 	0.85000 0.11280 0.71950 -0.01800
C 	C 	0.67290 0.15330 0.73420 -0.18200
H 	H 	0.71600 0.20430 0.76460 0.09500
C 	C 	0.52650 0.13420 0.71630 0.12700
C 	C 	0.47320 0.05410 0.67210 -0.18200
H 	H 	0.37640 0.03630 0.65890 0.11100
C 	C 	0.56340 0.00220 0.64850 0.11100
H 	H 	0.52400 0.94980 0.61920 -0.02200
C 	C 	0.43010 0.19130 0.74250 -0.06600
C 	C 	0.46950 0.24760 0.80300 0.03900
H 	H 	0.55940 0.25120 0.82820 0.02500
C 	C 	0.37680 0.30000 0.82780 -0.14600
C 	C 	0.24500 0.29440 0.79060 0.05600
H 	H 	0.18240 0.32850 0.80690 0.02000
C 	C 	0.20330 0.23720 0.72760 -0.11100
H 	H 	0.11390 0.23340 0.70200 0.07500
C 	C 	0.29620 0.18780 0.70500 0.02600
H 	H 	0.26960 0.15040 0.66330 0.01200
C 	C 	0.41640 0.35920 0.89360 0.40300
C 	C 	0.22970 0.76090 0.63040 0.10800
H 	H 	0.25470 0.79570 0.60460 -0.02500
C 	C 	0.33580 0.72640 0.66350 -0.17900
H 	H 	0.42810 0.73780 0.65900 0.11200
C 	C 	0.30290 0.67430 0.70360 0.12000
C 	C 	0.16140 0.66210 0.70520 -0.18500
H 	H 	0.13150 0.62840 0.73090 0.09500
C 	C 	0.06510 0.69770 0.67060 0.11300
H 	H 	0.97150 0.68640 0.67320 -0.02400
C 	C 	0.41170 0.63940 0.74190 -0.05500
C 	C 	0.39440 0.62300 0.80120 0.02300
H 	H 	0.31250 0.63410 0.81560 0.03300
C 	C 	0.49380 0.59110 0.83890 -0.13600
C 	C 	0.61670 0.57580 0.81780 0.03400
H 	H 	0.68830 0.55790 0.84390 0.01700
C 	C 	0.63270 0.58770 0.75640 -0.08700
H 	H 	0.71190 0.57350 0.74070 0.06400
C 	C 	0.53160 0.62020 0.71980 -0.00800
H 	H 	0.54400 0.62920 0.68000 0.04400
C 	C 	0.46880 0.57370 0.90110 0.41000
La	La	0.72126 0.47998 0.00166 1.65100
I 	I 	0.23756 0.00696 0.50045 -0.71900
I 	I 	0.01765 0.22328 0.53421 -0.61500
I 	I 	0.91863 0.02495 0.33184 -0.60200
I 	I 	0.30128 0.21780 0.39288 -0.59200
Cu	Cu	0.98878 0.05905 0.46283 0.69800
Cu	Cu	0.24850 0.17421 0.50142 0.73300
Cu	Cu	0.18475 0.05888 0.38233 0.73400
Cu	Cu	0.04016 0.18735 0.40788 0.72300
O 	O 	0.82980 0.44510 0.90580 -0.44200
O 	O 	0.05100 0.51030 0.92380 -0.47300
O 	O 	0.45850 0.63590 0.07320 -0.42600
O 	O 	0.67210 0.59820 0.08500 -0.44700
O 	O 	0.64700 0.41210 0.08470 -0.42200
O 	O 	0.43850 0.45250 0.06440 -0.47600
N 	N 	0.42430 0.23720 0.56920 -0.24500
N 	N 	0.29700 0.97880 0.33570 -0.25400
N 	N 	0.90420 0.25270 0.36660 -0.25800
C 	C 	0.54840 0.21350 0.56470 0.10200
H 	H 	0.55210 0.16570 0.53170 -0.01200
C 	C 	0.67320 0.25720 0.60730 -0.17500
H 	H 	0.75850 0.23920 0.60190 0.10900
C 	C 	0.67100 0.32620 0.65700 0.11300
C 	C 	0.54020 0.35060 0.66290 -0.16400
H 	H 	0.53350 0.39650 0.69680 0.09200
C 	C 	0.42000 0.30510 0.61740 0.08900
H 	H 	0.33340 0.32260 0.62060 -0.01200
C 	C 	0.80070 0.37380 0.70320 -0.04200
C 	C 	0.81080 0.39910 0.77130 0.00300
H 	H 	0.73300 0.38480 0.78790 0.03700
C 	C 	0.93310 0.44460 0.81450 -0.11800
C 	C 	0.05080 0.46740 0.79050 0.01200
H 	H 	0.13230 0.49930 0.81920 0.03200
C 	C 	0.04550 0.44230 0.72400 -0.06900
H 	H 	0.12340 0.45710 0.70770 0.05600
C 	C 	0.92440 0.39530 0.68210 -0.02700
H 	H 	0.92400 0.37690 0.63780 0.05500
C 	C 	0.94190 0.46900 0.88770 0.39400
C 	C 	0.24740 0.90290 0.29290 0.10800
H 	H 	0.15000 0.88720 0.28050 -0.01800
C 	C 	0.32710 0.84670 0.26580 -0.18200
H 	H 	0.28400 0.79570 0.23540 0.09500
C 	C 	0.47350 0.86580 0.28370 0.12700
C 	C 	0.52680 0.94590 0.32790 -0.18200
H 	H 	0.62360 0.96370 0.34110 0.11100
C 	C 	0.43660 0.99780 0.35150 0.11100
H 	H 	0.47600 0.05020 0.38080 -0.02200
C 	C 	0.56990 0.80870 0.25750 -0.06600
C 	C 	0.53050 0.75240 0.19700 0.03900
H 	H 	0.44060 0.74880 0.17180 0.02500
C 	C 	0.62320 0.70000 0.17220 -0.14600
C 	C 	0.75500 0.70560 0.20940 0.05600
H 	H 	0.81760 0.67150 0.19310 0.02000
C 	C 	0.79670 0.76280 0.27240 -0.11100
H 	H 	0.88610 0.76660 0.29800 0.07500
C 	C 	0.70380 0.81220 0.29500 0.02600
H 	H 	0.73040 0.84960 0.33670 0.01200
C 	C 	0.58360 0.64080 0.10640 0.40300
C 	C 	0.77030 0.23910 0.36960 0.10800
H 	H 	0.74530 0.20430 0.39540 -0.02500
C 	C 	0.66420 0.27360 0.33650 -0.17900
H 	H 	0.57190 0.26220 0.34100 0.11200
C 	C 	0.69710 0.32570 0.29640 0.12000
C 	C 	0.83860 0.33790 0.29480 -0.18500
H 	H 	0.86850 0.37160 0.26910 0.09500
C 	C 	0.93490 0.30230 0.32940 0.11300
H 	H 	0.02850 0.31360 0.32680 -0.02400
C 	C 	0.58830 0.36060 0.25810 -0.05500
C 	C 	0.60560 0.37700 0.19880 0.02300
H 	H 	0.68750 0.36590 0.18440 0.03300
C 	C 	0.50620 0.40890 0.16110 -0.13600
C 	C 	0.38330 0.42420 0.18220 0.03400
H 	H 	0.31170 0.44210 0.15610 0.01700
C 	C 	0.36730 0.41230 0.24360 -0.08700
H 	H 	0.28810 0.42650 0.25930 0.06400
C 	C 	0.46840 0.37980 0.28020 -0.00800
H 	H 	0.45600 0.37080 0.32000 0.04400
C 	C 	0.53120 0.42630 0.09890 0.41000
