data_crystal

_cell_length_a 9.60500
_cell_length_b 16.76900
_cell_length_c 21.15500
_cell_angle_alpha 104.16000
_cell_angle_beta  100.31000
_cell_angle_gamma 97.16000

_symmetry_space_group_name_	'P 1'
_symmetry_space_group_name_H-M	'P 1'

loop_
_symmetry_equiv_pos_as_xyz
  x,y,z

loop_
_atom_site_label
_atom_site_type_symbol
_atom_site_fract_x
_atom_site_fract_y
_atom_site_fract_z
_atom_site_charge
Tb	Tb	0.27684 0.51230 0.99710 1.94600
I 	I 	0.76160 0.98920 0.49996 -0.72000
I 	I 	0.99071 0.77992 0.47107 -0.61300
I 	I 	0.08918 0.97768 0.67472 -0.60600
I 	I 	0.69498 0.78942 0.61293 -0.59600
Cu	Cu	0.01403 0.94245 0.54044 0.69900
Cu	Cu	0.75521 0.82692 0.50169 0.73200
Cu	Cu	0.82035 0.94494 0.62243 0.73200
Cu	Cu	0.96195 0.81770 0.59979 0.72500
O 	O 	0.16960 0.54040 0.08880 -0.52900
O 	O 	0.93930 0.48300 0.06930 -0.54800
O 	O 	0.55160 0.37790 0.92820 -0.50400
O 	O 	0.33090 0.40990 0.91300 -0.52800
O 	O 	0.35920 0.58350 0.92340 -0.48900
O 	O 	0.57810 0.55220 0.94060 -0.55000
N 	N 	0.57740 0.76080 0.43260 -0.25100
N 	N 	0.71060 0.02660 0.66970 -0.24500
N 	N 	0.09920 0.75310 0.64270 -0.25900
C 	C 	0.45010 0.78360 0.43460 0.11400
H 	H 	0.44600 0.83150 0.46700 -0.01600
C 	C 	0.32560 0.74020 0.39190 -0.18900
H 	H 	0.23920 0.75800 0.39660 0.11500
C 	C 	0.32580 0.67020 0.34170 0.12600
C 	C 	0.45930 0.64760 0.33850 -0.18000
H 	H 	0.46720 0.60130 0.30550 0.09700
C 	C 	0.58020 0.69440 0.38470 0.10600
H 	H 	0.66830 0.67800 0.38170 -0.01900
C 	C 	0.19180 0.62100 0.29400 -0.06400
C 	C 	0.18770 0.59420 0.22630 0.03400
H 	H 	0.26960 0.60670 0.21040 0.02500
C 	C 	0.06110 0.54840 0.18140 -0.17000
C 	C 	0.93850 0.52900 0.20580 0.05600
H 	H 	0.85460 0.49780 0.17650 0.01500
C 	C 	0.94170 0.55570 0.27250 -0.10400
H 	H 	0.86000 0.54260 0.28840 0.06800
C 	C 	0.06700 0.60260 0.31700 -0.00300
H 	H 	0.06760 0.62170 0.36220 0.04600
C 	C 	0.05670 0.52240 0.10790 0.48000
C 	C 	0.76730 0.10170 0.71280 0.09200
H 	H 	0.86690 0.11640 0.72590 -0.01400
C 	C 	0.68490 0.15830 0.73840 -0.16700
H 	H 	0.72940 0.20920 0.76870 0.08900
C 	C 	0.53470 0.13940 0.71910 0.12000
C 	C 	0.47900 0.06100 0.67380 -0.16900
H 	H 	0.38010 0.04560 0.65790 0.10600
C 	C 	0.56650 0.00630 0.65230 0.09700
H 	H 	0.52470 0.95340 0.62460 -0.01700
C 	C 	0.43900 0.19660 0.74330 -0.06900
C 	C 	0.47760 0.25530 0.80460 0.05100
H 	H 	0.56920 0.26150 0.83070 0.02000
C 	C 	0.38210 0.30590 0.82850 -0.17100
C 	C 	0.24670 0.29750 0.78990 0.07100
H 	H 	0.18250 0.33060 0.80550 0.01100
C 	C 	0.20580 0.23850 0.72640 -0.12000
H 	H 	0.11500 0.23340 0.70000 0.07500
C 	C 	0.29940 0.18890 0.70380 0.02800
H 	H 	0.27130 0.14990 0.66220 0.00800
C 	C 	0.42490 0.36890 0.89500 0.48500
C 	C 	0.23440 0.76990 0.64240 0.13100
H 	H 	0.26310 0.80740 0.61930 -0.03300
C 	C 	0.33930 0.73420 0.67520 -0.21000
H 	H 	0.43500 0.74760 0.67310 0.12400
C 	C 	0.30200 0.68030 0.70980 0.14900
C 	C 	0.15910 0.66300 0.70970 -0.20000
H 	H 	0.12750 0.62550 0.73220 0.10100
C 	C 	0.06070 0.70080 0.67640 0.11700
H 	H 	0.96440 0.68890 0.67790 -0.02600
C 	C 	0.41220 0.64370 0.74730 -0.07600
C 	C 	0.39580 0.62740 0.80800 0.04400
H 	H 	0.31450 0.63860 0.82430 0.02500
C 	C 	0.49950 0.59490 0.84390 -0.16700
C 	C 	0.62050 0.57830 0.81950 0.06100
H 	H 	0.69110 0.55720 0.84340 0.00900
C 	C 	0.63620 0.59350 0.75840 -0.11000
H 	H 	0.71720 0.58210 0.74190 0.07000
C 	C 	0.53260 0.62510 0.72300 0.01200
H 	H 	0.54340 0.63420 0.68230 0.03600
C 	C 	0.47720 0.57510 0.90700 0.48200
Tb	Tb	0.72316 0.48770 0.00290 1.94700
I 	I 	0.23840 0.01080 0.50004 -0.71900
I 	I 	0.00929 0.22008 0.52893 -0.61200
I 	I 	0.91082 0.02232 0.32528 -0.60500
I 	I 	0.30502 0.21058 0.38707 -0.59600
Cu	Cu	0.98597 0.05755 0.45956 0.69900
Cu	Cu	0.24479 0.17308 0.49831 0.73200
Cu	Cu	0.17965 0.05506 0.37757 0.73200
Cu	Cu	0.03805 0.18230 0.40021 0.72500
O 	O 	0.83040 0.45960 0.91120 -0.52900
O 	O 	0.06070 0.51700 0.93070 -0.54800
O 	O 	0.44840 0.62210 0.07180 -0.50400
O 	O 	0.66910 0.59010 0.08700 -0.52800
O 	O 	0.64080 0.41650 0.07660 -0.48900
O 	O 	0.42190 0.44780 0.05940 -0.55000
N 	N 	0.42260 0.23920 0.56740 -0.25100
N 	N 	0.28940 0.97340 0.33030 -0.24500
N 	N 	0.90080 0.24690 0.35730 -0.25900
C 	C 	0.54990 0.21640 0.56540 0.11400
H 	H 	0.55400 0.16850 0.53300 -0.01600
C 	C 	0.67440 0.25980 0.60810 -0.18900
H 	H 	0.76080 0.24200 0.60340 0.11500
C 	C 	0.67420 0.32980 0.65830 0.12600
C 	C 	0.54070 0.35240 0.66150 -0.18000
H 	H 	0.53280 0.39870 0.69450 0.09700
C 	C 	0.41980 0.30560 0.61530 0.10600
H 	H 	0.33170 0.32200 0.61830 -0.01900
C 	C 	0.80820 0.37900 0.70600 -0.06400
C 	C 	0.81230 0.40580 0.77370 0.03400
H 	H 	0.73040 0.39330 0.78960 0.02500
C 	C 	0.93890 0.45160 0.81860 -0.17000
C 	C 	0.06150 0.47100 0.79420 0.05600
H 	H 	0.14540 0.50220 0.82350 0.01500
C 	C 	0.05830 0.44430 0.72750 -0.10400
H 	H 	0.14000 0.45740 0.71160 0.06800
C 	C 	0.93300 0.39740 0.68300 -0.00300
H 	H 	0.93240 0.37830 0.63780 0.04600
C 	C 	0.94330 0.47760 0.89210 0.48000
C 	C 	0.23270 0.89830 0.28720 0.09200
H 	H 	0.13310 0.88360 0.27410 -0.01400
C 	C 	0.31510 0.84170 0.26160 -0.16700
H 	H 	0.27060 0.79080 0.23130 0.08900
C 	C 	0.46530 0.86060 0.28090 0.12000
C 	C 	0.52100 0.93900 0.32620 -0.16900
H 	H 	0.61990 0.95440 0.34210 0.10600
C 	C 	0.43350 0.99370 0.34770 0.09700
H 	H 	0.47530 0.04660 0.37540 -0.01700
C 	C 	0.56100 0.80340 0.25670 -0.06900
C 	C 	0.52240 0.74470 0.19540 0.05100
H 	H 	0.43080 0.73850 0.16930 0.02000
C 	C 	0.61790 0.69410 0.17150 -0.17100
C 	C 	0.75330 0.70250 0.21010 0.07100
H 	H 	0.81750 0.66940 0.19450 0.01100
C 	C 	0.79420 0.76150 0.27360 -0.12000
H 	H 	0.88500 0.76660 0.30000 0.07500
C 	C 	0.70060 0.81110 0.29620 0.02800
H 	H 	0.72870 0.85010 0.33780 0.00800
C 	C 	0.57510 0.63110 0.10500 0.48500
C 	C 	0.76560 0.23010 0.35760 0.13100
H 	H 	0.73690 0.19260 0.38070 -0.03300
C 	C 	0.66070 0.26580 0.32480 -0.21000
H 	H 	0.56500 0.25240 0.32690 0.12400
C 	C 	0.69800 0.31970 0.29020 0.14900
C 	C 	0.84090 0.33700 0.29030 -0.20000
H 	H 	0.87250 0.37450 0.26780 0.10100
C 	C 	0.93930 0.29920 0.32360 0.11700
H 	H 	0.03560 0.31110 0.32210 -0.02600
C 	C 	0.58780 0.35630 0.25270 -0.07600
C 	C 	0.60420 0.37260 0.19200 0.04400
H 	H 	0.68550 0.36140 0.17570 0.02500
C 	C 	0.50050 0.40510 0.15610 -0.16700
C 	C 	0.37950 0.42170 0.18050 0.06100
H 	H 	0.30890 0.44280 0.15660 0.00900
C 	C 	0.36380 0.40650 0.24160 -0.11000
H 	H 	0.28280 0.41790 0.25810 0.07000
C 	C 	0.46740 0.37490 0.27700 0.01200
H 	H 	0.45660 0.36580 0.31770 0.03600
C 	C 	0.52280 0.42490 0.09300 0.48200
