data_crystal

_cell_length_a 14.92400
_cell_length_b 14.92400
_cell_length_c 11.92900
_cell_angle_alpha 90.00000
_cell_angle_beta  90.00000
_cell_angle_gamma 90.00000

_symmetry_space_group_name_	'P 1'
_symmetry_space_group_name_H-M	'P 1'

loop_
_symmetry_equiv_pos_as_xyz
  x,y,z

loop_
_atom_site_label
_atom_site_type_symbol
_atom_site_fract_x
_atom_site_fract_y
_atom_site_fract_z
_atom_site_charge
O 	O 	0.09944 0.28612 0.99783 -0.34100
O 	O 	0.12249 0.37951 0.14331 -0.36200
C 	C 	0.09110 0.35960 0.04900 0.22800
C 	C 	0.04330 0.43056 0.99050 0.10600
C 	C 	0.03910 0.43110 0.87030 -0.13000
H 	H 	0.06410 0.38240 0.82980 0.08500
O 	O 	0.59944 0.78612 0.49783 -0.41400
O 	O 	0.62249 0.87951 0.64331 -0.38600
C 	C 	0.59110 0.85960 0.54900 0.37500
C 	C 	0.54330 0.93056 0.49050 -0.07100
C 	C 	0.53910 0.93110 0.37030 -0.01800
H 	H 	0.56410 0.88240 0.32980 0.04900
O 	O 	0.40056 0.21388 0.49783 -0.41500
O 	O 	0.37751 0.12049 0.64331 -0.39200
C 	C 	0.40890 0.14040 0.54900 0.37700
C 	C 	0.45670 0.06944 0.49050 -0.08500
C 	C 	0.46090 0.06890 0.37030 -0.03400
H 	H 	0.43590 0.11760 0.32980 0.05200
O 	O 	0.90056 0.71388 0.99783 -0.33800
O 	O 	0.87751 0.62049 0.14331 -0.36100
C 	C 	0.90890 0.64040 0.04900 0.22600
C 	C 	0.95670 0.56944 0.99050 0.11300
C 	C 	0.96090 0.56890 0.87030 -0.12400
H 	H 	0.93590 0.61760 0.82980 0.08600
O 	O 	0.71388 0.59944 0.24783 -0.42400
O 	O 	0.62049 0.62249 0.39331 -0.39900
C 	C 	0.64040 0.59110 0.29900 0.39500
C 	C 	0.56944 0.54330 0.24050 -0.13100
C 	C 	0.56890 0.53910 0.12030 0.03800
H 	H 	0.61760 0.56410 0.07980 0.01500
O 	O 	0.21388 0.09944 0.74783 -0.41400
O 	O 	0.12049 0.12249 0.89331 -0.37900
C 	C 	0.14040 0.09110 0.79900 0.37800
C 	C 	0.06944 0.04330 0.74050 -0.09200
C 	C 	0.06890 0.03910 0.62030 -0.00900
H 	H 	0.11760 0.06410 0.57980 0.04300
O 	O 	0.78612 0.90056 0.74783 -0.40900
O 	O 	0.87951 0.87751 0.89331 -0.37100
C 	C 	0.85960 0.90890 0.79900 0.37600
C 	C 	0.93056 0.95670 0.74050 -0.07300
C 	C 	0.93110 0.96090 0.62030 0.01400
H 	H 	0.88240 0.93590 0.57980 0.04000
O 	O 	0.28612 0.40056 0.24783 -0.42400
O 	O 	0.37951 0.37751 0.39331 -0.40000
C 	C 	0.35960 0.40890 0.29900 0.39500
C 	C 	0.43056 0.45670 0.24050 -0.13100
C 	C 	0.43110 0.46090 0.12030 0.03800
H 	H 	0.38240 0.43590 0.07980 0.01500
O 	O 	0.40056 0.28612 0.75217 -0.41000
O 	O 	0.37751 0.37951 0.60669 -0.39300
C 	C 	0.40890 0.35960 0.70100 0.37600
C 	C 	0.45670 0.43056 0.75950 -0.07800
C 	C 	0.46090 0.43110 0.87970 -0.04700
H 	H 	0.43590 0.38240 0.92020 0.07000
O 	O 	0.90056 0.78612 0.25217 -0.41800
O 	O 	0.87751 0.87951 0.10669 -0.40100
C 	C 	0.90890 0.85960 0.20100 0.38200
C 	C 	0.95670 0.93056 0.25950 -0.08900
C 	C 	0.96090 0.93110 0.37970 0.02200
H 	H 	0.93590 0.88240 0.42020 0.03700
O 	O 	0.09944 0.21388 0.25217 -0.42100
O 	O 	0.12249 0.12049 0.10669 -0.40800
C 	C 	0.09110 0.14040 0.20100 0.38300
C 	C 	0.04330 0.06944 0.25950 -0.10600
C 	C 	0.03910 0.06890 0.37970 -0.00100
H 	H 	0.06410 0.11760 0.42020 0.04000
O 	O 	0.59944 0.71388 0.75217 -0.40900
O 	O 	0.62249 0.62049 0.60669 -0.39300
C 	C 	0.59110 0.64040 0.70100 0.37600
C 	C 	0.54330 0.56944 0.75950 -0.07800
C 	C 	0.53910 0.56890 0.87970 -0.04700
H 	H 	0.56410 0.61760 0.92020 0.07000
O 	O 	0.78612 0.59944 0.50217 -0.41800
O 	O 	0.87951 0.62249 0.35669 -0.39900
C 	C 	0.85960 0.59110 0.45100 0.39000
C 	C 	0.93056 0.54330 0.50950 -0.11500
C 	C 	0.93110 0.53910 0.62970 0.03100
H 	H 	0.88240 0.56410 0.67020 0.03100
O 	O 	0.28612 0.09944 0.00217 -0.48600
O 	O 	0.37951 0.12249 0.85669 -0.42800
C 	C 	0.35960 0.09110 0.95100 0.53500
C 	C 	0.43056 0.04330 0.00950 -0.30700
C 	C 	0.43110 0.03910 0.12970 0.11800
H 	H 	0.38240 0.06410 0.17020 -0.00100
O 	O 	0.71388 0.90056 0.00217 -0.48400
O 	O 	0.62049 0.87751 0.85669 -0.42400
C 	C 	0.64040 0.90890 0.95100 0.53900
C 	C 	0.56944 0.95670 0.00950 -0.29600
C 	C 	0.56890 0.96090 0.12970 0.13500
H 	H 	0.61760 0.93590 0.17020 -0.00300
O 	O 	0.21388 0.40056 0.50217 -0.41900
O 	O 	0.12049 0.37751 0.35669 -0.40200
C 	C 	0.14040 0.40890 0.45100 0.39100
C 	C 	0.06944 0.45670 0.50950 -0.12000
C 	C 	0.06890 0.46090 0.62970 0.02500
H 	H 	0.11760 0.43590 0.67020 0.03200
Fe	Fe	0.19347 0.19347 -0.00000 1.26900
Fe	Fe	0.69347 0.69347 0.50000 1.29200
Fe	Fe	0.30653 0.30653 0.50000 1.29200
Fe	Fe	0.80653 0.69347 0.25000 1.29000
Fe	Fe	0.69347 0.80653 0.75000 1.29400
Fe	Fe	0.30653 0.19347 0.75000 1.29400
Fe	Fe	0.19347 0.30653 0.25000 1.29000
Fe	Fe	0.80653 0.80653 -0.00000 1.26900
O 	O 	0.25370 0.25000 0.12500 -0.72000
H 	H 	0.30880 0.25000 0.12500 0.30400
O 	O 	0.75370 0.75000 0.62500 -0.71600
H 	H 	0.80880 0.75000 0.62500 0.30900
O 	O 	0.24630 0.25000 0.62500 -0.71600
H 	H 	0.19120 0.25000 0.62500 0.30800
O 	O 	0.74630 0.75000 0.12500 -0.72000
H 	H 	0.69120 0.75000 0.12500 0.30500
O 	O 	0.75000 0.75370 0.37500 -0.71600
H 	H 	0.75000 0.80880 0.37500 0.31000
O 	O 	0.25000 0.25370 0.87500 -0.70400
H 	H 	0.25000 0.30880 0.87500 0.31100
O 	O 	0.75000 0.74630 0.87500 -0.70300
H 	H 	0.75000 0.69120 0.87500 0.31100
O 	O 	0.25000 0.24630 0.37500 -0.71600
H 	H 	0.25000 0.19120 0.37500 0.30800
C 	C 	-0.00000 0.50000 0.81230 0.09800
C 	C 	-0.00000 0.50000 0.04710 -0.20300
H 	H 	-0.00000 0.50000 0.12680 0.12900
C 	C 	0.50000 -0.00000 0.31230 0.03100
C 	C 	0.50000 0.00000 0.54710 0.01700
H 	H 	0.50000 0.00000 0.62680 0.06400
C 	C 	0.50000 0.50000 0.06230 -0.08800
C 	C 	0.50000 0.50000 0.29710 0.07700
H 	H 	0.50000 0.50000 0.37680 0.04500
C 	C 	0.00000 -0.00000 0.56230 -0.01800
C 	C 	-0.00000 -0.00000 0.79710 0.01700
H 	H 	-0.00000 0.00000 0.87680 0.06700
C 	C 	0.50000 0.50000 0.93770 0.08400
C 	C 	0.50000 0.50000 0.70290 0.03500
H 	H 	0.50000 0.50000 0.62320 0.06000
C 	C 	-0.00000 0.00000 0.43770 -0.02600
C 	C 	-0.00000 -0.00000 0.20290 0.02900
H 	H 	0.00000 0.00000 0.12320 0.04600
C 	C 	-0.00000 0.50000 0.68770 -0.05600
C 	C 	0.00000 0.50000 0.45290 0.06300
H 	H 	-0.00000 0.50000 0.37320 0.04500
C 	C 	0.50000 -0.00000 0.18770 -0.12000
C 	C 	0.50000 0.00000 0.95290 0.28000
H 	H 	0.50000 -0.00000 0.87320 -0.02000
