data_crystal

_cell_length_a 17.11000
_cell_length_b 17.11000
_cell_length_c 10.74000
_cell_angle_alpha 90.00000
_cell_angle_beta  90.00000
_cell_angle_gamma 90.00000

_symmetry_space_group_name_	'P 1'
_symmetry_space_group_name_H-M	'P 1'

loop_
_symmetry_equiv_pos_as_xyz
  x,y,z

loop_
_atom_site_label
_atom_site_type_symbol
_atom_site_fract_x
_atom_site_fract_y
_atom_site_fract_z
_atom_site_charge
Mo	Mo	0.66072 0.94074 0.19236 1.25800
P 	P 	0.63582 0.83224 0.44687 0.52700
O 	O 	0.57320 0.92990 0.10930 -0.43900
O 	O 	0.75020 0.96480 0.33460 -0.35900
O 	O 	0.70660 0.85040 0.16820 -0.46600
O 	O 	0.60800 0.89420 0.35200 -0.30900
O 	O 	0.56790 0.81920 0.53440 -0.37200
O 	O 	0.66110 0.75710 0.38150 -0.36200
O 	O 	0.70460 0.86670 0.52290 -0.29300
Mo	Mo	0.16072 0.44074 0.69236 1.24800
P 	P 	0.13582 0.33224 0.94687 0.61700
O 	O 	0.07320 0.42990 0.60930 -0.50100
O 	O 	0.25020 0.46480 0.83460 -0.38300
O 	O 	0.20660 0.35040 0.66820 -0.46900
O 	O 	0.10800 0.39420 0.85200 -0.35300
O 	O 	0.06790 0.31920 0.03440 -0.49400
O 	O 	0.16110 0.25710 0.88150 -0.37800
O 	O 	0.20460 0.36670 0.02290 -0.38400
Mo	Mo	0.83928 0.05926 0.69236 1.23700
P 	P 	0.86418 0.16776 0.94687 0.61400
O 	O 	0.92680 0.07010 0.60930 -0.39300
O 	O 	0.74980 0.03520 0.83460 -0.41000
O 	O 	0.79340 0.14960 0.66820 -0.45300
O 	O 	0.89200 0.10580 0.85200 -0.30200
O 	O 	0.93210 0.18080 0.03440 -0.35300
O 	O 	0.83890 0.24290 0.88150 -0.33200
O 	O 	0.79540 0.13330 0.02290 -0.37700
Mo	Mo	0.33928 0.55926 0.19236 1.24600
P 	P 	0.36418 0.66776 0.44687 0.52800
O 	O 	0.42680 0.57010 0.10930 -0.46900
O 	O 	0.24980 0.53520 0.33460 -0.40500
O 	O 	0.29340 0.64960 0.16820 -0.47600
O 	O 	0.39200 0.60580 0.35200 -0.32500
O 	O 	0.43210 0.68080 0.53440 -0.38000
O 	O 	0.33890 0.74290 0.38150 -0.36100
O 	O 	0.29540 0.63330 0.52290 -0.31000
Mo	Mo	0.80926 0.91072 0.44236 1.25800
P 	P 	0.91776 0.88582 0.69687 0.52600
O 	O 	0.82010 0.82320 0.35930 -0.43200
O 	O 	0.78520 0.00020 0.58460 -0.44200
O 	O 	0.89960 0.95660 0.41820 -0.35400
O 	O 	0.85580 0.85800 0.60200 -0.29700
O 	O 	0.93080 0.81790 0.78440 -0.29200
O 	O 	0.99290 0.91110 0.63150 -0.22500
O 	O 	0.88330 0.95460 0.77290 -0.23200
Mo	Mo	0.30926 0.41072 0.94236 1.27500
P 	P 	0.41776 0.38582 0.19687 0.52800
O 	O 	0.32010 0.32320 0.85930 -0.43600
O 	O 	0.28520 0.50020 0.08460 -0.42800
O 	O 	0.39960 0.45660 0.91820 -0.42600
O 	O 	0.35580 0.35800 0.10200 -0.35400
O 	O 	0.43080 0.31790 0.28440 -0.38900
O 	O 	0.49290 0.41110 0.13150 -0.37900
O 	O 	0.38330 0.45460 0.27290 -0.31400
Mo	Mo	0.69074 0.08928 0.94236 1.26400
P 	P 	0.58224 0.11418 0.19687 0.52700
O 	O 	0.67990 0.17680 0.85930 -0.43700
O 	O 	0.71480 0.99980 0.08460 -0.36500
O 	O 	0.60040 0.04340 0.91820 -0.45600
O 	O 	0.64420 0.14200 0.10200 -0.35700
O 	O 	0.56920 0.18210 0.28440 -0.39000
O 	O 	0.50710 0.08890 0.13150 -0.39700
O 	O 	0.61670 0.04540 0.27290 -0.35500
Mo	Mo	0.19074 0.58928 0.44236 1.24600
P 	P 	0.08224 0.61418 0.69687 0.52600
O 	O 	0.17990 0.67680 0.35930 -0.47300
O 	O 	0.21480 0.49980 0.58460 -0.39600
O 	O 	0.10040 0.54340 0.41820 -0.50700
O 	O 	0.14420 0.64200 0.60200 -0.33400
O 	O 	0.06920 0.68210 0.78440 -0.41700
O 	O 	0.00710 0.58890 0.63150 -0.43900
O 	O 	0.11670 0.54540 0.77290 -0.31900
Mo	Mo	0.33928 0.05926 0.80764 1.23600
P 	P 	0.36418 0.16776 0.55313 0.52900
O 	O 	0.42680 0.07010 0.89070 -0.44600
O 	O 	0.24980 0.03520 0.66540 -0.43200
O 	O 	0.29340 0.14960 0.83180 -0.45300
O 	O 	0.39200 0.10580 0.64800 -0.34000
O 	O 	0.43210 0.18080 0.46560 -0.39200
O 	O 	0.33890 0.24290 0.61850 -0.36200
O 	O 	0.29540 0.13330 0.47710 -0.33100
Mo	Mo	0.83928 0.55926 0.30764 1.24800
P 	P 	0.86418 0.66776 0.05313 0.43200
O 	O 	0.92680 0.57010 0.39070 -0.37600
O 	O 	0.74980 0.53520 0.16540 -0.40800
O 	O 	0.79340 0.64960 0.33180 -0.44900
O 	O 	0.89200 0.60580 0.14800 -0.29300
O 	O 	0.93210 0.68080 0.96560 -0.23400
O 	O 	0.83890 0.74290 0.11850 -0.34200
O 	O 	0.79540 0.63330 0.97710 -0.23600
Mo	Mo	0.16072 0.94074 0.30764 1.25800
P 	P 	0.13582 0.83224 0.05313 0.43300
O 	O 	0.07320 0.92990 0.39070 -0.47300
O 	O 	0.25020 0.96480 0.16540 -0.38100
O 	O 	0.20660 0.85040 0.33180 -0.46500
O 	O 	0.10800 0.89420 0.14800 -0.34400
O 	O 	0.06790 0.81920 0.96560 -0.37300
O 	O 	0.16110 0.75710 0.11850 -0.38800
O 	O 	0.20460 0.86670 0.97710 -0.24000
Mo	Mo	0.66072 0.44074 0.80764 1.24900
P 	P 	0.63582 0.33224 0.55313 0.52800
O 	O 	0.57320 0.42990 0.89070 -0.42400
O 	O 	0.75020 0.46480 0.66540 -0.38500
O 	O 	0.70660 0.35040 0.83180 -0.44300
O 	O 	0.60800 0.39420 0.64800 -0.32400
O 	O 	0.56790 0.31920 0.46560 -0.38300
O 	O 	0.66110 0.25710 0.61850 -0.36300
O 	O 	0.70460 0.36670 0.47710 -0.31400
Mo	Mo	0.19074 0.08928 0.55764 1.23600
P 	P 	0.08224 0.11418 0.30313 0.52500
O 	O 	0.17990 0.17680 0.64070 -0.46900
O 	O 	0.21480 0.99980 0.41540 -0.34500
O 	O 	0.10040 0.04340 0.58180 -0.52900
O 	O 	0.14420 0.14200 0.39800 -0.34700
O 	O 	0.06920 0.18210 0.21560 -0.43800
O 	O 	0.00710 0.08890 0.36850 -0.46000
O 	O 	0.11670 0.04540 0.22710 -0.38600
Mo	Mo	0.69074 0.58928 0.05764 1.22000
P 	P 	0.58224 0.61418 0.80313 0.52800
O 	O 	0.67990 0.67680 0.14070 -0.46700
O 	O 	0.71480 0.49980 0.91540 -0.36100
O 	O 	0.60040 0.54340 0.08180 -0.48300
O 	O 	0.64420 0.64200 0.89800 -0.29300
O 	O 	0.56920 0.68210 0.71560 -0.37500
O 	O 	0.50710 0.58890 0.86850 -0.33500
O 	O 	0.61670 0.54540 0.72710 -0.30900
Mo	Mo	0.30926 0.91072 0.05764 1.23000
P 	P 	0.41776 0.88582 0.80313 0.52800
O 	O 	0.32010 0.82320 0.14070 -0.46600
O 	O 	0.28520 0.00020 0.91540 -0.42700
O 	O 	0.39960 0.95660 0.08180 -0.44500
O 	O 	0.35580 0.85800 0.89800 -0.28700
O 	O 	0.43080 0.81790 0.71560 -0.37400
O 	O 	0.49290 0.91110 0.86850 -0.30500
O 	O 	0.38330 0.95460 0.72710 -0.26500
Mo	Mo	0.80926 0.41072 0.55764 1.24900
P 	P 	0.91776 0.38582 0.30313 0.52500
O 	O 	0.82010 0.32320 0.64070 -0.42800
O 	O 	0.78520 0.50020 0.41540 -0.39300
O 	O 	0.89960 0.45660 0.58180 -0.38500
O 	O 	0.85580 0.35800 0.39800 -0.31100
O 	O 	0.93080 0.31790 0.21560 -0.31300
O 	O 	0.99290 0.41110 0.36850 -0.25500
O 	O 	0.88330 0.45460 0.22710 -0.30000
Co	Co	0.75000 0.75000 0.25000 1.21400
Co	Co	0.75000 0.25000 0.75000 1.21700
Co	Co	0.00000 0.00000 0.50000 1.09900
Co	Co	0.50000 0.50000 -0.00000 1.18400
Co	Co	0.50000 0.00000 -0.00000 1.15100
Co	Co	0.00000 0.50000 0.50000 1.13200
Co	Co	0.25000 0.25000 0.75000 1.21400
Co	Co	0.25000 0.75000 0.25000 1.21200
Co	Co	0.50000 0.75000 0.62500 1.21600
Co	Co	0.00000 0.25000 0.12500 1.12800
Co	Co	0.00000 0.75000 0.87500 1.13800
Co	Co	0.50000 0.25000 0.37500 1.21100
