data_crystal

_cell_length_a 10.74100
_cell_length_b 11.10900
_cell_length_c 11.93300
_cell_angle_alpha 77.67800
_cell_angle_beta  84.65000
_cell_angle_gamma 75.99000

_symmetry_space_group_name_	'P 1'
_symmetry_space_group_name_H-M	'P 1'

loop_
_symmetry_equiv_pos_as_xyz
  x,y,z

loop_
_atom_site_label
_atom_site_type_symbol
_atom_site_fract_x
_atom_site_fract_y
_atom_site_fract_z
_atom_site_charge
Cu	Cu	0.54615 0.00692 0.80234 0.91500
Cu	Cu	0.47807 0.75665 0.93413 0.91300
Cu	Cu	0.49041 0.58251 0.66854 0.90400
Cu	Cu	0.03020 0.21568 0.06598 0.83400
Cu	Cu	0.45385 0.99308 0.19766 0.91400
Cu	Cu	0.52193 0.24335 0.06587 0.91200
Cu	Cu	0.50959 0.41749 0.33146 0.90300
Cu	Cu	0.96980 0.78432 0.93402 0.83300
P 	P 	0.42400 0.87020 0.66390 0.41300
P 	P 	0.24690 0.72510 0.80850 0.40400
P 	P 	0.48760 0.30300 0.80380 0.42800
P 	P 	0.31280 0.15180 0.94390 0.41300
P 	P 	0.57600 0.12980 0.33610 0.41300
P 	P 	0.75310 0.27490 0.19150 0.40400
P 	P 	0.51240 0.69700 0.19620 0.42800
P 	P 	0.68720 0.84820 0.05610 0.41300
H 	H 	0.13250 0.97030 0.79270 0.18300
H 	H 	0.19770 0.38070 0.92370 0.16800
H 	H 	0.08640 0.89610 0.62100 0.08300
H 	H 	0.20060 0.79960 0.57490 0.08400
H 	H 	0.31620 0.86720 0.40450 0.04700
H 	H 	0.25310 0.21690 0.24040 -0.01900
H 	H 	0.11570 0.28130 0.38210 0.04300
H 	H 	0.07890 0.13290 0.54750 0.05800
H 	H 	0.16380 0.26710 0.74890 0.09300
H 	H 	0.29550 0.19380 0.70310 0.10200
H 	H 	0.08250 0.49960 0.65530 0.06600
H 	H 	0.08800 0.64500 0.48500 0.03500
H 	H 	0.25940 0.61690 0.35570 0.02100
H 	H 	0.40840 0.28870 0.54520 0.06600
H 	H 	0.86750 0.02970 0.20730 0.18300
H 	H 	0.80230 0.61930 0.07630 0.16800
H 	H 	0.91360 0.10390 0.37900 0.08300
H 	H 	0.79940 0.20040 0.42510 0.08400
H 	H 	0.68380 0.13280 0.59550 0.04700
H 	H 	0.74690 0.78310 0.75960 -0.01900
H 	H 	0.88430 0.71870 0.61790 0.04300
H 	H 	0.92110 0.86710 0.45250 0.05800
H 	H 	0.83620 0.73290 0.25110 0.09300
H 	H 	0.70450 0.80620 0.29690 0.10200
H 	H 	0.91750 0.50040 0.34470 0.06600
H 	H 	0.91200 0.35500 0.51500 0.03500
H 	H 	0.74060 0.38310 0.64430 0.02100
H 	H 	0.59160 0.71130 0.45480 0.06600
C 	C 	0.25480 0.87370 0.70370 0.00400
C 	C 	0.17690 0.88130 0.59760 -0.18400
C 	C 	0.19450 0.98220 0.49300 0.07300
C 	C 	0.27510 0.95180 0.40130 -0.02200
C 	C 	0.23800 0.15680 0.30430 0.02900
C 	C 	0.15650 0.19620 0.38880 -0.06400
C 	C 	0.13370 0.10750 0.48750 -0.07500
C 	C 	0.31820 0.29110 0.82740 0.00000
C 	C 	0.25110 0.27330 0.72440 -0.19900
C 	C 	0.24700 0.37770 0.61960 0.09300
C 	C 	0.14970 0.48580 0.60100 -0.09300
C 	C 	0.15440 0.57320 0.50010 -0.03700
C 	C 	0.25620 0.55540 0.42170 0.00200
C 	C 	0.34460 0.36300 0.53470 -0.04600
C 	C 	0.74520 0.12630 0.29630 0.00400
C 	C 	0.82310 0.11870 0.40240 -0.18400
C 	C 	0.80550 0.01780 0.50700 0.07300
C 	C 	0.72490 0.04820 0.59870 -0.02200
C 	C 	0.76200 0.84320 0.69570 0.02900
C 	C 	0.84350 0.80380 0.61120 -0.06400
C 	C 	0.86630 0.89250 0.51250 -0.07500
C 	C 	0.68180 0.70890 0.17260 0.00000
C 	C 	0.74890 0.72670 0.27560 -0.19900
C 	C 	0.75300 0.62230 0.38040 0.09300
C 	C 	0.85030 0.51420 0.39900 -0.09300
C 	C 	0.84560 0.42680 0.49990 -0.03700
C 	C 	0.74380 0.44460 0.57830 0.00200
C 	C 	0.65540 0.63700 0.46530 -0.04600
N 	N 	0.29820 0.03620 0.30750 -0.19200
N 	N 	0.35190 0.44930 0.43920 -0.18700
N 	N 	0.70180 0.96380 0.69250 -0.19200
N 	N 	0.64810 0.55070 0.56080 -0.18700
O 	O 	0.48910 0.85460 0.77770 -0.47900
O 	O 	0.47270 0.76010 0.60590 -0.38900
O 	O 	0.43700 0.99700 0.59070 -0.22500
O 	O 	0.31940 0.61540 0.75250 -0.35100
O 	O 	0.30650 0.73400 0.91680 -0.39100
O 	O 	0.10700 0.72110 0.82970 -0.40900
O 	O 	0.19870 0.98140 0.75620 -0.33300
O 	O 	0.49920 0.40500 0.70020 -0.37800
O 	O 	0.56880 0.17450 0.78590 -0.40000
O 	O 	0.52210 0.33790 0.91230 -0.39500
O 	O 	0.38000 0.03730 0.89190 -0.38600
O 	O 	0.17320 0.14920 0.97330 -0.43300
O 	O 	0.38010 0.16510 0.04630 -0.46500
O 	O 	0.24490 0.40230 0.86890 -0.32000
O 	O 	0.51090 0.14540 0.22230 -0.47900
O 	O 	0.52730 0.23990 0.39410 -0.38900
O 	O 	0.56300 0.00300 0.40930 -0.22500
O 	O 	0.68060 0.38460 0.24750 -0.35100
O 	O 	0.69350 0.26600 0.08320 -0.39100
O 	O 	0.89300 0.27890 0.17030 -0.40900
O 	O 	0.80130 0.01860 0.24380 -0.33300
O 	O 	0.50080 0.59500 0.29980 -0.37800
O 	O 	0.43120 0.82550 0.21410 -0.40000
O 	O 	0.47790 0.66210 0.08770 -0.39500
O 	O 	0.62000 0.96270 0.10810 -0.38600
O 	O 	0.82680 0.85080 0.02670 -0.43300
O 	O 	0.61990 0.83490 0.95370 -0.46500
O 	O 	0.75510 0.59770 0.13110 -0.32000
