data_crystal

_cell_length_a 7.61110
_cell_length_b 14.23910
_cell_length_c 14.23910
_cell_angle_alpha 61.55780
_cell_angle_beta  74.49860
_cell_angle_gamma 74.49860

_symmetry_space_group_name_	'P 1'
_symmetry_space_group_name_H-M	'P 1'

loop_
_symmetry_equiv_pos_as_xyz
  x,y,z

loop_
_atom_site_label
_atom_site_type_symbol
_atom_site_fract_x
_atom_site_fract_y
_atom_site_fract_z
_atom_site_charge
Cd	Cd	0.50000 0.00000 -0.00000 1.11000
Cd	Cd	-0.00000 0.00000 -0.00000 1.09500
H 	H 	0.30710 0.41650 0.99810 -0.11000
H 	H 	0.19290 0.00190 0.58350 0.19500
H 	H 	0.22170 0.58350 0.00190 0.23900
H 	H 	0.27830 0.99810 0.41650 -0.08900
H 	H 	0.69290 0.58350 0.00190 0.22900
H 	H 	0.80710 0.99810 0.41650 -0.07500
H 	H 	0.77830 0.41650 0.99810 -0.11100
H 	H 	0.72170 0.00190 0.58350 0.21100
C 	C 	0.18130 0.45040 0.99880 0.58500
C 	C 	0.31870 0.00120 0.54960 -0.58500
C 	C 	0.13050 0.54960 0.00120 -0.70400
C 	C 	0.36950 0.99880 0.45040 0.50400
C 	C 	0.81870 0.54960 0.00120 -0.65100
C 	C 	0.68130 0.99880 0.45040 0.50200
C 	C 	0.86950 0.45040 0.99880 0.60400
C 	C 	0.63050 0.00120 0.54960 -0.57800
C 	C 	0.10620 0.29040 0.99720 0.23600
C 	C 	0.05160 0.39970 0.99710 -0.42100
C 	C 	0.39380 0.00280 0.70960 0.00200
C 	C 	0.44840 0.00290 0.60030 0.33600
C 	C 	0.89380 0.70960 0.00280 0.01300
C 	C 	0.94840 0.60030 0.00290 0.43400
C 	C 	0.60620 0.99720 0.29040 0.24600
C 	C 	0.55160 0.99710 0.39970 -0.32900
N 	N 	0.26573 0.14597 0.99597 -0.13500
N 	N 	0.27805 0.23665 0.99805 -0.09800
N 	N 	0.23427 0.00403 0.85403 -0.14500
N 	N 	0.22195 0.00195 0.76335 -0.08300
N 	N 	0.90767 0.85403 0.00403 -0.11500
N 	N 	0.01275 0.76335 0.00195 -0.10900
N 	N 	0.59233 0.99597 0.14597 -0.13200
N 	N 	0.48725 0.99805 0.23665 -0.09900
N 	N 	0.73427 0.85403 0.00403 -0.13600
N 	N 	0.72195 0.76335 0.00195 -0.07500
N 	N 	0.76573 0.99597 0.14597 -0.12400
N 	N 	0.77805 0.99805 0.23665 -0.09100
N 	N 	0.09233 0.14597 0.99597 -0.15300
N 	N 	0.98725 0.23665 0.99805 -0.06800
N 	N 	0.40767 0.00403 0.85403 -0.13900
N 	N 	0.51275 0.00195 0.76335 -0.07300
Cl	Cl	0.25000 0.87655 0.12345 -0.57200
Cl	Cl	0.75000 0.12345 0.87655 -0.54100
