data_crystal

_cell_length_a 42.67200
_cell_length_b 42.67200
_cell_length_c 42.67200
_cell_angle_alpha 90.00000
_cell_angle_beta  90.00000
_cell_angle_gamma 90.00000

_symmetry_space_group_name_	'P 1'
_symmetry_space_group_name_H-M	'P 1'

loop_
_symmetry_equiv_pos_as_xyz
  x,y,z

loop_
_atom_site_label
_atom_site_type_symbol
_atom_site_fract_x
_atom_site_fract_y
_atom_site_fract_z
_atom_site_charge
N 	N 	0.06264 0.38049 0.99269 -0.32400
N 	N 	0.97371 0.45663 0.00135 -0.15100
C 	C 	0.03571 0.38128 0.00897 0.04700
C 	C 	0.01377 0.40458 0.00567 -0.15000
C 	C 	0.01982 0.42839 0.98453 0.04600
C 	C 	0.04755 0.42793 0.96757 -0.13900
C 	C 	0.06847 0.40370 0.97259 0.05100
C 	C 	0.99695 0.45415 0.98060 0.10300
H 	H 	0.03165 0.36490 0.02349 -0.08100
H 	H 	0.99495 0.40435 0.01757 0.06200
H 	H 	0.05208 0.44395 0.95279 0.06100
H 	H 	0.08767 0.40359 0.96133 -0.07700
N 	N 	0.68736 0.86951 0.49269 -0.32600
N 	N 	0.77629 0.79337 0.50135 -0.14700
C 	C 	0.71429 0.86872 0.50897 0.04600
C 	C 	0.73623 0.84542 0.50567 -0.13800
C 	C 	0.73018 0.82161 0.48453 0.04400
C 	C 	0.70245 0.82207 0.46757 -0.13800
C 	C 	0.68153 0.84630 0.47259 0.05000
C 	C 	0.75305 0.79585 0.48060 0.09400
H 	H 	0.71835 0.88510 0.52349 -0.07900
H 	H 	0.75505 0.84565 0.51757 0.05600
H 	H 	0.69792 0.80605 0.45279 0.06100
H 	H 	0.66233 0.84641 0.46133 -0.07700
N 	N 	0.18736 0.88049 0.75731 -0.32600
N 	N 	0.27629 0.95663 0.74865 -0.14700
C 	C 	0.21429 0.88128 0.74103 0.04600
C 	C 	0.23623 0.90458 0.74433 -0.13800
C 	C 	0.23018 0.92839 0.76547 0.04400
C 	C 	0.20245 0.92793 0.78243 -0.13800
C 	C 	0.18153 0.90370 0.77741 0.05000
C 	C 	0.25305 0.95415 0.76940 0.09500
H 	H 	0.21835 0.86490 0.72651 -0.07900
H 	H 	0.25505 0.90435 0.73243 0.05600
H 	H 	0.19792 0.94395 0.79721 0.06200
H 	H 	0.16233 0.90359 0.78867 -0.07700
N 	N 	0.56264 0.36951 0.25731 -0.32600
N 	N 	0.47371 0.29337 0.24865 -0.14700
C 	C 	0.53571 0.36872 0.24103 0.04600
C 	C 	0.51377 0.34542 0.24433 -0.13800
C 	C 	0.51982 0.32161 0.26547 0.04400
C 	C 	0.54755 0.32207 0.28243 -0.13800
C 	C 	0.56847 0.34630 0.27741 0.05000
C 	C 	0.49695 0.29585 0.26940 0.09400
H 	H 	0.53165 0.38510 0.22651 -0.07900
H 	H 	0.49495 0.34565 0.23243 0.05600
H 	H 	0.55208 0.30605 0.29721 0.06100
H 	H 	0.58767 0.34641 0.28867 -0.07700
N 	N 	0.99269 0.56264 0.88049 -0.32400
N 	N 	0.00135 0.47371 0.95663 -0.15100
C 	C 	0.00897 0.53571 0.88128 0.04400
C 	C 	0.00567 0.51377 0.90458 -0.14300
C 	C 	0.98453 0.51982 0.92839 0.04800
C 	C 	0.96757 0.54755 0.92793 -0.13900
C 	C 	0.97259 0.56847 0.90370 0.05100
C 	C 	0.98060 0.49695 0.95415 0.09800
H 	H 	0.02349 0.53165 0.86490 -0.07900
H 	H 	0.01757 0.49495 0.90435 0.05700
H 	H 	0.95279 0.55208 0.94395 0.06200
H 	H 	0.96133 0.58767 0.90359 -0.07700
N 	N 	0.49269 0.18736 0.36951 -0.32600
N 	N 	0.50135 0.27629 0.29337 -0.14700
C 	C 	0.50897 0.21429 0.36872 0.04600
C 	C 	0.50567 0.23623 0.34542 -0.13800
C 	C 	0.48453 0.23018 0.32161 0.04400
C 	C 	0.46757 0.20245 0.32207 -0.13800
C 	C 	0.47259 0.18153 0.34630 0.05000
C 	C 	0.48060 0.25305 0.29585 0.09400
H 	H 	0.52349 0.21835 0.38510 -0.07900
H 	H 	0.51757 0.25505 0.34565 0.05600
H 	H 	0.45279 0.19792 0.30605 0.06100
H 	H 	0.46133 0.16233 0.34641 -0.07700
N 	N 	0.75731 0.68736 0.38049 -0.32600
N 	N 	0.74865 0.77629 0.45663 -0.14700
C 	C 	0.74103 0.71429 0.38128 0.04600
C 	C 	0.74433 0.73623 0.40458 -0.13800
C 	C 	0.76547 0.73018 0.42839 0.04400
C 	C 	0.78243 0.70245 0.42793 -0.13800
C 	C 	0.77741 0.68153 0.40370 0.05000
C 	C 	0.76940 0.75305 0.45415 0.09400
H 	H 	0.72651 0.71835 0.36490 -0.07900
H 	H 	0.73243 0.75505 0.40435 0.05600
H 	H 	0.79721 0.69792 0.44395 0.06100
H 	H 	0.78867 0.66233 0.40359 -0.07700
N 	N 	0.25731 0.06264 0.86951 -0.32700
N 	N 	0.24865 0.97371 0.79337 -0.14700
C 	C 	0.24103 0.03571 0.86872 0.04900
C 	C 	0.24433 0.01377 0.84542 -0.14500
C 	C 	0.26547 0.01982 0.82161 0.04100
C 	C 	0.28243 0.04755 0.82207 -0.13700
C 	C 	0.27741 0.06847 0.84630 0.04900
C 	C 	0.26940 0.99695 0.79585 0.10100
H 	H 	0.22651 0.03165 0.88510 -0.08100
H 	H 	0.23243 0.99495 0.84565 0.06100
H 	H 	0.29721 0.05208 0.80605 0.06100
H 	H 	0.28867 0.08767 0.84641 -0.07700
N 	N 	0.88049 0.49269 0.06264 -0.32700
N 	N 	0.95663 0.50135 0.97371 -0.14700
C 	C 	0.88128 0.50897 0.03571 0.04900
C 	C 	0.90458 0.50567 0.01377 -0.14500
C 	C 	0.92839 0.48453 0.01982 0.04100
C 	C 	0.92793 0.46757 0.04755 -0.13700
C 	C 	0.90370 0.47259 0.06847 0.04900
C 	C 	0.95415 0.48060 0.99695 0.10200
H 	H 	0.86490 0.52349 0.03165 -0.08100
H 	H 	0.90435 0.51757 0.99495 0.06100
H 	H 	0.94395 0.45279 0.05208 0.06100
H 	H 	0.90359 0.46133 0.08767 -0.07700
N 	N 	0.36951 0.99269 0.68736 -0.32400
N 	N 	0.29337 0.00135 0.77629 -0.15100
C 	C 	0.36872 0.00897 0.71429 0.04400
C 	C 	0.34542 0.00567 0.73623 -0.14300
C 	C 	0.32161 0.98453 0.73018 0.04800
C 	C 	0.32207 0.96757 0.70245 -0.13900
C 	C 	0.34630 0.97259 0.68153 0.05100
C 	C 	0.29585 0.98060 0.75305 0.09700
H 	H 	0.38510 0.02349 0.71835 -0.07900
H 	H 	0.34565 0.01757 0.75505 0.05700
H 	H 	0.30605 0.95279 0.69792 0.06200
H 	H 	0.34641 0.96133 0.66233 -0.07700
N 	N 	0.38049 0.25731 0.18736 -0.32600
N 	N 	0.45663 0.24865 0.27629 -0.14700
C 	C 	0.38128 0.24103 0.21429 0.04600
C 	C 	0.40458 0.24433 0.23623 -0.13800
C 	C 	0.42839 0.26547 0.23018 0.04400
C 	C 	0.42793 0.28243 0.20245 -0.13800
C 	C 	0.40370 0.27741 0.18153 0.05000
C 	C 	0.45415 0.26940 0.25305 0.09400
H 	H 	0.36490 0.22651 0.21835 -0.07900
H 	H 	0.40435 0.23243 0.25505 0.05600
H 	H 	0.44395 0.29721 0.19792 0.06100
H 	H 	0.40359 0.28867 0.16233 -0.07700
N 	N 	0.86951 0.75731 0.56264 -0.32600
N 	N 	0.79337 0.74865 0.47371 -0.14700
C 	C 	0.86872 0.74103 0.53571 0.04600
C 	C 	0.84542 0.74433 0.51377 -0.13800
C 	C 	0.82161 0.76547 0.51982 0.04400
C 	C 	0.82207 0.78243 0.54755 -0.13800
C 	C 	0.84630 0.77741 0.56847 0.05000
C 	C 	0.79585 0.76940 0.49695 0.09400
H 	H 	0.88510 0.72651 0.53165 -0.07900
H 	H 	0.84565 0.73243 0.49495 0.05700
H 	H 	0.80605 0.79721 0.55208 0.06200
H 	H 	0.84641 0.78867 0.58767 -0.07600
N 	N 	0.13049 0.31264 0.00731 -0.32700
N 	N 	0.20663 0.22371 0.99865 -0.14100
C 	C 	0.13128 0.28571 0.99103 0.04900
C 	C 	0.15458 0.26377 0.99433 -0.13200
C 	C 	0.17839 0.26982 0.01547 0.04000
C 	C 	0.17793 0.29755 0.03243 -0.13600
C 	C 	0.15370 0.31847 0.02741 0.04900
C 	C 	0.20415 0.24695 0.01940 0.09300
H 	H 	0.11490 0.28165 0.97651 -0.07800
H 	H 	0.15435 0.24495 0.98243 0.05600
H 	H 	0.19395 0.30208 0.04721 0.06200
H 	H 	0.15359 0.33767 0.03867 -0.07600
N 	N 	0.61951 0.93736 0.50731 -0.32400
N 	N 	0.54337 0.02629 0.49865 -0.14500
C 	C 	0.61872 0.96429 0.49103 0.04400
C 	C 	0.59542 0.98623 0.49433 -0.13000
C 	C 	0.57161 0.98018 0.51547 0.04700
C 	C 	0.57207 0.95245 0.53243 -0.13800
C 	C 	0.59630 0.93153 0.52741 0.05100
C 	C 	0.54585 0.00305 0.51940 0.08900
H 	H 	0.63510 0.96835 0.47651 -0.07600
H 	H 	0.59565 0.00505 0.48243 0.05200
H 	H 	0.55605 0.94792 0.54721 0.06300
H 	H 	0.59641 0.91233 0.53867 -0.07600
N 	N 	0.63049 0.43736 0.24269 -0.32500
N 	N 	0.70663 0.52629 0.25135 -0.14600
C 	C 	0.63128 0.46429 0.25897 0.04700
C 	C 	0.65458 0.48623 0.25567 -0.13700
C 	C 	0.67839 0.48018 0.23453 0.04500
C 	C 	0.67793 0.45245 0.21757 -0.13700
C 	C 	0.65370 0.43153 0.22259 0.05100
C 	C 	0.70415 0.50305 0.23060 0.09500
H 	H 	0.61490 0.46835 0.27349 -0.07800
H 	H 	0.65435 0.50505 0.26757 0.05700
H 	H 	0.69395 0.44792 0.20279 0.06200
H 	H 	0.65359 0.41233 0.21133 -0.07600
N 	N 	0.11951 0.81264 0.74269 -0.32500
N 	N 	0.04337 0.72371 0.75135 -0.14500
C 	C 	0.11872 0.78571 0.75897 0.04700
C 	C 	0.09542 0.76377 0.75567 -0.13700
C 	C 	0.07161 0.76982 0.73453 0.04400
C 	C 	0.07207 0.79755 0.71757 -0.13700
C 	C 	0.09630 0.81847 0.72259 0.05000
C 	C 	0.04585 0.74695 0.73060 0.09400
H 	H 	0.13510 0.78165 0.77349 -0.07800
H 	H 	0.09565 0.74495 0.76757 0.05700
H 	H 	0.05605 0.80208 0.70279 0.06200
H 	H 	0.09641 0.83767 0.71133 -0.07600
N 	N 	0.31264 0.24269 0.11951 -0.32500
N 	N 	0.22371 0.25135 0.04337 -0.14500
C 	C 	0.28571 0.25897 0.11872 0.04700
C 	C 	0.26377 0.25567 0.09542 -0.13700
C 	C 	0.26982 0.23453 0.07161 0.04400
C 	C 	0.29755 0.21757 0.07207 -0.13700
C 	C 	0.31847 0.22259 0.09630 0.05000
C 	C 	0.24695 0.23060 0.04585 0.09400
H 	H 	0.28165 0.27349 0.13510 -0.07800
H 	H 	0.24495 0.26757 0.09565 0.05700
H 	H 	0.30208 0.20279 0.05605 0.06200
H 	H 	0.33767 0.21133 0.09641 -0.07700
N 	N 	0.93736 0.74269 0.63049 -0.32400
N 	N 	0.02629 0.75135 0.70663 -0.14500
C 	C 	0.96429 0.75897 0.63128 0.04400
C 	C 	0.98623 0.75567 0.65458 -0.13000
C 	C 	0.98018 0.73453 0.67839 0.04700
C 	C 	0.95245 0.71757 0.67793 -0.13800
C 	C 	0.93153 0.72259 0.65370 0.05100
C 	C 	0.00305 0.73060 0.70415 0.08900
H 	H 	0.96835 0.77349 0.61490 -0.07600
H 	H 	0.00505 0.76757 0.65435 0.05200
H 	H 	0.94792 0.70279 0.69395 0.06300
H 	H 	0.91233 0.71133 0.65359 -0.07600
N 	N 	0.43736 0.00731 0.61951 -0.32700
N 	N 	0.52629 0.99865 0.54337 -0.14100
C 	C 	0.46429 0.99103 0.61872 0.04900
C 	C 	0.48623 0.99433 0.59542 -0.13200
C 	C 	0.48018 0.01547 0.57161 0.04000
C 	C 	0.45245 0.03243 0.57207 -0.13600
C 	C 	0.43153 0.02741 0.59630 0.04900
C 	C 	0.50305 0.01940 0.54585 0.09300
H 	H 	0.46835 0.97651 0.63510 -0.07800
H 	H 	0.50505 0.98243 0.59565 0.05600
H 	H 	0.44792 0.04721 0.55605 0.06200
H 	H 	0.41233 0.03867 0.59641 -0.07600
N 	N 	0.81264 0.50731 0.13049 -0.32500
N 	N 	0.72371 0.49865 0.20663 -0.14600
C 	C 	0.78571 0.49103 0.13128 0.04700
C 	C 	0.76377 0.49433 0.15458 -0.13700
C 	C 	0.76982 0.51547 0.17839 0.04500
C 	C 	0.79755 0.53243 0.17793 -0.13700
C 	C 	0.81847 0.52741 0.15370 0.05100
C 	C 	0.74695 0.51940 0.20415 0.09500
H 	H 	0.78165 0.47651 0.11490 -0.07800
H 	H 	0.74495 0.48243 0.15435 0.05700
H 	H 	0.80208 0.54721 0.19395 0.06200
H 	H 	0.83767 0.53867 0.15359 -0.07600
N 	N 	0.24269 0.13049 0.93736 -0.32500
N 	N 	0.25135 0.20663 0.02629 -0.14500
C 	C 	0.25897 0.13128 0.96429 0.04400
C 	C 	0.25567 0.15458 0.98623 -0.13000
C 	C 	0.23453 0.17839 0.98018 0.04700
C 	C 	0.21757 0.17793 0.95245 -0.13800
C 	C 	0.22259 0.15370 0.93153 0.05100
C 	C 	0.23060 0.20415 0.00305 0.08900
H 	H 	0.27349 0.11490 0.96835 -0.07700
H 	H 	0.26757 0.15435 0.00505 0.05200
H 	H 	0.20279 0.19395 0.94792 0.06300
H 	H 	0.21133 0.15359 0.91233 -0.07600
N 	N 	0.74269 0.61951 0.31264 -0.32500
N 	N 	0.75135 0.54337 0.22371 -0.14600
C 	C 	0.75897 0.61872 0.28571 0.04700
C 	C 	0.75567 0.59542 0.26377 -0.13700
C 	C 	0.73453 0.57161 0.26982 0.04500
C 	C 	0.71757 0.57207 0.29755 -0.13700
C 	C 	0.72259 0.59630 0.31847 0.05100
C 	C 	0.73060 0.54585 0.24695 0.09500
H 	H 	0.77349 0.63510 0.28165 -0.07800
H 	H 	0.76757 0.59565 0.24495 0.05700
H 	H 	0.70279 0.55605 0.30208 0.06200
H 	H 	0.71133 0.59641 0.33767 -0.07600
N 	N 	0.00731 0.63049 0.81264 -0.32700
N 	N 	0.99865 0.70663 0.72371 -0.14100
C 	C 	0.99103 0.63128 0.78571 0.04900
C 	C 	0.99433 0.65458 0.76377 -0.13200
C 	C 	0.01547 0.67839 0.76982 0.04000
C 	C 	0.03243 0.67793 0.79755 -0.13600
C 	C 	0.02741 0.65370 0.81847 0.04900
C 	C 	0.01940 0.70415 0.74695 0.09300
H 	H 	0.97651 0.61490 0.78165 -0.07800
H 	H 	0.98243 0.65435 0.74495 0.05600
H 	H 	0.04721 0.69395 0.80208 0.06200
H 	H 	0.03867 0.65359 0.83767 -0.07600
N 	N 	0.50731 0.11951 0.43736 -0.32500
N 	N 	0.49865 0.04337 0.52629 -0.14500
C 	C 	0.49103 0.11872 0.46429 0.04700
C 	C 	0.49433 0.09542 0.48623 -0.13700
C 	C 	0.51547 0.07161 0.48018 0.04400
C 	C 	0.53243 0.07207 0.45245 -0.13700
C 	C 	0.52741 0.09630 0.43153 0.05000
C 	C 	0.51940 0.04585 0.50305 0.09400
H 	H 	0.47651 0.13510 0.46835 -0.07800
H 	H 	0.48243 0.09565 0.50505 0.05700
H 	H 	0.54721 0.05605 0.44792 0.06200
H 	H 	0.53867 0.09641 0.41233 -0.07600
Zn	Zn	0.09456 0.34456 -0.00000 1.08400
Zn	Zn	0.65544 0.90544 0.50000 1.08600
Zn	Zn	0.15544 0.84456 0.75000 1.08600
Zn	Zn	0.59456 0.40544 0.25000 1.08600
Zn	Zn	-0.00000 0.59456 0.84456 1.08400
Zn	Zn	0.50000 0.15544 0.40544 1.08500
Zn	Zn	0.75000 0.65544 0.34456 1.08600
Zn	Zn	0.25000 0.09456 0.90544 1.08600
Zn	Zn	0.84456 0.50000 0.09456 1.08500
Zn	Zn	0.40544 0.00000 0.65544 1.08400
Zn	Zn	0.34456 0.25000 0.15544 1.08500
Zn	Zn	0.90544 0.75000 0.59456 1.08600
N 	N 	0.06264 0.88049 0.49269 -0.32600
N 	N 	0.97371 0.95663 0.50135 -0.14600
C 	C 	0.03571 0.88128 0.50897 0.05000
C 	C 	0.01377 0.90458 0.50567 -0.14400
C 	C 	0.01982 0.92839 0.48453 0.04200
C 	C 	0.04755 0.92793 0.46757 -0.13600
C 	C 	0.06847 0.90370 0.47259 0.05000
C 	C 	0.99695 0.95415 0.48060 0.10300
H 	H 	0.03165 0.86490 0.52349 -0.08000
H 	H 	0.99495 0.90435 0.51757 0.06200
H 	H 	0.05208 0.94395 0.45279 0.06200
H 	H 	0.08767 0.90359 0.46133 -0.07600
N 	N 	0.68736 0.36951 0.99269 -0.32300
N 	N 	0.77629 0.29337 0.00135 -0.15000
C 	C 	0.71429 0.36872 0.00897 0.04500
C 	C 	0.73623 0.34542 0.00567 -0.14200
C 	C 	0.73018 0.32161 0.98453 0.04900
C 	C 	0.70245 0.32207 0.96757 -0.13800
C 	C 	0.68153 0.34630 0.97259 0.05200
C 	C 	0.75305 0.29585 0.98060 0.09800
H 	H 	0.71835 0.38510 0.02349 -0.07800
H 	H 	0.75505 0.34565 0.01757 0.05800
H 	H 	0.69792 0.30605 0.95279 0.06300
H 	H 	0.66233 0.34641 0.96133 -0.07600
N 	N 	0.18736 0.38049 0.25731 -0.32500
N 	N 	0.27629 0.45663 0.24865 -0.14600
C 	C 	0.21429 0.38128 0.24103 0.04700
C 	C 	0.23623 0.40458 0.24433 -0.13700
C 	C 	0.23018 0.42839 0.26547 0.04500
C 	C 	0.20245 0.42793 0.28243 -0.13700
C 	C 	0.18153 0.40370 0.27741 0.05100
C 	C 	0.25305 0.45415 0.26940 0.09500
H 	H 	0.21835 0.36490 0.22651 -0.07800
H 	H 	0.25505 0.40435 0.23243 0.05700
H 	H 	0.19792 0.44395 0.29721 0.06200
H 	H 	0.16233 0.40359 0.28867 -0.07600
N 	N 	0.56264 0.86951 0.75731 -0.32500
N 	N 	0.47371 0.79337 0.74865 -0.14600
C 	C 	0.53571 0.86872 0.74103 0.04700
C 	C 	0.51377 0.84542 0.74433 -0.13700
C 	C 	0.51982 0.82161 0.76547 0.04500
C 	C 	0.54755 0.82207 0.78243 -0.13700
C 	C 	0.56847 0.84630 0.77741 0.05100
C 	C 	0.49695 0.79585 0.76940 0.09500
H 	H 	0.53165 0.88510 0.72651 -0.07800
H 	H 	0.49495 0.84565 0.73243 0.05700
H 	H 	0.55208 0.80605 0.79721 0.06200
H 	H 	0.58767 0.84641 0.78867 -0.07600
N 	N 	0.99269 0.06264 0.38049 -0.32300
N 	N 	0.00135 0.97371 0.45663 -0.15000
C 	C 	0.00897 0.03571 0.38128 0.04800
C 	C 	0.00567 0.01377 0.40458 -0.14900
C 	C 	0.98453 0.01982 0.42839 0.04700
C 	C 	0.96757 0.04755 0.42793 -0.13800
C 	C 	0.97259 0.06847 0.40370 0.05200
C 	C 	0.98060 0.99695 0.45415 0.10400
H 	H 	0.02349 0.03165 0.36490 -0.08000
H 	H 	0.01757 0.99495 0.40435 0.06300
H 	H 	0.95279 0.05208 0.44395 0.06200
H 	H 	0.96133 0.08767 0.40359 -0.07600
N 	N 	0.49269 0.68736 0.86951 -0.32500
N 	N 	0.50135 0.77629 0.79337 -0.14600
C 	C 	0.50897 0.71429 0.86872 0.04700
C 	C 	0.50567 0.73623 0.84542 -0.13700
C 	C 	0.48453 0.73018 0.82161 0.04500
C 	C 	0.46757 0.70245 0.82207 -0.13700
C 	C 	0.47259 0.68153 0.84630 0.05100
C 	C 	0.48060 0.75305 0.79585 0.09500
H 	H 	0.52349 0.71835 0.88510 -0.07800
H 	H 	0.51757 0.75505 0.84565 0.05700
H 	H 	0.45279 0.69792 0.80605 0.06200
H 	H 	0.46133 0.66233 0.84641 -0.07600
N 	N 	0.75731 0.18736 0.88049 -0.32500
N 	N 	0.74865 0.27629 0.95663 -0.14600
C 	C 	0.74103 0.21429 0.88128 0.04700
C 	C 	0.74433 0.23623 0.90458 -0.13700
C 	C 	0.76547 0.23018 0.92839 0.04500
C 	C 	0.78243 0.20245 0.92793 -0.13700
C 	C 	0.77741 0.18153 0.90370 0.05100
C 	C 	0.76940 0.25305 0.95415 0.09600
H 	H 	0.72651 0.21835 0.86490 -0.07800
H 	H 	0.73243 0.25505 0.90435 0.05700
H 	H 	0.79721 0.19792 0.94395 0.06300
H 	H 	0.78867 0.16233 0.90359 -0.07600
N 	N 	0.25731 0.56264 0.36951 -0.32500
N 	N 	0.24865 0.47371 0.29337 -0.14600
C 	C 	0.24103 0.53571 0.36872 0.04700
C 	C 	0.24433 0.51377 0.34542 -0.13700
C 	C 	0.26547 0.51982 0.32161 0.04500
C 	C 	0.28243 0.54755 0.32207 -0.13700
C 	C 	0.27741 0.56847 0.34630 0.05100
C 	C 	0.26940 0.49695 0.29585 0.09500
H 	H 	0.22651 0.53165 0.38510 -0.07800
H 	H 	0.23243 0.49495 0.34565 0.05700
H 	H 	0.29721 0.55208 0.30605 0.06200
H 	H 	0.28867 0.58767 0.34641 -0.07600
N 	N 	0.88049 0.99269 0.56264 -0.32300
N 	N 	0.95663 0.00135 0.47371 -0.15000
C 	C 	0.88128 0.00897 0.53571 0.04500
C 	C 	0.90458 0.00567 0.51377 -0.14200
C 	C 	0.92839 0.98453 0.51982 0.04900
C 	C 	0.92793 0.96757 0.54755 -0.13800
C 	C 	0.90370 0.97259 0.56847 0.05200
C 	C 	0.95415 0.98060 0.49695 0.09900
H 	H 	0.86490 0.02349 0.53165 -0.07800
H 	H 	0.90435 0.01757 0.49495 0.05800
H 	H 	0.94395 0.95279 0.55208 0.06300
H 	H 	0.90359 0.96133 0.58767 -0.07600
N 	N 	0.36951 0.49269 0.18736 -0.32500
N 	N 	0.29337 0.50135 0.27629 -0.14600
C 	C 	0.36872 0.50897 0.21429 0.04700
C 	C 	0.34542 0.50567 0.23623 -0.13700
C 	C 	0.32161 0.48453 0.23018 0.04500
C 	C 	0.32207 0.46757 0.20245 -0.13700
C 	C 	0.34630 0.47259 0.18153 0.05100
C 	C 	0.29585 0.48060 0.25305 0.09500
H 	H 	0.38510 0.52349 0.21835 -0.07800
H 	H 	0.34565 0.51757 0.25505 0.05700
H 	H 	0.30605 0.45279 0.19792 0.06200
H 	H 	0.34641 0.46133 0.16233 -0.07600
N 	N 	0.38049 0.75731 0.68736 -0.32500
N 	N 	0.45663 0.74865 0.77629 -0.14600
C 	C 	0.38128 0.74103 0.71429 0.04700
C 	C 	0.40458 0.74433 0.73623 -0.13700
C 	C 	0.42839 0.76547 0.73018 0.04500
C 	C 	0.42793 0.78243 0.70245 -0.13700
C 	C 	0.40370 0.77741 0.68153 0.05100
C 	C 	0.45415 0.76940 0.75305 0.09500
H 	H 	0.36490 0.72651 0.71835 -0.07800
H 	H 	0.40435 0.73243 0.75505 0.05700
H 	H 	0.44395 0.79721 0.69792 0.06200
H 	H 	0.40359 0.78867 0.66233 -0.07600
N 	N 	0.86951 0.25731 0.06264 -0.32600
N 	N 	0.79337 0.24865 0.97371 -0.14600
C 	C 	0.86872 0.24103 0.03571 0.05000
C 	C 	0.84542 0.24433 0.01377 -0.14400
C 	C 	0.82161 0.26547 0.01982 0.04200
C 	C 	0.82207 0.28243 0.04755 -0.13600
C 	C 	0.84630 0.27741 0.06847 0.05000
C 	C 	0.79585 0.26940 0.99695 0.10200
H 	H 	0.88510 0.22651 0.03165 -0.08000
H 	H 	0.84565 0.23243 0.99495 0.06200
H 	H 	0.80605 0.29721 0.05208 0.06200
H 	H 	0.84641 0.28867 0.08767 -0.07600
N 	N 	0.13049 0.81264 0.50731 -0.32500
N 	N 	0.20663 0.72371 0.49865 -0.14600
C 	C 	0.13128 0.78571 0.49103 0.04700
C 	C 	0.15458 0.76377 0.49433 -0.13700
C 	C 	0.17839 0.76982 0.51547 0.04500
C 	C 	0.17793 0.79755 0.53243 -0.13700
C 	C 	0.15370 0.81847 0.52741 0.05100
C 	C 	0.20415 0.74695 0.51940 0.09500
H 	H 	0.11490 0.78165 0.47651 -0.07800
H 	H 	0.15435 0.74495 0.48243 0.05700
H 	H 	0.19395 0.80208 0.54721 0.06200
H 	H 	0.15359 0.83767 0.53867 -0.07600
N 	N 	0.61951 0.43736 0.00731 -0.32700
N 	N 	0.54337 0.52629 0.99865 -0.14100
C 	C 	0.61872 0.46429 0.99103 0.04900
C 	C 	0.59542 0.48623 0.99433 -0.13200
C 	C 	0.57161 0.48018 0.01547 0.04000
C 	C 	0.57207 0.45245 0.03243 -0.13600
C 	C 	0.59630 0.43153 0.02741 0.04900
C 	C 	0.54585 0.50305 0.01940 0.09300
H 	H 	0.63510 0.46835 0.97651 -0.07800
H 	H 	0.59565 0.50505 0.98243 0.05600
H 	H 	0.55605 0.44792 0.04721 0.06200
H 	H 	0.59641 0.41233 0.03867 -0.07600
N 	N 	0.63049 0.93736 0.74269 -0.32400
N 	N 	0.70663 0.02629 0.75135 -0.14500
C 	C 	0.63128 0.96429 0.75897 0.04400
C 	C 	0.65458 0.98623 0.75567 -0.13000
C 	C 	0.67839 0.98018 0.73453 0.04700
C 	C 	0.67793 0.95245 0.71757 -0.13800
C 	C 	0.65370 0.93153 0.72259 0.05100
C 	C 	0.70415 0.00305 0.73060 0.08900
H 	H 	0.61490 0.96835 0.77349 -0.07600
H 	H 	0.65435 0.00505 0.76757 0.05200
H 	H 	0.69395 0.94792 0.70279 0.06300
H 	H 	0.65359 0.91233 0.71133 -0.07600
N 	N 	0.11951 0.31264 0.24269 -0.32500
N 	N 	0.04337 0.22371 0.25135 -0.14500
C 	C 	0.11872 0.28571 0.25897 0.04700
C 	C 	0.09542 0.26377 0.25567 -0.13700
C 	C 	0.07161 0.26982 0.23453 0.04400
C 	C 	0.07207 0.29755 0.21757 -0.13700
C 	C 	0.09630 0.31847 0.22259 0.05000
C 	C 	0.04585 0.24695 0.23060 0.09400
H 	H 	0.13510 0.28165 0.27349 -0.07800
H 	H 	0.09565 0.24495 0.26757 0.05700
H 	H 	0.05605 0.30208 0.20279 0.06200
H 	H 	0.09641 0.33767 0.21133 -0.07700
N 	N 	0.31264 0.74269 0.61951 -0.32500
N 	N 	0.22371 0.75135 0.54337 -0.14600
C 	C 	0.28571 0.75897 0.61872 0.04700
C 	C 	0.26377 0.75567 0.59542 -0.13700
C 	C 	0.26982 0.73453 0.57161 0.04500
C 	C 	0.29755 0.71757 0.57207 -0.13700
C 	C 	0.31847 0.72259 0.59630 0.05100
C 	C 	0.24695 0.73060 0.54585 0.09500
H 	H 	0.28165 0.77349 0.63510 -0.07800
H 	H 	0.24495 0.76757 0.59565 0.05700
H 	H 	0.30208 0.70279 0.55605 0.06200
H 	H 	0.33767 0.71133 0.59641 -0.07600
N 	N 	0.93736 0.24269 0.13049 -0.32500
N 	N 	0.02629 0.25135 0.20663 -0.14500
C 	C 	0.96429 0.25897 0.13128 0.04400
C 	C 	0.98623 0.25567 0.15458 -0.13000
C 	C 	0.98018 0.23453 0.17839 0.04700
C 	C 	0.95245 0.21757 0.17793 -0.13800
C 	C 	0.93153 0.22259 0.15370 0.05100
C 	C 	0.00305 0.23060 0.20415 0.08900
H 	H 	0.96835 0.27349 0.11490 -0.07700
H 	H 	0.00505 0.26757 0.15435 0.05200
H 	H 	0.94792 0.20279 0.19395 0.06300
H 	H 	0.91233 0.21133 0.15359 -0.07600
N 	N 	0.43736 0.50731 0.11951 -0.32500
N 	N 	0.52629 0.49865 0.04337 -0.14500
C 	C 	0.46429 0.49103 0.11872 0.04700
C 	C 	0.48623 0.49433 0.09542 -0.13700
C 	C 	0.48018 0.51547 0.07161 0.04400
C 	C 	0.45245 0.53243 0.07207 -0.13700
C 	C 	0.43153 0.52741 0.09630 0.05000
C 	C 	0.50305 0.51940 0.04585 0.09400
H 	H 	0.46835 0.47651 0.13510 -0.07800
H 	H 	0.50505 0.48243 0.09565 0.05700
H 	H 	0.44792 0.54721 0.05605 0.06200
H 	H 	0.41233 0.53867 0.09641 -0.07600
N 	N 	0.81264 0.00731 0.63049 -0.32700
N 	N 	0.72371 0.99865 0.70663 -0.14100
C 	C 	0.78571 0.99103 0.63128 0.04900
C 	C 	0.76377 0.99433 0.65458 -0.13200
C 	C 	0.76982 0.01547 0.67839 0.04000
C 	C 	0.79755 0.03243 0.67793 -0.13600
C 	C 	0.81847 0.02741 0.65370 0.04900
C 	C 	0.74695 0.01940 0.70415 0.09300
H 	H 	0.78165 0.97651 0.61490 -0.07800
H 	H 	0.74495 0.98243 0.65435 0.05600
H 	H 	0.80208 0.04721 0.69395 0.06200
H 	H 	0.83767 0.03867 0.65359 -0.07600
N 	N 	0.24269 0.63049 0.43736 -0.32500
N 	N 	0.25135 0.70663 0.52629 -0.14600
C 	C 	0.25897 0.63128 0.46429 0.04700
C 	C 	0.25567 0.65458 0.48623 -0.13700
C 	C 	0.23453 0.67839 0.48018 0.04500
C 	C 	0.21757 0.67793 0.45245 -0.13700
C 	C 	0.22259 0.65370 0.43153 0.05100
C 	C 	0.23060 0.70415 0.50305 0.09500
H 	H 	0.27349 0.61490 0.46835 -0.07800
H 	H 	0.26757 0.65435 0.50505 0.05700
H 	H 	0.20279 0.69395 0.44792 0.06200
H 	H 	0.21133 0.65359 0.41233 -0.07600
N 	N 	0.74269 0.11951 0.81264 -0.32500
N 	N 	0.75135 0.04337 0.72371 -0.14500
C 	C 	0.75897 0.11872 0.78571 0.04700
C 	C 	0.75567 0.09542 0.76377 -0.13700
C 	C 	0.73453 0.07161 0.76982 0.04400
C 	C 	0.71757 0.07207 0.79755 -0.13700
C 	C 	0.72259 0.09630 0.81847 0.05000
C 	C 	0.73060 0.04585 0.74695 0.09400
H 	H 	0.77349 0.13510 0.78165 -0.07800
H 	H 	0.76757 0.09565 0.74495 0.05700
H 	H 	0.70279 0.05605 0.80208 0.06200
H 	H 	0.71133 0.09641 0.83767 -0.07600
N 	N 	0.00731 0.13049 0.31264 -0.32700
N 	N 	0.99865 0.20663 0.22371 -0.14100
C 	C 	0.99103 0.13128 0.28571 0.04900
C 	C 	0.99433 0.15458 0.26377 -0.13200
C 	C 	0.01547 0.17839 0.26982 0.04000
C 	C 	0.03243 0.17793 0.29755 -0.13600
C 	C 	0.02741 0.15370 0.31847 0.04900
C 	C 	0.01940 0.20415 0.24695 0.09300
H 	H 	0.97651 0.11490 0.28165 -0.07800
H 	H 	0.98243 0.15435 0.24495 0.05600
H 	H 	0.04721 0.19395 0.30208 0.06200
H 	H 	0.03867 0.15359 0.33767 -0.07600
N 	N 	0.50731 0.61951 0.93736 -0.32400
N 	N 	0.49865 0.54337 0.02629 -0.14500
C 	C 	0.49103 0.61872 0.96429 0.04400
C 	C 	0.49433 0.59542 0.98623 -0.13000
C 	C 	0.51547 0.57161 0.98018 0.04700
C 	C 	0.53243 0.57207 0.95245 -0.13800
C 	C 	0.52741 0.59630 0.93153 0.05100
C 	C 	0.51940 0.54585 0.00305 0.08900
H 	H 	0.47651 0.63510 0.96835 -0.07600
H 	H 	0.48243 0.59565 0.00505 0.05200
H 	H 	0.54721 0.55605 0.94792 0.06300
H 	H 	0.53867 0.59641 0.91233 -0.07600
Zn	Zn	0.09456 0.84456 0.50000 1.08500
Zn	Zn	0.65544 0.40544 -0.00000 1.08400
Zn	Zn	0.15544 0.34456 0.25000 1.08500
Zn	Zn	0.59456 0.90544 0.75000 1.08600
Zn	Zn	-0.00000 0.09456 0.34456 1.08400
Zn	Zn	0.50000 0.65544 0.90544 1.08600
Zn	Zn	0.75000 0.15544 0.84456 1.08600
Zn	Zn	0.25000 0.59456 0.40544 1.08600
Zn	Zn	0.84456 -0.00000 0.59456 1.08400
Zn	Zn	0.40544 0.50000 0.15544 1.08500
Zn	Zn	0.34456 0.75000 0.65544 1.08600
Zn	Zn	0.90544 0.25000 0.09456 1.08600
N 	N 	0.56264 0.38049 0.49269 -0.32500
N 	N 	0.47371 0.45663 0.50135 -0.14600
C 	C 	0.53571 0.38128 0.50897 0.04700
C 	C 	0.51377 0.40458 0.50567 -0.13700
C 	C 	0.51982 0.42839 0.48453 0.04500
C 	C 	0.54755 0.42793 0.46757 -0.13700
C 	C 	0.56847 0.40370 0.47259 0.05100
C 	C 	0.49695 0.45415 0.48060 0.09500
H 	H 	0.53165 0.36490 0.52349 -0.07800
H 	H 	0.49495 0.40435 0.51757 0.05700
H 	H 	0.55208 0.44395 0.45279 0.06200
H 	H 	0.58767 0.40359 0.46133 -0.07600
N 	N 	0.18736 0.86951 0.99269 -0.32300
N 	N 	0.27629 0.79337 0.00135 -0.15000
C 	C 	0.21429 0.86872 0.00897 0.04500
C 	C 	0.23623 0.84542 0.00567 -0.14200
C 	C 	0.23018 0.82161 0.98453 0.04900
C 	C 	0.20245 0.82207 0.96757 -0.13800
C 	C 	0.18153 0.84630 0.97259 0.05200
C 	C 	0.25305 0.79585 0.98060 0.09800
H 	H 	0.21835 0.88510 0.02349 -0.07800
H 	H 	0.25505 0.84565 0.01757 0.05800
H 	H 	0.19792 0.80605 0.95279 0.06300
H 	H 	0.16233 0.84641 0.96133 -0.07600
N 	N 	0.68736 0.88049 0.25731 -0.32500
N 	N 	0.77629 0.95663 0.24865 -0.14600
C 	C 	0.71429 0.88128 0.24103 0.04700
C 	C 	0.73623 0.90458 0.24433 -0.13700
C 	C 	0.73018 0.92839 0.26547 0.04500
C 	C 	0.70245 0.92793 0.28243 -0.13700
C 	C 	0.68153 0.90370 0.27741 0.05100
C 	C 	0.75305 0.95415 0.26940 0.09600
H 	H 	0.71835 0.86490 0.22651 -0.07800
H 	H 	0.75505 0.90435 0.23243 0.05700
H 	H 	0.69792 0.94395 0.29721 0.06300
H 	H 	0.66233 0.90359 0.28867 -0.07600
N 	N 	0.06264 0.36951 0.75731 -0.32600
N 	N 	0.97371 0.29337 0.74865 -0.14600
C 	C 	0.03571 0.36872 0.74103 0.05000
C 	C 	0.01377 0.34542 0.74433 -0.14400
C 	C 	0.01982 0.32161 0.76547 0.04200
C 	C 	0.04755 0.32207 0.78243 -0.13600
C 	C 	0.06847 0.34630 0.77741 0.05000
C 	C 	0.99695 0.29585 0.76940 0.10200
H 	H 	0.03165 0.38510 0.72651 -0.08000
H 	H 	0.99495 0.34565 0.73243 0.06200
H 	H 	0.05208 0.30605 0.79721 0.06200
H 	H 	0.08767 0.34641 0.78867 -0.07600
N 	N 	0.49269 0.56264 0.38049 -0.32500
N 	N 	0.50135 0.47371 0.45663 -0.14600
C 	C 	0.50897 0.53571 0.38128 0.04700
C 	C 	0.50567 0.51377 0.40458 -0.13700
C 	C 	0.48453 0.51982 0.42839 0.04500
C 	C 	0.46757 0.54755 0.42793 -0.13700
C 	C 	0.47259 0.56847 0.40370 0.05100
C 	C 	0.48060 0.49695 0.45415 0.09500
H 	H 	0.52349 0.53165 0.36490 -0.07800
H 	H 	0.51757 0.49495 0.40435 0.05700
H 	H 	0.45279 0.55208 0.44395 0.06200
H 	H 	0.46133 0.58767 0.40359 -0.07600
N 	N 	0.99269 0.18736 0.86951 -0.32300
N 	N 	0.00135 0.27629 0.79337 -0.15000
C 	C 	0.00897 0.21429 0.86872 0.04500
C 	C 	0.00567 0.23623 0.84542 -0.14200
C 	C 	0.98453 0.23018 0.82161 0.04900
C 	C 	0.96757 0.20245 0.82207 -0.13800
C 	C 	0.97259 0.18153 0.84630 0.05200
C 	C 	0.98060 0.25305 0.79585 0.09800
H 	H 	0.02349 0.21835 0.88510 -0.07800
H 	H 	0.01757 0.25505 0.84565 0.05800
H 	H 	0.95279 0.19792 0.80605 0.06300
H 	H 	0.96133 0.16233 0.84641 -0.07600
N 	N 	0.25731 0.68736 0.88049 -0.32500
N 	N 	0.24865 0.77629 0.95663 -0.14600
C 	C 	0.24103 0.71429 0.88128 0.04700
C 	C 	0.24433 0.73623 0.90458 -0.13700
C 	C 	0.26547 0.73018 0.92839 0.04500
C 	C 	0.28243 0.70245 0.92793 -0.13700
C 	C 	0.27741 0.68153 0.90370 0.05100
C 	C 	0.26940 0.75305 0.95415 0.09600
H 	H 	0.22651 0.71835 0.86490 -0.07800
H 	H 	0.23243 0.75505 0.90435 0.05700
H 	H 	0.29721 0.69792 0.94395 0.06300
H 	H 	0.28867 0.66233 0.90359 -0.07600
N 	N 	0.75731 0.06264 0.36951 -0.32600
N 	N 	0.74865 0.97371 0.29337 -0.14600
C 	C 	0.74103 0.03571 0.36872 0.05000
C 	C 	0.74433 0.01377 0.34542 -0.14400
C 	C 	0.76547 0.01982 0.32161 0.04200
C 	C 	0.78243 0.04755 0.32207 -0.13600
C 	C 	0.77741 0.06847 0.34630 0.05000
C 	C 	0.76940 0.99695 0.29585 0.10200
H 	H 	0.72651 0.03165 0.38510 -0.08000
H 	H 	0.73243 0.99495 0.34565 0.06200
H 	H 	0.79721 0.05208 0.30605 0.06200
H 	H 	0.78867 0.08767 0.34641 -0.07600
N 	N 	0.38049 0.49269 0.56264 -0.32500
N 	N 	0.45663 0.50135 0.47371 -0.14600
C 	C 	0.38128 0.50897 0.53571 0.04700
C 	C 	0.40458 0.50567 0.51377 -0.13700
C 	C 	0.42839 0.48453 0.51982 0.04500
C 	C 	0.42793 0.46757 0.54755 -0.13700
C 	C 	0.40370 0.47259 0.56847 0.05100
C 	C 	0.45415 0.48060 0.49695 0.09500
H 	H 	0.36490 0.52349 0.53165 -0.07800
H 	H 	0.40435 0.51757 0.49495 0.05700
H 	H 	0.44395 0.45279 0.55208 0.06200
H 	H 	0.40359 0.46133 0.58767 -0.07600
N 	N 	0.86951 0.99269 0.18736 -0.32300
N 	N 	0.79337 0.00135 0.27629 -0.15000
C 	C 	0.86872 0.00897 0.21429 0.04500
C 	C 	0.84542 0.00567 0.23623 -0.14200
C 	C 	0.82161 0.98453 0.23018 0.04900
C 	C 	0.82207 0.96757 0.20245 -0.13800
C 	C 	0.84630 0.97259 0.18153 0.05200
C 	C 	0.79585 0.98060 0.25305 0.09800
H 	H 	0.88510 0.02349 0.21835 -0.07800
H 	H 	0.84565 0.01757 0.25505 0.05800
H 	H 	0.80605 0.95279 0.19792 0.06300
H 	H 	0.84641 0.96133 0.16233 -0.07600
N 	N 	0.88049 0.25731 0.68736 -0.32500
N 	N 	0.95663 0.24865 0.77629 -0.14600
C 	C 	0.88128 0.24103 0.71429 0.04700
C 	C 	0.90458 0.24433 0.73623 -0.13700
C 	C 	0.92839 0.26547 0.73018 0.04500
C 	C 	0.92793 0.28243 0.70245 -0.13700
C 	C 	0.90370 0.27741 0.68153 0.05100
C 	C 	0.95415 0.26940 0.75305 0.09600
H 	H 	0.86490 0.22651 0.71835 -0.07800
H 	H 	0.90435 0.23243 0.75505 0.05700
H 	H 	0.94395 0.29721 0.69792 0.06300
H 	H 	0.90359 0.28867 0.66233 -0.07600
N 	N 	0.36951 0.75731 0.06264 -0.32600
N 	N 	0.29337 0.74865 0.97371 -0.14600
C 	C 	0.36872 0.74103 0.03571 0.05000
C 	C 	0.34542 0.74433 0.01377 -0.14400
C 	C 	0.32161 0.76547 0.01982 0.04200
C 	C 	0.32207 0.78243 0.04755 -0.13600
C 	C 	0.34630 0.77741 0.06847 0.05000
C 	C 	0.29585 0.76940 0.99695 0.10200
H 	H 	0.38510 0.72651 0.03165 -0.08000
H 	H 	0.34565 0.73243 0.99495 0.06200
H 	H 	0.30605 0.79721 0.05208 0.06200
H 	H 	0.34641 0.78867 0.08767 -0.07600
N 	N 	0.63049 0.31264 0.50731 -0.32500
N 	N 	0.70663 0.22371 0.49865 -0.14600
C 	C 	0.63128 0.28571 0.49103 0.04700
C 	C 	0.65458 0.26377 0.49433 -0.13700
C 	C 	0.67839 0.26982 0.51547 0.04500
C 	C 	0.67793 0.29755 0.53243 -0.13700
C 	C 	0.65370 0.31847 0.52741 0.05100
C 	C 	0.70415 0.24695 0.51940 0.09500
H 	H 	0.61490 0.28165 0.47651 -0.07800
H 	H 	0.65435 0.24495 0.48243 0.05700
H 	H 	0.69395 0.30208 0.54721 0.06200
H 	H 	0.65359 0.33767 0.53867 -0.07600
N 	N 	0.11951 0.93736 0.00731 -0.32700
N 	N 	0.04337 0.02629 0.99865 -0.14100
C 	C 	0.11872 0.96429 0.99103 0.04600
C 	C 	0.09542 0.98623 0.99433 -0.12500
C 	C 	0.07161 0.98018 0.01547 0.04200
C 	C 	0.07207 0.95245 0.03243 -0.13700
C 	C 	0.09630 0.93153 0.02741 0.04900
C 	C 	0.04585 0.00305 0.01940 0.08600
H 	H 	0.13510 0.96835 0.97651 -0.07600
H 	H 	0.09565 0.00505 0.98243 0.05100
H 	H 	0.05605 0.94792 0.04721 0.06200
H 	H 	0.09641 0.91233 0.03867 -0.07600
N 	N 	0.13049 0.43736 0.74269 -0.32500
N 	N 	0.20663 0.52629 0.75135 -0.14600
C 	C 	0.13128 0.46429 0.75897 0.04700
C 	C 	0.15458 0.48623 0.75567 -0.13700
C 	C 	0.17839 0.48018 0.73453 0.04500
C 	C 	0.17793 0.45245 0.71757 -0.13700
C 	C 	0.15370 0.43153 0.72259 0.05100
C 	C 	0.20415 0.50305 0.73060 0.09500
H 	H 	0.11490 0.46835 0.77349 -0.07800
H 	H 	0.15435 0.50505 0.76757 0.05700
H 	H 	0.19395 0.44792 0.70279 0.06200
H 	H 	0.15359 0.41233 0.71133 -0.07600
N 	N 	0.61951 0.81264 0.24269 -0.32500
N 	N 	0.54337 0.72371 0.25135 -0.14600
C 	C 	0.61872 0.78571 0.25897 0.04700
C 	C 	0.59542 0.76377 0.25567 -0.13700
C 	C 	0.57161 0.76982 0.23453 0.04500
C 	C 	0.57207 0.79755 0.21757 -0.13700
C 	C 	0.59630 0.81847 0.22259 0.05100
C 	C 	0.54585 0.74695 0.23060 0.09500
H 	H 	0.63510 0.78165 0.27349 -0.07800
H 	H 	0.59565 0.74495 0.26757 0.05700
H 	H 	0.55605 0.80208 0.20279 0.06200
H 	H 	0.59641 0.83767 0.21133 -0.07600
N 	N 	0.81264 0.24269 0.61951 -0.32500
N 	N 	0.72371 0.25135 0.54337 -0.14600
C 	C 	0.78571 0.25897 0.61872 0.04700
C 	C 	0.76377 0.25567 0.59542 -0.13700
C 	C 	0.76982 0.23453 0.57161 0.04500
C 	C 	0.79755 0.21757 0.57207 -0.13700
C 	C 	0.81847 0.22259 0.59630 0.05100
C 	C 	0.74695 0.23060 0.54585 0.09500
H 	H 	0.78165 0.27349 0.63510 -0.07800
H 	H 	0.74495 0.26757 0.59565 0.05700
H 	H 	0.80208 0.20279 0.55605 0.06200
H 	H 	0.83767 0.21133 0.59641 -0.07600
N 	N 	0.43736 0.74269 0.13049 -0.32500
N 	N 	0.52629 0.75135 0.20663 -0.14600
C 	C 	0.46429 0.75897 0.13128 0.04700
C 	C 	0.48623 0.75567 0.15458 -0.13700
C 	C 	0.48018 0.73453 0.17839 0.04500
C 	C 	0.45245 0.71757 0.17793 -0.13700
C 	C 	0.43153 0.72259 0.15370 0.05100
C 	C 	0.50305 0.73060 0.20415 0.09500
H 	H 	0.46835 0.77349 0.11490 -0.07800
H 	H 	0.50505 0.76757 0.15435 0.05700
H 	H 	0.44792 0.70279 0.19395 0.06200
H 	H 	0.41233 0.71133 0.15359 -0.07600
N 	N 	0.93736 0.00731 0.11951 -0.32700
N 	N 	0.02629 0.99865 0.04337 -0.14100
C 	C 	0.96429 0.99103 0.11872 0.04600
C 	C 	0.98623 0.99433 0.09542 -0.12500
C 	C 	0.98018 0.01547 0.07161 0.04200
C 	C 	0.95245 0.03243 0.07207 -0.13700
C 	C 	0.93153 0.02741 0.09630 0.04900
C 	C 	0.00305 0.01940 0.04585 0.08600
H 	H 	0.96835 0.97651 0.13510 -0.07600
H 	H 	0.00505 0.98243 0.09565 0.05100
H 	H 	0.94792 0.04721 0.05605 0.06200
H 	H 	0.91233 0.03867 0.09641 -0.07600
N 	N 	0.31264 0.50731 0.63049 -0.32500
N 	N 	0.22371 0.49865 0.70663 -0.14600
C 	C 	0.28571 0.49103 0.63128 0.04700
C 	C 	0.26377 0.49433 0.65458 -0.13700
C 	C 	0.26982 0.51547 0.67839 0.04500
C 	C 	0.29755 0.53243 0.67793 -0.13700
C 	C 	0.31847 0.52741 0.65370 0.05100
C 	C 	0.24695 0.51940 0.70415 0.09500
H 	H 	0.28165 0.47651 0.61490 -0.07800
H 	H 	0.24495 0.48243 0.65435 0.05700
H 	H 	0.30208 0.54721 0.69395 0.06200
H 	H 	0.33767 0.53867 0.65359 -0.07600
N 	N 	0.74269 0.13049 0.43736 -0.32500
N 	N 	0.75135 0.20663 0.52629 -0.14600
C 	C 	0.75897 0.13128 0.46429 0.04700
C 	C 	0.75567 0.15458 0.48623 -0.13700
C 	C 	0.73453 0.17839 0.48018 0.04500
C 	C 	0.71757 0.17793 0.45245 -0.13700
C 	C 	0.72259 0.15370 0.43153 0.05100
C 	C 	0.73060 0.20415 0.50305 0.09500
H 	H 	0.77349 0.11490 0.46835 -0.07800
H 	H 	0.76757 0.15435 0.50505 0.05700
H 	H 	0.70279 0.19395 0.44792 0.06200
H 	H 	0.71133 0.15359 0.41233 -0.07600
N 	N 	0.24269 0.61951 0.81264 -0.32500
N 	N 	0.25135 0.54337 0.72371 -0.14600
C 	C 	0.25897 0.61872 0.78571 0.04700
C 	C 	0.25567 0.59542 0.76377 -0.13700
C 	C 	0.23453 0.57161 0.76982 0.04500
C 	C 	0.21757 0.57207 0.79755 -0.13700
C 	C 	0.22259 0.59630 0.81847 0.05100
C 	C 	0.23060 0.54585 0.74695 0.09500
H 	H 	0.27349 0.63510 0.78165 -0.07800
H 	H 	0.26757 0.59565 0.74495 0.05700
H 	H 	0.20279 0.55605 0.80208 0.06200
H 	H 	0.21133 0.59641 0.83767 -0.07600
N 	N 	0.50731 0.63049 0.31264 -0.32500
N 	N 	0.49865 0.70663 0.22371 -0.14600
C 	C 	0.49103 0.63128 0.28571 0.04700
C 	C 	0.49433 0.65458 0.26377 -0.13700
C 	C 	0.51547 0.67839 0.26982 0.04500
C 	C 	0.53243 0.67793 0.29755 -0.13700
C 	C 	0.52741 0.65370 0.31847 0.05100
C 	C 	0.51940 0.70415 0.24695 0.09500
H 	H 	0.47651 0.61490 0.28165 -0.07800
H 	H 	0.48243 0.65435 0.24495 0.05700
H 	H 	0.54721 0.69395 0.30208 0.06200
H 	H 	0.53867 0.65359 0.33767 -0.07600
N 	N 	0.00731 0.11951 0.93736 -0.32700
N 	N 	0.99865 0.04337 0.02629 -0.14100
C 	C 	0.99103 0.11872 0.96429 0.04600
C 	C 	0.99433 0.09542 0.98623 -0.12500
C 	C 	0.01547 0.07161 0.98018 0.04200
C 	C 	0.03243 0.07207 0.95245 -0.13700
C 	C 	0.02741 0.09630 0.93153 0.04900
C 	C 	0.01940 0.04585 0.00305 0.08600
H 	H 	0.97651 0.13510 0.96835 -0.07600
H 	H 	0.98243 0.09565 0.00505 0.05100
H 	H 	0.04721 0.05605 0.94792 0.06200
H 	H 	0.03867 0.09641 0.91233 -0.07600
Zn	Zn	0.59456 0.34456 0.50000 1.08600
Zn	Zn	0.15544 0.90544 -0.00000 1.08500
Zn	Zn	0.65544 0.84456 0.25000 1.08600
Zn	Zn	0.09456 0.40544 0.75000 1.08500
Zn	Zn	0.50000 0.59456 0.34456 1.08600
Zn	Zn	0.00000 0.15544 0.90544 1.08500
Zn	Zn	0.25000 0.65544 0.84456 1.08600
Zn	Zn	0.75000 0.09456 0.40544 1.08500
Zn	Zn	0.34456 0.50000 0.59456 1.08600
Zn	Zn	0.90544 0.00000 0.15544 1.08500
Zn	Zn	0.84456 0.25000 0.65544 1.08600
Zn	Zn	0.40544 0.75000 0.09456 1.08500
N 	N 	0.56264 0.88049 0.99269 -0.32300
N 	N 	0.47371 0.95663 0.00135 -0.15000
C 	C 	0.53571 0.88128 0.00897 0.04500
C 	C 	0.51377 0.90458 0.00567 -0.14200
C 	C 	0.51982 0.92839 0.98453 0.04900
C 	C 	0.54755 0.92793 0.96757 -0.13800
C 	C 	0.56847 0.90370 0.97259 0.05200
C 	C 	0.49695 0.95415 0.98060 0.09900
H 	H 	0.53165 0.86490 0.02349 -0.07800
H 	H 	0.49495 0.90435 0.01757 0.05800
H 	H 	0.55208 0.94395 0.95279 0.06300
H 	H 	0.58767 0.90359 0.96133 -0.07600
N 	N 	0.18736 0.36951 0.49269 -0.32500
N 	N 	0.27629 0.29337 0.50135 -0.14600
C 	C 	0.21429 0.36872 0.50897 0.04700
C 	C 	0.23623 0.34542 0.50567 -0.13700
C 	C 	0.23018 0.32161 0.48453 0.04500
C 	C 	0.20245 0.32207 0.46757 -0.13700
C 	C 	0.18153 0.34630 0.47259 0.05100
C 	C 	0.25305 0.29585 0.48060 0.09500
H 	H 	0.21835 0.38510 0.52349 -0.07800
H 	H 	0.25505 0.34565 0.51757 0.05700
H 	H 	0.19792 0.30605 0.45279 0.06200
H 	H 	0.16233 0.34641 0.46133 -0.07600
N 	N 	0.68736 0.38049 0.75731 -0.32500
N 	N 	0.77629 0.45663 0.74865 -0.14600
C 	C 	0.71429 0.38128 0.74103 0.04700
C 	C 	0.73623 0.40458 0.74433 -0.13700
C 	C 	0.73018 0.42839 0.76547 0.04500
C 	C 	0.70245 0.42793 0.78243 -0.13700
C 	C 	0.68153 0.40370 0.77741 0.05100
C 	C 	0.75305 0.45415 0.76940 0.09500
H 	H 	0.71835 0.36490 0.72651 -0.07800
H 	H 	0.75505 0.40435 0.73243 0.05700
H 	H 	0.69792 0.44395 0.79721 0.06200
H 	H 	0.66233 0.40359 0.78867 -0.07600
N 	N 	0.06264 0.86951 0.25731 -0.32600
N 	N 	0.97371 0.79337 0.24865 -0.14600
C 	C 	0.03571 0.86872 0.24103 0.05000
C 	C 	0.01377 0.84542 0.24433 -0.14400
C 	C 	0.01982 0.82161 0.26547 0.04200
C 	C 	0.04755 0.82207 0.28243 -0.13600
C 	C 	0.06847 0.84630 0.27741 0.05000
C 	C 	0.99695 0.79585 0.26940 0.10200
H 	H 	0.03165 0.88510 0.22651 -0.08000
H 	H 	0.99495 0.84565 0.23243 0.06200
H 	H 	0.05208 0.80605 0.29721 0.06200
H 	H 	0.08767 0.84641 0.28867 -0.07600
N 	N 	0.49269 0.06264 0.88049 -0.32600
N 	N 	0.50135 0.97371 0.95663 -0.14600
C 	C 	0.50897 0.03571 0.88128 0.05000
C 	C 	0.50567 0.01377 0.90458 -0.14400
C 	C 	0.48453 0.01982 0.92839 0.04200
C 	C 	0.46757 0.04755 0.92793 -0.13600
C 	C 	0.47259 0.06847 0.90370 0.05000
C 	C 	0.48060 0.99695 0.95415 0.10300
H 	H 	0.52349 0.03165 0.86490 -0.08000
H 	H 	0.51757 0.99495 0.90435 0.06200
H 	H 	0.45279 0.05208 0.94395 0.06200
H 	H 	0.46133 0.08767 0.90359 -0.07600
N 	N 	0.99269 0.68736 0.36951 -0.32300
N 	N 	0.00135 0.77629 0.29337 -0.15000
C 	C 	0.00897 0.71429 0.36872 0.04500
C 	C 	0.00567 0.73623 0.34542 -0.14200
C 	C 	0.98453 0.73018 0.32161 0.04900
C 	C 	0.96757 0.70245 0.32207 -0.13800
C 	C 	0.97259 0.68153 0.34630 0.05200
C 	C 	0.98060 0.75305 0.29585 0.09800
H 	H 	0.02349 0.71835 0.38510 -0.07800
H 	H 	0.01757 0.75505 0.34565 0.05800
H 	H 	0.95279 0.69792 0.30605 0.06300
H 	H 	0.96133 0.66233 0.34641 -0.07600
N 	N 	0.25731 0.18736 0.38049 -0.32500
N 	N 	0.24865 0.27629 0.45663 -0.14600
C 	C 	0.24103 0.21429 0.38128 0.04700
C 	C 	0.24433 0.23623 0.40458 -0.13700
C 	C 	0.26547 0.23018 0.42839 0.04500
C 	C 	0.28243 0.20245 0.42793 -0.13700
C 	C 	0.27741 0.18153 0.40370 0.05100
C 	C 	0.26940 0.25305 0.45415 0.09500
H 	H 	0.22651 0.21835 0.36490 -0.07800
H 	H 	0.23243 0.25505 0.40435 0.05700
H 	H 	0.29721 0.19792 0.44395 0.06200
H 	H 	0.28867 0.16233 0.40359 -0.07600
N 	N 	0.75731 0.56264 0.86951 -0.32500
N 	N 	0.74865 0.47371 0.79337 -0.14600
C 	C 	0.74103 0.53571 0.86872 0.04700
C 	C 	0.74433 0.51377 0.84542 -0.13700
C 	C 	0.76547 0.51982 0.82161 0.04500
C 	C 	0.78243 0.54755 0.82207 -0.13700
C 	C 	0.77741 0.56847 0.84630 0.05100
C 	C 	0.76940 0.49695 0.79585 0.09500
H 	H 	0.72651 0.53165 0.88510 -0.07800
H 	H 	0.73243 0.49495 0.84565 0.05700
H 	H 	0.79721 0.55208 0.80605 0.06200
H 	H 	0.78867 0.58767 0.84641 -0.07600
N 	N 	0.38049 0.99269 0.06264 -0.32300
N 	N 	0.45663 0.00135 0.97371 -0.15000
C 	C 	0.38128 0.00897 0.03571 0.04800
C 	C 	0.40458 0.00567 0.01377 -0.14900
C 	C 	0.42839 0.98453 0.01982 0.04700
C 	C 	0.42793 0.96757 0.04755 -0.13800
C 	C 	0.40370 0.97259 0.06847 0.05200
C 	C 	0.45415 0.98060 0.99695 0.10400
H 	H 	0.36490 0.02349 0.03165 -0.08000
H 	H 	0.40435 0.01757 0.99495 0.06300
H 	H 	0.44395 0.95279 0.05208 0.06200
H 	H 	0.40359 0.96133 0.08767 -0.07600
N 	N 	0.86951 0.49269 0.68736 -0.32500
N 	N 	0.79337 0.50135 0.77629 -0.14600
C 	C 	0.86872 0.50897 0.71429 0.04700
C 	C 	0.84542 0.50567 0.73623 -0.13700
C 	C 	0.82161 0.48453 0.73018 0.04500
C 	C 	0.82207 0.46757 0.70245 -0.13700
C 	C 	0.84630 0.47259 0.68153 0.05100
C 	C 	0.79585 0.48060 0.75305 0.09500
H 	H 	0.88510 0.52349 0.71835 -0.07800
H 	H 	0.84565 0.51757 0.75505 0.05700
H 	H 	0.80605 0.45279 0.69792 0.06200
H 	H 	0.84641 0.46133 0.66233 -0.07600
N 	N 	0.88049 0.75731 0.18736 -0.32500
N 	N 	0.95663 0.74865 0.27629 -0.14600
C 	C 	0.88128 0.74103 0.21429 0.04700
C 	C 	0.90458 0.74433 0.23623 -0.13700
C 	C 	0.92839 0.76547 0.23018 0.04500
C 	C 	0.92793 0.78243 0.20245 -0.13700
C 	C 	0.90370 0.77741 0.18153 0.05100
C 	C 	0.95415 0.76940 0.25305 0.09600
H 	H 	0.86490 0.72651 0.21835 -0.07800
H 	H 	0.90435 0.73243 0.25505 0.05700
H 	H 	0.94395 0.79721 0.19792 0.06300
H 	H 	0.90359 0.78867 0.16233 -0.07600
N 	N 	0.36951 0.25731 0.56264 -0.32500
N 	N 	0.29337 0.24865 0.47371 -0.14600
C 	C 	0.36872 0.24103 0.53571 0.04700
C 	C 	0.34542 0.24433 0.51377 -0.13700
C 	C 	0.32161 0.26547 0.51982 0.04500
C 	C 	0.32207 0.28243 0.54755 -0.13700
C 	C 	0.34630 0.27741 0.56847 0.05100
C 	C 	0.29585 0.26940 0.49695 0.09500
H 	H 	0.38510 0.22651 0.53165 -0.07800
H 	H 	0.34565 0.23243 0.49495 0.05700
H 	H 	0.30605 0.29721 0.55208 0.06200
H 	H 	0.34641 0.28867 0.58767 -0.07600
N 	N 	0.63049 0.81264 0.00731 -0.32700
N 	N 	0.70663 0.72371 0.99865 -0.14100
C 	C 	0.63128 0.78571 0.99103 0.04900
C 	C 	0.65458 0.76377 0.99433 -0.13200
C 	C 	0.67839 0.76982 0.01547 0.04000
C 	C 	0.67793 0.79755 0.03243 -0.13600
C 	C 	0.65370 0.81847 0.02741 0.04900
C 	C 	0.70415 0.74695 0.01940 0.09300
H 	H 	0.61490 0.78165 0.97651 -0.07800
H 	H 	0.65435 0.74495 0.98243 0.05600
H 	H 	0.69395 0.80208 0.04721 0.06200
H 	H 	0.65359 0.83767 0.03867 -0.07600
N 	N 	0.11951 0.43736 0.50731 -0.32500
N 	N 	0.04337 0.52629 0.49865 -0.14500
C 	C 	0.11872 0.46429 0.49103 0.04700
C 	C 	0.09542 0.48623 0.49433 -0.13700
C 	C 	0.07161 0.48018 0.51547 0.04400
C 	C 	0.07207 0.45245 0.53243 -0.13700
C 	C 	0.09630 0.43153 0.52741 0.05000
C 	C 	0.04585 0.50305 0.51940 0.09400
H 	H 	0.13510 0.46835 0.47651 -0.07800
H 	H 	0.09565 0.50505 0.48243 0.05700
H 	H 	0.05605 0.44792 0.54721 0.06200
H 	H 	0.09641 0.41233 0.53867 -0.07600
N 	N 	0.13049 0.93736 0.24269 -0.32500
N 	N 	0.20663 0.02629 0.25135 -0.14500
C 	C 	0.13128 0.96429 0.25897 0.04400
C 	C 	0.15458 0.98623 0.25567 -0.13000
C 	C 	0.17839 0.98018 0.23453 0.04700
C 	C 	0.17793 0.95245 0.21757 -0.13800
C 	C 	0.15370 0.93153 0.22259 0.05100
C 	C 	0.20415 0.00305 0.23060 0.08900
H 	H 	0.11490 0.96835 0.27349 -0.07700
H 	H 	0.15435 0.00505 0.26757 0.05200
H 	H 	0.19395 0.94792 0.20279 0.06300
H 	H 	0.15359 0.91233 0.21133 -0.07600
N 	N 	0.61951 0.31264 0.74269 -0.32500
N 	N 	0.54337 0.22371 0.75135 -0.14600
C 	C 	0.61872 0.28571 0.75897 0.04700
C 	C 	0.59542 0.26377 0.75567 -0.13700
C 	C 	0.57161 0.26982 0.73453 0.04500
C 	C 	0.57207 0.29755 0.71757 -0.13700
C 	C 	0.59630 0.31847 0.72259 0.05100
C 	C 	0.54585 0.24695 0.73060 0.09500
H 	H 	0.63510 0.28165 0.77349 -0.07800
H 	H 	0.59565 0.24495 0.76757 0.05700
H 	H 	0.55605 0.30208 0.70279 0.06200
H 	H 	0.59641 0.33767 0.71133 -0.07600
N 	N 	0.81264 0.74269 0.11951 -0.32500
N 	N 	0.72371 0.75135 0.04337 -0.14500
C 	C 	0.78571 0.75897 0.11872 0.04700
C 	C 	0.76377 0.75567 0.09542 -0.13700
C 	C 	0.76982 0.73453 0.07161 0.04400
C 	C 	0.79755 0.71757 0.07207 -0.13700
C 	C 	0.81847 0.72259 0.09630 0.05000
C 	C 	0.74695 0.73060 0.04585 0.09400
H 	H 	0.78165 0.77349 0.13510 -0.07800
H 	H 	0.74495 0.76757 0.09565 0.05700
H 	H 	0.80208 0.70279 0.05605 0.06200
H 	H 	0.83767 0.71133 0.09641 -0.07600
N 	N 	0.43736 0.24269 0.63049 -0.32500
N 	N 	0.52629 0.25135 0.70663 -0.14600
C 	C 	0.46429 0.25897 0.63128 0.04700
C 	C 	0.48623 0.25567 0.65458 -0.13700
C 	C 	0.48018 0.23453 0.67839 0.04500
C 	C 	0.45245 0.21757 0.67793 -0.13700
C 	C 	0.43153 0.22259 0.65370 0.05100
C 	C 	0.50305 0.23060 0.70415 0.09500
H 	H 	0.46835 0.27349 0.61490 -0.07800
H 	H 	0.50505 0.26757 0.65435 0.05700
H 	H 	0.44792 0.20279 0.69395 0.06200
H 	H 	0.41233 0.21133 0.65359 -0.07600
N 	N 	0.93736 0.50731 0.61951 -0.32400
N 	N 	0.02629 0.49865 0.54337 -0.14500
C 	C 	0.96429 0.49103 0.61872 0.04400
C 	C 	0.98623 0.49433 0.59542 -0.13000
C 	C 	0.98018 0.51547 0.57161 0.04700
C 	C 	0.95245 0.53243 0.57207 -0.13800
C 	C 	0.93153 0.52741 0.59630 0.05100
C 	C 	0.00305 0.51940 0.54585 0.08900
H 	H 	0.96835 0.47651 0.63510 -0.07600
H 	H 	0.00505 0.48243 0.59565 0.05200
H 	H 	0.94792 0.54721 0.55605 0.06300
H 	H 	0.91233 0.53867 0.59641 -0.07600
N 	N 	0.31264 0.00731 0.13049 -0.32700
N 	N 	0.22371 0.99865 0.20663 -0.14100
C 	C 	0.28571 0.99103 0.13128 0.04900
C 	C 	0.26377 0.99433 0.15458 -0.13200
C 	C 	0.26982 0.01547 0.17839 0.04000
C 	C 	0.29755 0.03243 0.17793 -0.13600
C 	C 	0.31847 0.02741 0.15370 0.04900
C 	C 	0.24695 0.01940 0.20415 0.09300
H 	H 	0.28165 0.97651 0.11490 -0.07800
H 	H 	0.24495 0.98243 0.15435 0.05600
H 	H 	0.30208 0.04721 0.19395 0.06200
H 	H 	0.33767 0.03867 0.15359 -0.07600
N 	N 	0.74269 0.63049 0.93736 -0.32400
N 	N 	0.75135 0.70663 0.02629 -0.14500
C 	C 	0.75897 0.63128 0.96429 0.04400
C 	C 	0.75567 0.65458 0.98623 -0.13000
C 	C 	0.73453 0.67839 0.98018 0.04700
C 	C 	0.71757 0.67793 0.95245 -0.13800
C 	C 	0.72259 0.65370 0.93153 0.05100
C 	C 	0.73060 0.70415 0.00305 0.08900
H 	H 	0.77349 0.61490 0.96835 -0.07600
H 	H 	0.76757 0.65435 0.00505 0.05200
H 	H 	0.70279 0.69395 0.94792 0.06300
H 	H 	0.71133 0.65359 0.91233 -0.07600
N 	N 	0.24269 0.11951 0.31264 -0.32500
N 	N 	0.25135 0.04337 0.22371 -0.14500
C 	C 	0.25897 0.11872 0.28571 0.04700
C 	C 	0.25567 0.09542 0.26377 -0.13700
C 	C 	0.23453 0.07161 0.26982 0.04400
C 	C 	0.21757 0.07207 0.29755 -0.13700
C 	C 	0.22259 0.09630 0.31847 0.05000
C 	C 	0.23060 0.04585 0.24695 0.09400
H 	H 	0.27349 0.13510 0.28165 -0.07800
H 	H 	0.26757 0.09565 0.24495 0.05700
H 	H 	0.20279 0.05605 0.30208 0.06200
H 	H 	0.21133 0.09641 0.33767 -0.07700
N 	N 	0.50731 0.13049 0.81264 -0.32500
N 	N 	0.49865 0.20663 0.72371 -0.14600
C 	C 	0.49103 0.13128 0.78571 0.04700
C 	C 	0.49433 0.15458 0.76377 -0.13700
C 	C 	0.51547 0.17839 0.76982 0.04500
C 	C 	0.53243 0.17793 0.79755 -0.13700
C 	C 	0.52741 0.15370 0.81847 0.05100
C 	C 	0.51940 0.20415 0.74695 0.09500
H 	H 	0.47651 0.11490 0.78165 -0.07800
H 	H 	0.48243 0.15435 0.74495 0.05700
H 	H 	0.54721 0.19395 0.80208 0.06200
H 	H 	0.53867 0.15359 0.83767 -0.07600
N 	N 	0.00731 0.61951 0.43736 -0.32700
N 	N 	0.99865 0.54337 0.52629 -0.14100
C 	C 	0.99103 0.61872 0.46429 0.04900
C 	C 	0.99433 0.59542 0.48623 -0.13200
C 	C 	0.01547 0.57161 0.48018 0.04000
C 	C 	0.03243 0.57207 0.45245 -0.13600
C 	C 	0.02741 0.59630 0.43153 0.04900
C 	C 	0.01940 0.54585 0.50305 0.09300
H 	H 	0.97651 0.63510 0.46835 -0.07800
H 	H 	0.98243 0.59565 0.50505 0.05600
H 	H 	0.04721 0.55605 0.44792 0.06200
H 	H 	0.03867 0.59641 0.41233 -0.07600
Zn	Zn	0.59456 0.84456 -0.00000 1.08400
Zn	Zn	0.15544 0.40544 0.50000 1.08500
Zn	Zn	0.65544 0.34456 0.75000 1.08600
Zn	Zn	0.09456 0.90544 0.25000 1.08600
Zn	Zn	0.50000 0.09456 0.84456 1.08500
Zn	Zn	0.00000 0.65544 0.40544 1.08400
Zn	Zn	0.25000 0.15544 0.34456 1.08500
Zn	Zn	0.75000 0.59456 0.90544 1.08600
Zn	Zn	0.34456 -0.00000 0.09456 1.08400
Zn	Zn	0.90544 0.50000 0.65544 1.08600
Zn	Zn	0.84456 0.75000 0.15544 1.08600
Zn	Zn	0.40544 0.25000 0.59456 1.08600
N 	N 	0.93736 0.61951 0.00731 -0.32600
N 	N 	0.02629 0.54337 0.99865 -0.14100
C 	C 	0.96429 0.61872 0.99103 0.04600
C 	C 	0.98623 0.59542 0.99433 -0.12500
C 	C 	0.98018 0.57161 0.01547 0.04200
C 	C 	0.95245 0.57207 0.03243 -0.13700
C 	C 	0.93153 0.59630 0.02741 0.04900
C 	C 	0.00305 0.54585 0.01940 0.08600
H 	H 	0.96835 0.63510 0.97651 -0.07600
H 	H 	0.00505 0.59565 0.98243 0.05100
H 	H 	0.94792 0.55605 0.04721 0.06200
H 	H 	0.91233 0.59641 0.03867 -0.07600
N 	N 	0.31264 0.13049 0.50731 -0.32500
N 	N 	0.22371 0.20663 0.49865 -0.14600
C 	C 	0.28571 0.13128 0.49103 0.04700
C 	C 	0.26377 0.15458 0.49433 -0.13700
C 	C 	0.26982 0.17839 0.51547 0.04500
C 	C 	0.29755 0.17793 0.53243 -0.13700
C 	C 	0.31847 0.15370 0.52741 0.05100
C 	C 	0.24695 0.20415 0.51940 0.09500
H 	H 	0.28165 0.11490 0.47651 -0.07800
H 	H 	0.24495 0.15435 0.48243 0.05700
H 	H 	0.30208 0.19395 0.54721 0.06200
H 	H 	0.33767 0.15359 0.53867 -0.07600
N 	N 	0.81264 0.11951 0.24269 -0.32500
N 	N 	0.72371 0.04337 0.25135 -0.14500
C 	C 	0.78571 0.11872 0.25897 0.04700
C 	C 	0.76377 0.09542 0.25567 -0.13700
C 	C 	0.76982 0.07161 0.23453 0.04400
C 	C 	0.79755 0.07207 0.21757 -0.13700
C 	C 	0.81847 0.09630 0.22259 0.05000
C 	C 	0.74695 0.04585 0.23060 0.09400
H 	H 	0.78165 0.13510 0.27349 -0.07800
H 	H 	0.74495 0.09565 0.26757 0.05700
H 	H 	0.80208 0.05605 0.20279 0.06200
H 	H 	0.83767 0.09641 0.21133 -0.07600
N 	N 	0.43736 0.63049 0.74269 -0.32500
N 	N 	0.52629 0.70663 0.75135 -0.14600
C 	C 	0.46429 0.63128 0.75897 0.04700
C 	C 	0.48623 0.65458 0.75567 -0.13700
C 	C 	0.48018 0.67839 0.73453 0.04500
C 	C 	0.45245 0.67793 0.71757 -0.13700
C 	C 	0.43153 0.65370 0.72259 0.05100
C 	C 	0.50305 0.70415 0.73060 0.09500
H 	H 	0.46835 0.61490 0.77349 -0.07800
H 	H 	0.50505 0.65435 0.76757 0.05700
H 	H 	0.44792 0.69395 0.70279 0.06200
H 	H 	0.41233 0.65359 0.71133 -0.07600
N 	N 	0.00731 0.43736 0.11951 -0.32700
N 	N 	0.99865 0.52629 0.04337 -0.14100
C 	C 	0.99103 0.46429 0.11872 0.04900
C 	C 	0.99433 0.48623 0.09542 -0.13200
C 	C 	0.01547 0.48018 0.07161 0.04000
C 	C 	0.03243 0.45245 0.07207 -0.13600
C 	C 	0.02741 0.43153 0.09630 0.04900
C 	C 	0.01940 0.50305 0.04585 0.09200
H 	H 	0.97651 0.46835 0.13510 -0.07800
H 	H 	0.98243 0.50505 0.09565 0.05600
H 	H 	0.04721 0.44792 0.05605 0.06100
H 	H 	0.03867 0.41233 0.09641 -0.07600
N 	N 	0.50731 0.81264 0.63049 -0.32500
N 	N 	0.49865 0.72371 0.70663 -0.14600
C 	C 	0.49103 0.78571 0.63128 0.04700
C 	C 	0.49433 0.76377 0.65458 -0.13700
C 	C 	0.51547 0.76982 0.67839 0.04500
C 	C 	0.53243 0.79755 0.67793 -0.13700
C 	C 	0.52741 0.81847 0.65370 0.05100
C 	C 	0.51940 0.74695 0.70415 0.09500
H 	H 	0.47651 0.78165 0.61490 -0.07800
H 	H 	0.48243 0.74495 0.65435 0.05700
H 	H 	0.54721 0.80208 0.69395 0.06200
H 	H 	0.53867 0.83767 0.65359 -0.07600
N 	N 	0.24269 0.31264 0.61951 -0.32500
N 	N 	0.25135 0.22371 0.54337 -0.14600
C 	C 	0.25897 0.28571 0.61872 0.04700
C 	C 	0.25567 0.26377 0.59542 -0.13700
C 	C 	0.23453 0.26982 0.57161 0.04500
C 	C 	0.21757 0.29755 0.57207 -0.13700
C 	C 	0.22259 0.31847 0.59630 0.05100
C 	C 	0.23060 0.24695 0.54585 0.09500
H 	H 	0.27349 0.28165 0.63510 -0.07800
H 	H 	0.26757 0.24495 0.59565 0.05700
H 	H 	0.20279 0.30208 0.55605 0.06200
H 	H 	0.21133 0.33767 0.59641 -0.07600
N 	N 	0.74269 0.93736 0.13049 -0.32500
N 	N 	0.75135 0.02629 0.20663 -0.14500
C 	C 	0.75897 0.96429 0.13128 0.04400
C 	C 	0.75567 0.98623 0.15458 -0.13000
C 	C 	0.73453 0.98018 0.17839 0.04700
C 	C 	0.71757 0.95245 0.17793 -0.13800
C 	C 	0.72259 0.93153 0.15370 0.05100
C 	C 	0.73060 0.00305 0.20415 0.08900
H 	H 	0.77349 0.96835 0.11490 -0.07700
H 	H 	0.76757 0.00505 0.15435 0.05200
H 	H 	0.70279 0.94792 0.19395 0.06300
H 	H 	0.71133 0.91233 0.15359 -0.07600
N 	N 	0.11951 0.50731 0.93736 -0.32500
N 	N 	0.04337 0.49865 0.02629 -0.14500
C 	C 	0.11872 0.49103 0.96429 0.04400
C 	C 	0.09542 0.49433 0.98623 -0.13000
C 	C 	0.07161 0.51547 0.98018 0.04700
C 	C 	0.07207 0.53243 0.95245 -0.13800
C 	C 	0.09630 0.52741 0.93153 0.05100
C 	C 	0.04585 0.51940 0.00305 0.08800
H 	H 	0.13510 0.47651 0.96835 -0.07600
H 	H 	0.09565 0.48243 0.00505 0.05200
H 	H 	0.05605 0.54721 0.94792 0.06300
H 	H 	0.09641 0.53867 0.91233 -0.07600
N 	N 	0.63049 0.00731 0.31264 -0.32700
N 	N 	0.70663 0.99865 0.22371 -0.14100
C 	C 	0.63128 0.99103 0.28571 0.04900
C 	C 	0.65458 0.99433 0.26377 -0.13200
C 	C 	0.67839 0.01547 0.26982 0.04000
C 	C 	0.67793 0.03243 0.29755 -0.13600
C 	C 	0.65370 0.02741 0.31847 0.04900
C 	C 	0.70415 0.01940 0.24695 0.09300
H 	H 	0.61490 0.97651 0.28165 -0.07800
H 	H 	0.65435 0.98243 0.24495 0.05600
H 	H 	0.69395 0.04721 0.30208 0.06200
H 	H 	0.65359 0.03867 0.33767 -0.07600
N 	N 	0.61951 0.74269 0.81264 -0.32500
N 	N 	0.54337 0.75135 0.72371 -0.14600
C 	C 	0.61872 0.75897 0.78571 0.04700
C 	C 	0.59542 0.75567 0.76377 -0.13700
C 	C 	0.57161 0.73453 0.76982 0.04500
C 	C 	0.57207 0.71757 0.79755 -0.13700
C 	C 	0.59630 0.72259 0.81847 0.05100
C 	C 	0.54585 0.73060 0.74695 0.09500
H 	H 	0.63510 0.77349 0.78165 -0.07800
H 	H 	0.59565 0.76757 0.74495 0.05700
H 	H 	0.55605 0.70279 0.80208 0.06200
H 	H 	0.59641 0.71133 0.83767 -0.07600
N 	N 	0.13049 0.24269 0.43736 -0.32500
N 	N 	0.20663 0.25135 0.52629 -0.14600
C 	C 	0.13128 0.25897 0.46429 0.04700
C 	C 	0.15458 0.25567 0.48623 -0.13700
C 	C 	0.17839 0.23453 0.48018 0.04500
C 	C 	0.17793 0.21757 0.45245 -0.13700
C 	C 	0.15370 0.22259 0.43153 0.05000
C 	C 	0.20415 0.23060 0.50305 0.09500
H 	H 	0.11490 0.27349 0.46835 -0.07800
H 	H 	0.15435 0.26757 0.50505 0.05700
H 	H 	0.19395 0.20279 0.44792 0.06200
H 	H 	0.15359 0.21133 0.41233 -0.07600
N 	N 	0.86951 0.68736 0.99269 -0.32300
N 	N 	0.79337 0.77629 0.00135 -0.15000
C 	C 	0.86872 0.71429 0.00897 0.04500
C 	C 	0.84542 0.73623 0.00567 -0.14200
C 	C 	0.82161 0.73018 0.98453 0.04900
C 	C 	0.82207 0.70245 0.96757 -0.13800
C 	C 	0.84630 0.68153 0.97259 0.05200
C 	C 	0.79585 0.75305 0.98060 0.09800
H 	H 	0.88510 0.71835 0.02349 -0.07800
H 	H 	0.84565 0.75505 0.01757 0.05800
H 	H 	0.80605 0.69792 0.95279 0.06300
H 	H 	0.84641 0.66233 0.96133 -0.07600
N 	N 	0.38049 0.06264 0.49269 -0.32600
N 	N 	0.45663 0.97371 0.50135 -0.14600
C 	C 	0.38128 0.03571 0.50897 0.05000
C 	C 	0.40458 0.01377 0.50567 -0.14400
C 	C 	0.42839 0.01982 0.48453 0.04200
C 	C 	0.42793 0.04755 0.46757 -0.13600
C 	C 	0.40370 0.06847 0.47259 0.05000
C 	C 	0.45415 0.99695 0.48060 0.10200
H 	H 	0.36490 0.03165 0.52349 -0.08000
H 	H 	0.40435 0.99495 0.51757 0.06200
H 	H 	0.44395 0.05208 0.45279 0.06200
H 	H 	0.40359 0.08767 0.46133 -0.07600
N 	N 	0.36951 0.56264 0.75731 -0.32500
N 	N 	0.29337 0.47371 0.74865 -0.14600
C 	C 	0.36872 0.53571 0.74103 0.04700
C 	C 	0.34542 0.51377 0.74433 -0.13700
C 	C 	0.32161 0.51982 0.76547 0.04500
C 	C 	0.32207 0.54755 0.78243 -0.13700
C 	C 	0.34630 0.56847 0.77741 0.05100
C 	C 	0.29585 0.49695 0.76940 0.09500
H 	H 	0.38510 0.53165 0.72651 -0.07800
H 	H 	0.34565 0.49495 0.73243 0.05700
H 	H 	0.30605 0.55208 0.79721 0.06200
H 	H 	0.34641 0.58767 0.78867 -0.07600
N 	N 	0.88049 0.18736 0.25731 -0.32500
N 	N 	0.95663 0.27629 0.24865 -0.14600
C 	C 	0.88128 0.21429 0.24103 0.04700
C 	C 	0.90458 0.23623 0.24433 -0.13700
C 	C 	0.92839 0.23018 0.26547 0.04500
C 	C 	0.92793 0.20245 0.28243 -0.13700
C 	C 	0.90370 0.18153 0.27741 0.05100
C 	C 	0.95415 0.25305 0.26940 0.09600
H 	H 	0.86490 0.21835 0.22651 -0.07800
H 	H 	0.90435 0.25505 0.23243 0.05700
H 	H 	0.94395 0.19792 0.29721 0.06300
H 	H 	0.90359 0.16233 0.28867 -0.07600
N 	N 	0.68736 0.75731 0.88049 -0.32500
N 	N 	0.77629 0.74865 0.95663 -0.14600
C 	C 	0.71429 0.74103 0.88128 0.04700
C 	C 	0.73623 0.74433 0.90458 -0.13700
C 	C 	0.73018 0.76547 0.92839 0.04500
C 	C 	0.70245 0.78243 0.92793 -0.13700
C 	C 	0.68153 0.77741 0.90370 0.05100
C 	C 	0.75305 0.76940 0.95415 0.09600
H 	H 	0.71835 0.72651 0.86490 -0.07800
H 	H 	0.75505 0.73243 0.90435 0.05700
H 	H 	0.69792 0.79721 0.94395 0.06300
H 	H 	0.66233 0.78867 0.90359 -0.07600
N 	N 	0.06264 0.25731 0.36951 -0.32600
N 	N 	0.97371 0.24865 0.29337 -0.14600
C 	C 	0.03571 0.24103 0.36872 0.05000
C 	C 	0.01377 0.24433 0.34542 -0.14400
C 	C 	0.01982 0.26547 0.32161 0.04200
C 	C 	0.04755 0.28243 0.32207 -0.13600
C 	C 	0.06847 0.27741 0.34630 0.05000
C 	C 	0.99695 0.26940 0.29585 0.10200
H 	H 	0.03165 0.22651 0.38510 -0.08000
H 	H 	0.99495 0.23243 0.34565 0.06200
H 	H 	0.05208 0.29721 0.30605 0.06200
H 	H 	0.08767 0.28867 0.34641 -0.07600
N 	N 	0.56264 0.99269 0.38049 -0.32300
N 	N 	0.47371 0.00135 0.45663 -0.15000
C 	C 	0.53571 0.00897 0.38128 0.04500
C 	C 	0.51377 0.00567 0.40458 -0.14200
C 	C 	0.51982 0.98453 0.42839 0.04900
C 	C 	0.54755 0.96757 0.42793 -0.13800
C 	C 	0.56847 0.97259 0.40370 0.05200
C 	C 	0.49695 0.98060 0.45415 0.09800
H 	H 	0.53165 0.02349 0.36490 -0.07800
H 	H 	0.49495 0.01757 0.40435 0.05800
H 	H 	0.55208 0.95279 0.44395 0.06300
H 	H 	0.58767 0.96133 0.40359 -0.07600
N 	N 	0.18736 0.49269 0.86951 -0.32500
N 	N 	0.27629 0.50135 0.79337 -0.14600
C 	C 	0.21429 0.50897 0.86872 0.04700
C 	C 	0.23623 0.50567 0.84542 -0.13700
C 	C 	0.23018 0.48453 0.82161 0.04500
C 	C 	0.20245 0.46757 0.82207 -0.13700
C 	C 	0.18153 0.47259 0.84630 0.05100
C 	C 	0.25305 0.48060 0.79585 0.09500
H 	H 	0.21835 0.52349 0.88510 -0.07800
H 	H 	0.25505 0.51757 0.84565 0.05700
H 	H 	0.19792 0.45279 0.80605 0.06200
H 	H 	0.16233 0.46133 0.84641 -0.07600
N 	N 	0.75731 0.86951 0.06264 -0.32600
N 	N 	0.74865 0.79337 0.97371 -0.14600
C 	C 	0.74103 0.86872 0.03571 0.05000
C 	C 	0.74433 0.84542 0.01377 -0.14400
C 	C 	0.76547 0.82161 0.01982 0.04200
C 	C 	0.78243 0.82207 0.04755 -0.13600
C 	C 	0.77741 0.84630 0.06847 0.05000
C 	C 	0.76940 0.79585 0.99695 0.10200
H 	H 	0.72651 0.88510 0.03165 -0.08000
H 	H 	0.73243 0.84565 0.99495 0.06200
H 	H 	0.79721 0.80605 0.05208 0.06200
H 	H 	0.78867 0.84641 0.08767 -0.07600
N 	N 	0.25731 0.38049 0.68736 -0.32500
N 	N 	0.24865 0.45663 0.77629 -0.14600
C 	C 	0.24103 0.38128 0.71429 0.04700
C 	C 	0.24433 0.40458 0.73623 -0.13700
C 	C 	0.26547 0.42839 0.73018 0.04500
C 	C 	0.28243 0.42793 0.70245 -0.13700
C 	C 	0.27741 0.40370 0.68153 0.05100
C 	C 	0.26940 0.45415 0.75305 0.09500
H 	H 	0.22651 0.36490 0.71835 -0.07800
H 	H 	0.23243 0.40435 0.75505 0.05700
H 	H 	0.29721 0.44395 0.69792 0.06200
H 	H 	0.28867 0.40359 0.66233 -0.07600
N 	N 	0.99269 0.36951 0.18736 -0.32300
N 	N 	0.00135 0.29337 0.27629 -0.15000
C 	C 	0.00897 0.36872 0.21429 0.04500
C 	C 	0.00567 0.34542 0.23623 -0.14200
C 	C 	0.98453 0.32161 0.23018 0.04900
C 	C 	0.96757 0.32207 0.20245 -0.13800
C 	C 	0.97259 0.34630 0.18153 0.05200
C 	C 	0.98060 0.29585 0.25305 0.09800
H 	H 	0.02349 0.38510 0.21835 -0.07800
H 	H 	0.01757 0.34565 0.25505 0.05800
H 	H 	0.95279 0.30605 0.19792 0.06300
H 	H 	0.96133 0.34641 0.16233 -0.07600
N 	N 	0.49269 0.88049 0.56264 -0.32500
N 	N 	0.50135 0.95663 0.47371 -0.14600
C 	C 	0.50897 0.88128 0.53571 0.04700
C 	C 	0.50567 0.90458 0.51377 -0.13700
C 	C 	0.48453 0.92839 0.51982 0.04500
C 	C 	0.46757 0.92793 0.54755 -0.13700
C 	C 	0.47259 0.90370 0.56847 0.05100
C 	C 	0.48060 0.95415 0.49695 0.09600
H 	H 	0.52349 0.86490 0.53165 -0.07800
H 	H 	0.51757 0.90435 0.49495 0.05700
H 	H 	0.45279 0.94395 0.55208 0.06300
H 	H 	0.46133 0.90359 0.58767 -0.07600
Zn	Zn	0.90544 0.65544 -0.00000 1.08500
Zn	Zn	0.34456 0.09456 0.50000 1.08500
Zn	Zn	0.84456 0.15544 0.25000 1.08600
Zn	Zn	0.40544 0.59456 0.75000 1.08600
Zn	Zn	-0.00000 0.40544 0.15544 1.08400
Zn	Zn	0.50000 0.84456 0.59456 1.08600
Zn	Zn	0.25000 0.34456 0.65544 1.08600
Zn	Zn	0.75000 0.90544 0.09456 1.08600
Zn	Zn	0.15544 0.50000 0.90544 1.08600
Zn	Zn	0.59456 -0.00000 0.34456 1.08400
Zn	Zn	0.65544 0.75000 0.84456 1.08600
Zn	Zn	0.09456 0.25000 0.40544 1.08500
N 	N 	0.93736 0.11951 0.50731 -0.32500
N 	N 	0.02629 0.04337 0.49865 -0.14500
C 	C 	0.96429 0.11872 0.49103 0.04400
C 	C 	0.98623 0.09542 0.49433 -0.13000
C 	C 	0.98018 0.07161 0.51547 0.04700
C 	C 	0.95245 0.07207 0.53243 -0.13800
C 	C 	0.93153 0.09630 0.52741 0.05100
C 	C 	0.00305 0.04585 0.51940 0.08800
H 	H 	0.96835 0.13510 0.47651 -0.07600
H 	H 	0.00505 0.09565 0.48243 0.05200
H 	H 	0.94792 0.05605 0.54721 0.06300
H 	H 	0.91233 0.09641 0.53867 -0.07600
N 	N 	0.31264 0.63049 0.00731 -0.32700
N 	N 	0.22371 0.70663 0.99865 -0.14100
C 	C 	0.28571 0.63128 0.99103 0.04900
C 	C 	0.26377 0.65458 0.99433 -0.13200
C 	C 	0.26982 0.67839 0.01547 0.04000
C 	C 	0.29755 0.67793 0.03243 -0.13600
C 	C 	0.31847 0.65370 0.02741 0.04900
C 	C 	0.24695 0.70415 0.01940 0.09300
H 	H 	0.28165 0.61490 0.97651 -0.07800
H 	H 	0.24495 0.65435 0.98243 0.05600
H 	H 	0.30208 0.69395 0.04721 0.06200
H 	H 	0.33767 0.65359 0.03867 -0.07600
N 	N 	0.81264 0.61951 0.74269 -0.32500
N 	N 	0.72371 0.54337 0.75135 -0.14600
C 	C 	0.78571 0.61872 0.75897 0.04700
C 	C 	0.76377 0.59542 0.75567 -0.13700
C 	C 	0.76982 0.57161 0.73453 0.04500
C 	C 	0.79755 0.57207 0.71757 -0.13700
C 	C 	0.81847 0.59630 0.72259 0.05100
C 	C 	0.74695 0.54585 0.73060 0.09500
H 	H 	0.78165 0.63510 0.77349 -0.07800
H 	H 	0.74495 0.59565 0.76757 0.05700
H 	H 	0.80208 0.55605 0.70279 0.06200
H 	H 	0.83767 0.59641 0.71133 -0.07600
N 	N 	0.43736 0.13049 0.24269 -0.32500
N 	N 	0.52629 0.20663 0.25135 -0.14600
C 	C 	0.46429 0.13128 0.25897 0.04700
C 	C 	0.48623 0.15458 0.25567 -0.13700
C 	C 	0.48018 0.17839 0.23453 0.04500
C 	C 	0.45245 0.17793 0.21757 -0.13700
C 	C 	0.43153 0.15370 0.22259 0.05000
C 	C 	0.50305 0.20415 0.23060 0.09500
H 	H 	0.46835 0.11490 0.27349 -0.07800
H 	H 	0.50505 0.15435 0.26757 0.05700
H 	H 	0.44792 0.19395 0.20279 0.06200
H 	H 	0.41233 0.15359 0.21133 -0.07600
N 	N 	0.00731 0.93736 0.61951 -0.32600
N 	N 	0.99865 0.02629 0.54337 -0.14100
C 	C 	0.99103 0.96429 0.61872 0.04600
C 	C 	0.99433 0.98623 0.59542 -0.12500
C 	C 	0.01547 0.98018 0.57161 0.04200
C 	C 	0.03243 0.95245 0.57207 -0.13700
C 	C 	0.02741 0.93153 0.59630 0.04900
C 	C 	0.01940 0.00305 0.54585 0.08600
H 	H 	0.97651 0.96835 0.63510 -0.07600
H 	H 	0.98243 0.00505 0.59565 0.05100
H 	H 	0.04721 0.94792 0.55605 0.06200
H 	H 	0.03867 0.91233 0.59641 -0.07600
N 	N 	0.50731 0.31264 0.13049 -0.32500
N 	N 	0.49865 0.22371 0.20663 -0.14600
C 	C 	0.49103 0.28571 0.13128 0.04700
C 	C 	0.49433 0.26377 0.15458 -0.13700
C 	C 	0.51547 0.26982 0.17839 0.04500
C 	C 	0.53243 0.29755 0.17793 -0.13700
C 	C 	0.52741 0.31847 0.15370 0.05100
C 	C 	0.51940 0.24695 0.20415 0.09500
H 	H 	0.47651 0.28165 0.11490 -0.07800
H 	H 	0.48243 0.24495 0.15435 0.05700
H 	H 	0.54721 0.30208 0.19395 0.06200
H 	H 	0.53867 0.33767 0.15359 -0.07600
N 	N 	0.24269 0.81264 0.11951 -0.32500
N 	N 	0.25135 0.72371 0.04337 -0.14500
C 	C 	0.25897 0.78571 0.11872 0.04700
C 	C 	0.25567 0.76377 0.09542 -0.13700
C 	C 	0.23453 0.76982 0.07161 0.04400
C 	C 	0.21757 0.79755 0.07207 -0.13700
C 	C 	0.22259 0.81847 0.09630 0.05000
C 	C 	0.23060 0.74695 0.04585 0.09400
H 	H 	0.27349 0.78165 0.13510 -0.07800
H 	H 	0.26757 0.74495 0.09565 0.05700
H 	H 	0.20279 0.80208 0.05605 0.06200
H 	H 	0.21133 0.83767 0.09641 -0.07600
N 	N 	0.74269 0.43736 0.63049 -0.32500
N 	N 	0.75135 0.52629 0.70663 -0.14600
C 	C 	0.75897 0.46429 0.63128 0.04700
C 	C 	0.75567 0.48623 0.65458 -0.13700
C 	C 	0.73453 0.48018 0.67839 0.04500
C 	C 	0.71757 0.45245 0.67793 -0.13700
C 	C 	0.72259 0.43153 0.65370 0.05100
C 	C 	0.73060 0.50305 0.70415 0.09500
H 	H 	0.77349 0.46835 0.61490 -0.07800
H 	H 	0.76757 0.50505 0.65435 0.05700
H 	H 	0.70279 0.44792 0.69395 0.06200
H 	H 	0.71133 0.41233 0.65359 -0.07600
N 	N 	0.11951 0.00731 0.43736 -0.32700
N 	N 	0.04337 0.99865 0.52629 -0.14100
C 	C 	0.11872 0.99103 0.46429 0.04900
C 	C 	0.09542 0.99433 0.48623 -0.13200
C 	C 	0.07161 0.01547 0.48018 0.04000
C 	C 	0.07207 0.03243 0.45245 -0.13600
C 	C 	0.09630 0.02741 0.43153 0.04900
C 	C 	0.04585 0.01940 0.50305 0.09200
H 	H 	0.13510 0.97651 0.46835 -0.07800
H 	H 	0.09565 0.98243 0.50505 0.05600
H 	H 	0.05605 0.04721 0.44792 0.06100
H 	H 	0.09641 0.03867 0.41233 -0.07600
N 	N 	0.63049 0.50731 0.81264 -0.32500
N 	N 	0.70663 0.49865 0.72371 -0.14600
C 	C 	0.63128 0.49103 0.78571 0.04700
C 	C 	0.65458 0.49433 0.76377 -0.13700
C 	C 	0.67839 0.51547 0.76982 0.04500
C 	C 	0.67793 0.53243 0.79755 -0.13700
C 	C 	0.65370 0.52741 0.81847 0.05100
C 	C 	0.70415 0.51940 0.74695 0.09500
H 	H 	0.61490 0.47651 0.78165 -0.07800
H 	H 	0.65435 0.48243 0.74495 0.05700
H 	H 	0.69395 0.54721 0.80208 0.06200
H 	H 	0.65359 0.53867 0.83767 -0.07600
N 	N 	0.61951 0.24269 0.31264 -0.32500
N 	N 	0.54337 0.25135 0.22371 -0.14600
C 	C 	0.61872 0.25897 0.28571 0.04700
C 	C 	0.59542 0.25567 0.26377 -0.13700
C 	C 	0.57161 0.23453 0.26982 0.04500
C 	C 	0.57207 0.21757 0.29755 -0.13700
C 	C 	0.59630 0.22259 0.31847 0.05100
C 	C 	0.54585 0.23060 0.24695 0.09500
H 	H 	0.63510 0.27349 0.28165 -0.07800
H 	H 	0.59565 0.26757 0.24495 0.05700
H 	H 	0.55605 0.20279 0.30208 0.06200
H 	H 	0.59641 0.21133 0.33767 -0.07600
N 	N 	0.13049 0.74269 0.93736 -0.32500
N 	N 	0.20663 0.75135 0.02629 -0.14500
C 	C 	0.13128 0.75897 0.96429 0.04400
C 	C 	0.15458 0.75567 0.98623 -0.13000
C 	C 	0.17839 0.73453 0.98018 0.04700
C 	C 	0.17793 0.71757 0.95245 -0.13800
C 	C 	0.15370 0.72259 0.93153 0.05100
C 	C 	0.20415 0.73060 0.00305 0.08900
H 	H 	0.11490 0.77349 0.96835 -0.07700
H 	H 	0.15435 0.76757 0.00505 0.05200
H 	H 	0.19395 0.70279 0.94792 0.06300
H 	H 	0.15359 0.71133 0.91233 -0.07600
N 	N 	0.86951 0.18736 0.49269 -0.32500
N 	N 	0.79337 0.27629 0.50135 -0.14600
C 	C 	0.86872 0.21429 0.50897 0.04700
C 	C 	0.84542 0.23623 0.50567 -0.13700
C 	C 	0.82161 0.23018 0.48453 0.04500
C 	C 	0.82207 0.20245 0.46757 -0.13700
C 	C 	0.84630 0.18153 0.47259 0.05100
C 	C 	0.79585 0.25305 0.48060 0.09500
H 	H 	0.88510 0.21835 0.52349 -0.07800
H 	H 	0.84565 0.25505 0.51757 0.05700
H 	H 	0.80605 0.19792 0.45279 0.06200
H 	H 	0.84641 0.16233 0.46133 -0.07600
N 	N 	0.38049 0.56264 0.99269 -0.32300
N 	N 	0.45663 0.47371 0.00135 -0.15000
C 	C 	0.38128 0.53571 0.00897 0.04500
C 	C 	0.40458 0.51377 0.00567 -0.14200
C 	C 	0.42839 0.51982 0.98453 0.04900
C 	C 	0.42793 0.54755 0.96757 -0.13800
C 	C 	0.40370 0.56847 0.97259 0.05200
C 	C 	0.45415 0.49695 0.98060 0.09800
H 	H 	0.36490 0.53165 0.02349 -0.07800
H 	H 	0.40435 0.49495 0.01757 0.05800
H 	H 	0.44395 0.55208 0.95279 0.06300
H 	H 	0.40359 0.58767 0.96133 -0.07600
N 	N 	0.36951 0.06264 0.25731 -0.32600
N 	N 	0.29337 0.97371 0.24865 -0.14600
C 	C 	0.36872 0.03571 0.24103 0.05000
C 	C 	0.34542 0.01377 0.24433 -0.14400
C 	C 	0.32161 0.01982 0.26547 0.04200
C 	C 	0.32207 0.04755 0.28243 -0.13600
C 	C 	0.34630 0.06847 0.27741 0.05000
C 	C 	0.29585 0.99695 0.26940 0.10200
H 	H 	0.38510 0.03165 0.22651 -0.08000
H 	H 	0.34565 0.99495 0.23243 0.06200
H 	H 	0.30605 0.05208 0.29721 0.06200
H 	H 	0.34641 0.08767 0.28867 -0.07600
N 	N 	0.88049 0.68736 0.75731 -0.32500
N 	N 	0.95663 0.77629 0.74865 -0.14600
C 	C 	0.88128 0.71429 0.74103 0.04700
C 	C 	0.90458 0.73623 0.74433 -0.13700
C 	C 	0.92839 0.73018 0.76547 0.04500
C 	C 	0.92793 0.70245 0.78243 -0.13700
C 	C 	0.90370 0.68153 0.77741 0.05100
C 	C 	0.95415 0.75305 0.76940 0.09600
H 	H 	0.86490 0.71835 0.72651 -0.07800
H 	H 	0.90435 0.75505 0.73243 0.05700
H 	H 	0.94395 0.69792 0.79721 0.06300
H 	H 	0.90359 0.66233 0.78867 -0.07600
N 	N 	0.68736 0.25731 0.38049 -0.32500
N 	N 	0.77629 0.24865 0.45663 -0.14600
C 	C 	0.71429 0.24103 0.38128 0.04700
C 	C 	0.73623 0.24433 0.40458 -0.13700
C 	C 	0.73018 0.26547 0.42839 0.04500
C 	C 	0.70245 0.28243 0.42793 -0.13700
C 	C 	0.68153 0.27741 0.40370 0.05100
C 	C 	0.75305 0.26940 0.45415 0.09500
H 	H 	0.71835 0.22651 0.36490 -0.07800
H 	H 	0.75505 0.23243 0.40435 0.05700
H 	H 	0.69792 0.29721 0.44395 0.06200
H 	H 	0.66233 0.28867 0.40359 -0.07600
N 	N 	0.06264 0.75731 0.86951 -0.32600
N 	N 	0.97371 0.74865 0.79337 -0.14600
C 	C 	0.03571 0.74103 0.86872 0.05000
C 	C 	0.01377 0.74433 0.84542 -0.14400
C 	C 	0.01982 0.76547 0.82161 0.04200
C 	C 	0.04755 0.78243 0.82207 -0.13600
C 	C 	0.06847 0.77741 0.84630 0.05000
C 	C 	0.99695 0.76940 0.79585 0.10200
H 	H 	0.03165 0.72651 0.88510 -0.08000
H 	H 	0.99495 0.73243 0.84565 0.06200
H 	H 	0.05208 0.79721 0.80605 0.06200
H 	H 	0.08767 0.78867 0.84641 -0.07600
N 	N 	0.56264 0.49269 0.88049 -0.32500
N 	N 	0.47371 0.50135 0.95663 -0.14600
C 	C 	0.53571 0.50897 0.88128 0.04700
C 	C 	0.51377 0.50567 0.90458 -0.13700
C 	C 	0.51982 0.48453 0.92839 0.04500
C 	C 	0.54755 0.46757 0.92793 -0.13700
C 	C 	0.56847 0.47259 0.90370 0.05100
C 	C 	0.49695 0.48060 0.95415 0.09600
H 	H 	0.53165 0.52349 0.86490 -0.07800
H 	H 	0.49495 0.51757 0.90435 0.05700
H 	H 	0.55208 0.45279 0.94395 0.06300
H 	H 	0.58767 0.46133 0.90359 -0.07600
N 	N 	0.18736 0.99269 0.36951 -0.32300
N 	N 	0.27629 0.00135 0.29337 -0.15000
C 	C 	0.21429 0.00897 0.36872 0.04500
C 	C 	0.23623 0.00567 0.34542 -0.14200
C 	C 	0.23018 0.98453 0.32161 0.04900
C 	C 	0.20245 0.96757 0.32207 -0.13800
C 	C 	0.18153 0.97259 0.34630 0.05200
C 	C 	0.25305 0.98060 0.29585 0.09800
H 	H 	0.21835 0.02349 0.38510 -0.07800
H 	H 	0.25505 0.01757 0.34565 0.05800
H 	H 	0.19792 0.95279 0.30605 0.06300
H 	H 	0.16233 0.96133 0.34641 -0.07600
N 	N 	0.75731 0.36951 0.56264 -0.32500
N 	N 	0.74865 0.29337 0.47371 -0.14600
C 	C 	0.74103 0.36872 0.53571 0.04700
C 	C 	0.74433 0.34542 0.51377 -0.13700
C 	C 	0.76547 0.32161 0.51982 0.04500
C 	C 	0.78243 0.32207 0.54755 -0.13700
C 	C 	0.77741 0.34630 0.56847 0.05100
C 	C 	0.76940 0.29585 0.49695 0.09500
H 	H 	0.72651 0.38510 0.53165 -0.07800
H 	H 	0.73243 0.34565 0.49495 0.05700
H 	H 	0.79721 0.30605 0.55208 0.06200
H 	H 	0.78867 0.34641 0.58767 -0.07600
N 	N 	0.25731 0.88049 0.18736 -0.32500
N 	N 	0.24865 0.95663 0.27629 -0.14600
C 	C 	0.24103 0.88128 0.21429 0.04700
C 	C 	0.24433 0.90458 0.23623 -0.13700
C 	C 	0.26547 0.92839 0.23018 0.04500
C 	C 	0.28243 0.92793 0.20245 -0.13700
C 	C 	0.27741 0.90370 0.18153 0.05100
C 	C 	0.26940 0.95415 0.25305 0.09600
H 	H 	0.22651 0.86490 0.21835 -0.07800
H 	H 	0.23243 0.90435 0.25505 0.05700
H 	H 	0.29721 0.94395 0.19792 0.06300
H 	H 	0.28867 0.90359 0.16233 -0.07600
N 	N 	0.99269 0.86951 0.68736 -0.32300
N 	N 	0.00135 0.79337 0.77629 -0.15000
C 	C 	0.00897 0.86872 0.71429 0.04500
C 	C 	0.00567 0.84542 0.73623 -0.14200
C 	C 	0.98453 0.82161 0.73018 0.04900
C 	C 	0.96757 0.82207 0.70245 -0.13800
C 	C 	0.97259 0.84630 0.68153 0.05200
C 	C 	0.98060 0.79585 0.75305 0.09800
H 	H 	0.02349 0.88510 0.71835 -0.07800
H 	H 	0.01757 0.84565 0.75505 0.05800
H 	H 	0.95279 0.80605 0.69792 0.06300
H 	H 	0.96133 0.84641 0.66233 -0.07600
N 	N 	0.49269 0.38049 0.06264 -0.32600
N 	N 	0.50135 0.45663 0.97371 -0.14600
C 	C 	0.50897 0.38128 0.03571 0.05000
C 	C 	0.50567 0.40458 0.01377 -0.14400
C 	C 	0.48453 0.42839 0.01982 0.04200
C 	C 	0.46757 0.42793 0.04755 -0.13600
C 	C 	0.47259 0.40370 0.06847 0.05000
C 	C 	0.48060 0.45415 0.99695 0.10200
H 	H 	0.52349 0.36490 0.03165 -0.08000
H 	H 	0.51757 0.40435 0.99495 0.06200
H 	H 	0.45279 0.44395 0.05208 0.06200
H 	H 	0.46133 0.40359 0.08767 -0.07600
Zn	Zn	0.90544 0.15544 0.50000 1.08600
Zn	Zn	0.34456 0.59456 -0.00000 1.08400
Zn	Zn	0.84456 0.65544 0.75000 1.08600
Zn	Zn	0.40544 0.09456 0.25000 1.08500
Zn	Zn	-0.00000 0.90544 0.65544 1.08500
Zn	Zn	0.50000 0.34456 0.09456 1.08500
Zn	Zn	0.25000 0.84456 0.15544 1.08600
Zn	Zn	0.75000 0.40544 0.59456 1.08600
Zn	Zn	0.15544 0.00000 0.40544 1.08400
Zn	Zn	0.59456 0.50000 0.84456 1.08600
Zn	Zn	0.65544 0.25000 0.34456 1.08600
Zn	Zn	0.09456 0.75000 0.90544 1.08600
N 	N 	0.43736 0.61951 0.50731 -0.32500
N 	N 	0.52629 0.54337 0.49865 -0.14600
C 	C 	0.46429 0.61872 0.49103 0.04700
C 	C 	0.48623 0.59542 0.49433 -0.13700
C 	C 	0.48018 0.57161 0.51547 0.04500
C 	C 	0.45245 0.57207 0.53243 -0.13700
C 	C 	0.43153 0.59630 0.52741 0.05100
C 	C 	0.50305 0.54585 0.51940 0.09500
H 	H 	0.46835 0.63510 0.47651 -0.07800
H 	H 	0.50505 0.59565 0.48243 0.05700
H 	H 	0.44792 0.55605 0.54721 0.06200
H 	H 	0.41233 0.59641 0.53867 -0.07600
N 	N 	0.81264 0.13049 0.00731 -0.32700
N 	N 	0.72371 0.20663 0.99865 -0.14100
C 	C 	0.78571 0.13128 0.99103 0.04900
C 	C 	0.76377 0.15458 0.99433 -0.13200
C 	C 	0.76982 0.17839 0.01547 0.04000
C 	C 	0.79755 0.17793 0.03243 -0.13600
C 	C 	0.81847 0.15370 0.02741 0.04900
C 	C 	0.74695 0.20415 0.01940 0.09300
H 	H 	0.78165 0.11490 0.97651 -0.07800
H 	H 	0.74495 0.15435 0.98243 0.05600
H 	H 	0.80208 0.19395 0.04721 0.06200
H 	H 	0.83767 0.15359 0.03867 -0.07600
N 	N 	0.31264 0.11951 0.74269 -0.32500
N 	N 	0.22371 0.04337 0.75135 -0.14500
C 	C 	0.28571 0.11872 0.75897 0.04700
C 	C 	0.26377 0.09542 0.75567 -0.13700
C 	C 	0.26982 0.07161 0.73453 0.04400
C 	C 	0.29755 0.07207 0.71757 -0.13700
C 	C 	0.31847 0.09630 0.72259 0.05000
C 	C 	0.24695 0.04585 0.73060 0.09400
H 	H 	0.28165 0.13510 0.77349 -0.07800
H 	H 	0.24495 0.09565 0.76757 0.05700
H 	H 	0.30208 0.05605 0.70279 0.06200
H 	H 	0.33767 0.09641 0.71133 -0.07600
N 	N 	0.93736 0.63049 0.24269 -0.32400
N 	N 	0.02629 0.70663 0.25135 -0.14500
C 	C 	0.96429 0.63128 0.25897 0.04400
C 	C 	0.98623 0.65458 0.25567 -0.13000
C 	C 	0.98018 0.67839 0.23453 0.04700
C 	C 	0.95245 0.67793 0.21757 -0.13800
C 	C 	0.93153 0.65370 0.22259 0.05100
C 	C 	0.00305 0.70415 0.23060 0.08900
H 	H 	0.96835 0.61490 0.27349 -0.07600
H 	H 	0.00505 0.65435 0.26757 0.05200
H 	H 	0.94792 0.69395 0.20279 0.06300
H 	H 	0.91233 0.65359 0.21133 -0.07600
N 	N 	0.50731 0.43736 0.61951 -0.32500
N 	N 	0.49865 0.52629 0.54337 -0.14600
C 	C 	0.49103 0.46429 0.61872 0.04700
C 	C 	0.49433 0.48623 0.59542 -0.13700
C 	C 	0.51547 0.48018 0.57161 0.04500
C 	C 	0.53243 0.45245 0.57207 -0.13700
C 	C 	0.52741 0.43153 0.59630 0.05100
C 	C 	0.51940 0.50305 0.54585 0.09500
H 	H 	0.47651 0.46835 0.63510 -0.07800
H 	H 	0.48243 0.50505 0.59565 0.05700
H 	H 	0.54721 0.44792 0.55605 0.06200
H 	H 	0.53867 0.41233 0.59641 -0.07600
N 	N 	0.00731 0.81264 0.13049 -0.32700
N 	N 	0.99865 0.72371 0.20663 -0.14100
C 	C 	0.99103 0.78571 0.13128 0.04900
C 	C 	0.99433 0.76377 0.15458 -0.13200
C 	C 	0.01547 0.76982 0.17839 0.04000
C 	C 	0.03243 0.79755 0.17793 -0.13600
C 	C 	0.02741 0.81847 0.15370 0.04900
C 	C 	0.01940 0.74695 0.20415 0.09300
H 	H 	0.97651 0.78165 0.11490 -0.07800
H 	H 	0.98243 0.74495 0.15435 0.05600
H 	H 	0.04721 0.80208 0.19395 0.06200
H 	H 	0.03867 0.83767 0.15359 -0.07600
N 	N 	0.74269 0.31264 0.11951 -0.32500
N 	N 	0.75135 0.22371 0.04337 -0.14500
C 	C 	0.75897 0.28571 0.11872 0.04700
C 	C 	0.75567 0.26377 0.09542 -0.13700
C 	C 	0.73453 0.26982 0.07161 0.04400
C 	C 	0.71757 0.29755 0.07207 -0.13700
C 	C 	0.72259 0.31847 0.09630 0.05000
C 	C 	0.73060 0.24695 0.04585 0.09400
H 	H 	0.77349 0.28165 0.13510 -0.07800
H 	H 	0.76757 0.24495 0.09565 0.05700
H 	H 	0.70279 0.30208 0.05605 0.06200
H 	H 	0.71133 0.33767 0.09641 -0.07600
N 	N 	0.24269 0.93736 0.63049 -0.32400
N 	N 	0.25135 0.02629 0.70663 -0.14500
C 	C 	0.25897 0.96429 0.63128 0.04400
C 	C 	0.25567 0.98623 0.65458 -0.13000
C 	C 	0.23453 0.98018 0.67839 0.04700
C 	C 	0.21757 0.95245 0.67793 -0.13800
C 	C 	0.22259 0.93153 0.65370 0.05100
C 	C 	0.23060 0.00305 0.70415 0.08900
H 	H 	0.27349 0.96835 0.61490 -0.07600
H 	H 	0.26757 0.00505 0.65435 0.05200
H 	H 	0.20279 0.94792 0.69395 0.06300
H 	H 	0.21133 0.91233 0.65359 -0.07600
N 	N 	0.61951 0.50731 0.43736 -0.32500
N 	N 	0.54337 0.49865 0.52629 -0.14600
C 	C 	0.61872 0.49103 0.46429 0.04700
C 	C 	0.59542 0.49433 0.48623 -0.13700
C 	C 	0.57161 0.51547 0.48018 0.04500
C 	C 	0.57207 0.53243 0.45245 -0.13700
C 	C 	0.59630 0.52741 0.43153 0.05100
C 	C 	0.54585 0.51940 0.50305 0.09500
H 	H 	0.63510 0.47651 0.46835 -0.07800
H 	H 	0.59565 0.48243 0.50505 0.05700
H 	H 	0.55605 0.54721 0.44792 0.06200
H 	H 	0.59641 0.53867 0.41233 -0.07600
N 	N 	0.13049 0.00731 0.81264 -0.32700
N 	N 	0.20663 0.99865 0.72371 -0.14100
C 	C 	0.13128 0.99103 0.78571 0.04900
C 	C 	0.15458 0.99433 0.76377 -0.13200
C 	C 	0.17839 0.01547 0.76982 0.04000
C 	C 	0.17793 0.03243 0.79755 -0.13600
C 	C 	0.15370 0.02741 0.81847 0.04900
C 	C 	0.20415 0.01940 0.74695 0.09300
H 	H 	0.11490 0.97651 0.78165 -0.07800
H 	H 	0.15435 0.98243 0.74495 0.05600
H 	H 	0.19395 0.04721 0.80208 0.06200
H 	H 	0.15359 0.03867 0.83767 -0.07600
N 	N 	0.11951 0.74269 0.31264 -0.32500
N 	N 	0.04337 0.75135 0.22371 -0.14500
C 	C 	0.11872 0.75897 0.28571 0.04700
C 	C 	0.09542 0.75567 0.26377 -0.13700
C 	C 	0.07161 0.73453 0.26982 0.04400
C 	C 	0.07207 0.71757 0.29755 -0.13700
C 	C 	0.09630 0.72259 0.31847 0.05000
C 	C 	0.04585 0.73060 0.24695 0.09400
H 	H 	0.13510 0.77349 0.28165 -0.07800
H 	H 	0.09565 0.76757 0.24495 0.05700
H 	H 	0.05605 0.70279 0.30208 0.06200
H 	H 	0.09641 0.71133 0.33767 -0.07600
N 	N 	0.63049 0.24269 0.93736 -0.32400
N 	N 	0.70663 0.25135 0.02629 -0.14500
C 	C 	0.63128 0.25897 0.96429 0.04400
C 	C 	0.65458 0.25567 0.98623 -0.13000
C 	C 	0.67839 0.23453 0.98018 0.04700
C 	C 	0.67793 0.21757 0.95245 -0.13800
C 	C 	0.65370 0.22259 0.93153 0.05100
C 	C 	0.70415 0.23060 0.00305 0.08900
H 	H 	0.61490 0.27349 0.96835 -0.07600
H 	H 	0.65435 0.26757 0.00505 0.05200
H 	H 	0.69395 0.20279 0.94792 0.06300
H 	H 	0.65359 0.21133 0.91233 -0.07600
N 	N 	0.36951 0.68736 0.49269 -0.32500
N 	N 	0.29337 0.77629 0.50135 -0.14600
C 	C 	0.36872 0.71429 0.50897 0.04700
C 	C 	0.34542 0.73623 0.50567 -0.13700
C 	C 	0.32161 0.73018 0.48453 0.04500
C 	C 	0.32207 0.70245 0.46757 -0.13700
C 	C 	0.34630 0.68153 0.47259 0.05100
C 	C 	0.29585 0.75305 0.48060 0.09500
H 	H 	0.38510 0.71835 0.52349 -0.07800
H 	H 	0.34565 0.75505 0.51757 0.05700
H 	H 	0.30605 0.69792 0.45279 0.06200
H 	H 	0.34641 0.66233 0.46133 -0.07600
N 	N 	0.88049 0.06264 0.99269 -0.32300
N 	N 	0.95663 0.97371 0.00135 -0.15100
C 	C 	0.88128 0.03571 0.00897 0.04800
C 	C 	0.90458 0.01377 0.00567 -0.14800
C 	C 	0.92839 0.01982 0.98453 0.04700
C 	C 	0.92793 0.04755 0.96757 -0.13700
C 	C 	0.90370 0.06847 0.97259 0.05200
C 	C 	0.95415 0.99695 0.98060 0.10500
H 	H 	0.86490 0.03165 0.02349 -0.08000
H 	H 	0.90435 0.99495 0.01757 0.06300
H 	H 	0.94395 0.05208 0.95279 0.06300
H 	H 	0.90359 0.08767 0.96133 -0.07600
N 	N 	0.86951 0.56264 0.25731 -0.32500
N 	N 	0.79337 0.47371 0.24865 -0.14600
C 	C 	0.86872 0.53571 0.24103 0.04700
C 	C 	0.84542 0.51377 0.24433 -0.13700
C 	C 	0.82161 0.51982 0.26547 0.04500
C 	C 	0.82207 0.54755 0.28243 -0.13700
C 	C 	0.84630 0.56847 0.27741 0.05100
C 	C 	0.79585 0.49695 0.26940 0.09500
H 	H 	0.88510 0.53165 0.22651 -0.07800
H 	H 	0.84565 0.49495 0.23243 0.05700
H 	H 	0.80605 0.55208 0.29721 0.06200
H 	H 	0.84641 0.58767 0.28867 -0.07600
N 	N 	0.38049 0.18736 0.75731 -0.32500
N 	N 	0.45663 0.27629 0.74865 -0.14600
C 	C 	0.38128 0.21429 0.74103 0.04700
C 	C 	0.40458 0.23623 0.74433 -0.13700
C 	C 	0.42839 0.23018 0.76547 0.04500
C 	C 	0.42793 0.20245 0.78243 -0.13700
C 	C 	0.40370 0.18153 0.77741 0.05100
C 	C 	0.45415 0.25305 0.76940 0.09500
H 	H 	0.36490 0.21835 0.72651 -0.07800
H 	H 	0.40435 0.25505 0.73243 0.05700
H 	H 	0.44395 0.19792 0.79721 0.06200
H 	H 	0.40359 0.16233 0.78867 -0.07600
N 	N 	0.18736 0.75731 0.38049 -0.32500
N 	N 	0.27629 0.74865 0.45663 -0.14600
C 	C 	0.21429 0.74103 0.38128 0.04700
C 	C 	0.23623 0.74433 0.40458 -0.13700
C 	C 	0.23018 0.76547 0.42839 0.04500
C 	C 	0.20245 0.78243 0.42793 -0.13700
C 	C 	0.18153 0.77741 0.40370 0.05100
C 	C 	0.25305 0.76940 0.45415 0.09500
H 	H 	0.21835 0.72651 0.36490 -0.07800
H 	H 	0.25505 0.73243 0.40435 0.05700
H 	H 	0.19792 0.79721 0.44395 0.06200
H 	H 	0.16233 0.78867 0.40359 -0.07600
N 	N 	0.56264 0.25731 0.86951 -0.32500
N 	N 	0.47371 0.24865 0.79337 -0.14600
C 	C 	0.53571 0.24103 0.86872 0.04700
C 	C 	0.51377 0.24433 0.84542 -0.13700
C 	C 	0.51982 0.26547 0.82161 0.04500
C 	C 	0.54755 0.28243 0.82207 -0.13700
C 	C 	0.56847 0.27741 0.84630 0.05100
C 	C 	0.49695 0.26940 0.79585 0.09500
H 	H 	0.53165 0.22651 0.88510 -0.07800
H 	H 	0.49495 0.23243 0.84565 0.05700
H 	H 	0.55208 0.29721 0.80605 0.06200
H 	H 	0.58767 0.28867 0.84641 -0.07600
N 	N 	0.06264 0.99269 0.88049 -0.32300
N 	N 	0.97371 0.00135 0.95663 -0.15100
C 	C 	0.03571 0.00897 0.88128 0.04800
C 	C 	0.01377 0.00567 0.90458 -0.14800
C 	C 	0.01982 0.98453 0.92839 0.04700
C 	C 	0.04755 0.96757 0.92793 -0.13700
C 	C 	0.06847 0.97259 0.90370 0.05200
C 	C 	0.99695 0.98060 0.95415 0.10500
H 	H 	0.03165 0.02349 0.86490 -0.08000
H 	H 	0.99495 0.01757 0.90435 0.06300
H 	H 	0.05208 0.95279 0.94395 0.06300
H 	H 	0.08767 0.96133 0.90359 -0.07600
N 	N 	0.68736 0.49269 0.36951 -0.32500
N 	N 	0.77629 0.50135 0.29337 -0.14600
C 	C 	0.71429 0.50897 0.36872 0.04700
C 	C 	0.73623 0.50567 0.34542 -0.13700
C 	C 	0.73018 0.48453 0.32161 0.04500
C 	C 	0.70245 0.46757 0.32207 -0.13700
C 	C 	0.68153 0.47259 0.34630 0.05100
C 	C 	0.75305 0.48060 0.29585 0.09500
H 	H 	0.71835 0.52349 0.38510 -0.07800
H 	H 	0.75505 0.51757 0.34565 0.05700
H 	H 	0.69792 0.45279 0.30605 0.06200
H 	H 	0.66233 0.46133 0.34641 -0.07600
N 	N 	0.25731 0.86951 0.56264 -0.32500
N 	N 	0.24865 0.79337 0.47371 -0.14600
C 	C 	0.24103 0.86872 0.53571 0.04700
C 	C 	0.24433 0.84542 0.51377 -0.13700
C 	C 	0.26547 0.82161 0.51982 0.04500
C 	C 	0.28243 0.82207 0.54755 -0.13700
C 	C 	0.27741 0.84630 0.56847 0.05100
C 	C 	0.26940 0.79585 0.49695 0.09500
H 	H 	0.22651 0.88510 0.53165 -0.07800
H 	H 	0.23243 0.84565 0.49495 0.05700
H 	H 	0.29721 0.80605 0.55208 0.06200
H 	H 	0.28867 0.84641 0.58767 -0.07600
N 	N 	0.75731 0.38049 0.18736 -0.32500
N 	N 	0.74865 0.45663 0.27629 -0.14600
C 	C 	0.74103 0.38128 0.21429 0.04700
C 	C 	0.74433 0.40458 0.23623 -0.13700
C 	C 	0.76547 0.42839 0.23018 0.04500
C 	C 	0.78243 0.42793 0.20245 -0.13700
C 	C 	0.77741 0.40370 0.18153 0.05100
C 	C 	0.76940 0.45415 0.25305 0.09500
H 	H 	0.72651 0.36490 0.21835 -0.07800
H 	H 	0.73243 0.40435 0.25505 0.05700
H 	H 	0.79721 0.44395 0.19792 0.06200
H 	H 	0.78867 0.40359 0.16233 -0.07600
N 	N 	0.49269 0.36951 0.68736 -0.32500
N 	N 	0.50135 0.29337 0.77629 -0.14600
C 	C 	0.50897 0.36872 0.71429 0.04700
C 	C 	0.50567 0.34542 0.73623 -0.13700
C 	C 	0.48453 0.32161 0.73018 0.04500
C 	C 	0.46757 0.32207 0.70245 -0.13700
C 	C 	0.47259 0.34630 0.68153 0.05100
C 	C 	0.48060 0.29585 0.75305 0.09500
H 	H 	0.52349 0.38510 0.71835 -0.07800
H 	H 	0.51757 0.34565 0.75505 0.05700
H 	H 	0.45279 0.30605 0.69792 0.06200
H 	H 	0.46133 0.34641 0.66233 -0.07600
N 	N 	0.99269 0.88049 0.06264 -0.32300
N 	N 	0.00135 0.95663 0.97371 -0.15100
C 	C 	0.00897 0.88128 0.03571 0.04800
C 	C 	0.00567 0.90458 0.01377 -0.14800
C 	C 	0.98453 0.92839 0.01982 0.04700
C 	C 	0.96757 0.92793 0.04755 -0.13700
C 	C 	0.97259 0.90370 0.06847 0.05200
C 	C 	0.98060 0.95415 0.99695 0.10500
H 	H 	0.02349 0.86490 0.03165 -0.08000
H 	H 	0.01757 0.90435 0.99495 0.06300
H 	H 	0.95279 0.94395 0.05208 0.06300
H 	H 	0.96133 0.90359 0.08767 -0.07600
Zn	Zn	0.40544 0.65544 0.50000 1.08600
Zn	Zn	0.84456 0.09456 -0.00000 1.08400
Zn	Zn	0.34456 0.15544 0.75000 1.08500
Zn	Zn	0.90544 0.59456 0.25000 1.08600
Zn	Zn	0.50000 0.40544 0.65544 1.08600
Zn	Zn	-0.00000 0.84456 0.09456 1.08400
Zn	Zn	0.75000 0.34456 0.15544 1.08500
Zn	Zn	0.25000 0.90544 0.59456 1.08600
Zn	Zn	0.65544 0.50000 0.40544 1.08600
Zn	Zn	0.09456 0.00000 0.84456 1.08400
Zn	Zn	0.15544 0.75000 0.34456 1.08500
Zn	Zn	0.59456 0.25000 0.90544 1.08600
N 	N 	0.43736 0.11951 0.00731 -0.32700
N 	N 	0.52629 0.04337 0.99865 -0.14100
C 	C 	0.46429 0.11872 0.99103 0.04900
C 	C 	0.48623 0.09542 0.99433 -0.13200
C 	C 	0.48018 0.07161 0.01547 0.04000
C 	C 	0.45245 0.07207 0.03243 -0.13600
C 	C 	0.43153 0.09630 0.02741 0.04900
C 	C 	0.50305 0.04585 0.01940 0.09200
H 	H 	0.46835 0.13510 0.97651 -0.07800
H 	H 	0.50505 0.09565 0.98243 0.05600
H 	H 	0.44792 0.05605 0.04721 0.06100
H 	H 	0.41233 0.09641 0.03867 -0.07600
N 	N 	0.81264 0.63049 0.50731 -0.32500
N 	N 	0.72371 0.70663 0.49865 -0.14600
C 	C 	0.78571 0.63128 0.49103 0.04700
C 	C 	0.76377 0.65458 0.49433 -0.13700
C 	C 	0.76982 0.67839 0.51547 0.04500
C 	C 	0.79755 0.67793 0.53243 -0.13700
C 	C 	0.81847 0.65370 0.52741 0.05100
C 	C 	0.74695 0.70415 0.51940 0.09500
H 	H 	0.78165 0.61490 0.47651 -0.07800
H 	H 	0.74495 0.65435 0.48243 0.05700
H 	H 	0.80208 0.69395 0.54721 0.06200
H 	H 	0.83767 0.65359 0.53867 -0.07600
N 	N 	0.31264 0.61951 0.24269 -0.32500
N 	N 	0.22371 0.54337 0.25135 -0.14600
C 	C 	0.28571 0.61872 0.25897 0.04700
C 	C 	0.26377 0.59542 0.25567 -0.13700
C 	C 	0.26982 0.57161 0.23453 0.04500
C 	C 	0.29755 0.57207 0.21757 -0.13700
C 	C 	0.31847 0.59630 0.22259 0.05100
C 	C 	0.24695 0.54585 0.23060 0.09500
H 	H 	0.28165 0.63510 0.27349 -0.07800
H 	H 	0.24495 0.59565 0.26757 0.05700
H 	H 	0.30208 0.55605 0.20279 0.06200
H 	H 	0.33767 0.59641 0.21133 -0.07600
N 	N 	0.93736 0.13049 0.74269 -0.32500
N 	N 	0.02629 0.20663 0.75135 -0.14500
C 	C 	0.96429 0.13128 0.75897 0.04400
C 	C 	0.98623 0.15458 0.75567 -0.13000
C 	C 	0.98018 0.17839 0.73453 0.04700
C 	C 	0.95245 0.17793 0.71757 -0.13800
C 	C 	0.93153 0.15370 0.72259 0.05100
C 	C 	0.00305 0.20415 0.73060 0.08900
H 	H 	0.96835 0.11490 0.77349 -0.07700
H 	H 	0.00505 0.15435 0.76757 0.05200
H 	H 	0.94792 0.19395 0.70279 0.06300
H 	H 	0.91233 0.15359 0.71133 -0.07600
N 	N 	0.50731 0.93736 0.11951 -0.32500
N 	N 	0.49865 0.02629 0.04337 -0.14500
C 	C 	0.49103 0.96429 0.11872 0.04400
C 	C 	0.49433 0.98623 0.09542 -0.13000
C 	C 	0.51547 0.98018 0.07161 0.04700
C 	C 	0.53243 0.95245 0.07207 -0.13800
C 	C 	0.52741 0.93153 0.09630 0.05100
C 	C 	0.51940 0.00305 0.04585 0.08800
H 	H 	0.47651 0.96835 0.13510 -0.07600
H 	H 	0.48243 0.00505 0.09565 0.05200
H 	H 	0.54721 0.94792 0.05605 0.06300
H 	H 	0.53867 0.91233 0.09641 -0.07600
N 	N 	0.00731 0.31264 0.63049 -0.32700
N 	N 	0.99865 0.22371 0.70663 -0.14100
C 	C 	0.99103 0.28571 0.63128 0.04900
C 	C 	0.99433 0.26377 0.65458 -0.13200
C 	C 	0.01547 0.26982 0.67839 0.04000
C 	C 	0.03243 0.29755 0.67793 -0.13600
C 	C 	0.02741 0.31847 0.65370 0.04900
C 	C 	0.01940 0.24695 0.70415 0.09300
H 	H 	0.97651 0.28165 0.61490 -0.07800
H 	H 	0.98243 0.24495 0.65435 0.05600
H 	H 	0.04721 0.30208 0.69395 0.06200
H 	H 	0.03867 0.33767 0.65359 -0.07600
N 	N 	0.74269 0.81264 0.61951 -0.32500
N 	N 	0.75135 0.72371 0.54337 -0.14600
C 	C 	0.75897 0.78571 0.61872 0.04700
C 	C 	0.75567 0.76377 0.59542 -0.13700
C 	C 	0.73453 0.76982 0.57161 0.04500
C 	C 	0.71757 0.79755 0.57207 -0.13700
C 	C 	0.72259 0.81847 0.59630 0.05100
C 	C 	0.73060 0.74695 0.54585 0.09500
H 	H 	0.77349 0.78165 0.63510 -0.07800
H 	H 	0.76757 0.74495 0.59565 0.05700
H 	H 	0.70279 0.80208 0.55605 0.06200
H 	H 	0.71133 0.83767 0.59641 -0.07600
N 	N 	0.24269 0.43736 0.13049 -0.32500
N 	N 	0.25135 0.52629 0.20663 -0.14600
C 	C 	0.25897 0.46429 0.13128 0.04700
C 	C 	0.25567 0.48623 0.15458 -0.13700
C 	C 	0.23453 0.48018 0.17839 0.04500
C 	C 	0.21757 0.45245 0.17793 -0.13700
C 	C 	0.22259 0.43153 0.15370 0.05000
C 	C 	0.23060 0.50305 0.20415 0.09500
H 	H 	0.27349 0.46835 0.11490 -0.07800
H 	H 	0.26757 0.50505 0.15435 0.05700
H 	H 	0.20279 0.44792 0.19395 0.06200
H 	H 	0.21133 0.41233 0.15359 -0.07600
N 	N 	0.61951 0.00731 0.93736 -0.32600
N 	N 	0.54337 0.99865 0.02629 -0.14100
C 	C 	0.61872 0.99103 0.96429 0.04600
C 	C 	0.59542 0.99433 0.98623 -0.12500
C 	C 	0.57161 0.01547 0.98018 0.04200
C 	C 	0.57207 0.03243 0.95245 -0.13700
C 	C 	0.59630 0.02741 0.93153 0.04900
C 	C 	0.54585 0.01940 0.00305 0.08600
H 	H 	0.63510 0.97651 0.96835 -0.07600
H 	H 	0.59565 0.98243 0.00505 0.05100
H 	H 	0.55605 0.04721 0.94792 0.06200
H 	H 	0.59641 0.03867 0.91233 -0.07600
N 	N 	0.13049 0.50731 0.31264 -0.32500
N 	N 	0.20663 0.49865 0.22371 -0.14600
C 	C 	0.13128 0.49103 0.28571 0.04700
C 	C 	0.15458 0.49433 0.26377 -0.13700
C 	C 	0.17839 0.51547 0.26982 0.04500
C 	C 	0.17793 0.53243 0.29755 -0.13700
C 	C 	0.15370 0.52741 0.31847 0.05100
C 	C 	0.20415 0.51940 0.24695 0.09500
H 	H 	0.11490 0.47651 0.28165 -0.07800
H 	H 	0.15435 0.48243 0.24495 0.05700
H 	H 	0.19395 0.54721 0.30208 0.06200
H 	H 	0.15359 0.53867 0.33767 -0.07600
N 	N 	0.11951 0.24269 0.81264 -0.32500
N 	N 	0.04337 0.25135 0.72371 -0.14500
C 	C 	0.11872 0.25897 0.78571 0.04700
C 	C 	0.09542 0.25567 0.76377 -0.13700
C 	C 	0.07161 0.23453 0.76982 0.04400
C 	C 	0.07207 0.21757 0.79755 -0.13700
C 	C 	0.09630 0.22259 0.81847 0.05000
C 	C 	0.04585 0.23060 0.74695 0.09400
H 	H 	0.13510 0.27349 0.78165 -0.07800
H 	H 	0.09565 0.26757 0.74495 0.05700
H 	H 	0.05605 0.20279 0.80208 0.06200
H 	H 	0.09641 0.21133 0.83767 -0.07600
N 	N 	0.63049 0.74269 0.43736 -0.32500
N 	N 	0.70663 0.75135 0.52629 -0.14600
C 	C 	0.63128 0.75897 0.46429 0.04700
C 	C 	0.65458 0.75567 0.48623 -0.13700
C 	C 	0.67839 0.73453 0.48018 0.04500
C 	C 	0.67793 0.71757 0.45245 -0.13700
C 	C 	0.65370 0.72259 0.43153 0.05100
C 	C 	0.70415 0.73060 0.50305 0.09500
H 	H 	0.61490 0.77349 0.46835 -0.07800
H 	H 	0.65435 0.76757 0.50505 0.05700
H 	H 	0.69395 0.70279 0.44792 0.06200
H 	H 	0.65359 0.71133 0.41233 -0.07600
N 	N 	0.36951 0.18736 0.99269 -0.32300
N 	N 	0.29337 0.27629 0.00135 -0.15000
C 	C 	0.36872 0.21429 0.00897 0.04500
C 	C 	0.34542 0.23623 0.00567 -0.14200
C 	C 	0.32161 0.23018 0.98453 0.04900
C 	C 	0.32207 0.20245 0.96757 -0.13800
C 	C 	0.34630 0.18153 0.97259 0.05200
C 	C 	0.29585 0.25305 0.98060 0.09800
H 	H 	0.38510 0.21835 0.02349 -0.07800
H 	H 	0.34565 0.25505 0.01757 0.05800
H 	H 	0.30605 0.19792 0.95279 0.06300
H 	H 	0.34641 0.16233 0.96133 -0.07600
N 	N 	0.88049 0.56264 0.49269 -0.32500
N 	N 	0.95663 0.47371 0.50135 -0.14600
C 	C 	0.88128 0.53571 0.50897 0.04700
C 	C 	0.90458 0.51377 0.50567 -0.13700
C 	C 	0.92839 0.51982 0.48453 0.04500
C 	C 	0.92793 0.54755 0.46757 -0.13700
C 	C 	0.90370 0.56847 0.47259 0.05100
C 	C 	0.95415 0.49695 0.48060 0.09600
H 	H 	0.86490 0.53165 0.52349 -0.07800
H 	H 	0.90435 0.49495 0.51757 0.05700
H 	H 	0.94395 0.55208 0.45279 0.06300
H 	H 	0.90359 0.58767 0.46133 -0.07600
N 	N 	0.86951 0.06264 0.75731 -0.32600
N 	N 	0.79337 0.97371 0.74865 -0.14600
C 	C 	0.86872 0.03571 0.74103 0.05000
C 	C 	0.84542 0.01377 0.74433 -0.14400
C 	C 	0.82161 0.01982 0.76547 0.04200
C 	C 	0.82207 0.04755 0.78243 -0.13600
C 	C 	0.84630 0.06847 0.77741 0.05000
C 	C 	0.79585 0.99695 0.76940 0.10200
H 	H 	0.88510 0.03165 0.72651 -0.08000
H 	H 	0.84565 0.99495 0.73243 0.06200
H 	H 	0.80605 0.05208 0.79721 0.06200
H 	H 	0.84641 0.08767 0.78867 -0.07600
N 	N 	0.38049 0.68736 0.25731 -0.32500
N 	N 	0.45663 0.77629 0.24865 -0.14600
C 	C 	0.38128 0.71429 0.24103 0.04700
C 	C 	0.40458 0.73623 0.24433 -0.13700
C 	C 	0.42839 0.73018 0.26547 0.04500
C 	C 	0.42793 0.70245 0.28243 -0.13700
C 	C 	0.40370 0.68153 0.27741 0.05100
C 	C 	0.45415 0.75305 0.26940 0.09500
H 	H 	0.36490 0.71835 0.22651 -0.07800
H 	H 	0.40435 0.75505 0.23243 0.05700
H 	H 	0.44395 0.69792 0.29721 0.06200
H 	H 	0.40359 0.66233 0.28867 -0.07600
N 	N 	0.18736 0.25731 0.88049 -0.32500
N 	N 	0.27629 0.24865 0.95663 -0.14600
C 	C 	0.21429 0.24103 0.88128 0.04700
C 	C 	0.23623 0.24433 0.90458 -0.13700
C 	C 	0.23018 0.26547 0.92839 0.04500
C 	C 	0.20245 0.28243 0.92793 -0.13700
C 	C 	0.18153 0.27741 0.90370 0.05100
C 	C 	0.25305 0.26940 0.95415 0.09600
H 	H 	0.21835 0.22651 0.86490 -0.07800
H 	H 	0.25505 0.23243 0.90435 0.05700
H 	H 	0.19792 0.29721 0.94395 0.06300
H 	H 	0.16233 0.28867 0.90359 -0.07600
N 	N 	0.56264 0.75731 0.36951 -0.32500
N 	N 	0.47371 0.74865 0.29337 -0.14600
C 	C 	0.53571 0.74103 0.36872 0.04700
C 	C 	0.51377 0.74433 0.34542 -0.13700
C 	C 	0.51982 0.76547 0.32161 0.04500
C 	C 	0.54755 0.78243 0.32207 -0.13700
C 	C 	0.56847 0.77741 0.34630 0.05100
C 	C 	0.49695 0.76940 0.29585 0.09500
H 	H 	0.53165 0.72651 0.38510 -0.07800
H 	H 	0.49495 0.73243 0.34565 0.05700
H 	H 	0.55208 0.79721 0.30605 0.06200
H 	H 	0.58767 0.78867 0.34641 -0.07600
N 	N 	0.06264 0.49269 0.38049 -0.32600
N 	N 	0.97371 0.50135 0.45663 -0.14600
C 	C 	0.03571 0.50897 0.38128 0.05000
C 	C 	0.01377 0.50567 0.40458 -0.14400
C 	C 	0.01982 0.48453 0.42839 0.04200
C 	C 	0.04755 0.46757 0.42793 -0.13600
C 	C 	0.06847 0.47259 0.40370 0.05000
C 	C 	0.99695 0.48060 0.45415 0.10200
H 	H 	0.03165 0.52349 0.36490 -0.08000
H 	H 	0.99495 0.51757 0.40435 0.06200
H 	H 	0.05208 0.45279 0.44395 0.06200
H 	H 	0.08767 0.46133 0.40359 -0.07600
N 	N 	0.68736 0.99269 0.86951 -0.32300
N 	N 	0.77629 0.00135 0.79337 -0.15000
C 	C 	0.71429 0.00897 0.86872 0.04500
C 	C 	0.73623 0.00567 0.84542 -0.14200
C 	C 	0.73018 0.98453 0.82161 0.04900
C 	C 	0.70245 0.96757 0.82207 -0.13800
C 	C 	0.68153 0.97259 0.84630 0.05200
C 	C 	0.75305 0.98060 0.79585 0.09800
H 	H 	0.71835 0.02349 0.88510 -0.07800
H 	H 	0.75505 0.01757 0.84565 0.05800
H 	H 	0.69792 0.95279 0.80605 0.06300
H 	H 	0.66233 0.96133 0.84641 -0.07600
N 	N 	0.25731 0.36951 0.06264 -0.32600
N 	N 	0.24865 0.29337 0.97371 -0.14600
C 	C 	0.24103 0.36872 0.03571 0.05000
C 	C 	0.24433 0.34542 0.01377 -0.14400
C 	C 	0.26547 0.32161 0.01982 0.04200
C 	C 	0.28243 0.32207 0.04755 -0.13600
C 	C 	0.27741 0.34630 0.06847 0.05000
C 	C 	0.26940 0.29585 0.99695 0.10200
H 	H 	0.22651 0.38510 0.03165 -0.08000
H 	H 	0.23243 0.34565 0.99495 0.06200
H 	H 	0.29721 0.30605 0.05208 0.06200
H 	H 	0.28867 0.34641 0.08767 -0.07600
N 	N 	0.75731 0.88049 0.68736 -0.32500
N 	N 	0.74865 0.95663 0.77629 -0.14600
C 	C 	0.74103 0.88128 0.71429 0.04700
C 	C 	0.74433 0.90458 0.73623 -0.13700
C 	C 	0.76547 0.92839 0.73018 0.04500
C 	C 	0.78243 0.92793 0.70245 -0.13700
C 	C 	0.77741 0.90370 0.68153 0.05100
C 	C 	0.76940 0.95415 0.75305 0.09600
H 	H 	0.72651 0.86490 0.71835 -0.07800
H 	H 	0.73243 0.90435 0.75505 0.05700
H 	H 	0.79721 0.94395 0.69792 0.06300
H 	H 	0.78867 0.90359 0.66233 -0.07600
N 	N 	0.49269 0.86951 0.18736 -0.32500
N 	N 	0.50135 0.79337 0.27629 -0.14600
C 	C 	0.50897 0.86872 0.21429 0.04700
C 	C 	0.50567 0.84542 0.23623 -0.13700
C 	C 	0.48453 0.82161 0.23018 0.04500
C 	C 	0.46757 0.82207 0.20245 -0.13700
C 	C 	0.47259 0.84630 0.18153 0.05100
C 	C 	0.48060 0.79585 0.25305 0.09500
H 	H 	0.52349 0.88510 0.21835 -0.07800
H 	H 	0.51757 0.84565 0.25505 0.05700
H 	H 	0.45279 0.80605 0.19792 0.06200
H 	H 	0.46133 0.84641 0.16233 -0.07600
N 	N 	0.99269 0.38049 0.56264 -0.32300
N 	N 	0.00135 0.45663 0.47371 -0.15000
C 	C 	0.00897 0.38128 0.53571 0.04500
C 	C 	0.00567 0.40458 0.51377 -0.14200
C 	C 	0.98453 0.42839 0.51982 0.04900
C 	C 	0.96757 0.42793 0.54755 -0.13800
C 	C 	0.97259 0.40370 0.56847 0.05200
C 	C 	0.98060 0.45415 0.49695 0.09800
H 	H 	0.02349 0.36490 0.53165 -0.07800
H 	H 	0.01757 0.40435 0.49495 0.05800
H 	H 	0.95279 0.44395 0.55208 0.06300
H 	H 	0.96133 0.40359 0.58767 -0.07600
Zn	Zn	0.40544 0.15544 -0.00000 1.08400
Zn	Zn	0.84456 0.59456 0.50000 1.08600
Zn	Zn	0.34456 0.65544 0.25000 1.08600
Zn	Zn	0.90544 0.09456 0.75000 1.08600
Zn	Zn	0.50000 0.90544 0.15544 1.08600
Zn	Zn	-0.00000 0.34456 0.59456 1.08400
Zn	Zn	0.75000 0.84456 0.65544 1.08600
Zn	Zn	0.25000 0.40544 0.09456 1.08500
Zn	Zn	0.65544 -0.00000 0.90544 1.08500
Zn	Zn	0.09456 0.50000 0.34456 1.08500
Zn	Zn	0.15544 0.25000 0.84456 1.08600
Zn	Zn	0.59456 0.75000 0.40544 1.08600
