data_crystal

_cell_length_a 17.30880
_cell_length_b 17.42770
_cell_length_c 7.89490
_cell_angle_alpha 90.00000
_cell_angle_beta  90.00000
_cell_angle_gamma 90.00000

_symmetry_space_group_name_	'P 1'
_symmetry_space_group_name_H-M	'P 1'

loop_
_symmetry_equiv_pos_as_xyz
  x,y,z

loop_
_atom_site_label
_atom_site_type_symbol
_atom_site_fract_x
_atom_site_fract_y
_atom_site_fract_z
_atom_site_charge
Ca	Ca	0.91951 0.30382 0.17959 1.50300
O 	O 	0.92750 0.62770 0.54770 -0.23500
O 	O 	0.97820 0.61030 0.80410 -0.41800
O 	O 	0.84327 0.36129 0.98340 -0.58900
O 	O 	0.82114 0.28608 0.68460 -0.64600
O 	O 	0.84481 0.35802 0.38310 -0.59100
C 	C 	0.94120 0.58570 0.67800 0.27800
C 	C 	0.91020 0.50630 0.68000 0.02200
C 	C 	0.89560 0.46990 0.83560 -0.21200
H 	H 	0.90760 0.49470 0.93650 0.07800
C 	C 	0.86300 0.39630 0.83870 0.13900
C 	C 	0.84920 0.35840 0.68220 -0.07400
C 	C 	0.86330 0.39470 0.52680 0.14100
C 	C 	0.89430 0.46900 0.52790 -0.20700
H 	H 	0.90440 0.49370 0.42590 0.07700
O 	O 	0.99240 0.25510 0.92660 -0.41100
K 	K 	0.78394 0.48207 0.18251 0.63200
O 	O 	0.73240 0.59180 0.94160 -0.23100
Ca	Ca	0.58049 0.19618 0.17959 1.50300
O 	O 	0.57250 0.87230 0.54770 -0.23600
O 	O 	0.52180 0.88970 0.80410 -0.42000
O 	O 	0.65673 0.13871 0.98340 -0.58900
O 	O 	0.67886 0.21392 0.68460 -0.64600
O 	O 	0.65519 0.14198 0.38310 -0.59100
C 	C 	0.55880 0.91430 0.67800 0.27800
C 	C 	0.58980 0.99370 0.68000 0.02400
C 	C 	0.60440 0.03010 0.83560 -0.21200
H 	H 	0.59240 0.00530 0.93650 0.07900
C 	C 	0.63700 0.10370 0.83870 0.14000
C 	C 	0.65080 0.14160 0.68220 -0.07400
C 	C 	0.63670 0.10530 0.52680 0.14200
C 	C 	0.60570 0.03100 0.52790 -0.20800
H 	H 	0.59560 0.00630 0.42590 0.07800
O 	O 	0.50760 0.24490 0.92660 -0.41100
K 	K 	0.71606 0.01793 0.18251 0.63100
O 	O 	0.76760 0.90820 0.94160 -0.23100
Ca	Ca	0.08049 0.80382 0.32041 1.50300
O 	O 	0.07250 0.12770 0.95230 -0.23300
O 	O 	0.02180 0.11030 0.69590 -0.41600
O 	O 	0.15673 0.86129 0.51660 -0.59200
O 	O 	0.17886 0.78608 0.81540 -0.64700
O 	O 	0.15519 0.85802 0.11690 -0.59000
C 	C 	0.05880 0.08570 0.82200 0.27100
C 	C 	0.08980 0.00630 0.82000 0.04400
C 	C 	0.10440 0.96990 0.66440 -0.22900
H 	H 	0.09240 0.99470 0.56350 0.08200
C 	C 	0.13700 0.89630 0.66130 0.14600
C 	C 	0.15080 0.85840 0.81780 -0.07900
C 	C 	0.13670 0.89470 0.97320 0.14600
C 	C 	0.10570 0.96900 0.97210 -0.23200
H 	H 	0.09560 0.99370 0.07410 0.08700
O 	O 	0.00760 0.75510 0.57340 -0.41400
K 	K 	0.21606 0.98207 0.31749 0.63200
O 	O 	0.26760 0.09180 0.55840 -0.23000
Ca	Ca	0.41951 0.69618 0.32041 1.50300
O 	O 	0.42750 0.37230 0.95230 -0.23600
O 	O 	0.47820 0.38970 0.69590 -0.41900
O 	O 	0.34327 0.63871 0.51660 -0.59000
O 	O 	0.32114 0.71392 0.81540 -0.64800
O 	O 	0.34481 0.64198 0.11690 -0.58900
C 	C 	0.44120 0.41430 0.82200 0.27800
C 	C 	0.41020 0.49370 0.82000 0.02200
C 	C 	0.39560 0.53010 0.66440 -0.21200
H 	H 	0.40760 0.50530 0.56350 0.07800
C 	C 	0.36300 0.60370 0.66130 0.13900
C 	C 	0.34920 0.64160 0.81780 -0.07400
C 	C 	0.36330 0.60530 0.97320 0.13900
C 	C 	0.39430 0.53100 0.97210 -0.20800
H 	H 	0.40440 0.50630 0.07410 0.07800
O 	O 	0.49240 0.74490 0.57340 -0.41100
K 	K 	0.28394 0.51793 0.31749 0.63200
O 	O 	0.23240 0.40820 0.55840 -0.23200
Ca	Ca	0.08049 0.69618 0.82041 1.50200
O 	O 	0.07250 0.37230 0.45230 -0.23600
O 	O 	0.02180 0.38970 0.19590 -0.41800
O 	O 	0.15673 0.63871 0.01660 -0.58900
O 	O 	0.17886 0.71392 0.31540 -0.64600
O 	O 	0.15519 0.64198 0.61690 -0.59100
C 	C 	0.05880 0.41430 0.32200 0.27800
C 	C 	0.08980 0.49370 0.32000 0.02200
C 	C 	0.10440 0.53010 0.16440 -0.21200
H 	H 	0.09240 0.50530 0.06350 0.07800
C 	C 	0.13700 0.60370 0.16130 0.13900
C 	C 	0.15080 0.64160 0.31780 -0.07400
C 	C 	0.13670 0.60530 0.47320 0.14100
C 	C 	0.10570 0.53100 0.47210 -0.20700
H 	H 	0.09560 0.50630 0.57410 0.07700
O 	O 	0.00760 0.74490 0.07340 -0.41100
K 	K 	0.21606 0.51793 0.81749 0.63200
O 	O 	0.26760 0.40820 0.05840 -0.23100
Ca	Ca	0.41951 0.80382 0.82041 1.50300
O 	O 	0.42750 0.12770 0.45230 -0.23600
O 	O 	0.47820 0.11030 0.19590 -0.42000
O 	O 	0.34327 0.86129 0.01660 -0.58900
O 	O 	0.32114 0.78608 0.31540 -0.64600
O 	O 	0.34481 0.85802 0.61690 -0.59100
C 	C 	0.44120 0.08570 0.32200 0.27800
C 	C 	0.41020 0.00630 0.32000 0.02400
C 	C 	0.39560 0.96990 0.16440 -0.21200
H 	H 	0.40760 0.99470 0.06350 0.07900
C 	C 	0.36300 0.89630 0.16130 0.14000
C 	C 	0.34920 0.85840 0.31780 -0.07400
C 	C 	0.36330 0.89470 0.47320 0.14200
C 	C 	0.39430 0.96900 0.47210 -0.20800
H 	H 	0.40440 0.99370 0.57410 0.07800
O 	O 	0.49240 0.75510 0.07340 -0.41100
K 	K 	0.28394 0.98207 0.81749 0.63100
O 	O 	0.23240 0.09180 0.05840 -0.23100
Ca	Ca	0.91951 0.19618 0.67959 1.50300
O 	O 	0.92750 0.87230 0.04770 -0.23300
O 	O 	0.97820 0.88970 0.30410 -0.41600
O 	O 	0.84327 0.13871 0.48340 -0.59200
O 	O 	0.82114 0.21392 0.18460 -0.64700
O 	O 	0.84481 0.14198 0.88310 -0.59000
C 	C 	0.94120 0.91430 0.17800 0.27100
C 	C 	0.91020 0.99370 0.18000 0.04400
C 	C 	0.89560 0.03010 0.33560 -0.22900
H 	H 	0.90760 0.00530 0.43650 0.08200
C 	C 	0.86300 0.10370 0.33870 0.14600
C 	C 	0.84920 0.14160 0.18220 -0.07900
C 	C 	0.86330 0.10530 0.02680 0.14600
C 	C 	0.89430 0.03100 0.02790 -0.23200
H 	H 	0.90440 0.00630 0.92590 0.08700
O 	O 	0.99240 0.24490 0.42660 -0.41400
K 	K 	0.78394 0.01793 0.68251 0.63200
O 	O 	0.73240 0.90820 0.44160 -0.23000
Ca	Ca	0.58049 0.30382 0.67959 1.50300
O 	O 	0.57250 0.62770 0.04770 -0.23600
O 	O 	0.52180 0.61030 0.30410 -0.41900
O 	O 	0.65673 0.36129 0.48340 -0.59000
O 	O 	0.67886 0.28608 0.18460 -0.64800
O 	O 	0.65519 0.35802 0.88310 -0.58900
C 	C 	0.55880 0.58570 0.17800 0.27800
C 	C 	0.58980 0.50630 0.18000 0.02200
C 	C 	0.60440 0.46990 0.33560 -0.21200
H 	H 	0.59240 0.49470 0.43650 0.07800
C 	C 	0.63700 0.39630 0.33870 0.13900
C 	C 	0.65080 0.35840 0.18220 -0.07400
C 	C 	0.63670 0.39470 0.02680 0.13900
C 	C 	0.60570 0.46900 0.02790 -0.20800
H 	H 	0.59560 0.49370 0.92590 0.07800
O 	O 	0.50760 0.25510 0.42660 -0.41100
K 	K 	0.71606 0.48207 0.68251 0.63200
O 	O 	0.76760 0.59180 0.44160 -0.23200
Ca	Ca	0.75000 0.25000 0.93378 1.49500
Ca	Ca	0.25000 0.75000 0.56622 1.49400
Ca	Ca	0.25000 0.75000 0.06622 1.49500
Ca	Ca	0.75000 0.25000 0.43378 1.49400
