data_crystal

_cell_length_a 9.40490
_cell_length_b 12.77390
_cell_length_c 8.58050
_cell_angle_alpha 90.00000
_cell_angle_beta  112.79600
_cell_angle_gamma 90.00000

_symmetry_space_group_name_	'P 1'
_symmetry_space_group_name_H-M	'P 1'

loop_
_symmetry_equiv_pos_as_xyz
  x,y,z

loop_
_atom_site_label
_atom_site_type_symbol
_atom_site_fract_x
_atom_site_fract_y
_atom_site_fract_z
_atom_site_charge
Al	Al	0.43610 0.09890 0.40840 2.40100
Al	Al	0.12630 0.38230 0.18030 2.39900
P 	P 	0.21590 0.95010 0.48180 0.74300
P 	P 	0.29410 0.21120 0.04700 0.85600
F 	F 	0.48870 0.96350 0.36630 -0.90200
O 	O 	0.38000 0.14670 0.19410 -0.67100
O 	O 	0.40580 0.27580 0.00540 -0.65800
O 	O 	0.16900 0.28010 0.07580 -0.79400
O 	O 	0.23770 0.03290 0.36920 -0.61800
O 	O 	0.34660 0.87500 0.53760 -0.53800
O 	O 	0.06680 0.88800 0.37540 -0.74000
O 	O 	0.19880 0.99700 0.63790 -0.72700
O 	O 	0.20350 0.14080 0.89550 -0.74500
Al	Al	0.56390 0.59890 0.09160 2.40000
Al	Al	0.87370 0.88230 0.31970 2.39800
P 	P 	0.78410 0.45010 0.01820 0.74000
P 	P 	0.70590 0.71120 0.45300 0.85200
F 	F 	0.51130 0.46350 0.13370 -0.90100
O 	O 	0.62000 0.64670 0.30590 -0.67100
O 	O 	0.59420 0.77580 0.49460 -0.66000
O 	O 	0.83100 0.78010 0.42420 -0.79600
O 	O 	0.76230 0.53290 0.13080 -0.61200
O 	O 	0.65340 0.37500 0.96240 -0.54000
O 	O 	0.93320 0.38800 0.12460 -0.74200
O 	O 	0.80120 0.49700 0.86210 -0.73200
O 	O 	0.79650 0.64080 0.60450 -0.74000
Al	Al	0.56390 0.90110 0.59160 2.40000
Al	Al	0.87370 0.61770 0.81970 2.39800
P 	P 	0.78410 0.04990 0.51820 0.74200
P 	P 	0.70590 0.78880 0.95300 0.85500
F 	F 	0.51130 0.03650 0.63370 -0.90200
O 	O 	0.62000 0.85330 0.80590 -0.67100
O 	O 	0.59420 0.72420 0.99460 -0.65800
O 	O 	0.83100 0.71990 0.92420 -0.79400
O 	O 	0.76230 0.96710 0.63080 -0.61800
O 	O 	0.65340 0.12500 0.46240 -0.53800
O 	O 	0.93320 0.11200 0.62460 -0.74000
O 	O 	0.80120 0.00300 0.36210 -0.72700
O 	O 	0.79650 0.85920 0.10450 -0.74500
Al	Al	0.43610 0.40110 0.90840 2.40000
Al	Al	0.12630 0.11770 0.68030 2.39800
P 	P 	0.21590 0.54990 0.98180 0.74000
P 	P 	0.29410 0.28880 0.54700 0.85200
F 	F 	0.48870 0.53650 0.86630 -0.90100
O 	O 	0.38000 0.35330 0.69410 -0.67100
O 	O 	0.40580 0.22420 0.50540 -0.66000
O 	O 	0.16900 0.21990 0.57580 -0.79600
O 	O 	0.23770 0.46710 0.86920 -0.61200
O 	O 	0.34660 0.62500 0.03760 -0.54000
O 	O 	0.06680 0.61200 0.87540 -0.74200
O 	O 	0.19880 0.50300 0.13790 -0.73200
O 	O 	0.20350 0.35920 0.39550 -0.74000
