data_crystal

_cell_length_a 18.77700
_cell_length_b 8.74230
_cell_length_c 29.73300
_cell_angle_alpha 90.00000
_cell_angle_beta  90.22500
_cell_angle_gamma 90.00000

_symmetry_space_group_name_	'P 1'
_symmetry_space_group_name_H-M	'P 1'

loop_
_symmetry_equiv_pos_as_xyz
  x,y,z

loop_
_atom_site_label
_atom_site_type_symbol
_atom_site_fract_x
_atom_site_fract_y
_atom_site_fract_z
_atom_site_charge
Zn	Zn	0.18267 0.72069 0.24934 1.24500
O 	O 	0.10890 0.41880 0.23759 -0.30000
C 	C 	0.12770 0.47440 0.20210 0.34200
O 	O 	0.14720 0.61310 0.19594 -0.44400
C 	C 	0.13060 0.37850 0.15920 -0.14800
H 	H 	0.10610 0.43290 0.13530 0.07900
H 	H 	0.17990 0.36620 0.15030 0.10800
O 	O 	0.09910 0.23120 0.16432 -0.24900
C 	C 	0.02590 0.22590 0.16480 0.45500
O 	O 	0.28870 0.67040 0.23904 -0.39900
C 	C 	0.98120 0.35110 0.16150 -0.57200
H 	H 	0.00020 0.44930 0.16100 0.21600
O 	O 	0.28500 0.43080 0.26437 -0.43900
C 	C 	0.90760 0.33100 0.15900 0.55800
O 	O 	0.41920 0.38220 0.24594 -0.34500
C 	C 	0.87890 0.18400 0.16090 -0.50400
O 	O 	0.67370 0.78090 0.92648 -0.25600
C 	C 	0.92340 0.05690 0.16750 0.52800
O 	O 	0.68260 0.63590 0.84646 -0.28800
C 	C 	0.99700 0.07900 0.16880 -0.54900
H 	H 	0.02710 0.99540 0.17230 0.23200
O 	O 	0.66590 0.85670 0.80962 -0.43800
C 	C 	0.86130 0.46880 0.15320 -1.07100
H 	H 	0.89060 0.55710 0.14810 0.31600
H 	H 	0.83350 0.48380 0.17980 0.31700
H 	H 	0.83020 0.45380 0.12790 0.32300
C 	C 	0.89500 0.89520 0.17200 -1.00800
H 	H 	0.88010 0.85850 0.14300 0.29800
H 	H 	0.85510 0.89470 0.19210 0.30900
H 	H 	0.93170 0.82980 0.18370 0.31300
C 	C 	0.80130 0.15870 0.15020 0.37500
C 	C 	0.74500 0.20470 0.17750 -0.47000
H 	H 	0.75490 0.24980 0.20520 0.16200
C 	C 	0.67510 0.18490 0.16440 0.37500
C 	C 	0.66070 0.11250 0.12280 -0.45000
H 	H 	0.61380 0.09590 0.11400 0.17400
C 	C 	0.71640 0.06560 0.09490 0.36800
C 	C 	0.78630 0.08810 0.10890 -0.45300
H 	H 	0.82360 0.05600 0.09070 0.17400
C 	C 	0.61250 0.23890 0.19090 -0.49600
C 	C 	0.59820 0.39530 0.19340 0.51200
C 	C 	0.53310 0.44700 0.21240 -0.54700
H 	H 	0.52290 0.55100 0.21390 0.21000
C 	C 	0.48560 0.34140 0.22860 0.45600
C 	C 	0.50050 0.18590 0.22830 -0.57200
H 	H 	0.46830 0.11660 0.24040 0.22700
C 	C 	0.56440 0.13410 0.20960 0.52800
C 	C 	0.57810 0.96220 0.20920 -1.02900
H 	H 	0.55880 0.91860 0.18220 0.32100
H 	H 	0.55570 0.91620 0.23480 0.32700
H 	H 	0.62850 0.94360 0.21050 0.30900
C 	C 	0.64870 0.51340 0.17500 -0.98400
H 	H 	0.65980 0.48930 0.14430 0.29600
H 	H 	0.69170 0.51370 0.19260 0.28900
H 	H 	0.62680 0.61260 0.17640 0.28900
C 	C 	0.39510 0.53190 0.23570 -0.17800
H 	H 	0.40200 0.55300 0.20400 0.10000
H 	H 	0.42200 0.60640 0.25290 0.10800
C 	C 	0.31630 0.54350 0.24730 0.39400
C 	C 	0.70280 0.99210 0.04990 -0.47800
C 	C 	0.70930 0.83190 0.04480 0.50900
C 	C 	0.69900 0.76620 0.00300 -0.53300
H 	H 	0.70360 0.66100 0.99950 0.20600
C 	C 	0.68160 0.85730 0.96590 0.44100
C 	C 	0.67390 0.01450 0.97090 -0.54100
H 	H 	0.66180 0.07480 0.94630 0.21200
C 	C 	0.68440 0.08200 0.01330 0.53000
C 	C 	0.67850 0.25450 0.01670 -1.03300
H 	H 	0.66630 0.29610 0.98780 0.32400
H 	H 	0.72330 0.29610 0.02650 0.31800
H 	H 	0.64220 0.28060 0.03800 0.32100
C 	C 	0.73050 0.73440 0.08470 -0.97200
H 	H 	0.72860 0.62830 0.07640 0.28200
H 	H 	0.69820 0.75280 0.10910 0.29000
H 	H 	0.77800 0.76030 0.09400 0.29000
C 	C 	0.66340 0.87290 0.88690 -0.14100
H 	H 	0.69840 0.95450 0.88630 0.08600
H 	H 	0.61640 0.91880 0.88740 0.07800
C 	C 	0.67110 0.77420 0.84520 0.36000
Zn	Zn	0.31733 0.22069 0.25066 1.24600
O 	O 	0.39110 0.91880 0.26241 -0.29800
C 	C 	0.37230 0.97440 0.29790 0.34600
O 	O 	0.35280 0.11310 0.30406 -0.44700
C 	C 	0.36940 0.87850 0.34080 -0.15000
H 	H 	0.39390 0.93290 0.36470 0.08000
H 	H 	0.32010 0.86620 0.34970 0.10900
O 	O 	0.40090 0.73120 0.33568 -0.24900
C 	C 	0.47410 0.72590 0.33520 0.46000
O 	O 	0.21130 0.17040 0.26096 -0.39900
C 	C 	0.51880 0.85110 0.33850 -0.57800
H 	H 	0.49980 0.94930 0.33900 0.22000
O 	O 	0.21500 0.93080 0.23563 -0.43500
C 	C 	0.59240 0.83100 0.34100 0.55800
O 	O 	0.08080 0.88220 0.25406 -0.34200
C 	C 	0.62110 0.68400 0.33910 -0.50700
O 	O 	0.82630 0.28090 0.57352 -0.25800
C 	C 	0.57660 0.55690 0.33250 0.53400
O 	O 	0.81740 0.13590 0.65354 -0.28700
C 	C 	0.50300 0.57900 0.33120 -0.55100
H 	H 	0.47290 0.49540 0.32770 0.23100
O 	O 	0.83410 0.35670 0.69038 -0.43700
C 	C 	0.63870 0.96880 0.34680 -1.06200
H 	H 	0.60940 0.05710 0.35190 0.31200
H 	H 	0.66650 0.98380 0.32020 0.31500
H 	H 	0.66980 0.95380 0.37210 0.32100
C 	C 	0.60500 0.39520 0.32800 -1.01600
H 	H 	0.61990 0.35850 0.35700 0.30000
H 	H 	0.64490 0.39470 0.30790 0.31000
H 	H 	0.56830 0.32980 0.31630 0.31500
C 	C 	0.69870 0.65870 0.34980 0.37900
C 	C 	0.75500 0.70470 0.32250 -0.47300
H 	H 	0.74510 0.74980 0.29480 0.16300
C 	C 	0.82490 0.68490 0.33560 0.38000
C 	C 	0.83930 0.61250 0.37720 -0.45400
H 	H 	0.88620 0.59590 0.38600 0.17600
C 	C 	0.78360 0.56560 0.40510 0.37500
C 	C 	0.71370 0.58810 0.39110 -0.45700
H 	H 	0.67640 0.55600 0.40930 0.17600
C 	C 	0.88750 0.73890 0.30910 -0.50000
C 	C 	0.90180 0.89530 0.30660 0.51700
C 	C 	0.96690 0.94700 0.28760 -0.54100
H 	H 	0.97710 0.05100 0.28610 0.20600
C 	C 	0.01440 0.84140 0.27140 0.45200
C 	C 	0.99950 0.68590 0.27170 -0.57000
H 	H 	0.03170 0.61660 0.25960 0.22700
C 	C 	0.93560 0.63410 0.29040 0.53300
C 	C 	0.92190 0.46220 0.29080 -1.03700
H 	H 	0.94120 0.41860 0.31780 0.32200
H 	H 	0.94430 0.41620 0.26520 0.32900
H 	H 	0.87150 0.44360 0.28950 0.31000
C 	C 	0.85130 0.01340 0.32500 -1.00300
H 	H 	0.84020 0.98930 0.35570 0.30300
H 	H 	0.80830 0.01370 0.30740 0.29300
H 	H 	0.87320 0.11260 0.32360 0.29400
C 	C 	0.10490 0.03190 0.26430 -0.18100
H 	H 	0.09800 0.05300 0.29600 0.10000
H 	H 	0.07800 0.10640 0.24710 0.10800
C 	C 	0.18370 0.04350 0.25270 0.39100
C 	C 	0.79720 0.49210 0.45010 -0.48800
C 	C 	0.79070 0.33190 0.45520 0.51600
C 	C 	0.80100 0.26620 0.49700 -0.54300
H 	H 	0.79640 0.16100 0.50050 0.21000
C 	C 	0.81840 0.35730 0.53410 0.44900
C 	C 	0.82610 0.51450 0.52910 -0.55000
H 	H 	0.83820 0.57480 0.55370 0.21400
C 	C 	0.81560 0.58200 0.48670 0.53900
C 	C 	0.82150 0.75450 0.48330 -1.04300
H 	H 	0.83370 0.79610 0.51220 0.32700
H 	H 	0.77670 0.79610 0.47350 0.32100
H 	H 	0.85780 0.78060 0.46200 0.32400
C 	C 	0.76950 0.23440 0.41530 -0.97800
H 	H 	0.77140 0.12830 0.42360 0.28300
H 	H 	0.80180 0.25280 0.39090 0.29100
H 	H 	0.72200 0.26030 0.40600 0.29100
C 	C 	0.83660 0.37290 0.61310 -0.14000
H 	H 	0.80160 0.45450 0.61370 0.08700
H 	H 	0.88360 0.41880 0.61260 0.07800
C 	C 	0.82890 0.27420 0.65480 0.35900
Zn	Zn	0.81733 0.27931 0.75066 1.24600
O 	O 	0.89110 0.58120 0.76241 -0.29900
C 	C 	0.87230 0.52560 0.79790 0.34200
O 	O 	0.85280 0.38690 0.80406 -0.44400
C 	C 	0.86940 0.62150 0.84080 -0.14800
H 	H 	0.89390 0.56710 0.86470 0.07900
H 	H 	0.82010 0.63380 0.84970 0.10800
O 	O 	0.90090 0.76880 0.83568 -0.24900
C 	C 	0.97410 0.77410 0.83520 0.45500
O 	O 	0.71130 0.32960 0.76096 -0.39900
C 	C 	0.01880 0.64890 0.83850 -0.57200
H 	H 	0.99980 0.55070 0.83900 0.21600
O 	O 	0.71500 0.56920 0.73563 -0.43900
C 	C 	0.09240 0.66900 0.84100 0.55800
O 	O 	0.58080 0.61780 0.75406 -0.34500
C 	C 	0.12110 0.81600 0.83910 -0.50400
O 	O 	0.32630 0.21910 0.07352 -0.25600
C 	C 	0.07660 0.94310 0.83250 0.52800
O 	O 	0.31740 0.36410 0.15354 -0.28800
C 	C 	0.00300 0.92100 0.83120 -0.54900
H 	H 	0.97290 0.00460 0.82770 0.23200
O 	O 	0.33410 0.14330 0.19038 -0.43800
C 	C 	0.13870 0.53120 0.84680 -1.07100
H 	H 	0.10940 0.44290 0.85190 0.31600
H 	H 	0.16650 0.51620 0.82020 0.31700
H 	H 	0.16980 0.54620 0.87210 0.32300
C 	C 	0.10500 0.10480 0.82800 -1.00800
H 	H 	0.11990 0.14150 0.85700 0.29800
H 	H 	0.14490 0.10530 0.80790 0.30900
H 	H 	0.06830 0.17020 0.81630 0.31300
C 	C 	0.19870 0.84130 0.84980 0.37500
C 	C 	0.25500 0.79530 0.82250 -0.47000
H 	H 	0.24510 0.75020 0.79480 0.16200
C 	C 	0.32490 0.81510 0.83560 0.37500
C 	C 	0.33930 0.88750 0.87720 -0.45000
H 	H 	0.38620 0.90410 0.88600 0.17400
C 	C 	0.28360 0.93440 0.90510 0.36800
C 	C 	0.21370 0.91190 0.89110 -0.45300
H 	H 	0.17640 0.94400 0.90930 0.17400
C 	C 	0.38750 0.76110 0.80910 -0.49600
C 	C 	0.40180 0.60470 0.80660 0.51200
C 	C 	0.46690 0.55300 0.78760 -0.54700
H 	H 	0.47710 0.44900 0.78610 0.21000
C 	C 	0.51440 0.65860 0.77140 0.45600
C 	C 	0.49950 0.81410 0.77170 -0.57200
H 	H 	0.53170 0.88340 0.75960 0.22700
C 	C 	0.43560 0.86590 0.79040 0.52800
C 	C 	0.42190 0.03780 0.79080 -1.02900
H 	H 	0.44120 0.08140 0.81780 0.32100
H 	H 	0.44430 0.08380 0.76520 0.32700
H 	H 	0.37150 0.05640 0.78950 0.30900
C 	C 	0.35130 0.48660 0.82500 -0.98400
H 	H 	0.34020 0.51070 0.85570 0.29600
H 	H 	0.30830 0.48630 0.80740 0.28900
H 	H 	0.37320 0.38740 0.82360 0.28900
C 	C 	0.60490 0.46810 0.76430 -0.17800
H 	H 	0.59800 0.44700 0.79600 0.10000
H 	H 	0.57800 0.39360 0.74710 0.10800
C 	C 	0.68370 0.45650 0.75270 0.39400
C 	C 	0.29720 0.00790 0.95010 -0.47800
C 	C 	0.29070 0.16810 0.95520 0.50900
C 	C 	0.30100 0.23380 0.99700 -0.53300
H 	H 	0.29640 0.33900 0.00050 0.20600
C 	C 	0.31840 0.14270 0.03410 0.44100
C 	C 	0.32610 0.98550 0.02910 -0.54100
H 	H 	0.33820 0.92520 0.05370 0.21200
C 	C 	0.31560 0.91800 0.98670 0.53000
C 	C 	0.32150 0.74550 0.98330 -1.03300
H 	H 	0.33370 0.70390 0.01220 0.32400
H 	H 	0.27670 0.70390 0.97350 0.31800
H 	H 	0.35780 0.71940 0.96200 0.32100
C 	C 	0.26950 0.26560 0.91530 -0.97200
H 	H 	0.27140 0.37170 0.92360 0.28200
H 	H 	0.30180 0.24720 0.89090 0.29000
H 	H 	0.22200 0.23970 0.90600 0.29000
C 	C 	0.33660 0.12710 0.11310 -0.14100
H 	H 	0.30160 0.04550 0.11370 0.08600
H 	H 	0.38360 0.08120 0.11260 0.07800
C 	C 	0.32890 0.22580 0.15480 0.36000
Zn	Zn	0.68267 0.77931 0.74934 1.24600
O 	O 	0.60890 0.08120 0.73759 -0.29800
C 	C 	0.62770 0.02560 0.70210 0.34600
O 	O 	0.64720 0.88690 0.69594 -0.44700
C 	C 	0.63060 0.12150 0.65920 -0.15000
H 	H 	0.60610 0.06710 0.63530 0.08000
H 	H 	0.67990 0.13380 0.65030 0.10900
O 	O 	0.59910 0.26880 0.66432 -0.24900
C 	C 	0.52590 0.27410 0.66480 0.46000
O 	O 	0.78870 0.82960 0.73904 -0.39900
C 	C 	0.48120 0.14890 0.66150 -0.57800
H 	H 	0.50020 0.05070 0.66100 0.22000
O 	O 	0.78500 0.06920 0.76437 -0.43500
C 	C 	0.40760 0.16900 0.65900 0.55800
O 	O 	0.91920 0.11780 0.74594 -0.34200
C 	C 	0.37890 0.31600 0.66090 -0.50700
O 	O 	0.17370 0.71910 0.42648 -0.25800
C 	C 	0.42340 0.44310 0.66750 0.53400
O 	O 	0.18260 0.86410 0.34646 -0.28700
C 	C 	0.49700 0.42100 0.66880 -0.55100
H 	H 	0.52710 0.50460 0.67230 0.23100
O 	O 	0.16590 0.64330 0.30962 -0.43700
C 	C 	0.36130 0.03120 0.65320 -1.06200
H 	H 	0.39060 0.94290 0.64810 0.31200
H 	H 	0.33350 0.01620 0.67980 0.31500
H 	H 	0.33020 0.04620 0.62790 0.32100
C 	C 	0.39500 0.60480 0.67200 -1.01600
H 	H 	0.38010 0.64150 0.64300 0.30000
H 	H 	0.35510 0.60530 0.69210 0.31000
H 	H 	0.43170 0.67020 0.68370 0.31500
C 	C 	0.30130 0.34130 0.65020 0.37900
C 	C 	0.24500 0.29530 0.67750 -0.47300
H 	H 	0.25490 0.25020 0.70520 0.16300
C 	C 	0.17510 0.31510 0.66440 0.38000
C 	C 	0.16070 0.38750 0.62280 -0.45400
H 	H 	0.11380 0.40410 0.61400 0.17600
C 	C 	0.21640 0.43440 0.59490 0.37500
C 	C 	0.28630 0.41190 0.60890 -0.45700
H 	H 	0.32360 0.44400 0.59070 0.17600
C 	C 	0.11250 0.26110 0.69090 -0.50000
C 	C 	0.09820 0.10470 0.69340 0.51700
C 	C 	0.03310 0.05300 0.71240 -0.54100
H 	H 	0.02290 0.94900 0.71390 0.20600
C 	C 	0.98560 0.15860 0.72860 0.45200
C 	C 	0.00050 0.31410 0.72830 -0.57000
H 	H 	0.96830 0.38340 0.74040 0.22700
C 	C 	0.06440 0.36590 0.70960 0.53300
C 	C 	0.07810 0.53780 0.70920 -1.03700
H 	H 	0.05880 0.58140 0.68220 0.32200
H 	H 	0.05570 0.58380 0.73480 0.32900
H 	H 	0.12850 0.55640 0.71050 0.31000
C 	C 	0.14870 0.98660 0.67500 -1.00300
H 	H 	0.15980 0.01070 0.64430 0.30300
H 	H 	0.19170 0.98630 0.69260 0.29300
H 	H 	0.12680 0.88740 0.67640 0.29400
C 	C 	0.89510 0.96810 0.73570 -0.18100
H 	H 	0.90200 0.94700 0.70400 0.10000
H 	H 	0.92200 0.89360 0.75290 0.10800
C 	C 	0.81630 0.95650 0.74730 0.39100
C 	C 	0.20280 0.50790 0.54990 -0.48800
C 	C 	0.20930 0.66810 0.54480 0.51600
C 	C 	0.19900 0.73380 0.50300 -0.54300
H 	H 	0.20360 0.83900 0.49950 0.21000
C 	C 	0.18160 0.64270 0.46590 0.44900
C 	C 	0.17390 0.48550 0.47090 -0.55000
H 	H 	0.16180 0.42520 0.44630 0.21400
C 	C 	0.18440 0.41800 0.51330 0.53900
C 	C 	0.17850 0.24550 0.51670 -1.04300
H 	H 	0.16630 0.20390 0.48780 0.32700
H 	H 	0.22330 0.20390 0.52650 0.32100
H 	H 	0.14220 0.21940 0.53800 0.32400
C 	C 	0.23050 0.76560 0.58470 -0.97800
H 	H 	0.22860 0.87170 0.57640 0.28300
H 	H 	0.19820 0.74720 0.60910 0.29100
H 	H 	0.27800 0.73970 0.59400 0.29100
C 	C 	0.16340 0.62710 0.38690 -0.14000
H 	H 	0.19840 0.54550 0.38630 0.08700
H 	H 	0.11640 0.58120 0.38740 0.07800
C 	C 	0.17110 0.72580 0.34520 0.35900
