data_crystal

_cell_length_a 19.48760
_cell_length_b 19.48760
_cell_length_c 26.37700
_cell_angle_alpha 90.00000
_cell_angle_beta  90.00000
_cell_angle_gamma 90.00000

_symmetry_space_group_name_	'P 1'
_symmetry_space_group_name_H-M	'P 1'

loop_
_symmetry_equiv_pos_as_xyz
  x,y,z

loop_
_atom_site_label
_atom_site_type_symbol
_atom_site_fract_x
_atom_site_fract_y
_atom_site_fract_z
_atom_site_charge
Sm	Sm	0.44101 0.05899 0.80287 1.51600
Sm	Sm	0.05899 0.44101 0.80287 1.51600
Sm	Sm	0.44101 0.44101 0.30287 1.50400
Sm	Sm	0.05899 0.05899 0.30287 1.50200
Sm	Sm	0.55899 0.55899 0.69713 1.50500
Sm	Sm	0.94101 0.94101 0.69713 1.50400
Sm	Sm	0.55899 0.94101 0.19713 1.49100
Sm	Sm	0.94101 0.55899 0.19713 1.49100
Cd	Cd	0.52990 0.97010 0.69607 1.21600
Cd	Cd	0.97010 0.52990 0.69607 1.21600
Cd	Cd	0.52990 0.52990 0.19607 1.21400
Cd	Cd	0.97010 0.97010 0.19607 1.21400
Cd	Cd	0.47010 0.47010 0.80393 1.21700
Cd	Cd	0.02990 0.02990 0.80393 1.21600
Cd	Cd	0.47010 0.02990 0.30393 1.21600
Cd	Cd	0.02990 0.47010 0.30393 1.21600
Cd	Cd	0.75000 0.25000 0.50000 1.24600
Cd	Cd	0.25000 0.75000 -0.00000 1.23300
Cd	Cd	0.25000 0.75000 0.50000 1.24600
Cd	Cd	0.75000 0.25000 -0.00000 1.23300
H 	H 	0.48730 0.25120 0.73080 -0.02700
H 	H 	0.59000 0.16710 0.61510 0.00900
H 	H 	0.59550 0.37040 0.63570 -0.02300
H 	H 	0.01270 0.24880 0.73080 -0.03000
H 	H 	0.91000 0.33290 0.61510 0.00800
H 	H 	0.90450 0.12960 0.63570 -0.02400
H 	H 	0.24880 0.48730 0.23080 -0.02900
H 	H 	0.33290 0.59000 0.11510 0.00400
H 	H 	0.12960 0.59550 0.13570 -0.02700
H 	H 	0.25120 0.01270 0.23080 -0.03100
H 	H 	0.16710 0.91000 0.11510 0.00400
H 	H 	0.37040 0.90450 0.13570 -0.02700
H 	H 	0.51270 0.75120 0.76920 -0.02600
H 	H 	0.41000 0.66710 0.88490 0.01400
H 	H 	0.40450 0.87040 0.86430 -0.01900
H 	H 	0.98730 0.74880 0.76920 -0.02700
H 	H 	0.09000 0.83290 0.88490 0.01400
H 	H 	0.09550 0.62960 0.86430 -0.02000
H 	H 	0.75120 0.98730 0.26920 -0.03100
H 	H 	0.66710 0.09000 0.38490 0.00800
H 	H 	0.87040 0.09550 0.36430 -0.02400
H 	H 	0.74880 0.51270 0.26920 -0.02900
H 	H 	0.83290 0.41000 0.38490 0.00900
H 	H 	0.62960 0.40450 0.36430 -0.02300
H 	H 	0.51270 0.74880 0.26920 -0.02900
H 	H 	0.41000 0.83290 0.38490 0.00900
H 	H 	0.40450 0.62960 0.36430 -0.02300
H 	H 	0.98730 0.75120 0.26920 -0.03100
H 	H 	0.09000 0.66710 0.38490 0.00800
H 	H 	0.09550 0.87040 0.36430 -0.02400
H 	H 	0.75120 0.51270 0.76920 -0.02600
H 	H 	0.66710 0.41000 0.88490 0.01400
H 	H 	0.87040 0.40450 0.86430 -0.01900
H 	H 	0.74880 0.98730 0.76920 -0.02700
H 	H 	0.83290 0.09000 0.88490 0.01400
H 	H 	0.62960 0.09550 0.86430 -0.02000
H 	H 	0.48730 0.24880 0.23080 -0.02900
H 	H 	0.59000 0.33290 0.11510 0.00400
H 	H 	0.59550 0.12960 0.13570 -0.02700
H 	H 	0.01270 0.25120 0.23080 -0.03100
H 	H 	0.91000 0.16710 0.11510 0.00400
H 	H 	0.90450 0.37040 0.13570 -0.02700
H 	H 	0.24880 0.01270 0.73080 -0.03000
H 	H 	0.33290 0.91000 0.61510 0.00800
H 	H 	0.12960 0.90450 0.63570 -0.02400
H 	H 	0.25120 0.48730 0.73080 -0.02700
H 	H 	0.16710 0.59000 0.61510 0.00900
H 	H 	0.37040 0.59550 0.63570 -0.02300
C 	C 	0.51640 0.12860 0.69360 0.47400
C 	C 	0.53800 0.32030 0.68810 -0.23800
C 	C 	0.64760 0.27500 0.57450 0.34700
C 	C 	0.53470 0.19910 0.67540 -0.22800
C 	C 	0.59880 0.26960 0.61840 -0.18100
C 	C 	0.51550 0.25590 0.70260 0.16300
C 	C 	0.57680 0.20580 0.63320 0.13000
C 	C 	0.58010 0.32730 0.64560 0.14000
C 	C 	0.51950 0.38180 0.71970 0.49100
C 	C 	0.98360 0.37140 0.69360 0.47700
C 	C 	0.96200 0.17970 0.68810 -0.24200
C 	C 	0.85240 0.22500 0.57450 0.34800
C 	C 	0.96530 0.30090 0.67540 -0.23200
C 	C 	0.90120 0.23040 0.61840 -0.18300
C 	C 	0.98450 0.24410 0.70260 0.17000
C 	C 	0.92320 0.29420 0.63320 0.13300
C 	C 	0.91990 0.17270 0.64560 0.14300
C 	C 	0.98050 0.11820 0.71970 0.49600
C 	C 	0.37140 0.51640 0.19360 0.47500
C 	C 	0.17970 0.53800 0.18810 -0.24200
C 	C 	0.22500 0.64760 0.07450 0.35000
C 	C 	0.30090 0.53470 0.17540 -0.23300
C 	C 	0.23040 0.59880 0.11840 -0.18800
C 	C 	0.24410 0.51550 0.20260 0.16600
C 	C 	0.29420 0.57680 0.13320 0.13400
C 	C 	0.17270 0.58010 0.14560 0.14300
C 	C 	0.11820 0.51950 0.21970 0.49200
C 	C 	0.12860 0.98360 0.19360 0.47800
C 	C 	0.32030 0.96200 0.18810 -0.24400
C 	C 	0.27500 0.85240 0.07450 0.35100
C 	C 	0.19910 0.96530 0.17540 -0.23500
C 	C 	0.26960 0.90120 0.11840 -0.18900
C 	C 	0.25590 0.98450 0.20260 0.17000
C 	C 	0.20580 0.92320 0.13320 0.13500
C 	C 	0.32730 0.91990 0.14560 0.14500
C 	C 	0.38180 0.98050 0.21970 0.49300
C 	C 	0.48360 0.62860 0.80640 0.47200
C 	C 	0.46200 0.82030 0.81190 -0.23500
C 	C 	0.35240 0.77500 0.92550 0.34400
C 	C 	0.46530 0.69910 0.82460 -0.22300
C 	C 	0.40120 0.76960 0.88160 -0.17400
C 	C 	0.48450 0.75590 0.79740 0.16100
C 	C 	0.42320 0.70580 0.86680 0.12700
C 	C 	0.41990 0.82730 0.85440 0.13700
C 	C 	0.48050 0.88180 0.78030 0.49100
C 	C 	0.01640 0.87140 0.80640 0.47400
C 	C 	0.03800 0.67970 0.81190 -0.23600
C 	C 	0.14760 0.72500 0.92550 0.34400
C 	C 	0.03470 0.80090 0.82460 -0.22500
C 	C 	0.09880 0.73040 0.88160 -0.17400
C 	C 	0.01550 0.74410 0.79740 0.16300
C 	C 	0.07680 0.79420 0.86680 0.12700
C 	C 	0.08010 0.67270 0.85440 0.13800
C 	C 	0.01950 0.61820 0.78030 0.49200
C 	C 	0.62860 0.01640 0.30640 0.47500
C 	C 	0.82030 0.03800 0.31190 -0.24200
C 	C 	0.77500 0.14760 0.42550 0.34800
C 	C 	0.69910 0.03470 0.32460 -0.23100
C 	C 	0.76960 0.09880 0.38160 -0.18300
C 	C 	0.75590 0.01550 0.29740 0.16900
C 	C 	0.70580 0.07680 0.36680 0.13200
C 	C 	0.82730 0.08010 0.35440 0.14200
C 	C 	0.88180 0.01950 0.28030 0.49600
C 	C 	0.87140 0.48360 0.30640 0.47300
C 	C 	0.67970 0.46200 0.31190 -0.23900
C 	C 	0.72500 0.35240 0.42550 0.34800
C 	C 	0.80090 0.46530 0.32460 -0.22900
C 	C 	0.73040 0.40120 0.38160 -0.18200
C 	C 	0.74410 0.48450 0.29740 0.16400
C 	C 	0.79420 0.42320 0.36680 0.13000
C 	C 	0.67270 0.41990 0.35440 0.14100
C 	C 	0.61820 0.48050 0.28030 0.49200
C 	C 	0.48360 0.87140 0.30640 0.47300
C 	C 	0.46200 0.67970 0.31190 -0.23900
C 	C 	0.35240 0.72500 0.42550 0.34800
C 	C 	0.46530 0.80090 0.32460 -0.22900
C 	C 	0.40120 0.73040 0.38160 -0.18200
C 	C 	0.48450 0.74410 0.29740 0.16400
C 	C 	0.42320 0.79420 0.36680 0.13000
C 	C 	0.41990 0.67270 0.35440 0.14100
C 	C 	0.48050 0.61820 0.28030 0.49200
C 	C 	0.01640 0.62860 0.30640 0.47500
C 	C 	0.03800 0.82030 0.31190 -0.24200
C 	C 	0.14760 0.77500 0.42550 0.34800
C 	C 	0.03470 0.69910 0.32460 -0.23100
C 	C 	0.09880 0.76960 0.38160 -0.18300
C 	C 	0.01550 0.75590 0.29740 0.16900
C 	C 	0.07680 0.70580 0.36680 0.13200
C 	C 	0.08010 0.82730 0.35440 0.14200
C 	C 	0.01950 0.88180 0.28030 0.49600
C 	C 	0.62860 0.48360 0.80640 0.47200
C 	C 	0.82030 0.46200 0.81190 -0.23500
C 	C 	0.77500 0.35240 0.92550 0.34400
C 	C 	0.69910 0.46530 0.82460 -0.22300
C 	C 	0.76960 0.40120 0.88160 -0.17400
C 	C 	0.75590 0.48450 0.79740 0.16100
C 	C 	0.70580 0.42320 0.86680 0.12700
C 	C 	0.82730 0.41990 0.85440 0.13700
C 	C 	0.88180 0.48050 0.78030 0.49100
C 	C 	0.87140 0.01640 0.80640 0.47400
C 	C 	0.67970 0.03800 0.81190 -0.23600
C 	C 	0.72500 0.14760 0.92550 0.34400
C 	C 	0.80090 0.03470 0.82460 -0.22500
C 	C 	0.73040 0.09880 0.88160 -0.17400
C 	C 	0.74410 0.01550 0.79740 0.16300
C 	C 	0.79420 0.07680 0.86680 0.12700
C 	C 	0.67270 0.08010 0.85440 0.13800
C 	C 	0.61820 0.01950 0.78030 0.49200
C 	C 	0.51640 0.37140 0.19360 0.47500
C 	C 	0.53800 0.17970 0.18810 -0.24200
C 	C 	0.64760 0.22500 0.07450 0.35000
C 	C 	0.53470 0.30090 0.17540 -0.23300
C 	C 	0.59880 0.23040 0.11840 -0.18800
C 	C 	0.51550 0.24410 0.20260 0.16600
C 	C 	0.57680 0.29420 0.13320 0.13400
C 	C 	0.58010 0.17270 0.14560 0.14300
C 	C 	0.51950 0.11820 0.21970 0.49200
C 	C 	0.98360 0.12860 0.19360 0.47800
C 	C 	0.96200 0.32030 0.18810 -0.24400
C 	C 	0.85240 0.27500 0.07450 0.35100
C 	C 	0.96530 0.19910 0.17540 -0.23500
C 	C 	0.90120 0.26960 0.11840 -0.18900
C 	C 	0.98450 0.25590 0.20260 0.17000
C 	C 	0.92320 0.20580 0.13320 0.13500
C 	C 	0.91990 0.32730 0.14560 0.14500
C 	C 	0.98050 0.38180 0.21970 0.49300
C 	C 	0.37140 0.98360 0.69360 0.47700
C 	C 	0.17970 0.96200 0.68810 -0.24200
C 	C 	0.22500 0.85240 0.57450 0.34800
C 	C 	0.30090 0.96530 0.67540 -0.23200
C 	C 	0.23040 0.90120 0.61840 -0.18300
C 	C 	0.24410 0.98450 0.70260 0.17000
C 	C 	0.29420 0.92320 0.63320 0.13300
C 	C 	0.17270 0.91990 0.64560 0.14300
C 	C 	0.11820 0.98050 0.71970 0.49600
C 	C 	0.12860 0.51640 0.69360 0.47400
C 	C 	0.32030 0.53800 0.68810 -0.23800
C 	C 	0.27500 0.64760 0.57450 0.34700
C 	C 	0.19910 0.53470 0.67540 -0.22800
C 	C 	0.26960 0.59880 0.61840 -0.18100
C 	C 	0.25590 0.51550 0.70260 0.16300
C 	C 	0.20580 0.57680 0.63320 0.13000
C 	C 	0.32730 0.58010 0.64560 0.14000
C 	C 	0.38180 0.51950 0.71970 0.49100
O 	O 	0.47910 0.12330 0.73250 -0.51000
O 	O 	0.53970 0.43770 0.70600 -0.53600
O 	O 	0.66350 0.22140 0.55110 -0.40000
O 	O 	0.67280 0.33230 0.56390 -0.33300
O 	O 	0.53770 0.07870 0.66980 -0.47300
O 	O 	0.48680 0.37360 0.75980 -0.47600
O 	O 	0.02090 0.37670 0.73250 -0.51200
O 	O 	0.96030 0.06230 0.70600 -0.53500
O 	O 	0.83650 0.27860 0.55110 -0.40000
O 	O 	0.82720 0.16770 0.56390 -0.33300
O 	O 	0.96230 0.42130 0.66980 -0.47400
O 	O 	0.01320 0.12640 0.75980 -0.48000
O 	O 	0.37670 0.47910 0.23250 -0.51100
O 	O 	0.06230 0.53970 0.20600 -0.53600
O 	O 	0.27860 0.66350 0.05110 -0.41200
O 	O 	0.16770 0.67280 0.06390 -0.34400
O 	O 	0.42130 0.53770 0.16980 -0.47700
O 	O 	0.12640 0.48680 0.25980 -0.47800
O 	O 	0.12330 0.02090 0.23250 -0.51200
O 	O 	0.43770 0.96030 0.20600 -0.53600
O 	O 	0.22140 0.83650 0.05110 -0.41200
O 	O 	0.33230 0.82720 0.06390 -0.34500
O 	O 	0.07870 0.96230 0.16980 -0.47600
O 	O 	0.37360 0.01320 0.25980 -0.47900
O 	O 	0.52090 0.62330 0.76750 -0.50800
O 	O 	0.46030 0.93770 0.79400 -0.53400
O 	O 	0.33650 0.72140 0.94890 -0.38300
O 	O 	0.32720 0.83230 0.93610 -0.31900
O 	O 	0.46230 0.57870 0.83020 -0.46900
O 	O 	0.51320 0.87360 0.74020 -0.47700
O 	O 	0.97910 0.87670 0.76750 -0.50900
O 	O 	0.03970 0.56230 0.79400 -0.53500
O 	O 	0.16350 0.77860 0.94890 -0.38300
O 	O 	0.17280 0.66770 0.93610 -0.31900
O 	O 	0.03770 0.92130 0.83020 -0.46800
O 	O 	0.98680 0.62640 0.74020 -0.47800
O 	O 	0.62330 0.97910 0.26750 -0.51000
O 	O 	0.93770 0.03970 0.29400 -0.53500
O 	O 	0.72140 0.16350 0.44890 -0.40000
O 	O 	0.83230 0.17280 0.43610 -0.33300
O 	O 	0.57870 0.03770 0.33020 -0.47300
O 	O 	0.87360 0.98680 0.24020 -0.48200
O 	O 	0.87670 0.52090 0.26750 -0.50900
O 	O 	0.56230 0.46030 0.29400 -0.53600
O 	O 	0.77860 0.33650 0.44890 -0.40000
O 	O 	0.66770 0.32720 0.43610 -0.33300
O 	O 	0.92130 0.46230 0.33020 -0.47200
O 	O 	0.62640 0.51320 0.24020 -0.48000
O 	O 	0.52090 0.87670 0.26750 -0.50900
O 	O 	0.46030 0.56230 0.29400 -0.53600
O 	O 	0.33650 0.77860 0.44890 -0.40000
O 	O 	0.32720 0.66770 0.43610 -0.33300
O 	O 	0.46230 0.92130 0.33020 -0.47200
O 	O 	0.51320 0.62640 0.24020 -0.48000
O 	O 	0.97910 0.62330 0.26750 -0.51000
O 	O 	0.03970 0.93770 0.29400 -0.53500
O 	O 	0.16350 0.72140 0.44890 -0.40000
O 	O 	0.17280 0.83230 0.43610 -0.33300
O 	O 	0.03770 0.57870 0.33020 -0.47300
O 	O 	0.98680 0.87360 0.24020 -0.48200
O 	O 	0.62330 0.52090 0.76750 -0.50800
O 	O 	0.93770 0.46030 0.79400 -0.53400
O 	O 	0.72140 0.33650 0.94890 -0.38300
O 	O 	0.83230 0.32720 0.93610 -0.31900
O 	O 	0.57870 0.46230 0.83020 -0.46900
O 	O 	0.87360 0.51320 0.74020 -0.47700
O 	O 	0.87670 0.97910 0.76750 -0.50900
O 	O 	0.56230 0.03970 0.79400 -0.53500
O 	O 	0.77860 0.16350 0.94890 -0.38300
O 	O 	0.66770 0.17280 0.93610 -0.31900
O 	O 	0.92130 0.03770 0.83020 -0.46800
O 	O 	0.62640 0.98680 0.74020 -0.47800
O 	O 	0.47910 0.37670 0.23250 -0.51100
O 	O 	0.53970 0.06230 0.20600 -0.53600
O 	O 	0.66350 0.27860 0.05110 -0.41200
O 	O 	0.67280 0.16770 0.06390 -0.34400
O 	O 	0.53770 0.42130 0.16980 -0.47700
O 	O 	0.48680 0.12640 0.25980 -0.47800
O 	O 	0.02090 0.12330 0.23250 -0.51200
O 	O 	0.96030 0.43770 0.20600 -0.53600
O 	O 	0.83650 0.22140 0.05110 -0.41200
O 	O 	0.82720 0.33230 0.06390 -0.34500
O 	O 	0.96230 0.07870 0.16980 -0.47600
O 	O 	0.01320 0.37360 0.25980 -0.47900
O 	O 	0.37670 0.02090 0.73250 -0.51200
O 	O 	0.06230 0.96030 0.70600 -0.53500
O 	O 	0.27860 0.83650 0.55110 -0.40000
O 	O 	0.16770 0.82720 0.56390 -0.33300
O 	O 	0.42130 0.96230 0.66980 -0.47400
O 	O 	0.12640 0.01320 0.75980 -0.48000
O 	O 	0.12330 0.47910 0.73250 -0.51000
O 	O 	0.43770 0.53970 0.70600 -0.53600
O 	O 	0.22140 0.66350 0.55110 -0.40000
O 	O 	0.33230 0.67280 0.56390 -0.33300
O 	O 	0.07870 0.53770 0.66980 -0.47300
O 	O 	0.37360 0.48680 0.75980 -0.47600
