data_crystal

_cell_length_a 19.46870
_cell_length_b 19.46870
_cell_length_c 26.37460
_cell_angle_alpha 90.00000
_cell_angle_beta  90.00000
_cell_angle_gamma 90.00000

_symmetry_space_group_name_	'P 1'
_symmetry_space_group_name_H-M	'P 1'

loop_
_symmetry_equiv_pos_as_xyz
  x,y,z

loop_
_atom_site_label
_atom_site_type_symbol
_atom_site_fract_x
_atom_site_fract_y
_atom_site_fract_z
_atom_site_charge
Gd	Gd	0.55614 0.55614 0.30236 1.21400
Gd	Gd	0.94386 0.94386 0.30236 1.21200
Gd	Gd	0.94386 0.55614 0.80236 1.22400
Gd	Gd	0.55614 0.94386 0.80236 1.22400
Gd	Gd	0.44386 0.05614 0.19764 1.20500
Gd	Gd	0.05614 0.44386 0.19764 1.20500
Gd	Gd	0.05614 0.05614 0.69764 1.21400
Gd	Gd	0.44386 0.44386 0.69764 1.21500
Cd	Cd	0.46740 0.46740 0.19573 1.21500
Cd	Cd	0.03260 0.03260 0.19573 1.21500
Cd	Cd	0.03260 0.46740 0.69573 1.21700
Cd	Cd	0.46740 0.03260 0.69573 1.21700
Cd	Cd	0.53260 0.96740 0.30427 1.21700
Cd	Cd	0.96740 0.53260 0.30427 1.21700
Cd	Cd	0.96740 0.96740 0.80427 1.21700
Cd	Cd	0.53260 0.53260 0.80427 1.21800
Cd	Cd	0.25000 0.75000 -0.00000 1.23400
Cd	Cd	0.75000 0.25000 0.50000 1.24700
Cd	Cd	0.75000 0.25000 -0.00000 1.23400
Cd	Cd	0.25000 0.75000 0.50000 1.24700
H 	H 	0.40810 0.86880 0.13560 -0.00600
H 	H 	0.40990 0.66550 0.11610 0.01200
H 	H 	0.51180 0.74820 0.23170 -0.00800
H 	H 	0.09190 0.63120 0.13560 -0.00700
H 	H 	0.09010 0.83450 0.11610 0.01200
H 	H 	0.98820 0.75180 0.23170 -0.01000
H 	H 	0.63120 0.40810 0.63560 -0.00200
H 	H 	0.83450 0.40990 0.61610 0.01800
H 	H 	0.75180 0.51180 0.73170 -0.00600
H 	H 	0.86880 0.09190 0.63560 -0.00300
H 	H 	0.66550 0.09010 0.61610 0.01700
H 	H 	0.74820 0.98820 0.73170 -0.00900
H 	H 	0.59190 0.36880 0.36440 -0.00300
H 	H 	0.59010 0.16550 0.38390 0.01700
H 	H 	0.48820 0.24820 0.26830 -0.00800
H 	H 	0.90810 0.13120 0.36440 -0.00300
H 	H 	0.90990 0.33450 0.38390 0.01700
H 	H 	0.01180 0.25180 0.26830 -0.01000
H 	H 	0.36880 0.90810 0.86440 0.00100
H 	H 	0.16550 0.90990 0.88390 0.02200
H 	H 	0.24820 0.01180 0.76830 -0.00600
H 	H 	0.13120 0.59190 0.86440 0.00200
H 	H 	0.33450 0.59010 0.88390 0.02300
H 	H 	0.25180 0.48820 0.76830 -0.00500
H 	H 	0.59190 0.13120 0.86440 0.00200
H 	H 	0.59010 0.33450 0.88390 0.02300
H 	H 	0.48820 0.25180 0.76830 -0.00500
H 	H 	0.90810 0.36880 0.86440 0.00100
H 	H 	0.90990 0.16550 0.88390 0.02200
H 	H 	0.01180 0.24820 0.76830 -0.00600
H 	H 	0.36880 0.59190 0.36440 -0.00300
H 	H 	0.16550 0.59010 0.38390 0.01700
H 	H 	0.24820 0.48820 0.26830 -0.00800
H 	H 	0.13120 0.90810 0.36440 -0.00300
H 	H 	0.33450 0.90990 0.38390 0.01700
H 	H 	0.25180 0.01180 0.26830 -0.01000
H 	H 	0.40810 0.63120 0.63560 -0.00200
H 	H 	0.40990 0.83450 0.61610 0.01800
H 	H 	0.51180 0.75180 0.73170 -0.00600
H 	H 	0.09190 0.86880 0.63560 -0.00300
H 	H 	0.09010 0.66550 0.61610 0.01700
H 	H 	0.98820 0.74820 0.73170 -0.00900
H 	H 	0.63120 0.09190 0.13560 -0.00700
H 	H 	0.83450 0.09010 0.11610 0.01200
H 	H 	0.75180 0.98820 0.23170 -0.01000
H 	H 	0.86880 0.40810 0.13560 -0.00600
H 	H 	0.66550 0.40990 0.11610 0.01200
H 	H 	0.74820 0.51180 0.23170 -0.00800
C 	C 	0.48340 0.62530 0.19410 0.46000
C 	C 	0.42160 0.82520 0.14600 0.11200
C 	C 	0.42310 0.70420 0.13440 0.11800
C 	C 	0.40080 0.76800 0.11890 -0.16700
C 	C 	0.48290 0.88030 0.21910 0.41900
C 	C 	0.35180 0.77540 0.07570 0.34300
C 	C 	0.46250 0.81760 0.18860 -0.19300
C 	C 	0.46420 0.69650 0.17590 -0.20500
C 	C 	0.48400 0.75330 0.20330 0.13200
C 	C 	0.01660 0.87470 0.19410 0.46300
C 	C 	0.07840 0.67480 0.14600 0.11400
C 	C 	0.07690 0.79580 0.13440 0.11900
C 	C 	0.09920 0.73200 0.11890 -0.16800
C 	C 	0.01710 0.61970 0.21910 0.42100
C 	C 	0.14820 0.72460 0.07570 0.34300
C 	C 	0.03750 0.68240 0.18860 -0.19500
C 	C 	0.03580 0.80350 0.17590 -0.20700
C 	C 	0.01600 0.74670 0.20330 0.13600
C 	C 	0.87470 0.48340 0.69410 0.45900
C 	C 	0.67480 0.42160 0.64600 0.10900
C 	C 	0.79580 0.42310 0.63440 0.11400
C 	C 	0.73200 0.40080 0.61890 -0.16000
C 	C 	0.61970 0.48290 0.71910 0.41900
C 	C 	0.72460 0.35180 0.57570 0.34000
C 	C 	0.68240 0.46250 0.68860 -0.18900
C 	C 	0.80350 0.46420 0.67590 -0.20000
C 	C 	0.74670 0.48400 0.70330 0.12900
C 	C 	0.62530 0.01660 0.69410 0.46200
C 	C 	0.82520 0.07840 0.64600 0.11100
C 	C 	0.70420 0.07690 0.63440 0.11600
C 	C 	0.76800 0.09920 0.61890 -0.16100
C 	C 	0.88030 0.01710 0.71910 0.42200
C 	C 	0.77540 0.14820 0.57570 0.34100
C 	C 	0.81760 0.03750 0.68860 -0.19200
C 	C 	0.69650 0.03580 0.67590 -0.20300
C 	C 	0.75330 0.01600 0.70330 0.13600
C 	C 	0.51660 0.12530 0.30590 0.45800
C 	C 	0.57840 0.32520 0.35400 0.10900
C 	C 	0.57690 0.20420 0.36560 0.11400
C 	C 	0.59920 0.26800 0.38110 -0.16000
C 	C 	0.51710 0.38030 0.28090 0.42000
C 	C 	0.64820 0.27540 0.42430 0.34000
C 	C 	0.53750 0.31760 0.31140 -0.19000
C 	C 	0.53580 0.19650 0.32410 -0.20100
C 	C 	0.51600 0.25330 0.29670 0.13000
C 	C 	0.98340 0.37470 0.30590 0.46000
C 	C 	0.92160 0.17480 0.35400 0.11100
C 	C 	0.92310 0.29580 0.36560 0.11600
C 	C 	0.90080 0.23200 0.38110 -0.16100
C 	C 	0.98290 0.11970 0.28090 0.42200
C 	C 	0.85180 0.22460 0.42430 0.34100
C 	C 	0.96250 0.18240 0.31140 -0.19200
C 	C 	0.96420 0.30350 0.32410 -0.20300
C 	C 	0.98400 0.24670 0.29670 0.13500
C 	C 	0.12530 0.98340 0.80590 0.45900
C 	C 	0.32520 0.92160 0.85400 0.10600
C 	C 	0.20420 0.92310 0.86560 0.11100
C 	C 	0.26800 0.90080 0.88110 -0.15300
C 	C 	0.38030 0.98290 0.78090 0.41900
C 	C 	0.27540 0.85180 0.92430 0.33700
C 	C 	0.31760 0.96250 0.81140 -0.18600
C 	C 	0.19650 0.96420 0.82410 -0.19600
C 	C 	0.25330 0.98400 0.79670 0.12900
C 	C 	0.37470 0.51660 0.80590 0.45700
C 	C 	0.17480 0.57840 0.85400 0.10600
C 	C 	0.29580 0.57690 0.86560 0.11000
C 	C 	0.23200 0.59920 0.88110 -0.15200
C 	C 	0.11970 0.51710 0.78090 0.41900
C 	C 	0.22460 0.64820 0.92430 0.33600
C 	C 	0.18240 0.53750 0.81140 -0.18500
C 	C 	0.30350 0.53580 0.82410 -0.19500
C 	C 	0.24670 0.51600 0.79670 0.12700
C 	C 	0.51660 0.37470 0.80590 0.45700
C 	C 	0.57840 0.17480 0.85400 0.10600
C 	C 	0.57690 0.29580 0.86560 0.11000
C 	C 	0.59920 0.23200 0.88110 -0.15200
C 	C 	0.51710 0.11970 0.78090 0.41900
C 	C 	0.64820 0.22460 0.92430 0.33600
C 	C 	0.53750 0.18240 0.81140 -0.18500
C 	C 	0.53580 0.30350 0.82410 -0.19500
C 	C 	0.51600 0.24670 0.79670 0.12700
C 	C 	0.98340 0.12530 0.80590 0.45900
C 	C 	0.92160 0.32520 0.85400 0.10600
C 	C 	0.92310 0.20420 0.86560 0.11100
C 	C 	0.90080 0.26800 0.88110 -0.15300
C 	C 	0.98290 0.38030 0.78090 0.41900
C 	C 	0.85180 0.27540 0.92430 0.33700
C 	C 	0.96250 0.31760 0.81140 -0.18600
C 	C 	0.96420 0.19650 0.82410 -0.19600
C 	C 	0.98400 0.25330 0.79670 0.12900
C 	C 	0.12530 0.51660 0.30590 0.45800
C 	C 	0.32520 0.57840 0.35400 0.10900
C 	C 	0.20420 0.57690 0.36560 0.11400
C 	C 	0.26800 0.59920 0.38110 -0.16000
C 	C 	0.38030 0.51710 0.28090 0.42000
C 	C 	0.27540 0.64820 0.42430 0.34000
C 	C 	0.31760 0.53750 0.31140 -0.19000
C 	C 	0.19650 0.53580 0.32410 -0.20100
C 	C 	0.25330 0.51600 0.29670 0.13000
C 	C 	0.37470 0.98340 0.30590 0.46000
C 	C 	0.17480 0.92160 0.35400 0.11100
C 	C 	0.29580 0.92310 0.36560 0.11600
C 	C 	0.23200 0.90080 0.38110 -0.16100
C 	C 	0.11970 0.98290 0.28090 0.42200
C 	C 	0.22460 0.85180 0.42430 0.34100
C 	C 	0.18240 0.96250 0.31140 -0.19200
C 	C 	0.30350 0.96420 0.32410 -0.20300
C 	C 	0.24670 0.98400 0.29670 0.13500
C 	C 	0.48340 0.87470 0.69410 0.45900
C 	C 	0.42160 0.67480 0.64600 0.10900
C 	C 	0.42310 0.79580 0.63440 0.11400
C 	C 	0.40080 0.73200 0.61890 -0.16000
C 	C 	0.48290 0.61970 0.71910 0.41900
C 	C 	0.35180 0.72460 0.57570 0.34000
C 	C 	0.46250 0.68240 0.68860 -0.18900
C 	C 	0.46420 0.80350 0.67590 -0.20000
C 	C 	0.48400 0.74670 0.70330 0.12900
C 	C 	0.01660 0.62530 0.69410 0.46200
C 	C 	0.07840 0.82520 0.64600 0.11100
C 	C 	0.07690 0.70420 0.63440 0.11600
C 	C 	0.09920 0.76800 0.61890 -0.16100
C 	C 	0.01710 0.88030 0.71910 0.42200
C 	C 	0.14820 0.77540 0.57570 0.34100
C 	C 	0.03750 0.81760 0.68860 -0.19200
C 	C 	0.03580 0.69650 0.67590 -0.20300
C 	C 	0.01600 0.75330 0.70330 0.13600
C 	C 	0.87470 0.01660 0.19410 0.46300
C 	C 	0.67480 0.07840 0.14600 0.11400
C 	C 	0.79580 0.07690 0.13440 0.11900
C 	C 	0.73200 0.09920 0.11890 -0.16800
C 	C 	0.61970 0.01710 0.21910 0.42100
C 	C 	0.72460 0.14820 0.07570 0.34300
C 	C 	0.68240 0.03750 0.18860 -0.19500
C 	C 	0.80350 0.03580 0.17590 -0.20700
C 	C 	0.74670 0.01600 0.20330 0.13600
C 	C 	0.62530 0.48340 0.19410 0.46000
C 	C 	0.82520 0.42160 0.14600 0.11200
C 	C 	0.70420 0.42310 0.13440 0.11800
C 	C 	0.76800 0.40080 0.11890 -0.16700
C 	C 	0.88030 0.48290 0.21910 0.41900
C 	C 	0.77540 0.35180 0.07570 0.34300
C 	C 	0.81760 0.46250 0.18860 -0.19300
C 	C 	0.69650 0.46420 0.17590 -0.20500
C 	C 	0.75330 0.48400 0.20330 0.13200
O 	O 	0.46080 0.57560 0.16930 -0.46400
O 	O 	0.51810 0.62000 0.23260 -0.47000
O 	O 	0.33510 0.72060 0.05160 -0.40100
O 	O 	0.46150 0.93730 0.20560 -0.47000
O 	O 	0.51700 0.86970 0.25930 -0.44200
O 	O 	0.32850 0.83180 0.06410 -0.33900
O 	O 	0.03920 0.92440 0.16930 -0.46400
O 	O 	0.98190 0.88000 0.23260 -0.47200
O 	O 	0.16490 0.77940 0.05160 -0.40100
O 	O 	0.03850 0.56270 0.20560 -0.47100
O 	O 	0.98300 0.63030 0.25930 -0.44200
O 	O 	0.17150 0.66820 0.06410 -0.34000
O 	O 	0.92440 0.46080 0.66930 -0.46100
O 	O 	0.88000 0.51810 0.73260 -0.46900
O 	O 	0.77940 0.33510 0.55160 -0.38900
O 	O 	0.56270 0.46150 0.70560 -0.47000
O 	O 	0.63030 0.51700 0.75930 -0.43900
O 	O 	0.66820 0.32850 0.56410 -0.32800
O 	O 	0.57560 0.03920 0.66930 -0.46100
O 	O 	0.62000 0.98190 0.73260 -0.47100
O 	O 	0.72060 0.16490 0.55160 -0.38900
O 	O 	0.93730 0.03850 0.70560 -0.47000
O 	O 	0.86970 0.98300 0.75930 -0.44200
O 	O 	0.83180 0.17150 0.56410 -0.32800
O 	O 	0.53920 0.07560 0.33070 -0.46000
O 	O 	0.48190 0.12000 0.26740 -0.46900
O 	O 	0.66490 0.22060 0.44840 -0.38900
O 	O 	0.53850 0.43730 0.29440 -0.47000
O 	O 	0.48300 0.36970 0.24070 -0.44300
O 	O 	0.67150 0.33180 0.43590 -0.32800
O 	O 	0.96080 0.42440 0.33070 -0.46100
O 	O 	0.01810 0.38000 0.26740 -0.47000
O 	O 	0.83510 0.27940 0.44840 -0.38900
O 	O 	0.96150 0.06270 0.29440 -0.46900
O 	O 	0.01700 0.13030 0.24070 -0.44500
O 	O 	0.82850 0.16820 0.43590 -0.32800
O 	O 	0.07560 0.96080 0.83070 -0.45600
O 	O 	0.12000 0.01810 0.76740 -0.46900
O 	O 	0.22060 0.83510 0.94840 -0.37200
O 	O 	0.43730 0.96150 0.79440 -0.46900
O 	O 	0.36970 0.01700 0.74070 -0.44100
O 	O 	0.33180 0.82850 0.93590 -0.31400
O 	O 	0.42440 0.53920 0.83070 -0.45600
O 	O 	0.38000 0.48190 0.76740 -0.46800
O 	O 	0.27940 0.66490 0.94840 -0.37200
O 	O 	0.06270 0.53850 0.79440 -0.46900
O 	O 	0.13030 0.48300 0.74070 -0.44100
O 	O 	0.16820 0.67150 0.93590 -0.31400
O 	O 	0.53920 0.42440 0.83070 -0.45600
O 	O 	0.48190 0.38000 0.76740 -0.46800
O 	O 	0.66490 0.27940 0.94840 -0.37200
O 	O 	0.53850 0.06270 0.79440 -0.46900
O 	O 	0.48300 0.13030 0.74070 -0.44100
O 	O 	0.67150 0.16820 0.93590 -0.31400
O 	O 	0.96080 0.07560 0.83070 -0.45600
O 	O 	0.01810 0.12000 0.76740 -0.46900
O 	O 	0.83510 0.22060 0.94840 -0.37200
O 	O 	0.96150 0.43730 0.79440 -0.46900
O 	O 	0.01700 0.36970 0.74070 -0.44100
O 	O 	0.82850 0.33180 0.93590 -0.31400
O 	O 	0.07560 0.53920 0.33070 -0.46000
O 	O 	0.12000 0.48190 0.26740 -0.46900
O 	O 	0.22060 0.66490 0.44840 -0.38900
O 	O 	0.43730 0.53850 0.29440 -0.47000
O 	O 	0.36970 0.48300 0.24070 -0.44300
O 	O 	0.33180 0.67150 0.43590 -0.32800
O 	O 	0.42440 0.96080 0.33070 -0.46100
O 	O 	0.38000 0.01810 0.26740 -0.47000
O 	O 	0.27940 0.83510 0.44840 -0.38900
O 	O 	0.06270 0.96150 0.29440 -0.46900
O 	O 	0.13030 0.01700 0.24070 -0.44500
O 	O 	0.16820 0.82850 0.43590 -0.32800
O 	O 	0.46080 0.92440 0.66930 -0.46100
O 	O 	0.51810 0.88000 0.73260 -0.46900
O 	O 	0.33510 0.77940 0.55160 -0.38900
O 	O 	0.46150 0.56270 0.70560 -0.47000
O 	O 	0.51700 0.63030 0.75930 -0.43900
O 	O 	0.32850 0.66820 0.56410 -0.32800
O 	O 	0.03920 0.57560 0.66930 -0.46100
O 	O 	0.98190 0.62000 0.73260 -0.47100
O 	O 	0.16490 0.72060 0.55160 -0.38900
O 	O 	0.03850 0.93730 0.70560 -0.47000
O 	O 	0.98300 0.86970 0.75930 -0.44200
O 	O 	0.17150 0.83180 0.56410 -0.32800
O 	O 	0.92440 0.03920 0.16930 -0.46400
O 	O 	0.88000 0.98190 0.23260 -0.47200
O 	O 	0.77940 0.16490 0.05160 -0.40100
O 	O 	0.56270 0.03850 0.20560 -0.47100
O 	O 	0.63030 0.98300 0.25930 -0.44200
O 	O 	0.66820 0.17150 0.06410 -0.34000
O 	O 	0.57560 0.46080 0.16930 -0.46400
O 	O 	0.62000 0.51810 0.23260 -0.47000
O 	O 	0.72060 0.33510 0.05160 -0.40100
O 	O 	0.93730 0.46150 0.20560 -0.47000
O 	O 	0.86970 0.51700 0.25930 -0.44200
O 	O 	0.83180 0.32850 0.06410 -0.33900
