data_crystal

_cell_length_a 16.22440
_cell_length_b 20.98690
_cell_length_c 12.84910
_cell_angle_alpha 90.00000
_cell_angle_beta  90.00000
_cell_angle_gamma 90.00000

_symmetry_space_group_name_	'P 1'
_symmetry_space_group_name_H-M	'P 1'

loop_
_symmetry_equiv_pos_as_xyz
  x,y,z

loop_
_atom_site_label
_atom_site_type_symbol
_atom_site_fract_x
_atom_site_fract_y
_atom_site_fract_z
_atom_site_charge
Co	Co	0.66923 0.19686 0.02582 1.13700
C 	C 	0.77160 0.28260 0.11860 0.38200
C 	C 	0.85290 0.30881 0.15160 -0.28700
C 	C 	0.92540 0.28231 0.11290 0.19300
H 	H 	0.92310 0.24860 0.06360 -0.03500
C 	C 	0.00050 0.30527 0.14660 -0.29600
C 	C 	0.00280 0.35460 0.21890 0.27000
H 	H 	0.05470 0.36990 0.24230 -0.08700
C 	C 	0.93150 0.38220 0.25770 -0.47700
C 	C 	0.85660 0.35770 0.22370 0.25800
H 	H 	0.80690 0.37500 0.25060 -0.10600
C 	C 	0.07800 0.27680 0.10700 0.44200
C 	C 	0.93470 0.43660 0.33670 0.98900
C 	C 	0.94530 0.40750 0.44070 -1.22300
H 	H 	0.94760 0.44110 0.49350 0.33400
H 	H 	0.99660 0.38290 0.44220 0.35500
H 	H 	0.89870 0.37920 0.45530 0.37100
C 	C 	0.85830 0.47490 0.34060 -1.22800
H 	H 	0.84990 0.49610 0.27340 0.31700
H 	H 	0.86300 0.50710 0.39560 0.35500
H 	H 	0.81130 0.44700 0.35530 0.35800
C 	C 	0.00570 0.47880 0.31800 -1.22700
H 	H 	0.99990 0.49920 0.24970 0.33600
H 	H 	0.05670 0.45370 0.31950 0.36700
H 	H 	0.00780 0.51160 0.37220 0.33600
C 	C 	0.22020 0.11644 0.12140 0.54800
C 	C 	0.23800 0.05592 0.17910 -0.52600
C 	C 	0.23830 0.05590 0.28660 0.61500
H 	H 	0.23030 0.09480 0.32290 -0.23200
C 	C 	0.22830 0.05450 0.50910 -3.22600
H 	H 	0.23050 0.04960 0.58490 0.88400
H 	H 	0.17220 0.06590 0.48800 0.91000
H 	H 	0.26640 0.08830 0.48770 0.91700
O 	O 	0.70650 0.30049 0.15870 -0.39300
O 	O 	0.77364 0.24084 0.04620 -0.49600
O 	O 	0.07199 0.24025 0.02790 -0.52200
O 	O 	0.14430 0.28889 0.15110 -0.49400
O 	O 	0.19430 0.11226 0.03020 -0.57000
O 	O 	0.23140 0.16818 0.16420 -0.57400
Co	Co	0.83077 0.80314 0.02582 1.14000
C 	C 	0.72840 0.71740 0.11860 0.38100
C 	C 	0.64710 0.69119 0.15160 -0.28900
C 	C 	0.57460 0.71769 0.11290 0.19500
H 	H 	0.57690 0.75140 0.06360 -0.03300
C 	C 	0.49950 0.69473 0.14660 -0.29800
C 	C 	0.49720 0.64540 0.21890 0.27000
H 	H 	0.44530 0.63010 0.24230 -0.08800
C 	C 	0.56850 0.61780 0.25770 -0.48300
C 	C 	0.64340 0.64230 0.22370 0.26100
H 	H 	0.69310 0.62500 0.25060 -0.10700
C 	C 	0.42200 0.72320 0.10700 0.44200
C 	C 	0.56530 0.56340 0.33670 1.01200
C 	C 	0.55470 0.59250 0.44070 -1.24800
H 	H 	0.55240 0.55890 0.49350 0.34500
H 	H 	0.50340 0.61710 0.44220 0.36500
H 	H 	0.60130 0.62080 0.45530 0.37800
C 	C 	0.64170 0.52510 0.34060 -1.24900
H 	H 	0.65010 0.50390 0.27340 0.32300
H 	H 	0.63700 0.49290 0.39560 0.36100
H 	H 	0.68870 0.55300 0.35530 0.36400
C 	C 	0.49430 0.52120 0.31800 -1.25900
H 	H 	0.50010 0.50080 0.24970 0.34600
H 	H 	0.44330 0.54630 0.31950 0.37500
H 	H 	0.49220 0.48840 0.37220 0.34500
C 	C 	0.27980 0.88356 0.12140 0.54800
C 	C 	0.26200 0.94408 0.17910 -0.49700
C 	C 	0.26170 0.94410 0.28660 0.65000
H 	H 	0.26970 0.90520 0.32290 -0.23800
C 	C 	0.27170 0.94550 0.50910 -3.18700
H 	H 	0.26950 0.95040 0.58490 0.89000
H 	H 	0.32780 0.93410 0.48800 0.91000
H 	H 	0.23360 0.91170 0.48770 0.91300
O 	O 	0.79350 0.69951 0.15870 -0.39200
O 	O 	0.72636 0.75916 0.04620 -0.49100
O 	O 	0.42801 0.75975 0.02790 -0.51700
O 	O 	0.35570 0.71111 0.15110 -0.49400
O 	O 	0.30570 0.88774 0.03020 -0.55900
O 	O 	0.26860 0.83182 0.16420 -0.57200
Co	Co	0.83077 0.69686 0.47418 1.13600
C 	C 	0.72840 0.78260 0.38140 0.37100
C 	C 	0.64710 0.80881 0.34840 -0.25600
C 	C 	0.57460 0.78231 0.38710 0.16600
H 	H 	0.57690 0.74860 0.43640 -0.02500
C 	C 	0.49950 0.80527 0.35340 -0.26500
C 	C 	0.49720 0.85460 0.28110 0.21200
H 	H 	0.44530 0.86990 0.25770 -0.06300
C 	C 	0.56850 0.88220 0.24230 -0.38300
C 	C 	0.64340 0.85770 0.27630 0.20400
H 	H 	0.69310 0.87500 0.24940 -0.08100
C 	C 	0.42200 0.77680 0.39300 0.43100
C 	C 	0.56530 0.93660 0.16330 0.78700
C 	C 	0.55470 0.90750 0.05930 -1.04300
H 	H 	0.55240 0.94110 0.00650 0.29100
H 	H 	0.50340 0.88290 0.05780 0.30600
H 	H 	0.60130 0.87920 0.04470 0.32300
C 	C 	0.64170 0.97490 0.15940 -0.93800
H 	H 	0.65010 0.99610 0.22660 0.25000
H 	H 	0.63700 0.00710 0.10440 0.24600
H 	H 	0.68870 0.94700 0.14470 0.28200
C 	C 	0.49430 0.97880 0.18200 -0.94300
H 	H 	0.50010 0.99920 0.25030 0.27100
H 	H 	0.44330 0.95370 0.18050 0.29000
H 	H 	0.49220 0.01160 0.12780 0.22500
C 	C 	0.27980 0.61644 0.37860 0.55600
C 	C 	0.26200 0.55592 0.32090 -0.54000
C 	C 	0.26170 0.55590 0.21340 0.62600
H 	H 	0.26970 0.59480 0.17710 -0.23600
C 	C 	0.27170 0.55450 0.99090 -3.27500
H 	H 	0.26950 0.54960 0.91510 0.90500
H 	H 	0.32780 0.56590 0.01200 0.92400
H 	H 	0.23360 0.58830 0.01230 0.92900
O 	O 	0.79350 0.80049 0.34130 -0.38700
O 	O 	0.72636 0.74084 0.45380 -0.49100
O 	O 	0.42801 0.74025 0.47210 -0.51500
O 	O 	0.35570 0.78889 0.34890 -0.48900
O 	O 	0.30570 0.61226 0.46980 -0.56700
O 	O 	0.26860 0.66818 0.33580 -0.57500
Co	Co	0.66923 0.30314 0.47418 1.13600
C 	C 	0.77160 0.21740 0.38140 0.39200
C 	C 	0.85290 0.19119 0.34840 -0.31600
C 	C 	0.92540 0.21769 0.38710 0.21200
H 	H 	0.92310 0.25140 0.43640 -0.04200
C 	C 	0.00050 0.19473 0.35340 -0.32000
C 	C 	0.00280 0.14540 0.28110 0.32700
H 	H 	0.05470 0.13010 0.25770 -0.11000
C 	C 	0.93150 0.11780 0.24230 -0.57500
C 	C 	0.85660 0.14230 0.27630 0.31300
H 	H 	0.80690 0.12500 0.24940 -0.12900
C 	C 	0.07800 0.22320 0.39300 0.45100
C 	C 	0.93470 0.06340 0.16330 1.20700
C 	C 	0.94530 0.09250 0.05930 -1.42800
H 	H 	0.94760 0.05890 0.00650 0.39300
H 	H 	0.99660 0.11710 0.05780 0.41500
H 	H 	0.89870 0.12080 0.04470 0.43000
C 	C 	0.85830 0.02510 0.15940 -1.54800
H 	H 	0.84990 0.00390 0.22660 0.39700
H 	H 	0.86300 0.99290 0.10440 0.47900
H 	H 	0.81130 0.05300 0.14470 0.44600
C 	C 	0.00570 0.02120 0.18200 -1.50500
H 	H 	0.99990 0.00080 0.25030 0.40100
H 	H 	0.05670 0.04630 0.18050 0.44400
H 	H 	0.00780 0.98840 0.12780 0.44000
C 	C 	0.22020 0.38356 0.37860 0.55700
C 	C 	0.23800 0.44408 0.32090 -0.53900
C 	C 	0.23830 0.44410 0.21340 0.62600
H 	H 	0.23030 0.40520 0.17710 -0.23600
C 	C 	0.22830 0.44550 0.99090 -3.26900
H 	H 	0.23050 0.45040 0.91510 0.90400
H 	H 	0.17220 0.43410 0.01200 0.92100
H 	H 	0.26640 0.41170 0.01230 0.92700
O 	O 	0.70650 0.19951 0.34130 -0.39700
O 	O 	0.77364 0.25916 0.45380 -0.49800
O 	O 	0.07199 0.25975 0.47210 -0.51800
O 	O 	0.14430 0.21111 0.34890 -0.49600
O 	O 	0.19430 0.38774 0.46980 -0.56600
O 	O 	0.23140 0.33182 0.33580 -0.57500
Co	Co	0.33077 0.80314 0.97418 1.13800
C 	C 	0.22840 0.71740 0.88140 0.38600
C 	C 	0.14710 0.69119 0.84840 -0.30200
C 	C 	0.07460 0.71769 0.88710 0.21900
H 	H 	0.07690 0.75140 0.93640 -0.03800
C 	C 	0.99950 0.69473 0.85340 -0.32000
C 	C 	0.99720 0.64540 0.78110 0.27700
H 	H 	0.94530 0.63010 0.75770 -0.09300
C 	C 	0.06850 0.61780 0.74230 -0.50100
C 	C 	0.14340 0.64230 0.77630 0.27800
H 	H 	0.19310 0.62500 0.74940 -0.11400
C 	C 	0.92200 0.72320 0.89300 0.44900
C 	C 	0.06530 0.56340 0.66330 1.07600
C 	C 	0.05470 0.59250 0.55930 -1.30600
H 	H 	0.05240 0.55890 0.50650 0.36300
H 	H 	0.00340 0.61710 0.55780 0.38400
H 	H 	0.10130 0.62080 0.54470 0.39500
C 	C 	0.14170 0.52510 0.65940 -1.30700
H 	H 	0.15010 0.50390 0.72660 0.34000
H 	H 	0.13700 0.49290 0.60440 0.37900
H 	H 	0.18870 0.55300 0.64470 0.38000
C 	C 	0.99430 0.52120 0.68200 -1.36000
H 	H 	0.00010 0.50080 0.75030 0.38200
H 	H 	0.94330 0.54630 0.68050 0.40200
H 	H 	0.99220 0.48840 0.62780 0.37100
C 	C 	0.77980 0.88356 0.87860 0.54300
C 	C 	0.76200 0.94408 0.82090 -0.48200
C 	C 	0.76170 0.94410 0.71340 0.63600
H 	H 	0.76970 0.90520 0.67710 -0.23200
C 	C 	0.77170 0.94550 0.49090 -3.08800
H 	H 	0.76950 0.95040 0.41510 0.86500
H 	H 	0.82780 0.93410 0.51200 0.88300
H 	H 	0.73360 0.91170 0.51230 0.88700
O 	O 	0.29350 0.69951 0.84130 -0.39400
O 	O 	0.22636 0.75916 0.95380 -0.49300
O 	O 	0.92801 0.75975 0.97210 -0.52400
O 	O 	0.85570 0.71111 0.84890 -0.49600
O 	O 	0.80570 0.88774 0.96980 -0.55700
O 	O 	0.76860 0.83182 0.83580 -0.57000
Co	Co	0.16923 0.19686 0.97418 1.13800
C 	C 	0.27160 0.28260 0.88140 0.38200
C 	C 	0.35290 0.30881 0.84840 -0.29100
C 	C 	0.42540 0.28231 0.88710 0.19700
H 	H 	0.42310 0.24860 0.93640 -0.03700
C 	C 	0.50050 0.30527 0.85340 -0.30100
C 	C 	0.50280 0.35460 0.78110 0.27100
H 	H 	0.55470 0.36990 0.75770 -0.08800
C 	C 	0.43150 0.38220 0.74230 -0.48400
C 	C 	0.35660 0.35770 0.77630 0.26300
H 	H 	0.30690 0.37500 0.74940 -0.10800
C 	C 	0.57800 0.27680 0.89300 0.44300
C 	C 	0.43470 0.43660 0.66330 1.01400
C 	C 	0.44530 0.40750 0.55930 -1.25000
H 	H 	0.44760 0.44110 0.50650 0.34500
H 	H 	0.49660 0.38290 0.55780 0.36600
H 	H 	0.39870 0.37920 0.54470 0.38000
C 	C 	0.35830 0.47490 0.65940 -1.25000
H 	H 	0.34990 0.49610 0.72660 0.32300
H 	H 	0.36300 0.50710 0.60440 0.36100
H 	H 	0.31130 0.44700 0.64470 0.36400
C 	C 	0.50570 0.47880 0.68200 -1.26100
H 	H 	0.49990 0.49920 0.75030 0.34700
H 	H 	0.55670 0.45370 0.68050 0.37600
H 	H 	0.50780 0.51160 0.62780 0.34500
C 	C 	0.72020 0.11644 0.87860 0.54300
C 	C 	0.73800 0.05592 0.82090 -0.51500
C 	C 	0.73830 0.05590 0.71340 0.59600
H 	H 	0.73030 0.09480 0.67710 -0.22500
C 	C 	0.72830 0.05450 0.49090 -3.13200
H 	H 	0.73050 0.04960 0.41510 0.85700
H 	H 	0.67220 0.06590 0.51200 0.88300
H 	H 	0.76640 0.08830 0.51230 0.89000
O 	O 	0.20650 0.30049 0.84130 -0.39200
O 	O 	0.27364 0.24084 0.95380 -0.49600
O 	O 	0.57199 0.24025 0.97210 -0.52200
O 	O 	0.64430 0.28889 0.84890 -0.49500
O 	O 	0.69430 0.11226 0.96980 -0.56900
O 	O 	0.73140 0.16818 0.83580 -0.57400
Co	Co	0.16923 0.30314 0.52582 1.13600
C 	C 	0.27160 0.21740 0.61860 0.39400
C 	C 	0.35290 0.19119 0.65160 -0.32500
C 	C 	0.42540 0.21769 0.61290 0.22800
H 	H 	0.42310 0.25140 0.56360 -0.04600
C 	C 	0.50050 0.19473 0.64660 -0.33400
C 	C 	0.50280 0.14540 0.71890 0.33300
H 	H 	0.55470 0.13010 0.74230 -0.11400
C 	C 	0.43150 0.11780 0.75770 -0.58800
C 	C 	0.35660 0.14230 0.72370 0.32400
H 	H 	0.30690 0.12500 0.75060 -0.13300
C 	C 	0.57800 0.22320 0.60700 0.45500
C 	C 	0.43470 0.06340 0.83670 1.25100
C 	C 	0.44530 0.09250 0.94070 -1.46800
H 	H 	0.44760 0.05890 0.99350 0.40500
H 	H 	0.49660 0.11710 0.94220 0.42800
H 	H 	0.39870 0.12080 0.95530 0.44100
C 	C 	0.35830 0.02510 0.84060 -1.57300
H 	H 	0.34990 0.00390 0.77340 0.40400
H 	H 	0.36300 0.99290 0.89560 0.48100
H 	H 	0.31130 0.05300 0.85530 0.45400
C 	C 	0.50570 0.02120 0.81800 -1.59200
H 	H 	0.49990 0.00080 0.74970 0.43000
H 	H 	0.55670 0.04630 0.81950 0.46700
H 	H 	0.50780 0.98840 0.87220 0.47000
C 	C 	0.72020 0.38356 0.62140 0.55600
C 	C 	0.73800 0.44408 0.67910 -0.53900
C 	C 	0.73830 0.44410 0.78660 0.62300
H 	H 	0.73030 0.40520 0.82290 -0.23500
C 	C 	0.72830 0.44550 0.00910 -3.26600
H 	H 	0.73050 0.45040 0.08490 0.90300
H 	H 	0.67220 0.43410 0.98800 0.92200
H 	H 	0.76640 0.41170 0.98770 0.92600
O 	O 	0.20650 0.19951 0.65870 -0.39700
O 	O 	0.27364 0.25916 0.54620 -0.49800
O 	O 	0.57199 0.25975 0.52790 -0.52200
O 	O 	0.64430 0.21111 0.65110 -0.49700
O 	O 	0.69430 0.38774 0.53020 -0.56600
O 	O 	0.73140 0.33182 0.66420 -0.57500
Co	Co	0.33077 0.69686 0.52582 1.13600
C 	C 	0.22840 0.78260 0.61860 0.37300
C 	C 	0.14710 0.80881 0.65160 -0.26400
C 	C 	0.07460 0.78231 0.61290 0.18000
H 	H 	0.07690 0.74860 0.56360 -0.02900
C 	C 	0.99950 0.80527 0.64660 -0.27700
C 	C 	0.99720 0.85460 0.71890 0.21500
H 	H 	0.94530 0.86990 0.74230 -0.06600
C 	C 	0.06850 0.88220 0.75770 -0.39600
C 	C 	0.14340 0.85770 0.72370 0.21400
H 	H 	0.19310 0.87500 0.75060 -0.08700
C 	C 	0.92200 0.77680 0.60700 0.43500
C 	C 	0.06530 0.93660 0.83670 0.83200
C 	C 	0.05470 0.90750 0.94070 -1.08900
H 	H 	0.05240 0.94110 0.99350 0.30800
H 	H 	0.00340 0.88290 0.94220 0.32400
H 	H 	0.10130 0.87920 0.95530 0.33700
C 	C 	0.14170 0.97490 0.84060 -0.99400
H 	H 	0.15010 0.99610 0.77340 0.26300
H 	H 	0.13700 0.00710 0.89560 0.26800
H 	H 	0.18870 0.94700 0.85530 0.29600
C 	C 	0.99430 0.97880 0.81800 -0.99600
H 	H 	0.00010 0.99920 0.74970 0.29000
H 	H 	0.94330 0.95370 0.81950 0.30400
H 	H 	0.99220 0.01160 0.87220 0.23300
C 	C 	0.77980 0.61644 0.62140 0.55500
C 	C 	0.76200 0.55592 0.67910 -0.53900
C 	C 	0.76170 0.55590 0.78660 0.62300
H 	H 	0.76970 0.59480 0.82290 -0.23500
C 	C 	0.77170 0.55450 0.00910 -3.26000
H 	H 	0.76950 0.54960 0.08490 0.90200
H 	H 	0.82780 0.56590 0.98800 0.91800
H 	H 	0.73360 0.58830 0.98770 0.92500
O 	O 	0.29350 0.80049 0.65870 -0.38900
O 	O 	0.22636 0.74084 0.54620 -0.49300
O 	O 	0.92801 0.74025 0.52790 -0.51800
O 	O 	0.85570 0.78889 0.65110 -0.49000
O 	O 	0.80570 0.61226 0.53020 -0.56700
O 	O 	0.76860 0.66818 0.66420 -0.57400
Co	Co	0.23291 0.25000 0.25000 1.14100
Co	Co	0.26709 0.75000 0.25000 1.14100
Co	Co	0.76709 0.75000 0.75000 1.14100
Co	Co	0.73291 0.25000 0.75000 1.14000
C 	C 	0.25000 -0.00000 0.34270 -1.09200
C 	C 	0.25000 -0.00000 0.46390 2.19400
C 	C 	0.25000 0.00000 0.12530 0.35600
H 	H 	0.25000 0.00000 0.05130 -0.11700
C 	C 	0.25000 0.50000 0.15730 -1.07700
C 	C 	0.25000 0.50000 0.03610 2.25700
C 	C 	0.25000 0.50000 0.37470 0.41300
H 	H 	0.25000 0.50000 0.44870 -0.12300
C 	C 	0.75000 0.00000 0.65730 -1.06700
C 	C 	0.75000 -0.00000 0.53610 2.12200
C 	C 	0.75000 0.00000 0.87470 0.33900
H 	H 	0.75000 0.00000 0.94870 -0.11300
C 	C 	0.75000 0.50000 0.84270 -1.07500
C 	C 	0.75000 0.50000 0.96390 2.25100
C 	C 	0.75000 0.50000 0.62530 0.41200
H 	H 	0.75000 0.50000 0.55130 -0.12200
