data_crystal

_cell_length_a 25.48660
_cell_length_b 25.48660
_cell_length_c 25.48660
_cell_angle_alpha 60.00000
_cell_angle_beta  60.00000
_cell_angle_gamma 60.00000

_symmetry_space_group_name_	'P 1'
_symmetry_space_group_name_H-M	'P 1'

loop_
_symmetry_equiv_pos_as_xyz
  x,y,z

loop_
_atom_site_label
_atom_site_type_symbol
_atom_site_fract_x
_atom_site_fract_y
_atom_site_fract_z
_atom_site_charge
In	In	0.25000 0.25000 0.98604 1.96400
In	In	0.75000 0.75000 0.51396 1.96400
In	In	0.48604 0.51396 0.75000 1.96400
In	In	0.01396 0.98604 0.25000 1.96300
In	In	0.25000 0.98604 0.51396 1.96300
In	In	0.75000 0.51396 0.98604 1.96400
In	In	0.48604 0.75000 0.25000 1.96300
In	In	0.01396 0.25000 0.75000 1.96300
In	In	0.25000 0.51396 0.25000 1.96300
In	In	0.75000 0.98604 0.75000 1.96400
In	In	0.48604 0.25000 0.51396 1.96300
In	In	0.01396 0.75000 0.98604 1.96100
In	In	0.75000 0.75000 0.01396 1.96300
In	In	0.25000 0.25000 0.48604 1.96300
In	In	0.51396 0.48604 0.25000 1.96300
In	In	0.98604 0.01396 0.75000 1.96200
In	In	0.75000 0.01396 0.48604 1.96300
In	In	0.25000 0.48604 0.01396 1.96400
In	In	0.51396 0.25000 0.75000 1.96300
In	In	0.98604 0.75000 0.25000 1.96300
In	In	0.75000 0.48604 0.75000 1.96300
In	In	0.25000 0.01396 0.25000 1.96400
In	In	0.51396 0.75000 0.48604 1.96300
In	In	0.98604 0.25000 0.01396 1.96100
H 	H 	0.14280 0.25460 0.94540 0.01000
H 	H 	0.75460 0.64280 0.65720 0.00700
H 	H 	0.44540 0.65720 0.64280 0.00700
H 	H 	0.15720 0.94540 0.25460 0.01000
H 	H 	0.14280 0.94540 0.65720 0.00900
H 	H 	0.75460 0.65720 0.94540 0.00500
H 	H 	0.44540 0.64280 0.25460 0.00700
H 	H 	0.15720 0.25460 0.64280 0.00700
H 	H 	0.14280 0.65720 0.25460 0.00700
H 	H 	0.75460 0.94540 0.64280 0.00500
H 	H 	0.44540 0.25460 0.65720 0.00700
H 	H 	0.15720 0.64280 0.94540 0.00900
H 	H 	0.74540 0.85720 0.55460 0.00700
H 	H 	0.35720 0.24540 0.84280 0.00700
H 	H 	0.34280 0.55460 0.85720 0.00700
H 	H 	0.05460 0.84280 0.24540 0.00800
H 	H 	0.05460 0.85720 0.84280 0.01200
H 	H 	0.34280 0.24540 0.55460 0.00700
H 	H 	0.35720 0.55460 0.24540 0.00700
H 	H 	0.74540 0.84280 0.85720 0.00700
H 	H 	0.34280 0.85720 0.24540 0.00700
H 	H 	0.05460 0.24540 0.85720 0.00800
H 	H 	0.74540 0.55460 0.84280 0.00700
H 	H 	0.35720 0.84280 0.55460 0.00700
H 	H 	0.85720 0.74540 0.05460 0.01000
H 	H 	0.24540 0.35720 0.34280 0.00700
H 	H 	0.55460 0.34280 0.35720 0.00700
H 	H 	0.84280 0.05460 0.74540 0.01000
H 	H 	0.85720 0.05460 0.34280 0.00900
H 	H 	0.24540 0.34280 0.05460 0.00500
H 	H 	0.55460 0.35720 0.74540 0.00700
H 	H 	0.84280 0.74540 0.35720 0.00700
H 	H 	0.85720 0.34280 0.74540 0.00700
H 	H 	0.24540 0.05460 0.35720 0.00500
H 	H 	0.55460 0.74540 0.34280 0.00700
H 	H 	0.84280 0.35720 0.05460 0.00900
H 	H 	0.25460 0.14280 0.44540 0.00700
H 	H 	0.64280 0.75460 0.15720 0.00700
H 	H 	0.65720 0.44540 0.14280 0.00700
H 	H 	0.94540 0.15720 0.75460 0.00800
H 	H 	0.94540 0.14280 0.15720 0.01200
H 	H 	0.65720 0.75460 0.44540 0.00700
H 	H 	0.64280 0.44540 0.75460 0.00700
H 	H 	0.25460 0.15720 0.14280 0.00700
H 	H 	0.65720 0.14280 0.75460 0.00700
H 	H 	0.94540 0.75460 0.14280 0.00800
H 	H 	0.25460 0.44540 0.15720 0.00700
H 	H 	0.64280 0.15720 0.44540 0.00700
C 	C 	0.10000 0.27100 0.07320 0.01200
C 	C 	0.11520 0.27720 0.11940 0.24800
C 	C 	0.12120 0.26000 0.98540 0.11500
C 	C 	0.04610 0.26990 0.07470 -0.03400
C 	C 	0.97830 0.27610 0.12230 0.30400
C 	C 	0.77100 0.60000 0.55580 0.01200
C 	C 	0.77720 0.61520 0.48820 0.24700
C 	C 	0.76000 0.62120 0.63340 0.12500
C 	C 	0.76990 0.54610 0.60930 -0.04100
C 	C 	0.77610 0.47830 0.62330 0.31100
C 	C 	0.57320 0.55580 0.60000 0.01200
C 	C 	0.61940 0.48820 0.61520 0.24700
C 	C 	0.48540 0.63340 0.62120 0.12500
C 	C 	0.57470 0.60930 0.54610 -0.04100
C 	C 	0.62230 0.62330 0.47830 0.31100
C 	C 	0.05580 0.07320 0.27100 0.02000
C 	C 	0.98820 0.11940 0.27720 0.24000
C 	C 	0.13340 0.98540 0.26000 0.11500
C 	C 	0.10930 0.07470 0.26990 -0.04200
C 	C 	0.12330 0.12230 0.27610 0.31200
C 	C 	0.10000 0.07320 0.55580 0.01200
C 	C 	0.11520 0.11940 0.48820 0.24800
C 	C 	0.12120 0.98540 0.63340 0.11700
C 	C 	0.04610 0.07470 0.60930 -0.03800
C 	C 	0.97830 0.12230 0.62330 0.30800
C 	C 	0.77100 0.55580 0.07320 0.01200
C 	C 	0.77720 0.48820 0.11940 0.24700
C 	C 	0.76000 0.63340 0.98540 0.13300
C 	C 	0.76990 0.60930 0.07470 -0.04100
C 	C 	0.77610 0.62330 0.12230 0.31100
C 	C 	0.57320 0.60000 0.27100 0.01200
C 	C 	0.61940 0.61520 0.27720 0.24700
C 	C 	0.48540 0.62120 0.26000 0.12500
C 	C 	0.57470 0.54610 0.26990 -0.04100
C 	C 	0.62230 0.47830 0.27610 0.31100
C 	C 	0.05580 0.27100 0.60000 0.01400
C 	C 	0.98820 0.27720 0.61520 0.24600
C 	C 	0.13340 0.26000 0.62120 0.12500
C 	C 	0.10930 0.26990 0.54610 -0.04100
C 	C 	0.12330 0.27610 0.47830 0.31100
C 	C 	0.10000 0.55580 0.27100 0.01200
C 	C 	0.11520 0.48820 0.27720 0.24700
C 	C 	0.12120 0.63340 0.26000 0.12500
C 	C 	0.04610 0.60930 0.26990 -0.04000
C 	C 	0.97830 0.62330 0.27610 0.31000
C 	C 	0.77100 0.07320 0.60000 0.01200
C 	C 	0.77720 0.11940 0.61520 0.24700
C 	C 	0.76000 0.98540 0.62120 0.13300
C 	C 	0.76990 0.07470 0.54610 -0.04100
C 	C 	0.77610 0.12230 0.47830 0.31100
C 	C 	0.57320 0.27100 0.55580 0.01200
C 	C 	0.61940 0.27720 0.48820 0.24700
C 	C 	0.48540 0.26000 0.63340 0.12500
C 	C 	0.57470 0.26990 0.60930 -0.04100
C 	C 	0.62230 0.27610 0.62330 0.31100
C 	C 	0.05580 0.60000 0.07320 0.01600
C 	C 	0.98820 0.61520 0.11940 0.24400
C 	C 	0.13340 0.62120 0.98540 0.11700
C 	C 	0.10930 0.54610 0.07470 -0.04100
C 	C 	0.12330 0.47830 0.12230 0.31200
C 	C 	0.72900 0.90000 0.42680 0.01200
C 	C 	0.72280 0.88480 0.38060 0.24700
C 	C 	0.74000 0.87880 0.51460 0.12600
C 	C 	0.73010 0.95390 0.42530 -0.03900
C 	C 	0.72390 0.02170 0.37770 0.30900
C 	C 	0.40000 0.22900 0.94420 0.01000
C 	C 	0.38480 0.22280 0.01180 0.24900
C 	C 	0.37880 0.24000 0.86660 0.12500
C 	C 	0.45390 0.23010 0.89070 -0.04100
C 	C 	0.52170 0.22390 0.87670 0.31100
C 	C 	0.44420 0.42680 0.90000 0.01300
C 	C 	0.51180 0.38060 0.88480 0.24700
C 	C 	0.36660 0.51460 0.87880 0.12500
C 	C 	0.39070 0.42530 0.95390 -0.04300
C 	C 	0.37670 0.37770 0.02170 0.31300
C 	C 	0.92680 0.94420 0.22900 0.01600
C 	C 	0.88060 0.01180 0.22280 0.24300
C 	C 	0.01460 0.86660 0.24000 0.12300
C 	C 	0.92530 0.89070 0.23010 -0.04200
C 	C 	0.87770 0.87670 0.22390 0.31200
C 	C 	0.92680 0.90000 0.94420 0.01800
C 	C 	0.88060 0.88480 0.01180 0.24200
C 	C 	0.01460 0.87880 0.86660 0.10700
C 	C 	0.92530 0.95390 0.89070 -0.03600
C 	C 	0.87770 0.02170 0.87670 0.30700
C 	C 	0.44420 0.22900 0.42680 0.01200
C 	C 	0.51180 0.22280 0.38060 0.24700
C 	C 	0.36660 0.24000 0.51460 0.12500
C 	C 	0.39070 0.23010 0.42530 -0.04100
C 	C 	0.37670 0.22390 0.37770 0.31100
C 	C 	0.40000 0.42680 0.22900 0.01200
C 	C 	0.38480 0.38060 0.22280 0.24700
C 	C 	0.37880 0.51460 0.24000 0.12500
C 	C 	0.45390 0.42530 0.23010 -0.04100
C 	C 	0.52170 0.37770 0.22390 0.31100
C 	C 	0.72900 0.94420 0.90000 0.01500
C 	C 	0.72280 0.01180 0.88480 0.24400
C 	C 	0.74000 0.86660 0.87880 0.12600
C 	C 	0.73010 0.89070 0.95390 -0.03800
C 	C 	0.72390 0.87670 0.02170 0.30800
C 	C 	0.44420 0.90000 0.22900 0.01300
C 	C 	0.51180 0.88480 0.22280 0.24700
C 	C 	0.36660 0.87880 0.24000 0.12500
C 	C 	0.39070 0.95390 0.23010 -0.04300
C 	C 	0.37670 0.02170 0.22390 0.31400
C 	C 	0.92680 0.22900 0.90000 0.01200
C 	C 	0.88060 0.22280 0.88480 0.24800
C 	C 	0.01460 0.24000 0.87880 0.12200
C 	C 	0.92530 0.23010 0.95390 -0.03800
C 	C 	0.87770 0.22390 0.02170 0.30800
C 	C 	0.72900 0.42680 0.94420 0.01500
C 	C 	0.72280 0.38060 0.01180 0.24500
C 	C 	0.74000 0.51460 0.86660 0.12500
C 	C 	0.73010 0.42530 0.89070 -0.04200
C 	C 	0.72390 0.37770 0.87670 0.31200
C 	C 	0.40000 0.94420 0.42680 0.01100
C 	C 	0.38480 0.01180 0.38060 0.24900
C 	C 	0.37880 0.86660 0.51460 0.12500
C 	C 	0.45390 0.89070 0.42530 -0.04100
C 	C 	0.52170 0.87670 0.37770 0.31100
C 	C 	0.90000 0.72900 0.92680 0.01200
C 	C 	0.88480 0.72280 0.88060 0.24800
C 	C 	0.87880 0.74000 0.01460 0.11500
C 	C 	0.95390 0.73010 0.92530 -0.03400
C 	C 	0.02170 0.72390 0.87770 0.30400
C 	C 	0.22900 0.40000 0.44420 0.01200
C 	C 	0.22280 0.38480 0.51180 0.24700
C 	C 	0.24000 0.37880 0.36660 0.12500
C 	C 	0.23010 0.45390 0.39070 -0.04100
C 	C 	0.22390 0.52170 0.37670 0.31100
C 	C 	0.42680 0.44420 0.40000 0.01200
C 	C 	0.38060 0.51180 0.38480 0.24700
C 	C 	0.51460 0.36660 0.37880 0.12500
C 	C 	0.42530 0.39070 0.45390 -0.04100
C 	C 	0.37770 0.37670 0.52170 0.31100
C 	C 	0.94420 0.92680 0.72900 0.02000
C 	C 	0.01180 0.88060 0.72280 0.24000
C 	C 	0.86660 0.01460 0.74000 0.11500
C 	C 	0.89070 0.92530 0.73010 -0.04200
C 	C 	0.87670 0.87770 0.72390 0.31200
C 	C 	0.90000 0.92680 0.44420 0.01200
C 	C 	0.88480 0.88060 0.51180 0.24800
C 	C 	0.87880 0.01460 0.36660 0.11700
C 	C 	0.95390 0.92530 0.39070 -0.03800
C 	C 	0.02170 0.87770 0.37670 0.30800
C 	C 	0.22900 0.44420 0.92680 0.01200
C 	C 	0.22280 0.51180 0.88060 0.24700
C 	C 	0.24000 0.36660 0.01460 0.13300
C 	C 	0.23010 0.39070 0.92530 -0.04100
C 	C 	0.22390 0.37670 0.87770 0.31100
C 	C 	0.42680 0.40000 0.72900 0.01200
C 	C 	0.38060 0.38480 0.72280 0.24700
C 	C 	0.51460 0.37880 0.74000 0.12500
C 	C 	0.42530 0.45390 0.73010 -0.04100
C 	C 	0.37770 0.52170 0.72390 0.31100
C 	C 	0.94420 0.72900 0.40000 0.01400
C 	C 	0.01180 0.72280 0.38480 0.24600
C 	C 	0.86660 0.74000 0.37880 0.12500
C 	C 	0.89070 0.73010 0.45390 -0.04100
C 	C 	0.87670 0.72390 0.52170 0.31100
C 	C 	0.90000 0.44420 0.72900 0.01200
C 	C 	0.88480 0.51180 0.72280 0.24700
C 	C 	0.87880 0.36660 0.74000 0.12500
C 	C 	0.95390 0.39070 0.73010 -0.04000
C 	C 	0.02170 0.37670 0.72390 0.31000
C 	C 	0.22900 0.92680 0.40000 0.01200
C 	C 	0.22280 0.88060 0.38480 0.24700
C 	C 	0.24000 0.01460 0.37880 0.13300
C 	C 	0.23010 0.92530 0.45390 -0.04100
C 	C 	0.22390 0.87770 0.52170 0.31100
C 	C 	0.42680 0.72900 0.44420 0.01200
C 	C 	0.38060 0.72280 0.51180 0.24700
C 	C 	0.51460 0.74000 0.36660 0.12500
C 	C 	0.42530 0.73010 0.39070 -0.04100
C 	C 	0.37770 0.72390 0.37670 0.31100
C 	C 	0.94420 0.40000 0.92680 0.01600
C 	C 	0.01180 0.38480 0.88060 0.24400
C 	C 	0.86660 0.37880 0.01460 0.11700
C 	C 	0.89070 0.45390 0.92530 -0.04100
C 	C 	0.87670 0.52170 0.87770 0.31200
C 	C 	0.27100 0.10000 0.57320 0.01200
C 	C 	0.27720 0.11520 0.61940 0.24700
C 	C 	0.26000 0.12120 0.48540 0.12600
C 	C 	0.26990 0.04610 0.57470 -0.03900
C 	C 	0.27610 0.97830 0.62230 0.30900
C 	C 	0.60000 0.77100 0.05580 0.01000
C 	C 	0.61520 0.77720 0.98820 0.24900
C 	C 	0.62120 0.76000 0.13340 0.12500
C 	C 	0.54610 0.76990 0.10930 -0.04100
C 	C 	0.47830 0.77610 0.12330 0.31100
C 	C 	0.55580 0.57320 0.10000 0.01300
C 	C 	0.48820 0.61940 0.11520 0.24700
C 	C 	0.63340 0.48540 0.12120 0.12500
C 	C 	0.60930 0.57470 0.04610 -0.04300
C 	C 	0.62330 0.62230 0.97830 0.31300
C 	C 	0.07320 0.05580 0.77100 0.01600
C 	C 	0.11940 0.98820 0.77720 0.24300
C 	C 	0.98540 0.13340 0.76000 0.12300
C 	C 	0.07470 0.10930 0.76990 -0.04200
C 	C 	0.12230 0.12330 0.77610 0.31200
C 	C 	0.07320 0.10000 0.05580 0.01800
C 	C 	0.11940 0.11520 0.98820 0.24200
C 	C 	0.98540 0.12120 0.13340 0.10700
C 	C 	0.07470 0.04610 0.10930 -0.03600
C 	C 	0.12230 0.97830 0.12330 0.30700
C 	C 	0.55580 0.77100 0.57320 0.01200
C 	C 	0.48820 0.77720 0.61940 0.24700
C 	C 	0.63340 0.76000 0.48540 0.12500
C 	C 	0.60930 0.76990 0.57470 -0.04100
C 	C 	0.62330 0.77610 0.62230 0.31100
C 	C 	0.60000 0.57320 0.77100 0.01200
C 	C 	0.61520 0.61940 0.77720 0.24700
C 	C 	0.62120 0.48540 0.76000 0.12500
C 	C 	0.54610 0.57470 0.76990 -0.04100
C 	C 	0.47830 0.62230 0.77610 0.31100
C 	C 	0.27100 0.05580 0.10000 0.01500
C 	C 	0.27720 0.98820 0.11520 0.24400
C 	C 	0.26000 0.13340 0.12120 0.12600
C 	C 	0.26990 0.10930 0.04610 -0.03800
C 	C 	0.27610 0.12330 0.97830 0.30800
C 	C 	0.55580 0.10000 0.77100 0.01300
C 	C 	0.48820 0.11520 0.77720 0.24700
C 	C 	0.63340 0.12120 0.76000 0.12500
C 	C 	0.60930 0.04610 0.76990 -0.04300
C 	C 	0.62330 0.97830 0.77610 0.31400
C 	C 	0.07320 0.77100 0.10000 0.01200
C 	C 	0.11940 0.77720 0.11520 0.24800
C 	C 	0.98540 0.76000 0.12120 0.12200
C 	C 	0.07470 0.76990 0.04610 -0.03800
C 	C 	0.12230 0.77610 0.97830 0.30800
C 	C 	0.27100 0.57320 0.05580 0.01500
C 	C 	0.27720 0.61940 0.98820 0.24500
C 	C 	0.26000 0.48540 0.13340 0.12500
C 	C 	0.26990 0.57470 0.10930 -0.04200
C 	C 	0.27610 0.62230 0.12330 0.31200
C 	C 	0.60000 0.05580 0.57320 0.01100
C 	C 	0.61520 0.98820 0.61940 0.24900
C 	C 	0.62120 0.13340 0.48540 0.12500
C 	C 	0.54610 0.10930 0.57470 -0.04100
C 	C 	0.47830 0.12330 0.62230 0.31100
N 	N 	0.14760 0.26520 0.01600 -0.30000
N 	N 	0.06050 0.26350 0.01950 -0.30200
N 	N 	0.76520 0.64760 0.57120 -0.30500
N 	N 	0.76350 0.56050 0.65650 -0.30700
N 	N 	0.51600 0.57120 0.64760 -0.30500
N 	N 	0.51950 0.65650 0.56050 -0.30700
N 	N 	0.07120 0.01600 0.26520 -0.30000
N 	N 	0.15650 0.01950 0.26350 -0.30200
N 	N 	0.14760 0.01600 0.57120 -0.30100
N 	N 	0.06050 0.01950 0.65650 -0.30400
N 	N 	0.76520 0.57120 0.01600 -0.30800
N 	N 	0.76350 0.65650 0.01950 -0.31000
N 	N 	0.51600 0.64760 0.26520 -0.30500
N 	N 	0.51950 0.56050 0.26350 -0.30700
N 	N 	0.07120 0.26520 0.64760 -0.30500
N 	N 	0.15650 0.26350 0.56050 -0.30700
N 	N 	0.14760 0.57120 0.26520 -0.30500
N 	N 	0.06050 0.65650 0.26350 -0.30700
N 	N 	0.76520 0.01600 0.64760 -0.30800
N 	N 	0.76350 0.01950 0.56050 -0.30900
N 	N 	0.51600 0.26520 0.57120 -0.30500
N 	N 	0.51950 0.26350 0.65650 -0.30700
N 	N 	0.07120 0.64760 0.01600 -0.30100
N 	N 	0.15650 0.56050 0.01950 -0.30300
N 	N 	0.73480 0.85240 0.48400 -0.30500
N 	N 	0.73650 0.93950 0.48050 -0.30700
N 	N 	0.35240 0.23480 0.92880 -0.30500
N 	N 	0.43950 0.23650 0.84350 -0.30700
N 	N 	0.42880 0.48400 0.85240 -0.30500
N 	N 	0.34350 0.48050 0.93950 -0.30700
N 	N 	0.98400 0.92880 0.23480 -0.30400
N 	N 	0.98050 0.84350 0.23650 -0.30600
N 	N 	0.98400 0.85240 0.92880 -0.29700
N 	N 	0.98050 0.93950 0.84350 -0.29900
N 	N 	0.42880 0.23480 0.48400 -0.30500
N 	N 	0.34350 0.23650 0.48050 -0.30700
N 	N 	0.35240 0.48400 0.23480 -0.30500
N 	N 	0.43950 0.48050 0.23650 -0.30700
N 	N 	0.73480 0.92880 0.85240 -0.30500
N 	N 	0.73650 0.84350 0.93950 -0.30600
N 	N 	0.42880 0.85240 0.23480 -0.30500
N 	N 	0.34350 0.93950 0.23650 -0.30700
N 	N 	0.98400 0.23480 0.85240 -0.30400
N 	N 	0.98050 0.23650 0.93950 -0.30600
N 	N 	0.73480 0.48400 0.92880 -0.30500
N 	N 	0.73650 0.48050 0.84350 -0.30700
N 	N 	0.35240 0.92880 0.48400 -0.30500
N 	N 	0.43950 0.84350 0.48050 -0.30700
N 	N 	0.85240 0.73480 0.98400 -0.30000
N 	N 	0.93950 0.73650 0.98050 -0.30200
N 	N 	0.23480 0.35240 0.42880 -0.30500
N 	N 	0.23650 0.43950 0.34350 -0.30700
N 	N 	0.48400 0.42880 0.35240 -0.30500
N 	N 	0.48050 0.34350 0.43950 -0.30700
N 	N 	0.92880 0.98400 0.73480 -0.30000
N 	N 	0.84350 0.98050 0.73650 -0.30200
N 	N 	0.85240 0.98400 0.42880 -0.30100
N 	N 	0.93950 0.98050 0.34350 -0.30400
N 	N 	0.23480 0.42880 0.98400 -0.30800
N 	N 	0.23650 0.34350 0.98050 -0.31000
N 	N 	0.48400 0.35240 0.73480 -0.30500
N 	N 	0.48050 0.43950 0.73650 -0.30700
N 	N 	0.92880 0.73480 0.35240 -0.30500
N 	N 	0.84350 0.73650 0.43950 -0.30700
N 	N 	0.85240 0.42880 0.73480 -0.30500
N 	N 	0.93950 0.34350 0.73650 -0.30700
N 	N 	0.23480 0.98400 0.35240 -0.30800
N 	N 	0.23650 0.98050 0.43950 -0.30900
N 	N 	0.48400 0.73480 0.42880 -0.30500
N 	N 	0.48050 0.73650 0.34350 -0.30700
N 	N 	0.92880 0.35240 0.98400 -0.30100
N 	N 	0.84350 0.43950 0.98050 -0.30300
N 	N 	0.26520 0.14760 0.51600 -0.30500
N 	N 	0.26350 0.06050 0.51950 -0.30700
N 	N 	0.64760 0.76520 0.07120 -0.30500
N 	N 	0.56050 0.76350 0.15650 -0.30700
N 	N 	0.57120 0.51600 0.14760 -0.30500
N 	N 	0.65650 0.51950 0.06050 -0.30700
N 	N 	0.01600 0.07120 0.76520 -0.30400
N 	N 	0.01950 0.15650 0.76350 -0.30600
N 	N 	0.01600 0.14760 0.07120 -0.29700
N 	N 	0.01950 0.06050 0.15650 -0.29900
N 	N 	0.57120 0.76520 0.51600 -0.30500
N 	N 	0.65650 0.76350 0.51950 -0.30700
N 	N 	0.64760 0.51600 0.76520 -0.30500
N 	N 	0.56050 0.51950 0.76350 -0.30700
N 	N 	0.26520 0.07120 0.14760 -0.30500
N 	N 	0.26350 0.15650 0.06050 -0.30600
N 	N 	0.57120 0.14760 0.76520 -0.30500
N 	N 	0.65650 0.06050 0.76350 -0.30700
N 	N 	0.01600 0.76520 0.14760 -0.30400
N 	N 	0.01950 0.76350 0.06050 -0.30600
N 	N 	0.26520 0.51600 0.07120 -0.30500
N 	N 	0.26350 0.51950 0.15650 -0.30700
N 	N 	0.64760 0.07120 0.51600 -0.30500
N 	N 	0.56050 0.15650 0.51950 -0.30700
O 	O 	0.16880 0.27100 0.11020 -0.29900
O 	O 	0.06340 0.29000 0.16920 -0.12900
O 	O 	0.94310 0.26710 0.10970 -0.43300
O 	O 	0.96630 0.28850 0.16850 -0.16900
O 	O 	0.77100 0.66880 0.45000 -0.29900
O 	O 	0.79000 0.56340 0.47740 -0.13100
O 	O 	0.76710 0.44310 0.68010 -0.43300
O 	O 	0.78850 0.46630 0.57670 -0.16900
O 	O 	0.61020 0.45000 0.66880 -0.29900
O 	O 	0.66920 0.47740 0.56340 -0.13100
O 	O 	0.60970 0.68010 0.44310 -0.43300
O 	O 	0.66850 0.57670 0.46630 -0.16900
O 	O 	0.95000 0.11020 0.27100 -0.29900
O 	O 	0.97740 0.16920 0.29000 -0.13200
O 	O 	0.18010 0.10970 0.26710 -0.43300
O 	O 	0.07670 0.16850 0.28850 -0.16700
O 	O 	0.16880 0.11020 0.45000 -0.29900
O 	O 	0.06340 0.16920 0.47740 -0.13000
O 	O 	0.94310 0.10970 0.68010 -0.43300
O 	O 	0.96630 0.16850 0.57670 -0.16900
O 	O 	0.77100 0.45000 0.11020 -0.30000
O 	O 	0.79000 0.47740 0.16920 -0.13100
O 	O 	0.76710 0.68010 0.10970 -0.43400
O 	O 	0.78850 0.57670 0.16850 -0.16900
O 	O 	0.61020 0.66880 0.27100 -0.29900
O 	O 	0.66920 0.56340 0.29000 -0.13100
O 	O 	0.60970 0.44310 0.26710 -0.43300
O 	O 	0.66850 0.46630 0.28850 -0.16900
O 	O 	0.95000 0.27100 0.66880 -0.29900
O 	O 	0.97740 0.29000 0.56340 -0.13200
O 	O 	0.18010 0.26710 0.44310 -0.43300
O 	O 	0.07670 0.28850 0.46630 -0.16800
O 	O 	0.16880 0.45000 0.27100 -0.29900
O 	O 	0.06340 0.47740 0.29000 -0.13000
O 	O 	0.94310 0.68010 0.26710 -0.43300
O 	O 	0.96630 0.57670 0.28850 -0.16900
O 	O 	0.77100 0.11020 0.66880 -0.30000
O 	O 	0.79000 0.16920 0.56340 -0.13100
O 	O 	0.76710 0.10970 0.44310 -0.43400
O 	O 	0.78850 0.16850 0.46630 -0.16900
O 	O 	0.61020 0.27100 0.45000 -0.29900
O 	O 	0.66920 0.29000 0.47740 -0.13100
O 	O 	0.60970 0.26710 0.68010 -0.43300
O 	O 	0.66850 0.28850 0.57670 -0.16900
O 	O 	0.95000 0.66880 0.11020 -0.29900
O 	O 	0.97740 0.56340 0.16920 -0.13200
O 	O 	0.18010 0.44310 0.10970 -0.43300
O 	O 	0.07670 0.46630 0.16850 -0.16800
O 	O 	0.72900 0.83120 0.38980 -0.29900
O 	O 	0.71000 0.93660 0.33080 -0.13000
O 	O 	0.73290 0.05690 0.39030 -0.43300
O 	O 	0.71150 0.03370 0.33150 -0.16900
O 	O 	0.33120 0.22900 0.05000 -0.29900
O 	O 	0.43660 0.21000 0.02260 -0.13100
O 	O 	0.55690 0.23290 0.81990 -0.43300
O 	O 	0.53370 0.21150 0.92330 -0.16900
O 	O 	0.55000 0.38980 0.83120 -0.29900
O 	O 	0.52260 0.33080 0.93660 -0.13100
O 	O 	0.31990 0.39030 0.05690 -0.43300
O 	O 	0.42330 0.33150 0.03370 -0.16900
O 	O 	0.88980 0.05000 0.22900 -0.30000
O 	O 	0.83080 0.02260 0.21000 -0.13200
O 	O 	0.89030 0.81990 0.23290 -0.43300
O 	O 	0.83150 0.92330 0.21150 -0.16800
O 	O 	0.88980 0.83120 0.05000 -0.29900
O 	O 	0.83080 0.93660 0.02260 -0.13000
O 	O 	0.89030 0.05690 0.81990 -0.43300
O 	O 	0.83150 0.03370 0.92330 -0.16800
O 	O 	0.55000 0.22900 0.38980 -0.29900
O 	O 	0.52260 0.21000 0.33080 -0.13100
O 	O 	0.31990 0.23290 0.39030 -0.43300
O 	O 	0.42330 0.21150 0.33150 -0.16900
O 	O 	0.33120 0.38980 0.22900 -0.29900
O 	O 	0.43660 0.33080 0.21000 -0.13100
O 	O 	0.55690 0.39030 0.23290 -0.43300
O 	O 	0.53370 0.33150 0.21150 -0.16900
O 	O 	0.72900 0.05000 0.83120 -0.29900
O 	O 	0.71000 0.02260 0.93660 -0.13100
O 	O 	0.73290 0.81990 0.05690 -0.43300
O 	O 	0.71150 0.92330 0.03370 -0.16800
O 	O 	0.55000 0.83120 0.22900 -0.29900
O 	O 	0.52260 0.93660 0.21000 -0.13100
O 	O 	0.31990 0.05690 0.23290 -0.43300
O 	O 	0.42330 0.03370 0.21150 -0.16900
O 	O 	0.88980 0.22900 0.83120 -0.30000
O 	O 	0.83080 0.21000 0.93660 -0.13000
O 	O 	0.89030 0.23290 0.05690 -0.43400
O 	O 	0.83150 0.21150 0.03370 -0.16900
O 	O 	0.72900 0.38980 0.05000 -0.29900
O 	O 	0.71000 0.33080 0.02260 -0.13100
O 	O 	0.73290 0.39030 0.81990 -0.43300
O 	O 	0.71150 0.33150 0.92330 -0.16800
O 	O 	0.33120 0.05000 0.38980 -0.29900
O 	O 	0.43660 0.02260 0.33080 -0.13100
O 	O 	0.55690 0.81990 0.39030 -0.43300
O 	O 	0.53370 0.92330 0.33150 -0.16900
O 	O 	0.83120 0.72900 0.88980 -0.29900
O 	O 	0.93660 0.71000 0.83080 -0.12900
O 	O 	0.05690 0.73290 0.89030 -0.43300
O 	O 	0.03370 0.71150 0.83150 -0.16900
O 	O 	0.22900 0.33120 0.55000 -0.29900
O 	O 	0.21000 0.43660 0.52260 -0.13100
O 	O 	0.23290 0.55690 0.31990 -0.43300
O 	O 	0.21150 0.53370 0.42330 -0.16900
O 	O 	0.38980 0.55000 0.33120 -0.29900
O 	O 	0.33080 0.52260 0.43660 -0.13100
O 	O 	0.39030 0.31990 0.55690 -0.43300
O 	O 	0.33150 0.42330 0.53370 -0.16900
O 	O 	0.05000 0.88980 0.72900 -0.29900
O 	O 	0.02260 0.83080 0.71000 -0.13200
O 	O 	0.81990 0.89030 0.73290 -0.43300
O 	O 	0.92330 0.83150 0.71150 -0.16700
O 	O 	0.83120 0.88980 0.55000 -0.29900
O 	O 	0.93660 0.83080 0.52260 -0.13000
O 	O 	0.05690 0.89030 0.31990 -0.43300
O 	O 	0.03370 0.83150 0.42330 -0.16900
O 	O 	0.22900 0.55000 0.88980 -0.30000
O 	O 	0.21000 0.52260 0.83080 -0.13100
O 	O 	0.23290 0.31990 0.89030 -0.43400
O 	O 	0.21150 0.42330 0.83150 -0.16900
O 	O 	0.38980 0.33120 0.72900 -0.29900
O 	O 	0.33080 0.43660 0.71000 -0.13100
O 	O 	0.39030 0.55690 0.73290 -0.43300
O 	O 	0.33150 0.53370 0.71150 -0.16900
O 	O 	0.05000 0.72900 0.33120 -0.29900
O 	O 	0.02260 0.71000 0.43660 -0.13200
O 	O 	0.81990 0.73290 0.55690 -0.43300
O 	O 	0.92330 0.71150 0.53370 -0.16800
O 	O 	0.83120 0.55000 0.72900 -0.29900
O 	O 	0.93660 0.52260 0.71000 -0.13000
O 	O 	0.05690 0.31990 0.73290 -0.43300
O 	O 	0.03370 0.42330 0.71150 -0.16900
O 	O 	0.22900 0.88980 0.33120 -0.30000
O 	O 	0.21000 0.83080 0.43660 -0.13100
O 	O 	0.23290 0.89030 0.55690 -0.43400
O 	O 	0.21150 0.83150 0.53370 -0.16900
O 	O 	0.38980 0.72900 0.55000 -0.29900
O 	O 	0.33080 0.71000 0.52260 -0.13100
O 	O 	0.39030 0.73290 0.31990 -0.43300
O 	O 	0.33150 0.71150 0.42330 -0.16900
O 	O 	0.05000 0.33120 0.88980 -0.29900
O 	O 	0.02260 0.43660 0.83080 -0.13200
O 	O 	0.81990 0.55690 0.89030 -0.43300
O 	O 	0.92330 0.53370 0.83150 -0.16800
O 	O 	0.27100 0.16880 0.61020 -0.29900
O 	O 	0.29000 0.06340 0.66920 -0.13000
O 	O 	0.26710 0.94310 0.60970 -0.43300
O 	O 	0.28850 0.96630 0.66850 -0.16900
O 	O 	0.66880 0.77100 0.95000 -0.29900
O 	O 	0.56340 0.79000 0.97740 -0.13100
O 	O 	0.44310 0.76710 0.18010 -0.43300
O 	O 	0.46630 0.78850 0.07670 -0.16900
O 	O 	0.45000 0.61020 0.16880 -0.29900
O 	O 	0.47740 0.66920 0.06340 -0.13100
O 	O 	0.68010 0.60970 0.94310 -0.43300
O 	O 	0.57670 0.66850 0.96630 -0.16900
O 	O 	0.11020 0.95000 0.77100 -0.30000
O 	O 	0.16920 0.97740 0.79000 -0.13200
O 	O 	0.10970 0.18010 0.76710 -0.43300
O 	O 	0.16850 0.07670 0.78850 -0.16800
O 	O 	0.11020 0.16880 0.95000 -0.29900
O 	O 	0.16920 0.06340 0.97740 -0.13000
O 	O 	0.10970 0.94310 0.18010 -0.43300
O 	O 	0.16850 0.96630 0.07670 -0.16800
O 	O 	0.45000 0.77100 0.61020 -0.29900
O 	O 	0.47740 0.79000 0.66920 -0.13100
O 	O 	0.68010 0.76710 0.60970 -0.43300
O 	O 	0.57670 0.78850 0.66850 -0.16900
O 	O 	0.66880 0.61020 0.77100 -0.29900
O 	O 	0.56340 0.66920 0.79000 -0.13100
O 	O 	0.44310 0.60970 0.76710 -0.43300
O 	O 	0.46630 0.66850 0.78850 -0.16900
O 	O 	0.27100 0.95000 0.16880 -0.29900
O 	O 	0.29000 0.97740 0.06340 -0.13100
O 	O 	0.26710 0.18010 0.94310 -0.43300
O 	O 	0.28850 0.07670 0.96630 -0.16800
O 	O 	0.45000 0.16880 0.77100 -0.29900
O 	O 	0.47740 0.06340 0.79000 -0.13100
O 	O 	0.68010 0.94310 0.76710 -0.43300
O 	O 	0.57670 0.96630 0.78850 -0.16900
O 	O 	0.11020 0.77100 0.16880 -0.30000
O 	O 	0.16920 0.79000 0.06340 -0.13000
O 	O 	0.10970 0.76710 0.94310 -0.43400
O 	O 	0.16850 0.78850 0.96630 -0.16900
O 	O 	0.27100 0.61020 0.95000 -0.29900
O 	O 	0.29000 0.66920 0.97740 -0.13100
O 	O 	0.26710 0.60970 0.18010 -0.43300
O 	O 	0.28850 0.66850 0.07670 -0.16800
O 	O 	0.66880 0.95000 0.61020 -0.29900
O 	O 	0.56340 0.97740 0.66920 -0.13100
O 	O 	0.44310 0.18010 0.60970 -0.43300
O 	O 	0.46630 0.07670 0.66850 -0.16900
