data_crystal

_cell_length_a 26.90070
_cell_length_b 26.90070
_cell_length_c 26.90070
_cell_angle_alpha 109.47100
_cell_angle_beta  109.47100
_cell_angle_gamma 109.47100

_symmetry_space_group_name_	'P 1'
_symmetry_space_group_name_H-M	'P 1'

loop_
_symmetry_equiv_pos_as_xyz
  x,y,z

loop_
_atom_site_label
_atom_site_type_symbol
_atom_site_fract_x
_atom_site_fract_y
_atom_site_fract_z
_atom_site_charge
In	In	0.35442 0.85442 0.70884 1.96500
In	In	0.14558 0.64558 0.29116 1.96500
In	In	0.85442 0.14558 0.50000 1.96500
In	In	0.64558 0.35442 0.50000 1.96500
In	In	0.50000 0.85442 0.14558 1.96500
In	In	0.50000 0.64558 0.35442 1.96500
In	In	0.70884 0.35442 0.85442 1.96500
In	In	0.29116 0.14558 0.64558 1.96500
In	In	0.64558 0.29116 0.14558 1.96500
In	In	0.85442 0.70884 0.35442 1.96500
In	In	0.35442 0.50000 0.64558 1.96500
In	In	0.14558 0.50000 0.85442 1.96500
In	In	0.64558 0.14558 0.29116 1.96500
In	In	0.85442 0.35442 0.70884 1.96500
In	In	0.14558 0.85442 0.50000 1.96500
In	In	0.35442 0.64558 0.50000 1.96500
In	In	0.50000 0.14558 0.85442 1.96500
In	In	0.50000 0.35442 0.64558 1.96500
In	In	0.29116 0.64558 0.14558 1.96500
In	In	0.70884 0.85442 0.35442 1.96600
In	In	0.35442 0.70884 0.85442 1.96600
In	In	0.14558 0.29116 0.64558 1.96600
In	In	0.64558 0.50000 0.35442 1.96600
In	In	0.85442 0.50000 0.14558 1.96600
H 	H 	0.37720 1.00000 0.78160 -0.01800
H 	H 	0.21840 0.59560 0.21840 -0.02400
H 	H 	0.78160 -0.00000 0.37720 -0.02400
H 	H 	0.62280 0.40440 0.62280 -0.02400
H 	H 	0.37720 0.78160 -0.00000 -0.02400
H 	H 	0.62280 0.62280 0.40440 -0.02400
H 	H 	0.78160 0.37720 -0.00000 -0.02200
H 	H 	0.21840 0.21840 0.59560 -0.02400
H 	H 	0.59560 0.21840 0.21840 -0.02400
H 	H 	-0.00000 0.78160 0.37720 -0.02300
H 	H 	0.40440 0.62280 0.62280 -0.02400
H 	H 	-0.00000 0.37720 0.78160 -0.02300
H 	H 	-0.00000 0.62280 0.21840 -0.02300
H 	H 	0.40440 0.78160 0.78160 -0.02400
H 	H 	-0.00000 0.21840 0.62280 -0.02400
H 	H 	0.59560 0.37720 0.37720 -0.02400
H 	H 	0.21840 0.62280 1.00000 -0.02600
H 	H 	0.37720 0.37720 0.59560 -0.02400
H 	H 	0.62280 0.21840 -0.00000 -0.02100
H 	H 	0.78160 0.78160 0.40440 -0.02400
H 	H 	0.78160 0.40440 0.78160 -0.02400
H 	H 	0.21840 0.00000 0.62280 -0.02400
H 	H 	0.37720 0.59560 0.37720 -0.02400
H 	H 	0.62280 -0.00000 0.21840 -0.02800
H 	H 	0.18270 0.62640 0.55630 0.18100
H 	H 	0.41080 0.78100 0.62980 0.00900
H 	H 	0.07010 0.62640 0.44370 0.18100
H 	H 	0.15120 0.78100 0.37020 0.00900
H 	H 	0.92990 0.37360 0.55630 0.18200
H 	H 	0.84880 0.21900 0.62980 0.00900
H 	H 	0.81730 0.37360 0.44370 0.18200
H 	H 	0.58920 0.21900 0.37020 0.00900
H 	H 	0.55630 0.92990 0.37360 0.18200
H 	H 	0.62980 0.84880 0.21900 0.00900
H 	H 	0.44370 0.81730 0.37360 0.18200
H 	H 	0.37020 0.58920 0.21900 0.00900
H 	H 	0.55630 0.18270 0.62640 0.18100
H 	H 	0.62980 0.41080 0.78100 0.00900
H 	H 	0.44370 0.07010 0.62640 0.18100
H 	H 	0.37020 0.15120 0.78100 0.00900
H 	H 	0.62640 0.44370 0.07010 0.18200
H 	H 	0.78100 0.37020 0.15120 0.00900
H 	H 	0.62640 0.55630 0.18270 0.18200
H 	H 	0.78100 0.62980 0.41080 0.00900
H 	H 	0.37360 0.44370 0.81730 0.18100
H 	H 	0.21900 0.37020 0.58920 0.00900
H 	H 	0.37360 0.55630 0.92990 0.18100
H 	H 	0.21900 0.62980 0.84880 0.00900
H 	H 	0.37360 0.81730 0.44370 0.18200
H 	H 	0.21900 0.58920 0.37020 0.00900
H 	H 	0.37360 0.92990 0.55630 0.18200
H 	H 	0.21900 0.84880 0.62980 0.00900
H 	H 	0.62640 0.07010 0.44370 0.18100
H 	H 	0.78100 0.15120 0.37020 0.00900
H 	H 	0.62640 0.18270 0.55630 0.18100
H 	H 	0.78100 0.41080 0.62980 0.00900
H 	H 	0.07010 0.44370 0.62640 0.18100
H 	H 	0.15120 0.37020 0.78100 0.00900
H 	H 	0.18270 0.55630 0.62640 0.18100
H 	H 	0.41080 0.62980 0.78100 0.00900
H 	H 	0.81730 0.44370 0.37360 0.18200
H 	H 	0.58920 0.37020 0.21900 0.00900
H 	H 	0.92990 0.55630 0.37360 0.18200
H 	H 	0.84880 0.62980 0.21900 0.00900
H 	H 	0.55630 0.37360 0.92990 0.18100
H 	H 	0.62980 0.21900 0.84880 0.00900
H 	H 	0.44370 0.37360 0.81730 0.18100
H 	H 	0.37020 0.21900 0.58920 0.00900
H 	H 	0.55630 0.62640 0.18270 0.18200
H 	H 	0.62980 0.78100 0.41080 0.00900
H 	H 	0.44370 0.62640 0.07010 0.18200
H 	H 	0.37020 0.78100 0.15120 0.00900
C 	C 	0.49570 0.91890 0.78680 0.29200
C 	C 	0.47550 0.96660 0.79890 -0.01100
C 	C 	0.23510 0.72170 0.62380 0.29200
C 	C 	0.28300 0.71830 0.60750 -0.03700
C 	C 	0.13210 0.70890 0.21320 0.29300
C 	C 	0.16770 0.67660 0.20110 -0.01500
C 	C 	0.09790 0.61130 0.37620 0.29200
C 	C 	0.11080 0.67550 0.39250 -0.03700
C 	C 	0.86790 0.08110 0.57680 0.29300
C 	C 	0.83230 0.03340 0.50890 -0.01700
C 	C 	0.90210 0.27830 0.51340 0.29300
C 	C 	0.88920 0.28170 0.56470 -0.03600
C 	C 	0.50430 0.29110 0.42320 0.29300
C 	C 	0.52450 0.32340 0.49110 -0.01500
C 	C 	0.76490 0.38870 0.48660 0.29200
C 	C 	0.71700 0.32450 0.43530 -0.03700
C 	C 	0.57680 0.86790 0.08110 0.29200
C 	C 	0.50890 0.83230 0.03340 -0.01400
C 	C 	0.51340 0.90210 0.27830 0.29200
C 	C 	0.56470 0.88920 0.28170 -0.03700
C 	C 	0.42320 0.50430 0.29110 0.29300
C 	C 	0.49110 0.52450 0.32340 -0.01500
C 	C 	0.48660 0.76490 0.38870 0.29200
C 	C 	0.43530 0.71700 0.32450 -0.03700
C 	C 	0.78680 0.49570 0.91890 0.29300
C 	C 	0.79890 0.47550 0.96660 -0.01600
C 	C 	0.62380 0.23510 0.72170 0.29200
C 	C 	0.60750 0.28300 0.71830 -0.03700
C 	C 	0.21320 0.13210 0.70890 0.29300
C 	C 	0.20110 0.16770 0.67660 -0.01500
C 	C 	0.37620 0.09790 0.61130 0.29200
C 	C 	0.39250 0.11080 0.67550 -0.03700
C 	C 	0.70890 0.21320 0.13210 0.29300
C 	C 	0.67660 0.20110 0.16770 -0.01400
C 	C 	0.61130 0.37620 0.09790 0.29200
C 	C 	0.67550 0.39250 0.11080 -0.03700
C 	C 	0.91890 0.78680 0.49570 0.29100
C 	C 	0.96660 0.79890 0.47550 -0.00600
C 	C 	0.72170 0.62380 0.23510 0.29200
C 	C 	0.71830 0.60750 0.28300 -0.03700
C 	C 	0.29110 0.42320 0.50430 0.29300
C 	C 	0.32340 0.49110 0.52450 -0.01500
C 	C 	0.38870 0.48660 0.76490 0.29200
C 	C 	0.32450 0.43530 0.71700 -0.03700
C 	C 	0.08110 0.57680 0.86790 0.29400
C 	C 	0.03340 0.50890 0.83230 -0.02200
C 	C 	0.27830 0.51340 0.90210 0.29200
C 	C 	0.28170 0.56470 0.88920 -0.03700
C 	C 	0.08110 0.50430 0.21320 0.29400
C 	C 	0.03340 0.52450 0.20110 -0.02200
C 	C 	0.27830 0.76490 0.37620 0.29200
C 	C 	0.28170 0.71700 0.39250 -0.03700
C 	C 	0.29110 0.86790 0.78680 0.29300
C 	C 	0.32340 0.83230 0.79890 -0.01400
C 	C 	0.38870 0.90210 0.62380 0.29200
C 	C 	0.32450 0.88920 0.60750 -0.03700
C 	C 	0.91890 0.13210 0.42320 0.29100
C 	C 	0.96660 0.16770 0.49110 -0.00700
C 	C 	0.72170 0.09790 0.48660 0.29200
C 	C 	0.71830 0.11080 0.43530 -0.03700
C 	C 	0.70890 0.49570 0.57680 0.29300
C 	C 	0.67660 0.47550 0.50890 -0.01400
C 	C 	0.61130 0.23510 0.51340 0.29200
C 	C 	0.67550 0.28300 0.56470 -0.03700
C 	C 	0.13210 0.42320 0.91890 0.29300
C 	C 	0.16770 0.49110 0.96660 -0.01600
C 	C 	0.09790 0.48660 0.72170 0.29200
C 	C 	0.11080 0.43530 0.71830 -0.03700
C 	C 	0.49570 0.57680 0.70890 0.29300
C 	C 	0.47550 0.50890 0.67660 -0.01400
C 	C 	0.23510 0.51340 0.61130 0.29200
C 	C 	0.28300 0.56470 0.67550 -0.03700
C 	C 	0.50430 0.21320 0.08110 0.29200
C 	C 	0.52450 0.20110 0.03340 -0.01300
C 	C 	0.76490 0.37620 0.27830 0.29200
C 	C 	0.71700 0.39250 0.28170 -0.03700
C 	C 	0.86790 0.78680 0.29110 0.29300
C 	C 	0.83230 0.79890 0.32340 -0.01400
C 	C 	0.90210 0.62380 0.38870 0.29300
C 	C 	0.88920 0.60750 0.32450 -0.03600
C 	C 	0.78680 0.29110 0.86790 0.29300
C 	C 	0.79890 0.32340 0.83230 -0.01400
C 	C 	0.62380 0.38870 0.90210 0.29200
C 	C 	0.60750 0.32450 0.88920 -0.03700
C 	C 	0.21320 0.08110 0.50430 0.29300
C 	C 	0.20110 0.03340 0.52450 -0.01800
C 	C 	0.37620 0.27830 0.76490 0.29200
C 	C 	0.39250 0.28170 0.71700 -0.03700
C 	C 	0.57680 0.70890 0.49570 0.29300
C 	C 	0.50890 0.67660 0.47550 -0.01400
C 	C 	0.51340 0.61130 0.23510 0.29200
C 	C 	0.56470 0.67550 0.28300 -0.03700
C 	C 	0.42320 0.91890 0.13210 0.29200
C 	C 	0.49110 0.96660 0.16770 -0.01200
C 	C 	0.48660 0.72170 0.09790 0.29200
C 	C 	0.43530 0.71830 0.11080 -0.03700
C 	C 	0.50430 0.08110 0.21320 0.29300
C 	C 	0.52450 0.03340 0.20110 -0.01700
C 	C 	0.76490 0.27830 0.37620 0.29200
C 	C 	0.71700 0.28170 0.39250 -0.03700
C 	C 	0.86790 0.29110 0.78680 0.29300
C 	C 	0.83230 0.32340 0.79890 -0.01400
C 	C 	0.90210 0.38870 0.62380 0.29300
C 	C 	0.88920 0.32450 0.60750 -0.03600
C 	C 	0.13210 0.91890 0.42320 0.29200
C 	C 	0.16770 0.96660 0.49110 -0.01200
C 	C 	0.09790 0.72170 0.48660 0.29200
C 	C 	0.11080 0.71830 0.43530 -0.03700
C 	C 	0.49570 0.70890 0.57680 0.29300
C 	C 	0.47550 0.67660 0.50890 -0.01400
C 	C 	0.23510 0.61130 0.51340 0.29200
C 	C 	0.28300 0.67550 0.56470 -0.03700
C 	C 	0.42320 0.13210 0.91890 0.29300
C 	C 	0.49110 0.16770 0.96660 -0.01700
C 	C 	0.48660 0.09790 0.72170 0.29200
C 	C 	0.43530 0.11080 0.71830 -0.03700
C 	C 	0.57680 0.49570 0.70890 0.29300
C 	C 	0.50890 0.47550 0.67660 -0.01400
C 	C 	0.51340 0.23510 0.61130 0.29200
C 	C 	0.56470 0.28300 0.67550 -0.03700
C 	C 	0.21320 0.50430 0.08110 0.29200
C 	C 	0.20110 0.52450 0.03340 -0.01400
C 	C 	0.37620 0.76490 0.27830 0.29200
C 	C 	0.39250 0.71700 0.28170 -0.03700
C 	C 	0.78680 0.86790 0.29110 0.29300
C 	C 	0.79890 0.83230 0.32340 -0.01400
C 	C 	0.62380 0.90210 0.38870 0.29200
C 	C 	0.60750 0.88920 0.32450 -0.03700
C 	C 	0.29110 0.78680 0.86790 0.29300
C 	C 	0.32340 0.79890 0.83230 -0.01500
C 	C 	0.38870 0.62380 0.90210 0.29200
C 	C 	0.32450 0.60750 0.88920 -0.03700
C 	C 	0.08110 0.21320 0.50430 0.29400
C 	C 	0.03340 0.20110 0.52450 -0.02200
C 	C 	0.27830 0.37620 0.76490 0.29200
C 	C 	0.28170 0.39250 0.71700 -0.03700
C 	C 	0.70890 0.57680 0.49570 0.29300
C 	C 	0.67660 0.50890 0.47550 -0.01400
C 	C 	0.61130 0.51340 0.23510 0.29200
C 	C 	0.67550 0.56470 0.28300 -0.03700
C 	C 	0.91890 0.42320 0.13210 0.29100
C 	C 	0.96660 0.49110 0.16770 -0.00700
C 	C 	0.72170 0.48660 0.09790 0.29200
C 	C 	0.71830 0.43530 0.11080 -0.03700
C 	C 	0.91890 0.49570 0.78680 0.29100
C 	C 	0.96660 0.47550 0.79890 -0.00700
C 	C 	0.72170 0.23510 0.62380 0.29200
C 	C 	0.71830 0.28300 0.60750 -0.03700
C 	C 	0.70890 0.13210 0.21320 0.29300
C 	C 	0.67660 0.16770 0.20110 -0.01500
C 	C 	0.61130 0.09790 0.37620 0.29200
C 	C 	0.67550 0.11080 0.39250 -0.03700
C 	C 	0.08110 0.86790 0.57680 0.29400
C 	C 	0.03340 0.83230 0.50890 -0.02200
C 	C 	0.27830 0.90210 0.51340 0.29200
C 	C 	0.28170 0.88920 0.56470 -0.03700
C 	C 	0.29110 0.50430 0.42320 0.29300
C 	C 	0.32340 0.52450 0.49110 -0.01500
C 	C 	0.38870 0.76490 0.48660 0.29200
C 	C 	0.32450 0.71700 0.43530 -0.03700
C 	C 	0.86790 0.57680 0.08110 0.29200
C 	C 	0.83230 0.50890 0.03340 -0.01300
C 	C 	0.90210 0.51340 0.27830 0.29300
C 	C 	0.88920 0.56470 0.28170 -0.03600
C 	C 	0.50430 0.42320 0.29110 0.29300
C 	C 	0.52450 0.49110 0.32340 -0.01500
C 	C 	0.76490 0.48660 0.38870 0.29200
C 	C 	0.71700 0.43530 0.32450 -0.03700
C 	C 	0.49570 0.78680 0.91890 0.29300
C 	C 	0.47550 0.79890 0.96660 -0.01500
C 	C 	0.23510 0.62380 0.72170 0.29200
C 	C 	0.28300 0.60750 0.71830 -0.03700
C 	C 	0.13210 0.21320 0.70890 0.29300
C 	C 	0.16770 0.20110 0.67660 -0.01500
C 	C 	0.09790 0.37620 0.61130 0.29200
C 	C 	0.11080 0.39250 0.67550 -0.03700
C 	C 	0.21320 0.70890 0.13210 0.29300
C 	C 	0.20110 0.67660 0.16770 -0.01500
C 	C 	0.37620 0.61130 0.09790 0.29200
C 	C 	0.39250 0.67550 0.11080 -0.03700
C 	C 	0.78680 0.91890 0.49570 0.29200
C 	C 	0.79890 0.96660 0.47550 -0.01100
C 	C 	0.62380 0.72170 0.23510 0.29200
C 	C 	0.60750 0.71830 0.28300 -0.03700
C 	C 	0.42320 0.29110 0.50430 0.29300
C 	C 	0.49110 0.32340 0.52450 -0.01500
C 	C 	0.48660 0.38870 0.76490 0.29200
C 	C 	0.43530 0.32450 0.71700 -0.03700
C 	C 	0.57680 0.08110 0.86790 0.29300
C 	C 	0.50890 0.03340 0.83230 -0.01800
C 	C 	0.51340 0.27830 0.90210 0.29200
C 	C 	0.56470 0.28170 0.88920 -0.03700
C 	C 	0.41470 -0.00000 0.79230 0.16800
C 	C 	0.20770 0.62240 0.20770 0.17800
C 	C 	0.79230 0.00000 0.41470 0.17400
C 	C 	0.58530 0.37760 0.58530 0.17800
C 	C 	0.41470 0.79230 -0.00000 0.17900
C 	C 	0.58530 0.58530 0.37760 0.17800
C 	C 	0.79230 0.41470 1.00000 0.17400
C 	C 	0.20770 0.20770 0.62240 0.17800
C 	C 	0.62240 0.20770 0.20770 0.17800
C 	C 	-0.00000 0.79230 0.41470 0.16900
C 	C 	0.37760 0.58530 0.58530 0.17800
C 	C 	-0.00000 0.41470 0.79230 0.16900
C 	C 	-0.00000 0.58530 0.20770 0.16900
C 	C 	0.37760 0.79230 0.79230 0.17800
C 	C 	-0.00000 0.20770 0.58530 0.16900
C 	C 	0.62240 0.41470 0.41470 0.17800
C 	C 	0.20770 0.58530 -0.00000 0.18000
C 	C 	0.41470 0.41470 0.62240 0.17800
C 	C 	0.58530 0.20770 1.00000 0.17300
C 	C 	0.79230 0.79230 0.37760 0.17800
C 	C 	0.79230 0.37760 0.79230 0.17800
C 	C 	0.20770 0.00000 0.58530 0.17400
C 	C 	0.41470 0.62240 0.41470 0.17800
C 	C 	0.58530 1.00000 0.20770 0.18500
C 	C 	0.36960 0.75390 0.61570 0.14300
C 	C 	0.13820 0.75390 0.38430 0.14300
C 	C 	0.86180 0.24610 0.61570 0.14400
C 	C 	0.63040 0.24610 0.38430 0.14300
C 	C 	0.61570 0.86180 0.24610 0.14300
C 	C 	0.38430 0.63040 0.24610 0.14300
C 	C 	0.61570 0.36960 0.75390 0.14300
C 	C 	0.38430 0.13820 0.75390 0.14300
C 	C 	0.75390 0.38430 0.13820 0.14300
C 	C 	0.75390 0.61570 0.36960 0.14300
C 	C 	0.24610 0.38430 0.63040 0.14300
C 	C 	0.24610 0.61570 0.86180 0.14300
C 	C 	0.24610 0.63040 0.38430 0.14300
C 	C 	0.24610 0.86180 0.61570 0.14300
C 	C 	0.75390 0.13820 0.38430 0.14300
C 	C 	0.75390 0.36960 0.61570 0.14300
C 	C 	0.13820 0.38430 0.75390 0.14300
C 	C 	0.36960 0.61570 0.75390 0.14300
C 	C 	0.63040 0.38430 0.24610 0.14300
C 	C 	0.86180 0.61570 0.24610 0.14400
C 	C 	0.61570 0.24610 0.86180 0.14300
C 	C 	0.38430 0.24610 0.63040 0.14300
C 	C 	0.61570 0.75390 0.36960 0.14300
C 	C 	0.38430 0.75390 0.13820 0.14300
N 	N 	0.41500 0.94880 0.77420 -0.32400
N 	N 	0.33940 0.77040 0.64180 -0.31000
N 	N 	0.17460 0.64080 0.22580 -0.32600
N 	N 	0.12860 0.69760 0.35820 -0.31100
N 	N 	0.82540 0.05120 0.46620 -0.32600
N 	N 	0.87140 0.22960 0.56900 -0.31000
N 	N 	0.58500 0.35920 0.53380 -0.32600
N 	N 	0.66060 0.30240 0.43100 -0.31000
N 	N 	0.46620 0.82540 0.05120 -0.32700
N 	N 	0.56900 0.87140 0.22960 -0.31000
N 	N 	0.53380 0.58500 0.35920 -0.32600
N 	N 	0.43100 0.66060 0.30240 -0.31000
N 	N 	0.77420 0.41500 0.94880 -0.32600
N 	N 	0.64180 0.33940 0.77040 -0.31000
N 	N 	0.22580 0.17460 0.64080 -0.32700
N 	N 	0.35820 0.12860 0.69760 -0.31100
N 	N 	0.64080 0.22580 0.17460 -0.32600
N 	N 	0.69760 0.35820 0.12860 -0.31000
N 	N 	0.94880 0.77420 0.41500 -0.32300
N 	N 	0.77040 0.64180 0.33940 -0.31000
N 	N 	0.35920 0.53380 0.58500 -0.32600
N 	N 	0.30240 0.43100 0.66060 -0.31000
N 	N 	0.05120 0.46620 0.82540 -0.32500
N 	N 	0.22960 0.56900 0.87140 -0.31000
N 	N 	0.05120 0.58500 0.22580 -0.32400
N 	N 	0.22960 0.66060 0.35820 -0.31000
N 	N 	0.35920 0.82540 0.77420 -0.32600
N 	N 	0.30240 0.87140 0.64180 -0.31000
N 	N 	0.94880 0.17460 0.53380 -0.32300
N 	N 	0.77040 0.12860 0.43100 -0.31100
N 	N 	0.64080 0.41500 0.46620 -0.32600
N 	N 	0.69760 0.33940 0.56900 -0.31000
N 	N 	0.17460 0.53380 0.94880 -0.32700
N 	N 	0.12860 0.43100 0.77040 -0.31100
N 	N 	0.41500 0.46620 0.64080 -0.32600
N 	N 	0.33940 0.56900 0.69760 -0.31000
N 	N 	0.58500 0.22580 0.05120 -0.32500
N 	N 	0.66060 0.35820 0.22960 -0.31000
N 	N 	0.82540 0.77420 0.35920 -0.32600
N 	N 	0.87140 0.64180 0.30240 -0.31000
N 	N 	0.77420 0.35920 0.82540 -0.32600
N 	N 	0.64180 0.30240 0.87140 -0.31100
N 	N 	0.22580 0.05120 0.58500 -0.32600
N 	N 	0.35820 0.22960 0.66060 -0.31000
N 	N 	0.46620 0.64080 0.41500 -0.32600
N 	N 	0.56900 0.69760 0.33940 -0.31000
N 	N 	0.53380 0.94880 0.17460 -0.32800
N 	N 	0.43100 0.77040 0.12860 -0.31000
N 	N 	0.58500 0.05120 0.22580 -0.32800
N 	N 	0.66060 0.22960 0.35820 -0.31000
N 	N 	0.82540 0.35920 0.77420 -0.32600
N 	N 	0.87140 0.30240 0.64180 -0.31000
N 	N 	0.17460 0.94880 0.53380 -0.32500
N 	N 	0.12860 0.77040 0.43100 -0.31100
N 	N 	0.41500 0.64080 0.46620 -0.32600
N 	N 	0.33940 0.69760 0.56900 -0.31000
N 	N 	0.53380 0.17460 0.94880 -0.32600
N 	N 	0.43100 0.12860 0.77040 -0.31100
N 	N 	0.46620 0.41500 0.64080 -0.32600
N 	N 	0.56900 0.33940 0.69760 -0.31000
N 	N 	0.22580 0.58500 0.05120 -0.32700
N 	N 	0.35820 0.66060 0.22960 -0.31000
N 	N 	0.77420 0.82540 0.35920 -0.32600
N 	N 	0.64180 0.87140 0.30240 -0.31000
N 	N 	0.35920 0.77420 0.82540 -0.32600
N 	N 	0.30240 0.64180 0.87140 -0.31100
N 	N 	0.05120 0.22580 0.58500 -0.32500
N 	N 	0.22960 0.35820 0.66060 -0.31000
N 	N 	0.64080 0.46620 0.41500 -0.32600
N 	N 	0.69760 0.56900 0.33940 -0.31000
N 	N 	0.94880 0.53380 0.17460 -0.32300
N 	N 	0.77040 0.43100 0.12860 -0.31000
N 	N 	0.94880 0.41500 0.77420 -0.32300
N 	N 	0.77040 0.33940 0.64180 -0.31000
N 	N 	0.64080 0.17460 0.22580 -0.32600
N 	N 	0.69760 0.12860 0.35820 -0.31100
N 	N 	0.05120 0.82540 0.46620 -0.32400
N 	N 	0.22960 0.87140 0.56900 -0.31000
N 	N 	0.35920 0.58500 0.53380 -0.32600
N 	N 	0.30240 0.66060 0.43100 -0.31000
N 	N 	0.82540 0.46620 0.05120 -0.32500
N 	N 	0.87140 0.56900 0.22960 -0.31000
N 	N 	0.58500 0.53380 0.35920 -0.32600
N 	N 	0.66060 0.43100 0.30240 -0.31000
N 	N 	0.41500 0.77420 0.94880 -0.32700
N 	N 	0.33940 0.64180 0.77040 -0.31000
N 	N 	0.17460 0.22580 0.64080 -0.32700
N 	N 	0.12860 0.35820 0.69760 -0.31100
N 	N 	0.22580 0.64080 0.17460 -0.32600
N 	N 	0.35820 0.69760 0.12860 -0.31000
N 	N 	0.77420 0.94880 0.41500 -0.32500
N 	N 	0.64180 0.77040 0.33940 -0.31000
N 	N 	0.53380 0.35920 0.58500 -0.32600
N 	N 	0.43100 0.30240 0.66060 -0.31000
N 	N 	0.46620 0.05120 0.82540 -0.32500
N 	N 	0.56900 0.22960 0.87140 -0.31100
O 	O 	0.45870 0.86699 0.75529 -0.38300
O 	O 	0.55650 0.94222 0.81332 -0.13900
O 	O 	0.24593 0.76918 0.66155 -0.37200
O 	O 	0.18277 0.67067 0.59210 -0.22800
O 	O 	0.11170 0.70341 0.24471 -0.38500
O 	O 	0.12890 0.74318 0.18668 -0.14200
O 	O 	0.10763 0.58438 0.33845 -0.37200
O 	O 	0.07857 0.59067 0.40790 -0.22900
O 	O 	0.88830 0.13301 0.59171 -0.38300
O 	O 	0.87110 0.05778 0.61428 -0.14100
O 	O 	0.89237 0.23082 0.47675 -0.37100
O 	O 	0.92143 0.32933 0.51210 -0.22500
O 	O 	0.54130 0.29659 0.40829 -0.38400
O 	O 	0.44350 0.25682 0.38572 -0.14100
O 	O 	0.75407 0.41562 0.52325 -0.37100
O 	O 	0.81723 0.40933 0.48790 -0.22600
O 	O 	0.59171 0.88830 0.13301 -0.38300
O 	O 	0.61428 0.87110 0.05778 -0.14000
O 	O 	0.47675 0.89237 0.23082 -0.37100
O 	O 	0.51210 0.92143 0.32933 -0.22600
O 	O 	0.40829 0.54130 0.29659 -0.38400
O 	O 	0.38572 0.44350 0.25682 -0.14100
O 	O 	0.52325 0.75407 0.41562 -0.37100
O 	O 	0.48790 0.81723 0.40933 -0.22700
O 	O 	0.75529 0.45870 0.86699 -0.38400
O 	O 	0.81332 0.55650 0.94222 -0.14000
O 	O 	0.66155 0.24593 0.76918 -0.37100
O 	O 	0.59210 0.18277 0.67067 -0.22700
O 	O 	0.24471 0.11170 0.70341 -0.38500
O 	O 	0.18668 0.12890 0.74318 -0.14200
O 	O 	0.33845 0.10763 0.58438 -0.37200
O 	O 	0.40790 0.07857 0.59067 -0.22800
O 	O 	0.70341 0.24471 0.11170 -0.38400
O 	O 	0.74318 0.18668 0.12890 -0.14000
O 	O 	0.58438 0.33845 0.10763 -0.37100
O 	O 	0.59067 0.40790 0.07857 -0.22700
O 	O 	0.86699 0.75529 0.45870 -0.38300
O 	O 	0.94222 0.81332 0.55650 -0.13700
O 	O 	0.76918 0.66155 0.24593 -0.37100
O 	O 	0.67067 0.59210 0.18277 -0.22700
O 	O 	0.29659 0.40829 0.54130 -0.38400
O 	O 	0.25682 0.38572 0.44350 -0.14100
O 	O 	0.41562 0.52325 0.75407 -0.37100
O 	O 	0.40933 0.48790 0.81723 -0.22700
O 	O 	0.13301 0.59171 0.88830 -0.38500
O 	O 	0.05778 0.61428 0.87110 -0.14400
O 	O 	0.23082 0.47675 0.89237 -0.37200
O 	O 	0.32933 0.51210 0.92143 -0.22700
O 	O 	0.13301 0.54130 0.24471 -0.38500
O 	O 	0.05778 0.44350 0.18668 -0.14400
O 	O 	0.23082 0.75407 0.33845 -0.37100
O 	O 	0.32933 0.81723 0.40790 -0.22700
O 	O 	0.29659 0.88830 0.75529 -0.38400
O 	O 	0.25682 0.87110 0.81332 -0.14100
O 	O 	0.41562 0.89237 0.66155 -0.37100
O 	O 	0.40933 0.92143 0.59210 -0.22600
O 	O 	0.86699 0.11170 0.40829 -0.38300
O 	O 	0.94222 0.12890 0.38572 -0.13800
O 	O 	0.76918 0.10763 0.52325 -0.37200
O 	O 	0.67067 0.07857 0.48790 -0.22800
O 	O 	0.70341 0.45870 0.59171 -0.38400
O 	O 	0.74318 0.55650 0.61428 -0.14000
O 	O 	0.58438 0.24593 0.47675 -0.37100
O 	O 	0.59067 0.18277 0.51210 -0.22700
O 	O 	0.11170 0.40829 0.86699 -0.38500
O 	O 	0.12890 0.38572 0.94222 -0.14300
O 	O 	0.10763 0.52325 0.76918 -0.37200
O 	O 	0.07857 0.48790 0.67067 -0.22900
O 	O 	0.45870 0.59171 0.70341 -0.38400
O 	O 	0.55650 0.61428 0.74318 -0.14000
O 	O 	0.24593 0.47675 0.58438 -0.37200
O 	O 	0.18277 0.51210 0.59067 -0.22800
O 	O 	0.54130 0.24471 0.13301 -0.38400
O 	O 	0.44350 0.18668 0.05778 -0.14100
O 	O 	0.75407 0.33845 0.23082 -0.37100
O 	O 	0.81723 0.40790 0.32933 -0.22600
O 	O 	0.88830 0.75529 0.29659 -0.38200
O 	O 	0.87110 0.81332 0.25682 -0.13900
O 	O 	0.89237 0.66155 0.41562 -0.37100
O 	O 	0.92143 0.59210 0.40933 -0.22500
O 	O 	0.75529 0.29659 0.88830 -0.38400
O 	O 	0.81332 0.25682 0.87110 -0.14100
O 	O 	0.66155 0.41562 0.89237 -0.37100
O 	O 	0.59210 0.40933 0.92143 -0.22700
O 	O 	0.24471 0.13301 0.54130 -0.38500
O 	O 	0.18668 0.05778 0.44350 -0.14300
O 	O 	0.33845 0.23082 0.75407 -0.37100
O 	O 	0.40790 0.32933 0.81723 -0.22700
O 	O 	0.59171 0.70341 0.45870 -0.38400
O 	O 	0.61428 0.74318 0.55650 -0.14000
O 	O 	0.47675 0.58438 0.24593 -0.37100
O 	O 	0.51210 0.59067 0.18277 -0.22700
O 	O 	0.40829 0.86699 0.11170 -0.38400
O 	O 	0.38572 0.94222 0.12890 -0.14000
O 	O 	0.52325 0.76918 0.10763 -0.37100
O 	O 	0.48790 0.67067 0.07857 -0.22700
O 	O 	0.54130 0.13301 0.24471 -0.38400
O 	O 	0.44350 0.05778 0.18668 -0.14200
O 	O 	0.75407 0.23082 0.33845 -0.37100
O 	O 	0.81723 0.32933 0.40790 -0.22600
O 	O 	0.88830 0.29659 0.75529 -0.38200
O 	O 	0.87110 0.25682 0.81332 -0.14000
O 	O 	0.89237 0.41562 0.66155 -0.37100
O 	O 	0.92143 0.40933 0.59210 -0.22500
O 	O 	0.11170 0.86699 0.40829 -0.38500
O 	O 	0.12890 0.94222 0.38572 -0.14100
O 	O 	0.10763 0.76918 0.52325 -0.37200
O 	O 	0.07857 0.67067 0.48790 -0.22900
O 	O 	0.45870 0.70341 0.59171 -0.38400
O 	O 	0.55650 0.74318 0.61428 -0.14000
O 	O 	0.24593 0.58438 0.47675 -0.37200
O 	O 	0.18277 0.59067 0.51210 -0.22800
O 	O 	0.40829 0.11170 0.86699 -0.38500
O 	O 	0.38572 0.12890 0.94222 -0.14300
O 	O 	0.52325 0.10763 0.76918 -0.37200
O 	O 	0.48790 0.07857 0.67067 -0.22800
O 	O 	0.59171 0.45870 0.70341 -0.38400
O 	O 	0.61428 0.55650 0.74318 -0.14000
O 	O 	0.47675 0.24593 0.58438 -0.37100
O 	O 	0.51210 0.18277 0.59067 -0.22700
O 	O 	0.24471 0.54130 0.13301 -0.38400
O 	O 	0.18668 0.44350 0.05778 -0.14100
O 	O 	0.33845 0.75407 0.23082 -0.37100
O 	O 	0.40790 0.81723 0.32933 -0.22700
O 	O 	0.75529 0.88830 0.29659 -0.38300
O 	O 	0.81332 0.87110 0.25682 -0.13900
O 	O 	0.66155 0.89237 0.41562 -0.37100
O 	O 	0.59210 0.92143 0.40933 -0.22600
O 	O 	0.29659 0.75529 0.88830 -0.38400
O 	O 	0.25682 0.81332 0.87110 -0.14100
O 	O 	0.41562 0.66155 0.89237 -0.37100
O 	O 	0.40933 0.59210 0.92143 -0.22700
O 	O 	0.13301 0.24471 0.54130 -0.38500
O 	O 	0.05778 0.18668 0.44350 -0.14400
O 	O 	0.23082 0.33845 0.75407 -0.37100
O 	O 	0.32933 0.40790 0.81723 -0.22700
O 	O 	0.70341 0.59171 0.45870 -0.38400
O 	O 	0.74318 0.61428 0.55650 -0.14000
O 	O 	0.58438 0.47675 0.24593 -0.37100
O 	O 	0.59067 0.51210 0.18277 -0.22700
O 	O 	0.86699 0.40829 0.11170 -0.38300
O 	O 	0.94222 0.38572 0.12890 -0.13700
O 	O 	0.76918 0.52325 0.10763 -0.37100
O 	O 	0.67067 0.48790 0.07857 -0.22700
O 	O 	0.86699 0.45870 0.75529 -0.38300
O 	O 	0.94222 0.55650 0.81332 -0.13700
O 	O 	0.76918 0.24593 0.66155 -0.37100
O 	O 	0.67067 0.18277 0.59210 -0.22700
O 	O 	0.70341 0.11170 0.24471 -0.38400
O 	O 	0.74318 0.12890 0.18668 -0.14100
O 	O 	0.58438 0.10763 0.33845 -0.37200
O 	O 	0.59067 0.07857 0.40790 -0.22800
O 	O 	0.13301 0.88830 0.59171 -0.38400
O 	O 	0.05778 0.87110 0.61428 -0.14400
O 	O 	0.23082 0.89237 0.47675 -0.37100
O 	O 	0.32933 0.92143 0.51210 -0.22600
O 	O 	0.29659 0.54130 0.40829 -0.38400
O 	O 	0.25682 0.44350 0.38572 -0.14100
O 	O 	0.41562 0.75407 0.52325 -0.37100
O 	O 	0.40933 0.81723 0.48790 -0.22700
O 	O 	0.88830 0.59171 0.13301 -0.38200
O 	O 	0.87110 0.61428 0.05778 -0.13900
O 	O 	0.89237 0.47675 0.23082 -0.37100
O 	O 	0.92143 0.51210 0.32933 -0.22500
O 	O 	0.54130 0.40829 0.29659 -0.38400
O 	O 	0.44350 0.38572 0.25682 -0.14100
O 	O 	0.75407 0.52325 0.41562 -0.37100
O 	O 	0.81723 0.48790 0.40933 -0.22600
O 	O 	0.45870 0.75529 0.86699 -0.38400
O 	O 	0.55650 0.81332 0.94222 -0.14100
O 	O 	0.24593 0.66155 0.76918 -0.37200
O 	O 	0.18277 0.59210 0.67067 -0.22800
O 	O 	0.11170 0.24471 0.70341 -0.38500
O 	O 	0.12890 0.18668 0.74318 -0.14300
O 	O 	0.10763 0.33845 0.58438 -0.37200
O 	O 	0.07857 0.40790 0.59067 -0.22900
O 	O 	0.24471 0.70341 0.11170 -0.38400
O 	O 	0.18668 0.74318 0.12890 -0.14100
O 	O 	0.33845 0.58438 0.10763 -0.37100
O 	O 	0.40790 0.59067 0.07857 -0.22700
O 	O 	0.75529 0.86699 0.45870 -0.38300
O 	O 	0.81332 0.94222 0.55650 -0.13800
O 	O 	0.66155 0.76918 0.24593 -0.37100
O 	O 	0.59210 0.67067 0.18277 -0.22700
O 	O 	0.40829 0.29659 0.54130 -0.38400
O 	O 	0.38572 0.25682 0.44350 -0.14100
O 	O 	0.52325 0.41562 0.75407 -0.37100
O 	O 	0.48790 0.40933 0.81723 -0.22700
O 	O 	0.59171 0.13301 0.88830 -0.38500
O 	O 	0.61428 0.05778 0.87110 -0.14200
O 	O 	0.47675 0.23082 0.89237 -0.37200
O 	O 	0.51210 0.32933 0.92143 -0.22700
