data_crystal

_cell_length_a 24.07200
_cell_length_b 24.07200
_cell_length_c 13.61000
_cell_angle_alpha 90.00000
_cell_angle_beta  90.00000
_cell_angle_gamma 90.00000

_symmetry_space_group_name_	'P 1'
_symmetry_space_group_name_H-M	'P 1'

loop_
_symmetry_equiv_pos_as_xyz
  x,y,z

loop_
_atom_site_label
_atom_site_type_symbol
_atom_site_fract_x
_atom_site_fract_y
_atom_site_fract_z
_atom_site_charge
C 	C 	0.33330 0.70760 0.63650 -0.24600
C 	C 	0.32310 0.68860 0.73060 0.18600
H 	H 	0.35200 0.68720 0.77590 -0.02700
C 	C 	0.27160 0.67210 0.75760 -0.27600
H 	H 	0.26610 0.65730 0.81990 0.12500
C 	C 	0.22790 0.67670 0.69560 0.21200
C 	C 	0.23730 0.69650 0.60050 -0.25400
H 	H 	0.20800 0.69900 0.55600 0.12700
C 	C 	0.29010 0.71230 0.57280 0.17700
H 	H 	0.29620 0.72620 0.51000 -0.02000
C 	C 	0.39260 0.72570 0.60740 0.49900
C 	C 	0.02290 0.67480 0.18340 0.34500
C 	C 	0.17000 0.66060 0.72770 -0.19800
H 	H 	0.16940 0.65570 0.79840 0.09400
H 	H 	0.14430 0.69020 0.71130 0.09800
C 	C 	0.10900 0.60590 0.61930 0.05900
H 	H 	0.08450 0.63440 0.60350 0.03900
C 	C 	0.99440 0.63440 0.34440 0.52800
H 	H 	0.96150 0.65450 0.33890 -0.12300
C 	C 	0.09170 0.57520 0.35850 -0.47400
H 	H 	0.12510 0.55580 0.36310 0.19100
C 	C 	0.03420 0.63670 0.26980 -0.42300
C 	C 	0.08190 0.60730 0.27880 0.36700
H 	H 	0.10840 0.60930 0.22930 -0.09100
C 	C 	0.14920 0.52400 0.62750 -0.02400
H 	H 	0.15700 0.48650 0.61820 0.03800
C 	C 	0.17650 0.55990 0.68510 0.01000
H 	H 	0.20770 0.55120 0.72240 0.03100
C 	C 	0.00450 0.60170 0.42780 -0.66100
H 	H 	0.97910 0.60050 0.47910 0.31100
C 	C 	0.06360 0.53410 0.52150 -0.31000
H 	H 	0.02940 0.53120 0.55890 0.10700
H 	H 	0.07360 0.49710 0.49940 0.11500
C 	C 	0.05350 0.57080 0.43210 0.40800
O 	O 	0.06260 0.69150 0.13170 -0.40100
O 	O 	0.97320 0.68870 0.16260 -0.37000
O 	O 	0.42490 0.73670 0.67830 -0.57500
O 	O 	0.40570 0.72730 0.51860 -0.49200
N 	N 	0.10650 0.55480 0.58420 -0.07300
N 	N 	0.15240 0.61060 0.68140 -0.08900
C 	C 	0.83330 0.20760 0.13650 -0.23100
C 	C 	0.82310 0.18860 0.23060 0.17400
H 	H 	0.85200 0.18720 0.27590 -0.02000
C 	C 	0.77160 0.17210 0.25760 -0.26400
H 	H 	0.76610 0.15730 0.31990 0.12100
C 	C 	0.72790 0.17670 0.19560 0.20300
C 	C 	0.73730 0.19650 0.10050 -0.24300
H 	H 	0.70800 0.19900 0.05600 0.12300
C 	C 	0.79010 0.21230 0.07280 0.16500
H 	H 	0.79620 0.22620 0.01000 -0.01600
C 	C 	0.89260 0.22570 0.10740 0.48100
C 	C 	0.52290 0.17480 0.68340 0.32800
C 	C 	0.67000 0.16060 0.22770 -0.19000
H 	H 	0.66940 0.15570 0.29840 0.09000
H 	H 	0.64430 0.19020 0.21130 0.09300
C 	C 	0.60900 0.10590 0.11930 0.07000
H 	H 	0.58450 0.13440 0.10350 0.03800
C 	C 	0.49440 0.13440 0.84440 0.07300
H 	H 	0.46150 0.15450 0.83890 0.02200
C 	C 	0.59170 0.07520 0.85850 -0.19300
H 	H 	0.62510 0.05580 0.86310 0.09700
C 	C 	0.53420 0.13670 0.76980 -0.13700
C 	C 	0.58190 0.10730 0.77880 0.09400
H 	H 	0.60840 0.10930 0.72930 0.00300
C 	C 	0.64920 0.02400 0.12750 -0.00600
H 	H 	0.65700 0.98650 0.11820 0.03100
C 	C 	0.67650 0.05990 0.18510 0.00100
H 	H 	0.70770 0.05120 0.22240 0.03500
C 	C 	0.50450 0.10170 0.92780 -0.17500
H 	H 	0.47910 0.10050 0.97910 0.09900
C 	C 	0.56360 0.03410 0.02150 -0.16000
H 	H 	0.52940 0.03120 0.05890 0.08200
H 	H 	0.57360 0.99710 0.99940 0.07700
C 	C 	0.55350 0.07080 0.93210 0.14300
O 	O 	0.56260 0.19150 0.63170 -0.40300
O 	O 	0.47320 0.18870 0.66260 -0.42500
O 	O 	0.92490 0.23670 0.17830 -0.52900
O 	O 	0.90570 0.22730 0.01860 -0.45900
N 	N 	0.60650 0.05480 0.08420 -0.09500
N 	N 	0.65240 0.11060 0.18140 -0.09100
C 	C 	0.16670 0.29240 0.13650 -0.23600
C 	C 	0.17690 0.31140 0.23060 0.17500
H 	H 	0.14800 0.31280 0.27590 -0.02400
C 	C 	0.22840 0.32790 0.25760 -0.26700
H 	H 	0.23390 0.34270 0.31990 0.12100
C 	C 	0.27210 0.32330 0.19560 0.20500
C 	C 	0.26270 0.30350 0.10050 -0.24600
H 	H 	0.29200 0.30100 0.05600 0.12500
C 	C 	0.20990 0.28770 0.07280 0.16800
H 	H 	0.20380 0.27380 0.01000 -0.01600
C 	C 	0.10740 0.27430 0.10740 0.48300
C 	C 	0.47710 0.32520 0.68340 0.32800
C 	C 	0.33000 0.33940 0.22770 -0.19100
H 	H 	0.33060 0.34430 0.29840 0.09000
H 	H 	0.35570 0.30980 0.21130 0.09400
C 	C 	0.39100 0.39410 0.11930 0.06900
H 	H 	0.41550 0.36560 0.10350 0.03900
C 	C 	0.50560 0.36560 0.84440 0.07500
H 	H 	0.53850 0.34550 0.83890 0.02100
C 	C 	0.40830 0.42480 0.85850 -0.19600
H 	H 	0.37490 0.44420 0.86310 0.09900
C 	C 	0.46580 0.36330 0.76980 -0.13900
C 	C 	0.41810 0.39270 0.77880 0.09700
H 	H 	0.39160 0.39070 0.72930 0.00200
C 	C 	0.35080 0.47600 0.12750 -0.01400
H 	H 	0.34300 0.51350 0.11820 0.03600
C 	C 	0.32350 0.44010 0.18510 0.00600
H 	H 	0.29230 0.44880 0.22240 0.03200
C 	C 	0.49550 0.39830 0.92780 -0.17800
H 	H 	0.52090 0.39950 0.97910 0.10000
C 	C 	0.43640 0.46590 0.02150 -0.16700
H 	H 	0.47060 0.46880 0.05890 0.08300
H 	H 	0.42640 0.50290 0.99940 0.08000
C 	C 	0.44650 0.42920 0.93210 0.14700
O 	O 	0.43740 0.30850 0.63170 -0.40400
O 	O 	0.52680 0.31130 0.66260 -0.42500
O 	O 	0.07510 0.26330 0.17830 -0.56000
O 	O 	0.09430 0.27270 0.01860 -0.47800
N 	N 	0.39350 0.44520 0.08420 -0.09300
N 	N 	0.34760 0.38940 0.18140 -0.09100
C 	C 	0.66670 0.79240 0.63650 -0.24500
C 	C 	0.67690 0.81140 0.73060 0.18400
H 	H 	0.64800 0.81280 0.77590 -0.02700
C 	C 	0.72840 0.82790 0.75760 -0.27400
H 	H 	0.73390 0.84270 0.81990 0.12400
C 	C 	0.77210 0.82330 0.69560 0.21000
C 	C 	0.76270 0.80350 0.60050 -0.25200
H 	H 	0.79200 0.80100 0.55600 0.12600
C 	C 	0.70990 0.78770 0.57280 0.17500
H 	H 	0.70380 0.77380 0.51000 -0.01900
C 	C 	0.60740 0.77430 0.60740 0.49900
C 	C 	0.97710 0.82520 0.18340 0.30800
C 	C 	0.83000 0.83940 0.72770 -0.19600
H 	H 	0.83060 0.84430 0.79840 0.09200
H 	H 	0.85570 0.80980 0.71130 0.09700
C 	C 	0.89100 0.89410 0.61930 0.07700
H 	H 	0.91550 0.86560 0.60350 0.04100
C 	C 	0.00560 0.86560 0.34440 -0.37500
H 	H 	0.03850 0.84550 0.33890 0.16600
C 	C 	0.90830 0.92480 0.35850 0.07900
H 	H 	0.87490 0.94420 0.36310 0.00600
C 	C 	0.96580 0.86330 0.26980 0.14500
C 	C 	0.91810 0.89270 0.27880 -0.17300
H 	H 	0.89160 0.89070 0.22930 0.09500
C 	C 	0.85080 0.97600 0.62750 -0.00700
H 	H 	0.84300 0.01350 0.61820 0.03600
C 	C 	0.82350 0.94010 0.68510 0.00200
H 	H 	0.79230 0.94880 0.72240 0.03300
C 	C 	0.99550 0.89830 0.42780 0.30400
H 	H 	0.02090 0.89950 0.47910 -0.10800
C 	C 	0.93640 0.96590 0.52150 -0.03000
H 	H 	0.97060 0.96880 0.55890 0.06100
H 	H 	0.92640 0.00290 0.49940 0.04800
C 	C 	0.94650 0.92920 0.43210 -0.11000
O 	O 	0.93740 0.80850 0.13170 -0.37600
O 	O 	0.02680 0.81130 0.16260 -0.44600
O 	O 	0.57510 0.76330 0.67830 -0.57500
O 	O 	0.59430 0.77270 0.51860 -0.49200
N 	N 	0.89350 0.94520 0.58420 -0.11200
N 	N 	0.84760 0.88940 0.68140 -0.09100
C 	C 	0.04240 0.58330 0.88650 -0.24400
C 	C 	0.06140 0.57310 0.98060 0.16800
H 	H 	0.06280 0.60200 0.02590 -0.02500
C 	C 	0.07790 0.52160 0.00760 -0.26600
H 	H 	0.09270 0.51610 0.06990 0.11600
C 	C 	0.07330 0.47790 0.94560 0.18900
C 	C 	0.05350 0.48730 0.85050 -0.24800
H 	H 	0.05100 0.45800 0.80600 0.11400
C 	C 	0.03770 0.54010 0.82280 0.16100
H 	H 	0.02380 0.54620 0.76000 -0.02800
C 	C 	0.02430 0.64260 0.85740 0.48200
C 	C 	0.07520 0.27290 0.43340 0.32800
C 	C 	0.08940 0.42000 0.97770 -0.17800
H 	H 	0.09430 0.41940 0.04840 0.07900
H 	H 	0.05980 0.39430 0.96130 0.07700
C 	C 	0.14410 0.35900 0.86930 0.06800
H 	H 	0.11560 0.33450 0.85350 0.03700
C 	C 	0.11560 0.24440 0.59440 0.07700
H 	H 	0.09550 0.21150 0.58890 0.01600
C 	C 	0.17480 0.34170 0.60850 -0.20400
H 	H 	0.19420 0.37510 0.61310 0.10000
C 	C 	0.11330 0.28420 0.51980 -0.14800
C 	C 	0.14270 0.33190 0.52880 0.10100
H 	H 	0.14070 0.35840 0.47930 -0.00000
C 	C 	0.22600 0.39920 0.87750 -0.01400
H 	H 	0.26350 0.40700 0.86820 0.03600
C 	C 	0.19010 0.42650 0.93510 0.00600
H 	H 	0.19880 0.45770 0.97240 0.03300
C 	C 	0.14830 0.25450 0.67780 -0.18500
H 	H 	0.14950 0.22910 0.72910 0.10300
C 	C 	0.21590 0.31360 0.77150 -0.17000
H 	H 	0.21880 0.27940 0.80890 0.08400
H 	H 	0.25290 0.32360 0.74940 0.08100
C 	C 	0.17920 0.30350 0.68210 0.15100
O 	O 	0.05850 0.31260 0.38170 -0.40800
O 	O 	0.06130 0.22320 0.41260 -0.42500
O 	O 	0.01330 0.67490 0.92830 -0.57200
O 	O 	0.02270 0.65570 0.76860 -0.49000
N 	N 	0.19520 0.35650 0.83420 -0.09300
N 	N 	0.13940 0.40240 0.93140 -0.09300
C 	C 	0.54240 0.08330 0.38650 -0.24500
C 	C 	0.56140 0.07310 0.48060 0.18400
H 	H 	0.56280 0.10200 0.52590 -0.02700
C 	C 	0.57790 0.02160 0.50760 -0.27000
H 	H 	0.59270 0.01610 0.56990 0.12300
C 	C 	0.57330 0.97790 0.44560 0.20800
C 	C 	0.55350 0.98730 0.35050 -0.25500
H 	H 	0.55100 0.95800 0.30600 0.12700
C 	C 	0.53770 0.04010 0.32280 0.17900
H 	H 	0.52380 0.04620 0.26000 -0.02000
C 	C 	0.52430 0.14260 0.35740 0.49900
C 	C 	0.57520 0.77290 0.93340 0.32900
C 	C 	0.58940 0.92000 0.47770 -0.19300
H 	H 	0.59430 0.91940 0.54840 0.09100
H 	H 	0.55980 0.89430 0.46130 0.09400
C 	C 	0.64410 0.85900 0.36930 0.06900
H 	H 	0.61560 0.83450 0.35350 0.03900
C 	C 	0.61560 0.74440 0.09440 0.07400
H 	H 	0.59550 0.71150 0.08890 0.02200
C 	C 	0.67480 0.84170 0.10850 -0.19400
H 	H 	0.69420 0.87510 0.11310 0.09700
C 	C 	0.61330 0.78420 0.01980 -0.13900
C 	C 	0.64270 0.83190 0.02880 0.09300
H 	H 	0.64070 0.85840 0.97930 0.00400
C 	C 	0.72600 0.89920 0.37750 -0.01400
H 	H 	0.76350 0.90700 0.36820 0.03700
C 	C 	0.69010 0.92650 0.43510 0.00600
H 	H 	0.69880 0.95770 0.47240 0.03200
C 	C 	0.64830 0.75450 0.17780 -0.17700
H 	H 	0.64950 0.72910 0.22910 0.10000
C 	C 	0.71590 0.81360 0.27150 -0.16600
H 	H 	0.71880 0.77940 0.30890 0.08300
H 	H 	0.75290 0.82360 0.24940 0.07900
C 	C 	0.67920 0.80350 0.18210 0.14600
O 	O 	0.55850 0.81260 0.88170 -0.40300
O 	O 	0.56130 0.72320 0.91260 -0.42500
O 	O 	0.51330 0.17490 0.42830 -0.57500
O 	O 	0.52270 0.15570 0.26860 -0.49200
N 	N 	0.69520 0.85650 0.33420 -0.09400
N 	N 	0.63940 0.90240 0.43140 -0.09100
C 	C 	0.45760 0.41670 0.38650 -0.24500
C 	C 	0.43860 0.42690 0.48060 0.18400
H 	H 	0.43720 0.39800 0.52590 -0.02700
C 	C 	0.42210 0.47840 0.50760 -0.27300
H 	H 	0.40730 0.48390 0.56990 0.12400
C 	C 	0.42670 0.52210 0.44560 0.20900
C 	C 	0.44650 0.51270 0.35050 -0.25100
H 	H 	0.44900 0.54200 0.30600 0.12600
C 	C 	0.46230 0.45990 0.32280 0.17500
H 	H 	0.47620 0.45380 0.26000 -0.01900
C 	C 	0.47570 0.35740 0.35740 0.49900
C 	C 	0.42480 0.72710 0.93340 0.32900
C 	C 	0.41060 0.58000 0.47770 -0.19400
H 	H 	0.40570 0.58060 0.54840 0.09100
H 	H 	0.44020 0.60570 0.46130 0.09500
C 	C 	0.35590 0.64100 0.36930 0.06900
H 	H 	0.38440 0.66550 0.35350 0.03900
C 	C 	0.38440 0.75560 0.09440 0.07500
H 	H 	0.40450 0.78850 0.08890 0.02100
C 	C 	0.32520 0.65830 0.10850 -0.19600
H 	H 	0.30580 0.62490 0.11310 0.09900
C 	C 	0.38670 0.71580 0.01980 -0.14000
C 	C 	0.35730 0.66810 0.02880 0.09600
H 	H 	0.35930 0.64160 0.97930 0.00300
C 	C 	0.27400 0.60080 0.37750 -0.01300
H 	H 	0.23650 0.59300 0.36820 0.03400
C 	C 	0.30990 0.57350 0.43510 0.00400
H 	H 	0.30120 0.54230 0.47240 0.03300
C 	C 	0.35170 0.74550 0.17780 -0.17800
H 	H 	0.35050 0.77090 0.22910 0.10000
C 	C 	0.28410 0.68640 0.27150 -0.16800
H 	H 	0.28120 0.72060 0.30890 0.08400
H 	H 	0.24710 0.67640 0.24940 0.08100
C 	C 	0.32080 0.69650 0.18210 0.14800
O 	O 	0.44150 0.68740 0.88170 -0.40400
O 	O 	0.43870 0.77680 0.91260 -0.42500
O 	O 	0.48670 0.32510 0.42830 -0.57500
O 	O 	0.47730 0.34430 0.26860 -0.49200
N 	N 	0.30480 0.64350 0.33420 -0.09300
N 	N 	0.36060 0.59760 0.43140 -0.09100
C 	C 	0.95760 0.91670 0.88650 -0.23100
C 	C 	0.93860 0.92690 0.98060 0.19700
H 	H 	0.93720 0.89800 0.02590 -0.02600
C 	C 	0.92210 0.97840 0.00760 -0.28300
H 	H 	0.90730 0.98390 0.06990 0.13200
C 	C 	0.92670 0.02210 0.94560 0.23200
C 	C 	0.94650 0.01270 0.85050 -0.25000
H 	H 	0.94900 0.04200 0.80600 0.13700
C 	C 	0.96230 0.95990 0.82280 0.17900
H 	H 	0.97620 0.95380 0.76000 -0.00700
C 	C 	0.97570 0.85740 0.85740 0.48500
C 	C 	0.92480 0.22710 0.43340 0.32300
C 	C 	0.91060 0.08000 0.97770 -0.21800
H 	H 	0.90570 0.08060 0.04840 0.10900
H 	H 	0.94020 0.10570 0.96130 0.11800
C 	C 	0.85590 0.14100 0.86930 0.06800
H 	H 	0.88440 0.16550 0.85350 0.04300
C 	C 	0.88440 0.25560 0.59440 0.07200
H 	H 	0.90450 0.28850 0.58890 0.02800
C 	C 	0.82520 0.15830 0.60850 -0.18800
H 	H 	0.80580 0.12490 0.61310 0.09700
C 	C 	0.88670 0.21580 0.51980 -0.12800
C 	C 	0.85730 0.16810 0.52880 0.09100
H 	H 	0.85930 0.14160 0.47930 0.00500
C 	C 	0.77400 0.10080 0.87750 -0.01200
H 	H 	0.73650 0.09300 0.86820 0.03500
C 	C 	0.80990 0.07350 0.93510 0.00300
H 	H 	0.80120 0.04230 0.97240 0.03300
C 	C 	0.85170 0.24550 0.67780 -0.16900
H 	H 	0.85050 0.27090 0.72910 0.09700
C 	C 	0.78410 0.18640 0.77150 -0.16400
H 	H 	0.78120 0.22060 0.80890 0.08200
H 	H 	0.74710 0.17640 0.74940 0.07900
C 	C 	0.82080 0.19650 0.68210 0.14400
O 	O 	0.94150 0.18740 0.38170 -0.36800
O 	O 	0.93870 0.27680 0.41260 -0.39100
O 	O 	0.98670 0.82510 0.92830 -0.51600
O 	O 	0.97730 0.84430 0.76860 -0.44700
N 	N 	0.80480 0.14350 0.83420 -0.09300
N 	N 	0.86060 0.09760 0.93140 -0.08600
C 	C 	0.66670 0.29240 0.36350 -0.24500
C 	C 	0.67690 0.31140 0.26940 0.18400
H 	H 	0.64800 0.31280 0.22410 -0.02700
C 	C 	0.72840 0.32790 0.24240 -0.27400
H 	H 	0.73390 0.34270 0.18010 0.12400
C 	C 	0.77210 0.32330 0.30440 0.21000
C 	C 	0.76270 0.30350 0.39950 -0.25200
H 	H 	0.79200 0.30100 0.44400 0.12600
C 	C 	0.70990 0.28770 0.42720 0.17500
H 	H 	0.70380 0.27380 0.49000 -0.01900
C 	C 	0.60740 0.27430 0.39260 0.49900
C 	C 	0.97710 0.32520 0.81660 0.30700
C 	C 	0.83000 0.33940 0.27230 -0.19600
H 	H 	0.83060 0.34430 0.20160 0.09200
H 	H 	0.85570 0.30980 0.28870 0.09700
C 	C 	0.89100 0.39410 0.38070 0.07700
H 	H 	0.91550 0.36560 0.39650 0.04100
C 	C 	0.00560 0.36560 0.65560 -0.37600
H 	H 	0.03850 0.34550 0.66110 0.16600
C 	C 	0.90830 0.42480 0.64150 0.08100
H 	H 	0.87490 0.44420 0.63690 0.00600
C 	C 	0.96580 0.36330 0.73020 0.14600
C 	C 	0.91810 0.39270 0.72120 -0.17400
H 	H 	0.89160 0.39070 0.77070 0.09600
C 	C 	0.85080 0.47600 0.37250 -0.00300
H 	H 	0.84300 0.51350 0.38180 0.03300
C 	C 	0.82350 0.44010 0.31490 0.00000
H 	H 	0.79230 0.44880 0.27760 0.03400
C 	C 	0.99550 0.39830 0.57220 0.30600
H 	H 	0.02090 0.39950 0.52090 -0.10900
C 	C 	0.93640 0.46590 0.47850 -0.02600
H 	H 	0.97060 0.46880 0.44110 0.06100
H 	H 	0.92640 0.50290 0.50060 0.04600
C 	C 	0.94650 0.42920 0.56790 -0.11200
O 	O 	0.93740 0.30850 0.86830 -0.37600
O 	O 	0.02680 0.31130 0.83740 -0.44600
O 	O 	0.57510 0.26330 0.32170 -0.57500
O 	O 	0.59430 0.27270 0.48140 -0.49200
N 	N 	0.89350 0.44520 0.41580 -0.11300
N 	N 	0.84760 0.38940 0.31860 -0.09100
C 	C 	0.16670 0.79240 0.86350 -0.23600
C 	C 	0.17690 0.81140 0.76940 0.17500
H 	H 	0.14800 0.81280 0.72410 -0.02400
C 	C 	0.22840 0.82790 0.74240 -0.26700
H 	H 	0.23390 0.84270 0.68010 0.12100
C 	C 	0.27210 0.82330 0.80440 0.20500
C 	C 	0.26270 0.80350 0.89950 -0.24600
H 	H 	0.29200 0.80100 0.94400 0.12500
C 	C 	0.20990 0.78770 0.92720 0.16800
H 	H 	0.20380 0.77380 0.99000 -0.01600
C 	C 	0.10740 0.77430 0.89260 0.48300
C 	C 	0.47710 0.82520 0.31660 0.32800
C 	C 	0.33000 0.83940 0.77230 -0.19100
H 	H 	0.33060 0.84430 0.70160 0.09000
H 	H 	0.35570 0.80980 0.78870 0.09400
C 	C 	0.39100 0.89410 0.88070 0.06900
H 	H 	0.41550 0.86560 0.89650 0.03900
C 	C 	0.50560 0.86560 0.15560 0.07500
H 	H 	0.53850 0.84550 0.16110 0.02100
C 	C 	0.40830 0.92480 0.14150 -0.19700
H 	H 	0.37490 0.94420 0.13690 0.09800
C 	C 	0.46580 0.86330 0.23020 -0.13900
C 	C 	0.41810 0.89270 0.22120 0.09700
H 	H 	0.39160 0.89070 0.27070 0.00200
C 	C 	0.35080 0.97600 0.87250 -0.01800
H 	H 	0.34300 0.01350 0.88180 0.03800
C 	C 	0.32350 0.94010 0.81490 0.00700
H 	H 	0.29230 0.94880 0.77760 0.03100
C 	C 	0.49550 0.89830 0.07220 -0.17800
H 	H 	0.52090 0.89950 0.02090 0.10000
C 	C 	0.43640 0.96590 0.97850 -0.17100
H 	H 	0.47060 0.96880 0.94110 0.08400
H 	H 	0.42640 0.00290 0.00060 0.08400
C 	C 	0.44650 0.92920 0.06790 0.14700
O 	O 	0.43740 0.80850 0.36830 -0.40400
O 	O 	0.52680 0.81130 0.33740 -0.42500
O 	O 	0.07510 0.76330 0.82170 -0.56000
O 	O 	0.09430 0.77270 0.98140 -0.47800
N 	N 	0.39350 0.94520 0.91580 -0.09200
N 	N 	0.34760 0.88940 0.81860 -0.09200
C 	C 	0.83330 0.70760 0.86350 -0.23000
C 	C 	0.82310 0.68860 0.76940 0.17300
H 	H 	0.85200 0.68720 0.72410 -0.02000
C 	C 	0.77160 0.67210 0.74240 -0.26400
H 	H 	0.76610 0.65730 0.68010 0.12100
C 	C 	0.72790 0.67670 0.80440 0.20300
C 	C 	0.73730 0.69650 0.89950 -0.24300
H 	H 	0.70800 0.69900 0.94400 0.12300
C 	C 	0.79010 0.71230 0.92720 0.16400
H 	H 	0.79620 0.72620 0.99000 -0.01500
C 	C 	0.89260 0.72570 0.89260 0.48000
C 	C 	0.52290 0.67480 0.31660 0.32800
C 	C 	0.67000 0.66060 0.77230 -0.19000
H 	H 	0.66940 0.65570 0.70160 0.09000
H 	H 	0.64430 0.69020 0.78870 0.09300
C 	C 	0.60900 0.60590 0.88070 0.06900
H 	H 	0.58450 0.63440 0.89650 0.03900
C 	C 	0.49440 0.63440 0.15560 0.07500
H 	H 	0.46150 0.65450 0.16110 0.02100
C 	C 	0.59170 0.57520 0.14150 -0.19600
H 	H 	0.62510 0.55580 0.13690 0.09800
C 	C 	0.53420 0.63670 0.23020 -0.13900
C 	C 	0.58190 0.60730 0.22120 0.09600
H 	H 	0.60840 0.60930 0.27070 0.00200
C 	C 	0.64920 0.52400 0.87250 -0.01300
H 	H 	0.65700 0.48650 0.88180 0.03600
C 	C 	0.67650 0.55990 0.81490 0.00500
H 	H 	0.70770 0.55120 0.77760 0.03300
C 	C 	0.50450 0.60170 0.07220 -0.17700
H 	H 	0.47910 0.60050 0.02090 0.10000
C 	C 	0.56360 0.53410 0.97850 -0.16700
H 	H 	0.52940 0.53120 0.94110 0.08300
H 	H 	0.57360 0.49710 0.00060 0.08000
C 	C 	0.55350 0.57080 0.06790 0.14700
O 	O 	0.56260 0.69150 0.36830 -0.40300
O 	O 	0.47320 0.68870 0.33740 -0.42500
O 	O 	0.92490 0.73670 0.82170 -0.52800
O 	O 	0.90570 0.72730 0.98140 -0.45900
N 	N 	0.60650 0.55480 0.91580 -0.09400
N 	N 	0.65240 0.61060 0.81860 -0.09100
C 	C 	0.33330 0.20760 0.36350 -0.24600
C 	C 	0.32310 0.18860 0.26940 0.18600
H 	H 	0.35200 0.18720 0.22410 -0.02700
C 	C 	0.27160 0.17210 0.24240 -0.27600
H 	H 	0.26610 0.15730 0.18010 0.12500
C 	C 	0.22790 0.17670 0.30440 0.21300
C 	C 	0.23730 0.19650 0.39950 -0.25400
H 	H 	0.20800 0.19900 0.44400 0.12700
C 	C 	0.29010 0.21230 0.42720 0.17700
H 	H 	0.29620 0.22620 0.49000 -0.02000
C 	C 	0.39260 0.22570 0.39260 0.49900
C 	C 	0.02290 0.17480 0.81660 0.34400
C 	C 	0.17000 0.16060 0.27230 -0.19900
H 	H 	0.16940 0.15570 0.20160 0.09400
H 	H 	0.14430 0.19020 0.28870 0.09800
C 	C 	0.10900 0.10590 0.38070 0.05900
H 	H 	0.08450 0.13440 0.39650 0.03900
C 	C 	0.99440 0.13440 0.65560 0.52000
H 	H 	0.96150 0.15450 0.66110 -0.12000
C 	C 	0.09170 0.07520 0.64150 -0.46700
H 	H 	0.12510 0.05580 0.63690 0.18900
C 	C 	0.03420 0.13670 0.73020 -0.41800
C 	C 	0.08190 0.10730 0.72120 0.36100
H 	H 	0.10840 0.10930 0.77070 -0.08900
C 	C 	0.14920 0.02400 0.37250 -0.01600
H 	H 	0.15700 0.98650 0.38180 0.03300
C 	C 	0.17650 0.05990 0.31490 0.00600
H 	H 	0.20770 0.05120 0.27760 0.03400
C 	C 	0.00450 0.10170 0.57220 -0.65100
H 	H 	0.97910 0.10050 0.52090 0.30700
C 	C 	0.06360 0.03410 0.47850 -0.30100
H 	H 	0.02940 0.03120 0.44110 0.10500
H 	H 	0.07360 0.99710 0.50060 0.11100
C 	C 	0.05350 0.07080 0.56790 0.40100
O 	O 	0.06260 0.19150 0.86830 -0.40000
O 	O 	0.97320 0.18870 0.83740 -0.37000
O 	O 	0.42490 0.23670 0.32170 -0.57500
O 	O 	0.40570 0.22730 0.48140 -0.49200
N 	N 	0.10650 0.05480 0.41580 -0.07500
N 	N 	0.15240 0.11060 0.31860 -0.08800
C 	C 	0.95760 0.41670 0.11350 -0.22700
C 	C 	0.93860 0.42690 0.01940 0.18800
H 	H 	0.93720 0.39800 0.97410 -0.02200
C 	C 	0.92210 0.47840 0.99240 -0.27200
H 	H 	0.90730 0.48390 0.93010 0.13000
C 	C 	0.92670 0.52210 0.05440 0.22500
C 	C 	0.94650 0.51270 0.14950 -0.24600
H 	H 	0.94900 0.54200 0.19400 0.13500
C 	C 	0.96230 0.45990 0.17720 0.17600
H 	H 	0.97620 0.45380 0.24000 -0.00500
C 	C 	0.97570 0.35740 0.14260 0.48300
C 	C 	0.92480 0.72710 0.56660 0.32300
C 	C 	0.91060 0.58000 0.02230 -0.21200
H 	H 	0.90570 0.58060 0.95160 0.10700
H 	H 	0.94020 0.60570 0.03870 0.11700
C 	C 	0.85590 0.64100 0.13070 0.06800
H 	H 	0.88440 0.66550 0.14650 0.04300
C 	C 	0.88440 0.75560 0.40560 0.07200
H 	H 	0.90450 0.78850 0.41110 0.02800
C 	C 	0.82520 0.65830 0.39150 -0.18800
H 	H 	0.80580 0.62490 0.38690 0.09600
C 	C 	0.88670 0.71580 0.48020 -0.12800
C 	C 	0.85730 0.66810 0.47120 0.09100
H 	H 	0.85930 0.64160 0.52070 0.00500
C 	C 	0.77400 0.60080 0.12250 -0.01300
H 	H 	0.73650 0.59300 0.13180 0.03500
C 	C 	0.80990 0.57350 0.06490 0.00300
H 	H 	0.80120 0.54230 0.02760 0.03300
C 	C 	0.85170 0.74550 0.32220 -0.16900
H 	H 	0.85050 0.77090 0.27090 0.09700
C 	C 	0.78410 0.68640 0.22850 -0.16400
H 	H 	0.78120 0.72060 0.19110 0.08200
H 	H 	0.74710 0.67640 0.25060 0.07900
C 	C 	0.82080 0.69650 0.31790 0.14400
O 	O 	0.94150 0.68740 0.61830 -0.36800
O 	O 	0.93870 0.77680 0.58740 -0.39100
O 	O 	0.98670 0.32510 0.07170 -0.51600
O 	O 	0.97730 0.34430 0.23140 -0.44700
N 	N 	0.80480 0.64350 0.16580 -0.09300
N 	N 	0.86060 0.59760 0.06860 -0.08700
C 	C 	0.45760 0.91670 0.61350 -0.24500
C 	C 	0.43860 0.92690 0.51940 0.18500
H 	H 	0.43720 0.89800 0.47410 -0.02700
C 	C 	0.42210 0.97840 0.49240 -0.27700
H 	H 	0.40730 0.98390 0.43010 0.12400
C 	C 	0.42670 0.02210 0.55440 0.21200
C 	C 	0.44650 0.01270 0.64950 -0.25000
H 	H 	0.44900 0.04200 0.69400 0.12600
C 	C 	0.46230 0.95990 0.67720 0.17300
H 	H 	0.47620 0.95380 0.74000 -0.01900
C 	C 	0.47570 0.85740 0.64260 0.49800
C 	C 	0.42480 0.22710 0.06660 0.32900
C 	C 	0.41060 0.08000 0.52230 -0.19500
H 	H 	0.40570 0.08060 0.45160 0.09200
H 	H 	0.44020 0.10570 0.53870 0.09500
C 	C 	0.35590 0.14100 0.63070 0.06900
H 	H 	0.38440 0.16550 0.64650 0.03900
C 	C 	0.38440 0.25560 0.90560 0.07500
H 	H 	0.40450 0.28850 0.91110 0.02100
C 	C 	0.32520 0.15830 0.89150 -0.19500
H 	H 	0.30580 0.12490 0.88690 0.09800
C 	C 	0.38670 0.21580 0.98020 -0.13900
C 	C 	0.35730 0.16810 0.97120 0.09400
H 	H 	0.35930 0.14160 0.02070 0.00400
C 	C 	0.27400 0.10080 0.62250 -0.01300
H 	H 	0.23650 0.09300 0.63180 0.03400
C 	C 	0.30990 0.07350 0.56490 0.00400
H 	H 	0.30120 0.04230 0.52760 0.03300
C 	C 	0.35170 0.24550 0.82220 -0.17700
H 	H 	0.35050 0.27090 0.77090 0.10000
C 	C 	0.28410 0.18640 0.72850 -0.16800
H 	H 	0.28120 0.22060 0.69110 0.08300
H 	H 	0.24710 0.17640 0.75060 0.08100
C 	C 	0.32080 0.19650 0.81790 0.14700
O 	O 	0.44150 0.18740 0.11830 -0.40300
O 	O 	0.43870 0.27680 0.08740 -0.42500
O 	O 	0.48670 0.82510 0.57170 -0.57500
O 	O 	0.47730 0.84430 0.73140 -0.49200
N 	N 	0.30480 0.14350 0.66580 -0.09300
N 	N 	0.36060 0.09760 0.56860 -0.09000
C 	C 	0.54240 0.58330 0.61350 -0.24400
C 	C 	0.56140 0.57310 0.51940 0.18400
H 	H 	0.56280 0.60200 0.47410 -0.02700
C 	C 	0.57790 0.52160 0.49240 -0.27300
H 	H 	0.59270 0.51610 0.43010 0.12400
C 	C 	0.57330 0.47790 0.55440 0.20900
C 	C 	0.55350 0.48730 0.64950 -0.25100
H 	H 	0.55100 0.45800 0.69400 0.12600
C 	C 	0.53770 0.54010 0.67720 0.17500
H 	H 	0.52380 0.54620 0.74000 -0.01900
C 	C 	0.52430 0.64260 0.64260 0.49900
C 	C 	0.57520 0.27290 0.06660 0.32900
C 	C 	0.58940 0.42000 0.52230 -0.19400
H 	H 	0.59430 0.41940 0.45160 0.09100
H 	H 	0.55980 0.39430 0.53870 0.09400
C 	C 	0.64410 0.35900 0.63070 0.06900
H 	H 	0.61560 0.33450 0.64650 0.03900
C 	C 	0.61560 0.24440 0.90560 0.07500
H 	H 	0.59550 0.21150 0.91110 0.02100
C 	C 	0.67480 0.34170 0.89150 -0.19600
H 	H 	0.69420 0.37510 0.88690 0.09800
C 	C 	0.61330 0.28420 0.98020 -0.14000
C 	C 	0.64270 0.33190 0.97120 0.09500
H 	H 	0.64070 0.35840 0.02070 0.00300
C 	C 	0.72600 0.39920 0.62250 -0.01400
H 	H 	0.76350 0.40700 0.63180 0.03700
C 	C 	0.69010 0.42650 0.56490 0.00600
H 	H 	0.69880 0.45770 0.52760 0.03300
C 	C 	0.64830 0.25450 0.82220 -0.17700
H 	H 	0.64950 0.22910 0.77090 0.10000
C 	C 	0.71590 0.31360 0.72850 -0.16700
H 	H 	0.71880 0.27940 0.69110 0.08300
H 	H 	0.75290 0.32360 0.75060 0.07900
C 	C 	0.67920 0.30350 0.81790 0.14700
O 	O 	0.55850 0.31260 0.11830 -0.40400
O 	O 	0.56130 0.22320 0.08740 -0.42500
O 	O 	0.51330 0.67490 0.57170 -0.57500
O 	O 	0.52270 0.65570 0.73140 -0.49200
N 	N 	0.69520 0.35650 0.66580 -0.09300
N 	N 	0.63940 0.40240 0.56860 -0.09100
C 	C 	0.04240 0.08330 0.11350 -0.24900
C 	C 	0.06140 0.07310 0.01940 0.17500
H 	H 	0.06280 0.10200 0.97410 -0.02800
C 	C 	0.07790 0.02160 0.99240 -0.26900
H 	H 	0.09270 0.01610 0.93010 0.11700
C 	C 	0.07330 0.97790 0.05440 0.19200
C 	C 	0.05350 0.98730 0.14950 -0.25700
H 	H 	0.05100 0.95800 0.19400 0.11700
C 	C 	0.03770 0.04010 0.17720 0.17200
H 	H 	0.02380 0.04620 0.24000 -0.03100
C 	C 	0.02430 0.14260 0.14260 0.48400
C 	C 	0.07520 0.77290 0.56660 0.32800
C 	C 	0.08940 0.92000 0.02230 -0.18200
H 	H 	0.09430 0.91940 0.95160 0.08000
H 	H 	0.05980 0.89430 0.03870 0.07800
C 	C 	0.14410 0.85900 0.13070 0.06700
H 	H 	0.11560 0.83450 0.14650 0.03700
C 	C 	0.11560 0.74440 0.40560 0.07700
H 	H 	0.09550 0.71150 0.41110 0.01600
C 	C 	0.17480 0.84170 0.39150 -0.20400
H 	H 	0.19420 0.87510 0.38690 0.10000
C 	C 	0.11330 0.78420 0.48020 -0.14800
C 	C 	0.14270 0.83190 0.47120 0.10100
H 	H 	0.14070 0.85840 0.52070 -0.00000
C 	C 	0.22600 0.89920 0.12250 -0.01500
H 	H 	0.26350 0.90700 0.13180 0.03600
C 	C 	0.19010 0.92650 0.06490 0.00600
H 	H 	0.19880 0.95770 0.02760 0.03200
C 	C 	0.14830 0.75450 0.32220 -0.18500
H 	H 	0.14950 0.72910 0.27090 0.10300
C 	C 	0.21590 0.81360 0.22850 -0.17000
H 	H 	0.21880 0.77940 0.19110 0.08400
H 	H 	0.25290 0.82360 0.25060 0.08100
C 	C 	0.17920 0.80350 0.31790 0.15100
O 	O 	0.05850 0.81260 0.61830 -0.40800
O 	O 	0.06130 0.72320 0.58740 -0.42500
O 	O 	0.01330 0.17490 0.07170 -0.57200
O 	O 	0.02270 0.15570 0.23140 -0.49100
N 	N 	0.19520 0.85650 0.16580 -0.09300
N 	N 	0.13940 0.90240 0.06860 -0.09300
Eu	Eu	0.00000 0.75000 0.02829 1.97100
Eu	Eu	0.50000 0.25000 0.52829 2.13200
Eu	Eu	0.00000 0.25000 0.27829 1.97300
Eu	Eu	0.50000 0.75000 0.77829 2.13200
Eu	Eu	-0.00000 0.25000 0.97171 1.97300
Eu	Eu	0.50000 0.75000 0.47171 2.13200
Eu	Eu	-0.00000 0.75000 0.72171 1.97200
Eu	Eu	0.50000 0.25000 0.22171 2.13200
