data_crystal

_cell_length_a 10.22880
_cell_length_b 11.29620
_cell_length_c 22.26890
_cell_angle_alpha 90.00000
_cell_angle_beta  97.06620
_cell_angle_gamma 90.00000

_symmetry_space_group_name_	'P 1'
_symmetry_space_group_name_H-M	'P 1'

loop_
_symmetry_equiv_pos_as_xyz
  x,y,z

loop_
_atom_site_label
_atom_site_type_symbol
_atom_site_fract_x
_atom_site_fract_y
_atom_site_fract_z
_atom_site_charge
Gd	Gd	0.61119 0.68532 0.22515 1.57100
Gd	Gd	0.24163 0.90914 0.43580 1.39500
Gd	Gd	0.88881 0.18532 0.27485 1.56600
Gd	Gd	0.25837 0.40914 0.06420 1.39900
Gd	Gd	0.38881 0.31468 0.77485 1.57100
Gd	Gd	0.75837 0.09086 0.56420 1.39500
Gd	Gd	0.11119 0.81468 0.72515 1.56600
Gd	Gd	0.74163 0.59086 0.93580 1.39900
H 	H 	0.15730 0.96630 0.16460 0.13600
H 	H 	0.11930 0.61860 0.16210 0.14600
H 	H 	0.24990 0.89090 0.07440 0.26600
H 	H 	0.31030 0.76430 0.08630 0.27500
H 	H 	0.40300 0.87500 0.08740 0.26900
H 	H 	0.11940 0.64110 0.27200 0.28000
H 	H 	0.98950 0.59130 0.29320 0.28900
H 	H 	0.00900 0.72830 0.28730 0.28000
H 	H 	0.34270 0.46630 0.33540 0.13800
H 	H 	0.38070 0.11860 0.33790 0.14600
H 	H 	0.25010 0.39090 0.42560 0.26700
H 	H 	0.18970 0.26430 0.41370 0.27600
H 	H 	0.09700 0.37500 0.41260 0.27100
H 	H 	0.38060 0.14110 0.22800 0.28000
H 	H 	0.51050 0.09130 0.20680 0.28900
H 	H 	0.49100 0.22830 0.21270 0.28100
H 	H 	0.84270 0.03370 0.83540 0.13600
H 	H 	0.88070 0.38140 0.83790 0.14600
H 	H 	0.75010 0.10910 0.92560 0.26600
H 	H 	0.68970 0.23570 0.91370 0.27500
H 	H 	0.59700 0.12500 0.91260 0.26900
H 	H 	0.88060 0.35890 0.72800 0.28000
H 	H 	0.01050 0.40870 0.70680 0.28900
H 	H 	0.99100 0.27170 0.71270 0.28000
H 	H 	0.65730 0.53370 0.66460 0.13800
H 	H 	0.61930 0.88140 0.66210 0.14600
H 	H 	0.74990 0.60910 0.57440 0.26700
H 	H 	0.81030 0.73570 0.58630 0.27600
H 	H 	0.90300 0.62500 0.58740 0.27100
H 	H 	0.61940 0.85890 0.77200 0.28000
H 	H 	0.48950 0.90870 0.79320 0.28900
H 	H 	0.50900 0.77170 0.78730 0.28100
C 	C 	0.31220 0.86110 0.16330 0.31600
C 	C 	0.34847 0.85150 0.26187 -0.06400
C 	C 	0.24112 0.92490 0.24872 -0.03400
C 	C 	0.31960 0.84650 0.09690 -0.83000
C 	C 	0.42103 0.81040 0.32033 0.37500
C 	C 	0.15880 0.00210 0.28400 0.35500
C 	C 	0.96417 0.64760 0.20607 0.34500
C 	C 	0.82636 0.64890 0.12336 -0.05600
C 	C 	0.95000 0.63000 0.10580 -0.01700
C 	C 	0.02610 0.65250 0.27040 -0.86600
C 	C 	0.69329 0.65340 0.08759 0.38700
C 	C 	0.00918 0.61500 0.04818 0.37100
C 	C 	0.79626 0.90720 0.27836 0.23500
C 	C 	0.73842 0.95350 0.21502 0.23500
C 	C 	0.18780 0.36110 0.33670 0.31700
C 	C 	0.15153 0.35150 0.23813 -0.06600
C 	C 	0.25888 0.42490 0.25128 -0.03000
C 	C 	0.18040 0.34650 0.40310 -0.83300
C 	C 	0.07897 0.31040 0.17967 0.37900
C 	C 	0.34120 0.50210 0.21600 0.35300
C 	C 	0.53583 0.14760 0.29393 0.34500
C 	C 	0.67364 0.14890 0.37664 -0.05600
C 	C 	0.55000 0.13000 0.39420 -0.01700
C 	C 	0.47390 0.15250 0.22960 -0.86600
C 	C 	0.80671 0.15340 0.41241 0.38700
C 	C 	0.49082 0.11500 0.45182 0.37200
C 	C 	0.70374 0.40720 0.22164 0.23600
C 	C 	0.76158 0.45350 0.28498 0.23200
C 	C 	0.68780 0.13890 0.83670 0.31600
C 	C 	0.65153 0.14850 0.73813 -0.06400
C 	C 	0.75888 0.07510 0.75128 -0.03400
C 	C 	0.68040 0.15350 0.90310 -0.83000
C 	C 	0.57897 0.18960 0.67967 0.37500
C 	C 	0.84120 0.99790 0.71600 0.35500
C 	C 	0.03583 0.35240 0.79393 0.34500
C 	C 	0.17364 0.35110 0.87664 -0.05600
C 	C 	0.05000 0.37000 0.89420 -0.01700
C 	C 	0.97390 0.34750 0.72960 -0.86600
C 	C 	0.30671 0.34660 0.91241 0.38700
C 	C 	0.99082 0.38500 0.95182 0.37100
C 	C 	0.20374 0.09280 0.72164 0.23500
C 	C 	0.26158 0.04650 0.78498 0.23500
C 	C 	0.81220 0.63890 0.66330 0.31700
C 	C 	0.84847 0.64850 0.76187 -0.06600
C 	C 	0.74112 0.57510 0.74872 -0.03000
C 	C 	0.81960 0.65350 0.59690 -0.83300
C 	C 	0.92103 0.68960 0.82033 0.37900
C 	C 	0.65880 0.49790 0.78400 0.35300
C 	C 	0.46417 0.85240 0.70607 0.34500
C 	C 	0.32636 0.85110 0.62336 -0.05600
C 	C 	0.45000 0.87000 0.60580 -0.01700
C 	C 	0.52610 0.84750 0.77040 -0.86600
C 	C 	0.19329 0.84660 0.58759 0.38700
C 	C 	0.50918 0.88500 0.54818 0.37200
C 	C 	0.29626 0.59280 0.77836 0.23600
C 	C 	0.23842 0.54650 0.71502 0.23200
N 	N 	0.39344 0.81210 0.20884 -0.21900
N 	N 	0.21948 0.92810 0.18578 -0.24500
N 	N 	0.83664 0.65950 0.18554 -0.22600
N 	N 	0.03555 0.62910 0.15915 -0.25000
N 	N 	0.10656 0.31210 0.29116 -0.21900
N 	N 	0.28052 0.42810 0.31422 -0.24600
N 	N 	0.66336 0.15950 0.31446 -0.22600
N 	N 	0.46445 0.12910 0.34085 -0.24900
N 	N 	0.60656 0.18790 0.79116 -0.21900
N 	N 	0.78052 0.07190 0.81422 -0.24500
N 	N 	0.16336 0.34050 0.81446 -0.22600
N 	N 	0.96445 0.37090 0.84085 -0.25000
N 	N 	0.89344 0.68790 0.70884 -0.21900
N 	N 	0.71948 0.57190 0.68578 -0.24600
N 	N 	0.33664 0.84050 0.68554 -0.22600
N 	N 	0.53555 0.87090 0.65915 -0.24900
O 	O 	0.52506 0.75190 0.31736 -0.37000
O 	O 	0.37825 0.83450 0.36925 -0.42500
O 	O 	0.18536 0.01050 0.34026 -0.43000
O 	O 	0.06953 0.05910 0.25183 -0.39100
O 	O 	0.59637 0.67600 0.11607 -0.42000
O 	O 	0.68024 0.63300 0.03164 -0.46100
O 	O 	0.94225 0.63680 0.99825 -0.39400
O 	O 	0.12897 0.58400 0.05407 -0.41000
O 	O 	0.86671 0.97780 0.31171 -0.35200
O 	O 	0.76936 0.80200 0.29126 -0.35500
O 	O 	0.77183 0.05520 0.20023 -0.35400
O 	O 	0.65979 0.88460 0.18369 -0.35700
O 	O 	0.97494 0.25190 0.18264 -0.37300
O 	O 	0.12175 0.33450 0.13075 -0.42500
O 	O 	0.31464 0.51050 0.15974 -0.43200
O 	O 	0.43047 0.55910 0.24817 -0.39300
O 	O 	0.90363 0.17600 0.38393 -0.42100
O 	O 	0.81976 0.13300 0.46836 -0.46100
O 	O 	0.55775 0.13680 0.50175 -0.39500
O 	O 	0.37103 0.08400 0.44593 -0.40900
O 	O 	0.63329 0.47780 0.18829 -0.35400
O 	O 	0.73064 0.30200 0.20874 -0.35500
O 	O 	0.72817 0.55520 0.29977 -0.35200
O 	O 	0.84021 0.38460 0.31631 -0.35600
O 	O 	0.47494 0.24810 0.68264 -0.37000
O 	O 	0.62175 0.16550 0.63075 -0.42500
O 	O 	0.81464 0.98950 0.65974 -0.43000
O 	O 	0.93047 0.94090 0.74817 -0.39100
O 	O 	0.40363 0.32400 0.88393 -0.42000
O 	O 	0.31976 0.36700 0.96836 -0.46100
O 	O 	0.05775 0.36320 0.00175 -0.39400
O 	O 	0.87103 0.41600 0.94593 -0.41000
O 	O 	0.13329 0.02220 0.68829 -0.35200
O 	O 	0.23064 0.19800 0.70874 -0.35500
O 	O 	0.22817 0.94480 0.79977 -0.35400
O 	O 	0.34021 0.11540 0.81631 -0.35700
O 	O 	0.02506 0.74810 0.81736 -0.37300
O 	O 	0.87825 0.66550 0.86925 -0.42500
O 	O 	0.68536 0.48950 0.84026 -0.43200
O 	O 	0.56953 0.44090 0.75183 -0.39300
O 	O 	0.09637 0.82400 0.61607 -0.42100
O 	O 	0.18024 0.86700 0.53164 -0.46100
O 	O 	0.44225 0.86320 0.49825 -0.39500
O 	O 	0.62897 0.91600 0.55407 -0.40900
O 	O 	0.36671 0.52220 0.81171 -0.35400
O 	O 	0.26936 0.69800 0.79126 -0.35500
O 	O 	0.27183 0.44480 0.70023 -0.35200
O 	O 	0.15979 0.61540 0.68369 -0.35600
