data_crystal

_cell_length_a 14.21400
_cell_length_b 21.15700
_cell_length_c 24.01300
_cell_angle_alpha 90.00000
_cell_angle_beta  90.00000
_cell_angle_gamma 90.00000

_symmetry_space_group_name_	'P 1'
_symmetry_space_group_name_H-M	'P 1'

loop_
_symmetry_equiv_pos_as_xyz
  x,y,z

loop_
_atom_site_label
_atom_site_type_symbol
_atom_site_fract_x
_atom_site_fract_y
_atom_site_fract_z
_atom_site_charge
Cu	Cu	0.86983 0.45425 0.03524 0.90400
Cu	Cu	0.92958 0.80212 0.17785 0.92900
Cu	Cu	0.36983 0.04575 0.46476 0.90400
Cu	Cu	0.42958 0.69788 0.32215 0.92900
H 	H 	0.87170 0.56310 0.12190 0.01100
H 	H 	0.88830 0.57160 0.21850 0.09400
H 	H 	0.89290 0.48000 0.27090 0.01900
H 	H 	0.88190 0.38200 0.22790 0.08300
H 	H 	0.86480 0.29100 0.17630 0.09100
H 	H 	0.85930 0.22640 0.01990 0.09400
H 	H 	0.87330 0.25930 0.92510 0.08300
H 	H 	0.88650 0.30350 0.83920 0.02400
H 	H 	0.87380 0.41210 0.82950 0.10000
H 	H 	0.86190 0.47130 0.90360 0.00400
H 	H 	0.81870 0.19830 0.20010 0.01500
H 	H 	0.91110 0.13740 0.05410 0.01400
H 	H 	0.82210 0.09790 0.23310 0.11300
H 	H 	0.91090 0.03710 0.08660 0.11000
H 	H 	0.88870 0.93620 0.11790 0.01700
H 	H 	0.88060 0.89910 0.27550 -0.00200
H 	H 	0.87810 0.66050 0.05710 0.03500
H 	H 	0.90460 0.63970 0.89240 0.02700
H 	H 	0.88190 0.74710 0.87970 0.07600
H 	H 	0.87200 0.81340 0.95950 0.03700
H 	H 	0.96130 0.61360 0.31540 0.03800
H 	H 	0.72540 0.71080 0.28620 0.04300
H 	H 	0.88370 0.55590 0.38430 0.07200
H 	H 	0.72640 0.57260 0.40010 0.03500
H 	H 	0.37170 0.93690 0.37810 0.01000
H 	H 	0.38830 0.92840 0.28150 0.09300
H 	H 	0.39290 0.02000 0.22910 0.01900
H 	H 	0.38190 0.11800 0.27210 0.08300
H 	H 	0.36480 0.20900 0.32370 0.09100
H 	H 	0.35930 0.27360 0.48010 0.09500
H 	H 	0.37330 0.24070 0.57490 0.08300
H 	H 	0.38650 0.19650 0.66080 0.02400
H 	H 	0.37380 0.08790 0.67050 0.10000
H 	H 	0.36190 0.02870 0.59640 0.00400
H 	H 	0.31870 0.30170 0.29990 0.01500
H 	H 	0.41110 0.36260 0.44590 0.01400
H 	H 	0.32210 0.40210 0.26690 0.11300
H 	H 	0.41090 0.46290 0.41340 0.11000
H 	H 	0.38870 0.56380 0.38210 0.01700
H 	H 	0.38060 0.60090 0.22450 -0.00200
H 	H 	0.37810 0.83950 0.44290 0.03500
H 	H 	0.40460 0.86030 0.60760 0.02700
H 	H 	0.38190 0.75290 0.62030 0.07600
H 	H 	0.37200 0.68660 0.54050 0.03700
H 	H 	0.46130 0.88640 0.18460 0.03900
H 	H 	0.22540 0.78920 0.21380 0.04300
H 	H 	0.38370 0.94410 0.11570 0.07200
H 	H 	0.22640 0.92740 0.09990 0.03500
C 	C 	0.87370 0.52660 0.14350 0.07500
C 	C 	0.88360 0.53220 0.20150 -0.12700
C 	C 	0.88630 0.47760 0.23250 0.05700
C 	C 	0.87910 0.41890 0.20700 -0.12300
C 	C 	0.86780 0.41680 0.15040 0.05600
C 	C 	0.86470 0.35950 0.11710 0.07900
C 	C 	0.86410 0.29750 0.13800 -0.15700
C 	C 	0.86240 0.24580 0.10260 0.12200
C 	C 	0.86140 0.25940 0.04540 -0.15400
C 	C 	0.86350 0.32190 0.02620 0.08500
C 	C 	0.86530 0.34270 0.96860 0.05200
C 	C 	0.87260 0.30300 0.92100 -0.12400
C 	C 	0.87850 0.32890 0.87040 0.07600
C 	C 	0.87260 0.39350 0.86460 -0.16400
C 	C 	0.86540 0.42770 0.90860 0.11000
C 	C 	0.86140 0.17980 0.12230 -0.09100
C 	C 	0.83720 0.16570 0.17650 0.06600
C 	C 	0.89120 0.12980 0.09030 0.07600
C 	C 	0.83950 0.10580 0.19650 -0.18700
C 	C 	0.89250 0.07000 0.10980 -0.19500
C 	C 	0.86680 0.05800 0.16360 0.18300
C 	C 	0.88480 0.94060 0.15630 0.10100
C 	C 	0.87950 0.92150 0.24220 0.11100
C 	C 	0.90520 0.57110 0.98340 0.34300
C 	C 	0.89190 0.63970 0.97680 -0.12900
C 	C 	0.88130 0.67790 0.02160 0.05000
C 	C 	0.89510 0.66580 0.92300 0.04500
C 	C 	0.88410 0.72990 0.91540 -0.10200
C 	C 	0.87630 0.76980 0.96370 0.03200
C 	C 	0.87510 0.74400 0.01470 -0.09900
C 	C 	0.87170 0.78600 0.06680 0.33600
C 	C 	0.90420 0.71050 0.25310 0.34100
C 	C 	0.85260 0.66960 0.29400 -0.10600
C 	C 	0.89840 0.62200 0.32300 0.02200
C 	C 	0.75750 0.67890 0.30480 0.03300
C 	C 	0.85130 0.58620 0.36390 -0.09800
C 	C 	0.75780 0.59620 0.37320 0.02900
C 	C 	0.70930 0.64130 0.34290 -0.10000
C 	C 	0.60500 0.65250 0.35160 0.32700
C 	C 	0.37370 0.97340 0.35650 0.07500
C 	C 	0.38360 0.96780 0.29850 -0.12700
C 	C 	0.38630 0.02240 0.26750 0.05800
C 	C 	0.37910 0.08110 0.29300 -0.12300
C 	C 	0.36780 0.08320 0.34960 0.05700
C 	C 	0.36470 0.14050 0.38290 0.07900
C 	C 	0.36410 0.20250 0.36200 -0.15700
C 	C 	0.36240 0.25420 0.39740 0.12300
C 	C 	0.36140 0.24060 0.45460 -0.15500
C 	C 	0.36350 0.17810 0.47380 0.08600
C 	C 	0.36530 0.15730 0.53140 0.05100
C 	C 	0.37260 0.19700 0.57900 -0.12400
C 	C 	0.37850 0.17110 0.62960 0.07500
C 	C 	0.37260 0.10650 0.63540 -0.16400
C 	C 	0.36540 0.07230 0.59140 0.11000
C 	C 	0.36140 0.32020 0.37770 -0.09200
C 	C 	0.33720 0.33430 0.32350 0.06700
C 	C 	0.39120 0.37020 0.40970 0.07700
C 	C 	0.33950 0.39420 0.30350 -0.18700
C 	C 	0.39250 0.43000 0.39020 -0.19500
C 	C 	0.36680 0.44200 0.33640 0.18400
C 	C 	0.38480 0.55940 0.34370 0.10100
C 	C 	0.37950 0.57850 0.25780 0.11100
C 	C 	0.40520 0.92890 0.51660 0.34300
C 	C 	0.39190 0.86030 0.52320 -0.12900
C 	C 	0.38130 0.82210 0.47840 0.05100
C 	C 	0.39510 0.83420 0.57700 0.04500
C 	C 	0.38410 0.77010 0.58460 -0.10200
C 	C 	0.37630 0.73020 0.53630 0.03000
C 	C 	0.37510 0.75600 0.48530 -0.09900
C 	C 	0.37170 0.71400 0.43320 0.33600
C 	C 	0.40420 0.78950 0.24690 0.34000
C 	C 	0.35260 0.83040 0.20600 -0.10600
C 	C 	0.39840 0.87800 0.17700 0.02200
C 	C 	0.25750 0.82110 0.19520 0.03300
C 	C 	0.35130 0.91380 0.13610 -0.09800
C 	C 	0.25780 0.90380 0.12680 0.02900
C 	C 	0.20930 0.85870 0.15710 -0.10000
C 	C 	0.10500 0.84750 0.14840 0.32700
N 	N 	0.86680 0.46950 0.11810 -0.21100
N 	N 	0.86250 0.36830 0.06230 -0.23000
N 	N 	0.86250 0.40620 0.96160 -0.21700
N 	N 	0.87300 0.99510 0.18430 -0.12300
N 	N 	0.86730 0.98270 0.24020 -0.09500
N 	N 	0.89000 0.89420 0.19370 -0.21900
N 	N 	0.36680 0.03050 0.38190 -0.21000
N 	N 	0.36250 0.13170 0.43770 -0.23000
N 	N 	0.36250 0.09380 0.53840 -0.21700
N 	N 	0.37300 0.50490 0.31570 -0.12300
N 	N 	0.36730 0.51730 0.25980 -0.09500
N 	N 	0.39000 0.60580 0.30630 -0.21900
O 	O 	0.85020 0.54200 0.01670 -0.43000
O 	O 	0.96510 0.54360 0.95260 -0.35600
O 	O 	0.89050 0.75870 0.11200 -0.39400
O 	O 	0.85180 0.84290 0.06150 -0.27300
O 	O 	0.86730 0.76240 0.24140 -0.39600
O 	O 	0.97140 0.68700 0.22870 -0.29700
O 	O 	0.56580 0.68620 0.31410 -0.38600
O 	O 	0.56490 0.62930 0.39120 -0.29000
O 	O 	0.35020 0.95800 0.48330 -0.42900
O 	O 	0.46510 0.95640 0.54740 -0.35600
O 	O 	0.39050 0.74130 0.38800 -0.39300
O 	O 	0.35180 0.65710 0.43850 -0.27200
O 	O 	0.36730 0.73760 0.25860 -0.39600
O 	O 	0.47140 0.81300 0.27130 -0.29700
O 	O 	0.06580 0.81380 0.18590 -0.38600
O 	O 	0.06490 0.87070 0.10880 -0.29000
Cu	Cu	0.63017 0.54575 0.03524 0.90300
Cu	Cu	0.57042 0.19788 0.17785 0.92800
Cu	Cu	0.13017 0.95425 0.46476 0.90300
Cu	Cu	0.07042 0.30212 0.32215 0.92800
H 	H 	0.62830 0.43690 0.12190 0.01000
H 	H 	0.61170 0.42840 0.21850 0.09300
H 	H 	0.60710 0.52000 0.27090 0.01900
H 	H 	0.61810 0.61800 0.22790 0.08300
H 	H 	0.63520 0.70900 0.17630 0.09100
H 	H 	0.64070 0.77360 0.01990 0.09500
H 	H 	0.62670 0.74070 0.92510 0.08300
H 	H 	0.61350 0.69650 0.83920 0.02400
H 	H 	0.62620 0.58790 0.82950 0.10000
H 	H 	0.63810 0.52870 0.90360 0.00400
H 	H 	0.68130 0.80170 0.20010 0.01500
H 	H 	0.58890 0.86260 0.05410 0.01400
H 	H 	0.67790 0.90210 0.23310 0.11300
H 	H 	0.58910 0.96290 0.08660 0.11000
H 	H 	0.61130 0.06380 0.11790 0.01700
H 	H 	0.61940 0.10090 0.27550 -0.00200
H 	H 	0.62190 0.33950 0.05710 0.03500
H 	H 	0.59540 0.36030 0.89240 0.02700
H 	H 	0.61810 0.25290 0.87970 0.07600
H 	H 	0.62800 0.18660 0.95950 0.03700
H 	H 	0.53870 0.38640 0.31540 0.03900
H 	H 	0.77460 0.28920 0.28620 0.04300
H 	H 	0.61630 0.44410 0.38430 0.07200
H 	H 	0.77360 0.42740 0.40010 0.03500
H 	H 	0.12830 0.06310 0.37810 0.01000
H 	H 	0.11170 0.07160 0.28150 0.09200
H 	H 	0.10710 0.98000 0.22910 0.02000
H 	H 	0.11810 0.88200 0.27210 0.08200
H 	H 	0.13520 0.79100 0.32370 0.09100
H 	H 	0.14070 0.72640 0.48010 0.09500
H 	H 	0.12670 0.75930 0.57490 0.08300
H 	H 	0.11350 0.80350 0.66080 0.02400
H 	H 	0.12620 0.91210 0.67050 0.10000
H 	H 	0.13810 0.97130 0.59640 0.00400
H 	H 	0.18130 0.69830 0.29990 0.01500
H 	H 	0.08890 0.63740 0.44590 0.01400
H 	H 	0.17790 0.59790 0.26690 0.11300
H 	H 	0.08910 0.53710 0.41340 0.11000
H 	H 	0.11130 0.43620 0.38210 0.01700
H 	H 	0.11940 0.39910 0.22450 -0.00200
H 	H 	0.12190 0.16050 0.44290 0.03500
H 	H 	0.09540 0.13970 0.60760 0.02700
H 	H 	0.11810 0.24710 0.62030 0.07600
H 	H 	0.12800 0.31340 0.54050 0.03700
H 	H 	0.03870 0.11360 0.18460 0.03900
H 	H 	0.27460 0.21080 0.21380 0.04300
H 	H 	0.11630 0.05590 0.11570 0.07200
H 	H 	0.27360 0.07260 0.09990 0.03500
C 	C 	0.62630 0.47340 0.14350 0.07500
C 	C 	0.61640 0.46780 0.20150 -0.12700
C 	C 	0.61370 0.52240 0.23250 0.05700
C 	C 	0.62090 0.58110 0.20700 -0.12300
C 	C 	0.63220 0.58320 0.15040 0.05600
C 	C 	0.63530 0.64050 0.11710 0.07900
C 	C 	0.63590 0.70250 0.13800 -0.15700
C 	C 	0.63760 0.75420 0.10260 0.12200
C 	C 	0.63860 0.74060 0.04540 -0.15400
C 	C 	0.63650 0.67810 0.02620 0.08600
C 	C 	0.63470 0.65730 0.96860 0.05100
C 	C 	0.62740 0.69700 0.92100 -0.12400
C 	C 	0.62150 0.67110 0.87040 0.07500
C 	C 	0.62740 0.60650 0.86460 -0.16400
C 	C 	0.63460 0.57230 0.90860 0.11000
C 	C 	0.63860 0.82020 0.12230 -0.09200
C 	C 	0.66280 0.83430 0.17650 0.06700
C 	C 	0.60880 0.87020 0.09030 0.07700
C 	C 	0.66050 0.89420 0.19650 -0.18700
C 	C 	0.60750 0.93000 0.10980 -0.19500
C 	C 	0.63320 0.94200 0.16360 0.18400
C 	C 	0.61520 0.05940 0.15630 0.10100
C 	C 	0.62050 0.07850 0.24220 0.11100
C 	C 	0.59480 0.42890 0.98340 0.34300
C 	C 	0.60810 0.36030 0.97680 -0.12900
C 	C 	0.61870 0.32210 0.02160 0.05000
C 	C 	0.60490 0.33420 0.92300 0.04500
C 	C 	0.61590 0.27010 0.91540 -0.10200
C 	C 	0.62370 0.23020 0.96370 0.03100
C 	C 	0.62490 0.25600 0.01470 -0.09900
C 	C 	0.62830 0.21400 0.06680 0.33600
C 	C 	0.59580 0.28950 0.25310 0.34000
C 	C 	0.64740 0.33040 0.29400 -0.10600
C 	C 	0.60160 0.37800 0.32300 0.02200
C 	C 	0.74250 0.32110 0.30480 0.03300
C 	C 	0.64870 0.41380 0.36390 -0.09800
C 	C 	0.74220 0.40380 0.37320 0.02900
C 	C 	0.79070 0.35870 0.34290 -0.10100
C 	C 	0.89500 0.34750 0.35160 0.32700
C 	C 	0.12630 0.02660 0.35650 0.07500
C 	C 	0.11640 0.03220 0.29850 -0.12700
C 	C 	0.11370 0.97760 0.26750 0.05700
C 	C 	0.12090 0.91890 0.29300 -0.12300
C 	C 	0.13220 0.91680 0.34960 0.05600
C 	C 	0.13530 0.85950 0.38290 0.07900
C 	C 	0.13590 0.79750 0.36200 -0.15700
C 	C 	0.13760 0.74580 0.39740 0.12300
C 	C 	0.13860 0.75940 0.45460 -0.15500
C 	C 	0.13650 0.82190 0.47380 0.08600
C 	C 	0.13470 0.84270 0.53140 0.05100
C 	C 	0.12740 0.80300 0.57900 -0.12400
C 	C 	0.12150 0.82890 0.62960 0.07500
C 	C 	0.12740 0.89350 0.63540 -0.16400
C 	C 	0.13460 0.92770 0.59140 0.11000
C 	C 	0.13860 0.67980 0.37770 -0.09200
C 	C 	0.16280 0.66570 0.32350 0.06700
C 	C 	0.10880 0.62980 0.40970 0.07700
C 	C 	0.16050 0.60580 0.30350 -0.18700
C 	C 	0.10750 0.57000 0.39020 -0.19500
C 	C 	0.13320 0.55800 0.33640 0.18400
C 	C 	0.11520 0.44060 0.34370 0.10100
C 	C 	0.12050 0.42150 0.25780 0.11100
C 	C 	0.09480 0.07110 0.51660 0.34300
C 	C 	0.10810 0.13970 0.52320 -0.12900
C 	C 	0.11870 0.17790 0.47840 0.05100
C 	C 	0.10490 0.16580 0.57700 0.04500
C 	C 	0.11590 0.22990 0.58460 -0.10200
C 	C 	0.12370 0.26980 0.53630 0.03000
C 	C 	0.12490 0.24400 0.48530 -0.09900
C 	C 	0.12830 0.28600 0.43320 0.33600
C 	C 	0.09580 0.21050 0.24690 0.34000
C 	C 	0.14740 0.16960 0.20600 -0.10600
C 	C 	0.10160 0.12200 0.17700 0.02200
C 	C 	0.24250 0.17890 0.19520 0.03300
C 	C 	0.14870 0.08620 0.13610 -0.09800
C 	C 	0.24220 0.09620 0.12680 0.02900
C 	C 	0.29070 0.14130 0.15710 -0.10000
C 	C 	0.39500 0.15250 0.14840 0.32700
N 	N 	0.63320 0.53050 0.11810 -0.21100
N 	N 	0.63750 0.63170 0.06230 -0.23000
N 	N 	0.63750 0.59380 0.96160 -0.21700
N 	N 	0.62700 0.00490 0.18430 -0.12300
N 	N 	0.63270 0.01730 0.24020 -0.09500
N 	N 	0.61000 0.10580 0.19370 -0.21900
N 	N 	0.13320 0.96950 0.38190 -0.21100
N 	N 	0.13750 0.86830 0.43770 -0.23000
N 	N 	0.13750 0.90620 0.53840 -0.21700
N 	N 	0.12700 0.49510 0.31570 -0.12300
N 	N 	0.13270 0.48270 0.25980 -0.09500
N 	N 	0.11000 0.39420 0.30630 -0.21900
O 	O 	0.64980 0.45800 0.01670 -0.42900
O 	O 	0.53490 0.45640 0.95260 -0.35600
O 	O 	0.60950 0.24130 0.11200 -0.39300
O 	O 	0.64820 0.15710 0.06150 -0.27200
O 	O 	0.63270 0.23760 0.24140 -0.39600
O 	O 	0.52860 0.31300 0.22870 -0.29700
O 	O 	0.93420 0.31380 0.31410 -0.38700
O 	O 	0.93510 0.37070 0.39120 -0.29000
O 	O 	0.14980 0.04200 0.48330 -0.42900
O 	O 	0.03490 0.04360 0.54740 -0.35600
O 	O 	0.10950 0.25870 0.38800 -0.39300
O 	O 	0.14820 0.34290 0.43850 -0.27200
O 	O 	0.13270 0.26240 0.25860 -0.39500
O 	O 	0.02860 0.18700 0.27130 -0.29700
O 	O 	0.43420 0.18620 0.18590 -0.38600
O 	O 	0.43510 0.12930 0.10880 -0.29000
Cu	Cu	0.13017 0.54575 0.96476 0.90300
Cu	Cu	0.07042 0.19788 0.82215 0.92800
Cu	Cu	0.63017 0.95425 0.53524 0.90300
Cu	Cu	0.57042 0.30212 0.67785 0.92800
H 	H 	0.12830 0.43690 0.87810 0.01000
H 	H 	0.11170 0.42840 0.78150 0.09300
H 	H 	0.10710 0.52000 0.72910 0.01900
H 	H 	0.11810 0.61800 0.77210 0.08300
H 	H 	0.13520 0.70900 0.82370 0.09100
H 	H 	0.14070 0.77360 0.98010 0.09400
H 	H 	0.12670 0.74070 0.07490 0.08300
H 	H 	0.11350 0.69650 0.16080 0.02400
H 	H 	0.12620 0.58790 0.17050 0.10000
H 	H 	0.13810 0.52870 0.09640 0.00400
H 	H 	0.18130 0.80170 0.79990 0.01500
H 	H 	0.08890 0.86260 0.94590 0.01400
H 	H 	0.17790 0.90210 0.76690 0.11300
H 	H 	0.08910 0.96290 0.91340 0.11000
H 	H 	0.11130 0.06380 0.88210 0.01700
H 	H 	0.11940 0.10090 0.72450 -0.00200
H 	H 	0.12190 0.33950 0.94290 0.03500
H 	H 	0.09540 0.36030 0.10760 0.02700
H 	H 	0.11810 0.25290 0.12030 0.07600
H 	H 	0.12800 0.18660 0.04050 0.03700
H 	H 	0.03870 0.38640 0.68460 0.03800
H 	H 	0.27460 0.28920 0.71380 0.04300
H 	H 	0.11630 0.44410 0.61570 0.07200
H 	H 	0.27360 0.42740 0.59990 0.03500
H 	H 	0.62830 0.06310 0.62190 0.01000
H 	H 	0.61170 0.07160 0.71850 0.09300
H 	H 	0.60710 0.98000 0.77090 0.01900
H 	H 	0.61810 0.88200 0.72790 0.08300
H 	H 	0.63520 0.79100 0.67630 0.09100
H 	H 	0.64070 0.72640 0.51990 0.09500
H 	H 	0.62670 0.75930 0.42510 0.08300
H 	H 	0.61350 0.80350 0.33920 0.02400
H 	H 	0.62620 0.91210 0.32950 0.10000
H 	H 	0.63810 0.97130 0.40360 0.00400
H 	H 	0.68130 0.69830 0.70010 0.01500
H 	H 	0.58890 0.63740 0.55410 0.01400
H 	H 	0.67790 0.59790 0.73310 0.11300
H 	H 	0.58910 0.53710 0.58660 0.11000
H 	H 	0.61130 0.43620 0.61790 0.01700
H 	H 	0.61940 0.39910 0.77550 -0.00200
H 	H 	0.62190 0.16050 0.55710 0.03500
H 	H 	0.59540 0.13970 0.39240 0.02700
H 	H 	0.61810 0.24710 0.37970 0.07600
H 	H 	0.62800 0.31340 0.45950 0.03700
H 	H 	0.53870 0.11360 0.81540 0.03900
H 	H 	0.77460 0.21080 0.78620 0.04300
H 	H 	0.61630 0.05590 0.88430 0.07200
H 	H 	0.77360 0.07260 0.90010 0.03500
C 	C 	0.12630 0.47340 0.85650 0.07500
C 	C 	0.11640 0.46780 0.79850 -0.12700
C 	C 	0.11370 0.52240 0.76750 0.05700
C 	C 	0.12090 0.58110 0.79300 -0.12300
C 	C 	0.13220 0.58320 0.84960 0.05600
C 	C 	0.13530 0.64050 0.88290 0.07900
C 	C 	0.13590 0.70250 0.86200 -0.15700
C 	C 	0.13760 0.75420 0.89740 0.12200
C 	C 	0.13860 0.74060 0.95460 -0.15400
C 	C 	0.13650 0.67810 0.97380 0.08500
C 	C 	0.13470 0.65730 0.03140 0.05200
C 	C 	0.12740 0.69700 0.07900 -0.12400
C 	C 	0.12150 0.67110 0.12960 0.07600
C 	C 	0.12740 0.60650 0.13540 -0.16400
C 	C 	0.13460 0.57230 0.09140 0.11000
C 	C 	0.13860 0.82020 0.87770 -0.09100
C 	C 	0.16280 0.83430 0.82350 0.06600
C 	C 	0.10880 0.87020 0.90970 0.07600
C 	C 	0.16050 0.89420 0.80350 -0.18700
C 	C 	0.10750 0.93000 0.89020 -0.19500
C 	C 	0.13320 0.94200 0.83640 0.18300
C 	C 	0.11520 0.05940 0.84370 0.10100
C 	C 	0.12050 0.07850 0.75780 0.11100
C 	C 	0.09480 0.42890 0.01660 0.34300
C 	C 	0.10810 0.36030 0.02320 -0.12900
C 	C 	0.11870 0.32210 0.97840 0.05000
C 	C 	0.10490 0.33420 0.07700 0.04500
C 	C 	0.11590 0.27010 0.08460 -0.10200
C 	C 	0.12370 0.23020 0.03630 0.03200
C 	C 	0.12490 0.25600 0.98530 -0.09900
C 	C 	0.12830 0.21400 0.93320 0.33600
C 	C 	0.09580 0.28950 0.74690 0.34100
C 	C 	0.14740 0.33040 0.70600 -0.10600
C 	C 	0.10160 0.37800 0.67700 0.02200
C 	C 	0.24250 0.32110 0.69520 0.03300
C 	C 	0.14870 0.41380 0.63610 -0.09800
C 	C 	0.24220 0.40380 0.62680 0.02900
C 	C 	0.29070 0.35870 0.65710 -0.10000
C 	C 	0.39500 0.34750 0.64840 0.32700
C 	C 	0.62630 0.02660 0.64350 0.07500
C 	C 	0.61640 0.03220 0.70150 -0.12700
C 	C 	0.61370 0.97760 0.73250 0.05800
C 	C 	0.62090 0.91890 0.70700 -0.12300
C 	C 	0.63220 0.91680 0.65040 0.05700
C 	C 	0.63530 0.85950 0.61710 0.07900
C 	C 	0.63590 0.79750 0.63800 -0.15700
C 	C 	0.63760 0.74580 0.60260 0.12300
C 	C 	0.63860 0.75940 0.54540 -0.15500
C 	C 	0.63650 0.82190 0.52620 0.08600
C 	C 	0.63470 0.84270 0.46860 0.05100
C 	C 	0.62740 0.80300 0.42100 -0.12400
C 	C 	0.62150 0.82890 0.37040 0.07500
C 	C 	0.62740 0.89350 0.36460 -0.16400
C 	C 	0.63460 0.92770 0.40860 0.11000
C 	C 	0.63860 0.67980 0.62230 -0.09200
C 	C 	0.66280 0.66570 0.67650 0.06700
C 	C 	0.60880 0.62980 0.59030 0.07700
C 	C 	0.66050 0.60580 0.69650 -0.18700
C 	C 	0.60750 0.57000 0.60980 -0.19500
C 	C 	0.63320 0.55800 0.66360 0.18400
C 	C 	0.61520 0.44060 0.65630 0.10100
C 	C 	0.62050 0.42150 0.74220 0.11100
C 	C 	0.59480 0.07110 0.48340 0.34300
C 	C 	0.60810 0.13970 0.47680 -0.12900
C 	C 	0.61870 0.17790 0.52160 0.05100
C 	C 	0.60490 0.16580 0.42300 0.04500
C 	C 	0.61590 0.22990 0.41540 -0.10200
C 	C 	0.62370 0.26980 0.46370 0.03000
C 	C 	0.62490 0.24400 0.51470 -0.09900
C 	C 	0.62830 0.28600 0.56680 0.33600
C 	C 	0.59580 0.21050 0.75310 0.34000
C 	C 	0.64740 0.16960 0.79400 -0.10600
C 	C 	0.60160 0.12200 0.82300 0.02200
C 	C 	0.74250 0.17890 0.80480 0.03300
C 	C 	0.64870 0.08620 0.86390 -0.09800
C 	C 	0.74220 0.09620 0.87320 0.02900
C 	C 	0.79070 0.14130 0.84290 -0.10000
C 	C 	0.89500 0.15250 0.85160 0.32700
N 	N 	0.13320 0.53050 0.88190 -0.21100
N 	N 	0.13750 0.63170 0.93770 -0.23000
N 	N 	0.13750 0.59380 0.03840 -0.21700
N 	N 	0.12700 0.00490 0.81570 -0.12300
N 	N 	0.13270 0.01730 0.75980 -0.09500
N 	N 	0.11000 0.10580 0.80630 -0.21900
N 	N 	0.63320 0.96950 0.61810 -0.21000
N 	N 	0.63750 0.86830 0.56230 -0.23000
N 	N 	0.63750 0.90620 0.46160 -0.21700
N 	N 	0.62700 0.49510 0.68430 -0.12300
N 	N 	0.63270 0.48270 0.74020 -0.09500
N 	N 	0.61000 0.39420 0.69370 -0.21900
O 	O 	0.14980 0.45800 0.98330 -0.43000
O 	O 	0.03490 0.45640 0.04740 -0.35600
O 	O 	0.10950 0.24130 0.88800 -0.39400
O 	O 	0.14820 0.15710 0.93850 -0.27300
O 	O 	0.13270 0.23760 0.75860 -0.39600
O 	O 	0.02860 0.31300 0.77130 -0.29700
O 	O 	0.43420 0.31380 0.68590 -0.38600
O 	O 	0.43510 0.37070 0.60880 -0.29000
O 	O 	0.64980 0.04200 0.51670 -0.42900
O 	O 	0.53490 0.04360 0.45260 -0.35600
O 	O 	0.60950 0.25870 0.61200 -0.39300
O 	O 	0.64820 0.34290 0.56150 -0.27200
O 	O 	0.63270 0.26240 0.74140 -0.39600
O 	O 	0.52860 0.18700 0.72870 -0.29700
O 	O 	0.93420 0.18620 0.81410 -0.38600
O 	O 	0.93510 0.12930 0.89120 -0.29000
Cu	Cu	0.36983 0.45425 0.96476 0.90300
Cu	Cu	0.42958 0.80212 0.82215 0.92800
Cu	Cu	0.86983 0.04575 0.53524 0.90300
Cu	Cu	0.92958 0.69788 0.67785 0.92800
H 	H 	0.37170 0.56310 0.87810 0.01000
H 	H 	0.38830 0.57160 0.78150 0.09300
H 	H 	0.39290 0.48000 0.72910 0.01900
H 	H 	0.38190 0.38200 0.77210 0.08300
H 	H 	0.36480 0.29100 0.82370 0.09100
H 	H 	0.35930 0.22640 0.98010 0.09500
H 	H 	0.37330 0.25930 0.07490 0.08300
H 	H 	0.38650 0.30350 0.16080 0.02400
H 	H 	0.37380 0.41210 0.17050 0.10000
H 	H 	0.36190 0.47130 0.09640 0.00400
H 	H 	0.31870 0.19830 0.79990 0.01500
H 	H 	0.41110 0.13740 0.94590 0.01400
H 	H 	0.32210 0.09790 0.76690 0.11300
H 	H 	0.41090 0.03710 0.91340 0.11000
H 	H 	0.38870 0.93620 0.88210 0.01700
H 	H 	0.38060 0.89910 0.72450 -0.00200
H 	H 	0.37810 0.66050 0.94290 0.03500
H 	H 	0.40460 0.63970 0.10760 0.02700
H 	H 	0.38190 0.74710 0.12030 0.07600
H 	H 	0.37200 0.81340 0.04050 0.03700
H 	H 	0.46130 0.61360 0.68460 0.03900
H 	H 	0.22540 0.71080 0.71380 0.04300
H 	H 	0.38370 0.55590 0.61570 0.07200
H 	H 	0.22640 0.57260 0.59990 0.03500
H 	H 	0.87170 0.93690 0.62190 0.01000
H 	H 	0.88830 0.92840 0.71850 0.09200
H 	H 	0.89290 0.02000 0.77090 0.02000
H 	H 	0.88190 0.11800 0.72790 0.08200
H 	H 	0.86480 0.20900 0.67630 0.09100
H 	H 	0.85930 0.27360 0.51990 0.09500
H 	H 	0.87330 0.24070 0.42510 0.08300
H 	H 	0.88650 0.19650 0.33920 0.02400
H 	H 	0.87380 0.08790 0.32950 0.10000
H 	H 	0.86190 0.02870 0.40360 0.00400
H 	H 	0.81870 0.30170 0.70010 0.01500
H 	H 	0.91110 0.36260 0.55410 0.01400
H 	H 	0.82210 0.40210 0.73310 0.11300
H 	H 	0.91090 0.46290 0.58660 0.11000
H 	H 	0.88870 0.56380 0.61790 0.01700
H 	H 	0.88060 0.60090 0.77550 -0.00200
H 	H 	0.87810 0.83950 0.55710 0.03500
H 	H 	0.90460 0.86030 0.39240 0.02700
H 	H 	0.88190 0.75290 0.37970 0.07600
H 	H 	0.87200 0.68660 0.45950 0.03700
H 	H 	0.96130 0.88640 0.81540 0.03900
H 	H 	0.72540 0.78920 0.78620 0.04300
H 	H 	0.88370 0.94410 0.88430 0.07200
H 	H 	0.72640 0.92740 0.90010 0.03500
C 	C 	0.37370 0.52660 0.85650 0.07500
C 	C 	0.38360 0.53220 0.79850 -0.12700
C 	C 	0.38630 0.47760 0.76750 0.05700
C 	C 	0.37910 0.41890 0.79300 -0.12300
C 	C 	0.36780 0.41680 0.84960 0.05600
C 	C 	0.36470 0.35950 0.88290 0.07900
C 	C 	0.36410 0.29750 0.86200 -0.15700
C 	C 	0.36240 0.24580 0.89740 0.12200
C 	C 	0.36140 0.25940 0.95460 -0.15400
C 	C 	0.36350 0.32190 0.97380 0.08600
C 	C 	0.36530 0.34270 0.03140 0.05100
C 	C 	0.37260 0.30300 0.07900 -0.12400
C 	C 	0.37850 0.32890 0.12960 0.07500
C 	C 	0.37260 0.39350 0.13540 -0.16400
C 	C 	0.36540 0.42770 0.09140 0.11000
C 	C 	0.36140 0.17980 0.87770 -0.09200
C 	C 	0.33720 0.16570 0.82350 0.06700
C 	C 	0.39120 0.12980 0.90970 0.07700
C 	C 	0.33950 0.10580 0.80350 -0.18700
C 	C 	0.39250 0.07000 0.89020 -0.19500
C 	C 	0.36680 0.05800 0.83640 0.18400
C 	C 	0.38480 0.94060 0.84370 0.10100
C 	C 	0.37950 0.92150 0.75780 0.11100
C 	C 	0.40520 0.57110 0.01660 0.34300
C 	C 	0.39190 0.63970 0.02320 -0.12900
C 	C 	0.38130 0.67790 0.97840 0.05000
C 	C 	0.39510 0.66580 0.07700 0.04500
C 	C 	0.38410 0.72990 0.08460 -0.10200
C 	C 	0.37630 0.76980 0.03630 0.03100
C 	C 	0.37510 0.74400 0.98530 -0.09900
C 	C 	0.37170 0.78600 0.93320 0.33600
C 	C 	0.40420 0.71050 0.74690 0.34000
C 	C 	0.35260 0.66960 0.70600 -0.10600
C 	C 	0.39840 0.62200 0.67700 0.02200
C 	C 	0.25750 0.67890 0.69520 0.03300
C 	C 	0.35130 0.58620 0.63610 -0.09800
C 	C 	0.25780 0.59620 0.62680 0.02900
C 	C 	0.20930 0.64130 0.65710 -0.10100
C 	C 	0.10500 0.65250 0.64840 0.32700
C 	C 	0.87370 0.97340 0.64350 0.07500
C 	C 	0.88360 0.96780 0.70150 -0.12700
C 	C 	0.88630 0.02240 0.73250 0.05700
C 	C 	0.87910 0.08110 0.70700 -0.12300
C 	C 	0.86780 0.08320 0.65040 0.05600
C 	C 	0.86470 0.14050 0.61710 0.07900
C 	C 	0.86410 0.20250 0.63800 -0.15700
C 	C 	0.86240 0.25420 0.60260 0.12300
C 	C 	0.86140 0.24060 0.54540 -0.15500
C 	C 	0.86350 0.17810 0.52620 0.08600
C 	C 	0.86530 0.15730 0.46860 0.05100
C 	C 	0.87260 0.19700 0.42100 -0.12400
C 	C 	0.87850 0.17110 0.37040 0.07500
C 	C 	0.87260 0.10650 0.36460 -0.16400
C 	C 	0.86540 0.07230 0.40860 0.11000
C 	C 	0.86140 0.32020 0.62230 -0.09200
C 	C 	0.83720 0.33430 0.67650 0.06700
C 	C 	0.89120 0.37020 0.59030 0.07700
C 	C 	0.83950 0.39420 0.69650 -0.18700
C 	C 	0.89250 0.43000 0.60980 -0.19500
C 	C 	0.86680 0.44200 0.66360 0.18400
C 	C 	0.88480 0.55940 0.65630 0.10100
C 	C 	0.87950 0.57850 0.74220 0.11100
C 	C 	0.90520 0.92890 0.48340 0.34300
C 	C 	0.89190 0.86030 0.47680 -0.12900
C 	C 	0.88130 0.82210 0.52160 0.05100
C 	C 	0.89510 0.83420 0.42300 0.04500
C 	C 	0.88410 0.77010 0.41540 -0.10200
C 	C 	0.87630 0.73020 0.46370 0.03000
C 	C 	0.87510 0.75600 0.51470 -0.09900
C 	C 	0.87170 0.71400 0.56680 0.33600
C 	C 	0.90420 0.78950 0.75310 0.34000
C 	C 	0.85260 0.83040 0.79400 -0.10600
C 	C 	0.89840 0.87800 0.82300 0.02200
C 	C 	0.75750 0.82110 0.80480 0.03300
C 	C 	0.85130 0.91380 0.86390 -0.09800
C 	C 	0.75780 0.90380 0.87320 0.02900
C 	C 	0.70930 0.85870 0.84290 -0.10000
C 	C 	0.60500 0.84750 0.85160 0.32700
N 	N 	0.36680 0.46950 0.88190 -0.21100
N 	N 	0.36250 0.36830 0.93770 -0.23000
N 	N 	0.36250 0.40620 0.03840 -0.21700
N 	N 	0.37300 0.99510 0.81570 -0.12300
N 	N 	0.36730 0.98270 0.75980 -0.09500
N 	N 	0.39000 0.89420 0.80630 -0.21900
N 	N 	0.86680 0.03050 0.61810 -0.21100
N 	N 	0.86250 0.13170 0.56230 -0.23000
N 	N 	0.86250 0.09380 0.46160 -0.21700
N 	N 	0.87300 0.50490 0.68430 -0.12300
N 	N 	0.86730 0.51730 0.74020 -0.09500
N 	N 	0.89000 0.60580 0.69370 -0.21900
O 	O 	0.35020 0.54200 0.98330 -0.42900
O 	O 	0.46510 0.54360 0.04740 -0.35600
O 	O 	0.39050 0.75870 0.88800 -0.39300
O 	O 	0.35180 0.84290 0.93850 -0.27200
O 	O 	0.36730 0.76240 0.75860 -0.39600
O 	O 	0.47140 0.68700 0.77130 -0.29700
O 	O 	0.06580 0.68620 0.68590 -0.38700
O 	O 	0.06490 0.62930 0.60880 -0.29000
O 	O 	0.85020 0.95800 0.51670 -0.42900
O 	O 	0.96510 0.95640 0.45260 -0.35600
O 	O 	0.89050 0.74130 0.61200 -0.39300
O 	O 	0.85180 0.65710 0.56150 -0.27200
O 	O 	0.86730 0.73760 0.74140 -0.39500
O 	O 	0.97140 0.81300 0.72870 -0.29700
O 	O 	0.56580 0.81380 0.81410 -0.38600
O 	O 	0.56490 0.87070 0.89120 -0.29000
