data_crystal

_cell_length_a 9.12380
_cell_length_b 9.62010
_cell_length_c 12.64750
_cell_angle_alpha 94.47500
_cell_angle_beta  104.72200
_cell_angle_gamma 114.43700

_symmetry_space_group_name_	'P 1'
_symmetry_space_group_name_H-M	'P 1'

loop_
_symmetry_equiv_pos_as_xyz
  x,y,z

loop_
_atom_site_label
_atom_site_type_symbol
_atom_site_fract_x
_atom_site_fract_y
_atom_site_fract_z
_atom_site_charge
Co	Co	0.87208 0.51391 0.70196 1.18700
Co	Co	0.12792 0.48609 0.29804 1.14900
Co	Co	0.50000 0.50000 0.50000 1.20200
Co	Co	0.00000 0.00000 0.50000 1.02600
H 	H 	0.36230 0.87510 0.59780 0.07800
H 	H 	0.72730 0.88170 0.81650 0.10400
H 	H 	0.51300 0.71620 0.86480 0.04700
H 	H 	0.44520 0.58770 0.75540 0.05300
H 	H 	0.39710 0.85830 0.77750 0.08200
H 	H 	0.63670 0.97300 0.67980 0.09900
H 	H 	0.42300 0.13630 0.83480 0.06200
H 	H 	0.99280 0.39410 0.90290 0.00000
H 	H 	0.89480 0.22570 0.01400 0.15300
H 	H 	0.53690 0.30640 0.72910 -0.02000
H 	H 	0.68500 0.03300 0.07100 0.04400
H 	H 	0.63770 0.12490 0.40220 0.05300
H 	H 	0.27270 0.11830 0.18350 0.06100
H 	H 	0.48700 0.28380 0.13520 0.05000
H 	H 	0.55480 0.41230 0.24460 0.07000
H 	H 	0.60290 0.14170 0.22250 0.05200
H 	H 	0.36330 0.02700 0.32020 0.05900
H 	H 	0.57700 0.86370 0.16520 0.10500
H 	H 	0.00720 0.60590 0.09710 -0.02200
H 	H 	0.10520 0.77430 0.98600 0.06500
H 	H 	0.46310 0.69360 0.27090 -0.00300
H 	H 	0.31500 0.96700 0.92900 0.03700
C 	C 	0.67030 0.84870 0.55900 0.36900
C 	C 	0.73950 0.69510 0.74110 0.34500
C 	C 	0.29680 0.64990 0.52440 0.34200
C 	C 	0.39540 0.79370 0.61830 -0.09200
C 	C 	0.65080 0.79330 0.75390 -0.14400
C 	C 	0.48940 0.69850 0.78440 -0.02900
C 	C 	0.36370 0.75800 0.72990 -0.12100
C 	C 	0.18120 0.65580 0.71970 0.32700
C 	C 	0.58100 0.04130 0.00390 -0.13400
C 	C 	0.59190 0.86100 0.65100 -0.11600
C 	C 	0.64470 0.15500 0.93590 0.13200
C 	C 	0.54000 0.18580 0.84970 -0.19600
C 	C 	0.87620 0.34020 0.88870 0.13500
C 	C 	0.81850 0.23850 0.95590 -0.24500
C 	C 	0.60940 0.28910 0.78700 0.09800
C 	C 	0.32970 0.15130 0.44100 0.37100
C 	C 	0.26050 0.30490 0.25890 0.34200
C 	C 	0.70320 0.35010 0.47560 0.34000
C 	C 	0.60460 0.20630 0.38170 -0.09700
C 	C 	0.34920 0.20670 0.24610 -0.13600
C 	C 	0.51060 0.30150 0.21560 -0.05700
C 	C 	0.63630 0.24200 0.27010 -0.09100
C 	C 	0.81880 0.34420 0.28030 0.30300
C 	C 	0.41900 0.95870 0.99610 -0.00700
C 	C 	0.40810 0.13900 0.34900 -0.12600
C 	C 	0.35530 0.84500 0.06410 0.11000
C 	C 	0.46000 0.81420 0.15030 -0.15800
C 	C 	0.12380 0.65980 0.11130 0.08700
C 	C 	0.18150 0.76150 0.04410 -0.13600
C 	C 	0.39060 0.71090 0.21300 0.09900
N 	N 	0.77690 0.36640 0.80520 -0.25400
N 	N 	0.22310 0.63360 0.19480 -0.25000
O 	O 	0.87990 0.72540 0.80780 -0.34200
O 	O 	0.59940 0.72930 0.48140 -0.42500
O 	O 	0.67010 0.57460 0.66120 -0.52200
O 	O 	0.20780 0.65900 0.43470 -0.42600
O 	O 	0.30690 0.52560 0.54320 -0.43000
O 	O 	0.80880 0.96240 0.57030 -0.40400
O 	O 	0.06780 0.68320 0.65790 -0.43500
O 	O 	0.13990 0.54840 0.77230 -0.40800
O 	O 	0.12010 0.27460 0.19220 -0.41500
O 	O 	0.40060 0.27070 0.51860 -0.45300
O 	O 	0.32990 0.42540 0.33880 -0.53000
O 	O 	0.79220 0.34100 0.56530 -0.41200
O 	O 	0.69310 0.47440 0.45680 -0.40300
O 	O 	0.19120 0.03760 0.42970 -0.50700
O 	O 	0.93220 0.31680 0.34210 -0.36600
O 	O 	0.86010 0.45160 0.22770 -0.32600
