data_crystal

_cell_length_a 12.39700
_cell_length_b 15.19470
_cell_length_c 20.95080
_cell_angle_alpha 90.95000
_cell_angle_beta  92.99700
_cell_angle_gamma 96.04900

_symmetry_space_group_name_	'P 1'
_symmetry_space_group_name_H-M	'P 1'

loop_
_symmetry_equiv_pos_as_xyz
  x,y,z

loop_
_atom_site_label
_atom_site_type_symbol
_atom_site_fract_x
_atom_site_fract_y
_atom_site_fract_z
_atom_site_charge
Na	Na	0.75700 0.74680 0.25056 0.56500
P 	P 	0.50502 0.37183 0.15790 0.51700
P 	P 	0.79805 0.22200 0.10682 0.53000
P 	P 	0.56297 0.58756 0.29173 0.53600
P 	P 	0.14188 0.23479 0.10960 0.52200
P 	P 	0.98958 0.13085 0.34428 0.53600
P 	P 	0.67736 0.26175 0.39875 0.53100
P 	P 	0.33706 0.28302 0.39249 0.51700
P 	P 	0.94929 0.91557 0.20587 0.55800
Mo	Mo	0.36236 0.25944 0.03045 1.07900
Mo	Mo	0.91090 0.23815 0.47791 1.09700
Mo	Mo	0.12079 0.24434 0.47359 1.09500
Mo	Mo	0.57046 0.25629 0.02620 1.08100
Mo	Mo	0.24058 0.07174 0.39493 1.08200
Mo	Mo	0.67646 0.56457 0.15285 1.07600
Mo	Mo	0.11837 0.94234 0.33699 1.08400
Mo	Mo	0.39065 0.56830 0.16255 1.08300
Mo	Mo	0.25831 0.44159 0.10757 1.08000
Mo	Mo	0.75197 0.43357 0.09381 1.08600
Mo	Mo	0.83022 0.93212 0.34398 1.17300
Mo	Mo	0.74519 0.05735 0.40196 1.09000
Zn	Zn	0.95967 0.12641 0.19740 1.24800
Zn	Zn	0.51918 0.37671 0.30606 1.24600
O 	O 	0.46280 0.18870 0.07640 -0.46100
O 	O 	0.01240 0.15400 0.50470 -0.53200
O 	O 	0.47580 0.34430 0.99800 -0.51200
O 	O 	0.01440 0.31250 0.42990 -0.46600
O 	O 	0.37700 0.52050 0.07520 -0.54100
O 	O 	0.20590 0.04500 0.30390 -0.47800
O 	O 	0.29590 0.47210 0.19810 -0.47900
O 	O 	0.64830 0.51510 0.06660 -0.54700
O 	O 	0.22810 0.31120 0.41350 -0.35100
O 	O 	0.12770 0.98660 0.42540 -0.52800
O 	O 	0.06440 0.23410 0.05000 -0.26900
O 	O 	0.24890 0.20020 0.09040 -0.35900
O 	O 	0.67620 0.16860 0.37010 -0.37500
O 	O 	0.32180 0.18890 0.36360 -0.37200
O 	O 	0.09780 0.15710 0.38270 -0.41700
O 	O 	0.85190 0.97960 0.43130 -0.49700
O 	O 	0.54070 0.63480 0.13360 -0.45200
O 	O 	0.75150 0.02840 0.31080 -0.47000
O 	O 	0.82430 0.17310 0.16710 -0.39600
O 	O 	0.69860 0.35670 0.01150 -0.45200
O 	O 	0.75110 0.46530 0.18490 -0.47800
O 	O 	0.73640 0.84530 0.35150 -0.46500
O 	O 	0.50900 0.32030 0.22080 -0.38900
O 	O 	0.98560 0.18150 0.28220 -0.39200
O 	O 	0.89650 0.15170 0.38600 -0.41000
O 	O 	0.09360 0.17370 0.15970 -0.40700
O 	O 	0.26340 0.36530 0.02310 -0.45400
O 	O 	0.45370 0.59530 0.25380 -0.40700
O 	O 	0.85730 0.89380 0.25180 -0.44400
O 	O 	0.16750 0.32900 0.13920 -0.37600
O 	O 	0.06050 0.91880 0.24380 -0.41500
O 	O 	0.68080 0.19440 0.08320 -0.37100
O 	O 	0.82050 0.32130 0.12120 -0.38600
O 	O 	0.41630 0.29000 0.45170 -0.24000
O 	O 	0.22840 0.14480 0.48060 -0.41600
O 	O 	0.97860 0.03060 0.32870 -0.45900
O 	O 	0.94370 0.84390 0.15420 -0.28400
O 	O 	0.39430 0.34900 0.12190 -0.40300
O 	O 	0.78740 0.13240 0.48730 -0.43900
O 	O 	0.97260 0.86770 0.36370 -0.41200
O 	O 	0.56470 0.49720 0.32250 -0.43500
O 	O 	0.65680 0.60190 0.24590 -0.47000
O 	O 	0.59580 0.34640 0.11580 -0.40400
O 	O 	0.93550 0.00450 0.17520 -0.44900
O 	O 	0.79240 0.29680 0.42320 -0.35900
O 	O 	0.52290 0.47230 0.17230 -0.44300
O 	O 	0.64040 0.32140 0.34590 -0.39700
O 	O 	0.60290 0.26020 0.45570 -0.24800
O 	O 	0.57680 0.65950 0.34360 -0.25200
O 	O 	0.37830 0.34610 0.34130 -0.40000
O 	O 	0.86730 0.19240 0.05250 -0.24900
Na	Na	0.24300 0.25320 0.74944 0.56300
P 	P 	0.49498 0.62817 0.84210 0.51700
P 	P 	0.20195 0.77800 0.89318 0.52800
P 	P 	0.43703 0.41244 0.70827 0.53500
P 	P 	0.85812 0.76521 0.89040 0.52200
P 	P 	0.01042 0.86915 0.65572 0.51000
P 	P 	0.32264 0.73825 0.60125 0.53100
P 	P 	0.66294 0.71698 0.60751 0.51700
P 	P 	0.05071 0.08443 0.79413 0.50800
Mo	Mo	0.63764 0.74056 0.96955 1.09400
Mo	Mo	0.08910 0.76185 0.52209 1.08000
Mo	Mo	0.87921 0.75566 0.52641 1.09800
Mo	Mo	0.42954 0.74371 0.97380 1.09500
Mo	Mo	0.75942 0.92826 0.60507 1.09400
Mo	Mo	0.32354 0.43543 0.84715 1.07600
Mo	Mo	0.88163 0.05766 0.66301 1.08200
Mo	Mo	0.60935 0.43170 0.83745 1.08600
Mo	Mo	0.74169 0.55841 0.89243 1.08600
Mo	Mo	0.24803 0.56643 0.90619 1.08700
Mo	Mo	0.16978 0.06788 0.65602 1.16100
Mo	Mo	0.25481 0.94265 0.59804 1.10200
Zn	Zn	0.04033 0.87359 0.80260 1.24200
Zn	Zn	0.48082 0.62329 0.69394 1.24600
O 	O 	0.53720 0.81130 0.92360 -0.44700
O 	O 	0.98760 0.84600 0.49530 -0.50800
O 	O 	0.52420 0.65570 0.00200 -0.54500
O 	O 	0.98560 0.68750 0.57010 -0.44400
O 	O 	0.62300 0.47950 0.92480 -0.52800
O 	O 	0.79410 0.95500 0.69610 -0.45400
O 	O 	0.70410 0.52790 0.80190 -0.47400
O 	O 	0.35170 0.48490 0.93340 -0.53500
O 	O 	0.77190 0.68880 0.58650 -0.34800
O 	O 	0.87230 0.01340 0.57460 -0.54000
O 	O 	0.93560 0.76590 0.95000 -0.24100
O 	O 	0.75110 0.79980 0.90960 -0.34700
O 	O 	0.32380 0.83140 0.62990 -0.37100
O 	O 	0.67820 0.81110 0.63640 -0.36900
O 	O 	0.90220 0.84290 0.61730 -0.39100
O 	O 	0.14810 0.02040 0.56870 -0.52500
O 	O 	0.45930 0.36520 0.86640 -0.44800
O 	O 	0.24850 0.97160 0.68920 -0.45100
O 	O 	0.17570 0.82690 0.83290 -0.39500
O 	O 	0.30140 0.64330 0.98850 -0.43700
O 	O 	0.24890 0.53470 0.81510 -0.48100
O 	O 	0.26360 0.15470 0.64850 -0.47100
O 	O 	0.49100 0.67970 0.77920 -0.38700
O 	O 	0.01440 0.81850 0.71780 -0.40200
O 	O 	0.10350 0.84830 0.61400 -0.41100
O 	O 	0.90640 0.82630 0.84030 -0.38400
O 	O 	0.73660 0.63470 0.97690 -0.43400
O 	O 	0.54630 0.40470 0.74620 -0.40600
O 	O 	0.14270 0.10620 0.74820 -0.45000
O 	O 	0.83250 0.67100 0.86080 -0.36700
O 	O 	0.93950 0.08120 0.75620 -0.39300
O 	O 	0.31920 0.80560 0.91680 -0.36200
O 	O 	0.17950 0.67870 0.87880 -0.39100
O 	O 	0.58370 0.71000 0.54830 -0.23800
O 	O 	0.77160 0.85520 0.51940 -0.40900
O 	O 	0.02140 0.96940 0.67130 -0.44800
O 	O 	0.05630 0.15610 0.84580 -0.28700
O 	O 	0.60570 0.65100 0.87810 -0.40100
O 	O 	0.21260 0.86760 0.51270 -0.43700
O 	O 	0.02740 0.13230 0.63630 -0.43200
O 	O 	0.43530 0.50280 0.67750 -0.43500
O 	O 	0.34320 0.39810 0.75410 -0.47200
O 	O 	0.40420 0.65360 0.88420 -0.40200
O 	O 	0.06450 0.99550 0.82480 -0.42300
O 	O 	0.20760 0.70320 0.57680 -0.36600
O 	O 	0.47710 0.52770 0.82770 -0.44200
O 	O 	0.35960 0.67860 0.65410 -0.39800
O 	O 	0.39710 0.73980 0.54430 -0.24700
O 	O 	0.42320 0.34050 0.65640 -0.25400
O 	O 	0.62170 0.65390 0.65870 -0.39800
O 	O 	0.13270 0.80760 0.94750 -0.24800
Na	Na	0.50000 0.50000 -0.00000 0.60600
Na	Na	0.00000 0.00000 0.50000 0.60300
