data_crystal

_cell_length_a 29.84270
_cell_length_b 29.84270
_cell_length_c 29.84270
_cell_angle_alpha 90.00000
_cell_angle_beta  90.00000
_cell_angle_gamma 90.00000

_symmetry_space_group_name_	'P 1'
_symmetry_space_group_name_H-M	'P 1'

loop_
_symmetry_equiv_pos_as_xyz
  x,y,z

loop_
_atom_site_label
_atom_site_type_symbol
_atom_site_fract_x
_atom_site_fract_y
_atom_site_fract_z
_atom_site_charge
Ni	Ni	0.05843 0.31764 0.31764 1.11500
O 	O 	0.08774 0.25458 0.32343 -0.39400
O 	O 	0.03708 0.38376 0.31356 -0.42100
O 	O 	0.03707 0.31320 0.38389 -0.46500
N 	N 	0.12120 0.34400 0.33800 -0.22400
O 	O 	0.08770 0.32330 0.25471 -0.39200
C 	C 	0.08098 0.21877 0.30243 0.37000
C 	C 	0.13610 0.37820 0.31330 0.53700
C 	C 	0.15030 0.32270 0.36360 -0.81900
C 	C 	0.08109 0.30272 0.21897 0.37400
O 	O 	0.04780 0.20983 0.27841 -0.42300
O 	O 	0.04762 0.27835 0.20973 -0.41900
C 	C 	0.11663 0.18271 0.30434 -0.05600
H 	H 	0.11740 0.39080 0.29180 -0.12900
C 	C 	0.17760 0.39470 0.31880 -0.03200
C 	C 	0.18990 0.34180 0.37310 -0.92700
H 	H 	0.14330 0.29450 0.37500 -0.54200
C 	C 	0.11634 0.30413 0.18276 -0.08000
C 	C 	0.15651 0.18895 0.32600 -0.03200
C 	C 	0.11053 0.14283 0.28300 -0.02900
C 	C 	0.03899 0.47670 0.31270 -0.01100
C 	C 	0.03912 0.31210 0.47679 -0.00200
C 	C 	0.20170 0.37930 0.35380 0.44100
C 	C 	0.19480 0.42960 0.28820 0.31900
H 	H 	0.20910 0.32820 0.39350 0.04400
C 	C 	0.15613 0.32660 0.18880 0.00500
C 	C 	0.11062 0.28350 0.14283 -0.00300
H 	H 	0.16190 0.21590 0.34070 0.09000
H 	H 	0.08380 0.13750 0.26790 0.05100
H 	H 	0.06620 0.46150 0.31320 0.05300
H 	H 	0.06630 0.31230 0.46160 0.01600
H 	H 	0.22640 0.39520 0.36410 -0.18900
O 	O 	0.22930 0.45060 0.29910 -0.38800
O 	O 	0.16760 0.44770 0.26180 -0.24600
H 	H 	0.16090 0.34250 0.21520 0.06200
H 	H 	0.08360 0.26910 0.13720 0.04200
N 	N 	0.11880 0.34080 0.34470 0.01500
C 	C 	0.13510 0.31520 0.37830 1.51100
C 	C 	0.17720 0.32080 0.39510 0.20900
C 	C 	0.20100 0.35760 0.38040 0.79400
C 	C 	0.18920 0.37630 0.34130 -0.33900
C 	C 	0.14800 0.36820 0.32310 -0.24700
C 	C 	0.19440 0.29060 0.43250 0.25300
O 	O 	0.22960 0.29900 0.45050 -0.40800
O 	O 	0.17000 0.26180 0.44670 -0.26000
Ni	Ni	0.94157 0.68236 0.31764 1.11900
O 	O 	0.91226 0.74542 0.32343 -0.38900
O 	O 	0.96292 0.61624 0.31356 -0.40200
O 	O 	0.96293 0.68680 0.38389 -0.44500
N 	N 	0.87880 0.65600 0.33800 -0.22100
O 	O 	0.91230 0.67670 0.25471 -0.38800
C 	C 	0.91902 0.78123 0.30243 0.36900
C 	C 	0.86390 0.62180 0.31330 0.53100
C 	C 	0.84970 0.67730 0.36360 -0.80300
C 	C 	0.91891 0.69728 0.21897 0.37200
O 	O 	0.95220 0.79017 0.27841 -0.40400
O 	O 	0.95238 0.72165 0.20973 -0.40100
C 	C 	0.88337 0.81729 0.30434 -0.05000
H 	H 	0.88260 0.60920 0.29180 -0.12500
C 	C 	0.82240 0.60530 0.31880 -0.03300
C 	C 	0.81010 0.65820 0.37310 -0.91300
H 	H 	0.85670 0.70550 0.37500 -0.53200
C 	C 	0.88366 0.69587 0.18276 -0.07300
C 	C 	0.84349 0.81105 0.32600 -0.03100
C 	C 	0.88947 0.85717 0.28300 -0.02700
C 	C 	0.96101 0.52330 0.31270 0.01100
C 	C 	0.96088 0.68790 0.47679 0.02000
C 	C 	0.79830 0.62070 0.35380 0.43600
C 	C 	0.80520 0.57040 0.28820 0.31900
H 	H 	0.79090 0.67180 0.39350 0.04500
C 	C 	0.84387 0.67340 0.18880 0.00300
C 	C 	0.88938 0.71650 0.14283 -0.00500
H 	H 	0.83810 0.78410 0.34070 0.09000
H 	H 	0.91620 0.86250 0.26790 0.06100
H 	H 	0.93380 0.53850 0.31320 0.05000
H 	H 	0.93370 0.68770 0.46160 0.01400
H 	H 	0.77360 0.60480 0.36410 -0.18600
O 	O 	0.77070 0.54940 0.29910 -0.38800
O 	O 	0.83240 0.55230 0.26180 -0.24300
H 	H 	0.83910 0.65750 0.21520 0.06400
H 	H 	0.91640 0.73090 0.13720 0.05100
N 	N 	0.88120 0.65920 0.34470 0.01300
C 	C 	0.86490 0.68480 0.37830 1.48700
C 	C 	0.82280 0.67920 0.39510 0.20400
C 	C 	0.79900 0.64240 0.38040 0.78100
C 	C 	0.81080 0.62370 0.34130 -0.33500
C 	C 	0.85200 0.63180 0.32310 -0.24500
C 	C 	0.80560 0.70940 0.43250 0.25400
O 	O 	0.77040 0.70100 0.45050 -0.40700
O 	O 	0.83000 0.73820 0.44670 -0.25600
Ni	Ni	0.94157 0.31764 0.68236 1.11900
O 	O 	0.91226 0.25458 0.67657 -0.38900
O 	O 	0.96292 0.38376 0.68644 -0.40200
O 	O 	0.96293 0.31320 0.61611 -0.44500
N 	N 	0.87880 0.34400 0.66200 -0.22200
O 	O 	0.91230 0.32330 0.74529 -0.38700
C 	C 	0.91902 0.21877 0.69757 0.36700
C 	C 	0.86390 0.37820 0.68670 0.53100
C 	C 	0.84970 0.32270 0.63640 -0.80400
C 	C 	0.91891 0.30272 0.78103 0.37300
O 	O 	0.95220 0.20983 0.72159 -0.40500
O 	O 	0.95238 0.27835 0.79027 -0.40000
C 	C 	0.88337 0.18271 0.69566 -0.04900
H 	H 	0.88260 0.39080 0.70820 -0.12500
C 	C 	0.82240 0.39470 0.68120 -0.03200
C 	C 	0.81010 0.34180 0.62690 -0.91400
H 	H 	0.85670 0.29450 0.62500 -0.53300
C 	C 	0.88366 0.30413 0.81724 -0.07400
C 	C 	0.84349 0.18895 0.67400 -0.03400
C 	C 	0.88947 0.14283 0.71700 -0.03200
C 	C 	0.96101 0.47670 0.68730 0.01200
C 	C 	0.96088 0.31210 0.52321 0.02000
C 	C 	0.79830 0.37930 0.64620 0.43600
C 	C 	0.80520 0.42960 0.71180 0.31900
H 	H 	0.79090 0.32820 0.60650 0.04500
C 	C 	0.84387 0.32660 0.81120 0.00600
C 	C 	0.88938 0.28350 0.85717 -0.00100
H 	H 	0.83810 0.21590 0.65930 0.09100
H 	H 	0.91620 0.13750 0.73210 0.06000
H 	H 	0.93380 0.46150 0.68680 0.05000
H 	H 	0.93370 0.31230 0.53840 0.01400
H 	H 	0.77360 0.39520 0.63590 -0.18600
O 	O 	0.77070 0.45060 0.70090 -0.38800
O 	O 	0.83240 0.44770 0.73820 -0.24200
H 	H 	0.83910 0.34250 0.78480 0.06300
H 	H 	0.91640 0.26910 0.86280 0.05300
N 	N 	0.88120 0.34080 0.65530 0.01300
C 	C 	0.86490 0.31520 0.62170 1.48800
C 	C 	0.82280 0.32080 0.60490 0.20400
C 	C 	0.79900 0.35760 0.61960 0.78200
C 	C 	0.81080 0.37630 0.65870 -0.33500
C 	C 	0.85200 0.36820 0.67690 -0.24500
C 	C 	0.80560 0.29060 0.56750 0.25500
O 	O 	0.77040 0.29900 0.54950 -0.40800
O 	O 	0.83000 0.26180 0.55330 -0.25700
Ni	Ni	0.05843 0.68236 0.68236 1.11500
O 	O 	0.08774 0.74542 0.67657 -0.39400
O 	O 	0.03708 0.61624 0.68644 -0.42200
O 	O 	0.03707 0.68680 0.61611 -0.46500
N 	N 	0.12120 0.65600 0.66200 -0.22400
O 	O 	0.08770 0.67670 0.74529 -0.39200
C 	C 	0.08098 0.78123 0.69757 0.37100
C 	C 	0.13610 0.62180 0.68670 0.53700
C 	C 	0.15030 0.67730 0.63640 -0.81900
C 	C 	0.08109 0.69728 0.78103 0.37500
O 	O 	0.04780 0.79017 0.72159 -0.42000
O 	O 	0.04762 0.72165 0.79027 -0.41600
C 	C 	0.11663 0.81729 0.69566 -0.05600
H 	H 	0.11740 0.60920 0.70820 -0.12800
C 	C 	0.17760 0.60530 0.68120 -0.03200
C 	C 	0.18990 0.65820 0.62690 -0.92600
H 	H 	0.14330 0.70550 0.62500 -0.54100
C 	C 	0.11634 0.69587 0.81724 -0.08000
C 	C 	0.15651 0.81105 0.67400 -0.02800
C 	C 	0.11053 0.85717 0.71700 -0.02400
C 	C 	0.03899 0.52330 0.68730 -0.01100
C 	C 	0.03912 0.68790 0.52321 -0.00200
C 	C 	0.20170 0.62070 0.64620 0.44100
C 	C 	0.19480 0.57040 0.71180 0.31900
H 	H 	0.20910 0.67180 0.60650 0.04400
C 	C 	0.15613 0.67340 0.81120 0.00900
C 	C 	0.11062 0.71650 0.85717 0.00200
H 	H 	0.16190 0.78410 0.65930 0.08900
H 	H 	0.08380 0.86250 0.73210 0.05400
H 	H 	0.06620 0.53850 0.68680 0.05300
H 	H 	0.06630 0.68770 0.53840 0.01700
H 	H 	0.22640 0.60480 0.63590 -0.18900
O 	O 	0.22930 0.54940 0.70090 -0.38800
O 	O 	0.16760 0.55230 0.73820 -0.24400
H 	H 	0.16090 0.65750 0.78480 0.06200
H 	H 	0.08360 0.73090 0.86280 0.04600
N 	N 	0.11880 0.65920 0.65530 0.01500
C 	C 	0.13510 0.68480 0.62170 1.51000
C 	C 	0.17720 0.67920 0.60490 0.20900
C 	C 	0.20100 0.64240 0.61960 0.79300
C 	C 	0.18920 0.62370 0.65870 -0.33900
C 	C 	0.14800 0.63180 0.67690 -0.24800
C 	C 	0.19440 0.70940 0.56750 0.25200
O 	O 	0.22960 0.70100 0.54950 -0.40800
O 	O 	0.17000 0.73820 0.55330 -0.25800
Ni	Ni	0.31764 0.05843 0.31764 1.11400
O 	O 	0.32343 0.08774 0.25458 -0.39500
O 	O 	0.31356 0.03708 0.38376 -0.42200
O 	O 	0.38389 0.03707 0.31320 -0.46500
N 	N 	0.33800 0.12120 0.34400 -0.22400
O 	O 	0.25471 0.08770 0.32330 -0.39200
C 	C 	0.30243 0.08098 0.21877 0.37000
C 	C 	0.31330 0.13610 0.37820 0.53700
C 	C 	0.36360 0.15030 0.32270 -0.81900
C 	C 	0.21897 0.08109 0.30272 0.37400
O 	O 	0.27841 0.04780 0.20983 -0.42300
O 	O 	0.20973 0.04762 0.27835 -0.41900
C 	C 	0.30434 0.11663 0.18271 -0.05600
H 	H 	0.29180 0.11740 0.39080 -0.12900
C 	C 	0.31880 0.17760 0.39470 -0.03200
C 	C 	0.37310 0.18990 0.34180 -0.92700
H 	H 	0.37500 0.14330 0.29450 -0.54200
C 	C 	0.18276 0.11634 0.30413 -0.08000
C 	C 	0.32600 0.15651 0.18895 -0.03200
C 	C 	0.28300 0.11053 0.14283 -0.02900
C 	C 	0.31270 0.03899 0.47670 -0.01100
C 	C 	0.47679 0.03912 0.31210 -0.00200
C 	C 	0.35380 0.20170 0.37930 0.44100
C 	C 	0.28820 0.19480 0.42960 0.31900
H 	H 	0.39350 0.20910 0.32820 0.04400
C 	C 	0.18880 0.15613 0.32660 0.00500
C 	C 	0.14283 0.11062 0.28350 -0.00300
H 	H 	0.34070 0.16190 0.21590 0.09000
H 	H 	0.26790 0.08380 0.13750 0.05100
H 	H 	0.31320 0.06620 0.46150 0.05300
H 	H 	0.46160 0.06630 0.31230 0.01600
H 	H 	0.36410 0.22640 0.39520 -0.18900
O 	O 	0.29910 0.22930 0.45060 -0.38800
O 	O 	0.26180 0.16760 0.44770 -0.24600
H 	H 	0.21520 0.16090 0.34250 0.06200
H 	H 	0.13720 0.08360 0.26910 0.04200
N 	N 	0.34470 0.11880 0.34080 0.01500
C 	C 	0.37830 0.13510 0.31520 1.51100
C 	C 	0.39510 0.17720 0.32080 0.20900
C 	C 	0.38040 0.20100 0.35760 0.79400
C 	C 	0.34130 0.18920 0.37630 -0.33900
C 	C 	0.32310 0.14800 0.36820 -0.24700
C 	C 	0.43250 0.19440 0.29060 0.25300
O 	O 	0.45050 0.22960 0.29900 -0.40800
O 	O 	0.44670 0.17000 0.26180 -0.26000
Ni	Ni	0.31764 0.94157 0.68236 1.11900
O 	O 	0.32343 0.91226 0.74542 -0.38900
O 	O 	0.31356 0.96292 0.61624 -0.40200
O 	O 	0.38389 0.96293 0.68680 -0.44500
N 	N 	0.33800 0.87880 0.65600 -0.22100
O 	O 	0.25471 0.91230 0.67670 -0.38800
C 	C 	0.30243 0.91902 0.78123 0.36900
C 	C 	0.31330 0.86390 0.62180 0.53100
C 	C 	0.36360 0.84970 0.67730 -0.80300
C 	C 	0.21897 0.91891 0.69728 0.37200
O 	O 	0.27841 0.95220 0.79017 -0.40400
O 	O 	0.20973 0.95238 0.72165 -0.40100
C 	C 	0.30434 0.88337 0.81729 -0.05000
H 	H 	0.29180 0.88260 0.60920 -0.12500
C 	C 	0.31880 0.82240 0.60530 -0.03300
C 	C 	0.37310 0.81010 0.65820 -0.91300
H 	H 	0.37500 0.85670 0.70550 -0.53200
C 	C 	0.18276 0.88366 0.69587 -0.07300
C 	C 	0.32600 0.84349 0.81105 -0.03100
C 	C 	0.28300 0.88947 0.85717 -0.02700
C 	C 	0.31270 0.96101 0.52330 0.01100
C 	C 	0.47679 0.96088 0.68790 0.02000
C 	C 	0.35380 0.79830 0.62070 0.43600
C 	C 	0.28820 0.80520 0.57040 0.31900
H 	H 	0.39350 0.79090 0.67180 0.04500
C 	C 	0.18880 0.84387 0.67340 0.00300
C 	C 	0.14283 0.88938 0.71650 -0.00500
H 	H 	0.34070 0.83810 0.78410 0.09000
H 	H 	0.26790 0.91620 0.86250 0.06100
H 	H 	0.31320 0.93380 0.53850 0.05000
H 	H 	0.46160 0.93370 0.68770 0.01400
H 	H 	0.36410 0.77360 0.60480 -0.18600
O 	O 	0.29910 0.77070 0.54940 -0.38800
O 	O 	0.26180 0.83240 0.55230 -0.24300
H 	H 	0.21520 0.83910 0.65750 0.06400
H 	H 	0.13720 0.91640 0.73090 0.05100
N 	N 	0.34470 0.88120 0.65920 0.01300
C 	C 	0.37830 0.86490 0.68480 1.48700
C 	C 	0.39510 0.82280 0.67920 0.20400
C 	C 	0.38040 0.79900 0.64240 0.78100
C 	C 	0.34130 0.81080 0.62370 -0.33500
C 	C 	0.32310 0.85200 0.63180 -0.24500
C 	C 	0.43250 0.80560 0.70940 0.25400
O 	O 	0.45050 0.77040 0.70100 -0.40700
O 	O 	0.44670 0.83000 0.73820 -0.25600
Ni	Ni	0.68236 0.94157 0.31764 1.11900
O 	O 	0.67657 0.91226 0.25458 -0.38900
O 	O 	0.68644 0.96292 0.38376 -0.40200
O 	O 	0.61611 0.96293 0.31320 -0.44500
N 	N 	0.66200 0.87880 0.34400 -0.22200
O 	O 	0.74529 0.91230 0.32330 -0.38700
C 	C 	0.69757 0.91902 0.21877 0.36700
C 	C 	0.68670 0.86390 0.37820 0.53100
C 	C 	0.63640 0.84970 0.32270 -0.80400
C 	C 	0.78103 0.91891 0.30272 0.37300
O 	O 	0.72159 0.95220 0.20983 -0.40500
O 	O 	0.79027 0.95238 0.27835 -0.40000
C 	C 	0.69566 0.88337 0.18271 -0.04900
H 	H 	0.70820 0.88260 0.39080 -0.12500
C 	C 	0.68120 0.82240 0.39470 -0.03200
C 	C 	0.62690 0.81010 0.34180 -0.91400
H 	H 	0.62500 0.85670 0.29450 -0.53300
C 	C 	0.81724 0.88366 0.30413 -0.07400
C 	C 	0.67400 0.84349 0.18895 -0.03400
C 	C 	0.71700 0.88947 0.14283 -0.03200
C 	C 	0.68730 0.96101 0.47670 0.01200
C 	C 	0.52321 0.96088 0.31210 0.02000
C 	C 	0.64620 0.79830 0.37930 0.43600
C 	C 	0.71180 0.80520 0.42960 0.31900
H 	H 	0.60650 0.79090 0.32820 0.04500
C 	C 	0.81120 0.84387 0.32660 0.00600
C 	C 	0.85717 0.88938 0.28350 -0.00100
H 	H 	0.65930 0.83810 0.21590 0.09100
H 	H 	0.73210 0.91620 0.13750 0.06000
H 	H 	0.68680 0.93380 0.46150 0.05000
H 	H 	0.53840 0.93370 0.31230 0.01400
H 	H 	0.63590 0.77360 0.39520 -0.18600
O 	O 	0.70090 0.77070 0.45060 -0.38800
O 	O 	0.73820 0.83240 0.44770 -0.24200
H 	H 	0.78480 0.83910 0.34250 0.06300
H 	H 	0.86280 0.91640 0.26910 0.05300
N 	N 	0.65530 0.88120 0.34080 0.01300
C 	C 	0.62170 0.86490 0.31520 1.48800
C 	C 	0.60490 0.82280 0.32080 0.20400
C 	C 	0.61960 0.79900 0.35760 0.78200
C 	C 	0.65870 0.81080 0.37630 -0.33500
C 	C 	0.67690 0.85200 0.36820 -0.24500
C 	C 	0.56750 0.80560 0.29060 0.25500
O 	O 	0.54950 0.77040 0.29900 -0.40800
O 	O 	0.55330 0.83000 0.26180 -0.25700
Ni	Ni	0.68236 0.05843 0.68236 1.11500
O 	O 	0.67657 0.08774 0.74542 -0.39400
O 	O 	0.68644 0.03708 0.61624 -0.42200
O 	O 	0.61611 0.03707 0.68680 -0.46500
N 	N 	0.66200 0.12120 0.65600 -0.22400
O 	O 	0.74529 0.08770 0.67670 -0.39200
C 	C 	0.69757 0.08098 0.78123 0.37100
C 	C 	0.68670 0.13610 0.62180 0.53700
C 	C 	0.63640 0.15030 0.67730 -0.81900
C 	C 	0.78103 0.08109 0.69728 0.37500
O 	O 	0.72159 0.04780 0.79017 -0.42000
O 	O 	0.79027 0.04762 0.72165 -0.41600
C 	C 	0.69566 0.11663 0.81729 -0.05600
H 	H 	0.70820 0.11740 0.60920 -0.12800
C 	C 	0.68120 0.17760 0.60530 -0.03200
C 	C 	0.62690 0.18990 0.65820 -0.92600
H 	H 	0.62500 0.14330 0.70550 -0.54100
C 	C 	0.81724 0.11634 0.69587 -0.08000
C 	C 	0.67400 0.15651 0.81105 -0.02800
C 	C 	0.71700 0.11053 0.85717 -0.02400
C 	C 	0.68730 0.03899 0.52330 -0.01100
C 	C 	0.52321 0.03912 0.68790 -0.00200
C 	C 	0.64620 0.20170 0.62070 0.44100
C 	C 	0.71180 0.19480 0.57040 0.31900
H 	H 	0.60650 0.20910 0.67180 0.04400
C 	C 	0.81120 0.15613 0.67340 0.00900
C 	C 	0.85717 0.11062 0.71650 0.00200
H 	H 	0.65930 0.16190 0.78410 0.08900
H 	H 	0.73210 0.08380 0.86250 0.05400
H 	H 	0.68680 0.06620 0.53850 0.05300
H 	H 	0.53840 0.06630 0.68770 0.01700
H 	H 	0.63590 0.22640 0.60480 -0.18900
O 	O 	0.70090 0.22930 0.54940 -0.38800
O 	O 	0.73820 0.16760 0.55230 -0.24400
H 	H 	0.78480 0.16090 0.65750 0.06200
H 	H 	0.86280 0.08360 0.73090 0.04600
N 	N 	0.65530 0.11880 0.65920 0.01500
C 	C 	0.62170 0.13510 0.68480 1.51000
C 	C 	0.60490 0.17720 0.67920 0.20900
C 	C 	0.61960 0.20100 0.64240 0.79300
C 	C 	0.65870 0.18920 0.62370 -0.33900
C 	C 	0.67690 0.14800 0.63180 -0.24800
C 	C 	0.56750 0.19440 0.70940 0.25200
O 	O 	0.54950 0.22960 0.70100 -0.40800
O 	O 	0.55330 0.17000 0.73820 -0.25800
Ni	Ni	0.31764 0.31764 0.05843 1.11400
O 	O 	0.25458 0.32343 0.08774 -0.39500
O 	O 	0.38376 0.31356 0.03708 -0.42200
O 	O 	0.31320 0.38389 0.03707 -0.46500
N 	N 	0.34400 0.33800 0.12120 -0.22400
O 	O 	0.32330 0.25471 0.08770 -0.39200
C 	C 	0.21877 0.30243 0.08098 0.37000
C 	C 	0.37820 0.31330 0.13610 0.53700
C 	C 	0.32270 0.36360 0.15030 -0.81900
C 	C 	0.30272 0.21897 0.08109 0.37400
O 	O 	0.20983 0.27841 0.04780 -0.42300
O 	O 	0.27835 0.20973 0.04762 -0.41900
C 	C 	0.18271 0.30434 0.11663 -0.05600
H 	H 	0.39080 0.29180 0.11740 -0.12900
C 	C 	0.39470 0.31880 0.17760 -0.03200
C 	C 	0.34180 0.37310 0.18990 -0.92700
H 	H 	0.29450 0.37500 0.14330 -0.54200
C 	C 	0.30413 0.18276 0.11634 -0.08000
C 	C 	0.18895 0.32600 0.15651 -0.03200
C 	C 	0.14283 0.28300 0.11053 -0.02900
C 	C 	0.47670 0.31270 0.03899 -0.01100
C 	C 	0.31210 0.47679 0.03912 -0.00200
C 	C 	0.37930 0.35380 0.20170 0.44100
C 	C 	0.42960 0.28820 0.19480 0.31900
H 	H 	0.32820 0.39350 0.20910 0.04400
C 	C 	0.32660 0.18880 0.15613 0.00500
C 	C 	0.28350 0.14283 0.11062 -0.00300
H 	H 	0.21590 0.34070 0.16190 0.09000
H 	H 	0.13750 0.26790 0.08380 0.05100
H 	H 	0.46150 0.31320 0.06620 0.05300
H 	H 	0.31230 0.46160 0.06630 0.01600
H 	H 	0.39520 0.36410 0.22640 -0.18900
O 	O 	0.45060 0.29910 0.22930 -0.38800
O 	O 	0.44770 0.26180 0.16760 -0.24600
H 	H 	0.34250 0.21520 0.16090 0.06200
H 	H 	0.26910 0.13720 0.08360 0.04200
N 	N 	0.34080 0.34470 0.11880 0.01500
C 	C 	0.31520 0.37830 0.13510 1.51100
C 	C 	0.32080 0.39510 0.17720 0.20900
C 	C 	0.35760 0.38040 0.20100 0.79400
C 	C 	0.37630 0.34130 0.18920 -0.33900
C 	C 	0.36820 0.32310 0.14800 -0.24700
C 	C 	0.29060 0.43250 0.19440 0.25300
O 	O 	0.29900 0.45050 0.22960 -0.40800
O 	O 	0.26180 0.44670 0.17000 -0.26000
Ni	Ni	0.68236 0.31764 0.94157 1.11900
O 	O 	0.74542 0.32343 0.91226 -0.38900
O 	O 	0.61624 0.31356 0.96292 -0.40200
O 	O 	0.68680 0.38389 0.96293 -0.44500
N 	N 	0.65600 0.33800 0.87880 -0.22100
O 	O 	0.67670 0.25471 0.91230 -0.38800
C 	C 	0.78123 0.30243 0.91902 0.36900
C 	C 	0.62180 0.31330 0.86390 0.53100
C 	C 	0.67730 0.36360 0.84970 -0.80300
C 	C 	0.69728 0.21897 0.91891 0.37200
O 	O 	0.79017 0.27841 0.95220 -0.40400
O 	O 	0.72165 0.20973 0.95238 -0.40100
C 	C 	0.81729 0.30434 0.88337 -0.05000
H 	H 	0.60920 0.29180 0.88260 -0.12500
C 	C 	0.60530 0.31880 0.82240 -0.03300
C 	C 	0.65820 0.37310 0.81010 -0.91300
H 	H 	0.70550 0.37500 0.85670 -0.53200
C 	C 	0.69587 0.18276 0.88366 -0.07300
C 	C 	0.81105 0.32600 0.84349 -0.03100
C 	C 	0.85717 0.28300 0.88947 -0.02700
C 	C 	0.52330 0.31270 0.96101 0.01100
C 	C 	0.68790 0.47679 0.96088 0.02000
C 	C 	0.62070 0.35380 0.79830 0.43600
C 	C 	0.57040 0.28820 0.80520 0.31900
H 	H 	0.67180 0.39350 0.79090 0.04500
C 	C 	0.67340 0.18880 0.84387 0.00300
C 	C 	0.71650 0.14283 0.88938 -0.00500
H 	H 	0.78410 0.34070 0.83810 0.09000
H 	H 	0.86250 0.26790 0.91620 0.06100
H 	H 	0.53850 0.31320 0.93380 0.05000
H 	H 	0.68770 0.46160 0.93370 0.01400
H 	H 	0.60480 0.36410 0.77360 -0.18600
O 	O 	0.54940 0.29910 0.77070 -0.38800
O 	O 	0.55230 0.26180 0.83240 -0.24300
H 	H 	0.65750 0.21520 0.83910 0.06400
H 	H 	0.73090 0.13720 0.91640 0.05100
N 	N 	0.65920 0.34470 0.88120 0.01300
C 	C 	0.68480 0.37830 0.86490 1.48700
C 	C 	0.67920 0.39510 0.82280 0.20400
C 	C 	0.64240 0.38040 0.79900 0.78100
C 	C 	0.62370 0.34130 0.81080 -0.33500
C 	C 	0.63180 0.32310 0.85200 -0.24500
C 	C 	0.70940 0.43250 0.80560 0.25400
O 	O 	0.70100 0.45050 0.77040 -0.40700
O 	O 	0.73820 0.44670 0.83000 -0.25600
Ni	Ni	0.31764 0.68236 0.94157 1.11900
O 	O 	0.25458 0.67657 0.91226 -0.38900
O 	O 	0.38376 0.68644 0.96292 -0.40200
O 	O 	0.31320 0.61611 0.96293 -0.44500
N 	N 	0.34400 0.66200 0.87880 -0.22200
O 	O 	0.32330 0.74529 0.91230 -0.38700
C 	C 	0.21877 0.69757 0.91902 0.36700
C 	C 	0.37820 0.68670 0.86390 0.53100
C 	C 	0.32270 0.63640 0.84970 -0.80400
C 	C 	0.30272 0.78103 0.91891 0.37300
O 	O 	0.20983 0.72159 0.95220 -0.40500
O 	O 	0.27835 0.79027 0.95238 -0.40000
C 	C 	0.18271 0.69566 0.88337 -0.04900
H 	H 	0.39080 0.70820 0.88260 -0.12500
C 	C 	0.39470 0.68120 0.82240 -0.03200
C 	C 	0.34180 0.62690 0.81010 -0.91400
H 	H 	0.29450 0.62500 0.85670 -0.53300
C 	C 	0.30413 0.81724 0.88366 -0.07400
C 	C 	0.18895 0.67400 0.84349 -0.03400
C 	C 	0.14283 0.71700 0.88947 -0.03200
C 	C 	0.47670 0.68730 0.96101 0.01200
C 	C 	0.31210 0.52321 0.96088 0.02000
C 	C 	0.37930 0.64620 0.79830 0.43600
C 	C 	0.42960 0.71180 0.80520 0.31900
H 	H 	0.32820 0.60650 0.79090 0.04500
C 	C 	0.32660 0.81120 0.84387 0.00600
C 	C 	0.28350 0.85717 0.88938 -0.00100
H 	H 	0.21590 0.65930 0.83810 0.09100
H 	H 	0.13750 0.73210 0.91620 0.06000
H 	H 	0.46150 0.68680 0.93380 0.05000
H 	H 	0.31230 0.53840 0.93370 0.01400
H 	H 	0.39520 0.63590 0.77360 -0.18600
O 	O 	0.45060 0.70090 0.77070 -0.38800
O 	O 	0.44770 0.73820 0.83240 -0.24200
H 	H 	0.34250 0.78480 0.83910 0.06300
H 	H 	0.26910 0.86280 0.91640 0.05300
N 	N 	0.34080 0.65530 0.88120 0.01300
C 	C 	0.31520 0.62170 0.86490 1.48800
C 	C 	0.32080 0.60490 0.82280 0.20400
C 	C 	0.35760 0.61960 0.79900 0.78200
C 	C 	0.37630 0.65870 0.81080 -0.33500
C 	C 	0.36820 0.67690 0.85200 -0.24500
C 	C 	0.29060 0.56750 0.80560 0.25500
O 	O 	0.29900 0.54950 0.77040 -0.40800
O 	O 	0.26180 0.55330 0.83000 -0.25700
Ni	Ni	0.68236 0.68236 0.05843 1.11500
O 	O 	0.74542 0.67657 0.08774 -0.39400
O 	O 	0.61624 0.68644 0.03708 -0.42200
O 	O 	0.68680 0.61611 0.03707 -0.46500
N 	N 	0.65600 0.66200 0.12120 -0.22400
O 	O 	0.67670 0.74529 0.08770 -0.39200
C 	C 	0.78123 0.69757 0.08098 0.37100
C 	C 	0.62180 0.68670 0.13610 0.53700
C 	C 	0.67730 0.63640 0.15030 -0.81900
C 	C 	0.69728 0.78103 0.08109 0.37500
O 	O 	0.79017 0.72159 0.04780 -0.42000
O 	O 	0.72165 0.79027 0.04762 -0.41600
C 	C 	0.81729 0.69566 0.11663 -0.05600
H 	H 	0.60920 0.70820 0.11740 -0.12800
C 	C 	0.60530 0.68120 0.17760 -0.03200
C 	C 	0.65820 0.62690 0.18990 -0.92600
H 	H 	0.70550 0.62500 0.14330 -0.54100
C 	C 	0.69587 0.81724 0.11634 -0.08000
C 	C 	0.81105 0.67400 0.15651 -0.02800
C 	C 	0.85717 0.71700 0.11053 -0.02400
C 	C 	0.52330 0.68730 0.03899 -0.01100
C 	C 	0.68790 0.52321 0.03912 -0.00200
C 	C 	0.62070 0.64620 0.20170 0.44100
C 	C 	0.57040 0.71180 0.19480 0.31900
H 	H 	0.67180 0.60650 0.20910 0.04400
C 	C 	0.67340 0.81120 0.15613 0.00900
C 	C 	0.71650 0.85717 0.11062 0.00200
H 	H 	0.78410 0.65930 0.16190 0.08900
H 	H 	0.86250 0.73210 0.08380 0.05400
H 	H 	0.53850 0.68680 0.06620 0.05300
H 	H 	0.68770 0.53840 0.06630 0.01700
H 	H 	0.60480 0.63590 0.22640 -0.18900
O 	O 	0.54940 0.70090 0.22930 -0.38800
O 	O 	0.55230 0.73820 0.16760 -0.24400
H 	H 	0.65750 0.78480 0.16090 0.06200
H 	H 	0.73090 0.86280 0.08360 0.04600
N 	N 	0.65920 0.65530 0.11880 0.01500
C 	C 	0.68480 0.62170 0.13510 1.51000
C 	C 	0.67920 0.60490 0.17720 0.20900
C 	C 	0.64240 0.61960 0.20100 0.79300
C 	C 	0.62370 0.65870 0.18920 -0.33900
C 	C 	0.63180 0.67690 0.14800 -0.24800
C 	C 	0.70940 0.56750 0.19440 0.25200
O 	O 	0.70100 0.54950 0.22960 -0.40800
O 	O 	0.73820 0.55330 0.17000 -0.25800
Ni	Ni	0.94157 0.68236 0.68236 1.11900
O 	O 	0.91226 0.74542 0.67657 -0.38900
O 	O 	0.96292 0.61624 0.68644 -0.40200
O 	O 	0.96293 0.68680 0.61611 -0.44500
N 	N 	0.87880 0.65600 0.66200 -0.22100
O 	O 	0.91230 0.67670 0.74529 -0.38700
C 	C 	0.91902 0.78123 0.69757 0.36800
C 	C 	0.86390 0.62180 0.68670 0.53100
C 	C 	0.84970 0.67730 0.63640 -0.80400
C 	C 	0.91891 0.69728 0.78103 0.37300
O 	O 	0.95220 0.79017 0.72159 -0.40400
O 	O 	0.95238 0.72165 0.79027 -0.40000
C 	C 	0.88337 0.81729 0.69566 -0.05000
H 	H 	0.88260 0.60920 0.70820 -0.12500
C 	C 	0.82240 0.60530 0.68120 -0.03200
C 	C 	0.81010 0.65820 0.62690 -0.91300
H 	H 	0.85670 0.70550 0.62500 -0.53200
C 	C 	0.88366 0.69587 0.81724 -0.07400
C 	C 	0.84349 0.81105 0.67400 -0.03100
C 	C 	0.88947 0.85717 0.71700 -0.02700
C 	C 	0.96101 0.52330 0.68730 0.01200
C 	C 	0.96088 0.68790 0.52321 0.02000
C 	C 	0.79830 0.62070 0.64620 0.43600
C 	C 	0.80520 0.57040 0.71180 0.31900
H 	H 	0.79090 0.67180 0.60650 0.04500
C 	C 	0.84387 0.67340 0.81120 0.00600
C 	C 	0.88938 0.71650 0.85717 -0.00100
H 	H 	0.83810 0.78410 0.65930 0.09000
H 	H 	0.91620 0.86250 0.73210 0.06200
H 	H 	0.93380 0.53850 0.68680 0.05000
H 	H 	0.93370 0.68770 0.53840 0.01400
H 	H 	0.77360 0.60480 0.63590 -0.18600
O 	O 	0.77070 0.54940 0.70090 -0.38800
O 	O 	0.83240 0.55230 0.73820 -0.24200
H 	H 	0.83910 0.65750 0.78480 0.06300
H 	H 	0.91640 0.73090 0.86280 0.05400
N 	N 	0.88120 0.65920 0.65530 0.01300
C 	C 	0.86490 0.68480 0.62170 1.48700
C 	C 	0.82280 0.67920 0.60490 0.20400
C 	C 	0.79900 0.64240 0.61960 0.78200
C 	C 	0.81080 0.62370 0.65870 -0.33500
C 	C 	0.85200 0.63180 0.67690 -0.24500
C 	C 	0.80560 0.70940 0.56750 0.25400
O 	O 	0.77040 0.70100 0.54950 -0.40700
O 	O 	0.83000 0.73820 0.55330 -0.25600
Ni	Ni	0.05843 0.31764 0.68236 1.11400
O 	O 	0.08774 0.25458 0.67657 -0.39400
O 	O 	0.03708 0.38376 0.68644 -0.42200
O 	O 	0.03707 0.31320 0.61611 -0.46500
N 	N 	0.12120 0.34400 0.66200 -0.22400
O 	O 	0.08770 0.32330 0.74529 -0.39200
C 	C 	0.08098 0.21877 0.69757 0.36900
C 	C 	0.13610 0.37820 0.68670 0.53700
C 	C 	0.15030 0.32270 0.63640 -0.81900
C 	C 	0.08109 0.30272 0.78103 0.37500
O 	O 	0.04780 0.20983 0.72159 -0.42200
O 	O 	0.04762 0.27835 0.79027 -0.41700
C 	C 	0.11663 0.18271 0.69566 -0.05500
H 	H 	0.11740 0.39080 0.70820 -0.12800
C 	C 	0.17760 0.39470 0.68120 -0.03200
C 	C 	0.18990 0.34180 0.62690 -0.92700
H 	H 	0.14330 0.29450 0.62500 -0.54200
C 	C 	0.11634 0.30413 0.81724 -0.08100
C 	C 	0.15651 0.18895 0.67400 -0.03200
C 	C 	0.11053 0.14283 0.71700 -0.02900
C 	C 	0.03899 0.47670 0.68730 -0.01100
C 	C 	0.03912 0.31210 0.52321 -0.00200
C 	C 	0.20170 0.37930 0.64620 0.44100
C 	C 	0.19480 0.42960 0.71180 0.31900
H 	H 	0.20910 0.32820 0.60650 0.04400
C 	C 	0.15613 0.32660 0.81120 0.00900
C 	C 	0.11062 0.28350 0.85717 0.00200
H 	H 	0.16190 0.21590 0.65930 0.09000
H 	H 	0.08380 0.13750 0.73210 0.05200
H 	H 	0.06620 0.46150 0.68680 0.05300
H 	H 	0.06630 0.31230 0.53840 0.01600
H 	H 	0.22640 0.39520 0.63590 -0.18900
O 	O 	0.22930 0.45060 0.70090 -0.38800
O 	O 	0.16760 0.44770 0.73820 -0.24400
H 	H 	0.16090 0.34250 0.78480 0.06200
H 	H 	0.08360 0.26910 0.86280 0.04500
N 	N 	0.11880 0.34080 0.65530 0.01500
C 	C 	0.13510 0.31520 0.62170 1.51100
C 	C 	0.17720 0.32080 0.60490 0.20900
C 	C 	0.20100 0.35760 0.61960 0.79400
C 	C 	0.18920 0.37630 0.65870 -0.33900
C 	C 	0.14800 0.36820 0.67690 -0.24800
C 	C 	0.19440 0.29060 0.56750 0.25300
O 	O 	0.22960 0.29900 0.54950 -0.40800
O 	O 	0.17000 0.26180 0.55330 -0.26000
Ni	Ni	0.05843 0.68236 0.31764 1.11400
O 	O 	0.08774 0.74542 0.32343 -0.39400
O 	O 	0.03708 0.61624 0.31356 -0.42200
O 	O 	0.03707 0.68680 0.38389 -0.46500
N 	N 	0.12120 0.65600 0.33800 -0.22400
O 	O 	0.08770 0.67670 0.25471 -0.39200
C 	C 	0.08098 0.78123 0.30243 0.37100
C 	C 	0.13610 0.62180 0.31330 0.53600
C 	C 	0.15030 0.67730 0.36360 -0.81800
C 	C 	0.08109 0.69728 0.21897 0.37400
O 	O 	0.04780 0.79017 0.27841 -0.42100
O 	O 	0.04762 0.72165 0.20973 -0.41800
C 	C 	0.11663 0.81729 0.30434 -0.05700
H 	H 	0.11740 0.60920 0.29180 -0.12900
C 	C 	0.17760 0.60530 0.31880 -0.03300
C 	C 	0.18990 0.65820 0.37310 -0.92600
H 	H 	0.14330 0.70550 0.37500 -0.54100
C 	C 	0.11634 0.69587 0.18276 -0.07900
C 	C 	0.15651 0.81105 0.32600 -0.02800
C 	C 	0.11053 0.85717 0.28300 -0.02400
C 	C 	0.03899 0.52330 0.31270 -0.01100
C 	C 	0.03912 0.68790 0.47679 -0.00200
C 	C 	0.20170 0.62070 0.35380 0.44100
C 	C 	0.19480 0.57040 0.28820 0.31900
H 	H 	0.20910 0.67180 0.39350 0.04400
C 	C 	0.15613 0.67340 0.18880 0.00500
C 	C 	0.11062 0.71650 0.14283 -0.00200
H 	H 	0.16190 0.78410 0.34070 0.08900
H 	H 	0.08380 0.86250 0.26790 0.05300
H 	H 	0.06620 0.53850 0.31320 0.05300
H 	H 	0.06630 0.68770 0.46160 0.01700
H 	H 	0.22640 0.60480 0.36410 -0.18900
O 	O 	0.22930 0.54940 0.29910 -0.38800
O 	O 	0.16760 0.55230 0.26180 -0.24600
H 	H 	0.16090 0.65750 0.21520 0.06200
H 	H 	0.08360 0.73090 0.13720 0.04300
N 	N 	0.11880 0.65920 0.34470 0.01500
C 	C 	0.13510 0.68480 0.37830 1.51000
C 	C 	0.17720 0.67920 0.39510 0.20900
C 	C 	0.20100 0.64240 0.38040 0.79300
C 	C 	0.18920 0.62370 0.34130 -0.33900
C 	C 	0.14800 0.63180 0.32310 -0.24700
C 	C 	0.19440 0.70940 0.43250 0.25200
O 	O 	0.22960 0.70100 0.45050 -0.40800
O 	O 	0.17000 0.73820 0.44670 -0.25800
Ni	Ni	0.94157 0.31764 0.31764 1.11900
O 	O 	0.91226 0.25458 0.32343 -0.38900
O 	O 	0.96292 0.38376 0.31356 -0.40200
O 	O 	0.96293 0.31320 0.38389 -0.44500
N 	N 	0.87880 0.34400 0.33800 -0.22100
O 	O 	0.91230 0.32330 0.25471 -0.38800
C 	C 	0.91902 0.21877 0.30243 0.36700
C 	C 	0.86390 0.37820 0.31330 0.53100
C 	C 	0.84970 0.32270 0.36360 -0.80400
C 	C 	0.91891 0.30272 0.21897 0.37200
O 	O 	0.95220 0.20983 0.27841 -0.40600
O 	O 	0.95238 0.27835 0.20973 -0.40200
C 	C 	0.88337 0.18271 0.30434 -0.04900
H 	H 	0.88260 0.39080 0.29180 -0.12500
C 	C 	0.82240 0.39470 0.31880 -0.03200
C 	C 	0.81010 0.34180 0.37310 -0.91400
H 	H 	0.85670 0.29450 0.37500 -0.53300
C 	C 	0.88366 0.30413 0.18276 -0.07300
C 	C 	0.84349 0.18895 0.32600 -0.03400
C 	C 	0.88947 0.14283 0.28300 -0.03200
C 	C 	0.96101 0.47670 0.31270 0.01100
C 	C 	0.96088 0.31210 0.47679 0.02000
C 	C 	0.79830 0.37930 0.35380 0.43600
C 	C 	0.80520 0.42960 0.28820 0.31900
H 	H 	0.79090 0.32820 0.39350 0.04500
C 	C 	0.84387 0.32660 0.18880 0.00300
C 	C 	0.88938 0.28350 0.14283 -0.00600
H 	H 	0.83810 0.21590 0.34070 0.09100
H 	H 	0.91620 0.13750 0.26790 0.05800
H 	H 	0.93380 0.46150 0.31320 0.05000
H 	H 	0.93370 0.31230 0.46160 0.01400
H 	H 	0.77360 0.39520 0.36410 -0.18600
O 	O 	0.77070 0.45060 0.29910 -0.38800
O 	O 	0.83240 0.44770 0.26180 -0.24300
H 	H 	0.83910 0.34250 0.21520 0.06400
H 	H 	0.91640 0.26910 0.13720 0.05000
N 	N 	0.88120 0.34080 0.34470 0.01300
C 	C 	0.86490 0.31520 0.37830 1.48800
C 	C 	0.82280 0.32080 0.39510 0.20400
C 	C 	0.79900 0.35760 0.38040 0.78200
C 	C 	0.81080 0.37630 0.34130 -0.33500
C 	C 	0.85200 0.36820 0.32310 -0.24500
C 	C 	0.80560 0.29060 0.43250 0.25500
O 	O 	0.77040 0.29900 0.45050 -0.40800
O 	O 	0.83000 0.26180 0.44670 -0.25700
Ni	Ni	0.68236 0.94157 0.68236 1.11900
O 	O 	0.67657 0.91226 0.74542 -0.38900
O 	O 	0.68644 0.96292 0.61624 -0.40200
O 	O 	0.61611 0.96293 0.68680 -0.44500
N 	N 	0.66200 0.87880 0.65600 -0.22100
O 	O 	0.74529 0.91230 0.67670 -0.38700
C 	C 	0.69757 0.91902 0.78123 0.36800
C 	C 	0.68670 0.86390 0.62180 0.53100
C 	C 	0.63640 0.84970 0.67730 -0.80400
C 	C 	0.78103 0.91891 0.69728 0.37300
O 	O 	0.72159 0.95220 0.79017 -0.40400
O 	O 	0.79027 0.95238 0.72165 -0.40000
C 	C 	0.69566 0.88337 0.81729 -0.05000
H 	H 	0.70820 0.88260 0.60920 -0.12500
C 	C 	0.68120 0.82240 0.60530 -0.03200
C 	C 	0.62690 0.81010 0.65820 -0.91300
H 	H 	0.62500 0.85670 0.70550 -0.53200
C 	C 	0.81724 0.88366 0.69587 -0.07400
C 	C 	0.67400 0.84349 0.81105 -0.03100
C 	C 	0.71700 0.88947 0.85717 -0.02700
C 	C 	0.68730 0.96101 0.52330 0.01200
C 	C 	0.52321 0.96088 0.68790 0.02000
C 	C 	0.64620 0.79830 0.62070 0.43600
C 	C 	0.71180 0.80520 0.57040 0.31900
H 	H 	0.60650 0.79090 0.67180 0.04500
C 	C 	0.81120 0.84387 0.67340 0.00600
C 	C 	0.85717 0.88938 0.71650 -0.00100
H 	H 	0.65930 0.83810 0.78410 0.09000
H 	H 	0.73210 0.91620 0.86250 0.06200
H 	H 	0.68680 0.93380 0.53850 0.05000
H 	H 	0.53840 0.93370 0.68770 0.01400
H 	H 	0.63590 0.77360 0.60480 -0.18600
O 	O 	0.70090 0.77070 0.54940 -0.38800
O 	O 	0.73820 0.83240 0.55230 -0.24200
H 	H 	0.78480 0.83910 0.65750 0.06300
H 	H 	0.86280 0.91640 0.73090 0.05400
N 	N 	0.65530 0.88120 0.65920 0.01300
C 	C 	0.62170 0.86490 0.68480 1.48700
C 	C 	0.60490 0.82280 0.67920 0.20400
C 	C 	0.61960 0.79900 0.64240 0.78200
C 	C 	0.65870 0.81080 0.62370 -0.33500
C 	C 	0.67690 0.85200 0.63180 -0.24500
C 	C 	0.56750 0.80560 0.70940 0.25400
O 	O 	0.54950 0.77040 0.70100 -0.40700
O 	O 	0.55330 0.83000 0.73820 -0.25600
Ni	Ni	0.68236 0.05843 0.31764 1.11400
O 	O 	0.67657 0.08774 0.25458 -0.39400
O 	O 	0.68644 0.03708 0.38376 -0.42200
O 	O 	0.61611 0.03707 0.31320 -0.46500
N 	N 	0.66200 0.12120 0.34400 -0.22400
O 	O 	0.74529 0.08770 0.32330 -0.39200
C 	C 	0.69757 0.08098 0.21877 0.36900
C 	C 	0.68670 0.13610 0.37820 0.53700
C 	C 	0.63640 0.15030 0.32270 -0.81900
C 	C 	0.78103 0.08109 0.30272 0.37500
O 	O 	0.72159 0.04780 0.20983 -0.42200
O 	O 	0.79027 0.04762 0.27835 -0.41700
C 	C 	0.69566 0.11663 0.18271 -0.05500
H 	H 	0.70820 0.11740 0.39080 -0.12800
C 	C 	0.68120 0.17760 0.39470 -0.03200
C 	C 	0.62690 0.18990 0.34180 -0.92700
H 	H 	0.62500 0.14330 0.29450 -0.54200
C 	C 	0.81724 0.11634 0.30413 -0.08100
C 	C 	0.67400 0.15651 0.18895 -0.03200
C 	C 	0.71700 0.11053 0.14283 -0.02900
C 	C 	0.68730 0.03899 0.47670 -0.01100
C 	C 	0.52321 0.03912 0.31210 -0.00200
C 	C 	0.64620 0.20170 0.37930 0.44100
C 	C 	0.71180 0.19480 0.42960 0.31900
H 	H 	0.60650 0.20910 0.32820 0.04400
C 	C 	0.81120 0.15613 0.32660 0.00900
C 	C 	0.85717 0.11062 0.28350 0.00200
H 	H 	0.65930 0.16190 0.21590 0.09000
H 	H 	0.73210 0.08380 0.13750 0.05200
H 	H 	0.68680 0.06620 0.46150 0.05300
H 	H 	0.53840 0.06630 0.31230 0.01600
H 	H 	0.63590 0.22640 0.39520 -0.18900
O 	O 	0.70090 0.22930 0.45060 -0.38800
O 	O 	0.73820 0.16760 0.44770 -0.24400
H 	H 	0.78480 0.16090 0.34250 0.06200
H 	H 	0.86280 0.08360 0.26910 0.04500
N 	N 	0.65530 0.11880 0.34080 0.01500
C 	C 	0.62170 0.13510 0.31520 1.51100
C 	C 	0.60490 0.17720 0.32080 0.20900
C 	C 	0.61960 0.20100 0.35760 0.79400
C 	C 	0.65870 0.18920 0.37630 -0.33900
C 	C 	0.67690 0.14800 0.36820 -0.24800
C 	C 	0.56750 0.19440 0.29060 0.25300
O 	O 	0.54950 0.22960 0.29900 -0.40800
O 	O 	0.55330 0.17000 0.26180 -0.26000
Ni	Ni	0.31764 0.05843 0.68236 1.11400
O 	O 	0.32343 0.08774 0.74542 -0.39400
O 	O 	0.31356 0.03708 0.61624 -0.42200
O 	O 	0.38389 0.03707 0.68680 -0.46500
N 	N 	0.33800 0.12120 0.65600 -0.22400
O 	O 	0.25471 0.08770 0.67670 -0.39200
C 	C 	0.30243 0.08098 0.78123 0.37100
C 	C 	0.31330 0.13610 0.62180 0.53600
C 	C 	0.36360 0.15030 0.67730 -0.81800
C 	C 	0.21897 0.08109 0.69728 0.37400
O 	O 	0.27841 0.04780 0.79017 -0.42100
O 	O 	0.20973 0.04762 0.72165 -0.41800
C 	C 	0.30434 0.11663 0.81729 -0.05700
H 	H 	0.29180 0.11740 0.60920 -0.12900
C 	C 	0.31880 0.17760 0.60530 -0.03300
C 	C 	0.37310 0.18990 0.65820 -0.92600
H 	H 	0.37500 0.14330 0.70550 -0.54100
C 	C 	0.18276 0.11634 0.69587 -0.07900
C 	C 	0.32600 0.15651 0.81105 -0.02800
C 	C 	0.28300 0.11053 0.85717 -0.02400
C 	C 	0.31270 0.03899 0.52330 -0.01100
C 	C 	0.47679 0.03912 0.68790 -0.00200
C 	C 	0.35380 0.20170 0.62070 0.44100
C 	C 	0.28820 0.19480 0.57040 0.31900
H 	H 	0.39350 0.20910 0.67180 0.04400
C 	C 	0.18880 0.15613 0.67340 0.00500
C 	C 	0.14283 0.11062 0.71650 -0.00200
H 	H 	0.34070 0.16190 0.78410 0.08900
H 	H 	0.26790 0.08380 0.86250 0.05300
H 	H 	0.31320 0.06620 0.53850 0.05300
H 	H 	0.46160 0.06630 0.68770 0.01700
H 	H 	0.36410 0.22640 0.60480 -0.18900
O 	O 	0.29910 0.22930 0.54940 -0.38800
O 	O 	0.26180 0.16760 0.55230 -0.24600
H 	H 	0.21520 0.16090 0.65750 0.06200
H 	H 	0.13720 0.08360 0.73090 0.04300
N 	N 	0.34470 0.11880 0.65920 0.01500
C 	C 	0.37830 0.13510 0.68480 1.51000
C 	C 	0.39510 0.17720 0.67920 0.20900
C 	C 	0.38040 0.20100 0.64240 0.79300
C 	C 	0.34130 0.18920 0.62370 -0.33900
C 	C 	0.32310 0.14800 0.63180 -0.24700
C 	C 	0.43250 0.19440 0.70940 0.25200
O 	O 	0.45050 0.22960 0.70100 -0.40800
O 	O 	0.44670 0.17000 0.73820 -0.25800
Ni	Ni	0.31764 0.94157 0.31764 1.11900
O 	O 	0.32343 0.91226 0.25458 -0.38900
O 	O 	0.31356 0.96292 0.38376 -0.40200
O 	O 	0.38389 0.96293 0.31320 -0.44500
N 	N 	0.33800 0.87880 0.34400 -0.22100
O 	O 	0.25471 0.91230 0.32330 -0.38800
C 	C 	0.30243 0.91902 0.21877 0.36700
C 	C 	0.31330 0.86390 0.37820 0.53100
C 	C 	0.36360 0.84970 0.32270 -0.80400
C 	C 	0.21897 0.91891 0.30272 0.37200
O 	O 	0.27841 0.95220 0.20983 -0.40600
O 	O 	0.20973 0.95238 0.27835 -0.40200
C 	C 	0.30434 0.88337 0.18271 -0.04900
H 	H 	0.29180 0.88260 0.39080 -0.12500
C 	C 	0.31880 0.82240 0.39470 -0.03200
C 	C 	0.37310 0.81010 0.34180 -0.91400
H 	H 	0.37500 0.85670 0.29450 -0.53300
C 	C 	0.18276 0.88366 0.30413 -0.07300
C 	C 	0.32600 0.84349 0.18895 -0.03400
C 	C 	0.28300 0.88947 0.14283 -0.03200
C 	C 	0.31270 0.96101 0.47670 0.01100
C 	C 	0.47679 0.96088 0.31210 0.02000
C 	C 	0.35380 0.79830 0.37930 0.43600
C 	C 	0.28820 0.80520 0.42960 0.31900
H 	H 	0.39350 0.79090 0.32820 0.04500
C 	C 	0.18880 0.84387 0.32660 0.00300
C 	C 	0.14283 0.88938 0.28350 -0.00600
H 	H 	0.34070 0.83810 0.21590 0.09100
H 	H 	0.26790 0.91620 0.13750 0.05800
H 	H 	0.31320 0.93380 0.46150 0.05000
H 	H 	0.46160 0.93370 0.31230 0.01400
H 	H 	0.36410 0.77360 0.39520 -0.18600
O 	O 	0.29910 0.77070 0.45060 -0.38800
O 	O 	0.26180 0.83240 0.44770 -0.24300
H 	H 	0.21520 0.83910 0.34250 0.06400
H 	H 	0.13720 0.91640 0.26910 0.05000
N 	N 	0.34470 0.88120 0.34080 0.01300
C 	C 	0.37830 0.86490 0.31520 1.48800
C 	C 	0.39510 0.82280 0.32080 0.20400
C 	C 	0.38040 0.79900 0.35760 0.78200
C 	C 	0.34130 0.81080 0.37630 -0.33500
C 	C 	0.32310 0.85200 0.36820 -0.24500
C 	C 	0.43250 0.80560 0.29060 0.25500
O 	O 	0.45050 0.77040 0.29900 -0.40800
O 	O 	0.44670 0.83000 0.26180 -0.25700
Ni	Ni	0.68236 0.68236 0.94157 1.11900
O 	O 	0.74542 0.67657 0.91226 -0.38900
O 	O 	0.61624 0.68644 0.96292 -0.40200
O 	O 	0.68680 0.61611 0.96293 -0.44500
N 	N 	0.65600 0.66200 0.87880 -0.22100
O 	O 	0.67670 0.74529 0.91230 -0.38700
C 	C 	0.78123 0.69757 0.91902 0.36800
C 	C 	0.62180 0.68670 0.86390 0.53100
C 	C 	0.67730 0.63640 0.84970 -0.80400
C 	C 	0.69728 0.78103 0.91891 0.37300
O 	O 	0.79017 0.72159 0.95220 -0.40400
O 	O 	0.72165 0.79027 0.95238 -0.40000
C 	C 	0.81729 0.69566 0.88337 -0.05000
H 	H 	0.60920 0.70820 0.88260 -0.12500
C 	C 	0.60530 0.68120 0.82240 -0.03200
C 	C 	0.65820 0.62690 0.81010 -0.91300
H 	H 	0.70550 0.62500 0.85670 -0.53200
C 	C 	0.69587 0.81724 0.88366 -0.07400
C 	C 	0.81105 0.67400 0.84349 -0.03100
C 	C 	0.85717 0.71700 0.88947 -0.02700
C 	C 	0.52330 0.68730 0.96101 0.01200
C 	C 	0.68790 0.52321 0.96088 0.02000
C 	C 	0.62070 0.64620 0.79830 0.43600
C 	C 	0.57040 0.71180 0.80520 0.31900
H 	H 	0.67180 0.60650 0.79090 0.04500
C 	C 	0.67340 0.81120 0.84387 0.00600
C 	C 	0.71650 0.85717 0.88938 -0.00100
H 	H 	0.78410 0.65930 0.83810 0.09000
H 	H 	0.86250 0.73210 0.91620 0.06200
H 	H 	0.53850 0.68680 0.93380 0.05000
H 	H 	0.68770 0.53840 0.93370 0.01400
H 	H 	0.60480 0.63590 0.77360 -0.18600
O 	O 	0.54940 0.70090 0.77070 -0.38800
O 	O 	0.55230 0.73820 0.83240 -0.24200
H 	H 	0.65750 0.78480 0.83910 0.06300
H 	H 	0.73090 0.86280 0.91640 0.05400
N 	N 	0.65920 0.65530 0.88120 0.01300
C 	C 	0.68480 0.62170 0.86490 1.48700
C 	C 	0.67920 0.60490 0.82280 0.20400
C 	C 	0.64240 0.61960 0.79900 0.78200
C 	C 	0.62370 0.65870 0.81080 -0.33500
C 	C 	0.63180 0.67690 0.85200 -0.24500
C 	C 	0.70940 0.56750 0.80560 0.25400
O 	O 	0.70100 0.54950 0.77040 -0.40700
O 	O 	0.73820 0.55330 0.83000 -0.25600
Ni	Ni	0.31764 0.68236 0.05843 1.11400
O 	O 	0.25458 0.67657 0.08774 -0.39400
O 	O 	0.38376 0.68644 0.03708 -0.42200
O 	O 	0.31320 0.61611 0.03707 -0.46500
N 	N 	0.34400 0.66200 0.12120 -0.22400
O 	O 	0.32330 0.74529 0.08770 -0.39200
C 	C 	0.21877 0.69757 0.08098 0.36900
C 	C 	0.37820 0.68670 0.13610 0.53700
C 	C 	0.32270 0.63640 0.15030 -0.81900
C 	C 	0.30272 0.78103 0.08109 0.37500
O 	O 	0.20983 0.72159 0.04780 -0.42200
O 	O 	0.27835 0.79027 0.04762 -0.41700
C 	C 	0.18271 0.69566 0.11663 -0.05500
H 	H 	0.39080 0.70820 0.11740 -0.12800
C 	C 	0.39470 0.68120 0.17760 -0.03200
C 	C 	0.34180 0.62690 0.18990 -0.92700
H 	H 	0.29450 0.62500 0.14330 -0.54200
C 	C 	0.30413 0.81724 0.11634 -0.08100
C 	C 	0.18895 0.67400 0.15651 -0.03200
C 	C 	0.14283 0.71700 0.11053 -0.02900
C 	C 	0.47670 0.68730 0.03899 -0.01100
C 	C 	0.31210 0.52321 0.03912 -0.00200
C 	C 	0.37930 0.64620 0.20170 0.44100
C 	C 	0.42960 0.71180 0.19480 0.31900
H 	H 	0.32820 0.60650 0.20910 0.04400
C 	C 	0.32660 0.81120 0.15613 0.00900
C 	C 	0.28350 0.85717 0.11062 0.00200
H 	H 	0.21590 0.65930 0.16190 0.09000
H 	H 	0.13750 0.73210 0.08380 0.05200
H 	H 	0.46150 0.68680 0.06620 0.05300
H 	H 	0.31230 0.53840 0.06630 0.01600
H 	H 	0.39520 0.63590 0.22640 -0.18900
O 	O 	0.45060 0.70090 0.22930 -0.38800
O 	O 	0.44770 0.73820 0.16760 -0.24400
H 	H 	0.34250 0.78480 0.16090 0.06200
H 	H 	0.26910 0.86280 0.08360 0.04500
N 	N 	0.34080 0.65530 0.11880 0.01500
C 	C 	0.31520 0.62170 0.13510 1.51100
C 	C 	0.32080 0.60490 0.17720 0.20900
C 	C 	0.35760 0.61960 0.20100 0.79400
C 	C 	0.37630 0.65870 0.18920 -0.33900
C 	C 	0.36820 0.67690 0.14800 -0.24800
C 	C 	0.29060 0.56750 0.19440 0.25300
O 	O 	0.29900 0.54950 0.22960 -0.40800
O 	O 	0.26180 0.55330 0.17000 -0.26000
Ni	Ni	0.68236 0.31764 0.05843 1.11400
O 	O 	0.74542 0.32343 0.08774 -0.39400
O 	O 	0.61624 0.31356 0.03708 -0.42200
O 	O 	0.68680 0.38389 0.03707 -0.46500
N 	N 	0.65600 0.33800 0.12120 -0.22400
O 	O 	0.67670 0.25471 0.08770 -0.39200
C 	C 	0.78123 0.30243 0.08098 0.37100
C 	C 	0.62180 0.31330 0.13610 0.53600
C 	C 	0.67730 0.36360 0.15030 -0.81800
C 	C 	0.69728 0.21897 0.08109 0.37400
O 	O 	0.79017 0.27841 0.04780 -0.42100
O 	O 	0.72165 0.20973 0.04762 -0.41800
C 	C 	0.81729 0.30434 0.11663 -0.05700
H 	H 	0.60920 0.29180 0.11740 -0.12900
C 	C 	0.60530 0.31880 0.17760 -0.03300
C 	C 	0.65820 0.37310 0.18990 -0.92600
H 	H 	0.70550 0.37500 0.14330 -0.54100
C 	C 	0.69587 0.18276 0.11634 -0.07900
C 	C 	0.81105 0.32600 0.15651 -0.02800
C 	C 	0.85717 0.28300 0.11053 -0.02400
C 	C 	0.52330 0.31270 0.03899 -0.01100
C 	C 	0.68790 0.47679 0.03912 -0.00200
C 	C 	0.62070 0.35380 0.20170 0.44100
C 	C 	0.57040 0.28820 0.19480 0.31900
H 	H 	0.67180 0.39350 0.20910 0.04400
C 	C 	0.67340 0.18880 0.15613 0.00500
C 	C 	0.71650 0.14283 0.11062 -0.00200
H 	H 	0.78410 0.34070 0.16190 0.08900
H 	H 	0.86250 0.26790 0.08380 0.05300
H 	H 	0.53850 0.31320 0.06620 0.05300
H 	H 	0.68770 0.46160 0.06630 0.01700
H 	H 	0.60480 0.36410 0.22640 -0.18900
O 	O 	0.54940 0.29910 0.22930 -0.38800
O 	O 	0.55230 0.26180 0.16760 -0.24600
H 	H 	0.65750 0.21520 0.16090 0.06200
H 	H 	0.73090 0.13720 0.08360 0.04300
N 	N 	0.65920 0.34470 0.11880 0.01500
C 	C 	0.68480 0.37830 0.13510 1.51000
C 	C 	0.67920 0.39510 0.17720 0.20900
C 	C 	0.64240 0.38040 0.20100 0.79300
C 	C 	0.62370 0.34130 0.18920 -0.33900
C 	C 	0.63180 0.32310 0.14800 -0.24700
C 	C 	0.70940 0.43250 0.19440 0.25200
O 	O 	0.70100 0.45050 0.22960 -0.40800
O 	O 	0.73820 0.44670 0.17000 -0.25800
Ni	Ni	0.31764 0.31764 0.94157 1.11900
O 	O 	0.25458 0.32343 0.91226 -0.38900
O 	O 	0.38376 0.31356 0.96292 -0.40200
O 	O 	0.31320 0.38389 0.96293 -0.44500
N 	N 	0.34400 0.33800 0.87880 -0.22100
O 	O 	0.32330 0.25471 0.91230 -0.38800
C 	C 	0.21877 0.30243 0.91902 0.36700
C 	C 	0.37820 0.31330 0.86390 0.53100
C 	C 	0.32270 0.36360 0.84970 -0.80400
C 	C 	0.30272 0.21897 0.91891 0.37200
O 	O 	0.20983 0.27841 0.95220 -0.40600
O 	O 	0.27835 0.20973 0.95238 -0.40200
C 	C 	0.18271 0.30434 0.88337 -0.04900
H 	H 	0.39080 0.29180 0.88260 -0.12500
C 	C 	0.39470 0.31880 0.82240 -0.03200
C 	C 	0.34180 0.37310 0.81010 -0.91400
H 	H 	0.29450 0.37500 0.85670 -0.53300
C 	C 	0.30413 0.18276 0.88366 -0.07300
C 	C 	0.18895 0.32600 0.84349 -0.03400
C 	C 	0.14283 0.28300 0.88947 -0.03200
C 	C 	0.47670 0.31270 0.96101 0.01100
C 	C 	0.31210 0.47679 0.96088 0.02000
C 	C 	0.37930 0.35380 0.79830 0.43600
C 	C 	0.42960 0.28820 0.80520 0.31900
H 	H 	0.32820 0.39350 0.79090 0.04500
C 	C 	0.32660 0.18880 0.84387 0.00300
C 	C 	0.28350 0.14283 0.88938 -0.00600
H 	H 	0.21590 0.34070 0.83810 0.09100
H 	H 	0.13750 0.26790 0.91620 0.05800
H 	H 	0.46150 0.31320 0.93380 0.05000
H 	H 	0.31230 0.46160 0.93370 0.01400
H 	H 	0.39520 0.36410 0.77360 -0.18600
O 	O 	0.45060 0.29910 0.77070 -0.38800
O 	O 	0.44770 0.26180 0.83240 -0.24300
H 	H 	0.34250 0.21520 0.83910 0.06400
H 	H 	0.26910 0.13720 0.91640 0.05000
N 	N 	0.34080 0.34470 0.88120 0.01300
C 	C 	0.31520 0.37830 0.86490 1.48800
C 	C 	0.32080 0.39510 0.82280 0.20400
C 	C 	0.35760 0.38040 0.79900 0.78200
C 	C 	0.37630 0.34130 0.81080 -0.33500
C 	C 	0.36820 0.32310 0.85200 -0.24500
C 	C 	0.29060 0.43250 0.80560 0.25500
O 	O 	0.29900 0.45050 0.77040 -0.40800
O 	O 	0.26180 0.44670 0.83000 -0.25700
O 	O 	-0.00000 0.29460 0.29446 -0.57900
Ni	Ni	0.00000 0.24760 0.24761 1.11300
C 	C 	0.00000 0.40199 0.31270 0.37700
C 	C 	0.00000 0.31270 0.40212 0.40200
C 	C 	0.00000 0.45250 0.31180 -0.10500
C 	C 	-0.00000 0.31180 0.45270 -0.13400
O 	O 	0.00000 0.70540 0.29446 -0.57900
Ni	Ni	-0.00000 0.75240 0.24761 1.11400
C 	C 	0.00000 0.59801 0.31270 0.37700
C 	C 	-0.00000 0.68730 0.40212 0.40200
C 	C 	0.00000 0.54750 0.31180 -0.10500
C 	C 	-0.00000 0.68820 0.45270 -0.13300
O 	O 	-0.00000 0.29460 0.70554 -0.57900
Ni	Ni	0.00000 0.24760 0.75239 1.11400
C 	C 	-0.00000 0.40199 0.68730 0.37800
C 	C 	-0.00000 0.31270 0.59788 0.40200
C 	C 	0.00000 0.45250 0.68820 -0.10500
C 	C 	-0.00000 0.31180 0.54730 -0.13400
O 	O 	-0.00000 0.70540 0.70554 -0.57900
Ni	Ni	0.00000 0.75240 0.75239 1.11400
C 	C 	0.00000 0.59801 0.68730 0.37800
C 	C 	0.00000 0.68730 0.59788 0.40200
C 	C 	0.00000 0.54750 0.68820 -0.10500
C 	C 	0.00000 0.68820 0.54730 -0.13300
O 	O 	0.29446 0.00000 0.29460 -0.57900
Ni	Ni	0.24761 0.00000 0.24760 1.11300
C 	C 	0.31270 0.00000 0.40199 0.37700
C 	C 	0.40212 0.00000 0.31270 0.40200
C 	C 	0.31180 0.00000 0.45250 -0.10500
C 	C 	0.45270 0.00000 0.31180 -0.13400
O 	O 	0.29446 0.00000 0.70540 -0.57900
Ni	Ni	0.24761 0.00000 0.75240 1.11400
C 	C 	0.31270 0.00000 0.59801 0.37700
C 	C 	0.40212 0.00000 0.68730 0.40200
C 	C 	0.31180 0.00000 0.54750 -0.10500
C 	C 	0.45270 0.00000 0.68820 -0.13300
O 	O 	0.70554 0.00000 0.29460 -0.57900
Ni	Ni	0.75239 0.00000 0.24760 1.11400
C 	C 	0.68730 0.00000 0.40199 0.37800
C 	C 	0.59788 0.00000 0.31270 0.40200
C 	C 	0.68820 0.00000 0.45250 -0.10500
C 	C 	0.54730 0.00000 0.31180 -0.13400
O 	O 	0.70554 0.00000 0.70540 -0.57900
Ni	Ni	0.75239 0.00000 0.75240 1.11400
C 	C 	0.68730 0.00000 0.59801 0.37800
C 	C 	0.59788 0.00000 0.68730 0.40200
C 	C 	0.68820 0.00000 0.54750 -0.10500
C 	C 	0.54730 0.00000 0.68820 -0.13300
O 	O 	0.29460 0.29446 -0.00000 -0.57900
Ni	Ni	0.24760 0.24761 -0.00000 1.11300
C 	C 	0.40199 0.31270 -0.00000 0.37700
C 	C 	0.31270 0.40212 -0.00000 0.40200
C 	C 	0.45250 0.31180 -0.00000 -0.10500
C 	C 	0.31180 0.45270 -0.00000 -0.13400
O 	O 	0.70540 0.29446 -0.00000 -0.57900
Ni	Ni	0.75240 0.24761 -0.00000 1.11400
C 	C 	0.59801 0.31270 -0.00000 0.37700
C 	C 	0.68730 0.40212 -0.00000 0.40200
C 	C 	0.54750 0.31180 -0.00000 -0.10500
C 	C 	0.68820 0.45270 -0.00000 -0.13300
O 	O 	0.29460 0.70554 -0.00000 -0.57900
Ni	Ni	0.24760 0.75239 -0.00000 1.11400
C 	C 	0.40199 0.68730 -0.00000 0.37800
C 	C 	0.31270 0.59788 -0.00000 0.40200
C 	C 	0.45250 0.68820 -0.00000 -0.10500
C 	C 	0.31180 0.54730 -0.00000 -0.13400
O 	O 	0.70540 0.70554 -0.00000 -0.57900
Ni	Ni	0.75240 0.75239 -0.00000 1.11400
C 	C 	0.59801 0.68730 -0.00000 0.37800
C 	C 	0.68730 0.59788 -0.00000 0.40200
C 	C 	0.54750 0.68820 -0.00000 -0.10500
C 	C 	0.68820 0.54730 -0.00000 -0.13300
Ni	Ni	0.26428 0.50000 0.26432 1.09300
Ni	Ni	0.73572 0.50000 0.26432 1.09300
Ni	Ni	0.73572 0.50000 0.73568 1.09300
Ni	Ni	0.26428 0.50000 0.73568 1.09300
Ni	Ni	0.26432 0.26428 0.50000 1.09300
Ni	Ni	0.26432 0.73572 0.50000 1.09300
Ni	Ni	0.73568 0.73572 0.50000 1.09300
Ni	Ni	0.73568 0.26428 0.50000 1.09300
Ni	Ni	0.50000 0.26432 0.26428 1.09300
Ni	Ni	0.50000 0.26432 0.73572 1.09300
Ni	Ni	0.50000 0.73568 0.73572 1.09300
Ni	Ni	0.50000 0.73568 0.26428 1.09300
