data_crystal

_cell_length_a 14.79320
_cell_length_b 16.78850
_cell_length_c 27.77250
_cell_angle_alpha 90.00000
_cell_angle_beta  90.00000
_cell_angle_gamma 90.00000

_symmetry_space_group_name_	'P 1'
_symmetry_space_group_name_H-M	'P 1'

loop_
_symmetry_equiv_pos_as_xyz
  x,y,z

loop_
_atom_site_label
_atom_site_type_symbol
_atom_site_fract_x
_atom_site_fract_y
_atom_site_fract_z
_atom_site_charge
N 	N 	0.43910 0.94923 0.38777 -0.14000
O 	O 	0.32461 0.23776 0.19270 -0.38900
O 	O 	0.30105 0.93097 0.42549 -0.21500
C 	C 	0.38020 0.94850 0.42698 0.19900
O 	O 	0.43497 0.31497 0.22202 -0.28800
N 	N 	0.30120 0.14826 0.27694 -0.23100
O 	O 	0.58824 0.98134 0.37253 -0.22100
C 	C 	0.40280 0.27180 0.19074 0.31300
C 	C 	0.38950 0.13780 0.28023 0.10100
H 	H 	0.42840 0.17890 0.26910 0.00800
C 	C 	0.40860 0.26490 0.10087 -0.01300
H 	H 	0.34530 0.27470 0.10080 0.05500
C 	C 	0.45380 0.25805 0.14428 -0.04300
C 	C 	0.42800 0.06910 0.29938 -0.18100
H 	H 	0.49180 0.06350 0.30110 0.11000
C 	C 	0.40950 0.98400 0.51655 -0.02700
H 	H 	0.34980 0.97390 0.52740 0.07100
C 	C 	0.52570 0.97420 0.40031 0.19900
C 	C 	0.43520 0.97370 0.46926 -0.03000
C 	C 	0.41070 0.93381 0.33845 -0.14900
H 	H 	0.36440 0.89130 0.33820 0.10000
H 	H 	0.46310 0.91520 0.31930 0.10100
C 	C 	0.28050 0.02020 0.31271 -0.18400
H 	H 	0.24030 0.98020 0.32390 0.11400
C 	C 	0.37190 0.00902 0.31585 0.16000
C 	C 	0.47730 0.01030 0.54702 -0.03000
C 	C 	0.24710 0.08970 0.29325 0.10500
H 	H 	0.18340 0.09650 0.29120 0.00800
C 	C 	0.45380 0.25760 0.05792 -0.03500
H 	H 	0.42210 0.26290 0.02830 0.05300
N 	N 	0.93910 0.44923 0.88777 -0.14000
O 	O 	0.82461 0.73776 0.69270 -0.38900
O 	O 	0.80105 0.43097 0.92549 -0.21400
C 	C 	0.88020 0.44850 0.92698 0.20000
O 	O 	0.93497 0.81497 0.72202 -0.28700
N 	N 	0.80120 0.64826 0.77694 -0.23000
O 	O 	0.08824 0.48134 0.87253 -0.22000
C 	C 	0.90280 0.77180 0.69074 0.31400
C 	C 	0.88950 0.63780 0.78023 0.10200
H 	H 	0.92840 0.67890 0.76910 0.00900
C 	C 	0.90860 0.76490 0.60087 -0.01200
H 	H 	0.84530 0.77470 0.60080 0.05600
C 	C 	0.95380 0.75805 0.64428 -0.04200
C 	C 	0.92800 0.56910 0.79938 -0.18000
H 	H 	0.99180 0.56350 0.80110 0.11100
C 	C 	0.90950 0.48400 0.01655 -0.02600
H 	H 	0.84980 0.47390 0.02740 0.07200
C 	C 	0.02570 0.47420 0.90031 0.20000
C 	C 	0.93520 0.47370 0.96926 -0.02900
C 	C 	0.91070 0.43381 0.83845 -0.14800
H 	H 	0.86440 0.39130 0.83820 0.10100
H 	H 	0.96310 0.41520 0.81930 0.10200
C 	C 	0.78050 0.52020 0.81271 -0.18300
H 	H 	0.74030 0.48020 0.82390 0.11500
C 	C 	0.87190 0.50902 0.81585 0.16100
C 	C 	0.97730 0.51030 0.04702 -0.02900
C 	C 	0.74710 0.58970 0.79325 0.10600
H 	H 	0.68340 0.59650 0.79120 0.00900
C 	C 	0.95380 0.75760 0.55792 -0.03400
H 	H 	0.92210 0.76290 0.52830 0.05400
N 	N 	0.06090 0.05077 0.88777 -0.13900
O 	O 	0.17539 0.76224 0.69270 -0.38800
O 	O 	0.19895 0.06903 0.92549 -0.21400
C 	C 	0.11980 0.05150 0.92698 0.20000
O 	O 	0.06503 0.68503 0.72202 -0.28700
N 	N 	0.19880 0.85174 0.77694 -0.23000
O 	O 	0.91176 0.01866 0.87253 -0.22000
C 	C 	0.09720 0.72820 0.69074 0.31400
C 	C 	0.11050 0.86220 0.78023 0.10200
H 	H 	0.07160 0.82110 0.76910 0.00900
C 	C 	0.09140 0.73510 0.60087 -0.01200
H 	H 	0.15470 0.72530 0.60080 0.05600
C 	C 	0.04620 0.74195 0.64428 -0.04200
C 	C 	0.07200 0.93090 0.79938 -0.18000
H 	H 	0.00820 0.93650 0.80110 0.11100
C 	C 	0.09050 0.01600 0.01655 -0.02600
H 	H 	0.15020 0.02610 0.02740 0.07200
C 	C 	0.97430 0.02580 0.90031 0.20000
C 	C 	0.06480 0.02630 0.96926 -0.02900
C 	C 	0.08930 0.06619 0.83845 -0.14800
H 	H 	0.13560 0.10870 0.83820 0.10100
H 	H 	0.03690 0.08480 0.81930 0.10200
C 	C 	0.21950 0.97980 0.81271 -0.18300
H 	H 	0.25970 0.01980 0.82390 0.11500
C 	C 	0.12810 0.99098 0.81585 0.16100
C 	C 	0.02270 0.98970 0.04702 -0.02900
C 	C 	0.25290 0.91030 0.79325 0.10600
H 	H 	0.31660 0.90350 0.79120 0.00900
C 	C 	0.04620 0.74240 0.55792 -0.03400
H 	H 	0.07790 0.73710 0.52830 0.05400
N 	N 	0.56090 0.55077 0.38777 -0.13900
O 	O 	0.67539 0.26224 0.19270 -0.38800
O 	O 	0.69895 0.56903 0.42549 -0.21400
C 	C 	0.61980 0.55150 0.42698 0.20000
O 	O 	0.56503 0.18503 0.22202 -0.28700
N 	N 	0.69880 0.35174 0.27694 -0.23000
O 	O 	0.41176 0.51866 0.37253 -0.22000
C 	C 	0.59720 0.22820 0.19074 0.31400
C 	C 	0.61050 0.36220 0.28023 0.10200
H 	H 	0.57160 0.32110 0.26910 0.00900
C 	C 	0.59140 0.23510 0.10087 -0.01200
H 	H 	0.65470 0.22530 0.10080 0.05600
C 	C 	0.54620 0.24195 0.14428 -0.04200
C 	C 	0.57200 0.43090 0.29938 -0.18000
H 	H 	0.50820 0.43650 0.30110 0.11100
C 	C 	0.59050 0.51600 0.51655 -0.02600
H 	H 	0.65020 0.52610 0.52740 0.07200
C 	C 	0.47430 0.52580 0.40031 0.20000
C 	C 	0.56480 0.52630 0.46926 -0.02900
C 	C 	0.58930 0.56619 0.33845 -0.14800
H 	H 	0.63560 0.60870 0.33820 0.10100
H 	H 	0.53690 0.58480 0.31930 0.10200
C 	C 	0.71950 0.47980 0.31271 -0.18300
H 	H 	0.75970 0.51980 0.32390 0.11500
C 	C 	0.62810 0.49098 0.31585 0.16100
C 	C 	0.52270 0.48970 0.54702 -0.02900
C 	C 	0.75290 0.41030 0.29325 0.10600
H 	H 	0.81660 0.40350 0.29120 0.00900
C 	C 	0.54620 0.24240 0.05792 -0.03400
H 	H 	0.57790 0.23710 0.02830 0.05400
N 	N 	0.56090 0.05077 0.61223 -0.13900
O 	O 	0.67539 0.76224 0.80730 -0.38800
O 	O 	0.69895 0.06903 0.57451 -0.21400
C 	C 	0.61980 0.05150 0.57302 0.20000
O 	O 	0.56503 0.68503 0.77798 -0.28700
N 	N 	0.69880 0.85174 0.72306 -0.23000
O 	O 	0.41176 0.01866 0.62747 -0.22000
C 	C 	0.59720 0.72820 0.80926 0.31400
C 	C 	0.61050 0.86220 0.71977 0.10200
H 	H 	0.57160 0.82110 0.73090 0.00900
C 	C 	0.59140 0.73510 0.89913 -0.01200
H 	H 	0.65470 0.72530 0.89920 0.05600
C 	C 	0.54620 0.74195 0.85572 -0.04200
C 	C 	0.57200 0.93090 0.70062 -0.18000
H 	H 	0.50820 0.93650 0.69890 0.11100
C 	C 	0.59050 0.01600 0.48345 -0.02600
H 	H 	0.65020 0.02610 0.47260 0.07200
C 	C 	0.47430 0.02580 0.59969 0.20000
C 	C 	0.56480 0.02630 0.53074 -0.02900
C 	C 	0.58930 0.06619 0.66155 -0.14800
H 	H 	0.63560 0.10870 0.66180 0.10100
H 	H 	0.53690 0.08480 0.68070 0.10200
C 	C 	0.71950 0.97980 0.68729 -0.18300
H 	H 	0.75970 0.01980 0.67610 0.11500
C 	C 	0.62810 0.99098 0.68415 0.16100
C 	C 	0.52270 0.98970 0.45298 -0.02900
C 	C 	0.75290 0.91030 0.70675 0.10600
H 	H 	0.81660 0.90350 0.70880 0.00900
C 	C 	0.54620 0.74240 0.94208 -0.03400
H 	H 	0.57790 0.73710 0.97170 0.05400
N 	N 	0.06090 0.55077 0.11223 -0.13900
O 	O 	0.17539 0.26224 0.30730 -0.38800
O 	O 	0.19895 0.56903 0.07451 -0.21400
C 	C 	0.11980 0.55150 0.07302 0.20000
O 	O 	0.06503 0.18503 0.27798 -0.28700
N 	N 	0.19880 0.35174 0.22306 -0.23000
O 	O 	0.91176 0.51866 0.12747 -0.22000
C 	C 	0.09720 0.22820 0.30926 0.31400
C 	C 	0.11050 0.36220 0.21977 0.10200
H 	H 	0.07160 0.32110 0.23090 0.00900
C 	C 	0.09140 0.23510 0.39913 -0.01200
H 	H 	0.15470 0.22530 0.39920 0.05600
C 	C 	0.04620 0.24195 0.35572 -0.04200
C 	C 	0.07200 0.43090 0.20062 -0.18000
H 	H 	0.00820 0.43650 0.19890 0.11100
C 	C 	0.09050 0.51600 0.98345 -0.02600
H 	H 	0.15020 0.52610 0.97260 0.07200
C 	C 	0.97430 0.52580 0.09969 0.20000
C 	C 	0.06480 0.52630 0.03074 -0.02900
C 	C 	0.08930 0.56619 0.16155 -0.14800
H 	H 	0.13560 0.60870 0.16180 0.10100
H 	H 	0.03690 0.58480 0.18070 0.10200
C 	C 	0.21950 0.47980 0.18729 -0.18300
H 	H 	0.25970 0.51980 0.17610 0.11500
C 	C 	0.12810 0.49098 0.18415 0.16100
C 	C 	0.02270 0.48970 0.95298 -0.02900
C 	C 	0.25290 0.41030 0.20675 0.10600
H 	H 	0.31660 0.40350 0.20880 0.00900
C 	C 	0.04620 0.24240 0.44208 -0.03400
H 	H 	0.07790 0.23710 0.47170 0.05400
N 	N 	0.93910 0.94923 0.11223 -0.13900
O 	O 	0.82461 0.23776 0.30730 -0.38800
O 	O 	0.80105 0.93097 0.07451 -0.21400
C 	C 	0.88020 0.94850 0.07302 0.20000
O 	O 	0.93497 0.31497 0.27798 -0.28700
N 	N 	0.80120 0.14826 0.22306 -0.23000
O 	O 	0.08824 0.98134 0.12747 -0.22000
C 	C 	0.90280 0.27180 0.30926 0.31400
C 	C 	0.88950 0.13780 0.21977 0.10200
H 	H 	0.92840 0.17890 0.23090 0.00900
C 	C 	0.90860 0.26490 0.39913 -0.01200
H 	H 	0.84530 0.27470 0.39920 0.05600
C 	C 	0.95380 0.25805 0.35572 -0.04200
C 	C 	0.92800 0.06910 0.20062 -0.18000
H 	H 	0.99180 0.06350 0.19890 0.11100
C 	C 	0.90950 0.98400 0.98345 -0.02600
H 	H 	0.84980 0.97390 0.97260 0.07200
C 	C 	0.02570 0.97420 0.09969 0.20000
C 	C 	0.93520 0.97370 0.03074 -0.02900
C 	C 	0.91070 0.93381 0.16155 -0.14800
H 	H 	0.86440 0.89130 0.16180 0.10100
H 	H 	0.96310 0.91520 0.18070 0.10200
C 	C 	0.78050 0.02020 0.18729 -0.18300
H 	H 	0.74030 0.98020 0.17610 0.11500
C 	C 	0.87190 0.00902 0.18415 0.16100
C 	C 	0.97730 0.01030 0.95298 -0.02900
C 	C 	0.74710 0.08970 0.20675 0.10600
H 	H 	0.68340 0.09650 0.20880 0.00900
C 	C 	0.95380 0.25760 0.44208 -0.03400
H 	H 	0.92210 0.26290 0.47170 0.05400
N 	N 	0.43910 0.44923 0.61223 -0.13900
O 	O 	0.32461 0.73776 0.80730 -0.38800
O 	O 	0.30105 0.43097 0.57451 -0.21400
C 	C 	0.38020 0.44850 0.57302 0.20000
O 	O 	0.43497 0.81497 0.77798 -0.28700
N 	N 	0.30120 0.64826 0.72306 -0.23000
O 	O 	0.58824 0.48134 0.62747 -0.22000
C 	C 	0.40280 0.77180 0.80926 0.31400
C 	C 	0.38950 0.63780 0.71977 0.10200
H 	H 	0.42840 0.67890 0.73090 0.00900
C 	C 	0.40860 0.76490 0.89913 -0.01200
H 	H 	0.34530 0.77470 0.89920 0.05600
C 	C 	0.45380 0.75805 0.85572 -0.04200
C 	C 	0.42800 0.56910 0.70062 -0.18000
H 	H 	0.49180 0.56350 0.69890 0.11100
C 	C 	0.40950 0.48400 0.48345 -0.02600
H 	H 	0.34980 0.47390 0.47260 0.07200
C 	C 	0.52570 0.47420 0.59969 0.20000
C 	C 	0.43520 0.47370 0.53074 -0.02900
C 	C 	0.41070 0.43381 0.66155 -0.14800
H 	H 	0.36440 0.39130 0.66180 0.10100
H 	H 	0.46310 0.41520 0.68070 0.10200
C 	C 	0.28050 0.52020 0.68729 -0.18300
H 	H 	0.24030 0.48020 0.67610 0.11500
C 	C 	0.37190 0.50902 0.68415 0.16100
C 	C 	0.47730 0.51030 0.45298 -0.02900
C 	C 	0.24710 0.58970 0.70675 0.10600
H 	H 	0.18340 0.59650 0.70880 0.00900
C 	C 	0.45380 0.75760 0.94208 -0.03400
H 	H 	0.42210 0.76290 0.97170 0.05400
Cu	Cu	0.25000 0.25000 0.25000 0.90200
Cu	Cu	0.25000 0.75000 0.75000 0.90200
Cu	Cu	0.75000 0.75000 0.75000 0.90200
Cu	Cu	0.75000 0.25000 0.25000 0.90200
N 	N 	0.56090 0.44923 0.11223 -0.13900
O 	O 	0.67539 0.73776 0.30730 -0.38800
O 	O 	0.69895 0.43097 0.07451 -0.21400
C 	C 	0.61980 0.44850 0.07302 0.20000
O 	O 	0.56503 0.81497 0.27798 -0.28700
N 	N 	0.69880 0.64826 0.22306 -0.23000
O 	O 	0.41176 0.48134 0.12747 -0.22000
C 	C 	0.59720 0.77180 0.30926 0.31400
C 	C 	0.61050 0.63780 0.21977 0.10200
H 	H 	0.57160 0.67890 0.23090 0.00900
C 	C 	0.59140 0.76490 0.39913 -0.01200
H 	H 	0.65470 0.77470 0.39920 0.05600
C 	C 	0.54620 0.75805 0.35572 -0.04200
C 	C 	0.57200 0.56910 0.20062 -0.18000
H 	H 	0.50820 0.56350 0.19890 0.11100
C 	C 	0.59050 0.48400 0.98345 -0.02600
H 	H 	0.65020 0.47390 0.97260 0.07200
C 	C 	0.47430 0.47420 0.09969 0.20000
C 	C 	0.56480 0.47370 0.03074 -0.02900
C 	C 	0.58930 0.43381 0.16155 -0.14800
H 	H 	0.63560 0.39130 0.16180 0.10100
H 	H 	0.53690 0.41520 0.18070 0.10200
C 	C 	0.71950 0.52020 0.18729 -0.18300
H 	H 	0.75970 0.48020 0.17610 0.11500
C 	C 	0.62810 0.50902 0.18415 0.16100
C 	C 	0.52270 0.51030 0.95298 -0.02900
C 	C 	0.75290 0.58970 0.20675 0.10600
H 	H 	0.81660 0.59650 0.20880 0.00900
C 	C 	0.54620 0.75760 0.44208 -0.03400
H 	H 	0.57790 0.76290 0.47170 0.05400
N 	N 	0.06090 0.94923 0.61223 -0.13900
O 	O 	0.17539 0.23776 0.80730 -0.38800
O 	O 	0.19895 0.93097 0.57451 -0.21400
C 	C 	0.11980 0.94850 0.57302 0.20000
O 	O 	0.06503 0.31497 0.77798 -0.28700
N 	N 	0.19880 0.14826 0.72306 -0.23000
O 	O 	0.91176 0.98134 0.62747 -0.22000
C 	C 	0.09720 0.27180 0.80926 0.31400
C 	C 	0.11050 0.13780 0.71977 0.10200
H 	H 	0.07160 0.17890 0.73090 0.00900
C 	C 	0.09140 0.26490 0.89913 -0.01200
H 	H 	0.15470 0.27470 0.89920 0.05600
C 	C 	0.04620 0.25805 0.85572 -0.04200
C 	C 	0.07200 0.06910 0.70062 -0.18000
H 	H 	0.00820 0.06350 0.69890 0.11100
C 	C 	0.09050 0.98400 0.48345 -0.02600
H 	H 	0.15020 0.97390 0.47260 0.07200
C 	C 	0.97430 0.97420 0.59969 0.20000
C 	C 	0.06480 0.97370 0.53074 -0.02900
C 	C 	0.08930 0.93381 0.66155 -0.14800
H 	H 	0.13560 0.89130 0.66180 0.10100
H 	H 	0.03690 0.91520 0.68070 0.10200
C 	C 	0.21950 0.02020 0.68729 -0.18300
H 	H 	0.25970 0.98020 0.67610 0.11500
C 	C 	0.12810 0.00902 0.68415 0.16100
C 	C 	0.02270 0.01030 0.45298 -0.02900
C 	C 	0.25290 0.08970 0.70675 0.10600
H 	H 	0.31660 0.09650 0.70880 0.00900
C 	C 	0.04620 0.25760 0.94208 -0.03400
H 	H 	0.07790 0.26290 0.97170 0.05400
N 	N 	0.93910 0.55077 0.61223 -0.13900
O 	O 	0.82461 0.26224 0.80730 -0.38800
O 	O 	0.80105 0.56903 0.57451 -0.21400
C 	C 	0.88020 0.55150 0.57302 0.20000
O 	O 	0.93497 0.18503 0.77798 -0.28700
N 	N 	0.80120 0.35174 0.72306 -0.23000
O 	O 	0.08824 0.51866 0.62747 -0.22000
C 	C 	0.90280 0.22820 0.80926 0.31400
C 	C 	0.88950 0.36220 0.71977 0.10200
H 	H 	0.92840 0.32110 0.73090 0.00900
C 	C 	0.90860 0.23510 0.89913 -0.01200
H 	H 	0.84530 0.22530 0.89920 0.05600
C 	C 	0.95380 0.24195 0.85572 -0.04200
C 	C 	0.92800 0.43090 0.70062 -0.18000
H 	H 	0.99180 0.43650 0.69890 0.11100
C 	C 	0.90950 0.51600 0.48345 -0.02600
H 	H 	0.84980 0.52610 0.47260 0.07200
C 	C 	0.02570 0.52580 0.59969 0.20000
C 	C 	0.93520 0.52630 0.53074 -0.02900
C 	C 	0.91070 0.56619 0.66155 -0.14800
H 	H 	0.86440 0.60870 0.66180 0.10100
H 	H 	0.96310 0.58480 0.68070 0.10200
C 	C 	0.78050 0.47980 0.68729 -0.18300
H 	H 	0.74030 0.51980 0.67610 0.11500
C 	C 	0.87190 0.49098 0.68415 0.16100
C 	C 	0.97730 0.48970 0.45298 -0.02900
C 	C 	0.74710 0.41030 0.70675 0.10600
H 	H 	0.68340 0.40350 0.70880 0.00900
C 	C 	0.95380 0.24240 0.94208 -0.03400
H 	H 	0.92210 0.23710 0.97170 0.05400
N 	N 	0.43910 0.05077 0.11223 -0.13900
O 	O 	0.32461 0.76224 0.30730 -0.38800
O 	O 	0.30105 0.06903 0.07451 -0.21400
C 	C 	0.38020 0.05150 0.07302 0.20000
O 	O 	0.43497 0.68503 0.27798 -0.28700
N 	N 	0.30120 0.85174 0.22306 -0.23000
O 	O 	0.58824 0.01866 0.12747 -0.22000
C 	C 	0.40280 0.72820 0.30926 0.31400
C 	C 	0.38950 0.86220 0.21977 0.10200
H 	H 	0.42840 0.82110 0.23090 0.00900
C 	C 	0.40860 0.73510 0.39913 -0.01200
H 	H 	0.34530 0.72530 0.39920 0.05600
C 	C 	0.45380 0.74195 0.35572 -0.04200
C 	C 	0.42800 0.93090 0.20062 -0.18000
H 	H 	0.49180 0.93650 0.19890 0.11100
C 	C 	0.40950 0.01600 0.98345 -0.02600
H 	H 	0.34980 0.02610 0.97260 0.07200
C 	C 	0.52570 0.02580 0.09969 0.20000
C 	C 	0.43520 0.02630 0.03074 -0.02900
C 	C 	0.41070 0.06619 0.16155 -0.14800
H 	H 	0.36440 0.10870 0.16180 0.10100
H 	H 	0.46310 0.08480 0.18070 0.10200
C 	C 	0.28050 0.97980 0.18729 -0.18300
H 	H 	0.24030 0.01980 0.17610 0.11500
C 	C 	0.37190 0.99098 0.18415 0.16100
C 	C 	0.47730 0.98970 0.95298 -0.02900
C 	C 	0.24710 0.91030 0.20675 0.10600
H 	H 	0.18340 0.90350 0.20880 0.00900
C 	C 	0.45380 0.74240 0.44208 -0.03400
H 	H 	0.42210 0.73710 0.47170 0.05400
N 	N 	0.43910 0.55077 0.88777 -0.13900
O 	O 	0.32461 0.26224 0.69270 -0.38800
O 	O 	0.30105 0.56903 0.92549 -0.21400
C 	C 	0.38020 0.55150 0.92698 0.20000
O 	O 	0.43497 0.18503 0.72202 -0.28700
N 	N 	0.30120 0.35174 0.77694 -0.23000
O 	O 	0.58824 0.51866 0.87253 -0.22000
C 	C 	0.40280 0.22820 0.69074 0.31400
C 	C 	0.38950 0.36220 0.78023 0.10200
H 	H 	0.42840 0.32110 0.76910 0.00900
C 	C 	0.40860 0.23510 0.60087 -0.01200
H 	H 	0.34530 0.22530 0.60080 0.05600
C 	C 	0.45380 0.24195 0.64428 -0.04200
C 	C 	0.42800 0.43090 0.79938 -0.18000
H 	H 	0.49180 0.43650 0.80110 0.11100
C 	C 	0.40950 0.51600 0.01655 -0.02600
H 	H 	0.34980 0.52610 0.02740 0.07200
C 	C 	0.52570 0.52580 0.90031 0.20000
C 	C 	0.43520 0.52630 0.96926 -0.02900
C 	C 	0.41070 0.56619 0.83845 -0.14800
H 	H 	0.36440 0.60870 0.83820 0.10100
H 	H 	0.46310 0.58480 0.81930 0.10200
C 	C 	0.28050 0.47980 0.81271 -0.18300
H 	H 	0.24030 0.51980 0.82390 0.11500
C 	C 	0.37190 0.49098 0.81585 0.16100
C 	C 	0.47730 0.48970 0.04702 -0.02900
C 	C 	0.24710 0.41030 0.79325 0.10600
H 	H 	0.18340 0.40350 0.79120 0.00900
C 	C 	0.45380 0.24240 0.55792 -0.03400
H 	H 	0.42210 0.23710 0.52830 0.05400
N 	N 	0.93910 0.05077 0.38777 -0.13900
O 	O 	0.82461 0.76224 0.19270 -0.38800
O 	O 	0.80105 0.06903 0.42549 -0.21400
C 	C 	0.88020 0.05150 0.42698 0.20000
O 	O 	0.93497 0.68503 0.22202 -0.28700
N 	N 	0.80120 0.85174 0.27694 -0.23000
O 	O 	0.08824 0.01866 0.37253 -0.22000
C 	C 	0.90280 0.72820 0.19074 0.31400
C 	C 	0.88950 0.86220 0.28023 0.10200
H 	H 	0.92840 0.82110 0.26910 0.00900
C 	C 	0.90860 0.73510 0.10087 -0.01200
H 	H 	0.84530 0.72530 0.10080 0.05600
C 	C 	0.95380 0.74195 0.14428 -0.04200
C 	C 	0.92800 0.93090 0.29938 -0.18000
H 	H 	0.99180 0.93650 0.30110 0.11100
C 	C 	0.90950 0.01600 0.51655 -0.02600
H 	H 	0.84980 0.02610 0.52740 0.07200
C 	C 	0.02570 0.02580 0.40031 0.20000
C 	C 	0.93520 0.02630 0.46926 -0.02900
C 	C 	0.91070 0.06619 0.33845 -0.14800
H 	H 	0.86440 0.10870 0.33820 0.10100
H 	H 	0.96310 0.08480 0.31930 0.10200
C 	C 	0.78050 0.97980 0.31271 -0.18300
H 	H 	0.74030 0.01980 0.32390 0.11500
C 	C 	0.87190 0.99098 0.31585 0.16100
C 	C 	0.97730 0.98970 0.54702 -0.02900
C 	C 	0.74710 0.91030 0.29325 0.10600
H 	H 	0.68340 0.90350 0.29120 0.00900
C 	C 	0.95380 0.74240 0.05792 -0.03400
H 	H 	0.92210 0.73710 0.02830 0.05400
N 	N 	0.06090 0.44923 0.38777 -0.13900
O 	O 	0.17539 0.73776 0.19270 -0.38800
O 	O 	0.19895 0.43097 0.42549 -0.21400
C 	C 	0.11980 0.44850 0.42698 0.20000
O 	O 	0.06503 0.81497 0.22202 -0.28700
N 	N 	0.19880 0.64826 0.27694 -0.23000
O 	O 	0.91176 0.48134 0.37253 -0.22000
C 	C 	0.09720 0.77180 0.19074 0.31400
C 	C 	0.11050 0.63780 0.28023 0.10200
H 	H 	0.07160 0.67890 0.26910 0.00900
C 	C 	0.09140 0.76490 0.10087 -0.01200
H 	H 	0.15470 0.77470 0.10080 0.05600
C 	C 	0.04620 0.75805 0.14428 -0.04200
C 	C 	0.07200 0.56910 0.29938 -0.18000
H 	H 	0.00820 0.56350 0.30110 0.11100
C 	C 	0.09050 0.48400 0.51655 -0.02600
H 	H 	0.15020 0.47390 0.52740 0.07200
C 	C 	0.97430 0.47420 0.40031 0.20000
C 	C 	0.06480 0.47370 0.46926 -0.02900
C 	C 	0.08930 0.43381 0.33845 -0.14800
H 	H 	0.13560 0.39130 0.33820 0.10100
H 	H 	0.03690 0.41520 0.31930 0.10200
C 	C 	0.21950 0.52020 0.31271 -0.18300
H 	H 	0.25970 0.48020 0.32390 0.11500
C 	C 	0.12810 0.50902 0.31585 0.16100
C 	C 	0.02270 0.51030 0.54702 -0.02900
C 	C 	0.25290 0.58970 0.29325 0.10600
H 	H 	0.31660 0.59650 0.29120 0.00900
C 	C 	0.04620 0.75760 0.05792 -0.03400
H 	H 	0.07790 0.76290 0.02830 0.05400
N 	N 	0.56090 0.94923 0.88777 -0.13900
O 	O 	0.67539 0.23776 0.69270 -0.38800
O 	O 	0.69895 0.93097 0.92549 -0.21400
C 	C 	0.61980 0.94850 0.92698 0.20000
O 	O 	0.56503 0.31497 0.72202 -0.28700
N 	N 	0.69880 0.14826 0.77694 -0.23000
O 	O 	0.41176 0.98134 0.87253 -0.22000
C 	C 	0.59720 0.27180 0.69074 0.31400
C 	C 	0.61050 0.13780 0.78023 0.10200
H 	H 	0.57160 0.17890 0.76910 0.00900
C 	C 	0.59140 0.26490 0.60087 -0.01200
H 	H 	0.65470 0.27470 0.60080 0.05600
C 	C 	0.54620 0.25805 0.64428 -0.04200
C 	C 	0.57200 0.06910 0.79938 -0.18000
H 	H 	0.50820 0.06350 0.80110 0.11100
C 	C 	0.59050 0.98400 0.01655 -0.02600
H 	H 	0.65020 0.97390 0.02740 0.07200
C 	C 	0.47430 0.97420 0.90031 0.20000
C 	C 	0.56480 0.97370 0.96926 -0.02900
C 	C 	0.58930 0.93381 0.83845 -0.14800
H 	H 	0.63560 0.89130 0.83820 0.10100
H 	H 	0.53690 0.91520 0.81930 0.10200
C 	C 	0.71950 0.02020 0.81271 -0.18300
H 	H 	0.75970 0.98020 0.82390 0.11500
C 	C 	0.62810 0.00902 0.81585 0.16100
C 	C 	0.52270 0.01030 0.04702 -0.02900
C 	C 	0.75290 0.08970 0.79325 0.10600
H 	H 	0.81660 0.09650 0.79120 0.00900
C 	C 	0.54620 0.25760 0.55792 -0.03400
H 	H 	0.57790 0.26290 0.52830 0.05400
Cu	Cu	0.75000 0.75000 0.25000 0.90200
Cu	Cu	0.75000 0.25000 0.75000 0.90200
Cu	Cu	0.25000 0.25000 0.75000 0.90200
Cu	Cu	0.25000 0.75000 0.25000 0.90200
