data_crystal

_cell_length_a 15.28410
_cell_length_b 16.72790
_cell_length_c 17.83740
_cell_angle_alpha 117.96300
_cell_angle_beta  115.36800
_cell_angle_gamma 90.00000

_symmetry_space_group_name_	'P 1'
_symmetry_space_group_name_H-M	'P 1'

loop_
_symmetry_equiv_pos_as_xyz
  x,y,z

loop_
_atom_site_label
_atom_site_type_symbol
_atom_site_fract_x
_atom_site_fract_y
_atom_site_fract_z
_atom_site_charge
Cu	Cu	0.50000 0.00000 0.50000 0.87200
Cu	Cu	0.00000 0.00000 0.50000 0.85600
H 	H 	0.60710 0.88960 0.58400 0.01800
H 	H 	0.58470 0.80110 0.64720 0.10700
H 	H 	0.31670 0.86100 0.60160 0.11100
H 	H 	0.34580 0.94620 0.53800 0.02100
H 	H 	0.48020 0.72830 0.67820 0.09600
H 	H 	0.36460 0.73030 0.63680 0.10200
H 	H 	0.32540 0.99270 0.93900 0.05000
H 	H 	0.24880 0.88260 0.20160 0.06200
H 	H 	0.10100 0.79420 0.05460 0.05100
H 	H 	0.97690 0.19440 0.58400 0.06100
H 	H 	0.06250 0.34610 0.64720 0.08200
H 	H 	0.28490 0.24060 0.60160 0.10400
H 	H 	0.19220 0.09180 0.53800 0.00200
H 	H 	0.19800 0.44990 0.67820 0.09200
H 	H 	0.27220 0.40650 0.63680 0.10000
H 	H 	0.61360 0.44630 0.93900 0.08200
H 	H 	0.95280 0.81900 0.20160 0.09700
H 	H 	0.95360 0.76040 0.05460 0.09300
H 	H 	0.39290 0.11040 0.41600 0.00500
H 	H 	0.41530 0.19890 0.35280 0.10700
H 	H 	0.68330 0.13900 0.39840 0.11000
H 	H 	0.65420 0.05380 0.46200 0.00300
H 	H 	0.51980 0.27170 0.32180 0.09700
H 	H 	0.63540 0.26970 0.36320 0.10300
H 	H 	0.67460 0.00730 0.06100 0.09300
H 	H 	0.75120 0.11740 0.79840 0.04500
H 	H 	0.89900 0.20580 0.94540 0.06000
H 	H 	0.02310 0.80560 0.41600 -0.03100
H 	H 	0.93750 0.65390 0.35280 0.13100
H 	H 	0.71510 0.75940 0.39840 0.11600
H 	H 	0.80780 0.90820 0.46200 0.02300
H 	H 	0.80200 0.55010 0.32180 0.10300
H 	H 	0.72780 0.59350 0.36320 0.10600
H 	H 	0.38640 0.55370 0.06100 0.06000
H 	H 	0.04720 0.18100 0.79840 0.00600
H 	H 	0.04640 0.23960 0.94540 0.00600
C 	C 	0.54739 0.88349 0.58758 0.10100
C 	C 	0.53496 0.83106 0.62612 -0.16800
C 	C 	0.44927 0.82367 0.63294 0.15400
C 	C 	0.37720 0.86620 0.59900 -0.16900
C 	C 	0.39507 0.91677 0.56094 0.09800
C 	C 	0.43406 0.76976 0.67692 -0.14300
C 	C 	0.37951 0.87011 0.79882 0.21800
C 	C 	0.43359 0.94049 0.90598 -0.07500
C 	C 	0.53455 0.94365 0.93970 0.04900
C 	C 	0.54763 0.87593 0.85626 0.17900
C 	C 	0.39481 0.99571 0.96342 0.06600
C 	C 	0.28237 0.96747 0.38254 0.39000
C 	C 	0.18981 0.90521 0.29042 -0.06300
C 	C 	0.18856 0.87006 0.20212 0.00200
C 	C 	0.10060 0.81680 0.11420 -0.01700
C 	C 	0.04019 0.20409 0.58758 0.01000
C 	C 	0.09116 0.29506 0.62612 -0.13000
C 	C 	0.18367 0.30927 0.63294 0.12900
C 	C 	0.22180 0.23280 0.59900 -0.15900
C 	C 	0.16587 0.14417 0.56094 0.08300
C 	C 	0.24286 0.40716 0.67692 -0.13200
C 	C 	0.41931 0.42871 0.79882 0.19100
C 	C 	0.47239 0.46549 0.90598 -0.00400
C 	C 	0.40515 0.49605 0.93970 -0.06900
C 	C 	0.30863 0.48033 0.85626 0.20900
C 	C 	0.56861 0.46771 0.96342 -0.07300
C 	C 	0.10017 0.91507 0.38254 0.31200
C 	C 	0.10061 0.88521 0.29042 -0.01700
C 	C 	0.01356 0.83206 0.20212 -0.05000
C 	C 	0.01360 0.79740 0.11420 -0.06700
C 	C 	0.45261 0.11651 0.41242 0.09100
C 	C 	0.46504 0.16894 0.37388 -0.17300
C 	C 	0.55073 0.17633 0.36706 0.15200
C 	C 	0.62280 0.13380 0.40100 -0.17600
C 	C 	0.60493 0.08323 0.43906 0.09300
C 	C 	0.56594 0.23024 0.32308 -0.14500
C 	C 	0.62049 0.12989 0.20118 0.18200
C 	C 	0.56641 0.05951 0.09402 0.02000
C 	C 	0.46545 0.05635 0.06030 -0.10800
C 	C 	0.45237 0.12407 0.14374 0.21700
C 	C 	0.60519 0.00429 0.03658 -0.11900
C 	C 	0.71763 0.03253 0.61746 0.25000
C 	C 	0.81019 0.09479 0.70958 -0.03400
C 	C 	0.81144 0.12994 0.79788 -0.01500
C 	C 	0.89940 0.18320 0.88580 -0.06000
C 	C 	0.95981 0.79591 0.41242 0.17200
C 	C 	0.90884 0.70494 0.37388 -0.20700
C 	C 	0.81633 0.69073 0.36706 0.17500
C 	C 	0.77820 0.76720 0.40100 -0.18400
C 	C 	0.83413 0.85583 0.43906 0.10700
C 	C 	0.75714 0.59284 0.32308 -0.15400
C 	C 	0.58069 0.57129 0.20118 0.20800
C 	C 	0.52761 0.53451 0.09402 -0.05100
C 	C 	0.59485 0.50395 0.06030 0.01000
C 	C 	0.69137 0.51967 0.14374 0.18700
C 	C 	0.43139 0.53229 0.03658 0.01900
C 	C 	0.89983 0.08493 0.61746 0.32300
C 	C 	0.89939 0.11479 0.70958 -0.07700
C 	C 	0.98644 0.16794 0.79788 0.03600
C 	C 	0.98640 0.20260 0.88580 0.00900
N 	N 	0.47813 0.92543 0.55546 -0.21500
N 	N 	0.45295 0.83495 0.77570 -0.13800
N 	N 	0.07733 0.13003 0.55546 -0.22300
N 	N 	0.32275 0.44075 0.77570 -0.14200
N 	N 	0.52187 0.07457 0.44454 -0.23400
N 	N 	0.54705 0.16505 0.22430 -0.14100
N 	N 	0.92267 0.86997 0.44454 -0.22200
N 	N 	0.67725 0.55925 0.22430 -0.13700
O 	O 	0.62470 0.85880 0.85560 -0.19900
O 	O 	0.29141 0.84761 0.74202 -0.22400
O 	O 	0.36232 0.93932 0.39024 -0.38300
O 	O 	0.27945 0.04235 0.44510 -0.33300
O 	O 	0.23090 0.49680 0.85560 -0.22600
O 	O 	0.45061 0.39441 0.74202 -0.22000
O 	O 	0.02792 0.95092 0.39024 -0.36500
O 	O 	0.16565 0.90275 0.44510 -0.26300
O 	O 	0.37530 0.14120 0.14440 -0.22700
O 	O 	0.70859 0.15239 0.25798 -0.21700
O 	O 	0.63768 0.06068 0.60976 -0.38600
O 	O 	0.72055 0.95765 0.55490 -0.21900
O 	O 	0.76910 0.50320 0.14440 -0.20000
O 	O 	0.54939 0.60559 0.25798 -0.22200
O 	O 	0.97208 0.04908 0.60976 -0.39300
O 	O 	0.83435 0.09725 0.55490 -0.28300
Cu	Cu	-0.00000 0.50000 0.50000 0.88100
Cu	Cu	0.50000 0.50000 0.50000 0.89600
H 	H 	0.89290 0.30560 0.41600 0.01200
H 	H 	0.91530 0.15390 0.35280 0.09300
H 	H 	0.18330 0.25940 0.39840 0.10000
H 	H 	0.15420 0.40820 0.46200 0.01600
H 	H 	0.01980 0.05010 0.32180 0.06500
H 	H 	0.13540 0.09350 0.36320 0.08600
H 	H 	0.17460 0.05370 0.06100 0.07700
H 	H 	0.25120 0.68100 0.79840 0.05100
H 	H 	0.39900 0.73960 0.94540 0.05500
H 	H 	0.52310 0.61040 0.41600 0.01100
H 	H 	0.43750 0.69890 0.35280 0.11000
H 	H 	0.21510 0.63900 0.39840 0.10800
H 	H 	0.30780 0.55380 0.46200 0.01100
H 	H 	0.30200 0.77170 0.32180 0.09900
H 	H 	0.22780 0.76970 0.36320 0.10100
H 	H 	0.88640 0.50730 0.06100 0.03800
H 	H 	0.54720 0.61740 0.79840 0.05500
H 	H 	0.54640 0.70580 0.94540 0.05500
H 	H 	0.10710 0.69440 0.58400 0.01200
H 	H 	0.08470 0.84610 0.64720 0.12200
H 	H 	0.81670 0.74060 0.60160 0.12000
H 	H 	0.84580 0.59180 0.53800 0.00800
H 	H 	0.98020 0.94990 0.67820 0.12900
H 	H 	0.86460 0.90650 0.63680 0.11800
H 	H 	0.82540 0.94630 0.93900 0.06600
H 	H 	0.74880 0.31900 0.20160 0.05700
H 	H 	0.60100 0.26040 0.05460 0.05200
H 	H 	0.47690 0.38960 0.58400 0.01100
H 	H 	0.56250 0.30110 0.64720 0.10600
H 	H 	0.78490 0.36100 0.60160 0.11300
H 	H 	0.69220 0.44620 0.53800 0.01200
H 	H 	0.69800 0.22830 0.67820 0.09600
H 	H 	0.77220 0.23030 0.63680 0.10400
H 	H 	0.11360 0.49270 0.93900 0.10600
H 	H 	0.45280 0.38260 0.20160 0.05300
H 	H 	0.45360 0.29420 0.05460 0.05300
C 	C 	0.95261 0.29591 0.41242 0.11100
C 	C 	0.96504 0.20494 0.37388 -0.10900
C 	C 	0.05073 0.19073 0.36706 0.09000
C 	C 	0.12280 0.26720 0.40100 -0.14500
C 	C 	0.10493 0.35583 0.43906 0.07600
C 	C 	0.06594 0.09284 0.32308 -0.10900
C 	C 	0.12049 0.07129 0.20118 0.19300
C 	C 	0.06641 0.03451 0.09402 -0.04700
C 	C 	0.96545 0.00395 0.06030 -0.04700
C 	C 	0.95237 0.01967 0.14374 0.23200
C 	C 	0.10519 0.03229 0.03658 -0.07500
C 	C 	0.21763 0.58493 0.61746 0.32100
C 	C 	0.31019 0.61479 0.70958 -0.05000
C 	C 	0.31144 0.66794 0.79788 -0.00700
C 	C 	0.39940 0.70260 0.88580 -0.03700
C 	C 	0.45981 0.61651 0.41242 0.09600
C 	C 	0.40884 0.66894 0.37388 -0.17200
C 	C 	0.31633 0.67633 0.36706 0.15300
C 	C 	0.27820 0.63380 0.40100 -0.17300
C 	C 	0.33413 0.58323 0.43906 0.09500
C 	C 	0.25714 0.73024 0.32308 -0.14400
C 	C 	0.08069 0.62989 0.20118 0.22800
C 	C 	0.02761 0.55951 0.09402 -0.12900
C 	C 	0.09485 0.55635 0.06030 0.06000
C 	C 	0.19137 0.62407 0.14374 0.17000
C 	C 	0.93139 0.50429 0.03658 0.10600
C 	C 	0.39983 0.53253 0.61746 0.31900
C 	C 	0.39939 0.59479 0.70958 -0.04600
C 	C 	0.48644 0.62994 0.79788 -0.01000
C 	C 	0.48640 0.68320 0.88580 -0.03300
C 	C 	0.04739 0.70409 0.58758 0.08100
C 	C 	0.03496 0.79506 0.62612 -0.22800
C 	C 	0.94927 0.80927 0.63294 0.21200
C 	C 	0.87720 0.73280 0.59900 -0.19800
C 	C 	0.89507 0.64417 0.56094 0.11400
C 	C 	0.93406 0.90716 0.67692 -0.17600
C 	C 	0.87951 0.92871 0.79882 0.20600
C 	C 	0.93359 0.96549 0.90598 -0.01100
C 	C 	0.03455 0.99605 0.93970 -0.00700
C 	C 	0.04763 0.98033 0.85626 0.16600
C 	C 	0.89481 0.96771 0.96342 0.01800
C 	C 	0.78237 0.41507 0.38254 0.31600
C 	C 	0.68981 0.38521 0.29042 -0.04500
C 	C 	0.68856 0.33206 0.20212 -0.01100
C 	C 	0.60060 0.29740 0.11420 -0.03300
C 	C 	0.54019 0.38349 0.58758 0.09600
C 	C 	0.59116 0.33106 0.62612 -0.17100
C 	C 	0.68367 0.32367 0.63294 0.15300
C 	C 	0.72180 0.36620 0.59900 -0.17300
C 	C 	0.66587 0.41677 0.56094 0.09700
C 	C 	0.74286 0.26976 0.67692 -0.14400
C 	C 	0.91931 0.37011 0.79882 0.17000
C 	C 	0.97239 0.44049 0.90598 0.07900
C 	C 	0.90515 0.44365 0.93970 -0.11500
C 	C 	0.80863 0.37593 0.85626 0.22600
C 	C 	0.06861 0.49571 0.96342 -0.16900
C 	C 	0.60017 0.46747 0.38254 0.32000
C 	C 	0.60061 0.40521 0.29042 -0.04900
C 	C 	0.51356 0.37006 0.20212 -0.00700
C 	C 	0.51360 0.31680 0.11420 -0.03700
N 	N 	0.02187 0.36997 0.44454 -0.24300
N 	N 	0.04705 0.05925 0.22430 -0.16600
N 	N 	0.42267 0.57457 0.44454 -0.22800
N 	N 	0.17725 0.66505 0.22430 -0.14000
N 	N 	0.97813 0.63003 0.55546 -0.20900
N 	N 	0.95295 0.94075 0.77570 -0.11500
N 	N 	0.57733 0.42543 0.55546 -0.22800
N 	N 	0.82275 0.33495 0.77570 -0.13900
O 	O 	0.87530 0.00320 0.14440 -0.22900
O 	O 	0.20859 0.10559 0.25798 -0.22800
O 	O 	0.13768 0.54908 0.60976 -0.39500
O 	O 	0.22055 0.59725 0.55490 -0.27900
O 	O 	0.26910 0.64120 0.14440 -0.19900
O 	O 	0.04939 0.65239 0.25798 -0.24100
O 	O 	0.47208 0.56068 0.60976 -0.38800
O 	O 	0.33435 0.45765 0.55490 -0.27600
O 	O 	0.12470 0.99680 0.85560 -0.19500
O 	O 	0.79141 0.89441 0.74202 -0.21400
O 	O 	0.86232 0.45092 0.39024 -0.37700
O 	O 	0.77945 0.40275 0.44510 -0.27100
O 	O 	0.73090 0.35880 0.85560 -0.22600
O 	O 	0.95061 0.34761 0.74202 -0.19800
O 	O 	0.52792 0.43932 0.39024 -0.38900
O 	O 	0.66565 0.54235 0.44510 -0.27500
