data_crystal

_cell_length_a 14.58600
_cell_length_b 18.06800
_cell_length_c 24.84600
_cell_angle_alpha 90.00000
_cell_angle_beta  90.00000
_cell_angle_gamma 90.00000

_symmetry_space_group_name_	'P 1'
_symmetry_space_group_name_H-M	'P 1'

loop_
_symmetry_equiv_pos_as_xyz
  x,y,z

loop_
_atom_site_label
_atom_site_type_symbol
_atom_site_fract_x
_atom_site_fract_y
_atom_site_fract_z
_atom_site_charge
Zn	Zn	0.46049 0.93962 0.14407 1.22000
Zn	Zn	0.49629 0.74682 0.14498 1.24500
O 	O 	0.33040 0.91460 0.15110 -0.48100
O 	O 	0.38240 0.80830 0.12049 -0.47900
O 	O 	0.66390 0.57830 0.14240 -0.48700
O 	O 	0.61440 0.68890 0.16666 -0.46800
O 	O 	0.52610 0.92510 0.07734 -0.48200
O 	O 	0.58410 0.81600 0.10216 -0.46100
O 	O 	0.97960 0.92970 0.71279 -0.47800
O 	O 	0.91160 0.82480 0.68780 -0.44500
O 	O 	0.53200 0.92200 0.20932 -0.50100
O 	O 	0.50560 0.80180 0.21767 -0.45500
O 	O 	0.95820 0.93180 0.58083 -0.49600
O 	O 	0.98320 0.81100 0.57465 -0.44600
N 	N 	0.46700 0.05309 0.14360 -0.22400
N 	N 	0.52620 0.43920 0.14320 -0.22100
C 	C 	0.51530 0.08770 0.10540 0.03100
H 	H 	0.54180 0.05900 0.07740 0.01700
C 	C 	0.52840 0.16400 0.10490 -0.07000
H 	H 	0.56220 0.18730 0.07690 0.05800
C 	C 	0.49070 0.20470 0.14630 -0.02900
C 	C 	0.44050 0.16960 0.18610 0.12600
C 	C 	0.39310 0.20890 0.23160 -0.51000
H 	H 	0.34860 0.24430 0.21690 0.17800
H 	H 	0.43850 0.23540 0.25330 0.17700
H 	H 	0.36110 0.17270 0.25410 0.17800
C 	C 	0.43210 0.09360 0.18270 -0.05000
H 	H 	0.39910 0.06890 0.21030 0.03200
C 	C 	0.47930 0.40450 0.10390 0.02800
H 	H 	0.45470 0.43250 0.07500 0.01900
C 	C 	0.46650 0.32890 0.10510 -0.06700
H 	H 	0.43140 0.30540 0.07790 0.05900
C 	C 	0.50570 0.28660 0.14690 -0.03200
C 	C 	0.56050 0.32300 0.18470 0.13500
C 	C 	0.61840 0.28380 0.22550 -0.52600
H 	H 	0.60870 0.23030 0.22250 0.18200
H 	H 	0.60140 0.30040 0.26170 0.17800
H 	H 	0.68320 0.29510 0.21890 0.18600
C 	C 	0.56660 0.39930 0.18150 -0.06100
H 	H 	0.60140 0.42460 0.20810 0.03500
C 	C 	0.31920 0.84830 0.13820 0.38900
C 	C 	0.22410 0.81890 0.14050 -0.12600
C 	C 	0.15130 0.86260 0.15930 0.03100
H 	H 	0.16290 0.91100 0.17250 0.03000
C 	C 	0.06020 0.83460 0.15840 -0.10100
H 	H 	0.01090 0.86380 0.17170 0.05400
C 	C 	0.04370 0.76350 0.13780 0.02300
C 	C 	0.11790 0.71980 0.12030 -0.10200
H 	H 	0.10730 0.67120 0.10720 0.06300
C 	C 	0.20600 0.74750 0.12220 0.03800
H 	H 	0.25540 0.71710 0.11070 0.03000
C 	C 	0.94840 0.73380 0.13970 0.04700
C 	C 	0.93360 0.65800 0.14600 -0.12000
H 	H 	0.98450 0.62530 0.14790 0.06700
C 	C 	0.84640 0.63020 0.14960 0.05400
H 	H 	0.83730 0.57870 0.15500 0.02100
C 	C 	0.77240 0.67630 0.14540 -0.13300
C 	C 	0.78510 0.75110 0.14030 0.04300
H 	H 	0.73390 0.78360 0.13960 0.03400
C 	C 	0.87450 0.77920 0.13620 -0.11900
H 	H 	0.88350 0.83080 0.13090 0.06700
C 	C 	0.67630 0.64610 0.15110 0.39300
C 	C 	0.57530 0.86650 0.06980 0.39900
C 	C 	0.63410 0.86680 0.02110 -0.12900
C 	C 	0.64870 0.93170 0.99160 0.04500
H 	H 	0.62090 0.97670 0.00280 0.02600
C 	C 	0.70330 0.93100 0.94630 -0.11100
H 	H 	0.71440 0.97590 0.92750 0.06300
C 	C 	0.74210 0.86570 0.92760 0.04500
C 	C 	0.72540 0.79920 0.95550 -0.10400
H 	H 	0.75070 0.75390 0.94300 0.06400
C 	C 	0.67080 0.80090 0.00230 0.04400
H 	H 	0.65890 0.75620 0.02120 0.03000
C 	C 	0.79670 0.86510 0.87690 0.03600
C 	C 	0.84260 0.92820 0.85930 -0.09900
H 	H 	0.84040 0.97160 0.88090 0.06700
C 	C 	0.89100 0.93010 0.81170 0.03700
H 	H 	0.92460 0.97300 0.80180 0.02900
C 	C 	0.88970 0.86860 0.77880 -0.11100
C 	C 	0.84330 0.80560 0.79400 0.03100
H 	H 	0.84060 0.76410 0.77060 0.03100
C 	C 	0.80120 0.80340 0.84310 -0.10000
H 	H 	0.77410 0.75830 0.85470 0.05900
C 	C 	0.93320 0.87180 0.72290 0.37500
C 	C 	0.54380 0.86180 0.23140 0.42300
C 	C 	0.60090 0.86230 0.27990 -0.15500
C 	C 	0.65020 0.92160 0.29410 0.06800
H 	H 	0.64780 0.96500 0.27260 0.01900
C 	C 	0.70590 0.92060 0.34080 -0.13300
H 	H 	0.74370 0.96210 0.34860 0.07900
C 	C 	0.70630 0.86170 0.37450 0.05500
C 	C 	0.65350 0.80040 0.36280 -0.11900
H 	H 	0.65280 0.75910 0.38650 0.06900
C 	C 	0.60040 0.79960 0.31510 0.05000
H 	H 	0.56430 0.75750 0.30650 0.02900
C 	C 	0.76360 0.86370 0.42390 0.04000
C 	C 	0.79270 0.93110 0.44430 -0.11400
H 	H 	0.77420 0.97600 0.42760 0.06900
C 	C 	0.84940 0.93240 0.48960 0.04800
H 	H 	0.87020 0.97870 0.50310 0.02500
C 	C 	0.87560 0.86890 0.51500 -0.12800
C 	C 	0.84820 0.80100 0.49370 0.04100
H 	H 	0.86830 0.75630 0.51000 0.03100
C 	C 	0.79210 0.79850 0.44900 -0.10100
H 	H 	0.77280 0.75200 0.43510 0.06200
C 	C 	0.93920 0.87060 0.56240 0.39400
Zn	Zn	0.53416 0.55273 0.14361 1.22300
Zn	Zn	0.96049 0.56038 0.64407 1.22100
Zn	Zn	0.99629 0.75318 0.64498 1.24700
O 	O 	0.83040 0.58540 0.65110 -0.48000
O 	O 	0.88240 0.69170 0.62049 -0.47700
O 	O 	0.16390 0.92170 0.64240 -0.48700
O 	O 	0.11440 0.81110 0.66666 -0.46800
O 	O 	0.02610 0.57490 0.57734 -0.48000
O 	O 	0.08410 0.68400 0.60216 -0.46000
O 	O 	0.47960 0.57030 0.21279 -0.47900
O 	O 	0.41160 0.67520 0.18780 -0.44500
O 	O 	0.03200 0.57800 0.70932 -0.50100
O 	O 	0.00560 0.69820 0.71767 -0.45500
O 	O 	0.45820 0.56820 0.08083 -0.49700
O 	O 	0.48320 0.68900 0.07465 -0.44700
N 	N 	0.96700 0.44691 0.64360 -0.22400
N 	N 	0.02620 0.06080 0.64320 -0.22000
C 	C 	0.01530 0.41230 0.60540 0.03100
H 	H 	0.04180 0.44100 0.57740 0.01700
C 	C 	0.02840 0.33600 0.60490 -0.06700
H 	H 	0.06220 0.31270 0.57690 0.05800
C 	C 	0.99070 0.29530 0.64630 -0.03300
C 	C 	0.94050 0.33040 0.68610 0.12700
C 	C 	0.89310 0.29110 0.73160 -0.51100
H 	H 	0.84860 0.25570 0.71690 0.17800
H 	H 	0.93850 0.26460 0.75330 0.17700
H 	H 	0.86110 0.32730 0.75410 0.17900
C 	C 	0.93210 0.40640 0.68270 -0.05100
H 	H 	0.89910 0.43110 0.71030 0.03200
C 	C 	0.97930 0.09550 0.60390 0.02700
H 	H 	0.95470 0.06750 0.57500 0.01800
C 	C 	0.96650 0.17110 0.60510 -0.07000
H 	H 	0.93140 0.19460 0.57790 0.05900
C 	C 	0.00570 0.21340 0.64690 -0.02800
C 	C 	0.06050 0.17700 0.68470 0.13400
C 	C 	0.11840 0.21620 0.72550 -0.52500
H 	H 	0.10870 0.26970 0.72250 0.18200
H 	H 	0.10140 0.19960 0.76170 0.17800
H 	H 	0.18320 0.20490 0.71890 0.18600
C 	C 	0.06660 0.10070 0.68150 -0.06000
H 	H 	0.10140 0.07540 0.70810 0.03500
C 	C 	0.81920 0.65170 0.63820 0.38900
C 	C 	0.72410 0.68110 0.64050 -0.12700
C 	C 	0.65130 0.63740 0.65930 0.03200
H 	H 	0.66290 0.58900 0.67250 0.03000
C 	C 	0.56020 0.66540 0.65840 -0.10300
H 	H 	0.51090 0.63620 0.67170 0.05500
C 	C 	0.54370 0.73650 0.63780 0.02600
C 	C 	0.61790 0.78020 0.62030 -0.10300
H 	H 	0.60730 0.82880 0.60720 0.06400
C 	C 	0.70600 0.75250 0.62220 0.03900
H 	H 	0.75540 0.78290 0.61070 0.03000
C 	C 	0.44840 0.76620 0.63970 0.04300
C 	C 	0.43360 0.84200 0.64600 -0.11800
H 	H 	0.48450 0.87470 0.64790 0.06600
C 	C 	0.34640 0.86980 0.64960 0.05200
H 	H 	0.33730 0.92130 0.65500 0.02100
C 	C 	0.27240 0.82370 0.64540 -0.13200
C 	C 	0.28510 0.74890 0.64030 0.04100
H 	H 	0.23390 0.71640 0.63960 0.03400
C 	C 	0.37450 0.72080 0.63620 -0.11700
H 	H 	0.38350 0.66920 0.63090 0.06600
C 	C 	0.17630 0.85390 0.65110 0.39300
C 	C 	0.07530 0.63350 0.56980 0.39900
C 	C 	0.13410 0.63320 0.52110 -0.12900
C 	C 	0.14870 0.56830 0.49160 0.04500
H 	H 	0.12090 0.52330 0.50280 0.02600
C 	C 	0.20330 0.56900 0.44630 -0.11100
H 	H 	0.21440 0.52410 0.42750 0.06300
C 	C 	0.24210 0.63430 0.42760 0.04500
C 	C 	0.22540 0.70080 0.45550 -0.10400
H 	H 	0.25070 0.74610 0.44300 0.06400
C 	C 	0.17080 0.69910 0.50230 0.04300
H 	H 	0.15890 0.74380 0.52120 0.03000
C 	C 	0.29670 0.63490 0.37690 0.03600
C 	C 	0.34260 0.57180 0.35930 -0.10000
H 	H 	0.34040 0.52840 0.38090 0.06600
C 	C 	0.39100 0.56990 0.31170 0.03700
H 	H 	0.42460 0.52700 0.30180 0.02900
C 	C 	0.38970 0.63140 0.27880 -0.11100
C 	C 	0.34330 0.69440 0.29400 0.03100
H 	H 	0.34060 0.73590 0.27060 0.03000
C 	C 	0.30120 0.69660 0.34310 -0.10000
H 	H 	0.27410 0.74170 0.35470 0.05900
C 	C 	0.43320 0.62820 0.22290 0.37500
C 	C 	0.04380 0.63820 0.73140 0.42300
C 	C 	0.10090 0.63770 0.77990 -0.15500
C 	C 	0.15020 0.57840 0.79410 0.06800
H 	H 	0.14780 0.53500 0.77260 0.01900
C 	C 	0.20590 0.57940 0.84080 -0.13200
H 	H 	0.24370 0.53790 0.84860 0.07900
C 	C 	0.20630 0.63830 0.87450 0.05500
C 	C 	0.15350 0.69960 0.86280 -0.11900
H 	H 	0.15280 0.74090 0.88650 0.06900
C 	C 	0.10040 0.70040 0.81510 0.04900
H 	H 	0.06430 0.74250 0.80650 0.02900
C 	C 	0.26360 0.63630 0.92390 0.04100
C 	C 	0.29270 0.56890 0.94430 -0.11600
H 	H 	0.27420 0.52400 0.92760 0.07000
C 	C 	0.34940 0.56760 0.98960 0.04900
H 	H 	0.37020 0.52130 0.00310 0.02400
C 	C 	0.37560 0.63110 0.01500 -0.13000
C 	C 	0.34820 0.69900 0.99370 0.04200
H 	H 	0.36830 0.74370 0.01000 0.03000
C 	C 	0.29210 0.70150 0.94900 -0.10300
H 	H 	0.27280 0.74800 0.93510 0.06200
C 	C 	0.43920 0.62940 0.06240 0.39500
Zn	Zn	0.03416 0.94727 0.64361 1.22200
Zn	Zn	0.03951 0.43962 0.35593 1.22100
Zn	Zn	0.00371 0.24682 0.35502 1.24700
O 	O 	0.16960 0.41460 0.34890 -0.48000
O 	O 	0.11760 0.30830 0.37951 -0.47700
O 	O 	0.83610 0.07830 0.35760 -0.48700
O 	O 	0.88560 0.18890 0.33334 -0.46800
O 	O 	0.97390 0.42510 0.42266 -0.48000
O 	O 	0.91590 0.31600 0.39784 -0.46000
O 	O 	0.52040 0.42970 0.78721 -0.47900
O 	O 	0.58840 0.32480 0.81220 -0.44500
O 	O 	0.96800 0.42200 0.29068 -0.50100
O 	O 	0.99440 0.30180 0.28233 -0.45500
O 	O 	0.54180 0.43180 0.91917 -0.49700
O 	O 	0.51680 0.31100 0.92535 -0.44700
N 	N 	0.03300 0.55309 0.35640 -0.22400
N 	N 	0.97380 0.93920 0.35680 -0.22000
C 	C 	0.98470 0.58770 0.39460 0.03100
H 	H 	0.95820 0.55900 0.42260 0.01700
C 	C 	0.97160 0.66400 0.39510 -0.06700
H 	H 	0.93780 0.68730 0.42310 0.05800
C 	C 	0.00930 0.70470 0.35370 -0.03300
C 	C 	0.05950 0.66960 0.31390 0.12700
C 	C 	0.10690 0.70890 0.26840 -0.51100
H 	H 	0.15140 0.74430 0.28310 0.17800
H 	H 	0.06150 0.73540 0.24670 0.17700
H 	H 	0.13890 0.67270 0.24590 0.17900
C 	C 	0.06790 0.59360 0.31730 -0.05100
H 	H 	0.10090 0.56890 0.28970 0.03200
C 	C 	0.02070 0.90450 0.39610 0.02700
H 	H 	0.04530 0.93250 0.42500 0.01800
C 	C 	0.03350 0.82890 0.39490 -0.07000
H 	H 	0.06860 0.80540 0.42210 0.05900
C 	C 	0.99430 0.78660 0.35310 -0.02800
C 	C 	0.93950 0.82300 0.31530 0.13400
C 	C 	0.88160 0.78380 0.27450 -0.52500
H 	H 	0.89130 0.73030 0.27750 0.18200
H 	H 	0.89860 0.80040 0.23830 0.17800
H 	H 	0.81680 0.79510 0.28110 0.18600
C 	C 	0.93340 0.89930 0.31850 -0.06000
H 	H 	0.89860 0.92460 0.29190 0.03500
C 	C 	0.18080 0.34830 0.36180 0.38900
C 	C 	0.27590 0.31890 0.35950 -0.12700
C 	C 	0.34870 0.36260 0.34070 0.03200
H 	H 	0.33710 0.41100 0.32750 0.03000
C 	C 	0.43980 0.33460 0.34160 -0.10300
H 	H 	0.48910 0.36380 0.32830 0.05500
C 	C 	0.45630 0.26350 0.36220 0.02600
C 	C 	0.38210 0.21980 0.37970 -0.10300
H 	H 	0.39270 0.17120 0.39280 0.06400
C 	C 	0.29400 0.24750 0.37780 0.03900
H 	H 	0.24460 0.21710 0.38930 0.03000
C 	C 	0.55160 0.23380 0.36030 0.04300
C 	C 	0.56640 0.15800 0.35400 -0.11800
H 	H 	0.51550 0.12530 0.35210 0.06600
C 	C 	0.65360 0.13020 0.35040 0.05200
H 	H 	0.66270 0.07870 0.34500 0.02100
C 	C 	0.72760 0.17630 0.35460 -0.13200
C 	C 	0.71490 0.25110 0.35970 0.04100
H 	H 	0.76610 0.28360 0.36040 0.03400
C 	C 	0.62550 0.27920 0.36380 -0.11700
H 	H 	0.61650 0.33080 0.36910 0.06600
C 	C 	0.82370 0.14610 0.34890 0.39300
C 	C 	0.92470 0.36650 0.43020 0.39900
C 	C 	0.86590 0.36680 0.47890 -0.12900
C 	C 	0.85130 0.43170 0.50840 0.04500
H 	H 	0.87910 0.47670 0.49720 0.02600
C 	C 	0.79670 0.43100 0.55370 -0.11100
H 	H 	0.78560 0.47590 0.57250 0.06300
C 	C 	0.75790 0.36570 0.57240 0.04500
C 	C 	0.77460 0.29920 0.54450 -0.10400
H 	H 	0.74930 0.25390 0.55700 0.06400
C 	C 	0.82920 0.30090 0.49770 0.04300
H 	H 	0.84110 0.25620 0.47880 0.03000
C 	C 	0.70330 0.36510 0.62310 0.03600
C 	C 	0.65740 0.42820 0.64070 -0.10000
H 	H 	0.65960 0.47160 0.61910 0.06600
C 	C 	0.60900 0.43010 0.68830 0.03700
H 	H 	0.57540 0.47300 0.69820 0.02900
C 	C 	0.61030 0.36860 0.72120 -0.11100
C 	C 	0.65670 0.30560 0.70600 0.03100
H 	H 	0.65940 0.26410 0.72940 0.03000
C 	C 	0.69880 0.30340 0.65690 -0.10000
H 	H 	0.72590 0.25830 0.64530 0.05900
C 	C 	0.56680 0.37180 0.77710 0.37500
C 	C 	0.95620 0.36180 0.26860 0.42300
C 	C 	0.89910 0.36230 0.22010 -0.15500
C 	C 	0.84980 0.42160 0.20590 0.06800
H 	H 	0.85220 0.46500 0.22740 0.01900
C 	C 	0.79410 0.42060 0.15920 -0.13200
H 	H 	0.75630 0.46210 0.15140 0.07900
C 	C 	0.79370 0.36170 0.12550 0.05500
C 	C 	0.84650 0.30040 0.13720 -0.11900
H 	H 	0.84720 0.25910 0.11350 0.06900
C 	C 	0.89960 0.29960 0.18490 0.04900
H 	H 	0.93570 0.25750 0.19350 0.02900
C 	C 	0.73640 0.36370 0.07610 0.04100
C 	C 	0.70730 0.43110 0.05570 -0.11600
H 	H 	0.72580 0.47600 0.07240 0.07000
C 	C 	0.65060 0.43240 0.01040 0.04900
H 	H 	0.62980 0.47870 0.99690 0.02400
C 	C 	0.62440 0.36890 0.98500 -0.13000
C 	C 	0.65180 0.30100 0.00630 0.04200
H 	H 	0.63170 0.25630 0.99000 0.03000
C 	C 	0.70790 0.29850 0.05100 -0.10300
H 	H 	0.72720 0.25200 0.06490 0.06200
C 	C 	0.56080 0.37060 0.93760 0.39500
Zn	Zn	0.96584 0.05273 0.35639 1.22200
Zn	Zn	0.53951 0.06038 0.85593 1.22100
Zn	Zn	0.50371 0.25318 0.85502 1.24600
O 	O 	0.66960 0.08540 0.84890 -0.48000
O 	O 	0.61760 0.19170 0.87951 -0.47800
O 	O 	0.33610 0.42170 0.85760 -0.48600
O 	O 	0.38560 0.31110 0.83334 -0.46700
O 	O 	0.47390 0.07490 0.92266 -0.48100
O 	O 	0.41590 0.18400 0.89784 -0.46000
O 	O 	0.02040 0.07030 0.28721 -0.47800
O 	O 	0.08840 0.17520 0.31220 -0.44500
O 	O 	0.46800 0.07800 0.79068 -0.50100
O 	O 	0.49440 0.19820 0.78233 -0.45500
O 	O 	0.04180 0.06820 0.41917 -0.49600
O 	O 	0.01680 0.18900 0.42535 -0.44600
N 	N 	0.53300 0.94691 0.85640 -0.22400
N 	N 	0.47380 0.56080 0.85680 -0.22100
C 	C 	0.48470 0.91230 0.89460 0.03100
H 	H 	0.45820 0.94100 0.92260 0.01700
C 	C 	0.47160 0.83600 0.89510 -0.07000
H 	H 	0.43780 0.81270 0.92310 0.05800
C 	C 	0.50930 0.79530 0.85370 -0.02900
C 	C 	0.55950 0.83040 0.81390 0.12600
C 	C 	0.60690 0.79110 0.76840 -0.51000
H 	H 	0.65140 0.75570 0.78310 0.17800
H 	H 	0.56150 0.76460 0.74670 0.17700
H 	H 	0.63890 0.82730 0.74590 0.17800
C 	C 	0.56790 0.90640 0.81730 -0.05000
H 	H 	0.60090 0.93110 0.78970 0.03200
C 	C 	0.52070 0.59550 0.89610 0.02800
H 	H 	0.54530 0.56750 0.92500 0.01900
C 	C 	0.53350 0.67110 0.89490 -0.06700
H 	H 	0.56860 0.69460 0.92210 0.05900
C 	C 	0.49430 0.71340 0.85310 -0.03200
C 	C 	0.43950 0.67700 0.81530 0.13500
C 	C 	0.38160 0.71620 0.77450 -0.52600
H 	H 	0.39130 0.76970 0.77750 0.18200
H 	H 	0.39860 0.69960 0.73830 0.17800
H 	H 	0.31680 0.70490 0.78110 0.18600
C 	C 	0.43340 0.60070 0.81850 -0.06100
H 	H 	0.39860 0.57540 0.79190 0.03500
C 	C 	0.68080 0.15170 0.86180 0.38900
C 	C 	0.77590 0.18110 0.85950 -0.12600
C 	C 	0.84870 0.13740 0.84070 0.03100
H 	H 	0.83710 0.08900 0.82750 0.03000
C 	C 	0.93980 0.16540 0.84160 -0.10100
H 	H 	0.98910 0.13620 0.82830 0.05400
C 	C 	0.95630 0.23650 0.86220 0.02300
C 	C 	0.88210 0.28020 0.87970 -0.10200
H 	H 	0.89270 0.32880 0.89280 0.06300
C 	C 	0.79400 0.25250 0.87780 0.03800
H 	H 	0.74460 0.28290 0.88930 0.03000
C 	C 	0.05160 0.26620 0.86030 0.04700
C 	C 	0.06640 0.34200 0.85400 -0.12000
H 	H 	0.01550 0.37470 0.85210 0.06700
C 	C 	0.15360 0.36980 0.85040 0.05400
H 	H 	0.16270 0.42130 0.84500 0.02100
C 	C 	0.22760 0.32370 0.85460 -0.13300
C 	C 	0.21490 0.24890 0.85970 0.04300
H 	H 	0.26610 0.21640 0.86040 0.03400
C 	C 	0.12550 0.22080 0.86380 -0.11900
H 	H 	0.11650 0.16920 0.86910 0.06700
C 	C 	0.32370 0.35390 0.84890 0.39300
C 	C 	0.42470 0.13350 0.93020 0.39900
C 	C 	0.36590 0.13320 0.97890 -0.12900
C 	C 	0.35130 0.06830 0.00840 0.04500
H 	H 	0.37910 0.02330 0.99720 0.02600
C 	C 	0.29670 0.06900 0.05370 -0.11100
H 	H 	0.28560 0.02410 0.07250 0.06300
C 	C 	0.25790 0.13430 0.07240 0.04500
C 	C 	0.27460 0.20080 0.04450 -0.10400
H 	H 	0.24930 0.24610 0.05700 0.06400
C 	C 	0.32920 0.19910 0.99770 0.04400
H 	H 	0.34110 0.24380 0.97880 0.03000
C 	C 	0.20330 0.13490 0.12310 0.03600
C 	C 	0.15740 0.07180 0.14070 -0.09900
H 	H 	0.15960 0.02840 0.11910 0.06700
C 	C 	0.10900 0.06990 0.18830 0.03700
H 	H 	0.07540 0.02700 0.19820 0.02900
C 	C 	0.11030 0.13140 0.22120 -0.11100
C 	C 	0.15670 0.19440 0.20600 0.03100
H 	H 	0.15940 0.23590 0.22940 0.03100
C 	C 	0.19880 0.19660 0.15690 -0.10000
H 	H 	0.22590 0.24170 0.14530 0.05900
C 	C 	0.06680 0.12820 0.27710 0.37500
C 	C 	0.45620 0.13820 0.76860 0.42300
C 	C 	0.39910 0.13770 0.72010 -0.15500
C 	C 	0.34980 0.07840 0.70590 0.06800
H 	H 	0.35220 0.03500 0.72740 0.01900
C 	C 	0.29410 0.07940 0.65920 -0.13300
H 	H 	0.25630 0.03790 0.65140 0.07900
C 	C 	0.29370 0.13830 0.62550 0.05500
C 	C 	0.34650 0.19960 0.63720 -0.11900
H 	H 	0.34720 0.24090 0.61350 0.06900
C 	C 	0.39960 0.20040 0.68490 0.05000
H 	H 	0.43570 0.24250 0.69350 0.02900
C 	C 	0.23640 0.13630 0.57610 0.04000
C 	C 	0.20730 0.06890 0.55570 -0.11400
H 	H 	0.22580 0.02400 0.57240 0.06900
C 	C 	0.15060 0.06760 0.51040 0.04800
H 	H 	0.12980 0.02130 0.49690 0.02500
C 	C 	0.12440 0.13110 0.48500 -0.12800
C 	C 	0.15180 0.19900 0.50630 0.04100
H 	H 	0.13170 0.24370 0.49000 0.03100
C 	C 	0.20790 0.20150 0.55100 -0.10100
H 	H 	0.22720 0.24800 0.56490 0.06200
C 	C 	0.06080 0.12940 0.43760 0.39400
Zn	Zn	0.46584 0.44727 0.85639 1.22300
