data_crystal

_cell_length_a 31.52010
_cell_length_b 39.63650
_cell_length_c 13.99570
_cell_angle_alpha 90.00000
_cell_angle_beta  90.00000
_cell_angle_gamma 90.00000

_symmetry_space_group_name_	'P 1'
_symmetry_space_group_name_H-M	'P 1'

loop_
_symmetry_equiv_pos_as_xyz
  x,y,z

loop_
_atom_site_label
_atom_site_type_symbol
_atom_site_fract_x
_atom_site_fract_y
_atom_site_fract_z
_atom_site_charge
Ag	Ag	0.27481 0.00006 0.76211 0.50100
P 	P 	0.31158 0.03864 0.65390 0.02600
P 	P 	0.18834 0.03808 0.37183 0.02500
N 	N 	0.22110 0.96120 0.70480 -0.17700
N 	N 	0.02870 0.78763 0.56540 -0.22400
C 	C 	0.22200 0.06440 0.44780 -0.20600
H 	H 	0.23900 0.07980 0.40730 0.07700
H 	H 	0.20390 0.07840 0.49000 0.08400
C 	C 	0.25030 0.04379 0.50600 0.00500
H 	H 	0.26950 0.03100 0.46320 0.01200
H 	H 	0.23320 0.02720 0.54220 0.01400
C 	C 	0.27840 0.06510 0.57970 -0.20600
H 	H 	0.25940 0.07850 0.62110 0.07700
H 	H 	0.29660 0.08090 0.54360 0.08600
C 	C 	0.18520 0.95700 0.76320 0.04900
H 	H 	0.17960 0.97110 0.81640 0.00700
C 	C 	0.15830 0.93030 0.73720 -0.13600
H 	H 	0.13290 0.92710 0.77260 0.06500
C 	C 	0.16690 0.90900 0.66370 0.09300
H 	H 	0.14780 0.89140 0.64740 -0.08000
C 	C 	0.20590 0.91390 0.61100 -0.14500
H 	H 	0.21350 0.89870 0.56130 0.06800
C 	C 	0.23160 0.94040 0.63300 0.06800
H 	H 	0.25690 0.94410 0.59760 -0.01000
C 	C 	0.06390 0.79430 0.52620 0.14400
H 	H 	0.07280 0.77950 0.47670 -0.02200
C 	C 	0.09140 0.82140 0.54790 -0.26500
H 	H 	0.11690 0.82480 0.51300 0.11700
C 	C 	0.07980 0.84350 0.62400 0.29300
C 	C 	0.04350 0.83680 0.66510 -0.31700
H 	H 	0.03300 0.85090 0.71450 0.13000
C 	C 	0.02140 0.80990 0.63700 0.16200
H 	H 	0.99650 0.80570 0.67310 -0.03900
C 	C 	0.10370 0.87260 0.65040 -0.39700
H 	H 	0.09350 0.88950 0.69250 0.15800
C 	C 	0.13630 0.87330 0.61600 0.25600
H 	H 	0.14620 0.85770 0.56950 -0.07000
C 	C 	0.15600 0.06897 0.30520 -0.01400
C 	C 	0.17650 0.09300 0.24950 -0.07300
H 	H 	0.20660 0.09460 0.25070 0.04200
C 	C 	0.15300 0.11470 0.19220 -0.01600
H 	H 	0.16700 0.13110 0.15420 0.02300
C 	C 	0.10900 0.11240 0.19050 -0.06400
H 	H 	0.09300 0.12730 0.15140 0.04200
C 	C 	0.08850 0.08840 0.24620 -0.01800
H 	H 	0.05840 0.08680 0.24500 0.02800
C 	C 	0.11200 0.06670 0.30350 -0.06700
H 	H 	0.09790 0.05020 0.34150 0.05000
C 	C 	0.34870 0.02010 0.56640 -0.01600
C 	C 	0.37050 0.03876 0.49800 -0.06000
H 	H 	0.36700 0.06250 0.49510 0.04600
C 	C 	0.39750 0.02260 0.43410 -0.02500
H 	H 	0.41240 0.03540 0.38740 0.02900
C 	C 	0.40260 0.98780 0.43850 -0.05200
H 	H 	0.42100 0.97680 0.39480 0.04200
C 	C 	0.38080 0.96917 0.50680 -0.02400
H 	H 	0.38440 0.94540 0.50980 0.03800
C 	C 	0.35390 0.98530 0.57070 -0.05900
H 	H 	0.33900 0.97260 0.61740 0.02500
C 	C 	0.34325 0.06831 0.72170 -0.01600
C 	C 	0.38697 0.06430 0.72790 -0.06600
H 	H 	0.40070 0.04730 0.69130 0.05000
C 	C 	0.41058 0.08510 0.78750 -0.01700
H 	H 	0.44050 0.08240 0.79170 0.03100
C 	C 	0.39050 0.10990 0.84110 -0.06200
H 	H 	0.40660 0.12420 0.88180 0.04700
C 	C 	0.34670 0.11396 0.83490 -0.01700
H 	H 	0.33300 0.13090 0.87150 0.03000
C 	C 	0.32314 0.09310 0.77530 -0.07000
H 	H 	0.29330 0.09590 0.77110 0.04300
C 	C 	0.15200 0.01970 0.45370 -0.01900
C 	C 	0.13070 0.03980 0.51920 -0.05800
H 	H 	0.13520 0.06350 0.51960 0.04600
C 	C 	0.10280 0.02530 0.58430 -0.02600
H 	H 	0.08820 0.03910 0.62910 0.03000
C 	C 	0.09620 0.99070 0.58380 -0.05100
H 	H 	0.07710 0.98080 0.62820 0.04100
C 	C 	0.11750 0.97050 0.51820 -0.02400
H 	H 	0.11290 0.94680 0.51780 0.03700
C 	C 	0.14530 0.98500 0.45310 -0.05800
H 	H 	0.15990 0.97120 0.40830 0.02700
Ag	Ag	0.27481 0.50006 0.26211 0.50100
P 	P 	0.31158 0.53864 0.15390 0.02700
P 	P 	0.18834 0.53808 0.87183 0.02100
N 	N 	0.22110 0.46120 0.20480 -0.17800
N 	N 	0.02870 0.28763 0.06540 -0.21900
C 	C 	0.22200 0.56440 0.94780 -0.16800
H 	H 	0.23900 0.57980 0.90730 0.07000
H 	H 	0.20390 0.57840 0.99000 0.08100
C 	C 	0.25030 0.54379 0.00600 -0.05300
H 	H 	0.26950 0.53100 0.96320 0.03800
H 	H 	0.23320 0.52720 0.04220 0.02600
C 	C 	0.27840 0.56510 0.07970 -0.18600
H 	H 	0.25940 0.57850 0.12110 0.07000
H 	H 	0.29660 0.58090 0.04360 0.07500
C 	C 	0.18520 0.45700 0.26320 0.05000
H 	H 	0.17960 0.47110 0.31640 0.00600
C 	C 	0.15830 0.43030 0.23720 -0.14100
H 	H 	0.13290 0.42710 0.27260 0.06700
C 	C 	0.16690 0.40900 0.16370 0.10000
H 	H 	0.14780 0.39140 0.14740 -0.09100
C 	C 	0.20590 0.41390 0.11100 -0.15100
H 	H 	0.21350 0.39870 0.06130 0.06500
C 	C 	0.23160 0.44040 0.13300 0.06900
H 	H 	0.25690 0.44410 0.09760 -0.01400
C 	C 	0.06390 0.29430 0.02620 0.11400
H 	H 	0.07280 0.27950 0.97670 -0.00200
C 	C 	0.09140 0.32140 0.04790 -0.25400
H 	H 	0.11690 0.32480 0.01300 0.10900
C 	C 	0.07980 0.34350 0.12400 0.29100
C 	C 	0.04350 0.33680 0.16510 -0.31600
H 	H 	0.03300 0.35090 0.21450 0.12900
C 	C 	0.02140 0.30990 0.13700 0.16000
H 	H 	0.99650 0.30570 0.17310 -0.03900
C 	C 	0.10370 0.37260 0.15040 -0.41000
H 	H 	0.09350 0.38950 0.19250 0.16200
C 	C 	0.13630 0.37330 0.11600 0.27600
H 	H 	0.14620 0.35770 0.06950 -0.07900
C 	C 	0.15600 0.56897 0.80520 -0.01100
C 	C 	0.17650 0.59300 0.74950 -0.07400
H 	H 	0.20660 0.59460 0.75070 0.04300
C 	C 	0.15300 0.61470 0.69220 -0.01400
H 	H 	0.16700 0.63110 0.65420 0.02500
C 	C 	0.10900 0.61240 0.69050 -0.06500
H 	H 	0.09300 0.62730 0.65140 0.04500
C 	C 	0.08850 0.58840 0.74620 -0.01500
H 	H 	0.05840 0.58680 0.74500 0.03000
C 	C 	0.11200 0.56670 0.80350 -0.06800
H 	H 	0.09790 0.55020 0.84150 0.05300
C 	C 	0.34870 0.52010 0.06640 -0.05300
C 	C 	0.37050 0.53876 0.99800 -0.01200
H 	H 	0.36700 0.56250 0.99510 0.03500
C 	C 	0.39750 0.52260 0.93410 -0.06600
H 	H 	0.41240 0.53540 0.88740 0.04400
C 	C 	0.40260 0.48780 0.93850 0.00300
H 	H 	0.42100 0.47680 0.89480 0.02600
C 	C 	0.38080 0.46917 0.00680 -0.07900
H 	H 	0.38440 0.44540 0.00980 0.05200
C 	C 	0.35390 0.48530 0.07070 -0.02400
H 	H 	0.33900 0.47260 0.11740 0.01200
C 	C 	0.34325 0.56831 0.22170 -0.01800
C 	C 	0.38697 0.56430 0.22790 -0.06600
H 	H 	0.40070 0.54730 0.19130 0.04700
C 	C 	0.41058 0.58510 0.28750 -0.01900
H 	H 	0.44050 0.58240 0.29170 0.03000
C 	C 	0.39050 0.60990 0.34110 -0.06200
H 	H 	0.40660 0.62420 0.38180 0.04400
C 	C 	0.34670 0.61396 0.33490 -0.01900
H 	H 	0.33300 0.63090 0.37150 0.02700
C 	C 	0.32314 0.59310 0.27530 -0.07000
H 	H 	0.29330 0.59590 0.27110 0.04200
C 	C 	0.15200 0.51970 0.95370 -0.00700
C 	C 	0.13070 0.53980 0.01920 -0.07600
H 	H 	0.13520 0.56350 0.01960 0.04700
C 	C 	0.10280 0.52530 0.08430 -0.02400
H 	H 	0.08820 0.53910 0.12910 0.02900
C 	C 	0.09620 0.49070 0.08380 -0.04600
H 	H 	0.07710 0.48080 0.12820 0.03800
C 	C 	0.11750 0.47050 0.01820 -0.04600
H 	H 	0.11290 0.44680 0.01780 0.04100
C 	C 	0.14530 0.48500 0.95310 -0.03900
H 	H 	0.15990 0.47120 0.90830 0.02300
Ag	Ag	0.77481 0.00006 0.26211 0.50100
P 	P 	0.81158 0.03864 0.15390 0.02700
P 	P 	0.68834 0.03808 0.87183 0.02100
N 	N 	0.72110 0.96120 0.20480 -0.17800
N 	N 	0.52870 0.78763 0.06540 -0.21900
C 	C 	0.72200 0.06440 0.94780 -0.16800
H 	H 	0.73900 0.07980 0.90730 0.07000
H 	H 	0.70390 0.07840 0.99000 0.08100
C 	C 	0.75030 0.04379 0.00600 -0.05300
H 	H 	0.76950 0.03100 0.96320 0.03800
H 	H 	0.73320 0.02720 0.04220 0.02600
C 	C 	0.77840 0.06510 0.07970 -0.18600
H 	H 	0.75940 0.07850 0.12110 0.07000
H 	H 	0.79660 0.08090 0.04360 0.07500
C 	C 	0.68520 0.95700 0.26320 0.05000
H 	H 	0.67960 0.97110 0.31640 0.00600
C 	C 	0.65830 0.93030 0.23720 -0.14100
H 	H 	0.63290 0.92710 0.27260 0.06700
C 	C 	0.66690 0.90900 0.16370 0.10000
H 	H 	0.64780 0.89140 0.14740 -0.09100
C 	C 	0.70590 0.91390 0.11100 -0.15100
H 	H 	0.71350 0.89870 0.06130 0.06500
C 	C 	0.73160 0.94040 0.13300 0.06900
H 	H 	0.75690 0.94410 0.09760 -0.01400
C 	C 	0.56390 0.79430 0.02620 0.11400
H 	H 	0.57280 0.77950 0.97670 -0.00200
C 	C 	0.59140 0.82140 0.04790 -0.25400
H 	H 	0.61690 0.82480 0.01300 0.10900
C 	C 	0.57980 0.84350 0.12400 0.29100
C 	C 	0.54350 0.83680 0.16510 -0.31600
H 	H 	0.53300 0.85090 0.21450 0.12900
C 	C 	0.52140 0.80990 0.13700 0.16000
H 	H 	0.49650 0.80570 0.17310 -0.03900
C 	C 	0.60370 0.87260 0.15040 -0.41000
H 	H 	0.59350 0.88950 0.19250 0.16200
C 	C 	0.63630 0.87330 0.11600 0.27600
H 	H 	0.64620 0.85770 0.06950 -0.07900
C 	C 	0.65600 0.06897 0.80520 -0.01100
C 	C 	0.67650 0.09300 0.74950 -0.07400
H 	H 	0.70660 0.09460 0.75070 0.04300
C 	C 	0.65300 0.11470 0.69220 -0.01400
H 	H 	0.66700 0.13110 0.65420 0.02500
C 	C 	0.60900 0.11240 0.69050 -0.06500
H 	H 	0.59300 0.12730 0.65140 0.04500
C 	C 	0.58850 0.08840 0.74620 -0.01500
H 	H 	0.55840 0.08680 0.74500 0.03000
C 	C 	0.61200 0.06670 0.80350 -0.06800
H 	H 	0.59790 0.05020 0.84150 0.05300
C 	C 	0.84870 0.02010 0.06640 -0.05300
C 	C 	0.87050 0.03876 0.99800 -0.01200
H 	H 	0.86700 0.06250 0.99510 0.03500
C 	C 	0.89750 0.02260 0.93410 -0.06600
H 	H 	0.91240 0.03540 0.88740 0.04400
C 	C 	0.90260 0.98780 0.93850 0.00300
H 	H 	0.92100 0.97680 0.89480 0.02600
C 	C 	0.88080 0.96917 0.00680 -0.07900
H 	H 	0.88440 0.94540 0.00980 0.05200
C 	C 	0.85390 0.98530 0.07070 -0.02400
H 	H 	0.83900 0.97260 0.11740 0.01200
C 	C 	0.84325 0.06831 0.22170 -0.01800
C 	C 	0.88697 0.06430 0.22790 -0.06600
H 	H 	0.90070 0.04730 0.19130 0.04700
C 	C 	0.91058 0.08510 0.28750 -0.01900
H 	H 	0.94050 0.08240 0.29170 0.03000
C 	C 	0.89050 0.10990 0.34110 -0.06200
H 	H 	0.90660 0.12420 0.38180 0.04400
C 	C 	0.84670 0.11396 0.33490 -0.01900
H 	H 	0.83300 0.13090 0.37150 0.02700
C 	C 	0.82314 0.09310 0.27530 -0.07000
H 	H 	0.79330 0.09590 0.27110 0.04200
C 	C 	0.65200 0.01970 0.95370 -0.00700
C 	C 	0.63070 0.03980 0.01920 -0.07600
H 	H 	0.63520 0.06350 0.01960 0.04700
C 	C 	0.60280 0.02530 0.08430 -0.02400
H 	H 	0.58820 0.03910 0.12910 0.02900
C 	C 	0.59620 0.99070 0.08380 -0.04600
H 	H 	0.57710 0.98080 0.12820 0.03800
C 	C 	0.61750 0.97050 0.01820 -0.04700
H 	H 	0.61290 0.94680 0.01780 0.04100
C 	C 	0.64530 0.98500 0.95310 -0.03900
H 	H 	0.65990 0.97120 0.90830 0.02300
Ag	Ag	0.77481 0.50006 0.76211 0.50200
P 	P 	0.81158 0.53864 0.65390 0.02700
P 	P 	0.68834 0.53808 0.37183 0.02600
N 	N 	0.72110 0.46120 0.70480 -0.17600
N 	N 	0.52870 0.28763 0.56540 -0.22300
C 	C 	0.72200 0.56440 0.44780 -0.20500
H 	H 	0.73900 0.57980 0.40730 0.07800
H 	H 	0.70390 0.57840 0.49000 0.08500
C 	C 	0.75030 0.54379 0.50600 0.00600
H 	H 	0.76950 0.53100 0.46320 0.01300
H 	H 	0.73320 0.52720 0.54220 0.01400
C 	C 	0.77840 0.56510 0.57970 -0.20600
H 	H 	0.75940 0.57850 0.62110 0.07700
H 	H 	0.79660 0.58090 0.54360 0.08600
C 	C 	0.68520 0.45700 0.76320 0.04900
H 	H 	0.67960 0.47110 0.81640 0.00700
C 	C 	0.65830 0.43030 0.73720 -0.13600
H 	H 	0.63290 0.42710 0.77260 0.06500
C 	C 	0.66690 0.40900 0.66370 0.09300
H 	H 	0.64780 0.39140 0.64740 -0.08000
C 	C 	0.70590 0.41390 0.61100 -0.14500
H 	H 	0.71350 0.39870 0.56130 0.06800
C 	C 	0.73160 0.44040 0.63300 0.06800
H 	H 	0.75690 0.44410 0.59760 -0.01000
C 	C 	0.56390 0.29430 0.52620 0.14400
H 	H 	0.57280 0.27950 0.47670 -0.02200
C 	C 	0.59140 0.32140 0.54790 -0.26500
H 	H 	0.61690 0.32480 0.51300 0.11700
C 	C 	0.57980 0.34350 0.62400 0.29300
C 	C 	0.54350 0.33680 0.66510 -0.31700
H 	H 	0.53300 0.35090 0.71450 0.13000
C 	C 	0.52140 0.30990 0.63700 0.16200
H 	H 	0.49650 0.30570 0.67310 -0.03900
C 	C 	0.60370 0.37260 0.65040 -0.39700
H 	H 	0.59350 0.38950 0.69250 0.15800
C 	C 	0.63630 0.37330 0.61600 0.25600
H 	H 	0.64620 0.35770 0.56950 -0.07000
C 	C 	0.65600 0.56897 0.30520 -0.01400
C 	C 	0.67650 0.59300 0.24950 -0.07300
H 	H 	0.70660 0.59460 0.25070 0.04200
C 	C 	0.65300 0.61470 0.19220 -0.01600
H 	H 	0.66700 0.63110 0.15420 0.02300
C 	C 	0.60900 0.61240 0.19050 -0.06400
H 	H 	0.59300 0.62730 0.15140 0.04200
C 	C 	0.58850 0.58840 0.24620 -0.01800
H 	H 	0.55840 0.58680 0.24500 0.02800
C 	C 	0.61200 0.56670 0.30350 -0.06700
H 	H 	0.59790 0.55020 0.34150 0.05000
C 	C 	0.84870 0.52010 0.56640 -0.01600
C 	C 	0.87050 0.53876 0.49800 -0.06000
H 	H 	0.86700 0.56250 0.49510 0.04600
C 	C 	0.89750 0.52260 0.43410 -0.02500
H 	H 	0.91240 0.53540 0.38740 0.02900
C 	C 	0.90260 0.48780 0.43850 -0.05200
H 	H 	0.92100 0.47680 0.39480 0.04200
C 	C 	0.88080 0.46917 0.50680 -0.02400
H 	H 	0.88440 0.44540 0.50980 0.03800
C 	C 	0.85390 0.48530 0.57070 -0.05900
H 	H 	0.83900 0.47260 0.61740 0.02500
C 	C 	0.84325 0.56831 0.72170 -0.01600
C 	C 	0.88697 0.56430 0.72790 -0.06600
H 	H 	0.90070 0.54730 0.69130 0.05000
C 	C 	0.91058 0.58510 0.78750 -0.01700
H 	H 	0.94050 0.58240 0.79170 0.03100
C 	C 	0.89050 0.60990 0.84110 -0.06200
H 	H 	0.90660 0.62420 0.88180 0.04700
C 	C 	0.84670 0.61396 0.83490 -0.01700
H 	H 	0.83300 0.63090 0.87150 0.03000
C 	C 	0.82314 0.59310 0.77530 -0.07000
H 	H 	0.79330 0.59590 0.77110 0.04300
C 	C 	0.65200 0.51970 0.45370 -0.01900
C 	C 	0.63070 0.53980 0.51920 -0.05800
H 	H 	0.63520 0.56350 0.51960 0.04600
C 	C 	0.60280 0.52530 0.58430 -0.02600
H 	H 	0.58820 0.53910 0.62910 0.03000
C 	C 	0.59620 0.49070 0.58380 -0.05100
H 	H 	0.57710 0.48080 0.62820 0.04100
C 	C 	0.61750 0.47050 0.51820 -0.02400
H 	H 	0.61290 0.44680 0.51780 0.03700
C 	C 	0.64530 0.48500 0.45310 -0.05800
H 	H 	0.65990 0.47120 0.40830 0.02700
Ag	Ag	0.72519 0.99994 0.76211 0.50200
P 	P 	0.68842 0.96136 0.65390 0.02700
P 	P 	0.81166 0.96192 0.37183 0.02600
N 	N 	0.77890 0.03880 0.70480 -0.17600
N 	N 	0.97130 0.21237 0.56540 -0.22300
C 	C 	0.77800 0.93560 0.44780 -0.20500
H 	H 	0.76100 0.92020 0.40730 0.07800
H 	H 	0.79610 0.92160 0.49000 0.08500
C 	C 	0.74970 0.95621 0.50600 0.00600
H 	H 	0.73050 0.96900 0.46320 0.01300
H 	H 	0.76680 0.97280 0.54220 0.01400
C 	C 	0.72160 0.93490 0.57970 -0.20600
H 	H 	0.74060 0.92150 0.62110 0.07700
H 	H 	0.70340 0.91910 0.54360 0.08600
C 	C 	0.81480 0.04300 0.76320 0.04900
H 	H 	0.82040 0.02890 0.81640 0.00700
C 	C 	0.84170 0.06970 0.73720 -0.13600
H 	H 	0.86710 0.07290 0.77260 0.06500
C 	C 	0.83310 0.09100 0.66370 0.09300
H 	H 	0.85220 0.10860 0.64740 -0.08000
C 	C 	0.79410 0.08610 0.61100 -0.14500
H 	H 	0.78650 0.10130 0.56130 0.06800
C 	C 	0.76840 0.05960 0.63300 0.06800
H 	H 	0.74310 0.05590 0.59760 -0.01000
C 	C 	0.93610 0.20570 0.52620 0.14400
H 	H 	0.92720 0.22050 0.47670 -0.02200
C 	C 	0.90860 0.17860 0.54790 -0.26500
H 	H 	0.88310 0.17520 0.51300 0.11700
C 	C 	0.92020 0.15650 0.62400 0.29300
C 	C 	0.95650 0.16320 0.66510 -0.31700
H 	H 	0.96700 0.14910 0.71450 0.13000
C 	C 	0.97860 0.19010 0.63700 0.16200
H 	H 	0.00350 0.19430 0.67310 -0.03900
C 	C 	0.89630 0.12740 0.65040 -0.39700
H 	H 	0.90650 0.11050 0.69250 0.15800
C 	C 	0.86370 0.12670 0.61600 0.25600
H 	H 	0.85380 0.14230 0.56950 -0.07000
C 	C 	0.84400 0.93103 0.30520 -0.01400
C 	C 	0.82350 0.90700 0.24950 -0.07300
H 	H 	0.79340 0.90540 0.25070 0.04200
C 	C 	0.84700 0.88530 0.19220 -0.01600
H 	H 	0.83300 0.86890 0.15420 0.02300
C 	C 	0.89100 0.88760 0.19050 -0.06400
H 	H 	0.90700 0.87270 0.15140 0.04200
C 	C 	0.91150 0.91160 0.24620 -0.01800
H 	H 	0.94160 0.91320 0.24500 0.02800
C 	C 	0.88800 0.93330 0.30350 -0.06700
H 	H 	0.90210 0.94980 0.34150 0.05000
C 	C 	0.65130 0.97990 0.56640 -0.01600
C 	C 	0.62950 0.96124 0.49800 -0.06000
H 	H 	0.63300 0.93750 0.49510 0.04600
C 	C 	0.60250 0.97740 0.43410 -0.02500
H 	H 	0.58760 0.96460 0.38740 0.02900
C 	C 	0.59740 0.01220 0.43850 -0.05200
H 	H 	0.57900 0.02320 0.39480 0.04200
C 	C 	0.61920 0.03083 0.50680 -0.02400
H 	H 	0.61560 0.05460 0.50980 0.03800
C 	C 	0.64610 0.01470 0.57070 -0.05900
H 	H 	0.66100 0.02740 0.61740 0.02500
C 	C 	0.65675 0.93169 0.72170 -0.01600
C 	C 	0.61303 0.93570 0.72790 -0.06600
H 	H 	0.59930 0.95270 0.69130 0.05000
C 	C 	0.58942 0.91490 0.78750 -0.01700
H 	H 	0.55950 0.91760 0.79170 0.03100
C 	C 	0.60950 0.89010 0.84110 -0.06200
H 	H 	0.59340 0.87580 0.88180 0.04700
C 	C 	0.65330 0.88604 0.83490 -0.01700
H 	H 	0.66700 0.86910 0.87150 0.03000
C 	C 	0.67686 0.90690 0.77530 -0.07000
H 	H 	0.70670 0.90410 0.77110 0.04300
C 	C 	0.84800 0.98030 0.45370 -0.01900
C 	C 	0.86930 0.96020 0.51920 -0.05800
H 	H 	0.86480 0.93650 0.51960 0.04600
C 	C 	0.89720 0.97470 0.58430 -0.02600
H 	H 	0.91180 0.96090 0.62910 0.03000
C 	C 	0.90380 0.00930 0.58380 -0.05100
H 	H 	0.92290 0.01920 0.62820 0.04100
C 	C 	0.88250 0.02950 0.51820 -0.02400
H 	H 	0.88710 0.05320 0.51780 0.03700
C 	C 	0.85470 0.01500 0.45310 -0.05800
H 	H 	0.84010 0.02880 0.40830 0.02700
Ag	Ag	0.72519 0.49994 0.26211 0.50100
P 	P 	0.68842 0.46136 0.15390 0.02700
P 	P 	0.81166 0.46192 0.87183 0.02100
N 	N 	0.77890 0.53880 0.20480 -0.17800
N 	N 	0.97130 0.71237 0.06540 -0.21900
C 	C 	0.77800 0.43560 0.94780 -0.16800
H 	H 	0.76100 0.42020 0.90730 0.07000
H 	H 	0.79610 0.42160 0.99000 0.08100
C 	C 	0.74970 0.45621 0.00600 -0.05300
H 	H 	0.73050 0.46900 0.96320 0.03800
H 	H 	0.76680 0.47280 0.04220 0.02600
C 	C 	0.72160 0.43490 0.07970 -0.18600
H 	H 	0.74060 0.42150 0.12110 0.07000
H 	H 	0.70340 0.41910 0.04360 0.07500
C 	C 	0.81480 0.54300 0.26320 0.05000
H 	H 	0.82040 0.52890 0.31640 0.00600
C 	C 	0.84170 0.56970 0.23720 -0.14100
H 	H 	0.86710 0.57290 0.27260 0.06700
C 	C 	0.83310 0.59100 0.16370 0.10000
H 	H 	0.85220 0.60860 0.14740 -0.09100
C 	C 	0.79410 0.58610 0.11100 -0.15100
H 	H 	0.78650 0.60130 0.06130 0.06500
C 	C 	0.76840 0.55960 0.13300 0.06900
H 	H 	0.74310 0.55590 0.09760 -0.01400
C 	C 	0.93610 0.70570 0.02620 0.11400
H 	H 	0.92720 0.72050 0.97670 -0.00200
C 	C 	0.90860 0.67860 0.04790 -0.25400
H 	H 	0.88310 0.67520 0.01300 0.10900
C 	C 	0.92020 0.65650 0.12400 0.29100
C 	C 	0.95650 0.66320 0.16510 -0.31600
H 	H 	0.96700 0.64910 0.21450 0.12900
C 	C 	0.97860 0.69010 0.13700 0.16000
H 	H 	0.00350 0.69430 0.17310 -0.03900
C 	C 	0.89630 0.62740 0.15040 -0.41000
H 	H 	0.90650 0.61050 0.19250 0.16200
C 	C 	0.86370 0.62670 0.11600 0.27600
H 	H 	0.85380 0.64230 0.06950 -0.07900
C 	C 	0.84400 0.43103 0.80520 -0.01100
C 	C 	0.82350 0.40700 0.74950 -0.07400
H 	H 	0.79340 0.40540 0.75070 0.04300
C 	C 	0.84700 0.38530 0.69220 -0.01400
H 	H 	0.83300 0.36890 0.65420 0.02500
C 	C 	0.89100 0.38760 0.69050 -0.06500
H 	H 	0.90700 0.37270 0.65140 0.04500
C 	C 	0.91150 0.41160 0.74620 -0.01500
H 	H 	0.94160 0.41320 0.74500 0.03000
C 	C 	0.88800 0.43330 0.80350 -0.06800
H 	H 	0.90210 0.44980 0.84150 0.05300
C 	C 	0.65130 0.47990 0.06640 -0.05300
C 	C 	0.62950 0.46124 0.99800 -0.01200
H 	H 	0.63300 0.43750 0.99510 0.03500
C 	C 	0.60250 0.47740 0.93410 -0.06600
H 	H 	0.58760 0.46460 0.88740 0.04400
C 	C 	0.59740 0.51220 0.93850 0.00300
H 	H 	0.57900 0.52320 0.89480 0.02600
C 	C 	0.61920 0.53083 0.00680 -0.07900
H 	H 	0.61560 0.55460 0.00980 0.05200
C 	C 	0.64610 0.51470 0.07070 -0.02400
H 	H 	0.66100 0.52740 0.11740 0.01200
C 	C 	0.65675 0.43169 0.22170 -0.01800
C 	C 	0.61303 0.43570 0.22790 -0.06600
H 	H 	0.59930 0.45270 0.19130 0.04700
C 	C 	0.58942 0.41490 0.28750 -0.01900
H 	H 	0.55950 0.41760 0.29170 0.03000
C 	C 	0.60950 0.39010 0.34110 -0.06200
H 	H 	0.59340 0.37580 0.38180 0.04400
C 	C 	0.65330 0.38604 0.33490 -0.01900
H 	H 	0.66700 0.36910 0.37150 0.02700
C 	C 	0.67686 0.40690 0.27530 -0.07000
H 	H 	0.70670 0.40410 0.27110 0.04200
C 	C 	0.84800 0.48030 0.95370 -0.00700
C 	C 	0.86930 0.46020 0.01920 -0.07600
H 	H 	0.86480 0.43650 0.01960 0.04700
C 	C 	0.89720 0.47470 0.08430 -0.02400
H 	H 	0.91180 0.46090 0.12910 0.02900
C 	C 	0.90380 0.50930 0.08380 -0.04600
H 	H 	0.92290 0.51920 0.12820 0.03800
C 	C 	0.88250 0.52950 0.01820 -0.04600
H 	H 	0.88710 0.55320 0.01780 0.04100
C 	C 	0.85470 0.51500 0.95310 -0.03900
H 	H 	0.84010 0.52880 0.90830 0.02300
Ag	Ag	0.22519 0.99994 0.26211 0.50100
P 	P 	0.18842 0.96136 0.15390 0.02700
P 	P 	0.31166 0.96192 0.87183 0.02100
N 	N 	0.27890 0.03880 0.20480 -0.17800
N 	N 	0.47130 0.21237 0.06540 -0.21900
C 	C 	0.27800 0.93560 0.94780 -0.16800
H 	H 	0.26100 0.92020 0.90730 0.07000
H 	H 	0.29610 0.92160 0.99000 0.08100
C 	C 	0.24970 0.95621 0.00600 -0.05300
H 	H 	0.23050 0.96900 0.96320 0.03800
H 	H 	0.26680 0.97280 0.04220 0.02600
C 	C 	0.22160 0.93490 0.07970 -0.18600
H 	H 	0.24060 0.92150 0.12110 0.07000
H 	H 	0.20340 0.91910 0.04360 0.07500
C 	C 	0.31480 0.04300 0.26320 0.05000
H 	H 	0.32040 0.02890 0.31640 0.00600
C 	C 	0.34170 0.06970 0.23720 -0.14100
H 	H 	0.36710 0.07290 0.27260 0.06700
C 	C 	0.33310 0.09100 0.16370 0.10000
H 	H 	0.35220 0.10860 0.14740 -0.09100
C 	C 	0.29410 0.08610 0.11100 -0.15100
H 	H 	0.28650 0.10130 0.06130 0.06500
C 	C 	0.26840 0.05960 0.13300 0.06900
H 	H 	0.24310 0.05590 0.09760 -0.01400
C 	C 	0.43610 0.20570 0.02620 0.11400
H 	H 	0.42720 0.22050 0.97670 -0.00200
C 	C 	0.40860 0.17860 0.04790 -0.25400
H 	H 	0.38310 0.17520 0.01300 0.10900
C 	C 	0.42020 0.15650 0.12400 0.29100
C 	C 	0.45650 0.16320 0.16510 -0.31600
H 	H 	0.46700 0.14910 0.21450 0.12900
C 	C 	0.47860 0.19010 0.13700 0.16000
H 	H 	0.50350 0.19430 0.17310 -0.03900
C 	C 	0.39630 0.12740 0.15040 -0.41000
H 	H 	0.40650 0.11050 0.19250 0.16200
C 	C 	0.36370 0.12670 0.11600 0.27600
H 	H 	0.35380 0.14230 0.06950 -0.07900
C 	C 	0.34400 0.93103 0.80520 -0.01100
C 	C 	0.32350 0.90700 0.74950 -0.07400
H 	H 	0.29340 0.90540 0.75070 0.04300
C 	C 	0.34700 0.88530 0.69220 -0.01400
H 	H 	0.33300 0.86890 0.65420 0.02500
C 	C 	0.39100 0.88760 0.69050 -0.06500
H 	H 	0.40700 0.87270 0.65140 0.04500
C 	C 	0.41150 0.91160 0.74620 -0.01500
H 	H 	0.44160 0.91320 0.74500 0.03000
C 	C 	0.38800 0.93330 0.80350 -0.06800
H 	H 	0.40210 0.94980 0.84150 0.05300
C 	C 	0.15130 0.97990 0.06640 -0.05300
C 	C 	0.12950 0.96124 0.99800 -0.01200
H 	H 	0.13300 0.93750 0.99510 0.03500
C 	C 	0.10250 0.97740 0.93410 -0.06600
H 	H 	0.08760 0.96460 0.88740 0.04400
C 	C 	0.09740 0.01220 0.93850 0.00300
H 	H 	0.07900 0.02320 0.89480 0.02600
C 	C 	0.11920 0.03083 0.00680 -0.07900
H 	H 	0.11560 0.05460 0.00980 0.05200
C 	C 	0.14610 0.01470 0.07070 -0.02400
H 	H 	0.16100 0.02740 0.11740 0.01200
C 	C 	0.15675 0.93169 0.22170 -0.01800
C 	C 	0.11303 0.93570 0.22790 -0.06600
H 	H 	0.09930 0.95270 0.19130 0.04700
C 	C 	0.08942 0.91490 0.28750 -0.01900
H 	H 	0.05950 0.91760 0.29170 0.03000
C 	C 	0.10950 0.89010 0.34110 -0.06200
H 	H 	0.09340 0.87580 0.38180 0.04400
C 	C 	0.15330 0.88604 0.33490 -0.01900
H 	H 	0.16700 0.86910 0.37150 0.02700
C 	C 	0.17686 0.90690 0.27530 -0.07000
H 	H 	0.20670 0.90410 0.27110 0.04200
C 	C 	0.34800 0.98030 0.95370 -0.00700
C 	C 	0.36930 0.96020 0.01920 -0.07600
H 	H 	0.36480 0.93650 0.01960 0.04700
C 	C 	0.39720 0.97470 0.08430 -0.02400
H 	H 	0.41180 0.96090 0.12910 0.02900
C 	C 	0.40380 0.00930 0.08380 -0.04600
H 	H 	0.42290 0.01920 0.12820 0.03800
C 	C 	0.38250 0.02950 0.01820 -0.04700
H 	H 	0.38710 0.05320 0.01780 0.04100
C 	C 	0.35470 0.01500 0.95310 -0.03900
H 	H 	0.34010 0.02880 0.90830 0.02300
Ag	Ag	0.22519 0.49994 0.76211 0.50200
P 	P 	0.18842 0.46136 0.65390 0.02700
P 	P 	0.31166 0.46192 0.37183 0.02600
N 	N 	0.27890 0.53880 0.70480 -0.17600
N 	N 	0.47130 0.71237 0.56540 -0.22300
C 	C 	0.27800 0.43560 0.44780 -0.20500
H 	H 	0.26100 0.42020 0.40730 0.07800
H 	H 	0.29610 0.42160 0.49000 0.08500
C 	C 	0.24970 0.45621 0.50600 0.00600
H 	H 	0.23050 0.46900 0.46320 0.01300
H 	H 	0.26680 0.47280 0.54220 0.01400
C 	C 	0.22160 0.43490 0.57970 -0.20600
H 	H 	0.24060 0.42150 0.62110 0.07700
H 	H 	0.20340 0.41910 0.54360 0.08600
C 	C 	0.31480 0.54300 0.76320 0.04900
H 	H 	0.32040 0.52890 0.81640 0.00700
C 	C 	0.34170 0.56970 0.73720 -0.13600
H 	H 	0.36710 0.57290 0.77260 0.06500
C 	C 	0.33310 0.59100 0.66370 0.09300
H 	H 	0.35220 0.60860 0.64740 -0.08000
C 	C 	0.29410 0.58610 0.61100 -0.14500
H 	H 	0.28650 0.60130 0.56130 0.06800
C 	C 	0.26840 0.55960 0.63300 0.06800
H 	H 	0.24310 0.55590 0.59760 -0.01000
C 	C 	0.43610 0.70570 0.52620 0.14400
H 	H 	0.42720 0.72050 0.47670 -0.02200
C 	C 	0.40860 0.67860 0.54790 -0.26500
H 	H 	0.38310 0.67520 0.51300 0.11700
C 	C 	0.42020 0.65650 0.62400 0.29300
C 	C 	0.45650 0.66320 0.66510 -0.31700
H 	H 	0.46700 0.64910 0.71450 0.13000
C 	C 	0.47860 0.69010 0.63700 0.16200
H 	H 	0.50350 0.69430 0.67310 -0.03900
C 	C 	0.39630 0.62740 0.65040 -0.39700
H 	H 	0.40650 0.61050 0.69250 0.15800
C 	C 	0.36370 0.62670 0.61600 0.25600
H 	H 	0.35380 0.64230 0.56950 -0.07000
C 	C 	0.34400 0.43103 0.30520 -0.01400
C 	C 	0.32350 0.40700 0.24950 -0.07300
H 	H 	0.29340 0.40540 0.25070 0.04200
C 	C 	0.34700 0.38530 0.19220 -0.01600
H 	H 	0.33300 0.36890 0.15420 0.02300
C 	C 	0.39100 0.38760 0.19050 -0.06400
H 	H 	0.40700 0.37270 0.15140 0.04200
C 	C 	0.41150 0.41160 0.24620 -0.01800
H 	H 	0.44160 0.41320 0.24500 0.02800
C 	C 	0.38800 0.43330 0.30350 -0.06700
H 	H 	0.40210 0.44980 0.34150 0.05000
C 	C 	0.15130 0.47990 0.56640 -0.01600
C 	C 	0.12950 0.46124 0.49800 -0.06000
H 	H 	0.13300 0.43750 0.49510 0.04600
C 	C 	0.10250 0.47740 0.43410 -0.02500
H 	H 	0.08760 0.46460 0.38740 0.02900
C 	C 	0.09740 0.51220 0.43850 -0.05200
H 	H 	0.07900 0.52320 0.39480 0.04200
C 	C 	0.11920 0.53083 0.50680 -0.02400
H 	H 	0.11560 0.55460 0.50980 0.03800
C 	C 	0.14610 0.51470 0.57070 -0.05900
H 	H 	0.16100 0.52740 0.61740 0.02500
C 	C 	0.15675 0.43169 0.72170 -0.01600
C 	C 	0.11303 0.43570 0.72790 -0.06600
H 	H 	0.09930 0.45270 0.69130 0.05000
C 	C 	0.08942 0.41490 0.78750 -0.01700
H 	H 	0.05950 0.41760 0.79170 0.03100
C 	C 	0.10950 0.39010 0.84110 -0.06200
H 	H 	0.09340 0.37580 0.88180 0.04700
C 	C 	0.15330 0.38604 0.83490 -0.01700
H 	H 	0.16700 0.36910 0.87150 0.03000
C 	C 	0.17686 0.40690 0.77530 -0.07000
H 	H 	0.20670 0.40410 0.77110 0.04300
C 	C 	0.34800 0.48030 0.45370 -0.01900
C 	C 	0.36930 0.46020 0.51920 -0.05800
H 	H 	0.36480 0.43650 0.51960 0.04600
C 	C 	0.39720 0.47470 0.58430 -0.02600
H 	H 	0.41180 0.46090 0.62910 0.03000
C 	C 	0.40380 0.50930 0.58380 -0.05100
H 	H 	0.42290 0.51920 0.62820 0.04100
C 	C 	0.38250 0.52950 0.51820 -0.02400
H 	H 	0.38710 0.55320 0.51780 0.03700
C 	C 	0.35470 0.51500 0.45310 -0.05800
H 	H 	0.34010 0.52880 0.40830 0.02700
Ag	Ag	0.52481 0.24994 0.01211 0.49400
P 	P 	0.56158 0.21136 0.90390 0.03200
P 	P 	0.43834 0.21192 0.62183 0.02600
N 	N 	0.47110 0.28880 0.95480 -0.16000
N 	N 	0.27870 0.46237 0.81540 -0.22700
C 	C 	0.47200 0.18560 0.69780 -0.20600
H 	H 	0.48900 0.17020 0.65730 0.07900
H 	H 	0.45390 0.17160 0.74000 0.08600
C 	C 	0.50030 0.20621 0.75600 0.00800
H 	H 	0.51950 0.21900 0.71320 0.01200
H 	H 	0.48320 0.22280 0.79220 0.01400
C 	C 	0.52840 0.18490 0.82970 -0.20700
H 	H 	0.50940 0.17150 0.87110 0.08100
H 	H 	0.54660 0.16910 0.79360 0.08700
C 	C 	0.43520 0.29300 0.01320 -0.00400
H 	H 	0.42960 0.27890 0.06640 0.02200
C 	C 	0.40830 0.31970 0.98720 -0.07300
H 	H 	0.38290 0.32290 0.02260 0.03500
C 	C 	0.41690 0.34100 0.91370 0.07700
H 	H 	0.39780 0.35860 0.89740 -0.09700
C 	C 	0.45590 0.33610 0.86100 -0.13300
H 	H 	0.46350 0.35130 0.81130 0.06400
C 	C 	0.48160 0.30960 0.88300 0.06100
H 	H 	0.50690 0.30590 0.84760 -0.00600
C 	C 	0.31390 0.45570 0.77620 0.15400
H 	H 	0.32280 0.47050 0.72670 -0.02500
C 	C 	0.34140 0.42860 0.79790 -0.28300
H 	H 	0.36690 0.42520 0.76300 0.12500
C 	C 	0.32980 0.40650 0.87400 0.32700
C 	C 	0.29350 0.41320 0.91510 -0.33900
H 	H 	0.28300 0.39910 0.96450 0.14200
C 	C 	0.27140 0.44010 0.88700 0.17600
H 	H 	0.24650 0.44430 0.92310 -0.04000
C 	C 	0.35370 0.37740 0.90040 -0.45700
H 	H 	0.34350 0.36050 0.94250 0.18300
C 	C 	0.38630 0.37670 0.86600 0.32500
H 	H 	0.39620 0.39230 0.81950 -0.09300
C 	C 	0.40600 0.18103 0.55520 -0.01400
C 	C 	0.42650 0.15700 0.49950 -0.07200
H 	H 	0.45660 0.15540 0.50070 0.04200
C 	C 	0.40300 0.13530 0.44220 -0.01500
H 	H 	0.41700 0.11890 0.40420 0.02500
C 	C 	0.35900 0.13760 0.44050 -0.06400
H 	H 	0.34300 0.12270 0.40140 0.04400
C 	C 	0.33850 0.16160 0.49620 -0.01700
H 	H 	0.30840 0.16320 0.49500 0.02900
C 	C 	0.36200 0.18330 0.55350 -0.06700
H 	H 	0.34790 0.19980 0.59150 0.05000
C 	C 	0.59870 0.22990 0.81640 -0.01500
C 	C 	0.62050 0.21124 0.74800 -0.06000
H 	H 	0.61700 0.18750 0.74510 0.04700
C 	C 	0.64750 0.22740 0.68410 -0.02400
H 	H 	0.66240 0.21460 0.63740 0.02900
C 	C 	0.65260 0.26220 0.68850 -0.05200
H 	H 	0.67100 0.27320 0.64480 0.04200
C 	C 	0.63080 0.28083 0.75680 -0.02300
H 	H 	0.63440 0.30460 0.75980 0.03900
C 	C 	0.60390 0.26470 0.82070 -0.05900
H 	H 	0.58900 0.27740 0.86740 0.02700
C 	C 	0.59325 0.18169 0.97170 -0.00600
C 	C 	0.63697 0.18570 0.97790 -0.04600
H 	H 	0.65070 0.20270 0.94130 0.04600
C 	C 	0.66058 0.16490 0.03750 -0.04100
H 	H 	0.69050 0.16760 0.04170 0.03400
C 	C 	0.64050 0.14010 0.09110 -0.05700
H 	H 	0.65660 0.12580 0.13180 0.04100
C 	C 	0.59670 0.13604 0.08490 -0.01800
H 	H 	0.58300 0.11910 0.12150 0.02600
C 	C 	0.57314 0.15690 0.02530 -0.08700
H 	H 	0.54330 0.15410 0.02110 0.04400
C 	C 	0.40200 0.23030 0.70370 -0.01900
C 	C 	0.38070 0.21020 0.76920 -0.05700
H 	H 	0.38520 0.18650 0.76960 0.04600
C 	C 	0.35280 0.22470 0.83430 -0.02500
H 	H 	0.33820 0.21090 0.87910 0.03300
C 	C 	0.34620 0.25930 0.83380 -0.05000
H 	H 	0.32710 0.26920 0.87820 0.04300
C 	C 	0.36750 0.27950 0.76820 -0.02300
H 	H 	0.36290 0.30320 0.76780 0.03700
C 	C 	0.39530 0.26500 0.70310 -0.05800
H 	H 	0.40990 0.27880 0.65830 0.02700
Ag	Ag	0.52481 0.74994 0.51211 0.50100
P 	P 	0.56158 0.71136 0.40390 0.02700
P 	P 	0.43834 0.71192 0.12183 0.02800
N 	N 	0.47110 0.78880 0.45480 -0.17600
N 	N 	0.27870 0.96237 0.31540 -0.22400
C 	C 	0.47200 0.68560 0.19780 -0.20500
H 	H 	0.48900 0.67020 0.15730 0.07700
H 	H 	0.45390 0.67160 0.24000 0.08400
C 	C 	0.50030 0.70621 0.25600 0.00600
H 	H 	0.51950 0.71900 0.21320 0.01200
H 	H 	0.48320 0.72280 0.29220 0.01400
C 	C 	0.52840 0.68490 0.32970 -0.20600
H 	H 	0.50940 0.67150 0.37110 0.07700
H 	H 	0.54660 0.66910 0.29360 0.08500
C 	C 	0.43520 0.79300 0.51320 0.04800
H 	H 	0.42960 0.77890 0.56640 0.00700
C 	C 	0.40830 0.81970 0.48720 -0.13600
H 	H 	0.38290 0.82290 0.52260 0.06500
C 	C 	0.41690 0.84100 0.41370 0.09300
H 	H 	0.39780 0.85860 0.39740 -0.08000
C 	C 	0.45590 0.83610 0.36100 -0.14600
H 	H 	0.46350 0.85130 0.31130 0.06800
C 	C 	0.48160 0.80960 0.38300 0.06800
H 	H 	0.50690 0.80590 0.34760 -0.01000
C 	C 	0.31390 0.95570 0.27620 0.14500
H 	H 	0.32280 0.97050 0.22670 -0.02300
C 	C 	0.34140 0.92860 0.29790 -0.26600
H 	H 	0.36690 0.92520 0.26300 0.11700
C 	C 	0.32980 0.90650 0.37400 0.29200
C 	C 	0.29350 0.91320 0.41510 -0.31700
H 	H 	0.28300 0.89910 0.46450 0.12900
C 	C 	0.27140 0.94010 0.38700 0.16200
H 	H 	0.24650 0.94430 0.42310 -0.03900
C 	C 	0.35370 0.87740 0.40040 -0.39700
H 	H 	0.34350 0.86050 0.44250 0.15800
C 	C 	0.38630 0.87670 0.36600 0.25700
H 	H 	0.39620 0.89230 0.31950 -0.07000
C 	C 	0.40600 0.68103 0.05520 -0.04200
C 	C 	0.42650 0.65700 0.99950 -0.01400
H 	H 	0.45660 0.65540 0.00070 0.01300
C 	C 	0.40300 0.63530 0.94220 -0.04300
H 	H 	0.41700 0.61890 0.90420 0.03600
C 	C 	0.35900 0.63760 0.94050 -0.05000
H 	H 	0.34300 0.62270 0.90140 0.04100
C 	C 	0.33850 0.66160 0.99620 -0.01000
H 	H 	0.30840 0.66320 0.99500 0.03200
C 	C 	0.36200 0.68330 0.05350 -0.07200
H 	H 	0.34790 0.69980 0.09150 0.04900
C 	C 	0.59870 0.72990 0.31640 -0.01600
C 	C 	0.62050 0.71124 0.24800 -0.06100
H 	H 	0.61700 0.68750 0.24510 0.04600
C 	C 	0.64750 0.72740 0.18410 -0.02500
H 	H 	0.66240 0.71460 0.13740 0.02700
C 	C 	0.65260 0.76220 0.18850 -0.05200
H 	H 	0.67100 0.77320 0.14480 0.04000
C 	C 	0.63080 0.78083 0.25680 -0.02500
H 	H 	0.63440 0.80460 0.25980 0.03800
C 	C 	0.60390 0.76470 0.32070 -0.05900
H 	H 	0.58900 0.77740 0.36740 0.02500
C 	C 	0.59325 0.68169 0.47170 -0.01700
C 	C 	0.63697 0.68570 0.47790 -0.06600
H 	H 	0.65070 0.70270 0.44130 0.04900
C 	C 	0.66058 0.66490 0.53750 -0.01800
H 	H 	0.69050 0.66760 0.54170 0.03000
C 	C 	0.64050 0.64010 0.59110 -0.06200
H 	H 	0.65660 0.62580 0.63180 0.04400
C 	C 	0.59670 0.63604 0.58490 -0.01800
H 	H 	0.58300 0.61910 0.62150 0.02800
C 	C 	0.57314 0.65690 0.52530 -0.07000
H 	H 	0.54330 0.65410 0.52110 0.04200
C 	C 	0.40200 0.73030 0.20370 -0.02000
C 	C 	0.38070 0.71020 0.26920 -0.05700
H 	H 	0.38520 0.68650 0.26960 0.04500
C 	C 	0.35280 0.72470 0.33430 -0.02700
H 	H 	0.33820 0.71090 0.37910 0.03000
C 	C 	0.34620 0.75930 0.33380 -0.05000
H 	H 	0.32710 0.76920 0.37820 0.04000
C 	C 	0.36750 0.77950 0.26820 -0.02500
H 	H 	0.36290 0.80320 0.26780 0.03700
C 	C 	0.39530 0.76500 0.20310 -0.05800
H 	H 	0.40990 0.77880 0.15830 0.02500
Ag	Ag	0.02481 0.24994 0.51211 0.50100
P 	P 	0.06158 0.21136 0.40390 0.02700
P 	P 	0.93834 0.21192 0.12183 0.02800
N 	N 	0.97110 0.28880 0.45480 -0.17600
N 	N 	0.77870 0.46237 0.31540 -0.22400
C 	C 	0.97200 0.18560 0.19780 -0.20500
H 	H 	0.98900 0.17020 0.15730 0.07700
H 	H 	0.95390 0.17160 0.24000 0.08400
C 	C 	0.00030 0.20621 0.25600 0.00600
H 	H 	0.01950 0.21900 0.21320 0.01200
H 	H 	0.98320 0.22280 0.29220 0.01400
C 	C 	0.02840 0.18490 0.32970 -0.20600
H 	H 	0.00940 0.17150 0.37110 0.07700
H 	H 	0.04660 0.16910 0.29360 0.08500
C 	C 	0.93520 0.29300 0.51320 0.04800
H 	H 	0.92960 0.27890 0.56640 0.00700
C 	C 	0.90830 0.31970 0.48720 -0.13600
H 	H 	0.88290 0.32290 0.52260 0.06500
C 	C 	0.91690 0.34100 0.41370 0.09300
H 	H 	0.89780 0.35860 0.39740 -0.08000
C 	C 	0.95590 0.33610 0.36100 -0.14600
H 	H 	0.96350 0.35130 0.31130 0.06800
C 	C 	0.98160 0.30960 0.38300 0.06800
H 	H 	0.00690 0.30590 0.34760 -0.01000
C 	C 	0.81390 0.45570 0.27620 0.14500
H 	H 	0.82280 0.47050 0.22670 -0.02300
C 	C 	0.84140 0.42860 0.29790 -0.26600
H 	H 	0.86690 0.42520 0.26300 0.11700
C 	C 	0.82980 0.40650 0.37400 0.29200
C 	C 	0.79350 0.41320 0.41510 -0.31700
H 	H 	0.78300 0.39910 0.46450 0.12900
C 	C 	0.77140 0.44010 0.38700 0.16200
H 	H 	0.74650 0.44430 0.42310 -0.03900
C 	C 	0.85370 0.37740 0.40040 -0.39700
H 	H 	0.84350 0.36050 0.44250 0.15800
C 	C 	0.88630 0.37670 0.36600 0.25700
H 	H 	0.89620 0.39230 0.31950 -0.07000
C 	C 	0.90600 0.18103 0.05520 -0.04200
C 	C 	0.92650 0.15700 0.99950 -0.01500
H 	H 	0.95660 0.15540 0.00070 0.01300
C 	C 	0.90300 0.13530 0.94220 -0.04300
H 	H 	0.91700 0.11890 0.90420 0.03600
C 	C 	0.85900 0.13760 0.94050 -0.05000
H 	H 	0.84300 0.12270 0.90140 0.04100
C 	C 	0.83850 0.16160 0.99620 -0.01000
H 	H 	0.80840 0.16320 0.99500 0.03200
C 	C 	0.86200 0.18330 0.05350 -0.07200
H 	H 	0.84790 0.19980 0.09150 0.04900
C 	C 	0.09870 0.22990 0.31640 -0.01600
C 	C 	0.12050 0.21124 0.24800 -0.06100
H 	H 	0.11700 0.18750 0.24510 0.04600
C 	C 	0.14750 0.22740 0.18410 -0.02500
H 	H 	0.16240 0.21460 0.13740 0.02700
C 	C 	0.15260 0.26220 0.18850 -0.05200
H 	H 	0.17100 0.27320 0.14480 0.04000
C 	C 	0.13080 0.28083 0.25680 -0.02500
H 	H 	0.13440 0.30460 0.25980 0.03800
C 	C 	0.10390 0.26470 0.32070 -0.05900
H 	H 	0.08900 0.27740 0.36740 0.02500
C 	C 	0.09325 0.18169 0.47170 -0.01700
C 	C 	0.13697 0.18570 0.47790 -0.06600
H 	H 	0.15070 0.20270 0.44130 0.04900
C 	C 	0.16058 0.16490 0.53750 -0.01800
H 	H 	0.19050 0.16760 0.54170 0.03000
C 	C 	0.14050 0.14010 0.59110 -0.06200
H 	H 	0.15660 0.12580 0.63180 0.04400
C 	C 	0.09670 0.13604 0.58490 -0.01800
H 	H 	0.08300 0.11910 0.62150 0.02800
C 	C 	0.07314 0.15690 0.52530 -0.07000
H 	H 	0.04330 0.15410 0.52110 0.04200
C 	C 	0.90200 0.23030 0.20370 -0.02000
C 	C 	0.88070 0.21020 0.26920 -0.05700
H 	H 	0.88520 0.18650 0.26960 0.04500
C 	C 	0.85280 0.22470 0.33430 -0.02700
H 	H 	0.83820 0.21090 0.37910 0.03000
C 	C 	0.84620 0.25930 0.33380 -0.05000
H 	H 	0.82710 0.26920 0.37820 0.04000
C 	C 	0.86750 0.27950 0.26820 -0.02500
H 	H 	0.86290 0.30320 0.26780 0.03700
C 	C 	0.89530 0.26500 0.20310 -0.05800
H 	H 	0.90990 0.27880 0.15830 0.02500
Ag	Ag	0.02481 0.74994 0.01211 0.49400
P 	P 	0.06158 0.71136 0.90390 0.03200
P 	P 	0.93834 0.71192 0.62183 0.02600
N 	N 	0.97110 0.78880 0.95480 -0.16000
N 	N 	0.77870 0.96237 0.81540 -0.22700
C 	C 	0.97200 0.68560 0.69780 -0.20600
H 	H 	0.98900 0.67020 0.65730 0.07900
H 	H 	0.95390 0.67160 0.74000 0.08600
C 	C 	0.00030 0.70621 0.75600 0.00800
H 	H 	0.01950 0.71900 0.71320 0.01200
H 	H 	0.98320 0.72280 0.79220 0.01400
C 	C 	0.02840 0.68490 0.82970 -0.20700
H 	H 	0.00940 0.67150 0.87110 0.08100
H 	H 	0.04660 0.66910 0.79360 0.08700
C 	C 	0.93520 0.79300 0.01320 -0.00400
H 	H 	0.92960 0.77890 0.06640 0.02200
C 	C 	0.90830 0.81970 0.98720 -0.07300
H 	H 	0.88290 0.82290 0.02260 0.03500
C 	C 	0.91690 0.84100 0.91370 0.07700
H 	H 	0.89780 0.85860 0.89740 -0.09700
C 	C 	0.95590 0.83610 0.86100 -0.13300
H 	H 	0.96350 0.85130 0.81130 0.06400
C 	C 	0.98160 0.80960 0.88300 0.06200
H 	H 	0.00690 0.80590 0.84760 -0.00600
C 	C 	0.81390 0.95570 0.77620 0.15400
H 	H 	0.82280 0.97050 0.72670 -0.02500
C 	C 	0.84140 0.92860 0.79790 -0.28300
H 	H 	0.86690 0.92520 0.76300 0.12500
C 	C 	0.82980 0.90650 0.87400 0.32600
C 	C 	0.79350 0.91320 0.91510 -0.33900
H 	H 	0.78300 0.89910 0.96450 0.14200
C 	C 	0.77140 0.94010 0.88700 0.17600
H 	H 	0.74650 0.94430 0.92310 -0.04000
C 	C 	0.85370 0.87740 0.90040 -0.45700
H 	H 	0.84350 0.86050 0.94250 0.18300
C 	C 	0.88630 0.87670 0.86600 0.32500
H 	H 	0.89620 0.89230 0.81950 -0.09300
C 	C 	0.90600 0.68103 0.55520 -0.01400
C 	C 	0.92650 0.65700 0.49950 -0.07200
H 	H 	0.95660 0.65540 0.50070 0.04200
C 	C 	0.90300 0.63530 0.44220 -0.01500
H 	H 	0.91700 0.61890 0.40420 0.02500
C 	C 	0.85900 0.63760 0.44050 -0.06400
H 	H 	0.84300 0.62270 0.40140 0.04400
C 	C 	0.83850 0.66160 0.49620 -0.01700
H 	H 	0.80840 0.66320 0.49500 0.02900
C 	C 	0.86200 0.68330 0.55350 -0.06700
H 	H 	0.84790 0.69980 0.59150 0.05000
C 	C 	0.09870 0.72990 0.81640 -0.01500
C 	C 	0.12050 0.71124 0.74800 -0.06000
H 	H 	0.11700 0.68750 0.74510 0.04700
C 	C 	0.14750 0.72740 0.68410 -0.02400
H 	H 	0.16240 0.71460 0.63740 0.02900
C 	C 	0.15260 0.76220 0.68850 -0.05200
H 	H 	0.17100 0.77320 0.64480 0.04200
C 	C 	0.13080 0.78083 0.75680 -0.02300
H 	H 	0.13440 0.80460 0.75980 0.03900
C 	C 	0.10390 0.76470 0.82070 -0.05900
H 	H 	0.08900 0.77740 0.86740 0.02700
C 	C 	0.09325 0.68169 0.97170 -0.00600
C 	C 	0.13697 0.68570 0.97790 -0.04600
H 	H 	0.15070 0.70270 0.94130 0.04600
C 	C 	0.16058 0.66490 0.03750 -0.04100
H 	H 	0.19050 0.66760 0.04170 0.03300
C 	C 	0.14050 0.64010 0.09110 -0.05700
H 	H 	0.15660 0.62580 0.13180 0.04100
C 	C 	0.09670 0.63604 0.08490 -0.01800
H 	H 	0.08300 0.61910 0.12150 0.02600
C 	C 	0.07314 0.65690 0.02530 -0.08700
H 	H 	0.04330 0.65410 0.02110 0.04400
C 	C 	0.90200 0.73030 0.70370 -0.01900
C 	C 	0.88070 0.71020 0.76920 -0.05700
H 	H 	0.88520 0.68650 0.76960 0.04600
C 	C 	0.85280 0.72470 0.83430 -0.02500
H 	H 	0.83820 0.71090 0.87910 0.03300
C 	C 	0.84620 0.75930 0.83380 -0.05000
H 	H 	0.82710 0.76920 0.87820 0.04300
C 	C 	0.86750 0.77950 0.76820 -0.02300
H 	H 	0.86290 0.80320 0.76780 0.03700
C 	C 	0.89530 0.76500 0.70310 -0.05800
H 	H 	0.90990 0.77880 0.65830 0.02700
Ag	Ag	0.97519 0.25006 0.01211 0.49400
P 	P 	0.93842 0.28864 0.90390 0.03200
P 	P 	0.06166 0.28808 0.62183 0.02600
N 	N 	0.02890 0.21120 0.95480 -0.16000
N 	N 	0.22130 0.03763 0.81540 -0.22700
C 	C 	0.02800 0.31440 0.69780 -0.20600
H 	H 	0.01100 0.32980 0.65730 0.07900
H 	H 	0.04610 0.32840 0.74000 0.08600
C 	C 	0.99970 0.29379 0.75600 0.00800
H 	H 	0.98050 0.28100 0.71320 0.01200
H 	H 	0.01680 0.27720 0.79220 0.01400
C 	C 	0.97160 0.31510 0.82970 -0.20700
H 	H 	0.99060 0.32850 0.87110 0.08100
H 	H 	0.95340 0.33090 0.79360 0.08700
C 	C 	0.06480 0.20700 0.01320 -0.00400
H 	H 	0.07040 0.22110 0.06640 0.02200
C 	C 	0.09170 0.18030 0.98720 -0.07300
H 	H 	0.11710 0.17710 0.02260 0.03500
C 	C 	0.08310 0.15900 0.91370 0.07700
H 	H 	0.10220 0.14140 0.89740 -0.09700
C 	C 	0.04410 0.16390 0.86100 -0.13300
H 	H 	0.03650 0.14870 0.81130 0.06400
C 	C 	0.01840 0.19040 0.88300 0.06200
H 	H 	0.99310 0.19410 0.84760 -0.00600
C 	C 	0.18610 0.04430 0.77620 0.15400
H 	H 	0.17720 0.02950 0.72670 -0.02500
C 	C 	0.15860 0.07140 0.79790 -0.28300
H 	H 	0.13310 0.07480 0.76300 0.12500
C 	C 	0.17020 0.09350 0.87400 0.32600
C 	C 	0.20650 0.08680 0.91510 -0.33900
H 	H 	0.21700 0.10090 0.96450 0.14200
C 	C 	0.22860 0.05990 0.88700 0.17600
H 	H 	0.25350 0.05570 0.92310 -0.04000
C 	C 	0.14630 0.12260 0.90040 -0.45700
H 	H 	0.15650 0.13950 0.94250 0.18300
C 	C 	0.11370 0.12330 0.86600 0.32500
H 	H 	0.10380 0.10770 0.81950 -0.09300
C 	C 	0.09400 0.31897 0.55520 -0.01400
C 	C 	0.07350 0.34300 0.49950 -0.07200
H 	H 	0.04340 0.34460 0.50070 0.04200
C 	C 	0.09700 0.36470 0.44220 -0.01500
H 	H 	0.08300 0.38110 0.40420 0.02500
C 	C 	0.14100 0.36240 0.44050 -0.06400
H 	H 	0.15700 0.37730 0.40140 0.04400
C 	C 	0.16150 0.33840 0.49620 -0.01700
H 	H 	0.19160 0.33680 0.49500 0.02900
C 	C 	0.13800 0.31670 0.55350 -0.06700
H 	H 	0.15210 0.30020 0.59150 0.05000
C 	C 	0.90130 0.27010 0.81640 -0.01500
C 	C 	0.87950 0.28876 0.74800 -0.06000
H 	H 	0.88300 0.31250 0.74510 0.04700
C 	C 	0.85250 0.27260 0.68410 -0.02400
H 	H 	0.83760 0.28540 0.63740 0.02900
C 	C 	0.84740 0.23780 0.68850 -0.05200
H 	H 	0.82900 0.22680 0.64480 0.04200
C 	C 	0.86920 0.21917 0.75680 -0.02300
H 	H 	0.86560 0.19540 0.75980 0.03900
C 	C 	0.89610 0.23530 0.82070 -0.05900
H 	H 	0.91100 0.22260 0.86740 0.02700
C 	C 	0.90675 0.31831 0.97170 -0.00600
C 	C 	0.86303 0.31430 0.97790 -0.04600
H 	H 	0.84930 0.29730 0.94130 0.04600
C 	C 	0.83942 0.33510 0.03750 -0.04100
H 	H 	0.80950 0.33240 0.04170 0.03300
C 	C 	0.85950 0.35990 0.09110 -0.05700
H 	H 	0.84340 0.37420 0.13180 0.04100
C 	C 	0.90330 0.36396 0.08490 -0.01800
H 	H 	0.91700 0.38090 0.12150 0.02600
C 	C 	0.92686 0.34310 0.02530 -0.08700
H 	H 	0.95670 0.34590 0.02110 0.04400
C 	C 	0.09800 0.26970 0.70370 -0.01900
C 	C 	0.11930 0.28980 0.76920 -0.05700
H 	H 	0.11480 0.31350 0.76960 0.04600
C 	C 	0.14720 0.27530 0.83430 -0.02500
H 	H 	0.16180 0.28910 0.87910 0.03300
C 	C 	0.15380 0.24070 0.83380 -0.05000
H 	H 	0.17290 0.23080 0.87820 0.04300
C 	C 	0.13250 0.22050 0.76820 -0.02300
H 	H 	0.13710 0.19680 0.76780 0.03700
C 	C 	0.10470 0.23500 0.70310 -0.05800
H 	H 	0.09010 0.22120 0.65830 0.02700
Ag	Ag	0.97519 0.75005 0.51211 0.50100
P 	P 	0.93842 0.78864 0.40390 0.02700
P 	P 	0.06166 0.78808 0.12183 0.02800
N 	N 	0.02890 0.71120 0.45480 -0.17600
N 	N 	0.22130 0.53763 0.31540 -0.22400
C 	C 	0.02800 0.81440 0.19780 -0.20500
H 	H 	0.01100 0.82980 0.15730 0.07700
H 	H 	0.04610 0.82840 0.24000 0.08400
C 	C 	0.99970 0.79379 0.25600 0.00600
H 	H 	0.98050 0.78100 0.21320 0.01200
H 	H 	0.01680 0.77720 0.29220 0.01400
C 	C 	0.97160 0.81510 0.32970 -0.20600
H 	H 	0.99060 0.82850 0.37110 0.07700
H 	H 	0.95340 0.83090 0.29360 0.08500
C 	C 	0.06480 0.70700 0.51320 0.04800
H 	H 	0.07040 0.72110 0.56640 0.00700
C 	C 	0.09170 0.68030 0.48720 -0.13600
H 	H 	0.11710 0.67710 0.52260 0.06500
C 	C 	0.08310 0.65900 0.41370 0.09300
H 	H 	0.10220 0.64140 0.39740 -0.08000
C 	C 	0.04410 0.66390 0.36100 -0.14600
H 	H 	0.03650 0.64870 0.31130 0.06800
C 	C 	0.01840 0.69040 0.38300 0.06800
H 	H 	0.99310 0.69410 0.34760 -0.01000
C 	C 	0.18610 0.54430 0.27620 0.14500
H 	H 	0.17720 0.52950 0.22670 -0.02300
C 	C 	0.15860 0.57140 0.29790 -0.26600
H 	H 	0.13310 0.57480 0.26300 0.11700
C 	C 	0.17020 0.59350 0.37400 0.29200
C 	C 	0.20650 0.58680 0.41510 -0.31700
H 	H 	0.21700 0.60090 0.46450 0.12900
C 	C 	0.22860 0.55990 0.38700 0.16200
H 	H 	0.25350 0.55570 0.42310 -0.03900
C 	C 	0.14630 0.62260 0.40040 -0.39700
H 	H 	0.15650 0.63950 0.44250 0.15800
C 	C 	0.11370 0.62330 0.36600 0.25700
H 	H 	0.10380 0.60770 0.31950 -0.07000
C 	C 	0.09400 0.81897 0.05520 -0.04200
C 	C 	0.07350 0.84300 0.99950 -0.01500
H 	H 	0.04340 0.84460 0.00070 0.01300
C 	C 	0.09700 0.86470 0.94220 -0.04300
H 	H 	0.08300 0.88110 0.90420 0.03600
C 	C 	0.14100 0.86240 0.94050 -0.05000
H 	H 	0.15700 0.87730 0.90140 0.04100
C 	C 	0.16150 0.83840 0.99620 -0.01000
H 	H 	0.19160 0.83680 0.99500 0.03200
C 	C 	0.13800 0.81670 0.05350 -0.07200
H 	H 	0.15210 0.80020 0.09150 0.04900
C 	C 	0.90130 0.77010 0.31640 -0.01600
C 	C 	0.87950 0.78876 0.24800 -0.06100
H 	H 	0.88300 0.81250 0.24510 0.04600
C 	C 	0.85250 0.77260 0.18410 -0.02500
H 	H 	0.83760 0.78540 0.13740 0.02700
C 	C 	0.84740 0.73780 0.18850 -0.05200
H 	H 	0.82900 0.72680 0.14480 0.04000
C 	C 	0.86920 0.71917 0.25680 -0.02500
H 	H 	0.86560 0.69540 0.25980 0.03800
C 	C 	0.89610 0.73530 0.32070 -0.05900
H 	H 	0.91100 0.72260 0.36740 0.02500
C 	C 	0.90675 0.81831 0.47170 -0.01700
C 	C 	0.86303 0.81430 0.47790 -0.06600
H 	H 	0.84930 0.79730 0.44130 0.04900
C 	C 	0.83942 0.83510 0.53750 -0.01800
H 	H 	0.80950 0.83240 0.54170 0.03000
C 	C 	0.85950 0.85990 0.59110 -0.06200
H 	H 	0.84340 0.87420 0.63180 0.04400
C 	C 	0.90330 0.86396 0.58490 -0.01800
H 	H 	0.91700 0.88090 0.62150 0.02800
C 	C 	0.92686 0.84310 0.52530 -0.07000
H 	H 	0.95670 0.84590 0.52110 0.04200
C 	C 	0.09800 0.76970 0.20370 -0.02000
C 	C 	0.11930 0.78980 0.26920 -0.05700
H 	H 	0.11480 0.81350 0.26960 0.04500
C 	C 	0.14720 0.77530 0.33430 -0.02700
H 	H 	0.16180 0.78910 0.37910 0.03000
C 	C 	0.15380 0.74070 0.33380 -0.05000
H 	H 	0.17290 0.73080 0.37820 0.04000
C 	C 	0.13250 0.72050 0.26820 -0.02500
H 	H 	0.13710 0.69680 0.26780 0.03700
C 	C 	0.10470 0.73500 0.20310 -0.05800
H 	H 	0.09010 0.72120 0.15830 0.02500
Ag	Ag	0.47519 0.25006 0.51211 0.50100
P 	P 	0.43842 0.28864 0.40390 0.02700
P 	P 	0.56166 0.28808 0.12183 0.02800
N 	N 	0.52890 0.21120 0.45480 -0.17600
N 	N 	0.72130 0.03763 0.31540 -0.22400
C 	C 	0.52800 0.31440 0.19780 -0.20500
H 	H 	0.51100 0.32980 0.15730 0.07700
H 	H 	0.54610 0.32840 0.24000 0.08400
C 	C 	0.49970 0.29379 0.25600 0.00600
H 	H 	0.48050 0.28100 0.21320 0.01200
H 	H 	0.51680 0.27720 0.29220 0.01400
C 	C 	0.47160 0.31510 0.32970 -0.20600
H 	H 	0.49060 0.32850 0.37110 0.07700
H 	H 	0.45340 0.33090 0.29360 0.08500
C 	C 	0.56480 0.20700 0.51320 0.04800
H 	H 	0.57040 0.22110 0.56640 0.00700
C 	C 	0.59170 0.18030 0.48720 -0.13600
H 	H 	0.61710 0.17710 0.52260 0.06500
C 	C 	0.58310 0.15900 0.41370 0.09300
H 	H 	0.60220 0.14140 0.39740 -0.08000
C 	C 	0.54410 0.16390 0.36100 -0.14600
H 	H 	0.53650 0.14870 0.31130 0.06800
C 	C 	0.51840 0.19040 0.38300 0.06800
H 	H 	0.49310 0.19410 0.34760 -0.01000
C 	C 	0.68610 0.04430 0.27620 0.14500
H 	H 	0.67720 0.02950 0.22670 -0.02300
C 	C 	0.65860 0.07140 0.29790 -0.26600
H 	H 	0.63310 0.07480 0.26300 0.11700
C 	C 	0.67020 0.09350 0.37400 0.29200
C 	C 	0.70650 0.08680 0.41510 -0.31700
H 	H 	0.71700 0.10090 0.46450 0.12900
C 	C 	0.72860 0.05990 0.38700 0.16200
H 	H 	0.75350 0.05570 0.42310 -0.03900
C 	C 	0.64630 0.12260 0.40040 -0.39700
H 	H 	0.65650 0.13950 0.44250 0.15800
C 	C 	0.61370 0.12330 0.36600 0.25700
H 	H 	0.60380 0.10770 0.31950 -0.07000
C 	C 	0.59400 0.31897 0.05520 -0.04200
C 	C 	0.57350 0.34300 0.99950 -0.01400
H 	H 	0.54340 0.34460 0.00070 0.01300
C 	C 	0.59700 0.36470 0.94220 -0.04300
H 	H 	0.58300 0.38110 0.90420 0.03600
C 	C 	0.64100 0.36240 0.94050 -0.05000
H 	H 	0.65700 0.37730 0.90140 0.04100
C 	C 	0.66150 0.33840 0.99620 -0.01000
H 	H 	0.69160 0.33680 0.99500 0.03200
C 	C 	0.63800 0.31670 0.05350 -0.07200
H 	H 	0.65210 0.30020 0.09150 0.04900
C 	C 	0.40130 0.27010 0.31640 -0.01600
C 	C 	0.37950 0.28876 0.24800 -0.06100
H 	H 	0.38300 0.31250 0.24510 0.04600
C 	C 	0.35250 0.27260 0.18410 -0.02500
H 	H 	0.33760 0.28540 0.13740 0.02700
C 	C 	0.34740 0.23780 0.18850 -0.05200
H 	H 	0.32900 0.22680 0.14480 0.04000
C 	C 	0.36920 0.21917 0.25680 -0.02500
H 	H 	0.36560 0.19540 0.25980 0.03800
C 	C 	0.39610 0.23530 0.32070 -0.05900
H 	H 	0.41100 0.22260 0.36740 0.02500
C 	C 	0.40675 0.31831 0.47170 -0.01700
C 	C 	0.36303 0.31430 0.47790 -0.06600
H 	H 	0.34930 0.29730 0.44130 0.04900
C 	C 	0.33942 0.33510 0.53750 -0.01800
H 	H 	0.30950 0.33240 0.54170 0.03000
C 	C 	0.35950 0.35990 0.59110 -0.06200
H 	H 	0.34340 0.37420 0.63180 0.04400
C 	C 	0.40330 0.36396 0.58490 -0.01800
H 	H 	0.41700 0.38090 0.62150 0.02800
C 	C 	0.42686 0.34310 0.52530 -0.07000
H 	H 	0.45670 0.34590 0.52110 0.04200
C 	C 	0.59800 0.26970 0.20370 -0.02000
C 	C 	0.61930 0.28980 0.26920 -0.05700
H 	H 	0.61480 0.31350 0.26960 0.04500
C 	C 	0.64720 0.27530 0.33430 -0.02700
H 	H 	0.66180 0.28910 0.37910 0.03000
C 	C 	0.65380 0.24070 0.33380 -0.05000
H 	H 	0.67290 0.23080 0.37820 0.04000
C 	C 	0.63250 0.22050 0.26820 -0.02500
H 	H 	0.63710 0.19680 0.26780 0.03700
C 	C 	0.60470 0.23500 0.20310 -0.05800
H 	H 	0.59010 0.22120 0.15830 0.02500
Ag	Ag	0.47519 0.75005 0.01211 0.49400
P 	P 	0.43842 0.78864 0.90390 0.03200
P 	P 	0.56166 0.78808 0.62183 0.02600
N 	N 	0.52890 0.71120 0.95480 -0.16000
N 	N 	0.72130 0.53763 0.81540 -0.22700
C 	C 	0.52800 0.81440 0.69780 -0.20600
H 	H 	0.51100 0.82980 0.65730 0.07900
H 	H 	0.54610 0.82840 0.74000 0.08600
C 	C 	0.49970 0.79379 0.75600 0.00800
H 	H 	0.48050 0.78100 0.71320 0.01200
H 	H 	0.51680 0.77720 0.79220 0.01400
C 	C 	0.47160 0.81510 0.82970 -0.20700
H 	H 	0.49060 0.82850 0.87110 0.08100
H 	H 	0.45340 0.83090 0.79360 0.08700
C 	C 	0.56480 0.70700 0.01320 -0.00400
H 	H 	0.57040 0.72110 0.06640 0.02200
C 	C 	0.59170 0.68030 0.98720 -0.07300
H 	H 	0.61710 0.67710 0.02260 0.03500
C 	C 	0.58310 0.65900 0.91370 0.07700
H 	H 	0.60220 0.64140 0.89740 -0.09700
C 	C 	0.54410 0.66390 0.86100 -0.13300
H 	H 	0.53650 0.64870 0.81130 0.06400
C 	C 	0.51840 0.69040 0.88300 0.06100
H 	H 	0.49310 0.69410 0.84760 -0.00600
C 	C 	0.68610 0.54430 0.77620 0.15400
H 	H 	0.67720 0.52950 0.72670 -0.02500
C 	C 	0.65860 0.57140 0.79790 -0.28300
H 	H 	0.63310 0.57480 0.76300 0.12500
C 	C 	0.67020 0.59350 0.87400 0.32700
C 	C 	0.70650 0.58680 0.91510 -0.33900
H 	H 	0.71700 0.60090 0.96450 0.14200
C 	C 	0.72860 0.55990 0.88700 0.17600
H 	H 	0.75350 0.55570 0.92310 -0.04000
C 	C 	0.64630 0.62260 0.90040 -0.45700
H 	H 	0.65650 0.63950 0.94250 0.18300
C 	C 	0.61370 0.62330 0.86600 0.32500
H 	H 	0.60380 0.60770 0.81950 -0.09300
C 	C 	0.59400 0.81897 0.55520 -0.01400
C 	C 	0.57350 0.84300 0.49950 -0.07200
H 	H 	0.54340 0.84460 0.50070 0.04200
C 	C 	0.59700 0.86470 0.44220 -0.01500
H 	H 	0.58300 0.88110 0.40420 0.02500
C 	C 	0.64100 0.86240 0.44050 -0.06400
H 	H 	0.65700 0.87730 0.40140 0.04400
C 	C 	0.66150 0.83840 0.49620 -0.01700
H 	H 	0.69160 0.83680 0.49500 0.02900
C 	C 	0.63800 0.81670 0.55350 -0.06700
H 	H 	0.65210 0.80020 0.59150 0.05000
C 	C 	0.40130 0.77010 0.81640 -0.01500
C 	C 	0.37950 0.78876 0.74800 -0.06000
H 	H 	0.38300 0.81250 0.74510 0.04700
C 	C 	0.35250 0.77260 0.68410 -0.02400
H 	H 	0.33760 0.78540 0.63740 0.02900
C 	C 	0.34740 0.73780 0.68850 -0.05200
H 	H 	0.32900 0.72680 0.64480 0.04200
C 	C 	0.36920 0.71917 0.75680 -0.02300
H 	H 	0.36560 0.69540 0.75980 0.03900
C 	C 	0.39610 0.73530 0.82070 -0.05900
H 	H 	0.41100 0.72260 0.86740 0.02700
C 	C 	0.40675 0.81831 0.97170 -0.00600
C 	C 	0.36303 0.81430 0.97790 -0.04600
H 	H 	0.34930 0.79730 0.94130 0.04600
C 	C 	0.33942 0.83510 0.03750 -0.04100
H 	H 	0.30950 0.83240 0.04170 0.03400
C 	C 	0.35950 0.85990 0.09110 -0.05700
H 	H 	0.34340 0.87420 0.13180 0.04100
C 	C 	0.40330 0.86396 0.08490 -0.01800
H 	H 	0.41700 0.88090 0.12150 0.02600
C 	C 	0.42686 0.84310 0.02530 -0.08700
H 	H 	0.45670 0.84590 0.02110 0.04400
C 	C 	0.59800 0.76970 0.70370 -0.01900
C 	C 	0.61930 0.78980 0.76920 -0.05700
H 	H 	0.61480 0.81350 0.76960 0.04600
C 	C 	0.64720 0.77530 0.83430 -0.02500
H 	H 	0.66180 0.78910 0.87910 0.03300
C 	C 	0.65380 0.74070 0.83380 -0.05000
H 	H 	0.67290 0.73080 0.87820 0.04300
C 	C 	0.63250 0.72050 0.76820 -0.02300
H 	H 	0.63710 0.69680 0.76780 0.03700
C 	C 	0.60470 0.73500 0.70310 -0.05800
H 	H 	0.59010 0.72120 0.65830 0.02700
