data_crystal

_cell_length_a 20.17160
_cell_length_b 20.17160
_cell_length_c 41.23000
_cell_angle_alpha 90.00000
_cell_angle_beta  90.00000
_cell_angle_gamma 90.00000

_symmetry_space_group_name_	'P 1'
_symmetry_space_group_name_H-M	'P 1'

loop_
_symmetry_equiv_pos_as_xyz
  x,y,z

loop_
_atom_site_label
_atom_site_type_symbol
_atom_site_fract_x
_atom_site_fract_y
_atom_site_fract_z
_atom_site_charge
Mn	Mn	0.04727 0.72723 0.89173 1.31000
Mn	Mn	0.55080 0.73600 0.88027 1.30800
Mn	Mn	0.95273 0.27277 0.39173 1.31000
Mn	Mn	0.44920 0.26400 0.38027 1.30800
Mn	Mn	0.77277 0.54727 0.64173 1.31000
Mn	Mn	0.76400 0.05080 0.63027 1.30800
Mn	Mn	0.22723 0.45273 0.14173 1.31000
Mn	Mn	0.23600 0.94920 0.13027 1.30800
H 	H 	0.86870 0.69050 0.75550 0.07300
H 	H 	0.95710 0.64300 0.77930 0.05200
H 	H 	0.99850 0.81290 0.82460 0.06200
H 	H 	0.90470 0.85930 0.80380 0.01600
H 	H 	0.00100 0.57650 0.80730 0.64800
H 	H 	0.06710 0.53600 0.81060 0.66800
H 	H 	0.03940 0.57540 0.84040 0.64300
H 	H 	0.15270 0.63810 0.84480 0.58900
H 	H 	0.18110 0.60290 0.81390 0.58400
H 	H 	0.17550 0.68040 0.81490 0.57200
H 	H 	0.05040 0.63530 0.75880 0.57400
H 	H 	0.11410 0.67870 0.76350 0.56100
H 	H 	0.11980 0.60120 0.76250 0.61700
H 	H 	0.75710 0.92530 0.79230 0.01600
H 	H 	0.69290 0.93700 0.83690 0.05500
H 	H 	0.70860 0.74390 0.85470 0.12800
H 	H 	0.77010 0.73300 0.80840 0.08900
H 	H 	0.59690 0.95260 0.85650 0.67100
H 	H 	0.54390 0.91060 0.87520 0.65600
H 	H 	0.56470 0.98050 0.88830 0.66000
H 	H 	0.64310 0.87000 0.94460 0.65100
H 	H 	0.59330 0.92950 0.94270 0.65100
H 	H 	0.57240 0.85960 0.92960 0.61600
H 	H 	0.71400 0.96610 0.88100 0.72400
H 	H 	0.68390 0.99410 0.91330 0.77700
H 	H 	0.73050 0.93200 0.91420 0.77700
H 	H 	0.68980 0.75380 0.76450 0.07100
H 	H 	0.63570 0.69040 0.72640 0.05200
H 	H 	0.79250 0.70370 0.66760 0.10700
H 	H 	0.84310 0.76860 0.70390 0.06000
H 	H 	0.54190 0.58970 0.63230 0.57700
H 	H 	0.59560 0.63830 0.61850 0.55900
H 	H 	0.61610 0.56700 0.62990 0.56000
H 	H 	0.59710 0.59790 0.71630 0.73900
H 	H 	0.54310 0.56440 0.69440 0.73600
H 	H 	0.61730 0.54190 0.69190 0.74000
H 	H 	0.56570 0.71180 0.69570 0.65300
H 	H 	0.57060 0.72730 0.65850 0.64500
H 	H 	0.51210 0.68400 0.67180 0.66300
H 	H 	0.73390 0.90920 0.73870 0.08200
H 	H 	0.75590 0.00320 0.70910 0.06700
H 	H 	0.94890 0.95170 0.70710 0.00100
H 	H 	0.92670 0.86340 0.73990 0.03900
H 	H 	0.94590 0.02950 0.63370 0.79200
H 	H 	0.01380 0.05360 0.64800 0.78100
H 	H 	0.97860 0.99100 0.66260 0.73900
H 	H 	0.01580 0.10660 0.70430 0.66600
H 	H 	0.94880 0.11580 0.72310 0.65300
H 	H 	0.97950 0.04480 0.71910 0.64700
H 	H 	0.89920 0.13950 0.64280 0.83600
H 	H 	0.89800 0.17080 0.67760 0.80800
H 	H 	0.96500 0.16530 0.65860 0.82300
H 	H 	0.07180 0.58550 0.97300 0.11800
H 	H 	0.83240 0.75750 0.89700 0.09700
H 	H 	0.55600 0.69640 0.77660 0.03900
H 	H 	0.33410 0.75430 0.88870 0.08600
H 	H 	0.13130 0.30950 0.25550 0.07200
H 	H 	0.04290 0.35700 0.27930 0.05000
H 	H 	0.00150 0.18710 0.32460 0.06100
H 	H 	0.09530 0.14070 0.30380 0.01500
H 	H 	0.99900 0.42350 0.30730 0.64700
H 	H 	0.93290 0.46400 0.31060 0.66700
H 	H 	0.96060 0.42460 0.34040 0.64200
H 	H 	0.84730 0.36190 0.34480 0.58800
H 	H 	0.81890 0.39710 0.31390 0.58300
H 	H 	0.82450 0.31960 0.31490 0.57100
H 	H 	0.94960 0.36470 0.25880 0.57300
H 	H 	0.88590 0.32130 0.26350 0.56000
H 	H 	0.88020 0.39880 0.26250 0.61600
H 	H 	0.24290 0.07470 0.29230 0.01500
H 	H 	0.30710 0.06300 0.33690 0.05400
H 	H 	0.29140 0.25610 0.35470 0.12700
H 	H 	0.22990 0.26700 0.30840 0.08800
H 	H 	0.40310 0.04740 0.35650 0.67100
H 	H 	0.45610 0.08940 0.37520 0.65500
H 	H 	0.43530 0.01950 0.38830 0.65900
H 	H 	0.35690 0.13000 0.44460 0.65000
H 	H 	0.40670 0.07050 0.44270 0.65100
H 	H 	0.42760 0.14040 0.42960 0.61500
H 	H 	0.28600 0.03390 0.38100 0.72300
H 	H 	0.31610 0.00590 0.41330 0.77600
H 	H 	0.26950 0.06800 0.41420 0.77700
H 	H 	0.31020 0.24620 0.26450 0.07100
H 	H 	0.36430 0.30960 0.22640 0.05200
H 	H 	0.20750 0.29630 0.16760 0.10700
H 	H 	0.15690 0.23140 0.20390 0.06000
H 	H 	0.45810 0.41030 0.13230 0.57700
H 	H 	0.40440 0.36170 0.11850 0.55900
H 	H 	0.38390 0.43300 0.12990 0.56000
H 	H 	0.40290 0.40210 0.21630 0.73900
H 	H 	0.45690 0.43560 0.19440 0.73600
H 	H 	0.38270 0.45810 0.19190 0.74000
H 	H 	0.43430 0.28820 0.19570 0.65300
H 	H 	0.42940 0.27270 0.15850 0.64500
H 	H 	0.48790 0.31600 0.17180 0.66300
H 	H 	0.26610 0.09080 0.23870 0.08200
H 	H 	0.24410 0.99680 0.20910 0.06700
H 	H 	0.05110 0.04830 0.20710 0.00100
H 	H 	0.07330 0.13660 0.23990 0.03900
H 	H 	0.05410 0.97050 0.13370 0.79100
H 	H 	0.98620 0.94640 0.14800 0.78000
H 	H 	0.02140 0.00900 0.16260 0.73800
H 	H 	0.98420 0.89340 0.20430 0.66600
H 	H 	0.05120 0.88420 0.22310 0.65300
H 	H 	0.02050 0.95520 0.21910 0.64600
H 	H 	0.10080 0.86050 0.14280 0.83600
H 	H 	0.10200 0.82920 0.17760 0.80700
H 	H 	0.03500 0.83470 0.15860 0.82300
H 	H 	0.92820 0.41450 0.47300 0.11800
H 	H 	0.16760 0.24250 0.39700 0.09700
H 	H 	0.44400 0.30360 0.27660 0.03900
H 	H 	0.66590 0.24570 0.38870 0.08600
H 	H 	0.80950 0.36870 0.50550 0.07200
H 	H 	0.85700 0.45710 0.52930 0.05000
H 	H 	0.68710 0.49850 0.57460 0.06100
H 	H 	0.64070 0.40470 0.55380 0.01500
H 	H 	0.92350 0.50100 0.55730 0.64800
H 	H 	0.96400 0.56710 0.56060 0.66800
H 	H 	0.92460 0.53940 0.59040 0.64300
H 	H 	0.86190 0.65270 0.59480 0.58800
H 	H 	0.89710 0.68110 0.56390 0.58300
H 	H 	0.81960 0.67550 0.56490 0.57100
H 	H 	0.86470 0.55040 0.50880 0.57300
H 	H 	0.82130 0.61410 0.51350 0.56000
H 	H 	0.89880 0.61980 0.51250 0.61600
H 	H 	0.57470 0.25710 0.54230 0.01500
H 	H 	0.56300 0.19290 0.58690 0.05400
H 	H 	0.75610 0.20860 0.60470 0.12700
H 	H 	0.76700 0.27010 0.55840 0.08800
H 	H 	0.54740 0.09690 0.60650 0.67200
H 	H 	0.58940 0.04390 0.62520 0.65700
H 	H 	0.51950 0.06470 0.63830 0.66100
H 	H 	0.63000 0.14310 0.69460 0.65200
H 	H 	0.57050 0.09330 0.69270 0.65200
H 	H 	0.64040 0.07240 0.67960 0.61600
H 	H 	0.53390 0.21400 0.63100 0.72400
H 	H 	0.50590 0.18390 0.66330 0.77800
H 	H 	0.56800 0.23050 0.66420 0.77800
H 	H 	0.74620 0.18980 0.51450 0.07100
H 	H 	0.80960 0.13570 0.47640 0.05200
H 	H 	0.79630 0.29250 0.41760 0.10700
H 	H 	0.73140 0.34310 0.45390 0.06000
H 	H 	0.91030 0.04190 0.38230 0.57900
H 	H 	0.86170 0.09560 0.36850 0.56000
H 	H 	0.93300 0.11610 0.37990 0.56200
H 	H 	0.90210 0.09710 0.46630 0.74100
H 	H 	0.93560 0.04310 0.44440 0.73700
H 	H 	0.95810 0.11730 0.44190 0.74200
H 	H 	0.78820 0.06570 0.44570 0.65400
H 	H 	0.77270 0.07060 0.40850 0.64600
H 	H 	0.81600 0.01210 0.42180 0.66400
H 	H 	0.59080 0.23390 0.48870 0.08400
H 	H 	0.49680 0.25590 0.45910 0.06300
H 	H 	0.54830 0.44890 0.45710 0.00000
H 	H 	0.63660 0.42670 0.48990 0.03900
H 	H 	0.47050 0.44590 0.38370 0.80800
H 	H 	0.44640 0.51380 0.39800 0.80000
H 	H 	0.50900 0.47860 0.41260 0.75700
H 	H 	0.39340 0.51580 0.45430 0.68000
H 	H 	0.38420 0.44880 0.47310 0.66400
H 	H 	0.45520 0.47950 0.46910 0.65700
H 	H 	0.36050 0.39920 0.39280 0.84500
H 	H 	0.32920 0.39800 0.42760 0.81600
H 	H 	0.33470 0.46500 0.40860 0.83100
H 	H 	0.91450 0.57180 0.72300 0.11800
H 	H 	0.74250 0.33240 0.64700 0.09800
H 	H 	0.80360 0.05600 0.52660 0.03900
H 	H 	0.74570 0.83410 0.63870 0.08600
H 	H 	0.19050 0.63130 0.00550 0.07200
H 	H 	0.14300 0.54290 0.02930 0.05000
H 	H 	0.31290 0.50150 0.07460 0.06100
H 	H 	0.35930 0.59530 0.05380 0.01500
H 	H 	0.07650 0.49900 0.05730 0.64800
H 	H 	0.03600 0.43290 0.06060 0.66800
H 	H 	0.07540 0.46060 0.09040 0.64300
H 	H 	0.13810 0.34730 0.09480 0.58900
H 	H 	0.10290 0.31890 0.06390 0.58300
H 	H 	0.18040 0.32450 0.06490 0.57100
H 	H 	0.13530 0.44960 0.00880 0.57300
H 	H 	0.17870 0.38590 0.01350 0.56000
H 	H 	0.10120 0.38020 0.01250 0.61600
H 	H 	0.42530 0.74290 0.04230 0.01500
H 	H 	0.43700 0.80710 0.08690 0.05400
H 	H 	0.24390 0.79140 0.10470 0.12700
H 	H 	0.23300 0.72990 0.05840 0.08800
H 	H 	0.45260 0.90310 0.10650 0.67200
H 	H 	0.41060 0.95610 0.12520 0.65700
H 	H 	0.48050 0.93530 0.13830 0.66100
H 	H 	0.37000 0.85690 0.19460 0.65200
H 	H 	0.42950 0.90670 0.19270 0.65200
H 	H 	0.35960 0.92760 0.17960 0.61600
H 	H 	0.46610 0.78600 0.13100 0.72400
H 	H 	0.49410 0.81610 0.16330 0.77800
H 	H 	0.43200 0.76950 0.16420 0.77800
H 	H 	0.25380 0.81020 0.01450 0.07200
H 	H 	0.19040 0.86430 0.97640 0.05200
H 	H 	0.20370 0.70750 0.91760 0.10700
H 	H 	0.26860 0.65690 0.95390 0.06000
H 	H 	0.08970 0.95810 0.88230 0.57900
H 	H 	0.13830 0.90440 0.86850 0.56000
H 	H 	0.06700 0.88390 0.87990 0.56200
H 	H 	0.09790 0.90290 0.96630 0.74000
H 	H 	0.06440 0.95690 0.94440 0.73700
H 	H 	0.04190 0.88270 0.94190 0.74100
H 	H 	0.21180 0.93430 0.94570 0.65400
H 	H 	0.22730 0.92940 0.90850 0.64600
H 	H 	0.18400 0.98790 0.92180 0.66400
H 	H 	0.40920 0.76610 0.98870 0.08400
H 	H 	0.50320 0.74410 0.95910 0.06300
H 	H 	0.45170 0.55110 0.95710 0.00100
H 	H 	0.36340 0.57330 0.98990 0.03900
H 	H 	0.52950 0.55410 0.88370 0.80800
H 	H 	0.55360 0.48620 0.89800 0.80000
H 	H 	0.49100 0.52140 0.91260 0.75700
H 	H 	0.60660 0.48420 0.95430 0.68000
H 	H 	0.61580 0.55120 0.97310 0.66400
H 	H 	0.54480 0.52050 0.96910 0.65700
H 	H 	0.63950 0.60080 0.89280 0.84500
H 	H 	0.67080 0.60200 0.92760 0.81600
H 	H 	0.66530 0.53500 0.90860 0.83100
H 	H 	0.08550 0.42820 0.22300 0.11800
H 	H 	0.25750 0.66760 0.14700 0.09800
H 	H 	0.19640 0.94400 0.02660 0.03900
H 	H 	0.25430 0.16590 0.13870 0.08600
C 	C 	0.81086 0.81381 0.76367 -0.02300
C 	C 	0.87464 0.78071 0.77654 0.00300
C 	C 	0.89405 0.71534 0.76992 -0.00600
C 	C 	0.94735 0.68723 0.78339 -0.10300
C 	C 	0.98813 0.72429 0.80355 0.11400
C 	C 	0.97156 0.78823 0.81088 -0.11200
C 	C 	0.91585 0.81612 0.79818 -0.00900
C 	C 	0.08284 0.63512 0.80693 1.21400
C 	C 	0.04410 0.57539 0.81723 -1.99200
C 	C 	0.15514 0.63958 0.82160 -1.73700
C 	C 	0.09274 0.63790 0.76930 -1.76900
C 	C 	0.76933 0.82802 0.79412 -0.00100
C 	C 	0.74661 0.88783 0.80438 0.02300
C 	C 	0.70920 0.89525 0.83159 -0.13800
C 	C 	0.69513 0.84233 0.85134 0.16700
C 	C 	0.71793 0.78099 0.84210 -0.11300
C 	C 	0.75456 0.77476 0.81414 0.00300
C 	C 	0.63597 0.90860 0.89789 1.32500
C 	C 	0.58002 0.94121 0.87752 -1.97500
C 	C 	0.60859 0.89017 0.93195 -1.91600
C 	C 	0.69690 0.95457 0.90197 -2.12500
C 	C 	0.77303 0.76943 0.73926 0.02200
C 	C 	0.71062 0.74466 0.74491 0.01500
C 	C 	0.67800 0.70621 0.72193 -0.07300
C 	C 	0.70725 0.69112 0.69263 0.14400
C 	C 	0.77094 0.71450 0.68684 -0.09900
C 	C 	0.80110 0.75234 0.70880 0.00300
C 	C 	0.60047 0.63104 0.66923 1.27200
C 	C 	0.58723 0.60386 0.63406 -1.75500
C 	C 	0.58836 0.57900 0.69541 -2.12700
C 	C 	0.55817 0.69459 0.67426 -1.93500
C 	C 	0.82806 0.87664 0.74344 0.01500
C 	C 	0.77750 0.91892 0.73309 -0.04800
C 	C 	0.79032 0.97477 0.71481 -0.08600
C 	C 	0.85592 0.98869 0.70475 0.08400
C 	C 	0.90562 0.94455 0.71412 -0.10300
C 	C 	0.89217 0.89089 0.73341 -0.05000
C 	C 	0.93490 0.07788 0.67713 1.65300
C 	C 	0.97169 0.03392 0.65313 -2.37700
C 	C 	0.97336 0.08712 0.70889 -2.16500
C 	C 	0.92324 0.14422 0.66277 -2.51900
C 	C 	0.02790 0.69090 0.99777 1.05700
C 	C 	0.04582 0.67905 0.96268 -0.01700
C 	C 	0.07079 0.61683 0.95645 -0.16000
C 	C 	0.09396 0.60055 0.92653 0.21200
C 	C 	0.85101 0.63559 0.87668 0.93400
C 	C 	0.89767 0.68965 0.88354 -0.06600
C 	C 	0.87733 0.75141 0.89288 0.03000
C 	C 	0.91673 0.80294 0.89647 -0.04200
C 	C 	0.88307 0.86886 0.90430 0.99200
C 	C 	0.60760 0.59181 0.80790 1.17700
C 	C 	0.58627 0.66027 0.81985 -0.13100
C 	C 	0.55992 0.70673 0.79847 0.12300
C 	C 	0.54008 0.76646 0.80933 -0.19600
C 	C 	0.52030 0.81020 0.78524 0.99900
C 	C 	0.35470 0.64539 0.87016 0.96000
C 	C 	0.40362 0.69292 0.87905 -0.09500
C 	C 	0.37982 0.74845 0.88903 -0.03500
C 	C 	0.41896 0.79980 0.90018 0.05300
C 	C 	0.37510 0.86449 0.90749 0.69200
C 	C 	0.18914 0.18619 0.26367 -0.02300
C 	C 	0.12536 0.21929 0.27654 0.00300
C 	C 	0.10595 0.28466 0.26992 -0.00600
C 	C 	0.05265 0.31277 0.28339 -0.10300
C 	C 	0.01187 0.27571 0.30355 0.11400
C 	C 	0.02844 0.21177 0.31088 -0.11200
C 	C 	0.08415 0.18388 0.29818 -0.00900
C 	C 	0.91716 0.36488 0.30693 1.21400
C 	C 	0.95590 0.42461 0.31723 -1.99200
C 	C 	0.84486 0.36042 0.32160 -1.73700
C 	C 	0.90726 0.36210 0.26930 -1.76900
C 	C 	0.23067 0.17198 0.29412 -0.00100
C 	C 	0.25339 0.11217 0.30438 0.02400
C 	C 	0.29080 0.10475 0.33159 -0.13800
C 	C 	0.30487 0.15767 0.35134 0.16700
C 	C 	0.28207 0.21901 0.34210 -0.11300
C 	C 	0.24544 0.22524 0.31414 0.00300
C 	C 	0.36403 0.09140 0.39789 1.32500
C 	C 	0.41998 0.05879 0.37752 -1.97600
C 	C 	0.39141 0.10983 0.43195 -1.91700
C 	C 	0.30310 0.04543 0.40197 -2.12500
C 	C 	0.22697 0.23057 0.23926 0.02200
C 	C 	0.28938 0.25534 0.24491 0.01500
C 	C 	0.32200 0.29379 0.22193 -0.07300
C 	C 	0.29275 0.30888 0.19263 0.14400
C 	C 	0.22906 0.28550 0.18684 -0.09900
C 	C 	0.19890 0.24766 0.20880 0.00300
C 	C 	0.39953 0.36896 0.16923 1.27200
C 	C 	0.41277 0.39614 0.13406 -1.75500
C 	C 	0.41164 0.42100 0.19541 -2.12700
C 	C 	0.44183 0.30541 0.17426 -1.93500
C 	C 	0.17194 0.12336 0.24344 0.01500
C 	C 	0.22250 0.08108 0.23309 -0.04800
C 	C 	0.20968 0.02523 0.21481 -0.08600
C 	C 	0.14408 0.01131 0.20475 0.08400
C 	C 	0.09438 0.05545 0.21412 -0.10300
C 	C 	0.10783 0.10911 0.23341 -0.05000
C 	C 	0.06510 0.92212 0.17713 1.65200
C 	C 	0.02831 0.96608 0.15313 -2.37500
C 	C 	0.02664 0.91288 0.20889 -2.16300
C 	C 	0.07676 0.85578 0.16277 -2.51800
C 	C 	0.97210 0.30910 0.49777 1.05900
C 	C 	0.95418 0.32095 0.46268 -0.01800
C 	C 	0.92921 0.38317 0.45645 -0.15900
C 	C 	0.90604 0.39945 0.42653 0.21200
C 	C 	0.14899 0.36441 0.37668 0.93400
C 	C 	0.10233 0.31035 0.38354 -0.06600
C 	C 	0.12267 0.24859 0.39288 0.02900
C 	C 	0.08327 0.19706 0.39647 -0.04200
C 	C 	0.11693 0.13114 0.40430 0.99200
C 	C 	0.39240 0.40819 0.30790 1.17700
C 	C 	0.41373 0.33973 0.31985 -0.13100
C 	C 	0.44008 0.29327 0.29847 0.12300
C 	C 	0.45992 0.23354 0.30933 -0.19600
C 	C 	0.47970 0.18980 0.28524 0.99900
C 	C 	0.64530 0.35461 0.37016 0.96000
C 	C 	0.59638 0.30708 0.37905 -0.09500
C 	C 	0.62018 0.25155 0.38903 -0.03500
C 	C 	0.58104 0.20020 0.40018 0.05300
C 	C 	0.62490 0.13551 0.40749 0.69200
C 	C 	0.68619 0.31086 0.51367 -0.02300
C 	C 	0.71929 0.37464 0.52654 0.00300
C 	C 	0.78466 0.39405 0.51992 -0.00600
C 	C 	0.81277 0.44735 0.53339 -0.10300
C 	C 	0.77571 0.48813 0.55355 0.11300
C 	C 	0.71177 0.47156 0.56088 -0.11200
C 	C 	0.68388 0.41585 0.54818 -0.00900
C 	C 	0.86488 0.58284 0.55693 1.21500
C 	C 	0.92461 0.54410 0.56723 -1.99400
C 	C 	0.86042 0.65514 0.57160 -1.73700
C 	C 	0.86210 0.59274 0.51930 -1.76900
C 	C 	0.67198 0.26933 0.54412 -0.00000
C 	C 	0.61217 0.24661 0.55438 0.02300
C 	C 	0.60475 0.20920 0.58159 -0.13800
C 	C 	0.65767 0.19513 0.60134 0.16700
C 	C 	0.71901 0.21793 0.59210 -0.11300
C 	C 	0.72524 0.25456 0.56414 0.00300
C 	C 	0.59140 0.13597 0.64789 1.32800
C 	C 	0.55879 0.08002 0.62752 -1.97900
C 	C 	0.60983 0.10859 0.68195 -1.92000
C 	C 	0.54543 0.19690 0.65197 -2.12800
C 	C 	0.73057 0.27303 0.48926 0.02300
C 	C 	0.75534 0.21062 0.49491 0.01500
C 	C 	0.79379 0.17800 0.47193 -0.07300
C 	C 	0.80888 0.20725 0.44263 0.14400
C 	C 	0.78550 0.27094 0.43684 -0.09900
C 	C 	0.74766 0.30110 0.45880 0.00300
C 	C 	0.86896 0.10047 0.41923 1.27500
C 	C 	0.89614 0.08723 0.38406 -1.76000
C 	C 	0.92100 0.08836 0.44541 -2.13100
C 	C 	0.80541 0.05817 0.42426 -1.93800
C 	C 	0.62336 0.32806 0.49344 0.01700
C 	C 	0.58108 0.27750 0.48309 -0.05200
C 	C 	0.52523 0.29032 0.46481 -0.08000
C 	C 	0.51131 0.35592 0.45475 0.08400
C 	C 	0.55545 0.40562 0.46412 -0.10300
C 	C 	0.60911 0.39217 0.48341 -0.05100
C 	C 	0.42212 0.43490 0.42713 1.68100
C 	C 	0.46608 0.47169 0.40313 -2.43400
C 	C 	0.41288 0.47336 0.45889 -2.20600
C 	C 	0.35578 0.42324 0.41277 -2.55000
C 	C 	0.80910 0.52790 0.74777 1.05700
C 	C 	0.82095 0.54582 0.71268 -0.01700
C 	C 	0.88317 0.57079 0.70645 -0.16000
C 	C 	0.89945 0.59396 0.67653 0.21300
C 	C 	0.86441 0.35101 0.62668 0.93400
C 	C 	0.81035 0.39767 0.63354 -0.06600
C 	C 	0.74859 0.37733 0.64288 0.03000
C 	C 	0.69706 0.41673 0.64647 -0.04200
C 	C 	0.63114 0.38307 0.65430 0.99200
C 	C 	0.90819 0.10760 0.55790 1.17700
C 	C 	0.83973 0.08627 0.56985 -0.13100
C 	C 	0.79327 0.05992 0.54847 0.12400
C 	C 	0.73354 0.04008 0.55933 -0.19600
C 	C 	0.68980 0.02030 0.53524 1.00000
C 	C 	0.85461 0.85470 0.62016 0.96000
C 	C 	0.80708 0.90362 0.62905 -0.09400
C 	C 	0.75155 0.87982 0.63903 -0.03500
C 	C 	0.70020 0.91896 0.65018 0.05300
C 	C 	0.63551 0.87510 0.65749 0.69200
C 	C 	0.31381 0.68914 0.01367 -0.02200
C 	C 	0.28071 0.62536 0.02654 0.00300
C 	C 	0.21534 0.60595 0.01992 -0.00600
C 	C 	0.18723 0.55265 0.03339 -0.10300
C 	C 	0.22429 0.51187 0.05355 0.11300
C 	C 	0.28823 0.52844 0.06088 -0.11200
C 	C 	0.31612 0.58415 0.04818 -0.00900
C 	C 	0.13512 0.41716 0.05693 1.21500
C 	C 	0.07539 0.45590 0.06723 -1.99400
C 	C 	0.13958 0.34486 0.07160 -1.73700
C 	C 	0.13790 0.40726 0.01930 -1.77000
C 	C 	0.32802 0.73067 0.04412 -0.00100
C 	C 	0.38783 0.75339 0.05438 0.02400
C 	C 	0.39525 0.79080 0.08159 -0.13800
C 	C 	0.34233 0.80487 0.10134 0.16700
C 	C 	0.28099 0.78207 0.09210 -0.11300
C 	C 	0.27476 0.74544 0.06414 0.00300
C 	C 	0.40860 0.86403 0.14789 1.32800
C 	C 	0.44121 0.91998 0.12752 -1.98000
C 	C 	0.39017 0.89141 0.18195 -1.92100
C 	C 	0.45457 0.80310 0.15197 -2.12900
C 	C 	0.26943 0.72697 0.98926 0.02300
C 	C 	0.24466 0.78938 0.99491 0.01400
C 	C 	0.20621 0.82200 0.97193 -0.07200
C 	C 	0.19112 0.79275 0.94263 0.14400
C 	C 	0.21450 0.72906 0.93684 -0.09900
C 	C 	0.25234 0.69890 0.95880 0.00300
C 	C 	0.13104 0.89953 0.91923 1.27400
C 	C 	0.10386 0.91277 0.88406 -1.75900
C 	C 	0.07900 0.91164 0.94541 -2.13000
C 	C 	0.19459 0.94183 0.92426 -1.93700
C 	C 	0.37664 0.67194 0.99344 0.01600
C 	C 	0.41892 0.72250 0.98309 -0.05100
C 	C 	0.47477 0.70968 0.96481 -0.08100
C 	C 	0.48869 0.64408 0.95475 0.08400
C 	C 	0.44455 0.59438 0.96412 -0.10300
C 	C 	0.39089 0.60783 0.98341 -0.05100
C 	C 	0.57788 0.56510 0.92713 1.68100
C 	C 	0.53392 0.52831 0.90313 -2.43500
C 	C 	0.58712 0.52664 0.95889 -2.20600
C 	C 	0.64422 0.57676 0.91277 -2.55100
C 	C 	0.19090 0.47210 0.24777 1.05700
C 	C 	0.17905 0.45418 0.21268 -0.01700
C 	C 	0.11683 0.42921 0.20645 -0.16000
C 	C 	0.10055 0.40604 0.17653 0.21300
C 	C 	0.13559 0.64899 0.12668 0.93400
C 	C 	0.18965 0.60233 0.13354 -0.06600
C 	C 	0.25141 0.62267 0.14288 0.03000
C 	C 	0.30294 0.58327 0.14647 -0.04200
C 	C 	0.36886 0.61693 0.15430 0.99200
C 	C 	0.09181 0.89240 0.05790 1.17600
C 	C 	0.16027 0.91373 0.06985 -0.13100
C 	C 	0.20673 0.94008 0.04847 0.12400
C 	C 	0.26646 0.95992 0.05933 -0.19600
C 	C 	0.31020 0.97970 0.03524 1.00000
C 	C 	0.14539 0.14530 0.12016 0.96000
C 	C 	0.19292 0.09638 0.12905 -0.09400
C 	C 	0.24845 0.12018 0.13903 -0.03500
C 	C 	0.29980 0.08104 0.15018 0.05300
C 	C 	0.36449 0.12490 0.15749 0.69200
N 	N 	0.04728 0.69672 0.81834 -0.21700
N 	N 	0.65614 0.84570 0.87948 -0.22000
N 	N 	0.67503 0.65216 0.66891 -0.20100
N 	N 	0.86766 0.04683 0.68528 -0.26200
N 	N 	0.95272 0.30328 0.31834 -0.21700
N 	N 	0.34386 0.15430 0.37948 -0.22100
N 	N 	0.32497 0.34784 0.16891 -0.20100
N 	N 	0.13234 0.95317 0.18528 -0.26200
N 	N 	0.80328 0.54728 0.56834 -0.21700
N 	N 	0.65430 0.15614 0.62948 -0.22100
N 	N 	0.84784 0.17503 0.41891 -0.20200
N 	N 	0.45317 0.36766 0.43528 -0.26700
N 	N 	0.19672 0.45272 0.06834 -0.21700
N 	N 	0.34570 0.84386 0.12948 -0.22100
N 	N 	0.15216 0.82497 0.91891 -0.20200
N 	N 	0.54683 0.63234 0.93528 -0.26700
O 	O 	0.07237 0.73070 0.84220 -0.30200
O 	O 	0.63625 0.79040 0.89177 -0.28700
O 	O 	0.71185 0.63109 0.64544 -0.29600
O 	O 	0.81576 0.07408 0.67290 -0.30000
O 	O 	0.03585 0.72673 0.94310 -0.26100
O 	O 	0.09546 0.63513 0.90102 -0.40000
O 	O 	0.95827 0.67236 0.88022 -0.26300
O 	O 	0.97682 0.80694 0.89369 -0.31200
O 	O 	0.59474 0.66543 0.84940 -0.29300
O 	O 	0.53958 0.79011 0.83662 -0.23100
O 	O 	0.46353 0.67661 0.87442 -0.26000
O 	O 	0.48123 0.80403 0.90016 -0.35200
O 	O 	0.92763 0.26930 0.34220 -0.30200
O 	O 	0.36375 0.20960 0.39177 -0.28700
O 	O 	0.28815 0.36891 0.14544 -0.29600
O 	O 	0.18424 0.92592 0.17290 -0.30000
O 	O 	0.96415 0.27327 0.44310 -0.26000
O 	O 	0.90454 0.36487 0.40102 -0.39900
O 	O 	0.04173 0.32764 0.38022 -0.26300
O 	O 	0.02318 0.19306 0.39369 -0.31200
O 	O 	0.40526 0.33457 0.34940 -0.29300
O 	O 	0.46042 0.20989 0.33662 -0.23100
O 	O 	0.53647 0.32339 0.37442 -0.26000
O 	O 	0.51877 0.19597 0.40016 -0.35200
O 	O 	0.76930 0.57237 0.59220 -0.30200
O 	O 	0.70960 0.13625 0.64177 -0.28700
O 	O 	0.86891 0.21185 0.39544 -0.29600
O 	O 	0.42592 0.31576 0.42290 -0.30100
O 	O 	0.77327 0.53585 0.69310 -0.26100
O 	O 	0.86487 0.59546 0.65102 -0.40000
O 	O 	0.82764 0.45827 0.63022 -0.26300
O 	O 	0.69306 0.47682 0.64369 -0.31200
O 	O 	0.83457 0.09474 0.59940 -0.29100
O 	O 	0.70989 0.03958 0.58662 -0.23100
O 	O 	0.82339 0.96353 0.62442 -0.26000
O 	O 	0.69597 0.98123 0.65016 -0.35300
O 	O 	0.23070 0.42763 0.09220 -0.30200
O 	O 	0.29040 0.86375 0.14177 -0.28700
O 	O 	0.13109 0.78815 0.89544 -0.29600
O 	O 	0.57408 0.68424 0.92290 -0.30100
O 	O 	0.22673 0.46415 0.19310 -0.26100
O 	O 	0.13513 0.40454 0.15102 -0.40000
O 	O 	0.17236 0.54173 0.13022 -0.26300
O 	O 	0.30694 0.52318 0.14369 -0.31200
O 	O 	0.16543 0.90526 0.09940 -0.29100
O 	O 	0.29011 0.96042 0.08662 -0.23000
O 	O 	0.17661 0.03647 0.12442 -0.26000
O 	O 	0.30403 0.01877 0.15016 -0.35300
F 	F 	0.07410 0.72753 0.01093 -0.48000
F 	F 	0.97701 0.71960 0.00206 -0.56200
F 	F 	0.02974 0.64192 0.01694 -0.58100
F 	F 	0.85864 0.61352 0.84588 -0.51300
F 	F 	0.78961 0.64956 0.88163 -0.54000
F 	F 	0.85769 0.58401 0.89457 -0.55600
F 	F 	0.85827 0.89868 0.87775 -0.54700
F 	F 	0.91909 0.91150 0.91470 -0.55300
F 	F 	0.82923 0.86142 0.92099 -0.53000
F 	F 	0.57530 0.54760 0.81768 -0.58700
F 	F 	0.66134 0.56918 0.82081 -0.49600
F 	F 	0.60870 0.58542 0.77861 -0.59800
F 	F 	0.56190 0.85750 0.77825 -0.48800
F 	F 	0.51211 0.79234 0.75436 -0.53200
F 	F 	0.47562 0.85147 0.78914 -0.55500
F 	F 	0.35406 0.59335 0.89138 -0.51700
F 	F 	0.36473 0.61303 0.84420 -0.55400
F 	F 	0.29327 0.65723 0.86948 -0.56300
F 	F 	0.40175 0.91558 0.90149 -0.60100
F 	F 	0.33666 0.85492 0.93117 -0.55200
F 	F 	0.92590 0.27247 0.51093 -0.48000
F 	F 	0.02299 0.28040 0.50206 -0.56300
F 	F 	0.97026 0.35808 0.51694 -0.58200
F 	F 	0.14136 0.38648 0.34588 -0.51300
F 	F 	0.21039 0.35044 0.38163 -0.54000
F 	F 	0.14231 0.41599 0.39457 -0.55600
F 	F 	0.14173 0.10132 0.37775 -0.54700
F 	F 	0.08091 0.08850 0.41470 -0.55300
F 	F 	0.17077 0.13858 0.42099 -0.53000
F 	F 	0.42470 0.45240 0.31768 -0.58700
F 	F 	0.33866 0.43082 0.32081 -0.49600
F 	F 	0.39130 0.41458 0.27861 -0.59800
F 	F 	0.43810 0.14250 0.27825 -0.48800
F 	F 	0.48789 0.20766 0.25436 -0.53200
F 	F 	0.52438 0.14853 0.28914 -0.55500
F 	F 	0.64594 0.40665 0.39138 -0.51700
F 	F 	0.63527 0.38697 0.34420 -0.55400
F 	F 	0.70673 0.34277 0.36948 -0.56300
F 	F 	0.59825 0.08442 0.40149 -0.60100
F 	F 	0.66334 0.14508 0.43117 -0.55200
F 	F 	0.77247 0.57410 0.76093 -0.48000
F 	F 	0.78040 0.47701 0.75206 -0.56100
F 	F 	0.85808 0.52974 0.76694 -0.58200
F 	F 	0.88648 0.35864 0.59588 -0.51300
F 	F 	0.85044 0.28961 0.63163 -0.54000
F 	F 	0.91599 0.35769 0.64457 -0.55500
F 	F 	0.60132 0.35827 0.62775 -0.54700
F 	F 	0.58850 0.41909 0.66470 -0.55300
F 	F 	0.63858 0.32923 0.67099 -0.53000
F 	F 	0.95240 0.07530 0.56768 -0.58500
F 	F 	0.93082 0.16134 0.57081 -0.49500
F 	F 	0.91458 0.10870 0.52861 -0.59800
F 	F 	0.64250 0.06190 0.52825 -0.48800
F 	F 	0.70766 0.01211 0.50436 -0.53200
F 	F 	0.64853 0.97562 0.53914 -0.55600
F 	F 	0.90665 0.85406 0.64138 -0.51600
F 	F 	0.88697 0.86473 0.59420 -0.55400
F 	F 	0.84277 0.79327 0.61948 -0.56300
F 	F 	0.58442 0.90175 0.65149 -0.60100
F 	F 	0.64508 0.83666 0.68117 -0.55200
F 	F 	0.22753 0.42590 0.26093 -0.48000
F 	F 	0.21960 0.52299 0.25206 -0.56100
F 	F 	0.14192 0.47026 0.26694 -0.58200
F 	F 	0.11352 0.64136 0.09588 -0.51300
F 	F 	0.14956 0.71039 0.13163 -0.54000
F 	F 	0.08401 0.64231 0.14457 -0.55500
F 	F 	0.39868 0.64173 0.12775 -0.54700
F 	F 	0.41150 0.58091 0.16470 -0.55300
F 	F 	0.36142 0.67077 0.17099 -0.53000
F 	F 	0.04760 0.92470 0.06768 -0.58500
F 	F 	0.06918 0.83866 0.07081 -0.49500
F 	F 	0.08542 0.89130 0.02861 -0.59700
F 	F 	0.35750 0.93810 0.02825 -0.48800
F 	F 	0.29234 0.98789 0.00436 -0.53100
F 	F 	0.35147 0.02438 0.03914 -0.55600
F 	F 	0.09335 0.14594 0.14138 -0.51600
F 	F 	0.11303 0.13527 0.09420 -0.55400
F 	F 	0.15723 0.20673 0.11948 -0.56300
F 	F 	0.41558 0.09825 0.15149 -0.60100
F 	F 	0.35492 0.16334 0.18117 -0.55200
Mn	Mn	0.45273 0.22723 0.85827 1.30900
Mn	Mn	0.94920 0.23600 0.86973 1.30700
Mn	Mn	0.54727 0.77277 0.35827 1.30900
Mn	Mn	0.05080 0.76400 0.36973 1.30700
Mn	Mn	0.72723 0.04727 0.10827 1.30900
Mn	Mn	0.73600 0.55080 0.11973 1.30700
Mn	Mn	0.27277 0.95273 0.60827 1.30900
Mn	Mn	0.26400 0.44920 0.61973 1.30700
H 	H 	0.63130 0.19050 0.99450 0.07200
H 	H 	0.54290 0.14300 0.97070 0.05000
H 	H 	0.50150 0.31290 0.92540 0.06100
H 	H 	0.59530 0.35930 0.94620 0.01500
H 	H 	0.49900 0.07650 0.94270 0.64800
H 	H 	0.43290 0.03600 0.93940 0.66800
H 	H 	0.46060 0.07540 0.90960 0.64300
H 	H 	0.34730 0.13810 0.90520 0.58900
H 	H 	0.31890 0.10290 0.93610 0.58300
H 	H 	0.32450 0.18040 0.93510 0.57100
H 	H 	0.44960 0.13530 0.99120 0.57300
H 	H 	0.38590 0.17870 0.98650 0.56000
H 	H 	0.38020 0.10120 0.98750 0.61600
H 	H 	0.74290 0.42530 0.95770 0.01500
H 	H 	0.80710 0.43700 0.91310 0.05400
H 	H 	0.79140 0.24390 0.89530 0.12700
H 	H 	0.72990 0.23300 0.94160 0.08800
H 	H 	0.90310 0.45260 0.89350 0.67200
H 	H 	0.95610 0.41060 0.87480 0.65700
H 	H 	0.93530 0.48050 0.86170 0.66100
H 	H 	0.85690 0.37000 0.80540 0.65200
H 	H 	0.90670 0.42950 0.80730 0.65200
H 	H 	0.92760 0.35960 0.82040 0.61600
H 	H 	0.78600 0.46610 0.86900 0.72400
H 	H 	0.81610 0.49410 0.83670 0.77800
H 	H 	0.76950 0.43200 0.83580 0.77800
H 	H 	0.81020 0.25380 0.98550 0.07200
H 	H 	0.86430 0.19040 0.02360 0.05200
H 	H 	0.70750 0.20370 0.08240 0.10700
H 	H 	0.65690 0.26860 0.04610 0.06000
H 	H 	0.95810 0.08970 0.11770 0.57900
H 	H 	0.90440 0.13830 0.13150 0.56000
H 	H 	0.88390 0.06700 0.12010 0.56200
H 	H 	0.90290 0.09790 0.03370 0.74000
H 	H 	0.95690 0.06440 0.05560 0.73700
H 	H 	0.88270 0.04190 0.05810 0.74100
H 	H 	0.93430 0.21180 0.05430 0.65400
H 	H 	0.92940 0.22730 0.09150 0.64600
H 	H 	0.98790 0.18400 0.07820 0.66400
H 	H 	0.76610 0.40920 0.01130 0.08400
H 	H 	0.74410 0.50320 0.04090 0.06300
H 	H 	0.55110 0.45170 0.04290 0.00100
H 	H 	0.57330 0.36340 0.01010 0.03900
H 	H 	0.55410 0.52950 0.11630 0.80800
H 	H 	0.48620 0.55360 0.10200 0.80000
H 	H 	0.52140 0.49100 0.08740 0.75700
H 	H 	0.48420 0.60660 0.04570 0.68000
H 	H 	0.55120 0.61580 0.02690 0.66400
H 	H 	0.52050 0.54480 0.03090 0.65700
H 	H 	0.60080 0.63950 0.10720 0.84500
H 	H 	0.60200 0.67080 0.07240 0.81600
H 	H 	0.53500 0.66530 0.09140 0.83100
H 	H 	0.42820 0.08550 0.77700 0.11800
H 	H 	0.66760 0.25750 0.85300 0.09800
H 	H 	0.94400 0.19640 0.97340 0.03900
H 	H 	0.16590 0.25430 0.86130 0.08600
H 	H 	0.36870 0.80950 0.49450 0.07200
H 	H 	0.45710 0.85700 0.47070 0.05000
H 	H 	0.49850 0.68710 0.42540 0.06100
H 	H 	0.40470 0.64070 0.44620 0.01500
H 	H 	0.50100 0.92350 0.44270 0.64800
H 	H 	0.56710 0.96400 0.43940 0.66800
H 	H 	0.53940 0.92460 0.40960 0.64300
H 	H 	0.65270 0.86190 0.40520 0.58800
H 	H 	0.68110 0.89710 0.43610 0.58300
H 	H 	0.67550 0.81960 0.43510 0.57100
H 	H 	0.55040 0.86470 0.49120 0.57300
H 	H 	0.61410 0.82130 0.48650 0.56000
H 	H 	0.61980 0.89880 0.48750 0.61600
H 	H 	0.25710 0.57470 0.45770 0.01500
H 	H 	0.19290 0.56300 0.41310 0.05400
H 	H 	0.20860 0.75610 0.39530 0.12700
H 	H 	0.27010 0.76700 0.44160 0.08800
H 	H 	0.09690 0.54740 0.39350 0.67200
H 	H 	0.04390 0.58940 0.37480 0.65700
H 	H 	0.06470 0.51950 0.36170 0.66100
H 	H 	0.14310 0.63000 0.30540 0.65200
H 	H 	0.09330 0.57050 0.30730 0.65200
H 	H 	0.07240 0.64040 0.32040 0.61600
H 	H 	0.21400 0.53390 0.36900 0.72400
H 	H 	0.18390 0.50590 0.33670 0.77800
H 	H 	0.23050 0.56800 0.33580 0.77800
H 	H 	0.18980 0.74620 0.48550 0.07100
H 	H 	0.13570 0.80960 0.52360 0.05200
H 	H 	0.29250 0.79630 0.58240 0.10700
H 	H 	0.34310 0.73140 0.54610 0.06000
H 	H 	0.04190 0.91030 0.61770 0.57900
H 	H 	0.09560 0.86170 0.63150 0.56000
H 	H 	0.11610 0.93300 0.62010 0.56200
H 	H 	0.09710 0.90210 0.53370 0.74100
H 	H 	0.04310 0.93560 0.55560 0.73700
H 	H 	0.11730 0.95810 0.55810 0.74200
H 	H 	0.06570 0.78820 0.55430 0.65400
H 	H 	0.07060 0.77270 0.59150 0.64600
H 	H 	0.01210 0.81600 0.57820 0.66400
H 	H 	0.23390 0.59080 0.51130 0.08400
H 	H 	0.25590 0.49680 0.54090 0.06300
H 	H 	0.44890 0.54830 0.54290 0.00000
H 	H 	0.42670 0.63660 0.51010 0.03900
H 	H 	0.44590 0.47050 0.61630 0.80800
H 	H 	0.51380 0.44640 0.60200 0.80000
H 	H 	0.47860 0.50900 0.58740 0.75700
H 	H 	0.51580 0.39340 0.54570 0.68000
H 	H 	0.44880 0.38420 0.52690 0.66400
H 	H 	0.47950 0.45520 0.53090 0.65700
H 	H 	0.39920 0.36050 0.60720 0.84500
H 	H 	0.39800 0.32920 0.57240 0.81600
H 	H 	0.46500 0.33470 0.59140 0.83100
H 	H 	0.57180 0.91450 0.27700 0.11800
H 	H 	0.33240 0.74250 0.35300 0.09800
H 	H 	0.05600 0.80360 0.47340 0.03900
H 	H 	0.83410 0.74570 0.36130 0.08600
H 	H 	0.69050 0.86870 0.24450 0.07200
H 	H 	0.64300 0.95710 0.22070 0.05100
H 	H 	0.81290 0.99850 0.17540 0.06100
H 	H 	0.85930 0.90470 0.19620 0.01500
H 	H 	0.57650 0.00100 0.19270 0.64700
H 	H 	0.53600 0.06710 0.18940 0.66700
H 	H 	0.57540 0.03940 0.15960 0.64200
H 	H 	0.63810 0.15270 0.15520 0.58800
H 	H 	0.60290 0.18110 0.18610 0.58300
H 	H 	0.68040 0.17550 0.18510 0.57100
H 	H 	0.63530 0.05040 0.24120 0.57300
H 	H 	0.67870 0.11410 0.23650 0.56000
H 	H 	0.60120 0.11980 0.23750 0.61600
H 	H 	0.92530 0.75710 0.20770 0.01500
H 	H 	0.93700 0.69290 0.16310 0.05400
H 	H 	0.74390 0.70860 0.14530 0.12700
H 	H 	0.73300 0.77010 0.19160 0.08800
H 	H 	0.95260 0.59690 0.14350 0.67000
H 	H 	0.91060 0.54390 0.12480 0.65500
H 	H 	0.98050 0.56470 0.11170 0.65900
H 	H 	0.87000 0.64310 0.05540 0.65000
H 	H 	0.92950 0.59330 0.05730 0.65000
H 	H 	0.85960 0.57240 0.07040 0.61500
H 	H 	0.96610 0.71400 0.11900 0.72300
H 	H 	0.99410 0.68390 0.08670 0.77600
H 	H 	0.93200 0.73050 0.08580 0.77600
H 	H 	0.75380 0.68980 0.23550 0.07100
H 	H 	0.69040 0.63570 0.27360 0.05200
H 	H 	0.70370 0.79250 0.33240 0.10700
H 	H 	0.76860 0.84310 0.29610 0.06000
H 	H 	0.58970 0.54190 0.36770 0.57700
H 	H 	0.63830 0.59560 0.38150 0.55900
H 	H 	0.56700 0.61610 0.37010 0.56000
H 	H 	0.59790 0.59710 0.28370 0.73900
H 	H 	0.56440 0.54310 0.30560 0.73600
H 	H 	0.54190 0.61730 0.30810 0.74000
H 	H 	0.71180 0.56570 0.30430 0.65300
H 	H 	0.72730 0.57060 0.34150 0.64500
H 	H 	0.68400 0.51210 0.32820 0.66300
H 	H 	0.90920 0.73390 0.26130 0.08200
H 	H 	0.00320 0.75590 0.29090 0.06700
H 	H 	0.95170 0.94890 0.29290 0.00100
H 	H 	0.86340 0.92670 0.26010 0.03900
H 	H 	0.02950 0.94590 0.36630 0.79200
H 	H 	0.05360 0.01380 0.35200 0.78100
H 	H 	0.99100 0.97860 0.33740 0.73900
H 	H 	0.10660 0.01580 0.29570 0.66600
H 	H 	0.11580 0.94880 0.27690 0.65300
H 	H 	0.04480 0.97950 0.28090 0.64700
H 	H 	0.13950 0.89920 0.35720 0.83600
H 	H 	0.17080 0.89800 0.32240 0.80800
H 	H 	0.16530 0.96500 0.34140 0.82300
H 	H 	0.58550 0.07180 0.02700 0.11800
H 	H 	0.75750 0.83240 0.10300 0.09700
H 	H 	0.69640 0.55600 0.22340 0.03900
H 	H 	0.75430 0.33410 0.11130 0.08600
H 	H 	0.30950 0.13130 0.74450 0.07200
H 	H 	0.35700 0.04290 0.72070 0.05000
H 	H 	0.18710 0.00150 0.67540 0.06100
H 	H 	0.14070 0.09530 0.69620 0.01500
H 	H 	0.42350 0.99900 0.69270 0.64700
H 	H 	0.46400 0.93290 0.68940 0.66700
H 	H 	0.42460 0.96060 0.65960 0.64200
H 	H 	0.36190 0.84730 0.65520 0.58800
H 	H 	0.39710 0.81890 0.68610 0.58300
H 	H 	0.31960 0.82450 0.68510 0.57100
H 	H 	0.36470 0.94960 0.74120 0.57300
H 	H 	0.32130 0.88590 0.73650 0.56000
H 	H 	0.39880 0.88020 0.73750 0.61600
H 	H 	0.07470 0.24290 0.70770 0.01500
H 	H 	0.06300 0.30710 0.66310 0.05400
H 	H 	0.25610 0.29140 0.64530 0.12700
H 	H 	0.26700 0.22990 0.69160 0.08800
H 	H 	0.04740 0.40310 0.64350 0.67100
H 	H 	0.08940 0.45610 0.62480 0.65500
H 	H 	0.01950 0.43530 0.61170 0.65900
H 	H 	0.13000 0.35690 0.55540 0.65000
H 	H 	0.07050 0.40670 0.55730 0.65100
H 	H 	0.14040 0.42760 0.57040 0.61500
H 	H 	0.03390 0.28600 0.61900 0.72300
H 	H 	0.00590 0.31610 0.58670 0.77600
H 	H 	0.06800 0.26950 0.58580 0.77700
H 	H 	0.24620 0.31020 0.73550 0.07100
H 	H 	0.30960 0.36430 0.77360 0.05200
H 	H 	0.29630 0.20750 0.83240 0.10700
H 	H 	0.23140 0.15690 0.79610 0.06000
H 	H 	0.41030 0.45810 0.86770 0.57700
H 	H 	0.36170 0.40440 0.88150 0.55900
H 	H 	0.43300 0.38390 0.87010 0.56000
H 	H 	0.40210 0.40290 0.78370 0.73900
H 	H 	0.43560 0.45690 0.80560 0.73600
H 	H 	0.45810 0.38270 0.80810 0.74000
H 	H 	0.28820 0.43430 0.80430 0.65300
H 	H 	0.27270 0.42940 0.84150 0.64500
H 	H 	0.31600 0.48790 0.82820 0.66300
H 	H 	0.09080 0.26610 0.76130 0.08200
H 	H 	0.99680 0.24410 0.79090 0.06700
H 	H 	0.04830 0.05110 0.79290 0.00100
H 	H 	0.13660 0.07330 0.76010 0.03900
H 	H 	0.97050 0.05410 0.86630 0.79100
H 	H 	0.94640 0.98620 0.85200 0.78000
H 	H 	0.00900 0.02140 0.83740 0.73800
H 	H 	0.89340 0.98420 0.79570 0.66600
H 	H 	0.88420 0.05120 0.77690 0.65300
H 	H 	0.95520 0.02050 0.78090 0.64600
H 	H 	0.86050 0.10080 0.85720 0.83600
H 	H 	0.82920 0.10200 0.82240 0.80700
H 	H 	0.83470 0.03500 0.84140 0.82300
H 	H 	0.41450 0.92820 0.52700 0.11800
H 	H 	0.24250 0.16760 0.60300 0.09700
H 	H 	0.30360 0.44400 0.72340 0.03900
H 	H 	0.24570 0.66590 0.61130 0.08600
C 	C 	0.68914 0.31381 0.98633 -0.02200
C 	C 	0.62536 0.28071 0.97346 0.00300
C 	C 	0.60595 0.21534 0.98008 -0.00600
C 	C 	0.55265 0.18723 0.96661 -0.10300
C 	C 	0.51187 0.22429 0.94645 0.11300
C 	C 	0.52844 0.28823 0.93912 -0.11200
C 	C 	0.58415 0.31612 0.95182 -0.00900
C 	C 	0.41716 0.13512 0.94307 1.21500
C 	C 	0.45590 0.07539 0.93277 -1.99400
C 	C 	0.34486 0.13958 0.92840 -1.73700
C 	C 	0.40726 0.13790 0.98070 -1.77000
C 	C 	0.73067 0.32802 0.95588 -0.00100
C 	C 	0.75339 0.38783 0.94562 0.02400
C 	C 	0.79080 0.39525 0.91841 -0.13800
C 	C 	0.80487 0.34233 0.89866 0.16700
C 	C 	0.78207 0.28099 0.90790 -0.11300
C 	C 	0.74544 0.27476 0.93586 0.00300
C 	C 	0.86403 0.40860 0.85211 1.32800
C 	C 	0.91998 0.44121 0.87248 -1.98000
C 	C 	0.89141 0.39017 0.81805 -1.92100
C 	C 	0.80310 0.45457 0.84803 -2.12900
C 	C 	0.72697 0.26943 0.01074 0.02300
C 	C 	0.78938 0.24466 0.00509 0.01400
C 	C 	0.82200 0.20621 0.02807 -0.07200
C 	C 	0.79275 0.19112 0.05737 0.14400
C 	C 	0.72906 0.21450 0.06316 -0.09900
C 	C 	0.69890 0.25234 0.04120 0.00300
C 	C 	0.89953 0.13104 0.08077 1.27400
C 	C 	0.91277 0.10386 0.11594 -1.75900
C 	C 	0.91164 0.07900 0.05459 -2.13000
C 	C 	0.94183 0.19459 0.07574 -1.93700
C 	C 	0.67194 0.37664 0.00656 0.01600
C 	C 	0.72250 0.41892 0.01691 -0.05100
C 	C 	0.70968 0.47477 0.03519 -0.08100
C 	C 	0.64408 0.48869 0.04525 0.08400
C 	C 	0.59438 0.44455 0.03588 -0.10300
C 	C 	0.60783 0.39089 0.01659 -0.05100
C 	C 	0.56510 0.57788 0.07287 1.68100
C 	C 	0.52831 0.53392 0.09687 -2.43500
C 	C 	0.52664 0.58712 0.04111 -2.20600
C 	C 	0.57676 0.64422 0.08723 -2.55100
C 	C 	0.47210 0.19090 0.75223 1.05700
C 	C 	0.45418 0.17905 0.78732 -0.01700
C 	C 	0.42921 0.11683 0.79355 -0.16000
C 	C 	0.40604 0.10055 0.82347 0.21300
C 	C 	0.64899 0.13559 0.87332 0.93400
C 	C 	0.60233 0.18965 0.86646 -0.06600
C 	C 	0.62267 0.25141 0.85712 0.03000
C 	C 	0.58327 0.30294 0.85353 -0.04200
C 	C 	0.61693 0.36886 0.84570 0.99200
C 	C 	0.89240 0.09181 0.94210 1.17600
C 	C 	0.91373 0.16027 0.93015 -0.13100
C 	C 	0.94008 0.20673 0.95153 0.12400
C 	C 	0.95992 0.26646 0.94067 -0.19600
C 	C 	0.97970 0.31020 0.96476 1.00000
C 	C 	0.14530 0.14539 0.87984 0.96000
C 	C 	0.09638 0.19292 0.87095 -0.09400
C 	C 	0.12018 0.24845 0.86097 -0.03500
C 	C 	0.08104 0.29980 0.84982 0.05300
C 	C 	0.12490 0.36449 0.84251 0.69200
C 	C 	0.31086 0.68619 0.48633 -0.02300
C 	C 	0.37464 0.71929 0.47346 0.00300
C 	C 	0.39405 0.78466 0.48008 -0.00600
C 	C 	0.44735 0.81277 0.46661 -0.10300
C 	C 	0.48813 0.77571 0.44645 0.11300
C 	C 	0.47156 0.71177 0.43912 -0.11200
C 	C 	0.41585 0.68388 0.45182 -0.00900
C 	C 	0.58284 0.86488 0.44307 1.21500
C 	C 	0.54410 0.92461 0.43277 -1.99400
C 	C 	0.65514 0.86042 0.42840 -1.73700
C 	C 	0.59274 0.86210 0.48070 -1.76900
C 	C 	0.26933 0.67198 0.45588 -0.00000
C 	C 	0.24661 0.61217 0.44562 0.02300
C 	C 	0.20920 0.60475 0.41841 -0.13800
C 	C 	0.19513 0.65767 0.39866 0.16700
C 	C 	0.21793 0.71901 0.40790 -0.11300
C 	C 	0.25456 0.72524 0.43586 0.00300
C 	C 	0.13597 0.59140 0.35211 1.32800
C 	C 	0.08002 0.55879 0.37248 -1.97900
C 	C 	0.10859 0.60983 0.31805 -1.92000
C 	C 	0.19690 0.54543 0.34803 -2.12800
C 	C 	0.27303 0.73057 0.51074 0.02300
C 	C 	0.21062 0.75534 0.50509 0.01500
C 	C 	0.17800 0.79379 0.52807 -0.07300
C 	C 	0.20725 0.80888 0.55737 0.14400
C 	C 	0.27094 0.78550 0.56316 -0.09900
C 	C 	0.30110 0.74766 0.54120 0.00300
C 	C 	0.10047 0.86896 0.58077 1.27500
C 	C 	0.08723 0.89614 0.61594 -1.76000
C 	C 	0.08836 0.92100 0.55459 -2.13100
C 	C 	0.05817 0.80541 0.57574 -1.93800
C 	C 	0.32806 0.62336 0.50656 0.01700
C 	C 	0.27750 0.58108 0.51691 -0.05200
C 	C 	0.29032 0.52523 0.53519 -0.08000
C 	C 	0.35592 0.51131 0.54525 0.08400
C 	C 	0.40562 0.55545 0.53588 -0.10300
C 	C 	0.39217 0.60911 0.51659 -0.05100
C 	C 	0.43490 0.42212 0.57287 1.68100
C 	C 	0.47169 0.46608 0.59687 -2.43400
C 	C 	0.47336 0.41288 0.54111 -2.20600
C 	C 	0.42324 0.35578 0.58723 -2.55000
C 	C 	0.52790 0.80910 0.25223 1.05700
C 	C 	0.54582 0.82095 0.28732 -0.01700
C 	C 	0.57079 0.88317 0.29355 -0.16000
C 	C 	0.59396 0.89945 0.32347 0.21300
C 	C 	0.35101 0.86441 0.37332 0.93400
C 	C 	0.39767 0.81035 0.36646 -0.06600
C 	C 	0.37733 0.74859 0.35712 0.03000
C 	C 	0.41673 0.69706 0.35353 -0.04200
C 	C 	0.38307 0.63114 0.34570 0.99200
C 	C 	0.10760 0.90819 0.44210 1.17700
C 	C 	0.08627 0.83973 0.43015 -0.13100
C 	C 	0.05992 0.79327 0.45153 0.12400
C 	C 	0.04008 0.73354 0.44067 -0.19600
C 	C 	0.02030 0.68980 0.46476 1.00000
C 	C 	0.85470 0.85461 0.37984 0.96000
C 	C 	0.90362 0.80708 0.37095 -0.09400
C 	C 	0.87982 0.75155 0.36097 -0.03500
C 	C 	0.91896 0.70020 0.34982 0.05300
C 	C 	0.87510 0.63551 0.34251 0.69200
C 	C 	0.81381 0.81086 0.23633 -0.02300
C 	C 	0.78071 0.87464 0.22346 0.00300
C 	C 	0.71534 0.89405 0.23008 -0.00600
C 	C 	0.68723 0.94735 0.21661 -0.10300
C 	C 	0.72429 0.98813 0.19645 0.11400
C 	C 	0.78823 0.97156 0.18912 -0.11200
C 	C 	0.81612 0.91585 0.20182 -0.00900
C 	C 	0.63512 0.08284 0.19307 1.21400
C 	C 	0.57539 0.04410 0.18277 -1.99200
C 	C 	0.63958 0.15514 0.17840 -1.73700
C 	C 	0.63790 0.09274 0.23070 -1.76900
C 	C 	0.82802 0.76933 0.20588 -0.00100
C 	C 	0.88783 0.74661 0.19562 0.02300
C 	C 	0.89525 0.70920 0.16841 -0.13800
C 	C 	0.84233 0.69513 0.14866 0.16700
C 	C 	0.78099 0.71793 0.15790 -0.11300
C 	C 	0.77476 0.75456 0.18586 0.00300
C 	C 	0.90860 0.63597 0.10211 1.32500
C 	C 	0.94121 0.58002 0.12248 -1.97500
C 	C 	0.89017 0.60859 0.06805 -1.91600
C 	C 	0.95457 0.69690 0.09803 -2.12500
C 	C 	0.76943 0.77303 0.26074 0.02200
C 	C 	0.74466 0.71062 0.25509 0.01500
C 	C 	0.70621 0.67800 0.27807 -0.07300
C 	C 	0.69112 0.70725 0.30737 0.14400
C 	C 	0.71450 0.77094 0.31316 -0.09900
C 	C 	0.75234 0.80110 0.29120 0.00300
C 	C 	0.63104 0.60047 0.33077 1.27200
C 	C 	0.60386 0.58723 0.36594 -1.75500
C 	C 	0.57900 0.58836 0.30459 -2.12700
C 	C 	0.69459 0.55817 0.32574 -1.93500
C 	C 	0.87664 0.82806 0.25656 0.01500
C 	C 	0.91892 0.77750 0.26691 -0.04800
C 	C 	0.97477 0.79032 0.28519 -0.08600
C 	C 	0.98869 0.85592 0.29525 0.08400
C 	C 	0.94455 0.90562 0.28588 -0.10300
C 	C 	0.89089 0.89217 0.26659 -0.05000
C 	C 	0.07788 0.93490 0.32287 1.65300
C 	C 	0.03392 0.97169 0.34687 -2.37700
C 	C 	0.08712 0.97336 0.29111 -2.16500
C 	C 	0.14422 0.92324 0.33723 -2.51900
C 	C 	0.69090 0.02790 0.00223 1.05700
C 	C 	0.67905 0.04582 0.03732 -0.01700
C 	C 	0.61683 0.07079 0.04355 -0.16000
C 	C 	0.60055 0.09396 0.07347 0.21200
C 	C 	0.63559 0.85101 0.12332 0.93400
C 	C 	0.68965 0.89767 0.11646 -0.06600
C 	C 	0.75141 0.87733 0.10712 0.03000
C 	C 	0.80294 0.91673 0.10353 -0.04200
C 	C 	0.86886 0.88307 0.09570 0.99200
C 	C 	0.59181 0.60760 0.19210 1.17700
C 	C 	0.66027 0.58627 0.18015 -0.13100
C 	C 	0.70673 0.55992 0.20153 0.12300
C 	C 	0.76646 0.54008 0.19067 -0.19600
C 	C 	0.81020 0.52030 0.21476 0.99900
C 	C 	0.64539 0.35470 0.12984 0.96000
C 	C 	0.69292 0.40362 0.12095 -0.09500
C 	C 	0.74845 0.37982 0.11097 -0.03500
C 	C 	0.79980 0.41896 0.09982 0.05300
C 	C 	0.86449 0.37510 0.09251 0.69200
C 	C 	0.18619 0.18914 0.73633 -0.02300
C 	C 	0.21929 0.12536 0.72346 0.00300
C 	C 	0.28466 0.10595 0.73008 -0.00600
C 	C 	0.31277 0.05265 0.71661 -0.10300
C 	C 	0.27571 0.01187 0.69645 0.11400
C 	C 	0.21177 0.02844 0.68912 -0.11200
C 	C 	0.18388 0.08415 0.70182 -0.00900
C 	C 	0.36488 0.91716 0.69307 1.21400
C 	C 	0.42461 0.95590 0.68277 -1.99200
C 	C 	0.36042 0.84486 0.67840 -1.73700
C 	C 	0.36210 0.90726 0.73070 -1.76900
C 	C 	0.17198 0.23067 0.70588 -0.00100
C 	C 	0.11217 0.25339 0.69562 0.02400
C 	C 	0.10475 0.29080 0.66841 -0.13800
C 	C 	0.15767 0.30487 0.64866 0.16700
C 	C 	0.21901 0.28207 0.65790 -0.11300
C 	C 	0.22524 0.24544 0.68586 0.00300
C 	C 	0.09140 0.36403 0.60211 1.32500
C 	C 	0.05879 0.41998 0.62248 -1.97600
C 	C 	0.10983 0.39141 0.56805 -1.91700
C 	C 	0.04543 0.30310 0.59803 -2.12500
C 	C 	0.23057 0.22697 0.76074 0.02200
C 	C 	0.25534 0.28938 0.75509 0.01500
C 	C 	0.29379 0.32200 0.77807 -0.07300
C 	C 	0.30888 0.29275 0.80737 0.14400
C 	C 	0.28550 0.22906 0.81316 -0.09900
C 	C 	0.24766 0.19890 0.79120 0.00300
C 	C 	0.36896 0.39953 0.83077 1.27200
C 	C 	0.39614 0.41277 0.86594 -1.75500
C 	C 	0.42100 0.41164 0.80459 -2.12700
C 	C 	0.30541 0.44183 0.82574 -1.93500
C 	C 	0.12336 0.17194 0.75656 0.01500
C 	C 	0.08108 0.22250 0.76691 -0.04800
C 	C 	0.02523 0.20968 0.78519 -0.08600
C 	C 	0.01131 0.14408 0.79525 0.08400
C 	C 	0.05545 0.09438 0.78588 -0.10300
C 	C 	0.10911 0.10783 0.76659 -0.05000
C 	C 	0.92212 0.06510 0.82287 1.65200
C 	C 	0.96608 0.02831 0.84687 -2.37500
C 	C 	0.91288 0.02664 0.79111 -2.16300
C 	C 	0.85578 0.07676 0.83723 -2.51800
C 	C 	0.30910 0.97210 0.50223 1.05900
C 	C 	0.32095 0.95418 0.53732 -0.01800
C 	C 	0.38317 0.92921 0.54355 -0.15900
C 	C 	0.39945 0.90604 0.57347 0.21200
C 	C 	0.36441 0.14899 0.62332 0.93400
C 	C 	0.31035 0.10233 0.61646 -0.06600
C 	C 	0.24859 0.12267 0.60712 0.02900
C 	C 	0.19706 0.08327 0.60353 -0.04200
C 	C 	0.13114 0.11693 0.59570 0.99200
C 	C 	0.40819 0.39240 0.69210 1.17700
C 	C 	0.33973 0.41373 0.68015 -0.13100
C 	C 	0.29327 0.44008 0.70153 0.12300
C 	C 	0.23354 0.45992 0.69067 -0.19600
C 	C 	0.18980 0.47970 0.71476 0.99900
C 	C 	0.35461 0.64530 0.62984 0.96000
C 	C 	0.30708 0.59638 0.62095 -0.09500
C 	C 	0.25155 0.62018 0.61097 -0.03500
C 	C 	0.20020 0.58104 0.59982 0.05300
C 	C 	0.13551 0.62490 0.59251 0.69200
N 	N 	0.45272 0.19672 0.93166 -0.21700
N 	N 	0.84386 0.34570 0.87052 -0.22100
N 	N 	0.82497 0.15216 0.08109 -0.20200
N 	N 	0.63234 0.54683 0.06472 -0.26700
N 	N 	0.54728 0.80328 0.43166 -0.21700
N 	N 	0.15614 0.65430 0.37052 -0.22100
N 	N 	0.17503 0.84784 0.58109 -0.20200
N 	N 	0.36766 0.45317 0.56472 -0.26700
N 	N 	0.69672 0.04728 0.18166 -0.21700
N 	N 	0.84570 0.65614 0.12052 -0.22000
N 	N 	0.65216 0.67503 0.33109 -0.20100
N 	N 	0.04683 0.86766 0.31472 -0.26200
N 	N 	0.30328 0.95272 0.68166 -0.21700
N 	N 	0.15430 0.34386 0.62052 -0.22100
N 	N 	0.34784 0.32497 0.83109 -0.20100
N 	N 	0.95317 0.13234 0.81472 -0.26200
O 	O 	0.42763 0.23070 0.90780 -0.30200
O 	O 	0.86375 0.29040 0.85823 -0.28700
O 	O 	0.78815 0.13109 0.10456 -0.29600
O 	O 	0.68424 0.57408 0.07710 -0.30100
O 	O 	0.46415 0.22673 0.80690 -0.26100
O 	O 	0.40454 0.13513 0.84898 -0.40000
O 	O 	0.54173 0.17236 0.86978 -0.26300
O 	O 	0.52318 0.30694 0.85631 -0.31200
O 	O 	0.90526 0.16543 0.90060 -0.29100
O 	O 	0.96042 0.29011 0.91338 -0.23000
O 	O 	0.03647 0.17661 0.87558 -0.26000
O 	O 	0.01877 0.30403 0.84984 -0.35300
O 	O 	0.57237 0.76930 0.40780 -0.30200
O 	O 	0.13625 0.70960 0.35823 -0.28700
O 	O 	0.21185 0.86891 0.60456 -0.29600
O 	O 	0.31576 0.42592 0.57710 -0.30100
O 	O 	0.53585 0.77327 0.30690 -0.26100
O 	O 	0.59546 0.86487 0.34898 -0.40000
O 	O 	0.45827 0.82764 0.36978 -0.26300
O 	O 	0.47682 0.69306 0.35631 -0.31200
O 	O 	0.09474 0.83457 0.40060 -0.29100
O 	O 	0.03958 0.70989 0.41338 -0.23100
O 	O 	0.96353 0.82339 0.37558 -0.26000
O 	O 	0.98123 0.69597 0.34984 -0.35300
O 	O 	0.73070 0.07237 0.15780 -0.30200
O 	O 	0.79040 0.63625 0.10823 -0.28700
O 	O 	0.63109 0.71185 0.35456 -0.29600
O 	O 	0.07408 0.81576 0.32710 -0.30000
O 	O 	0.72673 0.03585 0.05690 -0.26100
O 	O 	0.63513 0.09546 0.09898 -0.40000
O 	O 	0.67236 0.95827 0.11978 -0.26300
O 	O 	0.80694 0.97682 0.10631 -0.31200
O 	O 	0.66543 0.59474 0.15060 -0.29300
O 	O 	0.79011 0.53958 0.16338 -0.23100
O 	O 	0.67661 0.46353 0.12558 -0.26000
O 	O 	0.80403 0.48123 0.09984 -0.35200
O 	O 	0.26930 0.92763 0.65780 -0.30200
O 	O 	0.20960 0.36375 0.60823 -0.28700
O 	O 	0.36891 0.28815 0.85456 -0.29600
O 	O 	0.92592 0.18424 0.82710 -0.30000
O 	O 	0.27327 0.96415 0.55690 -0.26000
O 	O 	0.36487 0.90454 0.59898 -0.39900
O 	O 	0.32764 0.04173 0.61978 -0.26300
O 	O 	0.19306 0.02318 0.60631 -0.31200
O 	O 	0.33457 0.40526 0.65060 -0.29300
O 	O 	0.20989 0.46042 0.66338 -0.23100
O 	O 	0.32339 0.53647 0.62558 -0.26000
O 	O 	0.19597 0.51877 0.59984 -0.35200
F 	F 	0.42590 0.22753 0.73907 -0.48000
F 	F 	0.52299 0.21960 0.74794 -0.56100
F 	F 	0.47026 0.14192 0.73306 -0.58200
F 	F 	0.64136 0.11352 0.90412 -0.51300
F 	F 	0.71039 0.14956 0.86837 -0.54000
F 	F 	0.64231 0.08401 0.85543 -0.55500
F 	F 	0.64173 0.39868 0.87225 -0.54700
F 	F 	0.58091 0.41150 0.83530 -0.55300
F 	F 	0.67077 0.36142 0.82901 -0.53000
F 	F 	0.92470 0.04760 0.93232 -0.58500
F 	F 	0.83866 0.06918 0.92919 -0.49500
F 	F 	0.89130 0.08542 0.97139 -0.59700
F 	F 	0.93810 0.35750 0.97175 -0.48800
F 	F 	0.98789 0.29234 0.99564 -0.53100
F 	F 	0.02438 0.35147 0.96086 -0.55600
F 	F 	0.14594 0.09335 0.85862 -0.51600
F 	F 	0.13527 0.11303 0.90580 -0.55400
F 	F 	0.20673 0.15723 0.88052 -0.56300
F 	F 	0.09825 0.41558 0.84851 -0.60100
F 	F 	0.16334 0.35492 0.81883 -0.55200
F 	F 	0.57410 0.77247 0.23907 -0.48000
F 	F 	0.47701 0.78040 0.24794 -0.56100
F 	F 	0.52974 0.85808 0.23306 -0.58200
F 	F 	0.35864 0.88648 0.40412 -0.51300
F 	F 	0.28961 0.85044 0.36837 -0.54000
F 	F 	0.35769 0.91599 0.35543 -0.55500
F 	F 	0.35827 0.60132 0.37225 -0.54700
F 	F 	0.41909 0.58850 0.33530 -0.55300
F 	F 	0.32923 0.63858 0.32901 -0.53000
F 	F 	0.07530 0.95240 0.43232 -0.58500
F 	F 	0.16134 0.93082 0.42919 -0.49500
F 	F 	0.10870 0.91458 0.47139 -0.59800
F 	F 	0.06190 0.64250 0.47175 -0.48800
F 	F 	0.01211 0.70766 0.49564 -0.53200
F 	F 	0.97562 0.64853 0.46086 -0.55600
F 	F 	0.85406 0.90665 0.35862 -0.51600
F 	F 	0.86473 0.88697 0.40580 -0.55400
F 	F 	0.79327 0.84277 0.38052 -0.56300
F 	F 	0.90175 0.58442 0.34851 -0.60100
F 	F 	0.83666 0.64508 0.31883 -0.55200
F 	F 	0.72753 0.07410 0.98907 -0.48000
F 	F 	0.71960 0.97701 0.99794 -0.56200
F 	F 	0.64192 0.02974 0.98306 -0.58100
F 	F 	0.61352 0.85864 0.15412 -0.51300
F 	F 	0.64956 0.78961 0.11837 -0.54000
F 	F 	0.58401 0.85769 0.10543 -0.55600
F 	F 	0.89868 0.85827 0.12225 -0.54700
F 	F 	0.91150 0.91909 0.08530 -0.55300
F 	F 	0.86142 0.82923 0.07901 -0.53000
F 	F 	0.54760 0.57530 0.18232 -0.58700
F 	F 	0.56918 0.66134 0.17919 -0.49600
F 	F 	0.58542 0.60870 0.22139 -0.59800
F 	F 	0.85750 0.56190 0.22175 -0.48800
F 	F 	0.79234 0.51211 0.24564 -0.53200
F 	F 	0.85147 0.47562 0.21086 -0.55500
F 	F 	0.59335 0.35406 0.10862 -0.51700
F 	F 	0.61303 0.36473 0.15580 -0.55400
F 	F 	0.65723 0.29327 0.13052 -0.56300
F 	F 	0.91558 0.40175 0.09851 -0.60100
F 	F 	0.85492 0.33666 0.06883 -0.55200
F 	F 	0.27247 0.92590 0.48907 -0.48000
F 	F 	0.28040 0.02299 0.49794 -0.56300
F 	F 	0.35808 0.97026 0.48306 -0.58200
F 	F 	0.38648 0.14136 0.65412 -0.51300
F 	F 	0.35044 0.21039 0.61837 -0.54000
F 	F 	0.41599 0.14231 0.60543 -0.55600
F 	F 	0.10132 0.14173 0.62225 -0.54700
F 	F 	0.08850 0.08091 0.58530 -0.55300
F 	F 	0.13858 0.17077 0.57901 -0.53000
F 	F 	0.45240 0.42470 0.68232 -0.58700
F 	F 	0.43082 0.33866 0.67919 -0.49600
F 	F 	0.41458 0.39130 0.72139 -0.59800
F 	F 	0.14250 0.43810 0.72175 -0.48800
F 	F 	0.20766 0.48789 0.74564 -0.53200
F 	F 	0.14853 0.52438 0.71086 -0.55500
F 	F 	0.40665 0.64594 0.60862 -0.51700
F 	F 	0.38697 0.63527 0.65580 -0.55400
F 	F 	0.34277 0.70673 0.63052 -0.56300
F 	F 	0.08442 0.59825 0.59851 -0.60100
F 	F 	0.14508 0.66334 0.56883 -0.55200
