data_crystal

_cell_length_a 13.25770
_cell_length_b 13.25770
_cell_length_c 45.67700
_cell_angle_alpha 90.00000
_cell_angle_beta  90.00000
_cell_angle_gamma 120.00000

_symmetry_space_group_name_	'P 1'
_symmetry_space_group_name_H-M	'P 1'

loop_
_symmetry_equiv_pos_as_xyz
  x,y,z

loop_
_atom_site_label
_atom_site_type_symbol
_atom_site_fract_x
_atom_site_fract_y
_atom_site_fract_z
_atom_site_charge
P 	P 	0.75902 0.99424 0.03434 0.82700
O 	O 	0.74290 0.87704 0.04315 -0.55300
O 	O 	0.88510 0.08490 0.03913 -0.83400
O 	O 	0.72320 0.99267 0.00280 -0.55900
O 	O 	0.68020 0.02110 0.05254 -0.60200
Mg	Mg	0.76861 0.76299 0.03413 1.49300
O 	O 	0.67890 0.64320 0.05628 -0.56900
O 	O 	0.78808 0.22822 0.08758 -0.58100
Al	Al	0.99438 0.23139 0.03413 2.39600
P 	P 	0.42569 0.32757 0.36767 0.74600
O 	O 	0.40957 0.21037 0.37648 -0.57200
O 	O 	0.55177 0.41823 0.37246 -0.79400
O 	O 	0.38987 0.32600 0.33613 -0.57800
O 	O 	0.34687 0.35443 0.38587 -0.55600
Mg	Mg	0.43528 0.09632 0.36746 1.49100
O 	O 	0.34557 0.97653 0.38961 -0.54200
O 	O 	0.45475 0.56155 0.42091 -0.57900
Al	Al	0.66105 0.56472 0.36746 2.39500
P 	P 	0.09235 0.66091 0.70100 0.74600
O 	O 	0.07623 0.54371 0.70982 -0.56800
O 	O 	0.21843 0.75157 0.70580 -0.79300
O 	O 	0.05653 0.65934 0.66947 -0.58500
O 	O 	0.01353 0.68777 0.71921 -0.56800
Mg	Mg	0.10194 0.42966 0.70079 1.49300
O 	O 	0.01223 0.30987 0.72295 -0.58500
O 	O 	0.12141 0.89489 0.75425 -0.54600
Al	Al	0.32771 0.89806 0.70079 2.39500
P 	P 	0.00576 0.76478 0.03434 0.69600
O 	O 	0.12296 0.86586 0.04315 -0.53600
O 	O 	0.91510 0.80020 0.03913 -0.56600
O 	O 	0.00733 0.73053 0.00280 -0.76800
O 	O 	0.97890 0.65910 0.05254 -0.50900
Mg	Mg	0.23701 0.00562 0.03413 1.49000
O 	O 	0.35680 0.03570 0.05628 -0.58000
O 	O 	0.77178 0.55986 0.08758 -0.56500
P 	P 	0.67243 0.09811 0.36767 0.70200
O 	O 	0.78963 0.19919 0.37648 -0.55900
O 	O 	0.58177 0.13353 0.37246 -0.61400
O 	O 	0.67400 0.06386 0.33613 -0.77400
O 	O 	0.64557 0.99243 0.38587 -0.49200
Mg	Mg	0.90368 0.33895 0.36746 1.49500
O 	O 	0.02347 0.36903 0.38961 -0.57800
O 	O 	0.43845 0.89319 0.42091 -0.55900
P 	P 	0.33909 0.43145 0.70100 0.74400
O 	O 	0.45629 0.53253 0.70982 -0.56200
O 	O 	0.24843 0.46687 0.70580 -0.60500
O 	O 	0.34066 0.39720 0.66947 -0.77000
O 	O 	0.31223 0.32577 0.71921 -0.54800
Mg	Mg	0.57034 0.67229 0.70079 1.49400
O 	O 	0.69013 0.70237 0.72295 -0.55100
O 	O 	0.10511 0.22653 0.75425 -0.57900
P 	P 	0.23522 0.24098 0.03434 0.74600
O 	O 	0.13414 0.25710 0.04315 -0.77800
O 	O 	0.19980 0.11490 0.03913 -0.62200
O 	O 	0.26947 0.27680 0.00280 -0.57800
O 	O 	0.34090 0.31980 0.05254 -0.54400
O 	O 	0.96430 0.32110 0.05628 -0.75900
O 	O 	0.44014 0.21192 0.08758 -0.56700
P 	P 	0.90189 0.57431 0.36767 0.76700
O 	O 	0.80081 0.59043 0.37648 -0.75400
O 	O 	0.86647 0.44823 0.37246 -0.59600
O 	O 	0.93614 0.61013 0.33613 -0.56300
O 	O 	0.00757 0.65313 0.38587 -0.56100
O 	O 	0.63097 0.65443 0.38961 -0.76300
O 	O 	0.10681 0.54525 0.42091 -0.56700
P 	P 	0.56855 0.90765 0.70100 0.74300
O 	O 	0.46747 0.92377 0.70982 -0.74300
O 	O 	0.53313 0.78157 0.70580 -0.59700
O 	O 	0.60280 0.94347 0.66947 -0.55100
O 	O 	0.67423 0.98647 0.71921 -0.50700
O 	O 	0.29763 0.98777 0.72295 -0.71700
O 	O 	0.77347 0.87859 0.75425 -0.53200
P 	P 	0.99424 0.75902 0.46566 0.79100
O 	O 	0.87704 0.74290 0.45685 -0.55200
O 	O 	0.08490 0.88510 0.46087 -0.80500
O 	O 	0.99267 0.72320 0.49720 -0.56200
O 	O 	0.02110 0.68020 0.44746 -0.57900
Mg	Mg	0.76299 0.76861 0.46587 1.49400
O 	O 	0.64320 0.67890 0.44372 -0.56900
O 	O 	0.22822 0.78808 0.41242 -0.57700
Al	Al	0.23139 0.99438 0.46587 2.39700
P 	P 	0.66091 0.09235 0.79900 0.74700
O 	O 	0.54371 0.07623 0.79018 -0.57300
O 	O 	0.75157 0.21843 0.79420 -0.79500
O 	O 	0.65934 0.05653 0.83053 -0.59200
O 	O 	0.68777 0.01353 0.78079 -0.57800
Mg	Mg	0.42966 0.10194 0.79921 1.49300
O 	O 	0.30987 0.01223 0.77705 -0.58700
O 	O 	0.89489 0.12141 0.74575 -0.56800
Al	Al	0.89806 0.32771 0.79921 2.39400
P 	P 	0.32757 0.42569 0.13233 0.74500
O 	O 	0.21037 0.40957 0.12352 -0.56700
O 	O 	0.41823 0.55177 0.12754 -0.79300
O 	O 	0.32600 0.38987 0.16387 -0.57900
O 	O 	0.35443 0.34687 0.11413 -0.55700
Mg	Mg	0.09632 0.43528 0.13254 1.49200
O 	O 	0.97653 0.34557 0.11039 -0.55900
O 	O 	0.56155 0.45475 0.07909 -0.58000
Al	Al	0.56472 0.66105 0.13254 2.39500
P 	P 	0.76478 0.00576 0.46566 0.66000
O 	O 	0.86586 0.12296 0.45685 -0.55000
O 	O 	0.80020 0.91510 0.46087 -0.55000
O 	O 	0.73053 0.00733 0.49720 -0.77600
O 	O 	0.65910 0.97890 0.44746 -0.48800
Mg	Mg	0.00562 0.23701 0.46587 1.49200
O 	O 	0.03570 0.35680 0.44372 -0.57200
O 	O 	0.55986 0.77178 0.41242 -0.56300
P 	P 	0.43145 0.33909 0.79900 0.74400
O 	O 	0.53253 0.45629 0.79018 -0.56100
O 	O 	0.46687 0.24843 0.79420 -0.60600
O 	O 	0.39720 0.34066 0.83053 -0.76900
O 	O 	0.32577 0.31223 0.78079 -0.54700
Mg	Mg	0.67229 0.57034 0.79921 1.49400
O 	O 	0.70237 0.69013 0.77705 -0.55100
O 	O 	0.22653 0.10511 0.74575 -0.57800
P 	P 	0.09811 0.67243 0.13233 0.72100
O 	O 	0.19919 0.78963 0.12352 -0.55100
O 	O 	0.13353 0.58177 0.12754 -0.60800
O 	O 	0.06386 0.67400 0.16387 -0.76700
O 	O 	0.99243 0.64557 0.11413 -0.51300
Mg	Mg	0.33895 0.90368 0.13254 1.49700
O 	O 	0.36903 0.02347 0.11039 -0.59200
O 	O 	0.89319 0.43845 0.07909 -0.56300
P 	P 	0.24098 0.23522 0.46566 0.74700
O 	O 	0.25710 0.13414 0.45685 -0.78800
O 	O 	0.11490 0.19980 0.46087 -0.62000
O 	O 	0.27680 0.26947 0.49720 -0.57900
O 	O 	0.31980 0.34090 0.44746 -0.54500
O 	O 	0.32110 0.96430 0.44372 -0.75000
O 	O 	0.21192 0.44014 0.41242 -0.56500
P 	P 	0.90765 0.56855 0.79900 0.74400
O 	O 	0.92377 0.46747 0.79018 -0.74800
O 	O 	0.78157 0.53313 0.79420 -0.59800
O 	O 	0.94347 0.60280 0.83053 -0.55600
O 	O 	0.98647 0.67423 0.78079 -0.51500
O 	O 	0.98777 0.29763 0.77705 -0.73400
O 	O 	0.87859 0.77347 0.74575 -0.53700
P 	P 	0.57431 0.90189 0.13233 0.78700
O 	O 	0.59043 0.80081 0.12352 -0.75300
O 	O 	0.44823 0.86647 0.12754 -0.59100
O 	O 	0.61013 0.93614 0.16387 -0.56100
O 	O 	0.65313 0.00757 0.11413 -0.58600
O 	O 	0.65443 0.63097 0.11039 -0.76300
O 	O 	0.54525 0.10681 0.07909 -0.57200
P 	P 	0.24098 0.00576 0.96566 0.66300
O 	O 	0.25710 0.12296 0.95685 -0.56400
O 	O 	0.11490 0.91510 0.96087 -0.75600
O 	O 	0.27680 0.00733 0.99720 -0.58800
O 	O 	0.31980 0.97890 0.94746 -0.50000
Mg	Mg	0.23139 0.23701 0.96587 1.49300
O 	O 	0.32110 0.35680 0.94372 -0.57600
O 	O 	0.21192 0.77178 0.91242 -0.57700
Al	Al	0.00562 0.76861 0.96587 2.39300
P 	P 	0.90765 0.33909 0.29900 0.74400
O 	O 	0.92377 0.45629 0.29018 -0.55000
O 	O 	0.78157 0.24843 0.29420 -0.79500
O 	O 	0.94347 0.34066 0.33053 -0.56500
O 	O 	0.98647 0.31223 0.28079 -0.53700
Mg	Mg	0.89806 0.57034 0.29921 1.49400
O 	O 	0.98777 0.69013 0.27705 -0.56100
O 	O 	0.87859 0.10511 0.24575 -0.57100
Al	Al	0.67229 0.10194 0.29921 2.39400
P 	P 	0.57431 0.67243 0.63233 0.74400
O 	O 	0.59043 0.78963 0.62352 -0.54300
O 	O 	0.44823 0.58177 0.62754 -0.79300
O 	O 	0.61013 0.67400 0.66387 -0.56700
O 	O 	0.65313 0.64557 0.61413 -0.54300
Mg	Mg	0.56472 0.90368 0.63254 1.49700
O 	O 	0.65443 0.02347 0.61039 -0.60100
O 	O 	0.54525 0.43845 0.57909 -0.57900
Al	Al	0.33895 0.43528 0.63254 2.39400
P 	P 	0.99424 0.23522 0.96566 0.79600
O 	O 	0.87704 0.13414 0.95685 -0.58800
O 	O 	0.08490 0.19980 0.96087 -0.64300
O 	O 	0.99267 0.26947 0.99720 -0.76000
O 	O 	0.02110 0.34090 0.94746 -0.57500
Mg	Mg	0.76299 0.99438 0.96587 1.49700
O 	O 	0.64320 0.96430 0.94372 -0.53700
O 	O 	0.22822 0.44014 0.91242 -0.57100
P 	P 	0.66091 0.56855 0.29900 0.74400
O 	O 	0.54371 0.46747 0.29018 -0.56200
O 	O 	0.75157 0.53313 0.29420 -0.60200
O 	O 	0.65934 0.60280 0.33053 -0.75900
O 	O 	0.68777 0.67423 0.28079 -0.53500
Mg	Mg	0.42966 0.32771 0.29921 1.49400
O 	O 	0.30987 0.29763 0.27705 -0.56400
O 	O 	0.89489 0.77347 0.24575 -0.55800
P 	P 	0.32757 0.90189 0.63233 0.78600
O 	O 	0.21037 0.80081 0.62352 -0.56700
O 	O 	0.41823 0.86647 0.62754 -0.59400
O 	O 	0.32600 0.93614 0.66387 -0.75600
O 	O 	0.35443 0.00757 0.61413 -0.59000
Mg	Mg	0.09632 0.66105 0.63254 1.49200
O 	O 	0.97653 0.63097 0.61039 -0.53300
O 	O 	0.56155 0.10681 0.57909 -0.57800
P 	P 	0.76478 0.75902 0.96566 0.74400
O 	O 	0.86586 0.74290 0.95685 -0.73800
O 	O 	0.80020 0.88510 0.96087 -0.57900
O 	O 	0.73053 0.72320 0.99720 -0.56800
O 	O 	0.65910 0.68020 0.94746 -0.53900
O 	O 	0.03570 0.67890 0.94372 -0.78000
O 	O 	0.55986 0.78808 0.91242 -0.55700
P 	P 	0.43145 0.09235 0.29900 0.74700
O 	O 	0.53253 0.07623 0.29018 -0.77300
O 	O 	0.46687 0.21843 0.29420 -0.60400
O 	O 	0.39720 0.05653 0.33053 -0.59500
O 	O 	0.32577 0.01353 0.28079 -0.57200
O 	O 	0.70237 0.01223 0.27705 -0.77900
O 	O 	0.22653 0.12141 0.24575 -0.58800
P 	P 	0.09811 0.42569 0.63233 0.71800
O 	O 	0.19919 0.40957 0.62352 -0.76300
O 	O 	0.13353 0.55177 0.62754 -0.60700
O 	O 	0.06386 0.38987 0.66387 -0.58600
O 	O 	0.99243 0.34687 0.61413 -0.51500
O 	O 	0.36903 0.34557 0.61039 -0.77500
O 	O 	0.89319 0.45475 0.57909 -0.55700
P 	P 	0.00576 0.24098 0.53434 0.69500
O 	O 	0.12296 0.25710 0.54315 -0.56400
O 	O 	0.91510 0.11490 0.53913 -0.78000
O 	O 	0.00733 0.27680 0.50280 -0.58300
O 	O 	0.97890 0.31980 0.55254 -0.52000
Mg	Mg	0.23701 0.23139 0.53413 1.49300
O 	O 	0.35680 0.32110 0.55628 -0.57600
O 	O 	0.77178 0.21192 0.58758 -0.58100
Al	Al	0.76861 0.00562 0.53413 2.39200
P 	P 	0.67243 0.57431 0.86767 0.74500
O 	O 	0.78963 0.59043 0.87648 -0.54700
O 	O 	0.58177 0.44823 0.87246 -0.79400
O 	O 	0.67400 0.61013 0.83613 -0.56700
O 	O 	0.64557 0.65313 0.88587 -0.54300
Mg	Mg	0.90368 0.56472 0.86746 1.49600
O 	O 	0.02347 0.65443 0.88961 -0.58900
O 	O 	0.43845 0.54525 0.92091 -0.57900
Al	Al	0.43528 0.33895 0.86746 2.39400
P 	P 	0.33909 0.90765 0.20100 0.74300
O 	O 	0.45629 0.92377 0.20982 -0.54300
O 	O 	0.24843 0.78157 0.20580 -0.79100
O 	O 	0.34066 0.94347 0.16947 -0.55500
O 	O 	0.31223 0.98647 0.21921 -0.52000
Mg	Mg	0.57034 0.89806 0.20079 1.49400
O 	O 	0.69013 0.98777 0.22295 -0.51500
O 	O 	0.10511 0.87859 0.25425 -0.57800
Al	Al	0.10194 0.67229 0.20079 2.39400
P 	P 	0.23522 0.99424 0.53434 0.82700
O 	O 	0.13414 0.87704 0.54315 -0.57600
O 	O 	0.19980 0.08490 0.53913 -0.65700
O 	O 	0.26947 0.99267 0.50280 -0.75200
O 	O 	0.34090 0.02110 0.55254 -0.59400
Mg	Mg	0.99438 0.76299 0.53413 1.49600
O 	O 	0.96430 0.64320 0.55628 -0.54300
O 	O 	0.44014 0.22822 0.58758 -0.57300
P 	P 	0.90189 0.32757 0.86767 0.77200
O 	O 	0.80081 0.21037 0.87648 -0.57300
O 	O 	0.86647 0.41823 0.87246 -0.59800
O 	O 	0.93614 0.32600 0.83613 -0.76000
O 	O 	0.00757 0.35443 0.88587 -0.57500
Mg	Mg	0.66105 0.09632 0.86746 1.49100
O 	O 	0.63097 0.97653 0.88961 -0.52400
O 	O 	0.10681 0.56155 0.92091 -0.57400
P 	P 	0.56855 0.66091 0.20100 0.74400
O 	O 	0.46747 0.54371 0.20982 -0.56200
O 	O 	0.53313 0.75157 0.20580 -0.60000
O 	O 	0.60280 0.65934 0.16947 -0.76000
O 	O 	0.67423 0.68777 0.21921 -0.53600
Mg	Mg	0.32771 0.42966 0.20079 1.49400
O 	O 	0.29763 0.30987 0.22295 -0.56500
O 	O 	0.77347 0.89489 0.25425 -0.51500
P 	P 	0.75902 0.76478 0.53434 0.74400
O 	O 	0.74290 0.86586 0.54315 -0.72800
O 	O 	0.88510 0.80020 0.53913 -0.58000
O 	O 	0.72320 0.73053 0.50280 -0.56700
O 	O 	0.68020 0.65910 0.55254 -0.53900
O 	O 	0.67890 0.03570 0.55628 -0.78800
O 	O 	0.78808 0.55986 0.58758 -0.55900
P 	P 	0.42569 0.09811 0.86767 0.70400
O 	O 	0.40957 0.19919 0.87648 -0.76400
O 	O 	0.55177 0.13353 0.87246 -0.61100
O 	O 	0.38987 0.06386 0.83613 -0.58800
O 	O 	0.34687 0.99243 0.88587 -0.49700
O 	O 	0.34557 0.36903 0.88961 -0.77500
O 	O 	0.45475 0.89319 0.92091 -0.55300
P 	P 	0.09235 0.43145 0.20100 0.74600
O 	O 	0.07623 0.53253 0.20982 -0.76600
O 	O 	0.21843 0.46687 0.20580 -0.60200
O 	O 	0.05653 0.39720 0.16947 -0.58800
O 	O 	0.01353 0.32577 0.21921 -0.56100
O 	O 	0.01223 0.70237 0.22295 -0.79300
O 	O 	0.12141 0.22653 0.25425 -0.58100
Mg	Mg	0.66667 0.09144 0.08333 1.49800
Mg	Mg	0.90856 0.57522 0.08333 1.49800
Mg	Mg	0.42478 0.33333 0.08333 1.49700
Mg	Mg	0.09144 0.66667 0.41667 1.49800
Mg	Mg	0.75811 0.00000 0.75000 1.49200
Mg	Mg	0.57522 0.90856 0.41667 1.49800
Mg	Mg	0.24189 0.24189 0.75000 1.49700
Mg	Mg	0.33333 0.42478 0.41667 1.49700
Mg	Mg	0.00000 0.75811 0.75000 1.49400
Mg	Mg	0.33333 0.90856 0.91667 1.49800
Mg	Mg	0.00000 0.24189 0.25000 1.49400
Mg	Mg	0.09144 0.42478 0.91667 1.49800
Mg	Mg	0.75811 0.75811 0.25000 1.49800
Mg	Mg	0.57522 0.66667 0.91667 1.49800
Mg	Mg	0.24189 0.00000 0.25000 1.49200
Mg	Mg	0.90856 0.33333 0.58333 1.49700
Mg	Mg	0.42478 0.09144 0.58333 1.49800
Mg	Mg	0.66667 0.57522 0.58333 1.49800
P 	P 	0.90601 0.33333 0.08333 0.78800
P 	P 	0.66667 0.57267 0.08333 0.79000
P 	P 	0.33333 0.90601 0.41667 0.78800
P 	P 	0.42733 0.09399 0.08333 0.75400
P 	P 	0.76066 0.76066 0.75000 0.75100
P 	P 	-0.00000 0.23934 0.75000 0.73200
P 	P 	0.57267 0.66667 0.41667 0.79000
P 	P 	0.23934 0.00000 0.75000 0.70500
P 	P 	0.09399 0.42733 0.41667 0.75300
P 	P 	0.09399 0.66667 0.91667 0.79000
P 	P 	0.76066 0.00000 0.25000 0.70300
P 	P 	0.42733 0.33333 0.58333 0.78900
P 	P 	0.33333 0.42733 0.91667 0.78900
P 	P 	1.00000 0.76066 0.25000 0.82900
P 	P 	0.57267 0.90601 0.91667 0.75200
P 	P 	0.23934 0.23934 0.25000 0.75400
P 	P 	0.66667 0.09399 0.58333 0.79000
P 	P 	0.90601 0.57267 0.58333 0.75300
