data_crystal

_cell_length_a 13.23850
_cell_length_b 13.23850
_cell_length_c 46.38080
_cell_angle_alpha 90.00000
_cell_angle_beta  90.00000
_cell_angle_gamma 120.00000

_symmetry_space_group_name_	'P 1'
_symmetry_space_group_name_H-M	'P 1'

loop_
_symmetry_equiv_pos_as_xyz
  x,y,z

loop_
_atom_site_label
_atom_site_type_symbol
_atom_site_fract_x
_atom_site_fract_y
_atom_site_fract_z
_atom_site_charge
P 	P 	0.75777 0.99441 0.03363 0.85200
Mg	Mg	0.99443 0.23291 0.03348 1.49700
O 	O 	0.96770 0.32180 0.05647 -0.55100
O 	O 	0.89580 0.43930 0.07955 -0.57100
O 	O 	0.74350 0.87715 0.04178 -0.77100
O 	O 	0.88459 0.08592 0.03766 -0.65000
O 	O 	0.71930 0.99252 0.00269 -0.76400
O 	O 	0.67970 0.01880 0.05240 -0.59500
Al	Al	0.76709 0.76152 0.03348 2.39500
P 	P 	0.42444 0.32774 0.36696 0.77700
Mg	Mg	0.66110 0.56624 0.36681 1.49400
O 	O 	0.63437 0.65513 0.38980 -0.56100
O 	O 	0.56247 0.77263 0.41288 -0.57400
O 	O 	0.41017 0.21048 0.37511 -0.79300
O 	O 	0.55126 0.41925 0.37099 -0.62100
O 	O 	0.38597 0.32585 0.33602 -0.78700
O 	O 	0.34637 0.35213 0.38573 -0.55600
Al	Al	0.43376 0.09485 0.36681 2.39200
P 	P 	0.09110 0.66108 0.70029 0.77800
Mg	Mg	0.32776 0.89958 0.70014 1.49400
O 	O 	0.30103 0.98847 0.72314 -0.52000
O 	O 	0.22913 0.10597 0.74622 -0.59100
O 	O 	0.07683 0.54382 0.70845 -0.79200
O 	O 	0.21792 0.75259 0.70433 -0.62100
O 	O 	0.05263 0.65919 0.66936 -0.79600
O 	O 	0.01303 0.68547 0.71907 -0.57200
Al	Al	0.10042 0.42819 0.70014 2.39400
P 	P 	0.00559 0.76336 0.03363 0.70000
O 	O 	0.67820 0.64590 0.05647 -0.76300
O 	O 	0.56070 0.45650 0.07955 -0.56900
O 	O 	0.12285 0.86635 0.04178 -0.75000
O 	O 	0.91408 0.79867 0.03766 -0.75700
O 	O 	0.00748 0.72678 0.00269 -0.59700
O 	O 	0.98120 0.66090 0.05240 -0.50700
Al	Al	0.23848 0.00557 0.03348 2.39200
P 	P 	0.67226 0.09669 0.36696 0.73800
O 	O 	0.34487 0.97923 0.38980 -0.74000
O 	O 	0.22737 0.78983 0.41288 -0.56800
O 	O 	0.78952 0.19968 0.37511 -0.76400
O 	O 	0.58075 0.13200 0.37099 -0.82000
O 	O 	0.67415 0.06011 0.33602 -0.59700
O 	O 	0.64787 0.99423 0.38573 -0.50900
Al	Al	0.90515 0.33890 0.36681 2.39600
P 	P 	0.33892 0.43003 0.70029 0.77900
O 	O 	0.01153 0.31257 0.72314 -0.78300
O 	O 	0.89403 0.12317 0.74622 -0.54300
O 	O 	0.45618 0.53302 0.70845 -0.77300
O 	O 	0.24741 0.46534 0.70433 -0.81300
O 	O 	0.34081 0.39345 0.66936 -0.59400
O 	O 	0.31453 0.32757 0.71907 -0.56500
Al	Al	0.57181 0.67224 0.70014 2.39500
P 	P 	0.23664 0.24223 0.03363 0.77600
O 	O 	0.35410 0.03230 0.05647 -0.80200
O 	O 	0.54350 0.10420 0.07955 -0.59400
O 	O 	0.13365 0.25650 0.04178 -0.60600
O 	O 	0.20133 0.11541 0.03766 -0.83900
O 	O 	0.27322 0.28070 0.00269 -0.78500
O 	O 	0.33910 0.32030 0.05240 -0.56000
P 	P 	0.90331 0.57556 0.36696 0.81400
O 	O 	0.02077 0.36563 0.38980 -0.81300
O 	O 	0.21017 0.43753 0.41288 -0.59000
O 	O 	0.80032 0.58983 0.37511 -0.56900
O 	O 	0.86800 0.44874 0.37099 -0.80500
O 	O 	0.93989 0.61403 0.33602 -0.76500
O 	O 	0.00577 0.65363 0.38573 -0.59600
P 	P 	0.56997 0.90890 0.70029 0.77200
O 	O 	0.68743 0.69897 0.72314 -0.77200
O 	O 	0.87683 0.77087 0.74622 -0.55600
O 	O 	0.46698 0.92317 0.70845 -0.56200
O 	O 	0.53466 0.78208 0.70433 -0.81100
O 	O 	0.60655 0.94737 0.66936 -0.75700
O 	O 	0.67243 0.98697 0.71907 -0.52300
P 	P 	0.99441 0.75777 0.46637 0.85200
Mg	Mg	0.23291 0.99443 0.46652 1.49700
O 	O 	0.32180 0.96770 0.44353 -0.55100
O 	O 	0.43930 0.89580 0.42045 -0.57100
O 	O 	0.87715 0.74350 0.45822 -0.77100
O 	O 	0.08592 0.88459 0.46234 -0.65000
O 	O 	0.99252 0.71930 0.49731 -0.76400
O 	O 	0.01880 0.67970 0.44760 -0.59500
Al	Al	0.76152 0.76709 0.46652 2.39500
P 	P 	0.66108 0.09110 0.79971 0.77800
Mg	Mg	0.89958 0.32776 0.79986 1.49400
O 	O 	0.98847 0.30103 0.77686 -0.52000
O 	O 	0.10597 0.22913 0.75378 -0.59100
O 	O 	0.54382 0.07683 0.79155 -0.79200
O 	O 	0.75259 0.21792 0.79567 -0.62100
O 	O 	0.65919 0.05263 0.83064 -0.79600
O 	O 	0.68547 0.01303 0.78093 -0.57200
Al	Al	0.42819 0.10042 0.79986 2.39400
P 	P 	0.32774 0.42444 0.13304 0.77700
Mg	Mg	0.56624 0.66110 0.13319 1.49400
O 	O 	0.65513 0.63437 0.11020 -0.56100
O 	O 	0.77263 0.56247 0.08712 -0.57400
O 	O 	0.21048 0.41017 0.12489 -0.79300
O 	O 	0.41925 0.55126 0.12901 -0.62100
O 	O 	0.32585 0.38597 0.16398 -0.78700
O 	O 	0.35213 0.34637 0.11427 -0.55600
Al	Al	0.09485 0.43376 0.13319 2.39200
P 	P 	0.76336 0.00559 0.46637 0.70000
O 	O 	0.64590 0.67820 0.44353 -0.76300
O 	O 	0.45650 0.56070 0.42045 -0.56900
O 	O 	0.86635 0.12285 0.45822 -0.75000
O 	O 	0.79867 0.91408 0.46234 -0.75700
O 	O 	0.72678 0.00748 0.49731 -0.59700
O 	O 	0.66090 0.98120 0.44760 -0.50700
Al	Al	0.00557 0.23848 0.46652 2.39200
P 	P 	0.43003 0.33892 0.79971 0.77900
O 	O 	0.31257 0.01153 0.77686 -0.78300
O 	O 	0.12317 0.89403 0.75378 -0.54300
O 	O 	0.53302 0.45618 0.79155 -0.77300
O 	O 	0.46534 0.24741 0.79567 -0.81300
O 	O 	0.39345 0.34081 0.83064 -0.59400
O 	O 	0.32757 0.31453 0.78093 -0.56500
Al	Al	0.67224 0.57181 0.79986 2.39500
P 	P 	0.09669 0.67226 0.13304 0.73800
O 	O 	0.97923 0.34487 0.11020 -0.74000
O 	O 	0.78983 0.22737 0.08712 -0.56800
O 	O 	0.19968 0.78952 0.12489 -0.76400
O 	O 	0.13200 0.58075 0.12901 -0.82000
O 	O 	0.06011 0.67415 0.16398 -0.59700
O 	O 	0.99423 0.64787 0.11427 -0.50900
Al	Al	0.33890 0.90515 0.13319 2.39600
P 	P 	0.24223 0.23664 0.46637 0.77600
O 	O 	0.03230 0.35410 0.44353 -0.80200
O 	O 	0.10420 0.54350 0.42045 -0.59400
O 	O 	0.25650 0.13365 0.45822 -0.60600
O 	O 	0.11541 0.20133 0.46234 -0.83900
O 	O 	0.28070 0.27322 0.49731 -0.78500
O 	O 	0.32030 0.33910 0.44760 -0.56000
P 	P 	0.90890 0.56997 0.79971 0.77200
O 	O 	0.69897 0.68743 0.77686 -0.77200
O 	O 	0.77087 0.87683 0.75378 -0.55600
O 	O 	0.92317 0.46698 0.79155 -0.56200
O 	O 	0.78208 0.53466 0.79567 -0.81100
O 	O 	0.94737 0.60655 0.83064 -0.75700
O 	O 	0.98697 0.67243 0.78093 -0.52300
P 	P 	0.57556 0.90331 0.13304 0.81400
O 	O 	0.36563 0.02077 0.11020 -0.81300
O 	O 	0.43753 0.21017 0.08712 -0.59000
O 	O 	0.58983 0.80032 0.12489 -0.56900
O 	O 	0.44874 0.86800 0.12901 -0.80500
O 	O 	0.61403 0.93989 0.16398 -0.76500
O 	O 	0.65363 0.00577 0.11427 -0.59600
P 	P 	0.24223 0.00559 0.96637 0.69700
Mg	Mg	0.00557 0.76709 0.96652 1.49100
O 	O 	0.03230 0.67820 0.94353 -0.58600
O 	O 	0.10420 0.56070 0.92045 -0.58800
O 	O 	0.25650 0.12285 0.95822 -0.78500
O 	O 	0.11541 0.91408 0.96234 -0.58900
O 	O 	0.28070 0.00748 0.99731 -0.79500
O 	O 	0.32030 0.98120 0.94760 -0.49900
Al	Al	0.23291 0.23848 0.96652 2.39400
P 	P 	0.90890 0.33892 0.29971 0.77400
Mg	Mg	0.67224 0.10042 0.29986 1.49300
O 	O 	0.69897 0.01153 0.27686 -0.57700
O 	O 	0.77087 0.89403 0.25378 -0.52700
O 	O 	0.92317 0.45618 0.29155 -0.76400
O 	O 	0.78208 0.24741 0.29567 -0.62000
O 	O 	0.94737 0.34081 0.33064 -0.76200
O 	O 	0.98697 0.31453 0.28093 -0.52000
Al	Al	0.89958 0.57181 0.29986 2.39500
P 	P 	0.57556 0.67226 0.63304 0.77500
Mg	Mg	0.33890 0.43376 0.63319 1.49300
O 	O 	0.36563 0.34487 0.61020 -0.57600
O 	O 	0.43753 0.22737 0.58712 -0.58400
O 	O 	0.58983 0.78952 0.62489 -0.76300
O 	O 	0.44874 0.58075 0.62901 -0.62100
O 	O 	0.61403 0.67415 0.66398 -0.77300
O 	O 	0.65363 0.64787 0.61427 -0.54000
Al	Al	0.56624 0.90515 0.63319 2.39600
P 	P 	0.99441 0.23664 0.96637 0.85900
O 	O 	0.32180 0.35410 0.94353 -0.77100
O 	O 	0.43930 0.54350 0.92045 -0.56800
O 	O 	0.87715 0.13365 0.95822 -0.79600
O 	O 	0.08592 0.20133 0.96234 -0.86600
O 	O 	0.99252 0.27322 0.99731 -0.57800
O 	O 	0.01880 0.33910 0.94760 -0.61000
Al	Al	0.76152 0.99443 0.96652 2.39700
P 	P 	0.66108 0.56997 0.29971 0.77900
O 	O 	0.98847 0.68743 0.27686 -0.71100
O 	O 	0.10597 0.87683 0.25378 -0.54900
O 	O 	0.54382 0.46698 0.29155 -0.77300
O 	O 	0.75259 0.53466 0.29567 -0.80800
O 	O 	0.65919 0.60655 0.33064 -0.58200
O 	O 	0.68547 0.67243 0.28093 -0.55100
Al	Al	0.42819 0.32776 0.29986 2.39400
P 	P 	0.32774 0.90331 0.63304 0.81900
O 	O 	0.65513 0.02077 0.61020 -0.79200
O 	O 	0.77263 0.21017 0.58712 -0.56800
O 	O 	0.21048 0.80032 0.62489 -0.78200
O 	O 	0.41925 0.86800 0.62901 -0.80200
O 	O 	0.32585 0.93989 0.66398 -0.58100
O 	O 	0.35213 0.00577 0.61427 -0.60600
Al	Al	0.09485 0.66110 0.63319 2.39300
P 	P 	0.76336 0.75777 0.96637 0.77300
O 	O 	0.64590 0.96770 0.94353 -0.75800
O 	O 	0.45650 0.89580 0.92045 -0.57600
O 	O 	0.86635 0.74350 0.95822 -0.54600
O 	O 	0.79867 0.88459 0.96234 -0.79000
O 	O 	0.72678 0.71930 0.99731 -0.77300
O 	O 	0.66090 0.67970 0.94760 -0.55300
P 	P 	0.43003 0.09110 0.29971 0.77600
O 	O 	0.31257 0.30103 0.27686 -0.78700
O 	O 	0.12317 0.22913 0.25378 -0.61400
O 	O 	0.53302 0.07683 0.29155 -0.58900
O 	O 	0.46534 0.21792 0.29567 -0.81800
O 	O 	0.39345 0.05263 0.33064 -0.80300
O 	O 	0.32757 0.01303 0.28093 -0.58900
P 	P 	0.09669 0.42444 0.63304 0.73400
O 	O 	0.97923 0.63437 0.61020 -0.74600
O 	O 	0.78983 0.56247 0.58712 -0.58000
O 	O 	0.19968 0.41017 0.62489 -0.58100
O 	O 	0.13200 0.55126 0.62901 -0.82300
O 	O 	0.06011 0.38597 0.66398 -0.79500
O 	O 	0.99423 0.34637 0.61427 -0.51500
P 	P 	0.00559 0.24223 0.53363 0.69700
Mg	Mg	0.76709 0.00557 0.53348 1.49100
O 	O 	0.67820 0.03230 0.55647 -0.58600
O 	O 	0.56070 0.10420 0.57955 -0.58800
O 	O 	0.12285 0.25650 0.54178 -0.78500
O 	O 	0.91408 0.11541 0.53766 -0.58900
O 	O 	0.00748 0.28070 0.50269 -0.79500
O 	O 	0.98120 0.32030 0.55240 -0.49900
Al	Al	0.23848 0.23291 0.53348 2.39400
P 	P 	0.67226 0.57556 0.86696 0.77500
Mg	Mg	0.43376 0.33890 0.86681 1.49300
O 	O 	0.34487 0.36563 0.88980 -0.57600
O 	O 	0.22737 0.43753 0.91288 -0.58400
O 	O 	0.78952 0.58983 0.87511 -0.76300
O 	O 	0.58075 0.44874 0.87099 -0.62100
O 	O 	0.67415 0.61403 0.83602 -0.77300
O 	O 	0.64787 0.65363 0.88573 -0.54000
Al	Al	0.90515 0.56624 0.86681 2.39600
P 	P 	0.33892 0.90890 0.20029 0.77400
Mg	Mg	0.10042 0.67224 0.20014 1.49300
O 	O 	0.01153 0.69897 0.22314 -0.57700
O 	O 	0.89403 0.77087 0.24622 -0.52700
O 	O 	0.45618 0.92317 0.20845 -0.76400
O 	O 	0.24741 0.78208 0.20433 -0.62000
O 	O 	0.34081 0.94737 0.16936 -0.76200
O 	O 	0.31453 0.98697 0.21907 -0.52000
Al	Al	0.57181 0.89958 0.20014 2.39500
P 	P 	0.23664 0.99441 0.53363 0.85900
O 	O 	0.35410 0.32180 0.55647 -0.77100
O 	O 	0.54350 0.43930 0.57955 -0.56800
O 	O 	0.13365 0.87715 0.54178 -0.79600
O 	O 	0.20133 0.08592 0.53766 -0.86600
O 	O 	0.27322 0.99252 0.50269 -0.57800
O 	O 	0.33910 0.01880 0.55240 -0.61000
Al	Al	0.99443 0.76152 0.53348 2.39700
P 	P 	0.90331 0.32774 0.86696 0.81900
O 	O 	0.02077 0.65513 0.88980 -0.79200
O 	O 	0.21017 0.77263 0.91288 -0.56800
O 	O 	0.80032 0.21048 0.87511 -0.78200
O 	O 	0.86800 0.41925 0.87099 -0.80200
O 	O 	0.93989 0.32585 0.83602 -0.58100
O 	O 	0.00577 0.35213 0.88573 -0.60600
Al	Al	0.66110 0.09485 0.86681 2.39300
P 	P 	0.56997 0.66108 0.20029 0.77900
O 	O 	0.68743 0.98847 0.22314 -0.71100
O 	O 	0.87683 0.10597 0.24622 -0.54900
O 	O 	0.46698 0.54382 0.20845 -0.77300
O 	O 	0.53466 0.75259 0.20433 -0.80800
O 	O 	0.60655 0.65919 0.16936 -0.58200
O 	O 	0.67243 0.68547 0.21907 -0.55100
Al	Al	0.32776 0.42819 0.20014 2.39400
P 	P 	0.75777 0.76336 0.53363 0.77300
O 	O 	0.96770 0.64590 0.55647 -0.75800
O 	O 	0.89580 0.45650 0.57955 -0.57600
O 	O 	0.74350 0.86635 0.54178 -0.54600
O 	O 	0.88459 0.79867 0.53766 -0.79000
O 	O 	0.71930 0.72678 0.50269 -0.77300
O 	O 	0.67970 0.66090 0.55240 -0.55300
P 	P 	0.42444 0.09669 0.86696 0.73400
O 	O 	0.63437 0.97923 0.88980 -0.74600
O 	O 	0.56247 0.78983 0.91288 -0.58000
O 	O 	0.41017 0.19968 0.87511 -0.58100
O 	O 	0.55126 0.13200 0.87099 -0.82300
O 	O 	0.38597 0.06011 0.83602 -0.79500
O 	O 	0.34637 0.99423 0.88573 -0.51500
P 	P 	0.09110 0.43003 0.20029 0.77600
O 	O 	0.30103 0.31257 0.22314 -0.78700
O 	O 	0.22913 0.12317 0.24622 -0.61400
O 	O 	0.07683 0.53302 0.20845 -0.58900
O 	O 	0.21792 0.46534 0.20433 -0.81800
O 	O 	0.05263 0.39345 0.16936 -0.80300
O 	O 	0.01303 0.32757 0.21907 -0.58900
P 	P 	0.90811 0.33333 0.08333 0.77100
P 	P 	0.66667 0.57477 0.08333 0.77200
P 	P 	0.33333 0.90811 0.41667 0.77100
P 	P 	0.42523 0.09189 0.08333 0.80600
P 	P 	0.75856 0.75856 0.75000 0.80500
P 	P 	0.00000 0.24144 0.75000 0.69300
P 	P 	0.57477 0.66667 0.41667 0.77200
P 	P 	0.24144 0.00000 0.75000 0.69300
P 	P 	0.09189 0.42523 0.41667 0.80600
P 	P 	0.09189 0.66667 0.91667 0.77200
P 	P 	0.75856 0.00000 0.25000 0.69200
P 	P 	0.42523 0.33333 0.58333 0.77100
P 	P 	0.33333 0.42523 0.91667 0.77100
P 	P 	0.00000 0.75856 0.25000 0.69200
P 	P 	0.57477 0.90811 0.91667 0.80600
P 	P 	0.24144 0.24144 0.25000 0.80800
P 	P 	0.66667 0.09189 0.58333 0.77200
P 	P 	0.90811 0.57477 0.58333 0.80600
Mg	Mg	0.66667 0.08946 0.08333 1.49500
Mg	Mg	0.91054 0.57720 0.08333 1.49500
Mg	Mg	0.42280 0.33333 0.08333 1.49500
Mg	Mg	0.08946 0.66667 0.41667 1.49500
Mg	Mg	0.75613 0.00000 0.75000 1.49000
Mg	Mg	0.57720 0.91054 0.41667 1.49500
Mg	Mg	0.24387 0.24387 0.75000 1.49400
Mg	Mg	0.33333 0.42280 0.41667 1.49500
Mg	Mg	0.00000 0.75613 0.75000 1.49000
Mg	Mg	0.33333 0.91054 0.91667 1.49500
Mg	Mg	0.00000 0.24387 0.25000 1.49000
Mg	Mg	0.08946 0.42280 0.91667 1.49500
Mg	Mg	0.75613 0.75613 0.25000 1.49500
Mg	Mg	0.57720 0.66667 0.91667 1.49600
Mg	Mg	0.24387 0.00000 0.25000 1.49000
Mg	Mg	0.91054 0.33333 0.58333 1.49500
Mg	Mg	0.42280 0.08946 0.58333 1.49500
Mg	Mg	0.66667 0.57720 0.58333 1.49600
