data_crystal

_cell_length_a 9.64600
_cell_length_b 9.41000
_cell_length_c 30.92900
_cell_angle_alpha 90.00000
_cell_angle_beta  93.33800
_cell_angle_gamma 90.00000

_symmetry_space_group_name_	'P 1'
_symmetry_space_group_name_H-M	'P 1'

loop_
_symmetry_equiv_pos_as_xyz
  x,y,z

loop_
_atom_site_label
_atom_site_type_symbol
_atom_site_fract_x
_atom_site_fract_y
_atom_site_fract_z
_atom_site_charge
Zn	Zn	0.03557 0.27106 0.14027 1.23000
Zn	Zn	0.21463 0.55604 0.03969 1.21100
Zn	Zn	0.06167 0.80211 0.19345 1.22700
P 	P 	0.96249 0.11013 0.22080 0.41200
P 	P 	0.24892 0.06078 0.18270 0.41500
P 	P 	0.92741 0.37431 0.05042 0.42200
P 	P 	0.02478 0.59927 0.11450 0.43000
O 	O 	0.91100 0.19840 0.18205 -0.43700
O 	O 	0.93420 0.95110 0.21381 -0.42500
O 	O 	0.90020 0.16200 0.26185 -0.43500
O 	O 	0.18060 0.13010 0.14180 -0.43100
O 	O 	0.39830 0.10360 0.19050 -0.22700
O 	O 	0.23040 0.89940 0.18157 -0.43000
O 	O 	0.19140 0.27570 0.22864 -0.37500
H 	H 	0.14850 0.31820 0.24680 0.22700
O 	O 	0.93160 0.25430 0.08325 -0.40900
O 	O 	0.06960 0.39960 0.03312 -0.45300
O 	O 	0.81740 0.34330 0.01447 -0.42700
O 	O 	0.96960 0.71590 0.14241 -0.42000
O 	O 	0.13390 0.65910 0.08580 -0.44300
O 	O 	0.07790 0.47240 0.14067 -0.47600
O 	O 	0.83450 0.64530 0.04797 -0.33100
H 	H 	0.86540 0.62720 0.02450 0.20100
N 	N 	0.53300 0.87840 0.29910 -0.21000
H 	H 	0.56540 0.79330 0.30000 0.17300
N 	N 	0.39180 0.45210 0.05730 -0.25000
C 	C 	0.15330 0.12840 0.22850 -0.05400
C 	C 	0.19350 0.05440 0.27230 -0.12800
H 	H 	0.15440 0.10980 0.29510 0.04900
H 	H 	0.14850 0.96220 0.27200 0.04200
C 	C 	0.34430 0.03220 0.28450 0.02600
C 	C 	0.43270 0.14370 0.29680 -0.02000
H 	H 	0.39850 0.23620 0.29610 0.06200
C 	C 	0.57060 0.12020 0.31000 -0.10900
H 	H 	0.62910 0.19540 0.31800 0.08000
C 	C 	0.61790 0.98440 0.31080 0.10700
H 	H 	0.70990 0.96550 0.31960 0.00700
C 	C 	0.39970 0.89710 0.28610 0.03300
H 	H 	0.34460 0.81930 0.27820 0.03900
C 	C 	0.87690 0.53590 0.07880 -0.02500
C 	C 	0.75390 0.51330 0.10800 -0.16900
H 	H 	0.78890 0.46070 0.13330 0.06300
H 	H 	0.72600 0.60610 0.11800 0.10500
C 	C 	0.62350 0.43780 0.09000 0.06700
C 	C 	0.60470 0.29740 0.09790 -0.07600
H 	H 	0.67610 0.24340 0.11110 0.07500
C 	C 	0.48020 0.23700 0.08650 -0.03700
H 	H 	0.46540 0.14170 0.09260 0.06300
C 	C 	0.37540 0.31570 0.06580 0.01600
H 	H 	0.29150 0.27190 0.05770 0.00900
C 	C 	0.51250 0.51220 0.07030 -0.02400
H 	H 	0.52300 0.60920 0.06590 0.02600
Zn	Zn	0.96443 0.77106 0.35973 1.23000
Zn	Zn	0.78537 0.05604 0.46031 1.21000
Zn	Zn	0.93833 0.30211 0.30655 1.22800
P 	P 	0.03751 0.61013 0.27920 0.42000
P 	P 	0.75108 0.56078 0.31730 0.41500
P 	P 	0.07259 0.87431 0.44958 0.41600
P 	P 	0.97522 0.09927 0.38550 0.42100
O 	O 	0.08900 0.69840 0.31795 -0.43800
O 	O 	0.06580 0.45110 0.28619 -0.43100
O 	O 	0.09980 0.66200 0.23815 -0.43400
O 	O 	0.81940 0.63010 0.35820 -0.43200
O 	O 	0.60170 0.60360 0.30950 -0.22600
O 	O 	0.76960 0.39940 0.31843 -0.42900
O 	O 	0.80860 0.77570 0.27136 -0.37500
H 	H 	0.85150 0.81820 0.25320 0.22700
O 	O 	0.06840 0.75430 0.41675 -0.40700
O 	O 	0.93040 0.89960 0.46688 -0.44800
O 	O 	0.18260 0.84330 0.48553 -0.42700
O 	O 	0.03040 0.21590 0.35759 -0.41900
O 	O 	0.86610 0.15910 0.41420 -0.44300
O 	O 	0.92210 0.97240 0.35933 -0.46900
O 	O 	0.16550 0.14530 0.45203 -0.33200
H 	H 	0.13460 0.12720 0.47550 0.20200
N 	N 	0.46700 0.37840 0.20090 -0.20700
H 	H 	0.43460 0.29330 0.20000 0.17200
N 	N 	0.60820 0.95210 0.44270 -0.24800
C 	C 	0.84670 0.62840 0.27150 -0.05400
C 	C 	0.80650 0.55440 0.22770 -0.13600
H 	H 	0.84560 0.60980 0.20490 0.05100
H 	H 	0.85150 0.46220 0.22800 0.04600
C 	C 	0.65570 0.53220 0.21550 0.03400
C 	C 	0.56730 0.64370 0.20320 -0.02900
H 	H 	0.60150 0.73620 0.20390 0.06500
C 	C 	0.42940 0.62020 0.19000 -0.09500
H 	H 	0.37090 0.69540 0.18200 0.07600
C 	C 	0.38210 0.48440 0.18920 0.09600
H 	H 	0.29010 0.46550 0.18040 0.01000
C 	C 	0.60030 0.39710 0.21390 0.02700
H 	H 	0.65540 0.31930 0.22180 0.04100
C 	C 	0.12310 0.03590 0.42120 -0.02000
C 	C 	0.24610 0.01330 0.39200 -0.16800
H 	H 	0.21110 0.96070 0.36670 0.06100
H 	H 	0.27400 0.10610 0.38200 0.10400
C 	C 	0.37650 0.93780 0.41000 0.06800
C 	C 	0.39530 0.79740 0.40210 -0.07700
H 	H 	0.32390 0.74340 0.38890 0.07600
C 	C 	0.51980 0.73700 0.41350 -0.03600
H 	H 	0.53460 0.64170 0.40740 0.06400
C 	C 	0.62460 0.81570 0.43420 0.01600
H 	H 	0.70850 0.77190 0.44230 0.00900
C 	C 	0.48750 0.01220 0.42970 -0.02800
H 	H 	0.47700 0.10920 0.43410 0.02700
Zn	Zn	0.96443 0.72894 0.85973 1.23000
Zn	Zn	0.78537 0.44396 0.96031 1.21100
Zn	Zn	0.93833 0.19789 0.80655 1.22700
P 	P 	0.03751 0.88987 0.77920 0.41200
P 	P 	0.75108 0.93922 0.81730 0.41500
P 	P 	0.07259 0.62569 0.94958 0.42200
P 	P 	0.97522 0.40073 0.88550 0.43000
O 	O 	0.08900 0.80160 0.81795 -0.43700
O 	O 	0.06580 0.04890 0.78619 -0.42500
O 	O 	0.09980 0.83800 0.73815 -0.43500
O 	O 	0.81940 0.86990 0.85820 -0.43100
O 	O 	0.60170 0.89640 0.80950 -0.22700
O 	O 	0.76960 0.10060 0.81843 -0.43000
O 	O 	0.80860 0.72430 0.77136 -0.37500
H 	H 	0.85150 0.68180 0.75320 0.22700
O 	O 	0.06840 0.74570 0.91675 -0.40900
O 	O 	0.93040 0.60040 0.96688 -0.45300
O 	O 	0.18260 0.65670 0.98553 -0.42700
O 	O 	0.03040 0.28410 0.85759 -0.42000
O 	O 	0.86610 0.34090 0.91420 -0.44300
O 	O 	0.92210 0.52760 0.85933 -0.47600
O 	O 	0.16550 0.35470 0.95203 -0.33100
H 	H 	0.13460 0.37280 0.97550 0.20100
N 	N 	0.46700 0.12160 0.70090 -0.21000
H 	H 	0.43460 0.20670 0.70000 0.17300
N 	N 	0.60820 0.54790 0.94270 -0.25000
C 	C 	0.84670 0.87160 0.77150 -0.05400
C 	C 	0.80650 0.94560 0.72770 -0.12800
H 	H 	0.84560 0.89020 0.70490 0.04900
H 	H 	0.85150 0.03780 0.72800 0.04200
C 	C 	0.65570 0.96780 0.71550 0.02600
C 	C 	0.56730 0.85630 0.70320 -0.02000
H 	H 	0.60150 0.76380 0.70390 0.06200
C 	C 	0.42940 0.87980 0.69000 -0.10900
H 	H 	0.37090 0.80460 0.68200 0.08000
C 	C 	0.38210 0.01560 0.68920 0.10700
H 	H 	0.29010 0.03450 0.68040 0.00700
C 	C 	0.60030 0.10290 0.71390 0.03300
H 	H 	0.65540 0.18070 0.72180 0.03900
C 	C 	0.12310 0.46410 0.92120 -0.02500
C 	C 	0.24610 0.48670 0.89200 -0.16900
H 	H 	0.21110 0.53930 0.86670 0.06300
H 	H 	0.27400 0.39390 0.88200 0.10500
C 	C 	0.37650 0.56220 0.91000 0.06700
C 	C 	0.39530 0.70260 0.90210 -0.07600
H 	H 	0.32390 0.75660 0.88890 0.07500
C 	C 	0.51980 0.76300 0.91350 -0.03700
H 	H 	0.53460 0.85830 0.90740 0.06300
C 	C 	0.62460 0.68430 0.93420 0.01600
H 	H 	0.70850 0.72810 0.94230 0.00900
C 	C 	0.48750 0.48780 0.92970 -0.02400
H 	H 	0.47700 0.39080 0.93410 0.02600
Zn	Zn	0.03557 0.22894 0.64027 1.23000
Zn	Zn	0.21463 0.94396 0.53969 1.21000
Zn	Zn	0.06167 0.69789 0.69345 1.22800
P 	P 	0.96249 0.38987 0.72080 0.42000
P 	P 	0.24892 0.43922 0.68270 0.41500
P 	P 	0.92741 0.12569 0.55042 0.41600
P 	P 	0.02478 0.90073 0.61450 0.42100
O 	O 	0.91100 0.30160 0.68205 -0.43800
O 	O 	0.93420 0.54890 0.71381 -0.43100
O 	O 	0.90020 0.33800 0.76185 -0.43400
O 	O 	0.18060 0.36990 0.64180 -0.43200
O 	O 	0.39830 0.39640 0.69050 -0.22600
O 	O 	0.23040 0.60060 0.68157 -0.42900
O 	O 	0.19140 0.22430 0.72864 -0.37500
H 	H 	0.14850 0.18180 0.74680 0.22700
O 	O 	0.93160 0.24570 0.58325 -0.40700
O 	O 	0.06960 0.10040 0.53312 -0.44800
O 	O 	0.81740 0.15670 0.51447 -0.42700
O 	O 	0.96960 0.78410 0.64241 -0.41900
O 	O 	0.13390 0.84090 0.58580 -0.44300
O 	O 	0.07790 0.02760 0.64067 -0.46900
O 	O 	0.83450 0.85470 0.54797 -0.33200
H 	H 	0.86540 0.87280 0.52450 0.20200
N 	N 	0.53300 0.62160 0.79910 -0.20700
H 	H 	0.56540 0.70670 0.80000 0.17200
N 	N 	0.39180 0.04790 0.55730 -0.24800
C 	C 	0.15330 0.37160 0.72850 -0.05400
C 	C 	0.19350 0.44560 0.77230 -0.13600
H 	H 	0.15440 0.39020 0.79510 0.05100
H 	H 	0.14850 0.53780 0.77200 0.04600
C 	C 	0.34430 0.46780 0.78450 0.03400
C 	C 	0.43270 0.35630 0.79680 -0.02900
H 	H 	0.39850 0.26380 0.79610 0.06500
C 	C 	0.57060 0.37980 0.81000 -0.09500
H 	H 	0.62910 0.30460 0.81800 0.07600
C 	C 	0.61790 0.51560 0.81080 0.09600
H 	H 	0.70990 0.53450 0.81960 0.01000
C 	C 	0.39970 0.60290 0.78610 0.02700
H 	H 	0.34460 0.68070 0.77820 0.04100
C 	C 	0.87690 0.96410 0.57880 -0.02000
C 	C 	0.75390 0.98670 0.60800 -0.16800
H 	H 	0.78890 0.03930 0.63330 0.06100
H 	H 	0.72600 0.89390 0.61800 0.10400
C 	C 	0.62350 0.06220 0.59000 0.06800
C 	C 	0.60470 0.20260 0.59790 -0.07700
H 	H 	0.67610 0.25660 0.61110 0.07600
C 	C 	0.48020 0.26300 0.58650 -0.03600
H 	H 	0.46540 0.35830 0.59260 0.06400
C 	C 	0.37540 0.18430 0.56580 0.01600
H 	H 	0.29150 0.22810 0.55770 0.00900
C 	C 	0.51250 0.98780 0.57030 -0.02800
H 	H 	0.52300 0.89080 0.56590 0.02700
