data_crystal

_cell_length_a 28.36500
_cell_length_b 28.36500
_cell_length_c 13.36100
_cell_angle_alpha 90.00000
_cell_angle_beta  90.00000
_cell_angle_gamma 90.00000

_symmetry_space_group_name_	'P 1'
_symmetry_space_group_name_H-M	'P 1'

loop_
_symmetry_equiv_pos_as_xyz
  x,y,z

loop_
_atom_site_label
_atom_site_type_symbol
_atom_site_fract_x
_atom_site_fract_y
_atom_site_fract_z
_atom_site_charge
Co	Co	0.85817 0.99361 0.59478 1.19100
Co	Co	0.81324 0.09566 0.61692 1.16800
O 	O 	0.82215 0.04168 0.50680 -0.56900
O 	O 	0.83615 0.00791 0.35950 -0.48200
O 	O 	0.69729 0.05263 0.11030 -0.45400
O 	O 	0.71495 0.07556 0.95540 -0.56100
C 	C 	0.81859 0.04029 0.41160 0.46700
C 	C 	0.79200 0.07924 0.36070 -0.36900
H 	H 	0.80890 0.10930 0.37240 0.11200
H 	H 	0.76050 0.08200 0.39220 0.12800
C 	C 	0.78557 0.07268 0.24900 -0.01000
H 	H 	0.76700 0.04370 0.23660 0.04800
H 	H 	0.81680 0.06870 0.21710 0.03400
C 	C 	0.76056 0.11452 0.20260 0.02800
H 	H 	0.77780 0.14370 0.22050 0.01300
H 	H 	0.72850 0.11690 0.23130 0.02600
C 	C 	0.75675 0.11130 0.08920 -0.39500
H 	H 	0.74900 0.14300 0.06280 0.13600
H 	H 	0.78800 0.10240 0.06210 0.14300
C 	C 	0.72064 0.07670 0.05000 0.47000
O 	O 	0.88382 0.10592 0.61200 -0.48100
O 	O 	0.91749 0.03442 0.60320 -0.44800
O 	O 	0.11024 0.05550 0.50700 -0.52700
O 	O 	0.10010 0.06533 0.34550 -0.40000
C 	C 	0.91855 0.07870 0.61310 0.44000
C 	C 	0.96599 0.10169 0.62600 -0.34200
H 	H 	0.98280 0.08620 0.68200 0.12200
H 	H 	0.96130 0.13520 0.64420 0.12600
C 	C 	0.99671 0.09902 0.53200 -0.02000
H 	H 	0.00620 0.06590 0.52020 0.04600
H 	H 	0.97830 0.10970 0.47340 0.03300
C 	C 	0.04047 0.12957 0.54300 0.00400
H 	H 	0.05850 0.11890 0.60230 0.02100
H 	H 	0.03070 0.16260 0.55480 0.01600
C 	C 	0.07251 0.12788 0.45130 -0.34700
H 	H 	0.05390 0.13690 0.39170 0.13100
H 	H 	0.09780 0.15160 0.45970 0.12400
C 	C 	0.09489 0.08044 0.43220 0.39900
Co	Co	0.35817 0.49361 0.09478 1.19000
Co	Co	0.31324 0.59566 0.11692 1.16700
O 	O 	0.32215 0.54168 0.00680 -0.57000
O 	O 	0.33615 0.50791 0.85950 -0.48300
O 	O 	0.19729 0.55263 0.61030 -0.45500
O 	O 	0.21495 0.57556 0.45540 -0.56400
C 	C 	0.31859 0.54029 0.91160 0.46600
C 	C 	0.29200 0.57924 0.86070 -0.36900
H 	H 	0.30890 0.60930 0.87240 0.11000
H 	H 	0.26050 0.58200 0.89220 0.12700
C 	C 	0.28557 0.57268 0.74900 -0.01200
H 	H 	0.26700 0.54370 0.73660 0.04800
H 	H 	0.31680 0.56870 0.71710 0.03300
C 	C 	0.26056 0.61452 0.70260 0.02800
H 	H 	0.27780 0.64370 0.72050 0.01100
H 	H 	0.22850 0.61690 0.73130 0.02500
C 	C 	0.25675 0.61130 0.58920 -0.39700
H 	H 	0.24900 0.64300 0.56280 0.13600
H 	H 	0.28800 0.60240 0.56210 0.14300
C 	C 	0.22064 0.57670 0.55000 0.47100
O 	O 	0.38382 0.60592 0.11200 -0.48200
O 	O 	0.41749 0.53442 0.10320 -0.45000
O 	O 	0.61024 0.55550 0.00700 -0.52800
O 	O 	0.60010 0.56533 0.84550 -0.40100
C 	C 	0.41855 0.57870 0.11310 0.44000
C 	C 	0.46599 0.60169 0.12600 -0.34200
H 	H 	0.48280 0.58620 0.18200 0.12100
H 	H 	0.46130 0.63520 0.14420 0.12600
C 	C 	0.49671 0.59902 0.03200 -0.02000
H 	H 	0.50620 0.56590 0.02020 0.04600
H 	H 	0.47830 0.60970 0.97340 0.03300
C 	C 	0.54047 0.62957 0.04300 0.00600
H 	H 	0.55850 0.61890 0.10230 0.02100
H 	H 	0.53070 0.66260 0.05480 0.01600
C 	C 	0.57251 0.62788 0.95130 -0.34800
H 	H 	0.55390 0.63690 0.89170 0.13100
H 	H 	0.59780 0.65160 0.95970 0.12400
C 	C 	0.59489 0.58044 0.93220 0.39900
Co	Co	0.64183 0.00639 0.09478 1.18900
Co	Co	0.68676 0.90434 0.11692 1.16700
O 	O 	0.67785 0.95832 0.00680 -0.56900
O 	O 	0.66385 0.99209 0.85950 -0.48300
O 	O 	0.80271 0.94737 0.61030 -0.45500
O 	O 	0.78505 0.92444 0.45540 -0.56400
C 	C 	0.68141 0.95971 0.91160 0.46400
C 	C 	0.70800 0.92076 0.86070 -0.36800
H 	H 	0.69110 0.89070 0.87240 0.11000
H 	H 	0.73950 0.91800 0.89220 0.12700
C 	C 	0.71443 0.92732 0.74900 -0.01200
H 	H 	0.73300 0.95630 0.73660 0.04700
H 	H 	0.68320 0.93130 0.71710 0.03300
C 	C 	0.73944 0.88548 0.70260 0.02800
H 	H 	0.72220 0.85630 0.72050 0.01100
H 	H 	0.77150 0.88310 0.73130 0.02500
C 	C 	0.74325 0.88870 0.58920 -0.39700
H 	H 	0.75100 0.85700 0.56280 0.13600
H 	H 	0.71200 0.89760 0.56210 0.14300
C 	C 	0.77936 0.92330 0.55000 0.47100
O 	O 	0.61618 0.89408 0.11200 -0.48200
O 	O 	0.58251 0.96558 0.10320 -0.44900
O 	O 	0.38976 0.94450 0.00700 -0.52700
O 	O 	0.39990 0.93467 0.84550 -0.40000
C 	C 	0.58145 0.92130 0.11310 0.44000
C 	C 	0.53401 0.89831 0.12600 -0.34200
H 	H 	0.51720 0.91380 0.18200 0.12200
H 	H 	0.53870 0.86480 0.14420 0.12600
C 	C 	0.50329 0.90098 0.03200 -0.01900
H 	H 	0.49380 0.93410 0.02020 0.04600
H 	H 	0.52170 0.89030 0.97340 0.03200
C 	C 	0.45953 0.87043 0.04300 0.00500
H 	H 	0.44150 0.88110 0.10230 0.02100
H 	H 	0.46930 0.83740 0.05480 0.01600
C 	C 	0.42749 0.87212 0.95130 -0.34800
H 	H 	0.44610 0.86310 0.89170 0.13100
H 	H 	0.40220 0.84840 0.95970 0.12400
C 	C 	0.40511 0.91956 0.93220 0.39800
Co	Co	0.14183 0.50639 0.59478 1.19000
Co	Co	0.18676 0.40434 0.61692 1.16700
O 	O 	0.17785 0.45832 0.50680 -0.57000
O 	O 	0.16385 0.49209 0.35950 -0.48300
O 	O 	0.30271 0.44737 0.11030 -0.45500
O 	O 	0.28505 0.42444 0.95540 -0.56300
C 	C 	0.18141 0.45971 0.41160 0.46600
C 	C 	0.20800 0.42076 0.36070 -0.37000
H 	H 	0.19110 0.39070 0.37240 0.11000
H 	H 	0.23950 0.41800 0.39220 0.12700
C 	C 	0.21443 0.42732 0.24900 -0.01200
H 	H 	0.23300 0.45630 0.23660 0.04700
H 	H 	0.18320 0.43130 0.21710 0.03300
C 	C 	0.23944 0.38548 0.20260 0.02700
H 	H 	0.22220 0.35630 0.22050 0.01100
H 	H 	0.27150 0.38310 0.23130 0.02500
C 	C 	0.24325 0.38870 0.08920 -0.39700
H 	H 	0.25100 0.35700 0.06280 0.13600
H 	H 	0.21200 0.39760 0.06210 0.14300
C 	C 	0.27936 0.42330 0.05000 0.47000
O 	O 	0.11618 0.39408 0.61200 -0.48200
O 	O 	0.08251 0.46558 0.60320 -0.45000
O 	O 	0.88976 0.44450 0.50700 -0.52800
O 	O 	0.89990 0.43467 0.34550 -0.40100
C 	C 	0.08145 0.42130 0.61310 0.44000
C 	C 	0.03401 0.39831 0.62600 -0.34100
H 	H 	0.01720 0.41380 0.68200 0.12100
H 	H 	0.03870 0.36480 0.64420 0.12600
C 	C 	0.00329 0.40098 0.53200 -0.02200
H 	H 	0.99380 0.43410 0.52020 0.04600
H 	H 	0.02170 0.39030 0.47340 0.03300
C 	C 	0.95953 0.37043 0.54300 0.00600
H 	H 	0.94150 0.38110 0.60230 0.02100
H 	H 	0.96930 0.33740 0.55480 0.01600
C 	C 	0.92749 0.37212 0.45130 -0.34700
H 	H 	0.94610 0.36310 0.39170 0.13100
H 	H 	0.90220 0.34840 0.45970 0.12500
C 	C 	0.90511 0.41956 0.43220 0.40000
Co	Co	0.75639 0.10817 0.84478 1.19000
Co	Co	0.65434 0.06324 0.86692 1.16700
O 	O 	0.70832 0.07215 0.75680 -0.57000
O 	O 	0.74209 0.08615 0.60950 -0.48300
O 	O 	0.69737 0.94729 0.36030 -0.45500
O 	O 	0.67444 0.96495 0.20540 -0.56400
C 	C 	0.70971 0.06859 0.66160 0.46600
C 	C 	0.67076 0.04200 0.61070 -0.36900
H 	H 	0.64070 0.05890 0.62240 0.11000
H 	H 	0.66800 0.01050 0.64220 0.12800
C 	C 	0.67732 0.03557 0.49900 -0.01200
H 	H 	0.70630 0.01700 0.48660 0.04800
H 	H 	0.68130 0.06680 0.46710 0.03300
C 	C 	0.63548 0.01056 0.45260 0.02900
H 	H 	0.60630 0.02780 0.47050 0.01100
H 	H 	0.63310 0.97850 0.48130 0.02400
C 	C 	0.63870 0.00675 0.33920 -0.39900
H 	H 	0.60700 0.99900 0.31280 0.13700
H 	H 	0.64760 0.03800 0.31210 0.14400
C 	C 	0.67330 0.97064 0.30000 0.47100
O 	O 	0.64408 0.13382 0.86200 -0.48200
O 	O 	0.71558 0.16749 0.85320 -0.44900
O 	O 	0.69450 0.36024 0.75700 -0.52800
O 	O 	0.68467 0.35010 0.59550 -0.40100
C 	C 	0.67130 0.16855 0.86310 0.44000
C 	C 	0.64831 0.21599 0.87600 -0.34100
H 	H 	0.66380 0.23280 0.93200 0.12100
H 	H 	0.61480 0.21130 0.89420 0.12600
C 	C 	0.65098 0.24671 0.78200 -0.02100
H 	H 	0.68410 0.25620 0.77020 0.04600
H 	H 	0.64030 0.22830 0.72340 0.03300
C 	C 	0.62043 0.29047 0.79300 0.00500
H 	H 	0.63110 0.30850 0.85230 0.02100
H 	H 	0.58740 0.28070 0.80480 0.01600
C 	C 	0.62212 0.32251 0.70130 -0.34700
H 	H 	0.61310 0.30390 0.64170 0.13100
H 	H 	0.59840 0.34780 0.70970 0.12500
C 	C 	0.66956 0.34489 0.68220 0.40000
Co	Co	0.25639 0.60817 0.34478 1.19000
Co	Co	0.15434 0.56324 0.36692 1.16700
O 	O 	0.20832 0.57215 0.25680 -0.57000
O 	O 	0.24209 0.58615 0.10950 -0.48300
O 	O 	0.19737 0.44729 0.86030 -0.45500
O 	O 	0.17444 0.46495 0.70540 -0.56400
C 	C 	0.20971 0.56859 0.16160 0.46600
C 	C 	0.17076 0.54200 0.11070 -0.36900
H 	H 	0.14070 0.55890 0.12240 0.11000
H 	H 	0.16800 0.51050 0.14220 0.12700
C 	C 	0.17732 0.53557 0.99900 -0.01200
H 	H 	0.20630 0.51700 0.98660 0.04800
H 	H 	0.18130 0.56680 0.96710 0.03300
C 	C 	0.13548 0.51056 0.95260 0.02800
H 	H 	0.10630 0.52780 0.97050 0.01100
H 	H 	0.13310 0.47850 0.98130 0.02500
C 	C 	0.13870 0.50675 0.83920 -0.39700
H 	H 	0.10700 0.49900 0.81280 0.13600
H 	H 	0.14760 0.53800 0.81210 0.14300
C 	C 	0.17330 0.47064 0.80000 0.47100
O 	O 	0.14408 0.63382 0.36200 -0.48200
O 	O 	0.21558 0.66749 0.35320 -0.45000
O 	O 	0.19450 0.86024 0.25700 -0.52800
O 	O 	0.18467 0.85010 0.09550 -0.40000
C 	C 	0.17130 0.66855 0.36310 0.44000
C 	C 	0.14831 0.71599 0.37600 -0.34100
H 	H 	0.16380 0.73280 0.43200 0.12100
H 	H 	0.11480 0.71130 0.39420 0.12600
C 	C 	0.15098 0.74671 0.28200 -0.02100
H 	H 	0.18410 0.75620 0.27020 0.04600
H 	H 	0.14030 0.72830 0.22340 0.03400
C 	C 	0.12043 0.79047 0.29300 0.00600
H 	H 	0.13110 0.80850 0.35230 0.02100
H 	H 	0.08740 0.78070 0.30480 0.01600
C 	C 	0.12212 0.82251 0.20130 -0.34700
H 	H 	0.11310 0.80390 0.14170 0.13100
H 	H 	0.09840 0.84780 0.20970 0.12500
C 	C 	0.16956 0.84489 0.18220 0.40000
Co	Co	0.74361 0.89183 0.34478 1.19000
Co	Co	0.84566 0.93676 0.36692 1.16700
O 	O 	0.79168 0.92785 0.25680 -0.57000
O 	O 	0.75791 0.91385 0.10950 -0.48200
O 	O 	0.80263 0.05271 0.86030 -0.45500
O 	O 	0.82556 0.03505 0.70540 -0.56400
C 	C 	0.79029 0.93141 0.16160 0.46600
C 	C 	0.82924 0.95800 0.11070 -0.36800
H 	H 	0.85930 0.94110 0.12240 0.11000
H 	H 	0.83200 0.98950 0.14220 0.12700
C 	C 	0.82268 0.96443 0.99900 -0.01400
H 	H 	0.79370 0.98300 0.98660 0.04700
H 	H 	0.81870 0.93320 0.96710 0.03300
C 	C 	0.86452 0.98944 0.95260 0.02700
H 	H 	0.89370 0.97220 0.97050 0.01100
H 	H 	0.86690 0.02150 0.98130 0.02600
C 	C 	0.86130 0.99325 0.83920 -0.40100
H 	H 	0.89300 0.00100 0.81280 0.13800
H 	H 	0.85240 0.96200 0.81210 0.14400
C 	C 	0.82670 0.02936 0.80000 0.47200
O 	O 	0.85592 0.86618 0.36200 -0.48200
O 	O 	0.78442 0.83251 0.35320 -0.45000
O 	O 	0.80550 0.63976 0.25700 -0.52800
O 	O 	0.81533 0.64990 0.09550 -0.40000
C 	C 	0.82870 0.83145 0.36310 0.44000
C 	C 	0.85169 0.78401 0.37600 -0.34100
H 	H 	0.83620 0.76720 0.43200 0.12100
H 	H 	0.88520 0.78870 0.39420 0.12600
C 	C 	0.84902 0.75329 0.28200 -0.02200
H 	H 	0.81590 0.74380 0.27020 0.04600
H 	H 	0.85970 0.77170 0.22340 0.03400
C 	C 	0.87957 0.70953 0.29300 0.00600
H 	H 	0.86890 0.69150 0.35230 0.02100
H 	H 	0.91260 0.71930 0.30480 0.01600
C 	C 	0.87788 0.67749 0.20130 -0.34700
H 	H 	0.88690 0.69610 0.14170 0.13100
H 	H 	0.90160 0.65220 0.20970 0.12500
C 	C 	0.83044 0.65511 0.18220 0.40000
Co	Co	0.24361 0.39183 0.84478 1.19000
Co	Co	0.34566 0.43676 0.86692 1.16700
O 	O 	0.29168 0.42785 0.75680 -0.57000
O 	O 	0.25791 0.41385 0.60950 -0.48300
O 	O 	0.30263 0.55271 0.36030 -0.45500
O 	O 	0.32556 0.53505 0.20540 -0.56400
C 	C 	0.29029 0.43141 0.66160 0.46600
C 	C 	0.32924 0.45800 0.61070 -0.37000
H 	H 	0.35930 0.44110 0.62240 0.11000
H 	H 	0.33200 0.48950 0.64220 0.12700
C 	C 	0.32268 0.46443 0.49900 -0.01200
H 	H 	0.29370 0.48300 0.48660 0.04700
H 	H 	0.31870 0.43320 0.46710 0.03300
C 	C 	0.36452 0.48944 0.45260 0.02800
H 	H 	0.39370 0.47220 0.47050 0.01100
H 	H 	0.36690 0.52150 0.48130 0.02500
C 	C 	0.36130 0.49325 0.33920 -0.39700
H 	H 	0.39300 0.50100 0.31280 0.13600
H 	H 	0.35240 0.46200 0.31210 0.14300
C 	C 	0.32670 0.52936 0.30000 0.47100
O 	O 	0.35592 0.36618 0.86200 -0.48200
O 	O 	0.28442 0.33251 0.85320 -0.44900
O 	O 	0.30550 0.13976 0.75700 -0.52800
O 	O 	0.31533 0.14990 0.59550 -0.40100
C 	C 	0.32870 0.33145 0.86310 0.44000
C 	C 	0.35169 0.28401 0.87600 -0.34100
H 	H 	0.33620 0.26720 0.93200 0.12100
H 	H 	0.38520 0.28870 0.89420 0.12600
C 	C 	0.34902 0.25329 0.78200 -0.02100
H 	H 	0.31590 0.24380 0.77020 0.04600
H 	H 	0.35970 0.27170 0.72340 0.03300
C 	C 	0.37957 0.20953 0.79300 0.00500
H 	H 	0.36890 0.19150 0.85230 0.02100
H 	H 	0.41260 0.21930 0.80480 0.01600
C 	C 	0.37788 0.17749 0.70130 -0.34700
H 	H 	0.38690 0.19610 0.64170 0.13100
H 	H 	0.40160 0.15220 0.70970 0.12500
C 	C 	0.33044 0.15511 0.68220 0.40000
Co	Co	0.14183 0.00639 0.40522 1.19000
Co	Co	0.18676 0.90434 0.38308 1.16700
O 	O 	0.17785 0.95832 0.49320 -0.57000
O 	O 	0.16385 0.99209 0.64050 -0.48300
O 	O 	0.30271 0.94737 0.88970 -0.45500
O 	O 	0.28505 0.92444 0.04460 -0.56200
C 	C 	0.18141 0.95971 0.58840 0.46600
C 	C 	0.20800 0.92076 0.63930 -0.37000
H 	H 	0.19110 0.89070 0.62760 0.11100
H 	H 	0.23950 0.91800 0.60780 0.12700
C 	C 	0.21443 0.92732 0.75100 -0.01100
H 	H 	0.23300 0.95630 0.76340 0.04700
H 	H 	0.18320 0.93130 0.78290 0.03300
C 	C 	0.23944 0.88548 0.79740 0.02700
H 	H 	0.22220 0.85630 0.77950 0.01200
H 	H 	0.27150 0.88310 0.76870 0.02500
C 	C 	0.24325 0.88870 0.91080 -0.39600
H 	H 	0.25100 0.85700 0.93720 0.13500
H 	H 	0.21200 0.89760 0.93790 0.14200
C 	C 	0.27936 0.92330 0.95000 0.46900
O 	O 	0.11618 0.89408 0.38800 -0.48200
O 	O 	0.08251 0.96558 0.39680 -0.44900
O 	O 	0.88976 0.94450 0.49300 -0.52800
O 	O 	0.89990 0.93467 0.65450 -0.40100
C 	C 	0.08145 0.92130 0.38690 0.44000
C 	C 	0.03401 0.89831 0.37400 -0.34200
H 	H 	0.01720 0.91380 0.31800 0.12200
H 	H 	0.03870 0.86480 0.35580 0.12600
C 	C 	0.00329 0.90098 0.46800 -0.02000
H 	H 	0.99380 0.93410 0.47980 0.04600
H 	H 	0.02170 0.89030 0.52660 0.03300
C 	C 	0.95953 0.87043 0.45700 0.00400
H 	H 	0.94150 0.88110 0.39770 0.02100
H 	H 	0.96930 0.83740 0.44520 0.01600
C 	C 	0.92749 0.87212 0.54870 -0.34700
H 	H 	0.94610 0.86310 0.60830 0.13100
H 	H 	0.90220 0.84840 0.54030 0.12400
C 	C 	0.90511 0.91956 0.56780 0.39900
Co	Co	0.64183 0.50639 0.90522 1.19000
Co	Co	0.68676 0.40434 0.88308 1.16700
O 	O 	0.67785 0.45832 0.99320 -0.57000
O 	O 	0.66385 0.49209 0.14050 -0.48300
O 	O 	0.80271 0.44737 0.38970 -0.45500
O 	O 	0.78505 0.42444 0.54460 -0.56400
C 	C 	0.68141 0.45971 0.08840 0.46600
C 	C 	0.70800 0.42076 0.13930 -0.36900
H 	H 	0.69110 0.39070 0.12760 0.11000
H 	H 	0.73950 0.41800 0.10780 0.12700
C 	C 	0.71443 0.42732 0.25100 -0.01200
H 	H 	0.73300 0.45630 0.26340 0.04800
H 	H 	0.68320 0.43130 0.28290 0.03300
C 	C 	0.73944 0.38548 0.29740 0.02800
H 	H 	0.72220 0.35630 0.27950 0.01100
H 	H 	0.77150 0.38310 0.26870 0.02500
C 	C 	0.74325 0.38870 0.41080 -0.39700
H 	H 	0.75100 0.35700 0.43720 0.13600
H 	H 	0.71200 0.39760 0.43790 0.14300
C 	C 	0.77936 0.42330 0.45000 0.47100
O 	O 	0.61618 0.39408 0.88800 -0.48200
O 	O 	0.58251 0.46558 0.89680 -0.45000
O 	O 	0.38976 0.44450 0.99300 -0.52800
O 	O 	0.39990 0.43467 0.15450 -0.40100
C 	C 	0.58145 0.42130 0.88690 0.44000
C 	C 	0.53401 0.39831 0.87400 -0.34200
H 	H 	0.51720 0.41380 0.81800 0.12100
H 	H 	0.53870 0.36480 0.85580 0.12600
C 	C 	0.50329 0.40098 0.96800 -0.02000
H 	H 	0.49380 0.43410 0.97980 0.04600
H 	H 	0.52170 0.39030 0.02660 0.03300
C 	C 	0.45953 0.37043 0.95700 0.00600
H 	H 	0.44150 0.38110 0.89770 0.02100
H 	H 	0.46930 0.33740 0.94520 0.01600
C 	C 	0.42749 0.37212 0.04870 -0.34800
H 	H 	0.44610 0.36310 0.10830 0.13100
H 	H 	0.40220 0.34840 0.04030 0.12400
C 	C 	0.40511 0.41956 0.06780 0.39900
Co	Co	0.35817 0.99361 0.90522 1.18900
Co	Co	0.31324 0.09566 0.88308 1.16700
O 	O 	0.32215 0.04168 0.99320 -0.56900
O 	O 	0.33615 0.00791 0.14050 -0.48300
O 	O 	0.19729 0.05263 0.38970 -0.45500
O 	O 	0.21495 0.07556 0.54460 -0.56400
C 	C 	0.31859 0.04029 0.08840 0.46400
C 	C 	0.29200 0.07924 0.13930 -0.36800
H 	H 	0.30890 0.10930 0.12760 0.11000
H 	H 	0.26050 0.08200 0.10780 0.12700
C 	C 	0.28557 0.07268 0.25100 -0.01200
H 	H 	0.26700 0.04370 0.26340 0.04700
H 	H 	0.31680 0.06870 0.28290 0.03300
C 	C 	0.26056 0.11452 0.29740 0.02800
H 	H 	0.27780 0.14370 0.27950 0.01100
H 	H 	0.22850 0.11690 0.26870 0.02500
C 	C 	0.25675 0.11130 0.41080 -0.39700
H 	H 	0.24900 0.14300 0.43720 0.13600
H 	H 	0.28800 0.10240 0.43790 0.14300
C 	C 	0.22064 0.07670 0.45000 0.47100
O 	O 	0.38382 0.10592 0.88800 -0.48200
O 	O 	0.41749 0.03442 0.89680 -0.44900
O 	O 	0.61024 0.05550 0.99300 -0.52700
O 	O 	0.60010 0.06533 0.15450 -0.40000
C 	C 	0.41855 0.07870 0.88690 0.44000
C 	C 	0.46599 0.10169 0.87400 -0.34200
H 	H 	0.48280 0.08620 0.81800 0.12200
H 	H 	0.46130 0.13520 0.85580 0.12600
C 	C 	0.49671 0.09902 0.96800 -0.01900
H 	H 	0.50620 0.06590 0.97980 0.04600
H 	H 	0.47830 0.10970 0.02660 0.03200
C 	C 	0.54047 0.12957 0.95700 0.00500
H 	H 	0.55850 0.11890 0.89770 0.02100
H 	H 	0.53070 0.16260 0.94520 0.01600
C 	C 	0.57251 0.12788 0.04870 -0.34800
H 	H 	0.55390 0.13690 0.10830 0.13100
H 	H 	0.59780 0.15160 0.04030 0.12400
C 	C 	0.59489 0.08044 0.06780 0.39800
Co	Co	0.85817 0.49361 0.40522 1.19000
Co	Co	0.81324 0.59566 0.38308 1.16700
O 	O 	0.82215 0.54168 0.49320 -0.57000
O 	O 	0.83615 0.50791 0.64050 -0.48300
O 	O 	0.69729 0.55263 0.88970 -0.45500
O 	O 	0.71495 0.57556 0.04460 -0.56300
C 	C 	0.81859 0.54029 0.58840 0.46600
C 	C 	0.79200 0.57924 0.63930 -0.37000
H 	H 	0.80890 0.60930 0.62760 0.11000
H 	H 	0.76050 0.58200 0.60780 0.12700
C 	C 	0.78557 0.57268 0.75100 -0.01200
H 	H 	0.76700 0.54370 0.76340 0.04700
H 	H 	0.81680 0.56870 0.78290 0.03300
C 	C 	0.76056 0.61452 0.79740 0.02700
H 	H 	0.77780 0.64370 0.77950 0.01100
H 	H 	0.72850 0.61690 0.76870 0.02500
C 	C 	0.75675 0.61130 0.91080 -0.39700
H 	H 	0.74900 0.64300 0.93720 0.13600
H 	H 	0.78800 0.60240 0.93790 0.14300
C 	C 	0.72064 0.57670 0.95000 0.47000
O 	O 	0.88382 0.60592 0.38800 -0.48200
O 	O 	0.91749 0.53442 0.39680 -0.45000
O 	O 	0.11024 0.55550 0.49300 -0.52800
O 	O 	0.10010 0.56533 0.65450 -0.40100
C 	C 	0.91855 0.57870 0.38690 0.44000
C 	C 	0.96599 0.60169 0.37400 -0.34100
H 	H 	0.98280 0.58620 0.31800 0.12100
H 	H 	0.96130 0.63520 0.35580 0.12600
C 	C 	0.99671 0.59902 0.46800 -0.02200
H 	H 	0.00620 0.56590 0.47980 0.04600
H 	H 	0.97830 0.60970 0.52660 0.03300
C 	C 	0.04047 0.62957 0.45700 0.00600
H 	H 	0.05850 0.61890 0.39770 0.02100
H 	H 	0.03070 0.66260 0.44520 0.01600
C 	C 	0.07251 0.62788 0.54870 -0.34700
H 	H 	0.05390 0.63690 0.60830 0.13100
H 	H 	0.09780 0.65160 0.54030 0.12500
C 	C 	0.09489 0.58044 0.56780 0.40000
Co	Co	0.24361 0.89183 0.15522 1.19000
Co	Co	0.34566 0.93676 0.13308 1.16700
O 	O 	0.29168 0.92785 0.24320 -0.57000
O 	O 	0.25791 0.91385 0.39050 -0.48300
O 	O 	0.30263 0.05271 0.63970 -0.45500
O 	O 	0.32556 0.03505 0.79460 -0.56400
C 	C 	0.29029 0.93141 0.33840 0.46600
C 	C 	0.32924 0.95800 0.38930 -0.36900
H 	H 	0.35930 0.94110 0.37760 0.11000
H 	H 	0.33200 0.98950 0.35780 0.12800
C 	C 	0.32268 0.96443 0.50100 -0.01200
H 	H 	0.29370 0.98300 0.51340 0.04800
H 	H 	0.31870 0.93320 0.53290 0.03300
C 	C 	0.36452 0.98944 0.54740 0.02900
H 	H 	0.39370 0.97220 0.52950 0.01100
H 	H 	0.36690 0.02150 0.51870 0.02400
C 	C 	0.36130 0.99325 0.66080 -0.39900
H 	H 	0.39300 0.00100 0.68720 0.13700
H 	H 	0.35240 0.96200 0.68790 0.14400
C 	C 	0.32670 0.02936 0.70000 0.47100
O 	O 	0.35592 0.86618 0.13800 -0.48200
O 	O 	0.28442 0.83251 0.14680 -0.44900
O 	O 	0.30550 0.63976 0.24300 -0.52800
O 	O 	0.31533 0.64990 0.40450 -0.40100
C 	C 	0.32870 0.83145 0.13690 0.44000
C 	C 	0.35169 0.78401 0.12400 -0.34100
H 	H 	0.33620 0.76720 0.06800 0.12100
H 	H 	0.38520 0.78870 0.10580 0.12600
C 	C 	0.34902 0.75329 0.21800 -0.02100
H 	H 	0.31590 0.74380 0.22980 0.04600
H 	H 	0.35970 0.77170 0.27660 0.03300
C 	C 	0.37957 0.70953 0.20700 0.00500
H 	H 	0.36890 0.69150 0.14770 0.02100
H 	H 	0.41260 0.71930 0.19520 0.01600
C 	C 	0.37788 0.67749 0.29870 -0.34700
H 	H 	0.38690 0.69610 0.35830 0.13100
H 	H 	0.40160 0.65220 0.29030 0.12500
C 	C 	0.33044 0.65511 0.31780 0.40000
Co	Co	0.74361 0.39183 0.65522 1.19000
Co	Co	0.84566 0.43676 0.63308 1.16700
O 	O 	0.79168 0.42785 0.74320 -0.57000
O 	O 	0.75791 0.41385 0.89050 -0.48300
O 	O 	0.80263 0.55271 0.13970 -0.45500
O 	O 	0.82556 0.53505 0.29460 -0.56400
C 	C 	0.79029 0.43141 0.83840 0.46600
C 	C 	0.82924 0.45800 0.88930 -0.36900
H 	H 	0.85930 0.44110 0.87760 0.11000
H 	H 	0.83200 0.48950 0.85780 0.12700
C 	C 	0.82268 0.46443 0.00100 -0.01200
H 	H 	0.79370 0.48300 0.01340 0.04800
H 	H 	0.81870 0.43320 0.03290 0.03300
C 	C 	0.86452 0.48944 0.04740 0.02800
H 	H 	0.89370 0.47220 0.02950 0.01100
H 	H 	0.86690 0.52150 0.01870 0.02500
C 	C 	0.86130 0.49325 0.16080 -0.39700
H 	H 	0.89300 0.50100 0.18720 0.13600
H 	H 	0.85240 0.46200 0.18790 0.14300
C 	C 	0.82670 0.52936 0.20000 0.47100
O 	O 	0.85592 0.36618 0.63800 -0.48200
O 	O 	0.78442 0.33251 0.64680 -0.45000
O 	O 	0.80550 0.13976 0.74300 -0.52800
O 	O 	0.81533 0.14990 0.90450 -0.40000
C 	C 	0.82870 0.33145 0.63690 0.44000
C 	C 	0.85169 0.28401 0.62400 -0.34100
H 	H 	0.83620 0.26720 0.56800 0.12100
H 	H 	0.88520 0.28870 0.60580 0.12600
C 	C 	0.84902 0.25329 0.71800 -0.02100
H 	H 	0.81590 0.24380 0.72980 0.04600
H 	H 	0.85970 0.27170 0.77660 0.03400
C 	C 	0.87957 0.20953 0.70700 0.00600
H 	H 	0.86890 0.19150 0.64770 0.02100
H 	H 	0.91260 0.21930 0.69520 0.01600
C 	C 	0.87788 0.17749 0.79870 -0.34700
H 	H 	0.88690 0.19610 0.85830 0.13100
H 	H 	0.90160 0.15220 0.79030 0.12500
C 	C 	0.83044 0.15511 0.81780 0.40000
Co	Co	0.25639 0.10817 0.65522 1.19000
Co	Co	0.15434 0.06324 0.63308 1.16700
O 	O 	0.20832 0.07215 0.74320 -0.57000
O 	O 	0.24209 0.08615 0.89050 -0.48200
O 	O 	0.19737 0.94729 0.13970 -0.45500
O 	O 	0.17444 0.96495 0.29460 -0.56400
C 	C 	0.20971 0.06859 0.83840 0.46600
C 	C 	0.17076 0.04200 0.88930 -0.36800
H 	H 	0.14070 0.05890 0.87760 0.11000
H 	H 	0.16800 0.01050 0.85780 0.12700
C 	C 	0.17732 0.03557 0.00100 -0.01400
H 	H 	0.20630 0.01700 0.01340 0.04700
H 	H 	0.18130 0.06680 0.03290 0.03300
C 	C 	0.13548 0.01056 0.04740 0.02700
H 	H 	0.10630 0.02780 0.02950 0.01100
H 	H 	0.13310 0.97850 0.01870 0.02600
C 	C 	0.13870 0.00675 0.16080 -0.40100
H 	H 	0.10700 0.99900 0.18720 0.13800
H 	H 	0.14760 0.03800 0.18790 0.14400
C 	C 	0.17330 0.97064 0.20000 0.47200
O 	O 	0.14408 0.13382 0.63800 -0.48200
O 	O 	0.21558 0.16749 0.64680 -0.45000
O 	O 	0.19450 0.36024 0.74300 -0.52800
O 	O 	0.18467 0.35010 0.90450 -0.40000
C 	C 	0.17130 0.16855 0.63690 0.44000
C 	C 	0.14831 0.21599 0.62400 -0.34100
H 	H 	0.16380 0.23280 0.56800 0.12100
H 	H 	0.11480 0.21130 0.60580 0.12600
C 	C 	0.15098 0.24671 0.71800 -0.02200
H 	H 	0.18410 0.25620 0.72980 0.04600
H 	H 	0.14030 0.22830 0.77660 0.03400
C 	C 	0.12043 0.29047 0.70700 0.00600
H 	H 	0.13110 0.30850 0.64770 0.02100
H 	H 	0.08740 0.28070 0.69520 0.01600
C 	C 	0.12212 0.32251 0.79870 -0.34700
H 	H 	0.11310 0.30390 0.85830 0.13100
H 	H 	0.09840 0.34780 0.79030 0.12500
C 	C 	0.16956 0.34489 0.81780 0.40000
Co	Co	0.75639 0.60817 0.15522 1.19000
Co	Co	0.65434 0.56324 0.13308 1.16700
O 	O 	0.70832 0.57215 0.24320 -0.57000
O 	O 	0.74209 0.58615 0.39050 -0.48300
O 	O 	0.69737 0.44729 0.63970 -0.45500
O 	O 	0.67444 0.46495 0.79460 -0.56400
C 	C 	0.70971 0.56859 0.33840 0.46600
C 	C 	0.67076 0.54200 0.38930 -0.37000
H 	H 	0.64070 0.55890 0.37760 0.11000
H 	H 	0.66800 0.51050 0.35780 0.12700
C 	C 	0.67732 0.53557 0.50100 -0.01200
H 	H 	0.70630 0.51700 0.51340 0.04700
H 	H 	0.68130 0.56680 0.53290 0.03300
C 	C 	0.63548 0.51056 0.54740 0.02800
H 	H 	0.60630 0.52780 0.52950 0.01100
H 	H 	0.63310 0.47850 0.51870 0.02500
C 	C 	0.63870 0.50675 0.66080 -0.39700
H 	H 	0.60700 0.49900 0.68720 0.13600
H 	H 	0.64760 0.53800 0.68790 0.14300
C 	C 	0.67330 0.47064 0.70000 0.47100
O 	O 	0.64408 0.63382 0.13800 -0.48200
O 	O 	0.71558 0.66749 0.14680 -0.44900
O 	O 	0.69450 0.86024 0.24300 -0.52800
O 	O 	0.68467 0.85010 0.40450 -0.40100
C 	C 	0.67130 0.66855 0.13690 0.44000
C 	C 	0.64831 0.71599 0.12400 -0.34100
H 	H 	0.66380 0.73280 0.06800 0.12100
H 	H 	0.61480 0.71130 0.10580 0.12600
C 	C 	0.65098 0.74671 0.21800 -0.02100
H 	H 	0.68410 0.75620 0.22980 0.04600
H 	H 	0.64030 0.72830 0.27660 0.03300
C 	C 	0.62043 0.79047 0.20700 0.00500
H 	H 	0.63110 0.80850 0.14770 0.02100
H 	H 	0.58740 0.78070 0.19520 0.01600
C 	C 	0.62212 0.82251 0.29870 -0.34700
H 	H 	0.61310 0.80390 0.35830 0.13100
H 	H 	0.59840 0.84780 0.29030 0.12500
C 	C 	0.66956 0.84489 0.31780 0.40000
