data_crystal

_cell_length_a 17.56320
_cell_length_b 17.56320
_cell_length_c 17.56320
_cell_angle_alpha 90.00000
_cell_angle_beta  90.00000
_cell_angle_gamma 90.00000

_symmetry_space_group_name_	'P 1'
_symmetry_space_group_name_H-M	'P 1'

loop_
_symmetry_equiv_pos_as_xyz
  x,y,z

loop_
_atom_site_label
_atom_site_type_symbol
_atom_site_fract_x
_atom_site_fract_y
_atom_site_fract_z
_atom_site_charge
H 	H 	0.47780 0.46300 0.73350 -0.81900
H 	H 	0.14410 0.45970 0.49100 0.15900
H 	H 	0.18030 0.52690 0.45680 0.16600
H 	H 	0.46290 0.59780 0.79220 -0.14200
H 	H 	0.43300 0.64480 0.67550 0.21300
H 	H 	0.31860 0.58860 0.71280 0.12500
H 	H 	0.32460 0.50150 0.69210 -0.25200
H 	H 	0.31980 0.63600 0.58160 -1.25700
H 	H 	0.25710 0.57560 0.59790 -0.21800
H 	H 	0.35960 0.50620 0.56360 -0.12700
H 	H 	0.32250 0.54840 0.49530 0.50200
H 	H 	0.26870 0.43440 0.48940 -0.04600
H 	H 	0.23990 0.43740 0.57310 -0.30300
H 	H 	0.52220 0.53700 0.73350 -0.81900
H 	H 	0.85590 0.54030 0.49100 0.15800
H 	H 	0.81970 0.47310 0.45680 0.16900
H 	H 	0.53710 0.40220 0.79220 -0.14100
H 	H 	0.56700 0.35520 0.67550 0.21600
H 	H 	0.68140 0.41140 0.71280 0.12600
H 	H 	0.67540 0.49850 0.69210 -0.25300
H 	H 	0.68020 0.36400 0.58160 -1.25600
H 	H 	0.74290 0.42440 0.59790 -0.21800
H 	H 	0.64040 0.49380 0.56360 -0.12800
H 	H 	0.67750 0.45160 0.49530 0.50200
H 	H 	0.73130 0.56560 0.48940 -0.04600
H 	H 	0.76010 0.56260 0.57310 -0.30400
H 	H 	0.52220 0.46300 0.26650 -0.81800
H 	H 	0.85590 0.45970 0.50900 0.15800
H 	H 	0.81970 0.52690 0.54320 0.16900
H 	H 	0.53710 0.59780 0.20780 -0.14100
H 	H 	0.56700 0.64480 0.32450 0.21500
H 	H 	0.68140 0.58860 0.28720 0.12700
H 	H 	0.67540 0.50150 0.30790 -0.25500
H 	H 	0.68020 0.63600 0.41840 -1.25100
H 	H 	0.74290 0.57560 0.40210 -0.21700
H 	H 	0.64040 0.50620 0.43640 -0.12800
H 	H 	0.67750 0.54840 0.50470 0.50100
H 	H 	0.73130 0.43440 0.51060 -0.04600
H 	H 	0.76010 0.43740 0.42690 -0.30300
H 	H 	0.47780 0.53700 0.26650 -0.81900
H 	H 	0.14410 0.54030 0.50900 0.16000
H 	H 	0.18030 0.47310 0.54320 0.16700
H 	H 	0.46290 0.40220 0.20780 -0.14100
H 	H 	0.43300 0.35520 0.32450 0.21500
H 	H 	0.31860 0.41140 0.28720 0.12600
H 	H 	0.32460 0.49850 0.30790 -0.25200
H 	H 	0.31980 0.36400 0.41840 -1.25600
H 	H 	0.25710 0.42440 0.40210 -0.21800
H 	H 	0.35960 0.49380 0.43640 -0.12800
H 	H 	0.32250 0.45160 0.50470 0.50200
H 	H 	0.26870 0.56560 0.51060 -0.04600
H 	H 	0.23990 0.56260 0.42690 -0.30300
H 	H 	0.73350 0.47780 0.46300 -0.81800
H 	H 	0.49100 0.14410 0.45970 0.16000
H 	H 	0.45680 0.18030 0.52690 0.16700
H 	H 	0.79220 0.46290 0.59780 -0.14100
H 	H 	0.67550 0.43300 0.64480 0.21400
H 	H 	0.71280 0.31860 0.58860 0.12600
H 	H 	0.69210 0.32460 0.50150 -0.25100
H 	H 	0.58160 0.31980 0.63600 -1.25600
H 	H 	0.59790 0.25710 0.57560 -0.21800
H 	H 	0.56360 0.35960 0.50620 -0.12700
H 	H 	0.49530 0.32250 0.54840 0.50200
H 	H 	0.48940 0.26870 0.43440 -0.04600
H 	H 	0.57310 0.23990 0.43740 -0.30300
H 	H 	0.73350 0.52220 0.53700 -0.81900
H 	H 	0.49100 0.85590 0.54030 0.15800
H 	H 	0.45680 0.81970 0.47310 0.16900
H 	H 	0.79220 0.53710 0.40220 -0.14100
H 	H 	0.67550 0.56700 0.35520 0.21600
H 	H 	0.71280 0.68140 0.41140 0.12600
H 	H 	0.69210 0.67540 0.49850 -0.25300
H 	H 	0.58160 0.68020 0.36400 -1.25600
H 	H 	0.59790 0.74290 0.42440 -0.21800
H 	H 	0.56360 0.64040 0.49380 -0.12800
H 	H 	0.49530 0.67750 0.45160 0.50200
H 	H 	0.48940 0.73130 0.56560 -0.04600
H 	H 	0.57310 0.76010 0.56260 -0.30400
H 	H 	0.26650 0.52220 0.46300 -0.81800
H 	H 	0.50900 0.85590 0.45970 0.15800
H 	H 	0.54320 0.81970 0.52690 0.16900
H 	H 	0.20780 0.53710 0.59780 -0.14100
H 	H 	0.32450 0.56700 0.64480 0.21500
H 	H 	0.28720 0.68140 0.58860 0.12700
H 	H 	0.30790 0.67540 0.50150 -0.25500
H 	H 	0.41840 0.68020 0.63600 -1.25100
H 	H 	0.40210 0.74290 0.57560 -0.21700
H 	H 	0.43640 0.64040 0.50620 -0.12800
H 	H 	0.50470 0.67750 0.54840 0.50100
H 	H 	0.51060 0.73130 0.43440 -0.04600
H 	H 	0.42690 0.76010 0.43740 -0.30300
H 	H 	0.26650 0.47780 0.53700 -0.81900
H 	H 	0.50900 0.14410 0.54030 0.16000
H 	H 	0.54320 0.18030 0.47310 0.16700
H 	H 	0.20780 0.46290 0.40220 -0.14100
H 	H 	0.32450 0.43300 0.35520 0.21500
H 	H 	0.28720 0.31860 0.41140 0.12600
H 	H 	0.30790 0.32460 0.49850 -0.25200
H 	H 	0.41840 0.31980 0.36400 -1.25600
H 	H 	0.40210 0.25710 0.42440 -0.21800
H 	H 	0.43640 0.35960 0.49380 -0.12800
H 	H 	0.50470 0.32250 0.45160 0.50200
H 	H 	0.51060 0.26870 0.56560 -0.04600
H 	H 	0.42690 0.23990 0.56260 -0.30300
H 	H 	0.46300 0.73350 0.47780 -0.81800
H 	H 	0.45970 0.49100 0.14410 0.16000
H 	H 	0.52690 0.45680 0.18030 0.16700
H 	H 	0.59780 0.79220 0.46290 -0.14100
H 	H 	0.64480 0.67550 0.43300 0.21400
H 	H 	0.58860 0.71280 0.31860 0.12600
H 	H 	0.50150 0.69210 0.32460 -0.25100
H 	H 	0.63600 0.58160 0.31980 -1.25600
H 	H 	0.57560 0.59790 0.25710 -0.21800
H 	H 	0.50620 0.56360 0.35960 -0.12700
H 	H 	0.54840 0.49530 0.32250 0.50200
H 	H 	0.43440 0.48940 0.26870 -0.04600
H 	H 	0.43740 0.57310 0.23990 -0.30300
H 	H 	0.53700 0.73350 0.52220 -0.81900
H 	H 	0.54030 0.49100 0.85590 0.15800
H 	H 	0.47310 0.45680 0.81970 0.16900
H 	H 	0.40220 0.79220 0.53710 -0.14100
H 	H 	0.35520 0.67550 0.56700 0.21600
H 	H 	0.41140 0.71280 0.68140 0.12600
H 	H 	0.49850 0.69210 0.67540 -0.25300
H 	H 	0.36400 0.58160 0.68020 -1.25600
H 	H 	0.42440 0.59790 0.74290 -0.21800
H 	H 	0.49380 0.56360 0.64040 -0.12800
H 	H 	0.45160 0.49530 0.67750 0.50200
H 	H 	0.56560 0.48940 0.73130 -0.04600
H 	H 	0.56260 0.57310 0.76010 -0.30400
H 	H 	0.46300 0.26650 0.52220 -0.81800
H 	H 	0.45970 0.50900 0.85590 0.15800
H 	H 	0.52690 0.54320 0.81970 0.16900
H 	H 	0.59780 0.20780 0.53710 -0.14100
H 	H 	0.64480 0.32450 0.56700 0.21500
H 	H 	0.58860 0.28720 0.68140 0.12700
H 	H 	0.50150 0.30790 0.67540 -0.25500
H 	H 	0.63600 0.41840 0.68020 -1.25100
H 	H 	0.57560 0.40210 0.74290 -0.21700
H 	H 	0.50620 0.43640 0.64040 -0.12800
H 	H 	0.54840 0.50470 0.67750 0.50100
H 	H 	0.43440 0.51060 0.73130 -0.04600
H 	H 	0.43740 0.42690 0.76010 -0.30300
H 	H 	0.53700 0.26650 0.47780 -0.81900
H 	H 	0.54030 0.50900 0.14410 0.16000
H 	H 	0.47310 0.54320 0.18030 0.16700
H 	H 	0.40220 0.20780 0.46290 -0.14100
H 	H 	0.35520 0.32450 0.43300 0.21500
H 	H 	0.41140 0.28720 0.31860 0.12600
H 	H 	0.49850 0.30790 0.32460 -0.25200
H 	H 	0.36400 0.41840 0.31980 -1.25600
H 	H 	0.42440 0.40210 0.25710 -0.21800
H 	H 	0.49380 0.43640 0.35960 -0.12800
H 	H 	0.45160 0.50470 0.32250 0.50200
H 	H 	0.56560 0.51060 0.26870 -0.04600
H 	H 	0.56260 0.42690 0.23990 -0.30300
H 	H 	0.46300 0.47780 0.73350 -0.81800
H 	H 	0.45970 0.14410 0.49100 0.16000
H 	H 	0.52690 0.18030 0.45680 0.16700
H 	H 	0.59780 0.46290 0.79220 -0.14100
H 	H 	0.64480 0.43300 0.67550 0.21400
H 	H 	0.58860 0.31860 0.71280 0.12600
H 	H 	0.50150 0.32460 0.69210 -0.25100
H 	H 	0.63600 0.31980 0.58160 -1.25600
H 	H 	0.57560 0.25710 0.59790 -0.21800
H 	H 	0.50620 0.35960 0.56360 -0.12700
H 	H 	0.54840 0.32250 0.49530 0.50200
H 	H 	0.43440 0.26870 0.48940 -0.04600
H 	H 	0.43740 0.23990 0.57310 -0.30300
H 	H 	0.53700 0.52220 0.73350 -0.81900
H 	H 	0.54030 0.85590 0.49100 0.15800
H 	H 	0.47310 0.81970 0.45680 0.16900
H 	H 	0.40220 0.53710 0.79220 -0.14100
H 	H 	0.35520 0.56700 0.67550 0.21600
H 	H 	0.41140 0.68140 0.71280 0.12600
H 	H 	0.49850 0.67540 0.69210 -0.25300
H 	H 	0.36400 0.68020 0.58160 -1.25600
H 	H 	0.42440 0.74290 0.59790 -0.21800
H 	H 	0.49380 0.64040 0.56360 -0.12800
H 	H 	0.45160 0.67750 0.49530 0.50200
H 	H 	0.56560 0.73130 0.48940 -0.04600
H 	H 	0.56260 0.76010 0.57310 -0.30400
H 	H 	0.46300 0.52220 0.26650 -0.81800
H 	H 	0.45970 0.85590 0.50900 0.15800
H 	H 	0.52690 0.81970 0.54320 0.16900
H 	H 	0.59780 0.53710 0.20780 -0.14100
H 	H 	0.64480 0.56700 0.32450 0.21500
H 	H 	0.58860 0.68140 0.28720 0.12700
H 	H 	0.50150 0.67540 0.30790 -0.25500
H 	H 	0.63600 0.68020 0.41840 -1.25100
H 	H 	0.57560 0.74290 0.40210 -0.21700
H 	H 	0.50620 0.64040 0.43640 -0.12800
H 	H 	0.54840 0.67750 0.50470 0.50100
H 	H 	0.43440 0.73130 0.51060 -0.04600
H 	H 	0.43740 0.76010 0.42690 -0.30300
H 	H 	0.53700 0.47780 0.26650 -0.81900
H 	H 	0.54030 0.14410 0.50900 0.16000
H 	H 	0.47310 0.18030 0.54320 0.16700
H 	H 	0.40220 0.46290 0.20780 -0.14100
H 	H 	0.35520 0.43300 0.32450 0.21500
H 	H 	0.41140 0.31860 0.28720 0.12600
H 	H 	0.49850 0.32460 0.30790 -0.25200
H 	H 	0.36400 0.31980 0.41840 -1.25600
H 	H 	0.42440 0.25710 0.40210 -0.21800
H 	H 	0.49380 0.35960 0.43640 -0.12800
H 	H 	0.45160 0.32250 0.50470 0.50200
H 	H 	0.56560 0.26870 0.51060 -0.04600
H 	H 	0.56260 0.23990 0.42690 -0.30300
H 	H 	0.47780 0.73350 0.46300 -0.81800
H 	H 	0.14410 0.49100 0.45970 0.16000
H 	H 	0.18030 0.45680 0.52690 0.16700
H 	H 	0.46290 0.79220 0.59780 -0.14100
H 	H 	0.43300 0.67550 0.64480 0.21400
H 	H 	0.31860 0.71280 0.58860 0.12600
H 	H 	0.32460 0.69210 0.50150 -0.25100
H 	H 	0.31980 0.58160 0.63600 -1.25600
H 	H 	0.25710 0.59790 0.57560 -0.21800
H 	H 	0.35960 0.56360 0.50620 -0.12700
H 	H 	0.32250 0.49530 0.54840 0.50200
H 	H 	0.26870 0.48940 0.43440 -0.04600
H 	H 	0.23990 0.57310 0.43740 -0.30300
H 	H 	0.52220 0.73350 0.53700 -0.81900
H 	H 	0.85590 0.49100 0.54030 0.15800
H 	H 	0.81970 0.45680 0.47310 0.16900
H 	H 	0.53710 0.79220 0.40220 -0.14100
H 	H 	0.56700 0.67550 0.35520 0.21600
H 	H 	0.68140 0.71280 0.41140 0.12600
H 	H 	0.67540 0.69210 0.49850 -0.25300
H 	H 	0.68020 0.58160 0.36400 -1.25600
H 	H 	0.74290 0.59790 0.42440 -0.21800
H 	H 	0.64040 0.56360 0.49380 -0.12800
H 	H 	0.67750 0.49530 0.45160 0.50200
H 	H 	0.73130 0.48940 0.56560 -0.04600
H 	H 	0.76010 0.57310 0.56260 -0.30400
H 	H 	0.52220 0.26650 0.46300 -0.81800
H 	H 	0.85590 0.50900 0.45970 0.15800
H 	H 	0.81970 0.54320 0.52690 0.16900
H 	H 	0.53710 0.20780 0.59780 -0.14100
H 	H 	0.56700 0.32450 0.64480 0.21500
H 	H 	0.68140 0.28720 0.58860 0.12700
H 	H 	0.67540 0.30790 0.50150 -0.25500
H 	H 	0.68020 0.41840 0.63600 -1.25100
H 	H 	0.74290 0.40210 0.57560 -0.21700
H 	H 	0.64040 0.43640 0.50620 -0.12800
H 	H 	0.67750 0.50470 0.54840 0.50100
H 	H 	0.73130 0.51060 0.43440 -0.04600
H 	H 	0.76010 0.42690 0.43740 -0.30300
H 	H 	0.47780 0.26650 0.53700 -0.81900
H 	H 	0.14410 0.50900 0.54030 0.16000
H 	H 	0.18030 0.54320 0.47310 0.16700
H 	H 	0.46290 0.20780 0.40220 -0.14100
H 	H 	0.43300 0.32450 0.35520 0.21500
H 	H 	0.31860 0.28720 0.41140 0.12600
H 	H 	0.32460 0.30790 0.49850 -0.25200
H 	H 	0.31980 0.41840 0.36400 -1.25600
H 	H 	0.25710 0.40210 0.42440 -0.21800
H 	H 	0.35960 0.43640 0.49380 -0.12800
H 	H 	0.32250 0.50470 0.45160 0.50200
H 	H 	0.26870 0.51060 0.56560 -0.04600
H 	H 	0.23990 0.42690 0.56260 -0.30300
H 	H 	0.73350 0.46300 0.47780 -0.81800
H 	H 	0.49100 0.45970 0.14410 0.16000
H 	H 	0.45680 0.52690 0.18030 0.16700
H 	H 	0.79220 0.59780 0.46290 -0.14100
H 	H 	0.67550 0.64480 0.43300 0.21400
H 	H 	0.71280 0.58860 0.31860 0.12600
H 	H 	0.69210 0.50150 0.32460 -0.25100
H 	H 	0.58160 0.63600 0.31980 -1.25600
H 	H 	0.59790 0.57560 0.25710 -0.21800
H 	H 	0.56360 0.50620 0.35960 -0.12700
H 	H 	0.49530 0.54840 0.32250 0.50200
H 	H 	0.48940 0.43440 0.26870 -0.04600
H 	H 	0.57310 0.43740 0.23990 -0.30300
H 	H 	0.73350 0.53700 0.52220 -0.81900
H 	H 	0.49100 0.54030 0.85590 0.15800
H 	H 	0.45680 0.47310 0.81970 0.16900
H 	H 	0.79220 0.40220 0.53710 -0.14100
H 	H 	0.67550 0.35520 0.56700 0.21600
H 	H 	0.71280 0.41140 0.68140 0.12600
H 	H 	0.69210 0.49850 0.67540 -0.25300
H 	H 	0.58160 0.36400 0.68020 -1.25600
H 	H 	0.59790 0.42440 0.74290 -0.21800
H 	H 	0.56360 0.49380 0.64040 -0.12800
H 	H 	0.49530 0.45160 0.67750 0.50200
H 	H 	0.48940 0.56560 0.73130 -0.04600
H 	H 	0.57310 0.56260 0.76010 -0.30400
H 	H 	0.26650 0.46300 0.52220 -0.81800
H 	H 	0.50900 0.45970 0.85590 0.15800
H 	H 	0.54320 0.52690 0.81970 0.16900
H 	H 	0.20780 0.59780 0.53710 -0.14100
H 	H 	0.32450 0.64480 0.56700 0.21500
H 	H 	0.28720 0.58860 0.68140 0.12700
H 	H 	0.30790 0.50150 0.67540 -0.25500
H 	H 	0.41840 0.63600 0.68020 -1.25100
H 	H 	0.40210 0.57560 0.74290 -0.21700
H 	H 	0.43640 0.50620 0.64040 -0.12800
H 	H 	0.50470 0.54840 0.67750 0.50100
H 	H 	0.51060 0.43440 0.73130 -0.04600
H 	H 	0.42690 0.43740 0.76010 -0.30300
H 	H 	0.26650 0.53700 0.47780 -0.81900
H 	H 	0.50900 0.54030 0.14410 0.16000
H 	H 	0.54320 0.47310 0.18030 0.16700
H 	H 	0.20780 0.40220 0.46290 -0.14100
H 	H 	0.32450 0.35520 0.43300 0.21500
H 	H 	0.28720 0.41140 0.31860 0.12600
H 	H 	0.30790 0.49850 0.32460 -0.25200
H 	H 	0.41840 0.36400 0.31980 -1.25600
H 	H 	0.40210 0.42440 0.25710 -0.21800
H 	H 	0.43640 0.49380 0.35960 -0.12800
H 	H 	0.50470 0.45160 0.32250 0.50200
H 	H 	0.51060 0.56560 0.26870 -0.04600
H 	H 	0.42690 0.56260 0.23990 -0.30300
O 	O 	0.37010 0.62990 0.62990 0.49300
O 	O 	0.62990 0.37010 0.62990 0.49300
O 	O 	0.62990 0.62990 0.37010 0.49300
O 	O 	0.37010 0.37010 0.37010 0.49400
H 	H 	0.52030 0.47970 0.80360 -0.07900
C 	C 	0.43970 0.56030 0.76240 0.67200
C 	C 	0.41840 0.58160 0.68000 0.79700
H 	H 	0.43780 0.56220 0.63650 -0.30800
H 	H 	0.47970 0.52030 0.80360 -0.07900
C 	C 	0.56030 0.43970 0.76240 0.67200
C 	C 	0.58160 0.41840 0.68000 0.79700
H 	H 	0.56220 0.43780 0.63650 -0.30800
H 	H 	0.47970 0.47970 0.19640 -0.07800
C 	C 	0.56030 0.56030 0.23760 0.67200
C 	C 	0.58160 0.58160 0.32000 0.79900
H 	H 	0.56220 0.56220 0.36350 -0.30900
H 	H 	0.52030 0.52030 0.19640 -0.07800
C 	C 	0.43970 0.43970 0.23760 0.67200
C 	C 	0.41840 0.41840 0.32000 0.79800
H 	H 	0.43780 0.43780 0.36350 -0.30900
H 	H 	0.80360 0.52030 0.47970 -0.07900
C 	C 	0.76240 0.43970 0.56030 0.67200
C 	C 	0.68000 0.41840 0.58160 0.79700
H 	H 	0.63650 0.43780 0.56220 -0.30800
H 	H 	0.80360 0.47970 0.52030 -0.07900
C 	C 	0.76240 0.56030 0.43970 0.67200
C 	C 	0.68000 0.58160 0.41840 0.79700
H 	H 	0.63650 0.56220 0.43780 -0.30800
H 	H 	0.19640 0.47970 0.47970 -0.07800
C 	C 	0.23760 0.56030 0.56030 0.67200
C 	C 	0.32000 0.58160 0.58160 0.79900
H 	H 	0.36350 0.56220 0.56220 -0.30900
H 	H 	0.19640 0.52030 0.52030 -0.07800
C 	C 	0.23760 0.43970 0.43970 0.67200
C 	C 	0.32000 0.41840 0.41840 0.79800
H 	H 	0.36350 0.43780 0.43780 -0.30900
H 	H 	0.47970 0.80360 0.52030 -0.07900
C 	C 	0.56030 0.76240 0.43970 0.67200
C 	C 	0.58160 0.68000 0.41840 0.79700
H 	H 	0.56220 0.63650 0.43780 -0.30800
H 	H 	0.52030 0.80360 0.47970 -0.07900
C 	C 	0.43970 0.76240 0.56030 0.67200
C 	C 	0.41840 0.68000 0.58160 0.79700
H 	H 	0.43780 0.63650 0.56220 -0.30800
H 	H 	0.47970 0.19640 0.47970 -0.07800
C 	C 	0.56030 0.23760 0.56030 0.67200
C 	C 	0.58160 0.32000 0.58160 0.79900
H 	H 	0.56220 0.36350 0.56220 -0.30900
H 	H 	0.52030 0.19640 0.52030 -0.07800
C 	C 	0.43970 0.23760 0.43970 0.67200
C 	C 	0.41840 0.32000 0.41840 0.79800
H 	H 	0.43780 0.36350 0.43780 -0.30900
C 	C 	0.33900 0.55100 0.66100 1.63400
C 	C 	0.66100 0.44900 0.66100 1.62800
C 	C 	0.66100 0.55100 0.33900 1.63400
C 	C 	0.33900 0.44900 0.33900 1.63300
C 	C 	0.66100 0.33900 0.55100 1.63400
C 	C 	0.66100 0.66100 0.44900 1.62800
C 	C 	0.33900 0.66100 0.55100 1.63400
C 	C 	0.33900 0.33900 0.44900 1.63300
C 	C 	0.55100 0.66100 0.33900 1.63400
C 	C 	0.44900 0.66100 0.66100 1.62800
C 	C 	0.55100 0.33900 0.66100 1.63400
C 	C 	0.44900 0.33900 0.33900 1.63300
N 	N 	0.50000 0.50000 0.76100 0.43300
O 	O 	0.50000 0.50000 0.78280 1.02500
N 	N 	0.50000 0.50000 0.23900 0.43200
O 	O 	0.50000 0.50000 0.21720 1.02600
N 	N 	0.76100 0.50000 0.50000 0.43300
O 	O 	0.78280 0.50000 0.50000 1.02500
N 	N 	0.23900 0.50000 0.50000 0.43200
O 	O 	0.21720 0.50000 0.50000 1.02600
N 	N 	0.50000 0.76100 0.50000 0.43300
O 	O 	0.50000 0.78280 0.50000 1.02500
N 	N 	0.50000 0.23900 0.50000 0.43200
O 	O 	0.50000 0.21720 0.50000 1.02600
N 	N 	0.17400 0.50000 0.50000 -1.33800
N 	N 	0.82600 0.50000 0.50000 -1.34200
N 	N 	0.50000 0.17400 0.50000 -1.33800
N 	N 	0.50000 0.82600 0.50000 -1.34200
N 	N 	0.50000 0.50000 0.17400 -1.33800
N 	N 	0.50000 0.50000 0.82600 -1.34200
H 	H 	0.15310 0.52970 0.52970 0.12300
C 	C 	0.31100 0.58450 0.58450 0.50600
C 	C 	0.31200 0.52280 0.52280 -1.33800
H 	H 	0.84690 0.47030 0.52970 0.13300
C 	C 	0.68900 0.41550 0.58450 0.50500
C 	C 	0.68800 0.47720 0.52280 -1.33700
H 	H 	0.84690 0.52970 0.47030 0.13300
C 	C 	0.68900 0.58450 0.41550 0.50500
C 	C 	0.68800 0.52280 0.47720 -1.33700
H 	H 	0.15310 0.47030 0.47030 0.12300
C 	C 	0.31100 0.41550 0.41550 0.50600
C 	C 	0.31200 0.47720 0.47720 -1.33800
H 	H 	0.52970 0.15310 0.52970 0.12300
C 	C 	0.58450 0.31100 0.58450 0.50600
C 	C 	0.52280 0.31200 0.52280 -1.33800
H 	H 	0.52970 0.84690 0.47030 0.13300
C 	C 	0.58450 0.68900 0.41550 0.50500
C 	C 	0.52280 0.68800 0.47720 -1.33700
H 	H 	0.47030 0.84690 0.52970 0.13300
C 	C 	0.41550 0.68900 0.58450 0.50500
C 	C 	0.47720 0.68800 0.52280 -1.33700
H 	H 	0.47030 0.15310 0.47030 0.12300
C 	C 	0.41550 0.31100 0.41550 0.50600
C 	C 	0.47720 0.31200 0.47720 -1.33800
H 	H 	0.52970 0.52970 0.15310 0.12300
C 	C 	0.58450 0.58450 0.31100 0.50600
C 	C 	0.52280 0.52280 0.31200 -1.33800
H 	H 	0.47030 0.52970 0.84690 0.13300
C 	C 	0.41550 0.58450 0.68900 0.50500
C 	C 	0.47720 0.52280 0.68800 -1.33700
H 	H 	0.52970 0.47030 0.84690 0.13300
C 	C 	0.58450 0.41550 0.68900 0.50500
C 	C 	0.52280 0.47720 0.68800 -1.33700
H 	H 	0.47030 0.47030 0.15310 0.12300
C 	C 	0.41550 0.41550 0.31100 0.50600
C 	C 	0.47720 0.47720 0.31200 -1.33800
C 	C 	0.24600 0.46650 0.53350 -0.47100
C 	C 	0.75400 0.53350 0.53350 -0.47000
C 	C 	0.75400 0.46650 0.46650 -0.46900
C 	C 	0.24600 0.53350 0.46650 -0.47100
C 	C 	0.53350 0.24600 0.46650 -0.47100
C 	C 	0.53350 0.75400 0.53350 -0.47000
C 	C 	0.46650 0.75400 0.46650 -0.46900
C 	C 	0.46650 0.24600 0.53350 -0.47100
C 	C 	0.46650 0.53350 0.24600 -0.47100
C 	C 	0.53350 0.53350 0.75400 -0.47000
C 	C 	0.46650 0.46650 0.75400 -0.46900
C 	C 	0.53350 0.46650 0.24600 -0.47100
O 	O 	0.45460 0.45460 0.72500 2.51000
O 	O 	0.54540 0.54540 0.72500 2.51100
O 	O 	0.54540 0.45460 0.27500 2.51200
O 	O 	0.45460 0.54540 0.27500 2.51200
O 	O 	0.72500 0.45460 0.45460 2.51000
O 	O 	0.72500 0.54540 0.54540 2.51100
O 	O 	0.27500 0.54540 0.45460 2.51200
O 	O 	0.27500 0.45460 0.54540 2.51200
O 	O 	0.45460 0.72500 0.45460 2.51000
O 	O 	0.54540 0.72500 0.54540 2.51100
O 	O 	0.45460 0.27500 0.54540 2.51200
O 	O 	0.54540 0.27500 0.45460 2.51200
Al	Al	0.31801 0.92304 0.56191 2.39400
O 	O 	0.25388 0.95530 0.64490 -0.61100
O 	O 	0.48010 0.10760 0.62020 -0.67300
O 	O 	0.24810 0.84880 0.53710 -0.59600
Al	Al	0.68199 0.07696 0.56191 2.39600
O 	O 	0.74612 0.04470 0.64490 -0.58300
O 	O 	0.51990 0.89240 0.62020 -0.67500
O 	O 	0.75190 0.15120 0.53710 -0.58400
Al	Al	0.68199 0.92304 0.43809 2.39400
O 	O 	0.74612 0.95530 0.35510 -0.61900
O 	O 	0.51990 0.10760 0.37980 -0.67200
O 	O 	0.75190 0.84880 0.46290 -0.60600
Al	Al	0.31801 0.07696 0.43809 2.39600
O 	O 	0.25388 0.04470 0.35510 -0.57100
O 	O 	0.48010 0.89240 0.37980 -0.67300
O 	O 	0.24810 0.15120 0.46290 -0.57600
Al	Al	0.56191 0.31801 0.92304 2.39400
O 	O 	0.64490 0.25388 0.95530 -0.61100
O 	O 	0.62020 0.48010 0.10760 -0.67300
O 	O 	0.53710 0.24810 0.84880 -0.59600
Al	Al	0.56191 0.68199 0.07696 2.39600
O 	O 	0.64490 0.74612 0.04470 -0.58300
O 	O 	0.62020 0.51990 0.89240 -0.67500
O 	O 	0.53710 0.75190 0.15120 -0.58400
Al	Al	0.43809 0.68199 0.92304 2.39400
O 	O 	0.35510 0.74612 0.95530 -0.61900
O 	O 	0.37980 0.51990 0.10760 -0.67200
O 	O 	0.46290 0.75190 0.84880 -0.60600
Al	Al	0.43809 0.31801 0.07696 2.39600
O 	O 	0.35510 0.25388 0.04470 -0.57100
O 	O 	0.37980 0.48010 0.89240 -0.67300
O 	O 	0.46290 0.24810 0.15120 -0.57600
Al	Al	0.92304 0.56191 0.31801 2.39400
O 	O 	0.95530 0.64490 0.25388 -0.61100
O 	O 	0.10760 0.62020 0.48010 -0.67300
O 	O 	0.84880 0.53710 0.24810 -0.59600
Al	Al	0.07696 0.56191 0.68199 2.39600
O 	O 	0.04470 0.64490 0.74612 -0.58300
O 	O 	0.89240 0.62020 0.51990 -0.67500
O 	O 	0.15120 0.53710 0.75190 -0.58400
Al	Al	0.92304 0.43809 0.68199 2.39400
O 	O 	0.95530 0.35510 0.74612 -0.61900
O 	O 	0.10760 0.37980 0.51990 -0.67200
O 	O 	0.84880 0.46290 0.75190 -0.60600
Al	Al	0.07696 0.43809 0.31801 2.39600
O 	O 	0.04470 0.35510 0.25388 -0.57100
O 	O 	0.89240 0.37980 0.48010 -0.67300
O 	O 	0.15120 0.46290 0.24810 -0.57600
Al	Al	0.92304 0.31801 0.56191 2.39400
O 	O 	0.95530 0.25388 0.64490 -0.61100
O 	O 	0.10760 0.48010 0.62020 -0.67300
O 	O 	0.84880 0.24810 0.53710 -0.59600
Al	Al	0.07696 0.68199 0.56191 2.39600
O 	O 	0.04470 0.74612 0.64490 -0.58300
O 	O 	0.89240 0.51990 0.62020 -0.67500
O 	O 	0.15120 0.75190 0.53710 -0.58400
Al	Al	0.92304 0.68199 0.43809 2.39400
O 	O 	0.95530 0.74612 0.35510 -0.61900
O 	O 	0.10760 0.51990 0.37980 -0.67200
O 	O 	0.84880 0.75190 0.46290 -0.60600
Al	Al	0.07696 0.31801 0.43809 2.39600
O 	O 	0.04470 0.25388 0.35510 -0.57100
O 	O 	0.89240 0.48010 0.37980 -0.67300
O 	O 	0.15120 0.24810 0.46290 -0.57600
Al	Al	0.31801 0.56191 0.92304 2.39400
O 	O 	0.25388 0.64490 0.95530 -0.61100
O 	O 	0.48010 0.62020 0.10760 -0.67300
O 	O 	0.24810 0.53710 0.84880 -0.59600
Al	Al	0.68199 0.56191 0.07696 2.39600
O 	O 	0.74612 0.64490 0.04470 -0.58300
O 	O 	0.51990 0.62020 0.89240 -0.67500
O 	O 	0.75190 0.53710 0.15120 -0.58400
Al	Al	0.68199 0.43809 0.92304 2.39400
O 	O 	0.74612 0.35510 0.95530 -0.61900
O 	O 	0.51990 0.37980 0.10760 -0.67200
O 	O 	0.75190 0.46290 0.84880 -0.60600
Al	Al	0.31801 0.43809 0.07696 2.39600
O 	O 	0.25388 0.35510 0.04470 -0.57100
O 	O 	0.48010 0.37980 0.89240 -0.67300
O 	O 	0.24810 0.46290 0.15120 -0.57600
Al	Al	0.56191 0.92304 0.31801 2.39400
O 	O 	0.64490 0.95530 0.25388 -0.61100
O 	O 	0.62020 0.10760 0.48010 -0.67300
O 	O 	0.53710 0.84880 0.24810 -0.59600
Al	Al	0.56191 0.07696 0.68199 2.39600
O 	O 	0.64490 0.04470 0.74612 -0.58300
O 	O 	0.62020 0.89240 0.51990 -0.67500
O 	O 	0.53710 0.15120 0.75190 -0.58400
Al	Al	0.43809 0.92304 0.68199 2.39400
O 	O 	0.35510 0.95530 0.74612 -0.61900
O 	O 	0.37980 0.10760 0.51990 -0.67200
O 	O 	0.46290 0.84880 0.75190 -0.60600
Al	Al	0.43809 0.07696 0.31801 2.39600
O 	O 	0.35510 0.04470 0.25388 -0.57100
O 	O 	0.37980 0.89240 0.48010 -0.67300
O 	O 	0.46290 0.15120 0.24810 -0.57600
Al	Al	0.23632 0.76368 0.76368 2.39400
Al	Al	0.76368 0.23632 0.76368 2.39400
Al	Al	0.76368 0.76368 0.23632 2.39400
Al	Al	0.23632 0.23632 0.23632 2.39400
P 	P 	0.19518 0.80482 0.58967 0.54800
H 	H 	0.14810 0.85190 0.62130 -0.04700
O 	O 	0.23720 0.76280 0.65380 -0.57500
P 	P 	0.80482 0.19518 0.58967 0.54800
H 	H 	0.85190 0.14810 0.62130 -0.04700
O 	O 	0.76280 0.23720 0.65380 -0.57500
P 	P 	0.80482 0.80482 0.41033 0.54900
H 	H 	0.85190 0.85190 0.37870 -0.06300
O 	O 	0.76280 0.76280 0.34620 -0.57400
P 	P 	0.19518 0.19518 0.41033 0.54600
H 	H 	0.14810 0.14810 0.37870 -0.02700
O 	O 	0.23720 0.23720 0.34620 -0.57600
P 	P 	0.58967 0.19518 0.80482 0.54800
H 	H 	0.62130 0.14810 0.85190 -0.04700
O 	O 	0.65380 0.23720 0.76280 -0.57500
P 	P 	0.58967 0.80482 0.19518 0.54800
H 	H 	0.62130 0.85190 0.14810 -0.04700
O 	O 	0.65380 0.76280 0.23720 -0.57500
P 	P 	0.41033 0.80482 0.80482 0.54900
H 	H 	0.37870 0.85190 0.85190 -0.06300
O 	O 	0.34620 0.76280 0.76280 -0.57400
P 	P 	0.41033 0.19518 0.19518 0.54600
H 	H 	0.37870 0.14810 0.14810 -0.02700
O 	O 	0.34620 0.23720 0.23720 -0.57600
P 	P 	0.80482 0.58967 0.19518 0.54800
H 	H 	0.85190 0.62130 0.14810 -0.04700
O 	O 	0.76280 0.65380 0.23720 -0.57500
P 	P 	0.19518 0.58967 0.80482 0.54800
H 	H 	0.14810 0.62130 0.85190 -0.04700
O 	O 	0.23720 0.65380 0.76280 -0.57500
P 	P 	0.80482 0.41033 0.80482 0.54900
H 	H 	0.85190 0.37870 0.85190 -0.06300
O 	O 	0.76280 0.34620 0.76280 -0.57400
P 	P 	0.19518 0.41033 0.19518 0.54600
H 	H 	0.14810 0.37870 0.14810 -0.02700
O 	O 	0.23720 0.34620 0.23720 -0.57600
P 	P 	0.26979 0.94465 0.73021 0.47200
H 	H 	0.23540 0.00120 0.76460 0.05900
P 	P 	0.40229 0.07897 0.59771 0.54400
H 	H 	0.35310 0.10450 0.64690 -0.02200
P 	P 	0.43790 0.05930 0.56210 0.12900
H 	H 	0.48600 0.03120 0.51400 0.00500
O 	O 	0.39825 0.99090 0.60175 -0.98600
O 	O 	0.37390 0.85930 0.62610 -0.85500
O 	O 	0.23700 0.87150 0.76300 -0.60200
P 	P 	0.73021 0.05535 0.73021 0.58800
H 	H 	0.76460 0.99880 0.76460 -0.08200
P 	P 	0.59771 0.92103 0.59771 0.48700
H 	H 	0.64690 0.89550 0.64690 -0.05800
P 	P 	0.56210 0.94070 0.56210 0.05400
H 	H 	0.51400 0.96880 0.51400 -0.03300
O 	O 	0.60175 0.00910 0.60175 -0.86200
O 	O 	0.62610 0.14070 0.62610 -0.85600
O 	O 	0.76300 0.12850 0.76300 -0.60700
P 	P 	0.73021 0.94465 0.26979 0.47200
H 	H 	0.76460 0.00120 0.23540 0.05900
P 	P 	0.59771 0.07897 0.40229 0.54400
H 	H 	0.64690 0.10450 0.35310 -0.02200
P 	P 	0.56210 0.05930 0.43790 0.12900
H 	H 	0.51400 0.03120 0.48600 0.00500
O 	O 	0.60175 0.99090 0.39825 -0.98600
O 	O 	0.62610 0.85930 0.37390 -0.85500
O 	O 	0.76300 0.87150 0.23700 -0.60200
P 	P 	0.26979 0.05535 0.26979 0.59000
H 	H 	0.23540 0.99880 0.23540 -0.05200
P 	P 	0.40229 0.92103 0.40229 0.48900
H 	H 	0.35310 0.89550 0.35310 -0.05000
P 	P 	0.43790 0.94070 0.43790 0.05200
H 	H 	0.48600 0.96880 0.48600 -0.03200
O 	O 	0.39825 0.00910 0.39825 -0.86100
O 	O 	0.37390 0.14070 0.37390 -0.85700
O 	O 	0.23700 0.12850 0.23700 -0.58400
P 	P 	0.73021 0.26979 0.94465 0.47200
H 	H 	0.76460 0.23540 0.00120 0.05900
P 	P 	0.59771 0.40229 0.07897 0.54400
H 	H 	0.64690 0.35310 0.10450 -0.02200
P 	P 	0.56210 0.43790 0.05930 0.12900
H 	H 	0.51400 0.48600 0.03120 0.00500
O 	O 	0.60175 0.39825 0.99090 -0.98600
O 	O 	0.62610 0.37390 0.85930 -0.85500
O 	O 	0.76300 0.23700 0.87150 -0.60200
P 	P 	0.73021 0.73021 0.05535 0.58800
H 	H 	0.76460 0.76460 0.99880 -0.08200
P 	P 	0.59771 0.59771 0.92103 0.48700
H 	H 	0.64690 0.64690 0.89550 -0.05800
P 	P 	0.56210 0.56210 0.94070 0.05400
H 	H 	0.51400 0.51400 0.96880 -0.03300
O 	O 	0.60175 0.60175 0.00910 -0.86200
O 	O 	0.62610 0.62610 0.14070 -0.85600
O 	O 	0.76300 0.76300 0.12850 -0.60700
P 	P 	0.26979 0.73021 0.94465 0.47200
H 	H 	0.23540 0.76460 0.00120 0.05900
P 	P 	0.40229 0.59771 0.07897 0.54400
H 	H 	0.35310 0.64690 0.10450 -0.02200
P 	P 	0.43790 0.56210 0.05930 0.12900
H 	H 	0.48600 0.51400 0.03120 0.00500
O 	O 	0.39825 0.60175 0.99090 -0.98600
O 	O 	0.37390 0.62610 0.85930 -0.85500
O 	O 	0.23700 0.76300 0.87150 -0.60200
P 	P 	0.26979 0.26979 0.05535 0.59000
H 	H 	0.23540 0.23540 0.99880 -0.05200
P 	P 	0.40229 0.40229 0.92103 0.48900
H 	H 	0.35310 0.35310 0.89550 -0.05000
P 	P 	0.43790 0.43790 0.94070 0.05200
H 	H 	0.48600 0.48600 0.96880 -0.03200
O 	O 	0.39825 0.39825 0.00910 -0.86100
O 	O 	0.37390 0.37390 0.14070 -0.85700
O 	O 	0.23700 0.23700 0.12850 -0.58400
P 	P 	0.94465 0.73021 0.26979 0.47200
H 	H 	0.00120 0.76460 0.23540 0.05900
P 	P 	0.07897 0.59771 0.40229 0.54400
H 	H 	0.10450 0.64690 0.35310 -0.02200
P 	P 	0.05930 0.56210 0.43790 0.12900
H 	H 	0.03120 0.51400 0.48600 0.00500
O 	O 	0.99090 0.60175 0.39825 -0.98600
O 	O 	0.85930 0.62610 0.37390 -0.85500
O 	O 	0.87150 0.76300 0.23700 -0.60200
P 	P 	0.05535 0.73021 0.73021 0.58800
H 	H 	0.99880 0.76460 0.76460 -0.08200
P 	P 	0.92103 0.59771 0.59771 0.48700
H 	H 	0.89550 0.64690 0.64690 -0.05800
P 	P 	0.94070 0.56210 0.56210 0.05400
H 	H 	0.96880 0.51400 0.51400 -0.03300
O 	O 	0.00910 0.60175 0.60175 -0.86200
O 	O 	0.14070 0.62610 0.62610 -0.85600
O 	O 	0.12850 0.76300 0.76300 -0.60700
P 	P 	0.94465 0.26979 0.73021 0.47200
H 	H 	0.00120 0.23540 0.76460 0.05900
P 	P 	0.07897 0.40229 0.59771 0.54400
H 	H 	0.10450 0.35310 0.64690 -0.02200
P 	P 	0.05930 0.43790 0.56210 0.12900
H 	H 	0.03120 0.48600 0.51400 0.00500
O 	O 	0.99090 0.39825 0.60175 -0.98600
O 	O 	0.85930 0.37390 0.62610 -0.85500
O 	O 	0.87150 0.23700 0.76300 -0.60200
P 	P 	0.05535 0.26979 0.26979 0.59000
H 	H 	0.99880 0.23540 0.23540 -0.05200
P 	P 	0.92103 0.40229 0.40229 0.48900
H 	H 	0.89550 0.35310 0.35310 -0.05000
P 	P 	0.94070 0.43790 0.43790 0.05200
H 	H 	0.96880 0.48600 0.48600 -0.03200
O 	O 	0.00910 0.39825 0.39825 -0.86100
O 	O 	0.14070 0.37390 0.37390 -0.85700
O 	O 	0.12850 0.23700 0.23700 -0.58400
O 	O 	0.27580 0.00000 0.50000 -0.78500
O 	O 	0.72420 0.00000 0.50000 -0.79500
O 	O 	0.50000 0.27580 -0.00000 -0.78500
O 	O 	0.50000 0.72420 -0.00000 -0.79500
O 	O 	0.00000 0.50000 0.27580 -0.78500
O 	O 	0.00000 0.50000 0.72420 -0.79500
O 	O 	0.00000 0.27580 0.50000 -0.78500
O 	O 	0.00000 0.72420 0.50000 -0.79500
O 	O 	0.27580 0.50000 -0.00000 -0.78500
O 	O 	0.72420 0.50000 -0.00000 -0.79500
O 	O 	0.50000 0.00000 0.27580 -0.78500
O 	O 	0.50000 0.00000 0.72420 -0.79500
