data_crystal

_cell_length_a 24.21100
_cell_length_b 24.21100
_cell_length_c 23.32700
_cell_angle_alpha 90.00000
_cell_angle_beta  90.00000
_cell_angle_gamma 90.00000

_symmetry_space_group_name_	'P 1'
_symmetry_space_group_name_H-M	'P 1'

loop_
_symmetry_equiv_pos_as_xyz
  x,y,z

loop_
_atom_site_label
_atom_site_type_symbol
_atom_site_fract_x
_atom_site_fract_y
_atom_site_fract_z
_atom_site_charge
N 	N 	0.17110 0.86360 0.00480 -0.16100
N 	N 	0.07880 0.79790 0.99530 -0.15500
N 	N 	0.18150 0.95490 0.94000 -0.16100
N 	N 	0.18160 0.00720 0.91380 -0.09700
C 	C 	0.16890 0.81670 0.03100 0.02700
H 	H 	0.19890 0.80500 0.05270 0.01200
C 	C 	0.12090 0.78250 0.02700 -0.02700
H 	H 	0.11940 0.74930 0.04690 0.05400
C 	C 	0.08330 0.84500 0.96820 0.03700
H 	H 	0.05390 0.85640 0.94550 -0.00500
C 	C 	0.12890 0.87850 0.97140 -0.03700
C 	C 	0.13280 0.93070 0.94000 0.23500
C 	C 	0.08250 0.95540 0.91220 -0.75100
H 	H 	0.09250 0.98930 0.89350 0.27500
H 	H 	0.05510 0.96270 0.94090 0.25900
H 	H 	0.06790 0.93000 0.88450 0.24400
C 	C 	0.22450 0.01680 0.88210 -0.00900
C 	C 	0.23040 0.07310 0.85710 0.04500
C 	C 	0.27000 0.08240 0.81790 -0.10800
H 	H 	0.29310 0.05410 0.80560 0.06500
C 	C 	0.27550 0.13550 0.79640 0.00400
H 	H 	0.30340 0.14370 0.77030 0.05000
C 	C 	0.23980 0.17560 0.81380 -0.07400
H 	H 	0.24350 0.21080 0.79820 0.05600
C 	C 	0.19800 0.16630 0.85370 0.01200
H 	H 	0.17440 0.19440 0.86540 0.05600
C 	C 	0.19350 0.11430 0.87480 -0.10200
H 	H 	0.16590 0.10600 0.90110 0.09300
N 	N 	0.95740 0.86110 0.06570 0.11200
O 	O 	0.95470 0.91150 0.06090 -0.06100
O 	O 	0.99690 0.84090 0.09110 -0.10700
O 	O 	0.93100 0.83240 0.03250 -0.10600
O 	O 	0.94140 0.90300 0.09060 -0.09000
O 	O 	0.95180 0.81650 0.09030 -0.14500
O 	O 	0.96050 0.86160 0.01330 -0.10800
N 	N 	0.67110 0.36360 0.50480 -0.14500
N 	N 	0.57880 0.29790 0.49530 -0.16600
N 	N 	0.68150 0.45490 0.44000 -0.17300
N 	N 	0.68160 0.50720 0.41380 -0.09200
C 	C 	0.66890 0.31670 0.53100 0.02000
H 	H 	0.69890 0.30500 0.55270 0.01900
C 	C 	0.62090 0.28250 0.52700 0.00500
H 	H 	0.61940 0.24930 0.54690 0.04900
C 	C 	0.58330 0.34500 0.46820 0.04700
H 	H 	0.55390 0.35640 0.44550 0.00100
C 	C 	0.62890 0.37850 0.47140 -0.05800
C 	C 	0.63280 0.43070 0.44000 0.24000
C 	C 	0.58250 0.45540 0.41220 -0.76500
H 	H 	0.59250 0.48930 0.39350 0.27400
H 	H 	0.55510 0.46270 0.44090 0.26700
H 	H 	0.56790 0.43000 0.38450 0.25400
C 	C 	0.72450 0.51680 0.38210 0.00800
C 	C 	0.73040 0.57310 0.35710 0.04000
C 	C 	0.77000 0.58240 0.31790 -0.10300
H 	H 	0.79310 0.55410 0.30560 0.07000
C 	C 	0.77550 0.63550 0.29640 0.00100
H 	H 	0.80340 0.64370 0.27030 0.05300
C 	C 	0.73980 0.67560 0.31380 -0.07100
H 	H 	0.74350 0.71080 0.29820 0.05400
C 	C 	0.69800 0.66630 0.35370 0.00800
H 	H 	0.67440 0.69440 0.36540 0.05700
C 	C 	0.69350 0.61430 0.37480 -0.09700
H 	H 	0.66590 0.60600 0.40110 0.09000
N 	N 	0.45740 0.36110 0.56570 0.12000
O 	O 	0.45470 0.41150 0.56090 -0.07400
O 	O 	0.49690 0.34090 0.59110 -0.14300
O 	O 	0.43100 0.33240 0.53250 -0.10600
O 	O 	0.44140 0.40300 0.59060 -0.09300
O 	O 	0.45180 0.31650 0.59030 -0.15400
O 	O 	0.46050 0.36160 0.51330 -0.12100
N 	N 	0.32890 0.13640 0.50480 -0.14500
N 	N 	0.42120 0.20210 0.49530 -0.16600
N 	N 	0.31850 0.04510 0.44000 -0.17900
N 	N 	0.31840 0.99280 0.41380 -0.08600
C 	C 	0.33110 0.18330 0.53100 0.02000
H 	H 	0.30110 0.19500 0.55270 0.01900
C 	C 	0.37910 0.21750 0.52700 0.00500
H 	H 	0.38060 0.25070 0.54690 0.04900
C 	C 	0.41670 0.15500 0.46820 0.04500
H 	H 	0.44610 0.14360 0.44550 0.00100
C 	C 	0.37110 0.12150 0.47140 -0.05600
C 	C 	0.36720 0.06930 0.44000 0.23300
C 	C 	0.41750 0.04460 0.41220 -0.74800
H 	H 	0.40750 0.01070 0.39350 0.26200
H 	H 	0.44490 0.03730 0.44090 0.25800
H 	H 	0.43210 0.07000 0.38450 0.24700
C 	C 	0.27550 0.98320 0.38210 0.02600
C 	C 	0.26960 0.92690 0.35710 0.03400
C 	C 	0.23000 0.91760 0.31790 -0.09800
H 	H 	0.20690 0.94590 0.30560 0.06900
C 	C 	0.22450 0.86450 0.29640 -0.00500
H 	H 	0.19660 0.85630 0.27030 0.05200
C 	C 	0.26020 0.82440 0.31380 -0.06700
H 	H 	0.25650 0.78920 0.29820 0.05300
C 	C 	0.30200 0.83370 0.35370 0.00300
H 	H 	0.32560 0.80560 0.36540 0.05800
C 	C 	0.30650 0.88570 0.37480 -0.09200
H 	H 	0.33410 0.89400 0.40110 0.08900
N 	N 	0.54260 0.13890 0.56570 0.12100
O 	O 	0.54530 0.08850 0.56090 -0.07800
O 	O 	0.50310 0.15910 0.59110 -0.14300
O 	O 	0.56900 0.16760 0.53250 -0.10600
O 	O 	0.55860 0.09700 0.59060 -0.09400
O 	O 	0.54820 0.18350 0.59030 -0.15400
O 	O 	0.53950 0.13840 0.51330 -0.12200
N 	N 	0.82890 0.63640 0.00480 -0.16000
N 	N 	0.92120 0.70210 0.99530 -0.13400
N 	N 	0.81850 0.54510 0.94000 -0.17000
N 	N 	0.81840 0.49280 0.91380 -0.09000
C 	C 	0.83110 0.68330 0.03100 0.03000
H 	H 	0.80110 0.69500 0.05270 0.01300
C 	C 	0.87910 0.71750 0.02700 -0.02100
H 	H 	0.88060 0.75070 0.04690 0.05900
C 	C 	0.91670 0.65500 0.96820 0.04500
H 	H 	0.94610 0.64360 0.94550 0.02000
C 	C 	0.87110 0.62150 0.97140 -0.03700
C 	C 	0.86720 0.56930 0.94000 0.24900
C 	C 	0.91750 0.54460 0.91220 -0.80200
H 	H 	0.90750 0.51070 0.89350 0.28900
H 	H 	0.94490 0.53730 0.94090 0.29400
H 	H 	0.93210 0.57000 0.88450 0.27300
C 	C 	0.77550 0.48320 0.88210 0.00800
C 	C 	0.76960 0.42690 0.85710 0.04000
C 	C 	0.73000 0.41760 0.81790 -0.10400
H 	H 	0.70690 0.44590 0.80560 0.06800
C 	C 	0.72450 0.36450 0.79640 0.00100
H 	H 	0.69660 0.35630 0.77030 0.05100
C 	C 	0.76020 0.32440 0.81380 -0.07100
H 	H 	0.75650 0.28920 0.79820 0.05400
C 	C 	0.80200 0.33370 0.85370 0.00900
H 	H 	0.82560 0.30560 0.86540 0.05700
C 	C 	0.80650 0.38570 0.87480 -0.09700
H 	H 	0.83410 0.39400 0.90110 0.09200
N 	N 	0.04260 0.63890 0.06570 0.12900
O 	O 	0.04530 0.58850 0.06090 -0.09500
O 	O 	0.00310 0.65910 0.09110 -0.17700
O 	O 	0.06900 0.66760 0.03250 -0.11000
O 	O 	0.05860 0.59700 0.09060 -0.09100
O 	O 	0.04820 0.68350 0.09030 -0.15600
O 	O 	0.03950 0.63840 0.01330 -0.14700
N 	N 	0.38640 0.92110 0.25480 -0.14100
N 	N 	0.45210 0.82880 0.24530 -0.16600
N 	N 	0.29510 0.93150 0.19000 -0.16900
N 	N 	0.24280 0.93160 0.16380 -0.09400
C 	C 	0.43330 0.91890 0.28100 0.02000
H 	H 	0.44500 0.94890 0.30270 0.02400
C 	C 	0.46750 0.87090 0.27700 0.00600
H 	H 	0.50070 0.86940 0.29690 0.04900
C 	C 	0.40500 0.83330 0.21820 0.04600
H 	H 	0.39360 0.80390 0.19550 0.00100
C 	C 	0.37150 0.87890 0.22140 -0.05700
C 	C 	0.31930 0.88280 0.19000 0.23900
C 	C 	0.29460 0.83250 0.16220 -0.76200
H 	H 	0.26070 0.84250 0.14350 0.27200
H 	H 	0.28730 0.80510 0.19090 0.26600
H 	H 	0.32000 0.81790 0.13450 0.25100
C 	C 	0.23320 0.97450 0.13210 0.02400
C 	C 	0.17690 0.98040 0.10710 0.04400
C 	C 	0.16760 0.02000 0.06790 -0.10800
H 	H 	0.19590 0.04310 0.05560 0.06300
C 	C 	0.11450 0.02550 0.04640 -0.04500
H 	H 	0.10630 0.05340 0.02030 0.05400
C 	C 	0.07440 0.98980 0.06380 -0.03100
H 	H 	0.03920 0.99350 0.04820 0.02300
C 	C 	0.08370 0.94800 0.10370 -0.02100
H 	H 	0.05560 0.92440 0.11540 0.05100
C 	C 	0.13570 0.94350 0.12480 -0.08700
H 	H 	0.14400 0.91590 0.15110 0.08500
N 	N 	0.38890 0.70740 0.31570 0.12100
O 	O 	0.33850 0.70470 0.31090 -0.07400
O 	O 	0.40910 0.74690 0.34110 -0.14300
O 	O 	0.41760 0.68100 0.28250 -0.10600
O 	O 	0.34700 0.69140 0.34060 -0.09300
O 	O 	0.43350 0.70180 0.34030 -0.15400
O 	O 	0.38840 0.71050 0.26330 -0.12100
N 	N 	0.88640 0.42110 0.75480 -0.13200
N 	N 	0.95210 0.32880 0.74530 -0.17500
N 	N 	0.79510 0.43150 0.69000 -0.17400
N 	N 	0.74280 0.43160 0.66380 -0.09200
C 	C 	0.93330 0.41890 0.78100 -0.03700
H 	H 	0.94500 0.44890 0.80270 0.05000
C 	C 	0.96750 0.37090 0.77700 0.13800
H 	H 	0.00070 0.36940 0.79690 -0.03900
C 	C 	0.90500 0.33330 0.71820 0.05600
H 	H 	0.89360 0.30390 0.69550 0.00400
C 	C 	0.87150 0.37890 0.72140 -0.06500
C 	C 	0.81930 0.38280 0.69000 0.24300
C 	C 	0.79460 0.33250 0.66220 -0.77200
H 	H 	0.76070 0.34250 0.64350 0.27600
H 	H 	0.78730 0.30510 0.69090 0.26900
H 	H 	0.82000 0.31790 0.63450 0.25700
C 	C 	0.73320 0.47450 0.63210 0.00700
C 	C 	0.67690 0.48040 0.60710 0.03900
C 	C 	0.66760 0.52000 0.56790 -0.10300
H 	H 	0.69590 0.54310 0.55560 0.06800
C 	C 	0.61450 0.52550 0.54640 -0.00100
H 	H 	0.60630 0.55340 0.52030 0.05100
C 	C 	0.57440 0.48980 0.56380 -0.07100
H 	H 	0.53920 0.49350 0.54820 0.05400
C 	C 	0.58370 0.44800 0.60370 0.00700
H 	H 	0.55560 0.42440 0.61540 0.05700
C 	C 	0.63570 0.44350 0.62480 -0.09700
H 	H 	0.64400 0.41590 0.65110 0.09000
N 	N 	0.88890 0.20740 0.81570 0.11400
O 	O 	0.83850 0.20470 0.81090 -0.07400
O 	O 	0.90910 0.24690 0.84110 -0.13500
O 	O 	0.91760 0.18100 0.78250 -0.09700
O 	O 	0.84700 0.19140 0.84060 -0.09000
O 	O 	0.93350 0.20180 0.84030 -0.13300
O 	O 	0.88840 0.21050 0.76330 -0.11400
N 	N 	0.11360 0.07890 0.75480 -0.15900
N 	N 	0.04790 0.17120 0.74530 -0.14800
N 	N 	0.20490 0.06850 0.69000 -0.17500
N 	N 	0.25720 0.06840 0.66380 -0.09100
C 	C 	0.06670 0.08110 0.78100 0.07700
H 	H 	0.05500 0.05110 0.80270 -0.01600
C 	C 	0.03250 0.12910 0.77700 -0.12800
H 	H 	0.99930 0.13060 0.79690 0.14000
C 	C 	0.09500 0.16670 0.71820 0.03700
H 	H 	0.10640 0.19610 0.69550 0.00200
C 	C 	0.12850 0.12110 0.72140 -0.05100
C 	C 	0.18070 0.11720 0.69000 0.23600
C 	C 	0.20540 0.16750 0.66220 -0.76100
H 	H 	0.23930 0.15750 0.64350 0.27300
H 	H 	0.21270 0.19490 0.69090 0.26500
H 	H 	0.18000 0.18210 0.63450 0.25100
C 	C 	0.26680 0.02550 0.63210 -0.00800
C 	C 	0.32310 0.01960 0.60710 0.03100
C 	C 	0.33240 0.98000 0.56790 -0.09700
H 	H 	0.30410 0.95690 0.55560 0.06800
C 	C 	0.38550 0.97450 0.54640 0.03500
H 	H 	0.39370 0.94660 0.52030 0.04200
C 	C 	0.42560 0.01020 0.56380 -0.11100
H 	H 	0.46080 0.00650 0.54820 0.06200
C 	C 	0.41630 0.05200 0.60370 0.02600
H 	H 	0.44440 0.07560 0.61540 0.04900
C 	C 	0.36430 0.05650 0.62480 -0.10800
H 	H 	0.35600 0.08410 0.65110 0.09300
N 	N 	0.11110 0.29260 0.81570 0.12300
O 	O 	0.16150 0.29530 0.81090 -0.07400
O 	O 	0.09090 0.25310 0.84110 -0.14400
O 	O 	0.08240 0.31900 0.78250 -0.11200
O 	O 	0.15300 0.30860 0.84060 -0.09400
O 	O 	0.06650 0.29820 0.84030 -0.16400
O 	O 	0.11160 0.28950 0.76330 -0.12400
N 	N 	0.61360 0.57890 0.25480 -0.14500
N 	N 	0.54790 0.67120 0.24530 -0.16600
N 	N 	0.70490 0.56850 0.19000 -0.17300
N 	N 	0.75720 0.56840 0.16380 -0.09200
C 	C 	0.56670 0.58110 0.28100 0.02000
H 	H 	0.55500 0.55110 0.30270 0.01900
C 	C 	0.53250 0.62910 0.27700 0.00500
H 	H 	0.49930 0.63060 0.29690 0.04900
C 	C 	0.59500 0.66670 0.21820 0.04600
H 	H 	0.60640 0.69610 0.19550 0.00100
C 	C 	0.62850 0.62110 0.22140 -0.05800
C 	C 	0.68070 0.61720 0.19000 0.23800
C 	C 	0.70540 0.66750 0.16220 -0.76200
H 	H 	0.73930 0.65750 0.14350 0.27200
H 	H 	0.71270 0.69490 0.19090 0.26600
H 	H 	0.68000 0.68210 0.13450 0.25100
C 	C 	0.76680 0.52550 0.13210 0.00700
C 	C 	0.82310 0.51960 0.10710 0.04200
C 	C 	0.83240 0.48000 0.06790 -0.10900
H 	H 	0.80410 0.45690 0.05560 0.06700
C 	C 	0.88550 0.47450 0.04640 0.00700
H 	H 	0.89370 0.44660 0.02030 0.04500
C 	C 	0.92560 0.51020 0.06380 -0.07600
H 	H 	0.96080 0.50650 0.04820 0.07000
C 	C 	0.91630 0.55200 0.10370 0.01400
H 	H 	0.94440 0.57560 0.11540 0.06900
C 	C 	0.86430 0.55650 0.12480 -0.09900
H 	H 	0.85600 0.58410 0.15110 0.09200
N 	N 	0.61110 0.79260 0.31570 0.12100
O 	O 	0.66150 0.79530 0.31090 -0.07400
O 	O 	0.59090 0.75310 0.34110 -0.14300
O 	O 	0.58240 0.81900 0.28250 -0.10600
O 	O 	0.65300 0.80860 0.34060 -0.09300
O 	O 	0.56650 0.79820 0.34030 -0.15400
O 	O 	0.61160 0.78950 0.26330 -0.12100
N 	N 	0.32890 0.86360 0.99520 -0.12600
N 	N 	0.42120 0.79790 0.00470 -0.18300
N 	N 	0.31850 0.95490 0.06000 -0.17100
N 	N 	0.31840 0.00720 0.08620 -0.10000
C 	C 	0.33110 0.81670 0.96900 0.01100
H 	H 	0.30110 0.80500 0.94730 0.02500
C 	C 	0.37910 0.78250 0.97300 0.03400
H 	H 	0.38060 0.74930 0.95310 0.04200
C 	C 	0.41670 0.84500 0.03180 0.05300
H 	H 	0.44610 0.85640 0.05450 -0.00400
C 	C 	0.37110 0.87850 0.02860 -0.08200
C 	C 	0.36720 0.93070 0.06000 0.24900
C 	C 	0.41750 0.95540 0.08780 -0.78300
H 	H 	0.40750 0.98930 0.10650 0.28600
H 	H 	0.44490 0.96270 0.05910 0.27200
H 	H 	0.43210 0.93000 0.11550 0.26100
C 	C 	0.27550 0.01680 0.11790 -0.01100
C 	C 	0.26960 0.07310 0.14290 0.04200
C 	C 	0.23000 0.08240 0.18210 -0.10700
H 	H 	0.20690 0.05410 0.19440 0.06300
C 	C 	0.22450 0.13550 0.20360 -0.00000
H 	H 	0.19660 0.14370 0.22970 0.04900
C 	C 	0.26020 0.17560 0.18620 -0.07300
H 	H 	0.25650 0.21080 0.20180 0.05400
C 	C 	0.30200 0.16630 0.14630 0.00800
H 	H 	0.32560 0.19440 0.13460 0.05500
C 	C 	0.30650 0.11430 0.12520 -0.10100
H 	H 	0.33410 0.10600 0.09890 0.08800
N 	N 	0.54260 0.86110 0.93430 0.11700
O 	O 	0.54530 0.91150 0.93910 -0.06500
O 	O 	0.50310 0.84090 0.90890 -0.14100
O 	O 	0.56900 0.83240 0.96750 -0.10100
O 	O 	0.55860 0.90300 0.90940 -0.09400
O 	O 	0.54820 0.81650 0.90970 -0.15200
O 	O 	0.53950 0.86160 0.98670 -0.11100
N 	N 	0.82890 0.36360 0.49520 -0.14400
N 	N 	0.92120 0.29790 0.50470 -0.15100
N 	N 	0.81850 0.45490 0.56000 -0.17600
N 	N 	0.81840 0.50720 0.58620 -0.09200
C 	C 	0.83110 0.31670 0.46900 0.02100
H 	H 	0.80110 0.30500 0.44730 0.01900
C 	C 	0.87910 0.28250 0.47300 0.00800
H 	H 	0.88060 0.24930 0.45310 0.05300
C 	C 	0.91670 0.34500 0.53180 0.05100
H 	H 	0.94610 0.35640 0.55450 0.01500
C 	C 	0.87110 0.37850 0.52860 -0.05900
C 	C 	0.86720 0.43070 0.56000 0.25100
C 	C 	0.91750 0.45540 0.58780 -0.80200
H 	H 	0.90750 0.48930 0.60650 0.28800
H 	H 	0.94490 0.46270 0.55910 0.29000
H 	H 	0.93210 0.43000 0.61550 0.27300
C 	C 	0.77550 0.51680 0.61790 0.00800
C 	C 	0.76960 0.57310 0.64290 0.03900
C 	C 	0.73000 0.58240 0.68210 -0.10300
H 	H 	0.70690 0.55410 0.69440 0.06800
C 	C 	0.72450 0.63550 0.70360 -0.00100
H 	H 	0.69660 0.64370 0.72970 0.05100
C 	C 	0.76020 0.67560 0.68620 -0.07100
H 	H 	0.75650 0.71080 0.70180 0.05400
C 	C 	0.80200 0.66630 0.64630 0.00700
H 	H 	0.82560 0.69440 0.63460 0.05700
C 	C 	0.80650 0.61430 0.62520 -0.09700
H 	H 	0.83410 0.60600 0.59890 0.09000
N 	N 	0.04260 0.36110 0.43430 0.12700
O 	O 	0.04530 0.41150 0.43910 -0.09000
O 	O 	0.00310 0.34090 0.40890 -0.17500
O 	O 	0.06900 0.33240 0.46750 -0.10600
O 	O 	0.05860 0.40300 0.40940 -0.09300
O 	O 	0.04820 0.31650 0.40970 -0.15400
O 	O 	0.03950 0.36160 0.48670 -0.13800
N 	N 	0.17110 0.13640 0.49520 -0.14600
N 	N 	0.07880 0.20210 0.50470 -0.17100
N 	N 	0.18150 0.04510 0.56000 -0.17700
N 	N 	0.18160 0.99280 0.58620 -0.08700
C 	C 	0.16890 0.18330 0.46900 0.02000
H 	H 	0.19890 0.19500 0.44730 0.01900
C 	C 	0.12090 0.21750 0.47300 0.00200
H 	H 	0.11940 0.25070 0.45310 0.04900
C 	C 	0.08330 0.15500 0.53180 0.04100
H 	H 	0.05390 0.14360 0.55450 -0.00900
C 	C 	0.12890 0.12150 0.52860 -0.05400
C 	C 	0.13280 0.06930 0.56000 0.22200
C 	C 	0.08250 0.04460 0.58780 -0.71500
H 	H 	0.09250 0.01070 0.60650 0.24900
H 	H 	0.05510 0.03730 0.55910 0.23600
H 	H 	0.06790 0.07000 0.61550 0.23000
C 	C 	0.22450 0.98320 0.61790 0.02600
C 	C 	0.23040 0.92690 0.64290 0.03500
C 	C 	0.27000 0.91760 0.68210 -0.09800
H 	H 	0.29310 0.94590 0.69440 0.07100
C 	C 	0.27550 0.86450 0.70360 -0.00400
H 	H 	0.30340 0.85630 0.72970 0.05300
C 	C 	0.23980 0.82440 0.68620 -0.06700
H 	H 	0.24350 0.78920 0.70180 0.05300
C 	C 	0.19800 0.83370 0.64630 0.00300
H 	H 	0.17440 0.80560 0.63460 0.05800
C 	C 	0.19350 0.88570 0.62520 -0.09200
H 	H 	0.16590 0.89400 0.59890 0.08900
N 	N 	0.95740 0.13890 0.43430 0.11100
O 	O 	0.95470 0.08850 0.43910 -0.06200
O 	O 	0.99690 0.15910 0.40890 -0.10400
O 	O 	0.93100 0.16760 0.46750 -0.10200
O 	O 	0.94140 0.09700 0.40940 -0.09400
O 	O 	0.95180 0.18350 0.40970 -0.14400
O 	O 	0.96050 0.13840 0.48670 -0.10000
N 	N 	0.67110 0.63640 0.99520 -0.12700
N 	N 	0.57880 0.70210 0.00470 -0.18300
N 	N 	0.68150 0.54510 0.06000 -0.17700
N 	N 	0.68160 0.49280 0.08620 -0.09500
C 	C 	0.66890 0.68330 0.96900 0.01100
H 	H 	0.69890 0.69500 0.94730 0.02500
C 	C 	0.62090 0.71750 0.97300 0.03400
H 	H 	0.61940 0.75070 0.95310 0.04200
C 	C 	0.58330 0.65500 0.03180 0.05200
H 	H 	0.55390 0.64360 0.05450 -0.00400
C 	C 	0.62890 0.62150 0.02860 -0.08000
C 	C 	0.63280 0.56930 0.06000 0.24100
C 	C 	0.58250 0.54460 0.08780 -0.76500
H 	H 	0.59250 0.51070 0.10650 0.27300
H 	H 	0.55510 0.53730 0.05910 0.26300
H 	H 	0.56790 0.57000 0.11550 0.25300
C 	C 	0.72450 0.48320 0.11790 0.00700
C 	C 	0.73040 0.42690 0.14290 0.03800
C 	C 	0.77000 0.41760 0.18210 -0.10200
H 	H 	0.79310 0.44590 0.19440 0.07000
C 	C 	0.77550 0.36450 0.20360 -0.00000
H 	H 	0.80340 0.35630 0.22970 0.05300
C 	C 	0.73980 0.32440 0.18620 -0.07000
H 	H 	0.74350 0.28920 0.20180 0.05400
C 	C 	0.69800 0.33370 0.14630 0.00500
H 	H 	0.67440 0.30560 0.13460 0.05600
C 	C 	0.69350 0.38570 0.12520 -0.09700
H 	H 	0.66590 0.39400 0.09890 0.08700
N 	N 	0.45740 0.63890 0.93430 0.11800
O 	O 	0.45470 0.58850 0.93910 -0.06800
O 	O 	0.49690 0.65910 0.90890 -0.14100
O 	O 	0.43100 0.66760 0.96750 -0.10200
O 	O 	0.44140 0.59700 0.90940 -0.09500
O 	O 	0.45180 0.68350 0.90970 -0.15300
O 	O 	0.46050 0.63840 0.98670 -0.11200
N 	N 	0.11360 0.92110 0.74520 -0.15400
N 	N 	0.04790 0.82880 0.75470 -0.14800
N 	N 	0.20490 0.93150 0.81000 -0.16900
N 	N 	0.25720 0.93160 0.83620 -0.09400
C 	C 	0.06670 0.91890 0.71900 0.07700
H 	H 	0.05500 0.94890 0.69730 -0.00700
C 	C 	0.03250 0.87090 0.72300 -0.12500
H 	H 	0.99930 0.86940 0.70310 0.14000
C 	C 	0.09500 0.83330 0.78180 0.03700
H 	H 	0.10640 0.80390 0.80450 0.00200
C 	C 	0.12850 0.87890 0.77860 -0.05000
C 	C 	0.18070 0.88280 0.81000 0.23800
C 	C 	0.20540 0.83250 0.83780 -0.76500
H 	H 	0.23930 0.84250 0.85650 0.27500
H 	H 	0.21270 0.80510 0.80910 0.26700
H 	H 	0.18000 0.81790 0.86550 0.25400
C 	C 	0.26680 0.97450 0.86790 0.02500
C 	C 	0.32310 0.98040 0.89290 0.04800
C 	C 	0.33240 0.02000 0.93210 -0.10600
H 	H 	0.30410 0.04310 0.94440 0.07100
C 	C 	0.38550 0.02550 0.95360 -0.03500
H 	H 	0.39370 0.05340 0.97970 0.06800
C 	C 	0.42560 0.98980 0.93620 -0.02800
H 	H 	0.46080 0.99350 0.95180 0.05000
C 	C 	0.41630 0.94800 0.89630 -0.01100
H 	H 	0.44440 0.92440 0.88460 0.06500
C 	C 	0.36430 0.94350 0.87520 -0.08500
H 	H 	0.35600 0.91590 0.84890 0.08700
N 	N 	0.11110 0.70740 0.68430 0.12300
O 	O 	0.16150 0.70470 0.68910 -0.07400
O 	O 	0.09090 0.74690 0.65890 -0.14400
O 	O 	0.08240 0.68100 0.71750 -0.11200
O 	O 	0.15300 0.69140 0.65940 -0.09500
O 	O 	0.06650 0.70180 0.65970 -0.16400
O 	O 	0.11160 0.71050 0.73670 -0.12300
N 	N 	0.61360 0.42110 0.24520 -0.14500
N 	N 	0.54790 0.32880 0.25470 -0.16600
N 	N 	0.70490 0.43150 0.31000 -0.17300
N 	N 	0.75720 0.43160 0.33620 -0.09200
C 	C 	0.56670 0.41890 0.21900 0.02000
H 	H 	0.55500 0.44890 0.19730 0.01900
C 	C 	0.53250 0.37090 0.22300 0.00500
H 	H 	0.49930 0.36940 0.20310 0.04900
C 	C 	0.59500 0.33330 0.28180 0.04700
H 	H 	0.60640 0.30390 0.30450 0.00100
C 	C 	0.62850 0.37890 0.27860 -0.05800
C 	C 	0.68070 0.38280 0.31000 0.23900
C 	C 	0.70540 0.33250 0.33780 -0.76500
H 	H 	0.73930 0.34250 0.35650 0.27400
H 	H 	0.71270 0.30510 0.30910 0.26700
H 	H 	0.68000 0.31790 0.36550 0.25400
C 	C 	0.76680 0.47450 0.36790 0.00700
C 	C 	0.82310 0.48040 0.39290 0.04300
C 	C 	0.83240 0.52000 0.43210 -0.10700
H 	H 	0.80410 0.54310 0.44440 0.07000
C 	C 	0.88550 0.52550 0.45360 0.00800
H 	H 	0.89370 0.55340 0.47970 0.05200
C 	C 	0.92560 0.48980 0.43620 -0.07300
H 	H 	0.96080 0.49350 0.45180 0.07400
C 	C 	0.91630 0.44800 0.39630 0.01500
H 	H 	0.94440 0.42440 0.38460 0.07000
C 	C 	0.86430 0.44350 0.37520 -0.09800
H 	H 	0.85600 0.41590 0.34890 0.09200
N 	N 	0.61110 0.20740 0.18430 0.12100
O 	O 	0.66150 0.20470 0.18910 -0.07400
O 	O 	0.59090 0.24690 0.15890 -0.14400
O 	O 	0.58240 0.18100 0.21750 -0.10700
O 	O 	0.65300 0.19140 0.15940 -0.09400
O 	O 	0.56650 0.20180 0.15970 -0.15500
O 	O 	0.61160 0.21050 0.23670 -0.12100
N 	N 	0.38640 0.07890 0.24520 -0.14600
N 	N 	0.45210 0.17120 0.25470 -0.16600
N 	N 	0.29510 0.06850 0.31000 -0.17600
N 	N 	0.24280 0.06840 0.33620 -0.09100
C 	C 	0.43330 0.08110 0.21900 0.02000
H 	H 	0.44500 0.05110 0.19730 0.01400
C 	C 	0.46750 0.12910 0.22300 0.00400
H 	H 	0.50070 0.13060 0.20310 0.04900
C 	C 	0.40500 0.16670 0.28180 0.04600
H 	H 	0.39360 0.19610 0.30450 0.00100
C 	C 	0.37150 0.12110 0.27860 -0.05800
C 	C 	0.31930 0.11720 0.31000 0.24000
C 	C 	0.29460 0.16750 0.33780 -0.76600
H 	H 	0.26070 0.15750 0.35650 0.27400
H 	H 	0.28730 0.19490 0.30910 0.26700
H 	H 	0.32000 0.18210 0.36550 0.25400
C 	C 	0.23320 0.02550 0.36790 -0.00800
C 	C 	0.17690 0.01960 0.39290 0.02700
C 	C 	0.16760 0.98000 0.43210 -0.09400
H 	H 	0.19590 0.95690 0.44440 0.06700
C 	C 	0.11450 0.97450 0.45360 0.02600
H 	H 	0.10630 0.94660 0.47970 0.04200
C 	C 	0.07440 0.01020 0.43620 -0.10800
H 	H 	0.03920 0.00650 0.45180 0.04200
C 	C 	0.08370 0.05200 0.39630 0.01700
H 	H 	0.05560 0.07560 0.38460 0.03600
C 	C 	0.13570 0.05650 0.37520 -0.10700
H 	H 	0.14400 0.08410 0.34890 0.09000
N 	N 	0.38890 0.29260 0.18430 0.12100
O 	O 	0.33850 0.29530 0.18910 -0.07400
O 	O 	0.40910 0.25310 0.15890 -0.14400
O 	O 	0.41760 0.31900 0.21750 -0.10600
O 	O 	0.34700 0.30860 0.15940 -0.09300
O 	O 	0.43350 0.29820 0.15970 -0.15500
O 	O 	0.38840 0.28950 0.23670 -0.12100
N 	N 	0.88640 0.57890 0.74520 -0.13200
N 	N 	0.95210 0.67120 0.75470 -0.17500
N 	N 	0.79510 0.56850 0.81000 -0.17400
N 	N 	0.74280 0.56840 0.83620 -0.09200
C 	C 	0.93330 0.58110 0.71900 -0.03700
H 	H 	0.94500 0.55110 0.69730 0.05000
C 	C 	0.96750 0.62910 0.72300 0.13900
H 	H 	0.00070 0.63060 0.70310 -0.03900
C 	C 	0.90500 0.66670 0.78180 0.05600
H 	H 	0.89360 0.69610 0.80450 0.00500
C 	C 	0.87150 0.62110 0.77860 -0.06500
C 	C 	0.81930 0.61720 0.81000 0.24500
C 	C 	0.79460 0.66750 0.83780 -0.77600
H 	H 	0.76070 0.65750 0.85650 0.27800
H 	H 	0.78730 0.69490 0.80910 0.27100
H 	H 	0.82000 0.68210 0.86550 0.26000
C 	C 	0.73320 0.52550 0.86790 0.00900
C 	C 	0.67690 0.51960 0.89290 0.04000
C 	C 	0.66760 0.48000 0.93210 -0.10000
H 	H 	0.69590 0.45690 0.94440 0.07100
C 	C 	0.61450 0.47450 0.95360 0.00100
H 	H 	0.60630 0.44660 0.97970 0.05900
C 	C 	0.57440 0.51020 0.93620 -0.06800
H 	H 	0.53920 0.50650 0.95180 0.05800
C 	C 	0.58370 0.55200 0.89630 0.00800
H 	H 	0.55560 0.57560 0.88460 0.05700
C 	C 	0.63570 0.55650 0.87520 -0.09600
H 	H 	0.64400 0.58410 0.84890 0.09000
N 	N 	0.88890 0.79260 0.68430 0.11400
O 	O 	0.83850 0.79530 0.68910 -0.07400
O 	O 	0.90910 0.75310 0.65890 -0.13500
O 	O 	0.91760 0.81900 0.71750 -0.09500
O 	O 	0.84700 0.80860 0.65940 -0.09100
O 	O 	0.93350 0.79820 0.65970 -0.13400
O 	O 	0.88840 0.78950 0.73670 -0.11300
N 	N 	0.82890 0.13640 0.99520 -0.12700
N 	N 	0.92120 0.20210 0.00470 -0.16800
N 	N 	0.81850 0.04510 0.06000 -0.18400
N 	N 	0.81840 0.99280 0.08620 -0.08900
C 	C 	0.83110 0.18330 0.96900 0.01300
H 	H 	0.80110 0.19500 0.94730 0.02500
C 	C 	0.87910 0.21750 0.97300 0.03700
H 	H 	0.88060 0.25070 0.95310 0.04600
C 	C 	0.91670 0.15500 0.03180 0.05500
H 	H 	0.94610 0.14360 0.05450 0.01000
C 	C 	0.87110 0.12150 0.02860 -0.07900
C 	C 	0.86720 0.06930 0.06000 0.24500
C 	C 	0.91750 0.04460 0.08780 -0.78400
H 	H 	0.90750 0.01070 0.10650 0.27500
H 	H 	0.94490 0.03730 0.05910 0.27700
H 	H 	0.93210 0.07000 0.11550 0.26500
C 	C 	0.77550 0.98320 0.11790 0.02600
C 	C 	0.76960 0.92690 0.14290 0.03300
C 	C 	0.73000 0.91760 0.18210 -0.09800
H 	H 	0.70690 0.94590 0.19440 0.07100
C 	C 	0.72450 0.86450 0.20360 -0.00500
H 	H 	0.69660 0.85630 0.22970 0.05300
C 	C 	0.76020 0.82440 0.18620 -0.06700
H 	H 	0.75650 0.78920 0.20180 0.05200
C 	C 	0.80200 0.83370 0.14630 0.00100
H 	H 	0.82560 0.80560 0.13460 0.05800
C 	C 	0.80650 0.88570 0.12520 -0.09200
H 	H 	0.83410 0.89400 0.09890 0.08700
N 	N 	0.04260 0.13890 0.93430 0.12500
O 	O 	0.04530 0.08850 0.93910 -0.08700
O 	O 	0.00310 0.15910 0.90890 -0.17100
O 	O 	0.06900 0.16760 0.96750 -0.10200
O 	O 	0.05860 0.09700 0.90940 -0.09500
O 	O 	0.04820 0.18350 0.90970 -0.15300
O 	O 	0.03950 0.13840 0.98670 -0.12900
N 	N 	0.32890 0.63640 0.49520 -0.14500
N 	N 	0.42120 0.70210 0.50470 -0.16600
N 	N 	0.31850 0.54510 0.56000 -0.17300
N 	N 	0.31840 0.49280 0.58620 -0.09200
C 	C 	0.33110 0.68330 0.46900 0.02000
H 	H 	0.30110 0.69500 0.44730 0.01900
C 	C 	0.37910 0.71750 0.47300 0.00500
H 	H 	0.38060 0.75070 0.45310 0.04900
C 	C 	0.41670 0.65500 0.53180 0.04700
H 	H 	0.44610 0.64360 0.55450 0.00100
C 	C 	0.37110 0.62150 0.52860 -0.05800
C 	C 	0.36720 0.56930 0.56000 0.24000
C 	C 	0.41750 0.54460 0.58780 -0.76500
H 	H 	0.40750 0.51070 0.60650 0.27400
H 	H 	0.44490 0.53730 0.55910 0.26700
H 	H 	0.43210 0.57000 0.61550 0.25400
C 	C 	0.27550 0.48320 0.61790 0.00700
C 	C 	0.26960 0.42690 0.64290 0.03800
C 	C 	0.23000 0.41760 0.68210 -0.10300
H 	H 	0.20690 0.44590 0.69440 0.06600
C 	C 	0.22450 0.36450 0.70360 -0.00200
H 	H 	0.19660 0.35630 0.72970 0.05000
C 	C 	0.26020 0.32440 0.68620 -0.07000
H 	H 	0.25650 0.28920 0.70180 0.05400
C 	C 	0.30200 0.33370 0.64630 0.00600
H 	H 	0.32560 0.30560 0.63460 0.05700
C 	C 	0.30650 0.38570 0.62520 -0.09700
H 	H 	0.33410 0.39400 0.59890 0.08900
N 	N 	0.54260 0.63890 0.43430 0.12000
O 	O 	0.54530 0.58850 0.43910 -0.07400
O 	O 	0.50310 0.65910 0.40890 -0.14300
O 	O 	0.56900 0.66760 0.46750 -0.10600
O 	O 	0.55860 0.59700 0.40940 -0.09300
O 	O 	0.54820 0.68350 0.40970 -0.15400
O 	O 	0.53950 0.63840 0.48670 -0.12100
N 	N 	0.67110 0.86360 0.49520 -0.14400
N 	N 	0.57880 0.79790 0.50470 -0.16600
N 	N 	0.68150 0.95490 0.56000 -0.16800
N 	N 	0.68160 0.00720 0.58620 -0.09800
C 	C 	0.66890 0.81670 0.46900 0.02000
H 	H 	0.69890 0.80500 0.44730 0.01900
C 	C 	0.62090 0.78250 0.47300 0.00500
H 	H 	0.61940 0.74930 0.45310 0.04900
C 	C 	0.58330 0.84500 0.53180 0.04800
H 	H 	0.55390 0.85640 0.55450 0.00100
C 	C 	0.62890 0.87850 0.52860 -0.06000
C 	C 	0.63280 0.93070 0.56000 0.24700
C 	C 	0.58250 0.95540 0.58780 -0.78400
H 	H 	0.59250 0.98930 0.60650 0.28700
H 	H 	0.55510 0.96270 0.55910 0.27700
H 	H 	0.56790 0.93000 0.61550 0.26100
C 	C 	0.72450 0.01680 0.61790 -0.01000
C 	C 	0.73040 0.07310 0.64290 0.04500
C 	C 	0.77000 0.08240 0.68210 -0.10800
H 	H 	0.79310 0.05410 0.69440 0.06700
C 	C 	0.77550 0.13550 0.70360 0.00400
H 	H 	0.80340 0.14370 0.72970 0.05100
C 	C 	0.73980 0.17560 0.68620 -0.07400
H 	H 	0.74350 0.21080 0.70180 0.05500
C 	C 	0.69800 0.16630 0.64630 0.01100
H 	H 	0.67440 0.19440 0.63460 0.05500
C 	C 	0.69350 0.11430 0.62520 -0.10200
H 	H 	0.66590 0.10600 0.59890 0.09100
N 	N 	0.45740 0.86110 0.43430 0.12000
O 	O 	0.45470 0.91150 0.43910 -0.07100
O 	O 	0.49690 0.84090 0.40890 -0.14300
O 	O 	0.43100 0.83240 0.46750 -0.10600
O 	O 	0.44140 0.90300 0.40940 -0.09200
O 	O 	0.45180 0.81650 0.40970 -0.15400
O 	O 	0.46050 0.86160 0.48670 -0.12000
N 	N 	0.17110 0.36360 0.99520 -0.12800
N 	N 	0.07880 0.29790 0.00470 -0.18900
N 	N 	0.18150 0.45490 0.06000 -0.17400
N 	N 	0.18160 0.50720 0.08620 -0.09400
C 	C 	0.16890 0.31670 0.96900 0.01100
H 	H 	0.19890 0.30500 0.94730 0.02500
C 	C 	0.12090 0.28250 0.97300 0.03200
H 	H 	0.11940 0.24930 0.95310 0.04200
C 	C 	0.08330 0.34500 0.03180 0.04700
H 	H 	0.05390 0.35640 0.05450 -0.01300
C 	C 	0.12890 0.37850 0.02860 -0.07800
C 	C 	0.13280 0.43070 0.06000 0.23100
C 	C 	0.08250 0.45540 0.08780 -0.73100
H 	H 	0.09250 0.48930 0.10650 0.26000
H 	H 	0.05510 0.46270 0.05910 0.24100
H 	H 	0.06790 0.43000 0.11550 0.23600
C 	C 	0.22450 0.51680 0.11790 0.00700
C 	C 	0.23040 0.57310 0.14290 0.03700
C 	C 	0.27000 0.58240 0.18210 -0.10200
H 	H 	0.29310 0.55410 0.19440 0.06800
C 	C 	0.27550 0.63550 0.20360 -0.00200
H 	H 	0.30340 0.64370 0.22970 0.05200
C 	C 	0.23980 0.67560 0.18620 -0.07000
H 	H 	0.24350 0.71080 0.20180 0.05400
C 	C 	0.19800 0.66630 0.14630 0.00500
H 	H 	0.17440 0.69440 0.13460 0.05600
C 	C 	0.19350 0.61430 0.12520 -0.09700
H 	H 	0.16590 0.60600 0.09890 0.08700
N 	N 	0.95740 0.36110 0.93430 0.10800
O 	O 	0.95470 0.41150 0.93910 -0.05200
O 	O 	0.99690 0.34090 0.90890 -0.10100
O 	O 	0.93100 0.33240 0.96750 -0.09800
O 	O 	0.94140 0.40300 0.90940 -0.09400
O 	O 	0.95180 0.31650 0.90970 -0.14200
O 	O 	0.96050 0.36160 0.98670 -0.09000
N 	N 	0.61360 0.07890 0.74520 -0.14600
N 	N 	0.54790 0.17120 0.75470 -0.16600
N 	N 	0.70490 0.06850 0.81000 -0.17600
N 	N 	0.75720 0.06840 0.83620 -0.09000
C 	C 	0.56670 0.08110 0.71900 0.02000
H 	H 	0.55500 0.05110 0.69730 0.01500
C 	C 	0.53250 0.12910 0.72300 0.00400
H 	H 	0.49930 0.13060 0.70310 0.04900
C 	C 	0.59500 0.16670 0.78180 0.04700
H 	H 	0.60640 0.19610 0.80450 0.00200
C 	C 	0.62850 0.12110 0.77860 -0.05900
C 	C 	0.68070 0.11720 0.81000 0.24100
C 	C 	0.70540 0.16750 0.83780 -0.77000
H 	H 	0.73930 0.15750 0.85650 0.27600
H 	H 	0.71270 0.19490 0.80910 0.26900
H 	H 	0.68000 0.18210 0.86550 0.25700
C 	C 	0.76680 0.02550 0.86790 -0.00800
C 	C 	0.82310 0.01960 0.89290 0.03500
C 	C 	0.83240 0.98000 0.93210 -0.09700
H 	H 	0.80410 0.95690 0.94440 0.07400
C 	C 	0.88550 0.97450 0.95360 0.04500
H 	H 	0.89370 0.94660 0.97970 0.05000
C 	C 	0.92560 0.01020 0.93620 -0.11000
H 	H 	0.96080 0.00650 0.95180 0.08500
C 	C 	0.91630 0.05200 0.89630 0.03400
H 	H 	0.94440 0.07560 0.88460 0.06200
C 	C 	0.86430 0.05650 0.87520 -0.10700
H 	H 	0.85600 0.08410 0.84890 0.09500
N 	N 	0.61110 0.29260 0.68430 0.12000
O 	O 	0.66150 0.29530 0.68910 -0.07400
O 	O 	0.59090 0.25310 0.65890 -0.14300
O 	O 	0.58240 0.31900 0.71750 -0.10600
O 	O 	0.65300 0.30860 0.65940 -0.09300
O 	O 	0.56650 0.29820 0.65970 -0.15400
O 	O 	0.61160 0.28950 0.73670 -0.12100
N 	N 	0.11360 0.57890 0.24520 -0.15700
N 	N 	0.04790 0.67120 0.25470 -0.14800
N 	N 	0.20490 0.56850 0.31000 -0.17300
N 	N 	0.25720 0.56840 0.33620 -0.09200
C 	C 	0.06670 0.58110 0.21900 0.07700
H 	H 	0.05500 0.55110 0.19730 -0.01200
C 	C 	0.03250 0.62910 0.22300 -0.12800
H 	H 	0.99930 0.63060 0.20310 0.14000
C 	C 	0.09500 0.66670 0.28180 0.03700
H 	H 	0.10640 0.69610 0.30450 0.00200
C 	C 	0.12850 0.62110 0.27860 -0.05100
C 	C 	0.18070 0.61720 0.31000 0.23600
C 	C 	0.20540 0.66750 0.33780 -0.76100
H 	H 	0.23930 0.65750 0.35650 0.27300
H 	H 	0.21270 0.69490 0.30910 0.26500
H 	H 	0.18000 0.68210 0.36550 0.25100
C 	C 	0.26680 0.52550 0.36790 0.00800
C 	C 	0.32310 0.51960 0.39290 0.03900
C 	C 	0.33240 0.48000 0.43210 -0.10300
H 	H 	0.30410 0.45690 0.44440 0.06800
C 	C 	0.38550 0.47450 0.45360 -0.00100
H 	H 	0.39370 0.44660 0.47970 0.05100
C 	C 	0.42560 0.51020 0.43620 -0.07100
H 	H 	0.46080 0.50650 0.45180 0.05400
C 	C 	0.41630 0.55200 0.39630 0.00700
H 	H 	0.44440 0.57560 0.38460 0.05700
C 	C 	0.36430 0.55650 0.37520 -0.09700
H 	H 	0.35600 0.58410 0.34890 0.09000
N 	N 	0.11110 0.79260 0.18430 0.12300
O 	O 	0.16150 0.79530 0.18910 -0.07400
O 	O 	0.09090 0.75310 0.15890 -0.14400
O 	O 	0.08240 0.81900 0.21750 -0.11100
O 	O 	0.15300 0.80860 0.15940 -0.09500
O 	O 	0.06650 0.79820 0.15970 -0.16400
O 	O 	0.11160 0.78950 0.23670 -0.12400
N 	N 	0.88640 0.92110 0.24520 -0.12900
N 	N 	0.95210 0.82880 0.25470 -0.17500
N 	N 	0.79510 0.93150 0.31000 -0.17000
N 	N 	0.74280 0.93160 0.33620 -0.09400
C 	C 	0.93330 0.91890 0.21900 -0.03600
H 	H 	0.94500 0.94890 0.19730 0.05400
C 	C 	0.96750 0.87090 0.22300 0.13900
H 	H 	0.00070 0.86940 0.20310 -0.03800
C 	C 	0.90500 0.83330 0.28180 0.05600
H 	H 	0.89360 0.80390 0.30450 0.00500
C 	C 	0.87150 0.87890 0.27860 -0.06400
C 	C 	0.81930 0.88280 0.31000 0.24400
C 	C 	0.79460 0.83250 0.33780 -0.77200
H 	H 	0.76070 0.84250 0.35650 0.27600
H 	H 	0.78730 0.80510 0.30910 0.26900
H 	H 	0.82000 0.81790 0.36550 0.25700
C 	C 	0.73320 0.97450 0.36790 0.02400
C 	C 	0.67690 0.98040 0.39290 0.04700
C 	C 	0.66760 0.02000 0.43210 -0.10900
H 	H 	0.69590 0.04310 0.44440 0.06700
C 	C 	0.61450 0.02550 0.45360 -0.03700
H 	H 	0.60630 0.05340 0.47970 0.06100
C 	C 	0.57440 0.98980 0.43620 -0.03000
H 	H 	0.53920 0.99350 0.45180 0.04600
C 	C 	0.58370 0.94800 0.39630 -0.01200
H 	H 	0.55560 0.92440 0.38460 0.06500
C 	C 	0.63570 0.94350 0.37520 -0.08600
H 	H 	0.64400 0.91590 0.34890 0.08700
N 	N 	0.88890 0.70740 0.18430 0.11400
O 	O 	0.83850 0.70470 0.18910 -0.07400
O 	O 	0.90910 0.74690 0.15890 -0.13500
O 	O 	0.91760 0.68100 0.21750 -0.09600
O 	O 	0.84700 0.69140 0.15940 -0.09100
O 	O 	0.93350 0.70180 0.15970 -0.13400
O 	O 	0.88840 0.71050 0.23670 -0.11400
N 	N 	0.38640 0.42110 0.74520 -0.14500
N 	N 	0.45210 0.32880 0.75470 -0.16600
N 	N 	0.29510 0.43150 0.81000 -0.17400
N 	N 	0.24280 0.43160 0.83620 -0.09300
C 	C 	0.43330 0.41890 0.71900 0.02000
H 	H 	0.44500 0.44890 0.69730 0.01900
C 	C 	0.46750 0.37090 0.72300 0.00500
H 	H 	0.50070 0.36940 0.70310 0.04900
C 	C 	0.40500 0.33330 0.78180 0.04700
H 	H 	0.39360 0.30390 0.80450 0.00200
C 	C 	0.37150 0.37890 0.77860 -0.05800
C 	C 	0.31930 0.38280 0.81000 0.24100
C 	C 	0.29460 0.33250 0.83780 -0.77000
H 	H 	0.26070 0.34250 0.85650 0.27600
H 	H 	0.28730 0.30510 0.80910 0.26900
H 	H 	0.32000 0.31790 0.86550 0.25700
C 	C 	0.23320 0.47450 0.86790 0.00900
C 	C 	0.17690 0.48040 0.89290 0.03700
C 	C 	0.16760 0.52000 0.93210 -0.09700
H 	H 	0.19590 0.54310 0.94440 0.07000
C 	C 	0.11450 0.52550 0.95360 -0.00700
H 	H 	0.10630 0.55340 0.97970 0.05800
C 	C 	0.07440 0.48980 0.93620 -0.06500
H 	H 	0.03920 0.49350 0.95180 0.03800
C 	C 	0.08370 0.44800 0.89630 0.00000
H 	H 	0.05560 0.42440 0.88460 0.04400
C 	C 	0.13570 0.44350 0.87520 -0.09600
H 	H 	0.14400 0.41590 0.84890 0.08700
N 	N 	0.38890 0.20740 0.68430 0.12000
O 	O 	0.33850 0.20470 0.68910 -0.07400
O 	O 	0.40910 0.24690 0.65890 -0.14300
O 	O 	0.41760 0.18100 0.71750 -0.10700
O 	O 	0.34700 0.19140 0.65940 -0.09300
O 	O 	0.43350 0.20180 0.65970 -0.15400
O 	O 	0.38840 0.21050 0.73670 -0.12100
N 	N 	0.67110 0.13640 0.00480 -0.16100
N 	N 	0.57880 0.20210 0.99530 -0.14800
N 	N 	0.68150 0.04510 0.94000 -0.17300
N 	N 	0.68160 0.99280 0.91380 -0.08500
C 	C 	0.66890 0.18330 0.03100 0.02900
H 	H 	0.69890 0.19500 0.05270 0.01300
C 	C 	0.62090 0.21750 0.02700 -0.02400
H 	H 	0.61940 0.25070 0.04690 0.05600
C 	C 	0.58330 0.15500 0.96820 0.04000
H 	H 	0.55390 0.14360 0.94550 0.00600
C 	C 	0.62890 0.12150 0.97140 -0.03400
C 	C 	0.63280 0.06930 0.94000 0.23100
C 	C 	0.58250 0.04460 0.91220 -0.74900
H 	H 	0.59250 0.01070 0.89350 0.26300
H 	H 	0.55510 0.03730 0.94090 0.26200
H 	H 	0.56790 0.07000 0.88450 0.24700
C 	C 	0.72450 0.98320 0.88210 0.02700
C 	C 	0.73040 0.92690 0.85710 0.03700
C 	C 	0.77000 0.91760 0.81790 -0.09900
H 	H 	0.79310 0.94590 0.80560 0.07300
C 	C 	0.77550 0.86450 0.79640 -0.00100
H 	H 	0.80340 0.85630 0.77030 0.05400
C 	C 	0.73980 0.82440 0.81380 -0.06800
H 	H 	0.74350 0.78920 0.79820 0.05400
C 	C 	0.69800 0.83370 0.85370 0.00600
H 	H 	0.67440 0.80560 0.86540 0.05800
C 	C 	0.69350 0.88570 0.87480 -0.09300
H 	H 	0.66590 0.89400 0.90110 0.09100
N 	N 	0.45740 0.13890 0.06570 0.12400
O 	O 	0.45470 0.08850 0.06090 -0.08300
O 	O 	0.49690 0.15910 0.09110 -0.14600
O 	O 	0.43100 0.16760 0.03250 -0.11100
O 	O 	0.44140 0.09700 0.09060 -0.09200
O 	O 	0.45180 0.18350 0.09030 -0.15600
O 	O 	0.46050 0.13840 0.01330 -0.13100
N 	N 	0.17110 0.63640 0.50480 -0.14500
N 	N 	0.07880 0.70210 0.49530 -0.17100
N 	N 	0.18150 0.54510 0.44000 -0.17100
N 	N 	0.18160 0.49280 0.41380 -0.09200
C 	C 	0.16890 0.68330 0.53100 0.01900
H 	H 	0.19890 0.69500 0.55270 0.01900
C 	C 	0.12090 0.71750 0.52700 0.00300
H 	H 	0.11940 0.75070 0.54690 0.04900
C 	C 	0.08330 0.65500 0.46820 0.04200
H 	H 	0.05390 0.64360 0.44550 -0.00900
C 	C 	0.12890 0.62150 0.47140 -0.05600
C 	C 	0.13280 0.56930 0.44000 0.22900
C 	C 	0.08250 0.54460 0.41220 -0.73100
H 	H 	0.09250 0.51070 0.39350 0.26100
H 	H 	0.05510 0.53730 0.44090 0.24500
H 	H 	0.06790 0.57000 0.38450 0.23600
C 	C 	0.22450 0.48320 0.38210 0.00800
C 	C 	0.23040 0.42690 0.35710 0.03900
C 	C 	0.27000 0.41760 0.31790 -0.10300
H 	H 	0.29310 0.44590 0.30560 0.06800
C 	C 	0.27550 0.36450 0.29640 -0.00100
H 	H 	0.30340 0.35630 0.27030 0.05100
C 	C 	0.23980 0.32440 0.31380 -0.07000
H 	H 	0.24350 0.28920 0.29820 0.05400
C 	C 	0.19800 0.33370 0.35370 0.00700
H 	H 	0.17440 0.30560 0.36540 0.05700
C 	C 	0.19350 0.38570 0.37480 -0.09700
H 	H 	0.16590 0.39400 0.40110 0.08900
N 	N 	0.95740 0.63890 0.56570 0.11000
O 	O 	0.95470 0.58850 0.56090 -0.05800
O 	O 	0.99690 0.65910 0.59110 -0.10400
O 	O 	0.93100 0.66760 0.53250 -0.10200
O 	O 	0.94140 0.59700 0.59060 -0.09300
O 	O 	0.95180 0.68350 0.59030 -0.14400
O 	O 	0.96050 0.63840 0.51330 -0.09900
N 	N 	0.82890 0.86360 0.50480 -0.14400
N 	N 	0.92120 0.79790 0.49530 -0.15200
N 	N 	0.81850 0.95490 0.44000 -0.17000
N 	N 	0.81840 0.00720 0.41380 -0.09800
C 	C 	0.83110 0.81670 0.53100 0.02100
H 	H 	0.80110 0.80500 0.55270 0.01900
C 	C 	0.87910 0.78250 0.52700 0.00800
H 	H 	0.88060 0.74930 0.54690 0.05300
C 	C 	0.91670 0.84500 0.46820 0.05200
H 	H 	0.94610 0.85640 0.44550 0.01500
C 	C 	0.87110 0.87850 0.47140 -0.06100
C 	C 	0.86720 0.93070 0.44000 0.25800
C 	C 	0.91750 0.95540 0.41220 -0.81900
H 	H 	0.90750 0.98930 0.39350 0.30000
H 	H 	0.94490 0.96270 0.44090 0.29900
H 	H 	0.93210 0.93000 0.38450 0.28000
C 	C 	0.77550 0.01680 0.38210 -0.01000
C 	C 	0.76960 0.07310 0.35710 0.04400
C 	C 	0.73000 0.08240 0.31790 -0.10800
H 	H 	0.70690 0.05410 0.30560 0.06500
C 	C 	0.72450 0.13550 0.29640 0.00300
H 	H 	0.69660 0.14370 0.27030 0.05000
C 	C 	0.76020 0.17560 0.31380 -0.07400
H 	H 	0.75650 0.21080 0.29820 0.05500
C 	C 	0.80200 0.16630 0.35370 0.01000
H 	H 	0.82560 0.19440 0.36540 0.05600
C 	C 	0.80650 0.11430 0.37480 -0.10200
H 	H 	0.83410 0.10600 0.40110 0.09100
N 	N 	0.04260 0.86110 0.56570 0.12600
O 	O 	0.04530 0.91150 0.56090 -0.08600
O 	O 	0.00310 0.84090 0.59110 -0.17400
O 	O 	0.06900 0.83240 0.53250 -0.10600
O 	O 	0.05860 0.90300 0.59060 -0.09200
O 	O 	0.04820 0.81650 0.59030 -0.15400
O 	O 	0.03950 0.86160 0.51330 -0.13700
N 	N 	0.32890 0.36360 0.00480 -0.16000
N 	N 	0.42120 0.29790 0.99530 -0.14800
N 	N 	0.31850 0.45490 0.94000 -0.16800
N 	N 	0.31840 0.50720 0.91380 -0.09000
C 	C 	0.33110 0.31670 0.03100 0.02900
H 	H 	0.30110 0.30500 0.05270 0.01300
C 	C 	0.37910 0.28250 0.02700 -0.02400
H 	H 	0.38060 0.24930 0.04690 0.05600
C 	C 	0.41670 0.34500 0.96820 0.04100
H 	H 	0.44610 0.35640 0.94550 0.00600
C 	C 	0.37110 0.37850 0.97140 -0.03600
C 	C 	0.36720 0.43070 0.94000 0.23800
C 	C 	0.41750 0.45540 0.91220 -0.76600
H 	H 	0.40750 0.48930 0.89350 0.27500
H 	H 	0.44490 0.46270 0.94090 0.27100
H 	H 	0.43210 0.43000 0.88450 0.25400
C 	C 	0.27550 0.51680 0.88210 0.00800
C 	C 	0.26960 0.57310 0.85710 0.04000
C 	C 	0.23000 0.58240 0.81790 -0.10400
H 	H 	0.20690 0.55410 0.80560 0.06600
C 	C 	0.22450 0.63550 0.79640 -0.00100
H 	H 	0.19660 0.64370 0.77030 0.05000
C 	C 	0.26020 0.67560 0.81380 -0.07100
H 	H 	0.25650 0.71080 0.79820 0.05400
C 	C 	0.30200 0.66630 0.85370 0.00800
H 	H 	0.32560 0.69440 0.86540 0.05700
C 	C 	0.30650 0.61430 0.87480 -0.09700
H 	H 	0.33410 0.60600 0.90110 0.09200
N 	N 	0.54260 0.36110 0.06570 0.12300
O 	O 	0.54530 0.41150 0.06090 -0.08000
O 	O 	0.50310 0.34090 0.09110 -0.14600
O 	O 	0.56900 0.33240 0.03250 -0.11100
O 	O 	0.55860 0.40300 0.09060 -0.09100
O 	O 	0.54820 0.31650 0.09030 -0.15600
O 	O 	0.53950 0.36160 0.01330 -0.13000
N 	N 	0.88640 0.07890 0.25480 -0.13400
N 	N 	0.95210 0.17120 0.24530 -0.17500
N 	N 	0.79510 0.06850 0.19000 -0.17600
N 	N 	0.74280 0.06840 0.16380 -0.09100
C 	C 	0.93330 0.08110 0.28100 -0.03600
H 	H 	0.94500 0.05110 0.30270 0.04500
C 	C 	0.96750 0.12910 0.27700 0.13600
H 	H 	0.00070 0.13060 0.29690 -0.03900
C 	C 	0.90500 0.16670 0.21820 0.05500
H 	H 	0.89360 0.19610 0.19550 0.00400
C 	C 	0.87150 0.12110 0.22140 -0.06500
C 	C 	0.81930 0.11720 0.19000 0.24200
C 	C 	0.79460 0.16750 0.16220 -0.76900
H 	H 	0.76070 0.15750 0.14350 0.27400
H 	H 	0.78730 0.19490 0.19090 0.26800
H 	H 	0.82000 0.18210 0.13450 0.25500
C 	C 	0.73320 0.02550 0.13210 -0.00900
C 	C 	0.67690 0.01960 0.10710 0.03000
C 	C 	0.66760 0.98000 0.06790 -0.09900
H 	H 	0.69590 0.95690 0.05560 0.06500
C 	C 	0.61450 0.97450 0.04640 0.03300
H 	H 	0.60630 0.94660 0.02030 0.03500
C 	C 	0.57440 0.01020 0.06380 -0.11300
H 	H 	0.53920 0.00650 0.04820 0.05800
C 	C 	0.58370 0.05200 0.10370 0.02400
H 	H 	0.55560 0.07560 0.11540 0.04800
C 	C 	0.63570 0.05650 0.12480 -0.10800
H 	H 	0.64400 0.08410 0.15110 0.09300
N 	N 	0.88890 0.29260 0.31570 0.11400
O 	O 	0.83850 0.29530 0.31090 -0.07400
O 	O 	0.90910 0.25310 0.34110 -0.13500
O 	O 	0.91760 0.31900 0.28250 -0.09600
O 	O 	0.84700 0.30860 0.34060 -0.09100
O 	O 	0.93350 0.29820 0.34030 -0.13400
O 	O 	0.88840 0.28950 0.26330 -0.11400
N 	N 	0.38640 0.57890 0.75480 -0.14500
N 	N 	0.45210 0.67120 0.74530 -0.16600
N 	N 	0.29510 0.56850 0.69000 -0.17300
N 	N 	0.24280 0.56840 0.66380 -0.09300
C 	C 	0.43330 0.58110 0.78100 0.02000
H 	H 	0.44500 0.55110 0.80270 0.01900
C 	C 	0.46750 0.62910 0.77700 0.00500
H 	H 	0.50070 0.63060 0.79690 0.04900
C 	C 	0.40500 0.66670 0.71820 0.04700
H 	H 	0.39360 0.69610 0.69550 0.00100
C 	C 	0.37150 0.62110 0.72140 -0.05800
C 	C 	0.31930 0.61720 0.69000 0.24000
C 	C 	0.29460 0.66750 0.66220 -0.76600
H 	H 	0.26070 0.65750 0.64350 0.27400
H 	H 	0.28730 0.69490 0.69090 0.26700
H 	H 	0.32000 0.68210 0.63450 0.25400
C 	C 	0.23320 0.52550 0.63210 0.00800
C 	C 	0.17690 0.51960 0.60710 0.03600
C 	C 	0.16760 0.48000 0.56790 -0.10000
H 	H 	0.19590 0.45690 0.55560 0.06600
C 	C 	0.11450 0.47450 0.54640 -0.00900
H 	H 	0.10630 0.44660 0.52030 0.05100
C 	C 	0.07440 0.51020 0.56380 -0.06800
H 	H 	0.03920 0.50650 0.54820 0.03400
C 	C 	0.08370 0.55200 0.60370 -0.00100
H 	H 	0.05560 0.57560 0.61540 0.04400
C 	C 	0.13570 0.55650 0.62480 -0.09700
H 	H 	0.14400 0.58410 0.65110 0.08700
N 	N 	0.38890 0.79260 0.81570 0.12000
O 	O 	0.33850 0.79530 0.81090 -0.07400
O 	O 	0.40910 0.75310 0.84110 -0.14300
O 	O 	0.41760 0.81900 0.78250 -0.10600
O 	O 	0.34700 0.80860 0.84060 -0.09200
O 	O 	0.43350 0.79820 0.84030 -0.15400
O 	O 	0.38840 0.78950 0.76330 -0.12100
N 	N 	0.61360 0.92110 0.75480 -0.14100
N 	N 	0.54790 0.82880 0.74530 -0.16600
N 	N 	0.70490 0.93150 0.69000 -0.16900
N 	N 	0.75720 0.93160 0.66380 -0.09400
C 	C 	0.56670 0.91890 0.78100 0.02000
H 	H 	0.55500 0.94890 0.80270 0.02400
C 	C 	0.53250 0.87090 0.77700 0.00600
H 	H 	0.49930 0.86940 0.79690 0.04900
C 	C 	0.59500 0.83330 0.71820 0.04700
H 	H 	0.60640 0.80390 0.69550 0.00100
C 	C 	0.62850 0.87890 0.72140 -0.05700
C 	C 	0.68070 0.88280 0.69000 0.24000
C 	C 	0.70540 0.83250 0.66220 -0.76500
H 	H 	0.73930 0.84250 0.64350 0.27400
H 	H 	0.71270 0.80510 0.69090 0.26700
H 	H 	0.68000 0.81790 0.63450 0.25400
C 	C 	0.76680 0.97450 0.63210 0.02300
C 	C 	0.82310 0.98040 0.60710 0.05100
C 	C 	0.83240 0.02000 0.56790 -0.11300
H 	H 	0.80410 0.04310 0.55560 0.06900
C 	C 	0.88550 0.02550 0.54640 -0.02700
H 	H 	0.89370 0.05340 0.52030 0.06100
C 	C 	0.92560 0.98980 0.56380 -0.03300
H 	H 	0.96080 0.99350 0.54820 0.06600
C 	C 	0.91630 0.94800 0.60370 -0.00400
H 	H 	0.94440 0.92440 0.61540 0.07800
C 	C 	0.86430 0.94350 0.62480 -0.08700
H 	H 	0.85600 0.91590 0.65110 0.08900
N 	N 	0.61110 0.70740 0.81570 0.12000
O 	O 	0.66150 0.70470 0.81090 -0.07400
O 	O 	0.59090 0.74690 0.84110 -0.14300
O 	O 	0.58240 0.68100 0.78250 -0.10600
O 	O 	0.65300 0.69140 0.84060 -0.09300
O 	O 	0.56650 0.70180 0.84030 -0.15400
O 	O 	0.61160 0.71050 0.76330 -0.12100
N 	N 	0.11360 0.42110 0.25480 -0.15800
N 	N 	0.04790 0.32880 0.24530 -0.14800
N 	N 	0.20490 0.43150 0.19000 -0.17200
N 	N 	0.25720 0.43160 0.16380 -0.09200
C 	C 	0.06670 0.41890 0.28100 0.07700
H 	H 	0.05500 0.44890 0.30270 -0.01200
C 	C 	0.03250 0.37090 0.27700 -0.12800
H 	H 	0.99930 0.36940 0.29690 0.14100
C 	C 	0.09500 0.33330 0.21820 0.03700
H 	H 	0.10640 0.30390 0.19550 0.00100
C 	C 	0.12850 0.37890 0.22140 -0.05000
C 	C 	0.18070 0.38280 0.19000 0.23500
C 	C 	0.20540 0.33250 0.16220 -0.75700
H 	H 	0.23930 0.34250 0.14350 0.27100
H 	H 	0.21270 0.30510 0.19090 0.26400
H 	H 	0.18000 0.31790 0.13450 0.24900
C 	C 	0.26680 0.47450 0.13210 0.00700
C 	C 	0.32310 0.48040 0.10710 0.03900
C 	C 	0.33240 0.52000 0.06790 -0.10600
H 	H 	0.30410 0.54310 0.05560 0.06500
C 	C 	0.38550 0.52550 0.04640 -0.00200
H 	H 	0.39370 0.55340 0.02030 0.04400
C 	C 	0.42560 0.48980 0.06380 -0.07300
H 	H 	0.46080 0.49350 0.04820 0.05000
C 	C 	0.41630 0.44800 0.10370 0.00600
H 	H 	0.44440 0.42440 0.11540 0.05600
C 	C 	0.36430 0.44350 0.12480 -0.09800
H 	H 	0.35600 0.41590 0.15110 0.09000
N 	N 	0.11110 0.20740 0.31570 0.12400
O 	O 	0.16150 0.20470 0.31090 -0.07400
O 	O 	0.09090 0.24690 0.34110 -0.14400
O 	O 	0.08240 0.18100 0.28250 -0.11300
O 	O 	0.15300 0.19140 0.34060 -0.09500
O 	O 	0.06650 0.20180 0.34030 -0.16400
O 	O 	0.11160 0.21050 0.26330 -0.12400
Ag	Ag	0.25000 0.92089 -0.00000 0.53800
Ag	Ag	0.75000 0.42089 0.50000 0.54600
Ag	Ag	0.25000 0.07911 0.50000 0.54300
Ag	Ag	0.75000 0.57911 -0.00000 0.53500
Ag	Ag	0.32911 0.00000 0.25000 0.53700
Ag	Ag	0.82911 0.50000 0.75000 0.54600
Ag	Ag	0.17089 0.00000 0.75000 0.53700
Ag	Ag	0.67089 0.50000 0.25000 0.54600
Ag	Ag	0.75000 0.07911 -0.00000 0.53300
Ag	Ag	0.25000 0.57911 0.50000 0.54600
Ag	Ag	0.75000 0.92089 0.50000 0.54800
Ag	Ag	0.25000 0.42089 -0.00000 0.53600
Ag	Ag	0.67089 0.00000 0.75000 0.53700
Ag	Ag	0.17089 0.50000 0.25000 0.54600
Ag	Ag	0.82911 0.00000 0.25000 0.53700
Ag	Ag	0.32911 0.50000 0.75000 0.54600
Ag	Ag	-0.00000 0.75000 0.99376 0.52300
Ag	Ag	0.50000 0.25000 0.49376 0.54100
Ag	Ag	0.50000 0.75000 0.24376 0.54100
Ag	Ag	0.00000 0.25000 0.74376 0.51300
Ag	Ag	0.50000 0.75000 0.00624 0.53100
Ag	Ag	-0.00000 0.25000 0.50624 0.51300
Ag	Ag	-0.00000 0.75000 0.75624 0.51400
Ag	Ag	0.50000 0.25000 0.25624 0.54100
Ag	Ag	-0.00000 0.25000 0.00624 0.50400
Ag	Ag	0.50000 0.75000 0.50624 0.54100
Ag	Ag	0.50000 0.25000 0.75624 0.54100
Ag	Ag	-0.00000 0.75000 0.25624 0.51300
Ag	Ag	0.50000 0.25000 0.99376 0.55100
Ag	Ag	-0.00000 0.75000 0.49376 0.51300
Ag	Ag	-0.00000 0.25000 0.24376 0.51300
Ag	Ag	0.50000 0.75000 0.74376 0.54100
Ag	Ag	-0.00000 0.75000 0.12500 0.57200
Ag	Ag	0.50000 0.25000 0.62500 0.60300
Ag	Ag	0.50000 0.75000 0.37500 0.60300
Ag	Ag	0.00000 0.25000 0.87500 0.57500
Ag	Ag	0.50000 0.75000 0.87500 0.60400
Ag	Ag	-0.00000 0.25000 0.37500 0.57300
Ag	Ag	0.00000 0.75000 0.62500 0.57300
Ag	Ag	0.50000 0.25000 0.12500 0.60100
