data_crystal

_cell_length_a 10.14170
_cell_length_b 14.22380
_cell_length_c 10.54740
_cell_angle_alpha 91.79500
_cell_angle_beta  90.00000
_cell_angle_gamma 90.00000

_symmetry_space_group_name_	'P 1'
_symmetry_space_group_name_H-M	'P 1'

loop_
_symmetry_equiv_pos_as_xyz
  x,y,z

loop_
_atom_site_label
_atom_site_type_symbol
_atom_site_fract_x
_atom_site_fract_y
_atom_site_fract_z
_atom_site_charge
Cu	Cu	0.84576 0.00095 0.23646 0.87300
Cu	Cu	0.50226 0.89868 0.47415 0.90100
Cu	Cu	0.34576 0.99905 0.26354 0.94000
Cu	Cu	0.00226 0.10132 0.02585 0.77300
Cu	Cu	0.15424 0.99905 0.76354 0.94300
Cu	Cu	0.49774 0.10132 0.52585 0.86200
Cu	Cu	0.65424 0.00095 0.73646 0.88000
Cu	Cu	0.99774 0.89868 0.97415 0.96700
Cu	Cu	-0.00000 0.50000 0.50000 0.91800
Cu	Cu	0.50000 0.50000 -0.00000 0.90100
Cu	Cu	-0.00000 -0.00000 0.50000 0.84400
Cu	Cu	0.50000 0.00000 -0.00000 0.82700
Cu	Cu	-0.00000 0.50000 -0.00000 0.85100
Cu	Cu	0.50000 0.50000 0.50000 0.94300
H 	H 	0.82300 0.06400 0.42500 0.67200
H 	H 	0.82300 0.99700 0.01700 0.47300
H 	H 	0.87800 0.68400 0.34500 -0.00700
H 	H 	0.06500 0.74000 0.19900 0.17500
H 	H 	0.23700 0.68000 0.28700 0.03100
H 	H 	0.18000 0.71800 0.53800 0.06100
H 	H 	0.32300 0.93600 0.07500 0.60200
H 	H 	0.32300 0.00300 0.48300 0.47300
H 	H 	0.37800 0.31600 0.15500 0.01000
H 	H 	0.56500 0.26000 0.30100 0.13400
H 	H 	0.73700 0.32000 0.21300 0.07200
H 	H 	0.68000 0.28200 0.96200 0.18300
H 	H 	0.17700 0.93600 0.57500 0.63600
H 	H 	0.17700 0.00300 0.98300 0.52000
H 	H 	0.12200 0.31600 0.65500 0.08500
H 	H 	0.93500 0.26000 0.80100 0.05500
H 	H 	0.76300 0.32000 0.71300 0.13100
H 	H 	0.82000 0.28200 0.46200 0.05100
H 	H 	0.67700 0.06400 0.92500 0.70000
H 	H 	0.67700 0.99700 0.51700 0.51700
H 	H 	0.62200 0.68400 0.84500 0.06600
H 	H 	0.43500 0.74000 0.69900 0.09900
H 	H 	0.26300 0.68000 0.78700 0.09100
H 	H 	0.32000 0.71800 0.03800 -0.07200
C 	C 	0.97210 0.66696 0.33580 0.19000
C 	C 	0.05740 0.74399 0.27990 -0.47100
C 	C 	0.19260 0.72375 0.33810 -0.00300
C 	C 	0.16180 0.67570 0.46300 -0.04300
C 	C 	0.98180 0.57419 0.25910 0.38500
C 	C 	0.99960 0.83910 0.31960 0.62900
C 	C 	0.28220 0.80884 0.35280 0.33600
C 	C 	0.24360 0.58624 0.48230 0.33600
C 	C 	0.47210 0.33304 0.16420 0.02500
C 	C 	0.55740 0.25601 0.22010 -0.23200
C 	C 	0.69260 0.27625 0.16190 -0.05300
C 	C 	0.66180 0.32430 0.03700 -0.15300
C 	C 	0.48180 0.42581 0.24090 0.32000
C 	C 	0.49960 0.16090 0.18040 0.42200
C 	C 	0.78220 0.19116 0.14720 0.34400
C 	C 	0.74360 0.41376 0.01770 0.21500
C 	C 	0.02790 0.33304 0.66420 -0.18600
C 	C 	0.94260 0.25601 0.72010 0.10600
C 	C 	0.80740 0.27625 0.66190 -0.20500
C 	C 	0.83820 0.32430 0.53700 0.00400
C 	C 	0.01820 0.42581 0.74090 0.26400
C 	C 	0.00040 0.16090 0.68040 0.16500
C 	C 	0.71780 0.19116 0.64720 0.40400
C 	C 	0.75640 0.41376 0.51770 0.32500
C 	C 	0.52790 0.66696 0.83580 -0.01900
C 	C 	0.44260 0.74399 0.77990 -0.13700
C 	C 	0.30740 0.72375 0.83810 -0.15400
C 	C 	0.33820 0.67570 0.96300 0.11600
C 	C 	0.51820 0.57419 0.75910 0.32700
C 	C 	0.50040 0.83910 0.81960 0.37700
C 	C 	0.21780 0.80884 0.85280 0.39300
C 	C 	0.25640 0.58624 0.98230 0.44500
O 	O 	0.02191 0.65649 0.46266 -0.30900
O 	O 	0.01526 0.50104 0.31305 -0.46500
O 	O 	0.95516 0.58129 0.14385 -0.38600
O 	O 	0.92496 0.87522 0.23955 -0.50000
O 	O 	0.02680 0.87094 0.42871 -0.52600
O 	O 	0.27266 0.86910 0.26954 -0.46800
O 	O 	0.36114 0.80975 0.44521 -0.43300
O 	O 	0.36352 0.59449 0.46428 -0.37900
O 	O 	0.18787 0.51273 0.51920 -0.40400
O 	O 	0.83324 0.01860 0.41868 -1.18300
O 	O 	0.88401 0.99403 0.05244 -0.93800
O 	O 	0.52191 0.34351 0.03734 -0.25800
O 	O 	0.51526 0.49896 0.18695 -0.38900
O 	O 	0.45516 0.41871 0.35615 -0.38700
O 	O 	0.42496 0.12478 0.26045 -0.52400
O 	O 	0.52680 0.12906 0.07129 -0.51100
O 	O 	0.77266 0.13090 0.23046 -0.47700
O 	O 	0.86114 0.19025 0.05479 -0.46200
O 	O 	0.86352 0.40551 0.03572 -0.34600
O 	O 	0.68787 0.48727 0.98080 -0.24400
O 	O 	0.33324 0.98140 0.08132 -1.09600
O 	O 	0.38401 0.00597 0.44756 -1.06300
O 	O 	0.97809 0.34351 0.53734 -0.15300
O 	O 	0.98474 0.49896 0.68695 -0.27600
O 	O 	0.04484 0.41871 0.85615 -0.33800
O 	O 	0.07504 0.12478 0.76045 -0.43700
O 	O 	0.97320 0.12906 0.57129 -0.32900
O 	O 	0.72734 0.13090 0.73046 -0.46900
O 	O 	0.63886 0.19025 0.55479 -0.46800
O 	O 	0.63648 0.40551 0.53572 -0.37000
O 	O 	0.81213 0.48727 0.48080 -0.36400
O 	O 	0.16676 0.98140 0.58132 -1.07600
O 	O 	0.11599 0.00597 0.94756 -1.05600
O 	O 	0.47809 0.65649 0.96266 -0.20300
O 	O 	0.48474 0.50104 0.81305 -0.34200
O 	O 	0.54484 0.58129 0.64385 -0.37800
O 	O 	0.57504 0.87522 0.73955 -0.42300
O 	O 	0.47320 0.87094 0.92871 -0.35000
O 	O 	0.22734 0.86910 0.76954 -0.46100
O 	O 	0.13886 0.80975 0.94521 -0.43200
O 	O 	0.13648 0.59449 0.96428 -0.36500
O 	O 	0.31213 0.51273 0.01920 -0.51700
O 	O 	0.66676 0.01860 0.91868 -1.14800
O 	O 	0.61599 0.99403 0.55244 -0.95000
