data_crystal

_cell_length_a 10.16630
_cell_length_b 14.26040
_cell_length_c 10.56370
_cell_angle_alpha 91.80300
_cell_angle_beta  90.00000
_cell_angle_gamma 90.00000

_symmetry_space_group_name_	'P 1'
_symmetry_space_group_name_H-M	'P 1'

loop_
_symmetry_equiv_pos_as_xyz
  x,y,z

loop_
_atom_site_label
_atom_site_type_symbol
_atom_site_fract_x
_atom_site_fract_y
_atom_site_fract_z
_atom_site_charge
Cu	Cu	0.84576 0.00098 0.23643 0.87800
Cu	Cu	0.50224 0.89868 0.47432 0.92300
Cu	Cu	0.34576 0.99902 0.26357 0.94700
Cu	Cu	0.00224 0.10132 0.02568 0.79200
Cu	Cu	0.15424 0.99902 0.76357 0.95000
Cu	Cu	0.49776 0.10132 0.52568 0.88300
Cu	Cu	0.65424 0.00098 0.73643 0.88500
Cu	Cu	0.99776 0.89868 0.97432 0.98900
Cu	Cu	0.00000 0.50000 0.50000 0.91600
Cu	Cu	0.50000 0.50000 -0.00000 0.90000
Cu	Cu	-0.00000 0.50000 -0.00000 0.84800
Cu	Cu	0.50000 0.50000 0.50000 0.94200
Cu	Cu	0.00000 0.00000 0.50000 0.84100
Cu	Cu	0.50000 0.00000 -0.00000 0.82400
H 	H 	0.87600 0.68600 0.34900 0.00600
H 	H 	0.06500 0.73900 0.19300 0.11800
H 	H 	0.23700 0.68200 0.28900 0.04700
H 	H 	0.17500 0.71900 0.53900 0.05800
H 	H 	0.83100 0.99600 0.01900 0.75400
H 	H 	0.81900 0.06500 0.42000 0.58300
H 	H 	0.37600 0.31400 0.15100 0.01400
H 	H 	0.56500 0.26100 0.30700 0.10100
H 	H 	0.73700 0.31800 0.21100 0.08500
H 	H 	0.67500 0.28100 0.96100 0.17800
H 	H 	0.33100 0.00400 0.48100 0.78500
H 	H 	0.31900 0.93500 0.08000 0.52400
H 	H 	0.12400 0.31400 0.65100 0.07600
H 	H 	0.93500 0.26100 0.80700 0.05800
H 	H 	0.76300 0.31800 0.71100 0.13900
H 	H 	0.82500 0.28100 0.46100 0.05100
H 	H 	0.16900 0.00400 0.98100 0.83600
H 	H 	0.18100 0.93500 0.58000 0.55500
H 	H 	0.62400 0.68600 0.84900 0.06800
H 	H 	0.43500 0.73900 0.69300 0.07600
H 	H 	0.26300 0.68200 0.78900 0.10200
H 	H 	0.32500 0.71900 0.03900 -0.07000
H 	H 	0.66900 0.99600 0.51900 0.80600
H 	H 	0.68100 0.06500 0.92000 0.60900
C 	C 	0.97250 0.66703 0.33590 0.15500
C 	C 	0.05780 0.74402 0.27970 -0.37400
C 	C 	0.19230 0.72372 0.33850 -0.04300
C 	C 	0.16180 0.67577 0.46310 -0.03200
C 	C 	0.98220 0.57448 0.25900 0.39300
C 	C 	0.99960 0.83943 0.32010 0.59500
C 	C 	0.28250 0.80878 0.35310 0.34500
C 	C 	0.24370 0.58662 0.48250 0.32900
C 	C 	0.47250 0.33297 0.16410 0.00700
C 	C 	0.55780 0.25598 0.22030 -0.16800
C 	C 	0.69230 0.27628 0.16150 -0.08400
C 	C 	0.66180 0.32423 0.03690 -0.14000
C 	C 	0.48220 0.42552 0.24100 0.32100
C 	C 	0.49960 0.16057 0.17990 0.39600
C 	C 	0.78250 0.19122 0.14690 0.35100
C 	C 	0.74370 0.41338 0.01750 0.21000
C 	C 	0.02750 0.33297 0.66410 -0.17600
C 	C 	0.94220 0.25598 0.72030 0.11400
C 	C 	0.80770 0.27628 0.66150 -0.21800
C 	C 	0.83820 0.32423 0.53690 0.01000
C 	C 	0.01780 0.42552 0.74100 0.25500
C 	C 	0.00040 0.16057 0.67990 0.15400
C 	C 	0.71750 0.19122 0.64690 0.40400
C 	C 	0.75630 0.41338 0.51750 0.32100
C 	C 	0.52750 0.66703 0.83590 -0.02800
C 	C 	0.44220 0.74402 0.77970 -0.09300
C 	C 	0.30770 0.72372 0.83850 -0.17700
C 	C 	0.33820 0.67577 0.96310 0.11900
C 	C 	0.51780 0.57448 0.75900 0.32500
C 	C 	0.50040 0.83943 0.82010 0.35700
C 	C 	0.21750 0.80878 0.85310 0.39600
C 	C 	0.25630 0.58662 0.98250 0.44000
O 	O 	0.02175 0.65634 0.46267 -0.30800
O 	O 	0.01536 0.50084 0.31320 -0.46600
O 	O 	0.95555 0.58129 0.14400 -0.38600
O 	O 	0.92538 0.87536 0.23954 -0.48200
O 	O 	0.02636 0.87090 0.42901 -0.51800
O 	O 	0.27260 0.86919 0.26964 -0.46800
O 	O 	0.36102 0.80984 0.44555 -0.43200
O 	O 	0.36329 0.59443 0.46410 -0.37700
O 	O 	0.18788 0.51302 0.51940 -0.40100
O 	O 	0.88367 0.99391 0.05254 -1.25700
O 	O 	0.83338 0.01864 0.41882 -1.09200
O 	O 	0.52175 0.34366 0.03733 -0.26000
O 	O 	0.51536 0.49916 0.18680 -0.38800
O 	O 	0.45555 0.41871 0.35600 -0.38700
O 	O 	0.42538 0.12464 0.26046 -0.50900
O 	O 	0.52636 0.12910 0.07099 -0.50100
O 	O 	0.77260 0.13081 0.23036 -0.47500
O 	O 	0.86102 0.19016 0.05445 -0.46000
O 	O 	0.86329 0.40557 0.03590 -0.34300
O 	O 	0.68788 0.48698 0.98060 -0.24200
O 	O 	0.38367 0.00609 0.44746 -1.41400
O 	O 	0.33338 0.98136 0.08118 -1.01900
O 	O 	0.97825 0.34366 0.53733 -0.15500
O 	O 	0.98464 0.49916 0.68680 -0.27000
O 	O 	0.04445 0.41871 0.85600 -0.33700
O 	O 	0.07462 0.12464 0.76046 -0.42700
O 	O 	0.97364 0.12910 0.57099 -0.32100
O 	O 	0.72740 0.13081 0.73036 -0.46600
O 	O 	0.63898 0.19016 0.55445 -0.46400
O 	O 	0.63671 0.40557 0.53590 -0.36800
O 	O 	0.81212 0.48698 0.48060 -0.36100
O 	O 	0.11633 0.00609 0.94746 -1.41600
O 	O 	0.16662 0.98136 0.58118 -0.99700
O 	O 	0.47825 0.65634 0.96267 -0.20300
O 	O 	0.48464 0.50084 0.81320 -0.34000
O 	O 	0.54445 0.58129 0.64400 -0.37700
O 	O 	0.57462 0.87536 0.73954 -0.41100
O 	O 	0.47364 0.87090 0.92901 -0.34300
O 	O 	0.22740 0.86919 0.76964 -0.45900
O 	O 	0.13898 0.80984 0.94555 -0.42800
O 	O 	0.13671 0.59443 0.96410 -0.36300
O 	O 	0.31212 0.51302 0.01940 -0.51400
O 	O 	0.61633 0.99391 0.55254 -1.28200
O 	O 	0.66662 0.01864 0.91882 -1.05400
