data_crystal

_cell_length_a 12.23800
_cell_length_b 12.23800
_cell_length_c 12.39800
_cell_angle_alpha 90.00000
_cell_angle_beta  90.00000
_cell_angle_gamma 90.00000

_symmetry_space_group_name_	'P 1'
_symmetry_space_group_name_H-M	'P 1'

loop_
_symmetry_equiv_pos_as_xyz
  x,y,z

loop_
_atom_site_label
_atom_site_type_symbol
_atom_site_fract_x
_atom_site_fract_y
_atom_site_fract_z
_atom_site_charge
C 	C 	0.76670 0.86540 0.31780 0.11000
H 	H 	0.72410 0.89190 0.37410 0.04100
C 	C 	0.72350 0.85950 0.22040 -0.09700
H 	H 	0.65040 0.87690 0.20950 0.10300
C 	C 	0.78900 0.82670 0.13370 0.05100
C 	C 	0.89560 0.79860 0.15350 -0.14300
H 	H 	0.94070 0.77690 0.09710 0.16200
C 	C 	0.93620 0.80280 0.25910 0.24500
C 	C 	0.04730 0.76230 0.28420 -0.07400
C 	C 	0.07640 0.65890 0.26220 0.02200
H 	H 	0.02470 0.61140 0.23360 0.00800
C 	C 	0.17960 0.62180 0.28070 -0.06800
C 	C 	0.25470 0.69130 0.32460 -0.01900
H 	H 	0.32550 0.66780 0.33890 0.07100
C 	C 	0.22360 0.79610 0.34720 0.02700
H 	H 	0.27460 0.84330 0.37750 0.07400
N 	N 	0.87030 0.83440 0.33870 -0.08700
N 	N 	0.12270 0.83350 0.32760 -0.03000
O 	O 	0.90710 0.84180 0.43950 -0.20000
O 	O 	0.09810 0.93170 0.34410 -0.22500
O 	O 	0.66750 0.91400 0.98970 -0.27200
O 	O 	0.66610 0.71720 0.00660 -0.34100
O 	O 	0.82410 0.80700 0.93100 -0.20400
O 	O 	0.14880 0.45740 0.15110 -0.35300
O 	O 	0.18210 0.41690 0.33730 -0.25200
O 	O 	0.32740 0.48480 0.21970 -0.25400
Na	Na	0.71480 0.52900 0.99960 0.59800
S 	S 	0.73205 0.81523 0.00110 0.48000
S 	S 	0.21400 0.48290 0.24620 0.49100
O 	O 	0.58260 0.12660 0.11160 -0.24600
C 	C 	0.23330 0.13460 0.31780 0.01500
H 	H 	0.27590 0.10810 0.37410 0.03100
C 	C 	0.27650 0.14050 0.22040 -0.02400
H 	H 	0.34960 0.12310 0.20950 0.04400
C 	C 	0.21100 0.17330 0.13370 -0.07700
C 	C 	0.10440 0.20140 0.15350 0.01000
H 	H 	0.05930 0.22310 0.09710 0.02700
C 	C 	0.06380 0.19720 0.25910 -0.08200
C 	C 	0.95270 0.23770 0.28420 0.24000
C 	C 	0.92360 0.34110 0.26220 -0.16700
H 	H 	0.97530 0.38860 0.23360 0.15600
C 	C 	0.82040 0.37820 0.28070 0.04900
C 	C 	0.74530 0.30870 0.32460 -0.10500
H 	H 	0.67450 0.33220 0.33890 0.09700
C 	C 	0.77640 0.20390 0.34720 0.08500
H 	H 	0.72540 0.15670 0.37750 0.02400
N 	N 	0.12970 0.16560 0.33870 -0.03800
N 	N 	0.87730 0.16650 0.32760 -0.07700
O 	O 	0.09290 0.15820 0.43950 -0.31300
O 	O 	0.90190 0.06830 0.34410 -0.24000
O 	O 	0.33250 0.08600 0.98970 -0.36300
O 	O 	0.33390 0.28280 0.00660 -0.35200
O 	O 	0.17590 0.19300 0.93100 -0.27500
O 	O 	0.85120 0.54260 0.15110 -0.29800
O 	O 	0.81790 0.58310 0.33730 -0.20600
O 	O 	0.67260 0.51520 0.21970 -0.24700
Na	Na	0.28520 0.47100 0.99960 0.59700
S 	S 	0.26795 0.18477 0.00110 0.52900
S 	S 	0.78600 0.51710 0.24620 0.45000
O 	O 	0.41740 0.87340 0.11160 -0.18300
C 	C 	0.86540 0.23330 0.68220 0.05500
H 	H 	0.89190 0.27590 0.62590 0.06200
C 	C 	0.85950 0.27650 0.77960 -0.02600
H 	H 	0.87690 0.34960 0.79050 0.07900
C 	C 	0.82670 0.21100 0.86630 -0.03600
C 	C 	0.79860 0.10440 0.84650 0.00500
H 	H 	0.77690 0.05930 0.90290 0.04100
C 	C 	0.80280 0.06380 0.74090 -0.05000
C 	C 	0.76230 0.95270 0.71580 0.23700
C 	C 	0.65890 0.92360 0.73780 -0.16400
H 	H 	0.61140 0.97530 0.76640 0.15400
C 	C 	0.62180 0.82040 0.71930 0.04800
C 	C 	0.69130 0.74530 0.67540 -0.10200
H 	H 	0.66780 0.67450 0.66110 0.10000
C 	C 	0.79610 0.77640 0.65280 0.09100
H 	H 	0.84330 0.72540 0.62250 0.05200
N 	N 	0.83440 0.12970 0.66130 -0.03500
N 	N 	0.83350 0.87730 0.67240 -0.08000
O 	O 	0.84180 0.09290 0.56050 -0.27500
O 	O 	0.93170 0.90190 0.65590 -0.15200
O 	O 	0.91400 0.33250 0.01030 -0.27800
O 	O 	0.71720 0.33390 0.99340 -0.34900
O 	O 	0.80700 0.17590 0.06900 -0.24400
O 	O 	0.45740 0.85120 0.84890 -0.29700
O 	O 	0.41690 0.81790 0.66270 -0.20500
O 	O 	0.48480 0.67260 0.78030 -0.24700
Na	Na	0.52900 0.28520 0.00040 0.59700
S 	S 	0.81523 0.26795 0.99890 0.51100
S 	S 	0.48290 0.78600 0.75380 0.45100
O 	O 	0.12660 0.41740 0.88840 -0.24700
C 	C 	0.13460 0.76670 0.68220 0.07700
H 	H 	0.10810 0.72410 0.62590 0.01100
C 	C 	0.14050 0.72350 0.77960 -0.09700
H 	H 	0.12310 0.65040 0.79050 0.07000
C 	C 	0.17330 0.78900 0.86630 0.01700
C 	C 	0.20140 0.89560 0.84650 -0.14700
H 	H 	0.22310 0.94070 0.90290 0.15400
C 	C 	0.19720 0.93620 0.74090 0.23200
C 	C 	0.23770 0.04730 0.71580 -0.08900
C 	C 	0.34110 0.07640 0.73780 0.02900
H 	H 	0.38860 0.02470 0.76640 0.00600
C 	C 	0.37820 0.17960 0.71930 -0.07200
C 	C 	0.30870 0.25470 0.67540 -0.01800
H 	H 	0.33220 0.32550 0.66110 0.06600
C 	C 	0.20390 0.22360 0.65280 0.01700
H 	H 	0.15670 0.27460 0.62250 0.04600
N 	N 	0.16560 0.87030 0.66130 -0.09200
N 	N 	0.16650 0.12270 0.67240 -0.02400
O 	O 	0.15820 0.90710 0.56050 -0.23100
O 	O 	0.06830 0.09810 0.65590 -0.32200
O 	O 	0.08600 0.66750 0.01030 -0.35400
O 	O 	0.28280 0.66610 0.99340 -0.34400
O 	O 	0.19300 0.82410 0.06900 -0.23200
O 	O 	0.54260 0.14880 0.84890 -0.35400
O 	O 	0.58310 0.18210 0.66270 -0.25300
O 	O 	0.51520 0.32740 0.78030 -0.25400
Na	Na	0.47100 0.71480 0.00040 0.59800
S 	S 	0.18477 0.73205 0.99890 0.49800
S 	S 	0.51710 0.21400 0.75380 0.49200
O 	O 	0.87340 0.58260 0.88840 -0.18400
Na	Na	0.50000 0.00000 0.98820 0.58000
Na	Na	-0.00000 0.50000 0.01180 0.58000
Sm	Sm	0.00000 0.00000 0.50000 1.57700
Cl	Cl	0.50000 0.50000 0.94500 -0.30200
Cl	Cl	0.50000 0.50000 0.05500 -0.30200
