data_crystal

_cell_length_a 12.26500
_cell_length_b 12.26500
_cell_length_c 12.42100
_cell_angle_alpha 90.00000
_cell_angle_beta  90.00000
_cell_angle_gamma 90.00000

_symmetry_space_group_name_	'P 1'
_symmetry_space_group_name_H-M	'P 1'

loop_
_symmetry_equiv_pos_as_xyz
  x,y,z

loop_
_atom_site_label
_atom_site_type_symbol
_atom_site_fract_x
_atom_site_fract_y
_atom_site_fract_z
_atom_site_charge
Eu	Eu	-0.00000 0.00000 -0.00000 1.33800
Na	Na	0.52890 0.27240 0.49080 0.59300
Na	Na	0.47110 0.72760 0.49080 0.59400
Na	Na	0.27240 0.47110 0.50920 0.59300
Na	Na	0.72760 0.52890 0.50920 0.59400
Na	Na	0.00000 0.50000 0.48800 0.58100
Na	Na	0.50000 0.00000 0.51200 0.58100
H 	H 	0.89280 0.28010 0.87680 0.07800
H 	H 	0.88290 0.35060 0.70500 0.07600
H 	H 	0.77790 0.05550 0.59780 0.04700
H 	H 	0.60850 0.97960 0.73260 0.13300
H 	H 	0.66630 0.67450 0.83820 0.09600
H 	H 	0.84560 0.72360 0.87610 0.07000
H 	H 	0.10720 0.71990 0.87680 0.03800
H 	H 	0.11710 0.64940 0.70500 0.06200
H 	H 	0.22210 0.94450 0.59780 0.14100
H 	H 	0.39150 0.02040 0.73260 0.02100
H 	H 	0.33370 0.32550 0.83820 0.07600
H 	H 	0.15440 0.27640 0.87610 0.06000
H 	H 	0.28010 0.10720 0.12320 0.01600
H 	H 	0.35060 0.11710 0.29500 0.03800
H 	H 	0.05550 0.22210 0.40220 0.03400
H 	H 	0.97960 0.39150 0.26740 0.13300
H 	H 	0.67450 0.33370 0.16180 0.06900
H 	H 	0.72360 0.15440 0.12390 0.01700
H 	H 	0.71990 0.89280 0.12320 0.03300
H 	H 	0.64940 0.88290 0.29500 0.08600
H 	H 	0.94450 0.77790 0.40220 0.14900
H 	H 	0.02040 0.60850 0.26740 0.01600
H 	H 	0.32550 0.66630 0.16180 0.05500
H 	H 	0.27640 0.84560 0.12390 0.05800
C 	C 	0.86790 0.23530 0.81940 0.05700
C 	C 	0.86320 0.27680 0.71800 -0.01900
C 	C 	0.82910 0.21020 0.63270 -0.03800
C 	C 	0.80030 0.10250 0.65440 -0.00300
C 	C 	0.80480 0.06480 0.75940 -0.02500
C 	C 	0.76340 0.95560 0.78670 0.20400
C 	C 	0.65680 0.92630 0.76100 -0.11000
C 	C 	0.62050 0.82110 0.77630 0.01800
C 	C 	0.69090 0.74620 0.82270 -0.06400
C 	C 	0.79710 0.77610 0.84650 0.08300
C 	C 	0.13210 0.76470 0.81940 0.06300
C 	C 	0.13680 0.72320 0.71800 -0.06900
C 	C 	0.17090 0.78980 0.63270 -0.00100
C 	C 	0.19970 0.89750 0.65440 -0.12100
C 	C 	0.19520 0.93520 0.75940 0.20600
C 	C 	0.23660 0.04440 0.78670 -0.05200
C 	C 	0.34320 0.07370 0.76100 0.01300
C 	C 	0.37950 0.17890 0.77630 -0.06000
C 	C 	0.30910 0.25380 0.82270 -0.01500
C 	C 	0.20290 0.22390 0.84650 0.03700
C 	C 	0.23530 0.13210 0.18060 0.01500
C 	C 	0.27680 0.13680 0.28200 -0.02500
C 	C 	0.21020 0.17090 0.36730 -0.07300
C 	C 	0.10250 0.19970 0.34560 0.00100
C 	C 	0.06480 0.19520 0.24060 -0.06000
C 	C 	0.95560 0.23660 0.21330 0.20000
C 	C 	0.92630 0.34320 0.23900 -0.11600
C 	C 	0.82110 0.37950 0.22370 0.00200
C 	C 	0.74620 0.30910 0.17730 -0.07200
C 	C 	0.77610 0.20290 0.15350 0.05500
C 	C 	0.76470 0.86790 0.18060 0.08900
C 	C 	0.72320 0.86320 0.28200 -0.06900
C 	C 	0.78980 0.82910 0.36730 0.02800
C 	C 	0.89750 0.80030 0.34560 -0.11800
C 	C 	0.93520 0.80480 0.24060 0.22100
C 	C 	0.04440 0.76340 0.21330 -0.06000
C 	C 	0.07370 0.65680 0.23900 0.00900
C 	C 	0.17890 0.62050 0.22370 -0.07700
C 	C 	0.25380 0.69090 0.17730 -0.01800
C 	C 	0.22390 0.79710 0.15350 0.01800
S 	S 	0.81724 0.26471 0.50030 0.49400
S 	S 	0.48511 0.78728 0.73870 0.46600
S 	S 	0.18276 0.73529 0.50030 0.48100
S 	S 	0.51489 0.21272 0.73870 0.49500
S 	S 	0.26471 0.18276 0.49970 0.50600
S 	S 	0.78728 0.51489 0.26130 0.47100
S 	S 	0.73529 0.81724 0.49970 0.47000
S 	S 	0.21272 0.48511 0.26130 0.50000
N 	N 	0.83800 0.13180 0.83950 -0.04100
N 	N 	0.83250 0.87810 0.82830 -0.07400
N 	N 	0.16200 0.86820 0.83950 -0.08400
N 	N 	0.16750 0.12190 0.82830 -0.03400
N 	N 	0.13180 0.16200 0.16050 -0.04300
N 	N 	0.87810 0.16750 0.17170 -0.07700
N 	N 	0.86820 0.83800 0.16050 -0.08000
N 	N 	0.12190 0.83250 0.17170 -0.04100
Cl	Cl	0.50000 0.50000 0.50000 -0.44900
O 	O 	0.84260 0.09520 0.93980 -0.20100
O 	O 	0.93390 0.90330 0.84520 -0.12700
O 	O 	0.91410 0.33020 0.48680 -0.28000
O 	O 	0.81020 0.17210 0.42850 -0.23500
O 	O 	0.71780 0.33030 0.50200 -0.34100
O 	O 	0.45900 0.85930 0.65050 -0.30900
O 	O 	0.49090 0.67510 0.70400 -0.25100
O 	O 	0.41760 0.80480 0.83180 -0.19600
O 	O 	0.11600 0.41560 0.61550 -0.25400
O 	O 	0.15740 0.90480 0.93980 -0.16500
O 	O 	0.06610 0.09670 0.84520 -0.26900
O 	O 	0.08590 0.66980 0.48680 -0.34500
O 	O 	0.18980 0.82790 0.42850 -0.22300
O 	O 	0.28220 0.66970 0.50200 -0.33600
O 	O 	0.54100 0.14070 0.65050 -0.36200
O 	O 	0.50910 0.32490 0.70400 -0.25700
O 	O 	0.58240 0.19520 0.83180 -0.23100
O 	O 	0.88400 0.58440 0.61550 -0.19300
O 	O 	0.09520 0.15740 0.06020 -0.31500
O 	O 	0.90330 0.06610 0.15480 -0.23200
O 	O 	0.33020 0.08590 0.51320 -0.35500
O 	O 	0.17210 0.18980 0.57150 -0.26300
O 	O 	0.33030 0.28220 0.49800 -0.34400
O 	O 	0.85930 0.54100 0.34950 -0.31100
O 	O 	0.67510 0.50910 0.29600 -0.26400
O 	O 	0.80480 0.58240 0.16820 -0.23400
O 	O 	0.41560 0.88400 0.38450 -0.19700
O 	O 	0.90480 0.84260 0.06020 -0.21300
O 	O 	0.09670 0.93390 0.15480 -0.21400
O 	O 	0.66980 0.91410 0.51320 -0.27500
O 	O 	0.82790 0.81020 0.57150 -0.20000
O 	O 	0.66970 0.71780 0.49800 -0.33500
O 	O 	0.14070 0.45900 0.34950 -0.36300
O 	O 	0.32490 0.49090 0.29600 -0.26900
O 	O 	0.19520 0.41760 0.16820 -0.27100
O 	O 	0.58440 0.11600 0.38450 -0.26000
