data_crystal

_cell_length_a 12.24500
_cell_length_b 12.24500
_cell_length_c 12.40700
_cell_angle_alpha 90.00000
_cell_angle_beta  90.00000
_cell_angle_gamma 90.00000

_symmetry_space_group_name_	'P 1'
_symmetry_space_group_name_H-M	'P 1'

loop_
_symmetry_equiv_pos_as_xyz
  x,y,z

loop_
_atom_site_label
_atom_site_type_symbol
_atom_site_fract_x
_atom_site_fract_y
_atom_site_fract_z
_atom_site_charge
Tb	Tb	0.00000 0.00000 0.50000 1.45400
Na	Na	0.52840 0.27310 0.99380 0.59200
Na	Na	0.47160 0.72690 0.99380 0.59200
Na	Na	0.27310 0.47160 0.00620 0.59500
Na	Na	0.72690 0.52840 0.00620 0.59600
Na	Na	-0.00000 0.50000 0.98660 0.57900
Na	Na	0.50000 0.00000 0.01340 0.58200
H 	H 	0.84340 0.72550 0.38180 0.05700
H 	H 	0.66660 0.67390 0.33990 0.08600
H 	H 	0.60800 0.98060 0.23340 0.13600
H 	H 	0.77670 0.05510 0.09670 0.05000
H 	H 	0.88800 0.34960 0.20210 0.07900
H 	H 	0.89680 0.28060 0.37670 0.06200
H 	H 	0.15660 0.27450 0.38180 0.04500
H 	H 	0.33340 0.32610 0.33990 0.06400
H 	H 	0.39200 0.01940 0.23340 0.01500
H 	H 	0.22330 0.94490 0.09670 0.15000
H 	H 	0.11200 0.65040 0.20210 0.06300
H 	H 	0.10320 0.71940 0.37670 0.01900
H 	H 	0.72550 0.15660 0.61820 0.03000
H 	H 	0.67390 0.33340 0.66010 0.08200
H 	H 	0.98060 0.39200 0.76660 0.13800
H 	H 	0.05510 0.22330 0.90330 0.02600
H 	H 	0.34960 0.11200 0.79790 0.03600
H 	H 	0.28060 0.10320 0.62330 0.03500
H 	H 	0.27450 0.84340 0.61820 0.07100
H 	H 	0.32610 0.66660 0.66010 0.06700
H 	H 	0.01940 0.60800 0.76660 0.01600
H 	H 	0.94490 0.77670 0.90330 0.14300
H 	H 	0.65040 0.88800 0.79790 0.08400
H 	H 	0.71940 0.89680 0.62330 0.05200
C 	C 	0.79550 0.77720 0.34980 0.07700
C 	C 	0.69070 0.74610 0.32530 -0.07200
C 	C 	0.62020 0.82170 0.27900 0.01400
C 	C 	0.65630 0.92750 0.26250 -0.11500
C 	C 	0.76410 0.95650 0.28860 0.20900
C 	C 	0.80590 0.06440 0.26070 -0.03600
C 	C 	0.80050 0.10190 0.15300 -0.00600
C 	C 	0.83100 0.20900 0.13190 -0.02200
C 	C 	0.86700 0.27630 0.21620 -0.02500
C 	C 	0.87160 0.23560 0.31950 0.05700
C 	C 	0.20450 0.22280 0.34980 0.02400
C 	C 	0.30930 0.25390 0.32530 -0.01900
C 	C 	0.37980 0.17830 0.27900 -0.06900
C 	C 	0.34370 0.07250 0.26250 0.01400
C 	C 	0.23590 0.04350 0.28860 -0.07200
C 	C 	0.19410 0.93560 0.26070 0.21700
C 	C 	0.19950 0.89810 0.15300 -0.12800
C 	C 	0.16900 0.79100 0.13190 0.01800
C 	C 	0.13300 0.72370 0.21620 -0.07900
C 	C 	0.12840 0.76440 0.31950 0.06000
C 	C 	0.77720 0.20450 0.65020 0.07100
C 	C 	0.74610 0.30930 0.67470 -0.07500
C 	C 	0.82170 0.37980 0.72100 0.01400
C 	C 	0.92750 0.34370 0.73750 -0.11800
C 	C 	0.95650 0.23590 0.71140 0.21500
C 	C 	0.06440 0.19410 0.73930 -0.07100
C 	C 	0.10190 0.19950 0.84700 0.01200
C 	C 	0.20900 0.16900 0.86810 -0.09500
C 	C 	0.27630 0.13300 0.78380 -0.01000
C 	C 	0.23560 0.12840 0.68050 0.00900
C 	C 	0.22280 0.79550 0.65020 0.03100
C 	C 	0.25390 0.69070 0.67470 -0.01900
C 	C 	0.17830 0.62020 0.72100 -0.06700
C 	C 	0.07250 0.65630 0.73750 0.00900
C 	C 	0.04350 0.76410 0.71140 -0.05800
C 	C 	0.93560 0.80590 0.73930 0.22100
C 	C 	0.89810 0.80050 0.84700 -0.10300
C 	C 	0.79100 0.83100 0.86810 0.00600
C 	C 	0.72370 0.86700 0.78380 -0.05200
C 	C 	0.76440 0.87160 0.68050 0.08200
S 	S 	0.48512 0.78686 0.23882 0.46300
S 	S 	0.81882 0.26364 0.99960 0.46600
S 	S 	0.51488 0.21314 0.23882 0.49200
S 	S 	0.18118 0.73636 0.99960 0.44800
S 	S 	0.78686 0.51488 0.76118 0.46300
S 	S 	0.26364 0.18118 0.00040 0.54600
S 	S 	0.21314 0.48512 0.76118 0.49300
S 	S 	0.73636 0.81882 0.00040 0.50700
N 	N 	0.83200 0.87790 0.33020 -0.07800
N 	N 	0.84010 0.13100 0.33990 -0.03800
N 	N 	0.16800 0.12210 0.33020 -0.03400
N 	N 	0.15990 0.86900 0.33990 -0.08600
N 	N 	0.87790 0.16800 0.66980 -0.07700
N 	N 	0.13100 0.15990 0.66010 -0.03800
N 	N 	0.12210 0.83200 0.66980 -0.03800
N 	N 	0.86900 0.84010 0.66010 -0.07600
Cl	Cl	0.50000 0.50000 -0.00000 -0.44100
O 	O 	0.93420 0.90400 0.34680 -0.14700
O 	O 	0.84480 0.09530 0.44060 -0.25800
O 	O 	0.71940 0.32990 0.00380 -0.32500
O 	O 	0.91630 0.32930 0.98600 -0.27800
O 	O 	0.81190 0.17140 0.92860 -0.23700
O 	O 	0.41670 0.80230 0.33150 -0.21300
O 	O 	0.49110 0.67420 0.20200 -0.25500
O 	O 	0.45930 0.85970 0.15100 -0.30500
O 	O 	0.88500 0.58490 0.11580 -0.18500
O 	O 	0.06580 0.09600 0.34680 -0.30500
O 	O 	0.15520 0.90470 0.44060 -0.21700
O 	O 	0.28060 0.67010 0.00380 -0.31800
O 	O 	0.08370 0.67070 0.98600 -0.34700
O 	O 	0.18810 0.82860 0.92860 -0.22400
O 	O 	0.58330 0.19770 0.33150 -0.25200
O 	O 	0.50890 0.32580 0.20200 -0.26000
O 	O 	0.54070 0.14030 0.15100 -0.36300
O 	O 	0.11500 0.41510 0.11580 -0.25000
O 	O 	0.90400 0.06580 0.65320 -0.23100
O 	O 	0.09530 0.15520 0.55940 -0.29300
O 	O 	0.32990 0.28060 0.99620 -0.36400
O 	O 	0.32930 0.08370 0.01400 -0.35800
O 	O 	0.17140 0.18810 0.07140 -0.27100
O 	O 	0.80230 0.58330 0.66850 -0.21400
O 	O 	0.67420 0.50890 0.79800 -0.26000
O 	O 	0.85970 0.54070 0.84900 -0.31300
O 	O 	0.58490 0.11500 0.88420 -0.26100
O 	O 	0.09600 0.93420 0.65320 -0.21400
O 	O 	0.90470 0.84480 0.55940 -0.18900
O 	O 	0.67010 0.71940 0.99620 -0.35500
O 	O 	0.67070 0.91630 0.01400 -0.27300
O 	O 	0.82860 0.81190 0.07140 -0.20300
O 	O 	0.19770 0.41670 0.66850 -0.25100
O 	O 	0.32580 0.49110 0.79800 -0.26500
O 	O 	0.14030 0.45930 0.84900 -0.36800
O 	O 	0.41510 0.88500 0.88420 -0.19500
