data_crystal

_cell_length_a 24.93290
_cell_length_b 24.93290
_cell_length_c 24.93290
_cell_angle_alpha 109.47100
_cell_angle_beta  109.47100
_cell_angle_gamma 109.47100

_symmetry_space_group_name_	'P 1'
_symmetry_space_group_name_H-M	'P 1'

loop_
_symmetry_equiv_pos_as_xyz
  x,y,z

loop_
_atom_site_label
_atom_site_type_symbol
_atom_site_fract_x
_atom_site_fract_y
_atom_site_fract_z
_atom_site_charge
Zn	Zn	0.94745 0.08192 0.07819 1.18100
Zn	Zn	0.50373 0.86926 0.42181 1.18100
Zn	Zn	0.99627 0.41808 0.36553 1.18200
Zn	Zn	0.55255 0.63074 0.13447 1.18100
Zn	Zn	0.86553 0.99627 0.91808 1.18300
Zn	Zn	0.63447 0.55255 0.13074 1.18100
Zn	Zn	0.57819 0.94745 0.58192 1.18100
Zn	Zn	0.92181 0.50373 0.36926 1.18200
Zn	Zn	0.86926 0.92181 0.00373 1.18100
Zn	Zn	0.08192 0.57819 0.44745 1.18100
Zn	Zn	0.63074 0.63447 0.05255 1.18100
Zn	Zn	0.41808 0.86553 0.49627 1.18100
Zn	Zn	0.36926 0.00373 0.92181 1.18100
Zn	Zn	0.58192 0.44745 0.57819 1.18100
Zn	Zn	0.13074 0.05255 0.63447 1.18000
Zn	Zn	0.91808 0.49627 0.86553 1.18200
Zn	Zn	0.44745 0.07819 0.08192 1.18100
Zn	Zn	0.00373 0.42181 0.86926 1.18000
Zn	Zn	0.49627 0.36553 0.41808 1.18100
Zn	Zn	0.05255 0.13447 0.63074 1.18000
Zn	Zn	0.36553 0.91808 0.99627 1.18400
Zn	Zn	0.13447 0.13074 0.55255 1.18200
Zn	Zn	0.07819 0.58192 0.94745 1.18200
Zn	Zn	0.42181 0.36926 0.50373 1.18200
Zn	Zn	0.99422 0.00000 -0.00000 1.21000
Zn	Zn	0.50000 0.99422 0.50000 1.21200
Zn	Zn	0.00000 0.50000 0.49422 1.21000
Zn	Zn	0.50578 0.50578 0.00578 1.21000
Zn	Zn	0.49422 0.00000 -0.00000 1.20900
Zn	Zn	0.50000 0.49422 0.50000 1.21100
Zn	Zn	0.00578 0.00578 0.50578 1.20800
Zn	Zn	-0.00000 0.50000 0.99422 1.21000
H 	H 	0.08670 0.06270 0.20600 0.07600
H 	H 	0.12380 0.04410 0.29090 0.03400
H 	H 	0.29770 0.20290 0.38340 0.02800
H 	H 	0.22670 0.11140 0.37410 0.04300
H 	H 	0.35310 0.32980 0.26990 0.07700
H 	H 	0.14730 0.18150 0.08580 0.06100
H 	H 	0.21910 0.26180 0.08510 0.03900
H 	H 	0.32400 0.33680 0.17840 0.03600
H 	H 	0.35670 0.88070 0.29400 0.07700
H 	H 	0.25320 0.83290 0.20910 0.03600
H 	H 	0.31950 0.91430 0.11660 0.02900
H 	H 	0.23730 0.85260 0.12590 0.04400
H 	H 	0.55990 0.08320 0.23010 0.07600
H 	H 	0.59570 0.06150 0.41420 0.06000
H 	H 	0.67670 0.13400 0.41490 0.03900
H 	H 	0.65840 0.14560 0.32160 0.03600
H 	H 	0.14330 0.43730 0.52400 0.07700
H 	H 	0.24680 0.45590 0.57970 0.03600
H 	H 	0.18050 0.29710 0.59480 0.02900
H 	H 	0.26270 0.38860 0.61530 0.04400
H 	H 	0.94010 0.17020 0.52330 0.07900
H 	H 	0.90430 0.31850 0.46580 0.06300
H 	H 	0.82330 0.23820 0.45730 0.03900
H 	H 	0.84160 0.16320 0.48720 0.03500
H 	H 	0.41330 0.61930 0.97600 0.07900
H 	H 	0.37620 0.66710 0.92030 0.03500
H 	H 	0.20230 0.58570 0.90520 0.02800
H 	H 	0.27330 0.64740 0.88470 0.04500
H 	H 	0.14690 0.41680 0.97670 0.07200
H 	H 	0.35270 0.43850 0.03420 0.06700
H 	H 	0.28090 0.36600 0.04270 0.03300
H 	H 	0.17600 0.35440 0.01280 0.04100
H 	H 	0.02400 0.14330 0.93730 0.07600
H 	H 	0.07970 0.24680 0.95590 0.03700
H 	H 	0.09480 0.18050 0.79710 0.02900
H 	H 	0.11530 0.26270 0.88860 0.04400
H 	H 	0.02330 0.94010 0.67020 0.08500
H 	H 	0.96580 0.90430 0.81850 0.05600
H 	H 	0.95730 0.82330 0.73820 0.04700
H 	H 	0.98720 0.84160 0.66320 0.02800
H 	H 	0.47600 0.41330 0.11930 0.07800
H 	H 	0.42030 0.37620 0.16710 0.03500
H 	H 	0.40520 0.20230 0.08570 0.02800
H 	H 	0.38470 0.27330 0.14740 0.04400
H 	H 	0.47670 0.14690 0.91680 0.07800
H 	H 	0.53420 0.35270 0.93850 0.06400
H 	H 	0.54270 0.28090 0.86600 0.03900
H 	H 	0.51280 0.17600 0.85440 0.03600
H 	H 	0.70600 0.08670 0.56270 0.07700
H 	H 	0.79090 0.12380 0.54410 0.03500
H 	H 	0.88340 0.29770 0.70290 0.02900
H 	H 	0.87410 0.22670 0.61140 0.04500
H 	H 	0.76990 0.35310 0.82980 0.07700
H 	H 	0.58580 0.14730 0.68150 0.06200
H 	H 	0.58510 0.21910 0.76180 0.03900
H 	H 	0.67840 0.32400 0.83680 0.03600
H 	H 	0.79400 0.35670 0.38070 0.07800
H 	H 	0.70910 0.25320 0.33290 0.03600
H 	H 	0.61660 0.31950 0.41430 0.02800
H 	H 	0.62590 0.23730 0.35260 0.04400
H 	H 	0.73010 0.55990 0.58320 0.07700
H 	H 	0.91420 0.59570 0.56150 0.06300
H 	H 	0.91490 0.67670 0.63400 0.04000
H 	H 	0.82160 0.65840 0.64560 0.03600
H 	H 	0.88070 0.79400 0.85670 0.07700
H 	H 	0.83290 0.70910 0.75320 0.03600
H 	H 	0.91430 0.61660 0.81950 0.02900
H 	H 	0.85260 0.62590 0.73730 0.04400
H 	H 	0.08320 0.73010 0.05990 0.07500
H 	H 	0.06150 0.91420 0.09570 0.06100
H 	H 	0.13400 0.91490 0.17670 0.04000
H 	H 	0.14560 0.82160 0.15840 0.03600
H 	H 	0.06270 0.70600 0.58670 0.07700
H 	H 	0.04410 0.79090 0.62380 0.03500
H 	H 	0.20290 0.88340 0.79770 0.02900
H 	H 	0.11140 0.87410 0.72670 0.04400
H 	H 	0.32980 0.76990 0.85310 0.07700
H 	H 	0.18150 0.58580 0.64730 0.06200
H 	H 	0.26180 0.58510 0.71910 0.03900
H 	H 	0.33680 0.67840 0.82400 0.03600
H 	H 	0.61930 0.47600 0.91330 0.07900
H 	H 	0.66710 0.42030 0.87620 0.03600
H 	H 	0.58570 0.40520 0.70230 0.02800
H 	H 	0.64740 0.38470 0.77330 0.04400
H 	H 	0.41680 0.47670 0.64690 0.07700
H 	H 	0.43850 0.53420 0.85270 0.06200
H 	H 	0.36600 0.54270 0.78090 0.03900
H 	H 	0.35440 0.51280 0.67600 0.03600
H 	H 	0.43730 0.02400 0.64330 0.07600
H 	H 	0.45590 0.07970 0.74680 0.03600
H 	H 	0.29710 0.09480 0.68050 0.02900
H 	H 	0.38860 0.11530 0.76270 0.04300
H 	H 	0.17020 0.02330 0.44010 0.08400
H 	H 	0.31850 0.96580 0.40430 0.05500
H 	H 	0.23820 0.95730 0.32330 0.04700
H 	H 	0.16320 0.98720 0.34160 0.02800
H 	H 	0.38070 0.85670 0.79400 0.07800
H 	H 	0.33290 0.75320 0.70910 0.03500
H 	H 	0.41430 0.81950 0.61660 0.02800
H 	H 	0.35260 0.73730 0.62590 0.04400
H 	H 	0.58320 0.05990 0.73010 0.07600
H 	H 	0.56150 0.09570 0.91420 0.06200
H 	H 	0.63400 0.17670 0.91490 0.04000
H 	H 	0.64560 0.15840 0.82160 0.03600
H 	H 	0.56270 0.58670 0.70600 0.07700
H 	H 	0.54410 0.62380 0.79090 0.03600
H 	H 	0.70290 0.79770 0.88340 0.02900
H 	H 	0.61140 0.72670 0.87410 0.04500
H 	H 	0.82980 0.85310 0.76990 0.07700
H 	H 	0.68150 0.64730 0.58580 0.06200
H 	H 	0.76180 0.71910 0.58510 0.03900
H 	H 	0.83680 0.82400 0.67840 0.03600
H 	H 	0.11930 0.91330 0.47600 0.07900
H 	H 	0.16710 0.87620 0.42030 0.03600
H 	H 	0.08570 0.70230 0.40520 0.02800
H 	H 	0.14740 0.77330 0.38470 0.04400
H 	H 	0.91680 0.64690 0.47670 0.07800
H 	H 	0.93850 0.85270 0.53420 0.06300
H 	H 	0.86600 0.78090 0.54270 0.03900
H 	H 	0.85440 0.67600 0.51280 0.03600
H 	H 	0.93730 0.64330 0.02400 0.07600
H 	H 	0.95590 0.74680 0.07970 0.03700
H 	H 	0.79710 0.68050 0.09480 0.02900
H 	H 	0.88860 0.76270 0.11530 0.04300
H 	H 	0.67020 0.44010 0.02330 0.08500
H 	H 	0.81850 0.40430 0.96580 0.05400
H 	H 	0.73820 0.32330 0.95730 0.04900
H 	H 	0.66320 0.34160 0.98720 0.02700
H 	H 	0.58670 0.20600 0.06270 0.07700
H 	H 	0.62380 0.29090 0.04410 0.03400
H 	H 	0.79770 0.38340 0.20290 0.02900
H 	H 	0.72670 0.37410 0.11140 0.04300
H 	H 	0.85310 0.26990 0.32980 0.07700
H 	H 	0.64730 0.08580 0.18150 0.06100
H 	H 	0.71910 0.08510 0.26180 0.03800
H 	H 	0.82400 0.17840 0.33680 0.03600
H 	H 	0.85670 0.29400 0.88070 0.07700
H 	H 	0.75320 0.20910 0.83290 0.03600
H 	H 	0.81950 0.11660 0.91430 0.02800
H 	H 	0.73730 0.12590 0.85260 0.04400
H 	H 	0.05990 0.23010 0.08320 0.07400
H 	H 	0.09570 0.41420 0.06150 0.06000
H 	H 	0.17670 0.41490 0.13400 0.03900
H 	H 	0.15840 0.32160 0.14560 0.03600
H 	H 	0.64330 0.52400 0.43730 0.07700
H 	H 	0.74680 0.57970 0.45590 0.03600
H 	H 	0.68050 0.59480 0.29710 0.02900
H 	H 	0.76270 0.61530 0.38860 0.04400
H 	H 	0.44010 0.52330 0.17020 0.07700
H 	H 	0.40430 0.46580 0.31850 0.06200
H 	H 	0.32330 0.45730 0.23820 0.03900
H 	H 	0.34160 0.48720 0.16320 0.03500
H 	H 	0.91330 0.97600 0.61930 0.08000
H 	H 	0.87620 0.92030 0.66710 0.03600
H 	H 	0.70230 0.90520 0.58570 0.02800
H 	H 	0.77330 0.88470 0.64740 0.04500
H 	H 	0.64690 0.97670 0.41680 0.07100
H 	H 	0.85270 0.03420 0.43850 0.06700
H 	H 	0.78090 0.04270 0.36600 0.03300
H 	H 	0.67600 0.01280 0.35440 0.04200
H 	H 	0.52400 0.93730 0.14330 0.07800
H 	H 	0.57970 0.95590 0.24680 0.03700
H 	H 	0.59480 0.79710 0.18050 0.02900
H 	H 	0.61530 0.88860 0.26270 0.04400
H 	H 	0.52330 0.67020 0.94010 0.07900
H 	H 	0.46580 0.81850 0.90430 0.06200
H 	H 	0.45730 0.73820 0.82330 0.03900
H 	H 	0.48720 0.66320 0.84160 0.03500
H 	H 	0.97600 0.11930 0.41330 0.07900
H 	H 	0.92030 0.16710 0.37620 0.03500
H 	H 	0.90520 0.08570 0.20230 0.02800
H 	H 	0.88470 0.14740 0.27330 0.04400
H 	H 	0.97670 0.91680 0.14690 0.07400
H 	H 	0.03420 0.93850 0.35270 0.06700
H 	H 	0.04270 0.86600 0.28090 0.03500
H 	H 	0.01280 0.85440 0.17600 0.04000
H 	H 	0.20600 0.56270 0.08670 0.07700
H 	H 	0.29090 0.54410 0.12380 0.03500
H 	H 	0.38340 0.70290 0.29770 0.02800
H 	H 	0.37410 0.61140 0.22670 0.04400
H 	H 	0.26990 0.82980 0.35310 0.07700
H 	H 	0.08580 0.68150 0.14730 0.06100
H 	H 	0.08510 0.76180 0.21910 0.03900
H 	H 	0.17840 0.83680 0.32400 0.03600
H 	H 	0.29400 0.38070 0.35670 0.07800
H 	H 	0.20910 0.33290 0.25320 0.03500
H 	H 	0.11660 0.41430 0.31950 0.02800
H 	H 	0.12590 0.35260 0.23730 0.04400
H 	H 	0.23010 0.58320 0.55990 0.07700
H 	H 	0.41420 0.56150 0.59570 0.06200
H 	H 	0.41490 0.63400 0.67670 0.03900
H 	H 	0.32160 0.64560 0.65840 0.03600
C 	C 	0.17510 0.14290 0.23620 0.06300
C 	C 	0.23910 0.18860 0.29250 0.03400
C 	C 	0.13020 0.08960 0.23940 -0.09400
C 	C 	0.15180 0.07960 0.29060 -0.00400
C 	C 	0.25660 0.17470 0.34570 -0.05600
C 	C 	0.21300 0.12060 0.34040 -0.05200
C 	C 	0.08990 0.10740 0.12230 0.41200
C 	C 	0.31130 0.29920 0.23350 -0.09800
C 	C 	0.18840 0.21120 0.12320 -0.07700
C 	C 	0.26810 0.24990 0.23660 0.05200
C 	C 	0.15730 0.15210 0.18240 -0.12900
C 	C 	0.23020 0.25770 0.12250 -0.03400
C 	C 	0.20410 0.20400 0.18130 0.04200
C 	C 	0.29410 0.30340 0.17950 -0.01900
C 	C 	0.28500 0.24170 0.29370 -0.12300
C 	C 	0.35070 0.29010 0.35460 0.37500
C 	C 	0.40670 0.93890 0.26380 0.06200
C 	C 	0.39610 0.94660 0.20750 0.03500
C 	C 	0.35020 0.89080 0.26060 -0.09200
C 	C 	0.28900 0.86120 0.20940 -0.00500
C 	C 	0.32900 0.91090 0.15430 -0.05600
C 	C 	0.28020 0.87260 0.15960 -0.05000
C 	C 	0.48510 0.96760 0.37770 0.41100
C 	C 	0.56570 0.07780 0.26650 -0.09700
C 	C 	0.58800 0.06520 0.37680 -0.07500
C 	C 	0.51330 0.03150 0.26340 0.04900
C 	C 	0.46970 0.97490 0.31760 -0.12400
C 	C 	0.63520 0.10770 0.37750 -0.03600
C 	C 	0.52270 0.02280 0.31870 0.03700
C 	C 	0.62390 0.11460 0.32050 -0.01900
C 	C 	0.44800 0.99130 0.20630 -0.12000
C 	C 	0.43550 0.99610 0.14540 0.38000
C 	C 	0.09330 0.35710 0.53220 0.06200
C 	C 	0.10390 0.31140 0.55050 0.03600
C 	C 	0.14980 0.41040 0.54060 -0.09300
C 	C 	0.21100 0.42040 0.57220 -0.00500
C 	C 	0.17100 0.32530 0.58190 -0.05700
C 	C 	0.21980 0.37940 0.59240 -0.05000
C 	C 	0.01490 0.39260 0.48250 0.40700
C 	C 	0.93430 0.20080 0.51210 -0.10100
C 	C 	0.91200 0.28880 0.47720 -0.07600
C 	C 	0.98670 0.25010 0.51820 0.05800
C 	C 	0.03030 0.34790 0.50520 -0.13100
C 	C 	0.86480 0.24230 0.47250 -0.03500
C 	C 	0.97730 0.29600 0.50010 0.04500
C 	C 	0.87610 0.19660 0.49070 -0.01700
C 	C 	0.05200 0.25830 0.54330 -0.12800
C 	C 	0.06450 0.20990 0.56060 0.37600
C 	C 	0.32490 0.56110 0.96780 0.06400
C 	C 	0.26090 0.55340 0.94950 0.03300
C 	C 	0.36980 0.60920 0.95940 -0.09400
C 	C 	0.34820 0.63880 0.92780 -0.00200
C 	C 	0.24340 0.58910 0.91810 -0.05400
C 	C 	0.28700 0.62740 0.90760 -0.05300
C 	C 	0.41010 0.53240 0.01750 0.40400
C 	C 	0.18870 0.42220 0.98790 -0.08000
C 	C 	0.31160 0.43480 0.02280 -0.09200
C 	C 	0.23190 0.46850 0.98180 0.04400
C 	C 	0.34270 0.52510 0.99480 -0.12700
C 	C 	0.26980 0.39230 0.02750 -0.01800
C 	C 	0.29590 0.47720 0.99990 0.05200
C 	C 	0.20590 0.38540 0.00930 -0.03800
C 	C 	0.21500 0.50870 0.95670 -0.11900
C 	C 	0.14930 0.50390 0.93940 0.37400
C 	C 	0.03220 0.09330 0.85710 0.06200
C 	C 	0.05050 0.10390 0.81140 0.03700
C 	C 	0.04060 0.14980 0.91040 -0.09200
C 	C 	0.07220 0.21100 0.92040 -0.00600
C 	C 	0.08190 0.17100 0.82530 -0.05900
C 	C 	0.09240 0.21980 0.87940 -0.04900
C 	C 	0.98250 0.01490 0.89260 0.42200
C 	C 	0.01210 0.93430 0.70080 -0.12200
C 	C 	0.97720 0.91200 0.78880 -0.05700
C 	C 	0.01820 0.98670 0.75010 0.06800
C 	C 	0.00520 0.03030 0.84790 -0.13500
C 	C 	0.97250 0.86480 0.74230 -0.05400
C 	C 	0.00010 0.97730 0.79600 0.03300
C 	C 	0.99070 0.87610 0.69660 0.00700
C 	C 	0.04330 0.05200 0.75830 -0.13200
C 	C 	0.06060 0.06450 0.70990 0.37700
C 	C 	0.46780 0.32490 0.06110 0.06400
C 	C 	0.44950 0.26090 0.05340 0.03400
C 	C 	0.45940 0.36980 0.10920 -0.09500
C 	C 	0.42780 0.34820 0.13880 -0.00300
C 	C 	0.41810 0.24340 0.08910 -0.05600
C 	C 	0.40760 0.28700 0.12740 -0.05200
C 	C 	0.51750 0.41010 0.03240 0.41300
C 	C 	0.48790 0.18870 0.92220 -0.09800
C 	C 	0.52280 0.31160 0.93480 -0.07800
C 	C 	0.48180 0.23190 0.96850 0.05600
C 	C 	0.49480 0.34270 0.02510 -0.13400
C 	C 	0.52750 0.26980 0.89230 -0.03200
C 	C 	0.49990 0.29590 0.97720 0.04700
C 	C 	0.50930 0.20590 0.88540 -0.01900
C 	C 	0.45670 0.21500 0.00870 -0.12500
C 	C 	0.43940 0.14930 0.00390 0.37100
C 	C 	0.73620 0.17510 0.64290 0.06300
C 	C 	0.79250 0.23910 0.68860 0.03500
C 	C 	0.73940 0.13020 0.58960 -0.09300
C 	C 	0.79060 0.15180 0.57960 -0.00400
C 	C 	0.84570 0.25660 0.67470 -0.05600
C 	C 	0.84040 0.21300 0.62060 -0.05100
C 	C 	0.62230 0.08990 0.60740 0.41200
C 	C 	0.73350 0.31130 0.79920 -0.09800
C 	C 	0.62320 0.18840 0.71120 -0.07600
C 	C 	0.73660 0.26810 0.74990 0.05200
C 	C 	0.68240 0.15730 0.65210 -0.12900
C 	C 	0.62250 0.23020 0.75770 -0.03400
C 	C 	0.68130 0.20410 0.70400 0.04200
C 	C 	0.67950 0.29410 0.80340 -0.01900
C 	C 	0.79370 0.28500 0.74170 -0.12200
C 	C 	0.85460 0.35070 0.79010 0.37500
C 	C 	0.76380 0.40670 0.43890 0.06300
C 	C 	0.70750 0.39610 0.44660 0.03500
C 	C 	0.76060 0.35020 0.39080 -0.09300
C 	C 	0.70940 0.28900 0.36120 -0.00400
C 	C 	0.65430 0.32900 0.41090 -0.05600
C 	C 	0.65960 0.28020 0.37260 -0.05100
C 	C 	0.87770 0.48510 0.46760 0.41100
C 	C 	0.76650 0.56570 0.57780 -0.09800
C 	C 	0.87680 0.58800 0.56520 -0.07600
C 	C 	0.76340 0.51330 0.53150 0.05200
C 	C 	0.81760 0.46970 0.47490 -0.12800
C 	C 	0.87750 0.63520 0.60770 -0.03400
C 	C 	0.81870 0.52270 0.52280 0.04200
C 	C 	0.82050 0.62390 0.61460 -0.01900
C 	C 	0.70630 0.44800 0.49130 -0.12300
C 	C 	0.64540 0.43550 0.49610 0.37500
C 	C 	0.93890 0.76380 0.90670 0.06300
C 	C 	0.94660 0.70750 0.89610 0.03500
C 	C 	0.89080 0.76060 0.85020 -0.09200
C 	C 	0.86120 0.70940 0.78900 -0.00400
C 	C 	0.91090 0.65430 0.82900 -0.05500
C 	C 	0.87260 0.65960 0.78020 -0.05100
C 	C 	0.96760 0.87770 0.98510 0.41600
C 	C 	0.07780 0.76650 0.06570 -0.09500
C 	C 	0.06520 0.87680 0.08800 -0.07500
C 	C 	0.03150 0.76340 0.01330 0.04600
C 	C 	0.97490 0.81760 0.96970 -0.12200
C 	C 	0.10770 0.87750 0.13520 -0.03500
C 	C 	0.02280 0.81870 0.02270 0.03700
C 	C 	0.11460 0.82050 0.12390 -0.02000
C 	C 	0.99130 0.70630 0.94800 -0.11600
C 	C 	0.99610 0.64540 0.93550 0.38100
C 	C 	0.14290 0.73620 0.67510 0.06300
C 	C 	0.18860 0.79250 0.73910 0.03500
C 	C 	0.08960 0.73940 0.63020 -0.09400
C 	C 	0.07960 0.79060 0.65180 -0.00400
C 	C 	0.17470 0.84570 0.75660 -0.05600
C 	C 	0.12060 0.84040 0.71300 -0.05100
C 	C 	0.10740 0.62230 0.58990 0.41200
C 	C 	0.29920 0.73350 0.81130 -0.09800
C 	C 	0.21120 0.62320 0.68840 -0.07700
C 	C 	0.24990 0.73660 0.76810 0.05200
C 	C 	0.15210 0.68240 0.65730 -0.12900
C 	C 	0.25770 0.62250 0.73020 -0.03400
C 	C 	0.20400 0.68130 0.70410 0.04200
C 	C 	0.30340 0.67950 0.79410 -0.01900
C 	C 	0.24170 0.79370 0.78500 -0.12200
C 	C 	0.29010 0.85460 0.85070 0.37500
C 	C 	0.56110 0.46780 0.82490 0.06300
C 	C 	0.55340 0.44950 0.76090 0.03500
C 	C 	0.60920 0.45940 0.86980 -0.09300
C 	C 	0.63880 0.42780 0.84820 -0.00300
C 	C 	0.58910 0.41810 0.74340 -0.05600
C 	C 	0.62740 0.40760 0.78700 -0.05100
C 	C 	0.53240 0.51750 0.91010 0.41100
C 	C 	0.42220 0.48790 0.68870 -0.09800
C 	C 	0.43480 0.52280 0.81160 -0.07600
C 	C 	0.46850 0.48180 0.73190 0.05200
C 	C 	0.52510 0.49480 0.84270 -0.12800
C 	C 	0.39230 0.52750 0.76980 -0.03400
C 	C 	0.47720 0.49990 0.79590 0.04200
C 	C 	0.38540 0.50930 0.70590 -0.01900
C 	C 	0.50870 0.45670 0.71500 -0.12300
C 	C 	0.50390 0.43940 0.64930 0.37500
C 	C 	0.35710 0.03220 0.59330 0.06100
C 	C 	0.31140 0.05050 0.60390 0.03700
C 	C 	0.41040 0.04060 0.64980 -0.09200
C 	C 	0.42040 0.07220 0.71100 -0.00600
C 	C 	0.32530 0.08190 0.67100 -0.05900
C 	C 	0.37940 0.09240 0.71980 -0.04900
C 	C 	0.39260 0.98250 0.51490 0.41900
C 	C 	0.20080 0.01210 0.43430 -0.12100
C 	C 	0.28880 0.97720 0.41200 -0.05600
C 	C 	0.25010 0.01820 0.48670 0.06400
C 	C 	0.34790 0.00520 0.53030 -0.12900
C 	C 	0.24230 0.97250 0.36480 -0.05500
C 	C 	0.29600 0.00010 0.47730 0.02900
C 	C 	0.19660 0.99070 0.37610 0.00700
C 	C 	0.25830 0.04330 0.55200 -0.12800
C 	C 	0.20990 0.06060 0.56450 0.37700
C 	C 	0.43890 0.90670 0.76380 0.06300
C 	C 	0.44660 0.89610 0.70750 0.03400
C 	C 	0.39080 0.85020 0.76060 -0.09300
C 	C 	0.36120 0.78900 0.70940 -0.00300
C 	C 	0.41090 0.82900 0.65430 -0.05500
C 	C 	0.37260 0.78020 0.65960 -0.05200
C 	C 	0.46760 0.98510 0.87770 0.41500
C 	C 	0.57780 0.06570 0.76650 -0.09600
C 	C 	0.56520 0.08800 0.87680 -0.07600
C 	C 	0.53150 0.01330 0.76340 0.04900
C 	C 	0.47490 0.96970 0.81760 -0.12600
C 	C 	0.60770 0.13520 0.87750 -0.03300
C 	C 	0.52280 0.02270 0.81870 0.04000
C 	C 	0.61460 0.12390 0.82050 -0.02000
C 	C 	0.49130 0.94800 0.70630 -0.11900
C 	C 	0.49610 0.93550 0.64540 0.37500
C 	C 	0.64290 0.67510 0.73620 0.06300
C 	C 	0.68860 0.73910 0.79250 0.03500
C 	C 	0.58960 0.63020 0.73940 -0.09300
C 	C 	0.57960 0.65180 0.79060 -0.00400
C 	C 	0.67470 0.75660 0.84570 -0.05600
C 	C 	0.62060 0.71300 0.84040 -0.05100
C 	C 	0.60740 0.58990 0.62230 0.41200
C 	C 	0.79920 0.81130 0.73350 -0.09800
C 	C 	0.71120 0.68840 0.62320 -0.07600
C 	C 	0.74990 0.76810 0.73660 0.05200
C 	C 	0.65210 0.65730 0.68240 -0.12900
C 	C 	0.75770 0.73020 0.62250 -0.03400
C 	C 	0.70400 0.70410 0.68130 0.04200
C 	C 	0.80340 0.79410 0.67950 -0.01900
C 	C 	0.74170 0.78500 0.79370 -0.12200
C 	C 	0.79010 0.85070 0.85460 0.37500
C 	C 	0.06110 0.82490 0.46780 0.06400
C 	C 	0.05340 0.76090 0.44950 0.03400
C 	C 	0.10920 0.86980 0.45940 -0.09400
C 	C 	0.13880 0.84820 0.42780 -0.00300
C 	C 	0.08910 0.74340 0.41810 -0.05500
C 	C 	0.12740 0.78700 0.40760 -0.05200
C 	C 	0.03240 0.91010 0.51750 0.41200
C 	C 	0.92220 0.68870 0.48790 -0.09800
C 	C 	0.93480 0.81160 0.52280 -0.07800
C 	C 	0.96850 0.73190 0.48180 0.05500
C 	C 	0.02510 0.84270 0.49480 -0.13300
C 	C 	0.89230 0.76980 0.52750 -0.03300
C 	C 	0.97720 0.79590 0.49990 0.04600
C 	C 	0.88540 0.70590 0.50930 -0.01900
C 	C 	0.00870 0.71500 0.45670 -0.12500
C 	C 	0.00390 0.64930 0.43940 0.37100
C 	C 	0.85710 0.59330 0.03220 0.06100
C 	C 	0.81140 0.60390 0.05050 0.03800
C 	C 	0.91040 0.64980 0.04060 -0.09200
C 	C 	0.92040 0.71100 0.07220 -0.00600
C 	C 	0.82530 0.67100 0.08190 -0.05900
C 	C 	0.87940 0.71980 0.09240 -0.04900
C 	C 	0.89260 0.51490 0.98250 0.42300
C 	C 	0.70080 0.43430 0.01210 -0.12500
C 	C 	0.78880 0.41200 0.97720 -0.05100
C 	C 	0.75010 0.48670 0.01820 0.06600
C 	C 	0.84790 0.53030 0.00520 -0.13000
C 	C 	0.74230 0.36480 0.97250 -0.05900
C 	C 	0.79600 0.47730 0.00010 0.02600
C 	C 	0.69660 0.37610 0.99070 0.01100
C 	C 	0.75830 0.55200 0.04330 -0.12900
C 	C 	0.70990 0.56450 0.06060 0.37700
C 	C 	0.67510 0.23620 0.14290 0.06300
C 	C 	0.73910 0.29250 0.18860 0.03400
C 	C 	0.63020 0.23940 0.08960 -0.09400
C 	C 	0.65180 0.29060 0.07960 -0.00400
C 	C 	0.75660 0.34570 0.17470 -0.05600
C 	C 	0.71300 0.34040 0.12060 -0.05200
C 	C 	0.58990 0.12230 0.10740 0.41200
C 	C 	0.81130 0.23350 0.29920 -0.09800
C 	C 	0.68840 0.12320 0.21120 -0.07600
C 	C 	0.76810 0.23660 0.24990 0.05200
C 	C 	0.65730 0.18240 0.15210 -0.12900
C 	C 	0.73020 0.12250 0.25770 -0.03400
C 	C 	0.70410 0.18130 0.20400 0.04200
C 	C 	0.79410 0.17950 0.30340 -0.01900
C 	C 	0.78500 0.29370 0.24170 -0.12300
C 	C 	0.85070 0.35460 0.29010 0.37500
C 	C 	0.90670 0.26380 0.93890 0.06200
C 	C 	0.89610 0.20750 0.94660 0.03400
C 	C 	0.85020 0.26060 0.89080 -0.09200
C 	C 	0.78900 0.20940 0.86120 -0.00400
C 	C 	0.82900 0.15430 0.91090 -0.05500
C 	C 	0.78020 0.15960 0.87260 -0.05100
C 	C 	0.98510 0.37770 0.96760 0.41700
C 	C 	0.06570 0.26650 0.07780 -0.09500
C 	C 	0.08800 0.37680 0.06520 -0.07400
C 	C 	0.01330 0.26340 0.03150 0.04500
C 	C 	0.96970 0.31760 0.97490 -0.12000
C 	C 	0.13520 0.37750 0.10770 -0.03500
C 	C 	0.02270 0.31870 0.02280 0.03400
C 	C 	0.12390 0.32050 0.11460 -0.02100
C 	C 	0.94800 0.20630 0.99130 -0.11400
C 	C 	0.93550 0.14540 0.99610 0.38200
C 	C 	0.59330 0.53220 0.35710 0.06300
C 	C 	0.60390 0.55050 0.31140 0.03500
C 	C 	0.64980 0.54060 0.41040 -0.09300
C 	C 	0.71100 0.57220 0.42040 -0.00400
C 	C 	0.67100 0.58190 0.32530 -0.05600
C 	C 	0.71980 0.59240 0.37940 -0.05100
C 	C 	0.51490 0.48250 0.39260 0.41200
C 	C 	0.43430 0.51210 0.20080 -0.09800
C 	C 	0.41200 0.47720 0.28880 -0.07600
C 	C 	0.48670 0.51820 0.25010 0.05200
C 	C 	0.53030 0.50520 0.34790 -0.12900
C 	C 	0.36480 0.47250 0.24230 -0.03400
C 	C 	0.47730 0.50010 0.29600 0.04200
C 	C 	0.37610 0.49070 0.19660 -0.01900
C 	C 	0.55200 0.54330 0.25830 -0.12300
C 	C 	0.56450 0.56060 0.20990 0.37500
C 	C 	0.82490 0.96780 0.56110 0.06500
C 	C 	0.76090 0.94950 0.55340 0.03200
C 	C 	0.86980 0.95940 0.60920 -0.09500
C 	C 	0.84820 0.92780 0.63880 -0.00100
C 	C 	0.74340 0.91810 0.58910 -0.05300
C 	C 	0.78700 0.90760 0.62740 -0.05300
C 	C 	0.91010 0.01750 0.53240 0.40500
C 	C 	0.68870 0.98790 0.42220 -0.07900
C 	C 	0.81160 0.02280 0.43480 -0.09300
C 	C 	0.73190 0.98180 0.46850 0.04300
C 	C 	0.84270 0.99480 0.52510 -0.12800
C 	C 	0.76980 0.02750 0.39230 -0.01700
C 	C 	0.79590 0.99990 0.47720 0.05300
C 	C 	0.70590 0.00930 0.38540 -0.04000
C 	C 	0.71500 0.95670 0.50870 -0.11800
C 	C 	0.64930 0.93940 0.50390 0.37400
C 	C 	0.53220 0.85710 0.09330 0.06200
C 	C 	0.55050 0.81140 0.10390 0.03600
C 	C 	0.54060 0.91040 0.14980 -0.09200
C 	C 	0.57220 0.92040 0.21100 -0.00500
C 	C 	0.58190 0.82530 0.17100 -0.05700
C 	C 	0.59240 0.87940 0.21980 -0.05000
C 	C 	0.48250 0.89260 0.01490 0.40800
C 	C 	0.51210 0.70080 0.93430 -0.10100
C 	C 	0.47720 0.78880 0.91200 -0.07600
C 	C 	0.51820 0.75010 0.98670 0.05700
C 	C 	0.50520 0.84790 0.03030 -0.13000
C 	C 	0.47250 0.74230 0.86480 -0.03500
C 	C 	0.50010 0.79600 0.97730 0.04400
C 	C 	0.49070 0.69660 0.87610 -0.01700
C 	C 	0.54330 0.75830 0.05200 -0.12700
C 	C 	0.56060 0.70990 0.06450 0.37600
C 	C 	0.96780 0.06110 0.32490 0.06400
C 	C 	0.94950 0.05340 0.26090 0.03400
C 	C 	0.95940 0.10920 0.36980 -0.09400
C 	C 	0.92780 0.13880 0.34820 -0.00200
C 	C 	0.91810 0.08910 0.24340 -0.05500
C 	C 	0.90760 0.12740 0.28700 -0.05200
C 	C 	0.01750 0.03240 0.41010 0.40300
C 	C 	0.98790 0.92220 0.18870 -0.08600
C 	C 	0.02280 0.93480 0.31160 -0.08800
C 	C 	0.98180 0.96850 0.23190 0.05000
C 	C 	0.99480 0.02510 0.34270 -0.12900
C 	C 	0.02750 0.89230 0.26980 -0.02200
C 	C 	0.99990 0.97720 0.29590 0.05200
C 	C 	0.00930 0.88540 0.20590 -0.03200
C 	C 	0.95670 0.00870 0.21500 -0.12200
C 	C 	0.93940 0.00390 0.14930 0.37100
C 	C 	0.23620 0.64290 0.17510 0.06300
C 	C 	0.29250 0.68860 0.23910 0.03400
C 	C 	0.23940 0.58960 0.13020 -0.09300
C 	C 	0.29060 0.57960 0.15180 -0.00400
C 	C 	0.34570 0.67470 0.25660 -0.05600
C 	C 	0.34040 0.62060 0.21300 -0.05100
C 	C 	0.12230 0.60740 0.08990 0.41200
C 	C 	0.23350 0.79920 0.31130 -0.09800
C 	C 	0.12320 0.71120 0.18840 -0.07600
C 	C 	0.23660 0.74990 0.26810 0.05200
C 	C 	0.18240 0.65210 0.15730 -0.12900
C 	C 	0.12250 0.75770 0.23020 -0.03400
C 	C 	0.18130 0.70400 0.20410 0.04200
C 	C 	0.17950 0.80340 0.29410 -0.01900
C 	C 	0.29370 0.74170 0.28500 -0.12300
C 	C 	0.35460 0.79010 0.35070 0.37500
C 	C 	0.26380 0.43890 0.40670 0.06300
C 	C 	0.20750 0.44660 0.39610 0.03400
C 	C 	0.26060 0.39080 0.35020 -0.09300
C 	C 	0.20940 0.36120 0.28900 -0.00400
C 	C 	0.15430 0.41090 0.32900 -0.05600
C 	C 	0.15960 0.37260 0.28020 -0.05100
C 	C 	0.37770 0.46760 0.48510 0.41200
C 	C 	0.26650 0.57780 0.56570 -0.09800
C 	C 	0.37680 0.56520 0.58800 -0.07600
C 	C 	0.26340 0.53150 0.51330 0.05200
C 	C 	0.31760 0.47490 0.46970 -0.12900
C 	C 	0.37750 0.60770 0.63520 -0.03400
C 	C 	0.31870 0.52280 0.52270 0.04200
C 	C 	0.32050 0.61460 0.62390 -0.01900
C 	C 	0.20630 0.49130 0.44800 -0.12300
C 	C 	0.14540 0.49610 0.43550 0.37500
O 	O 	0.05136 0.13005 0.11631 -0.46900
O 	O 	0.40154 0.29745 0.35025 -0.50500
O 	O 	0.35110 0.31960 0.40770 -0.49500
O 	O 	0.07564 0.05189 0.08713 -0.49700
O 	O 	0.51374 0.93505 0.38369 -0.46600
O 	O 	0.44720 0.05129 0.14975 -0.50900
O 	O 	0.41190 0.94340 0.09230 -0.49700
O 	O 	0.46476 0.98851 0.41287 -0.49200
O 	O 	0.98626 0.36995 0.42131 -0.46300
O 	O 	0.05280 0.20255 0.60409 -0.50600
O 	O 	0.08810 0.18040 0.53150 -0.49700
O 	O 	0.03524 0.44811 0.52375 -0.49400
O 	O 	0.44864 0.56495 0.07869 -0.46600
O 	O 	0.09846 0.44871 0.89591 -0.50500
O 	O 	0.14890 0.55660 0.96850 -0.49400
O 	O 	0.42436 0.51149 0.97625 -0.48900
O 	O 	0.92131 0.98626 0.86995 -0.46600
O 	O 	0.10409 0.05280 0.70255 -0.50700
O 	O 	0.03150 0.08810 0.68040 -0.49800
O 	O 	0.02375 0.03524 0.94811 -0.50000
O 	O 	0.57869 0.44864 0.06495 -0.46900
O 	O 	0.39591 0.09846 0.94871 -0.50100
O 	O 	0.46850 0.14890 0.05660 -0.49500
O 	O 	0.47625 0.42436 0.01149 -0.49600
O 	O 	0.61631 0.05136 0.63005 -0.46900
O 	O 	0.85025 0.40154 0.79745 -0.50300
O 	O 	0.90770 0.35110 0.81960 -0.49300
O 	O 	0.58713 0.07564 0.55189 -0.49600
O 	O 	0.88369 0.51374 0.43505 -0.46700
O 	O 	0.64975 0.44720 0.55129 -0.50400
O 	O 	0.59230 0.41190 0.44340 -0.49500
O 	O 	0.91287 0.46476 0.48851 -0.49200
O 	O 	0.93505 0.88369 0.01374 -0.47100
O 	O 	0.05129 0.64975 0.94720 -0.50800
O 	O 	0.94340 0.59230 0.91190 -0.49400
O 	O 	0.98851 0.91287 0.96476 -0.49000
O 	O 	0.13005 0.61631 0.55136 -0.46800
O 	O 	0.29745 0.85025 0.90154 -0.50300
O 	O 	0.31960 0.90770 0.85110 -0.49400
O 	O 	0.05189 0.58713 0.57564 -0.49500
O 	O 	0.56495 0.57869 0.94864 -0.46500
O 	O 	0.44871 0.39591 0.59846 -0.50500
O 	O 	0.55660 0.46850 0.64890 -0.49500
O 	O 	0.51149 0.47625 0.92436 -0.49200
O 	O 	0.36995 0.92131 0.48626 -0.46900
O 	O 	0.20255 0.10409 0.55280 -0.50500
O 	O 	0.18040 0.03150 0.58810 -0.49700
O 	O 	0.44811 0.02375 0.53524 -0.49900
O 	O 	0.43505 0.01374 0.88369 -0.46900
O 	O 	0.55129 0.94720 0.64975 -0.50300
O 	O 	0.44340 0.91190 0.59230 -0.49400
O 	O 	0.48851 0.96476 0.91287 -0.49200
O 	O 	0.63005 0.55136 0.61631 -0.46700
O 	O 	0.79745 0.90154 0.85025 -0.50300
O 	O 	0.81960 0.85110 0.90770 -0.49300
O 	O 	0.55189 0.57564 0.58713 -0.49400
O 	O 	0.06495 0.94864 0.57869 -0.46600
O 	O 	0.94871 0.59846 0.39591 -0.50100
O 	O 	0.05660 0.64890 0.46850 -0.49500
O 	O 	0.01149 0.92436 0.47625 -0.49400
O 	O 	0.86995 0.48626 0.92131 -0.46800
O 	O 	0.70255 0.55280 0.10409 -0.50500
O 	O 	0.68040 0.58810 0.03150 -0.49700
O 	O 	0.94811 0.53524 0.02375 -0.50000
O 	O 	0.55136 0.11631 0.13005 -0.46800
O 	O 	0.90154 0.35025 0.29745 -0.50400
O 	O 	0.85110 0.40770 0.31960 -0.49500
O 	O 	0.57564 0.08713 0.05189 -0.49600
O 	O 	0.01374 0.38369 0.93505 -0.47200
O 	O 	0.94720 0.14975 0.05129 -0.50900
O 	O 	0.91190 0.09230 0.94340 -0.49500
O 	O 	0.96476 0.41287 0.98851 -0.49100
O 	O 	0.48626 0.42131 0.36995 -0.46700
O 	O 	0.55280 0.60409 0.20255 -0.50500
O 	O 	0.58810 0.53150 0.18040 -0.49500
O 	O 	0.53524 0.52375 0.44811 -0.49400
O 	O 	0.94864 0.07869 0.56495 -0.46400
O 	O 	0.59846 0.89591 0.44871 -0.50400
O 	O 	0.64890 0.96850 0.55660 -0.49400
O 	O 	0.92436 0.97625 0.51149 -0.48800
O 	O 	0.42131 0.86995 0.98626 -0.46300
O 	O 	0.60409 0.70255 0.05280 -0.50600
O 	O 	0.53150 0.68040 0.08810 -0.49600
O 	O 	0.52375 0.94811 0.03524 -0.49200
O 	O 	0.07869 0.06495 0.44864 -0.46700
O 	O 	0.89591 0.94871 0.09846 -0.50100
O 	O 	0.96850 0.05660 0.14890 -0.49400
O 	O 	0.97625 0.01149 0.42436 -0.48900
O 	O 	0.11631 0.63005 0.05136 -0.46900
O 	O 	0.35025 0.79745 0.40154 -0.50400
O 	O 	0.40770 0.81960 0.35110 -0.49500
O 	O 	0.08713 0.55189 0.07564 -0.49600
O 	O 	0.38369 0.43505 0.51374 -0.46700
O 	O 	0.14975 0.55129 0.44720 -0.50500
O 	O 	0.09230 0.44340 0.41190 -0.49700
O 	O 	0.41287 0.48851 0.46476 -0.49400
O 	O 	0.91686 0.00000 -0.00000 -0.96400
O 	O 	0.50000 0.91686 0.50000 -0.95900
O 	O 	-0.00000 0.50000 0.41686 -0.96200
O 	O 	0.58314 0.58314 0.08314 -0.96000
O 	O 	0.41686 0.00000 -0.00000 -0.96400
O 	O 	0.50000 0.41686 0.50000 -0.96000
O 	O 	0.08314 0.08314 0.58314 -0.96100
O 	O 	0.00000 0.50000 0.91686 -0.96200
