data_crystal

_cell_length_a 12.93900
_cell_length_b 13.09200
_cell_length_c 13.75400
_cell_angle_alpha 85.44900
_cell_angle_beta  70.30200
_cell_angle_gamma 83.73100

_symmetry_space_group_name_	'P 1'
_symmetry_space_group_name_H-M	'P 1'

loop_
_symmetry_equiv_pos_as_xyz
  x,y,z

loop_
_atom_site_label
_atom_site_type_symbol
_atom_site_fract_x
_atom_site_fract_y
_atom_site_fract_z
_atom_site_charge
Co	Co	0.19486 0.81682 0.17002 1.15400
Co	Co	0.12776 0.82552 0.38169 1.15300
H 	H 	0.87230 0.80340 0.16890 0.05700
H 	H 	0.74380 0.78160 0.07650 0.06000
H 	H 	0.56630 0.78280 0.07760 0.04100
H 	H 	0.44990 0.83240 0.38140 0.05600
H 	H 	0.58060 0.85120 0.47580 0.06200
H 	H 	0.75870 0.85780 0.47240 0.04000
H 	H 	0.12670 0.15530 0.40060 0.06700
H 	H 	0.10570 0.32520 0.47980 0.07400
H 	H 	0.11700 0.49950 0.46140 0.03900
H 	H 	0.20740 0.48620 0.15010 0.05500
H 	H 	0.21790 0.31950 0.07260 0.05700
H 	H 	0.20740 0.14490 0.09270 0.04000
H 	H 	0.07910 0.94570 0.04110 0.01300
H 	H 	0.04210 0.93890 0.88820 0.07100
H 	H 	0.21100 0.67080 0.83910 0.07300
H 	H 	0.22510 0.67330 0.00060 0.00500
H 	H 	0.11490 0.97030 0.71000 0.08200
H 	H 	0.10410 0.97100 0.54670 0.00800
H 	H 	0.20430 0.68480 0.52390 0.00400
H 	H 	0.23230 0.67910 0.68220 0.07400
C 	C 	0.94810 0.83080 0.31720 0.34800
C 	C 	0.83360 0.82880 0.31880 -0.08700
C 	C 	0.81210 0.81340 0.23110 -0.03400
C 	C 	0.70380 0.81170 0.22870 0.02800
C 	C 	0.68400 0.79360 0.13860 -0.08900
C 	C 	0.57910 0.79340 0.13990 0.02100
C 	C 	0.48780 0.80840 0.23140 -0.08700
C 	C 	0.51010 0.82370 0.31900 -0.02800
C 	C 	0.61570 0.82730 0.32200 0.02200
C 	C 	0.63950 0.84250 0.41240 -0.08300
C 	C 	0.74500 0.84510 0.41100 0.01300
C 	C 	0.37330 0.80930 0.23270 0.36500
C 	C 	0.15990 0.01860 0.26160 0.35000
C 	C 	0.16530 0.13290 0.25020 -0.07200
C 	C 	0.14450 0.18930 0.33420 -0.04400
C 	C 	0.14840 0.29560 0.32590 0.03500
C 	C 	0.12580 0.35740 0.41240 -0.09500
C 	C 	0.13180 0.46050 0.40200 0.02400
C 	C 	0.16030 0.51000 0.30240 -0.08800
C 	C 	0.18480 0.45300 0.21700 -0.02600
C 	C 	0.17700 0.34520 0.22680 0.01900
C 	C 	0.19890 0.28690 0.13980 -0.08000
C 	C 	0.19270 0.18390 0.15200 0.00900
C 	C 	0.16370 0.62340 0.29130 0.36300
C 	C 	0.11470 0.89170 0.99590 0.05400
C 	C 	0.09590 0.89110 0.90330 -0.11200
C 	C 	0.15870 0.81720 0.83070 0.05200
C 	C 	0.19290 0.73330 0.87420 -0.12800
C 	C 	0.20240 0.73610 0.97110 0.08000
C 	C 	0.14890 0.81950 0.72660 0.06200
C 	C 	0.12640 0.90700 0.67700 -0.13300
C 	C 	0.11960 0.90700 0.57900 0.09100
C 	C 	0.17920 0.74310 0.56530 0.08400
C 	C 	0.19330 0.73750 0.66120 -0.12700
N 	N 	0.18290 0.81750 0.02550 -0.22800
N 	N 	0.13340 0.82400 0.52860 -0.24200
O 	O 	0.02340 0.82539 0.22994 -0.44500
O 	O 	0.96460 0.83744 0.40143 -0.43200
O 	O 	0.29810 0.81093 0.31790 -0.45900
O 	O 	0.35750 0.80850 0.14640 -0.42200
O 	O 	0.18220 0.97140 0.17849 -0.43600
O 	O 	0.13450 0.97822 0.35051 -0.44200
O 	O 	0.13640 0.67197 0.37354 -0.44400
O 	O 	0.19210 0.66542 0.20123 -0.44300
Co	Co	0.80514 0.18318 0.82998 1.15500
Co	Co	0.87224 0.17448 0.61831 1.15400
H 	H 	0.12770 0.19660 0.83110 0.05700
H 	H 	0.25620 0.21840 0.92350 0.06000
H 	H 	0.43370 0.21720 0.92240 0.04100
H 	H 	0.55010 0.16760 0.61860 0.05600
H 	H 	0.41940 0.14880 0.52420 0.06200
H 	H 	0.24130 0.14220 0.52760 0.04000
H 	H 	0.87330 0.84470 0.59940 0.06700
H 	H 	0.89430 0.67480 0.52020 0.07400
H 	H 	0.88300 0.50050 0.53860 0.03900
H 	H 	0.79260 0.51380 0.84990 0.05500
H 	H 	0.78210 0.68050 0.92740 0.05700
H 	H 	0.79260 0.85510 0.90730 0.04000
H 	H 	0.92090 0.05430 0.95890 0.01300
H 	H 	0.95790 0.06110 0.11180 0.07100
H 	H 	0.78900 0.32920 0.16090 0.07300
H 	H 	0.77490 0.32670 0.99940 0.00500
H 	H 	0.88510 0.02970 0.29000 0.08200
H 	H 	0.89590 0.02900 0.45330 0.00800
H 	H 	0.79570 0.31520 0.47610 0.00400
H 	H 	0.76770 0.32090 0.31780 0.07400
C 	C 	0.05190 0.16920 0.68280 0.34800
C 	C 	0.16640 0.17120 0.68120 -0.08700
C 	C 	0.18790 0.18660 0.76890 -0.03400
C 	C 	0.29620 0.18830 0.77130 0.02800
C 	C 	0.31600 0.20640 0.86140 -0.08900
C 	C 	0.42090 0.20660 0.86010 0.02100
C 	C 	0.51220 0.19160 0.76860 -0.08700
C 	C 	0.48990 0.17630 0.68100 -0.02800
C 	C 	0.38430 0.17270 0.67800 0.02200
C 	C 	0.36050 0.15750 0.58760 -0.08300
C 	C 	0.25500 0.15490 0.58900 0.01300
C 	C 	0.62670 0.19070 0.76730 0.36500
C 	C 	0.84010 0.98140 0.73840 0.35000
C 	C 	0.83470 0.86710 0.74980 -0.07200
C 	C 	0.85550 0.81070 0.66580 -0.04400
C 	C 	0.85160 0.70440 0.67410 0.03500
C 	C 	0.87420 0.64260 0.58760 -0.09500
C 	C 	0.86820 0.53950 0.59800 0.02400
C 	C 	0.83970 0.49000 0.69760 -0.08800
C 	C 	0.81520 0.54700 0.78300 -0.02600
C 	C 	0.82300 0.65480 0.77320 0.01900
C 	C 	0.80110 0.71310 0.86020 -0.08000
C 	C 	0.80730 0.81610 0.84800 0.00900
C 	C 	0.83630 0.37660 0.70870 0.36300
C 	C 	0.88530 0.10830 0.00410 0.05400
C 	C 	0.90410 0.10890 0.09670 -0.11200
C 	C 	0.84130 0.18280 0.16930 0.05200
C 	C 	0.80710 0.26670 0.12580 -0.12800
C 	C 	0.79760 0.26390 0.02890 0.08000
C 	C 	0.85110 0.18050 0.27340 0.06200
C 	C 	0.87360 0.09300 0.32300 -0.13300
C 	C 	0.88040 0.09300 0.42100 0.09100
C 	C 	0.82080 0.25690 0.43470 0.08400
C 	C 	0.80670 0.26250 0.33880 -0.12700
N 	N 	0.81710 0.18250 0.97450 -0.22800
N 	N 	0.86660 0.17600 0.47140 -0.24200
O 	O 	0.97660 0.17461 0.77006 -0.44500
O 	O 	0.03540 0.16256 0.59857 -0.43200
O 	O 	0.70190 0.18907 0.68210 -0.45900
O 	O 	0.64250 0.19150 0.85360 -0.42200
O 	O 	0.81780 0.02860 0.82151 -0.43600
O 	O 	0.86550 0.02178 0.64949 -0.44200
O 	O 	0.86360 0.32803 0.62646 -0.44400
O 	O 	0.80790 0.33458 0.79877 -0.44300
