data_crystal

_cell_length_a 10.03880
_cell_length_b 14.22910
_cell_length_c 10.34130
_cell_angle_alpha 92.44900
_cell_angle_beta  90.00000
_cell_angle_gamma 90.00000

_symmetry_space_group_name_	'P 1'
_symmetry_space_group_name_H-M	'P 1'

loop_
_symmetry_equiv_pos_as_xyz
  x,y,z

loop_
_atom_site_label
_atom_site_type_symbol
_atom_site_fract_x
_atom_site_fract_y
_atom_site_fract_z
_atom_site_charge
Cu	Cu	0.24699 0.28248 0.92450 0.93500
Cu	Cu	0.23290 0.78686 0.92860 0.87700
Cu	Cu	0.88663 0.77353 0.70532 0.91200
Cu	Cu	0.40903 0.78041 0.65767 0.92500
Cu	Cu	0.27701 0.66725 0.40975 0.91100
Cu	Cu	0.26534 0.87698 0.43944 0.92800
Cu	Cu	0.25772 0.28617 0.43585 0.95400
Cu	Cu	0.75301 0.28248 0.42450 0.95500
Cu	Cu	0.76710 0.78686 0.42860 0.92300
Cu	Cu	0.11337 0.77353 0.20532 0.91800
Cu	Cu	0.59097 0.78041 0.15767 0.94800
Cu	Cu	0.72299 0.66725 0.90975 0.89300
Cu	Cu	0.73466 0.87698 0.93944 0.90200
Cu	Cu	0.74228 0.28617 0.93585 0.92900
H 	H 	0.36780 0.48600 0.77760 0.04700
H 	H 	0.17590 0.51780 0.61150 0.08800
H 	H 	0.00430 0.45130 0.71030 0.08000
H 	H 	0.06270 0.50440 0.96910 0.04700
H 	H 	0.12300 0.09290 0.09440 0.07600
H 	H 	0.31440 0.05260 0.25190 0.10400
H 	H 	0.49510 0.10580 0.14830 0.08100
H 	H 	0.42730 0.06470 0.89090 0.08600
H 	H 	0.03400 0.82900 0.02800 0.15300
H 	H 	0.92500 0.75000 0.93400 0.17300
H 	H 	0.40700 0.87100 0.85300 0.18000
H 	H 	0.48000 0.77700 0.44600 0.22700
H 	H 	0.63220 0.48600 0.27760 0.06100
H 	H 	0.82410 0.51780 0.11150 0.11600
H 	H 	0.99570 0.45130 0.21030 0.09600
H 	H 	0.93730 0.50440 0.46910 0.07900
H 	H 	0.87700 0.09290 0.59440 0.08400
H 	H 	0.68560 0.05260 0.75190 0.09300
H 	H 	0.50490 0.10580 0.64830 0.07900
H 	H 	0.57270 0.06470 0.39090 0.07700
H 	H 	0.96600 0.82900 0.52800 0.14100
H 	H 	0.07500 0.75000 0.43400 0.21000
H 	H 	0.59300 0.87100 0.35300 0.19900
H 	H 	0.52000 0.77700 0.94600 0.21400
C 	C 	0.27680 0.45780 0.76920 -0.00800
C 	C 	0.17870 0.52840 0.70770 -0.12100
C 	C 	0.04580 0.50150 0.76770 -0.10000
C 	C 	0.08280 0.45760 0.89690 -0.01900
C 	C 	0.28120 0.36730 0.68460 0.29900
C 	C 	0.22440 0.62820 0.74330 0.38700
C 	C 	0.94720 0.58160 0.78390 0.37700
C 	C 	0.00120 0.36810 0.91790 0.31800
C 	C 	0.21730 0.11560 0.09720 0.07900
C 	C 	0.30790 0.04150 0.15600 -0.14500
C 	C 	0.44460 0.06000 0.09100 -0.02900
C 	C 	0.40790 0.10940 0.96570 -0.11500
C 	C 	0.22650 0.20990 0.17580 0.30500
C 	C 	0.25570 0.94200 0.12320 0.40000
C 	C 	0.53020 0.97380 0.06790 0.46300
C 	C 	0.48970 0.19800 0.94820 0.32700
C 	C 	0.72320 0.45780 0.26920 -0.00800
C 	C 	0.82130 0.52840 0.20770 -0.11800
C 	C 	0.95420 0.50150 0.26770 -0.09200
C 	C 	0.91720 0.45760 0.39690 -0.02600
C 	C 	0.71880 0.36730 0.18460 0.29700
C 	C 	0.77560 0.62820 0.24330 0.38000
C 	C 	0.05280 0.58160 0.28390 0.37600
C 	C 	0.99880 0.36810 0.41790 0.32900
C 	C 	0.78270 0.11560 0.59720 -0.02300
C 	C 	0.69210 0.04150 0.65600 -0.11800
C 	C 	0.55540 0.06000 0.59100 -0.09100
C 	C 	0.59210 0.10940 0.46570 -0.03300
C 	C 	0.77350 0.20990 0.67580 0.32600
C 	C 	0.74430 0.94200 0.62320 0.39800
C 	C 	0.46980 0.97380 0.56790 0.35300
C 	C 	0.51030 0.19800 0.44820 0.32100
Cl	Cl	0.10399 0.97408 0.51113 -0.48200
Cl	Cl	0.62501 0.69012 0.65661 -0.58200
Cl	Cl	0.89601 0.97408 0.01113 -0.38800
Cl	Cl	0.37499 0.69012 0.15661 -0.53200
O 	O 	0.22270 0.44070 0.89480 -0.24000
O 	O 	0.23950 0.29200 0.72990 -0.35500
O 	O 	0.32320 0.37590 0.57020 -0.35400
O 	O 	0.28000 0.67250 0.65340 -0.47200
O 	O 	0.20790 0.65800 0.85710 -0.42100
O 	O 	0.95920 0.64490 0.70320 -0.40600
O 	O 	0.86190 0.57710 0.87220 -0.43600
O 	O 	0.87790 0.37940 0.91400 -0.39800
O 	O 	0.05810 0.29120 0.93980 -0.40800
O 	O 	0.07280 0.76750 0.02450 -0.47200
O 	O 	0.84800 0.77250 0.88990 -0.66800
O 	O 	0.26640 0.12660 0.96800 -0.27800
O 	O 	0.25820 0.28320 0.11960 -0.30200
O 	O 	0.20060 0.20360 0.29400 -0.34900
O 	O 	0.20820 0.89640 0.21320 -0.46500
O 	O 	0.26500 0.91440 0.00590 -0.35600
O 	O 	0.53210 0.91580 0.15700 -0.42400
O 	O 	0.59390 0.96620 0.96220 -0.49200
O 	O 	0.61310 0.18940 0.96980 -0.40000
O 	O 	0.43650 0.27100 0.90850 -0.41200
O 	O 	0.39590 0.80520 0.84000 -0.58500
O 	O 	0.38940 0.77010 0.47110 -0.66100
O 	O 	0.77730 0.44070 0.39480 -0.21700
O 	O 	0.76050 0.29200 0.22990 -0.33400
O 	O 	0.67680 0.37590 0.07020 -0.29400
O 	O 	0.72000 0.67250 0.15340 -0.43300
O 	O 	0.79210 0.65800 0.35710 -0.39100
O 	O 	0.04080 0.64490 0.20320 -0.38500
O 	O 	0.13810 0.57710 0.37220 -0.40800
O 	O 	0.12210 0.37940 0.41400 -0.36700
O 	O 	0.94190 0.29120 0.43980 -0.37500
O 	O 	0.92720 0.76750 0.52450 -0.53100
O 	O 	0.15200 0.77250 0.38990 -0.65800
O 	O 	0.73360 0.12660 0.46800 -0.20900
O 	O 	0.74180 0.28320 0.61960 -0.36300
O 	O 	0.79940 0.20360 0.79400 -0.36900
O 	O 	0.79180 0.89640 0.71320 -0.47700
O 	O 	0.73500 0.91440 0.50590 -0.41200
O 	O 	0.46790 0.91580 0.65700 -0.41600
O 	O 	0.40610 0.96620 0.46220 -0.39800
O 	O 	0.38690 0.18940 0.46980 -0.35600
O 	O 	0.56350 0.27100 0.40850 -0.38300
O 	O 	0.60410 0.80520 0.34000 -0.57300
O 	O 	0.61060 0.77010 0.97110 -0.70300
