data_crystal

_cell_length_a 10.06010
_cell_length_b 14.18510
_cell_length_c 10.25370
_cell_angle_alpha 92.26200
_cell_angle_beta  90.00000
_cell_angle_gamma 90.00000

_symmetry_space_group_name_	'P 1'
_symmetry_space_group_name_H-M	'P 1'

loop_
_symmetry_equiv_pos_as_xyz
  x,y,z

loop_
_atom_site_label
_atom_site_type_symbol
_atom_site_fract_x
_atom_site_fract_y
_atom_site_fract_z
_atom_site_charge
Cu	Cu	0.24910 0.28527 0.92567 0.93400
Cu	Cu	0.23157 0.78866 0.93177 0.87900
Cu	Cu	0.87774 0.77066 0.70152 0.91700
Cu	Cu	0.40681 0.78158 0.65630 0.92800
Cu	Cu	0.28124 0.66430 0.40819 0.91300
Cu	Cu	0.26459 0.87612 0.44017 0.92400
Cu	Cu	0.25720 0.28736 0.43799 0.95500
Cu	Cu	0.75090 0.28527 0.42567 0.95300
Cu	Cu	0.76843 0.78866 0.43177 0.92600
Cu	Cu	0.12226 0.77066 0.20152 0.92400
Cu	Cu	0.59319 0.78158 0.15630 0.95200
Cu	Cu	0.71876 0.66430 0.90819 0.89500
Cu	Cu	0.73541 0.87612 0.94017 0.89800
Cu	Cu	0.74280 0.28736 0.93799 0.93000
H 	H 	0.35900 0.49500 0.76900 0.04100
H 	H 	0.18100 0.52100 0.62100 0.12100
H 	H 	0.00300 0.45400 0.71200 0.07500
H 	H 	0.06500 0.50500 0.96900 0.05400
H 	H 	0.13100 0.09400 0.08200 0.08500
H 	H 	0.31400 0.05400 0.25400 0.10500
H 	H 	0.50100 0.09500 0.13500 0.09900
H 	H 	0.43300 0.07900 0.89100 0.09400
H 	H 	0.02500 0.84500 0.02200 0.18200
H 	H 	0.92600 0.76400 0.93600 0.18200
H 	H 	0.41100 0.87040 0.85800 0.18900
H 	H 	0.47400 0.77400 0.42200 0.23100
H 	H 	0.64100 0.49500 0.26900 0.05500
H 	H 	0.81900 0.52100 0.12100 0.14900
H 	H 	0.99700 0.45400 0.21200 0.09000
H 	H 	0.93500 0.50500 0.46900 0.08700
H 	H 	0.86900 0.09400 0.58200 0.09500
H 	H 	0.68600 0.05400 0.75400 0.09000
H 	H 	0.49900 0.09500 0.63500 0.11400
H 	H 	0.56700 0.07900 0.39100 0.07000
H 	H 	0.97500 0.84500 0.52200 0.16900
H 	H 	0.07400 0.76400 0.43600 0.22300
H 	H 	0.58900 0.87040 0.35800 0.20800
H 	H 	0.52600 0.77400 0.92200 0.22500
C 	C 	0.27460 0.46200 0.76850 0.00900
C 	C 	0.17600 0.53180 0.70640 -0.18500
C 	C 	0.04430 0.50200 0.76590 -0.07500
C 	C 	0.08030 0.45970 0.89710 -0.03900
C 	C 	0.28450 0.37170 0.68340 0.28900
C 	C 	0.21850 0.63210 0.74280 0.40800
C 	C 	0.94200 0.58130 0.77820 0.36900
C 	C 	0.00160 0.36900 0.91930 0.33400
C 	C 	0.21900 0.11700 0.09800 0.06300
C 	C 	0.30970 0.04190 0.15880 -0.13300
C 	C 	0.44580 0.06090 0.09120 -0.06200
C 	C 	0.40970 0.11080 0.96720 -0.12000
C 	C 	0.22610 0.21070 0.17780 0.31000
C 	C 	0.25820 0.94300 0.12470 0.40000
C 	C 	0.52990 0.97410 0.06750 0.47400
C 	C 	0.49130 0.20100 0.95030 0.32700
C 	C 	0.72540 0.46200 0.26850 0.01100
C 	C 	0.82400 0.53180 0.20640 -0.18700
C 	C 	0.95570 0.50200 0.26590 -0.06300
C 	C 	0.91970 0.45970 0.39710 -0.04900
C 	C 	0.71550 0.37170 0.18340 0.28800
C 	C 	0.78150 0.63210 0.24280 0.40400
C 	C 	0.05800 0.58130 0.27820 0.36700
C 	C 	0.99840 0.36900 0.41930 0.34600
C 	C 	0.78100 0.11700 0.59800 -0.04400
C 	C 	0.69030 0.04190 0.65880 -0.09500
C 	C 	0.55420 0.06090 0.59120 -0.15300
C 	C 	0.59030 0.11080 0.46720 -0.01300
C 	C 	0.77390 0.21070 0.67780 0.33300
C 	C 	0.74180 0.94300 0.62470 0.39500
C 	C 	0.47010 0.97410 0.56750 0.37200
C 	C 	0.50870 0.20100 0.45030 0.31500
Cl	Cl	0.10602 0.97020 0.52243 -0.49500
Cl	Cl	0.62553 0.69028 0.65256 -0.59200
Cl	Cl	0.89398 0.97020 0.02243 -0.40300
Cl	Cl	0.37447 0.69028 0.15256 -0.54000
O 	O 	0.22220 0.44390 0.89520 -0.24000
O 	O 	0.24330 0.29540 0.72830 -0.35400
O 	O 	0.32660 0.38087 0.56860 -0.35000
O 	O 	0.27760 0.67535 0.65230 -0.48000
O 	O 	0.19760 0.66270 0.85630 -0.43300
O 	O 	0.95380 0.64452 0.69630 -0.40600
O 	O 	0.85400 0.57437 0.86460 -0.43200
O 	O 	0.87880 0.37990 0.91880 -0.40600
O 	O 	0.05950 0.29260 0.93920 -0.41300
O 	O 	0.06730 0.78330 0.02430 -0.49200
O 	O 	0.84560 0.76870 0.88750 -0.66800
O 	O 	0.26920 0.12857 0.96890 -0.27500
O 	O 	0.25860 0.28460 0.12300 -0.30400
O 	O 	0.19970 0.20316 0.29720 -0.34800
O 	O 	0.21180 0.89595 0.21520 -0.46700
O 	O 	0.26790 0.91592 0.00720 -0.35500
O 	O 	0.53040 0.91547 0.15640 -0.42800
O 	O 	0.59460 0.96689 0.96170 -0.49300
O 	O 	0.61380 0.19100 0.97210 -0.40200
O 	O 	0.43920 0.27480 0.91180 -0.41300
O 	O 	0.39350 0.80603 0.83910 -0.59600
O 	O 	0.39120 0.76892 0.46760 -0.65900
O 	O 	0.77780 0.44390 0.39520 -0.21600
O 	O 	0.75670 0.29540 0.22830 -0.33100
O 	O 	0.67340 0.38087 0.06860 -0.28800
O 	O 	0.72240 0.67535 0.15230 -0.44100
O 	O 	0.80240 0.66270 0.35630 -0.40400
O 	O 	0.04620 0.64452 0.19630 -0.38200
O 	O 	0.14600 0.57437 0.36460 -0.40400
O 	O 	0.12120 0.37990 0.41880 -0.37500
O 	O 	0.94050 0.29260 0.43920 -0.38000
O 	O 	0.93270 0.78330 0.52430 -0.55000
O 	O 	0.15440 0.76870 0.38750 -0.66200
O 	O 	0.73080 0.12857 0.46890 -0.20900
O 	O 	0.74140 0.28460 0.62300 -0.36600
O 	O 	0.80030 0.20316 0.79720 -0.36800
O 	O 	0.78820 0.89595 0.71520 -0.47700
O 	O 	0.73210 0.91592 0.50720 -0.41000
O 	O 	0.46960 0.91547 0.65640 -0.42100
O 	O 	0.40540 0.96689 0.46170 -0.40100
O 	O 	0.38620 0.19100 0.47210 -0.35800
O 	O 	0.56080 0.27480 0.41180 -0.38100
O 	O 	0.60650 0.80603 0.33910 -0.58300
O 	O 	0.60880 0.76892 0.96760 -0.70600
