data_crystal

_cell_length_a 10.04300
_cell_length_b 14.11900
_cell_length_c 10.21000
_cell_angle_alpha 92.16000
_cell_angle_beta  90.00000
_cell_angle_gamma 90.00000

_symmetry_space_group_name_	'P 1'
_symmetry_space_group_name_H-M	'P 1'

loop_
_symmetry_equiv_pos_as_xyz
  x,y,z

loop_
_atom_site_label
_atom_site_type_symbol
_atom_site_fract_x
_atom_site_fract_y
_atom_site_fract_z
_atom_site_charge
Cu	Cu	0.24873 0.28577 0.92551 0.93700
Cu	Cu	0.23250 0.78889 0.93342 0.88500
Cu	Cu	0.87350 0.76946 0.69948 0.92200
Cu	Cu	0.40590 0.78232 0.65479 0.93000
Cu	Cu	0.28175 0.66388 0.40682 0.91400
Cu	Cu	0.26349 0.87609 0.44215 0.92600
Cu	Cu	0.25737 0.28781 0.43813 0.95700
Cu	Cu	0.75127 0.28577 0.42551 0.95500
Cu	Cu	0.76750 0.78889 0.43342 0.92900
Cu	Cu	0.12650 0.76946 0.19948 0.92700
Cu	Cu	0.59410 0.78232 0.15479 0.95300
Cu	Cu	0.71825 0.66388 0.90682 0.89600
Cu	Cu	0.73651 0.87609 0.94215 0.90100
Cu	Cu	0.74263 0.28781 0.93813 0.93200
H 	H 	0.36410 0.49400 0.77740 0.04400
H 	H 	0.17490 0.52170 0.60770 0.08900
H 	H 	0.00550 0.45040 0.70720 0.07800
H 	H 	0.05870 0.50690 0.96970 0.04800
H 	H 	0.12540 0.09350 0.09390 0.07700
H 	H 	0.31710 0.05370 0.25610 0.10600
H 	H 	0.49620 0.10590 0.15010 0.07900
H 	H 	0.42880 0.06820 0.88980 0.08700
H 	H 	0.02500 0.84800 0.01900 0.20400
H 	H 	0.92700 0.75400 0.92900 0.19000
H 	H 	0.40400 0.87280 0.84900 0.18500
H 	H 	0.47300 0.77700 0.41800 0.23200
H 	H 	0.63590 0.49400 0.27740 0.05800
H 	H 	0.82510 0.52170 0.10770 0.11800
H 	H 	0.99450 0.45040 0.20720 0.09400
H 	H 	0.94130 0.50690 0.46970 0.08100
H 	H 	0.87460 0.09350 0.59390 0.08400
H 	H 	0.68290 0.05370 0.75610 0.09500
H 	H 	0.50380 0.10590 0.65010 0.07800
H 	H 	0.57120 0.06820 0.38980 0.07800
H 	H 	0.97500 0.84800 0.51900 0.19200
H 	H 	0.07300 0.75400 0.42900 0.22600
H 	H 	0.59600 0.87280 0.34900 0.20300
H 	H 	0.52700 0.77700 0.91800 0.22700
C 	C 	0.27440 0.46370 0.76820 -0.00300
C 	C 	0.17630 0.53240 0.70510 -0.13100
C 	C 	0.04350 0.50240 0.76490 -0.09500
C 	C 	0.08060 0.45970 0.89750 -0.03100
C 	C 	0.28440 0.37240 0.68250 0.29900
C 	C 	0.21810 0.63280 0.74120 0.39500
C 	C 	0.94120 0.58100 0.77580 0.38000
C 	C 	0.00240 0.36920 0.91880 0.33700
C 	C 	0.21920 0.11710 0.09820 0.07500
C 	C 	0.30990 0.04240 0.15910 -0.15100
C 	C 	0.44440 0.06090 0.09180 -0.02200
C 	C 	0.40940 0.11260 0.96600 -0.11700
C 	C 	0.22520 0.21070 0.17850 0.30600
C 	C 	0.25820 0.94360 0.12640 0.39900
C 	C 	0.52980 0.97280 0.06630 0.47500
C 	C 	0.49170 0.20170 0.94880 0.34300
C 	C 	0.72560 0.46370 0.26820 -0.00200
C 	C 	0.82370 0.53240 0.20510 -0.12900
C 	C 	0.95650 0.50240 0.26490 -0.08600
C 	C 	0.91940 0.45970 0.39750 -0.03800
C 	C 	0.71560 0.37240 0.18250 0.29700
C 	C 	0.78190 0.63280 0.24120 0.39000
C 	C 	0.05880 0.58100 0.27580 0.37800
C 	C 	0.99760 0.36920 0.41880 0.34800
C 	C 	0.78080 0.11710 0.59820 -0.02600
C 	C 	0.69010 0.04240 0.65910 -0.12200
C 	C 	0.55560 0.06090 0.59180 -0.08400
C 	C 	0.59060 0.11260 0.46600 -0.03700
C 	C 	0.77480 0.21070 0.67850 0.32900
C 	C 	0.74180 0.94360 0.62640 0.39700
C 	C 	0.47020 0.97280 0.56630 0.36400
C 	C 	0.50830 0.20170 0.44880 0.33500
Cl	Cl	0.11134 0.96255 0.54715 -0.50400
Cl	Cl	0.62796 0.69117 0.64913 -0.59800
Cl	Cl	0.88866 0.96255 0.04715 -0.42100
Cl	Cl	0.37204 0.69117 0.14913 -0.54600
O 	O 	0.22120 0.44500 0.89540 -0.24000
O 	O 	0.24410 0.29630 0.72770 -0.35900
O 	O 	0.32720 0.38188 0.56740 -0.35200
O 	O 	0.27840 0.67550 0.65180 -0.47800
O 	O 	0.19470 0.66421 0.85550 -0.42800
O 	O 	0.95350 0.64498 0.69400 -0.41200
O 	O 	0.85360 0.57404 0.86220 -0.43900
O 	O 	0.87910 0.38045 0.91890 -0.40500
O 	O 	0.05870 0.29300 0.93920 -0.41600
O 	O 	0.06710 0.78683 0.02430 -0.50300
O 	O 	0.84550 0.76809 0.88700 -0.67200
O 	O 	0.26950 0.12938 0.96780 -0.27500
O 	O 	0.25780 0.28470 0.12340 -0.30600
O 	O 	0.19880 0.20365 0.29850 -0.35100
O 	O 	0.21060 0.89620 0.21640 -0.46700
O 	O 	0.26790 0.91634 0.00670 -0.35300
O 	O 	0.52710 0.91423 0.15510 -0.43500
O 	O 	0.59540 0.96732 0.96150 -0.49500
O 	O 	0.61330 0.19160 0.97180 -0.40800
O 	O 	0.43890 0.27569 0.91220 -0.41900
O 	O 	0.39280 0.80648 0.83870 -0.59200
O 	O 	0.39140 0.76816 0.46590 -0.65800
O 	O 	0.77880 0.44500 0.39540 -0.21700
O 	O 	0.75590 0.29630 0.22770 -0.33700
O 	O 	0.67280 0.38188 0.06740 -0.29200
O 	O 	0.72160 0.67550 0.15180 -0.44000
O 	O 	0.80530 0.66421 0.35550 -0.40000
O 	O 	0.04650 0.64498 0.19400 -0.38900
O 	O 	0.14640 0.57404 0.36220 -0.41200
O 	O 	0.12090 0.38045 0.41890 -0.37400
O 	O 	0.94130 0.29300 0.43920 -0.38300
O 	O 	0.93290 0.78683 0.52430 -0.55800
O 	O 	0.15450 0.76809 0.38700 -0.66300
O 	O 	0.73050 0.12938 0.46780 -0.20900
O 	O 	0.74220 0.28470 0.62340 -0.36600
O 	O 	0.80120 0.20365 0.79850 -0.37000
O 	O 	0.78940 0.89620 0.71640 -0.47700
O 	O 	0.73210 0.91634 0.50670 -0.40800
O 	O 	0.47290 0.91423 0.65510 -0.42300
O 	O 	0.40460 0.96732 0.46150 -0.40200
O 	O 	0.38670 0.19160 0.47180 -0.36600
O 	O 	0.56110 0.27569 0.41220 -0.38900
O 	O 	0.60720 0.80648 0.33870 -0.57900
O 	O 	0.60860 0.76816 0.96590 -0.70400
