data_crystal

_cell_length_a 33.89400
_cell_length_b 13.22900
_cell_length_c 8.93700
_cell_angle_alpha 90.00000
_cell_angle_beta  104.37000
_cell_angle_gamma 90.00000

_symmetry_space_group_name_	'P 1'
_symmetry_space_group_name_H-M	'P 1'

loop_
_symmetry_equiv_pos_as_xyz
  x,y,z

loop_
_atom_site_label
_atom_site_type_symbol
_atom_site_fract_x
_atom_site_fract_y
_atom_site_fract_z
_atom_site_charge
Zn	Zn	0.14858 0.39570 0.16001 1.23200
Zn	Zn	0.22932 0.64163 0.12724 1.23800
P 	P 	0.19570 0.55164 0.40357 0.53500
P 	P 	0.05163 0.38268 0.06660 0.48400
H 	H 	0.05700 0.28500 0.10700 -0.03400
P 	P 	0.18005 0.20973 0.38460 0.47300
H 	H 	0.16240 0.11890 0.38800 -0.02200
O 	O 	0.22471 0.62700 0.33050 -0.41100
O 	O 	0.15865 0.51960 0.28180 -0.47700
O 	O 	0.21940 0.45780 0.47700 -0.51200
O 	O 	0.18442 0.62000 0.52520 -0.43800
O 	O 	0.09182 0.41170 0.04200 -0.44500
O 	O 	0.01799 0.39520 0.92260 -0.46400
O 	O 	0.04392 0.42830 0.21000 -0.46000
O 	O 	0.21503 0.19230 0.31430 -0.46300
O 	O 	0.14755 0.27470 0.28870 -0.44000
O 	O 	0.19224 0.24280 0.54770 -0.44400
Zn	Zn	0.64858 0.89570 0.16001 1.23300
Zn	Zn	0.72932 0.14163 0.12724 1.23700
P 	P 	0.69570 0.05164 0.40357 0.53500
P 	P 	0.55163 0.88268 0.06660 0.48600
H 	H 	0.55700 0.78500 0.10700 -0.03000
P 	P 	0.68005 0.70973 0.38460 0.47400
H 	H 	0.66240 0.61890 0.38800 -0.02100
O 	O 	0.72471 0.12700 0.33050 -0.41000
O 	O 	0.65865 0.01960 0.28180 -0.47700
O 	O 	0.71940 0.95780 0.47700 -0.51100
O 	O 	0.68442 0.12000 0.52520 -0.43800
O 	O 	0.59182 0.91170 0.04200 -0.44300
O 	O 	0.51799 0.89520 0.92260 -0.45400
O 	O 	0.54392 0.92830 0.21000 -0.45300
O 	O 	0.71503 0.69230 0.31430 -0.46200
O 	O 	0.64755 0.77470 0.28870 -0.43800
O 	O 	0.69224 0.74280 0.54770 -0.44300
Zn	Zn	0.85142 0.39570 0.33999 1.23300
Zn	Zn	0.77068 0.64163 0.37276 1.23800
P 	P 	0.80430 0.55164 0.09643 0.53600
P 	P 	0.94837 0.38268 0.43340 0.48400
H 	H 	0.94300 0.28500 0.39300 -0.02600
P 	P 	0.81995 0.20973 0.11540 0.47300
H 	H 	0.83760 0.11890 0.11200 -0.01900
O 	O 	0.77529 0.62700 0.16950 -0.41000
O 	O 	0.84135 0.51960 0.21820 -0.47600
O 	O 	0.78060 0.45780 0.02300 -0.51200
O 	O 	0.81558 0.62000 0.97480 -0.43900
O 	O 	0.90818 0.41170 0.45800 -0.44100
O 	O 	0.98201 0.39520 0.57740 -0.43700
O 	O 	0.95608 0.42830 0.29000 -0.44300
O 	O 	0.78497 0.19230 0.18570 -0.46200
O 	O 	0.85245 0.27470 0.21130 -0.43700
O 	O 	0.80776 0.24280 0.95230 -0.44200
Zn	Zn	0.35142 0.89570 0.33999 1.23300
Zn	Zn	0.27068 0.14163 0.37276 1.23800
P 	P 	0.30430 0.05164 0.09643 0.53300
P 	P 	0.44837 0.88268 0.43340 0.48400
H 	H 	0.44300 0.78500 0.39300 -0.03000
P 	P 	0.31995 0.70973 0.11540 0.47500
H 	H 	0.33760 0.61890 0.11200 -0.02100
O 	O 	0.27529 0.12700 0.16950 -0.41100
O 	O 	0.34135 0.01960 0.21820 -0.47700
O 	O 	0.28060 0.95780 0.02300 -0.50900
O 	O 	0.31558 0.12000 0.97480 -0.43700
O 	O 	0.40818 0.91170 0.45800 -0.44400
O 	O 	0.48201 0.89520 0.57740 -0.45200
O 	O 	0.45608 0.92830 0.29000 -0.45300
O 	O 	0.28497 0.69230 0.18570 -0.46200
O 	O 	0.35245 0.77470 0.21130 -0.43800
O 	O 	0.30776 0.74280 0.95230 -0.44500
Zn	Zn	0.85142 0.60430 0.83999 1.23300
Zn	Zn	0.77068 0.35837 0.87276 1.23800
P 	P 	0.80430 0.44836 0.59643 0.53500
P 	P 	0.94837 0.61732 0.93340 0.48200
H 	H 	0.94300 0.71500 0.89300 -0.02600
P 	P 	0.81995 0.79027 0.61540 0.47400
H 	H 	0.83760 0.88110 0.61200 -0.01900
O 	O 	0.77529 0.37300 0.66950 -0.41000
O 	O 	0.84135 0.48040 0.71820 -0.47600
O 	O 	0.78060 0.54220 0.52300 -0.51200
O 	O 	0.81558 0.38000 0.47480 -0.43700
O 	O 	0.90818 0.58830 0.95800 -0.44200
O 	O 	0.98201 0.60480 0.07740 -0.43500
O 	O 	0.95608 0.57170 0.79000 -0.44300
O 	O 	0.78497 0.80770 0.68570 -0.46200
O 	O 	0.85245 0.72530 0.71130 -0.43700
O 	O 	0.80776 0.75720 0.45230 -0.44200
Zn	Zn	0.35142 0.10430 0.83999 1.23300
Zn	Zn	0.27068 0.85837 0.87276 1.23700
P 	P 	0.30430 0.94836 0.59643 0.53500
P 	P 	0.44837 0.11732 0.93340 0.48500
H 	H 	0.44300 0.21500 0.89300 -0.03000
P 	P 	0.31995 0.29027 0.61540 0.47400
H 	H 	0.33760 0.38110 0.61200 -0.02100
O 	O 	0.27529 0.87300 0.66950 -0.41100
O 	O 	0.34135 0.98040 0.71820 -0.47700
O 	O 	0.28060 0.04220 0.52300 -0.51100
O 	O 	0.31558 0.88000 0.47480 -0.43800
O 	O 	0.40818 0.08830 0.95800 -0.44300
O 	O 	0.48201 0.10480 0.07740 -0.45400
O 	O 	0.45608 0.07170 0.79000 -0.45300
O 	O 	0.28497 0.30770 0.68570 -0.46200
O 	O 	0.35245 0.22530 0.71130 -0.43800
O 	O 	0.30776 0.25720 0.45230 -0.44300
Zn	Zn	0.14858 0.60430 0.66001 1.23300
Zn	Zn	0.22932 0.35837 0.62724 1.23800
P 	P 	0.19570 0.44836 0.90357 0.53500
P 	P 	0.05163 0.61732 0.56660 0.48300
H 	H 	0.05700 0.71500 0.60700 -0.03400
P 	P 	0.18005 0.79027 0.88460 0.47200
H 	H 	0.16240 0.88110 0.88800 -0.02300
O 	O 	0.22471 0.37300 0.83050 -0.41100
O 	O 	0.15865 0.48040 0.78180 -0.47800
O 	O 	0.21940 0.54220 0.97700 -0.51200
O 	O 	0.18442 0.38000 0.02520 -0.43900
O 	O 	0.09182 0.58830 0.54200 -0.44600
O 	O 	0.01799 0.60480 0.42260 -0.46300
O 	O 	0.04392 0.57170 0.71000 -0.46100
O 	O 	0.21503 0.80770 0.81430 -0.46300
O 	O 	0.14755 0.72530 0.78870 -0.44000
O 	O 	0.19224 0.75720 0.04770 -0.44200
Zn	Zn	0.64858 0.10430 0.66001 1.23300
Zn	Zn	0.72932 0.85837 0.62724 1.23800
P 	P 	0.69570 0.94836 0.90357 0.53200
P 	P 	0.55163 0.11732 0.56660 0.48400
H 	H 	0.55700 0.21500 0.60700 -0.03000
P 	P 	0.68005 0.29027 0.88460 0.47400
H 	H 	0.66240 0.38110 0.88800 -0.02100
O 	O 	0.72471 0.87300 0.83050 -0.41100
O 	O 	0.65865 0.98040 0.78180 -0.47700
O 	O 	0.71940 0.04220 0.97700 -0.51000
O 	O 	0.68442 0.88000 0.02520 -0.43600
O 	O 	0.59182 0.08830 0.54200 -0.44400
O 	O 	0.51799 0.10480 0.42260 -0.45200
O 	O 	0.54392 0.07170 0.71000 -0.45300
O 	O 	0.71503 0.30770 0.81430 -0.46300
O 	O 	0.64755 0.22530 0.78870 -0.43800
O 	O 	0.69224 0.25720 0.04770 -0.44400
Zn	Zn	0.00000 0.48862 0.75000 1.22700
Zn	Zn	0.50000 0.98862 0.75000 1.23500
Zn	Zn	0.00000 0.51138 0.25000 1.22700
Zn	Zn	0.50000 0.01138 0.25000 1.23500
