data_crystal

_cell_length_a 14.11300
_cell_length_b 14.59000
_cell_length_c 10.46900
_cell_angle_alpha 90.00000
_cell_angle_beta  90.00000
_cell_angle_gamma 90.00000

_symmetry_space_group_name_	'P 1'
_symmetry_space_group_name_H-M	'P 1'

loop_
_symmetry_equiv_pos_as_xyz
  x,y,z

loop_
_atom_site_label
_atom_site_type_symbol
_atom_site_fract_x
_atom_site_fract_y
_atom_site_fract_z
_atom_site_charge
Co	Co	0.39692 0.16970 0.18264 1.17900
Co	Co	0.11362 0.15152 0.11921 1.17100
Zn	Zn	0.25361 0.03869 0.64991 1.23300
Co	Co	0.24639 0.53869 0.14991 1.18500
P 	P 	0.28224 0.13845 0.92640 0.45100
H 	H 	0.26400 0.22800 0.90400 -0.05200
P 	P 	0.61566 0.13179 0.16960 0.42500
H 	H 	0.68200 0.14000 0.27500 -0.03700
P 	P 	0.22350 0.08982 0.36490 0.45800
H 	H 	0.23400 0.99170 0.34400 -0.03000
P 	P 	0.39900 0.38489 0.12130 0.43200
H 	H 	0.34200 0.36100 0.01600 -0.05500
O 	O 	0.37280 0.13450 0.00600 -0.42400
O 	O 	0.30300 0.09280 0.80050 -0.43500
O 	O 	0.19800 0.09580 0.99340 -0.43300
O 	O 	0.13540 0.12280 0.29720 -0.43300
O 	O 	0.61890 0.21750 0.09080 -0.47500
O 	O 	0.51860 0.11380 0.23020 -0.40100
O 	O 	0.64690 0.04800 0.09250 -0.40900
O 	O 	0.21890 0.11340 0.50620 -0.43700
O 	O 	0.31440 0.11500 0.30480 -0.46300
O 	O 	0.35500 0.46390 0.19560 -0.40600
O 	O 	0.49570 0.41040 0.07020 -0.42600
O 	O 	0.40310 0.30040 0.20330 -0.46000
Zn	Zn	0.61362 0.34848 0.11921 1.22600
Co	Co	0.60308 0.83030 0.68264 1.18000
Co	Co	0.88638 0.84848 0.61921 1.17300
Zn	Zn	0.74639 0.96131 0.14991 1.23300
Co	Co	0.75361 0.46131 0.64991 1.18600
P 	P 	0.71776 0.86155 0.42640 0.44600
H 	H 	0.73600 0.77200 0.40400 -0.05400
P 	P 	0.38434 0.86821 0.66960 0.42500
H 	H 	0.31800 0.86000 0.77500 -0.03600
P 	P 	0.77650 0.91018 0.86490 0.46500
H 	H 	0.76600 0.00830 0.84400 -0.02900
P 	P 	0.60100 0.61511 0.62130 0.43200
H 	H 	0.65800 0.63900 0.51600 -0.05300
O 	O 	0.62720 0.86550 0.50600 -0.41900
O 	O 	0.69700 0.90720 0.30050 -0.43600
O 	O 	0.80200 0.90420 0.49340 -0.43700
O 	O 	0.86460 0.87720 0.79720 -0.43200
O 	O 	0.38110 0.78250 0.59080 -0.47300
O 	O 	0.48140 0.88620 0.73020 -0.40000
O 	O 	0.35310 0.95200 0.59250 -0.40700
O 	O 	0.78110 0.88660 0.00620 -0.44400
O 	O 	0.68560 0.88500 0.80480 -0.46200
O 	O 	0.64500 0.53610 0.69560 -0.40500
O 	O 	0.50430 0.58960 0.57020 -0.42300
O 	O 	0.59690 0.69960 0.70330 -0.45900
Zn	Zn	0.38638 0.65152 0.61921 1.22700
Co	Co	0.89692 0.33030 0.18264 1.18000
P 	P 	0.78224 0.36155 0.92640 0.44900
H 	H 	0.76400 0.27200 0.90400 -0.05200
P 	P 	0.11566 0.36821 0.16960 0.41900
H 	H 	0.18200 0.36000 0.27500 -0.03600
P 	P 	0.72350 0.41018 0.36490 0.46000
H 	H 	0.73400 0.50830 0.34400 -0.03200
P 	P 	0.89900 0.11511 0.12130 0.43200
H 	H 	0.84200 0.13900 0.01600 -0.05400
O 	O 	0.87280 0.36550 0.00600 -0.42400
O 	O 	0.80300 0.40720 0.80050 -0.41800
O 	O 	0.69800 0.40420 0.99340 -0.44600
O 	O 	0.63540 0.37720 0.29720 -0.44700
O 	O 	0.11890 0.28250 0.09080 -0.46000
O 	O 	0.01860 0.38620 0.23020 -0.40200
O 	O 	0.14690 0.45200 0.09250 -0.39700
O 	O 	0.71890 0.38660 0.50620 -0.42100
O 	O 	0.81440 0.38500 0.30480 -0.46400
O 	O 	0.85500 0.03610 0.19560 -0.41800
O 	O 	0.99570 0.08960 0.07020 -0.40800
O 	O 	0.90310 0.19960 0.20330 -0.45800
Co	Co	0.10308 0.66970 0.68264 1.18000
P 	P 	0.21776 0.63845 0.42640 0.44500
H 	H 	0.23600 0.72800 0.40400 -0.05400
P 	P 	0.88434 0.63179 0.66960 0.41900
H 	H 	0.81800 0.64000 0.77500 -0.03500
P 	P 	0.27650 0.58982 0.86490 0.46600
H 	H 	0.26600 0.49170 0.84400 -0.02900
P 	P 	0.10100 0.88489 0.62130 0.43300
H 	H 	0.15800 0.86100 0.51600 -0.05300
O 	O 	0.12720 0.63450 0.50600 -0.41900
O 	O 	0.19700 0.59280 0.30050 -0.41900
O 	O 	0.30200 0.59580 0.49340 -0.44900
O 	O 	0.36460 0.62280 0.79720 -0.44600
O 	O 	0.88110 0.71750 0.59080 -0.45800
O 	O 	0.98140 0.61380 0.73020 -0.40100
O 	O 	0.85310 0.54800 0.59250 -0.39500
O 	O 	0.28110 0.61340 0.00620 -0.42800
O 	O 	0.18560 0.61500 0.80480 -0.46200
O 	O 	0.14500 0.96390 0.69560 -0.41700
O 	O 	0.00430 0.91040 0.57020 -0.40600
O 	O 	0.09690 0.80040 0.70330 -0.45700
