data_crystal

_cell_length_a 6.34620
_cell_length_b 16.58000
_cell_length_c 24.01800
_cell_angle_alpha 90.00000
_cell_angle_beta  90.68300
_cell_angle_gamma 90.00000

_symmetry_space_group_name_	'P 1'
_symmetry_space_group_name_H-M	'P 1'

loop_
_symmetry_equiv_pos_as_xyz
  x,y,z

loop_
_atom_site_label
_atom_site_type_symbol
_atom_site_fract_x
_atom_site_fract_y
_atom_site_fract_z
_atom_site_charge
Dy	Dy	0.26239 0.06217 0.02321 1.85700
C 	C 	0.23280 0.94410 0.93220 0.51900
C 	C 	0.27320 0.89910 0.88120 -0.35100
C 	C 	0.47110 0.86150 0.87130 0.37400
C 	C 	0.49390 0.81780 0.82080 -0.27900
H 	H 	0.62490 0.79250 0.81340 0.12600
C 	C 	0.33260 0.81100 0.78230 0.11500
C 	C 	0.13980 0.85030 0.79240 -0.21700
H 	H 	0.02810 0.84700 0.76580 0.09800
C 	C 	0.11370 0.89280 0.84040 0.19300
H 	H 	0.98300 0.91910 0.84640 -0.03800
C 	C 	0.35930 0.76150 0.73130 0.08700
C 	C 	0.19490 0.71330 0.71130 -0.25400
H 	H 	0.06160 0.71570 0.72880 0.12600
C 	C 	0.22250 0.66240 0.66670 0.33100
C 	C 	0.41750 0.65960 0.63860 -0.29500
C 	C 	0.57770 0.70950 0.65820 0.14900
H 	H 	0.70970 0.70890 0.63990 -0.00400
C 	C 	0.55090 0.76010 0.70350 -0.17800
H 	H 	0.66330 0.79390 0.71560 0.08300
C 	C 	0.45170 0.60440 0.59120 0.49900
O 	O 	0.05940 0.98100 0.94030 -0.60400
O 	O 	0.37280 0.94920 0.97060 -0.64600
O 	O 	0.60930 0.61680 0.55970 -0.50800
O 	O 	0.32290 0.54640 0.58470 -0.50000
O 	O 	0.63390 0.86330 0.90640 -0.51300
O 	O 	0.05580 0.61510 0.65130 -0.44700
H 	H 	0.09430 0.58200 0.62700 0.27200
Dy	Dy	0.73761 0.56217 0.47679 1.86300
C 	C 	0.76720 0.44410 0.56780 0.51800
C 	C 	0.72680 0.39910 0.61880 -0.34800
C 	C 	0.52890 0.36150 0.62870 0.37300
C 	C 	0.50610 0.31780 0.67920 -0.27800
H 	H 	0.37510 0.29250 0.68660 0.12600
C 	C 	0.66740 0.31100 0.71770 0.11300
C 	C 	0.86020 0.35030 0.70760 -0.21300
H 	H 	0.97190 0.34700 0.73420 0.09600
C 	C 	0.88630 0.39280 0.65960 0.18600
H 	H 	0.01700 0.41910 0.65360 -0.03400
C 	C 	0.64070 0.26150 0.76870 0.08700
C 	C 	0.80510 0.21330 0.78870 -0.25400
H 	H 	0.93840 0.21570 0.77120 0.12600
C 	C 	0.77750 0.16240 0.83330 0.33100
C 	C 	0.58250 0.15960 0.86140 -0.29500
C 	C 	0.42230 0.20950 0.84180 0.14900
H 	H 	0.29030 0.20890 0.86010 -0.00300
C 	C 	0.44910 0.26010 0.79650 -0.17800
H 	H 	0.33670 0.29390 0.78440 0.08400
C 	C 	0.54830 0.10440 0.90880 0.49800
O 	O 	0.94060 0.48100 0.55970 -0.60600
O 	O 	0.62720 0.44920 0.52940 -0.64600
O 	O 	0.39070 0.11680 0.94030 -0.50500
O 	O 	0.67710 0.04640 0.91530 -0.49700
O 	O 	0.36610 0.36330 0.59360 -0.51300
O 	O 	0.94420 0.11510 0.84870 -0.44600
H 	H 	0.90570 0.08200 0.87300 0.27200
Dy	Dy	0.73761 0.93783 0.97679 1.85600
C 	C 	0.76720 0.05590 0.06780 0.51800
C 	C 	0.72680 0.10090 0.11880 -0.35100
C 	C 	0.52890 0.13850 0.12870 0.37400
C 	C 	0.50610 0.18220 0.17920 -0.27900
H 	H 	0.37510 0.20750 0.18660 0.12600
C 	C 	0.66740 0.18900 0.21770 0.11500
C 	C 	0.86020 0.14970 0.20760 -0.21700
H 	H 	0.97190 0.15300 0.23420 0.09800
C 	C 	0.88630 0.10720 0.15960 0.19300
H 	H 	0.01700 0.08090 0.15360 -0.03800
C 	C 	0.64070 0.23850 0.26870 0.08700
C 	C 	0.80510 0.28670 0.28870 -0.25400
H 	H 	0.93840 0.28430 0.27120 0.12600
C 	C 	0.77750 0.33760 0.33330 0.33100
C 	C 	0.58250 0.34040 0.36140 -0.29500
C 	C 	0.42230 0.29050 0.34180 0.14900
H 	H 	0.29030 0.29110 0.36010 -0.00400
C 	C 	0.44910 0.23990 0.29650 -0.17800
H 	H 	0.33670 0.20610 0.28440 0.08300
C 	C 	0.54830 0.39560 0.40880 0.49900
O 	O 	0.94060 0.01900 0.05970 -0.60400
O 	O 	0.62720 0.05080 0.02940 -0.64600
O 	O 	0.39070 0.38320 0.44030 -0.50800
O 	O 	0.67710 0.45360 0.41530 -0.50000
O 	O 	0.36610 0.13670 0.09360 -0.51300
O 	O 	0.94420 0.38490 0.34870 -0.44700
H 	H 	0.90570 0.41800 0.37300 0.27200
Dy	Dy	0.26239 0.43783 0.52321 1.86300
C 	C 	0.23280 0.55590 0.43220 0.51800
C 	C 	0.27320 0.60090 0.38120 -0.34800
C 	C 	0.47110 0.63850 0.37130 0.37300
C 	C 	0.49390 0.68220 0.32080 -0.27800
H 	H 	0.62490 0.70750 0.31340 0.12600
C 	C 	0.33260 0.68900 0.28230 0.11300
C 	C 	0.13980 0.64970 0.29240 -0.21300
H 	H 	0.02810 0.65300 0.26580 0.09600
C 	C 	0.11370 0.60720 0.34040 0.18600
H 	H 	0.98300 0.58090 0.34640 -0.03400
C 	C 	0.35930 0.73850 0.23130 0.08700
C 	C 	0.19490 0.78670 0.21130 -0.25400
H 	H 	0.06160 0.78430 0.22880 0.12600
C 	C 	0.22250 0.83760 0.16670 0.33100
C 	C 	0.41750 0.84040 0.13860 -0.29500
C 	C 	0.57770 0.79050 0.15820 0.14900
H 	H 	0.70970 0.79110 0.13990 -0.00300
C 	C 	0.55090 0.73990 0.20350 -0.17800
H 	H 	0.66330 0.70610 0.21560 0.08400
C 	C 	0.45170 0.89560 0.09120 0.49800
O 	O 	0.05940 0.51900 0.44030 -0.60600
O 	O 	0.37280 0.55080 0.47060 -0.64600
O 	O 	0.60930 0.88320 0.05970 -0.50500
O 	O 	0.32290 0.95360 0.08470 -0.49700
O 	O 	0.63390 0.63670 0.40640 -0.51300
O 	O 	0.05580 0.88490 0.15130 -0.44600
H 	H 	0.09430 0.91800 0.12700 0.27200
