data_crystal

_cell_length_a 31.49550
_cell_length_b 31.49550
_cell_length_c 31.62340
_cell_angle_alpha 119.86600
_cell_angle_beta  119.86600
_cell_angle_gamma 90.00000

_symmetry_space_group_name_	'P 1'
_symmetry_space_group_name_H-M	'P 1'

loop_
_symmetry_equiv_pos_as_xyz
  x,y,z

loop_
_atom_site_label
_atom_site_type_symbol
_atom_site_fract_x
_atom_site_fract_y
_atom_site_fract_z
_atom_site_charge
Cu	Cu	0.76962 0.73228 0.25142 0.93100
Cu	Cu	0.51819 0.48086 0.74857 0.93200
Cu	Cu	0.48181 0.51914 0.25143 0.93100
Cu	Cu	0.45333 0.16584 0.00001 0.87400
Cu	Cu	0.80968 0.47576 0.33486 0.93100
Cu	Cu	0.83416 0.45333 -0.00000 0.87400
Cu	Cu	0.73228 0.48181 0.25142 0.93100
Cu	Cu	0.85910 0.80968 0.33486 0.93000
Cu	Cu	0.75072 0.46456 -0.00000 0.87700
Cu	Cu	0.14090 0.19032 0.66514 0.93100
Cu	Cu	0.52518 0.85910 0.33486 0.93100
Cu	Cu	0.47576 0.52518 0.33486 0.93100
Cu	Cu	0.46456 0.24928 -0.00000 0.87700
Cu	Cu	0.53544 0.75072 -0.00000 0.87800
Cu	Cu	0.23038 0.26772 0.74858 0.93300
Cu	Cu	0.51914 0.76962 0.25143 0.93200
Cu	Cu	0.24928 0.53544 -0.00000 0.87800
Cu	Cu	0.16584 0.54667 -0.00000 0.87500
Cu	Cu	0.47482 0.14090 0.66514 0.93200
Cu	Cu	0.52424 0.47482 0.66514 0.93200
Cu	Cu	0.54667 0.83416 -0.00001 0.87500
Cu	Cu	0.26772 0.51819 0.74858 0.93300
Cu	Cu	0.19032 0.52424 0.66514 0.93200
Cu	Cu	0.48086 0.23038 0.74857 0.93300
H 	H 	0.92620 0.89920 0.41080 0.24600
H 	H 	0.21450 0.74630 0.72660 0.06000
H 	H 	0.27450 0.89690 0.78440 0.16200
H 	H 	0.69130 0.78650 0.14100 0.06700
H 	H 	0.93070 0.61460 0.12380 0.08300
H 	H 	0.46390 0.18230 0.55080 0.10100
H 	H 	0.56460 0.77070 0.85600 0.09400
H 	H 	0.33020 0.51960 0.14440 0.07300
H 	H 	0.62480 0.33020 0.14440 0.07300
H 	H 	0.46230 0.20760 0.21400 0.04900
H 	H 	0.49010 0.11250 0.21560 0.15600
H 	H 	0.68940 0.50020 0.74960 0.09500
H 	H 	0.07380 0.10080 0.58920 0.24800
H 	H 	0.69160 0.93450 0.44880 0.09300
H 	H 	0.72550 0.10310 0.21560 0.15600
H 	H 	0.91470 0.43540 0.14400 0.07800
H 	H 	0.30870 0.21350 0.85900 0.08200
H 	H 	0.49080 0.06930 0.87620 0.10400
H 	H 	0.51160 0.92620 0.41080 0.24700
H 	H 	0.20580 0.46840 0.45660 0.05500
H 	H 	0.32210 0.50140 0.82680 0.25500
H 	H 	0.90580 0.44560 0.27060 0.09700
H 	H 	0.18580 0.37520 0.85560 0.08700
H 	H 	0.74920 0.01180 0.54340 0.05600
H 	H 	0.06930 0.38540 0.87620 0.10400
H 	H 	0.91310 0.63150 0.44920 0.10000
H 	H 	0.81770 0.91310 0.44920 0.10000
H 	H 	0.05990 0.44500 0.18440 0.13300
H 	H 	0.51610 0.67930 0.31700 0.08200
H 	H 	0.48040 0.18580 0.85560 0.08700
H 	H 	0.94010 0.55500 0.81560 0.14600
H 	H 	0.75060 0.31060 0.25040 0.08900
H 	H 	0.48460 0.51160 0.41080 0.24700
H 	H 	0.53160 0.74920 0.54340 0.05600
H 	H 	0.93980 0.75060 0.25040 0.08800
H 	H 	0.63150 0.53610 0.44920 0.10100
H 	H 	0.48790 0.01970 0.27340 0.05700
H 	H 	0.63770 0.51610 0.31700 0.08200
H 	H 	0.67460 0.67790 0.17320 0.24500
H 	H 	0.74630 0.51210 0.72660 0.05900
H 	H 	0.81420 0.62480 0.14440 0.07300
H 	H 	0.08530 0.56460 0.85600 0.09500
H 	H 	0.36480 0.82500 0.27060 0.09700
H 	H 	0.51210 0.98030 0.72660 0.06000
H 	H 	0.01970 0.78550 0.27340 0.05700
H 	H 	0.79240 0.24830 0.78600 0.05300
H 	H 	0.50920 0.93070 0.12380 0.08300
H 	H 	0.22930 0.70860 0.14400 0.07900
H 	H 	0.50470 0.32540 0.82680 0.25500
H 	H 	0.06020 0.24940 0.74960 0.09700
H 	H 	0.75170 0.00640 0.21400 0.04800
H 	H 	0.49530 0.67460 0.17320 0.24500
H 	H 	0.08690 0.36850 0.55080 0.10100
H 	H 	0.78550 0.25370 0.27340 0.05800
H 	H 	0.55440 0.63520 0.72940 0.10200
H 	H 	0.21350 0.55030 0.85900 0.08200
H 	H 	0.29140 0.08530 0.85600 0.09600
H 	H 	0.51430 0.69160 0.44880 0.09400
H 	H 	0.64550 0.30870 0.85900 0.08200
H 	H 	0.50990 0.88750 0.78440 0.16200
H 	H 	0.61460 0.19310 0.12380 0.08500
H 	H 	0.12450 0.73940 0.18440 0.13200
H 	H 	0.11250 0.72550 0.21560 0.15600
H 	H 	0.38540 0.80690 0.87620 0.10200
H 	H 	0.24940 0.68940 0.74960 0.09500
H 	H 	0.89920 0.48460 0.41080 0.24600
H 	H 	0.70860 0.91470 0.14400 0.07800
H 	H 	0.25080 0.98820 0.45660 0.05500
H 	H 	0.44560 0.36480 0.27060 0.09700
H 	H 	0.35450 0.69130 0.14100 0.06700
H 	H 	0.32540 0.32210 0.82680 0.25500
H 	H 	0.43540 0.22930 0.14400 0.07900
H 	H 	0.51540 0.48840 0.58920 0.24700
H 	H 	0.44970 0.35450 0.14100 0.06700
H 	H 	0.09420 0.55440 0.72940 0.10300
H 	H 	0.73940 0.05990 0.18440 0.13300
H 	H 	0.79420 0.53160 0.54340 0.05600
H 	H 	0.88750 0.27450 0.78440 0.16200
H 	H 	0.78650 0.44970 0.14100 0.06700
H 	H 	0.99360 0.53770 0.78600 0.05400
H 	H 	0.01180 0.79420 0.54340 0.05500
H 	H 	0.36850 0.46390 0.55080 0.10000
H 	H 	0.67930 0.80090 0.31700 0.08200
H 	H 	0.18230 0.08690 0.55080 0.10200
H 	H 	0.50140 0.50470 0.82680 0.25500
H 	H 	0.55030 0.64550 0.85900 0.08200
H 	H 	0.48390 0.32070 0.68300 0.08400
H 	H 	0.80690 0.49080 0.87620 0.10200
H 	H 	0.19910 0.36230 0.68300 0.08400
H 	H 	0.48840 0.07380 0.58920 0.24800
H 	H 	0.51960 0.81420 0.14440 0.07300
H 	H 	0.93450 0.75720 0.44880 0.09300
H 	H 	0.44500 0.12450 0.18440 0.13300
H 	H 	0.49980 0.93980 0.25040 0.08800
H 	H 	0.80090 0.63770 0.31700 0.08200
H 	H 	0.10080 0.51540 0.58920 0.24800
H 	H 	0.98030 0.21450 0.72660 0.06000
H 	H 	0.46840 0.25080 0.45660 0.05500
H 	H 	0.55500 0.87550 0.81560 0.14600
H 	H 	0.24830 0.99360 0.78600 0.05400
H 	H 	0.30840 0.06550 0.55120 0.09500
H 	H 	0.32070 0.19910 0.68300 0.08400
H 	H 	0.49860 0.49530 0.17320 0.24500
H 	H 	0.36230 0.48390 0.68300 0.08400
H 	H 	0.31060 0.49980 0.25040 0.08900
H 	H 	0.06550 0.24280 0.55120 0.09500
H 	H 	0.10310 0.49010 0.21560 0.15600
H 	H 	0.17500 0.09420 0.72940 0.10300
H 	H 	0.63520 0.17500 0.72940 0.10300
H 	H 	0.25370 0.48790 0.27340 0.05800
H 	H 	0.50020 0.06020 0.74960 0.09600
H 	H 	0.19310 0.50920 0.12380 0.08500
H 	H 	0.89690 0.50990 0.78440 0.16200
H 	H 	0.53770 0.79240 0.78600 0.05300
H 	H 	0.37520 0.66980 0.85560 0.08700
H 	H 	0.98820 0.20580 0.45660 0.05600
H 	H 	0.00640 0.46230 0.21400 0.04800
H 	H 	0.82500 0.90580 0.27060 0.09600
H 	H 	0.48570 0.30840 0.55120 0.09400
H 	H 	0.66980 0.48040 0.85560 0.08700
H 	H 	0.20760 0.75170 0.21400 0.04900
H 	H 	0.53610 0.81770 0.44920 0.10100
H 	H 	0.26060 0.94010 0.81560 0.14600
H 	H 	0.75720 0.51430 0.44880 0.09400
H 	H 	0.67790 0.49860 0.17320 0.24500
H 	H 	0.77070 0.29140 0.85600 0.09400
H 	H 	0.24280 0.48570 0.55120 0.09400
H 	H 	0.87550 0.26060 0.81560 0.14600
C 	C 	0.70633 0.22920 0.78880 0.13000
C 	C 	0.71135 0.81968 0.15906 -0.01300
C 	C 	0.93055 0.69769 0.45684 0.11800
C 	C 	0.44504 0.34555 0.23642 -0.08700
C 	C 	0.48168 0.30063 0.64786 -0.02800
C 	C 	0.85575 0.20248 0.74088 0.12900
C 	C 	0.46160 0.14425 0.25912 0.12100
C 	C 	0.17875 0.47985 0.24124 0.09600
C 	C 	0.13137 0.38871 0.87230 -0.01700
C 	C 	0.47238 0.22402 0.65190 0.33700
C 	C 	0.52762 0.77598 0.34810 0.33700
C 	C 	0.64004 0.30950 0.15642 -0.01800
C 	C 	0.69769 0.52629 0.45684 0.11900
C 	C 	0.85174 0.20321 0.32368 0.05100
C 	C 	0.48583 0.14797 0.76336 0.32800
C 	C 	0.77008 0.21480 0.76302 -0.01300
C 	C 	0.46855 0.21956 0.45272 -0.01900
C 	C 	0.53512 0.83427 0.64276 -0.05400
C 	C 	0.77452 0.16869 0.72462 0.09900
C 	C 	0.80849 0.53512 0.64276 -0.05400
C 	C 	0.55229 0.66062 0.84094 -0.02300
C 	C 	0.12047 0.85174 0.32368 0.05100
C 	C 	0.16573 0.89236 0.35724 -0.05500
C 	C 	0.79679 0.52806 0.67632 0.05500
C 	C 	0.09925 0.35108 0.56872 -0.09200
C 	C 	0.76121 0.84152 0.21000 -0.03800
C 	C 	0.74339 0.36434 0.91832 0.33700
C 	C 	0.83131 0.04990 0.27538 0.09200
C 	C 	0.24144 0.77768 0.75428 -0.02700
C 	C 	0.50307 0.94213 0.18956 0.10400
C 	C 	0.22548 0.83131 0.27538 0.09300
C 	C 	0.27753 0.61539 0.76336 0.32800
C 	C 	0.83491 0.52902 0.72488 -0.08800
C 	C 	0.75257 0.49693 0.81044 0.12100
C 	C 	0.76131 0.47477 0.92068 0.34000
C 	C 	0.88513 0.53840 0.74088 0.12800
C 	C 	0.23879 0.15848 0.79000 -0.02200
C 	C 	0.92184 0.71559 0.21960 -0.08800
C 	C 	0.29776 0.50401 0.21960 -0.08800
C 	C 	0.37345 0.47376 0.62148 -0.02300
C 	C 	0.55496 0.65445 0.76358 -0.09400
C 	C 	0.78242 0.81390 0.23912 0.33900
C 	C 	0.30889 0.15276 0.86536 -0.01800
C 	C 	0.53145 0.78044 0.54728 -0.01900
C 	C 	0.25907 0.51641 0.12770 -0.04300
C 	C 	0.29338 0.08641 0.56884 -0.09500
C 	C 	0.82048 0.57212 0.34810 0.33700
C 	C 	0.89087 0.44504 0.23642 -0.08700
C 	C 	0.29367 0.77080 0.21120 0.11600
C 	C 	0.66062 0.28865 0.84094 -0.02400
C 	C 	0.34555 0.79138 0.23642 -0.08700
C 	C 	0.70662 0.91359 0.43116 -0.09400
C 	C 	0.22232 0.48716 0.24572 -0.03100
C 	C 	0.20248 0.88513 0.74088 0.12900
C 	C 	0.45670 0.42522 0.23912 0.33900
C 	C 	0.88997 0.19586 0.72488 -0.08900
C 	C 	0.18032 0.55229 0.84094 -0.02400
C 	C 	0.85879 0.54433 0.65922 0.05300
C 	C 	0.67677 0.86457 0.37824 -0.02100
C 	C 	0.52523 0.84063 0.07932 0.34900
C 	C 	0.05757 0.76781 0.59080 0.09100
C 	C 	0.27846 0.10356 0.83932 -0.09800
C 	C 	0.65277 0.51832 0.35214 -0.02700
C 	C 	0.81061 0.16241 0.70864 -0.07800
C 	C 	0.00706 0.45178 0.23698 -0.01000
C 	C 	0.18610 0.54330 0.76088 0.33600
C 	C 	0.88511 0.14121 0.34078 0.04900
C 	C 	0.86863 0.61129 0.12770 -0.04400
C 	C 	0.51641 0.86863 0.12770 -0.04300
C 	C 	0.08372 0.36608 0.85654 -0.08800
C 	C 	0.80043 0.11489 0.65922 0.05400
C 	C 	0.84152 0.44879 0.21000 -0.03800
C 	C 	0.25661 0.63566 0.08168 0.34600
C 	C 	0.11487 0.46160 0.25912 0.12200
C 	C 	0.04990 0.44407 0.27538 0.09200
C 	C 	0.83427 0.10764 0.64276 -0.05300
C 	C 	0.44407 0.22548 0.27538 0.09400
C 	C 	0.10913 0.55496 0.76358 -0.09400
C 	C 	0.52806 0.87953 0.67632 0.05500
C 	C 	0.50401 0.92184 0.21960 -0.08800
C 	C 	0.30231 0.47371 0.54316 0.11800
C 	C 	0.98417 0.23316 0.45272 -0.02700
C 	C 	0.13543 0.29853 0.62176 -0.01900
C 	C 	0.06945 0.30231 0.54316 0.11900
C 	C 	0.44353 0.28740 0.13464 -0.04300
C 	C 	0.52902 0.88997 0.72488 -0.08900
C 	C 	0.51417 0.85203 0.23664 0.33000
C 	C 	0.28441 0.70224 0.78040 -0.09500
C 	C 	0.16509 0.47098 0.27512 -0.08900
C 	C 	0.76684 0.53145 0.54728 -0.01900
C 	C 	0.71559 0.29776 0.21960 -0.08800
C 	C 	0.17701 0.94243 0.40920 0.09200
C 	C 	0.45178 0.22992 0.23698 -0.01700
C 	C 	0.82125 0.52015 0.75876 0.10000
C 	C 	0.91359 0.72454 0.43116 -0.09400
C 	C 	0.93751 0.23861 0.75876 0.10200
C 	C 	0.08247 0.55960 0.78880 0.13100
C 	C 	0.77282 0.49046 0.85654 -0.08800
C 	C 	0.20862 0.10913 0.76358 -0.09400
C 	C 	0.72247 0.38461 0.23664 0.33000
C 	C 	0.02340 0.75856 0.24572 -0.02500
C 	C 	0.24085 0.06945 0.54316 0.11900
C 	C 	0.48243 0.29338 0.56884 -0.09500
C 	C 	0.11003 0.80414 0.27512 -0.08800
C 	C 	0.51832 0.69937 0.35214 -0.02700
C 	C 	0.99294 0.54822 0.76302 -0.02100
C 	C 	0.97660 0.24144 0.75428 -0.03400
C 	C 	0.47371 0.24085 0.54316 0.11900
C 	C 	0.67098 0.48857 0.79642 -0.01600
C 	C 	0.24743 0.50307 0.18956 0.10500
C 	C 	0.63566 0.82507 0.08168 0.34600
C 	C 	0.64892 0.53053 0.43128 -0.09100
C 	C 	0.57478 0.21758 0.76088 0.33600
C 	C 	0.81390 0.45670 0.23912 0.33900
C 	C 	0.84561 0.72887 0.34804 0.33000
C 	C 	0.16869 0.95010 0.72462 0.10000
C 	C 	0.15276 0.55647 0.86536 -0.01900
C 	C 	0.76781 0.53323 0.59080 0.09300
C 	C 	0.90075 0.64892 0.43128 -0.09100
C 	C 	0.27546 0.48243 0.56884 -0.09500
C 	C 	0.69215 0.32902 0.20358 -0.03000
C 	C 	0.71260 0.30889 0.86536 -0.01900
C 	C 	0.54433 0.80043 0.65922 0.05400
C 	C 	0.49046 0.08372 0.85654 -0.08800
C 	C 	0.68649 0.24743 0.18956 0.10500
C 	C 	0.82507 0.44602 0.08168 0.34600
C 	C 	0.94243 0.23219 0.40920 0.09200
C 	C 	0.47194 0.12047 0.32368 0.05100
C 	C 	0.80414 0.16509 0.27512 -0.08900
C 	C 	0.14425 0.79752 0.25912 0.12100
C 	C 	0.23219 0.46677 0.40920 0.09000
C 	C 	0.55647 0.71260 0.86536 -0.01900
C 	C 	0.46488 0.16573 0.35724 -0.05400
C 	C 	0.69937 0.83382 0.35214 -0.02700
C 	C 	0.30950 0.51638 0.15642 -0.01900
C 	C 	0.24803 0.14772 0.62148 -0.02200
C 	C 	0.69050 0.48362 0.84358 -0.02800
C 	C 	0.10356 0.56086 0.83932 -0.09800
C 	C 	0.57212 0.52762 0.34810 0.33700
C 	C 	0.47985 0.06249 0.24124 0.09400
C 	C 	0.31351 0.75257 0.81044 0.12100
C 	C 	0.19957 0.88511 0.34078 0.04900
C 	C 	0.75197 0.85228 0.37852 -0.02400
C 	C 	0.55593 0.77452 0.72462 0.09800
C 	C 	0.08641 0.27546 0.56884 -0.09500
C 	C 	0.72887 0.50243 0.34804 0.33000
C 	C 	0.77768 0.51284 0.75428 -0.02700
C 	C 	0.22992 0.78520 0.23698 -0.01700
C 	C 	0.63392 0.22718 0.14346 -0.07900
C 	C 	0.15308 0.35996 0.84358 -0.02800
C 	C 	0.70147 0.51367 0.37824 -0.02000
C 	C 	0.53840 0.85575 0.74088 0.12900
C 	C 	0.48633 0.32323 0.62176 -0.01900
C 	C 	0.51284 0.97660 0.75428 -0.03400
C 	C 	0.14826 0.79679 0.67632 0.05600
C 	C 	0.46947 0.21764 0.56872 -0.09200
C 	C 	0.87953 0.14826 0.67632 0.05500
C 	C 	0.50243 0.61917 0.34804 0.33000
C 	C 	0.53053 0.78236 0.43128 -0.09100
C 	C 	0.01583 0.76684 0.54728 -0.01200
C 	C 	0.46677 0.17701 0.40920 0.09000
C 	C 	0.15937 0.44591 0.92068 0.34000
C 	C 	0.10764 0.80849 0.64276 -0.05300
C 	C 	0.61539 0.48583 0.76336 0.32800
C 	C 	0.79138 0.89087 0.23642 -0.08700
C 	C 	0.33938 0.71135 0.15906 -0.01300
C 	C 	0.55398 0.74339 0.91832 0.33700
C 	C 	0.72154 0.89644 0.16068 -0.08900
C 	C 	0.35108 0.46947 0.56872 -0.09200
C 	C 	0.61917 0.84561 0.34804 0.33000
C 	C 	0.79752 0.11487 0.25912 0.12100
C 	C 	0.30785 0.67098 0.79642 -0.01600
C 	C 	0.49599 0.07816 0.78040 -0.09500
C 	C 	0.38871 0.74093 0.87230 -0.01800
C 	C 	0.22402 0.17952 0.65190 0.33700
C 	C 	0.29853 0.48633 0.62176 -0.01900
C 	C 	0.83382 0.65277 0.35214 -0.02700
C 	C 	0.32323 0.13543 0.62176 -0.01900
C 	C 	0.44602 0.25661 0.08168 0.34600
C 	C 	0.47477 0.15937 0.92068 0.34000
C 	C 	0.91753 0.44040 0.21120 0.11500
C 	C 	0.55121 0.63152 0.79000 -0.02300
C 	C 	0.07816 0.28441 0.78040 -0.09500
C 	C 	0.95010 0.55593 0.72462 0.09900
C 	C 	0.17493 0.55398 0.91832 0.33700
C 	C 	0.42788 0.47238 0.65190 0.33700
C 	C 	0.75856 0.22232 0.24572 -0.03100
C 	C 	0.54822 0.77008 0.76302 -0.01400
C 	C 	0.14797 0.27753 0.76336 0.32800
C 	C 	0.14121 0.45567 0.34078 0.05000
C 	C 	0.82299 0.05757 0.59080 0.09100
C 	C 	0.21956 0.98417 0.45272 -0.02700
C 	C 	0.50954 0.91628 0.14346 -0.07900
C 	C 	0.70224 0.49599 0.78040 -0.09500
C 	C 	0.12544 0.30785 0.79642 -0.01500
C 	C 	0.49693 0.05787 0.81044 0.12200
C 	C 	0.51143 0.87456 0.20358 -0.03100
C 	C 	0.05787 0.31351 0.81044 0.12200
C 	C 	0.48857 0.12544 0.79642 -0.01500
C 	C 	0.44040 0.29367 0.21120 0.11600
C 	C 	0.49757 0.38083 0.65196 0.32900
C 	C 	0.21758 0.18610 0.76088 0.33600
C 	C 	0.16241 0.89803 0.70864 -0.07900
C 	C 	0.23861 0.82125 0.75876 0.10000
C 	C 	0.65445 0.20862 0.76358 -0.09400
C 	C 	0.84692 0.64004 0.15642 -0.01800
C 	C 	0.42522 0.78242 0.23912 0.33900
C 	C 	0.62655 0.52624 0.37852 -0.02400
C 	C 	0.22920 0.08247 0.78880 0.13100
C 	C 	0.77080 0.91753 0.21120 0.11500
C 	C 	0.76139 0.17875 0.24124 0.09600
C 	C 	0.48716 0.02340 0.24572 -0.02400
C 	C 	0.36434 0.17493 0.91832 0.33700
C 	C 	0.45567 0.19957 0.34078 0.04900
C 	C 	0.54623 0.81061 0.70864 -0.07800
C 	C 	0.26424 0.72154 0.16068 -0.08800
C 	C 	0.36608 0.77282 0.85654 -0.08800
C 	C 	0.84724 0.44353 0.13464 -0.04400
C 	C 	0.48359 0.13137 0.87230 -0.01700
C 	C 	0.34723 0.48168 0.64786 -0.02800
C 	C 	0.15848 0.55121 0.79000 -0.02300
C 	C 	0.20321 0.47194 0.32368 0.05100
C 	C 	0.51638 0.84692 0.15642 -0.01800
C 	C 	0.83759 0.10197 0.29136 -0.07800
C 	C 	0.44591 0.76131 0.92068 0.34000
C 	C 	0.77598 0.82048 0.34810 0.33700
C 	C 	0.52015 0.93751 0.75876 0.10200
C 	C 	0.53323 0.82299 0.59080 0.09300
C 	C 	0.48362 0.15308 0.84358 -0.02800
C 	C 	0.94213 0.68649 0.18956 0.10400
C 	C 	0.10197 0.45377 0.29136 -0.07800
C 	C 	0.38083 0.15439 0.65196 0.32900
C 	C 	0.35996 0.69050 0.84358 -0.02800
C 	C 	0.89236 0.19151 0.35724 -0.05500
C 	C 	0.47098 0.11003 0.27512 -0.08800
C 	C 	0.55409 0.23869 0.07932 0.34800
C 	C 	0.84063 0.55409 0.07932 0.34900
C 	C 	0.89803 0.54623 0.70864 -0.07900
C 	C 	0.23316 0.46855 0.45272 -0.01900
C 	C 	0.14772 0.37345 0.62148 -0.02200
C 	C 	0.19586 0.83491 0.72488 -0.08800
C 	C 	0.38461 0.51417 0.23664 0.33000
C 	C 	0.51757 0.70662 0.43116 -0.09400
C 	C 	0.21764 0.09925 0.56872 -0.09200
C 	C 	0.55960 0.70633 0.78880 0.13000
C 	C 	0.27113 0.49757 0.65196 0.32900
C 	C 	0.36848 0.76121 0.21000 -0.03800
C 	C 	0.43914 0.26424 0.16068 -0.08900
C 	C 	0.16618 0.34723 0.64786 -0.02800
C 	C 	0.73576 0.27846 0.83932 -0.09800
C 	C 	0.32902 0.51143 0.20358 -0.03000
C 	C 	0.52624 0.75197 0.37852 -0.02400
C 	C 	0.18939 0.83759 0.29136 -0.07800
C 	C 	0.06249 0.76139 0.24124 0.09400
C 	C 	0.21480 0.99294 0.76302 -0.02100
C 	C 	0.69111 0.84724 0.13464 -0.04400
C 	C 	0.22718 0.50954 0.14346 -0.07900
C 	C 	0.47376 0.24803 0.62148 -0.02300
C 	C 	0.52629 0.75915 0.45684 0.11900
C 	C 	0.28865 0.18032 0.84094 -0.02400
C 	C 	0.85203 0.72247 0.23664 0.33000
C 	C 	0.78044 0.01583 0.54728 -0.01200
C 	C 	0.19151 0.46488 0.35724 -0.05400
C 	C 	0.89644 0.43914 0.16068 -0.08900
C 	C 	0.87456 0.69215 0.20358 -0.03100
C 	C 	0.23869 0.52523 0.07932 0.34800
C 	C 	0.75915 0.93055 0.45684 0.11800
C 	C 	0.81968 0.44771 0.15906 -0.01300
C 	C 	0.61129 0.25907 0.12770 -0.04300
C 	C 	0.15439 0.27113 0.65196 0.32900
C 	C 	0.85228 0.62655 0.37852 -0.02400
C 	C 	0.44879 0.36848 0.21000 -0.03800
C 	C 	0.28740 0.69111 0.13464 -0.04300
C 	C 	0.78236 0.90075 0.43128 -0.09100
C 	C 	0.63152 0.23879 0.79000 -0.02300
C 	C 	0.54330 0.57478 0.76088 0.33700
C 	C 	0.11489 0.85879 0.65922 0.05400
C 	C 	0.56086 0.73576 0.83932 -0.09800
C 	C 	0.74093 0.48359 0.87230 -0.01800
C 	C 	0.45377 0.18939 0.29136 -0.07800
C 	C 	0.78520 0.00706 0.23698 -0.01100
C 	C 	0.17952 0.42788 0.65190 0.33700
C 	C 	0.91628 0.63392 0.14346 -0.07900
C 	C 	0.51367 0.67677 0.37824 -0.02000
C 	C 	0.86457 0.70147 0.37824 -0.02100
C 	C 	0.72454 0.51757 0.43116 -0.09400
C 	C 	0.30063 0.16618 0.64786 -0.02800
C 	C 	0.44771 0.33938 0.15906 -0.01400
N 	N 	0.31431 0.83679 0.83102 -0.03500
N 	N 	0.79876 0.96823 0.23994 -0.09900
N 	N 	0.57500 0.70594 0.72136 -0.04100
N 	N 	0.52255 0.94924 0.80650 -0.10000
N 	N 	0.21360 0.49324 0.20376 -0.08700
N 	N 	0.71605 0.14274 0.19350 -0.10600
N 	N 	0.99016 0.71052 0.20376 -0.09300
N 	N 	0.04746 0.72140 0.57992 -0.07600
N 	N 	0.00984 0.28948 0.79624 -0.08200
N 	N 	0.03750 0.42900 0.30250 -0.07700
N 	N 	0.30846 0.47160 0.47040 -0.03800
N 	N 	0.00577 0.68569 0.16898 -0.04400
N 	N 	0.72829 0.20124 0.76006 -0.09600
N 	N 	0.91640 0.52610 0.78040 -0.28200
N 	N 	0.69154 0.52840 0.52960 -0.03700
N 	N 	0.20922 0.01851 0.48902 -0.08300
N 	N 	0.68569 0.16321 0.16898 -0.04700
N 	N 	0.01542 0.57500 0.72136 -0.03800
N 	N 	0.27171 0.79876 0.23994 -0.09600
N 	N 	0.98149 0.72020 0.51098 -0.09400
N 	N 	0.47390 0.13600 0.21960 -0.27800
N 	N 	0.46754 0.14148 0.42008 -0.07800
N 	N 	0.52949 0.79078 0.51098 -0.08800
N 	N 	0.96250 0.57100 0.69750 -0.07900
N 	N 	0.28395 0.85726 0.80650 -0.09900
N 	N 	0.42900 0.26500 0.30250 -0.07900
N 	N 	0.51671 0.99423 0.83102 -0.03800
N 	N 	0.05076 0.71605 0.19350 -0.10500
N 	N 	0.27980 0.47051 0.48902 -0.08900
N 	N 	0.47745 0.05076 0.19350 -0.10500
N 	N 	0.98458 0.42500 0.27864 -0.04800
N 	N 	0.29406 0.85364 0.27864 -0.04600
N 	N 	0.57100 0.73500 0.69750 -0.07600
N 	N 	0.99423 0.31431 0.83102 -0.03800
N 	N 	0.86400 0.25430 0.78040 -0.28200
N 	N 	0.49324 0.99016 0.20376 -0.09300
N 	N 	0.83679 0.51671 0.83102 -0.03500
N 	N 	0.78640 0.50676 0.79624 -0.08700
N 	N 	0.27860 0.46754 0.42008 -0.07900
N 	N 	0.70594 0.14636 0.72136 -0.04000
N 	N 	0.14148 0.95254 0.42008 -0.07900
N 	N 	0.55882 0.72829 0.76006 -0.09600
N 	N 	0.72020 0.52949 0.51098 -0.08800
N 	N 	0.72140 0.53246 0.57992 -0.07700
N 	N 	0.79078 0.98149 0.51098 -0.09400
N 	N 	0.83806 0.00120 0.52960 -0.03400
N 	N 	0.52610 0.86400 0.78040 -0.28200
N 	N 	0.71052 0.21360 0.20376 -0.08800
N 	N 	0.00120 0.69154 0.52960 -0.03400
N 	N 	0.74570 0.08360 0.21960 -0.27700
N 	N 	0.73500 0.12650 0.69750 -0.07600
N 	N 	0.50676 0.00984 0.79624 -0.08200
N 	N 	0.87350 0.03750 0.30250 -0.07800
N 	N 	0.48329 0.00577 0.16898 -0.04400
N 	N 	0.85364 0.98458 0.27864 -0.04800
N 	N 	0.12650 0.96250 0.69750 -0.07800
N 	N 	0.47051 0.20922 0.48902 -0.08900
N 	N 	0.26500 0.87350 0.30250 -0.08000
N 	N 	0.94924 0.28395 0.80650 -0.10000
N 	N 	0.14274 0.47745 0.19350 -0.10600
N 	N 	0.16321 0.48329 0.16898 -0.04700
N 	N 	0.25430 0.91640 0.78040 -0.28200
N 	N 	0.13600 0.74570 0.21960 -0.27700
N 	N 	0.01851 0.27980 0.48902 -0.08300
N 	N 	0.53246 0.85852 0.57992 -0.07700
N 	N 	0.99880 0.30846 0.47040 -0.04200
N 	N 	0.52840 0.83806 0.52960 -0.03700
N 	N 	0.47160 0.16194 0.47040 -0.03800
N 	N 	0.96823 0.44118 0.23994 -0.09900
N 	N 	0.44118 0.27171 0.23994 -0.09600
N 	N 	0.42500 0.29406 0.27864 -0.04500
N 	N 	0.03177 0.55882 0.76006 -0.09200
N 	N 	0.20124 0.03177 0.76006 -0.09200
N 	N 	0.16194 0.99880 0.47040 -0.04100
N 	N 	0.14636 0.01542 0.72136 -0.03700
N 	N 	0.95254 0.27860 0.42008 -0.08000
N 	N 	0.85852 0.04746 0.57992 -0.07600
N 	N 	0.85726 0.52255 0.80650 -0.09900
N 	N 	0.28948 0.78640 0.79624 -0.08700
N 	N 	0.08360 0.47390 0.21960 -0.27700
O 	O 	0.47617 0.20530 0.93848 -0.36400
O 	O 	0.22998 0.53862 0.78580 -0.38100
O 	O 	0.80391 0.46752 0.93882 -0.36800
O 	O 	0.77002 0.46138 0.21420 -0.39000
O 	O 	0.59717 0.48347 0.71642 -0.37200
O 	O 	0.22935 0.50619 0.62944 -0.37200
O 	O 	0.55697 0.78980 0.93758 -0.37100
O 	O 	0.21020 0.61939 0.06242 -0.41900
O 	O 	0.54803 0.71958 0.93808 -0.36500
O 	O 	0.38061 0.14778 0.93758 -0.37000
O 	O 	0.50619 0.40009 0.62944 -0.37300
O 	O 	0.49381 0.59991 0.37056 -0.37200
O 	O 	0.66765 0.48504 0.18426 -0.40800
O 	O 	0.76705 0.40283 0.28358 -0.37500
O 	O 	0.52362 0.74658 0.30040 -0.38500
O 	O 	0.55035 0.17294 0.71362 -0.38600
O 	O 	0.46752 0.13491 0.93882 -0.36700
O 	O 	0.54963 0.53217 0.37270 -0.38600
O 	O 	0.46231 0.73318 0.93848 -0.36400
O 	O 	0.51661 0.69922 0.18426 -0.40800
O 	O 	0.82706 0.83673 0.28638 -0.39000
O 	O 	0.60995 0.78150 0.06192 -0.41400
O 	O 	0.23295 0.59717 0.71642 -0.37100
O 	O 	0.61939 0.85222 0.06242 -0.42000
O 	O 	0.55582 0.24718 0.78580 -0.38100
O 	O 	0.48347 0.11925 0.71642 -0.37100
O 	O 	0.26682 0.52383 0.06152 -0.41300
O 	O 	0.80006 0.70729 0.30202 -0.37500
O 	O 	0.47043 0.53046 0.40182 -0.40100
O 	O 	0.44618 0.47638 0.69960 -0.38300
O 	O 	0.53046 0.93139 0.40182 -0.40300
O 	O 	0.87136 0.47043 0.40182 -0.40200
O 	O 	0.11925 0.23295 0.71642 -0.37100
O 	O 	0.74658 0.77678 0.30040 -0.38500
O 	O 	0.44303 0.21020 0.06242 -0.41900
O 	O 	0.44965 0.82706 0.28638 -0.38900
O 	O 	0.25342 0.22322 0.69960 -0.38300
O 	O 	0.48339 0.30078 0.81574 -0.39600
O 	O 	0.59096 0.48507 0.78460 -0.37100
O 	O 	0.29271 0.49804 0.69798 -0.37200
O 	O 	0.70047 0.40904 0.21540 -0.38000
O 	O 	0.20530 0.46231 0.93848 -0.36400
O 	O 	0.06861 0.12864 0.59818 -0.39900
O 	O 	0.84053 0.54963 0.37270 -0.38600
O 	O 	0.78980 0.38061 0.93758 -0.37100
O 	O 	0.33235 0.51496 0.81574 -0.39600
O 	O 	0.29953 0.59096 0.78460 -0.37100
O 	O 	0.75282 0.77002 0.21420 -0.39000
O 	O 	0.17693 0.15947 0.62730 -0.38600
O 	O 	0.22322 0.44618 0.69960 -0.38300
O 	O 	0.44418 0.75282 0.21420 -0.38900
O 	O 	0.77065 0.49381 0.37056 -0.37300
O 	O 	0.51493 0.80636 0.21540 -0.38000
O 	O 	0.45932 0.44965 0.28638 -0.38900
O 	O 	0.73318 0.47617 0.93848 -0.36400
O 	O 	0.55382 0.52362 0.30040 -0.38500
O 	O 	0.13491 0.47130 0.93882 -0.36700
O 	O 	0.16327 0.54068 0.71362 -0.38600
O 	O 	0.54068 0.55035 0.71362 -0.38600
O 	O 	0.53862 0.55582 0.78580 -0.38100
O 	O 	0.78150 0.45197 0.06192 -0.41400
O 	O 	0.19994 0.29271 0.69798 -0.37200
O 	O 	0.45037 0.46783 0.62730 -0.38600
O 	O 	0.83673 0.45932 0.28638 -0.38900
O 	O 	0.28042 0.60995 0.06192 -0.41400
O 	O 	0.80636 0.70047 0.21540 -0.38000
O 	O 	0.47130 0.80391 0.93882 -0.36800
O 	O 	0.40009 0.12325 0.62944 -0.37200
O 	O 	0.40283 0.51653 0.28358 -0.37500
O 	O 	0.47638 0.25342 0.69960 -0.38300
O 	O 	0.51653 0.88075 0.28358 -0.37500
O 	O 	0.52870 0.19609 0.06118 -0.41600
O 	O 	0.40527 0.19994 0.69798 -0.37200
O 	O 	0.19609 0.53248 0.06118 -0.41600
O 	O 	0.53769 0.26682 0.06152 -0.41300
O 	O 	0.46954 0.06861 0.59818 -0.40000
O 	O 	0.19364 0.29953 0.78460 -0.37100
O 	O 	0.52383 0.79470 0.06152 -0.41300
O 	O 	0.86509 0.52870 0.06118 -0.41700
O 	O 	0.59991 0.87675 0.37056 -0.37300
O 	O 	0.87675 0.77065 0.37056 -0.37300
O 	O 	0.79470 0.53769 0.06152 -0.41300
O 	O 	0.77678 0.55382 0.30040 -0.38500
O 	O 	0.52957 0.46954 0.59818 -0.40100
O 	O 	0.53217 0.82307 0.37270 -0.38600
O 	O 	0.82307 0.84053 0.37270 -0.38700
O 	O 	0.49804 0.40527 0.69798 -0.37200
O 	O 	0.39005 0.21850 0.93808 -0.36500
O 	O 	0.15947 0.45037 0.62730 -0.38600
O 	O 	0.71958 0.39005 0.93808 -0.36500
O 	O 	0.12864 0.52957 0.59818 -0.40000
O 	O 	0.30078 0.33235 0.81574 -0.39600
O 	O 	0.24718 0.22998 0.78580 -0.38000
O 	O 	0.40904 0.51493 0.21540 -0.38000
O 	O 	0.85222 0.44303 0.06242 -0.42000
O 	O 	0.14778 0.55697 0.93758 -0.37000
O 	O 	0.48507 0.19364 0.78460 -0.37100
O 	O 	0.21850 0.54803 0.93808 -0.36500
O 	O 	0.12325 0.22935 0.62944 -0.37200
O 	O 	0.88075 0.76705 0.28358 -0.37500
O 	O 	0.50196 0.59473 0.30202 -0.37400
O 	O 	0.51496 0.48339 0.81574 -0.39600
O 	O 	0.46138 0.44418 0.21420 -0.38900
O 	O 	0.45197 0.28042 0.06192 -0.41400
O 	O 	0.93139 0.87136 0.40182 -0.40300
O 	O 	0.70729 0.50196 0.30202 -0.37400
O 	O 	0.17294 0.16327 0.71362 -0.38500
O 	O 	0.46783 0.17693 0.62730 -0.38600
O 	O 	0.48504 0.51661 0.18426 -0.40800
O 	O 	0.69922 0.66765 0.18426 -0.40800
O 	O 	0.53248 0.86509 0.06118 -0.41700
O 	O 	0.59473 0.80006 0.30202 -0.37500
