data_crystal

_cell_length_a 27.65300
_cell_length_b 27.65300
_cell_length_c 22.92840
_cell_angle_alpha 90.00000
_cell_angle_beta  90.00000
_cell_angle_gamma 120.00000

_symmetry_space_group_name_	'P 1'
_symmetry_space_group_name_H-M	'P 1'

loop_
_symmetry_equiv_pos_as_xyz
  x,y,z

loop_
_atom_site_label
_atom_site_type_symbol
_atom_site_fract_x
_atom_site_fract_y
_atom_site_fract_z
_atom_site_charge
Zn	Zn	0.54781 0.88152 0.29966 1.19200
Zn	Zn	0.54782 0.66634 0.29966 1.18700
N 	N 	0.40590 0.51310 0.32930 -0.29600
N 	N 	0.48690 0.59450 0.33010 -0.30000
C 	C 	0.55950 0.66760 0.16650 0.20900
N 	N 	0.52880 0.66600 0.21680 -0.26000
C 	C 	0.47950 0.66530 0.19800 -0.03800
H 	H 	0.45130 0.66420 0.22260 -0.04200
C 	C 	0.47980 0.66650 0.13610 -0.00900
H 	H 	0.45180 0.66630 0.11200 -0.04200
N 	N 	0.52920 0.66790 0.11660 -0.25000
C 	C 	0.44390 0.55680 0.30010 0.10000
H 	H 	0.44040 0.56090 0.25940 -0.06200
N 	N 	0.71290 0.72190 0.34290 -0.28100
N 	N 	0.62050 0.67620 0.32370 -0.27500
C 	C 	0.63820 0.63790 0.32730 0.04600
C 	C 	0.47620 0.57280 0.38580 0.05900
C 	C 	0.42630 0.52210 0.38470 0.05000
C 	C 	0.69540 0.66580 0.33930 0.07000
C 	C 	0.66740 0.72490 0.33350 0.03600
H 	H 	0.66790 0.75940 0.33370 0.05200
C 	C 	0.40500 0.49090 0.43610 -0.14900
H 	H 	0.37030 0.45690 0.43650 0.04300
C 	C 	0.50830 0.59460 0.43610 -0.16500
H 	H 	0.54230 0.62930 0.43570 0.04500
C 	C 	0.43680 0.51170 0.48620 0.06700
C 	C 	0.48850 0.56360 0.48590 0.09100
C 	C 	0.49690 0.72390 0.36110 -0.07500
N 	N 	0.53440 0.72350 0.32290 0.18700
N 	N 	0.53460 0.80600 0.32600 -0.02500
C 	C 	0.49650 0.77450 0.36360 -0.03500
C 	C 	0.41130 0.48140 0.54740 -0.41500
H 	H 	0.37450 0.47780 0.55310 0.13800
H 	H 	0.43630 0.50370 0.57910 0.13100
H 	H 	0.40760 0.44430 0.54730 0.14200
C 	C 	0.60720 0.57930 0.32130 -0.17200
H 	H 	0.56820 0.55990 0.31370 0.07100
C 	C 	0.72600 0.63880 0.34580 -0.20500
H 	H 	0.76480 0.65840 0.35440 0.08200
C 	C 	0.63750 0.55180 0.32730 0.08700
C 	C 	0.69570 0.58090 0.33890 0.13100
C 	C 	0.60970 0.66090 0.16630 -0.26300
H 	H 	0.64350 0.69760 0.16950 0.14500
H 	H 	0.61090 0.64300 0.12990 0.07600
H 	H 	0.60780 0.63760 0.19940 0.13800
C 	C 	0.54950 0.77460 0.30370 1.03000
C 	C 	0.61550 0.49150 0.32340 -0.42900
H 	H 	0.57500 0.47240 0.31740 0.12900
H 	H 	0.62370 0.47820 0.35960 0.13000
H 	H 	0.63300 0.48350 0.29050 0.13100
C 	C 	0.60380 0.80210 0.25570 -5.48600
H 	H 	0.63910 0.82270 0.27720 4.97400
H 	H 	0.59990 0.82760 0.22900 1.63900
H 	H 	0.60390 0.77190 0.23330 1.70400
C 	C 	0.57020 0.76020 0.38950 0.16800
C 	C 	0.56980 0.81030 0.38950 -0.02600
C 	C 	0.58650 0.84390 0.43900 -0.98900
H 	H 	0.58630 0.87810 0.43900 0.37300
C 	C 	0.60360 0.82730 0.48840 0.54500
C 	C 	0.60390 0.77730 0.48850 0.69300
C 	C 	0.58730 0.74370 0.43900 -1.22900
H 	H 	0.58750 0.70950 0.43900 0.45200
C 	C 	0.49010 0.66860 0.16800 -0.36300
H 	H 	0.45650 0.63160 0.16560 0.12200
H 	H 	0.49110 0.69130 0.13470 0.13200
H 	H 	0.48950 0.68690 0.20430 0.14900
C 	C 	0.53690 0.66280 0.16700 0.13400
N 	N 	0.56920 0.66580 0.21650 -0.25200
C 	C 	0.62190 0.67560 0.19650 -0.14600
H 	H 	0.65170 0.67940 0.22040 0.02900
C 	C 	0.62230 0.67860 0.13470 -0.01400
H 	H 	0.65240 0.68480 0.10990 -0.00600
N 	N 	0.56970 0.67070 0.11640 -0.27000
N 	N 	0.54770 0.73550 0.33450 -0.62900
N 	N 	0.54730 0.81610 0.33200 -0.38500
C 	C 	0.71580 0.54230 0.33950 -0.48700
H 	H 	0.75650 0.56270 0.33530 0.14400
H 	H 	0.69900 0.51600 0.30710 0.14800
H 	H 	0.70560 0.52180 0.37650 0.15200
O 	O 	0.66550 0.83290 0.39730 -5.48100
C 	C 	0.61800 0.76400 0.53700 -0.19500
C 	C 	0.61900 0.85000 0.54000 -0.12400
C 	C 	0.69300 0.84670 0.51600 0.00700
C 	C 	0.63190 0.81580 0.42900 3.81400
N 	N 	0.63150 0.81610 0.48040 -1.51600
C 	C 	0.51580 0.58540 0.54770 -0.44200
H 	H 	0.55340 0.59040 0.54810 0.15100
H 	H 	0.49290 0.55820 0.57760 0.14100
H 	H 	0.51800 0.62130 0.55580 0.14700
Zn	Zn	0.21448 0.21485 0.63299 1.19300
Zn	Zn	0.21449 0.99967 0.63299 1.18800
N 	N 	0.07257 0.84643 0.66263 -0.29500
N 	N 	0.15357 0.92783 0.66343 -0.29800
C 	C 	0.22617 0.00093 0.49983 0.21000
N 	N 	0.19547 0.99933 0.55013 -0.25900
C 	C 	0.14617 0.99863 0.53133 -0.04000
H 	H 	0.11797 0.99753 0.55593 -0.04000
C 	C 	0.14647 0.99983 0.46943 -0.00500
H 	H 	0.11847 0.99963 0.44533 -0.04200
N 	N 	0.19587 0.00123 0.44993 -0.24900
C 	C 	0.11057 0.89013 0.63343 0.10100
H 	H 	0.10707 0.89423 0.59273 -0.06100
N 	N 	0.37957 0.05523 0.67623 -0.28200
N 	N 	0.28717 0.00953 0.65703 -0.27500
C 	C 	0.30487 0.97123 0.66063 0.04800
C 	C 	0.14287 0.90613 0.71913 0.06100
C 	C 	0.09297 0.85543 0.71803 0.05200
C 	C 	0.36207 0.99913 0.67263 0.07200
C 	C 	0.33407 0.05823 0.66683 0.03600
H 	H 	0.33457 0.09273 0.66703 0.05200
C 	C 	0.07167 0.82423 0.76943 -0.14900
H 	H 	0.03697 0.79023 0.76983 0.04400
C 	C 	0.17497 0.92793 0.76943 -0.16600
H 	H 	0.20897 0.96263 0.76903 0.04700
C 	C 	0.10347 0.84503 0.81953 0.06800
C 	C 	0.15517 0.89693 0.81923 0.09300
C 	C 	0.16357 0.05723 0.69443 -0.07600
N 	N 	0.20107 0.05683 0.65623 0.18800
N 	N 	0.20127 0.13933 0.65933 -0.02500
C 	C 	0.16317 0.10783 0.69693 -0.03500
C 	C 	0.07797 0.81473 0.88073 -0.42000
H 	H 	0.04117 0.81113 0.88643 0.14200
H 	H 	0.10297 0.83703 0.91243 0.13400
H 	H 	0.07427 0.77763 0.88063 0.14500
C 	C 	0.27387 0.91263 0.65463 -0.17300
H 	H 	0.23487 0.89323 0.64703 0.07100
C 	C 	0.39267 0.97213 0.67913 -0.20600
H 	H 	0.43147 0.99173 0.68773 0.08300
C 	C 	0.30417 0.88513 0.66063 0.08700
C 	C 	0.36237 0.91423 0.67223 0.13100
C 	C 	0.27637 0.99423 0.49963 -0.26300
H 	H 	0.31017 0.03093 0.50283 0.14500
H 	H 	0.27757 0.97633 0.46323 0.07500
H 	H 	0.27447 0.97093 0.53273 0.13900
C 	C 	0.21617 0.10793 0.63703 1.03000
C 	C 	0.28217 0.82483 0.65673 -0.42900
H 	H 	0.24167 0.80573 0.65073 0.12900
H 	H 	0.29037 0.81153 0.69293 0.13000
H 	H 	0.29967 0.81683 0.62383 0.13100
C 	C 	0.27047 0.13543 0.58903 -5.48700
H 	H 	0.30577 0.15603 0.61053 4.97400
H 	H 	0.26657 0.16093 0.56233 1.63900
H 	H 	0.27057 0.10523 0.56663 1.70400
C 	C 	0.23687 0.09353 0.72283 0.16900
C 	C 	0.23647 0.14363 0.72283 -0.02600
C 	C 	0.25317 0.17723 0.77233 -0.98900
H 	H 	0.25297 0.21143 0.77233 0.37300
C 	C 	0.27027 0.16063 0.82173 0.54400
C 	C 	0.27057 0.11063 0.82183 0.69300
C 	C 	0.25397 0.07703 0.77233 -1.23000
H 	H 	0.25417 0.04283 0.77233 0.45100
C 	C 	0.15677 0.00193 0.50133 -0.36400
H 	H 	0.12317 0.96493 0.49893 0.12200
H 	H 	0.15777 0.02463 0.46803 0.13100
H 	H 	0.15617 0.02023 0.53763 0.15000
C 	C 	0.20357 0.99613 0.50033 0.13300
N 	N 	0.23587 0.99913 0.54983 -0.25100
C 	C 	0.28857 0.00893 0.52983 -0.14900
H 	H 	0.31837 0.01273 0.55373 0.02900
C 	C 	0.28897 0.01193 0.46803 -0.01100
H 	H 	0.31907 0.01813 0.44323 -0.00700
N 	N 	0.23637 0.00403 0.44973 -0.27000
N 	N 	0.21437 0.06883 0.66783 -0.63100
N 	N 	0.21397 0.14943 0.66533 -0.38500
C 	C 	0.38247 0.87563 0.67283 -0.48800
H 	H 	0.42317 0.89603 0.66863 0.14400
H 	H 	0.36567 0.84933 0.64043 0.14800
H 	H 	0.37227 0.85513 0.70983 0.15200
O 	O 	0.33217 0.16623 0.73063 -5.48000
C 	C 	0.28467 0.09733 0.87033 -0.19600
C 	C 	0.28567 0.18333 0.87333 -0.12400
C 	C 	0.35967 0.18003 0.84933 0.00700
C 	C 	0.29857 0.14913 0.76233 3.81300
N 	N 	0.29817 0.14943 0.81373 -1.51600
C 	C 	0.18247 0.91873 0.88103 -0.44700
H 	H 	0.22007 0.92373 0.88143 0.15400
H 	H 	0.15957 0.89153 0.91093 0.14400
H 	H 	0.18467 0.95463 0.88913 0.15000
Zn	Zn	0.88114 0.54819 0.96633 1.19300
Zn	Zn	0.88115 0.33301 0.96633 1.18400
N 	N 	0.73923 0.17977 0.99597 -0.30000
N 	N 	0.82023 0.26117 0.99677 -0.30400
C 	C 	0.89283 0.33427 0.83317 0.21000
N 	N 	0.86213 0.33267 0.88347 -0.26100
C 	C 	0.81283 0.33197 0.86467 -0.03900
H 	H 	0.78463 0.33087 0.88927 -0.04300
C 	C 	0.81313 0.33317 0.80277 -0.00500
H 	H 	0.78513 0.33297 0.77867 -0.04100
N 	N 	0.86253 0.33457 0.78327 -0.24900
C 	C 	0.77723 0.22347 0.96677 0.09900
H 	H 	0.77373 0.22757 0.92607 -0.06100
N 	N 	0.04623 0.38857 0.00957 -0.28200
N 	N 	0.95383 0.34287 0.99037 -0.27600
C 	C 	0.97153 0.30457 0.99397 0.04400
C 	C 	0.80953 0.23947 0.05247 0.06600
C 	C 	0.75963 0.18877 0.05137 0.05700
C 	C 	0.02873 0.33247 0.00597 0.07200
C 	C 	0.00073 0.39157 0.00017 0.03800
H 	H 	0.00123 0.42607 0.00037 0.04800
C 	C 	0.73833 0.15757 0.10277 -0.15100
H 	H 	0.70363 0.12357 0.10317 0.04600
C 	C 	0.84163 0.26127 0.10277 -0.16700
H 	H 	0.87563 0.29597 0.10237 0.04700
C 	C 	0.77013 0.17837 0.15287 0.06800
C 	C 	0.82183 0.23027 0.15257 0.09100
C 	C 	0.83023 0.39057 0.02777 -0.08400
N 	N 	0.86773 0.39017 0.98957 0.29900
N 	N 	0.86793 0.47267 0.99267 -0.02400
C 	C 	0.82983 0.44117 0.03027 -0.02800
C 	C 	0.74463 0.14807 0.21407 -0.41600
H 	H 	0.70783 0.14447 0.21977 0.13900
H 	H 	0.76963 0.17037 0.24577 0.13100
H 	H 	0.74093 0.11097 0.21397 0.14300
C 	C 	0.94053 0.24597 0.98797 -0.17700
H 	H 	0.90153 0.22657 0.98037 0.07100
C 	C 	0.05933 0.30547 0.01247 -0.20700
H 	H 	0.09813 0.32507 0.02107 0.08200
C 	C 	0.97083 0.21847 0.99397 0.09200
C 	C 	0.02903 0.24757 0.00557 0.13200
C 	C 	0.94303 0.32757 0.83297 -0.26100
H 	H 	0.97683 0.36427 0.83617 0.14400
H 	H 	0.94423 0.30967 0.79657 0.07600
H 	H 	0.94113 0.30427 0.86607 0.13700
C 	C 	0.88283 0.44127 0.97037 1.00600
C 	C 	0.94883 0.15817 0.99007 -0.46800
H 	H 	0.90833 0.13907 0.98407 0.13700
H 	H 	0.95703 0.14487 0.02627 0.14900
H 	H 	0.96633 0.15017 0.95717 0.13800
C 	C 	0.93713 0.46877 0.92237 -5.33900
H 	H 	0.97243 0.48937 0.94387 4.83100
H 	H 	0.93323 0.49427 0.89567 1.59500
H 	H 	0.93723 0.43857 0.89997 1.65700
C 	C 	0.90353 0.42687 0.05617 0.21000
C 	C 	0.90313 0.47697 0.05617 -0.03600
C 	C 	0.91983 0.51057 0.10567 -0.95700
H 	H 	0.91963 0.54477 0.10567 0.36300
C 	C 	0.93693 0.49397 0.15507 0.52700
C 	C 	0.93723 0.44397 0.15517 0.69500
C 	C 	0.92063 0.41037 0.10567 -1.22900
H 	H 	0.92083 0.37617 0.10567 0.45300
C 	C 	0.82343 0.33527 0.83467 -0.36100
H 	H 	0.78983 0.29827 0.83227 0.12100
H 	H 	0.82443 0.35797 0.80137 0.13000
H 	H 	0.82283 0.35357 0.87097 0.14800
C 	C 	0.87023 0.32947 0.83367 0.13400
N 	N 	0.90253 0.33247 0.88317 -0.25200
C 	C 	0.95523 0.34227 0.86317 -0.14500
H 	H 	0.98503 0.34607 0.88707 0.02800
C 	C 	0.95563 0.34527 0.80137 -0.01500
H 	H 	0.98573 0.35147 0.77657 -0.00700
N 	N 	0.90303 0.33737 0.78307 -0.27000
N 	N 	0.88103 0.40217 0.00117 -0.74200
N 	N 	0.88063 0.48277 0.99867 -0.38400
C 	C 	0.04913 0.20897 0.00617 -0.49400
H 	H 	0.08983 0.22937 0.00197 0.14500
H 	H 	0.03233 0.18267 0.97377 0.15200
H 	H 	0.03893 0.18847 0.04317 0.15200
O 	O 	0.99883 0.49957 0.06397 -5.32200
C 	C 	0.95133 0.43067 0.20367 -0.19600
C 	C 	0.95233 0.51667 0.20667 -0.11800
C 	C 	0.02633 0.51337 0.18267 0.00400
C 	C 	0.96523 0.48247 0.09567 3.71000
N 	N 	0.96483 0.48277 0.14707 -1.48300
C 	C 	0.84913 0.25207 0.21437 -0.44300
H 	H 	0.88673 0.25707 0.21477 0.15100
H 	H 	0.82623 0.22487 0.24427 0.14100
H 	H 	0.85133 0.28797 0.22247 0.14700
Zn	Zn	0.11848 0.66629 0.29966 1.19300
Zn	Zn	0.33366 0.88148 0.29966 1.18800
N 	N 	0.48690 0.89280 0.32930 -0.29600
N 	N 	0.40550 0.89240 0.33010 -0.29900
C 	C 	0.33240 0.89190 0.16650 0.21100
N 	N 	0.33400 0.86280 0.21680 -0.25900
C 	C 	0.33470 0.81420 0.19800 -0.03700
H 	H 	0.33580 0.78710 0.22260 -0.04100
C 	C 	0.33350 0.81330 0.13610 -0.00800
H 	H 	0.33370 0.78550 0.11200 -0.04100
N 	N 	0.33210 0.86130 0.11660 -0.24900
C 	C 	0.44320 0.88710 0.30010 0.10000
H 	H 	0.43910 0.87950 0.25940 -0.06100
N 	N 	0.27810 0.99100 0.34290 -0.28200
N 	N 	0.32380 0.94430 0.32370 -0.27500
C 	C 	0.36210 0.00030 0.32730 0.04900
C 	C 	0.42720 0.90340 0.38580 0.06000
C 	C 	0.47790 0.90420 0.38470 0.05100
C 	C 	0.33420 0.02960 0.33930 0.07100
C 	C 	0.27510 0.94250 0.33350 0.03600
H 	H 	0.24060 0.90850 0.33370 0.05200
C 	C 	0.50910 0.91410 0.43610 -0.14900
H 	H 	0.54310 0.91340 0.43650 0.04300
C 	C 	0.40540 0.91370 0.43610 -0.16500
H 	H 	0.37070 0.91300 0.43570 0.04500
C 	C 	0.48830 0.92510 0.48620 0.06700
C 	C 	0.43640 0.92490 0.48590 0.09100
C 	C 	0.27610 0.77300 0.36110 -0.07500
N 	N 	0.27650 0.81090 0.32290 0.18800
N 	N 	0.19400 0.72860 0.32600 -0.02600
C 	C 	0.22550 0.72200 0.36360 -0.03500
C 	C 	0.51860 0.92990 0.54740 -0.41500
H 	H 	0.52220 0.89670 0.55310 0.13800
H 	H 	0.49630 0.93260 0.57910 0.13100
H 	H 	0.55570 0.96330 0.54730 0.14200
C 	C 	0.42070 0.02790 0.32130 -0.17300
H 	H 	0.44010 0.00830 0.31370 0.07200
C 	C 	0.36120 0.08720 0.34580 -0.20500
H 	H 	0.34160 0.10640 0.35440 0.08200
C 	C 	0.44820 0.08570 0.32730 0.08700
C 	C 	0.41910 0.11480 0.33890 0.13100
C 	C 	0.33910 0.94880 0.16630 -0.26100
H 	H 	0.30240 0.94590 0.16950 0.14400
H 	H 	0.35700 0.96790 0.12990 0.07600
H 	H 	0.36240 0.97020 0.19940 0.13700
C 	C 	0.22540 0.77490 0.30370 1.02400
C 	C 	0.50850 0.12400 0.32340 -0.42900
H 	H 	0.52760 0.10260 0.31740 0.12900
H 	H 	0.52180 0.14550 0.35960 0.13000
H 	H 	0.51650 0.14950 0.29050 0.13100
C 	C 	0.19790 0.80170 0.25570 -5.45200
H 	H 	0.17730 0.81640 0.27720 4.94000
H 	H 	0.17240 0.77230 0.22900 1.62900
H 	H 	0.22810 0.83200 0.23330 1.69400
C 	C 	0.23980 0.81000 0.38950 0.16900
C 	C 	0.18970 0.75950 0.38950 -0.02600
C 	C 	0.15610 0.74260 0.43900 -0.98400
H 	H 	0.12190 0.70820 0.43900 0.37100
C 	C 	0.17270 0.77630 0.48840 0.54200
C 	C 	0.22270 0.82660 0.48850 0.69100
C 	C 	0.25630 0.84360 0.43900 -1.22400
H 	H 	0.29050 0.87800 0.43900 0.45000
C 	C 	0.33140 0.82150 0.16800 -0.36200
H 	H 	0.36840 0.82490 0.16560 0.12200
H 	H 	0.30870 0.79980 0.13470 0.13200
H 	H 	0.31310 0.80260 0.20430 0.14800
C 	C 	0.33720 0.87410 0.16700 0.13300
N 	N 	0.33420 0.90340 0.21650 -0.25200
C 	C 	0.32440 0.94630 0.19650 -0.14500
H 	H 	0.32060 0.97230 0.22040 0.02800
C 	C 	0.32140 0.94370 0.13470 -0.01500
H 	H 	0.31520 0.96760 0.10990 -0.00700
N 	N 	0.32930 0.89900 0.11640 -0.27000
N 	N 	0.26450 0.81220 0.33450 -0.62900
N 	N 	0.18390 0.73120 0.33200 -0.38300
C 	C 	0.45770 0.17350 0.33950 -0.48700
H 	H 	0.43730 0.19380 0.33530 0.14400
H 	H 	0.48400 0.18300 0.30710 0.14800
H 	H 	0.47820 0.18380 0.37650 0.15200
O 	O 	0.16710 0.83260 0.39730 -5.44400
C 	C 	0.23600 0.85400 0.53700 -0.19500
C 	C 	0.15000 0.76900 0.54000 -0.12400
C 	C 	0.15330 0.84630 0.51600 0.00700
C 	C 	0.18420 0.81610 0.42900 3.78900
N 	N 	0.18390 0.81540 0.48040 -1.50800
C 	C 	0.41460 0.93040 0.54770 -0.44200
H 	H 	0.40960 0.96300 0.54810 0.15100
H 	H 	0.44180 0.93470 0.57760 0.14100
H 	H 	0.37870 0.89670 0.55580 0.14700
Zn	Zn	0.78515 0.99962 0.63299 1.19400
Zn	Zn	0.00033 0.21481 0.63299 1.18800
N 	N 	0.15357 0.22613 0.66263 -0.29500
N 	N 	0.07217 0.22573 0.66343 -0.29900
C 	C 	0.99907 0.22523 0.49983 0.21000
N 	N 	0.00067 0.19613 0.55013 -0.25900
C 	C 	0.00137 0.14753 0.53133 -0.04000
H 	H 	0.00247 0.12043 0.55593 -0.04000
C 	C 	0.00017 0.14663 0.46943 -0.00500
H 	H 	0.00037 0.11883 0.44533 -0.04100
N 	N 	0.99877 0.19463 0.44993 -0.24900
C 	C 	0.10987 0.22043 0.63343 0.10100
H 	H 	0.10577 0.21283 0.59273 -0.06100
N 	N 	0.94477 0.32433 0.67623 -0.28200
N 	N 	0.99047 0.27763 0.65703 -0.27500
C 	C 	0.02877 0.33363 0.66063 0.04800
C 	C 	0.09387 0.23673 0.71913 0.06100
C 	C 	0.14457 0.23753 0.71803 0.05100
C 	C 	0.00087 0.36293 0.67263 0.07200
C 	C 	0.94177 0.27583 0.66683 0.03600
H 	H 	0.90727 0.24183 0.66703 0.05200
C 	C 	0.17577 0.24743 0.76943 -0.14800
H 	H 	0.20977 0.24673 0.76983 0.04300
C 	C 	0.07207 0.24703 0.76943 -0.16600
H 	H 	0.03737 0.24633 0.76903 0.04700
C 	C 	0.15497 0.25843 0.81953 0.06600
C 	C 	0.10307 0.25823 0.81923 0.09300
C 	C 	0.94277 0.10633 0.69443 -0.07700
N 	N 	0.94317 0.14423 0.65623 0.19000
N 	N 	0.86067 0.06193 0.65933 -0.02600
C 	C 	0.89217 0.05533 0.69693 -0.03700
C 	C 	0.18527 0.26323 0.88073 -0.41500
H 	H 	0.18887 0.23003 0.88643 0.13800
H 	H 	0.16297 0.26593 0.91243 0.13100
H 	H 	0.22237 0.29663 0.88063 0.14200
C 	C 	0.08737 0.36123 0.65463 -0.17300
H 	H 	0.10677 0.34163 0.64703 0.07100
C 	C 	0.02787 0.42053 0.67913 -0.20600
H 	H 	0.00827 0.43973 0.68773 0.08300
C 	C 	0.11487 0.41903 0.66063 0.08700
C 	C 	0.08577 0.44813 0.67223 0.13100
C 	C 	0.00577 0.28213 0.49963 -0.26400
H 	H 	0.96907 0.27923 0.50283 0.14500
H 	H 	0.02367 0.30123 0.46323 0.07500
H 	H 	0.02907 0.30353 0.53273 0.13900
C 	C 	0.89207 0.10823 0.63703 1.02500
C 	C 	0.17517 0.45733 0.65673 -0.42900
H 	H 	0.19427 0.43593 0.65073 0.12900
H 	H 	0.18847 0.47883 0.69293 0.13000
H 	H 	0.18317 0.48283 0.62383 0.13100
C 	C 	0.86457 0.13503 0.58903 -5.45200
H 	H 	0.84397 0.14973 0.61053 4.94000
H 	H 	0.83907 0.10563 0.56233 1.62900
H 	H 	0.89477 0.16533 0.56663 1.69400
C 	C 	0.90647 0.14333 0.72283 0.16900
C 	C 	0.85637 0.09283 0.72283 -0.02700
C 	C 	0.82277 0.07593 0.77233 -0.98400
H 	H 	0.78857 0.04153 0.77233 0.37000
C 	C 	0.83937 0.10963 0.82173 0.54100
C 	C 	0.88937 0.15993 0.82183 0.69000
C 	C 	0.92297 0.17693 0.77233 -1.22400
H 	H 	0.95717 0.21133 0.77233 0.44900
C 	C 	0.99807 0.15483 0.50133 -0.36300
H 	H 	0.03507 0.15823 0.49893 0.12200
H 	H 	0.97537 0.13313 0.46803 0.13100
H 	H 	0.97977 0.13593 0.53763 0.15000
C 	C 	0.00387 0.20743 0.50033 0.13300
N 	N 	0.00087 0.23673 0.54983 -0.25100
C 	C 	0.99107 0.27963 0.52983 -0.14800
H 	H 	0.98727 0.30563 0.55373 0.02900
C 	C 	0.98807 0.27703 0.46803 -0.01000
H 	H 	0.98187 0.30093 0.44323 -0.00700
N 	N 	0.99597 0.23233 0.44973 -0.27000
N 	N 	0.93117 0.14553 0.66783 -0.63200
N 	N 	0.85057 0.06453 0.66533 -0.38300
C 	C 	0.12437 0.50683 0.67283 -0.48800
H 	H 	0.10397 0.52713 0.66863 0.14400
H 	H 	0.15067 0.51633 0.64043 0.14800
H 	H 	0.14487 0.51713 0.70983 0.15200
O 	O 	0.83377 0.16593 0.73063 -5.44300
C 	C 	0.90267 0.18733 0.87033 -0.19600
C 	C 	0.81667 0.10233 0.87333 -0.12500
C 	C 	0.81997 0.17963 0.84933 0.00700
C 	C 	0.85087 0.14943 0.76233 3.78900
N 	N 	0.85057 0.14873 0.81373 -1.50800
C 	C 	0.08127 0.26373 0.88103 -0.44500
H 	H 	0.07627 0.29633 0.88143 0.15300
H 	H 	0.10847 0.26803 0.91093 0.14200
H 	H 	0.04537 0.23003 0.88913 0.14900
Zn	Zn	0.45181 0.33296 0.96633 1.19300
Zn	Zn	0.66699 0.54815 0.96633 1.18700
N 	N 	0.82023 0.55947 0.99597 -0.29800
N 	N 	0.73883 0.55907 0.99677 -0.30000
C 	C 	0.66573 0.55857 0.83317 0.21000
N 	N 	0.66733 0.52947 0.88347 -0.26000
C 	C 	0.66803 0.48087 0.86467 -0.03800
H 	H 	0.66913 0.45377 0.88927 -0.04200
C 	C 	0.66683 0.47997 0.80277 -0.00700
H 	H 	0.66703 0.45217 0.77867 -0.04100
N 	N 	0.66543 0.52797 0.78327 -0.24900
C 	C 	0.77653 0.55377 0.96677 0.10000
H 	H 	0.77243 0.54617 0.92607 -0.06100
N 	N 	0.61143 0.65767 0.00957 -0.28100
N 	N 	0.65713 0.61097 0.99037 -0.27400
C 	C 	0.69543 0.66697 0.99397 0.04700
C 	C 	0.76053 0.57007 0.05247 0.06100
C 	C 	0.81123 0.57087 0.05137 0.05500
C 	C 	0.66753 0.69627 0.00597 0.07000
C 	C 	0.60843 0.60917 0.00017 0.03700
H 	H 	0.57393 0.57517 0.00037 0.05300
C 	C 	0.84243 0.58077 0.10277 -0.15100
H 	H 	0.87643 0.58007 0.10317 0.04500
C 	C 	0.73873 0.58037 0.10277 -0.16500
H 	H 	0.70403 0.57967 0.10237 0.04500
C 	C 	0.82163 0.59177 0.15287 0.06800
C 	C 	0.76973 0.59157 0.15257 0.09000
C 	C 	0.60943 0.43967 0.02777 -0.07700
N 	N 	0.60983 0.47757 0.98957 0.21400
N 	N 	0.52733 0.39527 0.99267 -0.02300
C 	C 	0.55883 0.38867 0.03027 -0.03300
C 	C 	0.85193 0.59657 0.21407 -0.41600
H 	H 	0.85553 0.56337 0.21977 0.13900
H 	H 	0.82963 0.59927 0.24577 0.13200
H 	H 	0.88903 0.62997 0.21397 0.14300
C 	C 	0.75403 0.69457 0.98797 -0.17300
H 	H 	0.77343 0.67497 0.98037 0.07100
C 	C 	0.69453 0.75387 0.01247 -0.20500
H 	H 	0.67493 0.77307 0.02107 0.08200
C 	C 	0.78153 0.75237 0.99397 0.08800
C 	C 	0.75243 0.78147 0.00557 0.13100
C 	C 	0.67243 0.61547 0.83297 -0.26300
H 	H 	0.63573 0.61257 0.83617 0.14500
H 	H 	0.69033 0.63457 0.79657 0.07600
H 	H 	0.69573 0.63687 0.86607 0.13800
C 	C 	0.55873 0.44157 0.97037 1.03300
C 	C 	0.84183 0.79067 0.99007 -0.43100
H 	H 	0.86093 0.76927 0.98407 0.12900
H 	H 	0.85513 0.81217 0.02627 0.13100
H 	H 	0.84983 0.81617 0.95717 0.13100
C 	C 	0.53123 0.46837 0.92237 -5.50200
H 	H 	0.51063 0.48307 0.94387 4.99000
H 	H 	0.50573 0.43897 0.89567 1.64400
H 	H 	0.56143 0.49867 0.89997 1.70900
C 	C 	0.57313 0.47667 0.05617 0.17800
C 	C 	0.52303 0.42617 0.05617 -0.02900
C 	C 	0.48943 0.40927 0.10567 -0.99000
H 	H 	0.45523 0.37487 0.10567 0.37400
C 	C 	0.50603 0.44297 0.15507 0.54400
C 	C 	0.55603 0.49327 0.15517 0.69800
C 	C 	0.58963 0.51027 0.10567 -1.23900
H 	H 	0.62383 0.54467 0.10567 0.45600
C 	C 	0.66473 0.48817 0.83467 -0.36300
H 	H 	0.70173 0.49157 0.83227 0.12200
H 	H 	0.64203 0.46647 0.80137 0.13200
H 	H 	0.64643 0.46927 0.87097 0.14900
C 	C 	0.67053 0.54077 0.83367 0.13400
N 	N 	0.66753 0.57007 0.88317 -0.25200
C 	C 	0.65773 0.61297 0.86317 -0.14600
H 	H 	0.65393 0.63897 0.88707 0.02900
C 	C 	0.65473 0.61037 0.80137 -0.01300
H 	H 	0.64853 0.63427 0.77657 -0.00600
N 	N 	0.66263 0.56567 0.78307 -0.27000
N 	N 	0.59783 0.47887 0.00117 -0.65800
N 	N 	0.51723 0.39787 0.99867 -0.38800
C 	C 	0.79103 0.84017 0.00617 -0.48900
H 	H 	0.77063 0.86047 0.00197 0.14400
H 	H 	0.81733 0.84967 0.97377 0.14800
H 	H 	0.81153 0.85047 0.04317 0.15200
O 	O 	0.50043 0.49927 0.06397 -5.49800
C 	C 	0.56933 0.52067 0.20367 -0.19700
C 	C 	0.48333 0.43567 0.20667 -0.12300
C 	C 	0.48663 0.51297 0.18267 0.00700
C 	C 	0.51753 0.48277 0.09567 3.82500
N 	N 	0.51723 0.48207 0.14707 -1.52000
C 	C 	0.74793 0.59707 0.21437 -0.44100
H 	H 	0.74293 0.62967 0.21477 0.15100
H 	H 	0.77513 0.60137 0.24427 0.14000
H 	H 	0.71203 0.56337 0.22247 0.14700
Zn	Zn	0.33371 0.45219 0.29966 1.19300
Zn	Zn	0.11852 0.45218 0.29966 1.18800
N 	N 	0.10720 0.59410 0.32930 -0.29600
N 	N 	0.10760 0.51310 0.33010 -0.29900
C 	C 	0.10810 0.44050 0.16650 0.21100
N 	N 	0.13720 0.47120 0.21680 -0.25900
C 	C 	0.18580 0.52050 0.19800 -0.03700
H 	H 	0.21290 0.54870 0.22260 -0.04100
C 	C 	0.18670 0.52020 0.13610 -0.00800
H 	H 	0.21450 0.54820 0.11200 -0.04100
N 	N 	0.13870 0.47080 0.11660 -0.24900
C 	C 	0.11290 0.55610 0.30010 0.10000
H 	H 	0.12050 0.55960 0.25940 -0.06100
N 	N 	0.00900 0.28710 0.34290 -0.28200
N 	N 	0.05570 0.37950 0.32370 -0.27500
C 	C 	0.99970 0.36180 0.32730 0.04900
C 	C 	0.09660 0.52380 0.38580 0.06000
C 	C 	0.09580 0.57370 0.38470 0.05100
C 	C 	0.97040 0.30460 0.33930 0.07100
C 	C 	0.05750 0.33260 0.33350 0.03600
H 	H 	0.09150 0.33210 0.33370 0.05200
C 	C 	0.08590 0.59500 0.43610 -0.14900
H 	H 	0.08660 0.62970 0.43650 0.04300
C 	C 	0.08630 0.49170 0.43610 -0.16500
H 	H 	0.08700 0.45770 0.43570 0.04500
C 	C 	0.07490 0.56320 0.48620 0.06700
C 	C 	0.07510 0.51150 0.48590 0.09100
C 	C 	0.22700 0.50310 0.36110 -0.07500
N 	N 	0.18910 0.46560 0.32290 0.18700
N 	N 	0.27140 0.46540 0.32600 -0.02500
C 	C 	0.27800 0.50350 0.36360 -0.03500
C 	C 	0.07010 0.58870 0.54740 -0.41500
H 	H 	0.10330 0.62550 0.55310 0.13800
H 	H 	0.06740 0.56370 0.57910 0.13100
H 	H 	0.03670 0.59240 0.54730 0.14200
C 	C 	0.97210 0.39280 0.32130 -0.17300
H 	H 	0.99170 0.43180 0.31370 0.07200
C 	C 	0.91280 0.27400 0.34580 -0.20500
H 	H 	0.89360 0.23520 0.35440 0.08200
C 	C 	0.91430 0.36250 0.32730 0.08800
C 	C 	0.88520 0.30430 0.33890 0.13100
C 	C 	0.05120 0.39030 0.16630 -0.26200
H 	H 	0.05410 0.35650 0.16950 0.14400
H 	H 	0.03210 0.38910 0.12990 0.07600
H 	H 	0.02980 0.39220 0.19940 0.13700
C 	C 	0.22510 0.45050 0.30370 1.02900
C 	C 	0.87600 0.38450 0.32340 -0.42900
H 	H 	0.89740 0.42500 0.31740 0.13000
H 	H 	0.85450 0.37630 0.35960 0.13000
H 	H 	0.85050 0.36700 0.29050 0.13100
C 	C 	0.19830 0.39620 0.25570 -5.47900
H 	H 	0.18360 0.36090 0.27720 4.96700
H 	H 	0.22770 0.40010 0.22900 1.63700
H 	H 	0.16800 0.39610 0.23330 1.70200
C 	C 	0.19000 0.42980 0.38950 0.16900
C 	C 	0.24050 0.43020 0.38950 -0.02600
C 	C 	0.25740 0.41350 0.43900 -0.98800
H 	H 	0.29180 0.41370 0.43900 0.37300
C 	C 	0.22370 0.39640 0.48840 0.54400
C 	C 	0.17340 0.39610 0.48850 0.69200
C 	C 	0.15640 0.41270 0.43900 -1.22800
H 	H 	0.12200 0.41250 0.43900 0.45200
C 	C 	0.17850 0.50990 0.16800 -0.36200
H 	H 	0.17510 0.54350 0.16560 0.12200
H 	H 	0.20020 0.50890 0.13470 0.13200
H 	H 	0.19740 0.51050 0.20430 0.14800
C 	C 	0.12590 0.46310 0.16700 0.13300
N 	N 	0.09660 0.43080 0.21650 -0.25200
C 	C 	0.05370 0.37810 0.19650 -0.14500
H 	H 	0.02770 0.34830 0.22040 0.02800
C 	C 	0.05630 0.37770 0.13470 -0.01500
H 	H 	0.03240 0.34760 0.10990 -0.00600
N 	N 	0.10100 0.43030 0.11640 -0.27000
N 	N 	0.18780 0.45230 0.33450 -0.62900
N 	N 	0.26880 0.45270 0.33200 -0.38500
C 	C 	0.82650 0.28420 0.33950 -0.48700
H 	H 	0.80620 0.24350 0.33530 0.14400
H 	H 	0.81700 0.30100 0.30710 0.14800
H 	H 	0.81620 0.29440 0.37650 0.15200
O 	O 	0.16740 0.33450 0.39730 -5.47300
C 	C 	0.14600 0.38200 0.53700 -0.19500
C 	C 	0.23100 0.38100 0.54000 -0.12400
C 	C 	0.15370 0.30700 0.51600 0.00700
C 	C 	0.18390 0.36810 0.42900 3.80900
N 	N 	0.18460 0.36850 0.48040 -1.51400
C 	C 	0.06960 0.48420 0.54770 -0.44200
H 	H 	0.03700 0.44660 0.54810 0.15100
H 	H 	0.06530 0.50710 0.57760 0.14100
H 	H 	0.10330 0.48200 0.55580 0.14700
Zn	Zn	0.00038 0.78552 0.63299 1.19400
Zn	Zn	0.78519 0.78551 0.63299 1.18800
N 	N 	0.77387 0.92743 0.66263 -0.29500
N 	N 	0.77427 0.84643 0.66343 -0.29900
C 	C 	0.77477 0.77383 0.49983 0.21000
N 	N 	0.80387 0.80453 0.55013 -0.25900
C 	C 	0.85247 0.85383 0.53133 -0.03800
H 	H 	0.87957 0.88203 0.55593 -0.04100
C 	C 	0.85337 0.85353 0.46943 -0.00700
H 	H 	0.88117 0.88153 0.44533 -0.04100
N 	N 	0.80537 0.80413 0.44993 -0.24900
C 	C 	0.77957 0.88943 0.63343 0.10100
H 	H 	0.78717 0.89293 0.59273 -0.06100
N 	N 	0.67567 0.62043 0.67623 -0.28000
N 	N 	0.72237 0.71283 0.65703 -0.27400
C 	C 	0.66637 0.69513 0.66063 0.04700
C 	C 	0.76327 0.85713 0.71913 0.06000
C 	C 	0.76247 0.90703 0.71803 0.05200
C 	C 	0.63707 0.63793 0.67263 0.07000
C 	C 	0.72417 0.66593 0.66683 0.03600
H 	H 	0.75817 0.66543 0.66703 0.05200
C 	C 	0.75257 0.92833 0.76943 -0.15000
H 	H 	0.75327 0.96303 0.76983 0.04500
C 	C 	0.75297 0.82503 0.76943 -0.16400
H 	H 	0.75367 0.79103 0.76903 0.04500
C 	C 	0.74157 0.89653 0.81953 0.06800
C 	C 	0.74177 0.84483 0.81923 0.09000
C 	C 	0.89367 0.83643 0.69443 -0.07500
N 	N 	0.85577 0.79893 0.65623 0.18700
N 	N 	0.93807 0.79873 0.65933 -0.02500
C 	C 	0.94467 0.83683 0.69693 -0.03600
C 	C 	0.73677 0.92203 0.88073 -0.41800
H 	H 	0.76997 0.95883 0.88643 0.14100
H 	H 	0.73407 0.89703 0.91243 0.13300
H 	H 	0.70337 0.92573 0.88063 0.14400
C 	C 	0.63877 0.72613 0.65463 -0.17200
H 	H 	0.65837 0.76513 0.64703 0.07100
C 	C 	0.57947 0.60733 0.67913 -0.20500
H 	H 	0.56027 0.56853 0.68773 0.08200
C 	C 	0.58097 0.69583 0.66063 0.08700
C 	C 	0.55187 0.63763 0.67223 0.13100
C 	C 	0.71787 0.72363 0.49963 -0.26300
H 	H 	0.72077 0.68983 0.50283 0.14500
H 	H 	0.69877 0.72243 0.46323 0.07600
H 	H 	0.69647 0.72553 0.53273 0.13800
C 	C 	0.89177 0.78383 0.63703 1.02900
C 	C 	0.54267 0.71783 0.65673 -0.42900
H 	H 	0.56407 0.75833 0.65073 0.12900
H 	H 	0.52117 0.70963 0.69293 0.13000
H 	H 	0.51717 0.70033 0.62383 0.13100
C 	C 	0.86497 0.72953 0.58903 -5.47900
H 	H 	0.85027 0.69423 0.61053 4.96700
H 	H 	0.89437 0.73343 0.56233 1.63700
H 	H 	0.83467 0.72943 0.56663 1.70200
C 	C 	0.85667 0.76313 0.72283 0.16900
C 	C 	0.90717 0.76353 0.72283 -0.02700
C 	C 	0.92407 0.74683 0.77233 -0.98800
H 	H 	0.95847 0.74703 0.77233 0.37200
C 	C 	0.89037 0.72973 0.82173 0.54400
C 	C 	0.84007 0.72943 0.82183 0.69200
C 	C 	0.82307 0.74603 0.77233 -1.22800
H 	H 	0.78867 0.74583 0.77233 0.45200
C 	C 	0.84517 0.84323 0.50133 -0.36300
H 	H 	0.84177 0.87683 0.49893 0.12200
H 	H 	0.86687 0.84223 0.46803 0.13200
H 	H 	0.86407 0.84383 0.53763 0.14900
C 	C 	0.79257 0.79643 0.50033 0.13300
N 	N 	0.76327 0.76413 0.54983 -0.25200
C 	C 	0.72037 0.71143 0.52983 -0.14600
H 	H 	0.69437 0.68163 0.55373 0.02900
C 	C 	0.72297 0.71103 0.46803 -0.01400
H 	H 	0.69907 0.68093 0.44323 -0.00600
N 	N 	0.76767 0.76363 0.44973 -0.27000
N 	N 	0.85447 0.78563 0.66783 -0.62900
N 	N 	0.93547 0.78603 0.66533 -0.38500
C 	C 	0.49317 0.61753 0.67283 -0.48700
H 	H 	0.47287 0.57683 0.66863 0.14400
H 	H 	0.48367 0.63433 0.64043 0.14800
H 	H 	0.48287 0.62773 0.70983 0.15200
O 	O 	0.83407 0.66783 0.73063 -5.47300
C 	C 	0.81267 0.71533 0.87033 -0.19500
C 	C 	0.89767 0.71433 0.87333 -0.12400
C 	C 	0.82037 0.64033 0.84933 0.00700
C 	C 	0.85057 0.70143 0.76233 3.80800
N 	N 	0.85127 0.70183 0.81373 -1.51400
C 	C 	0.73627 0.81753 0.88103 -0.44100
H 	H 	0.70367 0.77993 0.88143 0.15100
H 	H 	0.73197 0.84043 0.91093 0.14100
H 	H 	0.76997 0.81533 0.88913 0.14700
Zn	Zn	0.66704 0.11886 0.96633 1.19200
Zn	Zn	0.45185 0.11885 0.96633 1.18500
N 	N 	0.44053 0.26077 0.99597 -0.29700
N 	N 	0.44093 0.17977 0.99677 -0.30200
C 	C 	0.44143 0.10717 0.83317 0.21000
N 	N 	0.47053 0.13787 0.88347 -0.26100
C 	C 	0.51913 0.18717 0.86467 -0.03900
H 	H 	0.54623 0.21537 0.88927 -0.04200
C 	C 	0.52003 0.18687 0.80277 -0.00600
H 	H 	0.54783 0.21487 0.77867 -0.04100
N 	N 	0.47203 0.13747 0.78327 -0.24900
C 	C 	0.44623 0.22277 0.96677 0.10000
H 	H 	0.45383 0.22627 0.92607 -0.06100
N 	N 	0.34233 0.95377 0.00957 -0.28100
N 	N 	0.38903 0.04617 0.99037 -0.27400
C 	C 	0.33303 0.02847 0.99397 0.04800
C 	C 	0.42993 0.19047 0.05247 0.06300
C 	C 	0.42913 0.24037 0.05137 0.05200
C 	C 	0.30373 0.97127 0.00597 0.06800
C 	C 	0.39083 0.99927 0.00017 0.03300
H 	H 	0.42483 0.99877 0.00037 0.04900
C 	C 	0.41923 0.26167 0.10277 -0.14900
H 	H 	0.41993 0.29637 0.10317 0.04300
C 	C 	0.41963 0.15837 0.10277 -0.16600
H 	H 	0.42033 0.12437 0.10237 0.04700
C 	C 	0.40823 0.22987 0.15287 0.06600
C 	C 	0.40843 0.17817 0.15257 0.09200
C 	C 	0.56033 0.16977 0.02777 -0.08300
N 	N 	0.52243 0.13227 0.98957 0.28200
N 	N 	0.60473 0.13207 0.99267 -0.02500
C 	C 	0.61133 0.17017 0.03027 -0.02700
C 	C 	0.40343 0.25537 0.21407 -0.41500
H 	H 	0.43663 0.29217 0.21977 0.13800
H 	H 	0.40073 0.23037 0.24577 0.13100
H 	H 	0.37003 0.25907 0.21397 0.14200
C 	C 	0.30543 0.05947 0.98797 -0.17300
H 	H 	0.32503 0.09847 0.98037 0.07000
C 	C 	0.24613 0.94067 0.01247 -0.21200
H 	H 	0.22693 0.90187 0.02107 0.08300
C 	C 	0.24763 0.02917 0.99397 0.08500
C 	C 	0.21853 0.97097 0.00557 0.13900
C 	C 	0.38453 0.05697 0.83297 -0.26100
H 	H 	0.38743 0.02317 0.83617 0.14400
H 	H 	0.36543 0.05577 0.79657 0.07600
H 	H 	0.36313 0.05887 0.86607 0.13700
C 	C 	0.55843 0.11717 0.97037 1.00700
C 	C 	0.20933 0.05117 0.99007 -0.43200
H 	H 	0.23073 0.09167 0.98407 0.13000
H 	H 	0.18783 0.04297 0.02627 0.13200
H 	H 	0.18383 0.03367 0.95717 0.12900
C 	C 	0.53163 0.06287 0.92237 -5.35200
H 	H 	0.51693 0.02757 0.94387 4.84300
H 	H 	0.56103 0.06677 0.89567 1.59900
H 	H 	0.50133 0.06277 0.89997 1.66100
C 	C 	0.52333 0.09647 0.05617 0.20400
C 	C 	0.57383 0.09687 0.05617 -0.03300
C 	C 	0.59073 0.08017 0.10567 -0.96100
H 	H 	0.62513 0.08037 0.10567 0.36500
C 	C 	0.55703 0.06307 0.15507 0.52900
C 	C 	0.50673 0.06277 0.15517 0.69400
C 	C 	0.48973 0.07937 0.10567 -1.22700
H 	H 	0.45533 0.07917 0.10567 0.45200
C 	C 	0.51183 0.17657 0.83467 -0.36100
H 	H 	0.50843 0.21017 0.83227 0.12100
H 	H 	0.53353 0.17557 0.80137 0.13100
H 	H 	0.53073 0.17717 0.87097 0.14800
C 	C 	0.45923 0.12977 0.83367 0.13400
N 	N 	0.42993 0.09747 0.88317 -0.25200
C 	C 	0.38703 0.04477 0.86317 -0.14600
H 	H 	0.36103 0.01497 0.88707 0.02800
C 	C 	0.38963 0.04437 0.80137 -0.01400
H 	H 	0.36573 0.01427 0.77657 -0.00700
N 	N 	0.43433 0.09697 0.78307 -0.27000
N 	N 	0.52113 0.11897 0.00117 -0.72400
N 	N 	0.60213 0.11937 0.99867 -0.38400
C 	C 	0.15983 0.95087 0.00617 -0.53000
H 	H 	0.13953 0.91017 0.00197 0.15200
H 	H 	0.15033 0.96767 0.97377 0.16800
H 	H 	0.14953 0.96107 0.04317 0.16100
O 	O 	0.50073 0.00117 0.06397 -5.33500
C 	C 	0.47933 0.04867 0.20367 -0.19600
C 	C 	0.56433 0.04767 0.20667 -0.11900
C 	C 	0.48703 0.97367 0.18267 0.00400
C 	C 	0.51723 0.03477 0.09567 3.71900
N 	N 	0.51793 0.03517 0.14707 -1.48500
C 	C 	0.40293 0.15087 0.21437 -0.44300
H 	H 	0.37033 0.11327 0.21477 0.15200
H 	H 	0.39863 0.17377 0.24427 0.14100
H 	H 	0.43663 0.14867 0.22247 0.14700
Zn	Zn	0.45219 0.11848 0.70034 1.19300
Zn	Zn	0.45218 0.33366 0.70034 1.18800
N 	N 	0.59410 0.48690 0.67070 -0.29500
N 	N 	0.51310 0.40550 0.66990 -0.29900
C 	C 	0.44050 0.33240 0.83350 0.21000
N 	N 	0.47120 0.33400 0.78320 -0.25900
C 	C 	0.52050 0.33470 0.80200 -0.03700
H 	H 	0.54870 0.33580 0.77740 -0.04100
C 	C 	0.52020 0.33350 0.86390 -0.00800
H 	H 	0.54820 0.33370 0.88800 -0.04100
N 	N 	0.47080 0.33210 0.88340 -0.24900
C 	C 	0.55610 0.44320 0.69990 0.10100
H 	H 	0.55960 0.43910 0.74060 -0.06100
N 	N 	0.28710 0.27810 0.65710 -0.28000
N 	N 	0.37950 0.32380 0.67630 -0.27400
C 	C 	0.36180 0.36210 0.67270 0.04700
C 	C 	0.52380 0.42720 0.61420 0.06000
C 	C 	0.57370 0.47790 0.61530 0.05100
C 	C 	0.30460 0.33420 0.66070 0.07000
C 	C 	0.33260 0.27510 0.66650 0.03600
H 	H 	0.33210 0.24060 0.66630 0.05200
C 	C 	0.59500 0.50910 0.56390 -0.14900
H 	H 	0.62970 0.54310 0.56350 0.04300
C 	C 	0.49170 0.40540 0.56390 -0.16500
H 	H 	0.45770 0.37070 0.56430 0.04500
C 	C 	0.56320 0.48830 0.51380 0.06700
C 	C 	0.51150 0.43640 0.51410 0.09100
C 	C 	0.50310 0.27610 0.63890 -0.07500
N 	N 	0.46560 0.27650 0.67710 0.18700
N 	N 	0.46540 0.19400 0.67400 -0.02500
C 	C 	0.50350 0.22550 0.63640 -0.03500
C 	C 	0.58870 0.51860 0.45260 -0.41500
H 	H 	0.62550 0.52220 0.44690 0.13800
H 	H 	0.56370 0.49630 0.42090 0.13100
H 	H 	0.59240 0.55570 0.45270 0.14200
C 	C 	0.39280 0.42070 0.67870 -0.17200
H 	H 	0.43180 0.44010 0.68630 0.07100
C 	C 	0.27400 0.36120 0.65420 -0.20500
H 	H 	0.23520 0.34160 0.64560 0.08200
C 	C 	0.36250 0.44820 0.67270 0.08700
C 	C 	0.30430 0.41910 0.66110 0.13100
C 	C 	0.39030 0.33910 0.83370 -0.26300
H 	H 	0.35650 0.30240 0.83050 0.14500
H 	H 	0.38910 0.35700 0.87010 0.07600
H 	H 	0.39220 0.36240 0.80060 0.13800
C 	C 	0.45050 0.22540 0.69630 1.03000
C 	C 	0.38450 0.50850 0.67660 -0.42900
H 	H 	0.42500 0.52760 0.68260 0.12900
H 	H 	0.37630 0.52180 0.64040 0.13000
H 	H 	0.36700 0.51650 0.70950 0.13100
C 	C 	0.39620 0.19790 0.74430 -5.48600
H 	H 	0.36090 0.17730 0.72280 4.97400
H 	H 	0.40010 0.17240 0.77100 1.63900
H 	H 	0.39610 0.22810 0.76670 1.70400
C 	C 	0.42980 0.23980 0.61050 0.16800
C 	C 	0.43020 0.18970 0.61050 -0.02600
C 	C 	0.41350 0.15610 0.56100 -0.98900
H 	H 	0.41370 0.12190 0.56100 0.37300
C 	C 	0.39640 0.17270 0.51160 0.54500
C 	C 	0.39610 0.22270 0.51150 0.69300
C 	C 	0.41270 0.25630 0.56100 -1.22900
H 	H 	0.41250 0.29050 0.56100 0.45200
C 	C 	0.50990 0.33140 0.83200 -0.36300
H 	H 	0.54350 0.36840 0.83440 0.12200
H 	H 	0.50890 0.30870 0.86530 0.13200
H 	H 	0.51050 0.31310 0.79570 0.14900
C 	C 	0.46310 0.33720 0.83300 0.13400
N 	N 	0.43080 0.33420 0.78350 -0.25200
C 	C 	0.37810 0.32440 0.80350 -0.14600
H 	H 	0.34830 0.32060 0.77960 0.02900
C 	C 	0.37770 0.32140 0.86530 -0.01400
H 	H 	0.34760 0.31520 0.89010 -0.00600
N 	N 	0.43030 0.32930 0.88360 -0.27000
N 	N 	0.45230 0.26450 0.66550 -0.62900
N 	N 	0.45270 0.18390 0.66800 -0.38500
C 	C 	0.28420 0.45770 0.66050 -0.48700
H 	H 	0.24350 0.43730 0.66470 0.14400
H 	H 	0.30100 0.48400 0.69290 0.14800
H 	H 	0.29440 0.47820 0.62350 0.15200
O 	O 	0.33450 0.16710 0.60270 -5.48100
C 	C 	0.38200 0.23600 0.46300 -0.19500
C 	C 	0.38100 0.15000 0.46000 -0.12400
C 	C 	0.30700 0.15330 0.48400 0.00700
C 	C 	0.36810 0.18420 0.57100 3.81400
N 	N 	0.36850 0.18390 0.51960 -1.51600
C 	C 	0.48420 0.41460 0.45230 -0.44200
H 	H 	0.44660 0.40960 0.45190 0.15100
H 	H 	0.50710 0.44180 0.42240 0.14100
H 	H 	0.48200 0.37870 0.44420 0.14700
Zn	Zn	0.11886 0.45181 0.03367 1.19300
Zn	Zn	0.11885 0.66699 0.03367 1.18400
N 	N 	0.26077 0.82023 0.00403 -0.30000
N 	N 	0.17977 0.73883 0.00323 -0.30400
C 	C 	0.10717 0.66573 0.16683 0.21000
N 	N 	0.13787 0.66733 0.11653 -0.26100
C 	C 	0.18717 0.66803 0.13533 -0.03900
H 	H 	0.21537 0.66913 0.11073 -0.04300
C 	C 	0.18687 0.66683 0.19723 -0.00500
H 	H 	0.21487 0.66703 0.22133 -0.04100
N 	N 	0.13747 0.66543 0.21673 -0.24900
C 	C 	0.22277 0.77653 0.03323 0.09900
H 	H 	0.22627 0.77243 0.07393 -0.06100
N 	N 	0.95377 0.61143 0.99043 -0.28200
N 	N 	0.04617 0.65713 0.00963 -0.27600
C 	C 	0.02847 0.69543 0.00603 0.04400
C 	C 	0.19047 0.76053 0.94753 0.06600
C 	C 	0.24037 0.81123 0.94863 0.05700
C 	C 	0.97127 0.66753 0.99403 0.07200
C 	C 	0.99927 0.60843 0.99983 0.03800
H 	H 	0.99877 0.57393 0.99963 0.04800
C 	C 	0.26167 0.84243 0.89723 -0.15100
H 	H 	0.29637 0.87643 0.89683 0.04600
C 	C 	0.15837 0.73873 0.89723 -0.16700
H 	H 	0.12437 0.70403 0.89763 0.04700
C 	C 	0.22987 0.82163 0.84713 0.06800
C 	C 	0.17817 0.76973 0.84743 0.09100
C 	C 	0.16977 0.60943 0.97223 -0.08400
N 	N 	0.13227 0.60983 0.01043 0.29900
N 	N 	0.13207 0.52733 0.00733 -0.02400
C 	C 	0.17017 0.55883 0.96973 -0.02800
C 	C 	0.25537 0.85193 0.78593 -0.41600
H 	H 	0.29217 0.85553 0.78023 0.13900
H 	H 	0.23037 0.82963 0.75423 0.13100
H 	H 	0.25907 0.88903 0.78603 0.14300
C 	C 	0.05947 0.75403 0.01203 -0.17700
H 	H 	0.09847 0.77343 0.01963 0.07100
C 	C 	0.94067 0.69453 0.98753 -0.20700
H 	H 	0.90187 0.67493 0.97893 0.08200
C 	C 	0.02917 0.78153 0.00603 0.09200
C 	C 	0.97097 0.75243 0.99443 0.13200
C 	C 	0.05697 0.67243 0.16703 -0.26100
H 	H 	0.02317 0.63573 0.16383 0.14400
H 	H 	0.05577 0.69033 0.20343 0.07600
H 	H 	0.05887 0.69573 0.13393 0.13700
C 	C 	0.11717 0.55873 0.02963 1.00600
C 	C 	0.05117 0.84183 0.00993 -0.46800
H 	H 	0.09167 0.86093 0.01593 0.13700
H 	H 	0.04297 0.85513 0.97373 0.14900
H 	H 	0.03367 0.84983 0.04283 0.13800
C 	C 	0.06287 0.53123 0.07763 -5.33900
H 	H 	0.02757 0.51063 0.05613 4.83100
H 	H 	0.06677 0.50573 0.10433 1.59500
H 	H 	0.06277 0.56143 0.10003 1.65700
C 	C 	0.09647 0.57313 0.94383 0.21000
C 	C 	0.09687 0.52303 0.94383 -0.03600
C 	C 	0.08017 0.48943 0.89433 -0.95700
H 	H 	0.08037 0.45523 0.89433 0.36300
C 	C 	0.06307 0.50603 0.84493 0.52700
C 	C 	0.06277 0.55603 0.84483 0.69500
C 	C 	0.07937 0.58963 0.89433 -1.22900
H 	H 	0.07917 0.62383 0.89433 0.45300
C 	C 	0.17657 0.66473 0.16533 -0.36100
H 	H 	0.21017 0.70173 0.16773 0.12100
H 	H 	0.17557 0.64203 0.19863 0.13000
H 	H 	0.17717 0.64643 0.12903 0.14800
C 	C 	0.12977 0.67053 0.16633 0.13400
N 	N 	0.09747 0.66753 0.11683 -0.25200
C 	C 	0.04477 0.65773 0.13683 -0.14500
H 	H 	0.01497 0.65393 0.11293 0.02800
C 	C 	0.04437 0.65473 0.19863 -0.01500
H 	H 	0.01427 0.64853 0.22343 -0.00700
N 	N 	0.09697 0.66263 0.21693 -0.27000
N 	N 	0.11897 0.59783 0.99883 -0.74200
N 	N 	0.11937 0.51723 0.00133 -0.38400
C 	C 	0.95087 0.79103 0.99383 -0.49400
H 	H 	0.91017 0.77063 0.99803 0.14500
H 	H 	0.96767 0.81733 0.02623 0.15200
H 	H 	0.96107 0.81153 0.95683 0.15200
O 	O 	0.00117 0.50043 0.93603 -5.32200
C 	C 	0.04867 0.56933 0.79633 -0.19600
C 	C 	0.04767 0.48333 0.79333 -0.11800
C 	C 	0.97367 0.48663 0.81733 0.00400
C 	C 	0.03477 0.51753 0.90433 3.71000
N 	N 	0.03517 0.51723 0.85293 -1.48300
C 	C 	0.15087 0.74793 0.78563 -0.44300
H 	H 	0.11327 0.74293 0.78523 0.15100
H 	H 	0.17377 0.77513 0.75573 0.14100
H 	H 	0.14867 0.71203 0.77753 0.14700
Zn	Zn	0.78552 0.78515 0.36701 1.19300
Zn	Zn	0.78551 0.00033 0.36701 1.18800
N 	N 	0.92743 0.15357 0.33737 -0.29500
N 	N 	0.84643 0.07217 0.33657 -0.29800
C 	C 	0.77383 0.99907 0.50017 0.21000
N 	N 	0.80453 0.00067 0.44987 -0.25900
C 	C 	0.85383 0.00137 0.46867 -0.04000
H 	H 	0.88203 0.00247 0.44407 -0.04000
C 	C 	0.85353 0.00017 0.53057 -0.00500
H 	H 	0.88153 0.00037 0.55467 -0.04200
N 	N 	0.80413 0.99877 0.55007 -0.24900
C 	C 	0.88943 0.10987 0.36657 0.10100
H 	H 	0.89293 0.10577 0.40727 -0.06100
N 	N 	0.62043 0.94477 0.32377 -0.28200
N 	N 	0.71283 0.99047 0.34297 -0.27500
C 	C 	0.69513 0.02877 0.33937 0.04800
C 	C 	0.85713 0.09387 0.28087 0.06100
C 	C 	0.90703 0.14457 0.28197 0.05200
C 	C 	0.63793 0.00087 0.32737 0.07200
C 	C 	0.66593 0.94177 0.33317 0.03600
H 	H 	0.66543 0.90727 0.33297 0.05200
C 	C 	0.92833 0.17577 0.23057 -0.14900
H 	H 	0.96303 0.20977 0.23017 0.04400
C 	C 	0.82503 0.07207 0.23057 -0.16600
H 	H 	0.79103 0.03737 0.23097 0.04700
C 	C 	0.89653 0.15497 0.18047 0.06800
C 	C 	0.84483 0.10307 0.18077 0.09300
C 	C 	0.83643 0.94277 0.30557 -0.07600
N 	N 	0.79893 0.94317 0.34377 0.18800
N 	N 	0.79873 0.86067 0.34067 -0.02500
C 	C 	0.83683 0.89217 0.30307 -0.03500
C 	C 	0.92203 0.18527 0.11927 -0.42000
H 	H 	0.95883 0.18887 0.11357 0.14200
H 	H 	0.89703 0.16297 0.08757 0.13400
H 	H 	0.92573 0.22237 0.11937 0.14500
C 	C 	0.72613 0.08737 0.34537 -0.17300
H 	H 	0.76513 0.10677 0.35297 0.07100
C 	C 	0.60733 0.02787 0.32087 -0.20600
H 	H 	0.56853 0.00827 0.31227 0.08300
C 	C 	0.69583 0.11487 0.33937 0.08700
C 	C 	0.63763 0.08577 0.32777 0.13100
C 	C 	0.72363 0.00577 0.50037 -0.26300
H 	H 	0.68983 0.96907 0.49717 0.14500
H 	H 	0.72243 0.02367 0.53677 0.07500
H 	H 	0.72553 0.02907 0.46727 0.13900
C 	C 	0.78383 0.89207 0.36297 1.03000
C 	C 	0.71783 0.17517 0.34327 -0.42900
H 	H 	0.75833 0.19427 0.34927 0.12900
H 	H 	0.70963 0.18847 0.30707 0.13000
H 	H 	0.70033 0.18317 0.37617 0.13100
C 	C 	0.72953 0.86457 0.41097 -5.48700
H 	H 	0.69423 0.84397 0.38947 4.97400
H 	H 	0.73343 0.83907 0.43767 1.63900
H 	H 	0.72943 0.89477 0.43337 1.70400
C 	C 	0.76313 0.90647 0.27717 0.16900
C 	C 	0.76353 0.85637 0.27717 -0.02600
C 	C 	0.74683 0.82277 0.22767 -0.98900
H 	H 	0.74703 0.78857 0.22767 0.37300
C 	C 	0.72973 0.83937 0.17827 0.54400
C 	C 	0.72943 0.88937 0.17817 0.69300
C 	C 	0.74603 0.92297 0.22767 -1.23000
H 	H 	0.74583 0.95717 0.22767 0.45100
C 	C 	0.84323 0.99807 0.49867 -0.36400
H 	H 	0.87683 0.03507 0.50107 0.12200
H 	H 	0.84223 0.97537 0.53197 0.13100
H 	H 	0.84383 0.97977 0.46237 0.15000
C 	C 	0.79643 0.00387 0.49967 0.13300
N 	N 	0.76413 0.00087 0.45017 -0.25100
C 	C 	0.71143 0.99107 0.47017 -0.14900
H 	H 	0.68163 0.98727 0.44627 0.02900
C 	C 	0.71103 0.98807 0.53197 -0.01100
H 	H 	0.68093 0.98187 0.55677 -0.00700
N 	N 	0.76363 0.99597 0.55027 -0.27000
N 	N 	0.78563 0.93117 0.33217 -0.63100
N 	N 	0.78603 0.85057 0.33467 -0.38500
C 	C 	0.61753 0.12437 0.32717 -0.48800
H 	H 	0.57683 0.10397 0.33137 0.14400
H 	H 	0.63433 0.15067 0.35957 0.14800
H 	H 	0.62773 0.14487 0.29017 0.15200
O 	O 	0.66783 0.83377 0.26937 -5.48000
C 	C 	0.71533 0.90267 0.12967 -0.19600
C 	C 	0.71433 0.81667 0.12667 -0.12400
C 	C 	0.64033 0.81997 0.15067 0.00700
C 	C 	0.70143 0.85087 0.23767 3.81300
N 	N 	0.70183 0.85057 0.18627 -1.51600
C 	C 	0.81753 0.08127 0.11897 -0.44700
H 	H 	0.77993 0.07627 0.11857 0.15400
H 	H 	0.84043 0.10847 0.08907 0.14400
H 	H 	0.81533 0.04537 0.11087 0.15000
Zn	Zn	0.88152 0.33371 0.70034 1.19300
Zn	Zn	0.66634 0.11852 0.70034 1.18800
N 	N 	0.51310 0.10720 0.67070 -0.29600
N 	N 	0.59450 0.10760 0.66990 -0.29900
C 	C 	0.66760 0.10810 0.83350 0.21100
N 	N 	0.66600 0.13720 0.78320 -0.25900
C 	C 	0.66530 0.18580 0.80200 -0.03700
H 	H 	0.66420 0.21290 0.77740 -0.04100
C 	C 	0.66650 0.18670 0.86390 -0.00800
H 	H 	0.66630 0.21450 0.88800 -0.04100
N 	N 	0.66790 0.13870 0.88340 -0.24900
C 	C 	0.55680 0.11290 0.69990 0.10000
H 	H 	0.56090 0.12050 0.74060 -0.06100
N 	N 	0.72190 0.00900 0.65710 -0.28200
N 	N 	0.67620 0.05570 0.67630 -0.27500
C 	C 	0.63790 0.99970 0.67270 0.04900
C 	C 	0.57280 0.09660 0.61420 0.06000
C 	C 	0.52210 0.09580 0.61530 0.05100
C 	C 	0.66580 0.97040 0.66070 0.07100
C 	C 	0.72490 0.05750 0.66650 0.03600
H 	H 	0.75940 0.09150 0.66630 0.05200
C 	C 	0.49090 0.08590 0.56390 -0.14900
H 	H 	0.45690 0.08660 0.56350 0.04300
C 	C 	0.59460 0.08630 0.56390 -0.16500
H 	H 	0.62930 0.08700 0.56430 0.04500
C 	C 	0.51170 0.07490 0.51380 0.06700
C 	C 	0.56360 0.07510 0.51410 0.09100
C 	C 	0.72390 0.22700 0.63890 -0.07500
N 	N 	0.72350 0.18910 0.67710 0.18800
N 	N 	0.80600 0.27140 0.67400 -0.02600
C 	C 	0.77450 0.27800 0.63640 -0.03500
C 	C 	0.48140 0.07010 0.45260 -0.41500
H 	H 	0.47780 0.10330 0.44690 0.13800
H 	H 	0.50370 0.06740 0.42090 0.13100
H 	H 	0.44430 0.03670 0.45270 0.14200
C 	C 	0.57930 0.97210 0.67870 -0.17300
H 	H 	0.55990 0.99170 0.68630 0.07200
C 	C 	0.63880 0.91280 0.65420 -0.20500
H 	H 	0.65840 0.89360 0.64560 0.08200
C 	C 	0.55180 0.91430 0.67270 0.08700
C 	C 	0.58090 0.88520 0.66110 0.13100
C 	C 	0.66090 0.05120 0.83370 -0.26100
H 	H 	0.69760 0.05410 0.83050 0.14400
H 	H 	0.64300 0.03210 0.87010 0.07600
H 	H 	0.63760 0.02980 0.80060 0.13700
C 	C 	0.77460 0.22510 0.69630 1.02400
C 	C 	0.49150 0.87600 0.67660 -0.42900
H 	H 	0.47240 0.89740 0.68260 0.12900
H 	H 	0.47820 0.85450 0.64040 0.13000
H 	H 	0.48350 0.85050 0.70950 0.13100
C 	C 	0.80210 0.19830 0.74430 -5.45200
H 	H 	0.82270 0.18360 0.72280 4.94000
H 	H 	0.82760 0.22770 0.77100 1.62900
H 	H 	0.77190 0.16800 0.76670 1.69400
C 	C 	0.76020 0.19000 0.61050 0.16900
C 	C 	0.81030 0.24050 0.61050 -0.02600
C 	C 	0.84390 0.25740 0.56100 -0.98400
H 	H 	0.87810 0.29180 0.56100 0.37100
C 	C 	0.82730 0.22370 0.51160 0.54200
C 	C 	0.77730 0.17340 0.51150 0.69100
C 	C 	0.74370 0.15640 0.56100 -1.22400
H 	H 	0.70950 0.12200 0.56100 0.45000
C 	C 	0.66860 0.17850 0.83200 -0.36200
H 	H 	0.63160 0.17510 0.83440 0.12200
H 	H 	0.69130 0.20020 0.86530 0.13200
H 	H 	0.68690 0.19740 0.79570 0.14800
C 	C 	0.66280 0.12590 0.83300 0.13300
N 	N 	0.66580 0.09660 0.78350 -0.25200
C 	C 	0.67560 0.05370 0.80350 -0.14500
H 	H 	0.67940 0.02770 0.77960 0.02800
C 	C 	0.67860 0.05630 0.86530 -0.01500
H 	H 	0.68480 0.03240 0.89010 -0.00700
N 	N 	0.67070 0.10100 0.88360 -0.27000
N 	N 	0.73550 0.18780 0.66550 -0.62900
N 	N 	0.81610 0.26880 0.66800 -0.38300
C 	C 	0.54230 0.82650 0.66050 -0.48700
H 	H 	0.56270 0.80620 0.66470 0.14400
H 	H 	0.51600 0.81700 0.69290 0.14800
H 	H 	0.52180 0.81620 0.62350 0.15200
O 	O 	0.83290 0.16740 0.60270 -5.44400
C 	C 	0.76400 0.14600 0.46300 -0.19500
C 	C 	0.85000 0.23100 0.46000 -0.12400
C 	C 	0.84670 0.15370 0.48400 0.00700
C 	C 	0.81580 0.18390 0.57100 3.78900
N 	N 	0.81610 0.18460 0.51960 -1.50800
C 	C 	0.58540 0.06960 0.45230 -0.44200
H 	H 	0.59040 0.03700 0.45190 0.15100
H 	H 	0.55820 0.06530 0.42240 0.14100
H 	H 	0.62130 0.10330 0.44420 0.14700
Zn	Zn	0.54819 0.66704 0.03367 1.19300
Zn	Zn	0.33301 0.45185 0.03367 1.18700
N 	N 	0.17977 0.44053 0.00403 -0.29800
N 	N 	0.26117 0.44093 0.00323 -0.30000
C 	C 	0.33427 0.44143 0.16683 0.21000
N 	N 	0.33267 0.47053 0.11653 -0.26000
C 	C 	0.33197 0.51913 0.13533 -0.03800
H 	H 	0.33087 0.54623 0.11073 -0.04200
C 	C 	0.33317 0.52003 0.19723 -0.00700
H 	H 	0.33297 0.54783 0.22133 -0.04100
N 	N 	0.33457 0.47203 0.21673 -0.24900
C 	C 	0.22347 0.44623 0.03323 0.10000
H 	H 	0.22757 0.45383 0.07393 -0.06100
N 	N 	0.38857 0.34233 0.99043 -0.28100
N 	N 	0.34287 0.38903 0.00963 -0.27400
C 	C 	0.30457 0.33303 0.00603 0.04700
C 	C 	0.23947 0.42993 0.94753 0.06100
C 	C 	0.18877 0.42913 0.94863 0.05500
C 	C 	0.33247 0.30373 0.99403 0.07000
C 	C 	0.39157 0.39083 0.99983 0.03700
H 	H 	0.42607 0.42483 0.99963 0.05300
C 	C 	0.15757 0.41923 0.89723 -0.15100
H 	H 	0.12357 0.41993 0.89683 0.04500
C 	C 	0.26127 0.41963 0.89723 -0.16500
H 	H 	0.29597 0.42033 0.89763 0.04500
C 	C 	0.17837 0.40823 0.84713 0.06800
C 	C 	0.23027 0.40843 0.84743 0.09000
C 	C 	0.39057 0.56033 0.97223 -0.07700
N 	N 	0.39017 0.52243 0.01043 0.21400
N 	N 	0.47267 0.60473 0.00733 -0.02300
C 	C 	0.44117 0.61133 0.96973 -0.03300
C 	C 	0.14807 0.40343 0.78593 -0.41600
H 	H 	0.14447 0.43663 0.78023 0.13900
H 	H 	0.17037 0.40073 0.75423 0.13200
H 	H 	0.11097 0.37003 0.78603 0.14300
C 	C 	0.24597 0.30543 0.01203 -0.17300
H 	H 	0.22657 0.32503 0.01963 0.07100
C 	C 	0.30547 0.24613 0.98753 -0.20500
H 	H 	0.32507 0.22693 0.97893 0.08200
C 	C 	0.21847 0.24763 0.00603 0.08800
C 	C 	0.24757 0.21853 0.99443 0.13100
C 	C 	0.32757 0.38453 0.16703 -0.26300
H 	H 	0.36427 0.38743 0.16383 0.14500
H 	H 	0.30967 0.36543 0.20343 0.07600
H 	H 	0.30427 0.36313 0.13393 0.13800
C 	C 	0.44127 0.55843 0.02963 1.03300
C 	C 	0.15817 0.20933 0.00993 -0.43100
H 	H 	0.13907 0.23073 0.01593 0.12900
H 	H 	0.14487 0.18783 0.97373 0.13100
H 	H 	0.15017 0.18383 0.04283 0.13100
C 	C 	0.46877 0.53163 0.07763 -5.50200
H 	H 	0.48937 0.51693 0.05613 4.99000
H 	H 	0.49427 0.56103 0.10433 1.64400
H 	H 	0.43857 0.50133 0.10003 1.70900
C 	C 	0.42687 0.52333 0.94383 0.17800
C 	C 	0.47697 0.57383 0.94383 -0.02900
C 	C 	0.51057 0.59073 0.89433 -0.99000
H 	H 	0.54477 0.62513 0.89433 0.37400
C 	C 	0.49397 0.55703 0.84493 0.54400
C 	C 	0.44397 0.50673 0.84483 0.69800
C 	C 	0.41037 0.48973 0.89433 -1.23900
H 	H 	0.37617 0.45533 0.89433 0.45600
C 	C 	0.33527 0.51183 0.16533 -0.36300
H 	H 	0.29827 0.50843 0.16773 0.12200
H 	H 	0.35797 0.53353 0.19863 0.13200
H 	H 	0.35357 0.53073 0.12903 0.14900
C 	C 	0.32947 0.45923 0.16633 0.13400
N 	N 	0.33247 0.42993 0.11683 -0.25200
C 	C 	0.34227 0.38703 0.13683 -0.14600
H 	H 	0.34607 0.36103 0.11293 0.02900
C 	C 	0.34527 0.38963 0.19863 -0.01300
H 	H 	0.35147 0.36573 0.22343 -0.00600
N 	N 	0.33737 0.43433 0.21693 -0.27000
N 	N 	0.40217 0.52113 0.99883 -0.65800
N 	N 	0.48277 0.60213 0.00133 -0.38800
C 	C 	0.20897 0.15983 0.99383 -0.48900
H 	H 	0.22937 0.13953 0.99803 0.14400
H 	H 	0.18267 0.15033 0.02623 0.14800
H 	H 	0.18847 0.14953 0.95683 0.15200
O 	O 	0.49957 0.50073 0.93603 -5.49800
C 	C 	0.43067 0.47933 0.79633 -0.19700
C 	C 	0.51667 0.56433 0.79333 -0.12300
C 	C 	0.51337 0.48703 0.81733 0.00700
C 	C 	0.48247 0.51723 0.90433 3.82500
N 	N 	0.48277 0.51793 0.85293 -1.52000
C 	C 	0.25207 0.40293 0.78563 -0.44100
H 	H 	0.25707 0.37033 0.78523 0.15100
H 	H 	0.22487 0.39863 0.75573 0.14000
H 	H 	0.28797 0.43663 0.77753 0.14700
Zn	Zn	0.21485 0.00038 0.36701 1.19400
Zn	Zn	0.99967 0.78519 0.36701 1.18800
N 	N 	0.84643 0.77387 0.33737 -0.29500
N 	N 	0.92783 0.77427 0.33657 -0.29900
C 	C 	0.00093 0.77477 0.50017 0.21000
N 	N 	0.99933 0.80387 0.44987 -0.25900
C 	C 	0.99863 0.85247 0.46867 -0.04000
H 	H 	0.99753 0.87957 0.44407 -0.04000
C 	C 	0.99983 0.85337 0.53057 -0.00500
H 	H 	0.99963 0.88117 0.55467 -0.04100
N 	N 	0.00123 0.80537 0.55007 -0.24900
C 	C 	0.89013 0.77957 0.36657 0.10100
H 	H 	0.89423 0.78717 0.40727 -0.06100
N 	N 	0.05523 0.67567 0.32377 -0.28200
N 	N 	0.00953 0.72237 0.34297 -0.27500
C 	C 	0.97123 0.66637 0.33937 0.04800
C 	C 	0.90613 0.76327 0.28087 0.06100
C 	C 	0.85543 0.76247 0.28197 0.05100
C 	C 	0.99913 0.63707 0.32737 0.07200
C 	C 	0.05823 0.72417 0.33317 0.03600
H 	H 	0.09273 0.75817 0.33297 0.05200
C 	C 	0.82423 0.75257 0.23057 -0.14800
H 	H 	0.79023 0.75327 0.23017 0.04300
C 	C 	0.92793 0.75297 0.23057 -0.16600
H 	H 	0.96263 0.75367 0.23097 0.04700
C 	C 	0.84503 0.74157 0.18047 0.06600
C 	C 	0.89693 0.74177 0.18077 0.09300
C 	C 	0.05723 0.89367 0.30557 -0.07700
N 	N 	0.05683 0.85577 0.34377 0.19000
N 	N 	0.13933 0.93807 0.34067 -0.02600
C 	C 	0.10783 0.94467 0.30307 -0.03700
C 	C 	0.81473 0.73677 0.11927 -0.41500
H 	H 	0.81113 0.76997 0.11357 0.13800
H 	H 	0.83703 0.73407 0.08757 0.13100
H 	H 	0.77763 0.70337 0.11937 0.14200
C 	C 	0.91263 0.63877 0.34537 -0.17300
H 	H 	0.89323 0.65837 0.35297 0.07100
C 	C 	0.97213 0.57947 0.32087 -0.20600
H 	H 	0.99173 0.56027 0.31227 0.08300
C 	C 	0.88513 0.58097 0.33937 0.08700
C 	C 	0.91423 0.55187 0.32777 0.13100
C 	C 	0.99423 0.71787 0.50037 -0.26400
H 	H 	0.03093 0.72077 0.49717 0.14500
H 	H 	0.97633 0.69877 0.53677 0.07500
H 	H 	0.97093 0.69647 0.46727 0.13900
C 	C 	0.10793 0.89177 0.36297 1.02500
C 	C 	0.82483 0.54267 0.34327 -0.42900
H 	H 	0.80573 0.56407 0.34927 0.12900
H 	H 	0.81153 0.52117 0.30707 0.13000
H 	H 	0.81683 0.51717 0.37617 0.13100
C 	C 	0.13543 0.86497 0.41097 -5.45200
H 	H 	0.15603 0.85027 0.38947 4.94000
H 	H 	0.16093 0.89437 0.43767 1.62900
H 	H 	0.10523 0.83467 0.43337 1.69400
C 	C 	0.09353 0.85667 0.27717 0.16900
C 	C 	0.14363 0.90717 0.27717 -0.02700
C 	C 	0.17723 0.92407 0.22767 -0.98400
H 	H 	0.21143 0.95847 0.22767 0.37000
C 	C 	0.16063 0.89037 0.17827 0.54100
C 	C 	0.11063 0.84007 0.17817 0.69000
C 	C 	0.07703 0.82307 0.22767 -1.22400
H 	H 	0.04283 0.78867 0.22767 0.44900
C 	C 	0.00193 0.84517 0.49867 -0.36300
H 	H 	0.96493 0.84177 0.50107 0.12200
H 	H 	0.02463 0.86687 0.53197 0.13100
H 	H 	0.02023 0.86407 0.46237 0.15000
C 	C 	0.99613 0.79257 0.49967 0.13300
N 	N 	0.99913 0.76327 0.45017 -0.25100
C 	C 	0.00893 0.72037 0.47017 -0.14800
H 	H 	0.01273 0.69437 0.44627 0.02900
C 	C 	0.01193 0.72297 0.53197 -0.01000
H 	H 	0.01813 0.69907 0.55677 -0.00700
N 	N 	0.00403 0.76767 0.55027 -0.27000
N 	N 	0.06883 0.85447 0.33217 -0.63200
N 	N 	0.14943 0.93547 0.33467 -0.38300
C 	C 	0.87563 0.49317 0.32717 -0.48800
H 	H 	0.89603 0.47287 0.33137 0.14400
H 	H 	0.84933 0.48367 0.35957 0.14800
H 	H 	0.85513 0.48287 0.29017 0.15200
O 	O 	0.16623 0.83407 0.26937 -5.44300
C 	C 	0.09733 0.81267 0.12967 -0.19600
C 	C 	0.18333 0.89767 0.12667 -0.12500
C 	C 	0.18003 0.82037 0.15067 0.00700
C 	C 	0.14913 0.85057 0.23767 3.78900
N 	N 	0.14943 0.85127 0.18627 -1.50800
C 	C 	0.91873 0.73627 0.11897 -0.44500
H 	H 	0.92373 0.70367 0.11857 0.15300
H 	H 	0.89153 0.73197 0.08907 0.14200
H 	H 	0.95463 0.76997 0.11087 0.14900
Zn	Zn	0.66629 0.54781 0.70034 1.19300
Zn	Zn	0.88148 0.54782 0.70034 1.18800
N 	N 	0.89280 0.40590 0.67070 -0.29600
N 	N 	0.89240 0.48690 0.66990 -0.29900
C 	C 	0.89190 0.55950 0.83350 0.21100
N 	N 	0.86280 0.52880 0.78320 -0.25900
C 	C 	0.81420 0.47950 0.80200 -0.03700
H 	H 	0.78710 0.45130 0.77740 -0.04100
C 	C 	0.81330 0.47980 0.86390 -0.00800
H 	H 	0.78550 0.45180 0.88800 -0.04100
N 	N 	0.86130 0.52920 0.88340 -0.24900
C 	C 	0.88710 0.44390 0.69990 0.10000
H 	H 	0.87950 0.44040 0.74060 -0.06100
N 	N 	0.99100 0.71290 0.65710 -0.28200
N 	N 	0.94430 0.62050 0.67630 -0.27500
C 	C 	0.00030 0.63820 0.67270 0.04900
C 	C 	0.90340 0.47620 0.61420 0.06000
C 	C 	0.90420 0.42630 0.61530 0.05100
C 	C 	0.02960 0.69540 0.66070 0.07100
C 	C 	0.94250 0.66740 0.66650 0.03600
H 	H 	0.90850 0.66790 0.66630 0.05200
C 	C 	0.91410 0.40500 0.56390 -0.14900
H 	H 	0.91340 0.37030 0.56350 0.04300
C 	C 	0.91370 0.50830 0.56390 -0.16500
H 	H 	0.91300 0.54230 0.56430 0.04500
C 	C 	0.92510 0.43680 0.51380 0.06700
C 	C 	0.92490 0.48850 0.51410 0.09100
C 	C 	0.77300 0.49690 0.63890 -0.07500
N 	N 	0.81090 0.53440 0.67710 0.18700
N 	N 	0.72860 0.53460 0.67400 -0.02500
C 	C 	0.72200 0.49650 0.63640 -0.03500
C 	C 	0.92990 0.41130 0.45260 -0.41500
H 	H 	0.89670 0.37450 0.44690 0.13800
H 	H 	0.93260 0.43630 0.42090 0.13100
H 	H 	0.96330 0.40760 0.45270 0.14200
C 	C 	0.02790 0.60720 0.67870 -0.17300
H 	H 	0.00830 0.56820 0.68630 0.07200
C 	C 	0.08720 0.72600 0.65420 -0.20500
H 	H 	0.10640 0.76480 0.64560 0.08200
C 	C 	0.08570 0.63750 0.67270 0.08800
C 	C 	0.11480 0.69570 0.66110 0.13100
C 	C 	0.94880 0.60970 0.83370 -0.26200
H 	H 	0.94590 0.64350 0.83050 0.14400
H 	H 	0.96790 0.61090 0.87010 0.07600
H 	H 	0.97020 0.60780 0.80060 0.13700
C 	C 	0.77490 0.54950 0.69630 1.02900
C 	C 	0.12400 0.61550 0.67660 -0.42900
H 	H 	0.10260 0.57500 0.68260 0.13000
H 	H 	0.14550 0.62370 0.64040 0.13000
H 	H 	0.14950 0.63300 0.70950 0.13100
C 	C 	0.80170 0.60380 0.74430 -5.47900
H 	H 	0.81640 0.63910 0.72280 4.96700
H 	H 	0.77230 0.59990 0.77100 1.63700
H 	H 	0.83200 0.60390 0.76670 1.70200
C 	C 	0.81000 0.57020 0.61050 0.16900
C 	C 	0.75950 0.56980 0.61050 -0.02600
C 	C 	0.74260 0.58650 0.56100 -0.98800
H 	H 	0.70820 0.58630 0.56100 0.37300
C 	C 	0.77630 0.60360 0.51160 0.54400
C 	C 	0.82660 0.60390 0.51150 0.69200
C 	C 	0.84360 0.58730 0.56100 -1.22800
H 	H 	0.87800 0.58750 0.56100 0.45200
C 	C 	0.82150 0.49010 0.83200 -0.36200
H 	H 	0.82490 0.45650 0.83440 0.12200
H 	H 	0.79980 0.49110 0.86530 0.13200
H 	H 	0.80260 0.48950 0.79570 0.14800
C 	C 	0.87410 0.53690 0.83300 0.13300
N 	N 	0.90340 0.56920 0.78350 -0.25200
C 	C 	0.94630 0.62190 0.80350 -0.14500
H 	H 	0.97230 0.65170 0.77960 0.02800
C 	C 	0.94370 0.62230 0.86530 -0.01500
H 	H 	0.96760 0.65240 0.89010 -0.00600
N 	N 	0.89900 0.56970 0.88360 -0.27000
N 	N 	0.81220 0.54770 0.66550 -0.62900
N 	N 	0.73120 0.54730 0.66800 -0.38500
C 	C 	0.17350 0.71580 0.66050 -0.48700
H 	H 	0.19380 0.75650 0.66470 0.14400
H 	H 	0.18300 0.69900 0.69290 0.14800
H 	H 	0.18380 0.70560 0.62350 0.15200
O 	O 	0.83260 0.66550 0.60270 -5.47300
C 	C 	0.85400 0.61800 0.46300 -0.19500
C 	C 	0.76900 0.61900 0.46000 -0.12400
C 	C 	0.84630 0.69300 0.48400 0.00700
C 	C 	0.81610 0.63190 0.57100 3.80900
N 	N 	0.81540 0.63150 0.51960 -1.51400
C 	C 	0.93040 0.51580 0.45230 -0.44200
H 	H 	0.96300 0.55340 0.45190 0.15100
H 	H 	0.93470 0.49290 0.42240 0.14100
H 	H 	0.89670 0.51800 0.44420 0.14700
Zn	Zn	0.33296 0.88114 0.03367 1.19200
Zn	Zn	0.54815 0.88115 0.03367 1.18500
N 	N 	0.55947 0.73923 0.00403 -0.29700
N 	N 	0.55907 0.82023 0.00323 -0.30200
C 	C 	0.55857 0.89283 0.16683 0.21000
N 	N 	0.52947 0.86213 0.11653 -0.26100
C 	C 	0.48087 0.81283 0.13533 -0.03900
H 	H 	0.45377 0.78463 0.11073 -0.04200
C 	C 	0.47997 0.81313 0.19723 -0.00600
H 	H 	0.45217 0.78513 0.22133 -0.04100
N 	N 	0.52797 0.86253 0.21673 -0.24900
C 	C 	0.55377 0.77723 0.03323 0.10000
H 	H 	0.54617 0.77373 0.07393 -0.06100
N 	N 	0.65767 0.04623 0.99043 -0.28100
N 	N 	0.61097 0.95383 0.00963 -0.27400
C 	C 	0.66697 0.97153 0.00603 0.04800
C 	C 	0.57007 0.80953 0.94753 0.06300
C 	C 	0.57087 0.75963 0.94863 0.05200
C 	C 	0.69627 0.02873 0.99403 0.06800
C 	C 	0.60917 0.00073 0.99983 0.03300
H 	H 	0.57517 0.00123 0.99963 0.04900
C 	C 	0.58077 0.73833 0.89723 -0.14900
H 	H 	0.58007 0.70363 0.89683 0.04300
C 	C 	0.58037 0.84163 0.89723 -0.16600
H 	H 	0.57967 0.87563 0.89763 0.04700
C 	C 	0.59177 0.77013 0.84713 0.06600
C 	C 	0.59157 0.82183 0.84743 0.09200
C 	C 	0.43967 0.83023 0.97223 -0.08300
N 	N 	0.47757 0.86773 0.01043 0.28200
N 	N 	0.39527 0.86793 0.00733 -0.02500
C 	C 	0.38867 0.82983 0.96973 -0.02700
C 	C 	0.59657 0.74463 0.78593 -0.41500
H 	H 	0.56337 0.70783 0.78023 0.13800
H 	H 	0.59927 0.76963 0.75423 0.13100
H 	H 	0.62997 0.74093 0.78603 0.14200
C 	C 	0.69457 0.94053 0.01203 -0.17300
H 	H 	0.67497 0.90153 0.01963 0.07000
C 	C 	0.75387 0.05933 0.98753 -0.21200
H 	H 	0.77307 0.09813 0.97893 0.08300
C 	C 	0.75237 0.97083 0.00603 0.08500
C 	C 	0.78147 0.02903 0.99443 0.13900
C 	C 	0.61547 0.94303 0.16703 -0.26100
H 	H 	0.61257 0.97683 0.16383 0.14400
H 	H 	0.63457 0.94423 0.20343 0.07600
H 	H 	0.63687 0.94113 0.13393 0.13700
C 	C 	0.44157 0.88283 0.02963 1.00700
C 	C 	0.79067 0.94883 0.00993 -0.43200
H 	H 	0.76927 0.90833 0.01593 0.13000
H 	H 	0.81217 0.95703 0.97373 0.13200
H 	H 	0.81617 0.96633 0.04283 0.12900
C 	C 	0.46837 0.93713 0.07763 -5.35200
H 	H 	0.48307 0.97243 0.05613 4.84300
H 	H 	0.43897 0.93323 0.10433 1.59900
H 	H 	0.49867 0.93723 0.10003 1.66100
C 	C 	0.47667 0.90353 0.94383 0.20400
C 	C 	0.42617 0.90313 0.94383 -0.03300
C 	C 	0.40927 0.91983 0.89433 -0.96100
H 	H 	0.37487 0.91963 0.89433 0.36500
C 	C 	0.44297 0.93693 0.84493 0.52900
C 	C 	0.49327 0.93723 0.84483 0.69400
C 	C 	0.51027 0.92063 0.89433 -1.22700
H 	H 	0.54467 0.92083 0.89433 0.45200
C 	C 	0.48817 0.82343 0.16533 -0.36100
H 	H 	0.49157 0.78983 0.16773 0.12100
H 	H 	0.46647 0.82443 0.19863 0.13100
H 	H 	0.46927 0.82283 0.12903 0.14800
C 	C 	0.54077 0.87023 0.16633 0.13400
N 	N 	0.57007 0.90253 0.11683 -0.25200
C 	C 	0.61297 0.95523 0.13683 -0.14600
H 	H 	0.63897 0.98503 0.11293 0.02800
C 	C 	0.61037 0.95563 0.19863 -0.01400
H 	H 	0.63427 0.98573 0.22343 -0.00700
N 	N 	0.56567 0.90303 0.21693 -0.27000
N 	N 	0.47887 0.88103 0.99883 -0.72400
N 	N 	0.39787 0.88063 0.00133 -0.38400
C 	C 	0.84017 0.04913 0.99383 -0.53000
H 	H 	0.86047 0.08983 0.99803 0.15200
H 	H 	0.84967 0.03233 0.02623 0.16800
H 	H 	0.85047 0.03893 0.95683 0.16100
O 	O 	0.49927 0.99883 0.93603 -5.33500
C 	C 	0.52067 0.95133 0.79633 -0.19600
C 	C 	0.43567 0.95233 0.79333 -0.11900
C 	C 	0.51297 0.02633 0.81733 0.00400
C 	C 	0.48277 0.96523 0.90433 3.71900
N 	N 	0.48207 0.96483 0.85293 -1.48500
C 	C 	0.59707 0.84913 0.78563 -0.44300
H 	H 	0.62967 0.88673 0.78523 0.15200
H 	H 	0.60137 0.82623 0.75573 0.14100
H 	H 	0.56337 0.85133 0.77753 0.14700
Zn	Zn	0.99962 0.21448 0.36701 1.19400
Zn	Zn	0.21481 0.21449 0.36701 1.18800
N 	N 	0.22613 0.07257 0.33737 -0.29500
N 	N 	0.22573 0.15357 0.33657 -0.29900
C 	C 	0.22523 0.22617 0.50017 0.21000
N 	N 	0.19613 0.19547 0.44987 -0.25900
C 	C 	0.14753 0.14617 0.46867 -0.03800
H 	H 	0.12043 0.11797 0.44407 -0.04100
C 	C 	0.14663 0.14647 0.53057 -0.00700
H 	H 	0.11883 0.11847 0.55467 -0.04100
N 	N 	0.19463 0.19587 0.55007 -0.24900
C 	C 	0.22043 0.11057 0.36657 0.10100
H 	H 	0.21283 0.10707 0.40727 -0.06100
N 	N 	0.32433 0.37957 0.32377 -0.28000
N 	N 	0.27763 0.28717 0.34297 -0.27400
C 	C 	0.33363 0.30487 0.33937 0.04700
C 	C 	0.23673 0.14287 0.28087 0.06000
C 	C 	0.23753 0.09297 0.28197 0.05200
C 	C 	0.36293 0.36207 0.32737 0.07000
C 	C 	0.27583 0.33407 0.33317 0.03600
H 	H 	0.24183 0.33457 0.33297 0.05200
C 	C 	0.24743 0.07167 0.23057 -0.15000
H 	H 	0.24673 0.03697 0.23017 0.04500
C 	C 	0.24703 0.17497 0.23057 -0.16400
H 	H 	0.24633 0.20897 0.23097 0.04500
C 	C 	0.25843 0.10347 0.18047 0.06800
C 	C 	0.25823 0.15517 0.18077 0.09000
C 	C 	0.10633 0.16357 0.30557 -0.07500
N 	N 	0.14423 0.20107 0.34377 0.18700
N 	N 	0.06193 0.20127 0.34067 -0.02500
C 	C 	0.05533 0.16317 0.30307 -0.03600
C 	C 	0.26323 0.07797 0.11927 -0.41800
H 	H 	0.23003 0.04117 0.11357 0.14100
H 	H 	0.26593 0.10297 0.08757 0.13300
H 	H 	0.29663 0.07427 0.11937 0.14400
C 	C 	0.36123 0.27387 0.34537 -0.17200
H 	H 	0.34163 0.23487 0.35297 0.07100
C 	C 	0.42053 0.39267 0.32087 -0.20500
H 	H 	0.43973 0.43147 0.31227 0.08200
C 	C 	0.41903 0.30417 0.33937 0.08700
C 	C 	0.44813 0.36237 0.32777 0.13100
C 	C 	0.28213 0.27637 0.50037 -0.26300
H 	H 	0.27923 0.31017 0.49717 0.14500
H 	H 	0.30123 0.27757 0.53677 0.07600
H 	H 	0.30353 0.27447 0.46727 0.13800
C 	C 	0.10823 0.21617 0.36297 1.02900
C 	C 	0.45733 0.28217 0.34327 -0.42900
H 	H 	0.43593 0.24167 0.34927 0.12900
H 	H 	0.47883 0.29037 0.30707 0.13000
H 	H 	0.48283 0.29967 0.37617 0.13100
C 	C 	0.13503 0.27047 0.41097 -5.47900
H 	H 	0.14973 0.30577 0.38947 4.96700
H 	H 	0.10563 0.26657 0.43767 1.63700
H 	H 	0.16533 0.27057 0.43337 1.70200
C 	C 	0.14333 0.23687 0.27717 0.16900
C 	C 	0.09283 0.23647 0.27717 -0.02700
C 	C 	0.07593 0.25317 0.22767 -0.98800
H 	H 	0.04153 0.25297 0.22767 0.37200
C 	C 	0.10963 0.27027 0.17827 0.54400
C 	C 	0.15993 0.27057 0.17817 0.69200
C 	C 	0.17693 0.25397 0.22767 -1.22800
H 	H 	0.21133 0.25417 0.22767 0.45200
C 	C 	0.15483 0.15677 0.49867 -0.36300
H 	H 	0.15823 0.12317 0.50107 0.12200
H 	H 	0.13313 0.15777 0.53197 0.13200
H 	H 	0.13593 0.15617 0.46237 0.14900
C 	C 	0.20743 0.20357 0.49967 0.13300
N 	N 	0.23673 0.23587 0.45017 -0.25200
C 	C 	0.27963 0.28857 0.47017 -0.14600
H 	H 	0.30563 0.31837 0.44627 0.02900
C 	C 	0.27703 0.28897 0.53197 -0.01400
H 	H 	0.30093 0.31907 0.55677 -0.00600
N 	N 	0.23233 0.23637 0.55027 -0.27000
N 	N 	0.14553 0.21437 0.33217 -0.62900
N 	N 	0.06453 0.21397 0.33467 -0.38500
C 	C 	0.50683 0.38247 0.32717 -0.48700
H 	H 	0.52713 0.42317 0.33137 0.14400
H 	H 	0.51633 0.36567 0.35957 0.14800
H 	H 	0.51713 0.37227 0.29017 0.15200
O 	O 	0.16593 0.33217 0.26937 -5.47300
C 	C 	0.18733 0.28467 0.12967 -0.19500
C 	C 	0.10233 0.28567 0.12667 -0.12400
C 	C 	0.17963 0.35967 0.15067 0.00700
C 	C 	0.14943 0.29857 0.23767 3.80800
N 	N 	0.14873 0.29817 0.18627 -1.51400
C 	C 	0.26373 0.18247 0.11897 -0.44100
H 	H 	0.29633 0.22007 0.11857 0.15100
H 	H 	0.26803 0.15957 0.08907 0.14100
H 	H 	0.23003 0.18467 0.11087 0.14700
