data_crystal

_cell_length_a 27.59000
_cell_length_b 27.59000
_cell_length_c 21.89100
_cell_angle_alpha 90.00000
_cell_angle_beta  90.00000
_cell_angle_gamma 120.00000

_symmetry_space_group_name_	'P 1'
_symmetry_space_group_name_H-M	'P 1'

loop_
_symmetry_equiv_pos_as_xyz
  x,y,z

loop_
_atom_site_label
_atom_site_type_symbol
_atom_site_fract_x
_atom_site_fract_y
_atom_site_fract_z
_atom_site_charge
Zn	Zn	0.88055 0.54806 0.47334 1.17500
Zn	Zn	0.66751 0.54801 0.47338 1.17500
N 	N 	0.59880 0.48220 0.50610 -0.31200
N 	N 	0.66650 0.53060 0.28250 -0.31200
N 	N 	0.51780 0.40090 0.50620 -0.31200
N 	N 	0.81780 0.55370 0.50690 -0.25800
N 	N 	0.66660 0.53090 0.38400 -0.31100
N 	N 	0.73570 0.55310 0.50710 -0.26900
C 	C 	0.55510 0.44500 0.47590 0.21200
C 	C 	0.78220 0.56120 0.48300 -0.23100
C 	C 	0.66600 0.48430 0.30330 -0.00900
H 	H 	0.66480 0.45570 0.27820 -0.01200
C 	C 	0.66670 0.55760 0.33340 0.21500
C 	C 	0.52460 0.42390 0.56530 0.06300
C 	C 	0.57630 0.47470 0.56450 0.08200
C 	C 	0.73280 0.51170 0.55450 -0.00700
H 	H 	0.70160 0.48930 0.58000 0.04300
C 	C 	0.49380 0.40400 0.61780 -0.17500
H 	H 	0.45870 0.37030 0.61730 0.09700
C 	C 	0.59680 0.50670 0.61790 -0.18500
H 	H 	0.63030 0.54200 0.61800 0.11200
C 	C 	0.56440 0.48340 0.67180 0.16100
C 	C 	0.51520 0.43420 0.67230 0.14700
C 	C 	0.77860 0.51200 0.55440 -0.02800
H 	H 	0.78740 0.48960 0.58000 0.04600
C 	C 	0.79920 0.59800 0.42820 -0.47600
H 	H 	0.83980 0.62360 0.42930 0.16800
H 	H 	0.77990 0.61960 0.42830 0.16000
H 	H 	0.78940 0.57500 0.39120 0.12800
C 	C 	0.66750 0.48460 0.36320 -0.02200
H 	H 	0.66910 0.45720 0.38800 -0.00700
C 	C 	0.66650 0.61370 0.33350 -0.64100
H 	H 	0.70310 0.64390 0.31980 0.21000
H 	H 	0.65910 0.62170 0.37490 0.18800
H 	H 	0.63740 0.61090 0.30580 0.21200
Cl	Cl	0.59320 0.51960 0.73890 -0.47300
N 	N 	0.04710 0.66120 0.50680 -0.30400
N 	N 	0.95340 0.61380 0.49370 -0.30000
C 	C 	0.99990 0.61370 0.50030 0.10900
H 	H 	0.00000 0.57930 0.50040 -0.06700
C 	C 	0.03500 0.77900 0.43850 0.12700
C 	C 	0.97700 0.75120 0.43490 0.08100
C 	C 	0.94550 0.69690 0.45710 0.14300
C 	C 	0.97220 0.67040 0.48290 -0.11400
C 	C 	0.03020 0.69820 0.48660 -0.22800
C 	C 	0.06170 0.75250 0.46430 0.12100
Cl	Cl	0.06400 0.84990 0.41900 -0.18600
Cl	Cl	0.90280 0.70510 0.68670 -1.47700
C 	C 	0.77050 0.59160 0.55410 -0.12000
C 	C 	0.82070 0.59140 0.55340 -0.07200
C 	C 	0.76180 0.62530 0.60010 0.68200
C 	C 	0.53150 0.46780 0.42690 -0.57500
H 	H 	0.51230 0.48540 0.44680 0.17300
H 	H 	0.50500 0.43700 0.40090 0.15800
H 	H 	0.56230 0.49570 0.40180 0.15800
C 	C 	0.60130 0.44550 0.55150 -0.05800
H 	H 	0.63250 0.45440 0.57710 0.04800
C 	C 	0.55460 0.39890 0.55180 -0.03900
H 	H 	0.54570 0.36810 0.57790 0.04000
C 	C 	0.77130 0.54400 0.47300 0.38500
C 	C 	0.86450 0.62730 0.59920 0.60100
C 	C 	0.80230 0.65550 0.63780 0.95000
C 	C 	0.75620 0.70050 0.47510 -0.08600
C 	C 	0.69850 0.67050 0.48350 0.25200
C 	C 	0.66860 0.69850 0.48880 0.12400
C 	C 	0.69640 0.75660 0.48590 -0.16300
C 	C 	0.75400 0.78670 0.47750 -0.14900
C 	C 	0.78390 0.75860 0.47220 0.15500
C 	C 	0.85250 0.65690 0.63660 0.11400
C 	C 	0.69200 0.75200 0.46200 0.06500
C 	C 	0.73790 0.78420 0.42700 0.23900
C 	C 	0.74900 0.69100 0.45600 0.03400
C 	C 	0.77530 0.75100 0.43800 0.15900
C 	C 	0.69800 0.75600 0.51900 -0.03100
C 	C 	0.76300 0.78410 0.52750 0.21700
C 	C 	0.75800 0.69900 0.51000 -0.09100
Cl	Cl	0.79250 0.85520 0.47400 0.05100
Cl	Cl	0.85330 0.79690 0.46000 -0.18100
Cl	Cl	0.84110 0.78290 0.40400 0.16400
Cl	Cl	0.78510 0.84970 0.41800 -0.18900
Cl	Cl	0.85620 0.79070 0.53100 0.06100
Cl	Cl	0.78050 0.84030 0.59800 0.27200
Cl	Cl	0.79660 0.85340 0.54700 -0.23100
C 	C 	0.78940 0.75350 0.52100 -0.10500
Cl	Cl	0.47960 0.40660 0.73880 -0.54000
Cl	Cl	0.86440 0.62910 0.64640 -0.92000
Zn	Zn	0.54722 0.88139 0.80667 1.17400
Zn	Zn	0.33418 0.88134 0.80671 1.17400
N 	N 	0.26547 0.81553 0.83943 -0.31300
N 	N 	0.33317 0.86393 0.61583 -0.31300
N 	N 	0.18447 0.73423 0.83953 -0.31300
N 	N 	0.48447 0.88703 0.84023 -0.25900
N 	N 	0.33327 0.86423 0.71733 -0.31200
N 	N 	0.40237 0.88643 0.84043 -0.26900
C 	C 	0.22177 0.77833 0.80923 0.21200
C 	C 	0.44887 0.89453 0.81633 -0.23100
C 	C 	0.33267 0.81763 0.63663 -0.00900
H 	H 	0.33147 0.78903 0.61153 -0.01200
C 	C 	0.33337 0.89093 0.66673 0.21500
C 	C 	0.19127 0.75723 0.89863 0.06200
C 	C 	0.24297 0.80803 0.89783 0.08100
C 	C 	0.39947 0.84503 0.88783 -0.00700
H 	H 	0.36827 0.82263 0.91333 0.04300
C 	C 	0.16047 0.73733 0.95113 -0.17100
H 	H 	0.12537 0.70363 0.95063 0.09700
C 	C 	0.26347 0.84003 0.95123 -0.18100
H 	H 	0.29697 0.87533 0.95133 0.11100
C 	C 	0.23107 0.81673 0.00513 0.15700
C 	C 	0.18187 0.76753 0.00563 0.14300
C 	C 	0.44527 0.84533 0.88773 -0.02800
H 	H 	0.45407 0.82293 0.91333 0.04700
C 	C 	0.46587 0.93133 0.76153 -0.47600
H 	H 	0.50647 0.95693 0.76263 0.16800
H 	H 	0.44657 0.95293 0.76163 0.16100
H 	H 	0.45607 0.90833 0.72453 0.12800
C 	C 	0.33417 0.81793 0.69653 -0.02200
H 	H 	0.33577 0.79053 0.72133 -0.00700
C 	C 	0.33317 0.94703 0.66683 -0.64200
H 	H 	0.36977 0.97723 0.65313 0.21000
H 	H 	0.32577 0.95503 0.70823 0.18900
H 	H 	0.30407 0.94423 0.63913 0.21200
Cl	Cl	0.25987 0.85293 0.07223 -0.47500
N 	N 	0.71377 0.99453 0.84013 -0.30400
N 	N 	0.62007 0.94713 0.82703 -0.30100
C 	C 	0.66657 0.94703 0.83363 0.11200
H 	H 	0.66667 0.91263 0.83373 -0.06900
C 	C 	0.70167 0.11233 0.77183 0.12600
C 	C 	0.64367 0.08453 0.76823 0.07400
C 	C 	0.61217 0.03023 0.79043 0.14100
C 	C 	0.63887 0.00373 0.81623 -0.10600
C 	C 	0.69687 0.03153 0.81993 -0.22100
C 	C 	0.72837 0.08583 0.79763 0.12300
Cl	Cl	0.73067 0.18323 0.75233 -0.18500
Cl	Cl	0.56947 0.03843 0.02003 -1.47000
C 	C 	0.43717 0.92493 0.88743 -0.12000
C 	C 	0.48737 0.92473 0.88673 -0.07200
C 	C 	0.42847 0.95863 0.93343 0.68100
C 	C 	0.19817 0.80113 0.76023 -0.57500
H 	H 	0.17897 0.81873 0.78013 0.17300
H 	H 	0.17167 0.77033 0.73423 0.15800
H 	H 	0.22897 0.82903 0.73513 0.15800
C 	C 	0.26797 0.77883 0.88483 -0.05800
H 	H 	0.29917 0.78773 0.91043 0.04800
C 	C 	0.22127 0.73223 0.88513 -0.03800
H 	H 	0.21237 0.70143 0.91123 0.04000
C 	C 	0.43797 0.87733 0.80633 0.38500
C 	C 	0.53117 0.96063 0.93253 0.60200
C 	C 	0.46897 0.98883 0.97113 0.94400
C 	C 	0.42287 0.03383 0.80843 -0.08600
C 	C 	0.36517 0.00383 0.81683 0.25300
C 	C 	0.33527 0.03183 0.82213 0.12500
C 	C 	0.36307 0.08993 0.81923 -0.16300
C 	C 	0.42067 0.12003 0.81083 -0.14700
C 	C 	0.45057 0.09193 0.80553 0.15700
C 	C 	0.51917 0.99023 0.96993 0.11800
C 	C 	0.35867 0.08533 0.79533 0.06500
C 	C 	0.40457 0.11753 0.76033 0.23800
C 	C 	0.41567 0.02433 0.78933 0.03400
C 	C 	0.44197 0.08433 0.77133 0.15700
C 	C 	0.36467 0.08933 0.85233 -0.03100
C 	C 	0.42967 0.11743 0.86083 0.21300
C 	C 	0.42467 0.03233 0.84333 -0.09100
Cl	Cl	0.45917 0.18853 0.80733 0.05100
Cl	Cl	0.51997 0.13023 0.79333 -0.18200
Cl	Cl	0.50777 0.11623 0.73733 0.16400
Cl	Cl	0.45177 0.18303 0.75133 -0.18900
Cl	Cl	0.52287 0.12403 0.86433 0.06200
Cl	Cl	0.44717 0.17363 0.93133 0.27000
Cl	Cl	0.46327 0.18673 0.88033 -0.23000
C 	C 	0.45607 0.08683 0.85433 -0.10500
Cl	Cl	0.14627 0.73993 0.07213 -0.54100
Cl	Cl	0.53107 0.96243 0.97973 -0.92100
Zn	Zn	0.21388 0.21473 0.14001 1.17400
Zn	Zn	0.00084 0.21468 0.14005 1.17300
N 	N 	0.93213 0.14887 0.17277 -0.31300
N 	N 	0.99983 0.19727 0.94917 -0.31200
N 	N 	0.85113 0.06757 0.17287 -0.31200
N 	N 	0.15113 0.22037 0.17357 -0.25900
N 	N 	0.99993 0.19757 0.05067 -0.30900
N 	N 	0.06903 0.21977 0.17377 -0.26900
C 	C 	0.88843 0.11167 0.14257 0.21400
C 	C 	0.11553 0.22787 0.14967 -0.23100
C 	C 	0.99933 0.15097 0.96997 -0.01400
H 	H 	0.99813 0.12237 0.94487 -0.01100
C 	C 	0.00003 0.22427 0.00007 0.20900
C 	C 	0.85793 0.09057 0.23197 0.06300
C 	C 	0.90963 0.14137 0.23117 0.08200
C 	C 	0.06613 0.17837 0.22117 -0.00700
H 	H 	0.03493 0.15597 0.24667 0.04300
C 	C 	0.82713 0.07067 0.28447 -0.17500
H 	H 	0.79203 0.03697 0.28397 0.09800
C 	C 	0.93013 0.17337 0.28457 -0.18500
H 	H 	0.96363 0.20867 0.28467 0.11200
C 	C 	0.89773 0.15007 0.33847 0.16100
C 	C 	0.84853 0.10087 0.33897 0.14700
C 	C 	0.11193 0.17867 0.22107 -0.02800
H 	H 	0.12073 0.15627 0.24667 0.04700
C 	C 	0.13253 0.26467 0.09487 -0.47600
H 	H 	0.17313 0.29027 0.09597 0.16700
H 	H 	0.11323 0.28627 0.09497 0.16000
H 	H 	0.12273 0.24167 0.05787 0.12800
C 	C 	0.00083 0.15127 0.02987 -0.02000
H 	H 	0.00243 0.12387 0.05467 -0.00700
C 	C 	0.99983 0.28037 0.00017 -0.62000
H 	H 	0.03643 0.31057 0.98647 0.20400
H 	H 	0.99243 0.28837 0.04157 0.18300
H 	H 	0.97073 0.27757 0.97247 0.20300
Cl	Cl	0.92653 0.18627 0.40557 -0.47300
N 	N 	0.38043 0.32787 0.17347 -0.30400
N 	N 	0.28673 0.28047 0.16037 -0.30100
C 	C 	0.33323 0.28037 0.16697 0.11200
H 	H 	0.33333 0.24597 0.16707 -0.06900
C 	C 	0.36833 0.44567 0.10517 0.12600
C 	C 	0.31033 0.41787 0.10157 0.07900
C 	C 	0.27883 0.36357 0.12377 0.14300
C 	C 	0.30553 0.33707 0.14957 -0.11400
C 	C 	0.36353 0.36487 0.15327 -0.23000
C 	C 	0.39503 0.41917 0.13097 0.12200
Cl	Cl	0.39733 0.51657 0.08567 -0.18600
Cl	Cl	0.23613 0.37177 0.35337 -1.47600
C 	C 	0.10383 0.25827 0.22077 -0.12000
C 	C 	0.15403 0.25807 0.22007 -0.07200
C 	C 	0.09513 0.29197 0.26677 0.68100
C 	C 	0.86483 0.13447 0.09357 -0.57800
H 	H 	0.84563 0.15207 0.11347 0.17400
H 	H 	0.83833 0.10367 0.06757 0.16000
H 	H 	0.89563 0.16237 0.06847 0.15900
C 	C 	0.93463 0.11217 0.21817 -0.05800
H 	H 	0.96583 0.12107 0.24377 0.04900
C 	C 	0.88793 0.06557 0.21847 -0.03800
H 	H 	0.87903 0.03477 0.24457 0.04100
C 	C 	0.10463 0.21067 0.13967 0.38500
C 	C 	0.19783 0.29397 0.26587 0.60100
C 	C 	0.13563 0.32217 0.30447 0.95000
C 	C 	0.08953 0.36717 0.14177 -0.08700
C 	C 	0.03183 0.33717 0.15017 0.24900
C 	C 	0.00193 0.36517 0.15547 0.12200
C 	C 	0.02973 0.42327 0.15257 -0.16300
C 	C 	0.08733 0.45337 0.14417 -0.15100
C 	C 	0.11723 0.42527 0.13887 0.15200
C 	C 	0.18583 0.32357 0.30327 0.11400
C 	C 	0.02533 0.41867 0.12867 0.06500
C 	C 	0.07123 0.45087 0.09367 0.23900
C 	C 	0.08233 0.35767 0.12267 0.03600
C 	C 	0.10863 0.41767 0.10467 0.16100
C 	C 	0.03133 0.42267 0.18567 -0.03100
C 	C 	0.09633 0.45077 0.19417 0.22100
C 	C 	0.09133 0.36567 0.17667 -0.09200
Cl	Cl	0.12583 0.52187 0.14067 0.05200
Cl	Cl	0.18663 0.46357 0.12667 -0.18100
Cl	Cl	0.17443 0.44957 0.07067 0.16300
Cl	Cl	0.11843 0.51637 0.08467 -0.19100
Cl	Cl	0.18953 0.45737 0.19767 0.06100
Cl	Cl	0.11383 0.50697 0.26467 0.27200
Cl	Cl	0.12993 0.52007 0.21367 -0.23200
C 	C 	0.12273 0.42017 0.18767 -0.10400
Cl	Cl	0.81293 0.07327 0.40547 -0.54100
Cl	Cl	0.19773 0.29577 0.31307 -0.91900
Zn	Zn	0.45194 0.33249 0.47334 1.17400
Zn	Zn	0.45199 0.11950 0.47338 1.17400
N 	N 	0.51780 0.11660 0.50610 -0.31400
N 	N 	0.46940 0.13590 0.28250 -0.31300
N 	N 	0.59910 0.11690 0.50620 -0.31300
N 	N 	0.44630 0.26410 0.50690 -0.25900
N 	N 	0.46910 0.13570 0.38400 -0.31200
N 	N 	0.44690 0.18260 0.50710 -0.26900
C 	C 	0.55500 0.11010 0.47590 0.21200
C 	C 	0.43880 0.22100 0.48300 -0.23100
C 	C 	0.51570 0.18170 0.30330 -0.00900
H 	H 	0.54430 0.20910 0.27820 -0.01200
C 	C 	0.44240 0.10910 0.33340 0.21500
C 	C 	0.57610 0.10070 0.56530 0.06300
C 	C 	0.52530 0.10160 0.56450 0.08200
C 	C 	0.48830 0.22110 0.55450 -0.00700
H 	H 	0.51070 0.21230 0.58000 0.04300
C 	C 	0.59600 0.08980 0.61780 -0.17500
H 	H 	0.62970 0.08840 0.61730 0.09700
C 	C 	0.49330 0.09010 0.61790 -0.18500
H 	H 	0.45800 0.08830 0.61800 0.11200
C 	C 	0.51660 0.08100 0.67180 0.16100
C 	C 	0.56580 0.08100 0.67230 0.14600
C 	C 	0.48800 0.26660 0.55440 -0.02800
H 	H 	0.51040 0.29780 0.58000 0.04600
C 	C 	0.40200 0.20120 0.42820 -0.47600
H 	H 	0.37640 0.21620 0.42930 0.16800
H 	H 	0.38040 0.16030 0.42830 0.16000
H 	H 	0.42500 0.21440 0.39120 0.12800
C 	C 	0.51540 0.18290 0.36320 -0.02200
H 	H 	0.54280 0.21190 0.38800 -0.00700
C 	C 	0.38630 0.05280 0.33350 -0.64300
H 	H 	0.35610 0.05920 0.31980 0.21000
H 	H 	0.37830 0.03740 0.37490 0.18900
H 	H 	0.38910 0.02650 0.30580 0.21300
Cl	Cl	0.48040 0.07360 0.73890 -0.47300
N 	N 	0.33880 0.38590 0.50680 -0.30400
N 	N 	0.38620 0.33960 0.49370 -0.30100
C 	C 	0.38630 0.38620 0.50030 0.11200
H 	H 	0.42070 0.42070 0.50040 -0.06900
C 	C 	0.22100 0.25600 0.43850 0.12600
C 	C 	0.24880 0.22580 0.43490 0.07800
C 	C 	0.30310 0.24860 0.45710 0.14200
C 	C 	0.32960 0.30180 0.48290 -0.11300
C 	C 	0.30180 0.33200 0.48660 -0.22900
C 	C 	0.24750 0.30920 0.46430 0.12200
Cl	Cl	0.15010 0.21410 0.41900 -0.18600
Cl	Cl	0.29490 0.19770 0.68670 -1.47300
C 	C 	0.40840 0.17890 0.55410 -0.12000
C 	C 	0.40860 0.22930 0.55340 -0.07200
C 	C 	0.37470 0.13650 0.60010 0.68100
C 	C 	0.53220 0.06370 0.42690 -0.57600
H 	H 	0.51460 0.02690 0.44680 0.17400
H 	H 	0.56300 0.06800 0.40090 0.15800
H 	H 	0.50430 0.06660 0.40180 0.15800
C 	C 	0.55450 0.15580 0.55150 -0.05800
H 	H 	0.54560 0.17810 0.57710 0.04800
C 	C 	0.60110 0.15570 0.55180 -0.03900
H 	H 	0.63190 0.17760 0.57790 0.04000
C 	C 	0.45600 0.22730 0.47300 0.38500
C 	C 	0.37270 0.23720 0.59920 0.60100
C 	C 	0.34450 0.14680 0.63780 0.94600
C 	C 	0.29950 0.05570 0.47510 -0.08600
C 	C 	0.32950 0.02800 0.48350 0.25200
C 	C 	0.30150 0.97010 0.48880 0.12400
C 	C 	0.24340 0.93980 0.48590 -0.16300
C 	C 	0.21330 0.96730 0.47750 -0.14800
C 	C 	0.24140 0.02530 0.47220 0.15600
C 	C 	0.34310 0.19560 0.63660 0.11600
C 	C 	0.24800 0.94000 0.46200 0.06500
C 	C 	0.21580 0.95370 0.42700 0.23800
C 	C 	0.30900 0.05800 0.45600 0.03400
C 	C 	0.24900 0.02430 0.43800 0.15800
C 	C 	0.24400 0.94200 0.51900 -0.03100
C 	C 	0.21590 0.97890 0.52750 0.21400
C 	C 	0.30100 0.05900 0.51000 -0.09000
Cl	Cl	0.14480 0.93730 0.47400 0.05100
Cl	Cl	0.20310 0.05640 0.46000 -0.18100
Cl	Cl	0.21710 0.05820 0.40400 0.16500
Cl	Cl	0.15030 0.93540 0.41800 -0.18900
Cl	Cl	0.20930 0.06550 0.53100 0.06200
Cl	Cl	0.15970 0.94020 0.59800 0.27200
Cl	Cl	0.14660 0.94320 0.54700 -0.23000
C 	C 	0.24650 0.03590 0.52100 -0.10500
Cl	Cl	0.59340 0.07300 0.73880 -0.53900
Cl	Cl	0.37090 0.23530 0.64640 -0.92000
Zn	Zn	0.11861 0.66582 0.80667 1.17400
Zn	Zn	0.11866 0.45283 0.80671 1.17400
N 	N 	0.18447 0.44993 0.83943 -0.31300
N 	N 	0.13607 0.46923 0.61583 -0.31300
N 	N 	0.26577 0.45023 0.83953 -0.31300
N 	N 	0.11297 0.59743 0.84023 -0.25900
N 	N 	0.13577 0.46903 0.71733 -0.31200
N 	N 	0.11357 0.51593 0.84043 -0.26900
C 	C 	0.22167 0.44343 0.80923 0.21200
C 	C 	0.10547 0.55433 0.81633 -0.23100
C 	C 	0.18237 0.51503 0.63663 -0.00900
H 	H 	0.21097 0.54243 0.61153 -0.01200
C 	C 	0.10907 0.44243 0.66673 0.21600
C 	C 	0.24277 0.43403 0.89863 0.06300
C 	C 	0.19197 0.43493 0.89783 0.08100
C 	C 	0.15497 0.55443 0.88783 -0.00700
H 	H 	0.17737 0.54563 0.91333 0.04300
C 	C 	0.26267 0.42313 0.95113 -0.17400
H 	H 	0.29637 0.42173 0.95063 0.09700
C 	C 	0.15997 0.42343 0.95123 -0.18300
H 	H 	0.12467 0.42163 0.95133 0.11200
C 	C 	0.18327 0.41433 0.00513 0.15900
C 	C 	0.23247 0.41433 0.00563 0.14600
C 	C 	0.15467 0.59993 0.88773 -0.02800
H 	H 	0.17707 0.63113 0.91333 0.04700
C 	C 	0.06867 0.53453 0.76153 -0.47700
H 	H 	0.04307 0.54953 0.76263 0.16900
H 	H 	0.04707 0.49363 0.76163 0.16100
H 	H 	0.09167 0.54773 0.72453 0.12900
C 	C 	0.18207 0.51623 0.69653 -0.02200
H 	H 	0.20947 0.54523 0.72133 -0.00700
C 	C 	0.05297 0.38613 0.66683 -0.64300
H 	H 	0.02277 0.39253 0.65313 0.21100
H 	H 	0.04497 0.37073 0.70823 0.18900
H 	H 	0.05577 0.35983 0.63913 0.21300
Cl	Cl	0.14707 0.40693 0.07223 -0.47400
N 	N 	0.00547 0.71923 0.84013 -0.30200
N 	N 	0.05287 0.67293 0.82703 -0.30000
C 	C 	0.05297 0.71953 0.83363 0.11200
H 	H 	0.08737 0.75403 0.83373 -0.06900
C 	C 	0.88767 0.58933 0.77183 0.12500
C 	C 	0.91547 0.55913 0.76823 0.07300
C 	C 	0.96977 0.58193 0.79043 0.14300
C 	C 	0.99627 0.63513 0.81623 -0.11600
C 	C 	0.96847 0.66533 0.81993 -0.23200
C 	C 	0.91417 0.64253 0.79763 0.12500
Cl	Cl	0.81677 0.54743 0.75233 -0.18500
Cl	Cl	0.96157 0.53103 0.02003 -1.47700
C 	C 	0.07507 0.51223 0.88743 -0.12000
C 	C 	0.07527 0.56263 0.88673 -0.07100
C 	C 	0.04137 0.46983 0.93343 0.68200
C 	C 	0.19887 0.39703 0.76023 -0.57500
H 	H 	0.18127 0.36023 0.78013 0.17300
H 	H 	0.22967 0.40133 0.73423 0.15800
H 	H 	0.17097 0.39993 0.73513 0.15800
C 	C 	0.22117 0.48913 0.88483 -0.05800
H 	H 	0.21227 0.51143 0.91043 0.04800
C 	C 	0.26777 0.48903 0.88513 -0.03900
H 	H 	0.29857 0.51093 0.91123 0.04000
C 	C 	0.12267 0.56063 0.80633 0.38500
C 	C 	0.03937 0.57053 0.93253 0.60200
C 	C 	0.01117 0.48013 0.97113 0.95200
C 	C 	0.96617 0.38903 0.80843 -0.08700
C 	C 	0.99617 0.36133 0.81683 0.25200
C 	C 	0.96817 0.30343 0.82213 0.12400
C 	C 	0.91007 0.27313 0.81923 -0.16400
C 	C 	0.87997 0.30063 0.81083 -0.14800
C 	C 	0.90807 0.35863 0.80553 0.15700
C 	C 	0.00977 0.52893 0.96993 0.11400
C 	C 	0.91467 0.27333 0.79533 0.06600
C 	C 	0.88247 0.28703 0.76033 0.23900
C 	C 	0.97567 0.39133 0.78933 0.03500
C 	C 	0.91567 0.35763 0.77133 0.15600
C 	C 	0.91067 0.27533 0.85233 -0.03200
C 	C 	0.88257 0.31223 0.86083 0.21500
C 	C 	0.96767 0.39233 0.84333 -0.09200
Cl	Cl	0.81147 0.27063 0.80733 0.05100
Cl	Cl	0.86977 0.38973 0.79333 -0.18200
Cl	Cl	0.88377 0.39153 0.73733 0.16500
Cl	Cl	0.81697 0.26873 0.75133 -0.18900
Cl	Cl	0.87597 0.39883 0.86433 0.06200
Cl	Cl	0.82637 0.27353 0.93133 0.27200
Cl	Cl	0.81327 0.27653 0.88033 -0.23100
C 	C 	0.91317 0.36923 0.85433 -0.10400
Cl	Cl	0.26007 0.40633 0.07213 -0.54100
Cl	Cl	0.03757 0.56863 0.97973 -0.91700
Zn	Zn	0.78527 0.99916 0.14001 1.17300
Zn	Zn	0.78532 0.78617 0.14005 1.17400
N 	N 	0.85113 0.78327 0.17277 -0.31400
N 	N 	0.80273 0.80257 0.94917 -0.31200
N 	N 	0.93243 0.78357 0.17287 -0.31300
N 	N 	0.77963 0.93077 0.17357 -0.25900
N 	N 	0.80243 0.80237 0.05067 -0.31200
N 	N 	0.78023 0.84927 0.17377 -0.26900
C 	C 	0.88833 0.77677 0.14257 0.21300
C 	C 	0.77213 0.88767 0.14967 -0.23100
C 	C 	0.84903 0.84837 0.96997 -0.00900
H 	H 	0.87763 0.87577 0.94487 -0.01200
C 	C 	0.77573 0.77577 0.00007 0.21500
C 	C 	0.90943 0.76737 0.23197 0.06300
C 	C 	0.85863 0.76827 0.23117 0.08200
C 	C 	0.82163 0.88777 0.22117 -0.00700
H 	H 	0.84403 0.87897 0.24667 0.04300
C 	C 	0.92933 0.75647 0.28447 -0.17600
H 	H 	0.96303 0.75507 0.28397 0.09700
C 	C 	0.82663 0.75677 0.28457 -0.18500
H 	H 	0.79133 0.75497 0.28467 0.11200
C 	C 	0.84993 0.74767 0.33847 0.16000
C 	C 	0.89913 0.74767 0.33897 0.14700
C 	C 	0.82133 0.93327 0.22107 -0.02800
H 	H 	0.84373 0.96447 0.24667 0.04600
C 	C 	0.73533 0.86787 0.09487 -0.47600
H 	H 	0.70973 0.88287 0.09597 0.16700
H 	H 	0.71373 0.82697 0.09497 0.16000
H 	H 	0.75833 0.88107 0.05787 0.12800
C 	C 	0.84873 0.84957 0.02987 -0.02300
H 	H 	0.87613 0.87857 0.05467 -0.00700
C 	C 	0.71963 0.71947 0.00017 -0.64200
H 	H 	0.68943 0.72587 0.98647 0.21000
H 	H 	0.71163 0.70407 0.04157 0.18900
H 	H 	0.72243 0.69317 0.97247 0.21200
Cl	Cl	0.81373 0.74027 0.40557 -0.47300
N 	N 	0.67213 0.05257 0.17347 -0.30300
N 	N 	0.71953 0.00627 0.16037 -0.29900
C 	C 	0.71963 0.05287 0.16697 0.11200
H 	H 	0.75403 0.08737 0.16707 -0.06900
C 	C 	0.55433 0.92267 0.10517 0.12500
C 	C 	0.58213 0.89247 0.10157 0.07900
C 	C 	0.63643 0.91527 0.12377 0.14400
C 	C 	0.66293 0.96847 0.14957 -0.11600
C 	C 	0.63513 0.99867 0.15327 -0.23300
C 	C 	0.58083 0.97587 0.13097 0.12400
Cl	Cl	0.48343 0.88077 0.08567 -0.18700
Cl	Cl	0.62823 0.86437 0.35337 -1.47400
C 	C 	0.74173 0.84557 0.22077 -0.12000
C 	C 	0.74193 0.89597 0.22007 -0.07200
C 	C 	0.70803 0.80317 0.26677 0.68100
C 	C 	0.86553 0.73037 0.09357 -0.57600
H 	H 	0.84793 0.69357 0.11347 0.17400
H 	H 	0.89633 0.73467 0.06757 0.15800
H 	H 	0.83763 0.73327 0.06847 0.15800
C 	C 	0.88783 0.82247 0.21817 -0.05800
H 	H 	0.87893 0.84477 0.24377 0.04800
C 	C 	0.93443 0.82237 0.21847 -0.03900
H 	H 	0.96523 0.84427 0.24457 0.04000
C 	C 	0.78933 0.89397 0.13967 0.38500
C 	C 	0.70603 0.90387 0.26587 0.60100
C 	C 	0.67783 0.81347 0.30447 0.94600
C 	C 	0.63283 0.72237 0.14177 -0.08600
C 	C 	0.66283 0.69467 0.15017 0.25100
C 	C 	0.63483 0.63677 0.15547 0.12300
C 	C 	0.57673 0.60647 0.15257 -0.16300
C 	C 	0.54663 0.63397 0.14417 -0.14900
C 	C 	0.57473 0.69197 0.13887 0.15400
C 	C 	0.67643 0.86227 0.30327 0.11700
C 	C 	0.58133 0.60667 0.12867 0.06500
C 	C 	0.54913 0.62037 0.09367 0.23900
C 	C 	0.64233 0.72467 0.12267 0.03400
C 	C 	0.58233 0.69097 0.10467 0.15900
C 	C 	0.57733 0.60867 0.18567 -0.03100
C 	C 	0.54923 0.64557 0.19417 0.21800
C 	C 	0.63433 0.72567 0.17667 -0.09100
Cl	Cl	0.47813 0.60397 0.14067 0.05200
Cl	Cl	0.53643 0.72307 0.12667 -0.18100
Cl	Cl	0.55043 0.72487 0.07067 0.16300
Cl	Cl	0.48363 0.60207 0.08467 -0.19000
Cl	Cl	0.54263 0.73217 0.19767 0.06100
Cl	Cl	0.49303 0.60687 0.26467 0.27100
Cl	Cl	0.47993 0.60987 0.21367 -0.23100
C 	C 	0.57983 0.70257 0.18767 -0.10400
Cl	Cl	0.92673 0.73967 0.40547 -0.54200
Cl	Cl	0.70423 0.90197 0.31307 -0.92100
Zn	Zn	0.66751 0.11945 0.47334 1.17400
Zn	Zn	0.88050 0.33249 0.47338 1.17400
N 	N 	0.88340 0.40120 0.50610 -0.31400
N 	N 	0.86410 0.33350 0.28250 -0.31300
N 	N 	0.88310 0.48220 0.50620 -0.31300
N 	N 	0.73590 0.18220 0.50690 -0.25900
N 	N 	0.86430 0.33340 0.38400 -0.31200
N 	N 	0.81740 0.26430 0.50710 -0.26900
C 	C 	0.88990 0.44490 0.47590 0.21200
C 	C 	0.77900 0.21780 0.48300 -0.23100
C 	C 	0.81830 0.33400 0.30330 -0.00900
H 	H 	0.79090 0.33520 0.27820 -0.01200
C 	C 	0.89090 0.33330 0.33340 0.21500
C 	C 	0.89930 0.47540 0.56530 0.06300
C 	C 	0.89840 0.42370 0.56450 0.08200
C 	C 	0.77890 0.26720 0.55450 -0.00700
H 	H 	0.78770 0.29840 0.58000 0.04300
C 	C 	0.91020 0.50620 0.61780 -0.17500
H 	H 	0.91160 0.54130 0.61730 0.09700
C 	C 	0.90990 0.40320 0.61790 -0.18500
H 	H 	0.91170 0.36970 0.61800 0.11200
C 	C 	0.91900 0.43560 0.67180 0.16000
C 	C 	0.91900 0.48480 0.67230 0.14600
C 	C 	0.73340 0.22140 0.55440 -0.02800
H 	H 	0.70220 0.21260 0.58000 0.04600
C 	C 	0.79880 0.20080 0.42820 -0.47600
H 	H 	0.78380 0.16020 0.42930 0.16800
H 	H 	0.83970 0.22010 0.42830 0.16000
H 	H 	0.78560 0.21060 0.39120 0.12800
C 	C 	0.81710 0.33250 0.36320 -0.02200
H 	H 	0.78810 0.33090 0.38800 -0.00700
C 	C 	0.94720 0.33350 0.33350 -0.64200
H 	H 	0.94080 0.29690 0.31980 0.21000
H 	H 	0.96260 0.34090 0.37490 0.18900
H 	H 	0.97350 0.36260 0.30580 0.21200
Cl	Cl	0.92640 0.40680 0.73890 -0.47400
N 	N 	0.61410 0.95290 0.50680 -0.30500
N 	N 	0.66040 0.04660 0.49370 -0.30100
C 	C 	0.61380 0.00010 0.50030 0.11300
H 	H 	0.57930 0.00000 0.50040 -0.06900
C 	C 	0.74400 0.96500 0.43850 0.12500
C 	C 	0.77420 0.02300 0.43490 0.07600
C 	C 	0.75140 0.05450 0.45710 0.14200
C 	C 	0.69820 0.02780 0.48290 -0.11400
C 	C 	0.66800 0.96980 0.48660 -0.23100
C 	C 	0.69080 0.93830 0.46430 0.12300
Cl	Cl	0.78590 0.93600 0.41900 -0.18600
Cl	Cl	0.80230 0.09720 0.68670 -1.47600
C 	C 	0.82110 0.22950 0.55410 -0.12100
C 	C 	0.77070 0.17930 0.55340 -0.07200
C 	C 	0.86350 0.23820 0.60010 0.68200
C 	C 	0.93630 0.46850 0.42690 -0.57500
H 	H 	0.97310 0.48770 0.44680 0.17300
H 	H 	0.93200 0.49500 0.40090 0.15800
H 	H 	0.93340 0.43770 0.40180 0.15800
C 	C 	0.84420 0.39870 0.55150 -0.05800
H 	H 	0.82190 0.36750 0.57710 0.04800
C 	C 	0.84430 0.44540 0.55180 -0.03800
H 	H 	0.82240 0.45430 0.57790 0.04000
C 	C 	0.77270 0.22870 0.47300 0.38500
C 	C 	0.76280 0.13550 0.59920 0.60100
C 	C 	0.85320 0.19770 0.63780 0.95000
C 	C 	0.94430 0.24380 0.47510 -0.08600
C 	C 	0.97200 0.30150 0.48350 0.25200
C 	C 	0.02990 0.33140 0.48880 0.12600
C 	C 	0.06020 0.30360 0.48590 -0.16400
C 	C 	0.03270 0.24600 0.47750 -0.15000
C 	C 	0.97470 0.21610 0.47220 0.15400
C 	C 	0.80440 0.14750 0.63660 0.11400
C 	C 	0.06000 0.30800 0.46200 0.06500
C 	C 	0.04630 0.26210 0.42700 0.24000
C 	C 	0.94200 0.25100 0.45600 0.03400
C 	C 	0.97570 0.22470 0.43800 0.15900
C 	C 	0.05800 0.30200 0.51900 -0.03100
C 	C 	0.02110 0.23700 0.52750 0.21900
C 	C 	0.94100 0.24200 0.51000 -0.09000
Cl	Cl	0.06270 0.20750 0.47400 0.05200
Cl	Cl	0.94360 0.14670 0.46000 -0.18100
Cl	Cl	0.94180 0.15890 0.40400 0.16400
Cl	Cl	0.06460 0.21490 0.41800 -0.18900
Cl	Cl	0.93450 0.14380 0.53100 0.06100
Cl	Cl	0.05980 0.21950 0.59800 0.27300
Cl	Cl	0.05680 0.20340 0.54700 -0.23200
C 	C 	0.96410 0.21060 0.52100 -0.10500
Cl	Cl	0.92700 0.52040 0.73880 -0.54200
Cl	Cl	0.76470 0.13560 0.64640 -0.91900
Zn	Zn	0.33418 0.45278 0.80667 1.17400
Zn	Zn	0.54717 0.66582 0.80671 1.17400
N 	N 	0.55007 0.73453 0.83943 -0.31300
N 	N 	0.53077 0.66683 0.61583 -0.31300
N 	N 	0.54977 0.81553 0.83953 -0.31300
N 	N 	0.40257 0.51553 0.84023 -0.25900
N 	N 	0.53097 0.66673 0.71733 -0.31200
N 	N 	0.48407 0.59763 0.84043 -0.26900
C 	C 	0.55657 0.77823 0.80923 0.21200
C 	C 	0.44567 0.55113 0.81633 -0.23100
C 	C 	0.48497 0.66733 0.63663 -0.00900
H 	H 	0.45757 0.66853 0.61153 -0.01200
C 	C 	0.55757 0.66663 0.66673 0.21500
C 	C 	0.56597 0.80873 0.89863 0.06300
C 	C 	0.56507 0.75703 0.89783 0.08200
C 	C 	0.44557 0.60053 0.88783 -0.00700
H 	H 	0.45437 0.63173 0.91333 0.04300
C 	C 	0.57687 0.83953 0.95113 -0.17300
H 	H 	0.57827 0.87463 0.95063 0.09700
C 	C 	0.57657 0.73653 0.95123 -0.18400
H 	H 	0.57837 0.70303 0.95133 0.11200
C 	C 	0.58567 0.76893 0.00513 0.16000
C 	C 	0.58567 0.81813 0.00563 0.14500
C 	C 	0.40007 0.55473 0.88773 -0.02800
H 	H 	0.36887 0.54593 0.91333 0.04600
C 	C 	0.46547 0.53413 0.76153 -0.47600
H 	H 	0.45047 0.49353 0.76263 0.16800
H 	H 	0.50637 0.55343 0.76163 0.16000
H 	H 	0.45227 0.54393 0.72453 0.12800
C 	C 	0.48377 0.66583 0.69653 -0.02200
H 	H 	0.45477 0.66423 0.72133 -0.00700
C 	C 	0.61387 0.66683 0.66683 -0.64100
H 	H 	0.60747 0.63023 0.65313 0.21000
H 	H 	0.62927 0.67423 0.70823 0.18800
H 	H 	0.64017 0.69593 0.63913 0.21200
Cl	Cl	0.59307 0.74013 0.07223 -0.47300
N 	N 	0.28077 0.28623 0.84013 -0.30400
N 	N 	0.32707 0.37993 0.82703 -0.30100
C 	C 	0.28047 0.33343 0.83363 0.11200
H 	H 	0.24597 0.33333 0.83373 -0.06900
C 	C 	0.41067 0.29833 0.77183 0.12600
C 	C 	0.44087 0.35633 0.76823 0.07700
C 	C 	0.41807 0.38783 0.79043 0.14200
C 	C 	0.36487 0.36113 0.81623 -0.11200
C 	C 	0.33467 0.30313 0.81993 -0.22800
C 	C 	0.35747 0.27163 0.79763 0.12300
Cl	Cl	0.45257 0.26933 0.75233 -0.18600
Cl	Cl	0.46897 0.43053 0.02003 -1.47100
C 	C 	0.48777 0.56283 0.88743 -0.12000
C 	C 	0.43737 0.51263 0.88673 -0.07200
C 	C 	0.53017 0.57153 0.93343 0.68000
C 	C 	0.60297 0.80183 0.76023 -0.57500
H 	H 	0.63977 0.82103 0.78013 0.17300
H 	H 	0.59867 0.82833 0.73423 0.15800
H 	H 	0.60007 0.77103 0.73513 0.15800
C 	C 	0.51087 0.73203 0.88483 -0.05800
H 	H 	0.48857 0.70083 0.91043 0.04800
C 	C 	0.51097 0.77873 0.88513 -0.03800
H 	H 	0.48907 0.78763 0.91123 0.04000
C 	C 	0.43937 0.56203 0.80633 0.38500
C 	C 	0.42947 0.46883 0.93253 0.60100
C 	C 	0.51987 0.53103 0.97113 0.94400
C 	C 	0.61097 0.57713 0.80843 -0.08600
C 	C 	0.63867 0.63483 0.81683 0.25300
C 	C 	0.69657 0.66473 0.82213 0.12500
C 	C 	0.72687 0.63693 0.81923 -0.16300
C 	C 	0.69937 0.57933 0.81083 -0.14800
C 	C 	0.64137 0.54943 0.80553 0.15500
C 	C 	0.47107 0.48083 0.96993 0.11800
C 	C 	0.72667 0.64133 0.79533 0.06500
C 	C 	0.71297 0.59543 0.76033 0.23900
C 	C 	0.60867 0.58433 0.78933 0.03400
C 	C 	0.64237 0.55803 0.77133 0.15800
C 	C 	0.72467 0.63533 0.85233 -0.03100
C 	C 	0.68777 0.57033 0.86083 0.21500
C 	C 	0.60767 0.57533 0.84333 -0.09000
Cl	Cl	0.72937 0.54083 0.80733 0.05100
Cl	Cl	0.61027 0.48003 0.79333 -0.18100
Cl	Cl	0.60847 0.49223 0.73733 0.16400
Cl	Cl	0.73127 0.54823 0.75133 -0.18900
Cl	Cl	0.60117 0.47713 0.86433 0.06200
Cl	Cl	0.72647 0.55283 0.93133 0.27100
Cl	Cl	0.72347 0.53673 0.88033 -0.23000
C 	C 	0.63077 0.54393 0.85433 -0.10500
Cl	Cl	0.59367 0.85373 0.07213 -0.54100
Cl	Cl	0.43137 0.46893 0.97973 -0.92200
Zn	Zn	0.00084 0.78612 0.14001 1.17400
Zn	Zn	0.21383 0.99916 0.14005 1.17200
N 	N 	0.21673 0.06787 0.17277 -0.31300
N 	N 	0.19743 0.00017 0.94917 -0.31100
N 	N 	0.21643 0.14887 0.17287 -0.31300
N 	N 	0.06923 0.84887 0.17357 -0.25900
N 	N 	0.19763 0.00007 0.05067 -0.30600
N 	N 	0.15073 0.93097 0.17377 -0.26900
C 	C 	0.22323 0.11157 0.14257 0.21300
C 	C 	0.11233 0.88447 0.14967 -0.23100
C 	C 	0.15163 0.00067 0.96997 -0.00200
H 	H 	0.12423 0.00187 0.94487 -0.01400
C 	C 	0.22423 0.99997 0.00007 0.20400
C 	C 	0.23263 0.14207 0.23197 0.06300
C 	C 	0.23173 0.09037 0.23117 0.08200
C 	C 	0.11223 0.93387 0.22117 -0.00700
H 	H 	0.12103 0.96507 0.24667 0.04200
C 	C 	0.24353 0.17287 0.28447 -0.17500
H 	H 	0.24493 0.20797 0.28397 0.09700
C 	C 	0.24323 0.06987 0.28457 -0.18500
H 	H 	0.24503 0.03637 0.28467 0.11300
C 	C 	0.25233 0.10227 0.33847 0.16100
C 	C 	0.25233 0.15147 0.33897 0.14700
C 	C 	0.06673 0.88807 0.22107 -0.02800
H 	H 	0.03553 0.87927 0.24667 0.04600
C 	C 	0.13213 0.86747 0.09487 -0.47500
H 	H 	0.11713 0.82687 0.09597 0.16700
H 	H 	0.17303 0.88677 0.09497 0.15900
H 	H 	0.11893 0.87727 0.05787 0.12700
C 	C 	0.15043 0.99917 0.02987 -0.03200
H 	H 	0.12143 0.99757 0.05467 -0.00500
C 	C 	0.28053 0.00017 0.00017 -0.62700
H 	H 	0.27413 0.96357 0.98647 0.20700
H 	H 	0.29593 0.00757 0.04157 0.18500
H 	H 	0.30683 0.02927 0.97247 0.20700
Cl	Cl	0.25973 0.07347 0.40557 -0.47400
N 	N 	0.94743 0.61957 0.17347 -0.30400
N 	N 	0.99373 0.71327 0.16037 -0.30000
C 	C 	0.94713 0.66677 0.16697 0.11200
H 	H 	0.91263 0.66667 0.16707 -0.06900
C 	C 	0.07733 0.63167 0.10517 0.12500
C 	C 	0.10753 0.68967 0.10157 0.08100
C 	C 	0.08473 0.72117 0.12377 0.14300
C 	C 	0.03153 0.69447 0.14957 -0.11300
C 	C 	0.00133 0.63647 0.15327 -0.22900
C 	C 	0.02413 0.60497 0.13097 0.12200
Cl	Cl	0.11923 0.60267 0.08567 -0.18800
Cl	Cl	0.13563 0.76387 0.35337 -1.47600
C 	C 	0.15443 0.89617 0.22077 -0.12100
C 	C 	0.10403 0.84597 0.22007 -0.07100
C 	C 	0.19683 0.90487 0.26677 0.68100
C 	C 	0.26963 0.13517 0.09357 -0.57600
H 	H 	0.30643 0.15437 0.11347 0.17400
H 	H 	0.26533 0.16167 0.06757 0.15800
H 	H 	0.26673 0.10437 0.06847 0.15900
C 	C 	0.17753 0.06537 0.21817 -0.05800
H 	H 	0.15523 0.03417 0.24377 0.04900
C 	C 	0.17763 0.11207 0.21847 -0.03800
H 	H 	0.15573 0.12097 0.24457 0.04000
C 	C 	0.10603 0.89537 0.13967 0.38500
C 	C 	0.09613 0.80217 0.26587 0.60100
C 	C 	0.18653 0.86437 0.30447 0.95100
C 	C 	0.27763 0.91047 0.14177 -0.08700
C 	C 	0.30533 0.96817 0.15017 0.24500
C 	C 	0.36323 0.99807 0.15547 0.11900
C 	C 	0.39353 0.97027 0.15257 -0.16400
C 	C 	0.36603 0.91267 0.14417 -0.15200
C 	C 	0.30803 0.88277 0.13887 0.15100
C 	C 	0.13773 0.81417 0.30327 0.11300
C 	C 	0.39333 0.97467 0.12867 0.06600
C 	C 	0.37963 0.92877 0.09367 0.23800
C 	C 	0.27533 0.91767 0.12267 0.03700
C 	C 	0.30903 0.89137 0.10467 0.16200
C 	C 	0.39133 0.96867 0.18567 -0.03100
C 	C 	0.35443 0.90367 0.19417 0.22400
C 	C 	0.27433 0.90867 0.17667 -0.09300
Cl	Cl	0.39603 0.87417 0.14067 0.05300
Cl	Cl	0.27693 0.81337 0.12667 -0.18100
Cl	Cl	0.27513 0.82557 0.07067 0.16400
Cl	Cl	0.39793 0.88157 0.08467 -0.19200
Cl	Cl	0.26783 0.81047 0.19767 0.06100
Cl	Cl	0.39313 0.88617 0.26467 0.27400
Cl	Cl	0.39013 0.87007 0.21367 -0.23300
C 	C 	0.29743 0.87727 0.18767 -0.10300
Cl	Cl	0.26033 0.18707 0.40547 -0.54100
Cl	Cl	0.09803 0.80227 0.31307 -0.91800
Zn	Zn	0.11945 0.45194 0.52666 1.17400
Zn	Zn	0.33249 0.45199 0.52662 1.17400
N 	N 	0.40120 0.51780 0.49390 -0.31300
N 	N 	0.33350 0.46940 0.71750 -0.31300
N 	N 	0.48220 0.59910 0.49380 -0.31300
N 	N 	0.18220 0.44630 0.49310 -0.25900
N 	N 	0.33340 0.46910 0.61600 -0.31200
N 	N 	0.26430 0.44690 0.49290 -0.26900
C 	C 	0.44490 0.55500 0.52410 0.21200
C 	C 	0.21780 0.43880 0.51700 -0.23100
C 	C 	0.33400 0.51570 0.69670 -0.00900
H 	H 	0.33520 0.54430 0.72180 -0.01200
C 	C 	0.33330 0.44240 0.66660 0.21500
C 	C 	0.47540 0.57610 0.43470 0.06300
C 	C 	0.42370 0.52530 0.43550 0.08200
C 	C 	0.26720 0.48830 0.44550 -0.00700
H 	H 	0.29840 0.51070 0.42000 0.04300
C 	C 	0.50620 0.59600 0.38220 -0.17500
H 	H 	0.54130 0.62970 0.38270 0.09700
C 	C 	0.40320 0.49330 0.38210 -0.18500
H 	H 	0.36970 0.45800 0.38200 0.11200
C 	C 	0.43560 0.51660 0.32820 0.16100
C 	C 	0.48480 0.56580 0.32770 0.14700
C 	C 	0.22140 0.48800 0.44560 -0.02800
H 	H 	0.21260 0.51040 0.42000 0.04600
C 	C 	0.20080 0.40200 0.57180 -0.47600
H 	H 	0.16020 0.37640 0.57070 0.16800
H 	H 	0.22010 0.38040 0.57170 0.16000
H 	H 	0.21060 0.42500 0.60880 0.12800
C 	C 	0.33250 0.51540 0.63680 -0.02200
H 	H 	0.33090 0.54280 0.61200 -0.00700
C 	C 	0.33350 0.38630 0.66650 -0.64100
H 	H 	0.29690 0.35610 0.68020 0.21000
H 	H 	0.34090 0.37830 0.62510 0.18800
H 	H 	0.36260 0.38910 0.69420 0.21200
Cl	Cl	0.40680 0.48040 0.26110 -0.47300
N 	N 	0.95290 0.33880 0.49320 -0.30500
N 	N 	0.04660 0.38620 0.50630 -0.30100
C 	C 	0.00010 0.38630 0.49970 0.11300
H 	H 	-0.00000 0.42070 0.49960 -0.06900
C 	C 	0.96500 0.22100 0.56150 0.12500
C 	C 	0.02300 0.24880 0.56510 0.07800
C 	C 	0.05450 0.30310 0.54290 0.14200
C 	C 	0.02780 0.32960 0.51710 -0.11400
C 	C 	0.96980 0.30180 0.51340 -0.23000
C 	C 	0.93830 0.24750 0.53570 0.12300
Cl	Cl	0.93600 0.15010 0.58100 -0.18600
Cl	Cl	0.09720 0.29490 0.31330 -1.47600
C 	C 	0.22950 0.40840 0.44590 -0.12000
C 	C 	0.17930 0.40860 0.44660 -0.07200
C 	C 	0.23820 0.37470 0.39990 0.68200
C 	C 	0.46850 0.53220 0.57310 -0.57500
H 	H 	0.48770 0.51460 0.55320 0.17300
H 	H 	0.49500 0.56300 0.59910 0.15800
H 	H 	0.43770 0.50430 0.59820 0.15800
C 	C 	0.39870 0.55450 0.44850 -0.05800
H 	H 	0.36750 0.54560 0.42290 0.04800
C 	C 	0.44540 0.60110 0.44820 -0.03900
H 	H 	0.45430 0.63190 0.42210 0.04000
C 	C 	0.22870 0.45600 0.52700 0.38500
C 	C 	0.13550 0.37270 0.40080 0.60100
C 	C 	0.19770 0.34450 0.36220 0.95000
C 	C 	0.24380 0.29950 0.52490 -0.08600
C 	C 	0.30150 0.32950 0.51650 0.25200
C 	C 	0.33140 0.30150 0.51120 0.12400
C 	C 	0.30360 0.24340 0.51410 -0.16300
C 	C 	0.24600 0.21330 0.52250 -0.14900
C 	C 	0.21610 0.24140 0.52780 0.15500
C 	C 	0.14750 0.34310 0.36340 0.11400
C 	C 	0.30800 0.24800 0.53800 0.06500
C 	C 	0.26210 0.21580 0.57300 0.23900
C 	C 	0.25100 0.30900 0.54400 0.03400
C 	C 	0.22470 0.24900 0.56200 0.15900
C 	C 	0.30200 0.24400 0.48100 -0.03100
C 	C 	0.23700 0.21590 0.47250 0.21700
C 	C 	0.24200 0.30100 0.49000 -0.09100
Cl	Cl	0.20750 0.14480 0.52600 0.05200
Cl	Cl	0.14670 0.20310 0.54000 -0.18100
Cl	Cl	0.15890 0.21710 0.59600 0.16400
Cl	Cl	0.21490 0.15030 0.58200 -0.18900
Cl	Cl	0.14380 0.20930 0.46900 0.06100
Cl	Cl	0.21950 0.15970 0.40200 0.27200
Cl	Cl	0.20340 0.14660 0.45300 -0.23100
C 	C 	0.21060 0.24650 0.47900 -0.10500
Cl	Cl	0.52040 0.59340 0.26120 -0.54000
Cl	Cl	0.13560 0.37090 0.35360 -0.91900
Zn	Zn	0.78612 0.78527 0.85999 1.17400
Zn	Zn	0.99916 0.78532 0.85995 1.17200
N 	N 	0.06787 0.85113 0.82723 -0.31300
N 	N 	0.00017 0.80273 0.05083 -0.31100
N 	N 	0.14887 0.93243 0.82713 -0.31300
N 	N 	0.84887 0.77963 0.82643 -0.25900
N 	N 	0.00007 0.80243 0.94933 -0.30500
N 	N 	0.93097 0.78023 0.82623 -0.26900
C 	C 	0.11157 0.88833 0.85743 0.21400
C 	C 	0.88447 0.77213 0.85033 -0.23100
C 	C 	0.00067 0.84903 0.03003 -0.00900
H 	H 	0.00187 0.87763 0.05513 -0.01200
C 	C 	0.99997 0.77573 0.99993 0.20200
C 	C 	0.14207 0.90943 0.76803 0.06300
C 	C 	0.09037 0.85863 0.76883 0.08200
C 	C 	0.93387 0.82163 0.77883 -0.00700
H 	H 	0.96507 0.84403 0.75333 0.04200
C 	C 	0.17287 0.92933 0.71553 -0.17500
H 	H 	0.20797 0.96303 0.71603 0.09700
C 	C 	0.06987 0.82663 0.71543 -0.18500
H 	H 	0.03637 0.79133 0.71533 0.11300
C 	C 	0.10227 0.84993 0.66153 0.16100
C 	C 	0.15147 0.89913 0.66103 0.14700
C 	C 	0.88807 0.82133 0.77893 -0.02800
H 	H 	0.87927 0.84373 0.75333 0.04600
C 	C 	0.86747 0.73533 0.90513 -0.47500
H 	H 	0.82687 0.70973 0.90403 0.16700
H 	H 	0.88677 0.71373 0.90503 0.16000
H 	H 	0.87727 0.75833 0.94213 0.12800
C 	C 	0.99917 0.84873 0.97013 -0.02600
H 	H 	0.99757 0.87613 0.94533 -0.00600
C 	C 	0.00017 0.71963 0.99983 -0.60800
H 	H 	0.96357 0.68943 0.01353 0.20000
H 	H 	0.00757 0.71163 0.95843 0.18000
H 	H 	0.02927 0.72243 0.02753 0.20000
Cl	Cl	0.07347 0.81373 0.59443 -0.47300
N 	N 	0.61957 0.67213 0.82653 -0.30400
N 	N 	0.71327 0.71953 0.83963 -0.30100
C 	C 	0.66677 0.71963 0.83303 0.11200
H 	H 	0.66667 0.75403 0.83293 -0.06900
C 	C 	0.63167 0.55433 0.89483 0.12600
C 	C 	0.68967 0.58213 0.89843 0.07900
C 	C 	0.72117 0.63643 0.87623 0.14300
C 	C 	0.69447 0.66293 0.85043 -0.11400
C 	C 	0.63647 0.63513 0.84673 -0.23000
C 	C 	0.60497 0.58083 0.86903 0.12200
Cl	Cl	0.60267 0.48343 0.91433 -0.18600
Cl	Cl	0.76387 0.62823 0.64663 -1.47600
C 	C 	0.89617 0.74173 0.77923 -0.12100
C 	C 	0.84597 0.74193 0.77993 -0.07200
C 	C 	0.90487 0.70803 0.73323 0.68100
C 	C 	0.13517 0.86553 0.90643 -0.57800
H 	H 	0.15437 0.84793 0.88653 0.17400
H 	H 	0.16167 0.89633 0.93243 0.16000
H 	H 	0.10437 0.83763 0.93153 0.16000
C 	C 	0.06537 0.88783 0.78183 -0.05800
H 	H 	0.03417 0.87893 0.75623 0.04900
C 	C 	0.11207 0.93443 0.78153 -0.03800
H 	H 	0.12097 0.96523 0.75543 0.04100
C 	C 	0.89537 0.78933 0.86033 0.38500
C 	C 	0.80217 0.70603 0.73413 0.60100
C 	C 	0.86437 0.67783 0.69553 0.95000
C 	C 	0.91047 0.63283 0.85823 -0.08800
C 	C 	0.96817 0.66283 0.84983 0.25300
C 	C 	0.99807 0.63483 0.84453 0.12500
C 	C 	0.97027 0.57673 0.84743 -0.16500
C 	C 	0.91267 0.54663 0.85583 -0.15200
C 	C 	0.88277 0.57473 0.86113 0.15100
C 	C 	0.81417 0.67643 0.69673 0.11400
C 	C 	0.97467 0.58133 0.87133 0.06500
C 	C 	0.92877 0.54913 0.90633 0.23900
C 	C 	0.91767 0.64233 0.87733 0.03600
C 	C 	0.89137 0.58233 0.89533 0.16200
C 	C 	0.96867 0.57733 0.81433 -0.03100
C 	C 	0.90367 0.54923 0.80583 0.22300
C 	C 	0.90867 0.63433 0.82333 -0.09200
Cl	Cl	0.87417 0.47813 0.85933 0.05300
Cl	Cl	0.81337 0.53643 0.87333 -0.18100
Cl	Cl	0.82557 0.55043 0.92933 0.16300
Cl	Cl	0.88157 0.48363 0.91533 -0.19100
Cl	Cl	0.81047 0.54263 0.80233 0.06100
Cl	Cl	0.88617 0.49303 0.73533 0.27400
Cl	Cl	0.87007 0.47993 0.78633 -0.23300
C 	C 	0.87727 0.57983 0.81233 -0.10400
Cl	Cl	0.18707 0.92673 0.59453 -0.54100
Cl	Cl	0.80227 0.70423 0.68693 -0.91900
Zn	Zn	0.45278 0.11861 0.19333 1.17400
Zn	Zn	0.66582 0.11866 0.19329 1.17400
N 	N 	0.73453 0.18447 0.16057 -0.31300
N 	N 	0.66683 0.13607 0.38417 -0.31300
N 	N 	0.81553 0.26577 0.16047 -0.31300
N 	N 	0.51553 0.11297 0.15977 -0.25900
N 	N 	0.66673 0.13577 0.28267 -0.31200
N 	N 	0.59763 0.11357 0.15957 -0.26900
C 	C 	0.77823 0.22167 0.19077 0.21200
C 	C 	0.55113 0.10547 0.18367 -0.23100
C 	C 	0.66733 0.18237 0.36337 -0.00900
H 	H 	0.66853 0.21097 0.38847 -0.01200
C 	C 	0.66663 0.10907 0.33327 0.21600
C 	C 	0.80873 0.24277 0.10137 0.06200
C 	C 	0.75703 0.19197 0.10217 0.08100
C 	C 	0.60053 0.15497 0.11217 -0.00700
H 	H 	0.63173 0.17737 0.08667 0.04300
C 	C 	0.83953 0.26267 0.04887 -0.17100
H 	H 	0.87463 0.29637 0.04937 0.09600
C 	C 	0.73653 0.15997 0.04877 -0.18100
H 	H 	0.70303 0.12467 0.04867 0.11200
C 	C 	0.76893 0.18327 0.99487 0.15700
C 	C 	0.81813 0.23247 0.99437 0.14300
C 	C 	0.55473 0.15467 0.11227 -0.02800
H 	H 	0.54593 0.17707 0.08667 0.04700
C 	C 	0.53413 0.06867 0.23847 -0.47700
H 	H 	0.49353 0.04307 0.23737 0.16900
H 	H 	0.55343 0.04707 0.23837 0.16100
H 	H 	0.54393 0.09167 0.27547 0.12900
C 	C 	0.66583 0.18207 0.30347 -0.02200
H 	H 	0.66423 0.20947 0.27867 -0.00700
C 	C 	0.66683 0.05297 0.33317 -0.64300
H 	H 	0.63023 0.02277 0.34687 0.21100
H 	H 	0.67423 0.04497 0.29177 0.18900
H 	H 	0.69593 0.05577 0.36087 0.21300
Cl	Cl	0.74013 0.14707 0.92777 -0.47500
N 	N 	0.28623 0.00547 0.15987 -0.30200
N 	N 	0.37993 0.05287 0.17297 -0.30000
C 	C 	0.33343 0.05297 0.16637 0.11200
H 	H 	0.33333 0.08737 0.16627 -0.06900
C 	C 	0.29833 0.88767 0.22817 0.12500
C 	C 	0.35633 0.91547 0.23177 0.07200
C 	C 	0.38783 0.96977 0.20957 0.14200
C 	C 	0.36113 0.99627 0.18377 -0.10900
C 	C 	0.30313 0.96847 0.18007 -0.22500
C 	C 	0.27163 0.91417 0.20237 0.12400
Cl	Cl	0.26933 0.81677 0.24767 -0.18500
Cl	Cl	0.43053 0.96157 0.97997 -1.47000
C 	C 	0.56283 0.07507 0.11257 -0.12000
C 	C 	0.51263 0.07527 0.11327 -0.07100
C 	C 	0.57153 0.04137 0.06657 0.68000
C 	C 	0.80183 0.19887 0.23977 -0.57500
H 	H 	0.82103 0.18127 0.21987 0.17300
H 	H 	0.82833 0.22967 0.26577 0.15800
H 	H 	0.77103 0.17097 0.26487 0.15800
C 	C 	0.73203 0.22117 0.11517 -0.05800
H 	H 	0.70083 0.21227 0.08957 0.04800
C 	C 	0.77873 0.26777 0.11487 -0.03800
H 	H 	0.78763 0.29857 0.08877 0.04000
C 	C 	0.56203 0.12267 0.19367 0.38500
C 	C 	0.46883 0.03937 0.06747 0.60100
C 	C 	0.53103 0.01117 0.02887 0.94500
C 	C 	0.57713 0.96617 0.19157 -0.08800
C 	C 	0.63483 0.99617 0.18317 0.25300
C 	C 	0.66473 0.96817 0.17787 0.12500
C 	C 	0.63693 0.91007 0.18077 -0.16400
C 	C 	0.57933 0.87997 0.18917 -0.14800
C 	C 	0.54943 0.90807 0.19447 0.15700
C 	C 	0.48083 0.00977 0.03007 0.11900
C 	C 	0.64133 0.91467 0.20467 0.06500
C 	C 	0.59543 0.88247 0.23967 0.23800
C 	C 	0.58433 0.97567 0.21067 0.03500
C 	C 	0.55803 0.91567 0.22867 0.15700
C 	C 	0.63533 0.91067 0.14767 -0.03200
C 	C 	0.57033 0.88257 0.13917 0.21500
C 	C 	0.57533 0.96767 0.15667 -0.09200
Cl	Cl	0.54083 0.81147 0.19267 0.05100
Cl	Cl	0.48003 0.86977 0.20667 -0.18200
Cl	Cl	0.49223 0.88377 0.26267 0.16500
Cl	Cl	0.54823 0.81697 0.24867 -0.18900
Cl	Cl	0.47713 0.87597 0.13567 0.06200
Cl	Cl	0.55283 0.82637 0.06867 0.27100
Cl	Cl	0.53673 0.81327 0.11967 -0.23100
C 	C 	0.54393 0.91317 0.14567 -0.10400
Cl	Cl	0.85373 0.26007 0.92787 -0.54100
Cl	Cl	0.46893 0.03757 0.02027 -0.92100
Zn	Zn	0.54806 0.66751 0.52666 1.17400
Zn	Zn	0.54801 0.88050 0.52662 1.17300
N 	N 	0.48220 0.88340 0.49390 -0.31400
N 	N 	0.53060 0.86410 0.71750 -0.31300
N 	N 	0.40090 0.88310 0.49380 -0.31300
N 	N 	0.55370 0.73590 0.49310 -0.25900
N 	N 	0.53090 0.86430 0.61600 -0.31200
N 	N 	0.55310 0.81740 0.49290 -0.26900
C 	C 	0.44500 0.88990 0.52410 0.21200
C 	C 	0.56120 0.77900 0.51700 -0.23100
C 	C 	0.48430 0.81830 0.69670 -0.00900
H 	H 	0.45570 0.79090 0.72180 -0.01200
C 	C 	0.55760 0.89090 0.66660 0.21500
C 	C 	0.42390 0.89930 0.43470 0.06300
C 	C 	0.47470 0.89840 0.43550 0.08200
C 	C 	0.51170 0.77890 0.44550 -0.00700
H 	H 	0.48930 0.78770 0.42000 0.04300
C 	C 	0.40400 0.91020 0.38220 -0.17500
H 	H 	0.37030 0.91160 0.38270 0.09700
C 	C 	0.50670 0.90990 0.38210 -0.18500
H 	H 	0.54200 0.91170 0.38200 0.11200
C 	C 	0.48340 0.91900 0.32820 0.16100
C 	C 	0.43420 0.91900 0.32770 0.14600
C 	C 	0.51200 0.73340 0.44560 -0.02800
H 	H 	0.48960 0.70220 0.42000 0.04600
C 	C 	0.59800 0.79880 0.57180 -0.47600
H 	H 	0.62360 0.78380 0.57070 0.16800
H 	H 	0.61960 0.83970 0.57170 0.16000
H 	H 	0.57500 0.78560 0.60880 0.12800
C 	C 	0.48460 0.81710 0.63680 -0.02200
H 	H 	0.45720 0.78810 0.61200 -0.00700
C 	C 	0.61370 0.94720 0.66650 -0.64100
H 	H 	0.64390 0.94080 0.68020 0.21000
H 	H 	0.62170 0.96260 0.62510 0.18800
H 	H 	0.61090 0.97350 0.69420 0.21200
Cl	Cl	0.51960 0.92640 0.26110 -0.47400
N 	N 	0.66120 0.61410 0.49320 -0.30400
N 	N 	0.61380 0.66040 0.50630 -0.30100
C 	C 	0.61370 0.61380 0.49970 0.11200
H 	H 	0.57930 0.57930 0.49960 -0.06900
C 	C 	0.77900 0.74400 0.56150 0.12600
C 	C 	0.75120 0.77420 0.56510 0.07800
C 	C 	0.69690 0.75140 0.54290 0.14200
C 	C 	0.67040 0.69820 0.51710 -0.11300
C 	C 	0.69820 0.66800 0.51340 -0.22900
C 	C 	0.75250 0.69080 0.53570 0.12200
Cl	Cl	0.84990 0.78590 0.58100 -0.18600
Cl	Cl	0.70510 0.80230 0.31330 -1.47300
C 	C 	0.59160 0.82110 0.44590 -0.12000
C 	C 	0.59140 0.77070 0.44660 -0.07100
C 	C 	0.62530 0.86350 0.39990 0.68100
C 	C 	0.46780 0.93630 0.57310 -0.57500
H 	H 	0.48540 0.97310 0.55320 0.17300
H 	H 	0.43700 0.93200 0.59910 0.15800
H 	H 	0.49570 0.93340 0.59820 0.15800
C 	C 	0.44550 0.84420 0.44850 -0.05800
H 	H 	0.45440 0.82190 0.42290 0.04800
C 	C 	0.39890 0.84430 0.44820 -0.03800
H 	H 	0.36810 0.82240 0.42210 0.04000
C 	C 	0.54400 0.77270 0.52700 0.38500
C 	C 	0.62730 0.76280 0.40080 0.60100
C 	C 	0.65550 0.85320 0.36220 0.94700
C 	C 	0.70050 0.94430 0.52490 -0.08700
C 	C 	0.67050 0.97200 0.51650 0.25200
C 	C 	0.69850 0.02990 0.51120 0.12600
C 	C 	0.75660 0.06020 0.51410 -0.16400
C 	C 	0.78670 0.03270 0.52250 -0.15100
C 	C 	0.75860 0.97470 0.52780 0.15300
C 	C 	0.65690 0.80440 0.36340 0.11600
C 	C 	0.75200 0.06000 0.53800 0.06400
C 	C 	0.78420 0.04630 0.57300 0.24100
C 	C 	0.69100 0.94200 0.54400 0.03400
C 	C 	0.75100 0.97570 0.56200 0.16000
C 	C 	0.75600 0.05800 0.48100 -0.03000
C 	C 	0.78410 0.02110 0.47250 0.22100
C 	C 	0.69900 0.94100 0.49000 -0.09100
Cl	Cl	0.85520 0.06270 0.52600 0.05300
Cl	Cl	0.79690 0.94360 0.54000 -0.18100
Cl	Cl	0.78290 0.94180 0.59600 0.16400
Cl	Cl	0.84970 0.06460 0.58200 -0.19000
Cl	Cl	0.79070 0.93450 0.46900 0.06100
Cl	Cl	0.84030 0.05980 0.40200 0.27300
Cl	Cl	0.85340 0.05680 0.45300 -0.23200
C 	C 	0.75350 0.96410 0.47900 -0.10500
Cl	Cl	0.40660 0.92700 0.26120 -0.54100
Cl	Cl	0.62910 0.76470 0.35360 -0.92000
Zn	Zn	0.21473 0.00084 0.85999 1.17400
Zn	Zn	0.21468 0.21383 0.85995 1.17400
N 	N 	0.14887 0.21673 0.82723 -0.31400
N 	N 	0.19727 0.19743 0.05083 -0.31200
N 	N 	0.06757 0.21643 0.82713 -0.31200
N 	N 	0.22037 0.06923 0.82643 -0.25900
N 	N 	0.19757 0.19763 0.94933 -0.31200
N 	N 	0.21977 0.15073 0.82623 -0.26900
C 	C 	0.11167 0.22323 0.85743 0.21300
C 	C 	0.22787 0.11233 0.85033 -0.23100
C 	C 	0.15097 0.15163 0.03003 -0.00900
H 	H 	0.12237 0.12423 0.05513 -0.01100
C 	C 	0.22427 0.22423 0.99993 0.21500
C 	C 	0.09057 0.23263 0.76803 0.06300
C 	C 	0.14137 0.23173 0.76883 0.08100
C 	C 	0.17837 0.11223 0.77883 -0.00700
H 	H 	0.15597 0.12103 0.75333 0.04300
C 	C 	0.07067 0.24353 0.71553 -0.17500
H 	H 	0.03697 0.24493 0.71603 0.09800
C 	C 	0.17337 0.24323 0.71543 -0.18500
H 	H 	0.20867 0.24503 0.71533 0.11200
C 	C 	0.15007 0.25233 0.66153 0.16100
C 	C 	0.10087 0.25233 0.66103 0.14700
C 	C 	0.17867 0.06673 0.77893 -0.02800
H 	H 	0.15627 0.03553 0.75333 0.04600
C 	C 	0.26467 0.13213 0.90513 -0.47600
H 	H 	0.29027 0.11713 0.90403 0.16800
H 	H 	0.28627 0.17303 0.90503 0.16000
H 	H 	0.24167 0.11893 0.94213 0.12800
C 	C 	0.15127 0.15043 0.97013 -0.02300
H 	H 	0.12387 0.12143 0.94533 -0.00700
C 	C 	0.28037 0.28053 0.99983 -0.64200
H 	H 	0.31057 0.27413 0.01353 0.21000
H 	H 	0.28837 0.29593 0.95843 0.18900
H 	H 	0.27757 0.30683 0.02753 0.21200
Cl	Cl	0.18627 0.25973 0.59443 -0.47300
N 	N 	0.32787 0.94743 0.82653 -0.30400
N 	N 	0.28047 0.99373 0.83963 -0.30000
C 	C 	0.28037 0.94713 0.83303 0.11200
H 	H 	0.24597 0.91263 0.83293 -0.06900
C 	C 	0.44567 0.07733 0.89483 0.12600
C 	C 	0.41787 0.10753 0.89843 0.08000
C 	C 	0.36357 0.08473 0.87623 0.14300
C 	C 	0.33707 0.03153 0.85043 -0.11400
C 	C 	0.36487 0.00133 0.84673 -0.23100
C 	C 	0.41917 0.02413 0.86903 0.12200
Cl	Cl	0.51657 0.11923 0.91433 -0.18700
Cl	Cl	0.37177 0.13563 0.64663 -1.47300
C 	C 	0.25827 0.15443 0.77923 -0.12000
C 	C 	0.25807 0.10403 0.77993 -0.07200
C 	C 	0.29197 0.19683 0.73323 0.68100
C 	C 	0.13447 0.26963 0.90643 -0.57600
H 	H 	0.15207 0.30643 0.88653 0.17400
H 	H 	0.10367 0.26533 0.93243 0.15900
H 	H 	0.16237 0.26673 0.93153 0.15800
C 	C 	0.11217 0.17753 0.78183 -0.05800
H 	H 	0.12107 0.15523 0.75623 0.04800
C 	C 	0.06557 0.17763 0.78153 -0.03900
H 	H 	0.03477 0.15573 0.75543 0.04100
C 	C 	0.21067 0.10603 0.86033 0.38500
C 	C 	0.29397 0.09613 0.73413 0.60100
C 	C 	0.32217 0.18653 0.69553 0.94600
C 	C 	0.36717 0.27763 0.85823 -0.08600
C 	C 	0.33717 0.30533 0.84983 0.25100
C 	C 	0.36517 0.36323 0.84453 0.12300
C 	C 	0.42327 0.39353 0.84743 -0.16300
C 	C 	0.45337 0.36603 0.85583 -0.14900
C 	C 	0.42527 0.30803 0.86113 0.15400
C 	C 	0.32357 0.13773 0.69673 0.11700
C 	C 	0.41867 0.39333 0.87133 0.06500
C 	C 	0.45087 0.37963 0.90633 0.23900
C 	C 	0.35767 0.27533 0.87733 0.03500
C 	C 	0.41767 0.30903 0.89533 0.15900
C 	C 	0.42267 0.39133 0.81433 -0.03100
C 	C 	0.45077 0.35443 0.80583 0.21800
C 	C 	0.36567 0.27433 0.82333 -0.09100
Cl	Cl	0.52187 0.39603 0.85933 0.05200
Cl	Cl	0.46357 0.27693 0.87333 -0.18100
Cl	Cl	0.44957 0.27513 0.92933 0.16300
Cl	Cl	0.51637 0.39793 0.91533 -0.19000
Cl	Cl	0.45737 0.26783 0.80233 0.06100
Cl	Cl	0.50697 0.39313 0.73533 0.27200
Cl	Cl	0.52007 0.39013 0.78633 -0.23100
C 	C 	0.42017 0.29743 0.81233 -0.10400
Cl	Cl	0.07327 0.26033 0.59453 -0.54200
Cl	Cl	0.29577 0.09803 0.68693 -0.92000
Zn	Zn	0.88139 0.33418 0.19333 1.17400
Zn	Zn	0.88134 0.54717 0.19329 1.17400
N 	N 	0.81553 0.55007 0.16057 -0.31300
N 	N 	0.86393 0.53077 0.38417 -0.31300
N 	N 	0.73423 0.54977 0.16047 -0.31300
N 	N 	0.88703 0.40257 0.15977 -0.25900
N 	N 	0.86423 0.53097 0.28267 -0.31200
N 	N 	0.88643 0.48407 0.15957 -0.26900
C 	C 	0.77833 0.55657 0.19077 0.21200
C 	C 	0.89453 0.44567 0.18367 -0.23100
C 	C 	0.81763 0.48497 0.36337 -0.00900
H 	H 	0.78903 0.45757 0.38847 -0.01200
C 	C 	0.89093 0.55757 0.33327 0.21500
C 	C 	0.75723 0.56597 0.10137 0.06300
C 	C 	0.80803 0.56507 0.10217 0.08100
C 	C 	0.84503 0.44557 0.11217 -0.00700
H 	H 	0.82263 0.45437 0.08667 0.04300
C 	C 	0.73733 0.57687 0.04887 -0.17400
H 	H 	0.70363 0.57827 0.04937 0.09700
C 	C 	0.84003 0.57657 0.04877 -0.18300
H 	H 	0.87533 0.57837 0.04867 0.11200
C 	C 	0.81673 0.58567 0.99487 0.15900
C 	C 	0.76753 0.58567 0.99437 0.14600
C 	C 	0.84533 0.40007 0.11227 -0.02800
H 	H 	0.82293 0.36887 0.08667 0.04700
C 	C 	0.93133 0.46547 0.23847 -0.47600
H 	H 	0.95693 0.45047 0.23737 0.16800
H 	H 	0.95293 0.50637 0.23837 0.16000
H 	H 	0.90833 0.45227 0.27547 0.12800
C 	C 	0.81793 0.48377 0.30347 -0.02200
H 	H 	0.79053 0.45477 0.27867 -0.00700
C 	C 	0.94703 0.61387 0.33317 -0.64200
H 	H 	0.97723 0.60747 0.34687 0.21000
H 	H 	0.95503 0.62927 0.29177 0.18900
H 	H 	0.94423 0.64017 0.36087 0.21200
Cl	Cl	0.85293 0.59307 0.92777 -0.47400
N 	N 	0.99453 0.28077 0.15987 -0.30300
N 	N 	0.94713 0.32707 0.17297 -0.30000
C 	C 	0.94703 0.28047 0.16637 0.11200
H 	H 	0.91263 0.24597 0.16627 -0.06900
C 	C 	0.11233 0.41067 0.22817 0.12600
C 	C 	0.08453 0.44087 0.23177 0.07400
C 	C 	0.03023 0.41807 0.20957 0.14200
C 	C 	0.00373 0.36487 0.18377 -0.11200
C 	C 	0.03153 0.33467 0.18007 -0.22800
C 	C 	0.08583 0.35747 0.20237 0.12300
Cl	Cl	0.18323 0.45257 0.24767 -0.18500
Cl	Cl	0.03843 0.46897 0.97997 -1.47600
C 	C 	0.92493 0.48777 0.11257 -0.12000
C 	C 	0.92473 0.43737 0.11327 -0.07100
C 	C 	0.95863 0.53017 0.06657 0.68200
C 	C 	0.80113 0.60297 0.23977 -0.57500
H 	H 	0.81873 0.63977 0.21987 0.17300
H 	H 	0.77033 0.59867 0.26577 0.15800
H 	H 	0.82903 0.60007 0.26487 0.15800
C 	C 	0.77883 0.51087 0.11517 -0.05800
H 	H 	0.78773 0.48857 0.08957 0.04800
C 	C 	0.73223 0.51097 0.11487 -0.03900
H 	H 	0.70143 0.48907 0.08877 0.04000
C 	C 	0.87733 0.43937 0.19367 0.38500
C 	C 	0.96063 0.42947 0.06747 0.60200
C 	C 	0.98883 0.51987 0.02887 0.95100
C 	C 	0.03383 0.61097 0.19157 -0.08600
C 	C 	0.00383 0.63867 0.18317 0.25100
C 	C 	0.03183 0.69657 0.17787 0.12400
C 	C 	0.08993 0.72687 0.18077 -0.16300
C 	C 	0.12003 0.69937 0.18917 -0.14700
C 	C 	0.09193 0.64137 0.19447 0.15700
C 	C 	0.99023 0.47107 0.03007 0.11200
C 	C 	0.08533 0.72667 0.20467 0.06500
C 	C 	0.11753 0.71297 0.23967 0.23900
C 	C 	0.02433 0.60867 0.21067 0.03400
C 	C 	0.08433 0.64237 0.22867 0.15600
C 	C 	0.08933 0.72467 0.14767 -0.03200
C 	C 	0.11743 0.68777 0.13917 0.21300
C 	C 	0.03233 0.60767 0.15667 -0.09100
Cl	Cl	0.18853 0.72937 0.19267 0.05100
Cl	Cl	0.13023 0.61027 0.20667 -0.18200
Cl	Cl	0.11623 0.60847 0.26267 0.16400
Cl	Cl	0.18303 0.73127 0.24867 -0.18900
Cl	Cl	0.12403 0.60117 0.13567 0.06200
Cl	Cl	0.17363 0.72647 0.06867 0.27100
Cl	Cl	0.18673 0.72347 0.11967 -0.23000
C 	C 	0.08683 0.63077 0.14567 -0.10500
Cl	Cl	0.73993 0.59367 0.92787 -0.54100
Cl	Cl	0.96243 0.43137 0.02027 -0.91800
Zn	Zn	0.33249 0.88055 0.52666 1.17400
Zn	Zn	0.11950 0.66751 0.52662 1.17400
N 	N 	0.11660 0.59880 0.49390 -0.31400
N 	N 	0.13590 0.66650 0.71750 -0.31300
N 	N 	0.11690 0.51780 0.49380 -0.31300
N 	N 	0.26410 0.81780 0.49310 -0.25900
N 	N 	0.13570 0.66660 0.61600 -0.31200
N 	N 	0.18260 0.73570 0.49290 -0.26900
C 	C 	0.11010 0.55510 0.52410 0.21200
C 	C 	0.22100 0.78220 0.51700 -0.23100
C 	C 	0.18170 0.66600 0.69670 -0.00900
H 	H 	0.20910 0.66480 0.72180 -0.01200
C 	C 	0.10910 0.66670 0.66660 0.21600
C 	C 	0.10070 0.52460 0.43470 0.06300
C 	C 	0.10160 0.57630 0.43550 0.08200
C 	C 	0.22110 0.73280 0.44550 -0.00700
H 	H 	0.21230 0.70160 0.42000 0.04300
C 	C 	0.08980 0.49380 0.38220 -0.17500
H 	H 	0.08840 0.45870 0.38270 0.09700
C 	C 	0.09010 0.59680 0.38210 -0.18500
H 	H 	0.08830 0.63030 0.38200 0.11200
C 	C 	0.08100 0.56440 0.32820 0.16100
C 	C 	0.08100 0.51520 0.32770 0.14600
C 	C 	0.26660 0.77860 0.44560 -0.02800
H 	H 	0.29780 0.78740 0.42000 0.04600
C 	C 	0.20120 0.79920 0.57180 -0.47600
H 	H 	0.21620 0.83980 0.57070 0.16800
H 	H 	0.16030 0.77990 0.57170 0.16000
H 	H 	0.21440 0.78940 0.60880 0.12800
C 	C 	0.18290 0.66750 0.63680 -0.02200
H 	H 	0.21190 0.66910 0.61200 -0.00700
C 	C 	0.05280 0.66650 0.66650 -0.64300
H 	H 	0.05920 0.70310 0.68020 0.21100
H 	H 	0.03740 0.65910 0.62510 0.19000
H 	H 	0.02650 0.63740 0.69420 0.21300
Cl	Cl	0.07360 0.59320 0.26110 -0.47300
N 	N 	0.38590 0.04710 0.49320 -0.30400
N 	N 	0.33960 0.95340 0.50630 -0.30000
C 	C 	0.38620 0.99990 0.49970 0.10900
H 	H 	0.42070 0.00000 0.49960 -0.06700
C 	C 	0.25600 0.03500 0.56150 0.12700
C 	C 	0.22580 0.97700 0.56510 0.08000
C 	C 	0.24860 0.94550 0.54290 0.14300
C 	C 	0.30180 0.97220 0.51710 -0.11400
C 	C 	0.33200 0.03020 0.51340 -0.22800
C 	C 	0.30920 0.06170 0.53570 0.12200
Cl	Cl	0.21410 0.06400 0.58100 -0.18600
Cl	Cl	0.19770 0.90280 0.31330 -1.47700
C 	C 	0.17890 0.77050 0.44590 -0.12000
C 	C 	0.22930 0.82070 0.44660 -0.07200
C 	C 	0.13650 0.76180 0.39990 0.68200
C 	C 	0.06370 0.53150 0.57310 -0.57600
H 	H 	0.02690 0.51230 0.55320 0.17400
H 	H 	0.06800 0.50500 0.59910 0.15800
H 	H 	0.06660 0.56230 0.59820 0.15800
C 	C 	0.15580 0.60130 0.44850 -0.05800
H 	H 	0.17810 0.63250 0.42290 0.04800
C 	C 	0.15570 0.55460 0.44820 -0.03900
H 	H 	0.17760 0.54570 0.42210 0.04000
C 	C 	0.22730 0.77130 0.52700 0.38500
C 	C 	0.23720 0.86450 0.40080 0.60100
C 	C 	0.14680 0.80230 0.36220 0.95000
C 	C 	0.05570 0.75620 0.52490 -0.08500
C 	C 	0.02800 0.69850 0.51650 0.25200
C 	C 	0.97010 0.66860 0.51120 0.12300
C 	C 	0.93980 0.69640 0.51410 -0.16300
C 	C 	0.96730 0.75400 0.52250 -0.14700
C 	C 	0.02530 0.78390 0.52780 0.15700
C 	C 	0.19560 0.85250 0.36340 0.11400
C 	C 	0.94000 0.69200 0.53800 0.06500
C 	C 	0.95370 0.73790 0.57300 0.23700
C 	C 	0.05800 0.74900 0.54400 0.03300
C 	C 	0.02430 0.77530 0.56200 0.15800
C 	C 	0.94200 0.69800 0.48100 -0.03200
C 	C 	0.97890 0.76300 0.47250 0.21200
C 	C 	0.05900 0.75800 0.49000 -0.09000
Cl	Cl	0.93730 0.79250 0.52600 0.05100
Cl	Cl	0.05640 0.85330 0.54000 -0.18200
Cl	Cl	0.05820 0.84110 0.59600 0.16500
Cl	Cl	0.93540 0.78510 0.58200 -0.18900
Cl	Cl	0.06550 0.85620 0.46900 0.06200
Cl	Cl	0.94020 0.78050 0.40200 0.27100
Cl	Cl	0.94320 0.79660 0.45300 -0.23000
C 	C 	0.03590 0.78940 0.47900 -0.10500
Cl	Cl	0.07300 0.47960 0.26120 -0.54000
Cl	Cl	0.23530 0.86440 0.35360 -0.91900
Zn	Zn	0.99916 0.21388 0.85999 1.17300
Zn	Zn	0.78617 0.00084 0.85995 1.17300
N 	N 	0.78327 0.93213 0.82723 -0.31300
N 	N 	0.80257 0.99983 0.05083 -0.31300
N 	N 	0.78357 0.85113 0.82713 -0.31300
N 	N 	0.93077 0.15113 0.82643 -0.25900
N 	N 	0.80237 0.99993 0.94933 -0.30900
N 	N 	0.84927 0.06903 0.82623 -0.26900
C 	C 	0.77677 0.88843 0.85743 0.21300
C 	C 	0.88767 0.11553 0.85033 -0.23100
C 	C 	0.84837 0.99933 0.03003 -0.00700
H 	H 	0.87577 0.99813 0.05513 -0.01300
C 	C 	0.77577 0.00003 0.99993 0.21100
C 	C 	0.76737 0.85793 0.76803 0.06300
C 	C 	0.76827 0.90963 0.76883 0.08200
C 	C 	0.88777 0.06613 0.77883 -0.00700
H 	H 	0.87897 0.03493 0.75333 0.04300
C 	C 	0.75647 0.82713 0.71553 -0.17500
H 	H 	0.75507 0.79203 0.71603 0.09700
C 	C 	0.75677 0.93013 0.71543 -0.18500
H 	H 	0.75497 0.96363 0.71533 0.11200
C 	C 	0.74767 0.89773 0.66153 0.16100
C 	C 	0.74767 0.84853 0.66103 0.14700
C 	C 	0.93327 0.11193 0.77893 -0.02800
H 	H 	0.96447 0.12073 0.75333 0.04600
C 	C 	0.86787 0.13253 0.90513 -0.47500
H 	H 	0.88287 0.17313 0.90403 0.16700
H 	H 	0.82697 0.11323 0.90503 0.15900
H 	H 	0.88107 0.12273 0.94213 0.12700
C 	C 	0.84957 0.00083 0.97013 -0.02600
H 	H 	0.87857 0.00243 0.94533 -0.00600
C 	C 	0.71947 0.99983 0.99983 -0.63900
H 	H 	0.72587 0.03643 0.01353 0.21100
H 	H 	0.70407 0.99243 0.95843 0.18800
H 	H 	0.69317 0.97073 0.02753 0.21000
Cl	Cl	0.74027 0.92653 0.59443 -0.47400
N 	N 	0.05257 0.38043 0.82653 -0.30300
N 	N 	0.00627 0.28673 0.83963 -0.29900
C 	C 	0.05287 0.33323 0.83303 0.11200
H 	H 	0.08737 0.33333 0.83293 -0.06900
C 	C 	0.92267 0.36833 0.89483 0.12400
C 	C 	0.89247 0.31033 0.89843 0.07900
C 	C 	0.91527 0.27883 0.87623 0.14300
C 	C 	0.96847 0.30553 0.85043 -0.11500
C 	C 	0.99867 0.36353 0.84673 -0.23100
C 	C 	0.97587 0.39503 0.86903 0.12300
Cl	Cl	0.88077 0.39733 0.91433 -0.18800
Cl	Cl	0.86437 0.23613 0.64663 -1.47700
C 	C 	0.84557 0.10383 0.77923 -0.12000
C 	C 	0.89597 0.15403 0.77993 -0.07200
C 	C 	0.80317 0.09513 0.73323 0.68100
C 	C 	0.73037 0.86483 0.90643 -0.57600
H 	H 	0.69357 0.84563 0.88653 0.17300
H 	H 	0.73467 0.83833 0.93243 0.15800
H 	H 	0.73327 0.89563 0.93153 0.15800
C 	C 	0.82247 0.93463 0.78183 -0.05800
H 	H 	0.84477 0.96583 0.75623 0.04800
C 	C 	0.82237 0.88793 0.78153 -0.03900
H 	H 	0.84427 0.87903 0.75543 0.04000
C 	C 	0.89397 0.10463 0.86033 0.38500
C 	C 	0.90387 0.19783 0.73413 0.60100
C 	C 	0.81347 0.13563 0.69553 0.95000
C 	C 	0.72237 0.08953 0.85823 -0.08600
C 	C 	0.69467 0.03183 0.84983 0.24200
C 	C 	0.63677 0.00193 0.84453 0.11600
C 	C 	0.60647 0.02973 0.84743 -0.16200
C 	C 	0.63397 0.08733 0.85583 -0.15200
C 	C 	0.69197 0.11723 0.86113 0.15200
C 	C 	0.86227 0.18583 0.69673 0.11400
C 	C 	0.60667 0.02533 0.87133 0.06600
C 	C 	0.62037 0.07123 0.90633 0.23900
C 	C 	0.72467 0.08233 0.87733 0.03700
C 	C 	0.69097 0.10863 0.89533 0.16100
C 	C 	0.60867 0.03133 0.81433 -0.03100
C 	C 	0.64557 0.09633 0.80583 0.22200
C 	C 	0.72567 0.09133 0.82333 -0.09300
Cl	Cl	0.60397 0.12583 0.85933 0.05300
Cl	Cl	0.72307 0.18663 0.87333 -0.18100
Cl	Cl	0.72487 0.17443 0.92933 0.16400
Cl	Cl	0.60207 0.11843 0.91533 -0.19100
Cl	Cl	0.73217 0.18953 0.80233 0.06100
Cl	Cl	0.60687 0.11383 0.73533 0.27200
Cl	Cl	0.60987 0.12993 0.78633 -0.23200
C 	C 	0.70257 0.12273 0.81233 -0.10300
Cl	Cl	0.73967 0.81293 0.59453 -0.54100
Cl	Cl	0.90197 0.19773 0.68693 -0.92000
Zn	Zn	0.66582 0.54722 0.19333 1.17400
Zn	Zn	0.45283 0.33418 0.19329 1.17400
N 	N 	0.44993 0.26547 0.16057 -0.31300
N 	N 	0.46923 0.33317 0.38417 -0.31300
N 	N 	0.45023 0.18447 0.16047 -0.31300
N 	N 	0.59743 0.48447 0.15977 -0.25900
N 	N 	0.46903 0.33327 0.28267 -0.31200
N 	N 	0.51593 0.40237 0.15957 -0.26900
C 	C 	0.44343 0.22177 0.19077 0.21200
C 	C 	0.55433 0.44887 0.18367 -0.23100
C 	C 	0.51503 0.33267 0.36337 -0.00900
H 	H 	0.54243 0.33147 0.38847 -0.01200
C 	C 	0.44243 0.33337 0.33327 0.21500
C 	C 	0.43403 0.19127 0.10137 0.06300
C 	C 	0.43493 0.24297 0.10217 0.08200
C 	C 	0.55443 0.39947 0.11217 -0.00700
H 	H 	0.54563 0.36827 0.08667 0.04300
C 	C 	0.42313 0.16047 0.04887 -0.17400
H 	H 	0.42173 0.12537 0.04937 0.09700
C 	C 	0.42343 0.26347 0.04877 -0.18400
H 	H 	0.42163 0.29697 0.04867 0.11200
C 	C 	0.41433 0.23107 0.99487 0.16000
C 	C 	0.41433 0.18187 0.99437 0.14500
C 	C 	0.59993 0.44527 0.11227 -0.02800
H 	H 	0.63113 0.45407 0.08667 0.04600
C 	C 	0.53453 0.46587 0.23847 -0.47600
H 	H 	0.54953 0.50647 0.23737 0.16800
H 	H 	0.49363 0.44657 0.23837 0.16000
H 	H 	0.54773 0.45607 0.27547 0.12800
C 	C 	0.51623 0.33417 0.30347 -0.02200
H 	H 	0.54523 0.33577 0.27867 -0.00700
C 	C 	0.38613 0.33317 0.33317 -0.64100
H 	H 	0.39253 0.36977 0.34687 0.21000
H 	H 	0.37073 0.32577 0.29177 0.18800
H 	H 	0.35983 0.30407 0.36087 0.21200
Cl	Cl	0.40693 0.25987 0.92777 -0.47300
N 	N 	0.71923 0.71377 0.15987 -0.30400
N 	N 	0.67293 0.62007 0.17297 -0.30100
C 	C 	0.71953 0.66657 0.16637 0.11200
H 	H 	0.75403 0.66667 0.16627 -0.06900
C 	C 	0.58933 0.70167 0.22817 0.12600
C 	C 	0.55913 0.64367 0.23177 0.07700
C 	C 	0.58193 0.61217 0.20957 0.14200
C 	C 	0.63513 0.63887 0.18377 -0.11200
C 	C 	0.66533 0.69687 0.18007 -0.22800
C 	C 	0.64253 0.72837 0.20237 0.12300
Cl	Cl	0.54743 0.73067 0.24767 -0.18600
Cl	Cl	0.53103 0.56947 0.97997 -1.47100
C 	C 	0.51223 0.43717 0.11257 -0.12000
C 	C 	0.56263 0.48737 0.11327 -0.07200
C 	C 	0.46983 0.42847 0.06657 0.68000
C 	C 	0.39703 0.19817 0.23977 -0.57500
H 	H 	0.36023 0.17897 0.21987 0.17300
H 	H 	0.40133 0.17167 0.26577 0.15800
H 	H 	0.39993 0.22897 0.26487 0.15800
C 	C 	0.48913 0.26797 0.11517 -0.05800
H 	H 	0.51143 0.29917 0.08957 0.04800
C 	C 	0.48903 0.22127 0.11487 -0.03800
H 	H 	0.51093 0.21237 0.08877 0.04000
C 	C 	0.56063 0.43797 0.19367 0.38500
C 	C 	0.57053 0.53117 0.06747 0.60100
C 	C 	0.48013 0.46897 0.02887 0.94400
C 	C 	0.38903 0.42287 0.19157 -0.08600
C 	C 	0.36133 0.36517 0.18317 0.25300
C 	C 	0.30343 0.33527 0.17787 0.12500
C 	C 	0.27313 0.36307 0.18077 -0.16300
C 	C 	0.30063 0.42067 0.18917 -0.14800
C 	C 	0.35863 0.45057 0.19447 0.15500
C 	C 	0.52893 0.51917 0.03007 0.11800
C 	C 	0.27333 0.35867 0.20467 0.06500
C 	C 	0.28703 0.40457 0.23967 0.23900
C 	C 	0.39133 0.41567 0.21067 0.03400
C 	C 	0.35763 0.44197 0.22867 0.15800
C 	C 	0.27533 0.36467 0.14767 -0.03100
C 	C 	0.31223 0.42967 0.13917 0.21500
C 	C 	0.39233 0.42467 0.15667 -0.09000
Cl	Cl	0.27063 0.45917 0.19267 0.05100
Cl	Cl	0.38973 0.51997 0.20667 -0.18100
Cl	Cl	0.39153 0.50777 0.26267 0.16400
Cl	Cl	0.26873 0.45177 0.24867 -0.18900
Cl	Cl	0.39883 0.52287 0.13567 0.06200
Cl	Cl	0.27353 0.44717 0.06867 0.27100
Cl	Cl	0.27653 0.46327 0.11967 -0.23000
C 	C 	0.36923 0.45607 0.14567 -0.10500
Cl	Cl	0.40633 0.14627 0.92787 -0.54100
Cl	Cl	0.56863 0.53107 0.02027 -0.92200
