data_crystal

_cell_length_a 27.63100
_cell_length_b 27.63100
_cell_length_c 22.82700
_cell_angle_alpha 90.00000
_cell_angle_beta  90.00000
_cell_angle_gamma 120.00000

_symmetry_space_group_name_	'P 1'
_symmetry_space_group_name_H-M	'P 1'

loop_
_symmetry_equiv_pos_as_xyz
  x,y,z

loop_
_atom_site_label
_atom_site_type_symbol
_atom_site_fract_x
_atom_site_fract_y
_atom_site_fract_z
_atom_site_charge
Zn	Zn	0.88136 0.54866 0.46734 1.17900
Zn	Zn	0.66734 0.54872 0.46718 1.17700
N 	N 	0.60230 0.47970 0.49850 -0.31400
N 	N 	0.66560 0.53100 0.28790 -0.29800
N 	N 	0.51910 0.40240 0.49800 -0.36500
N 	N 	0.66530 0.53070 0.37960 -0.30600
C 	C 	0.55420 0.44440 0.46780 0.31800
C 	C 	0.66480 0.48230 0.30030 -0.01600
H 	H 	0.66280 0.45470 0.27420 -0.00500
C 	C 	0.66720 0.55850 0.33390 0.25800
C 	C 	0.52350 0.42610 0.55060 0.34800
C 	C 	0.57330 0.47680 0.55360 -0.19500
C 	C 	0.59060 0.50510 0.60670 0.14500
H 	H 	0.62460 0.53970 0.60880 -0.05400
C 	C 	0.55820 0.48270 0.65660 -0.36300
C 	C 	0.50840 0.43200 0.65360 0.86000
C 	C 	0.49110 0.40370 0.60050 -0.65500
H 	H 	0.45700 0.36910 0.59840 0.28900
N 	N 	0.81930 0.55520 0.49880 -0.29300
C 	C 	0.78400 0.51500 0.54000 -0.00200
C 	C 	0.72790 0.50820 0.54400 -0.04200
N 	N 	0.73660 0.55620 0.49920 -0.27600
C 	C 	0.66750 0.48350 0.35880 -0.01700
H 	H 	0.67040 0.45690 0.38270 0.00100
C 	C 	0.66380 0.61530 0.33710 -0.71400
H 	H 	0.69640 0.64400 0.35830 0.23100
H 	H 	0.62960 0.60780 0.35760 0.29500
H 	H 	0.66340 0.62840 0.29730 0.26300
Br	Br	0.60130 0.51760 0.73240 0.37600
C 	C 	0.78270 0.55370 0.47140 0.09200
N 	N 	0.04610 0.65970 0.50810 -0.28500
N 	N 	0.95490 0.61370 0.49020 -0.27000
C 	C 	0.00040 0.61190 0.49870 0.02900
Br	Br	0.08530 0.86710 0.43350 -6.01700
C 	C 	0.03430 0.78240 0.46500 -0.68700
C 	C 	0.97640 0.75530 0.46100 0.87600
C 	C 	0.94470 0.69810 0.47050 -0.08300
C 	C 	0.97090 0.66800 0.48500 0.26000
C 	C 	0.02880 0.69510 0.49000 0.63900
C 	C 	0.06050 0.75230 0.48030 0.36600
C 	C 	0.82020 0.58600 0.55200 0.04200
C 	C 	0.84210 0.58600 0.60690 -0.01000
C 	C 	0.82010 0.59700 0.65660 0.39200
C 	C 	0.77620 0.60800 0.65150 -0.07000
C 	C 	0.75420 0.60800 0.59670 0.05400
C 	C 	0.77600 0.59700 0.54690 0.00500
C 	C 	0.53300 0.46400 0.42400 -0.79100
H 	H 	0.49320 0.44870 0.42990 0.22300
H 	H 	0.54010 0.45270 0.38580 0.24200
H 	H 	0.55240 0.50510 0.42610 0.22400
C 	C 	0.60600 0.44170 0.54100 0.15800
H 	H 	0.63800 0.45010 0.56340 -0.04300
C 	C 	0.56320 0.40000 0.54300 -0.23900
H 	H 	0.55570 0.36860 0.56700 0.10200
C 	C 	0.75560 0.69890 0.47490 -0.33200
C 	C 	0.69820 0.66850 0.48380 -0.56100
C 	C 	0.66770 0.69600 0.48770 -0.34300
C 	C 	0.69470 0.75380 0.48270 0.47200
C 	C 	0.75210 0.78420 0.47380 -1.48400
C 	C 	0.78260 0.75680 0.46990 0.79400
Br	Br	0.79220 0.86010 0.46530 13.09700
Br	Br	0.85730 0.80020 0.46280 -4.42400
Br	Br	0.85780 0.79620 0.51050 6.78200
Br	Br	0.80030 0.86050 0.50800 -15.06000
Br	Br	0.47410 0.39970 0.72720 -3.54100
Br	Br	0.51240 0.39070 0.76350 7.47500
Br	Br	0.87890 0.65310 0.63060 -0.31600
Br	Br	0.89600 0.67980 0.70320 -0.08400
Zn	Zn	0.54803 0.88199 0.80067 1.17700
Zn	Zn	0.33401 0.88205 0.80051 1.17600
N 	N 	0.26897 0.81303 0.83183 -0.31600
N 	N 	0.33227 0.86433 0.62123 -0.29900
N 	N 	0.18577 0.73573 0.83133 -0.36500
N 	N 	0.33197 0.86403 0.71293 -0.30700
C 	C 	0.22087 0.77773 0.80113 0.31900
C 	C 	0.33147 0.81563 0.63363 -0.01500
H 	H 	0.32947 0.78803 0.60753 -0.00500
C 	C 	0.33387 0.89183 0.66723 0.26200
C 	C 	0.19017 0.75943 0.88393 0.35000
C 	C 	0.23997 0.81013 0.88693 -0.19600
C 	C 	0.25727 0.83843 0.94003 0.14600
H 	H 	0.29127 0.87303 0.94213 -0.05500
C 	C 	0.22487 0.81603 0.98993 -0.36600
C 	C 	0.17507 0.76533 0.98693 0.86500
C 	C 	0.15777 0.73703 0.93383 -0.65800
H 	H 	0.12367 0.70243 0.93173 0.29000
N 	N 	0.48597 0.88853 0.83213 -0.29300
C 	C 	0.45067 0.84833 0.87333 -0.00200
C 	C 	0.39457 0.84153 0.87733 -0.04300
N 	N 	0.40327 0.88953 0.83253 -0.27600
C 	C 	0.33417 0.81683 0.69213 -0.01700
H 	H 	0.33707 0.79023 0.71603 0.00100
C 	C 	0.33047 0.94863 0.67043 -0.72400
H 	H 	0.36307 0.97733 0.69163 0.23400
H 	H 	0.29627 0.94113 0.69093 0.30300
H 	H 	0.33007 0.96173 0.63063 0.27000
Br	Br	0.26797 0.85093 0.06573 0.38000
C 	C 	0.44937 0.88703 0.80473 0.09100
N 	N 	0.71277 0.99303 0.84143 -0.28500
N 	N 	0.62157 0.94703 0.82353 -0.27100
C 	C 	0.66707 0.94523 0.83203 0.02900
Br	Br	0.75197 0.20043 0.76683 -5.55200
C 	C 	0.70097 0.11573 0.79833 -0.63400
C 	C 	0.64307 0.08863 0.79433 0.81900
C 	C 	0.61137 0.03143 0.80383 -0.07900
C 	C 	0.63757 0.00133 0.81833 0.23900
C 	C 	0.69547 0.02843 0.82333 0.58800
C 	C 	0.72717 0.08563 0.81363 0.34100
C 	C 	0.48687 0.91933 0.88533 0.04400
C 	C 	0.50877 0.91933 0.94023 -0.01100
C 	C 	0.48677 0.93033 0.98993 0.39500
C 	C 	0.44287 0.94133 0.98483 -0.07200
C 	C 	0.42087 0.94133 0.93003 0.05800
C 	C 	0.44267 0.93033 0.88023 0.00300
C 	C 	0.19967 0.79733 0.75733 -0.79400
H 	H 	0.15987 0.78203 0.76323 0.22500
H 	H 	0.20677 0.78603 0.71913 0.24400
H 	H 	0.21907 0.83843 0.75943 0.22600
C 	C 	0.27267 0.77503 0.87433 0.15900
H 	H 	0.30467 0.78343 0.89673 -0.04400
C 	C 	0.22987 0.73333 0.87633 -0.24000
H 	H 	0.22237 0.70193 0.90033 0.10200
C 	C 	0.42227 0.03223 0.80823 -0.31600
C 	C 	0.36487 0.00183 0.81713 -0.50200
C 	C 	0.33437 0.02933 0.82103 -0.30400
C 	C 	0.36137 0.08713 0.81603 0.43200
C 	C 	0.41877 0.11753 0.80713 -1.35800
C 	C 	0.44927 0.09013 0.80323 0.74200
Br	Br	0.45887 0.19343 0.79863 11.98900
Br	Br	0.52397 0.13353 0.79613 -4.08300
Br	Br	0.52447 0.12953 0.84383 6.25300
Br	Br	0.46697 0.19383 0.84133 -13.79300
Br	Br	0.14077 0.73303 0.06053 -3.56500
Br	Br	0.17907 0.72403 0.09683 7.52800
Br	Br	0.54557 0.98643 0.96393 -0.30700
Br	Br	0.56267 0.01313 0.03653 -0.08500
Zn	Zn	0.21469 0.21533 0.13401 1.17700
Zn	Zn	0.00067 0.21539 0.13385 1.17600
N 	N 	0.93563 0.14637 0.16517 -0.31500
N 	N 	0.99893 0.19767 0.95457 -0.29800
N 	N 	0.85243 0.06907 0.16467 -0.36800
N 	N 	0.99863 0.19737 0.04627 -0.30500
C 	C 	0.88753 0.11107 0.13447 0.31900
C 	C 	0.99813 0.14897 0.96697 -0.01600
H 	H 	0.99613 0.12137 0.94087 -0.00500
C 	C 	0.00053 0.22517 0.00057 0.25500
C 	C 	0.85683 0.09277 0.21727 0.37000
C 	C 	0.90663 0.14347 0.22027 -0.21200
C 	C 	0.92393 0.17177 0.27337 0.16800
H 	H 	0.95793 0.20637 0.27547 -0.06500
C 	C 	0.89153 0.14937 0.32327 -0.40300
C 	C 	0.84173 0.09867 0.32027 0.92900
C 	C 	0.82443 0.07037 0.26717 -0.69800
H 	H 	0.79033 0.03577 0.26507 0.30700
N 	N 	0.15263 0.22187 0.16547 -0.29400
C 	C 	0.11733 0.18167 0.20667 -0.00200
C 	C 	0.06123 0.17487 0.21067 -0.04400
N 	N 	0.06993 0.22287 0.16587 -0.27600
C 	C 	0.00083 0.15017 0.02547 -0.01800
H 	H 	0.00373 0.12357 0.04937 0.00100
C 	C 	0.99713 0.28197 0.00377 -0.70700
H 	H 	0.02973 0.31067 0.02497 0.22900
H 	H 	0.96293 0.27447 0.02427 0.29300
H 	H 	0.99673 0.29507 0.96397 0.26100
Br	Br	0.93463 0.18427 0.39907 0.43100
C 	C 	0.11603 0.22037 0.13807 0.09000
N 	N 	0.37943 0.32637 0.17477 -0.28500
N 	N 	0.28823 0.28037 0.15687 -0.27100
C 	C 	0.33373 0.27857 0.16537 0.02900
Br	Br	0.41863 0.53377 0.10017 -5.50300
C 	C 	0.36763 0.44907 0.13167 -0.62200
C 	C 	0.30973 0.42197 0.12767 0.80500
C 	C 	0.27803 0.36477 0.13717 -0.08000
C 	C 	0.30423 0.33467 0.15167 0.23600
C 	C 	0.36213 0.36177 0.15667 0.57900
C 	C 	0.39383 0.41897 0.14697 0.33700
C 	C 	0.15353 0.25267 0.21867 0.04600
C 	C 	0.17543 0.25267 0.27357 -0.01400
C 	C 	0.15343 0.26367 0.32327 0.41700
C 	C 	0.10953 0.27467 0.31817 -0.08700
C 	C 	0.08753 0.27467 0.26337 0.05900
C 	C 	0.10933 0.26367 0.21357 0.00200
C 	C 	0.86633 0.13067 0.09067 -0.79300
H 	H 	0.82653 0.11537 0.09657 0.22400
H 	H 	0.87343 0.11937 0.05247 0.24300
H 	H 	0.88573 0.17177 0.09277 0.22500
C 	C 	0.93933 0.10837 0.20767 0.16900
H 	H 	0.97133 0.11677 0.23007 -0.04800
C 	C 	0.89653 0.06667 0.20967 -0.25100
H 	H 	0.88903 0.03527 0.23367 0.10500
C 	C 	0.08893 0.36557 0.14157 -0.31000
C 	C 	0.03153 0.33517 0.15047 -0.50700
C 	C 	0.00103 0.36267 0.15437 -0.30900
C 	C 	0.02803 0.42047 0.14937 0.43300
C 	C 	0.08543 0.45087 0.14047 -1.35900
C 	C 	0.11593 0.42347 0.13657 0.74000
Br	Br	0.12553 0.52677 0.13197 12.00600
Br	Br	0.19063 0.46687 0.12947 -4.02100
Br	Br	0.19113 0.46287 0.17717 6.15100
Br	Br	0.13363 0.52717 0.17467 -13.81500
Br	Br	0.80743 0.06637 0.39387 -3.84800
Br	Br	0.84573 0.05737 0.43017 8.17400
Br	Br	0.21223 0.31977 0.29727 -0.30600
Br	Br	0.22933 0.34647 0.36987 -0.07400
Zn	Zn	0.45134 0.33270 0.46734 1.17800
Zn	Zn	0.45128 0.11862 0.46718 1.17600
N 	N 	0.52030 0.12260 0.49850 -0.31500
N 	N 	0.46900 0.13460 0.28790 -0.29900
N 	N 	0.59760 0.11670 0.49800 -0.36500
N 	N 	0.46930 0.13460 0.37960 -0.30600
C 	C 	0.55560 0.10980 0.46780 0.31800
C 	C 	0.51770 0.18250 0.30030 -0.01600
H 	H 	0.54530 0.20810 0.27420 -0.00500
C 	C 	0.44150 0.10870 0.33390 0.25900
C 	C 	0.57390 0.09740 0.55060 0.35100
C 	C 	0.52320 0.09650 0.55360 -0.19700
C 	C 	0.49490 0.08550 0.60670 0.14800
H 	H 	0.46030 0.08490 0.60880 -0.05600
C 	C 	0.51730 0.07550 0.65660 -0.36900
C 	C 	0.56800 0.07640 0.65360 0.86900
C 	C 	0.59630 0.08740 0.60050 -0.66100
H 	H 	0.63090 0.08790 0.59840 0.29100
N 	N 	0.44480 0.26410 0.49880 -0.29300
C 	C 	0.48500 0.26900 0.54000 -0.00200
C 	C 	0.49180 0.21970 0.54400 -0.04300
N 	N 	0.44380 0.18040 0.49920 -0.27600
C 	C 	0.51650 0.18400 0.35880 -0.01700
H 	H 	0.54310 0.21350 0.38270 0.00100
C 	C 	0.38470 0.04850 0.33710 -0.71600
H 	H 	0.35600 0.05240 0.35830 0.23200
H 	H 	0.39220 0.02180 0.35760 0.29600
H 	H 	0.37160 0.03500 0.29730 0.26400
Br	Br	0.48240 0.08370 0.73240 0.38400
C 	C 	0.44630 0.22900 0.47140 0.09200
N 	N 	0.34030 0.38640 0.50810 -0.28500
N 	N 	0.38630 0.34120 0.49020 -0.27000
C 	C 	0.38810 0.38850 0.49870 0.02800
Br	Br	0.13290 0.21820 0.43350 -6.03100
C 	C 	0.21760 0.25190 0.46500 -0.68700
C 	C 	0.24470 0.22110 0.46100 0.87500
C 	C 	0.30190 0.24660 0.47050 -0.08300
C 	C 	0.33200 0.30290 0.48500 0.26100
C 	C 	0.30490 0.33370 0.49000 0.63900
C 	C 	0.24770 0.30820 0.48030 0.36600
C 	C 	0.41400 0.23420 0.55200 0.04200
C 	C 	0.41400 0.25610 0.60690 -0.01000
C 	C 	0.40300 0.22310 0.65660 0.39400
C 	C 	0.39200 0.16820 0.65150 -0.07200
C 	C 	0.39200 0.14620 0.59670 0.05400
C 	C 	0.40300 0.17900 0.54690 0.00500
C 	C 	0.53600 0.06900 0.42400 -0.79100
H 	H 	0.55130 0.04450 0.42990 0.22400
H 	H 	0.54730 0.08740 0.38580 0.24200
H 	H 	0.49490 0.04730 0.42610 0.22500
C 	C 	0.55830 0.16430 0.54100 0.16000
H 	H 	0.54990 0.18790 0.56340 -0.04400
C 	C 	0.60000 0.16320 0.54300 -0.24100
H 	H 	0.63140 0.18710 0.56700 0.10200
C 	C 	0.30110 0.05670 0.47490 -0.33100
C 	C 	0.33150 0.02970 0.48380 -0.56000
C 	C 	0.30400 0.97170 0.48770 -0.34300
C 	C 	0.24620 0.94090 0.48270 0.47200
C 	C 	0.21580 0.96790 0.47380 -1.48300
C 	C 	0.24320 0.02580 0.46990 0.79400
Br	Br	0.13990 0.93210 0.46530 13.08300
Br	Br	0.19980 0.05710 0.46280 -4.41500
Br	Br	0.20380 0.06160 0.51050 6.77000
Br	Br	0.13950 0.93980 0.50800 -15.04400
Br	Br	0.60030 0.07440 0.72720 -3.58300
Br	Br	0.60930 0.12170 0.76350 7.57000
Br	Br	0.34690 0.22580 0.63060 -0.31600
Br	Br	0.32020 0.21620 0.70320 -0.08300
Zn	Zn	0.11801 0.66603 0.80067 1.17700
Zn	Zn	0.11795 0.45195 0.80051 1.17600
N 	N 	0.18697 0.45593 0.83183 -0.31600
N 	N 	0.13567 0.46793 0.62123 -0.29900
N 	N 	0.26427 0.45003 0.83133 -0.36500
N 	N 	0.13597 0.46793 0.71293 -0.30700
C 	C 	0.22227 0.44313 0.80113 0.31900
C 	C 	0.18437 0.51583 0.63363 -0.01500
H 	H 	0.21197 0.54143 0.60753 -0.00500
C 	C 	0.10817 0.44203 0.66723 0.26200
C 	C 	0.24057 0.43073 0.88393 0.34600
C 	C 	0.18987 0.42983 0.88693 -0.19300
C 	C 	0.16157 0.41883 0.94003 0.14200
H 	H 	0.12697 0.41823 0.94213 -0.05300
C 	C 	0.18397 0.40883 0.98993 -0.35900
C 	C 	0.23467 0.40973 0.98693 0.85300
C 	C 	0.26297 0.42073 0.93383 -0.65100
H 	H 	0.29757 0.42123 0.93173 0.28700
N 	N 	0.11147 0.59743 0.83213 -0.29300
C 	C 	0.15167 0.60233 0.87333 -0.00200
C 	C 	0.15847 0.55303 0.87733 -0.04300
N 	N 	0.11047 0.51373 0.83253 -0.27600
C 	C 	0.18317 0.51733 0.69213 -0.01700
H 	H 	0.20977 0.54683 0.71603 0.00100
C 	C 	0.05137 0.38183 0.67043 -0.72400
H 	H 	0.02267 0.38573 0.69163 0.23400
H 	H 	0.05887 0.35513 0.69093 0.30400
H 	H 	0.03827 0.36833 0.63063 0.27000
Br	Br	0.14907 0.41703 0.06573 0.37100
C 	C 	0.11297 0.56233 0.80473 0.09000
N 	N 	0.00697 0.71973 0.84143 -0.28500
N 	N 	0.05297 0.67453 0.82353 -0.27100
C 	C 	0.05477 0.72183 0.83203 0.02900
Br	Br	0.79957 0.55153 0.76683 -5.47000
C 	C 	0.88427 0.58523 0.79833 -0.62600
C 	C 	0.91137 0.55443 0.79433 0.81200
C 	C 	0.96857 0.57993 0.80383 -0.07800
C 	C 	0.99867 0.63623 0.81833 0.23600
C 	C 	0.97157 0.66703 0.82333 0.58200
C 	C 	0.91437 0.64153 0.81363 0.33700
C 	C 	0.08067 0.56753 0.88533 0.04400
C 	C 	0.08067 0.58943 0.94023 -0.01100
C 	C 	0.06967 0.55643 0.98993 0.39200
C 	C 	0.05867 0.50153 0.98483 -0.07000
C 	C 	0.05867 0.47953 0.93003 0.05800
C 	C 	0.06967 0.51233 0.88023 0.00300
C 	C 	0.20267 0.40233 0.75733 -0.79400
H 	H 	0.21797 0.37783 0.76323 0.22500
H 	H 	0.21397 0.42073 0.71913 0.24400
H 	H 	0.16157 0.38063 0.75943 0.22600
C 	C 	0.22497 0.49763 0.87433 0.15700
H 	H 	0.21657 0.52123 0.89673 -0.04300
C 	C 	0.26667 0.49653 0.87633 -0.23800
H 	H 	0.29807 0.52043 0.90033 0.10100
C 	C 	0.96777 0.39003 0.80823 -0.31600
C 	C 	0.99817 0.36303 0.81713 -0.50300
C 	C 	0.97067 0.30503 0.82103 -0.30500
C 	C 	0.91287 0.27423 0.81603 0.43400
C 	C 	0.88247 0.30123 0.80713 -1.36500
C 	C 	0.90987 0.35913 0.80323 0.74400
Br	Br	0.80657 0.26543 0.79863 12.04700
Br	Br	0.86647 0.39043 0.79613 -4.06300
Br	Br	0.87047 0.39493 0.84383 6.21900
Br	Br	0.80617 0.27313 0.84133 -13.86000
Br	Br	0.26697 0.40773 0.06053 -3.51100
Br	Br	0.27597 0.45503 0.09683 7.40700
Br	Br	0.01357 0.55913 0.96393 -0.30500
Br	Br	0.98687 0.54953 0.03653 -0.08700
Zn	Zn	0.78467 0.99937 0.13401 1.17700
Zn	Zn	0.78461 0.78529 0.13385 1.17600
N 	N 	0.85363 0.78927 0.16517 -0.31500
N 	N 	0.80233 0.80127 0.95457 -0.29900
N 	N 	0.93093 0.78337 0.16467 -0.36800
N 	N 	0.80263 0.80127 0.04627 -0.30700
C 	C 	0.88893 0.77647 0.13447 0.31800
C 	C 	0.85103 0.84917 0.96697 -0.01600
H 	H 	0.87863 0.87477 0.94087 -0.00500
C 	C 	0.77483 0.77537 0.00057 0.25700
C 	C 	0.90723 0.76407 0.21727 0.37100
C 	C 	0.85653 0.76317 0.22027 -0.21200
C 	C 	0.82823 0.75217 0.27337 0.16900
H 	H 	0.79363 0.75157 0.27547 -0.06500
C 	C 	0.85063 0.74217 0.32327 -0.40400
C 	C 	0.90133 0.74307 0.32027 0.93100
C 	C 	0.92963 0.75407 0.26717 -0.70000
H 	H 	0.96423 0.75457 0.26507 0.30800
N 	N 	0.77813 0.93077 0.16547 -0.29400
C 	C 	0.81833 0.93567 0.20667 -0.00200
C 	C 	0.82513 0.88637 0.21067 -0.04400
N 	N 	0.77713 0.84707 0.16587 -0.27600
C 	C 	0.84983 0.85067 0.02547 -0.01800
H 	H 	0.87643 0.88017 0.04937 0.00100
C 	C 	0.71803 0.71517 0.00377 -0.71400
H 	H 	0.68933 0.71907 0.02497 0.23100
H 	H 	0.72553 0.68847 0.02427 0.29400
H 	H 	0.70493 0.70167 0.96397 0.26200
Br	Br	0.81573 0.75037 0.39907 0.43300
C 	C 	0.77963 0.89567 0.13807 0.09000
N 	N 	0.67363 0.05307 0.17477 -0.28500
N 	N 	0.71963 0.00787 0.15687 -0.27000
C 	C 	0.72143 0.05517 0.16537 0.02900
Br	Br	0.46623 0.88487 0.10017 -5.57300
C 	C 	0.55093 0.91857 0.13167 -0.63100
C 	C 	0.57803 0.88777 0.12767 0.81300
C 	C 	0.63523 0.91327 0.13717 -0.07700
C 	C 	0.66533 0.96957 0.15167 0.23200
C 	C 	0.63823 0.00037 0.15667 0.57700
C 	C 	0.58103 0.97487 0.14697 0.34500
C 	C 	0.74733 0.90087 0.21867 0.04600
C 	C 	0.74733 0.92277 0.27357 -0.01400
C 	C 	0.73633 0.88977 0.32327 0.41700
C 	C 	0.72533 0.83487 0.31817 -0.08700
C 	C 	0.72533 0.81287 0.26337 0.05900
C 	C 	0.73633 0.84567 0.21357 0.00200
C 	C 	0.86933 0.73567 0.09067 -0.79100
H 	H 	0.88463 0.71117 0.09657 0.22400
H 	H 	0.88063 0.75407 0.05247 0.24200
H 	H 	0.82823 0.71397 0.09277 0.22400
C 	C 	0.89163 0.83097 0.20767 0.16900
H 	H 	0.88323 0.85457 0.23007 -0.04900
C 	C 	0.93333 0.82987 0.20967 -0.25100
H 	H 	0.96473 0.85377 0.23367 0.10500
C 	C 	0.63443 0.72337 0.14157 -0.31000
C 	C 	0.66483 0.69637 0.15047 -0.50700
C 	C 	0.63733 0.63837 0.15437 -0.30800
C 	C 	0.57953 0.60757 0.14937 0.43200
C 	C 	0.54913 0.63457 0.14047 -1.35400
C 	C 	0.57653 0.69247 0.13657 0.73800
Br	Br	0.47323 0.59877 0.13197 11.96000
Br	Br	0.53313 0.72377 0.12947 -4.04800
Br	Br	0.53713 0.72827 0.17717 6.19800
Br	Br	0.47283 0.60647 0.17467 -13.76100
Br	Br	0.93363 0.74107 0.39387 -3.86000
Br	Br	0.94263 0.78837 0.43017 8.20000
Br	Br	0.68023 0.89247 0.29727 -0.30800
Br	Br	0.65353 0.88287 0.36987 -0.07400
Zn	Zn	0.66730 0.11864 0.46734 1.17800
Zn	Zn	0.88138 0.33266 0.46718 1.17600
N 	N 	0.87740 0.39770 0.49850 -0.31500
N 	N 	0.86540 0.33440 0.28790 -0.29900
N 	N 	0.88330 0.48090 0.49800 -0.36500
N 	N 	0.86540 0.33470 0.37960 -0.30600
C 	C 	0.89020 0.44580 0.46780 0.31800
C 	C 	0.81750 0.33520 0.30030 -0.01600
H 	H 	0.79190 0.33720 0.27420 -0.00500
C 	C 	0.89130 0.33280 0.33390 0.25800
C 	C 	0.90260 0.47650 0.55060 0.34900
C 	C 	0.90350 0.42670 0.55360 -0.19600
C 	C 	0.91450 0.40940 0.60670 0.14600
H 	H 	0.91510 0.37540 0.60880 -0.05500
C 	C 	0.92450 0.44180 0.65660 -0.36500
C 	C 	0.92360 0.49160 0.65360 0.86300
C 	C 	0.91260 0.50890 0.60050 -0.65700
H 	H 	0.91210 0.54300 0.59840 0.28900
N 	N 	0.73590 0.18070 0.49880 -0.29300
C 	C 	0.73100 0.21600 0.54000 -0.00200
C 	C 	0.78030 0.27210 0.54400 -0.04300
N 	N 	0.81960 0.26340 0.49920 -0.27600
C 	C 	0.81600 0.33250 0.35880 -0.01700
H 	H 	0.78650 0.32960 0.38270 0.00100
C 	C 	0.95150 0.33620 0.33710 -0.71500
H 	H 	0.94760 0.30360 0.35830 0.23200
H 	H 	0.97820 0.37040 0.35760 0.29600
H 	H 	0.96500 0.33660 0.29730 0.26300
Br	Br	0.91630 0.39870 0.73240 0.37900
C 	C 	0.77100 0.21730 0.47140 0.09200
N 	N 	0.61360 0.95390 0.50810 -0.28500
N 	N 	0.65880 0.04510 0.49020 -0.27000
C 	C 	0.61150 0.99960 0.49870 0.02800
Br	Br	0.78180 0.91470 0.43350 -6.02000
C 	C 	0.74810 0.96570 0.46500 -0.68500
C 	C 	0.77890 0.02360 0.46100 0.87400
C 	C 	0.75340 0.05530 0.47050 -0.08300
C 	C 	0.69710 0.02910 0.48500 0.26100
C 	C 	0.66630 0.97120 0.49000 0.63800
C 	C 	0.69180 0.93950 0.48030 0.36600
C 	C 	0.76580 0.17980 0.55200 0.04200
C 	C 	0.74390 0.15790 0.60690 -0.01000
C 	C 	0.77690 0.17990 0.65660 0.39600
C 	C 	0.83180 0.22380 0.65150 -0.07300
C 	C 	0.85380 0.24580 0.59670 0.05400
C 	C 	0.82100 0.22400 0.54690 0.00500
C 	C 	0.93100 0.46700 0.42400 -0.79100
H 	H 	0.95550 0.50680 0.42990 0.22400
H 	H 	0.91260 0.45990 0.38580 0.24200
H 	H 	0.95270 0.44760 0.42610 0.22500
C 	C 	0.83570 0.39400 0.54100 0.15900
H 	H 	0.81210 0.36200 0.56340 -0.04400
C 	C 	0.83680 0.43680 0.54300 -0.24000
H 	H 	0.81290 0.44430 0.56700 0.10200
C 	C 	0.94330 0.24440 0.47490 -0.33200
C 	C 	0.97030 0.30180 0.48380 -0.56000
C 	C 	0.02830 0.33230 0.48770 -0.34300
C 	C 	0.05910 0.30530 0.48270 0.47300
C 	C 	0.03210 0.24790 0.47380 -1.48700
C 	C 	0.97420 0.21740 0.46990 0.79600
Br	Br	0.06790 0.20780 0.46530 13.12300
Br	Br	0.94290 0.14270 0.46280 -4.41600
Br	Br	0.93840 0.14220 0.51050 6.76900
Br	Br	0.06020 0.19970 0.50800 -15.09100
Br	Br	0.92560 0.52590 0.72720 -3.55500
Br	Br	0.87830 0.48760 0.76350 7.50500
Br	Br	0.77420 0.12110 0.63060 -0.31600
Br	Br	0.78380 0.10400 0.70320 -0.08200
Zn	Zn	0.33397 0.45197 0.80067 1.17700
Zn	Zn	0.54805 0.66599 0.80051 1.17600
N 	N 	0.54407 0.73103 0.83183 -0.31600
N 	N 	0.53207 0.66773 0.62123 -0.29900
N 	N 	0.54997 0.81423 0.83133 -0.36500
N 	N 	0.53207 0.66803 0.71293 -0.30700
C 	C 	0.55687 0.77913 0.80113 0.31900
C 	C 	0.48417 0.66853 0.63363 -0.01500
H 	H 	0.45857 0.67053 0.60753 -0.00500
C 	C 	0.55797 0.66613 0.66723 0.26200
C 	C 	0.56927 0.80983 0.88393 0.34800
C 	C 	0.57017 0.76003 0.88693 -0.19500
C 	C 	0.58117 0.74273 0.94003 0.14500
H 	H 	0.58177 0.70873 0.94213 -0.05400
C 	C 	0.59117 0.77513 0.98993 -0.36400
C 	C 	0.59027 0.82493 0.98693 0.86200
C 	C 	0.57927 0.84223 0.93383 -0.65600
H 	H 	0.57877 0.87633 0.93173 0.28900
N 	N 	0.40257 0.51403 0.83213 -0.29300
C 	C 	0.39767 0.54933 0.87333 -0.00200
C 	C 	0.44697 0.60543 0.87733 -0.04300
N 	N 	0.48627 0.59673 0.83253 -0.27600
C 	C 	0.48267 0.66583 0.69213 -0.01700
H 	H 	0.45317 0.66293 0.71603 0.00100
C 	C 	0.61817 0.66953 0.67043 -0.72400
H 	H 	0.61427 0.63693 0.69163 0.23400
H 	H 	0.64487 0.70373 0.69093 0.30300
H 	H 	0.63167 0.66993 0.63063 0.27000
Br	Br	0.58297 0.73203 0.06573 0.37700
C 	C 	0.43767 0.55063 0.80473 0.09000
N 	N 	0.28027 0.28723 0.84143 -0.28500
N 	N 	0.32547 0.37843 0.82353 -0.27100
C 	C 	0.27817 0.33293 0.83203 0.02900
Br	Br	0.44847 0.24803 0.76683 -5.52100
C 	C 	0.41477 0.29903 0.79833 -0.62700
C 	C 	0.44557 0.35693 0.79433 0.81000
C 	C 	0.42007 0.38863 0.80383 -0.07900
C 	C 	0.36377 0.36243 0.81833 0.23600
C 	C 	0.33297 0.30453 0.82333 0.58200
C 	C 	0.35847 0.27283 0.81363 0.33800
C 	C 	0.43247 0.51313 0.88533 0.04400
C 	C 	0.41057 0.49123 0.94023 -0.01100
C 	C 	0.44357 0.51323 0.98993 0.39100
C 	C 	0.49847 0.55713 0.98483 -0.06900
C 	C 	0.52047 0.57913 0.93003 0.05900
C 	C 	0.48767 0.55733 0.88023 0.00300
C 	C 	0.59767 0.80033 0.75733 -0.79400
H 	H 	0.62217 0.84013 0.76323 0.22500
H 	H 	0.57927 0.79323 0.71913 0.24400
H 	H 	0.61937 0.78093 0.75943 0.22600
C 	C 	0.50237 0.72733 0.87433 0.15800
H 	H 	0.47877 0.69533 0.89673 -0.04300
C 	C 	0.50347 0.77013 0.87633 -0.24000
H 	H 	0.47957 0.77763 0.90033 0.10200
C 	C 	0.60997 0.57773 0.80823 -0.30800
C 	C 	0.63697 0.63513 0.81713 -0.50400
C 	C 	0.69497 0.66563 0.82103 -0.30700
C 	C 	0.72577 0.63863 0.81603 0.43000
C 	C 	0.69877 0.58123 0.80713 -1.34300
C 	C 	0.64087 0.55073 0.80323 0.73300
Br	Br	0.73457 0.54113 0.79863 11.85600
Br	Br	0.60957 0.47603 0.79613 -4.03100
Br	Br	0.60507 0.47553 0.84383 6.17400
Br	Br	0.72687 0.53303 0.84133 -13.64000
Br	Br	0.59227 0.85923 0.06053 -3.54800
Br	Br	0.54497 0.82093 0.09683 7.49000
Br	Br	0.44087 0.45443 0.96393 -0.30500
Br	Br	0.45047 0.43733 0.03653 -0.08900
Zn	Zn	0.00063 0.78531 0.13401 1.17700
Zn	Zn	0.21471 0.99933 0.13385 1.17600
N 	N 	0.21073 0.06437 0.16517 -0.31500
N 	N 	0.19873 0.00107 0.95457 -0.29800
N 	N 	0.21663 0.14757 0.16467 -0.36800
N 	N 	0.19873 0.00137 0.04627 -0.30500
C 	C 	0.22353 0.11247 0.13447 0.31800
C 	C 	0.15083 0.00187 0.96697 -0.01500
H 	H 	0.12523 0.00387 0.94087 -0.00600
C 	C 	0.22463 0.99947 0.00057 0.25500
C 	C 	0.23593 0.14317 0.21727 0.37000
C 	C 	0.23683 0.09337 0.22027 -0.21200
C 	C 	0.24783 0.07607 0.27337 0.16800
H 	H 	0.24843 0.04207 0.27547 -0.06500
C 	C 	0.25783 0.10847 0.32327 -0.40300
C 	C 	0.25693 0.15827 0.32027 0.93000
C 	C 	0.24593 0.17557 0.26717 -0.69800
H 	H 	0.24543 0.20967 0.26507 0.30800
N 	N 	0.06923 0.84737 0.16547 -0.29400
C 	C 	0.06433 0.88267 0.20667 -0.00200
C 	C 	0.11363 0.93877 0.21067 -0.04400
N 	N 	0.15293 0.93007 0.16587 -0.27600
C 	C 	0.14933 0.99917 0.02547 -0.01900
H 	H 	0.11983 0.99627 0.04937 0.00100
C 	C 	0.28483 0.00287 0.00377 -0.70900
H 	H 	0.28093 0.97027 0.02497 0.22900
H 	H 	0.31153 0.03707 0.02427 0.29300
H 	H 	0.29833 0.00327 0.96397 0.26100
Br	Br	0.24963 0.06537 0.39907 0.43200
C 	C 	0.10433 0.88397 0.13807 0.09000
N 	N 	0.94693 0.62057 0.17477 -0.28500
N 	N 	0.99213 0.71177 0.15687 -0.27000
C 	C 	0.94483 0.66627 0.16537 0.02900
Br	Br	0.11513 0.58137 0.10017 -5.53400
C 	C 	0.08143 0.63237 0.13167 -0.63200
C 	C 	0.11223 0.69027 0.12767 0.81600
C 	C 	0.08673 0.72197 0.13717 -0.07700
C 	C 	0.03043 0.69577 0.15167 0.23200
C 	C 	0.99963 0.63787 0.15667 0.57900
C 	C 	0.02513 0.60617 0.14697 0.34400
C 	C 	0.09913 0.84647 0.21867 0.04500
C 	C 	0.07723 0.82457 0.27357 -0.01400
C 	C 	0.11023 0.84657 0.32327 0.41700
C 	C 	0.16513 0.89047 0.31817 -0.08700
C 	C 	0.18713 0.91247 0.26337 0.05900
C 	C 	0.15433 0.89067 0.21357 0.00200
C 	C 	0.26433 0.13367 0.09067 -0.79200
H 	H 	0.28883 0.17347 0.09657 0.22400
H 	H 	0.24593 0.12657 0.05247 0.24200
H 	H 	0.28603 0.11427 0.09277 0.22500
C 	C 	0.16903 0.06067 0.20767 0.16900
H 	H 	0.14543 0.02867 0.23007 -0.04800
C 	C 	0.17013 0.10347 0.20967 -0.25100
H 	H 	0.14623 0.11097 0.23367 0.10400
C 	C 	0.27663 0.91107 0.14157 -0.31300
C 	C 	0.30363 0.96847 0.15047 -0.51300
C 	C 	0.36163 0.99897 0.15437 -0.31200
C 	C 	0.39243 0.97197 0.14937 0.43700
C 	C 	0.36543 0.91457 0.14047 -1.37200
C 	C 	0.30753 0.88407 0.13657 0.74600
Br	Br	0.40123 0.87447 0.13197 12.11200
Br	Br	0.27623 0.80937 0.12947 -4.07800
Br	Br	0.27173 0.80887 0.17717 6.24100
Br	Br	0.39353 0.86637 0.17467 -13.93600
Br	Br	0.25893 0.19257 0.39387 -3.85200
Br	Br	0.21163 0.15427 0.43017 8.18300
Br	Br	0.10753 0.78777 0.29727 -0.30800
Br	Br	0.11713 0.77067 0.36987 -0.07400
Zn	Zn	0.11864 0.45134 0.53266 1.17800
Zn	Zn	0.33266 0.45128 0.53282 1.17600
N 	N 	0.39770 0.52030 0.50150 -0.31500
N 	N 	0.33440 0.46900 0.71210 -0.29900
N 	N 	0.48090 0.59760 0.50200 -0.36500
N 	N 	0.33470 0.46930 0.62040 -0.30600
C 	C 	0.44580 0.55560 0.53220 0.31800
C 	C 	0.33520 0.51770 0.69970 -0.01600
H 	H 	0.33720 0.54530 0.72580 -0.00500
C 	C 	0.33280 0.44150 0.66610 0.25800
C 	C 	0.47650 0.57390 0.44940 0.34800
C 	C 	0.42670 0.52320 0.44640 -0.19500
C 	C 	0.40940 0.49490 0.39330 0.14500
H 	H 	0.37540 0.46030 0.39120 -0.05400
C 	C 	0.44180 0.51730 0.34340 -0.36300
C 	C 	0.49160 0.56800 0.34640 0.86000
C 	C 	0.50890 0.59630 0.39950 -0.65500
H 	H 	0.54300 0.63090 0.40160 0.28900
N 	N 	0.18070 0.44480 0.50120 -0.29300
C 	C 	0.21600 0.48500 0.46000 -0.00200
C 	C 	0.27210 0.49180 0.45600 -0.04200
N 	N 	0.26340 0.44380 0.50080 -0.27600
C 	C 	0.33250 0.51650 0.64120 -0.01700
H 	H 	0.32960 0.54310 0.61730 0.00100
C 	C 	0.33620 0.38470 0.66290 -0.71400
H 	H 	0.30360 0.35600 0.64170 0.23100
H 	H 	0.37040 0.39220 0.64240 0.29500
H 	H 	0.33660 0.37160 0.70270 0.26300
Br	Br	0.39870 0.48240 0.26760 0.37600
C 	C 	0.21730 0.44630 0.52860 0.09200
N 	N 	0.95390 0.34030 0.49190 -0.28500
N 	N 	0.04510 0.38630 0.50980 -0.27000
C 	C 	0.99960 0.38810 0.50130 0.02900
Br	Br	0.91470 0.13290 0.56650 -6.01700
C 	C 	0.96570 0.21760 0.53500 -0.68700
C 	C 	0.02360 0.24470 0.53900 0.87600
C 	C 	0.05530 0.30190 0.52950 -0.08300
C 	C 	0.02910 0.33200 0.51500 0.26000
C 	C 	0.97120 0.30490 0.51000 0.63900
C 	C 	0.93950 0.24770 0.51970 0.36600
C 	C 	0.17980 0.41400 0.44800 0.04200
C 	C 	0.15790 0.41400 0.39310 -0.01000
C 	C 	0.17990 0.40300 0.34340 0.39200
C 	C 	0.22380 0.39200 0.34850 -0.07000
C 	C 	0.24580 0.39200 0.40330 0.05400
C 	C 	0.22400 0.40300 0.45310 0.00500
C 	C 	0.46700 0.53600 0.57600 -0.79100
H 	H 	0.50680 0.55130 0.57010 0.22300
H 	H 	0.45990 0.54730 0.61420 0.24200
H 	H 	0.44760 0.49490 0.57390 0.22400
C 	C 	0.39400 0.55830 0.45900 0.15800
H 	H 	0.36200 0.54990 0.43660 -0.04300
C 	C 	0.43680 0.60000 0.45700 -0.23900
H 	H 	0.44430 0.63140 0.43300 0.10200
C 	C 	0.24440 0.30110 0.52510 -0.33200
C 	C 	0.30180 0.33150 0.51620 -0.56100
C 	C 	0.33230 0.30400 0.51230 -0.34300
C 	C 	0.30530 0.24620 0.51730 0.47200
C 	C 	0.24790 0.21580 0.52620 -1.48400
C 	C 	0.21740 0.24320 0.53010 0.79400
Br	Br	0.20780 0.13990 0.53470 13.09700
Br	Br	0.14270 0.19980 0.53720 -4.42400
Br	Br	0.14220 0.20380 0.48950 6.78200
Br	Br	0.19970 0.13950 0.49200 -15.06000
Br	Br	0.52590 0.60030 0.27280 -3.54100
Br	Br	0.48760 0.60930 0.23650 7.47500
Br	Br	0.12110 0.34690 0.36940 -0.31600
Br	Br	0.10400 0.32020 0.29680 -0.08400
Zn	Zn	0.78531 0.78467 0.86599 1.17700
Zn	Zn	0.99933 0.78461 0.86615 1.17600
N 	N 	0.06437 0.85363 0.83483 -0.31500
N 	N 	0.00107 0.80233 0.04543 -0.29800
N 	N 	0.14757 0.93093 0.83533 -0.36800
N 	N 	0.00137 0.80263 0.95373 -0.30500
C 	C 	0.11247 0.88893 0.86553 0.31900
C 	C 	0.00187 0.85103 0.03303 -0.01600
H 	H 	0.00387 0.87863 0.05913 -0.00500
C 	C 	0.99947 0.77483 0.99943 0.25500
C 	C 	0.14317 0.90723 0.78273 0.37000
C 	C 	0.09337 0.85653 0.77973 -0.21200
C 	C 	0.07607 0.82823 0.72663 0.16800
H 	H 	0.04207 0.79363 0.72453 -0.06500
C 	C 	0.10847 0.85063 0.67673 -0.40300
C 	C 	0.15827 0.90133 0.67973 0.92900
C 	C 	0.17557 0.92963 0.73283 -0.69800
H 	H 	0.20967 0.96423 0.73493 0.30700
N 	N 	0.84737 0.77813 0.83453 -0.29400
C 	C 	0.88267 0.81833 0.79333 -0.00200
C 	C 	0.93877 0.82513 0.78933 -0.04400
N 	N 	0.93007 0.77713 0.83413 -0.27600
C 	C 	0.99917 0.84983 0.97453 -0.01800
H 	H 	0.99627 0.87643 0.95063 0.00100
C 	C 	0.00287 0.71803 0.99623 -0.70700
H 	H 	0.97027 0.68933 0.97503 0.22900
H 	H 	0.03707 0.72553 0.97573 0.29300
H 	H 	0.00327 0.70493 0.03603 0.26100
Br	Br	0.06537 0.81573 0.60093 0.43100
C 	C 	0.88397 0.77963 0.86193 0.09000
N 	N 	0.62057 0.67363 0.82523 -0.28500
N 	N 	0.71177 0.71963 0.84313 -0.27100
C 	C 	0.66627 0.72143 0.83463 0.02900
Br	Br	0.58137 0.46623 0.89983 -5.50300
C 	C 	0.63237 0.55093 0.86833 -0.62200
C 	C 	0.69027 0.57803 0.87233 0.80500
C 	C 	0.72197 0.63523 0.86283 -0.08000
C 	C 	0.69577 0.66533 0.84833 0.23600
C 	C 	0.63787 0.63823 0.84333 0.57900
C 	C 	0.60617 0.58103 0.85303 0.33700
C 	C 	0.84647 0.74733 0.78133 0.04600
C 	C 	0.82457 0.74733 0.72643 -0.01400
C 	C 	0.84657 0.73633 0.67673 0.41700
C 	C 	0.89047 0.72533 0.68183 -0.08700
C 	C 	0.91247 0.72533 0.73663 0.05900
C 	C 	0.89067 0.73633 0.78643 0.00200
C 	C 	0.13367 0.86933 0.90933 -0.79300
H 	H 	0.17347 0.88463 0.90343 0.22400
H 	H 	0.12657 0.88063 0.94753 0.24300
H 	H 	0.11427 0.82823 0.90723 0.22500
C 	C 	0.06067 0.89163 0.79233 0.16900
H 	H 	0.02867 0.88323 0.76993 -0.04800
C 	C 	0.10347 0.93333 0.79033 -0.25100
H 	H 	0.11097 0.96473 0.76633 0.10500
C 	C 	0.91107 0.63443 0.85843 -0.31000
C 	C 	0.96847 0.66483 0.84953 -0.50700
C 	C 	0.99897 0.63733 0.84563 -0.30900
C 	C 	0.97197 0.57953 0.85063 0.43300
C 	C 	0.91457 0.54913 0.85953 -1.35900
C 	C 	0.88407 0.57653 0.86343 0.74000
Br	Br	0.87447 0.47323 0.86803 12.00600
Br	Br	0.80937 0.53313 0.87053 -4.02100
Br	Br	0.80887 0.53713 0.82283 6.15100
Br	Br	0.86637 0.47283 0.82533 -13.81500
Br	Br	0.19257 0.93363 0.60613 -3.84800
Br	Br	0.15427 0.94263 0.56983 8.17400
Br	Br	0.78777 0.68023 0.70273 -0.30600
Br	Br	0.77067 0.65353 0.63013 -0.07400
Zn	Zn	0.45197 0.11801 0.19933 1.17700
Zn	Zn	0.66599 0.11795 0.19949 1.17600
N 	N 	0.73103 0.18697 0.16817 -0.31600
N 	N 	0.66773 0.13567 0.37877 -0.29900
N 	N 	0.81423 0.26427 0.16867 -0.36500
N 	N 	0.66803 0.13597 0.28707 -0.30700
C 	C 	0.77913 0.22227 0.19887 0.31900
C 	C 	0.66853 0.18437 0.36637 -0.01500
H 	H 	0.67053 0.21197 0.39247 -0.00500
C 	C 	0.66613 0.10817 0.33277 0.26200
C 	C 	0.80983 0.24057 0.11607 0.35000
C 	C 	0.76003 0.18987 0.11307 -0.19600
C 	C 	0.74273 0.16157 0.05997 0.14600
H 	H 	0.70873 0.12697 0.05787 -0.05500
C 	C 	0.77513 0.18397 0.01007 -0.36600
C 	C 	0.82493 0.23467 0.01307 0.86500
C 	C 	0.84223 0.26297 0.06617 -0.65800
H 	H 	0.87633 0.29757 0.06827 0.29000
N 	N 	0.51403 0.11147 0.16787 -0.29300
C 	C 	0.54933 0.15167 0.12667 -0.00200
C 	C 	0.60543 0.15847 0.12267 -0.04300
N 	N 	0.59673 0.11047 0.16747 -0.27600
C 	C 	0.66583 0.18317 0.30787 -0.01700
H 	H 	0.66293 0.20977 0.28397 0.00100
C 	C 	0.66953 0.05137 0.32957 -0.72400
H 	H 	0.63693 0.02267 0.30837 0.23400
H 	H 	0.70373 0.05887 0.30907 0.30300
H 	H 	0.66993 0.03827 0.36937 0.27000
Br	Br	0.73203 0.14907 0.93427 0.38000
C 	C 	0.55063 0.11297 0.19527 0.09100
N 	N 	0.28723 0.00697 0.15857 -0.28500
N 	N 	0.37843 0.05297 0.17647 -0.27100
C 	C 	0.33293 0.05477 0.16797 0.02900
Br	Br	0.24803 0.79957 0.23317 -5.55200
C 	C 	0.29903 0.88427 0.20167 -0.63400
C 	C 	0.35693 0.91137 0.20567 0.81900
C 	C 	0.38863 0.96857 0.19617 -0.07900
C 	C 	0.36243 0.99867 0.18167 0.23900
C 	C 	0.30453 0.97157 0.17667 0.58800
C 	C 	0.27283 0.91437 0.18637 0.34100
C 	C 	0.51313 0.08067 0.11467 0.04400
C 	C 	0.49123 0.08067 0.05977 -0.01100
C 	C 	0.51323 0.06967 0.01007 0.39500
C 	C 	0.55713 0.05867 0.01517 -0.07200
C 	C 	0.57913 0.05867 0.06997 0.05800
C 	C 	0.55733 0.06967 0.11977 0.00300
C 	C 	0.80033 0.20267 0.24267 -0.79400
H 	H 	0.84013 0.21797 0.23677 0.22500
H 	H 	0.79323 0.21397 0.28087 0.24400
H 	H 	0.78093 0.16157 0.24057 0.22600
C 	C 	0.72733 0.22497 0.12567 0.15900
H 	H 	0.69533 0.21657 0.10327 -0.04400
C 	C 	0.77013 0.26667 0.12367 -0.24000
H 	H 	0.77763 0.29807 0.09967 0.10200
C 	C 	0.57773 0.96777 0.19177 -0.31600
C 	C 	0.63513 0.99817 0.18287 -0.50200
C 	C 	0.66563 0.97067 0.17897 -0.30400
C 	C 	0.63863 0.91287 0.18397 0.43200
C 	C 	0.58123 0.88247 0.19287 -1.35800
C 	C 	0.55073 0.90987 0.19677 0.74200
Br	Br	0.54113 0.80657 0.20137 11.98900
Br	Br	0.47603 0.86647 0.20387 -4.08300
Br	Br	0.47553 0.87047 0.15617 6.25300
Br	Br	0.53303 0.80617 0.15867 -13.79300
Br	Br	0.85923 0.26697 0.93947 -3.56500
Br	Br	0.82093 0.27597 0.90317 7.52800
Br	Br	0.45443 0.01357 0.03607 -0.30700
Br	Br	0.43733 0.98687 0.96347 -0.08500
Zn	Zn	0.54866 0.66730 0.53266 1.17800
Zn	Zn	0.54872 0.88138 0.53282 1.17600
N 	N 	0.47970 0.87740 0.50150 -0.31500
N 	N 	0.53100 0.86540 0.71210 -0.29900
N 	N 	0.40240 0.88330 0.50200 -0.36500
N 	N 	0.53070 0.86540 0.62040 -0.30600
C 	C 	0.44440 0.89020 0.53220 0.31800
C 	C 	0.48230 0.81750 0.69970 -0.01600
H 	H 	0.45470 0.79190 0.72580 -0.00500
C 	C 	0.55850 0.89130 0.66610 0.25900
C 	C 	0.42610 0.90260 0.44940 0.35100
C 	C 	0.47680 0.90350 0.44640 -0.19700
C 	C 	0.50510 0.91450 0.39330 0.14800
H 	H 	0.53970 0.91510 0.39120 -0.05600
C 	C 	0.48270 0.92450 0.34340 -0.36900
C 	C 	0.43200 0.92360 0.34640 0.86900
C 	C 	0.40370 0.91260 0.39950 -0.66100
H 	H 	0.36910 0.91210 0.40160 0.29100
N 	N 	0.55520 0.73590 0.50120 -0.29300
C 	C 	0.51500 0.73100 0.46000 -0.00200
C 	C 	0.50820 0.78030 0.45600 -0.04300
N 	N 	0.55620 0.81960 0.50080 -0.27600
C 	C 	0.48350 0.81600 0.64120 -0.01700
H 	H 	0.45690 0.78650 0.61730 0.00100
C 	C 	0.61530 0.95150 0.66290 -0.71600
H 	H 	0.64400 0.94760 0.64170 0.23200
H 	H 	0.60780 0.97820 0.64240 0.29600
H 	H 	0.62840 0.96500 0.70270 0.26400
Br	Br	0.51760 0.91630 0.26760 0.38400
C 	C 	0.55370 0.77100 0.52860 0.09200
N 	N 	0.65970 0.61360 0.49190 -0.28500
N 	N 	0.61370 0.65880 0.50980 -0.27000
C 	C 	0.61190 0.61150 0.50130 0.02800
Br	Br	0.86710 0.78180 0.56650 -6.03100
C 	C 	0.78240 0.74810 0.53500 -0.68700
C 	C 	0.75530 0.77890 0.53900 0.87500
C 	C 	0.69810 0.75340 0.52950 -0.08300
C 	C 	0.66800 0.69710 0.51500 0.26100
C 	C 	0.69510 0.66630 0.51000 0.63900
C 	C 	0.75230 0.69180 0.51970 0.36600
C 	C 	0.58600 0.76580 0.44800 0.04200
C 	C 	0.58600 0.74390 0.39310 -0.01000
C 	C 	0.59700 0.77690 0.34340 0.39400
C 	C 	0.60800 0.83180 0.34850 -0.07200
C 	C 	0.60800 0.85380 0.40330 0.05400
C 	C 	0.59700 0.82100 0.45310 0.00500
C 	C 	0.46400 0.93100 0.57600 -0.79100
H 	H 	0.44870 0.95550 0.57010 0.22400
H 	H 	0.45270 0.91260 0.61420 0.24200
H 	H 	0.50510 0.95270 0.57390 0.22500
C 	C 	0.44170 0.83570 0.45900 0.16000
H 	H 	0.45010 0.81210 0.43660 -0.04400
C 	C 	0.40000 0.83680 0.45700 -0.24100
H 	H 	0.36860 0.81290 0.43300 0.10200
C 	C 	0.69890 0.94330 0.52510 -0.33100
C 	C 	0.66850 0.97030 0.51620 -0.56000
C 	C 	0.69600 0.02830 0.51230 -0.34300
C 	C 	0.75380 0.05910 0.51730 0.47200
C 	C 	0.78420 0.03210 0.52620 -1.48300
C 	C 	0.75680 0.97420 0.53010 0.79400
Br	Br	0.86010 0.06790 0.53470 13.08300
Br	Br	0.80020 0.94290 0.53720 -4.41500
Br	Br	0.79620 0.93840 0.48950 6.77000
Br	Br	0.86050 0.06020 0.49200 -15.04400
Br	Br	0.39970 0.92560 0.27280 -3.58300
Br	Br	0.39070 0.87830 0.23650 7.57000
Br	Br	0.65310 0.77420 0.36940 -0.31600
Br	Br	0.67980 0.78380 0.29680 -0.08300
Zn	Zn	0.21533 0.00063 0.86599 1.17700
Zn	Zn	0.21539 0.21471 0.86615 1.17600
N 	N 	0.14637 0.21073 0.83483 -0.31500
N 	N 	0.19767 0.19873 0.04543 -0.29900
N 	N 	0.06907 0.21663 0.83533 -0.36800
N 	N 	0.19737 0.19873 0.95373 -0.30700
C 	C 	0.11107 0.22353 0.86553 0.31800
C 	C 	0.14897 0.15083 0.03303 -0.01600
H 	H 	0.12137 0.12523 0.05913 -0.00500
C 	C 	0.22517 0.22463 0.99943 0.25700
C 	C 	0.09277 0.23593 0.78273 0.37100
C 	C 	0.14347 0.23683 0.77973 -0.21200
C 	C 	0.17177 0.24783 0.72663 0.16900
H 	H 	0.20637 0.24843 0.72453 -0.06500
C 	C 	0.14937 0.25783 0.67673 -0.40400
C 	C 	0.09867 0.25693 0.67973 0.93100
C 	C 	0.07037 0.24593 0.73283 -0.70000
H 	H 	0.03577 0.24543 0.73493 0.30800
N 	N 	0.22187 0.06923 0.83453 -0.29400
C 	C 	0.18167 0.06433 0.79333 -0.00200
C 	C 	0.17487 0.11363 0.78933 -0.04400
N 	N 	0.22287 0.15293 0.83413 -0.27600
C 	C 	0.15017 0.14933 0.97453 -0.01800
H 	H 	0.12357 0.11983 0.95063 0.00100
C 	C 	0.28197 0.28483 0.99623 -0.71400
H 	H 	0.31067 0.28093 0.97503 0.23100
H 	H 	0.27447 0.31153 0.97573 0.29400
H 	H 	0.29507 0.29833 0.03603 0.26200
Br	Br	0.18427 0.24963 0.60093 0.43300
C 	C 	0.22037 0.10433 0.86193 0.09000
N 	N 	0.32637 0.94693 0.82523 -0.28500
N 	N 	0.28037 0.99213 0.84313 -0.27000
C 	C 	0.27857 0.94483 0.83463 0.02900
Br	Br	0.53377 0.11513 0.89983 -5.57300
C 	C 	0.44907 0.08143 0.86833 -0.63100
C 	C 	0.42197 0.11223 0.87233 0.81300
C 	C 	0.36477 0.08673 0.86283 -0.07700
C 	C 	0.33467 0.03043 0.84833 0.23200
C 	C 	0.36177 0.99963 0.84333 0.57700
C 	C 	0.41897 0.02513 0.85303 0.34500
C 	C 	0.25267 0.09913 0.78133 0.04600
C 	C 	0.25267 0.07723 0.72643 -0.01400
C 	C 	0.26367 0.11023 0.67673 0.41700
C 	C 	0.27467 0.16513 0.68183 -0.08700
C 	C 	0.27467 0.18713 0.73663 0.05900
C 	C 	0.26367 0.15433 0.78643 0.00200
C 	C 	0.13067 0.26433 0.90933 -0.79100
H 	H 	0.11537 0.28883 0.90343 0.22400
H 	H 	0.11937 0.24593 0.94753 0.24200
H 	H 	0.17177 0.28603 0.90723 0.22400
C 	C 	0.10837 0.16903 0.79233 0.16900
H 	H 	0.11677 0.14543 0.76993 -0.04900
C 	C 	0.06667 0.17013 0.79033 -0.25100
H 	H 	0.03527 0.14623 0.76633 0.10500
C 	C 	0.36557 0.27663 0.85843 -0.31000
C 	C 	0.33517 0.30363 0.84953 -0.50700
C 	C 	0.36267 0.36163 0.84563 -0.30800
C 	C 	0.42047 0.39243 0.85063 0.43200
C 	C 	0.45087 0.36543 0.85953 -1.35400
C 	C 	0.42347 0.30753 0.86343 0.73800
Br	Br	0.52677 0.40123 0.86803 11.96000
Br	Br	0.46687 0.27623 0.87053 -4.04800
Br	Br	0.46287 0.27173 0.82283 6.19800
Br	Br	0.52717 0.39353 0.82533 -13.76100
Br	Br	0.06637 0.25893 0.60613 -3.86000
Br	Br	0.05737 0.21163 0.56983 8.20000
Br	Br	0.31977 0.10753 0.70273 -0.30800
Br	Br	0.34647 0.11713 0.63013 -0.07400
Zn	Zn	0.88199 0.33397 0.19933 1.17700
Zn	Zn	0.88205 0.54805 0.19949 1.17600
N 	N 	0.81303 0.54407 0.16817 -0.31600
N 	N 	0.86433 0.53207 0.37877 -0.29900
N 	N 	0.73573 0.54997 0.16867 -0.36500
N 	N 	0.86403 0.53207 0.28707 -0.30700
C 	C 	0.77773 0.55687 0.19887 0.31900
C 	C 	0.81563 0.48417 0.36637 -0.01500
H 	H 	0.78803 0.45857 0.39247 -0.00500
C 	C 	0.89183 0.55797 0.33277 0.26200
C 	C 	0.75943 0.56927 0.11607 0.34600
C 	C 	0.81013 0.57017 0.11307 -0.19300
C 	C 	0.83843 0.58117 0.05997 0.14200
H 	H 	0.87303 0.58177 0.05787 -0.05300
C 	C 	0.81603 0.59117 0.01007 -0.35900
C 	C 	0.76533 0.59027 0.01307 0.85300
C 	C 	0.73703 0.57927 0.06617 -0.65100
H 	H 	0.70243 0.57877 0.06827 0.28700
N 	N 	0.88853 0.40257 0.16787 -0.29300
C 	C 	0.84833 0.39767 0.12667 -0.00200
C 	C 	0.84153 0.44697 0.12267 -0.04300
N 	N 	0.88953 0.48627 0.16747 -0.27600
C 	C 	0.81683 0.48267 0.30787 -0.01700
H 	H 	0.79023 0.45317 0.28397 0.00100
C 	C 	0.94863 0.61817 0.32957 -0.72400
H 	H 	0.97733 0.61427 0.30837 0.23400
H 	H 	0.94113 0.64487 0.30907 0.30400
H 	H 	0.96173 0.63167 0.36937 0.27000
Br	Br	0.85093 0.58297 0.93427 0.37100
C 	C 	0.88703 0.43767 0.19527 0.09000
N 	N 	0.99303 0.28027 0.15857 -0.28500
N 	N 	0.94703 0.32547 0.17647 -0.27100
C 	C 	0.94523 0.27817 0.16797 0.02900
Br	Br	0.20043 0.44847 0.23317 -5.47000
C 	C 	0.11573 0.41477 0.20167 -0.62600
C 	C 	0.08863 0.44557 0.20567 0.81200
C 	C 	0.03143 0.42007 0.19617 -0.07800
C 	C 	0.00133 0.36377 0.18167 0.23600
C 	C 	0.02843 0.33297 0.17667 0.58200
C 	C 	0.08563 0.35847 0.18637 0.33700
C 	C 	0.91933 0.43247 0.11467 0.04400
C 	C 	0.91933 0.41057 0.05977 -0.01100
C 	C 	0.93033 0.44357 0.01007 0.39200
C 	C 	0.94133 0.49847 0.01517 -0.07000
C 	C 	0.94133 0.52047 0.06997 0.05800
C 	C 	0.93033 0.48767 0.11977 0.00300
C 	C 	0.79733 0.59767 0.24267 -0.79400
H 	H 	0.78203 0.62217 0.23677 0.22500
H 	H 	0.78603 0.57927 0.28087 0.24400
H 	H 	0.83843 0.61937 0.24057 0.22600
C 	C 	0.77503 0.50237 0.12567 0.15700
H 	H 	0.78343 0.47877 0.10327 -0.04300
C 	C 	0.73333 0.50347 0.12367 -0.23800
H 	H 	0.70193 0.47957 0.09967 0.10100
C 	C 	0.03223 0.60997 0.19177 -0.31600
C 	C 	0.00183 0.63697 0.18287 -0.50300
C 	C 	0.02933 0.69497 0.17897 -0.30500
C 	C 	0.08713 0.72577 0.18397 0.43400
C 	C 	0.11753 0.69877 0.19287 -1.36500
C 	C 	0.09013 0.64087 0.19677 0.74400
Br	Br	0.19343 0.73457 0.20137 12.04700
Br	Br	0.13353 0.60957 0.20387 -4.06300
Br	Br	0.12953 0.60507 0.15617 6.21900
Br	Br	0.19383 0.72687 0.15867 -13.86000
Br	Br	0.73303 0.59227 0.93947 -3.51100
Br	Br	0.72403 0.54497 0.90317 7.40700
Br	Br	0.98643 0.44087 0.03607 -0.30500
Br	Br	0.01313 0.45047 0.96347 -0.08700
Zn	Zn	0.33270 0.88136 0.53266 1.17800
Zn	Zn	0.11862 0.66734 0.53282 1.17600
N 	N 	0.12260 0.60230 0.50150 -0.31500
N 	N 	0.13460 0.66560 0.71210 -0.29900
N 	N 	0.11670 0.51910 0.50200 -0.36500
N 	N 	0.13460 0.66530 0.62040 -0.30600
C 	C 	0.10980 0.55420 0.53220 0.31800
C 	C 	0.18250 0.66480 0.69970 -0.01600
H 	H 	0.20810 0.66280 0.72580 -0.00500
C 	C 	0.10870 0.66720 0.66610 0.25800
C 	C 	0.09740 0.52350 0.44940 0.34900
C 	C 	0.09650 0.57330 0.44640 -0.19600
C 	C 	0.08550 0.59060 0.39330 0.14600
H 	H 	0.08490 0.62460 0.39120 -0.05500
C 	C 	0.07550 0.55820 0.34340 -0.36500
C 	C 	0.07640 0.50840 0.34640 0.86300
C 	C 	0.08740 0.49110 0.39950 -0.65700
H 	H 	0.08790 0.45700 0.40160 0.28900
N 	N 	0.26410 0.81930 0.50120 -0.29300
C 	C 	0.26900 0.78400 0.46000 -0.00200
C 	C 	0.21970 0.72790 0.45600 -0.04300
N 	N 	0.18040 0.73660 0.50080 -0.27600
C 	C 	0.18400 0.66750 0.64120 -0.01700
H 	H 	0.21350 0.67040 0.61730 0.00100
C 	C 	0.04850 0.66380 0.66290 -0.71500
H 	H 	0.05240 0.69640 0.64170 0.23200
H 	H 	0.02180 0.62960 0.64240 0.29600
H 	H 	0.03500 0.66340 0.70270 0.26300
Br	Br	0.08370 0.60130 0.26760 0.37900
C 	C 	0.22900 0.78270 0.52860 0.09200
N 	N 	0.38640 0.04610 0.49190 -0.28500
N 	N 	0.34120 0.95490 0.50980 -0.27000
C 	C 	0.38850 0.00040 0.50130 0.02800
Br	Br	0.21820 0.08530 0.56650 -6.02000
C 	C 	0.25190 0.03430 0.53500 -0.68500
C 	C 	0.22110 0.97640 0.53900 0.87400
C 	C 	0.24660 0.94470 0.52950 -0.08300
C 	C 	0.30290 0.97090 0.51500 0.26100
C 	C 	0.33370 0.02880 0.51000 0.63800
C 	C 	0.30820 0.06050 0.51970 0.36600
C 	C 	0.23420 0.82020 0.44800 0.04200
C 	C 	0.25610 0.84210 0.39310 -0.01000
C 	C 	0.22310 0.82010 0.34340 0.39600
C 	C 	0.16820 0.77620 0.34850 -0.07300
C 	C 	0.14620 0.75420 0.40330 0.05400
C 	C 	0.17900 0.77600 0.45310 0.00500
C 	C 	0.06900 0.53300 0.57600 -0.79100
H 	H 	0.04450 0.49320 0.57010 0.22400
H 	H 	0.08740 0.54010 0.61420 0.24200
H 	H 	0.04730 0.55240 0.57390 0.22500
C 	C 	0.16430 0.60600 0.45900 0.15900
H 	H 	0.18790 0.63800 0.43660 -0.04400
C 	C 	0.16320 0.56320 0.45700 -0.24000
H 	H 	0.18710 0.55570 0.43300 0.10200
C 	C 	0.05670 0.75560 0.52510 -0.33200
C 	C 	0.02970 0.69820 0.51620 -0.56000
C 	C 	0.97170 0.66770 0.51230 -0.34300
C 	C 	0.94090 0.69470 0.51730 0.47300
C 	C 	0.96790 0.75210 0.52620 -1.48700
C 	C 	0.02580 0.78260 0.53010 0.79600
Br	Br	0.93210 0.79220 0.53470 13.12300
Br	Br	0.05710 0.85730 0.53720 -4.41600
Br	Br	0.06160 0.85780 0.48950 6.76900
Br	Br	0.93980 0.80030 0.49200 -15.09100
Br	Br	0.07440 0.47410 0.27280 -3.55500
Br	Br	0.12170 0.51240 0.23650 7.50500
Br	Br	0.22580 0.87890 0.36940 -0.31600
Br	Br	0.21620 0.89600 0.29680 -0.08200
Zn	Zn	0.99937 0.21469 0.86599 1.17700
Zn	Zn	0.78529 0.00067 0.86615 1.17600
N 	N 	0.78927 0.93563 0.83483 -0.31500
N 	N 	0.80127 0.99893 0.04543 -0.29800
N 	N 	0.78337 0.85243 0.83533 -0.36800
N 	N 	0.80127 0.99863 0.95373 -0.30500
C 	C 	0.77647 0.88753 0.86553 0.31800
C 	C 	0.84917 0.99813 0.03303 -0.01500
H 	H 	0.87477 0.99613 0.05913 -0.00600
C 	C 	0.77537 0.00053 0.99943 0.25500
C 	C 	0.76407 0.85683 0.78273 0.37000
C 	C 	0.76317 0.90663 0.77973 -0.21200
C 	C 	0.75217 0.92393 0.72663 0.16800
H 	H 	0.75157 0.95793 0.72453 -0.06500
C 	C 	0.74217 0.89153 0.67673 -0.40300
C 	C 	0.74307 0.84173 0.67973 0.93000
C 	C 	0.75407 0.82443 0.73283 -0.69800
H 	H 	0.75457 0.79033 0.73493 0.30800
N 	N 	0.93077 0.15263 0.83453 -0.29400
C 	C 	0.93567 0.11733 0.79333 -0.00200
C 	C 	0.88637 0.06123 0.78933 -0.04400
N 	N 	0.84707 0.06993 0.83413 -0.27600
C 	C 	0.85067 0.00083 0.97453 -0.01900
H 	H 	0.88017 0.00373 0.95063 0.00100
C 	C 	0.71517 0.99713 0.99623 -0.70900
H 	H 	0.71907 0.02973 0.97503 0.22900
H 	H 	0.68847 0.96293 0.97573 0.29300
H 	H 	0.70167 0.99673 0.03603 0.26100
Br	Br	0.75037 0.93463 0.60093 0.43200
C 	C 	0.89567 0.11603 0.86193 0.09000
N 	N 	0.05307 0.37943 0.82523 -0.28500
N 	N 	0.00787 0.28823 0.84313 -0.27000
C 	C 	0.05517 0.33373 0.83463 0.02900
Br	Br	0.88487 0.41863 0.89983 -5.53400
C 	C 	0.91857 0.36763 0.86833 -0.63200
C 	C 	0.88777 0.30973 0.87233 0.81600
C 	C 	0.91327 0.27803 0.86283 -0.07700
C 	C 	0.96957 0.30423 0.84833 0.23200
C 	C 	0.00037 0.36213 0.84333 0.57900
C 	C 	0.97487 0.39383 0.85303 0.34400
C 	C 	0.90087 0.15353 0.78133 0.04500
C 	C 	0.92277 0.17543 0.72643 -0.01400
C 	C 	0.88977 0.15343 0.67673 0.41700
C 	C 	0.83487 0.10953 0.68183 -0.08700
C 	C 	0.81287 0.08753 0.73663 0.05900
C 	C 	0.84567 0.10933 0.78643 0.00200
C 	C 	0.73567 0.86633 0.90933 -0.79200
H 	H 	0.71117 0.82653 0.90343 0.22400
H 	H 	0.75407 0.87343 0.94753 0.24200
H 	H 	0.71397 0.88573 0.90723 0.22500
C 	C 	0.83097 0.93933 0.79233 0.16900
H 	H 	0.85457 0.97133 0.76993 -0.04800
C 	C 	0.82987 0.89653 0.79033 -0.25100
H 	H 	0.85377 0.88903 0.76633 0.10400
C 	C 	0.72337 0.08893 0.85843 -0.31300
C 	C 	0.69637 0.03153 0.84953 -0.51300
C 	C 	0.63837 0.00103 0.84563 -0.31200
C 	C 	0.60757 0.02803 0.85063 0.43700
C 	C 	0.63457 0.08543 0.85953 -1.37200
C 	C 	0.69247 0.11593 0.86343 0.74600
Br	Br	0.59877 0.12553 0.86803 12.11200
Br	Br	0.72377 0.19063 0.87053 -4.07800
Br	Br	0.72827 0.19113 0.82283 6.24100
Br	Br	0.60647 0.13363 0.82533 -13.93600
Br	Br	0.74107 0.80743 0.60613 -3.85200
Br	Br	0.78837 0.84573 0.56983 8.18300
Br	Br	0.89247 0.21223 0.70273 -0.30800
Br	Br	0.88287 0.22933 0.63013 -0.07400
Zn	Zn	0.66603 0.54803 0.19933 1.17700
Zn	Zn	0.45195 0.33401 0.19949 1.17600
N 	N 	0.45593 0.26897 0.16817 -0.31600
N 	N 	0.46793 0.33227 0.37877 -0.29900
N 	N 	0.45003 0.18577 0.16867 -0.36500
N 	N 	0.46793 0.33197 0.28707 -0.30700
C 	C 	0.44313 0.22087 0.19887 0.31900
C 	C 	0.51583 0.33147 0.36637 -0.01500
H 	H 	0.54143 0.32947 0.39247 -0.00500
C 	C 	0.44203 0.33387 0.33277 0.26200
C 	C 	0.43073 0.19017 0.11607 0.34800
C 	C 	0.42983 0.23997 0.11307 -0.19500
C 	C 	0.41883 0.25727 0.05997 0.14500
H 	H 	0.41823 0.29127 0.05787 -0.05400
C 	C 	0.40883 0.22487 0.01007 -0.36400
C 	C 	0.40973 0.17507 0.01307 0.86200
C 	C 	0.42073 0.15777 0.06617 -0.65600
H 	H 	0.42123 0.12367 0.06827 0.28900
N 	N 	0.59743 0.48597 0.16787 -0.29300
C 	C 	0.60233 0.45067 0.12667 -0.00200
C 	C 	0.55303 0.39457 0.12267 -0.04300
N 	N 	0.51373 0.40327 0.16747 -0.27600
C 	C 	0.51733 0.33417 0.30787 -0.01700
H 	H 	0.54683 0.33707 0.28397 0.00100
C 	C 	0.38183 0.33047 0.32957 -0.72400
H 	H 	0.38573 0.36307 0.30837 0.23400
H 	H 	0.35513 0.29627 0.30907 0.30300
H 	H 	0.36833 0.33007 0.36937 0.27000
Br	Br	0.41703 0.26797 0.93427 0.37700
C 	C 	0.56233 0.44937 0.19527 0.09000
N 	N 	0.71973 0.71277 0.15857 -0.28500
N 	N 	0.67453 0.62157 0.17647 -0.27100
C 	C 	0.72183 0.66707 0.16797 0.02900
Br	Br	0.55153 0.75197 0.23317 -5.52100
C 	C 	0.58523 0.70097 0.20167 -0.62700
C 	C 	0.55443 0.64307 0.20567 0.81000
C 	C 	0.57993 0.61137 0.19617 -0.07900
C 	C 	0.63623 0.63757 0.18167 0.23600
C 	C 	0.66703 0.69547 0.17667 0.58200
C 	C 	0.64153 0.72717 0.18637 0.33800
C 	C 	0.56753 0.48687 0.11467 0.04400
C 	C 	0.58943 0.50877 0.05977 -0.01100
C 	C 	0.55643 0.48677 0.01007 0.39100
C 	C 	0.50153 0.44287 0.01517 -0.06900
C 	C 	0.47953 0.42087 0.06997 0.05900
C 	C 	0.51233 0.44267 0.11977 0.00300
C 	C 	0.40233 0.19967 0.24267 -0.79400
H 	H 	0.37783 0.15987 0.23677 0.22500
H 	H 	0.42073 0.20677 0.28087 0.24400
H 	H 	0.38063 0.21907 0.24057 0.22600
C 	C 	0.49763 0.27267 0.12567 0.15800
H 	H 	0.52123 0.30467 0.10327 -0.04300
C 	C 	0.49653 0.22987 0.12367 -0.24000
H 	H 	0.52043 0.22237 0.09967 0.10200
C 	C 	0.39003 0.42227 0.19177 -0.30800
C 	C 	0.36303 0.36487 0.18287 -0.50400
C 	C 	0.30503 0.33437 0.17897 -0.30700
C 	C 	0.27423 0.36137 0.18397 0.43000
C 	C 	0.30123 0.41877 0.19287 -1.34300
C 	C 	0.35913 0.44927 0.19677 0.73300
Br	Br	0.26543 0.45887 0.20137 11.85600
Br	Br	0.39043 0.52397 0.20387 -4.03100
Br	Br	0.39493 0.52447 0.15617 6.17400
Br	Br	0.27313 0.46697 0.15867 -13.64000
Br	Br	0.40773 0.14077 0.93947 -3.54800
Br	Br	0.45503 0.17907 0.90317 7.49000
Br	Br	0.55913 0.54557 0.03607 -0.30500
Br	Br	0.54953 0.56267 0.96347 -0.08900
