data_crystal

_cell_length_a 24.54670
_cell_length_b 24.54670
_cell_length_c 40.14030
_cell_angle_alpha 72.19600
_cell_angle_beta  72.19600
_cell_angle_gamma 90.00000

_symmetry_space_group_name_	'P 1'
_symmetry_space_group_name_H-M	'P 1'

loop_
_symmetry_equiv_pos_as_xyz
  x,y,z

loop_
_atom_site_label
_atom_site_type_symbol
_atom_site_fract_x
_atom_site_fract_y
_atom_site_fract_z
_atom_site_charge
Cu	Cu	0.23588 0.56159 0.94810 0.90000
Cu	Cu	0.20977 0.96476 0.00024 0.90300
Cu	Cu	0.31602 0.49031 0.94810 0.90000
Cu	Cu	0.28999 0.03500 0.00024 0.90200
Cu	Cu	0.56159 0.31602 0.44810 0.90000
Cu	Cu	0.96476 0.28999 0.50024 0.90200
Cu	Cu	0.49031 0.23588 0.44810 0.90000
Cu	Cu	0.03500 0.20977 0.50024 0.90200
H 	H 	0.13750 0.14730 0.86460 0.06500
H 	H 	0.15610 0.07550 0.91260 0.03700
H 	H 	0.27900 0.18560 0.91280 0.03300
H 	H 	0.26030 0.25730 0.86500 0.05700
H 	H 	0.28180 0.39620 0.81780 0.05600
H 	H 	0.30860 0.43190 0.85900 0.03000
H 	H 	0.16770 0.51930 0.87140 0.03900
H 	H 	0.14090 0.48370 0.83020 0.06500
H 	H 	0.17920 0.49400 0.76240 0.09500
H 	H 	0.14570 0.27120 0.75620 0.05800
H 	H 	0.16900 0.19980 0.80340 0.04800
H 	H 	0.20940 0.32130 0.84140 0.05800
H 	H 	0.45000 0.37260 0.53500 0.03500
H 	H 	0.37940 0.38690 0.58500 0.06600
H 	H 	0.26720 0.27120 0.57960 0.06500
H 	H 	0.33800 0.25710 0.52940 0.03500
H 	H 	0.13490 0.24950 0.62840 0.06000
H 	H 	0.10220 0.22440 0.58560 0.03800
H 	H 	0.00800 0.36060 0.57700 0.04100
H 	H 	0.04070 0.38570 0.61980 0.06500
H 	H 	0.03220 0.34490 0.68560 0.09100
H 	H 	0.25810 0.37780 0.69160 0.05700
H 	H 	0.32700 0.35510 0.64600 0.04800
H 	H 	0.20510 0.32860 0.60300 0.06300
H 	H 	0.97750 0.33110 0.74200 -0.05500
H 	H 	0.97850 0.39800 0.72520 -0.05200
H 	H 	0.90770 0.36250 0.78620 0.23900
H 	H 	0.95390 0.40740 0.78540 0.24900
H 	H 	0.95700 0.34140 0.80280 0.24900
H 	H 	0.21190 0.54520 0.70000 -0.08100
H 	H 	0.15020 0.55340 0.72200 -0.08400
H 	H 	0.18960 0.62860 0.66740 0.28700
H 	H 	0.13120 0.60020 0.66900 0.29200
H 	H 	0.18960 0.58640 0.64500 0.29500
H 	H 	0.49790 0.98810 0.86460 0.06400
H 	H 	0.43130 0.01190 0.91260 0.03600
H 	H 	0.30820 0.90160 0.91280 0.03300
H 	H 	0.37470 0.87770 0.86500 0.05600
H 	H 	0.40040 0.78600 0.81780 0.05500
H 	H 	0.33240 0.70910 0.85900 0.02900
H 	H 	0.46090 0.60930 0.87140 0.03900
H 	H 	0.52890 0.68610 0.83020 0.06500
H 	H 	0.55840 0.74360 0.76240 0.09500
H 	H 	0.59810 0.97260 0.75620 0.05800
H 	H 	0.52760 0.99680 0.80340 0.04800
H 	H 	0.44920 0.83730 0.84140 0.05800
H 	H 	0.51500 0.09240 0.53500 0.03500
H 	H 	0.53560 0.02810 0.58500 0.06600
H 	H 	0.65320 0.14920 0.57960 0.06500
H 	H 	0.63260 0.21350 0.52940 0.03500
H 	H 	0.73670 0.12210 0.62840 0.06000
H 	H 	0.81220 0.19000 0.58560 0.03800
H 	H 	0.91500 0.06240 0.57700 0.04100
H 	H 	0.83950 0.99450 0.61980 0.06400
H 	H 	0.78220 0.96950 0.68560 0.09100
H 	H 	0.55030 0.93060 0.69160 0.05600
H 	H 	0.52700 0.99890 0.64600 0.04900
H 	H 	0.69190 0.06840 0.60300 0.06300
H 	H 	0.78050 0.92690 0.74200 -0.05500
H 	H 	0.79630 0.87680 0.72520 -0.05200
H 	H 	0.80610 0.85130 0.78620 0.23900
H 	H 	0.76070 0.80720 0.78540 0.24900
H 	H 	0.74020 0.85580 0.80280 0.24900
H 	H 	0.58810 0.75480 0.70000 -0.08100
H 	H 	0.62780 0.72460 0.72200 -0.08400
H 	H 	0.64300 0.70400 0.66740 0.28700
H 	H 	0.69980 0.73080 0.66900 0.29200
H 	H 	0.66540 0.76860 0.64500 0.29500
H 	H 	0.14730 0.49790 0.36460 0.06400
H 	H 	0.07550 0.43130 0.41260 0.03600
H 	H 	0.18560 0.30820 0.41280 0.03200
H 	H 	0.25730 0.37470 0.36500 0.05600
H 	H 	0.39620 0.40040 0.31780 0.05500
H 	H 	0.43190 0.33240 0.35900 0.02900
H 	H 	0.51930 0.46090 0.37140 0.03900
H 	H 	0.48370 0.52890 0.33020 0.06500
H 	H 	0.49400 0.55840 0.26240 0.09500
H 	H 	0.27120 0.59810 0.25620 0.05800
H 	H 	0.19980 0.52760 0.30340 0.04800
H 	H 	0.32130 0.44920 0.34140 0.05800
H 	H 	0.37260 0.51500 0.03500 0.03500
H 	H 	0.38690 0.53560 0.08500 0.06600
H 	H 	0.27120 0.65320 0.07960 0.06500
H 	H 	0.25710 0.63260 0.02940 0.03500
H 	H 	0.24950 0.73670 0.12840 0.06100
H 	H 	0.22440 0.81220 0.08560 0.03800
H 	H 	0.36060 0.91500 0.07700 0.04100
H 	H 	0.38570 0.83950 0.11980 0.06500
H 	H 	0.34490 0.78220 0.18560 0.09100
H 	H 	0.37780 0.55030 0.19160 0.05700
H 	H 	0.35510 0.52700 0.14600 0.04800
H 	H 	0.32860 0.69190 0.10300 0.06300
H 	H 	0.33110 0.78050 0.24200 -0.05500
H 	H 	0.39800 0.79630 0.22520 -0.05200
H 	H 	0.36250 0.80610 0.28620 0.23900
H 	H 	0.40740 0.76070 0.28540 0.24900
H 	H 	0.34140 0.74020 0.30280 0.24900
H 	H 	0.54520 0.58810 0.20000 -0.08100
H 	H 	0.55340 0.62780 0.22200 -0.08400
H 	H 	0.62860 0.64300 0.16740 0.28700
H 	H 	0.60020 0.69980 0.16900 0.29200
H 	H 	0.58640 0.66540 0.14500 0.29500
H 	H 	0.98810 0.13750 0.36460 0.06500
H 	H 	0.01190 0.15610 0.41260 0.03500
H 	H 	0.90160 0.27900 0.41280 0.03200
H 	H 	0.87770 0.26030 0.36500 0.05600
H 	H 	0.78600 0.28180 0.31780 0.05500
H 	H 	0.70910 0.30860 0.35900 0.02900
H 	H 	0.60930 0.16770 0.37140 0.03900
H 	H 	0.68610 0.14090 0.33020 0.06500
H 	H 	0.74360 0.17920 0.26240 0.09500
H 	H 	0.97260 0.14570 0.25620 0.05800
H 	H 	0.99680 0.16900 0.30340 0.04800
H 	H 	0.83730 0.20940 0.34140 0.05800
H 	H 	0.09240 0.45000 0.03500 0.03500
H 	H 	0.02810 0.37940 0.08500 0.06600
H 	H 	0.14920 0.26720 0.07960 0.06500
H 	H 	0.21350 0.33800 0.02940 0.03500
H 	H 	0.12210 0.13490 0.12840 0.06100
H 	H 	0.19000 0.10220 0.08560 0.03800
H 	H 	0.06240 0.00800 0.07700 0.04100
H 	H 	0.99450 0.04070 0.11980 0.06500
H 	H 	0.96950 0.03220 0.18560 0.09100
H 	H 	0.93060 0.25810 0.19160 0.05700
H 	H 	0.99890 0.32700 0.14600 0.04800
H 	H 	0.06840 0.20510 0.10300 0.06300
H 	H 	0.92690 0.97750 0.24200 -0.05500
H 	H 	0.87680 0.97850 0.22520 -0.05200
H 	H 	0.85130 0.90770 0.28620 0.23900
H 	H 	0.80720 0.95390 0.28540 0.24800
H 	H 	0.85580 0.95700 0.30280 0.24900
H 	H 	0.75480 0.21190 0.20000 -0.08100
H 	H 	0.72460 0.15020 0.22200 -0.08400
H 	H 	0.70400 0.18960 0.16740 0.28700
H 	H 	0.73080 0.13120 0.16900 0.29200
H 	H 	0.76860 0.18960 0.14500 0.29500
C 	C 	0.19695 0.20965 0.85990 0.04100
C 	C 	0.16561 0.15488 0.87424 -0.10000
C 	C 	0.17685 0.11165 0.90310 0.02500
C 	C 	0.21949 0.12319 0.91762 -0.09900
C 	C 	0.25084 0.17796 0.90328 0.02200
C 	C 	0.23959 0.22119 0.87442 -0.09900
C 	C 	0.24225 0.49035 0.90330 0.32700
C 	C 	0.20859 0.43629 0.81982 0.04100
C 	C 	0.25918 0.42067 0.82844 -0.10000
C 	C 	0.27531 0.44219 0.85322 0.02100
C 	C 	0.24092 0.47932 0.86936 -0.08600
C 	C 	0.19033 0.49486 0.86074 0.01400
C 	C 	0.17418 0.47331 0.83598 -0.09500
C 	C 	0.45028 0.29908 0.49864 0.38700
C 	C 	0.15521 0.38061 0.73998 -0.04300
C 	C 	0.15875 0.43895 0.73790 0.18100
C 	C 	0.17690 0.45554 0.76380 -0.16300
C 	C 	0.19161 0.41371 0.79178 0.02300
C 	C 	0.18806 0.35536 0.79388 -0.00400
C 	C 	0.16992 0.33885 0.76796 0.03200
C 	C 	0.16007 0.28187 0.77246 -0.06200
C 	C 	0.17168 0.23838 0.80184 -0.05700
C 	C 	0.18721 0.25551 0.82778 0.01800
C 	C 	0.19685 0.31135 0.82410 -0.08100
C 	C 	0.40128 0.31338 0.52704 -0.10400
C 	C 	0.41375 0.35251 0.54378 0.02700
C 	C 	0.37111 0.36111 0.57398 -0.10300
C 	C 	0.31608 0.33058 0.58744 0.04500
C 	C 	0.30358 0.29145 0.57070 -0.10400
C 	C 	0.34615 0.28285 0.54050 0.03100
C 	C 	0.02699 0.27129 0.54962 0.35700
C 	C 	0.09113 0.32013 0.62854 0.03900
C 	C 	0.10969 0.27159 0.61822 -0.09700
C 	C 	0.09000 0.25640 0.59240 0.01200
C 	C 	0.05176 0.28996 0.57688 -0.07600
C 	C 	0.03325 0.33851 0.58718 0.01200
C 	C 	0.05289 0.35359 0.61302 -0.09500
C 	C 	0.22382 0.08512 0.95016 0.29100
C 	C 	0.14524 0.36964 0.70812 -0.03800
C 	C 	0.08684 0.36474 0.71052 0.17700
C 	C 	0.07077 0.34814 0.68392 -0.16300
C 	C 	0.11315 0.33625 0.65490 0.02000
C 	C 	0.17156 0.34106 0.65248 0.00200
C 	C 	0.18762 0.35775 0.67910 0.02400
C 	C 	0.24715 0.36485 0.67490 -0.05500
C 	C 	0.28859 0.35339 0.64722 -0.05600
C 	C 	0.27153 0.33873 0.62034 0.01500
C 	C 	0.21492 0.33512 0.62216 -0.08500
C 	C 	0.98670 0.36770 0.74460 0.28300
C 	C 	0.94740 0.37000 0.78360 -0.72000
C 	C 	0.17230 0.54420 0.70020 0.39400
C 	C 	0.17050 0.59440 0.66740 -0.88000
C 	C 	0.44315 0.93045 0.85990 0.04100
C 	C 	0.46015 0.97088 0.87424 -0.10000
C 	C 	0.42005 0.98525 0.90310 0.02500
C 	C 	0.36289 0.95919 0.91762 -0.09900
C 	C 	0.34588 0.91876 0.90328 0.02200
C 	C 	0.38599 0.90439 0.87442 -0.09800
C 	C 	0.35445 0.60635 0.90330 0.32700
C 	C 	0.47159 0.74389 0.81982 0.04100
C 	C 	0.41238 0.75089 0.82844 -0.10000
C 	C 	0.37147 0.70459 0.85322 0.02100
C 	C 	0.38972 0.65132 0.86936 -0.08600
C 	C 	0.44893 0.64440 0.86074 0.01400
C 	C 	0.48984 0.69071 0.83598 -0.09500
C 	C 	0.55108 0.20228 0.49864 0.38700
C 	C 	0.60481 0.87941 0.73998 -0.04300
C 	C 	0.60335 0.82315 0.73790 0.18100
C 	C 	0.55930 0.78066 0.76380 -0.16300
C 	C 	0.51661 0.79451 0.79178 0.02300
C 	C 	0.51806 0.85076 0.79388 -0.00400
C 	C 	0.56212 0.89319 0.76796 0.03200
C 	C 	0.56747 0.94567 0.77246 -0.06200
C 	C 	0.52648 0.95978 0.80184 -0.05700
C 	C 	0.48501 0.91671 0.82778 0.01800
C 	C 	0.47905 0.86455 0.82410 -0.08100
C 	C 	0.57168 0.15958 0.52704 -0.10400
C 	C 	0.54247 0.10371 0.54378 0.02700
C 	C 	0.55491 0.06491 0.57398 -0.10300
C 	C 	0.59648 0.08198 0.58744 0.04500
C 	C 	0.62572 0.13785 0.57070 -0.10400
C 	C 	0.61335 0.17665 0.54050 0.03100
C 	C 	0.92339 0.17909 0.54962 0.35700
C 	C 	0.78033 0.05133 0.62854 0.03900
C 	C 	0.77209 0.11019 0.61822 -0.09700
C 	C 	0.81760 0.15120 0.59240 0.01100
C 	C 	0.87136 0.13316 0.57688 -0.07600
C 	C 	0.87957 0.07431 0.58718 0.01100
C 	C 	0.83409 0.03339 0.61302 -0.09400
C 	C 	0.32602 0.96472 0.95016 0.29000
C 	C 	0.64664 0.92224 0.70812 -0.03800
C 	C 	0.70264 0.92474 0.71052 0.17700
C 	C 	0.74531 0.96794 0.68392 -0.16300
C 	C 	0.73195 0.00885 0.65490 0.02000
C 	C 	0.67596 0.00646 0.65248 0.00200
C 	C 	0.63328 0.96315 0.67910 0.02400
C 	C 	0.57795 0.96025 0.67490 -0.05500
C 	C 	0.56419 0.99939 0.64722 -0.05600
C 	C 	0.60813 0.04093 0.62034 0.01600
C 	C 	0.66292 0.04272 0.62216 -0.08500
C 	C 	0.76870 0.88770 0.74460 0.28300
C 	C 	0.76900 0.84640 0.78360 -0.71900
C 	C 	0.62750 0.75560 0.70020 0.39400
C 	C 	0.66210 0.73820 0.66740 -0.88000
C 	C 	0.20965 0.44315 0.35990 0.04100
C 	C 	0.15488 0.46015 0.37424 -0.10000
C 	C 	0.11165 0.42005 0.40310 0.02500
C 	C 	0.12319 0.36289 0.41762 -0.09900
C 	C 	0.17796 0.34588 0.40328 0.02200
C 	C 	0.22119 0.38599 0.37442 -0.09900
C 	C 	0.49035 0.35445 0.40330 0.32700
C 	C 	0.43629 0.47159 0.31982 0.04100
C 	C 	0.42067 0.41238 0.32844 -0.10000
C 	C 	0.44219 0.37147 0.35322 0.02100
C 	C 	0.47932 0.38972 0.36936 -0.08700
C 	C 	0.49486 0.44893 0.36074 0.01400
C 	C 	0.47331 0.48984 0.33598 -0.09500
C 	C 	0.29908 0.55108 0.99864 0.38700
C 	C 	0.38061 0.60481 0.23998 -0.04300
C 	C 	0.43895 0.60335 0.23790 0.18100
C 	C 	0.45554 0.55930 0.26380 -0.16300
C 	C 	0.41371 0.51661 0.29178 0.02300
C 	C 	0.35536 0.51806 0.29388 -0.00400
C 	C 	0.33885 0.56212 0.26796 0.03200
C 	C 	0.28187 0.56747 0.27246 -0.06200
C 	C 	0.23838 0.52648 0.30184 -0.05700
C 	C 	0.25551 0.48501 0.32778 0.01800
C 	C 	0.31135 0.47905 0.32410 -0.08100
C 	C 	0.31338 0.57168 0.02704 -0.10400
C 	C 	0.35251 0.54247 0.04378 0.02700
C 	C 	0.36111 0.55491 0.07398 -0.10300
C 	C 	0.33058 0.59648 0.08744 0.04500
C 	C 	0.29145 0.62572 0.07070 -0.10400
C 	C 	0.28285 0.61335 0.04050 0.03100
C 	C 	0.27129 0.92339 0.04962 0.35700
C 	C 	0.32013 0.78033 0.12854 0.03900
C 	C 	0.27159 0.77209 0.11822 -0.09700
C 	C 	0.25640 0.81760 0.09240 0.01200
C 	C 	0.28996 0.87136 0.07688 -0.07600
C 	C 	0.33851 0.87957 0.08718 0.01200
C 	C 	0.35359 0.83409 0.11302 -0.09500
C 	C 	0.08512 0.32602 0.45016 0.29000
C 	C 	0.36964 0.64664 0.20812 -0.03800
C 	C 	0.36474 0.70264 0.21052 0.17700
C 	C 	0.34814 0.74531 0.18392 -0.16300
C 	C 	0.33625 0.73195 0.15490 0.02000
C 	C 	0.34106 0.67596 0.15248 0.00200
C 	C 	0.35775 0.63328 0.17910 0.02400
C 	C 	0.36485 0.57795 0.17490 -0.05500
C 	C 	0.35339 0.56419 0.14722 -0.05600
C 	C 	0.33873 0.60813 0.12034 0.01500
C 	C 	0.33512 0.66292 0.12216 -0.08500
C 	C 	0.36770 0.76870 0.24460 0.28300
C 	C 	0.37000 0.76900 0.28360 -0.71900
C 	C 	0.54420 0.62750 0.20020 0.39400
C 	C 	0.59440 0.66210 0.16740 -0.88000
C 	C 	0.93045 0.19695 0.35990 0.04100
C 	C 	0.97088 0.16561 0.37424 -0.10000
C 	C 	0.98525 0.17685 0.40310 0.02600
C 	C 	0.95919 0.21949 0.41762 -0.09900
C 	C 	0.91876 0.25084 0.40328 0.02200
C 	C 	0.90439 0.23959 0.37442 -0.09900
C 	C 	0.60635 0.24225 0.40330 0.32700
C 	C 	0.74389 0.20859 0.31982 0.04100
C 	C 	0.75089 0.25918 0.32844 -0.10000
C 	C 	0.70459 0.27531 0.35322 0.02100
C 	C 	0.65132 0.24092 0.36936 -0.08700
C 	C 	0.64440 0.19033 0.36074 0.01400
C 	C 	0.69071 0.17418 0.33598 -0.09500
C 	C 	0.20228 0.45028 0.99864 0.38700
C 	C 	0.87941 0.15521 0.23998 -0.04300
C 	C 	0.82315 0.15875 0.23790 0.18100
C 	C 	0.78066 0.17690 0.26380 -0.16300
C 	C 	0.79451 0.19161 0.29178 0.02300
C 	C 	0.85076 0.18806 0.29388 -0.00400
C 	C 	0.89319 0.16992 0.26796 0.03200
C 	C 	0.94567 0.16007 0.27246 -0.06200
C 	C 	0.95978 0.17168 0.30184 -0.05700
C 	C 	0.91671 0.18721 0.32778 0.01700
C 	C 	0.86455 0.19685 0.32410 -0.08100
C 	C 	0.15958 0.40128 0.02704 -0.10400
C 	C 	0.10371 0.41375 0.04378 0.02800
C 	C 	0.06491 0.37111 0.07398 -0.10400
C 	C 	0.08198 0.31608 0.08744 0.04500
C 	C 	0.13785 0.30358 0.07070 -0.10400
C 	C 	0.17665 0.34615 0.04050 0.03100
C 	C 	0.17909 0.02699 0.04962 0.35700
C 	C 	0.05133 0.09113 0.12854 0.04000
C 	C 	0.11019 0.10969 0.11822 -0.09700
C 	C 	0.15120 0.09000 0.09240 0.01200
C 	C 	0.13316 0.05176 0.07688 -0.07600
C 	C 	0.07431 0.03325 0.08718 0.01300
C 	C 	0.03339 0.05289 0.11302 -0.09600
C 	C 	0.96472 0.22382 0.45016 0.29100
C 	C 	0.92224 0.14524 0.20812 -0.03800
C 	C 	0.92474 0.08684 0.21052 0.17700
C 	C 	0.96794 0.07077 0.18392 -0.16200
C 	C 	0.00885 0.11315 0.15490 0.01900
C 	C 	0.00646 0.17156 0.15248 0.00100
C 	C 	0.96315 0.18762 0.17910 0.02400
C 	C 	0.96025 0.24715 0.17490 -0.05500
C 	C 	0.99939 0.28859 0.14722 -0.05500
C 	C 	0.04093 0.27153 0.12034 0.01500
C 	C 	0.04272 0.21492 0.12216 -0.08400
C 	C 	0.88770 0.98670 0.24460 0.28300
C 	C 	0.84640 0.94740 0.28360 -0.71900
C 	C 	0.75560 0.17230 0.20020 0.39400
C 	C 	0.73820 0.17050 0.16740 -0.88000
O 	O 	0.22299 0.53139 0.91142 -0.41300
O 	O 	0.49727 0.32797 0.48826 -0.42200
O 	O 	0.19894 0.03014 0.96132 -0.36800
O 	O 	0.99228 0.30488 0.53824 -0.40500
O 	O 	0.05115 0.23405 0.53870 -0.42500
O 	O 	0.26721 0.09141 0.96298 -0.37600
O 	O 	0.29277 0.47281 0.91026 -0.37600
O 	O 	0.43409 0.26349 0.48722 -0.41900
O 	O 	0.15342 0.48202 0.70736 -0.27500
O 	O 	0.04947 0.37487 0.74026 -0.25900
O 	O 	0.36559 0.55719 0.91142 -0.41300
O 	O 	0.51447 0.18377 0.48826 -0.42200
O 	O 	0.33974 0.00854 0.96132 -0.36800
O 	O 	0.96948 0.15688 0.53824 -0.40500
O 	O 	0.91015 0.22725 0.53870 -0.42500
O 	O 	0.26981 0.94561 0.96298 -0.37600
O 	O 	0.29697 0.61693 0.91026 -0.37600
O 	O 	0.57869 0.24929 0.48722 -0.41900
O 	O 	0.63922 0.81062 0.70736 -0.27500
O 	O 	0.71027 0.88487 0.74026 -0.25900
O 	O 	0.53139 0.36559 0.41142 -0.41300
O 	O 	0.32797 0.51447 0.98826 -0.42200
O 	O 	0.03014 0.33974 0.46132 -0.36800
O 	O 	0.30488 0.96948 0.03824 -0.40500
O 	O 	0.23405 0.91015 0.03870 -0.42500
O 	O 	0.09141 0.26981 0.46298 -0.37600
O 	O 	0.47281 0.29697 0.41026 -0.37600
O 	O 	0.26349 0.57869 0.98722 -0.41800
O 	O 	0.48202 0.63922 0.20736 -0.27500
O 	O 	0.37487 0.71027 0.24026 -0.25800
O 	O 	0.55719 0.22299 0.41142 -0.41300
O 	O 	0.18377 0.49727 0.98826 -0.42200
O 	O 	0.00854 0.19894 0.46132 -0.36800
O 	O 	0.15688 0.99228 0.03824 -0.40400
O 	O 	0.22725 0.05115 0.03870 -0.42500
O 	O 	0.94561 0.26721 0.46298 -0.37600
O 	O 	0.61693 0.29277 0.41026 -0.37600
O 	O 	0.24929 0.43409 0.98722 -0.41800
O 	O 	0.81062 0.15342 0.20736 -0.27500
O 	O 	0.88487 0.04947 0.24026 -0.25800
Cu	Cu	0.76412 0.43841 0.05190 0.89900
Cu	Cu	0.79023 0.03524 0.99976 0.90200
Cu	Cu	0.68398 0.50969 0.05190 0.89900
Cu	Cu	0.71001 0.96500 0.99976 0.90100
Cu	Cu	0.43841 0.68398 0.55190 0.89900
Cu	Cu	0.03524 0.71001 0.49976 0.90100
Cu	Cu	0.50969 0.76412 0.55190 0.89900
Cu	Cu	0.96500 0.79023 0.49976 0.90100
H 	H 	0.86250 0.85270 0.13540 0.06400
H 	H 	0.84390 0.92450 0.08740 0.03600
H 	H 	0.72100 0.81440 0.08720 0.03200
H 	H 	0.73970 0.74270 0.13500 0.05600
H 	H 	0.71820 0.60380 0.18220 0.05500
H 	H 	0.69140 0.56810 0.14100 0.02900
H 	H 	0.83230 0.48070 0.12860 0.03900
H 	H 	0.85910 0.51630 0.16980 0.06500
H 	H 	0.82080 0.50600 0.23760 0.09500
H 	H 	0.85430 0.72880 0.24380 0.05800
H 	H 	0.83100 0.80020 0.19660 0.04800
H 	H 	0.79060 0.67870 0.15860 0.05800
H 	H 	0.55000 0.62740 0.46500 0.03500
H 	H 	0.62060 0.61310 0.41500 0.06600
H 	H 	0.73280 0.72880 0.42040 0.06500
H 	H 	0.66200 0.74290 0.47060 0.03500
H 	H 	0.86510 0.75050 0.37160 0.06000
H 	H 	0.89780 0.77560 0.41440 0.03800
H 	H 	0.99200 0.63940 0.42300 0.04100
H 	H 	0.95930 0.61430 0.38020 0.06500
H 	H 	0.96780 0.65510 0.31440 0.09100
H 	H 	0.74190 0.62220 0.30840 0.05700
H 	H 	0.67300 0.64490 0.35400 0.04800
H 	H 	0.79490 0.67140 0.39700 0.06300
H 	H 	0.02250 0.66890 0.25800 -0.05500
H 	H 	0.02150 0.60200 0.27480 -0.05200
H 	H 	0.09230 0.63750 0.21380 0.23900
H 	H 	0.04610 0.59260 0.21460 0.24900
H 	H 	0.04300 0.65860 0.19720 0.24900
H 	H 	0.78810 0.45480 0.30000 -0.08100
H 	H 	0.84980 0.44660 0.27800 -0.08400
H 	H 	0.81040 0.37140 0.33260 0.28700
H 	H 	0.86880 0.39980 0.33100 0.29200
H 	H 	0.81040 0.41360 0.35500 0.29500
H 	H 	0.50210 0.01190 0.13540 0.06400
H 	H 	0.56870 0.98810 0.08740 0.03600
H 	H 	0.69180 0.09840 0.08720 0.03300
H 	H 	0.62530 0.12230 0.13500 0.05600
H 	H 	0.59960 0.21400 0.18220 0.05500
H 	H 	0.66760 0.29090 0.14100 0.02900
H 	H 	0.53910 0.39070 0.12860 0.03900
H 	H 	0.47110 0.31390 0.16980 0.06500
H 	H 	0.44160 0.25640 0.23760 0.09500
H 	H 	0.40190 0.02740 0.24380 0.05800
H 	H 	0.47240 0.00320 0.19660 0.04800
H 	H 	0.55080 0.16270 0.15860 0.05800
H 	H 	0.48500 0.90760 0.46500 0.03500
H 	H 	0.46440 0.97190 0.41500 0.06600
H 	H 	0.34680 0.85080 0.42040 0.06500
H 	H 	0.36740 0.78650 0.47060 0.03500
H 	H 	0.26330 0.87790 0.37160 0.06000
H 	H 	0.18780 0.81000 0.41440 0.03800
H 	H 	0.08500 0.93760 0.42300 0.04100
H 	H 	0.16050 0.00550 0.38020 0.06400
H 	H 	0.21780 0.03050 0.31440 0.09100
H 	H 	0.44970 0.06940 0.30840 0.05600
H 	H 	0.47300 0.00110 0.35400 0.04900
H 	H 	0.30810 0.93160 0.39700 0.06300
H 	H 	0.21950 0.07310 0.25800 -0.05500
H 	H 	0.20370 0.12320 0.27480 -0.05200
H 	H 	0.19390 0.14870 0.21380 0.23900
H 	H 	0.23930 0.19280 0.21460 0.24900
H 	H 	0.25980 0.14420 0.19720 0.24900
H 	H 	0.41190 0.24520 0.30000 -0.08100
H 	H 	0.37220 0.27540 0.27800 -0.08400
H 	H 	0.35700 0.29600 0.33260 0.28700
H 	H 	0.30020 0.26920 0.33100 0.29200
H 	H 	0.33460 0.23140 0.35500 0.29500
H 	H 	0.85270 0.50210 0.63540 0.06400
H 	H 	0.92450 0.56870 0.58740 0.03600
H 	H 	0.81440 0.69180 0.58720 0.03200
H 	H 	0.74270 0.62530 0.63500 0.05600
H 	H 	0.60380 0.59960 0.68220 0.05500
H 	H 	0.56810 0.66760 0.64100 0.02900
H 	H 	0.48070 0.53910 0.62860 0.03900
H 	H 	0.51630 0.47110 0.66980 0.06500
H 	H 	0.50600 0.44160 0.73760 0.09500
H 	H 	0.72880 0.40190 0.74380 0.05800
H 	H 	0.80020 0.47240 0.69660 0.04800
H 	H 	0.67870 0.55080 0.65860 0.05800
H 	H 	0.62740 0.48500 0.96500 0.03500
H 	H 	0.61310 0.46440 0.91500 0.06600
H 	H 	0.72880 0.34680 0.92040 0.06500
H 	H 	0.74290 0.36740 0.97060 0.03500
H 	H 	0.75050 0.26330 0.87160 0.06100
H 	H 	0.77560 0.18780 0.91440 0.03800
H 	H 	0.63940 0.08500 0.92300 0.04100
H 	H 	0.61430 0.16050 0.88020 0.06500
H 	H 	0.65510 0.21780 0.81440 0.09100
H 	H 	0.62220 0.44970 0.80840 0.05700
H 	H 	0.64490 0.47300 0.85400 0.04800
H 	H 	0.67140 0.30810 0.89700 0.06300
H 	H 	0.66890 0.21950 0.75800 -0.05500
H 	H 	0.60200 0.20370 0.77480 -0.05200
H 	H 	0.63750 0.19390 0.71380 0.23900
H 	H 	0.59260 0.23930 0.71460 0.24900
H 	H 	0.65860 0.25980 0.69720 0.24900
H 	H 	0.45480 0.41190 0.80000 -0.08100
H 	H 	0.44660 0.37220 0.77800 -0.08400
H 	H 	0.37140 0.35700 0.83260 0.28700
H 	H 	0.39980 0.30020 0.83100 0.29200
H 	H 	0.41360 0.33460 0.85500 0.29500
H 	H 	0.01190 0.86250 0.63540 0.06500
H 	H 	0.98810 0.84390 0.58740 0.03500
H 	H 	0.09840 0.72100 0.58720 0.03200
H 	H 	0.12230 0.73970 0.63500 0.05600
H 	H 	0.21400 0.71820 0.68220 0.05500
H 	H 	0.29090 0.69140 0.64100 0.02900
H 	H 	0.39070 0.83230 0.62860 0.03900
H 	H 	0.31390 0.85910 0.66980 0.06500
H 	H 	0.25640 0.82080 0.73760 0.09500
H 	H 	0.02740 0.85430 0.74380 0.05800
H 	H 	0.00320 0.83100 0.69660 0.04800
H 	H 	0.16270 0.79060 0.65860 0.05800
H 	H 	0.90760 0.55000 0.96500 0.03500
H 	H 	0.97190 0.62060 0.91500 0.06600
H 	H 	0.85080 0.73280 0.92040 0.06500
H 	H 	0.78650 0.66200 0.97060 0.03500
H 	H 	0.87790 0.86510 0.87160 0.06100
H 	H 	0.81000 0.89780 0.91440 0.03800
H 	H 	0.93760 0.99200 0.92300 0.04100
H 	H 	0.00550 0.95930 0.88020 0.06500
H 	H 	0.03050 0.96780 0.81440 0.09100
H 	H 	0.06940 0.74190 0.80840 0.05700
H 	H 	0.00110 0.67300 0.85400 0.04800
H 	H 	0.93160 0.79490 0.89700 0.06300
H 	H 	0.07310 0.02250 0.75800 -0.05500
H 	H 	0.12320 0.02150 0.77480 -0.05200
H 	H 	0.14870 0.09230 0.71380 0.23900
H 	H 	0.19280 0.04610 0.71460 0.24800
H 	H 	0.14420 0.04300 0.69720 0.24900
H 	H 	0.24520 0.78810 0.80000 -0.08100
H 	H 	0.27540 0.84980 0.77800 -0.08400
H 	H 	0.29600 0.81040 0.83260 0.28700
H 	H 	0.26920 0.86880 0.83100 0.29200
H 	H 	0.23140 0.81040 0.85500 0.29500
C 	C 	0.80305 0.79035 0.14010 0.04100
C 	C 	0.83439 0.84512 0.12576 -0.10000
C 	C 	0.82315 0.88835 0.09690 0.02500
C 	C 	0.78051 0.87681 0.08238 -0.09900
C 	C 	0.74916 0.82204 0.09672 0.02200
C 	C 	0.76041 0.77881 0.12558 -0.09900
C 	C 	0.75775 0.50965 0.09670 0.32700
C 	C 	0.79141 0.56371 0.18018 0.04100
C 	C 	0.74082 0.57933 0.17156 -0.10000
C 	C 	0.72469 0.55781 0.14678 0.02100
C 	C 	0.75908 0.52068 0.13064 -0.08600
C 	C 	0.80967 0.50514 0.13926 0.01400
C 	C 	0.82582 0.52669 0.16402 -0.09500
C 	C 	0.54972 0.70092 0.50136 0.38700
C 	C 	0.84479 0.61939 0.26002 -0.04300
C 	C 	0.84125 0.56105 0.26210 0.18100
C 	C 	0.82310 0.54446 0.23620 -0.16300
C 	C 	0.80839 0.58629 0.20822 0.02300
C 	C 	0.81194 0.64464 0.20612 -0.00400
C 	C 	0.83008 0.66115 0.23204 0.03200
C 	C 	0.83993 0.71813 0.22754 -0.06200
C 	C 	0.82832 0.76162 0.19816 -0.05700
C 	C 	0.81279 0.74449 0.17222 0.01800
C 	C 	0.80315 0.68865 0.17590 -0.08100
C 	C 	0.59872 0.68662 0.47296 -0.10400
C 	C 	0.58625 0.64749 0.45622 0.02700
C 	C 	0.62889 0.63889 0.42602 -0.10300
C 	C 	0.68392 0.66942 0.41256 0.04500
C 	C 	0.69642 0.70855 0.42930 -0.10400
C 	C 	0.65385 0.71715 0.45950 0.03100
C 	C 	0.97301 0.72871 0.45038 0.35700
C 	C 	0.90887 0.67987 0.37146 0.03900
C 	C 	0.89031 0.72841 0.38178 -0.09700
C 	C 	0.91000 0.74360 0.40760 0.01200
C 	C 	0.94824 0.71004 0.42312 -0.07600
C 	C 	0.96675 0.66149 0.41282 0.01200
C 	C 	0.94711 0.64641 0.38698 -0.09500
C 	C 	0.77618 0.91488 0.04984 0.29100
C 	C 	0.85476 0.63036 0.29188 -0.03800
C 	C 	0.91316 0.63526 0.28948 0.17700
C 	C 	0.92923 0.65186 0.31608 -0.16300
C 	C 	0.88685 0.66375 0.34510 0.02000
C 	C 	0.82844 0.65894 0.34752 0.00200
C 	C 	0.81238 0.64225 0.32090 0.02400
C 	C 	0.75285 0.63515 0.32510 -0.05500
C 	C 	0.71141 0.64661 0.35278 -0.05600
C 	C 	0.72847 0.66127 0.37966 0.01500
C 	C 	0.78508 0.66488 0.37784 -0.08500
C 	C 	0.01330 0.63230 0.25540 0.28300
C 	C 	0.05260 0.63000 0.21640 -0.72000
C 	C 	0.82770 0.45580 0.29980 0.39400
C 	C 	0.82950 0.40560 0.33260 -0.88000
C 	C 	0.55685 0.06955 0.14010 0.04100
C 	C 	0.53985 0.02912 0.12576 -0.10000
C 	C 	0.57995 0.01475 0.09690 0.02500
C 	C 	0.63711 0.04081 0.08238 -0.09900
C 	C 	0.65412 0.08124 0.09672 0.02200
C 	C 	0.61401 0.09561 0.12558 -0.09800
C 	C 	0.64555 0.39365 0.09670 0.32700
C 	C 	0.52841 0.25611 0.18018 0.04100
C 	C 	0.58762 0.24911 0.17156 -0.10000
C 	C 	0.62853 0.29541 0.14678 0.02100
C 	C 	0.61028 0.34868 0.13064 -0.08600
C 	C 	0.55107 0.35560 0.13926 0.01400
C 	C 	0.51016 0.30929 0.16402 -0.09500
C 	C 	0.44892 0.79772 0.50136 0.38700
C 	C 	0.39519 0.12059 0.26002 -0.04300
C 	C 	0.39665 0.17685 0.26210 0.18100
C 	C 	0.44070 0.21934 0.23620 -0.16300
C 	C 	0.48339 0.20549 0.20822 0.02300
C 	C 	0.48194 0.14924 0.20612 -0.00400
C 	C 	0.43788 0.10681 0.23204 0.03200
C 	C 	0.43253 0.05433 0.22754 -0.06200
C 	C 	0.47352 0.04022 0.19816 -0.05700
C 	C 	0.51499 0.08329 0.17222 0.01800
C 	C 	0.52095 0.13545 0.17590 -0.08100
C 	C 	0.42832 0.84042 0.47296 -0.10400
C 	C 	0.45753 0.89629 0.45622 0.02700
C 	C 	0.44509 0.93509 0.42602 -0.10300
C 	C 	0.40352 0.91802 0.41256 0.04500
C 	C 	0.37428 0.86215 0.42930 -0.10400
C 	C 	0.38665 0.82335 0.45950 0.03100
C 	C 	0.07661 0.82091 0.45038 0.35700
C 	C 	0.21967 0.94867 0.37146 0.03900
C 	C 	0.22791 0.88981 0.38178 -0.09700
C 	C 	0.18240 0.84880 0.40760 0.01100
C 	C 	0.12864 0.86684 0.42312 -0.07600
C 	C 	0.12043 0.92569 0.41282 0.01100
C 	C 	0.16591 0.96661 0.38698 -0.09400
C 	C 	0.67398 0.03528 0.04984 0.29000
C 	C 	0.35336 0.07776 0.29188 -0.03800
C 	C 	0.29736 0.07526 0.28948 0.17700
C 	C 	0.25469 0.03206 0.31608 -0.16300
C 	C 	0.26805 0.99115 0.34510 0.02000
C 	C 	0.32404 0.99354 0.34752 0.00200
C 	C 	0.36672 0.03685 0.32090 0.02400
C 	C 	0.42205 0.03975 0.32510 -0.05500
C 	C 	0.43581 0.00061 0.35278 -0.05600
C 	C 	0.39187 0.95907 0.37966 0.01600
C 	C 	0.33708 0.95728 0.37784 -0.08500
C 	C 	0.23130 0.11230 0.25540 0.28300
C 	C 	0.23100 0.15360 0.21640 -0.71900
C 	C 	0.37250 0.24440 0.29980 0.39400
C 	C 	0.33790 0.26180 0.33260 -0.88000
C 	C 	0.79035 0.55685 0.64010 0.04100
C 	C 	0.84512 0.53985 0.62576 -0.10000
C 	C 	0.88835 0.57995 0.59690 0.02500
C 	C 	0.87681 0.63711 0.58238 -0.09900
C 	C 	0.82204 0.65412 0.59672 0.02200
C 	C 	0.77881 0.61401 0.62558 -0.09900
C 	C 	0.50965 0.64555 0.59670 0.32700
C 	C 	0.56371 0.52841 0.68018 0.04100
C 	C 	0.57933 0.58762 0.67156 -0.10000
C 	C 	0.55781 0.62853 0.64678 0.02100
C 	C 	0.52068 0.61028 0.63064 -0.08700
C 	C 	0.50514 0.55107 0.63926 0.01400
C 	C 	0.52669 0.51016 0.66402 -0.09500
C 	C 	0.70092 0.44892 0.00136 0.38700
C 	C 	0.61939 0.39519 0.76002 -0.04300
C 	C 	0.56105 0.39665 0.76210 0.18100
C 	C 	0.54446 0.44070 0.73620 -0.16300
C 	C 	0.58629 0.48339 0.70822 0.02300
C 	C 	0.64464 0.48194 0.70612 -0.00400
C 	C 	0.66115 0.43788 0.73204 0.03200
C 	C 	0.71813 0.43253 0.72754 -0.06200
C 	C 	0.76162 0.47352 0.69816 -0.05700
C 	C 	0.74449 0.51499 0.67222 0.01800
C 	C 	0.68865 0.52095 0.67590 -0.08100
C 	C 	0.68662 0.42832 0.97296 -0.10400
C 	C 	0.64749 0.45753 0.95622 0.02700
C 	C 	0.63889 0.44509 0.92602 -0.10300
C 	C 	0.66942 0.40352 0.91256 0.04500
C 	C 	0.70855 0.37428 0.92930 -0.10400
C 	C 	0.71715 0.38665 0.95950 0.03100
C 	C 	0.72871 0.07661 0.95038 0.35700
C 	C 	0.67987 0.21967 0.87146 0.03900
C 	C 	0.72841 0.22791 0.88178 -0.09700
C 	C 	0.74360 0.18240 0.90760 0.01200
C 	C 	0.71004 0.12864 0.92312 -0.07600
C 	C 	0.66149 0.12043 0.91282 0.01200
C 	C 	0.64641 0.16591 0.88698 -0.09500
C 	C 	0.91488 0.67398 0.54984 0.29000
C 	C 	0.63036 0.35336 0.79188 -0.03800
C 	C 	0.63526 0.29736 0.78948 0.17700
C 	C 	0.65186 0.25469 0.81608 -0.16300
C 	C 	0.66375 0.26805 0.84510 0.02000
C 	C 	0.65894 0.32404 0.84752 0.00200
C 	C 	0.64225 0.36672 0.82090 0.02400
C 	C 	0.63515 0.42205 0.82510 -0.05500
C 	C 	0.64661 0.43581 0.85278 -0.05600
C 	C 	0.66127 0.39187 0.87966 0.01500
C 	C 	0.66488 0.33708 0.87784 -0.08500
C 	C 	0.63230 0.23130 0.75540 0.28300
C 	C 	0.63000 0.23100 0.71640 -0.71900
C 	C 	0.45580 0.37250 0.79980 0.39400
C 	C 	0.40560 0.33790 0.83260 -0.88000
C 	C 	0.06955 0.80305 0.64010 0.04100
C 	C 	0.02912 0.83439 0.62576 -0.10000
C 	C 	0.01475 0.82315 0.59690 0.02600
C 	C 	0.04081 0.78051 0.58238 -0.09900
C 	C 	0.08124 0.74916 0.59672 0.02200
C 	C 	0.09561 0.76041 0.62558 -0.09900
C 	C 	0.39365 0.75775 0.59670 0.32700
C 	C 	0.25611 0.79141 0.68018 0.04100
C 	C 	0.24911 0.74082 0.67156 -0.10000
C 	C 	0.29541 0.72469 0.64678 0.02100
C 	C 	0.34868 0.75908 0.63064 -0.08700
C 	C 	0.35560 0.80967 0.63926 0.01400
C 	C 	0.30929 0.82582 0.66402 -0.09500
C 	C 	0.79772 0.54972 0.00136 0.38700
C 	C 	0.12059 0.84479 0.76002 -0.04300
C 	C 	0.17685 0.84125 0.76210 0.18100
C 	C 	0.21934 0.82310 0.73620 -0.16300
C 	C 	0.20549 0.80839 0.70822 0.02300
C 	C 	0.14924 0.81194 0.70612 -0.00400
C 	C 	0.10681 0.83008 0.73204 0.03200
C 	C 	0.05433 0.83993 0.72754 -0.06200
C 	C 	0.04022 0.82832 0.69816 -0.05700
C 	C 	0.08329 0.81279 0.67222 0.01700
C 	C 	0.13545 0.80315 0.67590 -0.08100
C 	C 	0.84042 0.59872 0.97296 -0.10400
C 	C 	0.89629 0.58625 0.95622 0.02800
C 	C 	0.93509 0.62889 0.92602 -0.10400
C 	C 	0.91802 0.68392 0.91256 0.04500
C 	C 	0.86215 0.69642 0.92930 -0.10400
C 	C 	0.82335 0.65385 0.95950 0.03100
C 	C 	0.82091 0.97301 0.95038 0.35700
C 	C 	0.94867 0.90887 0.87146 0.04000
C 	C 	0.88981 0.89031 0.88178 -0.09700
C 	C 	0.84880 0.91000 0.90760 0.01200
C 	C 	0.86684 0.94824 0.92312 -0.07600
C 	C 	0.92569 0.96675 0.91282 0.01300
C 	C 	0.96661 0.94711 0.88698 -0.09600
C 	C 	0.03528 0.77618 0.54984 0.29100
C 	C 	0.07776 0.85476 0.79188 -0.03800
C 	C 	0.07526 0.91316 0.78948 0.17700
C 	C 	0.03206 0.92923 0.81608 -0.16200
C 	C 	0.99115 0.88685 0.84510 0.01900
C 	C 	0.99354 0.82844 0.84752 0.00100
C 	C 	0.03685 0.81238 0.82090 0.02400
C 	C 	0.03975 0.75285 0.82510 -0.05500
C 	C 	0.00061 0.71141 0.85278 -0.05500
C 	C 	0.95907 0.72847 0.87966 0.01500
C 	C 	0.95728 0.78508 0.87784 -0.08400
C 	C 	0.11230 0.01330 0.75540 0.28300
C 	C 	0.15360 0.05260 0.71640 -0.71900
C 	C 	0.24440 0.82770 0.79980 0.39400
C 	C 	0.26180 0.82950 0.83260 -0.88000
O 	O 	0.77701 0.46861 0.08858 -0.41300
O 	O 	0.50273 0.67203 0.51174 -0.42200
O 	O 	0.80106 0.96986 0.03868 -0.36800
O 	O 	0.00772 0.69512 0.46176 -0.40500
O 	O 	0.94885 0.76595 0.46130 -0.42500
O 	O 	0.73279 0.90859 0.03702 -0.37600
O 	O 	0.70723 0.52719 0.08974 -0.37600
O 	O 	0.56591 0.73651 0.51278 -0.41900
O 	O 	0.84658 0.51798 0.29264 -0.27500
O 	O 	0.95053 0.62513 0.25974 -0.25900
O 	O 	0.63441 0.44281 0.08858 -0.41300
O 	O 	0.48553 0.81623 0.51174 -0.42200
O 	O 	0.66026 0.99146 0.03868 -0.36800
O 	O 	0.03052 0.84312 0.46176 -0.40500
O 	O 	0.08985 0.77275 0.46130 -0.42500
O 	O 	0.73019 0.05439 0.03702 -0.37600
O 	O 	0.70303 0.38307 0.08974 -0.37600
O 	O 	0.42131 0.75071 0.51278 -0.41900
O 	O 	0.36078 0.18938 0.29264 -0.27500
O 	O 	0.28973 0.11513 0.25974 -0.25900
O 	O 	0.46861 0.63441 0.58858 -0.41300
O 	O 	0.67203 0.48553 0.01174 -0.42200
O 	O 	0.96986 0.66026 0.53868 -0.36800
O 	O 	0.69512 0.03052 0.96176 -0.40500
O 	O 	0.76595 0.08985 0.96130 -0.42500
O 	O 	0.90859 0.73019 0.53702 -0.37600
O 	O 	0.52719 0.70303 0.58974 -0.37600
O 	O 	0.73651 0.42131 0.01278 -0.41800
O 	O 	0.51798 0.36078 0.79264 -0.27500
O 	O 	0.62513 0.28973 0.75974 -0.25800
O 	O 	0.44281 0.77701 0.58858 -0.41300
O 	O 	0.81623 0.50273 0.01174 -0.42200
O 	O 	0.99146 0.80106 0.53868 -0.36800
O 	O 	0.84312 0.00772 0.96176 -0.40400
O 	O 	0.77275 0.94885 0.96130 -0.42500
O 	O 	0.05439 0.73279 0.53702 -0.37600
O 	O 	0.38307 0.70723 0.58974 -0.37600
O 	O 	0.75071 0.56591 0.01278 -0.41800
O 	O 	0.18938 0.84658 0.79264 -0.27500
O 	O 	0.11513 0.95053 0.75974 -0.25800
