data_crystal

_cell_length_a 9.58200
_cell_length_b 10.46700
_cell_length_c 17.92000
_cell_angle_alpha 74.75300
_cell_angle_beta  77.64300
_cell_angle_gamma 73.09300

_symmetry_space_group_name_	'P 1'
_symmetry_space_group_name_H-M	'P 1'

loop_
_symmetry_equiv_pos_as_xyz
  x,y,z

loop_
_atom_site_label
_atom_site_type_symbol
_atom_site_fract_x
_atom_site_fract_y
_atom_site_fract_z
_atom_site_charge
N 	N 	0.09890 0.84970 0.84720 -0.05600
N 	N 	0.73230 0.84900 0.08530 -0.05400
N 	N 	0.29960 0.11370 0.36710 -0.04100
O 	O 	0.05330 0.83990 0.92270 -0.14100
O 	O 	0.16670 0.80880 0.57030 -0.21000
O 	O 	0.38580 0.82760 0.58160 -0.27200
O 	O 	0.86150 0.85890 0.09490 -0.13400
O 	O 	0.20010 0.87490 0.07970 -0.24700
O 	O 	0.33710 0.70830 0.01860 -0.31800
O 	O 	0.31800 0.00880 0.42890 -0.20600
O 	O 	0.16800 0.55390 0.17890 -0.21500
O 	O 	0.29900 0.41120 0.09980 -0.28800
C 	C 	0.23960 0.84850 0.81680 0.05400
H 	H 	0.30440 0.84970 0.84840 0.04800
C 	C 	0.28890 0.84550 0.73930 -0.07300
H 	H 	0.38660 0.84590 0.71890 0.07600
C 	C 	0.19580 0.84200 0.69120 0.01100
C 	C 	0.05480 0.84250 0.72350 -0.10600
H 	H 	0.99050 0.83660 0.69310 0.12000
C 	C 	0.00340 0.85150 0.80080 0.02400
H 	H 	0.90410 0.85880 0.82070 0.07300
C 	C 	0.25440 0.82290 0.60760 0.28800
C 	C 	0.61640 0.86550 0.14320 0.04300
H 	H 	0.62740 0.88490 0.18910 0.05000
C 	C 	0.48120 0.85350 0.13390 -0.06200
H 	H 	0.40130 0.86630 0.17350 0.07700
C 	C 	0.46370 0.82240 0.06630 -0.00800
C 	C 	0.58490 0.80670 0.00840 -0.13000
H 	H 	0.57650 0.78700 0.96220 0.12400
C 	C 	0.71760 0.82000 0.01870 -0.01900
H 	H 	0.79820 0.80900 0.97930 0.11300
C 	C 	0.32410 0.79790 0.05350 0.29300
C 	C 	0.23940 0.24230 0.37550 0.00900
H 	H 	0.21050 0.26150 0.42520 0.04100
C 	C 	0.22060 0.34500 0.31090 -0.03100
H 	H 	0.17350 0.43370 0.31680 0.06500
C 	C 	0.27050 0.32000 0.23610 -0.06500
C 	C 	0.35300 0.08090 0.29380 -0.13000
H 	H 	0.39780 0.99120 0.28890 0.13500
C 	C 	0.33660 0.18600 0.22930 0.02600
H 	H 	0.37060 0.16700 0.17980 0.01700
C 	C 	0.24440 0.43810 0.16720 0.28500
N 	N 	0.90110 0.15030 0.15280 -0.06900
N 	N 	0.26770 0.15100 0.91470 -0.07100
N 	N 	0.70040 0.88630 0.63290 -0.09300
O 	O 	0.94670 0.16010 0.07730 -0.17100
O 	O 	0.83330 0.19120 0.42970 -0.21700
O 	O 	0.61420 0.17240 0.41840 -0.30100
O 	O 	0.13850 0.14110 0.90510 -0.16100
O 	O 	0.79990 0.12510 0.92030 -0.25200
O 	O 	0.66290 0.29170 0.98140 -0.27400
O 	O 	0.68200 0.99120 0.57110 -0.13200
O 	O 	0.83200 0.44610 0.82110 -0.18900
O 	O 	0.70100 0.58880 0.90020 -0.24700
C 	C 	0.76040 0.15150 0.18320 0.03000
H 	H 	0.69560 0.15030 0.15160 0.02700
C 	C 	0.71110 0.15450 0.26070 -0.06200
H 	H 	0.61340 0.15410 0.28110 0.06200
C 	C 	0.80420 0.15800 0.30880 -0.03500
C 	C 	0.94520 0.15750 0.27650 -0.01700
H 	H 	0.00950 0.16340 0.30690 0.03900
C 	C 	0.99660 0.14850 0.19920 0.07900
H 	H 	0.09590 0.14120 0.17930 -0.00100
C 	C 	0.74560 0.17710 0.39240 0.30100
C 	C 	0.38360 0.13450 0.85680 0.01500
H 	H 	0.37260 0.11510 0.81090 0.03200
C 	C 	0.51880 0.14650 0.86610 -0.04100
H 	H 	0.59870 0.13370 0.82650 0.05300
C 	C 	0.53630 0.17760 0.93370 -0.06800
C 	C 	0.41510 0.19330 0.99160 0.02400
H 	H 	0.42350 0.21300 0.03780 -0.00500
C 	C 	0.28240 0.18000 0.98130 0.08500
H 	H 	0.20180 0.19100 0.02070 -0.01200
C 	C 	0.67590 0.20210 0.94650 0.31700
C 	C 	0.76060 0.75770 0.62450 0.06700
H 	H 	0.78950 0.73850 0.57480 0.03900
C 	C 	0.77940 0.65500 0.68910 -0.10000
H 	H 	0.82650 0.56630 0.68320 0.09600
C 	C 	0.72950 0.68000 0.76390 0.03000
C 	C 	0.64700 0.91910 0.70620 0.16600
H 	H 	0.60220 0.00880 0.71110 -0.05200
C 	C 	0.66340 0.81400 0.77070 -0.15100
H 	H 	0.62940 0.83300 0.82020 0.10400
C 	C 	0.75560 0.56190 0.83280 0.25100
Na	Na	-0.00000 0.00000 -0.00000 0.57700
Na	Na	0.50000 0.00000 0.50000 0.58000
Na	Na	0.50000 0.50000 -0.00000 0.58100
