data_crystal

_cell_length_a 24.97000
_cell_length_b 19.25200
_cell_length_c 15.91300
_cell_angle_alpha 90.00000
_cell_angle_beta  129.46000
_cell_angle_gamma 90.00000

_symmetry_space_group_name_	'P 1'
_symmetry_space_group_name_H-M	'P 1'

loop_
_symmetry_equiv_pos_as_xyz
  x,y,z

loop_
_atom_site_label
_atom_site_type_symbol
_atom_site_fract_x
_atom_site_fract_y
_atom_site_fract_z
_atom_site_charge
N 	N 	0.45410 0.06340 0.26060 -0.08800
N 	N 	0.04590 0.93630 0.85350 -0.09100
O 	O 	0.34570 0.99050 0.41650 -0.44500
O 	O 	0.29410 0.06470 0.28180 -0.34900
C 	C 	0.34490 0.02930 0.35280 0.41100
C 	C 	0.41040 0.02860 0.36440 -0.38700
C 	C 	0.39350 0.06620 0.26500 0.04000
C 	C 	0.46990 0.98970 0.25030 -0.06900
C 	C 	0.42980 0.10230 0.16120 -0.07100
C 	C 	0.51810 0.09480 0.35730 -0.06000
O 	O 	0.15310 0.01090 0.22490 -0.45300
O 	O 	0.20510 0.93670 0.19310 -0.35200
C 	C 	0.15510 0.97270 0.16340 0.42100
C 	C 	0.09120 0.97120 0.04490 -0.39200
C 	C 	0.10550 0.93470 0.97690 0.04600
C 	C 	0.03070 0.00920 0.80960 -0.06400
C 	C 	0.07030 0.89740 0.80310 -0.06600
C 	C 	0.98130 0.90370 0.82120 -0.06300
O 	O 	0.23950 0.09620 0.41890 -0.46300
O 	O 	0.31470 0.04590 0.57620 -0.34800
C 	C 	0.27660 0.09580 0.51860 0.43600
C 	C 	0.27900 0.15860 0.57740 -0.42000
C 	C 	0.31590 0.14540 0.69650 0.07500
N 	N 	0.31270 0.20340 0.75520 -0.09300
C 	C 	0.24020 0.22060 0.70980 -0.06400
C 	C 	0.23960 0.28070 0.77220 -0.07400
C 	C 	0.34520 0.26710 0.75560 -0.06100
C 	C 	0.35240 0.31970 0.83480 -0.06800
C 	C 	0.35280 0.17900 0.87120 -0.06900
C 	C 	0.34530 0.22940 0.93540 -0.06300
N 	N 	0.31400 0.29700 0.87200 -0.09000
C 	C 	0.31700 0.35590 0.93820 0.06100
C 	C 	0.27960 0.34020 0.98260 -0.40100
C 	C 	0.27900 0.40460 0.03740 0.42200
O 	O 	0.24060 0.40400 0.06290 -0.45000
O 	O 	0.31400 0.45500 0.05270 -0.35600
Zn	Zn	0.24890 0.00040 0.37390 1.23500
H 	H 	0.44680 0.05300 0.42940 0.14500
H 	H 	0.42510 0.98190 0.36760 0.15300
H 	H 	0.35290 0.04520 0.20060 0.05000
H 	H 	0.38440 0.11420 0.26770 0.02000
H 	H 	0.42950 0.96930 0.18480 0.07300
H 	H 	0.48210 0.96270 0.31090 0.04900
H 	H 	0.42480 0.15030 0.17140 0.04700
H 	H 	0.38560 0.08510 0.09880 0.06800
H 	H 	0.53730 0.06760 0.42130 0.05700
H 	H 	0.50630 0.13970 0.36750 0.04200
H 	H 	0.07640 0.01780 0.01810 0.15200
H 	H 	0.05480 0.94680 0.03730 0.14800
H 	H 	0.14530 0.95650 0.99190 0.04800
H 	H 	0.11610 0.88710 0.00010 0.02200
H 	H 	0.07110 0.02870 0.82370 0.07200
H 	H 	0.01950 0.03660 0.84690 0.04900
H 	H 	0.07630 0.84950 0.82410 0.04600
H 	H 	0.11450 0.91560 0.83010 0.06700
H 	H 	0.96220 0.93140 0.84670 0.05900
H 	H 	0.99210 0.85850 0.85400 0.04300
H 	H 	0.30290 0.19510 0.57190 0.15400
H 	H 	0.23240 0.17320 0.54300 0.16100
H 	H 	0.36360 0.13560 0.73140 0.01200
H 	H 	0.29490 0.10510 0.70060 0.04100
H 	H 	0.21530 0.23570 0.63600 0.04700
H 	H 	0.21800 0.18030 0.71070 0.07000
H 	H 	0.21450 0.26590 0.79610 0.05000
H 	H 	0.21800 0.32140 0.72760 0.07400
H 	H 	0.38990 0.25690 0.77670 0.04200
H 	H 	0.31580 0.28640 0.68360 0.05900
H 	H 	0.33560 0.36430 0.80050 0.06800
H 	H 	0.40050 0.32340 0.89790 0.04700
H 	H 	0.33560 0.13440 0.87150 0.07000
H 	H 	0.40100 0.17520 0.90500 0.04800
H 	H 	0.38990 0.24020 0.00330 0.04200
H 	H 	0.31620 0.20970 0.94930 0.06000
H 	H 	0.36490 0.36530 0.99800 0.01500
H 	H 	0.29610 0.39640 0.89270 0.04400
H 	H 	0.23290 0.32610 0.92410 0.15600
H 	H 	0.30350 0.30330 0.03480 0.14800
N 	N 	0.95410 0.56340 0.26060 -0.08600
N 	N 	0.54590 0.43630 0.85350 -0.09000
O 	O 	0.84570 0.49050 0.41650 -0.44500
O 	O 	0.79410 0.56470 0.28180 -0.34800
C 	C 	0.84490 0.52930 0.35280 0.41200
C 	C 	0.91040 0.52860 0.36440 -0.38400
C 	C 	0.89350 0.56620 0.26500 0.04000
C 	C 	0.96990 0.48970 0.25030 -0.06900
C 	C 	0.92980 0.60230 0.16120 -0.07000
C 	C 	0.01810 0.59480 0.35730 -0.05800
O 	O 	0.65310 0.51090 0.22490 -0.45300
O 	O 	0.70510 0.43670 0.19310 -0.35300
C 	C 	0.65510 0.47270 0.16340 0.42500
C 	C 	0.59120 0.47120 0.04490 -0.40900
C 	C 	0.60550 0.43470 0.97690 0.06300
C 	C 	0.53070 0.50920 0.80960 -0.06700
C 	C 	0.57030 0.39740 0.80310 -0.06600
C 	C 	0.48130 0.40370 0.82120 -0.06400
O 	O 	0.73950 0.59620 0.41890 -0.46300
O 	O 	0.81470 0.54590 0.57620 -0.34900
C 	C 	0.77660 0.59580 0.51860 0.43600
C 	C 	0.77900 0.65860 0.57740 -0.42000
C 	C 	0.81590 0.64540 0.69650 0.07600
N 	N 	0.81270 0.70340 0.75520 -0.09300
C 	C 	0.74020 0.72060 0.70980 -0.06300
C 	C 	0.73960 0.78070 0.77220 -0.07400
C 	C 	0.84520 0.76710 0.75560 -0.06100
C 	C 	0.85240 0.81970 0.83480 -0.06700
C 	C 	0.85280 0.67900 0.87120 -0.06500
C 	C 	0.84530 0.72940 0.93540 -0.07100
N 	N 	0.81400 0.79700 0.87200 -0.09000
C 	C 	0.81700 0.85590 0.93820 0.06800
C 	C 	0.77960 0.84020 0.98260 -0.41600
C 	C 	0.77900 0.90460 0.03740 0.42800
O 	O 	0.74060 0.90400 0.06290 -0.45100
O 	O 	0.81400 0.95500 0.05270 -0.35600
Zn	Zn	0.74890 0.50040 0.37390 1.23500
H 	H 	0.94680 0.55300 0.42940 0.14400
H 	H 	0.92510 0.48190 0.36760 0.15200
H 	H 	0.85290 0.54520 0.20060 0.05100
H 	H 	0.88440 0.61420 0.26770 0.02100
H 	H 	0.92950 0.46930 0.18480 0.07300
H 	H 	0.98210 0.46270 0.31090 0.04900
H 	H 	0.92480 0.65030 0.17140 0.04700
H 	H 	0.88560 0.58510 0.09880 0.06900
H 	H 	0.03730 0.56760 0.42130 0.05700
H 	H 	0.00630 0.63970 0.36750 0.04200
H 	H 	0.57640 0.51780 0.01810 0.15900
H 	H 	0.55480 0.44680 0.03730 0.15200
H 	H 	0.64530 0.45650 0.99190 0.04400
H 	H 	0.61610 0.38710 0.00010 0.01400
H 	H 	0.57110 0.52870 0.82370 0.07100
H 	H 	0.51950 0.53660 0.84690 0.04800
H 	H 	0.57630 0.34950 0.82410 0.04600
H 	H 	0.61450 0.41560 0.83010 0.06800
H 	H 	0.46220 0.43140 0.84670 0.05900
H 	H 	0.49210 0.35850 0.85400 0.04400
H 	H 	0.80290 0.69510 0.57190 0.15400
H 	H 	0.73240 0.67320 0.54300 0.16100
H 	H 	0.86360 0.63560 0.73140 0.01100
H 	H 	0.79490 0.60510 0.70060 0.04100
H 	H 	0.71530 0.73570 0.63600 0.04700
H 	H 	0.71800 0.68030 0.71070 0.06900
H 	H 	0.71450 0.76590 0.79610 0.05000
H 	H 	0.71800 0.82140 0.72760 0.07400
H 	H 	0.88990 0.75690 0.77670 0.04200
H 	H 	0.81580 0.78640 0.68360 0.05900
H 	H 	0.83560 0.86430 0.80050 0.06800
H 	H 	0.90050 0.82340 0.89790 0.04700
H 	H 	0.83560 0.63440 0.87150 0.06800
H 	H 	0.90100 0.67520 0.90500 0.04600
H 	H 	0.88990 0.74020 0.00330 0.04700
H 	H 	0.81620 0.70970 0.94930 0.06200
H 	H 	0.86490 0.86530 0.99800 0.01200
H 	H 	0.79610 0.89640 0.89270 0.04200
H 	H 	0.73290 0.82610 0.92410 0.16000
H 	H 	0.80350 0.80330 0.03480 0.15400
N 	N 	0.54590 0.06340 0.23940 -0.08700
N 	N 	0.95410 0.93630 0.64650 -0.09000
O 	O 	0.65430 0.99050 0.08350 -0.44100
O 	O 	0.70590 0.06470 0.21820 -0.34800
C 	C 	0.65510 0.02930 0.14720 0.40900
C 	C 	0.58960 0.02860 0.13560 -0.38900
C 	C 	0.60650 0.06620 0.23500 0.04200
C 	C 	0.53010 0.98970 0.24970 -0.06700
C 	C 	0.57020 0.10230 0.33880 -0.07000
C 	C 	0.48190 0.09480 0.14270 -0.05800
O 	O 	0.84690 0.01090 0.27510 -0.45500
O 	O 	0.79490 0.93670 0.30690 -0.35300
C 	C 	0.84490 0.97270 0.33660 0.42600
C 	C 	0.90880 0.97120 0.45510 -0.40700
C 	C 	0.89450 0.93470 0.52310 0.06000
C 	C 	0.96930 0.00920 0.69040 -0.06900
C 	C 	0.92970 0.89740 0.69690 -0.06600
C 	C 	0.01870 0.90370 0.67880 -0.06500
O 	O 	0.76050 0.09620 0.08110 -0.46600
O 	O 	0.68530 0.04590 0.92380 -0.34900
C 	C 	0.72340 0.09580 0.98140 0.44000
C 	C 	0.72100 0.15860 0.92260 -0.42300
C 	C 	0.68410 0.14540 0.80350 0.07700
N 	N 	0.68730 0.20340 0.74480 -0.09300
C 	C 	0.75980 0.22060 0.79020 -0.06300
C 	C 	0.76040 0.28070 0.72780 -0.07400
C 	C 	0.65480 0.26710 0.74440 -0.06100
C 	C 	0.64760 0.31970 0.66520 -0.06800
C 	C 	0.64720 0.17900 0.62880 -0.06700
C 	C 	0.65470 0.22940 0.56460 -0.06700
N 	N 	0.68600 0.29700 0.62800 -0.08900
C 	C 	0.68300 0.35590 0.56180 0.06300
C 	C 	0.72040 0.34020 0.51740 -0.40600
C 	C 	0.72100 0.40460 0.46260 0.42400
O 	O 	0.75940 0.40400 0.43710 -0.45100
O 	O 	0.68600 0.45500 0.44730 -0.35700
Zn	Zn	0.75110 0.00040 0.12610 1.23400
H 	H 	0.55320 0.05300 0.07060 0.14400
H 	H 	0.57490 0.98190 0.13240 0.15500
H 	H 	0.64710 0.04520 0.29940 0.05000
H 	H 	0.61560 0.11420 0.23230 0.02000
H 	H 	0.57050 0.96930 0.31520 0.07300
H 	H 	0.51790 0.96270 0.18910 0.04900
H 	H 	0.57520 0.15030 0.32860 0.04700
H 	H 	0.61440 0.08510 0.40120 0.06900
H 	H 	0.46270 0.06760 0.07870 0.05600
H 	H 	0.49370 0.13970 0.13250 0.04200
H 	H 	0.92360 0.01780 0.48190 0.15700
H 	H 	0.94520 0.94680 0.46270 0.15100
H 	H 	0.85470 0.95650 0.50810 0.04500
H 	H 	0.88390 0.88710 0.49990 0.01600
H 	H 	0.92890 0.02870 0.67630 0.07200
H 	H 	0.98050 0.03660 0.65310 0.04900
H 	H 	0.92370 0.84950 0.67590 0.04600
H 	H 	0.88550 0.91560 0.66990 0.06800
H 	H 	0.03780 0.93140 0.65330 0.05900
H 	H 	0.00790 0.85850 0.64600 0.04400
H 	H 	0.69710 0.19510 0.92810 0.15500
H 	H 	0.76760 0.17320 0.95700 0.16200
H 	H 	0.63640 0.13560 0.76860 0.01100
H 	H 	0.70510 0.10510 0.79940 0.04000
H 	H 	0.78470 0.23570 0.86400 0.04700
H 	H 	0.78200 0.18030 0.78930 0.06900
H 	H 	0.78550 0.26590 0.70390 0.05000
H 	H 	0.78200 0.32140 0.77240 0.07400
H 	H 	0.61010 0.25690 0.72330 0.04200
H 	H 	0.68420 0.28640 0.81640 0.05900
H 	H 	0.66440 0.36430 0.69950 0.06800
H 	H 	0.59950 0.32340 0.60210 0.04700
H 	H 	0.66440 0.13440 0.62850 0.06800
H 	H 	0.59900 0.17520 0.59500 0.04700
H 	H 	0.61010 0.24020 0.49670 0.04500
H 	H 	0.68380 0.20970 0.55070 0.06100
H 	H 	0.63510 0.36530 0.50200 0.01400
H 	H 	0.70390 0.39640 0.60730 0.04400
H 	H 	0.76710 0.32610 0.57590 0.15700
H 	H 	0.69650 0.30330 0.46520 0.15000
N 	N 	0.04590 0.56340 0.23940 -0.08600
N 	N 	0.45410 0.43630 0.64650 -0.09000
O 	O 	0.15430 0.49050 0.08350 -0.44500
O 	O 	0.20590 0.56470 0.21820 -0.34800
C 	C 	0.15510 0.52930 0.14720 0.41200
C 	C 	0.08960 0.52860 0.13560 -0.38400
C 	C 	0.10650 0.56620 0.23500 0.04000
C 	C 	0.03010 0.48970 0.24970 -0.06900
C 	C 	0.07020 0.60230 0.33880 -0.07000
C 	C 	0.98190 0.59480 0.14270 -0.05900
O 	O 	0.34690 0.51090 0.27510 -0.45300
O 	O 	0.29490 0.43670 0.30690 -0.35300
C 	C 	0.34490 0.47270 0.33660 0.42400
C 	C 	0.40880 0.47120 0.45510 -0.40800
C 	C 	0.39450 0.43470 0.52310 0.06000
C 	C 	0.46930 0.50920 0.69040 -0.06800
C 	C 	0.42970 0.39740 0.69690 -0.06600
C 	C 	0.51870 0.40370 0.67880 -0.06400
O 	O 	0.26050 0.59620 0.08110 -0.46200
O 	O 	0.18530 0.54590 0.92380 -0.34800
C 	C 	0.22340 0.59580 0.98140 0.43500
C 	C 	0.22100 0.65860 0.92260 -0.41900
C 	C 	0.18410 0.64540 0.80350 0.07500
N 	N 	0.18730 0.70340 0.74480 -0.09300
C 	C 	0.25980 0.72060 0.79020 -0.06300
C 	C 	0.26040 0.78070 0.72780 -0.07400
C 	C 	0.15480 0.76710 0.74440 -0.06100
C 	C 	0.14760 0.81970 0.66520 -0.06800
C 	C 	0.14720 0.67900 0.62880 -0.06700
C 	C 	0.15470 0.72940 0.56460 -0.06700
N 	N 	0.18600 0.79700 0.62800 -0.08900
C 	C 	0.18300 0.85590 0.56180 0.06300
C 	C 	0.22040 0.84020 0.51740 -0.40600
C 	C 	0.22100 0.90460 0.46260 0.42400
O 	O 	0.25940 0.90400 0.43710 -0.45100
O 	O 	0.18600 0.95500 0.44730 -0.35700
Zn	Zn	0.25110 0.50040 0.12610 1.23500
H 	H 	0.05320 0.55300 0.07060 0.14400
H 	H 	0.07490 0.48190 0.13240 0.15200
H 	H 	0.14710 0.54520 0.29940 0.05100
H 	H 	0.11560 0.61420 0.23230 0.02100
H 	H 	0.07050 0.46930 0.31520 0.07300
H 	H 	0.01790 0.46270 0.18910 0.04900
H 	H 	0.07520 0.65030 0.32860 0.04700
H 	H 	0.11440 0.58510 0.40120 0.06900
H 	H 	0.96270 0.56760 0.07870 0.05700
H 	H 	0.99370 0.63970 0.13250 0.04200
H 	H 	0.42360 0.51780 0.48190 0.15800
H 	H 	0.44520 0.44680 0.46270 0.15100
H 	H 	0.35470 0.45650 0.50810 0.04500
H 	H 	0.38390 0.38710 0.49990 0.01600
H 	H 	0.42890 0.52870 0.67630 0.07200
H 	H 	0.48050 0.53660 0.65310 0.04800
H 	H 	0.42370 0.34950 0.67590 0.04600
H 	H 	0.38550 0.41560 0.66990 0.06800
H 	H 	0.53780 0.43140 0.65330 0.05900
H 	H 	0.50790 0.35850 0.64600 0.04300
H 	H 	0.19710 0.69510 0.92810 0.15300
H 	H 	0.26760 0.67320 0.95700 0.16000
H 	H 	0.13640 0.63560 0.76860 0.01200
H 	H 	0.20510 0.60510 0.79940 0.04100
H 	H 	0.28470 0.73570 0.86400 0.04600
H 	H 	0.28200 0.68030 0.78930 0.06900
H 	H 	0.28550 0.76590 0.70390 0.05000
H 	H 	0.28200 0.82140 0.77240 0.07400
H 	H 	0.11010 0.75690 0.72330 0.04200
H 	H 	0.18420 0.78640 0.81640 0.05800
H 	H 	0.16440 0.86430 0.69950 0.06800
H 	H 	0.09950 0.82340 0.60210 0.04700
H 	H 	0.16440 0.63440 0.62850 0.06800
H 	H 	0.09900 0.67520 0.59500 0.04700
H 	H 	0.11010 0.74020 0.49670 0.04500
H 	H 	0.18380 0.70970 0.55070 0.06100
H 	H 	0.13510 0.86530 0.50200 0.01400
H 	H 	0.20390 0.89640 0.60730 0.04300
H 	H 	0.26710 0.82610 0.57590 0.15700
H 	H 	0.19650 0.80330 0.46520 0.15000
N 	N 	0.54590 0.93660 0.73940 -0.08700
N 	N 	0.95410 0.06370 0.14650 -0.09000
O 	O 	0.65430 0.00950 0.58350 -0.44400
O 	O 	0.70590 0.93530 0.71820 -0.34800
C 	C 	0.65510 0.97070 0.64720 0.41200
C 	C 	0.58960 0.97140 0.63560 -0.38600
C 	C 	0.60650 0.93380 0.73500 0.04100
C 	C 	0.53010 0.01030 0.74970 -0.06800
C 	C 	0.57020 0.89770 0.83880 -0.07000
C 	C 	0.48190 0.90520 0.64270 -0.05900
O 	O 	0.84690 0.98910 0.77510 -0.45300
O 	O 	0.79490 0.06330 0.80690 -0.35200
C 	C 	0.84490 0.02730 0.83660 0.42100
C 	C 	0.90880 0.02880 0.95510 -0.39200
C 	C 	0.89450 0.06530 0.02310 0.04600
C 	C 	0.96930 0.99080 0.19040 -0.06400
C 	C 	0.92970 0.10260 0.19690 -0.06600
C 	C 	0.01870 0.09630 0.17880 -0.06300
O 	O 	0.76050 0.90380 0.58110 -0.46300
O 	O 	0.68530 0.95410 0.42380 -0.34800
C 	C 	0.72340 0.90420 0.48140 0.43600
C 	C 	0.72100 0.84140 0.42260 -0.42000
C 	C 	0.68410 0.85460 0.30350 0.07500
N 	N 	0.68730 0.79660 0.24480 -0.09300
C 	C 	0.75980 0.77940 0.29020 -0.06400
C 	C 	0.76040 0.71930 0.22780 -0.07400
C 	C 	0.65480 0.73290 0.24440 -0.06100
C 	C 	0.64760 0.68030 0.16520 -0.06800
C 	C 	0.64720 0.82100 0.12880 -0.06900
C 	C 	0.65470 0.77060 0.06460 -0.06300
N 	N 	0.68600 0.70300 0.12800 -0.09000
C 	C 	0.68300 0.64410 0.06180 0.06100
C 	C 	0.72040 0.65980 0.01740 -0.40100
C 	C 	0.72100 0.59540 0.96260 0.42200
O 	O 	0.75940 0.59600 0.93710 -0.45000
O 	O 	0.68600 0.54500 0.94730 -0.35600
Zn	Zn	0.75110 0.99960 0.62610 1.23500
H 	H 	0.55320 0.94700 0.57060 0.14500
H 	H 	0.57490 0.01810 0.63240 0.15300
H 	H 	0.64710 0.95480 0.79940 0.05000
H 	H 	0.61560 0.88580 0.73230 0.02000
H 	H 	0.57050 0.03070 0.81520 0.07300
H 	H 	0.51790 0.03730 0.68910 0.04900
H 	H 	0.57520 0.84970 0.82860 0.04700
H 	H 	0.61440 0.91490 0.90120 0.06800
H 	H 	0.46270 0.93240 0.57870 0.05700
H 	H 	0.49370 0.86030 0.63250 0.04200
H 	H 	0.92360 0.98220 0.98190 0.15200
H 	H 	0.94520 0.05320 0.96270 0.14800
H 	H 	0.85470 0.04350 0.00810 0.04800
H 	H 	0.88390 0.11290 0.99990 0.02200
H 	H 	0.92890 0.97130 0.17630 0.07200
H 	H 	0.98050 0.96340 0.15310 0.04900
H 	H 	0.92370 0.15050 0.17590 0.04600
H 	H 	0.88550 0.08440 0.16990 0.06700
H 	H 	0.03780 0.06860 0.15330 0.05900
H 	H 	0.00790 0.14150 0.14600 0.04300
H 	H 	0.69710 0.80490 0.42810 0.15400
H 	H 	0.76760 0.82680 0.45700 0.16100
H 	H 	0.63640 0.86440 0.26860 0.01200
H 	H 	0.70510 0.89490 0.29940 0.04100
H 	H 	0.78470 0.76430 0.36400 0.04700
H 	H 	0.78200 0.81970 0.28930 0.07000
H 	H 	0.78550 0.73410 0.20390 0.05000
H 	H 	0.78200 0.67860 0.27240 0.07400
H 	H 	0.61010 0.74310 0.22330 0.04200
H 	H 	0.68420 0.71360 0.31640 0.05900
H 	H 	0.66440 0.63570 0.19950 0.06800
H 	H 	0.59950 0.67660 0.10210 0.04700
H 	H 	0.66440 0.86560 0.12850 0.07000
H 	H 	0.59900 0.82480 0.09500 0.04800
H 	H 	0.61010 0.75980 0.99670 0.04200
H 	H 	0.68380 0.79030 0.05070 0.06000
H 	H 	0.63510 0.63470 0.00200 0.01500
H 	H 	0.70390 0.60360 0.10730 0.04400
H 	H 	0.76710 0.67390 0.07590 0.15600
H 	H 	0.69650 0.69670 0.96520 0.14800
N 	N 	0.04590 0.43660 0.73940 -0.08600
N 	N 	0.45410 0.56370 0.14650 -0.09000
O 	O 	0.15430 0.50950 0.58350 -0.44500
O 	O 	0.20590 0.43530 0.71820 -0.34800
C 	C 	0.15510 0.47070 0.64720 0.41200
C 	C 	0.08960 0.47140 0.63560 -0.38400
C 	C 	0.10650 0.43380 0.73500 0.04000
C 	C 	0.03010 0.51030 0.74970 -0.06900
C 	C 	0.07020 0.39770 0.83880 -0.07000
C 	C 	0.98190 0.40520 0.64270 -0.05800
O 	O 	0.34690 0.48910 0.77510 -0.45300
O 	O 	0.29490 0.56330 0.80690 -0.35300
C 	C 	0.34490 0.52730 0.83660 0.42500
C 	C 	0.40880 0.52880 0.95510 -0.40900
C 	C 	0.39450 0.56530 0.02310 0.06300
C 	C 	0.46930 0.49080 0.19040 -0.06700
C 	C 	0.42970 0.60260 0.19690 -0.06600
C 	C 	0.51870 0.59630 0.17880 -0.06400
O 	O 	0.26050 0.40380 0.58110 -0.46300
O 	O 	0.18530 0.45410 0.42380 -0.34900
C 	C 	0.22340 0.40420 0.48140 0.43600
C 	C 	0.22100 0.34140 0.42260 -0.42000
C 	C 	0.18410 0.35460 0.30350 0.07600
N 	N 	0.18730 0.29660 0.24480 -0.09300
C 	C 	0.25980 0.27940 0.29020 -0.06300
C 	C 	0.26040 0.21930 0.22780 -0.07400
C 	C 	0.15480 0.23290 0.24440 -0.06100
C 	C 	0.14760 0.18030 0.16520 -0.06700
C 	C 	0.14720 0.32100 0.12880 -0.06500
C 	C 	0.15470 0.27060 0.06460 -0.07100
N 	N 	0.18600 0.20300 0.12800 -0.09000
C 	C 	0.18300 0.14410 0.06180 0.06800
C 	C 	0.22040 0.15980 0.01740 -0.41600
C 	C 	0.22100 0.09540 0.96260 0.42800
O 	O 	0.25940 0.09600 0.93710 -0.45100
O 	O 	0.18600 0.04500 0.94730 -0.35600
Zn	Zn	0.25110 0.49960 0.62610 1.23500
H 	H 	0.05320 0.44700 0.57060 0.14400
H 	H 	0.07490 0.51810 0.63240 0.15200
H 	H 	0.14710 0.45480 0.79940 0.05100
H 	H 	0.11560 0.38580 0.73230 0.02100
H 	H 	0.07050 0.53070 0.81520 0.07300
H 	H 	0.01790 0.53730 0.68910 0.04900
H 	H 	0.07520 0.34970 0.82860 0.04700
H 	H 	0.11440 0.41490 0.90120 0.06900
H 	H 	0.96270 0.43240 0.57870 0.05700
H 	H 	0.99370 0.36030 0.63250 0.04200
H 	H 	0.42360 0.48220 0.98190 0.15900
H 	H 	0.44520 0.55320 0.96270 0.15200
H 	H 	0.35470 0.54350 0.00810 0.04400
H 	H 	0.38390 0.61290 0.99990 0.01400
H 	H 	0.42890 0.47130 0.17630 0.07100
H 	H 	0.48050 0.46340 0.15310 0.04800
H 	H 	0.42370 0.65050 0.17590 0.04600
H 	H 	0.38550 0.58440 0.16990 0.06800
H 	H 	0.53780 0.56860 0.15330 0.05900
H 	H 	0.50790 0.64150 0.14600 0.04400
H 	H 	0.19710 0.30490 0.42810 0.15400
H 	H 	0.26760 0.32680 0.45700 0.16100
H 	H 	0.13640 0.36440 0.26860 0.01100
H 	H 	0.20510 0.39490 0.29940 0.04100
H 	H 	0.28470 0.26430 0.36400 0.04700
H 	H 	0.28200 0.31970 0.28930 0.06900
H 	H 	0.28550 0.23410 0.20390 0.05000
H 	H 	0.28200 0.17860 0.27240 0.07400
H 	H 	0.11010 0.24310 0.22330 0.04200
H 	H 	0.18420 0.21360 0.31640 0.05900
H 	H 	0.16440 0.13570 0.19950 0.06800
H 	H 	0.09950 0.17660 0.10210 0.04700
H 	H 	0.16440 0.36560 0.12850 0.06800
H 	H 	0.09900 0.32480 0.09500 0.04600
H 	H 	0.11010 0.25980 0.99670 0.04700
H 	H 	0.18380 0.29030 0.05070 0.06200
H 	H 	0.13510 0.13470 0.00200 0.01200
H 	H 	0.20390 0.10360 0.10730 0.04200
H 	H 	0.26710 0.17390 0.07590 0.16000
H 	H 	0.19650 0.19670 0.96520 0.15400
N 	N 	0.45410 0.93660 0.76060 -0.08700
N 	N 	0.04590 0.06370 0.35350 -0.09000
O 	O 	0.34570 0.00950 0.91650 -0.44100
O 	O 	0.29410 0.93530 0.78180 -0.34800
C 	C 	0.34490 0.97070 0.85280 0.40900
C 	C 	0.41040 0.97140 0.86440 -0.38900
C 	C 	0.39350 0.93380 0.76500 0.04200
C 	C 	0.46990 0.01030 0.75030 -0.06700
C 	C 	0.42980 0.89770 0.66120 -0.07000
C 	C 	0.51810 0.90520 0.85730 -0.05800
O 	O 	0.15310 0.98910 0.72490 -0.45500
O 	O 	0.20510 0.06330 0.69310 -0.35300
C 	C 	0.15510 0.02730 0.66340 0.42600
C 	C 	0.09120 0.02880 0.54490 -0.40700
C 	C 	0.10550 0.06530 0.47690 0.06000
C 	C 	0.03070 0.99080 0.30960 -0.06900
C 	C 	0.07030 0.10260 0.30310 -0.06600
C 	C 	0.98130 0.09630 0.32120 -0.06500
O 	O 	0.23950 0.90380 0.91890 -0.46600
O 	O 	0.31470 0.95410 0.07620 -0.34900
C 	C 	0.27660 0.90420 0.01860 0.44000
C 	C 	0.27900 0.84140 0.07740 -0.42300
C 	C 	0.31590 0.85460 0.19650 0.07700
N 	N 	0.31270 0.79660 0.25520 -0.09300
C 	C 	0.24020 0.77940 0.20980 -0.06300
C 	C 	0.23960 0.71930 0.27220 -0.07400
C 	C 	0.34520 0.73290 0.25560 -0.06100
C 	C 	0.35240 0.68030 0.33480 -0.06800
C 	C 	0.35280 0.82100 0.37120 -0.06700
C 	C 	0.34530 0.77060 0.43540 -0.06700
N 	N 	0.31400 0.70300 0.37200 -0.08900
C 	C 	0.31700 0.64410 0.43820 0.06300
C 	C 	0.27960 0.65980 0.48260 -0.40600
C 	C 	0.27900 0.59540 0.53740 0.42400
O 	O 	0.24060 0.59600 0.56290 -0.45100
O 	O 	0.31400 0.54500 0.55270 -0.35700
Zn	Zn	0.24890 0.99960 0.87390 1.23400
H 	H 	0.44680 0.94700 0.92940 0.14400
H 	H 	0.42510 0.01810 0.86760 0.15500
H 	H 	0.35290 0.95480 0.70060 0.05000
H 	H 	0.38440 0.88580 0.76770 0.02000
H 	H 	0.42950 0.03070 0.68480 0.07300
H 	H 	0.48210 0.03730 0.81090 0.04900
H 	H 	0.42480 0.84970 0.67140 0.04700
H 	H 	0.38560 0.91490 0.59880 0.06900
H 	H 	0.53730 0.93240 0.92130 0.05600
H 	H 	0.50630 0.86030 0.86750 0.04200
H 	H 	0.07640 0.98220 0.51810 0.15700
H 	H 	0.05480 0.05320 0.53730 0.15100
H 	H 	0.14530 0.04350 0.49190 0.04500
H 	H 	0.11610 0.11290 0.50010 0.01600
H 	H 	0.07110 0.97130 0.32370 0.07200
H 	H 	0.01950 0.96340 0.34690 0.04900
H 	H 	0.07630 0.15050 0.32410 0.04600
H 	H 	0.11450 0.08440 0.33010 0.06800
H 	H 	0.96220 0.06860 0.34670 0.05900
H 	H 	0.99210 0.14150 0.35400 0.04400
H 	H 	0.30290 0.80490 0.07190 0.15500
H 	H 	0.23240 0.82680 0.04300 0.16200
H 	H 	0.36360 0.86440 0.23140 0.01100
H 	H 	0.29490 0.89490 0.20060 0.04000
H 	H 	0.21530 0.76430 0.13600 0.04700
H 	H 	0.21800 0.81970 0.21070 0.06900
H 	H 	0.21450 0.73410 0.29610 0.05000
H 	H 	0.21800 0.67860 0.22760 0.07400
H 	H 	0.38990 0.74310 0.27670 0.04200
H 	H 	0.31580 0.71360 0.18360 0.05900
H 	H 	0.33560 0.63570 0.30050 0.06800
H 	H 	0.40050 0.67660 0.39790 0.04700
H 	H 	0.33560 0.86560 0.37150 0.06800
H 	H 	0.40100 0.82480 0.40500 0.04700
H 	H 	0.38990 0.75980 0.50330 0.04500
H 	H 	0.31620 0.79030 0.44930 0.06100
H 	H 	0.36490 0.63470 0.49800 0.01400
H 	H 	0.29610 0.60360 0.39270 0.04400
H 	H 	0.23290 0.67390 0.42410 0.15700
H 	H 	0.30350 0.69670 0.53480 0.15000
N 	N 	0.95410 0.43660 0.76060 -0.08600
N 	N 	0.54590 0.56370 0.35350 -0.09000
O 	O 	0.84570 0.50950 0.91650 -0.44500
O 	O 	0.79410 0.43530 0.78180 -0.34800
C 	C 	0.84490 0.47070 0.85280 0.41200
C 	C 	0.91040 0.47140 0.86440 -0.38400
C 	C 	0.89350 0.43380 0.76500 0.04000
C 	C 	0.96990 0.51030 0.75030 -0.06900
C 	C 	0.92980 0.39770 0.66120 -0.07000
C 	C 	0.01810 0.40520 0.85730 -0.05900
O 	O 	0.65310 0.48910 0.72490 -0.45300
O 	O 	0.70510 0.56330 0.69310 -0.35300
C 	C 	0.65510 0.52730 0.66340 0.42400
C 	C 	0.59120 0.52880 0.54490 -0.40800
C 	C 	0.60550 0.56530 0.47690 0.06000
C 	C 	0.53070 0.49080 0.30960 -0.06800
C 	C 	0.57030 0.60260 0.30310 -0.06600
C 	C 	0.48130 0.59630 0.32120 -0.06400
O 	O 	0.73950 0.40380 0.91890 -0.46200
O 	O 	0.81470 0.45410 0.07620 -0.34800
C 	C 	0.77660 0.40420 0.01860 0.43500
C 	C 	0.77900 0.34140 0.07740 -0.41900
C 	C 	0.81590 0.35460 0.19650 0.07500
N 	N 	0.81270 0.29660 0.25520 -0.09300
C 	C 	0.74020 0.27940 0.20980 -0.06300
C 	C 	0.73960 0.21930 0.27220 -0.07400
C 	C 	0.84520 0.23290 0.25560 -0.06100
C 	C 	0.85240 0.18030 0.33480 -0.06800
C 	C 	0.85280 0.32100 0.37120 -0.06700
C 	C 	0.84530 0.27060 0.43540 -0.06700
N 	N 	0.81400 0.20300 0.37200 -0.08900
C 	C 	0.81700 0.14410 0.43820 0.06300
C 	C 	0.77960 0.15980 0.48260 -0.40600
C 	C 	0.77900 0.09540 0.53740 0.42400
O 	O 	0.74060 0.09600 0.56290 -0.45100
O 	O 	0.81400 0.04500 0.55270 -0.35700
Zn	Zn	0.74890 0.49960 0.87390 1.23500
H 	H 	0.94680 0.44700 0.92940 0.14400
H 	H 	0.92510 0.51810 0.86760 0.15200
H 	H 	0.85290 0.45480 0.70060 0.05100
H 	H 	0.88440 0.38580 0.76770 0.02100
H 	H 	0.92950 0.53070 0.68480 0.07300
H 	H 	0.98210 0.53730 0.81090 0.04900
H 	H 	0.92480 0.34970 0.67140 0.04700
H 	H 	0.88560 0.41490 0.59880 0.06900
H 	H 	0.03730 0.43240 0.92130 0.05700
H 	H 	0.00630 0.36030 0.86750 0.04200
H 	H 	0.57640 0.48220 0.51810 0.15800
H 	H 	0.55480 0.55320 0.53730 0.15100
H 	H 	0.64530 0.54350 0.49190 0.04500
H 	H 	0.61610 0.61290 0.50010 0.01600
H 	H 	0.57110 0.47130 0.32370 0.07200
H 	H 	0.51950 0.46340 0.34690 0.04800
H 	H 	0.57630 0.65050 0.32410 0.04600
H 	H 	0.61450 0.58440 0.33010 0.06800
H 	H 	0.46220 0.56860 0.34670 0.05900
H 	H 	0.49210 0.64150 0.35400 0.04300
H 	H 	0.80290 0.30490 0.07190 0.15300
H 	H 	0.73240 0.32680 0.04300 0.16000
H 	H 	0.86360 0.36440 0.23140 0.01200
H 	H 	0.79490 0.39490 0.20060 0.04100
H 	H 	0.71530 0.26430 0.13600 0.04600
H 	H 	0.71800 0.31970 0.21070 0.06900
H 	H 	0.71450 0.23410 0.29610 0.05000
H 	H 	0.71800 0.17860 0.22760 0.07400
H 	H 	0.88990 0.24310 0.27670 0.04200
H 	H 	0.81580 0.21360 0.18360 0.05800
H 	H 	0.83560 0.13570 0.30050 0.06800
H 	H 	0.90050 0.17660 0.39790 0.04700
H 	H 	0.83560 0.36560 0.37150 0.06800
H 	H 	0.90100 0.32480 0.40500 0.04700
H 	H 	0.88990 0.25980 0.50330 0.04500
H 	H 	0.81620 0.29030 0.44930 0.06100
H 	H 	0.86490 0.13470 0.49800 0.01400
H 	H 	0.79610 0.10360 0.39270 0.04300
H 	H 	0.73290 0.17390 0.42410 0.15700
H 	H 	0.80350 0.19670 0.53480 0.15000
