data_crystal

_cell_length_a 10.90200
_cell_length_b 16.71500
_cell_length_c 19.20100
_cell_angle_alpha 90.00000
_cell_angle_beta  90.00000
_cell_angle_gamma 90.00000

_symmetry_space_group_name_	'P 1'
_symmetry_space_group_name_H-M	'P 1'

loop_
_symmetry_equiv_pos_as_xyz
  x,y,z

loop_
_atom_site_label
_atom_site_type_symbol
_atom_site_fract_x
_atom_site_fract_y
_atom_site_fract_z
_atom_site_charge
O 	O 	0.86510 0.85200 0.31350 -0.41500
O 	O 	0.72010 0.84450 0.39320 -0.39400
C 	C 	0.98600 0.17670 0.49110 -0.17300
H 	H 	0.97480 0.17400 0.54120 0.07900
H 	H 	0.07330 0.18060 0.48180 0.09000
C 	C 	0.93540 0.10040 0.45760 0.15700
C 	C 	0.98040 0.07580 0.39330 -0.18100
H 	H 	0.03850 0.10650 0.37010 0.10700
C 	C 	0.93770 0.00470 0.36400 0.09000
H 	H 	0.96650 0.98900 0.32050 0.00200
C 	C 	0.85360 0.95720 0.39830 -0.14600
C 	C 	0.80820 0.98260 0.46280 0.07700
H 	H 	0.74990 0.95200 0.48600 0.01600
C 	C 	0.85080 0.05490 0.49280 -0.17600
H 	H 	0.82170 0.07150 0.53600 0.09200
C 	C 	0.81220 0.88210 0.36760 0.30600
O 	O 	0.63490 0.14800 0.81350 -0.41600
O 	O 	0.77990 0.15550 0.89320 -0.39400
C 	C 	0.51400 0.82330 0.99110 -0.17200
H 	H 	0.52520 0.82600 0.04120 0.07700
H 	H 	0.42670 0.81940 0.98180 0.09000
C 	C 	0.56460 0.89960 0.95760 0.15500
C 	C 	0.51960 0.92420 0.89330 -0.18000
H 	H 	0.46150 0.89350 0.87010 0.10700
C 	C 	0.56230 0.99530 0.86400 0.08600
H 	H 	0.53350 0.01100 0.82050 0.00400
C 	C 	0.64640 0.04280 0.89830 -0.14400
C 	C 	0.69180 0.01740 0.96280 0.07400
H 	H 	0.75010 0.04800 0.98600 0.01700
C 	C 	0.64920 0.94510 0.99280 -0.17200
H 	H 	0.67830 0.92850 0.03600 0.09000
C 	C 	0.68780 0.11790 0.86760 0.30500
O 	O 	0.13490 0.35200 0.68650 -0.41600
O 	O 	0.27990 0.34450 0.60680 -0.39400
C 	C 	0.01400 0.67670 0.50890 -0.17400
H 	H 	0.02520 0.67400 0.45880 0.07900
H 	H 	0.92670 0.68060 0.51820 0.09100
C 	C 	0.06460 0.60040 0.54240 0.15700
C 	C 	0.01960 0.57580 0.60670 -0.18000
H 	H 	0.96150 0.60650 0.62990 0.10600
C 	C 	0.06230 0.50470 0.63600 0.08500
H 	H 	0.03350 0.48900 0.67950 0.00500
C 	C 	0.14640 0.45720 0.60170 -0.14300
C 	C 	0.19180 0.48260 0.53720 0.07600
H 	H 	0.25010 0.45200 0.51400 0.01600
C 	C 	0.14920 0.55490 0.50720 -0.17600
H 	H 	0.17830 0.57150 0.46400 0.09200
C 	C 	0.18780 0.38210 0.63240 0.30500
O 	O 	0.36510 0.64800 0.18650 -0.41600
O 	O 	0.22010 0.65550 0.10680 -0.39400
C 	C 	0.48600 0.32330 0.00890 -0.17300
H 	H 	0.47480 0.32600 0.95880 0.07800
H 	H 	0.57330 0.31940 0.01820 0.09100
C 	C 	0.43540 0.39960 0.04240 0.15600
C 	C 	0.48040 0.42420 0.10670 -0.17900
H 	H 	0.53850 0.39350 0.12990 0.10600
C 	C 	0.43770 0.49530 0.13600 0.08400
H 	H 	0.46650 0.51100 0.17950 0.00500
C 	C 	0.35360 0.54280 0.10170 -0.14300
C 	C 	0.30820 0.51740 0.03720 0.07600
H 	H 	0.24990 0.54800 0.01400 0.01700
C 	C 	0.35080 0.44510 0.00720 -0.17500
H 	H 	0.32170 0.42850 0.96400 0.09200
C 	C 	0.31220 0.61790 0.13240 0.30500
O 	O 	0.13490 0.14800 0.68650 -0.41600
O 	O 	0.27990 0.15550 0.60680 -0.39500
C 	C 	0.01400 0.82330 0.50890 -0.17300
H 	H 	0.02520 0.82600 0.45880 0.07900
H 	H 	0.92670 0.81940 0.51820 0.09000
C 	C 	0.06460 0.89960 0.54240 0.15700
C 	C 	0.01960 0.92420 0.60670 -0.18100
H 	H 	0.96150 0.89350 0.62990 0.10700
C 	C 	0.06230 0.99530 0.63600 0.09000
H 	H 	0.03350 0.01100 0.67950 0.00200
C 	C 	0.14640 0.04280 0.60170 -0.14600
C 	C 	0.19180 0.01740 0.53720 0.07700
H 	H 	0.25010 0.04800 0.51400 0.01600
C 	C 	0.14920 0.94510 0.50720 -0.17600
H 	H 	0.17830 0.92850 0.46400 0.09200
C 	C 	0.18780 0.11790 0.63240 0.30600
O 	O 	0.36510 0.85200 0.18650 -0.41600
O 	O 	0.22010 0.84450 0.10680 -0.39400
C 	C 	0.48600 0.17670 0.00890 -0.17200
H 	H 	0.47480 0.17400 0.95880 0.07700
H 	H 	0.57330 0.18060 0.01820 0.09000
C 	C 	0.43540 0.10040 0.04240 0.15500
C 	C 	0.48040 0.07580 0.10670 -0.18000
H 	H 	0.53850 0.10650 0.12990 0.10700
C 	C 	0.43770 0.00470 0.13600 0.08600
H 	H 	0.46650 0.98900 0.17950 0.00400
C 	C 	0.35360 0.95720 0.10170 -0.14400
C 	C 	0.30820 0.98260 0.03720 0.07400
H 	H 	0.24990 0.95200 0.01400 0.01700
C 	C 	0.35080 0.05490 0.00720 -0.17200
H 	H 	0.32170 0.07150 0.96400 0.09000
C 	C 	0.31220 0.88210 0.13240 0.30500
O 	O 	0.86510 0.64800 0.31350 -0.41600
O 	O 	0.72010 0.65550 0.39320 -0.39400
C 	C 	0.98600 0.32330 0.49110 -0.17400
H 	H 	0.97480 0.32600 0.54120 0.07900
H 	H 	0.07330 0.31940 0.48180 0.09100
C 	C 	0.93540 0.39960 0.45760 0.15700
C 	C 	0.98040 0.42420 0.39330 -0.18000
H 	H 	0.03850 0.39350 0.37010 0.10600
C 	C 	0.93770 0.49530 0.36400 0.08500
H 	H 	0.96650 0.51100 0.32050 0.00500
C 	C 	0.85360 0.54280 0.39830 -0.14300
C 	C 	0.80820 0.51740 0.46280 0.07600
H 	H 	0.74990 0.54800 0.48600 0.01600
C 	C 	0.85080 0.44510 0.49280 -0.17600
H 	H 	0.82170 0.42850 0.53600 0.09200
C 	C 	0.81220 0.61790 0.36760 0.30500
O 	O 	0.63490 0.35200 0.81350 -0.41600
O 	O 	0.77990 0.34450 0.89320 -0.39400
C 	C 	0.51400 0.67670 0.99110 -0.17300
H 	H 	0.52520 0.67400 0.04120 0.07800
H 	H 	0.42670 0.68060 0.98180 0.09100
C 	C 	0.56460 0.60040 0.95760 0.15600
C 	C 	0.51960 0.57580 0.89330 -0.17900
H 	H 	0.46150 0.60650 0.87010 0.10600
C 	C 	0.56230 0.50470 0.86400 0.08400
H 	H 	0.53350 0.48900 0.82050 0.00500
C 	C 	0.64640 0.45720 0.89830 -0.14300
C 	C 	0.69180 0.48260 0.96280 0.07600
H 	H 	0.75010 0.45200 0.98600 0.01700
C 	C 	0.64920 0.55490 0.99280 -0.17500
H 	H 	0.67830 0.57150 0.03600 0.09200
C 	C 	0.68780 0.38210 0.86760 0.30500
N 	N 	0.92250 0.25000 0.46330 -0.06300
Tb	Tb	0.79233 0.25000 0.79635 1.72900
O 	O 	0.68920 0.25000 0.69410 -0.55400
O 	O 	0.49000 0.25000 0.66400 -0.51400
O 	O 	0.84950 0.25000 0.33830 -0.44800
H 	H 	0.85440 0.25000 0.29570 0.27600
O 	O 	0.64790 0.25000 0.31490 -0.27800
C 	C 	0.60650 0.25000 0.65140 0.48500
C 	C 	0.63500 0.25000 0.57150 -0.09900
C 	C 	0.54440 0.25000 0.52290 -0.00800
H 	H 	0.46210 0.25000 0.53580 0.04900
C 	C 	0.57870 0.25000 0.45440 -0.01400
H 	H 	0.51830 0.25000 0.42030 0.05200
C 	C 	0.70200 0.25000 0.43420 -0.09800
C 	C 	0.79160 0.25000 0.48590 0.09400
C 	C 	0.75790 0.25000 0.55360 -0.06400
H 	H 	0.81750 0.25000 0.58830 0.03900
C 	C 	0.73030 0.25000 0.35730 0.35900
N 	N 	0.57750 0.75000 0.96330 -0.06400
Tb	Tb	0.70767 0.75000 0.29635 1.72900
O 	O 	0.81080 0.75000 0.19410 -0.55400
O 	O 	0.01000 0.75000 0.16400 -0.51300
O 	O 	0.65050 0.75000 0.83830 -0.44800
H 	H 	0.64560 0.75000 0.79570 0.27600
O 	O 	0.85210 0.75000 0.81490 -0.27800
C 	C 	0.89350 0.75000 0.15140 0.48200
C 	C 	0.86500 0.75000 0.07150 -0.09500
C 	C 	0.95560 0.75000 0.02290 -0.01600
H 	H 	0.03790 0.75000 0.03580 0.05300
C 	C 	0.92130 0.75000 0.95440 -0.00800
H 	H 	0.98170 0.75000 0.92030 0.05000
C 	C 	0.79800 0.75000 0.93420 -0.10100
C 	C 	0.70840 0.75000 0.98590 0.09700
C 	C 	0.74210 0.75000 0.05360 -0.06900
H 	H 	0.68250 0.75000 0.08830 0.04000
C 	C 	0.76970 0.75000 0.85730 0.36000
N 	N 	0.07750 0.75000 0.53670 -0.06300
Tb	Tb	0.20767 0.75000 0.20365 1.72900
O 	O 	0.31080 0.75000 0.30590 -0.55400
O 	O 	0.51000 0.75000 0.33600 -0.51400
O 	O 	0.15050 0.75000 0.66170 -0.44800
H 	H 	0.14560 0.75000 0.70430 0.27600
O 	O 	0.35210 0.75000 0.68510 -0.27800
C 	C 	0.39350 0.75000 0.34860 0.48500
C 	C 	0.36500 0.75000 0.42850 -0.09900
C 	C 	0.45560 0.75000 0.47710 -0.00800
H 	H 	0.53790 0.75000 0.46420 0.04900
C 	C 	0.42130 0.75000 0.54560 -0.01400
H 	H 	0.48170 0.75000 0.57970 0.05200
C 	C 	0.29800 0.75000 0.56580 -0.09800
C 	C 	0.20840 0.75000 0.51410 0.09400
C 	C 	0.24210 0.75000 0.44640 -0.06400
H 	H 	0.18250 0.75000 0.41170 0.03900
C 	C 	0.26970 0.75000 0.64270 0.35900
N 	N 	0.42250 0.25000 0.03670 -0.06400
Tb	Tb	0.29233 0.25000 0.70365 1.72900
O 	O 	0.18920 0.25000 0.80590 -0.55400
O 	O 	0.99000 0.25000 0.83600 -0.51300
O 	O 	0.34950 0.25000 0.16170 -0.44800
H 	H 	0.35440 0.25000 0.20430 0.27600
O 	O 	0.14790 0.25000 0.18510 -0.27800
C 	C 	0.10650 0.25000 0.84860 0.48200
C 	C 	0.13500 0.25000 0.92850 -0.09500
C 	C 	0.04440 0.25000 0.97710 -0.01600
H 	H 	0.96210 0.25000 0.96420 0.05300
C 	C 	0.07870 0.25000 0.04560 -0.00800
H 	H 	0.01830 0.25000 0.07970 0.05000
C 	C 	0.20200 0.25000 0.06580 -0.10100
C 	C 	0.29160 0.25000 0.01410 0.09700
C 	C 	0.25790 0.25000 0.94640 -0.06900
H 	H 	0.31750 0.25000 0.91170 0.04000
C 	C 	0.23030 0.25000 0.14270 0.36000
