data_crystal

_cell_length_a 10.97900
_cell_length_b 16.65050
_cell_length_c 19.37950
_cell_angle_alpha 90.00000
_cell_angle_beta  90.00000
_cell_angle_gamma 90.00000

_symmetry_space_group_name_	'P 1'
_symmetry_space_group_name_H-M	'P 1'

loop_
_symmetry_equiv_pos_as_xyz
  x,y,z

loop_
_atom_site_label
_atom_site_type_symbol
_atom_site_fract_x
_atom_site_fract_y
_atom_site_fract_z
_atom_site_charge
O 	O 	0.36900 0.85479 0.18412 -0.43100
O 	O 	0.22330 0.84520 0.10727 -0.41300
C 	C 	0.48100 0.17640 0.00290 -0.17900
H 	H 	0.56780 0.18090 0.01150 0.09300
H 	H 	0.46920 0.17230 0.95340 0.07900
C 	C 	0.43330 0.10090 0.03720 0.16800
C 	C 	0.48140 0.07590 0.09950 -0.19500
H 	H 	0.54030 0.10710 0.12120 0.11000
C 	C 	0.44330 0.00570 0.13000 0.10400
H 	H 	0.47840 0.98940 0.17140 -0.00400
C 	C 	0.35450 0.95940 0.10028 -0.15200
C 	C 	0.30400 0.98440 0.03700 0.08700
H 	H 	0.24340 0.95400 0.01600 0.01200
C 	C 	0.34470 0.05410 0.00620 -0.18500
H 	H 	0.31210 0.06980 0.96400 0.09300
C 	C 	0.31330 0.88220 0.13210 0.32400
O 	O 	0.13100 0.14521 0.68412 -0.43300
O 	O 	0.27670 0.15480 0.60727 -0.41500
C 	C 	0.01900 0.82360 0.50290 -0.18100
H 	H 	0.93220 0.81910 0.51150 0.09200
H 	H 	0.03080 0.82770 0.45340 0.08000
C 	C 	0.06670 0.89910 0.53720 0.17000
C 	C 	0.01860 0.92410 0.59950 -0.19700
H 	H 	0.95970 0.89290 0.62120 0.11000
C 	C 	0.05670 0.99430 0.63000 0.10800
H 	H 	0.02160 0.01060 0.67140 -0.00600
C 	C 	0.14550 0.04060 0.60028 -0.15600
C 	C 	0.19600 0.01560 0.53700 0.09100
H 	H 	0.25660 0.04600 0.51600 0.01100
C 	C 	0.15530 0.94590 0.50620 -0.19000
H 	H 	0.18790 0.93020 0.46400 0.09600
C 	C 	0.18670 0.11780 0.63210 0.32500
O 	O 	0.63100 0.35479 0.81588 -0.43200
O 	O 	0.77670 0.34520 0.89273 -0.41400
C 	C 	0.51900 0.67640 0.99710 -0.18100
H 	H 	0.43220 0.68090 0.98850 0.09200
H 	H 	0.53080 0.67230 0.04660 0.07900
C 	C 	0.56670 0.60090 0.96280 0.16800
C 	C 	0.51860 0.57590 0.90050 -0.19500
H 	H 	0.45970 0.60710 0.87880 0.11000
C 	C 	0.55670 0.50570 0.87000 0.10100
H 	H 	0.52160 0.48940 0.82860 -0.00300
C 	C 	0.64550 0.45940 0.89972 -0.15100
C 	C 	0.69600 0.48440 0.96300 0.09000
H 	H 	0.75660 0.45400 0.98400 0.01100
C 	C 	0.65530 0.55410 0.99380 -0.18800
H 	H 	0.68790 0.56980 0.03600 0.09500
C 	C 	0.68670 0.38220 0.86790 0.32400
O 	O 	0.86900 0.64521 0.31588 -0.43200
O 	O 	0.72330 0.65480 0.39273 -0.41400
C 	C 	0.98100 0.32360 0.49710 -0.18200
H 	H 	0.06780 0.31910 0.48850 0.09200
H 	H 	0.96920 0.32770 0.54660 0.08000
C 	C 	0.93330 0.39910 0.46280 0.16900
C 	C 	0.98140 0.42410 0.40050 -0.19600
H 	H 	0.04030 0.39290 0.37880 0.11000
C 	C 	0.94330 0.49430 0.37000 0.10200
H 	H 	0.97840 0.51060 0.32860 -0.00300
C 	C 	0.85450 0.54060 0.39972 -0.15200
C 	C 	0.80400 0.51560 0.46300 0.09100
H 	H 	0.74340 0.54600 0.48400 0.01100
C 	C 	0.84470 0.44590 0.49380 -0.19000
H 	H 	0.81210 0.43020 0.53600 0.09600
C 	C 	0.81330 0.61780 0.36790 0.32400
O 	O 	0.63100 0.14521 0.81588 -0.43200
O 	O 	0.77670 0.15480 0.89273 -0.41400
C 	C 	0.51900 0.82360 0.99710 -0.18000
H 	H 	0.43220 0.81910 0.98850 0.09200
H 	H 	0.53080 0.82770 0.04660 0.07800
C 	C 	0.56670 0.89910 0.96280 0.16700
C 	C 	0.51860 0.92410 0.90050 -0.19500
H 	H 	0.45970 0.89290 0.87880 0.11000
C 	C 	0.55670 0.99430 0.87000 0.10400
H 	H 	0.52160 0.01060 0.82860 -0.00400
C 	C 	0.64550 0.04060 0.89972 -0.15200
C 	C 	0.69600 0.01560 0.96300 0.08700
H 	H 	0.75660 0.04600 0.98400 0.01200
C 	C 	0.65530 0.94590 0.99380 -0.18500
H 	H 	0.68790 0.93020 0.03600 0.09300
C 	C 	0.68670 0.11780 0.86790 0.32400
O 	O 	0.86900 0.85479 0.31588 -0.43300
O 	O 	0.72330 0.84520 0.39273 -0.41500
C 	C 	0.98100 0.17640 0.49710 -0.18100
H 	H 	0.06780 0.18090 0.48850 0.09200
H 	H 	0.96920 0.17230 0.54660 0.08000
C 	C 	0.93330 0.10090 0.46280 0.17000
C 	C 	0.98140 0.07590 0.40050 -0.19700
H 	H 	0.04030 0.10710 0.37880 0.11000
C 	C 	0.94330 0.00570 0.37000 0.10800
H 	H 	0.97840 0.98940 0.32860 -0.00600
C 	C 	0.85450 0.95940 0.39972 -0.15600
C 	C 	0.80400 0.98440 0.46300 0.09100
H 	H 	0.74340 0.95400 0.48400 0.01100
C 	C 	0.84470 0.05410 0.49380 -0.19000
H 	H 	0.81210 0.06980 0.53600 0.09600
C 	C 	0.81330 0.88220 0.36790 0.32500
O 	O 	0.36900 0.64521 0.18412 -0.43200
O 	O 	0.22330 0.65480 0.10727 -0.41400
C 	C 	0.48100 0.32360 0.00290 -0.18100
H 	H 	0.56780 0.31910 0.01150 0.09200
H 	H 	0.46920 0.32770 0.95340 0.07900
C 	C 	0.43330 0.39910 0.03720 0.16800
C 	C 	0.48140 0.42410 0.09950 -0.19500
H 	H 	0.54030 0.39290 0.12120 0.11000
C 	C 	0.44330 0.49430 0.13000 0.10100
H 	H 	0.47840 0.51060 0.17140 -0.00300
C 	C 	0.35450 0.54060 0.10028 -0.15100
C 	C 	0.30400 0.51560 0.03700 0.09000
H 	H 	0.24340 0.54600 0.01600 0.01100
C 	C 	0.34470 0.44590 0.00620 -0.18800
H 	H 	0.31210 0.43020 0.96400 0.09500
C 	C 	0.31330 0.61780 0.13210 0.32400
O 	O 	0.13100 0.35479 0.68412 -0.43200
O 	O 	0.27670 0.34520 0.60727 -0.41400
C 	C 	0.01900 0.67640 0.50290 -0.18200
H 	H 	0.93220 0.68090 0.51150 0.09200
H 	H 	0.03080 0.67230 0.45340 0.08000
C 	C 	0.06670 0.60090 0.53720 0.16900
C 	C 	0.01860 0.57590 0.59950 -0.19600
H 	H 	0.95970 0.60710 0.62120 0.11000
C 	C 	0.05670 0.50570 0.63000 0.10200
H 	H 	0.02160 0.48940 0.67140 -0.00300
C 	C 	0.14550 0.45940 0.60028 -0.15200
C 	C 	0.19600 0.48440 0.53700 0.09100
H 	H 	0.25660 0.45400 0.51600 0.01100
C 	C 	0.15530 0.55410 0.50620 -0.19000
H 	H 	0.18790 0.56980 0.46400 0.09600
C 	C 	0.18670 0.38220 0.63210 0.32400
N 	N 	0.41860 0.25000 0.02880 -0.06000
Eu	Eu	0.28799 0.25000 0.70364 1.81300
O 	O 	0.17960 0.25000 0.80552 -0.56700
O 	O 	0.98570 0.25000 0.83470 -0.55500
O 	O 	0.34850 0.25000 0.15380 -0.45600
H 	H 	0.35720 0.25000 0.19580 0.27700
O 	O 	0.15140 0.25000 0.18140 -0.28700
C 	C 	0.09630 0.25000 0.84880 0.53300
C 	C 	0.13080 0.25000 0.92350 -0.15000
C 	C 	0.04320 0.25000 0.97490 0.01800
H 	H 	0.96100 0.25000 0.96330 0.03900
C 	C 	0.07830 0.25000 0.04360 -0.03100
H 	H 	0.01910 0.25000 0.07790 0.05700
C 	C 	0.20190 0.25000 0.06210 -0.09100
C 	C 	0.28790 0.25000 0.01020 0.08100
C 	C 	0.25300 0.25000 0.94120 -0.02900
H 	H 	0.31210 0.25000 0.90670 0.02300
C 	C 	0.22950 0.25000 0.13850 0.37100
N 	N 	0.08140 0.75000 0.52880 -0.05900
Eu	Eu	0.21201 0.75000 0.20364 1.81400
O 	O 	0.32040 0.75000 0.30552 -0.56700
O 	O 	0.51430 0.75000 0.33470 -0.55700
O 	O 	0.15150 0.75000 0.65380 -0.45500
H 	H 	0.14280 0.75000 0.69580 0.27700
O 	O 	0.34860 0.75000 0.68140 -0.28700
C 	C 	0.40370 0.75000 0.34880 0.53700
C 	C 	0.36920 0.75000 0.42350 -0.15500
C 	C 	0.45680 0.75000 0.47490 0.02700
H 	H 	0.53900 0.75000 0.46330 0.03500
C 	C 	0.42170 0.75000 0.54360 -0.03800
H 	H 	0.48090 0.75000 0.57790 0.06000
C 	C 	0.29810 0.75000 0.56210 -0.08700
C 	C 	0.21210 0.75000 0.51020 0.07700
C 	C 	0.24700 0.75000 0.44120 -0.02400
H 	H 	0.18790 0.75000 0.40670 0.02100
C 	C 	0.27050 0.75000 0.63850 0.37000
N 	N 	0.58140 0.75000 0.97120 -0.06000
Eu	Eu	0.71201 0.75000 0.29636 1.81300
O 	O 	0.82040 0.75000 0.19448 -0.56700
O 	O 	0.01430 0.75000 0.16530 -0.55500
O 	O 	0.65150 0.75000 0.84620 -0.45600
H 	H 	0.64280 0.75000 0.80420 0.27700
O 	O 	0.84860 0.75000 0.81860 -0.28700
C 	C 	0.90370 0.75000 0.15120 0.53300
C 	C 	0.86920 0.75000 0.07650 -0.15000
C 	C 	0.95680 0.75000 0.02510 0.01800
H 	H 	0.03900 0.75000 0.03670 0.03900
C 	C 	0.92170 0.75000 0.95640 -0.03100
H 	H 	0.98090 0.75000 0.92210 0.05700
C 	C 	0.79810 0.75000 0.93790 -0.09100
C 	C 	0.71210 0.75000 0.98980 0.08100
C 	C 	0.74700 0.75000 0.05880 -0.02900
H 	H 	0.68790 0.75000 0.09330 0.02300
C 	C 	0.77050 0.75000 0.86150 0.37100
N 	N 	0.91860 0.25000 0.47120 -0.05900
Eu	Eu	0.78799 0.25000 0.79636 1.81400
O 	O 	0.67960 0.25000 0.69448 -0.56700
O 	O 	0.48570 0.25000 0.66530 -0.55700
O 	O 	0.84850 0.25000 0.34620 -0.45500
H 	H 	0.85720 0.25000 0.30420 0.27700
O 	O 	0.65140 0.25000 0.31860 -0.28700
C 	C 	0.59630 0.25000 0.65120 0.53700
C 	C 	0.63080 0.25000 0.57650 -0.15500
C 	C 	0.54320 0.25000 0.52510 0.02700
H 	H 	0.46100 0.25000 0.53670 0.03500
C 	C 	0.57830 0.25000 0.45640 -0.03800
H 	H 	0.51910 0.25000 0.42210 0.06000
C 	C 	0.70190 0.25000 0.43790 -0.08700
C 	C 	0.78790 0.25000 0.48980 0.07700
C 	C 	0.75300 0.25000 0.55880 -0.02400
H 	H 	0.81210 0.25000 0.59330 0.02100
C 	C 	0.72950 0.25000 0.36150 0.37000
