data_crystal

_cell_length_a 32.35600
_cell_length_b 32.35600
_cell_length_c 33.36300
_cell_angle_alpha 90.00000
_cell_angle_beta  90.00000
_cell_angle_gamma 120.00000

_symmetry_space_group_name_	'P 1'
_symmetry_space_group_name_H-M	'P 1'

loop_
_symmetry_equiv_pos_as_xyz
  x,y,z

loop_
_atom_site_label
_atom_site_type_symbol
_atom_site_fract_x
_atom_site_fract_y
_atom_site_fract_z
_atom_site_charge
Fe	Fe	0.19650 0.85270 0.03549 1.22800
O 	O 	0.13147 0.73227 0.05475 -0.37800
O 	O 	0.18692 0.78943 0.01641 -0.43000
O 	O 	0.30140 0.69490 0.95312 -0.43400
O 	O 	0.29680 0.75810 0.93670 -0.44100
H 	H 	0.32240 0.76590 0.92460 0.19400
O 	O 	0.13407 0.39391 0.05800 -0.43500
O 	O 	0.11735 0.37363 0.12243 -0.42600
O 	O 	0.03416 0.44595 0.19622 -0.38700
O 	O 	0.03699 0.51066 0.16980 -0.43200
C 	C 	0.16470 0.74790 0.02960 0.38300
C 	C 	0.18070 0.71420 0.01471 -0.09500
C 	C 	0.22080 0.73110 0.99010 0.05300
H 	H 	0.23650 0.76340 0.98130 0.05000
C 	C 	0.23790 0.70110 0.97820 -0.11700
C 	C 	0.21400 0.65380 0.99040 0.00200
H 	H 	0.22510 0.63300 0.98180 0.05400
C 	C 	0.17410 0.63650 0.01490 0.00600
C 	C 	0.15800 0.66770 0.02660 -0.00700
H 	H 	0.13050 0.65610 0.04320 0.06000
C 	C 	0.28290 0.71900 0.95520 0.44400
C 	C 	0.15120 0.58860 0.03000 -0.00000
C 	C 	0.13450 0.55130 0.04630 -0.00800
C 	C 	0.11620 0.51090 0.07324 0.01500
C 	C 	0.12480 0.47330 0.06871 -0.01500
H 	H 	0.14090 0.47170 0.04540 0.06100
C 	C 	0.11040 0.43810 0.09744 -0.09200
C 	C 	0.08530 0.43929 0.13053 0.03700
H 	H 	0.07540 0.41510 0.15040 0.05300
C 	C 	0.07460 0.47550 0.13504 -0.08800
C 	C 	0.09070 0.51140 0.10660 -0.01800
H 	H 	0.08420 0.53680 0.11000 0.06000
C 	C 	0.12130 0.39840 0.09216 0.39000
C 	C 	0.04640 0.47750 0.17000 0.38000
Fe	Fe	0.86317 0.18603 0.36882 1.22900
O 	O 	0.79814 0.06560 0.38808 -0.37800
O 	O 	0.85359 0.12276 0.34974 -0.42900
O 	O 	0.96807 0.02823 0.28645 -0.43500
O 	O 	0.96347 0.09143 0.27003 -0.44800
H 	H 	0.98907 0.09923 0.25793 0.20900
O 	O 	0.80074 0.72724 0.39133 -0.43400
O 	O 	0.78402 0.70696 0.45576 -0.42500
O 	O 	0.70083 0.77928 0.52955 -0.38500
O 	O 	0.70366 0.84399 0.50313 -0.42800
C 	C 	0.83137 0.08123 0.36293 0.37800
C 	C 	0.84737 0.04753 0.34804 -0.08200
C 	C 	0.88747 0.06443 0.32343 0.04800
H 	H 	0.90317 0.09673 0.31463 0.05200
C 	C 	0.90457 0.03443 0.31153 -0.12300
C 	C 	0.88067 0.98713 0.32373 0.00700
H 	H 	0.89177 0.96633 0.31513 0.05600
C 	C 	0.84077 0.96983 0.34823 0.02600
C 	C 	0.82467 0.00103 0.35993 -0.04400
H 	H 	0.79717 0.98943 0.37653 0.08000
C 	C 	0.94957 0.05233 0.28853 0.44800
C 	C 	0.81787 0.92193 0.36333 -0.00600
C 	C 	0.80117 0.88463 0.37963 -0.00200
C 	C 	0.78287 0.84423 0.40657 0.01400
C 	C 	0.79147 0.80663 0.40204 -0.01400
H 	H 	0.80757 0.80503 0.37873 0.06200
C 	C 	0.77707 0.77143 0.43077 -0.09100
C 	C 	0.75197 0.77262 0.46386 0.03700
H 	H 	0.74207 0.74843 0.48373 0.05300
C 	C 	0.74127 0.80883 0.46837 -0.08600
C 	C 	0.75737 0.84473 0.43993 -0.01700
H 	H 	0.75087 0.87013 0.44333 0.06100
C 	C 	0.78797 0.73173 0.42549 0.39000
C 	C 	0.71307 0.81083 0.50333 0.38000
Fe	Fe	0.52983 0.51937 0.70216 1.22900
O 	O 	0.46480 0.39894 0.72142 -0.37700
O 	O 	0.52025 0.45610 0.68308 -0.43000
O 	O 	0.63473 0.36157 0.61979 -0.43400
O 	O 	0.63013 0.42477 0.60337 -0.44100
H 	H 	0.65573 0.43257 0.59127 0.19400
O 	O 	0.46740 0.06058 0.72467 -0.43600
O 	O 	0.45068 0.04030 0.78910 -0.42900
O 	O 	0.36749 0.11262 0.86289 -0.38600
O 	O 	0.37032 0.17733 0.83647 -0.42900
C 	C 	0.49803 0.41457 0.69627 0.38300
C 	C 	0.51403 0.38087 0.68138 -0.09500
C 	C 	0.55413 0.39777 0.65677 0.05300
H 	H 	0.56983 0.43007 0.64797 0.04900
C 	C 	0.57123 0.36777 0.64487 -0.11700
C 	C 	0.54733 0.32047 0.65707 0.00200
H 	H 	0.55843 0.29967 0.64847 0.05400
C 	C 	0.50743 0.30317 0.68157 0.00600
C 	C 	0.49133 0.33437 0.69327 -0.00700
H 	H 	0.46383 0.32277 0.70987 0.06000
C 	C 	0.61623 0.38567 0.62187 0.44400
C 	C 	0.48453 0.25527 0.69667 0.00000
C 	C 	0.46783 0.21797 0.71297 -0.00800
C 	C 	0.44953 0.17757 0.73991 0.01500
C 	C 	0.45813 0.13997 0.73538 -0.01500
H 	H 	0.47423 0.13837 0.71207 0.06100
C 	C 	0.44373 0.10477 0.76411 -0.09200
C 	C 	0.41863 0.10596 0.79720 0.03700
H 	H 	0.40873 0.08177 0.81707 0.05200
C 	C 	0.40793 0.14217 0.80171 -0.08700
C 	C 	0.42403 0.17807 0.77327 -0.01800
H 	H 	0.41753 0.20347 0.77667 0.06100
C 	C 	0.45463 0.06507 0.75883 0.39000
C 	C 	0.37973 0.14417 0.83667 0.38000
Fe	Fe	0.14730 0.34380 0.03549 1.22900
O 	O 	0.26773 0.39920 0.05475 -0.37700
O 	O 	0.21057 0.39749 0.01641 -0.43000
O 	O 	0.30510 0.60650 0.95312 -0.43400
O 	O 	0.24190 0.53870 0.93670 -0.44100
H 	H 	0.23410 0.55650 0.92460 0.19400
O 	O 	0.60609 0.74016 0.05800 -0.43400
O 	O 	0.62637 0.74372 0.12243 -0.42500
O 	O 	0.55405 0.58821 0.19622 -0.38500
O 	O 	0.48934 0.52633 0.16980 -0.42900
C 	C 	0.25210 0.41680 0.02960 0.38300
C 	C 	0.28580 0.46650 0.01471 -0.09500
C 	C 	0.26890 0.48970 0.99010 0.05300
H 	H 	0.23660 0.47310 0.98130 0.04900
C 	C 	0.29890 0.53680 0.97820 -0.11800
C 	C 	0.34620 0.56020 0.99040 0.00200
H 	H 	0.36700 0.59210 0.98180 0.05400
C 	C 	0.36350 0.53760 0.01490 0.00600
C 	C 	0.33230 0.49030 0.02660 -0.00700
H 	H 	0.34390 0.47440 0.04320 0.06000
C 	C 	0.28100 0.56390 0.95520 0.44400
C 	C 	0.41140 0.56260 0.03000 0.00100
C 	C 	0.44870 0.58320 0.04630 -0.00700
C 	C 	0.48910 0.60530 0.07324 0.01600
C 	C 	0.52670 0.65150 0.06871 -0.01600
H 	H 	0.52830 0.66920 0.04540 0.06200
C 	C 	0.56190 0.67230 0.09744 -0.09100
C 	C 	0.56071 0.64601 0.13053 0.03600
H 	H 	0.58490 0.66030 0.15040 0.05400
C 	C 	0.52450 0.59910 0.13504 -0.08600
C 	C 	0.48860 0.57930 0.10660 -0.01900
H 	H 	0.46320 0.54740 0.11000 0.06100
C 	C 	0.60160 0.72290 0.09216 0.39000
C 	C 	0.52250 0.56890 0.17000 0.38000
Fe	Fe	0.81397 0.67713 0.36882 1.22900
O 	O 	0.93440 0.73253 0.38808 -0.37600
O 	O 	0.87724 0.73082 0.34974 -0.43100
O 	O 	0.97177 0.93983 0.28645 -0.42500
O 	O 	0.90857 0.87203 0.27003 -0.43900
H 	H 	0.90077 0.88983 0.25793 0.19400
O 	O 	0.27276 0.07349 0.39133 -0.43900
O 	O 	0.29304 0.07705 0.45576 -0.43100
O 	O 	0.22072 0.92154 0.52955 -0.38600
O 	O 	0.15601 0.85966 0.50313 -0.43100
C 	C 	0.91877 0.75013 0.36293 0.38800
C 	C 	0.95247 0.79983 0.34804 -0.10500
C 	C 	0.93557 0.82303 0.32343 0.05600
H 	H 	0.90327 0.80643 0.31463 0.04900
C 	C 	0.96557 0.87013 0.31153 -0.10800
C 	C 	0.01287 0.89353 0.32373 -0.00500
H 	H 	0.03367 0.92543 0.31513 0.05700
C 	C 	0.03017 0.87093 0.34823 -0.00800
C 	C 	0.99897 0.82363 0.35993 0.02600
H 	H 	0.01057 0.80773 0.37653 0.04300
C 	C 	0.94767 0.89723 0.28853 0.44000
C 	C 	0.07807 0.89593 0.36333 -0.00000
C 	C 	0.11537 0.91653 0.37963 0.00300
C 	C 	0.15577 0.93863 0.40657 -0.01100
C 	C 	0.19337 0.98483 0.40204 0.04300
H 	H 	0.19497 0.00253 0.37873 0.03600
C 	C 	0.22857 0.00563 0.43077 -0.14000
C 	C 	0.22738 0.97934 0.46386 0.07600
H 	H 	0.25157 0.99363 0.48373 0.04500
C 	C 	0.19117 0.93243 0.46837 -0.10700
C 	C 	0.15527 0.91263 0.43993 0.00500
H 	H 	0.12987 0.88073 0.44333 0.05300
C 	C 	0.26827 0.05623 0.42549 0.40500
C 	C 	0.18917 0.90223 0.50333 0.38800
Fe	Fe	0.48063 0.01047 0.70216 1.22400
O 	O 	0.60106 0.06587 0.72142 -0.37900
O 	O 	0.54390 0.06416 0.68308 -0.43200
O 	O 	0.63843 0.27317 0.61979 -0.43400
O 	O 	0.57523 0.20537 0.60337 -0.44200
H 	H 	0.56743 0.22317 0.59127 0.19400
O 	O 	0.93942 0.40683 0.72467 -0.43200
O 	O 	0.95970 0.41039 0.78910 -0.42100
O 	O 	0.88738 0.25488 0.86289 -0.38400
O 	O 	0.82267 0.19300 0.83647 -0.42800
C 	C 	0.58543 0.08347 0.69627 0.38300
C 	C 	0.61913 0.13317 0.68138 -0.09600
C 	C 	0.60223 0.15637 0.65677 0.05300
H 	H 	0.56993 0.13977 0.64797 0.04900
C 	C 	0.63223 0.20347 0.64487 -0.11800
C 	C 	0.67953 0.22687 0.65707 0.00300
H 	H 	0.70033 0.25877 0.64847 0.05400
C 	C 	0.69683 0.20427 0.68157 0.00500
C 	C 	0.66563 0.15697 0.69327 -0.00700
H 	H 	0.67723 0.14107 0.70987 0.06000
C 	C 	0.61433 0.23057 0.62187 0.44400
C 	C 	0.74473 0.22927 0.69667 0.00100
C 	C 	0.78203 0.24987 0.71297 -0.00800
C 	C 	0.82243 0.27197 0.73991 0.01700
C 	C 	0.86003 0.31817 0.73538 -0.01600
H 	H 	0.86163 0.33587 0.71207 0.06200
C 	C 	0.89523 0.33897 0.76411 -0.08900
C 	C 	0.89404 0.31268 0.79720 0.03600
H 	H 	0.91823 0.32697 0.81707 0.05500
C 	C 	0.85783 0.26577 0.80171 -0.08500
C 	C 	0.82193 0.24597 0.77327 -0.01900
H 	H 	0.79653 0.21407 0.77667 0.06100
C 	C 	0.93493 0.38957 0.75883 0.39000
C 	C 	0.85583 0.23557 0.83667 0.38000
Fe	Fe	0.65620 0.80350 0.03549 1.22900
O 	O 	0.60080 0.86853 0.05475 -0.37700
O 	O 	0.60251 0.81308 0.01641 -0.43000
O 	O 	0.39350 0.69860 0.95312 -0.43400
O 	O 	0.46130 0.70320 0.93670 -0.44100
H 	H 	0.44350 0.67760 0.92460 0.19400
O 	O 	0.25984 0.86593 0.05800 -0.43400
O 	O 	0.25628 0.88265 0.12243 -0.42400
O 	O 	0.41179 0.96584 0.19622 -0.38000
O 	O 	0.47367 0.96301 0.16980 -0.42400
C 	C 	0.58320 0.83530 0.02960 0.38300
C 	C 	0.53350 0.81930 0.01471 -0.09500
C 	C 	0.51030 0.77920 0.99010 0.05300
H 	H 	0.52690 0.76350 0.98130 0.05000
C 	C 	0.46320 0.76210 0.97820 -0.11700
C 	C 	0.43980 0.78600 0.99040 0.00200
H 	H 	0.40790 0.77490 0.98180 0.05500
C 	C 	0.46240 0.82590 0.01490 0.00600
C 	C 	0.50970 0.84200 0.02660 -0.00700
H 	H 	0.52560 0.86950 0.04320 0.06100
C 	C 	0.43610 0.71710 0.95520 0.44400
C 	C 	0.43740 0.84880 0.03000 0.00100
C 	C 	0.41680 0.86550 0.04630 -0.00700
C 	C 	0.39470 0.88380 0.07324 0.01700
C 	C 	0.34850 0.87520 0.06871 -0.01600
H 	H 	0.33080 0.85910 0.04540 0.06200
C 	C 	0.32770 0.88960 0.09744 -0.08900
C 	C 	0.35399 0.91470 0.13053 0.03600
H 	H 	0.33970 0.92460 0.15040 0.05500
C 	C 	0.40090 0.92540 0.13504 -0.08400
C 	C 	0.42070 0.90930 0.10660 -0.01900
H 	H 	0.45260 0.91580 0.11000 0.06200
C 	C 	0.27710 0.87870 0.09216 0.39000
C 	C 	0.43110 0.95360 0.17000 0.37900
Fe	Fe	0.32287 0.13683 0.36882 1.22900
O 	O 	0.26747 0.20186 0.38808 -0.37800
O 	O 	0.26918 0.14641 0.34974 -0.43000
O 	O 	0.06017 0.03193 0.28645 -0.43900
O 	O 	0.12797 0.03653 0.27003 -0.43500
H 	H 	0.11017 0.01093 0.25793 0.17800
O 	O 	0.92651 0.19926 0.39133 -0.42900
O 	O 	0.92295 0.21598 0.45576 -0.41900
O 	O 	0.07846 0.29917 0.52955 -0.38400
O 	O 	0.14034 0.29634 0.50313 -0.42700
C 	C 	0.24987 0.16863 0.36293 0.38400
C 	C 	0.20017 0.15263 0.34804 -0.09700
C 	C 	0.17697 0.11253 0.32343 0.05400
H 	H 	0.19357 0.09683 0.31463 0.04800
C 	C 	0.12987 0.09543 0.31153 -0.12000
C 	C 	0.10647 0.11933 0.32373 0.00500
H 	H 	0.07457 0.10823 0.31513 0.05100
C 	C 	0.12907 0.15923 0.34823 -0.00000
C 	C 	0.17637 0.17533 0.35993 -0.00400
H 	H 	0.19227 0.20283 0.37653 0.05900
C 	C 	0.10277 0.05043 0.28853 0.44100
C 	C 	0.10407 0.18213 0.36333 0.00800
C 	C 	0.08347 0.19883 0.37963 -0.02400
C 	C 	0.06137 0.21713 0.40657 0.04600
C 	C 	0.01517 0.20853 0.40204 -0.07500
H 	H 	0.99747 0.19243 0.37873 0.08800
C 	C 	0.99437 0.22293 0.43077 -0.04100
C 	C 	0.02066 0.24803 0.46386 -0.00400
H 	H 	0.00637 0.25793 0.48373 0.06300
C 	C 	0.06757 0.25873 0.46837 -0.06500
C 	C 	0.08737 0.24263 0.43993 -0.04300
H 	H 	0.11927 0.24913 0.44333 0.06800
C 	C 	0.94377 0.21203 0.42549 0.37400
C 	C 	0.09777 0.28693 0.50333 0.37200
Fe	Fe	0.98953 0.47017 0.70216 1.23500
O 	O 	0.93413 0.53520 0.72142 -0.37300
O 	O 	0.93584 0.47975 0.68308 -0.42700
O 	O 	0.72683 0.36527 0.61979 -0.43400
O 	O 	0.79463 0.36987 0.60337 -0.44000
H 	H 	0.77683 0.34427 0.59127 0.19400
O 	O 	0.59317 0.53260 0.72467 -0.43400
O 	O 	0.58961 0.54932 0.78910 -0.42500
O 	O 	0.74512 0.63251 0.86289 -0.38500
O 	O 	0.80700 0.62968 0.83647 -0.42800
C 	C 	0.91653 0.50197 0.69627 0.38300
C 	C 	0.86683 0.48597 0.68138 -0.09400
C 	C 	0.84363 0.44587 0.65677 0.05200
H 	H 	0.86023 0.43017 0.64797 0.05000
C 	C 	0.79653 0.42877 0.64487 -0.11700
C 	C 	0.77313 0.45267 0.65707 0.00200
H 	H 	0.74123 0.44157 0.64847 0.05500
C 	C 	0.79573 0.49257 0.68157 0.00600
C 	C 	0.84303 0.50867 0.69327 -0.00800
H 	H 	0.85893 0.53617 0.70987 0.06100
C 	C 	0.76943 0.38377 0.62187 0.44400
C 	C 	0.77073 0.51547 0.69667 0.00100
C 	C 	0.75013 0.53217 0.71297 -0.00700
C 	C 	0.72803 0.55047 0.73991 0.01600
C 	C 	0.68183 0.54187 0.73538 -0.01600
H 	H 	0.66413 0.52577 0.71207 0.06200
C 	C 	0.66103 0.55627 0.76411 -0.09100
C 	C 	0.68732 0.58137 0.79720 0.03600
H 	H 	0.67303 0.59127 0.81707 0.05400
C 	C 	0.73423 0.59207 0.80171 -0.08600
C 	C 	0.75403 0.57597 0.77327 -0.01900
H 	H 	0.78593 0.58247 0.77667 0.06100
C 	C 	0.61043 0.54537 0.75883 0.39000
C 	C 	0.76443 0.62027 0.83667 0.38000
Fe	Fe	0.85270 0.19650 0.46451 1.22900
O 	O 	0.73227 0.13147 0.44525 -0.37800
O 	O 	0.78943 0.18692 0.48359 -0.43000
O 	O 	0.69490 0.30140 0.54688 -0.43400
O 	O 	0.75810 0.29680 0.56330 -0.44100
H 	H 	0.76590 0.32240 0.57540 0.19400
O 	O 	0.39391 0.13407 0.44200 -0.43500
O 	O 	0.37363 0.11735 0.37757 -0.42600
O 	O 	0.44595 0.03416 0.30378 -0.38700
O 	O 	0.51066 0.03699 0.33020 -0.43200
C 	C 	0.74790 0.16470 0.47040 0.38300
C 	C 	0.71420 0.18070 0.48529 -0.09600
C 	C 	0.73110 0.22080 0.50990 0.05300
H 	H 	0.76340 0.23650 0.51870 0.05000
C 	C 	0.70110 0.23790 0.52180 -0.11800
C 	C 	0.65380 0.21400 0.50960 0.00200
H 	H 	0.63300 0.22510 0.51820 0.05400
C 	C 	0.63650 0.17410 0.48510 0.00500
C 	C 	0.66770 0.15800 0.47340 -0.00700
H 	H 	0.65610 0.13050 0.45680 0.06000
C 	C 	0.71900 0.28290 0.54480 0.44400
C 	C 	0.58860 0.15120 0.47000 0.00000
C 	C 	0.55130 0.13450 0.45370 -0.00800
C 	C 	0.51090 0.11620 0.42676 0.01500
C 	C 	0.47330 0.12480 0.43129 -0.01500
H 	H 	0.47170 0.14090 0.45460 0.06100
C 	C 	0.43810 0.11040 0.40256 -0.09200
C 	C 	0.43929 0.08530 0.36947 0.03700
H 	H 	0.41510 0.07540 0.34960 0.05300
C 	C 	0.47550 0.07460 0.36496 -0.08800
C 	C 	0.51140 0.09070 0.39340 -0.01800
H 	H 	0.53680 0.08420 0.39000 0.06000
C 	C 	0.39840 0.12130 0.40784 0.39000
C 	C 	0.47750 0.04640 0.33000 0.38000
Fe	Fe	0.51937 0.52983 0.79784 1.22900
O 	O 	0.39894 0.46480 0.77858 -0.37700
O 	O 	0.45610 0.52025 0.81692 -0.43000
O 	O 	0.36157 0.63473 0.88021 -0.43400
O 	O 	0.42477 0.63013 0.89663 -0.44100
H 	H 	0.43257 0.65573 0.90873 0.19400
O 	O 	0.06058 0.46740 0.77533 -0.43600
O 	O 	0.04030 0.45068 0.71090 -0.42900
O 	O 	0.11262 0.36749 0.63711 -0.38600
O 	O 	0.17733 0.37032 0.66353 -0.42900
C 	C 	0.41457 0.49803 0.80373 0.38300
C 	C 	0.38087 0.51403 0.81862 -0.09500
C 	C 	0.39777 0.55413 0.84323 0.05300
H 	H 	0.43007 0.56983 0.85203 0.04900
C 	C 	0.36777 0.57123 0.85513 -0.11700
C 	C 	0.32047 0.54733 0.84293 0.00200
H 	H 	0.29967 0.55843 0.85153 0.05400
C 	C 	0.30317 0.50743 0.81843 0.00600
C 	C 	0.33437 0.49133 0.80673 -0.00700
H 	H 	0.32277 0.46383 0.79013 0.06000
C 	C 	0.38567 0.61623 0.87813 0.44400
C 	C 	0.25527 0.48453 0.80333 0.00000
C 	C 	0.21797 0.46783 0.78703 -0.00800
C 	C 	0.17757 0.44953 0.76009 0.01500
C 	C 	0.13997 0.45813 0.76462 -0.01500
H 	H 	0.13837 0.47423 0.78793 0.06100
C 	C 	0.10477 0.44373 0.73589 -0.09200
C 	C 	0.10596 0.41863 0.70280 0.03700
H 	H 	0.08177 0.40873 0.68293 0.05200
C 	C 	0.14217 0.40793 0.69829 -0.08700
C 	C 	0.17807 0.42403 0.72673 -0.01800
H 	H 	0.20347 0.41753 0.72333 0.06100
C 	C 	0.06507 0.45463 0.74117 0.39000
C 	C 	0.14417 0.37973 0.66333 0.38000
Fe	Fe	0.18603 0.86317 0.13118 1.22900
O 	O 	0.06560 0.79814 0.11192 -0.37800
O 	O 	0.12276 0.85359 0.15026 -0.42900
O 	O 	0.02823 0.96807 0.21355 -0.43400
O 	O 	0.09143 0.96347 0.22997 -0.44800
H 	H 	0.09923 0.98907 0.24207 0.20900
O 	O 	0.72724 0.80074 0.10867 -0.43400
O 	O 	0.70696 0.78402 0.04424 -0.42500
O 	O 	0.77928 0.70083 0.97045 -0.38500
O 	O 	0.84399 0.70366 0.99687 -0.42800
C 	C 	0.08123 0.83137 0.13707 0.37800
C 	C 	0.04753 0.84737 0.15196 -0.08300
C 	C 	0.06443 0.88747 0.17657 0.04800
H 	H 	0.09673 0.90317 0.18537 0.05200
C 	C 	0.03443 0.90457 0.18847 -0.12300
C 	C 	0.98713 0.88067 0.17627 0.00700
H 	H 	0.96633 0.89177 0.18487 0.05600
C 	C 	0.96983 0.84077 0.15177 0.02600
C 	C 	0.00103 0.82467 0.14007 -0.04400
H 	H 	0.98943 0.79717 0.12347 0.07900
C 	C 	0.05233 0.94957 0.21147 0.44800
C 	C 	0.92193 0.81787 0.13667 -0.00600
C 	C 	0.88463 0.80117 0.12037 -0.00200
C 	C 	0.84423 0.78287 0.09343 0.01400
C 	C 	0.80663 0.79147 0.09796 -0.01400
H 	H 	0.80503 0.80757 0.12127 0.06200
C 	C 	0.77143 0.77707 0.06923 -0.09100
C 	C 	0.77262 0.75197 0.03614 0.03700
H 	H 	0.74843 0.74207 0.01627 0.05300
C 	C 	0.80883 0.74127 0.03163 -0.08600
C 	C 	0.84473 0.75737 0.06007 -0.01700
H 	H 	0.87013 0.75087 0.05667 0.06100
C 	C 	0.73173 0.78797 0.07451 0.39000
C 	C 	0.81083 0.71307 0.99667 0.38000
Fe	Fe	0.34380 0.14730 0.46451 1.22900
O 	O 	0.39920 0.26773 0.44525 -0.37700
O 	O 	0.39749 0.21057 0.48359 -0.43000
O 	O 	0.60650 0.30510 0.54688 -0.43400
O 	O 	0.53870 0.24190 0.56330 -0.44100
H 	H 	0.55650 0.23410 0.57540 0.19400
O 	O 	0.74016 0.60609 0.44200 -0.43400
O 	O 	0.74372 0.62637 0.37757 -0.42500
O 	O 	0.58821 0.55405 0.30378 -0.38500
O 	O 	0.52633 0.48934 0.33020 -0.42900
C 	C 	0.41680 0.25210 0.47040 0.38300
C 	C 	0.46650 0.28580 0.48529 -0.09500
C 	C 	0.48970 0.26890 0.50990 0.05300
H 	H 	0.47310 0.23660 0.51870 0.04900
C 	C 	0.53680 0.29890 0.52180 -0.11800
C 	C 	0.56020 0.34620 0.50960 0.00300
H 	H 	0.59210 0.36700 0.51820 0.05400
C 	C 	0.53760 0.36350 0.48510 0.00600
C 	C 	0.49030 0.33230 0.47340 -0.00700
H 	H 	0.47440 0.34390 0.45680 0.06000
C 	C 	0.56390 0.28100 0.54480 0.44400
C 	C 	0.56260 0.41140 0.47000 0.00100
C 	C 	0.58320 0.44870 0.45370 -0.00700
C 	C 	0.60530 0.48910 0.42676 0.01600
C 	C 	0.65150 0.52670 0.43129 -0.01600
H 	H 	0.66920 0.52830 0.45460 0.06200
C 	C 	0.67230 0.56190 0.40256 -0.09100
C 	C 	0.64601 0.56071 0.36947 0.03600
H 	H 	0.66030 0.58490 0.34960 0.05400
C 	C 	0.59910 0.52450 0.36496 -0.08600
C 	C 	0.57930 0.48860 0.39340 -0.01900
H 	H 	0.54740 0.46320 0.39000 0.06100
C 	C 	0.72290 0.60160 0.40784 0.39000
C 	C 	0.56890 0.52250 0.33000 0.38000
Fe	Fe	0.01047 0.48063 0.79784 1.22400
O 	O 	0.06587 0.60106 0.77858 -0.37900
O 	O 	0.06416 0.54390 0.81692 -0.43200
O 	O 	0.27317 0.63843 0.88021 -0.43400
O 	O 	0.20537 0.57523 0.89663 -0.44200
H 	H 	0.22317 0.56743 0.90873 0.19400
O 	O 	0.40683 0.93942 0.77533 -0.43200
O 	O 	0.41039 0.95970 0.71090 -0.42100
O 	O 	0.25488 0.88738 0.63711 -0.38400
O 	O 	0.19300 0.82267 0.66353 -0.42800
C 	C 	0.08347 0.58543 0.80373 0.38300
C 	C 	0.13317 0.61913 0.81862 -0.09600
C 	C 	0.15637 0.60223 0.84323 0.05300
H 	H 	0.13977 0.56993 0.85203 0.04900
C 	C 	0.20347 0.63223 0.85513 -0.11800
C 	C 	0.22687 0.67953 0.84293 0.00300
H 	H 	0.25877 0.70033 0.85153 0.05400
C 	C 	0.20427 0.69683 0.81843 0.00500
C 	C 	0.15697 0.66563 0.80673 -0.00700
H 	H 	0.14107 0.67723 0.79013 0.06000
C 	C 	0.23057 0.61433 0.87813 0.44400
C 	C 	0.22927 0.74473 0.80333 0.00100
C 	C 	0.24987 0.78203 0.78703 -0.00800
C 	C 	0.27197 0.82243 0.76009 0.01700
C 	C 	0.31817 0.86003 0.76462 -0.01600
H 	H 	0.33587 0.86163 0.78793 0.06200
C 	C 	0.33897 0.89523 0.73589 -0.08900
C 	C 	0.31268 0.89404 0.70280 0.03600
H 	H 	0.32697 0.91823 0.68293 0.05500
C 	C 	0.26577 0.85783 0.69829 -0.08500
C 	C 	0.24597 0.82193 0.72673 -0.01900
H 	H 	0.21407 0.79653 0.72333 0.06100
C 	C 	0.38957 0.93493 0.74117 0.39000
C 	C 	0.23557 0.85583 0.66333 0.38000
Fe	Fe	0.67713 0.81397 0.13118 1.22900
O 	O 	0.73253 0.93440 0.11192 -0.37600
O 	O 	0.73082 0.87724 0.15026 -0.43100
O 	O 	0.93983 0.97177 0.21355 -0.42500
O 	O 	0.87203 0.90857 0.22997 -0.43900
H 	H 	0.88983 0.90077 0.24207 0.19400
O 	O 	0.07349 0.27276 0.10867 -0.43900
O 	O 	0.07705 0.29304 0.04424 -0.43100
O 	O 	0.92154 0.22072 0.97045 -0.38600
O 	O 	0.85966 0.15601 0.99687 -0.43100
C 	C 	0.75013 0.91877 0.13707 0.38800
C 	C 	0.79983 0.95247 0.15196 -0.10600
C 	C 	0.82303 0.93557 0.17657 0.05600
H 	H 	0.80643 0.90327 0.18537 0.04900
C 	C 	0.87013 0.96557 0.18847 -0.10800
C 	C 	0.89353 0.01287 0.17627 -0.00500
H 	H 	0.92543 0.03367 0.18487 0.05700
C 	C 	0.87093 0.03017 0.15177 -0.00800
C 	C 	0.82363 0.99897 0.14007 0.02700
H 	H 	0.80773 0.01057 0.12347 0.04300
C 	C 	0.89723 0.94767 0.21147 0.44000
C 	C 	0.89593 0.07807 0.13667 -0.00000
C 	C 	0.91653 0.11537 0.12037 0.00300
C 	C 	0.93863 0.15577 0.09343 -0.01100
C 	C 	0.98483 0.19337 0.09796 0.04200
H 	H 	0.00253 0.19497 0.12127 0.03600
C 	C 	0.00563 0.22857 0.06923 -0.13900
C 	C 	0.97934 0.22738 0.03614 0.07500
H 	H 	0.99363 0.25157 0.01627 0.04500
C 	C 	0.93243 0.19117 0.03163 -0.10700
C 	C 	0.91263 0.15527 0.06007 0.00400
H 	H 	0.88073 0.12987 0.05667 0.05300
C 	C 	0.05623 0.26827 0.07451 0.40500
C 	C 	0.90223 0.18917 0.99667 0.38800
Fe	Fe	0.80350 0.65620 0.46451 1.22900
O 	O 	0.86853 0.60080 0.44525 -0.37700
O 	O 	0.81308 0.60251 0.48359 -0.43000
O 	O 	0.69860 0.39350 0.54688 -0.43400
O 	O 	0.70320 0.46130 0.56330 -0.44100
H 	H 	0.67760 0.44350 0.57540 0.19400
O 	O 	0.86593 0.25984 0.44200 -0.43400
O 	O 	0.88265 0.25628 0.37757 -0.42400
O 	O 	0.96584 0.41179 0.30378 -0.38000
O 	O 	0.96301 0.47367 0.33020 -0.42400
C 	C 	0.83530 0.58320 0.47040 0.38300
C 	C 	0.81930 0.53350 0.48529 -0.09500
C 	C 	0.77920 0.51030 0.50990 0.05300
H 	H 	0.76350 0.52690 0.51870 0.05000
C 	C 	0.76210 0.46320 0.52180 -0.11700
C 	C 	0.78600 0.43980 0.50960 0.00200
H 	H 	0.77490 0.40790 0.51820 0.05500
C 	C 	0.82590 0.46240 0.48510 0.00600
C 	C 	0.84200 0.50970 0.47340 -0.00700
H 	H 	0.86950 0.52560 0.45680 0.06100
C 	C 	0.71710 0.43610 0.54480 0.44400
C 	C 	0.84880 0.43740 0.47000 0.00100
C 	C 	0.86550 0.41680 0.45370 -0.00700
C 	C 	0.88380 0.39470 0.42676 0.01700
C 	C 	0.87520 0.34850 0.43129 -0.01600
H 	H 	0.85910 0.33080 0.45460 0.06200
C 	C 	0.88960 0.32770 0.40256 -0.08900
C 	C 	0.91470 0.35399 0.36947 0.03600
H 	H 	0.92460 0.33970 0.34960 0.05500
C 	C 	0.92540 0.40090 0.36496 -0.08400
C 	C 	0.90930 0.42070 0.39340 -0.01900
H 	H 	0.91580 0.45260 0.39000 0.06200
C 	C 	0.87870 0.27710 0.40784 0.39000
C 	C 	0.95360 0.43110 0.33000 0.37900
Fe	Fe	0.47017 0.98953 0.79784 1.23500
O 	O 	0.53520 0.93413 0.77858 -0.37300
O 	O 	0.47975 0.93584 0.81692 -0.42700
O 	O 	0.36527 0.72683 0.88021 -0.43400
O 	O 	0.36987 0.79463 0.89663 -0.44000
H 	H 	0.34427 0.77683 0.90873 0.19400
O 	O 	0.53260 0.59317 0.77533 -0.43400
O 	O 	0.54932 0.58961 0.71090 -0.42500
O 	O 	0.63251 0.74512 0.63711 -0.38500
O 	O 	0.62968 0.80700 0.66353 -0.42800
C 	C 	0.50197 0.91653 0.80373 0.38300
C 	C 	0.48597 0.86683 0.81862 -0.09400
C 	C 	0.44587 0.84363 0.84323 0.05200
H 	H 	0.43017 0.86023 0.85203 0.05000
C 	C 	0.42877 0.79653 0.85513 -0.11700
C 	C 	0.45267 0.77313 0.84293 0.00200
H 	H 	0.44157 0.74123 0.85153 0.05500
C 	C 	0.49257 0.79573 0.81843 0.00600
C 	C 	0.50867 0.84303 0.80673 -0.00800
H 	H 	0.53617 0.85893 0.79013 0.06100
C 	C 	0.38377 0.76943 0.87813 0.44400
C 	C 	0.51547 0.77073 0.80333 0.00100
C 	C 	0.53217 0.75013 0.78703 -0.00700
C 	C 	0.55047 0.72803 0.76009 0.01600
C 	C 	0.54187 0.68183 0.76462 -0.01600
H 	H 	0.52577 0.66413 0.78793 0.06200
C 	C 	0.55627 0.66103 0.73589 -0.09100
C 	C 	0.58137 0.68732 0.70280 0.03600
H 	H 	0.59127 0.67303 0.68293 0.05400
C 	C 	0.59207 0.73423 0.69829 -0.08600
C 	C 	0.57597 0.75403 0.72673 -0.01900
H 	H 	0.58247 0.78593 0.72333 0.06100
C 	C 	0.54537 0.61043 0.74117 0.39000
C 	C 	0.62027 0.76443 0.66333 0.38000
Fe	Fe	0.13683 0.32287 0.13118 1.22900
O 	O 	0.20186 0.26747 0.11192 -0.37800
O 	O 	0.14641 0.26918 0.15026 -0.43000
O 	O 	0.03193 0.06017 0.21355 -0.43900
O 	O 	0.03653 0.12797 0.22997 -0.43500
H 	H 	0.01093 0.11017 0.24207 0.17900
O 	O 	0.19926 0.92651 0.10867 -0.42900
O 	O 	0.21598 0.92295 0.04424 -0.41900
O 	O 	0.29917 0.07846 0.97045 -0.38400
O 	O 	0.29634 0.14034 0.99687 -0.42700
C 	C 	0.16863 0.24987 0.13707 0.38400
C 	C 	0.15263 0.20017 0.15196 -0.09800
C 	C 	0.11253 0.17697 0.17657 0.05400
H 	H 	0.09683 0.19357 0.18537 0.04800
C 	C 	0.09543 0.12987 0.18847 -0.12000
C 	C 	0.11933 0.10647 0.17627 0.00500
H 	H 	0.10823 0.07457 0.18487 0.05100
C 	C 	0.15923 0.12907 0.15177 -0.00000
C 	C 	0.17533 0.17637 0.14007 -0.00400
H 	H 	0.20283 0.19227 0.12347 0.05900
C 	C 	0.05043 0.10277 0.21147 0.44100
C 	C 	0.18213 0.10407 0.13667 0.00800
C 	C 	0.19883 0.08347 0.12037 -0.02400
C 	C 	0.21713 0.06137 0.09343 0.04600
C 	C 	0.20853 0.01517 0.09796 -0.07600
H 	H 	0.19243 0.99747 0.12127 0.08800
C 	C 	0.22293 0.99437 0.06923 -0.04100
C 	C 	0.24803 0.02066 0.03614 -0.00400
H 	H 	0.25793 0.00637 0.01627 0.06300
C 	C 	0.25873 0.06757 0.03163 -0.06500
C 	C 	0.24263 0.08737 0.06007 -0.04300
H 	H 	0.24913 0.11927 0.05667 0.06800
C 	C 	0.21203 0.94377 0.07451 0.37400
C 	C 	0.28693 0.09777 0.99667 0.37200
Fe	Fe	0.80350 0.14730 0.96451 1.22900
O 	O 	0.86853 0.26773 0.94525 -0.37700
O 	O 	0.81308 0.21057 0.98359 -0.43000
O 	O 	0.69860 0.30510 0.04688 -0.43400
O 	O 	0.70320 0.24190 0.06330 -0.44100
H 	H 	0.67760 0.23410 0.07540 0.19400
O 	O 	0.86593 0.60609 0.94200 -0.43400
O 	O 	0.88265 0.62637 0.87757 -0.42400
O 	O 	0.96584 0.55405 0.80378 -0.38000
O 	O 	0.96301 0.48934 0.83020 -0.42400
C 	C 	0.83530 0.25210 0.97040 0.38300
C 	C 	0.81930 0.28580 0.98529 -0.09500
C 	C 	0.77920 0.26890 0.00990 0.05300
H 	H 	0.76350 0.23660 0.01870 0.04900
C 	C 	0.76210 0.29890 0.02180 -0.11700
C 	C 	0.78600 0.34620 0.00960 0.00200
H 	H 	0.77490 0.36700 0.01820 0.05500
C 	C 	0.82590 0.36350 0.98510 0.00600
C 	C 	0.84200 0.33230 0.97340 -0.00700
H 	H 	0.86950 0.34390 0.95680 0.06100
C 	C 	0.71710 0.28100 0.04480 0.44400
C 	C 	0.84880 0.41140 0.97000 0.00100
C 	C 	0.86550 0.44870 0.95370 -0.00700
C 	C 	0.88380 0.48910 0.92676 0.01700
C 	C 	0.87520 0.52670 0.93129 -0.01600
H 	H 	0.85910 0.52830 0.95460 0.06200
C 	C 	0.88960 0.56190 0.90256 -0.08900
C 	C 	0.91470 0.56071 0.86947 0.03600
H 	H 	0.92460 0.58490 0.84960 0.05500
C 	C 	0.92540 0.52450 0.86496 -0.08400
C 	C 	0.90930 0.48860 0.89340 -0.01900
H 	H 	0.91580 0.46320 0.89000 0.06200
C 	C 	0.87870 0.60160 0.90784 0.39000
C 	C 	0.95360 0.52250 0.83000 0.37900
Fe	Fe	0.47017 0.48063 0.29784 1.22900
O 	O 	0.53520 0.60106 0.27858 -0.37700
O 	O 	0.47975 0.54390 0.31692 -0.43000
O 	O 	0.36527 0.63843 0.38021 -0.43400
O 	O 	0.36987 0.57523 0.39663 -0.44100
H 	H 	0.34427 0.56743 0.40873 0.19400
O 	O 	0.53260 0.93942 0.27533 -0.43200
O 	O 	0.54932 0.95970 0.21090 -0.42100
O 	O 	0.63251 0.88738 0.13711 -0.38400
O 	O 	0.62968 0.82267 0.16353 -0.42800
C 	C 	0.50197 0.58543 0.30373 0.38300
C 	C 	0.48597 0.61913 0.31862 -0.09500
C 	C 	0.44587 0.60223 0.34323 0.05300
H 	H 	0.43017 0.56993 0.35203 0.04900
C 	C 	0.42877 0.63223 0.35513 -0.11700
C 	C 	0.45267 0.67953 0.34293 0.00300
H 	H 	0.44157 0.70033 0.35153 0.05400
C 	C 	0.49257 0.69683 0.31843 0.00600
C 	C 	0.50867 0.66563 0.30673 -0.00700
H 	H 	0.53617 0.67723 0.29013 0.06000
C 	C 	0.38377 0.61433 0.37813 0.44400
C 	C 	0.51547 0.74473 0.30333 0.00100
C 	C 	0.53217 0.78203 0.28703 -0.00700
C 	C 	0.55047 0.82243 0.26009 0.01700
C 	C 	0.54187 0.86003 0.26462 -0.01600
H 	H 	0.52577 0.86163 0.28793 0.06200
C 	C 	0.55627 0.89523 0.23589 -0.08900
C 	C 	0.58137 0.89404 0.20280 0.03600
H 	H 	0.59127 0.91823 0.18293 0.05500
C 	C 	0.59207 0.85783 0.19829 -0.08500
C 	C 	0.57597 0.82193 0.22673 -0.01900
H 	H 	0.58247 0.79653 0.22333 0.06100
C 	C 	0.54537 0.93493 0.24117 0.39000
C 	C 	0.62027 0.85583 0.16333 0.38000
Fe	Fe	0.13683 0.81397 0.63118 1.22900
O 	O 	0.20186 0.93440 0.61192 -0.37700
O 	O 	0.14641 0.87724 0.65026 -0.43100
O 	O 	0.03193 0.97177 0.71355 -0.43000
O 	O 	0.03653 0.90857 0.72997 -0.43400
H 	H 	0.01093 0.90077 0.74207 0.18000
O 	O 	0.19926 0.27276 0.60867 -0.43400
O 	O 	0.21598 0.29304 0.54424 -0.42500
O 	O 	0.29917 0.22072 0.47045 -0.38500
O 	O 	0.29634 0.15601 0.49687 -0.42900
C 	C 	0.16863 0.91877 0.63707 0.38900
C 	C 	0.15263 0.95247 0.65196 -0.10900
C 	C 	0.11253 0.93557 0.67657 0.05800
H 	H 	0.09683 0.90327 0.68537 0.04700
C 	C 	0.09543 0.96557 0.68847 -0.11000
C 	C 	0.11933 0.01287 0.67627 -0.00300
H 	H 	0.10823 0.03367 0.68487 0.05300
C 	C 	0.15923 0.03017 0.65177 -0.01600
C 	C 	0.17533 0.99897 0.64007 0.03300
H 	H 	0.20283 0.01057 0.62347 0.04000
C 	C 	0.05043 0.94767 0.71147 0.43800
C 	C 	0.18213 0.07807 0.63667 0.00800
C 	C 	0.19883 0.11537 0.62037 -0.01400
C 	C 	0.21713 0.15577 0.59343 0.01800
C 	C 	0.20853 0.19337 0.59796 -0.01700
H 	H 	0.19243 0.19497 0.62127 0.06200
C 	C 	0.22293 0.22857 0.56923 -0.09000
C 	C 	0.24803 0.22738 0.53614 0.03600
H 	H 	0.25793 0.25157 0.51627 0.05400
C 	C 	0.25873 0.19117 0.53163 -0.08600
C 	C 	0.24263 0.15527 0.56007 -0.02000
H 	H 	0.24913 0.12987 0.55667 0.06100
C 	C 	0.21203 0.26827 0.57451 0.39000
C 	C 	0.28693 0.18917 0.49667 0.38000
Fe	Fe	0.85270 0.65620 0.96451 1.22900
O 	O 	0.73227 0.60080 0.94525 -0.37700
O 	O 	0.78943 0.60251 0.98359 -0.43000
O 	O 	0.69490 0.39350 0.04688 -0.43400
O 	O 	0.75810 0.46130 0.06330 -0.44100
H 	H 	0.76590 0.44350 0.07540 0.19400
O 	O 	0.39391 0.25984 0.94200 -0.43400
O 	O 	0.37363 0.25628 0.87757 -0.42500
O 	O 	0.44595 0.41179 0.80378 -0.38500
O 	O 	0.51066 0.47367 0.83020 -0.42900
C 	C 	0.74790 0.58320 0.97040 0.38300
C 	C 	0.71420 0.53350 0.98529 -0.09500
C 	C 	0.73110 0.51030 0.00990 0.05300
H 	H 	0.76340 0.52690 0.01870 0.05000
C 	C 	0.70110 0.46320 0.02180 -0.11700
C 	C 	0.65380 0.43980 0.00960 0.00200
H 	H 	0.63300 0.40790 0.01820 0.05400
C 	C 	0.63650 0.46240 0.98510 0.00600
C 	C 	0.66770 0.50970 0.97340 -0.00700
H 	H 	0.65610 0.52560 0.95680 0.06000
C 	C 	0.71900 0.43610 0.04480 0.44400
C 	C 	0.58860 0.43740 0.97000 0.00100
C 	C 	0.55130 0.41680 0.95370 -0.00700
C 	C 	0.51090 0.39470 0.92676 0.01600
C 	C 	0.47330 0.34850 0.93129 -0.01500
H 	H 	0.47170 0.33080 0.95460 0.06200
C 	C 	0.43810 0.32770 0.90256 -0.09100
C 	C 	0.43929 0.35399 0.86947 0.03700
H 	H 	0.41510 0.33970 0.84960 0.05400
C 	C 	0.47550 0.40090 0.86496 -0.08600
C 	C 	0.51140 0.42070 0.89340 -0.01900
H 	H 	0.53680 0.45260 0.89000 0.06100
C 	C 	0.39840 0.27710 0.90784 0.39000
C 	C 	0.47750 0.43110 0.83000 0.38000
Fe	Fe	0.51937 0.98953 0.29784 1.23500
O 	O 	0.39894 0.93413 0.27858 -0.37300
O 	O 	0.45610 0.93584 0.31692 -0.42700
O 	O 	0.36157 0.72683 0.38021 -0.43400
O 	O 	0.42477 0.79463 0.39663 -0.44000
H 	H 	0.43257 0.77683 0.40873 0.19400
O 	O 	0.06058 0.59317 0.27533 -0.43600
O 	O 	0.04030 0.58961 0.21090 -0.42900
O 	O 	0.11262 0.74512 0.13711 -0.38600
O 	O 	0.17733 0.80700 0.16353 -0.42800
C 	C 	0.41457 0.91653 0.30373 0.38300
C 	C 	0.38087 0.86683 0.31862 -0.09400
C 	C 	0.39777 0.84363 0.34323 0.05200
H 	H 	0.43007 0.86023 0.35203 0.05000
C 	C 	0.36777 0.79653 0.35513 -0.11700
C 	C 	0.32047 0.77313 0.34293 0.00200
H 	H 	0.29967 0.74123 0.35153 0.05500
C 	C 	0.30317 0.79573 0.31843 0.00600
C 	C 	0.33437 0.84303 0.30673 -0.00800
H 	H 	0.32277 0.85893 0.29013 0.06100
C 	C 	0.38567 0.76943 0.37813 0.44400
C 	C 	0.25527 0.77073 0.30333 0.00000
C 	C 	0.21797 0.75013 0.28703 -0.00700
C 	C 	0.17757 0.72803 0.26009 0.01600
C 	C 	0.13997 0.68183 0.26462 -0.01500
H 	H 	0.13837 0.66413 0.28793 0.06100
C 	C 	0.10477 0.66103 0.23589 -0.09200
C 	C 	0.10596 0.68732 0.20280 0.03700
H 	H 	0.08177 0.67303 0.18293 0.05200
C 	C 	0.14217 0.73423 0.19829 -0.08700
C 	C 	0.17807 0.75403 0.22673 -0.01800
H 	H 	0.20347 0.78593 0.22333 0.06100
C 	C 	0.06507 0.61043 0.24117 0.39000
C 	C 	0.14417 0.76443 0.16333 0.38000
Fe	Fe	0.18603 0.32287 0.63118 1.22900
O 	O 	0.06560 0.26747 0.61192 -0.37800
O 	O 	0.12276 0.26918 0.65026 -0.42900
O 	O 	0.02823 0.06017 0.71355 -0.44100
O 	O 	0.09143 0.12797 0.72997 -0.44300
H 	H 	0.09923 0.11017 0.74207 0.19400
O 	O 	0.72724 0.92651 0.60867 -0.42900
O 	O 	0.70696 0.92295 0.54424 -0.41900
O 	O 	0.77928 0.07846 0.47045 -0.38400
O 	O 	0.84399 0.14034 0.49687 -0.42600
C 	C 	0.08123 0.24987 0.63707 0.37800
C 	C 	0.04753 0.20017 0.65196 -0.08400
C 	C 	0.06443 0.17697 0.67657 0.04900
H 	H 	0.09673 0.19357 0.68537 0.05000
C 	C 	0.03443 0.12987 0.68847 -0.12700
C 	C 	0.98713 0.10647 0.67627 0.01000
H 	H 	0.96633 0.07457 0.68487 0.05300
C 	C 	0.96983 0.12907 0.65177 0.02200
C 	C 	0.00103 0.17637 0.64007 -0.04400
H 	H 	0.98943 0.19227 0.62347 0.08000
C 	C 	0.05233 0.10277 0.71147 0.44600
C 	C 	0.92193 0.10407 0.63667 0.00100
C 	C 	0.88463 0.08347 0.62037 -0.01600
C 	C 	0.84423 0.06137 0.59343 0.04100
C 	C 	0.80663 0.01517 0.59796 -0.06900
H 	H 	0.80503 0.99747 0.62127 0.08600
C 	C 	0.77143 0.99437 0.56923 -0.04500
C 	C 	0.77262 0.02066 0.53614 0.00000
H 	H 	0.74843 0.00637 0.51627 0.06200
C 	C 	0.80883 0.06757 0.53163 -0.06700
C 	C 	0.84473 0.08737 0.56007 -0.04000
H 	H 	0.87013 0.11927 0.55667 0.06800
C 	C 	0.73173 0.94377 0.57451 0.37600
C 	C 	0.81083 0.09777 0.49667 0.37300
Fe	Fe	0.34380 0.19650 0.96451 1.22900
O 	O 	0.39920 0.13147 0.94525 -0.37800
O 	O 	0.39749 0.18692 0.98359 -0.43000
O 	O 	0.60650 0.30140 0.04688 -0.43400
O 	O 	0.53870 0.29680 0.06330 -0.44100
H 	H 	0.55650 0.32240 0.07540 0.19400
O 	O 	0.74016 0.13407 0.94200 -0.43500
O 	O 	0.74372 0.11735 0.87757 -0.42600
O 	O 	0.58821 0.03416 0.80378 -0.38700
O 	O 	0.52633 0.03699 0.83020 -0.43200
C 	C 	0.41680 0.16470 0.97040 0.38300
C 	C 	0.46650 0.18070 0.98529 -0.09600
C 	C 	0.48970 0.22080 0.00990 0.05300
H 	H 	0.47310 0.23650 0.01870 0.04900
C 	C 	0.53680 0.23790 0.02180 -0.11800
C 	C 	0.56020 0.21400 0.00960 0.00200
H 	H 	0.59210 0.22510 0.01820 0.05400
C 	C 	0.53760 0.17410 0.98510 0.00500
C 	C 	0.49030 0.15800 0.97340 -0.00700
H 	H 	0.47440 0.13050 0.95680 0.06000
C 	C 	0.56390 0.28290 0.04480 0.44400
C 	C 	0.56260 0.15120 0.97000 -0.00000
C 	C 	0.58320 0.13450 0.95370 -0.00800
C 	C 	0.60530 0.11620 0.92676 0.01500
C 	C 	0.65150 0.12480 0.93129 -0.01500
H 	H 	0.66920 0.14090 0.95460 0.06100
C 	C 	0.67230 0.11040 0.90256 -0.09200
C 	C 	0.64601 0.08530 0.86947 0.03700
H 	H 	0.66030 0.07540 0.84960 0.05300
C 	C 	0.59910 0.07460 0.86496 -0.08800
C 	C 	0.57930 0.09070 0.89340 -0.01800
H 	H 	0.54740 0.08420 0.89000 0.06000
C 	C 	0.72290 0.12130 0.90784 0.39000
C 	C 	0.56890 0.04640 0.83000 0.38000
Fe	Fe	0.01047 0.52983 0.29784 1.22400
O 	O 	0.06587 0.46480 0.27858 -0.37900
O 	O 	0.06416 0.52025 0.31692 -0.43200
O 	O 	0.27317 0.63473 0.38021 -0.43400
O 	O 	0.20537 0.63013 0.39663 -0.44200
H 	H 	0.22317 0.65573 0.40873 0.19400
O 	O 	0.40683 0.46740 0.27533 -0.43400
O 	O 	0.41039 0.45068 0.21090 -0.42500
O 	O 	0.25488 0.36749 0.13711 -0.38500
O 	O 	0.19300 0.37032 0.16353 -0.42900
C 	C 	0.08347 0.49803 0.30373 0.38300
C 	C 	0.13317 0.51403 0.31862 -0.09600
C 	C 	0.15637 0.55413 0.34323 0.05300
H 	H 	0.13977 0.56983 0.35203 0.04900
C 	C 	0.20347 0.57123 0.35513 -0.11800
C 	C 	0.22687 0.54733 0.34293 0.00300
H 	H 	0.25877 0.55843 0.35153 0.05400
C 	C 	0.20427 0.50743 0.31843 0.00500
C 	C 	0.15697 0.49133 0.30673 -0.00700
H 	H 	0.14107 0.46383 0.29013 0.06000
C 	C 	0.23057 0.61623 0.37813 0.44400
C 	C 	0.22927 0.48453 0.30333 0.00100
C 	C 	0.24987 0.46783 0.28703 -0.00800
C 	C 	0.27197 0.44953 0.26009 0.01600
C 	C 	0.31817 0.45813 0.26462 -0.01600
H 	H 	0.33587 0.47423 0.28793 0.06200
C 	C 	0.33897 0.44373 0.23589 -0.09100
C 	C 	0.31268 0.41863 0.20280 0.03700
H 	H 	0.32697 0.40873 0.18293 0.05400
C 	C 	0.26577 0.40793 0.19829 -0.08600
C 	C 	0.24597 0.42403 0.22673 -0.01900
H 	H 	0.21407 0.41753 0.22333 0.06100
C 	C 	0.38957 0.45463 0.24117 0.39000
C 	C 	0.23557 0.37973 0.16333 0.38000
Fe	Fe	0.67713 0.86317 0.63118 1.22900
O 	O 	0.73253 0.79814 0.61192 -0.37700
O 	O 	0.73082 0.85359 0.65026 -0.42900
O 	O 	0.93983 0.96807 0.71355 -0.42700
O 	O 	0.87203 0.96347 0.72997 -0.44600
H 	H 	0.88983 0.98907 0.74207 0.20800
O 	O 	0.07349 0.80074 0.60867 -0.43900
O 	O 	0.07705 0.78402 0.54424 -0.43100
O 	O 	0.92154 0.70083 0.47045 -0.38600
O 	O 	0.85966 0.70366 0.49687 -0.43000
C 	C 	0.75013 0.83137 0.63707 0.38300
C 	C 	0.79983 0.84737 0.65196 -0.09300
C 	C 	0.82303 0.88747 0.67657 0.05200
H 	H 	0.80643 0.90317 0.68537 0.05100
C 	C 	0.87013 0.90457 0.68847 -0.11400
C 	C 	0.89353 0.88067 0.67627 -0.00100
H 	H 	0.92543 0.89177 0.68487 0.05800
C 	C 	0.87093 0.84077 0.65177 0.01200
C 	C 	0.82363 0.82467 0.64007 -0.01000
H 	H 	0.80773 0.79717 0.62347 0.06200
C 	C 	0.89723 0.94957 0.71147 0.44500
C 	C 	0.89593 0.81787 0.63667 -0.00600
C 	C 	0.91653 0.80117 0.62037 0.00800
C 	C 	0.93863 0.78287 0.59343 -0.01100
C 	C 	0.98483 0.79147 0.59796 0.04000
H 	H 	0.00253 0.80757 0.62127 0.03800
C 	C 	0.00563 0.77707 0.56923 -0.13700
C 	C 	0.97934 0.75197 0.53614 0.07400
H 	H 	0.99363 0.74207 0.51627 0.04500
C 	C 	0.93243 0.74127 0.53163 -0.10600
C 	C 	0.91263 0.75737 0.56007 0.00400
H 	H 	0.88073 0.75087 0.55667 0.05400
C 	C 	0.05623 0.78797 0.57451 0.40500
C 	C 	0.90223 0.71307 0.49667 0.38800
Fe	Fe	0.14730 0.80350 0.53549 1.22900
O 	O 	0.26773 0.86853 0.55475 -0.37700
O 	O 	0.21057 0.81308 0.51641 -0.43000
O 	O 	0.30510 0.69860 0.45312 -0.43400
O 	O 	0.24190 0.70320 0.43670 -0.44100
H 	H 	0.23410 0.67760 0.42460 0.19400
O 	O 	0.60609 0.86593 0.55800 -0.43400
O 	O 	0.62637 0.88265 0.62243 -0.42400
O 	O 	0.55405 0.96584 0.69622 -0.38000
O 	O 	0.48934 0.96301 0.66980 -0.42400
C 	C 	0.25210 0.83530 0.52960 0.38300
C 	C 	0.28580 0.81930 0.51471 -0.09500
C 	C 	0.26890 0.77920 0.49010 0.05300
H 	H 	0.23660 0.76350 0.48130 0.04900
C 	C 	0.29890 0.76210 0.47820 -0.11700
C 	C 	0.34620 0.78600 0.49040 0.00300
H 	H 	0.36700 0.77490 0.48180 0.05500
C 	C 	0.36350 0.82590 0.51490 0.00600
C 	C 	0.33230 0.84200 0.52660 -0.00700
H 	H 	0.34390 0.86950 0.54320 0.06100
C 	C 	0.28100 0.71710 0.45520 0.44400
C 	C 	0.41140 0.84880 0.53000 0.00100
C 	C 	0.44870 0.86550 0.54630 -0.00700
C 	C 	0.48910 0.88380 0.57324 0.01700
C 	C 	0.52670 0.87520 0.56871 -0.01600
H 	H 	0.52830 0.85910 0.54540 0.06200
C 	C 	0.56190 0.88960 0.59744 -0.08900
C 	C 	0.56071 0.91470 0.63053 0.03600
H 	H 	0.58490 0.92460 0.65040 0.05500
C 	C 	0.52450 0.92540 0.63504 -0.08400
C 	C 	0.48860 0.90930 0.60660 -0.01900
H 	H 	0.46320 0.91580 0.61000 0.06200
C 	C 	0.60160 0.87870 0.59216 0.39000
C 	C 	0.52250 0.95360 0.67000 0.37900
Fe	Fe	0.81397 0.13683 0.86882 1.22900
O 	O 	0.93440 0.20186 0.88808 -0.37700
O 	O 	0.87724 0.14641 0.84974 -0.43100
O 	O 	0.97177 0.03193 0.78645 -0.43000
O 	O 	0.90857 0.03653 0.77003 -0.43400
H 	H 	0.90077 0.01093 0.75793 0.18000
O 	O 	0.27276 0.19926 0.89133 -0.43400
O 	O 	0.29304 0.21598 0.95576 -0.42500
O 	O 	0.22072 0.29917 0.02955 -0.38500
O 	O 	0.15601 0.29634 0.00313 -0.42900
C 	C 	0.91877 0.16863 0.86293 0.38900
C 	C 	0.95247 0.15263 0.84804 -0.10900
C 	C 	0.93557 0.11253 0.82343 0.05800
H 	H 	0.90327 0.09683 0.81463 0.04700
C 	C 	0.96557 0.09543 0.81153 -0.11000
C 	C 	0.01287 0.11933 0.82373 -0.00300
H 	H 	0.03367 0.10823 0.81513 0.05300
C 	C 	0.03017 0.15923 0.84823 -0.01600
C 	C 	0.99897 0.17533 0.85993 0.03300
H 	H 	0.01057 0.20283 0.87653 0.03900
C 	C 	0.94767 0.05043 0.78853 0.43800
C 	C 	0.07807 0.18213 0.86333 0.00800
C 	C 	0.11537 0.19883 0.87963 -0.01400
C 	C 	0.15577 0.21713 0.90657 0.01800
C 	C 	0.19337 0.20853 0.90204 -0.01700
H 	H 	0.19497 0.19243 0.87873 0.06200
C 	C 	0.22857 0.22293 0.93077 -0.09000
C 	C 	0.22738 0.24803 0.96386 0.03600
H 	H 	0.25157 0.25793 0.98373 0.05400
C 	C 	0.19117 0.25873 0.96837 -0.08600
C 	C 	0.15527 0.24263 0.93993 -0.02000
H 	H 	0.12987 0.24913 0.94333 0.06100
C 	C 	0.26827 0.21203 0.92549 0.39000
C 	C 	0.18917 0.28693 0.00333 0.38000
Fe	Fe	0.48063 0.47017 0.20216 1.22900
O 	O 	0.60106 0.53520 0.22142 -0.37700
O 	O 	0.54390 0.47975 0.18308 -0.43000
O 	O 	0.63843 0.36527 0.11979 -0.43400
O 	O 	0.57523 0.36987 0.10337 -0.44100
H 	H 	0.56743 0.34427 0.09127 0.19400
O 	O 	0.93942 0.53260 0.22467 -0.43200
O 	O 	0.95970 0.54932 0.28910 -0.42100
O 	O 	0.88738 0.63251 0.36289 -0.38400
O 	O 	0.82267 0.62968 0.33647 -0.42800
C 	C 	0.58543 0.50197 0.19627 0.38300
C 	C 	0.61913 0.48597 0.18138 -0.09500
C 	C 	0.60223 0.44587 0.15677 0.05300
H 	H 	0.56993 0.43017 0.14797 0.04900
C 	C 	0.63223 0.42877 0.14487 -0.11700
C 	C 	0.67953 0.45267 0.15707 0.00300
H 	H 	0.70033 0.44157 0.14847 0.05400
C 	C 	0.69683 0.49257 0.18157 0.00600
C 	C 	0.66563 0.50867 0.19327 -0.00700
H 	H 	0.67723 0.53617 0.20987 0.06000
C 	C 	0.61433 0.38377 0.12187 0.44400
C 	C 	0.74473 0.51547 0.19667 0.00100
C 	C 	0.78203 0.53217 0.21297 -0.00700
C 	C 	0.82243 0.55047 0.23991 0.01700
C 	C 	0.86003 0.54187 0.23538 -0.01600
H 	H 	0.86163 0.52577 0.21207 0.06200
C 	C 	0.89523 0.55627 0.26411 -0.08900
C 	C 	0.89404 0.58137 0.29720 0.03600
H 	H 	0.91823 0.59127 0.31707 0.05500
C 	C 	0.85783 0.59207 0.30171 -0.08500
C 	C 	0.82193 0.57597 0.27327 -0.01900
H 	H 	0.79653 0.58247 0.27667 0.06100
C 	C 	0.93493 0.54537 0.25883 0.39000
C 	C 	0.85583 0.62027 0.33667 0.38000
Fe	Fe	0.65620 0.85270 0.53549 1.22900
O 	O 	0.60080 0.73227 0.55475 -0.37700
O 	O 	0.60251 0.78943 0.51641 -0.43000
O 	O 	0.39350 0.69490 0.45312 -0.43400
O 	O 	0.46130 0.75810 0.43670 -0.44100
H 	H 	0.44350 0.76590 0.42460 0.19400
O 	O 	0.25984 0.39391 0.55800 -0.43400
O 	O 	0.25628 0.37363 0.62243 -0.42500
O 	O 	0.41179 0.44595 0.69622 -0.38500
O 	O 	0.47367 0.51066 0.66980 -0.42900
C 	C 	0.58320 0.74790 0.52960 0.38300
C 	C 	0.53350 0.71420 0.51471 -0.09500
C 	C 	0.51030 0.73110 0.49010 0.05300
H 	H 	0.52690 0.76340 0.48130 0.05000
C 	C 	0.46320 0.70110 0.47820 -0.11700
C 	C 	0.43980 0.65380 0.49040 0.00200
H 	H 	0.40790 0.63300 0.48180 0.05400
C 	C 	0.46240 0.63650 0.51490 0.00600
C 	C 	0.50970 0.66770 0.52660 -0.00700
H 	H 	0.52560 0.65610 0.54320 0.06000
C 	C 	0.43610 0.71900 0.45520 0.44400
C 	C 	0.43740 0.58860 0.53000 0.00100
C 	C 	0.41680 0.55130 0.54630 -0.00700
C 	C 	0.39470 0.51090 0.57324 0.01600
C 	C 	0.34850 0.47330 0.56871 -0.01600
H 	H 	0.33080 0.47170 0.54540 0.06200
C 	C 	0.32770 0.43810 0.59744 -0.09100
C 	C 	0.35399 0.43929 0.63053 0.03700
H 	H 	0.33970 0.41510 0.65040 0.05400
C 	C 	0.40090 0.47550 0.63504 -0.08600
C 	C 	0.42070 0.51140 0.60660 -0.01900
H 	H 	0.45260 0.53680 0.61000 0.06100
C 	C 	0.27710 0.39840 0.59216 0.39000
C 	C 	0.43110 0.47750 0.67000 0.38000
Fe	Fe	0.32287 0.18603 0.86882 1.22900
O 	O 	0.26747 0.06560 0.88808 -0.37800
O 	O 	0.26918 0.12276 0.84974 -0.42900
O 	O 	0.06017 0.02823 0.78645 -0.44100
O 	O 	0.12797 0.09143 0.77003 -0.44300
H 	H 	0.11017 0.09923 0.75793 0.19400
O 	O 	0.92651 0.72724 0.89133 -0.42900
O 	O 	0.92295 0.70696 0.95576 -0.41900
O 	O 	0.07846 0.77928 0.02955 -0.38400
O 	O 	0.14034 0.84399 0.00313 -0.42600
C 	C 	0.24987 0.08123 0.86293 0.37800
C 	C 	0.20017 0.04753 0.84804 -0.08400
C 	C 	0.17697 0.06443 0.82343 0.04900
H 	H 	0.19357 0.09673 0.81463 0.05000
C 	C 	0.12987 0.03443 0.81153 -0.12700
C 	C 	0.10647 0.98713 0.82373 0.01000
H 	H 	0.07457 0.96633 0.81513 0.05300
C 	C 	0.12907 0.96983 0.84823 0.02200
C 	C 	0.17637 0.00103 0.85993 -0.04400
H 	H 	0.19227 0.98943 0.87653 0.07900
C 	C 	0.10277 0.05233 0.78853 0.44600
C 	C 	0.10407 0.92193 0.86333 0.00100
C 	C 	0.08347 0.88463 0.87963 -0.01700
C 	C 	0.06137 0.84423 0.90657 0.04200
C 	C 	0.01517 0.80663 0.90204 -0.06900
H 	H 	0.99747 0.80503 0.87873 0.08600
C 	C 	0.99437 0.77143 0.93077 -0.04500
C 	C 	0.02066 0.77262 0.96386 0.00000
H 	H 	0.00637 0.74843 0.98373 0.06200
C 	C 	0.06757 0.80883 0.96837 -0.06700
C 	C 	0.08737 0.84473 0.93993 -0.04000
H 	H 	0.11927 0.87013 0.94333 0.06800
C 	C 	0.94377 0.73173 0.92549 0.37600
C 	C 	0.09777 0.81083 0.00333 0.37300
Fe	Fe	0.98953 0.51937 0.20216 1.23500
O 	O 	0.93413 0.39894 0.22142 -0.37300
O 	O 	0.93584 0.45610 0.18308 -0.42700
O 	O 	0.72683 0.36157 0.11979 -0.43400
O 	O 	0.79463 0.42477 0.10337 -0.44000
H 	H 	0.77683 0.43257 0.09127 0.19400
O 	O 	0.59317 0.06058 0.22467 -0.43600
O 	O 	0.58961 0.04030 0.28910 -0.42900
O 	O 	0.74512 0.11262 0.36289 -0.38600
O 	O 	0.80700 0.17733 0.33647 -0.42800
C 	C 	0.91653 0.41457 0.19627 0.38300
C 	C 	0.86683 0.38087 0.18138 -0.09400
C 	C 	0.84363 0.39777 0.15677 0.05200
H 	H 	0.86023 0.43007 0.14797 0.05000
C 	C 	0.79653 0.36777 0.14487 -0.11700
C 	C 	0.77313 0.32047 0.15707 0.00200
H 	H 	0.74123 0.29967 0.14847 0.05500
C 	C 	0.79573 0.30317 0.18157 0.00600
C 	C 	0.84303 0.33437 0.19327 -0.00800
H 	H 	0.85893 0.32277 0.20987 0.06100
C 	C 	0.76943 0.38567 0.12187 0.44400
C 	C 	0.77073 0.25527 0.19667 0.00000
C 	C 	0.75013 0.21797 0.21297 -0.00700
C 	C 	0.72803 0.17757 0.23991 0.01600
C 	C 	0.68183 0.13997 0.23538 -0.01500
H 	H 	0.66413 0.13837 0.21207 0.06100
C 	C 	0.66103 0.10477 0.26411 -0.09200
C 	C 	0.68732 0.10596 0.29720 0.03700
H 	H 	0.67303 0.08177 0.31707 0.05200
C 	C 	0.73423 0.14217 0.30171 -0.08700
C 	C 	0.75403 0.17807 0.27327 -0.01800
H 	H 	0.78593 0.20347 0.27667 0.06100
C 	C 	0.61043 0.06507 0.25883 0.39000
C 	C 	0.76443 0.14417 0.33667 0.38000
Fe	Fe	0.19650 0.34380 0.53549 1.22900
O 	O 	0.13147 0.39920 0.55475 -0.37800
O 	O 	0.18692 0.39749 0.51641 -0.43000
O 	O 	0.30140 0.60650 0.45312 -0.43400
O 	O 	0.29680 0.53870 0.43670 -0.44100
H 	H 	0.32240 0.55650 0.42460 0.19400
O 	O 	0.13407 0.74016 0.55800 -0.43500
O 	O 	0.11735 0.74372 0.62243 -0.42600
O 	O 	0.03416 0.58821 0.69622 -0.38700
O 	O 	0.03699 0.52633 0.66980 -0.43200
C 	C 	0.16470 0.41680 0.52960 0.38300
C 	C 	0.18070 0.46650 0.51471 -0.09600
C 	C 	0.22080 0.48970 0.49010 0.05300
H 	H 	0.23650 0.47310 0.48130 0.04900
C 	C 	0.23790 0.53680 0.47820 -0.11800
C 	C 	0.21400 0.56020 0.49040 0.00300
H 	H 	0.22510 0.59210 0.48180 0.05400
C 	C 	0.17410 0.53760 0.51490 0.00500
C 	C 	0.15800 0.49030 0.52660 -0.00700
H 	H 	0.13050 0.47440 0.54320 0.06000
C 	C 	0.28290 0.56390 0.45520 0.44400
C 	C 	0.15120 0.56260 0.53000 0.00000
C 	C 	0.13450 0.58320 0.54630 -0.00800
C 	C 	0.11620 0.60530 0.57324 0.01500
C 	C 	0.12480 0.65150 0.56871 -0.01500
H 	H 	0.14090 0.66920 0.54540 0.06100
C 	C 	0.11040 0.67230 0.59744 -0.09200
C 	C 	0.08530 0.64601 0.63053 0.03700
H 	H 	0.07540 0.66030 0.65040 0.05300
C 	C 	0.07460 0.59910 0.63504 -0.08800
C 	C 	0.09070 0.57930 0.60660 -0.01800
H 	H 	0.08420 0.54740 0.61000 0.06000
C 	C 	0.12130 0.72290 0.59216 0.39000
C 	C 	0.04640 0.56890 0.67000 0.38000
Fe	Fe	0.86317 0.67713 0.86882 1.22900
O 	O 	0.79814 0.73253 0.88808 -0.37700
O 	O 	0.85359 0.73082 0.84974 -0.42900
O 	O 	0.96807 0.93983 0.78645 -0.42700
O 	O 	0.96347 0.87203 0.77003 -0.44600
H 	H 	0.98907 0.88983 0.75793 0.20800
O 	O 	0.80074 0.07349 0.89133 -0.43900
O 	O 	0.78402 0.07705 0.95576 -0.43100
O 	O 	0.70083 0.92154 0.02955 -0.38600
O 	O 	0.70366 0.85966 0.00313 -0.43000
C 	C 	0.83137 0.75013 0.86293 0.38300
C 	C 	0.84737 0.79983 0.84804 -0.09300
C 	C 	0.88747 0.82303 0.82343 0.05200
H 	H 	0.90317 0.80643 0.81463 0.05100
C 	C 	0.90457 0.87013 0.81153 -0.11400
C 	C 	0.88067 0.89353 0.82373 -0.00100
H 	H 	0.89177 0.92543 0.81513 0.05800
C 	C 	0.84077 0.87093 0.84823 0.01200
C 	C 	0.82467 0.82363 0.85993 -0.01000
H 	H 	0.79717 0.80773 0.87653 0.06200
C 	C 	0.94957 0.89723 0.78853 0.44500
C 	C 	0.81787 0.89593 0.86333 -0.00600
C 	C 	0.80117 0.91653 0.87963 0.00800
C 	C 	0.78287 0.93863 0.90657 -0.01100
C 	C 	0.79147 0.98483 0.90204 0.03900
H 	H 	0.80757 0.00253 0.87873 0.03800
C 	C 	0.77707 0.00563 0.93077 -0.13600
C 	C 	0.75197 0.97934 0.96386 0.07300
H 	H 	0.74207 0.99363 0.98373 0.04500
C 	C 	0.74127 0.93243 0.96837 -0.10600
C 	C 	0.75737 0.91263 0.93993 0.00400
H 	H 	0.75087 0.88073 0.94333 0.05400
C 	C 	0.78797 0.05623 0.92549 0.40400
C 	C 	0.71307 0.90223 0.00333 0.38800
Fe	Fe	0.52983 0.01047 0.20216 1.22400
O 	O 	0.46480 0.06587 0.22142 -0.37900
O 	O 	0.52025 0.06416 0.18308 -0.43200
O 	O 	0.63473 0.27317 0.11979 -0.43400
O 	O 	0.63013 0.20537 0.10337 -0.44200
H 	H 	0.65573 0.22317 0.09127 0.19400
O 	O 	0.46740 0.40683 0.22467 -0.43400
O 	O 	0.45068 0.41039 0.28910 -0.42500
O 	O 	0.36749 0.25488 0.36289 -0.38500
O 	O 	0.37032 0.19300 0.33647 -0.42900
C 	C 	0.49803 0.08347 0.19627 0.38300
C 	C 	0.51403 0.13317 0.18138 -0.09600
C 	C 	0.55413 0.15637 0.15677 0.05300
H 	H 	0.56983 0.13977 0.14797 0.04900
C 	C 	0.57123 0.20347 0.14487 -0.11800
C 	C 	0.54733 0.22687 0.15707 0.00300
H 	H 	0.55843 0.25877 0.14847 0.05400
C 	C 	0.50743 0.20427 0.18157 0.00500
C 	C 	0.49133 0.15697 0.19327 -0.00700
H 	H 	0.46383 0.14107 0.20987 0.06000
C 	C 	0.61623 0.23057 0.12187 0.44400
C 	C 	0.48453 0.22927 0.19667 0.00100
C 	C 	0.46783 0.24987 0.21297 -0.00800
C 	C 	0.44953 0.27197 0.23991 0.01600
C 	C 	0.45813 0.31817 0.23538 -0.01600
H 	H 	0.47423 0.33587 0.21207 0.06200
C 	C 	0.44373 0.33897 0.26411 -0.09100
C 	C 	0.41863 0.31268 0.29720 0.03700
H 	H 	0.40873 0.32697 0.31707 0.05400
C 	C 	0.40793 0.26577 0.30171 -0.08600
C 	C 	0.42403 0.24597 0.27327 -0.01900
H 	H 	0.41753 0.21407 0.27667 0.06100
C 	C 	0.45463 0.38957 0.25883 0.39000
C 	C 	0.37973 0.23557 0.33667 0.38000
Fe	Fe	0.10337 0.77003 0.08333 0.62300
O 	O 	0.03583 0.70249 0.08333 -0.20900
O 	O 	0.16238 0.82904 0.08333 -0.64000
Ni	Ni	0.10017 0.76683 0.08333 0.44200
Fe	Fe	0.22997 0.33333 0.08333 0.62300
O 	O 	0.29751 0.33333 0.08333 -0.20600
O 	O 	0.17096 0.33333 0.08333 -0.64000
Ni	Ni	0.23317 0.33333 0.08333 0.44200
Fe	Fe	0.66667 0.89663 0.08333 0.62300
O 	O 	0.66667 0.96417 0.08333 -0.20200
O 	O 	0.66667 0.83762 0.08333 -0.64000
Ni	Ni	0.66667 0.89983 0.08333 0.44200
Fe	Fe	0.77003 0.10337 0.41667 0.62300
O 	O 	0.70249 0.03583 0.41667 -0.20900
O 	O 	0.82904 0.16238 0.41667 -0.64000
Ni	Ni	0.76683 0.10017 0.41667 0.44200
Fe	Fe	0.43670 0.43670 0.75000 0.62300
O 	O 	0.36916 0.36916 0.75000 -0.20600
O 	O 	0.49571 0.49571 0.75000 -0.64000
Ni	Ni	0.43350 0.43350 0.75000 0.44200
Fe	Fe	0.33333 0.22997 0.41667 0.62300
O 	O 	0.33333 0.29751 0.41667 -0.20600
O 	O 	0.33333 0.17096 0.41667 -0.64000
Ni	Ni	0.33333 0.23317 0.41667 0.44200
Fe	Fe	0.00000 0.56330 0.75000 0.62200
O 	O 	0.00000 0.63084 0.75000 -0.21100
O 	O 	-0.00000 0.50429 0.75000 -0.64600
Ni	Ni	0.00000 0.56650 0.75000 0.44000
Fe	Fe	0.89663 0.66667 0.41667 0.62300
O 	O 	0.96417 0.66667 0.41667 -0.20200
O 	O 	0.83762 0.66667 0.41667 -0.64000
Ni	Ni	0.89983 0.66667 0.41667 0.44200
Fe	Fe	0.56330 0.00000 0.75000 0.62200
O 	O 	0.63084 0.00000 0.75000 -0.21000
O 	O 	0.50429 0.00000 0.75000 -0.64600
Ni	Ni	0.56650 0.00000 0.75000 0.44000
Fe	Fe	0.89663 0.22997 0.91667 0.62300
O 	O 	0.96417 0.29751 0.91667 -0.20200
O 	O 	0.83762 0.17096 0.91667 -0.64000
Ni	Ni	0.89983 0.23317 0.91667 0.44200
Fe	Fe	0.56330 0.56330 0.25000 0.62300
O 	O 	0.63084 0.63084 0.25000 -0.20500
O 	O 	0.50429 0.50429 0.25000 -0.64000
Ni	Ni	0.56650 0.56650 0.25000 0.44200
Fe	Fe	0.77003 0.66667 0.91667 0.62300
O 	O 	0.70249 0.66667 0.91667 -0.20500
O 	O 	0.82904 0.66667 0.91667 -0.64000
Ni	Ni	0.76683 0.66667 0.91667 0.44200
Fe	Fe	0.43670 0.00000 0.25000 0.62200
O 	O 	0.36916 0.00000 0.25000 -0.21100
O 	O 	0.49571 0.00000 0.25000 -0.64600
Ni	Ni	0.43350 0.00000 0.25000 0.44000
Fe	Fe	0.33333 0.10337 0.91667 0.62300
O 	O 	0.33333 0.03583 0.91667 -0.20900
O 	O 	0.33333 0.16238 0.91667 -0.64000
Ni	Ni	0.33333 0.10017 0.91667 0.44200
Fe	Fe	-0.00000 0.43670 0.25000 0.62200
O 	O 	0.00000 0.36916 0.25000 -0.21100
O 	O 	-0.00000 0.49571 0.25000 -0.64600
Ni	Ni	-0.00000 0.43350 0.25000 0.44000
Fe	Fe	0.22997 0.89663 0.58333 0.62300
O 	O 	0.29751 0.96417 0.58333 -0.20200
O 	O 	0.17096 0.83762 0.58333 -0.64000
Ni	Ni	0.23317 0.89983 0.58333 0.44200
Fe	Fe	0.66667 0.77003 0.58333 0.62300
O 	O 	0.66667 0.70249 0.58333 -0.20500
O 	O 	0.66667 0.82904 0.58333 -0.64000
Ni	Ni	0.66667 0.76683 0.58333 0.44200
Fe	Fe	0.10337 0.33333 0.58333 0.62300
O 	O 	0.03583 0.33333 0.58333 -0.20900
O 	O 	0.16238 0.33333 0.58333 -0.64000
Ni	Ni	0.10017 0.33333 0.58333 0.44200
Fe	Fe	0.33333 0.66667 0.91667 1.25500
Fe	Fe	0.00000 0.00000 0.25000 1.24400
Fe	Fe	0.66667 0.33333 0.58333 1.25500
Fe	Fe	0.66667 0.33333 0.08333 1.25500
Fe	Fe	-0.00000 0.00000 0.75000 1.24400
Fe	Fe	0.33333 0.66667 0.41667 1.25500
