data_crystal

_cell_length_a 27.00500
_cell_length_b 18.56400
_cell_length_c 36.38900
_cell_angle_alpha 90.00000
_cell_angle_beta  98.84800
_cell_angle_gamma 90.00000

_symmetry_space_group_name_	'P 1'
_symmetry_space_group_name_H-M	'P 1'

loop_
_symmetry_equiv_pos_as_xyz
  x,y,z

loop_
_atom_site_label
_atom_site_type_symbol
_atom_site_fract_x
_atom_site_fract_y
_atom_site_fract_z
_atom_site_charge
Fe	Fe	0.23886 0.09177 0.20150 1.22100
Fe	Fe	0.29651 0.14902 0.13329 1.21900
Fe	Fe	0.19052 0.22390 0.14685 1.22600
O 	O 	0.31175 0.10645 0.22492 -0.45300
O 	O 	0.34884 0.15148 0.17945 -0.44900
O 	O 	0.69497 0.75712 0.37106 -0.44500
O 	O 	0.76343 0.80742 0.35516 -0.45000
O 	O 	0.69661 0.53890 0.36717 -0.44700
O 	O 	0.74107 0.50245 0.32468 -0.45800
O 	O 	0.16591 0.06360 0.18470 -0.44300
O 	O 	0.13409 0.15207 0.14703 -0.44500
O 	O 	0.81642 0.75488 0.30075 -0.43900
O 	O 	0.78198 0.66665 0.26399 -0.45100
O 	O 	0.81395 0.79366 0.90824 -0.44800
O 	O 	0.74736 0.85702 0.91760 -0.43500
O 	O 	0.24164 0.15525 0.16039 -0.66100
N 	N 	0.53913 0.27700 0.30815 -0.28700
H 	H 	0.55390 0.31860 0.31420 0.13900
H 	H 	0.50800 0.27610 0.29660 0.13900
N 	N 	0.94854 0.94970 0.05866 -0.28300
H 	H 	0.97660 0.97430 0.06380 0.13600
H 	H 	0.93470 0.94340 0.03540 0.13700
C 	C 	0.34819 0.12996 0.21219 0.42300
C 	C 	0.39689 0.13548 0.23797 -0.16400
C 	C 	0.40347 0.10541 0.27215 0.09000
H 	H 	0.37630 0.08120 0.28060 0.01200
C 	C 	0.45000 0.10950 0.29538 -0.16200
H 	H 	0.45380 0.08770 0.31930 0.08400
C 	C 	0.48978 0.14385 0.28454 0.11200
C 	C 	0.48259 0.17670 0.25029 -0.16000
H 	H 	0.50930 0.20320 0.24260 0.08300
C 	C 	0.43665 0.17190 0.22655 0.08200
H 	H 	0.43280 0.19350 0.20260 0.01500
C 	C 	0.54131 0.14574 0.30764 -0.07700
C 	C 	0.56601 0.08175 0.31746 -0.02100
H 	H 	0.54960 0.03710 0.31140 0.03800
C 	C 	0.61551 0.08256 0.33650 -0.03400
C 	C 	0.63845 0.14953 0.34475 -0.01200
H 	H 	0.67190 0.15080 0.35750 0.03400
C 	C 	0.61455 0.21278 0.33509 -0.09500
C 	C 	0.56558 0.21156 0.31696 0.11400
C 	C 	0.64163 0.01380 0.34538 0.08400
C 	C 	0.61776 0.95240 0.35510 -0.14000
H 	H 	0.58320 0.95480 0.35740 0.07600
C 	C 	0.64278 0.88769 0.36152 0.07400
H 	H 	0.62530 0.84720 0.36910 0.01700
C 	C 	0.69184 0.88030 0.35728 -0.14600
C 	C 	0.71690 0.94180 0.34812 0.06500
H 	H 	0.75140 0.93910 0.34570 0.02200
C 	C 	0.69162 0.00730 0.34245 -0.13400
H 	H 	0.70940 0.04870 0.33640 0.07500
C 	C 	0.71947 0.80960 0.36154 0.41200
C 	C 	0.64112 0.28367 0.34192 0.15500
C 	C 	0.68088 0.29786 0.32459 -0.20100
H 	H 	0.69330 0.26100 0.31030 0.09800
C 	C 	0.70435 0.36557 0.32710 0.13300
H 	H 	0.73160 0.37370 0.31400 -0.00200
C 	C 	0.68938 0.41892 0.34743 -0.21600
C 	C 	0.65168 0.40227 0.36650 0.14000
H 	H 	0.64120 0.43730 0.38270 -0.00600
C 	C 	0.62783 0.33640 0.36331 -0.21600
H 	H 	0.60090 0.32830 0.37680 0.10100
C 	C 	0.71057 0.49194 0.34626 0.44500
C 	C 	0.13143 0.09230 0.16265 0.41600
C 	C 	0.08397 0.05110 0.15306 -0.16400
C 	C 	0.04479 0.07980 0.12974 0.08700
H 	H 	0.04720 0.12700 0.12010 0.01200
C 	C 	0.00118 0.04000 0.11994 -0.15900
H 	H 	0.97460 0.05980 0.10280 0.08100
C 	C 	0.99564 0.97220 0.13453 0.10600
C 	C 	0.03575 0.94400 0.15867 -0.15500
H 	H 	0.03330 0.89730 0.16890 0.08300
C 	C 	0.07965 0.98400 0.16789 0.08400
H 	H 	0.10680 0.96450 0.18460 0.01600
C 	C 	0.94769 0.93034 0.12512 -0.07200
C 	C 	0.92589 0.89898 0.15298 -0.02100
H 	H 	0.94200 0.90500 0.17790 0.03800
C 	C 	0.88191 0.85910 0.14703 -0.03600
C 	C 	0.86004 0.85004 0.10959 -0.02000
H 	H 	0.82980 0.82330 0.10420 0.03800
C 	C 	0.88129 0.87898 0.08020 -0.08000
C 	C 	0.92493 0.91950 0.08871 0.10300
C 	C 	0.86073 0.82520 0.17742 0.09700
C 	C 	0.83834 0.76060 0.17445 -0.15200
H 	H 	0.83540 0.73610 0.15130 0.08100
C 	C 	0.81921 0.72790 0.20362 0.08100
H 	H 	0.80330 0.68220 0.20010 0.01400
C 	C 	0.82332 0.76190 0.23767 -0.16100
C 	C 	0.84533 0.82700 0.24121 0.08800
H 	H 	0.84890 0.85110 0.26450 0.01400
C 	C 	0.86289 0.85970 0.21141 -0.15000
H 	H 	0.87670 0.90680 0.21440 0.08100
C 	C 	0.80587 0.72370 0.26958 0.41400
C 	C 	0.85747 0.86655 0.04100 0.12700
C 	C 	0.88135 0.83100 0.01636 -0.18300
H 	H 	0.91430 0.81370 0.02460 0.09100
C 	C 	0.86054 0.81865 0.98005 0.10800
H 	H 	0.87900 0.79380 0.96380 0.00500
C 	C 	0.81281 0.84247 0.96751 -0.18400
C 	C 	0.78811 0.87952 0.99138 0.10500
H 	H 	0.75540 0.89760 0.98290 0.00900
C 	C 	0.81019 0.89132 0.02806 -0.17500
H 	H 	0.79220 0.91690 0.04440 0.09000
C 	C 	0.79007 0.82976 0.92876 0.41800
Fe	Fe	0.76114 0.59177 0.29850 1.22200
Fe	Fe	0.70349 0.64902 0.36671 1.22000
Fe	Fe	0.80948 0.72390 0.35315 1.22700
O 	O 	0.68825 0.60645 0.27508 -0.45200
O 	O 	0.65116 0.65148 0.32055 -0.44800
O 	O 	0.30503 0.25712 0.12894 -0.44400
O 	O 	0.23657 0.30742 0.14484 -0.44900
O 	O 	0.30339 0.03890 0.13283 -0.44500
O 	O 	0.25893 0.00245 0.17532 -0.45600
O 	O 	0.83409 0.56360 0.31530 -0.44200
O 	O 	0.86591 0.65207 0.35297 -0.44500
O 	O 	0.18358 0.25488 0.19925 -0.43900
O 	O 	0.21802 0.16665 0.23601 -0.45100
O 	O 	0.18605 0.29366 0.59176 -0.44800
O 	O 	0.25264 0.35702 0.58240 -0.43500
O 	O 	0.75836 0.65525 0.33961 -0.66100
N 	N 	0.46087 0.77700 0.19185 -0.28700
H 	H 	0.44610 0.81860 0.18580 0.13900
H 	H 	0.49200 0.77610 0.20340 0.13900
N 	N 	0.05146 0.44970 0.44134 -0.28300
H 	H 	0.02340 0.47430 0.43620 0.13600
H 	H 	0.06530 0.44340 0.46460 0.13700
C 	C 	0.65181 0.62996 0.28781 0.42300
C 	C 	0.60311 0.63548 0.26203 -0.16400
C 	C 	0.59653 0.60541 0.22785 0.08900
H 	H 	0.62370 0.58120 0.21940 0.01200
C 	C 	0.55000 0.60950 0.20462 -0.16200
H 	H 	0.54620 0.58770 0.18070 0.08400
C 	C 	0.51022 0.64385 0.21546 0.11200
C 	C 	0.51741 0.67670 0.24971 -0.16000
H 	H 	0.49070 0.70320 0.25740 0.08300
C 	C 	0.56335 0.67190 0.27345 0.08200
H 	H 	0.56720 0.69350 0.29740 0.01500
C 	C 	0.45869 0.64574 0.19236 -0.07700
C 	C 	0.43399 0.58175 0.18254 -0.02100
H 	H 	0.45040 0.53710 0.18860 0.03800
C 	C 	0.38449 0.58256 0.16350 -0.03400
C 	C 	0.36155 0.64953 0.15525 -0.01200
H 	H 	0.32810 0.65080 0.14250 0.03400
C 	C 	0.38545 0.71278 0.16491 -0.09500
C 	C 	0.43442 0.71156 0.18304 0.11400
C 	C 	0.35837 0.51380 0.15462 0.08400
C 	C 	0.38224 0.45240 0.14490 -0.14000
H 	H 	0.41680 0.45480 0.14260 0.07600
C 	C 	0.35722 0.38769 0.13848 0.07400
H 	H 	0.37470 0.34720 0.13090 0.01700
C 	C 	0.30816 0.38030 0.14272 -0.14600
C 	C 	0.28310 0.44180 0.15188 0.06500
H 	H 	0.24860 0.43910 0.15430 0.02200
C 	C 	0.30838 0.50730 0.15755 -0.13400
H 	H 	0.29060 0.54870 0.16360 0.07500
C 	C 	0.28053 0.30960 0.13846 0.41200
C 	C 	0.35888 0.78367 0.15808 0.15400
C 	C 	0.31912 0.79786 0.17541 -0.20100
H 	H 	0.30670 0.76100 0.18970 0.09700
C 	C 	0.29565 0.86557 0.17290 0.13200
H 	H 	0.26840 0.87370 0.18600 -0.00200
C 	C 	0.31062 0.91892 0.15257 -0.21600
C 	C 	0.34832 0.90227 0.13350 0.14000
H 	H 	0.35880 0.93730 0.11730 -0.00600
C 	C 	0.37217 0.83640 0.13669 -0.21600
H 	H 	0.39910 0.82830 0.12320 0.10100
C 	C 	0.28943 0.99194 0.15374 0.44400
C 	C 	0.86857 0.59230 0.33735 0.41600
C 	C 	0.91603 0.55110 0.34694 -0.16600
C 	C 	0.95521 0.57980 0.37026 0.08800
H 	H 	0.95280 0.62700 0.37990 0.01200
C 	C 	0.99882 0.54000 0.38006 -0.16100
H 	H 	0.02540 0.55980 0.39720 0.08200
C 	C 	0.00436 0.47220 0.36547 0.10600
C 	C 	0.96425 0.44400 0.34133 -0.15500
H 	H 	0.96670 0.39730 0.33110 0.08300
C 	C 	0.92035 0.48400 0.33211 0.08500
H 	H 	0.89320 0.46450 0.31540 0.01500
C 	C 	0.05231 0.43034 0.37488 -0.07200
C 	C 	0.07411 0.39898 0.34702 -0.02100
H 	H 	0.05800 0.40500 0.32210 0.03800
C 	C 	0.11809 0.35910 0.35297 -0.03600
C 	C 	0.13996 0.35004 0.39041 -0.02000
H 	H 	0.17020 0.32330 0.39580 0.03800
C 	C 	0.11871 0.37898 0.41980 -0.08000
C 	C 	0.07507 0.41950 0.41129 0.10300
C 	C 	0.13927 0.32520 0.32258 0.09700
C 	C 	0.16166 0.26060 0.32555 -0.15200
H 	H 	0.16460 0.23610 0.34870 0.08100
C 	C 	0.18079 0.22790 0.29638 0.08100
H 	H 	0.19670 0.18220 0.29990 0.01400
C 	C 	0.17668 0.26190 0.26233 -0.16100
C 	C 	0.15467 0.32700 0.25879 0.08800
H 	H 	0.15110 0.35110 0.23550 0.01400
C 	C 	0.13711 0.35970 0.28859 -0.15000
H 	H 	0.12330 0.40680 0.28560 0.08100
C 	C 	0.19413 0.22370 0.23042 0.41400
C 	C 	0.14253 0.36655 0.45900 0.12700
C 	C 	0.11865 0.33100 0.48364 -0.18300
H 	H 	0.08570 0.31370 0.47540 0.09000
C 	C 	0.13946 0.31865 0.51995 0.10700
H 	H 	0.12100 0.29380 0.53620 0.00500
C 	C 	0.18719 0.34247 0.53249 -0.18300
C 	C 	0.21189 0.37952 0.50862 0.10400
H 	H 	0.24460 0.39760 0.51710 0.00900
C 	C 	0.18981 0.39132 0.47194 -0.17500
H 	H 	0.20780 0.41690 0.45560 0.09000
C 	C 	0.20993 0.32976 0.57124 0.41800
Fe	Fe	0.76114 0.90823 0.79850 1.22200
Fe	Fe	0.70349 0.85098 0.86671 1.22000
Fe	Fe	0.80948 0.77610 0.85315 1.22700
O 	O 	0.68825 0.89355 0.77508 -0.45200
O 	O 	0.65116 0.84852 0.82055 -0.44800
O 	O 	0.30503 0.24288 0.62894 -0.44400
O 	O 	0.23657 0.19258 0.64484 -0.44900
O 	O 	0.30339 0.46110 0.63283 -0.44600
O 	O 	0.25893 0.49755 0.67532 -0.45700
O 	O 	0.83409 0.93640 0.81530 -0.44200
O 	O 	0.86591 0.84793 0.85297 -0.44500
O 	O 	0.18358 0.24512 0.69925 -0.43900
O 	O 	0.21802 0.33335 0.73601 -0.45100
O 	O 	0.18605 0.20634 0.09176 -0.44800
O 	O 	0.25264 0.14298 0.08240 -0.43500
O 	O 	0.75836 0.84475 0.83961 -0.66100
N 	N 	0.46087 0.72300 0.69185 -0.28700
H 	H 	0.44610 0.68140 0.68580 0.13900
H 	H 	0.49200 0.72390 0.70340 0.13900
N 	N 	0.05146 0.05030 0.94134 -0.28300
H 	H 	0.02340 0.02570 0.93620 0.13600
H 	H 	0.06530 0.05660 0.96460 0.13700
C 	C 	0.65181 0.87004 0.78781 0.42300
C 	C 	0.60311 0.86452 0.76203 -0.16400
C 	C 	0.59653 0.89459 0.72785 0.09000
H 	H 	0.62370 0.91880 0.71940 0.01200
C 	C 	0.55000 0.89050 0.70462 -0.16200
H 	H 	0.54620 0.91230 0.68070 0.08400
C 	C 	0.51022 0.85615 0.71546 0.11200
C 	C 	0.51741 0.82330 0.74971 -0.16000
H 	H 	0.49070 0.79680 0.75740 0.08300
C 	C 	0.56335 0.82810 0.77345 0.08200
H 	H 	0.56720 0.80650 0.79740 0.01500
C 	C 	0.45869 0.85426 0.69236 -0.07700
C 	C 	0.43399 0.91825 0.68254 -0.02100
H 	H 	0.45040 0.96290 0.68860 0.03800
C 	C 	0.38449 0.91744 0.66350 -0.03400
C 	C 	0.36155 0.85047 0.65525 -0.01200
H 	H 	0.32810 0.84920 0.64250 0.03400
C 	C 	0.38545 0.78722 0.66491 -0.09500
C 	C 	0.43442 0.78844 0.68304 0.11400
C 	C 	0.35837 0.98620 0.65462 0.08400
C 	C 	0.38224 0.04760 0.64490 -0.14000
H 	H 	0.41680 0.04520 0.64260 0.07600
C 	C 	0.35722 0.11231 0.63848 0.07400
H 	H 	0.37470 0.15280 0.63090 0.01700
C 	C 	0.30816 0.11970 0.64272 -0.14600
C 	C 	0.28310 0.05820 0.65188 0.06500
H 	H 	0.24860 0.06090 0.65430 0.02200
C 	C 	0.30838 0.99270 0.65755 -0.13400
H 	H 	0.29060 0.95130 0.66360 0.07500
C 	C 	0.28053 0.19040 0.63846 0.41200
C 	C 	0.35888 0.71633 0.65808 0.15500
C 	C 	0.31912 0.70214 0.67541 -0.20100
H 	H 	0.30670 0.73900 0.68970 0.09800
C 	C 	0.29565 0.63443 0.67290 0.13300
H 	H 	0.26840 0.62630 0.68600 -0.00200
C 	C 	0.31062 0.58108 0.65257 -0.21600
C 	C 	0.34832 0.59773 0.63350 0.14000
H 	H 	0.35880 0.56270 0.61730 -0.00600
C 	C 	0.37217 0.66360 0.63669 -0.21600
H 	H 	0.39910 0.67170 0.62320 0.10100
C 	C 	0.28943 0.50806 0.65374 0.44500
C 	C 	0.86857 0.90770 0.83735 0.41600
C 	C 	0.91603 0.94890 0.84694 -0.16400
C 	C 	0.95521 0.92020 0.87026 0.08700
H 	H 	0.95280 0.87300 0.87990 0.01200
C 	C 	0.99882 0.96000 0.88006 -0.15900
H 	H 	0.02540 0.94020 0.89720 0.08100
C 	C 	0.00436 0.02780 0.86547 0.10600
C 	C 	0.96425 0.05600 0.84133 -0.15500
H 	H 	0.96670 0.10270 0.83110 0.08300
C 	C 	0.92035 0.01600 0.83211 0.08400
H 	H 	0.89320 0.03550 0.81540 0.01600
C 	C 	0.05231 0.06966 0.87488 -0.07200
C 	C 	0.07411 0.10102 0.84702 -0.02100
H 	H 	0.05800 0.09500 0.82210 0.03800
C 	C 	0.11809 0.14090 0.85297 -0.03600
C 	C 	0.13996 0.14996 0.89041 -0.02000
H 	H 	0.17020 0.17670 0.89580 0.03800
C 	C 	0.11871 0.12102 0.91980 -0.08000
C 	C 	0.07507 0.08050 0.91129 0.10300
C 	C 	0.13927 0.17480 0.82258 0.09700
C 	C 	0.16166 0.23940 0.82555 -0.15200
H 	H 	0.16460 0.26390 0.84870 0.08100
C 	C 	0.18079 0.27210 0.79638 0.08100
H 	H 	0.19670 0.31780 0.79990 0.01400
C 	C 	0.17668 0.23810 0.76233 -0.16100
C 	C 	0.15467 0.17300 0.75879 0.08800
H 	H 	0.15110 0.14890 0.73550 0.01400
C 	C 	0.13711 0.14030 0.78859 -0.15000
H 	H 	0.12330 0.09320 0.78560 0.08100
C 	C 	0.19413 0.27630 0.73042 0.41400
C 	C 	0.14253 0.13345 0.95900 0.12700
C 	C 	0.11865 0.16900 0.98364 -0.18300
H 	H 	0.08570 0.18630 0.97540 0.09100
C 	C 	0.13946 0.18135 0.01995 0.10800
H 	H 	0.12100 0.20620 0.03620 0.00500
C 	C 	0.18719 0.15753 0.03249 -0.18400
C 	C 	0.21189 0.12048 0.00862 0.10500
H 	H 	0.24460 0.10240 0.01710 0.00900
C 	C 	0.18981 0.10868 0.97194 -0.17500
H 	H 	0.20780 0.08310 0.95560 0.09000
C 	C 	0.20993 0.17024 0.07124 0.41800
Fe	Fe	0.23886 0.40823 0.70150 1.22200
Fe	Fe	0.29651 0.35098 0.63329 1.22000
Fe	Fe	0.19052 0.27610 0.64685 1.22700
O 	O 	0.31175 0.39355 0.72492 -0.45200
O 	O 	0.34884 0.34852 0.67945 -0.44800
O 	O 	0.69497 0.74288 0.87106 -0.44400
O 	O 	0.76343 0.69258 0.85516 -0.44900
O 	O 	0.69661 0.96110 0.86717 -0.44500
O 	O 	0.74107 0.99755 0.82468 -0.45600
O 	O 	0.16591 0.43640 0.68470 -0.44200
O 	O 	0.13409 0.34793 0.64703 -0.44500
O 	O 	0.81642 0.74512 0.80075 -0.43900
O 	O 	0.78198 0.83335 0.76399 -0.45100
O 	O 	0.81395 0.70634 0.40824 -0.44800
O 	O 	0.74736 0.64298 0.41760 -0.43500
O 	O 	0.24164 0.34475 0.66039 -0.66100
N 	N 	0.53913 0.22300 0.80815 -0.28700
H 	H 	0.55390 0.18140 0.81420 0.13900
H 	H 	0.50800 0.22390 0.79660 0.13900
N 	N 	0.94854 0.55030 0.55866 -0.28300
H 	H 	0.97660 0.52570 0.56380 0.13600
H 	H 	0.93470 0.55660 0.53540 0.13700
C 	C 	0.34819 0.37004 0.71219 0.42300
C 	C 	0.39689 0.36452 0.73797 -0.16400
C 	C 	0.40347 0.39459 0.77215 0.08900
H 	H 	0.37630 0.41880 0.78060 0.01200
C 	C 	0.45000 0.39050 0.79538 -0.16200
H 	H 	0.45380 0.41230 0.81930 0.08400
C 	C 	0.48978 0.35615 0.78454 0.11200
C 	C 	0.48259 0.32330 0.75029 -0.16000
H 	H 	0.50930 0.29680 0.74260 0.08300
C 	C 	0.43665 0.32810 0.72655 0.08200
H 	H 	0.43280 0.30650 0.70260 0.01500
C 	C 	0.54131 0.35426 0.80764 -0.07700
C 	C 	0.56601 0.41825 0.81746 -0.02100
H 	H 	0.54960 0.46290 0.81140 0.03800
C 	C 	0.61551 0.41744 0.83650 -0.03400
C 	C 	0.63845 0.35047 0.84475 -0.01200
H 	H 	0.67190 0.34920 0.85750 0.03400
C 	C 	0.61455 0.28722 0.83509 -0.09500
C 	C 	0.56558 0.28844 0.81696 0.11400
C 	C 	0.64163 0.48620 0.84538 0.08400
C 	C 	0.61776 0.54760 0.85510 -0.14000
H 	H 	0.58320 0.54520 0.85740 0.07600
C 	C 	0.64278 0.61231 0.86152 0.07400
H 	H 	0.62530 0.65280 0.86910 0.01700
C 	C 	0.69184 0.61970 0.85728 -0.14600
C 	C 	0.71690 0.55820 0.84812 0.06500
H 	H 	0.75140 0.56090 0.84570 0.02200
C 	C 	0.69162 0.49270 0.84245 -0.13400
H 	H 	0.70940 0.45130 0.83640 0.07500
C 	C 	0.71947 0.69040 0.86154 0.41200
C 	C 	0.64112 0.21633 0.84192 0.15400
C 	C 	0.68088 0.20214 0.82459 -0.20100
H 	H 	0.69330 0.23900 0.81030 0.09700
C 	C 	0.70435 0.13443 0.82710 0.13200
H 	H 	0.73160 0.12630 0.81400 -0.00200
C 	C 	0.68938 0.08108 0.84743 -0.21600
C 	C 	0.65168 0.09773 0.86650 0.14000
H 	H 	0.64120 0.06270 0.88270 -0.00600
C 	C 	0.62783 0.16360 0.86331 -0.21600
H 	H 	0.60090 0.17170 0.87680 0.10100
C 	C 	0.71057 0.00806 0.84626 0.44400
C 	C 	0.13143 0.40770 0.66265 0.41600
C 	C 	0.08397 0.44890 0.65306 -0.16600
C 	C 	0.04479 0.42020 0.62974 0.08800
H 	H 	0.04720 0.37300 0.62010 0.01200
C 	C 	0.00118 0.46000 0.61994 -0.16100
H 	H 	0.97460 0.44020 0.60280 0.08200
C 	C 	0.99564 0.52780 0.63453 0.10600
C 	C 	0.03575 0.55600 0.65867 -0.15500
H 	H 	0.03330 0.60270 0.66890 0.08300
C 	C 	0.07965 0.51600 0.66789 0.08500
H 	H 	0.10680 0.53550 0.68460 0.01500
C 	C 	0.94769 0.56966 0.62512 -0.07200
C 	C 	0.92589 0.60102 0.65298 -0.02100
H 	H 	0.94200 0.59500 0.67790 0.03800
C 	C 	0.88191 0.64090 0.64703 -0.03600
C 	C 	0.86004 0.64996 0.60959 -0.02000
H 	H 	0.82980 0.67670 0.60420 0.03800
C 	C 	0.88129 0.62102 0.58020 -0.08000
C 	C 	0.92493 0.58050 0.58871 0.10300
C 	C 	0.86073 0.67480 0.67742 0.09700
C 	C 	0.83834 0.73940 0.67445 -0.15200
H 	H 	0.83540 0.76390 0.65130 0.08100
C 	C 	0.81921 0.77210 0.70362 0.08100
H 	H 	0.80330 0.81780 0.70010 0.01400
C 	C 	0.82332 0.73810 0.73767 -0.16100
C 	C 	0.84533 0.67300 0.74121 0.08800
H 	H 	0.84890 0.64890 0.76450 0.01400
C 	C 	0.86289 0.64030 0.71141 -0.15000
H 	H 	0.87670 0.59320 0.71440 0.08100
C 	C 	0.80587 0.77630 0.76958 0.41400
C 	C 	0.85747 0.63345 0.54100 0.12700
C 	C 	0.88135 0.66900 0.51636 -0.18300
H 	H 	0.91430 0.68630 0.52460 0.09000
C 	C 	0.86054 0.68135 0.48005 0.10700
H 	H 	0.87900 0.70620 0.46380 0.00500
C 	C 	0.81281 0.65753 0.46751 -0.18300
C 	C 	0.78811 0.62048 0.49138 0.10400
H 	H 	0.75540 0.60240 0.48290 0.00900
C 	C 	0.81019 0.60868 0.52806 -0.17500
H 	H 	0.79220 0.58310 0.54440 0.09000
C 	C 	0.79007 0.67024 0.42876 0.41800
