data_crystal

_cell_length_a 36.15500
_cell_length_b 18.56600
_cell_length_c 48.72500
_cell_angle_alpha 90.00000
_cell_angle_beta  90.00000
_cell_angle_gamma 90.00000

_symmetry_space_group_name_	'P 1'
_symmetry_space_group_name_H-M	'P 1'

loop_
_symmetry_equiv_pos_as_xyz
  x,y,z

loop_
_atom_site_label
_atom_site_type_symbol
_atom_site_fract_x
_atom_site_fract_y
_atom_site_fract_z
_atom_site_charge
Fe	Fe	0.98206 0.96567 0.20941 0.79400
Fe	Fe	0.95751 0.02560 0.27070 0.77900
Fe	Fe	0.02974 0.09676 0.23795 0.88700
Fe	Fe	0.20823 0.52080 0.45501 0.77800
Fe	Fe	0.28390 0.59600 0.48561 0.87300
Fe	Fe	0.23379 0.46946 0.51647 0.80400
O 	O 	0.00107 0.01629 0.29871 -0.38100
O 	O 	0.04576 0.08112 0.27853 -0.39100
O 	O 	0.20327 0.41571 0.45538 -0.41100
O 	O 	0.22328 0.37356 0.49452 -0.39400
O 	O 	0.25177 0.67941 0.47204 -0.44200
O 	O 	0.20861 0.63077 0.44800 -0.42000
O 	O 	0.25125 0.50694 0.42643 -0.38900
O 	O 	0.29711 0.56879 0.44630 -0.43000
O 	O 	0.45369 0.08230 0.27263 -0.41400
O 	O 	0.47023 0.13005 0.23353 -0.40100
O 	O 	0.50138 0.81616 0.24979 -0.38200
O 	O 	0.45857 0.86698 0.27653 -0.40300
O 	O 	0.27465 0.62928 0.52378 -0.43400
O 	O 	0.24223 0.54743 0.54545 -0.40000
O 	O 	0.46221 0.93319 0.70640 -0.42300
O 	O 	0.43174 0.01830 0.72749 -0.40600
O 	O 	0.08748 0.96416 0.74736 -0.40200
O 	O 	0.07159 0.00944 0.70687 -0.40200
O 	O 	0.16320 0.53721 0.47786 -0.39100
O 	O 	0.17792 0.49197 0.51789 -0.40600
O 	O 	0.00975 0.95833 0.67921 -0.39200
O 	O 	0.97522 0.87741 0.70010 -0.42300
O 	O 	0.78857 0.56531 0.52037 -0.39200
O 	O 	0.81924 0.47812 0.49971 -0.43400
O 	O 	0.97253 0.89254 0.17640 -0.22000
O 	O 	0.92338 0.02440 0.30520 -0.21400
O 	O 	0.07541 0.16560 0.23753 -0.22100
O 	O 	0.99166 0.02686 0.24053 -0.61300
O 	O 	0.17281 0.51723 0.42119 -0.21200
O 	O 	0.22392 0.39991 0.55137 -0.21800
O 	O 	0.24159 0.52933 0.48545 -0.61100
C 	C 	0.03230 0.04520 0.29820 0.36800
C 	C 	0.05778 0.04210 0.32283 -0.10000
C 	C 	0.08810 0.08280 0.32597 0.04800
H 	H 	0.09310 0.11770 0.31220 0.04000
C 	C 	0.11170 0.07830 0.34673 -0.10400
H 	H 	0.13380 0.10590 0.34680 0.07100
C 	C 	0.10297 0.03090 0.36899 0.04000
C 	C 	0.07310 0.99050 0.36728 -0.09200
H 	H 	0.06840 0.95630 0.38130 0.06500
C 	C 	0.04727 0.99640 0.34487 0.02400
H 	H 	0.02440 0.97110 0.34480 0.04400
C 	C 	0.12770 0.02810 0.39448 0.05300
C 	C 	0.13982 0.08870 0.40568 -0.11400
H 	H 	0.13040 0.13320 0.39900 0.07400
C 	C 	0.16565 0.09000 0.42674 0.04800
C 	C 	0.17887 0.02450 0.43563 -0.09900
H 	H 	0.19650 0.02340 0.45010 0.06300
C 	C 	0.16719 0.95990 0.42409 0.03400
C 	C 	0.13955 0.96140 0.40301 -0.10500
H 	H 	0.12990 0.91830 0.39530 0.06900
C 	C 	0.17571 0.15780 0.43942 0.03500
C 	C 	0.18211 0.22340 0.42291 -0.10100
H 	H 	0.17820 0.22070 0.40370 0.06900
C 	C 	0.19316 0.28670 0.43353 0.05900
H 	H 	0.19610 0.32740 0.42190 0.03700
C 	C 	0.20001 0.29220 0.46027 -0.13400
C 	C 	0.19990 0.23150 0.47578 0.06200
H 	H 	0.20570 0.23570 0.49470 0.03100
C 	C 	0.19213 0.16640 0.46583 -0.10700
H 	H 	0.19760 0.12500 0.47650 0.06900
C 	C 	0.21090 0.36510 0.47078 0.40400
C 	C 	0.18113 0.88930 0.43396 0.06200
C 	C 	0.21041 0.88180 0.44927 -0.12800
H 	H 	0.22130 0.92420 0.45660 0.07400
C 	C 	0.22697 0.81590 0.45577 0.07700
H 	H 	0.25010 0.81490 0.46490 0.01800
C 	C 	0.20994 0.75380 0.44897 -0.15800
C 	C 	0.17643 0.75840 0.43470 0.06000
H 	H 	0.16580 0.71680 0.42650 0.03600
C 	C 	0.15834 0.82750 0.43272 -0.11200
H 	H 	0.13230 0.83120 0.43070 0.07200
C 	C 	0.22494 0.68320 0.45704 0.45200
C 	C 	0.28328 0.53200 0.42782 0.39500
C 	C 	0.30849 0.51120 0.40448 -0.12200
C 	C 	0.29917 0.46330 0.38452 0.05600
H 	H 	0.27650 0.43760 0.38590 0.03300
C 	C 	0.32235 0.45120 0.36219 -0.11700
H 	H 	0.31450 0.42020 0.34780 0.07500
C 	C 	0.35652 0.48390 0.36074 0.06300
C 	C 	0.36649 0.53010 0.38068 -0.11900
H 	H 	0.38960 0.55430 0.37940 0.07300
C 	C 	0.34380 0.54300 0.40294 0.05100
H 	H 	0.35210 0.57360 0.41730 0.02900
C 	C 	0.38123 0.47920 0.33733 0.02100
C 	C 	0.38992 0.41180 0.32474 -0.08200
H 	H 	0.38060 0.36860 0.33260 0.06000
C 	C 	0.41217 0.40790 0.30069 0.02400
C 	C 	0.42454 0.47370 0.28849 -0.08400
H 	H 	0.44010 0.47180 0.27280 0.06200
C 	C 	0.41420 0.54140 0.29927 0.02700
C 	C 	0.39591 0.54050 0.32572 -0.08400
H 	H 	0.39390 0.58450 0.33560 0.06100
C 	C 	0.42520 0.33760 0.28992 0.05700
C 	C 	0.42452 0.28170 0.30644 -0.10800
H 	H 	0.41680 0.28630 0.32500 0.07100
C 	C 	0.43621 0.21130 0.29516 0.04400
H 	H 	0.43620 0.17010 0.30670 0.04300
C 	C 	0.44725 0.20410 0.26786 -0.12900
C 	C 	0.44695 0.26400 0.25184 0.05100
H 	H 	0.45650 0.26090 0.23370 0.03800
C 	C 	0.43291 0.33150 0.26121 -0.10700
H 	H 	0.42890 0.37050 0.24900 0.07200
C 	C 	0.45737 0.13290 0.25647 0.42400
C 	C 	0.43199 0.60900 0.29112 0.04200
C 	C 	0.46698 0.61560 0.27819 -0.10300
H 	H 	0.48210 0.57410 0.27620 0.07100
C 	C 	0.47915 0.67950 0.26869 0.05000
H 	H 	0.50160 0.68120 0.25860 0.03700
C 	C 	0.46019 0.74140 0.27313 -0.11100
C 	C 	0.42153 0.73710 0.28165 0.03300
H 	H 	0.40430 0.77490 0.27840 0.03900
C 	C 	0.41198 0.67430 0.29470 -0.09200
H 	H 	0.39120 0.67440 0.30660 0.06700
C 	C 	0.47350 0.81450 0.26629 0.38000
C 	C 	0.25742 0.60750 0.54420 0.41900
C 	C 	0.25687 0.65430 0.56817 -0.14900
C 	C 	0.27919 0.71580 0.56851 0.05800
H 	H 	0.29300 0.72980 0.55280 0.02700
C 	C 	0.28040 0.75650 0.59325 -0.11300
H 	H 	0.29770 0.79470 0.59490 0.07200
C 	C 	0.25674 0.74170 0.61523 0.05700
C 	C 	0.23259 0.68560 0.61310 -0.12300
H 	H 	0.21530 0.67610 0.62730 0.07600
C 	C 	0.23370 0.64230 0.58962 0.06900
H 	H 	0.21740 0.60230 0.58860 0.02800
C 	C 	0.25700 0.79000 0.63991 0.03200
C 	C 	0.29298 0.81490 0.64988 -0.09200
H 	H 	0.31530 0.80140 0.64090 0.06300
C 	C 	0.29340 0.85850 0.67280 0.03200
C 	C 	0.25952 0.88000 0.68509 -0.09600
H 	H 	0.25990 0.90900 0.70120 0.06500
C 	C 	0.22697 0.85990 0.67421 0.03600
C 	C 	0.22526 0.81550 0.65095 -0.09800
H 	H 	0.20210 0.80350 0.64300 0.06500
C 	C 	0.32929 0.88530 0.68331 0.05700
C 	C 	0.36145 0.84420 0.67999 -0.11700
H 	H 	0.36040 0.79750 0.67210 0.07500
C 	C 	0.39473 0.87310 0.68844 0.06400
H 	H 	0.41680 0.84830 0.68360 0.03200
C 	C 	0.39783 0.93450 0.70317 -0.13600
C 	C 	0.36593 0.97780 0.70412 0.05800
H 	H 	0.36760 0.02660 0.70980 0.03600
C 	C 	0.33243 0.94900 0.69684 -0.11500
H 	H 	0.31050 0.97460 0.70140 0.07400
C 	C 	0.43449 0.96270 0.71273 0.43000
C 	C 	0.19069 0.88700 0.68768 0.06000
C 	C 	0.18728 0.89260 0.71492 -0.12100
H 	H 	0.20700 0.87670 0.72630 0.07500
C 	C 	0.15614 0.92080 0.72685 0.05800
H 	H 	0.15440 0.92290 0.74630 0.03200
C 	C 	0.12693 0.94630 0.71087 -0.12900
C 	C 	0.13181 0.94150 0.68229 0.05600
H 	H 	0.11340 0.96090 0.67060 0.03500
C 	C 	0.16213 0.90990 0.67089 -0.11800
H 	H 	0.16370 0.90370 0.65160 0.07400
C 	C 	0.09339 0.97860 0.72296 0.39900
C 	C 	0.15783 0.52710 0.50321 0.40700
C 	C 	0.12371 0.55850 0.51532 -0.14000
C 	C 	0.12015 0.56490 0.54268 0.06700
H 	H 	0.13950 0.54930 0.55440 0.02900
C 	C 	0.08846 0.59400 0.55369 -0.11900
H 	H 	0.08730 0.59970 0.57300 0.07500
C 	C 	0.05853 0.61530 0.53854 0.05600
C 	C 	0.06344 0.61210 0.50965 -0.11600
H 	H 	0.04490 0.63050 0.49770 0.07300
C 	C 	0.09537 0.58220 0.49911 0.06300
H 	H 	0.09770 0.57780 0.47980 0.03200
C 	C 	0.02532 0.64760 0.54882 0.02600
C 	C 	0.02514 0.69390 0.57106 -0.08800
H 	H 	0.04820 0.71210 0.57740 0.06200
C 	C 	0.99297 0.71550 0.58469 0.02700
C 	C 	0.95976 0.69320 0.57328 -0.09200
H 	H 	0.93740 0.71100 0.58090 0.06400
C 	C 	0.95763 0.64630 0.55126 0.03400
C 	C 	0.99041 0.62190 0.53957 -0.09000
H 	H 	0.98950 0.58760 0.52510 0.06300
C 	C 	0.99340 0.76240 0.60966 0.06100
C 	C 	0.01685 0.82300 0.61118 -0.11900
H 	H 	0.03350 0.83200 0.59650 0.07400
C 	C 	0.01651 0.86950 0.63317 0.06500
H 	H 	0.03170 0.91120 0.63320 0.02900
C 	C 	0.99362 0.85460 0.65529 -0.14600
C 	C 	0.96993 0.79760 0.65261 0.07600
H 	H 	0.95210 0.79000 0.66670 0.03000
C 	C 	0.97030 0.75170 0.63136 -0.13100
H 	H 	0.95430 0.71110 0.63140 0.08000
C 	C 	0.99254 0.90020 0.67983 0.41000
C 	C 	0.92198 0.62080 0.54069 0.04500
C 	C 	0.88856 0.65650 0.54471 -0.10200
H 	H 	0.88880 0.69960 0.55520 0.06800
C 	C 	0.85482 0.63290 0.53431 0.05000
H 	H 	0.83350 0.66250 0.53540 0.03500
C 	C 	0.85298 0.56510 0.52239 -0.13000
C 	C 	0.88671 0.53020 0.51535 0.04300
H 	H 	0.88700 0.49170 0.50250 0.03100
C 	C 	0.91984 0.55430 0.52794 -0.10000
H 	H 	0.94110 0.52420 0.52760 0.06700
C 	C 	0.81812 0.53440 0.51319 0.40600
Co	Co	0.98400 0.95522 0.20956 0.34200
Co	Co	0.96263 0.02440 0.27041 0.36100
Co	Co	0.03320 0.08672 0.24133 0.29800
Co	Co	0.21279 0.52580 0.45504 0.36300
Co	Co	0.27835 0.58740 0.48480 0.28100
Co	Co	0.23360 0.45820 0.51749 0.33600
Fe	Fe	0.01794 0.03433 0.70941 0.79300
Fe	Fe	0.04249 0.97440 0.77070 0.77800
Fe	Fe	0.97026 0.90324 0.73795 0.88600
Fe	Fe	0.79177 0.47920 0.95501 0.77700
Fe	Fe	0.71610 0.40400 0.98561 0.87200
Fe	Fe	0.76621 0.53054 0.01647 0.80300
O 	O 	0.99893 0.98371 0.79871 -0.38100
O 	O 	0.95424 0.91888 0.77853 -0.39100
O 	O 	0.79673 0.58429 0.95538 -0.41100
O 	O 	0.77672 0.62644 0.99452 -0.39400
O 	O 	0.74823 0.32059 0.97204 -0.44200
O 	O 	0.79139 0.36923 0.94800 -0.42000
O 	O 	0.74875 0.49306 0.92643 -0.38900
O 	O 	0.70289 0.43121 0.94630 -0.43000
O 	O 	0.54631 0.91770 0.77263 -0.41400
O 	O 	0.52977 0.86995 0.73353 -0.40100
O 	O 	0.49862 0.18384 0.74979 -0.38200
O 	O 	0.54143 0.13302 0.77653 -0.40300
O 	O 	0.72535 0.37072 0.02378 -0.43400
O 	O 	0.75777 0.45257 0.04545 -0.40000
O 	O 	0.53779 0.06681 0.20640 -0.42300
O 	O 	0.56826 0.98170 0.22749 -0.40600
O 	O 	0.91252 0.03584 0.24736 -0.40200
O 	O 	0.92841 0.99056 0.20687 -0.40200
O 	O 	0.83680 0.46279 0.97786 -0.39100
O 	O 	0.82208 0.50803 0.01789 -0.40600
O 	O 	0.99025 0.04167 0.17921 -0.39200
O 	O 	0.02478 0.12259 0.20010 -0.42300
O 	O 	0.21143 0.43469 0.02037 -0.39200
O 	O 	0.18076 0.52188 0.99971 -0.43300
O 	O 	0.02747 0.10746 0.67640 -0.22000
O 	O 	0.07662 0.97560 0.80520 -0.21400
O 	O 	0.92459 0.83440 0.73753 -0.22100
O 	O 	0.00834 0.97314 0.74053 -0.61300
O 	O 	0.82719 0.48277 0.92119 -0.21200
O 	O 	0.77608 0.60009 0.05137 -0.21800
O 	O 	0.75841 0.47067 0.98545 -0.61100
C 	C 	0.96770 0.95480 0.79820 0.36800
C 	C 	0.94222 0.95790 0.82283 -0.10000
C 	C 	0.91190 0.91720 0.82597 0.04800
H 	H 	0.90690 0.88230 0.81220 0.04000
C 	C 	0.88830 0.92170 0.84673 -0.10400
H 	H 	0.86620 0.89410 0.84680 0.07100
C 	C 	0.89703 0.96910 0.86899 0.04000
C 	C 	0.92690 0.00950 0.86728 -0.09200
H 	H 	0.93160 0.04370 0.88130 0.06500
C 	C 	0.95273 0.00360 0.84487 0.02400
H 	H 	0.97560 0.02890 0.84480 0.04400
C 	C 	0.87230 0.97190 0.89448 0.05400
C 	C 	0.86018 0.91130 0.90568 -0.11400
H 	H 	0.86960 0.86680 0.89900 0.07400
C 	C 	0.83435 0.91000 0.92674 0.04800
C 	C 	0.82113 0.97550 0.93563 -0.09900
H 	H 	0.80350 0.97660 0.95010 0.06300
C 	C 	0.83281 0.04010 0.92409 0.03400
C 	C 	0.86045 0.03860 0.90301 -0.10500
H 	H 	0.87010 0.08170 0.89530 0.06900
C 	C 	0.82429 0.84220 0.93942 0.03500
C 	C 	0.81789 0.77660 0.92291 -0.10100
H 	H 	0.82180 0.77930 0.90370 0.06900
C 	C 	0.80684 0.71330 0.93353 0.05900
H 	H 	0.80390 0.67260 0.92190 0.03700
C 	C 	0.79999 0.70780 0.96027 -0.13400
C 	C 	0.80010 0.76850 0.97578 0.06200
H 	H 	0.79430 0.76430 0.99470 0.03100
C 	C 	0.80787 0.83360 0.96583 -0.10600
H 	H 	0.80240 0.87500 0.97650 0.06900
C 	C 	0.78910 0.63490 0.97078 0.40400
C 	C 	0.81887 0.11070 0.93396 0.06200
C 	C 	0.78959 0.11820 0.94927 -0.12800
H 	H 	0.77870 0.07580 0.95660 0.07400
C 	C 	0.77303 0.18410 0.95577 0.07700
H 	H 	0.74990 0.18510 0.96490 0.01900
C 	C 	0.79006 0.24620 0.94897 -0.15700
C 	C 	0.82357 0.24160 0.93470 0.06000
H 	H 	0.83420 0.28320 0.92650 0.03600
C 	C 	0.84166 0.17250 0.93272 -0.11200
H 	H 	0.86770 0.16880 0.93070 0.07200
C 	C 	0.77506 0.31680 0.95704 0.45200
C 	C 	0.71672 0.46800 0.92782 0.39500
C 	C 	0.69151 0.48880 0.90448 -0.12200
C 	C 	0.70083 0.53670 0.88452 0.05600
H 	H 	0.72350 0.56240 0.88590 0.03300
C 	C 	0.67765 0.54880 0.86219 -0.11700
H 	H 	0.68550 0.57980 0.84780 0.07500
C 	C 	0.64348 0.51610 0.86074 0.06300
C 	C 	0.63351 0.46990 0.88068 -0.11900
H 	H 	0.61040 0.44570 0.87940 0.07300
C 	C 	0.65620 0.45700 0.90294 0.05100
H 	H 	0.64790 0.42640 0.91730 0.02900
C 	C 	0.61877 0.52080 0.83733 0.02200
C 	C 	0.61008 0.58820 0.82474 -0.08200
H 	H 	0.61940 0.63140 0.83260 0.06000
C 	C 	0.58783 0.59210 0.80069 0.02400
C 	C 	0.57546 0.52630 0.78849 -0.08400
H 	H 	0.55990 0.52820 0.77280 0.06200
C 	C 	0.58580 0.45860 0.79927 0.02700
C 	C 	0.60409 0.45950 0.82572 -0.08400
H 	H 	0.60610 0.41550 0.83560 0.06100
C 	C 	0.57480 0.66240 0.78992 0.05700
C 	C 	0.57548 0.71830 0.80644 -0.10800
H 	H 	0.58320 0.71370 0.82500 0.07100
C 	C 	0.56379 0.78870 0.79516 0.04400
H 	H 	0.56380 0.82990 0.80670 0.04300
C 	C 	0.55275 0.79590 0.76786 -0.12900
C 	C 	0.55305 0.73600 0.75184 0.05100
H 	H 	0.54350 0.73910 0.73370 0.03800
C 	C 	0.56709 0.66850 0.76121 -0.10700
H 	H 	0.57110 0.62950 0.74900 0.07200
C 	C 	0.54263 0.86710 0.75647 0.42400
C 	C 	0.56801 0.39100 0.79112 0.04200
C 	C 	0.53302 0.38440 0.77819 -0.10300
H 	H 	0.51790 0.42590 0.77620 0.07100
C 	C 	0.52085 0.32050 0.76869 0.05000
H 	H 	0.49840 0.31880 0.75860 0.03700
C 	C 	0.53981 0.25860 0.77313 -0.11100
C 	C 	0.57847 0.26290 0.78165 0.03300
H 	H 	0.59570 0.22510 0.77840 0.03900
C 	C 	0.58802 0.32570 0.79470 -0.09200
H 	H 	0.60880 0.32560 0.80660 0.06700
C 	C 	0.52650 0.18550 0.76629 0.38000
C 	C 	0.74258 0.39250 0.04420 0.41900
C 	C 	0.74313 0.34570 0.06817 -0.14900
C 	C 	0.72081 0.28420 0.06851 0.05800
H 	H 	0.70700 0.27020 0.05280 0.02700
C 	C 	0.71960 0.24350 0.09325 -0.11300
H 	H 	0.70230 0.20530 0.09490 0.07200
C 	C 	0.74326 0.25830 0.11523 0.05700
C 	C 	0.76741 0.31440 0.11310 -0.12300
H 	H 	0.78470 0.32390 0.12730 0.07600
C 	C 	0.76630 0.35770 0.08962 0.06900
H 	H 	0.78260 0.39770 0.08860 0.02800
C 	C 	0.74300 0.21000 0.13991 0.03200
C 	C 	0.70702 0.18510 0.14988 -0.09200
H 	H 	0.68470 0.19860 0.14090 0.06300
C 	C 	0.70660 0.14150 0.17280 0.03200
C 	C 	0.74048 0.12000 0.18509 -0.09600
H 	H 	0.74010 0.09100 0.20120 0.06500
C 	C 	0.77303 0.14010 0.17421 0.03600
C 	C 	0.77474 0.18450 0.15095 -0.09800
H 	H 	0.79790 0.19650 0.14300 0.06500
C 	C 	0.67071 0.11470 0.18331 0.05700
C 	C 	0.63855 0.15580 0.17999 -0.11700
H 	H 	0.63960 0.20250 0.17210 0.07500
C 	C 	0.60527 0.12690 0.18844 0.06400
H 	H 	0.58320 0.15170 0.18360 0.03200
C 	C 	0.60217 0.06550 0.20317 -0.13600
C 	C 	0.63407 0.02220 0.20412 0.05800
H 	H 	0.63240 0.97340 0.20980 0.03600
C 	C 	0.66757 0.05100 0.19684 -0.11500
H 	H 	0.68950 0.02540 0.20140 0.07400
C 	C 	0.56551 0.03730 0.21273 0.43000
C 	C 	0.80931 0.11300 0.18768 0.06000
C 	C 	0.81272 0.10740 0.21492 -0.12100
H 	H 	0.79300 0.12330 0.22630 0.07500
C 	C 	0.84386 0.07920 0.22685 0.05800
H 	H 	0.84560 0.07710 0.24630 0.03200
C 	C 	0.87307 0.05370 0.21087 -0.12900
C 	C 	0.86819 0.05850 0.18229 0.05600
H 	H 	0.88660 0.03910 0.17060 0.03500
C 	C 	0.83787 0.09010 0.17089 -0.11800
H 	H 	0.83630 0.09630 0.15160 0.07400
C 	C 	0.90661 0.02140 0.22296 0.39900
C 	C 	0.84217 0.47290 0.00321 0.40800
C 	C 	0.87629 0.44150 0.01532 -0.14300
C 	C 	0.87985 0.43510 0.04268 0.06900
H 	H 	0.86050 0.45070 0.05440 0.02800
C 	C 	0.91154 0.40600 0.05369 -0.12200
H 	H 	0.91270 0.40030 0.07300 0.07600
C 	C 	0.94147 0.38470 0.03854 0.05800
C 	C 	0.93656 0.38790 0.00965 -0.12000
H 	H 	0.95510 0.36950 0.99770 0.07500
C 	C 	0.90463 0.41780 0.99911 0.06700
H 	H 	0.90230 0.42220 0.97980 0.03100
C 	C 	0.97468 0.35240 0.04882 0.02500
C 	C 	0.97486 0.30610 0.07106 -0.08700
H 	H 	0.95180 0.28790 0.07740 0.06200
C 	C 	0.00703 0.28450 0.08469 0.02700
C 	C 	0.04024 0.30680 0.07328 -0.09100
H 	H 	0.06260 0.28900 0.08090 0.06400
C 	C 	0.04237 0.35370 0.05126 0.03300
C 	C 	0.00959 0.37810 0.03957 -0.08900
H 	H 	0.01050 0.41240 0.02510 0.06300
C 	C 	0.00660 0.23760 0.10966 0.06200
C 	C 	0.98315 0.17700 0.11118 -0.11900
H 	H 	0.96650 0.16800 0.09650 0.07400
C 	C 	0.98349 0.13050 0.13317 0.06500
H 	H 	0.96830 0.08880 0.13320 0.02900
C 	C 	0.00638 0.14540 0.15529 -0.14600
C 	C 	0.03007 0.20240 0.15261 0.07700
H 	H 	0.04790 0.21000 0.16670 0.03000
C 	C 	0.02970 0.24830 0.13136 -0.13100
H 	H 	0.04570 0.28890 0.13140 0.08000
C 	C 	0.00746 0.09980 0.17983 0.41000
C 	C 	0.07802 0.37920 0.04069 0.04500
C 	C 	0.11144 0.34350 0.04471 -0.10200
H 	H 	0.11120 0.30040 0.05520 0.06800
C 	C 	0.14518 0.36710 0.03431 0.05000
H 	H 	0.16650 0.33750 0.03540 0.03500
C 	C 	0.14702 0.43490 0.02239 -0.13000
C 	C 	0.11329 0.46980 0.01535 0.04300
H 	H 	0.11300 0.50830 0.00250 0.03000
C 	C 	0.08016 0.44570 0.02794 -0.10000
H 	H 	0.05890 0.47580 0.02760 0.06700
C 	C 	0.18188 0.46560 0.01319 0.40500
Co	Co	0.01600 0.04478 0.70956 0.34200
Co	Co	0.03737 0.97560 0.77041 0.36100
Co	Co	0.96680 0.91328 0.74133 0.29800
Co	Co	0.78721 0.47420 0.95504 0.36300
Co	Co	0.72165 0.41260 0.98480 0.28100
Co	Co	0.76640 0.54180 0.01749 0.33600
Fe	Fe	0.48206 0.03433 0.20941 0.79300
Fe	Fe	0.45751 0.97440 0.27070 0.77800
Fe	Fe	0.52974 0.90324 0.23795 0.88600
Fe	Fe	0.70823 0.47920 0.45501 0.77700
Fe	Fe	0.78390 0.40400 0.48561 0.87200
Fe	Fe	0.73379 0.53054 0.51647 0.80300
O 	O 	0.50107 0.98371 0.29871 -0.38100
O 	O 	0.54576 0.91888 0.27853 -0.39100
O 	O 	0.70327 0.58429 0.45538 -0.41100
O 	O 	0.72328 0.62644 0.49452 -0.39400
O 	O 	0.75177 0.32059 0.47204 -0.44200
O 	O 	0.70861 0.36923 0.44800 -0.42000
O 	O 	0.75125 0.49306 0.42643 -0.38900
O 	O 	0.79711 0.43121 0.44630 -0.43000
O 	O 	0.95369 0.91770 0.27263 -0.41400
O 	O 	0.97023 0.86995 0.23353 -0.40100
O 	O 	0.00138 0.18384 0.24979 -0.38200
O 	O 	0.95857 0.13302 0.27653 -0.40300
O 	O 	0.77465 0.37072 0.52378 -0.43400
O 	O 	0.74223 0.45257 0.54545 -0.40000
O 	O 	0.96221 0.06681 0.70640 -0.42300
O 	O 	0.93174 0.98170 0.72749 -0.40600
O 	O 	0.58748 0.03584 0.74736 -0.40200
O 	O 	0.57159 0.99056 0.70687 -0.40200
O 	O 	0.66320 0.46279 0.47786 -0.39100
O 	O 	0.67792 0.50803 0.51789 -0.40600
O 	O 	0.50975 0.04167 0.67921 -0.39200
O 	O 	0.47522 0.12259 0.70010 -0.42300
O 	O 	0.28857 0.43469 0.52037 -0.39200
O 	O 	0.31924 0.52188 0.49971 -0.43400
O 	O 	0.47253 0.10746 0.17640 -0.22000
O 	O 	0.42338 0.97560 0.30520 -0.21400
O 	O 	0.57541 0.83440 0.23753 -0.22100
O 	O 	0.49166 0.97314 0.24053 -0.61300
O 	O 	0.67281 0.48277 0.42119 -0.21200
O 	O 	0.72392 0.60009 0.55137 -0.21800
O 	O 	0.74159 0.47067 0.48545 -0.61100
C 	C 	0.53230 0.95480 0.29820 0.36800
C 	C 	0.55778 0.95790 0.32283 -0.10000
C 	C 	0.58810 0.91720 0.32597 0.04800
H 	H 	0.59310 0.88230 0.31220 0.04000
C 	C 	0.61170 0.92170 0.34673 -0.10400
H 	H 	0.63380 0.89410 0.34680 0.07100
C 	C 	0.60297 0.96910 0.36899 0.04000
C 	C 	0.57310 0.00950 0.36728 -0.09200
H 	H 	0.56840 0.04370 0.38130 0.06500
C 	C 	0.54727 0.00360 0.34487 0.02400
H 	H 	0.52440 0.02890 0.34480 0.04400
C 	C 	0.62770 0.97190 0.39448 0.05300
C 	C 	0.63982 0.91130 0.40568 -0.11400
H 	H 	0.63040 0.86680 0.39900 0.07400
C 	C 	0.66565 0.91000 0.42674 0.04800
C 	C 	0.67887 0.97550 0.43563 -0.09900
H 	H 	0.69650 0.97660 0.45010 0.06300
C 	C 	0.66719 0.04010 0.42409 0.03400
C 	C 	0.63955 0.03860 0.40301 -0.10500
H 	H 	0.62990 0.08170 0.39530 0.06900
C 	C 	0.67571 0.84220 0.43942 0.03500
C 	C 	0.68211 0.77660 0.42291 -0.10100
H 	H 	0.67820 0.77930 0.40370 0.06900
C 	C 	0.69316 0.71330 0.43353 0.05900
H 	H 	0.69610 0.67260 0.42190 0.03700
C 	C 	0.70001 0.70780 0.46027 -0.13400
C 	C 	0.69990 0.76850 0.47578 0.06200
H 	H 	0.70570 0.76430 0.49470 0.03100
C 	C 	0.69213 0.83360 0.46583 -0.10700
H 	H 	0.69760 0.87500 0.47650 0.06900
C 	C 	0.71090 0.63490 0.47078 0.40400
C 	C 	0.68113 0.11070 0.43396 0.06200
C 	C 	0.71041 0.11820 0.44927 -0.12800
H 	H 	0.72130 0.07580 0.45660 0.07400
C 	C 	0.72697 0.18410 0.45577 0.07700
H 	H 	0.75010 0.18510 0.46490 0.01800
C 	C 	0.70994 0.24620 0.44897 -0.15800
C 	C 	0.67643 0.24160 0.43470 0.06000
H 	H 	0.66580 0.28320 0.42650 0.03600
C 	C 	0.65834 0.17250 0.43272 -0.11200
H 	H 	0.63230 0.16880 0.43070 0.07200
C 	C 	0.72494 0.31680 0.45704 0.45200
C 	C 	0.78328 0.46800 0.42782 0.39500
C 	C 	0.80849 0.48880 0.40448 -0.12200
C 	C 	0.79917 0.53670 0.38452 0.05600
H 	H 	0.77650 0.56240 0.38590 0.03300
C 	C 	0.82235 0.54880 0.36219 -0.11700
H 	H 	0.81450 0.57980 0.34780 0.07500
C 	C 	0.85652 0.51610 0.36074 0.06300
C 	C 	0.86649 0.46990 0.38068 -0.11900
H 	H 	0.88960 0.44570 0.37940 0.07300
C 	C 	0.84380 0.45700 0.40294 0.05100
H 	H 	0.85210 0.42640 0.41730 0.02900
C 	C 	0.88123 0.52080 0.33733 0.02100
C 	C 	0.88992 0.58820 0.32474 -0.08200
H 	H 	0.88060 0.63140 0.33260 0.06000
C 	C 	0.91217 0.59210 0.30069 0.02400
C 	C 	0.92454 0.52630 0.28849 -0.08400
H 	H 	0.94010 0.52820 0.27280 0.06200
C 	C 	0.91420 0.45860 0.29927 0.02700
C 	C 	0.89591 0.45950 0.32572 -0.08400
H 	H 	0.89390 0.41550 0.33560 0.06100
C 	C 	0.92520 0.66240 0.28992 0.05700
C 	C 	0.92452 0.71830 0.30644 -0.10800
H 	H 	0.91680 0.71370 0.32500 0.07100
C 	C 	0.93621 0.78870 0.29516 0.04400
H 	H 	0.93620 0.82990 0.30670 0.04300
C 	C 	0.94725 0.79590 0.26786 -0.12900
C 	C 	0.94695 0.73600 0.25184 0.05100
H 	H 	0.95650 0.73910 0.23370 0.03800
C 	C 	0.93291 0.66850 0.26121 -0.10700
H 	H 	0.92890 0.62950 0.24900 0.07200
C 	C 	0.95737 0.86710 0.25647 0.42400
C 	C 	0.93199 0.39100 0.29112 0.04200
C 	C 	0.96698 0.38440 0.27819 -0.10300
H 	H 	0.98210 0.42590 0.27620 0.07100
C 	C 	0.97915 0.32050 0.26869 0.05000
H 	H 	0.00160 0.31880 0.25860 0.03700
C 	C 	0.96019 0.25860 0.27313 -0.11100
C 	C 	0.92153 0.26290 0.28165 0.03300
H 	H 	0.90430 0.22510 0.27840 0.03900
C 	C 	0.91198 0.32570 0.29470 -0.09200
H 	H 	0.89120 0.32560 0.30660 0.06700
C 	C 	0.97350 0.18550 0.26629 0.38000
C 	C 	0.75742 0.39250 0.54420 0.41900
C 	C 	0.75687 0.34570 0.56817 -0.14900
C 	C 	0.77919 0.28420 0.56851 0.05800
H 	H 	0.79300 0.27020 0.55280 0.02700
C 	C 	0.78040 0.24350 0.59325 -0.11300
H 	H 	0.79770 0.20530 0.59490 0.07200
C 	C 	0.75674 0.25830 0.61523 0.05700
C 	C 	0.73259 0.31440 0.61310 -0.12300
H 	H 	0.71530 0.32390 0.62730 0.07600
C 	C 	0.73370 0.35770 0.58962 0.06900
H 	H 	0.71740 0.39770 0.58860 0.02800
C 	C 	0.75700 0.21000 0.63991 0.03200
C 	C 	0.79298 0.18510 0.64988 -0.09200
H 	H 	0.81530 0.19860 0.64090 0.06300
C 	C 	0.79340 0.14150 0.67280 0.03200
C 	C 	0.75952 0.12000 0.68509 -0.09600
H 	H 	0.75990 0.09100 0.70120 0.06500
C 	C 	0.72697 0.14010 0.67421 0.03600
C 	C 	0.72526 0.18450 0.65095 -0.09800
H 	H 	0.70210 0.19650 0.64300 0.06500
C 	C 	0.82929 0.11470 0.68331 0.05700
C 	C 	0.86145 0.15580 0.67999 -0.11700
H 	H 	0.86040 0.20250 0.67210 0.07500
C 	C 	0.89473 0.12690 0.68844 0.06400
H 	H 	0.91680 0.15170 0.68360 0.03200
C 	C 	0.89783 0.06550 0.70317 -0.13600
C 	C 	0.86593 0.02220 0.70412 0.05800
H 	H 	0.86760 0.97340 0.70980 0.03600
C 	C 	0.83243 0.05100 0.69684 -0.11500
H 	H 	0.81050 0.02540 0.70140 0.07400
C 	C 	0.93449 0.03730 0.71273 0.43000
C 	C 	0.69069 0.11300 0.68768 0.06000
C 	C 	0.68728 0.10740 0.71492 -0.12100
H 	H 	0.70700 0.12330 0.72630 0.07500
C 	C 	0.65614 0.07920 0.72685 0.05800
H 	H 	0.65440 0.07710 0.74630 0.03200
C 	C 	0.62693 0.05370 0.71087 -0.12900
C 	C 	0.63181 0.05850 0.68229 0.05600
H 	H 	0.61340 0.03910 0.67060 0.03500
C 	C 	0.66213 0.09010 0.67089 -0.11800
H 	H 	0.66370 0.09630 0.65160 0.07400
C 	C 	0.59339 0.02140 0.72296 0.39900
C 	C 	0.65783 0.47290 0.50321 0.40700
C 	C 	0.62371 0.44150 0.51532 -0.14000
C 	C 	0.62015 0.43510 0.54268 0.06700
H 	H 	0.63950 0.45070 0.55440 0.02900
C 	C 	0.58846 0.40600 0.55369 -0.11900
H 	H 	0.58730 0.40030 0.57300 0.07500
C 	C 	0.55853 0.38470 0.53854 0.05600
C 	C 	0.56344 0.38790 0.50965 -0.11600
H 	H 	0.54490 0.36950 0.49770 0.07300
C 	C 	0.59537 0.41780 0.49911 0.06300
H 	H 	0.59770 0.42220 0.47980 0.03200
C 	C 	0.52532 0.35240 0.54882 0.02600
C 	C 	0.52514 0.30610 0.57106 -0.08800
H 	H 	0.54820 0.28790 0.57740 0.06200
C 	C 	0.49297 0.28450 0.58469 0.02700
C 	C 	0.45976 0.30680 0.57328 -0.09200
H 	H 	0.43740 0.28900 0.58090 0.06400
C 	C 	0.45763 0.35370 0.55126 0.03400
C 	C 	0.49041 0.37810 0.53957 -0.09000
H 	H 	0.48950 0.41240 0.52510 0.06300
C 	C 	0.49340 0.23760 0.60966 0.06100
C 	C 	0.51685 0.17700 0.61118 -0.11900
H 	H 	0.53350 0.16800 0.59650 0.07400
C 	C 	0.51651 0.13050 0.63317 0.06500
H 	H 	0.53170 0.08880 0.63320 0.02900
C 	C 	0.49362 0.14540 0.65529 -0.14600
C 	C 	0.46993 0.20240 0.65261 0.07600
H 	H 	0.45210 0.21000 0.66670 0.03000
C 	C 	0.47030 0.24830 0.63136 -0.13100
H 	H 	0.45430 0.28890 0.63140 0.08000
C 	C 	0.49254 0.09980 0.67983 0.41000
C 	C 	0.42198 0.37920 0.54069 0.04500
C 	C 	0.38856 0.34350 0.54471 -0.10200
H 	H 	0.38880 0.30040 0.55520 0.06800
C 	C 	0.35482 0.36710 0.53431 0.05000
H 	H 	0.33350 0.33750 0.53540 0.03500
C 	C 	0.35298 0.43490 0.52239 -0.13000
C 	C 	0.38671 0.46980 0.51535 0.04300
H 	H 	0.38700 0.50830 0.50250 0.03100
C 	C 	0.41984 0.44570 0.52794 -0.10000
H 	H 	0.44110 0.47580 0.52760 0.06700
C 	C 	0.31812 0.46560 0.51319 0.40600
Co	Co	0.48400 0.04478 0.20956 0.34200
Co	Co	0.46263 0.97560 0.27041 0.36100
Co	Co	0.53320 0.91328 0.24133 0.29800
Co	Co	0.71279 0.47420 0.45504 0.36300
Co	Co	0.77835 0.41260 0.48480 0.28100
Co	Co	0.73360 0.54180 0.51749 0.33600
Fe	Fe	0.51794 0.96567 0.70941 0.79300
Fe	Fe	0.54249 0.02560 0.77070 0.77800
Fe	Fe	0.47026 0.09676 0.73795 0.88600
Fe	Fe	0.29177 0.52080 0.95501 0.77700
Fe	Fe	0.21610 0.59600 0.98561 0.87200
Fe	Fe	0.26621 0.46946 0.01647 0.80300
O 	O 	0.49893 0.01629 0.79871 -0.38100
O 	O 	0.45424 0.08112 0.77853 -0.39100
O 	O 	0.29673 0.41571 0.95538 -0.41100
O 	O 	0.27672 0.37356 0.99452 -0.39400
O 	O 	0.24823 0.67941 0.97204 -0.44200
O 	O 	0.29139 0.63077 0.94800 -0.42000
O 	O 	0.24875 0.50694 0.92643 -0.38900
O 	O 	0.20289 0.56879 0.94630 -0.43000
O 	O 	0.04631 0.08230 0.77263 -0.41400
O 	O 	0.02977 0.13005 0.73353 -0.40100
O 	O 	0.99862 0.81616 0.74979 -0.38200
O 	O 	0.04143 0.86698 0.77653 -0.40300
O 	O 	0.22535 0.62928 0.02378 -0.43400
O 	O 	0.25777 0.54743 0.04545 -0.40000
O 	O 	0.03779 0.93319 0.20640 -0.42300
O 	O 	0.06826 0.01830 0.22749 -0.40600
O 	O 	0.41252 0.96416 0.24736 -0.40200
O 	O 	0.42841 0.00944 0.20687 -0.40200
O 	O 	0.33680 0.53721 0.97786 -0.39100
O 	O 	0.32208 0.49197 0.01789 -0.40600
O 	O 	0.49025 0.95833 0.17921 -0.39200
O 	O 	0.52478 0.87741 0.20010 -0.42300
O 	O 	0.71143 0.56531 0.02037 -0.39200
O 	O 	0.68076 0.47812 0.99971 -0.43300
O 	O 	0.52747 0.89254 0.67640 -0.22000
O 	O 	0.57662 0.02440 0.80520 -0.21400
O 	O 	0.42459 0.16560 0.73753 -0.22100
O 	O 	0.50834 0.02686 0.74053 -0.61300
O 	O 	0.32719 0.51723 0.92119 -0.21200
O 	O 	0.27608 0.39991 0.05137 -0.21800
O 	O 	0.25841 0.52933 0.98545 -0.61100
C 	C 	0.46770 0.04520 0.79820 0.36800
C 	C 	0.44222 0.04210 0.82283 -0.10000
C 	C 	0.41190 0.08280 0.82597 0.04800
H 	H 	0.40690 0.11770 0.81220 0.04000
C 	C 	0.38830 0.07830 0.84673 -0.10400
H 	H 	0.36620 0.10590 0.84680 0.07100
C 	C 	0.39703 0.03090 0.86899 0.04000
C 	C 	0.42690 0.99050 0.86728 -0.09200
H 	H 	0.43160 0.95630 0.88130 0.06500
C 	C 	0.45273 0.99640 0.84487 0.02400
H 	H 	0.47560 0.97110 0.84480 0.04400
C 	C 	0.37230 0.02810 0.89448 0.05400
C 	C 	0.36018 0.08870 0.90568 -0.11400
H 	H 	0.36960 0.13320 0.89900 0.07400
C 	C 	0.33435 0.09000 0.92674 0.04800
C 	C 	0.32113 0.02450 0.93563 -0.09900
H 	H 	0.30350 0.02340 0.95010 0.06300
C 	C 	0.33281 0.95990 0.92409 0.03400
C 	C 	0.36045 0.96140 0.90301 -0.10500
H 	H 	0.37010 0.91830 0.89530 0.06900
C 	C 	0.32429 0.15780 0.93942 0.03500
C 	C 	0.31789 0.22340 0.92291 -0.10100
H 	H 	0.32180 0.22070 0.90370 0.06900
C 	C 	0.30684 0.28670 0.93353 0.05900
H 	H 	0.30390 0.32740 0.92190 0.03700
C 	C 	0.29999 0.29220 0.96027 -0.13400
C 	C 	0.30010 0.23150 0.97578 0.06200
H 	H 	0.29430 0.23570 0.99470 0.03100
C 	C 	0.30787 0.16640 0.96583 -0.10600
H 	H 	0.30240 0.12500 0.97650 0.06900
C 	C 	0.28910 0.36510 0.97078 0.40400
C 	C 	0.31887 0.88930 0.93396 0.06200
C 	C 	0.28959 0.88180 0.94927 -0.12800
H 	H 	0.27870 0.92420 0.95660 0.07400
C 	C 	0.27303 0.81590 0.95577 0.07700
H 	H 	0.24990 0.81490 0.96490 0.01900
C 	C 	0.29006 0.75380 0.94897 -0.15700
C 	C 	0.32357 0.75840 0.93470 0.06000
H 	H 	0.33420 0.71680 0.92650 0.03600
C 	C 	0.34166 0.82750 0.93272 -0.11200
H 	H 	0.36770 0.83120 0.93070 0.07200
C 	C 	0.27506 0.68320 0.95704 0.45200
C 	C 	0.21672 0.53200 0.92782 0.39500
C 	C 	0.19151 0.51120 0.90448 -0.12200
C 	C 	0.20083 0.46330 0.88452 0.05600
H 	H 	0.22350 0.43760 0.88590 0.03300
C 	C 	0.17765 0.45120 0.86219 -0.11700
H 	H 	0.18550 0.42020 0.84780 0.07500
C 	C 	0.14348 0.48390 0.86074 0.06300
C 	C 	0.13351 0.53010 0.88068 -0.11900
H 	H 	0.11040 0.55430 0.87940 0.07300
C 	C 	0.15620 0.54300 0.90294 0.05100
H 	H 	0.14790 0.57360 0.91730 0.02900
C 	C 	0.11877 0.47920 0.83733 0.02200
C 	C 	0.11008 0.41180 0.82474 -0.08200
H 	H 	0.11940 0.36860 0.83260 0.06000
C 	C 	0.08783 0.40790 0.80069 0.02400
C 	C 	0.07546 0.47370 0.78849 -0.08400
H 	H 	0.05990 0.47180 0.77280 0.06200
C 	C 	0.08580 0.54140 0.79927 0.02700
C 	C 	0.10409 0.54050 0.82572 -0.08400
H 	H 	0.10610 0.58450 0.83560 0.06100
C 	C 	0.07480 0.33760 0.78992 0.05700
C 	C 	0.07548 0.28170 0.80644 -0.10800
H 	H 	0.08320 0.28630 0.82500 0.07100
C 	C 	0.06379 0.21130 0.79516 0.04400
H 	H 	0.06380 0.17010 0.80670 0.04300
C 	C 	0.05275 0.20410 0.76786 -0.12900
C 	C 	0.05305 0.26400 0.75184 0.05100
H 	H 	0.04350 0.26090 0.73370 0.03800
C 	C 	0.06709 0.33150 0.76121 -0.10700
H 	H 	0.07110 0.37050 0.74900 0.07200
C 	C 	0.04263 0.13290 0.75647 0.42400
C 	C 	0.06801 0.60900 0.79112 0.04200
C 	C 	0.03302 0.61560 0.77819 -0.10300
H 	H 	0.01790 0.57410 0.77620 0.07100
C 	C 	0.02085 0.67950 0.76869 0.05000
H 	H 	0.99840 0.68120 0.75860 0.03700
C 	C 	0.03981 0.74140 0.77313 -0.11100
C 	C 	0.07847 0.73710 0.78165 0.03300
H 	H 	0.09570 0.77490 0.77840 0.03900
C 	C 	0.08802 0.67430 0.79470 -0.09200
H 	H 	0.10880 0.67440 0.80660 0.06700
C 	C 	0.02650 0.81450 0.76629 0.38000
C 	C 	0.24258 0.60750 0.04420 0.41900
C 	C 	0.24313 0.65430 0.06817 -0.14900
C 	C 	0.22081 0.71580 0.06851 0.05800
H 	H 	0.20700 0.72980 0.05280 0.02700
C 	C 	0.21960 0.75650 0.09325 -0.11300
H 	H 	0.20230 0.79470 0.09490 0.07200
C 	C 	0.24326 0.74170 0.11523 0.05700
C 	C 	0.26741 0.68560 0.11310 -0.12300
H 	H 	0.28470 0.67610 0.12730 0.07600
C 	C 	0.26630 0.64230 0.08962 0.06900
H 	H 	0.28260 0.60230 0.08860 0.02800
C 	C 	0.24300 0.79000 0.13991 0.03200
C 	C 	0.20702 0.81490 0.14988 -0.09200
H 	H 	0.18470 0.80140 0.14090 0.06300
C 	C 	0.20660 0.85850 0.17280 0.03200
C 	C 	0.24048 0.88000 0.18509 -0.09600
H 	H 	0.24010 0.90900 0.20120 0.06500
C 	C 	0.27303 0.85990 0.17421 0.03600
C 	C 	0.27474 0.81550 0.15095 -0.09800
H 	H 	0.29790 0.80350 0.14300 0.06500
C 	C 	0.17071 0.88530 0.18331 0.05700
C 	C 	0.13855 0.84420 0.17999 -0.11700
H 	H 	0.13960 0.79750 0.17210 0.07500
C 	C 	0.10527 0.87310 0.18844 0.06400
H 	H 	0.08320 0.84830 0.18360 0.03200
C 	C 	0.10217 0.93450 0.20317 -0.13600
C 	C 	0.13407 0.97780 0.20412 0.05800
H 	H 	0.13240 0.02660 0.20980 0.03600
C 	C 	0.16757 0.94900 0.19684 -0.11500
H 	H 	0.18950 0.97460 0.20140 0.07400
C 	C 	0.06551 0.96270 0.21273 0.43000
C 	C 	0.30931 0.88700 0.18768 0.06000
C 	C 	0.31272 0.89260 0.21492 -0.12100
H 	H 	0.29300 0.87670 0.22630 0.07500
C 	C 	0.34386 0.92080 0.22685 0.05800
H 	H 	0.34560 0.92290 0.24630 0.03200
C 	C 	0.37307 0.94630 0.21087 -0.12900
C 	C 	0.36819 0.94150 0.18229 0.05600
H 	H 	0.38660 0.96090 0.17060 0.03500
C 	C 	0.33787 0.90990 0.17089 -0.11800
H 	H 	0.33630 0.90370 0.15160 0.07400
C 	C 	0.40661 0.97860 0.22296 0.39900
C 	C 	0.34217 0.52710 0.00321 0.40800
C 	C 	0.37629 0.55850 0.01532 -0.14300
C 	C 	0.37985 0.56490 0.04268 0.06900
H 	H 	0.36050 0.54930 0.05440 0.02800
C 	C 	0.41154 0.59400 0.05369 -0.12200
H 	H 	0.41270 0.59970 0.07300 0.07600
C 	C 	0.44147 0.61530 0.03854 0.05800
C 	C 	0.43656 0.61210 0.00965 -0.12000
H 	H 	0.45510 0.63050 0.99770 0.07500
C 	C 	0.40463 0.58220 0.99911 0.06700
H 	H 	0.40230 0.57780 0.97980 0.03100
C 	C 	0.47468 0.64760 0.04882 0.02500
C 	C 	0.47486 0.69390 0.07106 -0.08700
H 	H 	0.45180 0.71210 0.07740 0.06200
C 	C 	0.50703 0.71550 0.08469 0.02700
C 	C 	0.54024 0.69320 0.07328 -0.09100
H 	H 	0.56260 0.71100 0.08090 0.06400
C 	C 	0.54237 0.64630 0.05126 0.03300
C 	C 	0.50959 0.62190 0.03957 -0.08900
H 	H 	0.51050 0.58760 0.02510 0.06300
C 	C 	0.50660 0.76240 0.10966 0.06200
C 	C 	0.48315 0.82300 0.11118 -0.11900
H 	H 	0.46650 0.83200 0.09650 0.07400
C 	C 	0.48349 0.86950 0.13317 0.06500
H 	H 	0.46830 0.91120 0.13320 0.02900
C 	C 	0.50638 0.85460 0.15529 -0.14600
C 	C 	0.53007 0.79760 0.15261 0.07700
H 	H 	0.54790 0.79000 0.16670 0.03000
C 	C 	0.52970 0.75170 0.13136 -0.13100
H 	H 	0.54570 0.71110 0.13140 0.08000
C 	C 	0.50746 0.90020 0.17983 0.41000
C 	C 	0.57802 0.62080 0.04069 0.04500
C 	C 	0.61144 0.65650 0.04471 -0.10200
H 	H 	0.61120 0.69960 0.05520 0.06800
C 	C 	0.64518 0.63290 0.03431 0.05000
H 	H 	0.66650 0.66250 0.03540 0.03500
C 	C 	0.64702 0.56510 0.02239 -0.13000
C 	C 	0.61329 0.53020 0.01535 0.04300
H 	H 	0.61300 0.49170 0.00250 0.03000
C 	C 	0.58016 0.55430 0.02794 -0.10000
H 	H 	0.55890 0.52420 0.02760 0.06700
C 	C 	0.68188 0.53440 0.01319 0.40500
Co	Co	0.51600 0.95522 0.70956 0.34200
Co	Co	0.53737 0.02440 0.77041 0.36100
Co	Co	0.46680 0.08672 0.74133 0.29800
Co	Co	0.28721 0.52580 0.95504 0.36300
Co	Co	0.22165 0.58740 0.98480 0.28100
Co	Co	0.26640 0.45820 0.01749 0.33600
