data_crystal

_cell_length_a 20.52270
_cell_length_b 20.52270
_cell_length_c 20.52270
_cell_angle_alpha 107.11900
_cell_angle_beta  107.11900
_cell_angle_gamma 107.11900

_symmetry_space_group_name_	'P 1'
_symmetry_space_group_name_H-M	'P 1'

loop_
_symmetry_equiv_pos_as_xyz
  x,y,z

loop_
_atom_site_label
_atom_site_type_symbol
_atom_site_fract_x
_atom_site_fract_y
_atom_site_fract_z
_atom_site_charge
Fe	Fe	0.52411 0.42511 0.97585 1.21900
Fe	Fe	0.97585 0.52411 0.42511 1.21900
Fe	Fe	0.37121 0.37121 0.82457 1.23600
Fe	Fe	0.42511 0.97585 0.52411 1.21900
Fe	Fe	0.82457 0.37121 0.37121 1.23600
Fe	Fe	0.42511 0.52411 0.97585 1.21900
Fe	Fe	0.52411 0.97585 0.42511 1.21800
Fe	Fe	0.37121 0.82457 0.37121 1.23500
Fe	Fe	0.97585 0.42511 0.52411 1.21800
H 	H 	0.99990 0.41130 0.10650 0.07100
H 	H 	0.98740 0.46380 0.21620 0.00700
H 	H 	0.46380 0.98740 0.21620 0.00700
H 	H 	0.61020 0.73280 0.08090 0.03300
H 	H 	0.49090 0.36860 0.26390 0.06400
H 	H 	0.16320 0.82200 0.26430 0.01900
H 	H 	0.41450 0.73260 0.79240 0.06400
H 	H 	0.21190 0.83480 0.05220 0.08800
H 	H 	0.17270 0.52220 0.40000 0.03400
H 	H 	0.79240 0.41450 0.73260 0.06400
H 	H 	0.32665 0.32665 0.44940 0.06200
H 	H 	0.35810 0.54850 0.60720 0.07000
H 	H 	0.82200 0.26430 0.16320 0.01900
H 	H 	0.83480 0.05220 0.21190 0.08800
H 	H 	0.14670 0.71990 0.84290 0.06100
H 	H 	0.36860 0.26390 0.49090 0.06400
H 	H 	0.05220 0.21190 0.83480 0.08800
H 	H 	0.20290 0.81190 0.93440 0.05300
H 	H 	0.47620 0.35120 0.67620 0.02000
H 	H 	0.08090 0.61020 0.73280 0.03300
H 	H 	0.26430 0.82200 0.16320 0.01900
H 	H 	0.49090 0.26390 0.36860 0.06400
H 	H 	0.61020 0.08090 0.73280 0.03300
H 	H 	0.35810 0.60720 0.54850 0.07000
H 	H 	0.16320 0.26430 0.82200 0.01900
H 	H 	0.67620 0.47620 0.35120 0.02000
H 	H 	0.54850 0.35810 0.60720 0.07000
H 	H 	0.40000 0.52220 0.17270 0.03400
H 	H 	0.73260 0.79240 0.41450 0.06400
H 	H 	0.86000 0.66000 0.40540 0.01500
H 	H 	0.66000 0.40540 0.86000 0.01500
H 	H 	0.47620 0.67620 0.35120 0.02000
H 	H 	0.10650 0.99990 0.41130 0.07100
H 	H 	0.60720 0.54850 0.35810 0.07000
H 	H 	0.17270 0.40000 0.52220 0.03400
H 	H 	0.26390 0.49090 0.36860 0.06400
H 	H 	0.73280 0.08090 0.61020 0.03300
H 	H 	0.34910 0.03090 0.03090 0.14900
H 	H 	0.08090 0.73280 0.61020 0.03300
H 	H 	0.41130 0.99990 0.10650 0.07100
H 	H 	0.71990 0.84290 0.14670 0.06100
H 	H 	0.79240 0.73260 0.41450 0.06400
H 	H 	0.93440 0.81190 0.20290 0.05300
H 	H 	0.66000 0.86000 0.40540 0.01500
H 	H 	0.84290 0.14670 0.71990 0.06100
H 	H 	0.03090 0.03090 0.34910 0.14900
H 	H 	0.93440 0.20290 0.81190 0.05300
H 	H 	0.35120 0.67620 0.47620 0.02000
H 	H 	0.86000 0.40540 0.66000 0.01500
H 	H 	0.82200 0.16320 0.26430 0.01900
H 	H 	0.40540 0.86000 0.66000 0.01500
H 	H 	0.21620 0.98740 0.46380 0.00700
H 	H 	0.05220 0.83480 0.21190 0.08800
H 	H 	0.73280 0.61020 0.08090 0.03300
H 	H 	0.03090 0.34910 0.03090 0.14900
H 	H 	0.71990 0.14670 0.84290 0.06100
H 	H 	0.60720 0.35810 0.54850 0.07000
H 	H 	0.81190 0.20290 0.93440 0.05300
H 	H 	0.44940 0.32665 0.32665 0.06200
H 	H 	0.36860 0.49090 0.26390 0.06400
H 	H 	0.35120 0.47620 0.67620 0.02000
H 	H 	0.10650 0.41130 0.99990 0.07100
H 	H 	0.67620 0.35120 0.47620 0.02000
H 	H 	0.52220 0.40000 0.17270 0.03400
H 	H 	0.41130 0.10650 0.99990 0.07100
H 	H 	0.84290 0.71990 0.14670 0.06100
H 	H 	0.81190 0.93440 0.20290 0.05300
H 	H 	0.73260 0.41450 0.79240 0.06400
H 	H 	0.98740 0.21620 0.46380 0.00700
H 	H 	0.46380 0.21620 0.98740 0.00700
H 	H 	0.40000 0.17270 0.52220 0.03400
H 	H 	0.99990 0.10650 0.41130 0.07100
H 	H 	0.52220 0.17270 0.40000 0.03400
H 	H 	0.32665 0.44940 0.32665 0.06200
H 	H 	0.26430 0.16320 0.82200 0.01900
H 	H 	0.14670 0.84290 0.71990 0.06100
H 	H 	0.21190 0.05220 0.83480 0.08800
H 	H 	0.21620 0.46380 0.98740 0.00700
H 	H 	0.54850 0.60720 0.35810 0.07000
H 	H 	0.26390 0.36860 0.49090 0.06400
H 	H 	0.83480 0.21190 0.05220 0.08800
H 	H 	0.40540 0.66000 0.86000 0.01500
H 	H 	0.20290 0.93440 0.81190 0.05300
H 	H 	0.41450 0.79240 0.73260 0.06400
C 	C 	0.31893 0.39196 0.39196 0.04000
C 	C 	0.39600 0.63740 0.80860 0.06800
C 	C 	0.86577 0.08553 0.26310 -0.13800
C 	C 	0.66050 0.66050 0.07380 -0.11900
C 	C 	0.30620 0.91830 0.06790 0.08700
C 	C 	0.28050 0.99360 0.92020 0.02600
C 	C 	0.81950 0.51800 0.38450 0.43700
C 	C 	0.91830 0.30620 0.06790 0.08700
C 	C 	0.57140 0.65870 0.36830 -0.11800
C 	C 	0.40150 0.76870 0.68050 -0.12000
C 	C 	0.09510 0.47020 0.47020 0.38800
C 	C 	0.51800 0.38450 0.81950 0.43700
C 	C 	0.63740 0.39600 0.80860 0.06800
C 	C 	0.76870 0.68050 0.40150 -0.12000
C 	C 	0.26860 0.40010 0.89520 0.46100
C 	C 	0.36830 0.57140 0.65870 -0.11800
C 	C 	0.37700 0.77470 0.56100 -0.16200
C 	C 	0.38130 0.96360 0.11790 -0.14100
C 	C 	0.40010 0.26860 0.89520 0.46100
C 	C 	0.08553 0.86577 0.26310 -0.13800
C 	C 	0.48751 0.41503 0.18816 0.04500
C 	C 	0.26310 0.86577 0.08553 -0.13800
C 	C 	0.34329 0.41625 0.34329 -0.09700
C 	C 	0.18310 0.95650 0.41260 0.08900
C 	C 	0.64740 0.38780 0.69310 0.04900
C 	C 	0.06790 0.91830 0.30620 0.08700
C 	C 	0.22270 0.85820 0.93100 -0.10100
C 	C 	0.24253 0.46915 0.39642 -0.10300
C 	C 	0.45540 0.15651 0.45540 -0.12200
C 	C 	0.68050 0.76870 0.40150 -0.12000
C 	C 	0.15180 0.29420 0.85810 0.08700
C 	C 	0.09410 0.73023 0.65747 0.04200
C 	C 	0.19360 0.86355 0.86355 0.03800
C 	C 	0.79205 0.15300 0.79205 0.04000
C 	C 	0.45540 0.45540 0.15651 -0.12200
C 	C 	0.13320 0.72251 0.79559 -0.10100
C 	C 	0.72251 0.79559 0.13320 -0.10100
C 	C 	0.89520 0.40010 0.26860 0.46100
C 	C 	0.81950 0.38450 0.51800 0.43700
C 	C 	0.77470 0.56100 0.37700 -0.16200
C 	C 	0.93100 0.85820 0.22270 -0.10100
C 	C 	0.30960 0.98825 0.98825 -0.21000
C 	C 	0.41625 0.34329 0.34329 -0.09700
C 	C 	0.85810 0.29420 0.15180 0.08700
C 	C 	0.13320 0.79559 0.72251 -0.10100
C 	C 	0.79559 0.72251 0.13320 -0.10100
C 	C 	0.48751 0.18816 0.41503 0.04500
C 	C 	0.99360 0.28050 0.92020 0.02600
C 	C 	0.40150 0.68050 0.76870 -0.12000
C 	C 	0.46915 0.24253 0.39642 -0.10300
C 	C 	0.77470 0.37700 0.56100 -0.16200
C 	C 	0.06790 0.30620 0.91830 0.08700
C 	C 	0.98825 0.30960 0.98825 -0.21000
C 	C 	0.57140 0.36830 0.65870 -0.11800
C 	C 	0.38450 0.81950 0.51800 0.43700
C 	C 	0.69310 0.38780 0.64740 0.04900
C 	C 	0.96360 0.11790 0.38130 -0.14100
C 	C 	0.18816 0.48751 0.41503 0.04500
C 	C 	0.92020 0.28050 0.99360 0.02600
C 	C 	0.18310 0.41260 0.95650 0.08900
C 	C 	0.92020 0.99360 0.28050 0.02600
C 	C 	0.15651 0.45540 0.45540 -0.12200
C 	C 	0.65747 0.09410 0.73023 0.04200
C 	C 	0.69970 0.52820 0.36360 0.06600
C 	C 	0.36360 0.69970 0.52820 0.06600
C 	C 	0.46915 0.39642 0.24253 -0.10300
C 	C 	0.30620 0.06790 0.91830 0.08700
C 	C 	0.76870 0.40150 0.68050 -0.12000
C 	C 	0.07380 0.66050 0.66050 -0.11900
C 	C 	0.65747 0.73023 0.09410 0.04200
C 	C 	0.72251 0.13320 0.79559 -0.10100
C 	C 	0.03320 0.58930 0.58930 0.41200
C 	C 	0.20045 0.90335 0.36890 -0.18400
C 	C 	0.56100 0.77470 0.37700 -0.16200
C 	C 	0.91830 0.06790 0.30620 0.08700
C 	C 	0.38780 0.64740 0.69310 0.04900
C 	C 	0.89520 0.26860 0.40010 0.46100
C 	C 	0.34329 0.34329 0.41625 -0.09700
C 	C 	0.95650 0.41260 0.18310 0.08900
C 	C 	0.11790 0.38130 0.96360 -0.14100
C 	C 	0.37700 0.56100 0.77470 -0.16200
C 	C 	0.63740 0.80860 0.39600 0.06800
C 	C 	0.36360 0.52820 0.69970 0.06600
C 	C 	0.26860 0.89520 0.40010 0.46100
C 	C 	0.56100 0.37700 0.77470 -0.16200
C 	C 	0.36890 0.90335 0.20045 -0.18400
C 	C 	0.73023 0.09410 0.65747 0.04200
C 	C 	0.36830 0.65870 0.57140 -0.11800
C 	C 	0.69310 0.64740 0.38780 0.04900
C 	C 	0.80860 0.39600 0.63740 0.06800
C 	C 	0.51800 0.81950 0.38450 0.43700
C 	C 	0.26544 0.41878 0.41878 0.04400
C 	C 	0.41503 0.48751 0.18816 0.04500
C 	C 	0.66050 0.07380 0.66050 -0.11900
C 	C 	0.38780 0.69310 0.64740 0.04900
C 	C 	0.08553 0.26310 0.86577 -0.13800
C 	C 	0.36890 0.20045 0.90335 -0.18400
C 	C 	0.85820 0.22270 0.93100 -0.10100
C 	C 	0.18816 0.41503 0.48751 0.04500
C 	C 	0.29420 0.15180 0.85810 0.08700
C 	C 	0.73023 0.65747 0.09410 0.04200
C 	C 	0.93100 0.22270 0.85820 -0.10100
C 	C 	0.64740 0.69310 0.38780 0.04900
C 	C 	0.65870 0.36830 0.57140 -0.11800
C 	C 	0.41260 0.18310 0.95650 0.08900
C 	C 	0.28050 0.92020 0.99360 0.02600
C 	C 	0.15180 0.85810 0.29420 0.08700
C 	C 	0.39196 0.31893 0.39196 0.04000
C 	C 	0.39642 0.24253 0.46915 -0.10300
C 	C 	0.41503 0.18816 0.48751 0.04500
C 	C 	0.90335 0.36890 0.20045 -0.18400
C 	C 	0.85810 0.15180 0.29420 0.08700
C 	C 	0.41878 0.26544 0.41878 0.04400
C 	C 	0.95650 0.18310 0.41260 0.08900
C 	C 	0.96360 0.38130 0.11790 -0.14100
C 	C 	0.24253 0.39642 0.46915 -0.10300
C 	C 	0.86355 0.86355 0.19360 0.03800
C 	C 	0.47020 0.09510 0.47020 0.38800
C 	C 	0.26310 0.08553 0.86577 -0.13800
C 	C 	0.41878 0.41878 0.26544 0.04400
C 	C 	0.79559 0.13320 0.72251 -0.10100
C 	C 	0.69970 0.36360 0.52820 0.06600
C 	C 	0.39642 0.46915 0.24253 -0.10300
C 	C 	0.40010 0.89520 0.26860 0.46100
C 	C 	0.41260 0.95650 0.18310 0.08900
C 	C 	0.80860 0.63740 0.39600 0.06800
C 	C 	0.86577 0.26310 0.08553 -0.13800
C 	C 	0.11790 0.96360 0.38130 -0.14100
C 	C 	0.58930 0.03320 0.58930 0.41200
C 	C 	0.68050 0.40150 0.76870 -0.12000
C 	C 	0.79205 0.79205 0.15300 0.04000
C 	C 	0.38130 0.11790 0.96360 -0.14100
C 	C 	0.58930 0.58930 0.03320 0.41200
C 	C 	0.98825 0.98825 0.30960 -0.21000
C 	C 	0.15300 0.79205 0.79205 0.04000
C 	C 	0.29420 0.85810 0.15180 0.08700
C 	C 	0.20045 0.36890 0.90335 -0.18400
C 	C 	0.39600 0.80860 0.63740 0.06800
C 	C 	0.22270 0.93100 0.85820 -0.10100
C 	C 	0.09410 0.65747 0.73023 0.04200
C 	C 	0.99360 0.92020 0.28050 0.02600
C 	C 	0.52820 0.69970 0.36360 0.06600
C 	C 	0.86355 0.19360 0.86355 0.03800
C 	C 	0.85820 0.93100 0.22270 -0.10100
C 	C 	0.65870 0.57140 0.36830 -0.11800
C 	C 	0.47020 0.47020 0.09510 0.38800
C 	C 	0.38450 0.51800 0.81950 0.43700
C 	C 	0.90335 0.20045 0.36890 -0.18400
C 	C 	0.39196 0.39196 0.31893 0.04000
C 	C 	0.52820 0.36360 0.69970 0.06600
O 	O 	0.59751 0.01670 0.52979 -0.43900
O 	O 	0.40398 0.55412 0.89080 -0.44900
O 	O 	0.27937 0.36105 0.84359 -0.45700
O 	O 	0.46301 0.94223 0.31406 -0.46800
O 	O 	0.40398 0.89080 0.55412 -0.44900
O 	O 	0.92608 0.43921 0.43921 -0.66400
O 	O 	0.94223 0.46301 0.31406 -0.46800
O 	O 	0.45232 0.78969 0.36779 -0.47000
O 	O 	0.59751 0.52979 0.01670 -0.43900
O 	O 	0.94223 0.31406 0.46301 -0.46800
O 	O 	0.06921 0.44094 0.50885 -0.42200
O 	O 	0.27937 0.84359 0.36105 -0.45700
O 	O 	0.36105 0.84359 0.27937 -0.45700
O 	O 	0.06921 0.50885 0.44094 -0.42200
O 	O 	0.78969 0.36779 0.45232 -0.47000
O 	O 	0.43921 0.43921 0.92608 -0.66400
O 	O 	0.50885 0.06921 0.44094 -0.42200
O 	O 	0.89080 0.55412 0.40398 -0.44900
O 	O 	0.50885 0.44094 0.06921 -0.42200
O 	O 	0.46301 0.31406 0.94223 -0.46800
O 	O 	0.84359 0.36105 0.27937 -0.45700
O 	O 	0.36779 0.78969 0.45232 -0.47000
O 	O 	0.44094 0.06921 0.50885 -0.42200
O 	O 	0.55412 0.40398 0.89080 -0.44900
O 	O 	0.78969 0.45232 0.36779 -0.47000
O 	O 	0.84359 0.27937 0.36105 -0.45700
O 	O 	0.89080 0.40398 0.55412 -0.44900
O 	O 	0.45232 0.36779 0.78969 -0.47000
O 	O 	0.44094 0.50885 0.06921 -0.42200
O 	O 	0.52979 0.01670 0.59751 -0.43900
O 	O 	0.55412 0.89080 0.40398 -0.44900
O 	O 	0.36779 0.45232 0.78969 -0.47000
O 	O 	0.36105 0.27937 0.84359 -0.45700
O 	O 	0.01670 0.59751 0.52979 -0.43900
O 	O 	0.52979 0.59751 0.01670 -0.43900
O 	O 	0.31406 0.46301 0.94223 -0.46800
O 	O 	0.43921 0.92608 0.43921 -0.66400
O 	O 	0.31406 0.94223 0.46301 -0.46800
O 	O 	0.01670 0.52979 0.59751 -0.43900
