data_crystal

_cell_length_a 24.95270
_cell_length_b 24.95270
_cell_length_c 24.95270
_cell_angle_alpha 87.98660
_cell_angle_beta  87.98660
_cell_angle_gamma 87.98660

_symmetry_space_group_name_	'P 1'
_symmetry_space_group_name_H-M	'P 1'

loop_
_symmetry_equiv_pos_as_xyz
  x,y,z

loop_
_atom_site_label
_atom_site_type_symbol
_atom_site_fract_x
_atom_site_fract_y
_atom_site_fract_z
_atom_site_charge
Fe	Fe	0.87002 0.86993 0.35266 1.22700
Fe	Fe	0.32265 0.74627 0.84126 1.22400
Fe	Fe	0.35266 0.87002 0.86993 1.22700
Fe	Fe	0.74657 0.32289 0.84126 1.24000
Fe	Fe	0.84126 0.74657 0.32289 1.24000
Fe	Fe	0.84126 0.32265 0.74627 1.22300
Fe	Fe	0.32289 0.84126 0.74657 1.24000
Fe	Fe	0.74627 0.84126 0.32265 1.22300
Fe	Fe	0.86993 0.35266 0.87002 1.22600
H 	H 	0.22270 0.96610 0.72840 0.00300
H 	H 	0.93770 0.54080 0.64240 0.06700
H 	H 	0.80020 0.17900 0.68530 -0.01300
H 	H 	0.45960 0.67630 0.90370 0.02500
H 	H 	0.02910 0.13620 0.73480 0.11600
H 	H 	0.93600 0.50110 0.82720 0.02500
H 	H 	0.99530 0.88600 0.22790 -0.00700
H 	H 	0.56190 0.56030 0.67800 0.05700
H 	H 	0.87970 0.00380 0.24880 -0.00900
H 	H 	0.74230 0.03450 0.62550 0.05500
H 	H 	0.82600 0.49830 0.94600 0.02900
H 	H 	0.51640 0.72220 0.61050 0.07100
H 	H 	0.62550 0.74230 0.03450 0.05500
H 	H 	0.88410 0.06560 0.17600 0.11300
H 	H 	0.69190 0.47800 0.58470 0.07200
H 	H 	0.50110 0.82720 0.93600 0.02500
H 	H 	0.79260 0.58310 0.97050 0.06600
H 	H 	0.67630 0.90370 0.45960 0.02500
H 	H 	0.06560 0.17600 0.88410 0.11300
H 	H 	0.00380 0.24880 0.87970 -0.00900
H 	H 	0.79340 0.96890 0.58270 0.07000
H 	H 	0.56030 0.67800 0.56190 0.05700
H 	H 	0.96710 0.20890 0.73010 -0.00700
H 	H 	0.74600 0.62910 0.02960 0.05500
H 	H 	0.88600 0.22790 0.99530 -0.00700
H 	H 	0.20890 0.73010 0.96710 -0.00700
H 	H 	0.45930 0.90550 0.67660 0.03000
H 	H 	0.76880 0.65850 0.44850 0.01600
H 	H 	0.17600 0.88410 0.06560 0.11300
H 	H 	0.73990 0.41010 0.63130 0.01600
H 	H 	0.62710 0.62780 0.92300 0.06100
H 	H 	0.44850 0.76880 0.65850 0.01600
H 	H 	0.06880 0.87420 0.16890 0.11300
H 	H 	0.58470 0.69190 0.47800 0.07200
H 	H 	0.54060 0.94010 0.64290 0.06500
H 	H 	0.61050 0.51640 0.72220 0.07100
H 	H 	0.03450 0.62550 0.74230 0.05500
H 	H 	0.58270 0.79340 0.96890 0.07000
H 	H 	0.67660 0.45930 0.90550 0.03000
H 	H 	0.67800 0.56190 0.56030 0.05700
H 	H 	0.41010 0.63130 0.73990 0.01600
H 	H 	0.49830 0.94600 0.82600 0.02900
H 	H 	0.47800 0.58470 0.69190 0.07200
H 	H 	0.82720 0.93600 0.50110 0.02500
H 	H 	0.63130 0.73990 0.41010 0.01600
H 	H 	0.64290 0.54060 0.94010 0.06500
H 	H 	0.65960 0.77580 0.09410 0.09200
H 	H 	0.96890 0.58270 0.79340 0.07000
H 	H 	0.03920 0.71670 0.16310 0.11000
H 	H 	0.94010 0.64290 0.54060 0.06500
H 	H 	0.16310 0.03920 0.71670 0.11000
H 	H 	0.96610 0.72840 0.22270 0.00300
H 	H 	0.17900 0.68530 0.80020 -0.01300
H 	H 	0.65640 0.09420 0.77380 0.08800
H 	H 	0.54080 0.64240 0.93770 0.06700
H 	H 	0.77580 0.09410 0.65960 0.09200
H 	H 	0.17870 0.80020 0.68170 -0.00600
H 	H 	0.22790 0.99530 0.88600 -0.00700
H 	H 	0.72840 0.22270 0.96610 0.00300
H 	H 	0.13620 0.73480 0.02910 0.11600
H 	H 	0.72220 0.61050 0.51640 0.07100
H 	H 	0.64240 0.93770 0.54080 0.06700
H 	H 	0.58310 0.97050 0.79260 0.06600
H 	H 	0.73480 0.02910 0.13620 0.11600
H 	H 	0.90550 0.67660 0.45930 0.03000
H 	H 	0.90370 0.45960 0.67630 0.02500
H 	H 	0.71670 0.16310 0.03920 0.11000
H 	H 	0.02960 0.74600 0.62910 0.05500
H 	H 	0.62910 0.02960 0.74600 0.05500
H 	H 	0.65850 0.44850 0.76880 0.01600
H 	H 	0.87420 0.16890 0.06880 0.11300
H 	H 	0.97050 0.79260 0.58310 0.06600
H 	H 	0.94600 0.82600 0.49830 0.02900
H 	H 	0.68530 0.80020 0.17900 -0.01300
H 	H 	0.68170 0.17870 0.80020 -0.00600
H 	H 	0.73010 0.96710 0.20890 -0.00700
H 	H 	0.80020 0.68170 0.17870 -0.00600
H 	H 	0.16890 0.06880 0.87420 0.11300
H 	H 	0.62780 0.92300 0.62710 0.06100
H 	H 	0.92300 0.62710 0.62780 0.06100
H 	H 	0.77380 0.65640 0.09420 0.08800
H 	H 	0.09410 0.65960 0.77580 0.09200
H 	H 	0.09420 0.77380 0.65640 0.08800
H 	H 	0.24880 0.87970 0.00380 -0.00900
C 	C 	0.37571 0.73310 0.73069 0.47600
C 	C 	0.70367 0.42295 0.70448 -0.16700
C 	C 	0.79457 0.15986 0.06030 0.19400
C 	C 	0.91702 0.48461 0.70004 0.05100
C 	C 	0.62202 0.68507 0.47202 -0.12700
C 	C 	0.66523 0.45451 0.73140 0.07200
C 	C 	0.22595 0.85014 0.00896 0.15900
C 	C 	0.84458 0.17958 0.04763 -0.22000
C 	C 	0.91643 0.47291 0.75496 -0.14200
C 	C 	0.68814 0.75664 0.11124 -0.19100
C 	C 	0.76958 0.95572 0.55775 -0.11700
C 	C 	0.62111 0.97293 0.69012 0.03100
C 	C 	0.03018 0.75128 0.17621 -0.21300
C 	C 	0.57859 0.57764 0.64757 -0.08900
C 	C 	0.70021 0.48404 0.91937 0.03900
C 	C 	0.68857 0.03969 0.68868 0.01100
C 	C 	0.95272 0.64280 0.64334 -0.09300
C 	C 	0.93711 0.53284 0.67993 -0.11200
C 	C 	0.80449 0.98004 0.23530 -0.23900
C 	C 	0.97589 0.61850 0.68827 0.02800
C 	C 	0.93290 0.80680 0.27230 0.50800
C 	C 	0.06030 0.79457 0.15986 0.19400
C 	C 	0.08665 0.71343 0.71304 0.10400
C 	C 	0.20224 0.76144 0.98724 0.15500
C 	C 	0.23111 0.97419 0.80823 -0.23600
C 	C 	0.74760 0.18340 0.74970 -0.30900
C 	C 	0.64661 0.50360 0.64897 0.06000
C 	C 	0.21168 0.98703 0.75818 0.14400
C 	C 	0.80310 0.93570 0.27320 0.49000
C 	C 	0.74970 0.74760 0.18340 -0.30900
C 	C 	0.15054 0.80978 0.05225 0.20600
C 	C 	0.71116 0.01904 0.64171 -0.08300
C 	C 	0.63670 0.49482 0.70369 -0.12500
C 	C 	0.23730 0.76850 0.75320 0.79300
C 	C 	0.64280 0.64334 0.95272 -0.09300
C 	C 	0.05225 0.15054 0.80978 0.20600
C 	C 	0.50930 0.78966 0.93606 0.06200
C 	C 	0.73069 0.37571 0.73310 0.47600
C 	C 	0.78905 0.50773 0.94211 0.05000
C 	C 	0.75320 0.23730 0.76850 0.79300
C 	C 	0.95589 0.76941 0.55835 -0.10900
C 	C 	0.80978 0.05225 0.15054 0.20600
C 	C 	0.53360 0.93649 0.68051 -0.10400
C 	C 	0.97293 0.69012 0.62111 0.03100
C 	C 	0.71357 0.43172 0.64978 0.07300
C 	C 	0.70369 0.63670 0.49482 -0.12500
C 	C 	0.68051 0.53360 0.93649 -0.10400
C 	C 	0.18291 0.85283 0.04550 -0.22900
C 	C 	0.47202 0.62202 0.68507 -0.12700
C 	C 	0.45451 0.73140 0.66523 0.07200
C 	C 	0.70472 0.77242 0.16072 0.17900
C 	C 	0.11124 0.68814 0.75664 -0.19100
C 	C 	0.55587 0.62485 0.62578 0.02700
C 	C 	0.64978 0.71357 0.43172 0.07300
C 	C 	0.64171 0.71116 0.01904 -0.08300
C 	C 	0.27320 0.80310 0.93570 0.49000
C 	C 	0.94211 0.78905 0.50773 0.05000
C 	C 	0.50360 0.64897 0.64661 0.06000
C 	C 	0.00896 0.22595 0.85014 0.15900
C 	C 	0.97419 0.80823 0.23111 -0.23600
C 	C 	0.70448 0.70367 0.42295 -0.16700
C 	C 	0.50773 0.94211 0.78905 0.05000
C 	C 	0.68507 0.47202 0.62202 -0.12700
C 	C 	0.47291 0.75496 0.91643 -0.14200
C 	C 	0.64397 0.01615 0.71329 -0.08300
C 	C 	0.64757 0.57859 0.57764 -0.08900
C 	C 	0.75664 0.11124 0.68814 -0.19100
C 	C 	0.89882 0.77032 0.42002 0.37700
C 	C 	0.17958 0.04763 0.84458 -0.22000
C 	C 	0.68827 0.97589 0.61850 0.02800
C 	C 	0.71304 0.08665 0.71343 0.10400
C 	C 	0.85146 0.21486 0.00436 0.15700
C 	C 	0.91937 0.70021 0.48404 0.03900
C 	C 	0.04550 0.18291 0.85283 -0.22900
C 	C 	0.69012 0.62111 0.97293 0.03100
C 	C 	0.15986 0.06030 0.79457 0.19400
C 	C 	0.71329 0.64397 0.01615 -0.08300
C 	C 	0.98724 0.20224 0.76144 0.15500
C 	C 	0.56945 0.71469 0.95628 0.05300
C 	C 	0.76993 0.89623 0.42033 0.40100
C 	C 	0.62485 0.62578 0.55587 0.02700
C 	C 	0.93570 0.27320 0.80310 0.49000
C 	C 	0.73140 0.66523 0.45451 0.07200
C 	C 	0.27230 0.93290 0.80680 0.50800
C 	C 	0.68868 0.68857 0.03969 0.01100
C 	C 	0.94832 0.71588 0.57301 0.04700
C 	C 	0.48461 0.70004 0.91702 0.05100
C 	C 	0.75469 0.47081 0.92273 -0.12400
C 	C 	0.62578 0.55587 0.62485 0.02700
C 	C 	0.67993 0.93711 0.53284 -0.11200
C 	C 	0.75128 0.17621 0.03018 -0.21300
C 	C 	0.76144 0.98724 0.20224 0.15500
C 	C 	0.00436 0.85146 0.21486 0.15700
C 	C 	0.55775 0.76958 0.95572 -0.11700
C 	C 	0.75818 0.21168 0.98703 0.14400
C 	C 	0.73310 0.73069 0.37571 0.47600
C 	C 	0.49482 0.70369 0.63670 -0.12500
C 	C 	0.21486 0.00436 0.85146 0.15700
C 	C 	0.95628 0.56945 0.71469 0.05300
C 	C 	0.04763 0.84458 0.17958 -0.22000
C 	C 	0.48404 0.91937 0.70021 0.03900
C 	C 	0.75496 0.91643 0.47291 -0.14200
C 	C 	0.68591 0.11121 0.75611 -0.17600
C 	C 	0.17621 0.03018 0.75128 -0.21300
C 	C 	0.57301 0.94832 0.71588 0.04700
C 	C 	0.53284 0.67993 0.93711 -0.11200
C 	C 	0.11121 0.75611 0.68591 -0.17600
C 	C 	0.15929 0.76419 0.02381 -0.22500
C 	C 	0.16057 0.77289 0.70191 0.15000
C 	C 	0.01904 0.64171 0.71116 -0.08300
C 	C 	0.78966 0.93606 0.50930 0.06200
C 	C 	0.85014 0.00896 0.22595 0.15900
C 	C 	0.23530 0.80449 0.98004 -0.23900
C 	C 	0.77032 0.42002 0.89882 0.37700
C 	C 	0.57764 0.64757 0.57859 -0.08900
C 	C 	0.75611 0.68591 0.11121 -0.17600
C 	C 	0.76419 0.02381 0.15929 -0.22500
C 	C 	0.98004 0.23530 0.80449 -0.23900
C 	C 	0.16072 0.70472 0.77242 0.17900
C 	C 	0.76941 0.55835 0.95589 -0.10900
C 	C 	0.71588 0.57301 0.94832 0.04700
C 	C 	0.64334 0.95272 0.64280 -0.09300
C 	C 	0.80680 0.27230 0.93290 0.50800
C 	C 	0.89623 0.42033 0.76993 0.40100
C 	C 	0.93606 0.50930 0.78966 0.06200
C 	C 	0.47081 0.92273 0.75469 -0.12400
C 	C 	0.70191 0.16057 0.77289 0.15000
C 	C 	0.55835 0.95589 0.76941 -0.10900
C 	C 	0.71343 0.71304 0.08665 0.10400
C 	C 	0.42033 0.76993 0.89623 0.40100
C 	C 	0.92273 0.75469 0.47081 -0.12400
C 	C 	0.42295 0.70448 0.70367 -0.16700
C 	C 	0.71469 0.95628 0.56945 0.05300
C 	C 	0.93649 0.68051 0.53360 -0.10400
C 	C 	0.77289 0.70191 0.16057 0.15000
C 	C 	0.77242 0.16072 0.70472 0.17900
C 	C 	0.98703 0.75818 0.21168 0.14400
C 	C 	0.42002 0.89882 0.77032 0.37700
C 	C 	0.85283 0.04550 0.18291 -0.22900
C 	C 	0.80823 0.23111 0.97419 -0.23600
C 	C 	0.01615 0.71329 0.64397 -0.08300
C 	C 	0.03969 0.68868 0.68857 0.01100
C 	C 	0.70004 0.91702 0.48461 0.05100
C 	C 	0.76850 0.75320 0.23730 0.79300
C 	C 	0.61850 0.68827 0.97589 0.02800
C 	C 	0.02381 0.15929 0.76419 -0.22500
C 	C 	0.64897 0.64661 0.50360 0.06000
C 	C 	0.18340 0.74970 0.74760 -0.30900
C 	C 	0.95572 0.55775 0.76958 -0.11700
C 	C 	0.43172 0.64978 0.71357 0.07300
N 	N 	0.81258 0.08875 0.10761 -0.10800
N 	N 	0.12433 0.10280 0.77932 -0.10100
N 	N 	0.77932 0.12433 0.10280 -0.10100
N 	N 	0.10280 0.77932 0.12433 -0.10100
N 	N 	0.08875 0.10761 0.81258 -0.10800
N 	N 	0.10761 0.81258 0.08875 -0.10800
O 	O 	0.84752 0.92392 0.29492 -0.45400
O 	O 	0.25139 0.74299 0.79399 -0.52300
O 	O 	0.79399 0.25139 0.74299 -0.52300
O 	O 	0.84599 0.29389 0.92369 -0.49700
O 	O 	0.76358 0.91048 0.28028 -0.47900
O 	O 	0.91048 0.28028 0.76358 -0.47900
O 	O 	0.77459 0.36022 0.71411 -0.46200
O 	O 	0.41346 0.90429 0.82328 -0.40400
O 	O 	0.38733 0.74102 0.88164 -0.48200
O 	O 	0.28223 0.91103 0.76093 -0.45000
O 	O 	0.73932 0.38853 0.88154 -0.45900
O 	O 	0.74102 0.88164 0.38733 -0.48200
O 	O 	0.29389 0.92369 0.84599 -0.49700
O 	O 	0.71411 0.77459 0.36022 -0.46200
O 	O 	0.90164 0.41348 0.82396 -0.41000
O 	O 	0.82075 0.33542 0.82076 -0.65700
O 	O 	0.25236 0.80297 0.73820 -0.68100
O 	O 	0.71451 0.35940 0.77576 -0.48000
O 	O 	0.92369 0.84599 0.29389 -0.49700
O 	O 	0.74299 0.79399 0.25139 -0.52300
O 	O 	0.38853 0.88154 0.73932 -0.45900
O 	O 	0.91103 0.76093 0.28223 -0.45000
O 	O 	0.33542 0.82076 0.82075 -0.65700
O 	O 	0.82328 0.41346 0.90429 -0.40400
O 	O 	0.92392 0.29492 0.84752 -0.45400
O 	O 	0.82076 0.82075 0.33542 -0.65700
O 	O 	0.80297 0.73820 0.25236 -0.68100
O 	O 	0.35940 0.77576 0.71451 -0.48000
O 	O 	0.88154 0.73932 0.38853 -0.45900
O 	O 	0.73820 0.25236 0.80297 -0.68100
O 	O 	0.36022 0.71411 0.77459 -0.46200
O 	O 	0.90429 0.82328 0.41346 -0.40400
O 	O 	0.76093 0.28223 0.91103 -0.45000
O 	O 	0.88164 0.38733 0.74102 -0.48200
O 	O 	0.77576 0.71451 0.35940 -0.48000
O 	O 	0.29492 0.84752 0.92392 -0.45400
O 	O 	0.41348 0.82396 0.90164 -0.41000
O 	O 	0.82396 0.90164 0.41348 -0.41000
O 	O 	0.28028 0.76358 0.91048 -0.47900
