data_crystal

_cell_length_a 14.92080
_cell_length_b 38.39800
_cell_length_c 41.28000
_cell_angle_alpha 90.00000
_cell_angle_beta  90.00000
_cell_angle_gamma 90.00000

_symmetry_space_group_name_	'P 1'
_symmetry_space_group_name_H-M	'P 1'

loop_
_symmetry_equiv_pos_as_xyz
  x,y,z

loop_
_atom_site_label
_atom_site_type_symbol
_atom_site_fract_x
_atom_site_fract_y
_atom_site_fract_z
_atom_site_charge
Fe	Fe	0.24727 0.25000 0.65692 1.22700
Fe	Fe	0.92780 0.75000 0.39192 1.23300
Fe	Fe	0.04004 0.75000 0.81263 1.21900
Fe	Fe	0.95996 0.75000 0.31263 1.21900
Fe	Fe	0.07220 0.25000 0.60808 1.23300
Fe	Fe	0.75273 0.25000 0.15692 1.22700
Fe	Fe	0.04004 0.25000 0.68737 1.21900
Fe	Fe	0.75273 0.75000 0.34308 1.22700
Fe	Fe	0.07220 0.75000 0.89192 1.23300
Fe	Fe	0.95996 0.25000 0.18737 1.21900
Fe	Fe	0.24727 0.75000 0.84308 1.22800
Fe	Fe	0.92780 0.25000 0.10808 1.23400
H 	H 	0.17260 0.83050 0.95180 0.00300
H 	H 	0.43610 0.04340 0.82660 -0.03300
H 	H 	0.60710 0.82160 0.40150 0.00600
H 	H 	0.77870 0.45070 0.09100 -0.01200
H 	H 	0.14110 0.43300 0.96090 0.03700
H 	H 	0.42450 0.99320 0.86070 0.17100
H 	H 	0.57040 0.03080 0.64850 -0.01600
H 	H 	0.01180 0.96100 0.51800 0.05400
H 	H 	0.85890 0.56700 0.03910 0.03700
H 	H 	0.39790 0.49360 0.97610 0.16800
H 	H 	0.36820 0.54580 0.90500 0.17600
H 	H 	0.40100 0.41390 0.98200 0.01900
H 	H 	0.75890 0.86940 0.48550 0.08800
H 	H 	0.60590 0.08080 0.28600 0.09800
H 	H 	0.10300 0.07950 0.57060 0.08500
H 	H 	0.82740 0.83050 0.45180 0.00300
H 	H 	0.55440 0.56610 0.93980 -0.01000
H 	H 	0.27370 0.12810 0.17300 0.07000
H 	H 	0.70100 0.07900 0.00070 0.07100
H 	H 	0.39590 0.92230 0.57990 0.19200
H 	H 	0.46990 0.37620 0.01770 0.07300
H 	H 	0.10300 0.83190 0.41160 0.02200
H 	H 	0.46990 0.87620 0.48230 0.07300
H 	H 	0.40100 0.58610 0.51800 0.01900
H 	H 	0.42010 0.01940 0.42130 0.17100
H 	H 	0.10110 0.67300 0.74150 0.01800
H 	H 	0.59900 0.08610 0.48200 0.01900
H 	H 	0.66000 0.03820 0.46480 0.17700
H 	H 	0.27370 0.87190 0.32700 0.06900
H 	H 	0.89570 0.64530 0.97680 0.04800
H 	H 	0.42010 0.51940 0.07870 0.17100
H 	H 	0.50600 0.98190 0.63300 0.17100
H 	H 	0.48810 0.93020 0.59660 0.17900
H 	H 	0.72360 0.58950 0.11540 -0.00500
H 	H 	0.34450 0.10840 0.07230 0.08600
H 	H 	0.36450 0.54280 0.03580 -0.00100
H 	H 	0.42960 0.96920 0.35150 -0.01600
H 	H 	0.39410 0.58080 0.71400 0.09800
H 	H 	0.46450 0.85980 0.93590 0.08700
H 	H 	0.63550 0.04280 0.96420 -0.00100
H 	H 	0.39410 0.41920 0.78600 0.09800
H 	H 	0.83150 0.66990 0.81800 0.01800
H 	H 	0.14540 0.63550 0.70230 0.06900
H 	H 	0.27640 0.08950 0.88460 -0.00500
H 	H 	0.60710 0.67840 0.40150 0.00600
H 	H 	0.46450 0.14020 0.56410 0.08700
H 	H 	0.83150 0.83010 0.81800 0.01800
H 	H 	0.79350 0.37450 0.58000 0.07600
H 	H 	0.73540 0.96210 0.08950 0.18000
H 	H 	0.54660 0.00510 0.55080 0.17000
H 	H 	0.26460 0.96210 0.58950 0.18000
H 	H 	0.32410 0.07150 0.16050 0.08300
H 	H 	0.36820 0.45420 0.59500 0.17600
H 	H 	0.83150 0.16990 0.68200 0.01800
H 	H 	0.60210 0.99360 0.02390 0.16800
H 	H 	0.48810 0.43020 0.90340 0.17900
H 	H 	0.34210 0.67030 0.78010 0.02000
H 	H 	0.39790 0.99360 0.52390 0.16800
H 	H 	0.29900 0.57900 0.99930 0.07100
H 	H 	0.79350 0.62550 0.92000 0.07600
H 	H 	0.61290 0.36770 0.25950 0.06600
H 	H 	0.53550 0.85980 0.43590 0.08700
H 	H 	0.14110 0.56700 0.53910 0.03700
H 	H 	0.24110 0.86940 0.98550 0.08900
H 	H 	0.42450 0.49320 0.63930 0.17100
H 	H 	0.39590 0.57770 0.57990 0.19200
H 	H 	0.34000 0.53820 0.53520 0.17700
H 	H 	0.39410 0.91920 0.71400 0.09800
H 	H 	0.39290 0.17840 0.59850 0.00600
H 	H 	0.50600 0.01810 0.86700 0.17100
H 	H 	0.48810 0.06980 0.90340 0.17900
H 	H 	0.83150 0.33010 0.68200 0.01800
H 	H 	0.32410 0.42850 0.16050 0.08300
H 	H 	0.38710 0.86770 0.74050 0.06600
H 	H 	0.61290 0.63230 0.24050 0.06600
H 	H 	0.42450 0.00680 0.63930 0.17100
H 	H 	0.14540 0.36450 0.79770 0.06900
H 	H 	0.10110 0.82700 0.74150 0.01800
H 	H 	0.79350 0.12550 0.58000 0.07600
H 	H 	0.89890 0.67300 0.24150 0.01800
H 	H 	0.46450 0.35980 0.56410 0.08700
H 	H 	0.10300 0.92050 0.92940 0.08600
H 	H 	0.72500 0.50570 0.11260 0.17300
H 	H 	0.70100 0.57900 0.49930 0.07200
H 	H 	0.57990 0.98060 0.57870 0.17100
H 	H 	0.32410 0.92850 0.33950 0.08300
H 	H 	0.63180 0.54580 0.40500 0.17600
H 	H 	0.10300 0.33190 0.08840 0.02200
H 	H 	0.87250 0.52810 0.51160 0.07900
H 	H 	0.53550 0.64020 0.43590 0.08700
H 	H 	0.66000 0.53820 0.03520 0.17700
H 	H 	0.39290 0.32160 0.59850 0.00600
H 	H 	0.39410 0.08080 0.78600 0.09800
H 	H 	0.63550 0.45720 0.96420 -0.00100
H 	H 	0.34450 0.39160 0.07230 0.08600
H 	H 	0.42010 0.98060 0.07870 0.17100
H 	H 	0.89700 0.92050 0.42940 0.08500
H 	H 	0.57040 0.96920 0.85150 -0.01600
H 	H 	0.43610 0.54340 0.67340 -0.03300
H 	H 	0.23000 0.87400 0.65670 0.09600
H 	H 	0.66000 0.46180 0.46480 0.17700
H 	H 	0.59900 0.41390 0.48200 0.01900
H 	H 	0.41510 0.95410 0.93900 0.17900
H 	H 	0.42010 0.48060 0.42130 0.17100
H 	H 	0.59900 0.91390 0.01800 0.01900
H 	H 	0.46990 0.12380 0.01770 0.07300
H 	H 	0.89890 0.32700 0.25850 0.01800
H 	H 	0.70100 0.42100 0.00070 0.07100
H 	H 	0.73540 0.53790 0.08950 0.18000
H 	H 	0.12750 0.47190 0.48840 0.07900
H 	H 	0.72630 0.37190 0.67300 0.06900
H 	H 	0.75570 0.99540 0.01150 -0.00900
H 	H 	0.77870 0.54930 0.40900 -0.01200
H 	H 	0.10300 0.42050 0.57060 0.08500
H 	H 	0.60590 0.41920 0.28600 0.09800
H 	H 	0.60710 0.17840 0.09850 0.00600
H 	H 	0.22130 0.54930 0.90900 -0.01200
H 	H 	0.45340 0.50510 0.44920 0.17000
H 	H 	0.51190 0.06980 0.40340 0.17900
H 	H 	0.14540 0.13550 0.79770 0.06900
H 	H 	0.72500 0.99430 0.11260 0.17300
H 	H 	0.39790 0.00640 0.97610 0.16800
H 	H 	0.61290 0.13230 0.25950 0.06600
H 	H 	0.72630 0.62810 0.82700 0.06900
H 	H 	0.36450 0.95720 0.03580 -0.00100
H 	H 	0.14110 0.06700 0.96090 0.03700
H 	H 	0.57040 0.46920 0.64850 -0.01600
H 	H 	0.58490 0.95410 0.43900 0.17900
H 	H 	0.57550 0.99320 0.36070 0.17100
H 	H 	0.43610 0.45660 0.82660 -0.03300
H 	H 	0.40100 0.08610 0.98200 0.01900
H 	H 	0.17260 0.66950 0.95180 0.00300
H 	H 	0.16850 0.83010 0.31800 0.01800
H 	H 	0.38710 0.63230 0.74050 0.06600
H 	H 	0.34000 0.46180 0.96480 0.17700
H 	H 	0.82740 0.66950 0.45180 0.00300
H 	H 	0.63180 0.04580 0.09500 0.17600
H 	H 	0.26460 0.03790 0.91050 0.18000
H 	H 	0.34000 0.96180 0.53520 0.17700
H 	H 	0.20650 0.87450 0.42000 0.07600
H 	H 	0.49400 0.48190 0.36700 0.17100
H 	H 	0.57990 0.01940 0.92130 0.17100
H 	H 	0.12750 0.52810 0.01160 0.07900
H 	H 	0.89700 0.33190 0.58840 0.02200
H 	H 	0.75890 0.63060 0.48550 0.08900
H 	H 	0.03710 0.88220 0.96100 0.05500
H 	H 	0.60590 0.91920 0.21400 0.09800
H 	H 	0.57040 0.53080 0.85150 -0.01600
H 	H 	0.77870 0.04930 0.09100 -0.01200
H 	H 	0.36450 0.45720 0.46420 -0.00100
H 	H 	0.85460 0.13550 0.29770 0.06900
H 	H 	0.10110 0.32700 0.75850 0.01800
H 	H 	0.44560 0.06610 0.06020 -0.01000
H 	H 	0.39590 0.07770 0.92010 0.19200
H 	H 	0.49400 0.98190 0.13300 0.17100
H 	H 	0.58490 0.54590 0.43900 0.17900
H 	H 	0.20650 0.37450 0.08000 0.07600
H 	H 	0.22130 0.04930 0.59100 -0.01200
H 	H 	0.43610 0.95660 0.67340 -0.03300
H 	H 	0.57550 0.49320 0.13930 0.17100
H 	H 	0.89570 0.14530 0.52320 0.04800
H 	H 	0.55440 0.93390 0.93980 -0.01000
H 	H 	0.54660 0.49490 0.55080 0.17000
H 	H 	0.63550 0.54280 0.53580 -0.00100
H 	H 	0.89700 0.07950 0.07060 0.08600
H 	H 	0.10430 0.14530 0.02320 0.04800
H 	H 	0.29900 0.07900 0.50070 0.07200
H 	H 	0.22130 0.95070 0.90900 -0.01200
H 	H 	0.36820 0.95420 0.90500 0.17600
H 	H 	0.67590 0.42850 0.66050 0.08300
H 	H 	0.70100 0.92100 0.49930 0.07200
H 	H 	0.32410 0.57150 0.33950 0.08300
H 	H 	0.27500 0.49430 0.88740 0.17300
H 	H 	0.53010 0.87620 0.98230 0.07300
H 	H 	0.27640 0.41050 0.88460 -0.00500
H 	H 	0.12750 0.97190 0.01160 0.07900
H 	H 	0.85890 0.93300 0.03910 0.03700
H 	H 	0.57550 0.00680 0.13930 0.17100
H 	H 	0.39290 0.82160 0.90150 0.00600
H 	H 	0.56390 0.54340 0.17340 -0.03300
H 	H 	0.14540 0.86450 0.70230 0.06900
H 	H 	0.98820 0.03900 0.48200 0.05400
H 	H 	0.01180 0.46100 0.98200 0.05300
H 	H 	0.89700 0.83190 0.91160 0.02200
H 	H 	0.53010 0.12380 0.51770 0.07300
H 	H 	0.41510 0.54590 0.93900 0.17900
H 	H 	0.85460 0.63550 0.20230 0.06900
H 	H 	0.54660 0.99490 0.94920 0.17000
H 	H 	0.24110 0.63060 0.98550 0.08900
H 	H 	0.75570 0.50460 0.01150 -0.00900
H 	H 	0.60410 0.42230 0.42010 0.19200
H 	H 	0.41510 0.45410 0.56100 0.17900
H 	H 	0.85460 0.86450 0.20230 0.06900
H 	H 	0.89700 0.57950 0.42940 0.08500
H 	H 	0.53550 0.14020 0.06410 0.08700
H 	H 	0.60210 0.49360 0.47610 0.16800
H 	H 	0.23000 0.37400 0.84330 0.09600
H 	H 	0.51190 0.93020 0.09660 0.17900
H 	H 	0.65550 0.60840 0.92770 0.08600
H 	H 	0.89890 0.82700 0.24150 0.01800
H 	H 	0.20650 0.12550 0.08000 0.07600
H 	H 	0.51190 0.43020 0.40340 0.17900
H 	H 	0.14110 0.93300 0.53910 0.03700
H 	H 	0.73540 0.46210 0.41050 0.18000
H 	H 	0.34450 0.89160 0.42770 0.08600
H 	H 	0.24430 0.49540 0.98850 -0.00900
H 	H 	0.60410 0.57770 0.07990 0.19200
H 	H 	0.77000 0.87400 0.15670 0.09600
H 	H 	0.72360 0.08950 0.38460 -0.00500
H 	H 	0.72360 0.91050 0.11540 -0.00500
H 	H 	0.63180 0.95420 0.40500 0.17600
H 	H 	0.45340 0.49490 0.05080 0.17000
H 	H 	0.38710 0.36770 0.75950 0.06600
H 	H 	0.24110 0.36940 0.51450 0.08900
H 	H 	0.75890 0.36940 0.01450 0.08900
H 	H 	0.72500 0.49430 0.38740 0.17300
H 	H 	0.65550 0.10840 0.57230 0.08600
H 	H 	0.60410 0.92230 0.07990 0.19200
H 	H 	0.17260 0.16950 0.54820 0.00300
H 	H 	0.75570 0.49540 0.48850 -0.00900
H 	H 	0.56390 0.04340 0.32660 -0.03300
H 	H 	0.55440 0.43390 0.56020 -0.01000
H 	H 	0.16850 0.16990 0.18200 0.01800
H 	H 	0.98820 0.46100 0.48200 0.05400
H 	H 	0.67590 0.57150 0.83950 0.08300
H 	H 	0.77000 0.37400 0.34330 0.09600
H 	H 	0.16850 0.66990 0.31800 0.01800
H 	H 	0.01180 0.53900 0.51800 0.05400
H 	H 	0.39290 0.67840 0.90150 0.00600
H 	H 	0.67590 0.92850 0.83950 0.08300
H 	H 	0.89890 0.17300 0.25850 0.01800
H 	H 	0.10300 0.57950 0.92940 0.08500
H 	H 	0.46990 0.62380 0.48230 0.07300
H 	H 	0.87250 0.47190 0.98840 0.07900
H 	H 	0.72630 0.12810 0.67300 0.06900
H 	H 	0.34210 0.17030 0.71990 0.02000
H 	H 	0.96290 0.88220 0.46100 0.05500
H 	H 	0.42960 0.03080 0.14850 -0.01600
H 	H 	0.29900 0.92100 0.99930 0.07100
H 	H 	0.27500 0.50570 0.61260 0.17300
H 	H 	0.42450 0.50680 0.86070 0.17100
H 	H 	0.51190 0.56980 0.09660 0.17900
H 	H 	0.36450 0.04280 0.46420 -0.00100
H 	H 	0.27640 0.58950 0.61540 -0.00500
H 	H 	0.27370 0.62810 0.32700 0.06900
H 	H 	0.03710 0.38220 0.53900 0.05500
H 	H 	0.58490 0.45410 0.06100 0.17900
H 	H 	0.58490 0.04590 0.06100 0.17900
H 	H 	0.26460 0.53790 0.58950 0.18000
H 	H 	0.03710 0.11780 0.53900 0.05500
H 	H 	0.59900 0.58610 0.01800 0.01900
H 	H 	0.42960 0.46920 0.14850 -0.01600
H 	H 	0.85890 0.43300 0.46090 0.03700
H 	H 	0.34210 0.32970 0.71990 0.02000
H 	H 	0.65550 0.39160 0.57230 0.08600
H 	H 	0.72500 0.00570 0.38740 0.17300
H 	H 	0.87250 0.02810 0.98840 0.07900
H 	H 	0.10300 0.16810 0.08840 0.02200
H 	H 	0.23000 0.62600 0.65670 0.09600
H 	H 	0.48810 0.56980 0.59660 0.17900
H 	H 	0.77000 0.12600 0.34330 0.09600
H 	H 	0.82740 0.16950 0.04820 0.00300
H 	H 	0.49400 0.51810 0.13300 0.17100
H 	H 	0.72630 0.87190 0.82700 0.07000
H 	H 	0.77000 0.62600 0.15670 0.09600
H 	H 	0.60210 0.50640 0.02390 0.16800
H 	H 	0.65790 0.82970 0.28010 0.02000
H 	H 	0.16850 0.33010 0.18200 0.01800
H 	H 	0.34210 0.82970 0.78010 0.02000
H 	H 	0.56390 0.45660 0.32660 -0.03300
H 	H 	0.75570 0.00460 0.48850 -0.00900
H 	H 	0.17260 0.33050 0.54820 0.00300
H 	H 	0.89700 0.66810 0.91160 0.02200
H 	H 	0.20650 0.62550 0.42000 0.07600
H 	H 	0.75890 0.13060 0.01450 0.08900
H 	H 	0.24430 0.50460 0.51150 -0.00900
H 	H 	0.38710 0.13230 0.75950 0.06600
H 	H 	0.45340 0.00510 0.05080 0.17000
H 	H 	0.12750 0.02810 0.48840 0.07900
H 	H 	0.72360 0.41050 0.38460 -0.00500
H 	H 	0.24430 0.00460 0.98850 -0.00900
H 	H 	0.60590 0.58080 0.21400 0.09800
H 	H 	0.73540 0.03790 0.41050 0.18000
H 	H 	0.60710 0.32160 0.09850 0.00600
H 	H 	0.10430 0.85470 0.47680 0.04800
H 	H 	0.23000 0.12600 0.84330 0.09600
H 	H 	0.60210 0.00640 0.47610 0.16800
H 	H 	0.40100 0.91390 0.51800 0.01900
H 	H 	0.41510 0.04590 0.56100 0.17900
H 	H 	0.60410 0.07770 0.42010 0.19200
H 	H 	0.49400 0.01810 0.36700 0.17100
H 	H 	0.03710 0.61780 0.96100 0.05500
H 	H 	0.65790 0.17030 0.21990 0.02000
H 	H 	0.85890 0.06700 0.46090 0.03700
H 	H 	0.27370 0.37190 0.17300 0.06900
H 	H 	0.53010 0.37620 0.51770 0.07300
H 	H 	0.89570 0.85470 0.97680 0.04800
H 	H 	0.01180 0.03900 0.98200 0.05300
H 	H 	0.87250 0.97190 0.51160 0.07900
H 	H 	0.55440 0.06610 0.56020 -0.01000
H 	H 	0.34450 0.60840 0.42770 0.08600
H 	H 	0.45340 0.99490 0.44920 0.17000
H 	H 	0.22130 0.45070 0.59100 -0.01200
H 	H 	0.27500 0.00570 0.88740 0.17300
H 	H 	0.63550 0.95720 0.53580 -0.00100
H 	H 	0.53550 0.35980 0.06410 0.08700
H 	H 	0.57990 0.51940 0.57870 0.17100
H 	H 	0.39790 0.50640 0.52390 0.16800
H 	H 	0.67590 0.07150 0.66050 0.08300
H 	H 	0.65790 0.67030 0.28010 0.02000
H 	H 	0.29900 0.42100 0.50070 0.07200
H 	H 	0.10430 0.35470 0.02320 0.04800
H 	H 	0.65790 0.32970 0.21990 0.02000
H 	H 	0.89700 0.42050 0.07060 0.08500
H 	H 	0.77870 0.95070 0.40900 -0.01200
H 	H 	0.27500 0.99430 0.61260 0.17300
H 	H 	0.10430 0.64530 0.47680 0.04800
H 	H 	0.54660 0.50510 0.94920 0.17000
H 	H 	0.89570 0.35470 0.52320 0.04800
H 	H 	0.50600 0.51810 0.63300 0.17100
H 	H 	0.96290 0.11780 0.03900 0.05500
H 	H 	0.82740 0.33050 0.04820 0.00300
H 	H 	0.96290 0.38220 0.03900 0.05500
H 	H 	0.39590 0.42230 0.92010 0.19200
H 	H 	0.27640 0.91050 0.61540 -0.00500
H 	H 	0.44560 0.43390 0.06020 -0.01000
H 	H 	0.10110 0.17300 0.75850 0.01800
H 	H 	0.85460 0.36450 0.29770 0.06900
H 	H 	0.44560 0.93390 0.43980 -0.01000
H 	H 	0.98820 0.53900 0.01800 0.05300
H 	H 	0.61290 0.86770 0.24050 0.06600
H 	H 	0.57550 0.50680 0.36070 0.17100
H 	H 	0.10300 0.66810 0.41160 0.02200
H 	H 	0.24110 0.13060 0.51450 0.08800
H 	H 	0.96290 0.61780 0.46100 0.05500
H 	H 	0.50600 0.48190 0.86700 0.17100
H 	H 	0.42960 0.53080 0.35150 -0.01600
H 	H 	0.89700 0.16810 0.58840 0.02200
H 	H 	0.53010 0.62380 0.98230 0.07300
H 	H 	0.57990 0.48060 0.92130 0.17100
H 	H 	0.36820 0.04580 0.59500 0.17600
H 	H 	0.79350 0.87450 0.92000 0.07600
H 	H 	0.98820 0.96100 0.01800 0.05300
H 	H 	0.26460 0.46210 0.91050 0.18000
H 	H 	0.65550 0.89160 0.92770 0.08600
H 	H 	0.66000 0.96180 0.03520 0.17700
H 	H 	0.63180 0.45420 0.09500 0.17600
H 	H 	0.24430 0.99540 0.51150 -0.00900
H 	H 	0.56390 0.95660 0.17340 -0.03300
H 	H 	0.46450 0.64020 0.93590 0.08700
H 	H 	0.34000 0.03820 0.96480 0.17700
H 	H 	0.44560 0.56610 0.43980 -0.01000
C 	C 	0.64020 0.05980 0.35934 -0.22600
C 	C 	0.69830 0.39570 0.30844 0.12200
C 	C 	0.59360 0.39216 0.01190 0.03100
C 	C 	0.81380 0.35804 0.28180 -0.11800
C 	C 	0.40640 0.39216 0.51190 0.03100
C 	C 	0.72990 0.87155 0.21746 0.02500
C 	C 	0.72920 0.89168 0.16119 -0.18300
C 	C 	0.21900 0.61990 0.52410 0.28300
C 	C 	0.27480 0.32252 0.57707 -0.19600
C 	C 	0.64030 0.58168 0.50374 -0.12100
C 	C 	0.79730 0.54416 0.42999 0.09100
C 	C 	0.67430 0.40371 0.61859 0.08000
C 	C 	0.20050 0.86506 0.39941 -0.12100
C 	C 	0.99600 0.60600 0.97390 -0.07200
C 	C 	0.42340 0.06733 0.08123 0.08400
C 	C 	0.46450 0.96274 0.55716 0.35100
C 	C 	0.82360 0.16141 0.66112 0.06800
C 	C 	0.30170 0.39570 0.80844 0.12200
C 	C 	0.61220 0.53692 0.11229 0.37400
C 	C 	0.39150 0.94043 0.66882 0.15000
C 	C 	0.78100 0.38010 0.47590 0.28300
C 	C 	0.01230 0.57270 0.98350 0.00800
C 	C 	0.82360 0.33859 0.66112 0.06800
C 	C 	0.30170 0.10430 0.80844 0.12200
C 	C 	0.21750 0.01289 0.52373 0.08300
C 	C 	0.79950 0.13494 0.60059 -0.12100
C 	C 	0.90540 0.44490 0.02840 0.08100
C 	C 	0.21900 0.11990 0.97590 0.28300
C 	C 	0.54660 0.99229 0.12315 -0.48500
C 	C 	0.30130 0.66321 0.76433 0.06500
C 	C 	0.58620 0.45345 0.63238 0.10100
C 	C 	0.35030 0.07167 0.14004 -0.16400
C 	C 	0.86000 0.89520 0.00620 -0.06800
C 	C 	0.51020 0.93861 0.53248 -0.15100
C 	C 	0.85690 0.03172 0.01000 -0.15300
C 	C 	0.49480 0.10787 0.50648 -0.11100
C 	C 	0.24010 0.13632 0.15561 -0.12200
C 	C 	0.75050 0.01960 0.05330 -0.19100
C 	C 	0.45370 0.54330 0.39613 -0.19200
C 	C 	0.87080 0.56215 0.44201 -0.16100
C 	C 	0.35030 0.92833 0.35996 -0.16400
C 	C 	0.66840 0.50338 0.43292 0.36100
C 	C 	0.35980 0.44020 0.85934 -0.22600
C 	C 	0.17640 0.66141 0.33888 0.06800
C 	C 	0.09460 0.05510 0.52840 0.08100
C 	C 	0.67430 0.59629 0.88141 0.08000
C 	C 	0.53720 0.58491 0.01539 0.04500
C 	C 	0.12920 0.56215 0.94201 -0.16100
C 	C 	0.36220 0.13135 0.53461 0.08500
C 	C 	0.67180 0.85986 0.24068 -0.11500
C 	C 	0.91220 0.87660 0.98440 -0.00600
C 	C 	0.48980 0.43861 0.46752 -0.15100
C 	C 	0.81390 0.29757 0.21071 0.42700
C 	C 	0.05670 0.20189 0.14129 0.42000
C 	C 	0.75990 0.36368 0.65561 -0.12200
C 	C 	0.21600 0.32414 0.73501 -0.15300
C 	C 	0.75050 0.98040 0.44670 -0.19000
C 	C 	0.60230 0.96878 0.42096 -0.48900
C 	C 	0.74440 0.12294 0.62522 0.04000
C 	C 	0.63880 0.66880 0.41877 0.10900
C 	C 	0.45370 0.95670 0.39613 -0.19200
C 	C 	0.52720 0.00879 0.93090 -0.48600
C 	C 	0.30170 0.89570 0.69156 0.12200
C 	C 	0.05670 0.70189 0.35871 0.42000
C 	C 	0.53550 0.46274 0.44284 0.35100
C 	C 	0.46280 0.41509 0.98461 0.04500
C 	C 	0.81390 0.79757 0.28929 0.42700
C 	C 	0.61220 0.96308 0.11229 0.37400
C 	C 	0.88880 0.07600 0.47880 -0.00800
C 	C 	0.59520 0.35424 0.06030 -0.16400
C 	C 	0.60230 0.03122 0.07904 -0.48900
C 	C 	0.33160 0.00338 0.56708 0.36100
C 	C 	0.45340 0.99229 0.62315 -0.48500
C 	C 	0.14310 0.46828 0.51000 -0.15200
C 	C 	0.54660 0.00771 0.37685 -0.48500
C 	C 	0.94330 0.20189 0.64129 0.42000
C 	C 	0.60060 0.55951 0.52549 0.04800
C 	C 	0.94330 0.79811 0.85871 0.42000
C 	C 	0.18610 0.20243 0.71071 0.42700
C 	C 	0.08780 0.62340 0.48440 -0.00600
C 	C 	0.30130 0.83679 0.76433 0.06500
C 	C 	0.72590 0.14041 0.03130 -0.16600
C 	C 	0.43560 0.44082 0.91305 -0.49300
C 	C 	0.72990 0.37155 0.28254 0.02500
C 	C 	0.61940 0.97982 0.04257 -0.48100
C 	C 	0.40480 0.85424 0.93970 -0.16400
C 	C 	0.12920 0.93785 0.94201 -0.16100
C 	C 	0.21600 0.67586 0.76499 -0.15300
C 	C 	0.00400 0.60600 0.47390 -0.07300
C 	C 	0.57660 0.06733 0.58123 0.08400
C 	C 	0.27480 0.67748 0.92293 -0.19600
C 	C 	0.45370 0.04330 0.10387 -0.19200
C 	C 	0.53720 0.08491 0.48461 0.04500
C 	C 	0.78100 0.88010 0.02410 0.28300
C 	C 	0.67430 0.09629 0.61859 0.08000
C 	C 	0.01230 0.07270 0.51650 0.00900
C 	C 	0.30130 0.16321 0.73567 0.06500
C 	C 	0.54630 0.45670 0.60387 -0.19200
C 	C 	0.46280 0.91509 0.51539 0.04500
C 	C 	0.78100 0.61990 0.02410 0.28300
C 	C 	0.54630 0.04330 0.60387 -0.19200
C 	C 	0.30130 0.33679 0.73567 0.06500
C 	C 	0.01230 0.42730 0.51650 0.00900
C 	C 	0.78400 0.67586 0.26499 -0.15300
C 	C 	0.21600 0.82414 0.76499 -0.15300
C 	C 	0.63880 0.83120 0.41877 0.10900
C 	C 	0.24010 0.36368 0.15561 -0.12200
C 	C 	0.53550 0.53726 0.05716 0.35100
C 	C 	0.45370 0.45670 0.10387 -0.19200
C 	C 	0.57660 0.43267 0.58123 0.08400
C 	C 	0.12420 0.82578 0.36364 -0.15100
C 	C 	0.35970 0.58168 0.00374 -0.12100
C 	C 	0.61940 0.52018 0.04257 -0.48100
C 	C 	0.81380 0.14196 0.28180 -0.11800
C 	C 	0.13740 0.66022 0.39434 0.06700
C 	C 	0.18620 0.85804 0.71820 -0.11800
C 	C 	0.63780 0.86865 0.46539 0.08500
C 	C 	0.72990 0.12845 0.28254 0.02500
C 	C 	0.43560 0.05918 0.91305 -0.49300
C 	C 	0.72590 0.35959 0.03130 -0.16600
C 	C 	0.98770 0.42730 0.01650 0.00800
C 	C 	0.18610 0.29757 0.71071 0.42700
C 	C 	0.40640 0.10784 0.51190 0.03100
C 	C 	0.69870 0.16321 0.23567 0.06500
C 	C 	0.76790 0.33646 0.05194 0.11600
C 	C 	0.54630 0.95670 0.89613 -0.19200
C 	C 	0.94330 0.29811 0.64129 0.42000
C 	C 	0.58620 0.95345 0.86762 0.10100
C 	C 	0.59520 0.14576 0.06030 -0.16400
C 	C 	0.60850 0.44043 0.33118 0.15000
C 	C 	0.51780 0.51500 0.40577 0.36400
C 	C 	0.48220 0.51500 0.90577 0.36400
C 	C 	0.47280 0.99121 0.06910 -0.48600
C 	C 	0.52720 0.49121 0.93090 -0.48600
C 	C 	0.38780 0.03692 0.88771 0.37400
C 	C 	0.05670 0.79811 0.35871 0.42000
C 	C 	0.75990 0.13632 0.65561 -0.12200
C 	C 	0.81390 0.20243 0.21071 0.42700
C 	C 	0.98770 0.57270 0.48350 0.00900
C 	C 	0.48980 0.06139 0.46752 -0.15100
C 	C 	0.58620 0.54655 0.86762 0.10100
C 	C 	0.45340 0.00771 0.87685 -0.48500
C 	C 	0.09460 0.44490 0.52840 0.08100
C 	C 	0.27010 0.62845 0.71746 0.02500
C 	C 	0.35980 0.05980 0.85934 -0.22600
C 	C 	0.96780 0.55950 0.00850 -0.07400
C 	C 	0.98770 0.07270 0.01650 0.00800
C 	C 	0.64020 0.94020 0.14066 -0.22600
C 	C 	0.53720 0.91509 0.01539 0.04500
C 	C 	0.67180 0.64014 0.24068 -0.11500
C 	C 	0.24010 0.63632 0.34439 -0.12200
C 	C 	0.40640 0.60784 0.98810 0.03100
C 	C 	0.75050 0.48040 0.05330 -0.19100
C 	C 	0.85690 0.46828 0.01000 -0.15300
C 	C 	0.15970 0.33516 0.75832 0.06900
C 	C 	0.58620 0.04655 0.63238 0.10100
C 	C 	0.39770 0.96878 0.92096 -0.48900
C 	C 	0.21900 0.38010 0.97590 0.28300
C 	C 	0.51020 0.06139 0.96752 -0.15100
C 	C 	0.63820 0.59295 0.91156 -0.15800
C 	C 	0.15970 0.83516 0.74168 0.06900
C 	C 	0.79950 0.36506 0.60059 -0.12100
C 	C 	0.21750 0.48711 0.52373 0.08300
C 	C 	0.15970 0.66484 0.74168 0.06900
C 	C 	0.69430 0.51989 0.09662 -0.48500
C 	C 	0.78100 0.11990 0.47590 0.28300
C 	C 	0.09460 0.55510 0.97160 0.08100
C 	C 	0.53720 0.41509 0.48461 0.04500
C 	C 	0.42340 0.43267 0.08123 0.08400
C 	C 	0.87580 0.67422 0.86364 -0.15100
C 	C 	0.17640 0.83859 0.33888 0.06800
C 	C 	0.63580 0.91772 0.19426 -0.21200
C 	C 	0.27480 0.17748 0.57707 -0.19600
C 	C 	0.76950 0.70308 0.40058 0.45800
C 	C 	0.76950 0.79692 0.40058 0.45800
C 	C 	0.43560 0.94082 0.58695 -0.49300
C 	C 	0.78400 0.82414 0.26499 -0.15300
C 	C 	0.23210 0.33646 0.55194 0.11600
C 	C 	0.67430 0.90371 0.88141 0.08000
C 	C 	0.57660 0.93267 0.91877 0.08400
C 	C 	0.69830 0.89570 0.19156 0.12200
C 	C 	0.30570 0.51989 0.59662 -0.48400
C 	C 	0.59360 0.10784 0.01190 0.03100
C 	C 	0.69830 0.10430 0.30844 0.12200
C 	C 	0.64020 0.44020 0.35934 -0.22600
C 	C 	0.84030 0.66484 0.24168 0.06900
C 	C 	0.84030 0.83516 0.24168 0.06900
C 	C 	0.32820 0.64014 0.74068 -0.11500
C 	C 	0.57660 0.56733 0.91877 0.08400
C 	C 	0.99600 0.89400 0.97390 -0.07200
C 	C 	0.12420 0.17422 0.13636 -0.15100
C 	C 	0.63780 0.36865 0.03461 0.08500
C 	C 	0.76790 0.16354 0.05194 0.11600
C 	C 	0.64030 0.41832 0.99626 -0.12100
C 	C 	0.20050 0.36506 0.10059 -0.12100
C 	C 	0.86000 0.60480 0.00620 -0.06800
C 	C 	0.24950 0.01960 0.55330 -0.19000
C 	C 	0.21750 0.98711 0.97627 0.08300
C 	C 	0.72520 0.67748 0.42293 -0.19600
C 	C 	0.36220 0.86865 0.96539 0.08500
C 	C 	0.50520 0.10787 0.00648 -0.11100
C 	C 	0.14310 0.53172 0.99000 -0.15300
C 	C 	0.96780 0.44050 0.49150 -0.07400
C 	C 	0.13740 0.16022 0.10566 0.06700
C 	C 	0.87080 0.93785 0.44201 -0.16100
C 	C 	0.52720 0.99121 0.56910 -0.48600
C 	C 	0.47280 0.50879 0.06910 -0.48600
C 	C 	0.48220 0.01500 0.59423 0.36400
C 	C 	0.99600 0.39400 0.52610 -0.07300
C 	C 	0.72590 0.64041 0.46870 -0.16600
C 	C 	0.39150 0.55957 0.66882 0.15000
C 	C 	0.51780 0.48500 0.09423 0.36400
C 	C 	0.32570 0.59629 0.38141 0.08000
C 	C 	0.32570 0.40371 0.11859 0.08000
C 	C 	0.40480 0.14576 0.56030 -0.16400
C 	C 	0.35970 0.08168 0.49626 -0.12100
C 	C 	0.49480 0.39213 0.50648 -0.11100
C 	C 	0.67180 0.14014 0.25932 -0.11500
C 	C 	0.20050 0.63494 0.39941 -0.12100
C 	C 	0.84030 0.16484 0.25832 0.06900
C 	C 	0.59360 0.89216 0.48810 0.03100
C 	C 	0.78250 0.01289 0.02373 0.08300
C 	C 	0.88880 0.42400 0.47880 -0.00800
C 	C 	0.96780 0.94050 0.00850 -0.07400
C 	C 	0.43560 0.55918 0.58695 -0.49300
C 	C 	0.38060 0.47982 0.95743 -0.48100
C 	C 	0.38060 0.02018 0.95743 -0.48100
C 	C 	0.32570 0.90371 0.38141 0.08000
C 	C 	0.61940 0.02018 0.45743 -0.48100
C 	C 	0.17640 0.33859 0.16112 0.06700
C 	C 	0.60850 0.55957 0.16882 0.15000
C 	C 	0.39940 0.55951 0.02549 0.04800
C 	C 	0.46450 0.03726 0.94284 0.35100
C 	C 	0.51020 0.43861 0.96752 -0.15100
C 	C 	0.36180 0.40705 0.08844 -0.15800
C 	C 	0.47280 0.00879 0.43090 -0.48600
C 	C 	0.20270 0.95584 0.92999 0.09100
C 	C 	0.60850 0.05957 0.33118 0.15000
C 	C 	0.75990 0.63632 0.84439 -0.12200
C 	C 	0.36420 0.08228 0.80574 -0.21200
C 	C 	0.72990 0.62845 0.21746 0.02500
C 	C 	0.59520 0.64576 0.43970 -0.16400
C 	C 	0.15970 0.16484 0.75832 0.06900
C 	C 	0.14000 0.60480 0.50620 -0.06800
C 	C 	0.88880 0.92400 0.02120 -0.00800
C 	C 	0.87080 0.06215 0.05799 -0.16100
C 	C 	0.29950 0.91391 0.63610 0.11000
C 	C 	0.00400 0.89400 0.47390 -0.07300
C 	C 	0.72520 0.32252 0.07707 -0.19600
C 	C 	0.69870 0.33679 0.23567 0.06500
C 	C 	0.49480 0.60787 0.99352 -0.11100
C 	C 	0.75990 0.86368 0.84439 -0.12200
C 	C 	0.74440 0.87706 0.87478 0.04000
C 	C 	0.11120 0.07600 0.97880 -0.00800
C 	C 	0.76950 0.20308 0.09942 0.45800
C 	C 	0.60230 0.46878 0.07904 -0.48900
C 	C 	0.46280 0.08491 0.98461 0.04500
C 	C 	0.21600 0.17586 0.73501 -0.15300
C 	C 	0.23050 0.79692 0.90058 0.45800
C 	C 	0.33160 0.99662 0.93292 0.36100
C 	C 	0.36220 0.36865 0.53461 0.08500
C 	C 	0.72520 0.82252 0.42293 -0.19600
C 	C 	0.27010 0.37155 0.78254 0.02500
C 	C 	0.90540 0.05510 0.02840 0.08100
C 	C 	0.60060 0.44049 0.97451 0.04800
C 	C 	0.45340 0.49229 0.87685 -0.48500
C 	C 	0.86260 0.83978 0.89434 0.06700
C 	C 	0.39940 0.05951 0.47451 0.04800
C 	C 	0.27080 0.10832 0.83881 -0.18300
C 	C 	0.01230 0.92730 0.98350 0.00800
C 	C 	0.36220 0.63135 0.96539 0.08500
C 	C 	0.86260 0.33978 0.60566 0.06700
C 	C 	0.82360 0.66141 0.83888 0.06700
C 	C 	0.24950 0.98040 0.94670 -0.19100
C 	C 	0.41380 0.45345 0.13238 0.10100
C 	C 	0.42340 0.56733 0.41877 0.08400
C 	C 	0.86000 0.10480 0.49380 -0.06800
C 	C 	0.27410 0.35959 0.53130 -0.16600
C 	C 	0.50520 0.60787 0.49352 -0.11100
C 	C 	0.72920 0.39168 0.33881 -0.18300
C 	C 	0.30170 0.60430 0.69156 0.12200
C 	C 	0.74440 0.62294 0.87478 0.04000
C 	C 	0.87580 0.32578 0.63636 -0.15100
C 	C 	0.64970 0.92833 0.85996 -0.16400
C 	C 	0.78250 0.51289 0.47627 0.08300
C 	C 	0.39770 0.03122 0.57904 -0.48900
C 	C 	0.60060 0.94049 0.52549 0.04800
C 	C 	0.00400 0.39400 0.02610 -0.07200
C 	C 	0.61220 0.03692 0.38771 0.37400
C 	C 	0.24010 0.86368 0.34439 -0.12200
C 	C 	0.03220 0.44050 0.99150 -0.07400
C 	C 	0.21750 0.51289 0.97627 0.08300
C 	C 	0.36120 0.83120 0.91877 0.10900
C 	C 	0.88880 0.57600 0.02120 -0.00800
C 	C 	0.27080 0.89168 0.66119 -0.18300
C 	C 	0.03220 0.55950 0.50850 -0.07400
C 	C 	0.49480 0.89213 0.99352 -0.11100
C 	C 	0.78400 0.17586 0.23501 -0.15300
C 	C 	0.63880 0.16880 0.08123 0.10900
C 	C 	0.86260 0.66022 0.89434 0.06700
C 	C 	0.52720 0.50879 0.56910 -0.48600
C 	C 	0.27410 0.85959 0.96870 -0.16600
C 	C 	0.29950 0.41391 0.86390 0.11000
C 	C 	0.41380 0.95345 0.36762 0.10100
C 	C 	0.39150 0.05957 0.83118 0.14900
C 	C 	0.63780 0.63135 0.46539 0.08500
C 	C 	0.03220 0.94050 0.50850 -0.07400
C 	C 	0.50520 0.89213 0.49352 -0.11100
C 	C 	0.64970 0.42833 0.64004 -0.16400
C 	C 	0.90540 0.55510 0.47160 0.08100
C 	C 	0.21900 0.88010 0.52410 0.28300
C 	C 	0.76790 0.83646 0.44806 0.11600
C 	C 	0.63820 0.40705 0.58844 -0.15800
C 	C 	0.81380 0.64196 0.21820 -0.11800
C 	C 	0.63580 0.41772 0.30574 -0.21200
C 	C 	0.14000 0.39520 0.99380 -0.06800
C 	C 	0.36120 0.16880 0.58123 0.10900
C 	C 	0.84030 0.33516 0.25832 0.06900
C 	C 	0.41380 0.54655 0.36762 0.10100
C 	C 	0.66840 0.00338 0.06708 0.36100
C 	C 	0.63580 0.58228 0.19426 -0.21200
C 	C 	0.48220 0.98500 0.90577 0.36400
C 	C 	0.69830 0.60430 0.19156 0.12200
C 	C 	0.18620 0.35804 0.78180 -0.11800
C 	C 	0.85690 0.96828 0.49000 -0.15200
C 	C 	0.74440 0.37706 0.62522 0.04000
C 	C 	0.75050 0.51960 0.44670 -0.19000
C 	C 	0.69430 0.48011 0.40338 -0.48400
C 	C 	0.70050 0.41391 0.36390 0.11000
C 	C 	0.08780 0.37660 0.01560 -0.00600
C 	C 	0.45340 0.50771 0.62315 -0.48500
C 	C 	0.30570 0.01989 0.90338 -0.48400
C 	C 	0.72920 0.60832 0.16119 -0.18300
C 	C 	0.13740 0.83978 0.39434 0.06700
C 	C 	0.85690 0.53172 0.49000 -0.15200
C 	C 	0.20270 0.45584 0.57001 0.09100
C 	C 	0.87580 0.82578 0.86364 -0.15100
C 	C 	0.69870 0.66321 0.26433 0.06500
C 	C 	0.23210 0.66354 0.94806 0.11600
C 	C 	0.54660 0.50771 0.12315 -0.48500
C 	C 	0.56440 0.05918 0.41305 -0.49300
C 	C 	0.42340 0.93267 0.41877 0.08400
C 	C 	0.08780 0.87660 0.48440 -0.00600
C 	C 	0.56440 0.44082 0.41305 -0.49300
C 	C 	0.32820 0.85986 0.74068 -0.11500
C 	C 	0.24950 0.51960 0.94670 -0.19100
C 	C 	0.63820 0.90705 0.91156 -0.15800
C 	C 	0.20270 0.04416 0.57001 0.09100
C 	C 	0.32820 0.14014 0.75932 -0.11500
C 	C 	0.12920 0.43785 0.55799 -0.16100
C 	C 	0.30570 0.48011 0.90338 -0.48500
C 	C 	0.14310 0.03172 0.51000 -0.15200
C 	C 	0.08780 0.12340 0.01560 -0.00600
C 	C 	0.70050 0.08609 0.36390 0.11000
C 	C 	0.69430 0.01989 0.40338 -0.48500
C 	C 	0.36120 0.66880 0.91877 0.10900
C 	C 	0.94330 0.70189 0.85871 0.42000
C 	C 	0.70050 0.58609 0.13610 0.11000
C 	C 	0.18620 0.14196 0.78180 -0.11800
C 	C 	0.91220 0.12340 0.51560 -0.00600
C 	C 	0.66840 0.49662 0.06708 0.36100
C 	C 	0.64030 0.91832 0.50374 -0.12100
C 	C 	0.79730 0.04416 0.07001 0.09100
C 	C 	0.23050 0.29692 0.59942 0.45800
C 	C 	0.14000 0.10480 0.99380 -0.06800
C 	C 	0.63580 0.08228 0.30574 -0.21200
C 	C 	0.27480 0.82252 0.92293 -0.19600
C 	C 	0.38780 0.46308 0.88771 0.37400
C 	C 	0.63820 0.09295 0.58844 -0.15800
C 	C 	0.33160 0.50338 0.93292 0.36100
C 	C 	0.64970 0.07167 0.64004 -0.16400
C 	C 	0.11120 0.57600 0.52120 -0.00800
C 	C 	0.72590 0.85959 0.46870 -0.16600
C 	C 	0.38060 0.52018 0.54257 -0.48100
C 	C 	0.48980 0.56139 0.03248 -0.15100
C 	C 	0.90540 0.94490 0.47160 0.08100
C 	C 	0.46450 0.53726 0.55716 0.35100
C 	C 	0.29950 0.08609 0.86390 0.11000
C 	C 	0.69430 0.98011 0.09662 -0.48400
C 	C 	0.63880 0.33120 0.08123 0.10900
C 	C 	0.78400 0.32414 0.23501 -0.15300
C 	C 	0.61220 0.46308 0.38771 0.37400
C 	C 	0.23210 0.83646 0.94806 0.11600
C 	C 	0.35970 0.91832 0.00374 -0.12100
C 	C 	0.40640 0.89216 0.98810 0.03100
C 	C 	0.18620 0.64196 0.71820 -0.11800
C 	C 	0.03220 0.05950 0.99150 -0.07400
C 	C 	0.00400 0.10600 0.02610 -0.07200
C 	C 	0.35030 0.57167 0.35996 -0.16400
C 	C 	0.38780 0.53692 0.61229 0.37400
C 	C 	0.39770 0.46878 0.57904 -0.48900
C 	C 	0.23050 0.20308 0.59942 0.45800
C 	C 	0.30570 0.98011 0.59662 -0.48500
C 	C 	0.87580 0.17422 0.63636 -0.15100
C 	C 	0.64020 0.55980 0.14066 -0.22600
C 	C 	0.27080 0.60832 0.66119 -0.18300
C 	C 	0.13740 0.33978 0.10566 0.06700
C 	C 	0.63780 0.13135 0.03461 0.08500
C 	C 	0.72920 0.10832 0.33881 -0.18300
C 	C 	0.98770 0.92730 0.48350 0.00900
C 	C 	0.27410 0.14041 0.53130 -0.16600
C 	C 	0.86000 0.39520 0.49380 -0.06800
C 	C 	0.09460 0.94490 0.97160 0.08100
C 	C 	0.41380 0.04655 0.13238 0.10100
C 	C 	0.70050 0.91391 0.13610 0.11000
C 	C 	0.81390 0.70243 0.28929 0.42700
C 	C 	0.78250 0.98711 0.47627 0.08300
C 	C 	0.23210 0.16354 0.55194 0.11600
C 	C 	0.27080 0.39168 0.83881 -0.18300
C 	C 	0.79730 0.95584 0.42999 0.09100
C 	C 	0.39940 0.44049 0.47451 0.04800
C 	C 	0.50520 0.39213 0.00648 -0.11100
C 	C 	0.56440 0.55918 0.08695 -0.49300
C 	C 	0.60060 0.05951 0.97451 0.04800
C 	C 	0.60230 0.53122 0.42096 -0.48900
C 	C 	0.38060 0.97982 0.54257 -0.48100
C 	C 	0.48980 0.93861 0.03248 -0.15100
C 	C 	0.27010 0.12845 0.78254 0.02500
C 	C 	0.60850 0.94043 0.16882 0.14900
C 	C 	0.18610 0.70243 0.78929 0.42700
C 	C 	0.54660 0.49229 0.37685 -0.48500
C 	C 	0.05670 0.29811 0.14129 0.42000
C 	C 	0.76950 0.29692 0.09942 0.45800
C 	C 	0.91220 0.37660 0.51560 -0.00600
C 	C 	0.36120 0.33120 0.58123 0.10900
C 	C 	0.11120 0.42400 0.97880 -0.00800
C 	C 	0.51020 0.56139 0.53248 -0.15100
C 	C 	0.36180 0.59295 0.41156 -0.15800
C 	C 	0.35030 0.42833 0.14004 -0.16400
C 	C 	0.66840 0.99662 0.43292 0.36100
C 	C 	0.27010 0.87155 0.71746 0.02500
C 	C 	0.72520 0.17748 0.07707 -0.19600
C 	C 	0.87080 0.43785 0.05799 -0.16100
C 	C 	0.39940 0.94049 0.02549 0.04800
C 	C 	0.12420 0.67422 0.36364 -0.15100
C 	C 	0.25560 0.12294 0.12522 0.04000
C 	C 	0.18610 0.79757 0.78929 0.42700
C 	C 	0.39770 0.53122 0.92096 -0.48900
C 	C 	0.47280 0.49121 0.43090 -0.48600
C 	C 	0.25560 0.87706 0.37478 0.04000
C 	C 	0.36180 0.09295 0.08844 -0.15800
C 	C 	0.46450 0.46274 0.94284 0.35100
C 	C 	0.51780 0.98500 0.40577 0.36400
C 	C 	0.35980 0.55980 0.64066 -0.22600
C 	C 	0.40480 0.35424 0.56030 -0.16400
C 	C 	0.17640 0.16141 0.16112 0.06800
C 	C 	0.61940 0.47982 0.45743 -0.48100
C 	C 	0.25560 0.37706 0.12522 0.04000
C 	C 	0.53550 0.03726 0.44284 0.35100
C 	C 	0.64970 0.57167 0.85996 -0.16400
C 	C 	0.79730 0.45584 0.07001 0.09100
C 	C 	0.33160 0.49662 0.56708 0.36100
C 	C 	0.25560 0.62294 0.37478 0.04000
C 	C 	0.36420 0.91772 0.69426 -0.21200
C 	C 	0.54630 0.54330 0.89613 -0.19200
C 	C 	0.38780 0.96308 0.61229 0.37400
C 	C 	0.78250 0.48711 0.02373 0.08300
C 	C 	0.86260 0.16022 0.60566 0.06700
C 	C 	0.20270 0.54416 0.92999 0.09100
C 	C 	0.14000 0.89520 0.50620 -0.06800
C 	C 	0.67180 0.35986 0.25932 -0.11500
C 	C 	0.39150 0.44043 0.83118 0.15000
C 	C 	0.35970 0.41832 0.49626 -0.12100
C 	C 	0.79950 0.86506 0.89941 -0.12100
C 	C 	0.32570 0.09629 0.11859 0.08000
C 	C 	0.32820 0.35986 0.75932 -0.11500
C 	C 	0.51780 0.01500 0.09423 0.36400
C 	C 	0.36180 0.90705 0.41156 -0.15800
C 	C 	0.23050 0.70308 0.90058 0.45800
C 	C 	0.59360 0.60784 0.48810 0.03100
C 	C 	0.91220 0.62340 0.98440 -0.00600
C 	C 	0.36420 0.41772 0.80574 -0.21200
C 	C 	0.79950 0.63494 0.89941 -0.12100
C 	C 	0.36420 0.58228 0.69426 -0.21200
C 	C 	0.99600 0.10600 0.52610 -0.07300
C 	C 	0.59520 0.85424 0.43970 -0.16400
C 	C 	0.48220 0.48500 0.59423 0.36400
C 	C 	0.82360 0.83859 0.83888 0.06800
C 	C 	0.27410 0.64041 0.96870 -0.16600
C 	C 	0.11120 0.92400 0.52120 -0.00800
C 	C 	0.96780 0.05950 0.49150 -0.07400
C 	C 	0.53550 0.96274 0.05716 0.35100
C 	C 	0.81380 0.85804 0.21820 -0.11800
C 	C 	0.40480 0.64576 0.93970 -0.16400
C 	C 	0.35980 0.94020 0.64066 -0.22600
C 	C 	0.56440 0.94082 0.08695 -0.49300
C 	C 	0.12920 0.06215 0.55799 -0.16100
C 	C 	0.24950 0.48040 0.55330 -0.19000
C 	C 	0.29950 0.58609 0.63610 0.11000
C 	C 	0.14310 0.96828 0.99000 -0.15300
C 	C 	0.20050 0.13494 0.10059 -0.12100
C 	C 	0.69870 0.83679 0.26433 0.06500
C 	C 	0.64030 0.08168 0.99626 -0.12100
C 	C 	0.12420 0.32578 0.13636 -0.15100
C 	C 	0.76790 0.66354 0.44806 0.11600
C 	C 	0.46280 0.58491 0.51539 0.04500
O 	O 	0.75690 0.15010 0.49400 -0.20600
O 	O 	0.25650 0.61200 0.54710 -0.27400
O 	O 	0.95720 0.28773 0.66952 -0.44300
O 	O 	0.89140 0.71284 0.28840 -0.45800
O 	O 	0.27220 0.28670 0.62349 -0.46300
O 	O 	0.12050 0.75000 0.84915 -0.64900
O 	O 	0.95720 0.71227 0.83048 -0.44300
O 	O 	0.25650 0.38800 0.95290 -0.27400
O 	O 	0.75400 0.28778 0.19124 -0.44500
O 	O 	0.15580 0.71320 0.90880 -0.46300
O 	O 	0.15580 0.21320 0.59120 -0.46300
O 	O 	0.89140 0.21284 0.21160 -0.45800
O 	O 	0.98270 0.78710 0.88340 -0.45200
O 	O 	0.95720 0.78773 0.83048 -0.44300
O 	O 	0.87950 0.75000 0.34915 -0.64900
O 	O 	0.84420 0.21320 0.09120 -0.46300
O 	O 	0.10860 0.71284 0.78840 -0.45800
O 	O 	0.84420 0.28680 0.09120 -0.46300
O 	O 	0.25650 0.88800 0.54710 -0.27400
O 	O 	0.89140 0.28716 0.21160 -0.45800
O 	O 	0.84420 0.71320 0.40880 -0.46300
O 	O 	0.15580 0.28680 0.59120 -0.46300
O 	O 	0.75400 0.21222 0.19124 -0.44500
O 	O 	0.25650 0.11200 0.95290 -0.27400
O 	O 	0.75690 0.34990 0.49400 -0.20600
O 	O 	0.75690 0.84990 0.00600 -0.20600
O 	O 	0.10860 0.28716 0.71160 -0.45800
O 	O 	0.24310 0.65010 0.50600 -0.20600
O 	O 	0.72780 0.78670 0.37651 -0.46300
O 	O 	0.74350 0.38800 0.45290 -0.27400
O 	O 	0.72780 0.28670 0.12349 -0.46300
O 	O 	0.87950 0.25000 0.15085 -0.64900
O 	O 	0.75400 0.78778 0.30876 -0.44500
O 	O 	0.24600 0.71222 0.80876 -0.44500
O 	O 	0.10860 0.78716 0.78840 -0.45800
O 	O 	0.04280 0.21227 0.16952 -0.44300
O 	O 	0.74350 0.88800 0.04710 -0.27400
O 	O 	0.74350 0.11200 0.45290 -0.27400
O 	O 	0.98270 0.21290 0.61660 -0.45300
O 	O 	0.95720 0.21227 0.66952 -0.44300
O 	O 	0.24600 0.28778 0.69124 -0.44500
O 	O 	0.27220 0.78670 0.87651 -0.46300
O 	O 	0.72780 0.71330 0.37651 -0.46300
O 	O 	0.75400 0.71222 0.30876 -0.44500
O 	O 	0.24310 0.15010 0.99400 -0.20600
O 	O 	0.84420 0.78680 0.40880 -0.46300
O 	O 	0.01730 0.21290 0.11660 -0.45200
O 	O 	0.01730 0.71290 0.38340 -0.45300
O 	O 	0.01730 0.28710 0.11660 -0.45200
O 	O 	0.15580 0.78680 0.90880 -0.46300
O 	O 	0.27220 0.21330 0.62349 -0.46300
O 	O 	0.98270 0.71290 0.88340 -0.45200
O 	O 	0.04280 0.78773 0.33048 -0.44300
O 	O 	0.24600 0.21222 0.69124 -0.44500
O 	O 	0.24310 0.34990 0.99400 -0.20600
O 	O 	0.24600 0.78778 0.80876 -0.44500
O 	O 	0.98270 0.28710 0.61660 -0.45300
O 	O 	0.89140 0.78716 0.28840 -0.45800
O 	O 	0.01730 0.78710 0.38340 -0.45300
O 	O 	0.74350 0.61200 0.04710 -0.27400
O 	O 	0.04280 0.28773 0.16952 -0.44300
O 	O 	0.27220 0.71330 0.87651 -0.46300
O 	O 	0.72780 0.21330 0.12349 -0.46300
O 	O 	0.24310 0.84990 0.50600 -0.20600
O 	O 	0.75690 0.65010 0.00600 -0.20600
O 	O 	0.10860 0.21284 0.71160 -0.45800
O 	O 	0.04280 0.71227 0.33048 -0.44300
O 	O 	0.12050 0.25000 0.65085 -0.64900
